MS0001
     RDKit          2D

 34 37  0  0  0  0  0  0  0  0999 V2000
  -11.3778    3.4316    0.0000 C   0  0  0  0  0  0  0  0  0  0  0  0
  -10.6064    2.1451    0.0000 C   0  0  0  0  0  0  0  0  0  0  0  0
   -9.1066    2.1699    0.0000 C   0  0  0  0  0  0  0  0  0  0  0  0
   -8.3353    0.8834    0.0000 C   0  0  0  0  0  0  0  0  0  0  0  0
   -6.8355    0.9082    0.0000 C   0  0  0  0  0  0  0  0  0  0  0  0
   -6.0641   -0.3782    0.0000 N   0  0  0  0  0  0  0  0  0  0  0  0
   -4.5643   -0.3534    0.0000 C   0  0  0  0  0  0  0  0  0  0  0  0
   -3.8359    0.9578    0.0000 O   0  0  0  0  0  0  0  0  0  0  0  0
   -3.7929   -1.6399    0.0000 C   0  0  0  0  0  0  0  0  0  0  0  0
   -2.2931   -1.6151    0.0000 C   0  0  0  0  0  0  0  0  0  0  0  0
   -1.5218   -2.9016    0.0000 C   0  0  0  0  0  0  0  0  0  0  0  0
   -2.2502   -4.2128    0.0000 C   0  0  0  0  0  0  0  0  0  0  0  0
   -0.0220   -2.8768    0.0000 C   0  0  0  0  0  0  0  0  0  0  0  0
    0.8797   -4.0755    0.0000 C   0  0  0  0  0  0  0  0  0  0  0  0
    2.2984   -3.5885    0.0000 C   0  0  0  0  0  0  0  0  0  0  0  0
    2.2736   -2.0887    0.0000 C   0  0  0  0  0  0  0  0  0  0  0  0
    3.3716   -1.0667    0.0000 C   0  0  0  0  0  0  0  0  0  0  0  0
    4.8056   -1.5066    0.0000 C   0  0  0  0  0  0  0  0  0  0  0  0
    5.1417   -2.9685    0.0000 O   0  0  0  0  0  0  0  0  0  0  0  0
    5.9036   -0.4846    0.0000 C   0  0  0  0  0  0  0  0  0  0  0  0
    5.5675    0.9773    0.0000 C   0  0  0  0  0  0  0  0  0  0  0  0
    6.6655    1.9992    0.0000 C   0  0  0  0  0  0  0  0  0  0  0  0
    6.3294    3.4611    0.0000 C   0  0  0  0  0  0  0  0  0  0  0  0
    7.4274    4.4831    0.0000 O   0  0  0  0  0  0  0  0  0  0  0  0
    4.8953    3.9010    0.0000 C   0  0  0  0  0  0  0  0  0  0  0  0
    3.7974    2.8790    0.0000 C   0  0  0  0  0  0  0  0  0  0  0  0
    4.1334    1.4171    0.0000 C   0  0  0  0  0  0  0  0  0  0  0  0
    2.6994    1.8570    0.0000 C   0  0  0  0  0  0  0  0  0  0  0  0
    3.0355    0.3951    0.0000 C   0  0  0  0  0  0  0  0  0  0  0  0
    1.6014    0.8350    0.0000 C   0  0  0  0  0  0  0  0  0  0  0  0
    0.5034   -0.1870    0.0000 C   0  0  0  0  0  0  0  0  0  0  0  0
   -0.9306    0.2529    0.0000 O   0  0  0  0  0  0  0  0  0  0  0  0
    0.8395   -1.6488    0.0000 C   0  0  0  0  0  0  0  0  0  0  0  0
   -0.6326   -1.3613    0.0000 C   0  0  0  0  0  0  0  0  0  0  0  0
  1  2  1  0
  2  3  1  0
  3  4  1  0
  4  5  1  0
  5  6  1  0
  6  7  1  0
  7  8  2  0
  7  9  1  0
  9 10  1  0
 10 11  1  0
 11 12  1  6
 11 13  1  0
 13 14  1  6
 14 15  1  0
 16 15  1  6
 16 17  1  0
 17 18  1  1
 18 19  1  1
 18 20  1  0
 21 20  1  1
 21 22  1  0
 22 23  1  0
 23 24  1  1
 23 25  1  0
 25 26  1  0
 26 27  1  0
 27 28  1  6
 27 29  1  0
 29 30  1  6
 30 31  1  0
 31 32  1  1
 31 33  1  0
 33 34  1  6
 33 13  1  0
 33 16  1  0
 29 17  1  0
 27 21  1  0
M  END
>  <MS_ID>  (1) 
MS0001

>  <SMILES>  (1) 
CCCCCNC(=O)CC[C@@H](C)[C@H]1CC[C@H]2[C@@H]3[C@H](O)C[C@@H]4C[C@H](O)CC[C@]4(C)[C@H]3C[C@H](O)[C@]12C

>  <Structure_dimension>  (1) 
2D

$$$$
MS0002
     RDKit          2D

 39 43  0  0  0  0  0  0  0  0999 V2000
   -8.0325   -2.2018    0.0000 C   0  0  0  0  0  0  0  0  0  0  0  0
   -6.8746   -1.2481    0.0000 C   0  0  0  0  0  0  0  0  0  0  0  0
   -7.1216    0.2314    0.0000 C   0  0  0  0  0  0  0  0  0  0  0  0
   -8.5264    0.7573    0.0000 C   0  0  0  0  0  0  0  0  0  0  0  0
   -8.7734    2.2368    0.0000 C   0  0  0  0  0  0  0  0  0  0  0  0
   -7.6156    3.1905    0.0000 O   0  0  0  0  0  0  0  0  0  0  0  0
  -10.1782    2.7627    0.0000 O   0  0  0  0  0  0  0  0  0  0  0  0
   -5.4699   -1.7740    0.0000 C   0  0  0  0  0  0  0  0  0  0  0  0
   -5.0696   -3.2196    0.0000 C   0  0  0  0  0  0  0  0  0  0  0  0
   -3.5710   -3.2856    0.0000 C   0  0  0  0  0  0  0  0  0  0  0  0
   -3.0452   -1.8808    0.0000 C   0  0  0  0  0  0  0  0  0  0  0  0
   -1.6493   -1.3317    0.0000 C   0  0  0  0  0  0  0  0  0  0  0  0
   -0.4758   -2.2659    0.0000 C   0  0  0  0  0  0  0  0  0  0  0  0
    0.9201   -1.7167    0.0000 C   0  0  0  0  0  0  0  0  0  0  0  0
    1.1424   -0.2333    0.0000 C   0  0  0  0  0  0  0  0  0  0  0  0
    2.5382    0.3159    0.0000 C   0  0  0  0  0  0  0  0  0  0  0  0
    2.7606    1.7993    0.0000 C   0  0  0  0  0  0  0  0  0  0  0  0
    4.1564    2.3485    0.0000 O   0  0  0  0  0  0  0  0  0  0  0  0
    5.3299    1.4143    0.0000 C   0  0  0  0  0  0  0  0  0  0  0  0
    5.1076   -0.0692    0.0000 O   0  0  0  0  0  0  0  0  0  0  0  0
    6.2812   -1.0034    0.0000 C   0  0  0  0  0  0  0  0  0  0  0  0
    6.0588   -2.4868    0.0000 C   0  0  0  0  0  0  0  0  0  0  0  0
    7.2324   -3.4211    0.0000 O   0  0  0  0  0  0  0  0  0  0  0  0
    4.6630   -3.0360    0.0000 O   0  0  0  0  0  0  0  0  0  0  0  0
    7.6770   -0.4542    0.0000 C   0  0  0  0  0  0  0  0  0  0  0  0
    8.8505   -1.3885    0.0000 O   0  0  0  0  0  0  0  0  0  0  0  0
    7.8993    1.0292    0.0000 C   0  0  0  0  0  0  0  0  0  0  0  0
    9.2952    1.5784    0.0000 O   0  0  0  0  0  0  0  0  0  0  0  0
    6.7258    1.9635    0.0000 C   0  0  0  0  0  0  0  0  0  0  0  0
    6.9481    3.4469    0.0000 O   0  0  0  0  0  0  0  0  0  0  0  0
    1.5870    2.7336    0.0000 C   0  0  0  0  0  0  0  0  0  0  0  0
    0.1912    2.1844    0.0000 C   0  0  0  0  0  0  0  0  0  0  0  0
   -0.0311    0.7010    0.0000 C   0  0  0  0  0  0  0  0  0  0  0  0
   -1.2047    1.6352    0.0000 C   0  0  0  0  0  0  0  0  0  0  0  0
   -1.4270    0.1518    0.0000 C   0  0  0  0  0  0  0  0  0  0  0  0
   -2.6005    1.0860    0.0000 C   0  0  0  0  0  0  0  0  0  0  0  0
   -3.9964    0.5368    0.0000 C   0  0  0  0  0  0  0  0  0  0  0  0
   -4.2187   -0.9466    0.0000 C   0  0  0  0  0  0  0  0  0  0  0  0
   -5.4834   -0.1401    0.0000 C   0  0  0  0  0  0  0  0  0  0  0  0
  2  1  1  6
  2  3  1  0
  3  4  1  0
  4  5  1  0
  5  6  2  0
  5  7  1  0
  2  8  1  0
  8  9  1  6
  9 10  1  0
 11 10  1  6
 11 12  1  0
 12 13  1  1
 13 14  1  0
 15 14  1  1
 15 16  1  0
 16 17  1  0
 17 18  1  1
 19 18  1  1
 19 20  1  0
 20 21  1  0
 21 22  1  1
 22 23  2  0
 22 24  1  0
 21 25  1  0
 25 26  1  6
 25 27  1  0
 27 28  1  1
 27 29  1  0
 29 30  1  6
 17 31  1  0
 31 32  1  0
 32 33  1  0
 33 34  1  6
 33 35  1  0
 35 36  1  6
 36 37  1  0
 37 38  1  0
 38 39  1  6
 38  8  1  0
 38 11  1  0
 35 12  1  0
 33 15  1  0
 29 19  1  0
M  END
>  <MS_ID>  (2) 
MS0002

>  <SMILES>  (2) 
C[C@H](CCC(=O)O)[C@H]1CC[C@H]2[C@@H]3CC[C@@H]4C[C@H](O[C@@H]5O[C@H](C(=O)O)[C@@H](O)[C@H](O)[C@H]5O)CC[C@]4(C)[C@H]3CC[C@]12C

>  <Structure_dimension>  (2) 
2D

$$$$
MS0003
     RDKit          2D

 33 36  0  0  0  0  0  0  0  0999 V2000
  -11.4048    3.4431    0.0000 C   0  0  0  0  0  0  0  0  0  0  0  0
  -10.6339    2.1564    0.0000 C   0  0  0  0  0  0  0  0  0  0  0  0
   -9.1341    2.1807    0.0000 C   0  0  0  0  0  0  0  0  0  0  0  0
   -8.3632    0.8939    0.0000 C   0  0  0  0  0  0  0  0  0  0  0  0
   -6.8634    0.9182    0.0000 C   0  0  0  0  0  0  0  0  0  0  0  0
   -6.0924   -0.3685    0.0000 N   0  0  0  0  0  0  0  0  0  0  0  0
   -4.5926   -0.3442    0.0000 C   0  0  0  0  0  0  0  0  0  0  0  0
   -3.8638    0.9668    0.0000 O   0  0  0  0  0  0  0  0  0  0  0  0
   -3.8217   -1.6309    0.0000 C   0  0  0  0  0  0  0  0  0  0  0  0
   -2.3219   -1.6066    0.0000 C   0  0  0  0  0  0  0  0  0  0  0  0
   -1.5509   -2.8934    0.0000 C   0  0  0  0  0  0  0  0  0  0  0  0
   -2.2798   -4.2044    0.0000 C   0  0  0  0  0  0  0  0  0  0  0  0
   -0.0511   -2.8691    0.0000 C   0  0  0  0  0  0  0  0  0  0  0  0
    0.8501   -4.0682    0.0000 C   0  0  0  0  0  0  0  0  0  0  0  0
    2.2690   -3.5816    0.0000 C   0  0  0  0  0  0  0  0  0  0  0  0
    2.2447   -2.0818    0.0000 C   0  0  0  0  0  0  0  0  0  0  0  0
    3.3430   -1.0602    0.0000 C   0  0  0  0  0  0  0  0  0  0  0  0
    4.7769   -1.5006    0.0000 C   0  0  0  0  0  0  0  0  0  0  0  0
    5.1125   -2.9625    0.0000 O   0  0  0  0  0  0  0  0  0  0  0  0
    5.8752   -0.4789    0.0000 C   0  0  0  0  0  0  0  0  0  0  0  0
    5.5396    0.9830    0.0000 C   0  0  0  0  0  0  0  0  0  0  0  0
    6.6380    2.0047    0.0000 C   0  0  0  0  0  0  0  0  0  0  0  0
    6.3024    3.4666    0.0000 C   0  0  0  0  0  0  0  0  0  0  0  0
    7.4007    4.4882    0.0000 O   0  0  0  0  0  0  0  0  0  0  0  0
    4.8685    3.9070    0.0000 C   0  0  0  0  0  0  0  0  0  0  0  0
    3.7701    2.8854    0.0000 C   0  0  0  0  0  0  0  0  0  0  0  0
    4.1057    1.4234    0.0000 C   0  0  0  0  0  0  0  0  0  0  0  0
    2.6718    1.8638    0.0000 C   0  0  0  0  0  0  0  0  0  0  0  0
    3.0074    0.4018    0.0000 C   0  0  0  0  0  0  0  0  0  0  0  0
    1.5735    0.8422    0.0000 C   0  0  0  0  0  0  0  0  0  0  0  0
    0.4752   -0.1795    0.0000 C   0  0  0  0  0  0  0  0  0  0  0  0
    0.8108   -1.6414    0.0000 C   0  0  0  0  0  0  0  0  0  0  0  0
   -0.6613   -1.3534    0.0000 C   0  0  0  0  0  0  0  0  0  0  0  0
  1  2  1  0
  2  3  1  0
  3  4  1  0
  4  5  1  0
  5  6  1  0
  6  7  1  0
  7  8  2  0
  7  9  1  0
  9 10  1  0
 10 11  1  0
 11 12  1  6
 11 13  1  0
 13 14  1  6
 14 15  1  0
 16 15  1  6
 16 17  1  0
 17 18  1  1
 18 19  1  1
 18 20  1  0
 21 20  1  1
 21 22  1  0
 22 23  1  0
 23 24  1  1
 23 25  1  0
 25 26  1  0
 26 27  1  0
 27 28  1  6
 27 29  1  0
 29 30  1  6
 30 31  1  0
 31 32  1  0
 32 33  1  6
 32 13  1  0
 32 16  1  0
 29 17  1  0
 27 21  1  0
M  END
>  <MS_ID>  (3) 
MS0003

>  <SMILES>  (3) 
CCCCCNC(=O)CC[C@@H](C)[C@H]1CC[C@H]2[C@@H]3[C@H](O)C[C@@H]4C[C@H](O)CC[C@]4(C)[C@H]3CC[C@]12C

>  <Structure_dimension>  (3) 
2D

$$$$
MS0004
     RDKit          2D

 33 36  0  0  0  0  0  0  0  0999 V2000
   -3.0978   -3.6919    0.0000 C   0  0  0  0  0  0  0  0  0  0  0  0
   -2.2201   -2.4755    0.0000 C   0  0  0  0  0  0  0  0  0  0  0  0
   -2.8347   -1.1072    0.0000 C   0  0  0  0  0  0  0  0  0  0  0  0
   -4.3270   -0.9552    0.0000 C   0  0  0  0  0  0  0  0  0  0  0  0
   -4.9416    0.4131    0.0000 C   0  0  0  0  0  0  0  0  0  0  0  0
   -4.0639    1.6295    0.0000 O   0  0  0  0  0  0  0  0  0  0  0  0
   -6.4339    0.5650    0.0000 N   0  0  0  0  0  0  0  0  0  0  0  0
   -7.0484    1.9333    0.0000 C   0  0  0  0  0  0  0  0  0  0  0  0
   -8.5407    2.0852    0.0000 C   0  0  0  0  0  0  0  0  0  0  0  0
   -9.4184    0.8688    0.0000 O   0  0  0  0  0  0  0  0  0  0  0  0
   -9.1553    3.4535    0.0000 O   0  0  0  0  0  0  0  0  0  0  0  0
   -0.7278   -2.6274    0.0000 C   0  0  0  0  0  0  0  0  0  0  0  0
    0.0264   -3.9240    0.0000 C   0  0  0  0  0  0  0  0  0  0  0  0
    1.4926   -3.6073    0.0000 C   0  0  0  0  0  0  0  0  0  0  0  0
    1.6445   -2.1150    0.0000 C   0  0  0  0  0  0  0  0  0  0  0  0
    2.8552   -1.2294    0.0000 C   0  0  0  0  0  0  0  0  0  0  0  0
    4.2275   -1.8350    0.0000 C   0  0  0  0  0  0  0  0  0  0  0  0
    4.3891   -3.3263    0.0000 O   0  0  0  0  0  0  0  0  0  0  0  0
    5.4381   -0.9494    0.0000 C   0  0  0  0  0  0  0  0  0  0  0  0
    5.2764    0.5419    0.0000 C   0  0  0  0  0  0  0  0  0  0  0  0
    6.4871    1.4275    0.0000 C   0  0  0  0  0  0  0  0  0  0  0  0
    6.3254    2.9188    0.0000 C   0  0  0  0  0  0  0  0  0  0  0  0
    7.5360    3.8044    0.0000 O   0  0  0  0  0  0  0  0  0  0  0  0
    4.9531    3.5244    0.0000 C   0  0  0  0  0  0  0  0  0  0  0  0
    3.7425    2.6388    0.0000 C   0  0  0  0  0  0  0  0  0  0  0  0
    3.9041    1.1475    0.0000 C   0  0  0  0  0  0  0  0  0  0  0  0
    2.5318    1.7531    0.0000 C   0  0  0  0  0  0  0  0  0  0  0  0
    2.6935    0.2619    0.0000 C   0  0  0  0  0  0  0  0  0  0  0  0
    1.3212    0.8675    0.0000 C   0  0  0  0  0  0  0  0  0  0  0  0
    0.1105   -0.0181    0.0000 C   0  0  0  0  0  0  0  0  0  0  0  0
   -1.2618    0.5875    0.0000 O   0  0  0  0  0  0  0  0  0  0  0  0
    0.2722   -1.5094    0.0000 C   0  0  0  0  0  0  0  0  0  0  0  0
   -1.1559   -1.0505    0.0000 C   0  0  0  0  0  0  0  0  0  0  0  0
  2  1  1  6
  2  3  1  0
  3  4  1  0
  4  5  1  0
  5  6  2  0
  5  7  1  0
  7  8  1  0
  8  9  1  0
  9 10  2  0
  9 11  1  0
  2 12  1  0
 12 13  1  6
 13 14  1  0
 15 14  1  6
 15 16  1  0
 16 17  1  1
 17 18  1  1
 17 19  1  0
 20 19  1  1
 20 21  1  0
 21 22  1  0
 22 23  1  1
 22 24  1  0
 24 25  1  0
 25 26  1  0
 26 27  1  6
 26 28  1  0
 28 29  1  6
 29 30  1  0
 30 31  1  1
 30 32  1  0
 32 33  1  6
 32 12  1  0
 32 15  1  0
 28 16  1  0
 26 20  1  0
M  END
>  <MS_ID>  (4) 
MS0004

>  <SMILES>  (4) 
C[C@H](CCC(=O)NCC(=O)O)[C@H]1CC[C@H]2[C@@H]3[C@H](O)C[C@@H]4C[C@H](O)CC[C@]4(C)[C@H]3C[C@H](O)[C@]12C

>  <Structure_dimension>  (4) 
2D

$$$$
MS0005
     RDKit          2D

 31 34  0  0  0  0  0  0  0  0999 V2000
   -6.2983   -1.8943    0.0000 C   0  0  0  0  0  0  0  0  0  0  0  0
   -5.0623   -1.0445    0.0000 C   0  0  0  0  0  0  0  0  0  0  0  0
   -5.1802    0.4509    0.0000 C   0  0  0  0  0  0  0  0  0  0  0  0
   -6.5342    1.0964    0.0000 C   0  0  0  0  0  0  0  0  0  0  0  0
   -6.6522    2.5917    0.0000 C   0  0  0  0  0  0  0  0  0  0  0  0
   -5.4162    3.4416    0.0000 O   0  0  0  0  0  0  0  0  0  0  0  0
   -8.0062    3.2373    0.0000 O   0  0  0  0  0  0  0  0  0  0  0  0
   -3.7083   -1.6900    0.0000 C   0  0  0  0  0  0  0  0  0  0  0  0
   -3.4346   -3.1648    0.0000 C   0  0  0  0  0  0  0  0  0  0  0  0
   -1.9474   -3.3603    0.0000 C   0  0  0  0  0  0  0  0  0  0  0  0
   -1.3019   -2.0063    0.0000 C   0  0  0  0  0  0  0  0  0  0  0  0
    0.1362   -1.5800    0.0000 C   0  0  0  0  0  0  0  0  0  0  0  0
    1.2245   -2.6123    0.0000 C   0  0  0  0  0  0  0  0  0  0  0  0
    2.6626   -2.1860    0.0000 C   0  0  0  0  0  0  0  0  0  0  0  0
    3.0125   -0.7274    0.0000 C   0  0  0  0  0  0  0  0  0  0  0  0
    4.4507   -0.3011    0.0000 C   0  0  0  0  0  0  0  0  0  0  0  0
    4.8006    1.1575    0.0000 C   0  0  0  0  0  0  0  0  0  0  0  0
    6.2387    1.5838    0.0000 O   0  0  0  0  0  0  0  0  0  0  0  0
    7.3270    0.5515    0.0000 S   0  0  0  0  0  0  0  0  0  0  0  0
    6.2946   -0.5368    0.0000 O   0  0  0  0  0  0  0  0  0  0  0  0
    8.3593    1.6397    0.0000 O   0  0  0  0  0  0  0  0  0  0  0  0
    8.4152   -0.4809    0.0000 O   0  0  0  0  0  0  0  0  0  0  0  0
    3.7123    2.1898    0.0000 C   0  0  0  0  0  0  0  0  0  0  0  0
    2.2742    1.7635    0.0000 C   0  0  0  0  0  0  0  0  0  0  0  0
    1.9243    0.3049    0.0000 C   0  0  0  0  0  0  0  0  0  0  0  0
    0.8360    1.3372    0.0000 C   0  0  0  0  0  0  0  0  0  0  0  0
    0.4861   -0.1214    0.0000 C   0  0  0  0  0  0  0  0  0  0  0  0
   -0.6021    0.9109    0.0000 C   0  0  0  0  0  0  0  0  0  0  0  0
   -2.0403    0.4846    0.0000 C   0  0  0  0  0  0  0  0  0  0  0  0
   -2.3902   -0.9740    0.0000 C   0  0  0  0  0  0  0  0  0  0  0  0
   -3.5804   -0.0611    0.0000 C   0  0  0  0  0  0  0  0  0  0  0  0
  2  1  1  6
  2  3  1  0
  3  4  1  0
  4  5  1  0
  5  6  2  0
  5  7  1  0
  2  8  1  0
  8  9  1  6
  9 10  1  0
 11 10  1  6
 11 12  1  0
 12 13  1  1
 13 14  1  0
 15 14  1  1
 15 16  1  0
 16 17  1  0
 17 18  1  1
 18 19  1  0
 19 20  2  0
 19 21  2  0
 19 22  1  0
 17 23  1  0
 23 24  1  0
 24 25  1  0
 25 26  1  6
 25 27  1  0
 27 28  1  6
 28 29  1  0
 29 30  1  0
 30 31  1  6
 30  8  1  0
 30 11  1  0
 27 12  1  0
 25 15  1  0
M  END
>  <MS_ID>  (5) 
MS0005

>  <SMILES>  (5) 
C[C@H](CCC(=O)O)[C@H]1CC[C@H]2[C@@H]3CC[C@@H]4C[C@H](OS(=O)(=O)O)CC[C@]4(C)[C@H]3CC[C@]12C

>  <Structure_dimension>  (5) 
2D

$$$$
MS0006
     RDKit          2D

 33 36  0  0  0  0  0  0  0  0999 V2000
  -10.7745    2.9828    0.0000 C   0  0  0  0  0  0  0  0  0  0  0  0
   -9.2765    2.9064    0.0000 C   0  0  0  0  0  0  0  0  0  0  0  0
   -8.5936    1.5708    0.0000 C   0  0  0  0  0  0  0  0  0  0  0  0
   -7.0956    1.4944    0.0000 C   0  0  0  0  0  0  0  0  0  0  0  0
   -6.4128    0.1588    0.0000 O   0  0  0  0  0  0  0  0  0  0  0  0
   -4.9147    0.0823    0.0000 C   0  0  0  0  0  0  0  0  0  0  0  0
   -4.0995    1.3415    0.0000 O   0  0  0  0  0  0  0  0  0  0  0  0
   -4.2319   -1.2532    0.0000 C   0  0  0  0  0  0  0  0  0  0  0  0
   -2.7339   -1.3297    0.0000 C   0  0  0  0  0  0  0  0  0  0  0  0
   -2.0510   -2.6653    0.0000 C   0  0  0  0  0  0  0  0  0  0  0  0
   -2.8663   -3.9244    0.0000 C   0  0  0  0  0  0  0  0  0  0  0  0
   -0.5530   -2.7417    0.0000 C   0  0  0  0  0  0  0  0  0  0  0  0
    0.2657   -3.9986    0.0000 C   0  0  0  0  0  0  0  0  0  0  0  0
    1.7140   -3.6084    0.0000 C   0  0  0  0  0  0  0  0  0  0  0  0
    1.7905   -2.1103    0.0000 C   0  0  0  0  0  0  0  0  0  0  0  0
    2.9549   -1.1648    0.0000 C   0  0  0  0  0  0  0  0  0  0  0  0
    4.3560   -1.7004    0.0000 C   0  0  0  0  0  0  0  0  0  0  0  0
    4.5927   -3.1816    0.0000 O   0  0  0  0  0  0  0  0  0  0  0  0
    5.5204   -0.7548    0.0000 C   0  0  0  0  0  0  0  0  0  0  0  0
    5.2838    0.7264    0.0000 C   0  0  0  0  0  0  0  0  0  0  0  0
    6.4482    1.6720    0.0000 C   0  0  0  0  0  0  0  0  0  0  0  0
    6.2115    3.1532    0.0000 C   0  0  0  0  0  0  0  0  0  0  0  0
    7.3759    4.0988    0.0000 O   0  0  0  0  0  0  0  0  0  0  0  0
    4.8104    3.6888    0.0000 C   0  0  0  0  0  0  0  0  0  0  0  0
    3.6460    2.7432    0.0000 C   0  0  0  0  0  0  0  0  0  0  0  0
    3.8827    1.2620    0.0000 C   0  0  0  0  0  0  0  0  0  0  0  0
    2.4816    1.7977    0.0000 C   0  0  0  0  0  0  0  0  0  0  0  0
    2.7182    0.3165    0.0000 C   0  0  0  0  0  0  0  0  0  0  0  0
    1.3171    0.8521    0.0000 C   0  0  0  0  0  0  0  0  0  0  0  0
    0.1527   -0.0935    0.0000 C   0  0  0  0  0  0  0  0  0  0  0  0
   -1.2484    0.4421    0.0000 O   0  0  0  0  0  0  0  0  0  0  0  0
    0.3894   -1.5747    0.0000 C   0  0  0  0  0  0  0  0  0  0  0  0
   -1.0600   -1.1885    0.0000 C   0  0  0  0  0  0  0  0  0  0  0  0
  1  2  1  0
  2  3  1  0
  3  4  1  0
  4  5  1  0
  5  6  1  0
  6  7  2  0
  6  8  1  0
  8  9  1  0
  9 10  1  0
 10 11  1  6
 10 12  1  0
 12 13  1  6
 13 14  1  0
 15 14  1  6
 15 16  1  0
 16 17  1  1
 17 18  1  1
 17 19  1  0
 20 19  1  1
 20 21  1  0
 21 22  1  0
 22 23  1  1
 22 24  1  0
 24 25  1  0
 25 26  1  0
 26 27  1  6
 26 28  1  0
 28 29  1  6
 29 30  1  0
 30 31  1  1
 30 32  1  0
 32 33  1  6
 32 12  1  0
 32 15  1  0
 28 16  1  0
 26 20  1  0
M  END
>  <MS_ID>  (6) 
MS0006

>  <SMILES>  (6) 
CCCCOC(=O)CC[C@@H](C)[C@H]1CC[C@H]2[C@@H]3[C@H](O)C[C@@H]4C[C@H](O)CC[C@]4(C)[C@H]3C[C@H](O)[C@]12C

>  <Structure_dimension>  (6) 
2D

$$$$
MS0007
     RDKit          2D

 28 31  0  0  0  0  0  0  0  0999 V2000
   -4.6340   -2.3524    0.0000 C   0  0  0  0  0  0  0  0  0  0  0  0
   -3.5242   -1.3434    0.0000 C   0  0  0  0  0  0  0  0  0  0  0  0
   -3.8431    0.1223    0.0000 C   0  0  0  0  0  0  0  0  0  0  0  0
   -5.2720    0.5789    0.0000 C   0  0  0  0  0  0  0  0  0  0  0  0
   -5.5909    2.0446    0.0000 C   0  0  0  0  0  0  0  0  0  0  0  0
   -4.4811    3.0537    0.0000 O   0  0  0  0  0  0  0  0  0  0  0  0
   -7.0197    2.5012    0.0000 O   0  0  0  0  0  0  0  0  0  0  0  0
   -2.0954   -1.8000    0.0000 C   0  0  0  0  0  0  0  0  0  0  0  0
   -1.6249   -3.2243    0.0000 C   0  0  0  0  0  0  0  0  0  0  0  0
   -0.1249   -3.2170    0.0000 C   0  0  0  0  0  0  0  0  0  0  0  0
    0.3317   -1.7882    0.0000 C   0  0  0  0  0  0  0  0  0  0  0  0
    1.6990   -1.1715    0.0000 C   0  0  0  0  0  0  0  0  0  0  0  0
    2.9168   -2.0473    0.0000 C   0  0  0  0  0  0  0  0  0  0  0  0
    2.7672   -3.5398    0.0000 O   0  0  0  0  0  0  0  0  0  0  0  0
    4.2841   -1.4305    0.0000 C   0  0  0  0  0  0  0  0  0  0  0  0
    4.4337    0.0620    0.0000 C   0  0  0  0  0  0  0  0  0  0  0  0
    5.8011    0.6787    0.0000 C   0  0  0  0  0  0  0  0  0  0  0  0
    5.9506    2.1713    0.0000 C   0  0  0  0  0  0  0  0  0  0  0  0
    4.7328    3.0471    0.0000 C   0  0  0  0  0  0  0  0  0  0  0  0
    3.3655    2.4303    0.0000 C   0  0  0  0  0  0  0  0  0  0  0  0
    3.2159    0.9378    0.0000 C   0  0  0  0  0  0  0  0  0  0  0  0
    1.9981    1.8136    0.0000 C   0  0  0  0  0  0  0  0  0  0  0  0
    1.8486    0.3211    0.0000 C   0  0  0  0  0  0  0  0  0  0  0  0
    0.6308    1.1968    0.0000 C   0  0  0  0  0  0  0  0  0  0  0  0
   -0.7366    0.5801    0.0000 C   0  0  0  0  0  0  0  0  0  0  0  0
   -1.9543    1.4559    0.0000 O   0  0  0  0  0  0  0  0  0  0  0  0
   -0.8861   -0.9124    0.0000 C   0  0  0  0  0  0  0  0  0  0  0  0
   -2.1888   -0.1687    0.0000 C   0  0  0  0  0  0  0  0  0  0  0  0
  2  1  1  6
  2  3  1  0
  3  4  1  0
  4  5  1  0
  5  6  2  0
  5  7  1  0
  2  8  1  0
  8  9  1  6
  9 10  1  0
 11 10  1  6
 11 12  1  0
 12 13  1  1
 13 14  1  6
 13 15  1  0
 16 15  1  1
 16 17  1  0
 17 18  1  0
 18 19  1  0
 19 20  1  0
 20 21  1  0
 21 22  1  6
 21 23  1  0
 23 24  1  6
 24 25  1  0
 25 26  1  6
 25 27  1  0
 27 28  1  6
 27  8  1  0
 27 11  1  0
 23 12  1  0
 21 16  1  0
M  END
>  <MS_ID>  (7) 
MS0007

>  <SMILES>  (7) 
C[C@H](CCC(=O)O)[C@H]1CC[C@H]2[C@@H]3[C@@H](O)C[C@@H]4CCCC[C@]4(C)[C@H]3C[C@@H](O)[C@]12C

>  <Structure_dimension>  (7) 
2D

$$$$
MS0008
     RDKit          2D

 32 35  0  0  0  0  0  0  0  0999 V2000
   -5.1569   -2.5516    0.0000 C   0  0  0  0  0  0  0  0  0  0  0  0
   -4.1971   -1.3989    0.0000 C   0  0  0  0  0  0  0  0  0  0  0  0
   -4.7155    0.0087    0.0000 C   0  0  0  0  0  0  0  0  0  0  0  0
   -6.1937    0.2635    0.0000 C   0  0  0  0  0  0  0  0  0  0  0  0
   -6.7121    1.6711    0.0000 C   0  0  0  0  0  0  0  0  0  0  0  0
   -5.7523    2.8238    0.0000 O   0  0  0  0  0  0  0  0  0  0  0  0
   -8.1903    1.9259    0.0000 O   0  0  0  0  0  0  0  0  0  0  0  0
   -2.7189   -1.6538    0.0000 C   0  0  0  0  0  0  0  0  0  0  0  0
   -2.0562   -2.9994    0.0000 C   0  0  0  0  0  0  0  0  0  0  0  0
   -0.5716   -2.7850    0.0000 C   0  0  0  0  0  0  0  0  0  0  0  0
   -0.3168   -1.3068    0.0000 C   0  0  0  0  0  0  0  0  0  0  0  0
    0.9523   -0.5071    0.0000 C   0  0  0  0  0  0  0  0  0  0  0  0
    2.2794   -1.2062    0.0000 C   0  0  0  0  0  0  0  0  0  0  0  0
    2.3374   -2.7051    0.0000 O   0  0  0  0  0  0  0  0  0  0  0  0
    3.6645   -3.4043    0.0000 S   0  0  0  0  0  0  0  0  0  0  0  0
    4.3637   -2.0772    0.0000 O   0  0  0  0  0  0  0  0  0  0  0  0
    2.9654   -4.7314    0.0000 O   0  0  0  0  0  0  0  0  0  0  0  0
    4.9916   -4.1034    0.0000 O   0  0  0  0  0  0  0  0  0  0  0  0
    3.5484   -0.4065    0.0000 C   0  0  0  0  0  0  0  0  0  0  0  0
    3.4903    1.0923    0.0000 C   0  0  0  0  0  0  0  0  0  0  0  0
    4.7594    1.8921    0.0000 C   0  0  0  0  0  0  0  0  0  0  0  0
    4.7013    3.3909    0.0000 C   0  0  0  0  0  0  0  0  0  0  0  0
    5.9703    4.1907    0.0000 O   0  0  0  0  0  0  0  0  0  0  0  0
    3.3742    4.0901    0.0000 C   0  0  0  0  0  0  0  0  0  0  0  0
    2.1052    3.2904    0.0000 C   0  0  0  0  0  0  0  0  0  0  0  0
    2.1632    1.7915    0.0000 C   0  0  0  0  0  0  0  0  0  0  0  0
    0.8361    2.4907    0.0000 C   0  0  0  0  0  0  0  0  0  0  0  0
    0.8942    0.9918    0.0000 C   0  0  0  0  0  0  0  0  0  0  0  0
   -0.4329    1.6909    0.0000 C   0  0  0  0  0  0  0  0  0  0  0  0
   -1.7019    0.8912    0.0000 C   0  0  0  0  0  0  0  0  0  0  0  0
   -1.6439   -0.6077    0.0000 C   0  0  0  0  0  0  0  0  0  0  0  0
   -3.0368   -0.0511    0.0000 C   0  0  0  0  0  0  0  0  0  0  0  0
  2  1  1  6
  2  3  1  0
  3  4  1  0
  4  5  1  0
  5  6  2  0
  5  7  1  0
  2  8  1  0
  8  9  1  6
  9 10  1  0
 11 10  1  6
 11 12  1  0
 12 13  1  1
 13 14  1  1
 14 15  1  0
 15 16  2  0
 15 17  2  0
 15 18  1  0
 13 19  1  0
 20 19  1  1
 20 21  1  0
 21 22  1  0
 22 23  1  1
 22 24  1  0
 24 25  1  0
 25 26  1  0
 26 27  1  6
 26 28  1  0
 28 29  1  6
 29 30  1  0
 30 31  1  0
 31 32  1  6
 31  8  1  0
 31 11  1  0
 28 12  1  0
 26 20  1  0
M  END
>  <MS_ID>  (8) 
MS0008

>  <SMILES>  (8) 
C[C@H](CCC(=O)O)[C@H]1CC[C@H]2[C@@H]3[C@H](OS(=O)(=O)O)C[C@@H]4C[C@H](O)CC[C@]4(C)[C@H]3CC[C@]12C

>  <Structure_dimension>  (8) 
2D

$$$$
MS0009
     RDKit          2D

 27 30  0  0  0  0  0  0  0  0999 V2000
   -4.7316   -2.2462    0.0000 C   0  0  0  0  0  0  0  0  0  0  0  0
   -3.6106   -1.2495    0.0000 C   0  0  0  0  0  0  0  0  0  0  0  0
   -3.9133    0.2196    0.0000 C   0  0  0  0  0  0  0  0  0  0  0  0
   -5.3370    0.6920    0.0000 C   0  0  0  0  0  0  0  0  0  0  0  0
   -5.6397    2.1612    0.0000 C   0  0  0  0  0  0  0  0  0  0  0  0
   -4.5188    3.1579    0.0000 O   0  0  0  0  0  0  0  0  0  0  0  0
   -7.0634    2.6336    0.0000 O   0  0  0  0  0  0  0  0  0  0  0  0
   -2.1870   -1.7219    0.0000 C   0  0  0  0  0  0  0  0  0  0  0  0
   -1.7323   -3.1514    0.0000 C   0  0  0  0  0  0  0  0  0  0  0  0
   -0.2324   -3.1607    0.0000 C   0  0  0  0  0  0  0  0  0  0  0  0
    0.2401   -1.7371    0.0000 C   0  0  0  0  0  0  0  0  0  0  0  0
    1.6141   -1.1355    0.0000 C   0  0  0  0  0  0  0  0  0  0  0  0
    2.8222   -2.0247    0.0000 C   0  0  0  0  0  0  0  0  0  0  0  0
    2.6561   -3.5155    0.0000 O   0  0  0  0  0  0  0  0  0  0  0  0
    4.1962   -1.4232    0.0000 C   0  0  0  0  0  0  0  0  0  0  0  0
    4.3623    0.0676    0.0000 C   0  0  0  0  0  0  0  0  0  0  0  0
    5.7364    0.6691    0.0000 C   0  0  0  0  0  0  0  0  0  0  0  0
    5.9025    2.1599    0.0000 C   0  0  0  0  0  0  0  0  0  0  0  0
    4.6945    3.0491    0.0000 C   0  0  0  0  0  0  0  0  0  0  0  0
    3.3204    2.4476    0.0000 C   0  0  0  0  0  0  0  0  0  0  0  0
    3.1543    0.9568    0.0000 C   0  0  0  0  0  0  0  0  0  0  0  0
    1.9463    1.8460    0.0000 C   0  0  0  0  0  0  0  0  0  0  0  0
    1.7802    0.3553    0.0000 C   0  0  0  0  0  0  0  0  0  0  0  0
    0.5722    1.2445    0.0000 C   0  0  0  0  0  0  0  0  0  0  0  0
   -0.8019    0.6429    0.0000 C   0  0  0  0  0  0  0  0  0  0  0  0
   -0.9680   -0.8478    0.0000 C   0  0  0  0  0  0  0  0  0  0  0  0
   -2.2623   -0.0897    0.0000 C   0  0  0  0  0  0  0  0  0  0  0  0
  2  1  1  6
  2  3  1  0
  3  4  1  0
  4  5  1  0
  5  6  2  0
  5  7  1  0
  2  8  1  0
  8  9  1  6
  9 10  1  0
 11 10  1  6
 11 12  1  0
 12 13  1  1
 13 14  1  6
 13 15  1  0
 16 15  1  1
 16 17  1  0
 17 18  1  0
 18 19  1  0
 19 20  1  0
 20 21  1  0
 21 22  1  6
 21 23  1  0
 23 24  1  6
 24 25  1  0
 25 26  1  0
 26 27  1  6
 26  8  1  0
 26 11  1  0
 23 12  1  0
 21 16  1  0
M  END
>  <MS_ID>  (9) 
MS0009

>  <SMILES>  (9) 
C[C@H](CCC(=O)O)[C@H]1CC[C@H]2[C@@H]3[C@@H](O)C[C@@H]4CCCC[C@]4(C)[C@H]3CC[C@]12C

>  <Structure_dimension>  (9) 
2D

$$$$
MS0010
     RDKit          2D

 32 35  0  0  0  0  0  0  0  0999 V2000
   -6.3148   -1.8053    0.0000 C   0  0  0  0  0  0  0  0  0  0  0  0
   -5.0840   -0.9480    0.0000 C   0  0  0  0  0  0  0  0  0  0  0  0
   -5.2110    0.5466    0.0000 C   0  0  0  0  0  0  0  0  0  0  0  0
   -6.5688    1.1840    0.0000 C   0  0  0  0  0  0  0  0  0  0  0  0
   -6.6958    2.6786    0.0000 C   0  0  0  0  0  0  0  0  0  0  0  0
   -5.4650    3.5359    0.0000 O   0  0  0  0  0  0  0  0  0  0  0  0
   -8.0537    3.3159    0.0000 O   0  0  0  0  0  0  0  0  0  0  0  0
   -3.7261   -1.5853    0.0000 C   0  0  0  0  0  0  0  0  0  0  0  0
   -3.4436   -3.0584    0.0000 C   0  0  0  0  0  0  0  0  0  0  0  0
   -1.9552   -3.2450    0.0000 C   0  0  0  0  0  0  0  0  0  0  0  0
   -1.3179   -1.8871    0.0000 C   0  0  0  0  0  0  0  0  0  0  0  0
    0.1177   -1.4521    0.0000 C   0  0  0  0  0  0  0  0  0  0  0  0
    1.2121   -2.4779    0.0000 C   0  0  0  0  0  0  0  0  0  0  0  0
    0.8711   -3.9386    0.0000 O   0  0  0  0  0  0  0  0  0  0  0  0
    2.6477   -2.0429    0.0000 C   0  0  0  0  0  0  0  0  0  0  0  0
    2.9888   -0.5822    0.0000 C   0  0  0  0  0  0  0  0  0  0  0  0
    4.4243   -0.1472    0.0000 C   0  0  0  0  0  0  0  0  0  0  0  0
    4.7654    1.3135    0.0000 C   0  0  0  0  0  0  0  0  0  0  0  0
    6.2009    1.7485    0.0000 O   0  0  0  0  0  0  0  0  0  0  0  0
    7.2954    0.7227    0.0000 S   0  0  0  0  0  0  0  0  0  0  0  0
    6.2697   -0.3717    0.0000 O   0  0  0  0  0  0  0  0  0  0  0  0
    8.3211    1.8172    0.0000 O   0  0  0  0  0  0  0  0  0  0  0  0
    8.3899   -0.3030    0.0000 O   0  0  0  0  0  0  0  0  0  0  0  0
    3.6709    2.3392    0.0000 C   0  0  0  0  0  0  0  0  0  0  0  0
    2.2354    1.9043    0.0000 C   0  0  0  0  0  0  0  0  0  0  0  0
    1.8943    0.4436    0.0000 C   0  0  0  0  0  0  0  0  0  0  0  0
    0.7998    1.4693    0.0000 C   0  0  0  0  0  0  0  0  0  0  0  0
    0.4587    0.0086    0.0000 C   0  0  0  0  0  0  0  0  0  0  0  0
   -0.6357    1.0343    0.0000 C   0  0  0  0  0  0  0  0  0  0  0  0
   -2.0713    0.5993    0.0000 C   0  0  0  0  0  0  0  0  0  0  0  0
   -2.4123   -0.8614    0.0000 C   0  0  0  0  0  0  0  0  0  0  0  0
   -3.6080    0.0444    0.0000 C   0  0  0  0  0  0  0  0  0  0  0  0
  2  1  1  6
  2  3  1  0
  3  4  1  0
  4  5  1  0
  5  6  2  0
  5  7  1  0
  2  8  1  0
  8  9  1  6
  9 10  1  0
 11 10  1  6
 11 12  1  0
 12 13  1  1
 13 14  1  6
 13 15  1  0
 16 15  1  1
 16 17  1  0
 17 18  1  0
 18 19  1  1
 19 20  1  0
 20 21  2  0
 20 22  2  0
 20 23  1  0
 18 24  1  0
 24 25  1  0
 25 26  1  0
 26 27  1  6
 26 28  1  0
 28 29  1  6
 29 30  1  0
 30 31  1  0
 31 32  1  6
 31  8  1  0
 31 11  1  0
 28 12  1  0
 26 16  1  0
M  END
>  <MS_ID>  (10) 
MS0010

>  <SMILES>  (10) 
C[C@H](CCC(=O)O)[C@H]1CC[C@H]2[C@@H]3[C@@H](O)C[C@@H]4C[C@H](OS(=O)(=O)O)CC[C@]4(C)[C@H]3CC[C@]12C

>  <Structure_dimension>  (10) 
2D

$$$$
MS0011
     RDKit          2D

 30 33  0  0  0  0  0  0  0  0999 V2000
   -7.4279    3.5601    0.0000 C   0  0  0  0  0  0  0  0  0  0  0  0
   -7.0729    2.1027    0.0000 O   0  0  0  0  0  0  0  0  0  0  0  0
   -5.6333    1.6814    0.0000 C   0  0  0  0  0  0  0  0  0  0  0  0
   -4.5486    2.7174    0.0000 O   0  0  0  0  0  0  0  0  0  0  0  0
   -5.2784    0.2240    0.0000 C   0  0  0  0  0  0  0  0  0  0  0  0
   -3.8388   -0.1974    0.0000 C   0  0  0  0  0  0  0  0  0  0  0  0
   -3.4838   -1.6548    0.0000 C   0  0  0  0  0  0  0  0  0  0  0  0
   -4.5685   -2.6908    0.0000 C   0  0  0  0  0  0  0  0  0  0  0  0
   -2.0442   -2.0761    0.0000 C   0  0  0  0  0  0  0  0  0  0  0  0
   -1.5389   -3.4884    0.0000 C   0  0  0  0  0  0  0  0  0  0  0  0
   -0.0395   -3.4442    0.0000 C   0  0  0  0  0  0  0  0  0  0  0  0
    0.3818   -2.0046    0.0000 C   0  0  0  0  0  0  0  0  0  0  0  0
    1.7336   -1.3544    0.0000 C   0  0  0  0  0  0  0  0  0  0  0  0
    2.9725   -2.1999    0.0000 C   0  0  0  0  0  0  0  0  0  0  0  0
    2.8597   -3.6957    0.0000 O   0  0  0  0  0  0  0  0  0  0  0  0
    4.3243   -1.5497    0.0000 C   0  0  0  0  0  0  0  0  0  0  0  0
    4.4371   -0.0540    0.0000 C   0  0  0  0  0  0  0  0  0  0  0  0
    5.7888    0.5962    0.0000 C   0  0  0  0  0  0  0  0  0  0  0  0
    5.9016    2.0920    0.0000 C   0  0  0  0  0  0  0  0  0  0  0  0
    7.2534    2.7422    0.0000 O   0  0  0  0  0  0  0  0  0  0  0  0
    4.6627    2.9375    0.0000 C   0  0  0  0  0  0  0  0  0  0  0  0
    3.3109    2.2873    0.0000 C   0  0  0  0  0  0  0  0  0  0  0  0
    3.1981    0.7916    0.0000 C   0  0  0  0  0  0  0  0  0  0  0  0
    1.9591    1.6371    0.0000 C   0  0  0  0  0  0  0  0  0  0  0  0
    1.8464    0.1414    0.0000 C   0  0  0  0  0  0  0  0  0  0  0  0
    0.6074    0.9869    0.0000 C   0  0  0  0  0  0  0  0  0  0  0  0
   -0.7444    0.3367    0.0000 C   0  0  0  0  0  0  0  0  0  0  0  0
   -1.9833    1.1823    0.0000 O   0  0  0  0  0  0  0  0  0  0  0  0
   -0.8572   -1.1590    0.0000 C   0  0  0  0  0  0  0  0  0  0  0  0
   -2.1777   -0.4476    0.0000 C   0  0  0  0  0  0  0  0  0  0  0  0
  1  2  1  0
  2  3  1  0
  3  4  2  0
  3  5  1  0
  5  6  1  0
  6  7  1  0
  7  8  1  6
  7  9  1  0
  9 10  1  6
 10 11  1  0
 12 11  1  6
 12 13  1  0
 13 14  1  1
 14 15  1  1
 14 16  1  0
 17 16  1  1
 17 18  1  0
 18 19  1  0
 19 20  1  1
 19 21  1  0
 21 22  1  0
 22 23  1  0
 23 24  1  6
 23 25  1  0
 25 26  1  6
 26 27  1  0
 27 28  1  1
 27 29  1  0
 29 30  1  6
 29  9  1  0
 29 12  1  0
 25 13  1  0
 23 17  1  0
M  END
>  <MS_ID>  (11) 
MS0011

>  <SMILES>  (11) 
COC(=O)CC[C@@H](C)[C@H]1CC[C@H]2[C@@H]3[C@H](O)C[C@@H]4C[C@H](O)CC[C@]4(C)[C@H]3C[C@H](O)[C@]12C

>  <Structure_dimension>  (11) 
2D

$$$$
MS0012
     RDKit          2D

 35 38  0  0  0  0  0  0  0  0999 V2000
   -2.2222   -4.2903    0.0000 C   0  0  0  0  0  0  0  0  0  0  0  0
   -1.5215   -2.9640    0.0000 C   0  0  0  0  0  0  0  0  0  0  0  0
   -2.3198   -1.6940    0.0000 C   0  0  0  0  0  0  0  0  0  0  0  0
   -3.8187   -1.7503    0.0000 C   0  0  0  0  0  0  0  0  0  0  0  0
   -4.6170   -0.4804    0.0000 C   0  0  0  0  0  0  0  0  0  0  0  0
   -3.9163    0.8459    0.0000 O   0  0  0  0  0  0  0  0  0  0  0  0
   -6.1159   -0.5367    0.0000 N   0  0  0  0  0  0  0  0  0  0  0  0
   -6.9142    0.7333    0.0000 C   0  0  0  0  0  0  0  0  0  0  0  0
   -8.4131    0.6769    0.0000 C   0  0  0  0  0  0  0  0  0  0  0  0
   -9.2114    1.9469    0.0000 S   0  0  0  0  0  0  0  0  0  0  0  0
  -10.4813    1.1486    0.0000 O   0  0  0  0  0  0  0  0  0  0  0  0
   -7.9414    2.7451    0.0000 O   0  0  0  0  0  0  0  0  0  0  0  0
  -10.0096    3.2169    0.0000 O   0  0  0  0  0  0  0  0  0  0  0  0
   -0.0226   -2.9077    0.0000 C   0  0  0  0  0  0  0  0  0  0  0  0
    0.9040   -4.0872    0.0000 C   0  0  0  0  0  0  0  0  0  0  0  0
    2.3122   -3.5705    0.0000 C   0  0  0  0  0  0  0  0  0  0  0  0
    2.2559   -2.0715    0.0000 C   0  0  0  0  0  0  0  0  0  0  0  0
    3.3321   -1.0267    0.0000 C   0  0  0  0  0  0  0  0  0  0  0  0
    4.7751   -1.4363    0.0000 C   0  0  0  0  0  0  0  0  0  0  0  0
    5.1418   -2.8908    0.0000 O   0  0  0  0  0  0  0  0  0  0  0  0
    5.8514   -0.3914    0.0000 C   0  0  0  0  0  0  0  0  0  0  0  0
    7.2943   -0.8011    0.0000 O   0  0  0  0  0  0  0  0  0  0  0  0
    5.4846    1.0630    0.0000 C   0  0  0  0  0  0  0  0  0  0  0  0
    6.5609    2.1079    0.0000 C   0  0  0  0  0  0  0  0  0  0  0  0
    6.1941    3.5623    0.0000 C   0  0  0  0  0  0  0  0  0  0  0  0
    7.2704    4.6072    0.0000 O   0  0  0  0  0  0  0  0  0  0  0  0
    4.7511    3.9720    0.0000 C   0  0  0  0  0  0  0  0  0  0  0  0
    3.6749    2.9271    0.0000 C   0  0  0  0  0  0  0  0  0  0  0  0
    4.0416    1.4727    0.0000 C   0  0  0  0  0  0  0  0  0  0  0  0
    2.5986    1.8823    0.0000 C   0  0  0  0  0  0  0  0  0  0  0  0
    2.9654    0.4278    0.0000 C   0  0  0  0  0  0  0  0  0  0  0  0
    1.5224    0.8374    0.0000 C   0  0  0  0  0  0  0  0  0  0  0  0
    0.4462   -0.2074    0.0000 C   0  0  0  0  0  0  0  0  0  0  0  0
    0.8129   -1.6619    0.0000 C   0  0  0  0  0  0  0  0  0  0  0  0
   -0.6650   -1.4053    0.0000 C   0  0  0  0  0  0  0  0  0  0  0  0
  2  1  1  6
  2  3  1  0
  3  4  1  0
  4  5  1  0
  5  6  2  0
  5  7  1  0
  7  8  1  0
  8  9  1  0
  9 10  1  0
 10 11  2  0
 10 12  2  0
 10 13  1  0
  2 14  1  0
 14 15  1  6
 15 16  1  0
 17 16  1  6
 17 18  1  0
 18 19  1  1
 19 20  1  1
 19 21  1  0
 21 22  1  1
 21 23  1  0
 23 24  1  1
 24 25  1  0
 25 26  1  1
 25 27  1  0
 27 28  1  0
 28 29  1  0
 29 30  1  6
 29 31  1  0
 31 32  1  6
 32 33  1  0
 33 34  1  0
 34 35  1  6
 34 14  1  0
 34 17  1  0
 31 18  1  0
 29 23  1  0
M  END
>  <MS_ID>  (12) 
MS0012

>  <SMILES>  (12) 
C[C@H](CCC(=O)NCCS(=O)(=O)O)[C@H]1CC[C@H]2[C@@H]3[C@H](O)[C@H](O)[C@@H]4C[C@H](O)CC[C@]4(C)[C@H]3CC[C@]12C

>  <Structure_dimension>  (12) 
2D

$$$$
MS0013
     RDKit          2D

 29 32  0  0  0  0  0  0  0  0999 V2000
   -5.0303   -2.1373    0.0000 C   0  0  0  0  0  0  0  0  0  0  0  0
   -3.8594   -1.1998    0.0000 C   0  0  0  0  0  0  0  0  0  0  0  0
   -4.0858    0.2830    0.0000 C   0  0  0  0  0  0  0  0  0  0  0  0
   -5.4831    0.8284    0.0000 C   0  0  0  0  0  0  0  0  0  0  0  0
   -5.7095    2.3112    0.0000 C   0  0  0  0  0  0  0  0  0  0  0  0
   -4.5386    3.2487    0.0000 O   0  0  0  0  0  0  0  0  0  0  0  0
   -7.1069    2.8565    0.0000 O   0  0  0  0  0  0  0  0  0  0  0  0
   -2.4620   -1.7451    0.0000 C   0  0  0  0  0  0  0  0  0  0  0  0
   -2.0818   -3.1961    0.0000 C   0  0  0  0  0  0  0  0  0  0  0  0
   -0.5844   -3.2830    0.0000 C   0  0  0  0  0  0  0  0  0  0  0  0
   -0.0390   -1.8856    0.0000 C   0  0  0  0  0  0  0  0  0  0  0  0
    1.3643   -1.3559    0.0000 C   0  0  0  0  0  0  0  0  0  0  0  0
    2.5248   -2.3063    0.0000 C   0  0  0  0  0  0  0  0  0  0  0  0
    2.2819   -3.7865    0.0000 O   0  0  0  0  0  0  0  0  0  0  0  0
    3.9281   -1.7765    0.0000 C   0  0  0  0  0  0  0  0  0  0  0  0
    4.1710   -0.2963    0.0000 C   0  0  0  0  0  0  0  0  0  0  0  0
    5.5743    0.2334    0.0000 C   0  0  0  0  0  0  0  0  0  0  0  0
    5.8172    1.7136    0.0000 C   0  0  0  0  0  0  0  0  0  0  0  0
    7.2205    2.2434    0.0000 O   0  0  0  0  0  0  0  0  0  0  0  0
    4.6568    2.6641    0.0000 C   0  0  0  0  0  0  0  0  0  0  0  0
    3.2534    2.1343    0.0000 C   0  0  0  0  0  0  0  0  0  0  0  0
    3.0105    0.6541    0.0000 C   0  0  0  0  0  0  0  0  0  0  0  0
    1.8501    1.6046    0.0000 C   0  0  0  0  0  0  0  0  0  0  0  0
    1.6072    0.1244    0.0000 C   0  0  0  0  0  0  0  0  0  0  0  0
    0.4467    1.0748    0.0000 C   0  0  0  0  0  0  0  0  0  0  0  0
   -0.9566    0.5450    0.0000 C   0  0  0  0  0  0  0  0  0  0  0  0
   -2.1170    1.4955    0.0000 O   0  0  0  0  0  0  0  0  0  0  0  0
   -1.1995   -0.9352    0.0000 C   0  0  0  0  0  0  0  0  0  0  0  0
   -2.4529   -0.1112    0.0000 C   0  0  0  0  0  0  0  0  0  0  0  0
  2  1  1  6
  2  3  1  0
  3  4  1  0
  4  5  1  0
  5  6  2  0
  5  7  1  0
  2  8  1  0
  8  9  1  6
  9 10  1  0
 11 10  1  6
 11 12  1  0
 12 13  1  1
 13 14  1  6
 13 15  1  0
 16 15  1  1
 16 17  1  0
 17 18  1  0
 18 19  1  1
 18 20  1  0
 20 21  1  0
 21 22  1  0
 22 23  1  6
 22 24  1  0
 24 25  1  6
 25 26  1  0
 26 27  2  0
 26 28  1  0
 28 29  1  6
 28  8  1  0
 28 11  1  0
 24 12  1  0
 22 16  1  0
M  END
>  <MS_ID>  (13) 
MS0013

>  <SMILES>  (13) 
C[C@H](CCC(=O)O)[C@H]1CC[C@H]2[C@@H]3[C@@H](O)C[C@@H]4C[C@H](O)CC[C@]4(C)[C@H]3CC(=O)[C@]12C

>  <Structure_dimension>  (13) 
2D

$$$$
MS0014
     RDKit          2D

 32 35  0  0  0  0  0  0  0  0999 V2000
  -10.8107    3.0070    0.0000 C   0  0  0  0  0  0  0  0  0  0  0  0
   -9.3127    2.9291    0.0000 C   0  0  0  0  0  0  0  0  0  0  0  0
   -8.6311    1.5929    0.0000 C   0  0  0  0  0  0  0  0  0  0  0  0
   -7.1332    1.5150    0.0000 C   0  0  0  0  0  0  0  0  0  0  0  0
   -6.4516    0.1788    0.0000 O   0  0  0  0  0  0  0  0  0  0  0  0
   -4.9536    0.1009    0.0000 C   0  0  0  0  0  0  0  0  0  0  0  0
   -4.1372    1.3592    0.0000 O   0  0  0  0  0  0  0  0  0  0  0  0
   -4.2721   -1.2353    0.0000 C   0  0  0  0  0  0  0  0  0  0  0  0
   -2.7741   -1.3132    0.0000 C   0  0  0  0  0  0  0  0  0  0  0  0
   -2.0926   -2.6494    0.0000 C   0  0  0  0  0  0  0  0  0  0  0  0
   -2.9090   -3.9078    0.0000 C   0  0  0  0  0  0  0  0  0  0  0  0
   -0.5946   -2.7273    0.0000 C   0  0  0  0  0  0  0  0  0  0  0  0
    0.2229   -3.9850    0.0000 C   0  0  0  0  0  0  0  0  0  0  0  0
    1.6716   -3.5962    0.0000 C   0  0  0  0  0  0  0  0  0  0  0  0
    1.7495   -2.0982    0.0000 C   0  0  0  0  0  0  0  0  0  0  0  0
    2.9148   -1.1537    0.0000 C   0  0  0  0  0  0  0  0  0  0  0  0
    4.3154   -1.6907    0.0000 C   0  0  0  0  0  0  0  0  0  0  0  0
    4.5507   -3.1721    0.0000 O   0  0  0  0  0  0  0  0  0  0  0  0
    5.4807   -0.7462    0.0000 C   0  0  0  0  0  0  0  0  0  0  0  0
    5.2455    0.7352    0.0000 C   0  0  0  0  0  0  0  0  0  0  0  0
    6.4108    1.6797    0.0000 C   0  0  0  0  0  0  0  0  0  0  0  0
    6.1755    3.1611    0.0000 C   0  0  0  0  0  0  0  0  0  0  0  0
    7.3408    4.1056    0.0000 O   0  0  0  0  0  0  0  0  0  0  0  0
    4.7749    3.6981    0.0000 C   0  0  0  0  0  0  0  0  0  0  0  0
    3.6096    2.7536    0.0000 C   0  0  0  0  0  0  0  0  0  0  0  0
    3.8449    1.2722    0.0000 C   0  0  0  0  0  0  0  0  0  0  0  0
    2.4443    1.8091    0.0000 C   0  0  0  0  0  0  0  0  0  0  0  0
    2.6795    0.3277    0.0000 C   0  0  0  0  0  0  0  0  0  0  0  0
    1.2789    0.8647    0.0000 C   0  0  0  0  0  0  0  0  0  0  0  0
    0.1136   -0.0798    0.0000 C   0  0  0  0  0  0  0  0  0  0  0  0
    0.3489   -1.5612    0.0000 C   0  0  0  0  0  0  0  0  0  0  0  0
   -1.1002   -1.1736    0.0000 C   0  0  0  0  0  0  0  0  0  0  0  0
  1  2  1  0
  2  3  1  0
  3  4  1  0
  4  5  1  0
  5  6  1  0
  6  7  2  0
  6  8  1  0
  8  9  1  0
  9 10  1  0
 10 11  1  6
 10 12  1  0
 12 13  1  6
 13 14  1  0
 15 14  1  6
 15 16  1  0
 16 17  1  1
 17 18  1  1
 17 19  1  0
 20 19  1  1
 20 21  1  0
 21 22  1  0
 22 23  1  1
 22 24  1  0
 24 25  1  0
 25 26  1  0
 26 27  1  6
 26 28  1  0
 28 29  1  6
 29 30  1  0
 30 31  1  0
 31 32  1  6
 31 12  1  0
 31 15  1  0
 28 16  1  0
 26 20  1  0
M  END
>  <MS_ID>  (14) 
MS0014

>  <SMILES>  (14) 
CCCCOC(=O)CC[C@@H](C)[C@H]1CC[C@H]2[C@@H]3[C@H](O)C[C@@H]4C[C@H](O)CC[C@]4(C)[C@H]3CC[C@]12C

>  <Structure_dimension>  (14) 
2D

$$$$
MS0015
     RDKit          2D

 34 37  0  0  0  0  0  0  0  0999 V2000
  -11.3778    3.4316    0.0000 C   0  0  0  0  0  0  0  0  0  0  0  0
  -10.6064    2.1451    0.0000 C   0  0  0  0  0  0  0  0  0  0  0  0
   -9.1066    2.1699    0.0000 C   0  0  0  0  0  0  0  0  0  0  0  0
   -8.3353    0.8834    0.0000 C   0  0  0  0  0  0  0  0  0  0  0  0
   -6.8355    0.9082    0.0000 C   0  0  0  0  0  0  0  0  0  0  0  0
   -6.0641   -0.3782    0.0000 O   0  0  0  0  0  0  0  0  0  0  0  0
   -4.5643   -0.3534    0.0000 C   0  0  0  0  0  0  0  0  0  0  0  0
   -3.8359    0.9578    0.0000 O   0  0  0  0  0  0  0  0  0  0  0  0
   -3.7929   -1.6399    0.0000 C   0  0  0  0  0  0  0  0  0  0  0  0
   -2.2931   -1.6151    0.0000 C   0  0  0  0  0  0  0  0  0  0  0  0
   -1.5218   -2.9016    0.0000 C   0  0  0  0  0  0  0  0  0  0  0  0
   -2.2502   -4.2128    0.0000 C   0  0  0  0  0  0  0  0  0  0  0  0
   -0.0220   -2.8768    0.0000 C   0  0  0  0  0  0  0  0  0  0  0  0
    0.8797   -4.0755    0.0000 C   0  0  0  0  0  0  0  0  0  0  0  0
    2.2984   -3.5885    0.0000 C   0  0  0  0  0  0  0  0  0  0  0  0
    2.2736   -2.0887    0.0000 C   0  0  0  0  0  0  0  0  0  0  0  0
    3.3716   -1.0667    0.0000 C   0  0  0  0  0  0  0  0  0  0  0  0
    4.8056   -1.5066    0.0000 C   0  0  0  0  0  0  0  0  0  0  0  0
    5.1417   -2.9685    0.0000 O   0  0  0  0  0  0  0  0  0  0  0  0
    5.9036   -0.4846    0.0000 C   0  0  0  0  0  0  0  0  0  0  0  0
    5.5675    0.9773    0.0000 C   0  0  0  0  0  0  0  0  0  0  0  0
    6.6655    1.9992    0.0000 C   0  0  0  0  0  0  0  0  0  0  0  0
    6.3294    3.4611    0.0000 C   0  0  0  0  0  0  0  0  0  0  0  0
    7.4274    4.4831    0.0000 O   0  0  0  0  0  0  0  0  0  0  0  0
    4.8953    3.9010    0.0000 C   0  0  0  0  0  0  0  0  0  0  0  0
    3.7974    2.8790    0.0000 C   0  0  0  0  0  0  0  0  0  0  0  0
    4.1334    1.4171    0.0000 C   0  0  0  0  0  0  0  0  0  0  0  0
    2.6994    1.8570    0.0000 C   0  0  0  0  0  0  0  0  0  0  0  0
    3.0355    0.3951    0.0000 C   0  0  0  0  0  0  0  0  0  0  0  0
    1.6014    0.8350    0.0000 C   0  0  0  0  0  0  0  0  0  0  0  0
    0.5034   -0.1870    0.0000 C   0  0  0  0  0  0  0  0  0  0  0  0
   -0.9306    0.2529    0.0000 O   0  0  0  0  0  0  0  0  0  0  0  0
    0.8395   -1.6488    0.0000 C   0  0  0  0  0  0  0  0  0  0  0  0
   -0.6326   -1.3613    0.0000 C   0  0  0  0  0  0  0  0  0  0  0  0
  1  2  1  0
  2  3  1  0
  3  4  1  0
  4  5  1  0
  5  6  1  0
  6  7  1  0
  7  8  2  0
  7  9  1  0
  9 10  1  0
 10 11  1  0
 11 12  1  6
 11 13  1  0
 13 14  1  6
 14 15  1  0
 16 15  1  6
 16 17  1  0
 17 18  1  1
 18 19  1  1
 18 20  1  0
 21 20  1  1
 21 22  1  0
 22 23  1  0
 23 24  1  1
 23 25  1  0
 25 26  1  0
 26 27  1  0
 27 28  1  6
 27 29  1  0
 29 30  1  6
 30 31  1  0
 31 32  1  1
 31 33  1  0
 33 34  1  6
 33 13  1  0
 33 16  1  0
 29 17  1  0
 27 21  1  0
M  END
>  <MS_ID>  (15) 
MS0015

>  <SMILES>  (15) 
CCCCCOC(=O)CC[C@@H](C)[C@H]1CC[C@H]2[C@@H]3[C@H](O)C[C@@H]4C[C@H](O)CC[C@]4(C)[C@H]3C[C@H](O)[C@]12C

>  <Structure_dimension>  (15) 
2D

$$$$
MS0016
     RDKit          2D

 40 44  0  0  0  0  0  0  0  0999 V2000
   -8.0199   -2.0892    0.0000 C   0  0  0  0  0  0  0  0  0  0  0  0
   -6.8599   -1.1383    0.0000 C   0  0  0  0  0  0  0  0  0  0  0  0
   -7.1034    0.3418    0.0000 C   0  0  0  0  0  0  0  0  0  0  0  0
   -8.5069    0.8710    0.0000 C   0  0  0  0  0  0  0  0  0  0  0  0
   -8.7504    2.3511    0.0000 C   0  0  0  0  0  0  0  0  0  0  0  0
   -7.5904    3.3020    0.0000 O   0  0  0  0  0  0  0  0  0  0  0  0
  -10.1540    2.8802    0.0000 O   0  0  0  0  0  0  0  0  0  0  0  0
   -5.4563   -1.6675    0.0000 C   0  0  0  0  0  0  0  0  0  0  0  0
   -5.0594   -3.1140    0.0000 C   0  0  0  0  0  0  0  0  0  0  0  0
   -3.5610   -3.1836    0.0000 C   0  0  0  0  0  0  0  0  0  0  0  0
   -3.0319   -1.7800    0.0000 C   0  0  0  0  0  0  0  0  0  0  0  0
   -1.6347   -1.2341    0.0000 C   0  0  0  0  0  0  0  0  0  0  0  0
   -0.4634   -2.1711    0.0000 C   0  0  0  0  0  0  0  0  0  0  0  0
   -0.6892   -3.6540    0.0000 O   0  0  0  0  0  0  0  0  0  0  0  0
    0.9337   -1.6252    0.0000 C   0  0  0  0  0  0  0  0  0  0  0  0
    1.1595   -0.1423    0.0000 C   0  0  0  0  0  0  0  0  0  0  0  0
    2.5566    0.4036    0.0000 C   0  0  0  0  0  0  0  0  0  0  0  0
    2.7824    1.8866    0.0000 C   0  0  0  0  0  0  0  0  0  0  0  0
    4.1796    2.4325    0.0000 O   0  0  0  0  0  0  0  0  0  0  0  0
    5.3509    1.4955    0.0000 C   0  0  0  0  0  0  0  0  0  0  0  0
    5.1251    0.0126    0.0000 O   0  0  0  0  0  0  0  0  0  0  0  0
    6.2965   -0.9244    0.0000 C   0  0  0  0  0  0  0  0  0  0  0  0
    6.0707   -2.4073    0.0000 C   0  0  0  0  0  0  0  0  0  0  0  0
    7.2420   -3.3443    0.0000 O   0  0  0  0  0  0  0  0  0  0  0  0
    4.6735   -2.9533    0.0000 O   0  0  0  0  0  0  0  0  0  0  0  0
    7.6936   -0.3785    0.0000 C   0  0  0  0  0  0  0  0  0  0  0  0
    8.8649   -1.3155    0.0000 O   0  0  0  0  0  0  0  0  0  0  0  0
    7.9194    1.1044    0.0000 C   0  0  0  0  0  0  0  0  0  0  0  0
    9.3165    1.6503    0.0000 O   0  0  0  0  0  0  0  0  0  0  0  0
    6.7480    2.0414    0.0000 C   0  0  0  0  0  0  0  0  0  0  0  0
    6.9738    3.5243    0.0000 O   0  0  0  0  0  0  0  0  0  0  0  0
    1.6111    2.8235    0.0000 C   0  0  0  0  0  0  0  0  0  0  0  0
    0.2140    2.2776    0.0000 C   0  0  0  0  0  0  0  0  0  0  0  0
   -0.0118    0.7947    0.0000 C   0  0  0  0  0  0  0  0  0  0  0  0
   -1.1832    1.7317    0.0000 C   0  0  0  0  0  0  0  0  0  0  0  0
   -1.4090    0.2488    0.0000 C   0  0  0  0  0  0  0  0  0  0  0  0
   -2.5803    1.1858    0.0000 C   0  0  0  0  0  0  0  0  0  0  0  0
   -3.9774    0.6399    0.0000 C   0  0  0  0  0  0  0  0  0  0  0  0
   -4.2032   -0.8430    0.0000 C   0  0  0  0  0  0  0  0  0  0  0  0
   -5.4661   -0.0336    0.0000 C   0  0  0  0  0  0  0  0  0  0  0  0
  2  1  1  6
  2  3  1  0
  3  4  1  0
  4  5  1  0
  5  6  2  0
  5  7  1  0
  2  8  1  0
  8  9  1  6
  9 10  1  0
 11 10  1  6
 11 12  1  0
 12 13  1  1
 13 14  1  6
 13 15  1  0
 16 15  1  1
 16 17  1  0
 17 18  1  0
 18 19  1  1
 20 19  1  1
 20 21  1  0
 21 22  1  0
 22 23  1  1
 23 24  2  0
 23 25  1  0
 22 26  1  0
 26 27  1  6
 26 28  1  0
 28 29  1  1
 28 30  1  0
 30 31  1  6
 18 32  1  0
 32 33  1  0
 33 34  1  0
 34 35  1  6
 34 36  1  0
 36 37  1  6
 37 38  1  0
 38 39  1  0
 39 40  1  6
 39  8  1  0
 39 11  1  0
 36 12  1  0
 34 16  1  0
 30 20  1  0
M  END
>  <MS_ID>  (16) 
MS0016

>  <SMILES>  (16) 
C[C@H](CCC(=O)O)[C@H]1CC[C@H]2[C@@H]3[C@@H](O)C[C@@H]4C[C@H](O[C@@H]5O[C@H](C(=O)O)[C@@H](O)[C@H](O)[C@H]5O)CC[C@]4(C)[C@H]3CC[C@]12C

>  <Structure_dimension>  (16) 
2D

$$$$
MS0017
     RDKit          2D

 33 36  0  0  0  0  0  0  0  0999 V2000
  -10.7745    2.9828    0.0000 C   0  0  0  0  0  0  0  0  0  0  0  0
   -9.2765    2.9064    0.0000 O   0  0  0  0  0  0  0  0  0  0  0  0
   -8.5936    1.5708    0.0000 C   0  0  0  0  0  0  0  0  0  0  0  0
   -7.0956    1.4944    0.0000 C   0  0  0  0  0  0  0  0  0  0  0  0
   -6.4128    0.1588    0.0000 O   0  0  0  0  0  0  0  0  0  0  0  0
   -4.9147    0.0823    0.0000 C   0  0  0  0  0  0  0  0  0  0  0  0
   -4.0995    1.3415    0.0000 O   0  0  0  0  0  0  0  0  0  0  0  0
   -4.2319   -1.2532    0.0000 C   0  0  0  0  0  0  0  0  0  0  0  0
   -2.7339   -1.3297    0.0000 C   0  0  0  0  0  0  0  0  0  0  0  0
   -2.0510   -2.6653    0.0000 C   0  0  0  0  0  0  0  0  0  0  0  0
   -2.8663   -3.9244    0.0000 C   0  0  0  0  0  0  0  0  0  0  0  0
   -0.5530   -2.7417    0.0000 C   0  0  0  0  0  0  0  0  0  0  0  0
    0.2657   -3.9986    0.0000 C   0  0  0  0  0  0  0  0  0  0  0  0
    1.7140   -3.6084    0.0000 C   0  0  0  0  0  0  0  0  0  0  0  0
    1.7905   -2.1103    0.0000 C   0  0  0  0  0  0  0  0  0  0  0  0
    2.9549   -1.1648    0.0000 C   0  0  0  0  0  0  0  0  0  0  0  0
    4.3560   -1.7004    0.0000 C   0  0  0  0  0  0  0  0  0  0  0  0
    4.5927   -3.1816    0.0000 O   0  0  0  0  0  0  0  0  0  0  0  0
    5.5204   -0.7548    0.0000 C   0  0  0  0  0  0  0  0  0  0  0  0
    5.2838    0.7264    0.0000 C   0  0  0  0  0  0  0  0  0  0  0  0
    6.4482    1.6720    0.0000 C   0  0  0  0  0  0  0  0  0  0  0  0
    6.2115    3.1532    0.0000 C   0  0  0  0  0  0  0  0  0  0  0  0
    7.3759    4.0988    0.0000 O   0  0  0  0  0  0  0  0  0  0  0  0
    4.8104    3.6888    0.0000 C   0  0  0  0  0  0  0  0  0  0  0  0
    3.6460    2.7432    0.0000 C   0  0  0  0  0  0  0  0  0  0  0  0
    3.8827    1.2620    0.0000 C   0  0  0  0  0  0  0  0  0  0  0  0
    2.4816    1.7977    0.0000 C   0  0  0  0  0  0  0  0  0  0  0  0
    2.7182    0.3165    0.0000 C   0  0  0  0  0  0  0  0  0  0  0  0
    1.3171    0.8521    0.0000 C   0  0  0  0  0  0  0  0  0  0  0  0
    0.1527   -0.0935    0.0000 C   0  0  0  0  0  0  0  0  0  0  0  0
   -1.2484    0.4421    0.0000 O   0  0  0  0  0  0  0  0  0  0  0  0
    0.3894   -1.5747    0.0000 C   0  0  0  0  0  0  0  0  0  0  0  0
   -1.0600   -1.1885    0.0000 C   0  0  0  0  0  0  0  0  0  0  0  0
  1  2  1  0
  2  3  1  0
  3  4  1  0
  4  5  1  0
  5  6  1  0
  6  7  2  0
  6  8  1  0
  8  9  1  0
  9 10  1  0
 10 11  1  6
 10 12  1  0
 12 13  1  6
 13 14  1  0
 15 14  1  6
 15 16  1  0
 16 17  1  1
 17 18  1  1
 17 19  1  0
 20 19  1  1
 20 21  1  0
 21 22  1  0
 22 23  1  1
 22 24  1  0
 24 25  1  0
 25 26  1  0
 26 27  1  6
 26 28  1  0
 28 29  1  6
 29 30  1  0
 30 31  1  1
 30 32  1  0
 32 33  1  6
 32 12  1  0
 32 15  1  0
 28 16  1  0
 26 20  1  0
M  END
>  <MS_ID>  (17) 
MS0017

>  <SMILES>  (17) 
COCCOC(=O)CC[C@@H](C)[C@H]1CC[C@H]2[C@@H]3[C@H](O)C[C@@H]4C[C@H](O)CC[C@]4(C)[C@H]3C[C@H](O)[C@]12C

>  <Structure_dimension>  (17) 
2D

$$$$
MS0018
     RDKit          2D

 29 32  0  0  0  0  0  0  0  0999 V2000
   -5.2182   -2.1453    0.0000 C   0  0  0  0  0  0  0  0  0  0  0  0
   -4.0752   -1.1739    0.0000 C   0  0  0  0  0  0  0  0  0  0  0  0
   -4.3449    0.3016    0.0000 C   0  0  0  0  0  0  0  0  0  0  0  0
   -5.7577    0.8058    0.0000 C   0  0  0  0  0  0  0  0  0  0  0  0
   -6.0274    2.2814    0.0000 C   0  0  0  0  0  0  0  0  0  0  0  0
   -4.8843    3.2527    0.0000 O   0  0  0  0  0  0  0  0  0  0  0  0
   -7.4401    2.7856    0.0000 O   0  0  0  0  0  0  0  0  0  0  0  0
   -2.6625   -1.6782    0.0000 C   0  0  0  0  0  0  0  0  0  0  0  0
   -2.2400   -3.1174    0.0000 C   0  0  0  0  0  0  0  0  0  0  0  0
   -0.7407   -3.1604    0.0000 C   0  0  0  0  0  0  0  0  0  0  0  0
   -0.2364   -1.7477    0.0000 C   0  0  0  0  0  0  0  0  0  0  0  0
    1.1508   -1.1771    0.0000 C   0  0  0  0  0  0  0  0  0  0  0  0
    2.3386   -2.0932    0.0000 C   0  0  0  0  0  0  0  0  0  0  0  0
    2.1391   -3.5798    0.0000 O   0  0  0  0  0  0  0  0  0  0  0  0
    3.7258   -1.5226    0.0000 C   0  0  0  0  0  0  0  0  0  0  0  0
    4.9136   -2.4386    0.0000 O   0  0  0  0  0  0  0  0  0  0  0  0
    3.9253   -0.0359    0.0000 C   0  0  0  0  0  0  0  0  0  0  0  0
    5.3125    0.5347    0.0000 C   0  0  0  0  0  0  0  0  0  0  0  0
    5.5119    2.0214    0.0000 C   0  0  0  0  0  0  0  0  0  0  0  0
    6.8992    2.5920    0.0000 O   0  0  0  0  0  0  0  0  0  0  0  0
    4.3242    2.9375    0.0000 C   0  0  0  0  0  0  0  0  0  0  0  0
    2.9369    2.3669    0.0000 C   0  0  0  0  0  0  0  0  0  0  0  0
    2.7375    0.8802    0.0000 C   0  0  0  0  0  0  0  0  0  0  0  0
    1.5497    1.7963    0.0000 C   0  0  0  0  0  0  0  0  0  0  0  0
    1.3502    0.3096    0.0000 C   0  0  0  0  0  0  0  0  0  0  0  0
    0.1625    1.2257    0.0000 C   0  0  0  0  0  0  0  0  0  0  0  0
   -1.2248    0.6551    0.0000 C   0  0  0  0  0  0  0  0  0  0  0  0
   -1.4242   -0.8316    0.0000 C   0  0  0  0  0  0  0  0  0  0  0  0
   -2.7012   -0.0447    0.0000 C   0  0  0  0  0  0  0  0  0  0  0  0
  2  1  1  6
  2  3  1  0
  3  4  1  0
  4  5  1  0
  5  6  2  0
  5  7  1  0
  2  8  1  0
  8  9  1  6
  9 10  1  0
 11 10  1  6
 11 12  1  0
 12 13  1  1
 13 14  1  1
 13 15  1  0
 15 16  1  1
 15 17  1  0
 17 18  1  1
 18 19  1  0
 19 20  1  1
 19 21  1  0
 21 22  1  0
 22 23  1  0
 23 24  1  6
 23 25  1  0
 25 26  1  6
 26 27  1  0
 27 28  1  0
 28 29  1  6
 28  8  1  0
 28 11  1  0
 25 12  1  0
 23 17  1  0
M  END
>  <MS_ID>  (18) 
MS0018

>  <SMILES>  (18) 
C[C@H](CCC(=O)O)[C@H]1CC[C@H]2[C@@H]3[C@H](O)[C@H](O)[C@@H]4C[C@H](O)CC[C@]4(C)[C@H]3CC[C@]12C

>  <Structure_dimension>  (18) 
2D

$$$$
MS0020
     RDKit          2D

 32 35  0  0  0  0  0  0  0  0999 V2000
   -3.0592   -3.7169    0.0000 C   0  0  0  0  0  0  0  0  0  0  0  0
   -2.1499   -2.5239    0.0000 C   0  0  0  0  0  0  0  0  0  0  0  0
   -2.7284   -1.1399    0.0000 C   0  0  0  0  0  0  0  0  0  0  0  0
   -4.2162   -0.9489    0.0000 C   0  0  0  0  0  0  0  0  0  0  0  0
   -4.7946    0.4350    0.0000 C   0  0  0  0  0  0  0  0  0  0  0  0
   -3.8853    1.6280    0.0000 O   0  0  0  0  0  0  0  0  0  0  0  0
   -6.2824    0.6260    0.0000 N   0  0  0  0  0  0  0  0  0  0  0  0
   -6.8609    2.0100    0.0000 C   0  0  0  0  0  0  0  0  0  0  0  0
   -8.3487    2.2010    0.0000 C   0  0  0  0  0  0  0  0  0  0  0  0
   -9.2580    1.0080    0.0000 O   0  0  0  0  0  0  0  0  0  0  0  0
   -8.9272    3.5850    0.0000 O   0  0  0  0  0  0  0  0  0  0  0  0
   -0.6621   -2.7149    0.0000 C   0  0  0  0  0  0  0  0  0  0  0  0
    0.0579   -4.0308    0.0000 C   0  0  0  0  0  0  0  0  0  0  0  0
    1.5319   -3.7527    0.0000 C   0  0  0  0  0  0  0  0  0  0  0  0
    1.7229   -2.2649    0.0000 C   0  0  0  0  0  0  0  0  0  0  0  0
    2.9563   -1.4114    0.0000 C   0  0  0  0  0  0  0  0  0  0  0  0
    4.3123   -2.0528    0.0000 C   0  0  0  0  0  0  0  0  0  0  0  0
    5.5457   -1.1992    0.0000 C   0  0  0  0  0  0  0  0  0  0  0  0
    5.4232    0.2958    0.0000 C   0  0  0  0  0  0  0  0  0  0  0  0
    6.6567    1.1494    0.0000 C   0  0  0  0  0  0  0  0  0  0  0  0
    6.5342    2.6444    0.0000 C   0  0  0  0  0  0  0  0  0  0  0  0
    7.7676    3.4980    0.0000 O   0  0  0  0  0  0  0  0  0  0  0  0
    5.1782    3.2858    0.0000 C   0  0  0  0  0  0  0  0  0  0  0  0
    3.9448    2.4322    0.0000 C   0  0  0  0  0  0  0  0  0  0  0  0
    4.0673    0.9372    0.0000 C   0  0  0  0  0  0  0  0  0  0  0  0
    2.7113    1.5786    0.0000 C   0  0  0  0  0  0  0  0  0  0  0  0
    2.8338    0.0836    0.0000 C   0  0  0  0  0  0  0  0  0  0  0  0
    1.4779    0.7250    0.0000 C   0  0  0  0  0  0  0  0  0  0  0  0
    0.2444   -0.1285    0.0000 C   0  0  0  0  0  0  0  0  0  0  0  0
   -1.1115    0.5129    0.0000 O   0  0  0  0  0  0  0  0  0  0  0  0
    0.3669   -1.6235    0.0000 C   0  0  0  0  0  0  0  0  0  0  0  0
   -1.0486   -1.1274    0.0000 C   0  0  0  0  0  0  0  0  0  0  0  0
  2  1  1  6
  2  3  1  0
  3  4  1  0
  4  5  1  0
  5  6  2  0
  5  7  1  0
  7  8  1  0
  8  9  1  0
  9 10  2  0
  9 11  1  0
  2 12  1  0
 12 13  1  6
 13 14  1  0
 15 14  1  6
 15 16  1  0
 16 17  1  1
 17 18  1  0
 19 18  1  1
 19 20  1  0
 20 21  1  0
 21 22  1  1
 21 23  1  0
 23 24  1  0
 24 25  1  0
 25 26  1  6
 25 27  1  0
 27 28  1  6
 28 29  1  0
 29 30  1  1
 29 31  1  0
 31 32  1  6
 31 12  1  0
 31 15  1  0
 27 16  1  0
 25 19  1  0
M  END
>  <MS_ID>  (19) 
MS0020

>  <SMILES>  (19) 
C[C@H](CCC(=O)NCC(=O)O)[C@H]1CC[C@H]2[C@@H]3CC[C@@H]4C[C@H](O)CC[C@]4(C)[C@H]3C[C@H](O)[C@]12C

>  <Structure_dimension>  (19) 
2D

$$$$
MS0021
     RDKit          2D

 29 32  0  0  0  0  0  0  0  0999 V2000
   -5.0303   -2.1373    0.0000 C   0  0  0  0  0  0  0  0  0  0  0  0
   -3.8594   -1.1998    0.0000 C   0  0  0  0  0  0  0  0  0  0  0  0
   -4.0858    0.2830    0.0000 C   0  0  0  0  0  0  0  0  0  0  0  0
   -5.4831    0.8284    0.0000 C   0  0  0  0  0  0  0  0  0  0  0  0
   -5.7095    2.3112    0.0000 C   0  0  0  0  0  0  0  0  0  0  0  0
   -4.5386    3.2487    0.0000 O   0  0  0  0  0  0  0  0  0  0  0  0
   -7.1069    2.8565    0.0000 O   0  0  0  0  0  0  0  0  0  0  0  0
   -2.4620   -1.7451    0.0000 C   0  0  0  0  0  0  0  0  0  0  0  0
   -2.0818   -3.1961    0.0000 C   0  0  0  0  0  0  0  0  0  0  0  0
   -0.5844   -3.2830    0.0000 C   0  0  0  0  0  0  0  0  0  0  0  0
   -0.0390   -1.8856    0.0000 C   0  0  0  0  0  0  0  0  0  0  0  0
    1.3643   -1.3559    0.0000 C   0  0  0  0  0  0  0  0  0  0  0  0
    2.5248   -2.3063    0.0000 C   0  0  0  0  0  0  0  0  0  0  0  0
    2.2819   -3.7865    0.0000 O   0  0  0  0  0  0  0  0  0  0  0  0
    3.9281   -1.7765    0.0000 C   0  0  0  0  0  0  0  0  0  0  0  0
    4.1710   -0.2963    0.0000 C   0  0  0  0  0  0  0  0  0  0  0  0
    5.5743    0.2334    0.0000 C   0  0  0  0  0  0  0  0  0  0  0  0
    5.8172    1.7136    0.0000 C   0  0  0  0  0  0  0  0  0  0  0  0
    7.2205    2.2434    0.0000 O   0  0  0  0  0  0  0  0  0  0  0  0
    4.6568    2.6641    0.0000 C   0  0  0  0  0  0  0  0  0  0  0  0
    3.2534    2.1343    0.0000 C   0  0  0  0  0  0  0  0  0  0  0  0
    3.0105    0.6541    0.0000 C   0  0  0  0  0  0  0  0  0  0  0  0
    1.8501    1.6046    0.0000 C   0  0  0  0  0  0  0  0  0  0  0  0
    1.6072    0.1244    0.0000 C   0  0  0  0  0  0  0  0  0  0  0  0
    0.4467    1.0748    0.0000 C   0  0  0  0  0  0  0  0  0  0  0  0
   -0.9566    0.5450    0.0000 C   0  0  0  0  0  0  0  0  0  0  0  0
   -2.1170    1.4955    0.0000 O   0  0  0  0  0  0  0  0  0  0  0  0
   -1.1995   -0.9352    0.0000 C   0  0  0  0  0  0  0  0  0  0  0  0
   -2.4529   -0.1112    0.0000 C   0  0  0  0  0  0  0  0  0  0  0  0
  2  1  1  6
  2  3  1  0
  3  4  1  0
  4  5  1  0
  5  6  2  0
  5  7  1  0
  2  8  1  0
  8  9  1  6
  9 10  1  0
 11 10  1  6
 11 12  1  0
 12 13  1  1
 13 14  1  6
 13 15  1  0
 16 15  1  1
 16 17  1  0
 17 18  1  0
 18 19  1  6
 18 20  1  0
 20 21  1  0
 21 22  1  0
 22 23  1  6
 22 24  1  0
 24 25  1  6
 25 26  1  0
 26 27  1  6
 26 28  1  0
 28 29  1  6
 28  8  1  0
 28 11  1  0
 24 12  1  0
 22 16  1  0
M  END
>  <MS_ID>  (20) 
MS0021

>  <SMILES>  (20) 
C[C@H](CCC(=O)O)[C@H]1CC[C@H]2[C@@H]3[C@@H](O)C[C@@H]4C[C@@H](O)CC[C@]4(C)[C@H]3C[C@@H](O)[C@]12C

>  <Structure_dimension>  (20) 
2D

$$$$
MS0022
     RDKit          2D

 36 39  0  0  0  0  0  0  0  0999 V2000
   -6.4431   -1.7518    0.0000 C   0  0  0  0  0  0  0  0  0  0  0  0
   -5.2856   -0.7978    0.0000 C   0  0  0  0  0  0  0  0  0  0  0  0
   -5.5330    0.6817    0.0000 C   0  0  0  0  0  0  0  0  0  0  0  0
   -6.9379    1.2071    0.0000 C   0  0  0  0  0  0  0  0  0  0  0  0
   -7.1853    2.6866    0.0000 C   0  0  0  0  0  0  0  0  0  0  0  0
   -6.0278    3.6406    0.0000 O   0  0  0  0  0  0  0  0  0  0  0  0
   -8.5903    3.2120    0.0000 O   0  0  0  0  0  0  0  0  0  0  0  0
   -3.8806   -1.3233    0.0000 C   0  0  0  0  0  0  0  0  0  0  0  0
   -3.4799   -2.7687    0.0000 C   0  0  0  0  0  0  0  0  0  0  0  0
   -1.9813   -2.8343    0.0000 C   0  0  0  0  0  0  0  0  0  0  0  0
   -1.4559   -1.4294    0.0000 C   0  0  0  0  0  0  0  0  0  0  0  0
   -0.0602   -0.8798    0.0000 C   0  0  0  0  0  0  0  0  0  0  0  0
    1.1136   -1.8137    0.0000 C   0  0  0  0  0  0  0  0  0  0  0  0
    0.8917   -3.2972    0.0000 O   0  0  0  0  0  0  0  0  0  0  0  0
    2.0656   -4.2311    0.0000 S   0  0  0  0  0  0  0  0  0  0  0  0
    2.9995   -3.0573    0.0000 O   0  0  0  0  0  0  0  0  0  0  0  0
    1.1317   -5.4049    0.0000 O   0  0  0  0  0  0  0  0  0  0  0  0
    3.2394   -5.1650    0.0000 O   0  0  0  0  0  0  0  0  0  0  0  0
    2.5093   -1.2641    0.0000 C   0  0  0  0  0  0  0  0  0  0  0  0
    2.7312    0.2194    0.0000 C   0  0  0  0  0  0  0  0  0  0  0  0
    4.1269    0.7690    0.0000 C   0  0  0  0  0  0  0  0  0  0  0  0
    4.3487    2.2525    0.0000 C   0  0  0  0  0  0  0  0  0  0  0  0
    5.7444    2.8021    0.0000 O   0  0  0  0  0  0  0  0  0  0  0  0
    6.9182    1.8682    0.0000 S   0  0  0  0  0  0  0  0  0  0  0  0
    5.9843    0.6944    0.0000 O   0  0  0  0  0  0  0  0  0  0  0  0
    7.8521    3.0420    0.0000 O   0  0  0  0  0  0  0  0  0  0  0  0
    8.0920    0.9343    0.0000 O   0  0  0  0  0  0  0  0  0  0  0  0
    3.1749    3.1864    0.0000 C   0  0  0  0  0  0  0  0  0  0  0  0
    1.7792    2.6368    0.0000 C   0  0  0  0  0  0  0  0  0  0  0  0
    1.5574    1.1533    0.0000 C   0  0  0  0  0  0  0  0  0  0  0  0
    0.3835    2.0872    0.0000 C   0  0  0  0  0  0  0  0  0  0  0  0
    0.1617    0.6037    0.0000 C   0  0  0  0  0  0  0  0  0  0  0  0
   -1.0121    1.5376    0.0000 C   0  0  0  0  0  0  0  0  0  0  0  0
   -2.4078    0.9880    0.0000 C   0  0  0  0  0  0  0  0  0  0  0  0
   -2.6297   -0.4955    0.0000 C   0  0  0  0  0  0  0  0  0  0  0  0
   -3.8947    0.3106    0.0000 C   0  0  0  0  0  0  0  0  0  0  0  0
  2  1  1  6
  2  3  1  0
  3  4  1  0
  4  5  1  0
  5  6  2  0
  5  7  1  0
  2  8  1  0
  8  9  1  6
  9 10  1  0
 11 10  1  6
 11 12  1  0
 12 13  1  1
 13 14  1  6
 14 15  1  0
 15 16  2  0
 15 17  2  0
 15 18  1  0
 13 19  1  0
 20 19  1  1
 20 21  1  0
 21 22  1  0
 22 23  1  1
 23 24  1  0
 24 25  2  0
 24 26  2  0
 24 27  1  0
 22 28  1  0
 28 29  1  0
 29 30  1  0
 30 31  1  6
 30 32  1  0
 32 33  1  6
 33 34  1  0
 34 35  1  0
 35 36  1  6
 35  8  1  0
 35 11  1  0
 32 12  1  0
 30 20  1  0
M  END
>  <MS_ID>  (21) 
MS0022

>  <SMILES>  (21) 
C[C@H](CCC(=O)O)[C@H]1CC[C@H]2[C@@H]3[C@@H](OS(=O)(=O)O)C[C@@H]4C[C@H](OS(=O)(=O)O)CC[C@]4(C)[C@H]3CC[C@]12C

>  <Structure_dimension>  (21) 
2D

$$$$
MS0023
     RDKit          2D

 28 31  0  0  0  0  0  0  0  0999 V2000
   -4.6340   -2.3524    0.0000 C   0  0  0  0  0  0  0  0  0  0  0  0
   -3.5242   -1.3434    0.0000 C   0  0  0  0  0  0  0  0  0  0  0  0
   -3.8431    0.1223    0.0000 C   0  0  0  0  0  0  0  0  0  0  0  0
   -5.2720    0.5789    0.0000 C   0  0  0  0  0  0  0  0  0  0  0  0
   -5.5909    2.0446    0.0000 C   0  0  0  0  0  0  0  0  0  0  0  0
   -4.4811    3.0537    0.0000 O   0  0  0  0  0  0  0  0  0  0  0  0
   -7.0197    2.5012    0.0000 O   0  0  0  0  0  0  0  0  0  0  0  0
   -2.0954   -1.8000    0.0000 C   0  0  0  0  0  0  0  0  0  0  0  0
   -1.6249   -3.2243    0.0000 C   0  0  0  0  0  0  0  0  0  0  0  0
   -0.1249   -3.2170    0.0000 C   0  0  0  0  0  0  0  0  0  0  0  0
    0.3317   -1.7882    0.0000 C   0  0  0  0  0  0  0  0  0  0  0  0
    1.6990   -1.1715    0.0000 C   0  0  0  0  0  0  0  0  0  0  0  0
    2.9168   -2.0473    0.0000 C   0  0  0  0  0  0  0  0  0  0  0  0
    2.7672   -3.5398    0.0000 O   0  0  0  0  0  0  0  0  0  0  0  0
    4.2841   -1.4305    0.0000 C   0  0  0  0  0  0  0  0  0  0  0  0
    4.4337    0.0620    0.0000 C   0  0  0  0  0  0  0  0  0  0  0  0
    5.8011    0.6787    0.0000 C   0  0  0  0  0  0  0  0  0  0  0  0
    5.9506    2.1713    0.0000 C   0  0  0  0  0  0  0  0  0  0  0  0
    4.7328    3.0471    0.0000 C   0  0  0  0  0  0  0  0  0  0  0  0
    3.3655    2.4303    0.0000 C   0  0  0  0  0  0  0  0  0  0  0  0
    3.2159    0.9378    0.0000 C   0  0  0  0  0  0  0  0  0  0  0  0
    1.9981    1.8136    0.0000 C   0  0  0  0  0  0  0  0  0  0  0  0
    1.8486    0.3211    0.0000 C   0  0  0  0  0  0  0  0  0  0  0  0
    0.6308    1.1968    0.0000 C   0  0  0  0  0  0  0  0  0  0  0  0
   -0.7366    0.5801    0.0000 C   0  0  0  0  0  0  0  0  0  0  0  0
   -1.9543    1.4559    0.0000 O   0  0  0  0  0  0  0  0  0  0  0  0
   -0.8861   -0.9124    0.0000 C   0  0  0  0  0  0  0  0  0  0  0  0
   -2.1888   -0.1687    0.0000 C   0  0  0  0  0  0  0  0  0  0  0  0
  2  1  1  6
  2  3  1  0
  3  4  1  0
  4  5  1  0
  5  6  2  0
  5  7  1  0
  2  8  1  0
  8  9  1  6
  9 10  1  0
 11 10  1  6
 11 12  1  0
 12 13  1  1
 13 14  1  1
 13 15  1  0
 16 15  1  1
 16 17  1  0
 17 18  1  0
 18 19  1  0
 19 20  1  0
 20 21  1  0
 21 22  1  6
 21 23  1  0
 23 24  1  6
 24 25  1  0
 25 26  2  0
 25 27  1  0
 27 28  1  6
 27  8  1  0
 27 11  1  0
 23 12  1  0
 21 16  1  0
M  END
>  <MS_ID>  (22) 
MS0023

>  <SMILES>  (22) 
C[C@H](CCC(=O)O)[C@H]1CC[C@H]2[C@@H]3[C@H](O)C[C@@H]4CCCC[C@]4(C)[C@H]3CC(=O)[C@]12C

>  <Structure_dimension>  (22) 
2D

$$$$
MS0024
     RDKit          2D

 29 32  0  0  0  0  0  0  0  0999 V2000
   -5.0303   -2.1373    0.0000 C   0  0  0  0  0  0  0  0  0  0  0  0
   -3.8594   -1.1998    0.0000 C   0  0  0  0  0  0  0  0  0  0  0  0
   -4.0858    0.2830    0.0000 C   0  0  0  0  0  0  0  0  0  0  0  0
   -5.4831    0.8284    0.0000 C   0  0  0  0  0  0  0  0  0  0  0  0
   -5.7095    2.3112    0.0000 C   0  0  0  0  0  0  0  0  0  0  0  0
   -4.5386    3.2487    0.0000 O   0  0  0  0  0  0  0  0  0  0  0  0
   -7.1069    2.8565    0.0000 O   0  0  0  0  0  0  0  0  0  0  0  0
   -2.4620   -1.7451    0.0000 C   0  0  0  0  0  0  0  0  0  0  0  0
   -2.0818   -3.1961    0.0000 C   0  0  0  0  0  0  0  0  0  0  0  0
   -0.5844   -3.2830    0.0000 C   0  0  0  0  0  0  0  0  0  0  0  0
   -0.0390   -1.8856    0.0000 C   0  0  0  0  0  0  0  0  0  0  0  0
    1.3643   -1.3559    0.0000 C   0  0  0  0  0  0  0  0  0  0  0  0
    2.5248   -2.3063    0.0000 C   0  0  0  0  0  0  0  0  0  0  0  0
    2.2819   -3.7865    0.0000 O   0  0  0  0  0  0  0  0  0  0  0  0
    3.9281   -1.7765    0.0000 C   0  0  0  0  0  0  0  0  0  0  0  0
    4.1710   -0.2963    0.0000 C   0  0  0  0  0  0  0  0  0  0  0  0
    5.5743    0.2334    0.0000 C   0  0  0  0  0  0  0  0  0  0  0  0
    5.8172    1.7136    0.0000 C   0  0  0  0  0  0  0  0  0  0  0  0
    7.2205    2.2434    0.0000 O   0  0  0  0  0  0  0  0  0  0  0  0
    4.6568    2.6641    0.0000 C   0  0  0  0  0  0  0  0  0  0  0  0
    3.2534    2.1343    0.0000 C   0  0  0  0  0  0  0  0  0  0  0  0
    3.0105    0.6541    0.0000 C   0  0  0  0  0  0  0  0  0  0  0  0
    1.8501    1.6046    0.0000 C   0  0  0  0  0  0  0  0  0  0  0  0
    1.6072    0.1244    0.0000 C   0  0  0  0  0  0  0  0  0  0  0  0
    0.4467    1.0748    0.0000 C   0  0  0  0  0  0  0  0  0  0  0  0
   -0.9566    0.5450    0.0000 C   0  0  0  0  0  0  0  0  0  0  0  0
   -2.1170    1.4955    0.0000 O   0  0  0  0  0  0  0  0  0  0  0  0
   -1.1995   -0.9352    0.0000 C   0  0  0  0  0  0  0  0  0  0  0  0
   -2.4529   -0.1112    0.0000 C   0  0  0  0  0  0  0  0  0  0  0  0
  2  1  1  6
  2  3  1  0
  3  4  1  0
  4  5  1  0
  5  6  2  0
  5  7  1  0
  2  8  1  0
  8  9  1  6
  9 10  1  0
 11 10  1  6
 11 12  1  0
 12 13  1  1
 13 14  1  6
 13 15  1  0
 16 15  1  1
 16 17  1  0
 17 18  1  0
 18 19  2  0
 18 20  1  0
 20 21  1  0
 21 22  1  0
 22 23  1  6
 22 24  1  0
 24 25  1  6
 25 26  1  0
 26 27  1  1
 26 28  1  0
 28 29  1  6
 28  8  1  0
 28 11  1  0
 24 12  1  0
 22 16  1  0
M  END
>  <MS_ID>  (23) 
MS0024

>  <SMILES>  (23) 
C[C@H](CCC(=O)O)[C@H]1CC[C@H]2[C@@H]3[C@@H](O)C[C@@H]4CC(=O)CC[C@]4(C)[C@H]3C[C@H](O)[C@]12C

>  <Structure_dimension>  (23) 
2D

$$$$
MS0025
     RDKit          2D

 28 31  0  0  0  0  0  0  0  0999 V2000
   -5.0096   -2.1352    0.0000 C   0  0  0  0  0  0  0  0  0  0  0  0
   -3.8132   -1.2303    0.0000 C   0  0  0  0  0  0  0  0  0  0  0  0
   -3.9987    0.2582    0.0000 C   0  0  0  0  0  0  0  0  0  0  0  0
   -5.3805    0.8418    0.0000 C   0  0  0  0  0  0  0  0  0  0  0  0
   -5.5659    2.3303    0.0000 C   0  0  0  0  0  0  0  0  0  0  0  0
   -4.3695    3.2351    0.0000 O   0  0  0  0  0  0  0  0  0  0  0  0
   -6.9477    2.9140    0.0000 O   0  0  0  0  0  0  0  0  0  0  0  0
   -2.4315   -1.8140    0.0000 C   0  0  0  0  0  0  0  0  0  0  0  0
   -2.0914   -3.2749    0.0000 C   0  0  0  0  0  0  0  0  0  0  0  0
   -0.5969   -3.4030    0.0000 C   0  0  0  0  0  0  0  0  0  0  0  0
   -0.0133   -2.0212    0.0000 C   0  0  0  0  0  0  0  0  0  0  0  0
    1.4041   -1.5304    0.0000 C   0  0  0  0  0  0  0  0  0  0  0  0
    2.5379   -2.5125    0.0000 C   0  0  0  0  0  0  0  0  0  0  0  0
    3.9554   -2.0216    0.0000 C   0  0  0  0  0  0  0  0  0  0  0  0
    4.2390   -0.5487    0.0000 C   0  0  0  0  0  0  0  0  0  0  0  0
    5.6564   -0.0578    0.0000 C   0  0  0  0  0  0  0  0  0  0  0  0
    5.9400    1.4151    0.0000 C   0  0  0  0  0  0  0  0  0  0  0  0
    7.3574    1.9060    0.0000 O   0  0  0  0  0  0  0  0  0  0  0  0
    4.8062    2.3972    0.0000 C   0  0  0  0  0  0  0  0  0  0  0  0
    3.3888    1.9064    0.0000 C   0  0  0  0  0  0  0  0  0  0  0  0
    3.1052    0.4334    0.0000 C   0  0  0  0  0  0  0  0  0  0  0  0
    1.9714    1.4155    0.0000 C   0  0  0  0  0  0  0  0  0  0  0  0
    1.6878   -0.0574    0.0000 C   0  0  0  0  0  0  0  0  0  0  0  0
    0.5540    0.9246    0.0000 C   0  0  0  0  0  0  0  0  0  0  0  0
   -0.8635    0.4338    0.0000 C   0  0  0  0  0  0  0  0  0  0  0  0
   -1.9973    1.4159    0.0000 O   0  0  0  0  0  0  0  0  0  0  0  0
   -1.1471   -1.0392    0.0000 C   0  0  0  0  0  0  0  0  0  0  0  0
   -2.3773   -0.1810    0.0000 C   0  0  0  0  0  0  0  0  0  0  0  0
  2  1  1  6
  2  3  1  0
  3  4  1  0
  4  5  1  0
  5  6  2  0
  5  7  1  0
  2  8  1  0
  8  9  1  6
  9 10  1  0
 11 10  1  6
 11 12  1  0
 12 13  1  1
 13 14  1  0
 15 14  1  6
 15 16  1  0
 16 17  1  0
 17 18  1  1
 17 19  1  0
 19 20  1  0
 20 21  1  0
 21 22  1  6
 21 23  1  0
 23 24  1  6
 24 25  1  0
 25 26  1  1
 25 27  1  0
 27 28  1  6
 27  8  1  0
 27 11  1  0
 23 12  1  0
 21 15  1  0
M  END
>  <MS_ID>  (24) 
MS0025

>  <SMILES>  (24) 
C[C@H](CCC(=O)O)[C@H]1CC[C@H]2[C@@H]3CC[C@H]4C[C@H](O)CC[C@]4(C)[C@H]3C[C@H](O)[C@]12C

>  <Structure_dimension>  (24) 
2D

$$$$
MS0026
     RDKit          2D

 32 35  0  0  0  0  0  0  0  0999 V2000
   -3.1421   -3.6694    0.0000 C   0  0  0  0  0  0  0  0  0  0  0  0
   -2.2628   -2.4541    0.0000 C   0  0  0  0  0  0  0  0  0  0  0  0
   -2.8756   -1.0850    0.0000 C   0  0  0  0  0  0  0  0  0  0  0  0
   -4.3676   -0.9311    0.0000 C   0  0  0  0  0  0  0  0  0  0  0  0
   -4.9804    0.4380    0.0000 C   0  0  0  0  0  0  0  0  0  0  0  0
   -4.1011    1.6532    0.0000 O   0  0  0  0  0  0  0  0  0  0  0  0
   -6.4725    0.5919    0.0000 N   0  0  0  0  0  0  0  0  0  0  0  0
   -7.0853    1.9610    0.0000 C   0  0  0  0  0  0  0  0  0  0  0  0
   -8.5774    2.1149    0.0000 C   0  0  0  0  0  0  0  0  0  0  0  0
   -9.4567    0.8996    0.0000 O   0  0  0  0  0  0  0  0  0  0  0  0
   -9.1901    3.4840    0.0000 O   0  0  0  0  0  0  0  0  0  0  0  0
   -0.7707   -2.6080    0.0000 C   0  0  0  0  0  0  0  0  0  0  0  0
   -0.0182   -3.9056    0.0000 C   0  0  0  0  0  0  0  0  0  0  0  0
    1.4484   -3.5909    0.0000 C   0  0  0  0  0  0  0  0  0  0  0  0
    1.6023   -2.0988    0.0000 C   0  0  0  0  0  0  0  0  0  0  0  0
    2.8141   -1.2147    0.0000 C   0  0  0  0  0  0  0  0  0  0  0  0
    4.1856   -1.8222    0.0000 C   0  0  0  0  0  0  0  0  0  0  0  0
    4.3453   -3.3136    0.0000 O   0  0  0  0  0  0  0  0  0  0  0  0
    5.3974   -0.9381    0.0000 C   0  0  0  0  0  0  0  0  0  0  0  0
    5.2377    0.5533    0.0000 C   0  0  0  0  0  0  0  0  0  0  0  0
    6.4495    1.4374    0.0000 C   0  0  0  0  0  0  0  0  0  0  0  0
    6.2898    2.9289    0.0000 C   0  0  0  0  0  0  0  0  0  0  0  0
    7.5016    3.8129    0.0000 O   0  0  0  0  0  0  0  0  0  0  0  0
    4.9183    3.5363    0.0000 C   0  0  0  0  0  0  0  0  0  0  0  0
    3.7065    2.6522    0.0000 C   0  0  0  0  0  0  0  0  0  0  0  0
    3.8662    1.1608    0.0000 C   0  0  0  0  0  0  0  0  0  0  0  0
    2.4947    1.7682    0.0000 C   0  0  0  0  0  0  0  0  0  0  0  0
    2.6544    0.2767    0.0000 C   0  0  0  0  0  0  0  0  0  0  0  0
    1.2829    0.8842    0.0000 C   0  0  0  0  0  0  0  0  0  0  0  0
    0.0711    0.0001    0.0000 C   0  0  0  0  0  0  0  0  0  0  0  0
    0.2308   -1.4914    0.0000 C   0  0  0  0  0  0  0  0  0  0  0  0
   -1.1967   -1.0306    0.0000 C   0  0  0  0  0  0  0  0  0  0  0  0
  2  1  1  6
  2  3  1  0
  3  4  1  0
  4  5  1  0
  5  6  2  0
  5  7  1  0
  7  8  1  0
  8  9  1  0
  9 10  2  0
  9 11  1  0
  2 12  1  0
 12 13  1  6
 13 14  1  0
 15 14  1  6
 15 16  1  0
 16 17  1  1
 17 18  2  0
 17 19  1  0
 20 19  1  1
 20 21  1  0
 21 22  1  0
 22 23  1  1
 22 24  1  0
 24 25  1  0
 25 26  1  0
 26 27  1  6
 26 28  1  0
 28 29  1  6
 29 30  1  0
 30 31  1  0
 31 32  1  6
 31 12  1  0
 31 15  1  0
 28 16  1  0
 26 20  1  0
M  END
>  <MS_ID>  (25) 
MS0026

>  <SMILES>  (25) 
C[C@H](CCC(=O)NCC(=O)O)[C@H]1CC[C@H]2[C@@H]3C(=O)C[C@@H]4C[C@H](O)CC[C@]4(C)[C@H]3CC[C@]12C

>  <Structure_dimension>  (25) 
2D

$$$$
MS0027
     RDKit          2D

 29 32  0  0  0  0  0  0  0  0999 V2000
   -5.0303   -2.1373    0.0000 C   0  0  0  0  0  0  0  0  0  0  0  0
   -3.8594   -1.1998    0.0000 C   0  0  0  0  0  0  0  0  0  0  0  0
   -4.0858    0.2830    0.0000 C   0  0  0  0  0  0  0  0  0  0  0  0
   -5.4831    0.8284    0.0000 C   0  0  0  0  0  0  0  0  0  0  0  0
   -5.7095    2.3112    0.0000 C   0  0  0  0  0  0  0  0  0  0  0  0
   -4.5386    3.2487    0.0000 O   0  0  0  0  0  0  0  0  0  0  0  0
   -7.1069    2.8565    0.0000 O   0  0  0  0  0  0  0  0  0  0  0  0
   -2.4620   -1.7451    0.0000 C   0  0  0  0  0  0  0  0  0  0  0  0
   -2.0818   -3.1961    0.0000 C   0  0  0  0  0  0  0  0  0  0  0  0
   -0.5844   -3.2830    0.0000 C   0  0  0  0  0  0  0  0  0  0  0  0
   -0.0390   -1.8856    0.0000 C   0  0  0  0  0  0  0  0  0  0  0  0
    1.3643   -1.3559    0.0000 C   0  0  0  0  0  0  0  0  0  0  0  0
    2.5248   -2.3063    0.0000 C   0  0  0  0  0  0  0  0  0  0  0  0
    2.2819   -3.7865    0.0000 O   0  0  0  0  0  0  0  0  0  0  0  0
    3.9281   -1.7765    0.0000 C   0  0  0  0  0  0  0  0  0  0  0  0
    4.1710   -0.2963    0.0000 C   0  0  0  0  0  0  0  0  0  0  0  0
    5.5743    0.2334    0.0000 C   0  0  0  0  0  0  0  0  0  0  0  0
    5.8172    1.7136    0.0000 C   0  0  0  0  0  0  0  0  0  0  0  0
    7.2205    2.2434    0.0000 O   0  0  0  0  0  0  0  0  0  0  0  0
    4.6568    2.6641    0.0000 C   0  0  0  0  0  0  0  0  0  0  0  0
    3.2534    2.1343    0.0000 C   0  0  0  0  0  0  0  0  0  0  0  0
    3.0105    0.6541    0.0000 C   0  0  0  0  0  0  0  0  0  0  0  0
    1.8501    1.6046    0.0000 C   0  0  0  0  0  0  0  0  0  0  0  0
    1.6072    0.1244    0.0000 C   0  0  0  0  0  0  0  0  0  0  0  0
    0.4467    1.0748    0.0000 C   0  0  0  0  0  0  0  0  0  0  0  0
   -0.9566    0.5450    0.0000 C   0  0  0  0  0  0  0  0  0  0  0  0
   -2.1170    1.4955    0.0000 O   0  0  0  0  0  0  0  0  0  0  0  0
   -1.1995   -0.9352    0.0000 C   0  0  0  0  0  0  0  0  0  0  0  0
   -2.4529   -0.1112    0.0000 C   0  0  0  0  0  0  0  0  0  0  0  0
  2  1  1  6
  2  3  1  0
  3  4  1  0
  4  5  1  0
  5  6  2  0
  5  7  1  0
  2  8  1  0
  8  9  1  6
  9 10  1  0
 11 10  1  6
 11 12  1  0
 12 13  1  1
 13 14  1  1
 13 15  1  0
 16 15  1  1
 16 17  1  0
 17 18  1  0
 18 19  2  0
 18 20  1  0
 20 21  1  0
 21 22  1  0
 22 23  1  6
 22 24  1  0
 24 25  1  6
 25 26  1  0
 26 27  1  6
 26 28  1  0
 28 29  1  6
 28  8  1  0
 28 11  1  0
 24 12  1  0
 22 16  1  0
M  END
>  <MS_ID>  (26) 
MS0027

>  <SMILES>  (26) 
C[C@H](CCC(=O)O)[C@H]1CC[C@H]2[C@@H]3[C@H](O)C[C@@H]4CC(=O)CC[C@]4(C)[C@H]3C[C@@H](O)[C@]12C

>  <Structure_dimension>  (26) 
2D

$$$$
MS0028
     RDKit          2D

 33 36  0  0  0  0  0  0  0  0999 V2000
   -6.2027   -1.9081    0.0000 C   0  0  0  0  0  0  0  0  0  0  0  0
   -4.9792   -1.0402    0.0000 C   0  0  0  0  0  0  0  0  0  0  0  0
   -5.1191    0.4533    0.0000 C   0  0  0  0  0  0  0  0  0  0  0  0
   -6.4825    1.0788    0.0000 C   0  0  0  0  0  0  0  0  0  0  0  0
   -6.6223    2.5723    0.0000 C   0  0  0  0  0  0  0  0  0  0  0  0
   -5.3989    3.4402    0.0000 O   0  0  0  0  0  0  0  0  0  0  0  0
   -7.9857    3.1979    0.0000 O   0  0  0  0  0  0  0  0  0  0  0  0
   -3.6159   -1.6658    0.0000 C   0  0  0  0  0  0  0  0  0  0  0  0
   -3.3207   -3.1364    0.0000 C   0  0  0  0  0  0  0  0  0  0  0  0
   -1.8308   -3.3101    0.0000 C   0  0  0  0  0  0  0  0  0  0  0  0
   -1.2052   -1.9468    0.0000 C   0  0  0  0  0  0  0  0  0  0  0  0
    0.2265   -1.4995    0.0000 C   0  0  0  0  0  0  0  0  0  0  0  0
    1.3298   -2.5157    0.0000 C   0  0  0  0  0  0  0  0  0  0  0  0
    1.0014   -3.9793    0.0000 O   0  0  0  0  0  0  0  0  0  0  0  0
    2.7616   -2.0684    0.0000 C   0  0  0  0  0  0  0  0  0  0  0  0
    3.0900   -0.6048    0.0000 C   0  0  0  0  0  0  0  0  0  0  0  0
    4.5218   -0.1574    0.0000 C   0  0  0  0  0  0  0  0  0  0  0  0
    4.8502    1.3061    0.0000 C   0  0  0  0  0  0  0  0  0  0  0  0
    6.2820    1.7535    0.0000 O   0  0  0  0  0  0  0  0  0  0  0  0
    7.3853    0.7372    0.0000 S   0  0  0  0  0  0  0  0  0  0  0  0
    6.3690   -0.3660    0.0000 O   0  0  0  0  0  0  0  0  0  0  0  0
    8.4015    1.8405    0.0000 O   0  0  0  0  0  0  0  0  0  0  0  0
    8.4885   -0.2790    0.0000 O   0  0  0  0  0  0  0  0  0  0  0  0
    3.7470    2.3224    0.0000 C   0  0  0  0  0  0  0  0  0  0  0  0
    2.3152    1.8751    0.0000 C   0  0  0  0  0  0  0  0  0  0  0  0
    1.9868    0.4115    0.0000 C   0  0  0  0  0  0  0  0  0  0  0  0
    0.8835    1.4277    0.0000 C   0  0  0  0  0  0  0  0  0  0  0  0
    0.5550   -0.0359    0.0000 C   0  0  0  0  0  0  0  0  0  0  0  0
   -0.5483    0.9804    0.0000 C   0  0  0  0  0  0  0  0  0  0  0  0
   -1.9800    0.5330    0.0000 C   0  0  0  0  0  0  0  0  0  0  0  0
   -3.0833    1.5493    0.0000 O   0  0  0  0  0  0  0  0  0  0  0  0
   -2.3085   -0.9305    0.0000 C   0  0  0  0  0  0  0  0  0  0  0  0
   -3.5119   -0.0352    0.0000 C   0  0  0  0  0  0  0  0  0  0  0  0
  2  1  1  6
  2  3  1  0
  3  4  1  0
  4  5  1  0
  5  6  2  0
  5  7  1  0
  2  8  1  0
  8  9  1  6
  9 10  1  0
 11 10  1  6
 11 12  1  0
 12 13  1  1
 13 14  1  1
 13 15  1  0
 16 15  1  1
 16 17  1  0
 17 18  1  0
 18 19  1  1
 19 20  1  0
 20 21  2  0
 20 22  2  0
 20 23  1  0
 18 24  1  0
 24 25  1  0
 25 26  1  0
 26 27  1  6
 26 28  1  0
 28 29  1  6
 29 30  1  0
 30 31  1  1
 30 32  1  0
 32 33  1  6
 32  8  1  0
 32 11  1  0
 28 12  1  0
 26 16  1  0
M  END
>  <MS_ID>  (27) 
MS0028

>  <SMILES>  (27) 
C[C@H](CCC(=O)O)[C@H]1CC[C@H]2[C@@H]3[C@H](O)C[C@@H]4C[C@H](OS(=O)(=O)O)CC[C@]4(C)[C@H]3C[C@H](O)[C@]12C

>  <Structure_dimension>  (27) 
2D

$$$$
MS0029
     RDKit          2D

 40 44  0  0  0  0  0  0  0  0999 V2000
   -7.7456   -2.0849    0.0000 C   0  0  0  0  0  0  0  0  0  0  0  0
   -6.5700   -1.1533    0.0000 C   0  0  0  0  0  0  0  0  0  0  0  0
   -6.7891    0.3307    0.0000 C   0  0  0  0  0  0  0  0  0  0  0  0
   -8.1837    0.8829    0.0000 C   0  0  0  0  0  0  0  0  0  0  0  0
   -8.4028    2.3668    0.0000 C   0  0  0  0  0  0  0  0  0  0  0  0
   -7.2273    3.2985    0.0000 O   0  0  0  0  0  0  0  0  0  0  0  0
   -9.7975    2.9190    0.0000 O   0  0  0  0  0  0  0  0  0  0  0  0
   -5.1754   -1.7055    0.0000 C   0  0  0  0  0  0  0  0  0  0  0  0
   -4.8024   -3.1584    0.0000 C   0  0  0  0  0  0  0  0  0  0  0  0
   -3.3053   -3.2526    0.0000 C   0  0  0  0  0  0  0  0  0  0  0  0
   -2.7531   -1.8579    0.0000 C   0  0  0  0  0  0  0  0  0  0  0  0
   -1.3472   -1.3351    0.0000 C   0  0  0  0  0  0  0  0  0  0  0  0
   -0.1914   -2.2913    0.0000 C   0  0  0  0  0  0  0  0  0  0  0  0
   -0.4416   -3.7703    0.0000 O   0  0  0  0  0  0  0  0  0  0  0  0
    1.2145   -1.7685    0.0000 C   0  0  0  0  0  0  0  0  0  0  0  0
    1.4647   -0.2895    0.0000 C   0  0  0  0  0  0  0  0  0  0  0  0
    2.8707    0.2333    0.0000 C   0  0  0  0  0  0  0  0  0  0  0  0
    3.1208    1.7123    0.0000 C   0  0  0  0  0  0  0  0  0  0  0  0
    4.5268    2.2352    0.0000 O   0  0  0  0  0  0  0  0  0  0  0  0
    5.6825    1.2790    0.0000 C   0  0  0  0  0  0  0  0  0  0  0  0
    5.4323   -0.2000    0.0000 O   0  0  0  0  0  0  0  0  0  0  0  0
    6.5881   -1.1562    0.0000 C   0  0  0  0  0  0  0  0  0  0  0  0
    6.3379   -2.6351    0.0000 C   0  0  0  0  0  0  0  0  0  0  0  0
    4.9320   -3.1580    0.0000 O   0  0  0  0  0  0  0  0  0  0  0  0
    7.9940   -0.6333    0.0000 C   0  0  0  0  0  0  0  0  0  0  0  0
    9.1498   -1.5895    0.0000 O   0  0  0  0  0  0  0  0  0  0  0  0
    8.2442    0.8456    0.0000 C   0  0  0  0  0  0  0  0  0  0  0  0
    9.6501    1.3685    0.0000 O   0  0  0  0  0  0  0  0  0  0  0  0
    7.0885    1.8018    0.0000 C   0  0  0  0  0  0  0  0  0  0  0  0
    7.3387    3.2808    0.0000 O   0  0  0  0  0  0  0  0  0  0  0  0
    1.9651    2.6685    0.0000 C   0  0  0  0  0  0  0  0  0  0  0  0
    0.5592    2.1457    0.0000 C   0  0  0  0  0  0  0  0  0  0  0  0
    0.3090    0.6667    0.0000 C   0  0  0  0  0  0  0  0  0  0  0  0
   -0.8468    1.6229    0.0000 C   0  0  0  0  0  0  0  0  0  0  0  0
   -1.0970    0.1439    0.0000 C   0  0  0  0  0  0  0  0  0  0  0  0
   -2.2527    1.1000    0.0000 C   0  0  0  0  0  0  0  0  0  0  0  0
   -3.6586    0.5772    0.0000 C   0  0  0  0  0  0  0  0  0  0  0  0
   -4.8144    1.5334    0.0000 O   0  0  0  0  0  0  0  0  0  0  0  0
   -3.9088   -0.9018    0.0000 C   0  0  0  0  0  0  0  0  0  0  0  0
   -5.1582   -0.0716    0.0000 C   0  0  0  0  0  0  0  0  0  0  0  0
  2  1  1  6
  2  3  1  0
  3  4  1  0
  4  5  1  0
  5  6  2  0
  5  7  1  0
  2  8  1  0
  8  9  1  6
  9 10  1  0
 11 10  1  6
 11 12  1  0
 12 13  1  1
 13 14  1  1
 13 15  1  0
 16 15  1  1
 16 17  1  0
 17 18  1  0
 18 19  1  1
 20 19  1  1
 20 21  1  0
 21 22  1  0
 22 23  1  1
 23 24  1  0
 22 25  1  0
 25 26  1  6
 25 27  1  0
 27 28  1  1
 27 29  1  0
 29 30  1  6
 18 31  1  0
 31 32  1  0
 32 33  1  0
 33 34  1  6
 33 35  1  0
 35 36  1  6
 36 37  1  0
 37 38  1  1
 37 39  1  0
 39 40  1  6
 39  8  1  0
 39 11  1  0
 35 12  1  0
 33 16  1  0
 29 20  1  0
M  END
>  <MS_ID>  (28) 
MS0029

>  <SMILES>  (28) 
C[C@H](CCC(=O)O)[C@H]1CC[C@H]2[C@@H]3[C@H](O)C[C@@H]4C[C@H](O[C@@H]5O[C@H](CO)[C@@H](O)[C@H](O)[C@H]5O)CC[C@]4(C)[C@H]3C[C@H](O)[C@]12C

>  <Structure_dimension>  (28) 
2D

$$$$
MS0030
     RDKit          2D

 39 43  0  0  0  0  0  0  0  0999 V2000
   -7.7534   -2.1938    0.0000 C   0  0  0  0  0  0  0  0  0  0  0  0
   -6.5793   -1.2603    0.0000 C   0  0  0  0  0  0  0  0  0  0  0  0
   -6.8008    0.2233    0.0000 C   0  0  0  0  0  0  0  0  0  0  0  0
   -8.1963    0.7733    0.0000 C   0  0  0  0  0  0  0  0  0  0  0  0
   -8.4177    2.2569    0.0000 C   0  0  0  0  0  0  0  0  0  0  0  0
   -7.2436    3.1904    0.0000 O   0  0  0  0  0  0  0  0  0  0  0  0
   -9.8132    2.8069    0.0000 O   0  0  0  0  0  0  0  0  0  0  0  0
   -5.1838   -1.8103    0.0000 C   0  0  0  0  0  0  0  0  0  0  0  0
   -4.8085   -3.2626    0.0000 C   0  0  0  0  0  0  0  0  0  0  0  0
   -3.3114   -3.3545    0.0000 C   0  0  0  0  0  0  0  0  0  0  0  0
   -2.7613   -1.9590    0.0000 C   0  0  0  0  0  0  0  0  0  0  0  0
   -1.3562   -1.4339    0.0000 C   0  0  0  0  0  0  0  0  0  0  0  0
   -0.1990   -2.3883    0.0000 C   0  0  0  0  0  0  0  0  0  0  0  0
    1.2061   -1.8632    0.0000 C   0  0  0  0  0  0  0  0  0  0  0  0
    1.4540   -0.3839    0.0000 C   0  0  0  0  0  0  0  0  0  0  0  0
    2.8591    0.1412    0.0000 C   0  0  0  0  0  0  0  0  0  0  0  0
    3.1070    1.6206    0.0000 C   0  0  0  0  0  0  0  0  0  0  0  0
    4.5121    2.1456    0.0000 O   0  0  0  0  0  0  0  0  0  0  0  0
    5.6693    1.1912    0.0000 C   0  0  0  0  0  0  0  0  0  0  0  0
    5.4215   -0.2881    0.0000 O   0  0  0  0  0  0  0  0  0  0  0  0
    6.5787   -1.2425    0.0000 C   0  0  0  0  0  0  0  0  0  0  0  0
    6.3309   -2.7219    0.0000 C   0  0  0  0  0  0  0  0  0  0  0  0
    4.9257   -3.2469    0.0000 O   0  0  0  0  0  0  0  0  0  0  0  0
    7.9838   -0.7174    0.0000 C   0  0  0  0  0  0  0  0  0  0  0  0
    9.1411   -1.6718    0.0000 O   0  0  0  0  0  0  0  0  0  0  0  0
    8.2317    0.7619    0.0000 C   0  0  0  0  0  0  0  0  0  0  0  0
    9.6368    1.2870    0.0000 O   0  0  0  0  0  0  0  0  0  0  0  0
    7.0744    1.7163    0.0000 C   0  0  0  0  0  0  0  0  0  0  0  0
    7.3223    3.1957    0.0000 O   0  0  0  0  0  0  0  0  0  0  0  0
    1.9497    2.5749    0.0000 C   0  0  0  0  0  0  0  0  0  0  0  0
    0.5446    2.0499    0.0000 C   0  0  0  0  0  0  0  0  0  0  0  0
    0.2967    0.5705    0.0000 C   0  0  0  0  0  0  0  0  0  0  0  0
   -0.8605    1.5248    0.0000 C   0  0  0  0  0  0  0  0  0  0  0  0
   -1.1084    0.0455    0.0000 C   0  0  0  0  0  0  0  0  0  0  0  0
   -2.2656    0.9998    0.0000 C   0  0  0  0  0  0  0  0  0  0  0  0
   -3.6707    0.4748    0.0000 C   0  0  0  0  0  0  0  0  0  0  0  0
   -4.8280    1.4291    0.0000 O   0  0  0  0  0  0  0  0  0  0  0  0
   -3.9186   -1.0046    0.0000 C   0  0  0  0  0  0  0  0  0  0  0  0
   -5.1693   -0.1765    0.0000 C   0  0  0  0  0  0  0  0  0  0  0  0
  2  1  1  6
  2  3  1  0
  3  4  1  0
  4  5  1  0
  5  6  2  0
  5  7  1  0
  2  8  1  0
  8  9  1  6
  9 10  1  0
 11 10  1  6
 11 12  1  0
 12 13  1  1
 13 14  1  0
 15 14  1  1
 15 16  1  0
 16 17  1  0
 17 18  1  6
 19 18  1  1
 19 20  1  0
 20 21  1  0
 21 22  1  1
 22 23  1  0
 21 24  1  0
 24 25  1  6
 24 26  1  0
 26 27  1  1
 26 28  1  0
 28 29  1  6
 17 30  1  0
 30 31  1  0
 31 32  1  0
 32 33  1  6
 32 34  1  0
 34 35  1  6
 35 36  1  0
 36 37  1  1
 36 38  1  0
 38 39  1  6
 38  8  1  0
 38 11  1  0
 34 12  1  0
 32 15  1  0
 28 19  1  0
M  END
>  <MS_ID>  (29) 
MS0030

>  <SMILES>  (29) 
C[C@H](CCC(=O)O)[C@H]1CC[C@H]2[C@@H]3CC[C@@H]4C[C@@H](O[C@@H]5O[C@H](CO)[C@@H](O)[C@H](O)[C@H]5O)CC[C@]4(C)[C@H]3C[C@H](O)[C@]12C

>  <Structure_dimension>  (29) 
2D

$$$$
MS0031
     RDKit          2D

 29 32  0  0  0  0  0  0  0  0999 V2000
   -5.2401   -2.0328    0.0000 C   0  0  0  0  0  0  0  0  0  0  0  0
   -4.0410   -1.1316    0.0000 C   0  0  0  0  0  0  0  0  0  0  0  0
   -4.2220    0.3575    0.0000 C   0  0  0  0  0  0  0  0  0  0  0  0
   -5.6020    0.9453    0.0000 C   0  0  0  0  0  0  0  0  0  0  0  0
   -5.7830    2.4343    0.0000 C   0  0  0  0  0  0  0  0  0  0  0  0
   -4.5839    3.3355    0.0000 O   0  0  0  0  0  0  0  0  0  0  0  0
   -7.1630    3.0221    0.0000 O   0  0  0  0  0  0  0  0  0  0  0  0
   -2.6610   -1.7194    0.0000 C   0  0  0  0  0  0  0  0  0  0  0  0
   -2.3254   -3.1813    0.0000 C   0  0  0  0  0  0  0  0  0  0  0  0
   -0.8312   -3.3139    0.0000 C   0  0  0  0  0  0  0  0  0  0  0  0
   -0.2434   -1.9339    0.0000 C   0  0  0  0  0  0  0  0  0  0  0  0
    1.1754   -1.4473    0.0000 C   0  0  0  0  0  0  0  0  0  0  0  0
    2.3063   -2.4327    0.0000 C   0  0  0  0  0  0  0  0  0  0  0  0
    2.0183   -3.9048    0.0000 O   0  0  0  0  0  0  0  0  0  0  0  0
    3.7252   -1.9461    0.0000 C   0  0  0  0  0  0  0  0  0  0  0  0
    4.0132   -0.4740    0.0000 C   0  0  0  0  0  0  0  0  0  0  0  0
    5.4321    0.0126    0.0000 C   0  0  0  0  0  0  0  0  0  0  0  0
    5.7201    1.4846    0.0000 C   0  0  0  0  0  0  0  0  0  0  0  0
    7.1390    1.9713    0.0000 O   0  0  0  0  0  0  0  0  0  0  0  0
    4.5892    2.4701    0.0000 C   0  0  0  0  0  0  0  0  0  0  0  0
    3.1704    1.9835    0.0000 C   0  0  0  0  0  0  0  0  0  0  0  0
    2.8823    0.5114    0.0000 C   0  0  0  0  0  0  0  0  0  0  0  0
    1.7515    1.4969    0.0000 C   0  0  0  0  0  0  0  0  0  0  0  0
    2.0395    2.9690    0.0000 O   0  0  0  0  0  0  0  0  0  0  0  0
    1.4635    0.0248    0.0000 C   0  0  0  0  0  0  0  0  0  0  0  0
    0.3326    1.0103    0.0000 C   0  0  0  0  0  0  0  0  0  0  0  0
   -1.0863    0.5237    0.0000 C   0  0  0  0  0  0  0  0  0  0  0  0
   -1.3743   -0.9484    0.0000 C   0  0  0  0  0  0  0  0  0  0  0  0
   -2.6020   -0.0865    0.0000 C   0  0  0  0  0  0  0  0  0  0  0  0
  2  1  1  6
  2  3  1  0
  3  4  1  0
  4  5  1  0
  5  6  2  0
  5  7  1  0
  2  8  1  0
  8  9  1  6
  9 10  1  0
 11 10  1  6
 11 12  1  0
 12 13  1  1
 13 14  1  6
 13 15  1  0
 16 15  1  1
 16 17  1  0
 17 18  1  0
 18 19  1  1
 18 20  1  0
 20 21  1  0
 21 22  1  0
 22 23  1  6
 23 24  1  0
 22 25  1  0
 25 26  1  6
 26 27  1  0
 27 28  1  0
 28 29  1  6
 28  8  1  0
 28 11  1  0
 25 12  1  0
 22 16  1  0
M  END
>  <MS_ID>  (30) 
MS0031

>  <SMILES>  (30) 
C[C@H](CCC(=O)O)[C@H]1CC[C@H]2[C@@H]3[C@@H](O)C[C@@H]4C[C@H](O)CC[C@]4(CO)[C@H]3CC[C@]12C

>  <Structure_dimension>  (30) 
2D

$$$$
MS0032
     RDKit          2D

 32 35  0  0  0  0  0  0  0  0999 V2000
   -3.2408   -3.7047    0.0000 C   0  0  0  0  0  0  0  0  0  0  0  0
   -2.3540   -2.4949    0.0000 C   0  0  0  0  0  0  0  0  0  0  0  0
   -2.9583   -1.1220    0.0000 C   0  0  0  0  0  0  0  0  0  0  0  0
   -4.4494   -0.9589    0.0000 C   0  0  0  0  0  0  0  0  0  0  0  0
   -5.0537    0.4139    0.0000 C   0  0  0  0  0  0  0  0  0  0  0  0
   -4.1669    1.6237    0.0000 O   0  0  0  0  0  0  0  0  0  0  0  0
   -6.5448    0.5770    0.0000 N   0  0  0  0  0  0  0  0  0  0  0  0
   -7.1491    1.9499    0.0000 C   0  0  0  0  0  0  0  0  0  0  0  0
   -8.6402    2.1130    0.0000 C   0  0  0  0  0  0  0  0  0  0  0  0
   -9.5270    0.9032    0.0000 O   0  0  0  0  0  0  0  0  0  0  0  0
   -9.2445    3.4859    0.0000 O   0  0  0  0  0  0  0  0  0  0  0  0
   -0.8629   -2.6580    0.0000 C   0  0  0  0  0  0  0  0  0  0  0  0
   -0.1184   -3.9602    0.0000 C   0  0  0  0  0  0  0  0  0  0  0  0
    1.3502   -3.6545    0.0000 C   0  0  0  0  0  0  0  0  0  0  0  0
    1.5133   -2.1634    0.0000 C   0  0  0  0  0  0  0  0  0  0  0  0
    2.7305   -1.2869    0.0000 C   0  0  0  0  0  0  0  0  0  0  0  0
    4.0982   -1.9028    0.0000 C   0  0  0  0  0  0  0  0  0  0  0  0
    5.3155   -1.0262    0.0000 C   0  0  0  0  0  0  0  0  0  0  0  0
    6.6832   -1.6421    0.0000 O   0  0  0  0  0  0  0  0  0  0  0  0
    5.1650    0.4662    0.0000 C   0  0  0  0  0  0  0  0  0  0  0  0
    6.3822    1.3428    0.0000 C   0  0  0  0  0  0  0  0  0  0  0  0
    6.2317    2.8352    0.0000 C   0  0  0  0  0  0  0  0  0  0  0  0
    7.4490    3.7117    0.0000 O   0  0  0  0  0  0  0  0  0  0  0  0
    4.8640    3.4511    0.0000 C   0  0  0  0  0  0  0  0  0  0  0  0
    3.6468    2.5745    0.0000 C   0  0  0  0  0  0  0  0  0  0  0  0
    3.7972    1.0821    0.0000 C   0  0  0  0  0  0  0  0  0  0  0  0
    2.4295    1.6980    0.0000 C   0  0  0  0  0  0  0  0  0  0  0  0
    2.5800    0.2056    0.0000 C   0  0  0  0  0  0  0  0  0  0  0  0
    1.2123    0.8214    0.0000 C   0  0  0  0  0  0  0  0  0  0  0  0
   -0.0050   -0.0551    0.0000 C   0  0  0  0  0  0  0  0  0  0  0  0
    0.1455   -1.5475    0.0000 C   0  0  0  0  0  0  0  0  0  0  0  0
   -1.2791   -1.0780    0.0000 C   0  0  0  0  0  0  0  0  0  0  0  0
  2  1  1  6
  2  3  1  0
  3  4  1  0
  4  5  1  0
  5  6  2  0
  5  7  1  0
  7  8  1  0
  8  9  1  0
  9 10  2  0
  9 11  1  0
  2 12  1  0
 12 13  1  6
 13 14  1  0
 15 14  1  6
 15 16  1  0
 16 17  1  1
 17 18  1  0
 18 19  1  1
 18 20  1  0
 20 21  1  1
 21 22  1  0
 22 23  1  1
 22 24  1  0
 24 25  1  0
 25 26  1  0
 26 27  1  6
 26 28  1  0
 28 29  1  6
 29 30  1  0
 30 31  1  0
 31 32  1  6
 31 12  1  0
 31 15  1  0
 28 16  1  0
 26 20  1  0
M  END
>  <MS_ID>  (31) 
MS0032

>  <SMILES>  (31) 
C[C@H](CCC(=O)NCC(=O)O)[C@H]1CC[C@H]2[C@@H]3C[C@H](O)[C@@H]4C[C@H](O)CC[C@]4(C)[C@H]3CC[C@]12C

>  <Structure_dimension>  (31) 
2D

$$$$
MS0033
     RDKit          2D

 39 43  0  0  0  0  0  0  0  0999 V2000
   -7.8836   -1.9888    0.0000 C   0  0  0  0  0  0  0  0  0  0  0  0
   -6.7013   -1.0656    0.0000 C   0  0  0  0  0  0  0  0  0  0  0  0
   -6.9097    0.4199    0.0000 C   0  0  0  0  0  0  0  0  0  0  0  0
   -8.3003    0.9822    0.0000 C   0  0  0  0  0  0  0  0  0  0  0  0
   -8.5087    2.4676    0.0000 C   0  0  0  0  0  0  0  0  0  0  0  0
   -7.3264    3.3908    0.0000 O   0  0  0  0  0  0  0  0  0  0  0  0
   -9.8993    3.0299    0.0000 O   0  0  0  0  0  0  0  0  0  0  0  0
   -5.3107   -1.6279    0.0000 C   0  0  0  0  0  0  0  0  0  0  0  0
   -4.9482   -3.0834    0.0000 C   0  0  0  0  0  0  0  0  0  0  0  0
   -3.4519   -3.1884    0.0000 C   0  0  0  0  0  0  0  0  0  0  0  0
   -2.8896   -1.7978    0.0000 C   0  0  0  0  0  0  0  0  0  0  0  0
   -1.4799   -1.2851    0.0000 C   0  0  0  0  0  0  0  0  0  0  0  0
   -0.3311   -2.2496    0.0000 C   0  0  0  0  0  0  0  0  0  0  0  0
   -0.5920   -3.7268    0.0000 O   0  0  0  0  0  0  0  0  0  0  0  0
    1.0786   -1.7370    0.0000 C   0  0  0  0  0  0  0  0  0  0  0  0
    1.3394   -0.2598    0.0000 C   0  0  0  0  0  0  0  0  0  0  0  0
    2.7491    0.2528    0.0000 C   0  0  0  0  0  0  0  0  0  0  0  0
    3.0100    1.7300    0.0000 C   0  0  0  0  0  0  0  0  0  0  0  0
    4.4196    2.2426    0.0000 O   0  0  0  0  0  0  0  0  0  0  0  0
    5.5685    1.2781    0.0000 C   0  0  0  0  0  0  0  0  0  0  0  0
    5.3076   -0.1990    0.0000 O   0  0  0  0  0  0  0  0  0  0  0  0
    6.4564   -1.1635    0.0000 C   0  0  0  0  0  0  0  0  0  0  0  0
    6.1955   -2.6406    0.0000 C   0  0  0  0  0  0  0  0  0  0  0  0
    4.7859   -3.1533    0.0000 O   0  0  0  0  0  0  0  0  0  0  0  0
    7.8661   -0.6508    0.0000 C   0  0  0  0  0  0  0  0  0  0  0  0
    9.0149   -1.6153    0.0000 O   0  0  0  0  0  0  0  0  0  0  0  0
    8.1269    0.8263    0.0000 C   0  0  0  0  0  0  0  0  0  0  0  0
    9.5366    1.3390    0.0000 O   0  0  0  0  0  0  0  0  0  0  0  0
    6.9781    1.7908    0.0000 C   0  0  0  0  0  0  0  0  0  0  0  0
    7.2390    3.2679    0.0000 O   0  0  0  0  0  0  0  0  0  0  0  0
    1.8612    2.6945    0.0000 C   0  0  0  0  0  0  0  0  0  0  0  0
    0.4515    2.1818    0.0000 C   0  0  0  0  0  0  0  0  0  0  0  0
    0.1906    0.7047    0.0000 C   0  0  0  0  0  0  0  0  0  0  0  0
   -0.9582    1.6691    0.0000 C   0  0  0  0  0  0  0  0  0  0  0  0
   -1.2191    0.1920    0.0000 C   0  0  0  0  0  0  0  0  0  0  0  0
   -2.3679    1.1565    0.0000 C   0  0  0  0  0  0  0  0  0  0  0  0
   -3.7775    0.6438    0.0000 C   0  0  0  0  0  0  0  0  0  0  0  0
   -4.0384   -0.8333    0.0000 C   0  0  0  0  0  0  0  0  0  0  0  0
   -5.2817    0.0058    0.0000 C   0  0  0  0  0  0  0  0  0  0  0  0
  2  1  1  6
  2  3  1  0
  3  4  1  0
  4  5  1  0
  5  6  2  0
  5  7  1  0
  2  8  1  0
  8  9  1  6
  9 10  1  0
 11 10  1  6
 11 12  1  0
 12 13  1  1
 13 14  1  1
 13 15  1  0
 16 15  1  1
 16 17  1  0
 17 18  1  0
 18 19  1  1
 20 19  1  1
 20 21  1  0
 21 22  1  0
 22 23  1  1
 23 24  1  0
 22 25  1  0
 25 26  1  6
 25 27  1  0
 27 28  1  1
 27 29  1  0
 29 30  1  6
 18 31  1  0
 31 32  1  0
 32 33  1  0
 33 34  1  6
 33 35  1  0
 35 36  1  6
 36 37  1  0
 37 38  1  0
 38 39  1  6
 38  8  1  0
 38 11  1  0
 35 12  1  0
 33 16  1  0
 29 20  1  0
M  END
>  <MS_ID>  (32) 
MS0033

>  <SMILES>  (32) 
C[C@H](CCC(=O)O)[C@H]1CC[C@H]2[C@@H]3[C@H](O)C[C@@H]4C[C@H](O[C@@H]5O[C@H](CO)[C@@H](O)[C@H](O)[C@H]5O)CC[C@]4(C)[C@H]3CC[C@]12C

>  <Structure_dimension>  (32) 
2D

$$$$
MS0034
     RDKit          2D

 28 31  0  0  0  0  0  0  0  0999 V2000
   -5.1936   -2.1523    0.0000 C   0  0  0  0  0  0  0  0  0  0  0  0
   -4.0282   -1.2079    0.0000 C   0  0  0  0  0  0  0  0  0  0  0  0
   -4.2633    0.2735    0.0000 C   0  0  0  0  0  0  0  0  0  0  0  0
   -5.6638    0.8107    0.0000 C   0  0  0  0  0  0  0  0  0  0  0  0
   -5.8990    2.2921    0.0000 C   0  0  0  0  0  0  0  0  0  0  0  0
   -4.7335    3.2365    0.0000 O   0  0  0  0  0  0  0  0  0  0  0  0
   -7.2995    2.8292    0.0000 O   0  0  0  0  0  0  0  0  0  0  0  0
   -2.6276   -1.7450    0.0000 C   0  0  0  0  0  0  0  0  0  0  0  0
   -2.2390   -3.1938    0.0000 C   0  0  0  0  0  0  0  0  0  0  0  0
   -0.7410   -3.2718    0.0000 C   0  0  0  0  0  0  0  0  0  0  0  0
   -0.2039   -1.8713    0.0000 C   0  0  0  0  0  0  0  0  0  0  0  0
    1.1963   -1.3333    0.0000 C   0  0  0  0  0  0  0  0  0  0  0  0
    2.3623   -2.2769    0.0000 C   0  0  0  0  0  0  0  0  0  0  0  0
    3.7625   -1.7389    0.0000 C   0  0  0  0  0  0  0  0  0  0  0  0
    4.9286   -2.6825    0.0000 O   0  0  0  0  0  0  0  0  0  0  0  0
    3.9967   -0.2573    0.0000 C   0  0  0  0  0  0  0  0  0  0  0  0
    5.3969    0.2807    0.0000 C   0  0  0  0  0  0  0  0  0  0  0  0
    5.6311    1.7623    0.0000 C   0  0  0  0  0  0  0  0  0  0  0  0
    7.0313    2.3003    0.0000 O   0  0  0  0  0  0  0  0  0  0  0  0
    4.4651    2.7059    0.0000 C   0  0  0  0  0  0  0  0  0  0  0  0
    3.0649    2.1679    0.0000 C   0  0  0  0  0  0  0  0  0  0  0  0
    2.8307    0.6863    0.0000 C   0  0  0  0  0  0  0  0  0  0  0  0
    1.6647    1.6299    0.0000 C   0  0  0  0  0  0  0  0  0  0  0  0
    1.4305    0.1483    0.0000 C   0  0  0  0  0  0  0  0  0  0  0  0
    0.2645    1.0919    0.0000 C   0  0  0  0  0  0  0  0  0  0  0  0
   -1.1357    0.5539    0.0000 C   0  0  0  0  0  0  0  0  0  0  0  0
   -1.3699   -0.9277    0.0000 C   0  0  0  0  0  0  0  0  0  0  0  0
   -2.6282   -0.1111    0.0000 C   0  0  0  0  0  0  0  0  0  0  0  0
  2  1  1  6
  2  3  1  0
  3  4  1  0
  4  5  1  0
  5  6  2  0
  5  7  1  0
  2  8  1  0
  8  9  1  6
  9 10  1  0
 11 10  1  6
 11 12  1  0
 12 13  1  1
 13 14  1  0
 14 15  1  1
 14 16  1  0
 16 17  1  1
 17 18  1  0
 18 19  1  1
 18 20  1  0
 20 21  1  0
 21 22  1  0
 22 23  1  6
 22 24  1  0
 24 25  1  6
 25 26  1  0
 26 27  1  0
 27 28  1  6
 27  8  1  0
 27 11  1  0
 24 12  1  0
 22 16  1  0
M  END
>  <MS_ID>  (33) 
MS0034

>  <SMILES>  (33) 
C[C@H](CCC(=O)O)[C@H]1CC[C@H]2[C@@H]3C[C@H](O)[C@@H]4C[C@H](O)CC[C@]4(C)[C@H]3CC[C@]12C

>  <Structure_dimension>  (33) 
2D

$$$$
MS0035
     RDKit          2D

 34 37  0  0  0  0  0  0  0  0999 V2000
   -2.6036   -4.1660    0.0000 C   0  0  0  0  0  0  0  0  0  0  0  0
   -1.8683   -2.8586    0.0000 C   0  0  0  0  0  0  0  0  0  0  0  0
   -2.6328   -1.5681    0.0000 C   0  0  0  0  0  0  0  0  0  0  0  0
   -4.1328   -1.5850    0.0000 C   0  0  0  0  0  0  0  0  0  0  0  0
   -4.8973   -0.2944    0.0000 C   0  0  0  0  0  0  0  0  0  0  0  0
   -4.1620    1.0130    0.0000 O   0  0  0  0  0  0  0  0  0  0  0  0
   -6.3972   -0.3113    0.0000 N   0  0  0  0  0  0  0  0  0  0  0  0
   -7.1618    0.9792    0.0000 C   0  0  0  0  0  0  0  0  0  0  0  0
   -8.6617    0.9623    0.0000 C   0  0  0  0  0  0  0  0  0  0  0  0
   -9.4263    2.2528    0.0000 C   0  0  0  0  0  0  0  0  0  0  0  0
   -8.6910    3.5602    0.0000 O   0  0  0  0  0  0  0  0  0  0  0  0
  -10.9262    2.2359    0.0000 O   0  0  0  0  0  0  0  0  0  0  0  0
   -0.3684   -2.8417    0.0000 C   0  0  0  0  0  0  0  0  0  0  0  0
    0.5269   -4.0452    0.0000 C   0  0  0  0  0  0  0  0  0  0  0  0
    1.9482   -3.5657    0.0000 C   0  0  0  0  0  0  0  0  0  0  0  0
    1.9313   -2.0657    0.0000 C   0  0  0  0  0  0  0  0  0  0  0  0
    3.0347   -1.0496    0.0000 C   0  0  0  0  0  0  0  0  0  0  0  0
    4.4664   -1.4970    0.0000 C   0  0  0  0  0  0  0  0  0  0  0  0
    4.7947   -2.9606    0.0000 O   0  0  0  0  0  0  0  0  0  0  0  0
    5.5697   -0.4808    0.0000 C   0  0  0  0  0  0  0  0  0  0  0  0
    7.0014   -0.9282    0.0000 O   0  0  0  0  0  0  0  0  0  0  0  0
    5.2413    0.9828    0.0000 C   0  0  0  0  0  0  0  0  0  0  0  0
    6.3447    1.9990    0.0000 C   0  0  0  0  0  0  0  0  0  0  0  0
    6.0163    3.4626    0.0000 C   0  0  0  0  0  0  0  0  0  0  0  0
    7.1197    4.4788    0.0000 O   0  0  0  0  0  0  0  0  0  0  0  0
    4.5846    3.9100    0.0000 C   0  0  0  0  0  0  0  0  0  0  0  0
    3.4813    2.8939    0.0000 C   0  0  0  0  0  0  0  0  0  0  0  0
    3.8096    1.4302    0.0000 C   0  0  0  0  0  0  0  0  0  0  0  0
    2.3779    1.8777    0.0000 C   0  0  0  0  0  0  0  0  0  0  0  0
    2.7063    0.4141    0.0000 C   0  0  0  0  0  0  0  0  0  0  0  0
    1.2746    0.8615    0.0000 C   0  0  0  0  0  0  0  0  0  0  0  0
    0.1712   -0.1547    0.0000 C   0  0  0  0  0  0  0  0  0  0  0  0
    0.4996   -1.6183    0.0000 C   0  0  0  0  0  0  0  0  0  0  0  0
   -0.9710   -1.3230    0.0000 C   0  0  0  0  0  0  0  0  0  0  0  0
  2  1  1  6
  2  3  1  0
  3  4  1  0
  4  5  1  0
  5  6  2  0
  5  7  1  0
  7  8  1  0
  8  9  1  0
  9 10  1  0
 10 11  2  0
 10 12  1  0
  2 13  1  0
 13 14  1  6
 14 15  1  0
 16 15  1  6
 16 17  1  0
 17 18  1  1
 18 19  1  1
 18 20  1  0
 20 21  1  1
 20 22  1  0
 22 23  1  1
 23 24  1  0
 24 25  1  1
 24 26  1  0
 26 27  1  0
 27 28  1  0
 28 29  1  6
 28 30  1  0
 30 31  1  6
 31 32  1  0
 32 33  1  0
 33 34  1  6
 33 13  1  0
 33 16  1  0
 30 17  1  0
 28 22  1  0
M  END
>  <MS_ID>  (34) 
MS0035

>  <SMILES>  (34) 
C[C@H](CCC(=O)NCCC(=O)O)[C@H]1CC[C@H]2[C@@H]3[C@H](O)[C@H](O)[C@@H]4C[C@H](O)CC[C@]4(C)[C@H]3CC[C@]12C

>  <Structure_dimension>  (34) 
2D

$$$$
MS0036
     RDKit          2D

 33 36  0  0  0  0  0  0  0  0999 V2000
   -5.0246   -2.6773    0.0000 C   0  0  0  0  0  0  0  0  0  0  0  0
   -4.0826   -1.5100    0.0000 C   0  0  0  0  0  0  0  0  0  0  0  0
   -4.6226   -0.1105    0.0000 C   0  0  0  0  0  0  0  0  0  0  0  0
   -6.1045    0.1216    0.0000 C   0  0  0  0  0  0  0  0  0  0  0  0
   -6.6444    1.5210    0.0000 C   0  0  0  0  0  0  0  0  0  0  0  0
   -5.7025    2.6884    0.0000 O   0  0  0  0  0  0  0  0  0  0  0  0
   -8.1264    1.7531    0.0000 O   0  0  0  0  0  0  0  0  0  0  0  0
   -2.6007   -1.7421    0.0000 C   0  0  0  0  0  0  0  0  0  0  0  0
   -1.9174   -3.0774    0.0000 C   0  0  0  0  0  0  0  0  0  0  0  0
   -0.4363   -2.8402    0.0000 C   0  0  0  0  0  0  0  0  0  0  0  0
   -0.2042   -1.3583    0.0000 C   0  0  0  0  0  0  0  0  0  0  0  0
    1.0525   -0.5392    0.0000 C   0  0  0  0  0  0  0  0  0  0  0  0
    2.3901   -1.2179    0.0000 C   0  0  0  0  0  0  0  0  0  0  0  0
    2.4712   -2.7157    0.0000 O   0  0  0  0  0  0  0  0  0  0  0  0
    3.8089   -3.3944    0.0000 S   0  0  0  0  0  0  0  0  0  0  0  0
    4.4876   -2.0567    0.0000 O   0  0  0  0  0  0  0  0  0  0  0  0
    3.1302   -4.7321    0.0000 O   0  0  0  0  0  0  0  0  0  0  0  0
    5.1465   -4.0731    0.0000 O   0  0  0  0  0  0  0  0  0  0  0  0
    3.6467   -0.3988    0.0000 C   0  0  0  0  0  0  0  0  0  0  0  0
    3.5657    1.0990    0.0000 C   0  0  0  0  0  0  0  0  0  0  0  0
    4.8223    1.9182    0.0000 C   0  0  0  0  0  0  0  0  0  0  0  0
    4.7412    3.4160    0.0000 C   0  0  0  0  0  0  0  0  0  0  0  0
    5.9978    4.2351    0.0000 O   0  0  0  0  0  0  0  0  0  0  0  0
    3.4035    4.0947    0.0000 C   0  0  0  0  0  0  0  0  0  0  0  0
    2.1469    3.2755    0.0000 C   0  0  0  0  0  0  0  0  0  0  0  0
    2.2280    1.7777    0.0000 C   0  0  0  0  0  0  0  0  0  0  0  0
    0.8903    2.4564    0.0000 C   0  0  0  0  0  0  0  0  0  0  0  0
    0.9714    0.9586    0.0000 C   0  0  0  0  0  0  0  0  0  0  0  0
   -0.3663    1.6373    0.0000 C   0  0  0  0  0  0  0  0  0  0  0  0
   -1.6229    0.8182    0.0000 C   0  0  0  0  0  0  0  0  0  0  0  0
   -2.9606    1.4969    0.0000 O   0  0  0  0  0  0  0  0  0  0  0  0
   -1.5418   -0.6796    0.0000 C   0  0  0  0  0  0  0  0  0  0  0  0
   -2.9431   -0.1445    0.0000 C   0  0  0  0  0  0  0  0  0  0  0  0
  2  1  1  6
  2  3  1  0
  3  4  1  0
  4  5  1  0
  5  6  2  0
  5  7  1  0
  2  8  1  0
  8  9  1  6
  9 10  1  0
 11 10  1  6
 11 12  1  0
 12 13  1  1
 13 14  1  6
 14 15  1  0
 15 16  2  0
 15 17  2  0
 15 18  1  0
 13 19  1  0
 20 19  1  1
 20 21  1  0
 21 22  1  0
 22 23  1  1
 22 24  1  0
 24 25  1  0
 25 26  1  0
 26 27  1  6
 26 28  1  0
 28 29  1  6
 29 30  1  0
 30 31  1  1
 30 32  1  0
 32 33  1  6
 32  8  1  0
 32 11  1  0
 28 12  1  0
 26 20  1  0
M  END
>  <MS_ID>  (35) 
MS0036

>  <SMILES>  (35) 
C[C@H](CCC(=O)O)[C@H]1CC[C@H]2[C@@H]3[C@@H](OS(=O)(=O)O)C[C@@H]4C[C@H](O)CC[C@]4(C)[C@H]3C[C@H](O)[C@]12C

>  <Structure_dimension>  (35) 
2D

$$$$
MS0037
     RDKit          2D

 32 35  0  0  0  0  0  0  0  0999 V2000
   -3.8307   -3.4888    0.0000 C   0  0  0  0  0  0  0  0  0  0  0  0
   -2.9213   -2.2959    0.0000 C   0  0  0  0  0  0  0  0  0  0  0  0
   -3.4997   -0.9119    0.0000 C   0  0  0  0  0  0  0  0  0  0  0  0
   -4.9875   -0.7208    0.0000 C   0  0  0  0  0  0  0  0  0  0  0  0
   -5.5659    0.6632    0.0000 C   0  0  0  0  0  0  0  0  0  0  0  0
   -4.6565    1.8561    0.0000 O   0  0  0  0  0  0  0  0  0  0  0  0
   -7.0537    0.8543    0.0000 C   0  0  0  0  0  0  0  0  0  0  0  0
   -7.6321    2.2383    0.0000 C   0  0  0  0  0  0  0  0  0  0  0  0
   -6.7227    3.4312    0.0000 O   0  0  0  0  0  0  0  0  0  0  0  0
   -9.1199    2.4294    0.0000 O   0  0  0  0  0  0  0  0  0  0  0  0
   -1.4336   -2.4870    0.0000 C   0  0  0  0  0  0  0  0  0  0  0  0
   -0.7137   -3.8029    0.0000 C   0  0  0  0  0  0  0  0  0  0  0  0
    0.7603   -3.5249    0.0000 C   0  0  0  0  0  0  0  0  0  0  0  0
    0.9514   -2.0372    0.0000 C   0  0  0  0  0  0  0  0  0  0  0  0
    2.1849   -1.1836    0.0000 C   0  0  0  0  0  0  0  0  0  0  0  0
    3.5409   -1.8251    0.0000 C   0  0  0  0  0  0  0  0  0  0  0  0
    3.6633   -3.3201    0.0000 O   0  0  0  0  0  0  0  0  0  0  0  0
    4.7744   -0.9716    0.0000 C   0  0  0  0  0  0  0  0  0  0  0  0
    6.1303   -1.6131    0.0000 O   0  0  0  0  0  0  0  0  0  0  0  0
    4.6520    0.5234    0.0000 C   0  0  0  0  0  0  0  0  0  0  0  0
    5.8855    1.3769    0.0000 C   0  0  0  0  0  0  0  0  0  0  0  0
    5.7630    2.8719    0.0000 C   0  0  0  0  0  0  0  0  0  0  0  0
    6.9966    3.7254    0.0000 O   0  0  0  0  0  0  0  0  0  0  0  0
    4.4071    3.5134    0.0000 C   0  0  0  0  0  0  0  0  0  0  0  0
    3.1736    2.6599    0.0000 C   0  0  0  0  0  0  0  0  0  0  0  0
    3.2960    1.1649    0.0000 C   0  0  0  0  0  0  0  0  0  0  0  0
    1.9401    1.8063    0.0000 C   0  0  0  0  0  0  0  0  0  0  0  0
    2.0625    0.3113    0.0000 C   0  0  0  0  0  0  0  0  0  0  0  0
    0.7066    0.9528    0.0000 C   0  0  0  0  0  0  0  0  0  0  0  0
   -0.5269    0.0993    0.0000 C   0  0  0  0  0  0  0  0  0  0  0  0
   -0.4045   -1.3957    0.0000 C   0  0  0  0  0  0  0  0  0  0  0  0
   -1.8200   -0.8994    0.0000 C   0  0  0  0  0  0  0  0  0  0  0  0
  2  1  1  6
  2  3  1  0
  3  4  1  0
  4  5  1  0
  5  6  2  0
  5  7  1  0
  7  8  1  0
  8  9  2  0
  8 10  1  0
  2 11  1  0
 11 12  1  6
 12 13  1  0
 14 13  1  6
 14 15  1  0
 15 16  1  1
 16 17  1  1
 16 18  1  0
 18 19  1  1
 18 20  1  0
 20 21  1  1
 21 22  1  0
 22 23  1  1
 22 24  1  0
 24 25  1  0
 25 26  1  0
 26 27  1  6
 26 28  1  0
 28 29  1  6
 29 30  1  0
 30 31  1  0
 31 32  1  6
 31 11  1  0
 31 14  1  0
 28 15  1  0
 26 20  1  0
M  END
>  <MS_ID>  (36) 
MS0037

>  <SMILES>  (36) 
C[C@H](CCC(=O)CC(=O)O)[C@H]1CC[C@H]2[C@@H]3[C@H](O)[C@H](O)[C@@H]4C[C@H](O)CC[C@]4(C)[C@H]3CC[C@]12C

>  <Structure_dimension>  (36) 
2D

$$$$
MS0038
     RDKit          2D

 32 35  0  0  0  0  0  0  0  0999 V2000
   -4.6321   -2.8439    0.0000 C   0  0  0  0  0  0  0  0  0  0  0  0
   -3.4960   -1.8645    0.0000 C   0  0  0  0  0  0  0  0  0  0  0  0
   -3.7761   -0.3909    0.0000 C   0  0  0  0  0  0  0  0  0  0  0  0
   -5.1923    0.1033    0.0000 C   0  0  0  0  0  0  0  0  0  0  0  0
   -5.4724    1.5769    0.0000 C   0  0  0  0  0  0  0  0  0  0  0  0
   -4.3363    2.5563    0.0000 O   0  0  0  0  0  0  0  0  0  0  0  0
   -6.8887    2.0711    0.0000 O   0  0  0  0  0  0  0  0  0  0  0  0
   -2.0797   -2.3588    0.0000 C   0  0  0  0  0  0  0  0  0  0  0  0
   -1.6471   -3.7950    0.0000 C   0  0  0  0  0  0  0  0  0  0  0  0
   -0.1475   -3.8274    0.0000 C   0  0  0  0  0  0  0  0  0  0  0  0
    0.3468   -2.4112    0.0000 C   0  0  0  0  0  0  0  0  0  0  0  0
    1.7299   -1.8308    0.0000 C   0  0  0  0  0  0  0  0  0  0  0  0
    2.9241   -2.7385    0.0000 C   0  0  0  0  0  0  0  0  0  0  0  0
    4.3073   -2.1581    0.0000 C   0  0  0  0  0  0  0  0  0  0  0  0
    4.4963   -0.6700    0.0000 C   0  0  0  0  0  0  0  0  0  0  0  0
    5.8795   -0.0896    0.0000 C   0  0  0  0  0  0  0  0  0  0  0  0
    6.0684    1.3984    0.0000 C   0  0  0  0  0  0  0  0  0  0  0  0
    7.4516    1.9788    0.0000 O   0  0  0  0  0  0  0  0  0  0  0  0
    4.8742    2.3061    0.0000 C   0  0  0  0  0  0  0  0  0  0  0  0
    3.4910    1.7257    0.0000 C   0  0  0  0  0  0  0  0  0  0  0  0
    3.3021    0.2376    0.0000 C   0  0  0  0  0  0  0  0  0  0  0  0
    2.1079    1.1453    0.0000 C   0  0  0  0  0  0  0  0  0  0  0  0
    1.9189   -0.3427    0.0000 C   0  0  0  0  0  0  0  0  0  0  0  0
    0.7247    0.5649    0.0000 C   0  0  0  0  0  0  0  0  0  0  0  0
   -0.6585   -0.0154    0.0000 C   0  0  0  0  0  0  0  0  0  0  0  0
   -1.8527    0.8922    0.0000 O   0  0  0  0  0  0  0  0  0  0  0  0
   -1.6637    2.3803    0.0000 S   0  0  0  0  0  0  0  0  0  0  0  0
   -0.1757    2.1913    0.0000 O   0  0  0  0  0  0  0  0  0  0  0  0
   -3.1518    2.5693    0.0000 O   0  0  0  0  0  0  0  0  0  0  0  0
   -1.4748    3.8683    0.0000 O   0  0  0  0  0  0  0  0  0  0  0  0
   -0.8474   -1.5035    0.0000 C   0  0  0  0  0  0  0  0  0  0  0  0
   -2.1300   -0.7256    0.0000 C   0  0  0  0  0  0  0  0  0  0  0  0
  2  1  1  6
  2  3  1  0
  3  4  1  0
  4  5  1  0
  5  6  2  0
  5  7  1  0
  2  8  1  0
  8  9  1  6
  9 10  1  0
 11 10  1  6
 11 12  1  0
 12 13  1  1
 13 14  1  0
 15 14  1  1
 15 16  1  0
 16 17  1  0
 17 18  1  1
 17 19  1  0
 19 20  1  0
 20 21  1  0
 21 22  1  6
 21 23  1  0
 23 24  1  6
 24 25  1  0
 25 26  1  1
 26 27  1  0
 27 28  2  0
 27 29  2  0
 27 30  1  0
 25 31  1  0
 31 32  1  6
 31  8  1  0
 31 11  1  0
 23 12  1  0
 21 15  1  0
M  END
>  <MS_ID>  (37) 
MS0038

>  <SMILES>  (37) 
C[C@H](CCC(=O)O)[C@H]1CC[C@H]2[C@@H]3CC[C@@H]4C[C@H](O)CC[C@]4(C)[C@H]3C[C@H](OS(=O)(=O)O)[C@]12C

>  <Structure_dimension>  (37) 
2D

$$$$
MS0039
     RDKit          2D

 29 32  0  0  0  0  0  0  0  0999 V2000
    5.2401    2.0328    0.0000 C   0  0  0  0  0  0  0  0  0  0  0  0
    4.0410    1.1316    0.0000 C   0  0  0  0  0  0  0  0  0  0  0  0
    4.2220   -0.3575    0.0000 C   0  0  0  0  0  0  0  0  0  0  0  0
    5.6020   -0.9453    0.0000 C   0  0  0  0  0  0  0  0  0  0  0  0
    5.7830   -2.4343    0.0000 C   0  0  0  0  0  0  0  0  0  0  0  0
    4.5839   -3.3355    0.0000 O   0  0  0  0  0  0  0  0  0  0  0  0
    7.1630   -3.0221    0.0000 O   0  0  0  0  0  0  0  0  0  0  0  0
    2.6610    1.7194    0.0000 C   0  0  0  0  0  0  0  0  0  0  0  0
    2.3254    3.1813    0.0000 C   0  0  0  0  0  0  0  0  0  0  0  0
    0.8312    3.3139    0.0000 C   0  0  0  0  0  0  0  0  0  0  0  0
    0.2434    1.9339    0.0000 C   0  0  0  0  0  0  0  0  0  0  0  0
   -1.1754    1.4473    0.0000 C   0  0  0  0  0  0  0  0  0  0  0  0
   -2.3063    2.4327    0.0000 C   0  0  0  0  0  0  0  0  0  0  0  0
   -2.0183    3.9048    0.0000 O   0  0  0  0  0  0  0  0  0  0  0  0
   -3.7252    1.9461    0.0000 C   0  0  0  0  0  0  0  0  0  0  0  0
   -4.0132    0.4740    0.0000 C   0  0  0  0  0  0  0  0  0  0  0  0
   -5.4321   -0.0126    0.0000 C   0  0  0  0  0  0  0  0  0  0  0  0
   -5.7201   -1.4846    0.0000 C   0  0  0  0  0  0  0  0  0  0  0  0
   -7.1390   -1.9713    0.0000 O   0  0  0  0  0  0  0  0  0  0  0  0
   -4.5892   -2.4701    0.0000 C   0  0  0  0  0  0  0  0  0  0  0  0
   -3.1704   -1.9835    0.0000 C   0  0  0  0  0  0  0  0  0  0  0  0
   -2.0395   -2.9690    0.0000 O   0  0  0  0  0  0  0  0  0  0  0  0
   -2.8823   -0.5114    0.0000 C   0  0  0  0  0  0  0  0  0  0  0  0
   -1.7515   -1.4969    0.0000 C   0  0  0  0  0  0  0  0  0  0  0  0
   -1.4635   -0.0248    0.0000 C   0  0  0  0  0  0  0  0  0  0  0  0
   -0.3326   -1.0103    0.0000 C   0  0  0  0  0  0  0  0  0  0  0  0
    1.0863   -0.5237    0.0000 C   0  0  0  0  0  0  0  0  0  0  0  0
    1.3743    0.9484    0.0000 C   0  0  0  0  0  0  0  0  0  0  0  0
    2.6020    0.0865    0.0000 C   0  0  0  0  0  0  0  0  0  0  0  0
  2  1  1  6
  2  3  1  0
  3  4  1  0
  4  5  1  0
  5  6  2  0
  5  7  1  0
  2  8  1  0
  8  9  1  6
  9 10  1  0
 11 10  1  6
 11 12  1  0
 12 13  1  1
 13 14  1  1
 13 15  1  0
 16 15  1  1
 16 17  1  0
 17 18  1  0
 18 19  1  1
 18 20  1  0
 20 21  1  0
 21 22  1  1
 21 23  1  0
 23 24  1  6
 23 25  1  0
 25 26  1  6
 26 27  1  0
 27 28  1  0
 28 29  1  6
 28  8  1  0
 28 11  1  0
 25 12  1  0
 23 16  1  0
M  END
>  <MS_ID>  (38) 
MS0039

>  <SMILES>  (38) 
C[C@H](CCC(=O)O)[C@H]1CC[C@H]2[C@@H]3[C@H](O)C[C@@H]4C[C@H](O)C[C@H](O)[C@]4(C)[C@H]3CC[C@]12C

>  <Structure_dimension>  (38) 
2D

$$$$
MS0040
     RDKit          2D

 31 34  0  0  0  0  0  0  0  0999 V2000
   -5.7175   -1.8176    0.0000 C   0  0  0  0  0  0  0  0  0  0  0  0
   -4.4708   -0.9835    0.0000 C   0  0  0  0  0  0  0  0  0  0  0  0
   -4.5698    0.5132    0.0000 C   0  0  0  0  0  0  0  0  0  0  0  0
   -5.9155    1.1758    0.0000 C   0  0  0  0  0  0  0  0  0  0  0  0
   -6.0145    2.6726    0.0000 C   0  0  0  0  0  0  0  0  0  0  0  0
   -4.7678    3.5067    0.0000 O   0  0  0  0  0  0  0  0  0  0  0  0
   -7.3602    3.3352    0.0000 O   0  0  0  0  0  0  0  0  0  0  0  0
   -3.1251   -1.6462    0.0000 C   0  0  0  0  0  0  0  0  0  0  0  0
   -2.8701   -3.1243    0.0000 C   0  0  0  0  0  0  0  0  0  0  0  0
   -1.3855   -3.3387    0.0000 C   0  0  0  0  0  0  0  0  0  0  0  0
   -0.7229   -1.9930    0.0000 C   0  0  0  0  0  0  0  0  0  0  0  0
    0.7205   -1.5850    0.0000 C   0  0  0  0  0  0  0  0  0  0  0  0
    1.7956   -2.6310    0.0000 C   0  0  0  0  0  0  0  0  0  0  0  0
    1.4272   -4.0851    0.0000 O   0  0  0  0  0  0  0  0  0  0  0  0
    3.2390   -2.2230    0.0000 C   0  0  0  0  0  0  0  0  0  0  0  0
    3.6074   -0.7689    0.0000 C   0  0  0  0  0  0  0  0  0  0  0  0
    5.0508   -0.3609    0.0000 C   0  0  0  0  0  0  0  0  0  0  0  0
    5.4192    1.0932    0.0000 C   0  0  0  0  0  0  0  0  0  0  0  0
    6.8626    1.5012    0.0000 C   0  0  0  0  0  0  0  0  0  0  0  0
    7.2310    2.9552    0.0000 O   0  0  0  0  0  0  0  0  0  0  0  0
    7.9377    0.4551    0.0000 O   0  0  0  0  0  0  0  0  0  0  0  0
    4.3441    2.1392    0.0000 C   0  0  0  0  0  0  0  0  0  0  0  0
    2.9007    1.7312    0.0000 C   0  0  0  0  0  0  0  0  0  0  0  0
    2.5323    0.2771    0.0000 C   0  0  0  0  0  0  0  0  0  0  0  0
    1.4572    1.3232    0.0000 C   0  0  0  0  0  0  0  0  0  0  0  0
    1.0889   -0.1309    0.0000 C   0  0  0  0  0  0  0  0  0  0  0  0
    0.0138    0.9151    0.0000 C   0  0  0  0  0  0  0  0  0  0  0  0
   -1.4296    0.5071    0.0000 C   0  0  0  0  0  0  0  0  0  0  0  0
   -2.5047    1.5532    0.0000 O   0  0  0  0  0  0  0  0  0  0  0  0
   -1.7980   -0.9470    0.0000 C   0  0  0  0  0  0  0  0  0  0  0  0
   -2.9765   -0.0190    0.0000 C   0  0  0  0  0  0  0  0  0  0  0  0
  2  1  1  6
  2  3  1  0
  3  4  1  0
  4  5  1  0
  5  6  2  0
  5  7  1  0
  2  8  1  0
  8  9  1  6
  9 10  1  0
 11 10  1  6
 11 12  1  0
 12 13  1  1
 13 14  1  1
 13 15  1  0
 16 15  1  1
 16 17  1  0
 17 18  1  0
 18 19  1  1
 19 20  2  0
 19 21  1  0
 18 22  1  0
 22 23  1  0
 23 24  1  0
 24 25  1  6
 24 26  1  0
 26 27  1  6
 27 28  1  0
 28 29  1  1
 28 30  1  0
 30 31  1  6
 30  8  1  0
 30 11  1  0
 26 12  1  0
 24 16  1  0
M  END
>  <MS_ID>  (39) 
MS0040

>  <SMILES>  (39) 
C[C@H](CCC(=O)O)[C@H]1CC[C@H]2[C@@H]3[C@H](O)C[C@@H]4C[C@H](C(=O)O)CC[C@]4(C)[C@H]3C[C@H](O)[C@]12C

>  <Structure_dimension>  (39) 
2D

$$$$
MS0041
     RDKit          2D

 32 35  0  0  0  0  0  0  0  0999 V2000
   -9.0946    1.0175    0.0000 C   0  0  0  0  0  0  0  0  0  0  0  0
   -7.6382    0.6585    0.0000 O   0  0  0  0  0  0  0  0  0  0  0  0
   -6.5991    1.7404    0.0000 N   0  0  0  0  0  0  0  0  0  0  0  0
   -7.0165    3.1811    0.0000 C   0  0  0  0  0  0  0  0  0  0  0  0
   -5.1427    1.3814    0.0000 C   0  0  0  0  0  0  0  0  0  0  0  0
   -4.1036    2.4632    0.0000 O   0  0  0  0  0  0  0  0  0  0  0  0
   -4.7254   -0.0593    0.0000 C   0  0  0  0  0  0  0  0  0  0  0  0
   -3.2689   -0.4183    0.0000 C   0  0  0  0  0  0  0  0  0  0  0  0
   -2.8516   -1.8591    0.0000 C   0  0  0  0  0  0  0  0  0  0  0  0
   -3.8907   -2.9409    0.0000 C   0  0  0  0  0  0  0  0  0  0  0  0
   -1.3952   -2.2180    0.0000 C   0  0  0  0  0  0  0  0  0  0  0  0
   -0.8295   -3.6073    0.0000 C   0  0  0  0  0  0  0  0  0  0  0  0
    0.6666   -3.4986    0.0000 C   0  0  0  0  0  0  0  0  0  0  0  0
    1.0255   -2.0422    0.0000 C   0  0  0  0  0  0  0  0  0  0  0  0
    2.3480   -1.3344    0.0000 C   0  0  0  0  0  0  0  0  0  0  0  0
    3.6222   -2.1258    0.0000 C   0  0  0  0  0  0  0  0  0  0  0  0
    3.5739   -3.6250    0.0000 O   0  0  0  0  0  0  0  0  0  0  0  0
    4.9447   -1.4180    0.0000 C   0  0  0  0  0  0  0  0  0  0  0  0
    4.9930    0.0812    0.0000 C   0  0  0  0  0  0  0  0  0  0  0  0
    6.3156    0.7890    0.0000 C   0  0  0  0  0  0  0  0  0  0  0  0
    6.3639    2.2882    0.0000 C   0  0  0  0  0  0  0  0  0  0  0  0
    7.6864    2.9960    0.0000 O   0  0  0  0  0  0  0  0  0  0  0  0
    5.0896    3.0796    0.0000 C   0  0  0  0  0  0  0  0  0  0  0  0
    3.7671    2.3719    0.0000 C   0  0  0  0  0  0  0  0  0  0  0  0
    3.7188    0.8726    0.0000 C   0  0  0  0  0  0  0  0  0  0  0  0
    2.4446    1.6641    0.0000 C   0  0  0  0  0  0  0  0  0  0  0  0
    2.3963    0.1648    0.0000 C   0  0  0  0  0  0  0  0  0  0  0  0
    1.1221    0.9563    0.0000 C   0  0  0  0  0  0  0  0  0  0  0  0
   -0.2004    0.2485    0.0000 C   0  0  0  0  0  0  0  0  0  0  0  0
   -1.4746    1.0399    0.0000 O   0  0  0  0  0  0  0  0  0  0  0  0
   -0.2487   -1.2507    0.0000 C   0  0  0  0  0  0  0  0  0  0  0  0
   -1.5987   -0.5968    0.0000 C   0  0  0  0  0  0  0  0  0  0  0  0
  1  2  1  0
  2  3  1  0
  3  4  1  0
  3  5  1  0
  5  6  2  0
  5  7  1  0
  7  8  1  0
  8  9  1  0
  9 10  1  6
  9 11  1  0
 11 12  1  6
 12 13  1  0
 14 13  1  6
 14 15  1  0
 15 16  1  1
 16 17  1  1
 16 18  1  0
 19 18  1  1
 19 20  1  0
 20 21  1  0
 21 22  1  1
 21 23  1  0
 23 24  1  0
 24 25  1  0
 25 26  1  6
 25 27  1  0
 27 28  1  6
 28 29  1  0
 29 30  1  1
 29 31  1  0
 31 32  1  6
 31 11  1  0
 31 14  1  0
 27 15  1  0
 25 19  1  0
M  END
>  <MS_ID>  (40) 
MS0041

>  <SMILES>  (40) 
CON(C)C(=O)CC[C@@H](C)[C@H]1CC[C@H]2[C@@H]3[C@H](O)C[C@@H]4C[C@H](O)CC[C@]4(C)[C@H]3C[C@H](O)[C@]12C

>  <Structure_dimension>  (40) 
2D

$$$$
MS0042
     RDKit          2D

 40 44  0  0  0  0  0  0  0  0999 V2000
   -0.3949   -4.8482    0.0000 C   0  0  0  0  0  0  0  0  0  0  0  0
    0.1321   -3.4438    0.0000 C   0  0  0  0  0  0  0  0  0  0  0  0
   -0.8207   -2.2852    0.0000 C   0  0  0  0  0  0  0  0  0  0  0  0
   -2.3004   -2.5311    0.0000 C   0  0  0  0  0  0  0  0  0  0  0  0
   -3.2532   -1.3725    0.0000 C   0  0  0  0  0  0  0  0  0  0  0  0
   -2.7262    0.0319    0.0000 O   0  0  0  0  0  0  0  0  0  0  0  0
   -4.7329   -1.6183    0.0000 N   0  0  0  0  0  0  0  0  0  0  0  0
   -5.6856   -0.4597    0.0000 C   0  0  0  0  0  0  0  0  0  0  0  0
   -7.1653   -0.7056    0.0000 C   0  0  0  0  0  0  0  0  0  0  0  0
   -8.1181    0.4530    0.0000 C   0  0  0  0  0  0  0  0  0  0  0  0
   -7.5911    1.8574    0.0000 C   0  0  0  0  0  0  0  0  0  0  0  0
   -8.5439    3.0160    0.0000 C   0  0  0  0  0  0  0  0  0  0  0  0
  -10.0236    2.7701    0.0000 C   0  0  0  0  0  0  0  0  0  0  0  0
  -10.5506    1.3657    0.0000 C   0  0  0  0  0  0  0  0  0  0  0  0
   -9.5978    0.2072    0.0000 C   0  0  0  0  0  0  0  0  0  0  0  0
   -5.1586    0.9446    0.0000 C   0  0  0  0  0  0  0  0  0  0  0  0
   -3.6789    1.1905    0.0000 O   0  0  0  0  0  0  0  0  0  0  0  0
   -6.1114    2.1032    0.0000 O   0  0  0  0  0  0  0  0  0  0  0  0
    1.6118   -3.1980    0.0000 C   0  0  0  0  0  0  0  0  0  0  0  0
    2.6804   -4.2506    0.0000 C   0  0  0  0  0  0  0  0  0  0  0  0
    4.0117   -3.5596    0.0000 C   0  0  0  0  0  0  0  0  0  0  0  0
    3.7659   -2.0798    0.0000 C   0  0  0  0  0  0  0  0  0  0  0  0
    4.7011   -0.9070    0.0000 C   0  0  0  0  0  0  0  0  0  0  0  0
    6.1843   -1.1305    0.0000 C   0  0  0  0  0  0  0  0  0  0  0  0
    6.7324   -2.5268    0.0000 O   0  0  0  0  0  0  0  0  0  0  0  0
    7.1195    0.0423    0.0000 C   0  0  0  0  0  0  0  0  0  0  0  0
    6.5714    1.4386    0.0000 C   0  0  0  0  0  0  0  0  0  0  0  0
    7.5066    2.6114    0.0000 C   0  0  0  0  0  0  0  0  0  0  0  0
    6.9585    4.0077    0.0000 C   0  0  0  0  0  0  0  0  0  0  0  0
    7.8936    5.1805    0.0000 O   0  0  0  0  0  0  0  0  0  0  0  0
    5.4752    4.2311    0.0000 C   0  0  0  0  0  0  0  0  0  0  0  0
    4.5400    3.0583    0.0000 C   0  0  0  0  0  0  0  0  0  0  0  0
    5.0881    1.6620    0.0000 C   0  0  0  0  0  0  0  0  0  0  0  0
    3.6049    1.8855    0.0000 C   0  0  0  0  0  0  0  0  0  0  0  0
    4.1530    0.4892    0.0000 C   0  0  0  0  0  0  0  0  0  0  0  0
    2.6697    0.7127    0.0000 C   0  0  0  0  0  0  0  0  0  0  0  0
    1.7346   -0.4601    0.0000 C   0  0  0  0  0  0  0  0  0  0  0  0
    0.2513   -0.2366    0.0000 O   0  0  0  0  0  0  0  0  0  0  0  0
    2.2827   -1.8564    0.0000 C   0  0  0  0  0  0  0  0  0  0  0  0
    0.7842   -1.7892    0.0000 C   0  0  0  0  0  0  0  0  0  0  0  0
  2  1  1  6
  2  3  1  0
  3  4  1  0
  4  5  1  0
  5  6  2  0
  5  7  1  0
  7  8  1  0
  8  9  1  0
  9 10  1  0
 10 11  2  0
 11 12  1  0
 12 13  2  0
 13 14  1  0
 14 15  2  0
  8 16  1  0
 16 17  2  0
 16 18  1  0
  2 19  1  0
 19 20  1  6
 20 21  1  0
 22 21  1  6
 22 23  1  0
 23 24  1  1
 24 25  1  1
 24 26  1  0
 27 26  1  1
 27 28  1  0
 28 29  1  0
 29 30  1  1
 29 31  1  0
 31 32  1  0
 32 33  1  0
 33 34  1  6
 33 35  1  0
 35 36  1  6
 36 37  1  0
 37 38  1  1
 37 39  1  0
 39 40  1  6
 15 10  1  0
 39 19  1  0
 39 22  1  0
 35 23  1  0
 33 27  1  0
M  END
>  <MS_ID>  (41) 
MS0042

>  <SMILES>  (41) 
C[C@H](CCC(=O)NC(Cc1ccccc1)C(=O)O)[C@H]1CC[C@H]2[C@@H]3[C@H](O)C[C@@H]4C[C@H](O)CC[C@]4(C)[C@H]3C[C@H](O)[C@]12C

>  <Structure_dimension>  (41) 
2D

$$$$
MS0043
     RDKit          2D

 29 32  0  0  0  0  0  0  0  0999 V2000
   -7.4712    3.6525    0.0000 C   0  0  0  0  0  0  0  0  0  0  0  0
   -7.1264    2.1927    0.0000 O   0  0  0  0  0  0  0  0  0  0  0  0
   -5.6897    1.7615    0.0000 C   0  0  0  0  0  0  0  0  0  0  0  0
   -4.5979    2.7900    0.0000 O   0  0  0  0  0  0  0  0  0  0  0  0
   -5.3448    0.3016    0.0000 C   0  0  0  0  0  0  0  0  0  0  0  0
   -3.9081   -0.1296    0.0000 C   0  0  0  0  0  0  0  0  0  0  0  0
   -3.5633   -1.5894    0.0000 C   0  0  0  0  0  0  0  0  0  0  0  0
   -4.6551   -2.6180    0.0000 C   0  0  0  0  0  0  0  0  0  0  0  0
   -2.1266   -2.0207    0.0000 C   0  0  0  0  0  0  0  0  0  0  0  0
   -1.6310   -3.4364    0.0000 C   0  0  0  0  0  0  0  0  0  0  0  0
   -0.1314   -3.4026    0.0000 C   0  0  0  0  0  0  0  0  0  0  0  0
    0.2998   -1.9659    0.0000 C   0  0  0  0  0  0  0  0  0  0  0  0
    1.6561   -1.3251    0.0000 C   0  0  0  0  0  0  0  0  0  0  0  0
    2.8892   -2.1792    0.0000 C   0  0  0  0  0  0  0  0  0  0  0  0
    2.7660   -3.6741    0.0000 O   0  0  0  0  0  0  0  0  0  0  0  0
    4.2454   -1.5383    0.0000 C   0  0  0  0  0  0  0  0  0  0  0  0
    4.3685   -0.0434    0.0000 C   0  0  0  0  0  0  0  0  0  0  0  0
    5.7247    0.5975    0.0000 C   0  0  0  0  0  0  0  0  0  0  0  0
    5.8478    2.0924    0.0000 C   0  0  0  0  0  0  0  0  0  0  0  0
    7.2040    2.7332    0.0000 O   0  0  0  0  0  0  0  0  0  0  0  0
    4.6147    2.9465    0.0000 C   0  0  0  0  0  0  0  0  0  0  0  0
    3.2585    2.3056    0.0000 C   0  0  0  0  0  0  0  0  0  0  0  0
    3.1354    0.8107    0.0000 C   0  0  0  0  0  0  0  0  0  0  0  0
    1.9023    1.6648    0.0000 C   0  0  0  0  0  0  0  0  0  0  0  0
    1.7792    0.1699    0.0000 C   0  0  0  0  0  0  0  0  0  0  0  0
    0.5461    1.0239    0.0000 C   0  0  0  0  0  0  0  0  0  0  0  0
   -0.8101    0.3831    0.0000 C   0  0  0  0  0  0  0  0  0  0  0  0
   -0.9333   -1.1118    0.0000 C   0  0  0  0  0  0  0  0  0  0  0  0
   -2.2489   -0.3913    0.0000 C   0  0  0  0  0  0  0  0  0  0  0  0
  1  2  1  0
  2  3  1  0
  3  4  2  0
  3  5  1  0
  5  6  1  0
  6  7  1  0
  7  8  1  6
  7  9  1  0
  9 10  1  6
 10 11  1  0
 12 11  1  6
 12 13  1  0
 13 14  1  1
 14 15  1  1
 14 16  1  0
 17 16  1  1
 17 18  1  0
 18 19  1  0
 19 20  1  1
 19 21  1  0
 21 22  1  0
 22 23  1  0
 23 24  1  6
 23 25  1  0
 25 26  1  6
 26 27  1  0
 27 28  1  0
 28 29  1  6
 28  9  1  0
 28 12  1  0
 25 13  1  0
 23 17  1  0
M  END
>  <MS_ID>  (42) 
MS0043

>  <SMILES>  (42) 
COC(=O)CC[C@@H](C)[C@H]1CC[C@H]2[C@@H]3[C@H](O)C[C@@H]4C[C@H](O)CC[C@]4(C)[C@H]3CC[C@]12C

>  <Structure_dimension>  (42) 
2D

$$$$
MS0044
     RDKit          2D

 33 36  0  0  0  0  0  0  0  0999 V2000
   -3.6067   -3.7883    0.0000 C   0  0  0  0  0  0  0  0  0  0  0  0
   -2.7102   -2.5857    0.0000 C   0  0  0  0  0  0  0  0  0  0  0  0
   -3.3034   -1.2080    0.0000 C   0  0  0  0  0  0  0  0  0  0  0  0
   -4.7932   -1.0329    0.0000 C   0  0  0  0  0  0  0  0  0  0  0  0
   -5.3864    0.3448    0.0000 C   0  0  0  0  0  0  0  0  0  0  0  0
   -6.8761    0.5199    0.0000 O   0  0  0  0  0  0  0  0  0  0  0  0
   -4.4899    1.5474    0.0000 O   0  0  0  0  0  0  0  0  0  0  0  0
   -5.0831    2.9251    0.0000 S   0  0  0  0  0  0  0  0  0  0  0  0
   -6.4608    2.3319    0.0000 O   0  0  0  0  0  0  0  0  0  0  0  0
   -3.7054    3.5183    0.0000 O   0  0  0  0  0  0  0  0  0  0  0  0
   -5.6763    4.3028    0.0000 O   0  0  0  0  0  0  0  0  0  0  0  0
   -1.2204   -2.7608    0.0000 C   0  0  0  0  0  0  0  0  0  0  0  0
   -0.4864   -4.0690    0.0000 C   0  0  0  0  0  0  0  0  0  0  0  0
    0.9845   -3.7752    0.0000 C   0  0  0  0  0  0  0  0  0  0  0  0
    1.1596   -2.2854    0.0000 C   0  0  0  0  0  0  0  0  0  0  0  0
    2.3839   -1.4187    0.0000 C   0  0  0  0  0  0  0  0  0  0  0  0
    3.7466   -2.0456    0.0000 C   0  0  0  0  0  0  0  0  0  0  0  0
    3.8850   -3.5392    0.0000 O   0  0  0  0  0  0  0  0  0  0  0  0
    4.9708   -1.1789    0.0000 C   0  0  0  0  0  0  0  0  0  0  0  0
    4.8324    0.3147    0.0000 C   0  0  0  0  0  0  0  0  0  0  0  0
    6.0566    1.1814    0.0000 C   0  0  0  0  0  0  0  0  0  0  0  0
    5.9182    2.6750    0.0000 C   0  0  0  0  0  0  0  0  0  0  0  0
    7.1424    3.5417    0.0000 O   0  0  0  0  0  0  0  0  0  0  0  0
    4.5555    3.3019    0.0000 C   0  0  0  0  0  0  0  0  0  0  0  0
    3.3312    2.4352    0.0000 C   0  0  0  0  0  0  0  0  0  0  0  0
    3.4697    0.9416    0.0000 C   0  0  0  0  0  0  0  0  0  0  0  0
    2.1069    1.5685    0.0000 C   0  0  0  0  0  0  0  0  0  0  0  0
    2.2454    0.0749    0.0000 C   0  0  0  0  0  0  0  0  0  0  0  0
    0.8827    0.7018    0.0000 C   0  0  0  0  0  0  0  0  0  0  0  0
   -0.3416   -0.1649    0.0000 C   0  0  0  0  0  0  0  0  0  0  0  0
   -1.7043    0.4620    0.0000 O   0  0  0  0  0  0  0  0  0  0  0  0
   -0.2031   -1.6585    0.0000 C   0  0  0  0  0  0  0  0  0  0  0  0
   -1.6239   -1.1775    0.0000 C   0  0  0  0  0  0  0  0  0  0  0  0
  2  1  1  6
  2  3  1  0
  3  4  1  0
  4  5  1  0
  5  6  2  0
  5  7  1  0
  7  8  1  0
  8  9  2  0
  8 10  2  0
  8 11  1  0
  2 12  1  0
 12 13  1  6
 13 14  1  0
 15 14  1  6
 15 16  1  0
 16 17  1  1
 17 18  1  1
 17 19  1  0
 20 19  1  1
 20 21  1  0
 21 22  1  0
 22 23  1  1
 22 24  1  0
 24 25  1  0
 25 26  1  0
 26 27  1  6
 26 28  1  0
 28 29  1  6
 29 30  1  0
 30 31  1  1
 30 32  1  0
 32 33  1  6
 32 12  1  0
 32 15  1  0
 28 16  1  0
 26 20  1  0
M  END
>  <MS_ID>  (43) 
MS0044

>  <SMILES>  (43) 
C[C@H](CCC(=O)OS(=O)(=O)O)[C@H]1CC[C@H]2[C@@H]3[C@H](O)C[C@@H]4C[C@H](O)CC[C@]4(C)[C@H]3C[C@H](O)[C@]12C

>  <Structure_dimension>  (43) 
2D

$$$$
MS0045
     RDKit          2D

 32 35  0  0  0  0  0  0  0  0999 V2000
   -3.6519   -3.4889    0.0000 C   0  0  0  0  0  0  0  0  0  0  0  0
   -2.7185   -2.3147    0.0000 C   0  0  0  0  0  0  0  0  0  0  0  0
   -3.2687   -0.9192    0.0000 C   0  0  0  0  0  0  0  0  0  0  0  0
   -4.7523   -0.6980    0.0000 C   0  0  0  0  0  0  0  0  0  0  0  0
   -5.3024    0.6975    0.0000 C   0  0  0  0  0  0  0  0  0  0  0  0
   -4.3690    1.8717    0.0000 O   0  0  0  0  0  0  0  0  0  0  0  0
   -6.7860    0.9188    0.0000 C   0  0  0  0  0  0  0  0  0  0  0  0
   -7.3362    2.3142    0.0000 C   0  0  0  0  0  0  0  0  0  0  0  0
   -6.4028    3.4884    0.0000 O   0  0  0  0  0  0  0  0  0  0  0  0
   -8.8198    2.5355    0.0000 O   0  0  0  0  0  0  0  0  0  0  0  0
   -1.2349   -2.5360    0.0000 C   0  0  0  0  0  0  0  0  0  0  0  0
   -0.5419   -3.8663    0.0000 C   0  0  0  0  0  0  0  0  0  0  0  0
    0.9375   -3.6183    0.0000 C   0  0  0  0  0  0  0  0  0  0  0  0
    1.1587   -2.1347    0.0000 C   0  0  0  0  0  0  0  0  0  0  0  0
    2.4093   -1.3064    0.0000 C   0  0  0  0  0  0  0  0  0  0  0  0
    3.7519   -1.9753    0.0000 C   0  0  0  0  0  0  0  0  0  0  0  0
    3.8439   -3.4725    0.0000 O   0  0  0  0  0  0  0  0  0  0  0  0
    5.0025   -1.1470    0.0000 C   0  0  0  0  0  0  0  0  0  0  0  0
    4.9105    0.3502    0.0000 C   0  0  0  0  0  0  0  0  0  0  0  0
    6.1611    1.1784    0.0000 C   0  0  0  0  0  0  0  0  0  0  0  0
    6.0690    2.6756    0.0000 C   0  0  0  0  0  0  0  0  0  0  0  0
    7.3196    3.5039    0.0000 O   0  0  0  0  0  0  0  0  0  0  0  0
    4.7264    3.3445    0.0000 C   0  0  0  0  0  0  0  0  0  0  0  0
    3.4759    2.5162    0.0000 C   0  0  0  0  0  0  0  0  0  0  0  0
    3.5679    1.0191    0.0000 C   0  0  0  0  0  0  0  0  0  0  0  0
    2.2253    1.6879    0.0000 C   0  0  0  0  0  0  0  0  0  0  0  0
    2.3173    0.1908    0.0000 C   0  0  0  0  0  0  0  0  0  0  0  0
    0.9747    0.8597    0.0000 C   0  0  0  0  0  0  0  0  0  0  0  0
   -0.2759    0.0314    0.0000 C   0  0  0  0  0  0  0  0  0  0  0  0
   -1.6185    0.7003    0.0000 O   0  0  0  0  0  0  0  0  0  0  0  0
   -0.1839   -1.4658    0.0000 C   0  0  0  0  0  0  0  0  0  0  0  0
   -1.5890   -0.9409    0.0000 C   0  0  0  0  0  0  0  0  0  0  0  0
  2  1  1  6
  2  3  1  0
  3  4  1  0
  4  5  1  0
  5  6  2  0
  5  7  1  0
  7  8  1  0
  8  9  2  0
  8 10  1  0
  2 11  1  0
 11 12  1  6
 12 13  1  0
 14 13  1  6
 14 15  1  0
 15 16  1  1
 16 17  1  6
 16 18  1  0
 19 18  1  1
 19 20  1  0
 20 21  1  0
 21 22  1  1
 21 23  1  0
 23 24  1  0
 24 25  1  0
 25 26  1  6
 25 27  1  0
 27 28  1  6
 28 29  1  0
 29 30  1  1
 29 31  1  0
 31 32  1  6
 31 11  1  0
 31 14  1  0
 27 15  1  0
 25 19  1  0
M  END
>  <MS_ID>  (44) 
MS0045

>  <SMILES>  (44) 
C[C@H](CCC(=O)CC(=O)O)[C@H]1CC[C@H]2[C@@H]3[C@@H](O)C[C@@H]4C[C@H](O)CC[C@]4(C)[C@H]3C[C@H](O)[C@]12C

>  <Structure_dimension>  (44) 
2D

$$$$
MS0046
     RDKit          2D

 35 38  0  0  0  0  0  0  0  0999 V2000
   -2.0200   -4.3028    0.0000 C   0  0  0  0  0  0  0  0  0  0  0  0
   -1.3087   -2.9822    0.0000 C   0  0  0  0  0  0  0  0  0  0  0  0
   -2.0967   -1.7059    0.0000 C   0  0  0  0  0  0  0  0  0  0  0  0
   -3.5960   -1.7502    0.0000 C   0  0  0  0  0  0  0  0  0  0  0  0
   -4.3840   -0.4738    0.0000 C   0  0  0  0  0  0  0  0  0  0  0  0
   -3.6727    0.8468    0.0000 O   0  0  0  0  0  0  0  0  0  0  0  0
   -5.8834   -0.5181    0.0000 N   0  0  0  0  0  0  0  0  0  0  0  0
   -6.6714    0.7582    0.0000 C   0  0  0  0  0  0  0  0  0  0  0  0
   -8.1707    0.7140    0.0000 C   0  0  0  0  0  0  0  0  0  0  0  0
   -8.9588    1.9903    0.0000 S   0  0  0  0  0  0  0  0  0  0  0  0
  -10.2351    1.2023    0.0000 O   0  0  0  0  0  0  0  0  0  0  0  0
   -7.6824    2.7783    0.0000 O   0  0  0  0  0  0  0  0  0  0  0  0
   -9.7468    3.2667    0.0000 O   0  0  0  0  0  0  0  0  0  0  0  0
    0.1907   -2.9379    0.0000 C   0  0  0  0  0  0  0  0  0  0  0  0
    1.1078   -4.1249    0.0000 C   0  0  0  0  0  0  0  0  0  0  0  0
    2.5201   -3.6195    0.0000 C   0  0  0  0  0  0  0  0  0  0  0  0
    2.4758   -2.1201    0.0000 C   0  0  0  0  0  0  0  0  0  0  0  0
    3.5604   -1.0840    0.0000 C   0  0  0  0  0  0  0  0  0  0  0  0
    5.0001   -1.5052    0.0000 C   0  0  0  0  0  0  0  0  0  0  0  0
    5.3551   -2.9626    0.0000 O   0  0  0  0  0  0  0  0  0  0  0  0
    6.0847   -0.4691    0.0000 C   0  0  0  0  0  0  0  0  0  0  0  0
    5.7296    0.9883    0.0000 C   0  0  0  0  0  0  0  0  0  0  0  0
    6.8142    2.0245    0.0000 C   0  0  0  0  0  0  0  0  0  0  0  0
    6.4592    3.4819    0.0000 C   0  0  0  0  0  0  0  0  0  0  0  0
    7.5438    4.5180    0.0000 O   0  0  0  0  0  0  0  0  0  0  0  0
    5.0196    3.9031    0.0000 C   0  0  0  0  0  0  0  0  0  0  0  0
    3.9350    2.8669    0.0000 C   0  0  0  0  0  0  0  0  0  0  0  0
    4.2900    1.4095    0.0000 C   0  0  0  0  0  0  0  0  0  0  0  0
    2.8503    1.8308    0.0000 C   0  0  0  0  0  0  0  0  0  0  0  0
    3.2054    0.3734    0.0000 C   0  0  0  0  0  0  0  0  0  0  0  0
    1.7657    0.7946    0.0000 C   0  0  0  0  0  0  0  0  0  0  0  0
    0.6811   -0.2416    0.0000 C   0  0  0  0  0  0  0  0  0  0  0  0
   -0.7585    0.1797    0.0000 O   0  0  0  0  0  0  0  0  0  0  0  0
    1.0362   -1.6989    0.0000 C   0  0  0  0  0  0  0  0  0  0  0  0
   -0.4396   -1.4305    0.0000 C   0  0  0  0  0  0  0  0  0  0  0  0
  2  1  1  1
  2  3  1  0
  3  4  1  0
  4  5  1  0
  5  6  2  0
  5  7  1  0
  7  8  1  0
  8  9  1  0
  9 10  1  0
 10 11  2  0
 10 12  2  0
 10 13  1  0
  2 14  1  0
 14 15  1  6
 15 16  1  0
 17 16  1  6
 17 18  1  0
 18 19  1  1
 19 20  1  1
 19 21  1  0
 22 21  1  6
 22 23  1  0
 23 24  1  0
 24 25  1  1
 24 26  1  0
 26 27  1  0
 27 28  1  0
 28 29  1  6
 28 30  1  0
 30 31  1  6
 31 32  1  0
 32 33  1  1
 32 34  1  0
 34 35  1  6
 34 14  1  0
 34 17  1  0
 30 18  1  0
 28 22  1  0
M  END
>  <MS_ID>  (45) 
MS0046

>  <SMILES>  (45) 
C[C@@H](CCC(=O)NCCS(=O)(=O)O)[C@H]1CC[C@H]2[C@@H]3[C@H](O)C[C@H]4C[C@H](O)CC[C@]4(C)[C@H]3C[C@H](O)[C@]12C

>  <Structure_dimension>  (45) 
2D

$$$$
MS0047
     RDKit          2D

 32 35  0  0  0  0  0  0  0  0999 V2000
   -6.1853   -1.9897    0.0000 C   0  0  0  0  0  0  0  0  0  0  0  0
   -4.9559   -1.1303    0.0000 C   0  0  0  0  0  0  0  0  0  0  0  0
   -5.0854    0.3641    0.0000 C   0  0  0  0  0  0  0  0  0  0  0  0
   -6.4444    0.9991    0.0000 C   0  0  0  0  0  0  0  0  0  0  0  0
   -6.5740    2.4935    0.0000 C   0  0  0  0  0  0  0  0  0  0  0  0
   -5.3445    3.3529    0.0000 O   0  0  0  0  0  0  0  0  0  0  0  0
   -7.9329    3.1285    0.0000 O   0  0  0  0  0  0  0  0  0  0  0  0
   -3.5969   -1.7653    0.0000 C   0  0  0  0  0  0  0  0  0  0  0  0
   -3.3119   -3.2380    0.0000 C   0  0  0  0  0  0  0  0  0  0  0  0
   -1.8232   -3.4219    0.0000 C   0  0  0  0  0  0  0  0  0  0  0  0
   -1.1882   -2.0630    0.0000 C   0  0  0  0  0  0  0  0  0  0  0  0
    0.2466   -1.6256    0.0000 C   0  0  0  0  0  0  0  0  0  0  0  0
    1.3428   -2.6494    0.0000 C   0  0  0  0  0  0  0  0  0  0  0  0
    2.7776   -2.2120    0.0000 C   0  0  0  0  0  0  0  0  0  0  0  0
    3.1162   -0.7507    0.0000 C   0  0  0  0  0  0  0  0  0  0  0  0
    4.5510   -0.3133    0.0000 C   0  0  0  0  0  0  0  0  0  0  0  0
    4.8896    1.1480    0.0000 C   0  0  0  0  0  0  0  0  0  0  0  0
    6.3244    1.5854    0.0000 O   0  0  0  0  0  0  0  0  0  0  0  0
    7.4206    0.5615    0.0000 S   0  0  0  0  0  0  0  0  0  0  0  0
    6.3967   -0.5347    0.0000 O   0  0  0  0  0  0  0  0  0  0  0  0
    8.4445    1.6578    0.0000 O   0  0  0  0  0  0  0  0  0  0  0  0
    8.5168   -0.4623    0.0000 O   0  0  0  0  0  0  0  0  0  0  0  0
    3.7934    2.1718    0.0000 C   0  0  0  0  0  0  0  0  0  0  0  0
    2.3586    1.7344    0.0000 C   0  0  0  0  0  0  0  0  0  0  0  0
    2.0200    0.2731    0.0000 C   0  0  0  0  0  0  0  0  0  0  0  0
    0.9238    1.2970    0.0000 C   0  0  0  0  0  0  0  0  0  0  0  0
    0.5852   -0.1643    0.0000 C   0  0  0  0  0  0  0  0  0  0  0  0
   -0.5110    0.8596    0.0000 C   0  0  0  0  0  0  0  0  0  0  0  0
   -1.9458    0.4222    0.0000 C   0  0  0  0  0  0  0  0  0  0  0  0
   -3.0421    1.4460    0.0000 O   0  0  0  0  0  0  0  0  0  0  0  0
   -2.2844   -1.0391    0.0000 C   0  0  0  0  0  0  0  0  0  0  0  0
   -3.4817   -0.1354    0.0000 C   0  0  0  0  0  0  0  0  0  0  0  0
  2  1  1  6
  2  3  1  0
  3  4  1  0
  4  5  1  0
  5  6  2  0
  5  7  1  0
  2  8  1  0
  8  9  1  6
  9 10  1  0
 11 10  1  6
 11 12  1  0
 12 13  1  1
 13 14  1  0
 15 14  1  1
 15 16  1  0
 16 17  1  0
 17 18  1  1
 18 19  1  0
 19 20  2  0
 19 21  2  0
 19 22  1  0
 17 23  1  0
 23 24  1  0
 24 25  1  0
 25 26  1  6
 25 27  1  0
 27 28  1  6
 28 29  1  0
 29 30  2  0
 29 31  1  0
 31 32  1  6
 31  8  1  0
 31 11  1  0
 27 12  1  0
 25 15  1  0
M  END
>  <MS_ID>  (46) 
MS0047

>  <SMILES>  (46) 
C[C@H](CCC(=O)O)[C@H]1CC[C@H]2[C@@H]3CC[C@@H]4C[C@H](OS(=O)(=O)O)CC[C@]4(C)[C@H]3CC(=O)[C@]12C

>  <Structure_dimension>  (46) 
2D

$$$$
MS0048
     RDKit          2D

 30 33  0  0  0  0  0  0  0  0999 V2000
   -7.4279    3.5601    0.0000 C   0  0  0  0  0  0  0  0  0  0  0  0
   -7.0729    2.1027    0.0000 O   0  0  0  0  0  0  0  0  0  0  0  0
   -5.6333    1.6814    0.0000 C   0  0  0  0  0  0  0  0  0  0  0  0
   -4.5486    2.7174    0.0000 O   0  0  0  0  0  0  0  0  0  0  0  0
   -5.2784    0.2240    0.0000 C   0  0  0  0  0  0  0  0  0  0  0  0
   -3.8388   -0.1974    0.0000 C   0  0  0  0  0  0  0  0  0  0  0  0
   -3.4838   -1.6548    0.0000 C   0  0  0  0  0  0  0  0  0  0  0  0
   -4.5685   -2.6908    0.0000 C   0  0  0  0  0  0  0  0  0  0  0  0
   -2.0442   -2.0761    0.0000 C   0  0  0  0  0  0  0  0  0  0  0  0
   -1.5389   -3.4884    0.0000 C   0  0  0  0  0  0  0  0  0  0  0  0
   -0.0395   -3.4442    0.0000 C   0  0  0  0  0  0  0  0  0  0  0  0
    0.3818   -2.0046    0.0000 C   0  0  0  0  0  0  0  0  0  0  0  0
    1.7336   -1.3544    0.0000 C   0  0  0  0  0  0  0  0  0  0  0  0
    2.9725   -2.1999    0.0000 C   0  0  0  0  0  0  0  0  0  0  0  0
    2.8597   -3.6957    0.0000 O   0  0  0  0  0  0  0  0  0  0  0  0
    4.3243   -1.5497    0.0000 C   0  0  0  0  0  0  0  0  0  0  0  0
    4.4371   -0.0540    0.0000 C   0  0  0  0  0  0  0  0  0  0  0  0
    5.7888    0.5962    0.0000 C   0  0  0  0  0  0  0  0  0  0  0  0
    5.9016    2.0920    0.0000 C   0  0  0  0  0  0  0  0  0  0  0  0
    7.2534    2.7422    0.0000 O   0  0  0  0  0  0  0  0  0  0  0  0
    4.6627    2.9375    0.0000 C   0  0  0  0  0  0  0  0  0  0  0  0
    3.3109    2.2873    0.0000 C   0  0  0  0  0  0  0  0  0  0  0  0
    3.1981    0.7916    0.0000 C   0  0  0  0  0  0  0  0  0  0  0  0
    1.9591    1.6371    0.0000 C   0  0  0  0  0  0  0  0  0  0  0  0
    1.8464    0.1414    0.0000 C   0  0  0  0  0  0  0  0  0  0  0  0
    0.6074    0.9869    0.0000 C   0  0  0  0  0  0  0  0  0  0  0  0
   -0.7444    0.3367    0.0000 C   0  0  0  0  0  0  0  0  0  0  0  0
   -1.9833    1.1823    0.0000 O   0  0  0  0  0  0  0  0  0  0  0  0
   -0.8572   -1.1590    0.0000 C   0  0  0  0  0  0  0  0  0  0  0  0
   -2.1777   -0.4476    0.0000 C   0  0  0  0  0  0  0  0  0  0  0  0
  1  2  1  0
  2  3  1  0
  3  4  2  0
  3  5  1  0
  5  6  1  0
  6  7  1  0
  7  8  1  6
  7  9  1  0
  9 10  1  6
 10 11  1  0
 12 11  1  6
 12 13  1  0
 13 14  1  1
 14 15  1  1
 14 16  1  0
 17 16  1  6
 17 18  1  0
 18 19  1  0
 19 20  1  1
 19 21  1  0
 21 22  1  0
 22 23  1  0
 23 24  1  6
 23 25  1  0
 25 26  1  6
 26 27  1  0
 27 28  1  1
 27 29  1  0
 29 30  1  6
 29  9  1  0
 29 12  1  0
 25 13  1  0
 23 17  1  0
M  END
>  <MS_ID>  (47) 
MS0048

>  <SMILES>  (47) 
COC(=O)CC[C@@H](C)[C@H]1CC[C@H]2[C@@H]3[C@H](O)C[C@H]4C[C@H](O)CC[C@]4(C)[C@H]3C[C@H](O)[C@]12C

>  <Structure_dimension>  (47) 
2D

$$$$
MS0049
     RDKit          2D

 26 29  0  0  0  0  0  0  0  0999 V2000
   -4.7113   -2.2151    0.0000 C   0  0  0  0  0  0  0  0  0  0  0  0
   -3.5555   -1.2589    0.0000 C   0  0  0  0  0  0  0  0  0  0  0  0
   -3.8058    0.2201    0.0000 C   0  0  0  0  0  0  0  0  0  0  0  0
   -5.2117    0.7429    0.0000 C   0  0  0  0  0  0  0  0  0  0  0  0
   -5.4619    2.2219    0.0000 C   0  0  0  0  0  0  0  0  0  0  0  0
   -4.3062    3.1780    0.0000 O   0  0  0  0  0  0  0  0  0  0  0  0
   -6.8678    2.7447    0.0000 O   0  0  0  0  0  0  0  0  0  0  0  0
   -2.1496   -1.7817    0.0000 C   0  0  0  0  0  0  0  0  0  0  0  0
   -1.7462   -3.2265    0.0000 C   0  0  0  0  0  0  0  0  0  0  0  0
   -0.2475   -3.2892    0.0000 C   0  0  0  0  0  0  0  0  0  0  0  0
    0.2753   -1.8833    0.0000 C   0  0  0  0  0  0  0  0  0  0  0  0
    1.6700   -1.3310    0.0000 C   0  0  0  0  0  0  0  0  0  0  0  0
    2.8455   -2.2627    0.0000 C   0  0  0  0  0  0  0  0  0  0  0  0
    4.2402   -1.7105    0.0000 C   0  0  0  0  0  0  0  0  0  0  0  0
    4.4593   -0.2265    0.0000 C   0  0  0  0  0  0  0  0  0  0  0  0
    5.8539    0.3257    0.0000 C   0  0  0  0  0  0  0  0  0  0  0  0
    6.0730    1.8096    0.0000 C   0  0  0  0  0  0  0  0  0  0  0  0
    4.8974    2.7413    0.0000 C   0  0  0  0  0  0  0  0  0  0  0  0
    3.5027    2.1891    0.0000 C   0  0  0  0  0  0  0  0  0  0  0  0
    3.2837    0.7051    0.0000 C   0  0  0  0  0  0  0  0  0  0  0  0
    2.1081    1.6368    0.0000 C   0  0  0  0  0  0  0  0  0  0  0  0
    1.8890    0.1529    0.0000 C   0  0  0  0  0  0  0  0  0  0  0  0
    0.7135    1.0846    0.0000 C   0  0  0  0  0  0  0  0  0  0  0  0
   -0.6812    0.5323    0.0000 C   0  0  0  0  0  0  0  0  0  0  0  0
   -0.9002   -0.9516    0.0000 C   0  0  0  0  0  0  0  0  0  0  0  0
   -2.1668   -0.1479    0.0000 C   0  0  0  0  0  0  0  0  0  0  0  0
  2  1  1  6
  2  3  1  0
  3  4  1  0
  4  5  1  0
  5  6  2  0
  5  7  1  0
  2  8  1  0
  8  9  1  6
  9 10  1  0
 11 10  1  6
 11 12  1  0
 12 13  1  1
 13 14  1  0
 15 14  1  1
 15 16  1  0
 16 17  1  0
 17 18  1  0
 18 19  1  0
 19 20  1  0
 20 21  1  6
 20 22  1  0
 22 23  1  6
 23 24  1  0
 24 25  1  0
 25 26  1  6
 25  8  1  0
 25 11  1  0
 22 12  1  0
 20 15  1  0
M  END
>  <MS_ID>  (48) 
MS0049

>  <SMILES>  (48) 
C[C@H](CCC(=O)O)[C@H]1CC[C@H]2[C@@H]3CC[C@@H]4CCCC[C@]4(C)[C@H]3CC[C@]12C

>  <Structure_dimension>  (48) 
2D

$$$$
MS0050
     RDKit          2D

 33 36  0  0  0  0  0  0  0  0999 V2000
  -11.4048    3.4431    0.0000 C   0  0  0  0  0  0  0  0  0  0  0  0
  -10.6339    2.1564    0.0000 C   0  0  0  0  0  0  0  0  0  0  0  0
   -9.1341    2.1807    0.0000 C   0  0  0  0  0  0  0  0  0  0  0  0
   -8.3632    0.8939    0.0000 C   0  0  0  0  0  0  0  0  0  0  0  0
   -6.8634    0.9182    0.0000 C   0  0  0  0  0  0  0  0  0  0  0  0
   -6.0924   -0.3685    0.0000 O   0  0  0  0  0  0  0  0  0  0  0  0
   -4.5926   -0.3442    0.0000 C   0  0  0  0  0  0  0  0  0  0  0  0
   -3.8638    0.9668    0.0000 O   0  0  0  0  0  0  0  0  0  0  0  0
   -3.8217   -1.6309    0.0000 C   0  0  0  0  0  0  0  0  0  0  0  0
   -2.3219   -1.6066    0.0000 C   0  0  0  0  0  0  0  0  0  0  0  0
   -1.5509   -2.8934    0.0000 C   0  0  0  0  0  0  0  0  0  0  0  0
   -2.2798   -4.2044    0.0000 C   0  0  0  0  0  0  0  0  0  0  0  0
   -0.0511   -2.8691    0.0000 C   0  0  0  0  0  0  0  0  0  0  0  0
    0.8501   -4.0682    0.0000 C   0  0  0  0  0  0  0  0  0  0  0  0
    2.2690   -3.5816    0.0000 C   0  0  0  0  0  0  0  0  0  0  0  0
    2.2447   -2.0818    0.0000 C   0  0  0  0  0  0  0  0  0  0  0  0
    3.3430   -1.0602    0.0000 C   0  0  0  0  0  0  0  0  0  0  0  0
    4.7769   -1.5006    0.0000 C   0  0  0  0  0  0  0  0  0  0  0  0
    5.1125   -2.9625    0.0000 O   0  0  0  0  0  0  0  0  0  0  0  0
    5.8752   -0.4789    0.0000 C   0  0  0  0  0  0  0  0  0  0  0  0
    5.5396    0.9830    0.0000 C   0  0  0  0  0  0  0  0  0  0  0  0
    6.6380    2.0047    0.0000 C   0  0  0  0  0  0  0  0  0  0  0  0
    6.3024    3.4666    0.0000 C   0  0  0  0  0  0  0  0  0  0  0  0
    7.4007    4.4882    0.0000 O   0  0  0  0  0  0  0  0  0  0  0  0
    4.8685    3.9070    0.0000 C   0  0  0  0  0  0  0  0  0  0  0  0
    3.7701    2.8854    0.0000 C   0  0  0  0  0  0  0  0  0  0  0  0
    4.1057    1.4234    0.0000 C   0  0  0  0  0  0  0  0  0  0  0  0
    2.6718    1.8638    0.0000 C   0  0  0  0  0  0  0  0  0  0  0  0
    3.0074    0.4018    0.0000 C   0  0  0  0  0  0  0  0  0  0  0  0
    1.5735    0.8422    0.0000 C   0  0  0  0  0  0  0  0  0  0  0  0
    0.4752   -0.1795    0.0000 C   0  0  0  0  0  0  0  0  0  0  0  0
    0.8108   -1.6414    0.0000 C   0  0  0  0  0  0  0  0  0  0  0  0
   -0.6613   -1.3534    0.0000 C   0  0  0  0  0  0  0  0  0  0  0  0
  1  2  1  0
  2  3  1  0
  3  4  1  0
  4  5  1  0
  5  6  1  0
  6  7  1  0
  7  8  2  0
  7  9  1  0
  9 10  1  0
 10 11  1  0
 11 12  1  6
 11 13  1  0
 13 14  1  6
 14 15  1  0
 16 15  1  6
 16 17  1  0
 17 18  1  1
 18 19  1  1
 18 20  1  0
 21 20  1  1
 21 22  1  0
 22 23  1  0
 23 24  1  1
 23 25  1  0
 25 26  1  0
 26 27  1  0
 27 28  1  6
 27 29  1  0
 29 30  1  6
 30 31  1  0
 31 32  1  0
 32 33  1  6
 32 13  1  0
 32 16  1  0
 29 17  1  0
 27 21  1  0
M  END
>  <MS_ID>  (49) 
MS0050

>  <SMILES>  (49) 
CCCCCOC(=O)CC[C@@H](C)[C@H]1CC[C@H]2[C@@H]3[C@H](O)C[C@@H]4C[C@H](O)CC[C@]4(C)[C@H]3CC[C@]12C

>  <Structure_dimension>  (49) 
2D

$$$$
MS0051
     RDKit          2D

 29 32  0  0  0  0  0  0  0  0999 V2000
   -5.0303   -2.1373    0.0000 C   0  0  0  0  0  0  0  0  0  0  0  0
   -3.8594   -1.1998    0.0000 C   0  0  0  0  0  0  0  0  0  0  0  0
   -4.0858    0.2830    0.0000 C   0  0  0  0  0  0  0  0  0  0  0  0
   -5.4831    0.8284    0.0000 C   0  0  0  0  0  0  0  0  0  0  0  0
   -5.7095    2.3112    0.0000 C   0  0  0  0  0  0  0  0  0  0  0  0
   -4.5386    3.2487    0.0000 O   0  0  0  0  0  0  0  0  0  0  0  0
   -7.1069    2.8565    0.0000 O   0  0  0  0  0  0  0  0  0  0  0  0
   -2.4620   -1.7451    0.0000 C   0  0  0  0  0  0  0  0  0  0  0  0
   -2.0818   -3.1961    0.0000 C   0  0  0  0  0  0  0  0  0  0  0  0
   -0.5844   -3.2830    0.0000 C   0  0  0  0  0  0  0  0  0  0  0  0
   -0.0390   -1.8856    0.0000 C   0  0  0  0  0  0  0  0  0  0  0  0
    1.3643   -1.3559    0.0000 C   0  0  0  0  0  0  0  0  0  0  0  0
    2.5248   -2.3063    0.0000 C   0  0  0  0  0  0  0  0  0  0  0  0
    2.2819   -3.7865    0.0000 O   0  0  0  0  0  0  0  0  0  0  0  0
    3.9281   -1.7765    0.0000 C   0  0  0  0  0  0  0  0  0  0  0  0
    4.1710   -0.2963    0.0000 C   0  0  0  0  0  0  0  0  0  0  0  0
    5.5743    0.2334    0.0000 C   0  0  0  0  0  0  0  0  0  0  0  0
    5.8172    1.7136    0.0000 C   0  0  0  0  0  0  0  0  0  0  0  0
    7.2205    2.2434    0.0000 O   0  0  0  0  0  0  0  0  0  0  0  0
    4.6568    2.6641    0.0000 C   0  0  0  0  0  0  0  0  0  0  0  0
    3.2534    2.1343    0.0000 C   0  0  0  0  0  0  0  0  0  0  0  0
    3.0105    0.6541    0.0000 C   0  0  0  0  0  0  0  0  0  0  0  0
    1.8501    1.6046    0.0000 C   0  0  0  0  0  0  0  0  0  0  0  0
    1.6072    0.1244    0.0000 C   0  0  0  0  0  0  0  0  0  0  0  0
    0.4467    1.0748    0.0000 C   0  0  0  0  0  0  0  0  0  0  0  0
   -0.9566    0.5450    0.0000 C   0  0  0  0  0  0  0  0  0  0  0  0
   -2.1170    1.4955    0.0000 O   0  0  0  0  0  0  0  0  0  0  0  0
   -1.1995   -0.9352    0.0000 C   0  0  0  0  0  0  0  0  0  0  0  0
   -2.4529   -0.1112    0.0000 C   0  0  0  0  0  0  0  0  0  0  0  0
  2  1  1  6
  2  3  1  0
  3  4  1  0
  4  5  1  0
  5  6  2  0
  5  7  1  0
  2  8  1  0
  8  9  1  6
  9 10  1  0
 11 10  1  6
 11 12  1  0
 12 13  1  1
 13 14  1  1
 13 15  1  0
 16 15  1  1
 16 17  1  0
 17 18  1  0
 18 19  1  6
 18 20  1  0
 20 21  1  0
 21 22  1  0
 22 23  1  6
 22 24  1  0
 24 25  1  6
 25 26  1  0
 26 27  1  6
 26 28  1  0
 28 29  1  6
 28  8  1  0
 28 11  1  0
 24 12  1  0
 22 16  1  0
M  END
>  <MS_ID>  (50) 
MS0051

>  <SMILES>  (50) 
C[C@H](CCC(=O)O)[C@H]1CC[C@H]2[C@@H]3[C@H](O)C[C@@H]4C[C@@H](O)CC[C@]4(C)[C@H]3C[C@@H](O)[C@]12C

>  <Structure_dimension>  (50) 
2D

$$$$
MS0052
     RDKit          2D

 32 35  0  0  0  0  0  0  0  0999 V2000
   -9.3885    3.6424    0.0000 C   0  0  0  0  0  0  0  0  0  0  0  0
   -8.7975    2.2638    0.0000 C   0  0  0  0  0  0  0  0  0  0  0  0
   -7.3080    2.0863    0.0000 C   0  0  0  0  0  0  0  0  0  0  0  0
   -6.7170    0.7076    0.0000 O   0  0  0  0  0  0  0  0  0  0  0  0
   -5.2276    0.5301    0.0000 C   0  0  0  0  0  0  0  0  0  0  0  0
   -4.3291    1.7312    0.0000 O   0  0  0  0  0  0  0  0  0  0  0  0
   -4.6366   -0.8486    0.0000 C   0  0  0  0  0  0  0  0  0  0  0  0
   -3.1471   -1.0261    0.0000 C   0  0  0  0  0  0  0  0  0  0  0  0
   -2.5561   -2.4048    0.0000 C   0  0  0  0  0  0  0  0  0  0  0  0
   -3.4546   -3.6059    0.0000 C   0  0  0  0  0  0  0  0  0  0  0  0
   -1.0667   -2.5823    0.0000 C   0  0  0  0  0  0  0  0  0  0  0  0
   -0.3348   -3.8917    0.0000 C   0  0  0  0  0  0  0  0  0  0  0  0
    1.1366   -3.6002    0.0000 C   0  0  0  0  0  0  0  0  0  0  0  0
    1.3141   -2.1108    0.0000 C   0  0  0  0  0  0  0  0  0  0  0  0
    2.5398   -1.2460    0.0000 C   0  0  0  0  0  0  0  0  0  0  0  0
    3.9015   -1.8751    0.0000 C   0  0  0  0  0  0  0  0  0  0  0  0
    4.0375   -3.3690    0.0000 O   0  0  0  0  0  0  0  0  0  0  0  0
    5.1272   -1.0104    0.0000 C   0  0  0  0  0  0  0  0  0  0  0  0
    4.9911    0.4834    0.0000 C   0  0  0  0  0  0  0  0  0  0  0  0
    6.2168    1.3481    0.0000 C   0  0  0  0  0  0  0  0  0  0  0  0
    6.0808    2.8419    0.0000 C   0  0  0  0  0  0  0  0  0  0  0  0
    7.3064    3.7067    0.0000 O   0  0  0  0  0  0  0  0  0  0  0  0
    4.7191    3.4710    0.0000 C   0  0  0  0  0  0  0  0  0  0  0  0
    3.4934    2.6063    0.0000 C   0  0  0  0  0  0  0  0  0  0  0  0
    3.6294    1.1125    0.0000 C   0  0  0  0  0  0  0  0  0  0  0  0
    2.2677    1.7416    0.0000 C   0  0  0  0  0  0  0  0  0  0  0  0
    2.4038    0.2478    0.0000 C   0  0  0  0  0  0  0  0  0  0  0  0
    1.0421    0.8769    0.0000 C   0  0  0  0  0  0  0  0  0  0  0  0
   -0.1836    0.0122    0.0000 C   0  0  0  0  0  0  0  0  0  0  0  0
   -1.5453    0.6413    0.0000 O   0  0  0  0  0  0  0  0  0  0  0  0
   -0.0476   -1.4817    0.0000 C   0  0  0  0  0  0  0  0  0  0  0  0
   -1.4676   -0.9983    0.0000 C   0  0  0  0  0  0  0  0  0  0  0  0
  1  2  1  0
  2  3  1  0
  3  4  1  0
  4  5  1  0
  5  6  2  0
  5  7  1  0
  7  8  1  0
  8  9  1  0
  9 10  1  6
  9 11  1  0
 11 12  1  6
 12 13  1  0
 14 13  1  6
 14 15  1  0
 15 16  1  1
 16 17  1  1
 16 18  1  0
 19 18  1  1
 19 20  1  0
 20 21  1  0
 21 22  1  1
 21 23  1  0
 23 24  1  0
 24 25  1  0
 25 26  1  6
 25 27  1  0
 27 28  1  6
 28 29  1  0
 29 30  1  1
 29 31  1  0
 31 32  1  6
 31 11  1  0
 31 14  1  0
 27 15  1  0
 25 19  1  0
M  END
>  <MS_ID>  (51) 
MS0052

>  <SMILES>  (51) 
CCCOC(=O)CC[C@@H](C)[C@H]1CC[C@H]2[C@@H]3[C@H](O)C[C@@H]4C[C@H](O)CC[C@]4(C)[C@H]3C[C@H](O)[C@]12C

>  <Structure_dimension>  (51) 
2D

$$$$
MS0054
     RDKit          2D

 32 35  0  0  0  0  0  0  0  0999 V2000
   -3.6687   -3.7654    0.0000 C   0  0  0  0  0  0  0  0  0  0  0  0
   -2.7694   -2.5649    0.0000 C   0  0  0  0  0  0  0  0  0  0  0  0
   -3.3594   -1.1858    0.0000 C   0  0  0  0  0  0  0  0  0  0  0  0
   -4.8488   -1.0072    0.0000 C   0  0  0  0  0  0  0  0  0  0  0  0
   -5.4388    0.3718    0.0000 C   0  0  0  0  0  0  0  0  0  0  0  0
   -6.9281    0.5504    0.0000 O   0  0  0  0  0  0  0  0  0  0  0  0
   -4.5395    1.5724    0.0000 O   0  0  0  0  0  0  0  0  0  0  0  0
   -5.1295    2.9514    0.0000 S   0  0  0  0  0  0  0  0  0  0  0  0
   -6.5086    2.3614    0.0000 O   0  0  0  0  0  0  0  0  0  0  0  0
   -3.7505    3.5415    0.0000 O   0  0  0  0  0  0  0  0  0  0  0  0
   -5.7196    4.3305    0.0000 O   0  0  0  0  0  0  0  0  0  0  0  0
   -1.2801   -2.7434    0.0000 C   0  0  0  0  0  0  0  0  0  0  0  0
   -0.5491   -4.0533    0.0000 C   0  0  0  0  0  0  0  0  0  0  0  0
    0.9225   -3.7629    0.0000 C   0  0  0  0  0  0  0  0  0  0  0  0
    1.1011   -2.2735    0.0000 C   0  0  0  0  0  0  0  0  0  0  0  0
    2.3273   -1.4097    0.0000 C   0  0  0  0  0  0  0  0  0  0  0  0
    3.6886   -2.0397    0.0000 C   0  0  0  0  0  0  0  0  0  0  0  0
    3.8236   -3.5336    0.0000 O   0  0  0  0  0  0  0  0  0  0  0  0
    4.9149   -1.1759    0.0000 C   0  0  0  0  0  0  0  0  0  0  0  0
    4.7799    0.3181    0.0000 C   0  0  0  0  0  0  0  0  0  0  0  0
    6.0061    1.1819    0.0000 C   0  0  0  0  0  0  0  0  0  0  0  0
    5.8711    2.6758    0.0000 C   0  0  0  0  0  0  0  0  0  0  0  0
    7.0974    3.5397    0.0000 O   0  0  0  0  0  0  0  0  0  0  0  0
    4.5099    3.3059    0.0000 C   0  0  0  0  0  0  0  0  0  0  0  0
    3.2836    2.4420    0.0000 C   0  0  0  0  0  0  0  0  0  0  0  0
    3.4186    0.9481    0.0000 C   0  0  0  0  0  0  0  0  0  0  0  0
    2.0573    1.5782    0.0000 C   0  0  0  0  0  0  0  0  0  0  0  0
    2.1923    0.0842    0.0000 C   0  0  0  0  0  0  0  0  0  0  0  0
    0.8311    0.7143    0.0000 C   0  0  0  0  0  0  0  0  0  0  0  0
   -0.3952   -0.1496    0.0000 C   0  0  0  0  0  0  0  0  0  0  0  0
   -0.2602   -1.6435    0.0000 C   0  0  0  0  0  0  0  0  0  0  0  0
   -1.6799   -1.1592    0.0000 C   0  0  0  0  0  0  0  0  0  0  0  0
  2  1  1  6
  2  3  1  0
  3  4  1  0
  4  5  1  0
  5  6  2  0
  5  7  1  0
  7  8  1  0
  8  9  2  0
  8 10  2  0
  8 11  1  0
  2 12  1  0
 12 13  1  6
 13 14  1  0
 15 14  1  6
 15 16  1  0
 16 17  1  1
 17 18  1  1
 17 19  1  0
 20 19  1  1
 20 21  1  0
 21 22  1  0
 22 23  1  1
 22 24  1  0
 24 25  1  0
 25 26  1  0
 26 27  1  6
 26 28  1  0
 28 29  1  6
 29 30  1  0
 30 31  1  0
 31 32  1  6
 31 12  1  0
 31 15  1  0
 28 16  1  0
 26 20  1  0
M  END
>  <MS_ID>  (52) 
MS0054

>  <SMILES>  (52) 
C[C@H](CCC(=O)OS(=O)(=O)O)[C@H]1CC[C@H]2[C@@H]3[C@H](O)C[C@@H]4C[C@H](O)CC[C@]4(C)[C@H]3CC[C@]12C

>  <Structure_dimension>  (52) 
2D

$$$$
MS0055
     RDKit          2D

 27 30  0  0  0  0  0  0  0  0999 V2000
   -5.1023   -2.0364    0.0000 C   0  0  0  0  0  0  0  0  0  0  0  0
   -3.8978   -1.1425    0.0000 C   0  0  0  0  0  0  0  0  0  0  0  0
   -4.0697    0.3476    0.0000 C   0  0  0  0  0  0  0  0  0  0  0  0
   -5.4461    0.9438    0.0000 C   0  0  0  0  0  0  0  0  0  0  0  0
   -5.6180    2.4339    0.0000 C   0  0  0  0  0  0  0  0  0  0  0  0
   -4.4135    3.3278    0.0000 O   0  0  0  0  0  0  0  0  0  0  0  0
   -6.9944    3.0301    0.0000 O   0  0  0  0  0  0  0  0  0  0  0  0
   -2.5213   -1.7387    0.0000 C   0  0  0  0  0  0  0  0  0  0  0  0
   -2.1946   -3.2027    0.0000 C   0  0  0  0  0  0  0  0  0  0  0  0
   -0.7013   -3.3444    0.0000 C   0  0  0  0  0  0  0  0  0  0  0  0
   -0.1051   -1.9679    0.0000 C   0  0  0  0  0  0  0  0  0  0  0  0
    1.3167   -1.4900    0.0000 C   0  0  0  0  0  0  0  0  0  0  0  0
    2.4415   -2.4823    0.0000 C   0  0  0  0  0  0  0  0  0  0  0  0
    3.8633   -2.0044    0.0000 C   0  0  0  0  0  0  0  0  0  0  0  0
    4.1603   -0.5341    0.0000 C   0  0  0  0  0  0  0  0  0  0  0  0
    5.5821   -0.0561    0.0000 C   0  0  0  0  0  0  0  0  0  0  0  0
    5.8791    1.4142    0.0000 C   0  0  0  0  0  0  0  0  0  0  0  0
    7.3009    1.8921    0.0000 O   0  0  0  0  0  0  0  0  0  0  0  0
    4.7543    2.4065    0.0000 C   0  0  0  0  0  0  0  0  0  0  0  0
    3.3325    1.9286    0.0000 C   0  0  0  0  0  0  0  0  0  0  0  0
    3.0355    0.4583    0.0000 C   0  0  0  0  0  0  0  0  0  0  0  0
    1.9107    1.4506    0.0000 C   0  0  0  0  0  0  0  0  0  0  0  0
    1.6137   -0.0197    0.0000 C   0  0  0  0  0  0  0  0  0  0  0  0
    0.4888    0.9727    0.0000 C   0  0  0  0  0  0  0  0  0  0  0  0
   -0.9330    0.4947    0.0000 C   0  0  0  0  0  0  0  0  0  0  0  0
   -1.2300   -0.9756    0.0000 C   0  0  0  0  0  0  0  0  0  0  0  0
   -2.4524   -0.1062    0.0000 C   0  0  0  0  0  0  0  0  0  0  0  0
  2  1  1  6
  2  3  1  0
  3  4  1  0
  4  5  1  0
  5  6  2  0
  5  7  1  0
  2  8  1  0
  8  9  1  6
  9 10  1  0
 11 10  1  6
 11 12  1  0
 12 13  1  1
 13 14  1  0
 15 14  1  1
 15 16  1  0
 16 17  1  0
 17 18  2  0
 17 19  1  0
 19 20  1  0
 20 21  1  0
 21 22  1  6
 21 23  1  0
 23 24  1  6
 24 25  1  0
 25 26  1  0
 26 27  1  6
 26  8  1  0
 26 11  1  0
 23 12  1  0
 21 15  1  0
M  END
>  <MS_ID>  (53) 
MS0055

>  <SMILES>  (53) 
C[C@H](CCC(=O)O)[C@H]1CC[C@H]2[C@@H]3CC[C@@H]4CC(=O)CC[C@]4(C)[C@H]3CC[C@]12C

>  <Structure_dimension>  (53) 
2D

$$$$
MS0056
     RDKit          2D

 28 31  0  0  0  0  0  0  0  0999 V2000
   -5.1275   -2.0302    0.0000 C   0  0  0  0  0  0  0  0  0  0  0  0
   -3.9468   -1.1050    0.0000 C   0  0  0  0  0  0  0  0  0  0  0  0
   -4.1576    0.3801    0.0000 C   0  0  0  0  0  0  0  0  0  0  0  0
   -5.5492    0.9401    0.0000 C   0  0  0  0  0  0  0  0  0  0  0  0
   -5.7600    2.4252    0.0000 C   0  0  0  0  0  0  0  0  0  0  0  0
   -4.5793    3.3503    0.0000 O   0  0  0  0  0  0  0  0  0  0  0  0
   -7.1516    2.9851    0.0000 O   0  0  0  0  0  0  0  0  0  0  0  0
   -2.5552   -1.6650    0.0000 C   0  0  0  0  0  0  0  0  0  0  0  0
   -2.1903   -3.1199    0.0000 C   0  0  0  0  0  0  0  0  0  0  0  0
   -0.6938   -3.2225    0.0000 C   0  0  0  0  0  0  0  0  0  0  0  0
   -0.1339   -1.8309    0.0000 C   0  0  0  0  0  0  0  0  0  0  0  0
    1.2750   -1.3159    0.0000 C   0  0  0  0  0  0  0  0  0  0  0  0
    2.4254   -2.2785    0.0000 C   0  0  0  0  0  0  0  0  0  0  0  0
    2.1670   -3.7560    0.0000 O   0  0  0  0  0  0  0  0  0  0  0  0
    3.8342   -1.7635    0.0000 C   0  0  0  0  0  0  0  0  0  0  0  0
    4.0926   -0.2859    0.0000 C   0  0  0  0  0  0  0  0  0  0  0  0
    5.5014    0.2291    0.0000 C   0  0  0  0  0  0  0  0  0  0  0  0
    5.7598    1.7067    0.0000 C   0  0  0  0  0  0  0  0  0  0  0  0
    7.1687    2.2217    0.0000 O   0  0  0  0  0  0  0  0  0  0  0  0
    4.6094    2.6692    0.0000 C   0  0  0  0  0  0  0  0  0  0  0  0
    3.2006    2.1542    0.0000 C   0  0  0  0  0  0  0  0  0  0  0  0
    2.9422    0.6767    0.0000 C   0  0  0  0  0  0  0  0  0  0  0  0
    1.7918    1.6392    0.0000 C   0  0  0  0  0  0  0  0  0  0  0  0
    1.5334    0.1617    0.0000 C   0  0  0  0  0  0  0  0  0  0  0  0
    0.3830    1.1242    0.0000 C   0  0  0  0  0  0  0  0  0  0  0  0
   -1.0259    0.6093    0.0000 C   0  0  0  0  0  0  0  0  0  0  0  0
   -1.2843   -0.8683    0.0000 C   0  0  0  0  0  0  0  0  0  0  0  0
   -2.5290   -0.0313    0.0000 C   0  0  0  0  0  0  0  0  0  0  0  0
  2  1  1  6
  2  3  1  0
  3  4  1  0
  4  5  1  0
  5  6  2  0
  5  7  1  0
  2  8  1  0
  8  9  1  6
  9 10  1  0
 11 10  1  6
 11 12  1  0
 12 13  1  1
 13 14  1  6
 13 15  1  0
 16 15  1  1
 16 17  1  0
 17 18  1  0
 18 19  2  0
 18 20  1  0
 20 21  1  0
 21 22  1  0
 22 23  1  6
 22 24  1  0
 24 25  1  6
 25 26  1  0
 26 27  1  0
 27 28  1  6
 27  8  1  0
 27 11  1  0
 24 12  1  0
 22 16  1  0
M  END
>  <MS_ID>  (54) 
MS0056

>  <SMILES>  (54) 
C[C@H](CCC(=O)O)[C@H]1CC[C@H]2[C@@H]3[C@@H](O)C[C@@H]4CC(=O)CC[C@]4(C)[C@H]3CC[C@]12C

>  <Structure_dimension>  (54) 
2D

$$$$
MS0057
     RDKit          2D

 40 44  0  0  0  0  0  0  0  0999 V2000
   -0.5969   -4.8504    0.0000 C   0  0  0  0  0  0  0  0  0  0  0  0
   -0.0719   -3.4453    0.0000 C   0  0  0  0  0  0  0  0  0  0  0  0
   -1.0263   -2.2881    0.0000 C   0  0  0  0  0  0  0  0  0  0  0  0
   -2.5057   -2.5359    0.0000 C   0  0  0  0  0  0  0  0  0  0  0  0
   -3.4600   -1.3787    0.0000 C   0  0  0  0  0  0  0  0  0  0  0  0
   -2.9350    0.0264    0.0000 O   0  0  0  0  0  0  0  0  0  0  0  0
   -4.9394   -1.6266    0.0000 N   0  0  0  0  0  0  0  0  0  0  0  0
   -5.8938   -0.4694    0.0000 C   0  0  0  0  0  0  0  0  0  0  0  0
   -7.3731   -0.7172    0.0000 C   0  0  0  0  0  0  0  0  0  0  0  0
   -8.3275    0.4400    0.0000 C   0  0  0  0  0  0  0  0  0  0  0  0
   -7.8025    1.8451    0.0000 C   0  0  0  0  0  0  0  0  0  0  0  0
   -8.7568    3.0023    0.0000 C   0  0  0  0  0  0  0  0  0  0  0  0
  -10.2362    2.7545    0.0000 C   0  0  0  0  0  0  0  0  0  0  0  0
  -10.7612    1.3493    0.0000 C   0  0  0  0  0  0  0  0  0  0  0  0
   -9.8069    0.1921    0.0000 C   0  0  0  0  0  0  0  0  0  0  0  0
   -5.3687    0.9358    0.0000 C   0  0  0  0  0  0  0  0  0  0  0  0
   -3.8894    1.1836    0.0000 O   0  0  0  0  0  0  0  0  0  0  0  0
   -6.3231    2.0930    0.0000 O   0  0  0  0  0  0  0  0  0  0  0  0
    1.4075   -3.1974    0.0000 C   0  0  0  0  0  0  0  0  0  0  0  0
    2.4776   -4.2485    0.0000 C   0  0  0  0  0  0  0  0  0  0  0  0
    3.8079   -3.5556    0.0000 C   0  0  0  0  0  0  0  0  0  0  0  0
    3.5600   -2.0763    0.0000 C   0  0  0  0  0  0  0  0  0  0  0  0
    4.4936   -0.9021    0.0000 C   0  0  0  0  0  0  0  0  0  0  0  0
    5.9771   -1.1235    0.0000 C   0  0  0  0  0  0  0  0  0  0  0  0
    6.5272   -2.5191    0.0000 O   0  0  0  0  0  0  0  0  0  0  0  0
    6.9107    0.0506    0.0000 C   0  0  0  0  0  0  0  0  0  0  0  0
    8.3942   -0.1708    0.0000 O   0  0  0  0  0  0  0  0  0  0  0  0
    6.3606    1.4461    0.0000 C   0  0  0  0  0  0  0  0  0  0  0  0
    7.2941    2.6202    0.0000 C   0  0  0  0  0  0  0  0  0  0  0  0
    6.7441    4.0157    0.0000 C   0  0  0  0  0  0  0  0  0  0  0  0
    7.6776    5.1898    0.0000 O   0  0  0  0  0  0  0  0  0  0  0  0
    5.2605    4.2371    0.0000 C   0  0  0  0  0  0  0  0  0  0  0  0
    4.3270    3.0630    0.0000 C   0  0  0  0  0  0  0  0  0  0  0  0
    4.8770    1.6675    0.0000 C   0  0  0  0  0  0  0  0  0  0  0  0
    3.3935    1.8889    0.0000 C   0  0  0  0  0  0  0  0  0  0  0  0
    3.9435    0.4934    0.0000 C   0  0  0  0  0  0  0  0  0  0  0  0
    2.4599    0.7148    0.0000 C   0  0  0  0  0  0  0  0  0  0  0  0
    1.5264   -0.4594    0.0000 C   0  0  0  0  0  0  0  0  0  0  0  0
    2.0765   -1.8549    0.0000 C   0  0  0  0  0  0  0  0  0  0  0  0
    0.5779   -1.7897    0.0000 C   0  0  0  0  0  0  0  0  0  0  0  0
  2  1  1  6
  2  3  1  0
  3  4  1  0
  4  5  1  0
  5  6  2  0
  5  7  1  0
  7  8  1  0
  8  9  1  1
  9 10  1  0
 10 11  2  0
 11 12  1  0
 12 13  2  0
 13 14  1  0
 14 15  2  0
  8 16  1  0
 16 17  2  0
 16 18  1  0
  2 19  1  0
 19 20  1  6
 20 21  1  0
 22 21  1  6
 22 23  1  0
 23 24  1  1
 24 25  1  1
 24 26  1  0
 26 27  1  1
 26 28  1  0
 28 29  1  1
 29 30  1  0
 30 31  1  1
 30 32  1  0
 32 33  1  0
 33 34  1  0
 34 35  1  6
 34 36  1  0
 36 37  1  6
 37 38  1  0
 38 39  1  0
 39 40  1  6
 15 10  1  0
 39 19  1  0
 39 22  1  0
 36 23  1  0
 34 28  1  0
M  END
>  <MS_ID>  (55) 
MS0057

>  <SMILES>  (55) 
C[C@H](CCC(=O)N[C@@H](Cc1ccccc1)C(=O)O)[C@H]1CC[C@H]2[C@@H]3[C@H](O)[C@H](O)[C@@H]4C[C@H](O)CC[C@]4(C)[C@H]3CC[C@]12C

>  <Structure_dimension>  (55) 
2D

$$$$
MS0058
     RDKit          2D

 34 37  0  0  0  0  0  0  0  0999 V2000
   -6.6764   -1.9254    0.0000 C   0  0  0  0  0  0  0  0  0  0  0  0
   -5.4572   -1.0515    0.0000 C   0  0  0  0  0  0  0  0  0  0  0  0
   -5.6044    0.4412    0.0000 C   0  0  0  0  0  0  0  0  0  0  0  0
   -6.9707    1.0602    0.0000 C   0  0  0  0  0  0  0  0  0  0  0  0
   -7.1179    2.5529    0.0000 C   0  0  0  0  0  0  0  0  0  0  0  0
   -5.8987    3.4268    0.0000 O   0  0  0  0  0  0  0  0  0  0  0  0
   -8.4843    3.1718    0.0000 O   0  0  0  0  0  0  0  0  0  0  0  0
   -4.0908   -1.6704    0.0000 C   0  0  0  0  0  0  0  0  0  0  0  0
   -3.7884   -3.1396    0.0000 C   0  0  0  0  0  0  0  0  0  0  0  0
   -2.2977   -3.3060    0.0000 C   0  0  0  0  0  0  0  0  0  0  0  0
   -1.6787   -1.9397    0.0000 C   0  0  0  0  0  0  0  0  0  0  0  0
   -0.2492   -1.4853    0.0000 C   0  0  0  0  0  0  0  0  0  0  0  0
    0.8590   -2.4962    0.0000 C   0  0  0  0  0  0  0  0  0  0  0  0
    0.5377   -3.9614    0.0000 O   0  0  0  0  0  0  0  0  0  0  0  0
    2.2886   -2.0419    0.0000 C   0  0  0  0  0  0  0  0  0  0  0  0
    2.6099   -0.5767    0.0000 C   0  0  0  0  0  0  0  0  0  0  0  0
    4.0394   -0.1224    0.0000 C   0  0  0  0  0  0  0  0  0  0  0  0
    4.3607    1.3428    0.0000 C   0  0  0  0  0  0  0  0  0  0  0  0
    5.7903    1.7972    0.0000 O   0  0  0  0  0  0  0  0  0  0  0  0
    6.8985    0.7863    0.0000 C   0  0  0  0  0  0  0  0  0  0  0  0
    8.3280    1.2406    0.0000 C   0  0  0  0  0  0  0  0  0  0  0  0
    9.4363    0.2298    0.0000 C   0  0  0  0  0  0  0  0  0  0  0  0
    9.1150   -1.2354    0.0000 O   0  0  0  0  0  0  0  0  0  0  0  0
   10.8658    0.6841    0.0000 O   0  0  0  0  0  0  0  0  0  0  0  0
    3.2525    2.3537    0.0000 C   0  0  0  0  0  0  0  0  0  0  0  0
    1.8230    1.8993    0.0000 C   0  0  0  0  0  0  0  0  0  0  0  0
    1.5016    0.4342    0.0000 C   0  0  0  0  0  0  0  0  0  0  0  0
    0.3934    1.4450    0.0000 C   0  0  0  0  0  0  0  0  0  0  0  0
    0.0721   -0.0202    0.0000 C   0  0  0  0  0  0  0  0  0  0  0  0
   -1.0361    0.9907    0.0000 C   0  0  0  0  0  0  0  0  0  0  0  0
   -2.4657    0.5364    0.0000 C   0  0  0  0  0  0  0  0  0  0  0  0
   -3.5739    1.5472    0.0000 O   0  0  0  0  0  0  0  0  0  0  0  0
   -2.7870   -0.9288    0.0000 C   0  0  0  0  0  0  0  0  0  0  0  0
   -3.9948   -0.0393    0.0000 C   0  0  0  0  0  0  0  0  0  0  0  0
  2  1  1  6
  2  3  1  0
  3  4  1  0
  4  5  1  0
  5  6  2  0
  5  7  1  0
  2  8  1  0
  8  9  1  6
  9 10  1  0
 11 10  1  6
 11 12  1  0
 12 13  1  1
 13 14  1  1
 13 15  1  0
 16 15  1  1
 16 17  1  0
 17 18  1  0
 18 19  1  1
 19 20  1  0
 20 21  2  0
 21 22  1  0
 22 23  2  0
 22 24  1  0
 18 25  1  0
 25 26  1  0
 26 27  1  0
 27 28  1  6
 27 29  1  0
 29 30  1  6
 30 31  1  0
 31 32  1  1
 31 33  1  0
 33 34  1  6
 33  8  1  0
 33 11  1  0
 29 12  1  0
 27 16  1  0
M  END
>  <MS_ID>  (56) 
MS0058

>  <SMILES>  (56) 
C[C@H](CCC(=O)O)[C@H]1CC[C@H]2[C@@H]3[C@H](O)C[C@@H]4C[C@H](O/C=C/C(=O)O)CC[C@]4(C)[C@H]3C[C@H](O)[C@]12C

>  <Structure_dimension>  (56) 
2D

$$$$
MS0059
     RDKit          2D

 30 33  0  0  0  0  0  0  0  0999 V2000
   -5.8176   -1.7103    0.0000 C   0  0  0  0  0  0  0  0  0  0  0  0
   -4.5630   -0.8881    0.0000 C   0  0  0  0  0  0  0  0  0  0  0  0
   -4.6476    0.6095    0.0000 C   0  0  0  0  0  0  0  0  0  0  0  0
   -5.9869    1.2849    0.0000 C   0  0  0  0  0  0  0  0  0  0  0  0
   -6.0716    2.7826    0.0000 C   0  0  0  0  0  0  0  0  0  0  0  0
   -4.8170    3.6047    0.0000 O   0  0  0  0  0  0  0  0  0  0  0  0
   -7.4109    3.4580    0.0000 O   0  0  0  0  0  0  0  0  0  0  0  0
   -3.2237   -1.5636    0.0000 C   0  0  0  0  0  0  0  0  0  0  0  0
   -2.9829   -3.0442    0.0000 C   0  0  0  0  0  0  0  0  0  0  0  0
   -1.5004   -3.2727    0.0000 C   0  0  0  0  0  0  0  0  0  0  0  0
   -0.8249   -1.9334    0.0000 C   0  0  0  0  0  0  0  0  0  0  0  0
    0.6223   -1.5392    0.0000 C   0  0  0  0  0  0  0  0  0  0  0  0
    1.6874   -2.5955    0.0000 C   0  0  0  0  0  0  0  0  0  0  0  0
    1.3051   -4.0460    0.0000 O   0  0  0  0  0  0  0  0  0  0  0  0
    3.1346   -2.2013    0.0000 C   0  0  0  0  0  0  0  0  0  0  0  0
    3.5169   -0.7508    0.0000 C   0  0  0  0  0  0  0  0  0  0  0  0
    4.9642   -0.3567    0.0000 C   0  0  0  0  0  0  0  0  0  0  0  0
    5.3464    1.0938    0.0000 C   0  0  0  0  0  0  0  0  0  0  0  0
    6.7937    1.4880    0.0000 C   0  0  0  0  0  0  0  0  0  0  0  0
    7.1760    2.9385    0.0000 O   0  0  0  0  0  0  0  0  0  0  0  0
    7.8587    0.4317    0.0000 O   0  0  0  0  0  0  0  0  0  0  0  0
    4.2814    2.1501    0.0000 C   0  0  0  0  0  0  0  0  0  0  0  0
    2.8341    1.7559    0.0000 C   0  0  0  0  0  0  0  0  0  0  0  0
    2.4519    0.3054    0.0000 C   0  0  0  0  0  0  0  0  0  0  0  0
    1.3869    1.3617    0.0000 C   0  0  0  0  0  0  0  0  0  0  0  0
    1.0046   -0.0888    0.0000 C   0  0  0  0  0  0  0  0  0  0  0  0
   -0.0604    0.9675    0.0000 C   0  0  0  0  0  0  0  0  0  0  0  0
   -1.5077    0.5733    0.0000 C   0  0  0  0  0  0  0  0  0  0  0  0
   -1.8900   -0.8771    0.0000 C   0  0  0  0  0  0  0  0  0  0  0  0
   -3.0596    0.0620    0.0000 C   0  0  0  0  0  0  0  0  0  0  0  0
  2  1  1  6
  2  3  1  0
  3  4  1  0
  4  5  1  0
  5  6  2  0
  5  7  1  0
  2  8  1  0
  8  9  1  6
  9 10  1  0
 11 10  1  6
 11 12  1  0
 12 13  1  1
 13 14  1  1
 13 15  1  0
 16 15  1  1
 16 17  1  0
 17 18  1  0
 18 19  1  1
 19 20  2  0
 19 21  1  0
 18 22  1  0
 22 23  1  0
 23 24  1  0
 24 25  1  6
 24 26  1  0
 26 27  1  6
 27 28  1  0
 28 29  1  0
 29 30  1  6
 29  8  1  0
 29 11  1  0
 26 12  1  0
 24 16  1  0
M  END
>  <MS_ID>  (57) 
MS0059

>  <SMILES>  (57) 
C[C@H](CCC(=O)O)[C@H]1CC[C@H]2[C@@H]3[C@H](O)C[C@@H]4C[C@H](C(=O)O)CC[C@]4(C)[C@H]3CC[C@]12C

>  <Structure_dimension>  (57) 
2D

$$$$
MS0060
     RDKit          2D

 33 36  0  0  0  0  0  0  0  0999 V2000
   -3.0978   -3.6919    0.0000 C   0  0  0  0  0  0  0  0  0  0  0  0
   -2.2201   -2.4755    0.0000 C   0  0  0  0  0  0  0  0  0  0  0  0
   -2.8347   -1.1072    0.0000 C   0  0  0  0  0  0  0  0  0  0  0  0
   -4.3270   -0.9552    0.0000 C   0  0  0  0  0  0  0  0  0  0  0  0
   -4.9416    0.4131    0.0000 C   0  0  0  0  0  0  0  0  0  0  0  0
   -4.0639    1.6295    0.0000 O   0  0  0  0  0  0  0  0  0  0  0  0
   -6.4339    0.5650    0.0000 C   0  0  0  0  0  0  0  0  0  0  0  0
   -7.0484    1.9333    0.0000 C   0  0  0  0  0  0  0  0  0  0  0  0
   -8.5407    2.0852    0.0000 C   0  0  0  0  0  0  0  0  0  0  0  0
   -9.4184    0.8688    0.0000 O   0  0  0  0  0  0  0  0  0  0  0  0
   -9.1553    3.4535    0.0000 O   0  0  0  0  0  0  0  0  0  0  0  0
   -0.7278   -2.6274    0.0000 C   0  0  0  0  0  0  0  0  0  0  0  0
    0.0264   -3.9240    0.0000 C   0  0  0  0  0  0  0  0  0  0  0  0
    1.4926   -3.6073    0.0000 C   0  0  0  0  0  0  0  0  0  0  0  0
    1.6445   -2.1150    0.0000 C   0  0  0  0  0  0  0  0  0  0  0  0
    2.8552   -1.2294    0.0000 C   0  0  0  0  0  0  0  0  0  0  0  0
    4.2275   -1.8350    0.0000 C   0  0  0  0  0  0  0  0  0  0  0  0
    4.3891   -3.3263    0.0000 O   0  0  0  0  0  0  0  0  0  0  0  0
    5.4381   -0.9494    0.0000 C   0  0  0  0  0  0  0  0  0  0  0  0
    5.2764    0.5419    0.0000 C   0  0  0  0  0  0  0  0  0  0  0  0
    6.4871    1.4275    0.0000 C   0  0  0  0  0  0  0  0  0  0  0  0
    6.3254    2.9188    0.0000 C   0  0  0  0  0  0  0  0  0  0  0  0
    7.5360    3.8044    0.0000 O   0  0  0  0  0  0  0  0  0  0  0  0
    4.9531    3.5244    0.0000 C   0  0  0  0  0  0  0  0  0  0  0  0
    3.7425    2.6388    0.0000 C   0  0  0  0  0  0  0  0  0  0  0  0
    3.9041    1.1475    0.0000 C   0  0  0  0  0  0  0  0  0  0  0  0
    2.5318    1.7531    0.0000 C   0  0  0  0  0  0  0  0  0  0  0  0
    2.6935    0.2619    0.0000 C   0  0  0  0  0  0  0  0  0  0  0  0
    1.3212    0.8675    0.0000 C   0  0  0  0  0  0  0  0  0  0  0  0
    0.1105   -0.0181    0.0000 C   0  0  0  0  0  0  0  0  0  0  0  0
   -1.2618    0.5875    0.0000 O   0  0  0  0  0  0  0  0  0  0  0  0
    0.2722   -1.5094    0.0000 C   0  0  0  0  0  0  0  0  0  0  0  0
   -1.1559   -1.0505    0.0000 C   0  0  0  0  0  0  0  0  0  0  0  0
  2  1  1  6
  2  3  1  0
  3  4  1  0
  4  5  1  0
  5  6  2  0
  5  7  1  0
  7  8  1  0
  8  9  1  0
  9 10  2  0
  9 11  1  0
  2 12  1  0
 12 13  1  6
 13 14  1  0
 15 14  1  6
 15 16  1  0
 16 17  1  1
 17 18  1  6
 17 19  1  0
 20 19  1  1
 20 21  1  0
 21 22  1  0
 22 23  1  1
 22 24  1  0
 24 25  1  0
 25 26  1  0
 26 27  1  6
 26 28  1  0
 28 29  1  6
 29 30  1  0
 30 31  1  1
 30 32  1  0
 32 33  1  6
 32 12  1  0
 32 15  1  0
 28 16  1  0
 26 20  1  0
M  END
>  <MS_ID>  (58) 
MS0060

>  <SMILES>  (58) 
C[C@H](CCC(=O)CCC(=O)O)[C@H]1CC[C@H]2[C@@H]3[C@@H](O)C[C@@H]4C[C@H](O)CC[C@]4(C)[C@H]3C[C@H](O)[C@]12C

>  <Structure_dimension>  (58) 
2D

$$$$
MS0061
     RDKit          2D

 29 32  0  0  0  0  0  0  0  0999 V2000
   -7.4712    3.6525    0.0000 C   0  0  0  0  0  0  0  0  0  0  0  0
   -7.1264    2.1927    0.0000 O   0  0  0  0  0  0  0  0  0  0  0  0
   -5.6897    1.7615    0.0000 C   0  0  0  0  0  0  0  0  0  0  0  0
   -4.5979    2.7900    0.0000 O   0  0  0  0  0  0  0  0  0  0  0  0
   -5.3448    0.3016    0.0000 C   0  0  0  0  0  0  0  0  0  0  0  0
   -3.9081   -0.1296    0.0000 C   0  0  0  0  0  0  0  0  0  0  0  0
   -3.5633   -1.5894    0.0000 C   0  0  0  0  0  0  0  0  0  0  0  0
   -4.6551   -2.6180    0.0000 C   0  0  0  0  0  0  0  0  0  0  0  0
   -2.1266   -2.0207    0.0000 C   0  0  0  0  0  0  0  0  0  0  0  0
   -1.6310   -3.4364    0.0000 C   0  0  0  0  0  0  0  0  0  0  0  0
   -0.1314   -3.4026    0.0000 C   0  0  0  0  0  0  0  0  0  0  0  0
    0.2998   -1.9659    0.0000 C   0  0  0  0  0  0  0  0  0  0  0  0
    1.6561   -1.3251    0.0000 C   0  0  0  0  0  0  0  0  0  0  0  0
    2.8892   -2.1792    0.0000 C   0  0  0  0  0  0  0  0  0  0  0  0
    2.7660   -3.6741    0.0000 O   0  0  0  0  0  0  0  0  0  0  0  0
    4.2454   -1.5383    0.0000 C   0  0  0  0  0  0  0  0  0  0  0  0
    4.3685   -0.0434    0.0000 C   0  0  0  0  0  0  0  0  0  0  0  0
    5.7247    0.5975    0.0000 C   0  0  0  0  0  0  0  0  0  0  0  0
    5.8478    2.0924    0.0000 C   0  0  0  0  0  0  0  0  0  0  0  0
    7.2040    2.7332    0.0000 O   0  0  0  0  0  0  0  0  0  0  0  0
    4.6147    2.9465    0.0000 C   0  0  0  0  0  0  0  0  0  0  0  0
    3.2585    2.3056    0.0000 C   0  0  0  0  0  0  0  0  0  0  0  0
    3.1354    0.8107    0.0000 C   0  0  0  0  0  0  0  0  0  0  0  0
    1.9023    1.6648    0.0000 C   0  0  0  0  0  0  0  0  0  0  0  0
    1.7792    0.1699    0.0000 C   0  0  0  0  0  0  0  0  0  0  0  0
    0.5461    1.0239    0.0000 C   0  0  0  0  0  0  0  0  0  0  0  0
   -0.8101    0.3831    0.0000 C   0  0  0  0  0  0  0  0  0  0  0  0
   -0.9333   -1.1118    0.0000 C   0  0  0  0  0  0  0  0  0  0  0  0
   -2.2489   -0.3913    0.0000 C   0  0  0  0  0  0  0  0  0  0  0  0
  1  2  1  0
  2  3  1  0
  3  4  2  0
  3  5  1  0
  5  6  1  0
  6  7  1  0
  7  8  1  6
  7  9  1  0
  9 10  1  6
 10 11  1  0
 12 11  1  6
 12 13  1  0
 13 14  1  1
 14 15  1  1
 14 16  1  0
 17 16  1  1
 17 18  1  0
 18 19  1  0
 19 20  2  0
 19 21  1  0
 21 22  1  0
 22 23  1  0
 23 24  1  6
 23 25  1  0
 25 26  1  6
 26 27  1  0
 27 28  1  0
 28 29  1  6
 28  9  1  0
 28 12  1  0
 25 13  1  0
 23 17  1  0
M  END
>  <MS_ID>  (59) 
MS0061

>  <SMILES>  (59) 
COC(=O)CC[C@@H](C)[C@H]1CC[C@H]2[C@@H]3[C@H](O)C[C@@H]4CC(=O)CC[C@]4(C)[C@H]3CC[C@]12C

>  <Structure_dimension>  (59) 
2D

$$$$
MS0062
     RDKit          2D

 31 34  0  0  0  0  0  0  0  0999 V2000
   -3.7132   -3.4566    0.0000 C   0  0  0  0  0  0  0  0  0  0  0  0
   -2.7767   -2.2848    0.0000 C   0  0  0  0  0  0  0  0  0  0  0  0
   -3.3232   -0.8879    0.0000 C   0  0  0  0  0  0  0  0  0  0  0  0
   -4.8062   -0.6628    0.0000 C   0  0  0  0  0  0  0  0  0  0  0  0
   -5.3527    0.7341    0.0000 C   0  0  0  0  0  0  0  0  0  0  0  0
   -4.4162    1.9059    0.0000 O   0  0  0  0  0  0  0  0  0  0  0  0
   -6.8357    0.9593    0.0000 C   0  0  0  0  0  0  0  0  0  0  0  0
   -7.3822    2.3562    0.0000 C   0  0  0  0  0  0  0  0  0  0  0  0
   -6.4457    3.5279    0.0000 O   0  0  0  0  0  0  0  0  0  0  0  0
   -8.8652    2.5814    0.0000 O   0  0  0  0  0  0  0  0  0  0  0  0
   -1.2937   -2.5100    0.0000 C   0  0  0  0  0  0  0  0  0  0  0  0
   -0.6042   -3.8421    0.0000 C   0  0  0  0  0  0  0  0  0  0  0  0
    0.8758   -3.5980    0.0000 C   0  0  0  0  0  0  0  0  0  0  0  0
    1.1010   -2.1150    0.0000 C   0  0  0  0  0  0  0  0  0  0  0  0
    2.3537   -1.2900    0.0000 C   0  0  0  0  0  0  0  0  0  0  0  0
    3.6946   -1.9624    0.0000 C   0  0  0  0  0  0  0  0  0  0  0  0
    3.7827   -3.4598    0.0000 O   0  0  0  0  0  0  0  0  0  0  0  0
    4.9473   -1.1374    0.0000 C   0  0  0  0  0  0  0  0  0  0  0  0
    4.8592    0.3600    0.0000 C   0  0  0  0  0  0  0  0  0  0  0  0
    6.1120    1.1850    0.0000 C   0  0  0  0  0  0  0  0  0  0  0  0
    6.0239    2.6824    0.0000 C   0  0  0  0  0  0  0  0  0  0  0  0
    7.2767    3.5074    0.0000 O   0  0  0  0  0  0  0  0  0  0  0  0
    4.6831    3.3548    0.0000 C   0  0  0  0  0  0  0  0  0  0  0  0
    3.4303    2.5298    0.0000 C   0  0  0  0  0  0  0  0  0  0  0  0
    3.5184    1.0324    0.0000 C   0  0  0  0  0  0  0  0  0  0  0  0
    2.1776    1.7048    0.0000 C   0  0  0  0  0  0  0  0  0  0  0  0
    2.2656    0.2074    0.0000 C   0  0  0  0  0  0  0  0  0  0  0  0
    0.9248    0.8798    0.0000 C   0  0  0  0  0  0  0  0  0  0  0  0
   -0.3279    0.0548    0.0000 C   0  0  0  0  0  0  0  0  0  0  0  0
   -0.2399   -1.4426    0.0000 C   0  0  0  0  0  0  0  0  0  0  0  0
   -1.6436   -0.9140    0.0000 C   0  0  0  0  0  0  0  0  0  0  0  0
  2  1  1  6
  2  3  1  0
  3  4  1  0
  4  5  1  0
  5  6  2  0
  5  7  1  0
  7  8  1  0
  8  9  2  0
  8 10  1  0
  2 11  1  0
 11 12  1  6
 12 13  1  0
 14 13  1  6
 14 15  1  0
 15 16  1  1
 16 17  1  6
 16 18  1  0
 19 18  1  1
 19 20  1  0
 20 21  1  0
 21 22  1  1
 21 23  1  0
 23 24  1  0
 24 25  1  0
 25 26  1  6
 25 27  1  0
 27 28  1  6
 28 29  1  0
 29 30  1  0
 30 31  1  6
 30 11  1  0
 30 14  1  0
 27 15  1  0
 25 19  1  0
M  END
>  <MS_ID>  (60) 
MS0062

>  <SMILES>  (60) 
C[C@H](CCC(=O)CC(=O)O)[C@H]1CC[C@H]2[C@@H]3[C@@H](O)C[C@@H]4C[C@H](O)CC[C@]4(C)[C@H]3CC[C@]12C

>  <Structure_dimension>  (60) 
2D

$$$$
MS0063
     RDKit          2D

 34 37  0  0  0  0  0  0  0  0999 V2000
   -2.1579   -4.3331    0.0000 C   0  0  0  0  0  0  0  0  0  0  0  0
   -1.4309   -3.0210    0.0000 C   0  0  0  0  0  0  0  0  0  0  0  0
   -2.2036   -1.7354    0.0000 C   0  0  0  0  0  0  0  0  0  0  0  0
   -3.7034   -1.7618    0.0000 C   0  0  0  0  0  0  0  0  0  0  0  0
   -4.4761   -0.4762    0.0000 C   0  0  0  0  0  0  0  0  0  0  0  0
   -3.7491    0.8359    0.0000 O   0  0  0  0  0  0  0  0  0  0  0  0
   -5.9759   -0.5026    0.0000 N   0  0  0  0  0  0  0  0  0  0  0  0
   -6.7486    0.7831    0.0000 C   0  0  0  0  0  0  0  0  0  0  0  0
   -8.2484    0.7567    0.0000 C   0  0  0  0  0  0  0  0  0  0  0  0
   -9.0212    2.0423    0.0000 S   0  0  0  0  0  0  0  0  0  0  0  0
  -10.3068    1.2696    0.0000 O   0  0  0  0  0  0  0  0  0  0  0  0
   -7.7355    2.8151    0.0000 O   0  0  0  0  0  0  0  0  0  0  0  0
   -9.7939    3.3280    0.0000 O   0  0  0  0  0  0  0  0  0  0  0  0
    0.0689   -2.9946    0.0000 C   0  0  0  0  0  0  0  0  0  0  0  0
    0.9718   -4.1925    0.0000 C   0  0  0  0  0  0  0  0  0  0  0  0
    2.3900   -3.7039    0.0000 C   0  0  0  0  0  0  0  0  0  0  0  0
    2.3636   -2.2041    0.0000 C   0  0  0  0  0  0  0  0  0  0  0  0
    3.4605   -1.1810    0.0000 C   0  0  0  0  0  0  0  0  0  0  0  0
    4.8950   -1.6193    0.0000 C   0  0  0  0  0  0  0  0  0  0  0  0
    5.9919   -0.5962    0.0000 C   0  0  0  0  0  0  0  0  0  0  0  0
    7.4264   -1.0345    0.0000 O   0  0  0  0  0  0  0  0  0  0  0  0
    5.6542    0.8653    0.0000 C   0  0  0  0  0  0  0  0  0  0  0  0
    6.7511    1.8885    0.0000 C   0  0  0  0  0  0  0  0  0  0  0  0
    6.4135    3.3500    0.0000 C   0  0  0  0  0  0  0  0  0  0  0  0
    7.5104    4.3731    0.0000 O   0  0  0  0  0  0  0  0  0  0  0  0
    4.9790    3.7883    0.0000 C   0  0  0  0  0  0  0  0  0  0  0  0
    3.8821    2.7652    0.0000 C   0  0  0  0  0  0  0  0  0  0  0  0
    4.2197    1.3037    0.0000 C   0  0  0  0  0  0  0  0  0  0  0  0
    2.7852    1.7420    0.0000 C   0  0  0  0  0  0  0  0  0  0  0  0
    3.1228    0.2805    0.0000 C   0  0  0  0  0  0  0  0  0  0  0  0
    1.6883    0.7189    0.0000 C   0  0  0  0  0  0  0  0  0  0  0  0
    0.5914   -0.3043    0.0000 C   0  0  0  0  0  0  0  0  0  0  0  0
    0.9291   -1.7658    0.0000 C   0  0  0  0  0  0  0  0  0  0  0  0
   -0.5434   -1.4798    0.0000 C   0  0  0  0  0  0  0  0  0  0  0  0
  2  1  1  6
  2  3  1  0
  3  4  1  0
  4  5  1  0
  5  6  2  0
  5  7  1  0
  7  8  1  0
  8  9  1  0
  9 10  1  0
 10 11  2  0
 10 12  2  0
 10 13  1  0
  2 14  1  0
 14 15  1  6
 15 16  1  0
 17 16  1  6
 17 18  1  0
 18 19  1  1
 19 20  1  0
 20 21  1  1
 20 22  1  0
 22 23  1  1
 23 24  1  0
 24 25  1  1
 24 26  1  0
 26 27  1  0
 27 28  1  0
 28 29  1  6
 28 30  1  0
 30 31  1  6
 31 32  1  0
 32 33  1  0
 33 34  1  6
 33 14  1  0
 33 17  1  0
 30 18  1  0
 28 22  1  0
M  END
>  <MS_ID>  (61) 
MS0063

>  <SMILES>  (61) 
C[C@H](CCC(=O)NCCS(=O)(=O)O)[C@H]1CC[C@H]2[C@@H]3C[C@H](O)[C@@H]4C[C@H](O)CC[C@]4(C)[C@H]3CC[C@]12C

>  <Structure_dimension>  (61) 
2D

$$$$
MS0064
     RDKit          2D

 33 36  0  0  0  0  0  0  0  0999 V2000
   -2.4343   -4.1694    0.0000 C   0  0  0  0  0  0  0  0  0  0  0  0
   -1.6856   -2.8696    0.0000 C   0  0  0  0  0  0  0  0  0  0  0  0
   -2.4369   -1.5713    0.0000 C   0  0  0  0  0  0  0  0  0  0  0  0
   -3.9369   -1.5728    0.0000 C   0  0  0  0  0  0  0  0  0  0  0  0
   -4.6882   -0.2745    0.0000 C   0  0  0  0  0  0  0  0  0  0  0  0
   -3.9395    1.0253    0.0000 O   0  0  0  0  0  0  0  0  0  0  0  0
   -6.1882   -0.2760    0.0000 N   0  0  0  0  0  0  0  0  0  0  0  0
   -6.9395    1.0223    0.0000 C   0  0  0  0  0  0  0  0  0  0  0  0
   -8.4395    1.0208    0.0000 C   0  0  0  0  0  0  0  0  0  0  0  0
   -9.1908    2.3191    0.0000 C   0  0  0  0  0  0  0  0  0  0  0  0
   -8.4421    3.6189    0.0000 O   0  0  0  0  0  0  0  0  0  0  0  0
  -10.6908    2.3176    0.0000 O   0  0  0  0  0  0  0  0  0  0  0  0
   -0.1856   -2.8681    0.0000 C   0  0  0  0  0  0  0  0  0  0  0  0
    0.6973   -4.0807    0.0000 C   0  0  0  0  0  0  0  0  0  0  0  0
    2.1234   -3.6158    0.0000 C   0  0  0  0  0  0  0  0  0  0  0  0
    2.1219   -2.1158    0.0000 C   0  0  0  0  0  0  0  0  0  0  0  0
    3.2356   -1.1109    0.0000 C   0  0  0  0  0  0  0  0  0  0  0  0
    4.6626   -1.5730    0.0000 C   0  0  0  0  0  0  0  0  0  0  0  0
    4.9760   -3.0399    0.0000 O   0  0  0  0  0  0  0  0  0  0  0  0
    5.7764   -0.5682    0.0000 C   0  0  0  0  0  0  0  0  0  0  0  0
    5.4630    0.8987    0.0000 C   0  0  0  0  0  0  0  0  0  0  0  0
    6.5767    1.9035    0.0000 C   0  0  0  0  0  0  0  0  0  0  0  0
    6.2634    3.3704    0.0000 C   0  0  0  0  0  0  0  0  0  0  0  0
    7.3771    4.3752    0.0000 O   0  0  0  0  0  0  0  0  0  0  0  0
    4.8363    3.8325    0.0000 C   0  0  0  0  0  0  0  0  0  0  0  0
    3.7226    2.8277    0.0000 C   0  0  0  0  0  0  0  0  0  0  0  0
    4.0360    1.3608    0.0000 C   0  0  0  0  0  0  0  0  0  0  0  0
    2.6089    1.8229    0.0000 C   0  0  0  0  0  0  0  0  0  0  0  0
    2.9223    0.3560    0.0000 C   0  0  0  0  0  0  0  0  0  0  0  0
    1.4952    0.8181    0.0000 C   0  0  0  0  0  0  0  0  0  0  0  0
    0.3815   -0.1867    0.0000 C   0  0  0  0  0  0  0  0  0  0  0  0
    0.6948   -1.6537    0.0000 C   0  0  0  0  0  0  0  0  0  0  0  0
   -0.7727   -1.3433    0.0000 C   0  0  0  0  0  0  0  0  0  0  0  0
  2  1  1  6
  2  3  1  0
  3  4  1  0
  4  5  1  0
  5  6  2  0
  5  7  1  0
  7  8  1  0
  8  9  1  0
  9 10  1  0
 10 11  2  0
 10 12  1  0
  2 13  1  0
 13 14  1  6
 14 15  1  0
 16 15  1  6
 16 17  1  0
 17 18  1  1
 18 19  1  6
 18 20  1  0
 21 20  1  1
 21 22  1  0
 22 23  1  0
 23 24  1  1
 23 25  1  0
 25 26  1  0
 26 27  1  0
 27 28  1  6
 27 29  1  0
 29 30  1  6
 30 31  1  0
 31 32  1  0
 32 33  1  6
 32 13  1  0
 32 16  1  0
 29 17  1  0
 27 21  1  0
M  END
>  <MS_ID>  (62) 
MS0064

>  <SMILES>  (62) 
C[C@H](CCC(=O)NCCC(=O)O)[C@H]1CC[C@H]2[C@@H]3[C@@H](O)C[C@@H]4C[C@H](O)CC[C@]4(C)[C@H]3CC[C@]12C

>  <Structure_dimension>  (62) 
2D

$$$$
MS0066
     RDKit          2D

 32 35  0  0  0  0  0  0  0  0999 V2000
   -3.6519   -3.4889    0.0000 C   0  0  0  0  0  0  0  0  0  0  0  0
   -2.7185   -2.3147    0.0000 C   0  0  0  0  0  0  0  0  0  0  0  0
   -3.2687   -0.9192    0.0000 C   0  0  0  0  0  0  0  0  0  0  0  0
   -4.7523   -0.6980    0.0000 C   0  0  0  0  0  0  0  0  0  0  0  0
   -5.3024    0.6975    0.0000 C   0  0  0  0  0  0  0  0  0  0  0  0
   -4.3690    1.8717    0.0000 O   0  0  0  0  0  0  0  0  0  0  0  0
   -6.7860    0.9188    0.0000 C   0  0  0  0  0  0  0  0  0  0  0  0
   -7.3362    2.3142    0.0000 C   0  0  0  0  0  0  0  0  0  0  0  0
   -6.4028    3.4884    0.0000 O   0  0  0  0  0  0  0  0  0  0  0  0
   -8.8198    2.5355    0.0000 O   0  0  0  0  0  0  0  0  0  0  0  0
   -1.2349   -2.5360    0.0000 C   0  0  0  0  0  0  0  0  0  0  0  0
   -0.5419   -3.8663    0.0000 C   0  0  0  0  0  0  0  0  0  0  0  0
    0.9375   -3.6183    0.0000 C   0  0  0  0  0  0  0  0  0  0  0  0
    1.1587   -2.1347    0.0000 C   0  0  0  0  0  0  0  0  0  0  0  0
    2.4093   -1.3064    0.0000 C   0  0  0  0  0  0  0  0  0  0  0  0
    3.7519   -1.9753    0.0000 C   0  0  0  0  0  0  0  0  0  0  0  0
    3.8439   -3.4725    0.0000 O   0  0  0  0  0  0  0  0  0  0  0  0
    5.0025   -1.1470    0.0000 C   0  0  0  0  0  0  0  0  0  0  0  0
    4.9105    0.3502    0.0000 C   0  0  0  0  0  0  0  0  0  0  0  0
    6.1611    1.1784    0.0000 C   0  0  0  0  0  0  0  0  0  0  0  0
    6.0690    2.6756    0.0000 C   0  0  0  0  0  0  0  0  0  0  0  0
    7.3196    3.5039    0.0000 O   0  0  0  0  0  0  0  0  0  0  0  0
    4.7264    3.3445    0.0000 C   0  0  0  0  0  0  0  0  0  0  0  0
    3.4759    2.5162    0.0000 C   0  0  0  0  0  0  0  0  0  0  0  0
    3.5679    1.0191    0.0000 C   0  0  0  0  0  0  0  0  0  0  0  0
    2.2253    1.6879    0.0000 C   0  0  0  0  0  0  0  0  0  0  0  0
    2.3173    0.1908    0.0000 C   0  0  0  0  0  0  0  0  0  0  0  0
    0.9747    0.8597    0.0000 C   0  0  0  0  0  0  0  0  0  0  0  0
   -0.2759    0.0314    0.0000 C   0  0  0  0  0  0  0  0  0  0  0  0
   -1.6185    0.7003    0.0000 O   0  0  0  0  0  0  0  0  0  0  0  0
   -0.1839   -1.4658    0.0000 C   0  0  0  0  0  0  0  0  0  0  0  0
   -1.5890   -0.9409    0.0000 C   0  0  0  0  0  0  0  0  0  0  0  0
  2  1  1  6
  2  3  1  0
  3  4  1  0
  4  5  1  0
  5  6  2  0
  5  7  1  0
  7  8  1  0
  8  9  2  0
  8 10  1  0
  2 11  1  0
 11 12  1  6
 12 13  1  0
 14 13  1  6
 14 15  1  0
 15 16  1  1
 16 17  1  1
 16 18  1  0
 19 18  1  1
 19 20  1  0
 20 21  1  0
 21 22  1  1
 21 23  1  0
 23 24  1  0
 24 25  1  0
 25 26  1  6
 25 27  1  0
 27 28  1  6
 28 29  1  0
 29 30  1  1
 29 31  1  0
 31 32  1  6
 31 11  1  0
 31 14  1  0
 27 15  1  0
 25 19  1  0
M  END
>  <MS_ID>  (63) 
MS0066

>  <SMILES>  (63) 
C[C@H](CCC(=O)CC(=O)O)[C@H]1CC[C@H]2[C@@H]3[C@H](O)C[C@@H]4C[C@H](O)CC[C@]4(C)[C@H]3C[C@H](O)[C@]12C

>  <Structure_dimension>  (63) 
2D

$$$$
MS0067
     RDKit          2D

 34 37  0  0  0  0  0  0  0  0999 V2000
   -4.5591   -3.1044    0.0000 C   0  0  0  0  0  0  0  0  0  0  0  0
   -3.7031   -1.8727    0.0000 C   0  0  0  0  0  0  0  0  0  0  0  0
   -4.3419   -0.5155    0.0000 C   0  0  0  0  0  0  0  0  0  0  0  0
   -5.8366   -0.3901    0.0000 C   0  0  0  0  0  0  0  0  0  0  0  0
   -6.4754    0.9671    0.0000 C   0  0  0  0  0  0  0  0  0  0  0  0
   -5.6194    2.1989    0.0000 O   0  0  0  0  0  0  0  0  0  0  0  0
   -7.9702    1.0925    0.0000 C   0  0  0  0  0  0  0  0  0  0  0  0
   -8.6089    2.4497    0.0000 O   0  0  0  0  0  0  0  0  0  0  0  0
   -2.2084   -1.9981    0.0000 C   0  0  0  0  0  0  0  0  0  0  0  0
   -1.4312   -3.2811    0.0000 C   0  0  0  0  0  0  0  0  0  0  0  0
    0.0291   -2.9384    0.0000 C   0  0  0  0  0  0  0  0  0  0  0  0
    0.1545   -1.4437    0.0000 C   0  0  0  0  0  0  0  0  0  0  0  0
    1.3492   -0.5367    0.0000 C   0  0  0  0  0  0  0  0  0  0  0  0
    2.7321   -1.1179    0.0000 C   0  0  0  0  0  0  0  0  0  0  0  0
    2.9202   -2.6060    0.0000 O   0  0  0  0  0  0  0  0  0  0  0  0
    4.3030   -3.1872    0.0000 S   0  0  0  0  0  0  0  0  0  0  0  0
    4.8842   -1.8043    0.0000 O   0  0  0  0  0  0  0  0  0  0  0  0
    3.7218   -4.5700    0.0000 O   0  0  0  0  0  0  0  0  0  0  0  0
    5.6859   -3.7684    0.0000 O   0  0  0  0  0  0  0  0  0  0  0  0
    3.9268   -0.2109    0.0000 C   0  0  0  0  0  0  0  0  0  0  0  0
    3.7387    1.2773    0.0000 C   0  0  0  0  0  0  0  0  0  0  0  0
    4.9334    2.1843    0.0000 C   0  0  0  0  0  0  0  0  0  0  0  0
    4.7453    3.6724    0.0000 C   0  0  0  0  0  0  0  0  0  0  0  0
    5.9400    4.5794    0.0000 O   0  0  0  0  0  0  0  0  0  0  0  0
    3.3625    4.2536    0.0000 C   0  0  0  0  0  0  0  0  0  0  0  0
    2.1677    3.3466    0.0000 C   0  0  0  0  0  0  0  0  0  0  0  0
    2.3559    1.8585    0.0000 C   0  0  0  0  0  0  0  0  0  0  0  0
    0.9730    2.4396    0.0000 C   0  0  0  0  0  0  0  0  0  0  0  0
    1.1611    0.9515    0.0000 C   0  0  0  0  0  0  0  0  0  0  0  0
   -0.2217    1.5326    0.0000 C   0  0  0  0  0  0  0  0  0  0  0  0
   -1.4164    0.6257    0.0000 C   0  0  0  0  0  0  0  0  0  0  0  0
   -2.7993    1.2068    0.0000 O   0  0  0  0  0  0  0  0  0  0  0  0
   -1.2283   -0.8625    0.0000 C   0  0  0  0  0  0  0  0  0  0  0  0
   -2.6643   -0.4291    0.0000 C   0  0  0  0  0  0  0  0  0  0  0  0
  2  1  1  6
  2  3  1  0
  3  4  1  0
  4  5  1  0
  5  6  2  0
  5  7  1  0
  7  8  1  0
  2  9  1  0
  9 10  1  6
 10 11  1  0
 12 11  1  6
 12 13  1  0
 13 14  1  1
 14 15  1  1
 15 16  1  0
 16 17  2  0
 16 18  2  0
 16 19  1  0
 14 20  1  0
 21 20  1  1
 21 22  1  0
 22 23  1  0
 23 24  1  1
 23 25  1  0
 25 26  1  0
 26 27  1  0
 27 28  1  6
 27 29  1  0
 29 30  1  6
 30 31  1  0
 31 32  1  1
 31 33  1  0
 33 34  1  6
 33  9  1  0
 33 12  1  0
 29 13  1  0
 27 21  1  0
M  END
>  <MS_ID>  (64) 
MS0067

>  <SMILES>  (64) 
C[C@H](CCC(=O)CO)[C@H]1CC[C@H]2[C@@H]3[C@H](OS(=O)(=O)O)C[C@@H]4C[C@H](O)CC[C@]4(C)[C@H]3C[C@H](O)[C@]12C

>  <Structure_dimension>  (64) 
2D

$$$$
MS0068
     RDKit          2D

 34 37  0  0  0  0  0  0  0  0999 V2000
   -2.5086   -4.2168    0.0000 C   0  0  0  0  0  0  0  0  0  0  0  0
   -1.7489   -2.9234    0.0000 C   0  0  0  0  0  0  0  0  0  0  0  0
   -2.4892   -1.6188    0.0000 C   0  0  0  0  0  0  0  0  0  0  0  0
   -3.9892   -1.6076    0.0000 C   0  0  0  0  0  0  0  0  0  0  0  0
   -4.7295   -0.3030    0.0000 C   0  0  0  0  0  0  0  0  0  0  0  0
   -3.9698    0.9904    0.0000 O   0  0  0  0  0  0  0  0  0  0  0  0
   -6.2294   -0.2918    0.0000 N   0  0  0  0  0  0  0  0  0  0  0  0
   -6.9697    1.0128    0.0000 C   0  0  0  0  0  0  0  0  0  0  0  0
   -8.4697    1.0240    0.0000 C   0  0  0  0  0  0  0  0  0  0  0  0
   -9.2100    2.3286    0.0000 O   0  0  0  0  0  0  0  0  0  0  0  0
   -6.2100    2.3062    0.0000 C   0  0  0  0  0  0  0  0  0  0  0  0
   -4.7101    2.2950    0.0000 O   0  0  0  0  0  0  0  0  0  0  0  0
   -6.9503    3.6108    0.0000 O   0  0  0  0  0  0  0  0  0  0  0  0
   -0.2490   -2.9346    0.0000 C   0  0  0  0  0  0  0  0  0  0  0  0
    0.6236   -4.1547    0.0000 C   0  0  0  0  0  0  0  0  0  0  0  0
    2.0536   -3.7018    0.0000 C   0  0  0  0  0  0  0  0  0  0  0  0
    2.0648   -2.2018    0.0000 C   0  0  0  0  0  0  0  0  0  0  0  0
    3.1870   -1.2065    0.0000 C   0  0  0  0  0  0  0  0  0  0  0  0
    4.6101   -1.6806    0.0000 C   0  0  0  0  0  0  0  0  0  0  0  0
    4.9110   -3.1501    0.0000 O   0  0  0  0  0  0  0  0  0  0  0  0
    5.7323   -0.6853    0.0000 C   0  0  0  0  0  0  0  0  0  0  0  0
    5.4313    0.7842    0.0000 C   0  0  0  0  0  0  0  0  0  0  0  0
    6.5535    1.7796    0.0000 C   0  0  0  0  0  0  0  0  0  0  0  0
    6.2526    3.2491    0.0000 C   0  0  0  0  0  0  0  0  0  0  0  0
    7.3748    4.2444    0.0000 O   0  0  0  0  0  0  0  0  0  0  0  0
    4.8295    3.7232    0.0000 C   0  0  0  0  0  0  0  0  0  0  0  0
    3.7074    2.7279    0.0000 C   0  0  0  0  0  0  0  0  0  0  0  0
    4.0083    1.2584    0.0000 C   0  0  0  0  0  0  0  0  0  0  0  0
    2.5852    1.7325    0.0000 C   0  0  0  0  0  0  0  0  0  0  0  0
    2.8861    0.2630    0.0000 C   0  0  0  0  0  0  0  0  0  0  0  0
    1.4630    0.7372    0.0000 C   0  0  0  0  0  0  0  0  0  0  0  0
    0.3408   -0.2582    0.0000 C   0  0  0  0  0  0  0  0  0  0  0  0
    0.6417   -1.7277    0.0000 C   0  0  0  0  0  0  0  0  0  0  0  0
   -0.8231   -1.4049    0.0000 C   0  0  0  0  0  0  0  0  0  0  0  0
  2  1  1  6
  2  3  1  0
  3  4  1  0
  4  5  1  0
  5  6  2  0
  5  7  1  0
  7  8  1  0
  8  9  1  1
  9 10  1  0
  8 11  1  0
 11 12  2  0
 11 13  1  0
  2 14  1  0
 14 15  1  6
 15 16  1  0
 17 16  1  6
 17 18  1  0
 18 19  1  1
 19 20  1  1
 19 21  1  0
 22 21  1  1
 22 23  1  0
 23 24  1  0
 24 25  1  1
 24 26  1  0
 26 27  1  0
 27 28  1  0
 28 29  1  6
 28 30  1  0
 30 31  1  6
 31 32  1  0
 32 33  1  0
 33 34  1  6
 33 14  1  0
 33 17  1  0
 30 18  1  0
 28 22  1  0
M  END
>  <MS_ID>  (65) 
MS0068

>  <SMILES>  (65) 
C[C@H](CCC(=O)N[C@@H](CO)C(=O)O)[C@H]1CC[C@H]2[C@@H]3[C@H](O)C[C@@H]4C[C@H](O)CC[C@]4(C)[C@H]3CC[C@]12C

>  <Structure_dimension>  (65) 
2D

$$$$
MS0069
     RDKit          2D

 33 36  0  0  0  0  0  0  0  0999 V2000
   -3.2878   -3.6766    0.0000 C   0  0  0  0  0  0  0  0  0  0  0  0
   -2.4284   -2.4472    0.0000 C   0  0  0  0  0  0  0  0  0  0  0  0
   -3.0634   -1.0882    0.0000 C   0  0  0  0  0  0  0  0  0  0  0  0
   -4.5578   -0.9586    0.0000 C   0  0  0  0  0  0  0  0  0  0  0  0
   -5.1928    0.4003    0.0000 C   0  0  0  0  0  0  0  0  0  0  0  0
   -4.3333    1.6297    0.0000 O   0  0  0  0  0  0  0  0  0  0  0  0
   -6.6871    0.5299    0.0000 C   0  0  0  0  0  0  0  0  0  0  0  0
   -7.3221    1.8889    0.0000 C   0  0  0  0  0  0  0  0  0  0  0  0
   -8.8165    2.0184    0.0000 C   0  0  0  0  0  0  0  0  0  0  0  0
   -9.6759    0.7890    0.0000 O   0  0  0  0  0  0  0  0  0  0  0  0
   -9.4515    3.3774    0.0000 O   0  0  0  0  0  0  0  0  0  0  0  0
   -0.9340   -2.5767    0.0000 C   0  0  0  0  0  0  0  0  0  0  0  0
   -0.1604   -3.8619    0.0000 C   0  0  0  0  0  0  0  0  0  0  0  0
    1.3009   -3.5233    0.0000 C   0  0  0  0  0  0  0  0  0  0  0  0
    1.4304   -2.0289    0.0000 C   0  0  0  0  0  0  0  0  0  0  0  0
    2.6277   -1.1253    0.0000 C   0  0  0  0  0  0  0  0  0  0  0  0
    4.0089   -1.7103    0.0000 C   0  0  0  0  0  0  0  0  0  0  0  0
    4.1929   -3.1990    0.0000 O   0  0  0  0  0  0  0  0  0  0  0  0
    5.2061   -0.8066    0.0000 C   0  0  0  0  0  0  0  0  0  0  0  0
    6.5874   -1.3916    0.0000 O   0  0  0  0  0  0  0  0  0  0  0  0
    5.0222    0.6820    0.0000 C   0  0  0  0  0  0  0  0  0  0  0  0
    6.2194    1.5857    0.0000 C   0  0  0  0  0  0  0  0  0  0  0  0
    6.0355    3.0744    0.0000 C   0  0  0  0  0  0  0  0  0  0  0  0
    7.2327    3.9780    0.0000 O   0  0  0  0  0  0  0  0  0  0  0  0
    4.6542    3.6594    0.0000 C   0  0  0  0  0  0  0  0  0  0  0  0
    3.4570    2.7557    0.0000 C   0  0  0  0  0  0  0  0  0  0  0  0
    3.6410    1.2671    0.0000 C   0  0  0  0  0  0  0  0  0  0  0  0
    2.2597    1.8521    0.0000 C   0  0  0  0  0  0  0  0  0  0  0  0
    2.4437    0.3634    0.0000 C   0  0  0  0  0  0  0  0  0  0  0  0
    1.0625    0.9484    0.0000 C   0  0  0  0  0  0  0  0  0  0  0  0
   -0.1347    0.0448    0.0000 C   0  0  0  0  0  0  0  0  0  0  0  0
    0.0492   -1.4439    0.0000 C   0  0  0  0  0  0  0  0  0  0  0  0
   -1.3856   -1.0065    0.0000 C   0  0  0  0  0  0  0  0  0  0  0  0
  2  1  1  6
  2  3  1  0
  3  4  1  0
  4  5  1  0
  5  6  2  0
  5  7  1  0
  7  8  1  0
  8  9  1  0
  9 10  2  0
  9 11  1  0
  2 12  1  0
 12 13  1  6
 13 14  1  0
 15 14  1  6
 15 16  1  0
 16 17  1  1
 17 18  1  1
 17 19  1  0
 19 20  1  1
 19 21  1  0
 21 22  1  1
 22 23  1  0
 23 24  1  1
 23 25  1  0
 25 26  1  0
 26 27  1  0
 27 28  1  6
 27 29  1  0
 29 30  1  6
 30 31  1  0
 31 32  1  0
 32 33  1  6
 32 12  1  0
 32 15  1  0
 29 16  1  0
 27 21  1  0
M  END
>  <MS_ID>  (66) 
MS0069

>  <SMILES>  (66) 
C[C@H](CCC(=O)CCC(=O)O)[C@H]1CC[C@H]2[C@@H]3[C@H](O)[C@H](O)[C@@H]4C[C@H](O)CC[C@]4(C)[C@H]3CC[C@]12C

>  <Structure_dimension>  (66) 
2D

$$$$
MS0070
     RDKit          2D

 28 31  0  0  0  0  0  0  0  0999 V2000
   -7.2657    3.7367    0.0000 C   0  0  0  0  0  0  0  0  0  0  0  0
   -6.9639    2.2673    0.0000 O   0  0  0  0  0  0  0  0  0  0  0  0
   -5.5405    1.7940    0.0000 C   0  0  0  0  0  0  0  0  0  0  0  0
   -4.4189    2.7900    0.0000 O   0  0  0  0  0  0  0  0  0  0  0  0
   -5.2387    0.3247    0.0000 C   0  0  0  0  0  0  0  0  0  0  0  0
   -3.8154   -0.1486    0.0000 C   0  0  0  0  0  0  0  0  0  0  0  0
   -3.5136   -1.6180    0.0000 C   0  0  0  0  0  0  0  0  0  0  0  0
   -4.6352   -2.6140    0.0000 C   0  0  0  0  0  0  0  0  0  0  0  0
   -2.0902   -2.0913    0.0000 C   0  0  0  0  0  0  0  0  0  0  0  0
   -1.6365   -3.5210    0.0000 C   0  0  0  0  0  0  0  0  0  0  0  0
   -0.1366   -3.5313    0.0000 C   0  0  0  0  0  0  0  0  0  0  0  0
    0.3368   -2.1080    0.0000 C   0  0  0  0  0  0  0  0  0  0  0  0
    1.7112   -1.5073    0.0000 C   0  0  0  0  0  0  0  0  0  0  0  0
    2.9187   -2.3973    0.0000 C   0  0  0  0  0  0  0  0  0  0  0  0
    4.2932   -1.7966    0.0000 C   0  0  0  0  0  0  0  0  0  0  0  0
    4.4602   -0.3060    0.0000 C   0  0  0  0  0  0  0  0  0  0  0  0
    5.8347    0.2947    0.0000 C   0  0  0  0  0  0  0  0  0  0  0  0
    6.0017    1.7854    0.0000 C   0  0  0  0  0  0  0  0  0  0  0  0
    7.3762    2.3861    0.0000 O   0  0  0  0  0  0  0  0  0  0  0  0
    4.7943    2.6754    0.0000 C   0  0  0  0  0  0  0  0  0  0  0  0
    3.4198    2.0747    0.0000 C   0  0  0  0  0  0  0  0  0  0  0  0
    3.2528    0.5840    0.0000 C   0  0  0  0  0  0  0  0  0  0  0  0
    2.0453    1.4740    0.0000 C   0  0  0  0  0  0  0  0  0  0  0  0
    1.8783   -0.0166    0.0000 C   0  0  0  0  0  0  0  0  0  0  0  0
    0.6708    0.8734    0.0000 C   0  0  0  0  0  0  0  0  0  0  0  0
   -0.7036    0.2727    0.0000 C   0  0  0  0  0  0  0  0  0  0  0  0
   -0.8707   -1.2180    0.0000 C   0  0  0  0  0  0  0  0  0  0  0  0
   -2.1645   -0.4591    0.0000 C   0  0  0  0  0  0  0  0  0  0  0  0
  1  2  1  0
  2  3  1  0
  3  4  2  0
  3  5  1  0
  5  6  1  0
  6  7  1  0
  7  8  1  6
  7  9  1  0
  9 10  1  6
 10 11  1  0
 12 11  1  6
 12 13  1  0
 13 14  1  1
 14 15  1  0
 16 15  1  6
 16 17  1  0
 17 18  1  0
 18 19  1  1
 18 20  1  0
 20 21  1  0
 21 22  1  0
 22 23  1  6
 22 24  1  0
 24 25  1  6
 25 26  1  0
 26 27  1  0
 27 28  1  6
 27  9  1  0
 27 12  1  0
 24 13  1  0
 22 16  1  0
M  END
>  <MS_ID>  (67) 
MS0070

>  <SMILES>  (67) 
COC(=O)CC[C@@H](C)[C@H]1CC[C@H]2[C@@H]3CC[C@H]4C[C@H](O)CC[C@]4(C)[C@H]3CC[C@]12C

>  <Structure_dimension>  (67) 
2D

$$$$
MS0071
     RDKit          2D

 28 31  0  0  0  0  0  0  0  0999 V2000
   -7.2657    3.7367    0.0000 C   0  0  0  0  0  0  0  0  0  0  0  0
   -6.9639    2.2673    0.0000 O   0  0  0  0  0  0  0  0  0  0  0  0
   -5.5405    1.7940    0.0000 C   0  0  0  0  0  0  0  0  0  0  0  0
   -4.4189    2.7900    0.0000 O   0  0  0  0  0  0  0  0  0  0  0  0
   -5.2387    0.3247    0.0000 C   0  0  0  0  0  0  0  0  0  0  0  0
   -3.8154   -0.1486    0.0000 C   0  0  0  0  0  0  0  0  0  0  0  0
   -3.5136   -1.6180    0.0000 C   0  0  0  0  0  0  0  0  0  0  0  0
   -4.6352   -2.6140    0.0000 C   0  0  0  0  0  0  0  0  0  0  0  0
   -2.0902   -2.0913    0.0000 C   0  0  0  0  0  0  0  0  0  0  0  0
   -1.6365   -3.5210    0.0000 C   0  0  0  0  0  0  0  0  0  0  0  0
   -0.1366   -3.5313    0.0000 C   0  0  0  0  0  0  0  0  0  0  0  0
    0.3368   -2.1080    0.0000 C   0  0  0  0  0  0  0  0  0  0  0  0
    1.7112   -1.5073    0.0000 C   0  0  0  0  0  0  0  0  0  0  0  0
    2.9187   -2.3973    0.0000 C   0  0  0  0  0  0  0  0  0  0  0  0
    4.2932   -1.7966    0.0000 C   0  0  0  0  0  0  0  0  0  0  0  0
    4.4602   -0.3060    0.0000 C   0  0  0  0  0  0  0  0  0  0  0  0
    5.8347    0.2947    0.0000 C   0  0  0  0  0  0  0  0  0  0  0  0
    6.0017    1.7854    0.0000 C   0  0  0  0  0  0  0  0  0  0  0  0
    7.3762    2.3861    0.0000 O   0  0  0  0  0  0  0  0  0  0  0  0
    4.7943    2.6754    0.0000 C   0  0  0  0  0  0  0  0  0  0  0  0
    3.4198    2.0747    0.0000 C   0  0  0  0  0  0  0  0  0  0  0  0
    3.2528    0.5840    0.0000 C   0  0  0  0  0  0  0  0  0  0  0  0
    2.0453    1.4740    0.0000 C   0  0  0  0  0  0  0  0  0  0  0  0
    1.8783   -0.0166    0.0000 C   0  0  0  0  0  0  0  0  0  0  0  0
    0.6708    0.8734    0.0000 C   0  0  0  0  0  0  0  0  0  0  0  0
   -0.7036    0.2727    0.0000 C   0  0  0  0  0  0  0  0  0  0  0  0
   -0.8707   -1.2180    0.0000 C   0  0  0  0  0  0  0  0  0  0  0  0
   -2.1645   -0.4591    0.0000 C   0  0  0  0  0  0  0  0  0  0  0  0
  1  2  1  0
  2  3  1  0
  3  4  2  0
  3  5  1  0
  5  6  1  0
  6  7  1  0
  7  8  1  6
  7  9  1  0
  9 10  1  6
 10 11  1  0
 12 11  1  6
 12 13  1  0
 13 14  1  1
 14 15  1  0
 16 15  1  1
 16 17  1  0
 17 18  1  0
 18 19  1  1
 18 20  1  0
 20 21  1  0
 21 22  1  0
 22 23  1  6
 22 24  1  0
 24 25  1  6
 25 26  1  0
 26 27  1  0
 27 28  1  6
 27  9  1  0
 27 12  1  0
 24 13  1  0
 22 16  1  0
M  END
>  <MS_ID>  (68) 
MS0071

>  <SMILES>  (68) 
COC(=O)CC[C@@H](C)[C@H]1CC[C@H]2[C@@H]3CC[C@@H]4C[C@H](O)CC[C@]4(C)[C@H]3CC[C@]12C

>  <Structure_dimension>  (68) 
2D

$$$$
MS0072
     RDKit          2D

 32 35  0  0  0  0  0  0  0  0999 V2000
   -3.6401   -3.7548    0.0000 C   0  0  0  0  0  0  0  0  0  0  0  0
   -2.6957   -2.5895    0.0000 C   0  0  0  0  0  0  0  0  0  0  0  0
   -3.2327   -1.1889    0.0000 C   0  0  0  0  0  0  0  0  0  0  0  0
   -4.7142   -0.9537    0.0000 C   0  0  0  0  0  0  0  0  0  0  0  0
   -5.2512    0.4469    0.0000 C   0  0  0  0  0  0  0  0  0  0  0  0
   -6.7327    0.6821    0.0000 O   0  0  0  0  0  0  0  0  0  0  0  0
   -4.3068    1.6122    0.0000 O   0  0  0  0  0  0  0  0  0  0  0  0
   -4.8438    3.0128    0.0000 S   0  0  0  0  0  0  0  0  0  0  0  0
   -6.2444    2.4758    0.0000 O   0  0  0  0  0  0  0  0  0  0  0  0
   -3.4433    3.5499    0.0000 O   0  0  0  0  0  0  0  0  0  0  0  0
   -5.3809    4.4134    0.0000 O   0  0  0  0  0  0  0  0  0  0  0  0
   -1.2142   -2.8246    0.0000 C   0  0  0  0  0  0  0  0  0  0  0  0
   -0.5337   -4.1614    0.0000 C   0  0  0  0  0  0  0  0  0  0  0  0
    0.9479   -3.9273    0.0000 C   0  0  0  0  0  0  0  0  0  0  0  0
    1.1831   -2.4459    0.0000 C   0  0  0  0  0  0  0  0  0  0  0  0
    2.4414   -1.6294    0.0000 C   0  0  0  0  0  0  0  0  0  0  0  0
    3.7776   -2.3108    0.0000 C   0  0  0  0  0  0  0  0  0  0  0  0
    5.0359   -1.4943    0.0000 C   0  0  0  0  0  0  0  0  0  0  0  0
    4.9580    0.0036    0.0000 C   0  0  0  0  0  0  0  0  0  0  0  0
    6.2163    0.8201    0.0000 C   0  0  0  0  0  0  0  0  0  0  0  0
    6.1383    2.3181    0.0000 C   0  0  0  0  0  0  0  0  0  0  0  0
    7.3966    3.1346    0.0000 O   0  0  0  0  0  0  0  0  0  0  0  0
    4.8021    2.9996    0.0000 C   0  0  0  0  0  0  0  0  0  0  0  0
    3.5438    2.1831    0.0000 C   0  0  0  0  0  0  0  0  0  0  0  0
    3.6217    0.6851    0.0000 C   0  0  0  0  0  0  0  0  0  0  0  0
    2.2855    1.3666    0.0000 C   0  0  0  0  0  0  0  0  0  0  0  0
    2.3634   -0.1314    0.0000 C   0  0  0  0  0  0  0  0  0  0  0  0
    1.0272    0.5501    0.0000 C   0  0  0  0  0  0  0  0  0  0  0  0
   -0.2311   -0.2664    0.0000 C   0  0  0  0  0  0  0  0  0  0  0  0
   -1.5674    0.4151    0.0000 O   0  0  0  0  0  0  0  0  0  0  0  0
   -0.1532   -1.7644    0.0000 C   0  0  0  0  0  0  0  0  0  0  0  0
   -1.5534   -1.2263    0.0000 C   0  0  0  0  0  0  0  0  0  0  0  0
  2  1  1  6
  2  3  1  0
  3  4  1  0
  4  5  1  0
  5  6  2  0
  5  7  1  0
  7  8  1  0
  8  9  2  0
  8 10  2  0
  8 11  1  0
  2 12  1  0
 12 13  1  6
 13 14  1  0
 15 14  1  6
 15 16  1  0
 16 17  1  1
 17 18  1  0
 19 18  1  1
 19 20  1  0
 20 21  1  0
 21 22  1  1
 21 23  1  0
 23 24  1  0
 24 25  1  0
 25 26  1  6
 25 27  1  0
 27 28  1  6
 28 29  1  0
 29 30  1  1
 29 31  1  0
 31 32  1  6
 31 12  1  0
 31 15  1  0
 27 16  1  0
 25 19  1  0
M  END
>  <MS_ID>  (69) 
MS0072

>  <SMILES>  (69) 
C[C@H](CCC(=O)OS(=O)(=O)O)[C@H]1CC[C@H]2[C@@H]3CC[C@@H]4C[C@H](O)CC[C@]4(C)[C@H]3C[C@H](O)[C@]12C

>  <Structure_dimension>  (69) 
2D

$$$$
MS0073
     RDKit          2D

 31 34  0  0  0  0  0  0  0  0999 V2000
   -3.7132   -3.4566    0.0000 C   0  0  0  0  0  0  0  0  0  0  0  0
   -2.7767   -2.2848    0.0000 C   0  0  0  0  0  0  0  0  0  0  0  0
   -3.3232   -0.8879    0.0000 C   0  0  0  0  0  0  0  0  0  0  0  0
   -4.8062   -0.6628    0.0000 C   0  0  0  0  0  0  0  0  0  0  0  0
   -5.3527    0.7341    0.0000 C   0  0  0  0  0  0  0  0  0  0  0  0
   -4.4162    1.9059    0.0000 O   0  0  0  0  0  0  0  0  0  0  0  0
   -6.8357    0.9593    0.0000 C   0  0  0  0  0  0  0  0  0  0  0  0
   -7.3822    2.3562    0.0000 C   0  0  0  0  0  0  0  0  0  0  0  0
   -6.4457    3.5279    0.0000 O   0  0  0  0  0  0  0  0  0  0  0  0
   -8.8652    2.5814    0.0000 O   0  0  0  0  0  0  0  0  0  0  0  0
   -1.2937   -2.5100    0.0000 C   0  0  0  0  0  0  0  0  0  0  0  0
   -0.6042   -3.8421    0.0000 C   0  0  0  0  0  0  0  0  0  0  0  0
    0.8758   -3.5980    0.0000 C   0  0  0  0  0  0  0  0  0  0  0  0
    1.1010   -2.1150    0.0000 C   0  0  0  0  0  0  0  0  0  0  0  0
    2.3537   -1.2900    0.0000 C   0  0  0  0  0  0  0  0  0  0  0  0
    3.6946   -1.9624    0.0000 C   0  0  0  0  0  0  0  0  0  0  0  0
    3.7827   -3.4598    0.0000 O   0  0  0  0  0  0  0  0  0  0  0  0
    4.9473   -1.1374    0.0000 C   0  0  0  0  0  0  0  0  0  0  0  0
    4.8592    0.3600    0.0000 C   0  0  0  0  0  0  0  0  0  0  0  0
    6.1120    1.1850    0.0000 C   0  0  0  0  0  0  0  0  0  0  0  0
    6.0239    2.6824    0.0000 C   0  0  0  0  0  0  0  0  0  0  0  0
    7.2767    3.5074    0.0000 O   0  0  0  0  0  0  0  0  0  0  0  0
    4.6831    3.3548    0.0000 C   0  0  0  0  0  0  0  0  0  0  0  0
    3.4303    2.5298    0.0000 C   0  0  0  0  0  0  0  0  0  0  0  0
    3.5184    1.0324    0.0000 C   0  0  0  0  0  0  0  0  0  0  0  0
    2.1776    1.7048    0.0000 C   0  0  0  0  0  0  0  0  0  0  0  0
    2.2656    0.2074    0.0000 C   0  0  0  0  0  0  0  0  0  0  0  0
    0.9248    0.8798    0.0000 C   0  0  0  0  0  0  0  0  0  0  0  0
   -0.3279    0.0548    0.0000 C   0  0  0  0  0  0  0  0  0  0  0  0
   -0.2399   -1.4426    0.0000 C   0  0  0  0  0  0  0  0  0  0  0  0
   -1.6436   -0.9140    0.0000 C   0  0  0  0  0  0  0  0  0  0  0  0
  2  1  1  6
  2  3  1  0
  3  4  1  0
  4  5  1  0
  5  6  2  0
  5  7  1  0
  7  8  1  0
  8  9  2  0
  8 10  1  0
  2 11  1  0
 11 12  1  6
 12 13  1  0
 14 13  1  6
 14 15  1  0
 15 16  1  1
 16 17  1  1
 16 18  1  0
 19 18  1  1
 19 20  1  0
 20 21  1  0
 21 22  1  1
 21 23  1  0
 23 24  1  0
 24 25  1  0
 25 26  1  6
 25 27  1  0
 27 28  1  6
 28 29  1  0
 29 30  1  0
 30 31  1  6
 30 11  1  0
 30 14  1  0
 27 15  1  0
 25 19  1  0
M  END
>  <MS_ID>  (70) 
MS0073

>  <SMILES>  (70) 
C[C@H](CCC(=O)CC(=O)O)[C@H]1CC[C@H]2[C@@H]3[C@H](O)C[C@@H]4C[C@H](O)CC[C@]4(C)[C@H]3CC[C@]12C

>  <Structure_dimension>  (70) 
2D

$$$$
MS0074
     RDKit          2D

 27 30  0  0  0  0  0  0  0  0999 V2000
   -5.1023   -2.0364    0.0000 C   0  0  0  0  0  0  0  0  0  0  0  0
   -3.8978   -1.1425    0.0000 C   0  0  0  0  0  0  0  0  0  0  0  0
   -4.0697    0.3476    0.0000 C   0  0  0  0  0  0  0  0  0  0  0  0
   -5.4461    0.9438    0.0000 C   0  0  0  0  0  0  0  0  0  0  0  0
   -5.6180    2.4339    0.0000 C   0  0  0  0  0  0  0  0  0  0  0  0
   -4.4135    3.3278    0.0000 O   0  0  0  0  0  0  0  0  0  0  0  0
   -6.9944    3.0301    0.0000 O   0  0  0  0  0  0  0  0  0  0  0  0
   -2.5213   -1.7387    0.0000 C   0  0  0  0  0  0  0  0  0  0  0  0
   -2.1946   -3.2027    0.0000 C   0  0  0  0  0  0  0  0  0  0  0  0
   -0.7013   -3.3444    0.0000 C   0  0  0  0  0  0  0  0  0  0  0  0
   -0.1051   -1.9679    0.0000 C   0  0  0  0  0  0  0  0  0  0  0  0
    1.3167   -1.4900    0.0000 C   0  0  0  0  0  0  0  0  0  0  0  0
    2.4415   -2.4823    0.0000 C   0  0  0  0  0  0  0  0  0  0  0  0
    3.8633   -2.0044    0.0000 C   0  0  0  0  0  0  0  0  0  0  0  0
    4.1603   -0.5341    0.0000 C   0  0  0  0  0  0  0  0  0  0  0  0
    5.5821   -0.0561    0.0000 C   0  0  0  0  0  0  0  0  0  0  0  0
    5.8791    1.4142    0.0000 C   0  0  0  0  0  0  0  0  0  0  0  0
    7.3009    1.8921    0.0000 O   0  0  0  0  0  0  0  0  0  0  0  0
    4.7543    2.4065    0.0000 C   0  0  0  0  0  0  0  0  0  0  0  0
    3.3325    1.9286    0.0000 C   0  0  0  0  0  0  0  0  0  0  0  0
    3.0355    0.4583    0.0000 C   0  0  0  0  0  0  0  0  0  0  0  0
    1.9107    1.4506    0.0000 C   0  0  0  0  0  0  0  0  0  0  0  0
    1.6137   -0.0197    0.0000 C   0  0  0  0  0  0  0  0  0  0  0  0
    0.4888    0.9727    0.0000 C   0  0  0  0  0  0  0  0  0  0  0  0
   -0.9330    0.4947    0.0000 C   0  0  0  0  0  0  0  0  0  0  0  0
   -1.2300   -0.9756    0.0000 C   0  0  0  0  0  0  0  0  0  0  0  0
   -2.4524   -0.1062    0.0000 C   0  0  0  0  0  0  0  0  0  0  0  0
  2  1  1  6
  2  3  1  0
  3  4  1  0
  4  5  1  0
  5  6  2  0
  5  7  1  0
  2  8  1  0
  8  9  1  6
  9 10  1  0
 11 10  1  6
 11 12  1  0
 12 13  1  1
 13 14  1  0
 15 14  1  6
 15 16  1  0
 16 17  1  0
 17 18  1  1
 17 19  1  0
 19 20  1  0
 20 21  1  0
 21 22  1  6
 21 23  1  0
 23 24  1  6
 24 25  1  0
 25 26  1  0
 26 27  1  6
 26  8  1  0
 26 11  1  0
 23 12  1  0
 21 15  1  0
M  END
>  <MS_ID>  (71) 
MS0074

>  <SMILES>  (71) 
C[C@H](CCC(=O)O)[C@H]1CC[C@H]2[C@@H]3CC[C@H]4C[C@H](O)CC[C@]4(C)[C@H]3CC[C@]12C

>  <Structure_dimension>  (71) 
2D

$$$$
MS0075
     RDKit          2D

 34 37  0  0  0  0  0  0  0  0999 V2000
  -11.3778    3.4316    0.0000 C   0  0  0  0  0  0  0  0  0  0  0  0
  -10.6064    2.1451    0.0000 C   0  0  0  0  0  0  0  0  0  0  0  0
   -9.1066    2.1699    0.0000 C   0  0  0  0  0  0  0  0  0  0  0  0
   -8.3353    0.8834    0.0000 C   0  0  0  0  0  0  0  0  0  0  0  0
   -6.8355    0.9082    0.0000 C   0  0  0  0  0  0  0  0  0  0  0  0
   -6.0641   -0.3782    0.0000 C   0  0  0  0  0  0  0  0  0  0  0  0
   -4.5643   -0.3534    0.0000 C   0  0  0  0  0  0  0  0  0  0  0  0
   -3.8359    0.9578    0.0000 O   0  0  0  0  0  0  0  0  0  0  0  0
   -3.7929   -1.6399    0.0000 C   0  0  0  0  0  0  0  0  0  0  0  0
   -2.2931   -1.6151    0.0000 C   0  0  0  0  0  0  0  0  0  0  0  0
   -1.5218   -2.9016    0.0000 C   0  0  0  0  0  0  0  0  0  0  0  0
   -2.2502   -4.2128    0.0000 C   0  0  0  0  0  0  0  0  0  0  0  0
   -0.0220   -2.8768    0.0000 C   0  0  0  0  0  0  0  0  0  0  0  0
    0.8797   -4.0755    0.0000 C   0  0  0  0  0  0  0  0  0  0  0  0
    2.2984   -3.5885    0.0000 C   0  0  0  0  0  0  0  0  0  0  0  0
    2.2736   -2.0887    0.0000 C   0  0  0  0  0  0  0  0  0  0  0  0
    3.3716   -1.0667    0.0000 C   0  0  0  0  0  0  0  0  0  0  0  0
    4.8056   -1.5066    0.0000 C   0  0  0  0  0  0  0  0  0  0  0  0
    5.1417   -2.9685    0.0000 O   0  0  0  0  0  0  0  0  0  0  0  0
    5.9036   -0.4846    0.0000 C   0  0  0  0  0  0  0  0  0  0  0  0
    5.5675    0.9773    0.0000 C   0  0  0  0  0  0  0  0  0  0  0  0
    6.6655    1.9992    0.0000 C   0  0  0  0  0  0  0  0  0  0  0  0
    6.3294    3.4611    0.0000 C   0  0  0  0  0  0  0  0  0  0  0  0
    7.4274    4.4831    0.0000 O   0  0  0  0  0  0  0  0  0  0  0  0
    4.8953    3.9010    0.0000 C   0  0  0  0  0  0  0  0  0  0  0  0
    3.7974    2.8790    0.0000 C   0  0  0  0  0  0  0  0  0  0  0  0
    4.1334    1.4171    0.0000 C   0  0  0  0  0  0  0  0  0  0  0  0
    2.6994    1.8570    0.0000 C   0  0  0  0  0  0  0  0  0  0  0  0
    3.0355    0.3951    0.0000 C   0  0  0  0  0  0  0  0  0  0  0  0
    1.6014    0.8350    0.0000 C   0  0  0  0  0  0  0  0  0  0  0  0
    0.5034   -0.1870    0.0000 C   0  0  0  0  0  0  0  0  0  0  0  0
   -0.9306    0.2529    0.0000 O   0  0  0  0  0  0  0  0  0  0  0  0
    0.8395   -1.6488    0.0000 C   0  0  0  0  0  0  0  0  0  0  0  0
   -0.6326   -1.3613    0.0000 C   0  0  0  0  0  0  0  0  0  0  0  0
  1  2  1  0
  2  3  1  0
  3  4  1  0
  4  5  1  0
  5  6  1  0
  6  7  1  0
  7  8  2  0
  7  9  1  0
  9 10  1  0
 10 11  1  0
 11 12  1  6
 11 13  1  0
 13 14  1  6
 14 15  1  0
 16 15  1  6
 16 17  1  0
 17 18  1  1
 18 19  1  1
 18 20  1  0
 21 20  1  1
 21 22  1  0
 22 23  1  0
 23 24  1  1
 23 25  1  0
 25 26  1  0
 26 27  1  0
 27 28  1  6
 27 29  1  0
 29 30  1  6
 30 31  1  0
 31 32  1  1
 31 33  1  0
 33 34  1  6
 33 13  1  0
 33 16  1  0
 29 17  1  0
 27 21  1  0
M  END
>  <MS_ID>  (72) 
MS0075

>  <SMILES>  (72) 
CCCCCCC(=O)CC[C@@H](C)[C@H]1CC[C@H]2[C@@H]3[C@H](O)C[C@@H]4C[C@H](O)CC[C@]4(C)[C@H]3C[C@H](O)[C@]12C

>  <Structure_dimension>  (72) 
2D

$$$$
MS0076
     RDKit          2D

 32 35  0  0  0  0  0  0  0  0999 V2000
  -10.8107    3.0070    0.0000 C   0  0  0  0  0  0  0  0  0  0  0  0
   -9.3127    2.9291    0.0000 C   0  0  0  0  0  0  0  0  0  0  0  0
   -8.6311    1.5929    0.0000 C   0  0  0  0  0  0  0  0  0  0  0  0
   -7.1332    1.5150    0.0000 C   0  0  0  0  0  0  0  0  0  0  0  0
   -6.4516    0.1788    0.0000 O   0  0  0  0  0  0  0  0  0  0  0  0
   -4.9536    0.1009    0.0000 C   0  0  0  0  0  0  0  0  0  0  0  0
   -4.1372    1.3592    0.0000 O   0  0  0  0  0  0  0  0  0  0  0  0
   -4.2721   -1.2353    0.0000 C   0  0  0  0  0  0  0  0  0  0  0  0
   -2.7741   -1.3132    0.0000 C   0  0  0  0  0  0  0  0  0  0  0  0
   -2.0926   -2.6494    0.0000 C   0  0  0  0  0  0  0  0  0  0  0  0
   -2.9090   -3.9078    0.0000 C   0  0  0  0  0  0  0  0  0  0  0  0
   -0.5946   -2.7273    0.0000 C   0  0  0  0  0  0  0  0  0  0  0  0
    0.2229   -3.9850    0.0000 C   0  0  0  0  0  0  0  0  0  0  0  0
    1.6716   -3.5962    0.0000 C   0  0  0  0  0  0  0  0  0  0  0  0
    1.7495   -2.0982    0.0000 C   0  0  0  0  0  0  0  0  0  0  0  0
    2.9148   -1.1537    0.0000 C   0  0  0  0  0  0  0  0  0  0  0  0
    4.3154   -1.6907    0.0000 C   0  0  0  0  0  0  0  0  0  0  0  0
    4.5507   -3.1721    0.0000 O   0  0  0  0  0  0  0  0  0  0  0  0
    5.4807   -0.7462    0.0000 C   0  0  0  0  0  0  0  0  0  0  0  0
    5.2455    0.7352    0.0000 C   0  0  0  0  0  0  0  0  0  0  0  0
    6.4108    1.6797    0.0000 C   0  0  0  0  0  0  0  0  0  0  0  0
    6.1755    3.1611    0.0000 C   0  0  0  0  0  0  0  0  0  0  0  0
    7.3408    4.1056    0.0000 O   0  0  0  0  0  0  0  0  0  0  0  0
    4.7749    3.6981    0.0000 C   0  0  0  0  0  0  0  0  0  0  0  0
    3.6096    2.7536    0.0000 C   0  0  0  0  0  0  0  0  0  0  0  0
    3.8449    1.2722    0.0000 C   0  0  0  0  0  0  0  0  0  0  0  0
    2.4443    1.8091    0.0000 C   0  0  0  0  0  0  0  0  0  0  0  0
    2.6795    0.3277    0.0000 C   0  0  0  0  0  0  0  0  0  0  0  0
    1.2789    0.8647    0.0000 C   0  0  0  0  0  0  0  0  0  0  0  0
    0.1136   -0.0798    0.0000 C   0  0  0  0  0  0  0  0  0  0  0  0
    0.3489   -1.5612    0.0000 C   0  0  0  0  0  0  0  0  0  0  0  0
   -1.1002   -1.1736    0.0000 C   0  0  0  0  0  0  0  0  0  0  0  0
  1  2  1  0
  2  3  1  0
  3  4  1  0
  4  5  1  0
  5  6  1  0
  6  7  2  0
  6  8  1  0
  8  9  1  0
  9 10  1  0
 10 11  1  6
 10 12  1  0
 12 13  1  6
 13 14  1  0
 15 14  1  6
 15 16  1  0
 16 17  1  1
 17 18  1  1
 17 19  1  0
 20 19  1  1
 20 21  1  0
 21 22  1  0
 22 23  2  0
 22 24  1  0
 24 25  1  0
 25 26  1  0
 26 27  1  6
 26 28  1  0
 28 29  1  6
 29 30  1  0
 30 31  1  0
 31 32  1  6
 31 12  1  0
 31 15  1  0
 28 16  1  0
 26 20  1  0
M  END
>  <MS_ID>  (73) 
MS0076

>  <SMILES>  (73) 
CCCCOC(=O)CC[C@@H](C)[C@H]1CC[C@H]2[C@@H]3[C@H](O)C[C@@H]4CC(=O)CC[C@]4(C)[C@H]3CC[C@]12C

>  <Structure_dimension>  (73) 
2D

$$$$
MS0077
     RDKit          2D

 33 36  0  0  0  0  0  0  0  0999 V2000
   -4.6075   -2.8945    0.0000 C   0  0  0  0  0  0  0  0  0  0  0  0
   -3.5097   -1.8723    0.0000 C   0  0  0  0  0  0  0  0  0  0  0  0
   -3.8461   -0.4105    0.0000 C   0  0  0  0  0  0  0  0  0  0  0  0
   -5.2802    0.0291    0.0000 C   0  0  0  0  0  0  0  0  0  0  0  0
   -5.6166    1.4909    0.0000 C   0  0  0  0  0  0  0  0  0  0  0  0
   -4.5188    2.5131    0.0000 O   0  0  0  0  0  0  0  0  0  0  0  0
   -7.0507    1.9305    0.0000 O   0  0  0  0  0  0  0  0  0  0  0  0
   -2.0756   -2.3119    0.0000 C   0  0  0  0  0  0  0  0  0  0  0  0
   -1.5882   -3.7305    0.0000 C   0  0  0  0  0  0  0  0  0  0  0  0
   -0.0884   -3.7054    0.0000 C   0  0  0  0  0  0  0  0  0  0  0  0
    0.3512   -2.2713    0.0000 C   0  0  0  0  0  0  0  0  0  0  0  0
    1.7111   -1.6384    0.0000 C   0  0  0  0  0  0  0  0  0  0  0  0
    2.9392   -2.4996    0.0000 C   0  0  0  0  0  0  0  0  0  0  0  0
    2.8074   -3.9938    0.0000 O   0  0  0  0  0  0  0  0  0  0  0  0
    4.2991   -1.8667    0.0000 C   0  0  0  0  0  0  0  0  0  0  0  0
    4.4309   -0.3725    0.0000 C   0  0  0  0  0  0  0  0  0  0  0  0
    5.7908    0.2605    0.0000 C   0  0  0  0  0  0  0  0  0  0  0  0
    5.9227    1.7547    0.0000 C   0  0  0  0  0  0  0  0  0  0  0  0
    7.2826    2.3876    0.0000 O   0  0  0  0  0  0  0  0  0  0  0  0
    4.6946    2.6159    0.0000 C   0  0  0  0  0  0  0  0  0  0  0  0
    3.3346    1.9830    0.0000 C   0  0  0  0  0  0  0  0  0  0  0  0
    3.2028    0.4888    0.0000 C   0  0  0  0  0  0  0  0  0  0  0  0
    1.9747    1.3500    0.0000 C   0  0  0  0  0  0  0  0  0  0  0  0
    1.8429   -0.1442    0.0000 C   0  0  0  0  0  0  0  0  0  0  0  0
    0.6148    0.7171    0.0000 C   0  0  0  0  0  0  0  0  0  0  0  0
   -0.7451    0.0842    0.0000 C   0  0  0  0  0  0  0  0  0  0  0  0
   -1.9732    0.9454    0.0000 O   0  0  0  0  0  0  0  0  0  0  0  0
   -1.8414    2.4396    0.0000 S   0  0  0  0  0  0  0  0  0  0  0  0
   -0.3472    2.3078    0.0000 O   0  0  0  0  0  0  0  0  0  0  0  0
   -3.3356    2.5714    0.0000 O   0  0  0  0  0  0  0  0  0  0  0  0
   -1.7096    3.9338    0.0000 O   0  0  0  0  0  0  0  0  0  0  0  0
   -0.8769   -1.4100    0.0000 C   0  0  0  0  0  0  0  0  0  0  0  0
   -2.1884   -0.6819    0.0000 C   0  0  0  0  0  0  0  0  0  0  0  0
  2  1  1  6
  2  3  1  0
  3  4  1  0
  4  5  1  0
  5  6  2  0
  5  7  1  0
  2  8  1  0
  8  9  1  6
  9 10  1  0
 11 10  1  6
 11 12  1  0
 12 13  1  1
 13 14  1  1
 13 15  1  0
 16 15  1  1
 16 17  1  0
 17 18  1  0
 18 19  1  1
 18 20  1  0
 20 21  1  0
 21 22  1  0
 22 23  1  6
 22 24  1  0
 24 25  1  6
 25 26  1  0
 26 27  1  1
 27 28  1  0
 28 29  2  0
 28 30  2  0
 28 31  1  0
 26 32  1  0
 32 33  1  6
 32  8  1  0
 32 11  1  0
 24 12  1  0
 22 16  1  0
M  END
>  <MS_ID>  (74) 
MS0077

>  <SMILES>  (74) 
C[C@H](CCC(=O)O)[C@H]1CC[C@H]2[C@@H]3[C@H](O)C[C@@H]4C[C@H](O)CC[C@]4(C)[C@H]3C[C@H](OS(=O)(=O)O)[C@]12C

>  <Structure_dimension>  (74) 
2D

$$$$
MS0078
     RDKit          2D

 36 39  0  0  0  0  0  0  0  0999 V2000
   -1.5948   -4.5570    0.0000 C   0  0  0  0  0  0  0  0  0  0  0  0
   -0.8975   -3.2289    0.0000 C   0  0  0  0  0  0  0  0  0  0  0  0
   -1.6991   -1.9610    0.0000 C   0  0  0  0  0  0  0  0  0  0  0  0
   -3.1979   -2.0212    0.0000 C   0  0  0  0  0  0  0  0  0  0  0  0
   -3.9994   -0.7534    0.0000 C   0  0  0  0  0  0  0  0  0  0  0  0
   -3.3022    0.5747    0.0000 O   0  0  0  0  0  0  0  0  0  0  0  0
   -5.4982   -0.8136    0.0000 N   0  0  0  0  0  0  0  0  0  0  0  0
   -6.2998    0.4543    0.0000 C   0  0  0  0  0  0  0  0  0  0  0  0
   -7.7986    0.3940    0.0000 C   0  0  0  0  0  0  0  0  0  0  0  0
   -8.6001    1.6619    0.0000 C   0  0  0  0  0  0  0  0  0  0  0  0
   -7.9029    2.9900    0.0000 O   0  0  0  0  0  0  0  0  0  0  0  0
  -10.0989    1.6017    0.0000 O   0  0  0  0  0  0  0  0  0  0  0  0
   -5.6025    1.7824    0.0000 C   0  0  0  0  0  0  0  0  0  0  0  0
   -4.1038    1.8426    0.0000 O   0  0  0  0  0  0  0  0  0  0  0  0
   -6.4041    3.0502    0.0000 O   0  0  0  0  0  0  0  0  0  0  0  0
    0.6013   -3.1687    0.0000 C   0  0  0  0  0  0  0  0  0  0  0  0
    1.5310   -4.3458    0.0000 C   0  0  0  0  0  0  0  0  0  0  0  0
    2.9378   -3.8254    0.0000 C   0  0  0  0  0  0  0  0  0  0  0  0
    2.8776   -2.3266    0.0000 C   0  0  0  0  0  0  0  0  0  0  0  0
    3.9511   -1.2789    0.0000 C   0  0  0  0  0  0  0  0  0  0  0  0
    5.3951   -1.6848    0.0000 C   0  0  0  0  0  0  0  0  0  0  0  0
    6.4686   -0.6371    0.0000 C   0  0  0  0  0  0  0  0  0  0  0  0
    6.0981    0.8164    0.0000 C   0  0  0  0  0  0  0  0  0  0  0  0
    7.1716    1.8640    0.0000 C   0  0  0  0  0  0  0  0  0  0  0  0
    6.8011    3.3175    0.0000 C   0  0  0  0  0  0  0  0  0  0  0  0
    7.8746    4.3652    0.0000 O   0  0  0  0  0  0  0  0  0  0  0  0
    5.3570    3.7234    0.0000 C   0  0  0  0  0  0  0  0  0  0  0  0
    4.2835    2.6758    0.0000 C   0  0  0  0  0  0  0  0  0  0  0  0
    4.6540    1.2222    0.0000 C   0  0  0  0  0  0  0  0  0  0  0  0
    3.2100    1.6281    0.0000 C   0  0  0  0  0  0  0  0  0  0  0  0
    3.5805    0.1746    0.0000 C   0  0  0  0  0  0  0  0  0  0  0  0
    2.1365    0.5805    0.0000 C   0  0  0  0  0  0  0  0  0  0  0  0
    1.0630   -0.4672    0.0000 C   0  0  0  0  0  0  0  0  0  0  0  0
   -0.3811   -0.0613    0.0000 O   0  0  0  0  0  0  0  0  0  0  0  0
    1.4335   -1.9207    0.0000 C   0  0  0  0  0  0  0  0  0  0  0  0
   -0.0451   -1.6680    0.0000 C   0  0  0  0  0  0  0  0  0  0  0  0
  2  1  1  6
  2  3  1  0
  3  4  1  0
  4  5  1  0
  5  6  2  0
  5  7  1  0
  7  8  1  0
  8  9  1  1
  9 10  1  0
 10 11  2  0
 10 12  1  0
  8 13  1  0
 13 14  2  0
 13 15  1  0
  2 16  1  0
 16 17  1  6
 17 18  1  0
 19 18  1  6
 19 20  1  0
 20 21  1  1
 21 22  1  0
 23 22  1  1
 23 24  1  0
 24 25  1  0
 25 26  1  1
 25 27  1  0
 27 28  1  0
 28 29  1  0
 29 30  1  6
 29 31  1  0
 31 32  1  6
 32 33  1  0
 33 34  1  1
 33 35  1  0
 35 36  1  6
 35 16  1  0
 35 19  1  0
 31 20  1  0
 29 23  1  0
M  END
>  <MS_ID>  (75) 
MS0078

>  <SMILES>  (75) 
C[C@H](CCC(=O)N[C@@H](CC(=O)O)C(=O)O)[C@H]1CC[C@H]2[C@@H]3CC[C@@H]4C[C@H](O)CC[C@]4(C)[C@H]3C[C@H](O)[C@]12C

>  <Structure_dimension>  (75) 
2D

$$$$
MS0079
     RDKit          2D

 39 43  0  0  0  0  0  0  0  0999 V2000
   -7.7534   -2.1938    0.0000 C   0  0  0  0  0  0  0  0  0  0  0  0
   -6.5793   -1.2603    0.0000 C   0  0  0  0  0  0  0  0  0  0  0  0
   -6.8008    0.2233    0.0000 C   0  0  0  0  0  0  0  0  0  0  0  0
   -8.1963    0.7733    0.0000 C   0  0  0  0  0  0  0  0  0  0  0  0
   -8.4177    2.2569    0.0000 C   0  0  0  0  0  0  0  0  0  0  0  0
   -7.2436    3.1904    0.0000 O   0  0  0  0  0  0  0  0  0  0  0  0
   -9.8132    2.8069    0.0000 O   0  0  0  0  0  0  0  0  0  0  0  0
   -5.1838   -1.8103    0.0000 C   0  0  0  0  0  0  0  0  0  0  0  0
   -4.8085   -3.2626    0.0000 C   0  0  0  0  0  0  0  0  0  0  0  0
   -3.3114   -3.3545    0.0000 C   0  0  0  0  0  0  0  0  0  0  0  0
   -2.7613   -1.9590    0.0000 C   0  0  0  0  0  0  0  0  0  0  0  0
   -1.3562   -1.4339    0.0000 C   0  0  0  0  0  0  0  0  0  0  0  0
   -0.1990   -2.3883    0.0000 C   0  0  0  0  0  0  0  0  0  0  0  0
    1.2061   -1.8632    0.0000 C   0  0  0  0  0  0  0  0  0  0  0  0
    1.4540   -0.3839    0.0000 C   0  0  0  0  0  0  0  0  0  0  0  0
    2.8591    0.1412    0.0000 C   0  0  0  0  0  0  0  0  0  0  0  0
    3.1070    1.6206    0.0000 C   0  0  0  0  0  0  0  0  0  0  0  0
    4.5121    2.1456    0.0000 O   0  0  0  0  0  0  0  0  0  0  0  0
    5.6693    1.1912    0.0000 C   0  0  0  0  0  0  0  0  0  0  0  0
    5.4215   -0.2881    0.0000 O   0  0  0  0  0  0  0  0  0  0  0  0
    6.5787   -1.2425    0.0000 C   0  0  0  0  0  0  0  0  0  0  0  0
    6.3309   -2.7219    0.0000 C   0  0  0  0  0  0  0  0  0  0  0  0
    4.9257   -3.2469    0.0000 O   0  0  0  0  0  0  0  0  0  0  0  0
    7.9838   -0.7174    0.0000 C   0  0  0  0  0  0  0  0  0  0  0  0
    9.1411   -1.6718    0.0000 O   0  0  0  0  0  0  0  0  0  0  0  0
    8.2317    0.7619    0.0000 C   0  0  0  0  0  0  0  0  0  0  0  0
    9.6368    1.2870    0.0000 O   0  0  0  0  0  0  0  0  0  0  0  0
    7.0744    1.7163    0.0000 C   0  0  0  0  0  0  0  0  0  0  0  0
    7.3223    3.1957    0.0000 O   0  0  0  0  0  0  0  0  0  0  0  0
    1.9497    2.5749    0.0000 C   0  0  0  0  0  0  0  0  0  0  0  0
    0.5446    2.0499    0.0000 C   0  0  0  0  0  0  0  0  0  0  0  0
    0.2967    0.5705    0.0000 C   0  0  0  0  0  0  0  0  0  0  0  0
   -0.8605    1.5248    0.0000 C   0  0  0  0  0  0  0  0  0  0  0  0
   -1.1084    0.0455    0.0000 C   0  0  0  0  0  0  0  0  0  0  0  0
   -2.2656    0.9998    0.0000 C   0  0  0  0  0  0  0  0  0  0  0  0
   -3.6707    0.4748    0.0000 C   0  0  0  0  0  0  0  0  0  0  0  0
   -4.8280    1.4291    0.0000 O   0  0  0  0  0  0  0  0  0  0  0  0
   -3.9186   -1.0046    0.0000 C   0  0  0  0  0  0  0  0  0  0  0  0
   -5.1693   -0.1765    0.0000 C   0  0  0  0  0  0  0  0  0  0  0  0
  2  1  1  6
  2  3  1  0
  3  4  1  0
  4  5  1  0
  5  6  2  0
  5  7  1  0
  2  8  1  0
  8  9  1  6
  9 10  1  0
 11 10  1  6
 11 12  1  0
 12 13  1  1
 13 14  1  0
 15 14  1  1
 15 16  1  0
 16 17  1  0
 17 18  1  1
 19 18  1  1
 19 20  1  0
 20 21  1  0
 21 22  1  1
 22 23  1  0
 21 24  1  0
 24 25  1  6
 24 26  1  0
 26 27  1  1
 26 28  1  0
 28 29  1  6
 17 30  1  0
 30 31  1  0
 31 32  1  0
 32 33  1  6
 32 34  1  0
 34 35  1  6
 35 36  1  0
 36 37  1  1
 36 38  1  0
 38 39  1  6
 38  8  1  0
 38 11  1  0
 34 12  1  0
 32 15  1  0
 28 19  1  0
M  END
>  <MS_ID>  (76) 
MS0079

>  <SMILES>  (76) 
C[C@H](CCC(=O)O)[C@H]1CC[C@H]2[C@@H]3CC[C@@H]4C[C@H](O[C@@H]5O[C@H](CO)[C@@H](O)[C@H](O)[C@H]5O)CC[C@]4(C)[C@H]3C[C@H](O)[C@]12C

>  <Structure_dimension>  (76) 
2D

$$$$
MS0080
     RDKit          2D

 31 34  0  0  0  0  0  0  0  0999 V2000
   -9.1388    1.0800    0.0000 C   0  0  0  0  0  0  0  0  0  0  0  0
   -7.6835    0.7164    0.0000 O   0  0  0  0  0  0  0  0  0  0  0  0
   -6.6411    1.7949    0.0000 N   0  0  0  0  0  0  0  0  0  0  0  0
   -7.0538    3.2370    0.0000 C   0  0  0  0  0  0  0  0  0  0  0  0
   -5.1858    1.4314    0.0000 C   0  0  0  0  0  0  0  0  0  0  0  0
   -4.1433    2.5099    0.0000 O   0  0  0  0  0  0  0  0  0  0  0  0
   -4.7730   -0.0107    0.0000 C   0  0  0  0  0  0  0  0  0  0  0  0
   -3.3177   -0.3743    0.0000 C   0  0  0  0  0  0  0  0  0  0  0  0
   -2.9049   -1.8163    0.0000 C   0  0  0  0  0  0  0  0  0  0  0  0
   -3.9474   -2.8949    0.0000 C   0  0  0  0  0  0  0  0  0  0  0  0
   -1.4496   -2.1799    0.0000 C   0  0  0  0  0  0  0  0  0  0  0  0
   -0.8884   -3.5709    0.0000 C   0  0  0  0  0  0  0  0  0  0  0  0
    0.6080   -3.4670    0.0000 C   0  0  0  0  0  0  0  0  0  0  0  0
    0.9716   -2.0117    0.0000 C   0  0  0  0  0  0  0  0  0  0  0  0
    2.2963   -1.3081    0.0000 C   0  0  0  0  0  0  0  0  0  0  0  0
    3.5680   -2.1036    0.0000 C   0  0  0  0  0  0  0  0  0  0  0  0
    3.5150   -3.6026    0.0000 O   0  0  0  0  0  0  0  0  0  0  0  0
    4.8928   -1.4000    0.0000 C   0  0  0  0  0  0  0  0  0  0  0  0
    4.9458    0.0991    0.0000 C   0  0  0  0  0  0  0  0  0  0  0  0
    6.2706    0.8027    0.0000 C   0  0  0  0  0  0  0  0  0  0  0  0
    6.3236    2.3018    0.0000 C   0  0  0  0  0  0  0  0  0  0  0  0
    7.6483    3.0054    0.0000 O   0  0  0  0  0  0  0  0  0  0  0  0
    5.0519    3.0972    0.0000 C   0  0  0  0  0  0  0  0  0  0  0  0
    3.7271    2.3936    0.0000 C   0  0  0  0  0  0  0  0  0  0  0  0
    3.6741    0.8946    0.0000 C   0  0  0  0  0  0  0  0  0  0  0  0
    2.4024    1.6900    0.0000 C   0  0  0  0  0  0  0  0  0  0  0  0
    2.3494    0.1910    0.0000 C   0  0  0  0  0  0  0  0  0  0  0  0
    1.0777    0.9864    0.0000 C   0  0  0  0  0  0  0  0  0  0  0  0
   -0.2471    0.2828    0.0000 C   0  0  0  0  0  0  0  0  0  0  0  0
   -0.3001   -1.2162    0.0000 C   0  0  0  0  0  0  0  0  0  0  0  0
   -1.6480   -0.5581    0.0000 C   0  0  0  0  0  0  0  0  0  0  0  0
  1  2  1  0
  2  3  1  0
  3  4  1  0
  3  5  1  0
  5  6  2  0
  5  7  1  0
  7  8  1  0
  8  9  1  0
  9 10  1  6
  9 11  1  0
 11 12  1  6
 12 13  1  0
 14 13  1  6
 14 15  1  0
 15 16  1  1
 16 17  1  1
 16 18  1  0
 19 18  1  1
 19 20  1  0
 20 21  1  0
 21 22  1  1
 21 23  1  0
 23 24  1  0
 24 25  1  0
 25 26  1  6
 25 27  1  0
 27 28  1  6
 28 29  1  0
 29 30  1  0
 30 31  1  6
 30 11  1  0
 30 14  1  0
 27 15  1  0
 25 19  1  0
M  END
>  <MS_ID>  (77) 
MS0080

>  <SMILES>  (77) 
CON(C)C(=O)CC[C@@H](C)[C@H]1CC[C@H]2[C@@H]3[C@H](O)C[C@@H]4C[C@H](O)CC[C@]4(C)[C@H]3CC[C@]12C

>  <Structure_dimension>  (77) 
2D

$$$$
MS0081
     RDKit          2D

 30 33  0  0  0  0  0  0  0  0999 V2000
   -4.9095    4.2465    0.0000 C   0  0  0  0  0  0  0  0  0  0  0  0
   -4.5818    2.7827    0.0000 S   0  0  0  0  0  0  0  0  0  0  0  0
   -5.6855    1.7670    0.0000 C   0  0  0  0  0  0  0  0  0  0  0  0
   -7.1171    2.2151    0.0000 O   0  0  0  0  0  0  0  0  0  0  0  0
   -5.3578    0.3033    0.0000 C   0  0  0  0  0  0  0  0  0  0  0  0
   -3.9263   -0.1448    0.0000 C   0  0  0  0  0  0  0  0  0  0  0  0
   -3.5985   -1.6085    0.0000 C   0  0  0  0  0  0  0  0  0  0  0  0
   -4.7023   -2.6242    0.0000 C   0  0  0  0  0  0  0  0  0  0  0  0
   -2.1670   -2.0566    0.0000 C   0  0  0  0  0  0  0  0  0  0  0  0
   -1.6881   -3.4780    0.0000 C   0  0  0  0  0  0  0  0  0  0  0  0
   -0.1881   -3.4618    0.0000 C   0  0  0  0  0  0  0  0  0  0  0  0
    0.2599   -2.0303    0.0000 C   0  0  0  0  0  0  0  0  0  0  0  0
    1.6235   -1.4054    0.0000 C   0  0  0  0  0  0  0  0  0  0  0  0
    2.8465   -2.2738    0.0000 C   0  0  0  0  0  0  0  0  0  0  0  0
    2.7059   -3.7672    0.0000 O   0  0  0  0  0  0  0  0  0  0  0  0
    4.2102   -1.6489    0.0000 C   0  0  0  0  0  0  0  0  0  0  0  0
    4.3508   -0.1555    0.0000 C   0  0  0  0  0  0  0  0  0  0  0  0
    5.7144    0.4694    0.0000 C   0  0  0  0  0  0  0  0  0  0  0  0
    5.8550    1.9628    0.0000 C   0  0  0  0  0  0  0  0  0  0  0  0
    7.2187    2.5877    0.0000 O   0  0  0  0  0  0  0  0  0  0  0  0
    4.6320    2.8313    0.0000 C   0  0  0  0  0  0  0  0  0  0  0  0
    3.2684    2.2063    0.0000 C   0  0  0  0  0  0  0  0  0  0  0  0
    3.1278    0.7130    0.0000 C   0  0  0  0  0  0  0  0  0  0  0  0
    1.9048    1.5814    0.0000 C   0  0  0  0  0  0  0  0  0  0  0  0
    1.7642    0.0880    0.0000 C   0  0  0  0  0  0  0  0  0  0  0  0
    0.5411    0.9565    0.0000 C   0  0  0  0  0  0  0  0  0  0  0  0
   -0.8225    0.3316    0.0000 C   0  0  0  0  0  0  0  0  0  0  0  0
   -2.0455    1.2001    0.0000 O   0  0  0  0  0  0  0  0  0  0  0  0
   -0.9631   -1.1618    0.0000 C   0  0  0  0  0  0  0  0  0  0  0  0
   -2.2702   -0.4259    0.0000 C   0  0  0  0  0  0  0  0  0  0  0  0
  1  2  1  0
  2  3  1  0
  3  4  2  0
  3  5  1  0
  5  6  1  0
  6  7  1  0
  7  8  1  6
  7  9  1  0
  9 10  1  6
 10 11  1  0
 12 11  1  6
 12 13  1  0
 13 14  1  1
 14 15  1  1
 14 16  1  0
 17 16  1  1
 17 18  1  0
 18 19  1  0
 19 20  1  1
 19 21  1  0
 21 22  1  0
 22 23  1  0
 23 24  1  6
 23 25  1  0
 25 26  1  6
 26 27  1  0
 27 28  1  1
 27 29  1  0
 29 30  1  6
 29  9  1  0
 29 12  1  0
 25 13  1  0
 23 17  1  0
M  END
>  <MS_ID>  (78) 
MS0081

>  <SMILES>  (78) 
CSC(=O)CC[C@@H](C)[C@H]1CC[C@H]2[C@@H]3[C@H](O)C[C@@H]4C[C@H](O)CC[C@]4(C)[C@H]3C[C@H](O)[C@]12C

>  <Structure_dimension>  (78) 
2D

$$$$
MS0082
     RDKit          2D

 33 36  0  0  0  0  0  0  0  0999 V2000
   -5.9347   -2.3224    0.0000 C   0  0  0  0  0  0  0  0  0  0  0  0
   -4.7592   -1.3907    0.0000 C   0  0  0  0  0  0  0  0  0  0  0  0
   -4.9784    0.0932    0.0000 C   0  0  0  0  0  0  0  0  0  0  0  0
   -6.3730    0.6454    0.0000 C   0  0  0  0  0  0  0  0  0  0  0  0
   -6.5922    2.1293    0.0000 C   0  0  0  0  0  0  0  0  0  0  0  0
   -5.4167    3.0610    0.0000 O   0  0  0  0  0  0  0  0  0  0  0  0
   -7.9869    2.6814    0.0000 C   0  0  0  0  0  0  0  0  0  0  0  0
   -8.2061    4.1653    0.0000 O   0  0  0  0  0  0  0  0  0  0  0  0
   -3.3645   -1.9428    0.0000 C   0  0  0  0  0  0  0  0  0  0  0  0
   -2.9914   -3.3957    0.0000 C   0  0  0  0  0  0  0  0  0  0  0  0
   -1.4944   -3.4898    0.0000 C   0  0  0  0  0  0  0  0  0  0  0  0
   -0.9422   -2.0951    0.0000 C   0  0  0  0  0  0  0  0  0  0  0  0
    0.4637   -1.5722    0.0000 C   0  0  0  0  0  0  0  0  0  0  0  0
    1.6195   -2.5283    0.0000 C   0  0  0  0  0  0  0  0  0  0  0  0
    1.3694   -4.0073    0.0000 O   0  0  0  0  0  0  0  0  0  0  0  0
    3.0254   -2.0054    0.0000 C   0  0  0  0  0  0  0  0  0  0  0  0
    3.2755   -0.5264    0.0000 C   0  0  0  0  0  0  0  0  0  0  0  0
    4.6814   -0.0035    0.0000 C   0  0  0  0  0  0  0  0  0  0  0  0
    4.9315    1.4755    0.0000 C   0  0  0  0  0  0  0  0  0  0  0  0
    6.3374    1.9984    0.0000 O   0  0  0  0  0  0  0  0  0  0  0  0
    7.4932    1.0423    0.0000 S   0  0  0  0  0  0  0  0  0  0  0  0
    6.5371   -0.1135    0.0000 O   0  0  0  0  0  0  0  0  0  0  0  0
    8.4493    2.1981    0.0000 O   0  0  0  0  0  0  0  0  0  0  0  0
    8.6490    0.0862    0.0000 O   0  0  0  0  0  0  0  0  0  0  0  0
    3.7757    2.4316    0.0000 C   0  0  0  0  0  0  0  0  0  0  0  0
    2.3698    1.9087    0.0000 C   0  0  0  0  0  0  0  0  0  0  0  0
    2.1197    0.4297    0.0000 C   0  0  0  0  0  0  0  0  0  0  0  0
    0.9639    1.3858    0.0000 C   0  0  0  0  0  0  0  0  0  0  0  0
    0.7138   -0.0932    0.0000 C   0  0  0  0  0  0  0  0  0  0  0  0
   -0.4420    0.8629    0.0000 C   0  0  0  0  0  0  0  0  0  0  0  0
   -1.8479    0.3400    0.0000 C   0  0  0  0  0  0  0  0  0  0  0  0
   -2.0980   -1.1390    0.0000 C   0  0  0  0  0  0  0  0  0  0  0  0
   -3.3474   -0.3090    0.0000 C   0  0  0  0  0  0  0  0  0  0  0  0
  2  1  1  6
  2  3  1  0
  3  4  1  0
  4  5  1  0
  5  6  2  0
  5  7  1  0
  7  8  1  0
  2  9  1  0
  9 10  1  6
 10 11  1  0
 12 11  1  6
 12 13  1  0
 13 14  1  1
 14 15  1  1
 14 16  1  0
 17 16  1  1
 17 18  1  0
 18 19  1  0
 19 20  1  1
 20 21  1  0
 21 22  2  0
 21 23  2  0
 21 24  1  0
 19 25  1  0
 25 26  1  0
 26 27  1  0
 27 28  1  6
 27 29  1  0
 29 30  1  6
 30 31  1  0
 31 32  1  0
 32 33  1  6
 32  9  1  0
 32 12  1  0
 29 13  1  0
 27 17  1  0
M  END
>  <MS_ID>  (79) 
MS0082

>  <SMILES>  (79) 
C[C@H](CCC(=O)CO)[C@H]1CC[C@H]2[C@@H]3[C@H](O)C[C@@H]4C[C@H](OS(=O)(=O)O)CC[C@]4(C)[C@H]3CC[C@]12C

>  <Structure_dimension>  (79) 
2D

$$$$
MS0083
     RDKit          2D

 38 41  0  0  0  0  0  0  0  0999 V2000
   -1.4317   -4.5102    0.0000 C   0  0  0  0  0  0  0  0  0  0  0  0
   -0.7853   -3.1566    0.0000 C   0  0  0  0  0  0  0  0  0  0  0  0
   -1.6344   -1.9200    0.0000 C   0  0  0  0  0  0  0  0  0  0  0  0
   -3.1298   -2.0371    0.0000 C   0  0  0  0  0  0  0  0  0  0  0  0
   -3.9789   -0.8005    0.0000 C   0  0  0  0  0  0  0  0  0  0  0  0
   -3.3326    0.5531    0.0000 O   0  0  0  0  0  0  0  0  0  0  0  0
   -5.4743   -0.9176    0.0000 N   0  0  0  0  0  0  0  0  0  0  0  0
   -6.3234    0.3190    0.0000 C   0  0  0  0  0  0  0  0  0  0  0  0
   -7.8188    0.2020    0.0000 C   0  0  0  0  0  0  0  0  0  0  0  0
   -8.6679    1.4385    0.0000 C   0  0  0  0  0  0  0  0  0  0  0  0
  -10.1634    1.3215    0.0000 C   0  0  0  0  0  0  0  0  0  0  0  0
  -10.8097   -0.0321    0.0000 O   0  0  0  0  0  0  0  0  0  0  0  0
  -11.0124    2.5580    0.0000 O   0  0  0  0  0  0  0  0  0  0  0  0
   -5.6771    1.6726    0.0000 C   0  0  0  0  0  0  0  0  0  0  0  0
   -4.1816    1.7897    0.0000 O   0  0  0  0  0  0  0  0  0  0  0  0
   -6.5262    2.9092    0.0000 O   0  0  0  0  0  0  0  0  0  0  0  0
    0.7101   -3.0395    0.0000 C   0  0  0  0  0  0  0  0  0  0  0  0
    1.6838   -4.1805    0.0000 C   0  0  0  0  0  0  0  0  0  0  0  0
    3.0698   -3.6071    0.0000 C   0  0  0  0  0  0  0  0  0  0  0  0
    2.9528   -2.1117    0.0000 C   0  0  0  0  0  0  0  0  0  0  0  0
    3.9858   -1.0241    0.0000 C   0  0  0  0  0  0  0  0  0  0  0  0
    5.4442   -1.3749    0.0000 C   0  0  0  0  0  0  0  0  0  0  0  0
    5.8696   -2.8133    0.0000 O   0  0  0  0  0  0  0  0  0  0  0  0
    6.4772   -0.2872    0.0000 C   0  0  0  0  0  0  0  0  0  0  0  0
    7.9356   -0.6380    0.0000 O   0  0  0  0  0  0  0  0  0  0  0  0
    6.0518    1.1512    0.0000 C   0  0  0  0  0  0  0  0  0  0  0  0
    7.0848    2.2388    0.0000 C   0  0  0  0  0  0  0  0  0  0  0  0
    6.6594    3.6772    0.0000 C   0  0  0  0  0  0  0  0  0  0  0  0
    7.6924    4.7648    0.0000 O   0  0  0  0  0  0  0  0  0  0  0  0
    5.2010    4.0280    0.0000 C   0  0  0  0  0  0  0  0  0  0  0  0
    4.1680    2.9404    0.0000 C   0  0  0  0  0  0  0  0  0  0  0  0
    4.5934    1.5020    0.0000 C   0  0  0  0  0  0  0  0  0  0  0  0
    3.1350    1.8528    0.0000 C   0  0  0  0  0  0  0  0  0  0  0  0
    3.5604    0.4144    0.0000 C   0  0  0  0  0  0  0  0  0  0  0  0
    2.1020    0.7651    0.0000 C   0  0  0  0  0  0  0  0  0  0  0  0
    1.0690   -0.3225    0.0000 C   0  0  0  0  0  0  0  0  0  0  0  0
    1.4944   -1.7609    0.0000 C   0  0  0  0  0  0  0  0  0  0  0  0
    0.0073   -1.5645    0.0000 C   0  0  0  0  0  0  0  0  0  0  0  0
  2  1  1  6
  2  3  1  0
  3  4  1  0
  4  5  1  0
  5  6  2  0
  5  7  1  0
  7  8  1  0
  8  9  1  1
  9 10  1  0
 10 11  1  0
 11 12  2  0
 11 13  1  0
  8 14  1  0
 14 15  2  0
 14 16  1  0
  2 17  1  0
 17 18  1  6
 18 19  1  0
 20 19  1  6
 20 21  1  0
 21 22  1  1
 22 23  1  1
 22 24  1  0
 24 25  1  1
 24 26  1  0
 26 27  1  1
 27 28  1  0
 28 29  1  1
 28 30  1  0
 30 31  1  0
 31 32  1  0
 32 33  1  6
 32 34  1  0
 34 35  1  6
 35 36  1  0
 36 37  1  0
 37 38  1  6
 37 17  1  0
 37 20  1  0
 34 21  1  0
 32 26  1  0
M  END
>  <MS_ID>  (80) 
MS0083

>  <SMILES>  (80) 
C[C@H](CCC(=O)N[C@@H](CCC(=O)O)C(=O)O)[C@H]1CC[C@H]2[C@@H]3[C@H](O)[C@H](O)[C@@H]4C[C@H](O)CC[C@]4(C)[C@H]3CC[C@]12C

>  <Structure_dimension>  (80) 
2D

$$$$
MS0084
     RDKit          2D

 38 41  0  0  0  0  0  0  0  0999 V2000
   -3.4451   -4.2854    0.0000 C   0  0  0  0  0  0  0  0  0  0  0  0
   -2.5753   -3.0633    0.0000 C   0  0  0  0  0  0  0  0  0  0  0  0
   -3.1988   -1.6990    0.0000 C   0  0  0  0  0  0  0  0  0  0  0  0
   -4.6920   -1.5568    0.0000 C   0  0  0  0  0  0  0  0  0  0  0  0
   -5.3155   -0.1925    0.0000 C   0  0  0  0  0  0  0  0  0  0  0  0
   -4.4456    1.0296    0.0000 O   0  0  0  0  0  0  0  0  0  0  0  0
   -6.8087   -0.0502    0.0000 N   0  0  0  0  0  0  0  0  0  0  0  0
   -7.4321    1.3141    0.0000 C   0  0  0  0  0  0  0  0  0  0  0  0
   -8.9254    1.4563    0.0000 C   0  0  0  0  0  0  0  0  0  0  0  0
   -9.5488    2.8206    0.0000 C   0  0  0  0  0  0  0  0  0  0  0  0
  -11.0420    2.9628    0.0000 C   0  0  0  0  0  0  0  0  0  0  0  0
  -11.9119    1.7408    0.0000 O   0  0  0  0  0  0  0  0  0  0  0  0
  -11.6655    4.3271    0.0000 O   0  0  0  0  0  0  0  0  0  0  0  0
   -1.0821   -3.2056    0.0000 C   0  0  0  0  0  0  0  0  0  0  0  0
   -0.3195   -4.4972    0.0000 C   0  0  0  0  0  0  0  0  0  0  0  0
    1.1446   -4.1711    0.0000 C   0  0  0  0  0  0  0  0  0  0  0  0
    1.2869   -2.6778    0.0000 C   0  0  0  0  0  0  0  0  0  0  0  0
    2.4918   -1.7844    0.0000 C   0  0  0  0  0  0  0  0  0  0  0  0
    3.8680   -2.3811    0.0000 C   0  0  0  0  0  0  0  0  0  0  0  0
    4.0393   -3.8713    0.0000 O   0  0  0  0  0  0  0  0  0  0  0  0
    5.0728   -1.4876    0.0000 C   0  0  0  0  0  0  0  0  0  0  0  0
    4.9015    0.0026    0.0000 C   0  0  0  0  0  0  0  0  0  0  0  0
    6.1064    0.8960    0.0000 C   0  0  0  0  0  0  0  0  0  0  0  0
    5.9350    2.3862    0.0000 C   0  0  0  0  0  0  0  0  0  0  0  0
    7.1399    3.2797    0.0000 O   0  0  0  0  0  0  0  0  0  0  0  0
    8.5161    2.6830    0.0000 S   0  0  0  0  0  0  0  0  0  0  0  0
    7.9194    1.3068    0.0000 O   0  0  0  0  0  0  0  0  0  0  0  0
    9.1128    4.0592    0.0000 O   0  0  0  0  0  0  0  0  0  0  0  0
    9.8923    2.0863    0.0000 O   0  0  0  0  0  0  0  0  0  0  0  0
    4.5588    2.9829    0.0000 C   0  0  0  0  0  0  0  0  0  0  0  0
    3.3540    2.0895    0.0000 C   0  0  0  0  0  0  0  0  0  0  0  0
    3.5253    0.5993    0.0000 C   0  0  0  0  0  0  0  0  0  0  0  0
    2.1491    1.1960    0.0000 C   0  0  0  0  0  0  0  0  0  0  0  0
    2.3204   -0.2942    0.0000 C   0  0  0  0  0  0  0  0  0  0  0  0
    0.9442    0.3025    0.0000 C   0  0  0  0  0  0  0  0  0  0  0  0
   -0.2606   -0.5909    0.0000 C   0  0  0  0  0  0  0  0  0  0  0  0
   -0.0893   -2.0811    0.0000 C   0  0  0  0  0  0  0  0  0  0  0  0
   -1.5204   -1.6315    0.0000 C   0  0  0  0  0  0  0  0  0  0  0  0
  2  1  1  6
  2  3  1  0
  3  4  1  0
  4  5  1  0
  5  6  2  0
  5  7  1  0
  7  8  1  0
  8  9  1  0
  9 10  1  0
 10 11  1  0
 11 12  2  0
 11 13  1  0
  2 14  1  0
 14 15  1  6
 15 16  1  0
 17 16  1  6
 17 18  1  0
 18 19  1  1
 19 20  1  6
 19 21  1  0
 22 21  1  1
 22 23  1  0
 23 24  1  0
 24 25  1  1
 25 26  1  0
 26 27  2  0
 26 28  2  0
 26 29  1  0
 24 30  1  0
 30 31  1  0
 31 32  1  0
 32 33  1  6
 32 34  1  0
 34 35  1  6
 35 36  1  0
 36 37  1  0
 37 38  1  6
 37 14  1  0
 37 17  1  0
 34 18  1  0
 32 22  1  0
M  END
>  <MS_ID>  (81) 
MS0084

>  <SMILES>  (81) 
C[C@H](CCC(=O)NCCCC(=O)O)[C@H]1CC[C@H]2[C@@H]3[C@@H](O)C[C@@H]4C[C@H](OS(=O)(=O)O)CC[C@]4(C)[C@H]3CC[C@]12C

>  <Structure_dimension>  (81) 
2D

$$$$
MS0085
     RDKit          2D

 35 38  0  0  0  0  0  0  0  0999 V2000
   -5.4461   -3.0896    0.0000 C   0  0  0  0  0  0  0  0  0  0  0  0
   -4.3504   -2.0651    0.0000 C   0  0  0  0  0  0  0  0  0  0  0  0
   -4.6898   -0.6040    0.0000 C   0  0  0  0  0  0  0  0  0  0  0  0
   -6.1249   -0.1674    0.0000 C   0  0  0  0  0  0  0  0  0  0  0  0
   -6.4643    1.2937    0.0000 C   0  0  0  0  0  0  0  0  0  0  0  0
   -7.8993    1.7303    0.0000 O   0  0  0  0  0  0  0  0  0  0  0  0
   -5.3686    2.3182    0.0000 O   0  0  0  0  0  0  0  0  0  0  0  0
   -5.7080    3.7793    0.0000 C   0  0  0  0  0  0  0  0  0  0  0  0
   -7.1431    4.2159    0.0000 O   0  0  0  0  0  0  0  0  0  0  0  0
   -4.6124    4.8038    0.0000 O   0  0  0  0  0  0  0  0  0  0  0  0
   -2.9154   -2.5017    0.0000 C   0  0  0  0  0  0  0  0  0  0  0  0
   -2.4251   -3.9194    0.0000 C   0  0  0  0  0  0  0  0  0  0  0  0
   -0.9254   -3.8912    0.0000 C   0  0  0  0  0  0  0  0  0  0  0  0
   -0.4888   -2.4561    0.0000 C   0  0  0  0  0  0  0  0  0  0  0  0
    0.8698   -1.8203    0.0000 C   0  0  0  0  0  0  0  0  0  0  0  0
    2.0997   -2.6790    0.0000 C   0  0  0  0  0  0  0  0  0  0  0  0
    1.9710   -4.1735    0.0000 O   0  0  0  0  0  0  0  0  0  0  0  0
    3.4583   -2.0433    0.0000 C   0  0  0  0  0  0  0  0  0  0  0  0
    3.5870   -0.5488    0.0000 C   0  0  0  0  0  0  0  0  0  0  0  0
    4.9456    0.0869    0.0000 C   0  0  0  0  0  0  0  0  0  0  0  0
    5.0744    1.5814    0.0000 C   0  0  0  0  0  0  0  0  0  0  0  0
    6.4330    2.2172    0.0000 O   0  0  0  0  0  0  0  0  0  0  0  0
    7.6628    1.3585    0.0000 S   0  0  0  0  0  0  0  0  0  0  0  0
    6.8041    0.1286    0.0000 O   0  0  0  0  0  0  0  0  0  0  0  0
    8.5216    2.5884    0.0000 O   0  0  0  0  0  0  0  0  0  0  0  0
    8.8927    0.4998    0.0000 O   0  0  0  0  0  0  0  0  0  0  0  0
    3.8445    2.4401    0.0000 C   0  0  0  0  0  0  0  0  0  0  0  0
    2.4859    1.8044    0.0000 C   0  0  0  0  0  0  0  0  0  0  0  0
    2.3571    0.3099    0.0000 C   0  0  0  0  0  0  0  0  0  0  0  0
    1.1273    1.1686    0.0000 C   0  0  0  0  0  0  0  0  0  0  0  0
    0.9985   -0.3259    0.0000 C   0  0  0  0  0  0  0  0  0  0  0  0
   -0.2313    0.5328    0.0000 C   0  0  0  0  0  0  0  0  0  0  0  0
   -1.5900   -0.1029    0.0000 C   0  0  0  0  0  0  0  0  0  0  0  0
   -1.7187   -1.5974    0.0000 C   0  0  0  0  0  0  0  0  0  0  0  0
   -3.0316   -0.8720    0.0000 C   0  0  0  0  0  0  0  0  0  0  0  0
  2  1  1  6
  2  3  1  0
  3  4  1  0
  4  5  1  0
  5  6  2  0
  5  7  1  0
  7  8  1  0
  8  9  2  0
  8 10  1  0
  2 11  1  0
 11 12  1  6
 12 13  1  0
 14 13  1  6
 14 15  1  0
 15 16  1  1
 16 17  1  6
 16 18  1  0
 19 18  1  1
 19 20  1  0
 20 21  1  0
 21 22  1  1
 22 23  1  0
 23 24  2  0
 23 25  2  0
 23 26  1  0
 21 27  1  0
 27 28  1  0
 28 29  1  0
 29 30  1  6
 29 31  1  0
 31 32  1  6
 32 33  1  0
 33 34  1  0
 34 35  1  6
 34 11  1  0
 34 14  1  0
 31 15  1  0
 29 19  1  0
M  END
>  <MS_ID>  (82) 
MS0085

>  <SMILES>  (82) 
C[C@H](CCC(=O)OC(=O)O)[C@H]1CC[C@H]2[C@@H]3[C@@H](O)C[C@@H]4C[C@H](OS(=O)(=O)O)CC[C@]4(C)[C@H]3CC[C@]12C

>  <Structure_dimension>  (82) 
2D

$$$$
MS0086
     RDKit          2D

 32 35  0  0  0  0  0  0  0  0999 V2000
  -10.8107    3.0070    0.0000 C   0  0  0  0  0  0  0  0  0  0  0  0
   -9.3127    2.9291    0.0000 O   0  0  0  0  0  0  0  0  0  0  0  0
   -8.6311    1.5929    0.0000 C   0  0  0  0  0  0  0  0  0  0  0  0
   -7.1332    1.5150    0.0000 C   0  0  0  0  0  0  0  0  0  0  0  0
   -6.4516    0.1788    0.0000 O   0  0  0  0  0  0  0  0  0  0  0  0
   -4.9536    0.1009    0.0000 C   0  0  0  0  0  0  0  0  0  0  0  0
   -4.1372    1.3592    0.0000 O   0  0  0  0  0  0  0  0  0  0  0  0
   -4.2721   -1.2353    0.0000 C   0  0  0  0  0  0  0  0  0  0  0  0
   -2.7741   -1.3132    0.0000 C   0  0  0  0  0  0  0  0  0  0  0  0
   -2.0926   -2.6494    0.0000 C   0  0  0  0  0  0  0  0  0  0  0  0
   -2.9090   -3.9078    0.0000 C   0  0  0  0  0  0  0  0  0  0  0  0
   -0.5946   -2.7273    0.0000 C   0  0  0  0  0  0  0  0  0  0  0  0
    0.2229   -3.9850    0.0000 C   0  0  0  0  0  0  0  0  0  0  0  0
    1.6716   -3.5962    0.0000 C   0  0  0  0  0  0  0  0  0  0  0  0
    1.7495   -2.0982    0.0000 C   0  0  0  0  0  0  0  0  0  0  0  0
    2.9148   -1.1537    0.0000 C   0  0  0  0  0  0  0  0  0  0  0  0
    4.3154   -1.6907    0.0000 C   0  0  0  0  0  0  0  0  0  0  0  0
    4.5507   -3.1721    0.0000 O   0  0  0  0  0  0  0  0  0  0  0  0
    5.4807   -0.7462    0.0000 C   0  0  0  0  0  0  0  0  0  0  0  0
    5.2455    0.7352    0.0000 C   0  0  0  0  0  0  0  0  0  0  0  0
    6.4108    1.6797    0.0000 C   0  0  0  0  0  0  0  0  0  0  0  0
    6.1755    3.1611    0.0000 C   0  0  0  0  0  0  0  0  0  0  0  0
    7.3408    4.1056    0.0000 O   0  0  0  0  0  0  0  0  0  0  0  0
    4.7749    3.6981    0.0000 C   0  0  0  0  0  0  0  0  0  0  0  0
    3.6096    2.7536    0.0000 C   0  0  0  0  0  0  0  0  0  0  0  0
    3.8449    1.2722    0.0000 C   0  0  0  0  0  0  0  0  0  0  0  0
    2.4443    1.8091    0.0000 C   0  0  0  0  0  0  0  0  0  0  0  0
    2.6795    0.3277    0.0000 C   0  0  0  0  0  0  0  0  0  0  0  0
    1.2789    0.8647    0.0000 C   0  0  0  0  0  0  0  0  0  0  0  0
    0.1136   -0.0798    0.0000 C   0  0  0  0  0  0  0  0  0  0  0  0
    0.3489   -1.5612    0.0000 C   0  0  0  0  0  0  0  0  0  0  0  0
   -1.1002   -1.1736    0.0000 C   0  0  0  0  0  0  0  0  0  0  0  0
  1  2  1  0
  2  3  1  0
  3  4  1  0
  4  5  1  0
  5  6  1  0
  6  7  2  0
  6  8  1  0
  8  9  1  0
  9 10  1  0
 10 11  1  6
 10 12  1  0
 12 13  1  6
 13 14  1  0
 15 14  1  6
 15 16  1  0
 16 17  1  1
 17 18  1  1
 17 19  1  0
 20 19  1  1
 20 21  1  0
 21 22  1  0
 22 23  1  1
 22 24  1  0
 24 25  1  0
 25 26  1  0
 26 27  1  6
 26 28  1  0
 28 29  1  6
 29 30  1  0
 30 31  1  0
 31 32  1  6
 31 12  1  0
 31 15  1  0
 28 16  1  0
 26 20  1  0
M  END
>  <MS_ID>  (83) 
MS0086

>  <SMILES>  (83) 
COCCOC(=O)CC[C@@H](C)[C@H]1CC[C@H]2[C@@H]3[C@H](O)C[C@@H]4C[C@H](O)CC[C@]4(C)[C@H]3CC[C@]12C

>  <Structure_dimension>  (83) 
2D

$$$$
MS0087
     RDKit          2D

 40 44  0  0  0  0  0  0  0  0999 V2000
   -0.7256   -4.1349    0.0000 C   0  0  0  0  0  0  0  0  0  0  0  0
    0.0217   -2.8343    0.0000 C   0  0  0  0  0  0  0  0  0  0  0  0
   -0.7309   -1.5368    0.0000 C   0  0  0  0  0  0  0  0  0  0  0  0
   -2.2309   -1.5399    0.0000 C   0  0  0  0  0  0  0  0  0  0  0  0
   -2.9836   -0.2424    0.0000 C   0  0  0  0  0  0  0  0  0  0  0  0
   -2.2363    1.0582    0.0000 O   0  0  0  0  0  0  0  0  0  0  0  0
   -4.4836   -0.2455    0.0000 O   0  0  0  0  0  0  0  0  0  0  0  0
   -5.2363    1.0520    0.0000 C   0  0  0  0  0  0  0  0  0  0  0  0
   -6.7363    1.0489    0.0000 C   0  0  0  0  0  0  0  0  0  0  0  0
   -7.4889    2.3464    0.0000 O   0  0  0  0  0  0  0  0  0  0  0  0
   -8.9889    2.3433    0.0000 C   0  0  0  0  0  0  0  0  0  0  0  0
   -9.7416    3.6408    0.0000 O   0  0  0  0  0  0  0  0  0  0  0  0
   -9.7363    1.0427    0.0000 C   0  0  0  0  0  0  0  0  0  0  0  0
  -11.2363    1.0396    0.0000 O   0  0  0  0  0  0  0  0  0  0  0  0
   -8.9836   -0.2547    0.0000 C   0  0  0  0  0  0  0  0  0  0  0  0
   -9.7309   -1.5553    0.0000 O   0  0  0  0  0  0  0  0  0  0  0  0
   -7.4836   -0.2517    0.0000 C   0  0  0  0  0  0  0  0  0  0  0  0
   -6.7309   -1.5491    0.0000 O   0  0  0  0  0  0  0  0  0  0  0  0
    1.5217   -2.8312    0.0000 C   0  0  0  0  0  0  0  0  0  0  0  0
    2.4059   -4.0429    0.0000 C   0  0  0  0  0  0  0  0  0  0  0  0
    3.8315   -3.5764    0.0000 C   0  0  0  0  0  0  0  0  0  0  0  0
    3.8285   -2.0764    0.0000 C   0  0  0  0  0  0  0  0  0  0  0  0
    4.9411   -1.0704    0.0000 C   0  0  0  0  0  0  0  0  0  0  0  0
    6.3686   -1.5310    0.0000 C   0  0  0  0  0  0  0  0  0  0  0  0
    6.6835   -2.9976    0.0000 O   0  0  0  0  0  0  0  0  0  0  0  0
    7.4813   -0.5250    0.0000 C   0  0  0  0  0  0  0  0  0  0  0  0
    7.1664    0.9415    0.0000 C   0  0  0  0  0  0  0  0  0  0  0  0
    8.2790    1.9475    0.0000 C   0  0  0  0  0  0  0  0  0  0  0  0
    7.9642    3.4141    0.0000 C   0  0  0  0  0  0  0  0  0  0  0  0
    9.0768    4.4201    0.0000 O   0  0  0  0  0  0  0  0  0  0  0  0
    6.5366    3.8747    0.0000 C   0  0  0  0  0  0  0  0  0  0  0  0
    5.4240    2.8687    0.0000 C   0  0  0  0  0  0  0  0  0  0  0  0
    5.7389    1.4021    0.0000 C   0  0  0  0  0  0  0  0  0  0  0  0
    4.3113    1.8627    0.0000 C   0  0  0  0  0  0  0  0  0  0  0  0
    4.6262    0.3961    0.0000 C   0  0  0  0  0  0  0  0  0  0  0  0
    3.1987    0.8567    0.0000 C   0  0  0  0  0  0  0  0  0  0  0  0
    2.0860   -0.1493    0.0000 C   0  0  0  0  0  0  0  0  0  0  0  0
    0.6585    0.3113    0.0000 O   0  0  0  0  0  0  0  0  0  0  0  0
    2.4009   -1.6158    0.0000 C   0  0  0  0  0  0  0  0  0  0  0  0
    0.9331   -1.3070    0.0000 C   0  0  0  0  0  0  0  0  0  0  0  0
  2  1  1  6
  2  3  1  0
  3  4  1  0
  4  5  1  0
  5  6  2  0
  5  7  1  0
  7  8  1  0
  9  8  1  6
  9 10  1  0
 10 11  1  0
 11 12  1  6
 11 13  1  0
 13 14  1  1
 13 15  1  0
 15 16  1  6
 15 17  1  0
 17 18  1  1
  2 19  1  0
 19 20  1  6
 20 21  1  0
 22 21  1  6
 22 23  1  0
 23 24  1  1
 24 25  1  1
 24 26  1  0
 27 26  1  1
 27 28  1  0
 28 29  1  0
 29 30  1  1
 29 31  1  0
 31 32  1  0
 32 33  1  0
 33 34  1  6
 33 35  1  0
 35 36  1  6
 36 37  1  0
 37 38  1  1
 37 39  1  0
 39 40  1  6
 17  9  1  0
 39 19  1  0
 39 22  1  0
 35 23  1  0
 33 27  1  0
M  END
>  <MS_ID>  (84) 
MS0087

>  <SMILES>  (84) 
C[C@H](CCC(=O)OC[C@H]1O[C@@H](O)[C@H](O)[C@@H](O)[C@@H]1O)[C@H]1CC[C@H]2[C@@H]3[C@H](O)C[C@@H]4C[C@H](O)CC[C@]4(C)[C@H]3C[C@H](O)[C@]12C

>  <Structure_dimension>  (84) 
2D

$$$$
MS0088
     RDKit          2D

 33 36  0  0  0  0  0  0  0  0999 V2000
   -3.0978   -3.6919    0.0000 C   0  0  0  0  0  0  0  0  0  0  0  0
   -2.2201   -2.4755    0.0000 C   0  0  0  0  0  0  0  0  0  0  0  0
   -2.8347   -1.1072    0.0000 C   0  0  0  0  0  0  0  0  0  0  0  0
   -4.3270   -0.9552    0.0000 C   0  0  0  0  0  0  0  0  0  0  0  0
   -4.9416    0.4131    0.0000 C   0  0  0  0  0  0  0  0  0  0  0  0
   -4.0639    1.6295    0.0000 O   0  0  0  0  0  0  0  0  0  0  0  0
   -6.4339    0.5650    0.0000 C   0  0  0  0  0  0  0  0  0  0  0  0
   -7.0484    1.9333    0.0000 C   0  0  0  0  0  0  0  0  0  0  0  0
   -8.5407    2.0852    0.0000 C   0  0  0  0  0  0  0  0  0  0  0  0
   -9.4184    0.8688    0.0000 O   0  0  0  0  0  0  0  0  0  0  0  0
   -9.1553    3.4535    0.0000 O   0  0  0  0  0  0  0  0  0  0  0  0
   -0.7278   -2.6274    0.0000 C   0  0  0  0  0  0  0  0  0  0  0  0
    0.0264   -3.9240    0.0000 C   0  0  0  0  0  0  0  0  0  0  0  0
    1.4926   -3.6073    0.0000 C   0  0  0  0  0  0  0  0  0  0  0  0
    1.6445   -2.1150    0.0000 C   0  0  0  0  0  0  0  0  0  0  0  0
    2.8552   -1.2294    0.0000 C   0  0  0  0  0  0  0  0  0  0  0  0
    4.2275   -1.8350    0.0000 C   0  0  0  0  0  0  0  0  0  0  0  0
    4.3891   -3.3263    0.0000 O   0  0  0  0  0  0  0  0  0  0  0  0
    5.4381   -0.9494    0.0000 C   0  0  0  0  0  0  0  0  0  0  0  0
    5.2764    0.5419    0.0000 C   0  0  0  0  0  0  0  0  0  0  0  0
    6.4871    1.4275    0.0000 C   0  0  0  0  0  0  0  0  0  0  0  0
    6.3254    2.9188    0.0000 C   0  0  0  0  0  0  0  0  0  0  0  0
    7.5360    3.8044    0.0000 O   0  0  0  0  0  0  0  0  0  0  0  0
    4.9531    3.5244    0.0000 C   0  0  0  0  0  0  0  0  0  0  0  0
    3.7425    2.6388    0.0000 C   0  0  0  0  0  0  0  0  0  0  0  0
    3.9041    1.1475    0.0000 C   0  0  0  0  0  0  0  0  0  0  0  0
    2.5318    1.7531    0.0000 C   0  0  0  0  0  0  0  0  0  0  0  0
    2.6935    0.2619    0.0000 C   0  0  0  0  0  0  0  0  0  0  0  0
    1.3212    0.8675    0.0000 C   0  0  0  0  0  0  0  0  0  0  0  0
    0.1105   -0.0181    0.0000 C   0  0  0  0  0  0  0  0  0  0  0  0
   -1.2618    0.5875    0.0000 O   0  0  0  0  0  0  0  0  0  0  0  0
    0.2722   -1.5094    0.0000 C   0  0  0  0  0  0  0  0  0  0  0  0
   -1.1559   -1.0505    0.0000 C   0  0  0  0  0  0  0  0  0  0  0  0
  2  1  1  6
  2  3  1  0
  3  4  1  0
  4  5  1  0
  5  6  2  0
  5  7  1  0
  7  8  1  0
  8  9  1  0
  9 10  2  0
  9 11  1  0
  2 12  1  0
 12 13  1  6
 13 14  1  0
 15 14  1  6
 15 16  1  0
 16 17  1  1
 17 18  1  1
 17 19  1  0
 20 19  1  1
 20 21  1  0
 21 22  1  0
 22 23  1  1
 22 24  1  0
 24 25  1  0
 25 26  1  0
 26 27  1  6
 26 28  1  0
 28 29  1  6
 29 30  1  0
 30 31  1  1
 30 32  1  0
 32 33  1  6
 32 12  1  0
 32 15  1  0
 28 16  1  0
 26 20  1  0
M  END
>  <MS_ID>  (85) 
MS0088

>  <SMILES>  (85) 
C[C@H](CCC(=O)CCC(=O)O)[C@H]1CC[C@H]2[C@@H]3[C@H](O)C[C@@H]4C[C@H](O)CC[C@]4(C)[C@H]3C[C@H](O)[C@]12C

>  <Structure_dimension>  (85) 
2D

$$$$
MS0089
     RDKit          2D

 28 31  0  0  0  0  0  0  0  0999 V2000
   -5.0096   -2.1352    0.0000 C   0  0  0  0  0  0  0  0  0  0  0  0
   -3.8132   -1.2303    0.0000 C   0  0  0  0  0  0  0  0  0  0  0  0
   -3.9987    0.2582    0.0000 C   0  0  0  0  0  0  0  0  0  0  0  0
   -5.3805    0.8418    0.0000 C   0  0  0  0  0  0  0  0  0  0  0  0
   -5.5659    2.3303    0.0000 C   0  0  0  0  0  0  0  0  0  0  0  0
   -4.3695    3.2351    0.0000 O   0  0  0  0  0  0  0  0  0  0  0  0
   -6.9477    2.9140    0.0000 O   0  0  0  0  0  0  0  0  0  0  0  0
   -2.4315   -1.8140    0.0000 C   0  0  0  0  0  0  0  0  0  0  0  0
   -2.0914   -3.2749    0.0000 C   0  0  0  0  0  0  0  0  0  0  0  0
   -0.5969   -3.4030    0.0000 C   0  0  0  0  0  0  0  0  0  0  0  0
   -0.0133   -2.0212    0.0000 C   0  0  0  0  0  0  0  0  0  0  0  0
    1.4041   -1.5304    0.0000 C   0  0  0  0  0  0  0  0  0  0  0  0
    2.5379   -2.5125    0.0000 C   0  0  0  0  0  0  0  0  0  0  0  0
    3.9554   -2.0216    0.0000 C   0  0  0  0  0  0  0  0  0  0  0  0
    4.2390   -0.5487    0.0000 C   0  0  0  0  0  0  0  0  0  0  0  0
    5.6564   -0.0578    0.0000 C   0  0  0  0  0  0  0  0  0  0  0  0
    5.9400    1.4151    0.0000 C   0  0  0  0  0  0  0  0  0  0  0  0
    7.3574    1.9060    0.0000 O   0  0  0  0  0  0  0  0  0  0  0  0
    4.8062    2.3972    0.0000 C   0  0  0  0  0  0  0  0  0  0  0  0
    3.3888    1.9064    0.0000 C   0  0  0  0  0  0  0  0  0  0  0  0
    3.1052    0.4334    0.0000 C   0  0  0  0  0  0  0  0  0  0  0  0
    1.9714    1.4155    0.0000 C   0  0  0  0  0  0  0  0  0  0  0  0
    1.6878   -0.0574    0.0000 C   0  0  0  0  0  0  0  0  0  0  0  0
    0.5540    0.9246    0.0000 C   0  0  0  0  0  0  0  0  0  0  0  0
   -0.8635    0.4338    0.0000 C   0  0  0  0  0  0  0  0  0  0  0  0
   -1.9973    1.4159    0.0000 O   0  0  0  0  0  0  0  0  0  0  0  0
   -1.1471   -1.0392    0.0000 C   0  0  0  0  0  0  0  0  0  0  0  0
   -2.3773   -0.1810    0.0000 C   0  0  0  0  0  0  0  0  0  0  0  0
  2  1  1  6
  2  3  1  0
  3  4  1  0
  4  5  1  0
  5  6  2  0
  5  7  1  0
  2  8  1  0
  8  9  1  6
  9 10  1  0
 11 10  1  6
 11 12  1  0
 12 13  1  1
 13 14  1  0
 15 14  1  1
 15 16  1  0
 16 17  1  0
 17 18  1  6
 17 19  1  0
 19 20  1  0
 20 21  1  0
 21 22  1  6
 21 23  1  0
 23 24  1  6
 24 25  1  0
 25 26  2  0
 25 27  1  0
 27 28  1  6
 27  8  1  0
 27 11  1  0
 23 12  1  0
 21 15  1  0
M  END
>  <MS_ID>  (86) 
MS0089

>  <SMILES>  (86) 
C[C@H](CCC(=O)O)[C@H]1CC[C@H]2[C@@H]3CC[C@@H]4C[C@@H](O)CC[C@]4(C)[C@H]3CC(=O)[C@]12C

>  <Structure_dimension>  (86) 
2D

$$$$
MS0090
     RDKit          2D

 32 35  0  0  0  0  0  0  0  0999 V2000
   -4.0792   -3.5557    0.0000 C   0  0  0  0  0  0  0  0  0  0  0  0
   -3.1619   -2.3688    0.0000 C   0  0  0  0  0  0  0  0  0  0  0  0
   -3.7311   -0.9810    0.0000 C   0  0  0  0  0  0  0  0  0  0  0  0
   -5.2175   -0.7800    0.0000 C   0  0  0  0  0  0  0  0  0  0  0  0
   -5.7867    0.6078    0.0000 C   0  0  0  0  0  0  0  0  0  0  0  0
   -7.2732    0.8088    0.0000 O   0  0  0  0  0  0  0  0  0  0  0  0
   -4.8694    1.7946    0.0000 O   0  0  0  0  0  0  0  0  0  0  0  0
   -5.4386    3.1824    0.0000 C   0  0  0  0  0  0  0  0  0  0  0  0
   -6.9251    3.3834    0.0000 O   0  0  0  0  0  0  0  0  0  0  0  0
   -4.5213    4.3693    0.0000 O   0  0  0  0  0  0  0  0  0  0  0  0
   -1.6754   -2.5698    0.0000 C   0  0  0  0  0  0  0  0  0  0  0  0
   -0.9643   -3.8905    0.0000 C   0  0  0  0  0  0  0  0  0  0  0  0
    0.5115   -3.6223    0.0000 C   0  0  0  0  0  0  0  0  0  0  0  0
    0.7125   -2.1359    0.0000 C   0  0  0  0  0  0  0  0  0  0  0  0
    1.9517   -1.2906    0.0000 C   0  0  0  0  0  0  0  0  0  0  0  0
    3.3033   -1.9411    0.0000 C   0  0  0  0  0  0  0  0  0  0  0  0
    3.4158   -3.4368    0.0000 O   0  0  0  0  0  0  0  0  0  0  0  0
    4.5424   -1.0958    0.0000 C   0  0  0  0  0  0  0  0  0  0  0  0
    5.8941   -1.7463    0.0000 O   0  0  0  0  0  0  0  0  0  0  0  0
    4.4300    0.4000    0.0000 C   0  0  0  0  0  0  0  0  0  0  0  0
    5.6691    1.2453    0.0000 C   0  0  0  0  0  0  0  0  0  0  0  0
    5.5567    2.7411    0.0000 C   0  0  0  0  0  0  0  0  0  0  0  0
    6.7958    3.5863    0.0000 O   0  0  0  0  0  0  0  0  0  0  0  0
    4.2050    3.3916    0.0000 C   0  0  0  0  0  0  0  0  0  0  0  0
    2.9659    2.5463    0.0000 C   0  0  0  0  0  0  0  0  0  0  0  0
    3.0784    1.0505    0.0000 C   0  0  0  0  0  0  0  0  0  0  0  0
    1.7267    1.7010    0.0000 C   0  0  0  0  0  0  0  0  0  0  0  0
    1.8392    0.2052    0.0000 C   0  0  0  0  0  0  0  0  0  0  0  0
    0.4876    0.8557    0.0000 C   0  0  0  0  0  0  0  0  0  0  0  0
   -0.7516    0.0104    0.0000 C   0  0  0  0  0  0  0  0  0  0  0  0
   -0.6391   -1.4854    0.0000 C   0  0  0  0  0  0  0  0  0  0  0  0
   -2.0513   -0.9797    0.0000 C   0  0  0  0  0  0  0  0  0  0  0  0
  2  1  1  6
  2  3  1  0
  3  4  1  0
  4  5  1  0
  5  6  2  0
  5  7  1  0
  7  8  1  0
  8  9  2  0
  8 10  1  0
  2 11  1  0
 11 12  1  6
 12 13  1  0
 14 13  1  6
 14 15  1  0
 15 16  1  1
 16 17  1  1
 16 18  1  0
 18 19  1  1
 18 20  1  0
 20 21  1  1
 21 22  1  0
 22 23  1  1
 22 24  1  0
 24 25  1  0
 25 26  1  0
 26 27  1  6
 26 28  1  0
 28 29  1  6
 29 30  1  0
 30 31  1  0
 31 32  1  6
 31 11  1  0
 31 14  1  0
 28 15  1  0
 26 20  1  0
M  END
>  <MS_ID>  (87) 
MS0090

>  <SMILES>  (87) 
C[C@H](CCC(=O)OC(=O)O)[C@H]1CC[C@H]2[C@@H]3[C@H](O)[C@H](O)[C@@H]4C[C@H](O)CC[C@]4(C)[C@H]3CC[C@]12C

>  <Structure_dimension>  (87) 
2D

$$$$
MS0091
     RDKit          2D

 31 34  0  0  0  0  0  0  0  0999 V2000
   -8.8672    3.1400    0.0000 C   0  0  0  0  0  0  0  0  0  0  0  0
   -7.3980    2.8376    0.0000 C   0  0  0  0  0  0  0  0  0  0  0  0
   -6.9253    1.4140    0.0000 O   0  0  0  0  0  0  0  0  0  0  0  0
   -5.4561    1.1115    0.0000 C   0  0  0  0  0  0  0  0  0  0  0  0
   -4.4596    2.2326    0.0000 O   0  0  0  0  0  0  0  0  0  0  0  0
   -4.9835   -0.3121    0.0000 C   0  0  0  0  0  0  0  0  0  0  0  0
   -3.5143   -0.6145    0.0000 C   0  0  0  0  0  0  0  0  0  0  0  0
   -3.0416   -2.0381    0.0000 C   0  0  0  0  0  0  0  0  0  0  0  0
   -4.0382   -3.1592    0.0000 C   0  0  0  0  0  0  0  0  0  0  0  0
   -1.5724   -2.3406    0.0000 C   0  0  0  0  0  0  0  0  0  0  0  0
   -0.9536   -3.7070    0.0000 C   0  0  0  0  0  0  0  0  0  0  0  0
    0.5372   -3.5406    0.0000 C   0  0  0  0  0  0  0  0  0  0  0  0
    0.8396   -2.0714    0.0000 C   0  0  0  0  0  0  0  0  0  0  0  0
    2.1338   -1.3131    0.0000 C   0  0  0  0  0  0  0  0  0  0  0  0
    3.4377   -2.0548    0.0000 C   0  0  0  0  0  0  0  0  0  0  0  0
    3.4473   -3.5547    0.0000 O   0  0  0  0  0  0  0  0  0  0  0  0
    4.7319   -1.2965    0.0000 C   0  0  0  0  0  0  0  0  0  0  0  0
    4.7223    0.2035    0.0000 C   0  0  0  0  0  0  0  0  0  0  0  0
    6.0165    0.9618    0.0000 C   0  0  0  0  0  0  0  0  0  0  0  0
    6.0069    2.4618    0.0000 C   0  0  0  0  0  0  0  0  0  0  0  0
    7.3011    3.2201    0.0000 O   0  0  0  0  0  0  0  0  0  0  0  0
    4.7030    3.2034    0.0000 C   0  0  0  0  0  0  0  0  0  0  0  0
    3.4088    2.4451    0.0000 C   0  0  0  0  0  0  0  0  0  0  0  0
    3.4184    0.9452    0.0000 C   0  0  0  0  0  0  0  0  0  0  0  0
    2.1146    1.6868    0.0000 C   0  0  0  0  0  0  0  0  0  0  0  0
    2.1242    0.1869    0.0000 C   0  0  0  0  0  0  0  0  0  0  0  0
    0.8204    0.9285    0.0000 C   0  0  0  0  0  0  0  0  0  0  0  0
   -0.4738    0.1702    0.0000 C   0  0  0  0  0  0  0  0  0  0  0  0
   -1.7776    0.9119    0.0000 O   0  0  0  0  0  0  0  0  0  0  0  0
   -0.4642   -1.3298    0.0000 C   0  0  0  0  0  0  0  0  0  0  0  0
   -1.8384   -0.7284    0.0000 C   0  0  0  0  0  0  0  0  0  0  0  0
  1  2  1  0
  2  3  1  0
  3  4  1  0
  4  5  2  0
  4  6  1  0
  6  7  1  0
  7  8  1  0
  8  9  1  6
  8 10  1  0
 10 11  1  6
 11 12  1  0
 13 12  1  6
 13 14  1  0
 14 15  1  1
 15 16  1  1
 15 17  1  0
 18 17  1  1
 18 19  1  0
 19 20  1  0
 20 21  1  1
 20 22  1  0
 22 23  1  0
 23 24  1  0
 24 25  1  6
 24 26  1  0
 26 27  1  6
 27 28  1  0
 28 29  1  1
 28 30  1  0
 30 31  1  6
 30 10  1  0
 30 13  1  0
 26 14  1  0
 24 18  1  0
M  END
>  <MS_ID>  (88) 
MS0091

>  <SMILES>  (88) 
CCOC(=O)CC[C@@H](C)[C@H]1CC[C@H]2[C@@H]3[C@H](O)C[C@@H]4C[C@H](O)CC[C@]4(C)[C@H]3C[C@H](O)[C@]12C

>  <Structure_dimension>  (88) 
2D

$$$$
MS0092
     RDKit          2D

 34 37  0  0  0  0  0  0  0  0999 V2000
   -2.4018   -4.1785    0.0000 C   0  0  0  0  0  0  0  0  0  0  0  0
   -1.6536   -2.8784    0.0000 C   0  0  0  0  0  0  0  0  0  0  0  0
   -2.4055   -1.5804    0.0000 C   0  0  0  0  0  0  0  0  0  0  0  0
   -3.9055   -1.5826    0.0000 C   0  0  0  0  0  0  0  0  0  0  0  0
   -4.6574   -0.2846    0.0000 C   0  0  0  0  0  0  0  0  0  0  0  0
   -3.9092    1.0155    0.0000 O   0  0  0  0  0  0  0  0  0  0  0  0
   -6.1574   -0.2867    0.0000 N   0  0  0  0  0  0  0  0  0  0  0  0
   -6.9092    1.0112    0.0000 C   0  0  0  0  0  0  0  0  0  0  0  0
   -8.4092    1.0091    0.0000 C   0  0  0  0  0  0  0  0  0  0  0  0
   -9.1611    2.3071    0.0000 C   0  0  0  0  0  0  0  0  0  0  0  0
   -8.4129    3.6072    0.0000 O   0  0  0  0  0  0  0  0  0  0  0  0
  -10.6611    2.3049    0.0000 O   0  0  0  0  0  0  0  0  0  0  0  0
   -0.1536   -2.8762    0.0000 C   0  0  0  0  0  0  0  0  0  0  0  0
    0.7298   -4.0885    0.0000 C   0  0  0  0  0  0  0  0  0  0  0  0
    2.1557   -3.6229    0.0000 C   0  0  0  0  0  0  0  0  0  0  0  0
    2.1535   -2.1229    0.0000 C   0  0  0  0  0  0  0  0  0  0  0  0
    3.2668   -1.1176    0.0000 C   0  0  0  0  0  0  0  0  0  0  0  0
    4.6941   -1.5791    0.0000 C   0  0  0  0  0  0  0  0  0  0  0  0
    5.0080   -3.0459    0.0000 O   0  0  0  0  0  0  0  0  0  0  0  0
    5.8073   -0.5738    0.0000 C   0  0  0  0  0  0  0  0  0  0  0  0
    5.4934    0.8929    0.0000 C   0  0  0  0  0  0  0  0  0  0  0  0
    6.6067    1.8982    0.0000 C   0  0  0  0  0  0  0  0  0  0  0  0
    6.2927    3.3650    0.0000 C   0  0  0  0  0  0  0  0  0  0  0  0
    7.4060    4.3703    0.0000 O   0  0  0  0  0  0  0  0  0  0  0  0
    4.8655    3.8265    0.0000 C   0  0  0  0  0  0  0  0  0  0  0  0
    3.7522    2.8212    0.0000 C   0  0  0  0  0  0  0  0  0  0  0  0
    4.0661    1.3544    0.0000 C   0  0  0  0  0  0  0  0  0  0  0  0
    2.6389    1.8159    0.0000 C   0  0  0  0  0  0  0  0  0  0  0  0
    2.9529    0.3491    0.0000 C   0  0  0  0  0  0  0  0  0  0  0  0
    1.5256    0.8106    0.0000 C   0  0  0  0  0  0  0  0  0  0  0  0
    0.4123   -0.1947    0.0000 C   0  0  0  0  0  0  0  0  0  0  0  0
   -1.0149    0.2668    0.0000 O   0  0  0  0  0  0  0  0  0  0  0  0
    0.7263   -1.6614    0.0000 C   0  0  0  0  0  0  0  0  0  0  0  0
   -0.7414   -1.3517    0.0000 C   0  0  0  0  0  0  0  0  0  0  0  0
  2  1  1  6
  2  3  1  0
  3  4  1  0
  4  5  1  0
  5  6  2  0
  5  7  1  0
  7  8  1  0
  8  9  1  0
  9 10  1  0
 10 11  2  0
 10 12  1  0
  2 13  1  0
 13 14  1  6
 14 15  1  0
 16 15  1  6
 16 17  1  0
 17 18  1  1
 18 19  1  1
 18 20  1  0
 21 20  1  1
 21 22  1  0
 22 23  1  0
 23 24  1  1
 23 25  1  0
 25 26  1  0
 26 27  1  0
 27 28  1  6
 27 29  1  0
 29 30  1  6
 30 31  1  0
 31 32  1  1
 31 33  1  0
 33 34  1  6
 33 13  1  0
 33 16  1  0
 29 17  1  0
 27 21  1  0
M  END
>  <MS_ID>  (89) 
MS0092

>  <SMILES>  (89) 
C[C@H](CCC(=O)NCCC(=O)O)[C@H]1CC[C@H]2[C@@H]3[C@H](O)C[C@@H]4C[C@H](O)CC[C@]4(C)[C@H]3C[C@H](O)[C@]12C

>  <Structure_dimension>  (89) 
2D

$$$$
MS0093
     RDKit          2D

 33 36  0  0  0  0  0  0  0  0999 V2000
   -2.4343   -4.1694    0.0000 C   0  0  0  0  0  0  0  0  0  0  0  0
   -1.6856   -2.8696    0.0000 C   0  0  0  0  0  0  0  0  0  0  0  0
   -2.4369   -1.5713    0.0000 C   0  0  0  0  0  0  0  0  0  0  0  0
   -3.9369   -1.5728    0.0000 C   0  0  0  0  0  0  0  0  0  0  0  0
   -4.6882   -0.2745    0.0000 C   0  0  0  0  0  0  0  0  0  0  0  0
   -3.9395    1.0253    0.0000 O   0  0  0  0  0  0  0  0  0  0  0  0
   -6.1882   -0.2760    0.0000 N   0  0  0  0  0  0  0  0  0  0  0  0
   -6.9395    1.0223    0.0000 C   0  0  0  0  0  0  0  0  0  0  0  0
   -8.4395    1.0208    0.0000 C   0  0  0  0  0  0  0  0  0  0  0  0
   -9.1908    2.3191    0.0000 C   0  0  0  0  0  0  0  0  0  0  0  0
   -8.4421    3.6189    0.0000 O   0  0  0  0  0  0  0  0  0  0  0  0
  -10.6908    2.3176    0.0000 O   0  0  0  0  0  0  0  0  0  0  0  0
   -0.1856   -2.8681    0.0000 C   0  0  0  0  0  0  0  0  0  0  0  0
    0.6973   -4.0807    0.0000 C   0  0  0  0  0  0  0  0  0  0  0  0
    2.1234   -3.6158    0.0000 C   0  0  0  0  0  0  0  0  0  0  0  0
    2.1219   -2.1158    0.0000 C   0  0  0  0  0  0  0  0  0  0  0  0
    3.2356   -1.1109    0.0000 C   0  0  0  0  0  0  0  0  0  0  0  0
    4.6626   -1.5730    0.0000 C   0  0  0  0  0  0  0  0  0  0  0  0
    4.9760   -3.0399    0.0000 O   0  0  0  0  0  0  0  0  0  0  0  0
    5.7764   -0.5682    0.0000 C   0  0  0  0  0  0  0  0  0  0  0  0
    5.4630    0.8987    0.0000 C   0  0  0  0  0  0  0  0  0  0  0  0
    6.5767    1.9035    0.0000 C   0  0  0  0  0  0  0  0  0  0  0  0
    6.2634    3.3704    0.0000 C   0  0  0  0  0  0  0  0  0  0  0  0
    7.3771    4.3752    0.0000 O   0  0  0  0  0  0  0  0  0  0  0  0
    4.8363    3.8325    0.0000 C   0  0  0  0  0  0  0  0  0  0  0  0
    3.7226    2.8277    0.0000 C   0  0  0  0  0  0  0  0  0  0  0  0
    4.0360    1.3608    0.0000 C   0  0  0  0  0  0  0  0  0  0  0  0
    2.6089    1.8229    0.0000 C   0  0  0  0  0  0  0  0  0  0  0  0
    2.9223    0.3560    0.0000 C   0  0  0  0  0  0  0  0  0  0  0  0
    1.4952    0.8181    0.0000 C   0  0  0  0  0  0  0  0  0  0  0  0
    0.3815   -0.1867    0.0000 C   0  0  0  0  0  0  0  0  0  0  0  0
    0.6948   -1.6537    0.0000 C   0  0  0  0  0  0  0  0  0  0  0  0
   -0.7727   -1.3433    0.0000 C   0  0  0  0  0  0  0  0  0  0  0  0
  2  1  1  6
  2  3  1  0
  3  4  1  0
  4  5  1  0
  5  6  2  0
  5  7  1  0
  7  8  1  0
  8  9  1  0
  9 10  1  0
 10 11  2  0
 10 12  1  0
  2 13  1  0
 13 14  1  6
 14 15  1  0
 16 15  1  6
 16 17  1  0
 17 18  1  1
 18 19  1  1
 18 20  1  0
 21 20  1  1
 21 22  1  0
 22 23  1  0
 23 24  1  1
 23 25  1  0
 25 26  1  0
 26 27  1  0
 27 28  1  6
 27 29  1  0
 29 30  1  6
 30 31  1  0
 31 32  1  0
 32 33  1  6
 32 13  1  0
 32 16  1  0
 29 17  1  0
 27 21  1  0
M  END
>  <MS_ID>  (90) 
MS0093

>  <SMILES>  (90) 
C[C@H](CCC(=O)NCCC(=O)O)[C@H]1CC[C@H]2[C@@H]3[C@H](O)C[C@@H]4C[C@H](O)CC[C@]4(C)[C@H]3CC[C@]12C

>  <Structure_dimension>  (90) 
2D

$$$$
MS0094
     RDKit          2D

 33 36  0  0  0  0  0  0  0  0999 V2000
  -10.7745    2.9828    0.0000 C   0  0  0  0  0  0  0  0  0  0  0  0
   -9.2765    2.9064    0.0000 C   0  0  0  0  0  0  0  0  0  0  0  0
   -8.5936    1.5708    0.0000 C   0  0  0  0  0  0  0  0  0  0  0  0
   -7.0956    1.4944    0.0000 C   0  0  0  0  0  0  0  0  0  0  0  0
   -6.4128    0.1588    0.0000 C   0  0  0  0  0  0  0  0  0  0  0  0
   -4.9147    0.0823    0.0000 C   0  0  0  0  0  0  0  0  0  0  0  0
   -4.0995    1.3415    0.0000 O   0  0  0  0  0  0  0  0  0  0  0  0
   -4.2319   -1.2532    0.0000 C   0  0  0  0  0  0  0  0  0  0  0  0
   -2.7339   -1.3297    0.0000 C   0  0  0  0  0  0  0  0  0  0  0  0
   -2.0510   -2.6653    0.0000 C   0  0  0  0  0  0  0  0  0  0  0  0
   -2.8663   -3.9244    0.0000 C   0  0  0  0  0  0  0  0  0  0  0  0
   -0.5530   -2.7417    0.0000 C   0  0  0  0  0  0  0  0  0  0  0  0
    0.2657   -3.9986    0.0000 C   0  0  0  0  0  0  0  0  0  0  0  0
    1.7140   -3.6084    0.0000 C   0  0  0  0  0  0  0  0  0  0  0  0
    1.7905   -2.1103    0.0000 C   0  0  0  0  0  0  0  0  0  0  0  0
    2.9549   -1.1648    0.0000 C   0  0  0  0  0  0  0  0  0  0  0  0
    4.3560   -1.7004    0.0000 C   0  0  0  0  0  0  0  0  0  0  0  0
    4.5927   -3.1816    0.0000 O   0  0  0  0  0  0  0  0  0  0  0  0
    5.5204   -0.7548    0.0000 C   0  0  0  0  0  0  0  0  0  0  0  0
    5.2838    0.7264    0.0000 C   0  0  0  0  0  0  0  0  0  0  0  0
    6.4482    1.6720    0.0000 C   0  0  0  0  0  0  0  0  0  0  0  0
    6.2115    3.1532    0.0000 C   0  0  0  0  0  0  0  0  0  0  0  0
    7.3759    4.0988    0.0000 O   0  0  0  0  0  0  0  0  0  0  0  0
    4.8104    3.6888    0.0000 C   0  0  0  0  0  0  0  0  0  0  0  0
    3.6460    2.7432    0.0000 C   0  0  0  0  0  0  0  0  0  0  0  0
    3.8827    1.2620    0.0000 C   0  0  0  0  0  0  0  0  0  0  0  0
    2.4816    1.7977    0.0000 C   0  0  0  0  0  0  0  0  0  0  0  0
    2.7182    0.3165    0.0000 C   0  0  0  0  0  0  0  0  0  0  0  0
    1.3171    0.8521    0.0000 C   0  0  0  0  0  0  0  0  0  0  0  0
    0.1527   -0.0935    0.0000 C   0  0  0  0  0  0  0  0  0  0  0  0
   -1.2484    0.4421    0.0000 O   0  0  0  0  0  0  0  0  0  0  0  0
    0.3894   -1.5747    0.0000 C   0  0  0  0  0  0  0  0  0  0  0  0
   -1.0600   -1.1885    0.0000 C   0  0  0  0  0  0  0  0  0  0  0  0
  1  2  1  0
  2  3  1  0
  3  4  1  0
  4  5  1  0
  5  6  1  0
  6  7  2  0
  6  8  1  0
  8  9  1  0
  9 10  1  0
 10 11  1  6
 10 12  1  0
 12 13  1  6
 13 14  1  0
 15 14  1  6
 15 16  1  0
 16 17  1  1
 17 18  1  1
 17 19  1  0
 20 19  1  1
 20 21  1  0
 21 22  1  0
 22 23  1  1
 22 24  1  0
 24 25  1  0
 25 26  1  0
 26 27  1  6
 26 28  1  0
 28 29  1  6
 29 30  1  0
 30 31  1  1
 30 32  1  0
 32 33  1  6
 32 12  1  0
 32 15  1  0
 28 16  1  0
 26 20  1  0
M  END
>  <MS_ID>  (91) 
MS0094

>  <SMILES>  (91) 
CCCCCC(=O)CC[C@@H](C)[C@H]1CC[C@H]2[C@@H]3[C@H](O)C[C@@H]4C[C@H](O)CC[C@]4(C)[C@H]3C[C@H](O)[C@]12C

>  <Structure_dimension>  (91) 
2D

$$$$
MS0095
     RDKit          2D

 32 35  0  0  0  0  0  0  0  0999 V2000
   -3.1421   -3.6694    0.0000 C   0  0  0  0  0  0  0  0  0  0  0  0
   -2.2628   -2.4541    0.0000 C   0  0  0  0  0  0  0  0  0  0  0  0
   -2.8756   -1.0850    0.0000 C   0  0  0  0  0  0  0  0  0  0  0  0
   -4.3676   -0.9311    0.0000 C   0  0  0  0  0  0  0  0  0  0  0  0
   -4.9804    0.4380    0.0000 C   0  0  0  0  0  0  0  0  0  0  0  0
   -4.1011    1.6532    0.0000 O   0  0  0  0  0  0  0  0  0  0  0  0
   -6.4725    0.5919    0.0000 C   0  0  0  0  0  0  0  0  0  0  0  0
   -7.0853    1.9610    0.0000 C   0  0  0  0  0  0  0  0  0  0  0  0
   -8.5774    2.1149    0.0000 C   0  0  0  0  0  0  0  0  0  0  0  0
   -9.4567    0.8996    0.0000 O   0  0  0  0  0  0  0  0  0  0  0  0
   -9.1901    3.4840    0.0000 O   0  0  0  0  0  0  0  0  0  0  0  0
   -0.7707   -2.6080    0.0000 C   0  0  0  0  0  0  0  0  0  0  0  0
   -0.0182   -3.9056    0.0000 C   0  0  0  0  0  0  0  0  0  0  0  0
    1.4484   -3.5909    0.0000 C   0  0  0  0  0  0  0  0  0  0  0  0
    1.6023   -2.0988    0.0000 C   0  0  0  0  0  0  0  0  0  0  0  0
    2.8141   -1.2147    0.0000 C   0  0  0  0  0  0  0  0  0  0  0  0
    4.1856   -1.8222    0.0000 C   0  0  0  0  0  0  0  0  0  0  0  0
    4.3453   -3.3136    0.0000 O   0  0  0  0  0  0  0  0  0  0  0  0
    5.3974   -0.9381    0.0000 C   0  0  0  0  0  0  0  0  0  0  0  0
    5.2377    0.5533    0.0000 C   0  0  0  0  0  0  0  0  0  0  0  0
    6.4495    1.4374    0.0000 C   0  0  0  0  0  0  0  0  0  0  0  0
    6.2898    2.9289    0.0000 C   0  0  0  0  0  0  0  0  0  0  0  0
    7.5016    3.8129    0.0000 O   0  0  0  0  0  0  0  0  0  0  0  0
    4.9183    3.5363    0.0000 C   0  0  0  0  0  0  0  0  0  0  0  0
    3.7065    2.6522    0.0000 C   0  0  0  0  0  0  0  0  0  0  0  0
    3.8662    1.1608    0.0000 C   0  0  0  0  0  0  0  0  0  0  0  0
    2.4947    1.7682    0.0000 C   0  0  0  0  0  0  0  0  0  0  0  0
    2.6544    0.2767    0.0000 C   0  0  0  0  0  0  0  0  0  0  0  0
    1.2829    0.8842    0.0000 C   0  0  0  0  0  0  0  0  0  0  0  0
    0.0711    0.0001    0.0000 C   0  0  0  0  0  0  0  0  0  0  0  0
    0.2308   -1.4914    0.0000 C   0  0  0  0  0  0  0  0  0  0  0  0
   -1.1967   -1.0306    0.0000 C   0  0  0  0  0  0  0  0  0  0  0  0
  2  1  1  6
  2  3  1  0
  3  4  1  0
  4  5  1  0
  5  6  2  0
  5  7  1  0
  7  8  1  0
  8  9  1  0
  9 10  2  0
  9 11  1  0
  2 12  1  0
 12 13  1  6
 13 14  1  0
 15 14  1  6
 15 16  1  0
 16 17  1  1
 17 18  1  6
 17 19  1  0
 20 19  1  1
 20 21  1  0
 21 22  1  0
 22 23  1  1
 22 24  1  0
 24 25  1  0
 25 26  1  0
 26 27  1  6
 26 28  1  0
 28 29  1  6
 29 30  1  0
 30 31  1  0
 31 32  1  6
 31 12  1  0
 31 15  1  0
 28 16  1  0
 26 20  1  0
M  END
>  <MS_ID>  (92) 
MS0095

>  <SMILES>  (92) 
C[C@H](CCC(=O)CCC(=O)O)[C@H]1CC[C@H]2[C@@H]3[C@@H](O)C[C@@H]4C[C@H](O)CC[C@]4(C)[C@H]3CC[C@]12C

>  <Structure_dimension>  (92) 
2D

$$$$
MS0096
     RDKit          2D

 31 34  0  0  0  0  0  0  0  0999 V2000
   -3.6377   -3.4900    0.0000 C   0  0  0  0  0  0  0  0  0  0  0  0
   -2.6684   -2.3453    0.0000 C   0  0  0  0  0  0  0  0  0  0  0  0
   -3.1751   -0.9335    0.0000 C   0  0  0  0  0  0  0  0  0  0  0  0
   -4.6511   -0.6664    0.0000 C   0  0  0  0  0  0  0  0  0  0  0  0
   -5.1578    0.7454    0.0000 C   0  0  0  0  0  0  0  0  0  0  0  0
   -4.1885    1.8902    0.0000 O   0  0  0  0  0  0  0  0  0  0  0  0
   -6.6339    1.0125    0.0000 C   0  0  0  0  0  0  0  0  0  0  0  0
   -7.1406    2.4243    0.0000 C   0  0  0  0  0  0  0  0  0  0  0  0
   -6.1713    3.5691    0.0000 O   0  0  0  0  0  0  0  0  0  0  0  0
   -8.6166    2.6914    0.0000 O   0  0  0  0  0  0  0  0  0  0  0  0
   -1.1923   -2.6123    0.0000 C   0  0  0  0  0  0  0  0  0  0  0  0
   -0.5408   -3.9635    0.0000 C   0  0  0  0  0  0  0  0  0  0  0  0
    0.9455   -3.7613    0.0000 C   0  0  0  0  0  0  0  0  0  0  0  0
    1.2126   -2.2853    0.0000 C   0  0  0  0  0  0  0  0  0  0  0  0
    2.4882   -1.4961    0.0000 C   0  0  0  0  0  0  0  0  0  0  0  0
    3.8095   -2.2063    0.0000 C   0  0  0  0  0  0  0  0  0  0  0  0
    5.0851   -1.4171    0.0000 C   0  0  0  0  0  0  0  0  0  0  0  0
    5.0394    0.0822    0.0000 C   0  0  0  0  0  0  0  0  0  0  0  0
    6.3151    0.8714    0.0000 C   0  0  0  0  0  0  0  0  0  0  0  0
    6.2694    2.3707    0.0000 C   0  0  0  0  0  0  0  0  0  0  0  0
    7.5450    3.1599    0.0000 O   0  0  0  0  0  0  0  0  0  0  0  0
    4.9481    3.0808    0.0000 C   0  0  0  0  0  0  0  0  0  0  0  0
    3.6725    2.2917    0.0000 C   0  0  0  0  0  0  0  0  0  0  0  0
    3.7182    0.7924    0.0000 C   0  0  0  0  0  0  0  0  0  0  0  0
    2.3969    1.5025    0.0000 C   0  0  0  0  0  0  0  0  0  0  0  0
    2.4426    0.0032    0.0000 C   0  0  0  0  0  0  0  0  0  0  0  0
    1.1213    0.7133    0.0000 C   0  0  0  0  0  0  0  0  0  0  0  0
   -0.1543   -0.0759    0.0000 C   0  0  0  0  0  0  0  0  0  0  0  0
   -1.4756    0.6342    0.0000 O   0  0  0  0  0  0  0  0  0  0  0  0
   -0.1087   -1.5752    0.0000 C   0  0  0  0  0  0  0  0  0  0  0  0
   -1.4969   -1.0071    0.0000 C   0  0  0  0  0  0  0  0  0  0  0  0
  2  1  1  6
  2  3  1  0
  3  4  1  0
  4  5  1  0
  5  6  2  0
  5  7  1  0
  7  8  1  0
  8  9  2  0
  8 10  1  0
  2 11  1  0
 11 12  1  6
 12 13  1  0
 14 13  1  6
 14 15  1  0
 15 16  1  1
 16 17  1  0
 18 17  1  1
 18 19  1  0
 19 20  1  0
 20 21  1  1
 20 22  1  0
 22 23  1  0
 23 24  1  0
 24 25  1  6
 24 26  1  0
 26 27  1  6
 27 28  1  0
 28 29  1  1
 28 30  1  0
 30 31  1  6
 30 11  1  0
 30 14  1  0
 26 15  1  0
 24 18  1  0
M  END
>  <MS_ID>  (93) 
MS0096

>  <SMILES>  (93) 
C[C@H](CCC(=O)CC(=O)O)[C@H]1CC[C@H]2[C@@H]3CC[C@@H]4C[C@H](O)CC[C@]4(C)[C@H]3C[C@H](O)[C@]12C

>  <Structure_dimension>  (93) 
2D

$$$$
MS0098
     RDKit          2D

 34 37  0  0  0  0  0  0  0  0999 V2000
   -1.9628   -4.3460    0.0000 C   0  0  0  0  0  0  0  0  0  0  0  0
   -1.2213   -3.0421    0.0000 C   0  0  0  0  0  0  0  0  0  0  0  0
   -1.9798   -1.7480    0.0000 C   0  0  0  0  0  0  0  0  0  0  0  0
   -3.4798   -1.7579    0.0000 C   0  0  0  0  0  0  0  0  0  0  0  0
   -4.2383   -0.4638    0.0000 C   0  0  0  0  0  0  0  0  0  0  0  0
   -3.4968    0.8402    0.0000 O   0  0  0  0  0  0  0  0  0  0  0  0
   -5.7383   -0.4736    0.0000 N   0  0  0  0  0  0  0  0  0  0  0  0
   -6.4968    0.8205    0.0000 C   0  0  0  0  0  0  0  0  0  0  0  0
   -7.9967    0.8106    0.0000 C   0  0  0  0  0  0  0  0  0  0  0  0
   -8.7552    2.1047    0.0000 S   0  0  0  0  0  0  0  0  0  0  0  0
  -10.0493    1.3462    0.0000 O   0  0  0  0  0  0  0  0  0  0  0  0
   -7.4611    2.8632    0.0000 O   0  0  0  0  0  0  0  0  0  0  0  0
   -9.5137    3.3988    0.0000 O   0  0  0  0  0  0  0  0  0  0  0  0
    0.2786   -3.0323    0.0000 C   0  0  0  0  0  0  0  0  0  0  0  0
    1.1683   -4.2400    0.0000 C   0  0  0  0  0  0  0  0  0  0  0  0
    2.5918   -3.7671    0.0000 C   0  0  0  0  0  0  0  0  0  0  0  0
    2.5819   -2.2672    0.0000 C   0  0  0  0  0  0  0  0  0  0  0  0
    3.6901   -1.2562    0.0000 C   0  0  0  0  0  0  0  0  0  0  0  0
    5.1196   -1.7103    0.0000 C   0  0  0  0  0  0  0  0  0  0  0  0
    6.2278   -0.6993    0.0000 C   0  0  0  0  0  0  0  0  0  0  0  0
    5.9063    0.7658    0.0000 C   0  0  0  0  0  0  0  0  0  0  0  0
    7.0144    1.7768    0.0000 C   0  0  0  0  0  0  0  0  0  0  0  0
    6.6929    3.2419    0.0000 C   0  0  0  0  0  0  0  0  0  0  0  0
    7.8010    4.2529    0.0000 O   0  0  0  0  0  0  0  0  0  0  0  0
    5.2633    3.6961    0.0000 C   0  0  0  0  0  0  0  0  0  0  0  0
    4.1552    2.6851    0.0000 C   0  0  0  0  0  0  0  0  0  0  0  0
    4.4767    1.2200    0.0000 C   0  0  0  0  0  0  0  0  0  0  0  0
    3.0471    1.6741    0.0000 C   0  0  0  0  0  0  0  0  0  0  0  0
    3.3686    0.2090    0.0000 C   0  0  0  0  0  0  0  0  0  0  0  0
    1.9390    0.6631    0.0000 C   0  0  0  0  0  0  0  0  0  0  0  0
    0.8309   -0.3479    0.0000 C   0  0  0  0  0  0  0  0  0  0  0  0
   -0.5987    0.1063    0.0000 O   0  0  0  0  0  0  0  0  0  0  0  0
    1.1523   -1.8130    0.0000 C   0  0  0  0  0  0  0  0  0  0  0  0
   -0.3169   -1.5108    0.0000 C   0  0  0  0  0  0  0  0  0  0  0  0
  2  1  1  6
  2  3  1  0
  3  4  1  0
  4  5  1  0
  5  6  2  0
  5  7  1  0
  7  8  1  0
  8  9  1  0
  9 10  1  0
 10 11  2  0
 10 12  2  0
 10 13  1  0
  2 14  1  0
 14 15  1  6
 15 16  1  0
 17 16  1  6
 17 18  1  0
 18 19  1  1
 19 20  1  0
 21 20  1  1
 21 22  1  0
 22 23  1  0
 23 24  1  1
 23 25  1  0
 25 26  1  0
 26 27  1  0
 27 28  1  6
 27 29  1  0
 29 30  1  6
 30 31  1  0
 31 32  2  0
 31 33  1  0
 33 34  1  6
 33 14  1  0
 33 17  1  0
 29 18  1  0
 27 21  1  0
M  END
>  <MS_ID>  (94) 
MS0098

>  <SMILES>  (94) 
C[C@H](CCC(=O)NCCS(=O)(=O)O)[C@H]1CC[C@H]2[C@@H]3CC[C@@H]4C[C@H](O)CC[C@]4(C)[C@H]3CC(=O)[C@]12C

>  <Structure_dimension>  (94) 
2D

$$$$
MS0099
     RDKit          2D

 30 33  0  0  0  0  0  0  0  0999 V2000
   -4.5685   -2.6908    0.0000 C   0  0  0  0  0  0  0  0  0  0  0  0
   -3.4838   -1.6548    0.0000 C   0  0  0  0  0  0  0  0  0  0  0  0
   -3.8388   -0.1974    0.0000 C   0  0  0  0  0  0  0  0  0  0  0  0
   -5.2784    0.2240    0.0000 C   0  0  0  0  0  0  0  0  0  0  0  0
   -5.6333    1.6814    0.0000 C   0  0  0  0  0  0  0  0  0  0  0  0
   -4.5486    2.7174    0.0000 O   0  0  0  0  0  0  0  0  0  0  0  0
   -7.0729    2.1027    0.0000 C   0  0  0  0  0  0  0  0  0  0  0  0
   -7.4279    3.5601    0.0000 O   0  0  0  0  0  0  0  0  0  0  0  0
   -2.0442   -2.0761    0.0000 C   0  0  0  0  0  0  0  0  0  0  0  0
   -1.5389   -3.4884    0.0000 C   0  0  0  0  0  0  0  0  0  0  0  0
   -0.0395   -3.4442    0.0000 C   0  0  0  0  0  0  0  0  0  0  0  0
    0.3818   -2.0046    0.0000 C   0  0  0  0  0  0  0  0  0  0  0  0
    1.7336   -1.3544    0.0000 C   0  0  0  0  0  0  0  0  0  0  0  0
    2.9725   -2.1999    0.0000 C   0  0  0  0  0  0  0  0  0  0  0  0
    2.8597   -3.6957    0.0000 O   0  0  0  0  0  0  0  0  0  0  0  0
    4.3243   -1.5497    0.0000 C   0  0  0  0  0  0  0  0  0  0  0  0
    4.4371   -0.0540    0.0000 C   0  0  0  0  0  0  0  0  0  0  0  0
    5.7888    0.5962    0.0000 C   0  0  0  0  0  0  0  0  0  0  0  0
    5.9016    2.0920    0.0000 C   0  0  0  0  0  0  0  0  0  0  0  0
    7.2534    2.7422    0.0000 O   0  0  0  0  0  0  0  0  0  0  0  0
    4.6627    2.9375    0.0000 C   0  0  0  0  0  0  0  0  0  0  0  0
    3.3109    2.2873    0.0000 C   0  0  0  0  0  0  0  0  0  0  0  0
    3.1981    0.7916    0.0000 C   0  0  0  0  0  0  0  0  0  0  0  0
    1.9591    1.6371    0.0000 C   0  0  0  0  0  0  0  0  0  0  0  0
    1.8464    0.1414    0.0000 C   0  0  0  0  0  0  0  0  0  0  0  0
    0.6074    0.9869    0.0000 C   0  0  0  0  0  0  0  0  0  0  0  0
   -0.7444    0.3367    0.0000 C   0  0  0  0  0  0  0  0  0  0  0  0
   -1.9833    1.1823    0.0000 O   0  0  0  0  0  0  0  0  0  0  0  0
   -0.8572   -1.1590    0.0000 C   0  0  0  0  0  0  0  0  0  0  0  0
   -2.1777   -0.4476    0.0000 C   0  0  0  0  0  0  0  0  0  0  0  0
  2  1  1  6
  2  3  1  0
  3  4  1  0
  4  5  1  0
  5  6  2  0
  5  7  1  0
  7  8  1  0
  2  9  1  0
  9 10  1  6
 10 11  1  0
 12 11  1  6
 12 13  1  0
 13 14  1  1
 14 15  1  1
 14 16  1  0
 17 16  1  1
 17 18  1  0
 18 19  1  0
 19 20  1  1
 19 21  1  0
 21 22  1  0
 22 23  1  0
 23 24  1  6
 23 25  1  0
 25 26  1  6
 26 27  1  0
 27 28  1  1
 27 29  1  0
 29 30  1  6
 29  9  1  0
 29 12  1  0
 25 13  1  0
 23 17  1  0
M  END
>  <MS_ID>  (95) 
MS0099

>  <SMILES>  (95) 
C[C@H](CCC(=O)CO)[C@H]1CC[C@H]2[C@@H]3[C@H](O)C[C@@H]4C[C@H](O)CC[C@]4(C)[C@H]3C[C@H](O)[C@]12C

>  <Structure_dimension>  (95) 
2D

$$$$
MS0100
     RDKit          2D

 33 36  0  0  0  0  0  0  0  0999 V2000
   -3.3094   -3.6711    0.0000 C   0  0  0  0  0  0  0  0  0  0  0  0
   -2.4155   -2.4665    0.0000 C   0  0  0  0  0  0  0  0  0  0  0  0
   -3.0118   -1.0901    0.0000 C   0  0  0  0  0  0  0  0  0  0  0  0
   -4.5019   -0.9183    0.0000 C   0  0  0  0  0  0  0  0  0  0  0  0
   -5.0982    0.4581    0.0000 C   0  0  0  0  0  0  0  0  0  0  0  0
   -4.2043    1.6627    0.0000 O   0  0  0  0  0  0  0  0  0  0  0  0
   -6.5883    0.6300    0.0000 N   0  0  0  0  0  0  0  0  0  0  0  0
   -7.1845    2.0064    0.0000 S   0  0  0  0  0  0  0  0  0  0  0  0
   -8.5609    1.4101    0.0000 O   0  0  0  0  0  0  0  0  0  0  0  0
   -5.8081    2.6026    0.0000 O   0  0  0  0  0  0  0  0  0  0  0  0
   -7.7808    3.3828    0.0000 O   0  0  0  0  0  0  0  0  0  0  0  0
   -0.9254   -2.6383    0.0000 C   0  0  0  0  0  0  0  0  0  0  0  0
   -0.1885   -3.9449    0.0000 C   0  0  0  0  0  0  0  0  0  0  0  0
    1.2818   -3.6478    0.0000 C   0  0  0  0  0  0  0  0  0  0  0  0
    1.4536   -2.1577    0.0000 C   0  0  0  0  0  0  0  0  0  0  0  0
    2.6759   -1.2883    0.0000 C   0  0  0  0  0  0  0  0  0  0  0  0
    4.0400   -1.9122    0.0000 C   0  0  0  0  0  0  0  0  0  0  0  0
    4.1818   -3.4055    0.0000 O   0  0  0  0  0  0  0  0  0  0  0  0
    5.2624   -1.0428    0.0000 C   0  0  0  0  0  0  0  0  0  0  0  0
    5.1206    0.4505    0.0000 C   0  0  0  0  0  0  0  0  0  0  0  0
    6.3430    1.3199    0.0000 C   0  0  0  0  0  0  0  0  0  0  0  0
    6.2013    2.8132    0.0000 C   0  0  0  0  0  0  0  0  0  0  0  0
    7.4236    3.6826    0.0000 O   0  0  0  0  0  0  0  0  0  0  0  0
    4.8372    3.4371    0.0000 C   0  0  0  0  0  0  0  0  0  0  0  0
    3.6148    2.5677    0.0000 C   0  0  0  0  0  0  0  0  0  0  0  0
    3.7565    1.0744    0.0000 C   0  0  0  0  0  0  0  0  0  0  0  0
    2.3925    1.6983    0.0000 C   0  0  0  0  0  0  0  0  0  0  0  0
    2.5342    0.2050    0.0000 C   0  0  0  0  0  0  0  0  0  0  0  0
    1.1701    0.8289    0.0000 C   0  0  0  0  0  0  0  0  0  0  0  0
   -0.0523   -0.0405    0.0000 C   0  0  0  0  0  0  0  0  0  0  0  0
   -1.4164    0.5834    0.0000 O   0  0  0  0  0  0  0  0  0  0  0  0
    0.0895   -1.5338    0.0000 C   0  0  0  0  0  0  0  0  0  0  0  0
   -1.3324   -1.0559    0.0000 C   0  0  0  0  0  0  0  0  0  0  0  0
  2  1  1  6
  2  3  1  0
  3  4  1  0
  4  5  1  0
  5  6  2  0
  5  7  1  0
  7  8  1  0
  8  9  2  0
  8 10  2  0
  8 11  1  0
  2 12  1  0
 12 13  1  6
 13 14  1  0
 15 14  1  6
 15 16  1  0
 16 17  1  1
 17 18  1  1
 17 19  1  0
 20 19  1  1
 20 21  1  0
 21 22  1  0
 22 23  1  1
 22 24  1  0
 24 25  1  0
 25 26  1  0
 26 27  1  6
 26 28  1  0
 28 29  1  6
 29 30  1  0
 30 31  1  1
 30 32  1  0
 32 33  1  6
 32 12  1  0
 32 15  1  0
 28 16  1  0
 26 20  1  0
M  END
>  <MS_ID>  (96) 
MS0100

>  <SMILES>  (96) 
C[C@H](CCC(=O)NS(=O)(=O)O)[C@H]1CC[C@H]2[C@@H]3[C@H](O)C[C@@H]4C[C@H](O)CC[C@]4(C)[C@H]3C[C@H](O)[C@]12C

>  <Structure_dimension>  (96) 
2D

$$$$
MS0101
     RDKit          2D

 28 31  0  0  0  0  0  0  0  0999 V2000
   -5.2870   -1.7591    0.0000 C   0  0  0  0  0  0  0  0  0  0  0  0
   -4.0706   -0.8813    0.0000 C   0  0  0  0  0  0  0  0  0  0  0  0
   -4.2226    0.6109    0.0000 C   0  0  0  0  0  0  0  0  0  0  0  0
   -5.5910    1.2255    0.0000 C   0  0  0  0  0  0  0  0  0  0  0  0
   -5.7429    2.7177    0.0000 C   0  0  0  0  0  0  0  0  0  0  0  0
   -7.1113    3.3322    0.0000 O   0  0  0  0  0  0  0  0  0  0  0  0
   -2.7023   -1.4959    0.0000 C   0  0  0  0  0  0  0  0  0  0  0  0
   -2.3951   -2.9641    0.0000 C   0  0  0  0  0  0  0  0  0  0  0  0
   -0.9039   -3.1257    0.0000 C   0  0  0  0  0  0  0  0  0  0  0  0
   -0.2893   -1.7573    0.0000 C   0  0  0  0  0  0  0  0  0  0  0  0
    1.1387   -1.2984    0.0000 C   0  0  0  0  0  0  0  0  0  0  0  0
    2.2502   -2.3057    0.0000 C   0  0  0  0  0  0  0  0  0  0  0  0
    1.9336   -3.7719    0.0000 O   0  0  0  0  0  0  0  0  0  0  0  0
    3.6783   -1.8467    0.0000 C   0  0  0  0  0  0  0  0  0  0  0  0
    3.9949   -0.3805    0.0000 C   0  0  0  0  0  0  0  0  0  0  0  0
    5.4229    0.0784    0.0000 C   0  0  0  0  0  0  0  0  0  0  0  0
    5.7395    1.5446    0.0000 C   0  0  0  0  0  0  0  0  0  0  0  0
    7.1676    2.0035    0.0000 O   0  0  0  0  0  0  0  0  0  0  0  0
    4.6280    2.5519    0.0000 C   0  0  0  0  0  0  0  0  0  0  0  0
    3.2000    2.0930    0.0000 C   0  0  0  0  0  0  0  0  0  0  0  0
    2.8834    0.6267    0.0000 C   0  0  0  0  0  0  0  0  0  0  0  0
    1.7719    1.6340    0.0000 C   0  0  0  0  0  0  0  0  0  0  0  0
    1.4553    0.1678    0.0000 C   0  0  0  0  0  0  0  0  0  0  0  0
    0.3438    1.1751    0.0000 C   0  0  0  0  0  0  0  0  0  0  0  0
   -1.0842    0.7162    0.0000 C   0  0  0  0  0  0  0  0  0  0  0  0
   -2.1957    1.7234    0.0000 O   0  0  0  0  0  0  0  0  0  0  0  0
   -1.4008   -0.7500    0.0000 C   0  0  0  0  0  0  0  0  0  0  0  0
   -2.6115    0.1355    0.0000 C   0  0  0  0  0  0  0  0  0  0  0  0
  2  1  1  6
  2  3  1  0
  3  4  1  0
  4  5  1  0
  5  6  2  0
  2  7  1  0
  7  8  1  6
  8  9  1  0
 10  9  1  6
 10 11  1  0
 11 12  1  1
 12 13  1  1
 12 14  1  0
 15 14  1  1
 15 16  1  0
 16 17  1  0
 17 18  1  1
 17 19  1  0
 19 20  1  0
 20 21  1  0
 21 22  1  6
 21 23  1  0
 23 24  1  6
 24 25  1  0
 25 26  1  1
 25 27  1  0
 27 28  1  6
 27  7  1  0
 27 10  1  0
 23 11  1  0
 21 15  1  0
M  END
>  <MS_ID>  (97) 
MS0101

>  <SMILES>  (97) 
C[C@H](CCC=O)[C@H]1CC[C@H]2[C@@H]3[C@H](O)C[C@@H]4C[C@H](O)CC[C@]4(C)[C@H]3C[C@H](O)[C@]12C

>  <Structure_dimension>  (97) 
2D

$$$$
MS0102
     RDKit          2D

 32 35  0  0  0  0  0  0  0  0999 V2000
   -3.9305   -3.5211    0.0000 C   0  0  0  0  0  0  0  0  0  0  0  0
   -2.9800   -2.3607    0.0000 C   0  0  0  0  0  0  0  0  0  0  0  0
   -3.5096   -0.9573    0.0000 C   0  0  0  0  0  0  0  0  0  0  0  0
   -4.9898   -0.7144    0.0000 C   0  0  0  0  0  0  0  0  0  0  0  0
   -5.5195    0.6890    0.0000 C   0  0  0  0  0  0  0  0  0  0  0  0
   -6.9997    0.9320    0.0000 O   0  0  0  0  0  0  0  0  0  0  0  0
   -4.5690    1.8494    0.0000 O   0  0  0  0  0  0  0  0  0  0  0  0
   -5.0987    3.2528    0.0000 C   0  0  0  0  0  0  0  0  0  0  0  0
   -6.5789    3.4957    0.0000 O   0  0  0  0  0  0  0  0  0  0  0  0
   -4.1482    4.4132    0.0000 O   0  0  0  0  0  0  0  0  0  0  0  0
   -1.4998   -2.6036    0.0000 C   0  0  0  0  0  0  0  0  0  0  0  0
   -0.8263   -3.9440    0.0000 C   0  0  0  0  0  0  0  0  0  0  0  0
    0.6565   -3.7176    0.0000 C   0  0  0  0  0  0  0  0  0  0  0  0
    0.8995   -2.2374    0.0000 C   0  0  0  0  0  0  0  0  0  0  0  0
    2.1621   -1.4275    0.0000 C   0  0  0  0  0  0  0  0  0  0  0  0
    3.4947   -2.1160    0.0000 C   0  0  0  0  0  0  0  0  0  0  0  0
    3.5648   -3.6144    0.0000 O   0  0  0  0  0  0  0  0  0  0  0  0
    4.7573   -1.3061    0.0000 C   0  0  0  0  0  0  0  0  0  0  0  0
    4.6872    0.1922    0.0000 C   0  0  0  0  0  0  0  0  0  0  0  0
    5.9498    1.0021    0.0000 C   0  0  0  0  0  0  0  0  0  0  0  0
    5.8797    2.5005    0.0000 C   0  0  0  0  0  0  0  0  0  0  0  0
    7.1422    3.3104    0.0000 O   0  0  0  0  0  0  0  0  0  0  0  0
    4.5470    3.1890    0.0000 C   0  0  0  0  0  0  0  0  0  0  0  0
    3.2844    2.3791    0.0000 C   0  0  0  0  0  0  0  0  0  0  0  0
    3.3545    0.8807    0.0000 C   0  0  0  0  0  0  0  0  0  0  0  0
    2.0219    1.5692    0.0000 C   0  0  0  0  0  0  0  0  0  0  0  0
    2.0920    0.0708    0.0000 C   0  0  0  0  0  0  0  0  0  0  0  0
    0.7593    0.7593    0.0000 C   0  0  0  0  0  0  0  0  0  0  0  0
   -0.5033   -0.0506    0.0000 C   0  0  0  0  0  0  0  0  0  0  0  0
   -1.8359    0.6379    0.0000 O   0  0  0  0  0  0  0  0  0  0  0  0
   -0.4332   -1.5490    0.0000 C   0  0  0  0  0  0  0  0  0  0  0  0
   -1.8305   -1.0035    0.0000 C   0  0  0  0  0  0  0  0  0  0  0  0
  2  1  1  6
  2  3  1  0
  3  4  1  0
  4  5  1  0
  5  6  2  0
  5  7  1  0
  7  8  1  0
  8  9  2  0
  8 10  1  0
  2 11  1  0
 11 12  1  6
 12 13  1  0
 14 13  1  6
 14 15  1  0
 15 16  1  1
 16 17  1  1
 16 18  1  0
 19 18  1  1
 19 20  1  0
 20 21  1  0
 21 22  1  1
 21 23  1  0
 23 24  1  0
 24 25  1  0
 25 26  1  6
 25 27  1  0
 27 28  1  6
 28 29  1  0
 29 30  1  1
 29 31  1  0
 31 32  1  6
 31 11  1  0
 31 14  1  0
 27 15  1  0
 25 19  1  0
M  END
>  <MS_ID>  (98) 
MS0102

>  <SMILES>  (98) 
C[C@H](CCC(=O)OC(=O)O)[C@H]1CC[C@H]2[C@@H]3[C@H](O)C[C@@H]4C[C@H](O)CC[C@]4(C)[C@H]3C[C@H](O)[C@]12C

>  <Structure_dimension>  (98) 
2D

$$$$
MS0103
     RDKit          2D

 28 31  0  0  0  0  0  0  0  0999 V2000
   -5.0096   -2.1352    0.0000 C   0  0  0  0  0  0  0  0  0  0  0  0
   -3.8132   -1.2303    0.0000 C   0  0  0  0  0  0  0  0  0  0  0  0
   -3.9987    0.2582    0.0000 C   0  0  0  0  0  0  0  0  0  0  0  0
   -5.3805    0.8418    0.0000 C   0  0  0  0  0  0  0  0  0  0  0  0
   -5.5659    2.3303    0.0000 C   0  0  0  0  0  0  0  0  0  0  0  0
   -4.3695    3.2351    0.0000 O   0  0  0  0  0  0  0  0  0  0  0  0
   -6.9477    2.9140    0.0000 O   0  0  0  0  0  0  0  0  0  0  0  0
   -2.4315   -1.8140    0.0000 C   0  0  0  0  0  0  0  0  0  0  0  0
   -2.0914   -3.2749    0.0000 C   0  0  0  0  0  0  0  0  0  0  0  0
   -0.5969   -3.4030    0.0000 C   0  0  0  0  0  0  0  0  0  0  0  0
   -0.0133   -2.0212    0.0000 C   0  0  0  0  0  0  0  0  0  0  0  0
    1.4041   -1.5304    0.0000 C   0  0  0  0  0  0  0  0  0  0  0  0
    2.5379   -2.5125    0.0000 C   0  0  0  0  0  0  0  0  0  0  0  0
    3.9554   -2.0216    0.0000 C   0  0  0  0  0  0  0  0  0  0  0  0
    4.2390   -0.5487    0.0000 C   0  0  0  0  0  0  0  0  0  0  0  0
    5.6564   -0.0578    0.0000 C   0  0  0  0  0  0  0  0  0  0  0  0
    5.9400    1.4151    0.0000 C   0  0  0  0  0  0  0  0  0  0  0  0
    7.3574    1.9060    0.0000 O   0  0  0  0  0  0  0  0  0  0  0  0
    4.8062    2.3972    0.0000 C   0  0  0  0  0  0  0  0  0  0  0  0
    3.3888    1.9064    0.0000 C   0  0  0  0  0  0  0  0  0  0  0  0
    3.1052    0.4334    0.0000 C   0  0  0  0  0  0  0  0  0  0  0  0
    1.9714    1.4155    0.0000 C   0  0  0  0  0  0  0  0  0  0  0  0
    1.6878   -0.0574    0.0000 C   0  0  0  0  0  0  0  0  0  0  0  0
    0.5540    0.9246    0.0000 C   0  0  0  0  0  0  0  0  0  0  0  0
   -0.8635    0.4338    0.0000 C   0  0  0  0  0  0  0  0  0  0  0  0
   -1.9973    1.4159    0.0000 O   0  0  0  0  0  0  0  0  0  0  0  0
   -1.1471   -1.0392    0.0000 C   0  0  0  0  0  0  0  0  0  0  0  0
   -2.3773   -0.1810    0.0000 C   0  0  0  0  0  0  0  0  0  0  0  0
  2  1  1  6
  2  3  1  0
  3  4  1  0
  4  5  1  0
  5  6  2  0
  5  7  1  0
  2  8  1  0
  8  9  1  6
  9 10  1  0
 11 10  1  6
 11 12  1  0
 12 13  1  1
 13 14  1  0
 15 14  1  1
 15 16  1  0
 16 17  1  0
 17 18  2  0
 17 19  1  0
 19 20  1  0
 20 21  1  0
 21 22  1  6
 21 23  1  0
 23 24  1  6
 24 25  1  0
 25 26  1  6
 25 27  1  0
 27 28  1  6
 27  8  1  0
 27 11  1  0
 23 12  1  0
 21 15  1  0
M  END
>  <MS_ID>  (99) 
MS0103

>  <SMILES>  (99) 
C[C@H](CCC(=O)O)[C@H]1CC[C@H]2[C@@H]3CC[C@@H]4CC(=O)CC[C@]4(C)[C@H]3C[C@@H](O)[C@]12C

>  <Structure_dimension>  (99) 
2D

$$$$
MS0104
     RDKit          2D

 33 36  0  0  0  0  0  0  0  0999 V2000
   -6.3939   -1.8362    0.0000 C   0  0  0  0  0  0  0  0  0  0  0  0
   -5.1799   -0.9553    0.0000 C   0  0  0  0  0  0  0  0  0  0  0  0
   -5.3357    0.5366    0.0000 C   0  0  0  0  0  0  0  0  0  0  0  0
   -6.7057    1.1475    0.0000 C   0  0  0  0  0  0  0  0  0  0  0  0
   -6.8616    2.6394    0.0000 C   0  0  0  0  0  0  0  0  0  0  0  0
   -5.6475    3.5203    0.0000 O   0  0  0  0  0  0  0  0  0  0  0  0
   -8.2315    3.2503    0.0000 O   0  0  0  0  0  0  0  0  0  0  0  0
   -3.8099   -1.5663    0.0000 C   0  0  0  0  0  0  0  0  0  0  0  0
   -3.4990   -3.0337    0.0000 C   0  0  0  0  0  0  0  0  0  0  0  0
   -2.0073   -3.1914    0.0000 C   0  0  0  0  0  0  0  0  0  0  0  0
   -1.3963   -1.8214    0.0000 C   0  0  0  0  0  0  0  0  0  0  0  0
    0.0305   -1.3588    0.0000 C   0  0  0  0  0  0  0  0  0  0  0  0
    1.1446   -2.3632    0.0000 C   0  0  0  0  0  0  0  0  0  0  0  0
    0.8319   -3.8302    0.0000 O   0  0  0  0  0  0  0  0  0  0  0  0
    2.5715   -1.9005    0.0000 C   0  0  0  0  0  0  0  0  0  0  0  0
    3.6856   -2.9049    0.0000 O   0  0  0  0  0  0  0  0  0  0  0  0
    2.8843   -0.4335    0.0000 C   0  0  0  0  0  0  0  0  0  0  0  0
    4.3112    0.0291    0.0000 C   0  0  0  0  0  0  0  0  0  0  0  0
    4.6239    1.4962    0.0000 C   0  0  0  0  0  0  0  0  0  0  0  0
    6.0508    1.9588    0.0000 O   0  0  0  0  0  0  0  0  0  0  0  0
    7.1649    0.9544    0.0000 S   0  0  0  0  0  0  0  0  0  0  0  0
    6.1605   -0.1597    0.0000 O   0  0  0  0  0  0  0  0  0  0  0  0
    8.1693    2.0685    0.0000 O   0  0  0  0  0  0  0  0  0  0  0  0
    8.2790   -0.0499    0.0000 O   0  0  0  0  0  0  0  0  0  0  0  0
    3.5098    2.5006    0.0000 C   0  0  0  0  0  0  0  0  0  0  0  0
    2.0830    2.0379    0.0000 C   0  0  0  0  0  0  0  0  0  0  0  0
    1.7702    0.5709    0.0000 C   0  0  0  0  0  0  0  0  0  0  0  0
    0.6561    1.5753    0.0000 C   0  0  0  0  0  0  0  0  0  0  0  0
    0.3433    0.1082    0.0000 C   0  0  0  0  0  0  0  0  0  0  0  0
   -0.7708    1.1126    0.0000 C   0  0  0  0  0  0  0  0  0  0  0  0
   -2.1976    0.6500    0.0000 C   0  0  0  0  0  0  0  0  0  0  0  0
   -2.5104   -0.8171    0.0000 C   0  0  0  0  0  0  0  0  0  0  0  0
   -3.7234    0.0654    0.0000 C   0  0  0  0  0  0  0  0  0  0  0  0
  2  1  1  6
  2  3  1  0
  3  4  1  0
  4  5  1  0
  5  6  2  0
  5  7  1  0
  2  8  1  0
  8  9  1  6
  9 10  1  0
 11 10  1  6
 11 12  1  0
 12 13  1  1
 13 14  1  1
 13 15  1  0
 15 16  1  1
 15 17  1  0
 17 18  1  1
 18 19  1  0
 19 20  1  1
 20 21  1  0
 21 22  2  0
 21 23  2  0
 21 24  1  0
 19 25  1  0
 25 26  1  0
 26 27  1  0
 27 28  1  6
 27 29  1  0
 29 30  1  6
 30 31  1  0
 31 32  1  0
 32 33  1  6
 32  8  1  0
 32 11  1  0
 29 12  1  0
 27 17  1  0
M  END
>  <MS_ID>  (100) 
MS0104

>  <SMILES>  (100) 
C[C@H](CCC(=O)O)[C@H]1CC[C@H]2[C@@H]3[C@H](O)[C@H](O)[C@@H]4C[C@H](OS(=O)(=O)O)CC[C@]4(C)[C@H]3CC[C@]12C

>  <Structure_dimension>  (100) 
2D

$$$$
MS0105
     RDKit          2D

 33 36  0  0  0  0  0  0  0  0999 V2000
   -8.2061    4.1653    0.0000 C   0  0  0  0  0  0  0  0  0  0  0  0
   -7.9869    2.6814    0.0000 O   0  0  0  0  0  0  0  0  0  0  0  0
   -6.5922    2.1293    0.0000 C   0  0  0  0  0  0  0  0  0  0  0  0
   -5.4167    3.0610    0.0000 O   0  0  0  0  0  0  0  0  0  0  0  0
   -6.3730    0.6454    0.0000 C   0  0  0  0  0  0  0  0  0  0  0  0
   -4.9784    0.0932    0.0000 C   0  0  0  0  0  0  0  0  0  0  0  0
   -4.7592   -1.3907    0.0000 C   0  0  0  0  0  0  0  0  0  0  0  0
   -5.9347   -2.3224    0.0000 C   0  0  0  0  0  0  0  0  0  0  0  0
   -3.3645   -1.9428    0.0000 C   0  0  0  0  0  0  0  0  0  0  0  0
   -2.9914   -3.3957    0.0000 C   0  0  0  0  0  0  0  0  0  0  0  0
   -1.4944   -3.4898    0.0000 C   0  0  0  0  0  0  0  0  0  0  0  0
   -0.9422   -2.0951    0.0000 C   0  0  0  0  0  0  0  0  0  0  0  0
    0.4637   -1.5722    0.0000 C   0  0  0  0  0  0  0  0  0  0  0  0
    1.6195   -2.5283    0.0000 C   0  0  0  0  0  0  0  0  0  0  0  0
    1.3694   -4.0073    0.0000 O   0  0  0  0  0  0  0  0  0  0  0  0
    3.0254   -2.0054    0.0000 C   0  0  0  0  0  0  0  0  0  0  0  0
    3.2755   -0.5264    0.0000 C   0  0  0  0  0  0  0  0  0  0  0  0
    4.6814   -0.0035    0.0000 C   0  0  0  0  0  0  0  0  0  0  0  0
    4.9315    1.4755    0.0000 C   0  0  0  0  0  0  0  0  0  0  0  0
    6.3374    1.9984    0.0000 O   0  0  0  0  0  0  0  0  0  0  0  0
    7.4932    1.0423    0.0000 S   0  0  0  0  0  0  0  0  0  0  0  0
    6.5371   -0.1135    0.0000 O   0  0  0  0  0  0  0  0  0  0  0  0
    8.4493    2.1981    0.0000 O   0  0  0  0  0  0  0  0  0  0  0  0
    8.6490    0.0862    0.0000 O   0  0  0  0  0  0  0  0  0  0  0  0
    3.7757    2.4316    0.0000 C   0  0  0  0  0  0  0  0  0  0  0  0
    2.3698    1.9087    0.0000 C   0  0  0  0  0  0  0  0  0  0  0  0
    2.1197    0.4297    0.0000 C   0  0  0  0  0  0  0  0  0  0  0  0
    0.9639    1.3858    0.0000 C   0  0  0  0  0  0  0  0  0  0  0  0
    0.7138   -0.0932    0.0000 C   0  0  0  0  0  0  0  0  0  0  0  0
   -0.4420    0.8629    0.0000 C   0  0  0  0  0  0  0  0  0  0  0  0
   -1.8479    0.3400    0.0000 C   0  0  0  0  0  0  0  0  0  0  0  0
   -2.0980   -1.1390    0.0000 C   0  0  0  0  0  0  0  0  0  0  0  0
   -3.3474   -0.3090    0.0000 C   0  0  0  0  0  0  0  0  0  0  0  0
  1  2  1  0
  2  3  1  0
  3  4  2  0
  3  5  1  0
  5  6  1  0
  6  7  1  0
  7  8  1  6
  7  9  1  0
  9 10  1  6
 10 11  1  0
 12 11  1  6
 12 13  1  0
 13 14  1  1
 14 15  1  1
 14 16  1  0
 17 16  1  1
 17 18  1  0
 18 19  1  0
 19 20  1  1
 20 21  1  0
 21 22  2  0
 21 23  2  0
 21 24  1  0
 19 25  1  0
 25 26  1  0
 26 27  1  0
 27 28  1  6
 27 29  1  0
 29 30  1  6
 30 31  1  0
 31 32  1  0
 32 33  1  6
 32  9  1  0
 32 12  1  0
 29 13  1  0
 27 17  1  0
M  END
>  <MS_ID>  (101) 
MS0105

>  <SMILES>  (101) 
COC(=O)CC[C@@H](C)[C@H]1CC[C@H]2[C@@H]3[C@H](O)C[C@@H]4C[C@H](OS(=O)(=O)O)CC[C@]4(C)[C@H]3CC[C@]12C

>  <Structure_dimension>  (101) 
2D

$$$$
MS0106
     RDKit          2D

 32 35  0  0  0  0  0  0  0  0999 V2000
   -3.1421   -3.6694    0.0000 C   0  0  0  0  0  0  0  0  0  0  0  0
   -2.2628   -2.4541    0.0000 C   0  0  0  0  0  0  0  0  0  0  0  0
   -2.8756   -1.0850    0.0000 C   0  0  0  0  0  0  0  0  0  0  0  0
   -4.3676   -0.9311    0.0000 C   0  0  0  0  0  0  0  0  0  0  0  0
   -4.9804    0.4380    0.0000 C   0  0  0  0  0  0  0  0  0  0  0  0
   -4.1011    1.6532    0.0000 O   0  0  0  0  0  0  0  0  0  0  0  0
   -6.4725    0.5919    0.0000 C   0  0  0  0  0  0  0  0  0  0  0  0
   -7.0853    1.9610    0.0000 C   0  0  0  0  0  0  0  0  0  0  0  0
   -8.5774    2.1149    0.0000 C   0  0  0  0  0  0  0  0  0  0  0  0
   -9.4567    0.8996    0.0000 O   0  0  0  0  0  0  0  0  0  0  0  0
   -9.1901    3.4840    0.0000 O   0  0  0  0  0  0  0  0  0  0  0  0
   -0.7707   -2.6080    0.0000 C   0  0  0  0  0  0  0  0  0  0  0  0
   -0.0182   -3.9056    0.0000 C   0  0  0  0  0  0  0  0  0  0  0  0
    1.4484   -3.5909    0.0000 C   0  0  0  0  0  0  0  0  0  0  0  0
    1.6023   -2.0988    0.0000 C   0  0  0  0  0  0  0  0  0  0  0  0
    2.8141   -1.2147    0.0000 C   0  0  0  0  0  0  0  0  0  0  0  0
    4.1856   -1.8222    0.0000 C   0  0  0  0  0  0  0  0  0  0  0  0
    4.3453   -3.3136    0.0000 O   0  0  0  0  0  0  0  0  0  0  0  0
    5.3974   -0.9381    0.0000 C   0  0  0  0  0  0  0  0  0  0  0  0
    5.2377    0.5533    0.0000 C   0  0  0  0  0  0  0  0  0  0  0  0
    6.4495    1.4374    0.0000 C   0  0  0  0  0  0  0  0  0  0  0  0
    6.2898    2.9289    0.0000 C   0  0  0  0  0  0  0  0  0  0  0  0
    7.5016    3.8129    0.0000 O   0  0  0  0  0  0  0  0  0  0  0  0
    4.9183    3.5363    0.0000 C   0  0  0  0  0  0  0  0  0  0  0  0
    3.7065    2.6522    0.0000 C   0  0  0  0  0  0  0  0  0  0  0  0
    3.8662    1.1608    0.0000 C   0  0  0  0  0  0  0  0  0  0  0  0
    2.4947    1.7682    0.0000 C   0  0  0  0  0  0  0  0  0  0  0  0
    2.6544    0.2767    0.0000 C   0  0  0  0  0  0  0  0  0  0  0  0
    1.2829    0.8842    0.0000 C   0  0  0  0  0  0  0  0  0  0  0  0
    0.0711    0.0001    0.0000 C   0  0  0  0  0  0  0  0  0  0  0  0
    0.2308   -1.4914    0.0000 C   0  0  0  0  0  0  0  0  0  0  0  0
   -1.1967   -1.0306    0.0000 C   0  0  0  0  0  0  0  0  0  0  0  0
  2  1  1  6
  2  3  1  0
  3  4  1  0
  4  5  1  0
  5  6  2  0
  5  7  1  0
  7  8  1  0
  8  9  1  0
  9 10  2  0
  9 11  1  0
  2 12  1  0
 12 13  1  6
 13 14  1  0
 15 14  1  6
 15 16  1  0
 16 17  1  1
 17 18  1  1
 17 19  1  0
 20 19  1  1
 20 21  1  0
 21 22  1  0
 22 23  1  1
 22 24  1  0
 24 25  1  0
 25 26  1  0
 26 27  1  6
 26 28  1  0
 28 29  1  6
 29 30  1  0
 30 31  1  0
 31 32  1  6
 31 12  1  0
 31 15  1  0
 28 16  1  0
 26 20  1  0
M  END
>  <MS_ID>  (102) 
MS0106

>  <SMILES>  (102) 
C[C@H](CCC(=O)CCC(=O)O)[C@H]1CC[C@H]2[C@@H]3[C@H](O)C[C@@H]4C[C@H](O)CC[C@]4(C)[C@H]3CC[C@]12C

>  <Structure_dimension>  (102) 
2D

$$$$
MS0107
     RDKit          2D

 32 35  0  0  0  0  0  0  0  0999 V2000
   -2.6627   -3.7242    0.0000 C   0  0  0  0  0  0  0  0  0  0  0  0
   -1.8528   -2.4616    0.0000 C   0  0  0  0  0  0  0  0  0  0  0  0
   -2.5413   -1.1289    0.0000 C   0  0  0  0  0  0  0  0  0  0  0  0
   -4.0396   -1.0588    0.0000 C   0  0  0  0  0  0  0  0  0  0  0  0
   -4.7281    0.2738    0.0000 C   0  0  0  0  0  0  0  0  0  0  0  0
   -3.9182    1.5364    0.0000 O   0  0  0  0  0  0  0  0  0  0  0  0
   -6.2265    0.3439    0.0000 N   0  0  0  0  0  0  0  0  0  0  0  0
   -6.9150    1.6766    0.0000 C   0  0  0  0  0  0  0  0  0  0  0  0
   -8.4133    1.7467    0.0000 C   0  0  0  0  0  0  0  0  0  0  0  0
   -9.2232    0.4841    0.0000 O   0  0  0  0  0  0  0  0  0  0  0  0
   -9.1018    3.0794    0.0000 O   0  0  0  0  0  0  0  0  0  0  0  0
   -0.3544   -2.5317    0.0000 C   0  0  0  0  0  0  0  0  0  0  0  0
    0.4696   -3.7851    0.0000 C   0  0  0  0  0  0  0  0  0  0  0  0
    1.9163   -3.3887    0.0000 C   0  0  0  0  0  0  0  0  0  0  0  0
    1.9864   -1.8904    0.0000 C   0  0  0  0  0  0  0  0  0  0  0  0
    3.1468   -0.9399    0.0000 C   0  0  0  0  0  0  0  0  0  0  0  0
    4.5501   -1.4695    0.0000 C   0  0  0  0  0  0  0  0  0  0  0  0
    4.7931   -2.9497    0.0000 O   0  0  0  0  0  0  0  0  0  0  0  0
    5.7105   -0.5190    0.0000 C   0  0  0  0  0  0  0  0  0  0  0  0
    5.4676    0.9612    0.0000 C   0  0  0  0  0  0  0  0  0  0  0  0
    6.6280    1.9117    0.0000 C   0  0  0  0  0  0  0  0  0  0  0  0
    6.3850    3.3919    0.0000 C   0  0  0  0  0  0  0  0  0  0  0  0
    4.9816    3.9216    0.0000 C   0  0  0  0  0  0  0  0  0  0  0  0
    3.8212    2.9710    0.0000 C   0  0  0  0  0  0  0  0  0  0  0  0
    4.0642    1.4909    0.0000 C   0  0  0  0  0  0  0  0  0  0  0  0
    2.6608    2.0205    0.0000 C   0  0  0  0  0  0  0  0  0  0  0  0
    2.9038    0.5403    0.0000 C   0  0  0  0  0  0  0  0  0  0  0  0
    1.5004    1.0700    0.0000 C   0  0  0  0  0  0  0  0  0  0  0  0
    0.3400    0.1195    0.0000 C   0  0  0  0  0  0  0  0  0  0  0  0
   -1.0633    0.6492    0.0000 O   0  0  0  0  0  0  0  0  0  0  0  0
    0.5830   -1.3607    0.0000 C   0  0  0  0  0  0  0  0  0  0  0  0
   -0.8681   -0.9806    0.0000 C   0  0  0  0  0  0  0  0  0  0  0  0
  2  1  1  6
  2  3  1  0
  3  4  1  0
  4  5  1  0
  5  6  2  0
  5  7  1  0
  7  8  1  0
  8  9  1  0
  9 10  2  0
  9 11  1  0
  2 12  1  0
 12 13  1  6
 13 14  1  0
 15 14  1  6
 15 16  1  0
 16 17  1  1
 17 18  1  6
 17 19  1  0
 20 19  1  1
 20 21  1  0
 21 22  1  0
 22 23  1  0
 23 24  1  0
 24 25  1  0
 25 26  1  6
 25 27  1  0
 27 28  1  6
 28 29  1  0
 29 30  1  1
 29 31  1  0
 31 32  1  6
 31 12  1  0
 31 15  1  0
 27 16  1  0
 25 20  1  0
M  END
>  <MS_ID>  (103) 
MS0107

>  <SMILES>  (103) 
C[C@H](CCC(=O)NCC(=O)O)[C@H]1CC[C@H]2[C@@H]3[C@@H](O)C[C@@H]4CCCC[C@]4(C)[C@H]3C[C@H](O)[C@]12C

>  <Structure_dimension>  (103) 
2D

$$$$
MS0108
     RDKit          2D

 37 41  0  0  0  0  0  0  0  0999 V2000
   -0.3981   -4.8552    0.0000 C   0  0  0  0  0  0  0  0  0  0  0  0
    0.1005   -3.4405    0.0000 C   0  0  0  0  0  0  0  0  0  0  0  0
   -0.8753   -2.3013    0.0000 C   0  0  0  0  0  0  0  0  0  0  0  0
   -2.3498   -2.5768    0.0000 C   0  0  0  0  0  0  0  0  0  0  0  0
   -3.3256   -1.4375    0.0000 C   0  0  0  0  0  0  0  0  0  0  0  0
   -2.8269   -0.0229    0.0000 O   0  0  0  0  0  0  0  0  0  0  0  0
   -4.8000   -1.7130    0.0000 N   0  0  0  0  0  0  0  0  0  0  0  0
   -5.7758   -0.5738    0.0000 C   0  0  0  0  0  0  0  0  0  0  0  0
   -7.2503   -0.8492    0.0000 C   0  0  0  0  0  0  0  0  0  0  0  0
   -8.2261    0.2900    0.0000 C   0  0  0  0  0  0  0  0  0  0  0  0
   -7.7275    1.7046    0.0000 C   0  0  0  0  0  0  0  0  0  0  0  0
   -8.7033    2.8439    0.0000 C   0  0  0  0  0  0  0  0  0  0  0  0
  -10.1777    2.5684    0.0000 C   0  0  0  0  0  0  0  0  0  0  0  0
  -11.1535    3.7076    0.0000 O   0  0  0  0  0  0  0  0  0  0  0  0
  -10.6764    1.1537    0.0000 C   0  0  0  0  0  0  0  0  0  0  0  0
   -9.7006    0.0145    0.0000 C   0  0  0  0  0  0  0  0  0  0  0  0
    1.5750   -3.1650    0.0000 C   0  0  0  0  0  0  0  0  0  0  0  0
    2.6646   -4.1960    0.0000 C   0  0  0  0  0  0  0  0  0  0  0  0
    3.9818   -3.4784    0.0000 C   0  0  0  0  0  0  0  0  0  0  0  0
    3.7063   -2.0039    0.0000 C   0  0  0  0  0  0  0  0  0  0  0  0
    4.6177   -0.8126    0.0000 C   0  0  0  0  0  0  0  0  0  0  0  0
    6.1052   -1.0062    0.0000 C   0  0  0  0  0  0  0  0  0  0  0  0
    6.6812   -2.3912    0.0000 O   0  0  0  0  0  0  0  0  0  0  0  0
    7.0166    0.1851    0.0000 C   0  0  0  0  0  0  0  0  0  0  0  0
    6.4406    1.5701    0.0000 C   0  0  0  0  0  0  0  0  0  0  0  0
    7.3521    2.7614    0.0000 C   0  0  0  0  0  0  0  0  0  0  0  0
    6.7761    4.1464    0.0000 C   0  0  0  0  0  0  0  0  0  0  0  0
    7.6875    5.3378    0.0000 O   0  0  0  0  0  0  0  0  0  0  0  0
    5.2886    4.3401    0.0000 C   0  0  0  0  0  0  0  0  0  0  0  0
    4.3772    3.1488    0.0000 C   0  0  0  0  0  0  0  0  0  0  0  0
    4.9532    1.7638    0.0000 C   0  0  0  0  0  0  0  0  0  0  0  0
    3.4657    1.9574    0.0000 C   0  0  0  0  0  0  0  0  0  0  0  0
    4.0417    0.5724    0.0000 C   0  0  0  0  0  0  0  0  0  0  0  0
    2.5543    0.7661    0.0000 C   0  0  0  0  0  0  0  0  0  0  0  0
    1.6429   -0.4252    0.0000 C   0  0  0  0  0  0  0  0  0  0  0  0
    2.2189   -1.8102    0.0000 C   0  0  0  0  0  0  0  0  0  0  0  0
    0.7193   -1.7731    0.0000 C   0  0  0  0  0  0  0  0  0  0  0  0
  2  1  1  6
  2  3  1  0
  3  4  1  0
  4  5  1  0
  5  6  2  0
  5  7  1  0
  7  8  1  0
  8  9  1  0
  9 10  1  0
 10 11  2  0
 11 12  1  0
 12 13  2  0
 13 14  1  0
 13 15  1  0
 15 16  2  0
  2 17  1  0
 17 18  1  6
 18 19  1  0
 20 19  1  6
 20 21  1  0
 21 22  1  1
 22 23  1  1
 22 24  1  0
 25 24  1  1
 25 26  1  0
 26 27  1  0
 27 28  1  1
 27 29  1  0
 29 30  1  0
 30 31  1  0
 31 32  1  6
 31 33  1  0
 33 34  1  6
 34 35  1  0
 35 36  1  0
 36 37  1  6
 16 10  1  0
 36 17  1  0
 36 20  1  0
 33 21  1  0
 31 25  1  0
M  END
>  <MS_ID>  (104) 
MS0108

>  <SMILES>  (104) 
C[C@H](CCC(=O)NCCc1ccc(O)cc1)[C@H]1CC[C@H]2[C@@H]3[C@H](O)C[C@@H]4C[C@H](O)CC[C@]4(C)[C@H]3CC[C@]12C

>  <Structure_dimension>  (104) 
2D

$$$$
MS0109
     RDKit          2D

 27 30  0  0  0  0  0  0  0  0999 V2000
   -4.6206   -2.3136    0.0000 C   0  0  0  0  0  0  0  0  0  0  0  0
   -3.4741   -1.3464    0.0000 C   0  0  0  0  0  0  0  0  0  0  0  0
   -3.7384    0.1301    0.0000 C   0  0  0  0  0  0  0  0  0  0  0  0
   -5.1493    0.6394    0.0000 C   0  0  0  0  0  0  0  0  0  0  0  0
   -5.4136    2.1160    0.0000 C   0  0  0  0  0  0  0  0  0  0  0  0
   -4.2671    3.0832    0.0000 O   0  0  0  0  0  0  0  0  0  0  0  0
   -6.8245    2.6253    0.0000 O   0  0  0  0  0  0  0  0  0  0  0  0
   -2.0632   -1.8558    0.0000 C   0  0  0  0  0  0  0  0  0  0  0  0
   -1.6459   -3.2966    0.0000 C   0  0  0  0  0  0  0  0  0  0  0  0
   -0.1467   -3.3450    0.0000 C   0  0  0  0  0  0  0  0  0  0  0  0
    0.3626   -1.9341    0.0000 C   0  0  0  0  0  0  0  0  0  0  0  0
    1.7519   -1.3686    0.0000 C   0  0  0  0  0  0  0  0  0  0  0  0
    2.9363   -2.2890    0.0000 C   0  0  0  0  0  0  0  0  0  0  0  0
    4.3256   -1.7234    0.0000 C   0  0  0  0  0  0  0  0  0  0  0  0
    4.5305   -0.2375    0.0000 C   0  0  0  0  0  0  0  0  0  0  0  0
    5.9198    0.3281    0.0000 C   0  0  0  0  0  0  0  0  0  0  0  0
    6.1247    1.8140    0.0000 C   0  0  0  0  0  0  0  0  0  0  0  0
    4.9402    2.7344    0.0000 C   0  0  0  0  0  0  0  0  0  0  0  0
    3.5509    2.1689    0.0000 C   0  0  0  0  0  0  0  0  0  0  0  0
    3.3461    0.6829    0.0000 C   0  0  0  0  0  0  0  0  0  0  0  0
    2.1616    1.6033    0.0000 C   0  0  0  0  0  0  0  0  0  0  0  0
    1.9568    0.1174    0.0000 C   0  0  0  0  0  0  0  0  0  0  0  0
    0.7723    1.0378    0.0000 C   0  0  0  0  0  0  0  0  0  0  0  0
   -0.6170    0.4722    0.0000 C   0  0  0  0  0  0  0  0  0  0  0  0
   -1.8014    1.3926    0.0000 O   0  0  0  0  0  0  0  0  0  0  0  0
   -0.8218   -1.0137    0.0000 C   0  0  0  0  0  0  0  0  0  0  0  0
   -2.0960   -0.2222    0.0000 C   0  0  0  0  0  0  0  0  0  0  0  0
  2  1  1  6
  2  3  1  0
  3  4  1  0
  4  5  1  0
  5  6  2  0
  5  7  1  0
  2  8  1  0
  8  9  1  6
  9 10  1  0
 11 10  1  6
 11 12  1  0
 12 13  1  1
 13 14  1  0
 15 14  1  1
 15 16  1  0
 16 17  1  0
 17 18  1  0
 18 19  1  0
 19 20  1  0
 20 21  1  6
 20 22  1  0
 22 23  1  6
 23 24  1  0
 24 25  1  1
 24 26  1  0
 26 27  1  6
 26  8  1  0
 26 11  1  0
 22 12  1  0
 20 15  1  0
M  END
>  <MS_ID>  (105) 
MS0109

>  <SMILES>  (105) 
C[C@H](CCC(=O)O)[C@H]1CC[C@H]2[C@@H]3CC[C@@H]4CCCC[C@]4(C)[C@H]3C[C@H](O)[C@]12C

>  <Structure_dimension>  (105) 
2D

$$$$
MS0110
     RDKit          2D

 32 35  0  0  0  0  0  0  0  0999 V2000
   -4.6321   -2.8439    0.0000 C   0  0  0  0  0  0  0  0  0  0  0  0
   -3.4960   -1.8645    0.0000 C   0  0  0  0  0  0  0  0  0  0  0  0
   -3.7761   -0.3909    0.0000 C   0  0  0  0  0  0  0  0  0  0  0  0
   -5.1923    0.1033    0.0000 C   0  0  0  0  0  0  0  0  0  0  0  0
   -5.4724    1.5769    0.0000 C   0  0  0  0  0  0  0  0  0  0  0  0
   -4.3363    2.5563    0.0000 O   0  0  0  0  0  0  0  0  0  0  0  0
   -6.8887    2.0711    0.0000 O   0  0  0  0  0  0  0  0  0  0  0  0
   -2.0797   -2.3588    0.0000 C   0  0  0  0  0  0  0  0  0  0  0  0
   -1.6471   -3.7950    0.0000 C   0  0  0  0  0  0  0  0  0  0  0  0
   -0.1475   -3.8274    0.0000 C   0  0  0  0  0  0  0  0  0  0  0  0
    0.3468   -2.4112    0.0000 C   0  0  0  0  0  0  0  0  0  0  0  0
    1.7299   -1.8308    0.0000 C   0  0  0  0  0  0  0  0  0  0  0  0
    2.9241   -2.7385    0.0000 C   0  0  0  0  0  0  0  0  0  0  0  0
    4.3073   -2.1581    0.0000 C   0  0  0  0  0  0  0  0  0  0  0  0
    4.4963   -0.6700    0.0000 C   0  0  0  0  0  0  0  0  0  0  0  0
    5.8795   -0.0896    0.0000 C   0  0  0  0  0  0  0  0  0  0  0  0
    6.0684    1.3984    0.0000 C   0  0  0  0  0  0  0  0  0  0  0  0
    7.4516    1.9788    0.0000 O   0  0  0  0  0  0  0  0  0  0  0  0
    4.8742    2.3061    0.0000 C   0  0  0  0  0  0  0  0  0  0  0  0
    3.4910    1.7257    0.0000 C   0  0  0  0  0  0  0  0  0  0  0  0
    3.3021    0.2376    0.0000 C   0  0  0  0  0  0  0  0  0  0  0  0
    2.1079    1.1453    0.0000 C   0  0  0  0  0  0  0  0  0  0  0  0
    1.9189   -0.3427    0.0000 C   0  0  0  0  0  0  0  0  0  0  0  0
    0.7247    0.5649    0.0000 C   0  0  0  0  0  0  0  0  0  0  0  0
   -0.6585   -0.0154    0.0000 C   0  0  0  0  0  0  0  0  0  0  0  0
   -1.8527    0.8922    0.0000 O   0  0  0  0  0  0  0  0  0  0  0  0
   -1.6637    2.3803    0.0000 S   0  0  0  0  0  0  0  0  0  0  0  0
   -0.1757    2.1913    0.0000 O   0  0  0  0  0  0  0  0  0  0  0  0
   -3.1518    2.5693    0.0000 O   0  0  0  0  0  0  0  0  0  0  0  0
   -1.4748    3.8683    0.0000 O   0  0  0  0  0  0  0  0  0  0  0  0
   -0.8474   -1.5035    0.0000 C   0  0  0  0  0  0  0  0  0  0  0  0
   -2.1300   -0.7256    0.0000 C   0  0  0  0  0  0  0  0  0  0  0  0
  2  1  1  6
  2  3  1  0
  3  4  1  0
  4  5  1  0
  5  6  2  0
  5  7  1  0
  2  8  1  0
  8  9  1  6
  9 10  1  0
 11 10  1  6
 11 12  1  0
 12 13  1  1
 13 14  1  0
 15 14  1  1
 15 16  1  0
 16 17  1  0
 17 18  1  6
 17 19  1  0
 19 20  1  0
 20 21  1  0
 21 22  1  6
 21 23  1  0
 23 24  1  6
 24 25  1  0
 25 26  1  1
 26 27  1  0
 27 28  2  0
 27 29  2  0
 27 30  1  0
 25 31  1  0
 31 32  1  6
 31  8  1  0
 31 11  1  0
 23 12  1  0
 21 15  1  0
M  END
>  <MS_ID>  (106) 
MS0110

>  <SMILES>  (106) 
C[C@H](CCC(=O)O)[C@H]1CC[C@H]2[C@@H]3CC[C@@H]4C[C@@H](O)CC[C@]4(C)[C@H]3C[C@H](OS(=O)(=O)O)[C@]12C

>  <Structure_dimension>  (106) 
2D

$$$$
MS0111
     RDKit          2D

 32 35  0  0  0  0  0  0  0  0999 V2000
   -6.4291   -1.5822    0.0000 C   0  0  0  0  0  0  0  0  0  0  0  0
   -5.1768   -0.7566    0.0000 C   0  0  0  0  0  0  0  0  0  0  0  0
   -5.2656    0.7408    0.0000 C   0  0  0  0  0  0  0  0  0  0  0  0
   -6.6068    1.4125    0.0000 C   0  0  0  0  0  0  0  0  0  0  0  0
   -6.6957    2.9099    0.0000 C   0  0  0  0  0  0  0  0  0  0  0  0
   -8.0369    3.5816    0.0000 O   0  0  0  0  0  0  0  0  0  0  0  0
   -3.8356   -1.4283    0.0000 C   0  0  0  0  0  0  0  0  0  0  0  0
   -3.5907   -2.9082    0.0000 C   0  0  0  0  0  0  0  0  0  0  0  0
   -2.1076   -3.1326    0.0000 C   0  0  0  0  0  0  0  0  0  0  0  0
   -1.4359   -1.7914    0.0000 C   0  0  0  0  0  0  0  0  0  0  0  0
    0.0103   -1.3931    0.0000 C   0  0  0  0  0  0  0  0  0  0  0  0
    1.0783   -2.4464    0.0000 C   0  0  0  0  0  0  0  0  0  0  0  0
    0.7001   -3.8980    0.0000 O   0  0  0  0  0  0  0  0  0  0  0  0
    2.5245   -2.0482    0.0000 C   0  0  0  0  0  0  0  0  0  0  0  0
    2.9027   -0.5966    0.0000 C   0  0  0  0  0  0  0  0  0  0  0  0
    4.3488   -0.1984    0.0000 C   0  0  0  0  0  0  0  0  0  0  0  0
    4.7270    1.2531    0.0000 C   0  0  0  0  0  0  0  0  0  0  0  0
    6.1732    1.6514    0.0000 O   0  0  0  0  0  0  0  0  0  0  0  0
    7.2412    0.5981    0.0000 S   0  0  0  0  0  0  0  0  0  0  0  0
    6.1879   -0.4699    0.0000 O   0  0  0  0  0  0  0  0  0  0  0  0
    8.2945    1.6661    0.0000 O   0  0  0  0  0  0  0  0  0  0  0  0
    8.3091   -0.4552    0.0000 O   0  0  0  0  0  0  0  0  0  0  0  0
    3.6590    2.3064    0.0000 C   0  0  0  0  0  0  0  0  0  0  0  0
    2.2129    1.9082    0.0000 C   0  0  0  0  0  0  0  0  0  0  0  0
    1.8347    0.4567    0.0000 C   0  0  0  0  0  0  0  0  0  0  0  0
    0.7667    1.5100    0.0000 C   0  0  0  0  0  0  0  0  0  0  0  0
    0.3885    0.0584    0.0000 C   0  0  0  0  0  0  0  0  0  0  0  0
   -0.6795    1.1117    0.0000 C   0  0  0  0  0  0  0  0  0  0  0  0
   -2.1256    0.7135    0.0000 C   0  0  0  0  0  0  0  0  0  0  0  0
   -3.1936    1.7668    0.0000 O   0  0  0  0  0  0  0  0  0  0  0  0
   -2.5038   -0.7381    0.0000 C   0  0  0  0  0  0  0  0  0  0  0  0
   -3.6760    0.1978    0.0000 C   0  0  0  0  0  0  0  0  0  0  0  0
  2  1  1  6
  2  3  1  0
  3  4  1  0
  4  5  1  0
  5  6  2  0
  2  7  1  0
  7  8  1  6
  8  9  1  0
 10  9  1  6
 10 11  1  0
 11 12  1  1
 12 13  1  1
 12 14  1  0
 15 14  1  1
 15 16  1  0
 16 17  1  0
 17 18  1  1
 18 19  1  0
 19 20  2  0
 19 21  2  0
 19 22  1  0
 17 23  1  0
 23 24  1  0
 24 25  1  0
 25 26  1  6
 25 27  1  0
 27 28  1  6
 28 29  1  0
 29 30  1  1
 29 31  1  0
 31 32  1  6
 31  7  1  0
 31 10  1  0
 27 11  1  0
 25 15  1  0
M  END
>  <MS_ID>  (107) 
MS0111

>  <SMILES>  (107) 
C[C@H](CCC=O)[C@H]1CC[C@H]2[C@@H]3[C@H](O)C[C@@H]4C[C@H](OS(=O)(=O)O)CC[C@]4(C)[C@H]3C[C@H](O)[C@]12C

>  <Structure_dimension>  (107) 
2D

$$$$
MS0112
     RDKit          2D

 33 36  0  0  0  0  0  0  0  0999 V2000
   -1.6035   -4.2462    0.0000 C   0  0  0  0  0  0  0  0  0  0  0  0
   -0.9592   -2.8916    0.0000 C   0  0  0  0  0  0  0  0  0  0  0  0
   -1.8103   -1.6564    0.0000 C   0  0  0  0  0  0  0  0  0  0  0  0
   -3.3055   -1.7758    0.0000 C   0  0  0  0  0  0  0  0  0  0  0  0
   -4.1565   -0.5406    0.0000 C   0  0  0  0  0  0  0  0  0  0  0  0
   -3.5123    0.8140    0.0000 O   0  0  0  0  0  0  0  0  0  0  0  0
   -5.6518   -0.6600    0.0000 N   0  0  0  0  0  0  0  0  0  0  0  0
   -6.5028    0.5752    0.0000 C   0  0  0  0  0  0  0  0  0  0  0  0
   -7.9980    0.4558    0.0000 C   0  0  0  0  0  0  0  0  0  0  0  0
   -8.8491    1.6910    0.0000 S   0  0  0  0  0  0  0  0  0  0  0  0
  -10.0843    0.8400    0.0000 O   0  0  0  0  0  0  0  0  0  0  0  0
   -7.6139    2.5421    0.0000 O   0  0  0  0  0  0  0  0  0  0  0  0
   -9.7001    2.9262    0.0000 O   0  0  0  0  0  0  0  0  0  0  0  0
    0.5360   -2.7722    0.0000 C   0  0  0  0  0  0  0  0  0  0  0  0
    1.5115   -3.9117    0.0000 C   0  0  0  0  0  0  0  0  0  0  0  0
    2.8966   -3.3361    0.0000 C   0  0  0  0  0  0  0  0  0  0  0  0
    2.7772   -1.8408    0.0000 C   0  0  0  0  0  0  0  0  0  0  0  0
    3.8085   -0.7516    0.0000 C   0  0  0  0  0  0  0  0  0  0  0  0
    5.2675   -1.1001    0.0000 C   0  0  0  0  0  0  0  0  0  0  0  0
    5.6951   -2.5378    0.0000 O   0  0  0  0  0  0  0  0  0  0  0  0
    6.2988   -0.0108    0.0000 C   0  0  0  0  0  0  0  0  0  0  0  0
    5.8711    1.4269    0.0000 C   0  0  0  0  0  0  0  0  0  0  0  0
    6.9024    2.5162    0.0000 C   0  0  0  0  0  0  0  0  0  0  0  0
    6.4747    3.9539    0.0000 C   0  0  0  0  0  0  0  0  0  0  0  0
    5.0157    4.3024    0.0000 C   0  0  0  0  0  0  0  0  0  0  0  0
    3.9844    3.2131    0.0000 C   0  0  0  0  0  0  0  0  0  0  0  0
    4.4121    1.7754    0.0000 C   0  0  0  0  0  0  0  0  0  0  0  0
    2.9532    2.1239    0.0000 C   0  0  0  0  0  0  0  0  0  0  0  0
    3.3808    0.6862    0.0000 C   0  0  0  0  0  0  0  0  0  0  0  0
    1.9219    1.0346    0.0000 C   0  0  0  0  0  0  0  0  0  0  0  0
    0.8906   -0.0546    0.0000 C   0  0  0  0  0  0  0  0  0  0  0  0
    1.3183   -1.4923    0.0000 C   0  0  0  0  0  0  0  0  0  0  0  0
   -0.1691   -1.2983    0.0000 C   0  0  0  0  0  0  0  0  0  0  0  0
  2  1  1  6
  2  3  1  0
  3  4  1  0
  4  5  1  0
  5  6  2  0
  5  7  1  0
  7  8  1  0
  8  9  1  0
  9 10  1  0
 10 11  2  0
 10 12  2  0
 10 13  1  0
  2 14  1  0
 14 15  1  6
 15 16  1  0
 17 16  1  6
 17 18  1  0
 18 19  1  1
 19 20  1  1
 19 21  1  0
 22 21  1  1
 22 23  1  0
 23 24  1  0
 24 25  1  0
 25 26  1  0
 26 27  1  0
 27 28  1  6
 27 29  1  0
 29 30  1  6
 30 31  1  0
 31 32  1  0
 32 33  1  6
 32 14  1  0
 32 17  1  0
 29 18  1  0
 27 22  1  0
M  END
>  <MS_ID>  (108) 
MS0112

>  <SMILES>  (108) 
C[C@H](CCC(=O)NCCS(=O)(=O)O)[C@H]1CC[C@H]2[C@@H]3[C@H](O)C[C@@H]4CCCC[C@]4(C)[C@H]3CC[C@]12C

>  <Structure_dimension>  (108) 
2D

$$$$
MS0113
     RDKit          2D

 30 33  0  0  0  0  0  0  0  0999 V2000
   -4.5685   -2.6908    0.0000 C   0  0  0  0  0  0  0  0  0  0  0  0
   -3.4838   -1.6548    0.0000 C   0  0  0  0  0  0  0  0  0  0  0  0
   -3.8388   -0.1974    0.0000 C   0  0  0  0  0  0  0  0  0  0  0  0
   -5.2784    0.2240    0.0000 C   0  0  0  0  0  0  0  0  0  0  0  0
   -5.6333    1.6814    0.0000 C   0  0  0  0  0  0  0  0  0  0  0  0
   -4.5486    2.7174    0.0000 O   0  0  0  0  0  0  0  0  0  0  0  0
   -7.0729    2.1027    0.0000 C   0  0  0  0  0  0  0  0  0  0  0  0
   -7.4279    3.5601    0.0000 O   0  0  0  0  0  0  0  0  0  0  0  0
   -2.0442   -2.0761    0.0000 C   0  0  0  0  0  0  0  0  0  0  0  0
   -1.5389   -3.4884    0.0000 C   0  0  0  0  0  0  0  0  0  0  0  0
   -0.0395   -3.4442    0.0000 C   0  0  0  0  0  0  0  0  0  0  0  0
    0.3818   -2.0046    0.0000 C   0  0  0  0  0  0  0  0  0  0  0  0
    1.7336   -1.3544    0.0000 C   0  0  0  0  0  0  0  0  0  0  0  0
    2.9725   -2.1999    0.0000 C   0  0  0  0  0  0  0  0  0  0  0  0
    2.8597   -3.6957    0.0000 O   0  0  0  0  0  0  0  0  0  0  0  0
    4.3243   -1.5497    0.0000 C   0  0  0  0  0  0  0  0  0  0  0  0
    4.4371   -0.0540    0.0000 C   0  0  0  0  0  0  0  0  0  0  0  0
    5.7888    0.5962    0.0000 C   0  0  0  0  0  0  0  0  0  0  0  0
    5.9016    2.0920    0.0000 C   0  0  0  0  0  0  0  0  0  0  0  0
    7.2534    2.7422    0.0000 O   0  0  0  0  0  0  0  0  0  0  0  0
    4.6627    2.9375    0.0000 C   0  0  0  0  0  0  0  0  0  0  0  0
    3.3109    2.2873    0.0000 C   0  0  0  0  0  0  0  0  0  0  0  0
    3.1981    0.7916    0.0000 C   0  0  0  0  0  0  0  0  0  0  0  0
    1.9591    1.6371    0.0000 C   0  0  0  0  0  0  0  0  0  0  0  0
    1.8464    0.1414    0.0000 C   0  0  0  0  0  0  0  0  0  0  0  0
    0.6074    0.9869    0.0000 C   0  0  0  0  0  0  0  0  0  0  0  0
   -0.7444    0.3367    0.0000 C   0  0  0  0  0  0  0  0  0  0  0  0
   -1.9833    1.1823    0.0000 O   0  0  0  0  0  0  0  0  0  0  0  0
   -0.8572   -1.1590    0.0000 C   0  0  0  0  0  0  0  0  0  0  0  0
   -2.1777   -0.4476    0.0000 C   0  0  0  0  0  0  0  0  0  0  0  0
  2  1  1  6
  2  3  1  0
  3  4  1  0
  4  5  1  0
  5  6  2  0
  5  7  1  0
  7  8  1  0
  2  9  1  0
  9 10  1  6
 10 11  1  0
 12 11  1  6
 12 13  1  0
 13 14  1  1
 14 15  1  1
 14 16  1  0
 17 16  1  1
 17 18  1  0
 18 19  1  0
 19 20  2  0
 19 21  1  0
 21 22  1  0
 22 23  1  0
 23 24  1  6
 23 25  1  0
 25 26  1  6
 26 27  1  0
 27 28  1  1
 27 29  1  0
 29 30  1  6
 29  9  1  0
 29 12  1  0
 25 13  1  0
 23 17  1  0
M  END
>  <MS_ID>  (109) 
MS0113

>  <SMILES>  (109) 
C[C@H](CCC(=O)CO)[C@H]1CC[C@H]2[C@@H]3[C@H](O)C[C@@H]4CC(=O)CC[C@]4(C)[C@H]3C[C@H](O)[C@]12C

>  <Structure_dimension>  (109) 
2D

$$$$
MS0114
     RDKit          2D

 31 34  0  0  0  0  0  0  0  0999 V2000
   -4.0024   -3.4860    0.0000 C   0  0  0  0  0  0  0  0  0  0  0  0
   -3.0477   -2.3291    0.0000 C   0  0  0  0  0  0  0  0  0  0  0  0
   -3.5723   -0.9238    0.0000 C   0  0  0  0  0  0  0  0  0  0  0  0
   -5.0516   -0.6754    0.0000 C   0  0  0  0  0  0  0  0  0  0  0  0
   -5.5761    0.7298    0.0000 C   0  0  0  0  0  0  0  0  0  0  0  0
   -7.0554    0.9782    0.0000 O   0  0  0  0  0  0  0  0  0  0  0  0
   -4.6214    1.8868    0.0000 O   0  0  0  0  0  0  0  0  0  0  0  0
   -5.1460    3.2921    0.0000 C   0  0  0  0  0  0  0  0  0  0  0  0
   -6.6253    3.5404    0.0000 O   0  0  0  0  0  0  0  0  0  0  0  0
   -4.1913    4.4490    0.0000 O   0  0  0  0  0  0  0  0  0  0  0  0
   -1.5684   -2.5774    0.0000 C   0  0  0  0  0  0  0  0  0  0  0  0
   -0.8998   -3.9201    0.0000 C   0  0  0  0  0  0  0  0  0  0  0  0
    0.5839   -3.6992    0.0000 C   0  0  0  0  0  0  0  0  0  0  0  0
    0.8322   -2.2199    0.0000 C   0  0  0  0  0  0  0  0  0  0  0  0
    2.0977   -1.4146    0.0000 C   0  0  0  0  0  0  0  0  0  0  0  0
    3.4279   -2.1079    0.0000 C   0  0  0  0  0  0  0  0  0  0  0  0
    3.4925   -3.6065    0.0000 O   0  0  0  0  0  0  0  0  0  0  0  0
    4.6934   -1.3026    0.0000 C   0  0  0  0  0  0  0  0  0  0  0  0
    4.6287    0.1960    0.0000 C   0  0  0  0  0  0  0  0  0  0  0  0
    5.8942    1.0013    0.0000 C   0  0  0  0  0  0  0  0  0  0  0  0
    5.8296    2.4999    0.0000 C   0  0  0  0  0  0  0  0  0  0  0  0
    7.0951    3.3052    0.0000 O   0  0  0  0  0  0  0  0  0  0  0  0
    4.4994    3.1932    0.0000 C   0  0  0  0  0  0  0  0  0  0  0  0
    3.2339    2.3879    0.0000 C   0  0  0  0  0  0  0  0  0  0  0  0
    3.2986    0.8893    0.0000 C   0  0  0  0  0  0  0  0  0  0  0  0
    1.9684    1.5826    0.0000 C   0  0  0  0  0  0  0  0  0  0  0  0
    2.0331    0.0840    0.0000 C   0  0  0  0  0  0  0  0  0  0  0  0
    0.7029    0.7773    0.0000 C   0  0  0  0  0  0  0  0  0  0  0  0
   -0.5626   -0.0280    0.0000 C   0  0  0  0  0  0  0  0  0  0  0  0
   -0.4979   -1.5266    0.0000 C   0  0  0  0  0  0  0  0  0  0  0  0
   -1.8933   -0.9761    0.0000 C   0  0  0  0  0  0  0  0  0  0  0  0
  2  1  1  6
  2  3  1  0
  3  4  1  0
  4  5  1  0
  5  6  2  0
  5  7  1  0
  7  8  1  0
  8  9  2  0
  8 10  1  0
  2 11  1  0
 11 12  1  6
 12 13  1  0
 14 13  1  6
 14 15  1  0
 15 16  1  1
 16 17  1  6
 16 18  1  0
 19 18  1  1
 19 20  1  0
 20 21  1  0
 21 22  1  1
 21 23  1  0
 23 24  1  0
 24 25  1  0
 25 26  1  6
 25 27  1  0
 27 28  1  6
 28 29  1  0
 29 30  1  0
 30 31  1  6
 30 11  1  0
 30 14  1  0
 27 15  1  0
 25 19  1  0
M  END
>  <MS_ID>  (110) 
MS0114

>  <SMILES>  (110) 
C[C@H](CCC(=O)OC(=O)O)[C@H]1CC[C@H]2[C@@H]3[C@@H](O)C[C@@H]4C[C@H](O)CC[C@]4(C)[C@H]3CC[C@]12C

>  <Structure_dimension>  (110) 
2D

$$$$
MS0115
     RDKit          2D

 29 32  0  0  0  0  0  0  0  0999 V2000
   -5.0303   -2.1373    0.0000 C   0  0  0  0  0  0  0  0  0  0  0  0
   -3.8594   -1.1998    0.0000 C   0  0  0  0  0  0  0  0  0  0  0  0
   -4.0858    0.2830    0.0000 C   0  0  0  0  0  0  0  0  0  0  0  0
   -5.4831    0.8284    0.0000 C   0  0  0  0  0  0  0  0  0  0  0  0
   -5.7095    2.3112    0.0000 C   0  0  0  0  0  0  0  0  0  0  0  0
   -7.1069    2.8565    0.0000 O   0  0  0  0  0  0  0  0  0  0  0  0
   -4.5386    3.2487    0.0000 S   0  0  0  0  0  0  0  0  0  0  0  0
   -2.4620   -1.7451    0.0000 C   0  0  0  0  0  0  0  0  0  0  0  0
   -2.0818   -3.1961    0.0000 C   0  0  0  0  0  0  0  0  0  0  0  0
   -0.5844   -3.2830    0.0000 C   0  0  0  0  0  0  0  0  0  0  0  0
   -0.0390   -1.8856    0.0000 C   0  0  0  0  0  0  0  0  0  0  0  0
    1.3643   -1.3559    0.0000 C   0  0  0  0  0  0  0  0  0  0  0  0
    2.5248   -2.3063    0.0000 C   0  0  0  0  0  0  0  0  0  0  0  0
    2.2819   -3.7865    0.0000 O   0  0  0  0  0  0  0  0  0  0  0  0
    3.9281   -1.7765    0.0000 C   0  0  0  0  0  0  0  0  0  0  0  0
    4.1710   -0.2963    0.0000 C   0  0  0  0  0  0  0  0  0  0  0  0
    5.5743    0.2334    0.0000 C   0  0  0  0  0  0  0  0  0  0  0  0
    5.8172    1.7136    0.0000 C   0  0  0  0  0  0  0  0  0  0  0  0
    7.2205    2.2434    0.0000 O   0  0  0  0  0  0  0  0  0  0  0  0
    4.6568    2.6641    0.0000 C   0  0  0  0  0  0  0  0  0  0  0  0
    3.2534    2.1343    0.0000 C   0  0  0  0  0  0  0  0  0  0  0  0
    3.0105    0.6541    0.0000 C   0  0  0  0  0  0  0  0  0  0  0  0
    1.8501    1.6046    0.0000 C   0  0  0  0  0  0  0  0  0  0  0  0
    1.6072    0.1244    0.0000 C   0  0  0  0  0  0  0  0  0  0  0  0
    0.4467    1.0748    0.0000 C   0  0  0  0  0  0  0  0  0  0  0  0
   -0.9566    0.5450    0.0000 C   0  0  0  0  0  0  0  0  0  0  0  0
   -2.1170    1.4955    0.0000 O   0  0  0  0  0  0  0  0  0  0  0  0
   -1.1995   -0.9352    0.0000 C   0  0  0  0  0  0  0  0  0  0  0  0
   -2.4529   -0.1112    0.0000 C   0  0  0  0  0  0  0  0  0  0  0  0
  2  1  1  6
  2  3  1  0
  3  4  1  0
  4  5  1  0
  5  6  2  0
  5  7  1  0
  2  8  1  0
  8  9  1  6
  9 10  1  0
 11 10  1  6
 11 12  1  0
 12 13  1  1
 13 14  1  1
 13 15  1  0
 16 15  1  1
 16 17  1  0
 17 18  1  0
 18 19  1  1
 18 20  1  0
 20 21  1  0
 21 22  1  0
 22 23  1  6
 22 24  1  0
 24 25  1  6
 25 26  1  0
 26 27  1  1
 26 28  1  0
 28 29  1  6
 28  8  1  0
 28 11  1  0
 24 12  1  0
 22 16  1  0
M  END
>  <MS_ID>  (111) 
MS0115

>  <SMILES>  (111) 
C[C@H](CCC(=O)S)[C@H]1CC[C@H]2[C@@H]3[C@H](O)C[C@@H]4C[C@H](O)CC[C@]4(C)[C@H]3C[C@H](O)[C@]12C

>  <Structure_dimension>  (111) 
2D

$$$$
MS0117
     RDKit          2D

 31 34  0  0  0  0  0  0  0  0999 V2000
   -4.2495   -2.8115    0.0000 C   0  0  0  0  0  0  0  0  0  0  0  0
   -3.1859   -1.7538    0.0000 C   0  0  0  0  0  0  0  0  0  0  0  0
   -3.5702   -0.3038    0.0000 C   0  0  0  0  0  0  0  0  0  0  0  0
   -5.0180    0.0883    0.0000 C   0  0  0  0  0  0  0  0  0  0  0  0
   -5.4023    1.5383    0.0000 C   0  0  0  0  0  0  0  0  0  0  0  0
   -4.3387    2.5960    0.0000 O   0  0  0  0  0  0  0  0  0  0  0  0
   -6.8501    1.9305    0.0000 N   0  0  0  0  0  0  0  0  0  0  0  0
   -7.2344    3.3804    0.0000 C   0  0  0  0  0  0  0  0  0  0  0  0
   -7.9137    0.8727    0.0000 C   0  0  0  0  0  0  0  0  0  0  0  0
   -1.7381   -2.1460    0.0000 C   0  0  0  0  0  0  0  0  0  0  0  0
   -1.2044   -3.5478    0.0000 C   0  0  0  0  0  0  0  0  0  0  0  0
    0.2938   -3.4734    0.0000 C   0  0  0  0  0  0  0  0  0  0  0  0
    0.6860   -2.0256    0.0000 C   0  0  0  0  0  0  0  0  0  0  0  0
    2.0243   -1.3482    0.0000 C   0  0  0  0  0  0  0  0  0  0  0  0
    3.2801   -2.1686    0.0000 C   0  0  0  0  0  0  0  0  0  0  0  0
    3.1975   -3.6663    0.0000 O   0  0  0  0  0  0  0  0  0  0  0  0
    4.6185   -1.4913    0.0000 C   0  0  0  0  0  0  0  0  0  0  0  0
    4.7010    0.0064    0.0000 C   0  0  0  0  0  0  0  0  0  0  0  0
    6.0394    0.6838    0.0000 C   0  0  0  0  0  0  0  0  0  0  0  0
    6.1220    2.1815    0.0000 C   0  0  0  0  0  0  0  0  0  0  0  0
    7.4604    2.8588    0.0000 O   0  0  0  0  0  0  0  0  0  0  0  0
    4.8662    3.0019    0.0000 C   0  0  0  0  0  0  0  0  0  0  0  0
    3.5279    2.3246    0.0000 C   0  0  0  0  0  0  0  0  0  0  0  0
    3.4453    0.8268    0.0000 C   0  0  0  0  0  0  0  0  0  0  0  0
    2.1895    1.6472    0.0000 C   0  0  0  0  0  0  0  0  0  0  0  0
    2.1069    0.1495    0.0000 C   0  0  0  0  0  0  0  0  0  0  0  0
    0.8511    0.9699    0.0000 C   0  0  0  0  0  0  0  0  0  0  0  0
   -0.4872    0.2925    0.0000 C   0  0  0  0  0  0  0  0  0  0  0  0
   -1.7430    1.1129    0.0000 O   0  0  0  0  0  0  0  0  0  0  0  0
   -0.5698   -1.2052    0.0000 C   0  0  0  0  0  0  0  0  0  0  0  0
   -1.9045   -0.5205    0.0000 C   0  0  0  0  0  0  0  0  0  0  0  0
  2  1  1  6
  2  3  1  0
  3  4  1  0
  4  5  1  0
  5  6  2  0
  5  7  1  0
  7  8  1  0
  7  9  1  0
  2 10  1  0
 10 11  1  6
 11 12  1  0
 13 12  1  6
 13 14  1  0
 14 15  1  1
 15 16  1  1
 15 17  1  0
 18 17  1  1
 18 19  1  0
 19 20  1  0
 20 21  1  1
 20 22  1  0
 22 23  1  0
 23 24  1  0
 24 25  1  6
 24 26  1  0
 26 27  1  6
 27 28  1  0
 28 29  1  1
 28 30  1  0
 30 31  1  6
 30 10  1  0
 30 13  1  0
 26 14  1  0
 24 18  1  0
M  END
>  <MS_ID>  (112) 
MS0117

>  <SMILES>  (112) 
C[C@H](CCC(=O)N(C)C)[C@H]1CC[C@H]2[C@@H]3[C@H](O)C[C@@H]4C[C@H](O)CC[C@]4(C)[C@H]3C[C@H](O)[C@]12C

>  <Structure_dimension>  (112) 
2D

$$$$
MS0118
     RDKit          2D

 32 35  0  0  0  0  0  0  0  0999 V2000
   -6.5274   -1.6443    0.0000 C   0  0  0  0  0  0  0  0  0  0  0  0
   -5.2648   -0.8345    0.0000 C   0  0  0  0  0  0  0  0  0  0  0  0
   -5.3348    0.6639    0.0000 C   0  0  0  0  0  0  0  0  0  0  0  0
   -6.6674    1.3524    0.0000 C   0  0  0  0  0  0  0  0  0  0  0  0
   -6.7374    2.8508    0.0000 C   0  0  0  0  0  0  0  0  0  0  0  0
   -5.4748    3.6606    0.0000 O   0  0  0  0  0  0  0  0  0  0  0  0
   -8.0700    3.5394    0.0000 O   0  0  0  0  0  0  0  0  0  0  0  0
   -3.9322   -1.5231    0.0000 C   0  0  0  0  0  0  0  0  0  0  0  0
   -3.7060   -3.0059    0.0000 C   0  0  0  0  0  0  0  0  0  0  0  0
   -2.2258   -3.2490    0.0000 C   0  0  0  0  0  0  0  0  0  0  0  0
   -1.5372   -1.9164    0.0000 C   0  0  0  0  0  0  0  0  0  0  0  0
   -0.0861   -1.5364    0.0000 C   0  0  0  0  0  0  0  0  0  0  0  0
    0.9685   -2.6030    0.0000 C   0  0  0  0  0  0  0  0  0  0  0  0
    0.5720   -4.0497    0.0000 O   0  0  0  0  0  0  0  0  0  0  0  0
    2.4195   -2.2231    0.0000 C   0  0  0  0  0  0  0  0  0  0  0  0
    2.8160   -0.7764    0.0000 C   0  0  0  0  0  0  0  0  0  0  0  0
    4.2671   -0.3964    0.0000 C   0  0  0  0  0  0  0  0  0  0  0  0
    4.6635    1.0502    0.0000 C   0  0  0  0  0  0  0  0  0  0  0  0
    6.1146    1.4302    0.0000 C   0  0  0  0  0  0  0  0  0  0  0  0
    7.1692    0.3636    0.0000 C   0  0  0  0  0  0  0  0  0  0  0  0
    8.6203    0.7436    0.0000 C   0  0  0  0  0  0  0  0  0  0  0  0
    9.0167    2.1902    0.0000 O   0  0  0  0  0  0  0  0  0  0  0  0
    9.6749   -0.3231    0.0000 O   0  0  0  0  0  0  0  0  0  0  0  0
    3.6089    2.1169    0.0000 C   0  0  0  0  0  0  0  0  0  0  0  0
    2.1578    1.7369    0.0000 C   0  0  0  0  0  0  0  0  0  0  0  0
    1.7614    0.2903    0.0000 C   0  0  0  0  0  0  0  0  0  0  0  0
    0.7068    1.3569    0.0000 C   0  0  0  0  0  0  0  0  0  0  0  0
    0.3103   -0.0897    0.0000 C   0  0  0  0  0  0  0  0  0  0  0  0
   -0.7443    0.9770    0.0000 C   0  0  0  0  0  0  0  0  0  0  0  0
   -2.1954    0.5970    0.0000 C   0  0  0  0  0  0  0  0  0  0  0  0
   -2.5918   -0.8497    0.0000 C   0  0  0  0  0  0  0  0  0  0  0  0
   -3.7522    0.1009    0.0000 C   0  0  0  0  0  0  0  0  0  0  0  0
  2  1  1  6
  2  3  1  0
  3  4  1  0
  4  5  1  0
  5  6  2  0
  5  7  1  0
  2  8  1  0
  8  9  1  6
  9 10  1  0
 11 10  1  6
 11 12  1  0
 12 13  1  1
 13 14  1  6
 13 15  1  0
 16 15  1  1
 16 17  1  0
 17 18  1  0
 18 19  1  1
 19 20  1  0
 20 21  1  0
 21 22  2  0
 21 23  1  0
 18 24  1  0
 24 25  1  0
 25 26  1  0
 26 27  1  6
 26 28  1  0
 28 29  1  6
 29 30  1  0
 30 31  1  0
 31 32  1  6
 31  8  1  0
 31 11  1  0
 28 12  1  0
 26 16  1  0
M  END
>  <MS_ID>  (113) 
MS0118

>  <SMILES>  (113) 
C[C@H](CCC(=O)O)[C@H]1CC[C@H]2[C@@H]3[C@@H](O)C[C@@H]4C[C@H](CCC(=O)O)CC[C@]4(C)[C@H]3CC[C@]12C

>  <Structure_dimension>  (113) 
2D

$$$$
MS0119
     RDKit          2D

 32 35  0  0  0  0  0  0  0  0999 V2000
   -3.2905   -3.6805    0.0000 C   0  0  0  0  0  0  0  0  0  0  0  0
   -2.3609   -2.5033    0.0000 C   0  0  0  0  0  0  0  0  0  0  0  0
   -2.9157   -1.1096    0.0000 C   0  0  0  0  0  0  0  0  0  0  0  0
   -4.4000   -0.8932    0.0000 C   0  0  0  0  0  0  0  0  0  0  0  0
   -4.9547    0.5004    0.0000 C   0  0  0  0  0  0  0  0  0  0  0  0
   -4.0251    1.6776    0.0000 O   0  0  0  0  0  0  0  0  0  0  0  0
   -6.4390    0.7168    0.0000 N   0  0  0  0  0  0  0  0  0  0  0  0
   -6.9938    2.1105    0.0000 S   0  0  0  0  0  0  0  0  0  0  0  0
   -8.3874    1.5557    0.0000 O   0  0  0  0  0  0  0  0  0  0  0  0
   -5.6001    2.6652    0.0000 O   0  0  0  0  0  0  0  0  0  0  0  0
   -7.5485    3.5041    0.0000 O   0  0  0  0  0  0  0  0  0  0  0  0
   -0.8766   -2.7197    0.0000 C   0  0  0  0  0  0  0  0  0  0  0  0
   -0.1792   -4.0477    0.0000 C   0  0  0  0  0  0  0  0  0  0  0  0
    1.2993   -3.7949    0.0000 C   0  0  0  0  0  0  0  0  0  0  0  0
    1.5157   -2.3106    0.0000 C   0  0  0  0  0  0  0  0  0  0  0  0
    2.7636   -1.4782    0.0000 C   0  0  0  0  0  0  0  0  0  0  0  0
    4.1084   -2.1427    0.0000 C   0  0  0  0  0  0  0  0  0  0  0  0
    5.3562   -1.3103    0.0000 C   0  0  0  0  0  0  0  0  0  0  0  0
    5.2593    0.1866    0.0000 C   0  0  0  0  0  0  0  0  0  0  0  0
    6.5071    1.0189    0.0000 C   0  0  0  0  0  0  0  0  0  0  0  0
    6.4102    2.5158    0.0000 C   0  0  0  0  0  0  0  0  0  0  0  0
    7.6581    3.3482    0.0000 O   0  0  0  0  0  0  0  0  0  0  0  0
    5.0654    3.1803    0.0000 C   0  0  0  0  0  0  0  0  0  0  0  0
    3.8176    2.3479    0.0000 C   0  0  0  0  0  0  0  0  0  0  0  0
    3.9145    0.8511    0.0000 C   0  0  0  0  0  0  0  0  0  0  0  0
    2.5697    1.5155    0.0000 C   0  0  0  0  0  0  0  0  0  0  0  0
    2.6666    0.0187    0.0000 C   0  0  0  0  0  0  0  0  0  0  0  0
    1.3218    0.6832    0.0000 C   0  0  0  0  0  0  0  0  0  0  0  0
    0.0740   -0.1492    0.0000 C   0  0  0  0  0  0  0  0  0  0  0  0
   -1.2708    0.5153    0.0000 O   0  0  0  0  0  0  0  0  0  0  0  0
    0.1709   -1.6461    0.0000 C   0  0  0  0  0  0  0  0  0  0  0  0
   -1.2360   -1.1258    0.0000 C   0  0  0  0  0  0  0  0  0  0  0  0
  2  1  1  6
  2  3  1  0
  3  4  1  0
  4  5  1  0
  5  6  2  0
  5  7  1  0
  7  8  1  0
  8  9  2  0
  8 10  2  0
  8 11  1  0
  2 12  1  0
 12 13  1  6
 13 14  1  0
 15 14  1  6
 15 16  1  0
 16 17  1  1
 17 18  1  0
 19 18  1  1
 19 20  1  0
 20 21  1  0
 21 22  1  1
 21 23  1  0
 23 24  1  0
 24 25  1  0
 25 26  1  6
 25 27  1  0
 27 28  1  6
 28 29  1  0
 29 30  1  1
 29 31  1  0
 31 32  1  6
 31 12  1  0
 31 15  1  0
 27 16  1  0
 25 19  1  0
M  END
>  <MS_ID>  (114) 
MS0119

>  <SMILES>  (114) 
C[C@H](CCC(=O)NS(=O)(=O)O)[C@H]1CC[C@H]2[C@@H]3CC[C@@H]4C[C@H](O)CC[C@]4(C)[C@H]3C[C@H](O)[C@]12C

>  <Structure_dimension>  (114) 
2D

$$$$
MS0120
     RDKit          2D

 35 38  0  0  0  0  0  0  0  0999 V2000
   -2.0868   -4.2411    0.0000 C   0  0  0  0  0  0  0  0  0  0  0  0
   -1.3820   -2.9170    0.0000 C   0  0  0  0  0  0  0  0  0  0  0  0
   -2.1764   -1.6446    0.0000 C   0  0  0  0  0  0  0  0  0  0  0  0
   -3.6755   -1.6963    0.0000 C   0  0  0  0  0  0  0  0  0  0  0  0
   -4.4698   -0.4239    0.0000 C   0  0  0  0  0  0  0  0  0  0  0  0
   -3.7650    0.9002    0.0000 O   0  0  0  0  0  0  0  0  0  0  0  0
   -5.9689   -0.4756    0.0000 N   0  0  0  0  0  0  0  0  0  0  0  0
   -6.7632    0.7968    0.0000 C   0  0  0  0  0  0  0  0  0  0  0  0
   -8.2623    0.7451    0.0000 C   0  0  0  0  0  0  0  0  0  0  0  0
   -9.0567    2.0176    0.0000 C   0  0  0  0  0  0  0  0  0  0  0  0
  -10.5558    1.9659    0.0000 C   0  0  0  0  0  0  0  0  0  0  0  0
  -11.2606    0.6417    0.0000 O   0  0  0  0  0  0  0  0  0  0  0  0
  -11.3501    3.2383    0.0000 O   0  0  0  0  0  0  0  0  0  0  0  0
    0.1171   -2.8653    0.0000 C   0  0  0  0  0  0  0  0  0  0  0  0
    1.0401   -4.0477    0.0000 C   0  0  0  0  0  0  0  0  0  0  0  0
    2.4498   -3.5353    0.0000 C   0  0  0  0  0  0  0  0  0  0  0  0
    2.3981   -2.0362    0.0000 C   0  0  0  0  0  0  0  0  0  0  0  0
    3.4776   -0.9947    0.0000 C   0  0  0  0  0  0  0  0  0  0  0  0
    4.9193   -1.4088    0.0000 C   0  0  0  0  0  0  0  0  0  0  0  0
    5.2815   -2.8644    0.0000 O   0  0  0  0  0  0  0  0  0  0  0  0
    5.9987   -0.3672    0.0000 C   0  0  0  0  0  0  0  0  0  0  0  0
    7.4405   -0.7813    0.0000 O   0  0  0  0  0  0  0  0  0  0  0  0
    5.6365    1.0884    0.0000 C   0  0  0  0  0  0  0  0  0  0  0  0
    6.7160    2.1299    0.0000 C   0  0  0  0  0  0  0  0  0  0  0  0
    6.3537    3.5855    0.0000 C   0  0  0  0  0  0  0  0  0  0  0  0
    7.4332    4.6270    0.0000 O   0  0  0  0  0  0  0  0  0  0  0  0
    4.9120    3.9996    0.0000 C   0  0  0  0  0  0  0  0  0  0  0  0
    3.8325    2.9580    0.0000 C   0  0  0  0  0  0  0  0  0  0  0  0
    4.1948    1.5024    0.0000 C   0  0  0  0  0  0  0  0  0  0  0  0
    2.7531    1.9165    0.0000 C   0  0  0  0  0  0  0  0  0  0  0  0
    3.1153    0.4609    0.0000 C   0  0  0  0  0  0  0  0  0  0  0  0
    1.6736    0.8750    0.0000 C   0  0  0  0  0  0  0  0  0  0  0  0
    0.5941   -0.1665    0.0000 C   0  0  0  0  0  0  0  0  0  0  0  0
    0.9564   -1.6221    0.0000 C   0  0  0  0  0  0  0  0  0  0  0  0
   -0.5207   -1.3610    0.0000 C   0  0  0  0  0  0  0  0  0  0  0  0
  2  1  1  6
  2  3  1  0
  3  4  1  0
  4  5  1  0
  5  6  2  0
  5  7  1  0
  7  8  1  0
  8  9  1  0
  9 10  1  0
 10 11  1  0
 11 12  2  0
 11 13  1  0
  2 14  1  0
 14 15  1  6
 15 16  1  0
 17 16  1  6
 17 18  1  0
 18 19  1  1
 19 20  1  1
 19 21  1  0
 21 22  1  1
 21 23  1  0
 23 24  1  1
 24 25  1  0
 25 26  1  1
 25 27  1  0
 27 28  1  0
 28 29  1  0
 29 30  1  6
 29 31  1  0
 31 32  1  6
 32 33  1  0
 33 34  1  0
 34 35  1  6
 34 14  1  0
 34 17  1  0
 31 18  1  0
 29 23  1  0
M  END
>  <MS_ID>  (115) 
MS0120

>  <SMILES>  (115) 
C[C@H](CCC(=O)NCCCC(=O)O)[C@H]1CC[C@H]2[C@@H]3[C@H](O)[C@H](O)[C@@H]4C[C@H](O)CC[C@]4(C)[C@H]3CC[C@]12C

>  <Structure_dimension>  (115) 
2D

$$$$
MS0121
     RDKit          2D

 33 36  0  0  0  0  0  0  0  0999 V2000
  -11.4048    3.4431    0.0000 C   0  0  0  0  0  0  0  0  0  0  0  0
  -10.6339    2.1564    0.0000 C   0  0  0  0  0  0  0  0  0  0  0  0
   -9.1341    2.1807    0.0000 C   0  0  0  0  0  0  0  0  0  0  0  0
   -8.3632    0.8939    0.0000 C   0  0  0  0  0  0  0  0  0  0  0  0
   -6.8634    0.9182    0.0000 C   0  0  0  0  0  0  0  0  0  0  0  0
   -6.0924   -0.3685    0.0000 C   0  0  0  0  0  0  0  0  0  0  0  0
   -4.5926   -0.3442    0.0000 C   0  0  0  0  0  0  0  0  0  0  0  0
   -3.8638    0.9668    0.0000 O   0  0  0  0  0  0  0  0  0  0  0  0
   -3.8217   -1.6309    0.0000 C   0  0  0  0  0  0  0  0  0  0  0  0
   -2.3219   -1.6066    0.0000 C   0  0  0  0  0  0  0  0  0  0  0  0
   -1.5509   -2.8934    0.0000 C   0  0  0  0  0  0  0  0  0  0  0  0
   -2.2798   -4.2044    0.0000 C   0  0  0  0  0  0  0  0  0  0  0  0
   -0.0511   -2.8691    0.0000 C   0  0  0  0  0  0  0  0  0  0  0  0
    0.8501   -4.0682    0.0000 C   0  0  0  0  0  0  0  0  0  0  0  0
    2.2690   -3.5816    0.0000 C   0  0  0  0  0  0  0  0  0  0  0  0
    2.2447   -2.0818    0.0000 C   0  0  0  0  0  0  0  0  0  0  0  0
    3.3430   -1.0602    0.0000 C   0  0  0  0  0  0  0  0  0  0  0  0
    4.7769   -1.5006    0.0000 C   0  0  0  0  0  0  0  0  0  0  0  0
    5.1125   -2.9625    0.0000 O   0  0  0  0  0  0  0  0  0  0  0  0
    5.8752   -0.4789    0.0000 C   0  0  0  0  0  0  0  0  0  0  0  0
    5.5396    0.9830    0.0000 C   0  0  0  0  0  0  0  0  0  0  0  0
    6.6380    2.0047    0.0000 C   0  0  0  0  0  0  0  0  0  0  0  0
    6.3024    3.4666    0.0000 C   0  0  0  0  0  0  0  0  0  0  0  0
    7.4007    4.4882    0.0000 O   0  0  0  0  0  0  0  0  0  0  0  0
    4.8685    3.9070    0.0000 C   0  0  0  0  0  0  0  0  0  0  0  0
    3.7701    2.8854    0.0000 C   0  0  0  0  0  0  0  0  0  0  0  0
    4.1057    1.4234    0.0000 C   0  0  0  0  0  0  0  0  0  0  0  0
    2.6718    1.8638    0.0000 C   0  0  0  0  0  0  0  0  0  0  0  0
    3.0074    0.4018    0.0000 C   0  0  0  0  0  0  0  0  0  0  0  0
    1.5735    0.8422    0.0000 C   0  0  0  0  0  0  0  0  0  0  0  0
    0.4752   -0.1795    0.0000 C   0  0  0  0  0  0  0  0  0  0  0  0
    0.8108   -1.6414    0.0000 C   0  0  0  0  0  0  0  0  0  0  0  0
   -0.6613   -1.3534    0.0000 C   0  0  0  0  0  0  0  0  0  0  0  0
  1  2  1  0
  2  3  1  0
  3  4  1  0
  4  5  1  0
  5  6  1  0
  6  7  1  0
  7  8  2  0
  7  9  1  0
  9 10  1  0
 10 11  1  0
 11 12  1  6
 11 13  1  0
 13 14  1  6
 14 15  1  0
 16 15  1  6
 16 17  1  0
 17 18  1  1
 18 19  1  1
 18 20  1  0
 21 20  1  1
 21 22  1  0
 22 23  1  0
 23 24  1  1
 23 25  1  0
 25 26  1  0
 26 27  1  0
 27 28  1  6
 27 29  1  0
 29 30  1  6
 30 31  1  0
 31 32  1  0
 32 33  1  6
 32 13  1  0
 32 16  1  0
 29 17  1  0
 27 21  1  0
M  END
>  <MS_ID>  (116) 
MS0121

>  <SMILES>  (116) 
CCCCCCC(=O)CC[C@@H](C)[C@H]1CC[C@H]2[C@@H]3[C@H](O)C[C@@H]4C[C@H](O)CC[C@]4(C)[C@H]3CC[C@]12C

>  <Structure_dimension>  (116) 
2D

$$$$
MS0122
     RDKit          2D

 31 34  0  0  0  0  0  0  0  0999 V2000
   -5.7175   -1.8176    0.0000 C   0  0  0  0  0  0  0  0  0  0  0  0
   -4.4708   -0.9835    0.0000 C   0  0  0  0  0  0  0  0  0  0  0  0
   -4.5698    0.5132    0.0000 C   0  0  0  0  0  0  0  0  0  0  0  0
   -5.9155    1.1758    0.0000 C   0  0  0  0  0  0  0  0  0  0  0  0
   -6.0145    2.6726    0.0000 C   0  0  0  0  0  0  0  0  0  0  0  0
   -4.7678    3.5067    0.0000 O   0  0  0  0  0  0  0  0  0  0  0  0
   -7.3602    3.3352    0.0000 O   0  0  0  0  0  0  0  0  0  0  0  0
   -3.1251   -1.6462    0.0000 C   0  0  0  0  0  0  0  0  0  0  0  0
   -2.8701   -3.1243    0.0000 C   0  0  0  0  0  0  0  0  0  0  0  0
   -1.3855   -3.3387    0.0000 C   0  0  0  0  0  0  0  0  0  0  0  0
   -0.7229   -1.9930    0.0000 C   0  0  0  0  0  0  0  0  0  0  0  0
    0.7205   -1.5850    0.0000 C   0  0  0  0  0  0  0  0  0  0  0  0
    1.7956   -2.6310    0.0000 C   0  0  0  0  0  0  0  0  0  0  0  0
    1.4272   -4.0851    0.0000 O   0  0  0  0  0  0  0  0  0  0  0  0
    3.2390   -2.2230    0.0000 C   0  0  0  0  0  0  0  0  0  0  0  0
    3.6074   -0.7689    0.0000 C   0  0  0  0  0  0  0  0  0  0  0  0
    5.0508   -0.3609    0.0000 C   0  0  0  0  0  0  0  0  0  0  0  0
    5.4192    1.0932    0.0000 C   0  0  0  0  0  0  0  0  0  0  0  0
    6.8626    1.5012    0.0000 C   0  0  0  0  0  0  0  0  0  0  0  0
    7.2310    2.9552    0.0000 O   0  0  0  0  0  0  0  0  0  0  0  0
    7.9377    0.4551    0.0000 O   0  0  0  0  0  0  0  0  0  0  0  0
    4.3441    2.1392    0.0000 C   0  0  0  0  0  0  0  0  0  0  0  0
    2.9007    1.7312    0.0000 C   0  0  0  0  0  0  0  0  0  0  0  0
    2.5323    0.2771    0.0000 C   0  0  0  0  0  0  0  0  0  0  0  0
    1.4572    1.3232    0.0000 C   0  0  0  0  0  0  0  0  0  0  0  0
    1.0889   -0.1309    0.0000 C   0  0  0  0  0  0  0  0  0  0  0  0
    0.0138    0.9151    0.0000 C   0  0  0  0  0  0  0  0  0  0  0  0
   -1.4296    0.5071    0.0000 C   0  0  0  0  0  0  0  0  0  0  0  0
   -2.5047    1.5532    0.0000 O   0  0  0  0  0  0  0  0  0  0  0  0
   -1.7980   -0.9470    0.0000 C   0  0  0  0  0  0  0  0  0  0  0  0
   -2.9765   -0.0190    0.0000 C   0  0  0  0  0  0  0  0  0  0  0  0
  2  1  1  6
  2  3  1  0
  3  4  1  0
  4  5  1  0
  5  6  2  0
  5  7  1  0
  2  8  1  0
  8  9  1  6
  9 10  1  0
 11 10  1  6
 11 12  1  0
 12 13  1  1
 13 14  1  6
 13 15  1  0
 16 15  1  1
 16 17  1  0
 17 18  1  0
 18 19  1  1
 19 20  2  0
 19 21  1  0
 18 22  1  0
 22 23  1  0
 23 24  1  0
 24 25  1  6
 24 26  1  0
 26 27  1  6
 27 28  1  0
 28 29  1  1
 28 30  1  0
 30 31  1  6
 30  8  1  0
 30 11  1  0
 26 12  1  0
 24 16  1  0
M  END
>  <MS_ID>  (117) 
MS0122

>  <SMILES>  (117) 
C[C@H](CCC(=O)O)[C@H]1CC[C@H]2[C@@H]3[C@@H](O)C[C@@H]4C[C@H](C(=O)O)CC[C@]4(C)[C@H]3C[C@H](O)[C@]12C

>  <Structure_dimension>  (117) 
2D

$$$$
MS0123
     RDKit          2D

 32 35  0  0  0  0  0  0  0  0999 V2000
   -3.0592   -3.7169    0.0000 C   0  0  0  0  0  0  0  0  0  0  0  0
   -2.1499   -2.5239    0.0000 C   0  0  0  0  0  0  0  0  0  0  0  0
   -2.7284   -1.1399    0.0000 C   0  0  0  0  0  0  0  0  0  0  0  0
   -4.2162   -0.9489    0.0000 C   0  0  0  0  0  0  0  0  0  0  0  0
   -4.7946    0.4350    0.0000 C   0  0  0  0  0  0  0  0  0  0  0  0
   -3.8853    1.6280    0.0000 O   0  0  0  0  0  0  0  0  0  0  0  0
   -6.2824    0.6260    0.0000 C   0  0  0  0  0  0  0  0  0  0  0  0
   -6.8609    2.0100    0.0000 C   0  0  0  0  0  0  0  0  0  0  0  0
   -8.3487    2.2010    0.0000 C   0  0  0  0  0  0  0  0  0  0  0  0
   -9.2580    1.0080    0.0000 O   0  0  0  0  0  0  0  0  0  0  0  0
   -8.9272    3.5850    0.0000 O   0  0  0  0  0  0  0  0  0  0  0  0
   -0.6621   -2.7149    0.0000 C   0  0  0  0  0  0  0  0  0  0  0  0
    0.0579   -4.0308    0.0000 C   0  0  0  0  0  0  0  0  0  0  0  0
    1.5319   -3.7527    0.0000 C   0  0  0  0  0  0  0  0  0  0  0  0
    1.7229   -2.2649    0.0000 C   0  0  0  0  0  0  0  0  0  0  0  0
    2.9563   -1.4114    0.0000 C   0  0  0  0  0  0  0  0  0  0  0  0
    4.3123   -2.0528    0.0000 C   0  0  0  0  0  0  0  0  0  0  0  0
    5.5457   -1.1992    0.0000 C   0  0  0  0  0  0  0  0  0  0  0  0
    5.4232    0.2958    0.0000 C   0  0  0  0  0  0  0  0  0  0  0  0
    6.6567    1.1494    0.0000 C   0  0  0  0  0  0  0  0  0  0  0  0
    6.5342    2.6444    0.0000 C   0  0  0  0  0  0  0  0  0  0  0  0
    7.7676    3.4980    0.0000 O   0  0  0  0  0  0  0  0  0  0  0  0
    5.1782    3.2858    0.0000 C   0  0  0  0  0  0  0  0  0  0  0  0
    3.9448    2.4322    0.0000 C   0  0  0  0  0  0  0  0  0  0  0  0
    4.0673    0.9372    0.0000 C   0  0  0  0  0  0  0  0  0  0  0  0
    2.7113    1.5786    0.0000 C   0  0  0  0  0  0  0  0  0  0  0  0
    2.8338    0.0836    0.0000 C   0  0  0  0  0  0  0  0  0  0  0  0
    1.4779    0.7250    0.0000 C   0  0  0  0  0  0  0  0  0  0  0  0
    0.2444   -0.1285    0.0000 C   0  0  0  0  0  0  0  0  0  0  0  0
   -1.1115    0.5129    0.0000 O   0  0  0  0  0  0  0  0  0  0  0  0
    0.3669   -1.6235    0.0000 C   0  0  0  0  0  0  0  0  0  0  0  0
   -1.0486   -1.1274    0.0000 C   0  0  0  0  0  0  0  0  0  0  0  0
  2  1  1  6
  2  3  1  0
  3  4  1  0
  4  5  1  0
  5  6  2  0
  5  7  1  0
  7  8  1  0
  8  9  1  0
  9 10  2  0
  9 11  1  0
  2 12  1  0
 12 13  1  6
 13 14  1  0
 15 14  1  6
 15 16  1  0
 16 17  1  1
 17 18  1  0
 19 18  1  1
 19 20  1  0
 20 21  1  0
 21 22  1  1
 21 23  1  0
 23 24  1  0
 24 25  1  0
 25 26  1  6
 25 27  1  0
 27 28  1  6
 28 29  1  0
 29 30  1  1
 29 31  1  0
 31 32  1  6
 31 12  1  0
 31 15  1  0
 27 16  1  0
 25 19  1  0
M  END
>  <MS_ID>  (118) 
MS0123

>  <SMILES>  (118) 
C[C@H](CCC(=O)CCC(=O)O)[C@H]1CC[C@H]2[C@@H]3CC[C@@H]4C[C@H](O)CC[C@]4(C)[C@H]3C[C@H](O)[C@]12C

>  <Structure_dimension>  (118) 
2D

$$$$
MS0124
     RDKit          2D

 38 42  0  0  0  0  0  0  0  0999 V2000
   -0.3003   -4.9163    0.0000 C   0  0  0  0  0  0  0  0  0  0  0  0
    0.2521   -3.5217    0.0000 C   0  0  0  0  0  0  0  0  0  0  0  0
   -0.6795   -2.3460    0.0000 C   0  0  0  0  0  0  0  0  0  0  0  0
   -2.1635   -2.5650    0.0000 C   0  0  0  0  0  0  0  0  0  0  0  0
   -3.0951   -1.3893    0.0000 C   0  0  0  0  0  0  0  0  0  0  0  0
   -2.5427    0.0053    0.0000 O   0  0  0  0  0  0  0  0  0  0  0  0
   -4.5790   -1.6083    0.0000 N   0  0  0  0  0  0  0  0  0  0  0  0
   -5.5106   -0.4327    0.0000 C   0  0  0  0  0  0  0  0  0  0  0  0
   -6.9945   -0.6516    0.0000 C   0  0  0  0  0  0  0  0  0  0  0  0
   -7.9261    0.5240    0.0000 C   0  0  0  0  0  0  0  0  0  0  0  0
   -7.3738    1.9186    0.0000 C   0  0  0  0  0  0  0  0  0  0  0  0
   -8.3054    3.0943    0.0000 C   0  0  0  0  0  0  0  0  0  0  0  0
   -9.7893    2.8753    0.0000 C   0  0  0  0  0  0  0  0  0  0  0  0
  -10.3416    1.4807    0.0000 C   0  0  0  0  0  0  0  0  0  0  0  0
   -9.4100    0.3051    0.0000 C   0  0  0  0  0  0  0  0  0  0  0  0
   -4.9582    0.9619    0.0000 C   0  0  0  0  0  0  0  0  0  0  0  0
   -3.4743    1.1809    0.0000 O   0  0  0  0  0  0  0  0  0  0  0  0
   -5.8898    2.1376    0.0000 O   0  0  0  0  0  0  0  0  0  0  0  0
    1.7360   -3.3027    0.0000 C   0  0  0  0  0  0  0  0  0  0  0  0
    2.7854   -4.3745    0.0000 C   0  0  0  0  0  0  0  0  0  0  0  0
    4.1290   -3.7077    0.0000 C   0  0  0  0  0  0  0  0  0  0  0  0
    3.9100   -2.2238    0.0000 C   0  0  0  0  0  0  0  0  0  0  0  0
    4.8663   -1.0681    0.0000 C   0  0  0  0  0  0  0  0  0  0  0  0
    6.3453   -1.3184    0.0000 C   0  0  0  0  0  0  0  0  0  0  0  0
    7.3015   -0.1628    0.0000 C   0  0  0  0  0  0  0  0  0  0  0  0
    6.7788    1.2432    0.0000 C   0  0  0  0  0  0  0  0  0  0  0  0
    7.7351    2.3989    0.0000 C   0  0  0  0  0  0  0  0  0  0  0  0
    7.2124    3.8048    0.0000 C   0  0  0  0  0  0  0  0  0  0  0  0
    8.1687    4.9605    0.0000 O   0  0  0  0  0  0  0  0  0  0  0  0
    5.7334    4.0552    0.0000 C   0  0  0  0  0  0  0  0  0  0  0  0
    4.7772    2.8995    0.0000 C   0  0  0  0  0  0  0  0  0  0  0  0
    5.2999    1.4935    0.0000 C   0  0  0  0  0  0  0  0  0  0  0  0
    3.8209    1.7438    0.0000 C   0  0  0  0  0  0  0  0  0  0  0  0
    4.3436    0.3379    0.0000 C   0  0  0  0  0  0  0  0  0  0  0  0
    2.8646    0.5882    0.0000 C   0  0  0  0  0  0  0  0  0  0  0  0
    1.9084   -0.5675    0.0000 C   0  0  0  0  0  0  0  0  0  0  0  0
    2.4311   -1.9735    0.0000 C   0  0  0  0  0  0  0  0  0  0  0  0
    0.9341   -1.8791    0.0000 C   0  0  0  0  0  0  0  0  0  0  0  0
  2  1  1  6
  2  3  1  0
  3  4  1  0
  4  5  1  0
  5  6  2  0
  5  7  1  0
  7  8  1  0
  8  9  1  1
  9 10  1  0
 10 11  2  0
 11 12  1  0
 12 13  2  0
 13 14  1  0
 14 15  2  0
  8 16  1  0
 16 17  2  0
 16 18  1  0
  2 19  1  0
 19 20  1  6
 20 21  1  0
 22 21  1  6
 22 23  1  0
 23 24  1  1
 24 25  1  0
 26 25  1  1
 26 27  1  0
 27 28  1  0
 28 29  1  1
 28 30  1  0
 30 31  1  0
 31 32  1  0
 32 33  1  6
 32 34  1  0
 34 35  1  6
 35 36  1  0
 36 37  1  0
 37 38  1  6
 15 10  1  0
 37 19  1  0
 37 22  1  0
 34 23  1  0
 32 26  1  0
M  END
>  <MS_ID>  (119) 
MS0124

>  <SMILES>  (119) 
C[C@H](CCC(=O)N[C@@H](Cc1ccccc1)C(=O)O)[C@H]1CC[C@H]2[C@@H]3CC[C@@H]4C[C@H](O)CC[C@]4(C)[C@H]3CC[C@]12C

>  <Structure_dimension>  (119) 
2D

$$$$
MS0125
     RDKit          2D

 34 37  0  0  0  0  0  0  0  0999 V2000
  -11.6679   -0.6435    0.0000 C   0  0  0  0  0  0  0  0  0  0  0  0
  -10.6199    0.4297    0.0000 O   0  0  0  0  0  0  0  0  0  0  0  0
   -9.1665    0.0586    0.0000 C   0  0  0  0  0  0  0  0  0  0  0  0
   -8.1185    1.1318    0.0000 C   0  0  0  0  0  0  0  0  0  0  0  0
   -6.6651    0.7608    0.0000 C   0  0  0  0  0  0  0  0  0  0  0  0
   -5.6171    1.8340    0.0000 N   0  0  0  0  0  0  0  0  0  0  0  0
   -6.0225    3.2782    0.0000 C   0  0  0  0  0  0  0  0  0  0  0  0
   -4.1637    1.4630    0.0000 C   0  0  0  0  0  0  0  0  0  0  0  0
   -3.1157    2.5361    0.0000 O   0  0  0  0  0  0  0  0  0  0  0  0
   -3.7583    0.0188    0.0000 C   0  0  0  0  0  0  0  0  0  0  0  0
   -2.3049   -0.3522    0.0000 C   0  0  0  0  0  0  0  0  0  0  0  0
   -1.8995   -1.7964    0.0000 C   0  0  0  0  0  0  0  0  0  0  0  0
   -2.9475   -2.8696    0.0000 C   0  0  0  0  0  0  0  0  0  0  0  0
   -0.4461   -2.1674    0.0000 C   0  0  0  0  0  0  0  0  0  0  0  0
    0.1080   -3.5613    0.0000 C   0  0  0  0  0  0  0  0  0  0  0  0
    1.6049   -3.4650    0.0000 C   0  0  0  0  0  0  0  0  0  0  0  0
    1.9759   -2.0116    0.0000 C   0  0  0  0  0  0  0  0  0  0  0  0
    3.3042   -1.3149    0.0000 C   0  0  0  0  0  0  0  0  0  0  0  0
    4.5718   -2.1168    0.0000 C   0  0  0  0  0  0  0  0  0  0  0  0
    4.5111   -3.6156    0.0000 O   0  0  0  0  0  0  0  0  0  0  0  0
    5.9002   -1.4200    0.0000 C   0  0  0  0  0  0  0  0  0  0  0  0
    5.9609    0.0787    0.0000 C   0  0  0  0  0  0  0  0  0  0  0  0
    7.2892    0.7755    0.0000 C   0  0  0  0  0  0  0  0  0  0  0  0
    7.3500    2.2743    0.0000 C   0  0  0  0  0  0  0  0  0  0  0  0
    8.6783    2.9711    0.0000 O   0  0  0  0  0  0  0  0  0  0  0  0
    6.0824    3.0763    0.0000 C   0  0  0  0  0  0  0  0  0  0  0  0
    4.7540    2.3795    0.0000 C   0  0  0  0  0  0  0  0  0  0  0  0
    4.6933    0.8807    0.0000 C   0  0  0  0  0  0  0  0  0  0  0  0
    3.4257    1.6827    0.0000 C   0  0  0  0  0  0  0  0  0  0  0  0
    3.3650    0.1839    0.0000 C   0  0  0  0  0  0  0  0  0  0  0  0
    2.0974    0.9859    0.0000 C   0  0  0  0  0  0  0  0  0  0  0  0
    0.7690    0.2891    0.0000 C   0  0  0  0  0  0  0  0  0  0  0  0
    0.7083   -1.2097    0.0000 C   0  0  0  0  0  0  0  0  0  0  0  0
   -0.6362   -0.5446    0.0000 C   0  0  0  0  0  0  0  0  0  0  0  0
  1  2  1  0
  2  3  1  0
  3  4  1  0
  4  5  1  0
  5  6  1  0
  6  7  1  0
  6  8  1  0
  8  9  2  0
  8 10  1  0
 10 11  1  0
 11 12  1  0
 12 13  1  6
 12 14  1  0
 14 15  1  6
 15 16  1  0
 17 16  1  6
 17 18  1  0
 18 19  1  1
 19 20  1  1
 19 21  1  0
 22 21  1  1
 22 23  1  0
 23 24  1  0
 24 25  1  1
 24 26  1  0
 26 27  1  0
 27 28  1  0
 28 29  1  6
 28 30  1  0
 30 31  1  6
 31 32  1  0
 32 33  1  0
 33 34  1  6
 33 14  1  0
 33 17  1  0
 30 18  1  0
 28 22  1  0
M  END
>  <MS_ID>  (120) 
MS0125

>  <SMILES>  (120) 
COCCCN(C)C(=O)CC[C@@H](C)[C@H]1CC[C@H]2[C@@H]3[C@H](O)C[C@@H]4C[C@H](O)CC[C@]4(C)[C@H]3CC[C@]12C

>  <Structure_dimension>  (120) 
2D

$$$$
MS0126
     RDKit          2D

 29 32  0  0  0  0  0  0  0  0999 V2000
   -5.0303   -2.1373    0.0000 C   0  0  0  0  0  0  0  0  0  0  0  0
   -3.8594   -1.1998    0.0000 C   0  0  0  0  0  0  0  0  0  0  0  0
   -4.0858    0.2830    0.0000 C   0  0  0  0  0  0  0  0  0  0  0  0
   -5.4831    0.8284    0.0000 C   0  0  0  0  0  0  0  0  0  0  0  0
   -5.7095    2.3112    0.0000 C   0  0  0  0  0  0  0  0  0  0  0  0
   -4.5386    3.2487    0.0000 O   0  0  0  0  0  0  0  0  0  0  0  0
   -7.1069    2.8565    0.0000 O   0  0  0  0  0  0  0  0  0  0  0  0
   -2.4620   -1.7451    0.0000 C   0  0  0  0  0  0  0  0  0  0  0  0
   -2.0818   -3.1961    0.0000 C   0  0  0  0  0  0  0  0  0  0  0  0
   -0.5844   -3.2830    0.0000 C   0  0  0  0  0  0  0  0  0  0  0  0
   -0.0390   -1.8856    0.0000 C   0  0  0  0  0  0  0  0  0  0  0  0
    1.3643   -1.3559    0.0000 C   0  0  0  0  0  0  0  0  0  0  0  0
    2.5248   -2.3063    0.0000 C   0  0  0  0  0  0  0  0  0  0  0  0
    2.2819   -3.7865    0.0000 O   0  0  0  0  0  0  0  0  0  0  0  0
    3.9281   -1.7765    0.0000 C   0  0  0  0  0  0  0  0  0  0  0  0
    4.1710   -0.2963    0.0000 C   0  0  0  0  0  0  0  0  0  0  0  0
    5.5743    0.2334    0.0000 C   0  0  0  0  0  0  0  0  0  0  0  0
    5.8172    1.7136    0.0000 C   0  0  0  0  0  0  0  0  0  0  0  0
    7.2205    2.2434    0.0000 O   0  0  0  0  0  0  0  0  0  0  0  0
    4.6568    2.6641    0.0000 C   0  0  0  0  0  0  0  0  0  0  0  0
    3.2534    2.1343    0.0000 C   0  0  0  0  0  0  0  0  0  0  0  0
    3.0105    0.6541    0.0000 C   0  0  0  0  0  0  0  0  0  0  0  0
    1.8501    1.6046    0.0000 C   0  0  0  0  0  0  0  0  0  0  0  0
    1.6072    0.1244    0.0000 C   0  0  0  0  0  0  0  0  0  0  0  0
    0.4467    1.0748    0.0000 C   0  0  0  0  0  0  0  0  0  0  0  0
   -0.9566    0.5450    0.0000 C   0  0  0  0  0  0  0  0  0  0  0  0
   -2.1170    1.4955    0.0000 O   0  0  0  0  0  0  0  0  0  0  0  0
   -1.1995   -0.9352    0.0000 C   0  0  0  0  0  0  0  0  0  0  0  0
   -2.4529   -0.1112    0.0000 C   0  0  0  0  0  0  0  0  0  0  0  0
  2  1  1  6
  2  3  1  0
  3  4  1  0
  4  5  1  0
  5  6  2  0
  5  7  1  0
  2  8  1  0
  8  9  1  6
  9 10  1  0
 11 10  1  6
 11 12  1  0
 12 13  1  1
 13 14  1  1
 13 15  1  0
 16 15  1  1
 16 17  1  0
 17 18  1  0
 18 19  1  6
 18 20  1  0
 20 21  1  0
 21 22  1  0
 22 23  1  6
 22 24  1  0
 24 25  1  6
 25 26  1  0
 26 27  2  0
 26 28  1  0
 28 29  1  6
 28  8  1  0
 28 11  1  0
 24 12  1  0
 22 16  1  0
M  END
>  <MS_ID>  (121) 
MS0126

>  <SMILES>  (121) 
C[C@H](CCC(=O)O)[C@H]1CC[C@H]2[C@@H]3[C@H](O)C[C@@H]4C[C@@H](O)CC[C@]4(C)[C@H]3CC(=O)[C@]12C

>  <Structure_dimension>  (121) 
2D

$$$$
MS0127
     RDKit          2D

 32 35  0  0  0  0  0  0  0  0999 V2000
   -6.3148   -1.8053    0.0000 C   0  0  0  0  0  0  0  0  0  0  0  0
   -5.0840   -0.9480    0.0000 C   0  0  0  0  0  0  0  0  0  0  0  0
   -5.2110    0.5466    0.0000 C   0  0  0  0  0  0  0  0  0  0  0  0
   -6.5688    1.1840    0.0000 C   0  0  0  0  0  0  0  0  0  0  0  0
   -6.6958    2.6786    0.0000 C   0  0  0  0  0  0  0  0  0  0  0  0
   -5.4650    3.5359    0.0000 O   0  0  0  0  0  0  0  0  0  0  0  0
   -8.0537    3.3159    0.0000 O   0  0  0  0  0  0  0  0  0  0  0  0
   -3.7261   -1.5853    0.0000 C   0  0  0  0  0  0  0  0  0  0  0  0
   -3.4436   -3.0584    0.0000 C   0  0  0  0  0  0  0  0  0  0  0  0
   -1.9552   -3.2450    0.0000 C   0  0  0  0  0  0  0  0  0  0  0  0
   -1.3179   -1.8871    0.0000 C   0  0  0  0  0  0  0  0  0  0  0  0
    0.1177   -1.4521    0.0000 C   0  0  0  0  0  0  0  0  0  0  0  0
    1.2121   -2.4779    0.0000 C   0  0  0  0  0  0  0  0  0  0  0  0
    0.8711   -3.9386    0.0000 O   0  0  0  0  0  0  0  0  0  0  0  0
    2.6477   -2.0429    0.0000 C   0  0  0  0  0  0  0  0  0  0  0  0
    2.9888   -0.5822    0.0000 C   0  0  0  0  0  0  0  0  0  0  0  0
    4.4243   -0.1472    0.0000 C   0  0  0  0  0  0  0  0  0  0  0  0
    4.7654    1.3135    0.0000 C   0  0  0  0  0  0  0  0  0  0  0  0
    6.2009    1.7485    0.0000 O   0  0  0  0  0  0  0  0  0  0  0  0
    7.2954    0.7227    0.0000 S   0  0  0  0  0  0  0  0  0  0  0  0
    6.2697   -0.3717    0.0000 O   0  0  0  0  0  0  0  0  0  0  0  0
    8.3211    1.8172    0.0000 O   0  0  0  0  0  0  0  0  0  0  0  0
    8.3899   -0.3030    0.0000 O   0  0  0  0  0  0  0  0  0  0  0  0
    3.6709    2.3392    0.0000 C   0  0  0  0  0  0  0  0  0  0  0  0
    2.2354    1.9043    0.0000 C   0  0  0  0  0  0  0  0  0  0  0  0
    1.8943    0.4436    0.0000 C   0  0  0  0  0  0  0  0  0  0  0  0
    0.7998    1.4693    0.0000 C   0  0  0  0  0  0  0  0  0  0  0  0
    0.4587    0.0086    0.0000 C   0  0  0  0  0  0  0  0  0  0  0  0
   -0.6357    1.0343    0.0000 C   0  0  0  0  0  0  0  0  0  0  0  0
   -2.0713    0.5993    0.0000 C   0  0  0  0  0  0  0  0  0  0  0  0
   -2.4123   -0.8614    0.0000 C   0  0  0  0  0  0  0  0  0  0  0  0
   -3.6080    0.0444    0.0000 C   0  0  0  0  0  0  0  0  0  0  0  0
  2  1  1  6
  2  3  1  0
  3  4  1  0
  4  5  1  0
  5  6  2  0
  5  7  1  0
  2  8  1  0
  8  9  1  6
  9 10  1  0
 11 10  1  6
 11 12  1  0
 12 13  1  1
 13 14  1  1
 13 15  1  0
 16 15  1  1
 16 17  1  0
 17 18  1  0
 18 19  1  6
 19 20  1  0
 20 21  2  0
 20 22  2  0
 20 23  1  0
 18 24  1  0
 24 25  1  0
 25 26  1  0
 26 27  1  6
 26 28  1  0
 28 29  1  6
 29 30  1  0
 30 31  1  0
 31 32  1  6
 31  8  1  0
 31 11  1  0
 28 12  1  0
 26 16  1  0
M  END
>  <MS_ID>  (122) 
MS0127

>  <SMILES>  (122) 
C[C@H](CCC(=O)O)[C@H]1CC[C@H]2[C@@H]3[C@H](O)C[C@@H]4C[C@@H](OS(=O)(=O)O)CC[C@]4(C)[C@H]3CC[C@]12C

>  <Structure_dimension>  (122) 
2D

$$$$
MS0128
     RDKit          2D

 38 42  0  0  0  0  0  0  0  0999 V2000
   -7.8947   -2.1037    0.0000 C   0  0  0  0  0  0  0  0  0  0  0  0
   -6.7144   -1.1780    0.0000 C   0  0  0  0  0  0  0  0  0  0  0  0
   -6.9259    0.3071    0.0000 C   0  0  0  0  0  0  0  0  0  0  0  0
   -8.3178    0.8664    0.0000 C   0  0  0  0  0  0  0  0  0  0  0  0
   -8.5293    2.3514    0.0000 C   0  0  0  0  0  0  0  0  0  0  0  0
   -7.3490    3.2771    0.0000 O   0  0  0  0  0  0  0  0  0  0  0  0
   -9.9211    2.9107    0.0000 O   0  0  0  0  0  0  0  0  0  0  0  0
   -5.3226   -1.7373    0.0000 C   0  0  0  0  0  0  0  0  0  0  0  0
   -4.9570   -3.1920    0.0000 C   0  0  0  0  0  0  0  0  0  0  0  0
   -3.4604   -3.2939    0.0000 C   0  0  0  0  0  0  0  0  0  0  0  0
   -2.9011   -1.9021    0.0000 C   0  0  0  0  0  0  0  0  0  0  0  0
   -1.4925   -1.3864    0.0000 C   0  0  0  0  0  0  0  0  0  0  0  0
   -0.3417   -2.3484    0.0000 C   0  0  0  0  0  0  0  0  0  0  0  0
    1.0669   -1.8328    0.0000 C   0  0  0  0  0  0  0  0  0  0  0  0
    1.3246   -0.3551    0.0000 C   0  0  0  0  0  0  0  0  0  0  0  0
    2.7332    0.1606    0.0000 C   0  0  0  0  0  0  0  0  0  0  0  0
    2.9909    1.6383    0.0000 C   0  0  0  0  0  0  0  0  0  0  0  0
    4.3995    2.1539    0.0000 O   0  0  0  0  0  0  0  0  0  0  0  0
    5.5503    1.1919    0.0000 C   0  0  0  0  0  0  0  0  0  0  0  0
    5.2926   -0.2858    0.0000 O   0  0  0  0  0  0  0  0  0  0  0  0
    6.4435   -1.2478    0.0000 C   0  0  0  0  0  0  0  0  0  0  0  0
    6.1858   -2.7255    0.0000 C   0  0  0  0  0  0  0  0  0  0  0  0
    4.7772   -3.2412    0.0000 O   0  0  0  0  0  0  0  0  0  0  0  0
    7.8521   -0.7322    0.0000 C   0  0  0  0  0  0  0  0  0  0  0  0
    9.0029   -1.6942    0.0000 O   0  0  0  0  0  0  0  0  0  0  0  0
    8.1098    0.7455    0.0000 C   0  0  0  0  0  0  0  0  0  0  0  0
    9.5184    1.2612    0.0000 O   0  0  0  0  0  0  0  0  0  0  0  0
    6.9589    1.7076    0.0000 C   0  0  0  0  0  0  0  0  0  0  0  0
    7.2166    3.1852    0.0000 O   0  0  0  0  0  0  0  0  0  0  0  0
    1.8400    2.6003    0.0000 C   0  0  0  0  0  0  0  0  0  0  0  0
    0.4315    2.0846    0.0000 C   0  0  0  0  0  0  0  0  0  0  0  0
    0.1737    0.6070    0.0000 C   0  0  0  0  0  0  0  0  0  0  0  0
   -0.9771    1.5690    0.0000 C   0  0  0  0  0  0  0  0  0  0  0  0
   -1.2348    0.0913    0.0000 C   0  0  0  0  0  0  0  0  0  0  0  0
   -2.3857    1.0533    0.0000 C   0  0  0  0  0  0  0  0  0  0  0  0
   -3.7943    0.5377    0.0000 C   0  0  0  0  0  0  0  0  0  0  0  0
   -4.0520   -0.9400    0.0000 C   0  0  0  0  0  0  0  0  0  0  0  0
   -5.2971   -0.1036    0.0000 C   0  0  0  0  0  0  0  0  0  0  0  0
  2  1  1  6
  2  3  1  0
  3  4  1  0
  4  5  1  0
  5  6  2  0
  5  7  1  0
  2  8  1  0
  8  9  1  6
  9 10  1  0
 11 10  1  6
 11 12  1  0
 12 13  1  1
 13 14  1  0
 15 14  1  1
 15 16  1  0
 16 17  1  0
 17 18  1  1
 19 18  1  1
 19 20  1  0
 20 21  1  0
 21 22  1  1
 22 23  1  0
 21 24  1  0
 24 25  1  6
 24 26  1  0
 26 27  1  1
 26 28  1  0
 28 29  1  6
 17 30  1  0
 30 31  1  0
 31 32  1  0
 32 33  1  6
 32 34  1  0
 34 35  1  6
 35 36  1  0
 36 37  1  0
 37 38  1  6
 37  8  1  0
 37 11  1  0
 34 12  1  0
 32 15  1  0
 28 19  1  0
M  END
>  <MS_ID>  (123) 
MS0128

>  <SMILES>  (123) 
C[C@H](CCC(=O)O)[C@H]1CC[C@H]2[C@@H]3CC[C@@H]4C[C@H](O[C@@H]5O[C@H](CO)[C@@H](O)[C@H](O)[C@H]5O)CC[C@]4(C)[C@H]3CC[C@]12C

>  <Structure_dimension>  (123) 
2D

$$$$
MS0129
     RDKit          2D

 31 34  0  0  0  0  0  0  0  0999 V2000
   -9.4306    3.6828    0.0000 C   0  0  0  0  0  0  0  0  0  0  0  0
   -8.8425    2.3029    0.0000 C   0  0  0  0  0  0  0  0  0  0  0  0
   -7.3534    2.1223    0.0000 C   0  0  0  0  0  0  0  0  0  0  0  0
   -6.7653    0.7424    0.0000 O   0  0  0  0  0  0  0  0  0  0  0  0
   -5.2762    0.5618    0.0000 C   0  0  0  0  0  0  0  0  0  0  0  0
   -4.3753    1.7610    0.0000 O   0  0  0  0  0  0  0  0  0  0  0  0
   -4.6881   -0.8181    0.0000 C   0  0  0  0  0  0  0  0  0  0  0  0
   -3.1991   -0.9988    0.0000 C   0  0  0  0  0  0  0  0  0  0  0  0
   -2.6109   -2.3787    0.0000 C   0  0  0  0  0  0  0  0  0  0  0  0
   -3.5119   -3.5779    0.0000 C   0  0  0  0  0  0  0  0  0  0  0  0
   -1.1219   -2.5593    0.0000 C   0  0  0  0  0  0  0  0  0  0  0  0
   -0.3927   -3.8702    0.0000 C   0  0  0  0  0  0  0  0  0  0  0  0
    1.0793   -3.5818    0.0000 C   0  0  0  0  0  0  0  0  0  0  0  0
    1.2599   -2.0927    0.0000 C   0  0  0  0  0  0  0  0  0  0  0  0
    2.4874   -1.2306    0.0000 C   0  0  0  0  0  0  0  0  0  0  0  0
    3.8478   -1.8625    0.0000 C   0  0  0  0  0  0  0  0  0  0  0  0
    3.9807   -3.3566    0.0000 O   0  0  0  0  0  0  0  0  0  0  0  0
    5.0753   -1.0003    0.0000 C   0  0  0  0  0  0  0  0  0  0  0  0
    4.9423    0.4938    0.0000 C   0  0  0  0  0  0  0  0  0  0  0  0
    6.1698    1.3559    0.0000 C   0  0  0  0  0  0  0  0  0  0  0  0
    6.0369    2.8500    0.0000 C   0  0  0  0  0  0  0  0  0  0  0  0
    7.2644    3.7122    0.0000 O   0  0  0  0  0  0  0  0  0  0  0  0
    4.6765    3.4820    0.0000 C   0  0  0  0  0  0  0  0  0  0  0  0
    3.4490    2.6198    0.0000 C   0  0  0  0  0  0  0  0  0  0  0  0
    3.5820    1.1257    0.0000 C   0  0  0  0  0  0  0  0  0  0  0  0
    2.2216    1.7576    0.0000 C   0  0  0  0  0  0  0  0  0  0  0  0
    2.3545    0.2635    0.0000 C   0  0  0  0  0  0  0  0  0  0  0  0
    0.9941    0.8955    0.0000 C   0  0  0  0  0  0  0  0  0  0  0  0
   -0.2334    0.0333    0.0000 C   0  0  0  0  0  0  0  0  0  0  0  0
   -0.1005   -1.4608    0.0000 C   0  0  0  0  0  0  0  0  0  0  0  0
   -1.5195   -0.9745    0.0000 C   0  0  0  0  0  0  0  0  0  0  0  0
  1  2  1  0
  2  3  1  0
  3  4  1  0
  4  5  1  0
  5  6  2  0
  5  7  1  0
  7  8  1  0
  8  9  1  0
  9 10  1  6
  9 11  1  0
 11 12  1  6
 12 13  1  0
 14 13  1  6
 14 15  1  0
 15 16  1  1
 16 17  1  1
 16 18  1  0
 19 18  1  1
 19 20  1  0
 20 21  1  0
 21 22  1  1
 21 23  1  0
 23 24  1  0
 24 25  1  0
 25 26  1  6
 25 27  1  0
 27 28  1  6
 28 29  1  0
 29 30  1  0
 30 31  1  6
 30 11  1  0
 30 14  1  0
 27 15  1  0
 25 19  1  0
M  END
>  <MS_ID>  (124) 
MS0129

>  <SMILES>  (124) 
CCCOC(=O)CC[C@@H](C)[C@H]1CC[C@H]2[C@@H]3[C@H](O)C[C@@H]4C[C@H](O)CC[C@]4(C)[C@H]3CC[C@]12C

>  <Structure_dimension>  (124) 
2D

$$$$
MS0130
     RDKit          2D

 31 34  0  0  0  0  0  0  0  0999 V2000
   -3.6979   -3.7343    0.0000 C   0  0  0  0  0  0  0  0  0  0  0  0
   -2.7512   -2.5708    0.0000 C   0  0  0  0  0  0  0  0  0  0  0  0
   -3.2855   -1.1692    0.0000 C   0  0  0  0  0  0  0  0  0  0  0  0
   -4.7665   -0.9311    0.0000 C   0  0  0  0  0  0  0  0  0  0  0  0
   -5.3009    0.4705    0.0000 C   0  0  0  0  0  0  0  0  0  0  0  0
   -6.7819    0.7085    0.0000 O   0  0  0  0  0  0  0  0  0  0  0  0
   -4.3542    1.6340    0.0000 O   0  0  0  0  0  0  0  0  0  0  0  0
   -4.8886    3.0356    0.0000 S   0  0  0  0  0  0  0  0  0  0  0  0
   -6.2902    2.5013    0.0000 O   0  0  0  0  0  0  0  0  0  0  0  0
   -3.4870    3.5700    0.0000 O   0  0  0  0  0  0  0  0  0  0  0  0
   -5.4229    4.4372    0.0000 O   0  0  0  0  0  0  0  0  0  0  0  0
   -1.2702   -2.8088    0.0000 C   0  0  0  0  0  0  0  0  0  0  0  0
   -0.5923   -4.1469    0.0000 C   0  0  0  0  0  0  0  0  0  0  0  0
    0.8898   -3.9156    0.0000 C   0  0  0  0  0  0  0  0  0  0  0  0
    1.1278   -2.4346    0.0000 C   0  0  0  0  0  0  0  0  0  0  0  0
    2.3877   -1.6206    0.0000 C   0  0  0  0  0  0  0  0  0  0  0  0
    3.7226   -2.3046    0.0000 C   0  0  0  0  0  0  0  0  0  0  0  0
    4.9825   -1.4905    0.0000 C   0  0  0  0  0  0  0  0  0  0  0  0
    4.9074    0.0076    0.0000 C   0  0  0  0  0  0  0  0  0  0  0  0
    6.1673    0.8217    0.0000 C   0  0  0  0  0  0  0  0  0  0  0  0
    6.0923    2.3198    0.0000 C   0  0  0  0  0  0  0  0  0  0  0  0
    7.3521    3.1338    0.0000 O   0  0  0  0  0  0  0  0  0  0  0  0
    4.7573    3.0038    0.0000 C   0  0  0  0  0  0  0  0  0  0  0  0
    3.4974    2.1897    0.0000 C   0  0  0  0  0  0  0  0  0  0  0  0
    3.5725    0.6916    0.0000 C   0  0  0  0  0  0  0  0  0  0  0  0
    2.2376    1.3757    0.0000 C   0  0  0  0  0  0  0  0  0  0  0  0
    2.3126   -0.1224    0.0000 C   0  0  0  0  0  0  0  0  0  0  0  0
    0.9777    0.5616    0.0000 C   0  0  0  0  0  0  0  0  0  0  0  0
   -0.2822   -0.2525    0.0000 C   0  0  0  0  0  0  0  0  0  0  0  0
   -0.2071   -1.7506    0.0000 C   0  0  0  0  0  0  0  0  0  0  0  0
   -1.6063   -1.2098    0.0000 C   0  0  0  0  0  0  0  0  0  0  0  0
  2  1  1  6
  2  3  1  0
  3  4  1  0
  4  5  1  0
  5  6  2  0
  5  7  1  0
  7  8  1  0
  8  9  2  0
  8 10  2  0
  8 11  1  0
  2 12  1  0
 12 13  1  6
 13 14  1  0
 15 14  1  6
 15 16  1  0
 16 17  1  1
 17 18  1  0
 19 18  1  1
 19 20  1  0
 20 21  1  0
 21 22  1  1
 21 23  1  0
 23 24  1  0
 24 25  1  0
 25 26  1  6
 25 27  1  0
 27 28  1  6
 28 29  1  0
 29 30  1  0
 30 31  1  6
 30 12  1  0
 30 15  1  0
 27 16  1  0
 25 19  1  0
M  END
>  <MS_ID>  (125) 
MS0130

>  <SMILES>  (125) 
C[C@H](CCC(=O)OS(=O)(=O)O)[C@H]1CC[C@H]2[C@@H]3CC[C@@H]4C[C@H](O)CC[C@]4(C)[C@H]3CC[C@]12C

>  <Structure_dimension>  (125) 
2D

$$$$
MS0131
     RDKit          2D

 33 36  0  0  0  0  0  0  0  0999 V2000
   -5.0246   -2.6773    0.0000 C   0  0  0  0  0  0  0  0  0  0  0  0
   -4.0826   -1.5100    0.0000 C   0  0  0  0  0  0  0  0  0  0  0  0
   -4.6226   -0.1105    0.0000 C   0  0  0  0  0  0  0  0  0  0  0  0
   -6.1045    0.1216    0.0000 C   0  0  0  0  0  0  0  0  0  0  0  0
   -6.6444    1.5210    0.0000 C   0  0  0  0  0  0  0  0  0  0  0  0
   -5.7025    2.6884    0.0000 O   0  0  0  0  0  0  0  0  0  0  0  0
   -8.1264    1.7531    0.0000 O   0  0  0  0  0  0  0  0  0  0  0  0
   -2.6007   -1.7421    0.0000 C   0  0  0  0  0  0  0  0  0  0  0  0
   -1.9174   -3.0774    0.0000 C   0  0  0  0  0  0  0  0  0  0  0  0
   -0.4363   -2.8402    0.0000 C   0  0  0  0  0  0  0  0  0  0  0  0
   -0.2042   -1.3583    0.0000 C   0  0  0  0  0  0  0  0  0  0  0  0
    1.0525   -0.5392    0.0000 C   0  0  0  0  0  0  0  0  0  0  0  0
    2.3901   -1.2179    0.0000 C   0  0  0  0  0  0  0  0  0  0  0  0
    2.4712   -2.7157    0.0000 O   0  0  0  0  0  0  0  0  0  0  0  0
    3.8089   -3.3944    0.0000 S   0  0  0  0  0  0  0  0  0  0  0  0
    4.4876   -2.0567    0.0000 O   0  0  0  0  0  0  0  0  0  0  0  0
    3.1302   -4.7321    0.0000 O   0  0  0  0  0  0  0  0  0  0  0  0
    5.1465   -4.0731    0.0000 O   0  0  0  0  0  0  0  0  0  0  0  0
    3.6467   -0.3988    0.0000 C   0  0  0  0  0  0  0  0  0  0  0  0
    3.5657    1.0990    0.0000 C   0  0  0  0  0  0  0  0  0  0  0  0
    4.8223    1.9182    0.0000 C   0  0  0  0  0  0  0  0  0  0  0  0
    4.7412    3.4160    0.0000 C   0  0  0  0  0  0  0  0  0  0  0  0
    5.9978    4.2351    0.0000 O   0  0  0  0  0  0  0  0  0  0  0  0
    3.4035    4.0947    0.0000 C   0  0  0  0  0  0  0  0  0  0  0  0
    2.1469    3.2755    0.0000 C   0  0  0  0  0  0  0  0  0  0  0  0
    2.2280    1.7777    0.0000 C   0  0  0  0  0  0  0  0  0  0  0  0
    0.8903    2.4564    0.0000 C   0  0  0  0  0  0  0  0  0  0  0  0
    0.9714    0.9586    0.0000 C   0  0  0  0  0  0  0  0  0  0  0  0
   -0.3663    1.6373    0.0000 C   0  0  0  0  0  0  0  0  0  0  0  0
   -1.6229    0.8182    0.0000 C   0  0  0  0  0  0  0  0  0  0  0  0
   -2.9606    1.4969    0.0000 O   0  0  0  0  0  0  0  0  0  0  0  0
   -1.5418   -0.6796    0.0000 C   0  0  0  0  0  0  0  0  0  0  0  0
   -2.9431   -0.1445    0.0000 C   0  0  0  0  0  0  0  0  0  0  0  0
  2  1  1  6
  2  3  1  0
  3  4  1  0
  4  5  1  0
  5  6  2  0
  5  7  1  0
  2  8  1  0
  8  9  1  6
  9 10  1  0
 11 10  1  6
 11 12  1  0
 12 13  1  1
 13 14  1  1
 14 15  1  0
 15 16  2  0
 15 17  2  0
 15 18  1  0
 13 19  1  0
 20 19  1  1
 20 21  1  0
 21 22  1  0
 22 23  1  1
 22 24  1  0
 24 25  1  0
 25 26  1  0
 26 27  1  6
 26 28  1  0
 28 29  1  6
 29 30  1  0
 30 31  1  6
 30 32  1  0
 32 33  1  6
 32  8  1  0
 32 11  1  0
 28 12  1  0
 26 20  1  0
M  END
>  <MS_ID>  (126) 
MS0131

>  <SMILES>  (126) 
C[C@H](CCC(=O)O)[C@H]1CC[C@H]2[C@@H]3[C@H](OS(=O)(=O)O)C[C@@H]4C[C@H](O)CC[C@]4(C)[C@H]3C[C@@H](O)[C@]12C

>  <Structure_dimension>  (126) 
2D

$$$$
MS0132
     RDKit          2D

 32 35  0  0  0  0  0  0  0  0999 V2000
   -3.3600   -3.6470    0.0000 C   0  0  0  0  0  0  0  0  0  0  0  0
   -2.4640   -2.4440    0.0000 C   0  0  0  0  0  0  0  0  0  0  0  0
   -3.0579   -1.0666    0.0000 C   0  0  0  0  0  0  0  0  0  0  0  0
   -4.5477   -0.8922    0.0000 C   0  0  0  0  0  0  0  0  0  0  0  0
   -5.1416    0.4852    0.0000 C   0  0  0  0  0  0  0  0  0  0  0  0
   -4.2456    1.6883    0.0000 O   0  0  0  0  0  0  0  0  0  0  0  0
   -6.6314    0.6596    0.0000 N   0  0  0  0  0  0  0  0  0  0  0  0
   -7.2253    2.0371    0.0000 S   0  0  0  0  0  0  0  0  0  0  0  0
   -8.6027    1.4432    0.0000 O   0  0  0  0  0  0  0  0  0  0  0  0
   -5.8479    2.6309    0.0000 O   0  0  0  0  0  0  0  0  0  0  0  0
   -7.8192    3.4145    0.0000 O   0  0  0  0  0  0  0  0  0  0  0  0
   -0.9742   -2.6184    0.0000 C   0  0  0  0  0  0  0  0  0  0  0  0
   -0.2396   -3.9262    0.0000 C   0  0  0  0  0  0  0  0  0  0  0  0
    1.2312   -3.6317    0.0000 C   0  0  0  0  0  0  0  0  0  0  0  0
    1.4056   -2.1419    0.0000 C   0  0  0  0  0  0  0  0  0  0  0  0
    2.6295   -1.2746    0.0000 C   0  0  0  0  0  0  0  0  0  0  0  0
    3.9925   -1.9008    0.0000 C   0  0  0  0  0  0  0  0  0  0  0  0
    4.1317   -3.3944    0.0000 O   0  0  0  0  0  0  0  0  0  0  0  0
    5.2163   -1.0336    0.0000 C   0  0  0  0  0  0  0  0  0  0  0  0
    5.0772    0.4600    0.0000 C   0  0  0  0  0  0  0  0  0  0  0  0
    6.3010    1.3273    0.0000 C   0  0  0  0  0  0  0  0  0  0  0  0
    6.1619    2.8208    0.0000 C   0  0  0  0  0  0  0  0  0  0  0  0
    7.3857    3.6881    0.0000 O   0  0  0  0  0  0  0  0  0  0  0  0
    4.7989    3.4470    0.0000 C   0  0  0  0  0  0  0  0  0  0  0  0
    3.5750    2.5798    0.0000 C   0  0  0  0  0  0  0  0  0  0  0  0
    3.7142    1.0862    0.0000 C   0  0  0  0  0  0  0  0  0  0  0  0
    2.3511    1.7125    0.0000 C   0  0  0  0  0  0  0  0  0  0  0  0
    2.4903    0.2189    0.0000 C   0  0  0  0  0  0  0  0  0  0  0  0
    1.1273    0.8452    0.0000 C   0  0  0  0  0  0  0  0  0  0  0  0
   -0.0966   -0.0221    0.0000 C   0  0  0  0  0  0  0  0  0  0  0  0
    0.0426   -1.5156    0.0000 C   0  0  0  0  0  0  0  0  0  0  0  0
   -1.3784   -1.0353    0.0000 C   0  0  0  0  0  0  0  0  0  0  0  0
  2  1  1  6
  2  3  1  0
  3  4  1  0
  4  5  1  0
  5  6  2  0
  5  7  1  0
  7  8  1  0
  8  9  2  0
  8 10  2  0
  8 11  1  0
  2 12  1  0
 12 13  1  6
 13 14  1  0
 15 14  1  6
 15 16  1  0
 16 17  1  1
 17 18  1  1
 17 19  1  0
 20 19  1  1
 20 21  1  0
 21 22  1  0
 22 23  1  1
 22 24  1  0
 24 25  1  0
 25 26  1  0
 26 27  1  6
 26 28  1  0
 28 29  1  6
 29 30  1  0
 30 31  1  0
 31 32  1  6
 31 12  1  0
 31 15  1  0
 28 16  1  0
 26 20  1  0
M  END
>  <MS_ID>  (127) 
MS0132

>  <SMILES>  (127) 
C[C@H](CCC(=O)NS(=O)(=O)O)[C@H]1CC[C@H]2[C@@H]3[C@H](O)C[C@@H]4C[C@H](O)CC[C@]4(C)[C@H]3CC[C@]12C

>  <Structure_dimension>  (127) 
2D

$$$$
MS0133
     RDKit          2D

 34 37  0  0  0  0  0  0  0  0999 V2000
   -5.6108   -2.4997    0.0000 C   0  0  0  0  0  0  0  0  0  0  0  0
   -4.4564   -1.5419    0.0000 C   0  0  0  0  0  0  0  0  0  0  0  0
   -4.7086   -0.0633    0.0000 C   0  0  0  0  0  0  0  0  0  0  0  0
   -6.1153    0.4576    0.0000 C   0  0  0  0  0  0  0  0  0  0  0  0
   -6.3675    1.9362    0.0000 C   0  0  0  0  0  0  0  0  0  0  0  0
   -5.2131    2.8940    0.0000 O   0  0  0  0  0  0  0  0  0  0  0  0
   -7.7742    2.4571    0.0000 N   0  0  0  0  0  0  0  0  0  0  0  0
   -8.0264    3.9358    0.0000 C   0  0  0  0  0  0  0  0  0  0  0  0
   -8.9286    1.4994    0.0000 C   0  0  0  0  0  0  0  0  0  0  0  0
   -3.0498   -2.0628    0.0000 C   0  0  0  0  0  0  0  0  0  0  0  0
   -2.6443   -3.5070    0.0000 C   0  0  0  0  0  0  0  0  0  0  0  0
   -1.1456   -3.5677    0.0000 C   0  0  0  0  0  0  0  0  0  0  0  0
   -0.6247   -2.1611    0.0000 C   0  0  0  0  0  0  0  0  0  0  0  0
    0.7692   -1.6069    0.0000 C   0  0  0  0  0  0  0  0  0  0  0  0
    1.9460   -2.5370    0.0000 C   0  0  0  0  0  0  0  0  0  0  0  0
    1.7290   -4.0212    0.0000 O   0  0  0  0  0  0  0  0  0  0  0  0
    3.3399   -1.9829    0.0000 C   0  0  0  0  0  0  0  0  0  0  0  0
    3.5570   -0.4986    0.0000 C   0  0  0  0  0  0  0  0  0  0  0  0
    4.9509    0.0555    0.0000 C   0  0  0  0  0  0  0  0  0  0  0  0
    5.1679    1.5397    0.0000 C   0  0  0  0  0  0  0  0  0  0  0  0
    6.5618    2.0938    0.0000 O   0  0  0  0  0  0  0  0  0  0  0  0
    7.7386    1.1638    0.0000 S   0  0  0  0  0  0  0  0  0  0  0  0
    6.8086   -0.0131    0.0000 O   0  0  0  0  0  0  0  0  0  0  0  0
    8.6687    2.3406    0.0000 O   0  0  0  0  0  0  0  0  0  0  0  0
    8.9155    0.2337    0.0000 O   0  0  0  0  0  0  0  0  0  0  0  0
    3.9911    2.4698    0.0000 C   0  0  0  0  0  0  0  0  0  0  0  0
    2.5972    1.9156    0.0000 C   0  0  0  0  0  0  0  0  0  0  0  0
    2.3801    0.4314    0.0000 C   0  0  0  0  0  0  0  0  0  0  0  0
    1.2033    1.3615    0.0000 C   0  0  0  0  0  0  0  0  0  0  0  0
    0.9862   -0.1227    0.0000 C   0  0  0  0  0  0  0  0  0  0  0  0
   -0.1906    0.8074    0.0000 C   0  0  0  0  0  0  0  0  0  0  0  0
   -1.5845    0.2532    0.0000 C   0  0  0  0  0  0  0  0  0  0  0  0
   -1.8015   -1.2310    0.0000 C   0  0  0  0  0  0  0  0  0  0  0  0
   -3.0692   -0.4290    0.0000 C   0  0  0  0  0  0  0  0  0  0  0  0
  2  1  1  6
  2  3  1  0
  3  4  1  0
  4  5  1  0
  5  6  2  0
  5  7  1  0
  7  8  1  0
  7  9  1  0
  2 10  1  0
 10 11  1  6
 11 12  1  0
 13 12  1  6
 13 14  1  0
 14 15  1  1
 15 16  1  1
 15 17  1  0
 18 17  1  1
 18 19  1  0
 19 20  1  0
 20 21  1  1
 21 22  1  0
 22 23  2  0
 22 24  2  0
 22 25  1  0
 20 26  1  0
 26 27  1  0
 27 28  1  0
 28 29  1  6
 28 30  1  0
 30 31  1  6
 31 32  1  0
 32 33  1  0
 33 34  1  6
 33 10  1  0
 33 13  1  0
 30 14  1  0
 28 18  1  0
M  END
>  <MS_ID>  (128) 
MS0133

>  <SMILES>  (128) 
C[C@H](CCC(=O)N(C)C)[C@H]1CC[C@H]2[C@@H]3[C@H](O)C[C@@H]4C[C@H](OS(=O)(=O)O)CC[C@]4(C)[C@H]3CC[C@]12C

>  <Structure_dimension>  (128) 
2D

$$$$
MS0135
     RDKit          2D

 32 35  0  0  0  0  0  0  0  0999 V2000
  -10.8107    3.0070    0.0000 C   0  0  0  0  0  0  0  0  0  0  0  0
   -9.3127    2.9291    0.0000 C   0  0  0  0  0  0  0  0  0  0  0  0
   -8.6311    1.5929    0.0000 C   0  0  0  0  0  0  0  0  0  0  0  0
   -7.1332    1.5150    0.0000 C   0  0  0  0  0  0  0  0  0  0  0  0
   -6.4516    0.1788    0.0000 C   0  0  0  0  0  0  0  0  0  0  0  0
   -4.9536    0.1009    0.0000 C   0  0  0  0  0  0  0  0  0  0  0  0
   -4.1372    1.3592    0.0000 O   0  0  0  0  0  0  0  0  0  0  0  0
   -4.2721   -1.2353    0.0000 C   0  0  0  0  0  0  0  0  0  0  0  0
   -2.7741   -1.3132    0.0000 C   0  0  0  0  0  0  0  0  0  0  0  0
   -2.0926   -2.6494    0.0000 C   0  0  0  0  0  0  0  0  0  0  0  0
   -2.9090   -3.9078    0.0000 C   0  0  0  0  0  0  0  0  0  0  0  0
   -0.5946   -2.7273    0.0000 C   0  0  0  0  0  0  0  0  0  0  0  0
    0.2229   -3.9850    0.0000 C   0  0  0  0  0  0  0  0  0  0  0  0
    1.6716   -3.5962    0.0000 C   0  0  0  0  0  0  0  0  0  0  0  0
    1.7495   -2.0982    0.0000 C   0  0  0  0  0  0  0  0  0  0  0  0
    2.9148   -1.1537    0.0000 C   0  0  0  0  0  0  0  0  0  0  0  0
    4.3154   -1.6907    0.0000 C   0  0  0  0  0  0  0  0  0  0  0  0
    4.5507   -3.1721    0.0000 O   0  0  0  0  0  0  0  0  0  0  0  0
    5.4807   -0.7462    0.0000 C   0  0  0  0  0  0  0  0  0  0  0  0
    5.2455    0.7352    0.0000 C   0  0  0  0  0  0  0  0  0  0  0  0
    6.4108    1.6797    0.0000 C   0  0  0  0  0  0  0  0  0  0  0  0
    6.1755    3.1611    0.0000 C   0  0  0  0  0  0  0  0  0  0  0  0
    7.3408    4.1056    0.0000 O   0  0  0  0  0  0  0  0  0  0  0  0
    4.7749    3.6981    0.0000 C   0  0  0  0  0  0  0  0  0  0  0  0
    3.6096    2.7536    0.0000 C   0  0  0  0  0  0  0  0  0  0  0  0
    3.8449    1.2722    0.0000 C   0  0  0  0  0  0  0  0  0  0  0  0
    2.4443    1.8091    0.0000 C   0  0  0  0  0  0  0  0  0  0  0  0
    2.6795    0.3277    0.0000 C   0  0  0  0  0  0  0  0  0  0  0  0
    1.2789    0.8647    0.0000 C   0  0  0  0  0  0  0  0  0  0  0  0
    0.1136   -0.0798    0.0000 C   0  0  0  0  0  0  0  0  0  0  0  0
    0.3489   -1.5612    0.0000 C   0  0  0  0  0  0  0  0  0  0  0  0
   -1.1002   -1.1736    0.0000 C   0  0  0  0  0  0  0  0  0  0  0  0
  1  2  1  0
  2  3  1  0
  3  4  1  0
  4  5  1  0
  5  6  1  0
  6  7  2  0
  6  8  1  0
  8  9  1  0
  9 10  1  0
 10 11  1  6
 10 12  1  0
 12 13  1  6
 13 14  1  0
 15 14  1  6
 15 16  1  0
 16 17  1  1
 17 18  1  1
 17 19  1  0
 20 19  1  1
 20 21  1  0
 21 22  1  0
 22 23  1  1
 22 24  1  0
 24 25  1  0
 25 26  1  0
 26 27  1  6
 26 28  1  0
 28 29  1  6
 29 30  1  0
 30 31  1  0
 31 32  1  6
 31 12  1  0
 31 15  1  0
 28 16  1  0
 26 20  1  0
M  END
>  <MS_ID>  (129) 
MS0135

>  <SMILES>  (129) 
CCCCCC(=O)CC[C@@H](C)[C@H]1CC[C@H]2[C@@H]3[C@H](O)C[C@@H]4C[C@H](O)CC[C@]4(C)[C@H]3CC[C@]12C

>  <Structure_dimension>  (129) 
2D

$$$$
MS0136
     RDKit          2D

 30 33  0  0  0  0  0  0  0  0999 V2000
   -4.5685   -2.6908    0.0000 C   0  0  0  0  0  0  0  0  0  0  0  0
   -3.4838   -1.6548    0.0000 C   0  0  0  0  0  0  0  0  0  0  0  0
   -3.8388   -0.1974    0.0000 C   0  0  0  0  0  0  0  0  0  0  0  0
   -5.2784    0.2240    0.0000 C   0  0  0  0  0  0  0  0  0  0  0  0
   -5.6333    1.6814    0.0000 C   0  0  0  0  0  0  0  0  0  0  0  0
   -4.5486    2.7174    0.0000 O   0  0  0  0  0  0  0  0  0  0  0  0
   -7.0729    2.1027    0.0000 C   0  0  0  0  0  0  0  0  0  0  0  0
   -7.4279    3.5601    0.0000 O   0  0  0  0  0  0  0  0  0  0  0  0
   -2.0442   -2.0761    0.0000 C   0  0  0  0  0  0  0  0  0  0  0  0
   -1.5389   -3.4884    0.0000 C   0  0  0  0  0  0  0  0  0  0  0  0
   -0.0395   -3.4442    0.0000 C   0  0  0  0  0  0  0  0  0  0  0  0
    0.3818   -2.0046    0.0000 C   0  0  0  0  0  0  0  0  0  0  0  0
    1.7336   -1.3544    0.0000 C   0  0  0  0  0  0  0  0  0  0  0  0
    2.9725   -2.1999    0.0000 C   0  0  0  0  0  0  0  0  0  0  0  0
    2.8597   -3.6957    0.0000 O   0  0  0  0  0  0  0  0  0  0  0  0
    4.3243   -1.5497    0.0000 C   0  0  0  0  0  0  0  0  0  0  0  0
    4.4371   -0.0540    0.0000 C   0  0  0  0  0  0  0  0  0  0  0  0
    5.7888    0.5962    0.0000 C   0  0  0  0  0  0  0  0  0  0  0  0
    5.9016    2.0920    0.0000 C   0  0  0  0  0  0  0  0  0  0  0  0
    7.2534    2.7422    0.0000 O   0  0  0  0  0  0  0  0  0  0  0  0
    4.6627    2.9375    0.0000 C   0  0  0  0  0  0  0  0  0  0  0  0
    3.3109    2.2873    0.0000 C   0  0  0  0  0  0  0  0  0  0  0  0
    3.1981    0.7916    0.0000 C   0  0  0  0  0  0  0  0  0  0  0  0
    1.9591    1.6371    0.0000 C   0  0  0  0  0  0  0  0  0  0  0  0
    1.8464    0.1414    0.0000 C   0  0  0  0  0  0  0  0  0  0  0  0
    0.6074    0.9869    0.0000 C   0  0  0  0  0  0  0  0  0  0  0  0
   -0.7444    0.3367    0.0000 C   0  0  0  0  0  0  0  0  0  0  0  0
   -1.9833    1.1823    0.0000 O   0  0  0  0  0  0  0  0  0  0  0  0
   -0.8572   -1.1590    0.0000 C   0  0  0  0  0  0  0  0  0  0  0  0
   -2.1777   -0.4476    0.0000 C   0  0  0  0  0  0  0  0  0  0  0  0
  2  1  1  6
  2  3  1  0
  3  4  1  0
  4  5  1  0
  5  6  2  0
  5  7  1  0
  7  8  1  0
  2  9  1  0
  9 10  1  6
 10 11  1  0
 12 11  1  6
 12 13  1  0
 13 14  1  1
 14 15  1  1
 14 16  1  0
 17 16  1  1
 17 18  1  0
 18 19  1  0
 19 20  1  1
 19 21  1  0
 21 22  1  0
 22 23  1  0
 23 24  1  6
 23 25  1  0
 25 26  1  6
 26 27  1  0
 27 28  2  0
 27 29  1  0
 29 30  1  6
 29  9  1  0
 29 12  1  0
 25 13  1  0
 23 17  1  0
M  END
>  <MS_ID>  (130) 
MS0136

>  <SMILES>  (130) 
C[C@H](CCC(=O)CO)[C@H]1CC[C@H]2[C@@H]3[C@H](O)C[C@@H]4C[C@H](O)CC[C@]4(C)[C@H]3CC(=O)[C@]12C

>  <Structure_dimension>  (130) 
2D

$$$$
MS0137
     RDKit          2D

 31 34  0  0  0  0  0  0  0  0999 V2000
   -5.7175   -1.8176    0.0000 C   0  0  0  0  0  0  0  0  0  0  0  0
   -4.4708   -0.9835    0.0000 C   0  0  0  0  0  0  0  0  0  0  0  0
   -4.5698    0.5132    0.0000 C   0  0  0  0  0  0  0  0  0  0  0  0
   -5.9155    1.1758    0.0000 C   0  0  0  0  0  0  0  0  0  0  0  0
   -6.0145    2.6726    0.0000 C   0  0  0  0  0  0  0  0  0  0  0  0
   -4.7678    3.5067    0.0000 O   0  0  0  0  0  0  0  0  0  0  0  0
   -7.3602    3.3352    0.0000 O   0  0  0  0  0  0  0  0  0  0  0  0
   -3.1251   -1.6462    0.0000 C   0  0  0  0  0  0  0  0  0  0  0  0
   -2.8701   -3.1243    0.0000 C   0  0  0  0  0  0  0  0  0  0  0  0
   -1.3855   -3.3387    0.0000 C   0  0  0  0  0  0  0  0  0  0  0  0
   -0.7229   -1.9930    0.0000 C   0  0  0  0  0  0  0  0  0  0  0  0
    0.7205   -1.5850    0.0000 C   0  0  0  0  0  0  0  0  0  0  0  0
    1.7956   -2.6310    0.0000 C   0  0  0  0  0  0  0  0  0  0  0  0
    1.4272   -4.0851    0.0000 O   0  0  0  0  0  0  0  0  0  0  0  0
    3.2390   -2.2230    0.0000 C   0  0  0  0  0  0  0  0  0  0  0  0
    3.6074   -0.7689    0.0000 C   0  0  0  0  0  0  0  0  0  0  0  0
    5.0508   -0.3609    0.0000 C   0  0  0  0  0  0  0  0  0  0  0  0
    5.4192    1.0932    0.0000 C   0  0  0  0  0  0  0  0  0  0  0  0
    6.8626    1.5012    0.0000 C   0  0  0  0  0  0  0  0  0  0  0  0
    7.2310    2.9552    0.0000 O   0  0  0  0  0  0  0  0  0  0  0  0
    7.9377    0.4551    0.0000 O   0  0  0  0  0  0  0  0  0  0  0  0
    4.3441    2.1392    0.0000 C   0  0  0  0  0  0  0  0  0  0  0  0
    2.9007    1.7312    0.0000 C   0  0  0  0  0  0  0  0  0  0  0  0
    2.5323    0.2771    0.0000 C   0  0  0  0  0  0  0  0  0  0  0  0
    1.4572    1.3232    0.0000 C   0  0  0  0  0  0  0  0  0  0  0  0
    1.0889   -0.1309    0.0000 C   0  0  0  0  0  0  0  0  0  0  0  0
    0.0138    0.9151    0.0000 C   0  0  0  0  0  0  0  0  0  0  0  0
   -1.4296    0.5071    0.0000 C   0  0  0  0  0  0  0  0  0  0  0  0
   -2.5047    1.5532    0.0000 O   0  0  0  0  0  0  0  0  0  0  0  0
   -1.7980   -0.9470    0.0000 C   0  0  0  0  0  0  0  0  0  0  0  0
   -2.9765   -0.0190    0.0000 C   0  0  0  0  0  0  0  0  0  0  0  0
  2  1  1  6
  2  3  1  0
  3  4  1  0
  4  5  1  0
  5  6  2  0
  5  7  1  0
  2  8  1  0
  8  9  1  6
  9 10  1  0
 11 10  1  6
 11 12  1  0
 12 13  1  1
 13 14  1  1
 13 15  1  0
 16 15  1  1
 16 17  1  0
 17 18  1  0
 18 19  1  1
 19 20  2  0
 19 21  1  0
 18 22  1  0
 22 23  1  0
 23 24  1  0
 24 25  1  6
 24 26  1  0
 26 27  1  6
 27 28  1  0
 28 29  1  6
 28 30  1  0
 30 31  1  6
 30  8  1  0
 30 11  1  0
 26 12  1  0
 24 16  1  0
M  END
>  <MS_ID>  (131) 
MS0137

>  <SMILES>  (131) 
C[C@H](CCC(=O)O)[C@H]1CC[C@H]2[C@@H]3[C@H](O)C[C@@H]4C[C@H](C(=O)O)CC[C@]4(C)[C@H]3C[C@@H](O)[C@]12C

>  <Structure_dimension>  (131) 
2D

$$$$
MS0138
     RDKit          2D

 41 46  0  0  0  0  0  0  0  0999 V2000
    0.5910   -4.9006    0.0000 C   0  0  0  0  0  0  0  0  0  0  0  0
    1.1430   -3.5059    0.0000 C   0  0  0  0  0  0  0  0  0  0  0  0
    0.2112   -2.3305    0.0000 C   0  0  0  0  0  0  0  0  0  0  0  0
   -1.2727   -2.5498    0.0000 C   0  0  0  0  0  0  0  0  0  0  0  0
   -2.2046   -1.3743    0.0000 C   0  0  0  0  0  0  0  0  0  0  0  0
   -1.6526    0.0204    0.0000 O   0  0  0  0  0  0  0  0  0  0  0  0
   -3.6885   -1.5936    0.0000 N   0  0  0  0  0  0  0  0  0  0  0  0
   -4.6203   -0.4182    0.0000 C   0  0  0  0  0  0  0  0  0  0  0  0
   -6.1042   -0.6375    0.0000 C   0  0  0  0  0  0  0  0  0  0  0  0
   -7.0361    0.5379    0.0000 C   0  0  0  0  0  0  0  0  0  0  0  0
   -6.6328    1.9827    0.0000 C   0  0  0  0  0  0  0  0  0  0  0  0
   -7.8823    2.8127    0.0000 N   0  0  0  0  0  0  0  0  0  0  0  0
   -9.0578    1.8808    0.0000 C   0  0  0  0  0  0  0  0  0  0  0  0
  -10.5368    2.1308    0.0000 C   0  0  0  0  0  0  0  0  0  0  0  0
  -11.4928    0.9749    0.0000 C   0  0  0  0  0  0  0  0  0  0  0  0
  -10.9698   -0.4309    0.0000 C   0  0  0  0  0  0  0  0  0  0  0  0
   -9.4907   -0.6809    0.0000 C   0  0  0  0  0  0  0  0  0  0  0  0
   -8.5347    0.4750    0.0000 C   0  0  0  0  0  0  0  0  0  0  0  0
   -4.0683    0.9765    0.0000 C   0  0  0  0  0  0  0  0  0  0  0  0
   -2.5844    1.1958    0.0000 O   0  0  0  0  0  0  0  0  0  0  0  0
   -5.0002    2.1520    0.0000 O   0  0  0  0  0  0  0  0  0  0  0  0
    2.6269   -3.2866    0.0000 C   0  0  0  0  0  0  0  0  0  0  0  0
    3.6765   -4.3582    0.0000 C   0  0  0  0  0  0  0  0  0  0  0  0
    5.0200   -3.6911    0.0000 C   0  0  0  0  0  0  0  0  0  0  0  0
    4.8007   -2.2072    0.0000 C   0  0  0  0  0  0  0  0  0  0  0  0
    5.7567   -1.0513    0.0000 C   0  0  0  0  0  0  0  0  0  0  0  0
    7.2357   -1.3013    0.0000 C   0  0  0  0  0  0  0  0  0  0  0  0
    8.1917   -0.1454    0.0000 C   0  0  0  0  0  0  0  0  0  0  0  0
    7.6687    1.2605    0.0000 C   0  0  0  0  0  0  0  0  0  0  0  0
    8.6247    2.4163    0.0000 C   0  0  0  0  0  0  0  0  0  0  0  0
    8.1017    3.8222    0.0000 C   0  0  0  0  0  0  0  0  0  0  0  0
    9.0577    4.9781    0.0000 O   0  0  0  0  0  0  0  0  0  0  0  0
    6.6227    4.0722    0.0000 C   0  0  0  0  0  0  0  0  0  0  0  0
    5.6667    2.9163    0.0000 C   0  0  0  0  0  0  0  0  0  0  0  0
    6.1897    1.5104    0.0000 C   0  0  0  0  0  0  0  0  0  0  0  0
    4.7107    1.7604    0.0000 C   0  0  0  0  0  0  0  0  0  0  0  0
    5.2337    0.3546    0.0000 C   0  0  0  0  0  0  0  0  0  0  0  0
    3.7547    0.6045    0.0000 C   0  0  0  0  0  0  0  0  0  0  0  0
    2.7987   -0.5513    0.0000 C   0  0  0  0  0  0  0  0  0  0  0  0
    3.3217   -1.9572    0.0000 C   0  0  0  0  0  0  0  0  0  0  0  0
    1.8246   -1.8632    0.0000 C   0  0  0  0  0  0  0  0  0  0  0  0
  2  1  1  6
  2  3  1  0
  3  4  1  0
  4  5  1  0
  5  6  2  0
  5  7  1  0
  7  8  1  0
  8  9  1  1
  9 10  1  0
 10 11  2  0
 11 12  1  0
 12 13  1  0
 13 14  2  0
 14 15  1  0
 15 16  2  0
 16 17  1  0
 17 18  2  0
  8 19  1  0
 19 20  2  0
 19 21  1  0
  2 22  1  0
 22 23  1  6
 23 24  1  0
 25 24  1  6
 25 26  1  0
 26 27  1  1
 27 28  1  0
 29 28  1  1
 29 30  1  0
 30 31  1  0
 31 32  1  1
 31 33  1  0
 33 34  1  0
 34 35  1  0
 35 36  1  6
 35 37  1  0
 37 38  1  6
 38 39  1  0
 39 40  1  0
 40 41  1  6
 18 10  1  0
 40 22  1  0
 18 13  1  0
 40 25  1  0
 37 26  1  0
 35 29  1  0
M  END
>  <MS_ID>  (132) 
MS0138

>  <SMILES>  (132) 
C[C@H](CCC(=O)N[C@@H](Cc1c[nH]c2ccccc12)C(=O)O)[C@H]1CC[C@H]2[C@@H]3CC[C@@H]4C[C@H](O)CC[C@]4(C)[C@H]3CC[C@]12C

>  <Structure_dimension>  (132) 
2D

$$$$
MS0139
     RDKit          2D

 36 40  0  0  0  0  0  0  0  0999 V2000
   -2.4960   -3.9327    0.0000 C   0  0  0  0  0  0  0  0  0  0  0  0
   -1.6588   -2.6881    0.0000 C   0  0  0  0  0  0  0  0  0  0  0  0
   -2.3180   -1.3407    0.0000 C   0  0  0  0  0  0  0  0  0  0  0  0
   -3.8144   -1.2379    0.0000 C   0  0  0  0  0  0  0  0  0  0  0  0
   -4.4737    0.1095    0.0000 C   0  0  0  0  0  0  0  0  0  0  0  0
   -3.6364    1.3541    0.0000 O   0  0  0  0  0  0  0  0  0  0  0  0
   -5.9701    0.2123    0.0000 N   0  0  0  0  0  0  0  0  0  0  0  0
   -6.9329   -0.9380    0.0000 C   0  0  0  0  0  0  0  0  0  0  0  0
   -8.3244   -0.3778    0.0000 C   0  0  0  0  0  0  0  0  0  0  0  0
   -8.2216    1.1187    0.0000 C   0  0  0  0  0  0  0  0  0  0  0  0
   -6.7666    1.4834    0.0000 C   0  0  0  0  0  0  0  0  0  0  0  0
   -6.2064    2.8748    0.0000 C   0  0  0  0  0  0  0  0  0  0  0  0
   -4.7212    3.0854    0.0000 O   0  0  0  0  0  0  0  0  0  0  0  0
   -7.1313    4.0557    0.0000 O   0  0  0  0  0  0  0  0  0  0  0  0
   -0.1623   -2.7909    0.0000 C   0  0  0  0  0  0  0  0  0  0  0  0
    0.6341   -4.0620    0.0000 C   0  0  0  0  0  0  0  0  0  0  0  0
    2.0891   -3.6973    0.0000 C   0  0  0  0  0  0  0  0  0  0  0  0
    2.1919   -2.2008    0.0000 C   0  0  0  0  0  0  0  0  0  0  0  0
    3.3728   -1.2759    0.0000 C   0  0  0  0  0  0  0  0  0  0  0  0
    4.7643   -1.8361    0.0000 C   0  0  0  0  0  0  0  0  0  0  0  0
    4.9749   -3.3212    0.0000 O   0  0  0  0  0  0  0  0  0  0  0  0
    5.9452   -0.9112    0.0000 C   0  0  0  0  0  0  0  0  0  0  0  0
    5.7346    0.5740    0.0000 C   0  0  0  0  0  0  0  0  0  0  0  0
    6.9155    1.4989    0.0000 C   0  0  0  0  0  0  0  0  0  0  0  0
    6.7049    2.9841    0.0000 C   0  0  0  0  0  0  0  0  0  0  0  0
    7.8858    3.9090    0.0000 O   0  0  0  0  0  0  0  0  0  0  0  0
    5.3134    3.5443    0.0000 C   0  0  0  0  0  0  0  0  0  0  0  0
    4.1326    2.6193    0.0000 C   0  0  0  0  0  0  0  0  0  0  0  0
    4.3431    1.1342    0.0000 C   0  0  0  0  0  0  0  0  0  0  0  0
    2.9517    1.6944    0.0000 C   0  0  0  0  0  0  0  0  0  0  0  0
    3.1622    0.2092    0.0000 C   0  0  0  0  0  0  0  0  0  0  0  0
    1.7708    0.7695    0.0000 C   0  0  0  0  0  0  0  0  0  0  0  0
    0.5899   -0.1555    0.0000 C   0  0  0  0  0  0  0  0  0  0  0  0
   -0.8016    0.4047    0.0000 O   0  0  0  0  0  0  0  0  0  0  0  0
    0.8005   -1.6406    0.0000 C   0  0  0  0  0  0  0  0  0  0  0  0
   -0.6419   -1.2289    0.0000 C   0  0  0  0  0  0  0  0  0  0  0  0
  2  1  1  6
  2  3  1  0
  3  4  1  0
  4  5  1  0
  5  6  2  0
  5  7  1  0
  7  8  1  0
  8  9  1  0
  9 10  1  0
 10 11  1  0
 11 12  1  1
 12 13  2  0
 12 14  1  0
  2 15  1  0
 15 16  1  6
 16 17  1  0
 18 17  1  6
 18 19  1  0
 19 20  1  1
 20 21  1  1
 20 22  1  0
 23 22  1  1
 23 24  1  0
 24 25  1  0
 25 26  1  1
 25 27  1  0
 27 28  1  0
 28 29  1  0
 29 30  1  6
 29 31  1  0
 31 32  1  6
 32 33  1  0
 33 34  1  1
 33 35  1  0
 35 36  1  6
 11  7  1  0
 35 15  1  0
 35 18  1  0
 31 19  1  0
 29 23  1  0
M  END
>  <MS_ID>  (133) 
MS0139

>  <SMILES>  (133) 
C[C@H](CCC(=O)N1CCC[C@H]1C(=O)O)[C@H]1CC[C@H]2[C@@H]3[C@H](O)C[C@@H]4C[C@H](O)CC[C@]4(C)[C@H]3C[C@H](O)[C@]12C

>  <Structure_dimension>  (133) 
2D

$$$$
MS0140
     RDKit          2D

 30 33  0  0  0  0  0  0  0  0999 V2000
   -4.5685   -2.6908    0.0000 C   0  0  0  0  0  0  0  0  0  0  0  0
   -3.4838   -1.6548    0.0000 C   0  0  0  0  0  0  0  0  0  0  0  0
   -3.8388   -0.1974    0.0000 C   0  0  0  0  0  0  0  0  0  0  0  0
   -5.2784    0.2240    0.0000 C   0  0  0  0  0  0  0  0  0  0  0  0
   -5.6333    1.6814    0.0000 C   0  0  0  0  0  0  0  0  0  0  0  0
   -4.5486    2.7174    0.0000 O   0  0  0  0  0  0  0  0  0  0  0  0
   -7.0729    2.1027    0.0000 C   0  0  0  0  0  0  0  0  0  0  0  0
   -7.4279    3.5601    0.0000 O   0  0  0  0  0  0  0  0  0  0  0  0
   -2.0442   -2.0761    0.0000 C   0  0  0  0  0  0  0  0  0  0  0  0
   -1.5389   -3.4884    0.0000 C   0  0  0  0  0  0  0  0  0  0  0  0
   -0.0395   -3.4442    0.0000 C   0  0  0  0  0  0  0  0  0  0  0  0
    0.3818   -2.0046    0.0000 C   0  0  0  0  0  0  0  0  0  0  0  0
    1.7336   -1.3544    0.0000 C   0  0  0  0  0  0  0  0  0  0  0  0
    2.9725   -2.1999    0.0000 C   0  0  0  0  0  0  0  0  0  0  0  0
    2.8597   -3.6957    0.0000 O   0  0  0  0  0  0  0  0  0  0  0  0
    4.3243   -1.5497    0.0000 C   0  0  0  0  0  0  0  0  0  0  0  0
    4.4371   -0.0540    0.0000 C   0  0  0  0  0  0  0  0  0  0  0  0
    5.7888    0.5962    0.0000 C   0  0  0  0  0  0  0  0  0  0  0  0
    5.9016    2.0920    0.0000 C   0  0  0  0  0  0  0  0  0  0  0  0
    7.2534    2.7422    0.0000 O   0  0  0  0  0  0  0  0  0  0  0  0
    4.6627    2.9375    0.0000 C   0  0  0  0  0  0  0  0  0  0  0  0
    3.3109    2.2873    0.0000 C   0  0  0  0  0  0  0  0  0  0  0  0
    3.1981    0.7916    0.0000 C   0  0  0  0  0  0  0  0  0  0  0  0
    1.9591    1.6371    0.0000 C   0  0  0  0  0  0  0  0  0  0  0  0
    1.8464    0.1414    0.0000 C   0  0  0  0  0  0  0  0  0  0  0  0
    0.6074    0.9869    0.0000 C   0  0  0  0  0  0  0  0  0  0  0  0
   -0.7444    0.3367    0.0000 C   0  0  0  0  0  0  0  0  0  0  0  0
   -1.9833    1.1823    0.0000 O   0  0  0  0  0  0  0  0  0  0  0  0
   -0.8572   -1.1590    0.0000 C   0  0  0  0  0  0  0  0  0  0  0  0
   -2.1777   -0.4476    0.0000 C   0  0  0  0  0  0  0  0  0  0  0  0
  2  1  1  6
  2  3  1  0
  3  4  1  0
  4  5  1  0
  5  6  2  0
  5  7  1  0
  7  8  1  0
  2  9  1  0
  9 10  1  6
 10 11  1  0
 12 11  1  6
 12 13  1  0
 13 14  1  1
 14 15  1  1
 14 16  1  0
 17 16  1  1
 17 18  1  0
 18 19  1  0
 19 20  1  1
 19 21  1  0
 21 22  1  0
 22 23  1  0
 23 24  1  6
 23 25  1  0
 25 26  1  6
 26 27  1  0
 27 28  1  6
 27 29  1  0
 29 30  1  6
 29  9  1  0
 29 12  1  0
 25 13  1  0
 23 17  1  0
M  END
>  <MS_ID>  (134) 
MS0140

>  <SMILES>  (134) 
C[C@H](CCC(=O)CO)[C@H]1CC[C@H]2[C@@H]3[C@H](O)C[C@@H]4C[C@H](O)CC[C@]4(C)[C@H]3C[C@@H](O)[C@]12C

>  <Structure_dimension>  (134) 
2D

$$$$
MS0141
     RDKit          2D

 32 35  0  0  0  0  0  0  0  0999 V2000
   -6.3148   -1.8053    0.0000 C   0  0  0  0  0  0  0  0  0  0  0  0
   -5.0840   -0.9480    0.0000 C   0  0  0  0  0  0  0  0  0  0  0  0
   -5.2110    0.5466    0.0000 C   0  0  0  0  0  0  0  0  0  0  0  0
   -6.5688    1.1840    0.0000 C   0  0  0  0  0  0  0  0  0  0  0  0
   -6.6958    2.6786    0.0000 C   0  0  0  0  0  0  0  0  0  0  0  0
   -5.4650    3.5359    0.0000 O   0  0  0  0  0  0  0  0  0  0  0  0
   -8.0537    3.3159    0.0000 O   0  0  0  0  0  0  0  0  0  0  0  0
   -3.7261   -1.5853    0.0000 C   0  0  0  0  0  0  0  0  0  0  0  0
   -3.4436   -3.0584    0.0000 C   0  0  0  0  0  0  0  0  0  0  0  0
   -1.9552   -3.2450    0.0000 C   0  0  0  0  0  0  0  0  0  0  0  0
   -1.3179   -1.8871    0.0000 C   0  0  0  0  0  0  0  0  0  0  0  0
    0.1177   -1.4521    0.0000 C   0  0  0  0  0  0  0  0  0  0  0  0
    1.2121   -2.4779    0.0000 C   0  0  0  0  0  0  0  0  0  0  0  0
    0.8711   -3.9386    0.0000 O   0  0  0  0  0  0  0  0  0  0  0  0
    2.6477   -2.0429    0.0000 C   0  0  0  0  0  0  0  0  0  0  0  0
    2.9888   -0.5822    0.0000 C   0  0  0  0  0  0  0  0  0  0  0  0
    4.4243   -0.1472    0.0000 C   0  0  0  0  0  0  0  0  0  0  0  0
    4.7654    1.3135    0.0000 C   0  0  0  0  0  0  0  0  0  0  0  0
    6.2009    1.7485    0.0000 O   0  0  0  0  0  0  0  0  0  0  0  0
    7.2954    0.7227    0.0000 S   0  0  0  0  0  0  0  0  0  0  0  0
    6.2697   -0.3717    0.0000 O   0  0  0  0  0  0  0  0  0  0  0  0
    8.3211    1.8172    0.0000 O   0  0  0  0  0  0  0  0  0  0  0  0
    8.3899   -0.3030    0.0000 O   0  0  0  0  0  0  0  0  0  0  0  0
    3.6709    2.3392    0.0000 C   0  0  0  0  0  0  0  0  0  0  0  0
    2.2354    1.9043    0.0000 C   0  0  0  0  0  0  0  0  0  0  0  0
    1.8943    0.4436    0.0000 C   0  0  0  0  0  0  0  0  0  0  0  0
    0.7998    1.4693    0.0000 C   0  0  0  0  0  0  0  0  0  0  0  0
    0.4587    0.0086    0.0000 C   0  0  0  0  0  0  0  0  0  0  0  0
   -0.6357    1.0343    0.0000 C   0  0  0  0  0  0  0  0  0  0  0  0
   -2.0713    0.5993    0.0000 C   0  0  0  0  0  0  0  0  0  0  0  0
   -2.4123   -0.8614    0.0000 C   0  0  0  0  0  0  0  0  0  0  0  0
   -3.6080    0.0444    0.0000 C   0  0  0  0  0  0  0  0  0  0  0  0
  2  1  1  6
  2  3  1  0
  3  4  1  0
  4  5  1  0
  5  6  2  0
  5  7  1  0
  2  8  1  0
  8  9  1  6
  9 10  1  0
 11 10  1  6
 11 12  1  0
 12 13  1  1
 13 14  2  0
 13 15  1  0
 16 15  1  1
 16 17  1  0
 17 18  1  0
 18 19  1  1
 19 20  1  0
 20 21  2  0
 20 22  2  0
 20 23  1  0
 18 24  1  0
 24 25  1  0
 25 26  1  0
 26 27  1  6
 26 28  1  0
 28 29  1  6
 29 30  1  0
 30 31  1  0
 31 32  1  6
 31  8  1  0
 31 11  1  0
 28 12  1  0
 26 16  1  0
M  END
>  <MS_ID>  (135) 
MS0141

>  <SMILES>  (135) 
C[C@H](CCC(=O)O)[C@H]1CC[C@H]2[C@@H]3C(=O)C[C@@H]4C[C@H](OS(=O)(=O)O)CC[C@]4(C)[C@H]3CC[C@]12C

>  <Structure_dimension>  (135) 
2D

$$$$
MS0142
     RDKit          2D

 31 34  0  0  0  0  0  0  0  0999 V2000
   -2.6128   -3.7484    0.0000 C   0  0  0  0  0  0  0  0  0  0  0  0
   -1.7683   -2.5088    0.0000 C   0  0  0  0  0  0  0  0  0  0  0  0
   -2.4196   -1.1576    0.0000 C   0  0  0  0  0  0  0  0  0  0  0  0
   -3.9155   -1.0460    0.0000 C   0  0  0  0  0  0  0  0  0  0  0  0
   -4.5668    0.3052    0.0000 C   0  0  0  0  0  0  0  0  0  0  0  0
   -3.7223    1.5449    0.0000 O   0  0  0  0  0  0  0  0  0  0  0  0
   -6.0626    0.4167    0.0000 N   0  0  0  0  0  0  0  0  0  0  0  0
   -6.7140    1.7679    0.0000 C   0  0  0  0  0  0  0  0  0  0  0  0
   -8.2098    1.8794    0.0000 C   0  0  0  0  0  0  0  0  0  0  0  0
   -9.0543    0.6398    0.0000 O   0  0  0  0  0  0  0  0  0  0  0  0
   -8.8612    3.2307    0.0000 O   0  0  0  0  0  0  0  0  0  0  0  0
   -0.2724   -2.6203    0.0000 C   0  0  0  0  0  0  0  0  0  0  0  0
    0.5166   -3.8960    0.0000 C   0  0  0  0  0  0  0  0  0  0  0  0
    1.9737   -3.5398    0.0000 C   0  0  0  0  0  0  0  0  0  0  0  0
    2.0852   -2.0440    0.0000 C   0  0  0  0  0  0  0  0  0  0  0  0
    3.2715   -1.1260    0.0000 C   0  0  0  0  0  0  0  0  0  0  0  0
    4.6596   -1.6943    0.0000 C   0  0  0  0  0  0  0  0  0  0  0  0
    5.8459   -0.7762    0.0000 C   0  0  0  0  0  0  0  0  0  0  0  0
    5.6440    0.7101    0.0000 C   0  0  0  0  0  0  0  0  0  0  0  0
    6.8302    1.6281    0.0000 C   0  0  0  0  0  0  0  0  0  0  0  0
    6.6283    3.1145    0.0000 C   0  0  0  0  0  0  0  0  0  0  0  0
    5.2402    3.6828    0.0000 C   0  0  0  0  0  0  0  0  0  0  0  0
    4.0539    2.7648    0.0000 C   0  0  0  0  0  0  0  0  0  0  0  0
    4.2558    1.2784    0.0000 C   0  0  0  0  0  0  0  0  0  0  0  0
    2.8676    1.8467    0.0000 C   0  0  0  0  0  0  0  0  0  0  0  0
    3.0696    0.3604    0.0000 C   0  0  0  0  0  0  0  0  0  0  0  0
    1.6814    0.9287    0.0000 C   0  0  0  0  0  0  0  0  0  0  0  0
    0.4951    0.0107    0.0000 C   0  0  0  0  0  0  0  0  0  0  0  0
   -0.8930    0.5790    0.0000 O   0  0  0  0  0  0  0  0  0  0  0  0
    0.6970   -1.4757    0.0000 C   0  0  0  0  0  0  0  0  0  0  0  0
   -0.7429   -1.0556    0.0000 C   0  0  0  0  0  0  0  0  0  0  0  0
  2  1  1  6
  2  3  1  0
  3  4  1  0
  4  5  1  0
  5  6  2  0
  5  7  1  0
  7  8  1  0
  8  9  1  0
  9 10  2  0
  9 11  1  0
  2 12  1  0
 12 13  1  6
 13 14  1  0
 15 14  1  6
 15 16  1  0
 16 17  1  1
 17 18  1  0
 19 18  1  1
 19 20  1  0
 20 21  1  0
 21 22  1  0
 22 23  1  0
 23 24  1  0
 24 25  1  6
 24 26  1  0
 26 27  1  6
 27 28  1  0
 28 29  1  1
 28 30  1  0
 30 31  1  6
 30 12  1  0
 30 15  1  0
 26 16  1  0
 24 19  1  0
M  END
>  <MS_ID>  (136) 
MS0142

>  <SMILES>  (136) 
C[C@H](CCC(=O)NCC(=O)O)[C@H]1CC[C@H]2[C@@H]3CC[C@@H]4CCCC[C@]4(C)[C@H]3C[C@H](O)[C@]12C

>  <Structure_dimension>  (136) 
2D

$$$$
MS0143
     RDKit          2D

 35 38  0  0  0  0  0  0  0  0999 V2000
   -2.9304   -4.4556    0.0000 C   0  0  0  0  0  0  0  0  0  0  0  0
   -2.1766   -3.1587    0.0000 C   0  0  0  0  0  0  0  0  0  0  0  0
   -2.9229   -1.8575    0.0000 C   0  0  0  0  0  0  0  0  0  0  0  0
   -4.4229   -1.8532    0.0000 C   0  0  0  0  0  0  0  0  0  0  0  0
   -5.1691   -0.5520    0.0000 C   0  0  0  0  0  0  0  0  0  0  0  0
   -6.6691   -0.5477    0.0000 O   0  0  0  0  0  0  0  0  0  0  0  0
   -4.4154    0.7448    0.0000 O   0  0  0  0  0  0  0  0  0  0  0  0
   -5.1617    2.0460    0.0000 C   0  0  0  0  0  0  0  0  0  0  0  0
   -6.6617    2.0503    0.0000 O   0  0  0  0  0  0  0  0  0  0  0  0
   -4.4079    3.3429    0.0000 C   0  0  0  0  0  0  0  0  0  0  0  0
   -3.1111    2.5892    0.0000 C   0  0  0  0  0  0  0  0  0  0  0  0
   -5.7048    4.0966    0.0000 C   0  0  0  0  0  0  0  0  0  0  0  0
   -3.6542    4.6398    0.0000 O   0  0  0  0  0  0  0  0  0  0  0  0
   -0.6766   -3.1631    0.0000 C   0  0  0  0  0  0  0  0  0  0  0  0
    0.2015   -4.3791    0.0000 C   0  0  0  0  0  0  0  0  0  0  0  0
    1.6295   -3.9197    0.0000 C   0  0  0  0  0  0  0  0  0  0  0  0
    1.6338   -2.4197    0.0000 C   0  0  0  0  0  0  0  0  0  0  0  0
    2.7514   -1.4192    0.0000 C   0  0  0  0  0  0  0  0  0  0  0  0
    4.1766   -1.8868    0.0000 C   0  0  0  0  0  0  0  0  0  0  0  0
    4.4843   -3.3550    0.0000 O   0  0  0  0  0  0  0  0  0  0  0  0
    5.2942   -0.8864    0.0000 C   0  0  0  0  0  0  0  0  0  0  0  0
    4.9866    0.5818    0.0000 C   0  0  0  0  0  0  0  0  0  0  0  0
    6.1042    1.5822    0.0000 C   0  0  0  0  0  0  0  0  0  0  0  0
    5.7965    3.0503    0.0000 C   0  0  0  0  0  0  0  0  0  0  0  0
    6.9141    4.0508    0.0000 O   0  0  0  0  0  0  0  0  0  0  0  0
    4.3713    3.5180    0.0000 C   0  0  0  0  0  0  0  0  0  0  0  0
    3.2537    2.5175    0.0000 C   0  0  0  0  0  0  0  0  0  0  0  0
    3.5613    1.0494    0.0000 C   0  0  0  0  0  0  0  0  0  0  0  0
    2.1361    1.5170    0.0000 C   0  0  0  0  0  0  0  0  0  0  0  0
    2.4437    0.0489    0.0000 C   0  0  0  0  0  0  0  0  0  0  0  0
    1.0185    0.5165    0.0000 C   0  0  0  0  0  0  0  0  0  0  0  0
   -0.0991   -0.4840    0.0000 C   0  0  0  0  0  0  0  0  0  0  0  0
   -1.5244   -0.0163    0.0000 O   0  0  0  0  0  0  0  0  0  0  0  0
    0.2085   -1.9521    0.0000 C   0  0  0  0  0  0  0  0  0  0  0  0
   -1.2578   -1.6360    0.0000 C   0  0  0  0  0  0  0  0  0  0  0  0
  2  1  1  6
  2  3  1  0
  3  4  1  0
  4  5  1  0
  5  6  2  0
  5  7  1  0
  7  8  1  0
  8  9  2  0
  8 10  1  0
 10 11  1  0
 10 12  1  0
 10 13  1  0
  2 14  1  0
 14 15  1  6
 15 16  1  0
 17 16  1  6
 17 18  1  0
 18 19  1  1
 19 20  1  1
 19 21  1  0
 22 21  1  1
 22 23  1  0
 23 24  1  0
 24 25  1  1
 24 26  1  0
 26 27  1  0
 27 28  1  0
 28 29  1  6
 28 30  1  0
 30 31  1  6
 31 32  1  0
 32 33  1  1
 32 34  1  0
 34 35  1  6
 34 14  1  0
 34 17  1  0
 30 18  1  0
 28 22  1  0
M  END
>  <MS_ID>  (137) 
MS0143

>  <SMILES>  (137) 
C[C@H](CCC(=O)OC(=O)C(C)(C)O)[C@H]1CC[C@H]2[C@@H]3[C@H](O)C[C@@H]4C[C@H](O)CC[C@]4(C)[C@H]3C[C@H](O)[C@]12C

>  <Structure_dimension>  (137) 
2D

$$$$
MS0144
     RDKit          2D

 31 34  0  0  0  0  0  0  0  0999 V2000
   -3.9560   -3.4843    0.0000 C   0  0  0  0  0  0  0  0  0  0  0  0
   -2.9605   -2.3623    0.0000 C   0  0  0  0  0  0  0  0  0  0  0  0
   -3.4344   -0.9392    0.0000 C   0  0  0  0  0  0  0  0  0  0  0  0
   -4.9038   -0.6380    0.0000 C   0  0  0  0  0  0  0  0  0  0  0  0
   -5.3777    0.7852    0.0000 C   0  0  0  0  0  0  0  0  0  0  0  0
   -6.8472    1.0863    0.0000 O   0  0  0  0  0  0  0  0  0  0  0  0
   -4.3822    1.9072    0.0000 O   0  0  0  0  0  0  0  0  0  0  0  0
   -4.8561    3.3303    0.0000 C   0  0  0  0  0  0  0  0  0  0  0  0
   -6.3256    3.6315    0.0000 O   0  0  0  0  0  0  0  0  0  0  0  0
   -3.8606    4.4523    0.0000 O   0  0  0  0  0  0  0  0  0  0  0  0
   -1.4910   -2.6635    0.0000 C   0  0  0  0  0  0  0  0  0  0  0  0
   -0.8709   -4.0293    0.0000 C   0  0  0  0  0  0  0  0  0  0  0  0
    0.6197   -3.8617    0.0000 C   0  0  0  0  0  0  0  0  0  0  0  0
    0.9208   -2.3922    0.0000 C   0  0  0  0  0  0  0  0  0  0  0  0
    2.2144   -1.6327    0.0000 C   0  0  0  0  0  0  0  0  0  0  0  0
    3.5189   -2.3733    0.0000 C   0  0  0  0  0  0  0  0  0  0  0  0
    4.8124   -1.6138    0.0000 C   0  0  0  0  0  0  0  0  0  0  0  0
    4.8014   -0.1138    0.0000 C   0  0  0  0  0  0  0  0  0  0  0  0
    6.0950    0.6456    0.0000 C   0  0  0  0  0  0  0  0  0  0  0  0
    6.0840    2.1456    0.0000 C   0  0  0  0  0  0  0  0  0  0  0  0
    7.3776    2.9050    0.0000 O   0  0  0  0  0  0  0  0  0  0  0  0
    4.7796    2.8861    0.0000 C   0  0  0  0  0  0  0  0  0  0  0  0
    3.4860    2.1266    0.0000 C   0  0  0  0  0  0  0  0  0  0  0  0
    3.4970    0.6267    0.0000 C   0  0  0  0  0  0  0  0  0  0  0  0
    2.1925    1.3672    0.0000 C   0  0  0  0  0  0  0  0  0  0  0  0
    2.2034   -0.1328    0.0000 C   0  0  0  0  0  0  0  0  0  0  0  0
    0.8990    0.6077    0.0000 C   0  0  0  0  0  0  0  0  0  0  0  0
   -0.3946   -0.1517    0.0000 C   0  0  0  0  0  0  0  0  0  0  0  0
   -1.6990    0.5888    0.0000 O   0  0  0  0  0  0  0  0  0  0  0  0
   -0.3836   -1.6517    0.0000 C   0  0  0  0  0  0  0  0  0  0  0  0
   -1.7584   -1.0516    0.0000 C   0  0  0  0  0  0  0  0  0  0  0  0
  2  1  1  6
  2  3  1  0
  3  4  1  0
  4  5  1  0
  5  6  2  0
  5  7  1  0
  7  8  1  0
  8  9  2  0
  8 10  1  0
  2 11  1  0
 11 12  1  6
 12 13  1  0
 14 13  1  6
 14 15  1  0
 15 16  1  1
 16 17  1  0
 18 17  1  1
 18 19  1  0
 19 20  1  0
 20 21  1  1
 20 22  1  0
 22 23  1  0
 23 24  1  0
 24 25  1  6
 24 26  1  0
 26 27  1  6
 27 28  1  0
 28 29  1  1
 28 30  1  0
 30 31  1  6
 30 11  1  0
 30 14  1  0
 26 15  1  0
 24 18  1  0
M  END
>  <MS_ID>  (138) 
MS0144

>  <SMILES>  (138) 
C[C@H](CCC(=O)OC(=O)O)[C@H]1CC[C@H]2[C@@H]3CC[C@@H]4C[C@H](O)CC[C@]4(C)[C@H]3C[C@H](O)[C@]12C

>  <Structure_dimension>  (138) 
2D

$$$$
MS0145
     RDKit          2D

 33 36  0  0  0  0  0  0  0  0999 V2000
   -3.3094   -3.6711    0.0000 C   0  0  0  0  0  0  0  0  0  0  0  0
   -2.4155   -2.4665    0.0000 C   0  0  0  0  0  0  0  0  0  0  0  0
   -3.0118   -1.0901    0.0000 C   0  0  0  0  0  0  0  0  0  0  0  0
   -4.5019   -0.9183    0.0000 C   0  0  0  0  0  0  0  0  0  0  0  0
   -5.0982    0.4581    0.0000 C   0  0  0  0  0  0  0  0  0  0  0  0
   -4.2043    1.6627    0.0000 O   0  0  0  0  0  0  0  0  0  0  0  0
   -6.5883    0.6300    0.0000 O   0  0  0  0  0  0  0  0  0  0  0  0
   -7.1845    2.0064    0.0000 C   0  0  0  0  0  0  0  0  0  0  0  0
   -8.5609    1.4101    0.0000 C   0  0  0  0  0  0  0  0  0  0  0  0
   -5.8081    2.6026    0.0000 C   0  0  0  0  0  0  0  0  0  0  0  0
   -7.7808    3.3828    0.0000 O   0  0  0  0  0  0  0  0  0  0  0  0
   -0.9254   -2.6383    0.0000 C   0  0  0  0  0  0  0  0  0  0  0  0
   -0.1885   -3.9449    0.0000 C   0  0  0  0  0  0  0  0  0  0  0  0
    1.2818   -3.6478    0.0000 C   0  0  0  0  0  0  0  0  0  0  0  0
    1.4536   -2.1577    0.0000 C   0  0  0  0  0  0  0  0  0  0  0  0
    2.6759   -1.2883    0.0000 C   0  0  0  0  0  0  0  0  0  0  0  0
    4.0400   -1.9122    0.0000 C   0  0  0  0  0  0  0  0  0  0  0  0
    4.1818   -3.4055    0.0000 O   0  0  0  0  0  0  0  0  0  0  0  0
    5.2624   -1.0428    0.0000 C   0  0  0  0  0  0  0  0  0  0  0  0
    5.1206    0.4505    0.0000 C   0  0  0  0  0  0  0  0  0  0  0  0
    6.3430    1.3199    0.0000 C   0  0  0  0  0  0  0  0  0  0  0  0
    6.2013    2.8132    0.0000 C   0  0  0  0  0  0  0  0  0  0  0  0
    7.4236    3.6826    0.0000 O   0  0  0  0  0  0  0  0  0  0  0  0
    4.8372    3.4371    0.0000 C   0  0  0  0  0  0  0  0  0  0  0  0
    3.6148    2.5677    0.0000 C   0  0  0  0  0  0  0  0  0  0  0  0
    3.7565    1.0744    0.0000 C   0  0  0  0  0  0  0  0  0  0  0  0
    2.3925    1.6983    0.0000 C   0  0  0  0  0  0  0  0  0  0  0  0
    2.5342    0.2050    0.0000 C   0  0  0  0  0  0  0  0  0  0  0  0
    1.1701    0.8289    0.0000 C   0  0  0  0  0  0  0  0  0  0  0  0
   -0.0523   -0.0405    0.0000 C   0  0  0  0  0  0  0  0  0  0  0  0
   -1.4164    0.5834    0.0000 O   0  0  0  0  0  0  0  0  0  0  0  0
    0.0895   -1.5338    0.0000 C   0  0  0  0  0  0  0  0  0  0  0  0
   -1.3324   -1.0559    0.0000 C   0  0  0  0  0  0  0  0  0  0  0  0
  2  1  1  6
  2  3  1  0
  3  4  1  0
  4  5  1  0
  5  6  2  0
  5  7  1  0
  7  8  1  0
  8  9  1  0
  8 10  1  0
  8 11  1  0
  2 12  1  0
 12 13  1  6
 13 14  1  0
 15 14  1  6
 15 16  1  0
 16 17  1  1
 17 18  1  1
 17 19  1  0
 20 19  1  1
 20 21  1  0
 21 22  1  0
 22 23  1  1
 22 24  1  0
 24 25  1  0
 25 26  1  0
 26 27  1  6
 26 28  1  0
 28 29  1  6
 29 30  1  0
 30 31  1  1
 30 32  1  0
 32 33  1  6
 32 12  1  0
 32 15  1  0
 28 16  1  0
 26 20  1  0
M  END
>  <MS_ID>  (139) 
MS0145

>  <SMILES>  (139) 
C[C@H](CCC(=O)OC(C)(C)O)[C@H]1CC[C@H]2[C@@H]3[C@H](O)C[C@@H]4C[C@H](O)CC[C@]4(C)[C@H]3C[C@H](O)[C@]12C

>  <Structure_dimension>  (139) 
2D

$$$$
MS0146
     RDKit          2D

 32 35  0  0  0  0  0  0  0  0999 V2000
   -3.1421   -3.6694    0.0000 C   0  0  0  0  0  0  0  0  0  0  0  0
   -2.2628   -2.4541    0.0000 C   0  0  0  0  0  0  0  0  0  0  0  0
   -2.8756   -1.0850    0.0000 C   0  0  0  0  0  0  0  0  0  0  0  0
   -4.3676   -0.9311    0.0000 C   0  0  0  0  0  0  0  0  0  0  0  0
   -4.9804    0.4380    0.0000 C   0  0  0  0  0  0  0  0  0  0  0  0
   -4.1011    1.6532    0.0000 O   0  0  0  0  0  0  0  0  0  0  0  0
   -6.4725    0.5919    0.0000 N   0  0  0  0  0  0  0  0  0  0  0  0
   -7.0853    1.9610    0.0000 C   0  0  0  0  0  0  0  0  0  0  0  0
   -8.5774    2.1149    0.0000 C   0  0  0  0  0  0  0  0  0  0  0  0
   -9.4567    0.8996    0.0000 O   0  0  0  0  0  0  0  0  0  0  0  0
   -9.1901    3.4840    0.0000 O   0  0  0  0  0  0  0  0  0  0  0  0
   -0.7707   -2.6080    0.0000 C   0  0  0  0  0  0  0  0  0  0  0  0
   -0.0182   -3.9056    0.0000 C   0  0  0  0  0  0  0  0  0  0  0  0
    1.4484   -3.5909    0.0000 C   0  0  0  0  0  0  0  0  0  0  0  0
    1.6023   -2.0988    0.0000 C   0  0  0  0  0  0  0  0  0  0  0  0
    2.8141   -1.2147    0.0000 C   0  0  0  0  0  0  0  0  0  0  0  0
    4.1856   -1.8222    0.0000 C   0  0  0  0  0  0  0  0  0  0  0  0
    4.3453   -3.3136    0.0000 O   0  0  0  0  0  0  0  0  0  0  0  0
    5.3974   -0.9381    0.0000 C   0  0  0  0  0  0  0  0  0  0  0  0
    5.2377    0.5533    0.0000 C   0  0  0  0  0  0  0  0  0  0  0  0
    6.4495    1.4374    0.0000 C   0  0  0  0  0  0  0  0  0  0  0  0
    6.2898    2.9289    0.0000 C   0  0  0  0  0  0  0  0  0  0  0  0
    7.5016    3.8129    0.0000 O   0  0  0  0  0  0  0  0  0  0  0  0
    4.9183    3.5363    0.0000 C   0  0  0  0  0  0  0  0  0  0  0  0
    3.7065    2.6522    0.0000 C   0  0  0  0  0  0  0  0  0  0  0  0
    3.8662    1.1608    0.0000 C   0  0  0  0  0  0  0  0  0  0  0  0
    2.4947    1.7682    0.0000 C   0  0  0  0  0  0  0  0  0  0  0  0
    2.6544    0.2767    0.0000 C   0  0  0  0  0  0  0  0  0  0  0  0
    1.2829    0.8842    0.0000 C   0  0  0  0  0  0  0  0  0  0  0  0
    0.0711    0.0001    0.0000 C   0  0  0  0  0  0  0  0  0  0  0  0
    0.2308   -1.4914    0.0000 C   0  0  0  0  0  0  0  0  0  0  0  0
   -1.1967   -1.0306    0.0000 C   0  0  0  0  0  0  0  0  0  0  0  0
  2  1  1  6
  2  3  1  0
  3  4  1  0
  4  5  1  0
  5  6  2  0
  5  7  1  0
  7  8  1  0
  8  9  1  0
  9 10  2  0
  9 11  1  0
  2 12  1  0
 12 13  1  6
 13 14  1  0
 15 14  1  6
 15 16  1  0
 16 17  1  1
 17 18  1  1
 17 19  1  0
 20 19  1  1
 20 21  1  0
 21 22  1  0
 22 23  2  0
 22 24  1  0
 24 25  1  0
 25 26  1  0
 26 27  1  6
 26 28  1  0
 28 29  1  6
 29 30  1  0
 30 31  1  0
 31 32  1  6
 31 12  1  0
 31 15  1  0
 28 16  1  0
 26 20  1  0
M  END
>  <MS_ID>  (140) 
MS0146

>  <SMILES>  (140) 
C[C@H](CCC(=O)NCC(=O)O)[C@H]1CC[C@H]2[C@@H]3[C@H](O)C[C@@H]4CC(=O)CC[C@]4(C)[C@H]3CC[C@]12C

>  <Structure_dimension>  (140) 
2D

$$$$
MS0147
     RDKit          2D

 30 33  0  0  0  0  0  0  0  0999 V2000
   -4.5685   -2.6908    0.0000 C   0  0  0  0  0  0  0  0  0  0  0  0
   -3.4838   -1.6548    0.0000 C   0  0  0  0  0  0  0  0  0  0  0  0
   -3.8388   -0.1974    0.0000 C   0  0  0  0  0  0  0  0  0  0  0  0
   -5.2784    0.2240    0.0000 C   0  0  0  0  0  0  0  0  0  0  0  0
   -5.6333    1.6814    0.0000 C   0  0  0  0  0  0  0  0  0  0  0  0
   -4.5486    2.7174    0.0000 O   0  0  0  0  0  0  0  0  0  0  0  0
   -7.0729    2.1027    0.0000 C   0  0  0  0  0  0  0  0  0  0  0  0
   -7.4279    3.5601    0.0000 O   0  0  0  0  0  0  0  0  0  0  0  0
   -2.0442   -2.0761    0.0000 C   0  0  0  0  0  0  0  0  0  0  0  0
   -1.5389   -3.4884    0.0000 C   0  0  0  0  0  0  0  0  0  0  0  0
   -0.0395   -3.4442    0.0000 C   0  0  0  0  0  0  0  0  0  0  0  0
    0.3818   -2.0046    0.0000 C   0  0  0  0  0  0  0  0  0  0  0  0
    1.7336   -1.3544    0.0000 C   0  0  0  0  0  0  0  0  0  0  0  0
    2.9725   -2.1999    0.0000 C   0  0  0  0  0  0  0  0  0  0  0  0
    2.8597   -3.6957    0.0000 O   0  0  0  0  0  0  0  0  0  0  0  0
    4.3243   -1.5497    0.0000 C   0  0  0  0  0  0  0  0  0  0  0  0
    4.4371   -0.0540    0.0000 C   0  0  0  0  0  0  0  0  0  0  0  0
    5.7888    0.5962    0.0000 C   0  0  0  0  0  0  0  0  0  0  0  0
    5.9016    2.0920    0.0000 C   0  0  0  0  0  0  0  0  0  0  0  0
    7.2534    2.7422    0.0000 O   0  0  0  0  0  0  0  0  0  0  0  0
    4.6627    2.9375    0.0000 C   0  0  0  0  0  0  0  0  0  0  0  0
    3.3109    2.2873    0.0000 C   0  0  0  0  0  0  0  0  0  0  0  0
    3.1981    0.7916    0.0000 C   0  0  0  0  0  0  0  0  0  0  0  0
    1.9591    1.6371    0.0000 C   0  0  0  0  0  0  0  0  0  0  0  0
    1.8464    0.1414    0.0000 C   0  0  0  0  0  0  0  0  0  0  0  0
    0.6074    0.9869    0.0000 C   0  0  0  0  0  0  0  0  0  0  0  0
   -0.7444    0.3367    0.0000 C   0  0  0  0  0  0  0  0  0  0  0  0
   -1.9833    1.1823    0.0000 O   0  0  0  0  0  0  0  0  0  0  0  0
   -0.8572   -1.1590    0.0000 C   0  0  0  0  0  0  0  0  0  0  0  0
   -2.1777   -0.4476    0.0000 C   0  0  0  0  0  0  0  0  0  0  0  0
  2  1  1  6
  2  3  1  0
  3  4  1  0
  4  5  1  0
  5  6  2  0
  5  7  1  0
  7  8  1  0
  2  9  1  0
  9 10  1  6
 10 11  1  0
 12 11  1  6
 12 13  1  0
 13 14  1  1
 14 15  1  6
 14 16  1  0
 17 16  1  1
 17 18  1  0
 18 19  1  0
 19 20  1  1
 19 21  1  0
 21 22  1  0
 22 23  1  0
 23 24  1  6
 23 25  1  0
 25 26  1  6
 26 27  1  0
 27 28  1  1
 27 29  1  0
 29 30  1  6
 29  9  1  0
 29 12  1  0
 25 13  1  0
 23 17  1  0
M  END
>  <MS_ID>  (141) 
MS0147

>  <SMILES>  (141) 
C[C@H](CCC(=O)CO)[C@H]1CC[C@H]2[C@@H]3[C@@H](O)C[C@@H]4C[C@H](O)CC[C@]4(C)[C@H]3C[C@H](O)[C@]12C

>  <Structure_dimension>  (141) 
2D

$$$$
MS0148
     RDKit          2D

 30 33  0  0  0  0  0  0  0  0999 V2000
   -3.6944   -3.4608    0.0000 C   0  0  0  0  0  0  0  0  0  0  0  0
   -2.7226   -2.3182    0.0000 C   0  0  0  0  0  0  0  0  0  0  0  0
   -3.2262   -0.9053    0.0000 C   0  0  0  0  0  0  0  0  0  0  0  0
   -4.7017   -0.6350    0.0000 C   0  0  0  0  0  0  0  0  0  0  0  0
   -5.2053    0.7779    0.0000 C   0  0  0  0  0  0  0  0  0  0  0  0
   -4.2335    1.9206    0.0000 O   0  0  0  0  0  0  0  0  0  0  0  0
   -6.6808    1.0482    0.0000 C   0  0  0  0  0  0  0  0  0  0  0  0
   -7.1844    2.4611    0.0000 C   0  0  0  0  0  0  0  0  0  0  0  0
   -6.2126    3.6038    0.0000 O   0  0  0  0  0  0  0  0  0  0  0  0
   -8.6599    2.7314    0.0000 O   0  0  0  0  0  0  0  0  0  0  0  0
   -1.2471   -2.5885    0.0000 C   0  0  0  0  0  0  0  0  0  0  0  0
   -0.5986   -3.9410    0.0000 C   0  0  0  0  0  0  0  0  0  0  0  0
    0.8882   -3.7422    0.0000 C   0  0  0  0  0  0  0  0  0  0  0  0
    1.1585   -2.2667    0.0000 C   0  0  0  0  0  0  0  0  0  0  0  0
    2.4358   -1.4803    0.0000 C   0  0  0  0  0  0  0  0  0  0  0  0
    3.7555   -2.1933    0.0000 C   0  0  0  0  0  0  0  0  0  0  0  0
    5.0328   -1.4069    0.0000 C   0  0  0  0  0  0  0  0  0  0  0  0
    4.9905    0.0925    0.0000 C   0  0  0  0  0  0  0  0  0  0  0  0
    6.2678    0.8789    0.0000 C   0  0  0  0  0  0  0  0  0  0  0  0
    6.2254    2.3783    0.0000 C   0  0  0  0  0  0  0  0  0  0  0  0
    7.5027    3.1647    0.0000 O   0  0  0  0  0  0  0  0  0  0  0  0
    4.9057    3.0913    0.0000 C   0  0  0  0  0  0  0  0  0  0  0  0
    3.6284    2.3049    0.0000 C   0  0  0  0  0  0  0  0  0  0  0  0
    3.6708    0.8055    0.0000 C   0  0  0  0  0  0  0  0  0  0  0  0
    2.3510    1.5185    0.0000 C   0  0  0  0  0  0  0  0  0  0  0  0
    2.3934    0.0191    0.0000 C   0  0  0  0  0  0  0  0  0  0  0  0
    1.0737    0.7321    0.0000 C   0  0  0  0  0  0  0  0  0  0  0  0
   -0.2036   -0.0543    0.0000 C   0  0  0  0  0  0  0  0  0  0  0  0
   -0.1612   -1.5537    0.0000 C   0  0  0  0  0  0  0  0  0  0  0  0
   -1.5482   -0.9826    0.0000 C   0  0  0  0  0  0  0  0  0  0  0  0
  2  1  1  6
  2  3  1  0
  3  4  1  0
  4  5  1  0
  5  6  2  0
  5  7  1  0
  7  8  1  0
  8  9  2  0
  8 10  1  0
  2 11  1  0
 11 12  1  6
 12 13  1  0
 14 13  1  6
 14 15  1  0
 15 16  1  1
 16 17  1  0
 18 17  1  1
 18 19  1  0
 19 20  1  0
 20 21  1  1
 20 22  1  0
 22 23  1  0
 23 24  1  0
 24 25  1  6
 24 26  1  0
 26 27  1  6
 27 28  1  0
 28 29  1  0
 29 30  1  6
 29 11  1  0
 29 14  1  0
 26 15  1  0
 24 18  1  0
M  END
>  <MS_ID>  (142) 
MS0148

>  <SMILES>  (142) 
C[C@H](CCC(=O)CC(=O)O)[C@H]1CC[C@H]2[C@@H]3CC[C@@H]4C[C@H](O)CC[C@]4(C)[C@H]3CC[C@]12C

>  <Structure_dimension>  (142) 
2D

$$$$
MS0149
     RDKit          2D

 32 35  0  0  0  0  0  0  0  0999 V2000
   -6.3148   -1.8053    0.0000 C   0  0  0  0  0  0  0  0  0  0  0  0
   -5.0840   -0.9480    0.0000 C   0  0  0  0  0  0  0  0  0  0  0  0
   -5.2110    0.5466    0.0000 C   0  0  0  0  0  0  0  0  0  0  0  0
   -6.5688    1.1840    0.0000 C   0  0  0  0  0  0  0  0  0  0  0  0
   -6.6958    2.6786    0.0000 C   0  0  0  0  0  0  0  0  0  0  0  0
   -5.4650    3.5359    0.0000 O   0  0  0  0  0  0  0  0  0  0  0  0
   -8.0537    3.3159    0.0000 O   0  0  0  0  0  0  0  0  0  0  0  0
   -3.7261   -1.5853    0.0000 C   0  0  0  0  0  0  0  0  0  0  0  0
   -3.4436   -3.0584    0.0000 C   0  0  0  0  0  0  0  0  0  0  0  0
   -1.9552   -3.2450    0.0000 C   0  0  0  0  0  0  0  0  0  0  0  0
   -1.3179   -1.8871    0.0000 C   0  0  0  0  0  0  0  0  0  0  0  0
    0.1177   -1.4521    0.0000 C   0  0  0  0  0  0  0  0  0  0  0  0
    1.2121   -2.4779    0.0000 C   0  0  0  0  0  0  0  0  0  0  0  0
    0.8711   -3.9386    0.0000 O   0  0  0  0  0  0  0  0  0  0  0  0
    2.6477   -2.0429    0.0000 C   0  0  0  0  0  0  0  0  0  0  0  0
    2.9888   -0.5822    0.0000 C   0  0  0  0  0  0  0  0  0  0  0  0
    4.4243   -0.1472    0.0000 C   0  0  0  0  0  0  0  0  0  0  0  0
    4.7654    1.3135    0.0000 C   0  0  0  0  0  0  0  0  0  0  0  0
    6.2009    1.7485    0.0000 O   0  0  0  0  0  0  0  0  0  0  0  0
    7.2954    0.7227    0.0000 S   0  0  0  0  0  0  0  0  0  0  0  0
    6.2697   -0.3717    0.0000 O   0  0  0  0  0  0  0  0  0  0  0  0
    8.3211    1.8172    0.0000 O   0  0  0  0  0  0  0  0  0  0  0  0
    8.3899   -0.3030    0.0000 O   0  0  0  0  0  0  0  0  0  0  0  0
    3.6709    2.3392    0.0000 C   0  0  0  0  0  0  0  0  0  0  0  0
    2.2354    1.9043    0.0000 C   0  0  0  0  0  0  0  0  0  0  0  0
    1.8943    0.4436    0.0000 C   0  0  0  0  0  0  0  0  0  0  0  0
    0.7998    1.4693    0.0000 C   0  0  0  0  0  0  0  0  0  0  0  0
    0.4587    0.0086    0.0000 C   0  0  0  0  0  0  0  0  0  0  0  0
   -0.6357    1.0343    0.0000 C   0  0  0  0  0  0  0  0  0  0  0  0
   -2.0713    0.5993    0.0000 C   0  0  0  0  0  0  0  0  0  0  0  0
   -2.4123   -0.8614    0.0000 C   0  0  0  0  0  0  0  0  0  0  0  0
   -3.6080    0.0444    0.0000 C   0  0  0  0  0  0  0  0  0  0  0  0
  2  1  1  6
  2  3  1  0
  3  4  1  0
  4  5  1  0
  5  6  2  0
  5  7  1  0
  2  8  1  0
  8  9  1  6
  9 10  1  0
 11 10  1  6
 11 12  1  0
 12 13  1  1
 13 14  1  6
 13 15  1  0
 16 15  1  1
 16 17  1  0
 17 18  1  0
 18 19  1  6
 19 20  1  0
 20 21  2  0
 20 22  2  0
 20 23  1  0
 18 24  1  0
 24 25  1  0
 25 26  1  0
 26 27  1  6
 26 28  1  0
 28 29  1  6
 29 30  1  0
 30 31  1  0
 31 32  1  6
 31  8  1  0
 31 11  1  0
 28 12  1  0
 26 16  1  0
M  END
>  <MS_ID>  (143) 
MS0149

>  <SMILES>  (143) 
C[C@H](CCC(=O)O)[C@H]1CC[C@H]2[C@@H]3[C@@H](O)C[C@@H]4C[C@@H](OS(=O)(=O)O)CC[C@]4(C)[C@H]3CC[C@]12C

>  <Structure_dimension>  (143) 
2D

$$$$
MS0150
     RDKit          2D

 28 31  0  0  0  0  0  0  0  0999 V2000
   -7.2657    3.7367    0.0000 C   0  0  0  0  0  0  0  0  0  0  0  0
   -6.9639    2.2673    0.0000 O   0  0  0  0  0  0  0  0  0  0  0  0
   -5.5405    1.7940    0.0000 C   0  0  0  0  0  0  0  0  0  0  0  0
   -4.4189    2.7900    0.0000 O   0  0  0  0  0  0  0  0  0  0  0  0
   -5.2387    0.3247    0.0000 C   0  0  0  0  0  0  0  0  0  0  0  0
   -3.8154   -0.1486    0.0000 C   0  0  0  0  0  0  0  0  0  0  0  0
   -3.5136   -1.6180    0.0000 C   0  0  0  0  0  0  0  0  0  0  0  0
   -4.6352   -2.6140    0.0000 C   0  0  0  0  0  0  0  0  0  0  0  0
   -2.0902   -2.0913    0.0000 C   0  0  0  0  0  0  0  0  0  0  0  0
   -1.6365   -3.5210    0.0000 C   0  0  0  0  0  0  0  0  0  0  0  0
   -0.1366   -3.5313    0.0000 C   0  0  0  0  0  0  0  0  0  0  0  0
    0.3368   -2.1080    0.0000 C   0  0  0  0  0  0  0  0  0  0  0  0
    1.7112   -1.5073    0.0000 C   0  0  0  0  0  0  0  0  0  0  0  0
    2.9187   -2.3973    0.0000 C   0  0  0  0  0  0  0  0  0  0  0  0
    4.2932   -1.7966    0.0000 C   0  0  0  0  0  0  0  0  0  0  0  0
    4.4602   -0.3060    0.0000 C   0  0  0  0  0  0  0  0  0  0  0  0
    5.8347    0.2947    0.0000 C   0  0  0  0  0  0  0  0  0  0  0  0
    6.0017    1.7854    0.0000 C   0  0  0  0  0  0  0  0  0  0  0  0
    7.3762    2.3861    0.0000 O   0  0  0  0  0  0  0  0  0  0  0  0
    4.7943    2.6754    0.0000 C   0  0  0  0  0  0  0  0  0  0  0  0
    3.4198    2.0747    0.0000 C   0  0  0  0  0  0  0  0  0  0  0  0
    3.2528    0.5840    0.0000 C   0  0  0  0  0  0  0  0  0  0  0  0
    2.0453    1.4740    0.0000 C   0  0  0  0  0  0  0  0  0  0  0  0
    1.8783   -0.0166    0.0000 C   0  0  0  0  0  0  0  0  0  0  0  0
    0.6708    0.8734    0.0000 C   0  0  0  0  0  0  0  0  0  0  0  0
   -0.7036    0.2727    0.0000 C   0  0  0  0  0  0  0  0  0  0  0  0
   -0.8707   -1.2180    0.0000 C   0  0  0  0  0  0  0  0  0  0  0  0
   -2.1645   -0.4591    0.0000 C   0  0  0  0  0  0  0  0  0  0  0  0
  1  2  1  0
  2  3  1  0
  3  4  2  0
  3  5  1  0
  5  6  1  0
  6  7  1  0
  7  8  1  6
  7  9  1  0
  9 10  1  6
 10 11  1  0
 12 11  1  6
 12 13  1  0
 13 14  1  1
 14 15  1  0
 16 15  1  1
 16 17  1  0
 17 18  1  0
 18 19  2  0
 18 20  1  0
 20 21  1  0
 21 22  1  0
 22 23  1  6
 22 24  1  0
 24 25  1  6
 25 26  1  0
 26 27  1  0
 27 28  1  6
 27  9  1  0
 27 12  1  0
 24 13  1  0
 22 16  1  0
M  END
>  <MS_ID>  (144) 
MS0150

>  <SMILES>  (144) 
COC(=O)CC[C@@H](C)[C@H]1CC[C@H]2[C@@H]3CC[C@@H]4CC(=O)CC[C@]4(C)[C@H]3CC[C@]12C

>  <Structure_dimension>  (144) 
2D

$$$$
MS0151
     RDKit          2D

 29 32  0  0  0  0  0  0  0  0999 V2000
   -5.0303   -2.1373    0.0000 C   0  0  0  0  0  0  0  0  0  0  0  0
   -3.8594   -1.1998    0.0000 C   0  0  0  0  0  0  0  0  0  0  0  0
   -4.0858    0.2830    0.0000 C   0  0  0  0  0  0  0  0  0  0  0  0
   -5.4831    0.8284    0.0000 C   0  0  0  0  0  0  0  0  0  0  0  0
   -5.7095    2.3112    0.0000 C   0  0  0  0  0  0  0  0  0  0  0  0
   -7.1069    2.8565    0.0000 O   0  0  0  0  0  0  0  0  0  0  0  0
   -4.5386    3.2487    0.0000 S   0  0  0  0  0  0  0  0  0  0  0  0
   -2.4620   -1.7451    0.0000 C   0  0  0  0  0  0  0  0  0  0  0  0
   -2.0818   -3.1961    0.0000 C   0  0  0  0  0  0  0  0  0  0  0  0
   -0.5844   -3.2830    0.0000 C   0  0  0  0  0  0  0  0  0  0  0  0
   -0.0390   -1.8856    0.0000 C   0  0  0  0  0  0  0  0  0  0  0  0
    1.3643   -1.3559    0.0000 C   0  0  0  0  0  0  0  0  0  0  0  0
    2.5248   -2.3063    0.0000 C   0  0  0  0  0  0  0  0  0  0  0  0
    2.2819   -3.7865    0.0000 O   0  0  0  0  0  0  0  0  0  0  0  0
    3.9281   -1.7765    0.0000 C   0  0  0  0  0  0  0  0  0  0  0  0
    4.1710   -0.2963    0.0000 C   0  0  0  0  0  0  0  0  0  0  0  0
    5.5743    0.2334    0.0000 C   0  0  0  0  0  0  0  0  0  0  0  0
    5.8172    1.7136    0.0000 C   0  0  0  0  0  0  0  0  0  0  0  0
    7.2205    2.2434    0.0000 O   0  0  0  0  0  0  0  0  0  0  0  0
    4.6568    2.6641    0.0000 C   0  0  0  0  0  0  0  0  0  0  0  0
    3.2534    2.1343    0.0000 C   0  0  0  0  0  0  0  0  0  0  0  0
    3.0105    0.6541    0.0000 C   0  0  0  0  0  0  0  0  0  0  0  0
    1.8501    1.6046    0.0000 C   0  0  0  0  0  0  0  0  0  0  0  0
    1.6072    0.1244    0.0000 C   0  0  0  0  0  0  0  0  0  0  0  0
    0.4467    1.0748    0.0000 C   0  0  0  0  0  0  0  0  0  0  0  0
   -0.9566    0.5450    0.0000 C   0  0  0  0  0  0  0  0  0  0  0  0
   -2.1170    1.4955    0.0000 O   0  0  0  0  0  0  0  0  0  0  0  0
   -1.1995   -0.9352    0.0000 C   0  0  0  0  0  0  0  0  0  0  0  0
   -2.4529   -0.1112    0.0000 C   0  0  0  0  0  0  0  0  0  0  0  0
  2  1  1  6
  2  3  1  0
  3  4  1  0
  4  5  1  0
  5  6  2  0
  5  7  1  0
  2  8  1  0
  8  9  1  6
  9 10  1  0
 11 10  1  6
 11 12  1  0
 12 13  1  1
 13 14  1  1
 13 15  1  0
 16 15  1  1
 16 17  1  0
 17 18  1  0
 18 19  1  1
 18 20  1  0
 20 21  1  0
 21 22  1  0
 22 23  1  6
 22 24  1  0
 24 25  1  6
 25 26  1  0
 26 27  2  0
 26 28  1  0
 28 29  1  6
 28  8  1  0
 28 11  1  0
 24 12  1  0
 22 16  1  0
M  END
>  <MS_ID>  (145) 
MS0151

>  <SMILES>  (145) 
C[C@H](CCC(=O)S)[C@H]1CC[C@H]2[C@@H]3[C@H](O)C[C@@H]4C[C@H](O)CC[C@]4(C)[C@H]3CC(=O)[C@]12C

>  <Structure_dimension>  (145) 
2D

$$$$
MS0152
     RDKit          2D

 30 33  0  0  0  0  0  0  0  0999 V2000
   -4.5685   -2.6908    0.0000 C   0  0  0  0  0  0  0  0  0  0  0  0
   -3.4838   -1.6548    0.0000 C   0  0  0  0  0  0  0  0  0  0  0  0
   -3.8388   -0.1974    0.0000 C   0  0  0  0  0  0  0  0  0  0  0  0
   -5.2784    0.2240    0.0000 C   0  0  0  0  0  0  0  0  0  0  0  0
   -5.6333    1.6814    0.0000 C   0  0  0  0  0  0  0  0  0  0  0  0
   -4.5486    2.7174    0.0000 O   0  0  0  0  0  0  0  0  0  0  0  0
   -7.0729    2.1027    0.0000 C   0  0  0  0  0  0  0  0  0  0  0  0
   -7.4279    3.5601    0.0000 O   0  0  0  0  0  0  0  0  0  0  0  0
   -2.0442   -2.0761    0.0000 C   0  0  0  0  0  0  0  0  0  0  0  0
   -1.5389   -3.4884    0.0000 C   0  0  0  0  0  0  0  0  0  0  0  0
   -0.0395   -3.4442    0.0000 C   0  0  0  0  0  0  0  0  0  0  0  0
    0.3818   -2.0046    0.0000 C   0  0  0  0  0  0  0  0  0  0  0  0
    1.7336   -1.3544    0.0000 C   0  0  0  0  0  0  0  0  0  0  0  0
    2.9725   -2.1999    0.0000 C   0  0  0  0  0  0  0  0  0  0  0  0
    2.8597   -3.6957    0.0000 O   0  0  0  0  0  0  0  0  0  0  0  0
    4.3243   -1.5497    0.0000 C   0  0  0  0  0  0  0  0  0  0  0  0
    4.4371   -0.0540    0.0000 C   0  0  0  0  0  0  0  0  0  0  0  0
    5.7888    0.5962    0.0000 C   0  0  0  0  0  0  0  0  0  0  0  0
    5.9016    2.0920    0.0000 C   0  0  0  0  0  0  0  0  0  0  0  0
    7.2534    2.7422    0.0000 O   0  0  0  0  0  0  0  0  0  0  0  0
    4.6627    2.9375    0.0000 C   0  0  0  0  0  0  0  0  0  0  0  0
    3.3109    2.2873    0.0000 C   0  0  0  0  0  0  0  0  0  0  0  0
    3.1981    0.7916    0.0000 C   0  0  0  0  0  0  0  0  0  0  0  0
    1.9591    1.6371    0.0000 C   0  0  0  0  0  0  0  0  0  0  0  0
    1.8464    0.1414    0.0000 C   0  0  0  0  0  0  0  0  0  0  0  0
    0.6074    0.9869    0.0000 C   0  0  0  0  0  0  0  0  0  0  0  0
   -0.7444    0.3367    0.0000 C   0  0  0  0  0  0  0  0  0  0  0  0
   -1.9833    1.1823    0.0000 O   0  0  0  0  0  0  0  0  0  0  0  0
   -0.8572   -1.1590    0.0000 C   0  0  0  0  0  0  0  0  0  0  0  0
   -2.1777   -0.4476    0.0000 C   0  0  0  0  0  0  0  0  0  0  0  0
  2  1  1  6
  2  3  1  0
  3  4  1  0
  4  5  1  0
  5  6  2  0
  5  7  1  0
  7  8  1  0
  2  9  1  0
  9 10  1  6
 10 11  1  0
 12 11  1  6
 12 13  1  0
 13 14  1  1
 14 15  1  1
 14 16  1  0
 17 16  1  1
 17 18  1  0
 18 19  1  0
 19 20  1  6
 19 21  1  0
 21 22  1  0
 22 23  1  0
 23 24  1  6
 23 25  1  0
 25 26  1  6
 26 27  1  0
 27 28  1  1
 27 29  1  0
 29 30  1  6
 29  9  1  0
 29 12  1  0
 25 13  1  0
 23 17  1  0
M  END
>  <MS_ID>  (146) 
MS0152

>  <SMILES>  (146) 
C[C@H](CCC(=O)CO)[C@H]1CC[C@H]2[C@@H]3[C@H](O)C[C@@H]4C[C@@H](O)CC[C@]4(C)[C@H]3C[C@H](O)[C@]12C

>  <Structure_dimension>  (146) 
2D

$$$$
MS0153
     RDKit          2D

 27 30  0  0  0  0  0  0  0  0999 V2000
   -5.3897   -1.6258    0.0000 C   0  0  0  0  0  0  0  0  0  0  0  0
   -4.1621   -0.7638    0.0000 C   0  0  0  0  0  0  0  0  0  0  0  0
   -4.2949    0.7303    0.0000 C   0  0  0  0  0  0  0  0  0  0  0  0
   -5.6552    1.3624    0.0000 C   0  0  0  0  0  0  0  0  0  0  0  0
   -5.7879    2.8565    0.0000 C   0  0  0  0  0  0  0  0  0  0  0  0
   -7.1482    3.4887    0.0000 O   0  0  0  0  0  0  0  0  0  0  0  0
   -2.8018   -1.3960    0.0000 C   0  0  0  0  0  0  0  0  0  0  0  0
   -2.5137   -2.8680    0.0000 C   0  0  0  0  0  0  0  0  0  0  0  0
   -1.0246   -3.0489    0.0000 C   0  0  0  0  0  0  0  0  0  0  0  0
   -0.3925   -1.6886    0.0000 C   0  0  0  0  0  0  0  0  0  0  0  0
    1.0414   -1.2481    0.0000 C   0  0  0  0  0  0  0  0  0  0  0  0
    2.1398   -2.2697    0.0000 C   0  0  0  0  0  0  0  0  0  0  0  0
    1.8043   -3.7317    0.0000 O   0  0  0  0  0  0  0  0  0  0  0  0
    3.5736   -1.8292    0.0000 C   0  0  0  0  0  0  0  0  0  0  0  0
    3.9091   -0.3672    0.0000 C   0  0  0  0  0  0  0  0  0  0  0  0
    5.3430    0.0733    0.0000 C   0  0  0  0  0  0  0  0  0  0  0  0
    5.6785    1.5353    0.0000 C   0  0  0  0  0  0  0  0  0  0  0  0
    7.1124    1.9757    0.0000 O   0  0  0  0  0  0  0  0  0  0  0  0
    4.5801    2.5568    0.0000 C   0  0  0  0  0  0  0  0  0  0  0  0
    3.1462    2.1163    0.0000 C   0  0  0  0  0  0  0  0  0  0  0  0
    2.8107    0.6543    0.0000 C   0  0  0  0  0  0  0  0  0  0  0  0
    1.7124    1.6759    0.0000 C   0  0  0  0  0  0  0  0  0  0  0  0
    1.3769    0.2139    0.0000 C   0  0  0  0  0  0  0  0  0  0  0  0
    0.2785    1.2354    0.0000 C   0  0  0  0  0  0  0  0  0  0  0  0
   -1.1554    0.7950    0.0000 C   0  0  0  0  0  0  0  0  0  0  0  0
   -1.4909   -0.6670    0.0000 C   0  0  0  0  0  0  0  0  0  0  0  0
   -2.6900    0.2341    0.0000 C   0  0  0  0  0  0  0  0  0  0  0  0
  2  1  1  6
  2  3  1  0
  3  4  1  0
  4  5  1  0
  5  6  2  0
  2  7  1  0
  7  8  1  6
  8  9  1  0
 10  9  1  6
 10 11  1  0
 11 12  1  1
 12 13  1  1
 12 14  1  0
 15 14  1  1
 15 16  1  0
 16 17  1  0
 17 18  1  1
 17 19  1  0
 19 20  1  0
 20 21  1  0
 21 22  1  6
 21 23  1  0
 23 24  1  6
 24 25  1  0
 25 26  1  0
 26 27  1  6
 26  7  1  0
 26 10  1  0
 23 11  1  0
 21 15  1  0
M  END
>  <MS_ID>  (147) 
MS0153

>  <SMILES>  (147) 
C[C@H](CCC=O)[C@H]1CC[C@H]2[C@@H]3[C@H](O)C[C@@H]4C[C@H](O)CC[C@]4(C)[C@H]3CC[C@]12C

>  <Structure_dimension>  (147) 
2D

$$$$
MS0154
     RDKit          2D

 30 33  0  0  0  0  0  0  0  0999 V2000
   -5.6962   -1.8759    0.0000 C   0  0  0  0  0  0  0  0  0  0  0  0
   -4.4381   -1.0589    0.0000 C   0  0  0  0  0  0  0  0  0  0  0  0
   -4.5166    0.4390    0.0000 C   0  0  0  0  0  0  0  0  0  0  0  0
   -5.8531    1.1200    0.0000 C   0  0  0  0  0  0  0  0  0  0  0  0
   -5.9315    2.6180    0.0000 C   0  0  0  0  0  0  0  0  0  0  0  0
   -4.6735    3.4349    0.0000 O   0  0  0  0  0  0  0  0  0  0  0  0
   -7.2680    3.2990    0.0000 O   0  0  0  0  0  0  0  0  0  0  0  0
   -3.1016   -1.7400    0.0000 C   0  0  0  0  0  0  0  0  0  0  0  0
   -2.8670   -3.2215    0.0000 C   0  0  0  0  0  0  0  0  0  0  0  0
   -1.3855   -3.4562    0.0000 C   0  0  0  0  0  0  0  0  0  0  0  0
   -0.7045   -2.1197    0.0000 C   0  0  0  0  0  0  0  0  0  0  0  0
    0.7444   -1.7315    0.0000 C   0  0  0  0  0  0  0  0  0  0  0  0
    1.8050   -2.7922    0.0000 C   0  0  0  0  0  0  0  0  0  0  0  0
    3.2540   -2.4040    0.0000 C   0  0  0  0  0  0  0  0  0  0  0  0
    3.6422   -0.9551    0.0000 C   0  0  0  0  0  0  0  0  0  0  0  0
    5.0911   -0.5670    0.0000 C   0  0  0  0  0  0  0  0  0  0  0  0
    5.4794    0.8819    0.0000 C   0  0  0  0  0  0  0  0  0  0  0  0
    6.9283    1.2701    0.0000 C   0  0  0  0  0  0  0  0  0  0  0  0
    7.3166    2.7190    0.0000 O   0  0  0  0  0  0  0  0  0  0  0  0
    7.9889    0.2094    0.0000 O   0  0  0  0  0  0  0  0  0  0  0  0
    4.4188    1.9426    0.0000 C   0  0  0  0  0  0  0  0  0  0  0  0
    2.9699    1.5544    0.0000 C   0  0  0  0  0  0  0  0  0  0  0  0
    2.5816    0.1055    0.0000 C   0  0  0  0  0  0  0  0  0  0  0  0
    1.5210    1.1662    0.0000 C   0  0  0  0  0  0  0  0  0  0  0  0
    1.1327   -0.2826    0.0000 C   0  0  0  0  0  0  0  0  0  0  0  0
    0.0721    0.7781    0.0000 C   0  0  0  0  0  0  0  0  0  0  0  0
   -1.3768    0.3899    0.0000 C   0  0  0  0  0  0  0  0  0  0  0  0
   -2.4375    1.4506    0.0000 O   0  0  0  0  0  0  0  0  0  0  0  0
   -1.7651   -1.0590    0.0000 C   0  0  0  0  0  0  0  0  0  0  0  0
   -2.9308   -0.1150    0.0000 C   0  0  0  0  0  0  0  0  0  0  0  0
  2  1  1  6
  2  3  1  0
  3  4  1  0
  4  5  1  0
  5  6  2  0
  5  7  1  0
  2  8  1  0
  8  9  1  6
  9 10  1  0
 11 10  1  6
 11 12  1  0
 12 13  1  1
 13 14  1  0
 15 14  1  1
 15 16  1  0
 16 17  1  0
 17 18  1  1
 18 19  2  0
 18 20  1  0
 17 21  1  0
 21 22  1  0
 22 23  1  0
 23 24  1  6
 23 25  1  0
 25 26  1  6
 26 27  1  0
 27 28  1  1
 27 29  1  0
 29 30  1  6
 29  8  1  0
 29 11  1  0
 25 12  1  0
 23 15  1  0
M  END
>  <MS_ID>  (148) 
MS0154

>  <SMILES>  (148) 
C[C@H](CCC(=O)O)[C@H]1CC[C@H]2[C@@H]3CC[C@@H]4C[C@H](C(=O)O)CC[C@]4(C)[C@H]3C[C@H](O)[C@]12C

>  <Structure_dimension>  (148) 
2D

$$$$
MS0155
     RDKit          2D

 35 38  0  0  0  0  0  0  0  0999 V2000
   -2.0868   -4.2411    0.0000 C   0  0  0  0  0  0  0  0  0  0  0  0
   -1.3820   -2.9170    0.0000 C   0  0  0  0  0  0  0  0  0  0  0  0
   -2.1764   -1.6446    0.0000 C   0  0  0  0  0  0  0  0  0  0  0  0
   -3.6755   -1.6963    0.0000 C   0  0  0  0  0  0  0  0  0  0  0  0
   -4.4698   -0.4239    0.0000 C   0  0  0  0  0  0  0  0  0  0  0  0
   -3.7650    0.9002    0.0000 O   0  0  0  0  0  0  0  0  0  0  0  0
   -5.9689   -0.4756    0.0000 C   0  0  0  0  0  0  0  0  0  0  0  0
   -6.7632    0.7968    0.0000 C   0  0  0  0  0  0  0  0  0  0  0  0
   -8.2623    0.7451    0.0000 C   0  0  0  0  0  0  0  0  0  0  0  0
   -9.0567    2.0176    0.0000 C   0  0  0  0  0  0  0  0  0  0  0  0
  -10.5558    1.9659    0.0000 C   0  0  0  0  0  0  0  0  0  0  0  0
  -11.2606    0.6417    0.0000 O   0  0  0  0  0  0  0  0  0  0  0  0
  -11.3501    3.2383    0.0000 O   0  0  0  0  0  0  0  0  0  0  0  0
    0.1171   -2.8653    0.0000 C   0  0  0  0  0  0  0  0  0  0  0  0
    1.0401   -4.0477    0.0000 C   0  0  0  0  0  0  0  0  0  0  0  0
    2.4498   -3.5353    0.0000 C   0  0  0  0  0  0  0  0  0  0  0  0
    2.3981   -2.0362    0.0000 C   0  0  0  0  0  0  0  0  0  0  0  0
    3.4776   -0.9947    0.0000 C   0  0  0  0  0  0  0  0  0  0  0  0
    4.9193   -1.4088    0.0000 C   0  0  0  0  0  0  0  0  0  0  0  0
    5.2815   -2.8644    0.0000 O   0  0  0  0  0  0  0  0  0  0  0  0
    5.9987   -0.3672    0.0000 C   0  0  0  0  0  0  0  0  0  0  0  0
    7.4405   -0.7813    0.0000 O   0  0  0  0  0  0  0  0  0  0  0  0
    5.6365    1.0884    0.0000 C   0  0  0  0  0  0  0  0  0  0  0  0
    6.7160    2.1299    0.0000 C   0  0  0  0  0  0  0  0  0  0  0  0
    6.3537    3.5855    0.0000 C   0  0  0  0  0  0  0  0  0  0  0  0
    7.4332    4.6270    0.0000 O   0  0  0  0  0  0  0  0  0  0  0  0
    4.9120    3.9996    0.0000 C   0  0  0  0  0  0  0  0  0  0  0  0
    3.8325    2.9580    0.0000 C   0  0  0  0  0  0  0  0  0  0  0  0
    4.1948    1.5024    0.0000 C   0  0  0  0  0  0  0  0  0  0  0  0
    2.7531    1.9165    0.0000 C   0  0  0  0  0  0  0  0  0  0  0  0
    3.1153    0.4609    0.0000 C   0  0  0  0  0  0  0  0  0  0  0  0
    1.6736    0.8750    0.0000 C   0  0  0  0  0  0  0  0  0  0  0  0
    0.5941   -0.1665    0.0000 C   0  0  0  0  0  0  0  0  0  0  0  0
    0.9564   -1.6221    0.0000 C   0  0  0  0  0  0  0  0  0  0  0  0
   -0.5207   -1.3610    0.0000 C   0  0  0  0  0  0  0  0  0  0  0  0
  2  1  1  6
  2  3  1  0
  3  4  1  0
  4  5  1  0
  5  6  2  0
  5  7  1  0
  7  8  1  0
  8  9  1  0
  9 10  1  0
 10 11  1  0
 11 12  2  0
 11 13  1  0
  2 14  1  0
 14 15  1  6
 15 16  1  0
 17 16  1  6
 17 18  1  0
 18 19  1  1
 19 20  1  1
 19 21  1  0
 21 22  1  1
 21 23  1  0
 23 24  1  1
 24 25  1  0
 25 26  1  1
 25 27  1  0
 27 28  1  0
 28 29  1  0
 29 30  1  6
 29 31  1  0
 31 32  1  6
 32 33  1  0
 33 34  1  0
 34 35  1  6
 34 14  1  0
 34 17  1  0
 31 18  1  0
 29 23  1  0
M  END
>  <MS_ID>  (149) 
MS0155

>  <SMILES>  (149) 
C[C@H](CCC(=O)CCCCC(=O)O)[C@H]1CC[C@H]2[C@@H]3[C@H](O)[C@H](O)[C@@H]4C[C@H](O)CC[C@]4(C)[C@H]3CC[C@]12C

>  <Structure_dimension>  (149) 
2D

$$$$
MS0156
     RDKit          2D

 32 35  0  0  0  0  0  0  0  0999 V2000
   -3.6519   -3.4889    0.0000 C   0  0  0  0  0  0  0  0  0  0  0  0
   -2.7185   -2.3147    0.0000 C   0  0  0  0  0  0  0  0  0  0  0  0
   -3.2687   -0.9192    0.0000 C   0  0  0  0  0  0  0  0  0  0  0  0
   -4.7523   -0.6980    0.0000 C   0  0  0  0  0  0  0  0  0  0  0  0
   -5.3024    0.6975    0.0000 C   0  0  0  0  0  0  0  0  0  0  0  0
   -4.3690    1.8717    0.0000 O   0  0  0  0  0  0  0  0  0  0  0  0
   -6.7860    0.9188    0.0000 C   0  0  0  0  0  0  0  0  0  0  0  0
   -7.3362    2.3142    0.0000 C   0  0  0  0  0  0  0  0  0  0  0  0
   -6.4028    3.4884    0.0000 O   0  0  0  0  0  0  0  0  0  0  0  0
   -8.8198    2.5355    0.0000 O   0  0  0  0  0  0  0  0  0  0  0  0
   -1.2349   -2.5360    0.0000 C   0  0  0  0  0  0  0  0  0  0  0  0
   -0.5419   -3.8663    0.0000 C   0  0  0  0  0  0  0  0  0  0  0  0
    0.9375   -3.6183    0.0000 C   0  0  0  0  0  0  0  0  0  0  0  0
    1.1587   -2.1347    0.0000 C   0  0  0  0  0  0  0  0  0  0  0  0
    2.4093   -1.3064    0.0000 C   0  0  0  0  0  0  0  0  0  0  0  0
    3.7519   -1.9753    0.0000 C   0  0  0  0  0  0  0  0  0  0  0  0
    3.8439   -3.4725    0.0000 O   0  0  0  0  0  0  0  0  0  0  0  0
    5.0025   -1.1470    0.0000 C   0  0  0  0  0  0  0  0  0  0  0  0
    4.9105    0.3502    0.0000 C   0  0  0  0  0  0  0  0  0  0  0  0
    6.1611    1.1784    0.0000 C   0  0  0  0  0  0  0  0  0  0  0  0
    6.0690    2.6756    0.0000 C   0  0  0  0  0  0  0  0  0  0  0  0
    7.3196    3.5039    0.0000 O   0  0  0  0  0  0  0  0  0  0  0  0
    4.7264    3.3445    0.0000 C   0  0  0  0  0  0  0  0  0  0  0  0
    3.4759    2.5162    0.0000 C   0  0  0  0  0  0  0  0  0  0  0  0
    3.5679    1.0191    0.0000 C   0  0  0  0  0  0  0  0  0  0  0  0
    2.2253    1.6879    0.0000 C   0  0  0  0  0  0  0  0  0  0  0  0
    2.3173    0.1908    0.0000 C   0  0  0  0  0  0  0  0  0  0  0  0
    0.9747    0.8597    0.0000 C   0  0  0  0  0  0  0  0  0  0  0  0
   -0.2759    0.0314    0.0000 C   0  0  0  0  0  0  0  0  0  0  0  0
   -1.6185    0.7003    0.0000 O   0  0  0  0  0  0  0  0  0  0  0  0
   -0.1839   -1.4658    0.0000 C   0  0  0  0  0  0  0  0  0  0  0  0
   -1.5890   -0.9409    0.0000 C   0  0  0  0  0  0  0  0  0  0  0  0
  2  1  1  6
  2  3  1  0
  3  4  1  0
  4  5  1  0
  5  6  2  0
  5  7  1  0
  7  8  1  0
  8  9  2  0
  8 10  1  0
  2 11  1  0
 11 12  1  6
 12 13  1  0
 14 13  1  6
 14 15  1  0
 15 16  1  1
 16 17  2  0
 16 18  1  0
 19 18  1  1
 19 20  1  0
 20 21  1  0
 21 22  1  1
 21 23  1  0
 23 24  1  0
 24 25  1  0
 25 26  1  6
 25 27  1  0
 27 28  1  6
 28 29  1  0
 29 30  1  1
 29 31  1  0
 31 32  1  6
 31 11  1  0
 31 14  1  0
 27 15  1  0
 25 19  1  0
M  END
>  <MS_ID>  (150) 
MS0156

>  <SMILES>  (150) 
C[C@H](CCC(=O)CC(=O)O)[C@H]1CC[C@H]2[C@@H]3C(=O)C[C@@H]4C[C@H](O)CC[C@]4(C)[C@H]3C[C@H](O)[C@]12C

>  <Structure_dimension>  (150) 
2D

$$$$
MS0158
     RDKit          2D

 35 38  0  0  0  0  0  0  0  0999 V2000
   -1.6055   -4.5588    0.0000 C   0  0  0  0  0  0  0  0  0  0  0  0
   -0.9083   -3.2307    0.0000 C   0  0  0  0  0  0  0  0  0  0  0  0
   -1.7099   -1.9628    0.0000 C   0  0  0  0  0  0  0  0  0  0  0  0
   -3.2087   -2.0231    0.0000 C   0  0  0  0  0  0  0  0  0  0  0  0
   -4.0103   -0.7553    0.0000 C   0  0  0  0  0  0  0  0  0  0  0  0
   -3.3131    0.5729    0.0000 O   0  0  0  0  0  0  0  0  0  0  0  0
   -5.5091   -0.8155    0.0000 N   0  0  0  0  0  0  0  0  0  0  0  0
   -6.3107    0.4523    0.0000 C   0  0  0  0  0  0  0  0  0  0  0  0
   -7.8095    0.3920    0.0000 C   0  0  0  0  0  0  0  0  0  0  0  0
   -8.6111    1.6599    0.0000 C   0  0  0  0  0  0  0  0  0  0  0  0
   -7.9139    2.9880    0.0000 O   0  0  0  0  0  0  0  0  0  0  0  0
  -10.1099    1.5996    0.0000 O   0  0  0  0  0  0  0  0  0  0  0  0
   -5.6135    1.7804    0.0000 C   0  0  0  0  0  0  0  0  0  0  0  0
   -4.1147    1.8407    0.0000 O   0  0  0  0  0  0  0  0  0  0  0  0
   -6.4151    3.0483    0.0000 O   0  0  0  0  0  0  0  0  0  0  0  0
    0.5905   -3.1704    0.0000 C   0  0  0  0  0  0  0  0  0  0  0  0
    1.5202   -4.3475    0.0000 C   0  0  0  0  0  0  0  0  0  0  0  0
    2.9270   -3.8270    0.0000 C   0  0  0  0  0  0  0  0  0  0  0  0
    2.8667   -2.3282    0.0000 C   0  0  0  0  0  0  0  0  0  0  0  0
    3.9402   -1.2805    0.0000 C   0  0  0  0  0  0  0  0  0  0  0  0
    5.3843   -1.6864    0.0000 C   0  0  0  0  0  0  0  0  0  0  0  0
    6.4578   -0.6387    0.0000 C   0  0  0  0  0  0  0  0  0  0  0  0
    6.0872    0.8148    0.0000 C   0  0  0  0  0  0  0  0  0  0  0  0
    7.1607    1.8625    0.0000 C   0  0  0  0  0  0  0  0  0  0  0  0
    6.7901    3.3160    0.0000 C   0  0  0  0  0  0  0  0  0  0  0  0
    7.8636    4.3637    0.0000 O   0  0  0  0  0  0  0  0  0  0  0  0
    5.3460    3.7218    0.0000 C   0  0  0  0  0  0  0  0  0  0  0  0
    4.2725    2.6741    0.0000 C   0  0  0  0  0  0  0  0  0  0  0  0
    4.6431    1.2206    0.0000 C   0  0  0  0  0  0  0  0  0  0  0  0
    3.1991    1.6265    0.0000 C   0  0  0  0  0  0  0  0  0  0  0  0
    3.5696    0.1730    0.0000 C   0  0  0  0  0  0  0  0  0  0  0  0
    2.1256    0.5788    0.0000 C   0  0  0  0  0  0  0  0  0  0  0  0
    1.0521   -0.4689    0.0000 C   0  0  0  0  0  0  0  0  0  0  0  0
    1.4227   -1.9224    0.0000 C   0  0  0  0  0  0  0  0  0  0  0  0
   -0.0559   -1.6698    0.0000 C   0  0  0  0  0  0  0  0  0  0  0  0
  2  1  1  6
  2  3  1  0
  3  4  1  0
  4  5  1  0
  5  6  2  0
  5  7  1  0
  7  8  1  0
  8  9  1  1
  9 10  1  0
 10 11  2  0
 10 12  1  0
  8 13  1  0
 13 14  2  0
 13 15  1  0
  2 16  1  0
 16 17  1  6
 17 18  1  0
 19 18  1  6
 19 20  1  0
 20 21  1  1
 21 22  1  0
 23 22  1  1
 23 24  1  0
 24 25  1  0
 25 26  1  1
 25 27  1  0
 27 28  1  0
 28 29  1  0
 29 30  1  6
 29 31  1  0
 31 32  1  6
 32 33  1  0
 33 34  1  0
 34 35  1  6
 34 16  1  0
 34 19  1  0
 31 20  1  0
 29 23  1  0
M  END
>  <MS_ID>  (151) 
MS0158

>  <SMILES>  (151) 
C[C@H](CCC(=O)N[C@@H](CC(=O)O)C(=O)O)[C@H]1CC[C@H]2[C@@H]3CC[C@@H]4C[C@H](O)CC[C@]4(C)[C@H]3CC[C@]12C

>  <Structure_dimension>  (151) 
2D

$$$$
MS0159
     RDKit          2D

 33 36  0  0  0  0  0  0  0  0999 V2000
   -3.0978   -3.6919    0.0000 C   0  0  0  0  0  0  0  0  0  0  0  0
   -2.2201   -2.4755    0.0000 C   0  0  0  0  0  0  0  0  0  0  0  0
   -2.8347   -1.1072    0.0000 C   0  0  0  0  0  0  0  0  0  0  0  0
   -4.3270   -0.9552    0.0000 C   0  0  0  0  0  0  0  0  0  0  0  0
   -4.9416    0.4131    0.0000 C   0  0  0  0  0  0  0  0  0  0  0  0
   -4.0639    1.6295    0.0000 O   0  0  0  0  0  0  0  0  0  0  0  0
   -6.4339    0.5650    0.0000 C   0  0  0  0  0  0  0  0  0  0  0  0
   -7.0484    1.9333    0.0000 C   0  0  0  0  0  0  0  0  0  0  0  0
   -8.5407    2.0852    0.0000 C   0  0  0  0  0  0  0  0  0  0  0  0
   -9.4184    0.8688    0.0000 O   0  0  0  0  0  0  0  0  0  0  0  0
   -9.1553    3.4535    0.0000 O   0  0  0  0  0  0  0  0  0  0  0  0
   -0.7278   -2.6274    0.0000 C   0  0  0  0  0  0  0  0  0  0  0  0
    0.0264   -3.9240    0.0000 C   0  0  0  0  0  0  0  0  0  0  0  0
    1.4926   -3.6073    0.0000 C   0  0  0  0  0  0  0  0  0  0  0  0
    1.6445   -2.1150    0.0000 C   0  0  0  0  0  0  0  0  0  0  0  0
    2.8552   -1.2294    0.0000 C   0  0  0  0  0  0  0  0  0  0  0  0
    4.2275   -1.8350    0.0000 C   0  0  0  0  0  0  0  0  0  0  0  0
    4.3891   -3.3263    0.0000 O   0  0  0  0  0  0  0  0  0  0  0  0
    5.4381   -0.9494    0.0000 C   0  0  0  0  0  0  0  0  0  0  0  0
    5.2764    0.5419    0.0000 C   0  0  0  0  0  0  0  0  0  0  0  0
    6.4871    1.4275    0.0000 C   0  0  0  0  0  0  0  0  0  0  0  0
    6.3254    2.9188    0.0000 C   0  0  0  0  0  0  0  0  0  0  0  0
    7.5360    3.8044    0.0000 O   0  0  0  0  0  0  0  0  0  0  0  0
    4.9531    3.5244    0.0000 C   0  0  0  0  0  0  0  0  0  0  0  0
    3.7425    2.6388    0.0000 C   0  0  0  0  0  0  0  0  0  0  0  0
    3.9041    1.1475    0.0000 C   0  0  0  0  0  0  0  0  0  0  0  0
    2.5318    1.7531    0.0000 C   0  0  0  0  0  0  0  0  0  0  0  0
    2.6935    0.2619    0.0000 C   0  0  0  0  0  0  0  0  0  0  0  0
    1.3212    0.8675    0.0000 C   0  0  0  0  0  0  0  0  0  0  0  0
    0.1105   -0.0181    0.0000 C   0  0  0  0  0  0  0  0  0  0  0  0
   -1.2618    0.5875    0.0000 O   0  0  0  0  0  0  0  0  0  0  0  0
    0.2722   -1.5094    0.0000 C   0  0  0  0  0  0  0  0  0  0  0  0
   -1.1559   -1.0505    0.0000 C   0  0  0  0  0  0  0  0  0  0  0  0
  2  1  1  6
  2  3  1  0
  3  4  1  0
  4  5  1  0
  5  6  2  0
  5  7  1  0
  7  8  1  0
  8  9  1  0
  9 10  2  0
  9 11  1  0
  2 12  1  0
 12 13  1  6
 13 14  1  0
 15 14  1  6
 15 16  1  0
 16 17  1  1
 17 18  2  0
 17 19  1  0
 20 19  1  1
 20 21  1  0
 21 22  1  0
 22 23  1  1
 22 24  1  0
 24 25  1  0
 25 26  1  0
 26 27  1  6
 26 28  1  0
 28 29  1  6
 29 30  1  0
 30 31  1  1
 30 32  1  0
 32 33  1  6
 32 12  1  0
 32 15  1  0
 28 16  1  0
 26 20  1  0
M  END
>  <MS_ID>  (152) 
MS0159

>  <SMILES>  (152) 
C[C@H](CCC(=O)CCC(=O)O)[C@H]1CC[C@H]2[C@@H]3C(=O)C[C@@H]4C[C@H](O)CC[C@]4(C)[C@H]3C[C@H](O)[C@]12C

>  <Structure_dimension>  (152) 
2D

$$$$
MS0160
     RDKit          2D

 35 38  0  0  0  0  0  0  0  0999 V2000
   -2.4760   -4.2239    0.0000 C   0  0  0  0  0  0  0  0  0  0  0  0
   -1.7169   -2.9302    0.0000 C   0  0  0  0  0  0  0  0  0  0  0  0
   -2.4577   -1.6259    0.0000 C   0  0  0  0  0  0  0  0  0  0  0  0
   -3.9576   -1.6153    0.0000 C   0  0  0  0  0  0  0  0  0  0  0  0
   -4.6984   -0.3110    0.0000 C   0  0  0  0  0  0  0  0  0  0  0  0
   -3.9393    0.9827    0.0000 O   0  0  0  0  0  0  0  0  0  0  0  0
   -6.1984   -0.3004    0.0000 O   0  0  0  0  0  0  0  0  0  0  0  0
   -6.9392    1.0039    0.0000 C   0  0  0  0  0  0  0  0  0  0  0  0
   -8.4391    1.0145    0.0000 C   0  0  0  0  0  0  0  0  0  0  0  0
   -9.1800    2.3188    0.0000 O   0  0  0  0  0  0  0  0  0  0  0  0
   -6.1800    2.2976    0.0000 C   0  0  0  0  0  0  0  0  0  0  0  0
   -4.6801    2.2870    0.0000 O   0  0  0  0  0  0  0  0  0  0  0  0
   -6.9208    3.6019    0.0000 O   0  0  0  0  0  0  0  0  0  0  0  0
   -0.2169   -2.9408    0.0000 C   0  0  0  0  0  0  0  0  0  0  0  0
    0.6562   -4.1606    0.0000 C   0  0  0  0  0  0  0  0  0  0  0  0
    2.0860   -3.7071    0.0000 C   0  0  0  0  0  0  0  0  0  0  0  0
    2.0966   -2.2072    0.0000 C   0  0  0  0  0  0  0  0  0  0  0  0
    3.2184   -1.2114    0.0000 C   0  0  0  0  0  0  0  0  0  0  0  0
    4.6417   -1.6850    0.0000 C   0  0  0  0  0  0  0  0  0  0  0  0
    4.9432   -3.1544    0.0000 O   0  0  0  0  0  0  0  0  0  0  0  0
    5.7634   -0.6892    0.0000 C   0  0  0  0  0  0  0  0  0  0  0  0
    5.4620    0.7802    0.0000 C   0  0  0  0  0  0  0  0  0  0  0  0
    6.5837    1.7760    0.0000 C   0  0  0  0  0  0  0  0  0  0  0  0
    6.2822    3.2454    0.0000 C   0  0  0  0  0  0  0  0  0  0  0  0
    7.4040    4.2412    0.0000 O   0  0  0  0  0  0  0  0  0  0  0  0
    4.8590    3.7190    0.0000 C   0  0  0  0  0  0  0  0  0  0  0  0
    3.7372    2.7232    0.0000 C   0  0  0  0  0  0  0  0  0  0  0  0
    4.0387    1.2538    0.0000 C   0  0  0  0  0  0  0  0  0  0  0  0
    2.6154    1.7274    0.0000 C   0  0  0  0  0  0  0  0  0  0  0  0
    2.9169    0.2580    0.0000 C   0  0  0  0  0  0  0  0  0  0  0  0
    1.4936    0.7316    0.0000 C   0  0  0  0  0  0  0  0  0  0  0  0
    0.3718   -0.2642    0.0000 C   0  0  0  0  0  0  0  0  0  0  0  0
   -1.0514    0.2094    0.0000 O   0  0  0  0  0  0  0  0  0  0  0  0
    0.6733   -1.7336    0.0000 C   0  0  0  0  0  0  0  0  0  0  0  0
   -0.7916   -1.4113    0.0000 C   0  0  0  0  0  0  0  0  0  0  0  0
  2  1  1  6
  2  3  1  0
  3  4  1  0
  4  5  1  0
  5  6  2  0
  5  7  1  0
  7  8  1  0
  8  9  1  1
  9 10  1  0
  8 11  1  0
 11 12  2  0
 11 13  1  0
  2 14  1  0
 14 15  1  6
 15 16  1  0
 17 16  1  6
 17 18  1  0
 18 19  1  1
 19 20  1  1
 19 21  1  0
 22 21  1  1
 22 23  1  0
 23 24  1  0
 24 25  1  1
 24 26  1  0
 26 27  1  0
 27 28  1  0
 28 29  1  6
 28 30  1  0
 30 31  1  6
 31 32  1  0
 32 33  1  1
 32 34  1  0
 34 35  1  6
 34 14  1  0
 34 17  1  0
 30 18  1  0
 28 22  1  0
M  END
>  <MS_ID>  (153) 
MS0160

>  <SMILES>  (153) 
C[C@H](CCC(=O)O[C@@H](CO)C(=O)O)[C@H]1CC[C@H]2[C@@H]3[C@H](O)C[C@@H]4C[C@H](O)CC[C@]4(C)[C@H]3C[C@H](O)[C@]12C

>  <Structure_dimension>  (153) 
2D

$$$$
MS0161
     RDKit          2D

 29 32  0  0  0  0  0  0  0  0999 V2000
   -4.1361   -2.8778    0.0000 C   0  0  0  0  0  0  0  0  0  0  0  0
   -3.1227   -1.7719    0.0000 C   0  0  0  0  0  0  0  0  0  0  0  0
   -3.5738   -0.3413    0.0000 C   0  0  0  0  0  0  0  0  0  0  0  0
   -5.0383   -0.0167    0.0000 C   0  0  0  0  0  0  0  0  0  0  0  0
   -5.4894    1.4138    0.0000 C   0  0  0  0  0  0  0  0  0  0  0  0
   -4.4761    2.5198    0.0000 O   0  0  0  0  0  0  0  0  0  0  0  0
   -6.9539    1.7384    0.0000 C   0  0  0  0  0  0  0  0  0  0  0  0
   -7.4050    3.1690    0.0000 O   0  0  0  0  0  0  0  0  0  0  0  0
   -1.6583   -2.0965    0.0000 C   0  0  0  0  0  0  0  0  0  0  0  0
   -1.0601   -3.4720    0.0000 C   0  0  0  0  0  0  0  0  0  0  0  0
    0.4330   -3.3282    0.0000 C   0  0  0  0  0  0  0  0  0  0  0  0
    0.7576   -1.8638    0.0000 C   0  0  0  0  0  0  0  0  0  0  0  0
    2.0631   -1.1251    0.0000 C   0  0  0  0  0  0  0  0  0  0  0  0
    3.3556   -1.8863    0.0000 C   0  0  0  0  0  0  0  0  0  0  0  0
    3.3426   -3.3863    0.0000 O   0  0  0  0  0  0  0  0  0  0  0  0
    4.6611   -1.1476    0.0000 C   0  0  0  0  0  0  0  0  0  0  0  0
    4.6741    0.3523    0.0000 C   0  0  0  0  0  0  0  0  0  0  0  0
    5.9796    1.0910    0.0000 C   0  0  0  0  0  0  0  0  0  0  0  0
    5.9926    2.5910    0.0000 C   0  0  0  0  0  0  0  0  0  0  0  0
    4.7002    3.3522    0.0000 C   0  0  0  0  0  0  0  0  0  0  0  0
    3.3947    2.6135    0.0000 C   0  0  0  0  0  0  0  0  0  0  0  0
    3.3816    1.1136    0.0000 C   0  0  0  0  0  0  0  0  0  0  0  0
    2.0891    1.8748    0.0000 C   0  0  0  0  0  0  0  0  0  0  0  0
    2.0761    0.3749    0.0000 C   0  0  0  0  0  0  0  0  0  0  0  0
    0.7836    1.1361    0.0000 C   0  0  0  0  0  0  0  0  0  0  0  0
   -0.5219    0.3974    0.0000 C   0  0  0  0  0  0  0  0  0  0  0  0
   -1.8143    1.1587    0.0000 O   0  0  0  0  0  0  0  0  0  0  0  0
   -0.5349   -1.1025    0.0000 C   0  0  0  0  0  0  0  0  0  0  0  0
   -1.8998   -0.4805    0.0000 C   0  0  0  0  0  0  0  0  0  0  0  0
  2  1  1  6
  2  3  1  0
  3  4  1  0
  4  5  1  0
  5  6  2  0
  5  7  1  0
  7  8  1  0
  2  9  1  0
  9 10  1  6
 10 11  1  0
 12 11  1  6
 12 13  1  0
 13 14  1  1
 14 15  1  1
 14 16  1  0
 17 16  1  1
 17 18  1  0
 18 19  1  0
 19 20  1  0
 20 21  1  0
 21 22  1  0
 22 23  1  6
 22 24  1  0
 24 25  1  6
 25 26  1  0
 26 27  1  1
 26 28  1  0
 28 29  1  6
 28  9  1  0
 28 12  1  0
 24 13  1  0
 22 17  1  0
M  END
>  <MS_ID>  (154) 
MS0161

>  <SMILES>  (154) 
C[C@H](CCC(=O)CO)[C@H]1CC[C@H]2[C@@H]3[C@H](O)C[C@@H]4CCCC[C@]4(C)[C@H]3C[C@H](O)[C@]12C

>  <Structure_dimension>  (154) 
2D

$$$$
MS0162
     RDKit          2D

 32 35  0  0  0  0  0  0  0  0999 V2000
   -5.3411   -2.2949    0.0000 C   0  0  0  0  0  0  0  0  0  0  0  0
   -4.3346   -1.1827    0.0000 C   0  0  0  0  0  0  0  0  0  0  0  0
   -4.7946    0.2451    0.0000 C   0  0  0  0  0  0  0  0  0  0  0  0
   -6.2610    0.5606    0.0000 C   0  0  0  0  0  0  0  0  0  0  0  0
   -6.7209    1.9884    0.0000 C   0  0  0  0  0  0  0  0  0  0  0  0
   -8.1874    2.3039    0.0000 O   0  0  0  0  0  0  0  0  0  0  0  0
   -2.8682   -1.4982    0.0000 C   0  0  0  0  0  0  0  0  0  0  0  0
   -2.2616   -2.8701    0.0000 C   0  0  0  0  0  0  0  0  0  0  0  0
   -0.7694   -2.7171    0.0000 C   0  0  0  0  0  0  0  0  0  0  0  0
   -0.4538   -1.2506    0.0000 C   0  0  0  0  0  0  0  0  0  0  0  0
    0.8471   -0.5039    0.0000 C   0  0  0  0  0  0  0  0  0  0  0  0
    2.1442   -1.2572    0.0000 C   0  0  0  0  0  0  0  0  0  0  0  0
    2.1405   -2.7572    0.0000 O   0  0  0  0  0  0  0  0  0  0  0  0
    3.4376   -3.5104    0.0000 S   0  0  0  0  0  0  0  0  0  0  0  0
    4.1909   -2.2133    0.0000 O   0  0  0  0  0  0  0  0  0  0  0  0
    2.6843   -4.8076    0.0000 O   0  0  0  0  0  0  0  0  0  0  0  0
    4.7348   -4.2637    0.0000 O   0  0  0  0  0  0  0  0  0  0  0  0
    3.4452   -0.5104    0.0000 C   0  0  0  0  0  0  0  0  0  0  0  0
    3.4489    0.9896    0.0000 C   0  0  0  0  0  0  0  0  0  0  0  0
    4.7499    1.7363    0.0000 C   0  0  0  0  0  0  0  0  0  0  0  0
    4.7536    3.2363    0.0000 C   0  0  0  0  0  0  0  0  0  0  0  0
    6.0546    3.9830    0.0000 O   0  0  0  0  0  0  0  0  0  0  0  0
    3.4565    3.9895    0.0000 C   0  0  0  0  0  0  0  0  0  0  0  0
    2.1556    3.2428    0.0000 C   0  0  0  0  0  0  0  0  0  0  0  0
    2.1518    1.7428    0.0000 C   0  0  0  0  0  0  0  0  0  0  0  0
    0.8547    2.4961    0.0000 C   0  0  0  0  0  0  0  0  0  0  0  0
    0.8509    0.9961    0.0000 C   0  0  0  0  0  0  0  0  0  0  0  0
   -0.4463    1.7494    0.0000 C   0  0  0  0  0  0  0  0  0  0  0  0
   -1.7472    1.0026    0.0000 C   0  0  0  0  0  0  0  0  0  0  0  0
   -3.0443    1.7559    0.0000 O   0  0  0  0  0  0  0  0  0  0  0  0
   -1.7510   -0.4974    0.0000 C   0  0  0  0  0  0  0  0  0  0  0  0
   -3.1197    0.1162    0.0000 C   0  0  0  0  0  0  0  0  0  0  0  0
  2  1  1  6
  2  3  1  0
  3  4  1  0
  4  5  1  0
  5  6  2  0
  2  7  1  0
  7  8  1  6
  8  9  1  0
 10  9  1  6
 10 11  1  0
 11 12  1  1
 12 13  1  1
 13 14  1  0
 14 15  2  0
 14 16  2  0
 14 17  1  0
 12 18  1  0
 19 18  1  1
 19 20  1  0
 20 21  1  0
 21 22  1  1
 21 23  1  0
 23 24  1  0
 24 25  1  0
 25 26  1  6
 25 27  1  0
 27 28  1  6
 28 29  1  0
 29 30  1  1
 29 31  1  0
 31 32  1  6
 31  7  1  0
 31 10  1  0
 27 11  1  0
 25 19  1  0
M  END
>  <MS_ID>  (155) 
MS0162

>  <SMILES>  (155) 
C[C@H](CCC=O)[C@H]1CC[C@H]2[C@@H]3[C@H](OS(=O)(=O)O)C[C@@H]4C[C@H](O)CC[C@]4(C)[C@H]3C[C@H](O)[C@]12C

>  <Structure_dimension>  (155) 
2D

$$$$
MS0163
     RDKit          2D

 33 36  0  0  0  0  0  0  0  0999 V2000
   -3.0978   -3.6919    0.0000 C   0  0  0  0  0  0  0  0  0  0  0  0
   -2.2201   -2.4755    0.0000 C   0  0  0  0  0  0  0  0  0  0  0  0
   -2.8347   -1.1072    0.0000 C   0  0  0  0  0  0  0  0  0  0  0  0
   -4.3270   -0.9552    0.0000 C   0  0  0  0  0  0  0  0  0  0  0  0
   -4.9416    0.4131    0.0000 C   0  0  0  0  0  0  0  0  0  0  0  0
   -4.0639    1.6295    0.0000 O   0  0  0  0  0  0  0  0  0  0  0  0
   -6.4339    0.5650    0.0000 C   0  0  0  0  0  0  0  0  0  0  0  0
   -7.0484    1.9333    0.0000 C   0  0  0  0  0  0  0  0  0  0  0  0
   -8.5407    2.0852    0.0000 C   0  0  0  0  0  0  0  0  0  0  0  0
   -9.4184    0.8688    0.0000 O   0  0  0  0  0  0  0  0  0  0  0  0
   -9.1553    3.4535    0.0000 O   0  0  0  0  0  0  0  0  0  0  0  0
   -0.7278   -2.6274    0.0000 C   0  0  0  0  0  0  0  0  0  0  0  0
    0.0264   -3.9240    0.0000 C   0  0  0  0  0  0  0  0  0  0  0  0
    1.4926   -3.6073    0.0000 C   0  0  0  0  0  0  0  0  0  0  0  0
    1.6445   -2.1150    0.0000 C   0  0  0  0  0  0  0  0  0  0  0  0
    2.8552   -1.2294    0.0000 C   0  0  0  0  0  0  0  0  0  0  0  0
    4.2275   -1.8350    0.0000 C   0  0  0  0  0  0  0  0  0  0  0  0
    4.3891   -3.3263    0.0000 O   0  0  0  0  0  0  0  0  0  0  0  0
    5.4381   -0.9494    0.0000 C   0  0  0  0  0  0  0  0  0  0  0  0
    5.2764    0.5419    0.0000 C   0  0  0  0  0  0  0  0  0  0  0  0
    6.4871    1.4275    0.0000 C   0  0  0  0  0  0  0  0  0  0  0  0
    6.3254    2.9188    0.0000 C   0  0  0  0  0  0  0  0  0  0  0  0
    7.5360    3.8044    0.0000 O   0  0  0  0  0  0  0  0  0  0  0  0
    4.9531    3.5244    0.0000 C   0  0  0  0  0  0  0  0  0  0  0  0
    3.7425    2.6388    0.0000 C   0  0  0  0  0  0  0  0  0  0  0  0
    3.9041    1.1475    0.0000 C   0  0  0  0  0  0  0  0  0  0  0  0
    2.5318    1.7531    0.0000 C   0  0  0  0  0  0  0  0  0  0  0  0
    2.6935    0.2619    0.0000 C   0  0  0  0  0  0  0  0  0  0  0  0
    1.3212    0.8675    0.0000 C   0  0  0  0  0  0  0  0  0  0  0  0
    0.1105   -0.0181    0.0000 C   0  0  0  0  0  0  0  0  0  0  0  0
   -1.2618    0.5875    0.0000 O   0  0  0  0  0  0  0  0  0  0  0  0
    0.2722   -1.5094    0.0000 C   0  0  0  0  0  0  0  0  0  0  0  0
   -1.1559   -1.0505    0.0000 C   0  0  0  0  0  0  0  0  0  0  0  0
  2  1  1  6
  2  3  1  0
  3  4  1  0
  4  5  1  0
  5  6  2  0
  5  7  1  0
  7  8  1  0
  8  9  1  0
  9 10  2  0
  9 11  1  0
  2 12  1  0
 12 13  1  6
 13 14  1  0
 15 14  1  6
 15 16  1  0
 16 17  1  1
 17 18  1  6
 17 19  1  0
 20 19  1  1
 20 21  1  0
 21 22  1  0
 22 23  1  1
 22 24  1  0
 24 25  1  0
 25 26  1  0
 26 27  1  6
 26 28  1  0
 28 29  1  6
 29 30  1  0
 30 31  1  6
 30 32  1  0
 32 33  1  6
 32 12  1  0
 32 15  1  0
 28 16  1  0
 26 20  1  0
M  END
>  <MS_ID>  (156) 
MS0163

>  <SMILES>  (156) 
C[C@H](CCC(=O)CCC(=O)O)[C@H]1CC[C@H]2[C@@H]3[C@@H](O)C[C@@H]4C[C@H](O)CC[C@]4(C)[C@H]3C[C@@H](O)[C@]12C

>  <Structure_dimension>  (156) 
2D

$$$$
MS0164
     RDKit          2D

 31 34  0  0  0  0  0  0  0  0999 V2000
   -4.4281   -2.8097    0.0000 C   0  0  0  0  0  0  0  0  0  0  0  0
   -3.3906   -1.7263    0.0000 C   0  0  0  0  0  0  0  0  0  0  0  0
   -3.8101   -0.2862    0.0000 C   0  0  0  0  0  0  0  0  0  0  0  0
   -5.2670    0.0707    0.0000 C   0  0  0  0  0  0  0  0  0  0  0  0
   -5.6865    1.5108    0.0000 C   0  0  0  0  0  0  0  0  0  0  0  0
   -4.6490    2.5942    0.0000 O   0  0  0  0  0  0  0  0  0  0  0  0
   -7.1434    1.8677    0.0000 N   0  0  0  0  0  0  0  0  0  0  0  0
   -7.5628    3.3078    0.0000 C   0  0  0  0  0  0  0  0  0  0  0  0
   -8.1809    0.7843    0.0000 C   0  0  0  0  0  0  0  0  0  0  0  0
   -1.9337   -2.0832    0.0000 C   0  0  0  0  0  0  0  0  0  0  0  0
   -1.3660   -3.4716    0.0000 C   0  0  0  0  0  0  0  0  0  0  0  0
    0.1299   -3.3608    0.0000 C   0  0  0  0  0  0  0  0  0  0  0  0
    0.4867   -1.9038    0.0000 C   0  0  0  0  0  0  0  0  0  0  0  0
    1.8082   -1.1941    0.0000 C   0  0  0  0  0  0  0  0  0  0  0  0
    3.0836   -1.9837    0.0000 C   0  0  0  0  0  0  0  0  0  0  0  0
    3.0374   -3.4830    0.0000 O   0  0  0  0  0  0  0  0  0  0  0  0
    4.4050   -1.2740    0.0000 C   0  0  0  0  0  0  0  0  0  0  0  0
    5.6804   -2.0636    0.0000 O   0  0  0  0  0  0  0  0  0  0  0  0
    4.4512    0.2253    0.0000 C   0  0  0  0  0  0  0  0  0  0  0  0
    5.7727    0.9350    0.0000 C   0  0  0  0  0  0  0  0  0  0  0  0
    5.8188    2.4343    0.0000 C   0  0  0  0  0  0  0  0  0  0  0  0
    7.1403    3.1440    0.0000 O   0  0  0  0  0  0  0  0  0  0  0  0
    4.5434    3.2239    0.0000 C   0  0  0  0  0  0  0  0  0  0  0  0
    3.2219    2.5142    0.0000 C   0  0  0  0  0  0  0  0  0  0  0  0
    3.1758    1.0149    0.0000 C   0  0  0  0  0  0  0  0  0  0  0  0
    1.9004    1.8045    0.0000 C   0  0  0  0  0  0  0  0  0  0  0  0
    1.8543    0.3052    0.0000 C   0  0  0  0  0  0  0  0  0  0  0  0
    0.5790    1.0948    0.0000 C   0  0  0  0  0  0  0  0  0  0  0  0
   -0.7425    0.3851    0.0000 C   0  0  0  0  0  0  0  0  0  0  0  0
   -0.7887   -1.1142    0.0000 C   0  0  0  0  0  0  0  0  0  0  0  0
   -2.1396   -0.4623    0.0000 C   0  0  0  0  0  0  0  0  0  0  0  0
  2  1  1  6
  2  3  1  0
  3  4  1  0
  4  5  1  0
  5  6  2  0
  5  7  1  0
  7  8  1  0
  7  9  1  0
  2 10  1  0
 10 11  1  6
 11 12  1  0
 13 12  1  6
 13 14  1  0
 14 15  1  1
 15 16  1  1
 15 17  1  0
 17 18  1  1
 17 19  1  0
 19 20  1  1
 20 21  1  0
 21 22  1  1
 21 23  1  0
 23 24  1  0
 24 25  1  0
 25 26  1  6
 25 27  1  0
 27 28  1  6
 28 29  1  0
 29 30  1  0
 30 31  1  6
 30 10  1  0
 30 13  1  0
 27 14  1  0
 25 19  1  0
M  END
>  <MS_ID>  (157) 
MS0164

>  <SMILES>  (157) 
C[C@H](CCC(=O)N(C)C)[C@H]1CC[C@H]2[C@@H]3[C@H](O)[C@H](O)[C@@H]4C[C@H](O)CC[C@]4(C)[C@H]3CC[C@]12C

>  <Structure_dimension>  (157) 
2D

$$$$
MS0165
     RDKit          2D

 29 32  0  0  0  0  0  0  0  0999 V2000
   -5.0303   -2.1373    0.0000 C   0  0  0  0  0  0  0  0  0  0  0  0
   -3.8594   -1.1998    0.0000 C   0  0  0  0  0  0  0  0  0  0  0  0
   -4.0858    0.2830    0.0000 C   0  0  0  0  0  0  0  0  0  0  0  0
   -5.4831    0.8284    0.0000 C   0  0  0  0  0  0  0  0  0  0  0  0
   -5.7095    2.3112    0.0000 C   0  0  0  0  0  0  0  0  0  0  0  0
   -7.1069    2.8565    0.0000 O   0  0  0  0  0  0  0  0  0  0  0  0
   -4.5386    3.2487    0.0000 S   0  0  0  0  0  0  0  0  0  0  0  0
   -2.4620   -1.7451    0.0000 C   0  0  0  0  0  0  0  0  0  0  0  0
   -2.0818   -3.1961    0.0000 C   0  0  0  0  0  0  0  0  0  0  0  0
   -0.5844   -3.2830    0.0000 C   0  0  0  0  0  0  0  0  0  0  0  0
   -0.0390   -1.8856    0.0000 C   0  0  0  0  0  0  0  0  0  0  0  0
    1.3643   -1.3559    0.0000 C   0  0  0  0  0  0  0  0  0  0  0  0
    2.5248   -2.3063    0.0000 C   0  0  0  0  0  0  0  0  0  0  0  0
    2.2819   -3.7865    0.0000 O   0  0  0  0  0  0  0  0  0  0  0  0
    3.9281   -1.7765    0.0000 C   0  0  0  0  0  0  0  0  0  0  0  0
    4.1710   -0.2963    0.0000 C   0  0  0  0  0  0  0  0  0  0  0  0
    5.5743    0.2334    0.0000 C   0  0  0  0  0  0  0  0  0  0  0  0
    5.8172    1.7136    0.0000 C   0  0  0  0  0  0  0  0  0  0  0  0
    7.2205    2.2434    0.0000 O   0  0  0  0  0  0  0  0  0  0  0  0
    4.6568    2.6641    0.0000 C   0  0  0  0  0  0  0  0  0  0  0  0
    3.2534    2.1343    0.0000 C   0  0  0  0  0  0  0  0  0  0  0  0
    3.0105    0.6541    0.0000 C   0  0  0  0  0  0  0  0  0  0  0  0
    1.8501    1.6046    0.0000 C   0  0  0  0  0  0  0  0  0  0  0  0
    1.6072    0.1244    0.0000 C   0  0  0  0  0  0  0  0  0  0  0  0
    0.4467    1.0748    0.0000 C   0  0  0  0  0  0  0  0  0  0  0  0
   -0.9566    0.5450    0.0000 C   0  0  0  0  0  0  0  0  0  0  0  0
   -2.1170    1.4955    0.0000 O   0  0  0  0  0  0  0  0  0  0  0  0
   -1.1995   -0.9352    0.0000 C   0  0  0  0  0  0  0  0  0  0  0  0
   -2.4529   -0.1112    0.0000 C   0  0  0  0  0  0  0  0  0  0  0  0
  2  1  1  6
  2  3  1  0
  3  4  1  0
  4  5  1  0
  5  6  2  0
  5  7  1  0
  2  8  1  0
  8  9  1  6
  9 10  1  0
 11 10  1  6
 11 12  1  0
 12 13  1  1
 13 14  1  6
 13 15  1  0
 16 15  1  1
 16 17  1  0
 17 18  1  0
 18 19  1  1
 18 20  1  0
 20 21  1  0
 21 22  1  0
 22 23  1  6
 22 24  1  0
 24 25  1  6
 25 26  1  0
 26 27  1  1
 26 28  1  0
 28 29  1  6
 28  8  1  0
 28 11  1  0
 24 12  1  0
 22 16  1  0
M  END
>  <MS_ID>  (158) 
MS0165

>  <SMILES>  (158) 
C[C@H](CCC(=O)S)[C@H]1CC[C@H]2[C@@H]3[C@@H](O)C[C@@H]4C[C@H](O)CC[C@]4(C)[C@H]3C[C@H](O)[C@]12C

>  <Structure_dimension>  (158) 
2D

$$$$
MS0166
     RDKit          2D

 32 35  0  0  0  0  0  0  0  0999 V2000
   -2.3825   -4.2073    0.0000 C   0  0  0  0  0  0  0  0  0  0  0  0
   -1.6022   -2.9262    0.0000 C   0  0  0  0  0  0  0  0  0  0  0  0
   -2.3215   -1.6099    0.0000 C   0  0  0  0  0  0  0  0  0  0  0  0
   -3.8211   -1.5747    0.0000 C   0  0  0  0  0  0  0  0  0  0  0  0
   -4.5404   -0.2585    0.0000 C   0  0  0  0  0  0  0  0  0  0  0  0
   -3.7601    1.0226    0.0000 O   0  0  0  0  0  0  0  0  0  0  0  0
   -6.0400   -0.2232    0.0000 N   0  0  0  0  0  0  0  0  0  0  0  0
   -6.7593    1.0930    0.0000 C   0  0  0  0  0  0  0  0  0  0  0  0
   -8.2589    1.1283    0.0000 C   0  0  0  0  0  0  0  0  0  0  0  0
   -8.9782    2.4445    0.0000 C   0  0  0  0  0  0  0  0  0  0  0  0
   -8.1979    3.7256    0.0000 O   0  0  0  0  0  0  0  0  0  0  0  0
  -10.4778    2.4797    0.0000 O   0  0  0  0  0  0  0  0  0  0  0  0
   -0.1026   -2.9614    0.0000 C   0  0  0  0  0  0  0  0  0  0  0  0
    0.7503   -4.1953    0.0000 C   0  0  0  0  0  0  0  0  0  0  0  0
    2.1874   -3.7654    0.0000 C   0  0  0  0  0  0  0  0  0  0  0  0
    2.2226   -2.2658    0.0000 C   0  0  0  0  0  0  0  0  0  0  0  0
    3.3606   -1.2886    0.0000 C   0  0  0  0  0  0  0  0  0  0  0  0
    4.7759   -1.7855    0.0000 C   0  0  0  0  0  0  0  0  0  0  0  0
    5.9138   -0.8082    0.0000 C   0  0  0  0  0  0  0  0  0  0  0  0
    5.6365    0.6659    0.0000 C   0  0  0  0  0  0  0  0  0  0  0  0
    6.7745    1.6432    0.0000 C   0  0  0  0  0  0  0  0  0  0  0  0
    6.4971    3.1173    0.0000 C   0  0  0  0  0  0  0  0  0  0  0  0
    7.6351    4.0946    0.0000 O   0  0  0  0  0  0  0  0  0  0  0  0
    5.0818    3.6142    0.0000 C   0  0  0  0  0  0  0  0  0  0  0  0
    3.9438    2.6370    0.0000 C   0  0  0  0  0  0  0  0  0  0  0  0
    4.2212    1.1628    0.0000 C   0  0  0  0  0  0  0  0  0  0  0  0
    2.8059    1.6597    0.0000 C   0  0  0  0  0  0  0  0  0  0  0  0
    3.0832    0.1856    0.0000 C   0  0  0  0  0  0  0  0  0  0  0  0
    1.6679    0.6825    0.0000 C   0  0  0  0  0  0  0  0  0  0  0  0
    0.5299   -0.2948    0.0000 C   0  0  0  0  0  0  0  0  0  0  0  0
    0.8073   -1.7689    0.0000 C   0  0  0  0  0  0  0  0  0  0  0  0
   -0.6522   -1.4227    0.0000 C   0  0  0  0  0  0  0  0  0  0  0  0
  2  1  1  6
  2  3  1  0
  3  4  1  0
  4  5  1  0
  5  6  2  0
  5  7  1  0
  7  8  1  0
  8  9  1  0
  9 10  1  0
 10 11  2  0
 10 12  1  0
  2 13  1  0
 13 14  1  6
 14 15  1  0
 16 15  1  6
 16 17  1  0
 17 18  1  1
 18 19  1  0
 20 19  1  1
 20 21  1  0
 21 22  1  0
 22 23  1  1
 22 24  1  0
 24 25  1  0
 25 26  1  0
 26 27  1  6
 26 28  1  0
 28 29  1  6
 29 30  1  0
 30 31  1  0
 31 32  1  6
 31 13  1  0
 31 16  1  0
 28 17  1  0
 26 20  1  0
M  END
>  <MS_ID>  (159) 
MS0166

>  <SMILES>  (159) 
C[C@H](CCC(=O)NCCC(=O)O)[C@H]1CC[C@H]2[C@@H]3CC[C@@H]4C[C@H](O)CC[C@]4(C)[C@H]3CC[C@]12C

>  <Structure_dimension>  (159) 
2D

$$$$
MS0167
     RDKit          2D

 35 38  0  0  0  0  0  0  0  0999 V2000
   -2.6584   -4.2186    0.0000 C   0  0  0  0  0  0  0  0  0  0  0  0
   -1.9156   -2.9154    0.0000 C   0  0  0  0  0  0  0  0  0  0  0  0
   -2.6728   -1.6206    0.0000 C   0  0  0  0  0  0  0  0  0  0  0  0
   -4.1728   -1.6289    0.0000 C   0  0  0  0  0  0  0  0  0  0  0  0
   -4.9300   -0.3341    0.0000 C   0  0  0  0  0  0  0  0  0  0  0  0
   -4.1872    0.9691    0.0000 O   0  0  0  0  0  0  0  0  0  0  0  0
   -6.4300   -0.3424    0.0000 N   0  0  0  0  0  0  0  0  0  0  0  0
   -7.1872    0.9525    0.0000 C   0  0  0  0  0  0  0  0  0  0  0  0
   -8.6871    0.9441    0.0000 C   0  0  0  0  0  0  0  0  0  0  0  0
   -9.4443    2.2390    0.0000 O   0  0  0  0  0  0  0  0  0  0  0  0
   -6.4444    2.2556    0.0000 C   0  0  0  0  0  0  0  0  0  0  0  0
   -4.9444    2.2640    0.0000 O   0  0  0  0  0  0  0  0  0  0  0  0
   -7.2016    3.5505    0.0000 O   0  0  0  0  0  0  0  0  0  0  0  0
   -0.4156   -2.9071    0.0000 C   0  0  0  0  0  0  0  0  0  0  0  0
    0.4728   -4.1157    0.0000 C   0  0  0  0  0  0  0  0  0  0  0  0
    1.8968   -3.6443    0.0000 C   0  0  0  0  0  0  0  0  0  0  0  0
    1.8884   -2.1443    0.0000 C   0  0  0  0  0  0  0  0  0  0  0  0
    2.9976   -1.1344    0.0000 C   0  0  0  0  0  0  0  0  0  0  0  0
    4.4267   -1.5900    0.0000 C   0  0  0  0  0  0  0  0  0  0  0  0
    4.7467   -3.0555    0.0000 O   0  0  0  0  0  0  0  0  0  0  0  0
    5.5358   -0.5802    0.0000 C   0  0  0  0  0  0  0  0  0  0  0  0
    6.9650   -1.0357    0.0000 O   0  0  0  0  0  0  0  0  0  0  0  0
    5.2158    0.8853    0.0000 C   0  0  0  0  0  0  0  0  0  0  0  0
    6.3249    1.8952    0.0000 C   0  0  0  0  0  0  0  0  0  0  0  0
    6.0049    3.3607    0.0000 C   0  0  0  0  0  0  0  0  0  0  0  0
    7.1141    4.3705    0.0000 O   0  0  0  0  0  0  0  0  0  0  0  0
    4.5758    3.8162    0.0000 C   0  0  0  0  0  0  0  0  0  0  0  0
    3.4667    2.8064    0.0000 C   0  0  0  0  0  0  0  0  0  0  0  0
    3.7867    1.3409    0.0000 C   0  0  0  0  0  0  0  0  0  0  0  0
    2.3575    1.7965    0.0000 C   0  0  0  0  0  0  0  0  0  0  0  0
    2.6776    0.3310    0.0000 C   0  0  0  0  0  0  0  0  0  0  0  0
    1.2484    0.7866    0.0000 C   0  0  0  0  0  0  0  0  0  0  0  0
    0.1393   -0.2232    0.0000 C   0  0  0  0  0  0  0  0  0  0  0  0
    0.4593   -1.6887    0.0000 C   0  0  0  0  0  0  0  0  0  0  0  0
   -1.0096   -1.3850    0.0000 C   0  0  0  0  0  0  0  0  0  0  0  0
  2  1  1  6
  2  3  1  0
  3  4  1  0
  4  5  1  0
  5  6  2  0
  5  7  1  0
  7  8  1  0
  8  9  1  1
  9 10  1  0
  8 11  1  0
 11 12  2  0
 11 13  1  0
  2 14  1  0
 14 15  1  6
 15 16  1  0
 17 16  1  6
 17 18  1  0
 18 19  1  1
 19 20  1  1
 19 21  1  0
 21 22  1  1
 21 23  1  0
 23 24  1  1
 24 25  1  0
 25 26  1  1
 25 27  1  0
 27 28  1  0
 28 29  1  0
 29 30  1  6
 29 31  1  0
 31 32  1  6
 32 33  1  0
 33 34  1  0
 34 35  1  6
 34 14  1  0
 34 17  1  0
 31 18  1  0
 29 23  1  0
M  END
>  <MS_ID>  (160) 
MS0167

>  <SMILES>  (160) 
C[C@H](CCC(=O)N[C@@H](CO)C(=O)O)[C@H]1CC[C@H]2[C@@H]3[C@H](O)[C@H](O)[C@@H]4C[C@H](O)CC[C@]4(C)[C@H]3CC[C@]12C

>  <Structure_dimension>  (160) 
2D

$$$$
MS0168
     RDKit          2D

 33 36  0  0  0  0  0  0  0  0999 V2000
   -3.0978   -3.6919    0.0000 C   0  0  0  0  0  0  0  0  0  0  0  0
   -2.2201   -2.4755    0.0000 C   0  0  0  0  0  0  0  0  0  0  0  0
   -2.8347   -1.1072    0.0000 C   0  0  0  0  0  0  0  0  0  0  0  0
   -4.3270   -0.9552    0.0000 C   0  0  0  0  0  0  0  0  0  0  0  0
   -4.9416    0.4131    0.0000 C   0  0  0  0  0  0  0  0  0  0  0  0
   -4.0639    1.6295    0.0000 O   0  0  0  0  0  0  0  0  0  0  0  0
   -6.4339    0.5650    0.0000 N   0  0  0  0  0  0  0  0  0  0  0  0
   -7.0484    1.9333    0.0000 C   0  0  0  0  0  0  0  0  0  0  0  0
   -8.5407    2.0852    0.0000 C   0  0  0  0  0  0  0  0  0  0  0  0
   -9.4184    0.8688    0.0000 O   0  0  0  0  0  0  0  0  0  0  0  0
   -9.1553    3.4535    0.0000 O   0  0  0  0  0  0  0  0  0  0  0  0
   -0.7278   -2.6274    0.0000 C   0  0  0  0  0  0  0  0  0  0  0  0
    0.0264   -3.9240    0.0000 C   0  0  0  0  0  0  0  0  0  0  0  0
    1.4926   -3.6073    0.0000 C   0  0  0  0  0  0  0  0  0  0  0  0
    1.6445   -2.1150    0.0000 C   0  0  0  0  0  0  0  0  0  0  0  0
    2.8552   -1.2294    0.0000 C   0  0  0  0  0  0  0  0  0  0  0  0
    4.2275   -1.8350    0.0000 C   0  0  0  0  0  0  0  0  0  0  0  0
    4.3891   -3.3263    0.0000 O   0  0  0  0  0  0  0  0  0  0  0  0
    5.4381   -0.9494    0.0000 C   0  0  0  0  0  0  0  0  0  0  0  0
    5.2764    0.5419    0.0000 C   0  0  0  0  0  0  0  0  0  0  0  0
    6.4871    1.4275    0.0000 C   0  0  0  0  0  0  0  0  0  0  0  0
    6.3254    2.9188    0.0000 C   0  0  0  0  0  0  0  0  0  0  0  0
    7.5360    3.8044    0.0000 O   0  0  0  0  0  0  0  0  0  0  0  0
    4.9531    3.5244    0.0000 C   0  0  0  0  0  0  0  0  0  0  0  0
    3.7425    2.6388    0.0000 C   0  0  0  0  0  0  0  0  0  0  0  0
    3.9041    1.1475    0.0000 C   0  0  0  0  0  0  0  0  0  0  0  0
    2.5318    1.7531    0.0000 C   0  0  0  0  0  0  0  0  0  0  0  0
    2.6935    0.2619    0.0000 C   0  0  0  0  0  0  0  0  0  0  0  0
    1.3212    0.8675    0.0000 C   0  0  0  0  0  0  0  0  0  0  0  0
    0.1105   -0.0181    0.0000 C   0  0  0  0  0  0  0  0  0  0  0  0
   -1.2618    0.5875    0.0000 O   0  0  0  0  0  0  0  0  0  0  0  0
    0.2722   -1.5094    0.0000 C   0  0  0  0  0  0  0  0  0  0  0  0
   -1.1559   -1.0505    0.0000 C   0  0  0  0  0  0  0  0  0  0  0  0
  2  1  1  6
  2  3  1  0
  3  4  1  0
  4  5  1  0
  5  6  2  0
  5  7  1  0
  7  8  1  0
  8  9  1  0
  9 10  2  0
  9 11  1  0
  2 12  1  0
 12 13  1  6
 13 14  1  0
 15 14  1  6
 15 16  1  0
 16 17  1  1
 17 18  1  1
 17 19  1  0
 20 19  1  1
 20 21  1  0
 21 22  1  0
 22 23  2  0
 22 24  1  0
 24 25  1  0
 25 26  1  0
 26 27  1  6
 26 28  1  0
 28 29  1  6
 29 30  1  0
 30 31  1  1
 30 32  1  0
 32 33  1  6
 32 12  1  0
 32 15  1  0
 28 16  1  0
 26 20  1  0
M  END
>  <MS_ID>  (161) 
MS0168

>  <SMILES>  (161) 
C[C@H](CCC(=O)NCC(=O)O)[C@H]1CC[C@H]2[C@@H]3[C@H](O)C[C@@H]4CC(=O)CC[C@]4(C)[C@H]3C[C@H](O)[C@]12C

>  <Structure_dimension>  (161) 
2D

$$$$
MS0169
     RDKit          2D

 36 39  0  0  0  0  0  0  0  0999 V2000
   -1.3945   -4.5616    0.0000 C   0  0  0  0  0  0  0  0  0  0  0  0
   -0.7955   -3.1864    0.0000 C   0  0  0  0  0  0  0  0  0  0  0  0
   -1.6869   -1.9800    0.0000 C   0  0  0  0  0  0  0  0  0  0  0  0
   -3.1773   -2.1488    0.0000 C   0  0  0  0  0  0  0  0  0  0  0  0
   -4.0687   -0.9424    0.0000 C   0  0  0  0  0  0  0  0  0  0  0  0
   -3.4697    0.4328    0.0000 O   0  0  0  0  0  0  0  0  0  0  0  0
   -5.5592   -1.1111    0.0000 N   0  0  0  0  0  0  0  0  0  0  0  0
   -6.4506    0.0953    0.0000 C   0  0  0  0  0  0  0  0  0  0  0  0
   -7.9411   -0.0735    0.0000 C   0  0  0  0  0  0  0  0  0  0  0  0
   -8.8325    1.1329    0.0000 C   0  0  0  0  0  0  0  0  0  0  0  0
  -10.3230    0.9641    0.0000 C   0  0  0  0  0  0  0  0  0  0  0  0
  -11.2144    2.1705    0.0000 C   0  0  0  0  0  0  0  0  0  0  0  0
  -10.6153    3.5457    0.0000 O   0  0  0  0  0  0  0  0  0  0  0  0
  -12.7048    2.0017    0.0000 O   0  0  0  0  0  0  0  0  0  0  0  0
    0.6950   -3.0176    0.0000 C   0  0  0  0  0  0  0  0  0  0  0  0
    1.7076   -4.1242    0.0000 C   0  0  0  0  0  0  0  0  0  0  0  0
    3.0730   -3.5031    0.0000 C   0  0  0  0  0  0  0  0  0  0  0  0
    2.9042   -2.0127    0.0000 C   0  0  0  0  0  0  0  0  0  0  0  0
    3.8989   -0.8899    0.0000 C   0  0  0  0  0  0  0  0  0  0  0  0
    5.3686   -1.1900    0.0000 C   0  0  0  0  0  0  0  0  0  0  0  0
    5.8436   -2.6128    0.0000 O   0  0  0  0  0  0  0  0  0  0  0  0
    6.3633   -0.0672    0.0000 C   0  0  0  0  0  0  0  0  0  0  0  0
    7.8330   -0.3673    0.0000 O   0  0  0  0  0  0  0  0  0  0  0  0
    5.8884    1.3556    0.0000 C   0  0  0  0  0  0  0  0  0  0  0  0
    6.8831    2.4783    0.0000 C   0  0  0  0  0  0  0  0  0  0  0  0
    6.4081    3.9011    0.0000 C   0  0  0  0  0  0  0  0  0  0  0  0
    7.4028    5.0239    0.0000 O   0  0  0  0  0  0  0  0  0  0  0  0
    4.9384    4.2012    0.0000 C   0  0  0  0  0  0  0  0  0  0  0  0
    3.9437    3.0785    0.0000 C   0  0  0  0  0  0  0  0  0  0  0  0
    4.4187    1.6556    0.0000 C   0  0  0  0  0  0  0  0  0  0  0  0
    2.9490    1.9557    0.0000 C   0  0  0  0  0  0  0  0  0  0  0  0
    3.4240    0.5329    0.0000 C   0  0  0  0  0  0  0  0  0  0  0  0
    1.9543    0.8330    0.0000 C   0  0  0  0  0  0  0  0  0  0  0  0
    0.9596   -0.2898    0.0000 C   0  0  0  0  0  0  0  0  0  0  0  0
    1.4346   -1.7126    0.0000 C   0  0  0  0  0  0  0  0  0  0  0  0
   -0.0584   -1.5678    0.0000 C   0  0  0  0  0  0  0  0  0  0  0  0
  2  1  1  6
  2  3  1  0
  3  4  1  0
  4  5  1  0
  5  6  2  0
  5  7  1  0
  7  8  1  0
  8  9  1  0
  9 10  1  0
 10 11  1  0
 11 12  1  0
 12 13  2  0
 12 14  1  0
  2 15  1  0
 15 16  1  6
 16 17  1  0
 18 17  1  6
 18 19  1  0
 19 20  1  1
 20 21  1  1
 20 22  1  0
 22 23  1  1
 22 24  1  0
 24 25  1  1
 25 26  1  0
 26 27  1  1
 26 28  1  0
 28 29  1  0
 29 30  1  0
 30 31  1  6
 30 32  1  0
 32 33  1  6
 33 34  1  0
 34 35  1  0
 35 36  1  6
 35 15  1  0
 35 18  1  0
 32 19  1  0
 30 24  1  0
M  END
>  <MS_ID>  (162) 
MS0169

>  <SMILES>  (162) 
C[C@H](CCC(=O)NCCCCC(=O)O)[C@H]1CC[C@H]2[C@@H]3[C@H](O)[C@H](O)[C@@H]4C[C@H](O)CC[C@]4(C)[C@H]3CC[C@]12C

>  <Structure_dimension>  (162) 
2D

$$$$
MS0170
     RDKit          2D

 31 34  0  0  0  0  0  0  0  0999 V2000
   -5.7175   -1.8176    0.0000 C   0  0  0  0  0  0  0  0  0  0  0  0
   -4.4708   -0.9835    0.0000 C   0  0  0  0  0  0  0  0  0  0  0  0
   -4.5698    0.5132    0.0000 C   0  0  0  0  0  0  0  0  0  0  0  0
   -5.9155    1.1758    0.0000 C   0  0  0  0  0  0  0  0  0  0  0  0
   -6.0145    2.6726    0.0000 C   0  0  0  0  0  0  0  0  0  0  0  0
   -4.7678    3.5067    0.0000 O   0  0  0  0  0  0  0  0  0  0  0  0
   -7.3602    3.3352    0.0000 O   0  0  0  0  0  0  0  0  0  0  0  0
   -3.1251   -1.6462    0.0000 C   0  0  0  0  0  0  0  0  0  0  0  0
   -2.8701   -3.1243    0.0000 C   0  0  0  0  0  0  0  0  0  0  0  0
   -1.3855   -3.3387    0.0000 C   0  0  0  0  0  0  0  0  0  0  0  0
   -0.7229   -1.9930    0.0000 C   0  0  0  0  0  0  0  0  0  0  0  0
    0.7205   -1.5850    0.0000 C   0  0  0  0  0  0  0  0  0  0  0  0
    1.7956   -2.6310    0.0000 C   0  0  0  0  0  0  0  0  0  0  0  0
    1.4272   -4.0851    0.0000 O   0  0  0  0  0  0  0  0  0  0  0  0
    3.2390   -2.2230    0.0000 C   0  0  0  0  0  0  0  0  0  0  0  0
    3.6074   -0.7689    0.0000 C   0  0  0  0  0  0  0  0  0  0  0  0
    5.0508   -0.3609    0.0000 C   0  0  0  0  0  0  0  0  0  0  0  0
    5.4192    1.0932    0.0000 C   0  0  0  0  0  0  0  0  0  0  0  0
    6.8626    1.5012    0.0000 C   0  0  0  0  0  0  0  0  0  0  0  0
    7.2310    2.9552    0.0000 O   0  0  0  0  0  0  0  0  0  0  0  0
    7.9377    0.4551    0.0000 O   0  0  0  0  0  0  0  0  0  0  0  0
    4.3441    2.1392    0.0000 C   0  0  0  0  0  0  0  0  0  0  0  0
    2.9007    1.7312    0.0000 C   0  0  0  0  0  0  0  0  0  0  0  0
    2.5323    0.2771    0.0000 C   0  0  0  0  0  0  0  0  0  0  0  0
    1.4572    1.3232    0.0000 C   0  0  0  0  0  0  0  0  0  0  0  0
    1.0889   -0.1309    0.0000 C   0  0  0  0  0  0  0  0  0  0  0  0
    0.0138    0.9151    0.0000 C   0  0  0  0  0  0  0  0  0  0  0  0
   -1.4296    0.5071    0.0000 C   0  0  0  0  0  0  0  0  0  0  0  0
   -2.5047    1.5532    0.0000 O   0  0  0  0  0  0  0  0  0  0  0  0
   -1.7980   -0.9470    0.0000 C   0  0  0  0  0  0  0  0  0  0  0  0
   -2.9765   -0.0190    0.0000 C   0  0  0  0  0  0  0  0  0  0  0  0
  2  1  1  6
  2  3  1  0
  3  4  1  0
  4  5  1  0
  5  6  2  0
  5  7  1  0
  2  8  1  0
  8  9  1  6
  9 10  1  0
 11 10  1  6
 11 12  1  0
 12 13  1  1
 13 14  1  1
 13 15  1  0
 16 15  1  1
 16 17  1  0
 17 18  1  0
 18 19  1  1
 19 20  2  0
 19 21  1  0
 18 22  1  0
 22 23  1  0
 23 24  1  0
 24 25  1  6
 24 26  1  0
 26 27  1  6
 27 28  1  0
 28 29  2  0
 28 30  1  0
 30 31  1  6
 30  8  1  0
 30 11  1  0
 26 12  1  0
 24 16  1  0
M  END
>  <MS_ID>  (163) 
MS0170

>  <SMILES>  (163) 
C[C@H](CCC(=O)O)[C@H]1CC[C@H]2[C@@H]3[C@H](O)C[C@@H]4C[C@H](C(=O)O)CC[C@]4(C)[C@H]3CC(=O)[C@]12C

>  <Structure_dimension>  (163) 
2D

$$$$
MS0171
     RDKit          2D

 36 40  0  0  0  0  0  0  0  0999 V2000
   -1.7029   -4.5740    0.0000 C   0  0  0  0  0  0  0  0  0  0  0  0
   -1.0663   -3.2157    0.0000 C   0  0  0  0  0  0  0  0  0  0  0  0
   -1.9243   -1.9853    0.0000 C   0  0  0  0  0  0  0  0  0  0  0  0
   -3.4188   -2.1132    0.0000 C   0  0  0  0  0  0  0  0  0  0  0  0
   -4.2768   -0.8828    0.0000 C   0  0  0  0  0  0  0  0  0  0  0  0
   -3.6403    0.4755    0.0000 O   0  0  0  0  0  0  0  0  0  0  0  0
   -5.7714   -1.0106    0.0000 N   0  0  0  0  0  0  0  0  0  0  0  0
   -6.6293    0.2198    0.0000 C   0  0  0  0  0  0  0  0  0  0  0  0
   -5.9928    1.5780    0.0000 C   0  0  0  0  0  0  0  0  0  0  0  0
   -6.8507    2.8084    0.0000 C   0  0  0  0  0  0  0  0  0  0  0  0
   -8.3453    2.6806    0.0000 C   0  0  0  0  0  0  0  0  0  0  0  0
   -9.2033    3.9110    0.0000 O   0  0  0  0  0  0  0  0  0  0  0  0
   -8.9819    1.3224    0.0000 C   0  0  0  0  0  0  0  0  0  0  0  0
   -8.1239    0.0920    0.0000 C   0  0  0  0  0  0  0  0  0  0  0  0
    0.4282   -3.0879    0.0000 C   0  0  0  0  0  0  0  0  0  0  0  0
    1.4101   -4.2219    0.0000 C   0  0  0  0  0  0  0  0  0  0  0  0
    2.7920   -3.6385    0.0000 C   0  0  0  0  0  0  0  0  0  0  0  0
    2.6642   -2.1439    0.0000 C   0  0  0  0  0  0  0  0  0  0  0  0
    3.6893   -1.0489    0.0000 C   0  0  0  0  0  0  0  0  0  0  0  0
    5.1502   -1.3891    0.0000 C   0  0  0  0  0  0  0  0  0  0  0  0
    5.5860   -2.8244    0.0000 O   0  0  0  0  0  0  0  0  0  0  0  0
    6.1753   -0.2941    0.0000 C   0  0  0  0  0  0  0  0  0  0  0  0
    5.7395    1.1412    0.0000 C   0  0  0  0  0  0  0  0  0  0  0  0
    6.7647    2.2362    0.0000 C   0  0  0  0  0  0  0  0  0  0  0  0
    6.3289    3.6716    0.0000 C   0  0  0  0  0  0  0  0  0  0  0  0
    7.3540    4.7666    0.0000 O   0  0  0  0  0  0  0  0  0  0  0  0
    4.8680    4.0118    0.0000 C   0  0  0  0  0  0  0  0  0  0  0  0
    3.8429    2.9168    0.0000 C   0  0  0  0  0  0  0  0  0  0  0  0
    4.2787    1.4815    0.0000 C   0  0  0  0  0  0  0  0  0  0  0  0
    2.8178    1.8217    0.0000 C   0  0  0  0  0  0  0  0  0  0  0  0
    3.2535    0.3864    0.0000 C   0  0  0  0  0  0  0  0  0  0  0  0
    1.7926    0.7267    0.0000 C   0  0  0  0  0  0  0  0  0  0  0  0
    0.7675   -0.3683    0.0000 C   0  0  0  0  0  0  0  0  0  0  0  0
   -0.6934   -0.0281    0.0000 O   0  0  0  0  0  0  0  0  0  0  0  0
    1.2033   -1.8036    0.0000 C   0  0  0  0  0  0  0  0  0  0  0  0
   -0.2852   -1.6180    0.0000 C   0  0  0  0  0  0  0  0  0  0  0  0
  2  1  1  6
  2  3  1  0
  3  4  1  0
  4  5  1  0
  5  6  2  0
  5  7  1  0
  7  8  1  0
  8  9  2  0
  9 10  1  0
 10 11  2  0
 11 12  1  0
 11 13  1  0
 13 14  2  0
  2 15  1  0
 15 16  1  6
 16 17  1  0
 18 17  1  6
 18 19  1  0
 19 20  1  1
 20 21  1  1
 20 22  1  0
 23 22  1  1
 23 24  1  0
 24 25  1  0
 25 26  1  1
 25 27  1  0
 27 28  1  0
 28 29  1  0
 29 30  1  6
 29 31  1  0
 31 32  1  6
 32 33  1  0
 33 34  1  1
 33 35  1  0
 35 36  1  6
 14  8  1  0
 35 15  1  0
 35 18  1  0
 31 19  1  0
 29 23  1  0
M  END
>  <MS_ID>  (164) 
MS0171

>  <SMILES>  (164) 
C[C@H](CCC(=O)Nc1ccc(O)cc1)[C@H]1CC[C@H]2[C@@H]3[C@H](O)C[C@@H]4C[C@H](O)CC[C@]4(C)[C@H]3C[C@H](O)[C@]12C

>  <Structure_dimension>  (164) 
2D

$$$$
MS0172
     RDKit          2D

 29 32  0  0  0  0  0  0  0  0999 V2000
   -5.0303   -2.1373    0.0000 C   0  0  0  0  0  0  0  0  0  0  0  0
   -3.8594   -1.1998    0.0000 C   0  0  0  0  0  0  0  0  0  0  0  0
   -4.0858    0.2830    0.0000 C   0  0  0  0  0  0  0  0  0  0  0  0
   -5.4831    0.8284    0.0000 C   0  0  0  0  0  0  0  0  0  0  0  0
   -5.7095    2.3112    0.0000 C   0  0  0  0  0  0  0  0  0  0  0  0
   -7.1069    2.8565    0.0000 O   0  0  0  0  0  0  0  0  0  0  0  0
   -4.5386    3.2487    0.0000 S   0  0  0  0  0  0  0  0  0  0  0  0
   -2.4620   -1.7451    0.0000 C   0  0  0  0  0  0  0  0  0  0  0  0
   -2.0818   -3.1961    0.0000 C   0  0  0  0  0  0  0  0  0  0  0  0
   -0.5844   -3.2830    0.0000 C   0  0  0  0  0  0  0  0  0  0  0  0
   -0.0390   -1.8856    0.0000 C   0  0  0  0  0  0  0  0  0  0  0  0
    1.3643   -1.3559    0.0000 C   0  0  0  0  0  0  0  0  0  0  0  0
    2.5248   -2.3063    0.0000 C   0  0  0  0  0  0  0  0  0  0  0  0
    2.2819   -3.7865    0.0000 O   0  0  0  0  0  0  0  0  0  0  0  0
    3.9281   -1.7765    0.0000 C   0  0  0  0  0  0  0  0  0  0  0  0
    4.1710   -0.2963    0.0000 C   0  0  0  0  0  0  0  0  0  0  0  0
    5.5743    0.2334    0.0000 C   0  0  0  0  0  0  0  0  0  0  0  0
    5.8172    1.7136    0.0000 C   0  0  0  0  0  0  0  0  0  0  0  0
    7.2205    2.2434    0.0000 O   0  0  0  0  0  0  0  0  0  0  0  0
    4.6568    2.6641    0.0000 C   0  0  0  0  0  0  0  0  0  0  0  0
    3.2534    2.1343    0.0000 C   0  0  0  0  0  0  0  0  0  0  0  0
    3.0105    0.6541    0.0000 C   0  0  0  0  0  0  0  0  0  0  0  0
    1.8501    1.6046    0.0000 C   0  0  0  0  0  0  0  0  0  0  0  0
    1.6072    0.1244    0.0000 C   0  0  0  0  0  0  0  0  0  0  0  0
    0.4467    1.0748    0.0000 C   0  0  0  0  0  0  0  0  0  0  0  0
   -0.9566    0.5450    0.0000 C   0  0  0  0  0  0  0  0  0  0  0  0
   -2.1170    1.4955    0.0000 O   0  0  0  0  0  0  0  0  0  0  0  0
   -1.1995   -0.9352    0.0000 C   0  0  0  0  0  0  0  0  0  0  0  0
   -2.4529   -0.1112    0.0000 C   0  0  0  0  0  0  0  0  0  0  0  0
  2  1  1  6
  2  3  1  0
  3  4  1  0
  4  5  1  0
  5  6  2  0
  5  7  1  0
  2  8  1  0
  8  9  1  6
  9 10  1  0
 11 10  1  6
 11 12  1  0
 12 13  1  1
 13 14  1  1
 13 15  1  0
 16 15  1  1
 16 17  1  0
 17 18  1  0
 18 19  1  6
 18 20  1  0
 20 21  1  0
 21 22  1  0
 22 23  1  6
 22 24  1  0
 24 25  1  6
 25 26  1  0
 26 27  1  1
 26 28  1  0
 28 29  1  6
 28  8  1  0
 28 11  1  0
 24 12  1  0
 22 16  1  0
M  END
>  <MS_ID>  (165) 
MS0172

>  <SMILES>  (165) 
C[C@H](CCC(=O)S)[C@H]1CC[C@H]2[C@@H]3[C@H](O)C[C@@H]4C[C@@H](O)CC[C@]4(C)[C@H]3C[C@H](O)[C@]12C

>  <Structure_dimension>  (165) 
2D

$$$$
MS0173
     RDKit          2D

 34 37  0  0  0  0  0  0  0  0999 V2000
  -11.6490    3.3708    0.0000 C   0  0  0  0  0  0  0  0  0  0  0  0
  -10.8671    2.0907    0.0000 C   0  0  0  0  0  0  0  0  0  0  0  0
   -9.3676    2.1278    0.0000 C   0  0  0  0  0  0  0  0  0  0  0  0
   -8.5857    0.8477    0.0000 C   0  0  0  0  0  0  0  0  0  0  0  0
   -7.0861    0.8848    0.0000 C   0  0  0  0  0  0  0  0  0  0  0  0
   -6.3043   -0.3953    0.0000 N   0  0  0  0  0  0  0  0  0  0  0  0
   -4.8047   -0.3582    0.0000 C   0  0  0  0  0  0  0  0  0  0  0  0
   -4.0871    0.9590    0.0000 O   0  0  0  0  0  0  0  0  0  0  0  0
   -4.0228   -1.6383    0.0000 C   0  0  0  0  0  0  0  0  0  0  0  0
   -2.5233   -1.6012    0.0000 C   0  0  0  0  0  0  0  0  0  0  0  0
   -1.7414   -2.8813    0.0000 C   0  0  0  0  0  0  0  0  0  0  0  0
   -2.4590   -4.1985    0.0000 C   0  0  0  0  0  0  0  0  0  0  0  0
   -0.2418   -2.8442    0.0000 C   0  0  0  0  0  0  0  0  0  0  0  0
    0.6696   -4.0356    0.0000 C   0  0  0  0  0  0  0  0  0  0  0  0
    2.0843   -3.5369    0.0000 C   0  0  0  0  0  0  0  0  0  0  0  0
    2.0472   -2.0374    0.0000 C   0  0  0  0  0  0  0  0  0  0  0  0
    3.1367   -1.0064    0.0000 C   0  0  0  0  0  0  0  0  0  0  0  0
    4.5743   -1.4345    0.0000 C   0  0  0  0  0  0  0  0  0  0  0  0
    4.9224   -2.8936    0.0000 O   0  0  0  0  0  0  0  0  0  0  0  0
    5.6639   -0.4035    0.0000 C   0  0  0  0  0  0  0  0  0  0  0  0
    7.1015   -0.8317    0.0000 O   0  0  0  0  0  0  0  0  0  0  0  0
    5.3158    1.0555    0.0000 C   0  0  0  0  0  0  0  0  0  0  0  0
    6.4054    2.0865    0.0000 C   0  0  0  0  0  0  0  0  0  0  0  0
    6.0573    3.5455    0.0000 C   0  0  0  0  0  0  0  0  0  0  0  0
    7.1469    4.5765    0.0000 O   0  0  0  0  0  0  0  0  0  0  0  0
    4.6197    3.9736    0.0000 C   0  0  0  0  0  0  0  0  0  0  0  0
    3.5302    2.9427    0.0000 C   0  0  0  0  0  0  0  0  0  0  0  0
    3.8782    1.4836    0.0000 C   0  0  0  0  0  0  0  0  0  0  0  0
    2.4406    1.9117    0.0000 C   0  0  0  0  0  0  0  0  0  0  0  0
    2.7887    0.4527    0.0000 C   0  0  0  0  0  0  0  0  0  0  0  0
    1.3511    0.8808    0.0000 C   0  0  0  0  0  0  0  0  0  0  0  0
    0.2615   -0.1502    0.0000 C   0  0  0  0  0  0  0  0  0  0  0  0
    0.6096   -1.6093    0.0000 C   0  0  0  0  0  0  0  0  0  0  0  0
   -0.8649   -1.3338    0.0000 C   0  0  0  0  0  0  0  0  0  0  0  0
  1  2  1  0
  2  3  1  0
  3  4  1  0
  4  5  1  0
  5  6  1  0
  6  7  1  0
  7  8  2  0
  7  9  1  0
  9 10  1  0
 10 11  1  0
 11 12  1  6
 11 13  1  0
 13 14  1  6
 14 15  1  0
 16 15  1  6
 16 17  1  0
 17 18  1  1
 18 19  1  1
 18 20  1  0
 20 21  1  1
 20 22  1  0
 22 23  1  1
 23 24  1  0
 24 25  1  1
 24 26  1  0
 26 27  1  0
 27 28  1  0
 28 29  1  6
 28 30  1  0
 30 31  1  6
 31 32  1  0
 32 33  1  0
 33 34  1  6
 33 13  1  0
 33 16  1  0
 30 17  1  0
 28 22  1  0
M  END
>  <MS_ID>  (166) 
MS0173

>  <SMILES>  (166) 
CCCCCNC(=O)CC[C@@H](C)[C@H]1CC[C@H]2[C@@H]3[C@H](O)[C@H](O)[C@@H]4C[C@H](O)CC[C@]4(C)[C@H]3CC[C@]12C

>  <Structure_dimension>  (166) 
2D

$$$$
MS0174
     RDKit          2D

 29 32  0  0  0  0  0  0  0  0999 V2000
   -5.0303   -2.1373    0.0000 C   0  0  0  0  0  0  0  0  0  0  0  0
   -3.8594   -1.1998    0.0000 C   0  0  0  0  0  0  0  0  0  0  0  0
   -4.0858    0.2830    0.0000 C   0  0  0  0  0  0  0  0  0  0  0  0
   -5.4831    0.8284    0.0000 C   0  0  0  0  0  0  0  0  0  0  0  0
   -5.7095    2.3112    0.0000 C   0  0  0  0  0  0  0  0  0  0  0  0
   -4.5386    3.2487    0.0000 O   0  0  0  0  0  0  0  0  0  0  0  0
   -7.1069    2.8565    0.0000 O   0  0  0  0  0  0  0  0  0  0  0  0
   -2.4620   -1.7451    0.0000 C   0  0  0  0  0  0  0  0  0  0  0  0
   -2.0818   -3.1961    0.0000 C   0  0  0  0  0  0  0  0  0  0  0  0
   -0.5844   -3.2830    0.0000 C   0  0  0  0  0  0  0  0  0  0  0  0
   -0.0390   -1.8856    0.0000 C   0  0  0  0  0  0  0  0  0  0  0  0
    1.3643   -1.3559    0.0000 C   0  0  0  0  0  0  0  0  0  0  0  0
    2.5248   -2.3063    0.0000 C   0  0  0  0  0  0  0  0  0  0  0  0
    2.2819   -3.7865    0.0000 O   0  0  0  0  0  0  0  0  0  0  0  0
    3.9281   -1.7765    0.0000 C   0  0  0  0  0  0  0  0  0  0  0  0
    4.1710   -0.2963    0.0000 C   0  0  0  0  0  0  0  0  0  0  0  0
    5.5743    0.2334    0.0000 C   0  0  0  0  0  0  0  0  0  0  0  0
    5.8172    1.7136    0.0000 C   0  0  0  0  0  0  0  0  0  0  0  0
    7.2205    2.2434    0.0000 O   0  0  0  0  0  0  0  0  0  0  0  0
    4.6568    2.6641    0.0000 C   0  0  0  0  0  0  0  0  0  0  0  0
    3.2534    2.1343    0.0000 C   0  0  0  0  0  0  0  0  0  0  0  0
    3.0105    0.6541    0.0000 C   0  0  0  0  0  0  0  0  0  0  0  0
    1.8501    1.6046    0.0000 C   0  0  0  0  0  0  0  0  0  0  0  0
    1.6072    0.1244    0.0000 C   0  0  0  0  0  0  0  0  0  0  0  0
    0.4467    1.0748    0.0000 C   0  0  0  0  0  0  0  0  0  0  0  0
   -0.9566    0.5450    0.0000 C   0  0  0  0  0  0  0  0  0  0  0  0
   -2.1170    1.4955    0.0000 O   0  0  0  0  0  0  0  0  0  0  0  0
   -1.1995   -0.9352    0.0000 C   0  0  0  0  0  0  0  0  0  0  0  0
   -2.4529   -0.1112    0.0000 C   0  0  0  0  0  0  0  0  0  0  0  0
  2  1  1  6
  2  3  1  0
  3  4  1  0
  4  5  1  0
  5  6  2  0
  5  7  1  0
  2  8  1  0
  8  9  1  6
  9 10  1  0
 11 10  1  6
 11 12  1  0
 12 13  1  1
 13 14  1  1
 13 15  1  0
 16 15  1  6
 16 17  1  0
 17 18  1  0
 18 19  2  0
 18 20  1  0
 20 21  1  0
 21 22  1  0
 22 23  1  6
 22 24  1  0
 24 25  1  6
 25 26  1  0
 26 27  1  1
 26 28  1  0
 28 29  1  6
 28  8  1  0
 28 11  1  0
 24 12  1  0
 22 16  1  0
M  END
>  <MS_ID>  (167) 
MS0174

>  <SMILES>  (167) 
C[C@H](CCC(=O)O)[C@H]1CC[C@H]2[C@@H]3[C@H](O)C[C@H]4CC(=O)CC[C@]4(C)[C@H]3C[C@H](O)[C@]12C

>  <Structure_dimension>  (167) 
2D

$$$$
MS0175
     RDKit          2D

 32 35  0  0  0  0  0  0  0  0999 V2000
   -4.5868   -2.9726    0.0000 C   0  0  0  0  0  0  0  0  0  0  0  0
   -3.7544   -1.7248    0.0000 C   0  0  0  0  0  0  0  0  0  0  0  0
   -4.4189   -0.3800    0.0000 C   0  0  0  0  0  0  0  0  0  0  0  0
   -5.9157   -0.2830    0.0000 C   0  0  0  0  0  0  0  0  0  0  0  0
   -6.5802    1.0618    0.0000 C   0  0  0  0  0  0  0  0  0  0  0  0
   -5.7478    2.3096    0.0000 O   0  0  0  0  0  0  0  0  0  0  0  0
   -8.0771    1.1587    0.0000 O   0  0  0  0  0  0  0  0  0  0  0  0
   -2.2575   -1.8217    0.0000 C   0  0  0  0  0  0  0  0  0  0  0  0
   -1.4561   -3.0897    0.0000 C   0  0  0  0  0  0  0  0  0  0  0  0
   -0.0025   -2.7193    0.0000 C   0  0  0  0  0  0  0  0  0  0  0  0
    0.0944   -1.2224    0.0000 C   0  0  0  0  0  0  0  0  0  0  0  0
    1.2716   -0.2929    0.0000 C   0  0  0  0  0  0  0  0  0  0  0  0
    2.6653   -0.8476    0.0000 C   0  0  0  0  0  0  0  0  0  0  0  0
    2.8817   -2.3319    0.0000 O   0  0  0  0  0  0  0  0  0  0  0  0
    4.2753   -2.8867    0.0000 S   0  0  0  0  0  0  0  0  0  0  0  0
    4.8301   -1.4930    0.0000 O   0  0  0  0  0  0  0  0  0  0  0  0
    3.7206   -4.2803    0.0000 O   0  0  0  0  0  0  0  0  0  0  0  0
    5.6690   -3.4414    0.0000 O   0  0  0  0  0  0  0  0  0  0  0  0
    3.8425    0.0819    0.0000 C   0  0  0  0  0  0  0  0  0  0  0  0
    3.6261    1.5663    0.0000 C   0  0  0  0  0  0  0  0  0  0  0  0
    4.8034    2.4958    0.0000 C   0  0  0  0  0  0  0  0  0  0  0  0
    4.5870    3.9801    0.0000 C   0  0  0  0  0  0  0  0  0  0  0  0
    3.1933    4.5349    0.0000 C   0  0  0  0  0  0  0  0  0  0  0  0
    2.0161    3.6053    0.0000 C   0  0  0  0  0  0  0  0  0  0  0  0
    2.2325    2.1210    0.0000 C   0  0  0  0  0  0  0  0  0  0  0  0
    0.8388    2.6757    0.0000 C   0  0  0  0  0  0  0  0  0  0  0  0
    1.0552    1.1914    0.0000 C   0  0  0  0  0  0  0  0  0  0  0  0
   -0.3384    1.7462    0.0000 C   0  0  0  0  0  0  0  0  0  0  0  0
   -1.5157    0.8166    0.0000 C   0  0  0  0  0  0  0  0  0  0  0  0
   -2.9093    1.3714    0.0000 O   0  0  0  0  0  0  0  0  0  0  0  0
   -1.2993   -0.6677    0.0000 C   0  0  0  0  0  0  0  0  0  0  0  0
   -2.7433   -0.2617    0.0000 C   0  0  0  0  0  0  0  0  0  0  0  0
  2  1  1  6
  2  3  1  0
  3  4  1  0
  4  5  1  0
  5  6  2  0
  5  7  1  0
  2  8  1  0
  8  9  1  6
  9 10  1  0
 11 10  1  6
 11 12  1  0
 12 13  1  1
 13 14  1  1
 14 15  1  0
 15 16  2  0
 15 17  2  0
 15 18  1  0
 13 19  1  0
 20 19  1  1
 20 21  1  0
 21 22  1  0
 22 23  1  0
 23 24  1  0
 24 25  1  0
 25 26  1  6
 25 27  1  0
 27 28  1  6
 28 29  1  0
 29 30  1  1
 29 31  1  0
 31 32  1  6
 31  8  1  0
 31 11  1  0
 27 12  1  0
 25 20  1  0
M  END
>  <MS_ID>  (168) 
MS0175

>  <SMILES>  (168) 
C[C@H](CCC(=O)O)[C@H]1CC[C@H]2[C@@H]3[C@H](OS(=O)(=O)O)C[C@@H]4CCCC[C@]4(C)[C@H]3C[C@H](O)[C@]12C

>  <Structure_dimension>  (168) 
2D

$$$$
MS0176
     RDKit          2D

 30 33  0  0  0  0  0  0  0  0999 V2000
   -4.5685   -2.6908    0.0000 C   0  0  0  0  0  0  0  0  0  0  0  0
   -3.4838   -1.6548    0.0000 C   0  0  0  0  0  0  0  0  0  0  0  0
   -3.8388   -0.1974    0.0000 C   0  0  0  0  0  0  0  0  0  0  0  0
   -5.2784    0.2240    0.0000 C   0  0  0  0  0  0  0  0  0  0  0  0
   -5.6333    1.6814    0.0000 C   0  0  0  0  0  0  0  0  0  0  0  0
   -4.5486    2.7174    0.0000 O   0  0  0  0  0  0  0  0  0  0  0  0
   -7.0729    2.1027    0.0000 C   0  0  0  0  0  0  0  0  0  0  0  0
   -7.4279    3.5601    0.0000 O   0  0  0  0  0  0  0  0  0  0  0  0
   -2.0442   -2.0761    0.0000 C   0  0  0  0  0  0  0  0  0  0  0  0
   -1.5389   -3.4884    0.0000 C   0  0  0  0  0  0  0  0  0  0  0  0
   -0.0395   -3.4442    0.0000 C   0  0  0  0  0  0  0  0  0  0  0  0
    0.3818   -2.0046    0.0000 C   0  0  0  0  0  0  0  0  0  0  0  0
    1.7336   -1.3544    0.0000 C   0  0  0  0  0  0  0  0  0  0  0  0
    2.9725   -2.1999    0.0000 C   0  0  0  0  0  0  0  0  0  0  0  0
    2.8597   -3.6957    0.0000 O   0  0  0  0  0  0  0  0  0  0  0  0
    4.3243   -1.5497    0.0000 C   0  0  0  0  0  0  0  0  0  0  0  0
    4.4371   -0.0540    0.0000 C   0  0  0  0  0  0  0  0  0  0  0  0
    5.7888    0.5962    0.0000 C   0  0  0  0  0  0  0  0  0  0  0  0
    5.9016    2.0920    0.0000 C   0  0  0  0  0  0  0  0  0  0  0  0
    7.2534    2.7422    0.0000 O   0  0  0  0  0  0  0  0  0  0  0  0
    4.6627    2.9375    0.0000 C   0  0  0  0  0  0  0  0  0  0  0  0
    3.3109    2.2873    0.0000 C   0  0  0  0  0  0  0  0  0  0  0  0
    3.1981    0.7916    0.0000 C   0  0  0  0  0  0  0  0  0  0  0  0
    1.9591    1.6371    0.0000 C   0  0  0  0  0  0  0  0  0  0  0  0
    1.8464    0.1414    0.0000 C   0  0  0  0  0  0  0  0  0  0  0  0
    0.6074    0.9869    0.0000 C   0  0  0  0  0  0  0  0  0  0  0  0
   -0.7444    0.3367    0.0000 C   0  0  0  0  0  0  0  0  0  0  0  0
   -1.9833    1.1823    0.0000 O   0  0  0  0  0  0  0  0  0  0  0  0
   -0.8572   -1.1590    0.0000 C   0  0  0  0  0  0  0  0  0  0  0  0
   -2.1777   -0.4476    0.0000 C   0  0  0  0  0  0  0  0  0  0  0  0
  2  1  1  6
  2  3  1  0
  3  4  1  0
  4  5  1  0
  5  6  2  0
  5  7  1  0
  7  8  1  0
  2  9  1  0
  9 10  1  6
 10 11  1  0
 12 11  1  6
 12 13  1  0
 13 14  1  1
 14 15  1  6
 14 16  1  0
 17 16  1  1
 17 18  1  0
 18 19  1  0
 19 20  1  6
 19 21  1  0
 21 22  1  0
 22 23  1  0
 23 24  1  6
 23 25  1  0
 25 26  1  6
 26 27  1  0
 27 28  1  1
 27 29  1  0
 29 30  1  6
 29  9  1  0
 29 12  1  0
 25 13  1  0
 23 17  1  0
M  END
>  <MS_ID>  (169) 
MS0176

>  <SMILES>  (169) 
C[C@H](CCC(=O)CO)[C@H]1CC[C@H]2[C@@H]3[C@@H](O)C[C@@H]4C[C@@H](O)CC[C@]4(C)[C@H]3C[C@H](O)[C@]12C

>  <Structure_dimension>  (169) 
2D

$$$$
MS0177
     RDKit          2D

 29 32  0  0  0  0  0  0  0  0999 V2000
   -5.0303   -2.1373    0.0000 C   0  0  0  0  0  0  0  0  0  0  0  0
   -3.8594   -1.1998    0.0000 C   0  0  0  0  0  0  0  0  0  0  0  0
   -4.0858    0.2830    0.0000 C   0  0  0  0  0  0  0  0  0  0  0  0
   -5.4831    0.8284    0.0000 C   0  0  0  0  0  0  0  0  0  0  0  0
   -5.7095    2.3112    0.0000 C   0  0  0  0  0  0  0  0  0  0  0  0
   -7.1069    2.8565    0.0000 O   0  0  0  0  0  0  0  0  0  0  0  0
   -4.5386    3.2487    0.0000 S   0  0  0  0  0  0  0  0  0  0  0  0
   -2.4620   -1.7451    0.0000 C   0  0  0  0  0  0  0  0  0  0  0  0
   -2.0818   -3.1961    0.0000 C   0  0  0  0  0  0  0  0  0  0  0  0
   -0.5844   -3.2830    0.0000 C   0  0  0  0  0  0  0  0  0  0  0  0
   -0.0390   -1.8856    0.0000 C   0  0  0  0  0  0  0  0  0  0  0  0
    1.3643   -1.3559    0.0000 C   0  0  0  0  0  0  0  0  0  0  0  0
    2.5248   -2.3063    0.0000 C   0  0  0  0  0  0  0  0  0  0  0  0
    2.2819   -3.7865    0.0000 O   0  0  0  0  0  0  0  0  0  0  0  0
    3.9281   -1.7765    0.0000 C   0  0  0  0  0  0  0  0  0  0  0  0
    4.1710   -0.2963    0.0000 C   0  0  0  0  0  0  0  0  0  0  0  0
    5.5743    0.2334    0.0000 C   0  0  0  0  0  0  0  0  0  0  0  0
    5.8172    1.7136    0.0000 C   0  0  0  0  0  0  0  0  0  0  0  0
    7.2205    2.2434    0.0000 O   0  0  0  0  0  0  0  0  0  0  0  0
    4.6568    2.6641    0.0000 C   0  0  0  0  0  0  0  0  0  0  0  0
    3.2534    2.1343    0.0000 C   0  0  0  0  0  0  0  0  0  0  0  0
    3.0105    0.6541    0.0000 C   0  0  0  0  0  0  0  0  0  0  0  0
    1.8501    1.6046    0.0000 C   0  0  0  0  0  0  0  0  0  0  0  0
    1.6072    0.1244    0.0000 C   0  0  0  0  0  0  0  0  0  0  0  0
    0.4467    1.0748    0.0000 C   0  0  0  0  0  0  0  0  0  0  0  0
   -0.9566    0.5450    0.0000 C   0  0  0  0  0  0  0  0  0  0  0  0
   -2.1170    1.4955    0.0000 O   0  0  0  0  0  0  0  0  0  0  0  0
   -1.1995   -0.9352    0.0000 C   0  0  0  0  0  0  0  0  0  0  0  0
   -2.4529   -0.1112    0.0000 C   0  0  0  0  0  0  0  0  0  0  0  0
  2  1  1  6
  2  3  1  0
  3  4  1  0
  4  5  1  0
  5  6  2  0
  5  7  1  0
  2  8  1  0
  8  9  1  6
  9 10  1  0
 11 10  1  6
 11 12  1  0
 12 13  1  1
 13 14  1  6
 13 15  1  0
 16 15  1  1
 16 17  1  0
 17 18  1  0
 18 19  1  6
 18 20  1  0
 20 21  1  0
 21 22  1  0
 22 23  1  6
 22 24  1  0
 24 25  1  6
 25 26  1  0
 26 27  1  1
 26 28  1  0
 28 29  1  6
 28  8  1  0
 28 11  1  0
 24 12  1  0
 22 16  1  0
M  END
>  <MS_ID>  (170) 
MS0177

>  <SMILES>  (170) 
C[C@H](CCC(=O)S)[C@H]1CC[C@H]2[C@@H]3[C@@H](O)C[C@@H]4C[C@@H](O)CC[C@]4(C)[C@H]3C[C@H](O)[C@]12C

>  <Structure_dimension>  (170) 
2D

$$$$
MS0178
     RDKit          2D

 32 35  0  0  0  0  0  0  0  0999 V2000
   -4.2974   -3.0301    0.0000 C   0  0  0  0  0  0  0  0  0  0  0  0
   -3.2524   -1.9540    0.0000 C   0  0  0  0  0  0  0  0  0  0  0  0
   -3.6617   -0.5110    0.0000 C   0  0  0  0  0  0  0  0  0  0  0  0
   -5.1162   -0.1440    0.0000 C   0  0  0  0  0  0  0  0  0  0  0  0
   -5.5255    1.2991    0.0000 C   0  0  0  0  0  0  0  0  0  0  0  0
   -6.9799    1.6661    0.0000 O   0  0  0  0  0  0  0  0  0  0  0  0
   -4.4805    2.3752    0.0000 S   0  0  0  0  0  0  0  0  0  0  0  0
   -5.5565    3.4202    0.0000 O   0  0  0  0  0  0  0  0  0  0  0  0
   -3.4044    1.3301    0.0000 O   0  0  0  0  0  0  0  0  0  0  0  0
   -3.4354    3.4512    0.0000 O   0  0  0  0  0  0  0  0  0  0  0  0
   -1.7980   -2.3210    0.0000 C   0  0  0  0  0  0  0  0  0  0  0  0
   -1.2400   -3.7134    0.0000 C   0  0  0  0  0  0  0  0  0  0  0  0
    0.2566   -3.6130    0.0000 C   0  0  0  0  0  0  0  0  0  0  0  0
    0.6236   -2.1586    0.0000 C   0  0  0  0  0  0  0  0  0  0  0  0
    1.9500   -1.4581    0.0000 C   0  0  0  0  0  0  0  0  0  0  0  0
    3.2199   -2.2566    0.0000 C   0  0  0  0  0  0  0  0  0  0  0  0
    3.1633   -3.7556    0.0000 O   0  0  0  0  0  0  0  0  0  0  0  0
    4.5463   -1.5562    0.0000 C   0  0  0  0  0  0  0  0  0  0  0  0
    4.6029   -0.0573    0.0000 C   0  0  0  0  0  0  0  0  0  0  0  0
    5.9293    0.6432    0.0000 C   0  0  0  0  0  0  0  0  0  0  0  0
    5.9859    2.1421    0.0000 C   0  0  0  0  0  0  0  0  0  0  0  0
    7.3123    2.8426    0.0000 O   0  0  0  0  0  0  0  0  0  0  0  0
    4.7161    2.9406    0.0000 C   0  0  0  0  0  0  0  0  0  0  0  0
    3.3897    2.2402    0.0000 C   0  0  0  0  0  0  0  0  0  0  0  0
    3.3331    0.7412    0.0000 C   0  0  0  0  0  0  0  0  0  0  0  0
    2.0633    1.5397    0.0000 C   0  0  0  0  0  0  0  0  0  0  0  0
    2.0067    0.0408    0.0000 C   0  0  0  0  0  0  0  0  0  0  0  0
    0.7368    0.8393    0.0000 C   0  0  0  0  0  0  0  0  0  0  0  0
   -0.5896    0.1388    0.0000 C   0  0  0  0  0  0  0  0  0  0  0  0
   -1.8594    0.9373    0.0000 O   0  0  0  0  0  0  0  0  0  0  0  0
   -0.6462   -1.3601    0.0000 C   0  0  0  0  0  0  0  0  0  0  0  0
   -1.9925   -0.6987    0.0000 C   0  0  0  0  0  0  0  0  0  0  0  0
  2  1  1  6
  2  3  1  0
  3  4  1  0
  4  5  1  0
  5  6  2  0
  5  7  1  0
  7  8  2  0
  7  9  2  0
  7 10  1  0
  2 11  1  0
 11 12  1  6
 12 13  1  0
 14 13  1  6
 14 15  1  0
 15 16  1  1
 16 17  1  1
 16 18  1  0
 19 18  1  1
 19 20  1  0
 20 21  1  0
 21 22  1  1
 21 23  1  0
 23 24  1  0
 24 25  1  0
 25 26  1  6
 25 27  1  0
 27 28  1  6
 28 29  1  0
 29 30  1  1
 29 31  1  0
 31 32  1  6
 31 11  1  0
 31 14  1  0
 27 15  1  0
 25 19  1  0
M  END
>  <MS_ID>  (171) 
MS0178

>  <SMILES>  (171) 
C[C@H](CCC(=O)S(=O)(=O)O)[C@H]1CC[C@H]2[C@@H]3[C@H](O)C[C@@H]4C[C@H](O)CC[C@]4(C)[C@H]3C[C@H](O)[C@]12C

>  <Structure_dimension>  (171) 
2D

$$$$
MS0179
     RDKit          2D

 29 32  0  0  0  0  0  0  0  0999 V2000
   -5.0303   -2.1373    0.0000 C   0  0  0  0  0  0  0  0  0  0  0  0
   -3.8594   -1.1998    0.0000 C   0  0  0  0  0  0  0  0  0  0  0  0
   -4.0858    0.2830    0.0000 C   0  0  0  0  0  0  0  0  0  0  0  0
   -5.4831    0.8284    0.0000 C   0  0  0  0  0  0  0  0  0  0  0  0
   -5.7095    2.3112    0.0000 C   0  0  0  0  0  0  0  0  0  0  0  0
   -7.1069    2.8565    0.0000 O   0  0  0  0  0  0  0  0  0  0  0  0
   -4.5386    3.2487    0.0000 S   0  0  0  0  0  0  0  0  0  0  0  0
   -2.4620   -1.7451    0.0000 C   0  0  0  0  0  0  0  0  0  0  0  0
   -2.0818   -3.1961    0.0000 C   0  0  0  0  0  0  0  0  0  0  0  0
   -0.5844   -3.2830    0.0000 C   0  0  0  0  0  0  0  0  0  0  0  0
   -0.0390   -1.8856    0.0000 C   0  0  0  0  0  0  0  0  0  0  0  0
    1.3643   -1.3559    0.0000 C   0  0  0  0  0  0  0  0  0  0  0  0
    2.5248   -2.3063    0.0000 C   0  0  0  0  0  0  0  0  0  0  0  0
    2.2819   -3.7865    0.0000 O   0  0  0  0  0  0  0  0  0  0  0  0
    3.9281   -1.7765    0.0000 C   0  0  0  0  0  0  0  0  0  0  0  0
    4.1710   -0.2963    0.0000 C   0  0  0  0  0  0  0  0  0  0  0  0
    5.5743    0.2334    0.0000 C   0  0  0  0  0  0  0  0  0  0  0  0
    5.8172    1.7136    0.0000 C   0  0  0  0  0  0  0  0  0  0  0  0
    7.2205    2.2434    0.0000 O   0  0  0  0  0  0  0  0  0  0  0  0
    4.6568    2.6641    0.0000 C   0  0  0  0  0  0  0  0  0  0  0  0
    3.2534    2.1343    0.0000 C   0  0  0  0  0  0  0  0  0  0  0  0
    3.0105    0.6541    0.0000 C   0  0  0  0  0  0  0  0  0  0  0  0
    1.8501    1.6046    0.0000 C   0  0  0  0  0  0  0  0  0  0  0  0
    1.6072    0.1244    0.0000 C   0  0  0  0  0  0  0  0  0  0  0  0
    0.4467    1.0748    0.0000 C   0  0  0  0  0  0  0  0  0  0  0  0
   -0.9566    0.5450    0.0000 C   0  0  0  0  0  0  0  0  0  0  0  0
   -2.1170    1.4955    0.0000 O   0  0  0  0  0  0  0  0  0  0  0  0
   -1.1995   -0.9352    0.0000 C   0  0  0  0  0  0  0  0  0  0  0  0
   -2.4529   -0.1112    0.0000 C   0  0  0  0  0  0  0  0  0  0  0  0
  2  1  1  6
  2  3  1  0
  3  4  1  0
  4  5  1  0
  5  6  2  0
  5  7  1  0
  2  8  1  0
  8  9  1  6
  9 10  1  0
 11 10  1  6
 11 12  1  0
 12 13  1  1
 13 14  1  6
 13 15  1  0
 16 15  1  1
 16 17  1  0
 17 18  1  0
 18 19  1  1
 18 20  1  0
 20 21  1  0
 21 22  1  0
 22 23  1  6
 22 24  1  0
 24 25  1  6
 25 26  1  0
 26 27  1  6
 26 28  1  0
 28 29  1  6
 28  8  1  0
 28 11  1  0
 24 12  1  0
 22 16  1  0
M  END
>  <MS_ID>  (172) 
MS0179

>  <SMILES>  (172) 
C[C@H](CCC(=O)S)[C@H]1CC[C@H]2[C@@H]3[C@@H](O)C[C@@H]4C[C@H](O)CC[C@]4(C)[C@H]3C[C@@H](O)[C@]12C

>  <Structure_dimension>  (172) 
2D

$$$$
MS0180
     RDKit          2D

 34 37  0  0  0  0  0  0  0  0999 V2000
   -1.8984   -4.2506    0.0000 C   0  0  0  0  0  0  0  0  0  0  0  0
   -1.1842   -2.9316    0.0000 C   0  0  0  0  0  0  0  0  0  0  0  0
   -1.9694   -1.6535    0.0000 C   0  0  0  0  0  0  0  0  0  0  0  0
   -3.4688   -1.6945    0.0000 C   0  0  0  0  0  0  0  0  0  0  0  0
   -4.2540   -0.4165    0.0000 C   0  0  0  0  0  0  0  0  0  0  0  0
   -3.5398    0.9026    0.0000 O   0  0  0  0  0  0  0  0  0  0  0  0
   -5.7535   -0.4574    0.0000 N   0  0  0  0  0  0  0  0  0  0  0  0
   -6.5387    0.8206    0.0000 C   0  0  0  0  0  0  0  0  0  0  0  0
   -8.0381    0.7796    0.0000 C   0  0  0  0  0  0  0  0  0  0  0  0
   -8.8234    2.0577    0.0000 C   0  0  0  0  0  0  0  0  0  0  0  0
  -10.3228    2.0167    0.0000 C   0  0  0  0  0  0  0  0  0  0  0  0
  -11.0370    0.6977    0.0000 O   0  0  0  0  0  0  0  0  0  0  0  0
  -11.1080    3.2948    0.0000 O   0  0  0  0  0  0  0  0  0  0  0  0
    0.3153   -2.8906    0.0000 C   0  0  0  0  0  0  0  0  0  0  0  0
    1.2298   -4.0796    0.0000 C   0  0  0  0  0  0  0  0  0  0  0  0
    2.6432   -3.5773    0.0000 C   0  0  0  0  0  0  0  0  0  0  0  0
    2.6022   -2.0778    0.0000 C   0  0  0  0  0  0  0  0  0  0  0  0
    3.6890   -1.0440    0.0000 C   0  0  0  0  0  0  0  0  0  0  0  0
    5.1278   -1.4684    0.0000 C   0  0  0  0  0  0  0  0  0  0  0  0
    5.4796   -2.9266    0.0000 O   0  0  0  0  0  0  0  0  0  0  0  0
    6.2146   -0.4346    0.0000 C   0  0  0  0  0  0  0  0  0  0  0  0
    5.8628    1.0235    0.0000 C   0  0  0  0  0  0  0  0  0  0  0  0
    6.9497    2.0573    0.0000 C   0  0  0  0  0  0  0  0  0  0  0  0
    6.5978    3.5154    0.0000 C   0  0  0  0  0  0  0  0  0  0  0  0
    7.6847    4.5492    0.0000 O   0  0  0  0  0  0  0  0  0  0  0  0
    5.1591    3.9398    0.0000 C   0  0  0  0  0  0  0  0  0  0  0  0
    4.0722    2.9060    0.0000 C   0  0  0  0  0  0  0  0  0  0  0  0
    4.4241    1.4479    0.0000 C   0  0  0  0  0  0  0  0  0  0  0  0
    2.9854    1.8723    0.0000 C   0  0  0  0  0  0  0  0  0  0  0  0
    3.3372    0.4141    0.0000 C   0  0  0  0  0  0  0  0  0  0  0  0
    1.8985    0.8385    0.0000 C   0  0  0  0  0  0  0  0  0  0  0  0
    0.8116   -0.1953    0.0000 C   0  0  0  0  0  0  0  0  0  0  0  0
    1.1635   -1.6534    0.0000 C   0  0  0  0  0  0  0  0  0  0  0  0
   -0.3117   -1.3818    0.0000 C   0  0  0  0  0  0  0  0  0  0  0  0
  2  1  1  6
  2  3  1  0
  3  4  1  0
  4  5  1  0
  5  6  2  0
  5  7  1  0
  7  8  1  0
  8  9  1  0
  9 10  1  0
 10 11  1  0
 11 12  2  0
 11 13  1  0
  2 14  1  0
 14 15  1  6
 15 16  1  0
 17 16  1  6
 17 18  1  0
 18 19  1  1
 19 20  1  6
 19 21  1  0
 22 21  1  1
 22 23  1  0
 23 24  1  0
 24 25  1  1
 24 26  1  0
 26 27  1  0
 27 28  1  0
 28 29  1  6
 28 30  1  0
 30 31  1  6
 31 32  1  0
 32 33  1  0
 33 34  1  6
 33 14  1  0
 33 17  1  0
 30 18  1  0
 28 22  1  0
M  END
>  <MS_ID>  (173) 
MS0180

>  <SMILES>  (173) 
C[C@H](CCC(=O)NCCCC(=O)O)[C@H]1CC[C@H]2[C@@H]3[C@@H](O)C[C@@H]4C[C@H](O)CC[C@]4(C)[C@H]3CC[C@]12C

>  <Structure_dimension>  (173) 
2D

$$$$
MS0181
     RDKit          2D

 29 32  0  0  0  0  0  0  0  0999 V2000
   -7.2216    3.6536    0.0000 C   0  0  0  0  0  0  0  0  0  0  0  0
   -6.9111    2.1861    0.0000 O   0  0  0  0  0  0  0  0  0  0  0  0
   -5.4850    1.7213    0.0000 C   0  0  0  0  0  0  0  0  0  0  0  0
   -4.3693    2.7239    0.0000 O   0  0  0  0  0  0  0  0  0  0  0  0
   -5.1744    0.2538    0.0000 C   0  0  0  0  0  0  0  0  0  0  0  0
   -3.7483   -0.2111    0.0000 C   0  0  0  0  0  0  0  0  0  0  0  0
   -3.4378   -1.6786    0.0000 C   0  0  0  0  0  0  0  0  0  0  0  0
   -4.5534   -2.6812    0.0000 C   0  0  0  0  0  0  0  0  0  0  0  0
   -2.0116   -2.1434    0.0000 C   0  0  0  0  0  0  0  0  0  0  0  0
   -1.5494   -3.5704    0.0000 C   0  0  0  0  0  0  0  0  0  0  0  0
   -0.0494   -3.5718    0.0000 C   0  0  0  0  0  0  0  0  0  0  0  0
    0.4155   -2.1456    0.0000 C   0  0  0  0  0  0  0  0  0  0  0  0
    1.7863   -1.5368    0.0000 C   0  0  0  0  0  0  0  0  0  0  0  0
    2.9990   -2.4196    0.0000 C   0  0  0  0  0  0  0  0  0  0  0  0
    4.3699   -1.8107    0.0000 C   0  0  0  0  0  0  0  0  0  0  0  0
    4.5281   -0.3191    0.0000 C   0  0  0  0  0  0  0  0  0  0  0  0
    5.8990    0.2898    0.0000 C   0  0  0  0  0  0  0  0  0  0  0  0
    6.0571    1.7814    0.0000 C   0  0  0  0  0  0  0  0  0  0  0  0
    7.4280    2.3902    0.0000 O   0  0  0  0  0  0  0  0  0  0  0  0
    4.8444    2.6642    0.0000 C   0  0  0  0  0  0  0  0  0  0  0  0
    3.4735    2.0553    0.0000 C   0  0  0  0  0  0  0  0  0  0  0  0
    3.3154    0.5637    0.0000 C   0  0  0  0  0  0  0  0  0  0  0  0
    2.1026    1.4465    0.0000 C   0  0  0  0  0  0  0  0  0  0  0  0
    1.9445   -0.0451    0.0000 C   0  0  0  0  0  0  0  0  0  0  0  0
    0.7318    0.8376    0.0000 C   0  0  0  0  0  0  0  0  0  0  0  0
   -0.6391    0.2288    0.0000 C   0  0  0  0  0  0  0  0  0  0  0  0
   -1.8518    1.1116    0.0000 O   0  0  0  0  0  0  0  0  0  0  0  0
   -0.7973   -1.2628    0.0000 C   0  0  0  0  0  0  0  0  0  0  0  0
   -2.0956   -0.5116    0.0000 C   0  0  0  0  0  0  0  0  0  0  0  0
  1  2  1  0
  2  3  1  0
  3  4  2  0
  3  5  1  0
  5  6  1  0
  6  7  1  0
  7  8  1  6
  7  9  1  0
  9 10  1  6
 10 11  1  0
 12 11  1  6
 12 13  1  0
 13 14  1  1
 14 15  1  0
 16 15  1  1
 16 17  1  0
 17 18  1  0
 18 19  1  1
 18 20  1  0
 20 21  1  0
 21 22  1  0
 22 23  1  6
 22 24  1  0
 24 25  1  6
 25 26  1  0
 26 27  1  1
 26 28  1  0
 28 29  1  6
 28  9  1  0
 28 12  1  0
 24 13  1  0
 22 16  1  0
M  END
>  <MS_ID>  (174) 
MS0181

>  <SMILES>  (174) 
COC(=O)CC[C@@H](C)[C@H]1CC[C@H]2[C@@H]3CC[C@@H]4C[C@H](O)CC[C@]4(C)[C@H]3C[C@H](O)[C@]12C

>  <Structure_dimension>  (174) 
2D

$$$$
MS0182
     RDKit          2D

 29 32  0  0  0  0  0  0  0  0999 V2000
   -5.0303   -2.1373    0.0000 C   0  0  0  0  0  0  0  0  0  0  0  0
   -3.8594   -1.1998    0.0000 C   0  0  0  0  0  0  0  0  0  0  0  0
   -4.0858    0.2830    0.0000 C   0  0  0  0  0  0  0  0  0  0  0  0
   -5.4831    0.8284    0.0000 C   0  0  0  0  0  0  0  0  0  0  0  0
   -5.7095    2.3112    0.0000 C   0  0  0  0  0  0  0  0  0  0  0  0
   -4.5386    3.2487    0.0000 O   0  0  0  0  0  0  0  0  0  0  0  0
   -7.1069    2.8565    0.0000 O   0  0  0  0  0  0  0  0  0  0  0  0
   -2.4620   -1.7451    0.0000 C   0  0  0  0  0  0  0  0  0  0  0  0
   -2.0818   -3.1961    0.0000 C   0  0  0  0  0  0  0  0  0  0  0  0
   -0.5844   -3.2830    0.0000 C   0  0  0  0  0  0  0  0  0  0  0  0
   -0.0390   -1.8856    0.0000 C   0  0  0  0  0  0  0  0  0  0  0  0
    1.3643   -1.3559    0.0000 C   0  0  0  0  0  0  0  0  0  0  0  0
    2.5248   -2.3063    0.0000 C   0  0  0  0  0  0  0  0  0  0  0  0
    2.2819   -3.7865    0.0000 O   0  0  0  0  0  0  0  0  0  0  0  0
    3.9281   -1.7765    0.0000 C   0  0  0  0  0  0  0  0  0  0  0  0
    4.1710   -0.2963    0.0000 C   0  0  0  0  0  0  0  0  0  0  0  0
    5.5743    0.2334    0.0000 C   0  0  0  0  0  0  0  0  0  0  0  0
    5.8172    1.7136    0.0000 C   0  0  0  0  0  0  0  0  0  0  0  0
    7.2205    2.2434    0.0000 O   0  0  0  0  0  0  0  0  0  0  0  0
    4.6568    2.6641    0.0000 C   0  0  0  0  0  0  0  0  0  0  0  0
    3.2534    2.1343    0.0000 C   0  0  0  0  0  0  0  0  0  0  0  0
    3.0105    0.6541    0.0000 C   0  0  0  0  0  0  0  0  0  0  0  0
    1.8501    1.6046    0.0000 C   0  0  0  0  0  0  0  0  0  0  0  0
    1.6072    0.1244    0.0000 C   0  0  0  0  0  0  0  0  0  0  0  0
    0.4467    1.0748    0.0000 C   0  0  0  0  0  0  0  0  0  0  0  0
   -0.9566    0.5450    0.0000 C   0  0  0  0  0  0  0  0  0  0  0  0
   -2.1170    1.4955    0.0000 O   0  0  0  0  0  0  0  0  0  0  0  0
   -1.1995   -0.9352    0.0000 C   0  0  0  0  0  0  0  0  0  0  0  0
   -2.4529   -0.1112    0.0000 C   0  0  0  0  0  0  0  0  0  0  0  0
  2  1  1  6
  2  3  1  0
  3  4  1  0
  4  5  1  0
  5  6  2  0
  5  7  1  0
  2  8  1  0
  8  9  1  6
  9 10  1  0
 11 10  1  6
 11 12  1  0
 12 13  1  1
 13 14  1  6
 13 15  1  0
 16 15  1  1
 16 17  1  0
 17 18  1  0
 18 19  2  0
 18 20  1  0
 20 21  1  0
 21 22  1  0
 22 23  1  6
 22 24  1  0
 24 25  1  6
 25 26  1  0
 26 27  1  6
 26 28  1  0
 28 29  1  6
 28  8  1  0
 28 11  1  0
 24 12  1  0
 22 16  1  0
M  END
>  <MS_ID>  (175) 
MS0182

>  <SMILES>  (175) 
C[C@H](CCC(=O)O)[C@H]1CC[C@H]2[C@@H]3[C@@H](O)C[C@@H]4CC(=O)CC[C@]4(C)[C@H]3C[C@@H](O)[C@]12C

>  <Structure_dimension>  (175) 
2D

$$$$
MS0183
     RDKit          2D

 30 33  0  0  0  0  0  0  0  0999 V2000
   -4.5685   -2.6908    0.0000 C   0  0  0  0  0  0  0  0  0  0  0  0
   -3.4838   -1.6548    0.0000 C   0  0  0  0  0  0  0  0  0  0  0  0
   -3.8388   -0.1974    0.0000 C   0  0  0  0  0  0  0  0  0  0  0  0
   -5.2784    0.2240    0.0000 C   0  0  0  0  0  0  0  0  0  0  0  0
   -5.6333    1.6814    0.0000 C   0  0  0  0  0  0  0  0  0  0  0  0
   -4.5486    2.7174    0.0000 O   0  0  0  0  0  0  0  0  0  0  0  0
   -7.0729    2.1027    0.0000 C   0  0  0  0  0  0  0  0  0  0  0  0
   -7.4279    3.5601    0.0000 O   0  0  0  0  0  0  0  0  0  0  0  0
   -2.0442   -2.0761    0.0000 C   0  0  0  0  0  0  0  0  0  0  0  0
   -1.5389   -3.4884    0.0000 C   0  0  0  0  0  0  0  0  0  0  0  0
   -0.0395   -3.4442    0.0000 C   0  0  0  0  0  0  0  0  0  0  0  0
    0.3818   -2.0046    0.0000 C   0  0  0  0  0  0  0  0  0  0  0  0
    1.7336   -1.3544    0.0000 C   0  0  0  0  0  0  0  0  0  0  0  0
    2.9725   -2.1999    0.0000 C   0  0  0  0  0  0  0  0  0  0  0  0
    2.8597   -3.6957    0.0000 O   0  0  0  0  0  0  0  0  0  0  0  0
    4.3243   -1.5497    0.0000 C   0  0  0  0  0  0  0  0  0  0  0  0
    4.4371   -0.0540    0.0000 C   0  0  0  0  0  0  0  0  0  0  0  0
    5.7888    0.5962    0.0000 C   0  0  0  0  0  0  0  0  0  0  0  0
    5.9016    2.0920    0.0000 C   0  0  0  0  0  0  0  0  0  0  0  0
    7.2534    2.7422    0.0000 O   0  0  0  0  0  0  0  0  0  0  0  0
    4.6627    2.9375    0.0000 C   0  0  0  0  0  0  0  0  0  0  0  0
    3.3109    2.2873    0.0000 C   0  0  0  0  0  0  0  0  0  0  0  0
    3.1981    0.7916    0.0000 C   0  0  0  0  0  0  0  0  0  0  0  0
    1.9591    1.6371    0.0000 C   0  0  0  0  0  0  0  0  0  0  0  0
    1.8464    0.1414    0.0000 C   0  0  0  0  0  0  0  0  0  0  0  0
    0.6074    0.9869    0.0000 C   0  0  0  0  0  0  0  0  0  0  0  0
   -0.7444    0.3367    0.0000 C   0  0  0  0  0  0  0  0  0  0  0  0
   -1.9833    1.1823    0.0000 O   0  0  0  0  0  0  0  0  0  0  0  0
   -0.8572   -1.1590    0.0000 C   0  0  0  0  0  0  0  0  0  0  0  0
   -2.1777   -0.4476    0.0000 C   0  0  0  0  0  0  0  0  0  0  0  0
  2  1  1  6
  2  3  1  0
  3  4  1  0
  4  5  1  0
  5  6  2  0
  5  7  1  0
  7  8  1  0
  2  9  1  0
  9 10  1  6
 10 11  1  0
 12 11  1  6
 12 13  1  0
 13 14  1  1
 14 15  2  0
 14 16  1  0
 17 16  1  1
 17 18  1  0
 18 19  1  0
 19 20  1  1
 19 21  1  0
 21 22  1  0
 22 23  1  0
 23 24  1  6
 23 25  1  0
 25 26  1  6
 26 27  1  0
 27 28  1  1
 27 29  1  0
 29 30  1  6
 29  9  1  0
 29 12  1  0
 25 13  1  0
 23 17  1  0
M  END
>  <MS_ID>  (176) 
MS0183

>  <SMILES>  (176) 
C[C@H](CCC(=O)CO)[C@H]1CC[C@H]2[C@@H]3C(=O)C[C@@H]4C[C@H](O)CC[C@]4(C)[C@H]3C[C@H](O)[C@]12C

>  <Structure_dimension>  (176) 
2D

$$$$
MS0185
     RDKit          2D

 30 33  0  0  0  0  0  0  0  0999 V2000
   -5.8176   -1.7103    0.0000 C   0  0  0  0  0  0  0  0  0  0  0  0
   -4.5630   -0.8881    0.0000 C   0  0  0  0  0  0  0  0  0  0  0  0
   -4.6476    0.6095    0.0000 C   0  0  0  0  0  0  0  0  0  0  0  0
   -5.9869    1.2849    0.0000 C   0  0  0  0  0  0  0  0  0  0  0  0
   -6.0716    2.7826    0.0000 C   0  0  0  0  0  0  0  0  0  0  0  0
   -4.8170    3.6047    0.0000 O   0  0  0  0  0  0  0  0  0  0  0  0
   -7.4109    3.4580    0.0000 O   0  0  0  0  0  0  0  0  0  0  0  0
   -3.2237   -1.5636    0.0000 C   0  0  0  0  0  0  0  0  0  0  0  0
   -2.9829   -3.0442    0.0000 C   0  0  0  0  0  0  0  0  0  0  0  0
   -1.5004   -3.2727    0.0000 C   0  0  0  0  0  0  0  0  0  0  0  0
   -0.8249   -1.9334    0.0000 C   0  0  0  0  0  0  0  0  0  0  0  0
    0.6223   -1.5392    0.0000 C   0  0  0  0  0  0  0  0  0  0  0  0
    1.6874   -2.5955    0.0000 C   0  0  0  0  0  0  0  0  0  0  0  0
    1.3051   -4.0460    0.0000 O   0  0  0  0  0  0  0  0  0  0  0  0
    3.1346   -2.2013    0.0000 C   0  0  0  0  0  0  0  0  0  0  0  0
    3.5169   -0.7508    0.0000 C   0  0  0  0  0  0  0  0  0  0  0  0
    4.9642   -0.3567    0.0000 C   0  0  0  0  0  0  0  0  0  0  0  0
    5.3464    1.0938    0.0000 C   0  0  0  0  0  0  0  0  0  0  0  0
    6.7937    1.4880    0.0000 C   0  0  0  0  0  0  0  0  0  0  0  0
    7.1760    2.9385    0.0000 O   0  0  0  0  0  0  0  0  0  0  0  0
    7.8587    0.4317    0.0000 O   0  0  0  0  0  0  0  0  0  0  0  0
    4.2814    2.1501    0.0000 C   0  0  0  0  0  0  0  0  0  0  0  0
    2.8341    1.7559    0.0000 C   0  0  0  0  0  0  0  0  0  0  0  0
    2.4519    0.3054    0.0000 C   0  0  0  0  0  0  0  0  0  0  0  0
    1.3869    1.3617    0.0000 C   0  0  0  0  0  0  0  0  0  0  0  0
    1.0046   -0.0888    0.0000 C   0  0  0  0  0  0  0  0  0  0  0  0
   -0.0604    0.9675    0.0000 C   0  0  0  0  0  0  0  0  0  0  0  0
   -1.5077    0.5733    0.0000 C   0  0  0  0  0  0  0  0  0  0  0  0
   -1.8900   -0.8771    0.0000 C   0  0  0  0  0  0  0  0  0  0  0  0
   -3.0596    0.0620    0.0000 C   0  0  0  0  0  0  0  0  0  0  0  0
  2  1  1  6
  2  3  1  0
  3  4  1  0
  4  5  1  0
  5  6  2  0
  5  7  1  0
  2  8  1  0
  8  9  1  6
  9 10  1  0
 11 10  1  6
 11 12  1  0
 12 13  1  1
 13 14  1  6
 13 15  1  0
 16 15  1  1
 16 17  1  0
 17 18  1  0
 18 19  1  1
 19 20  2  0
 19 21  1  0
 18 22  1  0
 22 23  1  0
 23 24  1  0
 24 25  1  6
 24 26  1  0
 26 27  1  6
 27 28  1  0
 28 29  1  0
 29 30  1  6
 29  8  1  0
 29 11  1  0
 26 12  1  0
 24 16  1  0
M  END
>  <MS_ID>  (177) 
MS0185

>  <SMILES>  (177) 
C[C@H](CCC(=O)O)[C@H]1CC[C@H]2[C@@H]3[C@@H](O)C[C@@H]4C[C@H](C(=O)O)CC[C@]4(C)[C@H]3CC[C@]12C

>  <Structure_dimension>  (177) 
2D

$$$$
MS0186
     RDKit          2D

 33 36  0  0  0  0  0  0  0  0999 V2000
   -6.2027   -1.9081    0.0000 C   0  0  0  0  0  0  0  0  0  0  0  0
   -4.9792   -1.0402    0.0000 C   0  0  0  0  0  0  0  0  0  0  0  0
   -5.1191    0.4533    0.0000 C   0  0  0  0  0  0  0  0  0  0  0  0
   -6.4825    1.0788    0.0000 C   0  0  0  0  0  0  0  0  0  0  0  0
   -6.6223    2.5723    0.0000 C   0  0  0  0  0  0  0  0  0  0  0  0
   -5.3989    3.4402    0.0000 O   0  0  0  0  0  0  0  0  0  0  0  0
   -7.9857    3.1979    0.0000 O   0  0  0  0  0  0  0  0  0  0  0  0
   -3.6159   -1.6658    0.0000 C   0  0  0  0  0  0  0  0  0  0  0  0
   -3.3207   -3.1364    0.0000 C   0  0  0  0  0  0  0  0  0  0  0  0
   -1.8308   -3.3101    0.0000 C   0  0  0  0  0  0  0  0  0  0  0  0
   -1.2052   -1.9468    0.0000 C   0  0  0  0  0  0  0  0  0  0  0  0
    0.2265   -1.4995    0.0000 C   0  0  0  0  0  0  0  0  0  0  0  0
    1.3298   -2.5157    0.0000 C   0  0  0  0  0  0  0  0  0  0  0  0
    1.0014   -3.9793    0.0000 O   0  0  0  0  0  0  0  0  0  0  0  0
    2.7616   -2.0684    0.0000 C   0  0  0  0  0  0  0  0  0  0  0  0
    3.0900   -0.6048    0.0000 C   0  0  0  0  0  0  0  0  0  0  0  0
    4.5218   -0.1574    0.0000 C   0  0  0  0  0  0  0  0  0  0  0  0
    4.8502    1.3061    0.0000 C   0  0  0  0  0  0  0  0  0  0  0  0
    6.2820    1.7535    0.0000 O   0  0  0  0  0  0  0  0  0  0  0  0
    7.3853    0.7372    0.0000 S   0  0  0  0  0  0  0  0  0  0  0  0
    6.3690   -0.3660    0.0000 O   0  0  0  0  0  0  0  0  0  0  0  0
    8.4015    1.8405    0.0000 O   0  0  0  0  0  0  0  0  0  0  0  0
    8.4885   -0.2790    0.0000 O   0  0  0  0  0  0  0  0  0  0  0  0
    3.7470    2.3224    0.0000 C   0  0  0  0  0  0  0  0  0  0  0  0
    2.3152    1.8751    0.0000 C   0  0  0  0  0  0  0  0  0  0  0  0
    1.9868    0.4115    0.0000 C   0  0  0  0  0  0  0  0  0  0  0  0
    0.8835    1.4277    0.0000 C   0  0  0  0  0  0  0  0  0  0  0  0
    0.5550   -0.0359    0.0000 C   0  0  0  0  0  0  0  0  0  0  0  0
   -0.5483    0.9804    0.0000 C   0  0  0  0  0  0  0  0  0  0  0  0
   -1.9800    0.5330    0.0000 C   0  0  0  0  0  0  0  0  0  0  0  0
   -3.0833    1.5493    0.0000 O   0  0  0  0  0  0  0  0  0  0  0  0
   -2.3085   -0.9305    0.0000 C   0  0  0  0  0  0  0  0  0  0  0  0
   -3.5119   -0.0352    0.0000 C   0  0  0  0  0  0  0  0  0  0  0  0
  2  1  1  6
  2  3  1  0
  3  4  1  0
  4  5  1  0
  5  6  2  0
  5  7  1  0
  2  8  1  0
  8  9  1  6
  9 10  1  0
 11 10  1  6
 11 12  1  0
 12 13  1  1
 13 14  1  1
 13 15  1  0
 16 15  1  1
 16 17  1  0
 17 18  1  0
 18 19  1  1
 19 20  1  0
 20 21  2  0
 20 22  2  0
 20 23  1  0
 18 24  1  0
 24 25  1  0
 25 26  1  0
 26 27  1  6
 26 28  1  0
 28 29  1  6
 29 30  1  0
 30 31  1  6
 30 32  1  0
 32 33  1  6
 32  8  1  0
 32 11  1  0
 28 12  1  0
 26 16  1  0
M  END
>  <MS_ID>  (178) 
MS0186

>  <SMILES>  (178) 
C[C@H](CCC(=O)O)[C@H]1CC[C@H]2[C@@H]3[C@H](O)C[C@@H]4C[C@H](OS(=O)(=O)O)CC[C@]4(C)[C@H]3C[C@@H](O)[C@]12C

>  <Structure_dimension>  (178) 
2D

$$$$
MS0187
     RDKit          2D

 31 34  0  0  0  0  0  0  0  0999 V2000
   -2.7019   -3.6997    0.0000 C   0  0  0  0  0  0  0  0  0  0  0  0
   -1.8903   -2.4382    0.0000 C   0  0  0  0  0  0  0  0  0  0  0  0
   -2.5770   -1.1046    0.0000 C   0  0  0  0  0  0  0  0  0  0  0  0
   -4.0753   -1.0325    0.0000 C   0  0  0  0  0  0  0  0  0  0  0  0
   -4.7620    0.3011    0.0000 C   0  0  0  0  0  0  0  0  0  0  0  0
   -3.9505    1.5626    0.0000 O   0  0  0  0  0  0  0  0  0  0  0  0
   -6.2603    0.3731    0.0000 N   0  0  0  0  0  0  0  0  0  0  0  0
   -6.9470    1.7067    0.0000 C   0  0  0  0  0  0  0  0  0  0  0  0
   -8.4453    1.7788    0.0000 C   0  0  0  0  0  0  0  0  0  0  0  0
   -9.2568    0.5173    0.0000 O   0  0  0  0  0  0  0  0  0  0  0  0
   -9.1320    3.1123    0.0000 O   0  0  0  0  0  0  0  0  0  0  0  0
   -0.3920   -2.5102    0.0000 C   0  0  0  0  0  0  0  0  0  0  0  0
    0.4303   -3.7647    0.0000 C   0  0  0  0  0  0  0  0  0  0  0  0
    1.8775   -3.3703    0.0000 C   0  0  0  0  0  0  0  0  0  0  0  0
    1.9496   -1.8720    0.0000 C   0  0  0  0  0  0  0  0  0  0  0  0
    3.1112   -0.9230    0.0000 C   0  0  0  0  0  0  0  0  0  0  0  0
    4.5139   -1.4545    0.0000 C   0  0  0  0  0  0  0  0  0  0  0  0
    4.7549   -2.9351    0.0000 O   0  0  0  0  0  0  0  0  0  0  0  0
    5.6756   -0.5056    0.0000 C   0  0  0  0  0  0  0  0  0  0  0  0
    5.4345    0.9750    0.0000 C   0  0  0  0  0  0  0  0  0  0  0  0
    6.5962    1.9239    0.0000 C   0  0  0  0  0  0  0  0  0  0  0  0
    6.3552    3.4044    0.0000 C   0  0  0  0  0  0  0  0  0  0  0  0
    4.9525    3.9360    0.0000 C   0  0  0  0  0  0  0  0  0  0  0  0
    3.7909    2.9870    0.0000 C   0  0  0  0  0  0  0  0  0  0  0  0
    4.0319    1.5065    0.0000 C   0  0  0  0  0  0  0  0  0  0  0  0
    2.6292    2.0380    0.0000 C   0  0  0  0  0  0  0  0  0  0  0  0
    2.8702    0.5575    0.0000 C   0  0  0  0  0  0  0  0  0  0  0  0
    1.4676    1.0890    0.0000 C   0  0  0  0  0  0  0  0  0  0  0  0
    0.3059    0.1401    0.0000 C   0  0  0  0  0  0  0  0  0  0  0  0
    0.5469   -1.3405    0.0000 C   0  0  0  0  0  0  0  0  0  0  0  0
   -0.9036   -0.9585    0.0000 C   0  0  0  0  0  0  0  0  0  0  0  0
  2  1  1  6
  2  3  1  0
  3  4  1  0
  4  5  1  0
  5  6  2  0
  5  7  1  0
  7  8  1  0
  8  9  1  0
  9 10  2  0
  9 11  1  0
  2 12  1  0
 12 13  1  6
 13 14  1  0
 15 14  1  6
 15 16  1  0
 16 17  1  1
 17 18  1  6
 17 19  1  0
 20 19  1  1
 20 21  1  0
 21 22  1  0
 22 23  1  0
 23 24  1  0
 24 25  1  0
 25 26  1  6
 25 27  1  0
 27 28  1  6
 28 29  1  0
 29 30  1  0
 30 31  1  6
 30 12  1  0
 30 15  1  0
 27 16  1  0
 25 20  1  0
M  END
>  <MS_ID>  (179) 
MS0187

>  <SMILES>  (179) 
C[C@H](CCC(=O)NCC(=O)O)[C@H]1CC[C@H]2[C@@H]3[C@@H](O)C[C@@H]4CCCC[C@]4(C)[C@H]3CC[C@]12C

>  <Structure_dimension>  (179) 
2D

$$$$
MS0188
     RDKit          2D

 33 36  0  0  0  0  0  0  0  0999 V2000
   -5.0246   -2.6773    0.0000 C   0  0  0  0  0  0  0  0  0  0  0  0
   -4.0826   -1.5100    0.0000 C   0  0  0  0  0  0  0  0  0  0  0  0
   -4.6226   -0.1105    0.0000 C   0  0  0  0  0  0  0  0  0  0  0  0
   -6.1045    0.1216    0.0000 C   0  0  0  0  0  0  0  0  0  0  0  0
   -6.6444    1.5210    0.0000 C   0  0  0  0  0  0  0  0  0  0  0  0
   -5.7025    2.6884    0.0000 O   0  0  0  0  0  0  0  0  0  0  0  0
   -8.1264    1.7531    0.0000 O   0  0  0  0  0  0  0  0  0  0  0  0
   -2.6007   -1.7421    0.0000 C   0  0  0  0  0  0  0  0  0  0  0  0
   -1.9174   -3.0774    0.0000 C   0  0  0  0  0  0  0  0  0  0  0  0
   -0.4363   -2.8402    0.0000 C   0  0  0  0  0  0  0  0  0  0  0  0
   -0.2042   -1.3583    0.0000 C   0  0  0  0  0  0  0  0  0  0  0  0
    1.0525   -0.5392    0.0000 C   0  0  0  0  0  0  0  0  0  0  0  0
    2.3901   -1.2179    0.0000 C   0  0  0  0  0  0  0  0  0  0  0  0
    2.4712   -2.7157    0.0000 O   0  0  0  0  0  0  0  0  0  0  0  0
    3.8089   -3.3944    0.0000 S   0  0  0  0  0  0  0  0  0  0  0  0
    4.4876   -2.0567    0.0000 O   0  0  0  0  0  0  0  0  0  0  0  0
    3.1302   -4.7321    0.0000 O   0  0  0  0  0  0  0  0  0  0  0  0
    5.1465   -4.0731    0.0000 O   0  0  0  0  0  0  0  0  0  0  0  0
    3.6467   -0.3988    0.0000 C   0  0  0  0  0  0  0  0  0  0  0  0
    3.5657    1.0990    0.0000 C   0  0  0  0  0  0  0  0  0  0  0  0
    4.8223    1.9182    0.0000 C   0  0  0  0  0  0  0  0  0  0  0  0
    4.7412    3.4160    0.0000 C   0  0  0  0  0  0  0  0  0  0  0  0
    5.9978    4.2351    0.0000 O   0  0  0  0  0  0  0  0  0  0  0  0
    3.4035    4.0947    0.0000 C   0  0  0  0  0  0  0  0  0  0  0  0
    2.1469    3.2755    0.0000 C   0  0  0  0  0  0  0  0  0  0  0  0
    2.2280    1.7777    0.0000 C   0  0  0  0  0  0  0  0  0  0  0  0
    0.8903    2.4564    0.0000 C   0  0  0  0  0  0  0  0  0  0  0  0
    0.9714    0.9586    0.0000 C   0  0  0  0  0  0  0  0  0  0  0  0
   -0.3663    1.6373    0.0000 C   0  0  0  0  0  0  0  0  0  0  0  0
   -1.6229    0.8182    0.0000 C   0  0  0  0  0  0  0  0  0  0  0  0
   -2.9606    1.4969    0.0000 O   0  0  0  0  0  0  0  0  0  0  0  0
   -1.5418   -0.6796    0.0000 C   0  0  0  0  0  0  0  0  0  0  0  0
   -2.9431   -0.1445    0.0000 C   0  0  0  0  0  0  0  0  0  0  0  0
  2  1  1  6
  2  3  1  0
  3  4  1  0
  4  5  1  0
  5  6  2  0
  5  7  1  0
  2  8  1  0
  8  9  1  6
  9 10  1  0
 11 10  1  6
 11 12  1  0
 12 13  1  1
 13 14  1  1
 14 15  1  0
 15 16  2  0
 15 17  2  0
 15 18  1  0
 13 19  1  0
 20 19  1  1
 20 21  1  0
 21 22  1  0
 22 23  1  6
 22 24  1  0
 24 25  1  0
 25 26  1  0
 26 27  1  6
 26 28  1  0
 28 29  1  6
 29 30  1  0
 30 31  1  1
 30 32  1  0
 32 33  1  6
 32  8  1  0
 32 11  1  0
 28 12  1  0
 26 20  1  0
M  END
>  <MS_ID>  (180) 
MS0188

>  <SMILES>  (180) 
C[C@H](CCC(=O)O)[C@H]1CC[C@H]2[C@@H]3[C@H](OS(=O)(=O)O)C[C@@H]4C[C@@H](O)CC[C@]4(C)[C@H]3C[C@H](O)[C@]12C

>  <Structure_dimension>  (180) 
2D

$$$$
MS0189
     RDKit          2D

 43 48  0  0  0  0  0  0  0  0999 V2000
    0.2606   -4.8250    0.0000 C   0  0  0  0  0  0  0  0  0  0  0  0
    0.7909   -3.4219    0.0000 C   0  0  0  0  0  0  0  0  0  0  0  0
   -0.1591   -2.2611    0.0000 C   0  0  0  0  0  0  0  0  0  0  0  0
   -1.6394   -2.5033    0.0000 C   0  0  0  0  0  0  0  0  0  0  0  0
   -2.5894   -1.3425    0.0000 C   0  0  0  0  0  0  0  0  0  0  0  0
   -2.0591    0.0606    0.0000 O   0  0  0  0  0  0  0  0  0  0  0  0
   -4.0697   -1.5848    0.0000 N   0  0  0  0  0  0  0  0  0  0  0  0
   -5.0197   -0.4240    0.0000 C   0  0  0  0  0  0  0  0  0  0  0  0
   -6.5000   -0.6663    0.0000 C   0  0  0  0  0  0  0  0  0  0  0  0
   -7.4500    0.4945    0.0000 C   0  0  0  0  0  0  0  0  0  0  0  0
   -7.0692    1.9454    0.0000 C   0  0  0  0  0  0  0  0  0  0  0  0
   -8.3314    2.7559    0.0000 N   0  0  0  0  0  0  0  0  0  0  0  0
   -9.4923    1.8059    0.0000 C   0  0  0  0  0  0  0  0  0  0  0  0
  -10.9750    2.0329    0.0000 C   0  0  0  0  0  0  0  0  0  0  0  0
  -11.9129    0.8623    0.0000 C   0  0  0  0  0  0  0  0  0  0  0  0
  -11.3682   -0.5353    0.0000 C   0  0  0  0  0  0  0  0  0  0  0  0
   -9.8854   -0.7623    0.0000 C   0  0  0  0  0  0  0  0  0  0  0  0
   -8.9475    0.4083    0.0000 C   0  0  0  0  0  0  0  0  0  0  0  0
   -4.4894    0.9791    0.0000 C   0  0  0  0  0  0  0  0  0  0  0  0
   -3.0091    1.2214    0.0000 O   0  0  0  0  0  0  0  0  0  0  0  0
   -5.4394    2.1400    0.0000 O   0  0  0  0  0  0  0  0  0  0  0  0
    2.2712   -3.1796    0.0000 C   0  0  0  0  0  0  0  0  0  0  0  0
    3.3373   -4.2348    0.0000 C   0  0  0  0  0  0  0  0  0  0  0  0
    4.6703   -3.5469    0.0000 C   0  0  0  0  0  0  0  0  0  0  0  0
    4.4280   -2.0666    0.0000 C   0  0  0  0  0  0  0  0  0  0  0  0
    5.3659   -0.8960    0.0000 C   0  0  0  0  0  0  0  0  0  0  0  0
    6.8487   -1.1230    0.0000 C   0  0  0  0  0  0  0  0  0  0  0  0
    7.3934   -2.5206    0.0000 O   0  0  0  0  0  0  0  0  0  0  0  0
    7.7866    0.0476    0.0000 C   0  0  0  0  0  0  0  0  0  0  0  0
    9.2693   -0.1794    0.0000 O   0  0  0  0  0  0  0  0  0  0  0  0
    7.2418    1.4452    0.0000 C   0  0  0  0  0  0  0  0  0  0  0  0
    8.1798    2.6157    0.0000 C   0  0  0  0  0  0  0  0  0  0  0  0
    7.6350    4.0133    0.0000 C   0  0  0  0  0  0  0  0  0  0  0  0
    8.5730    5.1839    0.0000 O   0  0  0  0  0  0  0  0  0  0  0  0
    6.1523    4.2403    0.0000 C   0  0  0  0  0  0  0  0  0  0  0  0
    5.2143    3.0697    0.0000 C   0  0  0  0  0  0  0  0  0  0  0  0
    5.7591    1.6722    0.0000 C   0  0  0  0  0  0  0  0  0  0  0  0
    4.2764    1.8992    0.0000 C   0  0  0  0  0  0  0  0  0  0  0  0
    4.8212    0.5016    0.0000 C   0  0  0  0  0  0  0  0  0  0  0  0
    3.3384    0.7286    0.0000 C   0  0  0  0  0  0  0  0  0  0  0  0
    2.4005   -0.4420    0.0000 C   0  0  0  0  0  0  0  0  0  0  0  0
    2.9453   -1.8396    0.0000 C   0  0  0  0  0  0  0  0  0  0  0  0
    1.4469   -1.7688    0.0000 C   0  0  0  0  0  0  0  0  0  0  0  0
  2  1  1  6
  2  3  1  0
  3  4  1  0
  4  5  1  0
  5  6  2  0
  5  7  1  0
  7  8  1  0
  8  9  1  6
  9 10  1  0
 10 11  2  0
 11 12  1  0
 12 13  1  0
 13 14  2  0
 14 15  1  0
 15 16  2  0
 16 17  1  0
 17 18  2  0
  8 19  1  0
 19 20  2  0
 19 21  1  0
  2 22  1  0
 22 23  1  6
 23 24  1  0
 25 24  1  6
 25 26  1  0
 26 27  1  1
 27 28  1  1
 27 29  1  0
 29 30  1  1
 29 31  1  0
 31 32  1  1
 32 33  1  0
 33 34  1  1
 33 35  1  0
 35 36  1  0
 36 37  1  0
 37 38  1  6
 37 39  1  0
 39 40  1  6
 40 41  1  0
 41 42  1  0
 42 43  1  6
 18 10  1  0
 42 22  1  0
 18 13  1  0
 42 25  1  0
 39 26  1  0
 37 31  1  0
M  END
>  <MS_ID>  (181) 
MS0189

>  <SMILES>  (181) 
C[C@H](CCC(=O)N[C@H](Cc1c[nH]c2ccccc12)C(=O)O)[C@H]1CC[C@H]2[C@@H]3[C@H](O)[C@H](O)[C@@H]4C[C@H](O)CC[C@]4(C)[C@H]3CC[C@]12C

>  <Structure_dimension>  (181) 
2D

$$$$
MS0191
     RDKit          2D

 30 33  0  0  0  0  0  0  0  0999 V2000
   -4.5685   -2.6908    0.0000 C   0  0  0  0  0  0  0  0  0  0  0  0
   -3.4838   -1.6548    0.0000 C   0  0  0  0  0  0  0  0  0  0  0  0
   -3.8388   -0.1974    0.0000 C   0  0  0  0  0  0  0  0  0  0  0  0
   -5.2784    0.2240    0.0000 C   0  0  0  0  0  0  0  0  0  0  0  0
   -5.6333    1.6814    0.0000 C   0  0  0  0  0  0  0  0  0  0  0  0
   -4.5486    2.7174    0.0000 O   0  0  0  0  0  0  0  0  0  0  0  0
   -7.0729    2.1027    0.0000 C   0  0  0  0  0  0  0  0  0  0  0  0
   -7.4279    3.5601    0.0000 O   0  0  0  0  0  0  0  0  0  0  0  0
   -2.0442   -2.0761    0.0000 C   0  0  0  0  0  0  0  0  0  0  0  0
   -1.5389   -3.4884    0.0000 C   0  0  0  0  0  0  0  0  0  0  0  0
   -0.0395   -3.4442    0.0000 C   0  0  0  0  0  0  0  0  0  0  0  0
    0.3818   -2.0046    0.0000 C   0  0  0  0  0  0  0  0  0  0  0  0
    1.7336   -1.3544    0.0000 C   0  0  0  0  0  0  0  0  0  0  0  0
    2.9725   -2.1999    0.0000 C   0  0  0  0  0  0  0  0  0  0  0  0
    2.8597   -3.6957    0.0000 O   0  0  0  0  0  0  0  0  0  0  0  0
    4.3243   -1.5497    0.0000 C   0  0  0  0  0  0  0  0  0  0  0  0
    4.4371   -0.0540    0.0000 C   0  0  0  0  0  0  0  0  0  0  0  0
    5.7888    0.5962    0.0000 C   0  0  0  0  0  0  0  0  0  0  0  0
    5.9016    2.0920    0.0000 C   0  0  0  0  0  0  0  0  0  0  0  0
    7.2534    2.7422    0.0000 O   0  0  0  0  0  0  0  0  0  0  0  0
    4.6627    2.9375    0.0000 C   0  0  0  0  0  0  0  0  0  0  0  0
    3.3109    2.2873    0.0000 C   0  0  0  0  0  0  0  0  0  0  0  0
    3.1981    0.7916    0.0000 C   0  0  0  0  0  0  0  0  0  0  0  0
    1.9591    1.6371    0.0000 C   0  0  0  0  0  0  0  0  0  0  0  0
    1.8464    0.1414    0.0000 C   0  0  0  0  0  0  0  0  0  0  0  0
    0.6074    0.9869    0.0000 C   0  0  0  0  0  0  0  0  0  0  0  0
   -0.7444    0.3367    0.0000 C   0  0  0  0  0  0  0  0  0  0  0  0
   -1.9833    1.1823    0.0000 O   0  0  0  0  0  0  0  0  0  0  0  0
   -0.8572   -1.1590    0.0000 C   0  0  0  0  0  0  0  0  0  0  0  0
   -2.1777   -0.4476    0.0000 C   0  0  0  0  0  0  0  0  0  0  0  0
  2  1  1  6
  2  3  1  0
  3  4  1  0
  4  5  1  0
  5  6  2  0
  5  7  1  0
  7  8  1  0
  2  9  1  0
  9 10  1  6
 10 11  1  0
 12 11  1  6
 12 13  1  0
 13 14  1  1
 14 15  1  6
 14 16  1  0
 17 16  1  1
 17 18  1  0
 18 19  1  0
 19 20  1  1
 19 21  1  0
 21 22  1  0
 22 23  1  0
 23 24  1  6
 23 25  1  0
 25 26  1  6
 26 27  1  0
 27 28  1  6
 27 29  1  0
 29 30  1  6
 29  9  1  0
 29 12  1  0
 25 13  1  0
 23 17  1  0
M  END
>  <MS_ID>  (182) 
MS0191

>  <SMILES>  (182) 
C[C@H](CCC(=O)CO)[C@H]1CC[C@H]2[C@@H]3[C@@H](O)C[C@@H]4C[C@H](O)CC[C@]4(C)[C@H]3C[C@@H](O)[C@]12C

>  <Structure_dimension>  (182) 
2D

$$$$
MS0192
     RDKit          2D

 33 36  0  0  0  0  0  0  0  0999 V2000
   -3.0978   -3.6919    0.0000 C   0  0  0  0  0  0  0  0  0  0  0  0
   -2.2201   -2.4755    0.0000 C   0  0  0  0  0  0  0  0  0  0  0  0
   -2.8347   -1.1072    0.0000 C   0  0  0  0  0  0  0  0  0  0  0  0
   -4.3270   -0.9552    0.0000 C   0  0  0  0  0  0  0  0  0  0  0  0
   -4.9416    0.4131    0.0000 C   0  0  0  0  0  0  0  0  0  0  0  0
   -4.0639    1.6295    0.0000 O   0  0  0  0  0  0  0  0  0  0  0  0
   -6.4339    0.5650    0.0000 C   0  0  0  0  0  0  0  0  0  0  0  0
   -7.0484    1.9333    0.0000 C   0  0  0  0  0  0  0  0  0  0  0  0
   -8.5407    2.0852    0.0000 C   0  0  0  0  0  0  0  0  0  0  0  0
   -9.4184    0.8688    0.0000 O   0  0  0  0  0  0  0  0  0  0  0  0
   -9.1553    3.4535    0.0000 O   0  0  0  0  0  0  0  0  0  0  0  0
   -0.7278   -2.6274    0.0000 C   0  0  0  0  0  0  0  0  0  0  0  0
    0.0264   -3.9240    0.0000 C   0  0  0  0  0  0  0  0  0  0  0  0
    1.4926   -3.6073    0.0000 C   0  0  0  0  0  0  0  0  0  0  0  0
    1.6445   -2.1150    0.0000 C   0  0  0  0  0  0  0  0  0  0  0  0
    2.8552   -1.2294    0.0000 C   0  0  0  0  0  0  0  0  0  0  0  0
    4.2275   -1.8350    0.0000 C   0  0  0  0  0  0  0  0  0  0  0  0
    4.3891   -3.3263    0.0000 O   0  0  0  0  0  0  0  0  0  0  0  0
    5.4381   -0.9494    0.0000 C   0  0  0  0  0  0  0  0  0  0  0  0
    5.2764    0.5419    0.0000 C   0  0  0  0  0  0  0  0  0  0  0  0
    6.4871    1.4275    0.0000 C   0  0  0  0  0  0  0  0  0  0  0  0
    6.3254    2.9188    0.0000 C   0  0  0  0  0  0  0  0  0  0  0  0
    7.5360    3.8044    0.0000 O   0  0  0  0  0  0  0  0  0  0  0  0
    4.9531    3.5244    0.0000 C   0  0  0  0  0  0  0  0  0  0  0  0
    3.7425    2.6388    0.0000 C   0  0  0  0  0  0  0  0  0  0  0  0
    3.9041    1.1475    0.0000 C   0  0  0  0  0  0  0  0  0  0  0  0
    2.5318    1.7531    0.0000 C   0  0  0  0  0  0  0  0  0  0  0  0
    2.6935    0.2619    0.0000 C   0  0  0  0  0  0  0  0  0  0  0  0
    1.3212    0.8675    0.0000 C   0  0  0  0  0  0  0  0  0  0  0  0
    0.1105   -0.0181    0.0000 C   0  0  0  0  0  0  0  0  0  0  0  0
   -1.2618    0.5875    0.0000 O   0  0  0  0  0  0  0  0  0  0  0  0
    0.2722   -1.5094    0.0000 C   0  0  0  0  0  0  0  0  0  0  0  0
   -1.1559   -1.0505    0.0000 C   0  0  0  0  0  0  0  0  0  0  0  0
  2  1  1  6
  2  3  1  0
  3  4  1  0
  4  5  1  0
  5  6  2  0
  5  7  1  0
  7  8  1  0
  8  9  1  0
  9 10  2  0
  9 11  1  0
  2 12  1  0
 12 13  1  6
 13 14  1  0
 15 14  1  6
 15 16  1  0
 16 17  1  1
 17 18  1  6
 17 19  1  0
 20 19  1  1
 20 21  1  0
 21 22  1  0
 22 23  1  6
 22 24  1  0
 24 25  1  0
 25 26  1  0
 26 27  1  6
 26 28  1  0
 28 29  1  6
 29 30  1  0
 30 31  1  1
 30 32  1  0
 32 33  1  6
 32 12  1  0
 32 15  1  0
 28 16  1  0
 26 20  1  0
M  END
>  <MS_ID>  (183) 
MS0192

>  <SMILES>  (183) 
C[C@H](CCC(=O)CCC(=O)O)[C@H]1CC[C@H]2[C@@H]3[C@@H](O)C[C@@H]4C[C@@H](O)CC[C@]4(C)[C@H]3C[C@H](O)[C@]12C

>  <Structure_dimension>  (183) 
2D

$$$$
MS0193
     RDKit          2D

 29 32  0  0  0  0  0  0  0  0999 V2000
   -4.6551   -2.6180    0.0000 C   0  0  0  0  0  0  0  0  0  0  0  0
   -3.5633   -1.5894    0.0000 C   0  0  0  0  0  0  0  0  0  0  0  0
   -3.9081   -0.1296    0.0000 C   0  0  0  0  0  0  0  0  0  0  0  0
   -5.3448    0.3016    0.0000 C   0  0  0  0  0  0  0  0  0  0  0  0
   -5.6897    1.7615    0.0000 C   0  0  0  0  0  0  0  0  0  0  0  0
   -4.5979    2.7900    0.0000 O   0  0  0  0  0  0  0  0  0  0  0  0
   -7.1264    2.1927    0.0000 C   0  0  0  0  0  0  0  0  0  0  0  0
   -7.4712    3.6525    0.0000 O   0  0  0  0  0  0  0  0  0  0  0  0
   -2.1266   -2.0207    0.0000 C   0  0  0  0  0  0  0  0  0  0  0  0
   -1.6310   -3.4364    0.0000 C   0  0  0  0  0  0  0  0  0  0  0  0
   -0.1314   -3.4026    0.0000 C   0  0  0  0  0  0  0  0  0  0  0  0
    0.2998   -1.9659    0.0000 C   0  0  0  0  0  0  0  0  0  0  0  0
    1.6561   -1.3251    0.0000 C   0  0  0  0  0  0  0  0  0  0  0  0
    2.8892   -2.1792    0.0000 C   0  0  0  0  0  0  0  0  0  0  0  0
    2.7660   -3.6741    0.0000 O   0  0  0  0  0  0  0  0  0  0  0  0
    4.2454   -1.5383    0.0000 C   0  0  0  0  0  0  0  0  0  0  0  0
    4.3685   -0.0434    0.0000 C   0  0  0  0  0  0  0  0  0  0  0  0
    5.7247    0.5975    0.0000 C   0  0  0  0  0  0  0  0  0  0  0  0
    5.8478    2.0924    0.0000 C   0  0  0  0  0  0  0  0  0  0  0  0
    7.2040    2.7332    0.0000 O   0  0  0  0  0  0  0  0  0  0  0  0
    4.6147    2.9465    0.0000 C   0  0  0  0  0  0  0  0  0  0  0  0
    3.2585    2.3056    0.0000 C   0  0  0  0  0  0  0  0  0  0  0  0
    3.1354    0.8107    0.0000 C   0  0  0  0  0  0  0  0  0  0  0  0
    1.9023    1.6648    0.0000 C   0  0  0  0  0  0  0  0  0  0  0  0
    1.7792    0.1699    0.0000 C   0  0  0  0  0  0  0  0  0  0  0  0
    0.5461    1.0239    0.0000 C   0  0  0  0  0  0  0  0  0  0  0  0
   -0.8101    0.3831    0.0000 C   0  0  0  0  0  0  0  0  0  0  0  0
   -0.9333   -1.1118    0.0000 C   0  0  0  0  0  0  0  0  0  0  0  0
   -2.2489   -0.3913    0.0000 C   0  0  0  0  0  0  0  0  0  0  0  0
  2  1  1  6
  2  3  1  0
  3  4  1  0
  4  5  1  0
  5  6  2  0
  5  7  1  0
  7  8  1  0
  2  9  1  0
  9 10  1  6
 10 11  1  0
 12 11  1  6
 12 13  1  0
 13 14  1  1
 14 15  1  1
 14 16  1  0
 17 16  1  1
 17 18  1  0
 18 19  1  0
 19 20  1  1
 19 21  1  0
 21 22  1  0
 22 23  1  0
 23 24  1  6
 23 25  1  0
 25 26  1  6
 26 27  1  0
 27 28  1  0
 28 29  1  6
 28  9  1  0
 28 12  1  0
 25 13  1  0
 23 17  1  0
M  END
>  <MS_ID>  (184) 
MS0193

>  <SMILES>  (184) 
C[C@H](CCC(=O)CO)[C@H]1CC[C@H]2[C@@H]3[C@H](O)C[C@@H]4C[C@H](O)CC[C@]4(C)[C@H]3CC[C@]12C

>  <Structure_dimension>  (184) 
2D

$$$$
MS0194
     RDKit          2D

 33 36  0  0  0  0  0  0  0  0999 V2000
   -3.5680   -3.6181    0.0000 C   0  0  0  0  0  0  0  0  0  0  0  0
   -2.6378   -2.4414    0.0000 C   0  0  0  0  0  0  0  0  0  0  0  0
   -3.1919   -1.0474    0.0000 C   0  0  0  0  0  0  0  0  0  0  0  0
   -4.6761   -0.8302    0.0000 C   0  0  0  0  0  0  0  0  0  0  0  0
   -5.2301    0.5637    0.0000 C   0  0  0  0  0  0  0  0  0  0  0  0
   -4.2999    1.7405    0.0000 O   0  0  0  0  0  0  0  0  0  0  0  0
   -6.7143    0.7809    0.0000 N   0  0  0  0  0  0  0  0  0  0  0  0
   -7.2683    2.1748    0.0000 C   0  0  0  0  0  0  0  0  0  0  0  0
   -8.7525    2.3920    0.0000 C   0  0  0  0  0  0  0  0  0  0  0  0
   -9.6827    1.2152    0.0000 O   0  0  0  0  0  0  0  0  0  0  0  0
   -9.3065    3.7859    0.0000 O   0  0  0  0  0  0  0  0  0  0  0  0
   -1.1536   -2.6585    0.0000 C   0  0  0  0  0  0  0  0  0  0  0  0
   -0.4570   -3.9869    0.0000 C   0  0  0  0  0  0  0  0  0  0  0  0
    1.0217   -3.7348    0.0000 C   0  0  0  0  0  0  0  0  0  0  0  0
    1.2389   -2.2506    0.0000 C   0  0  0  0  0  0  0  0  0  0  0  0
    2.4872   -1.4189    0.0000 C   0  0  0  0  0  0  0  0  0  0  0  0
    3.8316   -2.0841    0.0000 C   0  0  0  0  0  0  0  0  0  0  0  0
    3.9278   -3.5810    0.0000 O   0  0  0  0  0  0  0  0  0  0  0  0
    5.0799   -1.2524    0.0000 C   0  0  0  0  0  0  0  0  0  0  0  0
    4.9838    0.2446    0.0000 C   0  0  0  0  0  0  0  0  0  0  0  0
    6.2320    1.0763    0.0000 C   0  0  0  0  0  0  0  0  0  0  0  0
    6.1359    2.5732    0.0000 C   0  0  0  0  0  0  0  0  0  0  0  0
    7.3842    3.4049    0.0000 C   0  0  0  0  0  0  0  0  0  0  0  0
    8.7286    2.7398    0.0000 O   0  0  0  0  0  0  0  0  0  0  0  0
    4.7914    3.2384    0.0000 C   0  0  0  0  0  0  0  0  0  0  0  0
    3.5432    2.4067    0.0000 C   0  0  0  0  0  0  0  0  0  0  0  0
    3.6393    0.9098    0.0000 C   0  0  0  0  0  0  0  0  0  0  0  0
    2.2949    1.5749    0.0000 C   0  0  0  0  0  0  0  0  0  0  0  0
    2.3910    0.0780    0.0000 C   0  0  0  0  0  0  0  0  0  0  0  0
    1.0466    0.7432    0.0000 C   0  0  0  0  0  0  0  0  0  0  0  0
   -0.2017   -0.0885    0.0000 C   0  0  0  0  0  0  0  0  0  0  0  0
   -0.1056   -1.5854    0.0000 C   0  0  0  0  0  0  0  0  0  0  0  0
   -1.5122   -1.0644    0.0000 C   0  0  0  0  0  0  0  0  0  0  0  0
  2  1  1  6
  2  3  1  0
  3  4  1  0
  4  5  1  0
  5  6  2  0
  5  7  1  0
  7  8  1  0
  8  9  1  0
  9 10  2  0
  9 11  1  0
  2 12  1  0
 12 13  1  6
 13 14  1  0
 15 14  1  6
 15 16  1  0
 16 17  1  1
 17 18  1  6
 17 19  1  0
 20 19  1  1
 20 21  1  0
 21 22  1  0
 22 23  1  1
 23 24  1  0
 22 25  1  0
 25 26  1  0
 26 27  1  0
 27 28  1  6
 27 29  1  0
 29 30  1  6
 30 31  1  0
 31 32  1  0
 32 33  1  6
 32 12  1  0
 32 15  1  0
 29 16  1  0
 27 20  1  0
M  END
>  <MS_ID>  (185) 
MS0194

>  <SMILES>  (185) 
C[C@H](CCC(=O)NCC(=O)O)[C@H]1CC[C@H]2[C@@H]3[C@@H](O)C[C@@H]4C[C@H](CO)CC[C@]4(C)[C@H]3CC[C@]12C

>  <Structure_dimension>  (185) 
2D

$$$$
MS0195
     RDKit          2D

 30 33  0  0  0  0  0  0  0  0999 V2000
   -7.2759    3.4526    0.0000 C   0  0  0  0  0  0  0  0  0  0  0  0
   -6.8987    2.0009    0.0000 C   0  0  0  0  0  0  0  0  0  0  0  0
   -7.9673    0.9482    0.0000 C   0  0  0  0  0  0  0  0  0  0  0  0
   -5.4527    1.6017    0.0000 C   0  0  0  0  0  0  0  0  0  0  0  0
   -4.3841    2.6543    0.0000 O   0  0  0  0  0  0  0  0  0  0  0  0
   -5.0755    0.1499    0.0000 C   0  0  0  0  0  0  0  0  0  0  0  0
   -3.6295   -0.2492    0.0000 C   0  0  0  0  0  0  0  0  0  0  0  0
   -3.2523   -1.7010    0.0000 C   0  0  0  0  0  0  0  0  0  0  0  0
   -4.3209   -2.7536    0.0000 C   0  0  0  0  0  0  0  0  0  0  0  0
   -1.8064   -2.1002    0.0000 C   0  0  0  0  0  0  0  0  0  0  0  0
   -1.2794   -3.5046    0.0000 C   0  0  0  0  0  0  0  0  0  0  0  0
    0.2191   -3.4374    0.0000 C   0  0  0  0  0  0  0  0  0  0  0  0
    0.6183   -1.9915    0.0000 C   0  0  0  0  0  0  0  0  0  0  0  0
    1.9599   -1.3206    0.0000 C   0  0  0  0  0  0  0  0  0  0  0  0
    3.2117   -2.1470    0.0000 C   0  0  0  0  0  0  0  0  0  0  0  0
    3.1219   -3.6443    0.0000 O   0  0  0  0  0  0  0  0  0  0  0  0
    4.5533   -1.4762    0.0000 C   0  0  0  0  0  0  0  0  0  0  0  0
    4.6431    0.0211    0.0000 C   0  0  0  0  0  0  0  0  0  0  0  0
    5.9847    0.6920    0.0000 C   0  0  0  0  0  0  0  0  0  0  0  0
    6.0745    2.1893    0.0000 C   0  0  0  0  0  0  0  0  0  0  0  0
    7.4161    2.8602    0.0000 O   0  0  0  0  0  0  0  0  0  0  0  0
    4.8227    3.0158    0.0000 C   0  0  0  0  0  0  0  0  0  0  0  0
    3.4811    2.3449    0.0000 C   0  0  0  0  0  0  0  0  0  0  0  0
    3.3913    0.8476    0.0000 C   0  0  0  0  0  0  0  0  0  0  0  0
    2.1395    1.6740    0.0000 C   0  0  0  0  0  0  0  0  0  0  0  0
    2.0497    0.1767    0.0000 C   0  0  0  0  0  0  0  0  0  0  0  0
    0.7979    1.0031    0.0000 C   0  0  0  0  0  0  0  0  0  0  0  0
   -0.5437    0.3323    0.0000 C   0  0  0  0  0  0  0  0  0  0  0  0
   -0.6335   -1.1650    0.0000 C   0  0  0  0  0  0  0  0  0  0  0  0
   -1.9649   -0.4740    0.0000 C   0  0  0  0  0  0  0  0  0  0  0  0
  1  2  1  0
  2  3  1  0
  2  4  1  0
  4  5  2  0
  4  6  1  0
  6  7  1  0
  7  8  1  0
  8  9  1  6
  8 10  1  0
 10 11  1  6
 11 12  1  0
 13 12  1  6
 13 14  1  0
 14 15  1  1
 15 16  1  1
 15 17  1  0
 18 17  1  1
 18 19  1  0
 19 20  1  0
 20 21  1  1
 20 22  1  0
 22 23  1  0
 23 24  1  0
 24 25  1  6
 24 26  1  0
 26 27  1  6
 27 28  1  0
 28 29  1  0
 29 30  1  6
 29 10  1  0
 29 13  1  0
 26 14  1  0
 24 18  1  0
M  END
>  <MS_ID>  (186) 
MS0195

>  <SMILES>  (186) 
CC(C)C(=O)CC[C@@H](C)[C@H]1CC[C@H]2[C@@H]3[C@H](O)C[C@@H]4C[C@H](O)CC[C@]4(C)[C@H]3CC[C@]12C

>  <Structure_dimension>  (186) 
2D

$$$$
MS0196
     RDKit          2D

 32 35  0  0  0  0  0  0  0  0999 V2000
   -6.0659   -1.8985    0.0000 C   0  0  0  0  0  0  0  0  0  0  0  0
   -4.8404   -1.0335    0.0000 C   0  0  0  0  0  0  0  0  0  0  0  0
   -4.9767    0.4603    0.0000 C   0  0  0  0  0  0  0  0  0  0  0  0
   -6.3386    1.0891    0.0000 C   0  0  0  0  0  0  0  0  0  0  0  0
   -6.4749    2.5829    0.0000 C   0  0  0  0  0  0  0  0  0  0  0  0
   -5.2494    3.4479    0.0000 O   0  0  0  0  0  0  0  0  0  0  0  0
   -7.8367    3.2118    0.0000 O   0  0  0  0  0  0  0  0  0  0  0  0
   -3.4786   -1.6624    0.0000 C   0  0  0  0  0  0  0  0  0  0  0  0
   -3.1869   -3.1337    0.0000 C   0  0  0  0  0  0  0  0  0  0  0  0
   -1.6974   -3.3110    0.0000 C   0  0  0  0  0  0  0  0  0  0  0  0
   -1.0686   -1.9492    0.0000 C   0  0  0  0  0  0  0  0  0  0  0  0
    0.3642   -1.5053    0.0000 C   0  0  0  0  0  0  0  0  0  0  0  0
    1.4651   -2.5242    0.0000 C   0  0  0  0  0  0  0  0  0  0  0  0
    1.1331   -3.9870    0.0000 O   0  0  0  0  0  0  0  0  0  0  0  0
    2.8979   -2.0803    0.0000 C   0  0  0  0  0  0  0  0  0  0  0  0
    3.2299   -0.6175    0.0000 C   0  0  0  0  0  0  0  0  0  0  0  0
    4.6627   -0.1735    0.0000 C   0  0  0  0  0  0  0  0  0  0  0  0
    4.9946    1.2893    0.0000 C   0  0  0  0  0  0  0  0  0  0  0  0
    6.4275    1.7332    0.0000 O   0  0  0  0  0  0  0  0  0  0  0  0
    7.5283    0.7143    0.0000 C   0  0  0  0  0  0  0  0  0  0  0  0
    8.9611    1.1582    0.0000 C   0  0  0  0  0  0  0  0  0  0  0  0
   10.0619    0.1393    0.0000 O   0  0  0  0  0  0  0  0  0  0  0  0
    3.8938    2.3082    0.0000 C   0  0  0  0  0  0  0  0  0  0  0  0
    2.4610    1.8643    0.0000 C   0  0  0  0  0  0  0  0  0  0  0  0
    2.1290    0.4014    0.0000 C   0  0  0  0  0  0  0  0  0  0  0  0
    1.0282    1.4203    0.0000 C   0  0  0  0  0  0  0  0  0  0  0  0
    0.6962   -0.0425    0.0000 C   0  0  0  0  0  0  0  0  0  0  0  0
   -0.4046    0.9764    0.0000 C   0  0  0  0  0  0  0  0  0  0  0  0
   -1.8374    0.5325    0.0000 C   0  0  0  0  0  0  0  0  0  0  0  0
   -2.9383    1.5514    0.0000 O   0  0  0  0  0  0  0  0  0  0  0  0
   -2.1694   -0.9303    0.0000 C   0  0  0  0  0  0  0  0  0  0  0  0
   -3.3707   -0.0320    0.0000 C   0  0  0  0  0  0  0  0  0  0  0  0
  2  1  1  6
  2  3  1  0
  3  4  1  0
  4  5  1  0
  5  6  2  0
  5  7  1  0
  2  8  1  0
  8  9  1  6
  9 10  1  0
 11 10  1  6
 11 12  1  0
 12 13  1  1
 13 14  1  1
 13 15  1  0
 16 15  1  1
 16 17  1  0
 17 18  1  0
 18 19  1  1
 19 20  1  0
 20 21  1  0
 21 22  1  0
 18 23  1  0
 23 24  1  0
 24 25  1  0
 25 26  1  6
 25 27  1  0
 27 28  1  6
 28 29  1  0
 29 30  1  1
 29 31  1  0
 31 32  1  6
 31  8  1  0
 31 11  1  0
 27 12  1  0
 25 16  1  0
M  END
>  <MS_ID>  (187) 
MS0196

>  <SMILES>  (187) 
C[C@H](CCC(=O)O)[C@H]1CC[C@H]2[C@@H]3[C@H](O)C[C@@H]4C[C@H](OCCO)CC[C@]4(C)[C@H]3C[C@H](O)[C@]12C

>  <Structure_dimension>  (187) 
2D

$$$$
MS0197
     RDKit          2D

 32 35  0  0  0  0  0  0  0  0999 V2000
   -6.1853   -1.9897    0.0000 C   0  0  0  0  0  0  0  0  0  0  0  0
   -4.9559   -1.1303    0.0000 C   0  0  0  0  0  0  0  0  0  0  0  0
   -5.0854    0.3641    0.0000 C   0  0  0  0  0  0  0  0  0  0  0  0
   -6.4444    0.9991    0.0000 C   0  0  0  0  0  0  0  0  0  0  0  0
   -6.5740    2.4935    0.0000 C   0  0  0  0  0  0  0  0  0  0  0  0
   -5.3445    3.3529    0.0000 O   0  0  0  0  0  0  0  0  0  0  0  0
   -7.9329    3.1285    0.0000 O   0  0  0  0  0  0  0  0  0  0  0  0
   -3.5969   -1.7653    0.0000 C   0  0  0  0  0  0  0  0  0  0  0  0
   -3.3119   -3.2380    0.0000 C   0  0  0  0  0  0  0  0  0  0  0  0
   -1.8232   -3.4219    0.0000 C   0  0  0  0  0  0  0  0  0  0  0  0
   -1.1882   -2.0630    0.0000 C   0  0  0  0  0  0  0  0  0  0  0  0
    0.2466   -1.6256    0.0000 C   0  0  0  0  0  0  0  0  0  0  0  0
    1.3428   -2.6494    0.0000 C   0  0  0  0  0  0  0  0  0  0  0  0
    2.7776   -2.2120    0.0000 C   0  0  0  0  0  0  0  0  0  0  0  0
    3.1162   -0.7507    0.0000 C   0  0  0  0  0  0  0  0  0  0  0  0
    4.5510   -0.3133    0.0000 C   0  0  0  0  0  0  0  0  0  0  0  0
    4.8896    1.1480    0.0000 C   0  0  0  0  0  0  0  0  0  0  0  0
    6.3244    1.5854    0.0000 O   0  0  0  0  0  0  0  0  0  0  0  0
    7.4206    0.5615    0.0000 S   0  0  0  0  0  0  0  0  0  0  0  0
    6.3967   -0.5347    0.0000 O   0  0  0  0  0  0  0  0  0  0  0  0
    8.4445    1.6578    0.0000 O   0  0  0  0  0  0  0  0  0  0  0  0
    8.5168   -0.4623    0.0000 O   0  0  0  0  0  0  0  0  0  0  0  0
    3.7934    2.1718    0.0000 C   0  0  0  0  0  0  0  0  0  0  0  0
    2.3586    1.7344    0.0000 C   0  0  0  0  0  0  0  0  0  0  0  0
    2.0200    0.2731    0.0000 C   0  0  0  0  0  0  0  0  0  0  0  0
    0.9238    1.2970    0.0000 C   0  0  0  0  0  0  0  0  0  0  0  0
    0.5852   -0.1643    0.0000 C   0  0  0  0  0  0  0  0  0  0  0  0
   -0.5110    0.8596    0.0000 C   0  0  0  0  0  0  0  0  0  0  0  0
   -1.9458    0.4222    0.0000 C   0  0  0  0  0  0  0  0  0  0  0  0
   -3.0421    1.4460    0.0000 O   0  0  0  0  0  0  0  0  0  0  0  0
   -2.2844   -1.0391    0.0000 C   0  0  0  0  0  0  0  0  0  0  0  0
   -3.4817   -0.1354    0.0000 C   0  0  0  0  0  0  0  0  0  0  0  0
  2  1  1  6
  2  3  1  0
  3  4  1  0
  4  5  1  0
  5  6  2  0
  5  7  1  0
  2  8  1  0
  8  9  1  6
  9 10  1  0
 11 10  1  6
 11 12  1  0
 12 13  1  1
 13 14  1  0
 15 14  1  1
 15 16  1  0
 16 17  1  0
 17 18  1  1
 18 19  1  0
 19 20  2  0
 19 21  2  0
 19 22  1  0
 17 23  1  0
 23 24  1  0
 24 25  1  0
 25 26  1  6
 25 27  1  0
 27 28  1  6
 28 29  1  0
 29 30  1  1
 29 31  1  0
 31 32  1  6
 31  8  1  0
 31 11  1  0
 27 12  1  0
 25 15  1  0
M  END
>  <MS_ID>  (188) 
MS0197

>  <SMILES>  (188) 
C[C@H](CCC(=O)O)[C@H]1CC[C@H]2[C@@H]3CC[C@@H]4C[C@H](OS(=O)(=O)O)CC[C@]4(C)[C@H]3C[C@H](O)[C@]12C

>  <Structure_dimension>  (188) 
2D

$$$$
MS0198
     RDKit          2D

 28 31  0  0  0  0  0  0  0  0999 V2000
   -5.4905   -1.7472    0.0000 C   0  0  0  0  0  0  0  0  0  0  0  0
   -4.2987   -0.8363    0.0000 C   0  0  0  0  0  0  0  0  0  0  0  0
   -4.4917    0.6512    0.0000 C   0  0  0  0  0  0  0  0  0  0  0  0
   -5.8764    1.2279    0.0000 C   0  0  0  0  0  0  0  0  0  0  0  0
   -6.0694    2.7154    0.0000 C   0  0  0  0  0  0  0  0  0  0  0  0
   -7.4541    3.2921    0.0000 O   0  0  0  0  0  0  0  0  0  0  0  0
   -2.9140   -1.4130    0.0000 C   0  0  0  0  0  0  0  0  0  0  0  0
   -2.5666   -2.8722    0.0000 C   0  0  0  0  0  0  0  0  0  0  0  0
   -1.0715   -2.9928    0.0000 C   0  0  0  0  0  0  0  0  0  0  0  0
   -0.4948   -1.6080    0.0000 C   0  0  0  0  0  0  0  0  0  0  0  0
    0.9201   -1.1100    0.0000 C   0  0  0  0  0  0  0  0  0  0  0  0
    2.0589   -2.0864    0.0000 C   0  0  0  0  0  0  0  0  0  0  0  0
    1.7827   -3.5607    0.0000 O   0  0  0  0  0  0  0  0  0  0  0  0
    3.4738   -1.5884    0.0000 C   0  0  0  0  0  0  0  0  0  0  0  0
    4.6125   -2.5647    0.0000 O   0  0  0  0  0  0  0  0  0  0  0  0
    3.7499   -0.1140    0.0000 C   0  0  0  0  0  0  0  0  0  0  0  0
    5.1649    0.3840    0.0000 C   0  0  0  0  0  0  0  0  0  0  0  0
    5.4410    1.8583    0.0000 C   0  0  0  0  0  0  0  0  0  0  0  0
    6.8559    2.3564    0.0000 O   0  0  0  0  0  0  0  0  0  0  0  0
    4.3023    2.8347    0.0000 C   0  0  0  0  0  0  0  0  0  0  0  0
    2.8874    2.3367    0.0000 C   0  0  0  0  0  0  0  0  0  0  0  0
    2.6112    0.8623    0.0000 C   0  0  0  0  0  0  0  0  0  0  0  0
    1.4724    1.8387    0.0000 C   0  0  0  0  0  0  0  0  0  0  0  0
    1.1963    0.3643    0.0000 C   0  0  0  0  0  0  0  0  0  0  0  0
    0.0575    1.3407    0.0000 C   0  0  0  0  0  0  0  0  0  0  0  0
   -1.3574    0.8427    0.0000 C   0  0  0  0  0  0  0  0  0  0  0  0
   -1.6336   -0.6317    0.0000 C   0  0  0  0  0  0  0  0  0  0  0  0
   -2.8681    0.2203    0.0000 C   0  0  0  0  0  0  0  0  0  0  0  0
  2  1  1  6
  2  3  1  0
  3  4  1  0
  4  5  1  0
  5  6  2  0
  2  7  1  0
  7  8  1  6
  8  9  1  0
 10  9  1  6
 10 11  1  0
 11 12  1  1
 12 13  1  1
 12 14  1  0
 14 15  1  1
 14 16  1  0
 16 17  1  1
 17 18  1  0
 18 19  1  1
 18 20  1  0
 20 21  1  0
 21 22  1  0
 22 23  1  6
 22 24  1  0
 24 25  1  6
 25 26  1  0
 26 27  1  0
 27 28  1  6
 27  7  1  0
 27 10  1  0
 24 11  1  0
 22 16  1  0
M  END
>  <MS_ID>  (189) 
MS0198

>  <SMILES>  (189) 
C[C@H](CCC=O)[C@H]1CC[C@H]2[C@@H]3[C@H](O)[C@H](O)[C@@H]4C[C@H](O)CC[C@]4(C)[C@H]3CC[C@]12C

>  <Structure_dimension>  (189) 
2D

$$$$
MS0199
     RDKit          2D

 32 35  0  0  0  0  0  0  0  0999 V2000
   -6.5274   -1.6443    0.0000 C   0  0  0  0  0  0  0  0  0  0  0  0
   -5.2648   -0.8345    0.0000 C   0  0  0  0  0  0  0  0  0  0  0  0
   -5.3348    0.6639    0.0000 C   0  0  0  0  0  0  0  0  0  0  0  0
   -6.6674    1.3524    0.0000 C   0  0  0  0  0  0  0  0  0  0  0  0
   -6.7374    2.8508    0.0000 C   0  0  0  0  0  0  0  0  0  0  0  0
   -5.4748    3.6606    0.0000 O   0  0  0  0  0  0  0  0  0  0  0  0
   -8.0700    3.5394    0.0000 O   0  0  0  0  0  0  0  0  0  0  0  0
   -3.9322   -1.5231    0.0000 C   0  0  0  0  0  0  0  0  0  0  0  0
   -3.7060   -3.0059    0.0000 C   0  0  0  0  0  0  0  0  0  0  0  0
   -2.2258   -3.2490    0.0000 C   0  0  0  0  0  0  0  0  0  0  0  0
   -1.5372   -1.9164    0.0000 C   0  0  0  0  0  0  0  0  0  0  0  0
   -0.0861   -1.5364    0.0000 C   0  0  0  0  0  0  0  0  0  0  0  0
    0.9685   -2.6030    0.0000 C   0  0  0  0  0  0  0  0  0  0  0  0
    0.5720   -4.0497    0.0000 O   0  0  0  0  0  0  0  0  0  0  0  0
    2.4195   -2.2231    0.0000 C   0  0  0  0  0  0  0  0  0  0  0  0
    2.8160   -0.7764    0.0000 C   0  0  0  0  0  0  0  0  0  0  0  0
    4.2671   -0.3964    0.0000 C   0  0  0  0  0  0  0  0  0  0  0  0
    4.6635    1.0502    0.0000 C   0  0  0  0  0  0  0  0  0  0  0  0
    6.1146    1.4302    0.0000 C   0  0  0  0  0  0  0  0  0  0  0  0
    7.1692    0.3636    0.0000 C   0  0  0  0  0  0  0  0  0  0  0  0
    8.6203    0.7436    0.0000 C   0  0  0  0  0  0  0  0  0  0  0  0
    9.0167    2.1902    0.0000 O   0  0  0  0  0  0  0  0  0  0  0  0
    9.6749   -0.3231    0.0000 O   0  0  0  0  0  0  0  0  0  0  0  0
    3.6089    2.1169    0.0000 C   0  0  0  0  0  0  0  0  0  0  0  0
    2.1578    1.7369    0.0000 C   0  0  0  0  0  0  0  0  0  0  0  0
    1.7614    0.2903    0.0000 C   0  0  0  0  0  0  0  0  0  0  0  0
    0.7068    1.3569    0.0000 C   0  0  0  0  0  0  0  0  0  0  0  0
    0.3103   -0.0897    0.0000 C   0  0  0  0  0  0  0  0  0  0  0  0
   -0.7443    0.9770    0.0000 C   0  0  0  0  0  0  0  0  0  0  0  0
   -2.1954    0.5970    0.0000 C   0  0  0  0  0  0  0  0  0  0  0  0
   -2.5918   -0.8497    0.0000 C   0  0  0  0  0  0  0  0  0  0  0  0
   -3.7522    0.1009    0.0000 C   0  0  0  0  0  0  0  0  0  0  0  0
  2  1  1  6
  2  3  1  0
  3  4  1  0
  4  5  1  0
  5  6  2  0
  5  7  1  0
  2  8  1  0
  8  9  1  6
  9 10  1  0
 11 10  1  6
 11 12  1  0
 12 13  1  1
 13 14  1  1
 13 15  1  0
 16 15  1  1
 16 17  1  0
 17 18  1  0
 18 19  1  1
 19 20  1  0
 20 21  1  0
 21 22  2  0
 21 23  1  0
 18 24  1  0
 24 25  1  0
 25 26  1  0
 26 27  1  6
 26 28  1  0
 28 29  1  6
 29 30  1  0
 30 31  1  0
 31 32  1  6
 31  8  1  0
 31 11  1  0
 28 12  1  0
 26 16  1  0
M  END
>  <MS_ID>  (190) 
MS0199

>  <SMILES>  (190) 
C[C@H](CCC(=O)O)[C@H]1CC[C@H]2[C@@H]3[C@H](O)C[C@@H]4C[C@H](CCC(=O)O)CC[C@]4(C)[C@H]3CC[C@]12C

>  <Structure_dimension>  (190) 
2D

$$$$
MS0200
     RDKit          2D

 29 32  0  0  0  0  0  0  0  0999 V2000
   -5.0303   -2.1373    0.0000 C   0  0  0  0  0  0  0  0  0  0  0  0
   -3.8594   -1.1998    0.0000 C   0  0  0  0  0  0  0  0  0  0  0  0
   -4.0858    0.2830    0.0000 C   0  0  0  0  0  0  0  0  0  0  0  0
   -5.4831    0.8284    0.0000 C   0  0  0  0  0  0  0  0  0  0  0  0
   -5.7095    2.3112    0.0000 C   0  0  0  0  0  0  0  0  0  0  0  0
   -4.5386    3.2487    0.0000 O   0  0  0  0  0  0  0  0  0  0  0  0
   -7.1069    2.8565    0.0000 O   0  0  0  0  0  0  0  0  0  0  0  0
   -2.4620   -1.7451    0.0000 C   0  0  0  0  0  0  0  0  0  0  0  0
   -2.0818   -3.1961    0.0000 C   0  0  0  0  0  0  0  0  0  0  0  0
   -0.5844   -3.2830    0.0000 C   0  0  0  0  0  0  0  0  0  0  0  0
   -0.0390   -1.8856    0.0000 C   0  0  0  0  0  0  0  0  0  0  0  0
    1.3643   -1.3559    0.0000 C   0  0  0  0  0  0  0  0  0  0  0  0
    2.5248   -2.3063    0.0000 C   0  0  0  0  0  0  0  0  0  0  0  0
    2.2819   -3.7865    0.0000 O   0  0  0  0  0  0  0  0  0  0  0  0
    3.9281   -1.7765    0.0000 C   0  0  0  0  0  0  0  0  0  0  0  0
    4.1710   -0.2963    0.0000 C   0  0  0  0  0  0  0  0  0  0  0  0
    5.5743    0.2334    0.0000 C   0  0  0  0  0  0  0  0  0  0  0  0
    5.8172    1.7136    0.0000 C   0  0  0  0  0  0  0  0  0  0  0  0
    7.2205    2.2434    0.0000 N   0  0  0  0  0  0  0  0  0  0  0  0
    4.6568    2.6641    0.0000 C   0  0  0  0  0  0  0  0  0  0  0  0
    3.2534    2.1343    0.0000 C   0  0  0  0  0  0  0  0  0  0  0  0
    3.0105    0.6541    0.0000 C   0  0  0  0  0  0  0  0  0  0  0  0
    1.8501    1.6046    0.0000 C   0  0  0  0  0  0  0  0  0  0  0  0
    1.6072    0.1244    0.0000 C   0  0  0  0  0  0  0  0  0  0  0  0
    0.4467    1.0748    0.0000 C   0  0  0  0  0  0  0  0  0  0  0  0
   -0.9566    0.5450    0.0000 C   0  0  0  0  0  0  0  0  0  0  0  0
   -2.1170    1.4955    0.0000 O   0  0  0  0  0  0  0  0  0  0  0  0
   -1.1995   -0.9352    0.0000 C   0  0  0  0  0  0  0  0  0  0  0  0
   -2.4529   -0.1112    0.0000 C   0  0  0  0  0  0  0  0  0  0  0  0
  2  1  1  6
  2  3  1  0
  3  4  1  0
  4  5  1  0
  5  6  2  0
  5  7  1  0
  2  8  1  0
  8  9  1  6
  9 10  1  0
 11 10  1  6
 11 12  1  0
 12 13  1  1
 13 14  1  6
 13 15  1  0
 16 15  1  1
 16 17  1  0
 17 18  1  0
 18 19  1  1
 18 20  1  0
 20 21  1  0
 21 22  1  0
 22 23  1  6
 22 24  1  0
 24 25  1  6
 25 26  1  0
 26 27  1  1
 26 28  1  0
 28 29  1  6
 28  8  1  0
 28 11  1  0
 24 12  1  0
 22 16  1  0
M  END
>  <MS_ID>  (191) 
MS0200

>  <SMILES>  (191) 
C[C@H](CCC(=O)O)[C@H]1CC[C@H]2[C@@H]3[C@@H](O)C[C@@H]4C[C@H](N)CC[C@]4(C)[C@H]3C[C@H](O)[C@]12C

>  <Structure_dimension>  (191) 
2D

$$$$
MS0201
     RDKit          2D

 42 45  0  0  0  0  0  0  0  0999 V2000
    0.3707   -4.2403    0.0000 C   0  0  0  0  0  0  0  0  0  0  0  0
    1.0992   -2.9291    0.0000 C   0  0  0  0  0  0  0  0  0  0  0  0
    0.3280   -1.6426    0.0000 C   0  0  0  0  0  0  0  0  0  0  0  0
   -1.1718   -1.6673    0.0000 C   0  0  0  0  0  0  0  0  0  0  0  0
   -1.9431   -0.3808    0.0000 C   0  0  0  0  0  0  0  0  0  0  0  0
   -1.2146    0.9305    0.0000 O   0  0  0  0  0  0  0  0  0  0  0  0
   -3.4429   -0.4055    0.0000 N   0  0  0  0  0  0  0  0  0  0  0  0
   -4.2142    0.8811    0.0000 C   0  0  0  0  0  0  0  0  0  0  0  0
   -5.7140    0.8564    0.0000 C   0  0  0  0  0  0  0  0  0  0  0  0
   -6.4853    2.1429    0.0000 C   0  0  0  0  0  0  0  0  0  0  0  0
   -7.9851    2.1182    0.0000 N   0  0  0  0  0  0  0  0  0  0  0  0
   -7.9604    0.6184    0.0000 C   0  0  0  0  0  0  0  0  0  0  0  0
   -8.0098    3.6180    0.0000 C   0  0  0  0  0  0  0  0  0  0  0  0
   -9.4849    2.0935    0.0000 C   0  0  0  0  0  0  0  0  0  0  0  0
  -10.2134    0.7823    0.0000 C   0  0  0  0  0  0  0  0  0  0  0  0
  -11.7132    0.7576    0.0000 C   0  0  0  0  0  0  0  0  0  0  0  0
  -12.4417   -0.5537    0.0000 S   0  0  0  0  0  0  0  0  0  0  0  0
  -13.7529    0.1748    0.0000 O   0  0  0  0  0  0  0  0  0  0  0  0
  -11.1305   -1.2822    0.0000 O   0  0  0  0  0  0  0  0  0  0  0  0
  -13.1702   -1.8649    0.0000 O   0  0  0  0  0  0  0  0  0  0  0  0
    2.5990   -2.9044    0.0000 C   0  0  0  0  0  0  0  0  0  0  0  0
    3.5006   -4.1032    0.0000 C   0  0  0  0  0  0  0  0  0  0  0  0
    4.9193   -3.6163    0.0000 C   0  0  0  0  0  0  0  0  0  0  0  0
    4.8946   -2.1165    0.0000 C   0  0  0  0  0  0  0  0  0  0  0  0
    5.9927   -1.0946    0.0000 C   0  0  0  0  0  0  0  0  0  0  0  0
    7.4267   -1.5345    0.0000 C   0  0  0  0  0  0  0  0  0  0  0  0
    7.7627   -2.9964    0.0000 O   0  0  0  0  0  0  0  0  0  0  0  0
    8.5247   -0.5126    0.0000 C   0  0  0  0  0  0  0  0  0  0  0  0
    8.1888    0.9493    0.0000 C   0  0  0  0  0  0  0  0  0  0  0  0
    9.2868    1.9712    0.0000 C   0  0  0  0  0  0  0  0  0  0  0  0
    8.9508    3.4331    0.0000 C   0  0  0  0  0  0  0  0  0  0  0  0
   10.0488    4.4550    0.0000 O   0  0  0  0  0  0  0  0  0  0  0  0
    7.5168    3.8731    0.0000 C   0  0  0  0  0  0  0  0  0  0  0  0
    6.4187    2.8511    0.0000 C   0  0  0  0  0  0  0  0  0  0  0  0
    6.7547    1.3892    0.0000 C   0  0  0  0  0  0  0  0  0  0  0  0
    5.3207    1.8292    0.0000 C   0  0  0  0  0  0  0  0  0  0  0  0
    5.6567    0.3673    0.0000 C   0  0  0  0  0  0  0  0  0  0  0  0
    4.2227    0.8073    0.0000 C   0  0  0  0  0  0  0  0  0  0  0  0
    3.1246   -0.2146    0.0000 C   0  0  0  0  0  0  0  0  0  0  0  0
    1.6906    0.2254    0.0000 O   0  0  0  0  0  0  0  0  0  0  0  0
    3.4606   -1.6765    0.0000 C   0  0  0  0  0  0  0  0  0  0  0  0
    1.9885   -1.3888    0.0000 C   0  0  0  0  0  0  0  0  0  0  0  0
  2  1  1  6
  2  3  1  0
  3  4  1  0
  4  5  1  0
  5  6  2  0
  5  7  1  0
  7  8  1  0
  8  9  1  0
  9 10  1  0
 10 11  1  0
 11 12  1  0
 11 13  1  0
 11 14  1  0
 14 15  1  0
 15 16  1  0
 16 17  1  0
 17 18  2  0
 17 19  2  0
 17 20  1  0
  2 21  1  0
 21 22  1  6
 22 23  1  0
 24 23  1  6
 24 25  1  0
 25 26  1  1
 26 27  1  1
 26 28  1  0
 29 28  1  1
 29 30  1  0
 30 31  1  0
 31 32  1  1
 31 33  1  0
 33 34  1  0
 34 35  1  0
 35 36  1  6
 35 37  1  0
 37 38  1  6
 38 39  1  0
 39 40  1  1
 39 41  1  0
 41 42  1  6
 41 21  1  0
 41 24  1  0
 37 25  1  0
 35 29  1  0
M  CHG  2  11   1  20  -1
M  END
>  <MS_ID>  (192) 
MS0201

>  <SMILES>  (192) 
C[C@H](CCC(=O)NCCC[N+](C)(C)CCCS(=O)(=O)[O-])[C@H]1CC[C@H]2[C@@H]3[C@H](O)C[C@@H]4C[C@H](O)CC[C@]4(C)[C@H]3C[C@H](O)[C@]12C

>  <Structure_dimension>  (192) 
2D

$$$$
MS0202
     RDKit          2D

 28 31  0  0  0  0  0  0  0  0999 V2000
   -4.6340   -2.3524    0.0000 C   0  0  0  0  0  0  0  0  0  0  0  0
   -3.5242   -1.3434    0.0000 C   0  0  0  0  0  0  0  0  0  0  0  0
   -3.8431    0.1223    0.0000 C   0  0  0  0  0  0  0  0  0  0  0  0
   -5.2720    0.5789    0.0000 C   0  0  0  0  0  0  0  0  0  0  0  0
   -5.5909    2.0446    0.0000 C   0  0  0  0  0  0  0  0  0  0  0  0
   -7.0197    2.5012    0.0000 O   0  0  0  0  0  0  0  0  0  0  0  0
   -4.4811    3.0537    0.0000 S   0  0  0  0  0  0  0  0  0  0  0  0
   -2.0954   -1.8000    0.0000 C   0  0  0  0  0  0  0  0  0  0  0  0
   -1.6249   -3.2243    0.0000 C   0  0  0  0  0  0  0  0  0  0  0  0
   -0.1249   -3.2170    0.0000 C   0  0  0  0  0  0  0  0  0  0  0  0
    0.3317   -1.7882    0.0000 C   0  0  0  0  0  0  0  0  0  0  0  0
    1.6990   -1.1715    0.0000 C   0  0  0  0  0  0  0  0  0  0  0  0
    2.9168   -2.0473    0.0000 C   0  0  0  0  0  0  0  0  0  0  0  0
    2.7672   -3.5398    0.0000 O   0  0  0  0  0  0  0  0  0  0  0  0
    4.2841   -1.4305    0.0000 C   0  0  0  0  0  0  0  0  0  0  0  0
    4.4337    0.0620    0.0000 C   0  0  0  0  0  0  0  0  0  0  0  0
    5.8011    0.6787    0.0000 C   0  0  0  0  0  0  0  0  0  0  0  0
    5.9506    2.1713    0.0000 C   0  0  0  0  0  0  0  0  0  0  0  0
    4.7328    3.0471    0.0000 C   0  0  0  0  0  0  0  0  0  0  0  0
    3.3655    2.4303    0.0000 C   0  0  0  0  0  0  0  0  0  0  0  0
    3.2159    0.9378    0.0000 C   0  0  0  0  0  0  0  0  0  0  0  0
    1.9981    1.8136    0.0000 C   0  0  0  0  0  0  0  0  0  0  0  0
    1.8486    0.3211    0.0000 C   0  0  0  0  0  0  0  0  0  0  0  0
    0.6308    1.1968    0.0000 C   0  0  0  0  0  0  0  0  0  0  0  0
   -0.7366    0.5801    0.0000 C   0  0  0  0  0  0  0  0  0  0  0  0
   -1.9543    1.4559    0.0000 O   0  0  0  0  0  0  0  0  0  0  0  0
   -0.8861   -0.9124    0.0000 C   0  0  0  0  0  0  0  0  0  0  0  0
   -2.1888   -0.1687    0.0000 C   0  0  0  0  0  0  0  0  0  0  0  0
  2  1  1  6
  2  3  1  0
  3  4  1  0
  4  5  1  0
  5  6  2  0
  5  7  1  0
  2  8  1  0
  8  9  1  6
  9 10  1  0
 11 10  1  6
 11 12  1  0
 12 13  1  1
 13 14  1  1
 13 15  1  0
 16 15  1  1
 16 17  1  0
 17 18  1  0
 18 19  1  0
 19 20  1  0
 20 21  1  0
 21 22  1  6
 21 23  1  0
 23 24  1  6
 24 25  1  0
 25 26  1  1
 25 27  1  0
 27 28  1  6
 27  8  1  0
 27 11  1  0
 23 12  1  0
 21 16  1  0
M  END
>  <MS_ID>  (193) 
MS0202

>  <SMILES>  (193) 
C[C@H](CCC(=O)S)[C@H]1CC[C@H]2[C@@H]3[C@H](O)C[C@@H]4CCCC[C@]4(C)[C@H]3C[C@H](O)[C@]12C

>  <Structure_dimension>  (193) 
2D

$$$$
MS0203
     RDKit          2D

 30 33  0  0  0  0  0  0  0  0999 V2000
   -8.9136    3.2062    0.0000 C   0  0  0  0  0  0  0  0  0  0  0  0
   -7.4457    2.8978    0.0000 C   0  0  0  0  0  0  0  0  0  0  0  0
   -6.9787    1.4724    0.0000 O   0  0  0  0  0  0  0  0  0  0  0  0
   -5.5108    1.1640    0.0000 C   0  0  0  0  0  0  0  0  0  0  0  0
   -4.5097    2.2811    0.0000 O   0  0  0  0  0  0  0  0  0  0  0  0
   -5.0438   -0.2615    0.0000 C   0  0  0  0  0  0  0  0  0  0  0  0
   -3.5759   -0.5698    0.0000 C   0  0  0  0  0  0  0  0  0  0  0  0
   -3.1089   -1.9953    0.0000 C   0  0  0  0  0  0  0  0  0  0  0  0
   -4.1099   -3.1124    0.0000 C   0  0  0  0  0  0  0  0  0  0  0  0
   -1.6409   -2.3036    0.0000 C   0  0  0  0  0  0  0  0  0  0  0  0
   -1.0276   -3.6725    0.0000 C   0  0  0  0  0  0  0  0  0  0  0  0
    0.4638   -3.5121    0.0000 C   0  0  0  0  0  0  0  0  0  0  0  0
    0.7722   -2.0441    0.0000 C   0  0  0  0  0  0  0  0  0  0  0  0
    2.0694   -1.2910    0.0000 C   0  0  0  0  0  0  0  0  0  0  0  0
    3.3703   -2.0379    0.0000 C   0  0  0  0  0  0  0  0  0  0  0  0
    3.3739   -3.5379    0.0000 O   0  0  0  0  0  0  0  0  0  0  0  0
    4.6675   -1.2848    0.0000 C   0  0  0  0  0  0  0  0  0  0  0  0
    4.6639    0.2152    0.0000 C   0  0  0  0  0  0  0  0  0  0  0  0
    5.9611    0.9683    0.0000 C   0  0  0  0  0  0  0  0  0  0  0  0
    5.9575    2.4683    0.0000 C   0  0  0  0  0  0  0  0  0  0  0  0
    7.2548    3.2214    0.0000 O   0  0  0  0  0  0  0  0  0  0  0  0
    4.6567    3.2152    0.0000 C   0  0  0  0  0  0  0  0  0  0  0  0
    3.3595    2.4621    0.0000 C   0  0  0  0  0  0  0  0  0  0  0  0
    3.3631    0.9621    0.0000 C   0  0  0  0  0  0  0  0  0  0  0  0
    2.0622    1.7090    0.0000 C   0  0  0  0  0  0  0  0  0  0  0  0
    2.0658    0.2090    0.0000 C   0  0  0  0  0  0  0  0  0  0  0  0
    0.7650    0.9559    0.0000 C   0  0  0  0  0  0  0  0  0  0  0  0
   -0.5322    0.2027    0.0000 C   0  0  0  0  0  0  0  0  0  0  0  0
   -0.5286   -1.2973    0.0000 C   0  0  0  0  0  0  0  0  0  0  0  0
   -1.9004   -0.6904    0.0000 C   0  0  0  0  0  0  0  0  0  0  0  0
  1  2  1  0
  2  3  1  0
  3  4  1  0
  4  5  2  0
  4  6  1  0
  6  7  1  0
  7  8  1  0
  8  9  1  6
  8 10  1  0
 10 11  1  6
 11 12  1  0
 13 12  1  6
 13 14  1  0
 14 15  1  1
 15 16  1  1
 15 17  1  0
 18 17  1  1
 18 19  1  0
 19 20  1  0
 20 21  1  1
 20 22  1  0
 22 23  1  0
 23 24  1  0
 24 25  1  6
 24 26  1  0
 26 27  1  6
 27 28  1  0
 28 29  1  0
 29 30  1  6
 29 10  1  0
 29 13  1  0
 26 14  1  0
 24 18  1  0
M  END
>  <MS_ID>  (194) 
MS0203

>  <SMILES>  (194) 
CCOC(=O)CC[C@@H](C)[C@H]1CC[C@H]2[C@@H]3[C@H](O)C[C@@H]4C[C@H](O)CC[C@]4(C)[C@H]3CC[C@]12C

>  <Structure_dimension>  (194) 
2D

$$$$
MS0204
     RDKit          2D

 31 34  0  0  0  0  0  0  0  0999 V2000
   -3.3365   -3.6593    0.0000 C   0  0  0  0  0  0  0  0  0  0  0  0
   -2.4053   -2.4834    0.0000 C   0  0  0  0  0  0  0  0  0  0  0  0
   -2.9582   -1.0889    0.0000 C   0  0  0  0  0  0  0  0  0  0  0  0
   -4.4422   -0.8705    0.0000 C   0  0  0  0  0  0  0  0  0  0  0  0
   -4.9950    0.5239    0.0000 C   0  0  0  0  0  0  0  0  0  0  0  0
   -4.0638    1.6999    0.0000 O   0  0  0  0  0  0  0  0  0  0  0  0
   -6.4790    0.7424    0.0000 N   0  0  0  0  0  0  0  0  0  0  0  0
   -7.0318    2.1368    0.0000 S   0  0  0  0  0  0  0  0  0  0  0  0
   -8.4262    1.5840    0.0000 O   0  0  0  0  0  0  0  0  0  0  0  0
   -5.6374    2.6896    0.0000 O   0  0  0  0  0  0  0  0  0  0  0  0
   -7.5846    3.5312    0.0000 O   0  0  0  0  0  0  0  0  0  0  0  0
   -0.9213   -2.7018    0.0000 C   0  0  0  0  0  0  0  0  0  0  0  0
   -0.2258   -4.0308    0.0000 C   0  0  0  0  0  0  0  0  0  0  0  0
    1.2531   -3.7800    0.0000 C   0  0  0  0  0  0  0  0  0  0  0  0
    1.4715   -2.2960    0.0000 C   0  0  0  0  0  0  0  0  0  0  0  0
    2.7205   -1.4653    0.0000 C   0  0  0  0  0  0  0  0  0  0  0  0
    4.0644   -2.1317    0.0000 C   0  0  0  0  0  0  0  0  0  0  0  0
    5.3134   -1.3010    0.0000 C   0  0  0  0  0  0  0  0  0  0  0  0
    5.2186    0.1960    0.0000 C   0  0  0  0  0  0  0  0  0  0  0  0
    6.4676    1.0266    0.0000 C   0  0  0  0  0  0  0  0  0  0  0  0
    6.3727    2.5236    0.0000 C   0  0  0  0  0  0  0  0  0  0  0  0
    7.6217    3.3543    0.0000 O   0  0  0  0  0  0  0  0  0  0  0  0
    5.0288    3.1900    0.0000 C   0  0  0  0  0  0  0  0  0  0  0  0
    3.7798    2.3593    0.0000 C   0  0  0  0  0  0  0  0  0  0  0  0
    3.8747    0.8623    0.0000 C   0  0  0  0  0  0  0  0  0  0  0  0
    2.5308    1.5287    0.0000 C   0  0  0  0  0  0  0  0  0  0  0  0
    2.6257    0.0317    0.0000 C   0  0  0  0  0  0  0  0  0  0  0  0
    1.2818    0.6980    0.0000 C   0  0  0  0  0  0  0  0  0  0  0  0
    0.0328   -0.1326    0.0000 C   0  0  0  0  0  0  0  0  0  0  0  0
    0.1277   -1.6296    0.0000 C   0  0  0  0  0  0  0  0  0  0  0  0
   -1.2785   -1.1074    0.0000 C   0  0  0  0  0  0  0  0  0  0  0  0
  2  1  1  6
  2  3  1  0
  3  4  1  0
  4  5  1  0
  5  6  2  0
  5  7  1  0
  7  8  1  0
  8  9  2  0
  8 10  2  0
  8 11  1  0
  2 12  1  0
 12 13  1  6
 13 14  1  0
 15 14  1  6
 15 16  1  0
 16 17  1  1
 17 18  1  0
 19 18  1  1
 19 20  1  0
 20 21  1  0
 21 22  1  1
 21 23  1  0
 23 24  1  0
 24 25  1  0
 25 26  1  6
 25 27  1  0
 27 28  1  6
 28 29  1  0
 29 30  1  0
 30 31  1  6
 30 12  1  0
 30 15  1  0
 27 16  1  0
 25 19  1  0
M  END
>  <MS_ID>  (195) 
MS0204

>  <SMILES>  (195) 
C[C@H](CCC(=O)NS(=O)(=O)O)[C@H]1CC[C@H]2[C@@H]3CC[C@@H]4C[C@H](O)CC[C@]4(C)[C@H]3CC[C@]12C

>  <Structure_dimension>  (195) 
2D

$$$$
MS0205
     RDKit          2D

 32 35  0  0  0  0  0  0  0  0999 V2000
   -3.6519   -3.4889    0.0000 C   0  0  0  0  0  0  0  0  0  0  0  0
   -2.7185   -2.3147    0.0000 C   0  0  0  0  0  0  0  0  0  0  0  0
   -3.2687   -0.9192    0.0000 C   0  0  0  0  0  0  0  0  0  0  0  0
   -4.7523   -0.6980    0.0000 C   0  0  0  0  0  0  0  0  0  0  0  0
   -5.3024    0.6975    0.0000 C   0  0  0  0  0  0  0  0  0  0  0  0
   -4.3690    1.8717    0.0000 O   0  0  0  0  0  0  0  0  0  0  0  0
   -6.7860    0.9188    0.0000 C   0  0  0  0  0  0  0  0  0  0  0  0
   -7.3362    2.3142    0.0000 C   0  0  0  0  0  0  0  0  0  0  0  0
   -6.4028    3.4884    0.0000 O   0  0  0  0  0  0  0  0  0  0  0  0
   -8.8198    2.5355    0.0000 O   0  0  0  0  0  0  0  0  0  0  0  0
   -1.2349   -2.5360    0.0000 C   0  0  0  0  0  0  0  0  0  0  0  0
   -0.5419   -3.8663    0.0000 C   0  0  0  0  0  0  0  0  0  0  0  0
    0.9375   -3.6183    0.0000 C   0  0  0  0  0  0  0  0  0  0  0  0
    1.1587   -2.1347    0.0000 C   0  0  0  0  0  0  0  0  0  0  0  0
    2.4093   -1.3064    0.0000 C   0  0  0  0  0  0  0  0  0  0  0  0
    3.7519   -1.9753    0.0000 C   0  0  0  0  0  0  0  0  0  0  0  0
    3.8439   -3.4725    0.0000 O   0  0  0  0  0  0  0  0  0  0  0  0
    5.0025   -1.1470    0.0000 C   0  0  0  0  0  0  0  0  0  0  0  0
    4.9105    0.3502    0.0000 C   0  0  0  0  0  0  0  0  0  0  0  0
    6.1611    1.1784    0.0000 C   0  0  0  0  0  0  0  0  0  0  0  0
    6.0690    2.6756    0.0000 C   0  0  0  0  0  0  0  0  0  0  0  0
    7.3196    3.5039    0.0000 O   0  0  0  0  0  0  0  0  0  0  0  0
    4.7264    3.3445    0.0000 C   0  0  0  0  0  0  0  0  0  0  0  0
    3.4759    2.5162    0.0000 C   0  0  0  0  0  0  0  0  0  0  0  0
    3.5679    1.0191    0.0000 C   0  0  0  0  0  0  0  0  0  0  0  0
    2.2253    1.6879    0.0000 C   0  0  0  0  0  0  0  0  0  0  0  0
    2.3173    0.1908    0.0000 C   0  0  0  0  0  0  0  0  0  0  0  0
    0.9747    0.8597    0.0000 C   0  0  0  0  0  0  0  0  0  0  0  0
   -0.2759    0.0314    0.0000 C   0  0  0  0  0  0  0  0  0  0  0  0
   -1.6185    0.7003    0.0000 O   0  0  0  0  0  0  0  0  0  0  0  0
   -0.1839   -1.4658    0.0000 C   0  0  0  0  0  0  0  0  0  0  0  0
   -1.5890   -0.9409    0.0000 C   0  0  0  0  0  0  0  0  0  0  0  0
  2  1  1  6
  2  3  1  0
  3  4  1  0
  4  5  1  0
  5  6  2  0
  5  7  1  0
  7  8  1  0
  8  9  2  0
  8 10  1  0
  2 11  1  0
 11 12  1  6
 12 13  1  0
 14 13  1  6
 14 15  1  0
 15 16  1  1
 16 17  1  6
 16 18  1  0
 19 18  1  1
 19 20  1  0
 20 21  1  0
 21 22  1  1
 21 23  1  0
 23 24  1  0
 24 25  1  0
 25 26  1  6
 25 27  1  0
 27 28  1  6
 28 29  1  0
 29 30  1  6
 29 31  1  0
 31 32  1  6
 31 11  1  0
 31 14  1  0
 27 15  1  0
 25 19  1  0
M  END
>  <MS_ID>  (196) 
MS0205

>  <SMILES>  (196) 
C[C@H](CCC(=O)CC(=O)O)[C@H]1CC[C@H]2[C@@H]3[C@@H](O)C[C@@H]4C[C@H](O)CC[C@]4(C)[C@H]3C[C@@H](O)[C@]12C

>  <Structure_dimension>  (196) 
2D

$$$$
MS0207
     RDKit          2D

 32 35  0  0  0  0  0  0  0  0999 V2000
   -3.6519   -3.4889    0.0000 C   0  0  0  0  0  0  0  0  0  0  0  0
   -2.7185   -2.3147    0.0000 C   0  0  0  0  0  0  0  0  0  0  0  0
   -3.2687   -0.9192    0.0000 C   0  0  0  0  0  0  0  0  0  0  0  0
   -4.7523   -0.6980    0.0000 C   0  0  0  0  0  0  0  0  0  0  0  0
   -5.3024    0.6975    0.0000 C   0  0  0  0  0  0  0  0  0  0  0  0
   -4.3690    1.8717    0.0000 O   0  0  0  0  0  0  0  0  0  0  0  0
   -6.7860    0.9188    0.0000 C   0  0  0  0  0  0  0  0  0  0  0  0
   -7.3362    2.3142    0.0000 C   0  0  0  0  0  0  0  0  0  0  0  0
   -6.4028    3.4884    0.0000 O   0  0  0  0  0  0  0  0  0  0  0  0
   -8.8198    2.5355    0.0000 O   0  0  0  0  0  0  0  0  0  0  0  0
   -1.2349   -2.5360    0.0000 C   0  0  0  0  0  0  0  0  0  0  0  0
   -0.5419   -3.8663    0.0000 C   0  0  0  0  0  0  0  0  0  0  0  0
    0.9375   -3.6183    0.0000 C   0  0  0  0  0  0  0  0  0  0  0  0
    1.1587   -2.1347    0.0000 C   0  0  0  0  0  0  0  0  0  0  0  0
    2.4093   -1.3064    0.0000 C   0  0  0  0  0  0  0  0  0  0  0  0
    3.7519   -1.9753    0.0000 C   0  0  0  0  0  0  0  0  0  0  0  0
    3.8439   -3.4725    0.0000 O   0  0  0  0  0  0  0  0  0  0  0  0
    5.0025   -1.1470    0.0000 C   0  0  0  0  0  0  0  0  0  0  0  0
    4.9105    0.3502    0.0000 C   0  0  0  0  0  0  0  0  0  0  0  0
    6.1611    1.1784    0.0000 C   0  0  0  0  0  0  0  0  0  0  0  0
    6.0690    2.6756    0.0000 C   0  0  0  0  0  0  0  0  0  0  0  0
    7.3196    3.5039    0.0000 O   0  0  0  0  0  0  0  0  0  0  0  0
    4.7264    3.3445    0.0000 C   0  0  0  0  0  0  0  0  0  0  0  0
    3.4759    2.5162    0.0000 C   0  0  0  0  0  0  0  0  0  0  0  0
    3.5679    1.0191    0.0000 C   0  0  0  0  0  0  0  0  0  0  0  0
    2.2253    1.6879    0.0000 C   0  0  0  0  0  0  0  0  0  0  0  0
    2.3173    0.1908    0.0000 C   0  0  0  0  0  0  0  0  0  0  0  0
    0.9747    0.8597    0.0000 C   0  0  0  0  0  0  0  0  0  0  0  0
   -0.2759    0.0314    0.0000 C   0  0  0  0  0  0  0  0  0  0  0  0
   -1.6185    0.7003    0.0000 O   0  0  0  0  0  0  0  0  0  0  0  0
   -0.1839   -1.4658    0.0000 C   0  0  0  0  0  0  0  0  0  0  0  0
   -1.5890   -0.9409    0.0000 C   0  0  0  0  0  0  0  0  0  0  0  0
  2  1  1  6
  2  3  1  0
  3  4  1  0
  4  5  1  0
  5  6  2  0
  5  7  1  0
  7  8  1  0
  8  9  2  0
  8 10  1  0
  2 11  1  0
 11 12  1  6
 12 13  1  0
 14 13  1  6
 14 15  1  0
 15 16  1  1
 16 17  1  6
 16 18  1  0
 19 18  1  1
 19 20  1  0
 20 21  1  0
 21 22  1  6
 21 23  1  0
 23 24  1  0
 24 25  1  0
 25 26  1  6
 25 27  1  0
 27 28  1  6
 28 29  1  0
 29 30  1  1
 29 31  1  0
 31 32  1  6
 31 11  1  0
 31 14  1  0
 27 15  1  0
 25 19  1  0
M  END
>  <MS_ID>  (197) 
MS0207

>  <SMILES>  (197) 
C[C@H](CCC(=O)CC(=O)O)[C@H]1CC[C@H]2[C@@H]3[C@@H](O)C[C@@H]4C[C@@H](O)CC[C@]4(C)[C@H]3C[C@H](O)[C@]12C

>  <Structure_dimension>  (197) 
2D

$$$$
MS0208
     RDKit          2D

 29 32  0  0  0  0  0  0  0  0999 V2000
   -4.9453    4.3279    0.0000 C   0  0  0  0  0  0  0  0  0  0  0  0
   -4.6294    2.8615    0.0000 S   0  0  0  0  0  0  0  0  0  0  0  0
   -5.7413    1.8547    0.0000 C   0  0  0  0  0  0  0  0  0  0  0  0
   -7.1692    2.3143    0.0000 O   0  0  0  0  0  0  0  0  0  0  0  0
   -5.4254    0.3884    0.0000 C   0  0  0  0  0  0  0  0  0  0  0  0
   -3.9975   -0.0712    0.0000 C   0  0  0  0  0  0  0  0  0  0  0  0
   -3.6816   -1.5375    0.0000 C   0  0  0  0  0  0  0  0  0  0  0  0
   -4.7935   -2.5443    0.0000 C   0  0  0  0  0  0  0  0  0  0  0  0
   -2.2537   -1.9971    0.0000 C   0  0  0  0  0  0  0  0  0  0  0  0
   -1.7862   -3.4224    0.0000 C   0  0  0  0  0  0  0  0  0  0  0  0
   -0.2862   -3.4182    0.0000 C   0  0  0  0  0  0  0  0  0  0  0  0
    0.1733   -1.9903    0.0000 C   0  0  0  0  0  0  0  0  0  0  0  0
    1.5420   -1.3764    0.0000 C   0  0  0  0  0  0  0  0  0  0  0  0
    2.7579   -2.2547    0.0000 C   0  0  0  0  0  0  0  0  0  0  0  0
    2.6053   -3.7470    0.0000 O   0  0  0  0  0  0  0  0  0  0  0  0
    4.1265   -1.6408    0.0000 C   0  0  0  0  0  0  0  0  0  0  0  0
    4.2792   -0.1486    0.0000 C   0  0  0  0  0  0  0  0  0  0  0  0
    5.6478    0.4653    0.0000 C   0  0  0  0  0  0  0  0  0  0  0  0
    5.8005    1.9575    0.0000 C   0  0  0  0  0  0  0  0  0  0  0  0
    7.1691    2.5714    0.0000 O   0  0  0  0  0  0  0  0  0  0  0  0
    4.5845    2.8358    0.0000 C   0  0  0  0  0  0  0  0  0  0  0  0
    3.2159    2.2219    0.0000 C   0  0  0  0  0  0  0  0  0  0  0  0
    3.0632    0.7297    0.0000 C   0  0  0  0  0  0  0  0  0  0  0  0
    1.8473    1.6080    0.0000 C   0  0  0  0  0  0  0  0  0  0  0  0
    1.6946    0.1158    0.0000 C   0  0  0  0  0  0  0  0  0  0  0  0
    0.4786    0.9941    0.0000 C   0  0  0  0  0  0  0  0  0  0  0  0
   -0.8900    0.3802    0.0000 C   0  0  0  0  0  0  0  0  0  0  0  0
   -1.0426   -1.1120    0.0000 C   0  0  0  0  0  0  0  0  0  0  0  0
   -2.3437   -0.3657    0.0000 C   0  0  0  0  0  0  0  0  0  0  0  0
  1  2  1  0
  2  3  1  0
  3  4  2  0
  3  5  1  0
  5  6  1  0
  6  7  1  0
  7  8  1  6
  7  9  1  0
  9 10  1  6
 10 11  1  0
 12 11  1  6
 12 13  1  0
 13 14  1  1
 14 15  1  1
 14 16  1  0
 17 16  1  1
 17 18  1  0
 18 19  1  0
 19 20  1  1
 19 21  1  0
 21 22  1  0
 22 23  1  0
 23 24  1  6
 23 25  1  0
 25 26  1  6
 26 27  1  0
 27 28  1  0
 28 29  1  6
 28  9  1  0
 28 12  1  0
 25 13  1  0
 23 17  1  0
M  END
>  <MS_ID>  (198) 
MS0208

>  <SMILES>  (198) 
CSC(=O)CC[C@@H](C)[C@H]1CC[C@H]2[C@@H]3[C@H](O)C[C@@H]4C[C@H](O)CC[C@]4(C)[C@H]3CC[C@]12C

>  <Structure_dimension>  (198) 
2D

$$$$
MS0209
     RDKit          2D

 35 38  0  0  0  0  0  0  0  0999 V2000
   -2.4368   -4.1726    0.0000 C   0  0  0  0  0  0  0  0  0  0  0  0
   -1.6698   -2.8835    0.0000 C   0  0  0  0  0  0  0  0  0  0  0  0
   -2.4027   -1.5747    0.0000 C   0  0  0  0  0  0  0  0  0  0  0  0
   -3.9026   -1.5550    0.0000 C   0  0  0  0  0  0  0  0  0  0  0  0
   -4.6355   -0.2462    0.0000 C   0  0  0  0  0  0  0  0  0  0  0  0
   -3.8685    1.0428    0.0000 O   0  0  0  0  0  0  0  0  0  0  0  0
   -6.1353   -0.2265    0.0000 N   0  0  0  0  0  0  0  0  0  0  0  0
   -6.8682    1.0822    0.0000 C   0  0  0  0  0  0  0  0  0  0  0  0
   -8.1770    0.3494    0.0000 C   0  0  0  0  0  0  0  0  0  0  0  0
   -5.5594    1.8151    0.0000 C   0  0  0  0  0  0  0  0  0  0  0  0
   -7.6011    2.3910    0.0000 C   0  0  0  0  0  0  0  0  0  0  0  0
   -9.1009    2.4107    0.0000 O   0  0  0  0  0  0  0  0  0  0  0  0
   -6.8341    3.6801    0.0000 O   0  0  0  0  0  0  0  0  0  0  0  0
   -0.1700   -2.9032    0.0000 C   0  0  0  0  0  0  0  0  0  0  0  0
    0.6957   -4.1282    0.0000 C   0  0  0  0  0  0  0  0  0  0  0  0
    2.1282   -3.6835    0.0000 C   0  0  0  0  0  0  0  0  0  0  0  0
    2.1479   -2.1836    0.0000 C   0  0  0  0  0  0  0  0  0  0  0  0
    3.2757   -1.1946    0.0000 C   0  0  0  0  0  0  0  0  0  0  0  0
    4.6961   -1.6768    0.0000 C   0  0  0  0  0  0  0  0  0  0  0  0
    4.9887   -3.1480    0.0000 O   0  0  0  0  0  0  0  0  0  0  0  0
    5.8239   -0.6879    0.0000 C   0  0  0  0  0  0  0  0  0  0  0  0
    5.5314    0.7833    0.0000 C   0  0  0  0  0  0  0  0  0  0  0  0
    6.6592    1.7723    0.0000 C   0  0  0  0  0  0  0  0  0  0  0  0
    6.3666    3.2435    0.0000 C   0  0  0  0  0  0  0  0  0  0  0  0
    7.4944    4.2324    0.0000 O   0  0  0  0  0  0  0  0  0  0  0  0
    4.9462    3.7257    0.0000 C   0  0  0  0  0  0  0  0  0  0  0  0
    3.8184    2.7367    0.0000 C   0  0  0  0  0  0  0  0  0  0  0  0
    4.1110    1.2655    0.0000 C   0  0  0  0  0  0  0  0  0  0  0  0
    2.6906    1.7478    0.0000 C   0  0  0  0  0  0  0  0  0  0  0  0
    2.9832    0.2766    0.0000 C   0  0  0  0  0  0  0  0  0  0  0  0
    1.5628    0.7588    0.0000 C   0  0  0  0  0  0  0  0  0  0  0  0
    0.4350   -0.2302    0.0000 C   0  0  0  0  0  0  0  0  0  0  0  0
   -0.9854    0.2521    0.0000 O   0  0  0  0  0  0  0  0  0  0  0  0
    0.7276   -1.7014    0.0000 C   0  0  0  0  0  0  0  0  0  0  0  0
   -0.7354   -1.3702    0.0000 C   0  0  0  0  0  0  0  0  0  0  0  0
  2  1  1  6
  2  3  1  0
  3  4  1  0
  4  5  1  0
  5  6  2  0
  5  7  1  0
  7  8  1  0
  8  9  1  0
  8 10  1  0
  8 11  1  0
 11 12  2  0
 11 13  1  0
  2 14  1  0
 14 15  1  6
 15 16  1  0
 17 16  1  6
 17 18  1  0
 18 19  1  1
 19 20  1  1
 19 21  1  0
 22 21  1  1
 22 23  1  0
 23 24  1  0
 24 25  1  1
 24 26  1  0
 26 27  1  0
 27 28  1  0
 28 29  1  6
 28 30  1  0
 30 31  1  6
 31 32  1  0
 32 33  1  1
 32 34  1  0
 34 35  1  6
 34 14  1  0
 34 17  1  0
 30 18  1  0
 28 22  1  0
M  END
>  <MS_ID>  (199) 
MS0209

>  <SMILES>  (199) 
C[C@H](CCC(=O)NC(C)(C)C(=O)O)[C@H]1CC[C@H]2[C@@H]3[C@H](O)C[C@@H]4C[C@H](O)CC[C@]4(C)[C@H]3C[C@H](O)[C@]12C

>  <Structure_dimension>  (199) 
2D

$$$$
MS0210
     RDKit          2D

 34 37  0  0  0  0  0  0  0  0999 V2000
   -5.6108   -2.4997    0.0000 C   0  0  0  0  0  0  0  0  0  0  0  0
   -4.4564   -1.5419    0.0000 C   0  0  0  0  0  0  0  0  0  0  0  0
   -4.7086   -0.0633    0.0000 C   0  0  0  0  0  0  0  0  0  0  0  0
   -6.1153    0.4576    0.0000 C   0  0  0  0  0  0  0  0  0  0  0  0
   -6.3675    1.9362    0.0000 C   0  0  0  0  0  0  0  0  0  0  0  0
   -5.2131    2.8940    0.0000 O   0  0  0  0  0  0  0  0  0  0  0  0
   -7.7742    2.4571    0.0000 C   0  0  0  0  0  0  0  0  0  0  0  0
   -8.9286    1.4994    0.0000 O   0  0  0  0  0  0  0  0  0  0  0  0
   -8.0264    3.9358    0.0000 O   0  0  0  0  0  0  0  0  0  0  0  0
   -3.0498   -2.0628    0.0000 C   0  0  0  0  0  0  0  0  0  0  0  0
   -2.6443   -3.5070    0.0000 C   0  0  0  0  0  0  0  0  0  0  0  0
   -1.1456   -3.5677    0.0000 C   0  0  0  0  0  0  0  0  0  0  0  0
   -0.6247   -2.1611    0.0000 C   0  0  0  0  0  0  0  0  0  0  0  0
    0.7692   -1.6069    0.0000 C   0  0  0  0  0  0  0  0  0  0  0  0
    1.9460   -2.5370    0.0000 C   0  0  0  0  0  0  0  0  0  0  0  0
    1.7290   -4.0212    0.0000 O   0  0  0  0  0  0  0  0  0  0  0  0
    3.3399   -1.9829    0.0000 C   0  0  0  0  0  0  0  0  0  0  0  0
    3.5570   -0.4986    0.0000 C   0  0  0  0  0  0  0  0  0  0  0  0
    4.9509    0.0555    0.0000 C   0  0  0  0  0  0  0  0  0  0  0  0
    5.1679    1.5397    0.0000 C   0  0  0  0  0  0  0  0  0  0  0  0
    6.5618    2.0938    0.0000 O   0  0  0  0  0  0  0  0  0  0  0  0
    7.7386    1.1638    0.0000 S   0  0  0  0  0  0  0  0  0  0  0  0
    6.8086   -0.0131    0.0000 O   0  0  0  0  0  0  0  0  0  0  0  0
    8.6687    2.3406    0.0000 O   0  0  0  0  0  0  0  0  0  0  0  0
    8.9155    0.2337    0.0000 O   0  0  0  0  0  0  0  0  0  0  0  0
    3.9911    2.4698    0.0000 C   0  0  0  0  0  0  0  0  0  0  0  0
    2.5972    1.9156    0.0000 C   0  0  0  0  0  0  0  0  0  0  0  0
    2.3801    0.4314    0.0000 C   0  0  0  0  0  0  0  0  0  0  0  0
    1.2033    1.3615    0.0000 C   0  0  0  0  0  0  0  0  0  0  0  0
    0.9862   -0.1227    0.0000 C   0  0  0  0  0  0  0  0  0  0  0  0
   -0.1906    0.8074    0.0000 C   0  0  0  0  0  0  0  0  0  0  0  0
   -1.5845    0.2532    0.0000 C   0  0  0  0  0  0  0  0  0  0  0  0
   -1.8015   -1.2310    0.0000 C   0  0  0  0  0  0  0  0  0  0  0  0
   -3.0692   -0.4290    0.0000 C   0  0  0  0  0  0  0  0  0  0  0  0
  2  1  1  6
  2  3  1  0
  3  4  1  0
  4  5  1  0
  5  6  2  0
  5  7  1  0
  7  8  2  0
  7  9  1  0
  2 10  1  0
 10 11  1  6
 11 12  1  0
 13 12  1  6
 13 14  1  0
 14 15  1  1
 15 16  1  1
 15 17  1  0
 18 17  1  1
 18 19  1  0
 19 20  1  0
 20 21  1  1
 21 22  1  0
 22 23  2  0
 22 24  2  0
 22 25  1  0
 20 26  1  0
 26 27  1  0
 27 28  1  0
 28 29  1  6
 28 30  1  0
 30 31  1  6
 31 32  1  0
 32 33  1  0
 33 34  1  6
 33 10  1  0
 33 13  1  0
 30 14  1  0
 28 18  1  0
M  END
>  <MS_ID>  (200) 
MS0210

>  <SMILES>  (200) 
C[C@H](CCC(=O)C(=O)O)[C@H]1CC[C@H]2[C@@H]3[C@H](O)C[C@@H]4C[C@H](OS(=O)(=O)O)CC[C@]4(C)[C@H]3CC[C@]12C

>  <Structure_dimension>  (200) 
2D

$$$$
MS0211
     RDKit          2D

 29 32  0  0  0  0  0  0  0  0999 V2000
   -4.6551   -2.6180    0.0000 C   0  0  0  0  0  0  0  0  0  0  0  0
   -3.5633   -1.5894    0.0000 C   0  0  0  0  0  0  0  0  0  0  0  0
   -3.9081   -0.1296    0.0000 C   0  0  0  0  0  0  0  0  0  0  0  0
   -5.3448    0.3016    0.0000 C   0  0  0  0  0  0  0  0  0  0  0  0
   -5.6897    1.7615    0.0000 C   0  0  0  0  0  0  0  0  0  0  0  0
   -4.5979    2.7900    0.0000 O   0  0  0  0  0  0  0  0  0  0  0  0
   -7.1264    2.1927    0.0000 C   0  0  0  0  0  0  0  0  0  0  0  0
   -7.4712    3.6525    0.0000 O   0  0  0  0  0  0  0  0  0  0  0  0
   -2.1266   -2.0207    0.0000 C   0  0  0  0  0  0  0  0  0  0  0  0
   -1.6310   -3.4364    0.0000 C   0  0  0  0  0  0  0  0  0  0  0  0
   -0.1314   -3.4026    0.0000 C   0  0  0  0  0  0  0  0  0  0  0  0
    0.2998   -1.9659    0.0000 C   0  0  0  0  0  0  0  0  0  0  0  0
    1.6561   -1.3251    0.0000 C   0  0  0  0  0  0  0  0  0  0  0  0
    2.8892   -2.1792    0.0000 C   0  0  0  0  0  0  0  0  0  0  0  0
    2.7660   -3.6741    0.0000 O   0  0  0  0  0  0  0  0  0  0  0  0
    4.2454   -1.5383    0.0000 C   0  0  0  0  0  0  0  0  0  0  0  0
    4.3685   -0.0434    0.0000 C   0  0  0  0  0  0  0  0  0  0  0  0
    5.7247    0.5975    0.0000 C   0  0  0  0  0  0  0  0  0  0  0  0
    5.8478    2.0924    0.0000 C   0  0  0  0  0  0  0  0  0  0  0  0
    7.2040    2.7332    0.0000 O   0  0  0  0  0  0  0  0  0  0  0  0
    4.6147    2.9465    0.0000 C   0  0  0  0  0  0  0  0  0  0  0  0
    3.2585    2.3056    0.0000 C   0  0  0  0  0  0  0  0  0  0  0  0
    3.1354    0.8107    0.0000 C   0  0  0  0  0  0  0  0  0  0  0  0
    1.9023    1.6648    0.0000 C   0  0  0  0  0  0  0  0  0  0  0  0
    1.7792    0.1699    0.0000 C   0  0  0  0  0  0  0  0  0  0  0  0
    0.5461    1.0239    0.0000 C   0  0  0  0  0  0  0  0  0  0  0  0
   -0.8101    0.3831    0.0000 C   0  0  0  0  0  0  0  0  0  0  0  0
   -0.9333   -1.1118    0.0000 C   0  0  0  0  0  0  0  0  0  0  0  0
   -2.2489   -0.3913    0.0000 C   0  0  0  0  0  0  0  0  0  0  0  0
  2  1  1  6
  2  3  1  0
  3  4  1  0
  4  5  1  0
  5  6  2  0
  5  7  1  0
  7  8  1  0
  2  9  1  0
  9 10  1  6
 10 11  1  0
 12 11  1  6
 12 13  1  0
 13 14  1  1
 14 15  1  1
 14 16  1  0
 17 16  1  1
 17 18  1  0
 18 19  1  0
 19 20  2  0
 19 21  1  0
 21 22  1  0
 22 23  1  0
 23 24  1  6
 23 25  1  0
 25 26  1  6
 26 27  1  0
 27 28  1  0
 28 29  1  6
 28  9  1  0
 28 12  1  0
 25 13  1  0
 23 17  1  0
M  END
>  <MS_ID>  (201) 
MS0211

>  <SMILES>  (201) 
C[C@H](CCC(=O)CO)[C@H]1CC[C@H]2[C@@H]3[C@H](O)C[C@@H]4CC(=O)CC[C@]4(C)[C@H]3CC[C@]12C

>  <Structure_dimension>  (201) 
2D

$$$$
MS0212
     RDKit          2D

 35 39  0  0  0  0  0  0  0  0999 V2000
   -1.7226   -4.5748    0.0000 C   0  0  0  0  0  0  0  0  0  0  0  0
   -1.0860   -3.2166    0.0000 C   0  0  0  0  0  0  0  0  0  0  0  0
   -1.9441   -1.9862    0.0000 C   0  0  0  0  0  0  0  0  0  0  0  0
   -3.4386   -2.1141    0.0000 C   0  0  0  0  0  0  0  0  0  0  0  0
   -4.2966   -0.8837    0.0000 C   0  0  0  0  0  0  0  0  0  0  0  0
   -3.6601    0.4746    0.0000 O   0  0  0  0  0  0  0  0  0  0  0  0
   -5.7911   -1.0116    0.0000 N   0  0  0  0  0  0  0  0  0  0  0  0
   -6.6492    0.2188    0.0000 C   0  0  0  0  0  0  0  0  0  0  0  0
   -6.0126    1.5771    0.0000 C   0  0  0  0  0  0  0  0  0  0  0  0
   -6.8706    2.8074    0.0000 C   0  0  0  0  0  0  0  0  0  0  0  0
   -8.3652    2.6796    0.0000 C   0  0  0  0  0  0  0  0  0  0  0  0
   -9.2232    3.9099    0.0000 O   0  0  0  0  0  0  0  0  0  0  0  0
   -9.0017    1.3213    0.0000 C   0  0  0  0  0  0  0  0  0  0  0  0
   -8.1437    0.0909    0.0000 C   0  0  0  0  0  0  0  0  0  0  0  0
    0.4085   -3.0887    0.0000 C   0  0  0  0  0  0  0  0  0  0  0  0
    1.3904   -4.2226    0.0000 C   0  0  0  0  0  0  0  0  0  0  0  0
    2.7723   -3.6392    0.0000 C   0  0  0  0  0  0  0  0  0  0  0  0
    2.6444   -2.1446    0.0000 C   0  0  0  0  0  0  0  0  0  0  0  0
    3.6695   -1.0496    0.0000 C   0  0  0  0  0  0  0  0  0  0  0  0
    5.1304   -1.3898    0.0000 C   0  0  0  0  0  0  0  0  0  0  0  0
    5.5662   -2.8251    0.0000 O   0  0  0  0  0  0  0  0  0  0  0  0
    6.1555   -0.2947    0.0000 C   0  0  0  0  0  0  0  0  0  0  0  0
    5.7197    1.1406    0.0000 C   0  0  0  0  0  0  0  0  0  0  0  0
    6.7448    2.2356    0.0000 C   0  0  0  0  0  0  0  0  0  0  0  0
    6.3090    3.6709    0.0000 C   0  0  0  0  0  0  0  0  0  0  0  0
    7.3341    4.7660    0.0000 O   0  0  0  0  0  0  0  0  0  0  0  0
    4.8481    4.0112    0.0000 C   0  0  0  0  0  0  0  0  0  0  0  0
    3.8230    2.9161    0.0000 C   0  0  0  0  0  0  0  0  0  0  0  0
    4.2588    1.4808    0.0000 C   0  0  0  0  0  0  0  0  0  0  0  0
    2.7979    1.8210    0.0000 C   0  0  0  0  0  0  0  0  0  0  0  0
    3.2337    0.3857    0.0000 C   0  0  0  0  0  0  0  0  0  0  0  0
    1.7728    0.7259    0.0000 C   0  0  0  0  0  0  0  0  0  0  0  0
    0.7477   -0.3691    0.0000 C   0  0  0  0  0  0  0  0  0  0  0  0
    1.1835   -1.8044    0.0000 C   0  0  0  0  0  0  0  0  0  0  0  0
   -0.3050   -1.6188    0.0000 C   0  0  0  0  0  0  0  0  0  0  0  0
  2  1  1  6
  2  3  1  0
  3  4  1  0
  4  5  1  0
  5  6  2  0
  5  7  1  0
  7  8  1  0
  8  9  2  0
  9 10  1  0
 10 11  2  0
 11 12  1  0
 11 13  1  0
 13 14  2  0
  2 15  1  0
 15 16  1  6
 16 17  1  0
 18 17  1  6
 18 19  1  0
 19 20  1  1
 20 21  1  1
 20 22  1  0
 23 22  1  1
 23 24  1  0
 24 25  1  0
 25 26  1  1
 25 27  1  0
 27 28  1  0
 28 29  1  0
 29 30  1  6
 29 31  1  0
 31 32  1  6
 32 33  1  0
 33 34  1  0
 34 35  1  6
 14  8  1  0
 34 15  1  0
 34 18  1  0
 31 19  1  0
 29 23  1  0
M  END
>  <MS_ID>  (202) 
MS0212

>  <SMILES>  (202) 
C[C@H](CCC(=O)Nc1ccc(O)cc1)[C@H]1CC[C@H]2[C@@H]3[C@H](O)C[C@@H]4C[C@H](O)CC[C@]4(C)[C@H]3CC[C@]12C

>  <Structure_dimension>  (202) 
2D

$$$$
MS0213
     RDKit          2D

 29 32  0  0  0  0  0  0  0  0999 V2000
   -4.5534   -2.6812    0.0000 C   0  0  0  0  0  0  0  0  0  0  0  0
   -3.4378   -1.6786    0.0000 C   0  0  0  0  0  0  0  0  0  0  0  0
   -3.7483   -0.2111    0.0000 C   0  0  0  0  0  0  0  0  0  0  0  0
   -5.1744    0.2538    0.0000 C   0  0  0  0  0  0  0  0  0  0  0  0
   -5.4850    1.7213    0.0000 C   0  0  0  0  0  0  0  0  0  0  0  0
   -4.3693    2.7239    0.0000 O   0  0  0  0  0  0  0  0  0  0  0  0
   -6.9111    2.1861    0.0000 C   0  0  0  0  0  0  0  0  0  0  0  0
   -7.2216    3.6536    0.0000 O   0  0  0  0  0  0  0  0  0  0  0  0
   -2.0116   -2.1434    0.0000 C   0  0  0  0  0  0  0  0  0  0  0  0
   -1.5494   -3.5704    0.0000 C   0  0  0  0  0  0  0  0  0  0  0  0
   -0.0494   -3.5718    0.0000 C   0  0  0  0  0  0  0  0  0  0  0  0
    0.4155   -2.1456    0.0000 C   0  0  0  0  0  0  0  0  0  0  0  0
    1.7863   -1.5368    0.0000 C   0  0  0  0  0  0  0  0  0  0  0  0
    2.9990   -2.4196    0.0000 C   0  0  0  0  0  0  0  0  0  0  0  0
    4.3699   -1.8107    0.0000 C   0  0  0  0  0  0  0  0  0  0  0  0
    4.5281   -0.3191    0.0000 C   0  0  0  0  0  0  0  0  0  0  0  0
    5.8990    0.2898    0.0000 C   0  0  0  0  0  0  0  0  0  0  0  0
    6.0571    1.7814    0.0000 C   0  0  0  0  0  0  0  0  0  0  0  0
    7.4280    2.3902    0.0000 O   0  0  0  0  0  0  0  0  0  0  0  0
    4.8444    2.6642    0.0000 C   0  0  0  0  0  0  0  0  0  0  0  0
    3.4735    2.0553    0.0000 C   0  0  0  0  0  0  0  0  0  0  0  0
    3.3154    0.5637    0.0000 C   0  0  0  0  0  0  0  0  0  0  0  0
    2.1026    1.4465    0.0000 C   0  0  0  0  0  0  0  0  0  0  0  0
    1.9445   -0.0451    0.0000 C   0  0  0  0  0  0  0  0  0  0  0  0
    0.7318    0.8376    0.0000 C   0  0  0  0  0  0  0  0  0  0  0  0
   -0.6391    0.2288    0.0000 C   0  0  0  0  0  0  0  0  0  0  0  0
   -1.8518    1.1116    0.0000 O   0  0  0  0  0  0  0  0  0  0  0  0
   -0.7973   -1.2628    0.0000 C   0  0  0  0  0  0  0  0  0  0  0  0
   -2.0956   -0.5116    0.0000 C   0  0  0  0  0  0  0  0  0  0  0  0
  2  1  1  6
  2  3  1  0
  3  4  1  0
  4  5  1  0
  5  6  2  0
  5  7  1  0
  7  8  1  0
  2  9  1  0
  9 10  1  6
 10 11  1  0
 12 11  1  6
 12 13  1  0
 13 14  1  1
 14 15  1  0
 16 15  1  1
 16 17  1  0
 17 18  1  0
 18 19  1  1
 18 20  1  0
 20 21  1  0
 21 22  1  0
 22 23  1  6
 22 24  1  0
 24 25  1  6
 25 26  1  0
 26 27  1  1
 26 28  1  0
 28 29  1  6
 28  9  1  0
 28 12  1  0
 24 13  1  0
 22 16  1  0
M  END
>  <MS_ID>  (203) 
MS0213

>  <SMILES>  (203) 
C[C@H](CCC(=O)CO)[C@H]1CC[C@H]2[C@@H]3CC[C@@H]4C[C@H](O)CC[C@]4(C)[C@H]3C[C@H](O)[C@]12C

>  <Structure_dimension>  (203) 
2D

$$$$
MS0214
     RDKit          2D

 39 43  0  0  0  0  0  0  0  0999 V2000
   -0.3163   -5.0293    0.0000 C   0  0  0  0  0  0  0  0  0  0  0  0
    0.2362   -3.6347    0.0000 C   0  0  0  0  0  0  0  0  0  0  0  0
   -0.6952   -2.4590    0.0000 C   0  0  0  0  0  0  0  0  0  0  0  0
   -2.1792   -2.6777    0.0000 C   0  0  0  0  0  0  0  0  0  0  0  0
   -3.1106   -1.5020    0.0000 C   0  0  0  0  0  0  0  0  0  0  0  0
   -2.5581   -0.1074    0.0000 O   0  0  0  0  0  0  0  0  0  0  0  0
   -4.5946   -1.7207    0.0000 O   0  0  0  0  0  0  0  0  0  0  0  0
   -5.5260   -0.5449    0.0000 C   0  0  0  0  0  0  0  0  0  0  0  0
   -4.9735    0.8496    0.0000 O   0  0  0  0  0  0  0  0  0  0  0  0
   -5.9049    2.0254    0.0000 C   0  0  0  0  0  0  0  0  0  0  0  0
   -5.3524    3.4199    0.0000 C   0  0  0  0  0  0  0  0  0  0  0  0
   -6.2838    4.5957    0.0000 O   0  0  0  0  0  0  0  0  0  0  0  0
   -3.8684    3.6386    0.0000 O   0  0  0  0  0  0  0  0  0  0  0  0
   -7.3889    1.8066    0.0000 C   0  0  0  0  0  0  0  0  0  0  0  0
   -8.3203    2.9824    0.0000 O   0  0  0  0  0  0  0  0  0  0  0  0
   -7.9414    0.4121    0.0000 C   0  0  0  0  0  0  0  0  0  0  0  0
   -9.4254    0.1933    0.0000 O   0  0  0  0  0  0  0  0  0  0  0  0
   -7.0100   -0.7637    0.0000 C   0  0  0  0  0  0  0  0  0  0  0  0
   -7.5625   -2.1582    0.0000 O   0  0  0  0  0  0  0  0  0  0  0  0
    1.7202   -3.4160    0.0000 C   0  0  0  0  0  0  0  0  0  0  0  0
    2.7694   -4.4879    0.0000 C   0  0  0  0  0  0  0  0  0  0  0  0
    4.1132   -3.8213    0.0000 C   0  0  0  0  0  0  0  0  0  0  0  0
    3.8944   -2.3373    0.0000 C   0  0  0  0  0  0  0  0  0  0  0  0
    4.8508   -1.1818    0.0000 C   0  0  0  0  0  0  0  0  0  0  0  0
    6.3297   -1.4323    0.0000 C   0  0  0  0  0  0  0  0  0  0  0  0
    7.2862   -0.2768    0.0000 C   0  0  0  0  0  0  0  0  0  0  0  0
    6.7637    1.1293    0.0000 C   0  0  0  0  0  0  0  0  0  0  0  0
    7.7201    2.2848    0.0000 C   0  0  0  0  0  0  0  0  0  0  0  0
    7.1976    3.6908    0.0000 C   0  0  0  0  0  0  0  0  0  0  0  0
    8.1540    4.8464    0.0000 O   0  0  0  0  0  0  0  0  0  0  0  0
    5.7186    3.9414    0.0000 C   0  0  0  0  0  0  0  0  0  0  0  0
    4.7622    2.7858    0.0000 C   0  0  0  0  0  0  0  0  0  0  0  0
    5.2847    1.3798    0.0000 C   0  0  0  0  0  0  0  0  0  0  0  0
    3.8058    1.6303    0.0000 C   0  0  0  0  0  0  0  0  0  0  0  0
    4.3283    0.2242    0.0000 C   0  0  0  0  0  0  0  0  0  0  0  0
    2.8494    0.4748    0.0000 C   0  0  0  0  0  0  0  0  0  0  0  0
    1.8929   -0.6808    0.0000 C   0  0  0  0  0  0  0  0  0  0  0  0
    2.4155   -2.0868    0.0000 C   0  0  0  0  0  0  0  0  0  0  0  0
    0.9184   -1.9923    0.0000 C   0  0  0  0  0  0  0  0  0  0  0  0
  2  1  1  6
  2  3  1  0
  3  4  1  0
  4  5  1  0
  5  6  2  0
  5  7  1  0
  8  7  1  1
  8  9  1  0
  9 10  1  0
 10 11  1  1
 11 12  2  0
 11 13  1  0
 10 14  1  0
 14 15  1  6
 14 16  1  0
 16 17  1  1
 16 18  1  0
 18 19  1  6
  2 20  1  0
 20 21  1  6
 21 22  1  0
 23 22  1  6
 23 24  1  0
 24 25  1  1
 25 26  1  0
 27 26  1  1
 27 28  1  0
 28 29  1  0
 29 30  1  1
 29 31  1  0
 31 32  1  0
 32 33  1  0
 33 34  1  6
 33 35  1  0
 35 36  1  6
 36 37  1  0
 37 38  1  0
 38 39  1  6
 18  8  1  0
 38 20  1  0
 38 23  1  0
 35 24  1  0
 33 27  1  0
M  END
>  <MS_ID>  (204) 
MS0214

>  <SMILES>  (204) 
C[C@H](CCC(=O)O[C@@H]1O[C@H](C(=O)O)[C@@H](O)[C@H](O)[C@H]1O)[C@H]1CC[C@H]2[C@@H]3CC[C@@H]4C[C@H](O)CC[C@]4(C)[C@H]3CC[C@]12C

>  <Structure_dimension>  (204) 
2D

$$$$
MS0215
     RDKit          2D

 33 36  0  0  0  0  0  0  0  0999 V2000
   -3.6067   -3.7883    0.0000 C   0  0  0  0  0  0  0  0  0  0  0  0
   -2.7102   -2.5857    0.0000 C   0  0  0  0  0  0  0  0  0  0  0  0
   -3.3034   -1.2080    0.0000 C   0  0  0  0  0  0  0  0  0  0  0  0
   -4.7932   -1.0329    0.0000 C   0  0  0  0  0  0  0  0  0  0  0  0
   -5.3864    0.3448    0.0000 C   0  0  0  0  0  0  0  0  0  0  0  0
   -6.8761    0.5199    0.0000 O   0  0  0  0  0  0  0  0  0  0  0  0
   -4.4899    1.5474    0.0000 O   0  0  0  0  0  0  0  0  0  0  0  0
   -5.0831    2.9251    0.0000 S   0  0  0  0  0  0  0  0  0  0  0  0
   -6.4608    2.3319    0.0000 O   0  0  0  0  0  0  0  0  0  0  0  0
   -3.7054    3.5183    0.0000 O   0  0  0  0  0  0  0  0  0  0  0  0
   -5.6763    4.3028    0.0000 O   0  0  0  0  0  0  0  0  0  0  0  0
   -1.2204   -2.7608    0.0000 C   0  0  0  0  0  0  0  0  0  0  0  0
   -0.4864   -4.0690    0.0000 C   0  0  0  0  0  0  0  0  0  0  0  0
    0.9845   -3.7752    0.0000 C   0  0  0  0  0  0  0  0  0  0  0  0
    1.1596   -2.2854    0.0000 C   0  0  0  0  0  0  0  0  0  0  0  0
    2.3839   -1.4187    0.0000 C   0  0  0  0  0  0  0  0  0  0  0  0
    3.7466   -2.0456    0.0000 C   0  0  0  0  0  0  0  0  0  0  0  0
    3.8850   -3.5392    0.0000 O   0  0  0  0  0  0  0  0  0  0  0  0
    4.9708   -1.1789    0.0000 C   0  0  0  0  0  0  0  0  0  0  0  0
    4.8324    0.3147    0.0000 C   0  0  0  0  0  0  0  0  0  0  0  0
    6.0566    1.1814    0.0000 C   0  0  0  0  0  0  0  0  0  0  0  0
    5.9182    2.6750    0.0000 C   0  0  0  0  0  0  0  0  0  0  0  0
    7.1424    3.5417    0.0000 O   0  0  0  0  0  0  0  0  0  0  0  0
    4.5555    3.3019    0.0000 C   0  0  0  0  0  0  0  0  0  0  0  0
    3.3312    2.4352    0.0000 C   0  0  0  0  0  0  0  0  0  0  0  0
    3.4697    0.9416    0.0000 C   0  0  0  0  0  0  0  0  0  0  0  0
    2.1069    1.5685    0.0000 C   0  0  0  0  0  0  0  0  0  0  0  0
    2.2454    0.0749    0.0000 C   0  0  0  0  0  0  0  0  0  0  0  0
    0.8827    0.7018    0.0000 C   0  0  0  0  0  0  0  0  0  0  0  0
   -0.3416   -0.1649    0.0000 C   0  0  0  0  0  0  0  0  0  0  0  0
   -1.7043    0.4620    0.0000 O   0  0  0  0  0  0  0  0  0  0  0  0
   -0.2031   -1.6585    0.0000 C   0  0  0  0  0  0  0  0  0  0  0  0
   -1.6239   -1.1775    0.0000 C   0  0  0  0  0  0  0  0  0  0  0  0
  2  1  1  6
  2  3  1  0
  3  4  1  0
  4  5  1  0
  5  6  2  0
  5  7  1  0
  7  8  1  0
  8  9  2  0
  8 10  2  0
  8 11  1  0
  2 12  1  0
 12 13  1  6
 13 14  1  0
 15 14  1  6
 15 16  1  0
 16 17  1  1
 17 18  2  0
 17 19  1  0
 20 19  1  1
 20 21  1  0
 21 22  1  0
 22 23  1  1
 22 24  1  0
 24 25  1  0
 25 26  1  0
 26 27  1  6
 26 28  1  0
 28 29  1  6
 29 30  1  0
 30 31  1  1
 30 32  1  0
 32 33  1  6
 32 12  1  0
 32 15  1  0
 28 16  1  0
 26 20  1  0
M  END
>  <MS_ID>  (205) 
MS0215

>  <SMILES>  (205) 
C[C@H](CCC(=O)OS(=O)(=O)O)[C@H]1CC[C@H]2[C@@H]3C(=O)C[C@@H]4C[C@H](O)CC[C@]4(C)[C@H]3C[C@H](O)[C@]12C

>  <Structure_dimension>  (205) 
2D

$$$$
MS0216
     RDKit          2D

 32 35  0  0  0  0  0  0  0  0999 V2000
   -5.1569   -2.5516    0.0000 C   0  0  0  0  0  0  0  0  0  0  0  0
   -4.1971   -1.3989    0.0000 C   0  0  0  0  0  0  0  0  0  0  0  0
   -4.7155    0.0087    0.0000 C   0  0  0  0  0  0  0  0  0  0  0  0
   -6.1937    0.2635    0.0000 C   0  0  0  0  0  0  0  0  0  0  0  0
   -6.7121    1.6711    0.0000 C   0  0  0  0  0  0  0  0  0  0  0  0
   -5.7523    2.8238    0.0000 O   0  0  0  0  0  0  0  0  0  0  0  0
   -8.1903    1.9259    0.0000 O   0  0  0  0  0  0  0  0  0  0  0  0
   -2.7189   -1.6538    0.0000 C   0  0  0  0  0  0  0  0  0  0  0  0
   -2.0562   -2.9994    0.0000 C   0  0  0  0  0  0  0  0  0  0  0  0
   -0.5716   -2.7850    0.0000 C   0  0  0  0  0  0  0  0  0  0  0  0
   -0.3168   -1.3068    0.0000 C   0  0  0  0  0  0  0  0  0  0  0  0
    0.9523   -0.5071    0.0000 C   0  0  0  0  0  0  0  0  0  0  0  0
    2.2794   -1.2062    0.0000 C   0  0  0  0  0  0  0  0  0  0  0  0
    2.3374   -2.7051    0.0000 O   0  0  0  0  0  0  0  0  0  0  0  0
    3.6645   -3.4043    0.0000 S   0  0  0  0  0  0  0  0  0  0  0  0
    4.3637   -2.0772    0.0000 O   0  0  0  0  0  0  0  0  0  0  0  0
    2.9654   -4.7314    0.0000 O   0  0  0  0  0  0  0  0  0  0  0  0
    4.9916   -4.1034    0.0000 O   0  0  0  0  0  0  0  0  0  0  0  0
    3.5484   -0.4065    0.0000 C   0  0  0  0  0  0  0  0  0  0  0  0
    3.4903    1.0923    0.0000 C   0  0  0  0  0  0  0  0  0  0  0  0
    4.7594    1.8921    0.0000 C   0  0  0  0  0  0  0  0  0  0  0  0
    4.7013    3.3909    0.0000 C   0  0  0  0  0  0  0  0  0  0  0  0
    5.9703    4.1907    0.0000 O   0  0  0  0  0  0  0  0  0  0  0  0
    3.3742    4.0901    0.0000 C   0  0  0  0  0  0  0  0  0  0  0  0
    2.1052    3.2904    0.0000 C   0  0  0  0  0  0  0  0  0  0  0  0
    2.1632    1.7915    0.0000 C   0  0  0  0  0  0  0  0  0  0  0  0
    0.8361    2.4907    0.0000 C   0  0  0  0  0  0  0  0  0  0  0  0
    0.8942    0.9918    0.0000 C   0  0  0  0  0  0  0  0  0  0  0  0
   -0.4329    1.6909    0.0000 C   0  0  0  0  0  0  0  0  0  0  0  0
   -1.7019    0.8912    0.0000 C   0  0  0  0  0  0  0  0  0  0  0  0
   -1.6439   -0.6077    0.0000 C   0  0  0  0  0  0  0  0  0  0  0  0
   -3.0368   -0.0511    0.0000 C   0  0  0  0  0  0  0  0  0  0  0  0
  2  1  1  6
  2  3  1  0
  3  4  1  0
  4  5  1  0
  5  6  2  0
  5  7  1  0
  2  8  1  0
  8  9  1  6
  9 10  1  0
 11 10  1  6
 11 12  1  0
 12 13  1  1
 13 14  1  1
 14 15  1  0
 15 16  2  0
 15 17  2  0
 15 18  1  0
 13 19  1  0
 20 19  1  1
 20 21  1  0
 21 22  1  0
 22 23  2  0
 22 24  1  0
 24 25  1  0
 25 26  1  0
 26 27  1  6
 26 28  1  0
 28 29  1  6
 29 30  1  0
 30 31  1  0
 31 32  1  6
 31  8  1  0
 31 11  1  0
 28 12  1  0
 26 20  1  0
M  END
>  <MS_ID>  (206) 
MS0216

>  <SMILES>  (206) 
C[C@H](CCC(=O)O)[C@H]1CC[C@H]2[C@@H]3[C@H](OS(=O)(=O)O)C[C@@H]4CC(=O)CC[C@]4(C)[C@H]3CC[C@]12C

>  <Structure_dimension>  (206) 
2D

$$$$
MS0217
     RDKit          2D

 34 37  0  0  0  0  0  0  0  0999 V2000
   -1.8984   -4.2506    0.0000 C   0  0  0  0  0  0  0  0  0  0  0  0
   -1.1842   -2.9316    0.0000 C   0  0  0  0  0  0  0  0  0  0  0  0
   -1.9694   -1.6535    0.0000 C   0  0  0  0  0  0  0  0  0  0  0  0
   -3.4688   -1.6945    0.0000 C   0  0  0  0  0  0  0  0  0  0  0  0
   -4.2540   -0.4165    0.0000 C   0  0  0  0  0  0  0  0  0  0  0  0
   -3.5398    0.9026    0.0000 O   0  0  0  0  0  0  0  0  0  0  0  0
   -5.7535   -0.4574    0.0000 C   0  0  0  0  0  0  0  0  0  0  0  0
   -6.5387    0.8206    0.0000 C   0  0  0  0  0  0  0  0  0  0  0  0
   -8.0381    0.7796    0.0000 C   0  0  0  0  0  0  0  0  0  0  0  0
   -8.8234    2.0577    0.0000 C   0  0  0  0  0  0  0  0  0  0  0  0
  -10.3228    2.0167    0.0000 C   0  0  0  0  0  0  0  0  0  0  0  0
  -11.0370    0.6977    0.0000 O   0  0  0  0  0  0  0  0  0  0  0  0
  -11.1080    3.2948    0.0000 O   0  0  0  0  0  0  0  0  0  0  0  0
    0.3153   -2.8906    0.0000 C   0  0  0  0  0  0  0  0  0  0  0  0
    1.2298   -4.0796    0.0000 C   0  0  0  0  0  0  0  0  0  0  0  0
    2.6432   -3.5773    0.0000 C   0  0  0  0  0  0  0  0  0  0  0  0
    2.6022   -2.0778    0.0000 C   0  0  0  0  0  0  0  0  0  0  0  0
    3.6890   -1.0440    0.0000 C   0  0  0  0  0  0  0  0  0  0  0  0
    5.1278   -1.4684    0.0000 C   0  0  0  0  0  0  0  0  0  0  0  0
    5.4796   -2.9266    0.0000 O   0  0  0  0  0  0  0  0  0  0  0  0
    6.2146   -0.4346    0.0000 C   0  0  0  0  0  0  0  0  0  0  0  0
    5.8628    1.0235    0.0000 C   0  0  0  0  0  0  0  0  0  0  0  0
    6.9497    2.0573    0.0000 C   0  0  0  0  0  0  0  0  0  0  0  0
    6.5978    3.5154    0.0000 C   0  0  0  0  0  0  0  0  0  0  0  0
    7.6847    4.5492    0.0000 O   0  0  0  0  0  0  0  0  0  0  0  0
    5.1591    3.9398    0.0000 C   0  0  0  0  0  0  0  0  0  0  0  0
    4.0722    2.9060    0.0000 C   0  0  0  0  0  0  0  0  0  0  0  0
    4.4241    1.4479    0.0000 C   0  0  0  0  0  0  0  0  0  0  0  0
    2.9854    1.8723    0.0000 C   0  0  0  0  0  0  0  0  0  0  0  0
    3.3372    0.4141    0.0000 C   0  0  0  0  0  0  0  0  0  0  0  0
    1.8985    0.8385    0.0000 C   0  0  0  0  0  0  0  0  0  0  0  0
    0.8116   -0.1953    0.0000 C   0  0  0  0  0  0  0  0  0  0  0  0
    1.1635   -1.6534    0.0000 C   0  0  0  0  0  0  0  0  0  0  0  0
   -0.3117   -1.3818    0.0000 C   0  0  0  0  0  0  0  0  0  0  0  0
  2  1  1  6
  2  3  1  0
  3  4  1  0
  4  5  1  0
  5  6  2  0
  5  7  1  0
  7  8  1  0
  8  9  1  0
  9 10  1  0
 10 11  1  0
 11 12  2  0
 11 13  1  0
  2 14  1  0
 14 15  1  6
 15 16  1  0
 17 16  1  6
 17 18  1  0
 18 19  1  1
 19 20  1  6
 19 21  1  0
 22 21  1  1
 22 23  1  0
 23 24  1  0
 24 25  1  1
 24 26  1  0
 26 27  1  0
 27 28  1  0
 28 29  1  6
 28 30  1  0
 30 31  1  6
 31 32  1  0
 32 33  1  0
 33 34  1  6
 33 14  1  0
 33 17  1  0
 30 18  1  0
 28 22  1  0
M  END
>  <MS_ID>  (207) 
MS0217

>  <SMILES>  (207) 
C[C@H](CCC(=O)CCCCC(=O)O)[C@H]1CC[C@H]2[C@@H]3[C@@H](O)C[C@@H]4C[C@H](O)CC[C@]4(C)[C@H]3CC[C@]12C

>  <Structure_dimension>  (207) 
2D

$$$$
MS0218
     RDKit          2D

 30 33  0  0  0  0  0  0  0  0999 V2000
   -5.3676   -2.0337    0.0000 C   0  0  0  0  0  0  0  0  0  0  0  0
   -4.1713   -1.1288    0.0000 C   0  0  0  0  0  0  0  0  0  0  0  0
   -4.3569    0.3597    0.0000 C   0  0  0  0  0  0  0  0  0  0  0  0
   -5.7388    0.9432    0.0000 C   0  0  0  0  0  0  0  0  0  0  0  0
   -5.9244    2.4317    0.0000 C   0  0  0  0  0  0  0  0  0  0  0  0
   -4.7281    3.3367    0.0000 O   0  0  0  0  0  0  0  0  0  0  0  0
   -7.3062    3.0152    0.0000 O   0  0  0  0  0  0  0  0  0  0  0  0
   -2.7894   -1.7123    0.0000 C   0  0  0  0  0  0  0  0  0  0  0  0
   -2.4493   -3.1732    0.0000 C   0  0  0  0  0  0  0  0  0  0  0  0
   -0.9547   -3.3011    0.0000 C   0  0  0  0  0  0  0  0  0  0  0  0
   -0.3712   -1.9192    0.0000 C   0  0  0  0  0  0  0  0  0  0  0  0
    1.0461   -1.4282    0.0000 C   0  0  0  0  0  0  0  0  0  0  0  0
    2.1800   -2.4102    0.0000 C   0  0  0  0  0  0  0  0  0  0  0  0
    1.8966   -3.8832    0.0000 O   0  0  0  0  0  0  0  0  0  0  0  0
    3.5974   -1.9192    0.0000 C   0  0  0  0  0  0  0  0  0  0  0  0
    3.8808   -0.4462    0.0000 C   0  0  0  0  0  0  0  0  0  0  0  0
    5.2982    0.0448    0.0000 C   0  0  0  0  0  0  0  0  0  0  0  0
    5.5816    1.5178    0.0000 C   0  0  0  0  0  0  0  0  0  0  0  0
    6.9990    2.0088    0.0000 C   0  0  0  0  0  0  0  0  0  0  0  0
    8.1329    1.0269    0.0000 O   0  0  0  0  0  0  0  0  0  0  0  0
    4.4477    2.4998    0.0000 C   0  0  0  0  0  0  0  0  0  0  0  0
    3.0304    2.0087    0.0000 C   0  0  0  0  0  0  0  0  0  0  0  0
    2.7469    0.5358    0.0000 C   0  0  0  0  0  0  0  0  0  0  0  0
    1.6130    1.5177    0.0000 C   0  0  0  0  0  0  0  0  0  0  0  0
    1.3296    0.0448    0.0000 C   0  0  0  0  0  0  0  0  0  0  0  0
    0.1957    1.0267    0.0000 C   0  0  0  0  0  0  0  0  0  0  0  0
   -1.2217    0.5357    0.0000 C   0  0  0  0  0  0  0  0  0  0  0  0
   -2.3556    1.5177    0.0000 O   0  0  0  0  0  0  0  0  0  0  0  0
   -1.5052   -0.9373    0.0000 C   0  0  0  0  0  0  0  0  0  0  0  0
   -2.7355   -0.0792    0.0000 C   0  0  0  0  0  0  0  0  0  0  0  0
  2  1  1  6
  2  3  1  0
  3  4  1  0
  4  5  1  0
  5  6  2  0
  5  7  1  0
  2  8  1  0
  8  9  1  6
  9 10  1  0
 11 10  1  6
 11 12  1  0
 12 13  1  1
 13 14  1  6
 13 15  1  0
 16 15  1  1
 16 17  1  0
 17 18  1  0
 18 19  1  1
 19 20  1  0
 18 21  1  0
 21 22  1  0
 22 23  1  0
 23 24  1  6
 23 25  1  0
 25 26  1  6
 26 27  1  0
 27 28  1  1
 27 29  1  0
 29 30  1  6
 29  8  1  0
 29 11  1  0
 25 12  1  0
 23 16  1  0
M  END
>  <MS_ID>  (208) 
MS0218

>  <SMILES>  (208) 
C[C@H](CCC(=O)O)[C@H]1CC[C@H]2[C@@H]3[C@@H](O)C[C@@H]4C[C@H](CO)CC[C@]4(C)[C@H]3C[C@H](O)[C@]12C

>  <Structure_dimension>  (208) 
2D

$$$$
MS0219
     RDKit          2D

 29 32  0  0  0  0  0  0  0  0999 V2000
   -5.0303   -2.1373    0.0000 C   0  0  0  0  0  0  0  0  0  0  0  0
   -3.8594   -1.1998    0.0000 C   0  0  0  0  0  0  0  0  0  0  0  0
   -4.0858    0.2830    0.0000 C   0  0  0  0  0  0  0  0  0  0  0  0
   -5.4831    0.8284    0.0000 C   0  0  0  0  0  0  0  0  0  0  0  0
   -5.7095    2.3112    0.0000 C   0  0  0  0  0  0  0  0  0  0  0  0
   -7.1069    2.8565    0.0000 O   0  0  0  0  0  0  0  0  0  0  0  0
   -4.5386    3.2487    0.0000 S   0  0  0  0  0  0  0  0  0  0  0  0
   -2.4620   -1.7451    0.0000 C   0  0  0  0  0  0  0  0  0  0  0  0
   -2.0818   -3.1961    0.0000 C   0  0  0  0  0  0  0  0  0  0  0  0
   -0.5844   -3.2830    0.0000 C   0  0  0  0  0  0  0  0  0  0  0  0
   -0.0390   -1.8856    0.0000 C   0  0  0  0  0  0  0  0  0  0  0  0
    1.3643   -1.3559    0.0000 C   0  0  0  0  0  0  0  0  0  0  0  0
    2.5248   -2.3063    0.0000 C   0  0  0  0  0  0  0  0  0  0  0  0
    2.2819   -3.7865    0.0000 O   0  0  0  0  0  0  0  0  0  0  0  0
    3.9281   -1.7765    0.0000 C   0  0  0  0  0  0  0  0  0  0  0  0
    4.1710   -0.2963    0.0000 C   0  0  0  0  0  0  0  0  0  0  0  0
    5.5743    0.2334    0.0000 C   0  0  0  0  0  0  0  0  0  0  0  0
    5.8172    1.7136    0.0000 C   0  0  0  0  0  0  0  0  0  0  0  0
    7.2205    2.2434    0.0000 O   0  0  0  0  0  0  0  0  0  0  0  0
    4.6568    2.6641    0.0000 C   0  0  0  0  0  0  0  0  0  0  0  0
    3.2534    2.1343    0.0000 C   0  0  0  0  0  0  0  0  0  0  0  0
    3.0105    0.6541    0.0000 C   0  0  0  0  0  0  0  0  0  0  0  0
    1.8501    1.6046    0.0000 C   0  0  0  0  0  0  0  0  0  0  0  0
    1.6072    0.1244    0.0000 C   0  0  0  0  0  0  0  0  0  0  0  0
    0.4467    1.0748    0.0000 C   0  0  0  0  0  0  0  0  0  0  0  0
   -0.9566    0.5450    0.0000 C   0  0  0  0  0  0  0  0  0  0  0  0
   -2.1170    1.4955    0.0000 O   0  0  0  0  0  0  0  0  0  0  0  0
   -1.1995   -0.9352    0.0000 C   0  0  0  0  0  0  0  0  0  0  0  0
   -2.4529   -0.1112    0.0000 C   0  0  0  0  0  0  0  0  0  0  0  0
  2  1  1  6
  2  3  1  0
  3  4  1  0
  4  5  1  0
  5  6  2  0
  5  7  1  0
  2  8  1  0
  8  9  1  6
  9 10  1  0
 11 10  1  6
 11 12  1  0
 12 13  1  1
 13 14  2  0
 13 15  1  0
 16 15  1  1
 16 17  1  0
 17 18  1  0
 18 19  1  1
 18 20  1  0
 20 21  1  0
 21 22  1  0
 22 23  1  6
 22 24  1  0
 24 25  1  6
 25 26  1  0
 26 27  1  1
 26 28  1  0
 28 29  1  6
 28  8  1  0
 28 11  1  0
 24 12  1  0
 22 16  1  0
M  END
>  <MS_ID>  (209) 
MS0219

>  <SMILES>  (209) 
C[C@H](CCC(=O)S)[C@H]1CC[C@H]2[C@@H]3C(=O)C[C@@H]4C[C@H](O)CC[C@]4(C)[C@H]3C[C@H](O)[C@]12C

>  <Structure_dimension>  (209) 
2D

$$$$
MS0220
     RDKit          2D

 34 37  0  0  0  0  0  0  0  0999 V2000
   -2.7457   -3.8277    0.0000 C   0  0  0  0  0  0  0  0  0  0  0  0
   -1.9007   -2.5883    0.0000 C   0  0  0  0  0  0  0  0  0  0  0  0
   -2.5515   -1.2369    0.0000 C   0  0  0  0  0  0  0  0  0  0  0  0
   -4.0473   -1.1247    0.0000 C   0  0  0  0  0  0  0  0  0  0  0  0
   -4.6981    0.2267    0.0000 C   0  0  0  0  0  0  0  0  0  0  0  0
   -3.8531    1.4661    0.0000 O   0  0  0  0  0  0  0  0  0  0  0  0
   -6.1939    0.3389    0.0000 C   0  0  0  0  0  0  0  0  0  0  0  0
   -6.8447    1.6903    0.0000 O   0  0  0  0  0  0  0  0  0  0  0  0
   -8.3405    1.8025    0.0000 S   0  0  0  0  0  0  0  0  0  0  0  0
   -8.4526    0.3067    0.0000 O   0  0  0  0  0  0  0  0  0  0  0  0
   -8.2283    3.2983    0.0000 O   0  0  0  0  0  0  0  0  0  0  0  0
   -9.8363    1.9146    0.0000 O   0  0  0  0  0  0  0  0  0  0  0  0
   -0.4049   -2.7005    0.0000 C   0  0  0  0  0  0  0  0  0  0  0  0
    0.3836   -3.9765    0.0000 C   0  0  0  0  0  0  0  0  0  0  0  0
    1.8409   -3.6209    0.0000 C   0  0  0  0  0  0  0  0  0  0  0  0
    1.9530   -2.1251    0.0000 C   0  0  0  0  0  0  0  0  0  0  0  0
    3.1396   -1.2076    0.0000 C   0  0  0  0  0  0  0  0  0  0  0  0
    4.5276   -1.7764    0.0000 C   0  0  0  0  0  0  0  0  0  0  0  0
    4.7289   -3.2629    0.0000 O   0  0  0  0  0  0  0  0  0  0  0  0
    5.7142   -0.8589    0.0000 C   0  0  0  0  0  0  0  0  0  0  0  0
    5.5129    0.6276    0.0000 C   0  0  0  0  0  0  0  0  0  0  0  0
    6.6995    1.5451    0.0000 C   0  0  0  0  0  0  0  0  0  0  0  0
    6.4982    3.0315    0.0000 C   0  0  0  0  0  0  0  0  0  0  0  0
    7.6848    3.9491    0.0000 O   0  0  0  0  0  0  0  0  0  0  0  0
    5.1102    3.6004    0.0000 C   0  0  0  0  0  0  0  0  0  0  0  0
    3.9236    2.6829    0.0000 C   0  0  0  0  0  0  0  0  0  0  0  0
    4.1249    1.1964    0.0000 C   0  0  0  0  0  0  0  0  0  0  0  0
    2.7370    1.7653    0.0000 C   0  0  0  0  0  0  0  0  0  0  0  0
    2.9383    0.2789    0.0000 C   0  0  0  0  0  0  0  0  0  0  0  0
    1.5504    0.8477    0.0000 C   0  0  0  0  0  0  0  0  0  0  0  0
    0.3637   -0.0698    0.0000 C   0  0  0  0  0  0  0  0  0  0  0  0
   -1.0242    0.4991    0.0000 O   0  0  0  0  0  0  0  0  0  0  0  0
    0.5650   -1.5562    0.0000 C   0  0  0  0  0  0  0  0  0  0  0  0
   -0.8748   -1.1356    0.0000 C   0  0  0  0  0  0  0  0  0  0  0  0
  2  1  1  6
  2  3  1  0
  3  4  1  0
  4  5  1  0
  5  6  2  0
  5  7  1  0
  7  8  1  0
  8  9  1  0
  9 10  2  0
  9 11  2  0
  9 12  1  0
  2 13  1  0
 13 14  1  6
 14 15  1  0
 16 15  1  6
 16 17  1  0
 17 18  1  1
 18 19  1  1
 18 20  1  0
 21 20  1  1
 21 22  1  0
 22 23  1  0
 23 24  1  1
 23 25  1  0
 25 26  1  0
 26 27  1  0
 27 28  1  6
 27 29  1  0
 29 30  1  6
 30 31  1  0
 31 32  1  1
 31 33  1  0
 33 34  1  6
 33 13  1  0
 33 16  1  0
 29 17  1  0
 27 21  1  0
M  END
>  <MS_ID>  (210) 
MS0220

>  <SMILES>  (210) 
C[C@H](CCC(=O)COS(=O)(=O)O)[C@H]1CC[C@H]2[C@@H]3[C@H](O)C[C@@H]4C[C@H](O)CC[C@]4(C)[C@H]3C[C@H](O)[C@]12C

>  <Structure_dimension>  (210) 
2D

$$$$
MS0222
     RDKit          2D

 29 32  0  0  0  0  0  0  0  0999 V2000
   -7.4050    3.1690    0.0000 C   0  0  0  0  0  0  0  0  0  0  0  0
   -6.9539    1.7384    0.0000 O   0  0  0  0  0  0  0  0  0  0  0  0
   -5.4894    1.4138    0.0000 C   0  0  0  0  0  0  0  0  0  0  0  0
   -4.4761    2.5198    0.0000 O   0  0  0  0  0  0  0  0  0  0  0  0
   -5.0383   -0.0167    0.0000 C   0  0  0  0  0  0  0  0  0  0  0  0
   -3.5738   -0.3413    0.0000 C   0  0  0  0  0  0  0  0  0  0  0  0
   -3.1227   -1.7719    0.0000 C   0  0  0  0  0  0  0  0  0  0  0  0
   -4.1361   -2.8778    0.0000 C   0  0  0  0  0  0  0  0  0  0  0  0
   -1.6583   -2.0965    0.0000 C   0  0  0  0  0  0  0  0  0  0  0  0
   -1.0601   -3.4720    0.0000 C   0  0  0  0  0  0  0  0  0  0  0  0
    0.4330   -3.3282    0.0000 C   0  0  0  0  0  0  0  0  0  0  0  0
    0.7576   -1.8638    0.0000 C   0  0  0  0  0  0  0  0  0  0  0  0
    2.0631   -1.1251    0.0000 C   0  0  0  0  0  0  0  0  0  0  0  0
    3.3556   -1.8863    0.0000 C   0  0  0  0  0  0  0  0  0  0  0  0
    3.3426   -3.3863    0.0000 O   0  0  0  0  0  0  0  0  0  0  0  0
    4.6611   -1.1476    0.0000 C   0  0  0  0  0  0  0  0  0  0  0  0
    4.6741    0.3523    0.0000 C   0  0  0  0  0  0  0  0  0  0  0  0
    5.9796    1.0910    0.0000 C   0  0  0  0  0  0  0  0  0  0  0  0
    5.9926    2.5910    0.0000 C   0  0  0  0  0  0  0  0  0  0  0  0
    4.7002    3.3522    0.0000 C   0  0  0  0  0  0  0  0  0  0  0  0
    3.3947    2.6135    0.0000 C   0  0  0  0  0  0  0  0  0  0  0  0
    3.3816    1.1136    0.0000 C   0  0  0  0  0  0  0  0  0  0  0  0
    2.0891    1.8748    0.0000 C   0  0  0  0  0  0  0  0  0  0  0  0
    2.0761    0.3749    0.0000 C   0  0  0  0  0  0  0  0  0  0  0  0
    0.7836    1.1361    0.0000 C   0  0  0  0  0  0  0  0  0  0  0  0
   -0.5219    0.3974    0.0000 C   0  0  0  0  0  0  0  0  0  0  0  0
   -1.8143    1.1587    0.0000 O   0  0  0  0  0  0  0  0  0  0  0  0
   -0.5349   -1.1025    0.0000 C   0  0  0  0  0  0  0  0  0  0  0  0
   -1.8998   -0.4805    0.0000 C   0  0  0  0  0  0  0  0  0  0  0  0
  1  2  1  0
  2  3  1  0
  3  4  2  0
  3  5  1  0
  5  6  1  0
  6  7  1  0
  7  8  1  6
  7  9  1  0
  9 10  1  6
 10 11  1  0
 12 11  1  6
 12 13  1  0
 13 14  1  1
 14 15  1  1
 14 16  1  0
 17 16  1  1
 17 18  1  0
 18 19  1  0
 19 20  1  0
 20 21  1  0
 21 22  1  0
 22 23  1  6
 22 24  1  0
 24 25  1  6
 25 26  1  0
 26 27  1  1
 26 28  1  0
 28 29  1  6
 28  9  1  0
 28 12  1  0
 24 13  1  0
 22 17  1  0
M  END
>  <MS_ID>  (211) 
MS0222

>  <SMILES>  (211) 
COC(=O)CC[C@@H](C)[C@H]1CC[C@H]2[C@@H]3[C@H](O)C[C@@H]4CCCC[C@]4(C)[C@H]3C[C@H](O)[C@]12C

>  <Structure_dimension>  (211) 
2D

$$$$
MS0223
     RDKit          2D

 31 34  0  0  0  0  0  0  0  0999 V2000
   -7.2344    3.3804    0.0000 C   0  0  0  0  0  0  0  0  0  0  0  0
   -6.8501    1.9305    0.0000 C   0  0  0  0  0  0  0  0  0  0  0  0
   -7.9137    0.8727    0.0000 C   0  0  0  0  0  0  0  0  0  0  0  0
   -5.4023    1.5383    0.0000 C   0  0  0  0  0  0  0  0  0  0  0  0
   -4.3387    2.5960    0.0000 O   0  0  0  0  0  0  0  0  0  0  0  0
   -5.0180    0.0883    0.0000 C   0  0  0  0  0  0  0  0  0  0  0  0
   -3.5702   -0.3038    0.0000 C   0  0  0  0  0  0  0  0  0  0  0  0
   -3.1859   -1.7538    0.0000 C   0  0  0  0  0  0  0  0  0  0  0  0
   -4.2495   -2.8115    0.0000 C   0  0  0  0  0  0  0  0  0  0  0  0
   -1.7381   -2.1460    0.0000 C   0  0  0  0  0  0  0  0  0  0  0  0
   -1.2044   -3.5478    0.0000 C   0  0  0  0  0  0  0  0  0  0  0  0
    0.2938   -3.4734    0.0000 C   0  0  0  0  0  0  0  0  0  0  0  0
    0.6860   -2.0256    0.0000 C   0  0  0  0  0  0  0  0  0  0  0  0
    2.0243   -1.3482    0.0000 C   0  0  0  0  0  0  0  0  0  0  0  0
    3.2801   -2.1686    0.0000 C   0  0  0  0  0  0  0  0  0  0  0  0
    3.1975   -3.6663    0.0000 O   0  0  0  0  0  0  0  0  0  0  0  0
    4.6185   -1.4913    0.0000 C   0  0  0  0  0  0  0  0  0  0  0  0
    4.7010    0.0064    0.0000 C   0  0  0  0  0  0  0  0  0  0  0  0
    6.0394    0.6838    0.0000 C   0  0  0  0  0  0  0  0  0  0  0  0
    6.1220    2.1815    0.0000 C   0  0  0  0  0  0  0  0  0  0  0  0
    7.4604    2.8588    0.0000 O   0  0  0  0  0  0  0  0  0  0  0  0
    4.8662    3.0019    0.0000 C   0  0  0  0  0  0  0  0  0  0  0  0
    3.5279    2.3246    0.0000 C   0  0  0  0  0  0  0  0  0  0  0  0
    3.4453    0.8268    0.0000 C   0  0  0  0  0  0  0  0  0  0  0  0
    2.1895    1.6472    0.0000 C   0  0  0  0  0  0  0  0  0  0  0  0
    2.1069    0.1495    0.0000 C   0  0  0  0  0  0  0  0  0  0  0  0
    0.8511    0.9699    0.0000 C   0  0  0  0  0  0  0  0  0  0  0  0
   -0.4872    0.2925    0.0000 C   0  0  0  0  0  0  0  0  0  0  0  0
   -1.7430    1.1129    0.0000 O   0  0  0  0  0  0  0  0  0  0  0  0
   -0.5698   -1.2052    0.0000 C   0  0  0  0  0  0  0  0  0  0  0  0
   -1.9045   -0.5205    0.0000 C   0  0  0  0  0  0  0  0  0  0  0  0
  1  2  1  0
  2  3  1  0
  2  4  1  0
  4  5  2  0
  4  6  1  0
  6  7  1  0
  7  8  1  0
  8  9  1  6
  8 10  1  0
 10 11  1  6
 11 12  1  0
 13 12  1  6
 13 14  1  0
 14 15  1  1
 15 16  1  1
 15 17  1  0
 18 17  1  1
 18 19  1  0
 19 20  1  0
 20 21  1  1
 20 22  1  0
 22 23  1  0
 23 24  1  0
 24 25  1  6
 24 26  1  0
 26 27  1  6
 27 28  1  0
 28 29  1  1
 28 30  1  0
 30 31  1  6
 30 10  1  0
 30 13  1  0
 26 14  1  0
 24 18  1  0
M  END
>  <MS_ID>  (212) 
MS0223

>  <SMILES>  (212) 
CC(C)C(=O)CC[C@@H](C)[C@H]1CC[C@H]2[C@@H]3[C@H](O)C[C@@H]4C[C@H](O)CC[C@]4(C)[C@H]3C[C@H](O)[C@]12C

>  <Structure_dimension>  (212) 
2D

$$$$
MS0224
     RDKit          2D

 29 32  0  0  0  0  0  0  0  0999 V2000
   -4.6551   -2.6180    0.0000 C   0  0  0  0  0  0  0  0  0  0  0  0
   -3.5633   -1.5894    0.0000 C   0  0  0  0  0  0  0  0  0  0  0  0
   -3.9081   -0.1296    0.0000 C   0  0  0  0  0  0  0  0  0  0  0  0
   -5.3448    0.3016    0.0000 C   0  0  0  0  0  0  0  0  0  0  0  0
   -5.6897    1.7615    0.0000 C   0  0  0  0  0  0  0  0  0  0  0  0
   -4.5979    2.7900    0.0000 O   0  0  0  0  0  0  0  0  0  0  0  0
   -7.1264    2.1927    0.0000 C   0  0  0  0  0  0  0  0  0  0  0  0
   -7.4712    3.6525    0.0000 O   0  0  0  0  0  0  0  0  0  0  0  0
   -2.1266   -2.0207    0.0000 C   0  0  0  0  0  0  0  0  0  0  0  0
   -1.6310   -3.4364    0.0000 C   0  0  0  0  0  0  0  0  0  0  0  0
   -0.1314   -3.4026    0.0000 C   0  0  0  0  0  0  0  0  0  0  0  0
    0.2998   -1.9659    0.0000 C   0  0  0  0  0  0  0  0  0  0  0  0
    1.6561   -1.3251    0.0000 C   0  0  0  0  0  0  0  0  0  0  0  0
    2.8892   -2.1792    0.0000 C   0  0  0  0  0  0  0  0  0  0  0  0
    2.7660   -3.6741    0.0000 O   0  0  0  0  0  0  0  0  0  0  0  0
    4.2454   -1.5383    0.0000 C   0  0  0  0  0  0  0  0  0  0  0  0
    4.3685   -0.0434    0.0000 C   0  0  0  0  0  0  0  0  0  0  0  0
    5.7247    0.5975    0.0000 C   0  0  0  0  0  0  0  0  0  0  0  0
    5.8478    2.0924    0.0000 C   0  0  0  0  0  0  0  0  0  0  0  0
    7.2040    2.7332    0.0000 O   0  0  0  0  0  0  0  0  0  0  0  0
    4.6147    2.9465    0.0000 C   0  0  0  0  0  0  0  0  0  0  0  0
    3.2585    2.3056    0.0000 C   0  0  0  0  0  0  0  0  0  0  0  0
    3.1354    0.8107    0.0000 C   0  0  0  0  0  0  0  0  0  0  0  0
    1.9023    1.6648    0.0000 C   0  0  0  0  0  0  0  0  0  0  0  0
    1.7792    0.1699    0.0000 C   0  0  0  0  0  0  0  0  0  0  0  0
    0.5461    1.0239    0.0000 C   0  0  0  0  0  0  0  0  0  0  0  0
   -0.8101    0.3831    0.0000 C   0  0  0  0  0  0  0  0  0  0  0  0
   -0.9333   -1.1118    0.0000 C   0  0  0  0  0  0  0  0  0  0  0  0
   -2.2489   -0.3913    0.0000 C   0  0  0  0  0  0  0  0  0  0  0  0
  2  1  1  6
  2  3  1  0
  3  4  1  0
  4  5  1  0
  5  6  2  0
  5  7  1  0
  7  8  1  0
  2  9  1  0
  9 10  1  6
 10 11  1  0
 12 11  1  6
 12 13  1  0
 13 14  1  1
 14 15  1  6
 14 16  1  0
 17 16  1  1
 17 18  1  0
 18 19  1  0
 19 20  1  1
 19 21  1  0
 21 22  1  0
 22 23  1  0
 23 24  1  6
 23 25  1  0
 25 26  1  6
 26 27  1  0
 27 28  1  0
 28 29  1  6
 28  9  1  0
 28 12  1  0
 25 13  1  0
 23 17  1  0
M  END
>  <MS_ID>  (213) 
MS0224

>  <SMILES>  (213) 
C[C@H](CCC(=O)CO)[C@H]1CC[C@H]2[C@@H]3[C@@H](O)C[C@@H]4C[C@H](O)CC[C@]4(C)[C@H]3CC[C@]12C

>  <Structure_dimension>  (213) 
2D

$$$$
MS0225
     RDKit          2D

 35 38  0  0  0  0  0  0  0  0999 V2000
   -1.8798   -4.2575    0.0000 C   0  0  0  0  0  0  0  0  0  0  0  0
   -1.1658   -2.9383    0.0000 C   0  0  0  0  0  0  0  0  0  0  0  0
   -1.9512   -1.6604    0.0000 C   0  0  0  0  0  0  0  0  0  0  0  0
   -3.4506   -1.7016    0.0000 C   0  0  0  0  0  0  0  0  0  0  0  0
   -4.2361   -0.4237    0.0000 C   0  0  0  0  0  0  0  0  0  0  0  0
   -3.5221    0.8955    0.0000 O   0  0  0  0  0  0  0  0  0  0  0  0
   -5.7355   -0.4649    0.0000 C   0  0  0  0  0  0  0  0  0  0  0  0
   -6.5209    0.8130    0.0000 C   0  0  0  0  0  0  0  0  0  0  0  0
   -8.0204    0.7717    0.0000 C   0  0  0  0  0  0  0  0  0  0  0  0
   -8.8058    2.0497    0.0000 C   0  0  0  0  0  0  0  0  0  0  0  0
  -10.3052    2.0084    0.0000 C   0  0  0  0  0  0  0  0  0  0  0  0
  -11.0192    0.6893    0.0000 O   0  0  0  0  0  0  0  0  0  0  0  0
  -11.0906    3.2864    0.0000 O   0  0  0  0  0  0  0  0  0  0  0  0
    0.3337   -2.8971    0.0000 C   0  0  0  0  0  0  0  0  0  0  0  0
    1.2484   -4.0859    0.0000 C   0  0  0  0  0  0  0  0  0  0  0  0
    2.6617   -3.5834    0.0000 C   0  0  0  0  0  0  0  0  0  0  0  0
    2.6204   -2.0839    0.0000 C   0  0  0  0  0  0  0  0  0  0  0  0
    3.7071   -1.0500    0.0000 C   0  0  0  0  0  0  0  0  0  0  0  0
    5.1459   -1.4741    0.0000 C   0  0  0  0  0  0  0  0  0  0  0  0
    5.4980   -2.9322    0.0000 O   0  0  0  0  0  0  0  0  0  0  0  0
    6.2326   -0.4401    0.0000 C   0  0  0  0  0  0  0  0  0  0  0  0
    5.8805    1.0180    0.0000 C   0  0  0  0  0  0  0  0  0  0  0  0
    6.9672    2.0519    0.0000 C   0  0  0  0  0  0  0  0  0  0  0  0
    6.6152    3.5100    0.0000 C   0  0  0  0  0  0  0  0  0  0  0  0
    7.7019    4.5440    0.0000 O   0  0  0  0  0  0  0  0  0  0  0  0
    5.1764    3.9341    0.0000 C   0  0  0  0  0  0  0  0  0  0  0  0
    4.0897    2.9002    0.0000 C   0  0  0  0  0  0  0  0  0  0  0  0
    4.4418    1.4421    0.0000 C   0  0  0  0  0  0  0  0  0  0  0  0
    3.0030    1.8662    0.0000 C   0  0  0  0  0  0  0  0  0  0  0  0
    3.3551    0.4081    0.0000 C   0  0  0  0  0  0  0  0  0  0  0  0
    1.9163    0.8323    0.0000 C   0  0  0  0  0  0  0  0  0  0  0  0
    0.8296   -0.2017    0.0000 C   0  0  0  0  0  0  0  0  0  0  0  0
   -0.6092    0.2224    0.0000 O   0  0  0  0  0  0  0  0  0  0  0  0
    1.1816   -1.6598    0.0000 C   0  0  0  0  0  0  0  0  0  0  0  0
   -0.2936   -1.3884    0.0000 C   0  0  0  0  0  0  0  0  0  0  0  0
  2  1  1  6
  2  3  1  0
  3  4  1  0
  4  5  1  0
  5  6  2  0
  5  7  1  0
  7  8  1  0
  8  9  1  0
  9 10  1  0
 10 11  1  0
 11 12  2  0
 11 13  1  0
  2 14  1  0
 14 15  1  6
 15 16  1  0
 17 16  1  6
 17 18  1  0
 18 19  1  1
 19 20  1  1
 19 21  1  0
 22 21  1  1
 22 23  1  0
 23 24  1  0
 24 25  1  1
 24 26  1  0
 26 27  1  0
 27 28  1  0
 28 29  1  6
 28 30  1  0
 30 31  1  6
 31 32  1  0
 32 33  1  1
 32 34  1  0
 34 35  1  6
 34 14  1  0
 34 17  1  0
 30 18  1  0
 28 22  1  0
M  END
>  <MS_ID>  (214) 
MS0225

>  <SMILES>  (214) 
C[C@H](CCC(=O)CCCCC(=O)O)[C@H]1CC[C@H]2[C@@H]3[C@H](O)C[C@@H]4C[C@H](O)CC[C@]4(C)[C@H]3C[C@H](O)[C@]12C

>  <Structure_dimension>  (214) 
2D

$$$$
MS0226
     RDKit          2D

 28 31  0  0  0  0  0  0  0  0999 V2000
   -5.1275   -2.0302    0.0000 C   0  0  0  0  0  0  0  0  0  0  0  0
   -3.9468   -1.1050    0.0000 C   0  0  0  0  0  0  0  0  0  0  0  0
   -4.1576    0.3801    0.0000 C   0  0  0  0  0  0  0  0  0  0  0  0
   -5.5492    0.9401    0.0000 C   0  0  0  0  0  0  0  0  0  0  0  0
   -5.7600    2.4252    0.0000 C   0  0  0  0  0  0  0  0  0  0  0  0
   -7.1516    2.9851    0.0000 O   0  0  0  0  0  0  0  0  0  0  0  0
   -4.5793    3.3503    0.0000 S   0  0  0  0  0  0  0  0  0  0  0  0
   -2.5552   -1.6650    0.0000 C   0  0  0  0  0  0  0  0  0  0  0  0
   -2.1903   -3.1199    0.0000 C   0  0  0  0  0  0  0  0  0  0  0  0
   -0.6938   -3.2225    0.0000 C   0  0  0  0  0  0  0  0  0  0  0  0
   -0.1339   -1.8309    0.0000 C   0  0  0  0  0  0  0  0  0  0  0  0
    1.2750   -1.3159    0.0000 C   0  0  0  0  0  0  0  0  0  0  0  0
    2.4254   -2.2785    0.0000 C   0  0  0  0  0  0  0  0  0  0  0  0
    2.1670   -3.7560    0.0000 O   0  0  0  0  0  0  0  0  0  0  0  0
    3.8342   -1.7635    0.0000 C   0  0  0  0  0  0  0  0  0  0  0  0
    4.0926   -0.2859    0.0000 C   0  0  0  0  0  0  0  0  0  0  0  0
    5.5014    0.2291    0.0000 C   0  0  0  0  0  0  0  0  0  0  0  0
    5.7598    1.7067    0.0000 C   0  0  0  0  0  0  0  0  0  0  0  0
    7.1687    2.2217    0.0000 O   0  0  0  0  0  0  0  0  0  0  0  0
    4.6094    2.6692    0.0000 C   0  0  0  0  0  0  0  0  0  0  0  0
    3.2006    2.1542    0.0000 C   0  0  0  0  0  0  0  0  0  0  0  0
    2.9422    0.6767    0.0000 C   0  0  0  0  0  0  0  0  0  0  0  0
    1.7918    1.6392    0.0000 C   0  0  0  0  0  0  0  0  0  0  0  0
    1.5334    0.1617    0.0000 C   0  0  0  0  0  0  0  0  0  0  0  0
    0.3830    1.1242    0.0000 C   0  0  0  0  0  0  0  0  0  0  0  0
   -1.0259    0.6093    0.0000 C   0  0  0  0  0  0  0  0  0  0  0  0
   -1.2843   -0.8683    0.0000 C   0  0  0  0  0  0  0  0  0  0  0  0
   -2.5290   -0.0313    0.0000 C   0  0  0  0  0  0  0  0  0  0  0  0
  2  1  1  6
  2  3  1  0
  3  4  1  0
  4  5  1  0
  5  6  2  0
  5  7  1  0
  2  8  1  0
  8  9  1  6
  9 10  1  0
 11 10  1  6
 11 12  1  0
 12 13  1  1
 13 14  1  1
 13 15  1  0
 16 15  1  1
 16 17  1  0
 17 18  1  0
 18 19  1  1
 18 20  1  0
 20 21  1  0
 21 22  1  0
 22 23  1  6
 22 24  1  0
 24 25  1  6
 25 26  1  0
 26 27  1  0
 27 28  1  6
 27  8  1  0
 27 11  1  0
 24 12  1  0
 22 16  1  0
M  END
>  <MS_ID>  (215) 
MS0226

>  <SMILES>  (215) 
C[C@H](CCC(=O)S)[C@H]1CC[C@H]2[C@@H]3[C@H](O)C[C@@H]4C[C@H](O)CC[C@]4(C)[C@H]3CC[C@]12C

>  <Structure_dimension>  (215) 
2D

$$$$
MS0227
     RDKit          2D

 31 34  0  0  0  0  0  0  0  0999 V2000
   -4.2495   -2.8115    0.0000 C   0  0  0  0  0  0  0  0  0  0  0  0
   -3.1859   -1.7538    0.0000 C   0  0  0  0  0  0  0  0  0  0  0  0
   -3.5702   -0.3038    0.0000 C   0  0  0  0  0  0  0  0  0  0  0  0
   -5.0180    0.0883    0.0000 C   0  0  0  0  0  0  0  0  0  0  0  0
   -5.4023    1.5383    0.0000 C   0  0  0  0  0  0  0  0  0  0  0  0
   -4.3387    2.5960    0.0000 O   0  0  0  0  0  0  0  0  0  0  0  0
   -6.8501    1.9305    0.0000 N   0  0  0  0  0  0  0  0  0  0  0  0
   -7.2344    3.3804    0.0000 C   0  0  0  0  0  0  0  0  0  0  0  0
   -7.9137    0.8727    0.0000 C   0  0  0  0  0  0  0  0  0  0  0  0
   -1.7381   -2.1460    0.0000 C   0  0  0  0  0  0  0  0  0  0  0  0
   -1.2044   -3.5478    0.0000 C   0  0  0  0  0  0  0  0  0  0  0  0
    0.2938   -3.4734    0.0000 C   0  0  0  0  0  0  0  0  0  0  0  0
    0.6860   -2.0256    0.0000 C   0  0  0  0  0  0  0  0  0  0  0  0
    2.0243   -1.3482    0.0000 C   0  0  0  0  0  0  0  0  0  0  0  0
    3.2801   -2.1686    0.0000 C   0  0  0  0  0  0  0  0  0  0  0  0
    3.1975   -3.6663    0.0000 O   0  0  0  0  0  0  0  0  0  0  0  0
    4.6185   -1.4913    0.0000 C   0  0  0  0  0  0  0  0  0  0  0  0
    4.7010    0.0064    0.0000 C   0  0  0  0  0  0  0  0  0  0  0  0
    6.0394    0.6838    0.0000 C   0  0  0  0  0  0  0  0  0  0  0  0
    6.1220    2.1815    0.0000 C   0  0  0  0  0  0  0  0  0  0  0  0
    7.4604    2.8588    0.0000 O   0  0  0  0  0  0  0  0  0  0  0  0
    4.8662    3.0019    0.0000 C   0  0  0  0  0  0  0  0  0  0  0  0
    3.5279    2.3246    0.0000 C   0  0  0  0  0  0  0  0  0  0  0  0
    3.4453    0.8268    0.0000 C   0  0  0  0  0  0  0  0  0  0  0  0
    2.1895    1.6472    0.0000 C   0  0  0  0  0  0  0  0  0  0  0  0
    2.1069    0.1495    0.0000 C   0  0  0  0  0  0  0  0  0  0  0  0
    0.8511    0.9699    0.0000 C   0  0  0  0  0  0  0  0  0  0  0  0
   -0.4872    0.2925    0.0000 C   0  0  0  0  0  0  0  0  0  0  0  0
   -1.7430    1.1129    0.0000 O   0  0  0  0  0  0  0  0  0  0  0  0
   -0.5698   -1.2052    0.0000 C   0  0  0  0  0  0  0  0  0  0  0  0
   -1.9045   -0.5205    0.0000 C   0  0  0  0  0  0  0  0  0  0  0  0
  2  1  1  6
  2  3  1  0
  3  4  1  0
  4  5  1  0
  5  6  2  0
  5  7  1  0
  7  8  1  0
  7  9  1  0
  2 10  1  0
 10 11  1  6
 11 12  1  0
 13 12  1  6
 13 14  1  0
 14 15  1  1
 15 16  1  6
 15 17  1  0
 18 17  1  1
 18 19  1  0
 19 20  1  0
 20 21  1  1
 20 22  1  0
 22 23  1  0
 23 24  1  0
 24 25  1  6
 24 26  1  0
 26 27  1  6
 27 28  1  0
 28 29  1  1
 28 30  1  0
 30 31  1  6
 30 10  1  0
 30 13  1  0
 26 14  1  0
 24 18  1  0
M  END
>  <MS_ID>  (216) 
MS0227

>  <SMILES>  (216) 
C[C@H](CCC(=O)N(C)C)[C@H]1CC[C@H]2[C@@H]3[C@@H](O)C[C@@H]4C[C@H](O)CC[C@]4(C)[C@H]3C[C@H](O)[C@]12C

>  <Structure_dimension>  (216) 
2D

$$$$
MS0228
     RDKit          2D

 32 35  0  0  0  0  0  0  0  0999 V2000
   -5.1569   -2.5516    0.0000 C   0  0  0  0  0  0  0  0  0  0  0  0
   -4.1971   -1.3989    0.0000 C   0  0  0  0  0  0  0  0  0  0  0  0
   -4.7155    0.0087    0.0000 C   0  0  0  0  0  0  0  0  0  0  0  0
   -6.1937    0.2635    0.0000 C   0  0  0  0  0  0  0  0  0  0  0  0
   -6.7121    1.6711    0.0000 C   0  0  0  0  0  0  0  0  0  0  0  0
   -5.7523    2.8238    0.0000 O   0  0  0  0  0  0  0  0  0  0  0  0
   -8.1903    1.9259    0.0000 O   0  0  0  0  0  0  0  0  0  0  0  0
   -2.7189   -1.6538    0.0000 C   0  0  0  0  0  0  0  0  0  0  0  0
   -2.0562   -2.9994    0.0000 C   0  0  0  0  0  0  0  0  0  0  0  0
   -0.5716   -2.7850    0.0000 C   0  0  0  0  0  0  0  0  0  0  0  0
   -0.3168   -1.3068    0.0000 C   0  0  0  0  0  0  0  0  0  0  0  0
    0.9523   -0.5071    0.0000 C   0  0  0  0  0  0  0  0  0  0  0  0
    2.2794   -1.2062    0.0000 C   0  0  0  0  0  0  0  0  0  0  0  0
    2.3374   -2.7051    0.0000 O   0  0  0  0  0  0  0  0  0  0  0  0
    3.6645   -3.4043    0.0000 S   0  0  0  0  0  0  0  0  0  0  0  0
    4.3637   -2.0772    0.0000 O   0  0  0  0  0  0  0  0  0  0  0  0
    2.9654   -4.7314    0.0000 O   0  0  0  0  0  0  0  0  0  0  0  0
    4.9916   -4.1034    0.0000 O   0  0  0  0  0  0  0  0  0  0  0  0
    3.5484   -0.4065    0.0000 C   0  0  0  0  0  0  0  0  0  0  0  0
    3.4903    1.0923    0.0000 C   0  0  0  0  0  0  0  0  0  0  0  0
    4.7594    1.8921    0.0000 C   0  0  0  0  0  0  0  0  0  0  0  0
    4.7013    3.3909    0.0000 C   0  0  0  0  0  0  0  0  0  0  0  0
    5.9703    4.1907    0.0000 O   0  0  0  0  0  0  0  0  0  0  0  0
    3.3742    4.0901    0.0000 C   0  0  0  0  0  0  0  0  0  0  0  0
    2.1052    3.2904    0.0000 C   0  0  0  0  0  0  0  0  0  0  0  0
    2.1632    1.7915    0.0000 C   0  0  0  0  0  0  0  0  0  0  0  0
    0.8361    2.4907    0.0000 C   0  0  0  0  0  0  0  0  0  0  0  0
    0.8942    0.9918    0.0000 C   0  0  0  0  0  0  0  0  0  0  0  0
   -0.4329    1.6909    0.0000 C   0  0  0  0  0  0  0  0  0  0  0  0
   -1.7019    0.8912    0.0000 C   0  0  0  0  0  0  0  0  0  0  0  0
   -1.6439   -0.6077    0.0000 C   0  0  0  0  0  0  0  0  0  0  0  0
   -3.0368   -0.0511    0.0000 C   0  0  0  0  0  0  0  0  0  0  0  0
  2  1  1  6
  2  3  1  0
  3  4  1  0
  4  5  1  0
  5  6  2  0
  5  7  1  0
  2  8  1  0
  8  9  1  6
  9 10  1  0
 11 10  1  6
 11 12  1  0
 12 13  1  1
 13 14  1  6
 14 15  1  0
 15 16  2  0
 15 17  2  0
 15 18  1  0
 13 19  1  0
 20 19  1  1
 20 21  1  0
 21 22  1  0
 22 23  1  1
 22 24  1  0
 24 25  1  0
 25 26  1  0
 26 27  1  6
 26 28  1  0
 28 29  1  6
 29 30  1  0
 30 31  1  0
 31 32  1  6
 31  8  1  0
 31 11  1  0
 28 12  1  0
 26 20  1  0
M  END
>  <MS_ID>  (217) 
MS0228

>  <SMILES>  (217) 
C[C@H](CCC(=O)O)[C@H]1CC[C@H]2[C@@H]3[C@@H](OS(=O)(=O)O)C[C@@H]4C[C@H](O)CC[C@]4(C)[C@H]3CC[C@]12C

>  <Structure_dimension>  (217) 
2D

$$$$
MS0229
     RDKit          2D

 41 45  0  0  0  0  0  0  0  0999 V2000
   -9.9260    3.9273    0.0000 C   0  0  0  0  0  0  0  0  0  0  0  0
   -9.6516    2.4526    0.0000 O   0  0  0  0  0  0  0  0  0  0  0  0
   -8.2373    1.9529    0.0000 C   0  0  0  0  0  0  0  0  0  0  0  0
   -7.0973    2.9279    0.0000 O   0  0  0  0  0  0  0  0  0  0  0  0
   -7.9629    0.4782    0.0000 C   0  0  0  0  0  0  0  0  0  0  0  0
   -6.5486   -0.0215    0.0000 C   0  0  0  0  0  0  0  0  0  0  0  0
   -6.2742   -1.4962    0.0000 C   0  0  0  0  0  0  0  0  0  0  0  0
   -7.4141   -2.4712    0.0000 C   0  0  0  0  0  0  0  0  0  0  0  0
   -4.8598   -1.9959    0.0000 C   0  0  0  0  0  0  0  0  0  0  0  0
   -4.4328   -3.4338    0.0000 C   0  0  0  0  0  0  0  0  0  0  0  0
   -2.9333   -3.4720    0.0000 C   0  0  0  0  0  0  0  0  0  0  0  0
   -2.4336   -2.0577    0.0000 C   0  0  0  0  0  0  0  0  0  0  0  0
   -1.0482   -1.4827    0.0000 C   0  0  0  0  0  0  0  0  0  0  0  0
    0.1425   -2.3950    0.0000 C   0  0  0  0  0  0  0  0  0  0  0  0
   -0.0522   -3.8823    0.0000 O   0  0  0  0  0  0  0  0  0  0  0  0
    1.5279   -1.8200    0.0000 C   0  0  0  0  0  0  0  0  0  0  0  0
    1.7227   -0.3327    0.0000 C   0  0  0  0  0  0  0  0  0  0  0  0
    3.1081    0.2423    0.0000 C   0  0  0  0  0  0  0  0  0  0  0  0
    3.3028    1.7296    0.0000 C   0  0  0  0  0  0  0  0  0  0  0  0
    4.6882    2.3046    0.0000 O   0  0  0  0  0  0  0  0  0  0  0  0
    5.8789    1.3923    0.0000 C   0  0  0  0  0  0  0  0  0  0  0  0
    5.6842   -0.0950    0.0000 O   0  0  0  0  0  0  0  0  0  0  0  0
    6.8748   -1.0073    0.0000 C   0  0  0  0  0  0  0  0  0  0  0  0
    6.6801   -2.4946    0.0000 C   0  0  0  0  0  0  0  0  0  0  0  0
    5.2947   -3.0696    0.0000 O   0  0  0  0  0  0  0  0  0  0  0  0
    8.2603   -0.4323    0.0000 C   0  0  0  0  0  0  0  0  0  0  0  0
    9.4509   -1.3446    0.0000 O   0  0  0  0  0  0  0  0  0  0  0  0
    8.4550    1.0550    0.0000 C   0  0  0  0  0  0  0  0  0  0  0  0
    9.8404    1.6300    0.0000 O   0  0  0  0  0  0  0  0  0  0  0  0
    7.2643    1.9673    0.0000 C   0  0  0  0  0  0  0  0  0  0  0  0
    7.4591    3.4546    0.0000 O   0  0  0  0  0  0  0  0  0  0  0  0
    2.1121    2.6419    0.0000 C   0  0  0  0  0  0  0  0  0  0  0  0
    0.7267    2.0669    0.0000 C   0  0  0  0  0  0  0  0  0  0  0  0
    0.5320    0.5796    0.0000 C   0  0  0  0  0  0  0  0  0  0  0  0
   -0.6587    1.4919    0.0000 C   0  0  0  0  0  0  0  0  0  0  0  0
   -0.8534    0.0046    0.0000 C   0  0  0  0  0  0  0  0  0  0  0  0
   -2.0441    0.9169    0.0000 C   0  0  0  0  0  0  0  0  0  0  0  0
   -3.4295    0.3419    0.0000 C   0  0  0  0  0  0  0  0  0  0  0  0
   -4.6202    1.2542    0.0000 O   0  0  0  0  0  0  0  0  0  0  0  0
   -3.6243   -1.1454    0.0000 C   0  0  0  0  0  0  0  0  0  0  0  0
   -4.9038   -0.3626    0.0000 C   0  0  0  0  0  0  0  0  0  0  0  0
  1  2  1  0
  2  3  1  0
  3  4  2  0
  3  5  1  0
  5  6  1  0
  6  7  1  0
  7  8  1  6
  7  9  1  0
  9 10  1  6
 10 11  1  0
 12 11  1  6
 12 13  1  0
 13 14  1  1
 14 15  1  1
 14 16  1  0
 17 16  1  1
 17 18  1  0
 18 19  1  0
 19 20  1  1
 21 20  1  1
 21 22  1  0
 22 23  1  0
 23 24  1  1
 24 25  1  0
 23 26  1  0
 26 27  1  6
 26 28  1  0
 28 29  1  1
 28 30  1  0
 30 31  1  6
 19 32  1  0
 32 33  1  0
 33 34  1  0
 34 35  1  6
 34 36  1  0
 36 37  1  6
 37 38  1  0
 38 39  1  1
 38 40  1  0
 40 41  1  6
 40  9  1  0
 40 12  1  0
 36 13  1  0
 34 17  1  0
 30 21  1  0
M  END
>  <MS_ID>  (218) 
MS0229

>  <SMILES>  (218) 
COC(=O)CC[C@@H](C)[C@H]1CC[C@H]2[C@@H]3[C@H](O)C[C@@H]4C[C@H](O[C@@H]5O[C@H](CO)[C@@H](O)[C@H](O)[C@H]5O)CC[C@]4(C)[C@H]3C[C@H](O)[C@]12C

>  <Structure_dimension>  (218) 
2D

$$$$
MS0230
     RDKit          2D

 35 38  0  0  0  0  0  0  0  0999 V2000
   -1.8798   -4.2575    0.0000 C   0  0  0  0  0  0  0  0  0  0  0  0
   -1.1658   -2.9383    0.0000 C   0  0  0  0  0  0  0  0  0  0  0  0
   -1.9512   -1.6604    0.0000 C   0  0  0  0  0  0  0  0  0  0  0  0
   -3.4506   -1.7016    0.0000 C   0  0  0  0  0  0  0  0  0  0  0  0
   -4.2361   -0.4237    0.0000 C   0  0  0  0  0  0  0  0  0  0  0  0
   -3.5221    0.8955    0.0000 O   0  0  0  0  0  0  0  0  0  0  0  0
   -5.7355   -0.4649    0.0000 N   0  0  0  0  0  0  0  0  0  0  0  0
   -6.5209    0.8130    0.0000 C   0  0  0  0  0  0  0  0  0  0  0  0
   -8.0204    0.7717    0.0000 C   0  0  0  0  0  0  0  0  0  0  0  0
   -8.8058    2.0497    0.0000 C   0  0  0  0  0  0  0  0  0  0  0  0
  -10.3052    2.0084    0.0000 C   0  0  0  0  0  0  0  0  0  0  0  0
  -11.0192    0.6893    0.0000 O   0  0  0  0  0  0  0  0  0  0  0  0
  -11.0906    3.2864    0.0000 O   0  0  0  0  0  0  0  0  0  0  0  0
    0.3337   -2.8971    0.0000 C   0  0  0  0  0  0  0  0  0  0  0  0
    1.2484   -4.0859    0.0000 C   0  0  0  0  0  0  0  0  0  0  0  0
    2.6617   -3.5834    0.0000 C   0  0  0  0  0  0  0  0  0  0  0  0
    2.6204   -2.0839    0.0000 C   0  0  0  0  0  0  0  0  0  0  0  0
    3.7071   -1.0500    0.0000 C   0  0  0  0  0  0  0  0  0  0  0  0
    5.1459   -1.4741    0.0000 C   0  0  0  0  0  0  0  0  0  0  0  0
    5.4980   -2.9322    0.0000 O   0  0  0  0  0  0  0  0  0  0  0  0
    6.2326   -0.4401    0.0000 C   0  0  0  0  0  0  0  0  0  0  0  0
    5.8805    1.0180    0.0000 C   0  0  0  0  0  0  0  0  0  0  0  0
    6.9672    2.0519    0.0000 C   0  0  0  0  0  0  0  0  0  0  0  0
    6.6152    3.5100    0.0000 C   0  0  0  0  0  0  0  0  0  0  0  0
    7.7019    4.5440    0.0000 O   0  0  0  0  0  0  0  0  0  0  0  0
    5.1764    3.9341    0.0000 C   0  0  0  0  0  0  0  0  0  0  0  0
    4.0897    2.9002    0.0000 C   0  0  0  0  0  0  0  0  0  0  0  0
    4.4418    1.4421    0.0000 C   0  0  0  0  0  0  0  0  0  0  0  0
    3.0030    1.8662    0.0000 C   0  0  0  0  0  0  0  0  0  0  0  0
    3.3551    0.4081    0.0000 C   0  0  0  0  0  0  0  0  0  0  0  0
    1.9163    0.8323    0.0000 C   0  0  0  0  0  0  0  0  0  0  0  0
    0.8296   -0.2017    0.0000 C   0  0  0  0  0  0  0  0  0  0  0  0
   -0.6092    0.2224    0.0000 O   0  0  0  0  0  0  0  0  0  0  0  0
    1.1816   -1.6598    0.0000 C   0  0  0  0  0  0  0  0  0  0  0  0
   -0.2936   -1.3884    0.0000 C   0  0  0  0  0  0  0  0  0  0  0  0
  2  1  1  6
  2  3  1  0
  3  4  1  0
  4  5  1  0
  5  6  2  0
  5  7  1  0
  7  8  1  0
  8  9  1  0
  9 10  1  0
 10 11  1  0
 11 12  2  0
 11 13  1  0
  2 14  1  0
 14 15  1  6
 15 16  1  0
 17 16  1  6
 17 18  1  0
 18 19  1  1
 19 20  1  1
 19 21  1  0
 22 21  1  1
 22 23  1  0
 23 24  1  0
 24 25  1  1
 24 26  1  0
 26 27  1  0
 27 28  1  0
 28 29  1  6
 28 30  1  0
 30 31  1  6
 31 32  1  0
 32 33  1  1
 32 34  1  0
 34 35  1  6
 34 14  1  0
 34 17  1  0
 30 18  1  0
 28 22  1  0
M  END
>  <MS_ID>  (219) 
MS0230

>  <SMILES>  (219) 
C[C@H](CCC(=O)NCCCC(=O)O)[C@H]1CC[C@H]2[C@@H]3[C@H](O)C[C@@H]4C[C@H](O)CC[C@]4(C)[C@H]3C[C@H](O)[C@]12C

>  <Structure_dimension>  (219) 
2D

$$$$
MS0231
     RDKit          2D

 28 31  0  0  0  0  0  0  0  0999 V2000
   -4.6340   -2.3524    0.0000 C   0  0  0  0  0  0  0  0  0  0  0  0
   -3.5242   -1.3434    0.0000 C   0  0  0  0  0  0  0  0  0  0  0  0
   -3.8431    0.1223    0.0000 C   0  0  0  0  0  0  0  0  0  0  0  0
   -5.2720    0.5789    0.0000 C   0  0  0  0  0  0  0  0  0  0  0  0
   -5.5909    2.0446    0.0000 C   0  0  0  0  0  0  0  0  0  0  0  0
   -7.0197    2.5012    0.0000 O   0  0  0  0  0  0  0  0  0  0  0  0
   -4.4811    3.0537    0.0000 S   0  0  0  0  0  0  0  0  0  0  0  0
   -2.0954   -1.8000    0.0000 C   0  0  0  0  0  0  0  0  0  0  0  0
   -1.6249   -3.2243    0.0000 C   0  0  0  0  0  0  0  0  0  0  0  0
   -0.1249   -3.2170    0.0000 C   0  0  0  0  0  0  0  0  0  0  0  0
    0.3317   -1.7882    0.0000 C   0  0  0  0  0  0  0  0  0  0  0  0
    1.6990   -1.1715    0.0000 C   0  0  0  0  0  0  0  0  0  0  0  0
    2.9168   -2.0473    0.0000 C   0  0  0  0  0  0  0  0  0  0  0  0
    2.7672   -3.5398    0.0000 O   0  0  0  0  0  0  0  0  0  0  0  0
    4.2841   -1.4305    0.0000 C   0  0  0  0  0  0  0  0  0  0  0  0
    4.4337    0.0620    0.0000 C   0  0  0  0  0  0  0  0  0  0  0  0
    5.8011    0.6787    0.0000 C   0  0  0  0  0  0  0  0  0  0  0  0
    5.9506    2.1713    0.0000 C   0  0  0  0  0  0  0  0  0  0  0  0
    4.7328    3.0471    0.0000 C   0  0  0  0  0  0  0  0  0  0  0  0
    3.3655    2.4303    0.0000 C   0  0  0  0  0  0  0  0  0  0  0  0
    3.2159    0.9378    0.0000 C   0  0  0  0  0  0  0  0  0  0  0  0
    1.9981    1.8136    0.0000 C   0  0  0  0  0  0  0  0  0  0  0  0
    1.8486    0.3211    0.0000 C   0  0  0  0  0  0  0  0  0  0  0  0
    0.6308    1.1968    0.0000 C   0  0  0  0  0  0  0  0  0  0  0  0
   -0.7366    0.5801    0.0000 C   0  0  0  0  0  0  0  0  0  0  0  0
   -1.9543    1.4559    0.0000 O   0  0  0  0  0  0  0  0  0  0  0  0
   -0.8861   -0.9124    0.0000 C   0  0  0  0  0  0  0  0  0  0  0  0
   -2.1888   -0.1687    0.0000 C   0  0  0  0  0  0  0  0  0  0  0  0
  2  1  1  6
  2  3  1  0
  3  4  1  0
  4  5  1  0
  5  6  2  0
  5  7  1  0
  2  8  1  0
  8  9  1  6
  9 10  1  0
 11 10  1  6
 11 12  1  0
 12 13  1  1
 13 14  1  1
 13 15  1  0
 16 15  1  1
 16 17  1  0
 17 18  1  0
 18 19  1  0
 19 20  1  0
 20 21  1  0
 21 22  1  6
 21 23  1  0
 23 24  1  6
 24 25  1  0
 25 26  1  6
 25 27  1  0
 27 28  1  6
 27  8  1  0
 27 11  1  0
 23 12  1  0
 21 16  1  0
M  END
>  <MS_ID>  (220) 
MS0231

>  <SMILES>  (220) 
C[C@H](CCC(=O)S)[C@H]1CC[C@H]2[C@@H]3[C@H](O)C[C@@H]4CCCC[C@]4(C)[C@H]3C[C@@H](O)[C@]12C

>  <Structure_dimension>  (220) 
2D

$$$$
MS0232
     RDKit          2D

 40 44  0  0  0  0  0  0  0  0999 V2000
   -0.5969   -4.8504    0.0000 C   0  0  0  0  0  0  0  0  0  0  0  0
   -0.0719   -3.4453    0.0000 C   0  0  0  0  0  0  0  0  0  0  0  0
   -1.0263   -2.2881    0.0000 C   0  0  0  0  0  0  0  0  0  0  0  0
   -2.5057   -2.5359    0.0000 C   0  0  0  0  0  0  0  0  0  0  0  0
   -3.4600   -1.3787    0.0000 C   0  0  0  0  0  0  0  0  0  0  0  0
   -2.9350    0.0264    0.0000 O   0  0  0  0  0  0  0  0  0  0  0  0
   -4.9394   -1.6266    0.0000 N   0  0  0  0  0  0  0  0  0  0  0  0
   -5.8938   -0.4694    0.0000 C   0  0  0  0  0  0  0  0  0  0  0  0
   -7.3731   -0.7172    0.0000 C   0  0  0  0  0  0  0  0  0  0  0  0
   -8.3275    0.4400    0.0000 C   0  0  0  0  0  0  0  0  0  0  0  0
   -7.8025    1.8451    0.0000 C   0  0  0  0  0  0  0  0  0  0  0  0
   -8.7568    3.0023    0.0000 C   0  0  0  0  0  0  0  0  0  0  0  0
  -10.2362    2.7545    0.0000 C   0  0  0  0  0  0  0  0  0  0  0  0
  -10.7612    1.3493    0.0000 C   0  0  0  0  0  0  0  0  0  0  0  0
   -9.8069    0.1921    0.0000 C   0  0  0  0  0  0  0  0  0  0  0  0
   -5.3687    0.9358    0.0000 C   0  0  0  0  0  0  0  0  0  0  0  0
   -3.8894    1.1836    0.0000 O   0  0  0  0  0  0  0  0  0  0  0  0
   -6.3231    2.0930    0.0000 O   0  0  0  0  0  0  0  0  0  0  0  0
    1.4075   -3.1974    0.0000 C   0  0  0  0  0  0  0  0  0  0  0  0
    2.4776   -4.2485    0.0000 C   0  0  0  0  0  0  0  0  0  0  0  0
    3.8079   -3.5556    0.0000 C   0  0  0  0  0  0  0  0  0  0  0  0
    3.5600   -2.0763    0.0000 C   0  0  0  0  0  0  0  0  0  0  0  0
    4.4936   -0.9021    0.0000 C   0  0  0  0  0  0  0  0  0  0  0  0
    5.9771   -1.1235    0.0000 C   0  0  0  0  0  0  0  0  0  0  0  0
    6.5272   -2.5191    0.0000 O   0  0  0  0  0  0  0  0  0  0  0  0
    6.9107    0.0506    0.0000 C   0  0  0  0  0  0  0  0  0  0  0  0
    8.3942   -0.1708    0.0000 O   0  0  0  0  0  0  0  0  0  0  0  0
    6.3606    1.4461    0.0000 C   0  0  0  0  0  0  0  0  0  0  0  0
    7.2941    2.6202    0.0000 C   0  0  0  0  0  0  0  0  0  0  0  0
    6.7441    4.0157    0.0000 C   0  0  0  0  0  0  0  0  0  0  0  0
    7.6776    5.1898    0.0000 O   0  0  0  0  0  0  0  0  0  0  0  0
    5.2605    4.2371    0.0000 C   0  0  0  0  0  0  0  0  0  0  0  0
    4.3270    3.0630    0.0000 C   0  0  0  0  0  0  0  0  0  0  0  0
    4.8770    1.6675    0.0000 C   0  0  0  0  0  0  0  0  0  0  0  0
    3.3935    1.8889    0.0000 C   0  0  0  0  0  0  0  0  0  0  0  0
    3.9435    0.4934    0.0000 C   0  0  0  0  0  0  0  0  0  0  0  0
    2.4599    0.7148    0.0000 C   0  0  0  0  0  0  0  0  0  0  0  0
    1.5264   -0.4594    0.0000 C   0  0  0  0  0  0  0  0  0  0  0  0
    2.0765   -1.8549    0.0000 C   0  0  0  0  0  0  0  0  0  0  0  0
    0.5779   -1.7897    0.0000 C   0  0  0  0  0  0  0  0  0  0  0  0
  2  1  1  6
  2  3  1  0
  3  4  1  0
  4  5  1  0
  5  6  2  0
  5  7  1  0
  7  8  1  0
  8  9  1  6
  9 10  1  0
 10 11  2  0
 11 12  1  0
 12 13  2  0
 13 14  1  0
 14 15  2  0
  8 16  1  0
 16 17  2  0
 16 18  1  0
  2 19  1  0
 19 20  1  6
 20 21  1  0
 22 21  1  6
 22 23  1  0
 23 24  1  1
 24 25  1  1
 24 26  1  0
 26 27  1  1
 26 28  1  0
 28 29  1  1
 29 30  1  0
 30 31  1  1
 30 32  1  0
 32 33  1  0
 33 34  1  0
 34 35  1  6
 34 36  1  0
 36 37  1  6
 37 38  1  0
 38 39  1  0
 39 40  1  6
 15 10  1  0
 39 19  1  0
 39 22  1  0
 36 23  1  0
 34 28  1  0
M  END
>  <MS_ID>  (221) 
MS0232

>  <SMILES>  (221) 
C[C@H](CCC(=O)N[C@H](Cc1ccccc1)C(=O)O)[C@H]1CC[C@H]2[C@@H]3[C@H](O)[C@H](O)[C@@H]4C[C@H](O)CC[C@]4(C)[C@H]3CC[C@]12C

>  <Structure_dimension>  (221) 
2D

$$$$
MS0233
     RDKit          2D

 31 34  0  0  0  0  0  0  0  0999 V2000
   -5.7175   -1.8176    0.0000 C   0  0  0  0  0  0  0  0  0  0  0  0
   -4.4708   -0.9835    0.0000 C   0  0  0  0  0  0  0  0  0  0  0  0
   -4.5698    0.5132    0.0000 C   0  0  0  0  0  0  0  0  0  0  0  0
   -5.9155    1.1758    0.0000 C   0  0  0  0  0  0  0  0  0  0  0  0
   -6.0145    2.6726    0.0000 C   0  0  0  0  0  0  0  0  0  0  0  0
   -4.7678    3.5067    0.0000 O   0  0  0  0  0  0  0  0  0  0  0  0
   -7.3602    3.3352    0.0000 O   0  0  0  0  0  0  0  0  0  0  0  0
   -3.1251   -1.6462    0.0000 C   0  0  0  0  0  0  0  0  0  0  0  0
   -2.8701   -3.1243    0.0000 C   0  0  0  0  0  0  0  0  0  0  0  0
   -1.3855   -3.3387    0.0000 C   0  0  0  0  0  0  0  0  0  0  0  0
   -0.7229   -1.9930    0.0000 C   0  0  0  0  0  0  0  0  0  0  0  0
    0.7205   -1.5850    0.0000 C   0  0  0  0  0  0  0  0  0  0  0  0
    1.7956   -2.6310    0.0000 C   0  0  0  0  0  0  0  0  0  0  0  0
    1.4272   -4.0851    0.0000 O   0  0  0  0  0  0  0  0  0  0  0  0
    3.2390   -2.2230    0.0000 C   0  0  0  0  0  0  0  0  0  0  0  0
    3.6074   -0.7689    0.0000 C   0  0  0  0  0  0  0  0  0  0  0  0
    5.0508   -0.3609    0.0000 C   0  0  0  0  0  0  0  0  0  0  0  0
    5.4192    1.0932    0.0000 C   0  0  0  0  0  0  0  0  0  0  0  0
    6.8626    1.5012    0.0000 C   0  0  0  0  0  0  0  0  0  0  0  0
    7.2310    2.9552    0.0000 O   0  0  0  0  0  0  0  0  0  0  0  0
    7.9377    0.4551    0.0000 O   0  0  0  0  0  0  0  0  0  0  0  0
    4.3441    2.1392    0.0000 C   0  0  0  0  0  0  0  0  0  0  0  0
    2.9007    1.7312    0.0000 C   0  0  0  0  0  0  0  0  0  0  0  0
    2.5323    0.2771    0.0000 C   0  0  0  0  0  0  0  0  0  0  0  0
    1.4572    1.3232    0.0000 C   0  0  0  0  0  0  0  0  0  0  0  0
    1.0889   -0.1309    0.0000 C   0  0  0  0  0  0  0  0  0  0  0  0
    0.0138    0.9151    0.0000 C   0  0  0  0  0  0  0  0  0  0  0  0
   -1.4296    0.5071    0.0000 C   0  0  0  0  0  0  0  0  0  0  0  0
   -2.5047    1.5532    0.0000 O   0  0  0  0  0  0  0  0  0  0  0  0
   -1.7980   -0.9470    0.0000 C   0  0  0  0  0  0  0  0  0  0  0  0
   -2.9765   -0.0190    0.0000 C   0  0  0  0  0  0  0  0  0  0  0  0
  2  1  1  6
  2  3  1  0
  3  4  1  0
  4  5  1  0
  5  6  2  0
  5  7  1  0
  2  8  1  0
  8  9  1  6
  9 10  1  0
 11 10  1  6
 11 12  1  0
 12 13  1  1
 13 14  1  6
 13 15  1  0
 16 15  1  1
 16 17  1  0
 17 18  1  0
 18 19  1  1
 19 20  2  0
 19 21  1  0
 18 22  1  0
 22 23  1  0
 23 24  1  0
 24 25  1  6
 24 26  1  0
 26 27  1  6
 27 28  1  0
 28 29  1  6
 28 30  1  0
 30 31  1  6
 30  8  1  0
 30 11  1  0
 26 12  1  0
 24 16  1  0
M  END
>  <MS_ID>  (222) 
MS0233

>  <SMILES>  (222) 
C[C@H](CCC(=O)O)[C@H]1CC[C@H]2[C@@H]3[C@@H](O)C[C@@H]4C[C@H](C(=O)O)CC[C@]4(C)[C@H]3C[C@@H](O)[C@]12C

>  <Structure_dimension>  (222) 
2D

$$$$
MS0234
     RDKit          2D

 30 33  0  0  0  0  0  0  0  0999 V2000
   -4.3209   -2.7536    0.0000 C   0  0  0  0  0  0  0  0  0  0  0  0
   -3.2523   -1.7010    0.0000 C   0  0  0  0  0  0  0  0  0  0  0  0
   -3.6295   -0.2492    0.0000 C   0  0  0  0  0  0  0  0  0  0  0  0
   -5.0755    0.1499    0.0000 C   0  0  0  0  0  0  0  0  0  0  0  0
   -5.4527    1.6017    0.0000 C   0  0  0  0  0  0  0  0  0  0  0  0
   -4.3841    2.6543    0.0000 O   0  0  0  0  0  0  0  0  0  0  0  0
   -6.8987    2.0009    0.0000 N   0  0  0  0  0  0  0  0  0  0  0  0
   -7.2759    3.4526    0.0000 C   0  0  0  0  0  0  0  0  0  0  0  0
   -7.9673    0.9482    0.0000 C   0  0  0  0  0  0  0  0  0  0  0  0
   -1.8064   -2.1002    0.0000 C   0  0  0  0  0  0  0  0  0  0  0  0
   -1.2794   -3.5046    0.0000 C   0  0  0  0  0  0  0  0  0  0  0  0
    0.2191   -3.4374    0.0000 C   0  0  0  0  0  0  0  0  0  0  0  0
    0.6183   -1.9915    0.0000 C   0  0  0  0  0  0  0  0  0  0  0  0
    1.9599   -1.3206    0.0000 C   0  0  0  0  0  0  0  0  0  0  0  0
    3.2117   -2.1470    0.0000 C   0  0  0  0  0  0  0  0  0  0  0  0
    3.1219   -3.6443    0.0000 O   0  0  0  0  0  0  0  0  0  0  0  0
    4.5533   -1.4762    0.0000 C   0  0  0  0  0  0  0  0  0  0  0  0
    4.6431    0.0211    0.0000 C   0  0  0  0  0  0  0  0  0  0  0  0
    5.9847    0.6920    0.0000 C   0  0  0  0  0  0  0  0  0  0  0  0
    6.0745    2.1893    0.0000 C   0  0  0  0  0  0  0  0  0  0  0  0
    7.4161    2.8602    0.0000 O   0  0  0  0  0  0  0  0  0  0  0  0
    4.8227    3.0158    0.0000 C   0  0  0  0  0  0  0  0  0  0  0  0
    3.4811    2.3449    0.0000 C   0  0  0  0  0  0  0  0  0  0  0  0
    3.3913    0.8476    0.0000 C   0  0  0  0  0  0  0  0  0  0  0  0
    2.1395    1.6740    0.0000 C   0  0  0  0  0  0  0  0  0  0  0  0
    2.0497    0.1767    0.0000 C   0  0  0  0  0  0  0  0  0  0  0  0
    0.7979    1.0031    0.0000 C   0  0  0  0  0  0  0  0  0  0  0  0
   -0.5437    0.3323    0.0000 C   0  0  0  0  0  0  0  0  0  0  0  0
   -0.6335   -1.1650    0.0000 C   0  0  0  0  0  0  0  0  0  0  0  0
   -1.9649   -0.4740    0.0000 C   0  0  0  0  0  0  0  0  0  0  0  0
  2  1  1  6
  2  3  1  0
  3  4  1  0
  4  5  1  0
  5  6  2  0
  5  7  1  0
  7  8  1  0
  7  9  1  0
  2 10  1  0
 10 11  1  6
 11 12  1  0
 13 12  1  6
 13 14  1  0
 14 15  1  1
 15 16  1  1
 15 17  1  0
 18 17  1  1
 18 19  1  0
 19 20  1  0
 20 21  1  1
 20 22  1  0
 22 23  1  0
 23 24  1  0
 24 25  1  6
 24 26  1  0
 26 27  1  6
 27 28  1  0
 28 29  1  0
 29 30  1  6
 29 10  1  0
 29 13  1  0
 26 14  1  0
 24 18  1  0
M  END
>  <MS_ID>  (223) 
MS0234

>  <SMILES>  (223) 
C[C@H](CCC(=O)N(C)C)[C@H]1CC[C@H]2[C@@H]3[C@H](O)C[C@@H]4C[C@H](O)CC[C@]4(C)[C@H]3CC[C@]12C

>  <Structure_dimension>  (223) 
2D

$$$$
MS0235
     RDKit          2D

 37 41  0  0  0  0  0  0  0  0999 V2000
   -1.6283   -3.9909    0.0000 C   0  0  0  0  0  0  0  0  0  0  0  0
   -0.8318   -2.7198    0.0000 C   0  0  0  0  0  0  0  0  0  0  0  0
   -1.5343   -1.3945    0.0000 C   0  0  0  0  0  0  0  0  0  0  0  0
   -3.0333   -1.3402    0.0000 C   0  0  0  0  0  0  0  0  0  0  0  0
   -3.7358   -0.0148    0.0000 C   0  0  0  0  0  0  0  0  0  0  0  0
   -2.9393    1.2562    0.0000 O   0  0  0  0  0  0  0  0  0  0  0  0
   -5.2348    0.0395    0.0000 N   0  0  0  0  0  0  0  0  0  0  0  0
   -5.9373    1.3648    0.0000 C   0  0  0  0  0  0  0  0  0  0  0  0
   -7.4363    1.4191    0.0000 C   0  0  0  0  0  0  0  0  0  0  0  0
   -8.1388    2.7444    0.0000 C   0  0  0  0  0  0  0  0  0  0  0  0
   -9.6378    2.7987    0.0000 C   0  0  0  0  0  0  0  0  0  0  0  0
  -10.4343    1.5277    0.0000 C   0  0  0  0  0  0  0  0  0  0  0  0
   -9.7319    0.2024    0.0000 C   0  0  0  0  0  0  0  0  0  0  0  0
  -10.5284   -1.0687    0.0000 O   0  0  0  0  0  0  0  0  0  0  0  0
   -8.2328    0.1481    0.0000 C   0  0  0  0  0  0  0  0  0  0  0  0
    0.6672   -2.7741    0.0000 C   0  0  0  0  0  0  0  0  0  0  0  0
    1.5044   -4.0188    0.0000 C   0  0  0  0  0  0  0  0  0  0  0  0
    2.9468   -3.6072    0.0000 C   0  0  0  0  0  0  0  0  0  0  0  0
    3.0011   -2.1082    0.0000 C   0  0  0  0  0  0  0  0  0  0  0  0
    4.1514   -1.1455    0.0000 C   0  0  0  0  0  0  0  0  0  0  0  0
    5.5603   -1.6603    0.0000 C   0  0  0  0  0  0  0  0  0  0  0  0
    5.8189   -3.1379    0.0000 O   0  0  0  0  0  0  0  0  0  0  0  0
    6.7106   -0.6977    0.0000 C   0  0  0  0  0  0  0  0  0  0  0  0
    6.4521    0.7799    0.0000 C   0  0  0  0  0  0  0  0  0  0  0  0
    7.6024    1.7426    0.0000 C   0  0  0  0  0  0  0  0  0  0  0  0
    7.3438    3.2201    0.0000 C   0  0  0  0  0  0  0  0  0  0  0  0
    8.4942    4.1828    0.0000 O   0  0  0  0  0  0  0  0  0  0  0  0
    5.9350    3.7350    0.0000 C   0  0  0  0  0  0  0  0  0  0  0  0
    4.7846    2.7723    0.0000 C   0  0  0  0  0  0  0  0  0  0  0  0
    5.0432    1.2948    0.0000 C   0  0  0  0  0  0  0  0  0  0  0  0
    3.6343    1.8096    0.0000 C   0  0  0  0  0  0  0  0  0  0  0  0
    3.8929    0.3321    0.0000 C   0  0  0  0  0  0  0  0  0  0  0  0
    2.4840    0.8469    0.0000 C   0  0  0  0  0  0  0  0  0  0  0  0
    1.3337   -0.1158    0.0000 C   0  0  0  0  0  0  0  0  0  0  0  0
   -0.0752    0.3991    0.0000 O   0  0  0  0  0  0  0  0  0  0  0  0
    1.5922   -1.5933    0.0000 C   0  0  0  0  0  0  0  0  0  0  0  0
    0.1373   -1.2285    0.0000 C   0  0  0  0  0  0  0  0  0  0  0  0
  2  1  1  6
  2  3  1  0
  3  4  1  0
  4  5  1  0
  5  6  2  0
  5  7  1  0
  7  8  1  0
  8  9  1  0
  9 10  2  0
 10 11  1  0
 11 12  2  0
 12 13  1  0
 13 14  1  0
 13 15  2  0
  2 16  1  0
 16 17  1  6
 17 18  1  0
 19 18  1  6
 19 20  1  0
 20 21  1  1
 21 22  1  1
 21 23  1  0
 24 23  1  1
 24 25  1  0
 25 26  1  0
 26 27  1  1
 26 28  1  0
 28 29  1  0
 29 30  1  0
 30 31  1  6
 30 32  1  0
 32 33  1  6
 33 34  1  0
 34 35  1  1
 34 36  1  0
 36 37  1  6
 15  9  1  0
 36 16  1  0
 36 19  1  0
 32 20  1  0
 30 24  1  0
M  END
>  <MS_ID>  (224) 
MS0235

>  <SMILES>  (224) 
C[C@H](CCC(=O)NCc1cccc(O)c1)[C@H]1CC[C@H]2[C@@H]3[C@H](O)C[C@@H]4C[C@H](O)CC[C@]4(C)[C@H]3C[C@H](O)[C@]12C

>  <Structure_dimension>  (224) 
2D

$$$$
MS0236
     RDKit          2D

 28 31  0  0  0  0  0  0  0  0999 V2000
   -5.1275   -2.0302    0.0000 C   0  0  0  0  0  0  0  0  0  0  0  0
   -3.9468   -1.1050    0.0000 C   0  0  0  0  0  0  0  0  0  0  0  0
   -4.1576    0.3801    0.0000 C   0  0  0  0  0  0  0  0  0  0  0  0
   -5.5492    0.9401    0.0000 C   0  0  0  0  0  0  0  0  0  0  0  0
   -5.7600    2.4252    0.0000 C   0  0  0  0  0  0  0  0  0  0  0  0
   -7.1516    2.9851    0.0000 O   0  0  0  0  0  0  0  0  0  0  0  0
   -4.5793    3.3503    0.0000 S   0  0  0  0  0  0  0  0  0  0  0  0
   -2.5552   -1.6650    0.0000 C   0  0  0  0  0  0  0  0  0  0  0  0
   -2.1903   -3.1199    0.0000 C   0  0  0  0  0  0  0  0  0  0  0  0
   -0.6938   -3.2225    0.0000 C   0  0  0  0  0  0  0  0  0  0  0  0
   -0.1339   -1.8309    0.0000 C   0  0  0  0  0  0  0  0  0  0  0  0
    1.2750   -1.3159    0.0000 C   0  0  0  0  0  0  0  0  0  0  0  0
    2.4254   -2.2785    0.0000 C   0  0  0  0  0  0  0  0  0  0  0  0
    2.1670   -3.7560    0.0000 O   0  0  0  0  0  0  0  0  0  0  0  0
    3.8342   -1.7635    0.0000 C   0  0  0  0  0  0  0  0  0  0  0  0
    4.0926   -0.2859    0.0000 C   0  0  0  0  0  0  0  0  0  0  0  0
    5.5014    0.2291    0.0000 C   0  0  0  0  0  0  0  0  0  0  0  0
    5.7598    1.7067    0.0000 C   0  0  0  0  0  0  0  0  0  0  0  0
    7.1687    2.2217    0.0000 O   0  0  0  0  0  0  0  0  0  0  0  0
    4.6094    2.6692    0.0000 C   0  0  0  0  0  0  0  0  0  0  0  0
    3.2006    2.1542    0.0000 C   0  0  0  0  0  0  0  0  0  0  0  0
    2.9422    0.6767    0.0000 C   0  0  0  0  0  0  0  0  0  0  0  0
    1.7918    1.6392    0.0000 C   0  0  0  0  0  0  0  0  0  0  0  0
    1.5334    0.1617    0.0000 C   0  0  0  0  0  0  0  0  0  0  0  0
    0.3830    1.1242    0.0000 C   0  0  0  0  0  0  0  0  0  0  0  0
   -1.0259    0.6093    0.0000 C   0  0  0  0  0  0  0  0  0  0  0  0
   -1.2843   -0.8683    0.0000 C   0  0  0  0  0  0  0  0  0  0  0  0
   -2.5290   -0.0313    0.0000 C   0  0  0  0  0  0  0  0  0  0  0  0
  2  1  1  6
  2  3  1  0
  3  4  1  0
  4  5  1  0
  5  6  2  0
  5  7  1  0
  2  8  1  0
  8  9  1  6
  9 10  1  0
 11 10  1  6
 11 12  1  0
 12 13  1  1
 13 14  1  6
 13 15  1  0
 16 15  1  1
 16 17  1  0
 17 18  1  0
 18 19  1  1
 18 20  1  0
 20 21  1  0
 21 22  1  0
 22 23  1  6
 22 24  1  0
 24 25  1  6
 25 26  1  0
 26 27  1  0
 27 28  1  6
 27  8  1  0
 27 11  1  0
 24 12  1  0
 22 16  1  0
M  END
>  <MS_ID>  (225) 
MS0236

>  <SMILES>  (225) 
C[C@H](CCC(=O)S)[C@H]1CC[C@H]2[C@@H]3[C@@H](O)C[C@@H]4C[C@H](O)CC[C@]4(C)[C@H]3CC[C@]12C

>  <Structure_dimension>  (225) 
2D

$$$$
MS0237
     RDKit          2D

 34 37  0  0  0  0  0  0  0  0999 V2000
   -1.8984   -4.2506    0.0000 C   0  0  0  0  0  0  0  0  0  0  0  0
   -1.1842   -2.9316    0.0000 C   0  0  0  0  0  0  0  0  0  0  0  0
   -1.9694   -1.6535    0.0000 C   0  0  0  0  0  0  0  0  0  0  0  0
   -3.4688   -1.6945    0.0000 C   0  0  0  0  0  0  0  0  0  0  0  0
   -4.2540   -0.4165    0.0000 C   0  0  0  0  0  0  0  0  0  0  0  0
   -3.5398    0.9026    0.0000 O   0  0  0  0  0  0  0  0  0  0  0  0
   -5.7535   -0.4574    0.0000 N   0  0  0  0  0  0  0  0  0  0  0  0
   -6.5387    0.8206    0.0000 C   0  0  0  0  0  0  0  0  0  0  0  0
   -8.0381    0.7796    0.0000 C   0  0  0  0  0  0  0  0  0  0  0  0
   -8.8234    2.0577    0.0000 C   0  0  0  0  0  0  0  0  0  0  0  0
  -10.3228    2.0167    0.0000 C   0  0  0  0  0  0  0  0  0  0  0  0
  -11.0370    0.6977    0.0000 O   0  0  0  0  0  0  0  0  0  0  0  0
  -11.1080    3.2948    0.0000 O   0  0  0  0  0  0  0  0  0  0  0  0
    0.3153   -2.8906    0.0000 C   0  0  0  0  0  0  0  0  0  0  0  0
    1.2298   -4.0796    0.0000 C   0  0  0  0  0  0  0  0  0  0  0  0
    2.6432   -3.5773    0.0000 C   0  0  0  0  0  0  0  0  0  0  0  0
    2.6022   -2.0778    0.0000 C   0  0  0  0  0  0  0  0  0  0  0  0
    3.6890   -1.0440    0.0000 C   0  0  0  0  0  0  0  0  0  0  0  0
    5.1278   -1.4684    0.0000 C   0  0  0  0  0  0  0  0  0  0  0  0
    5.4796   -2.9266    0.0000 O   0  0  0  0  0  0  0  0  0  0  0  0
    6.2146   -0.4346    0.0000 C   0  0  0  0  0  0  0  0  0  0  0  0
    5.8628    1.0235    0.0000 C   0  0  0  0  0  0  0  0  0  0  0  0
    6.9497    2.0573    0.0000 C   0  0  0  0  0  0  0  0  0  0  0  0
    6.5978    3.5154    0.0000 C   0  0  0  0  0  0  0  0  0  0  0  0
    7.6847    4.5492    0.0000 O   0  0  0  0  0  0  0  0  0  0  0  0
    5.1591    3.9398    0.0000 C   0  0  0  0  0  0  0  0  0  0  0  0
    4.0722    2.9060    0.0000 C   0  0  0  0  0  0  0  0  0  0  0  0
    4.4241    1.4479    0.0000 C   0  0  0  0  0  0  0  0  0  0  0  0
    2.9854    1.8723    0.0000 C   0  0  0  0  0  0  0  0  0  0  0  0
    3.3372    0.4141    0.0000 C   0  0  0  0  0  0  0  0  0  0  0  0
    1.8985    0.8385    0.0000 C   0  0  0  0  0  0  0  0  0  0  0  0
    0.8116   -0.1953    0.0000 C   0  0  0  0  0  0  0  0  0  0  0  0
    1.1635   -1.6534    0.0000 C   0  0  0  0  0  0  0  0  0  0  0  0
   -0.3117   -1.3818    0.0000 C   0  0  0  0  0  0  0  0  0  0  0  0
  2  1  1  6
  2  3  1  0
  3  4  1  0
  4  5  1  0
  5  6  2  0
  5  7  1  0
  7  8  1  0
  8  9  1  0
  9 10  1  0
 10 11  1  0
 11 12  2  0
 11 13  1  0
  2 14  1  0
 14 15  1  6
 15 16  1  0
 17 16  1  6
 17 18  1  0
 18 19  1  1
 19 20  1  1
 19 21  1  0
 22 21  1  1
 22 23  1  0
 23 24  1  0
 24 25  1  1
 24 26  1  0
 26 27  1  0
 27 28  1  0
 28 29  1  6
 28 30  1  0
 30 31  1  6
 31 32  1  0
 32 33  1  0
 33 34  1  6
 33 14  1  0
 33 17  1  0
 30 18  1  0
 28 22  1  0
M  END
>  <MS_ID>  (226) 
MS0237

>  <SMILES>  (226) 
C[C@H](CCC(=O)NCCCC(=O)O)[C@H]1CC[C@H]2[C@@H]3[C@H](O)C[C@@H]4C[C@H](O)CC[C@]4(C)[C@H]3CC[C@]12C

>  <Structure_dimension>  (226) 
2D

$$$$
MS0238
     RDKit          2D

 34 37  0  0  0  0  0  0  0  0999 V2000
   -5.6108   -2.4997    0.0000 C   0  0  0  0  0  0  0  0  0  0  0  0
   -4.4564   -1.5419    0.0000 C   0  0  0  0  0  0  0  0  0  0  0  0
   -4.7086   -0.0633    0.0000 C   0  0  0  0  0  0  0  0  0  0  0  0
   -6.1153    0.4576    0.0000 C   0  0  0  0  0  0  0  0  0  0  0  0
   -6.3675    1.9362    0.0000 C   0  0  0  0  0  0  0  0  0  0  0  0
   -5.2131    2.8940    0.0000 O   0  0  0  0  0  0  0  0  0  0  0  0
   -7.7742    2.4571    0.0000 C   0  0  0  0  0  0  0  0  0  0  0  0
   -8.9286    1.4994    0.0000 O   0  0  0  0  0  0  0  0  0  0  0  0
   -8.0264    3.9358    0.0000 O   0  0  0  0  0  0  0  0  0  0  0  0
   -3.0498   -2.0628    0.0000 C   0  0  0  0  0  0  0  0  0  0  0  0
   -2.6443   -3.5070    0.0000 C   0  0  0  0  0  0  0  0  0  0  0  0
   -1.1456   -3.5677    0.0000 C   0  0  0  0  0  0  0  0  0  0  0  0
   -0.6247   -2.1611    0.0000 C   0  0  0  0  0  0  0  0  0  0  0  0
    0.7692   -1.6069    0.0000 C   0  0  0  0  0  0  0  0  0  0  0  0
    1.9460   -2.5370    0.0000 C   0  0  0  0  0  0  0  0  0  0  0  0
    1.7290   -4.0212    0.0000 O   0  0  0  0  0  0  0  0  0  0  0  0
    3.3399   -1.9829    0.0000 C   0  0  0  0  0  0  0  0  0  0  0  0
    3.5570   -0.4986    0.0000 C   0  0  0  0  0  0  0  0  0  0  0  0
    4.9509    0.0555    0.0000 C   0  0  0  0  0  0  0  0  0  0  0  0
    5.1679    1.5397    0.0000 C   0  0  0  0  0  0  0  0  0  0  0  0
    6.5618    2.0938    0.0000 O   0  0  0  0  0  0  0  0  0  0  0  0
    7.7386    1.1638    0.0000 S   0  0  0  0  0  0  0  0  0  0  0  0
    6.8086   -0.0131    0.0000 O   0  0  0  0  0  0  0  0  0  0  0  0
    8.6687    2.3406    0.0000 O   0  0  0  0  0  0  0  0  0  0  0  0
    8.9155    0.2337    0.0000 O   0  0  0  0  0  0  0  0  0  0  0  0
    3.9911    2.4698    0.0000 C   0  0  0  0  0  0  0  0  0  0  0  0
    2.5972    1.9156    0.0000 C   0  0  0  0  0  0  0  0  0  0  0  0
    2.3801    0.4314    0.0000 C   0  0  0  0  0  0  0  0  0  0  0  0
    1.2033    1.3615    0.0000 C   0  0  0  0  0  0  0  0  0  0  0  0
    0.9862   -0.1227    0.0000 C   0  0  0  0  0  0  0  0  0  0  0  0
   -0.1906    0.8074    0.0000 C   0  0  0  0  0  0  0  0  0  0  0  0
   -1.5845    0.2532    0.0000 C   0  0  0  0  0  0  0  0  0  0  0  0
   -1.8015   -1.2310    0.0000 C   0  0  0  0  0  0  0  0  0  0  0  0
   -3.0692   -0.4290    0.0000 C   0  0  0  0  0  0  0  0  0  0  0  0
  2  1  1  6
  2  3  1  0
  3  4  1  0
  4  5  1  0
  5  6  2  0
  5  7  1  0
  7  8  2  0
  7  9  1  0
  2 10  1  0
 10 11  1  6
 11 12  1  0
 13 12  1  6
 13 14  1  0
 14 15  1  1
 15 16  1  6
 15 17  1  0
 18 17  1  1
 18 19  1  0
 19 20  1  0
 20 21  1  1
 21 22  1  0
 22 23  2  0
 22 24  2  0
 22 25  1  0
 20 26  1  0
 26 27  1  0
 27 28  1  0
 28 29  1  6
 28 30  1  0
 30 31  1  6
 31 32  1  0
 32 33  1  0
 33 34  1  6
 33 10  1  0
 33 13  1  0
 30 14  1  0
 28 18  1  0
M  END
>  <MS_ID>  (227) 
MS0238

>  <SMILES>  (227) 
C[C@H](CCC(=O)C(=O)O)[C@H]1CC[C@H]2[C@@H]3[C@@H](O)C[C@@H]4C[C@H](OS(=O)(=O)O)CC[C@]4(C)[C@H]3CC[C@]12C

>  <Structure_dimension>  (227) 
2D

$$$$
MS0239
     RDKit          2D

 29 32  0  0  0  0  0  0  0  0999 V2000
   -4.6551   -2.6180    0.0000 C   0  0  0  0  0  0  0  0  0  0  0  0
   -3.5633   -1.5894    0.0000 C   0  0  0  0  0  0  0  0  0  0  0  0
   -3.9081   -0.1296    0.0000 C   0  0  0  0  0  0  0  0  0  0  0  0
   -5.3448    0.3016    0.0000 C   0  0  0  0  0  0  0  0  0  0  0  0
   -5.6897    1.7615    0.0000 C   0  0  0  0  0  0  0  0  0  0  0  0
   -4.5979    2.7900    0.0000 O   0  0  0  0  0  0  0  0  0  0  0  0
   -7.1264    2.1927    0.0000 C   0  0  0  0  0  0  0  0  0  0  0  0
   -7.4712    3.6525    0.0000 O   0  0  0  0  0  0  0  0  0  0  0  0
   -2.1266   -2.0207    0.0000 C   0  0  0  0  0  0  0  0  0  0  0  0
   -1.6310   -3.4364    0.0000 C   0  0  0  0  0  0  0  0  0  0  0  0
   -0.1314   -3.4026    0.0000 C   0  0  0  0  0  0  0  0  0  0  0  0
    0.2998   -1.9659    0.0000 C   0  0  0  0  0  0  0  0  0  0  0  0
    1.6561   -1.3251    0.0000 C   0  0  0  0  0  0  0  0  0  0  0  0
    2.8892   -2.1792    0.0000 C   0  0  0  0  0  0  0  0  0  0  0  0
    2.7660   -3.6741    0.0000 O   0  0  0  0  0  0  0  0  0  0  0  0
    4.2454   -1.5383    0.0000 C   0  0  0  0  0  0  0  0  0  0  0  0
    4.3685   -0.0434    0.0000 C   0  0  0  0  0  0  0  0  0  0  0  0
    5.7247    0.5975    0.0000 C   0  0  0  0  0  0  0  0  0  0  0  0
    5.8478    2.0924    0.0000 C   0  0  0  0  0  0  0  0  0  0  0  0
    7.2040    2.7332    0.0000 O   0  0  0  0  0  0  0  0  0  0  0  0
    4.6147    2.9465    0.0000 C   0  0  0  0  0  0  0  0  0  0  0  0
    3.2585    2.3056    0.0000 C   0  0  0  0  0  0  0  0  0  0  0  0
    3.1354    0.8107    0.0000 C   0  0  0  0  0  0  0  0  0  0  0  0
    1.9023    1.6648    0.0000 C   0  0  0  0  0  0  0  0  0  0  0  0
    1.7792    0.1699    0.0000 C   0  0  0  0  0  0  0  0  0  0  0  0
    0.5461    1.0239    0.0000 C   0  0  0  0  0  0  0  0  0  0  0  0
   -0.8101    0.3831    0.0000 C   0  0  0  0  0  0  0  0  0  0  0  0
   -0.9333   -1.1118    0.0000 C   0  0  0  0  0  0  0  0  0  0  0  0
   -2.2489   -0.3913    0.0000 C   0  0  0  0  0  0  0  0  0  0  0  0
  2  1  1  6
  2  3  1  0
  3  4  1  0
  4  5  1  0
  5  6  2  0
  5  7  1  0
  7  8  1  0
  2  9  1  0
  9 10  1  6
 10 11  1  0
 12 11  1  6
 12 13  1  0
 13 14  1  1
 14 15  1  1
 14 16  1  0
 17 16  1  1
 17 18  1  0
 18 19  1  0
 19 20  1  6
 19 21  1  0
 21 22  1  0
 22 23  1  0
 23 24  1  6
 23 25  1  0
 25 26  1  6
 26 27  1  0
 27 28  1  0
 28 29  1  6
 28  9  1  0
 28 12  1  0
 25 13  1  0
 23 17  1  0
M  END
>  <MS_ID>  (228) 
MS0239

>  <SMILES>  (228) 
C[C@H](CCC(=O)CO)[C@H]1CC[C@H]2[C@@H]3[C@H](O)C[C@@H]4C[C@@H](O)CC[C@]4(C)[C@H]3CC[C@]12C

>  <Structure_dimension>  (228) 
2D

$$$$
MS0240
     RDKit          2D

 29 32  0  0  0  0  0  0  0  0999 V2000
   -4.1361   -2.8778    0.0000 C   0  0  0  0  0  0  0  0  0  0  0  0
   -3.1227   -1.7719    0.0000 C   0  0  0  0  0  0  0  0  0  0  0  0
   -3.5738   -0.3413    0.0000 C   0  0  0  0  0  0  0  0  0  0  0  0
   -5.0383   -0.0167    0.0000 C   0  0  0  0  0  0  0  0  0  0  0  0
   -5.4894    1.4138    0.0000 C   0  0  0  0  0  0  0  0  0  0  0  0
   -4.4761    2.5198    0.0000 O   0  0  0  0  0  0  0  0  0  0  0  0
   -6.9539    1.7384    0.0000 C   0  0  0  0  0  0  0  0  0  0  0  0
   -7.4050    3.1690    0.0000 O   0  0  0  0  0  0  0  0  0  0  0  0
   -1.6583   -2.0965    0.0000 C   0  0  0  0  0  0  0  0  0  0  0  0
   -1.0601   -3.4720    0.0000 C   0  0  0  0  0  0  0  0  0  0  0  0
    0.4330   -3.3282    0.0000 C   0  0  0  0  0  0  0  0  0  0  0  0
    0.7576   -1.8638    0.0000 C   0  0  0  0  0  0  0  0  0  0  0  0
    2.0631   -1.1251    0.0000 C   0  0  0  0  0  0  0  0  0  0  0  0
    3.3556   -1.8863    0.0000 C   0  0  0  0  0  0  0  0  0  0  0  0
    3.3426   -3.3863    0.0000 O   0  0  0  0  0  0  0  0  0  0  0  0
    4.6611   -1.1476    0.0000 C   0  0  0  0  0  0  0  0  0  0  0  0
    4.6741    0.3523    0.0000 C   0  0  0  0  0  0  0  0  0  0  0  0
    5.9796    1.0910    0.0000 C   0  0  0  0  0  0  0  0  0  0  0  0
    5.9926    2.5910    0.0000 C   0  0  0  0  0  0  0  0  0  0  0  0
    4.7002    3.3522    0.0000 C   0  0  0  0  0  0  0  0  0  0  0  0
    3.3947    2.6135    0.0000 C   0  0  0  0  0  0  0  0  0  0  0  0
    3.3816    1.1136    0.0000 C   0  0  0  0  0  0  0  0  0  0  0  0
    2.0891    1.8748    0.0000 C   0  0  0  0  0  0  0  0  0  0  0  0
    2.0761    0.3749    0.0000 C   0  0  0  0  0  0  0  0  0  0  0  0
    0.7836    1.1361    0.0000 C   0  0  0  0  0  0  0  0  0  0  0  0
   -0.5219    0.3974    0.0000 C   0  0  0  0  0  0  0  0  0  0  0  0
   -1.8143    1.1587    0.0000 O   0  0  0  0  0  0  0  0  0  0  0  0
   -0.5349   -1.1025    0.0000 C   0  0  0  0  0  0  0  0  0  0  0  0
   -1.8998   -0.4805    0.0000 C   0  0  0  0  0  0  0  0  0  0  0  0
  2  1  1  6
  2  3  1  0
  3  4  1  0
  4  5  1  0
  5  6  2  0
  5  7  1  0
  7  8  1  0
  2  9  1  0
  9 10  1  6
 10 11  1  0
 12 11  1  6
 12 13  1  0
 13 14  1  1
 14 15  1  1
 14 16  1  0
 17 16  1  1
 17 18  1  0
 18 19  1  0
 19 20  1  0
 20 21  1  0
 21 22  1  0
 22 23  1  6
 22 24  1  0
 24 25  1  6
 25 26  1  0
 26 27  1  6
 26 28  1  0
 28 29  1  6
 28  9  1  0
 28 12  1  0
 24 13  1  0
 22 17  1  0
M  END
>  <MS_ID>  (229) 
MS0240

>  <SMILES>  (229) 
C[C@H](CCC(=O)CO)[C@H]1CC[C@H]2[C@@H]3[C@H](O)C[C@@H]4CCCC[C@]4(C)[C@H]3C[C@@H](O)[C@]12C

>  <Structure_dimension>  (229) 
2D

$$$$
MS0241
     RDKit          2D

 35 38  0  0  0  0  0  0  0  0999 V2000
   -1.1848   -4.5684    0.0000 C   0  0  0  0  0  0  0  0  0  0  0  0
   -0.5815   -3.1951    0.0000 C   0  0  0  0  0  0  0  0  0  0  0  0
   -1.4692   -1.9860    0.0000 C   0  0  0  0  0  0  0  0  0  0  0  0
   -2.9602   -2.1502    0.0000 C   0  0  0  0  0  0  0  0  0  0  0  0
   -3.8478   -0.9410    0.0000 C   0  0  0  0  0  0  0  0  0  0  0  0
   -3.2445    0.4323    0.0000 O   0  0  0  0  0  0  0  0  0  0  0  0
   -5.3388   -1.1052    0.0000 N   0  0  0  0  0  0  0  0  0  0  0  0
   -6.2265    0.1039    0.0000 C   0  0  0  0  0  0  0  0  0  0  0  0
   -7.7175   -0.0603    0.0000 C   0  0  0  0  0  0  0  0  0  0  0  0
   -8.6052    1.1489    0.0000 C   0  0  0  0  0  0  0  0  0  0  0  0
  -10.0962    0.9847    0.0000 C   0  0  0  0  0  0  0  0  0  0  0  0
  -10.9839    2.1938    0.0000 C   0  0  0  0  0  0  0  0  0  0  0  0
  -10.3806    3.5672    0.0000 O   0  0  0  0  0  0  0  0  0  0  0  0
  -12.4748    2.0297    0.0000 O   0  0  0  0  0  0  0  0  0  0  0  0
    0.9095   -3.0309    0.0000 C   0  0  0  0  0  0  0  0  0  0  0  0
    1.9187   -4.1407    0.0000 C   0  0  0  0  0  0  0  0  0  0  0  0
    3.2860   -3.5238    0.0000 C   0  0  0  0  0  0  0  0  0  0  0  0
    3.1218   -2.0328    0.0000 C   0  0  0  0  0  0  0  0  0  0  0  0
    4.1199   -0.9131    0.0000 C   0  0  0  0  0  0  0  0  0  0  0  0
    5.5887   -1.2177    0.0000 C   0  0  0  0  0  0  0  0  0  0  0  0
    6.0593   -2.6420    0.0000 O   0  0  0  0  0  0  0  0  0  0  0  0
    6.5869   -0.0980    0.0000 C   0  0  0  0  0  0  0  0  0  0  0  0
    6.1163    1.3263    0.0000 C   0  0  0  0  0  0  0  0  0  0  0  0
    7.1144    2.4459    0.0000 C   0  0  0  0  0  0  0  0  0  0  0  0
    6.6438    3.8702    0.0000 C   0  0  0  0  0  0  0  0  0  0  0  0
    7.6420    4.9899    0.0000 O   0  0  0  0  0  0  0  0  0  0  0  0
    5.1751    4.1748    0.0000 C   0  0  0  0  0  0  0  0  0  0  0  0
    4.1769    3.0551    0.0000 C   0  0  0  0  0  0  0  0  0  0  0  0
    4.6475    1.6309    0.0000 C   0  0  0  0  0  0  0  0  0  0  0  0
    3.1788    1.9354    0.0000 C   0  0  0  0  0  0  0  0  0  0  0  0
    3.6494    0.5112    0.0000 C   0  0  0  0  0  0  0  0  0  0  0  0
    2.1806    0.8158    0.0000 C   0  0  0  0  0  0  0  0  0  0  0  0
    1.1825   -0.3039    0.0000 C   0  0  0  0  0  0  0  0  0  0  0  0
    1.6530   -1.7282    0.0000 C   0  0  0  0  0  0  0  0  0  0  0  0
    0.1605   -1.5788    0.0000 C   0  0  0  0  0  0  0  0  0  0  0  0
  2  1  1  6
  2  3  1  0
  3  4  1  0
  4  5  1  0
  5  6  2  0
  5  7  1  0
  7  8  1  0
  8  9  1  0
  9 10  1  0
 10 11  1  0
 11 12  1  0
 12 13  2  0
 12 14  1  0
  2 15  1  0
 15 16  1  6
 16 17  1  0
 18 17  1  6
 18 19  1  0
 19 20  1  1
 20 21  1  6
 20 22  1  0
 23 22  1  1
 23 24  1  0
 24 25  1  0
 25 26  1  1
 25 27  1  0
 27 28  1  0
 28 29  1  0
 29 30  1  6
 29 31  1  0
 31 32  1  6
 32 33  1  0
 33 34  1  0
 34 35  1  6
 34 15  1  0
 34 18  1  0
 31 19  1  0
 29 23  1  0
M  END
>  <MS_ID>  (230) 
MS0241

>  <SMILES>  (230) 
C[C@H](CCC(=O)NCCCCC(=O)O)[C@H]1CC[C@H]2[C@@H]3[C@@H](O)C[C@@H]4C[C@H](O)CC[C@]4(C)[C@H]3CC[C@]12C

>  <Structure_dimension>  (230) 
2D

$$$$
MS0242
     RDKit          2D

 34 37  0  0  0  0  0  0  0  0999 V2000
   -1.8984   -4.2506    0.0000 C   0  0  0  0  0  0  0  0  0  0  0  0
   -1.1842   -2.9316    0.0000 C   0  0  0  0  0  0  0  0  0  0  0  0
   -1.9694   -1.6535    0.0000 C   0  0  0  0  0  0  0  0  0  0  0  0
   -3.4688   -1.6945    0.0000 C   0  0  0  0  0  0  0  0  0  0  0  0
   -4.2540   -0.4165    0.0000 C   0  0  0  0  0  0  0  0  0  0  0  0
   -3.5398    0.9026    0.0000 O   0  0  0  0  0  0  0  0  0  0  0  0
   -5.7535   -0.4574    0.0000 C   0  0  0  0  0  0  0  0  0  0  0  0
   -6.5387    0.8206    0.0000 C   0  0  0  0  0  0  0  0  0  0  0  0
   -8.0381    0.7796    0.0000 C   0  0  0  0  0  0  0  0  0  0  0  0
   -8.8234    2.0577    0.0000 C   0  0  0  0  0  0  0  0  0  0  0  0
  -10.3228    2.0167    0.0000 C   0  0  0  0  0  0  0  0  0  0  0  0
  -11.0370    0.6977    0.0000 O   0  0  0  0  0  0  0  0  0  0  0  0
  -11.1080    3.2948    0.0000 O   0  0  0  0  0  0  0  0  0  0  0  0
    0.3153   -2.8906    0.0000 C   0  0  0  0  0  0  0  0  0  0  0  0
    1.2298   -4.0796    0.0000 C   0  0  0  0  0  0  0  0  0  0  0  0
    2.6432   -3.5773    0.0000 C   0  0  0  0  0  0  0  0  0  0  0  0
    2.6022   -2.0778    0.0000 C   0  0  0  0  0  0  0  0  0  0  0  0
    3.6890   -1.0440    0.0000 C   0  0  0  0  0  0  0  0  0  0  0  0
    5.1278   -1.4684    0.0000 C   0  0  0  0  0  0  0  0  0  0  0  0
    5.4796   -2.9266    0.0000 O   0  0  0  0  0  0  0  0  0  0  0  0
    6.2146   -0.4346    0.0000 C   0  0  0  0  0  0  0  0  0  0  0  0
    5.8628    1.0235    0.0000 C   0  0  0  0  0  0  0  0  0  0  0  0
    6.9497    2.0573    0.0000 C   0  0  0  0  0  0  0  0  0  0  0  0
    6.5978    3.5154    0.0000 C   0  0  0  0  0  0  0  0  0  0  0  0
    7.6847    4.5492    0.0000 O   0  0  0  0  0  0  0  0  0  0  0  0
    5.1591    3.9398    0.0000 C   0  0  0  0  0  0  0  0  0  0  0  0
    4.0722    2.9060    0.0000 C   0  0  0  0  0  0  0  0  0  0  0  0
    4.4241    1.4479    0.0000 C   0  0  0  0  0  0  0  0  0  0  0  0
    2.9854    1.8723    0.0000 C   0  0  0  0  0  0  0  0  0  0  0  0
    3.3372    0.4141    0.0000 C   0  0  0  0  0  0  0  0  0  0  0  0
    1.8985    0.8385    0.0000 C   0  0  0  0  0  0  0  0  0  0  0  0
    0.8116   -0.1953    0.0000 C   0  0  0  0  0  0  0  0  0  0  0  0
    1.1635   -1.6534    0.0000 C   0  0  0  0  0  0  0  0  0  0  0  0
   -0.3117   -1.3818    0.0000 C   0  0  0  0  0  0  0  0  0  0  0  0
  2  1  1  6
  2  3  1  0
  3  4  1  0
  4  5  1  0
  5  6  2  0
  5  7  1  0
  7  8  1  0
  8  9  1  0
  9 10  1  0
 10 11  1  0
 11 12  2  0
 11 13  1  0
  2 14  1  0
 14 15  1  6
 15 16  1  0
 17 16  1  6
 17 18  1  0
 18 19  1  1
 19 20  1  1
 19 21  1  0
 22 21  1  1
 22 23  1  0
 23 24  1  0
 24 25  1  1
 24 26  1  0
 26 27  1  0
 27 28  1  0
 28 29  1  6
 28 30  1  0
 30 31  1  6
 31 32  1  0
 32 33  1  0
 33 34  1  6
 33 14  1  0
 33 17  1  0
 30 18  1  0
 28 22  1  0
M  END
>  <MS_ID>  (231) 
MS0242

>  <SMILES>  (231) 
C[C@H](CCC(=O)CCCCC(=O)O)[C@H]1CC[C@H]2[C@@H]3[C@H](O)C[C@@H]4C[C@H](O)CC[C@]4(C)[C@H]3CC[C@]12C

>  <Structure_dimension>  (231) 
2D

$$$$
MS0243
     RDKit          2D

 31 34  0  0  0  0  0  0  0  0999 V2000
   -4.3735   -2.9763    0.0000 C   0  0  0  0  0  0  0  0  0  0  0  0
   -3.3227   -1.9059    0.0000 C   0  0  0  0  0  0  0  0  0  0  0  0
   -3.7243   -0.4607    0.0000 C   0  0  0  0  0  0  0  0  0  0  0  0
   -5.1767   -0.0858    0.0000 C   0  0  0  0  0  0  0  0  0  0  0  0
   -5.5783    1.3594    0.0000 C   0  0  0  0  0  0  0  0  0  0  0  0
   -7.0307    1.7342    0.0000 O   0  0  0  0  0  0  0  0  0  0  0  0
   -4.5274    2.4298    0.0000 S   0  0  0  0  0  0  0  0  0  0  0  0
   -5.5978    3.4806    0.0000 O   0  0  0  0  0  0  0  0  0  0  0  0
   -3.4570    1.3790    0.0000 O   0  0  0  0  0  0  0  0  0  0  0  0
   -3.4766    3.5002    0.0000 O   0  0  0  0  0  0  0  0  0  0  0  0
   -1.8703   -2.2808    0.0000 C   0  0  0  0  0  0  0  0  0  0  0  0
   -1.3198   -3.6761    0.0000 C   0  0  0  0  0  0  0  0  0  0  0  0
    0.1774   -3.5838    0.0000 C   0  0  0  0  0  0  0  0  0  0  0  0
    0.5522   -2.1314    0.0000 C   0  0  0  0  0  0  0  0  0  0  0  0
    1.8824   -1.4381    0.0000 C   0  0  0  0  0  0  0  0  0  0  0  0
    3.1478   -2.2434    0.0000 C   0  0  0  0  0  0  0  0  0  0  0  0
    3.0832   -3.7420    0.0000 O   0  0  0  0  0  0  0  0  0  0  0  0
    4.4780   -1.5501    0.0000 C   0  0  0  0  0  0  0  0  0  0  0  0
    4.5427   -0.0515    0.0000 C   0  0  0  0  0  0  0  0  0  0  0  0
    5.8729    0.6418    0.0000 C   0  0  0  0  0  0  0  0  0  0  0  0
    5.9375    2.1404    0.0000 C   0  0  0  0  0  0  0  0  0  0  0  0
    7.2677    2.8337    0.0000 O   0  0  0  0  0  0  0  0  0  0  0  0
    4.6720    2.9457    0.0000 C   0  0  0  0  0  0  0  0  0  0  0  0
    3.3419    2.2524    0.0000 C   0  0  0  0  0  0  0  0  0  0  0  0
    3.2772    0.7538    0.0000 C   0  0  0  0  0  0  0  0  0  0  0  0
    2.0117    1.5591    0.0000 C   0  0  0  0  0  0  0  0  0  0  0  0
    1.9470    0.0605    0.0000 C   0  0  0  0  0  0  0  0  0  0  0  0
    0.6815    0.8658    0.0000 C   0  0  0  0  0  0  0  0  0  0  0  0
   -0.6486    0.1725    0.0000 C   0  0  0  0  0  0  0  0  0  0  0  0
   -0.7133   -1.3261    0.0000 C   0  0  0  0  0  0  0  0  0  0  0  0
   -2.0560   -0.6574    0.0000 C   0  0  0  0  0  0  0  0  0  0  0  0
  2  1  1  6
  2  3  1  0
  3  4  1  0
  4  5  1  0
  5  6  2  0
  5  7  1  0
  7  8  2  0
  7  9  2  0
  7 10  1  0
  2 11  1  0
 11 12  1  6
 12 13  1  0
 14 13  1  6
 14 15  1  0
 15 16  1  1
 16 17  1  1
 16 18  1  0
 19 18  1  1
 19 20  1  0
 20 21  1  0
 21 22  1  1
 21 23  1  0
 23 24  1  0
 24 25  1  0
 25 26  1  6
 25 27  1  0
 27 28  1  6
 28 29  1  0
 29 30  1  0
 30 31  1  6
 30 11  1  0
 30 14  1  0
 27 15  1  0
 25 19  1  0
M  END
>  <MS_ID>  (232) 
MS0243

>  <SMILES>  (232) 
C[C@H](CCC(=O)S(=O)(=O)O)[C@H]1CC[C@H]2[C@@H]3[C@H](O)C[C@@H]4C[C@H](O)CC[C@]4(C)[C@H]3CC[C@]12C

>  <Structure_dimension>  (232) 
2D

$$$$
MS0244
     RDKit          2D

 33 36  0  0  0  0  0  0  0  0999 V2000
   -5.9347   -2.3224    0.0000 C   0  0  0  0  0  0  0  0  0  0  0  0
   -4.7592   -1.3907    0.0000 C   0  0  0  0  0  0  0  0  0  0  0  0
   -4.9784    0.0932    0.0000 C   0  0  0  0  0  0  0  0  0  0  0  0
   -6.3730    0.6454    0.0000 C   0  0  0  0  0  0  0  0  0  0  0  0
   -6.5922    2.1293    0.0000 C   0  0  0  0  0  0  0  0  0  0  0  0
   -5.4167    3.0610    0.0000 O   0  0  0  0  0  0  0  0  0  0  0  0
   -7.9869    2.6814    0.0000 N   0  0  0  0  0  0  0  0  0  0  0  0
   -8.2061    4.1653    0.0000 O   0  0  0  0  0  0  0  0  0  0  0  0
   -3.3645   -1.9428    0.0000 C   0  0  0  0  0  0  0  0  0  0  0  0
   -2.9914   -3.3957    0.0000 C   0  0  0  0  0  0  0  0  0  0  0  0
   -1.4944   -3.4898    0.0000 C   0  0  0  0  0  0  0  0  0  0  0  0
   -0.9422   -2.0951    0.0000 C   0  0  0  0  0  0  0  0  0  0  0  0
    0.4637   -1.5722    0.0000 C   0  0  0  0  0  0  0  0  0  0  0  0
    1.6195   -2.5283    0.0000 C   0  0  0  0  0  0  0  0  0  0  0  0
    1.3694   -4.0073    0.0000 O   0  0  0  0  0  0  0  0  0  0  0  0
    3.0254   -2.0054    0.0000 C   0  0  0  0  0  0  0  0  0  0  0  0
    3.2755   -0.5264    0.0000 C   0  0  0  0  0  0  0  0  0  0  0  0
    4.6814   -0.0035    0.0000 C   0  0  0  0  0  0  0  0  0  0  0  0
    4.9315    1.4755    0.0000 C   0  0  0  0  0  0  0  0  0  0  0  0
    6.3374    1.9984    0.0000 O   0  0  0  0  0  0  0  0  0  0  0  0
    7.4932    1.0423    0.0000 S   0  0  0  0  0  0  0  0  0  0  0  0
    6.5371   -0.1135    0.0000 O   0  0  0  0  0  0  0  0  0  0  0  0
    8.4493    2.1981    0.0000 O   0  0  0  0  0  0  0  0  0  0  0  0
    8.6490    0.0862    0.0000 O   0  0  0  0  0  0  0  0  0  0  0  0
    3.7757    2.4316    0.0000 C   0  0  0  0  0  0  0  0  0  0  0  0
    2.3698    1.9087    0.0000 C   0  0  0  0  0  0  0  0  0  0  0  0
    2.1197    0.4297    0.0000 C   0  0  0  0  0  0  0  0  0  0  0  0
    0.9639    1.3858    0.0000 C   0  0  0  0  0  0  0  0  0  0  0  0
    0.7138   -0.0932    0.0000 C   0  0  0  0  0  0  0  0  0  0  0  0
   -0.4420    0.8629    0.0000 C   0  0  0  0  0  0  0  0  0  0  0  0
   -1.8479    0.3400    0.0000 C   0  0  0  0  0  0  0  0  0  0  0  0
   -2.0980   -1.1390    0.0000 C   0  0  0  0  0  0  0  0  0  0  0  0
   -3.3474   -0.3090    0.0000 C   0  0  0  0  0  0  0  0  0  0  0  0
  2  1  1  6
  2  3  1  0
  3  4  1  0
  4  5  1  0
  5  6  2  0
  5  7  1  0
  7  8  1  0
  2  9  1  0
  9 10  1  6
 10 11  1  0
 12 11  1  6
 12 13  1  0
 13 14  1  1
 14 15  1  1
 14 16  1  0
 17 16  1  1
 17 18  1  0
 18 19  1  0
 19 20  1  1
 20 21  1  0
 21 22  2  0
 21 23  2  0
 21 24  1  0
 19 25  1  0
 25 26  1  0
 26 27  1  0
 27 28  1  6
 27 29  1  0
 29 30  1  6
 30 31  1  0
 31 32  1  0
 32 33  1  6
 32  9  1  0
 32 12  1  0
 29 13  1  0
 27 17  1  0
M  END
>  <MS_ID>  (233) 
MS0244

>  <SMILES>  (233) 
C[C@H](CCC(=O)NO)[C@H]1CC[C@H]2[C@@H]3[C@H](O)C[C@@H]4C[C@H](OS(=O)(=O)O)CC[C@]4(C)[C@H]3CC[C@]12C

>  <Structure_dimension>  (233) 
2D

$$$$
MS0245
     RDKit          2D

 32 35  0  0  0  0  0  0  0  0999 V2000
   -3.0592   -3.7169    0.0000 C   0  0  0  0  0  0  0  0  0  0  0  0
   -2.1499   -2.5239    0.0000 C   0  0  0  0  0  0  0  0  0  0  0  0
   -2.7284   -1.1399    0.0000 C   0  0  0  0  0  0  0  0  0  0  0  0
   -4.2162   -0.9489    0.0000 C   0  0  0  0  0  0  0  0  0  0  0  0
   -4.7946    0.4350    0.0000 C   0  0  0  0  0  0  0  0  0  0  0  0
   -3.8853    1.6280    0.0000 O   0  0  0  0  0  0  0  0  0  0  0  0
   -6.2824    0.6260    0.0000 C   0  0  0  0  0  0  0  0  0  0  0  0
   -6.8609    2.0100    0.0000 C   0  0  0  0  0  0  0  0  0  0  0  0
   -8.3487    2.2010    0.0000 C   0  0  0  0  0  0  0  0  0  0  0  0
   -9.2580    1.0080    0.0000 O   0  0  0  0  0  0  0  0  0  0  0  0
   -8.9272    3.5850    0.0000 O   0  0  0  0  0  0  0  0  0  0  0  0
   -0.6621   -2.7149    0.0000 C   0  0  0  0  0  0  0  0  0  0  0  0
    0.0579   -4.0308    0.0000 C   0  0  0  0  0  0  0  0  0  0  0  0
    1.5319   -3.7527    0.0000 C   0  0  0  0  0  0  0  0  0  0  0  0
    1.7229   -2.2649    0.0000 C   0  0  0  0  0  0  0  0  0  0  0  0
    2.9563   -1.4114    0.0000 C   0  0  0  0  0  0  0  0  0  0  0  0
    4.3123   -2.0528    0.0000 C   0  0  0  0  0  0  0  0  0  0  0  0
    5.5457   -1.1992    0.0000 C   0  0  0  0  0  0  0  0  0  0  0  0
    5.4232    0.2958    0.0000 C   0  0  0  0  0  0  0  0  0  0  0  0
    6.6567    1.1494    0.0000 C   0  0  0  0  0  0  0  0  0  0  0  0
    6.5342    2.6444    0.0000 C   0  0  0  0  0  0  0  0  0  0  0  0
    7.7676    3.4980    0.0000 O   0  0  0  0  0  0  0  0  0  0  0  0
    5.1782    3.2858    0.0000 C   0  0  0  0  0  0  0  0  0  0  0  0
    3.9448    2.4322    0.0000 C   0  0  0  0  0  0  0  0  0  0  0  0
    4.0673    0.9372    0.0000 C   0  0  0  0  0  0  0  0  0  0  0  0
    2.7113    1.5786    0.0000 C   0  0  0  0  0  0  0  0  0  0  0  0
    2.8338    0.0836    0.0000 C   0  0  0  0  0  0  0  0  0  0  0  0
    1.4779    0.7250    0.0000 C   0  0  0  0  0  0  0  0  0  0  0  0
    0.2444   -0.1285    0.0000 C   0  0  0  0  0  0  0  0  0  0  0  0
   -1.1115    0.5129    0.0000 O   0  0  0  0  0  0  0  0  0  0  0  0
    0.3669   -1.6235    0.0000 C   0  0  0  0  0  0  0  0  0  0  0  0
   -1.0486   -1.1274    0.0000 C   0  0  0  0  0  0  0  0  0  0  0  0
  2  1  1  6
  2  3  1  0
  3  4  1  0
  4  5  1  0
  5  6  2  0
  5  7  1  0
  7  8  1  0
  8  9  1  0
  9 10  2  0
  9 11  1  0
  2 12  1  0
 12 13  1  6
 13 14  1  0
 15 14  1  6
 15 16  1  0
 16 17  1  1
 17 18  1  0
 19 18  1  1
 19 20  1  0
 20 21  1  0
 21 22  1  1
 21 23  1  0
 23 24  1  0
 24 25  1  0
 25 26  1  6
 25 27  1  0
 27 28  1  6
 28 29  1  0
 29 30  1  6
 29 31  1  0
 31 32  1  6
 31 12  1  0
 31 15  1  0
 27 16  1  0
 25 19  1  0
M  END
>  <MS_ID>  (234) 
MS0245

>  <SMILES>  (234) 
C[C@H](CCC(=O)CCC(=O)O)[C@H]1CC[C@H]2[C@@H]3CC[C@@H]4C[C@H](O)CC[C@]4(C)[C@H]3C[C@@H](O)[C@]12C

>  <Structure_dimension>  (234) 
2D

$$$$
MS0246
     RDKit          2D

 28 31  0  0  0  0  0  0  0  0999 V2000
   -7.2657    3.7367    0.0000 C   0  0  0  0  0  0  0  0  0  0  0  0
   -6.9639    2.2673    0.0000 O   0  0  0  0  0  0  0  0  0  0  0  0
   -5.5405    1.7940    0.0000 C   0  0  0  0  0  0  0  0  0  0  0  0
   -4.4189    2.7900    0.0000 O   0  0  0  0  0  0  0  0  0  0  0  0
   -5.2387    0.3247    0.0000 C   0  0  0  0  0  0  0  0  0  0  0  0
   -3.8154   -0.1486    0.0000 C   0  0  0  0  0  0  0  0  0  0  0  0
   -3.5136   -1.6180    0.0000 C   0  0  0  0  0  0  0  0  0  0  0  0
   -4.6352   -2.6140    0.0000 C   0  0  0  0  0  0  0  0  0  0  0  0
   -2.0902   -2.0913    0.0000 C   0  0  0  0  0  0  0  0  0  0  0  0
   -1.6365   -3.5210    0.0000 C   0  0  0  0  0  0  0  0  0  0  0  0
   -0.1366   -3.5313    0.0000 C   0  0  0  0  0  0  0  0  0  0  0  0
    0.3368   -2.1080    0.0000 C   0  0  0  0  0  0  0  0  0  0  0  0
    1.7112   -1.5073    0.0000 C   0  0  0  0  0  0  0  0  0  0  0  0
    2.9187   -2.3973    0.0000 C   0  0  0  0  0  0  0  0  0  0  0  0
    4.2932   -1.7966    0.0000 C   0  0  0  0  0  0  0  0  0  0  0  0
    4.4602   -0.3060    0.0000 C   0  0  0  0  0  0  0  0  0  0  0  0
    5.8347    0.2947    0.0000 C   0  0  0  0  0  0  0  0  0  0  0  0
    6.0017    1.7854    0.0000 C   0  0  0  0  0  0  0  0  0  0  0  0
    7.3762    2.3861    0.0000 O   0  0  0  0  0  0  0  0  0  0  0  0
    4.7943    2.6754    0.0000 C   0  0  0  0  0  0  0  0  0  0  0  0
    3.4198    2.0747    0.0000 C   0  0  0  0  0  0  0  0  0  0  0  0
    3.2528    0.5840    0.0000 C   0  0  0  0  0  0  0  0  0  0  0  0
    2.0453    1.4740    0.0000 C   0  0  0  0  0  0  0  0  0  0  0  0
    1.8783   -0.0166    0.0000 C   0  0  0  0  0  0  0  0  0  0  0  0
    0.6708    0.8734    0.0000 C   0  0  0  0  0  0  0  0  0  0  0  0
   -0.7036    0.2727    0.0000 C   0  0  0  0  0  0  0  0  0  0  0  0
   -0.8707   -1.2180    0.0000 C   0  0  0  0  0  0  0  0  0  0  0  0
   -2.1645   -0.4591    0.0000 C   0  0  0  0  0  0  0  0  0  0  0  0
  1  2  1  0
  2  3  1  0
  3  4  2  0
  3  5  1  0
  5  6  1  0
  6  7  1  0
  7  8  1  6
  7  9  1  0
  9 10  1  6
 10 11  1  0
 12 11  1  6
 12 13  1  0
 13 14  1  1
 14 15  1  0
 16 15  1  1
 16 17  1  0
 17 18  1  0
 18 19  1  6
 18 20  1  0
 20 21  1  0
 21 22  1  0
 22 23  1  6
 22 24  1  0
 24 25  1  6
 25 26  1  0
 26 27  1  0
 27 28  1  6
 27  9  1  0
 27 12  1  0
 24 13  1  0
 22 16  1  0
M  END
>  <MS_ID>  (235) 
MS0246

>  <SMILES>  (235) 
COC(=O)CC[C@@H](C)[C@H]1CC[C@H]2[C@@H]3CC[C@@H]4C[C@@H](O)CC[C@]4(C)[C@H]3CC[C@]12C

>  <Structure_dimension>  (235) 
2D

$$$$
MS0247
     RDKit          2D

 28 31  0  0  0  0  0  0  0  0999 V2000
   -5.0096   -2.1352    0.0000 C   0  0  0  0  0  0  0  0  0  0  0  0
   -3.8132   -1.2303    0.0000 C   0  0  0  0  0  0  0  0  0  0  0  0
   -3.9987    0.2582    0.0000 C   0  0  0  0  0  0  0  0  0  0  0  0
   -5.3805    0.8418    0.0000 C   0  0  0  0  0  0  0  0  0  0  0  0
   -5.5659    2.3303    0.0000 C   0  0  0  0  0  0  0  0  0  0  0  0
   -6.9477    2.9140    0.0000 O   0  0  0  0  0  0  0  0  0  0  0  0
   -4.3695    3.2351    0.0000 S   0  0  0  0  0  0  0  0  0  0  0  0
   -2.4315   -1.8140    0.0000 C   0  0  0  0  0  0  0  0  0  0  0  0
   -2.0914   -3.2749    0.0000 C   0  0  0  0  0  0  0  0  0  0  0  0
   -0.5969   -3.4030    0.0000 C   0  0  0  0  0  0  0  0  0  0  0  0
   -0.0133   -2.0212    0.0000 C   0  0  0  0  0  0  0  0  0  0  0  0
    1.4041   -1.5304    0.0000 C   0  0  0  0  0  0  0  0  0  0  0  0
    2.5379   -2.5125    0.0000 C   0  0  0  0  0  0  0  0  0  0  0  0
    3.9554   -2.0216    0.0000 C   0  0  0  0  0  0  0  0  0  0  0  0
    4.2390   -0.5487    0.0000 C   0  0  0  0  0  0  0  0  0  0  0  0
    5.6564   -0.0578    0.0000 C   0  0  0  0  0  0  0  0  0  0  0  0
    5.9400    1.4151    0.0000 C   0  0  0  0  0  0  0  0  0  0  0  0
    7.3574    1.9060    0.0000 O   0  0  0  0  0  0  0  0  0  0  0  0
    4.8062    2.3972    0.0000 C   0  0  0  0  0  0  0  0  0  0  0  0
    3.3888    1.9064    0.0000 C   0  0  0  0  0  0  0  0  0  0  0  0
    3.1052    0.4334    0.0000 C   0  0  0  0  0  0  0  0  0  0  0  0
    1.9714    1.4155    0.0000 C   0  0  0  0  0  0  0  0  0  0  0  0
    1.6878   -0.0574    0.0000 C   0  0  0  0  0  0  0  0  0  0  0  0
    0.5540    0.9246    0.0000 C   0  0  0  0  0  0  0  0  0  0  0  0
   -0.8635    0.4338    0.0000 C   0  0  0  0  0  0  0  0  0  0  0  0
   -1.9973    1.4159    0.0000 O   0  0  0  0  0  0  0  0  0  0  0  0
   -1.1471   -1.0392    0.0000 C   0  0  0  0  0  0  0  0  0  0  0  0
   -2.3773   -0.1810    0.0000 C   0  0  0  0  0  0  0  0  0  0  0  0
  2  1  1  6
  2  3  1  0
  3  4  1  0
  4  5  1  0
  5  6  2  0
  5  7  1  0
  2  8  1  0
  8  9  1  6
  9 10  1  0
 11 10  1  6
 11 12  1  0
 12 13  1  1
 13 14  1  0
 15 14  1  1
 15 16  1  0
 16 17  1  0
 17 18  1  1
 17 19  1  0
 19 20  1  0
 20 21  1  0
 21 22  1  6
 21 23  1  0
 23 24  1  6
 24 25  1  0
 25 26  1  1
 25 27  1  0
 27 28  1  6
 27  8  1  0
 27 11  1  0
 23 12  1  0
 21 15  1  0
M  END
>  <MS_ID>  (236) 
MS0247

>  <SMILES>  (236) 
C[C@H](CCC(=O)S)[C@H]1CC[C@H]2[C@@H]3CC[C@@H]4C[C@H](O)CC[C@]4(C)[C@H]3C[C@H](O)[C@]12C

>  <Structure_dimension>  (236) 
2D

$$$$
MS0248
     RDKit          2D

 33 36  0  0  0  0  0  0  0  0999 V2000
   -6.2027   -1.9081    0.0000 C   0  0  0  0  0  0  0  0  0  0  0  0
   -4.9792   -1.0402    0.0000 C   0  0  0  0  0  0  0  0  0  0  0  0
   -5.1191    0.4533    0.0000 C   0  0  0  0  0  0  0  0  0  0  0  0
   -6.4825    1.0788    0.0000 C   0  0  0  0  0  0  0  0  0  0  0  0
   -6.6223    2.5723    0.0000 C   0  0  0  0  0  0  0  0  0  0  0  0
   -5.3989    3.4402    0.0000 O   0  0  0  0  0  0  0  0  0  0  0  0
   -7.9857    3.1979    0.0000 O   0  0  0  0  0  0  0  0  0  0  0  0
   -3.6159   -1.6658    0.0000 C   0  0  0  0  0  0  0  0  0  0  0  0
   -3.3207   -3.1364    0.0000 C   0  0  0  0  0  0  0  0  0  0  0  0
   -1.8308   -3.3101    0.0000 C   0  0  0  0  0  0  0  0  0  0  0  0
   -1.2052   -1.9468    0.0000 C   0  0  0  0  0  0  0  0  0  0  0  0
    0.2265   -1.4995    0.0000 C   0  0  0  0  0  0  0  0  0  0  0  0
    1.3298   -2.5157    0.0000 C   0  0  0  0  0  0  0  0  0  0  0  0
    1.0014   -3.9793    0.0000 O   0  0  0  0  0  0  0  0  0  0  0  0
    2.7616   -2.0684    0.0000 C   0  0  0  0  0  0  0  0  0  0  0  0
    3.0900   -0.6048    0.0000 C   0  0  0  0  0  0  0  0  0  0  0  0
    4.5218   -0.1574    0.0000 C   0  0  0  0  0  0  0  0  0  0  0  0
    4.8502    1.3061    0.0000 C   0  0  0  0  0  0  0  0  0  0  0  0
    6.2820    1.7535    0.0000 O   0  0  0  0  0  0  0  0  0  0  0  0
    7.3853    0.7372    0.0000 S   0  0  0  0  0  0  0  0  0  0  0  0
    6.3690   -0.3660    0.0000 O   0  0  0  0  0  0  0  0  0  0  0  0
    8.4015    1.8405    0.0000 O   0  0  0  0  0  0  0  0  0  0  0  0
    8.4885   -0.2790    0.0000 O   0  0  0  0  0  0  0  0  0  0  0  0
    3.7470    2.3224    0.0000 C   0  0  0  0  0  0  0  0  0  0  0  0
    2.3152    1.8751    0.0000 C   0  0  0  0  0  0  0  0  0  0  0  0
    1.9868    0.4115    0.0000 C   0  0  0  0  0  0  0  0  0  0  0  0
    0.8835    1.4277    0.0000 C   0  0  0  0  0  0  0  0  0  0  0  0
    0.5550   -0.0359    0.0000 C   0  0  0  0  0  0  0  0  0  0  0  0
   -0.5483    0.9804    0.0000 C   0  0  0  0  0  0  0  0  0  0  0  0
   -1.9800    0.5330    0.0000 C   0  0  0  0  0  0  0  0  0  0  0  0
   -3.0833    1.5493    0.0000 O   0  0  0  0  0  0  0  0  0  0  0  0
   -2.3085   -0.9305    0.0000 C   0  0  0  0  0  0  0  0  0  0  0  0
   -3.5119   -0.0352    0.0000 C   0  0  0  0  0  0  0  0  0  0  0  0
  2  1  1  6
  2  3  1  0
  3  4  1  0
  4  5  1  0
  5  6  2  0
  5  7  1  0
  2  8  1  0
  8  9  1  6
  9 10  1  0
 11 10  1  6
 11 12  1  0
 12 13  1  1
 13 14  1  6
 13 15  1  0
 16 15  1  1
 16 17  1  0
 17 18  1  0
 18 19  1  1
 19 20  1  0
 20 21  2  0
 20 22  2  0
 20 23  1  0
 18 24  1  0
 24 25  1  0
 25 26  1  0
 26 27  1  6
 26 28  1  0
 28 29  1  6
 29 30  1  0
 30 31  1  6
 30 32  1  0
 32 33  1  6
 32  8  1  0
 32 11  1  0
 28 12  1  0
 26 16  1  0
M  END
>  <MS_ID>  (237) 
MS0248

>  <SMILES>  (237) 
C[C@H](CCC(=O)O)[C@H]1CC[C@H]2[C@@H]3[C@@H](O)C[C@@H]4C[C@H](OS(=O)(=O)O)CC[C@]4(C)[C@H]3C[C@@H](O)[C@]12C

>  <Structure_dimension>  (237) 
2D

$$$$
MS0249
     RDKit          2D

 36 39  0  0  0  0  0  0  0  0999 V2000
   -2.1103   -4.2976    0.0000 C   0  0  0  0  0  0  0  0  0  0  0  0
   -1.3784   -2.9883    0.0000 C   0  0  0  0  0  0  0  0  0  0  0  0
   -2.1464   -1.6998    0.0000 C   0  0  0  0  0  0  0  0  0  0  0  0
   -3.6462   -1.7207    0.0000 C   0  0  0  0  0  0  0  0  0  0  0  0
   -4.4142   -0.4322    0.0000 C   0  0  0  0  0  0  0  0  0  0  0  0
   -3.6824    0.8772    0.0000 O   0  0  0  0  0  0  0  0  0  0  0  0
   -5.9141   -0.4530    0.0000 N   0  0  0  0  0  0  0  0  0  0  0  0
   -6.6821    0.8354    0.0000 S   0  0  0  0  0  0  0  0  0  0  0  0
   -5.3936    1.6034    0.0000 O   0  0  0  0  0  0  0  0  0  0  0  0
   -7.9706    0.0674    0.0000 O   0  0  0  0  0  0  0  0  0  0  0  0
   -7.4501    2.1239    0.0000 C   0  0  0  0  0  0  0  0  0  0  0  0
   -6.1616    2.8919    0.0000 F   0  0  0  0  0  0  0  0  0  0  0  0
   -8.7386    1.3559    0.0000 F   0  0  0  0  0  0  0  0  0  0  0  0
   -8.2181    3.4124    0.0000 F   0  0  0  0  0  0  0  0  0  0  0  0
    0.1215   -2.9674    0.0000 C   0  0  0  0  0  0  0  0  0  0  0  0
    1.0199   -4.1686    0.0000 C   0  0  0  0  0  0  0  0  0  0  0  0
    2.4399   -3.6852    0.0000 C   0  0  0  0  0  0  0  0  0  0  0  0
    2.4191   -2.1854    0.0000 C   0  0  0  0  0  0  0  0  0  0  0  0
    3.5197   -1.1663    0.0000 C   0  0  0  0  0  0  0  0  0  0  0  0
    4.9526   -1.6099    0.0000 C   0  0  0  0  0  0  0  0  0  0  0  0
    5.2849   -3.0727    0.0000 O   0  0  0  0  0  0  0  0  0  0  0  0
    6.0533   -0.5908    0.0000 C   0  0  0  0  0  0  0  0  0  0  0  0
    5.7210    0.8719    0.0000 C   0  0  0  0  0  0  0  0  0  0  0  0
    6.8217    1.8910    0.0000 C   0  0  0  0  0  0  0  0  0  0  0  0
    6.4894    3.3538    0.0000 C   0  0  0  0  0  0  0  0  0  0  0  0
    7.5901    4.3729    0.0000 O   0  0  0  0  0  0  0  0  0  0  0  0
    5.0565    3.7974    0.0000 C   0  0  0  0  0  0  0  0  0  0  0  0
    3.9559    2.7783    0.0000 C   0  0  0  0  0  0  0  0  0  0  0  0
    4.2881    1.3156    0.0000 C   0  0  0  0  0  0  0  0  0  0  0  0
    2.8552    1.7592    0.0000 C   0  0  0  0  0  0  0  0  0  0  0  0
    3.1875    0.2965    0.0000 C   0  0  0  0  0  0  0  0  0  0  0  0
    1.7546    0.7401    0.0000 C   0  0  0  0  0  0  0  0  0  0  0  0
    0.6539   -0.2790    0.0000 C   0  0  0  0  0  0  0  0  0  0  0  0
   -0.7790    0.1646    0.0000 O   0  0  0  0  0  0  0  0  0  0  0  0
    0.9862   -1.7417    0.0000 C   0  0  0  0  0  0  0  0  0  0  0  0
   -0.4852   -1.4503    0.0000 C   0  0  0  0  0  0  0  0  0  0  0  0
  2  1  1  6
  2  3  1  0
  3  4  1  0
  4  5  1  0
  5  6  2  0
  5  7  1  0
  7  8  1  0
  8  9  2  0
  8 10  2  0
  8 11  1  0
 11 12  1  0
 11 13  1  0
 11 14  1  0
  2 15  1  0
 15 16  1  6
 16 17  1  0
 18 17  1  6
 18 19  1  0
 19 20  1  1
 20 21  1  1
 20 22  1  0
 23 22  1  1
 23 24  1  0
 24 25  1  0
 25 26  1  1
 25 27  1  0
 27 28  1  0
 28 29  1  0
 29 30  1  6
 29 31  1  0
 31 32  1  6
 32 33  1  0
 33 34  1  1
 33 35  1  0
 35 36  1  6
 35 15  1  0
 35 18  1  0
 31 19  1  0
 29 23  1  0
M  END
>  <MS_ID>  (238) 
MS0249

>  <SMILES>  (238) 
C[C@H](CCC(=O)NS(=O)(=O)C(F)(F)F)[C@H]1CC[C@H]2[C@@H]3[C@H](O)C[C@@H]4C[C@H](O)CC[C@]4(C)[C@H]3C[C@H](O)[C@]12C

>  <Structure_dimension>  (238) 
2D

$$$$
MS0250
     RDKit          2D

 29 32  0  0  0  0  0  0  0  0999 V2000
   -5.0303   -2.1373    0.0000 C   0  0  0  0  0  0  0  0  0  0  0  0
   -3.8594   -1.1998    0.0000 C   0  0  0  0  0  0  0  0  0  0  0  0
   -4.0858    0.2830    0.0000 C   0  0  0  0  0  0  0  0  0  0  0  0
   -5.4831    0.8284    0.0000 C   0  0  0  0  0  0  0  0  0  0  0  0
   -5.7095    2.3112    0.0000 C   0  0  0  0  0  0  0  0  0  0  0  0
   -7.1069    2.8565    0.0000 O   0  0  0  0  0  0  0  0  0  0  0  0
   -4.5386    3.2487    0.0000 F   0  0  0  0  0  0  0  0  0  0  0  0
   -2.4620   -1.7451    0.0000 C   0  0  0  0  0  0  0  0  0  0  0  0
   -2.0818   -3.1961    0.0000 C   0  0  0  0  0  0  0  0  0  0  0  0
   -0.5844   -3.2830    0.0000 C   0  0  0  0  0  0  0  0  0  0  0  0
   -0.0390   -1.8856    0.0000 C   0  0  0  0  0  0  0  0  0  0  0  0
    1.3643   -1.3559    0.0000 C   0  0  0  0  0  0  0  0  0  0  0  0
    2.5248   -2.3063    0.0000 C   0  0  0  0  0  0  0  0  0  0  0  0
    2.2819   -3.7865    0.0000 O   0  0  0  0  0  0  0  0  0  0  0  0
    3.9281   -1.7765    0.0000 C   0  0  0  0  0  0  0  0  0  0  0  0
    4.1710   -0.2963    0.0000 C   0  0  0  0  0  0  0  0  0  0  0  0
    5.5743    0.2334    0.0000 C   0  0  0  0  0  0  0  0  0  0  0  0
    5.8172    1.7136    0.0000 C   0  0  0  0  0  0  0  0  0  0  0  0
    7.2205    2.2434    0.0000 O   0  0  0  0  0  0  0  0  0  0  0  0
    4.6568    2.6641    0.0000 C   0  0  0  0  0  0  0  0  0  0  0  0
    3.2534    2.1343    0.0000 C   0  0  0  0  0  0  0  0  0  0  0  0
    3.0105    0.6541    0.0000 C   0  0  0  0  0  0  0  0  0  0  0  0
    1.8501    1.6046    0.0000 C   0  0  0  0  0  0  0  0  0  0  0  0
    1.6072    0.1244    0.0000 C   0  0  0  0  0  0  0  0  0  0  0  0
    0.4467    1.0748    0.0000 C   0  0  0  0  0  0  0  0  0  0  0  0
   -0.9566    0.5450    0.0000 C   0  0  0  0  0  0  0  0  0  0  0  0
   -2.1170    1.4955    0.0000 O   0  0  0  0  0  0  0  0  0  0  0  0
   -1.1995   -0.9352    0.0000 C   0  0  0  0  0  0  0  0  0  0  0  0
   -2.4529   -0.1112    0.0000 C   0  0  0  0  0  0  0  0  0  0  0  0
  2  1  1  6
  2  3  1  0
  3  4  1  0
  4  5  1  0
  5  6  2  0
  5  7  1  0
  2  8  1  0
  8  9  1  6
  9 10  1  0
 11 10  1  6
 11 12  1  0
 12 13  1  1
 13 14  1  1
 13 15  1  0
 16 15  1  1
 16 17  1  0
 17 18  1  0
 18 19  1  1
 18 20  1  0
 20 21  1  0
 21 22  1  0
 22 23  1  6
 22 24  1  0
 24 25  1  6
 25 26  1  0
 26 27  1  1
 26 28  1  0
 28 29  1  6
 28  8  1  0
 28 11  1  0
 24 12  1  0
 22 16  1  0
M  END
>  <MS_ID>  (239) 
MS0250

>  <SMILES>  (239) 
C[C@H](CCC(=O)F)[C@H]1CC[C@H]2[C@@H]3[C@H](O)C[C@@H]4C[C@H](O)CC[C@]4(C)[C@H]3C[C@H](O)[C@]12C

>  <Structure_dimension>  (239) 
2D

$$$$
MS0251
     RDKit          2D

 34 37  0  0  0  0  0  0  0  0999 V2000
   -2.0431   -4.2971    0.0000 C   0  0  0  0  0  0  0  0  0  0  0  0
   -1.3315   -2.9767    0.0000 C   0  0  0  0  0  0  0  0  0  0  0  0
   -2.1193   -1.7002    0.0000 C   0  0  0  0  0  0  0  0  0  0  0  0
   -3.6187   -1.7442    0.0000 C   0  0  0  0  0  0  0  0  0  0  0  0
   -4.4064   -0.4677    0.0000 C   0  0  0  0  0  0  0  0  0  0  0  0
   -3.6948    0.8528    0.0000 O   0  0  0  0  0  0  0  0  0  0  0  0
   -5.9058   -0.5117    0.0000 N   0  0  0  0  0  0  0  0  0  0  0  0
   -6.6936    0.7648    0.0000 C   0  0  0  0  0  0  0  0  0  0  0  0
   -8.1929    0.7208    0.0000 C   0  0  0  0  0  0  0  0  0  0  0  0
   -8.9807    1.9973    0.0000 S   0  0  0  0  0  0  0  0  0  0  0  0
  -10.2572    1.2096    0.0000 O   0  0  0  0  0  0  0  0  0  0  0  0
   -7.7042    2.7851    0.0000 O   0  0  0  0  0  0  0  0  0  0  0  0
   -9.7684    3.2738    0.0000 O   0  0  0  0  0  0  0  0  0  0  0  0
    0.1678   -2.9327    0.0000 C   0  0  0  0  0  0  0  0  0  0  0  0
    1.0847   -4.1198    0.0000 C   0  0  0  0  0  0  0  0  0  0  0  0
    2.4971   -3.6147    0.0000 C   0  0  0  0  0  0  0  0  0  0  0  0
    2.4531   -2.1153    0.0000 C   0  0  0  0  0  0  0  0  0  0  0  0
    3.5379   -1.0794    0.0000 C   0  0  0  0  0  0  0  0  0  0  0  0
    4.9775   -1.5009    0.0000 C   0  0  0  0  0  0  0  0  0  0  0  0
    5.3322   -2.9583    0.0000 O   0  0  0  0  0  0  0  0  0  0  0  0
    6.0623   -0.4649    0.0000 C   0  0  0  0  0  0  0  0  0  0  0  0
    5.7075    0.9925    0.0000 C   0  0  0  0  0  0  0  0  0  0  0  0
    6.7923    2.0285    0.0000 C   0  0  0  0  0  0  0  0  0  0  0  0
    6.4376    3.4859    0.0000 C   0  0  0  0  0  0  0  0  0  0  0  0
    7.5224    4.5219    0.0000 O   0  0  0  0  0  0  0  0  0  0  0  0
    4.9980    3.9074    0.0000 C   0  0  0  0  0  0  0  0  0  0  0  0
    3.9132    2.8715    0.0000 C   0  0  0  0  0  0  0  0  0  0  0  0
    4.2680    1.4140    0.0000 C   0  0  0  0  0  0  0  0  0  0  0  0
    2.8284    1.8355    0.0000 C   0  0  0  0  0  0  0  0  0  0  0  0
    3.1831    0.3781    0.0000 C   0  0  0  0  0  0  0  0  0  0  0  0
    1.7436    0.7996    0.0000 C   0  0  0  0  0  0  0  0  0  0  0  0
    0.6588   -0.2364    0.0000 C   0  0  0  0  0  0  0  0  0  0  0  0
    1.0135   -1.6938    0.0000 C   0  0  0  0  0  0  0  0  0  0  0  0
   -0.4622   -1.4251    0.0000 C   0  0  0  0  0  0  0  0  0  0  0  0
  2  1  1  6
  2  3  1  0
  3  4  1  0
  4  5  1  0
  5  6  2  0
  5  7  1  0
  7  8  1  0
  8  9  1  0
  9 10  1  0
 10 11  2  0
 10 12  2  0
 10 13  1  0
  2 14  1  0
 14 15  1  6
 15 16  1  0
 17 16  1  6
 17 18  1  0
 18 19  1  1
 19 20  1  6
 19 21  1  0
 22 21  1  1
 22 23  1  0
 23 24  1  0
 24 25  1  1
 24 26  1  0
 26 27  1  0
 27 28  1  0
 28 29  1  6
 28 30  1  0
 30 31  1  6
 31 32  1  0
 32 33  1  0
 33 34  1  6
 33 14  1  0
 33 17  1  0
 30 18  1  0
 28 22  1  0
M  END
>  <MS_ID>  (240) 
MS0251

>  <SMILES>  (240) 
C[C@H](CCC(=O)NCCS(=O)(=O)O)[C@H]1CC[C@H]2[C@@H]3[C@@H](O)C[C@@H]4C[C@H](O)CC[C@]4(C)[C@H]3CC[C@]12C

>  <Structure_dimension>  (240) 
2D

$$$$
MS0252
     RDKit          2D

 33 36  0  0  0  0  0  0  0  0999 V2000
  -10.7745    2.9828    0.0000 C   0  0  0  0  0  0  0  0  0  0  0  0
   -9.2765    2.9064    0.0000 O   0  0  0  0  0  0  0  0  0  0  0  0
   -8.5936    1.5708    0.0000 C   0  0  0  0  0  0  0  0  0  0  0  0
   -7.0956    1.4944    0.0000 C   0  0  0  0  0  0  0  0  0  0  0  0
   -6.4128    0.1588    0.0000 N   0  0  0  0  0  0  0  0  0  0  0  0
   -4.9147    0.0823    0.0000 C   0  0  0  0  0  0  0  0  0  0  0  0
   -4.0995    1.3415    0.0000 O   0  0  0  0  0  0  0  0  0  0  0  0
   -4.2319   -1.2532    0.0000 C   0  0  0  0  0  0  0  0  0  0  0  0
   -2.7339   -1.3297    0.0000 C   0  0  0  0  0  0  0  0  0  0  0  0
   -2.0510   -2.6653    0.0000 C   0  0  0  0  0  0  0  0  0  0  0  0
   -2.8663   -3.9244    0.0000 C   0  0  0  0  0  0  0  0  0  0  0  0
   -0.5530   -2.7417    0.0000 C   0  0  0  0  0  0  0  0  0  0  0  0
    0.2657   -3.9986    0.0000 C   0  0  0  0  0  0  0  0  0  0  0  0
    1.7140   -3.6084    0.0000 C   0  0  0  0  0  0  0  0  0  0  0  0
    1.7905   -2.1103    0.0000 C   0  0  0  0  0  0  0  0  0  0  0  0
    2.9549   -1.1648    0.0000 C   0  0  0  0  0  0  0  0  0  0  0  0
    4.3560   -1.7004    0.0000 C   0  0  0  0  0  0  0  0  0  0  0  0
    4.5927   -3.1816    0.0000 O   0  0  0  0  0  0  0  0  0  0  0  0
    5.5204   -0.7548    0.0000 C   0  0  0  0  0  0  0  0  0  0  0  0
    5.2838    0.7264    0.0000 C   0  0  0  0  0  0  0  0  0  0  0  0
    6.4482    1.6720    0.0000 C   0  0  0  0  0  0  0  0  0  0  0  0
    6.2115    3.1532    0.0000 C   0  0  0  0  0  0  0  0  0  0  0  0
    7.3759    4.0988    0.0000 O   0  0  0  0  0  0  0  0  0  0  0  0
    4.8104    3.6888    0.0000 C   0  0  0  0  0  0  0  0  0  0  0  0
    3.6460    2.7432    0.0000 C   0  0  0  0  0  0  0  0  0  0  0  0
    3.8827    1.2620    0.0000 C   0  0  0  0  0  0  0  0  0  0  0  0
    2.4816    1.7977    0.0000 C   0  0  0  0  0  0  0  0  0  0  0  0
    2.7182    0.3165    0.0000 C   0  0  0  0  0  0  0  0  0  0  0  0
    1.3171    0.8521    0.0000 C   0  0  0  0  0  0  0  0  0  0  0  0
    0.1527   -0.0935    0.0000 C   0  0  0  0  0  0  0  0  0  0  0  0
   -1.2484    0.4421    0.0000 O   0  0  0  0  0  0  0  0  0  0  0  0
    0.3894   -1.5747    0.0000 C   0  0  0  0  0  0  0  0  0  0  0  0
   -1.0600   -1.1885    0.0000 C   0  0  0  0  0  0  0  0  0  0  0  0
  1  2  1  0
  2  3  1  0
  3  4  1  0
  4  5  1  0
  5  6  1  0
  6  7  2  0
  6  8  1  0
  8  9  1  0
  9 10  1  0
 10 11  1  6
 10 12  1  0
 12 13  1  6
 13 14  1  0
 15 14  1  6
 15 16  1  0
 16 17  1  1
 17 18  1  1
 17 19  1  0
 20 19  1  1
 20 21  1  0
 21 22  1  0
 22 23  1  1
 22 24  1  0
 24 25  1  0
 25 26  1  0
 26 27  1  6
 26 28  1  0
 28 29  1  6
 29 30  1  0
 30 31  1  1
 30 32  1  0
 32 33  1  6
 32 12  1  0
 32 15  1  0
 28 16  1  0
 26 20  1  0
M  END
>  <MS_ID>  (241) 
MS0252

>  <SMILES>  (241) 
COCCNC(=O)CC[C@@H](C)[C@H]1CC[C@H]2[C@@H]3[C@H](O)C[C@@H]4C[C@H](O)CC[C@]4(C)[C@H]3C[C@H](O)[C@]12C

>  <Structure_dimension>  (241) 
2D

$$$$
MS0254
     RDKit          2D

 30 34  0  0  0  0  0  0  0  0999 V2000
   -5.5110    2.0247    0.0000 C   0  0  0  0  0  0  0  0  0  0  0  0
   -4.3303    1.0995    0.0000 C   0  0  0  0  0  0  0  0  0  0  0  0
   -4.5412   -0.3856    0.0000 C   0  0  0  0  0  0  0  0  0  0  0  0
   -5.9328   -0.9455    0.0000 C   0  0  0  0  0  0  0  0  0  0  0  0
   -6.1437   -2.4306    0.0000 C   0  0  0  0  0  0  0  0  0  0  0  0
   -4.9630   -3.3558    0.0000 O   0  0  0  0  0  0  0  0  0  0  0  0
   -7.5353   -2.9905    0.0000 O   0  0  0  0  0  0  0  0  0  0  0  0
   -2.9388    1.6595    0.0000 C   0  0  0  0  0  0  0  0  0  0  0  0
   -2.5738    3.1144    0.0000 C   0  0  0  0  0  0  0  0  0  0  0  0
   -1.0773    3.2169    0.0000 C   0  0  0  0  0  0  0  0  0  0  0  0
   -0.5174    1.8253    0.0000 C   0  0  0  0  0  0  0  0  0  0  0  0
    0.5261    2.9028    0.0000 C   0  0  0  0  0  0  0  0  0  0  0  0
    0.8914    1.3102    0.0000 C   0  0  0  0  0  0  0  0  0  0  0  0
    2.0419    2.2728    0.0000 C   0  0  0  0  0  0  0  0  0  0  0  0
    3.4507    1.7577    0.0000 C   0  0  0  0  0  0  0  0  0  0  0  0
    3.7090    0.2801    0.0000 C   0  0  0  0  0  0  0  0  0  0  0  0
    5.1178   -0.2349    0.0000 C   0  0  0  0  0  0  0  0  0  0  0  0
    6.6178   -0.2371    0.0000 C   0  0  0  0  0  0  0  0  0  0  0  0
    5.3804    1.2419    0.0000 C   0  0  0  0  0  0  0  0  0  0  0  0
    5.3762   -1.7125    0.0000 C   0  0  0  0  0  0  0  0  0  0  0  0
    6.7850   -2.2276    0.0000 O   0  0  0  0  0  0  0  0  0  0  0  0
    4.2257   -2.6750    0.0000 C   0  0  0  0  0  0  0  0  0  0  0  0
    2.8169   -2.1600    0.0000 C   0  0  0  0  0  0  0  0  0  0  0  0
    2.5586   -0.6824    0.0000 C   0  0  0  0  0  0  0  0  0  0  0  0
    1.4081   -1.6449    0.0000 C   0  0  0  0  0  0  0  0  0  0  0  0
    1.1498   -0.1674    0.0000 C   0  0  0  0  0  0  0  0  0  0  0  0
   -0.0007   -1.1299    0.0000 C   0  0  0  0  0  0  0  0  0  0  0  0
   -1.4095   -0.6148    0.0000 C   0  0  0  0  0  0  0  0  0  0  0  0
   -1.6678    0.8628    0.0000 C   0  0  0  0  0  0  0  0  0  0  0  0
   -2.9126    0.0258    0.0000 C   0  0  0  0  0  0  0  0  0  0  0  0
  2  1  1  1
  2  3  1  0
  3  4  1  0
  4  5  1  0
  5  6  2  0
  5  7  1  0
  2  8  1  0
  8  9  1  1
  9 10  1  0
 10 11  1  0
 11 12  1  6
 11 13  1  0
 13 14  1  6
 14 15  1  0
 16 15  1  1
 16 17  1  0
 17 18  1  0
 17 19  1  0
 17 20  1  0
 20 21  1  1
 20 22  1  0
 22 23  1  0
 24 23  1  6
 24 25  1  0
 26 25  1  1
 26 27  1  0
 27 28  1  0
 28 29  1  0
 29 30  1  1
 29  8  1  0
 29 11  1  0
 26 13  1  0
 24 16  1  0
 26 24  1  0
M  END
>  <MS_ID>  (242) 
MS0254

>  <SMILES>  (242) 
C[C@H](CCC(=O)O)[C@H]1CC[C@@]2(C)[C@@H]3CC[C@H]4C(C)(C)[C@@H](O)CC[C@@]45C[C@@]35CC[C@]12C

>  <Structure_dimension>  (242) 
2D

$$$$
MS0255
     RDKit          2D

 29 32  0  0  0  0  0  0  0  0999 V2000
   -4.5534   -2.6812    0.0000 C   0  0  0  0  0  0  0  0  0  0  0  0
   -3.4378   -1.6786    0.0000 C   0  0  0  0  0  0  0  0  0  0  0  0
   -3.7483   -0.2111    0.0000 C   0  0  0  0  0  0  0  0  0  0  0  0
   -5.1744    0.2538    0.0000 C   0  0  0  0  0  0  0  0  0  0  0  0
   -5.4850    1.7213    0.0000 C   0  0  0  0  0  0  0  0  0  0  0  0
   -4.3693    2.7239    0.0000 O   0  0  0  0  0  0  0  0  0  0  0  0
   -6.9111    2.1861    0.0000 C   0  0  0  0  0  0  0  0  0  0  0  0
   -7.2216    3.6536    0.0000 O   0  0  0  0  0  0  0  0  0  0  0  0
   -2.0116   -2.1434    0.0000 C   0  0  0  0  0  0  0  0  0  0  0  0
   -1.5494   -3.5704    0.0000 C   0  0  0  0  0  0  0  0  0  0  0  0
   -0.0494   -3.5718    0.0000 C   0  0  0  0  0  0  0  0  0  0  0  0
    0.4155   -2.1456    0.0000 C   0  0  0  0  0  0  0  0  0  0  0  0
    1.7863   -1.5368    0.0000 C   0  0  0  0  0  0  0  0  0  0  0  0
    2.9990   -2.4196    0.0000 C   0  0  0  0  0  0  0  0  0  0  0  0
    4.3699   -1.8107    0.0000 C   0  0  0  0  0  0  0  0  0  0  0  0
    4.5281   -0.3191    0.0000 C   0  0  0  0  0  0  0  0  0  0  0  0
    5.8990    0.2898    0.0000 C   0  0  0  0  0  0  0  0  0  0  0  0
    6.0571    1.7814    0.0000 C   0  0  0  0  0  0  0  0  0  0  0  0
    7.4280    2.3902    0.0000 O   0  0  0  0  0  0  0  0  0  0  0  0
    4.8444    2.6642    0.0000 C   0  0  0  0  0  0  0  0  0  0  0  0
    3.4735    2.0553    0.0000 C   0  0  0  0  0  0  0  0  0  0  0  0
    3.3154    0.5637    0.0000 C   0  0  0  0  0  0  0  0  0  0  0  0
    2.1026    1.4465    0.0000 C   0  0  0  0  0  0  0  0  0  0  0  0
    1.9445   -0.0451    0.0000 C   0  0  0  0  0  0  0  0  0  0  0  0
    0.7318    0.8376    0.0000 C   0  0  0  0  0  0  0  0  0  0  0  0
   -0.6391    0.2288    0.0000 C   0  0  0  0  0  0  0  0  0  0  0  0
   -1.8518    1.1116    0.0000 O   0  0  0  0  0  0  0  0  0  0  0  0
   -0.7973   -1.2628    0.0000 C   0  0  0  0  0  0  0  0  0  0  0  0
   -2.0956   -0.5116    0.0000 C   0  0  0  0  0  0  0  0  0  0  0  0
  2  1  1  6
  2  3  1  0
  3  4  1  0
  4  5  1  0
  5  6  2  0
  5  7  1  0
  7  8  1  0
  2  9  1  0
  9 10  1  6
 10 11  1  0
 12 11  1  6
 12 13  1  0
 13 14  1  1
 14 15  1  0
 16 15  1  1
 16 17  1  0
 17 18  1  0
 18 19  1  1
 18 20  1  0
 20 21  1  0
 21 22  1  0
 22 23  1  6
 22 24  1  0
 24 25  1  6
 25 26  1  0
 26 27  1  6
 26 28  1  0
 28 29  1  6
 28  9  1  0
 28 12  1  0
 24 13  1  0
 22 16  1  0
M  END
>  <MS_ID>  (243) 
MS0255

>  <SMILES>  (243) 
C[C@H](CCC(=O)CO)[C@H]1CC[C@H]2[C@@H]3CC[C@@H]4C[C@H](O)CC[C@]4(C)[C@H]3C[C@@H](O)[C@]12C

>  <Structure_dimension>  (243) 
2D

$$$$
MS0256
     RDKit          2D

 29 32  0  0  0  0  0  0  0  0999 V2000
   -5.0303   -2.1373    0.0000 C   0  0  0  0  0  0  0  0  0  0  0  0
   -3.8594   -1.1998    0.0000 C   0  0  0  0  0  0  0  0  0  0  0  0
   -4.0858    0.2830    0.0000 C   0  0  0  0  0  0  0  0  0  0  0  0
   -5.4831    0.8284    0.0000 C   0  0  0  0  0  0  0  0  0  0  0  0
   -5.7095    2.3112    0.0000 C   0  0  0  0  0  0  0  0  0  0  0  0
   -4.5386    3.2487    0.0000 O   0  0  0  0  0  0  0  0  0  0  0  0
   -7.1069    2.8565    0.0000 O   0  0  0  0  0  0  0  0  0  0  0  0
   -2.4620   -1.7451    0.0000 C   0  0  0  0  0  0  0  0  0  0  0  0
   -2.0818   -3.1961    0.0000 C   0  0  0  0  0  0  0  0  0  0  0  0
   -0.5844   -3.2830    0.0000 C   0  0  0  0  0  0  0  0  0  0  0  0
   -0.0390   -1.8856    0.0000 C   0  0  0  0  0  0  0  0  0  0  0  0
    1.3643   -1.3559    0.0000 C   0  0  0  0  0  0  0  0  0  0  0  0
    2.5248   -2.3063    0.0000 C   0  0  0  0  0  0  0  0  0  0  0  0
    2.2819   -3.7865    0.0000 O   0  0  0  0  0  0  0  0  0  0  0  0
    3.9281   -1.7765    0.0000 C   0  0  0  0  0  0  0  0  0  0  0  0
    4.1710   -0.2963    0.0000 C   0  0  0  0  0  0  0  0  0  0  0  0
    5.5743    0.2334    0.0000 C   0  0  0  0  0  0  0  0  0  0  0  0
    5.8172    1.7136    0.0000 C   0  0  0  0  0  0  0  0  0  0  0  0
    7.2205    2.2434    0.0000 N   0  0  0  0  0  0  0  0  0  0  0  0
    4.6568    2.6641    0.0000 C   0  0  0  0  0  0  0  0  0  0  0  0
    3.2534    2.1343    0.0000 C   0  0  0  0  0  0  0  0  0  0  0  0
    3.0105    0.6541    0.0000 C   0  0  0  0  0  0  0  0  0  0  0  0
    1.8501    1.6046    0.0000 C   0  0  0  0  0  0  0  0  0  0  0  0
    1.6072    0.1244    0.0000 C   0  0  0  0  0  0  0  0  0  0  0  0
    0.4467    1.0748    0.0000 C   0  0  0  0  0  0  0  0  0  0  0  0
   -0.9566    0.5450    0.0000 C   0  0  0  0  0  0  0  0  0  0  0  0
   -2.1170    1.4955    0.0000 O   0  0  0  0  0  0  0  0  0  0  0  0
   -1.1995   -0.9352    0.0000 C   0  0  0  0  0  0  0  0  0  0  0  0
   -2.4529   -0.1112    0.0000 C   0  0  0  0  0  0  0  0  0  0  0  0
  2  1  1  6
  2  3  1  0
  3  4  1  0
  4  5  1  0
  5  6  2  0
  5  7  1  0
  2  8  1  0
  8  9  1  6
  9 10  1  0
 11 10  1  6
 11 12  1  0
 12 13  1  1
 13 14  1  6
 13 15  1  0
 16 15  1  1
 16 17  1  0
 17 18  1  0
 18 19  1  1
 18 20  1  0
 20 21  1  0
 21 22  1  0
 22 23  1  6
 22 24  1  0
 24 25  1  6
 25 26  1  0
 26 27  1  6
 26 28  1  0
 28 29  1  6
 28  8  1  0
 28 11  1  0
 24 12  1  0
 22 16  1  0
M  END
>  <MS_ID>  (244) 
MS0256

>  <SMILES>  (244) 
C[C@H](CCC(=O)O)[C@H]1CC[C@H]2[C@@H]3[C@@H](O)C[C@@H]4C[C@H](N)CC[C@]4(C)[C@H]3C[C@@H](O)[C@]12C

>  <Structure_dimension>  (244) 
2D

$$$$
MS0257
     RDKit          2D

 31 34  0  0  0  0  0  0  0  0999 V2000
   -6.2983   -1.8943    0.0000 C   0  0  0  0  0  0  0  0  0  0  0  0
   -5.0623   -1.0445    0.0000 C   0  0  0  0  0  0  0  0  0  0  0  0
   -5.1802    0.4509    0.0000 C   0  0  0  0  0  0  0  0  0  0  0  0
   -6.5342    1.0964    0.0000 C   0  0  0  0  0  0  0  0  0  0  0  0
   -6.6522    2.5917    0.0000 C   0  0  0  0  0  0  0  0  0  0  0  0
   -5.4162    3.4416    0.0000 O   0  0  0  0  0  0  0  0  0  0  0  0
   -8.0062    3.2373    0.0000 O   0  0  0  0  0  0  0  0  0  0  0  0
   -3.7083   -1.6900    0.0000 C   0  0  0  0  0  0  0  0  0  0  0  0
   -3.4346   -3.1648    0.0000 C   0  0  0  0  0  0  0  0  0  0  0  0
   -1.9474   -3.3603    0.0000 C   0  0  0  0  0  0  0  0  0  0  0  0
   -1.3019   -2.0063    0.0000 C   0  0  0  0  0  0  0  0  0  0  0  0
    0.1362   -1.5800    0.0000 C   0  0  0  0  0  0  0  0  0  0  0  0
    1.2245   -2.6123    0.0000 C   0  0  0  0  0  0  0  0  0  0  0  0
    2.6626   -2.1860    0.0000 C   0  0  0  0  0  0  0  0  0  0  0  0
    3.0125   -0.7274    0.0000 C   0  0  0  0  0  0  0  0  0  0  0  0
    4.4507   -0.3011    0.0000 C   0  0  0  0  0  0  0  0  0  0  0  0
    4.8006    1.1575    0.0000 C   0  0  0  0  0  0  0  0  0  0  0  0
    6.2387    1.5838    0.0000 O   0  0  0  0  0  0  0  0  0  0  0  0
    7.3270    0.5515    0.0000 S   0  0  0  0  0  0  0  0  0  0  0  0
    6.2946   -0.5368    0.0000 O   0  0  0  0  0  0  0  0  0  0  0  0
    8.3593    1.6397    0.0000 O   0  0  0  0  0  0  0  0  0  0  0  0
    8.4152   -0.4809    0.0000 O   0  0  0  0  0  0  0  0  0  0  0  0
    3.7123    2.1898    0.0000 C   0  0  0  0  0  0  0  0  0  0  0  0
    2.2742    1.7635    0.0000 C   0  0  0  0  0  0  0  0  0  0  0  0
    1.9243    0.3049    0.0000 C   0  0  0  0  0  0  0  0  0  0  0  0
    0.8360    1.3372    0.0000 C   0  0  0  0  0  0  0  0  0  0  0  0
    0.4861   -0.1214    0.0000 C   0  0  0  0  0  0  0  0  0  0  0  0
   -0.6021    0.9109    0.0000 C   0  0  0  0  0  0  0  0  0  0  0  0
   -2.0403    0.4846    0.0000 C   0  0  0  0  0  0  0  0  0  0  0  0
   -2.3902   -0.9740    0.0000 C   0  0  0  0  0  0  0  0  0  0  0  0
   -3.5804   -0.0611    0.0000 C   0  0  0  0  0  0  0  0  0  0  0  0
  2  1  1  6
  2  3  1  0
  3  4  1  0
  4  5  1  0
  5  6  2  0
  5  7  1  0
  2  8  1  0
  8  9  1  6
  9 10  1  0
 11 10  1  6
 11 12  1  0
 12 13  1  1
 13 14  1  0
 15 14  1  1
 15 16  1  0
 16 17  1  0
 17 18  1  6
 18 19  1  0
 19 20  2  0
 19 21  2  0
 19 22  1  0
 17 23  1  0
 23 24  1  0
 24 25  1  0
 25 26  1  6
 25 27  1  0
 27 28  1  6
 28 29  1  0
 29 30  1  0
 30 31  1  6
 30  8  1  0
 30 11  1  0
 27 12  1  0
 25 15  1  0
M  END
>  <MS_ID>  (245) 
MS0257

>  <SMILES>  (245) 
C[C@H](CCC(=O)O)[C@H]1CC[C@H]2[C@@H]3CC[C@@H]4C[C@@H](OS(=O)(=O)O)CC[C@]4(C)[C@H]3CC[C@]12C

>  <Structure_dimension>  (245) 
2D

$$$$
MS0258
     RDKit          2D

 41 45  0  0  0  0  0  0  0  0999 V2000
   -7.8790   -2.1838    0.0000 C   0  0  0  0  0  0  0  0  0  0  0  0
   -6.7258   -1.2247    0.0000 C   0  0  0  0  0  0  0  0  0  0  0  0
   -6.9798    0.2537    0.0000 C   0  0  0  0  0  0  0  0  0  0  0  0
   -8.3871    0.7728    0.0000 C   0  0  0  0  0  0  0  0  0  0  0  0
   -8.6411    2.2512    0.0000 C   0  0  0  0  0  0  0  0  0  0  0  0
   -7.4878    3.2103    0.0000 O   0  0  0  0  0  0  0  0  0  0  0  0
  -10.0484    2.7703    0.0000 O   0  0  0  0  0  0  0  0  0  0  0  0
   -5.3185   -1.7438    0.0000 C   0  0  0  0  0  0  0  0  0  0  0  0
   -4.9113   -3.1875    0.0000 C   0  0  0  0  0  0  0  0  0  0  0  0
   -3.4125   -3.2464    0.0000 C   0  0  0  0  0  0  0  0  0  0  0  0
   -2.8933   -1.8391    0.0000 C   0  0  0  0  0  0  0  0  0  0  0  0
   -1.5001   -1.2833    0.0000 C   0  0  0  0  0  0  0  0  0  0  0  0
   -0.3221   -2.2119    0.0000 C   0  0  0  0  0  0  0  0  0  0  0  0
   -0.5373   -3.6964    0.0000 O   0  0  0  0  0  0  0  0  0  0  0  0
    1.0711   -1.6561    0.0000 C   0  0  0  0  0  0  0  0  0  0  0  0
    1.2863   -0.1716    0.0000 C   0  0  0  0  0  0  0  0  0  0  0  0
    2.6796    0.3843    0.0000 C   0  0  0  0  0  0  0  0  0  0  0  0
    2.8948    1.8687    0.0000 C   0  0  0  0  0  0  0  0  0  0  0  0
    4.2880    2.4246    0.0000 O   0  0  0  0  0  0  0  0  0  0  0  0
    5.4660    1.4959    0.0000 C   0  0  0  0  0  0  0  0  0  0  0  0
    5.2508    0.0115    0.0000 O   0  0  0  0  0  0  0  0  0  0  0  0
    6.4287   -0.9172    0.0000 C   0  0  0  0  0  0  0  0  0  0  0  0
    6.2135   -2.4016    0.0000 C   0  0  0  0  0  0  0  0  0  0  0  0
    7.3915   -3.3303    0.0000 O   0  0  0  0  0  0  0  0  0  0  0  0
    4.8203   -2.9575    0.0000 O   0  0  0  0  0  0  0  0  0  0  0  0
    7.8219   -0.3613    0.0000 C   0  0  0  0  0  0  0  0  0  0  0  0
    8.9999   -1.2900    0.0000 O   0  0  0  0  0  0  0  0  0  0  0  0
    8.0372    1.1232    0.0000 C   0  0  0  0  0  0  0  0  0  0  0  0
    9.4304    1.6790    0.0000 O   0  0  0  0  0  0  0  0  0  0  0  0
    6.8592    2.0518    0.0000 C   0  0  0  0  0  0  0  0  0  0  0  0
    7.0744    3.5363    0.0000 O   0  0  0  0  0  0  0  0  0  0  0  0
    1.7168    2.7974    0.0000 C   0  0  0  0  0  0  0  0  0  0  0  0
    0.3236    2.2415    0.0000 C   0  0  0  0  0  0  0  0  0  0  0  0
    0.1084    0.7571    0.0000 C   0  0  0  0  0  0  0  0  0  0  0  0
   -1.0696    1.6857    0.0000 C   0  0  0  0  0  0  0  0  0  0  0  0
   -1.2848    0.2012    0.0000 C   0  0  0  0  0  0  0  0  0  0  0  0
   -2.4628    1.1298    0.0000 C   0  0  0  0  0  0  0  0  0  0  0  0
   -3.8560    0.5740    0.0000 C   0  0  0  0  0  0  0  0  0  0  0  0
   -5.0340    1.5026    0.0000 O   0  0  0  0  0  0  0  0  0  0  0  0
   -4.0713   -0.9105    0.0000 C   0  0  0  0  0  0  0  0  0  0  0  0
   -5.3399   -0.1101    0.0000 C   0  0  0  0  0  0  0  0  0  0  0  0
  2  1  1  6
  2  3  1  0
  3  4  1  0
  4  5  1  0
  5  6  2  0
  5  7  1  0
  2  8  1  0
  8  9  1  6
  9 10  1  0
 11 10  1  6
 11 12  1  0
 12 13  1  1
 13 14  1  1
 13 15  1  0
 16 15  1  1
 16 17  1  0
 17 18  1  0
 18 19  1  1
 20 19  1  1
 20 21  1  0
 21 22  1  0
 22 23  1  1
 23 24  2  0
 23 25  1  0
 22 26  1  0
 26 27  1  6
 26 28  1  0
 28 29  1  6
 28 30  1  0
 30 31  1  6
 18 32  1  0
 32 33  1  0
 33 34  1  0
 34 35  1  6
 34 36  1  0
 36 37  1  6
 37 38  1  0
 38 39  1  1
 38 40  1  0
 40 41  1  6
 40  8  1  0
 40 11  1  0
 36 12  1  0
 34 16  1  0
 30 20  1  0
M  END
>  <MS_ID>  (246) 
MS0258

>  <SMILES>  (246) 
C[C@H](CCC(=O)O)[C@H]1CC[C@H]2[C@@H]3[C@H](O)C[C@@H]4C[C@H](O[C@@H]5O[C@H](C(=O)O)[C@@H](O)[C@@H](O)[C@H]5O)CC[C@]4(C)[C@H]3C[C@H](O)[C@]12C

>  <Structure_dimension>  (246) 
2D

$$$$
MS0259
     RDKit          2D

 30 33  0  0  0  0  0  0  0  0999 V2000
   -4.5685   -2.6908    0.0000 C   0  0  0  0  0  0  0  0  0  0  0  0
   -3.4838   -1.6548    0.0000 C   0  0  0  0  0  0  0  0  0  0  0  0
   -3.8388   -0.1974    0.0000 C   0  0  0  0  0  0  0  0  0  0  0  0
   -5.2784    0.2240    0.0000 C   0  0  0  0  0  0  0  0  0  0  0  0
   -5.6333    1.6814    0.0000 C   0  0  0  0  0  0  0  0  0  0  0  0
   -4.5486    2.7174    0.0000 O   0  0  0  0  0  0  0  0  0  0  0  0
   -7.0729    2.1027    0.0000 N   0  0  0  0  0  0  0  0  0  0  0  0
   -7.4279    3.5601    0.0000 O   0  0  0  0  0  0  0  0  0  0  0  0
   -2.0442   -2.0761    0.0000 C   0  0  0  0  0  0  0  0  0  0  0  0
   -1.5389   -3.4884    0.0000 C   0  0  0  0  0  0  0  0  0  0  0  0
   -0.0395   -3.4442    0.0000 C   0  0  0  0  0  0  0  0  0  0  0  0
    0.3818   -2.0046    0.0000 C   0  0  0  0  0  0  0  0  0  0  0  0
    1.7336   -1.3544    0.0000 C   0  0  0  0  0  0  0  0  0  0  0  0
    2.9725   -2.1999    0.0000 C   0  0  0  0  0  0  0  0  0  0  0  0
    2.8597   -3.6957    0.0000 O   0  0  0  0  0  0  0  0  0  0  0  0
    4.3243   -1.5497    0.0000 C   0  0  0  0  0  0  0  0  0  0  0  0
    4.4371   -0.0540    0.0000 C   0  0  0  0  0  0  0  0  0  0  0  0
    5.7888    0.5962    0.0000 C   0  0  0  0  0  0  0  0  0  0  0  0
    5.9016    2.0920    0.0000 C   0  0  0  0  0  0  0  0  0  0  0  0
    7.2534    2.7422    0.0000 O   0  0  0  0  0  0  0  0  0  0  0  0
    4.6627    2.9375    0.0000 C   0  0  0  0  0  0  0  0  0  0  0  0
    3.3109    2.2873    0.0000 C   0  0  0  0  0  0  0  0  0  0  0  0
    3.1981    0.7916    0.0000 C   0  0  0  0  0  0  0  0  0  0  0  0
    1.9591    1.6371    0.0000 C   0  0  0  0  0  0  0  0  0  0  0  0
    1.8464    0.1414    0.0000 C   0  0  0  0  0  0  0  0  0  0  0  0
    0.6074    0.9869    0.0000 C   0  0  0  0  0  0  0  0  0  0  0  0
   -0.7444    0.3367    0.0000 C   0  0  0  0  0  0  0  0  0  0  0  0
   -1.9833    1.1823    0.0000 O   0  0  0  0  0  0  0  0  0  0  0  0
   -0.8572   -1.1590    0.0000 C   0  0  0  0  0  0  0  0  0  0  0  0
   -2.1777   -0.4476    0.0000 C   0  0  0  0  0  0  0  0  0  0  0  0
  2  1  1  6
  2  3  1  0
  3  4  1  0
  4  5  1  0
  5  6  2  0
  5  7  1  0
  7  8  1  0
  2  9  1  0
  9 10  1  6
 10 11  1  0
 12 11  1  6
 12 13  1  0
 13 14  1  1
 14 15  1  1
 14 16  1  0
 17 16  1  1
 17 18  1  0
 18 19  1  0
 19 20  1  1
 19 21  1  0
 21 22  1  0
 22 23  1  0
 23 24  1  6
 23 25  1  0
 25 26  1  6
 26 27  1  0
 27 28  1  1
 27 29  1  0
 29 30  1  6
 29  9  1  0
 29 12  1  0
 25 13  1  0
 23 17  1  0
M  END
>  <MS_ID>  (247) 
MS0259

>  <SMILES>  (247) 
C[C@H](CCC(=O)NO)[C@H]1CC[C@H]2[C@@H]3[C@H](O)C[C@@H]4C[C@H](O)CC[C@]4(C)[C@H]3C[C@H](O)[C@]12C

>  <Structure_dimension>  (247) 
2D

$$$$
MS0260
     RDKit          2D

 28 31  0  0  0  0  0  0  0  0999 V2000
   -5.0096   -2.1352    0.0000 C   0  0  0  0  0  0  0  0  0  0  0  0
   -3.8132   -1.2303    0.0000 C   0  0  0  0  0  0  0  0  0  0  0  0
   -3.9987    0.2582    0.0000 C   0  0  0  0  0  0  0  0  0  0  0  0
   -5.3805    0.8418    0.0000 C   0  0  0  0  0  0  0  0  0  0  0  0
   -5.5659    2.3303    0.0000 C   0  0  0  0  0  0  0  0  0  0  0  0
   -6.9477    2.9140    0.0000 O   0  0  0  0  0  0  0  0  0  0  0  0
   -4.3695    3.2351    0.0000 S   0  0  0  0  0  0  0  0  0  0  0  0
   -2.4315   -1.8140    0.0000 C   0  0  0  0  0  0  0  0  0  0  0  0
   -2.0914   -3.2749    0.0000 C   0  0  0  0  0  0  0  0  0  0  0  0
   -0.5969   -3.4030    0.0000 C   0  0  0  0  0  0  0  0  0  0  0  0
   -0.0133   -2.0212    0.0000 C   0  0  0  0  0  0  0  0  0  0  0  0
    1.4041   -1.5304    0.0000 C   0  0  0  0  0  0  0  0  0  0  0  0
    2.5379   -2.5125    0.0000 C   0  0  0  0  0  0  0  0  0  0  0  0
    3.9554   -2.0216    0.0000 C   0  0  0  0  0  0  0  0  0  0  0  0
    4.2390   -0.5487    0.0000 C   0  0  0  0  0  0  0  0  0  0  0  0
    5.6564   -0.0578    0.0000 C   0  0  0  0  0  0  0  0  0  0  0  0
    5.9400    1.4151    0.0000 C   0  0  0  0  0  0  0  0  0  0  0  0
    7.3574    1.9060    0.0000 O   0  0  0  0  0  0  0  0  0  0  0  0
    4.8062    2.3972    0.0000 C   0  0  0  0  0  0  0  0  0  0  0  0
    3.3888    1.9064    0.0000 C   0  0  0  0  0  0  0  0  0  0  0  0
    3.1052    0.4334    0.0000 C   0  0  0  0  0  0  0  0  0  0  0  0
    1.9714    1.4155    0.0000 C   0  0  0  0  0  0  0  0  0  0  0  0
    1.6878   -0.0574    0.0000 C   0  0  0  0  0  0  0  0  0  0  0  0
    0.5540    0.9246    0.0000 C   0  0  0  0  0  0  0  0  0  0  0  0
   -0.8635    0.4338    0.0000 C   0  0  0  0  0  0  0  0  0  0  0  0
   -1.9973    1.4159    0.0000 O   0  0  0  0  0  0  0  0  0  0  0  0
   -1.1471   -1.0392    0.0000 C   0  0  0  0  0  0  0  0  0  0  0  0
   -2.3773   -0.1810    0.0000 C   0  0  0  0  0  0  0  0  0  0  0  0
  2  1  1  6
  2  3  1  0
  3  4  1  0
  4  5  1  0
  5  6  2  0
  5  7  1  0
  2  8  1  0
  8  9  1  6
  9 10  1  0
 11 10  1  6
 11 12  1  0
 12 13  1  1
 13 14  1  0
 15 14  1  1
 15 16  1  0
 16 17  1  0
 17 18  1  1
 17 19  1  0
 19 20  1  0
 20 21  1  0
 21 22  1  6
 21 23  1  0
 23 24  1  6
 24 25  1  0
 25 26  1  6
 25 27  1  0
 27 28  1  6
 27  8  1  0
 27 11  1  0
 23 12  1  0
 21 15  1  0
M  END
>  <MS_ID>  (248) 
MS0260

>  <SMILES>  (248) 
C[C@H](CCC(=O)S)[C@H]1CC[C@H]2[C@@H]3CC[C@@H]4C[C@H](O)CC[C@]4(C)[C@H]3C[C@@H](O)[C@]12C

>  <Structure_dimension>  (248) 
2D

$$$$
MS0261
     RDKit          2D

 32 35  0  0  0  0  0  0  0  0999 V2000
   -6.1853   -1.9897    0.0000 C   0  0  0  0  0  0  0  0  0  0  0  0
   -4.9559   -1.1303    0.0000 C   0  0  0  0  0  0  0  0  0  0  0  0
   -5.0854    0.3641    0.0000 C   0  0  0  0  0  0  0  0  0  0  0  0
   -6.4444    0.9991    0.0000 C   0  0  0  0  0  0  0  0  0  0  0  0
   -6.5740    2.4935    0.0000 C   0  0  0  0  0  0  0  0  0  0  0  0
   -5.3445    3.3529    0.0000 O   0  0  0  0  0  0  0  0  0  0  0  0
   -7.9329    3.1285    0.0000 O   0  0  0  0  0  0  0  0  0  0  0  0
   -3.5969   -1.7653    0.0000 C   0  0  0  0  0  0  0  0  0  0  0  0
   -3.3119   -3.2380    0.0000 C   0  0  0  0  0  0  0  0  0  0  0  0
   -1.8232   -3.4219    0.0000 C   0  0  0  0  0  0  0  0  0  0  0  0
   -1.1882   -2.0630    0.0000 C   0  0  0  0  0  0  0  0  0  0  0  0
    0.2466   -1.6256    0.0000 C   0  0  0  0  0  0  0  0  0  0  0  0
    1.3428   -2.6494    0.0000 C   0  0  0  0  0  0  0  0  0  0  0  0
    2.7776   -2.2120    0.0000 C   0  0  0  0  0  0  0  0  0  0  0  0
    3.1162   -0.7507    0.0000 C   0  0  0  0  0  0  0  0  0  0  0  0
    4.5510   -0.3133    0.0000 C   0  0  0  0  0  0  0  0  0  0  0  0
    4.8896    1.1480    0.0000 C   0  0  0  0  0  0  0  0  0  0  0  0
    6.3244    1.5854    0.0000 O   0  0  0  0  0  0  0  0  0  0  0  0
    7.4206    0.5615    0.0000 S   0  0  0  0  0  0  0  0  0  0  0  0
    6.3967   -0.5347    0.0000 O   0  0  0  0  0  0  0  0  0  0  0  0
    8.4445    1.6578    0.0000 O   0  0  0  0  0  0  0  0  0  0  0  0
    8.5168   -0.4623    0.0000 O   0  0  0  0  0  0  0  0  0  0  0  0
    3.7934    2.1718    0.0000 C   0  0  0  0  0  0  0  0  0  0  0  0
    2.3586    1.7344    0.0000 C   0  0  0  0  0  0  0  0  0  0  0  0
    2.0200    0.2731    0.0000 C   0  0  0  0  0  0  0  0  0  0  0  0
    0.9238    1.2970    0.0000 C   0  0  0  0  0  0  0  0  0  0  0  0
    0.5852   -0.1643    0.0000 C   0  0  0  0  0  0  0  0  0  0  0  0
   -0.5110    0.8596    0.0000 C   0  0  0  0  0  0  0  0  0  0  0  0
   -1.9458    0.4222    0.0000 C   0  0  0  0  0  0  0  0  0  0  0  0
   -3.0421    1.4460    0.0000 O   0  0  0  0  0  0  0  0  0  0  0  0
   -2.2844   -1.0391    0.0000 C   0  0  0  0  0  0  0  0  0  0  0  0
   -3.4817   -0.1354    0.0000 C   0  0  0  0  0  0  0  0  0  0  0  0
  2  1  1  6
  2  3  1  0
  3  4  1  0
  4  5  1  0
  5  6  2  0
  5  7  1  0
  2  8  1  0
  8  9  1  6
  9 10  1  0
 11 10  1  6
 11 12  1  0
 12 13  1  1
 13 14  1  0
 15 14  1  1
 15 16  1  0
 16 17  1  0
 17 18  1  1
 18 19  1  0
 19 20  2  0
 19 21  2  0
 19 22  1  0
 17 23  1  0
 23 24  1  0
 24 25  1  0
 25 26  1  6
 25 27  1  0
 27 28  1  6
 28 29  1  0
 29 30  1  6
 29 31  1  0
 31 32  1  6
 31  8  1  0
 31 11  1  0
 27 12  1  0
 25 15  1  0
M  END
>  <MS_ID>  (249) 
MS0261

>  <SMILES>  (249) 
C[C@H](CCC(=O)O)[C@H]1CC[C@H]2[C@@H]3CC[C@@H]4C[C@H](OS(=O)(=O)O)CC[C@]4(C)[C@H]3C[C@@H](O)[C@]12C

>  <Structure_dimension>  (249) 
2D

$$$$
MS0262
     RDKit          2D

 28 31  0  0  0  0  0  0  0  0999 V2000
   -5.1275   -2.0302    0.0000 C   0  0  0  0  0  0  0  0  0  0  0  0
   -3.9468   -1.1050    0.0000 C   0  0  0  0  0  0  0  0  0  0  0  0
   -4.1576    0.3801    0.0000 C   0  0  0  0  0  0  0  0  0  0  0  0
   -5.5492    0.9401    0.0000 C   0  0  0  0  0  0  0  0  0  0  0  0
   -5.7600    2.4252    0.0000 C   0  0  0  0  0  0  0  0  0  0  0  0
   -7.1516    2.9851    0.0000 O   0  0  0  0  0  0  0  0  0  0  0  0
   -4.5793    3.3503    0.0000 S   0  0  0  0  0  0  0  0  0  0  0  0
   -2.5552   -1.6650    0.0000 C   0  0  0  0  0  0  0  0  0  0  0  0
   -2.1903   -3.1199    0.0000 C   0  0  0  0  0  0  0  0  0  0  0  0
   -0.6938   -3.2225    0.0000 C   0  0  0  0  0  0  0  0  0  0  0  0
   -0.1339   -1.8309    0.0000 C   0  0  0  0  0  0  0  0  0  0  0  0
    1.2750   -1.3159    0.0000 C   0  0  0  0  0  0  0  0  0  0  0  0
    2.4254   -2.2785    0.0000 C   0  0  0  0  0  0  0  0  0  0  0  0
    2.1670   -3.7560    0.0000 O   0  0  0  0  0  0  0  0  0  0  0  0
    3.8342   -1.7635    0.0000 C   0  0  0  0  0  0  0  0  0  0  0  0
    4.0926   -0.2859    0.0000 C   0  0  0  0  0  0  0  0  0  0  0  0
    5.5014    0.2291    0.0000 C   0  0  0  0  0  0  0  0  0  0  0  0
    5.7598    1.7067    0.0000 C   0  0  0  0  0  0  0  0  0  0  0  0
    7.1687    2.2217    0.0000 O   0  0  0  0  0  0  0  0  0  0  0  0
    4.6094    2.6692    0.0000 C   0  0  0  0  0  0  0  0  0  0  0  0
    3.2006    2.1542    0.0000 C   0  0  0  0  0  0  0  0  0  0  0  0
    2.9422    0.6767    0.0000 C   0  0  0  0  0  0  0  0  0  0  0  0
    1.7918    1.6392    0.0000 C   0  0  0  0  0  0  0  0  0  0  0  0
    1.5334    0.1617    0.0000 C   0  0  0  0  0  0  0  0  0  0  0  0
    0.3830    1.1242    0.0000 C   0  0  0  0  0  0  0  0  0  0  0  0
   -1.0259    0.6093    0.0000 C   0  0  0  0  0  0  0  0  0  0  0  0
   -1.2843   -0.8683    0.0000 C   0  0  0  0  0  0  0  0  0  0  0  0
   -2.5290   -0.0313    0.0000 C   0  0  0  0  0  0  0  0  0  0  0  0
  2  1  1  6
  2  3  1  0
  3  4  1  0
  4  5  1  0
  5  6  2  0
  5  7  1  0
  2  8  1  0
  8  9  1  6
  9 10  1  0
 11 10  1  6
 11 12  1  0
 12 13  1  1
 13 14  1  1
 13 15  1  0
 16 15  1  1
 16 17  1  0
 17 18  1  0
 18 19  1  6
 18 20  1  0
 20 21  1  0
 21 22  1  0
 22 23  1  6
 22 24  1  0
 24 25  1  6
 25 26  1  0
 26 27  1  0
 27 28  1  6
 27  8  1  0
 27 11  1  0
 24 12  1  0
 22 16  1  0
M  END
>  <MS_ID>  (250) 
MS0262

>  <SMILES>  (250) 
C[C@H](CCC(=O)S)[C@H]1CC[C@H]2[C@@H]3[C@H](O)C[C@@H]4C[C@@H](O)CC[C@]4(C)[C@H]3CC[C@]12C

>  <Structure_dimension>  (250) 
2D

$$$$
MS0263
     RDKit          2D

 33 36  0  0  0  0  0  0  0  0999 V2000
   -2.3545   -4.2141    0.0000 C   0  0  0  0  0  0  0  0  0  0  0  0
   -1.5746   -2.9328    0.0000 C   0  0  0  0  0  0  0  0  0  0  0  0
   -2.2943   -1.6167    0.0000 C   0  0  0  0  0  0  0  0  0  0  0  0
   -3.7939   -1.5819    0.0000 C   0  0  0  0  0  0  0  0  0  0  0  0
   -4.5135   -0.2658    0.0000 C   0  0  0  0  0  0  0  0  0  0  0  0
   -3.7336    1.0155    0.0000 O   0  0  0  0  0  0  0  0  0  0  0  0
   -6.0131   -0.2310    0.0000 N   0  0  0  0  0  0  0  0  0  0  0  0
   -6.7328    1.0851    0.0000 C   0  0  0  0  0  0  0  0  0  0  0  0
   -8.2324    1.1199    0.0000 C   0  0  0  0  0  0  0  0  0  0  0  0
   -8.9520    2.4360    0.0000 C   0  0  0  0  0  0  0  0  0  0  0  0
   -8.1721    3.7173    0.0000 O   0  0  0  0  0  0  0  0  0  0  0  0
  -10.4516    2.4708    0.0000 O   0  0  0  0  0  0  0  0  0  0  0  0
   -0.0750   -2.9676    0.0000 C   0  0  0  0  0  0  0  0  0  0  0  0
    0.7783   -4.2012    0.0000 C   0  0  0  0  0  0  0  0  0  0  0  0
    2.2152   -3.7709    0.0000 C   0  0  0  0  0  0  0  0  0  0  0  0
    2.2500   -2.2713    0.0000 C   0  0  0  0  0  0  0  0  0  0  0  0
    3.3877   -1.2938    0.0000 C   0  0  0  0  0  0  0  0  0  0  0  0
    4.8032   -1.7903    0.0000 C   0  0  0  0  0  0  0  0  0  0  0  0
    5.9409   -0.8127    0.0000 C   0  0  0  0  0  0  0  0  0  0  0  0
    5.6632    0.6614    0.0000 C   0  0  0  0  0  0  0  0  0  0  0  0
    6.8009    1.6389    0.0000 C   0  0  0  0  0  0  0  0  0  0  0  0
    6.5231    3.1130    0.0000 C   0  0  0  0  0  0  0  0  0  0  0  0
    7.6608    4.0905    0.0000 O   0  0  0  0  0  0  0  0  0  0  0  0
    5.1077    3.6095    0.0000 C   0  0  0  0  0  0  0  0  0  0  0  0
    3.9700    2.6319    0.0000 C   0  0  0  0  0  0  0  0  0  0  0  0
    4.2477    1.1579    0.0000 C   0  0  0  0  0  0  0  0  0  0  0  0
    2.8323    1.6544    0.0000 C   0  0  0  0  0  0  0  0  0  0  0  0
    3.1100    0.1803    0.0000 C   0  0  0  0  0  0  0  0  0  0  0  0
    1.6946    0.6768    0.0000 C   0  0  0  0  0  0  0  0  0  0  0  0
    0.5569   -0.3008    0.0000 C   0  0  0  0  0  0  0  0  0  0  0  0
   -0.8586    0.1957    0.0000 O   0  0  0  0  0  0  0  0  0  0  0  0
    0.8346   -1.7748    0.0000 C   0  0  0  0  0  0  0  0  0  0  0  0
   -0.6250   -1.4290    0.0000 C   0  0  0  0  0  0  0  0  0  0  0  0
  2  1  1  6
  2  3  1  0
  3  4  1  0
  4  5  1  0
  5  6  2  0
  5  7  1  0
  7  8  1  0
  8  9  1  0
  9 10  1  0
 10 11  2  0
 10 12  1  0
  2 13  1  0
 13 14  1  6
 14 15  1  0
 16 15  1  6
 16 17  1  0
 17 18  1  1
 18 19  1  0
 20 19  1  1
 20 21  1  0
 21 22  1  0
 22 23  1  1
 22 24  1  0
 24 25  1  0
 25 26  1  0
 26 27  1  6
 26 28  1  0
 28 29  1  6
 29 30  1  0
 30 31  1  1
 30 32  1  0
 32 33  1  6
 32 13  1  0
 32 16  1  0
 28 17  1  0
 26 20  1  0
M  END
>  <MS_ID>  (251) 
MS0263

>  <SMILES>  (251) 
C[C@H](CCC(=O)NCCC(=O)O)[C@H]1CC[C@H]2[C@@H]3CC[C@@H]4C[C@H](O)CC[C@]4(C)[C@H]3C[C@H](O)[C@]12C

>  <Structure_dimension>  (251) 
2D

$$$$
MS0264
     RDKit          2D

 31 34  0  0  0  0  0  0  0  0999 V2000
   -4.7226   -2.8601    0.0000 C   0  0  0  0  0  0  0  0  0  0  0  0
   -3.8722   -1.6245    0.0000 C   0  0  0  0  0  0  0  0  0  0  0  0
   -4.5171   -0.2702    0.0000 C   0  0  0  0  0  0  0  0  0  0  0  0
   -6.0124   -0.1515    0.0000 C   0  0  0  0  0  0  0  0  0  0  0  0
   -6.6573    1.2028    0.0000 C   0  0  0  0  0  0  0  0  0  0  0  0
   -5.8069    2.4384    0.0000 O   0  0  0  0  0  0  0  0  0  0  0  0
   -8.1526    1.3214    0.0000 O   0  0  0  0  0  0  0  0  0  0  0  0
   -2.3769   -1.7431    0.0000 C   0  0  0  0  0  0  0  0  0  0  0  0
   -1.5940   -3.0226    0.0000 C   0  0  0  0  0  0  0  0  0  0  0  0
   -0.1352   -2.6734    0.0000 C   0  0  0  0  0  0  0  0  0  0  0  0
   -0.0166   -1.1781    0.0000 C   0  0  0  0  0  0  0  0  0  0  0  0
    1.1741   -0.2657    0.0000 C   0  0  0  0  0  0  0  0  0  0  0  0
    2.5595   -0.8406    0.0000 C   0  0  0  0  0  0  0  0  0  0  0  0
    2.7543   -2.3279    0.0000 O   0  0  0  0  0  0  0  0  0  0  0  0
    4.1398   -2.9028    0.0000 S   0  0  0  0  0  0  0  0  0  0  0  0
    4.7147   -1.5174    0.0000 O   0  0  0  0  0  0  0  0  0  0  0  0
    3.5649   -4.2883    0.0000 O   0  0  0  0  0  0  0  0  0  0  0  0
    5.5252   -3.4778    0.0000 O   0  0  0  0  0  0  0  0  0  0  0  0
    3.7501    0.0717    0.0000 C   0  0  0  0  0  0  0  0  0  0  0  0
    3.5553    1.5590    0.0000 C   0  0  0  0  0  0  0  0  0  0  0  0
    4.7459    2.4714    0.0000 C   0  0  0  0  0  0  0  0  0  0  0  0
    4.5511    3.9587    0.0000 C   0  0  0  0  0  0  0  0  0  0  0  0
    3.1656    4.5336    0.0000 C   0  0  0  0  0  0  0  0  0  0  0  0
    1.9750    3.6213    0.0000 C   0  0  0  0  0  0  0  0  0  0  0  0
    2.1698    2.1340    0.0000 C   0  0  0  0  0  0  0  0  0  0  0  0
    0.7844    2.7089    0.0000 C   0  0  0  0  0  0  0  0  0  0  0  0
    0.9792    1.2216    0.0000 C   0  0  0  0  0  0  0  0  0  0  0  0
   -0.4062    1.7965    0.0000 C   0  0  0  0  0  0  0  0  0  0  0  0
   -1.5968    0.8841    0.0000 C   0  0  0  0  0  0  0  0  0  0  0  0
   -1.4020   -0.6032    0.0000 C   0  0  0  0  0  0  0  0  0  0  0  0
   -2.8400   -0.1762    0.0000 C   0  0  0  0  0  0  0  0  0  0  0  0
  2  1  1  6
  2  3  1  0
  3  4  1  0
  4  5  1  0
  5  6  2  0
  5  7  1  0
  2  8  1  0
  8  9  1  6
  9 10  1  0
 11 10  1  6
 11 12  1  0
 12 13  1  1
 13 14  1  1
 14 15  1  0
 15 16  2  0
 15 17  2  0
 15 18  1  0
 13 19  1  0
 20 19  1  1
 20 21  1  0
 21 22  1  0
 22 23  1  0
 23 24  1  0
 24 25  1  0
 25 26  1  6
 25 27  1  0
 27 28  1  6
 28 29  1  0
 29 30  1  0
 30 31  1  6
 30  8  1  0
 30 11  1  0
 27 12  1  0
 25 20  1  0
M  END
>  <MS_ID>  (252) 
MS0264

>  <SMILES>  (252) 
C[C@H](CCC(=O)O)[C@H]1CC[C@H]2[C@@H]3[C@H](OS(=O)(=O)O)C[C@@H]4CCCC[C@]4(C)[C@H]3CC[C@]12C

>  <Structure_dimension>  (252) 
2D

$$$$
MS0265
     RDKit          2D

 29 32  0  0  0  0  0  0  0  0999 V2000
   -4.1361   -2.8778    0.0000 C   0  0  0  0  0  0  0  0  0  0  0  0
   -3.1227   -1.7719    0.0000 C   0  0  0  0  0  0  0  0  0  0  0  0
   -3.5738   -0.3413    0.0000 C   0  0  0  0  0  0  0  0  0  0  0  0
   -5.0383   -0.0167    0.0000 C   0  0  0  0  0  0  0  0  0  0  0  0
   -5.4894    1.4138    0.0000 C   0  0  0  0  0  0  0  0  0  0  0  0
   -4.4761    2.5198    0.0000 O   0  0  0  0  0  0  0  0  0  0  0  0
   -6.9539    1.7384    0.0000 C   0  0  0  0  0  0  0  0  0  0  0  0
   -7.4050    3.1690    0.0000 O   0  0  0  0  0  0  0  0  0  0  0  0
   -1.6583   -2.0965    0.0000 C   0  0  0  0  0  0  0  0  0  0  0  0
   -1.0601   -3.4720    0.0000 C   0  0  0  0  0  0  0  0  0  0  0  0
    0.4330   -3.3282    0.0000 C   0  0  0  0  0  0  0  0  0  0  0  0
    0.7576   -1.8638    0.0000 C   0  0  0  0  0  0  0  0  0  0  0  0
    2.0631   -1.1251    0.0000 C   0  0  0  0  0  0  0  0  0  0  0  0
    3.3556   -1.8863    0.0000 C   0  0  0  0  0  0  0  0  0  0  0  0
    3.3426   -3.3863    0.0000 O   0  0  0  0  0  0  0  0  0  0  0  0
    4.6611   -1.1476    0.0000 C   0  0  0  0  0  0  0  0  0  0  0  0
    4.6741    0.3523    0.0000 C   0  0  0  0  0  0  0  0  0  0  0  0
    5.9796    1.0910    0.0000 C   0  0  0  0  0  0  0  0  0  0  0  0
    5.9926    2.5910    0.0000 C   0  0  0  0  0  0  0  0  0  0  0  0
    4.7002    3.3522    0.0000 C   0  0  0  0  0  0  0  0  0  0  0  0
    3.3947    2.6135    0.0000 C   0  0  0  0  0  0  0  0  0  0  0  0
    3.3816    1.1136    0.0000 C   0  0  0  0  0  0  0  0  0  0  0  0
    2.0891    1.8748    0.0000 C   0  0  0  0  0  0  0  0  0  0  0  0
    2.0761    0.3749    0.0000 C   0  0  0  0  0  0  0  0  0  0  0  0
    0.7836    1.1361    0.0000 C   0  0  0  0  0  0  0  0  0  0  0  0
   -0.5219    0.3974    0.0000 C   0  0  0  0  0  0  0  0  0  0  0  0
   -1.8143    1.1587    0.0000 O   0  0  0  0  0  0  0  0  0  0  0  0
   -0.5349   -1.1025    0.0000 C   0  0  0  0  0  0  0  0  0  0  0  0
   -1.8998   -0.4805    0.0000 C   0  0  0  0  0  0  0  0  0  0  0  0
  2  1  1  6
  2  3  1  0
  3  4  1  0
  4  5  1  0
  5  6  2  0
  5  7  1  0
  7  8  1  0
  2  9  1  0
  9 10  1  6
 10 11  1  0
 12 11  1  6
 12 13  1  0
 13 14  1  1
 14 15  1  6
 14 16  1  0
 17 16  1  1
 17 18  1  0
 18 19  1  0
 19 20  1  0
 20 21  1  0
 21 22  1  0
 22 23  1  6
 22 24  1  0
 24 25  1  6
 25 26  1  0
 26 27  1  1
 26 28  1  0
 28 29  1  6
 28  9  1  0
 28 12  1  0
 24 13  1  0
 22 17  1  0
M  END
>  <MS_ID>  (253) 
MS0265

>  <SMILES>  (253) 
C[C@H](CCC(=O)CO)[C@H]1CC[C@H]2[C@@H]3[C@@H](O)C[C@@H]4CCCC[C@]4(C)[C@H]3C[C@H](O)[C@]12C

>  <Structure_dimension>  (253) 
2D

$$$$
MS0266
     RDKit          2D

 33 36  0  0  0  0  0  0  0  0999 V2000
   -2.4823   -4.2429    0.0000 C   0  0  0  0  0  0  0  0  0  0  0  0
   -1.6859   -2.9718    0.0000 C   0  0  0  0  0  0  0  0  0  0  0  0
   -2.3885   -1.6465    0.0000 C   0  0  0  0  0  0  0  0  0  0  0  0
   -3.8876   -1.5924    0.0000 C   0  0  0  0  0  0  0  0  0  0  0  0
   -4.5902   -0.2671    0.0000 C   0  0  0  0  0  0  0  0  0  0  0  0
   -3.7938    1.0040    0.0000 O   0  0  0  0  0  0  0  0  0  0  0  0
   -6.0892   -0.2130    0.0000 N   0  0  0  0  0  0  0  0  0  0  0  0
   -6.7918    1.1123    0.0000 C   0  0  0  0  0  0  0  0  0  0  0  0
   -8.2908    1.1664    0.0000 C   0  0  0  0  0  0  0  0  0  0  0  0
   -8.9935    2.4917    0.0000 O   0  0  0  0  0  0  0  0  0  0  0  0
   -5.9954    2.3834    0.0000 C   0  0  0  0  0  0  0  0  0  0  0  0
   -4.4964    2.3293    0.0000 O   0  0  0  0  0  0  0  0  0  0  0  0
   -6.6980    3.7087    0.0000 O   0  0  0  0  0  0  0  0  0  0  0  0
   -0.1869   -3.0259    0.0000 C   0  0  0  0  0  0  0  0  0  0  0  0
    0.6504   -4.2705    0.0000 C   0  0  0  0  0  0  0  0  0  0  0  0
    2.0928   -3.8588    0.0000 C   0  0  0  0  0  0  0  0  0  0  0  0
    2.1469   -2.3597    0.0000 C   0  0  0  0  0  0  0  0  0  0  0  0
    3.2972   -1.3969    0.0000 C   0  0  0  0  0  0  0  0  0  0  0  0
    4.7061   -1.9116    0.0000 C   0  0  0  0  0  0  0  0  0  0  0  0
    5.8563   -0.9488    0.0000 C   0  0  0  0  0  0  0  0  0  0  0  0
    5.5976    0.5287    0.0000 C   0  0  0  0  0  0  0  0  0  0  0  0
    6.7478    1.4915    0.0000 C   0  0  0  0  0  0  0  0  0  0  0  0
    6.4891    2.9690    0.0000 C   0  0  0  0  0  0  0  0  0  0  0  0
    7.6393    3.9318    0.0000 O   0  0  0  0  0  0  0  0  0  0  0  0
    5.0802    3.4837    0.0000 C   0  0  0  0  0  0  0  0  0  0  0  0
    3.9300    2.5209    0.0000 C   0  0  0  0  0  0  0  0  0  0  0  0
    4.1887    1.0434    0.0000 C   0  0  0  0  0  0  0  0  0  0  0  0
    2.7797    1.5581    0.0000 C   0  0  0  0  0  0  0  0  0  0  0  0
    3.0385    0.0806    0.0000 C   0  0  0  0  0  0  0  0  0  0  0  0
    1.6295    0.5953    0.0000 C   0  0  0  0  0  0  0  0  0  0  0  0
    0.4793   -0.3675    0.0000 C   0  0  0  0  0  0  0  0  0  0  0  0
    0.7380   -1.8450    0.0000 C   0  0  0  0  0  0  0  0  0  0  0  0
   -0.7170   -1.4804    0.0000 C   0  0  0  0  0  0  0  0  0  0  0  0
  2  1  1  6
  2  3  1  0
  3  4  1  0
  4  5  1  0
  5  6  2  0
  5  7  1  0
  7  8  1  0
  8  9  1  1
  9 10  1  0
  8 11  1  0
 11 12  2  0
 11 13  1  0
  2 14  1  0
 14 15  1  6
 15 16  1  0
 17 16  1  6
 17 18  1  0
 18 19  1  1
 19 20  1  0
 21 20  1  1
 21 22  1  0
 22 23  1  0
 23 24  1  1
 23 25  1  0
 25 26  1  0
 26 27  1  0
 27 28  1  6
 27 29  1  0
 29 30  1  6
 30 31  1  0
 31 32  1  0
 32 33  1  6
 32 14  1  0
 32 17  1  0
 29 18  1  0
 27 21  1  0
M  END
>  <MS_ID>  (254) 
MS0266

>  <SMILES>  (254) 
C[C@H](CCC(=O)N[C@@H](CO)C(=O)O)[C@H]1CC[C@H]2[C@@H]3CC[C@@H]4C[C@H](O)CC[C@]4(C)[C@H]3CC[C@]12C

>  <Structure_dimension>  (254) 
2D

$$$$
MS0267
     RDKit          2D

 29 32  0  0  0  0  0  0  0  0999 V2000
   -5.0303   -2.1373    0.0000 C   0  0  0  0  0  0  0  0  0  0  0  0
   -3.8594   -1.1998    0.0000 C   0  0  0  0  0  0  0  0  0  0  0  0
   -4.0858    0.2830    0.0000 C   0  0  0  0  0  0  0  0  0  0  0  0
   -5.4831    0.8284    0.0000 C   0  0  0  0  0  0  0  0  0  0  0  0
   -5.7095    2.3112    0.0000 C   0  0  0  0  0  0  0  0  0  0  0  0
   -4.5386    3.2487    0.0000 O   0  0  0  0  0  0  0  0  0  0  0  0
   -7.1069    2.8565    0.0000 O   0  0  0  0  0  0  0  0  0  0  0  0
   -2.4620   -1.7451    0.0000 C   0  0  0  0  0  0  0  0  0  0  0  0
   -2.0818   -3.1961    0.0000 C   0  0  0  0  0  0  0  0  0  0  0  0
   -0.5844   -3.2830    0.0000 C   0  0  0  0  0  0  0  0  0  0  0  0
   -0.0390   -1.8856    0.0000 C   0  0  0  0  0  0  0  0  0  0  0  0
    1.3643   -1.3559    0.0000 C   0  0  0  0  0  0  0  0  0  0  0  0
    2.5248   -2.3063    0.0000 C   0  0  0  0  0  0  0  0  0  0  0  0
    2.2819   -3.7865    0.0000 O   0  0  0  0  0  0  0  0  0  0  0  0
    3.9281   -1.7765    0.0000 C   0  0  0  0  0  0  0  0  0  0  0  0
    4.1710   -0.2963    0.0000 C   0  0  0  0  0  0  0  0  0  0  0  0
    5.5743    0.2334    0.0000 C   0  0  0  0  0  0  0  0  0  0  0  0
    5.8172    1.7136    0.0000 C   0  0  0  0  0  0  0  0  0  0  0  0
    7.2205    2.2434    0.0000 O   0  0  0  0  0  0  0  0  0  0  0  0
    4.6568    2.6641    0.0000 C   0  0  0  0  0  0  0  0  0  0  0  0
    3.2534    2.1343    0.0000 C   0  0  0  0  0  0  0  0  0  0  0  0
    3.0105    0.6541    0.0000 C   0  0  0  0  0  0  0  0  0  0  0  0
    1.8501    1.6046    0.0000 C   0  0  0  0  0  0  0  0  0  0  0  0
    1.6072    0.1244    0.0000 C   0  0  0  0  0  0  0  0  0  0  0  0
    0.4467    1.0748    0.0000 C   0  0  0  0  0  0  0  0  0  0  0  0
   -0.9566    0.5450    0.0000 C   0  0  0  0  0  0  0  0  0  0  0  0
   -2.1170    1.4955    0.0000 O   0  0  0  0  0  0  0  0  0  0  0  0
   -1.1995   -0.9352    0.0000 C   0  0  0  0  0  0  0  0  0  0  0  0
   -2.4529   -0.1112    0.0000 C   0  0  0  0  0  0  0  0  0  0  0  0
  2  1  1  6
  2  3  1  0
  3  4  1  0
  4  5  1  0
  5  6  2  0
  5  7  1  0
  2  8  1  0
  8  9  1  6
  9 10  1  0
 11 10  1  6
 11 12  1  0
 12 13  1  1
 13 14  1  1
 13 15  1  0
 16 15  1  1
 16 17  1  0
 17 18  1  0
 18 19  2  0
 18 20  1  0
 20 21  1  0
 21 22  1  0
 22 23  1  6
 22 24  1  0
 24 25  1  6
 25 26  1  0
 26 27  2  0
 26 28  1  0
 28 29  1  6
 28  8  1  0
 28 11  1  0
 24 12  1  0
 22 16  1  0
M  END
>  <MS_ID>  (255) 
MS0267

>  <SMILES>  (255) 
C[C@H](CCC(=O)O)[C@H]1CC[C@H]2[C@@H]3[C@H](O)C[C@@H]4CC(=O)CC[C@]4(C)[C@H]3CC(=O)[C@]12C

>  <Structure_dimension>  (255) 
2D

$$$$
MS0268
     RDKit          2D

 29 32  0  0  0  0  0  0  0  0999 V2000
   -5.0303   -2.1373    0.0000 C   0  0  0  0  0  0  0  0  0  0  0  0
   -3.8594   -1.1998    0.0000 C   0  0  0  0  0  0  0  0  0  0  0  0
   -4.0858    0.2830    0.0000 C   0  0  0  0  0  0  0  0  0  0  0  0
   -5.4831    0.8284    0.0000 C   0  0  0  0  0  0  0  0  0  0  0  0
   -5.7095    2.3112    0.0000 C   0  0  0  0  0  0  0  0  0  0  0  0
   -7.1069    2.8565    0.0000 O   0  0  0  0  0  0  0  0  0  0  0  0
   -4.5386    3.2487    0.0000 Cl  0  0  0  0  0  0  0  0  0  0  0  0
   -2.4620   -1.7451    0.0000 C   0  0  0  0  0  0  0  0  0  0  0  0
   -2.0818   -3.1961    0.0000 C   0  0  0  0  0  0  0  0  0  0  0  0
   -0.5844   -3.2830    0.0000 C   0  0  0  0  0  0  0  0  0  0  0  0
   -0.0390   -1.8856    0.0000 C   0  0  0  0  0  0  0  0  0  0  0  0
    1.3643   -1.3559    0.0000 C   0  0  0  0  0  0  0  0  0  0  0  0
    2.5248   -2.3063    0.0000 C   0  0  0  0  0  0  0  0  0  0  0  0
    2.2819   -3.7865    0.0000 O   0  0  0  0  0  0  0  0  0  0  0  0
    3.9281   -1.7765    0.0000 C   0  0  0  0  0  0  0  0  0  0  0  0
    4.1710   -0.2963    0.0000 C   0  0  0  0  0  0  0  0  0  0  0  0
    5.5743    0.2334    0.0000 C   0  0  0  0  0  0  0  0  0  0  0  0
    5.8172    1.7136    0.0000 C   0  0  0  0  0  0  0  0  0  0  0  0
    7.2205    2.2434    0.0000 O   0  0  0  0  0  0  0  0  0  0  0  0
    4.6568    2.6641    0.0000 C   0  0  0  0  0  0  0  0  0  0  0  0
    3.2534    2.1343    0.0000 C   0  0  0  0  0  0  0  0  0  0  0  0
    3.0105    0.6541    0.0000 C   0  0  0  0  0  0  0  0  0  0  0  0
    1.8501    1.6046    0.0000 C   0  0  0  0  0  0  0  0  0  0  0  0
    1.6072    0.1244    0.0000 C   0  0  0  0  0  0  0  0  0  0  0  0
    0.4467    1.0748    0.0000 C   0  0  0  0  0  0  0  0  0  0  0  0
   -0.9566    0.5450    0.0000 C   0  0  0  0  0  0  0  0  0  0  0  0
   -2.1170    1.4955    0.0000 O   0  0  0  0  0  0  0  0  0  0  0  0
   -1.1995   -0.9352    0.0000 C   0  0  0  0  0  0  0  0  0  0  0  0
   -2.4529   -0.1112    0.0000 C   0  0  0  0  0  0  0  0  0  0  0  0
  2  1  1  6
  2  3  1  0
  3  4  1  0
  4  5  1  0
  5  6  2  0
  5  7  1  0
  2  8  1  0
  8  9  1  6
  9 10  1  0
 11 10  1  6
 11 12  1  0
 12 13  1  1
 13 14  1  1
 13 15  1  0
 16 15  1  1
 16 17  1  0
 17 18  1  0
 18 19  1  1
 18 20  1  0
 20 21  1  0
 21 22  1  0
 22 23  1  6
 22 24  1  0
 24 25  1  6
 25 26  1  0
 26 27  1  1
 26 28  1  0
 28 29  1  6
 28  8  1  0
 28 11  1  0
 24 12  1  0
 22 16  1  0
M  END
>  <MS_ID>  (256) 
MS0268

>  <SMILES>  (256) 
C[C@H](CCC(=O)Cl)[C@H]1CC[C@H]2[C@@H]3[C@H](O)C[C@@H]4C[C@H](O)CC[C@]4(C)[C@H]3C[C@H](O)[C@]12C

>  <Structure_dimension>  (256) 
2D

$$$$
MS0269
     RDKit          2D

 36 39  0  0  0  0  0  0  0  0999 V2000
   -2.2860   -4.6911    0.0000 C   0  0  0  0  0  0  0  0  0  0  0  0
   -1.6283   -3.3430    0.0000 C   0  0  0  0  0  0  0  0  0  0  0  0
   -2.4670   -2.0994    0.0000 C   0  0  0  0  0  0  0  0  0  0  0  0
   -3.9634   -2.2039    0.0000 C   0  0  0  0  0  0  0  0  0  0  0  0
   -4.8021   -0.9603    0.0000 C   0  0  0  0  0  0  0  0  0  0  0  0
   -6.2984   -1.0648    0.0000 O   0  0  0  0  0  0  0  0  0  0  0  0
   -4.1444    0.3879    0.0000 O   0  0  0  0  0  0  0  0  0  0  0  0
   -4.9831    1.6315    0.0000 C   0  0  0  0  0  0  0  0  0  0  0  0
   -6.2267    0.7928    0.0000 F   0  0  0  0  0  0  0  0  0  0  0  0
   -3.7395    2.4702    0.0000 F   0  0  0  0  0  0  0  0  0  0  0  0
   -5.8218    2.8751    0.0000 C   0  0  0  0  0  0  0  0  0  0  0  0
   -6.6605    4.1187    0.0000 F   0  0  0  0  0  0  0  0  0  0  0  0
   -7.0654    2.0364    0.0000 F   0  0  0  0  0  0  0  0  0  0  0  0
   -4.5782    3.7138    0.0000 F   0  0  0  0  0  0  0  0  0  0  0  0
   -0.1320   -3.2385    0.0000 C   0  0  0  0  0  0  0  0  0  0  0  0
    0.8321   -4.3876    0.0000 C   0  0  0  0  0  0  0  0  0  0  0  0
    2.2229   -3.8258    0.0000 C   0  0  0  0  0  0  0  0  0  0  0  0
    2.1184   -2.3295    0.0000 C   0  0  0  0  0  0  0  0  0  0  0  0
    3.1605   -1.2505    0.0000 C   0  0  0  0  0  0  0  0  0  0  0  0
    4.6159   -1.6135    0.0000 C   0  0  0  0  0  0  0  0  0  0  0  0
    5.0292   -3.0554    0.0000 O   0  0  0  0  0  0  0  0  0  0  0  0
    5.6580   -0.5346    0.0000 C   0  0  0  0  0  0  0  0  0  0  0  0
    5.2446    0.9073    0.0000 C   0  0  0  0  0  0  0  0  0  0  0  0
    6.2867    1.9863    0.0000 C   0  0  0  0  0  0  0  0  0  0  0  0
    5.8733    3.4282    0.0000 C   0  0  0  0  0  0  0  0  0  0  0  0
    6.9154    4.5071    0.0000 O   0  0  0  0  0  0  0  0  0  0  0  0
    4.4179    3.7912    0.0000 C   0  0  0  0  0  0  0  0  0  0  0  0
    3.3758    2.7123    0.0000 C   0  0  0  0  0  0  0  0  0  0  0  0
    3.7892    1.2703    0.0000 C   0  0  0  0  0  0  0  0  0  0  0  0
    2.3338    1.6333    0.0000 C   0  0  0  0  0  0  0  0  0  0  0  0
    2.7471    0.1914    0.0000 C   0  0  0  0  0  0  0  0  0  0  0  0
    1.2917    0.5544    0.0000 C   0  0  0  0  0  0  0  0  0  0  0  0
    0.2496   -0.5245    0.0000 C   0  0  0  0  0  0  0  0  0  0  0  0
   -1.2058   -0.1615    0.0000 O   0  0  0  0  0  0  0  0  0  0  0  0
    0.6630   -1.9665    0.0000 C   0  0  0  0  0  0  0  0  0  0  0  0
   -0.8224   -1.7576    0.0000 C   0  0  0  0  0  0  0  0  0  0  0  0
  2  1  1  6
  2  3  1  0
  3  4  1  0
  4  5  1  0
  5  6  2  0
  5  7  1  0
  7  8  1  0
  8  9  1  0
  8 10  1  0
  8 11  1  0
 11 12  1  0
 11 13  1  0
 11 14  1  0
  2 15  1  0
 15 16  1  6
 16 17  1  0
 18 17  1  6
 18 19  1  0
 19 20  1  1
 20 21  1  1
 20 22  1  0
 23 22  1  1
 23 24  1  0
 24 25  1  0
 25 26  1  1
 25 27  1  0
 27 28  1  0
 28 29  1  0
 29 30  1  6
 29 31  1  0
 31 32  1  6
 32 33  1  0
 33 34  1  1
 33 35  1  0
 35 36  1  6
 35 15  1  0
 35 18  1  0
 31 19  1  0
 29 23  1  0
M  END
>  <MS_ID>  (257) 
MS0269

>  <SMILES>  (257) 
C[C@H](CCC(=O)OC(F)(F)C(F)(F)F)[C@H]1CC[C@H]2[C@@H]3[C@H](O)C[C@@H]4C[C@H](O)CC[C@]4(C)[C@H]3C[C@H](O)[C@]12C

>  <Structure_dimension>  (257) 
2D

$$$$
MS0270
     RDKit          2D

 36 39  0  0  0  0  0  0  0  0999 V2000
   -4.6059   -3.4945    0.0000 C   0  0  0  0  0  0  0  0  0  0  0  0
   -3.5906   -2.3903    0.0000 C   0  0  0  0  0  0  0  0  0  0  0  0
   -4.0393   -0.9590    0.0000 C   0  0  0  0  0  0  0  0  0  0  0  0
   -5.5031   -0.6318    0.0000 C   0  0  0  0  0  0  0  0  0  0  0  0
   -5.9518    0.7995    0.0000 C   0  0  0  0  0  0  0  0  0  0  0  0
   -4.9365    1.9037    0.0000 O   0  0  0  0  0  0  0  0  0  0  0  0
   -7.4157    1.1266    0.0000 O   0  0  0  0  0  0  0  0  0  0  0  0
   -7.8643    2.5580    0.0000 C   0  0  0  0  0  0  0  0  0  0  0  0
   -9.3282    2.8851    0.0000 C   0  0  0  0  0  0  0  0  0  0  0  0
  -10.3435    1.7809    0.0000 O   0  0  0  0  0  0  0  0  0  0  0  0
   -9.7768    4.3165    0.0000 O   0  0  0  0  0  0  0  0  0  0  0  0
   -2.1267   -2.7175    0.0000 C   0  0  0  0  0  0  0  0  0  0  0  0
   -1.5309   -4.0941    0.0000 C   0  0  0  0  0  0  0  0  0  0  0  0
   -0.0376   -3.9528    0.0000 C   0  0  0  0  0  0  0  0  0  0  0  0
    0.2895   -2.4889    0.0000 C   0  0  0  0  0  0  0  0  0  0  0  0
    1.5963   -1.7525    0.0000 C   0  0  0  0  0  0  0  0  0  0  0  0
    2.8875   -2.5160    0.0000 C   0  0  0  0  0  0  0  0  0  0  0  0
    2.8718   -4.0159    0.0000 O   0  0  0  0  0  0  0  0  0  0  0  0
    4.1943   -1.7796    0.0000 C   0  0  0  0  0  0  0  0  0  0  0  0
    4.2099   -0.2797    0.0000 C   0  0  0  0  0  0  0  0  0  0  0  0
    5.5167    0.4567    0.0000 C   0  0  0  0  0  0  0  0  0  0  0  0
    5.5323    1.9567    0.0000 C   0  0  0  0  0  0  0  0  0  0  0  0
    6.8391    2.6931    0.0000 O   0  0  0  0  0  0  0  0  0  0  0  0
    8.1302    1.9296    0.0000 S   0  0  0  0  0  0  0  0  0  0  0  0
    7.3667    0.6384    0.0000 O   0  0  0  0  0  0  0  0  0  0  0  0
    8.8937    3.2207    0.0000 O   0  0  0  0  0  0  0  0  0  0  0  0
    9.4214    1.1661    0.0000 O   0  0  0  0  0  0  0  0  0  0  0  0
    4.2412    2.7202    0.0000 C   0  0  0  0  0  0  0  0  0  0  0  0
    2.9344    1.9837    0.0000 C   0  0  0  0  0  0  0  0  0  0  0  0
    2.9187    0.4838    0.0000 C   0  0  0  0  0  0  0  0  0  0  0  0
    1.6276    1.2473    0.0000 C   0  0  0  0  0  0  0  0  0  0  0  0
    1.6120   -0.2526    0.0000 C   0  0  0  0  0  0  0  0  0  0  0  0
    0.3208    0.5109    0.0000 C   0  0  0  0  0  0  0  0  0  0  0  0
   -0.9860   -0.2255    0.0000 C   0  0  0  0  0  0  0  0  0  0  0  0
   -1.0016   -1.7254    0.0000 C   0  0  0  0  0  0  0  0  0  0  0  0
   -2.3655   -1.1011    0.0000 C   0  0  0  0  0  0  0  0  0  0  0  0
  2  1  1  6
  2  3  1  0
  3  4  1  0
  4  5  1  0
  5  6  2  0
  5  7  1  0
  7  8  1  0
  8  9  1  0
  9 10  2  0
  9 11  1  0
  2 12  1  0
 12 13  1  6
 13 14  1  0
 15 14  1  6
 15 16  1  0
 16 17  1  1
 17 18  1  6
 17 19  1  0
 20 19  1  1
 20 21  1  0
 21 22  1  0
 22 23  1  1
 23 24  1  0
 24 25  2  0
 24 26  2  0
 24 27  1  0
 22 28  1  0
 28 29  1  0
 29 30  1  0
 30 31  1  6
 30 32  1  0
 32 33  1  6
 33 34  1  0
 34 35  1  0
 35 36  1  6
 35 12  1  0
 35 15  1  0
 32 16  1  0
 30 20  1  0
M  END
>  <MS_ID>  (258) 
MS0270

>  <SMILES>  (258) 
C[C@H](CCC(=O)OCC(=O)O)[C@H]1CC[C@H]2[C@@H]3[C@@H](O)C[C@@H]4C[C@H](OS(=O)(=O)O)CC[C@]4(C)[C@H]3CC[C@]12C

>  <Structure_dimension>  (258) 
2D

$$$$
MS0271
     RDKit          2D

 32 35  0  0  0  0  0  0  0  0999 V2000
   -3.9305   -3.5211    0.0000 C   0  0  0  0  0  0  0  0  0  0  0  0
   -2.9800   -2.3607    0.0000 C   0  0  0  0  0  0  0  0  0  0  0  0
   -3.5096   -0.9573    0.0000 C   0  0  0  0  0  0  0  0  0  0  0  0
   -4.9898   -0.7144    0.0000 C   0  0  0  0  0  0  0  0  0  0  0  0
   -5.5195    0.6890    0.0000 C   0  0  0  0  0  0  0  0  0  0  0  0
   -6.9997    0.9320    0.0000 O   0  0  0  0  0  0  0  0  0  0  0  0
   -4.5690    1.8494    0.0000 O   0  0  0  0  0  0  0  0  0  0  0  0
   -5.0987    3.2528    0.0000 C   0  0  0  0  0  0  0  0  0  0  0  0
   -4.1482    4.4132    0.0000 N   0  0  0  0  0  0  0  0  0  0  0  0
   -6.5789    3.4957    0.0000 O   0  0  0  0  0  0  0  0  0  0  0  0
   -1.4998   -2.6036    0.0000 C   0  0  0  0  0  0  0  0  0  0  0  0
   -0.8263   -3.9440    0.0000 C   0  0  0  0  0  0  0  0  0  0  0  0
    0.6565   -3.7176    0.0000 C   0  0  0  0  0  0  0  0  0  0  0  0
    0.8995   -2.2374    0.0000 C   0  0  0  0  0  0  0  0  0  0  0  0
    2.1621   -1.4275    0.0000 C   0  0  0  0  0  0  0  0  0  0  0  0
    3.4947   -2.1160    0.0000 C   0  0  0  0  0  0  0  0  0  0  0  0
    3.5648   -3.6144    0.0000 O   0  0  0  0  0  0  0  0  0  0  0  0
    4.7573   -1.3061    0.0000 C   0  0  0  0  0  0  0  0  0  0  0  0
    4.6872    0.1922    0.0000 C   0  0  0  0  0  0  0  0  0  0  0  0
    5.9498    1.0021    0.0000 C   0  0  0  0  0  0  0  0  0  0  0  0
    5.8797    2.5005    0.0000 C   0  0  0  0  0  0  0  0  0  0  0  0
    7.1422    3.3104    0.0000 O   0  0  0  0  0  0  0  0  0  0  0  0
    4.5470    3.1890    0.0000 C   0  0  0  0  0  0  0  0  0  0  0  0
    3.2844    2.3791    0.0000 C   0  0  0  0  0  0  0  0  0  0  0  0
    3.3545    0.8807    0.0000 C   0  0  0  0  0  0  0  0  0  0  0  0
    2.0219    1.5692    0.0000 C   0  0  0  0  0  0  0  0  0  0  0  0
    2.0920    0.0708    0.0000 C   0  0  0  0  0  0  0  0  0  0  0  0
    0.7593    0.7593    0.0000 C   0  0  0  0  0  0  0  0  0  0  0  0
   -0.5033   -0.0506    0.0000 C   0  0  0  0  0  0  0  0  0  0  0  0
   -1.8359    0.6379    0.0000 O   0  0  0  0  0  0  0  0  0  0  0  0
   -0.4332   -1.5490    0.0000 C   0  0  0  0  0  0  0  0  0  0  0  0
   -1.8305   -1.0035    0.0000 C   0  0  0  0  0  0  0  0  0  0  0  0
  2  1  1  6
  2  3  1  0
  3  4  1  0
  4  5  1  0
  5  6  2  0
  5  7  1  0
  7  8  1  0
  8  9  1  0
  8 10  2  0
  2 11  1  0
 11 12  1  6
 12 13  1  0
 14 13  1  6
 14 15  1  0
 15 16  1  1
 16 17  1  1
 16 18  1  0
 19 18  1  1
 19 20  1  0
 20 21  1  0
 21 22  1  1
 21 23  1  0
 23 24  1  0
 24 25  1  0
 25 26  1  6
 25 27  1  0
 27 28  1  6
 28 29  1  0
 29 30  1  1
 29 31  1  0
 31 32  1  6
 31 11  1  0
 31 14  1  0
 27 15  1  0
 25 19  1  0
M  END
>  <MS_ID>  (259) 
MS0271

>  <SMILES>  (259) 
C[C@H](CCC(=O)OC(N)=O)[C@H]1CC[C@H]2[C@@H]3[C@H](O)C[C@@H]4C[C@H](O)CC[C@]4(C)[C@H]3C[C@H](O)[C@]12C

>  <Structure_dimension>  (259) 
2D

$$$$
MS0272
     RDKit          2D

 29 32  0  0  0  0  0  0  0  0999 V2000
   -4.5534   -2.6812    0.0000 C   0  0  0  0  0  0  0  0  0  0  0  0
   -3.4378   -1.6786    0.0000 C   0  0  0  0  0  0  0  0  0  0  0  0
   -3.7483   -0.2111    0.0000 C   0  0  0  0  0  0  0  0  0  0  0  0
   -5.1744    0.2538    0.0000 C   0  0  0  0  0  0  0  0  0  0  0  0
   -5.4850    1.7213    0.0000 C   0  0  0  0  0  0  0  0  0  0  0  0
   -4.3693    2.7239    0.0000 O   0  0  0  0  0  0  0  0  0  0  0  0
   -6.9111    2.1861    0.0000 C   0  0  0  0  0  0  0  0  0  0  0  0
   -7.2216    3.6536    0.0000 O   0  0  0  0  0  0  0  0  0  0  0  0
   -2.0116   -2.1434    0.0000 C   0  0  0  0  0  0  0  0  0  0  0  0
   -1.5494   -3.5704    0.0000 C   0  0  0  0  0  0  0  0  0  0  0  0
   -0.0494   -3.5718    0.0000 C   0  0  0  0  0  0  0  0  0  0  0  0
    0.4155   -2.1456    0.0000 C   0  0  0  0  0  0  0  0  0  0  0  0
    1.7863   -1.5368    0.0000 C   0  0  0  0  0  0  0  0  0  0  0  0
    2.9990   -2.4196    0.0000 C   0  0  0  0  0  0  0  0  0  0  0  0
    4.3699   -1.8107    0.0000 C   0  0  0  0  0  0  0  0  0  0  0  0
    4.5281   -0.3191    0.0000 C   0  0  0  0  0  0  0  0  0  0  0  0
    5.8990    0.2898    0.0000 C   0  0  0  0  0  0  0  0  0  0  0  0
    6.0571    1.7814    0.0000 C   0  0  0  0  0  0  0  0  0  0  0  0
    7.4280    2.3902    0.0000 O   0  0  0  0  0  0  0  0  0  0  0  0
    4.8444    2.6642    0.0000 C   0  0  0  0  0  0  0  0  0  0  0  0
    3.4735    2.0553    0.0000 C   0  0  0  0  0  0  0  0  0  0  0  0
    3.3154    0.5637    0.0000 C   0  0  0  0  0  0  0  0  0  0  0  0
    2.1026    1.4465    0.0000 C   0  0  0  0  0  0  0  0  0  0  0  0
    1.9445   -0.0451    0.0000 C   0  0  0  0  0  0  0  0  0  0  0  0
    0.7318    0.8376    0.0000 C   0  0  0  0  0  0  0  0  0  0  0  0
   -0.6391    0.2288    0.0000 C   0  0  0  0  0  0  0  0  0  0  0  0
   -1.8518    1.1116    0.0000 O   0  0  0  0  0  0  0  0  0  0  0  0
   -0.7973   -1.2628    0.0000 C   0  0  0  0  0  0  0  0  0  0  0  0
   -2.0956   -0.5116    0.0000 C   0  0  0  0  0  0  0  0  0  0  0  0
  2  1  1  6
  2  3  1  0
  3  4  1  0
  4  5  1  0
  5  6  2  0
  5  7  1  0
  7  8  1  0
  2  9  1  0
  9 10  1  6
 10 11  1  0
 12 11  1  6
 12 13  1  0
 13 14  1  1
 14 15  1  0
 16 15  1  1
 16 17  1  0
 17 18  1  0
 18 19  1  6
 18 20  1  0
 20 21  1  0
 21 22  1  0
 22 23  1  6
 22 24  1  0
 24 25  1  6
 25 26  1  0
 26 27  1  1
 26 28  1  0
 28 29  1  6
 28  9  1  0
 28 12  1  0
 24 13  1  0
 22 16  1  0
M  END
>  <MS_ID>  (260) 
MS0272

>  <SMILES>  (260) 
C[C@H](CCC(=O)CO)[C@H]1CC[C@H]2[C@@H]3CC[C@@H]4C[C@@H](O)CC[C@]4(C)[C@H]3C[C@H](O)[C@]12C

>  <Structure_dimension>  (260) 
2D

$$$$
MS0273
     RDKit          2D

 34 37  0  0  0  0  0  0  0  0999 V2000
   -3.2164   -3.1141    0.0000 C   0  0  0  0  0  0  0  0  0  0  0  0
   -2.2119   -2.0001    0.0000 C   0  0  0  0  0  0  0  0  0  0  0  0
   -2.6744   -0.5732    0.0000 C   0  0  0  0  0  0  0  0  0  0  0  0
   -4.1414   -0.2602    0.0000 C   0  0  0  0  0  0  0  0  0  0  0  0
   -4.6039    1.1667    0.0000 C   0  0  0  0  0  0  0  0  0  0  0  0
   -3.5994    2.2807    0.0000 O   0  0  0  0  0  0  0  0  0  0  0  0
   -6.0709    1.4796    0.0000 N   0  0  0  0  0  0  0  0  0  0  0  0
   -6.5334    2.9066    0.0000 C   0  0  0  0  0  0  0  0  0  0  0  0
   -7.0754    0.3656    0.0000 C   0  0  0  0  0  0  0  0  0  0  0  0
   -8.5424    0.6786    0.0000 C   0  0  0  0  0  0  0  0  0  0  0  0
   -9.0049    2.1055    0.0000 O   0  0  0  0  0  0  0  0  0  0  0  0
   -9.5469   -0.4354    0.0000 O   0  0  0  0  0  0  0  0  0  0  0  0
   -0.7449   -2.3130    0.0000 C   0  0  0  0  0  0  0  0  0  0  0  0
   -0.1358   -3.6838    0.0000 C   0  0  0  0  0  0  0  0  0  0  0  0
    1.3561   -3.5281    0.0000 C   0  0  0  0  0  0  0  0  0  0  0  0
    1.6690   -2.0611    0.0000 C   0  0  0  0  0  0  0  0  0  0  0  0
    2.9686   -1.3120    0.0000 C   0  0  0  0  0  0  0  0  0  0  0  0
    4.2671   -2.0629    0.0000 C   0  0  0  0  0  0  0  0  0  0  0  0
    4.2660   -3.5629    0.0000 O   0  0  0  0  0  0  0  0  0  0  0  0
    5.5667   -1.3139    0.0000 C   0  0  0  0  0  0  0  0  0  0  0  0
    5.5678    0.1861    0.0000 C   0  0  0  0  0  0  0  0  0  0  0  0
    6.8673    0.9352    0.0000 C   0  0  0  0  0  0  0  0  0  0  0  0
    6.8684    2.4352    0.0000 C   0  0  0  0  0  0  0  0  0  0  0  0
    8.1680    3.1842    0.0000 O   0  0  0  0  0  0  0  0  0  0  0  0
    5.5699    3.1861    0.0000 C   0  0  0  0  0  0  0  0  0  0  0  0
    4.2704    2.4371    0.0000 C   0  0  0  0  0  0  0  0  0  0  0  0
    4.2693    0.9371    0.0000 C   0  0  0  0  0  0  0  0  0  0  0  0
    2.9708    1.6880    0.0000 C   0  0  0  0  0  0  0  0  0  0  0  0
    2.9697    0.1880    0.0000 C   0  0  0  0  0  0  0  0  0  0  0  0
    1.6712    0.9389    0.0000 C   0  0  0  0  0  0  0  0  0  0  0  0
    0.3716    0.1899    0.0000 C   0  0  0  0  0  0  0  0  0  0  0  0
   -0.9269    0.9408    0.0000 O   0  0  0  0  0  0  0  0  0  0  0  0
    0.3705   -1.3101    0.0000 C   0  0  0  0  0  0  0  0  0  0  0  0
   -0.9994   -0.6990    0.0000 C   0  0  0  0  0  0  0  0  0  0  0  0
  2  1  1  6
  2  3  1  0
  3  4  1  0
  4  5  1  0
  5  6  2  0
  5  7  1  0
  7  8  1  0
  7  9  1  0
  9 10  1  0
 10 11  2  0
 10 12  1  0
  2 13  1  0
 13 14  1  6
 14 15  1  0
 16 15  1  6
 16 17  1  0
 17 18  1  1
 18 19  1  1
 18 20  1  0
 21 20  1  1
 21 22  1  0
 22 23  1  0
 23 24  1  1
 23 25  1  0
 25 26  1  0
 26 27  1  0
 27 28  1  6
 27 29  1  0
 29 30  1  6
 30 31  1  0
 31 32  1  1
 31 33  1  0
 33 34  1  6
 33 13  1  0
 33 16  1  0
 29 17  1  0
 27 21  1  0
M  END
>  <MS_ID>  (261) 
MS0273

>  <SMILES>  (261) 
C[C@H](CCC(=O)N(C)CC(=O)O)[C@H]1CC[C@H]2[C@@H]3[C@H](O)C[C@@H]4C[C@H](O)CC[C@]4(C)[C@H]3C[C@H](O)[C@]12C

>  <Structure_dimension>  (261) 
2D

$$$$
MS0274
     RDKit          2D

 33 36  0  0  0  0  0  0  0  0999 V2000
   -3.3094   -3.6711    0.0000 C   0  0  0  0  0  0  0  0  0  0  0  0
   -2.4155   -2.4665    0.0000 C   0  0  0  0  0  0  0  0  0  0  0  0
   -3.0118   -1.0901    0.0000 C   0  0  0  0  0  0  0  0  0  0  0  0
   -4.5019   -0.9183    0.0000 C   0  0  0  0  0  0  0  0  0  0  0  0
   -5.0982    0.4581    0.0000 C   0  0  0  0  0  0  0  0  0  0  0  0
   -4.2043    1.6627    0.0000 O   0  0  0  0  0  0  0  0  0  0  0  0
   -6.5883    0.6300    0.0000 C   0  0  0  0  0  0  0  0  0  0  0  0
   -7.1845    2.0064    0.0000 S   0  0  0  0  0  0  0  0  0  0  0  0
   -8.5609    1.4101    0.0000 O   0  0  0  0  0  0  0  0  0  0  0  0
   -5.8081    2.6026    0.0000 O   0  0  0  0  0  0  0  0  0  0  0  0
   -7.7808    3.3828    0.0000 O   0  0  0  0  0  0  0  0  0  0  0  0
   -0.9254   -2.6383    0.0000 C   0  0  0  0  0  0  0  0  0  0  0  0
   -0.1885   -3.9449    0.0000 C   0  0  0  0  0  0  0  0  0  0  0  0
    1.2818   -3.6478    0.0000 C   0  0  0  0  0  0  0  0  0  0  0  0
    1.4536   -2.1577    0.0000 C   0  0  0  0  0  0  0  0  0  0  0  0
    2.6759   -1.2883    0.0000 C   0  0  0  0  0  0  0  0  0  0  0  0
    4.0400   -1.9122    0.0000 C   0  0  0  0  0  0  0  0  0  0  0  0
    4.1818   -3.4055    0.0000 O   0  0  0  0  0  0  0  0  0  0  0  0
    5.2624   -1.0428    0.0000 C   0  0  0  0  0  0  0  0  0  0  0  0
    5.1206    0.4505    0.0000 C   0  0  0  0  0  0  0  0  0  0  0  0
    6.3430    1.3199    0.0000 C   0  0  0  0  0  0  0  0  0  0  0  0
    6.2013    2.8132    0.0000 C   0  0  0  0  0  0  0  0  0  0  0  0
    7.4236    3.6826    0.0000 O   0  0  0  0  0  0  0  0  0  0  0  0
    4.8372    3.4371    0.0000 C   0  0  0  0  0  0  0  0  0  0  0  0
    3.6148    2.5677    0.0000 C   0  0  0  0  0  0  0  0  0  0  0  0
    3.7565    1.0744    0.0000 C   0  0  0  0  0  0  0  0  0  0  0  0
    2.3925    1.6983    0.0000 C   0  0  0  0  0  0  0  0  0  0  0  0
    2.5342    0.2050    0.0000 C   0  0  0  0  0  0  0  0  0  0  0  0
    1.1701    0.8289    0.0000 C   0  0  0  0  0  0  0  0  0  0  0  0
   -0.0523   -0.0405    0.0000 C   0  0  0  0  0  0  0  0  0  0  0  0
   -1.4164    0.5834    0.0000 O   0  0  0  0  0  0  0  0  0  0  0  0
    0.0895   -1.5338    0.0000 C   0  0  0  0  0  0  0  0  0  0  0  0
   -1.3324   -1.0559    0.0000 C   0  0  0  0  0  0  0  0  0  0  0  0
  2  1  1  6
  2  3  1  0
  3  4  1  0
  4  5  1  0
  5  6  2  0
  5  7  1  0
  7  8  1  0
  8  9  2  0
  8 10  2  0
  8 11  1  0
  2 12  1  0
 12 13  1  6
 13 14  1  0
 15 14  1  6
 15 16  1  0
 16 17  1  1
 17 18  1  1
 17 19  1  0
 20 19  1  1
 20 21  1  0
 21 22  1  0
 22 23  1  1
 22 24  1  0
 24 25  1  0
 25 26  1  0
 26 27  1  6
 26 28  1  0
 28 29  1  6
 29 30  1  0
 30 31  1  1
 30 32  1  0
 32 33  1  6
 32 12  1  0
 32 15  1  0
 28 16  1  0
 26 20  1  0
M  END
>  <MS_ID>  (262) 
MS0274

>  <SMILES>  (262) 
C[C@H](CCC(=O)CS(=O)(=O)O)[C@H]1CC[C@H]2[C@@H]3[C@H](O)C[C@@H]4C[C@H](O)CC[C@]4(C)[C@H]3C[C@H](O)[C@]12C

>  <Structure_dimension>  (262) 
2D

$$$$
MS0275
     RDKit          2D

 33 36  0  0  0  0  0  0  0  0999 V2000
   -5.0246   -2.6773    0.0000 C   0  0  0  0  0  0  0  0  0  0  0  0
   -4.0826   -1.5100    0.0000 C   0  0  0  0  0  0  0  0  0  0  0  0
   -4.6226   -0.1105    0.0000 C   0  0  0  0  0  0  0  0  0  0  0  0
   -6.1045    0.1216    0.0000 C   0  0  0  0  0  0  0  0  0  0  0  0
   -6.6444    1.5210    0.0000 C   0  0  0  0  0  0  0  0  0  0  0  0
   -5.7025    2.6884    0.0000 O   0  0  0  0  0  0  0  0  0  0  0  0
   -8.1264    1.7531    0.0000 O   0  0  0  0  0  0  0  0  0  0  0  0
   -2.6007   -1.7421    0.0000 C   0  0  0  0  0  0  0  0  0  0  0  0
   -1.9174   -3.0774    0.0000 C   0  0  0  0  0  0  0  0  0  0  0  0
   -0.4363   -2.8402    0.0000 C   0  0  0  0  0  0  0  0  0  0  0  0
   -0.2042   -1.3583    0.0000 C   0  0  0  0  0  0  0  0  0  0  0  0
    1.0525   -0.5392    0.0000 C   0  0  0  0  0  0  0  0  0  0  0  0
    2.3901   -1.2179    0.0000 C   0  0  0  0  0  0  0  0  0  0  0  0
    2.4712   -2.7157    0.0000 O   0  0  0  0  0  0  0  0  0  0  0  0
    3.8089   -3.3944    0.0000 S   0  0  0  0  0  0  0  0  0  0  0  0
    4.4876   -2.0567    0.0000 O   0  0  0  0  0  0  0  0  0  0  0  0
    3.1302   -4.7321    0.0000 O   0  0  0  0  0  0  0  0  0  0  0  0
    5.1465   -4.0731    0.0000 O   0  0  0  0  0  0  0  0  0  0  0  0
    3.6467   -0.3988    0.0000 C   0  0  0  0  0  0  0  0  0  0  0  0
    3.5657    1.0990    0.0000 C   0  0  0  0  0  0  0  0  0  0  0  0
    4.8223    1.9182    0.0000 C   0  0  0  0  0  0  0  0  0  0  0  0
    4.7412    3.4160    0.0000 C   0  0  0  0  0  0  0  0  0  0  0  0
    5.9978    4.2351    0.0000 O   0  0  0  0  0  0  0  0  0  0  0  0
    3.4035    4.0947    0.0000 C   0  0  0  0  0  0  0  0  0  0  0  0
    2.1469    3.2755    0.0000 C   0  0  0  0  0  0  0  0  0  0  0  0
    2.2280    1.7777    0.0000 C   0  0  0  0  0  0  0  0  0  0  0  0
    0.8903    2.4564    0.0000 C   0  0  0  0  0  0  0  0  0  0  0  0
    0.9714    0.9586    0.0000 C   0  0  0  0  0  0  0  0  0  0  0  0
   -0.3663    1.6373    0.0000 C   0  0  0  0  0  0  0  0  0  0  0  0
   -1.6229    0.8182    0.0000 C   0  0  0  0  0  0  0  0  0  0  0  0
   -2.9606    1.4969    0.0000 O   0  0  0  0  0  0  0  0  0  0  0  0
   -1.5418   -0.6796    0.0000 C   0  0  0  0  0  0  0  0  0  0  0  0
   -2.9431   -0.1445    0.0000 C   0  0  0  0  0  0  0  0  0  0  0  0
  2  1  1  6
  2  3  1  0
  3  4  1  0
  4  5  1  0
  5  6  2  0
  5  7  1  0
  2  8  1  0
  8  9  1  6
  9 10  1  0
 11 10  1  6
 11 12  1  0
 12 13  1  1
 13 14  1  1
 14 15  1  0
 15 16  2  0
 15 17  2  0
 15 18  1  0
 13 19  1  0
 20 19  1  1
 20 21  1  0
 21 22  1  0
 22 23  2  0
 22 24  1  0
 24 25  1  0
 25 26  1  0
 26 27  1  6
 26 28  1  0
 28 29  1  6
 29 30  1  0
 30 31  1  1
 30 32  1  0
 32 33  1  6
 32  8  1  0
 32 11  1  0
 28 12  1  0
 26 20  1  0
M  END
>  <MS_ID>  (263) 
MS0275

>  <SMILES>  (263) 
C[C@H](CCC(=O)O)[C@H]1CC[C@H]2[C@@H]3[C@H](OS(=O)(=O)O)C[C@@H]4CC(=O)CC[C@]4(C)[C@H]3C[C@H](O)[C@]12C

>  <Structure_dimension>  (263) 
2D

$$$$
MS0276
     RDKit          2D

 36 39  0  0  0  0  0  0  0  0999 V2000
   -1.0047   -4.5176    0.0000 C   0  0  0  0  0  0  0  0  0  0  0  0
   -0.3860   -3.1511    0.0000 C   0  0  0  0  0  0  0  0  0  0  0  0
   -1.2599   -1.9320    0.0000 C   0  0  0  0  0  0  0  0  0  0  0  0
   -2.7527   -2.0794    0.0000 C   0  0  0  0  0  0  0  0  0  0  0  0
   -3.6267   -0.8603    0.0000 C   0  0  0  0  0  0  0  0  0  0  0  0
   -3.0079    0.5061    0.0000 O   0  0  0  0  0  0  0  0  0  0  0  0
   -5.1194   -1.0076    0.0000 N   0  0  0  0  0  0  0  0  0  0  0  0
   -5.9934    0.2114    0.0000 C   0  0  0  0  0  0  0  0  0  0  0  0
   -7.4861    0.0641    0.0000 C   0  0  0  0  0  0  0  0  0  0  0  0
   -8.1049   -1.3023    0.0000 O   0  0  0  0  0  0  0  0  0  0  0  0
   -8.3601    1.2832    0.0000 C   0  0  0  0  0  0  0  0  0  0  0  0
   -9.8528    1.1359    0.0000 C   0  0  0  0  0  0  0  0  0  0  0  0
  -10.7268    2.3549    0.0000 C   0  0  0  0  0  0  0  0  0  0  0  0
  -10.1080    3.7214    0.0000 O   0  0  0  0  0  0  0  0  0  0  0  0
  -12.2196    2.2076    0.0000 O   0  0  0  0  0  0  0  0  0  0  0  0
    1.1068   -3.0038    0.0000 C   0  0  0  0  0  0  0  0  0  0  0  0
    2.1034   -4.1248    0.0000 C   0  0  0  0  0  0  0  0  0  0  0  0
    3.4775   -3.5234    0.0000 C   0  0  0  0  0  0  0  0  0  0  0  0
    3.3302   -2.0307    0.0000 C   0  0  0  0  0  0  0  0  0  0  0  0
    4.3409   -0.9224    0.0000 C   0  0  0  0  0  0  0  0  0  0  0  0
    5.8062   -1.2435    0.0000 C   0  0  0  0  0  0  0  0  0  0  0  0
    6.2606   -2.6730    0.0000 O   0  0  0  0  0  0  0  0  0  0  0  0
    6.8169   -0.1352    0.0000 C   0  0  0  0  0  0  0  0  0  0  0  0
    6.3624    1.2943    0.0000 C   0  0  0  0  0  0  0  0  0  0  0  0
    7.3732    2.4027    0.0000 C   0  0  0  0  0  0  0  0  0  0  0  0
    6.9187    3.8322    0.0000 C   0  0  0  0  0  0  0  0  0  0  0  0
    7.9294    4.9405    0.0000 O   0  0  0  0  0  0  0  0  0  0  0  0
    5.4535    4.1533    0.0000 C   0  0  0  0  0  0  0  0  0  0  0  0
    4.4427    3.0450    0.0000 C   0  0  0  0  0  0  0  0  0  0  0  0
    4.8972    1.6155    0.0000 C   0  0  0  0  0  0  0  0  0  0  0  0
    3.4320    1.9366    0.0000 C   0  0  0  0  0  0  0  0  0  0  0  0
    3.8865    0.5071    0.0000 C   0  0  0  0  0  0  0  0  0  0  0  0
    2.4212    0.8283    0.0000 C   0  0  0  0  0  0  0  0  0  0  0  0
    1.4105   -0.2800    0.0000 C   0  0  0  0  0  0  0  0  0  0  0  0
    1.8650   -1.7095    0.0000 C   0  0  0  0  0  0  0  0  0  0  0  0
    0.3742   -1.5433    0.0000 C   0  0  0  0  0  0  0  0  0  0  0  0
  2  1  1  6
  2  3  1  0
  3  4  1  0
  4  5  1  0
  5  6  2  0
  5  7  1  0
  7  8  1  0
  8  9  1  0
  9 10  2  0
  9 11  1  0
 11 12  1  0
 12 13  1  0
 13 14  2  0
 13 15  1  0
  2 16  1  0
 16 17  1  6
 17 18  1  0
 19 18  1  6
 19 20  1  0
 20 21  1  1
 21 22  1  6
 21 23  1  0
 24 23  1  1
 24 25  1  0
 25 26  1  0
 26 27  1  1
 26 28  1  0
 28 29  1  0
 29 30  1  0
 30 31  1  6
 30 32  1  0
 32 33  1  6
 33 34  1  0
 34 35  1  0
 35 36  1  6
 35 16  1  0
 35 19  1  0
 32 20  1  0
 30 24  1  0
M  END
>  <MS_ID>  (264) 
MS0276

>  <SMILES>  (264) 
C[C@H](CCC(=O)NCC(=O)CCC(=O)O)[C@H]1CC[C@H]2[C@@H]3[C@@H](O)C[C@@H]4C[C@H](O)CC[C@]4(C)[C@H]3CC[C@]12C

>  <Structure_dimension>  (264) 
2D

$$$$
MS0277
     RDKit          2D

 35 39  0  0  0  0  0  0  0  0999 V2000
   -1.7226   -4.5748    0.0000 C   0  0  0  0  0  0  0  0  0  0  0  0
   -1.0860   -3.2166    0.0000 C   0  0  0  0  0  0  0  0  0  0  0  0
   -1.9441   -1.9862    0.0000 C   0  0  0  0  0  0  0  0  0  0  0  0
   -3.4386   -2.1141    0.0000 C   0  0  0  0  0  0  0  0  0  0  0  0
   -4.2966   -0.8837    0.0000 C   0  0  0  0  0  0  0  0  0  0  0  0
   -3.6601    0.4746    0.0000 O   0  0  0  0  0  0  0  0  0  0  0  0
   -5.7911   -1.0116    0.0000 C   0  0  0  0  0  0  0  0  0  0  0  0
   -6.6492    0.2188    0.0000 C   0  0  0  0  0  0  0  0  0  0  0  0
   -6.0126    1.5771    0.0000 C   0  0  0  0  0  0  0  0  0  0  0  0
   -6.8706    2.8074    0.0000 C   0  0  0  0  0  0  0  0  0  0  0  0
   -8.3652    2.6796    0.0000 C   0  0  0  0  0  0  0  0  0  0  0  0
   -9.2232    3.9099    0.0000 O   0  0  0  0  0  0  0  0  0  0  0  0
   -9.0017    1.3213    0.0000 C   0  0  0  0  0  0  0  0  0  0  0  0
   -8.1437    0.0909    0.0000 C   0  0  0  0  0  0  0  0  0  0  0  0
    0.4085   -3.0887    0.0000 C   0  0  0  0  0  0  0  0  0  0  0  0
    1.3904   -4.2226    0.0000 C   0  0  0  0  0  0  0  0  0  0  0  0
    2.7723   -3.6392    0.0000 C   0  0  0  0  0  0  0  0  0  0  0  0
    2.6444   -2.1446    0.0000 C   0  0  0  0  0  0  0  0  0  0  0  0
    3.6695   -1.0496    0.0000 C   0  0  0  0  0  0  0  0  0  0  0  0
    5.1304   -1.3898    0.0000 C   0  0  0  0  0  0  0  0  0  0  0  0
    5.5662   -2.8251    0.0000 O   0  0  0  0  0  0  0  0  0  0  0  0
    6.1555   -0.2947    0.0000 C   0  0  0  0  0  0  0  0  0  0  0  0
    5.7197    1.1406    0.0000 C   0  0  0  0  0  0  0  0  0  0  0  0
    6.7448    2.2356    0.0000 C   0  0  0  0  0  0  0  0  0  0  0  0
    6.3090    3.6709    0.0000 C   0  0  0  0  0  0  0  0  0  0  0  0
    7.3341    4.7660    0.0000 O   0  0  0  0  0  0  0  0  0  0  0  0
    4.8481    4.0112    0.0000 C   0  0  0  0  0  0  0  0  0  0  0  0
    3.8230    2.9161    0.0000 C   0  0  0  0  0  0  0  0  0  0  0  0
    4.2588    1.4808    0.0000 C   0  0  0  0  0  0  0  0  0  0  0  0
    2.7979    1.8210    0.0000 C   0  0  0  0  0  0  0  0  0  0  0  0
    3.2337    0.3857    0.0000 C   0  0  0  0  0  0  0  0  0  0  0  0
    1.7728    0.7259    0.0000 C   0  0  0  0  0  0  0  0  0  0  0  0
    0.7477   -0.3691    0.0000 C   0  0  0  0  0  0  0  0  0  0  0  0
    1.1835   -1.8044    0.0000 C   0  0  0  0  0  0  0  0  0  0  0  0
   -0.3050   -1.6188    0.0000 C   0  0  0  0  0  0  0  0  0  0  0  0
  2  1  1  6
  2  3  1  0
  3  4  1  0
  4  5  1  0
  5  6  2  0
  5  7  1  0
  7  8  1  0
  8  9  2  0
  9 10  1  0
 10 11  2  0
 11 12  1  0
 11 13  1  0
 13 14  2  0
  2 15  1  0
 15 16  1  6
 16 17  1  0
 18 17  1  6
 18 19  1  0
 19 20  1  1
 20 21  1  1
 20 22  1  0
 23 22  1  1
 23 24  1  0
 24 25  1  0
 25 26  1  1
 25 27  1  0
 27 28  1  0
 28 29  1  0
 29 30  1  6
 29 31  1  0
 31 32  1  6
 32 33  1  0
 33 34  1  0
 34 35  1  6
 14  8  1  0
 34 15  1  0
 34 18  1  0
 31 19  1  0
 29 23  1  0
M  END
>  <MS_ID>  (265) 
MS0277

>  <SMILES>  (265) 
C[C@H](CCC(=O)Cc1ccc(O)cc1)[C@H]1CC[C@H]2[C@@H]3[C@H](O)C[C@@H]4C[C@H](O)CC[C@]4(C)[C@H]3CC[C@]12C

>  <Structure_dimension>  (265) 
2D

$$$$
MS0278
     RDKit          2D

 28 31  0  0  0  0  0  0  0  0999 V2000
   -5.0096   -2.1352    0.0000 C   0  0  0  0  0  0  0  0  0  0  0  0
   -3.8132   -1.2303    0.0000 C   0  0  0  0  0  0  0  0  0  0  0  0
   -3.9987    0.2582    0.0000 C   0  0  0  0  0  0  0  0  0  0  0  0
   -5.3805    0.8418    0.0000 C   0  0  0  0  0  0  0  0  0  0  0  0
   -5.5659    2.3303    0.0000 C   0  0  0  0  0  0  0  0  0  0  0  0
   -6.9477    2.9140    0.0000 O   0  0  0  0  0  0  0  0  0  0  0  0
   -4.3695    3.2351    0.0000 S   0  0  0  0  0  0  0  0  0  0  0  0
   -2.4315   -1.8140    0.0000 C   0  0  0  0  0  0  0  0  0  0  0  0
   -2.0914   -3.2749    0.0000 C   0  0  0  0  0  0  0  0  0  0  0  0
   -0.5969   -3.4030    0.0000 C   0  0  0  0  0  0  0  0  0  0  0  0
   -0.0133   -2.0212    0.0000 C   0  0  0  0  0  0  0  0  0  0  0  0
    1.4041   -1.5304    0.0000 C   0  0  0  0  0  0  0  0  0  0  0  0
    2.5379   -2.5125    0.0000 C   0  0  0  0  0  0  0  0  0  0  0  0
    3.9554   -2.0216    0.0000 C   0  0  0  0  0  0  0  0  0  0  0  0
    4.2390   -0.5487    0.0000 C   0  0  0  0  0  0  0  0  0  0  0  0
    5.6564   -0.0578    0.0000 C   0  0  0  0  0  0  0  0  0  0  0  0
    5.9400    1.4151    0.0000 C   0  0  0  0  0  0  0  0  0  0  0  0
    7.3574    1.9060    0.0000 O   0  0  0  0  0  0  0  0  0  0  0  0
    4.8062    2.3972    0.0000 C   0  0  0  0  0  0  0  0  0  0  0  0
    3.3888    1.9064    0.0000 C   0  0  0  0  0  0  0  0  0  0  0  0
    3.1052    0.4334    0.0000 C   0  0  0  0  0  0  0  0  0  0  0  0
    1.9714    1.4155    0.0000 C   0  0  0  0  0  0  0  0  0  0  0  0
    1.6878   -0.0574    0.0000 C   0  0  0  0  0  0  0  0  0  0  0  0
    0.5540    0.9246    0.0000 C   0  0  0  0  0  0  0  0  0  0  0  0
   -0.8635    0.4338    0.0000 C   0  0  0  0  0  0  0  0  0  0  0  0
   -1.9973    1.4159    0.0000 O   0  0  0  0  0  0  0  0  0  0  0  0
   -1.1471   -1.0392    0.0000 C   0  0  0  0  0  0  0  0  0  0  0  0
   -2.3773   -0.1810    0.0000 C   0  0  0  0  0  0  0  0  0  0  0  0
  2  1  1  6
  2  3  1  0
  3  4  1  0
  4  5  1  0
  5  6  2  0
  5  7  1  0
  2  8  1  0
  8  9  1  6
  9 10  1  0
 11 10  1  6
 11 12  1  0
 12 13  1  1
 13 14  1  0
 15 14  1  1
 15 16  1  0
 16 17  1  0
 17 18  1  6
 17 19  1  0
 19 20  1  0
 20 21  1  0
 21 22  1  6
 21 23  1  0
 23 24  1  6
 24 25  1  0
 25 26  1  1
 25 27  1  0
 27 28  1  6
 27  8  1  0
 27 11  1  0
 23 12  1  0
 21 15  1  0
M  END
>  <MS_ID>  (266) 
MS0278

>  <SMILES>  (266) 
C[C@H](CCC(=O)S)[C@H]1CC[C@H]2[C@@H]3CC[C@@H]4C[C@@H](O)CC[C@]4(C)[C@H]3C[C@H](O)[C@]12C

>  <Structure_dimension>  (266) 
2D

$$$$
MS0279
     RDKit          2D

 32 35  0  0  0  0  0  0  0  0999 V2000
   -3.1421   -3.6694    0.0000 C   0  0  0  0  0  0  0  0  0  0  0  0
   -2.2628   -2.4541    0.0000 C   0  0  0  0  0  0  0  0  0  0  0  0
   -2.8756   -1.0850    0.0000 C   0  0  0  0  0  0  0  0  0  0  0  0
   -4.3676   -0.9311    0.0000 C   0  0  0  0  0  0  0  0  0  0  0  0
   -4.9804    0.4380    0.0000 C   0  0  0  0  0  0  0  0  0  0  0  0
   -4.1011    1.6532    0.0000 O   0  0  0  0  0  0  0  0  0  0  0  0
   -6.4725    0.5919    0.0000 N   0  0  0  0  0  0  0  0  0  0  0  0
   -7.0853    1.9610    0.0000 C   0  0  0  0  0  0  0  0  0  0  0  0
   -8.5774    2.1149    0.0000 C   0  0  0  0  0  0  0  0  0  0  0  0
   -9.4567    0.8996    0.0000 O   0  0  0  0  0  0  0  0  0  0  0  0
   -9.1901    3.4840    0.0000 O   0  0  0  0  0  0  0  0  0  0  0  0
   -0.7707   -2.6080    0.0000 C   0  0  0  0  0  0  0  0  0  0  0  0
   -0.0182   -3.9056    0.0000 C   0  0  0  0  0  0  0  0  0  0  0  0
    1.4484   -3.5909    0.0000 C   0  0  0  0  0  0  0  0  0  0  0  0
    1.6023   -2.0988    0.0000 C   0  0  0  0  0  0  0  0  0  0  0  0
    2.8141   -1.2147    0.0000 C   0  0  0  0  0  0  0  0  0  0  0  0
    4.1856   -1.8222    0.0000 C   0  0  0  0  0  0  0  0  0  0  0  0
    4.3453   -3.3136    0.0000 O   0  0  0  0  0  0  0  0  0  0  0  0
    5.3974   -0.9381    0.0000 C   0  0  0  0  0  0  0  0  0  0  0  0
    5.2377    0.5533    0.0000 C   0  0  0  0  0  0  0  0  0  0  0  0
    6.4495    1.4374    0.0000 C   0  0  0  0  0  0  0  0  0  0  0  0
    6.2898    2.9289    0.0000 C   0  0  0  0  0  0  0  0  0  0  0  0
    7.5016    3.8129    0.0000 N   0  0  0  0  0  0  0  0  0  0  0  0
    4.9183    3.5363    0.0000 C   0  0  0  0  0  0  0  0  0  0  0  0
    3.7065    2.6522    0.0000 C   0  0  0  0  0  0  0  0  0  0  0  0
    3.8662    1.1608    0.0000 C   0  0  0  0  0  0  0  0  0  0  0  0
    2.4947    1.7682    0.0000 C   0  0  0  0  0  0  0  0  0  0  0  0
    2.6544    0.2767    0.0000 C   0  0  0  0  0  0  0  0  0  0  0  0
    1.2829    0.8842    0.0000 C   0  0  0  0  0  0  0  0  0  0  0  0
    0.0711    0.0001    0.0000 C   0  0  0  0  0  0  0  0  0  0  0  0
    0.2308   -1.4914    0.0000 C   0  0  0  0  0  0  0  0  0  0  0  0
   -1.1967   -1.0306    0.0000 C   0  0  0  0  0  0  0  0  0  0  0  0
  2  1  1  6
  2  3  1  0
  3  4  1  0
  4  5  1  0
  5  6  2  0
  5  7  1  0
  7  8  1  0
  8  9  1  0
  9 10  2  0
  9 11  1  0
  2 12  1  0
 12 13  1  6
 13 14  1  0
 15 14  1  6
 15 16  1  0
 16 17  1  1
 17 18  1  6
 17 19  1  0
 20 19  1  1
 20 21  1  0
 21 22  1  0
 22 23  1  1
 22 24  1  0
 24 25  1  0
 25 26  1  0
 26 27  1  6
 26 28  1  0
 28 29  1  6
 29 30  1  0
 30 31  1  0
 31 32  1  6
 31 12  1  0
 31 15  1  0
 28 16  1  0
 26 20  1  0
M  END
>  <MS_ID>  (267) 
MS0279

>  <SMILES>  (267) 
C[C@H](CCC(=O)NCC(=O)O)[C@H]1CC[C@H]2[C@@H]3[C@@H](O)C[C@@H]4C[C@H](N)CC[C@]4(C)[C@H]3CC[C@]12C

>  <Structure_dimension>  (267) 
2D

$$$$
MS0280
     RDKit          2D

 28 31  0  0  0  0  0  0  0  0999 V2000
   -4.2208   -2.8067    0.0000 C   0  0  0  0  0  0  0  0  0  0  0  0
   -3.1997   -1.7079    0.0000 C   0  0  0  0  0  0  0  0  0  0  0  0
   -3.6407   -0.2742    0.0000 C   0  0  0  0  0  0  0  0  0  0  0  0
   -5.1028    0.0607    0.0000 C   0  0  0  0  0  0  0  0  0  0  0  0
   -5.5438    1.4944    0.0000 C   0  0  0  0  0  0  0  0  0  0  0  0
   -4.5227    2.5932    0.0000 O   0  0  0  0  0  0  0  0  0  0  0  0
   -7.0059    1.8294    0.0000 C   0  0  0  0  0  0  0  0  0  0  0  0
   -7.4469    3.2631    0.0000 O   0  0  0  0  0  0  0  0  0  0  0  0
   -1.7376   -2.0429    0.0000 C   0  0  0  0  0  0  0  0  0  0  0  0
   -1.1491   -3.4226    0.0000 C   0  0  0  0  0  0  0  0  0  0  0  0
    0.3450   -3.2894    0.0000 C   0  0  0  0  0  0  0  0  0  0  0  0
    0.6799   -1.8272    0.0000 C   0  0  0  0  0  0  0  0  0  0  0  0
    1.9906   -1.0978    0.0000 C   0  0  0  0  0  0  0  0  0  0  0  0
    3.2777   -1.8682    0.0000 C   0  0  0  0  0  0  0  0  0  0  0  0
    3.2540   -3.3680    0.0000 O   0  0  0  0  0  0  0  0  0  0  0  0
    4.5883   -1.1387    0.0000 C   0  0  0  0  0  0  0  0  0  0  0  0
    4.6120    0.3611    0.0000 C   0  0  0  0  0  0  0  0  0  0  0  0
    5.9227    1.0905    0.0000 C   0  0  0  0  0  0  0  0  0  0  0  0
    5.9463    2.5904    0.0000 C   0  0  0  0  0  0  0  0  0  0  0  0
    4.6592    3.3607    0.0000 C   0  0  0  0  0  0  0  0  0  0  0  0
    3.3485    2.6313    0.0000 C   0  0  0  0  0  0  0  0  0  0  0  0
    3.3249    1.1315    0.0000 C   0  0  0  0  0  0  0  0  0  0  0  0
    2.0379    1.9018    0.0000 C   0  0  0  0  0  0  0  0  0  0  0  0
    2.0142    0.4020    0.0000 C   0  0  0  0  0  0  0  0  0  0  0  0
    0.7272    1.1724    0.0000 C   0  0  0  0  0  0  0  0  0  0  0  0
   -0.5835    0.4430    0.0000 C   0  0  0  0  0  0  0  0  0  0  0  0
   -0.6072   -1.0569    0.0000 C   0  0  0  0  0  0  0  0  0  0  0  0
   -1.9677   -0.4252    0.0000 C   0  0  0  0  0  0  0  0  0  0  0  0
  2  1  1  6
  2  3  1  0
  3  4  1  0
  4  5  1  0
  5  6  2  0
  5  7  1  0
  7  8  1  0
  2  9  1  0
  9 10  1  6
 10 11  1  0
 12 11  1  6
 12 13  1  0
 13 14  1  1
 14 15  1  1
 14 16  1  0
 17 16  1  1
 17 18  1  0
 18 19  1  0
 19 20  1  0
 20 21  1  0
 21 22  1  0
 22 23  1  6
 22 24  1  0
 24 25  1  6
 25 26  1  0
 26 27  1  0
 27 28  1  6
 27  9  1  0
 27 12  1  0
 24 13  1  0
 22 17  1  0
M  END
>  <MS_ID>  (268) 
MS0280

>  <SMILES>  (268) 
C[C@H](CCC(=O)CO)[C@H]1CC[C@H]2[C@@H]3[C@H](O)C[C@@H]4CCCC[C@]4(C)[C@H]3CC[C@]12C

>  <Structure_dimension>  (268) 
2D

$$$$
MS0281
     RDKit          2D

 31 34  0  0  0  0  0  0  0  0999 V2000
   -4.3058   -2.9986    0.0000 C   0  0  0  0  0  0  0  0  0  0  0  0
   -3.2228   -1.9608    0.0000 C   0  0  0  0  0  0  0  0  0  0  0  0
   -3.5801   -0.5039    0.0000 C   0  0  0  0  0  0  0  0  0  0  0  0
   -5.0204   -0.0850    0.0000 C   0  0  0  0  0  0  0  0  0  0  0  0
   -5.3777    1.3719    0.0000 C   0  0  0  0  0  0  0  0  0  0  0  0
   -6.8180    1.7908    0.0000 O   0  0  0  0  0  0  0  0  0  0  0  0
   -4.2947    2.4097    0.0000 S   0  0  0  0  0  0  0  0  0  0  0  0
   -5.3326    3.4927    0.0000 O   0  0  0  0  0  0  0  0  0  0  0  0
   -3.2569    1.3267    0.0000 O   0  0  0  0  0  0  0  0  0  0  0  0
   -3.2117    3.4476    0.0000 O   0  0  0  0  0  0  0  0  0  0  0  0
   -1.7825   -2.3797    0.0000 C   0  0  0  0  0  0  0  0  0  0  0  0
   -1.2749   -3.7912    0.0000 C   0  0  0  0  0  0  0  0  0  0  0  0
    0.2244   -3.7446    0.0000 C   0  0  0  0  0  0  0  0  0  0  0  0
    0.6434   -2.3043    0.0000 C   0  0  0  0  0  0  0  0  0  0  0  0
    1.9941   -1.6519    0.0000 C   0  0  0  0  0  0  0  0  0  0  0  0
    3.2344   -2.4955    0.0000 C   0  0  0  0  0  0  0  0  0  0  0  0
    4.5851   -1.8431    0.0000 C   0  0  0  0  0  0  0  0  0  0  0  0
    4.6955   -0.3472    0.0000 C   0  0  0  0  0  0  0  0  0  0  0  0
    6.0462    0.3052    0.0000 C   0  0  0  0  0  0  0  0  0  0  0  0
    6.1565    1.8012    0.0000 C   0  0  0  0  0  0  0  0  0  0  0  0
    7.5072    2.4536    0.0000 O   0  0  0  0  0  0  0  0  0  0  0  0
    4.9162    2.6447    0.0000 C   0  0  0  0  0  0  0  0  0  0  0  0
    3.5655    1.9923    0.0000 C   0  0  0  0  0  0  0  0  0  0  0  0
    3.4551    0.4964    0.0000 C   0  0  0  0  0  0  0  0  0  0  0  0
    2.2148    1.3399    0.0000 C   0  0  0  0  0  0  0  0  0  0  0  0
    2.1044   -0.1560    0.0000 C   0  0  0  0  0  0  0  0  0  0  0  0
    0.8641    0.6875    0.0000 C   0  0  0  0  0  0  0  0  0  0  0  0
   -0.4866    0.0352    0.0000 C   0  0  0  0  0  0  0  0  0  0  0  0
   -1.7269    0.8787    0.0000 O   0  0  0  0  0  0  0  0  0  0  0  0
   -0.5969   -1.4608    0.0000 C   0  0  0  0  0  0  0  0  0  0  0  0
   -1.9187   -0.7515    0.0000 C   0  0  0  0  0  0  0  0  0  0  0  0
  2  1  1  6
  2  3  1  0
  3  4  1  0
  4  5  1  0
  5  6  2  0
  5  7  1  0
  7  8  2  0
  7  9  2  0
  7 10  1  0
  2 11  1  0
 11 12  1  6
 12 13  1  0
 14 13  1  6
 14 15  1  0
 15 16  1  1
 16 17  1  0
 18 17  1  1
 18 19  1  0
 19 20  1  0
 20 21  1  1
 20 22  1  0
 22 23  1  0
 23 24  1  0
 24 25  1  6
 24 26  1  0
 26 27  1  6
 27 28  1  0
 28 29  1  1
 28 30  1  0
 30 31  1  6
 30 11  1  0
 30 14  1  0
 26 15  1  0
 24 18  1  0
M  END
>  <MS_ID>  (269) 
MS0281

>  <SMILES>  (269) 
C[C@H](CCC(=O)S(=O)(=O)O)[C@H]1CC[C@H]2[C@@H]3CC[C@@H]4C[C@H](O)CC[C@]4(C)[C@H]3C[C@H](O)[C@]12C

>  <Structure_dimension>  (269) 
2D

$$$$
MS0282
     RDKit          2D

 32 35  0  0  0  0  0  0  0  0999 V2000
   -2.6627   -3.7242    0.0000 C   0  0  0  0  0  0  0  0  0  0  0  0
   -1.8528   -2.4616    0.0000 C   0  0  0  0  0  0  0  0  0  0  0  0
   -2.5413   -1.1289    0.0000 C   0  0  0  0  0  0  0  0  0  0  0  0
   -4.0396   -1.0588    0.0000 C   0  0  0  0  0  0  0  0  0  0  0  0
   -4.7281    0.2738    0.0000 C   0  0  0  0  0  0  0  0  0  0  0  0
   -3.9182    1.5364    0.0000 O   0  0  0  0  0  0  0  0  0  0  0  0
   -6.2265    0.3439    0.0000 N   0  0  0  0  0  0  0  0  0  0  0  0
   -6.9150    1.6766    0.0000 C   0  0  0  0  0  0  0  0  0  0  0  0
   -8.4133    1.7467    0.0000 C   0  0  0  0  0  0  0  0  0  0  0  0
   -9.2232    0.4841    0.0000 O   0  0  0  0  0  0  0  0  0  0  0  0
   -9.1018    3.0794    0.0000 O   0  0  0  0  0  0  0  0  0  0  0  0
   -0.3544   -2.5317    0.0000 C   0  0  0  0  0  0  0  0  0  0  0  0
    0.4696   -3.7851    0.0000 C   0  0  0  0  0  0  0  0  0  0  0  0
    1.9163   -3.3887    0.0000 C   0  0  0  0  0  0  0  0  0  0  0  0
    1.9864   -1.8904    0.0000 C   0  0  0  0  0  0  0  0  0  0  0  0
    3.1468   -0.9399    0.0000 C   0  0  0  0  0  0  0  0  0  0  0  0
    4.5501   -1.4695    0.0000 C   0  0  0  0  0  0  0  0  0  0  0  0
    4.7931   -2.9497    0.0000 O   0  0  0  0  0  0  0  0  0  0  0  0
    5.7105   -0.5190    0.0000 C   0  0  0  0  0  0  0  0  0  0  0  0
    5.4676    0.9612    0.0000 C   0  0  0  0  0  0  0  0  0  0  0  0
    6.6280    1.9117    0.0000 C   0  0  0  0  0  0  0  0  0  0  0  0
    6.3850    3.3919    0.0000 C   0  0  0  0  0  0  0  0  0  0  0  0
    4.9816    3.9216    0.0000 C   0  0  0  0  0  0  0  0  0  0  0  0
    3.8212    2.9710    0.0000 C   0  0  0  0  0  0  0  0  0  0  0  0
    4.0642    1.4909    0.0000 C   0  0  0  0  0  0  0  0  0  0  0  0
    2.6608    2.0205    0.0000 C   0  0  0  0  0  0  0  0  0  0  0  0
    2.9038    0.5403    0.0000 C   0  0  0  0  0  0  0  0  0  0  0  0
    1.5004    1.0700    0.0000 C   0  0  0  0  0  0  0  0  0  0  0  0
    0.3400    0.1195    0.0000 C   0  0  0  0  0  0  0  0  0  0  0  0
   -1.0633    0.6492    0.0000 O   0  0  0  0  0  0  0  0  0  0  0  0
    0.5830   -1.3607    0.0000 C   0  0  0  0  0  0  0  0  0  0  0  0
   -0.8681   -0.9806    0.0000 C   0  0  0  0  0  0  0  0  0  0  0  0
  2  1  1  6
  2  3  1  0
  3  4  1  0
  4  5  1  0
  5  6  2  0
  5  7  1  0
  7  8  1  0
  8  9  1  0
  9 10  2  0
  9 11  1  0
  2 12  1  0
 12 13  1  6
 13 14  1  0
 15 14  1  6
 15 16  1  0
 16 17  1  1
 17 18  1  1
 17 19  1  0
 20 19  1  1
 20 21  1  0
 21 22  1  0
 22 23  1  0
 23 24  1  0
 24 25  1  0
 25 26  1  6
 25 27  1  0
 27 28  1  6
 28 29  1  0
 29 30  1  1
 29 31  1  0
 31 32  1  6
 31 12  1  0
 31 15  1  0
 27 16  1  0
 25 20  1  0
M  END
>  <MS_ID>  (270) 
MS0282

>  <SMILES>  (270) 
C[C@H](CCC(=O)NCC(=O)O)[C@H]1CC[C@H]2[C@@H]3[C@H](O)C[C@@H]4CCCC[C@]4(C)[C@H]3C[C@H](O)[C@]12C

>  <Structure_dimension>  (270) 
2D

$$$$
MS0283
     RDKit          2D

 32 35  0  0  0  0  0  0  0  0999 V2000
   -3.1421   -3.6694    0.0000 C   0  0  0  0  0  0  0  0  0  0  0  0
   -2.2628   -2.4541    0.0000 C   0  0  0  0  0  0  0  0  0  0  0  0
   -2.8756   -1.0850    0.0000 C   0  0  0  0  0  0  0  0  0  0  0  0
   -4.3676   -0.9311    0.0000 C   0  0  0  0  0  0  0  0  0  0  0  0
   -4.9804    0.4380    0.0000 C   0  0  0  0  0  0  0  0  0  0  0  0
   -4.1011    1.6532    0.0000 O   0  0  0  0  0  0  0  0  0  0  0  0
   -6.4725    0.5919    0.0000 N   0  0  0  0  0  0  0  0  0  0  0  0
   -7.0853    1.9610    0.0000 C   0  0  0  0  0  0  0  0  0  0  0  0
   -8.5774    2.1149    0.0000 C   0  0  0  0  0  0  0  0  0  0  0  0
   -9.4567    0.8996    0.0000 O   0  0  0  0  0  0  0  0  0  0  0  0
   -9.1901    3.4840    0.0000 O   0  0  0  0  0  0  0  0  0  0  0  0
   -0.7707   -2.6080    0.0000 C   0  0  0  0  0  0  0  0  0  0  0  0
   -0.0182   -3.9056    0.0000 C   0  0  0  0  0  0  0  0  0  0  0  0
    1.4484   -3.5909    0.0000 C   0  0  0  0  0  0  0  0  0  0  0  0
    1.6023   -2.0988    0.0000 C   0  0  0  0  0  0  0  0  0  0  0  0
    2.8141   -1.2147    0.0000 C   0  0  0  0  0  0  0  0  0  0  0  0
    4.1856   -1.8222    0.0000 C   0  0  0  0  0  0  0  0  0  0  0  0
    4.3453   -3.3136    0.0000 O   0  0  0  0  0  0  0  0  0  0  0  0
    5.3974   -0.9381    0.0000 C   0  0  0  0  0  0  0  0  0  0  0  0
    5.2377    0.5533    0.0000 C   0  0  0  0  0  0  0  0  0  0  0  0
    6.4495    1.4374    0.0000 C   0  0  0  0  0  0  0  0  0  0  0  0
    6.2898    2.9289    0.0000 C   0  0  0  0  0  0  0  0  0  0  0  0
    7.5016    3.8129    0.0000 O   0  0  0  0  0  0  0  0  0  0  0  0
    4.9183    3.5363    0.0000 C   0  0  0  0  0  0  0  0  0  0  0  0
    3.7065    2.6522    0.0000 C   0  0  0  0  0  0  0  0  0  0  0  0
    3.8662    1.1608    0.0000 C   0  0  0  0  0  0  0  0  0  0  0  0
    2.4947    1.7682    0.0000 C   0  0  0  0  0  0  0  0  0  0  0  0
    2.6544    0.2767    0.0000 C   0  0  0  0  0  0  0  0  0  0  0  0
    1.2829    0.8842    0.0000 C   0  0  0  0  0  0  0  0  0  0  0  0
    0.0711    0.0001    0.0000 C   0  0  0  0  0  0  0  0  0  0  0  0
    0.2308   -1.4914    0.0000 C   0  0  0  0  0  0  0  0  0  0  0  0
   -1.1967   -1.0306    0.0000 C   0  0  0  0  0  0  0  0  0  0  0  0
  2  1  1  6
  2  3  1  0
  3  4  1  0
  4  5  1  0
  5  6  2  0
  5  7  1  0
  7  8  1  0
  8  9  1  0
  9 10  2  0
  9 11  1  0
  2 12  1  0
 12 13  1  6
 13 14  1  0
 15 14  1  6
 15 16  1  0
 16 17  1  1
 17 18  1  6
 17 19  1  0
 20 19  1  1
 20 21  1  0
 21 22  1  0
 22 23  2  0
 22 24  1  0
 24 25  1  0
 25 26  1  0
 26 27  1  6
 26 28  1  0
 28 29  1  6
 29 30  1  0
 30 31  1  0
 31 32  1  6
 31 12  1  0
 31 15  1  0
 28 16  1  0
 26 20  1  0
M  END
>  <MS_ID>  (271) 
MS0283

>  <SMILES>  (271) 
C[C@H](CCC(=O)NCC(=O)O)[C@H]1CC[C@H]2[C@@H]3[C@@H](O)C[C@@H]4CC(=O)CC[C@]4(C)[C@H]3CC[C@]12C

>  <Structure_dimension>  (271) 
2D

$$$$
MS0284
     RDKit          2D

 31 34  0  0  0  0  0  0  0  0999 V2000
   -3.0989   -3.6972    0.0000 C   0  0  0  0  0  0  0  0  0  0  0  0
   -2.1883   -2.5051    0.0000 C   0  0  0  0  0  0  0  0  0  0  0  0
   -2.7654   -1.1206    0.0000 C   0  0  0  0  0  0  0  0  0  0  0  0
   -4.2530   -0.9280    0.0000 C   0  0  0  0  0  0  0  0  0  0  0  0
   -4.8300    0.4565    0.0000 C   0  0  0  0  0  0  0  0  0  0  0  0
   -3.9195    1.6486    0.0000 O   0  0  0  0  0  0  0  0  0  0  0  0
   -6.3176    0.6491    0.0000 C   0  0  0  0  0  0  0  0  0  0  0  0
   -6.8947    2.0336    0.0000 C   0  0  0  0  0  0  0  0  0  0  0  0
   -8.3823    2.2261    0.0000 C   0  0  0  0  0  0  0  0  0  0  0  0
   -9.2928    1.0341    0.0000 O   0  0  0  0  0  0  0  0  0  0  0  0
   -8.9593    3.6107    0.0000 O   0  0  0  0  0  0  0  0  0  0  0  0
   -0.7007   -2.6977    0.0000 C   0  0  0  0  0  0  0  0  0  0  0  0
    0.0179   -4.0143    0.0000 C   0  0  0  0  0  0  0  0  0  0  0  0
    1.4922   -3.7377    0.0000 C   0  0  0  0  0  0  0  0  0  0  0  0
    1.6847   -2.2501    0.0000 C   0  0  0  0  0  0  0  0  0  0  0  0
    2.9190   -1.3978    0.0000 C   0  0  0  0  0  0  0  0  0  0  0  0
    4.2743   -2.0406    0.0000 C   0  0  0  0  0  0  0  0  0  0  0  0
    5.5086   -1.1883    0.0000 C   0  0  0  0  0  0  0  0  0  0  0  0
    5.3877    0.3068    0.0000 C   0  0  0  0  0  0  0  0  0  0  0  0
    6.6220    1.1591    0.0000 C   0  0  0  0  0  0  0  0  0  0  0  0
    6.5010    2.6542    0.0000 C   0  0  0  0  0  0  0  0  0  0  0  0
    7.7354    3.5066    0.0000 O   0  0  0  0  0  0  0  0  0  0  0  0
    5.1457    3.2970    0.0000 C   0  0  0  0  0  0  0  0  0  0  0  0
    3.9114    2.4447    0.0000 C   0  0  0  0  0  0  0  0  0  0  0  0
    4.0324    0.9496    0.0000 C   0  0  0  0  0  0  0  0  0  0  0  0
    2.6771    1.5924    0.0000 C   0  0  0  0  0  0  0  0  0  0  0  0
    2.7981    0.0973    0.0000 C   0  0  0  0  0  0  0  0  0  0  0  0
    1.4428    0.7401    0.0000 C   0  0  0  0  0  0  0  0  0  0  0  0
    0.2084   -0.1122    0.0000 C   0  0  0  0  0  0  0  0  0  0  0  0
    0.3294   -1.6073    0.0000 C   0  0  0  0  0  0  0  0  0  0  0  0
   -1.0856   -1.1097    0.0000 C   0  0  0  0  0  0  0  0  0  0  0  0
  2  1  1  6
  2  3  1  0
  3  4  1  0
  4  5  1  0
  5  6  2  0
  5  7  1  0
  7  8  1  0
  8  9  1  0
  9 10  2  0
  9 11  1  0
  2 12  1  0
 12 13  1  6
 13 14  1  0
 15 14  1  6
 15 16  1  0
 16 17  1  1
 17 18  1  0
 19 18  1  1
 19 20  1  0
 20 21  1  0
 21 22  1  1
 21 23  1  0
 23 24  1  0
 24 25  1  0
 25 26  1  6
 25 27  1  0
 27 28  1  6
 28 29  1  0
 29 30  1  0
 30 31  1  6
 30 12  1  0
 30 15  1  0
 27 16  1  0
 25 19  1  0
M  END
>  <MS_ID>  (272) 
MS0284

>  <SMILES>  (272) 
C[C@H](CCC(=O)CCC(=O)O)[C@H]1CC[C@H]2[C@@H]3CC[C@@H]4C[C@H](O)CC[C@]4(C)[C@H]3CC[C@]12C

>  <Structure_dimension>  (272) 
2D

$$$$
MS0285
     RDKit          2D

 33 36  0  0  0  0  0  0  0  0999 V2000
   -2.7798   -3.8103    0.0000 C   0  0  0  0  0  0  0  0  0  0  0  0
   -1.9338   -2.5716    0.0000 C   0  0  0  0  0  0  0  0  0  0  0  0
   -2.5835   -1.2196    0.0000 C   0  0  0  0  0  0  0  0  0  0  0  0
   -4.0792   -1.1063    0.0000 C   0  0  0  0  0  0  0  0  0  0  0  0
   -4.7289    0.2457    0.0000 C   0  0  0  0  0  0  0  0  0  0  0  0
   -3.8829    1.4843    0.0000 O   0  0  0  0  0  0  0  0  0  0  0  0
   -6.2246    0.3590    0.0000 C   0  0  0  0  0  0  0  0  0  0  0  0
   -6.8743    1.7110    0.0000 O   0  0  0  0  0  0  0  0  0  0  0  0
   -8.3700    1.8244    0.0000 S   0  0  0  0  0  0  0  0  0  0  0  0
   -8.4834    0.3287    0.0000 O   0  0  0  0  0  0  0  0  0  0  0  0
   -8.2567    3.3201    0.0000 O   0  0  0  0  0  0  0  0  0  0  0  0
   -9.8657    1.9377    0.0000 O   0  0  0  0  0  0  0  0  0  0  0  0
   -0.4381   -2.6850    0.0000 C   0  0  0  0  0  0  0  0  0  0  0  0
    0.3494   -3.9617    0.0000 C   0  0  0  0  0  0  0  0  0  0  0  0
    1.8069   -3.6073    0.0000 C   0  0  0  0  0  0  0  0  0  0  0  0
    1.9202   -2.1116    0.0000 C   0  0  0  0  0  0  0  0  0  0  0  0
    3.1076   -1.1950    0.0000 C   0  0  0  0  0  0  0  0  0  0  0  0
    4.4951   -1.7650    0.0000 C   0  0  0  0  0  0  0  0  0  0  0  0
    4.6952   -3.2515    0.0000 O   0  0  0  0  0  0  0  0  0  0  0  0
    5.6825   -0.8484    0.0000 C   0  0  0  0  0  0  0  0  0  0  0  0
    5.4824    0.6382    0.0000 C   0  0  0  0  0  0  0  0  0  0  0  0
    6.6697    1.5548    0.0000 C   0  0  0  0  0  0  0  0  0  0  0  0
    6.4696    3.0414    0.0000 C   0  0  0  0  0  0  0  0  0  0  0  0
    7.6570    3.9580    0.0000 O   0  0  0  0  0  0  0  0  0  0  0  0
    5.0821    3.6114    0.0000 C   0  0  0  0  0  0  0  0  0  0  0  0
    3.8948    2.6948    0.0000 C   0  0  0  0  0  0  0  0  0  0  0  0
    4.0949    1.2082    0.0000 C   0  0  0  0  0  0  0  0  0  0  0  0
    2.7074    1.7782    0.0000 C   0  0  0  0  0  0  0  0  0  0  0  0
    2.9075    0.2916    0.0000 C   0  0  0  0  0  0  0  0  0  0  0  0
    1.5200    0.8616    0.0000 C   0  0  0  0  0  0  0  0  0  0  0  0
    0.3327   -0.0550    0.0000 C   0  0  0  0  0  0  0  0  0  0  0  0
    0.5328   -1.5416    0.0000 C   0  0  0  0  0  0  0  0  0  0  0  0
   -0.9067   -1.1197    0.0000 C   0  0  0  0  0  0  0  0  0  0  0  0
  2  1  1  6
  2  3  1  0
  3  4  1  0
  4  5  1  0
  5  6  2  0
  5  7  1  0
  7  8  1  0
  8  9  1  0
  9 10  2  0
  9 11  2  0
  9 12  1  0
  2 13  1  0
 13 14  1  6
 14 15  1  0
 16 15  1  6
 16 17  1  0
 17 18  1  1
 18 19  1  1
 18 20  1  0
 21 20  1  1
 21 22  1  0
 22 23  1  0
 23 24  1  1
 23 25  1  0
 25 26  1  0
 26 27  1  0
 27 28  1  6
 27 29  1  0
 29 30  1  6
 30 31  1  0
 31 32  1  0
 32 33  1  6
 32 13  1  0
 32 16  1  0
 29 17  1  0
 27 21  1  0
M  END
>  <MS_ID>  (273) 
MS0285

>  <SMILES>  (273) 
C[C@H](CCC(=O)COS(=O)(=O)O)[C@H]1CC[C@H]2[C@@H]3[C@H](O)C[C@@H]4C[C@H](O)CC[C@]4(C)[C@H]3CC[C@]12C

>  <Structure_dimension>  (273) 
2D

$$$$
MS0286
     RDKit          2D

 29 32  0  0  0  0  0  0  0  0999 V2000
   -4.5534   -2.6812    0.0000 C   0  0  0  0  0  0  0  0  0  0  0  0
   -3.4378   -1.6786    0.0000 C   0  0  0  0  0  0  0  0  0  0  0  0
   -3.7483   -0.2111    0.0000 C   0  0  0  0  0  0  0  0  0  0  0  0
   -5.1744    0.2538    0.0000 C   0  0  0  0  0  0  0  0  0  0  0  0
   -5.4850    1.7213    0.0000 C   0  0  0  0  0  0  0  0  0  0  0  0
   -4.3693    2.7239    0.0000 O   0  0  0  0  0  0  0  0  0  0  0  0
   -6.9111    2.1861    0.0000 C   0  0  0  0  0  0  0  0  0  0  0  0
   -7.2216    3.6536    0.0000 O   0  0  0  0  0  0  0  0  0  0  0  0
   -2.0116   -2.1434    0.0000 C   0  0  0  0  0  0  0  0  0  0  0  0
   -1.5494   -3.5704    0.0000 C   0  0  0  0  0  0  0  0  0  0  0  0
   -0.0494   -3.5718    0.0000 C   0  0  0  0  0  0  0  0  0  0  0  0
    0.4155   -2.1456    0.0000 C   0  0  0  0  0  0  0  0  0  0  0  0
    1.7863   -1.5368    0.0000 C   0  0  0  0  0  0  0  0  0  0  0  0
    2.9990   -2.4196    0.0000 C   0  0  0  0  0  0  0  0  0  0  0  0
    4.3699   -1.8107    0.0000 C   0  0  0  0  0  0  0  0  0  0  0  0
    4.5281   -0.3191    0.0000 C   0  0  0  0  0  0  0  0  0  0  0  0
    5.8990    0.2898    0.0000 C   0  0  0  0  0  0  0  0  0  0  0  0
    6.0571    1.7814    0.0000 C   0  0  0  0  0  0  0  0  0  0  0  0
    7.4280    2.3902    0.0000 O   0  0  0  0  0  0  0  0  0  0  0  0
    4.8444    2.6642    0.0000 C   0  0  0  0  0  0  0  0  0  0  0  0
    3.4735    2.0553    0.0000 C   0  0  0  0  0  0  0  0  0  0  0  0
    3.3154    0.5637    0.0000 C   0  0  0  0  0  0  0  0  0  0  0  0
    2.1026    1.4465    0.0000 C   0  0  0  0  0  0  0  0  0  0  0  0
    1.9445   -0.0451    0.0000 C   0  0  0  0  0  0  0  0  0  0  0  0
    0.7318    0.8376    0.0000 C   0  0  0  0  0  0  0  0  0  0  0  0
   -0.6391    0.2288    0.0000 C   0  0  0  0  0  0  0  0  0  0  0  0
   -1.8518    1.1116    0.0000 O   0  0  0  0  0  0  0  0  0  0  0  0
   -0.7973   -1.2628    0.0000 C   0  0  0  0  0  0  0  0  0  0  0  0
   -2.0956   -0.5116    0.0000 C   0  0  0  0  0  0  0  0  0  0  0  0
  2  1  1  6
  2  3  1  0
  3  4  1  0
  4  5  1  0
  5  6  2  0
  5  7  1  0
  7  8  1  0
  2  9  1  0
  9 10  1  6
 10 11  1  0
 12 11  1  6
 12 13  1  0
 13 14  1  1
 14 15  1  0
 16 15  1  1
 16 17  1  0
 17 18  1  0
 18 19  1  6
 18 20  1  0
 20 21  1  0
 21 22  1  0
 22 23  1  6
 22 24  1  0
 24 25  1  6
 25 26  1  0
 26 27  1  6
 26 28  1  0
 28 29  1  6
 28  9  1  0
 28 12  1  0
 24 13  1  0
 22 16  1  0
M  END
>  <MS_ID>  (274) 
MS0286

>  <SMILES>  (274) 
C[C@H](CCC(=O)CO)[C@H]1CC[C@H]2[C@@H]3CC[C@@H]4C[C@@H](O)CC[C@]4(C)[C@H]3C[C@@H](O)[C@]12C

>  <Structure_dimension>  (274) 
2D

$$$$
MS0287
     RDKit          2D

 31 34  0  0  0  0  0  0  0  0999 V2000
   -4.2495   -2.8115    0.0000 C   0  0  0  0  0  0  0  0  0  0  0  0
   -3.1859   -1.7538    0.0000 C   0  0  0  0  0  0  0  0  0  0  0  0
   -3.5702   -0.3038    0.0000 C   0  0  0  0  0  0  0  0  0  0  0  0
   -5.0180    0.0883    0.0000 C   0  0  0  0  0  0  0  0  0  0  0  0
   -5.4023    1.5383    0.0000 C   0  0  0  0  0  0  0  0  0  0  0  0
   -4.3387    2.5960    0.0000 O   0  0  0  0  0  0  0  0  0  0  0  0
   -6.8501    1.9305    0.0000 C   0  0  0  0  0  0  0  0  0  0  0  0
   -7.9137    0.8727    0.0000 O   0  0  0  0  0  0  0  0  0  0  0  0
   -7.2344    3.3804    0.0000 O   0  0  0  0  0  0  0  0  0  0  0  0
   -1.7381   -2.1460    0.0000 C   0  0  0  0  0  0  0  0  0  0  0  0
   -1.2044   -3.5478    0.0000 C   0  0  0  0  0  0  0  0  0  0  0  0
    0.2938   -3.4734    0.0000 C   0  0  0  0  0  0  0  0  0  0  0  0
    0.6860   -2.0256    0.0000 C   0  0  0  0  0  0  0  0  0  0  0  0
    2.0243   -1.3482    0.0000 C   0  0  0  0  0  0  0  0  0  0  0  0
    3.2801   -2.1686    0.0000 C   0  0  0  0  0  0  0  0  0  0  0  0
    3.1975   -3.6663    0.0000 O   0  0  0  0  0  0  0  0  0  0  0  0
    4.6185   -1.4913    0.0000 C   0  0  0  0  0  0  0  0  0  0  0  0
    4.7010    0.0064    0.0000 C   0  0  0  0  0  0  0  0  0  0  0  0
    6.0394    0.6838    0.0000 C   0  0  0  0  0  0  0  0  0  0  0  0
    6.1220    2.1815    0.0000 C   0  0  0  0  0  0  0  0  0  0  0  0
    7.4604    2.8588    0.0000 O   0  0  0  0  0  0  0  0  0  0  0  0
    4.8662    3.0019    0.0000 C   0  0  0  0  0  0  0  0  0  0  0  0
    3.5279    2.3246    0.0000 C   0  0  0  0  0  0  0  0  0  0  0  0
    3.4453    0.8268    0.0000 C   0  0  0  0  0  0  0  0  0  0  0  0
    2.1895    1.6472    0.0000 C   0  0  0  0  0  0  0  0  0  0  0  0
    2.1069    0.1495    0.0000 C   0  0  0  0  0  0  0  0  0  0  0  0
    0.8511    0.9699    0.0000 C   0  0  0  0  0  0  0  0  0  0  0  0
   -0.4872    0.2925    0.0000 C   0  0  0  0  0  0  0  0  0  0  0  0
   -1.7430    1.1129    0.0000 O   0  0  0  0  0  0  0  0  0  0  0  0
   -0.5698   -1.2052    0.0000 C   0  0  0  0  0  0  0  0  0  0  0  0
   -1.9045   -0.5205    0.0000 C   0  0  0  0  0  0  0  0  0  0  0  0
  2  1  1  6
  2  3  1  0
  3  4  1  0
  4  5  1  0
  5  6  2  0
  5  7  1  0
  7  8  2  0
  7  9  1  0
  2 10  1  0
 10 11  1  6
 11 12  1  0
 13 12  1  6
 13 14  1  0
 14 15  1  1
 15 16  1  6
 15 17  1  0
 18 17  1  1
 18 19  1  0
 19 20  1  0
 20 21  1  1
 20 22  1  0
 22 23  1  0
 23 24  1  0
 24 25  1  6
 24 26  1  0
 26 27  1  6
 27 28  1  0
 28 29  1  1
 28 30  1  0
 30 31  1  6
 30 10  1  0
 30 13  1  0
 26 14  1  0
 24 18  1  0
M  END
>  <MS_ID>  (275) 
MS0287

>  <SMILES>  (275) 
C[C@H](CCC(=O)C(=O)O)[C@H]1CC[C@H]2[C@@H]3[C@@H](O)C[C@@H]4C[C@H](O)CC[C@]4(C)[C@H]3C[C@H](O)[C@]12C

>  <Structure_dimension>  (275) 
2D

$$$$
MS0288
     RDKit          2D

 35 38  0  0  0  0  0  0  0  0999 V2000
   -4.3152   -3.0890    0.0000 C   0  0  0  0  0  0  0  0  0  0  0  0
   -3.4559   -1.8595    0.0000 C   0  0  0  0  0  0  0  0  0  0  0  0
   -4.0911   -0.5006    0.0000 C   0  0  0  0  0  0  0  0  0  0  0  0
   -5.5855   -0.3712    0.0000 C   0  0  0  0  0  0  0  0  0  0  0  0
   -6.2206    0.9877    0.0000 C   0  0  0  0  0  0  0  0  0  0  0  0
   -5.3614    2.2172    0.0000 O   0  0  0  0  0  0  0  0  0  0  0  0
   -7.7150    1.1171    0.0000 N   0  0  0  0  0  0  0  0  0  0  0  0
   -8.3502    2.4760    0.0000 C   0  0  0  0  0  0  0  0  0  0  0  0
   -8.5743   -0.1124    0.0000 C   0  0  0  0  0  0  0  0  0  0  0  0
   -1.9615   -1.9889    0.0000 C   0  0  0  0  0  0  0  0  0  0  0  0
   -1.1878   -3.2739    0.0000 C   0  0  0  0  0  0  0  0  0  0  0  0
    0.2734   -2.9352    0.0000 C   0  0  0  0  0  0  0  0  0  0  0  0
    0.4028   -1.4408    0.0000 C   0  0  0  0  0  0  0  0  0  0  0  0
    1.6000   -0.5370    0.0000 C   0  0  0  0  0  0  0  0  0  0  0  0
    2.9813   -1.1218    0.0000 C   0  0  0  0  0  0  0  0  0  0  0  0
    3.1654   -2.6105    0.0000 O   0  0  0  0  0  0  0  0  0  0  0  0
    4.5467   -3.1954    0.0000 S   0  0  0  0  0  0  0  0  0  0  0  0
    5.1315   -1.8141    0.0000 O   0  0  0  0  0  0  0  0  0  0  0  0
    3.9618   -4.5766    0.0000 O   0  0  0  0  0  0  0  0  0  0  0  0
    5.9280   -3.7802    0.0000 O   0  0  0  0  0  0  0  0  0  0  0  0
    4.1784   -0.2180    0.0000 C   0  0  0  0  0  0  0  0  0  0  0  0
    3.9943    1.2706    0.0000 C   0  0  0  0  0  0  0  0  0  0  0  0
    5.1914    2.1744    0.0000 C   0  0  0  0  0  0  0  0  0  0  0  0
    5.0073    3.6631    0.0000 C   0  0  0  0  0  0  0  0  0  0  0  0
    6.2044    4.5668    0.0000 O   0  0  0  0  0  0  0  0  0  0  0  0
    3.6260    4.2479    0.0000 C   0  0  0  0  0  0  0  0  0  0  0  0
    2.4289    3.3441    0.0000 C   0  0  0  0  0  0  0  0  0  0  0  0
    2.6130    1.8555    0.0000 C   0  0  0  0  0  0  0  0  0  0  0  0
    1.2317    2.4403    0.0000 C   0  0  0  0  0  0  0  0  0  0  0  0
    1.4158    0.9517    0.0000 C   0  0  0  0  0  0  0  0  0  0  0  0
    0.0346    1.5365    0.0000 C   0  0  0  0  0  0  0  0  0  0  0  0
   -1.1626    0.6327    0.0000 C   0  0  0  0  0  0  0  0  0  0  0  0
   -2.5439    1.2176    0.0000 O   0  0  0  0  0  0  0  0  0  0  0  0
   -0.9784   -0.8559    0.0000 C   0  0  0  0  0  0  0  0  0  0  0  0
   -2.4133   -0.4186    0.0000 C   0  0  0  0  0  0  0  0  0  0  0  0
  2  1  1  6
  2  3  1  0
  3  4  1  0
  4  5  1  0
  5  6  2  0
  5  7  1  0
  7  8  1  0
  7  9  1  0
  2 10  1  0
 10 11  1  6
 11 12  1  0
 13 12  1  6
 13 14  1  0
 14 15  1  1
 15 16  1  1
 16 17  1  0
 17 18  2  0
 17 19  2  0
 17 20  1  0
 15 21  1  0
 22 21  1  1
 22 23  1  0
 23 24  1  0
 24 25  1  1
 24 26  1  0
 26 27  1  0
 27 28  1  0
 28 29  1  6
 28 30  1  0
 30 31  1  6
 31 32  1  0
 32 33  1  1
 32 34  1  0
 34 35  1  6
 34 10  1  0
 34 13  1  0
 30 14  1  0
 28 22  1  0
M  END
>  <MS_ID>  (276) 
MS0288

>  <SMILES>  (276) 
C[C@H](CCC(=O)N(C)C)[C@H]1CC[C@H]2[C@@H]3[C@H](OS(=O)(=O)O)C[C@@H]4C[C@H](O)CC[C@]4(C)[C@H]3C[C@H](O)[C@]12C

>  <Structure_dimension>  (276) 
2D

$$$$
MS0289
     RDKit          2D

 28 31  0  0  0  0  0  0  0  0999 V2000
   -4.6340   -2.3524    0.0000 C   0  0  0  0  0  0  0  0  0  0  0  0
   -3.5242   -1.3434    0.0000 C   0  0  0  0  0  0  0  0  0  0  0  0
   -3.8431    0.1223    0.0000 C   0  0  0  0  0  0  0  0  0  0  0  0
   -5.2720    0.5789    0.0000 C   0  0  0  0  0  0  0  0  0  0  0  0
   -5.5909    2.0446    0.0000 C   0  0  0  0  0  0  0  0  0  0  0  0
   -7.0197    2.5012    0.0000 O   0  0  0  0  0  0  0  0  0  0  0  0
   -4.4811    3.0537    0.0000 S   0  0  0  0  0  0  0  0  0  0  0  0
   -2.0954   -1.8000    0.0000 C   0  0  0  0  0  0  0  0  0  0  0  0
   -1.6249   -3.2243    0.0000 C   0  0  0  0  0  0  0  0  0  0  0  0
   -0.1249   -3.2170    0.0000 C   0  0  0  0  0  0  0  0  0  0  0  0
    0.3317   -1.7882    0.0000 C   0  0  0  0  0  0  0  0  0  0  0  0
    1.6990   -1.1715    0.0000 C   0  0  0  0  0  0  0  0  0  0  0  0
    2.9168   -2.0473    0.0000 C   0  0  0  0  0  0  0  0  0  0  0  0
    2.7672   -3.5398    0.0000 O   0  0  0  0  0  0  0  0  0  0  0  0
    4.2841   -1.4305    0.0000 C   0  0  0  0  0  0  0  0  0  0  0  0
    4.4337    0.0620    0.0000 C   0  0  0  0  0  0  0  0  0  0  0  0
    5.8011    0.6787    0.0000 C   0  0  0  0  0  0  0  0  0  0  0  0
    5.9506    2.1713    0.0000 C   0  0  0  0  0  0  0  0  0  0  0  0
    4.7328    3.0471    0.0000 C   0  0  0  0  0  0  0  0  0  0  0  0
    3.3655    2.4303    0.0000 C   0  0  0  0  0  0  0  0  0  0  0  0
    3.2159    0.9378    0.0000 C   0  0  0  0  0  0  0  0  0  0  0  0
    1.9981    1.8136    0.0000 C   0  0  0  0  0  0  0  0  0  0  0  0
    1.8486    0.3211    0.0000 C   0  0  0  0  0  0  0  0  0  0  0  0
    0.6308    1.1968    0.0000 C   0  0  0  0  0  0  0  0  0  0  0  0
   -0.7366    0.5801    0.0000 C   0  0  0  0  0  0  0  0  0  0  0  0
   -1.9543    1.4559    0.0000 O   0  0  0  0  0  0  0  0  0  0  0  0
   -0.8861   -0.9124    0.0000 C   0  0  0  0  0  0  0  0  0  0  0  0
   -2.1888   -0.1687    0.0000 C   0  0  0  0  0  0  0  0  0  0  0  0
  2  1  1  6
  2  3  1  0
  3  4  1  0
  4  5  1  0
  5  6  2  0
  5  7  1  0
  2  8  1  0
  8  9  1  6
  9 10  1  0
 11 10  1  6
 11 12  1  0
 12 13  1  1
 13 14  1  6
 13 15  1  0
 16 15  1  1
 16 17  1  0
 17 18  1  0
 18 19  1  0
 19 20  1  0
 20 21  1  0
 21 22  1  6
 21 23  1  0
 23 24  1  6
 24 25  1  0
 25 26  1  1
 25 27  1  0
 27 28  1  6
 27  8  1  0
 27 11  1  0
 23 12  1  0
 21 16  1  0
M  END
>  <MS_ID>  (277) 
MS0289

>  <SMILES>  (277) 
C[C@H](CCC(=O)S)[C@H]1CC[C@H]2[C@@H]3[C@@H](O)C[C@@H]4CCCC[C@]4(C)[C@H]3C[C@H](O)[C@]12C

>  <Structure_dimension>  (277) 
2D

$$$$
MS0290
     RDKit          2D

 28 31  0  0  0  0  0  0  0  0999 V2000
   -5.1275   -2.0302    0.0000 C   0  0  0  0  0  0  0  0  0  0  0  0
   -3.9468   -1.1050    0.0000 C   0  0  0  0  0  0  0  0  0  0  0  0
   -4.1576    0.3801    0.0000 C   0  0  0  0  0  0  0  0  0  0  0  0
   -5.5492    0.9401    0.0000 C   0  0  0  0  0  0  0  0  0  0  0  0
   -5.7600    2.4252    0.0000 C   0  0  0  0  0  0  0  0  0  0  0  0
   -4.5793    3.3503    0.0000 O   0  0  0  0  0  0  0  0  0  0  0  0
   -7.1516    2.9851    0.0000 O   0  0  0  0  0  0  0  0  0  0  0  0
   -2.5552   -1.6650    0.0000 C   0  0  0  0  0  0  0  0  0  0  0  0
   -2.1903   -3.1199    0.0000 C   0  0  0  0  0  0  0  0  0  0  0  0
   -0.6938   -3.2225    0.0000 C   0  0  0  0  0  0  0  0  0  0  0  0
   -0.1339   -1.8309    0.0000 C   0  0  0  0  0  0  0  0  0  0  0  0
    1.2750   -1.3159    0.0000 C   0  0  0  0  0  0  0  0  0  0  0  0
    2.4254   -2.2785    0.0000 C   0  0  0  0  0  0  0  0  0  0  0  0
    2.1670   -3.7560    0.0000 O   0  0  0  0  0  0  0  0  0  0  0  0
    3.8342   -1.7635    0.0000 C   0  0  0  0  0  0  0  0  0  0  0  0
    4.0926   -0.2859    0.0000 C   0  0  0  0  0  0  0  0  0  0  0  0
    5.5014    0.2291    0.0000 C   0  0  0  0  0  0  0  0  0  0  0  0
    5.7598    1.7067    0.0000 C   0  0  0  0  0  0  0  0  0  0  0  0
    7.1687    2.2217    0.0000 Cl  0  0  0  0  0  0  0  0  0  0  0  0
    4.6094    2.6692    0.0000 C   0  0  0  0  0  0  0  0  0  0  0  0
    3.2006    2.1542    0.0000 C   0  0  0  0  0  0  0  0  0  0  0  0
    2.9422    0.6767    0.0000 C   0  0  0  0  0  0  0  0  0  0  0  0
    1.7918    1.6392    0.0000 C   0  0  0  0  0  0  0  0  0  0  0  0
    1.5334    0.1617    0.0000 C   0  0  0  0  0  0  0  0  0  0  0  0
    0.3830    1.1242    0.0000 C   0  0  0  0  0  0  0  0  0  0  0  0
   -1.0259    0.6093    0.0000 C   0  0  0  0  0  0  0  0  0  0  0  0
   -1.2843   -0.8683    0.0000 C   0  0  0  0  0  0  0  0  0  0  0  0
   -2.5290   -0.0313    0.0000 C   0  0  0  0  0  0  0  0  0  0  0  0
  2  1  1  6
  2  3  1  0
  3  4  1  0
  4  5  1  0
  5  6  2  0
  5  7  1  0
  2  8  1  0
  8  9  1  6
  9 10  1  0
 11 10  1  6
 11 12  1  0
 12 13  1  1
 13 14  1  6
 13 15  1  0
 16 15  1  1
 16 17  1  0
 17 18  1  0
 18 19  1  1
 18 20  1  0
 20 21  1  0
 21 22  1  0
 22 23  1  6
 22 24  1  0
 24 25  1  6
 25 26  1  0
 26 27  1  0
 27 28  1  6
 27  8  1  0
 27 11  1  0
 24 12  1  0
 22 16  1  0
M  END
>  <MS_ID>  (278) 
MS0290

>  <SMILES>  (278) 
C[C@H](CCC(=O)O)[C@H]1CC[C@H]2[C@@H]3[C@@H](O)C[C@@H]4C[C@H](Cl)CC[C@]4(C)[C@H]3CC[C@]12C

>  <Structure_dimension>  (278) 
2D

$$$$
MS0291
     RDKit          2D

 26 29  0  0  0  0  0  0  0  0999 V2000
   -4.7113   -2.2151    0.0000 C   0  0  0  0  0  0  0  0  0  0  0  0
   -3.5555   -1.2589    0.0000 C   0  0  0  0  0  0  0  0  0  0  0  0
   -3.8058    0.2201    0.0000 C   0  0  0  0  0  0  0  0  0  0  0  0
   -5.2117    0.7429    0.0000 C   0  0  0  0  0  0  0  0  0  0  0  0
   -5.4619    2.2219    0.0000 C   0  0  0  0  0  0  0  0  0  0  0  0
   -4.3062    3.1780    0.0000 O   0  0  0  0  0  0  0  0  0  0  0  0
   -6.8678    2.7447    0.0000 O   0  0  0  0  0  0  0  0  0  0  0  0
   -2.1496   -1.7817    0.0000 C   0  0  0  0  0  0  0  0  0  0  0  0
   -1.7462   -3.2265    0.0000 C   0  0  0  0  0  0  0  0  0  0  0  0
   -0.2475   -3.2892    0.0000 C   0  0  0  0  0  0  0  0  0  0  0  0
    0.2753   -1.8833    0.0000 C   0  0  0  0  0  0  0  0  0  0  0  0
    1.6700   -1.3310    0.0000 C   0  0  0  0  0  0  0  0  0  0  0  0
    2.8455   -2.2627    0.0000 C   0  0  0  0  0  0  0  0  0  0  0  0
    4.2402   -1.7105    0.0000 C   0  0  0  0  0  0  0  0  0  0  0  0
    4.4593   -0.2265    0.0000 C   0  0  0  0  0  0  0  0  0  0  0  0
    5.8539    0.3257    0.0000 C   0  0  0  0  0  0  0  0  0  0  0  0
    6.0730    1.8096    0.0000 C   0  0  0  0  0  0  0  0  0  0  0  0
    4.8974    2.7413    0.0000 C   0  0  0  0  0  0  0  0  0  0  0  0
    3.5027    2.1891    0.0000 C   0  0  0  0  0  0  0  0  0  0  0  0
    3.2837    0.7051    0.0000 C   0  0  0  0  0  0  0  0  0  0  0  0
    2.1081    1.6368    0.0000 C   0  0  0  0  0  0  0  0  0  0  0  0
    1.8890    0.1529    0.0000 C   0  0  0  0  0  0  0  0  0  0  0  0
    0.7135    1.0846    0.0000 C   0  0  0  0  0  0  0  0  0  0  0  0
   -0.6812    0.5323    0.0000 C   0  0  0  0  0  0  0  0  0  0  0  0
   -0.9002   -0.9516    0.0000 C   0  0  0  0  0  0  0  0  0  0  0  0
   -2.1668   -0.1479    0.0000 C   0  0  0  0  0  0  0  0  0  0  0  0
  2  1  1  6
  2  3  1  0
  3  4  1  0
  4  5  1  0
  5  6  2  0
  5  7  1  0
  2  8  1  0
  8  9  1  6
  9 10  1  0
 11 10  1  6
 11 12  1  0
 12 13  1  1
 13 14  1  0
 15 14  1  6
 15 16  1  0
 16 17  1  0
 17 18  1  0
 18 19  1  0
 19 20  1  0
 20 21  1  6
 20 22  1  0
 22 23  1  6
 23 24  1  0
 24 25  1  0
 25 26  1  6
 25  8  1  0
 25 11  1  0
 22 12  1  0
 20 15  1  0
M  END
>  <MS_ID>  (279) 
MS0291

>  <SMILES>  (279) 
C[C@H](CCC(=O)O)[C@H]1CC[C@H]2[C@@H]3CC[C@H]4CCCC[C@]4(C)[C@H]3CC[C@]12C

>  <Structure_dimension>  (279) 
2D

$$$$
MS0292
     RDKit          2D

 35 38  0  0  0  0  0  0  0  0999 V2000
   -4.9852   -3.3212    0.0000 C   0  0  0  0  0  0  0  0  0  0  0  0
   -3.9429   -2.2425    0.0000 C   0  0  0  0  0  0  0  0  0  0  0  0
   -4.3559   -0.8005    0.0000 C   0  0  0  0  0  0  0  0  0  0  0  0
   -5.8113   -0.4372    0.0000 C   0  0  0  0  0  0  0  0  0  0  0  0
   -6.2243    1.0048    0.0000 C   0  0  0  0  0  0  0  0  0  0  0  0
   -5.1821    2.0835    0.0000 O   0  0  0  0  0  0  0  0  0  0  0  0
   -7.6797    1.3681    0.0000 O   0  0  0  0  0  0  0  0  0  0  0  0
   -8.0927    2.8101    0.0000 C   0  0  0  0  0  0  0  0  0  0  0  0
   -9.5481    3.1734    0.0000 C   0  0  0  0  0  0  0  0  0  0  0  0
   -9.9611    4.6154    0.0000 O   0  0  0  0  0  0  0  0  0  0  0  0
   -2.4875   -2.6058    0.0000 C   0  0  0  0  0  0  0  0  0  0  0  0
   -1.9260   -3.9967    0.0000 C   0  0  0  0  0  0  0  0  0  0  0  0
   -0.4296   -3.8925    0.0000 C   0  0  0  0  0  0  0  0  0  0  0  0
   -0.0664   -2.4372    0.0000 C   0  0  0  0  0  0  0  0  0  0  0  0
    1.2583   -1.7333    0.0000 C   0  0  0  0  0  0  0  0  0  0  0  0
    2.5301   -2.5286    0.0000 C   0  0  0  0  0  0  0  0  0  0  0  0
    2.4774   -4.0276    0.0000 O   0  0  0  0  0  0  0  0  0  0  0  0
    3.8547   -1.8247    0.0000 C   0  0  0  0  0  0  0  0  0  0  0  0
    3.9075   -0.3256    0.0000 C   0  0  0  0  0  0  0  0  0  0  0  0
    5.2321    0.3782    0.0000 C   0  0  0  0  0  0  0  0  0  0  0  0
    5.2849    1.8773    0.0000 C   0  0  0  0  0  0  0  0  0  0  0  0
    6.6095    2.5811    0.0000 O   0  0  0  0  0  0  0  0  0  0  0  0
    7.8813    1.7859    0.0000 S   0  0  0  0  0  0  0  0  0  0  0  0
    7.0861    0.5140    0.0000 O   0  0  0  0  0  0  0  0  0  0  0  0
    8.6766    3.0577    0.0000 O   0  0  0  0  0  0  0  0  0  0  0  0
    9.1532    0.9906    0.0000 O   0  0  0  0  0  0  0  0  0  0  0  0
    4.0130    2.6725    0.0000 C   0  0  0  0  0  0  0  0  0  0  0  0
    2.6884    1.9687    0.0000 C   0  0  0  0  0  0  0  0  0  0  0  0
    2.6356    0.4696    0.0000 C   0  0  0  0  0  0  0  0  0  0  0  0
    1.3638    1.2648    0.0000 C   0  0  0  0  0  0  0  0  0  0  0  0
    1.3110   -0.2343    0.0000 C   0  0  0  0  0  0  0  0  0  0  0  0
    0.0392    0.5610    0.0000 C   0  0  0  0  0  0  0  0  0  0  0  0
   -1.2854   -0.1429    0.0000 C   0  0  0  0  0  0  0  0  0  0  0  0
   -1.3382   -1.6419    0.0000 C   0  0  0  0  0  0  0  0  0  0  0  0
   -2.6862   -0.9840    0.0000 C   0  0  0  0  0  0  0  0  0  0  0  0
  2  1  1  6
  2  3  1  0
  3  4  1  0
  4  5  1  0
  5  6  2  0
  5  7  1  0
  7  8  1  0
  8  9  1  0
  9 10  1  0
  2 11  1  0
 11 12  1  6
 12 13  1  0
 14 13  1  6
 14 15  1  0
 15 16  1  1
 16 17  1  1
 16 18  1  0
 19 18  1  1
 19 20  1  0
 20 21  1  0
 21 22  1  1
 22 23  1  0
 23 24  2  0
 23 25  2  0
 23 26  1  0
 21 27  1  0
 27 28  1  0
 28 29  1  0
 29 30  1  6
 29 31  1  0
 31 32  1  6
 32 33  1  0
 33 34  1  0
 34 35  1  6
 34 11  1  0
 34 14  1  0
 31 15  1  0
 29 19  1  0
M  END
>  <MS_ID>  (280) 
MS0292

>  <SMILES>  (280) 
C[C@H](CCC(=O)OCCO)[C@H]1CC[C@H]2[C@@H]3[C@H](O)C[C@@H]4C[C@H](OS(=O)(=O)O)CC[C@]4(C)[C@H]3CC[C@]12C

>  <Structure_dimension>  (280) 
2D

$$$$
MS0293
     RDKit          2D

 28 31  0  0  0  0  0  0  0  0999 V2000
   -5.2870   -1.7591    0.0000 C   0  0  0  0  0  0  0  0  0  0  0  0
   -4.0706   -0.8813    0.0000 C   0  0  0  0  0  0  0  0  0  0  0  0
   -4.2226    0.6109    0.0000 C   0  0  0  0  0  0  0  0  0  0  0  0
   -5.5910    1.2255    0.0000 C   0  0  0  0  0  0  0  0  0  0  0  0
   -5.7429    2.7177    0.0000 C   0  0  0  0  0  0  0  0  0  0  0  0
   -7.1113    3.3322    0.0000 O   0  0  0  0  0  0  0  0  0  0  0  0
   -2.7023   -1.4959    0.0000 C   0  0  0  0  0  0  0  0  0  0  0  0
   -2.3951   -2.9641    0.0000 C   0  0  0  0  0  0  0  0  0  0  0  0
   -0.9039   -3.1257    0.0000 C   0  0  0  0  0  0  0  0  0  0  0  0
   -0.2893   -1.7573    0.0000 C   0  0  0  0  0  0  0  0  0  0  0  0
    1.1387   -1.2984    0.0000 C   0  0  0  0  0  0  0  0  0  0  0  0
    2.2502   -2.3057    0.0000 C   0  0  0  0  0  0  0  0  0  0  0  0
    1.9336   -3.7719    0.0000 O   0  0  0  0  0  0  0  0  0  0  0  0
    3.6783   -1.8467    0.0000 C   0  0  0  0  0  0  0  0  0  0  0  0
    3.9949   -0.3805    0.0000 C   0  0  0  0  0  0  0  0  0  0  0  0
    5.4229    0.0784    0.0000 C   0  0  0  0  0  0  0  0  0  0  0  0
    5.7395    1.5446    0.0000 C   0  0  0  0  0  0  0  0  0  0  0  0
    7.1676    2.0035    0.0000 O   0  0  0  0  0  0  0  0  0  0  0  0
    4.6280    2.5519    0.0000 C   0  0  0  0  0  0  0  0  0  0  0  0
    3.2000    2.0930    0.0000 C   0  0  0  0  0  0  0  0  0  0  0  0
    2.8834    0.6267    0.0000 C   0  0  0  0  0  0  0  0  0  0  0  0
    1.7719    1.6340    0.0000 C   0  0  0  0  0  0  0  0  0  0  0  0
    1.4553    0.1678    0.0000 C   0  0  0  0  0  0  0  0  0  0  0  0
    0.3438    1.1751    0.0000 C   0  0  0  0  0  0  0  0  0  0  0  0
   -1.0842    0.7162    0.0000 C   0  0  0  0  0  0  0  0  0  0  0  0
   -2.1957    1.7234    0.0000 O   0  0  0  0  0  0  0  0  0  0  0  0
   -1.4008   -0.7500    0.0000 C   0  0  0  0  0  0  0  0  0  0  0  0
   -2.6115    0.1355    0.0000 C   0  0  0  0  0  0  0  0  0  0  0  0
  2  1  1  6
  2  3  1  0
  3  4  1  0
  4  5  1  0
  5  6  2  0
  2  7  1  0
  7  8  1  6
  8  9  1  0
 10  9  1  6
 10 11  1  0
 11 12  1  1
 12 13  1  6
 12 14  1  0
 15 14  1  1
 15 16  1  0
 16 17  1  0
 17 18  1  1
 17 19  1  0
 19 20  1  0
 20 21  1  0
 21 22  1  6
 21 23  1  0
 23 24  1  6
 24 25  1  0
 25 26  1  1
 25 27  1  0
 27 28  1  6
 27  7  1  0
 27 10  1  0
 23 11  1  0
 21 15  1  0
M  END
>  <MS_ID>  (281) 
MS0293

>  <SMILES>  (281) 
C[C@H](CCC=O)[C@H]1CC[C@H]2[C@@H]3[C@@H](O)C[C@@H]4C[C@H](O)CC[C@]4(C)[C@H]3C[C@H](O)[C@]12C

>  <Structure_dimension>  (281) 
2D

$$$$
MS0294
     RDKit          2D

 28 31  0  0  0  0  0  0  0  0999 V2000
   -5.0096   -2.1352    0.0000 C   0  0  0  0  0  0  0  0  0  0  0  0
   -3.8132   -1.2303    0.0000 C   0  0  0  0  0  0  0  0  0  0  0  0
   -3.9987    0.2582    0.0000 C   0  0  0  0  0  0  0  0  0  0  0  0
   -5.3805    0.8418    0.0000 C   0  0  0  0  0  0  0  0  0  0  0  0
   -5.5659    2.3303    0.0000 C   0  0  0  0  0  0  0  0  0  0  0  0
   -6.9477    2.9140    0.0000 O   0  0  0  0  0  0  0  0  0  0  0  0
   -4.3695    3.2351    0.0000 S   0  0  0  0  0  0  0  0  0  0  0  0
   -2.4315   -1.8140    0.0000 C   0  0  0  0  0  0  0  0  0  0  0  0
   -2.0914   -3.2749    0.0000 C   0  0  0  0  0  0  0  0  0  0  0  0
   -0.5969   -3.4030    0.0000 C   0  0  0  0  0  0  0  0  0  0  0  0
   -0.0133   -2.0212    0.0000 C   0  0  0  0  0  0  0  0  0  0  0  0
    1.4041   -1.5304    0.0000 C   0  0  0  0  0  0  0  0  0  0  0  0
    2.5379   -2.5125    0.0000 C   0  0  0  0  0  0  0  0  0  0  0  0
    3.9554   -2.0216    0.0000 C   0  0  0  0  0  0  0  0  0  0  0  0
    4.2390   -0.5487    0.0000 C   0  0  0  0  0  0  0  0  0  0  0  0
    5.6564   -0.0578    0.0000 C   0  0  0  0  0  0  0  0  0  0  0  0
    5.9400    1.4151    0.0000 C   0  0  0  0  0  0  0  0  0  0  0  0
    7.3574    1.9060    0.0000 O   0  0  0  0  0  0  0  0  0  0  0  0
    4.8062    2.3972    0.0000 C   0  0  0  0  0  0  0  0  0  0  0  0
    3.3888    1.9064    0.0000 C   0  0  0  0  0  0  0  0  0  0  0  0
    3.1052    0.4334    0.0000 C   0  0  0  0  0  0  0  0  0  0  0  0
    1.9714    1.4155    0.0000 C   0  0  0  0  0  0  0  0  0  0  0  0
    1.6878   -0.0574    0.0000 C   0  0  0  0  0  0  0  0  0  0  0  0
    0.5540    0.9246    0.0000 C   0  0  0  0  0  0  0  0  0  0  0  0
   -0.8635    0.4338    0.0000 C   0  0  0  0  0  0  0  0  0  0  0  0
   -1.9973    1.4159    0.0000 O   0  0  0  0  0  0  0  0  0  0  0  0
   -1.1471   -1.0392    0.0000 C   0  0  0  0  0  0  0  0  0  0  0  0
   -2.3773   -0.1810    0.0000 C   0  0  0  0  0  0  0  0  0  0  0  0
  2  1  1  6
  2  3  1  0
  3  4  1  0
  4  5  1  0
  5  6  2  0
  5  7  1  0
  2  8  1  0
  8  9  1  6
  9 10  1  0
 11 10  1  6
 11 12  1  0
 12 13  1  1
 13 14  1  0
 15 14  1  1
 15 16  1  0
 16 17  1  0
 17 18  1  6
 17 19  1  0
 19 20  1  0
 20 21  1  0
 21 22  1  6
 21 23  1  0
 23 24  1  6
 24 25  1  0
 25 26  1  6
 25 27  1  0
 27 28  1  6
 27  8  1  0
 27 11  1  0
 23 12  1  0
 21 15  1  0
M  END
>  <MS_ID>  (282) 
MS0294

>  <SMILES>  (282) 
C[C@H](CCC(=O)S)[C@H]1CC[C@H]2[C@@H]3CC[C@@H]4C[C@@H](O)CC[C@]4(C)[C@H]3C[C@@H](O)[C@]12C

>  <Structure_dimension>  (282) 
2D

$$$$
MS0295
     RDKit          2D

 38 43  0  0  0  0  0  0  0  0999 V2000
   -1.5680   -3.9479    0.0000 C   0  0  0  0  0  0  0  0  0  0  0  0
   -0.7652   -2.6808    0.0000 C   0  0  0  0  0  0  0  0  0  0  0  0
   -1.4611   -1.3520    0.0000 C   0  0  0  0  0  0  0  0  0  0  0  0
   -2.9599   -1.2904    0.0000 C   0  0  0  0  0  0  0  0  0  0  0  0
   -3.6558    0.0384    0.0000 C   0  0  0  0  0  0  0  0  0  0  0  0
   -2.8530    1.3055    0.0000 O   0  0  0  0  0  0  0  0  0  0  0  0
   -5.1546    0.1001    0.0000 C   0  0  0  0  0  0  0  0  0  0  0  0
   -5.9573   -1.1670    0.0000 C   0  0  0  0  0  0  0  0  0  0  0  0
   -7.4561   -1.1053    0.0000 C   0  0  0  0  0  0  0  0  0  0  0  0
   -8.1520    0.2235    0.0000 C   0  0  0  0  0  0  0  0  0  0  0  0
   -9.6507    0.2851    0.0000 C   0  0  0  0  0  0  0  0  0  0  0  0
  -10.3467    1.6139    0.0000 C   0  0  0  0  0  0  0  0  0  0  0  0
   -9.5439    2.8810    0.0000 C   0  0  0  0  0  0  0  0  0  0  0  0
   -8.0452    2.8193    0.0000 C   0  0  0  0  0  0  0  0  0  0  0  0
   -7.3492    1.4906    0.0000 C   0  0  0  0  0  0  0  0  0  0  0  0
   -5.8505    1.4289    0.0000 C   0  0  0  0  0  0  0  0  0  0  0  0
    0.7335   -2.7425    0.0000 C   0  0  0  0  0  0  0  0  0  0  0  0
    1.5646   -3.9912    0.0000 C   0  0  0  0  0  0  0  0  0  0  0  0
    3.0090   -3.5868    0.0000 C   0  0  0  0  0  0  0  0  0  0  0  0
    3.0707   -2.0880    0.0000 C   0  0  0  0  0  0  0  0  0  0  0  0
    4.2257   -1.1310    0.0000 C   0  0  0  0  0  0  0  0  0  0  0  0
    5.6321   -1.6528    0.0000 C   0  0  0  0  0  0  0  0  0  0  0  0
    5.8833   -3.1316    0.0000 O   0  0  0  0  0  0  0  0  0  0  0  0
    6.7871   -0.6958    0.0000 C   0  0  0  0  0  0  0  0  0  0  0  0
    6.5358    0.7830    0.0000 C   0  0  0  0  0  0  0  0  0  0  0  0
    7.6909    1.7400    0.0000 C   0  0  0  0  0  0  0  0  0  0  0  0
    7.4396    3.2188    0.0000 C   0  0  0  0  0  0  0  0  0  0  0  0
    8.5946    4.1758    0.0000 O   0  0  0  0  0  0  0  0  0  0  0  0
    6.0333    3.7406    0.0000 C   0  0  0  0  0  0  0  0  0  0  0  0
    4.8782    2.7836    0.0000 C   0  0  0  0  0  0  0  0  0  0  0  0
    5.1295    1.3048    0.0000 C   0  0  0  0  0  0  0  0  0  0  0  0
    3.7232    1.8266    0.0000 C   0  0  0  0  0  0  0  0  0  0  0  0
    3.9745    0.3478    0.0000 C   0  0  0  0  0  0  0  0  0  0  0  0
    2.5681    0.8696    0.0000 C   0  0  0  0  0  0  0  0  0  0  0  0
    1.4131   -0.0874    0.0000 C   0  0  0  0  0  0  0  0  0  0  0  0
    0.0068    0.4344    0.0000 O   0  0  0  0  0  0  0  0  0  0  0  0
    1.6644   -1.5662    0.0000 C   0  0  0  0  0  0  0  0  0  0  0  0
    0.2112   -1.1943    0.0000 C   0  0  0  0  0  0  0  0  0  0  0  0
  2  1  1  6
  2  3  1  0
  3  4  1  0
  4  5  1  0
  5  6  2  0
  5  7  1  0
  7  8  2  0
  8  9  1  0
  9 10  2  0
 10 11  1  0
 11 12  2  0
 12 13  1  0
 13 14  2  0
 14 15  1  0
 15 16  2  0
  2 17  1  0
 17 18  1  6
 18 19  1  0
 20 19  1  6
 20 21  1  0
 21 22  1  1
 22 23  1  1
 22 24  1  0
 25 24  1  1
 25 26  1  0
 26 27  1  0
 27 28  1  1
 27 29  1  0
 29 30  1  0
 30 31  1  0
 31 32  1  6
 31 33  1  0
 33 34  1  6
 34 35  1  0
 35 36  1  1
 35 37  1  0
 37 38  1  6
 16  7  1  0
 37 17  1  0
 15 10  1  0
 37 20  1  0
 33 21  1  0
 31 25  1  0
M  END
>  <MS_ID>  (283) 
MS0295

>  <SMILES>  (283) 
C[C@H](CCC(=O)c1ccc2ccccc2c1)[C@H]1CC[C@H]2[C@@H]3[C@H](O)C[C@@H]4C[C@H](O)CC[C@]4(C)[C@H]3C[C@H](O)[C@]12C

>  <Structure_dimension>  (283) 
2D

$$$$
MS0296
     RDKit          2D

 30 33  0  0  0  0  0  0  0  0999 V2000
   -7.4279    3.5601    0.0000 C   0  0  0  0  0  0  0  0  0  0  0  0
   -7.0729    2.1027    0.0000 O   0  0  0  0  0  0  0  0  0  0  0  0
   -5.6333    1.6814    0.0000 C   0  0  0  0  0  0  0  0  0  0  0  0
   -4.5486    2.7174    0.0000 O   0  0  0  0  0  0  0  0  0  0  0  0
   -5.2784    0.2240    0.0000 C   0  0  0  0  0  0  0  0  0  0  0  0
   -3.8388   -0.1974    0.0000 C   0  0  0  0  0  0  0  0  0  0  0  0
   -3.4838   -1.6548    0.0000 C   0  0  0  0  0  0  0  0  0  0  0  0
   -4.5685   -2.6908    0.0000 C   0  0  0  0  0  0  0  0  0  0  0  0
   -2.0442   -2.0761    0.0000 C   0  0  0  0  0  0  0  0  0  0  0  0
   -1.5389   -3.4884    0.0000 C   0  0  0  0  0  0  0  0  0  0  0  0
   -0.0395   -3.4442    0.0000 C   0  0  0  0  0  0  0  0  0  0  0  0
    0.3818   -2.0046    0.0000 C   0  0  0  0  0  0  0  0  0  0  0  0
    1.7336   -1.3544    0.0000 C   0  0  0  0  0  0  0  0  0  0  0  0
    2.9725   -2.1999    0.0000 C   0  0  0  0  0  0  0  0  0  0  0  0
    2.8597   -3.6957    0.0000 O   0  0  0  0  0  0  0  0  0  0  0  0
    4.3243   -1.5497    0.0000 C   0  0  0  0  0  0  0  0  0  0  0  0
    4.4371   -0.0540    0.0000 C   0  0  0  0  0  0  0  0  0  0  0  0
    5.7888    0.5962    0.0000 C   0  0  0  0  0  0  0  0  0  0  0  0
    5.9016    2.0920    0.0000 C   0  0  0  0  0  0  0  0  0  0  0  0
    7.2534    2.7422    0.0000 O   0  0  0  0  0  0  0  0  0  0  0  0
    4.6627    2.9375    0.0000 C   0  0  0  0  0  0  0  0  0  0  0  0
    3.3109    2.2873    0.0000 C   0  0  0  0  0  0  0  0  0  0  0  0
    3.1981    0.7916    0.0000 C   0  0  0  0  0  0  0  0  0  0  0  0
    1.9591    1.6371    0.0000 C   0  0  0  0  0  0  0  0  0  0  0  0
    1.8464    0.1414    0.0000 C   0  0  0  0  0  0  0  0  0  0  0  0
    0.6074    0.9869    0.0000 C   0  0  0  0  0  0  0  0  0  0  0  0
   -0.7444    0.3367    0.0000 C   0  0  0  0  0  0  0  0  0  0  0  0
   -1.9833    1.1823    0.0000 O   0  0  0  0  0  0  0  0  0  0  0  0
   -0.8572   -1.1590    0.0000 C   0  0  0  0  0  0  0  0  0  0  0  0
   -2.1777   -0.4476    0.0000 C   0  0  0  0  0  0  0  0  0  0  0  0
  1  2  1  0
  2  3  1  0
  3  4  2  0
  3  5  1  0
  5  6  1  0
  6  7  1  0
  7  8  1  6
  7  9  1  0
  9 10  1  6
 10 11  1  0
 12 11  1  6
 12 13  1  0
 13 14  1  1
 14 15  1  1
 14 16  1  0
 17 16  1  1
 17 18  1  0
 18 19  1  0
 19 20  1  1
 19 21  1  0
 21 22  1  0
 22 23  1  0
 23 24  1  6
 23 25  1  0
 25 26  1  6
 26 27  1  0
 27 28  2  0
 27 29  1  0
 29 30  1  6
 29  9  1  0
 29 12  1  0
 25 13  1  0
 23 17  1  0
M  END
>  <MS_ID>  (284) 
MS0296

>  <SMILES>  (284) 
COC(=O)CC[C@@H](C)[C@H]1CC[C@H]2[C@@H]3[C@H](O)C[C@@H]4C[C@H](O)CC[C@]4(C)[C@H]3CC(=O)[C@]12C

>  <Structure_dimension>  (284) 
2D

$$$$
MS0297
     RDKit          2D

 34 37  0  0  0  0  0  0  0  0999 V2000
   -4.5591   -3.1044    0.0000 C   0  0  0  0  0  0  0  0  0  0  0  0
   -3.7031   -1.8727    0.0000 C   0  0  0  0  0  0  0  0  0  0  0  0
   -4.3419   -0.5155    0.0000 C   0  0  0  0  0  0  0  0  0  0  0  0
   -5.8366   -0.3901    0.0000 C   0  0  0  0  0  0  0  0  0  0  0  0
   -6.4754    0.9671    0.0000 C   0  0  0  0  0  0  0  0  0  0  0  0
   -5.6194    2.1989    0.0000 O   0  0  0  0  0  0  0  0  0  0  0  0
   -7.9702    1.0925    0.0000 N   0  0  0  0  0  0  0  0  0  0  0  0
   -8.6089    2.4497    0.0000 O   0  0  0  0  0  0  0  0  0  0  0  0
   -2.2084   -1.9981    0.0000 C   0  0  0  0  0  0  0  0  0  0  0  0
   -1.4312   -3.2811    0.0000 C   0  0  0  0  0  0  0  0  0  0  0  0
    0.0291   -2.9384    0.0000 C   0  0  0  0  0  0  0  0  0  0  0  0
    0.1545   -1.4437    0.0000 C   0  0  0  0  0  0  0  0  0  0  0  0
    1.3492   -0.5367    0.0000 C   0  0  0  0  0  0  0  0  0  0  0  0
    2.7321   -1.1179    0.0000 C   0  0  0  0  0  0  0  0  0  0  0  0
    2.9202   -2.6060    0.0000 O   0  0  0  0  0  0  0  0  0  0  0  0
    4.3030   -3.1872    0.0000 S   0  0  0  0  0  0  0  0  0  0  0  0
    4.8842   -1.8043    0.0000 O   0  0  0  0  0  0  0  0  0  0  0  0
    3.7218   -4.5700    0.0000 O   0  0  0  0  0  0  0  0  0  0  0  0
    5.6859   -3.7684    0.0000 O   0  0  0  0  0  0  0  0  0  0  0  0
    3.9268   -0.2109    0.0000 C   0  0  0  0  0  0  0  0  0  0  0  0
    3.7387    1.2773    0.0000 C   0  0  0  0  0  0  0  0  0  0  0  0
    4.9334    2.1843    0.0000 C   0  0  0  0  0  0  0  0  0  0  0  0
    4.7453    3.6724    0.0000 C   0  0  0  0  0  0  0  0  0  0  0  0
    5.9400    4.5794    0.0000 O   0  0  0  0  0  0  0  0  0  0  0  0
    3.3625    4.2536    0.0000 C   0  0  0  0  0  0  0  0  0  0  0  0
    2.1677    3.3466    0.0000 C   0  0  0  0  0  0  0  0  0  0  0  0
    2.3559    1.8585    0.0000 C   0  0  0  0  0  0  0  0  0  0  0  0
    0.9730    2.4396    0.0000 C   0  0  0  0  0  0  0  0  0  0  0  0
    1.1611    0.9515    0.0000 C   0  0  0  0  0  0  0  0  0  0  0  0
   -0.2217    1.5326    0.0000 C   0  0  0  0  0  0  0  0  0  0  0  0
   -1.4164    0.6257    0.0000 C   0  0  0  0  0  0  0  0  0  0  0  0
   -2.7993    1.2068    0.0000 O   0  0  0  0  0  0  0  0  0  0  0  0
   -1.2283   -0.8625    0.0000 C   0  0  0  0  0  0  0  0  0  0  0  0
   -2.6643   -0.4291    0.0000 C   0  0  0  0  0  0  0  0  0  0  0  0
  2  1  1  6
  2  3  1  0
  3  4  1  0
  4  5  1  0
  5  6  2  0
  5  7  1  0
  7  8  1  0
  2  9  1  0
  9 10  1  6
 10 11  1  0
 12 11  1  6
 12 13  1  0
 13 14  1  1
 14 15  1  1
 15 16  1  0
 16 17  2  0
 16 18  2  0
 16 19  1  0
 14 20  1  0
 21 20  1  1
 21 22  1  0
 22 23  1  0
 23 24  1  1
 23 25  1  0
 25 26  1  0
 26 27  1  0
 27 28  1  6
 27 29  1  0
 29 30  1  6
 30 31  1  0
 31 32  1  1
 31 33  1  0
 33 34  1  6
 33  9  1  0
 33 12  1  0
 29 13  1  0
 27 21  1  0
M  END
>  <MS_ID>  (285) 
MS0297

>  <SMILES>  (285) 
C[C@H](CCC(=O)NO)[C@H]1CC[C@H]2[C@@H]3[C@H](OS(=O)(=O)O)C[C@@H]4C[C@H](O)CC[C@]4(C)[C@H]3C[C@H](O)[C@]12C

>  <Structure_dimension>  (285) 
2D

$$$$
MS0298
     RDKit          2D

 36 40  0  0  0  0  0  0  0  0999 V2000
   -1.8126   -4.4420    0.0000 C   0  0  0  0  0  0  0  0  0  0  0  0
   -1.1323   -3.1052    0.0000 C   0  0  0  0  0  0  0  0  0  0  0  0
   -1.9499   -1.8476    0.0000 C   0  0  0  0  0  0  0  0  0  0  0  0
   -3.4478   -1.9269    0.0000 C   0  0  0  0  0  0  0  0  0  0  0  0
   -4.2654   -0.6693    0.0000 C   0  0  0  0  0  0  0  0  0  0  0  0
   -3.5851    0.6676    0.0000 O   0  0  0  0  0  0  0  0  0  0  0  0
   -5.7633   -0.7486    0.0000 C   0  0  0  0  0  0  0  0  0  0  0  0
   -6.5809    0.5090    0.0000 C   0  0  0  0  0  0  0  0  0  0  0  0
   -5.9006    1.8459    0.0000 C   0  0  0  0  0  0  0  0  0  0  0  0
   -6.7182    3.1035    0.0000 C   0  0  0  0  0  0  0  0  0  0  0  0
   -8.2162    3.0242    0.0000 C   0  0  0  0  0  0  0  0  0  0  0  0
   -8.8964    1.6873    0.0000 C   0  0  0  0  0  0  0  0  0  0  0  0
  -10.3943    1.6080    0.0000 O   0  0  0  0  0  0  0  0  0  0  0  0
   -8.0788    0.4297    0.0000 C   0  0  0  0  0  0  0  0  0  0  0  0
    0.3656   -3.0259    0.0000 C   0  0  0  0  0  0  0  0  0  0  0  0
    1.3102   -4.1911    0.0000 C   0  0  0  0  0  0  0  0  0  0  0  0
    2.7103   -3.6528    0.0000 C   0  0  0  0  0  0  0  0  0  0  0  0
    2.6310   -2.1549    0.0000 C   0  0  0  0  0  0  0  0  0  0  0  0
    3.6911   -1.0937    0.0000 C   0  0  0  0  0  0  0  0  0  0  0  0
    5.1402   -1.4812    0.0000 C   0  0  0  0  0  0  0  0  0  0  0  0
    5.5292   -2.9299    0.0000 O   0  0  0  0  0  0  0  0  0  0  0  0
    6.2003   -0.4200    0.0000 C   0  0  0  0  0  0  0  0  0  0  0  0
    5.8113    1.0287    0.0000 C   0  0  0  0  0  0  0  0  0  0  0  0
    6.8714    2.0899    0.0000 C   0  0  0  0  0  0  0  0  0  0  0  0
    6.4825    3.5386    0.0000 C   0  0  0  0  0  0  0  0  0  0  0  0
    7.5426    4.5998    0.0000 O   0  0  0  0  0  0  0  0  0  0  0  0
    5.0334    3.9261    0.0000 C   0  0  0  0  0  0  0  0  0  0  0  0
    3.9733    2.8649    0.0000 C   0  0  0  0  0  0  0  0  0  0  0  0
    4.3622    1.4162    0.0000 C   0  0  0  0  0  0  0  0  0  0  0  0
    2.9132    1.8036    0.0000 C   0  0  0  0  0  0  0  0  0  0  0  0
    3.3021    0.3550    0.0000 C   0  0  0  0  0  0  0  0  0  0  0  0
    1.8530    0.7424    0.0000 C   0  0  0  0  0  0  0  0  0  0  0  0
    0.7929   -0.3188    0.0000 C   0  0  0  0  0  0  0  0  0  0  0  0
   -0.6561    0.0687    0.0000 O   0  0  0  0  0  0  0  0  0  0  0  0
    1.1819   -1.7675    0.0000 C   0  0  0  0  0  0  0  0  0  0  0  0
   -0.2997   -1.5336    0.0000 C   0  0  0  0  0  0  0  0  0  0  0  0
  2  1  1  6
  2  3  1  0
  3  4  1  0
  4  5  1  0
  5  6  2  0
  5  7  1  0
  7  8  1  0
  8  9  2  0
  9 10  1  0
 10 11  2  0
 11 12  1  0
 12 13  1  0
 12 14  2  0
  2 15  1  0
 15 16  1  6
 16 17  1  0
 18 17  1  6
 18 19  1  0
 19 20  1  1
 20 21  1  1
 20 22  1  0
 23 22  1  1
 23 24  1  0
 24 25  1  0
 25 26  1  1
 25 27  1  0
 27 28  1  0
 28 29  1  0
 29 30  1  6
 29 31  1  0
 31 32  1  6
 32 33  1  0
 33 34  1  1
 33 35  1  0
 35 36  1  6
 14  8  1  0
 35 15  1  0
 35 18  1  0
 31 19  1  0
 29 23  1  0
M  END
>  <MS_ID>  (286) 
MS0298

>  <SMILES>  (286) 
C[C@H](CCC(=O)Cc1cccc(O)c1)[C@H]1CC[C@H]2[C@@H]3[C@H](O)C[C@@H]4C[C@H](O)CC[C@]4(C)[C@H]3C[C@H](O)[C@]12C

>  <Structure_dimension>  (286) 
2D

$$$$
MS0299
     RDKit          2D

 30 33  0  0  0  0  0  0  0  0999 V2000
   -5.0361   -2.2421    0.0000 C   0  0  0  0  0  0  0  0  0  0  0  0
   -3.9151   -1.2454    0.0000 C   0  0  0  0  0  0  0  0  0  0  0  0
   -4.2177    0.2237    0.0000 C   0  0  0  0  0  0  0  0  0  0  0  0
   -5.6413    0.6963    0.0000 C   0  0  0  0  0  0  0  0  0  0  0  0
   -5.9439    2.1654    0.0000 C   0  0  0  0  0  0  0  0  0  0  0  0
   -4.8228    3.1621    0.0000 O   0  0  0  0  0  0  0  0  0  0  0  0
   -7.3675    2.6380    0.0000 O   0  0  0  0  0  0  0  0  0  0  0  0
   -2.4915   -1.7180    0.0000 C   0  0  0  0  0  0  0  0  0  0  0  0
   -2.0370   -3.1475    0.0000 C   0  0  0  0  0  0  0  0  0  0  0  0
   -0.5370   -3.1570    0.0000 C   0  0  0  0  0  0  0  0  0  0  0  0
   -0.0645   -1.7333    0.0000 C   0  0  0  0  0  0  0  0  0  0  0  0
    1.3097   -1.1319    0.0000 C   0  0  0  0  0  0  0  0  0  0  0  0
    2.5176   -2.0213    0.0000 C   0  0  0  0  0  0  0  0  0  0  0  0
    2.3514   -3.5120    0.0000 C   0  0  0  0  0  0  0  0  0  0  0  0
    3.5593   -4.4014    0.0000 O   0  0  0  0  0  0  0  0  0  0  0  0
    3.8918   -1.4198    0.0000 C   0  0  0  0  0  0  0  0  0  0  0  0
    4.0580    0.0709    0.0000 C   0  0  0  0  0  0  0  0  0  0  0  0
    5.4321    0.6723    0.0000 C   0  0  0  0  0  0  0  0  0  0  0  0
    5.5984    2.1631    0.0000 C   0  0  0  0  0  0  0  0  0  0  0  0
    6.9725    2.7645    0.0000 O   0  0  0  0  0  0  0  0  0  0  0  0
    4.3904    3.0524    0.0000 C   0  0  0  0  0  0  0  0  0  0  0  0
    3.0163    2.4510    0.0000 C   0  0  0  0  0  0  0  0  0  0  0  0
    2.8501    0.9603    0.0000 C   0  0  0  0  0  0  0  0  0  0  0  0
    1.6421    1.8496    0.0000 C   0  0  0  0  0  0  0  0  0  0  0  0
    1.4759    0.3588    0.0000 C   0  0  0  0  0  0  0  0  0  0  0  0
    0.2680    1.2482    0.0000 C   0  0  0  0  0  0  0  0  0  0  0  0
   -1.1062    0.6468    0.0000 C   0  0  0  0  0  0  0  0  0  0  0  0
   -2.3141    1.5361    0.0000 O   0  0  0  0  0  0  0  0  0  0  0  0
   -1.2724   -0.8440    0.0000 C   0  0  0  0  0  0  0  0  0  0  0  0
   -2.5667   -0.0858    0.0000 C   0  0  0  0  0  0  0  0  0  0  0  0
  2  1  1  6
  2  3  1  0
  3  4  1  0
  4  5  1  0
  5  6  2  0
  5  7  1  0
  2  8  1  0
  8  9  1  6
  9 10  1  0
 11 10  1  6
 11 12  1  0
 12 13  1  1
 13 14  1  1
 14 15  1  0
 13 16  1  0
 17 16  1  1
 17 18  1  0
 18 19  1  0
 19 20  1  1
 19 21  1  0
 21 22  1  0
 22 23  1  0
 23 24  1  6
 23 25  1  0
 25 26  1  6
 26 27  1  0
 27 28  1  1
 27 29  1  0
 29 30  1  6
 29  8  1  0
 29 11  1  0
 25 12  1  0
 23 17  1  0
M  END
>  <MS_ID>  (287) 
MS0299

>  <SMILES>  (287) 
C[C@H](CCC(=O)O)[C@H]1CC[C@H]2[C@@H]3[C@H](CO)C[C@@H]4C[C@H](O)CC[C@]4(C)[C@H]3C[C@H](O)[C@]12C

>  <Structure_dimension>  (287) 
2D

$$$$
MS0300
     RDKit          2D

 31 34  0  0  0  0  0  0  0  0999 V2000
   -3.1067   -3.9074    0.0000 C   0  0  0  0  0  0  0  0  0  0  0  0
   -2.2559   -2.6721    0.0000 C   0  0  0  0  0  0  0  0  0  0  0  0
   -2.9003   -1.3176    0.0000 C   0  0  0  0  0  0  0  0  0  0  0  0
   -4.3956   -1.1984    0.0000 C   0  0  0  0  0  0  0  0  0  0  0  0
   -5.0401    0.1561    0.0000 C   0  0  0  0  0  0  0  0  0  0  0  0
   -6.5353    0.2752    0.0000 O   0  0  0  0  0  0  0  0  0  0  0  0
   -4.1892    1.3914    0.0000 O   0  0  0  0  0  0  0  0  0  0  0  0
   -4.8337    2.7460    0.0000 S   0  0  0  0  0  0  0  0  0  0  0  0
   -6.1882    2.1015    0.0000 O   0  0  0  0  0  0  0  0  0  0  0  0
   -3.4792    3.3904    0.0000 O   0  0  0  0  0  0  0  0  0  0  0  0
   -5.4781    4.1005    0.0000 O   0  0  0  0  0  0  0  0  0  0  0  0
   -0.7606   -2.7912    0.0000 C   0  0  0  0  0  0  0  0  0  0  0  0
    0.0219   -4.0709    0.0000 C   0  0  0  0  0  0  0  0  0  0  0  0
    1.4808   -3.7222    0.0000 C   0  0  0  0  0  0  0  0  0  0  0  0
    1.5999   -2.2269    0.0000 C   0  0  0  0  0  0  0  0  0  0  0  0
    2.7908   -1.3150    0.0000 C   0  0  0  0  0  0  0  0  0  0  0  0
    4.1761   -1.8903    0.0000 C   0  0  0  0  0  0  0  0  0  0  0  0
    5.3670   -0.9784    0.0000 C   0  0  0  0  0  0  0  0  0  0  0  0
    5.1727    0.5090    0.0000 C   0  0  0  0  0  0  0  0  0  0  0  0
    6.3636    1.4210    0.0000 C   0  0  0  0  0  0  0  0  0  0  0  0
    6.1692    2.9083    0.0000 C   0  0  0  0  0  0  0  0  0  0  0  0
    4.7840    3.4837    0.0000 C   0  0  0  0  0  0  0  0  0  0  0  0
    3.5931    2.5717    0.0000 C   0  0  0  0  0  0  0  0  0  0  0  0
    3.7874    1.0844    0.0000 C   0  0  0  0  0  0  0  0  0  0  0  0
    2.4021    1.6598    0.0000 C   0  0  0  0  0  0  0  0  0  0  0  0
    2.5965    0.1724    0.0000 C   0  0  0  0  0  0  0  0  0  0  0  0
    1.2112    0.7478    0.0000 C   0  0  0  0  0  0  0  0  0  0  0  0
    0.0203   -0.1642    0.0000 C   0  0  0  0  0  0  0  0  0  0  0  0
   -1.3650    0.4112    0.0000 O   0  0  0  0  0  0  0  0  0  0  0  0
    0.2146   -1.6516    0.0000 C   0  0  0  0  0  0  0  0  0  0  0  0
   -1.2232   -1.2241    0.0000 C   0  0  0  0  0  0  0  0  0  0  0  0
  2  1  1  6
  2  3  1  0
  3  4  1  0
  4  5  1  0
  5  6  2  0
  5  7  1  0
  7  8  1  0
  8  9  2  0
  8 10  2  0
  8 11  1  0
  2 12  1  0
 12 13  1  6
 13 14  1  0
 15 14  1  6
 15 16  1  0
 16 17  1  1
 17 18  1  0
 19 18  1  1
 19 20  1  0
 20 21  1  0
 21 22  1  0
 22 23  1  0
 23 24  1  0
 24 25  1  6
 24 26  1  0
 26 27  1  6
 27 28  1  0
 28 29  1  1
 28 30  1  0
 30 31  1  6
 30 12  1  0
 30 15  1  0
 26 16  1  0
 24 19  1  0
M  END
>  <MS_ID>  (288) 
MS0300

>  <SMILES>  (288) 
C[C@H](CCC(=O)OS(=O)(=O)O)[C@H]1CC[C@H]2[C@@H]3CC[C@@H]4CCCC[C@]4(C)[C@H]3C[C@H](O)[C@]12C

>  <Structure_dimension>  (288) 
2D

$$$$
MS0301
     RDKit          2D

 33 36  0  0  0  0  0  0  0  0999 V2000
   -4.6075   -2.8945    0.0000 C   0  0  0  0  0  0  0  0  0  0  0  0
   -3.5097   -1.8723    0.0000 C   0  0  0  0  0  0  0  0  0  0  0  0
   -3.8461   -0.4105    0.0000 C   0  0  0  0  0  0  0  0  0  0  0  0
   -5.2802    0.0291    0.0000 C   0  0  0  0  0  0  0  0  0  0  0  0
   -5.6166    1.4909    0.0000 C   0  0  0  0  0  0  0  0  0  0  0  0
   -4.5188    2.5131    0.0000 O   0  0  0  0  0  0  0  0  0  0  0  0
   -7.0507    1.9305    0.0000 O   0  0  0  0  0  0  0  0  0  0  0  0
   -2.0756   -2.3119    0.0000 C   0  0  0  0  0  0  0  0  0  0  0  0
   -1.5882   -3.7305    0.0000 C   0  0  0  0  0  0  0  0  0  0  0  0
   -0.0884   -3.7054    0.0000 C   0  0  0  0  0  0  0  0  0  0  0  0
    0.3512   -2.2713    0.0000 C   0  0  0  0  0  0  0  0  0  0  0  0
    1.7111   -1.6384    0.0000 C   0  0  0  0  0  0  0  0  0  0  0  0
    2.9392   -2.4996    0.0000 C   0  0  0  0  0  0  0  0  0  0  0  0
    2.8074   -3.9938    0.0000 O   0  0  0  0  0  0  0  0  0  0  0  0
    4.2991   -1.8667    0.0000 C   0  0  0  0  0  0  0  0  0  0  0  0
    4.4309   -0.3725    0.0000 C   0  0  0  0  0  0  0  0  0  0  0  0
    5.7908    0.2605    0.0000 C   0  0  0  0  0  0  0  0  0  0  0  0
    5.9227    1.7547    0.0000 C   0  0  0  0  0  0  0  0  0  0  0  0
    7.2826    2.3876    0.0000 O   0  0  0  0  0  0  0  0  0  0  0  0
    4.6946    2.6159    0.0000 C   0  0  0  0  0  0  0  0  0  0  0  0
    3.3346    1.9830    0.0000 C   0  0  0  0  0  0  0  0  0  0  0  0
    3.2028    0.4888    0.0000 C   0  0  0  0  0  0  0  0  0  0  0  0
    1.9747    1.3500    0.0000 C   0  0  0  0  0  0  0  0  0  0  0  0
    1.8429   -0.1442    0.0000 C   0  0  0  0  0  0  0  0  0  0  0  0
    0.6148    0.7171    0.0000 C   0  0  0  0  0  0  0  0  0  0  0  0
   -0.7451    0.0842    0.0000 C   0  0  0  0  0  0  0  0  0  0  0  0
   -1.9732    0.9454    0.0000 O   0  0  0  0  0  0  0  0  0  0  0  0
   -1.8414    2.4396    0.0000 S   0  0  0  0  0  0  0  0  0  0  0  0
   -0.3472    2.3078    0.0000 O   0  0  0  0  0  0  0  0  0  0  0  0
   -3.3356    2.5714    0.0000 O   0  0  0  0  0  0  0  0  0  0  0  0
   -1.7096    3.9338    0.0000 O   0  0  0  0  0  0  0  0  0  0  0  0
   -0.8769   -1.4100    0.0000 C   0  0  0  0  0  0  0  0  0  0  0  0
   -2.1884   -0.6819    0.0000 C   0  0  0  0  0  0  0  0  0  0  0  0
  2  1  1  6
  2  3  1  0
  3  4  1  0
  4  5  1  0
  5  6  2  0
  5  7  1  0
  2  8  1  0
  8  9  1  6
  9 10  1  0
 11 10  1  6
 11 12  1  0
 12 13  1  1
 13 14  1  1
 13 15  1  0
 16 15  1  1
 16 17  1  0
 17 18  1  0
 18 19  2  0
 18 20  1  0
 20 21  1  0
 21 22  1  0
 22 23  1  6
 22 24  1  0
 24 25  1  6
 25 26  1  0
 26 27  1  1
 27 28  1  0
 28 29  2  0
 28 30  2  0
 28 31  1  0
 26 32  1  0
 32 33  1  6
 32  8  1  0
 32 11  1  0
 24 12  1  0
 22 16  1  0
M  END
>  <MS_ID>  (289) 
MS0301

>  <SMILES>  (289) 
C[C@H](CCC(=O)O)[C@H]1CC[C@H]2[C@@H]3[C@H](O)C[C@@H]4CC(=O)CC[C@]4(C)[C@H]3C[C@H](OS(=O)(=O)O)[C@]12C

>  <Structure_dimension>  (289) 
2D

$$$$
MS0302
     RDKit          2D

 31 34  0  0  0  0  0  0  0  0999 V2000
   -4.4281   -2.8097    0.0000 C   0  0  0  0  0  0  0  0  0  0  0  0
   -3.3906   -1.7263    0.0000 C   0  0  0  0  0  0  0  0  0  0  0  0
   -3.8101   -0.2862    0.0000 C   0  0  0  0  0  0  0  0  0  0  0  0
   -5.2670    0.0707    0.0000 C   0  0  0  0  0  0  0  0  0  0  0  0
   -5.6865    1.5108    0.0000 C   0  0  0  0  0  0  0  0  0  0  0  0
   -4.6490    2.5942    0.0000 O   0  0  0  0  0  0  0  0  0  0  0  0
   -7.1434    1.8677    0.0000 C   0  0  0  0  0  0  0  0  0  0  0  0
   -8.1809    0.7843    0.0000 O   0  0  0  0  0  0  0  0  0  0  0  0
   -7.5628    3.3078    0.0000 O   0  0  0  0  0  0  0  0  0  0  0  0
   -1.9337   -2.0832    0.0000 C   0  0  0  0  0  0  0  0  0  0  0  0
   -1.3660   -3.4716    0.0000 C   0  0  0  0  0  0  0  0  0  0  0  0
    0.1299   -3.3608    0.0000 C   0  0  0  0  0  0  0  0  0  0  0  0
    0.4867   -1.9038    0.0000 C   0  0  0  0  0  0  0  0  0  0  0  0
    1.8082   -1.1941    0.0000 C   0  0  0  0  0  0  0  0  0  0  0  0
    3.0836   -1.9837    0.0000 C   0  0  0  0  0  0  0  0  0  0  0  0
    3.0374   -3.4830    0.0000 O   0  0  0  0  0  0  0  0  0  0  0  0
    4.4050   -1.2740    0.0000 C   0  0  0  0  0  0  0  0  0  0  0  0
    5.6804   -2.0636    0.0000 O   0  0  0  0  0  0  0  0  0  0  0  0
    4.4512    0.2253    0.0000 C   0  0  0  0  0  0  0  0  0  0  0  0
    5.7727    0.9350    0.0000 C   0  0  0  0  0  0  0  0  0  0  0  0
    5.8188    2.4343    0.0000 C   0  0  0  0  0  0  0  0  0  0  0  0
    7.1403    3.1440    0.0000 O   0  0  0  0  0  0  0  0  0  0  0  0
    4.5434    3.2239    0.0000 C   0  0  0  0  0  0  0  0  0  0  0  0
    3.2219    2.5142    0.0000 C   0  0  0  0  0  0  0  0  0  0  0  0
    3.1758    1.0149    0.0000 C   0  0  0  0  0  0  0  0  0  0  0  0
    1.9004    1.8045    0.0000 C   0  0  0  0  0  0  0  0  0  0  0  0
    1.8543    0.3052    0.0000 C   0  0  0  0  0  0  0  0  0  0  0  0
    0.5790    1.0948    0.0000 C   0  0  0  0  0  0  0  0  0  0  0  0
   -0.7425    0.3851    0.0000 C   0  0  0  0  0  0  0  0  0  0  0  0
   -0.7887   -1.1142    0.0000 C   0  0  0  0  0  0  0  0  0  0  0  0
   -2.1396   -0.4623    0.0000 C   0  0  0  0  0  0  0  0  0  0  0  0
  2  1  1  6
  2  3  1  0
  3  4  1  0
  4  5  1  0
  5  6  2  0
  5  7  1  0
  7  8  2  0
  7  9  1  0
  2 10  1  0
 10 11  1  6
 11 12  1  0
 13 12  1  6
 13 14  1  0
 14 15  1  1
 15 16  1  1
 15 17  1  0
 17 18  1  1
 17 19  1  0
 19 20  1  1
 20 21  1  0
 21 22  1  1
 21 23  1  0
 23 24  1  0
 24 25  1  0
 25 26  1  6
 25 27  1  0
 27 28  1  6
 28 29  1  0
 29 30  1  0
 30 31  1  6
 30 10  1  0
 30 13  1  0
 27 14  1  0
 25 19  1  0
M  END
>  <MS_ID>  (290) 
MS0302

>  <SMILES>  (290) 
C[C@H](CCC(=O)C(=O)O)[C@H]1CC[C@H]2[C@@H]3[C@H](O)[C@H](O)[C@@H]4C[C@H](O)CC[C@]4(C)[C@H]3CC[C@]12C

>  <Structure_dimension>  (290) 
2D

$$$$
MS0303
     RDKit          2D

 30 33  0  0  0  0  0  0  0  0999 V2000
   -5.3676   -2.0337    0.0000 C   0  0  0  0  0  0  0  0  0  0  0  0
   -4.1713   -1.1288    0.0000 C   0  0  0  0  0  0  0  0  0  0  0  0
   -4.3569    0.3597    0.0000 C   0  0  0  0  0  0  0  0  0  0  0  0
   -5.7388    0.9432    0.0000 C   0  0  0  0  0  0  0  0  0  0  0  0
   -5.9244    2.4317    0.0000 C   0  0  0  0  0  0  0  0  0  0  0  0
   -4.7281    3.3367    0.0000 O   0  0  0  0  0  0  0  0  0  0  0  0
   -7.3062    3.0152    0.0000 O   0  0  0  0  0  0  0  0  0  0  0  0
   -2.7894   -1.7123    0.0000 C   0  0  0  0  0  0  0  0  0  0  0  0
   -2.4493   -3.1732    0.0000 C   0  0  0  0  0  0  0  0  0  0  0  0
   -0.9547   -3.3011    0.0000 C   0  0  0  0  0  0  0  0  0  0  0  0
   -0.3712   -1.9192    0.0000 C   0  0  0  0  0  0  0  0  0  0  0  0
    1.0461   -1.4282    0.0000 C   0  0  0  0  0  0  0  0  0  0  0  0
    2.1800   -2.4102    0.0000 C   0  0  0  0  0  0  0  0  0  0  0  0
    1.8966   -3.8832    0.0000 O   0  0  0  0  0  0  0  0  0  0  0  0
    3.5974   -1.9192    0.0000 C   0  0  0  0  0  0  0  0  0  0  0  0
    3.8808   -0.4462    0.0000 C   0  0  0  0  0  0  0  0  0  0  0  0
    5.2982    0.0448    0.0000 C   0  0  0  0  0  0  0  0  0  0  0  0
    5.5816    1.5178    0.0000 C   0  0  0  0  0  0  0  0  0  0  0  0
    6.9990    2.0088    0.0000 C   0  0  0  0  0  0  0  0  0  0  0  0
    8.1329    1.0269    0.0000 O   0  0  0  0  0  0  0  0  0  0  0  0
    4.4477    2.4998    0.0000 C   0  0  0  0  0  0  0  0  0  0  0  0
    3.0304    2.0087    0.0000 C   0  0  0  0  0  0  0  0  0  0  0  0
    2.7469    0.5358    0.0000 C   0  0  0  0  0  0  0  0  0  0  0  0
    1.6130    1.5177    0.0000 C   0  0  0  0  0  0  0  0  0  0  0  0
    1.3296    0.0448    0.0000 C   0  0  0  0  0  0  0  0  0  0  0  0
    0.1957    1.0267    0.0000 C   0  0  0  0  0  0  0  0  0  0  0  0
   -1.2217    0.5357    0.0000 C   0  0  0  0  0  0  0  0  0  0  0  0
   -2.3556    1.5177    0.0000 O   0  0  0  0  0  0  0  0  0  0  0  0
   -1.5052   -0.9373    0.0000 C   0  0  0  0  0  0  0  0  0  0  0  0
   -2.7355   -0.0792    0.0000 C   0  0  0  0  0  0  0  0  0  0  0  0
  2  1  1  6
  2  3  1  0
  3  4  1  0
  4  5  1  0
  5  6  2  0
  5  7  1  0
  2  8  1  0
  8  9  1  6
  9 10  1  0
 11 10  1  6
 11 12  1  0
 12 13  1  1
 13 14  1  6
 13 15  1  0
 16 15  1  1
 16 17  1  0
 17 18  1  0
 18 19  1  1
 19 20  1  0
 18 21  1  0
 21 22  1  0
 22 23  1  0
 23 24  1  6
 23 25  1  0
 25 26  1  6
 26 27  1  0
 27 28  1  6
 27 29  1  0
 29 30  1  6
 29  8  1  0
 29 11  1  0
 25 12  1  0
 23 16  1  0
M  END
>  <MS_ID>  (291) 
MS0303

>  <SMILES>  (291) 
C[C@H](CCC(=O)O)[C@H]1CC[C@H]2[C@@H]3[C@@H](O)C[C@@H]4C[C@H](CO)CC[C@]4(C)[C@H]3C[C@@H](O)[C@]12C

>  <Structure_dimension>  (291) 
2D

$$$$
MS0304
     RDKit          2D

 36 40  0  0  0  0  0  0  0  0999 V2000
   -7.4159   -1.5459    0.0000 C   0  0  0  0  0  0  0  0  0  0  0  0
   -6.1256   -0.7809    0.0000 C   0  0  0  0  0  0  0  0  0  0  0  0
   -6.1430    0.7190    0.0000 C   0  0  0  0  0  0  0  0  0  0  0  0
   -7.4506    1.4539    0.0000 C   0  0  0  0  0  0  0  0  0  0  0  0
   -7.4679    2.9538    0.0000 C   0  0  0  0  0  0  0  0  0  0  0  0
   -6.1777    3.7188    0.0000 O   0  0  0  0  0  0  0  0  0  0  0  0
   -8.7756    3.6887    0.0000 O   0  0  0  0  0  0  0  0  0  0  0  0
   -4.8180   -1.5158    0.0000 C   0  0  0  0  0  0  0  0  0  0  0  0
   -4.6439   -3.0057    0.0000 C   0  0  0  0  0  0  0  0  0  0  0  0
   -3.1732   -3.3006    0.0000 C   0  0  0  0  0  0  0  0  0  0  0  0
   -2.4383   -1.9930    0.0000 C   0  0  0  0  0  0  0  0  0  0  0  0
   -0.9748   -1.6641    0.0000 C   0  0  0  0  0  0  0  0  0  0  0  0
    0.0418   -2.7672    0.0000 C   0  0  0  0  0  0  0  0  0  0  0  0
   -0.4052   -4.1990    0.0000 O   0  0  0  0  0  0  0  0  0  0  0  0
    1.5053   -2.4384    0.0000 C   0  0  0  0  0  0  0  0  0  0  0  0
    1.9523   -1.0065    0.0000 C   0  0  0  0  0  0  0  0  0  0  0  0
    3.4158   -0.6777    0.0000 C   0  0  0  0  0  0  0  0  0  0  0  0
    3.8628    0.7542    0.0000 C   0  0  0  0  0  0  0  0  0  0  0  0
    5.3263    1.0830    0.0000 O   0  0  0  0  0  0  0  0  0  0  0  0
    6.3428   -0.0200    0.0000 C   0  0  0  0  0  0  0  0  0  0  0  0
    7.8063    0.3088    0.0000 C   0  0  0  0  0  0  0  0  0  0  0  0
    8.8228   -0.7942    0.0000 C   0  0  0  0  0  0  0  0  0  0  0  0
   10.2864   -0.4654    0.0000 C   0  0  0  0  0  0  0  0  0  0  0  0
   10.7333    0.9664    0.0000 C   0  0  0  0  0  0  0  0  0  0  0  0
    9.7168    2.0695    0.0000 C   0  0  0  0  0  0  0  0  0  0  0  0
    8.2533    1.7406    0.0000 C   0  0  0  0  0  0  0  0  0  0  0  0
    2.8462    1.8572    0.0000 C   0  0  0  0  0  0  0  0  0  0  0  0
    1.3827    1.5284    0.0000 C   0  0  0  0  0  0  0  0  0  0  0  0
    0.9357    0.0965    0.0000 C   0  0  0  0  0  0  0  0  0  0  0  0
   -0.0808    1.1996    0.0000 C   0  0  0  0  0  0  0  0  0  0  0  0
   -0.5278   -0.2323    0.0000 C   0  0  0  0  0  0  0  0  0  0  0  0
   -1.5443    0.8707    0.0000 C   0  0  0  0  0  0  0  0  0  0  0  0
   -3.0078    0.5419    0.0000 C   0  0  0  0  0  0  0  0  0  0  0  0
   -4.0243    1.6450    0.0000 O   0  0  0  0  0  0  0  0  0  0  0  0
   -3.4548   -0.8899    0.0000 C   0  0  0  0  0  0  0  0  0  0  0  0
   -4.5811    0.1008    0.0000 C   0  0  0  0  0  0  0  0  0  0  0  0
  2  1  1  6
  2  3  1  0
  3  4  1  0
  4  5  1  0
  5  6  2  0
  5  7  1  0
  2  8  1  0
  8  9  1  6
  9 10  1  0
 11 10  1  6
 11 12  1  0
 12 13  1  1
 13 14  1  1
 13 15  1  0
 16 15  1  1
 16 17  1  0
 17 18  1  0
 18 19  1  1
 19 20  1  0
 20 21  1  0
 21 22  2  0
 22 23  1  0
 23 24  2  0
 24 25  1  0
 25 26  2  0
 18 27  1  0
 27 28  1  0
 28 29  1  0
 29 30  1  6
 29 31  1  0
 31 32  1  6
 32 33  1  0
 33 34  1  1
 33 35  1  0
 35 36  1  6
 35  8  1  0
 35 11  1  0
 31 12  1  0
 29 16  1  0
 26 21  1  0
M  END
>  <MS_ID>  (292) 
MS0304

>  <SMILES>  (292) 
C[C@H](CCC(=O)O)[C@H]1CC[C@H]2[C@@H]3[C@H](O)C[C@@H]4C[C@H](OCc5ccccc5)CC[C@]4(C)[C@H]3C[C@H](O)[C@]12C

>  <Structure_dimension>  (292) 
2D

$$$$
MS0305
     RDKit          2D

 38 42  0  0  0  0  0  0  0  0999 V2000
   -0.7209   -4.9059    0.0000 C   0  0  0  0  0  0  0  0  0  0  0  0
   -0.2198   -3.4920    0.0000 C   0  0  0  0  0  0  0  0  0  0  0  0
   -1.1937   -2.3512    0.0000 C   0  0  0  0  0  0  0  0  0  0  0  0
   -2.6687   -2.6242    0.0000 C   0  0  0  0  0  0  0  0  0  0  0  0
   -3.6425   -1.4833    0.0000 C   0  0  0  0  0  0  0  0  0  0  0  0
   -3.1415   -0.0695    0.0000 O   0  0  0  0  0  0  0  0  0  0  0  0
   -5.1175   -1.7563    0.0000 N   0  0  0  0  0  0  0  0  0  0  0  0
   -6.0914   -0.6155    0.0000 C   0  0  0  0  0  0  0  0  0  0  0  0
   -5.5903    0.7983    0.0000 C   0  0  0  0  0  0  0  0  0  0  0  0
   -6.5642    1.9392    0.0000 C   0  0  0  0  0  0  0  0  0  0  0  0
   -8.0392    1.6662    0.0000 C   0  0  0  0  0  0  0  0  0  0  0  0
   -9.0131    2.8070    0.0000 N   0  0  0  0  0  0  0  0  0  0  0  0
  -10.4880    2.5340    0.0000 O   0  0  0  0  0  0  0  0  0  0  0  0
   -8.5120    4.2209    0.0000 O   0  0  0  0  0  0  0  0  0  0  0  0
   -8.5402    0.2524    0.0000 C   0  0  0  0  0  0  0  0  0  0  0  0
   -7.5663   -0.8885    0.0000 C   0  0  0  0  0  0  0  0  0  0  0  0
    1.2551   -3.2190    0.0000 C   0  0  0  0  0  0  0  0  0  0  0  0
    2.3429   -4.2518    0.0000 C   0  0  0  0  0  0  0  0  0  0  0  0
    3.6613   -3.5364    0.0000 C   0  0  0  0  0  0  0  0  0  0  0  0
    3.3884   -2.0615    0.0000 C   0  0  0  0  0  0  0  0  0  0  0  0
    4.3018   -0.8717    0.0000 C   0  0  0  0  0  0  0  0  0  0  0  0
    5.7889   -1.0678    0.0000 C   0  0  0  0  0  0  0  0  0  0  0  0
    6.3626   -2.4538    0.0000 O   0  0  0  0  0  0  0  0  0  0  0  0
    6.7023    0.1220    0.0000 C   0  0  0  0  0  0  0  0  0  0  0  0
    6.1286    1.5080    0.0000 C   0  0  0  0  0  0  0  0  0  0  0  0
    7.0421    2.6978    0.0000 C   0  0  0  0  0  0  0  0  0  0  0  0
    6.4684    4.0837    0.0000 C   0  0  0  0  0  0  0  0  0  0  0  0
    7.3818    5.2735    0.0000 O   0  0  0  0  0  0  0  0  0  0  0  0
    4.9813    4.2799    0.0000 C   0  0  0  0  0  0  0  0  0  0  0  0
    4.0678    3.0901    0.0000 C   0  0  0  0  0  0  0  0  0  0  0  0
    4.6415    1.7041    0.0000 C   0  0  0  0  0  0  0  0  0  0  0  0
    3.1544    1.9003    0.0000 C   0  0  0  0  0  0  0  0  0  0  0  0
    3.7281    0.5143    0.0000 C   0  0  0  0  0  0  0  0  0  0  0  0
    2.2410    0.7104    0.0000 C   0  0  0  0  0  0  0  0  0  0  0  0
    1.3275   -0.4794    0.0000 C   0  0  0  0  0  0  0  0  0  0  0  0
   -0.1596   -0.2832    0.0000 O   0  0  0  0  0  0  0  0  0  0  0  0
    1.9012   -1.8653    0.0000 C   0  0  0  0  0  0  0  0  0  0  0  0
    0.4018   -1.8257    0.0000 C   0  0  0  0  0  0  0  0  0  0  0  0
  2  1  1  6
  2  3  1  0
  3  4  1  0
  4  5  1  0
  5  6  2  0
  5  7  1  0
  7  8  1  0
  8  9  2  0
  9 10  1  0
 10 11  2  0
 11 12  1  0
 12 13  2  0
 12 14  1  0
 11 15  1  0
 15 16  2  0
  2 17  1  0
 17 18  1  6
 18 19  1  0
 20 19  1  6
 20 21  1  0
 21 22  1  1
 22 23  1  1
 22 24  1  0
 25 24  1  1
 25 26  1  0
 26 27  1  0
 27 28  1  1
 27 29  1  0
 29 30  1  0
 30 31  1  0
 31 32  1  6
 31 33  1  0
 33 34  1  6
 34 35  1  0
 35 36  1  1
 35 37  1  0
 37 38  1  6
 16  8  1  0
 37 17  1  0
 37 20  1  0
 33 21  1  0
 31 25  1  0
M  CHG  2  12   1  14  -1
M  END
>  <MS_ID>  (293) 
MS0305

>  <SMILES>  (293) 
C[C@H](CCC(=O)Nc1ccc([N+](=O)[O-])cc1)[C@H]1CC[C@H]2[C@@H]3[C@H](O)C[C@@H]4C[C@H](O)CC[C@]4(C)[C@H]3C[C@H](O)[C@]12C

>  <Structure_dimension>  (293) 
2D

$$$$
MS0306
     RDKit          2D

 33 36  0  0  0  0  0  0  0  0999 V2000
   -3.0978   -3.6919    0.0000 C   0  0  0  0  0  0  0  0  0  0  0  0
   -2.2201   -2.4755    0.0000 C   0  0  0  0  0  0  0  0  0  0  0  0
   -2.8347   -1.1072    0.0000 C   0  0  0  0  0  0  0  0  0  0  0  0
   -4.3270   -0.9552    0.0000 C   0  0  0  0  0  0  0  0  0  0  0  0
   -4.9416    0.4131    0.0000 C   0  0  0  0  0  0  0  0  0  0  0  0
   -4.0639    1.6295    0.0000 O   0  0  0  0  0  0  0  0  0  0  0  0
   -6.4339    0.5650    0.0000 C   0  0  0  0  0  0  0  0  0  0  0  0
   -7.0484    1.9333    0.0000 C   0  0  0  0  0  0  0  0  0  0  0  0
   -8.5407    2.0852    0.0000 C   0  0  0  0  0  0  0  0  0  0  0  0
   -9.4184    0.8688    0.0000 O   0  0  0  0  0  0  0  0  0  0  0  0
   -9.1553    3.4535    0.0000 O   0  0  0  0  0  0  0  0  0  0  0  0
   -0.7278   -2.6274    0.0000 C   0  0  0  0  0  0  0  0  0  0  0  0
    0.0264   -3.9240    0.0000 C   0  0  0  0  0  0  0  0  0  0  0  0
    1.4926   -3.6073    0.0000 C   0  0  0  0  0  0  0  0  0  0  0  0
    1.6445   -2.1150    0.0000 C   0  0  0  0  0  0  0  0  0  0  0  0
    2.8552   -1.2294    0.0000 C   0  0  0  0  0  0  0  0  0  0  0  0
    4.2275   -1.8350    0.0000 C   0  0  0  0  0  0  0  0  0  0  0  0
    4.3891   -3.3263    0.0000 O   0  0  0  0  0  0  0  0  0  0  0  0
    5.4381   -0.9494    0.0000 C   0  0  0  0  0  0  0  0  0  0  0  0
    5.2764    0.5419    0.0000 C   0  0  0  0  0  0  0  0  0  0  0  0
    6.4871    1.4275    0.0000 C   0  0  0  0  0  0  0  0  0  0  0  0
    6.3254    2.9188    0.0000 C   0  0  0  0  0  0  0  0  0  0  0  0
    7.5360    3.8044    0.0000 O   0  0  0  0  0  0  0  0  0  0  0  0
    4.9531    3.5244    0.0000 C   0  0  0  0  0  0  0  0  0  0  0  0
    3.7425    2.6388    0.0000 C   0  0  0  0  0  0  0  0  0  0  0  0
    3.9041    1.1475    0.0000 C   0  0  0  0  0  0  0  0  0  0  0  0
    2.5318    1.7531    0.0000 C   0  0  0  0  0  0  0  0  0  0  0  0
    2.6935    0.2619    0.0000 C   0  0  0  0  0  0  0  0  0  0  0  0
    1.3212    0.8675    0.0000 C   0  0  0  0  0  0  0  0  0  0  0  0
    0.1105   -0.0181    0.0000 C   0  0  0  0  0  0  0  0  0  0  0  0
   -1.2618    0.5875    0.0000 O   0  0  0  0  0  0  0  0  0  0  0  0
    0.2722   -1.5094    0.0000 C   0  0  0  0  0  0  0  0  0  0  0  0
   -1.1559   -1.0505    0.0000 C   0  0  0  0  0  0  0  0  0  0  0  0
  2  1  1  6
  2  3  1  0
  3  4  1  0
  4  5  1  0
  5  6  2  0
  5  7  1  0
  7  8  1  0
  8  9  1  0
  9 10  2  0
  9 11  1  0
  2 12  1  0
 12 13  1  6
 13 14  1  0
 15 14  1  6
 15 16  1  0
 16 17  1  1
 17 18  1  1
 17 19  1  0
 20 19  1  1
 20 21  1  0
 21 22  1  0
 22 23  1  1
 22 24  1  0
 24 25  1  0
 25 26  1  0
 26 27  1  6
 26 28  1  0
 28 29  1  6
 29 30  1  0
 30 31  1  6
 30 32  1  0
 32 33  1  6
 32 12  1  0
 32 15  1  0
 28 16  1  0
 26 20  1  0
M  END
>  <MS_ID>  (294) 
MS0306

>  <SMILES>  (294) 
C[C@H](CCC(=O)CCC(=O)O)[C@H]1CC[C@H]2[C@@H]3[C@H](O)C[C@@H]4C[C@H](O)CC[C@]4(C)[C@H]3C[C@@H](O)[C@]12C

>  <Structure_dimension>  (294) 
2D

$$$$
MS0307
     RDKit          2D

 40 44  0  0  0  0  0  0  0  0999 V2000
   -0.7210   -4.8232    0.0000 C   0  0  0  0  0  0  0  0  0  0  0  0
   -0.1495   -3.4364    0.0000 C   0  0  0  0  0  0  0  0  0  0  0  0
   -1.0648   -2.2480    0.0000 C   0  0  0  0  0  0  0  0  0  0  0  0
   -2.5516   -2.4465    0.0000 C   0  0  0  0  0  0  0  0  0  0  0  0
   -3.4669   -1.2581    0.0000 C   0  0  0  0  0  0  0  0  0  0  0  0
   -2.8953    0.1288    0.0000 O   0  0  0  0  0  0  0  0  0  0  0  0
   -4.9537   -1.4566    0.0000 O   0  0  0  0  0  0  0  0  0  0  0  0
   -5.8690   -0.2682    0.0000 C   0  0  0  0  0  0  0  0  0  0  0  0
   -5.2974    1.1187    0.0000 O   0  0  0  0  0  0  0  0  0  0  0  0
   -6.2127    2.3071    0.0000 C   0  0  0  0  0  0  0  0  0  0  0  0
   -5.6412    3.6939    0.0000 C   0  0  0  0  0  0  0  0  0  0  0  0
   -4.1544    3.8924    0.0000 O   0  0  0  0  0  0  0  0  0  0  0  0
   -7.6995    2.1086    0.0000 C   0  0  0  0  0  0  0  0  0  0  0  0
   -8.6148    3.2970    0.0000 O   0  0  0  0  0  0  0  0  0  0  0  0
   -8.2711    0.7217    0.0000 C   0  0  0  0  0  0  0  0  0  0  0  0
   -9.7579    0.5233    0.0000 O   0  0  0  0  0  0  0  0  0  0  0  0
   -7.3558   -0.4666    0.0000 C   0  0  0  0  0  0  0  0  0  0  0  0
   -7.9273   -1.8535    0.0000 O   0  0  0  0  0  0  0  0  0  0  0  0
    1.3373   -3.2379    0.0000 C   0  0  0  0  0  0  0  0  0  0  0  0
    2.3718   -4.3241    0.0000 C   0  0  0  0  0  0  0  0  0  0  0  0
    3.7245   -3.6759    0.0000 C   0  0  0  0  0  0  0  0  0  0  0  0
    3.5261   -2.1891    0.0000 C   0  0  0  0  0  0  0  0  0  0  0  0
    4.4982   -1.0468    0.0000 C   0  0  0  0  0  0  0  0  0  0  0  0
    5.9735   -1.3175    0.0000 C   0  0  0  0  0  0  0  0  0  0  0  0
    6.4768   -2.7305    0.0000 O   0  0  0  0  0  0  0  0  0  0  0  0
    6.9457   -0.1751    0.0000 C   0  0  0  0  0  0  0  0  0  0  0  0
    6.4424    1.2380    0.0000 C   0  0  0  0  0  0  0  0  0  0  0  0
    7.4145    2.3803    0.0000 C   0  0  0  0  0  0  0  0  0  0  0  0
    6.9113    3.7934    0.0000 C   0  0  0  0  0  0  0  0  0  0  0  0
    7.8834    4.9357    0.0000 O   0  0  0  0  0  0  0  0  0  0  0  0
    5.4359    4.0641    0.0000 C   0  0  0  0  0  0  0  0  0  0  0  0
    4.4638    2.9217    0.0000 C   0  0  0  0  0  0  0  0  0  0  0  0
    4.9670    1.5087    0.0000 C   0  0  0  0  0  0  0  0  0  0  0  0
    3.4917    1.7794    0.0000 C   0  0  0  0  0  0  0  0  0  0  0  0
    3.9949    0.3663    0.0000 C   0  0  0  0  0  0  0  0  0  0  0  0
    2.5196    0.6370    0.0000 C   0  0  0  0  0  0  0  0  0  0  0  0
    1.5474   -0.5054    0.0000 C   0  0  0  0  0  0  0  0  0  0  0  0
    0.0721   -0.2347    0.0000 O   0  0  0  0  0  0  0  0  0  0  0  0
    2.0507   -1.9184    0.0000 C   0  0  0  0  0  0  0  0  0  0  0  0
    0.5551   -1.8034    0.0000 C   0  0  0  0  0  0  0  0  0  0  0  0
  2  1  1  6
  2  3  1  0
  3  4  1  0
  4  5  1  0
  5  6  2  0
  5  7  1  0
  8  7  1  1
  8  9  1  0
  9 10  1  0
 10 11  1  1
 11 12  1  0
 10 13  1  0
 13 14  1  6
 13 15  1  0
 15 16  1  1
 15 17  1  0
 17 18  1  6
  2 19  1  0
 19 20  1  6
 20 21  1  0
 22 21  1  6
 22 23  1  0
 23 24  1  1
 24 25  1  1
 24 26  1  0
 27 26  1  1
 27 28  1  0
 28 29  1  0
 29 30  1  1
 29 31  1  0
 31 32  1  0
 32 33  1  0
 33 34  1  6
 33 35  1  0
 35 36  1  6
 36 37  1  0
 37 38  1  1
 37 39  1  0
 39 40  1  6
 17  8  1  0
 39 19  1  0
 39 22  1  0
 35 23  1  0
 33 27  1  0
M  END
>  <MS_ID>  (295) 
MS0307

>  <SMILES>  (295) 
C[C@H](CCC(=O)O[C@@H]1O[C@H](CO)[C@@H](O)[C@H](O)[C@H]1O)[C@H]1CC[C@H]2[C@@H]3[C@H](O)C[C@@H]4C[C@H](O)CC[C@]4(C)[C@H]3C[C@H](O)[C@]12C

>  <Structure_dimension>  (295) 
2D

$$$$
MS0308
     RDKit          2D

 27 30  0  0  0  0  0  0  0  0999 V2000
   -7.2062    3.4054    0.0000 C   0  0  0  0  0  0  0  0  0  0  0  0
   -6.8181    1.9564    0.0000 O   0  0  0  0  0  0  0  0  0  0  0  0
   -5.3693    1.5680    0.0000 C   0  0  0  0  0  0  0  0  0  0  0  0
   -4.3085    2.6285    0.0000 O   0  0  0  0  0  0  0  0  0  0  0  0
   -4.9813    0.1191    0.0000 C   0  0  0  0  0  0  0  0  0  0  0  0
   -3.5324   -0.2694    0.0000 C   0  0  0  0  0  0  0  0  0  0  0  0
   -3.1444   -1.7183    0.0000 C   0  0  0  0  0  0  0  0  0  0  0  0
   -4.2052   -2.7788    0.0000 C   0  0  0  0  0  0  0  0  0  0  0  0
   -1.6956   -2.1067    0.0000 C   0  0  0  0  0  0  0  0  0  0  0  0
   -1.1582   -3.5072    0.0000 C   0  0  0  0  0  0  0  0  0  0  0  0
    0.3397   -3.4289    0.0000 C   0  0  0  0  0  0  0  0  0  0  0  0
    0.7282   -1.9801    0.0000 C   0  0  0  0  0  0  0  0  0  0  0  0
    2.0648   -1.2993    0.0000 C   0  0  0  0  0  0  0  0  0  0  0  0
    3.3227   -2.1164    0.0000 C   0  0  0  0  0  0  0  0  0  0  0  0
    4.6593   -1.4356    0.0000 C   0  0  0  0  0  0  0  0  0  0  0  0
    4.7380    0.0623    0.0000 C   0  0  0  0  0  0  0  0  0  0  0  0
    6.0746    0.7431    0.0000 C   0  0  0  0  0  0  0  0  0  0  0  0
    6.1533    2.2411    0.0000 C   0  0  0  0  0  0  0  0  0  0  0  0
    4.8954    3.0582    0.0000 C   0  0  0  0  0  0  0  0  0  0  0  0
    3.5588    2.3774    0.0000 C   0  0  0  0  0  0  0  0  0  0  0  0
    3.4801    0.8795    0.0000 C   0  0  0  0  0  0  0  0  0  0  0  0
    2.2222    1.6966    0.0000 C   0  0  0  0  0  0  0  0  0  0  0  0
    2.1435    0.1987    0.0000 C   0  0  0  0  0  0  0  0  0  0  0  0
    0.8856    1.0158    0.0000 C   0  0  0  0  0  0  0  0  0  0  0  0
   -0.4510    0.3350    0.0000 C   0  0  0  0  0  0  0  0  0  0  0  0
   -0.5297   -1.1629    0.0000 C   0  0  0  0  0  0  0  0  0  0  0  0
   -1.8661   -0.4817    0.0000 C   0  0  0  0  0  0  0  0  0  0  0  0
  1  2  1  0
  2  3  1  0
  3  4  2  0
  3  5  1  0
  5  6  1  0
  6  7  1  0
  7  8  1  6
  7  9  1  0
  9 10  1  6
 10 11  1  0
 12 11  1  6
 12 13  1  0
 13 14  1  1
 14 15  1  0
 16 15  1  6
 16 17  1  0
 17 18  1  0
 18 19  1  0
 19 20  1  0
 20 21  1  0
 21 22  1  6
 21 23  1  0
 23 24  1  6
 24 25  1  0
 25 26  1  0
 26 27  1  6
 26  9  1  0
 26 12  1  0
 23 13  1  0
 21 16  1  0
M  END
>  <MS_ID>  (296) 
MS0308

>  <SMILES>  (296) 
COC(=O)CC[C@@H](C)[C@H]1CC[C@H]2[C@@H]3CC[C@H]4CCCC[C@]4(C)[C@H]3CC[C@]12C

>  <Structure_dimension>  (296) 
2D

$$$$
MS0309
     RDKit          2D

 34 37  0  0  0  0  0  0  0  0999 V2000
   -2.5086   -4.2168    0.0000 C   0  0  0  0  0  0  0  0  0  0  0  0
   -1.7489   -2.9234    0.0000 C   0  0  0  0  0  0  0  0  0  0  0  0
   -2.4892   -1.6188    0.0000 C   0  0  0  0  0  0  0  0  0  0  0  0
   -3.9892   -1.6076    0.0000 C   0  0  0  0  0  0  0  0  0  0  0  0
   -4.7295   -0.3030    0.0000 C   0  0  0  0  0  0  0  0  0  0  0  0
   -3.9698    0.9904    0.0000 O   0  0  0  0  0  0  0  0  0  0  0  0
   -6.2294   -0.2918    0.0000 N   0  0  0  0  0  0  0  0  0  0  0  0
   -6.9697    1.0128    0.0000 C   0  0  0  0  0  0  0  0  0  0  0  0
   -8.4697    1.0240    0.0000 C   0  0  0  0  0  0  0  0  0  0  0  0
   -9.2100    2.3286    0.0000 O   0  0  0  0  0  0  0  0  0  0  0  0
   -6.2100    2.3062    0.0000 C   0  0  0  0  0  0  0  0  0  0  0  0
   -4.7101    2.2950    0.0000 O   0  0  0  0  0  0  0  0  0  0  0  0
   -6.9503    3.6108    0.0000 O   0  0  0  0  0  0  0  0  0  0  0  0
   -0.2490   -2.9346    0.0000 C   0  0  0  0  0  0  0  0  0  0  0  0
    0.6236   -4.1547    0.0000 C   0  0  0  0  0  0  0  0  0  0  0  0
    2.0536   -3.7018    0.0000 C   0  0  0  0  0  0  0  0  0  0  0  0
    2.0648   -2.2018    0.0000 C   0  0  0  0  0  0  0  0  0  0  0  0
    3.1870   -1.2065    0.0000 C   0  0  0  0  0  0  0  0  0  0  0  0
    4.6101   -1.6806    0.0000 C   0  0  0  0  0  0  0  0  0  0  0  0
    4.9110   -3.1501    0.0000 O   0  0  0  0  0  0  0  0  0  0  0  0
    5.7323   -0.6853    0.0000 C   0  0  0  0  0  0  0  0  0  0  0  0
    5.4313    0.7842    0.0000 C   0  0  0  0  0  0  0  0  0  0  0  0
    6.5535    1.7796    0.0000 C   0  0  0  0  0  0  0  0  0  0  0  0
    6.2526    3.2491    0.0000 C   0  0  0  0  0  0  0  0  0  0  0  0
    7.3748    4.2444    0.0000 O   0  0  0  0  0  0  0  0  0  0  0  0
    4.8295    3.7232    0.0000 C   0  0  0  0  0  0  0  0  0  0  0  0
    3.7074    2.7279    0.0000 C   0  0  0  0  0  0  0  0  0  0  0  0
    4.0083    1.2584    0.0000 C   0  0  0  0  0  0  0  0  0  0  0  0
    2.5852    1.7325    0.0000 C   0  0  0  0  0  0  0  0  0  0  0  0
    2.8861    0.2630    0.0000 C   0  0  0  0  0  0  0  0  0  0  0  0
    1.4630    0.7372    0.0000 C   0  0  0  0  0  0  0  0  0  0  0  0
    0.3408   -0.2582    0.0000 C   0  0  0  0  0  0  0  0  0  0  0  0
    0.6417   -1.7277    0.0000 C   0  0  0  0  0  0  0  0  0  0  0  0
   -0.8231   -1.4049    0.0000 C   0  0  0  0  0  0  0  0  0  0  0  0
  2  1  1  6
  2  3  1  0
  3  4  1  0
  4  5  1  0
  5  6  2  0
  5  7  1  0
  7  8  1  0
  8  9  1  1
  9 10  1  0
  8 11  1  0
 11 12  2  0
 11 13  1  0
  2 14  1  0
 14 15  1  6
 15 16  1  0
 17 16  1  6
 17 18  1  0
 18 19  1  1
 19 20  1  6
 19 21  1  0
 22 21  1  1
 22 23  1  0
 23 24  1  0
 24 25  1  1
 24 26  1  0
 26 27  1  0
 27 28  1  0
 28 29  1  6
 28 30  1  0
 30 31  1  6
 31 32  1  0
 32 33  1  0
 33 34  1  6
 33 14  1  0
 33 17  1  0
 30 18  1  0
 28 22  1  0
M  END
>  <MS_ID>  (297) 
MS0309

>  <SMILES>  (297) 
C[C@H](CCC(=O)N[C@@H](CO)C(=O)O)[C@H]1CC[C@H]2[C@@H]3[C@@H](O)C[C@@H]4C[C@H](O)CC[C@]4(C)[C@H]3CC[C@]12C

>  <Structure_dimension>  (297) 
2D

$$$$
MS0310
     RDKit          2D

 36 40  0  0  0  0  0  0  0  0999 V2000
   -1.7029   -4.5740    0.0000 C   0  0  0  0  0  0  0  0  0  0  0  0
   -1.0663   -3.2157    0.0000 C   0  0  0  0  0  0  0  0  0  0  0  0
   -1.9243   -1.9853    0.0000 C   0  0  0  0  0  0  0  0  0  0  0  0
   -3.4188   -2.1132    0.0000 C   0  0  0  0  0  0  0  0  0  0  0  0
   -4.2768   -0.8828    0.0000 C   0  0  0  0  0  0  0  0  0  0  0  0
   -3.6403    0.4755    0.0000 O   0  0  0  0  0  0  0  0  0  0  0  0
   -5.7714   -1.0106    0.0000 O   0  0  0  0  0  0  0  0  0  0  0  0
   -6.6293    0.2198    0.0000 C   0  0  0  0  0  0  0  0  0  0  0  0
   -5.9928    1.5780    0.0000 C   0  0  0  0  0  0  0  0  0  0  0  0
   -6.8507    2.8084    0.0000 C   0  0  0  0  0  0  0  0  0  0  0  0
   -8.3453    2.6806    0.0000 C   0  0  0  0  0  0  0  0  0  0  0  0
   -9.2033    3.9110    0.0000 O   0  0  0  0  0  0  0  0  0  0  0  0
   -8.9819    1.3224    0.0000 C   0  0  0  0  0  0  0  0  0  0  0  0
   -8.1239    0.0920    0.0000 C   0  0  0  0  0  0  0  0  0  0  0  0
    0.4282   -3.0879    0.0000 C   0  0  0  0  0  0  0  0  0  0  0  0
    1.4101   -4.2219    0.0000 C   0  0  0  0  0  0  0  0  0  0  0  0
    2.7920   -3.6385    0.0000 C   0  0  0  0  0  0  0  0  0  0  0  0
    2.6642   -2.1439    0.0000 C   0  0  0  0  0  0  0  0  0  0  0  0
    3.6893   -1.0489    0.0000 C   0  0  0  0  0  0  0  0  0  0  0  0
    5.1502   -1.3891    0.0000 C   0  0  0  0  0  0  0  0  0  0  0  0
    5.5860   -2.8244    0.0000 O   0  0  0  0  0  0  0  0  0  0  0  0
    6.1753   -0.2941    0.0000 C   0  0  0  0  0  0  0  0  0  0  0  0
    5.7395    1.1412    0.0000 C   0  0  0  0  0  0  0  0  0  0  0  0
    6.7647    2.2362    0.0000 C   0  0  0  0  0  0  0  0  0  0  0  0
    6.3289    3.6716    0.0000 C   0  0  0  0  0  0  0  0  0  0  0  0
    7.3540    4.7666    0.0000 O   0  0  0  0  0  0  0  0  0  0  0  0
    4.8680    4.0118    0.0000 C   0  0  0  0  0  0  0  0  0  0  0  0
    3.8429    2.9168    0.0000 C   0  0  0  0  0  0  0  0  0  0  0  0
    4.2787    1.4815    0.0000 C   0  0  0  0  0  0  0  0  0  0  0  0
    2.8178    1.8217    0.0000 C   0  0  0  0  0  0  0  0  0  0  0  0
    3.2535    0.3864    0.0000 C   0  0  0  0  0  0  0  0  0  0  0  0
    1.7926    0.7267    0.0000 C   0  0  0  0  0  0  0  0  0  0  0  0
    0.7675   -0.3683    0.0000 C   0  0  0  0  0  0  0  0  0  0  0  0
   -0.6934   -0.0281    0.0000 O   0  0  0  0  0  0  0  0  0  0  0  0
    1.2033   -1.8036    0.0000 C   0  0  0  0  0  0  0  0  0  0  0  0
   -0.2852   -1.6180    0.0000 C   0  0  0  0  0  0  0  0  0  0  0  0
  2  1  1  6
  2  3  1  0
  3  4  1  0
  4  5  1  0
  5  6  2  0
  5  7  1  0
  7  8  1  0
  8  9  2  0
  9 10  1  0
 10 11  2  0
 11 12  1  0
 11 13  1  0
 13 14  2  0
  2 15  1  0
 15 16  1  6
 16 17  1  0
 18 17  1  6
 18 19  1  0
 19 20  1  1
 20 21  1  1
 20 22  1  0
 23 22  1  1
 23 24  1  0
 24 25  1  0
 25 26  1  1
 25 27  1  0
 27 28  1  0
 28 29  1  0
 29 30  1  6
 29 31  1  0
 31 32  1  6
 32 33  1  0
 33 34  1  1
 33 35  1  0
 35 36  1  6
 14  8  1  0
 35 15  1  0
 35 18  1  0
 31 19  1  0
 29 23  1  0
M  END
>  <MS_ID>  (298) 
MS0310

>  <SMILES>  (298) 
C[C@H](CCC(=O)Oc1ccc(O)cc1)[C@H]1CC[C@H]2[C@@H]3[C@H](O)C[C@@H]4C[C@H](O)CC[C@]4(C)[C@H]3C[C@H](O)[C@]12C

>  <Structure_dimension>  (298) 
2D

$$$$
MS0311
     RDKit          2D

 32 35  0  0  0  0  0  0  0  0999 V2000
   -6.3148   -1.8053    0.0000 C   0  0  0  0  0  0  0  0  0  0  0  0
   -5.0840   -0.9480    0.0000 C   0  0  0  0  0  0  0  0  0  0  0  0
   -5.2110    0.5466    0.0000 C   0  0  0  0  0  0  0  0  0  0  0  0
   -6.5688    1.1840    0.0000 C   0  0  0  0  0  0  0  0  0  0  0  0
   -6.6958    2.6786    0.0000 C   0  0  0  0  0  0  0  0  0  0  0  0
   -5.4650    3.5359    0.0000 O   0  0  0  0  0  0  0  0  0  0  0  0
   -8.0537    3.3159    0.0000 O   0  0  0  0  0  0  0  0  0  0  0  0
   -3.7261   -1.5853    0.0000 C   0  0  0  0  0  0  0  0  0  0  0  0
   -3.4436   -3.0584    0.0000 C   0  0  0  0  0  0  0  0  0  0  0  0
   -1.9552   -3.2450    0.0000 C   0  0  0  0  0  0  0  0  0  0  0  0
   -1.3179   -1.8871    0.0000 C   0  0  0  0  0  0  0  0  0  0  0  0
    0.1177   -1.4521    0.0000 C   0  0  0  0  0  0  0  0  0  0  0  0
    1.2121   -2.4779    0.0000 C   0  0  0  0  0  0  0  0  0  0  0  0
    0.8711   -3.9386    0.0000 O   0  0  0  0  0  0  0  0  0  0  0  0
    2.6477   -2.0429    0.0000 C   0  0  0  0  0  0  0  0  0  0  0  0
    2.9888   -0.5822    0.0000 C   0  0  0  0  0  0  0  0  0  0  0  0
    4.4243   -0.1472    0.0000 C   0  0  0  0  0  0  0  0  0  0  0  0
    4.7654    1.3135    0.0000 C   0  0  0  0  0  0  0  0  0  0  0  0
    6.2009    1.7485    0.0000 N   0  0  0  0  0  0  0  0  0  0  0  0
    7.2954    0.7227    0.0000 S   0  0  0  0  0  0  0  0  0  0  0  0
    8.3211    1.8172    0.0000 O   0  0  0  0  0  0  0  0  0  0  0  0
    6.2697   -0.3717    0.0000 O   0  0  0  0  0  0  0  0  0  0  0  0
    8.3899   -0.3030    0.0000 O   0  0  0  0  0  0  0  0  0  0  0  0
    3.6709    2.3392    0.0000 C   0  0  0  0  0  0  0  0  0  0  0  0
    2.2354    1.9043    0.0000 C   0  0  0  0  0  0  0  0  0  0  0  0
    1.8943    0.4436    0.0000 C   0  0  0  0  0  0  0  0  0  0  0  0
    0.7998    1.4693    0.0000 C   0  0  0  0  0  0  0  0  0  0  0  0
    0.4587    0.0086    0.0000 C   0  0  0  0  0  0  0  0  0  0  0  0
   -0.6357    1.0343    0.0000 C   0  0  0  0  0  0  0  0  0  0  0  0
   -2.0713    0.5993    0.0000 C   0  0  0  0  0  0  0  0  0  0  0  0
   -2.4123   -0.8614    0.0000 C   0  0  0  0  0  0  0  0  0  0  0  0
   -3.6080    0.0444    0.0000 C   0  0  0  0  0  0  0  0  0  0  0  0
  2  1  1  6
  2  3  1  0
  3  4  1  0
  4  5  1  0
  5  6  2  0
  5  7  1  0
  2  8  1  0
  8  9  1  6
  9 10  1  0
 11 10  1  6
 11 12  1  0
 12 13  1  1
 13 14  1  1
 13 15  1  0
 16 15  1  1
 16 17  1  0
 17 18  1  0
 18 19  1  1
 19 20  1  0
 20 21  2  0
 20 22  2  0
 20 23  1  0
 18 24  1  0
 24 25  1  0
 25 26  1  0
 26 27  1  6
 26 28  1  0
 28 29  1  6
 29 30  1  0
 30 31  1  0
 31 32  1  6
 31  8  1  0
 31 11  1  0
 28 12  1  0
 26 16  1  0
M  END
>  <MS_ID>  (299) 
MS0311

>  <SMILES>  (299) 
C[C@H](CCC(=O)O)[C@H]1CC[C@H]2[C@@H]3[C@H](O)C[C@@H]4C[C@H](NS(=O)(=O)O)CC[C@]4(C)[C@H]3CC[C@]12C

>  <Structure_dimension>  (299) 
2D

$$$$
MS0312
     RDKit          2D

 28 31  0  0  0  0  0  0  0  0999 V2000
   -5.1275   -2.0302    0.0000 C   0  0  0  0  0  0  0  0  0  0  0  0
   -3.9468   -1.1050    0.0000 C   0  0  0  0  0  0  0  0  0  0  0  0
   -4.1576    0.3801    0.0000 C   0  0  0  0  0  0  0  0  0  0  0  0
   -5.5492    0.9401    0.0000 C   0  0  0  0  0  0  0  0  0  0  0  0
   -5.7600    2.4252    0.0000 C   0  0  0  0  0  0  0  0  0  0  0  0
   -7.1516    2.9851    0.0000 O   0  0  0  0  0  0  0  0  0  0  0  0
   -4.5793    3.3503    0.0000 S   0  0  0  0  0  0  0  0  0  0  0  0
   -2.5552   -1.6650    0.0000 C   0  0  0  0  0  0  0  0  0  0  0  0
   -2.1903   -3.1199    0.0000 C   0  0  0  0  0  0  0  0  0  0  0  0
   -0.6938   -3.2225    0.0000 C   0  0  0  0  0  0  0  0  0  0  0  0
   -0.1339   -1.8309    0.0000 C   0  0  0  0  0  0  0  0  0  0  0  0
    1.2750   -1.3159    0.0000 C   0  0  0  0  0  0  0  0  0  0  0  0
    2.4254   -2.2785    0.0000 C   0  0  0  0  0  0  0  0  0  0  0  0
    2.1670   -3.7560    0.0000 O   0  0  0  0  0  0  0  0  0  0  0  0
    3.8342   -1.7635    0.0000 C   0  0  0  0  0  0  0  0  0  0  0  0
    4.0926   -0.2859    0.0000 C   0  0  0  0  0  0  0  0  0  0  0  0
    5.5014    0.2291    0.0000 C   0  0  0  0  0  0  0  0  0  0  0  0
    5.7598    1.7067    0.0000 C   0  0  0  0  0  0  0  0  0  0  0  0
    7.1687    2.2217    0.0000 O   0  0  0  0  0  0  0  0  0  0  0  0
    4.6094    2.6692    0.0000 C   0  0  0  0  0  0  0  0  0  0  0  0
    3.2006    2.1542    0.0000 C   0  0  0  0  0  0  0  0  0  0  0  0
    2.9422    0.6767    0.0000 C   0  0  0  0  0  0  0  0  0  0  0  0
    1.7918    1.6392    0.0000 C   0  0  0  0  0  0  0  0  0  0  0  0
    1.5334    0.1617    0.0000 C   0  0  0  0  0  0  0  0  0  0  0  0
    0.3830    1.1242    0.0000 C   0  0  0  0  0  0  0  0  0  0  0  0
   -1.0259    0.6093    0.0000 C   0  0  0  0  0  0  0  0  0  0  0  0
   -1.2843   -0.8683    0.0000 C   0  0  0  0  0  0  0  0  0  0  0  0
   -2.5290   -0.0313    0.0000 C   0  0  0  0  0  0  0  0  0  0  0  0
  2  1  1  6
  2  3  1  0
  3  4  1  0
  4  5  1  0
  5  6  2  0
  5  7  1  0
  2  8  1  0
  8  9  1  6
  9 10  1  0
 11 10  1  6
 11 12  1  0
 12 13  1  1
 13 14  1  6
 13 15  1  0
 16 15  1  1
 16 17  1  0
 17 18  1  0
 18 19  1  6
 18 20  1  0
 20 21  1  0
 21 22  1  0
 22 23  1  6
 22 24  1  0
 24 25  1  6
 25 26  1  0
 26 27  1  0
 27 28  1  6
 27  8  1  0
 27 11  1  0
 24 12  1  0
 22 16  1  0
M  END
>  <MS_ID>  (300) 
MS0312

>  <SMILES>  (300) 
C[C@H](CCC(=O)S)[C@H]1CC[C@H]2[C@@H]3[C@@H](O)C[C@@H]4C[C@@H](O)CC[C@]4(C)[C@H]3CC[C@]12C

>  <Structure_dimension>  (300) 
2D

$$$$
MS0313
     RDKit          2D

 37 40  0  0  0  0  0  0  0  0999 V2000
   -1.2134   -4.5093    0.0000 C   0  0  0  0  0  0  0  0  0  0  0  0
   -0.5993   -3.1408    0.0000 C   0  0  0  0  0  0  0  0  0  0  0  0
   -1.4773   -1.9247    0.0000 C   0  0  0  0  0  0  0  0  0  0  0  0
   -2.9696   -2.0771    0.0000 C   0  0  0  0  0  0  0  0  0  0  0  0
   -3.8476   -0.8609    0.0000 C   0  0  0  0  0  0  0  0  0  0  0  0
   -3.2335    0.5076    0.0000 O   0  0  0  0  0  0  0  0  0  0  0  0
   -5.3399   -1.0133    0.0000 C   0  0  0  0  0  0  0  0  0  0  0  0
   -6.2179    0.2029    0.0000 C   0  0  0  0  0  0  0  0  0  0  0  0
   -7.7102    0.0505    0.0000 C   0  0  0  0  0  0  0  0  0  0  0  0
   -8.3244   -1.3180    0.0000 O   0  0  0  0  0  0  0  0  0  0  0  0
   -8.5882    1.2667    0.0000 N   0  0  0  0  0  0  0  0  0  0  0  0
  -10.0805    1.1143    0.0000 C   0  0  0  0  0  0  0  0  0  0  0  0
  -10.9586    2.3304    0.0000 C   0  0  0  0  0  0  0  0  0  0  0  0
  -10.3444    3.6989    0.0000 O   0  0  0  0  0  0  0  0  0  0  0  0
  -12.4508    2.1781    0.0000 O   0  0  0  0  0  0  0  0  0  0  0  0
    0.8930   -2.9885    0.0000 C   0  0  0  0  0  0  0  0  0  0  0  0
    1.8934   -4.1062    0.0000 C   0  0  0  0  0  0  0  0  0  0  0  0
    3.2655   -3.5001    0.0000 C   0  0  0  0  0  0  0  0  0  0  0  0
    3.1131   -2.0079    0.0000 C   0  0  0  0  0  0  0  0  0  0  0  0
    4.1201   -0.8962    0.0000 C   0  0  0  0  0  0  0  0  0  0  0  0
    5.5864   -1.2124    0.0000 C   0  0  0  0  0  0  0  0  0  0  0  0
    6.0457   -2.6404    0.0000 O   0  0  0  0  0  0  0  0  0  0  0  0
    6.5934   -0.1007    0.0000 C   0  0  0  0  0  0  0  0  0  0  0  0
    8.0597   -0.4169    0.0000 O   0  0  0  0  0  0  0  0  0  0  0  0
    6.1342    1.3273    0.0000 C   0  0  0  0  0  0  0  0  0  0  0  0
    7.1412    2.4390    0.0000 C   0  0  0  0  0  0  0  0  0  0  0  0
    6.6819    3.8670    0.0000 C   0  0  0  0  0  0  0  0  0  0  0  0
    7.6889    4.9787    0.0000 O   0  0  0  0  0  0  0  0  0  0  0  0
    5.2156    4.1832    0.0000 C   0  0  0  0  0  0  0  0  0  0  0  0
    4.2086    3.0715    0.0000 C   0  0  0  0  0  0  0  0  0  0  0  0
    4.6679    1.6435    0.0000 C   0  0  0  0  0  0  0  0  0  0  0  0
    3.2016    1.9597    0.0000 C   0  0  0  0  0  0  0  0  0  0  0  0
    3.6609    0.5318    0.0000 C   0  0  0  0  0  0  0  0  0  0  0  0
    2.1946    0.8480    0.0000 C   0  0  0  0  0  0  0  0  0  0  0  0
    1.1876   -0.2637    0.0000 C   0  0  0  0  0  0  0  0  0  0  0  0
    1.6468   -1.6917    0.0000 C   0  0  0  0  0  0  0  0  0  0  0  0
    0.1555   -1.5304    0.0000 C   0  0  0  0  0  0  0  0  0  0  0  0
  2  1  1  6
  2  3  1  0
  3  4  1  0
  4  5  1  0
  5  6  2  0
  5  7  1  0
  7  8  1  0
  8  9  1  0
  9 10  2  0
  9 11  1  0
 11 12  1  0
 12 13  1  0
 13 14  2  0
 13 15  1  0
  2 16  1  0
 16 17  1  6
 17 18  1  0
 19 18  1  6
 19 20  1  0
 20 21  1  1
 21 22  1  1
 21 23  1  0
 23 24  1  1
 23 25  1  0
 25 26  1  1
 26 27  1  0
 27 28  1  1
 27 29  1  0
 29 30  1  0
 30 31  1  0
 31 32  1  6
 31 33  1  0
 33 34  1  6
 34 35  1  0
 35 36  1  0
 36 37  1  6
 36 16  1  0
 36 19  1  0
 33 20  1  0
 31 25  1  0
M  END
>  <MS_ID>  (301) 
MS0313

>  <SMILES>  (301) 
C[C@H](CCC(=O)CCC(=O)NCC(=O)O)[C@H]1CC[C@H]2[C@@H]3[C@H](O)[C@H](O)[C@@H]4C[C@H](O)CC[C@]4(C)[C@H]3CC[C@]12C

>  <Structure_dimension>  (301) 
2D

$$$$
MS0314
     RDKit          2D

 32 35  0  0  0  0  0  0  0  0999 V2000
   -2.6627   -3.7242    0.0000 C   0  0  0  0  0  0  0  0  0  0  0  0
   -1.8528   -2.4616    0.0000 C   0  0  0  0  0  0  0  0  0  0  0  0
   -2.5413   -1.1289    0.0000 C   0  0  0  0  0  0  0  0  0  0  0  0
   -4.0396   -1.0588    0.0000 C   0  0  0  0  0  0  0  0  0  0  0  0
   -4.7281    0.2738    0.0000 C   0  0  0  0  0  0  0  0  0  0  0  0
   -3.9182    1.5364    0.0000 O   0  0  0  0  0  0  0  0  0  0  0  0
   -6.2265    0.3439    0.0000 C   0  0  0  0  0  0  0  0  0  0  0  0
   -6.9150    1.6766    0.0000 C   0  0  0  0  0  0  0  0  0  0  0  0
   -8.4133    1.7467    0.0000 C   0  0  0  0  0  0  0  0  0  0  0  0
   -9.2232    0.4841    0.0000 O   0  0  0  0  0  0  0  0  0  0  0  0
   -9.1018    3.0794    0.0000 O   0  0  0  0  0  0  0  0  0  0  0  0
   -0.3544   -2.5317    0.0000 C   0  0  0  0  0  0  0  0  0  0  0  0
    0.4696   -3.7851    0.0000 C   0  0  0  0  0  0  0  0  0  0  0  0
    1.9163   -3.3887    0.0000 C   0  0  0  0  0  0  0  0  0  0  0  0
    1.9864   -1.8904    0.0000 C   0  0  0  0  0  0  0  0  0  0  0  0
    3.1468   -0.9399    0.0000 C   0  0  0  0  0  0  0  0  0  0  0  0
    4.5501   -1.4695    0.0000 C   0  0  0  0  0  0  0  0  0  0  0  0
    4.7931   -2.9497    0.0000 O   0  0  0  0  0  0  0  0  0  0  0  0
    5.7105   -0.5190    0.0000 C   0  0  0  0  0  0  0  0  0  0  0  0
    5.4676    0.9612    0.0000 C   0  0  0  0  0  0  0  0  0  0  0  0
    6.6280    1.9117    0.0000 C   0  0  0  0  0  0  0  0  0  0  0  0
    6.3850    3.3919    0.0000 C   0  0  0  0  0  0  0  0  0  0  0  0
    4.9816    3.9216    0.0000 C   0  0  0  0  0  0  0  0  0  0  0  0
    3.8212    2.9710    0.0000 C   0  0  0  0  0  0  0  0  0  0  0  0
    4.0642    1.4909    0.0000 C   0  0  0  0  0  0  0  0  0  0  0  0
    2.6608    2.0205    0.0000 C   0  0  0  0  0  0  0  0  0  0  0  0
    2.9038    0.5403    0.0000 C   0  0  0  0  0  0  0  0  0  0  0  0
    1.5004    1.0700    0.0000 C   0  0  0  0  0  0  0  0  0  0  0  0
    0.3400    0.1195    0.0000 C   0  0  0  0  0  0  0  0  0  0  0  0
   -1.0633    0.6492    0.0000 O   0  0  0  0  0  0  0  0  0  0  0  0
    0.5830   -1.3607    0.0000 C   0  0  0  0  0  0  0  0  0  0  0  0
   -0.8681   -0.9806    0.0000 C   0  0  0  0  0  0  0  0  0  0  0  0
  2  1  1  6
  2  3  1  0
  3  4  1  0
  4  5  1  0
  5  6  2  0
  5  7  1  0
  7  8  1  0
  8  9  1  0
  9 10  2  0
  9 11  1  0
  2 12  1  0
 12 13  1  6
 13 14  1  0
 15 14  1  6
 15 16  1  0
 16 17  1  1
 17 18  1  1
 17 19  1  0
 20 19  1  1
 20 21  1  0
 21 22  1  0
 22 23  1  0
 23 24  1  0
 24 25  1  0
 25 26  1  6
 25 27  1  0
 27 28  1  6
 28 29  1  0
 29 30  1  1
 29 31  1  0
 31 32  1  6
 31 12  1  0
 31 15  1  0
 27 16  1  0
 25 20  1  0
M  END
>  <MS_ID>  (302) 
MS0314

>  <SMILES>  (302) 
C[C@H](CCC(=O)CCC(=O)O)[C@H]1CC[C@H]2[C@@H]3[C@H](O)C[C@@H]4CCCC[C@]4(C)[C@H]3C[C@H](O)[C@]12C

>  <Structure_dimension>  (302) 
2D

$$$$
MS0315
     RDKit          2D

 39 43  0  0  0  0  0  0  0  0999 V2000
   -7.8836   -1.9888    0.0000 C   0  0  0  0  0  0  0  0  0  0  0  0
   -6.7013   -1.0656    0.0000 C   0  0  0  0  0  0  0  0  0  0  0  0
   -6.9097    0.4199    0.0000 C   0  0  0  0  0  0  0  0  0  0  0  0
   -8.3003    0.9822    0.0000 C   0  0  0  0  0  0  0  0  0  0  0  0
   -8.5087    2.4676    0.0000 C   0  0  0  0  0  0  0  0  0  0  0  0
   -7.3264    3.3908    0.0000 O   0  0  0  0  0  0  0  0  0  0  0  0
   -9.8993    3.0299    0.0000 O   0  0  0  0  0  0  0  0  0  0  0  0
   -5.3107   -1.6279    0.0000 C   0  0  0  0  0  0  0  0  0  0  0  0
   -4.9482   -3.0834    0.0000 C   0  0  0  0  0  0  0  0  0  0  0  0
   -3.4519   -3.1884    0.0000 C   0  0  0  0  0  0  0  0  0  0  0  0
   -2.8896   -1.7978    0.0000 C   0  0  0  0  0  0  0  0  0  0  0  0
   -1.4799   -1.2851    0.0000 C   0  0  0  0  0  0  0  0  0  0  0  0
   -0.3311   -2.2496    0.0000 C   0  0  0  0  0  0  0  0  0  0  0  0
   -0.5920   -3.7268    0.0000 O   0  0  0  0  0  0  0  0  0  0  0  0
    1.0786   -1.7370    0.0000 C   0  0  0  0  0  0  0  0  0  0  0  0
    1.3394   -0.2598    0.0000 C   0  0  0  0  0  0  0  0  0  0  0  0
    2.7491    0.2528    0.0000 C   0  0  0  0  0  0  0  0  0  0  0  0
    3.0100    1.7300    0.0000 C   0  0  0  0  0  0  0  0  0  0  0  0
    4.4196    2.2426    0.0000 O   0  0  0  0  0  0  0  0  0  0  0  0
    5.5685    1.2781    0.0000 C   0  0  0  0  0  0  0  0  0  0  0  0
    5.3076   -0.1990    0.0000 O   0  0  0  0  0  0  0  0  0  0  0  0
    6.4564   -1.1635    0.0000 C   0  0  0  0  0  0  0  0  0  0  0  0
    6.1955   -2.6406    0.0000 C   0  0  0  0  0  0  0  0  0  0  0  0
    4.7859   -3.1533    0.0000 O   0  0  0  0  0  0  0  0  0  0  0  0
    7.8661   -0.6508    0.0000 C   0  0  0  0  0  0  0  0  0  0  0  0
    9.0149   -1.6153    0.0000 O   0  0  0  0  0  0  0  0  0  0  0  0
    8.1269    0.8263    0.0000 C   0  0  0  0  0  0  0  0  0  0  0  0
    9.5366    1.3390    0.0000 O   0  0  0  0  0  0  0  0  0  0  0  0
    6.9781    1.7908    0.0000 C   0  0  0  0  0  0  0  0  0  0  0  0
    7.2390    3.2679    0.0000 O   0  0  0  0  0  0  0  0  0  0  0  0
    1.8612    2.6945    0.0000 C   0  0  0  0  0  0  0  0  0  0  0  0
    0.4515    2.1818    0.0000 C   0  0  0  0  0  0  0  0  0  0  0  0
    0.1906    0.7047    0.0000 C   0  0  0  0  0  0  0  0  0  0  0  0
   -0.9582    1.6691    0.0000 C   0  0  0  0  0  0  0  0  0  0  0  0
   -1.2191    0.1920    0.0000 C   0  0  0  0  0  0  0  0  0  0  0  0
   -2.3679    1.1565    0.0000 C   0  0  0  0  0  0  0  0  0  0  0  0
   -3.7775    0.6438    0.0000 C   0  0  0  0  0  0  0  0  0  0  0  0
   -4.0384   -0.8333    0.0000 C   0  0  0  0  0  0  0  0  0  0  0  0
   -5.2817    0.0058    0.0000 C   0  0  0  0  0  0  0  0  0  0  0  0
  2  1  1  6
  2  3  1  0
  3  4  1  0
  4  5  1  0
  5  6  2  0
  5  7  1  0
  2  8  1  0
  8  9  1  6
  9 10  1  0
 11 10  1  6
 11 12  1  0
 12 13  1  1
 13 14  1  6
 13 15  1  0
 16 15  1  1
 16 17  1  0
 17 18  1  0
 18 19  1  1
 20 19  1  1
 20 21  1  0
 21 22  1  0
 22 23  1  1
 23 24  1  0
 22 25  1  0
 25 26  1  6
 25 27  1  0
 27 28  1  1
 27 29  1  0
 29 30  1  6
 18 31  1  0
 31 32  1  0
 32 33  1  0
 33 34  1  6
 33 35  1  0
 35 36  1  6
 36 37  1  0
 37 38  1  0
 38 39  1  6
 38  8  1  0
 38 11  1  0
 35 12  1  0
 33 16  1  0
 29 20  1  0
M  END
>  <MS_ID>  (303) 
MS0315

>  <SMILES>  (303) 
C[C@H](CCC(=O)O)[C@H]1CC[C@H]2[C@@H]3[C@@H](O)C[C@@H]4C[C@H](O[C@@H]5O[C@H](CO)[C@@H](O)[C@H](O)[C@H]5O)CC[C@]4(C)[C@H]3CC[C@]12C

>  <Structure_dimension>  (303) 
2D

$$$$
MS0316
     RDKit          2D

 32 35  0  0  0  0  0  0  0  0999 V2000
   -3.4546   -3.6059    0.0000 C   0  0  0  0  0  0  0  0  0  0  0  0
   -2.5561   -2.4048    0.0000 C   0  0  0  0  0  0  0  0  0  0  0  0
   -3.1471   -1.0261    0.0000 C   0  0  0  0  0  0  0  0  0  0  0  0
   -4.6366   -0.8486    0.0000 C   0  0  0  0  0  0  0  0  0  0  0  0
   -5.2276    0.5301    0.0000 C   0  0  0  0  0  0  0  0  0  0  0  0
   -4.3291    1.7312    0.0000 O   0  0  0  0  0  0  0  0  0  0  0  0
   -6.7170    0.7076    0.0000 C   0  0  0  0  0  0  0  0  0  0  0  0
   -7.3080    2.0863    0.0000 C   0  0  0  0  0  0  0  0  0  0  0  0
   -8.7975    2.2638    0.0000 C   0  0  0  0  0  0  0  0  0  0  0  0
   -9.3885    3.6424    0.0000 N   0  0  0  0  0  0  0  0  0  0  0  0
   -1.0667   -2.5823    0.0000 C   0  0  0  0  0  0  0  0  0  0  0  0
   -0.3348   -3.8917    0.0000 C   0  0  0  0  0  0  0  0  0  0  0  0
    1.1366   -3.6002    0.0000 C   0  0  0  0  0  0  0  0  0  0  0  0
    1.3141   -2.1108    0.0000 C   0  0  0  0  0  0  0  0  0  0  0  0
    2.5398   -1.2460    0.0000 C   0  0  0  0  0  0  0  0  0  0  0  0
    3.9015   -1.8751    0.0000 C   0  0  0  0  0  0  0  0  0  0  0  0
    4.0375   -3.3690    0.0000 O   0  0  0  0  0  0  0  0  0  0  0  0
    5.1272   -1.0104    0.0000 C   0  0  0  0  0  0  0  0  0  0  0  0
    4.9911    0.4834    0.0000 C   0  0  0  0  0  0  0  0  0  0  0  0
    6.2168    1.3481    0.0000 C   0  0  0  0  0  0  0  0  0  0  0  0
    6.0808    2.8419    0.0000 C   0  0  0  0  0  0  0  0  0  0  0  0
    7.3064    3.7067    0.0000 O   0  0  0  0  0  0  0  0  0  0  0  0
    4.7191    3.4710    0.0000 C   0  0  0  0  0  0  0  0  0  0  0  0
    3.4934    2.6063    0.0000 C   0  0  0  0  0  0  0  0  0  0  0  0
    3.6294    1.1125    0.0000 C   0  0  0  0  0  0  0  0  0  0  0  0
    2.2677    1.7416    0.0000 C   0  0  0  0  0  0  0  0  0  0  0  0
    2.4038    0.2478    0.0000 C   0  0  0  0  0  0  0  0  0  0  0  0
    1.0421    0.8769    0.0000 C   0  0  0  0  0  0  0  0  0  0  0  0
   -0.1836    0.0122    0.0000 C   0  0  0  0  0  0  0  0  0  0  0  0
   -1.5453    0.6413    0.0000 O   0  0  0  0  0  0  0  0  0  0  0  0
   -0.0476   -1.4817    0.0000 C   0  0  0  0  0  0  0  0  0  0  0  0
   -1.4676   -0.9983    0.0000 C   0  0  0  0  0  0  0  0  0  0  0  0
  2  1  1  6
  2  3  1  0
  3  4  1  0
  4  5  1  0
  5  6  2  0
  5  7  1  0
  7  8  1  0
  8  9  1  0
  9 10  1  0
  2 11  1  0
 11 12  1  6
 12 13  1  0
 14 13  1  6
 14 15  1  0
 15 16  1  1
 16 17  1  1
 16 18  1  0
 19 18  1  1
 19 20  1  0
 20 21  1  0
 21 22  1  1
 21 23  1  0
 23 24  1  0
 24 25  1  0
 25 26  1  6
 25 27  1  0
 27 28  1  6
 28 29  1  0
 29 30  1  1
 29 31  1  0
 31 32  1  6
 31 11  1  0
 31 14  1  0
 27 15  1  0
 25 19  1  0
M  END
>  <MS_ID>  (304) 
MS0316

>  <SMILES>  (304) 
C[C@H](CCC(=O)CCCN)[C@H]1CC[C@H]2[C@@H]3[C@H](O)C[C@@H]4C[C@H](O)CC[C@]4(C)[C@H]3C[C@H](O)[C@]12C

>  <Structure_dimension>  (304) 
2D

$$$$
MS0317
     RDKit          2D

 32 35  0  0  0  0  0  0  0  0999 V2000
   -3.9539   -2.9832    0.0000 C   0  0  0  0  0  0  0  0  0  0  0  0
   -2.9202   -1.8962    0.0000 C   0  0  0  0  0  0  0  0  0  0  0  0
   -3.3447   -0.4575    0.0000 C   0  0  0  0  0  0  0  0  0  0  0  0
   -4.8029   -0.1058    0.0000 C   0  0  0  0  0  0  0  0  0  0  0  0
   -5.2274    1.3329    0.0000 C   0  0  0  0  0  0  0  0  0  0  0  0
   -4.1937    2.4198    0.0000 O   0  0  0  0  0  0  0  0  0  0  0  0
   -6.6856    1.6846    0.0000 C   0  0  0  0  0  0  0  0  0  0  0  0
   -7.0373    0.2264    0.0000 C   0  0  0  0  0  0  0  0  0  0  0  0
   -6.3339    3.1427    0.0000 C   0  0  0  0  0  0  0  0  0  0  0  0
   -8.1438    2.0363    0.0000 O   0  0  0  0  0  0  0  0  0  0  0  0
   -1.4620   -2.2479    0.0000 C   0  0  0  0  0  0  0  0  0  0  0  0
   -0.8894   -3.6343    0.0000 C   0  0  0  0  0  0  0  0  0  0  0  0
    0.6061   -3.5182    0.0000 C   0  0  0  0  0  0  0  0  0  0  0  0
    0.9578   -2.0600    0.0000 C   0  0  0  0  0  0  0  0  0  0  0  0
    2.2768   -1.3457    0.0000 C   0  0  0  0  0  0  0  0  0  0  0  0
    3.5549   -2.1307    0.0000 C   0  0  0  0  0  0  0  0  0  0  0  0
    3.5141   -3.6302    0.0000 O   0  0  0  0  0  0  0  0  0  0  0  0
    4.8739   -1.4164    0.0000 C   0  0  0  0  0  0  0  0  0  0  0  0
    4.9147    0.0830    0.0000 C   0  0  0  0  0  0  0  0  0  0  0  0
    6.2337    0.7974    0.0000 C   0  0  0  0  0  0  0  0  0  0  0  0
    6.2745    2.2968    0.0000 C   0  0  0  0  0  0  0  0  0  0  0  0
    7.5935    3.0112    0.0000 O   0  0  0  0  0  0  0  0  0  0  0  0
    4.9964    3.0819    0.0000 C   0  0  0  0  0  0  0  0  0  0  0  0
    3.6774    2.3676    0.0000 C   0  0  0  0  0  0  0  0  0  0  0  0
    3.6366    0.8681    0.0000 C   0  0  0  0  0  0  0  0  0  0  0  0
    2.3584    1.6532    0.0000 C   0  0  0  0  0  0  0  0  0  0  0  0
    2.3176    0.1538    0.0000 C   0  0  0  0  0  0  0  0  0  0  0  0
    1.0395    0.9389    0.0000 C   0  0  0  0  0  0  0  0  0  0  0  0
   -0.2795    0.2245    0.0000 C   0  0  0  0  0  0  0  0  0  0  0  0
   -1.5577    1.0096    0.0000 O   0  0  0  0  0  0  0  0  0  0  0  0
   -0.3204   -1.2749    0.0000 C   0  0  0  0  0  0  0  0  0  0  0  0
   -1.6736   -0.6277    0.0000 C   0  0  0  0  0  0  0  0  0  0  0  0
  2  1  1  6
  2  3  1  0
  3  4  1  0
  4  5  1  0
  5  6  2  0
  5  7  1  0
  7  8  1  0
  7  9  1  0
  7 10  1  0
  2 11  1  0
 11 12  1  6
 12 13  1  0
 14 13  1  6
 14 15  1  0
 15 16  1  1
 16 17  1  1
 16 18  1  0
 19 18  1  1
 19 20  1  0
 20 21  1  0
 21 22  1  1
 21 23  1  0
 23 24  1  0
 24 25  1  0
 25 26  1  6
 25 27  1  0
 27 28  1  6
 28 29  1  0
 29 30  1  1
 29 31  1  0
 31 32  1  6
 31 11  1  0
 31 14  1  0
 27 15  1  0
 25 19  1  0
M  END
>  <MS_ID>  (305) 
MS0317

>  <SMILES>  (305) 
C[C@H](CCC(=O)C(C)(C)O)[C@H]1CC[C@H]2[C@@H]3[C@H](O)C[C@@H]4C[C@H](O)CC[C@]4(C)[C@H]3C[C@H](O)[C@]12C

>  <Structure_dimension>  (305) 
2D

$$$$
MS0318
     RDKit          2D

 29 32  0  0  0  0  0  0  0  0999 V2000
   -4.5534   -2.6812    0.0000 C   0  0  0  0  0  0  0  0  0  0  0  0
   -3.4378   -1.6786    0.0000 C   0  0  0  0  0  0  0  0  0  0  0  0
   -3.7483   -0.2111    0.0000 C   0  0  0  0  0  0  0  0  0  0  0  0
   -5.1744    0.2538    0.0000 C   0  0  0  0  0  0  0  0  0  0  0  0
   -5.4850    1.7213    0.0000 C   0  0  0  0  0  0  0  0  0  0  0  0
   -4.3693    2.7239    0.0000 O   0  0  0  0  0  0  0  0  0  0  0  0
   -6.9111    2.1861    0.0000 C   0  0  0  0  0  0  0  0  0  0  0  0
   -7.2216    3.6536    0.0000 O   0  0  0  0  0  0  0  0  0  0  0  0
   -2.0116   -2.1434    0.0000 C   0  0  0  0  0  0  0  0  0  0  0  0
   -1.5494   -3.5704    0.0000 C   0  0  0  0  0  0  0  0  0  0  0  0
   -0.0494   -3.5718    0.0000 C   0  0  0  0  0  0  0  0  0  0  0  0
    0.4155   -2.1456    0.0000 C   0  0  0  0  0  0  0  0  0  0  0  0
    1.7863   -1.5368    0.0000 C   0  0  0  0  0  0  0  0  0  0  0  0
    2.9990   -2.4196    0.0000 C   0  0  0  0  0  0  0  0  0  0  0  0
    4.3699   -1.8107    0.0000 C   0  0  0  0  0  0  0  0  0  0  0  0
    4.5281   -0.3191    0.0000 C   0  0  0  0  0  0  0  0  0  0  0  0
    5.8990    0.2898    0.0000 C   0  0  0  0  0  0  0  0  0  0  0  0
    6.0571    1.7814    0.0000 C   0  0  0  0  0  0  0  0  0  0  0  0
    7.4280    2.3902    0.0000 O   0  0  0  0  0  0  0  0  0  0  0  0
    4.8444    2.6642    0.0000 C   0  0  0  0  0  0  0  0  0  0  0  0
    3.4735    2.0553    0.0000 C   0  0  0  0  0  0  0  0  0  0  0  0
    3.3154    0.5637    0.0000 C   0  0  0  0  0  0  0  0  0  0  0  0
    2.1026    1.4465    0.0000 C   0  0  0  0  0  0  0  0  0  0  0  0
    1.9445   -0.0451    0.0000 C   0  0  0  0  0  0  0  0  0  0  0  0
    0.7318    0.8376    0.0000 C   0  0  0  0  0  0  0  0  0  0  0  0
   -0.6391    0.2288    0.0000 C   0  0  0  0  0  0  0  0  0  0  0  0
   -1.8518    1.1116    0.0000 O   0  0  0  0  0  0  0  0  0  0  0  0
   -0.7973   -1.2628    0.0000 C   0  0  0  0  0  0  0  0  0  0  0  0
   -2.0956   -0.5116    0.0000 C   0  0  0  0  0  0  0  0  0  0  0  0
  2  1  1  6
  2  3  1  0
  3  4  1  0
  4  5  1  0
  5  6  2  0
  5  7  1  0
  7  8  1  0
  2  9  1  0
  9 10  1  6
 10 11  1  0
 12 11  1  6
 12 13  1  0
 13 14  1  1
 14 15  1  0
 16 15  1  1
 16 17  1  0
 17 18  1  0
 18 19  1  1
 18 20  1  0
 20 21  1  0
 21 22  1  0
 22 23  1  6
 22 24  1  0
 24 25  1  6
 25 26  1  0
 26 27  2  0
 26 28  1  0
 28 29  1  6
 28  9  1  0
 28 12  1  0
 24 13  1  0
 22 16  1  0
M  END
>  <MS_ID>  (306) 
MS0318

>  <SMILES>  (306) 
C[C@H](CCC(=O)CO)[C@H]1CC[C@H]2[C@@H]3CC[C@@H]4C[C@H](O)CC[C@]4(C)[C@H]3CC(=O)[C@]12C

>  <Structure_dimension>  (306) 
2D

$$$$
MS0319
     RDKit          2D

 32 35  0  0  0  0  0  0  0  0999 V2000
   -3.4546   -3.6059    0.0000 C   0  0  0  0  0  0  0  0  0  0  0  0
   -2.5561   -2.4048    0.0000 C   0  0  0  0  0  0  0  0  0  0  0  0
   -3.1471   -1.0261    0.0000 C   0  0  0  0  0  0  0  0  0  0  0  0
   -4.6366   -0.8486    0.0000 C   0  0  0  0  0  0  0  0  0  0  0  0
   -5.2276    0.5301    0.0000 C   0  0  0  0  0  0  0  0  0  0  0  0
   -4.3291    1.7312    0.0000 O   0  0  0  0  0  0  0  0  0  0  0  0
   -6.7170    0.7076    0.0000 O   0  0  0  0  0  0  0  0  0  0  0  0
   -7.3080    2.0863    0.0000 C   0  0  0  0  0  0  0  0  0  0  0  0
   -8.7975    2.2638    0.0000 C   0  0  0  0  0  0  0  0  0  0  0  0
   -9.3885    3.6424    0.0000 N   0  0  0  0  0  0  0  0  0  0  0  0
   -1.0667   -2.5823    0.0000 C   0  0  0  0  0  0  0  0  0  0  0  0
   -0.3348   -3.8917    0.0000 C   0  0  0  0  0  0  0  0  0  0  0  0
    1.1366   -3.6002    0.0000 C   0  0  0  0  0  0  0  0  0  0  0  0
    1.3141   -2.1108    0.0000 C   0  0  0  0  0  0  0  0  0  0  0  0
    2.5398   -1.2460    0.0000 C   0  0  0  0  0  0  0  0  0  0  0  0
    3.9015   -1.8751    0.0000 C   0  0  0  0  0  0  0  0  0  0  0  0
    4.0375   -3.3690    0.0000 O   0  0  0  0  0  0  0  0  0  0  0  0
    5.1272   -1.0104    0.0000 C   0  0  0  0  0  0  0  0  0  0  0  0
    4.9911    0.4834    0.0000 C   0  0  0  0  0  0  0  0  0  0  0  0
    6.2168    1.3481    0.0000 C   0  0  0  0  0  0  0  0  0  0  0  0
    6.0808    2.8419    0.0000 C   0  0  0  0  0  0  0  0  0  0  0  0
    7.3064    3.7067    0.0000 O   0  0  0  0  0  0  0  0  0  0  0  0
    4.7191    3.4710    0.0000 C   0  0  0  0  0  0  0  0  0  0  0  0
    3.4934    2.6063    0.0000 C   0  0  0  0  0  0  0  0  0  0  0  0
    3.6294    1.1125    0.0000 C   0  0  0  0  0  0  0  0  0  0  0  0
    2.2677    1.7416    0.0000 C   0  0  0  0  0  0  0  0  0  0  0  0
    2.4038    0.2478    0.0000 C   0  0  0  0  0  0  0  0  0  0  0  0
    1.0421    0.8769    0.0000 C   0  0  0  0  0  0  0  0  0  0  0  0
   -0.1836    0.0122    0.0000 C   0  0  0  0  0  0  0  0  0  0  0  0
   -1.5453    0.6413    0.0000 O   0  0  0  0  0  0  0  0  0  0  0  0
   -0.0476   -1.4817    0.0000 C   0  0  0  0  0  0  0  0  0  0  0  0
   -1.4676   -0.9983    0.0000 C   0  0  0  0  0  0  0  0  0  0  0  0
  2  1  1  6
  2  3  1  0
  3  4  1  0
  4  5  1  0
  5  6  2  0
  5  7  1  0
  7  8  1  0
  8  9  1  0
  9 10  1  0
  2 11  1  0
 11 12  1  6
 12 13  1  0
 14 13  1  6
 14 15  1  0
 15 16  1  1
 16 17  1  1
 16 18  1  0
 19 18  1  1
 19 20  1  0
 20 21  1  0
 21 22  1  1
 21 23  1  0
 23 24  1  0
 24 25  1  0
 25 26  1  6
 25 27  1  0
 27 28  1  6
 28 29  1  0
 29 30  1  1
 29 31  1  0
 31 32  1  6
 31 11  1  0
 31 14  1  0
 27 15  1  0
 25 19  1  0
M  END
>  <MS_ID>  (307) 
MS0319

>  <SMILES>  (307) 
C[C@H](CCC(=O)OCCN)[C@H]1CC[C@H]2[C@@H]3[C@H](O)C[C@@H]4C[C@H](O)CC[C@]4(C)[C@H]3C[C@H](O)[C@]12C

>  <Structure_dimension>  (307) 
2D

$$$$
MS0320
     RDKit          2D

 28 31  0  0  0  0  0  0  0  0999 V2000
   -5.1275   -2.0302    0.0000 C   0  0  0  0  0  0  0  0  0  0  0  0
   -3.9468   -1.1050    0.0000 C   0  0  0  0  0  0  0  0  0  0  0  0
   -4.1576    0.3801    0.0000 C   0  0  0  0  0  0  0  0  0  0  0  0
   -5.5492    0.9401    0.0000 C   0  0  0  0  0  0  0  0  0  0  0  0
   -5.7600    2.4252    0.0000 C   0  0  0  0  0  0  0  0  0  0  0  0
   -4.5793    3.3503    0.0000 O   0  0  0  0  0  0  0  0  0  0  0  0
   -7.1516    2.9851    0.0000 O   0  0  0  0  0  0  0  0  0  0  0  0
   -2.5552   -1.6650    0.0000 C   0  0  0  0  0  0  0  0  0  0  0  0
   -2.1903   -3.1199    0.0000 C   0  0  0  0  0  0  0  0  0  0  0  0
   -0.6938   -3.2225    0.0000 C   0  0  0  0  0  0  0  0  0  0  0  0
   -0.1339   -1.8309    0.0000 C   0  0  0  0  0  0  0  0  0  0  0  0
    1.2750   -1.3159    0.0000 C   0  0  0  0  0  0  0  0  0  0  0  0
    2.4254   -2.2785    0.0000 C   0  0  0  0  0  0  0  0  0  0  0  0
    2.1670   -3.7560    0.0000 O   0  0  0  0  0  0  0  0  0  0  0  0
    3.8342   -1.7635    0.0000 C   0  0  0  0  0  0  0  0  0  0  0  0
    4.0926   -0.2859    0.0000 C   0  0  0  0  0  0  0  0  0  0  0  0
    5.5014    0.2291    0.0000 C   0  0  0  0  0  0  0  0  0  0  0  0
    5.7598    1.7067    0.0000 C   0  0  0  0  0  0  0  0  0  0  0  0
    7.1687    2.2217    0.0000 N   0  0  0  0  0  0  0  0  0  0  0  0
    4.6094    2.6692    0.0000 C   0  0  0  0  0  0  0  0  0  0  0  0
    3.2006    2.1542    0.0000 C   0  0  0  0  0  0  0  0  0  0  0  0
    2.9422    0.6767    0.0000 C   0  0  0  0  0  0  0  0  0  0  0  0
    1.7918    1.6392    0.0000 C   0  0  0  0  0  0  0  0  0  0  0  0
    1.5334    0.1617    0.0000 C   0  0  0  0  0  0  0  0  0  0  0  0
    0.3830    1.1242    0.0000 C   0  0  0  0  0  0  0  0  0  0  0  0
   -1.0259    0.6093    0.0000 C   0  0  0  0  0  0  0  0  0  0  0  0
   -1.2843   -0.8683    0.0000 C   0  0  0  0  0  0  0  0  0  0  0  0
   -2.5290   -0.0313    0.0000 C   0  0  0  0  0  0  0  0  0  0  0  0
  2  1  1  6
  2  3  1  0
  3  4  1  0
  4  5  1  0
  5  6  2  0
  5  7  1  0
  2  8  1  0
  8  9  1  6
  9 10  1  0
 11 10  1  6
 11 12  1  0
 12 13  1  1
 13 14  1  6
 13 15  1  0
 16 15  1  1
 16 17  1  0
 17 18  1  0
 18 19  1  1
 18 20  1  0
 20 21  1  0
 21 22  1  0
 22 23  1  6
 22 24  1  0
 24 25  1  6
 25 26  1  0
 26 27  1  0
 27 28  1  6
 27  8  1  0
 27 11  1  0
 24 12  1  0
 22 16  1  0
M  END
>  <MS_ID>  (308) 
MS0320

>  <SMILES>  (308) 
C[C@H](CCC(=O)O)[C@H]1CC[C@H]2[C@@H]3[C@@H](O)C[C@@H]4C[C@H](N)CC[C@]4(C)[C@H]3CC[C@]12C

>  <Structure_dimension>  (308) 
2D

$$$$
MS0321
     RDKit          2D

 30 33  0  0  0  0  0  0  0  0999 V2000
   -4.2255   -2.8134    0.0000 C   0  0  0  0  0  0  0  0  0  0  0  0
   -3.1320   -1.7867    0.0000 C   0  0  0  0  0  0  0  0  0  0  0  0
   -3.4744   -0.3263    0.0000 C   0  0  0  0  0  0  0  0  0  0  0  0
   -4.9104    0.1074    0.0000 C   0  0  0  0  0  0  0  0  0  0  0  0
   -5.2528    1.5677    0.0000 C   0  0  0  0  0  0  0  0  0  0  0  0
   -4.1593    2.5945    0.0000 O   0  0  0  0  0  0  0  0  0  0  0  0
   -6.6888    2.0014    0.0000 N   0  0  0  0  0  0  0  0  0  0  0  0
   -7.0312    3.4618    0.0000 C   0  0  0  0  0  0  0  0  0  0  0  0
   -7.7823    0.9746    0.0000 C   0  0  0  0  0  0  0  0  0  0  0  0
   -1.6961   -2.2203    0.0000 C   0  0  0  0  0  0  0  0  0  0  0  0
   -1.2029   -3.6369    0.0000 C   0  0  0  0  0  0  0  0  0  0  0  0
    0.2968   -3.6056    0.0000 C   0  0  0  0  0  0  0  0  0  0  0  0
    0.7305   -2.1697    0.0000 C   0  0  0  0  0  0  0  0  0  0  0  0
    2.0877   -1.5311    0.0000 C   0  0  0  0  0  0  0  0  0  0  0  0
    3.3194   -2.3873    0.0000 C   0  0  0  0  0  0  0  0  0  0  0  0
    4.6767   -1.7487    0.0000 C   0  0  0  0  0  0  0  0  0  0  0  0
    4.8023   -0.2540    0.0000 C   0  0  0  0  0  0  0  0  0  0  0  0
    6.1596    0.3846    0.0000 C   0  0  0  0  0  0  0  0  0  0  0  0
    6.2852    1.8794    0.0000 C   0  0  0  0  0  0  0  0  0  0  0  0
    7.6425    2.5179    0.0000 O   0  0  0  0  0  0  0  0  0  0  0  0
    5.0536    2.7355    0.0000 C   0  0  0  0  0  0  0  0  0  0  0  0
    3.6963    2.0969    0.0000 C   0  0  0  0  0  0  0  0  0  0  0  0
    3.5706    0.6022    0.0000 C   0  0  0  0  0  0  0  0  0  0  0  0
    2.3390    1.4584    0.0000 C   0  0  0  0  0  0  0  0  0  0  0  0
    2.2134   -0.0364    0.0000 C   0  0  0  0  0  0  0  0  0  0  0  0
    0.9817    0.8198    0.0000 C   0  0  0  0  0  0  0  0  0  0  0  0
   -0.3756    0.1812    0.0000 C   0  0  0  0  0  0  0  0  0  0  0  0
   -1.6072    1.0374    0.0000 O   0  0  0  0  0  0  0  0  0  0  0  0
   -0.5012   -1.3135    0.0000 C   0  0  0  0  0  0  0  0  0  0  0  0
   -1.8156   -0.5908    0.0000 C   0  0  0  0  0  0  0  0  0  0  0  0
  2  1  1  6
  2  3  1  0
  3  4  1  0
  4  5  1  0
  5  6  2  0
  5  7  1  0
  7  8  1  0
  7  9  1  0
  2 10  1  0
 10 11  1  6
 11 12  1  0
 13 12  1  6
 13 14  1  0
 14 15  1  1
 15 16  1  0
 17 16  1  1
 17 18  1  0
 18 19  1  0
 19 20  1  1
 19 21  1  0
 21 22  1  0
 22 23  1  0
 23 24  1  6
 23 25  1  0
 25 26  1  6
 26 27  1  0
 27 28  1  1
 27 29  1  0
 29 30  1  6
 29 10  1  0
 29 13  1  0
 25 14  1  0
 23 17  1  0
M  END
>  <MS_ID>  (309) 
MS0321

>  <SMILES>  (309) 
C[C@H](CCC(=O)N(C)C)[C@H]1CC[C@H]2[C@@H]3CC[C@@H]4C[C@H](O)CC[C@]4(C)[C@H]3C[C@H](O)[C@]12C

>  <Structure_dimension>  (309) 
2D

$$$$
MS0322
     RDKit          2D

 28 31  0  0  0  0  0  0  0  0999 V2000
   -5.1275   -2.0302    0.0000 C   0  0  0  0  0  0  0  0  0  0  0  0
   -3.9468   -1.1050    0.0000 C   0  0  0  0  0  0  0  0  0  0  0  0
   -4.1576    0.3801    0.0000 C   0  0  0  0  0  0  0  0  0  0  0  0
   -5.5492    0.9401    0.0000 C   0  0  0  0  0  0  0  0  0  0  0  0
   -5.7600    2.4252    0.0000 C   0  0  0  0  0  0  0  0  0  0  0  0
   -4.5793    3.3503    0.0000 O   0  0  0  0  0  0  0  0  0  0  0  0
   -7.1516    2.9851    0.0000 O   0  0  0  0  0  0  0  0  0  0  0  0
   -2.5552   -1.6650    0.0000 C   0  0  0  0  0  0  0  0  0  0  0  0
   -2.1903   -3.1199    0.0000 C   0  0  0  0  0  0  0  0  0  0  0  0
   -0.6938   -3.2225    0.0000 C   0  0  0  0  0  0  0  0  0  0  0  0
   -0.1339   -1.8309    0.0000 C   0  0  0  0  0  0  0  0  0  0  0  0
    1.2750   -1.3159    0.0000 C   0  0  0  0  0  0  0  0  0  0  0  0
    2.4254   -2.2785    0.0000 C   0  0  0  0  0  0  0  0  0  0  0  0
    2.1670   -3.7560    0.0000 O   0  0  0  0  0  0  0  0  0  0  0  0
    3.8342   -1.7635    0.0000 C   0  0  0  0  0  0  0  0  0  0  0  0
    4.0926   -0.2859    0.0000 C   0  0  0  0  0  0  0  0  0  0  0  0
    5.5014    0.2291    0.0000 C   0  0  0  0  0  0  0  0  0  0  0  0
    5.7598    1.7067    0.0000 C   0  0  0  0  0  0  0  0  0  0  0  0
    7.1687    2.2217    0.0000 O   0  0  0  0  0  0  0  0  0  0  0  0
    4.6094    2.6692    0.0000 C   0  0  0  0  0  0  0  0  0  0  0  0
    3.2006    2.1542    0.0000 C   0  0  0  0  0  0  0  0  0  0  0  0
    2.9422    0.6767    0.0000 C   0  0  0  0  0  0  0  0  0  0  0  0
    1.7918    1.6392    0.0000 C   0  0  0  0  0  0  0  0  0  0  0  0
    1.5334    0.1617    0.0000 C   0  0  0  0  0  0  0  0  0  0  0  0
    0.3830    1.1242    0.0000 C   0  0  0  0  0  0  0  0  0  0  0  0
   -1.0259    0.6093    0.0000 C   0  0  0  0  0  0  0  0  0  0  0  0
   -1.2843   -0.8683    0.0000 C   0  0  0  0  0  0  0  0  0  0  0  0
   -2.5290   -0.0313    0.0000 C   0  0  0  0  0  0  0  0  0  0  0  0
  2  1  1  6
  2  3  1  0
  3  4  1  0
  4  5  1  0
  5  6  2  0
  5  7  1  0
  2  8  1  0
  8  9  1  6
  9 10  1  0
 11 10  1  6
 11 12  1  0
 12 13  1  1
 13 14  1  1
 13 15  1  0
 16 15  1  6
 16 17  1  0
 17 18  1  0
 18 19  1  1
 18 20  1  0
 20 21  1  0
 21 22  1  0
 22 23  1  6
 22 24  1  0
 24 25  1  6
 25 26  1  0
 26 27  1  0
 27 28  1  6
 27  8  1  0
 27 11  1  0
 24 12  1  0
 22 16  1  0
M  END
>  <MS_ID>  (310) 
MS0322

>  <SMILES>  (310) 
C[C@H](CCC(=O)O)[C@H]1CC[C@H]2[C@@H]3[C@H](O)C[C@H]4C[C@H](O)CC[C@]4(C)[C@H]3CC[C@]12C

>  <Structure_dimension>  (310) 
2D

$$$$
MS0323
     RDKit          2D

 30 33  0  0  0  0  0  0  0  0999 V2000
   -4.5376    2.5976    0.0000 C   0  0  0  0  0  0  0  0  0  0  0  0
   -3.3081    1.7384    0.0000 C   0  0  0  0  0  0  0  0  0  0  0  0
   -1.9492    2.3736    0.0000 C   0  0  0  0  0  0  0  0  0  0  0  0
   -3.4374    0.2439    0.0000 C   0  0  0  0  0  0  0  0  0  0  0  0
   -4.7963   -0.3913    0.0000 C   0  0  0  0  0  0  0  0  0  0  0  0
   -6.0258    0.4679    0.0000 C   0  0  0  0  0  0  0  0  0  0  0  0
   -7.3847   -0.1673    0.0000 C   0  0  0  0  0  0  0  0  0  0  0  0
   -7.5140   -1.6617    0.0000 O   0  0  0  0  0  0  0  0  0  0  0  0
   -8.6142    0.6920    0.0000 O   0  0  0  0  0  0  0  0  0  0  0  0
   -2.2079   -0.6153    0.0000 C   0  0  0  0  0  0  0  0  0  0  0  0
   -2.1803   -2.1150    0.0000 C   0  0  0  0  0  0  0  0  0  0  0  0
   -0.7454   -2.5522    0.0000 C   0  0  0  0  0  0  0  0  0  0  0  0
    0.1138   -1.3227    0.0000 C   0  0  0  0  0  0  0  0  0  0  0  0
    1.6024   -1.1385    0.0000 C   0  0  0  0  0  0  0  0  0  0  0  0
    2.5063   -2.3356    0.0000 C   0  0  0  0  0  0  0  0  0  0  0  0
    1.9215   -3.7169    0.0000 O   0  0  0  0  0  0  0  0  0  0  0  0
    3.9949   -2.1514    0.0000 C   0  0  0  0  0  0  0  0  0  0  0  0
    4.5797   -0.7701    0.0000 C   0  0  0  0  0  0  0  0  0  0  0  0
    6.0684   -0.5859    0.0000 C   0  0  0  0  0  0  0  0  0  0  0  0
    6.6532    0.7954    0.0000 C   0  0  0  0  0  0  0  0  0  0  0  0
    8.1418    0.9796    0.0000 O   0  0  0  0  0  0  0  0  0  0  0  0
    5.7493    1.9925    0.0000 C   0  0  0  0  0  0  0  0  0  0  0  0
    4.2607    1.8083    0.0000 C   0  0  0  0  0  0  0  0  0  0  0  0
    3.6759    0.4270    0.0000 C   0  0  0  0  0  0  0  0  0  0  0  0
    2.7720    1.6241    0.0000 C   0  0  0  0  0  0  0  0  0  0  0  0
    2.1872    0.2428    0.0000 C   0  0  0  0  0  0  0  0  0  0  0  0
    1.2834    1.4399    0.0000 C   0  0  0  0  0  0  0  0  0  0  0  0
   -0.2053    1.2557    0.0000 C   0  0  0  0  0  0  0  0  0  0  0  0
   -0.7901   -0.1256    0.0000 C   0  0  0  0  0  0  0  0  0  0  0  0
   -1.8141    0.9705    0.0000 C   0  0  0  0  0  0  0  0  0  0  0  0
  1  2  1  0
  2  3  1  0
  2  4  1  0
  4  5  1  1
  5  6  1  0
  6  7  1  0
  7  8  2  0
  7  9  1  0
  4 10  1  0
 10 11  1  6
 11 12  1  0
 13 12  1  6
 13 14  1  0
 14 15  1  1
 15 16  1  6
 15 17  1  0
 18 17  1  1
 18 19  1  0
 19 20  1  0
 20 21  1  1
 20 22  1  0
 22 23  1  0
 23 24  1  0
 24 25  1  6
 24 26  1  0
 26 27  1  6
 27 28  1  0
 28 29  1  0
 29 30  1  6
 29 10  1  0
 29 13  1  0
 26 14  1  0
 24 18  1  0
M  END
>  <MS_ID>  (311) 
MS0323

>  <SMILES>  (311) 
CC(C)[C@H](CCC(=O)O)[C@H]1CC[C@H]2[C@@H]3[C@@H](O)C[C@@H]4C[C@H](O)CC[C@]4(C)[C@H]3CC[C@]12C

>  <Structure_dimension>  (311) 
2D

$$$$
MS0325
     RDKit          2D

 32 35  0  0  0  0  0  0  0  0999 V2000
   -4.8220    5.6731    0.0000 C   0  0  0  0  0  0  0  0  0  0  0  0
   -4.2715    4.2778    0.0000 S   0  0  0  0  0  0  0  0  0  0  0  0
   -5.2047    3.1034    0.0000 C   0  0  0  0  0  0  0  0  0  0  0  0
   -4.6543    1.7080    0.0000 O   0  0  0  0  0  0  0  0  0  0  0  0
   -5.5875    0.5337    0.0000 C   0  0  0  0  0  0  0  0  0  0  0  0
   -7.0711    0.7546    0.0000 O   0  0  0  0  0  0  0  0  0  0  0  0
   -5.0370   -0.8617    0.0000 C   0  0  0  0  0  0  0  0  0  0  0  0
   -3.5534   -1.0827    0.0000 C   0  0  0  0  0  0  0  0  0  0  0  0
   -3.0029   -2.4780    0.0000 C   0  0  0  0  0  0  0  0  0  0  0  0
   -3.9361   -3.6524    0.0000 C   0  0  0  0  0  0  0  0  0  0  0  0
   -1.5193   -2.6990    0.0000 C   0  0  0  0  0  0  0  0  0  0  0  0
   -0.8260   -4.0292    0.0000 C   0  0  0  0  0  0  0  0  0  0  0  0
    0.6533   -3.7809    0.0000 C   0  0  0  0  0  0  0  0  0  0  0  0
    0.8743   -2.2972    0.0000 C   0  0  0  0  0  0  0  0  0  0  0  0
    2.1247   -1.4687    0.0000 C   0  0  0  0  0  0  0  0  0  0  0  0
    3.4674   -2.1373    0.0000 C   0  0  0  0  0  0  0  0  0  0  0  0
    3.5597   -3.6345    0.0000 O   0  0  0  0  0  0  0  0  0  0  0  0
    4.7178   -1.3088    0.0000 C   0  0  0  0  0  0  0  0  0  0  0  0
    4.6255    0.1883    0.0000 C   0  0  0  0  0  0  0  0  0  0  0  0
    5.8759    1.0169    0.0000 C   0  0  0  0  0  0  0  0  0  0  0  0
    5.7836    2.5140    0.0000 C   0  0  0  0  0  0  0  0  0  0  0  0
    7.0340    3.3425    0.0000 O   0  0  0  0  0  0  0  0  0  0  0  0
    4.4409    3.1827    0.0000 C   0  0  0  0  0  0  0  0  0  0  0  0
    3.1905    2.3541    0.0000 C   0  0  0  0  0  0  0  0  0  0  0  0
    3.2828    0.8570    0.0000 C   0  0  0  0  0  0  0  0  0  0  0  0
    1.9400    1.5256    0.0000 C   0  0  0  0  0  0  0  0  0  0  0  0
    2.0324    0.0284    0.0000 C   0  0  0  0  0  0  0  0  0  0  0  0
    0.6896    0.6971    0.0000 C   0  0  0  0  0  0  0  0  0  0  0  0
   -0.5608   -0.1314    0.0000 C   0  0  0  0  0  0  0  0  0  0  0  0
   -1.9035    0.5372    0.0000 O   0  0  0  0  0  0  0  0  0  0  0  0
   -0.4685   -1.6286    0.0000 C   0  0  0  0  0  0  0  0  0  0  0  0
   -1.8737   -1.1040    0.0000 C   0  0  0  0  0  0  0  0  0  0  0  0
  1  2  1  0
  2  3  1  0
  3  4  1  0
  4  5  1  0
  5  6  2  0
  5  7  1  0
  7  8  1  0
  8  9  1  0
  9 10  1  6
  9 11  1  0
 11 12  1  6
 12 13  1  0
 14 13  1  6
 14 15  1  0
 15 16  1  1
 16 17  1  1
 16 18  1  0
 19 18  1  1
 19 20  1  0
 20 21  1  0
 21 22  1  1
 21 23  1  0
 23 24  1  0
 24 25  1  0
 25 26  1  6
 25 27  1  0
 27 28  1  6
 28 29  1  0
 29 30  1  1
 29 31  1  0
 31 32  1  6
 31 11  1  0
 31 14  1  0
 27 15  1  0
 25 19  1  0
M  END
>  <MS_ID>  (312) 
MS0325

>  <SMILES>  (312) 
CSCOC(=O)CC[C@@H](C)[C@H]1CC[C@H]2[C@@H]3[C@H](O)C[C@@H]4C[C@H](O)CC[C@]4(C)[C@H]3C[C@H](O)[C@]12C

>  <Structure_dimension>  (312) 
2D

$$$$
MS0326
     RDKit          2D

 32 35  0  0  0  0  0  0  0  0999 V2000
   -4.6321   -2.8439    0.0000 C   0  0  0  0  0  0  0  0  0  0  0  0
   -3.4960   -1.8645    0.0000 C   0  0  0  0  0  0  0  0  0  0  0  0
   -3.7761   -0.3909    0.0000 C   0  0  0  0  0  0  0  0  0  0  0  0
   -5.1923    0.1033    0.0000 C   0  0  0  0  0  0  0  0  0  0  0  0
   -5.4724    1.5769    0.0000 C   0  0  0  0  0  0  0  0  0  0  0  0
   -4.3363    2.5563    0.0000 O   0  0  0  0  0  0  0  0  0  0  0  0
   -6.8887    2.0711    0.0000 O   0  0  0  0  0  0  0  0  0  0  0  0
   -2.0797   -2.3588    0.0000 C   0  0  0  0  0  0  0  0  0  0  0  0
   -1.6471   -3.7950    0.0000 C   0  0  0  0  0  0  0  0  0  0  0  0
   -0.1475   -3.8274    0.0000 C   0  0  0  0  0  0  0  0  0  0  0  0
    0.3468   -2.4112    0.0000 C   0  0  0  0  0  0  0  0  0  0  0  0
    1.7299   -1.8308    0.0000 C   0  0  0  0  0  0  0  0  0  0  0  0
    2.9241   -2.7385    0.0000 C   0  0  0  0  0  0  0  0  0  0  0  0
    4.3073   -2.1581    0.0000 C   0  0  0  0  0  0  0  0  0  0  0  0
    4.4963   -0.6700    0.0000 C   0  0  0  0  0  0  0  0  0  0  0  0
    5.8795   -0.0896    0.0000 C   0  0  0  0  0  0  0  0  0  0  0  0
    6.0684    1.3984    0.0000 C   0  0  0  0  0  0  0  0  0  0  0  0
    7.4516    1.9788    0.0000 O   0  0  0  0  0  0  0  0  0  0  0  0
    4.8742    2.3061    0.0000 C   0  0  0  0  0  0  0  0  0  0  0  0
    3.4910    1.7257    0.0000 C   0  0  0  0  0  0  0  0  0  0  0  0
    3.3021    0.2376    0.0000 C   0  0  0  0  0  0  0  0  0  0  0  0
    2.1079    1.1453    0.0000 C   0  0  0  0  0  0  0  0  0  0  0  0
    1.9189   -0.3427    0.0000 C   0  0  0  0  0  0  0  0  0  0  0  0
    0.7247    0.5649    0.0000 C   0  0  0  0  0  0  0  0  0  0  0  0
   -0.6585   -0.0154    0.0000 C   0  0  0  0  0  0  0  0  0  0  0  0
   -1.8527    0.8922    0.0000 O   0  0  0  0  0  0  0  0  0  0  0  0
   -1.6637    2.3803    0.0000 S   0  0  0  0  0  0  0  0  0  0  0  0
   -0.1757    2.1913    0.0000 O   0  0  0  0  0  0  0  0  0  0  0  0
   -3.1518    2.5693    0.0000 O   0  0  0  0  0  0  0  0  0  0  0  0
   -1.4748    3.8683    0.0000 O   0  0  0  0  0  0  0  0  0  0  0  0
   -0.8474   -1.5035    0.0000 C   0  0  0  0  0  0  0  0  0  0  0  0
   -2.1300   -0.7256    0.0000 C   0  0  0  0  0  0  0  0  0  0  0  0
  2  1  1  6
  2  3  1  0
  3  4  1  0
  4  5  1  0
  5  6  2  0
  5  7  1  0
  2  8  1  0
  8  9  1  6
  9 10  1  0
 11 10  1  6
 11 12  1  0
 12 13  1  1
 13 14  1  0
 15 14  1  1
 15 16  1  0
 16 17  1  0
 17 18  2  0
 17 19  1  0
 19 20  1  0
 20 21  1  0
 21 22  1  6
 21 23  1  0
 23 24  1  6
 24 25  1  0
 25 26  1  1
 26 27  1  0
 27 28  2  0
 27 29  2  0
 27 30  1  0
 25 31  1  0
 31 32  1  6
 31  8  1  0
 31 11  1  0
 23 12  1  0
 21 15  1  0
M  END
>  <MS_ID>  (313) 
MS0326

>  <SMILES>  (313) 
C[C@H](CCC(=O)O)[C@H]1CC[C@H]2[C@@H]3CC[C@@H]4CC(=O)CC[C@]4(C)[C@H]3C[C@H](OS(=O)(=O)O)[C@]12C

>  <Structure_dimension>  (313) 
2D

$$$$
MS0327
     RDKit          2D

 30 33  0  0  0  0  0  0  0  0999 V2000
   -4.7023   -2.6242    0.0000 C   0  0  0  0  0  0  0  0  0  0  0  0
   -3.5985   -1.6085    0.0000 C   0  0  0  0  0  0  0  0  0  0  0  0
   -3.9263   -0.1448    0.0000 C   0  0  0  0  0  0  0  0  0  0  0  0
   -5.3578    0.3033    0.0000 C   0  0  0  0  0  0  0  0  0  0  0  0
   -5.6855    1.7670    0.0000 C   0  0  0  0  0  0  0  0  0  0  0  0
   -7.1171    2.2151    0.0000 O   0  0  0  0  0  0  0  0  0  0  0  0
   -4.5818    2.7827    0.0000 O   0  0  0  0  0  0  0  0  0  0  0  0
   -4.9095    4.2465    0.0000 O   0  0  0  0  0  0  0  0  0  0  0  0
   -2.1670   -2.0566    0.0000 C   0  0  0  0  0  0  0  0  0  0  0  0
   -1.6881   -3.4780    0.0000 C   0  0  0  0  0  0  0  0  0  0  0  0
   -0.1881   -3.4618    0.0000 C   0  0  0  0  0  0  0  0  0  0  0  0
    0.2599   -2.0303    0.0000 C   0  0  0  0  0  0  0  0  0  0  0  0
    1.6235   -1.4054    0.0000 C   0  0  0  0  0  0  0  0  0  0  0  0
    2.8465   -2.2738    0.0000 C   0  0  0  0  0  0  0  0  0  0  0  0
    2.7059   -3.7672    0.0000 O   0  0  0  0  0  0  0  0  0  0  0  0
    4.2102   -1.6489    0.0000 C   0  0  0  0  0  0  0  0  0  0  0  0
    4.3508   -0.1555    0.0000 C   0  0  0  0  0  0  0  0  0  0  0  0
    5.7144    0.4694    0.0000 C   0  0  0  0  0  0  0  0  0  0  0  0
    5.8550    1.9628    0.0000 C   0  0  0  0  0  0  0  0  0  0  0  0
    7.2187    2.5877    0.0000 O   0  0  0  0  0  0  0  0  0  0  0  0
    4.6320    2.8313    0.0000 C   0  0  0  0  0  0  0  0  0  0  0  0
    3.2684    2.2063    0.0000 C   0  0  0  0  0  0  0  0  0  0  0  0
    3.1278    0.7130    0.0000 C   0  0  0  0  0  0  0  0  0  0  0  0
    1.9048    1.5814    0.0000 C   0  0  0  0  0  0  0  0  0  0  0  0
    1.7642    0.0880    0.0000 C   0  0  0  0  0  0  0  0  0  0  0  0
    0.5411    0.9565    0.0000 C   0  0  0  0  0  0  0  0  0  0  0  0
   -0.8225    0.3316    0.0000 C   0  0  0  0  0  0  0  0  0  0  0  0
   -2.0455    1.2001    0.0000 O   0  0  0  0  0  0  0  0  0  0  0  0
   -0.9631   -1.1618    0.0000 C   0  0  0  0  0  0  0  0  0  0  0  0
   -2.2702   -0.4259    0.0000 C   0  0  0  0  0  0  0  0  0  0  0  0
  2  1  1  6
  2  3  1  0
  3  4  1  0
  4  5  1  0
  5  6  2  0
  5  7  1  0
  7  8  1  0
  2  9  1  0
  9 10  1  6
 10 11  1  0
 12 11  1  6
 12 13  1  0
 13 14  1  1
 14 15  1  1
 14 16  1  0
 17 16  1  1
 17 18  1  0
 18 19  1  0
 19 20  1  1
 19 21  1  0
 21 22  1  0
 22 23  1  0
 23 24  1  6
 23 25  1  0
 25 26  1  6
 26 27  1  0
 27 28  1  1
 27 29  1  0
 29 30  1  6
 29  9  1  0
 29 12  1  0
 25 13  1  0
 23 17  1  0
M  END
>  <MS_ID>  (314) 
MS0327

>  <SMILES>  (314) 
C[C@H](CCC(=O)OO)[C@H]1CC[C@H]2[C@@H]3[C@H](O)C[C@@H]4C[C@H](O)CC[C@]4(C)[C@H]3C[C@H](O)[C@]12C

>  <Structure_dimension>  (314) 
2D

$$$$
MS0329
     RDKit          2D

 32 35  0  0  0  0  0  0  0  0999 V2000
   -2.6627   -3.7242    0.0000 C   0  0  0  0  0  0  0  0  0  0  0  0
   -1.8528   -2.4616    0.0000 C   0  0  0  0  0  0  0  0  0  0  0  0
   -2.5413   -1.1289    0.0000 C   0  0  0  0  0  0  0  0  0  0  0  0
   -4.0396   -1.0588    0.0000 C   0  0  0  0  0  0  0  0  0  0  0  0
   -4.7281    0.2738    0.0000 C   0  0  0  0  0  0  0  0  0  0  0  0
   -3.9182    1.5364    0.0000 O   0  0  0  0  0  0  0  0  0  0  0  0
   -6.2265    0.3439    0.0000 C   0  0  0  0  0  0  0  0  0  0  0  0
   -6.9150    1.6766    0.0000 C   0  0  0  0  0  0  0  0  0  0  0  0
   -8.4133    1.7467    0.0000 C   0  0  0  0  0  0  0  0  0  0  0  0
   -9.2232    0.4841    0.0000 O   0  0  0  0  0  0  0  0  0  0  0  0
   -9.1018    3.0794    0.0000 O   0  0  0  0  0  0  0  0  0  0  0  0
   -0.3544   -2.5317    0.0000 C   0  0  0  0  0  0  0  0  0  0  0  0
    0.4696   -3.7851    0.0000 C   0  0  0  0  0  0  0  0  0  0  0  0
    1.9163   -3.3887    0.0000 C   0  0  0  0  0  0  0  0  0  0  0  0
    1.9864   -1.8904    0.0000 C   0  0  0  0  0  0  0  0  0  0  0  0
    3.1468   -0.9399    0.0000 C   0  0  0  0  0  0  0  0  0  0  0  0
    4.5501   -1.4695    0.0000 C   0  0  0  0  0  0  0  0  0  0  0  0
    4.7931   -2.9497    0.0000 O   0  0  0  0  0  0  0  0  0  0  0  0
    5.7105   -0.5190    0.0000 C   0  0  0  0  0  0  0  0  0  0  0  0
    5.4676    0.9612    0.0000 C   0  0  0  0  0  0  0  0  0  0  0  0
    6.6280    1.9117    0.0000 C   0  0  0  0  0  0  0  0  0  0  0  0
    6.3850    3.3919    0.0000 C   0  0  0  0  0  0  0  0  0  0  0  0
    4.9816    3.9216    0.0000 C   0  0  0  0  0  0  0  0  0  0  0  0
    3.8212    2.9710    0.0000 C   0  0  0  0  0  0  0  0  0  0  0  0
    4.0642    1.4909    0.0000 C   0  0  0  0  0  0  0  0  0  0  0  0
    2.6608    2.0205    0.0000 C   0  0  0  0  0  0  0  0  0  0  0  0
    2.9038    0.5403    0.0000 C   0  0  0  0  0  0  0  0  0  0  0  0
    1.5004    1.0700    0.0000 C   0  0  0  0  0  0  0  0  0  0  0  0
    0.3400    0.1195    0.0000 C   0  0  0  0  0  0  0  0  0  0  0  0
   -1.0633    0.6492    0.0000 O   0  0  0  0  0  0  0  0  0  0  0  0
    0.5830   -1.3607    0.0000 C   0  0  0  0  0  0  0  0  0  0  0  0
   -0.8681   -0.9806    0.0000 C   0  0  0  0  0  0  0  0  0  0  0  0
  2  1  1  6
  2  3  1  0
  3  4  1  0
  4  5  1  0
  5  6  2  0
  5  7  1  0
  7  8  1  0
  8  9  1  0
  9 10  2  0
  9 11  1  0
  2 12  1  0
 12 13  1  6
 13 14  1  0
 15 14  1  6
 15 16  1  0
 16 17  1  1
 17 18  1  6
 17 19  1  0
 20 19  1  1
 20 21  1  0
 21 22  1  0
 22 23  1  0
 23 24  1  0
 24 25  1  0
 25 26  1  6
 25 27  1  0
 27 28  1  6
 28 29  1  0
 29 30  1  1
 29 31  1  0
 31 32  1  6
 31 12  1  0
 31 15  1  0
 27 16  1  0
 25 20  1  0
M  END
>  <MS_ID>  (315) 
MS0329

>  <SMILES>  (315) 
C[C@H](CCC(=O)CCC(=O)O)[C@H]1CC[C@H]2[C@@H]3[C@@H](O)C[C@@H]4CCCC[C@]4(C)[C@H]3C[C@H](O)[C@]12C

>  <Structure_dimension>  (315) 
2D

$$$$
MS0331
     RDKit          2D

 37 42  0  0  0  0  0  0  0  0999 V2000
   -1.5678   -3.9362    0.0000 C   0  0  0  0  0  0  0  0  0  0  0  0
   -0.7650   -2.6691    0.0000 C   0  0  0  0  0  0  0  0  0  0  0  0
   -1.4610   -1.3403    0.0000 C   0  0  0  0  0  0  0  0  0  0  0  0
   -2.9597   -1.2786    0.0000 C   0  0  0  0  0  0  0  0  0  0  0  0
   -3.6556    0.0502    0.0000 C   0  0  0  0  0  0  0  0  0  0  0  0
   -2.8529    1.3173    0.0000 O   0  0  0  0  0  0  0  0  0  0  0  0
   -5.1544    0.1118    0.0000 C   0  0  0  0  0  0  0  0  0  0  0  0
   -5.9571   -1.1553    0.0000 C   0  0  0  0  0  0  0  0  0  0  0  0
   -7.4559   -1.0936    0.0000 C   0  0  0  0  0  0  0  0  0  0  0  0
   -8.1518    0.2352    0.0000 C   0  0  0  0  0  0  0  0  0  0  0  0
   -9.6506    0.2969    0.0000 C   0  0  0  0  0  0  0  0  0  0  0  0
  -10.3465    1.6256    0.0000 C   0  0  0  0  0  0  0  0  0  0  0  0
   -9.5437    2.8927    0.0000 C   0  0  0  0  0  0  0  0  0  0  0  0
   -8.0450    2.8311    0.0000 C   0  0  0  0  0  0  0  0  0  0  0  0
   -7.3491    1.5023    0.0000 C   0  0  0  0  0  0  0  0  0  0  0  0
   -5.8503    1.4406    0.0000 C   0  0  0  0  0  0  0  0  0  0  0  0
    0.7337   -2.7307    0.0000 C   0  0  0  0  0  0  0  0  0  0  0  0
    1.5648   -3.9795    0.0000 C   0  0  0  0  0  0  0  0  0  0  0  0
    3.0092   -3.5750    0.0000 C   0  0  0  0  0  0  0  0  0  0  0  0
    3.0709   -2.0763    0.0000 C   0  0  0  0  0  0  0  0  0  0  0  0
    4.2259   -1.1193    0.0000 C   0  0  0  0  0  0  0  0  0  0  0  0
    5.6322   -1.6411    0.0000 C   0  0  0  0  0  0  0  0  0  0  0  0
    5.8835   -3.1199    0.0000 O   0  0  0  0  0  0  0  0  0  0  0  0
    6.7873   -0.6841    0.0000 C   0  0  0  0  0  0  0  0  0  0  0  0
    6.5360    0.7947    0.0000 C   0  0  0  0  0  0  0  0  0  0  0  0
    7.6911    1.7518    0.0000 C   0  0  0  0  0  0  0  0  0  0  0  0
    7.4398    3.2306    0.0000 C   0  0  0  0  0  0  0  0  0  0  0  0
    8.5948    4.1876    0.0000 O   0  0  0  0  0  0  0  0  0  0  0  0
    6.0335    3.7524    0.0000 C   0  0  0  0  0  0  0  0  0  0  0  0
    4.8784    2.7953    0.0000 C   0  0  0  0  0  0  0  0  0  0  0  0
    5.1297    1.3165    0.0000 C   0  0  0  0  0  0  0  0  0  0  0  0
    3.7234    1.8383    0.0000 C   0  0  0  0  0  0  0  0  0  0  0  0
    3.9746    0.3595    0.0000 C   0  0  0  0  0  0  0  0  0  0  0  0
    2.5683    0.8813    0.0000 C   0  0  0  0  0  0  0  0  0  0  0  0
    1.4133   -0.0757    0.0000 C   0  0  0  0  0  0  0  0  0  0  0  0
    1.6646   -1.5545    0.0000 C   0  0  0  0  0  0  0  0  0  0  0  0
    0.2114   -1.1826    0.0000 C   0  0  0  0  0  0  0  0  0  0  0  0
  2  1  1  6
  2  3  1  0
  3  4  1  0
  4  5  1  0
  5  6  2  0
  5  7  1  0
  7  8  2  0
  8  9  1  0
  9 10  2  0
 10 11  1  0
 11 12  2  0
 12 13  1  0
 13 14  2  0
 14 15  1  0
 15 16  2  0
  2 17  1  0
 17 18  1  6
 18 19  1  0
 20 19  1  6
 20 21  1  0
 21 22  1  1
 22 23  1  1
 22 24  1  0
 25 24  1  1
 25 26  1  0
 26 27  1  0
 27 28  1  1
 27 29  1  0
 29 30  1  0
 30 31  1  0
 31 32  1  6
 31 33  1  0
 33 34  1  6
 34 35  1  0
 35 36  1  0
 36 37  1  6
 16  7  1  0
 36 17  1  0
 15 10  1  0
 36 20  1  0
 33 21  1  0
 31 25  1  0
M  END
>  <MS_ID>  (316) 
MS0331

>  <SMILES>  (316) 
C[C@H](CCC(=O)c1ccc2ccccc2c1)[C@H]1CC[C@H]2[C@@H]3[C@H](O)C[C@@H]4C[C@H](O)CC[C@]4(C)[C@H]3CC[C@]12C

>  <Structure_dimension>  (316) 
2D

$$$$
MS0332
     RDKit          2D

 27 30  0  0  0  0  0  0  0  0999 V2000
   -4.7316   -2.2462    0.0000 C   0  0  0  0  0  0  0  0  0  0  0  0
   -3.6106   -1.2495    0.0000 C   0  0  0  0  0  0  0  0  0  0  0  0
   -3.9133    0.2196    0.0000 C   0  0  0  0  0  0  0  0  0  0  0  0
   -5.3370    0.6920    0.0000 C   0  0  0  0  0  0  0  0  0  0  0  0
   -5.6397    2.1612    0.0000 C   0  0  0  0  0  0  0  0  0  0  0  0
   -7.0634    2.6336    0.0000 O   0  0  0  0  0  0  0  0  0  0  0  0
   -4.5188    3.1579    0.0000 S   0  0  0  0  0  0  0  0  0  0  0  0
   -2.1870   -1.7219    0.0000 C   0  0  0  0  0  0  0  0  0  0  0  0
   -1.7323   -3.1514    0.0000 C   0  0  0  0  0  0  0  0  0  0  0  0
   -0.2324   -3.1607    0.0000 C   0  0  0  0  0  0  0  0  0  0  0  0
    0.2401   -1.7371    0.0000 C   0  0  0  0  0  0  0  0  0  0  0  0
    1.6141   -1.1355    0.0000 C   0  0  0  0  0  0  0  0  0  0  0  0
    2.8222   -2.0247    0.0000 C   0  0  0  0  0  0  0  0  0  0  0  0
    2.6561   -3.5155    0.0000 O   0  0  0  0  0  0  0  0  0  0  0  0
    4.1962   -1.4232    0.0000 C   0  0  0  0  0  0  0  0  0  0  0  0
    4.3623    0.0676    0.0000 C   0  0  0  0  0  0  0  0  0  0  0  0
    5.7364    0.6691    0.0000 C   0  0  0  0  0  0  0  0  0  0  0  0
    5.9025    2.1599    0.0000 C   0  0  0  0  0  0  0  0  0  0  0  0
    4.6945    3.0491    0.0000 C   0  0  0  0  0  0  0  0  0  0  0  0
    3.3204    2.4476    0.0000 C   0  0  0  0  0  0  0  0  0  0  0  0
    3.1543    0.9568    0.0000 C   0  0  0  0  0  0  0  0  0  0  0  0
    1.9463    1.8460    0.0000 C   0  0  0  0  0  0  0  0  0  0  0  0
    1.7802    0.3553    0.0000 C   0  0  0  0  0  0  0  0  0  0  0  0
    0.5722    1.2445    0.0000 C   0  0  0  0  0  0  0  0  0  0  0  0
   -0.8019    0.6429    0.0000 C   0  0  0  0  0  0  0  0  0  0  0  0
   -0.9680   -0.8478    0.0000 C   0  0  0  0  0  0  0  0  0  0  0  0
   -2.2623   -0.0897    0.0000 C   0  0  0  0  0  0  0  0  0  0  0  0
  2  1  1  6
  2  3  1  0
  3  4  1  0
  4  5  1  0
  5  6  2  0
  5  7  1  0
  2  8  1  0
  8  9  1  6
  9 10  1  0
 11 10  1  6
 11 12  1  0
 12 13  1  1
 13 14  1  1
 13 15  1  0
 16 15  1  1
 16 17  1  0
 17 18  1  0
 18 19  1  0
 19 20  1  0
 20 21  1  0
 21 22  1  6
 21 23  1  0
 23 24  1  6
 24 25  1  0
 25 26  1  0
 26 27  1  6
 26  8  1  0
 26 11  1  0
 23 12  1  0
 21 16  1  0
M  END
>  <MS_ID>  (317) 
MS0332

>  <SMILES>  (317) 
C[C@H](CCC(=O)S)[C@H]1CC[C@H]2[C@@H]3[C@H](O)C[C@@H]4CCCC[C@]4(C)[C@H]3CC[C@]12C

>  <Structure_dimension>  (317) 
2D

$$$$
MS0333
     RDKit          2D

 40 44  0  0  0  0  0  0  0  0999 V2000
   -2.0017   -4.4744    0.0000 C   0  0  0  0  0  0  0  0  0  0  0  0
   -1.5058   -3.0588    0.0000 C   0  0  0  0  0  0  0  0  0  0  0  0
   -2.4839   -1.9215    0.0000 C   0  0  0  0  0  0  0  0  0  0  0  0
   -3.9578   -2.1999    0.0000 C   0  0  0  0  0  0  0  0  0  0  0  0
   -4.9359   -1.0626    0.0000 C   0  0  0  0  0  0  0  0  0  0  0  0
   -4.4400    0.3531    0.0000 O   0  0  0  0  0  0  0  0  0  0  0  0
   -6.4098   -1.3410    0.0000 N   0  0  0  0  0  0  0  0  0  0  0  0
   -7.3878   -0.2037    0.0000 C   0  0  0  0  0  0  0  0  0  0  0  0
   -6.8920    1.2120    0.0000 C   0  0  0  0  0  0  0  0  0  0  0  0
   -7.8700    2.3493    0.0000 C   0  0  0  0  0  0  0  0  0  0  0  0
   -9.3440    2.0709    0.0000 C   0  0  0  0  0  0  0  0  0  0  0  0
  -10.3220    3.2082    0.0000 O   0  0  0  0  0  0  0  0  0  0  0  0
   -9.8398    0.6552    0.0000 C   0  0  0  0  0  0  0  0  0  0  0  0
   -8.8618   -0.4821    0.0000 C   0  0  0  0  0  0  0  0  0  0  0  0
   -0.0319   -2.7804    0.0000 C   0  0  0  0  0  0  0  0  0  0  0  0
    1.0597   -3.8092    0.0000 C   0  0  0  0  0  0  0  0  0  0  0  0
    2.3755   -3.0890    0.0000 C   0  0  0  0  0  0  0  0  0  0  0  0
    2.0971   -1.6151    0.0000 C   0  0  0  0  0  0  0  0  0  0  0  0
    3.0062   -0.4219    0.0000 C   0  0  0  0  0  0  0  0  0  0  0  0
    4.4940   -0.6126    0.0000 C   0  0  0  0  0  0  0  0  0  0  0  0
    5.0728   -1.9965    0.0000 O   0  0  0  0  0  0  0  0  0  0  0  0
    6.5606   -2.1872    0.0000 S   0  0  0  0  0  0  0  0  0  0  0  0
    6.7513   -0.6994    0.0000 O   0  0  0  0  0  0  0  0  0  0  0  0
    6.3699   -3.6750    0.0000 O   0  0  0  0  0  0  0  0  0  0  0  0
    8.0484   -2.3779    0.0000 O   0  0  0  0  0  0  0  0  0  0  0  0
    5.4031    0.5805    0.0000 C   0  0  0  0  0  0  0  0  0  0  0  0
    4.8244    1.9643    0.0000 C   0  0  0  0  0  0  0  0  0  0  0  0
    5.7334    3.1575    0.0000 C   0  0  0  0  0  0  0  0  0  0  0  0
    5.1547    4.5413    0.0000 C   0  0  0  0  0  0  0  0  0  0  0  0
    6.0638    5.7345    0.0000 O   0  0  0  0  0  0  0  0  0  0  0  0
    3.6669    4.7321    0.0000 C   0  0  0  0  0  0  0  0  0  0  0  0
    2.7578    3.5389    0.0000 C   0  0  0  0  0  0  0  0  0  0  0  0
    3.3365    2.1551    0.0000 C   0  0  0  0  0  0  0  0  0  0  0  0
    1.8487    2.3458    0.0000 C   0  0  0  0  0  0  0  0  0  0  0  0
    2.4275    0.9619    0.0000 C   0  0  0  0  0  0  0  0  0  0  0  0
    0.9396    1.1527    0.0000 C   0  0  0  0  0  0  0  0  0  0  0  0
    0.0305   -0.0405    0.0000 C   0  0  0  0  0  0  0  0  0  0  0  0
   -1.4573    0.1502    0.0000 O   0  0  0  0  0  0  0  0  0  0  0  0
    0.6093   -1.4243    0.0000 C   0  0  0  0  0  0  0  0  0  0  0  0
   -0.8903   -1.3902    0.0000 C   0  0  0  0  0  0  0  0  0  0  0  0
  2  1  1  6
  2  3  1  0
  3  4  1  0
  4  5  1  0
  5  6  2  0
  5  7  1  0
  7  8  1  0
  8  9  2  0
  9 10  1  0
 10 11  2  0
 11 12  1  0
 11 13  1  0
 13 14  2  0
  2 15  1  0
 15 16  1  6
 16 17  1  0
 18 17  1  6
 18 19  1  0
 19 20  1  1
 20 21  1  1
 21 22  1  0
 22 23  2  0
 22 24  2  0
 22 25  1  0
 20 26  1  0
 27 26  1  1
 27 28  1  0
 28 29  1  0
 29 30  1  1
 29 31  1  0
 31 32  1  0
 32 33  1  0
 33 34  1  6
 33 35  1  0
 35 36  1  6
 36 37  1  0
 37 38  1  1
 37 39  1  0
 39 40  1  6
 14  8  1  0
 39 15  1  0
 39 18  1  0
 35 19  1  0
 33 27  1  0
M  END
>  <MS_ID>  (318) 
MS0333

>  <SMILES>  (318) 
C[C@H](CCC(=O)Nc1ccc(O)cc1)[C@H]1CC[C@H]2[C@@H]3[C@H](OS(=O)(=O)O)C[C@@H]4C[C@H](O)CC[C@]4(C)[C@H]3C[C@H](O)[C@]12C

>  <Structure_dimension>  (318) 
2D

$$$$
MS0334
     RDKit          2D

 37 41  0  0  0  0  0  0  0  0999 V2000
   -0.7249   -4.9136    0.0000 C   0  0  0  0  0  0  0  0  0  0  0  0
   -0.2239   -3.4997    0.0000 C   0  0  0  0  0  0  0  0  0  0  0  0
   -1.1979   -2.3589    0.0000 C   0  0  0  0  0  0  0  0  0  0  0  0
   -2.6728   -2.6320    0.0000 C   0  0  0  0  0  0  0  0  0  0  0  0
   -3.6468   -1.4912    0.0000 C   0  0  0  0  0  0  0  0  0  0  0  0
   -3.1458   -0.0773    0.0000 O   0  0  0  0  0  0  0  0  0  0  0  0
   -5.1217   -1.7643    0.0000 N   0  0  0  0  0  0  0  0  0  0  0  0
   -6.0957   -0.6235    0.0000 C   0  0  0  0  0  0  0  0  0  0  0  0
   -5.5947    0.7904    0.0000 C   0  0  0  0  0  0  0  0  0  0  0  0
   -6.5687    1.9312    0.0000 C   0  0  0  0  0  0  0  0  0  0  0  0
   -8.0436    1.6581    0.0000 C   0  0  0  0  0  0  0  0  0  0  0  0
   -9.0175    2.7989    0.0000 N   0  0  0  0  0  0  0  0  0  0  0  0
  -10.4925    2.5258    0.0000 O   0  0  0  0  0  0  0  0  0  0  0  0
   -8.5166    4.2128    0.0000 O   0  0  0  0  0  0  0  0  0  0  0  0
   -8.5446    0.2442    0.0000 C   0  0  0  0  0  0  0  0  0  0  0  0
   -7.5706   -0.8966    0.0000 C   0  0  0  0  0  0  0  0  0  0  0  0
    1.2510   -3.2266    0.0000 C   0  0  0  0  0  0  0  0  0  0  0  0
    2.3389   -4.2594    0.0000 C   0  0  0  0  0  0  0  0  0  0  0  0
    3.6572   -3.5439    0.0000 C   0  0  0  0  0  0  0  0  0  0  0  0
    3.3842   -2.0689    0.0000 C   0  0  0  0  0  0  0  0  0  0  0  0
    4.2975   -0.8791    0.0000 C   0  0  0  0  0  0  0  0  0  0  0  0
    5.7847   -1.0751    0.0000 C   0  0  0  0  0  0  0  0  0  0  0  0
    6.3584   -2.4611    0.0000 O   0  0  0  0  0  0  0  0  0  0  0  0
    6.6980    0.1147    0.0000 C   0  0  0  0  0  0  0  0  0  0  0  0
    6.1243    1.5006    0.0000 C   0  0  0  0  0  0  0  0  0  0  0  0
    7.0376    2.6905    0.0000 C   0  0  0  0  0  0  0  0  0  0  0  0
    6.4639    4.0764    0.0000 C   0  0  0  0  0  0  0  0  0  0  0  0
    7.3772    5.2663    0.0000 O   0  0  0  0  0  0  0  0  0  0  0  0
    4.9767    4.2725    0.0000 C   0  0  0  0  0  0  0  0  0  0  0  0
    4.0634    3.0826    0.0000 C   0  0  0  0  0  0  0  0  0  0  0  0
    4.6371    1.6967    0.0000 C   0  0  0  0  0  0  0  0  0  0  0  0
    3.1500    1.8928    0.0000 C   0  0  0  0  0  0  0  0  0  0  0  0
    3.7238    0.5068    0.0000 C   0  0  0  0  0  0  0  0  0  0  0  0
    2.2366    0.7029    0.0000 C   0  0  0  0  0  0  0  0  0  0  0  0
    1.3233   -0.4869    0.0000 C   0  0  0  0  0  0  0  0  0  0  0  0
    1.8970   -1.8729    0.0000 C   0  0  0  0  0  0  0  0  0  0  0  0
    0.3975   -1.8333    0.0000 C   0  0  0  0  0  0  0  0  0  0  0  0
  2  1  1  6
  2  3  1  0
  3  4  1  0
  4  5  1  0
  5  6  2  0
  5  7  1  0
  7  8  1  0
  8  9  2  0
  9 10  1  0
 10 11  2  0
 11 12  1  0
 12 13  2  0
 12 14  1  0
 11 15  1  0
 15 16  2  0
  2 17  1  0
 17 18  1  6
 18 19  1  0
 20 19  1  6
 20 21  1  0
 21 22  1  1
 22 23  1  1
 22 24  1  0
 25 24  1  1
 25 26  1  0
 26 27  1  0
 27 28  1  1
 27 29  1  0
 29 30  1  0
 30 31  1  0
 31 32  1  6
 31 33  1  0
 33 34  1  6
 34 35  1  0
 35 36  1  0
 36 37  1  6
 16  8  1  0
 36 17  1  0
 36 20  1  0
 33 21  1  0
 31 25  1  0
M  CHG  2  12   1  14  -1
M  END
>  <MS_ID>  (319) 
MS0334

>  <SMILES>  (319) 
C[C@H](CCC(=O)Nc1ccc([N+](=O)[O-])cc1)[C@H]1CC[C@H]2[C@@H]3[C@H](O)C[C@@H]4C[C@H](O)CC[C@]4(C)[C@H]3CC[C@]12C

>  <Structure_dimension>  (319) 
2D

$$$$
MS0335
     RDKit          2D

 32 35  0  0  0  0  0  0  0  0999 V2000
   -3.4546   -3.6059    0.0000 C   0  0  0  0  0  0  0  0  0  0  0  0
   -2.5561   -2.4048    0.0000 C   0  0  0  0  0  0  0  0  0  0  0  0
   -3.1471   -1.0261    0.0000 C   0  0  0  0  0  0  0  0  0  0  0  0
   -4.6366   -0.8486    0.0000 C   0  0  0  0  0  0  0  0  0  0  0  0
   -5.2276    0.5301    0.0000 C   0  0  0  0  0  0  0  0  0  0  0  0
   -4.3291    1.7312    0.0000 O   0  0  0  0  0  0  0  0  0  0  0  0
   -6.7170    0.7076    0.0000 N   0  0  0  0  0  0  0  0  0  0  0  0
   -7.3080    2.0863    0.0000 C   0  0  0  0  0  0  0  0  0  0  0  0
   -8.7975    2.2638    0.0000 C   0  0  0  0  0  0  0  0  0  0  0  0
   -9.3885    3.6424    0.0000 O   0  0  0  0  0  0  0  0  0  0  0  0
   -1.0667   -2.5823    0.0000 C   0  0  0  0  0  0  0  0  0  0  0  0
   -0.3348   -3.8917    0.0000 C   0  0  0  0  0  0  0  0  0  0  0  0
    1.1366   -3.6002    0.0000 C   0  0  0  0  0  0  0  0  0  0  0  0
    1.3141   -2.1108    0.0000 C   0  0  0  0  0  0  0  0  0  0  0  0
    2.5398   -1.2460    0.0000 C   0  0  0  0  0  0  0  0  0  0  0  0
    3.9015   -1.8751    0.0000 C   0  0  0  0  0  0  0  0  0  0  0  0
    4.0375   -3.3690    0.0000 O   0  0  0  0  0  0  0  0  0  0  0  0
    5.1272   -1.0104    0.0000 C   0  0  0  0  0  0  0  0  0  0  0  0
    4.9911    0.4834    0.0000 C   0  0  0  0  0  0  0  0  0  0  0  0
    6.2168    1.3481    0.0000 C   0  0  0  0  0  0  0  0  0  0  0  0
    6.0808    2.8419    0.0000 C   0  0  0  0  0  0  0  0  0  0  0  0
    7.3064    3.7067    0.0000 O   0  0  0  0  0  0  0  0  0  0  0  0
    4.7191    3.4710    0.0000 C   0  0  0  0  0  0  0  0  0  0  0  0
    3.4934    2.6063    0.0000 C   0  0  0  0  0  0  0  0  0  0  0  0
    3.6294    1.1125    0.0000 C   0  0  0  0  0  0  0  0  0  0  0  0
    2.2677    1.7416    0.0000 C   0  0  0  0  0  0  0  0  0  0  0  0
    2.4038    0.2478    0.0000 C   0  0  0  0  0  0  0  0  0  0  0  0
    1.0421    0.8769    0.0000 C   0  0  0  0  0  0  0  0  0  0  0  0
   -0.1836    0.0122    0.0000 C   0  0  0  0  0  0  0  0  0  0  0  0
   -1.5453    0.6413    0.0000 O   0  0  0  0  0  0  0  0  0  0  0  0
   -0.0476   -1.4817    0.0000 C   0  0  0  0  0  0  0  0  0  0  0  0
   -1.4676   -0.9983    0.0000 C   0  0  0  0  0  0  0  0  0  0  0  0
  2  1  1  6
  2  3  1  0
  3  4  1  0
  4  5  1  0
  5  6  2  0
  5  7  1  0
  7  8  1  0
  8  9  1  0
  9 10  1  0
  2 11  1  0
 11 12  1  6
 12 13  1  0
 14 13  1  6
 14 15  1  0
 15 16  1  1
 16 17  1  1
 16 18  1  0
 19 18  1  1
 19 20  1  0
 20 21  1  0
 21 22  1  1
 21 23  1  0
 23 24  1  0
 24 25  1  0
 25 26  1  6
 25 27  1  0
 27 28  1  6
 28 29  1  0
 29 30  1  1
 29 31  1  0
 31 32  1  6
 31 11  1  0
 31 14  1  0
 27 15  1  0
 25 19  1  0
M  END
>  <MS_ID>  (320) 
MS0335

>  <SMILES>  (320) 
C[C@H](CCC(=O)NCCO)[C@H]1CC[C@H]2[C@@H]3[C@H](O)C[C@@H]4C[C@H](O)CC[C@]4(C)[C@H]3C[C@H](O)[C@]12C

>  <Structure_dimension>  (320) 
2D

$$$$
MS0336
     RDKit          2D

 31 34  0  0  0  0  0  0  0  0999 V2000
   -8.8672    3.1400    0.0000 C   0  0  0  0  0  0  0  0  0  0  0  0
   -7.3980    2.8376    0.0000 C   0  0  0  0  0  0  0  0  0  0  0  0
   -6.9253    1.4140    0.0000 O   0  0  0  0  0  0  0  0  0  0  0  0
   -5.4561    1.1115    0.0000 C   0  0  0  0  0  0  0  0  0  0  0  0
   -4.4596    2.2326    0.0000 O   0  0  0  0  0  0  0  0  0  0  0  0
   -4.9835   -0.3121    0.0000 C   0  0  0  0  0  0  0  0  0  0  0  0
   -3.5143   -0.6145    0.0000 C   0  0  0  0  0  0  0  0  0  0  0  0
   -3.0416   -2.0381    0.0000 C   0  0  0  0  0  0  0  0  0  0  0  0
   -4.0382   -3.1592    0.0000 C   0  0  0  0  0  0  0  0  0  0  0  0
   -1.5724   -2.3406    0.0000 C   0  0  0  0  0  0  0  0  0  0  0  0
   -0.9536   -3.7070    0.0000 C   0  0  0  0  0  0  0  0  0  0  0  0
    0.5372   -3.5406    0.0000 C   0  0  0  0  0  0  0  0  0  0  0  0
    0.8396   -2.0714    0.0000 C   0  0  0  0  0  0  0  0  0  0  0  0
    2.1338   -1.3131    0.0000 C   0  0  0  0  0  0  0  0  0  0  0  0
    3.4377   -2.0548    0.0000 C   0  0  0  0  0  0  0  0  0  0  0  0
    3.4473   -3.5547    0.0000 O   0  0  0  0  0  0  0  0  0  0  0  0
    4.7319   -1.2965    0.0000 C   0  0  0  0  0  0  0  0  0  0  0  0
    4.7223    0.2035    0.0000 C   0  0  0  0  0  0  0  0  0  0  0  0
    6.0165    0.9618    0.0000 C   0  0  0  0  0  0  0  0  0  0  0  0
    6.0069    2.4618    0.0000 C   0  0  0  0  0  0  0  0  0  0  0  0
    7.3011    3.2201    0.0000 O   0  0  0  0  0  0  0  0  0  0  0  0
    4.7030    3.2034    0.0000 C   0  0  0  0  0  0  0  0  0  0  0  0
    3.4088    2.4451    0.0000 C   0  0  0  0  0  0  0  0  0  0  0  0
    3.4184    0.9452    0.0000 C   0  0  0  0  0  0  0  0  0  0  0  0
    2.1146    1.6868    0.0000 C   0  0  0  0  0  0  0  0  0  0  0  0
    2.1242    0.1869    0.0000 C   0  0  0  0  0  0  0  0  0  0  0  0
    0.8204    0.9285    0.0000 C   0  0  0  0  0  0  0  0  0  0  0  0
   -0.4738    0.1702    0.0000 C   0  0  0  0  0  0  0  0  0  0  0  0
   -1.7776    0.9119    0.0000 O   0  0  0  0  0  0  0  0  0  0  0  0
   -0.4642   -1.3298    0.0000 C   0  0  0  0  0  0  0  0  0  0  0  0
   -1.8384   -0.7284    0.0000 C   0  0  0  0  0  0  0  0  0  0  0  0
  1  2  1  0
  2  3  1  0
  3  4  1  0
  4  5  2  0
  4  6  1  0
  6  7  1  0
  7  8  1  0
  8  9  1  6
  8 10  1  0
 10 11  1  6
 11 12  1  0
 13 12  1  6
 13 14  1  0
 14 15  1  1
 15 16  1  1
 15 17  1  0
 18 17  1  6
 18 19  1  0
 19 20  1  0
 20 21  1  1
 20 22  1  0
 22 23  1  0
 23 24  1  0
 24 25  1  6
 24 26  1  0
 26 27  1  6
 27 28  1  0
 28 29  1  1
 28 30  1  0
 30 31  1  6
 30 10  1  0
 30 13  1  0
 26 14  1  0
 24 18  1  0
M  END
>  <MS_ID>  (321) 
MS0336

>  <SMILES>  (321) 
CCOC(=O)CC[C@@H](C)[C@H]1CC[C@H]2[C@@H]3[C@H](O)C[C@H]4C[C@H](O)CC[C@]4(C)[C@H]3C[C@H](O)[C@]12C

>  <Structure_dimension>  (321) 
2D

$$$$
MS0337
     RDKit          2D

 33 36  0  0  0  0  0  0  0  0999 V2000
   -2.7594   -4.7056    0.0000 C   0  0  0  0  0  0  0  0  0  0  0  0
   -2.0933   -3.3616    0.0000 C   0  0  0  0  0  0  0  0  0  0  0  0
   -2.9241   -2.1127    0.0000 C   0  0  0  0  0  0  0  0  0  0  0  0
   -4.4211   -2.2078    0.0000 C   0  0  0  0  0  0  0  0  0  0  0  0
   -5.2519   -0.9589    0.0000 C   0  0  0  0  0  0  0  0  0  0  0  0
   -6.7489   -1.0540    0.0000 O   0  0  0  0  0  0  0  0  0  0  0  0
   -4.5858    0.3851    0.0000 S   0  0  0  0  0  0  0  0  0  0  0  0
   -5.4166    1.6340    0.0000 C   0  0  0  0  0  0  0  0  0  0  0  0
   -4.7504    2.9779    0.0000 C   0  0  0  0  0  0  0  0  0  0  0  0
   -5.5813    4.2268    0.0000 C   0  0  0  0  0  0  0  0  0  0  0  0
   -7.0783    4.1317    0.0000 O   0  0  0  0  0  0  0  0  0  0  0  0
   -4.9151    5.5708    0.0000 O   0  0  0  0  0  0  0  0  0  0  0  0
   -0.5963   -3.2665    0.0000 C   0  0  0  0  0  0  0  0  0  0  0  0
    0.3605   -4.4217    0.0000 C   0  0  0  0  0  0  0  0  0  0  0  0
    1.7549   -3.8687    0.0000 C   0  0  0  0  0  0  0  0  0  0  0  0
    1.6598   -2.3717    0.0000 C   0  0  0  0  0  0  0  0  0  0  0  0
    2.7086   -1.2994    0.0000 C   0  0  0  0  0  0  0  0  0  0  0  0
    4.1617   -1.6716    0.0000 C   0  0  0  0  0  0  0  0  0  0  0  0
    4.5660   -3.1161    0.0000 O   0  0  0  0  0  0  0  0  0  0  0  0
    5.2106   -0.5992    0.0000 C   0  0  0  0  0  0  0  0  0  0  0  0
    4.8064    0.8453    0.0000 C   0  0  0  0  0  0  0  0  0  0  0  0
    5.8552    1.9176    0.0000 C   0  0  0  0  0  0  0  0  0  0  0  0
    5.4510    3.3621    0.0000 C   0  0  0  0  0  0  0  0  0  0  0  0
    6.4998    4.4344    0.0000 O   0  0  0  0  0  0  0  0  0  0  0  0
    3.9979    3.7343    0.0000 C   0  0  0  0  0  0  0  0  0  0  0  0
    2.9490    2.6619    0.0000 C   0  0  0  0  0  0  0  0  0  0  0  0
    3.3533    1.2174    0.0000 C   0  0  0  0  0  0  0  0  0  0  0  0
    1.9002    1.5896    0.0000 C   0  0  0  0  0  0  0  0  0  0  0  0
    2.3044    0.1451    0.0000 C   0  0  0  0  0  0  0  0  0  0  0  0
    0.8513    0.5173    0.0000 C   0  0  0  0  0  0  0  0  0  0  0  0
   -0.1975   -0.5550    0.0000 C   0  0  0  0  0  0  0  0  0  0  0  0
    0.2067   -1.9996    0.0000 C   0  0  0  0  0  0  0  0  0  0  0  0
   -1.2773   -1.7813    0.0000 C   0  0  0  0  0  0  0  0  0  0  0  0
  2  1  1  6
  2  3  1  0
  3  4  1  0
  4  5  1  0
  5  6  2  0
  5  7  1  0
  7  8  1  0
  8  9  1  0
  9 10  1  0
 10 11  2  0
 10 12  1  0
  2 13  1  0
 13 14  1  6
 14 15  1  0
 16 15  1  6
 16 17  1  0
 17 18  1  1
 18 19  1  6
 18 20  1  0
 21 20  1  1
 21 22  1  0
 22 23  1  0
 23 24  1  1
 23 25  1  0
 25 26  1  0
 26 27  1  0
 27 28  1  6
 27 29  1  0
 29 30  1  6
 30 31  1  0
 31 32  1  0
 32 33  1  6
 32 13  1  0
 32 16  1  0
 29 17  1  0
 27 21  1  0
M  END
>  <MS_ID>  (322) 
MS0337

>  <SMILES>  (322) 
C[C@H](CCC(=O)SCCC(=O)O)[C@H]1CC[C@H]2[C@@H]3[C@@H](O)C[C@@H]4C[C@H](O)CC[C@]4(C)[C@H]3CC[C@]12C

>  <Structure_dimension>  (322) 
2D

$$$$
MS0338
     RDKit          2D

 31 34  0  0  0  0  0  0  0  0999 V2000
   -3.7132   -3.4566    0.0000 C   0  0  0  0  0  0  0  0  0  0  0  0
   -2.7767   -2.2848    0.0000 C   0  0  0  0  0  0  0  0  0  0  0  0
   -3.3232   -0.8879    0.0000 C   0  0  0  0  0  0  0  0  0  0  0  0
   -4.8062   -0.6628    0.0000 C   0  0  0  0  0  0  0  0  0  0  0  0
   -5.3527    0.7341    0.0000 C   0  0  0  0  0  0  0  0  0  0  0  0
   -4.4162    1.9059    0.0000 O   0  0  0  0  0  0  0  0  0  0  0  0
   -6.8357    0.9593    0.0000 C   0  0  0  0  0  0  0  0  0  0  0  0
   -7.3822    2.3562    0.0000 C   0  0  0  0  0  0  0  0  0  0  0  0
   -6.4457    3.5279    0.0000 O   0  0  0  0  0  0  0  0  0  0  0  0
   -8.8652    2.5814    0.0000 O   0  0  0  0  0  0  0  0  0  0  0  0
   -1.2937   -2.5100    0.0000 C   0  0  0  0  0  0  0  0  0  0  0  0
   -0.6042   -3.8421    0.0000 C   0  0  0  0  0  0  0  0  0  0  0  0
    0.8758   -3.5980    0.0000 C   0  0  0  0  0  0  0  0  0  0  0  0
    1.1010   -2.1150    0.0000 C   0  0  0  0  0  0  0  0  0  0  0  0
    2.3537   -1.2900    0.0000 C   0  0  0  0  0  0  0  0  0  0  0  0
    3.6946   -1.9624    0.0000 C   0  0  0  0  0  0  0  0  0  0  0  0
    3.7827   -3.4598    0.0000 O   0  0  0  0  0  0  0  0  0  0  0  0
    4.9473   -1.1374    0.0000 C   0  0  0  0  0  0  0  0  0  0  0  0
    4.8592    0.3600    0.0000 C   0  0  0  0  0  0  0  0  0  0  0  0
    6.1120    1.1850    0.0000 C   0  0  0  0  0  0  0  0  0  0  0  0
    6.0239    2.6824    0.0000 C   0  0  0  0  0  0  0  0  0  0  0  0
    7.2767    3.5074    0.0000 O   0  0  0  0  0  0  0  0  0  0  0  0
    4.6831    3.3548    0.0000 C   0  0  0  0  0  0  0  0  0  0  0  0
    3.4303    2.5298    0.0000 C   0  0  0  0  0  0  0  0  0  0  0  0
    3.5184    1.0324    0.0000 C   0  0  0  0  0  0  0  0  0  0  0  0
    2.1776    1.7048    0.0000 C   0  0  0  0  0  0  0  0  0  0  0  0
    2.2656    0.2074    0.0000 C   0  0  0  0  0  0  0  0  0  0  0  0
    0.9248    0.8798    0.0000 C   0  0  0  0  0  0  0  0  0  0  0  0
   -0.3279    0.0548    0.0000 C   0  0  0  0  0  0  0  0  0  0  0  0
   -0.2399   -1.4426    0.0000 C   0  0  0  0  0  0  0  0  0  0  0  0
   -1.6436   -0.9140    0.0000 C   0  0  0  0  0  0  0  0  0  0  0  0
  2  1  1  6
  2  3  1  0
  3  4  1  0
  4  5  1  0
  5  6  2  0
  5  7  1  0
  7  8  1  0
  8  9  2  0
  8 10  1  0
  2 11  1  0
 11 12  1  6
 12 13  1  0
 14 13  1  6
 14 15  1  0
 15 16  1  1
 16 17  1  6
 16 18  1  0
 19 18  1  1
 19 20  1  0
 20 21  1  0
 21 22  1  6
 21 23  1  0
 23 24  1  0
 24 25  1  0
 25 26  1  6
 25 27  1  0
 27 28  1  6
 28 29  1  0
 29 30  1  0
 30 31  1  6
 30 11  1  0
 30 14  1  0
 27 15  1  0
 25 19  1  0
M  END
>  <MS_ID>  (323) 
MS0338

>  <SMILES>  (323) 
C[C@H](CCC(=O)CC(=O)O)[C@H]1CC[C@H]2[C@@H]3[C@@H](O)C[C@@H]4C[C@@H](O)CC[C@]4(C)[C@H]3CC[C@]12C

>  <Structure_dimension>  (323) 
2D

$$$$
MS0339
     RDKit          2D

 35 38  0  0  0  0  0  0  0  0999 V2000
   -2.8263   -3.1192    0.0000 C   0  0  0  0  0  0  0  0  0  0  0  0
   -1.8262   -2.0013    0.0000 C   0  0  0  0  0  0  0  0  0  0  0  0
   -2.2943   -0.5762    0.0000 C   0  0  0  0  0  0  0  0  0  0  0  0
   -3.7626   -0.2691    0.0000 C   0  0  0  0  0  0  0  0  0  0  0  0
   -4.2307    1.1560    0.0000 C   0  0  0  0  0  0  0  0  0  0  0  0
   -3.2305    2.2740    0.0000 O   0  0  0  0  0  0  0  0  0  0  0  0
   -5.6989    1.4632    0.0000 C   0  0  0  0  0  0  0  0  0  0  0  0
   -6.0060   -0.0050    0.0000 C   0  0  0  0  0  0  0  0  0  0  0  0
   -5.3917    2.9314    0.0000 C   0  0  0  0  0  0  0  0  0  0  0  0
   -7.1671    1.7703    0.0000 O   0  0  0  0  0  0  0  0  0  0  0  0
   -8.1672    0.6524    0.0000 S   0  0  0  0  0  0  0  0  0  0  0  0
   -7.0493   -0.3477    0.0000 O   0  0  0  0  0  0  0  0  0  0  0  0
   -9.2851    1.6525    0.0000 O   0  0  0  0  0  0  0  0  0  0  0  0
   -9.1673   -0.4655    0.0000 O   0  0  0  0  0  0  0  0  0  0  0  0
   -0.3580   -2.3084    0.0000 C   0  0  0  0  0  0  0  0  0  0  0  0
    0.2565   -3.6768    0.0000 C   0  0  0  0  0  0  0  0  0  0  0  0
    1.7478   -3.5152    0.0000 C   0  0  0  0  0  0  0  0  0  0  0  0
    2.0549   -2.0470    0.0000 C   0  0  0  0  0  0  0  0  0  0  0  0
    3.3515   -1.2928    0.0000 C   0  0  0  0  0  0  0  0  0  0  0  0
    4.6530   -2.0386    0.0000 C   0  0  0  0  0  0  0  0  0  0  0  0
    4.6578   -3.5386    0.0000 O   0  0  0  0  0  0  0  0  0  0  0  0
    5.9496   -1.2845    0.0000 C   0  0  0  0  0  0  0  0  0  0  0  0
    5.9448    0.2155    0.0000 C   0  0  0  0  0  0  0  0  0  0  0  0
    7.2414    0.9697    0.0000 C   0  0  0  0  0  0  0  0  0  0  0  0
    7.2366    2.4697    0.0000 C   0  0  0  0  0  0  0  0  0  0  0  0
    8.5332    3.2238    0.0000 O   0  0  0  0  0  0  0  0  0  0  0  0
    5.9351    3.2155    0.0000 C   0  0  0  0  0  0  0  0  0  0  0  0
    4.6385    2.4613    0.0000 C   0  0  0  0  0  0  0  0  0  0  0  0
    4.6433    0.9613    0.0000 C   0  0  0  0  0  0  0  0  0  0  0  0
    3.3419    1.7072    0.0000 C   0  0  0  0  0  0  0  0  0  0  0  0
    3.3467    0.2072    0.0000 C   0  0  0  0  0  0  0  0  0  0  0  0
    2.0453    0.9530    0.0000 C   0  0  0  0  0  0  0  0  0  0  0  0
    0.7487    0.1988    0.0000 C   0  0  0  0  0  0  0  0  0  0  0  0
    0.7535   -1.3012    0.0000 C   0  0  0  0  0  0  0  0  0  0  0  0
   -0.6188   -0.6955    0.0000 C   0  0  0  0  0  0  0  0  0  0  0  0
  2  1  1  6
  2  3  1  0
  3  4  1  0
  4  5  1  0
  5  6  2  0
  5  7  1  0
  7  8  1  0
  7  9  1  0
  7 10  1  0
 10 11  1  0
 11 12  2  0
 11 13  2  0
 11 14  1  0
  2 15  1  0
 15 16  1  6
 16 17  1  0
 18 17  1  6
 18 19  1  0
 19 20  1  1
 20 21  1  1
 20 22  1  0
 23 22  1  1
 23 24  1  0
 24 25  1  0
 25 26  1  1
 25 27  1  0
 27 28  1  0
 28 29  1  0
 29 30  1  6
 29 31  1  0
 31 32  1  6
 32 33  1  0
 33 34  1  0
 34 35  1  6
 34 15  1  0
 34 18  1  0
 31 19  1  0
 29 23  1  0
M  END
>  <MS_ID>  (324) 
MS0339

>  <SMILES>  (324) 
C[C@H](CCC(=O)C(C)(C)OS(=O)(=O)O)[C@H]1CC[C@H]2[C@@H]3[C@H](O)C[C@@H]4C[C@H](O)CC[C@]4(C)[C@H]3CC[C@]12C

>  <Structure_dimension>  (324) 
2D

$$$$
MS0340
     RDKit          2D

 41 46  0  0  0  0  0  0  0  0999 V2000
    0.5910   -4.9006    0.0000 C   0  0  0  0  0  0  0  0  0  0  0  0
    1.1430   -3.5059    0.0000 C   0  0  0  0  0  0  0  0  0  0  0  0
    0.2112   -2.3305    0.0000 C   0  0  0  0  0  0  0  0  0  0  0  0
   -1.2727   -2.5498    0.0000 C   0  0  0  0  0  0  0  0  0  0  0  0
   -2.2046   -1.3743    0.0000 C   0  0  0  0  0  0  0  0  0  0  0  0
   -1.6526    0.0204    0.0000 O   0  0  0  0  0  0  0  0  0  0  0  0
   -3.6885   -1.5936    0.0000 N   0  0  0  0  0  0  0  0  0  0  0  0
   -4.6203   -0.4182    0.0000 C   0  0  0  0  0  0  0  0  0  0  0  0
   -6.1042   -0.6375    0.0000 C   0  0  0  0  0  0  0  0  0  0  0  0
   -7.0361    0.5379    0.0000 C   0  0  0  0  0  0  0  0  0  0  0  0
   -6.6328    1.9827    0.0000 C   0  0  0  0  0  0  0  0  0  0  0  0
   -7.8823    2.8127    0.0000 N   0  0  0  0  0  0  0  0  0  0  0  0
   -9.0578    1.8808    0.0000 C   0  0  0  0  0  0  0  0  0  0  0  0
  -10.5368    2.1308    0.0000 C   0  0  0  0  0  0  0  0  0  0  0  0
  -11.4928    0.9749    0.0000 C   0  0  0  0  0  0  0  0  0  0  0  0
  -10.9698   -0.4309    0.0000 C   0  0  0  0  0  0  0  0  0  0  0  0
   -9.4907   -0.6809    0.0000 C   0  0  0  0  0  0  0  0  0  0  0  0
   -8.5347    0.4750    0.0000 C   0  0  0  0  0  0  0  0  0  0  0  0
   -4.0683    0.9765    0.0000 C   0  0  0  0  0  0  0  0  0  0  0  0
   -2.5844    1.1958    0.0000 O   0  0  0  0  0  0  0  0  0  0  0  0
   -5.0002    2.1520    0.0000 O   0  0  0  0  0  0  0  0  0  0  0  0
    2.6269   -3.2866    0.0000 C   0  0  0  0  0  0  0  0  0  0  0  0
    3.6765   -4.3582    0.0000 C   0  0  0  0  0  0  0  0  0  0  0  0
    5.0200   -3.6911    0.0000 C   0  0  0  0  0  0  0  0  0  0  0  0
    4.8007   -2.2072    0.0000 C   0  0  0  0  0  0  0  0  0  0  0  0
    5.7567   -1.0513    0.0000 C   0  0  0  0  0  0  0  0  0  0  0  0
    7.2357   -1.3013    0.0000 C   0  0  0  0  0  0  0  0  0  0  0  0
    8.1917   -0.1454    0.0000 C   0  0  0  0  0  0  0  0  0  0  0  0
    7.6687    1.2605    0.0000 C   0  0  0  0  0  0  0  0  0  0  0  0
    8.6247    2.4163    0.0000 C   0  0  0  0  0  0  0  0  0  0  0  0
    8.1017    3.8222    0.0000 C   0  0  0  0  0  0  0  0  0  0  0  0
    9.0577    4.9781    0.0000 O   0  0  0  0  0  0  0  0  0  0  0  0
    6.6227    4.0722    0.0000 C   0  0  0  0  0  0  0  0  0  0  0  0
    5.6667    2.9163    0.0000 C   0  0  0  0  0  0  0  0  0  0  0  0
    6.1897    1.5104    0.0000 C   0  0  0  0  0  0  0  0  0  0  0  0
    4.7107    1.7604    0.0000 C   0  0  0  0  0  0  0  0  0  0  0  0
    5.2337    0.3546    0.0000 C   0  0  0  0  0  0  0  0  0  0  0  0
    3.7547    0.6045    0.0000 C   0  0  0  0  0  0  0  0  0  0  0  0
    2.7987   -0.5513    0.0000 C   0  0  0  0  0  0  0  0  0  0  0  0
    3.3217   -1.9572    0.0000 C   0  0  0  0  0  0  0  0  0  0  0  0
    1.8246   -1.8632    0.0000 C   0  0  0  0  0  0  0  0  0  0  0  0
  2  1  1  6
  2  3  1  0
  3  4  1  0
  4  5  1  0
  5  6  2  0
  5  7  1  0
  7  8  1  0
  8  9  1  6
  9 10  1  0
 10 11  2  0
 11 12  1  0
 12 13  1  0
 13 14  2  0
 14 15  1  0
 15 16  2  0
 16 17  1  0
 17 18  2  0
  8 19  1  0
 19 20  2  0
 19 21  1  0
  2 22  1  0
 22 23  1  6
 23 24  1  0
 25 24  1  6
 25 26  1  0
 26 27  1  1
 27 28  1  0
 29 28  1  1
 29 30  1  0
 30 31  1  0
 31 32  1  1
 31 33  1  0
 33 34  1  0
 34 35  1  0
 35 36  1  6
 35 37  1  0
 37 38  1  6
 38 39  1  0
 39 40  1  0
 40 41  1  6
 18 10  1  0
 40 22  1  0
 18 13  1  0
 40 25  1  0
 37 26  1  0
 35 29  1  0
M  END
>  <MS_ID>  (325) 
MS0340

>  <SMILES>  (325) 
C[C@H](CCC(=O)N[C@H](Cc1c[nH]c2ccccc12)C(=O)O)[C@H]1CC[C@H]2[C@@H]3CC[C@@H]4C[C@H](O)CC[C@]4(C)[C@H]3CC[C@]12C

>  <Structure_dimension>  (325) 
2D

$$$$
MS0341
     RDKit          2D

 29 32  0  0  0  0  0  0  0  0999 V2000
   -4.6551   -2.6180    0.0000 C   0  0  0  0  0  0  0  0  0  0  0  0
   -3.5633   -1.5894    0.0000 C   0  0  0  0  0  0  0  0  0  0  0  0
   -3.9081   -0.1296    0.0000 C   0  0  0  0  0  0  0  0  0  0  0  0
   -5.3448    0.3016    0.0000 C   0  0  0  0  0  0  0  0  0  0  0  0
   -5.6897    1.7615    0.0000 C   0  0  0  0  0  0  0  0  0  0  0  0
   -4.5979    2.7900    0.0000 O   0  0  0  0  0  0  0  0  0  0  0  0
   -7.1264    2.1927    0.0000 C   0  0  0  0  0  0  0  0  0  0  0  0
   -7.4712    3.6525    0.0000 O   0  0  0  0  0  0  0  0  0  0  0  0
   -2.1266   -2.0207    0.0000 C   0  0  0  0  0  0  0  0  0  0  0  0
   -1.6310   -3.4364    0.0000 C   0  0  0  0  0  0  0  0  0  0  0  0
   -0.1314   -3.4026    0.0000 C   0  0  0  0  0  0  0  0  0  0  0  0
    0.2998   -1.9659    0.0000 C   0  0  0  0  0  0  0  0  0  0  0  0
    1.6561   -1.3251    0.0000 C   0  0  0  0  0  0  0  0  0  0  0  0
    2.8892   -2.1792    0.0000 C   0  0  0  0  0  0  0  0  0  0  0  0
    2.7660   -3.6741    0.0000 O   0  0  0  0  0  0  0  0  0  0  0  0
    4.2454   -1.5383    0.0000 C   0  0  0  0  0  0  0  0  0  0  0  0
    4.3685   -0.0434    0.0000 C   0  0  0  0  0  0  0  0  0  0  0  0
    5.7247    0.5975    0.0000 C   0  0  0  0  0  0  0  0  0  0  0  0
    5.8478    2.0924    0.0000 C   0  0  0  0  0  0  0  0  0  0  0  0
    7.2040    2.7332    0.0000 O   0  0  0  0  0  0  0  0  0  0  0  0
    4.6147    2.9465    0.0000 C   0  0  0  0  0  0  0  0  0  0  0  0
    3.2585    2.3056    0.0000 C   0  0  0  0  0  0  0  0  0  0  0  0
    3.1354    0.8107    0.0000 C   0  0  0  0  0  0  0  0  0  0  0  0
    1.9023    1.6648    0.0000 C   0  0  0  0  0  0  0  0  0  0  0  0
    1.7792    0.1699    0.0000 C   0  0  0  0  0  0  0  0  0  0  0  0
    0.5461    1.0239    0.0000 C   0  0  0  0  0  0  0  0  0  0  0  0
   -0.8101    0.3831    0.0000 C   0  0  0  0  0  0  0  0  0  0  0  0
   -0.9333   -1.1118    0.0000 C   0  0  0  0  0  0  0  0  0  0  0  0
   -2.2489   -0.3913    0.0000 C   0  0  0  0  0  0  0  0  0  0  0  0
  2  1  1  6
  2  3  1  0
  3  4  1  0
  4  5  1  0
  5  6  2  0
  5  7  1  0
  7  8  1  0
  2  9  1  0
  9 10  1  6
 10 11  1  0
 12 11  1  6
 12 13  1  0
 13 14  1  1
 14 15  1  6
 14 16  1  0
 17 16  1  1
 17 18  1  0
 18 19  1  0
 19 20  1  6
 19 21  1  0
 21 22  1  0
 22 23  1  0
 23 24  1  6
 23 25  1  0
 25 26  1  6
 26 27  1  0
 27 28  1  0
 28 29  1  6
 28  9  1  0
 28 12  1  0
 25 13  1  0
 23 17  1  0
M  END
>  <MS_ID>  (326) 
MS0341

>  <SMILES>  (326) 
C[C@H](CCC(=O)CO)[C@H]1CC[C@H]2[C@@H]3[C@@H](O)C[C@@H]4C[C@@H](O)CC[C@]4(C)[C@H]3CC[C@]12C

>  <Structure_dimension>  (326) 
2D

$$$$
MS0342
     RDKit          2D

 29 32  0  0  0  0  0  0  0  0999 V2000
   -4.5534   -2.6812    0.0000 C   0  0  0  0  0  0  0  0  0  0  0  0
   -3.4378   -1.6786    0.0000 C   0  0  0  0  0  0  0  0  0  0  0  0
   -3.7483   -0.2111    0.0000 C   0  0  0  0  0  0  0  0  0  0  0  0
   -5.1744    0.2538    0.0000 C   0  0  0  0  0  0  0  0  0  0  0  0
   -5.4850    1.7213    0.0000 C   0  0  0  0  0  0  0  0  0  0  0  0
   -4.3693    2.7239    0.0000 O   0  0  0  0  0  0  0  0  0  0  0  0
   -6.9111    2.1861    0.0000 C   0  0  0  0  0  0  0  0  0  0  0  0
   -7.2216    3.6536    0.0000 O   0  0  0  0  0  0  0  0  0  0  0  0
   -2.0116   -2.1434    0.0000 C   0  0  0  0  0  0  0  0  0  0  0  0
   -1.5494   -3.5704    0.0000 C   0  0  0  0  0  0  0  0  0  0  0  0
   -0.0494   -3.5718    0.0000 C   0  0  0  0  0  0  0  0  0  0  0  0
    0.4155   -2.1456    0.0000 C   0  0  0  0  0  0  0  0  0  0  0  0
    1.7863   -1.5368    0.0000 C   0  0  0  0  0  0  0  0  0  0  0  0
    2.9990   -2.4196    0.0000 C   0  0  0  0  0  0  0  0  0  0  0  0
    4.3699   -1.8107    0.0000 C   0  0  0  0  0  0  0  0  0  0  0  0
    4.5281   -0.3191    0.0000 C   0  0  0  0  0  0  0  0  0  0  0  0
    5.8990    0.2898    0.0000 C   0  0  0  0  0  0  0  0  0  0  0  0
    6.0571    1.7814    0.0000 C   0  0  0  0  0  0  0  0  0  0  0  0
    7.4280    2.3902    0.0000 O   0  0  0  0  0  0  0  0  0  0  0  0
    4.8444    2.6642    0.0000 C   0  0  0  0  0  0  0  0  0  0  0  0
    3.4735    2.0553    0.0000 C   0  0  0  0  0  0  0  0  0  0  0  0
    3.3154    0.5637    0.0000 C   0  0  0  0  0  0  0  0  0  0  0  0
    2.1026    1.4465    0.0000 C   0  0  0  0  0  0  0  0  0  0  0  0
    1.9445   -0.0451    0.0000 C   0  0  0  0  0  0  0  0  0  0  0  0
    0.7318    0.8376    0.0000 C   0  0  0  0  0  0  0  0  0  0  0  0
   -0.6391    0.2288    0.0000 C   0  0  0  0  0  0  0  0  0  0  0  0
   -1.8518    1.1116    0.0000 O   0  0  0  0  0  0  0  0  0  0  0  0
   -0.7973   -1.2628    0.0000 C   0  0  0  0  0  0  0  0  0  0  0  0
   -2.0956   -0.5116    0.0000 C   0  0  0  0  0  0  0  0  0  0  0  0
  2  1  1  6
  2  3  1  0
  3  4  1  0
  4  5  1  0
  5  6  2  0
  5  7  1  0
  7  8  1  0
  2  9  1  0
  9 10  1  6
 10 11  1  0
 12 11  1  6
 12 13  1  0
 13 14  1  1
 14 15  1  0
 16 15  1  1
 16 17  1  0
 17 18  1  0
 18 19  2  0
 18 20  1  0
 20 21  1  0
 21 22  1  0
 22 23  1  6
 22 24  1  0
 24 25  1  6
 25 26  1  0
 26 27  1  1
 26 28  1  0
 28 29  1  6
 28  9  1  0
 28 12  1  0
 24 13  1  0
 22 16  1  0
M  END
>  <MS_ID>  (327) 
MS0342

>  <SMILES>  (327) 
C[C@H](CCC(=O)CO)[C@H]1CC[C@H]2[C@@H]3CC[C@@H]4CC(=O)CC[C@]4(C)[C@H]3C[C@H](O)[C@]12C

>  <Structure_dimension>  (327) 
2D

$$$$
MS0343
     RDKit          2D

 32 35  0  0  0  0  0  0  0  0999 V2000
  -10.8107    3.0070    0.0000 C   0  0  0  0  0  0  0  0  0  0  0  0
   -9.3127    2.9291    0.0000 O   0  0  0  0  0  0  0  0  0  0  0  0
   -8.6311    1.5929    0.0000 C   0  0  0  0  0  0  0  0  0  0  0  0
   -7.1332    1.5150    0.0000 C   0  0  0  0  0  0  0  0  0  0  0  0
   -6.4516    0.1788    0.0000 O   0  0  0  0  0  0  0  0  0  0  0  0
   -4.9536    0.1009    0.0000 C   0  0  0  0  0  0  0  0  0  0  0  0
   -4.1372    1.3592    0.0000 O   0  0  0  0  0  0  0  0  0  0  0  0
   -4.2721   -1.2353    0.0000 C   0  0  0  0  0  0  0  0  0  0  0  0
   -2.7741   -1.3132    0.0000 C   0  0  0  0  0  0  0  0  0  0  0  0
   -2.0926   -2.6494    0.0000 C   0  0  0  0  0  0  0  0  0  0  0  0
   -2.9090   -3.9078    0.0000 C   0  0  0  0  0  0  0  0  0  0  0  0
   -0.5946   -2.7273    0.0000 C   0  0  0  0  0  0  0  0  0  0  0  0
    0.2229   -3.9850    0.0000 C   0  0  0  0  0  0  0  0  0  0  0  0
    1.6716   -3.5962    0.0000 C   0  0  0  0  0  0  0  0  0  0  0  0
    1.7495   -2.0982    0.0000 C   0  0  0  0  0  0  0  0  0  0  0  0
    2.9148   -1.1537    0.0000 C   0  0  0  0  0  0  0  0  0  0  0  0
    4.3154   -1.6907    0.0000 C   0  0  0  0  0  0  0  0  0  0  0  0
    4.5507   -3.1721    0.0000 O   0  0  0  0  0  0  0  0  0  0  0  0
    5.4807   -0.7462    0.0000 C   0  0  0  0  0  0  0  0  0  0  0  0
    5.2455    0.7352    0.0000 C   0  0  0  0  0  0  0  0  0  0  0  0
    6.4108    1.6797    0.0000 C   0  0  0  0  0  0  0  0  0  0  0  0
    6.1755    3.1611    0.0000 C   0  0  0  0  0  0  0  0  0  0  0  0
    7.3408    4.1056    0.0000 O   0  0  0  0  0  0  0  0  0  0  0  0
    4.7749    3.6981    0.0000 C   0  0  0  0  0  0  0  0  0  0  0  0
    3.6096    2.7536    0.0000 C   0  0  0  0  0  0  0  0  0  0  0  0
    3.8449    1.2722    0.0000 C   0  0  0  0  0  0  0  0  0  0  0  0
    2.4443    1.8091    0.0000 C   0  0  0  0  0  0  0  0  0  0  0  0
    2.6795    0.3277    0.0000 C   0  0  0  0  0  0  0  0  0  0  0  0
    1.2789    0.8647    0.0000 C   0  0  0  0  0  0  0  0  0  0  0  0
    0.1136   -0.0798    0.0000 C   0  0  0  0  0  0  0  0  0  0  0  0
    0.3489   -1.5612    0.0000 C   0  0  0  0  0  0  0  0  0  0  0  0
   -1.1002   -1.1736    0.0000 C   0  0  0  0  0  0  0  0  0  0  0  0
  1  2  1  0
  2  3  1  0
  3  4  1  0
  4  5  1  0
  5  6  1  0
  6  7  2  0
  6  8  1  0
  8  9  1  0
  9 10  1  0
 10 11  1  6
 10 12  1  0
 12 13  1  6
 13 14  1  0
 15 14  1  6
 15 16  1  0
 16 17  1  1
 17 18  1  1
 17 19  1  0
 20 19  1  1
 20 21  1  0
 21 22  1  0
 22 23  2  0
 22 24  1  0
 24 25  1  0
 25 26  1  0
 26 27  1  6
 26 28  1  0
 28 29  1  6
 29 30  1  0
 30 31  1  0
 31 32  1  6
 31 12  1  0
 31 15  1  0
 28 16  1  0
 26 20  1  0
M  END
>  <MS_ID>  (328) 
MS0343

>  <SMILES>  (328) 
COCCOC(=O)CC[C@@H](C)[C@H]1CC[C@H]2[C@@H]3[C@H](O)C[C@@H]4CC(=O)CC[C@]4(C)[C@H]3CC[C@]12C

>  <Structure_dimension>  (328) 
2D

$$$$
MS0344
     RDKit          2D

 40 44  0  0  0  0  0  0  0  0999 V2000
   -0.3822   -4.9675    0.0000 C   0  0  0  0  0  0  0  0  0  0  0  0
    0.1406   -3.5616    0.0000 C   0  0  0  0  0  0  0  0  0  0  0  0
   -0.8156   -2.4059    0.0000 C   0  0  0  0  0  0  0  0  0  0  0  0
   -2.2946   -2.6561    0.0000 C   0  0  0  0  0  0  0  0  0  0  0  0
   -3.2508   -1.5004    0.0000 C   0  0  0  0  0  0  0  0  0  0  0  0
   -2.7280   -0.0944    0.0000 O   0  0  0  0  0  0  0  0  0  0  0  0
   -4.7298   -1.7506    0.0000 O   0  0  0  0  0  0  0  0  0  0  0  0
   -5.6860   -0.5949    0.0000 C   0  0  0  0  0  0  0  0  0  0  0  0
   -5.1632    0.8111    0.0000 O   0  0  0  0  0  0  0  0  0  0  0  0
   -6.1194    1.9668    0.0000 C   0  0  0  0  0  0  0  0  0  0  0  0
   -5.5966    3.3727    0.0000 C   0  0  0  0  0  0  0  0  0  0  0  0
   -6.5528    4.5285    0.0000 O   0  0  0  0  0  0  0  0  0  0  0  0
   -4.1176    3.6230    0.0000 O   0  0  0  0  0  0  0  0  0  0  0  0
   -7.5983    1.7166    0.0000 C   0  0  0  0  0  0  0  0  0  0  0  0
   -8.5545    2.8723    0.0000 O   0  0  0  0  0  0  0  0  0  0  0  0
   -8.1211    0.3106    0.0000 C   0  0  0  0  0  0  0  0  0  0  0  0
   -9.6001    0.0604    0.0000 O   0  0  0  0  0  0  0  0  0  0  0  0
   -7.1649   -0.8451    0.0000 C   0  0  0  0  0  0  0  0  0  0  0  0
   -7.6877   -2.2511    0.0000 O   0  0  0  0  0  0  0  0  0  0  0  0
    1.6196   -3.3114    0.0000 C   0  0  0  0  0  0  0  0  0  0  0  0
    2.6913   -4.3608    0.0000 C   0  0  0  0  0  0  0  0  0  0  0  0
    4.0206   -3.6658    0.0000 C   0  0  0  0  0  0  0  0  0  0  0  0
    3.7704   -2.1868    0.0000 C   0  0  0  0  0  0  0  0  0  0  0  0
    4.7020   -1.0112    0.0000 C   0  0  0  0  0  0  0  0  0  0  0  0
    6.1860   -1.2303    0.0000 C   0  0  0  0  0  0  0  0  0  0  0  0
    6.7382   -2.6249    0.0000 O   0  0  0  0  0  0  0  0  0  0  0  0
    7.1176   -0.0547    0.0000 C   0  0  0  0  0  0  0  0  0  0  0  0
    6.5654    1.3400    0.0000 C   0  0  0  0  0  0  0  0  0  0  0  0
    7.4970    2.5156    0.0000 C   0  0  0  0  0  0  0  0  0  0  0  0
    6.9448    3.9102    0.0000 C   0  0  0  0  0  0  0  0  0  0  0  0
    7.8764    5.0858    0.0000 O   0  0  0  0  0  0  0  0  0  0  0  0
    5.4608    4.1292    0.0000 C   0  0  0  0  0  0  0  0  0  0  0  0
    4.5292    2.9537    0.0000 C   0  0  0  0  0  0  0  0  0  0  0  0
    5.0814    1.5590    0.0000 C   0  0  0  0  0  0  0  0  0  0  0  0
    3.5975    1.7781    0.0000 C   0  0  0  0  0  0  0  0  0  0  0  0
    4.1498    0.3834    0.0000 C   0  0  0  0  0  0  0  0  0  0  0  0
    2.6659    0.6025    0.0000 C   0  0  0  0  0  0  0  0  0  0  0  0
    1.7342   -0.5731    0.0000 C   0  0  0  0  0  0  0  0  0  0  0  0
    2.2865   -1.9678    0.0000 C   0  0  0  0  0  0  0  0  0  0  0  0
    0.7878   -1.9050    0.0000 C   0  0  0  0  0  0  0  0  0  0  0  0
  2  1  1  6
  2  3  1  0
  3  4  1  0
  4  5  1  0
  5  6  2  0
  5  7  1  0
  8  7  1  1
  8  9  1  0
  9 10  1  0
 10 11  1  1
 11 12  2  0
 11 13  1  0
 10 14  1  0
 14 15  1  6
 14 16  1  0
 16 17  1  1
 16 18  1  0
 18 19  1  6
  2 20  1  0
 20 21  1  6
 21 22  1  0
 23 22  1  6
 23 24  1  0
 24 25  1  1
 25 26  1  6
 25 27  1  0
 28 27  1  1
 28 29  1  0
 29 30  1  0
 30 31  1  1
 30 32  1  0
 32 33  1  0
 33 34  1  0
 34 35  1  6
 34 36  1  0
 36 37  1  6
 37 38  1  0
 38 39  1  0
 39 40  1  6
 18  8  1  0
 39 20  1  0
 39 23  1  0
 36 24  1  0
 34 28  1  0
M  END
>  <MS_ID>  (329) 
MS0344

>  <SMILES>  (329) 
C[C@H](CCC(=O)O[C@@H]1O[C@H](C(=O)O)[C@@H](O)[C@H](O)[C@H]1O)[C@H]1CC[C@H]2[C@@H]3[C@@H](O)C[C@@H]4C[C@H](O)CC[C@]4(C)[C@H]3CC[C@]12C

>  <Structure_dimension>  (329) 
2D

$$$$
MS0346
     RDKit          2D

 32 35  0  0  0  0  0  0  0  0999 V2000
   -3.1421   -3.6694    0.0000 C   0  0  0  0  0  0  0  0  0  0  0  0
   -2.2628   -2.4541    0.0000 C   0  0  0  0  0  0  0  0  0  0  0  0
   -2.8756   -1.0850    0.0000 C   0  0  0  0  0  0  0  0  0  0  0  0
   -4.3676   -0.9311    0.0000 C   0  0  0  0  0  0  0  0  0  0  0  0
   -4.9804    0.4380    0.0000 C   0  0  0  0  0  0  0  0  0  0  0  0
   -4.1011    1.6532    0.0000 O   0  0  0  0  0  0  0  0  0  0  0  0
   -6.4725    0.5919    0.0000 C   0  0  0  0  0  0  0  0  0  0  0  0
   -7.0853    1.9610    0.0000 C   0  0  0  0  0  0  0  0  0  0  0  0
   -8.5774    2.1149    0.0000 C   0  0  0  0  0  0  0  0  0  0  0  0
   -9.4567    0.8996    0.0000 O   0  0  0  0  0  0  0  0  0  0  0  0
   -9.1901    3.4840    0.0000 O   0  0  0  0  0  0  0  0  0  0  0  0
   -0.7707   -2.6080    0.0000 C   0  0  0  0  0  0  0  0  0  0  0  0
   -0.0182   -3.9056    0.0000 C   0  0  0  0  0  0  0  0  0  0  0  0
    1.4484   -3.5909    0.0000 C   0  0  0  0  0  0  0  0  0  0  0  0
    1.6023   -2.0988    0.0000 C   0  0  0  0  0  0  0  0  0  0  0  0
    2.8141   -1.2147    0.0000 C   0  0  0  0  0  0  0  0  0  0  0  0
    4.1856   -1.8222    0.0000 C   0  0  0  0  0  0  0  0  0  0  0  0
    4.3453   -3.3136    0.0000 O   0  0  0  0  0  0  0  0  0  0  0  0
    5.3974   -0.9381    0.0000 C   0  0  0  0  0  0  0  0  0  0  0  0
    5.2377    0.5533    0.0000 C   0  0  0  0  0  0  0  0  0  0  0  0
    6.4495    1.4374    0.0000 C   0  0  0  0  0  0  0  0  0  0  0  0
    6.2898    2.9289    0.0000 C   0  0  0  0  0  0  0  0  0  0  0  0
    7.5016    3.8129    0.0000 O   0  0  0  0  0  0  0  0  0  0  0  0
    4.9183    3.5363    0.0000 C   0  0  0  0  0  0  0  0  0  0  0  0
    3.7065    2.6522    0.0000 C   0  0  0  0  0  0  0  0  0  0  0  0
    3.8662    1.1608    0.0000 C   0  0  0  0  0  0  0  0  0  0  0  0
    2.4947    1.7682    0.0000 C   0  0  0  0  0  0  0  0  0  0  0  0
    2.6544    0.2767    0.0000 C   0  0  0  0  0  0  0  0  0  0  0  0
    1.2829    0.8842    0.0000 C   0  0  0  0  0  0  0  0  0  0  0  0
    0.0711    0.0001    0.0000 C   0  0  0  0  0  0  0  0  0  0  0  0
    0.2308   -1.4914    0.0000 C   0  0  0  0  0  0  0  0  0  0  0  0
   -1.1967   -1.0306    0.0000 C   0  0  0  0  0  0  0  0  0  0  0  0
  2  1  1  6
  2  3  1  0
  3  4  1  0
  4  5  1  0
  5  6  2  0
  5  7  1  0
  7  8  1  0
  8  9  1  0
  9 10  2  0
  9 11  1  0
  2 12  1  0
 12 13  1  6
 13 14  1  0
 15 14  1  6
 15 16  1  0
 16 17  1  1
 17 18  1  6
 17 19  1  0
 20 19  1  1
 20 21  1  0
 21 22  1  0
 22 23  1  6
 22 24  1  0
 24 25  1  0
 25 26  1  0
 26 27  1  6
 26 28  1  0
 28 29  1  6
 29 30  1  0
 30 31  1  0
 31 32  1  6
 31 12  1  0
 31 15  1  0
 28 16  1  0
 26 20  1  0
M  END
>  <MS_ID>  (330) 
MS0346

>  <SMILES>  (330) 
C[C@H](CCC(=O)CCC(=O)O)[C@H]1CC[C@H]2[C@@H]3[C@@H](O)C[C@@H]4C[C@@H](O)CC[C@]4(C)[C@H]3CC[C@]12C

>  <Structure_dimension>  (330) 
2D

$$$$
MS0347
     RDKit          2D

 36 39  0  0  0  0  0  0  0  0999 V2000
   -1.7867   -5.2565    0.0000 C   0  0  0  0  0  0  0  0  0  0  0  0
   -1.3034   -3.8364    0.0000 C   0  0  0  0  0  0  0  0  0  0  0  0
   -2.2915   -2.7079    0.0000 C   0  0  0  0  0  0  0  0  0  0  0  0
   -3.7629   -2.9993    0.0000 C   0  0  0  0  0  0  0  0  0  0  0  0
   -4.7511   -1.8708    0.0000 C   0  0  0  0  0  0  0  0  0  0  0  0
   -6.2225   -2.1622    0.0000 O   0  0  0  0  0  0  0  0  0  0  0  0
   -4.2677   -0.4508    0.0000 O   0  0  0  0  0  0  0  0  0  0  0  0
   -5.2558    0.6778    0.0000 C   0  0  0  0  0  0  0  0  0  0  0  0
   -6.7273    0.3863    0.0000 O   0  0  0  0  0  0  0  0  0  0  0  0
   -4.7725    2.0978    0.0000 C   0  0  0  0  0  0  0  0  0  0  0  0
   -5.7606    3.2264    0.0000 C   0  0  0  0  0  0  0  0  0  0  0  0
   -5.2773    4.6464    0.0000 C   0  0  0  0  0  0  0  0  0  0  0  0
   -3.8059    4.9378    0.0000 O   0  0  0  0  0  0  0  0  0  0  0  0
   -6.2654    5.7749    0.0000 O   0  0  0  0  0  0  0  0  0  0  0  0
    0.1680   -3.5450    0.0000 C   0  0  0  0  0  0  0  0  0  0  0  0
    1.2686   -4.5641    0.0000 C   0  0  0  0  0  0  0  0  0  0  0  0
    2.5780   -3.8322    0.0000 C   0  0  0  0  0  0  0  0  0  0  0  0
    2.2865   -2.3608    0.0000 C   0  0  0  0  0  0  0  0  0  0  0  0
    3.1850   -1.1597    0.0000 C   0  0  0  0  0  0  0  0  0  0  0  0
    4.6745   -1.3372    0.0000 C   0  0  0  0  0  0  0  0  0  0  0  0
    5.2655   -2.7158    0.0000 O   0  0  0  0  0  0  0  0  0  0  0  0
    5.5729   -0.1360    0.0000 C   0  0  0  0  0  0  0  0  0  0  0  0
    4.9819    1.2427    0.0000 C   0  0  0  0  0  0  0  0  0  0  0  0
    5.8804    2.4438    0.0000 C   0  0  0  0  0  0  0  0  0  0  0  0
    5.2894    3.8225    0.0000 C   0  0  0  0  0  0  0  0  0  0  0  0
    6.1878    5.0236    0.0000 O   0  0  0  0  0  0  0  0  0  0  0  0
    3.7999    4.0000    0.0000 C   0  0  0  0  0  0  0  0  0  0  0  0
    2.9015    2.7988    0.0000 C   0  0  0  0  0  0  0  0  0  0  0  0
    3.4925    1.4202    0.0000 C   0  0  0  0  0  0  0  0  0  0  0  0
    2.0030    1.5977    0.0000 C   0  0  0  0  0  0  0  0  0  0  0  0
    2.5940    0.2190    0.0000 C   0  0  0  0  0  0  0  0  0  0  0  0
    1.1045    0.3965    0.0000 C   0  0  0  0  0  0  0  0  0  0  0  0
    0.2061   -0.8046    0.0000 C   0  0  0  0  0  0  0  0  0  0  0  0
   -1.2834   -0.6271    0.0000 O   0  0  0  0  0  0  0  0  0  0  0  0
    0.7971   -2.1833    0.0000 C   0  0  0  0  0  0  0  0  0  0  0  0
   -0.7028   -2.1624    0.0000 C   0  0  0  0  0  0  0  0  0  0  0  0
  2  1  1  6
  2  3  1  0
  3  4  1  0
  4  5  1  0
  5  6  2  0
  5  7  1  0
  7  8  1  0
  8  9  2  0
  8 10  1  0
 10 11  1  0
 11 12  1  0
 12 13  2  0
 12 14  1  0
  2 15  1  0
 15 16  1  6
 16 17  1  0
 18 17  1  6
 18 19  1  0
 19 20  1  1
 20 21  1  1
 20 22  1  0
 23 22  1  1
 23 24  1  0
 24 25  1  0
 25 26  1  1
 25 27  1  0
 27 28  1  0
 28 29  1  0
 29 30  1  6
 29 31  1  0
 31 32  1  6
 32 33  1  0
 33 34  1  1
 33 35  1  0
 35 36  1  6
 35 15  1  0
 35 18  1  0
 31 19  1  0
 29 23  1  0
M  END
>  <MS_ID>  (331) 
MS0347

>  <SMILES>  (331) 
C[C@H](CCC(=O)OC(=O)CCC(=O)O)[C@H]1CC[C@H]2[C@@H]3[C@H](O)C[C@@H]4C[C@H](O)CC[C@]4(C)[C@H]3C[C@H](O)[C@]12C

>  <Structure_dimension>  (331) 
2D

$$$$
MS0348
     RDKit          2D

 31 34  0  0  0  0  0  0  0  0999 V2000
   -3.0989   -3.6972    0.0000 C   0  0  0  0  0  0  0  0  0  0  0  0
   -2.1883   -2.5051    0.0000 C   0  0  0  0  0  0  0  0  0  0  0  0
   -2.7654   -1.1206    0.0000 C   0  0  0  0  0  0  0  0  0  0  0  0
   -4.2530   -0.9280    0.0000 C   0  0  0  0  0  0  0  0  0  0  0  0
   -4.8300    0.4565    0.0000 C   0  0  0  0  0  0  0  0  0  0  0  0
   -3.9195    1.6486    0.0000 O   0  0  0  0  0  0  0  0  0  0  0  0
   -6.3176    0.6491    0.0000 N   0  0  0  0  0  0  0  0  0  0  0  0
   -6.8947    2.0336    0.0000 C   0  0  0  0  0  0  0  0  0  0  0  0
   -8.3823    2.2261    0.0000 C   0  0  0  0  0  0  0  0  0  0  0  0
   -9.2928    1.0341    0.0000 O   0  0  0  0  0  0  0  0  0  0  0  0
   -8.9593    3.6107    0.0000 O   0  0  0  0  0  0  0  0  0  0  0  0
   -0.7007   -2.6977    0.0000 C   0  0  0  0  0  0  0  0  0  0  0  0
    0.0179   -4.0143    0.0000 C   0  0  0  0  0  0  0  0  0  0  0  0
    1.4922   -3.7377    0.0000 C   0  0  0  0  0  0  0  0  0  0  0  0
    1.6847   -2.2501    0.0000 C   0  0  0  0  0  0  0  0  0  0  0  0
    2.9190   -1.3978    0.0000 C   0  0  0  0  0  0  0  0  0  0  0  0
    4.2743   -2.0406    0.0000 C   0  0  0  0  0  0  0  0  0  0  0  0
    5.5086   -1.1883    0.0000 C   0  0  0  0  0  0  0  0  0  0  0  0
    5.3877    0.3068    0.0000 C   0  0  0  0  0  0  0  0  0  0  0  0
    6.6220    1.1591    0.0000 C   0  0  0  0  0  0  0  0  0  0  0  0
    6.5010    2.6542    0.0000 C   0  0  0  0  0  0  0  0  0  0  0  0
    7.7354    3.5066    0.0000 O   0  0  0  0  0  0  0  0  0  0  0  0
    5.1457    3.2970    0.0000 C   0  0  0  0  0  0  0  0  0  0  0  0
    3.9114    2.4447    0.0000 C   0  0  0  0  0  0  0  0  0  0  0  0
    4.0324    0.9496    0.0000 C   0  0  0  0  0  0  0  0  0  0  0  0
    2.6771    1.5924    0.0000 C   0  0  0  0  0  0  0  0  0  0  0  0
    2.7981    0.0973    0.0000 C   0  0  0  0  0  0  0  0  0  0  0  0
    1.4428    0.7401    0.0000 C   0  0  0  0  0  0  0  0  0  0  0  0
    0.2084   -0.1122    0.0000 C   0  0  0  0  0  0  0  0  0  0  0  0
    0.3294   -1.6073    0.0000 C   0  0  0  0  0  0  0  0  0  0  0  0
   -1.0856   -1.1097    0.0000 C   0  0  0  0  0  0  0  0  0  0  0  0
  2  1  1  6
  2  3  1  0
  3  4  1  0
  4  5  1  0
  5  6  2  0
  5  7  1  0
  7  8  1  0
  8  9  1  0
  9 10  2  0
  9 11  1  0
  2 12  1  0
 12 13  1  6
 13 14  1  0
 15 14  1  6
 15 16  1  0
 16 17  1  1
 17 18  1  0
 19 18  1  1
 19 20  1  0
 20 21  1  0
 21 22  2  0
 21 23  1  0
 23 24  1  0
 24 25  1  0
 25 26  1  6
 25 27  1  0
 27 28  1  6
 28 29  1  0
 29 30  1  0
 30 31  1  6
 30 12  1  0
 30 15  1  0
 27 16  1  0
 25 19  1  0
M  END
>  <MS_ID>  (332) 
MS0348

>  <SMILES>  (332) 
C[C@H](CCC(=O)NCC(=O)O)[C@H]1CC[C@H]2[C@@H]3CC[C@@H]4CC(=O)CC[C@]4(C)[C@H]3CC[C@]12C

>  <Structure_dimension>  (332) 
2D

$$$$
MS0349
     RDKit          2D

 35 38  0  0  0  0  0  0  0  0999 V2000
   -1.6696   -4.2269    0.0000 C   0  0  0  0  0  0  0  0  0  0  0  0
   -0.9488   -2.9114    0.0000 C   0  0  0  0  0  0  0  0  0  0  0  0
   -1.7275   -1.6295    0.0000 C   0  0  0  0  0  0  0  0  0  0  0  0
   -3.2272   -1.6629    0.0000 C   0  0  0  0  0  0  0  0  0  0  0  0
   -4.0059   -0.3809    0.0000 C   0  0  0  0  0  0  0  0  0  0  0  0
   -3.2851    0.9345    0.0000 O   0  0  0  0  0  0  0  0  0  0  0  0
   -5.5056   -0.4143    0.0000 N   0  0  0  0  0  0  0  0  0  0  0  0
   -6.2843    0.8677    0.0000 C   0  0  0  0  0  0  0  0  0  0  0  0
   -7.7840    0.8342    0.0000 C   0  0  0  0  0  0  0  0  0  0  0  0
   -8.5048   -0.4812    0.0000 O   0  0  0  0  0  0  0  0  0  0  0  0
   -8.5628    2.1162    0.0000 C   0  0  0  0  0  0  0  0  0  0  0  0
  -10.0624    2.0828    0.0000 C   0  0  0  0  0  0  0  0  0  0  0  0
  -10.7832    0.7673    0.0000 O   0  0  0  0  0  0  0  0  0  0  0  0
  -10.8412    3.3648    0.0000 O   0  0  0  0  0  0  0  0  0  0  0  0
    0.5509   -2.8780    0.0000 C   0  0  0  0  0  0  0  0  0  0  0  0
    1.4594   -4.0716    0.0000 C   0  0  0  0  0  0  0  0  0  0  0  0
    2.8753   -3.5764    0.0000 C   0  0  0  0  0  0  0  0  0  0  0  0
    2.8418   -2.0767    0.0000 C   0  0  0  0  0  0  0  0  0  0  0  0
    3.9339   -1.0484    0.0000 C   0  0  0  0  0  0  0  0  0  0  0  0
    5.3705   -1.4800    0.0000 C   0  0  0  0  0  0  0  0  0  0  0  0
    5.7150   -2.9399    0.0000 O   0  0  0  0  0  0  0  0  0  0  0  0
    6.4625   -0.4517    0.0000 C   0  0  0  0  0  0  0  0  0  0  0  0
    6.1180    1.0082    0.0000 C   0  0  0  0  0  0  0  0  0  0  0  0
    7.2101    2.0365    0.0000 C   0  0  0  0  0  0  0  0  0  0  0  0
    6.8656    3.4964    0.0000 C   0  0  0  0  0  0  0  0  0  0  0  0
    7.9576    4.5247    0.0000 O   0  0  0  0  0  0  0  0  0  0  0  0
    5.4290    3.9280    0.0000 C   0  0  0  0  0  0  0  0  0  0  0  0
    4.3370    2.8997    0.0000 C   0  0  0  0  0  0  0  0  0  0  0  0
    4.6815    1.4398    0.0000 C   0  0  0  0  0  0  0  0  0  0  0  0
    3.2449    1.8714    0.0000 C   0  0  0  0  0  0  0  0  0  0  0  0
    3.5894    0.4115    0.0000 C   0  0  0  0  0  0  0  0  0  0  0  0
    2.1528    0.8431    0.0000 C   0  0  0  0  0  0  0  0  0  0  0  0
    1.0608   -0.1852    0.0000 C   0  0  0  0  0  0  0  0  0  0  0  0
    1.4053   -1.6451    0.0000 C   0  0  0  0  0  0  0  0  0  0  0  0
   -0.0686   -1.3660    0.0000 C   0  0  0  0  0  0  0  0  0  0  0  0
  2  1  1  6
  2  3  1  0
  3  4  1  0
  4  5  1  0
  5  6  2  0
  5  7  1  0
  7  8  1  0
  8  9  1  0
  9 10  2  0
  9 11  1  0
 11 12  1  0
 12 13  2  0
 12 14  1  0
  2 15  1  0
 15 16  1  6
 16 17  1  0
 18 17  1  6
 18 19  1  0
 19 20  1  1
 20 21  1  6
 20 22  1  0
 23 22  1  1
 23 24  1  0
 24 25  1  0
 25 26  1  1
 25 27  1  0
 27 28  1  0
 28 29  1  0
 29 30  1  6
 29 31  1  0
 31 32  1  6
 32 33  1  0
 33 34  1  0
 34 35  1  6
 34 15  1  0
 34 18  1  0
 31 19  1  0
 29 23  1  0
M  END
>  <MS_ID>  (333) 
MS0349

>  <SMILES>  (333) 
C[C@H](CCC(=O)NCC(=O)CC(=O)O)[C@H]1CC[C@H]2[C@@H]3[C@@H](O)C[C@@H]4C[C@H](O)CC[C@]4(C)[C@H]3CC[C@]12C

>  <Structure_dimension>  (333) 
2D

$$$$
MS0350
     RDKit          2D

 33 36  0  0  0  0  0  0  0  0999 V2000
   -3.0978   -3.6919    0.0000 C   0  0  0  0  0  0  0  0  0  0  0  0
   -2.2201   -2.4755    0.0000 C   0  0  0  0  0  0  0  0  0  0  0  0
   -2.8347   -1.1072    0.0000 C   0  0  0  0  0  0  0  0  0  0  0  0
   -4.3270   -0.9552    0.0000 C   0  0  0  0  0  0  0  0  0  0  0  0
   -4.9416    0.4131    0.0000 C   0  0  0  0  0  0  0  0  0  0  0  0
   -4.0639    1.6295    0.0000 O   0  0  0  0  0  0  0  0  0  0  0  0
   -6.4339    0.5650    0.0000 N   0  0  0  0  0  0  0  0  0  0  0  0
   -7.0484    1.9333    0.0000 C   0  0  0  0  0  0  0  0  0  0  0  0
   -8.5407    2.0852    0.0000 C   0  0  0  0  0  0  0  0  0  0  0  0
   -9.4184    0.8688    0.0000 O   0  0  0  0  0  0  0  0  0  0  0  0
   -9.1553    3.4535    0.0000 O   0  0  0  0  0  0  0  0  0  0  0  0
   -0.7278   -2.6274    0.0000 C   0  0  0  0  0  0  0  0  0  0  0  0
    0.0264   -3.9240    0.0000 C   0  0  0  0  0  0  0  0  0  0  0  0
    1.4926   -3.6073    0.0000 C   0  0  0  0  0  0  0  0  0  0  0  0
    1.6445   -2.1150    0.0000 C   0  0  0  0  0  0  0  0  0  0  0  0
    2.8552   -1.2294    0.0000 C   0  0  0  0  0  0  0  0  0  0  0  0
    4.2275   -1.8350    0.0000 C   0  0  0  0  0  0  0  0  0  0  0  0
    4.3891   -3.3263    0.0000 O   0  0  0  0  0  0  0  0  0  0  0  0
    5.4381   -0.9494    0.0000 C   0  0  0  0  0  0  0  0  0  0  0  0
    5.2764    0.5419    0.0000 C   0  0  0  0  0  0  0  0  0  0  0  0
    6.4871    1.4275    0.0000 C   0  0  0  0  0  0  0  0  0  0  0  0
    6.3254    2.9188    0.0000 C   0  0  0  0  0  0  0  0  0  0  0  0
    7.5360    3.8044    0.0000 O   0  0  0  0  0  0  0  0  0  0  0  0
    4.9531    3.5244    0.0000 C   0  0  0  0  0  0  0  0  0  0  0  0
    3.7425    2.6388    0.0000 C   0  0  0  0  0  0  0  0  0  0  0  0
    3.9041    1.1475    0.0000 C   0  0  0  0  0  0  0  0  0  0  0  0
    2.5318    1.7531    0.0000 C   0  0  0  0  0  0  0  0  0  0  0  0
    2.6935    0.2619    0.0000 C   0  0  0  0  0  0  0  0  0  0  0  0
    1.3212    0.8675    0.0000 C   0  0  0  0  0  0  0  0  0  0  0  0
    0.1105   -0.0181    0.0000 C   0  0  0  0  0  0  0  0  0  0  0  0
   -1.2618    0.5875    0.0000 O   0  0  0  0  0  0  0  0  0  0  0  0
    0.2722   -1.5094    0.0000 C   0  0  0  0  0  0  0  0  0  0  0  0
   -1.1559   -1.0505    0.0000 C   0  0  0  0  0  0  0  0  0  0  0  0
  2  1  1  6
  2  3  1  0
  3  4  1  0
  4  5  1  0
  5  6  2  0
  5  7  1  0
  7  8  1  0
  8  9  1  0
  9 10  2  0
  9 11  1  0
  2 12  1  0
 12 13  1  6
 13 14  1  0
 15 14  1  6
 15 16  1  0
 16 17  1  1
 17 18  1  6
 17 19  1  0
 20 19  1  1
 20 21  1  0
 21 22  1  0
 22 23  2  0
 22 24  1  0
 24 25  1  0
 25 26  1  0
 26 27  1  6
 26 28  1  0
 28 29  1  6
 29 30  1  0
 30 31  1  1
 30 32  1  0
 32 33  1  6
 32 12  1  0
 32 15  1  0
 28 16  1  0
 26 20  1  0
M  END
>  <MS_ID>  (334) 
MS0350

>  <SMILES>  (334) 
C[C@H](CCC(=O)NCC(=O)O)[C@H]1CC[C@H]2[C@@H]3[C@@H](O)C[C@@H]4CC(=O)CC[C@]4(C)[C@H]3C[C@H](O)[C@]12C

>  <Structure_dimension>  (334) 
2D

$$$$
MS0351
     RDKit          2D

 32 35  0  0  0  0  0  0  0  0999 V2000
   -3.4546   -3.6059    0.0000 C   0  0  0  0  0  0  0  0  0  0  0  0
   -2.5561   -2.4048    0.0000 C   0  0  0  0  0  0  0  0  0  0  0  0
   -3.1471   -1.0261    0.0000 C   0  0  0  0  0  0  0  0  0  0  0  0
   -4.6366   -0.8486    0.0000 C   0  0  0  0  0  0  0  0  0  0  0  0
   -5.2276    0.5301    0.0000 C   0  0  0  0  0  0  0  0  0  0  0  0
   -4.3291    1.7312    0.0000 O   0  0  0  0  0  0  0  0  0  0  0  0
   -6.7170    0.7076    0.0000 O   0  0  0  0  0  0  0  0  0  0  0  0
   -7.3080    2.0863    0.0000 C   0  0  0  0  0  0  0  0  0  0  0  0
   -8.7975    2.2638    0.0000 C   0  0  0  0  0  0  0  0  0  0  0  0
   -9.3885    3.6424    0.0000 O   0  0  0  0  0  0  0  0  0  0  0  0
   -1.0667   -2.5823    0.0000 C   0  0  0  0  0  0  0  0  0  0  0  0
   -0.3348   -3.8917    0.0000 C   0  0  0  0  0  0  0  0  0  0  0  0
    1.1366   -3.6002    0.0000 C   0  0  0  0  0  0  0  0  0  0  0  0
    1.3141   -2.1108    0.0000 C   0  0  0  0  0  0  0  0  0  0  0  0
    2.5398   -1.2460    0.0000 C   0  0  0  0  0  0  0  0  0  0  0  0
    3.9015   -1.8751    0.0000 C   0  0  0  0  0  0  0  0  0  0  0  0
    4.0375   -3.3690    0.0000 O   0  0  0  0  0  0  0  0  0  0  0  0
    5.1272   -1.0104    0.0000 C   0  0  0  0  0  0  0  0  0  0  0  0
    4.9911    0.4834    0.0000 C   0  0  0  0  0  0  0  0  0  0  0  0
    6.2168    1.3481    0.0000 C   0  0  0  0  0  0  0  0  0  0  0  0
    6.0808    2.8419    0.0000 C   0  0  0  0  0  0  0  0  0  0  0  0
    7.3064    3.7067    0.0000 O   0  0  0  0  0  0  0  0  0  0  0  0
    4.7191    3.4710    0.0000 C   0  0  0  0  0  0  0  0  0  0  0  0
    3.4934    2.6063    0.0000 C   0  0  0  0  0  0  0  0  0  0  0  0
    3.6294    1.1125    0.0000 C   0  0  0  0  0  0  0  0  0  0  0  0
    2.2677    1.7416    0.0000 C   0  0  0  0  0  0  0  0  0  0  0  0
    2.4038    0.2478    0.0000 C   0  0  0  0  0  0  0  0  0  0  0  0
    1.0421    0.8769    0.0000 C   0  0  0  0  0  0  0  0  0  0  0  0
   -0.1836    0.0122    0.0000 C   0  0  0  0  0  0  0  0  0  0  0  0
   -1.5453    0.6413    0.0000 O   0  0  0  0  0  0  0  0  0  0  0  0
   -0.0476   -1.4817    0.0000 C   0  0  0  0  0  0  0  0  0  0  0  0
   -1.4676   -0.9983    0.0000 C   0  0  0  0  0  0  0  0  0  0  0  0
  2  1  1  6
  2  3  1  0
  3  4  1  0
  4  5  1  0
  5  6  2  0
  5  7  1  0
  7  8  1  0
  8  9  1  0
  9 10  1  0
  2 11  1  0
 11 12  1  6
 12 13  1  0
 14 13  1  6
 14 15  1  0
 15 16  1  1
 16 17  1  1
 16 18  1  0
 19 18  1  1
 19 20  1  0
 20 21  1  0
 21 22  1  1
 21 23  1  0
 23 24  1  0
 24 25  1  0
 25 26  1  6
 25 27  1  0
 27 28  1  6
 28 29  1  0
 29 30  1  1
 29 31  1  0
 31 32  1  6
 31 11  1  0
 31 14  1  0
 27 15  1  0
 25 19  1  0
M  END
>  <MS_ID>  (335) 
MS0351

>  <SMILES>  (335) 
C[C@H](CCC(=O)OCCO)[C@H]1CC[C@H]2[C@@H]3[C@H](O)C[C@@H]4C[C@H](O)CC[C@]4(C)[C@H]3C[C@H](O)[C@]12C

>  <Structure_dimension>  (335) 
2D

$$$$
MS0352
     RDKit          2D

 32 35  0  0  0  0  0  0  0  0999 V2000
  -10.7005    2.5206    0.0000 C   0  0  0  0  0  0  0  0  0  0  0  0
   -9.2005    2.5274    0.0000 C   0  0  0  0  0  0  0  0  0  0  0  0
   -8.4446    1.2318    0.0000 C   0  0  0  0  0  0  0  0  0  0  0  0
   -6.9446    1.2387    0.0000 C   0  0  0  0  0  0  0  0  0  0  0  0
   -6.1887   -0.0569    0.0000 O   0  0  0  0  0  0  0  0  0  0  0  0
   -4.6887   -0.0500    0.0000 C   0  0  0  0  0  0  0  0  0  0  0  0
   -3.9446    1.2524    0.0000 O   0  0  0  0  0  0  0  0  0  0  0  0
   -3.9328   -1.3456    0.0000 C   0  0  0  0  0  0  0  0  0  0  0  0
   -2.4328   -1.3388    0.0000 C   0  0  0  0  0  0  0  0  0  0  0  0
   -1.6768   -2.6344    0.0000 C   0  0  0  0  0  0  0  0  0  0  0  0
   -2.4209   -3.9368    0.0000 C   0  0  0  0  0  0  0  0  0  0  0  0
   -0.1769   -2.6275    0.0000 C   0  0  0  0  0  0  0  0  0  0  0  0
    0.7104   -3.8370    0.0000 C   0  0  0  0  0  0  0  0  0  0  0  0
    2.1348   -3.3669    0.0000 C   0  0  0  0  0  0  0  0  0  0  0  0
    2.1280   -1.8670    0.0000 C   0  0  0  0  0  0  0  0  0  0  0  0
    3.2381   -0.8582    0.0000 C   0  0  0  0  0  0  0  0  0  0  0  0
    4.6668   -1.3152    0.0000 C   0  0  0  0  0  0  0  0  0  0  0  0
    4.9853   -2.7809    0.0000 O   0  0  0  0  0  0  0  0  0  0  0  0
    5.7769   -0.3064    0.0000 C   0  0  0  0  0  0  0  0  0  0  0  0
    5.4583    1.1594    0.0000 C   0  0  0  0  0  0  0  0  0  0  0  0
    6.5684    2.1682    0.0000 C   0  0  0  0  0  0  0  0  0  0  0  0
    6.2498    3.6340    0.0000 C   0  0  0  0  0  0  0  0  0  0  0  0
    4.8211    4.0910    0.0000 C   0  0  0  0  0  0  0  0  0  0  0  0
    3.7110    3.0822    0.0000 C   0  0  0  0  0  0  0  0  0  0  0  0
    4.0296    1.6164    0.0000 C   0  0  0  0  0  0  0  0  0  0  0  0
    2.6009    2.0734    0.0000 C   0  0  0  0  0  0  0  0  0  0  0  0
    2.9195    0.6076    0.0000 C   0  0  0  0  0  0  0  0  0  0  0  0
    1.4908    1.0646    0.0000 C   0  0  0  0  0  0  0  0  0  0  0  0
    0.3807    0.0558    0.0000 C   0  0  0  0  0  0  0  0  0  0  0  0
   -1.0480    0.5128    0.0000 O   0  0  0  0  0  0  0  0  0  0  0  0
    0.6993   -1.4100    0.0000 C   0  0  0  0  0  0  0  0  0  0  0  0
   -0.7694   -1.1048    0.0000 C   0  0  0  0  0  0  0  0  0  0  0  0
  1  2  1  0
  2  3  1  0
  3  4  1  0
  4  5  1  0
  5  6  1  0
  6  7  2  0
  6  8  1  0
  8  9  1  0
  9 10  1  0
 10 11  1  6
 10 12  1  0
 12 13  1  6
 13 14  1  0
 15 14  1  6
 15 16  1  0
 16 17  1  1
 17 18  1  1
 17 19  1  0
 20 19  1  1
 20 21  1  0
 21 22  1  0
 22 23  1  0
 23 24  1  0
 24 25  1  0
 25 26  1  6
 25 27  1  0
 27 28  1  6
 28 29  1  0
 29 30  1  1
 29 31  1  0
 31 32  1  6
 31 12  1  0
 31 15  1  0
 27 16  1  0
 25 20  1  0
M  END
>  <MS_ID>  (336) 
MS0352

>  <SMILES>  (336) 
CCCCOC(=O)CC[C@@H](C)[C@H]1CC[C@H]2[C@@H]3[C@H](O)C[C@@H]4CCCC[C@]4(C)[C@H]3C[C@H](O)[C@]12C

>  <Structure_dimension>  (336) 
2D

$$$$
MS0353
     RDKit          2D

 31 34  0  0  0  0  0  0  0  0999 V2000
   -3.6377   -3.4900    0.0000 C   0  0  0  0  0  0  0  0  0  0  0  0
   -2.6684   -2.3453    0.0000 C   0  0  0  0  0  0  0  0  0  0  0  0
   -3.1751   -0.9335    0.0000 C   0  0  0  0  0  0  0  0  0  0  0  0
   -4.6511   -0.6664    0.0000 C   0  0  0  0  0  0  0  0  0  0  0  0
   -5.1578    0.7454    0.0000 C   0  0  0  0  0  0  0  0  0  0  0  0
   -4.1885    1.8902    0.0000 O   0  0  0  0  0  0  0  0  0  0  0  0
   -6.6339    1.0125    0.0000 C   0  0  0  0  0  0  0  0  0  0  0  0
   -7.1406    2.4243    0.0000 C   0  0  0  0  0  0  0  0  0  0  0  0
   -6.1713    3.5691    0.0000 O   0  0  0  0  0  0  0  0  0  0  0  0
   -8.6166    2.6914    0.0000 O   0  0  0  0  0  0  0  0  0  0  0  0
   -1.1923   -2.6123    0.0000 C   0  0  0  0  0  0  0  0  0  0  0  0
   -0.5408   -3.9635    0.0000 C   0  0  0  0  0  0  0  0  0  0  0  0
    0.9455   -3.7613    0.0000 C   0  0  0  0  0  0  0  0  0  0  0  0
    1.2126   -2.2853    0.0000 C   0  0  0  0  0  0  0  0  0  0  0  0
    2.4882   -1.4961    0.0000 C   0  0  0  0  0  0  0  0  0  0  0  0
    3.8095   -2.2063    0.0000 C   0  0  0  0  0  0  0  0  0  0  0  0
    5.0851   -1.4171    0.0000 C   0  0  0  0  0  0  0  0  0  0  0  0
    5.0394    0.0822    0.0000 C   0  0  0  0  0  0  0  0  0  0  0  0
    6.3151    0.8714    0.0000 C   0  0  0  0  0  0  0  0  0  0  0  0
    6.2694    2.3707    0.0000 C   0  0  0  0  0  0  0  0  0  0  0  0
    7.5450    3.1599    0.0000 O   0  0  0  0  0  0  0  0  0  0  0  0
    4.9481    3.0808    0.0000 C   0  0  0  0  0  0  0  0  0  0  0  0
    3.6725    2.2917    0.0000 C   0  0  0  0  0  0  0  0  0  0  0  0
    3.7182    0.7924    0.0000 C   0  0  0  0  0  0  0  0  0  0  0  0
    2.3969    1.5025    0.0000 C   0  0  0  0  0  0  0  0  0  0  0  0
    2.4426    0.0032    0.0000 C   0  0  0  0  0  0  0  0  0  0  0  0
    1.1213    0.7133    0.0000 C   0  0  0  0  0  0  0  0  0  0  0  0
   -0.1543   -0.0759    0.0000 C   0  0  0  0  0  0  0  0  0  0  0  0
   -1.4756    0.6342    0.0000 O   0  0  0  0  0  0  0  0  0  0  0  0
   -0.1087   -1.5752    0.0000 C   0  0  0  0  0  0  0  0  0  0  0  0
   -1.4969   -1.0071    0.0000 C   0  0  0  0  0  0  0  0  0  0  0  0
  2  1  1  6
  2  3  1  0
  3  4  1  0
  4  5  1  0
  5  6  2  0
  5  7  1  0
  7  8  1  0
  8  9  2  0
  8 10  1  0
  2 11  1  0
 11 12  1  6
 12 13  1  0
 14 13  1  6
 14 15  1  0
 15 16  1  1
 16 17  1  0
 18 17  1  1
 18 19  1  0
 19 20  1  0
 20 21  1  1
 20 22  1  0
 22 23  1  0
 23 24  1  0
 24 25  1  6
 24 26  1  0
 26 27  1  6
 27 28  1  0
 28 29  1  6
 28 30  1  0
 30 31  1  6
 30 11  1  0
 30 14  1  0
 26 15  1  0
 24 18  1  0
M  END
>  <MS_ID>  (337) 
MS0353

>  <SMILES>  (337) 
C[C@H](CCC(=O)CC(=O)O)[C@H]1CC[C@H]2[C@@H]3CC[C@@H]4C[C@H](O)CC[C@]4(C)[C@H]3C[C@@H](O)[C@]12C

>  <Structure_dimension>  (337) 
2D

$$$$
MS0356
     RDKit          2D

 30 33  0  0  0  0  0  0  0  0999 V2000
   -5.6962   -1.8759    0.0000 C   0  0  0  0  0  0  0  0  0  0  0  0
   -4.4381   -1.0589    0.0000 C   0  0  0  0  0  0  0  0  0  0  0  0
   -4.5166    0.4390    0.0000 C   0  0  0  0  0  0  0  0  0  0  0  0
   -5.8531    1.1200    0.0000 C   0  0  0  0  0  0  0  0  0  0  0  0
   -5.9315    2.6180    0.0000 C   0  0  0  0  0  0  0  0  0  0  0  0
   -4.6735    3.4349    0.0000 O   0  0  0  0  0  0  0  0  0  0  0  0
   -7.2680    3.2990    0.0000 O   0  0  0  0  0  0  0  0  0  0  0  0
   -3.1016   -1.7400    0.0000 C   0  0  0  0  0  0  0  0  0  0  0  0
   -2.8670   -3.2215    0.0000 C   0  0  0  0  0  0  0  0  0  0  0  0
   -1.3855   -3.4562    0.0000 C   0  0  0  0  0  0  0  0  0  0  0  0
   -0.7045   -2.1197    0.0000 C   0  0  0  0  0  0  0  0  0  0  0  0
    0.7444   -1.7315    0.0000 C   0  0  0  0  0  0  0  0  0  0  0  0
    1.8050   -2.7922    0.0000 C   0  0  0  0  0  0  0  0  0  0  0  0
    3.2540   -2.4040    0.0000 C   0  0  0  0  0  0  0  0  0  0  0  0
    3.6422   -0.9551    0.0000 C   0  0  0  0  0  0  0  0  0  0  0  0
    5.0911   -0.5670    0.0000 C   0  0  0  0  0  0  0  0  0  0  0  0
    5.4794    0.8819    0.0000 C   0  0  0  0  0  0  0  0  0  0  0  0
    6.9283    1.2701    0.0000 C   0  0  0  0  0  0  0  0  0  0  0  0
    7.3166    2.7190    0.0000 O   0  0  0  0  0  0  0  0  0  0  0  0
    7.9889    0.2094    0.0000 O   0  0  0  0  0  0  0  0  0  0  0  0
    4.4188    1.9426    0.0000 C   0  0  0  0  0  0  0  0  0  0  0  0
    2.9699    1.5544    0.0000 C   0  0  0  0  0  0  0  0  0  0  0  0
    2.5816    0.1055    0.0000 C   0  0  0  0  0  0  0  0  0  0  0  0
    1.5210    1.1662    0.0000 C   0  0  0  0  0  0  0  0  0  0  0  0
    1.1327   -0.2826    0.0000 C   0  0  0  0  0  0  0  0  0  0  0  0
    0.0721    0.7781    0.0000 C   0  0  0  0  0  0  0  0  0  0  0  0
   -1.3768    0.3899    0.0000 C   0  0  0  0  0  0  0  0  0  0  0  0
   -2.4375    1.4506    0.0000 O   0  0  0  0  0  0  0  0  0  0  0  0
   -1.7651   -1.0590    0.0000 C   0  0  0  0  0  0  0  0  0  0  0  0
   -2.9308   -0.1150    0.0000 C   0  0  0  0  0  0  0  0  0  0  0  0
  2  1  1  6
  2  3  1  0
  3  4  1  0
  4  5  1  0
  5  6  2  0
  5  7  1  0
  2  8  1  0
  8  9  1  6
  9 10  1  0
 11 10  1  6
 11 12  1  0
 12 13  1  1
 13 14  1  0
 15 14  1  1
 15 16  1  0
 16 17  1  0
 17 18  1  1
 18 19  2  0
 18 20  1  0
 17 21  1  0
 21 22  1  0
 22 23  1  0
 23 24  1  6
 23 25  1  0
 25 26  1  6
 26 27  1  0
 27 28  1  6
 27 29  1  0
 29 30  1  6
 29  8  1  0
 29 11  1  0
 25 12  1  0
 23 15  1  0
M  END
>  <MS_ID>  (338) 
MS0356

>  <SMILES>  (338) 
C[C@H](CCC(=O)O)[C@H]1CC[C@H]2[C@@H]3CC[C@@H]4C[C@H](C(=O)O)CC[C@]4(C)[C@H]3C[C@@H](O)[C@]12C

>  <Structure_dimension>  (338) 
2D

$$$$
MS0357
     RDKit          2D

 32 35  0  0  0  0  0  0  0  0999 V2000
   -3.3600   -3.6470    0.0000 C   0  0  0  0  0  0  0  0  0  0  0  0
   -2.4640   -2.4440    0.0000 C   0  0  0  0  0  0  0  0  0  0  0  0
   -3.0579   -1.0666    0.0000 C   0  0  0  0  0  0  0  0  0  0  0  0
   -4.5477   -0.8922    0.0000 C   0  0  0  0  0  0  0  0  0  0  0  0
   -5.1416    0.4852    0.0000 C   0  0  0  0  0  0  0  0  0  0  0  0
   -4.2456    1.6883    0.0000 O   0  0  0  0  0  0  0  0  0  0  0  0
   -6.6314    0.6596    0.0000 C   0  0  0  0  0  0  0  0  0  0  0  0
   -7.2253    2.0371    0.0000 S   0  0  0  0  0  0  0  0  0  0  0  0
   -8.6027    1.4432    0.0000 O   0  0  0  0  0  0  0  0  0  0  0  0
   -5.8479    2.6309    0.0000 O   0  0  0  0  0  0  0  0  0  0  0  0
   -7.8192    3.4145    0.0000 O   0  0  0  0  0  0  0  0  0  0  0  0
   -0.9742   -2.6184    0.0000 C   0  0  0  0  0  0  0  0  0  0  0  0
   -0.2396   -3.9262    0.0000 C   0  0  0  0  0  0  0  0  0  0  0  0
    1.2312   -3.6317    0.0000 C   0  0  0  0  0  0  0  0  0  0  0  0
    1.4056   -2.1419    0.0000 C   0  0  0  0  0  0  0  0  0  0  0  0
    2.6295   -1.2746    0.0000 C   0  0  0  0  0  0  0  0  0  0  0  0
    3.9925   -1.9008    0.0000 C   0  0  0  0  0  0  0  0  0  0  0  0
    4.1317   -3.3944    0.0000 O   0  0  0  0  0  0  0  0  0  0  0  0
    5.2163   -1.0336    0.0000 C   0  0  0  0  0  0  0  0  0  0  0  0
    5.0772    0.4600    0.0000 C   0  0  0  0  0  0  0  0  0  0  0  0
    6.3010    1.3273    0.0000 C   0  0  0  0  0  0  0  0  0  0  0  0
    6.1619    2.8208    0.0000 C   0  0  0  0  0  0  0  0  0  0  0  0
    7.3857    3.6881    0.0000 O   0  0  0  0  0  0  0  0  0  0  0  0
    4.7989    3.4470    0.0000 C   0  0  0  0  0  0  0  0  0  0  0  0
    3.5750    2.5798    0.0000 C   0  0  0  0  0  0  0  0  0  0  0  0
    3.7142    1.0862    0.0000 C   0  0  0  0  0  0  0  0  0  0  0  0
    2.3511    1.7125    0.0000 C   0  0  0  0  0  0  0  0  0  0  0  0
    2.4903    0.2189    0.0000 C   0  0  0  0  0  0  0  0  0  0  0  0
    1.1273    0.8452    0.0000 C   0  0  0  0  0  0  0  0  0  0  0  0
   -0.0966   -0.0221    0.0000 C   0  0  0  0  0  0  0  0  0  0  0  0
    0.0426   -1.5156    0.0000 C   0  0  0  0  0  0  0  0  0  0  0  0
   -1.3784   -1.0353    0.0000 C   0  0  0  0  0  0  0  0  0  0  0  0
  2  1  1  6
  2  3  1  0
  3  4  1  0
  4  5  1  0
  5  6  2  0
  5  7  1  0
  7  8  1  0
  8  9  2  0
  8 10  2  0
  8 11  1  0
  2 12  1  0
 12 13  1  6
 13 14  1  0
 15 14  1  6
 15 16  1  0
 16 17  1  1
 17 18  1  1
 17 19  1  0
 20 19  1  1
 20 21  1  0
 21 22  1  0
 22 23  1  1
 22 24  1  0
 24 25  1  0
 25 26  1  0
 26 27  1  6
 26 28  1  0
 28 29  1  6
 29 30  1  0
 30 31  1  0
 31 32  1  6
 31 12  1  0
 31 15  1  0
 28 16  1  0
 26 20  1  0
M  END
>  <MS_ID>  (339) 
MS0357

>  <SMILES>  (339) 
C[C@H](CCC(=O)CS(=O)(=O)O)[C@H]1CC[C@H]2[C@@H]3[C@H](O)C[C@@H]4C[C@H](O)CC[C@]4(C)[C@H]3CC[C@]12C

>  <Structure_dimension>  (339) 
2D

$$$$
MS0358
     RDKit          2D

 29 32  0  0  0  0  0  0  0  0999 V2000
   -5.0303   -2.1373    0.0000 C   0  0  0  0  0  0  0  0  0  0  0  0
   -3.8594   -1.1998    0.0000 C   0  0  0  0  0  0  0  0  0  0  0  0
   -4.0858    0.2830    0.0000 C   0  0  0  0  0  0  0  0  0  0  0  0
   -5.4831    0.8284    0.0000 C   0  0  0  0  0  0  0  0  0  0  0  0
   -5.7095    2.3112    0.0000 C   0  0  0  0  0  0  0  0  0  0  0  0
   -4.5386    3.2487    0.0000 O   0  0  0  0  0  0  0  0  0  0  0  0
   -7.1069    2.8565    0.0000 O   0  0  0  0  0  0  0  0  0  0  0  0
   -2.4620   -1.7451    0.0000 C   0  0  0  0  0  0  0  0  0  0  0  0
   -2.0818   -3.1961    0.0000 C   0  0  0  0  0  0  0  0  0  0  0  0
   -0.5844   -3.2830    0.0000 C   0  0  0  0  0  0  0  0  0  0  0  0
   -0.0390   -1.8856    0.0000 C   0  0  0  0  0  0  0  0  0  0  0  0
    1.3643   -1.3559    0.0000 C   0  0  0  0  0  0  0  0  0  0  0  0
    2.5248   -2.3063    0.0000 C   0  0  0  0  0  0  0  0  0  0  0  0
    2.2819   -3.7865    0.0000 N   0  0  0  0  0  0  0  0  0  0  0  0
    3.9281   -1.7765    0.0000 C   0  0  0  0  0  0  0  0  0  0  0  0
    4.1710   -0.2963    0.0000 C   0  0  0  0  0  0  0  0  0  0  0  0
    5.5743    0.2334    0.0000 C   0  0  0  0  0  0  0  0  0  0  0  0
    5.8172    1.7136    0.0000 C   0  0  0  0  0  0  0  0  0  0  0  0
    7.2205    2.2434    0.0000 O   0  0  0  0  0  0  0  0  0  0  0  0
    4.6568    2.6641    0.0000 C   0  0  0  0  0  0  0  0  0  0  0  0
    3.2534    2.1343    0.0000 C   0  0  0  0  0  0  0  0  0  0  0  0
    3.0105    0.6541    0.0000 C   0  0  0  0  0  0  0  0  0  0  0  0
    1.8501    1.6046    0.0000 C   0  0  0  0  0  0  0  0  0  0  0  0
    1.6072    0.1244    0.0000 C   0  0  0  0  0  0  0  0  0  0  0  0
    0.4467    1.0748    0.0000 C   0  0  0  0  0  0  0  0  0  0  0  0
   -0.9566    0.5450    0.0000 C   0  0  0  0  0  0  0  0  0  0  0  0
   -2.1170    1.4955    0.0000 O   0  0  0  0  0  0  0  0  0  0  0  0
   -1.1995   -0.9352    0.0000 C   0  0  0  0  0  0  0  0  0  0  0  0
   -2.4529   -0.1112    0.0000 C   0  0  0  0  0  0  0  0  0  0  0  0
  2  1  1  6
  2  3  1  0
  3  4  1  0
  4  5  1  0
  5  6  2  0
  5  7  1  0
  2  8  1  0
  8  9  1  6
  9 10  1  0
 11 10  1  6
 11 12  1  0
 12 13  1  1
 13 14  1  1
 13 15  1  0
 16 15  1  1
 16 17  1  0
 17 18  1  0
 18 19  1  1
 18 20  1  0
 20 21  1  0
 21 22  1  0
 22 23  1  6
 22 24  1  0
 24 25  1  6
 25 26  1  0
 26 27  1  1
 26 28  1  0
 28 29  1  6
 28  8  1  0
 28 11  1  0
 24 12  1  0
 22 16  1  0
M  END
>  <MS_ID>  (340) 
MS0358

>  <SMILES>  (340) 
C[C@H](CCC(=O)O)[C@H]1CC[C@H]2[C@@H]3[C@H](N)C[C@@H]4C[C@H](O)CC[C@]4(C)[C@H]3C[C@H](O)[C@]12C

>  <Structure_dimension>  (340) 
2D

$$$$
MS0359
     RDKit          2D

 35 38  0  0  0  0  0  0  0  0999 V2000
   -5.5205   -2.5584    0.0000 C   0  0  0  0  0  0  0  0  0  0  0  0
   -4.3704   -1.5955    0.0000 C   0  0  0  0  0  0  0  0  0  0  0  0
   -4.6293   -0.1180    0.0000 C   0  0  0  0  0  0  0  0  0  0  0  0
   -6.0382    0.3965    0.0000 C   0  0  0  0  0  0  0  0  0  0  0  0
   -6.2971    1.8740    0.0000 C   0  0  0  0  0  0  0  0  0  0  0  0
   -5.1470    2.8370    0.0000 O   0  0  0  0  0  0  0  0  0  0  0  0
   -7.7061    2.3886    0.0000 N   0  0  0  0  0  0  0  0  0  0  0  0
   -7.9650    3.8661    0.0000 C   0  0  0  0  0  0  0  0  0  0  0  0
   -8.8562    1.4256    0.0000 C   0  0  0  0  0  0  0  0  0  0  0  0
   -2.9614   -2.1100    0.0000 C   0  0  0  0  0  0  0  0  0  0  0  0
   -2.5495   -3.5524    0.0000 C   0  0  0  0  0  0  0  0  0  0  0  0
   -1.0504   -3.6063    0.0000 C   0  0  0  0  0  0  0  0  0  0  0  0
   -0.5359   -2.1973    0.0000 C   0  0  0  0  0  0  0  0  0  0  0  0
    0.8555   -1.6369    0.0000 C   0  0  0  0  0  0  0  0  0  0  0  0
    2.0365   -2.5616    0.0000 C   0  0  0  0  0  0  0  0  0  0  0  0
    1.8262   -4.0468    0.0000 O   0  0  0  0  0  0  0  0  0  0  0  0
    3.4279   -2.0012    0.0000 C   0  0  0  0  0  0  0  0  0  0  0  0
    3.6382   -0.5160    0.0000 C   0  0  0  0  0  0  0  0  0  0  0  0
    5.0296    0.0444    0.0000 C   0  0  0  0  0  0  0  0  0  0  0  0
    5.2400    1.5296    0.0000 C   0  0  0  0  0  0  0  0  0  0  0  0
    6.6313    2.0900    0.0000 O   0  0  0  0  0  0  0  0  0  0  0  0
    7.8124    1.1652    0.0000 S   0  0  0  0  0  0  0  0  0  0  0  0
    6.8876   -0.0158    0.0000 O   0  0  0  0  0  0  0  0  0  0  0  0
    8.7371    2.3463    0.0000 O   0  0  0  0  0  0  0  0  0  0  0  0
    8.9934    0.2405    0.0000 O   0  0  0  0  0  0  0  0  0  0  0  0
    4.0589    2.4543    0.0000 C   0  0  0  0  0  0  0  0  0  0  0  0
    2.6676    1.8939    0.0000 C   0  0  0  0  0  0  0  0  0  0  0  0
    2.4572    0.4087    0.0000 C   0  0  0  0  0  0  0  0  0  0  0  0
    1.2762    1.3335    0.0000 C   0  0  0  0  0  0  0  0  0  0  0  0
    1.0658   -0.1517    0.0000 C   0  0  0  0  0  0  0  0  0  0  0  0
   -0.1152    0.7730    0.0000 C   0  0  0  0  0  0  0  0  0  0  0  0
   -1.5066    0.2126    0.0000 C   0  0  0  0  0  0  0  0  0  0  0  0
   -2.6876    1.1374    0.0000 O   0  0  0  0  0  0  0  0  0  0  0  0
   -1.7169   -1.2726    0.0000 C   0  0  0  0  0  0  0  0  0  0  0  0
   -2.9881   -0.4763    0.0000 C   0  0  0  0  0  0  0  0  0  0  0  0
  2  1  1  6
  2  3  1  0
  3  4  1  0
  4  5  1  0
  5  6  2  0
  5  7  1  0
  7  8  1  0
  7  9  1  0
  2 10  1  0
 10 11  1  6
 11 12  1  0
 13 12  1  6
 13 14  1  0
 14 15  1  1
 15 16  1  1
 15 17  1  0
 18 17  1  1
 18 19  1  0
 19 20  1  0
 20 21  1  1
 21 22  1  0
 22 23  2  0
 22 24  2  0
 22 25  1  0
 20 26  1  0
 26 27  1  0
 27 28  1  0
 28 29  1  6
 28 30  1  0
 30 31  1  6
 31 32  1  0
 32 33  1  1
 32 34  1  0
 34 35  1  6
 34 10  1  0
 34 13  1  0
 30 14  1  0
 28 18  1  0
M  END
>  <MS_ID>  (341) 
MS0359

>  <SMILES>  (341) 
C[C@H](CCC(=O)N(C)C)[C@H]1CC[C@H]2[C@@H]3[C@H](O)C[C@@H]4C[C@H](OS(=O)(=O)O)CC[C@]4(C)[C@H]3C[C@H](O)[C@]12C

>  <Structure_dimension>  (341) 
2D

$$$$
MS0360
     RDKit          2D

 32 35  0  0  0  0  0  0  0  0999 V2000
   -3.0592   -3.7169    0.0000 C   0  0  0  0  0  0  0  0  0  0  0  0
   -2.1499   -2.5239    0.0000 C   0  0  0  0  0  0  0  0  0  0  0  0
   -2.7284   -1.1399    0.0000 C   0  0  0  0  0  0  0  0  0  0  0  0
   -4.2162   -0.9489    0.0000 C   0  0  0  0  0  0  0  0  0  0  0  0
   -4.7946    0.4350    0.0000 C   0  0  0  0  0  0  0  0  0  0  0  0
   -3.8853    1.6280    0.0000 O   0  0  0  0  0  0  0  0  0  0  0  0
   -6.2824    0.6260    0.0000 N   0  0  0  0  0  0  0  0  0  0  0  0
   -6.8609    2.0100    0.0000 C   0  0  0  0  0  0  0  0  0  0  0  0
   -8.3487    2.2010    0.0000 C   0  0  0  0  0  0  0  0  0  0  0  0
   -9.2580    1.0080    0.0000 O   0  0  0  0  0  0  0  0  0  0  0  0
   -8.9272    3.5850    0.0000 O   0  0  0  0  0  0  0  0  0  0  0  0
   -0.6621   -2.7149    0.0000 C   0  0  0  0  0  0  0  0  0  0  0  0
    0.0579   -4.0308    0.0000 C   0  0  0  0  0  0  0  0  0  0  0  0
    1.5319   -3.7527    0.0000 C   0  0  0  0  0  0  0  0  0  0  0  0
    1.7229   -2.2649    0.0000 C   0  0  0  0  0  0  0  0  0  0  0  0
    2.9563   -1.4114    0.0000 C   0  0  0  0  0  0  0  0  0  0  0  0
    4.3123   -2.0528    0.0000 C   0  0  0  0  0  0  0  0  0  0  0  0
    5.5457   -1.1992    0.0000 C   0  0  0  0  0  0  0  0  0  0  0  0
    5.4232    0.2958    0.0000 C   0  0  0  0  0  0  0  0  0  0  0  0
    6.6567    1.1494    0.0000 C   0  0  0  0  0  0  0  0  0  0  0  0
    6.5342    2.6444    0.0000 C   0  0  0  0  0  0  0  0  0  0  0  0
    7.7676    3.4980    0.0000 O   0  0  0  0  0  0  0  0  0  0  0  0
    5.1782    3.2858    0.0000 C   0  0  0  0  0  0  0  0  0  0  0  0
    3.9448    2.4322    0.0000 C   0  0  0  0  0  0  0  0  0  0  0  0
    4.0673    0.9372    0.0000 C   0  0  0  0  0  0  0  0  0  0  0  0
    2.7113    1.5786    0.0000 C   0  0  0  0  0  0  0  0  0  0  0  0
    2.8338    0.0836    0.0000 C   0  0  0  0  0  0  0  0  0  0  0  0
    1.4779    0.7250    0.0000 C   0  0  0  0  0  0  0  0  0  0  0  0
    0.2444   -0.1285    0.0000 C   0  0  0  0  0  0  0  0  0  0  0  0
   -1.1115    0.5129    0.0000 O   0  0  0  0  0  0  0  0  0  0  0  0
    0.3669   -1.6235    0.0000 C   0  0  0  0  0  0  0  0  0  0  0  0
   -1.0486   -1.1274    0.0000 C   0  0  0  0  0  0  0  0  0  0  0  0
  2  1  1  6
  2  3  1  0
  3  4  1  0
  4  5  1  0
  5  6  2  0
  5  7  1  0
  7  8  1  0
  8  9  1  0
  9 10  2  0
  9 11  1  0
  2 12  1  0
 12 13  1  6
 13 14  1  0
 15 14  1  6
 15 16  1  0
 16 17  1  1
 17 18  1  0
 19 18  1  1
 19 20  1  0
 20 21  1  0
 21 22  1  1
 21 23  1  0
 23 24  1  0
 24 25  1  0
 25 26  1  6
 25 27  1  0
 27 28  1  6
 28 29  1  0
 29 30  1  6
 29 31  1  0
 31 32  1  6
 31 12  1  0
 31 15  1  0
 27 16  1  0
 25 19  1  0
M  END
>  <MS_ID>  (342) 
MS0360

>  <SMILES>  (342) 
C[C@H](CCC(=O)NCC(=O)O)[C@H]1CC[C@H]2[C@@H]3CC[C@@H]4C[C@H](O)CC[C@]4(C)[C@H]3C[C@@H](O)[C@]12C

>  <Structure_dimension>  (342) 
2D

$$$$
MS0361
     RDKit          2D

 33 36  0  0  0  0  0  0  0  0999 V2000
   -2.7594   -4.7056    0.0000 C   0  0  0  0  0  0  0  0  0  0  0  0
   -2.0933   -3.3616    0.0000 C   0  0  0  0  0  0  0  0  0  0  0  0
   -2.9241   -2.1127    0.0000 C   0  0  0  0  0  0  0  0  0  0  0  0
   -4.4211   -2.2078    0.0000 C   0  0  0  0  0  0  0  0  0  0  0  0
   -5.2519   -0.9589    0.0000 C   0  0  0  0  0  0  0  0  0  0  0  0
   -6.7489   -1.0540    0.0000 O   0  0  0  0  0  0  0  0  0  0  0  0
   -4.5858    0.3851    0.0000 S   0  0  0  0  0  0  0  0  0  0  0  0
   -5.4166    1.6340    0.0000 C   0  0  0  0  0  0  0  0  0  0  0  0
   -4.7504    2.9779    0.0000 C   0  0  0  0  0  0  0  0  0  0  0  0
   -5.5813    4.2268    0.0000 C   0  0  0  0  0  0  0  0  0  0  0  0
   -7.0783    4.1317    0.0000 O   0  0  0  0  0  0  0  0  0  0  0  0
   -4.9151    5.5708    0.0000 O   0  0  0  0  0  0  0  0  0  0  0  0
   -0.5963   -3.2665    0.0000 C   0  0  0  0  0  0  0  0  0  0  0  0
    0.3605   -4.4217    0.0000 C   0  0  0  0  0  0  0  0  0  0  0  0
    1.7549   -3.8687    0.0000 C   0  0  0  0  0  0  0  0  0  0  0  0
    1.6598   -2.3717    0.0000 C   0  0  0  0  0  0  0  0  0  0  0  0
    2.7086   -1.2994    0.0000 C   0  0  0  0  0  0  0  0  0  0  0  0
    4.1617   -1.6716    0.0000 C   0  0  0  0  0  0  0  0  0  0  0  0
    4.5660   -3.1161    0.0000 O   0  0  0  0  0  0  0  0  0  0  0  0
    5.2106   -0.5992    0.0000 C   0  0  0  0  0  0  0  0  0  0  0  0
    4.8064    0.8453    0.0000 C   0  0  0  0  0  0  0  0  0  0  0  0
    5.8552    1.9176    0.0000 C   0  0  0  0  0  0  0  0  0  0  0  0
    5.4510    3.3621    0.0000 C   0  0  0  0  0  0  0  0  0  0  0  0
    6.4998    4.4344    0.0000 O   0  0  0  0  0  0  0  0  0  0  0  0
    3.9979    3.7343    0.0000 C   0  0  0  0  0  0  0  0  0  0  0  0
    2.9490    2.6619    0.0000 C   0  0  0  0  0  0  0  0  0  0  0  0
    3.3533    1.2174    0.0000 C   0  0  0  0  0  0  0  0  0  0  0  0
    1.9002    1.5896    0.0000 C   0  0  0  0  0  0  0  0  0  0  0  0
    2.3044    0.1451    0.0000 C   0  0  0  0  0  0  0  0  0  0  0  0
    0.8513    0.5173    0.0000 C   0  0  0  0  0  0  0  0  0  0  0  0
   -0.1975   -0.5550    0.0000 C   0  0  0  0  0  0  0  0  0  0  0  0
    0.2067   -1.9996    0.0000 C   0  0  0  0  0  0  0  0  0  0  0  0
   -1.2773   -1.7813    0.0000 C   0  0  0  0  0  0  0  0  0  0  0  0
  2  1  1  6
  2  3  1  0
  3  4  1  0
  4  5  1  0
  5  6  2  0
  5  7  1  0
  7  8  1  0
  8  9  1  0
  9 10  1  0
 10 11  2  0
 10 12  1  0
  2 13  1  0
 13 14  1  6
 14 15  1  0
 16 15  1  6
 16 17  1  0
 17 18  1  1
 18 19  1  1
 18 20  1  0
 21 20  1  1
 21 22  1  0
 22 23  1  0
 23 24  1  1
 23 25  1  0
 25 26  1  0
 26 27  1  0
 27 28  1  6
 27 29  1  0
 29 30  1  6
 30 31  1  0
 31 32  1  0
 32 33  1  6
 32 13  1  0
 32 16  1  0
 29 17  1  0
 27 21  1  0
M  END
>  <MS_ID>  (343) 
MS0361

>  <SMILES>  (343) 
C[C@H](CCC(=O)SCCC(=O)O)[C@H]1CC[C@H]2[C@@H]3[C@H](O)C[C@@H]4C[C@H](O)CC[C@]4(C)[C@H]3CC[C@]12C

>  <Structure_dimension>  (343) 
2D

$$$$
MS0362
     RDKit          2D

 30 33  0  0  0  0  0  0  0  0999 V2000
   -6.0547   -1.7139    0.0000 C   0  0  0  0  0  0  0  0  0  0  0  0
   -4.7759   -0.9298    0.0000 C   0  0  0  0  0  0  0  0  0  0  0  0
   -4.8157    0.5697    0.0000 C   0  0  0  0  0  0  0  0  0  0  0  0
   -6.1341    1.2850    0.0000 C   0  0  0  0  0  0  0  0  0  0  0  0
   -6.1738    2.7845    0.0000 C   0  0  0  0  0  0  0  0  0  0  0  0
   -4.8951    3.5686    0.0000 O   0  0  0  0  0  0  0  0  0  0  0  0
   -7.4923    3.4999    0.0000 O   0  0  0  0  0  0  0  0  0  0  0  0
   -3.4575   -1.6451    0.0000 C   0  0  0  0  0  0  0  0  0  0  0  0
   -3.2613   -3.1322    0.0000 C   0  0  0  0  0  0  0  0  0  0  0  0
   -1.7863   -3.4051    0.0000 C   0  0  0  0  0  0  0  0  0  0  0  0
   -1.0710   -2.0867    0.0000 C   0  0  0  0  0  0  0  0  0  0  0  0
    0.3875   -1.7361    0.0000 C   0  0  0  0  0  0  0  0  0  0  0  0
    1.4203   -2.8239    0.0000 C   0  0  0  0  0  0  0  0  0  0  0  0
    2.8788   -2.4732    0.0000 C   0  0  0  0  0  0  0  0  0  0  0  0
    3.3044   -1.0349    0.0000 C   0  0  0  0  0  0  0  0  0  0  0  0
    4.7628   -0.6843    0.0000 C   0  0  0  0  0  0  0  0  0  0  0  0
    5.1884    0.7541    0.0000 C   0  0  0  0  0  0  0  0  0  0  0  0
    6.6469    1.1047    0.0000 S   0  0  0  0  0  0  0  0  0  0  0  0
    6.9975   -0.3538    0.0000 O   0  0  0  0  0  0  0  0  0  0  0  0
    6.2963    2.5631    0.0000 O   0  0  0  0  0  0  0  0  0  0  0  0
    8.1053    1.4553    0.0000 O   0  0  0  0  0  0  0  0  0  0  0  0
    4.1556    1.8418    0.0000 C   0  0  0  0  0  0  0  0  0  0  0  0
    2.6971    1.4912    0.0000 C   0  0  0  0  0  0  0  0  0  0  0  0
    2.2715    0.0529    0.0000 C   0  0  0  0  0  0  0  0  0  0  0  0
    1.2387    1.1406    0.0000 C   0  0  0  0  0  0  0  0  0  0  0  0
    0.8131   -0.2977    0.0000 C   0  0  0  0  0  0  0  0  0  0  0  0
   -0.2198    0.7900    0.0000 C   0  0  0  0  0  0  0  0  0  0  0  0
   -1.6782    0.4394    0.0000 C   0  0  0  0  0  0  0  0  0  0  0  0
   -2.1038   -0.9989    0.0000 C   0  0  0  0  0  0  0  0  0  0  0  0
   -3.2447   -0.0251    0.0000 C   0  0  0  0  0  0  0  0  0  0  0  0
  2  1  1  6
  2  3  1  0
  3  4  1  0
  4  5  1  0
  5  6  2  0
  5  7  1  0
  2  8  1  0
  8  9  1  6
  9 10  1  0
 11 10  1  6
 11 12  1  0
 12 13  1  1
 13 14  1  0
 15 14  1  1
 15 16  1  0
 16 17  1  0
 17 18  1  1
 18 19  2  0
 18 20  2  0
 18 21  1  0
 17 22  1  0
 22 23  1  0
 23 24  1  0
 24 25  1  6
 24 26  1  0
 26 27  1  6
 27 28  1  0
 28 29  1  0
 29 30  1  6
 29  8  1  0
 29 11  1  0
 26 12  1  0
 24 15  1  0
M  END
>  <MS_ID>  (344) 
MS0362

>  <SMILES>  (344) 
C[C@H](CCC(=O)O)[C@H]1CC[C@H]2[C@@H]3CC[C@@H]4C[C@H](S(=O)(=O)O)CC[C@]4(C)[C@H]3CC[C@]12C

>  <Structure_dimension>  (344) 
2D

$$$$
MS0363
     RDKit          2D

 29 32  0  0  0  0  0  0  0  0999 V2000
   -5.4679   -1.9280    0.0000 C   0  0  0  0  0  0  0  0  0  0  0  0
   -4.2629   -1.0348    0.0000 C   0  0  0  0  0  0  0  0  0  0  0  0
   -4.4339    0.4554    0.0000 C   0  0  0  0  0  0  0  0  0  0  0  0
   -5.8100    1.0524    0.0000 C   0  0  0  0  0  0  0  0  0  0  0  0
   -5.9810    2.5426    0.0000 C   0  0  0  0  0  0  0  0  0  0  0  0
   -4.7760    3.4359    0.0000 O   0  0  0  0  0  0  0  0  0  0  0  0
   -7.3571    3.1396    0.0000 O   0  0  0  0  0  0  0  0  0  0  0  0
   -2.8868   -1.6318    0.0000 C   0  0  0  0  0  0  0  0  0  0  0  0
   -2.5609   -3.0959    0.0000 C   0  0  0  0  0  0  0  0  0  0  0  0
   -1.0677   -3.2385    0.0000 C   0  0  0  0  0  0  0  0  0  0  0  0
   -0.4707   -1.8624    0.0000 C   0  0  0  0  0  0  0  0  0  0  0  0
    0.9514   -1.3853    0.0000 C   0  0  0  0  0  0  0  0  0  0  0  0
    2.0756   -2.3783    0.0000 C   0  0  0  0  0  0  0  0  0  0  0  0
    1.7778   -3.8484    0.0000 O   0  0  0  0  0  0  0  0  0  0  0  0
    3.4977   -1.9011    0.0000 C   0  0  0  0  0  0  0  0  0  0  0  0
    3.7956   -0.4310    0.0000 C   0  0  0  0  0  0  0  0  0  0  0  0
    5.2177    0.0461    0.0000 C   0  0  0  0  0  0  0  0  0  0  0  0
    5.5155    1.5163    0.0000 C   0  0  0  0  0  0  0  0  0  0  0  0
    6.9376    1.9934    0.0000 C   0  0  0  0  0  0  0  0  0  0  0  0
    8.0618    1.0004    0.0000 O   0  0  0  0  0  0  0  0  0  0  0  0
    4.3912    2.5093    0.0000 C   0  0  0  0  0  0  0  0  0  0  0  0
    2.9692    2.0321    0.0000 C   0  0  0  0  0  0  0  0  0  0  0  0
    2.6713    0.5620    0.0000 C   0  0  0  0  0  0  0  0  0  0  0  0
    1.5471    1.5550    0.0000 C   0  0  0  0  0  0  0  0  0  0  0  0
    1.2492    0.0849    0.0000 C   0  0  0  0  0  0  0  0  0  0  0  0
    0.1250    1.0779    0.0000 C   0  0  0  0  0  0  0  0  0  0  0  0
   -1.2971    0.6007    0.0000 C   0  0  0  0  0  0  0  0  0  0  0  0
   -1.5950   -0.8694    0.0000 C   0  0  0  0  0  0  0  0  0  0  0  0
   -2.8169    0.0007    0.0000 C   0  0  0  0  0  0  0  0  0  0  0  0
  2  1  1  6
  2  3  1  0
  3  4  1  0
  4  5  1  0
  5  6  2  0
  5  7  1  0
  2  8  1  0
  8  9  1  6
  9 10  1  0
 11 10  1  6
 11 12  1  0
 12 13  1  1
 13 14  1  6
 13 15  1  0
 16 15  1  1
 16 17  1  0
 17 18  1  0
 18 19  1  1
 19 20  1  0
 18 21  1  0
 21 22  1  0
 22 23  1  0
 23 24  1  6
 23 25  1  0
 25 26  1  6
 26 27  1  0
 27 28  1  0
 28 29  1  6
 28  8  1  0
 28 11  1  0
 25 12  1  0
 23 16  1  0
M  END
>  <MS_ID>  (345) 
MS0363

>  <SMILES>  (345) 
C[C@H](CCC(=O)O)[C@H]1CC[C@H]2[C@@H]3[C@@H](O)C[C@@H]4C[C@H](CO)CC[C@]4(C)[C@H]3CC[C@]12C

>  <Structure_dimension>  (345) 
2D

$$$$
MS0364
     RDKit          2D

 28 31  0  0  0  0  0  0  0  0999 V2000
   -5.1275   -2.0302    0.0000 C   0  0  0  0  0  0  0  0  0  0  0  0
   -3.9468   -1.1050    0.0000 C   0  0  0  0  0  0  0  0  0  0  0  0
   -4.1576    0.3801    0.0000 C   0  0  0  0  0  0  0  0  0  0  0  0
   -5.5492    0.9401    0.0000 C   0  0  0  0  0  0  0  0  0  0  0  0
   -5.7600    2.4252    0.0000 C   0  0  0  0  0  0  0  0  0  0  0  0
   -7.1516    2.9851    0.0000 O   0  0  0  0  0  0  0  0  0  0  0  0
   -4.5793    3.3503    0.0000 S   0  0  0  0  0  0  0  0  0  0  0  0
   -2.5552   -1.6650    0.0000 C   0  0  0  0  0  0  0  0  0  0  0  0
   -2.1903   -3.1199    0.0000 C   0  0  0  0  0  0  0  0  0  0  0  0
   -0.6938   -3.2225    0.0000 C   0  0  0  0  0  0  0  0  0  0  0  0
   -0.1339   -1.8309    0.0000 C   0  0  0  0  0  0  0  0  0  0  0  0
    1.2750   -1.3159    0.0000 C   0  0  0  0  0  0  0  0  0  0  0  0
    2.4254   -2.2785    0.0000 C   0  0  0  0  0  0  0  0  0  0  0  0
    2.1670   -3.7560    0.0000 O   0  0  0  0  0  0  0  0  0  0  0  0
    3.8342   -1.7635    0.0000 C   0  0  0  0  0  0  0  0  0  0  0  0
    4.0926   -0.2859    0.0000 C   0  0  0  0  0  0  0  0  0  0  0  0
    5.5014    0.2291    0.0000 C   0  0  0  0  0  0  0  0  0  0  0  0
    5.7598    1.7067    0.0000 C   0  0  0  0  0  0  0  0  0  0  0  0
    7.1687    2.2217    0.0000 O   0  0  0  0  0  0  0  0  0  0  0  0
    4.6094    2.6692    0.0000 C   0  0  0  0  0  0  0  0  0  0  0  0
    3.2006    2.1542    0.0000 C   0  0  0  0  0  0  0  0  0  0  0  0
    2.9422    0.6767    0.0000 C   0  0  0  0  0  0  0  0  0  0  0  0
    1.7918    1.6392    0.0000 C   0  0  0  0  0  0  0  0  0  0  0  0
    1.5334    0.1617    0.0000 C   0  0  0  0  0  0  0  0  0  0  0  0
    0.3830    1.1242    0.0000 C   0  0  0  0  0  0  0  0  0  0  0  0
   -1.0259    0.6093    0.0000 C   0  0  0  0  0  0  0  0  0  0  0  0
   -1.2843   -0.8683    0.0000 C   0  0  0  0  0  0  0  0  0  0  0  0
   -2.5290   -0.0313    0.0000 C   0  0  0  0  0  0  0  0  0  0  0  0
  2  1  1  6
  2  3  1  0
  3  4  1  0
  4  5  1  0
  5  6  2  0
  5  7  1  0
  2  8  1  0
  8  9  1  6
  9 10  1  0
 11 10  1  6
 11 12  1  0
 12 13  1  1
 13 14  1  1
 13 15  1  0
 16 15  1  1
 16 17  1  0
 17 18  1  0
 18 19  2  0
 18 20  1  0
 20 21  1  0
 21 22  1  0
 22 23  1  6
 22 24  1  0
 24 25  1  6
 25 26  1  0
 26 27  1  0
 27 28  1  6
 27  8  1  0
 27 11  1  0
 24 12  1  0
 22 16  1  0
M  END
>  <MS_ID>  (346) 
MS0364

>  <SMILES>  (346) 
C[C@H](CCC(=O)S)[C@H]1CC[C@H]2[C@@H]3[C@H](O)C[C@@H]4CC(=O)CC[C@]4(C)[C@H]3CC[C@]12C

>  <Structure_dimension>  (346) 
2D

$$$$
MS0365
     RDKit          2D

 29 32  0  0  0  0  0  0  0  0999 V2000
   -5.0303   -2.1373    0.0000 C   0  0  0  0  0  0  0  0  0  0  0  0
   -3.8594   -1.1998    0.0000 C   0  0  0  0  0  0  0  0  0  0  0  0
   -4.0858    0.2830    0.0000 C   0  0  0  0  0  0  0  0  0  0  0  0
   -5.4831    0.8284    0.0000 C   0  0  0  0  0  0  0  0  0  0  0  0
   -5.7095    2.3112    0.0000 C   0  0  0  0  0  0  0  0  0  0  0  0
   -7.1069    2.8565    0.0000 N   0  0  0  0  0  0  0  0  0  0  0  0
   -4.5386    3.2487    0.0000 O   0  0  0  0  0  0  0  0  0  0  0  0
   -2.4620   -1.7451    0.0000 C   0  0  0  0  0  0  0  0  0  0  0  0
   -2.0818   -3.1961    0.0000 C   0  0  0  0  0  0  0  0  0  0  0  0
   -0.5844   -3.2830    0.0000 C   0  0  0  0  0  0  0  0  0  0  0  0
   -0.0390   -1.8856    0.0000 C   0  0  0  0  0  0  0  0  0  0  0  0
    1.3643   -1.3559    0.0000 C   0  0  0  0  0  0  0  0  0  0  0  0
    2.5248   -2.3063    0.0000 C   0  0  0  0  0  0  0  0  0  0  0  0
    2.2819   -3.7865    0.0000 O   0  0  0  0  0  0  0  0  0  0  0  0
    3.9281   -1.7765    0.0000 C   0  0  0  0  0  0  0  0  0  0  0  0
    4.1710   -0.2963    0.0000 C   0  0  0  0  0  0  0  0  0  0  0  0
    5.5743    0.2334    0.0000 C   0  0  0  0  0  0  0  0  0  0  0  0
    5.8172    1.7136    0.0000 C   0  0  0  0  0  0  0  0  0  0  0  0
    7.2205    2.2434    0.0000 O   0  0  0  0  0  0  0  0  0  0  0  0
    4.6568    2.6641    0.0000 C   0  0  0  0  0  0  0  0  0  0  0  0
    3.2534    2.1343    0.0000 C   0  0  0  0  0  0  0  0  0  0  0  0
    3.0105    0.6541    0.0000 C   0  0  0  0  0  0  0  0  0  0  0  0
    1.8501    1.6046    0.0000 C   0  0  0  0  0  0  0  0  0  0  0  0
    1.6072    0.1244    0.0000 C   0  0  0  0  0  0  0  0  0  0  0  0
    0.4467    1.0748    0.0000 C   0  0  0  0  0  0  0  0  0  0  0  0
   -0.9566    0.5450    0.0000 C   0  0  0  0  0  0  0  0  0  0  0  0
   -2.1170    1.4955    0.0000 O   0  0  0  0  0  0  0  0  0  0  0  0
   -1.1995   -0.9352    0.0000 C   0  0  0  0  0  0  0  0  0  0  0  0
   -2.4529   -0.1112    0.0000 C   0  0  0  0  0  0  0  0  0  0  0  0
  2  1  1  6
  2  3  1  0
  3  4  1  0
  4  5  1  0
  5  6  1  0
  5  7  2  0
  2  8  1  0
  8  9  1  6
  9 10  1  0
 11 10  1  6
 11 12  1  0
 12 13  1  1
 13 14  1  1
 13 15  1  0
 16 15  1  1
 16 17  1  0
 17 18  1  0
 18 19  1  1
 18 20  1  0
 20 21  1  0
 21 22  1  0
 22 23  1  6
 22 24  1  0
 24 25  1  6
 25 26  1  0
 26 27  1  1
 26 28  1  0
 28 29  1  6
 28  8  1  0
 28 11  1  0
 24 12  1  0
 22 16  1  0
M  END
>  <MS_ID>  (347) 
MS0365

>  <SMILES>  (347) 
C[C@H](CCC(N)=O)[C@H]1CC[C@H]2[C@@H]3[C@H](O)C[C@@H]4C[C@H](O)CC[C@]4(C)[C@H]3C[C@H](O)[C@]12C

>  <Structure_dimension>  (347) 
2D

$$$$
MS0366
     RDKit          2D

 34 37  0  0  0  0  0  0  0  0999 V2000
   -2.7457   -3.8277    0.0000 C   0  0  0  0  0  0  0  0  0  0  0  0
   -1.9007   -2.5883    0.0000 C   0  0  0  0  0  0  0  0  0  0  0  0
   -2.5515   -1.2369    0.0000 C   0  0  0  0  0  0  0  0  0  0  0  0
   -4.0473   -1.1247    0.0000 C   0  0  0  0  0  0  0  0  0  0  0  0
   -4.6981    0.2267    0.0000 C   0  0  0  0  0  0  0  0  0  0  0  0
   -3.8531    1.4661    0.0000 O   0  0  0  0  0  0  0  0  0  0  0  0
   -6.1939    0.3389    0.0000 N   0  0  0  0  0  0  0  0  0  0  0  0
   -6.8447    1.6903    0.0000 O   0  0  0  0  0  0  0  0  0  0  0  0
   -8.3405    1.8025    0.0000 S   0  0  0  0  0  0  0  0  0  0  0  0
   -8.4526    0.3067    0.0000 O   0  0  0  0  0  0  0  0  0  0  0  0
   -8.2283    3.2983    0.0000 O   0  0  0  0  0  0  0  0  0  0  0  0
   -9.8363    1.9146    0.0000 O   0  0  0  0  0  0  0  0  0  0  0  0
   -0.4049   -2.7005    0.0000 C   0  0  0  0  0  0  0  0  0  0  0  0
    0.3836   -3.9765    0.0000 C   0  0  0  0  0  0  0  0  0  0  0  0
    1.8409   -3.6209    0.0000 C   0  0  0  0  0  0  0  0  0  0  0  0
    1.9530   -2.1251    0.0000 C   0  0  0  0  0  0  0  0  0  0  0  0
    3.1396   -1.2076    0.0000 C   0  0  0  0  0  0  0  0  0  0  0  0
    4.5276   -1.7764    0.0000 C   0  0  0  0  0  0  0  0  0  0  0  0
    4.7289   -3.2629    0.0000 O   0  0  0  0  0  0  0  0  0  0  0  0
    5.7142   -0.8589    0.0000 C   0  0  0  0  0  0  0  0  0  0  0  0
    5.5129    0.6276    0.0000 C   0  0  0  0  0  0  0  0  0  0  0  0
    6.6995    1.5451    0.0000 C   0  0  0  0  0  0  0  0  0  0  0  0
    6.4982    3.0315    0.0000 C   0  0  0  0  0  0  0  0  0  0  0  0
    7.6848    3.9491    0.0000 O   0  0  0  0  0  0  0  0  0  0  0  0
    5.1102    3.6004    0.0000 C   0  0  0  0  0  0  0  0  0  0  0  0
    3.9236    2.6829    0.0000 C   0  0  0  0  0  0  0  0  0  0  0  0
    4.1249    1.1964    0.0000 C   0  0  0  0  0  0  0  0  0  0  0  0
    2.7370    1.7653    0.0000 C   0  0  0  0  0  0  0  0  0  0  0  0
    2.9383    0.2789    0.0000 C   0  0  0  0  0  0  0  0  0  0  0  0
    1.5504    0.8477    0.0000 C   0  0  0  0  0  0  0  0  0  0  0  0
    0.3637   -0.0698    0.0000 C   0  0  0  0  0  0  0  0  0  0  0  0
   -1.0242    0.4991    0.0000 O   0  0  0  0  0  0  0  0  0  0  0  0
    0.5650   -1.5562    0.0000 C   0  0  0  0  0  0  0  0  0  0  0  0
   -0.8748   -1.1356    0.0000 C   0  0  0  0  0  0  0  0  0  0  0  0
  2  1  1  6
  2  3  1  0
  3  4  1  0
  4  5  1  0
  5  6  2  0
  5  7  1  0
  7  8  1  0
  8  9  1  0
  9 10  2  0
  9 11  2  0
  9 12  1  0
  2 13  1  0
 13 14  1  6
 14 15  1  0
 16 15  1  6
 16 17  1  0
 17 18  1  1
 18 19  1  1
 18 20  1  0
 21 20  1  1
 21 22  1  0
 22 23  1  0
 23 24  1  1
 23 25  1  0
 25 26  1  0
 26 27  1  0
 27 28  1  6
 27 29  1  0
 29 30  1  6
 30 31  1  0
 31 32  1  1
 31 33  1  0
 33 34  1  6
 33 13  1  0
 33 16  1  0
 29 17  1  0
 27 21  1  0
M  END
>  <MS_ID>  (348) 
MS0366

>  <SMILES>  (348) 
C[C@H](CCC(=O)NOS(=O)(=O)O)[C@H]1CC[C@H]2[C@@H]3[C@H](O)C[C@@H]4C[C@H](O)CC[C@]4(C)[C@H]3C[C@H](O)[C@]12C

>  <Structure_dimension>  (348) 
2D

$$$$
MS0367
     RDKit          2D

 29 32  0  0  0  0  0  0  0  0999 V2000
   -5.3431   -2.0646    0.0000 C   0  0  0  0  0  0  0  0  0  0  0  0
   -4.1296   -1.1829    0.0000 C   0  0  0  0  0  0  0  0  0  0  0  0
   -4.2863    0.3088    0.0000 C   0  0  0  0  0  0  0  0  0  0  0  0
   -5.6566    0.9190    0.0000 C   0  0  0  0  0  0  0  0  0  0  0  0
   -5.8134    2.4108    0.0000 C   0  0  0  0  0  0  0  0  0  0  0  0
   -4.5998    3.2924    0.0000 O   0  0  0  0  0  0  0  0  0  0  0  0
   -7.1837    3.0209    0.0000 O   0  0  0  0  0  0  0  0  0  0  0  0
   -2.7593   -1.7931    0.0000 C   0  0  0  0  0  0  0  0  0  0  0  0
   -2.4474   -3.2603    0.0000 C   0  0  0  0  0  0  0  0  0  0  0  0
   -0.9557   -3.4171    0.0000 C   0  0  0  0  0  0  0  0  0  0  0  0
   -0.3455   -2.0468    0.0000 C   0  0  0  0  0  0  0  0  0  0  0  0
    1.0811   -1.5833    0.0000 C   0  0  0  0  0  0  0  0  0  0  0  0
    2.1958   -2.5871    0.0000 C   0  0  0  0  0  0  0  0  0  0  0  0
    3.6224   -2.1236    0.0000 C   0  0  0  0  0  0  0  0  0  0  0  0
    3.9343   -0.6564    0.0000 C   0  0  0  0  0  0  0  0  0  0  0  0
    5.3609   -0.1929    0.0000 C   0  0  0  0  0  0  0  0  0  0  0  0
    5.6728    1.2743    0.0000 C   0  0  0  0  0  0  0  0  0  0  0  0
    7.0994    1.7378    0.0000 C   0  0  0  0  0  0  0  0  0  0  0  0
    8.2141    0.7341    0.0000 O   0  0  0  0  0  0  0  0  0  0  0  0
    4.5581    2.2781    0.0000 C   0  0  0  0  0  0  0  0  0  0  0  0
    3.1315    1.8146    0.0000 C   0  0  0  0  0  0  0  0  0  0  0  0
    2.8196    0.3474    0.0000 C   0  0  0  0  0  0  0  0  0  0  0  0
    1.7049    1.3511    0.0000 C   0  0  0  0  0  0  0  0  0  0  0  0
    1.3930   -0.1161    0.0000 C   0  0  0  0  0  0  0  0  0  0  0  0
    0.2783    0.8876    0.0000 C   0  0  0  0  0  0  0  0  0  0  0  0
   -1.1483    0.4241    0.0000 C   0  0  0  0  0  0  0  0  0  0  0  0
   -2.2630    1.4278    0.0000 O   0  0  0  0  0  0  0  0  0  0  0  0
   -1.4602   -1.0431    0.0000 C   0  0  0  0  0  0  0  0  0  0  0  0
   -2.6737   -0.1614    0.0000 C   0  0  0  0  0  0  0  0  0  0  0  0
  2  1  1  6
  2  3  1  0
  3  4  1  0
  4  5  1  0
  5  6  2  0
  5  7  1  0
  2  8  1  0
  8  9  1  6
  9 10  1  0
 11 10  1  6
 11 12  1  0
 12 13  1  1
 13 14  1  0
 15 14  1  1
 15 16  1  0
 16 17  1  0
 17 18  1  1
 18 19  1  0
 17 20  1  0
 20 21  1  0
 21 22  1  0
 22 23  1  6
 22 24  1  0
 24 25  1  6
 25 26  1  0
 26 27  1  1
 26 28  1  0
 28 29  1  6
 28  8  1  0
 28 11  1  0
 24 12  1  0
 22 15  1  0
M  END
>  <MS_ID>  (349) 
MS0367

>  <SMILES>  (349) 
C[C@H](CCC(=O)O)[C@H]1CC[C@H]2[C@@H]3CC[C@@H]4C[C@H](CO)CC[C@]4(C)[C@H]3C[C@H](O)[C@]12C

>  <Structure_dimension>  (349) 
2D

$$$$
MS0369
     RDKit          2D

 28 31  0  0  0  0  0  0  0  0999 V2000
   -5.0096   -2.1352    0.0000 C   0  0  0  0  0  0  0  0  0  0  0  0
   -3.8132   -1.2303    0.0000 C   0  0  0  0  0  0  0  0  0  0  0  0
   -3.9987    0.2582    0.0000 C   0  0  0  0  0  0  0  0  0  0  0  0
   -5.3805    0.8418    0.0000 C   0  0  0  0  0  0  0  0  0  0  0  0
   -5.5659    2.3303    0.0000 C   0  0  0  0  0  0  0  0  0  0  0  0
   -6.9477    2.9140    0.0000 O   0  0  0  0  0  0  0  0  0  0  0  0
   -4.3695    3.2351    0.0000 S   0  0  0  0  0  0  0  0  0  0  0  0
   -2.4315   -1.8140    0.0000 C   0  0  0  0  0  0  0  0  0  0  0  0
   -2.0914   -3.2749    0.0000 C   0  0  0  0  0  0  0  0  0  0  0  0
   -0.5969   -3.4030    0.0000 C   0  0  0  0  0  0  0  0  0  0  0  0
   -0.0133   -2.0212    0.0000 C   0  0  0  0  0  0  0  0  0  0  0  0
    1.4041   -1.5304    0.0000 C   0  0  0  0  0  0  0  0  0  0  0  0
    2.5379   -2.5125    0.0000 C   0  0  0  0  0  0  0  0  0  0  0  0
    3.9554   -2.0216    0.0000 C   0  0  0  0  0  0  0  0  0  0  0  0
    4.2390   -0.5487    0.0000 C   0  0  0  0  0  0  0  0  0  0  0  0
    5.6564   -0.0578    0.0000 C   0  0  0  0  0  0  0  0  0  0  0  0
    5.9400    1.4151    0.0000 C   0  0  0  0  0  0  0  0  0  0  0  0
    7.3574    1.9060    0.0000 O   0  0  0  0  0  0  0  0  0  0  0  0
    4.8062    2.3972    0.0000 C   0  0  0  0  0  0  0  0  0  0  0  0
    3.3888    1.9064    0.0000 C   0  0  0  0  0  0  0  0  0  0  0  0
    3.1052    0.4334    0.0000 C   0  0  0  0  0  0  0  0  0  0  0  0
    1.9714    1.4155    0.0000 C   0  0  0  0  0  0  0  0  0  0  0  0
    1.6878   -0.0574    0.0000 C   0  0  0  0  0  0  0  0  0  0  0  0
    0.5540    0.9246    0.0000 C   0  0  0  0  0  0  0  0  0  0  0  0
   -0.8635    0.4338    0.0000 C   0  0  0  0  0  0  0  0  0  0  0  0
   -1.9973    1.4159    0.0000 O   0  0  0  0  0  0  0  0  0  0  0  0
   -1.1471   -1.0392    0.0000 C   0  0  0  0  0  0  0  0  0  0  0  0
   -2.3773   -0.1810    0.0000 C   0  0  0  0  0  0  0  0  0  0  0  0
  2  1  1  6
  2  3  1  0
  3  4  1  0
  4  5  1  0
  5  6  2  0
  5  7  1  0
  2  8  1  0
  8  9  1  6
  9 10  1  0
 11 10  1  6
 11 12  1  0
 12 13  1  1
 13 14  1  0
 15 14  1  1
 15 16  1  0
 16 17  1  0
 17 18  2  0
 17 19  1  0
 19 20  1  0
 20 21  1  0
 21 22  1  6
 21 23  1  0
 23 24  1  6
 24 25  1  0
 25 26  1  1
 25 27  1  0
 27 28  1  6
 27  8  1  0
 27 11  1  0
 23 12  1  0
 21 15  1  0
M  END
>  <MS_ID>  (350) 
MS0369

>  <SMILES>  (350) 
C[C@H](CCC(=O)S)[C@H]1CC[C@H]2[C@@H]3CC[C@@H]4CC(=O)CC[C@]4(C)[C@H]3C[C@H](O)[C@]12C

>  <Structure_dimension>  (350) 
2D

$$$$
MS0370
     RDKit          2D

 30 33  0  0  0  0  0  0  0  0999 V2000
   -4.7023   -2.6242    0.0000 C   0  0  0  0  0  0  0  0  0  0  0  0
   -3.5985   -1.6085    0.0000 C   0  0  0  0  0  0  0  0  0  0  0  0
   -3.9263   -0.1448    0.0000 C   0  0  0  0  0  0  0  0  0  0  0  0
   -5.3578    0.3033    0.0000 C   0  0  0  0  0  0  0  0  0  0  0  0
   -5.6855    1.7670    0.0000 C   0  0  0  0  0  0  0  0  0  0  0  0
   -7.1171    2.2151    0.0000 O   0  0  0  0  0  0  0  0  0  0  0  0
   -4.5818    2.7827    0.0000 O   0  0  0  0  0  0  0  0  0  0  0  0
   -4.9095    4.2465    0.0000 O   0  0  0  0  0  0  0  0  0  0  0  0
   -2.1670   -2.0566    0.0000 C   0  0  0  0  0  0  0  0  0  0  0  0
   -1.6881   -3.4780    0.0000 C   0  0  0  0  0  0  0  0  0  0  0  0
   -0.1881   -3.4618    0.0000 C   0  0  0  0  0  0  0  0  0  0  0  0
    0.2599   -2.0303    0.0000 C   0  0  0  0  0  0  0  0  0  0  0  0
    1.6235   -1.4054    0.0000 C   0  0  0  0  0  0  0  0  0  0  0  0
    2.8465   -2.2738    0.0000 C   0  0  0  0  0  0  0  0  0  0  0  0
    2.7059   -3.7672    0.0000 O   0  0  0  0  0  0  0  0  0  0  0  0
    4.2102   -1.6489    0.0000 C   0  0  0  0  0  0  0  0  0  0  0  0
    4.3508   -0.1555    0.0000 C   0  0  0  0  0  0  0  0  0  0  0  0
    5.7144    0.4694    0.0000 C   0  0  0  0  0  0  0  0  0  0  0  0
    5.8550    1.9628    0.0000 C   0  0  0  0  0  0  0  0  0  0  0  0
    7.2187    2.5877    0.0000 O   0  0  0  0  0  0  0  0  0  0  0  0
    4.6320    2.8313    0.0000 C   0  0  0  0  0  0  0  0  0  0  0  0
    3.2684    2.2063    0.0000 C   0  0  0  0  0  0  0  0  0  0  0  0
    3.1278    0.7130    0.0000 C   0  0  0  0  0  0  0  0  0  0  0  0
    1.9048    1.5814    0.0000 C   0  0  0  0  0  0  0  0  0  0  0  0
    1.7642    0.0880    0.0000 C   0  0  0  0  0  0  0  0  0  0  0  0
    0.5411    0.9565    0.0000 C   0  0  0  0  0  0  0  0  0  0  0  0
   -0.8225    0.3316    0.0000 C   0  0  0  0  0  0  0  0  0  0  0  0
   -2.0455    1.2001    0.0000 O   0  0  0  0  0  0  0  0  0  0  0  0
   -0.9631   -1.1618    0.0000 C   0  0  0  0  0  0  0  0  0  0  0  0
   -2.2702   -0.4259    0.0000 C   0  0  0  0  0  0  0  0  0  0  0  0
  2  1  1  6
  2  3  1  0
  3  4  1  0
  4  5  1  0
  5  6  2  0
  5  7  1  0
  7  8  1  0
  2  9  1  0
  9 10  1  6
 10 11  1  0
 12 11  1  6
 12 13  1  0
 13 14  1  1
 14 15  1  1
 14 16  1  0
 17 16  1  1
 17 18  1  0
 18 19  1  0
 19 20  2  0
 19 21  1  0
 21 22  1  0
 22 23  1  0
 23 24  1  6
 23 25  1  0
 25 26  1  6
 26 27  1  0
 27 28  1  1
 27 29  1  0
 29 30  1  6
 29  9  1  0
 29 12  1  0
 25 13  1  0
 23 17  1  0
M  END
>  <MS_ID>  (351) 
MS0370

>  <SMILES>  (351) 
C[C@H](CCC(=O)OO)[C@H]1CC[C@H]2[C@@H]3[C@H](O)C[C@@H]4CC(=O)CC[C@]4(C)[C@H]3C[C@H](O)[C@]12C

>  <Structure_dimension>  (351) 
2D

$$$$
MS0371
     RDKit          2D

 28 31  0  0  0  0  0  0  0  0999 V2000
   -5.0096   -2.1352    0.0000 C   0  0  0  0  0  0  0  0  0  0  0  0
   -3.8132   -1.2303    0.0000 C   0  0  0  0  0  0  0  0  0  0  0  0
   -3.9987    0.2582    0.0000 C   0  0  0  0  0  0  0  0  0  0  0  0
   -5.3805    0.8418    0.0000 C   0  0  0  0  0  0  0  0  0  0  0  0
   -5.5659    2.3303    0.0000 C   0  0  0  0  0  0  0  0  0  0  0  0
   -6.9477    2.9140    0.0000 O   0  0  0  0  0  0  0  0  0  0  0  0
   -4.3695    3.2351    0.0000 S   0  0  0  0  0  0  0  0  0  0  0  0
   -2.4315   -1.8140    0.0000 C   0  0  0  0  0  0  0  0  0  0  0  0
   -2.0914   -3.2749    0.0000 C   0  0  0  0  0  0  0  0  0  0  0  0
   -0.5969   -3.4030    0.0000 C   0  0  0  0  0  0  0  0  0  0  0  0
   -0.0133   -2.0212    0.0000 C   0  0  0  0  0  0  0  0  0  0  0  0
    1.4041   -1.5304    0.0000 C   0  0  0  0  0  0  0  0  0  0  0  0
    2.5379   -2.5125    0.0000 C   0  0  0  0  0  0  0  0  0  0  0  0
    3.9554   -2.0216    0.0000 C   0  0  0  0  0  0  0  0  0  0  0  0
    4.2390   -0.5487    0.0000 C   0  0  0  0  0  0  0  0  0  0  0  0
    5.6564   -0.0578    0.0000 C   0  0  0  0  0  0  0  0  0  0  0  0
    5.9400    1.4151    0.0000 C   0  0  0  0  0  0  0  0  0  0  0  0
    7.3574    1.9060    0.0000 O   0  0  0  0  0  0  0  0  0  0  0  0
    4.8062    2.3972    0.0000 C   0  0  0  0  0  0  0  0  0  0  0  0
    3.3888    1.9064    0.0000 C   0  0  0  0  0  0  0  0  0  0  0  0
    3.1052    0.4334    0.0000 C   0  0  0  0  0  0  0  0  0  0  0  0
    1.9714    1.4155    0.0000 C   0  0  0  0  0  0  0  0  0  0  0  0
    1.6878   -0.0574    0.0000 C   0  0  0  0  0  0  0  0  0  0  0  0
    0.5540    0.9246    0.0000 C   0  0  0  0  0  0  0  0  0  0  0  0
   -0.8635    0.4338    0.0000 C   0  0  0  0  0  0  0  0  0  0  0  0
   -1.9973    1.4159    0.0000 O   0  0  0  0  0  0  0  0  0  0  0  0
   -1.1471   -1.0392    0.0000 C   0  0  0  0  0  0  0  0  0  0  0  0
   -2.3773   -0.1810    0.0000 C   0  0  0  0  0  0  0  0  0  0  0  0
  2  1  1  6
  2  3  1  0
  3  4  1  0
  4  5  1  0
  5  6  2  0
  5  7  1  0
  2  8  1  0
  8  9  1  6
  9 10  1  0
 11 10  1  6
 11 12  1  0
 12 13  1  1
 13 14  1  0
 15 14  1  1
 15 16  1  0
 16 17  1  0
 17 18  1  1
 17 19  1  0
 19 20  1  0
 20 21  1  0
 21 22  1  6
 21 23  1  0
 23 24  1  6
 24 25  1  0
 25 26  2  0
 25 27  1  0
 27 28  1  6
 27  8  1  0
 27 11  1  0
 23 12  1  0
 21 15  1  0
M  END
>  <MS_ID>  (352) 
MS0371

>  <SMILES>  (352) 
C[C@H](CCC(=O)S)[C@H]1CC[C@H]2[C@@H]3CC[C@@H]4C[C@H](O)CC[C@]4(C)[C@H]3CC(=O)[C@]12C

>  <Structure_dimension>  (352) 
2D

$$$$
MS0372
     RDKit          2D

 31 34  0  0  0  0  0  0  0  0999 V2000
   -8.8672    3.1400    0.0000 C   0  0  0  0  0  0  0  0  0  0  0  0
   -7.3980    2.8376    0.0000 O   0  0  0  0  0  0  0  0  0  0  0  0
   -6.9253    1.4140    0.0000 C   0  0  0  0  0  0  0  0  0  0  0  0
   -5.4561    1.1115    0.0000 C   0  0  0  0  0  0  0  0  0  0  0  0
   -4.4596    2.2326    0.0000 O   0  0  0  0  0  0  0  0  0  0  0  0
   -4.9835   -0.3121    0.0000 C   0  0  0  0  0  0  0  0  0  0  0  0
   -3.5143   -0.6145    0.0000 C   0  0  0  0  0  0  0  0  0  0  0  0
   -3.0416   -2.0381    0.0000 C   0  0  0  0  0  0  0  0  0  0  0  0
   -4.0382   -3.1592    0.0000 C   0  0  0  0  0  0  0  0  0  0  0  0
   -1.5724   -2.3406    0.0000 C   0  0  0  0  0  0  0  0  0  0  0  0
   -0.9536   -3.7070    0.0000 C   0  0  0  0  0  0  0  0  0  0  0  0
    0.5372   -3.5406    0.0000 C   0  0  0  0  0  0  0  0  0  0  0  0
    0.8396   -2.0714    0.0000 C   0  0  0  0  0  0  0  0  0  0  0  0
    2.1338   -1.3131    0.0000 C   0  0  0  0  0  0  0  0  0  0  0  0
    3.4377   -2.0548    0.0000 C   0  0  0  0  0  0  0  0  0  0  0  0
    3.4473   -3.5547    0.0000 O   0  0  0  0  0  0  0  0  0  0  0  0
    4.7319   -1.2965    0.0000 C   0  0  0  0  0  0  0  0  0  0  0  0
    4.7223    0.2035    0.0000 C   0  0  0  0  0  0  0  0  0  0  0  0
    6.0165    0.9618    0.0000 C   0  0  0  0  0  0  0  0  0  0  0  0
    6.0069    2.4618    0.0000 C   0  0  0  0  0  0  0  0  0  0  0  0
    7.3011    3.2201    0.0000 O   0  0  0  0  0  0  0  0  0  0  0  0
    4.7030    3.2034    0.0000 C   0  0  0  0  0  0  0  0  0  0  0  0
    3.4088    2.4451    0.0000 C   0  0  0  0  0  0  0  0  0  0  0  0
    3.4184    0.9452    0.0000 C   0  0  0  0  0  0  0  0  0  0  0  0
    2.1146    1.6868    0.0000 C   0  0  0  0  0  0  0  0  0  0  0  0
    2.1242    0.1869    0.0000 C   0  0  0  0  0  0  0  0  0  0  0  0
    0.8204    0.9285    0.0000 C   0  0  0  0  0  0  0  0  0  0  0  0
   -0.4738    0.1702    0.0000 C   0  0  0  0  0  0  0  0  0  0  0  0
   -1.7776    0.9119    0.0000 O   0  0  0  0  0  0  0  0  0  0  0  0
   -0.4642   -1.3298    0.0000 C   0  0  0  0  0  0  0  0  0  0  0  0
   -1.8384   -0.7284    0.0000 C   0  0  0  0  0  0  0  0  0  0  0  0
  1  2  1  0
  2  3  1  0
  3  4  1  0
  4  5  2  0
  4  6  1  0
  6  7  1  0
  7  8  1  0
  8  9  1  6
  8 10  1  0
 10 11  1  6
 11 12  1  0
 13 12  1  6
 13 14  1  0
 14 15  1  1
 15 16  1  1
 15 17  1  0
 18 17  1  1
 18 19  1  0
 19 20  1  0
 20 21  1  1
 20 22  1  0
 22 23  1  0
 23 24  1  0
 24 25  1  6
 24 26  1  0
 26 27  1  6
 27 28  1  0
 28 29  1  1
 28 30  1  0
 30 31  1  6
 30 10  1  0
 30 13  1  0
 26 14  1  0
 24 18  1  0
M  END
>  <MS_ID>  (353) 
MS0372

>  <SMILES>  (353) 
COCC(=O)CC[C@@H](C)[C@H]1CC[C@H]2[C@@H]3[C@H](O)C[C@@H]4C[C@H](O)CC[C@]4(C)[C@H]3C[C@H](O)[C@]12C

>  <Structure_dimension>  (353) 
2D

$$$$
MS0373
     RDKit          2D

 31 34  0  0  0  0  0  0  0  0999 V2000
   -3.7132   -3.4566    0.0000 C   0  0  0  0  0  0  0  0  0  0  0  0
   -2.7767   -2.2848    0.0000 C   0  0  0  0  0  0  0  0  0  0  0  0
   -3.3232   -0.8879    0.0000 C   0  0  0  0  0  0  0  0  0  0  0  0
   -4.8062   -0.6628    0.0000 C   0  0  0  0  0  0  0  0  0  0  0  0
   -5.3527    0.7341    0.0000 C   0  0  0  0  0  0  0  0  0  0  0  0
   -4.4162    1.9059    0.0000 O   0  0  0  0  0  0  0  0  0  0  0  0
   -6.8357    0.9593    0.0000 C   0  0  0  0  0  0  0  0  0  0  0  0
   -7.3822    2.3562    0.0000 C   0  0  0  0  0  0  0  0  0  0  0  0
   -6.4457    3.5279    0.0000 O   0  0  0  0  0  0  0  0  0  0  0  0
   -8.8652    2.5814    0.0000 O   0  0  0  0  0  0  0  0  0  0  0  0
   -1.2937   -2.5100    0.0000 C   0  0  0  0  0  0  0  0  0  0  0  0
   -0.6042   -3.8421    0.0000 C   0  0  0  0  0  0  0  0  0  0  0  0
    0.8758   -3.5980    0.0000 C   0  0  0  0  0  0  0  0  0  0  0  0
    1.1010   -2.1150    0.0000 C   0  0  0  0  0  0  0  0  0  0  0  0
    2.3537   -1.2900    0.0000 C   0  0  0  0  0  0  0  0  0  0  0  0
    3.6946   -1.9624    0.0000 C   0  0  0  0  0  0  0  0  0  0  0  0
    3.7827   -3.4598    0.0000 O   0  0  0  0  0  0  0  0  0  0  0  0
    4.9473   -1.1374    0.0000 C   0  0  0  0  0  0  0  0  0  0  0  0
    4.8592    0.3600    0.0000 C   0  0  0  0  0  0  0  0  0  0  0  0
    6.1120    1.1850    0.0000 C   0  0  0  0  0  0  0  0  0  0  0  0
    6.0239    2.6824    0.0000 C   0  0  0  0  0  0  0  0  0  0  0  0
    7.2767    3.5074    0.0000 O   0  0  0  0  0  0  0  0  0  0  0  0
    4.6831    3.3548    0.0000 C   0  0  0  0  0  0  0  0  0  0  0  0
    3.4303    2.5298    0.0000 C   0  0  0  0  0  0  0  0  0  0  0  0
    3.5184    1.0324    0.0000 C   0  0  0  0  0  0  0  0  0  0  0  0
    2.1776    1.7048    0.0000 C   0  0  0  0  0  0  0  0  0  0  0  0
    2.2656    0.2074    0.0000 C   0  0  0  0  0  0  0  0  0  0  0  0
    0.9248    0.8798    0.0000 C   0  0  0  0  0  0  0  0  0  0  0  0
   -0.3279    0.0548    0.0000 C   0  0  0  0  0  0  0  0  0  0  0  0
   -0.2399   -1.4426    0.0000 C   0  0  0  0  0  0  0  0  0  0  0  0
   -1.6436   -0.9140    0.0000 C   0  0  0  0  0  0  0  0  0  0  0  0
  2  1  1  6
  2  3  1  0
  3  4  1  0
  4  5  1  0
  5  6  2  0
  5  7  1  0
  7  8  1  0
  8  9  2  0
  8 10  1  0
  2 11  1  0
 11 12  1  6
 12 13  1  0
 14 13  1  6
 14 15  1  0
 15 16  1  1
 16 17  2  0
 16 18  1  0
 19 18  1  1
 19 20  1  0
 20 21  1  0
 21 22  1  1
 21 23  1  0
 23 24  1  0
 24 25  1  0
 25 26  1  6
 25 27  1  0
 27 28  1  6
 28 29  1  0
 29 30  1  0
 30 31  1  6
 30 11  1  0
 30 14  1  0
 27 15  1  0
 25 19  1  0
M  END
>  <MS_ID>  (354) 
MS0373

>  <SMILES>  (354) 
C[C@H](CCC(=O)CC(=O)O)[C@H]1CC[C@H]2[C@@H]3C(=O)C[C@@H]4C[C@H](O)CC[C@]4(C)[C@H]3CC[C@]12C

>  <Structure_dimension>  (354) 
2D

$$$$
MS0374
     RDKit          2D

 30 33  0  0  0  0  0  0  0  0999 V2000
   -5.0361   -2.2421    0.0000 C   0  0  0  0  0  0  0  0  0  0  0  0
   -3.9151   -1.2454    0.0000 C   0  0  0  0  0  0  0  0  0  0  0  0
   -4.2177    0.2237    0.0000 C   0  0  0  0  0  0  0  0  0  0  0  0
   -5.6413    0.6963    0.0000 C   0  0  0  0  0  0  0  0  0  0  0  0
   -5.9439    2.1654    0.0000 C   0  0  0  0  0  0  0  0  0  0  0  0
   -4.8228    3.1621    0.0000 O   0  0  0  0  0  0  0  0  0  0  0  0
   -7.3675    2.6380    0.0000 O   0  0  0  0  0  0  0  0  0  0  0  0
   -2.4915   -1.7180    0.0000 C   0  0  0  0  0  0  0  0  0  0  0  0
   -2.0370   -3.1475    0.0000 C   0  0  0  0  0  0  0  0  0  0  0  0
   -0.5370   -3.1570    0.0000 C   0  0  0  0  0  0  0  0  0  0  0  0
   -0.0645   -1.7333    0.0000 C   0  0  0  0  0  0  0  0  0  0  0  0
    1.3097   -1.1319    0.0000 C   0  0  0  0  0  0  0  0  0  0  0  0
    2.5176   -2.0213    0.0000 C   0  0  0  0  0  0  0  0  0  0  0  0
    2.3514   -3.5120    0.0000 C   0  0  0  0  0  0  0  0  0  0  0  0
    3.5593   -4.4014    0.0000 O   0  0  0  0  0  0  0  0  0  0  0  0
    3.8918   -1.4198    0.0000 C   0  0  0  0  0  0  0  0  0  0  0  0
    4.0580    0.0709    0.0000 C   0  0  0  0  0  0  0  0  0  0  0  0
    5.4321    0.6723    0.0000 C   0  0  0  0  0  0  0  0  0  0  0  0
    5.5984    2.1631    0.0000 C   0  0  0  0  0  0  0  0  0  0  0  0
    6.9725    2.7645    0.0000 O   0  0  0  0  0  0  0  0  0  0  0  0
    4.3904    3.0524    0.0000 C   0  0  0  0  0  0  0  0  0  0  0  0
    3.0163    2.4510    0.0000 C   0  0  0  0  0  0  0  0  0  0  0  0
    2.8501    0.9603    0.0000 C   0  0  0  0  0  0  0  0  0  0  0  0
    1.6421    1.8496    0.0000 C   0  0  0  0  0  0  0  0  0  0  0  0
    1.4759    0.3588    0.0000 C   0  0  0  0  0  0  0  0  0  0  0  0
    0.2680    1.2482    0.0000 C   0  0  0  0  0  0  0  0  0  0  0  0
   -1.1062    0.6468    0.0000 C   0  0  0  0  0  0  0  0  0  0  0  0
   -2.3141    1.5361    0.0000 O   0  0  0  0  0  0  0  0  0  0  0  0
   -1.2724   -0.8440    0.0000 C   0  0  0  0  0  0  0  0  0  0  0  0
   -2.5667   -0.0858    0.0000 C   0  0  0  0  0  0  0  0  0  0  0  0
  2  1  1  6
  2  3  1  0
  3  4  1  0
  4  5  1  0
  5  6  2  0
  5  7  1  0
  2  8  1  0
  8  9  1  6
  9 10  1  0
 11 10  1  6
 11 12  1  0
 12 13  1  1
 13 14  1  1
 14 15  1  0
 13 16  1  0
 17 16  1  1
 17 18  1  0
 18 19  1  0
 19 20  2  0
 19 21  1  0
 21 22  1  0
 22 23  1  0
 23 24  1  6
 23 25  1  0
 25 26  1  6
 26 27  1  0
 27 28  1  1
 27 29  1  0
 29 30  1  6
 29  8  1  0
 29 11  1  0
 25 12  1  0
 23 17  1  0
M  END
>  <MS_ID>  (355) 
MS0374

>  <SMILES>  (355) 
C[C@H](CCC(=O)O)[C@H]1CC[C@H]2[C@@H]3[C@H](CO)C[C@@H]4CC(=O)CC[C@]4(C)[C@H]3C[C@H](O)[C@]12C

>  <Structure_dimension>  (355) 
2D

$$$$
MS0375
     RDKit          2D

 31 34  0  0  0  0  0  0  0  0999 V2000
   -4.0382   -3.1592    0.0000 C   0  0  0  0  0  0  0  0  0  0  0  0
   -3.0416   -2.0381    0.0000 C   0  0  0  0  0  0  0  0  0  0  0  0
   -3.5143   -0.6145    0.0000 C   0  0  0  0  0  0  0  0  0  0  0  0
   -4.9835   -0.3121    0.0000 C   0  0  0  0  0  0  0  0  0  0  0  0
   -5.4561    1.1115    0.0000 C   0  0  0  0  0  0  0  0  0  0  0  0
   -4.4596    2.2326    0.0000 O   0  0  0  0  0  0  0  0  0  0  0  0
   -6.9253    1.4140    0.0000 C   0  0  0  0  0  0  0  0  0  0  0  0
   -7.3980    2.8376    0.0000 C   0  0  0  0  0  0  0  0  0  0  0  0
   -8.8672    3.1400    0.0000 O   0  0  0  0  0  0  0  0  0  0  0  0
   -1.5724   -2.3406    0.0000 C   0  0  0  0  0  0  0  0  0  0  0  0
   -0.9536   -3.7070    0.0000 C   0  0  0  0  0  0  0  0  0  0  0  0
    0.5372   -3.5406    0.0000 C   0  0  0  0  0  0  0  0  0  0  0  0
    0.8396   -2.0714    0.0000 C   0  0  0  0  0  0  0  0  0  0  0  0
    2.1338   -1.3131    0.0000 C   0  0  0  0  0  0  0  0  0  0  0  0
    3.4377   -2.0548    0.0000 C   0  0  0  0  0  0  0  0  0  0  0  0
    3.4473   -3.5547    0.0000 O   0  0  0  0  0  0  0  0  0  0  0  0
    4.7319   -1.2965    0.0000 C   0  0  0  0  0  0  0  0  0  0  0  0
    4.7223    0.2035    0.0000 C   0  0  0  0  0  0  0  0  0  0  0  0
    6.0165    0.9618    0.0000 C   0  0  0  0  0  0  0  0  0  0  0  0
    6.0069    2.4618    0.0000 C   0  0  0  0  0  0  0  0  0  0  0  0
    7.3011    3.2201    0.0000 O   0  0  0  0  0  0  0  0  0  0  0  0
    4.7030    3.2034    0.0000 C   0  0  0  0  0  0  0  0  0  0  0  0
    3.4088    2.4451    0.0000 C   0  0  0  0  0  0  0  0  0  0  0  0
    3.4184    0.9452    0.0000 C   0  0  0  0  0  0  0  0  0  0  0  0
    2.1146    1.6868    0.0000 C   0  0  0  0  0  0  0  0  0  0  0  0
    2.1242    0.1869    0.0000 C   0  0  0  0  0  0  0  0  0  0  0  0
    0.8204    0.9285    0.0000 C   0  0  0  0  0  0  0  0  0  0  0  0
   -0.4738    0.1702    0.0000 C   0  0  0  0  0  0  0  0  0  0  0  0
   -1.7776    0.9119    0.0000 O   0  0  0  0  0  0  0  0  0  0  0  0
   -0.4642   -1.3298    0.0000 C   0  0  0  0  0  0  0  0  0  0  0  0
   -1.8384   -0.7284    0.0000 C   0  0  0  0  0  0  0  0  0  0  0  0
  2  1  1  6
  2  3  1  0
  3  4  1  0
  4  5  1  0
  5  6  2  0
  5  7  1  0
  7  8  1  0
  8  9  1  0
  2 10  1  0
 10 11  1  6
 11 12  1  0
 13 12  1  6
 13 14  1  0
 14 15  1  1
 15 16  1  1
 15 17  1  0
 18 17  1  1
 18 19  1  0
 19 20  1  0
 20 21  1  1
 20 22  1  0
 22 23  1  0
 23 24  1  0
 24 25  1  6
 24 26  1  0
 26 27  1  6
 27 28  1  0
 28 29  1  1
 28 30  1  0
 30 31  1  6
 30 10  1  0
 30 13  1  0
 26 14  1  0
 24 18  1  0
M  END
>  <MS_ID>  (356) 
MS0375

>  <SMILES>  (356) 
C[C@H](CCC(=O)CCO)[C@H]1CC[C@H]2[C@@H]3[C@H](O)C[C@@H]4C[C@H](O)CC[C@]4(C)[C@H]3C[C@H](O)[C@]12C

>  <Structure_dimension>  (356) 
2D

$$$$
MS0376
     RDKit          2D

 34 37  0  0  0  0  0  0  0  0999 V2000
   -2.9749   -4.4563    0.0000 C   0  0  0  0  0  0  0  0  0  0  0  0
   -2.2212   -3.1594    0.0000 C   0  0  0  0  0  0  0  0  0  0  0  0
   -2.9676   -1.8583    0.0000 C   0  0  0  0  0  0  0  0  0  0  0  0
   -4.4676   -1.8541    0.0000 C   0  0  0  0  0  0  0  0  0  0  0  0
   -5.2139   -0.5529    0.0000 C   0  0  0  0  0  0  0  0  0  0  0  0
   -6.7139   -0.5487    0.0000 O   0  0  0  0  0  0  0  0  0  0  0  0
   -4.4603    0.7440    0.0000 O   0  0  0  0  0  0  0  0  0  0  0  0
   -5.2067    2.0451    0.0000 C   0  0  0  0  0  0  0  0  0  0  0  0
   -6.7067    2.0493    0.0000 O   0  0  0  0  0  0  0  0  0  0  0  0
   -4.4530    3.3421    0.0000 C   0  0  0  0  0  0  0  0  0  0  0  0
   -3.1561    2.5884    0.0000 C   0  0  0  0  0  0  0  0  0  0  0  0
   -5.7500    4.0957    0.0000 C   0  0  0  0  0  0  0  0  0  0  0  0
   -3.6994    4.6390    0.0000 O   0  0  0  0  0  0  0  0  0  0  0  0
   -0.7212   -3.1636    0.0000 C   0  0  0  0  0  0  0  0  0  0  0  0
    0.1570   -4.3796    0.0000 C   0  0  0  0  0  0  0  0  0  0  0  0
    1.5849   -3.9200    0.0000 C   0  0  0  0  0  0  0  0  0  0  0  0
    1.5891   -2.4201    0.0000 C   0  0  0  0  0  0  0  0  0  0  0  0
    2.7066   -1.4195    0.0000 C   0  0  0  0  0  0  0  0  0  0  0  0
    4.1319   -1.8870    0.0000 C   0  0  0  0  0  0  0  0  0  0  0  0
    4.4397   -3.3551    0.0000 O   0  0  0  0  0  0  0  0  0  0  0  0
    5.2495   -0.8864    0.0000 C   0  0  0  0  0  0  0  0  0  0  0  0
    4.9417    0.5817    0.0000 C   0  0  0  0  0  0  0  0  0  0  0  0
    6.0592    1.5822    0.0000 C   0  0  0  0  0  0  0  0  0  0  0  0
    5.7515    3.0503    0.0000 C   0  0  0  0  0  0  0  0  0  0  0  0
    6.8690    4.0509    0.0000 O   0  0  0  0  0  0  0  0  0  0  0  0
    4.3262    3.5178    0.0000 C   0  0  0  0  0  0  0  0  0  0  0  0
    3.2087    2.5173    0.0000 C   0  0  0  0  0  0  0  0  0  0  0  0
    3.5164    1.0492    0.0000 C   0  0  0  0  0  0  0  0  0  0  0  0
    2.0911    1.5167    0.0000 C   0  0  0  0  0  0  0  0  0  0  0  0
    2.3989    0.0486    0.0000 C   0  0  0  0  0  0  0  0  0  0  0  0
    0.9736    0.5161    0.0000 C   0  0  0  0  0  0  0  0  0  0  0  0
   -0.1439   -0.4844    0.0000 C   0  0  0  0  0  0  0  0  0  0  0  0
    0.1638   -1.9525    0.0000 C   0  0  0  0  0  0  0  0  0  0  0  0
   -1.3025   -1.6366    0.0000 C   0  0  0  0  0  0  0  0  0  0  0  0
  2  1  1  6
  2  3  1  0
  3  4  1  0
  4  5  1  0
  5  6  2  0
  5  7  1  0
  7  8  1  0
  8  9  2  0
  8 10  1  0
 10 11  1  0
 10 12  1  0
 10 13  1  0
  2 14  1  0
 14 15  1  6
 15 16  1  0
 17 16  1  6
 17 18  1  0
 18 19  1  1
 19 20  1  1
 19 21  1  0
 22 21  1  1
 22 23  1  0
 23 24  1  0
 24 25  1  1
 24 26  1  0
 26 27  1  0
 27 28  1  0
 28 29  1  6
 28 30  1  0
 30 31  1  6
 31 32  1  0
 32 33  1  0
 33 34  1  6
 33 14  1  0
 33 17  1  0
 30 18  1  0
 28 22  1  0
M  END
>  <MS_ID>  (357) 
MS0376

>  <SMILES>  (357) 
C[C@H](CCC(=O)OC(=O)C(C)(C)O)[C@H]1CC[C@H]2[C@@H]3[C@H](O)C[C@@H]4C[C@H](O)CC[C@]4(C)[C@H]3CC[C@]12C

>  <Structure_dimension>  (357) 
2D

$$$$
MS0377
     RDKit          2D

 36 40  0  0  0  0  0  0  0  0999 V2000
   -1.7029   -4.5740    0.0000 C   0  0  0  0  0  0  0  0  0  0  0  0
   -1.0663   -3.2157    0.0000 C   0  0  0  0  0  0  0  0  0  0  0  0
   -1.9243   -1.9853    0.0000 C   0  0  0  0  0  0  0  0  0  0  0  0
   -3.4188   -2.1132    0.0000 C   0  0  0  0  0  0  0  0  0  0  0  0
   -4.2768   -0.8828    0.0000 C   0  0  0  0  0  0  0  0  0  0  0  0
   -3.6403    0.4755    0.0000 O   0  0  0  0  0  0  0  0  0  0  0  0
   -5.7714   -1.0106    0.0000 N   0  0  0  0  0  0  0  0  0  0  0  0
   -6.6293    0.2198    0.0000 C   0  0  0  0  0  0  0  0  0  0  0  0
   -5.9928    1.5780    0.0000 C   0  0  0  0  0  0  0  0  0  0  0  0
   -6.8507    2.8084    0.0000 C   0  0  0  0  0  0  0  0  0  0  0  0
   -8.3453    2.6806    0.0000 C   0  0  0  0  0  0  0  0  0  0  0  0
   -9.2033    3.9110    0.0000 F   0  0  0  0  0  0  0  0  0  0  0  0
   -8.9819    1.3224    0.0000 C   0  0  0  0  0  0  0  0  0  0  0  0
   -8.1239    0.0920    0.0000 C   0  0  0  0  0  0  0  0  0  0  0  0
    0.4282   -3.0879    0.0000 C   0  0  0  0  0  0  0  0  0  0  0  0
    1.4101   -4.2219    0.0000 C   0  0  0  0  0  0  0  0  0  0  0  0
    2.7920   -3.6385    0.0000 C   0  0  0  0  0  0  0  0  0  0  0  0
    2.6642   -2.1439    0.0000 C   0  0  0  0  0  0  0  0  0  0  0  0
    3.6893   -1.0489    0.0000 C   0  0  0  0  0  0  0  0  0  0  0  0
    5.1502   -1.3891    0.0000 C   0  0  0  0  0  0  0  0  0  0  0  0
    5.5860   -2.8244    0.0000 O   0  0  0  0  0  0  0  0  0  0  0  0
    6.1753   -0.2941    0.0000 C   0  0  0  0  0  0  0  0  0  0  0  0
    5.7395    1.1412    0.0000 C   0  0  0  0  0  0  0  0  0  0  0  0
    6.7647    2.2362    0.0000 C   0  0  0  0  0  0  0  0  0  0  0  0
    6.3289    3.6716    0.0000 C   0  0  0  0  0  0  0  0  0  0  0  0
    7.3540    4.7666    0.0000 O   0  0  0  0  0  0  0  0  0  0  0  0
    4.8680    4.0118    0.0000 C   0  0  0  0  0  0  0  0  0  0  0  0
    3.8429    2.9168    0.0000 C   0  0  0  0  0  0  0  0  0  0  0  0
    4.2787    1.4815    0.0000 C   0  0  0  0  0  0  0  0  0  0  0  0
    2.8178    1.8217    0.0000 C   0  0  0  0  0  0  0  0  0  0  0  0
    3.2535    0.3864    0.0000 C   0  0  0  0  0  0  0  0  0  0  0  0
    1.7926    0.7267    0.0000 C   0  0  0  0  0  0  0  0  0  0  0  0
    0.7675   -0.3683    0.0000 C   0  0  0  0  0  0  0  0  0  0  0  0
   -0.6934   -0.0281    0.0000 O   0  0  0  0  0  0  0  0  0  0  0  0
    1.2033   -1.8036    0.0000 C   0  0  0  0  0  0  0  0  0  0  0  0
   -0.2852   -1.6180    0.0000 C   0  0  0  0  0  0  0  0  0  0  0  0
  2  1  1  6
  2  3  1  0
  3  4  1  0
  4  5  1  0
  5  6  2  0
  5  7  1  0
  7  8  1  0
  8  9  2  0
  9 10  1  0
 10 11  2  0
 11 12  1  0
 11 13  1  0
 13 14  2  0
  2 15  1  0
 15 16  1  6
 16 17  1  0
 18 17  1  6
 18 19  1  0
 19 20  1  1
 20 21  1  1
 20 22  1  0
 23 22  1  1
 23 24  1  0
 24 25  1  0
 25 26  1  1
 25 27  1  0
 27 28  1  0
 28 29  1  0
 29 30  1  6
 29 31  1  0
 31 32  1  6
 32 33  1  0
 33 34  1  1
 33 35  1  0
 35 36  1  6
 14  8  1  0
 35 15  1  0
 35 18  1  0
 31 19  1  0
 29 23  1  0
M  END
>  <MS_ID>  (358) 
MS0377

>  <SMILES>  (358) 
C[C@H](CCC(=O)Nc1ccc(F)cc1)[C@H]1CC[C@H]2[C@@H]3[C@H](O)C[C@@H]4C[C@H](O)CC[C@]4(C)[C@H]3C[C@H](O)[C@]12C

>  <Structure_dimension>  (358) 
2D

$$$$
MS0378
     RDKit          2D

 30 33  0  0  0  0  0  0  0  0999 V2000
   -7.2759    3.4526    0.0000 C   0  0  0  0  0  0  0  0  0  0  0  0
   -6.8987    2.0009    0.0000 C   0  0  0  0  0  0  0  0  0  0  0  0
   -7.9673    0.9482    0.0000 C   0  0  0  0  0  0  0  0  0  0  0  0
   -5.4527    1.6017    0.0000 C   0  0  0  0  0  0  0  0  0  0  0  0
   -4.3841    2.6543    0.0000 O   0  0  0  0  0  0  0  0  0  0  0  0
   -5.0755    0.1499    0.0000 C   0  0  0  0  0  0  0  0  0  0  0  0
   -3.6295   -0.2492    0.0000 C   0  0  0  0  0  0  0  0  0  0  0  0
   -3.2523   -1.7010    0.0000 C   0  0  0  0  0  0  0  0  0  0  0  0
   -4.3209   -2.7536    0.0000 C   0  0  0  0  0  0  0  0  0  0  0  0
   -1.8064   -2.1002    0.0000 C   0  0  0  0  0  0  0  0  0  0  0  0
   -1.2794   -3.5046    0.0000 C   0  0  0  0  0  0  0  0  0  0  0  0
    0.2191   -3.4374    0.0000 C   0  0  0  0  0  0  0  0  0  0  0  0
    0.6183   -1.9915    0.0000 C   0  0  0  0  0  0  0  0  0  0  0  0
    1.9599   -1.3206    0.0000 C   0  0  0  0  0  0  0  0  0  0  0  0
    3.2117   -2.1470    0.0000 C   0  0  0  0  0  0  0  0  0  0  0  0
    3.1219   -3.6443    0.0000 O   0  0  0  0  0  0  0  0  0  0  0  0
    4.5533   -1.4762    0.0000 C   0  0  0  0  0  0  0  0  0  0  0  0
    4.6431    0.0211    0.0000 C   0  0  0  0  0  0  0  0  0  0  0  0
    5.9847    0.6920    0.0000 C   0  0  0  0  0  0  0  0  0  0  0  0
    6.0745    2.1893    0.0000 C   0  0  0  0  0  0  0  0  0  0  0  0
    7.4161    2.8602    0.0000 O   0  0  0  0  0  0  0  0  0  0  0  0
    4.8227    3.0158    0.0000 C   0  0  0  0  0  0  0  0  0  0  0  0
    3.4811    2.3449    0.0000 C   0  0  0  0  0  0  0  0  0  0  0  0
    3.3913    0.8476    0.0000 C   0  0  0  0  0  0  0  0  0  0  0  0
    2.1395    1.6740    0.0000 C   0  0  0  0  0  0  0  0  0  0  0  0
    2.0497    0.1767    0.0000 C   0  0  0  0  0  0  0  0  0  0  0  0
    0.7979    1.0031    0.0000 C   0  0  0  0  0  0  0  0  0  0  0  0
   -0.5437    0.3323    0.0000 C   0  0  0  0  0  0  0  0  0  0  0  0
   -0.6335   -1.1650    0.0000 C   0  0  0  0  0  0  0  0  0  0  0  0
   -1.9649   -0.4740    0.0000 C   0  0  0  0  0  0  0  0  0  0  0  0
  1  2  1  0
  2  3  1  0
  2  4  1  0
  4  5  2  0
  4  6  1  0
  6  7  1  0
  7  8  1  0
  8  9  1  6
  8 10  1  0
 10 11  1  6
 11 12  1  0
 13 12  1  6
 13 14  1  0
 14 15  1  1
 15 16  1  1
 15 17  1  0
 18 17  1  1
 18 19  1  0
 19 20  1  0
 20 21  2  0
 20 22  1  0
 22 23  1  0
 23 24  1  0
 24 25  1  6
 24 26  1  0
 26 27  1  6
 27 28  1  0
 28 29  1  0
 29 30  1  6
 29 10  1  0
 29 13  1  0
 26 14  1  0
 24 18  1  0
M  END
>  <MS_ID>  (359) 
MS0378

>  <SMILES>  (359) 
CC(C)C(=O)CC[C@@H](C)[C@H]1CC[C@H]2[C@@H]3[C@H](O)C[C@@H]4CC(=O)CC[C@]4(C)[C@H]3CC[C@]12C

>  <Structure_dimension>  (359) 
2D

$$$$
MS0379
     RDKit          2D

 38 42  0  0  0  0  0  0  0  0999 V2000
   -7.7878   -1.9555    0.0000 C   0  0  0  0  0  0  0  0  0  0  0  0
   -6.5918   -1.0501    0.0000 C   0  0  0  0  0  0  0  0  0  0  0  0
   -6.7779    0.4383    0.0000 C   0  0  0  0  0  0  0  0  0  0  0  0
   -8.1600    1.0213    0.0000 C   0  0  0  0  0  0  0  0  0  0  0  0
   -8.3461    2.5097    0.0000 C   0  0  0  0  0  0  0  0  0  0  0  0
   -7.1502    3.4151    0.0000 O   0  0  0  0  0  0  0  0  0  0  0  0
   -9.7282    3.0928    0.0000 O   0  0  0  0  0  0  0  0  0  0  0  0
   -5.2098   -1.6331    0.0000 C   0  0  0  0  0  0  0  0  0  0  0  0
   -4.8691   -3.0939    0.0000 C   0  0  0  0  0  0  0  0  0  0  0  0
   -3.3745   -3.2213    0.0000 C   0  0  0  0  0  0  0  0  0  0  0  0
   -2.7915   -1.8392    0.0000 C   0  0  0  0  0  0  0  0  0  0  0  0
   -1.3743   -1.3477    0.0000 C   0  0  0  0  0  0  0  0  0  0  0  0
   -0.2400   -2.3293    0.0000 C   0  0  0  0  0  0  0  0  0  0  0  0
   -0.5230   -3.8024    0.0000 O   0  0  0  0  0  0  0  0  0  0  0  0
    1.1772   -1.8378    0.0000 C   0  0  0  0  0  0  0  0  0  0  0  0
    1.4601   -0.3647    0.0000 C   0  0  0  0  0  0  0  0  0  0  0  0
    2.8773    0.1268    0.0000 C   0  0  0  0  0  0  0  0  0  0  0  0
    3.1602    1.5999    0.0000 C   0  0  0  0  0  0  0  0  0  0  0  0
    4.5774    2.0914    0.0000 O   0  0  0  0  0  0  0  0  0  0  0  0
    5.7116    1.1099    0.0000 C   0  0  0  0  0  0  0  0  0  0  0  0
    5.4287   -0.3632    0.0000 O   0  0  0  0  0  0  0  0  0  0  0  0
    6.5630   -1.3448    0.0000 C   0  0  0  0  0  0  0  0  0  0  0  0
    6.2800   -2.8179    0.0000 C   0  0  0  0  0  0  0  0  0  0  0  0
    7.9802   -0.8533    0.0000 C   0  0  0  0  0  0  0  0  0  0  0  0
    9.1144   -1.8348    0.0000 O   0  0  0  0  0  0  0  0  0  0  0  0
    8.2631    0.6198    0.0000 C   0  0  0  0  0  0  0  0  0  0  0  0
    9.6803    1.1113    0.0000 O   0  0  0  0  0  0  0  0  0  0  0  0
    7.1288    1.6014    0.0000 C   0  0  0  0  0  0  0  0  0  0  0  0
    7.4117    3.0745    0.0000 O   0  0  0  0  0  0  0  0  0  0  0  0
    2.0259    2.5815    0.0000 C   0  0  0  0  0  0  0  0  0  0  0  0
    0.6088    2.0899    0.0000 C   0  0  0  0  0  0  0  0  0  0  0  0
    0.3258    0.6169    0.0000 C   0  0  0  0  0  0  0  0  0  0  0  0
   -0.8084    1.5984    0.0000 C   0  0  0  0  0  0  0  0  0  0  0  0
   -1.0914    0.1254    0.0000 C   0  0  0  0  0  0  0  0  0  0  0  0
   -2.2256    1.1069    0.0000 C   0  0  0  0  0  0  0  0  0  0  0  0
   -3.6428    0.6154    0.0000 C   0  0  0  0  0  0  0  0  0  0  0  0
   -3.9257   -0.8577    0.0000 C   0  0  0  0  0  0  0  0  0  0  0  0
   -5.1564   -0.0001    0.0000 C   0  0  0  0  0  0  0  0  0  0  0  0
  2  1  1  6
  2  3  1  0
  3  4  1  0
  4  5  1  0
  5  6  2  0
  5  7  1  0
  2  8  1  0
  8  9  1  6
  9 10  1  0
 11 10  1  6
 11 12  1  0
 12 13  1  1
 13 14  1  1
 13 15  1  0
 16 15  1  1
 16 17  1  0
 17 18  1  0
 18 19  1  1
 20 19  1  1
 20 21  1  0
 21 22  1  0
 22 23  1  1
 22 24  1  0
 24 25  1  1
 24 26  1  0
 26 27  1  6
 26 28  1  0
 28 29  1  6
 18 30  1  0
 30 31  1  0
 31 32  1  0
 32 33  1  6
 32 34  1  0
 34 35  1  6
 35 36  1  0
 36 37  1  0
 37 38  1  6
 37  8  1  0
 37 11  1  0
 34 12  1  0
 32 16  1  0
 28 20  1  0
M  END
>  <MS_ID>  (360) 
MS0379

>  <SMILES>  (360) 
C[C@H](CCC(=O)O)[C@H]1CC[C@H]2[C@@H]3[C@H](O)C[C@@H]4C[C@H](O[C@@H]5O[C@H](C)[C@H](O)[C@@H](O)[C@H]5O)CC[C@]4(C)[C@H]3CC[C@]12C

>  <Structure_dimension>  (360) 
2D

$$$$
MS0380
     RDKit          2D

 34 37  0  0  0  0  0  0  0  0999 V2000
   -2.4540   -4.2478    0.0000 C   0  0  0  0  0  0  0  0  0  0  0  0
   -1.6579   -2.9765    0.0000 C   0  0  0  0  0  0  0  0  0  0  0  0
   -2.3608   -1.6514    0.0000 C   0  0  0  0  0  0  0  0  0  0  0  0
   -3.8598   -1.5976    0.0000 C   0  0  0  0  0  0  0  0  0  0  0  0
   -4.5628   -0.2725    0.0000 C   0  0  0  0  0  0  0  0  0  0  0  0
   -3.7667    0.9988    0.0000 O   0  0  0  0  0  0  0  0  0  0  0  0
   -6.0618   -0.2187    0.0000 O   0  0  0  0  0  0  0  0  0  0  0  0
   -6.7647    1.1064    0.0000 C   0  0  0  0  0  0  0  0  0  0  0  0
   -8.2638    1.1601    0.0000 C   0  0  0  0  0  0  0  0  0  0  0  0
   -8.9667    2.4852    0.0000 O   0  0  0  0  0  0  0  0  0  0  0  0
   -5.9686    2.3777    0.0000 C   0  0  0  0  0  0  0  0  0  0  0  0
   -4.4696    2.3239    0.0000 O   0  0  0  0  0  0  0  0  0  0  0  0
   -6.6716    3.7028    0.0000 O   0  0  0  0  0  0  0  0  0  0  0  0
   -0.1588   -3.0303    0.0000 C   0  0  0  0  0  0  0  0  0  0  0  0
    0.6788   -4.2747    0.0000 C   0  0  0  0  0  0  0  0  0  0  0  0
    2.1211   -3.8626    0.0000 C   0  0  0  0  0  0  0  0  0  0  0  0
    2.1748   -2.3635    0.0000 C   0  0  0  0  0  0  0  0  0  0  0  0
    3.3248   -1.4005    0.0000 C   0  0  0  0  0  0  0  0  0  0  0  0
    4.7339   -1.9149    0.0000 C   0  0  0  0  0  0  0  0  0  0  0  0
    5.8839   -0.9518    0.0000 C   0  0  0  0  0  0  0  0  0  0  0  0
    5.6248    0.5257    0.0000 C   0  0  0  0  0  0  0  0  0  0  0  0
    6.7748    1.4888    0.0000 C   0  0  0  0  0  0  0  0  0  0  0  0
    6.5157    2.9662    0.0000 C   0  0  0  0  0  0  0  0  0  0  0  0
    7.6657    3.9293    0.0000 O   0  0  0  0  0  0  0  0  0  0  0  0
    5.1067    3.4806    0.0000 C   0  0  0  0  0  0  0  0  0  0  0  0
    3.9567    2.5175    0.0000 C   0  0  0  0  0  0  0  0  0  0  0  0
    4.2158    1.0401    0.0000 C   0  0  0  0  0  0  0  0  0  0  0  0
    2.8067    1.5545    0.0000 C   0  0  0  0  0  0  0  0  0  0  0  0
    3.0658    0.0770    0.0000 C   0  0  0  0  0  0  0  0  0  0  0  0
    1.6567    0.5914    0.0000 C   0  0  0  0  0  0  0  0  0  0  0  0
    0.5067   -0.3717    0.0000 C   0  0  0  0  0  0  0  0  0  0  0  0
   -0.9023    0.1427    0.0000 O   0  0  0  0  0  0  0  0  0  0  0  0
    0.7658   -1.8492    0.0000 C   0  0  0  0  0  0  0  0  0  0  0  0
   -0.6893   -1.4849    0.0000 C   0  0  0  0  0  0  0  0  0  0  0  0
  2  1  1  6
  2  3  1  0
  3  4  1  0
  4  5  1  0
  5  6  2  0
  5  7  1  0
  7  8  1  0
  8  9  1  1
  9 10  1  0
  8 11  1  0
 11 12  2  0
 11 13  1  0
  2 14  1  0
 14 15  1  6
 15 16  1  0
 17 16  1  6
 17 18  1  0
 18 19  1  1
 19 20  1  0
 21 20  1  1
 21 22  1  0
 22 23  1  0
 23 24  1  1
 23 25  1  0
 25 26  1  0
 26 27  1  0
 27 28  1  6
 27 29  1  0
 29 30  1  6
 30 31  1  0
 31 32  1  1
 31 33  1  0
 33 34  1  6
 33 14  1  0
 33 17  1  0
 29 18  1  0
 27 21  1  0
M  END
>  <MS_ID>  (361) 
MS0380

>  <SMILES>  (361) 
C[C@H](CCC(=O)O[C@@H](CO)C(=O)O)[C@H]1CC[C@H]2[C@@H]3CC[C@@H]4C[C@H](O)CC[C@]4(C)[C@H]3C[C@H](O)[C@]12C

>  <Structure_dimension>  (361) 
2D

$$$$
MS0381
     RDKit          2D

 33 36  0  0  0  0  0  0  0  0999 V2000
   -6.4151   -1.7464    0.0000 C   0  0  0  0  0  0  0  0  0  0  0  0
   -5.1590   -0.9265    0.0000 C   0  0  0  0  0  0  0  0  0  0  0  0
   -5.2411    0.5713    0.0000 C   0  0  0  0  0  0  0  0  0  0  0  0
   -6.5792    1.2491    0.0000 C   0  0  0  0  0  0  0  0  0  0  0  0
   -6.6612    2.7469    0.0000 C   0  0  0  0  0  0  0  0  0  0  0  0
   -5.4052    3.5668    0.0000 O   0  0  0  0  0  0  0  0  0  0  0  0
   -7.9994    3.4247    0.0000 O   0  0  0  0  0  0  0  0  0  0  0  0
   -3.8209   -1.6043    0.0000 C   0  0  0  0  0  0  0  0  0  0  0  0
   -3.5828   -3.0853    0.0000 C   0  0  0  0  0  0  0  0  0  0  0  0
   -2.1007   -3.3164    0.0000 C   0  0  0  0  0  0  0  0  0  0  0  0
   -1.4229   -1.9783    0.0000 C   0  0  0  0  0  0  0  0  0  0  0  0
    0.0251   -1.5866    0.0000 C   0  0  0  0  0  0  0  0  0  0  0  0
    1.0883   -2.6448    0.0000 C   0  0  0  0  0  0  0  0  0  0  0  0
    0.7035   -4.0946    0.0000 O   0  0  0  0  0  0  0  0  0  0  0  0
    2.5362   -2.2531    0.0000 C   0  0  0  0  0  0  0  0  0  0  0  0
    2.9210   -0.8033    0.0000 C   0  0  0  0  0  0  0  0  0  0  0  0
    4.3690   -0.4117    0.0000 C   0  0  0  0  0  0  0  0  0  0  0  0
    4.7538    1.0381    0.0000 C   0  0  0  0  0  0  0  0  0  0  0  0
    6.2018    1.4298    0.0000 C   0  0  0  0  0  0  0  0  0  0  0  0
    7.2649    0.3716    0.0000 C   0  0  0  0  0  0  0  0  0  0  0  0
    8.7129    0.7633    0.0000 C   0  0  0  0  0  0  0  0  0  0  0  0
    9.0977    2.2131    0.0000 O   0  0  0  0  0  0  0  0  0  0  0  0
    9.7761   -0.2949    0.0000 O   0  0  0  0  0  0  0  0  0  0  0  0
    3.6907    2.0963    0.0000 C   0  0  0  0  0  0  0  0  0  0  0  0
    2.2427    1.7046    0.0000 C   0  0  0  0  0  0  0  0  0  0  0  0
    1.8579    0.2548    0.0000 C   0  0  0  0  0  0  0  0  0  0  0  0
    0.7947    1.3130    0.0000 C   0  0  0  0  0  0  0  0  0  0  0  0
    0.4099   -0.1368    0.0000 C   0  0  0  0  0  0  0  0  0  0  0  0
   -0.6533    0.9213    0.0000 C   0  0  0  0  0  0  0  0  0  0  0  0
   -2.1012    0.5297    0.0000 C   0  0  0  0  0  0  0  0  0  0  0  0
   -3.1644    1.5878    0.0000 O   0  0  0  0  0  0  0  0  0  0  0  0
   -2.4860   -0.9201    0.0000 C   0  0  0  0  0  0  0  0  0  0  0  0
   -3.6540    0.0211    0.0000 C   0  0  0  0  0  0  0  0  0  0  0  0
  2  1  1  6
  2  3  1  0
  3  4  1  0
  4  5  1  0
  5  6  2  0
  5  7  1  0
  2  8  1  0
  8  9  1  6
  9 10  1  0
 11 10  1  6
 11 12  1  0
 12 13  1  1
 13 14  1  1
 13 15  1  0
 16 15  1  1
 16 17  1  0
 17 18  1  0
 18 19  1  1
 19 20  1  0
 20 21  1  0
 21 22  2  0
 21 23  1  0
 18 24  1  0
 24 25  1  0
 25 26  1  0
 26 27  1  6
 26 28  1  0
 28 29  1  6
 29 30  1  0
 30 31  2  0
 30 32  1  0
 32 33  1  6
 32  8  1  0
 32 11  1  0
 28 12  1  0
 26 16  1  0
M  END
>  <MS_ID>  (362) 
MS0381

>  <SMILES>  (362) 
C[C@H](CCC(=O)O)[C@H]1CC[C@H]2[C@@H]3[C@H](O)C[C@@H]4C[C@H](CCC(=O)O)CC[C@]4(C)[C@H]3CC(=O)[C@]12C

>  <Structure_dimension>  (362) 
2D

$$$$
MS0382
     RDKit          2D

 30 33  0  0  0  0  0  0  0  0999 V2000
   -4.1099   -3.1124    0.0000 C   0  0  0  0  0  0  0  0  0  0  0  0
   -3.1089   -1.9953    0.0000 C   0  0  0  0  0  0  0  0  0  0  0  0
   -3.5759   -0.5698    0.0000 C   0  0  0  0  0  0  0  0  0  0  0  0
   -5.0438   -0.2615    0.0000 C   0  0  0  0  0  0  0  0  0  0  0  0
   -5.5108    1.1640    0.0000 C   0  0  0  0  0  0  0  0  0  0  0  0
   -4.5097    2.2811    0.0000 O   0  0  0  0  0  0  0  0  0  0  0  0
   -6.9787    1.4724    0.0000 O   0  0  0  0  0  0  0  0  0  0  0  0
   -7.4457    2.8978    0.0000 C   0  0  0  0  0  0  0  0  0  0  0  0
   -8.9136    3.2062    0.0000 O   0  0  0  0  0  0  0  0  0  0  0  0
   -1.6409   -2.3036    0.0000 C   0  0  0  0  0  0  0  0  0  0  0  0
   -1.0276   -3.6725    0.0000 C   0  0  0  0  0  0  0  0  0  0  0  0
    0.4638   -3.5121    0.0000 C   0  0  0  0  0  0  0  0  0  0  0  0
    0.7722   -2.0441    0.0000 C   0  0  0  0  0  0  0  0  0  0  0  0
    2.0694   -1.2910    0.0000 C   0  0  0  0  0  0  0  0  0  0  0  0
    3.3703   -2.0379    0.0000 C   0  0  0  0  0  0  0  0  0  0  0  0
    3.3739   -3.5379    0.0000 O   0  0  0  0  0  0  0  0  0  0  0  0
    4.6675   -1.2848    0.0000 C   0  0  0  0  0  0  0  0  0  0  0  0
    4.6639    0.2152    0.0000 C   0  0  0  0  0  0  0  0  0  0  0  0
    5.9611    0.9683    0.0000 C   0  0  0  0  0  0  0  0  0  0  0  0
    5.9575    2.4683    0.0000 C   0  0  0  0  0  0  0  0  0  0  0  0
    7.2548    3.2214    0.0000 O   0  0  0  0  0  0  0  0  0  0  0  0
    4.6567    3.2152    0.0000 C   0  0  0  0  0  0  0  0  0  0  0  0
    3.3595    2.4621    0.0000 C   0  0  0  0  0  0  0  0  0  0  0  0
    3.3631    0.9621    0.0000 C   0  0  0  0  0  0  0  0  0  0  0  0
    2.0622    1.7090    0.0000 C   0  0  0  0  0  0  0  0  0  0  0  0
    2.0658    0.2090    0.0000 C   0  0  0  0  0  0  0  0  0  0  0  0
    0.7650    0.9559    0.0000 C   0  0  0  0  0  0  0  0  0  0  0  0
   -0.5322    0.2027    0.0000 C   0  0  0  0  0  0  0  0  0  0  0  0
   -0.5286   -1.2973    0.0000 C   0  0  0  0  0  0  0  0  0  0  0  0
   -1.9004   -0.6904    0.0000 C   0  0  0  0  0  0  0  0  0  0  0  0
  2  1  1  6
  2  3  1  0
  3  4  1  0
  4  5  1  0
  5  6  2  0
  5  7  1  0
  7  8  1  0
  8  9  2  0
  2 10  1  0
 10 11  1  6
 11 12  1  0
 13 12  1  6
 13 14  1  0
 14 15  1  1
 15 16  1  6
 15 17  1  0
 18 17  1  1
 18 19  1  0
 19 20  1  0
 20 21  1  1
 20 22  1  0
 22 23  1  0
 23 24  1  0
 24 25  1  6
 24 26  1  0
 26 27  1  6
 27 28  1  0
 28 29  1  0
 29 30  1  6
 29 10  1  0
 29 13  1  0
 26 14  1  0
 24 18  1  0
M  END
>  <MS_ID>  (363) 
MS0382

>  <SMILES>  (363) 
C[C@H](CCC(=O)OC=O)[C@H]1CC[C@H]2[C@@H]3[C@@H](O)C[C@@H]4C[C@H](O)CC[C@]4(C)[C@H]3CC[C@]12C

>  <Structure_dimension>  (363) 
2D

$$$$
MS0383
     RDKit          2D

 31 34  0  0  0  0  0  0  0  0999 V2000
   -3.1892   -3.5907    0.0000 C   0  0  0  0  0  0  0  0  0  0  0  0
   -2.3340   -2.3584    0.0000 C   0  0  0  0  0  0  0  0  0  0  0  0
   -2.9737   -1.0016    0.0000 C   0  0  0  0  0  0  0  0  0  0  0  0
   -4.4686   -0.8772    0.0000 C   0  0  0  0  0  0  0  0  0  0  0  0
   -5.1083    0.4795    0.0000 C   0  0  0  0  0  0  0  0  0  0  0  0
   -4.2531    1.7119    0.0000 O   0  0  0  0  0  0  0  0  0  0  0  0
   -6.6031    0.6039    0.0000 C   0  0  0  0  0  0  0  0  0  0  0  0
   -7.2428    1.9607    0.0000 C   0  0  0  0  0  0  0  0  0  0  0  0
   -6.3877    3.1931    0.0000 O   0  0  0  0  0  0  0  0  0  0  0  0
   -8.7376    2.0851    0.0000 O   0  0  0  0  0  0  0  0  0  0  0  0
   -0.8392   -2.4827    0.0000 C   0  0  0  0  0  0  0  0  0  0  0  0
   -0.0612   -3.7652    0.0000 C   0  0  0  0  0  0  0  0  0  0  0  0
    1.3989   -3.4216    0.0000 C   0  0  0  0  0  0  0  0  0  0  0  0
    1.5233   -1.9267    0.0000 C   0  0  0  0  0  0  0  0  0  0  0  0
    2.7174   -1.0189    0.0000 C   0  0  0  0  0  0  0  0  0  0  0  0
    4.1006   -1.5992    0.0000 C   0  0  0  0  0  0  0  0  0  0  0  0
    4.2898   -3.0872    0.0000 O   0  0  0  0  0  0  0  0  0  0  0  0
    5.2947   -0.6914    0.0000 C   0  0  0  0  0  0  0  0  0  0  0  0
    5.1056    0.7967    0.0000 C   0  0  0  0  0  0  0  0  0  0  0  0
    6.2997    1.7045    0.0000 C   0  0  0  0  0  0  0  0  0  0  0  0
    6.1106    3.1925    0.0000 C   0  0  0  0  0  0  0  0  0  0  0  0
    4.7274    3.7727    0.0000 C   0  0  0  0  0  0  0  0  0  0  0  0
    3.5333    2.8649    0.0000 C   0  0  0  0  0  0  0  0  0  0  0  0
    3.7224    1.3769    0.0000 C   0  0  0  0  0  0  0  0  0  0  0  0
    2.3391    1.9571    0.0000 C   0  0  0  0  0  0  0  0  0  0  0  0
    2.5283    0.4691    0.0000 C   0  0  0  0  0  0  0  0  0  0  0  0
    1.1450    1.0493    0.0000 C   0  0  0  0  0  0  0  0  0  0  0  0
   -0.0491    0.1415    0.0000 C   0  0  0  0  0  0  0  0  0  0  0  0
   -1.4323    0.7218    0.0000 O   0  0  0  0  0  0  0  0  0  0  0  0
    0.1401   -1.3465    0.0000 C   0  0  0  0  0  0  0  0  0  0  0  0
   -1.2962   -0.9140    0.0000 C   0  0  0  0  0  0  0  0  0  0  0  0
  2  1  1  6
  2  3  1  0
  3  4  1  0
  4  5  1  0
  5  6  2  0
  5  7  1  0
  7  8  1  0
  8  9  2  0
  8 10  1  0
  2 11  1  0
 11 12  1  6
 12 13  1  0
 14 13  1  6
 14 15  1  0
 15 16  1  1
 16 17  1  1
 16 18  1  0
 19 18  1  1
 19 20  1  0
 20 21  1  0
 21 22  1  0
 22 23  1  0
 23 24  1  0
 24 25  1  6
 24 26  1  0
 26 27  1  6
 27 28  1  0
 28 29  1  1
 28 30  1  0
 30 31  1  6
 30 11  1  0
 30 14  1  0
 26 15  1  0
 24 19  1  0
M  END
>  <MS_ID>  (364) 
MS0383

>  <SMILES>  (364) 
C[C@H](CCC(=O)CC(=O)O)[C@H]1CC[C@H]2[C@@H]3[C@H](O)C[C@@H]4CCCC[C@]4(C)[C@H]3C[C@H](O)[C@]12C

>  <Structure_dimension>  (364) 
2D

$$$$
MS0384
     RDKit          2D

 35 38  0  0  0  0  0  0  0  0999 V2000
   -2.1334   -4.2925    0.0000 C   0  0  0  0  0  0  0  0  0  0  0  0
   -1.4013   -2.9833    0.0000 C   0  0  0  0  0  0  0  0  0  0  0  0
   -2.1690   -1.6947    0.0000 C   0  0  0  0  0  0  0  0  0  0  0  0
   -3.6688   -1.7152    0.0000 C   0  0  0  0  0  0  0  0  0  0  0  0
   -4.4366   -0.4266    0.0000 C   0  0  0  0  0  0  0  0  0  0  0  0
   -3.7045    0.8826    0.0000 O   0  0  0  0  0  0  0  0  0  0  0  0
   -5.9364   -0.4471    0.0000 N   0  0  0  0  0  0  0  0  0  0  0  0
   -6.7042    0.8415    0.0000 S   0  0  0  0  0  0  0  0  0  0  0  0
   -5.4155    1.6092    0.0000 O   0  0  0  0  0  0  0  0  0  0  0  0
   -7.9928    0.0738    0.0000 O   0  0  0  0  0  0  0  0  0  0  0  0
   -7.4719    2.1301    0.0000 C   0  0  0  0  0  0  0  0  0  0  0  0
   -6.1833    2.8979    0.0000 F   0  0  0  0  0  0  0  0  0  0  0  0
   -8.7606    1.3624    0.0000 F   0  0  0  0  0  0  0  0  0  0  0  0
   -8.2397    3.4188    0.0000 F   0  0  0  0  0  0  0  0  0  0  0  0
    0.0986   -2.9627    0.0000 C   0  0  0  0  0  0  0  0  0  0  0  0
    0.9968   -4.1641    0.0000 C   0  0  0  0  0  0  0  0  0  0  0  0
    2.4169   -3.6810    0.0000 C   0  0  0  0  0  0  0  0  0  0  0  0
    2.3964   -2.1812    0.0000 C   0  0  0  0  0  0  0  0  0  0  0  0
    3.4972   -1.1623    0.0000 C   0  0  0  0  0  0  0  0  0  0  0  0
    4.9300   -1.6062    0.0000 C   0  0  0  0  0  0  0  0  0  0  0  0
    5.2620   -3.0690    0.0000 O   0  0  0  0  0  0  0  0  0  0  0  0
    6.0309   -0.5873    0.0000 C   0  0  0  0  0  0  0  0  0  0  0  0
    5.6989    0.8755    0.0000 C   0  0  0  0  0  0  0  0  0  0  0  0
    6.7998    1.8944    0.0000 C   0  0  0  0  0  0  0  0  0  0  0  0
    6.4678    3.3572    0.0000 C   0  0  0  0  0  0  0  0  0  0  0  0
    7.5687    4.3761    0.0000 O   0  0  0  0  0  0  0  0  0  0  0  0
    5.0350    3.8011    0.0000 C   0  0  0  0  0  0  0  0  0  0  0  0
    3.9342    2.7822    0.0000 C   0  0  0  0  0  0  0  0  0  0  0  0
    4.2661    1.3194    0.0000 C   0  0  0  0  0  0  0  0  0  0  0  0
    2.8333    1.7633    0.0000 C   0  0  0  0  0  0  0  0  0  0  0  0
    3.1653    0.3005    0.0000 C   0  0  0  0  0  0  0  0  0  0  0  0
    1.7325    0.7445    0.0000 C   0  0  0  0  0  0  0  0  0  0  0  0
    0.6316   -0.2744    0.0000 C   0  0  0  0  0  0  0  0  0  0  0  0
    0.9636   -1.7372    0.0000 C   0  0  0  0  0  0  0  0  0  0  0  0
   -0.5078   -1.4455    0.0000 C   0  0  0  0  0  0  0  0  0  0  0  0
  2  1  1  6
  2  3  1  0
  3  4  1  0
  4  5  1  0
  5  6  2  0
  5  7  1  0
  7  8  1  0
  8  9  2  0
  8 10  2  0
  8 11  1  0
 11 12  1  0
 11 13  1  0
 11 14  1  0
  2 15  1  0
 15 16  1  6
 16 17  1  0
 18 17  1  6
 18 19  1  0
 19 20  1  1
 20 21  1  1
 20 22  1  0
 23 22  1  1
 23 24  1  0
 24 25  1  0
 25 26  1  1
 25 27  1  0
 27 28  1  0
 28 29  1  0
 29 30  1  6
 29 31  1  0
 31 32  1  6
 32 33  1  0
 33 34  1  0
 34 35  1  6
 34 15  1  0
 34 18  1  0
 31 19  1  0
 29 23  1  0
M  END
>  <MS_ID>  (365) 
MS0384

>  <SMILES>  (365) 
C[C@H](CCC(=O)NS(=O)(=O)C(F)(F)F)[C@H]1CC[C@H]2[C@@H]3[C@H](O)C[C@@H]4C[C@H](O)CC[C@]4(C)[C@H]3CC[C@]12C

>  <Structure_dimension>  (365) 
2D

$$$$
MS0385
     RDKit          2D

 32 35  0  0  0  0  0  0  0  0999 V2000
   -3.1421   -3.6694    0.0000 C   0  0  0  0  0  0  0  0  0  0  0  0
   -2.2628   -2.4541    0.0000 C   0  0  0  0  0  0  0  0  0  0  0  0
   -2.8756   -1.0850    0.0000 C   0  0  0  0  0  0  0  0  0  0  0  0
   -4.3676   -0.9311    0.0000 C   0  0  0  0  0  0  0  0  0  0  0  0
   -4.9804    0.4380    0.0000 C   0  0  0  0  0  0  0  0  0  0  0  0
   -4.1011    1.6532    0.0000 O   0  0  0  0  0  0  0  0  0  0  0  0
   -6.4725    0.5919    0.0000 N   0  0  0  0  0  0  0  0  0  0  0  0
   -7.0853    1.9610    0.0000 C   0  0  0  0  0  0  0  0  0  0  0  0
   -8.5774    2.1149    0.0000 C   0  0  0  0  0  0  0  0  0  0  0  0
   -9.4567    0.8996    0.0000 O   0  0  0  0  0  0  0  0  0  0  0  0
   -9.1901    3.4840    0.0000 O   0  0  0  0  0  0  0  0  0  0  0  0
   -0.7707   -2.6080    0.0000 C   0  0  0  0  0  0  0  0  0  0  0  0
   -0.0182   -3.9056    0.0000 C   0  0  0  0  0  0  0  0  0  0  0  0
    1.4484   -3.5909    0.0000 C   0  0  0  0  0  0  0  0  0  0  0  0
    1.6023   -2.0988    0.0000 C   0  0  0  0  0  0  0  0  0  0  0  0
    2.8141   -1.2147    0.0000 C   0  0  0  0  0  0  0  0  0  0  0  0
    4.1856   -1.8222    0.0000 C   0  0  0  0  0  0  0  0  0  0  0  0
    4.3453   -3.3136    0.0000 O   0  0  0  0  0  0  0  0  0  0  0  0
    5.3974   -0.9381    0.0000 C   0  0  0  0  0  0  0  0  0  0  0  0
    5.2377    0.5533    0.0000 C   0  0  0  0  0  0  0  0  0  0  0  0
    6.4495    1.4374    0.0000 C   0  0  0  0  0  0  0  0  0  0  0  0
    6.2898    2.9289    0.0000 C   0  0  0  0  0  0  0  0  0  0  0  0
    7.5016    3.8129    0.0000 F   0  0  0  0  0  0  0  0  0  0  0  0
    4.9183    3.5363    0.0000 C   0  0  0  0  0  0  0  0  0  0  0  0
    3.7065    2.6522    0.0000 C   0  0  0  0  0  0  0  0  0  0  0  0
    3.8662    1.1608    0.0000 C   0  0  0  0  0  0  0  0  0  0  0  0
    2.4947    1.7682    0.0000 C   0  0  0  0  0  0  0  0  0  0  0  0
    2.6544    0.2767    0.0000 C   0  0  0  0  0  0  0  0  0  0  0  0
    1.2829    0.8842    0.0000 C   0  0  0  0  0  0  0  0  0  0  0  0
    0.0711    0.0001    0.0000 C   0  0  0  0  0  0  0  0  0  0  0  0
    0.2308   -1.4914    0.0000 C   0  0  0  0  0  0  0  0  0  0  0  0
   -1.1967   -1.0306    0.0000 C   0  0  0  0  0  0  0  0  0  0  0  0
  2  1  1  6
  2  3  1  0
  3  4  1  0
  4  5  1  0
  5  6  2  0
  5  7  1  0
  7  8  1  0
  8  9  1  0
  9 10  2  0
  9 11  1  0
  2 12  1  0
 12 13  1  6
 13 14  1  0
 15 14  1  6
 15 16  1  0
 16 17  1  1
 17 18  1  6
 17 19  1  0
 20 19  1  1
 20 21  1  0
 21 22  1  0
 22 23  1  1
 22 24  1  0
 24 25  1  0
 25 26  1  0
 26 27  1  6
 26 28  1  0
 28 29  1  6
 29 30  1  0
 30 31  1  0
 31 32  1  6
 31 12  1  0
 31 15  1  0
 28 16  1  0
 26 20  1  0
M  END
>  <MS_ID>  (366) 
MS0385

>  <SMILES>  (366) 
C[C@H](CCC(=O)NCC(=O)O)[C@H]1CC[C@H]2[C@@H]3[C@@H](O)C[C@@H]4C[C@H](F)CC[C@]4(C)[C@H]3CC[C@]12C

>  <Structure_dimension>  (366) 
2D

$$$$
MS0386
     RDKit          2D

 33 36  0  0  0  0  0  0  0  0999 V2000
   -3.0978   -3.6919    0.0000 C   0  0  0  0  0  0  0  0  0  0  0  0
   -2.2201   -2.4755    0.0000 C   0  0  0  0  0  0  0  0  0  0  0  0
   -2.8347   -1.1072    0.0000 C   0  0  0  0  0  0  0  0  0  0  0  0
   -4.3270   -0.9552    0.0000 C   0  0  0  0  0  0  0  0  0  0  0  0
   -4.9416    0.4131    0.0000 C   0  0  0  0  0  0  0  0  0  0  0  0
   -4.0639    1.6295    0.0000 O   0  0  0  0  0  0  0  0  0  0  0  0
   -6.4339    0.5650    0.0000 C   0  0  0  0  0  0  0  0  0  0  0  0
   -7.0484    1.9333    0.0000 C   0  0  0  0  0  0  0  0  0  0  0  0
   -8.5407    2.0852    0.0000 C   0  0  0  0  0  0  0  0  0  0  0  0
   -9.4184    0.8688    0.0000 O   0  0  0  0  0  0  0  0  0  0  0  0
   -9.1553    3.4535    0.0000 O   0  0  0  0  0  0  0  0  0  0  0  0
   -0.7278   -2.6274    0.0000 C   0  0  0  0  0  0  0  0  0  0  0  0
    0.0264   -3.9240    0.0000 C   0  0  0  0  0  0  0  0  0  0  0  0
    1.4926   -3.6073    0.0000 C   0  0  0  0  0  0  0  0  0  0  0  0
    1.6445   -2.1150    0.0000 C   0  0  0  0  0  0  0  0  0  0  0  0
    2.8552   -1.2294    0.0000 C   0  0  0  0  0  0  0  0  0  0  0  0
    4.2275   -1.8350    0.0000 C   0  0  0  0  0  0  0  0  0  0  0  0
    4.3891   -3.3263    0.0000 O   0  0  0  0  0  0  0  0  0  0  0  0
    5.4381   -0.9494    0.0000 C   0  0  0  0  0  0  0  0  0  0  0  0
    5.2764    0.5419    0.0000 C   0  0  0  0  0  0  0  0  0  0  0  0
    6.4871    1.4275    0.0000 C   0  0  0  0  0  0  0  0  0  0  0  0
    6.3254    2.9188    0.0000 C   0  0  0  0  0  0  0  0  0  0  0  0
    7.5360    3.8044    0.0000 O   0  0  0  0  0  0  0  0  0  0  0  0
    4.9531    3.5244    0.0000 C   0  0  0  0  0  0  0  0  0  0  0  0
    3.7425    2.6388    0.0000 C   0  0  0  0  0  0  0  0  0  0  0  0
    3.9041    1.1475    0.0000 C   0  0  0  0  0  0  0  0  0  0  0  0
    2.5318    1.7531    0.0000 C   0  0  0  0  0  0  0  0  0  0  0  0
    2.6935    0.2619    0.0000 C   0  0  0  0  0  0  0  0  0  0  0  0
    1.3212    0.8675    0.0000 C   0  0  0  0  0  0  0  0  0  0  0  0
    0.1105   -0.0181    0.0000 C   0  0  0  0  0  0  0  0  0  0  0  0
   -1.2618    0.5875    0.0000 O   0  0  0  0  0  0  0  0  0  0  0  0
    0.2722   -1.5094    0.0000 C   0  0  0  0  0  0  0  0  0  0  0  0
   -1.1559   -1.0505    0.0000 C   0  0  0  0  0  0  0  0  0  0  0  0
  2  1  1  6
  2  3  1  0
  3  4  1  0
  4  5  1  0
  5  6  2  0
  5  7  1  0
  7  8  1  0
  8  9  1  0
  9 10  2  0
  9 11  1  0
  2 12  1  0
 12 13  1  6
 13 14  1  0
 15 14  1  6
 15 16  1  0
 16 17  1  1
 17 18  1  1
 17 19  1  0
 20 19  1  1
 20 21  1  0
 21 22  1  0
 22 23  1  6
 22 24  1  0
 24 25  1  0
 25 26  1  0
 26 27  1  6
 26 28  1  0
 28 29  1  6
 29 30  1  0
 30 31  1  1
 30 32  1  0
 32 33  1  6
 32 12  1  0
 32 15  1  0
 28 16  1  0
 26 20  1  0
M  END
>  <MS_ID>  (367) 
MS0386

>  <SMILES>  (367) 
C[C@H](CCC(=O)CCC(=O)O)[C@H]1CC[C@H]2[C@@H]3[C@H](O)C[C@@H]4C[C@@H](O)CC[C@]4(C)[C@H]3C[C@H](O)[C@]12C

>  <Structure_dimension>  (367) 
2D

$$$$
MS0387
     RDKit          2D

 30 33  0  0  0  0  0  0  0  0999 V2000
   -4.5685   -2.6908    0.0000 C   0  0  0  0  0  0  0  0  0  0  0  0
   -3.4838   -1.6548    0.0000 C   0  0  0  0  0  0  0  0  0  0  0  0
   -3.8388   -0.1974    0.0000 C   0  0  0  0  0  0  0  0  0  0  0  0
   -5.2784    0.2240    0.0000 C   0  0  0  0  0  0  0  0  0  0  0  0
   -5.6333    1.6814    0.0000 C   0  0  0  0  0  0  0  0  0  0  0  0
   -4.5486    2.7174    0.0000 O   0  0  0  0  0  0  0  0  0  0  0  0
   -7.0729    2.1027    0.0000 N   0  0  0  0  0  0  0  0  0  0  0  0
   -7.4279    3.5601    0.0000 O   0  0  0  0  0  0  0  0  0  0  0  0
   -2.0442   -2.0761    0.0000 C   0  0  0  0  0  0  0  0  0  0  0  0
   -1.5389   -3.4884    0.0000 C   0  0  0  0  0  0  0  0  0  0  0  0
   -0.0395   -3.4442    0.0000 C   0  0  0  0  0  0  0  0  0  0  0  0
    0.3818   -2.0046    0.0000 C   0  0  0  0  0  0  0  0  0  0  0  0
    1.7336   -1.3544    0.0000 C   0  0  0  0  0  0  0  0  0  0  0  0
    2.9725   -2.1999    0.0000 C   0  0  0  0  0  0  0  0  0  0  0  0
    2.8597   -3.6957    0.0000 O   0  0  0  0  0  0  0  0  0  0  0  0
    4.3243   -1.5497    0.0000 C   0  0  0  0  0  0  0  0  0  0  0  0
    4.4371   -0.0540    0.0000 C   0  0  0  0  0  0  0  0  0  0  0  0
    5.7888    0.5962    0.0000 C   0  0  0  0  0  0  0  0  0  0  0  0
    5.9016    2.0920    0.0000 C   0  0  0  0  0  0  0  0  0  0  0  0
    7.2534    2.7422    0.0000 O   0  0  0  0  0  0  0  0  0  0  0  0
    4.6627    2.9375    0.0000 C   0  0  0  0  0  0  0  0  0  0  0  0
    3.3109    2.2873    0.0000 C   0  0  0  0  0  0  0  0  0  0  0  0
    3.1981    0.7916    0.0000 C   0  0  0  0  0  0  0  0  0  0  0  0
    1.9591    1.6371    0.0000 C   0  0  0  0  0  0  0  0  0  0  0  0
    1.8464    0.1414    0.0000 C   0  0  0  0  0  0  0  0  0  0  0  0
    0.6074    0.9869    0.0000 C   0  0  0  0  0  0  0  0  0  0  0  0
   -0.7444    0.3367    0.0000 C   0  0  0  0  0  0  0  0  0  0  0  0
   -1.9833    1.1823    0.0000 O   0  0  0  0  0  0  0  0  0  0  0  0
   -0.8572   -1.1590    0.0000 C   0  0  0  0  0  0  0  0  0  0  0  0
   -2.1777   -0.4476    0.0000 C   0  0  0  0  0  0  0  0  0  0  0  0
  2  1  1  6
  2  3  1  0
  3  4  1  0
  4  5  1  0
  5  6  2  0
  5  7  1  0
  7  8  1  0
  2  9  1  0
  9 10  1  6
 10 11  1  0
 12 11  1  6
 12 13  1  0
 13 14  1  1
 14 15  1  1
 14 16  1  0
 17 16  1  1
 17 18  1  0
 18 19  1  0
 19 20  1  1
 19 21  1  0
 21 22  1  0
 22 23  1  0
 23 24  1  6
 23 25  1  0
 25 26  1  6
 26 27  1  0
 27 28  2  0
 27 29  1  0
 29 30  1  6
 29  9  1  0
 29 12  1  0
 25 13  1  0
 23 17  1  0
M  END
>  <MS_ID>  (368) 
MS0387

>  <SMILES>  (368) 
C[C@H](CCC(=O)NO)[C@H]1CC[C@H]2[C@@H]3[C@H](O)C[C@@H]4C[C@H](O)CC[C@]4(C)[C@H]3CC(=O)[C@]12C

>  <Structure_dimension>  (368) 
2D

$$$$
MS0388
     RDKit          2D

 36 40  0  0  0  0  0  0  0  0999 V2000
   -2.6651   -3.9199    0.0000 C   0  0  0  0  0  0  0  0  0  0  0  0
   -1.8461   -2.6632    0.0000 C   0  0  0  0  0  0  0  0  0  0  0  0
   -2.5249   -1.3256    0.0000 C   0  0  0  0  0  0  0  0  0  0  0  0
   -4.0228   -1.2447    0.0000 C   0  0  0  0  0  0  0  0  0  0  0  0
   -4.7016    0.0929    0.0000 C   0  0  0  0  0  0  0  0  0  0  0  0
   -3.8826    1.3496    0.0000 O   0  0  0  0  0  0  0  0  0  0  0  0
   -6.1994    0.1739    0.0000 N   0  0  0  0  0  0  0  0  0  0  0  0
   -7.1453   -0.9903    0.0000 C   0  0  0  0  0  0  0  0  0  0  0  0
   -8.5448   -0.4505    0.0000 C   0  0  0  0  0  0  0  0  0  0  0  0
   -8.4638    1.0473    0.0000 C   0  0  0  0  0  0  0  0  0  0  0  0
   -7.0143    1.4332    0.0000 C   0  0  0  0  0  0  0  0  0  0  0  0
   -6.4745    2.8327    0.0000 C   0  0  0  0  0  0  0  0  0  0  0  0
   -4.9926    3.0650    0.0000 O   0  0  0  0  0  0  0  0  0  0  0  0
   -7.4166    4.0000    0.0000 O   0  0  0  0  0  0  0  0  0  0  0  0
   -0.3483   -2.7441    0.0000 C   0  0  0  0  0  0  0  0  0  0  0  0
    0.4666   -4.0035    0.0000 C   0  0  0  0  0  0  0  0  0  0  0  0
    1.9161   -3.6176    0.0000 C   0  0  0  0  0  0  0  0  0  0  0  0
    1.9971   -2.1198    0.0000 C   0  0  0  0  0  0  0  0  0  0  0  0
    3.1643   -1.1777    0.0000 C   0  0  0  0  0  0  0  0  0  0  0  0
    4.5638   -1.7175    0.0000 C   0  0  0  0  0  0  0  0  0  0  0  0
    4.7961   -3.1994    0.0000 O   0  0  0  0  0  0  0  0  0  0  0  0
    5.7311   -0.7754    0.0000 C   0  0  0  0  0  0  0  0  0  0  0  0
    7.1305   -1.3153    0.0000 O   0  0  0  0  0  0  0  0  0  0  0  0
    5.4988    0.7065    0.0000 C   0  0  0  0  0  0  0  0  0  0  0  0
    6.6661    1.6486    0.0000 C   0  0  0  0  0  0  0  0  0  0  0  0
    6.4338    3.1305    0.0000 C   0  0  0  0  0  0  0  0  0  0  0  0
    7.6011    4.0726    0.0000 O   0  0  0  0  0  0  0  0  0  0  0  0
    5.0343    3.6703    0.0000 C   0  0  0  0  0  0  0  0  0  0  0  0
    3.8671    2.7282    0.0000 C   0  0  0  0  0  0  0  0  0  0  0  0
    4.0993    1.2463    0.0000 C   0  0  0  0  0  0  0  0  0  0  0  0
    2.6998    1.7861    0.0000 C   0  0  0  0  0  0  0  0  0  0  0  0
    2.9321    0.3042    0.0000 C   0  0  0  0  0  0  0  0  0  0  0  0
    1.5326    0.8440    0.0000 C   0  0  0  0  0  0  0  0  0  0  0  0
    0.3653   -0.0981    0.0000 C   0  0  0  0  0  0  0  0  0  0  0  0
    0.5976   -1.5800    0.0000 C   0  0  0  0  0  0  0  0  0  0  0  0
   -0.8507   -1.1894    0.0000 C   0  0  0  0  0  0  0  0  0  0  0  0
  2  1  1  6
  2  3  1  0
  3  4  1  0
  4  5  1  0
  5  6  2  0
  5  7  1  0
  7  8  1  0
  8  9  1  0
  9 10  1  0
 10 11  1  0
 11 12  1  1
 12 13  2  0
 12 14  1  0
  2 15  1  0
 15 16  1  6
 16 17  1  0
 18 17  1  6
 18 19  1  0
 19 20  1  1
 20 21  1  1
 20 22  1  0
 22 23  1  1
 22 24  1  0
 24 25  1  1
 25 26  1  0
 26 27  1  1
 26 28  1  0
 28 29  1  0
 29 30  1  0
 30 31  1  6
 30 32  1  0
 32 33  1  6
 33 34  1  0
 34 35  1  0
 35 36  1  6
 11  7  1  0
 35 15  1  0
 35 18  1  0
 32 19  1  0
 30 24  1  0
M  END
>  <MS_ID>  (369) 
MS0388

>  <SMILES>  (369) 
C[C@H](CCC(=O)N1CCC[C@H]1C(=O)O)[C@H]1CC[C@H]2[C@@H]3[C@H](O)[C@H](O)[C@@H]4C[C@H](O)CC[C@]4(C)[C@H]3CC[C@]12C

>  <Structure_dimension>  (369) 
2D

$$$$
MS0389
     RDKit          2D

 30 33  0  0  0  0  0  0  0  0999 V2000
   -5.3676   -2.0337    0.0000 C   0  0  0  0  0  0  0  0  0  0  0  0
   -4.1713   -1.1288    0.0000 C   0  0  0  0  0  0  0  0  0  0  0  0
   -4.3569    0.3597    0.0000 C   0  0  0  0  0  0  0  0  0  0  0  0
   -5.7388    0.9432    0.0000 C   0  0  0  0  0  0  0  0  0  0  0  0
   -5.9244    2.4317    0.0000 C   0  0  0  0  0  0  0  0  0  0  0  0
   -4.7281    3.3367    0.0000 O   0  0  0  0  0  0  0  0  0  0  0  0
   -7.3062    3.0152    0.0000 O   0  0  0  0  0  0  0  0  0  0  0  0
   -2.7894   -1.7123    0.0000 C   0  0  0  0  0  0  0  0  0  0  0  0
   -2.4493   -3.1732    0.0000 C   0  0  0  0  0  0  0  0  0  0  0  0
   -0.9547   -3.3011    0.0000 C   0  0  0  0  0  0  0  0  0  0  0  0
   -0.3712   -1.9192    0.0000 C   0  0  0  0  0  0  0  0  0  0  0  0
    1.0461   -1.4282    0.0000 C   0  0  0  0  0  0  0  0  0  0  0  0
    2.1800   -2.4102    0.0000 C   0  0  0  0  0  0  0  0  0  0  0  0
    1.8966   -3.8832    0.0000 O   0  0  0  0  0  0  0  0  0  0  0  0
    3.5974   -1.9192    0.0000 C   0  0  0  0  0  0  0  0  0  0  0  0
    3.8808   -0.4462    0.0000 C   0  0  0  0  0  0  0  0  0  0  0  0
    5.2982    0.0448    0.0000 C   0  0  0  0  0  0  0  0  0  0  0  0
    5.5816    1.5178    0.0000 C   0  0  0  0  0  0  0  0  0  0  0  0
    6.9990    2.0088    0.0000 C   0  0  0  0  0  0  0  0  0  0  0  0
    8.1329    1.0269    0.0000 O   0  0  0  0  0  0  0  0  0  0  0  0
    4.4477    2.4998    0.0000 C   0  0  0  0  0  0  0  0  0  0  0  0
    3.0304    2.0087    0.0000 C   0  0  0  0  0  0  0  0  0  0  0  0
    2.7469    0.5358    0.0000 C   0  0  0  0  0  0  0  0  0  0  0  0
    1.6130    1.5177    0.0000 C   0  0  0  0  0  0  0  0  0  0  0  0
    1.3296    0.0448    0.0000 C   0  0  0  0  0  0  0  0  0  0  0  0
    0.1957    1.0267    0.0000 C   0  0  0  0  0  0  0  0  0  0  0  0
   -1.2217    0.5357    0.0000 C   0  0  0  0  0  0  0  0  0  0  0  0
   -2.3556    1.5177    0.0000 O   0  0  0  0  0  0  0  0  0  0  0  0
   -1.5052   -0.9373    0.0000 C   0  0  0  0  0  0  0  0  0  0  0  0
   -2.7355   -0.0792    0.0000 C   0  0  0  0  0  0  0  0  0  0  0  0
  2  1  1  6
  2  3  1  0
  3  4  1  0
  4  5  1  0
  5  6  2  0
  5  7  1  0
  2  8  1  0
  8  9  1  6
  9 10  1  0
 11 10  1  6
 11 12  1  0
 12 13  1  1
 13 14  1  1
 13 15  1  0
 16 15  1  1
 16 17  1  0
 17 18  1  0
 18 19  1  1
 19 20  1  0
 18 21  1  0
 21 22  1  0
 22 23  1  0
 23 24  1  6
 23 25  1  0
 25 26  1  6
 26 27  1  0
 27 28  1  1
 27 29  1  0
 29 30  1  6
 29  8  1  0
 29 11  1  0
 25 12  1  0
 23 16  1  0
M  END
>  <MS_ID>  (370) 
MS0389

>  <SMILES>  (370) 
C[C@H](CCC(=O)O)[C@H]1CC[C@H]2[C@@H]3[C@H](O)C[C@@H]4C[C@H](CO)CC[C@]4(C)[C@H]3C[C@H](O)[C@]12C

>  <Structure_dimension>  (370) 
2D

$$$$
MS0390
     RDKit          2D

 33 36  0  0  0  0  0  0  0  0999 V2000
   -3.2878   -3.6766    0.0000 C   0  0  0  0  0  0  0  0  0  0  0  0
   -2.4284   -2.4472    0.0000 C   0  0  0  0  0  0  0  0  0  0  0  0
   -3.0634   -1.0882    0.0000 C   0  0  0  0  0  0  0  0  0  0  0  0
   -4.5578   -0.9586    0.0000 C   0  0  0  0  0  0  0  0  0  0  0  0
   -5.1928    0.4003    0.0000 C   0  0  0  0  0  0  0  0  0  0  0  0
   -4.3333    1.6297    0.0000 O   0  0  0  0  0  0  0  0  0  0  0  0
   -6.6871    0.5299    0.0000 O   0  0  0  0  0  0  0  0  0  0  0  0
   -7.3221    1.8889    0.0000 C   0  0  0  0  0  0  0  0  0  0  0  0
   -8.8165    2.0184    0.0000 C   0  0  0  0  0  0  0  0  0  0  0  0
   -9.6759    0.7890    0.0000 O   0  0  0  0  0  0  0  0  0  0  0  0
   -9.4515    3.3774    0.0000 O   0  0  0  0  0  0  0  0  0  0  0  0
   -0.9340   -2.5767    0.0000 C   0  0  0  0  0  0  0  0  0  0  0  0
   -0.1604   -3.8619    0.0000 C   0  0  0  0  0  0  0  0  0  0  0  0
    1.3009   -3.5233    0.0000 C   0  0  0  0  0  0  0  0  0  0  0  0
    1.4304   -2.0289    0.0000 C   0  0  0  0  0  0  0  0  0  0  0  0
    2.6277   -1.1253    0.0000 C   0  0  0  0  0  0  0  0  0  0  0  0
    4.0089   -1.7103    0.0000 C   0  0  0  0  0  0  0  0  0  0  0  0
    4.1929   -3.1990    0.0000 O   0  0  0  0  0  0  0  0  0  0  0  0
    5.2061   -0.8066    0.0000 C   0  0  0  0  0  0  0  0  0  0  0  0
    6.5874   -1.3916    0.0000 O   0  0  0  0  0  0  0  0  0  0  0  0
    5.0222    0.6820    0.0000 C   0  0  0  0  0  0  0  0  0  0  0  0
    6.2194    1.5857    0.0000 C   0  0  0  0  0  0  0  0  0  0  0  0
    6.0355    3.0744    0.0000 C   0  0  0  0  0  0  0  0  0  0  0  0
    7.2327    3.9780    0.0000 O   0  0  0  0  0  0  0  0  0  0  0  0
    4.6542    3.6594    0.0000 C   0  0  0  0  0  0  0  0  0  0  0  0
    3.4570    2.7557    0.0000 C   0  0  0  0  0  0  0  0  0  0  0  0
    3.6410    1.2671    0.0000 C   0  0  0  0  0  0  0  0  0  0  0  0
    2.2597    1.8521    0.0000 C   0  0  0  0  0  0  0  0  0  0  0  0
    2.4437    0.3634    0.0000 C   0  0  0  0  0  0  0  0  0  0  0  0
    1.0625    0.9484    0.0000 C   0  0  0  0  0  0  0  0  0  0  0  0
   -0.1347    0.0448    0.0000 C   0  0  0  0  0  0  0  0  0  0  0  0
    0.0492   -1.4439    0.0000 C   0  0  0  0  0  0  0  0  0  0  0  0
   -1.3856   -1.0065    0.0000 C   0  0  0  0  0  0  0  0  0  0  0  0
  2  1  1  6
  2  3  1  0
  3  4  1  0
  4  5  1  0
  5  6  2  0
  5  7  1  0
  7  8  1  0
  8  9  1  0
  9 10  2  0
  9 11  1  0
  2 12  1  0
 12 13  1  6
 13 14  1  0
 15 14  1  6
 15 16  1  0
 16 17  1  1
 17 18  1  1
 17 19  1  0
 19 20  1  1
 19 21  1  0
 21 22  1  1
 22 23  1  0
 23 24  1  1
 23 25  1  0
 25 26  1  0
 26 27  1  0
 27 28  1  6
 27 29  1  0
 29 30  1  6
 30 31  1  0
 31 32  1  0
 32 33  1  6
 32 12  1  0
 32 15  1  0
 29 16  1  0
 27 21  1  0
M  END
>  <MS_ID>  (371) 
MS0390

>  <SMILES>  (371) 
C[C@H](CCC(=O)OCC(=O)O)[C@H]1CC[C@H]2[C@@H]3[C@H](O)[C@H](O)[C@@H]4C[C@H](O)CC[C@]4(C)[C@H]3CC[C@]12C

>  <Structure_dimension>  (371) 
2D

$$$$
MS0391
     RDKit          2D

 32 35  0  0  0  0  0  0  0  0999 V2000
   -5.9135   -2.3949    0.0000 C   0  0  0  0  0  0  0  0  0  0  0  0
   -4.7298   -1.4737    0.0000 C   0  0  0  0  0  0  0  0  0  0  0  0
   -4.9357    0.0121    0.0000 C   0  0  0  0  0  0  0  0  0  0  0  0
   -6.3253    0.5767    0.0000 C   0  0  0  0  0  0  0  0  0  0  0  0
   -6.5312    2.0625    0.0000 C   0  0  0  0  0  0  0  0  0  0  0  0
   -5.3475    2.9837    0.0000 O   0  0  0  0  0  0  0  0  0  0  0  0
   -7.9209    2.6271    0.0000 C   0  0  0  0  0  0  0  0  0  0  0  0
   -8.1268    4.1129    0.0000 O   0  0  0  0  0  0  0  0  0  0  0  0
   -3.3401   -2.0383    0.0000 C   0  0  0  0  0  0  0  0  0  0  0  0
   -2.9800   -3.4944    0.0000 C   0  0  0  0  0  0  0  0  0  0  0  0
   -1.4838   -3.6019    0.0000 C   0  0  0  0  0  0  0  0  0  0  0  0
   -0.9193   -2.2122    0.0000 C   0  0  0  0  0  0  0  0  0  0  0  0
    0.4913   -1.7019    0.0000 C   0  0  0  0  0  0  0  0  0  0  0  0
    1.6385   -2.6683    0.0000 C   0  0  0  0  0  0  0  0  0  0  0  0
    3.0490   -2.1580    0.0000 C   0  0  0  0  0  0  0  0  0  0  0  0
    3.3123   -0.6813    0.0000 C   0  0  0  0  0  0  0  0  0  0  0  0
    4.7228   -0.1710    0.0000 C   0  0  0  0  0  0  0  0  0  0  0  0
    4.9862    1.3057    0.0000 C   0  0  0  0  0  0  0  0  0  0  0  0
    6.3967    1.8160    0.0000 O   0  0  0  0  0  0  0  0  0  0  0  0
    7.5439    0.8497    0.0000 S   0  0  0  0  0  0  0  0  0  0  0  0
    6.5775   -0.2976    0.0000 O   0  0  0  0  0  0  0  0  0  0  0  0
    8.5103    1.9969    0.0000 O   0  0  0  0  0  0  0  0  0  0  0  0
    8.6911   -0.1167    0.0000 O   0  0  0  0  0  0  0  0  0  0  0  0
    3.8390    2.2721    0.0000 C   0  0  0  0  0  0  0  0  0  0  0  0
    2.4284    1.7618    0.0000 C   0  0  0  0  0  0  0  0  0  0  0  0
    2.1651    0.2851    0.0000 C   0  0  0  0  0  0  0  0  0  0  0  0
    1.0179    1.2515    0.0000 C   0  0  0  0  0  0  0  0  0  0  0  0
    0.7546   -0.2252    0.0000 C   0  0  0  0  0  0  0  0  0  0  0  0
   -0.3926    0.7412    0.0000 C   0  0  0  0  0  0  0  0  0  0  0  0
   -1.8031    0.2309    0.0000 C   0  0  0  0  0  0  0  0  0  0  0  0
   -2.0665   -1.2458    0.0000 C   0  0  0  0  0  0  0  0  0  0  0  0
   -3.3084   -0.4047    0.0000 C   0  0  0  0  0  0  0  0  0  0  0  0
  2  1  1  6
  2  3  1  0
  3  4  1  0
  4  5  1  0
  5  6  2  0
  5  7  1  0
  7  8  1  0
  2  9  1  0
  9 10  1  6
 10 11  1  0
 12 11  1  6
 12 13  1  0
 13 14  1  1
 14 15  1  0
 16 15  1  1
 16 17  1  0
 17 18  1  0
 18 19  1  1
 19 20  1  0
 20 21  2  0
 20 22  2  0
 20 23  1  0
 18 24  1  0
 24 25  1  0
 25 26  1  0
 26 27  1  6
 26 28  1  0
 28 29  1  6
 29 30  1  0
 30 31  1  0
 31 32  1  6
 31  9  1  0
 31 12  1  0
 28 13  1  0
 26 16  1  0
M  END
>  <MS_ID>  (372) 
MS0391

>  <SMILES>  (372) 
C[C@H](CCC(=O)CO)[C@H]1CC[C@H]2[C@@H]3CC[C@@H]4C[C@H](OS(=O)(=O)O)CC[C@]4(C)[C@H]3CC[C@]12C

>  <Structure_dimension>  (372) 
2D

$$$$
MS0392
     RDKit          2D

 32 35  0  0  0  0  0  0  0  0999 V2000
   -3.6519   -3.4889    0.0000 C   0  0  0  0  0  0  0  0  0  0  0  0
   -2.7185   -2.3147    0.0000 C   0  0  0  0  0  0  0  0  0  0  0  0
   -3.2687   -0.9192    0.0000 C   0  0  0  0  0  0  0  0  0  0  0  0
   -4.7523   -0.6980    0.0000 C   0  0  0  0  0  0  0  0  0  0  0  0
   -5.3024    0.6975    0.0000 C   0  0  0  0  0  0  0  0  0  0  0  0
   -4.3690    1.8717    0.0000 O   0  0  0  0  0  0  0  0  0  0  0  0
   -6.7860    0.9188    0.0000 C   0  0  0  0  0  0  0  0  0  0  0  0
   -7.3362    2.3142    0.0000 C   0  0  0  0  0  0  0  0  0  0  0  0
   -6.4028    3.4884    0.0000 O   0  0  0  0  0  0  0  0  0  0  0  0
   -8.8198    2.5355    0.0000 O   0  0  0  0  0  0  0  0  0  0  0  0
   -1.2349   -2.5360    0.0000 C   0  0  0  0  0  0  0  0  0  0  0  0
   -0.5419   -3.8663    0.0000 C   0  0  0  0  0  0  0  0  0  0  0  0
    0.9375   -3.6183    0.0000 C   0  0  0  0  0  0  0  0  0  0  0  0
    1.1587   -2.1347    0.0000 C   0  0  0  0  0  0  0  0  0  0  0  0
    2.4093   -1.3064    0.0000 C   0  0  0  0  0  0  0  0  0  0  0  0
    3.7519   -1.9753    0.0000 C   0  0  0  0  0  0  0  0  0  0  0  0
    3.8439   -3.4725    0.0000 O   0  0  0  0  0  0  0  0  0  0  0  0
    5.0025   -1.1470    0.0000 C   0  0  0  0  0  0  0  0  0  0  0  0
    4.9105    0.3502    0.0000 C   0  0  0  0  0  0  0  0  0  0  0  0
    6.1611    1.1784    0.0000 C   0  0  0  0  0  0  0  0  0  0  0  0
    6.0690    2.6756    0.0000 C   0  0  0  0  0  0  0  0  0  0  0  0
    7.3196    3.5039    0.0000 O   0  0  0  0  0  0  0  0  0  0  0  0
    4.7264    3.3445    0.0000 C   0  0  0  0  0  0  0  0  0  0  0  0
    3.4759    2.5162    0.0000 C   0  0  0  0  0  0  0  0  0  0  0  0
    3.5679    1.0191    0.0000 C   0  0  0  0  0  0  0  0  0  0  0  0
    2.2253    1.6879    0.0000 C   0  0  0  0  0  0  0  0  0  0  0  0
    2.3173    0.1908    0.0000 C   0  0  0  0  0  0  0  0  0  0  0  0
    0.9747    0.8597    0.0000 C   0  0  0  0  0  0  0  0  0  0  0  0
   -0.2759    0.0314    0.0000 C   0  0  0  0  0  0  0  0  0  0  0  0
   -1.6185    0.7003    0.0000 O   0  0  0  0  0  0  0  0  0  0  0  0
   -0.1839   -1.4658    0.0000 C   0  0  0  0  0  0  0  0  0  0  0  0
   -1.5890   -0.9409    0.0000 C   0  0  0  0  0  0  0  0  0  0  0  0
  2  1  1  6
  2  3  1  0
  3  4  1  0
  4  5  1  0
  5  6  2  0
  5  7  1  0
  7  8  1  0
  8  9  2  0
  8 10  1  0
  2 11  1  0
 11 12  1  6
 12 13  1  0
 14 13  1  6
 14 15  1  0
 15 16  1  1
 16 17  1  1
 16 18  1  0
 19 18  1  1
 19 20  1  0
 20 21  1  0
 21 22  2  0
 21 23  1  0
 23 24  1  0
 24 25  1  0
 25 26  1  6
 25 27  1  0
 27 28  1  6
 28 29  1  0
 29 30  1  1
 29 31  1  0
 31 32  1  6
 31 11  1  0
 31 14  1  0
 27 15  1  0
 25 19  1  0
M  END
>  <MS_ID>  (373) 
MS0392

>  <SMILES>  (373) 
C[C@H](CCC(=O)CC(=O)O)[C@H]1CC[C@H]2[C@@H]3[C@H](O)C[C@@H]4CC(=O)CC[C@]4(C)[C@H]3C[C@H](O)[C@]12C

>  <Structure_dimension>  (373) 
2D

$$$$
MS0393
     RDKit          2D

 29 32  0  0  0  0  0  0  0  0999 V2000
   -6.3294   -1.2534    0.0000 C   0  0  0  0  0  0  0  0  0  0  0  0
   -4.9531   -1.8498    0.0000 C   0  0  0  0  0  0  0  0  0  0  0  0
   -3.7484   -0.9560    0.0000 C   0  0  0  0  0  0  0  0  0  0  0  0
   -3.9201    0.5341    0.0000 C   0  0  0  0  0  0  0  0  0  0  0  0
   -5.2965    1.1305    0.0000 C   0  0  0  0  0  0  0  0  0  0  0  0
   -5.4682    2.6206    0.0000 C   0  0  0  0  0  0  0  0  0  0  0  0
   -4.2635    3.5144    0.0000 O   0  0  0  0  0  0  0  0  0  0  0  0
   -6.8445    3.2170    0.0000 O   0  0  0  0  0  0  0  0  0  0  0  0
   -2.3721   -1.5524    0.0000 C   0  0  0  0  0  0  0  0  0  0  0  0
   -2.0456   -3.0164    0.0000 C   0  0  0  0  0  0  0  0  0  0  0  0
   -0.5523   -3.1583    0.0000 C   0  0  0  0  0  0  0  0  0  0  0  0
    0.0441   -1.7820    0.0000 C   0  0  0  0  0  0  0  0  0  0  0  0
    1.4660   -1.3042    0.0000 C   0  0  0  0  0  0  0  0  0  0  0  0
    2.5906   -2.2967    0.0000 C   0  0  0  0  0  0  0  0  0  0  0  0
    2.2935   -3.7670    0.0000 O   0  0  0  0  0  0  0  0  0  0  0  0
    4.0125   -1.8190    0.0000 C   0  0  0  0  0  0  0  0  0  0  0  0
    4.3097   -0.3487    0.0000 C   0  0  0  0  0  0  0  0  0  0  0  0
    5.7316    0.1290    0.0000 C   0  0  0  0  0  0  0  0  0  0  0  0
    6.0288    1.5993    0.0000 C   0  0  0  0  0  0  0  0  0  0  0  0
    7.4507    2.0771    0.0000 O   0  0  0  0  0  0  0  0  0  0  0  0
    4.9041    2.5918    0.0000 C   0  0  0  0  0  0  0  0  0  0  0  0
    3.4822    2.1141    0.0000 C   0  0  0  0  0  0  0  0  0  0  0  0
    3.1850    0.6438    0.0000 C   0  0  0  0  0  0  0  0  0  0  0  0
    2.0603    1.6363    0.0000 C   0  0  0  0  0  0  0  0  0  0  0  0
    1.7631    0.1660    0.0000 C   0  0  0  0  0  0  0  0  0  0  0  0
    0.6385    1.1585    0.0000 C   0  0  0  0  0  0  0  0  0  0  0  0
   -0.7834    0.6808    0.0000 C   0  0  0  0  0  0  0  0  0  0  0  0
   -1.0806   -0.7895    0.0000 C   0  0  0  0  0  0  0  0  0  0  0  0
   -2.3029    0.0800    0.0000 C   0  0  0  0  0  0  0  0  0  0  0  0
  1  2  1  0
  3  2  1  6
  3  4  1  0
  4  5  1  0
  5  6  1  0
  6  7  2  0
  6  8  1  0
  3  9  1  0
  9 10  1  6
 10 11  1  0
 12 11  1  6
 12 13  1  0
 13 14  1  1
 14 15  1  6
 14 16  1  0
 17 16  1  1
 17 18  1  0
 18 19  1  0
 19 20  1  1
 19 21  1  0
 21 22  1  0
 22 23  1  0
 23 24  1  6
 23 25  1  0
 25 26  1  6
 26 27  1  0
 27 28  1  0
 28 29  1  6
 28  9  1  0
 28 12  1  0
 25 13  1  0
 23 17  1  0
M  END
>  <MS_ID>  (374) 
MS0393

>  <SMILES>  (374) 
CC[C@H](CCC(=O)O)[C@H]1CC[C@H]2[C@@H]3[C@@H](O)C[C@@H]4C[C@H](O)CC[C@]4(C)[C@H]3CC[C@]12C

>  <Structure_dimension>  (374) 
2D

$$$$
MS0394
     RDKit          2D

 35 38  0  0  0  0  0  0  0  0999 V2000
   -2.0739   -4.3324    0.0000 C   0  0  0  0  0  0  0  0  0  0  0  0
   -1.3079   -3.0427    0.0000 C   0  0  0  0  0  0  0  0  0  0  0  0
   -2.0417   -1.7345    0.0000 C   0  0  0  0  0  0  0  0  0  0  0  0
   -3.5416   -1.7159    0.0000 C   0  0  0  0  0  0  0  0  0  0  0  0
   -4.2754   -0.4077    0.0000 C   0  0  0  0  0  0  0  0  0  0  0  0
   -3.5094    0.8819    0.0000 O   0  0  0  0  0  0  0  0  0  0  0  0
   -5.7753   -0.3891    0.0000 N   0  0  0  0  0  0  0  0  0  0  0  0
   -6.5092    0.9191    0.0000 S   0  0  0  0  0  0  0  0  0  0  0  0
   -5.2010    1.6530    0.0000 O   0  0  0  0  0  0  0  0  0  0  0  0
   -7.8174    0.1852    0.0000 O   0  0  0  0  0  0  0  0  0  0  0  0
   -7.2430    2.2273    0.0000 C   0  0  0  0  0  0  0  0  0  0  0  0
   -5.9348    2.9612    0.0000 F   0  0  0  0  0  0  0  0  0  0  0  0
   -8.5513    1.4935    0.0000 F   0  0  0  0  0  0  0  0  0  0  0  0
   -7.9769    3.5356    0.0000 F   0  0  0  0  0  0  0  0  0  0  0  0
    0.1920   -3.0613    0.0000 C   0  0  0  0  0  0  0  0  0  0  0  0
    1.0586   -4.2857    0.0000 C   0  0  0  0  0  0  0  0  0  0  0  0
    2.4908   -3.8398    0.0000 C   0  0  0  0  0  0  0  0  0  0  0  0
    2.5094   -2.3400    0.0000 C   0  0  0  0  0  0  0  0  0  0  0  0
    3.6365   -1.3501    0.0000 C   0  0  0  0  0  0  0  0  0  0  0  0
    5.0572   -1.8313    0.0000 C   0  0  0  0  0  0  0  0  0  0  0  0
    6.1843   -0.8415    0.0000 C   0  0  0  0  0  0  0  0  0  0  0  0
    5.8906    0.6295    0.0000 C   0  0  0  0  0  0  0  0  0  0  0  0
    7.0177    1.6193    0.0000 C   0  0  0  0  0  0  0  0  0  0  0  0
    6.7240    3.0903    0.0000 C   0  0  0  0  0  0  0  0  0  0  0  0
    7.8510    4.0801    0.0000 O   0  0  0  0  0  0  0  0  0  0  0  0
    5.3033    3.5714    0.0000 C   0  0  0  0  0  0  0  0  0  0  0  0
    4.1762    2.5816    0.0000 C   0  0  0  0  0  0  0  0  0  0  0  0
    4.4699    1.1106    0.0000 C   0  0  0  0  0  0  0  0  0  0  0  0
    3.0491    1.5918    0.0000 C   0  0  0  0  0  0  0  0  0  0  0  0
    3.3428    0.1208    0.0000 C   0  0  0  0  0  0  0  0  0  0  0  0
    1.9221    0.6020    0.0000 C   0  0  0  0  0  0  0  0  0  0  0  0
    0.7950   -0.3878    0.0000 C   0  0  0  0  0  0  0  0  0  0  0  0
   -0.6257    0.0933    0.0000 O   0  0  0  0  0  0  0  0  0  0  0  0
    1.0887   -1.8588    0.0000 C   0  0  0  0  0  0  0  0  0  0  0  0
   -0.3746   -1.5288    0.0000 C   0  0  0  0  0  0  0  0  0  0  0  0
  2  1  1  6
  2  3  1  0
  3  4  1  0
  4  5  1  0
  5  6  2  0
  5  7  1  0
  7  8  1  0
  8  9  2  0
  8 10  2  0
  8 11  1  0
 11 12  1  0
 11 13  1  0
 11 14  1  0
  2 15  1  0
 15 16  1  6
 16 17  1  0
 18 17  1  6
 18 19  1  0
 19 20  1  1
 20 21  1  0
 22 21  1  1
 22 23  1  0
 23 24  1  0
 24 25  1  1
 24 26  1  0
 26 27  1  0
 27 28  1  0
 28 29  1  6
 28 30  1  0
 30 31  1  6
 31 32  1  0
 32 33  1  1
 32 34  1  0
 34 35  1  6
 34 15  1  0
 34 18  1  0
 30 19  1  0
 28 22  1  0
M  END
>  <MS_ID>  (375) 
MS0394

>  <SMILES>  (375) 
C[C@H](CCC(=O)NS(=O)(=O)C(F)(F)F)[C@H]1CC[C@H]2[C@@H]3CC[C@@H]4C[C@H](O)CC[C@]4(C)[C@H]3C[C@H](O)[C@]12C

>  <Structure_dimension>  (375) 
2D

$$$$
MS0395
     RDKit          2D

 30 33  0  0  0  0  0  0  0  0999 V2000
   -2.6463   -3.7265    0.0000 C   0  0  0  0  0  0  0  0  0  0  0  0
   -1.8006   -2.4876    0.0000 C   0  0  0  0  0  0  0  0  0  0  0  0
   -2.4505   -1.1358    0.0000 C   0  0  0  0  0  0  0  0  0  0  0  0
   -3.9463   -1.0227    0.0000 C   0  0  0  0  0  0  0  0  0  0  0  0
   -4.5962    0.3291    0.0000 C   0  0  0  0  0  0  0  0  0  0  0  0
   -3.7505    1.5680    0.0000 O   0  0  0  0  0  0  0  0  0  0  0  0
   -6.0920    0.4422    0.0000 N   0  0  0  0  0  0  0  0  0  0  0  0
   -6.7419    1.7940    0.0000 C   0  0  0  0  0  0  0  0  0  0  0  0
   -8.2377    1.9071    0.0000 C   0  0  0  0  0  0  0  0  0  0  0  0
   -9.0834    0.6683    0.0000 O   0  0  0  0  0  0  0  0  0  0  0  0
   -8.8876    3.2590    0.0000 O   0  0  0  0  0  0  0  0  0  0  0  0
   -0.3048   -2.6007    0.0000 C   0  0  0  0  0  0  0  0  0  0  0  0
    0.4829   -3.8772    0.0000 C   0  0  0  0  0  0  0  0  0  0  0  0
    1.9403   -3.5225    0.0000 C   0  0  0  0  0  0  0  0  0  0  0  0
    2.0534   -2.0268    0.0000 C   0  0  0  0  0  0  0  0  0  0  0  0
    3.2406   -1.1099    0.0000 C   0  0  0  0  0  0  0  0  0  0  0  0
    4.6282   -1.6797    0.0000 C   0  0  0  0  0  0  0  0  0  0  0  0
    5.8154   -0.7628    0.0000 C   0  0  0  0  0  0  0  0  0  0  0  0
    5.6150    0.7237    0.0000 C   0  0  0  0  0  0  0  0  0  0  0  0
    6.8021    1.6405    0.0000 C   0  0  0  0  0  0  0  0  0  0  0  0
    6.6017    3.1271    0.0000 C   0  0  0  0  0  0  0  0  0  0  0  0
    5.2141    3.6968    0.0000 C   0  0  0  0  0  0  0  0  0  0  0  0
    4.0270    2.7800    0.0000 C   0  0  0  0  0  0  0  0  0  0  0  0
    4.2274    1.2934    0.0000 C   0  0  0  0  0  0  0  0  0  0  0  0
    2.8398    1.8632    0.0000 C   0  0  0  0  0  0  0  0  0  0  0  0
    3.0402    0.3766    0.0000 C   0  0  0  0  0  0  0  0  0  0  0  0
    1.6526    0.9463    0.0000 C   0  0  0  0  0  0  0  0  0  0  0  0
    0.4654    0.0295    0.0000 C   0  0  0  0  0  0  0  0  0  0  0  0
    0.6658   -1.4571    0.0000 C   0  0  0  0  0  0  0  0  0  0  0  0
   -0.7738   -1.0355    0.0000 C   0  0  0  0  0  0  0  0  0  0  0  0
  2  1  1  6
  2  3  1  0
  3  4  1  0
  4  5  1  0
  5  6  2  0
  5  7  1  0
  7  8  1  0
  8  9  1  0
  9 10  2  0
  9 11  1  0
  2 12  1  0
 12 13  1  6
 13 14  1  0
 15 14  1  6
 15 16  1  0
 16 17  1  1
 17 18  1  0
 19 18  1  1
 19 20  1  0
 20 21  1  0
 21 22  1  0
 22 23  1  0
 23 24  1  0
 24 25  1  6
 24 26  1  0
 26 27  1  6
 27 28  1  0
 28 29  1  0
 29 30  1  6
 29 12  1  0
 29 15  1  0
 26 16  1  0
 24 19  1  0
M  END
>  <MS_ID>  (376) 
MS0395

>  <SMILES>  (376) 
C[C@H](CCC(=O)NCC(=O)O)[C@H]1CC[C@H]2[C@@H]3CC[C@@H]4CCCC[C@]4(C)[C@H]3CC[C@]12C

>  <Structure_dimension>  (376) 
2D

$$$$
MS0396
     RDKit          2D

 36 40  0  0  0  0  0  0  0  0999 V2000
   -2.4892   -3.5387    0.0000 C   0  0  0  0  0  0  0  0  0  0  0  0
   -1.5752   -2.3494    0.0000 C   0  0  0  0  0  0  0  0  0  0  0  0
   -2.1482   -0.9631    0.0000 C   0  0  0  0  0  0  0  0  0  0  0  0
   -3.6352   -0.7662    0.0000 C   0  0  0  0  0  0  0  0  0  0  0  0
   -4.2082    0.6200    0.0000 C   0  0  0  0  0  0  0  0  0  0  0  0
   -3.2942    1.8094    0.0000 O   0  0  0  0  0  0  0  0  0  0  0  0
   -5.6952    0.8169    0.0000 C   0  0  0  0  0  0  0  0  0  0  0  0
   -6.2682    2.2031    0.0000 C   0  0  0  0  0  0  0  0  0  0  0  0
   -7.7552    2.4000    0.0000 C   0  0  0  0  0  0  0  0  0  0  0  0
   -8.3282    3.7863    0.0000 O   0  0  0  0  0  0  0  0  0  0  0  0
   -8.6693    1.2107    0.0000 C   0  0  0  0  0  0  0  0  0  0  0  0
   -8.0963   -0.1756    0.0000 C   0  0  0  0  0  0  0  0  0  0  0  0
   -9.0103   -1.3649    0.0000 O   0  0  0  0  0  0  0  0  0  0  0  0
   -6.6092   -0.3725    0.0000 C   0  0  0  0  0  0  0  0  0  0  0  0
   -0.0881   -2.5463    0.0000 C   0  0  0  0  0  0  0  0  0  0  0  0
    0.6266   -3.8650    0.0000 C   0  0  0  0  0  0  0  0  0  0  0  0
    2.1017   -3.5928    0.0000 C   0  0  0  0  0  0  0  0  0  0  0  0
    2.2986   -2.1057    0.0000 C   0  0  0  0  0  0  0  0  0  0  0  0
    3.5354   -1.2570    0.0000 C   0  0  0  0  0  0  0  0  0  0  0  0
    4.8888   -1.9038    0.0000 C   0  0  0  0  0  0  0  0  0  0  0  0
    5.0054   -3.3993    0.0000 O   0  0  0  0  0  0  0  0  0  0  0  0
    6.1256   -1.0551    0.0000 C   0  0  0  0  0  0  0  0  0  0  0  0
    6.0090    0.4403    0.0000 C   0  0  0  0  0  0  0  0  0  0  0  0
    7.2459    1.2890    0.0000 C   0  0  0  0  0  0  0  0  0  0  0  0
    7.1293    2.7845    0.0000 C   0  0  0  0  0  0  0  0  0  0  0  0
    8.3661    3.6332    0.0000 O   0  0  0  0  0  0  0  0  0  0  0  0
    5.7759    3.4313    0.0000 C   0  0  0  0  0  0  0  0  0  0  0  0
    4.5391    2.5826    0.0000 C   0  0  0  0  0  0  0  0  0  0  0  0
    4.6556    1.0871    0.0000 C   0  0  0  0  0  0  0  0  0  0  0  0
    3.3022    1.7339    0.0000 C   0  0  0  0  0  0  0  0  0  0  0  0
    3.4188    0.2384    0.0000 C   0  0  0  0  0  0  0  0  0  0  0  0
    2.0654    0.8852    0.0000 C   0  0  0  0  0  0  0  0  0  0  0  0
    0.8286    0.0365    0.0000 C   0  0  0  0  0  0  0  0  0  0  0  0
   -0.5248    0.6833    0.0000 O   0  0  0  0  0  0  0  0  0  0  0  0
    0.9452   -1.4590    0.0000 C   0  0  0  0  0  0  0  0  0  0  0  0
   -0.4684   -0.9572    0.0000 C   0  0  0  0  0  0  0  0  0  0  0  0
  2  1  1  6
  2  3  1  0
  3  4  1  0
  4  5  1  0
  5  6  2  0
  5  7  1  0
  7  8  2  0
  8  9  1  0
  9 10  1  0
  9 11  2  0
 11 12  1  0
 12 13  1  0
 12 14  2  0
  2 15  1  0
 15 16  1  6
 16 17  1  0
 18 17  1  6
 18 19  1  0
 19 20  1  1
 20 21  1  1
 20 22  1  0
 23 22  1  1
 23 24  1  0
 24 25  1  0
 25 26  1  1
 25 27  1  0
 27 28  1  0
 28 29  1  0
 29 30  1  6
 29 31  1  0
 31 32  1  6
 32 33  1  0
 33 34  1  1
 33 35  1  0
 35 36  1  6
 14  7  1  0
 35 15  1  0
 35 18  1  0
 31 19  1  0
 29 23  1  0
M  END
>  <MS_ID>  (377) 
MS0396

>  <SMILES>  (377) 
C[C@H](CCC(=O)c1cc(O)cc(O)c1)[C@H]1CC[C@H]2[C@@H]3[C@H](O)C[C@@H]4C[C@H](O)CC[C@]4(C)[C@H]3C[C@H](O)[C@]12C

>  <Structure_dimension>  (377) 
2D

$$$$
MS0397
     RDKit          2D

 37 41  0  0  0  0  0  0  0  0999 V2000
   -1.5628   -4.2562    0.0000 C   0  0  0  0  0  0  0  0  0  0  0  0
   -0.7772   -2.9784    0.0000 C   0  0  0  0  0  0  0  0  0  0  0  0
   -1.4911   -1.6591    0.0000 C   0  0  0  0  0  0  0  0  0  0  0  0
   -2.9905   -1.6177    0.0000 C   0  0  0  0  0  0  0  0  0  0  0  0
   -3.7043   -0.2984    0.0000 C   0  0  0  0  0  0  0  0  0  0  0  0
   -2.9187    0.9794    0.0000 O   0  0  0  0  0  0  0  0  0  0  0  0
   -5.2037   -0.2570    0.0000 O   0  0  0  0  0  0  0  0  0  0  0  0
   -5.9176    1.0623    0.0000 C   0  0  0  0  0  0  0  0  0  0  0  0
   -5.1320    2.3401    0.0000 C   0  0  0  0  0  0  0  0  0  0  0  0
   -5.8458    3.6594    0.0000 C   0  0  0  0  0  0  0  0  0  0  0  0
   -7.3452    3.7008    0.0000 C   0  0  0  0  0  0  0  0  0  0  0  0
   -8.1308    2.4230    0.0000 C   0  0  0  0  0  0  0  0  0  0  0  0
   -7.4170    1.1037    0.0000 C   0  0  0  0  0  0  0  0  0  0  0  0
   -8.2026   -0.1741    0.0000 C   0  0  0  0  0  0  0  0  0  0  0  0
   -7.4888   -1.4934    0.0000 O   0  0  0  0  0  0  0  0  0  0  0  0
   -9.7020   -0.1327    0.0000 O   0  0  0  0  0  0  0  0  0  0  0  0
    0.7222   -3.0198    0.0000 C   0  0  0  0  0  0  0  0  0  0  0  0
    1.5700   -4.2572    0.0000 C   0  0  0  0  0  0  0  0  0  0  0  0
    3.0089   -3.8333    0.0000 C   0  0  0  0  0  0  0  0  0  0  0  0
    3.0503   -2.3338    0.0000 C   0  0  0  0  0  0  0  0  0  0  0  0
    4.1923   -1.3613    0.0000 C   0  0  0  0  0  0  0  0  0  0  0  0
    5.6056   -1.8641    0.0000 C   0  0  0  0  0  0  0  0  0  0  0  0
    6.7476   -0.8916    0.0000 C   0  0  0  0  0  0  0  0  0  0  0  0
    6.4764    0.5837    0.0000 C   0  0  0  0  0  0  0  0  0  0  0  0
    7.6184    1.5562    0.0000 C   0  0  0  0  0  0  0  0  0  0  0  0
    7.3472    3.0315    0.0000 C   0  0  0  0  0  0  0  0  0  0  0  0
    8.4892    4.0040    0.0000 O   0  0  0  0  0  0  0  0  0  0  0  0
    5.9339    3.5343    0.0000 C   0  0  0  0  0  0  0  0  0  0  0  0
    4.7919    2.5617    0.0000 C   0  0  0  0  0  0  0  0  0  0  0  0
    5.0631    1.0865    0.0000 C   0  0  0  0  0  0  0  0  0  0  0  0
    3.6499    1.5892    0.0000 C   0  0  0  0  0  0  0  0  0  0  0  0
    3.9211    0.1140    0.0000 C   0  0  0  0  0  0  0  0  0  0  0  0
    2.5079    0.6167    0.0000 C   0  0  0  0  0  0  0  0  0  0  0  0
    1.3658   -0.3558    0.0000 C   0  0  0  0  0  0  0  0  0  0  0  0
   -0.0474    0.1469    0.0000 O   0  0  0  0  0  0  0  0  0  0  0  0
    1.6371   -1.8311    0.0000 C   0  0  0  0  0  0  0  0  0  0  0  0
    0.1790   -1.4788    0.0000 C   0  0  0  0  0  0  0  0  0  0  0  0
  2  1  1  6
  2  3  1  0
  3  4  1  0
  4  5  1  0
  5  6  2  0
  5  7  1  0
  7  8  1  0
  8  9  2  0
  9 10  1  0
 10 11  2  0
 11 12  1  0
 12 13  2  0
 13 14  1  0
 14 15  2  0
 14 16  1  0
  2 17  1  0
 17 18  1  6
 18 19  1  0
 20 19  1  6
 20 21  1  0
 21 22  1  1
 22 23  1  0
 24 23  1  1
 24 25  1  0
 25 26  1  0
 26 27  1  1
 26 28  1  0
 28 29  1  0
 29 30  1  0
 30 31  1  6
 30 32  1  0
 32 33  1  6
 33 34  1  0
 34 35  1  1
 34 36  1  0
 36 37  1  6
 13  8  1  0
 36 17  1  0
 36 20  1  0
 32 21  1  0
 30 24  1  0
M  END
>  <MS_ID>  (378) 
MS0397

>  <SMILES>  (378) 
C[C@H](CCC(=O)Oc1ccccc1C(=O)O)[C@H]1CC[C@H]2[C@@H]3CC[C@@H]4C[C@H](O)CC[C@]4(C)[C@H]3C[C@H](O)[C@]12C

>  <Structure_dimension>  (378) 
2D

$$$$
MS0398
     RDKit          2D

 28 31  0  0  0  0  0  0  0  0999 V2000
   -5.1275   -2.0302    0.0000 C   0  0  0  0  0  0  0  0  0  0  0  0
   -3.9468   -1.1050    0.0000 C   0  0  0  0  0  0  0  0  0  0  0  0
   -4.1576    0.3801    0.0000 C   0  0  0  0  0  0  0  0  0  0  0  0
   -5.5492    0.9401    0.0000 C   0  0  0  0  0  0  0  0  0  0  0  0
   -5.7600    2.4252    0.0000 C   0  0  0  0  0  0  0  0  0  0  0  0
   -4.5793    3.3503    0.0000 O   0  0  0  0  0  0  0  0  0  0  0  0
   -7.1516    2.9851    0.0000 O   0  0  0  0  0  0  0  0  0  0  0  0
   -2.5552   -1.6650    0.0000 C   0  0  0  0  0  0  0  0  0  0  0  0
   -2.1903   -3.1199    0.0000 C   0  0  0  0  0  0  0  0  0  0  0  0
   -0.6938   -3.2225    0.0000 C   0  0  0  0  0  0  0  0  0  0  0  0
   -0.1339   -1.8309    0.0000 C   0  0  0  0  0  0  0  0  0  0  0  0
    1.2750   -1.3159    0.0000 C   0  0  0  0  0  0  0  0  0  0  0  0
    2.4254   -2.2785    0.0000 C   0  0  0  0  0  0  0  0  0  0  0  0
    2.1670   -3.7560    0.0000 O   0  0  0  0  0  0  0  0  0  0  0  0
    3.8342   -1.7635    0.0000 C   0  0  0  0  0  0  0  0  0  0  0  0
    4.0926   -0.2859    0.0000 C   0  0  0  0  0  0  0  0  0  0  0  0
    5.5014    0.2291    0.0000 C   0  0  0  0  0  0  0  0  0  0  0  0
    5.7598    1.7067    0.0000 C   0  0  0  0  0  0  0  0  0  0  0  0
    7.1687    2.2217    0.0000 Cl  0  0  0  0  0  0  0  0  0  0  0  0
    4.6094    2.6692    0.0000 C   0  0  0  0  0  0  0  0  0  0  0  0
    3.2006    2.1542    0.0000 C   0  0  0  0  0  0  0  0  0  0  0  0
    2.9422    0.6767    0.0000 C   0  0  0  0  0  0  0  0  0  0  0  0
    1.7918    1.6392    0.0000 C   0  0  0  0  0  0  0  0  0  0  0  0
    1.5334    0.1617    0.0000 C   0  0  0  0  0  0  0  0  0  0  0  0
    0.3830    1.1242    0.0000 C   0  0  0  0  0  0  0  0  0  0  0  0
   -1.0259    0.6093    0.0000 C   0  0  0  0  0  0  0  0  0  0  0  0
   -1.2843   -0.8683    0.0000 C   0  0  0  0  0  0  0  0  0  0  0  0
   -2.5290   -0.0313    0.0000 C   0  0  0  0  0  0  0  0  0  0  0  0
  2  1  1  6
  2  3  1  0
  3  4  1  0
  4  5  1  0
  5  6  2  0
  5  7  1  0
  2  8  1  0
  8  9  1  6
  9 10  1  0
 11 10  1  6
 11 12  1  0
 12 13  1  1
 13 14  1  1
 13 15  1  0
 16 15  1  1
 16 17  1  0
 17 18  1  0
 18 19  1  1
 18 20  1  0
 20 21  1  0
 21 22  1  0
 22 23  1  6
 22 24  1  0
 24 25  1  6
 25 26  1  0
 26 27  1  0
 27 28  1  6
 27  8  1  0
 27 11  1  0
 24 12  1  0
 22 16  1  0
M  END
>  <MS_ID>  (379) 
MS0398

>  <SMILES>  (379) 
C[C@H](CCC(=O)O)[C@H]1CC[C@H]2[C@@H]3[C@H](O)C[C@@H]4C[C@H](Cl)CC[C@]4(C)[C@H]3CC[C@]12C

>  <Structure_dimension>  (379) 
2D

$$$$
MS0399
     RDKit          2D

 28 31  0  0  0  0  0  0  0  0999 V2000
   -5.2870   -1.7591    0.0000 C   0  0  0  0  0  0  0  0  0  0  0  0
   -4.0706   -0.8813    0.0000 C   0  0  0  0  0  0  0  0  0  0  0  0
   -4.2226    0.6109    0.0000 C   0  0  0  0  0  0  0  0  0  0  0  0
   -5.5910    1.2255    0.0000 C   0  0  0  0  0  0  0  0  0  0  0  0
   -5.7429    2.7177    0.0000 C   0  0  0  0  0  0  0  0  0  0  0  0
   -7.1113    3.3322    0.0000 O   0  0  0  0  0  0  0  0  0  0  0  0
   -2.7023   -1.4959    0.0000 C   0  0  0  0  0  0  0  0  0  0  0  0
   -2.3951   -2.9641    0.0000 C   0  0  0  0  0  0  0  0  0  0  0  0
   -0.9039   -3.1257    0.0000 C   0  0  0  0  0  0  0  0  0  0  0  0
   -0.2893   -1.7573    0.0000 C   0  0  0  0  0  0  0  0  0  0  0  0
    1.1387   -1.2984    0.0000 C   0  0  0  0  0  0  0  0  0  0  0  0
    2.2502   -2.3057    0.0000 C   0  0  0  0  0  0  0  0  0  0  0  0
    1.9336   -3.7719    0.0000 O   0  0  0  0  0  0  0  0  0  0  0  0
    3.6783   -1.8467    0.0000 C   0  0  0  0  0  0  0  0  0  0  0  0
    3.9949   -0.3805    0.0000 C   0  0  0  0  0  0  0  0  0  0  0  0
    5.4229    0.0784    0.0000 C   0  0  0  0  0  0  0  0  0  0  0  0
    5.7395    1.5446    0.0000 C   0  0  0  0  0  0  0  0  0  0  0  0
    7.1676    2.0035    0.0000 O   0  0  0  0  0  0  0  0  0  0  0  0
    4.6280    2.5519    0.0000 C   0  0  0  0  0  0  0  0  0  0  0  0
    3.2000    2.0930    0.0000 C   0  0  0  0  0  0  0  0  0  0  0  0
    2.8834    0.6267    0.0000 C   0  0  0  0  0  0  0  0  0  0  0  0
    1.7719    1.6340    0.0000 C   0  0  0  0  0  0  0  0  0  0  0  0
    1.4553    0.1678    0.0000 C   0  0  0  0  0  0  0  0  0  0  0  0
    0.3438    1.1751    0.0000 C   0  0  0  0  0  0  0  0  0  0  0  0
   -1.0842    0.7162    0.0000 C   0  0  0  0  0  0  0  0  0  0  0  0
   -2.1957    1.7234    0.0000 O   0  0  0  0  0  0  0  0  0  0  0  0
   -1.4008   -0.7500    0.0000 C   0  0  0  0  0  0  0  0  0  0  0  0
   -2.6115    0.1355    0.0000 C   0  0  0  0  0  0  0  0  0  0  0  0
  2  1  1  6
  2  3  1  0
  3  4  1  0
  4  5  1  0
  5  6  2  0
  2  7  1  0
  7  8  1  6
  8  9  1  0
 10  9  1  6
 10 11  1  0
 11 12  1  1
 12 13  1  1
 12 14  1  0
 15 14  1  1
 15 16  1  0
 16 17  1  0
 17 18  1  1
 17 19  1  0
 19 20  1  0
 20 21  1  0
 21 22  1  6
 21 23  1  0
 23 24  1  6
 24 25  1  0
 25 26  1  6
 25 27  1  0
 27 28  1  6
 27  7  1  0
 27 10  1  0
 23 11  1  0
 21 15  1  0
M  END
>  <MS_ID>  (380) 
MS0399

>  <SMILES>  (380) 
C[C@H](CCC=O)[C@H]1CC[C@H]2[C@@H]3[C@H](O)C[C@@H]4C[C@H](O)CC[C@]4(C)[C@H]3C[C@@H](O)[C@]12C

>  <Structure_dimension>  (380) 
2D

$$$$
MS0400
     RDKit          2D

 28 31  0  0  0  0  0  0  0  0999 V2000
   -5.1275   -2.0302    0.0000 C   0  0  0  0  0  0  0  0  0  0  0  0
   -3.9468   -1.1050    0.0000 C   0  0  0  0  0  0  0  0  0  0  0  0
   -4.1576    0.3801    0.0000 C   0  0  0  0  0  0  0  0  0  0  0  0
   -5.5492    0.9401    0.0000 C   0  0  0  0  0  0  0  0  0  0  0  0
   -5.7600    2.4252    0.0000 C   0  0  0  0  0  0  0  0  0  0  0  0
   -7.1516    2.9851    0.0000 O   0  0  0  0  0  0  0  0  0  0  0  0
   -4.5793    3.3503    0.0000 F   0  0  0  0  0  0  0  0  0  0  0  0
   -2.5552   -1.6650    0.0000 C   0  0  0  0  0  0  0  0  0  0  0  0
   -2.1903   -3.1199    0.0000 C   0  0  0  0  0  0  0  0  0  0  0  0
   -0.6938   -3.2225    0.0000 C   0  0  0  0  0  0  0  0  0  0  0  0
   -0.1339   -1.8309    0.0000 C   0  0  0  0  0  0  0  0  0  0  0  0
    1.2750   -1.3159    0.0000 C   0  0  0  0  0  0  0  0  0  0  0  0
    2.4254   -2.2785    0.0000 C   0  0  0  0  0  0  0  0  0  0  0  0
    2.1670   -3.7560    0.0000 O   0  0  0  0  0  0  0  0  0  0  0  0
    3.8342   -1.7635    0.0000 C   0  0  0  0  0  0  0  0  0  0  0  0
    4.0926   -0.2859    0.0000 C   0  0  0  0  0  0  0  0  0  0  0  0
    5.5014    0.2291    0.0000 C   0  0  0  0  0  0  0  0  0  0  0  0
    5.7598    1.7067    0.0000 C   0  0  0  0  0  0  0  0  0  0  0  0
    7.1687    2.2217    0.0000 O   0  0  0  0  0  0  0  0  0  0  0  0
    4.6094    2.6692    0.0000 C   0  0  0  0  0  0  0  0  0  0  0  0
    3.2006    2.1542    0.0000 C   0  0  0  0  0  0  0  0  0  0  0  0
    2.9422    0.6767    0.0000 C   0  0  0  0  0  0  0  0  0  0  0  0
    1.7918    1.6392    0.0000 C   0  0  0  0  0  0  0  0  0  0  0  0
    1.5334    0.1617    0.0000 C   0  0  0  0  0  0  0  0  0  0  0  0
    0.3830    1.1242    0.0000 C   0  0  0  0  0  0  0  0  0  0  0  0
   -1.0259    0.6093    0.0000 C   0  0  0  0  0  0  0  0  0  0  0  0
   -1.2843   -0.8683    0.0000 C   0  0  0  0  0  0  0  0  0  0  0  0
   -2.5290   -0.0313    0.0000 C   0  0  0  0  0  0  0  0  0  0  0  0
  2  1  1  6
  2  3  1  0
  3  4  1  0
  4  5  1  0
  5  6  2  0
  5  7  1  0
  2  8  1  0
  8  9  1  6
  9 10  1  0
 11 10  1  6
 11 12  1  0
 12 13  1  1
 13 14  1  6
 13 15  1  0
 16 15  1  1
 16 17  1  0
 17 18  1  0
 18 19  1  1
 18 20  1  0
 20 21  1  0
 21 22  1  0
 22 23  1  6
 22 24  1  0
 24 25  1  6
 25 26  1  0
 26 27  1  0
 27 28  1  6
 27  8  1  0
 27 11  1  0
 24 12  1  0
 22 16  1  0
M  END
>  <MS_ID>  (381) 
MS0400

>  <SMILES>  (381) 
C[C@H](CCC(=O)F)[C@H]1CC[C@H]2[C@@H]3[C@@H](O)C[C@@H]4C[C@H](O)CC[C@]4(C)[C@H]3CC[C@]12C

>  <Structure_dimension>  (381) 
2D

$$$$
MS0401
     RDKit          2D

 31 34  0  0  0  0  0  0  0  0999 V2000
   -3.9971    4.8499    0.0000 C   0  0  0  0  0  0  0  0  0  0  0  0
   -5.0345    3.7665    0.0000 N   0  0  0  0  0  0  0  0  0  0  0  0
   -4.6150    2.3263    0.0000 O   0  0  0  0  0  0  0  0  0  0  0  0
   -5.6525    1.2430    0.0000 C   0  0  0  0  0  0  0  0  0  0  0  0
   -7.1095    1.5998    0.0000 O   0  0  0  0  0  0  0  0  0  0  0  0
   -5.2330   -0.1972    0.0000 C   0  0  0  0  0  0  0  0  0  0  0  0
   -3.7761   -0.5540    0.0000 C   0  0  0  0  0  0  0  0  0  0  0  0
   -3.3566   -1.9941    0.0000 C   0  0  0  0  0  0  0  0  0  0  0  0
   -4.3941   -3.0775    0.0000 C   0  0  0  0  0  0  0  0  0  0  0  0
   -1.8996   -2.3509    0.0000 C   0  0  0  0  0  0  0  0  0  0  0  0
   -1.3319   -3.7393    0.0000 C   0  0  0  0  0  0  0  0  0  0  0  0
    0.1640   -3.6284    0.0000 C   0  0  0  0  0  0  0  0  0  0  0  0
    0.5208   -2.1715    0.0000 C   0  0  0  0  0  0  0  0  0  0  0  0
    1.8422   -1.4617    0.0000 C   0  0  0  0  0  0  0  0  0  0  0  0
    3.1176   -2.2513    0.0000 C   0  0  0  0  0  0  0  0  0  0  0  0
    3.0715   -3.7506    0.0000 O   0  0  0  0  0  0  0  0  0  0  0  0
    4.4391   -1.5416    0.0000 C   0  0  0  0  0  0  0  0  0  0  0  0
    4.4852   -0.0423    0.0000 C   0  0  0  0  0  0  0  0  0  0  0  0
    5.8066    0.6675    0.0000 C   0  0  0  0  0  0  0  0  0  0  0  0
    5.8527    2.1668    0.0000 C   0  0  0  0  0  0  0  0  0  0  0  0
    7.1742    2.8765    0.0000 O   0  0  0  0  0  0  0  0  0  0  0  0
    4.5773    2.9563    0.0000 C   0  0  0  0  0  0  0  0  0  0  0  0
    3.2559    2.2466    0.0000 C   0  0  0  0  0  0  0  0  0  0  0  0
    3.2098    0.7473    0.0000 C   0  0  0  0  0  0  0  0  0  0  0  0
    1.9344    1.5368    0.0000 C   0  0  0  0  0  0  0  0  0  0  0  0
    1.8883    0.0376    0.0000 C   0  0  0  0  0  0  0  0  0  0  0  0
    0.6129    0.8271    0.0000 C   0  0  0  0  0  0  0  0  0  0  0  0
   -0.7085    0.1174    0.0000 C   0  0  0  0  0  0  0  0  0  0  0  0
   -1.9839    0.9069    0.0000 O   0  0  0  0  0  0  0  0  0  0  0  0
   -0.7546   -1.3819    0.0000 C   0  0  0  0  0  0  0  0  0  0  0  0
   -2.1055   -0.7300    0.0000 C   0  0  0  0  0  0  0  0  0  0  0  0
  1  2  1  0
  2  3  1  0
  3  4  1  0
  4  5  2  0
  4  6  1  0
  6  7  1  0
  7  8  1  0
  8  9  1  6
  8 10  1  0
 10 11  1  6
 11 12  1  0
 13 12  1  6
 13 14  1  0
 14 15  1  1
 15 16  1  1
 15 17  1  0
 18 17  1  1
 18 19  1  0
 19 20  1  0
 20 21  1  1
 20 22  1  0
 22 23  1  0
 23 24  1  0
 24 25  1  6
 24 26  1  0
 26 27  1  6
 27 28  1  0
 28 29  1  1
 28 30  1  0
 30 31  1  6
 30 10  1  0
 30 13  1  0
 26 14  1  0
 24 18  1  0
M  END
>  <MS_ID>  (382) 
MS0401

>  <SMILES>  (382) 
CNOC(=O)CC[C@@H](C)[C@H]1CC[C@H]2[C@@H]3[C@H](O)C[C@@H]4C[C@H](O)CC[C@]4(C)[C@H]3C[C@H](O)[C@]12C

>  <Structure_dimension>  (382) 
2D

$$$$
MS0403
     RDKit          2D

 37 41  0  0  0  0  0  0  0  0999 V2000
   -1.4739   -4.1062    0.0000 C   0  0  0  0  0  0  0  0  0  0  0  0
   -0.7139   -2.8129    0.0000 C   0  0  0  0  0  0  0  0  0  0  0  0
   -1.4539   -1.5082    0.0000 C   0  0  0  0  0  0  0  0  0  0  0  0
   -2.9539   -1.4966    0.0000 C   0  0  0  0  0  0  0  0  0  0  0  0
   -3.6939   -0.1919    0.0000 C   0  0  0  0  0  0  0  0  0  0  0  0
   -2.9339    1.1014    0.0000 O   0  0  0  0  0  0  0  0  0  0  0  0
   -5.1938   -0.1803    0.0000 N   0  0  0  0  0  0  0  0  0  0  0  0
   -5.9338    1.1245    0.0000 C   0  0  0  0  0  0  0  0  0  0  0  0
   -7.4337    1.1360    0.0000 C   0  0  0  0  0  0  0  0  0  0  0  0
   -8.1737    2.4408    0.0000 C   0  0  0  0  0  0  0  0  0  0  0  0
   -9.6737    2.4523    0.0000 C   0  0  0  0  0  0  0  0  0  0  0  0
  -10.4336    1.1591    0.0000 C   0  0  0  0  0  0  0  0  0  0  0  0
  -11.9336    1.1707    0.0000 O   0  0  0  0  0  0  0  0  0  0  0  0
   -9.6937   -0.1457    0.0000 C   0  0  0  0  0  0  0  0  0  0  0  0
   -8.1937   -0.1572    0.0000 C   0  0  0  0  0  0  0  0  0  0  0  0
    0.7860   -2.8245    0.0000 C   0  0  0  0  0  0  0  0  0  0  0  0
    1.6583   -4.0448    0.0000 C   0  0  0  0  0  0  0  0  0  0  0  0
    3.0884   -3.5922    0.0000 C   0  0  0  0  0  0  0  0  0  0  0  0
    3.1000   -2.0923    0.0000 C   0  0  0  0  0  0  0  0  0  0  0  0
    4.2224   -1.0972    0.0000 C   0  0  0  0  0  0  0  0  0  0  0  0
    5.6454   -1.5717    0.0000 C   0  0  0  0  0  0  0  0  0  0  0  0
    5.9459   -3.0413    0.0000 O   0  0  0  0  0  0  0  0  0  0  0  0
    6.7678   -0.5766    0.0000 C   0  0  0  0  0  0  0  0  0  0  0  0
    6.4672    0.8930    0.0000 C   0  0  0  0  0  0  0  0  0  0  0  0
    7.5896    1.8880    0.0000 C   0  0  0  0  0  0  0  0  0  0  0  0
    7.2891    3.3576    0.0000 C   0  0  0  0  0  0  0  0  0  0  0  0
    8.4115    4.3527    0.0000 O   0  0  0  0  0  0  0  0  0  0  0  0
    5.8661    3.8321    0.0000 C   0  0  0  0  0  0  0  0  0  0  0  0
    4.7437    2.8370    0.0000 C   0  0  0  0  0  0  0  0  0  0  0  0
    5.0442    1.3675    0.0000 C   0  0  0  0  0  0  0  0  0  0  0  0
    3.6213    1.8420    0.0000 C   0  0  0  0  0  0  0  0  0  0  0  0
    3.9218    0.3724    0.0000 C   0  0  0  0  0  0  0  0  0  0  0  0
    2.4989    0.8469    0.0000 C   0  0  0  0  0  0  0  0  0  0  0  0
    1.3764   -0.1482    0.0000 C   0  0  0  0  0  0  0  0  0  0  0  0
   -0.0465    0.3263    0.0000 O   0  0  0  0  0  0  0  0  0  0  0  0
    1.6770   -1.6178    0.0000 C   0  0  0  0  0  0  0  0  0  0  0  0
    0.2122   -1.2946    0.0000 C   0  0  0  0  0  0  0  0  0  0  0  0
  2  1  1  6
  2  3  1  0
  3  4  1  0
  4  5  1  0
  5  6  2  0
  5  7  1  0
  7  8  1  0
  8  9  1  0
  9 10  2  0
 10 11  1  0
 11 12  2  0
 12 13  1  0
 12 14  1  0
 14 15  2  0
  2 16  1  0
 16 17  1  6
 17 18  1  0
 19 18  1  6
 19 20  1  0
 20 21  1  1
 21 22  1  1
 21 23  1  0
 24 23  1  1
 24 25  1  0
 25 26  1  0
 26 27  1  1
 26 28  1  0
 28 29  1  0
 29 30  1  0
 30 31  1  6
 30 32  1  0
 32 33  1  6
 33 34  1  0
 34 35  1  1
 34 36  1  0
 36 37  1  6
 15  9  1  0
 36 16  1  0
 36 19  1  0
 32 20  1  0
 30 24  1  0
M  END
>  <MS_ID>  (383) 
MS0403

>  <SMILES>  (383) 
C[C@H](CCC(=O)NCc1ccc(O)cc1)[C@H]1CC[C@H]2[C@@H]3[C@H](O)C[C@@H]4C[C@H](O)CC[C@]4(C)[C@H]3C[C@H](O)[C@]12C

>  <Structure_dimension>  (383) 
2D

$$$$
MS0404
     RDKit          2D

 35 39  0  0  0  0  0  0  0  0999 V2000
   -1.6577   -4.6151    0.0000 C   0  0  0  0  0  0  0  0  0  0  0  0
   -0.9878   -3.2730    0.0000 C   0  0  0  0  0  0  0  0  0  0  0  0
   -1.8152   -2.0218    0.0000 C   0  0  0  0  0  0  0  0  0  0  0  0
   -3.3124   -2.1127    0.0000 C   0  0  0  0  0  0  0  0  0  0  0  0
   -4.1398   -0.8615    0.0000 C   0  0  0  0  0  0  0  0  0  0  0  0
   -3.4698    0.4806    0.0000 O   0  0  0  0  0  0  0  0  0  0  0  0
   -5.6370   -0.9524    0.0000 N   0  0  0  0  0  0  0  0  0  0  0  0
   -6.4643    0.2988    0.0000 C   0  0  0  0  0  0  0  0  0  0  0  0
   -5.7944    1.6409    0.0000 C   0  0  0  0  0  0  0  0  0  0  0  0
   -6.6218    2.8921    0.0000 C   0  0  0  0  0  0  0  0  0  0  0  0
   -8.1190    2.8012    0.0000 C   0  0  0  0  0  0  0  0  0  0  0  0
   -8.9464    4.0524    0.0000 O   0  0  0  0  0  0  0  0  0  0  0  0
   -8.7889    1.4591    0.0000 C   0  0  0  0  0  0  0  0  0  0  0  0
   -7.9616    0.2079    0.0000 C   0  0  0  0  0  0  0  0  0  0  0  0
    0.5094   -3.1821    0.0000 C   0  0  0  0  0  0  0  0  0  0  0  0
    1.4630   -4.3400    0.0000 C   0  0  0  0  0  0  0  0  0  0  0  0
    2.8589   -3.7909    0.0000 C   0  0  0  0  0  0  0  0  0  0  0  0
    2.7680   -2.2936    0.0000 C   0  0  0  0  0  0  0  0  0  0  0  0
    3.8198   -1.2243    0.0000 C   0  0  0  0  0  0  0  0  0  0  0  0
    5.2719   -1.6005    0.0000 C   0  0  0  0  0  0  0  0  0  0  0  0
    6.3237   -0.5311    0.0000 C   0  0  0  0  0  0  0  0  0  0  0  0
    5.9235    0.9145    0.0000 C   0  0  0  0  0  0  0  0  0  0  0  0
    6.9754    1.9839    0.0000 C   0  0  0  0  0  0  0  0  0  0  0  0
    6.5752    3.4296    0.0000 C   0  0  0  0  0  0  0  0  0  0  0  0
    7.6270    4.4990    0.0000 O   0  0  0  0  0  0  0  0  0  0  0  0
    5.1231    3.8058    0.0000 C   0  0  0  0  0  0  0  0  0  0  0  0
    4.0713    2.7364    0.0000 C   0  0  0  0  0  0  0  0  0  0  0  0
    4.4715    1.2908    0.0000 C   0  0  0  0  0  0  0  0  0  0  0  0
    3.0194    1.6670    0.0000 C   0  0  0  0  0  0  0  0  0  0  0  0
    3.4196    0.2214    0.0000 C   0  0  0  0  0  0  0  0  0  0  0  0
    1.9676    0.5976    0.0000 C   0  0  0  0  0  0  0  0  0  0  0  0
    0.9157   -0.4718    0.0000 C   0  0  0  0  0  0  0  0  0  0  0  0
   -0.5363   -0.0956    0.0000 O   0  0  0  0  0  0  0  0  0  0  0  0
    1.3159   -1.9174    0.0000 C   0  0  0  0  0  0  0  0  0  0  0  0
   -0.1675   -1.6950    0.0000 C   0  0  0  0  0  0  0  0  0  0  0  0
  2  1  1  6
  2  3  1  0
  3  4  1  0
  4  5  1  0
  5  6  2  0
  5  7  1  0
  7  8  1  0
  8  9  2  0
  9 10  1  0
 10 11  2  0
 11 12  1  0
 11 13  1  0
 13 14  2  0
  2 15  1  0
 15 16  1  6
 16 17  1  0
 18 17  1  6
 18 19  1  0
 19 20  1  1
 20 21  1  0
 22 21  1  1
 22 23  1  0
 23 24  1  0
 24 25  1  1
 24 26  1  0
 26 27  1  0
 27 28  1  0
 28 29  1  6
 28 30  1  0
 30 31  1  6
 31 32  1  0
 32 33  1  1
 32 34  1  0
 34 35  1  6
 14  8  1  0
 34 15  1  0
 34 18  1  0
 30 19  1  0
 28 22  1  0
M  END
>  <MS_ID>  (384) 
MS0404

>  <SMILES>  (384) 
C[C@H](CCC(=O)Nc1ccc(O)cc1)[C@H]1CC[C@H]2[C@@H]3CC[C@@H]4C[C@H](O)CC[C@]4(C)[C@H]3C[C@H](O)[C@]12C

>  <Structure_dimension>  (384) 
2D

$$$$
MS0405
     RDKit          2D

 31 34  0  0  0  0  0  0  0  0999 V2000
   -6.2983   -1.8943    0.0000 C   0  0  0  0  0  0  0  0  0  0  0  0
   -5.0623   -1.0445    0.0000 C   0  0  0  0  0  0  0  0  0  0  0  0
   -5.1802    0.4509    0.0000 C   0  0  0  0  0  0  0  0  0  0  0  0
   -6.5342    1.0964    0.0000 C   0  0  0  0  0  0  0  0  0  0  0  0
   -6.6522    2.5917    0.0000 C   0  0  0  0  0  0  0  0  0  0  0  0
   -8.0062    3.2373    0.0000 O   0  0  0  0  0  0  0  0  0  0  0  0
   -5.4162    3.4416    0.0000 S   0  0  0  0  0  0  0  0  0  0  0  0
   -3.7083   -1.6900    0.0000 C   0  0  0  0  0  0  0  0  0  0  0  0
   -3.4346   -3.1648    0.0000 C   0  0  0  0  0  0  0  0  0  0  0  0
   -1.9474   -3.3603    0.0000 C   0  0  0  0  0  0  0  0  0  0  0  0
   -1.3019   -2.0063    0.0000 C   0  0  0  0  0  0  0  0  0  0  0  0
    0.1362   -1.5800    0.0000 C   0  0  0  0  0  0  0  0  0  0  0  0
    1.2245   -2.6123    0.0000 C   0  0  0  0  0  0  0  0  0  0  0  0
    2.6626   -2.1860    0.0000 C   0  0  0  0  0  0  0  0  0  0  0  0
    3.0125   -0.7274    0.0000 C   0  0  0  0  0  0  0  0  0  0  0  0
    4.4507   -0.3011    0.0000 C   0  0  0  0  0  0  0  0  0  0  0  0
    4.8006    1.1575    0.0000 C   0  0  0  0  0  0  0  0  0  0  0  0
    6.2387    1.5838    0.0000 O   0  0  0  0  0  0  0  0  0  0  0  0
    7.3270    0.5515    0.0000 S   0  0  0  0  0  0  0  0  0  0  0  0
    6.2946   -0.5368    0.0000 O   0  0  0  0  0  0  0  0  0  0  0  0
    8.3593    1.6397    0.0000 O   0  0  0  0  0  0  0  0  0  0  0  0
    8.4152   -0.4809    0.0000 O   0  0  0  0  0  0  0  0  0  0  0  0
    3.7123    2.1898    0.0000 C   0  0  0  0  0  0  0  0  0  0  0  0
    2.2742    1.7635    0.0000 C   0  0  0  0  0  0  0  0  0  0  0  0
    1.9243    0.3049    0.0000 C   0  0  0  0  0  0  0  0  0  0  0  0
    0.8360    1.3372    0.0000 C   0  0  0  0  0  0  0  0  0  0  0  0
    0.4861   -0.1214    0.0000 C   0  0  0  0  0  0  0  0  0  0  0  0
   -0.6021    0.9109    0.0000 C   0  0  0  0  0  0  0  0  0  0  0  0
   -2.0403    0.4846    0.0000 C   0  0  0  0  0  0  0  0  0  0  0  0
   -2.3902   -0.9740    0.0000 C   0  0  0  0  0  0  0  0  0  0  0  0
   -3.5804   -0.0611    0.0000 C   0  0  0  0  0  0  0  0  0  0  0  0
  2  1  1  6
  2  3  1  0
  3  4  1  0
  4  5  1  0
  5  6  2  0
  5  7  1  0
  2  8  1  0
  8  9  1  6
  9 10  1  0
 11 10  1  6
 11 12  1  0
 12 13  1  1
 13 14  1  0
 15 14  1  1
 15 16  1  0
 16 17  1  0
 17 18  1  1
 18 19  1  0
 19 20  2  0
 19 21  2  0
 19 22  1  0
 17 23  1  0
 23 24  1  0
 24 25  1  0
 25 26  1  6
 25 27  1  0
 27 28  1  6
 28 29  1  0
 29 30  1  0
 30 31  1  6
 30  8  1  0
 30 11  1  0
 27 12  1  0
 25 15  1  0
M  END
>  <MS_ID>  (385) 
MS0405

>  <SMILES>  (385) 
C[C@H](CCC(=O)S)[C@H]1CC[C@H]2[C@@H]3CC[C@@H]4C[C@H](OS(=O)(=O)O)CC[C@]4(C)[C@H]3CC[C@]12C

>  <Structure_dimension>  (385) 
2D

$$$$
MS0406
     RDKit          2D

 34 37  0  0  0  0  0  0  0  0999 V2000
   -5.6108   -2.4997    0.0000 C   0  0  0  0  0  0  0  0  0  0  0  0
   -4.4564   -1.5419    0.0000 C   0  0  0  0  0  0  0  0  0  0  0  0
   -4.7086   -0.0633    0.0000 C   0  0  0  0  0  0  0  0  0  0  0  0
   -6.1153    0.4576    0.0000 C   0  0  0  0  0  0  0  0  0  0  0  0
   -6.3675    1.9362    0.0000 C   0  0  0  0  0  0  0  0  0  0  0  0
   -5.2131    2.8940    0.0000 O   0  0  0  0  0  0  0  0  0  0  0  0
   -7.7742    2.4571    0.0000 N   0  0  0  0  0  0  0  0  0  0  0  0
   -8.0264    3.9358    0.0000 C   0  0  0  0  0  0  0  0  0  0  0  0
   -8.9286    1.4994    0.0000 C   0  0  0  0  0  0  0  0  0  0  0  0
   -3.0498   -2.0628    0.0000 C   0  0  0  0  0  0  0  0  0  0  0  0
   -2.6443   -3.5070    0.0000 C   0  0  0  0  0  0  0  0  0  0  0  0
   -1.1456   -3.5677    0.0000 C   0  0  0  0  0  0  0  0  0  0  0  0
   -0.6247   -2.1611    0.0000 C   0  0  0  0  0  0  0  0  0  0  0  0
    0.7692   -1.6069    0.0000 C   0  0  0  0  0  0  0  0  0  0  0  0
    1.9460   -2.5370    0.0000 C   0  0  0  0  0  0  0  0  0  0  0  0
    1.7290   -4.0212    0.0000 O   0  0  0  0  0  0  0  0  0  0  0  0
    3.3399   -1.9829    0.0000 C   0  0  0  0  0  0  0  0  0  0  0  0
    3.5570   -0.4986    0.0000 C   0  0  0  0  0  0  0  0  0  0  0  0
    4.9509    0.0555    0.0000 C   0  0  0  0  0  0  0  0  0  0  0  0
    5.1679    1.5397    0.0000 C   0  0  0  0  0  0  0  0  0  0  0  0
    6.5618    2.0938    0.0000 O   0  0  0  0  0  0  0  0  0  0  0  0
    7.7386    1.1638    0.0000 S   0  0  0  0  0  0  0  0  0  0  0  0
    6.8086   -0.0131    0.0000 O   0  0  0  0  0  0  0  0  0  0  0  0
    8.6687    2.3406    0.0000 O   0  0  0  0  0  0  0  0  0  0  0  0
    8.9155    0.2337    0.0000 O   0  0  0  0  0  0  0  0  0  0  0  0
    3.9911    2.4698    0.0000 C   0  0  0  0  0  0  0  0  0  0  0  0
    2.5972    1.9156    0.0000 C   0  0  0  0  0  0  0  0  0  0  0  0
    2.3801    0.4314    0.0000 C   0  0  0  0  0  0  0  0  0  0  0  0
    1.2033    1.3615    0.0000 C   0  0  0  0  0  0  0  0  0  0  0  0
    0.9862   -0.1227    0.0000 C   0  0  0  0  0  0  0  0  0  0  0  0
   -0.1906    0.8074    0.0000 C   0  0  0  0  0  0  0  0  0  0  0  0
   -1.5845    0.2532    0.0000 C   0  0  0  0  0  0  0  0  0  0  0  0
   -1.8015   -1.2310    0.0000 C   0  0  0  0  0  0  0  0  0  0  0  0
   -3.0692   -0.4290    0.0000 C   0  0  0  0  0  0  0  0  0  0  0  0
  2  1  1  6
  2  3  1  0
  3  4  1  0
  4  5  1  0
  5  6  2  0
  5  7  1  0
  7  8  1  0
  7  9  1  0
  2 10  1  0
 10 11  1  6
 11 12  1  0
 13 12  1  6
 13 14  1  0
 14 15  1  1
 15 16  1  6
 15 17  1  0
 18 17  1  1
 18 19  1  0
 19 20  1  0
 20 21  1  1
 21 22  1  0
 22 23  2  0
 22 24  2  0
 22 25  1  0
 20 26  1  0
 26 27  1  0
 27 28  1  0
 28 29  1  6
 28 30  1  0
 30 31  1  6
 31 32  1  0
 32 33  1  0
 33 34  1  6
 33 10  1  0
 33 13  1  0
 30 14  1  0
 28 18  1  0
M  END
>  <MS_ID>  (386) 
MS0406

>  <SMILES>  (386) 
C[C@H](CCC(=O)N(C)C)[C@H]1CC[C@H]2[C@@H]3[C@@H](O)C[C@@H]4C[C@H](OS(=O)(=O)O)CC[C@]4(C)[C@H]3CC[C@]12C

>  <Structure_dimension>  (386) 
2D

$$$$
MS0407
     RDKit          2D

 33 36  0  0  0  0  0  0  0  0999 V2000
   -3.4710   -3.2324    0.0000 C   0  0  0  0  0  0  0  0  0  0  0  0
   -2.4894   -2.0982    0.0000 C   0  0  0  0  0  0  0  0  0  0  0  0
   -2.9809   -0.6810    0.0000 C   0  0  0  0  0  0  0  0  0  0  0  0
   -4.4540   -0.3980    0.0000 C   0  0  0  0  0  0  0  0  0  0  0  0
   -4.9454    1.0192    0.0000 C   0  0  0  0  0  0  0  0  0  0  0  0
   -3.9638    2.1534    0.0000 O   0  0  0  0  0  0  0  0  0  0  0  0
   -6.4185    1.3021    0.0000 C   0  0  0  0  0  0  0  0  0  0  0  0
   -6.9100    2.7193    0.0000 C   0  0  0  0  0  0  0  0  0  0  0  0
   -8.3831    3.0023    0.0000 O   0  0  0  0  0  0  0  0  0  0  0  0
   -7.4001    0.1679    0.0000 C   0  0  0  0  0  0  0  0  0  0  0  0
   -8.8732    0.4509    0.0000 O   0  0  0  0  0  0  0  0  0  0  0  0
   -1.0163   -2.3812    0.0000 C   0  0  0  0  0  0  0  0  0  0  0  0
   -0.3794   -3.7392    0.0000 C   0  0  0  0  0  0  0  0  0  0  0  0
    1.1090   -3.5531    0.0000 C   0  0  0  0  0  0  0  0  0  0  0  0
    1.3920   -2.0801    0.0000 C   0  0  0  0  0  0  0  0  0  0  0  0
    2.6760   -1.3047    0.0000 C   0  0  0  0  0  0  0  0  0  0  0  0
    3.9895   -2.0290    0.0000 C   0  0  0  0  0  0  0  0  0  0  0  0
    4.0190   -3.5287    0.0000 O   0  0  0  0  0  0  0  0  0  0  0  0
    5.2736   -1.2536    0.0000 C   0  0  0  0  0  0  0  0  0  0  0  0
    5.2441    0.2461    0.0000 C   0  0  0  0  0  0  0  0  0  0  0  0
    6.5281    1.0215    0.0000 C   0  0  0  0  0  0  0  0  0  0  0  0
    6.4986    2.5212    0.0000 C   0  0  0  0  0  0  0  0  0  0  0  0
    7.7827    3.2966    0.0000 O   0  0  0  0  0  0  0  0  0  0  0  0
    5.1851    3.2455    0.0000 C   0  0  0  0  0  0  0  0  0  0  0  0
    3.9011    2.4701    0.0000 C   0  0  0  0  0  0  0  0  0  0  0  0
    3.9306    0.9704    0.0000 C   0  0  0  0  0  0  0  0  0  0  0  0
    2.6170    1.6947    0.0000 C   0  0  0  0  0  0  0  0  0  0  0  0
    2.6465    0.1950    0.0000 C   0  0  0  0  0  0  0  0  0  0  0  0
    1.3330    0.9193    0.0000 C   0  0  0  0  0  0  0  0  0  0  0  0
    0.0489    0.1440    0.0000 C   0  0  0  0  0  0  0  0  0  0  0  0
   -1.2646    0.8683    0.0000 O   0  0  0  0  0  0  0  0  0  0  0  0
    0.0784   -1.3558    0.0000 C   0  0  0  0  0  0  0  0  0  0  0  0
   -1.3036   -0.7727    0.0000 C   0  0  0  0  0  0  0  0  0  0  0  0
  2  1  1  6
  2  3  1  0
  3  4  1  0
  4  5  1  0
  5  6  2  0
  5  7  1  0
  7  8  1  0
  8  9  1  0
  7 10  1  0
 10 11  1  0
  2 12  1  0
 12 13  1  6
 13 14  1  0
 15 14  1  6
 15 16  1  0
 16 17  1  1
 17 18  1  1
 17 19  1  0
 20 19  1  1
 20 21  1  0
 21 22  1  0
 22 23  1  1
 22 24  1  0
 24 25  1  0
 25 26  1  0
 26 27  1  6
 26 28  1  0
 28 29  1  6
 29 30  1  0
 30 31  1  1
 30 32  1  0
 32 33  1  6
 32 12  1  0
 32 15  1  0
 28 16  1  0
 26 20  1  0
M  END
>  <MS_ID>  (387) 
MS0407

>  <SMILES>  (387) 
C[C@H](CCC(=O)C(CO)CO)[C@H]1CC[C@H]2[C@@H]3[C@H](O)C[C@@H]4C[C@H](O)CC[C@]4(C)[C@H]3C[C@H](O)[C@]12C

>  <Structure_dimension>  (387) 
2D

$$$$
MS0408
     RDKit          2D

 33 36  0  0  0  0  0  0  0  0999 V2000
   -1.8199   -4.3034    0.0000 C   0  0  0  0  0  0  0  0  0  0  0  0
   -1.0791   -2.9990    0.0000 C   0  0  0  0  0  0  0  0  0  0  0  0
   -1.8383   -1.7053    0.0000 C   0  0  0  0  0  0  0  0  0  0  0  0
   -3.3382   -1.7159    0.0000 C   0  0  0  0  0  0  0  0  0  0  0  0
   -4.0974   -0.4222    0.0000 C   0  0  0  0  0  0  0  0  0  0  0  0
   -3.3566    0.8821    0.0000 O   0  0  0  0  0  0  0  0  0  0  0  0
   -5.5974   -0.4329    0.0000 N   0  0  0  0  0  0  0  0  0  0  0  0
   -6.3565    0.8608    0.0000 C   0  0  0  0  0  0  0  0  0  0  0  0
   -7.8565    0.8502    0.0000 C   0  0  0  0  0  0  0  0  0  0  0  0
   -8.6157    2.1439    0.0000 C   0  0  0  0  0  0  0  0  0  0  0  0
  -10.1156    2.1333    0.0000 C   0  0  0  0  0  0  0  0  0  0  0  0
  -10.8564    0.8290    0.0000 O   0  0  0  0  0  0  0  0  0  0  0  0
  -10.8748    3.4270    0.0000 O   0  0  0  0  0  0  0  0  0  0  0  0
    0.4209   -2.9884    0.0000 C   0  0  0  0  0  0  0  0  0  0  0  0
    1.3111   -4.1957    0.0000 C   0  0  0  0  0  0  0  0  0  0  0  0
    2.7344   -3.7221    0.0000 C   0  0  0  0  0  0  0  0  0  0  0  0
    2.7238   -2.2221    0.0000 C   0  0  0  0  0  0  0  0  0  0  0  0
    3.8314   -1.2106    0.0000 C   0  0  0  0  0  0  0  0  0  0  0  0
    5.2612   -1.6640    0.0000 C   0  0  0  0  0  0  0  0  0  0  0  0
    6.3688   -0.6524    0.0000 C   0  0  0  0  0  0  0  0  0  0  0  0
    6.0465    0.8125    0.0000 C   0  0  0  0  0  0  0  0  0  0  0  0
    7.1541    1.8241    0.0000 C   0  0  0  0  0  0  0  0  0  0  0  0
    6.8319    3.2891    0.0000 C   0  0  0  0  0  0  0  0  0  0  0  0
    7.9395    4.3006    0.0000 O   0  0  0  0  0  0  0  0  0  0  0  0
    5.4021    3.7425    0.0000 C   0  0  0  0  0  0  0  0  0  0  0  0
    4.2945    2.7309    0.0000 C   0  0  0  0  0  0  0  0  0  0  0  0
    4.6167    1.2660    0.0000 C   0  0  0  0  0  0  0  0  0  0  0  0
    3.1869    1.7194    0.0000 C   0  0  0  0  0  0  0  0  0  0  0  0
    3.5091    0.2544    0.0000 C   0  0  0  0  0  0  0  0  0  0  0  0
    2.0793    0.7078    0.0000 C   0  0  0  0  0  0  0  0  0  0  0  0
    0.9717   -0.3037    0.0000 C   0  0  0  0  0  0  0  0  0  0  0  0
    1.2939   -1.7687    0.0000 C   0  0  0  0  0  0  0  0  0  0  0  0
   -0.1754   -1.4672    0.0000 C   0  0  0  0  0  0  0  0  0  0  0  0
  2  1  1  6
  2  3  1  0
  3  4  1  0
  4  5  1  0
  5  6  2  0
  5  7  1  0
  7  8  1  0
  8  9  1  0
  9 10  1  0
 10 11  1  0
 11 12  2  0
 11 13  1  0
  2 14  1  0
 14 15  1  6
 15 16  1  0
 17 16  1  6
 17 18  1  0
 18 19  1  1
 19 20  1  0
 21 20  1  1
 21 22  1  0
 22 23  1  0
 23 24  1  1
 23 25  1  0
 25 26  1  0
 26 27  1  0
 27 28  1  6
 27 29  1  0
 29 30  1  6
 30 31  1  0
 31 32  1  0
 32 33  1  6
 32 14  1  0
 32 17  1  0
 29 18  1  0
 27 21  1  0
M  END
>  <MS_ID>  (388) 
MS0408

>  <SMILES>  (388) 
C[C@H](CCC(=O)NCCCC(=O)O)[C@H]1CC[C@H]2[C@@H]3CC[C@@H]4C[C@H](O)CC[C@]4(C)[C@H]3CC[C@]12C

>  <Structure_dimension>  (388) 
2D

$$$$
MS0409
     RDKit          2D

 33 36  0  0  0  0  0  0  0  0999 V2000
   -2.6994   -3.8605    0.0000 C   0  0  0  0  0  0  0  0  0  0  0  0
   -1.8238   -2.6426    0.0000 C   0  0  0  0  0  0  0  0  0  0  0  0
   -2.4407   -1.2753    0.0000 C   0  0  0  0  0  0  0  0  0  0  0  0
   -3.9333   -1.1259    0.0000 C   0  0  0  0  0  0  0  0  0  0  0  0
   -4.5502    0.2413    0.0000 C   0  0  0  0  0  0  0  0  0  0  0  0
   -3.6745    1.4592    0.0000 O   0  0  0  0  0  0  0  0  0  0  0  0
   -6.0427    0.3907    0.0000 C   0  0  0  0  0  0  0  0  0  0  0  0
   -6.6596    1.7580    0.0000 O   0  0  0  0  0  0  0  0  0  0  0  0
   -8.1522    1.9073    0.0000 S   0  0  0  0  0  0  0  0  0  0  0  0
   -8.3015    0.4148    0.0000 O   0  0  0  0  0  0  0  0  0  0  0  0
   -8.0028    3.3999    0.0000 O   0  0  0  0  0  0  0  0  0  0  0  0
   -9.6447    2.0567    0.0000 O   0  0  0  0  0  0  0  0  0  0  0  0
   -0.3313   -2.7920    0.0000 C   0  0  0  0  0  0  0  0  0  0  0  0
    0.4252   -4.0872    0.0000 C   0  0  0  0  0  0  0  0  0  0  0  0
    1.8908   -3.7681    0.0000 C   0  0  0  0  0  0  0  0  0  0  0  0
    2.0402   -2.2755    0.0000 C   0  0  0  0  0  0  0  0  0  0  0  0
    3.2493   -1.3878    0.0000 C   0  0  0  0  0  0  0  0  0  0  0  0
    4.6227   -1.9911    0.0000 C   0  0  0  0  0  0  0  0  0  0  0  0
    5.8318   -1.1034    0.0000 C   0  0  0  0  0  0  0  0  0  0  0  0
    5.6676    0.3876    0.0000 C   0  0  0  0  0  0  0  0  0  0  0  0
    6.8767    1.2753    0.0000 C   0  0  0  0  0  0  0  0  0  0  0  0
    6.7125    2.7663    0.0000 C   0  0  0  0  0  0  0  0  0  0  0  0
    7.9216    3.6540    0.0000 O   0  0  0  0  0  0  0  0  0  0  0  0
    5.3392    3.3695    0.0000 C   0  0  0  0  0  0  0  0  0  0  0  0
    4.1300    2.4818    0.0000 C   0  0  0  0  0  0  0  0  0  0  0  0
    4.2943    0.9909    0.0000 C   0  0  0  0  0  0  0  0  0  0  0  0
    2.9209    1.5941    0.0000 C   0  0  0  0  0  0  0  0  0  0  0  0
    3.0851    0.1031    0.0000 C   0  0  0  0  0  0  0  0  0  0  0  0
    1.7118    0.7064    0.0000 C   0  0  0  0  0  0  0  0  0  0  0  0
    0.5027   -0.1813    0.0000 C   0  0  0  0  0  0  0  0  0  0  0  0
   -0.8707    0.4220    0.0000 O   0  0  0  0  0  0  0  0  0  0  0  0
    0.6669   -1.6723    0.0000 C   0  0  0  0  0  0  0  0  0  0  0  0
   -0.7620   -1.2158    0.0000 C   0  0  0  0  0  0  0  0  0  0  0  0
  2  1  1  6
  2  3  1  0
  3  4  1  0
  4  5  1  0
  5  6  2  0
  5  7  1  0
  7  8  1  0
  8  9  1  0
  9 10  2  0
  9 11  2  0
  9 12  1  0
  2 13  1  0
 13 14  1  6
 14 15  1  0
 16 15  1  6
 16 17  1  0
 17 18  1  1
 18 19  1  0
 20 19  1  1
 20 21  1  0
 21 22  1  0
 22 23  1  1
 22 24  1  0
 24 25  1  0
 25 26  1  0
 26 27  1  6
 26 28  1  0
 28 29  1  6
 29 30  1  0
 30 31  1  1
 30 32  1  0
 32 33  1  6
 32 13  1  0
 32 16  1  0
 28 17  1  0
 26 20  1  0
M  END
>  <MS_ID>  (389) 
MS0409

>  <SMILES>  (389) 
C[C@H](CCC(=O)COS(=O)(=O)O)[C@H]1CC[C@H]2[C@@H]3CC[C@@H]4C[C@H](O)CC[C@]4(C)[C@H]3C[C@H](O)[C@]12C

>  <Structure_dimension>  (389) 
2D

$$$$
MS0410
     RDKit          2D

 32 35  0  0  0  0  0  0  0  0999 V2000
   -8.1268    4.1129    0.0000 C   0  0  0  0  0  0  0  0  0  0  0  0
   -7.9209    2.6271    0.0000 O   0  0  0  0  0  0  0  0  0  0  0  0
   -6.5312    2.0625    0.0000 C   0  0  0  0  0  0  0  0  0  0  0  0
   -5.3475    2.9837    0.0000 O   0  0  0  0  0  0  0  0  0  0  0  0
   -6.3253    0.5767    0.0000 C   0  0  0  0  0  0  0  0  0  0  0  0
   -4.9357    0.0121    0.0000 C   0  0  0  0  0  0  0  0  0  0  0  0
   -4.7298   -1.4737    0.0000 C   0  0  0  0  0  0  0  0  0  0  0  0
   -5.9135   -2.3949    0.0000 C   0  0  0  0  0  0  0  0  0  0  0  0
   -3.3401   -2.0383    0.0000 C   0  0  0  0  0  0  0  0  0  0  0  0
   -2.9800   -3.4944    0.0000 C   0  0  0  0  0  0  0  0  0  0  0  0
   -1.4838   -3.6019    0.0000 C   0  0  0  0  0  0  0  0  0  0  0  0
   -0.9193   -2.2122    0.0000 C   0  0  0  0  0  0  0  0  0  0  0  0
    0.4913   -1.7019    0.0000 C   0  0  0  0  0  0  0  0  0  0  0  0
    1.6385   -2.6683    0.0000 C   0  0  0  0  0  0  0  0  0  0  0  0
    3.0490   -2.1580    0.0000 C   0  0  0  0  0  0  0  0  0  0  0  0
    3.3123   -0.6813    0.0000 C   0  0  0  0  0  0  0  0  0  0  0  0
    4.7228   -0.1710    0.0000 C   0  0  0  0  0  0  0  0  0  0  0  0
    4.9862    1.3057    0.0000 C   0  0  0  0  0  0  0  0  0  0  0  0
    6.3967    1.8160    0.0000 O   0  0  0  0  0  0  0  0  0  0  0  0
    7.5439    0.8497    0.0000 S   0  0  0  0  0  0  0  0  0  0  0  0
    6.5775   -0.2976    0.0000 O   0  0  0  0  0  0  0  0  0  0  0  0
    8.5103    1.9969    0.0000 O   0  0  0  0  0  0  0  0  0  0  0  0
    8.6911   -0.1167    0.0000 O   0  0  0  0  0  0  0  0  0  0  0  0
    3.8390    2.2721    0.0000 C   0  0  0  0  0  0  0  0  0  0  0  0
    2.4284    1.7618    0.0000 C   0  0  0  0  0  0  0  0  0  0  0  0
    2.1651    0.2851    0.0000 C   0  0  0  0  0  0  0  0  0  0  0  0
    1.0179    1.2515    0.0000 C   0  0  0  0  0  0  0  0  0  0  0  0
    0.7546   -0.2252    0.0000 C   0  0  0  0  0  0  0  0  0  0  0  0
   -0.3926    0.7412    0.0000 C   0  0  0  0  0  0  0  0  0  0  0  0
   -1.8031    0.2309    0.0000 C   0  0  0  0  0  0  0  0  0  0  0  0
   -2.0665   -1.2458    0.0000 C   0  0  0  0  0  0  0  0  0  0  0  0
   -3.3084   -0.4047    0.0000 C   0  0  0  0  0  0  0  0  0  0  0  0
  1  2  1  0
  2  3  1  0
  3  4  2  0
  3  5  1  0
  5  6  1  0
  6  7  1  0
  7  8  1  6
  7  9  1  0
  9 10  1  6
 10 11  1  0
 12 11  1  6
 12 13  1  0
 13 14  1  1
 14 15  1  0
 16 15  1  1
 16 17  1  0
 17 18  1  0
 18 19  1  1
 19 20  1  0
 20 21  2  0
 20 22  2  0
 20 23  1  0
 18 24  1  0
 24 25  1  0
 25 26  1  0
 26 27  1  6
 26 28  1  0
 28 29  1  6
 29 30  1  0
 30 31  1  0
 31 32  1  6
 31  9  1  0
 31 12  1  0
 28 13  1  0
 26 16  1  0
M  END
>  <MS_ID>  (390) 
MS0410

>  <SMILES>  (390) 
COC(=O)CC[C@@H](C)[C@H]1CC[C@H]2[C@@H]3CC[C@@H]4C[C@H](OS(=O)(=O)O)CC[C@]4(C)[C@H]3CC[C@]12C

>  <Structure_dimension>  (390) 
2D

$$$$
MS0411
     RDKit          2D

 30 33  0  0  0  0  0  0  0  0999 V2000
   -5.1442   -2.1369    0.0000 C   0  0  0  0  0  0  0  0  0  0  0  0
   -3.9546   -1.2232    0.0000 C   0  0  0  0  0  0  0  0  0  0  0  0
   -4.1511    0.2638    0.0000 C   0  0  0  0  0  0  0  0  0  0  0  0
   -5.5372    0.8372    0.0000 C   0  0  0  0  0  0  0  0  0  0  0  0
   -5.7337    2.3243    0.0000 C   0  0  0  0  0  0  0  0  0  0  0  0
   -4.5441    3.2380    0.0000 O   0  0  0  0  0  0  0  0  0  0  0  0
   -7.1198    2.8976    0.0000 O   0  0  0  0  0  0  0  0  0  0  0  0
   -2.5685   -1.7966    0.0000 C   0  0  0  0  0  0  0  0  0  0  0  0
   -2.2176   -3.2550    0.0000 C   0  0  0  0  0  0  0  0  0  0  0  0
   -0.7222   -3.3719    0.0000 C   0  0  0  0  0  0  0  0  0  0  0  0
   -0.1488   -1.9858    0.0000 C   0  0  0  0  0  0  0  0  0  0  0  0
    1.2649   -1.4845    0.0000 C   0  0  0  0  0  0  0  0  0  0  0  0
    2.4060   -2.4581    0.0000 C   0  0  0  0  0  0  0  0  0  0  0  0
    2.1333   -3.9331    0.0000 O   0  0  0  0  0  0  0  0  0  0  0  0
    3.8197   -1.9567    0.0000 C   0  0  0  0  0  0  0  0  0  0  0  0
    4.0924   -0.4817    0.0000 C   0  0  0  0  0  0  0  0  0  0  0  0
    5.5061    0.0197    0.0000 C   0  0  0  0  0  0  0  0  0  0  0  0
    5.7787    1.4947    0.0000 C   0  0  0  0  0  0  0  0  0  0  0  0
    7.1924    1.9961    0.0000 O   0  0  0  0  0  0  0  0  0  0  0  0
    4.6376    2.4684    0.0000 C   0  0  0  0  0  0  0  0  0  0  0  0
    3.2239    1.9670    0.0000 C   0  0  0  0  0  0  0  0  0  0  0  0
    2.9513    0.4919    0.0000 C   0  0  0  0  0  0  0  0  0  0  0  0
    1.8102    1.4656    0.0000 C   0  0  0  0  0  0  0  0  0  0  0  0
    2.0828    2.9406    0.0000 O   0  0  0  0  0  0  0  0  0  0  0  0
    1.5376   -0.0094    0.0000 C   0  0  0  0  0  0  0  0  0  0  0  0
    0.3965    0.9642    0.0000 C   0  0  0  0  0  0  0  0  0  0  0  0
   -1.0172    0.4628    0.0000 C   0  0  0  0  0  0  0  0  0  0  0  0
   -2.1583    1.4364    0.0000 O   0  0  0  0  0  0  0  0  0  0  0  0
   -1.2899   -1.0122    0.0000 C   0  0  0  0  0  0  0  0  0  0  0  0
   -2.5265   -0.1632    0.0000 C   0  0  0  0  0  0  0  0  0  0  0  0
  2  1  1  6
  2  3  1  0
  3  4  1  0
  4  5  1  0
  5  6  2  0
  5  7  1  0
  2  8  1  0
  8  9  1  6
  9 10  1  0
 11 10  1  6
 11 12  1  0
 12 13  1  1
 13 14  1  6
 13 15  1  0
 16 15  1  1
 16 17  1  0
 17 18  1  0
 18 19  1  1
 18 20  1  0
 20 21  1  0
 21 22  1  0
 22 23  1  6
 23 24  1  0
 22 25  1  0
 25 26  1  6
 26 27  1  0
 27 28  2  0
 27 29  1  0
 29 30  1  6
 29  8  1  0
 29 11  1  0
 25 12  1  0
 22 16  1  0
M  END
>  <MS_ID>  (391) 
MS0411

>  <SMILES>  (391) 
C[C@H](CCC(=O)O)[C@H]1CC[C@H]2[C@@H]3[C@@H](O)C[C@@H]4C[C@H](O)CC[C@]4(CO)[C@H]3CC(=O)[C@]12C

>  <Structure_dimension>  (391) 
2D

$$$$
MS0412
     RDKit          2D

 39 43  0  0  0  0  0  0  0  0999 V2000
   -0.7193   -4.8292    0.0000 C   0  0  0  0  0  0  0  0  0  0  0  0
   -0.1477   -3.4424    0.0000 C   0  0  0  0  0  0  0  0  0  0  0  0
   -1.0630   -2.2540    0.0000 C   0  0  0  0  0  0  0  0  0  0  0  0
   -2.5498   -2.4524    0.0000 C   0  0  0  0  0  0  0  0  0  0  0  0
   -3.4650   -1.2640    0.0000 C   0  0  0  0  0  0  0  0  0  0  0  0
   -2.8935    0.1228    0.0000 O   0  0  0  0  0  0  0  0  0  0  0  0
   -4.9519   -1.4625    0.0000 O   0  0  0  0  0  0  0  0  0  0  0  0
   -5.8671   -0.2741    0.0000 C   0  0  0  0  0  0  0  0  0  0  0  0
   -5.2956    1.1128    0.0000 O   0  0  0  0  0  0  0  0  0  0  0  0
   -6.2108    2.3012    0.0000 C   0  0  0  0  0  0  0  0  0  0  0  0
   -5.6393    3.6880    0.0000 C   0  0  0  0  0  0  0  0  0  0  0  0
   -4.1524    3.8864    0.0000 O   0  0  0  0  0  0  0  0  0  0  0  0
   -7.6976    2.1027    0.0000 C   0  0  0  0  0  0  0  0  0  0  0  0
   -8.6129    3.2911    0.0000 O   0  0  0  0  0  0  0  0  0  0  0  0
   -8.2692    0.7159    0.0000 C   0  0  0  0  0  0  0  0  0  0  0  0
   -9.7560    0.5175    0.0000 O   0  0  0  0  0  0  0  0  0  0  0  0
   -7.3539   -0.4725    0.0000 C   0  0  0  0  0  0  0  0  0  0  0  0
   -7.9255   -1.8593    0.0000 O   0  0  0  0  0  0  0  0  0  0  0  0
    1.3391   -3.2440    0.0000 C   0  0  0  0  0  0  0  0  0  0  0  0
    2.3736   -4.3302    0.0000 C   0  0  0  0  0  0  0  0  0  0  0  0
    3.7263   -3.6820    0.0000 C   0  0  0  0  0  0  0  0  0  0  0  0
    3.5279   -2.1952    0.0000 C   0  0  0  0  0  0  0  0  0  0  0  0
    4.5000   -1.0529    0.0000 C   0  0  0  0  0  0  0  0  0  0  0  0
    5.9754   -1.3236    0.0000 C   0  0  0  0  0  0  0  0  0  0  0  0
    6.4786   -2.7367    0.0000 O   0  0  0  0  0  0  0  0  0  0  0  0
    6.9475   -0.1813    0.0000 C   0  0  0  0  0  0  0  0  0  0  0  0
    6.4443    1.2318    0.0000 C   0  0  0  0  0  0  0  0  0  0  0  0
    7.4164    2.3742    0.0000 C   0  0  0  0  0  0  0  0  0  0  0  0
    6.9132    3.7872    0.0000 C   0  0  0  0  0  0  0  0  0  0  0  0
    7.8853    4.9296    0.0000 O   0  0  0  0  0  0  0  0  0  0  0  0
    5.4378    4.0580    0.0000 C   0  0  0  0  0  0  0  0  0  0  0  0
    4.4657    2.9156    0.0000 C   0  0  0  0  0  0  0  0  0  0  0  0
    4.9689    1.5025    0.0000 C   0  0  0  0  0  0  0  0  0  0  0  0
    3.4936    1.7733    0.0000 C   0  0  0  0  0  0  0  0  0  0  0  0
    3.9968    0.3602    0.0000 C   0  0  0  0  0  0  0  0  0  0  0  0
    2.5214    0.6309    0.0000 C   0  0  0  0  0  0  0  0  0  0  0  0
    1.5493   -0.5114    0.0000 C   0  0  0  0  0  0  0  0  0  0  0  0
    2.0525   -1.9245    0.0000 C   0  0  0  0  0  0  0  0  0  0  0  0
    0.5569   -1.8095    0.0000 C   0  0  0  0  0  0  0  0  0  0  0  0
  2  1  1  6
  2  3  1  0
  3  4  1  0
  4  5  1  0
  5  6  2  0
  5  7  1  0
  8  7  1  1
  8  9  1  0
  9 10  1  0
 10 11  1  1
 11 12  1  0
 10 13  1  0
 13 14  1  6
 13 15  1  0
 15 16  1  1
 15 17  1  0
 17 18  1  6
  2 19  1  0
 19 20  1  6
 20 21  1  0
 22 21  1  6
 22 23  1  0
 23 24  1  1
 24 25  1  1
 24 26  1  0
 27 26  1  1
 27 28  1  0
 28 29  1  0
 29 30  1  1
 29 31  1  0
 31 32  1  0
 32 33  1  0
 33 34  1  6
 33 35  1  0
 35 36  1  6
 36 37  1  0
 37 38  1  0
 38 39  1  6
 17  8  1  0
 38 19  1  0
 38 22  1  0
 35 23  1  0
 33 27  1  0
M  END
>  <MS_ID>  (392) 
MS0412

>  <SMILES>  (392) 
C[C@H](CCC(=O)O[C@@H]1O[C@H](CO)[C@@H](O)[C@H](O)[C@H]1O)[C@H]1CC[C@H]2[C@@H]3[C@H](O)C[C@@H]4C[C@H](O)CC[C@]4(C)[C@H]3CC[C@]12C

>  <Structure_dimension>  (392) 
2D

$$$$
MS0413
     RDKit          2D

 29 32  0  0  0  0  0  0  0  0999 V2000
   -7.2216    3.6536    0.0000 C   0  0  0  0  0  0  0  0  0  0  0  0
   -6.9111    2.1861    0.0000 O   0  0  0  0  0  0  0  0  0  0  0  0
   -5.4850    1.7213    0.0000 C   0  0  0  0  0  0  0  0  0  0  0  0
   -4.3693    2.7239    0.0000 O   0  0  0  0  0  0  0  0  0  0  0  0
   -5.1744    0.2538    0.0000 C   0  0  0  0  0  0  0  0  0  0  0  0
   -3.7483   -0.2111    0.0000 C   0  0  0  0  0  0  0  0  0  0  0  0
   -3.4378   -1.6786    0.0000 C   0  0  0  0  0  0  0  0  0  0  0  0
   -4.5534   -2.6812    0.0000 C   0  0  0  0  0  0  0  0  0  0  0  0
   -2.0116   -2.1434    0.0000 C   0  0  0  0  0  0  0  0  0  0  0  0
   -1.5494   -3.5704    0.0000 C   0  0  0  0  0  0  0  0  0  0  0  0
   -0.0494   -3.5718    0.0000 C   0  0  0  0  0  0  0  0  0  0  0  0
    0.4155   -2.1456    0.0000 C   0  0  0  0  0  0  0  0  0  0  0  0
    1.7863   -1.5368    0.0000 C   0  0  0  0  0  0  0  0  0  0  0  0
    2.9990   -2.4196    0.0000 C   0  0  0  0  0  0  0  0  0  0  0  0
    4.3699   -1.8107    0.0000 C   0  0  0  0  0  0  0  0  0  0  0  0
    4.5281   -0.3191    0.0000 C   0  0  0  0  0  0  0  0  0  0  0  0
    5.8990    0.2898    0.0000 C   0  0  0  0  0  0  0  0  0  0  0  0
    6.0571    1.7814    0.0000 C   0  0  0  0  0  0  0  0  0  0  0  0
    7.4280    2.3902    0.0000 O   0  0  0  0  0  0  0  0  0  0  0  0
    4.8444    2.6642    0.0000 C   0  0  0  0  0  0  0  0  0  0  0  0
    3.4735    2.0553    0.0000 C   0  0  0  0  0  0  0  0  0  0  0  0
    3.3154    0.5637    0.0000 C   0  0  0  0  0  0  0  0  0  0  0  0
    2.1026    1.4465    0.0000 C   0  0  0  0  0  0  0  0  0  0  0  0
    1.9445   -0.0451    0.0000 C   0  0  0  0  0  0  0  0  0  0  0  0
    0.7318    0.8376    0.0000 C   0  0  0  0  0  0  0  0  0  0  0  0
   -0.6391    0.2288    0.0000 C   0  0  0  0  0  0  0  0  0  0  0  0
   -1.8518    1.1116    0.0000 O   0  0  0  0  0  0  0  0  0  0  0  0
   -0.7973   -1.2628    0.0000 C   0  0  0  0  0  0  0  0  0  0  0  0
   -2.0956   -0.5116    0.0000 C   0  0  0  0  0  0  0  0  0  0  0  0
  1  2  1  0
  2  3  1  0
  3  4  2  0
  3  5  1  0
  5  6  1  0
  6  7  1  0
  7  8  1  6
  7  9  1  0
  9 10  1  6
 10 11  1  0
 12 11  1  6
 12 13  1  0
 13 14  1  1
 14 15  1  0
 16 15  1  1
 16 17  1  0
 17 18  1  0
 18 19  1  1
 18 20  1  0
 20 21  1  0
 21 22  1  0
 22 23  1  6
 22 24  1  0
 24 25  1  6
 25 26  1  0
 26 27  2  0
 26 28  1  0
 28 29  1  6
 28  9  1  0
 28 12  1  0
 24 13  1  0
 22 16  1  0
M  END
>  <MS_ID>  (393) 
MS0413

>  <SMILES>  (393) 
COC(=O)CC[C@@H](C)[C@H]1CC[C@H]2[C@@H]3CC[C@@H]4C[C@H](O)CC[C@]4(C)[C@H]3CC(=O)[C@]12C

>  <Structure_dimension>  (393) 
2D

$$$$
MS0414
     RDKit          2D

 31 34  0  0  0  0  0  0  0  0999 V2000
   -4.2495   -2.8115    0.0000 C   0  0  0  0  0  0  0  0  0  0  0  0
   -3.1859   -1.7538    0.0000 C   0  0  0  0  0  0  0  0  0  0  0  0
   -3.5702   -0.3038    0.0000 C   0  0  0  0  0  0  0  0  0  0  0  0
   -5.0180    0.0883    0.0000 C   0  0  0  0  0  0  0  0  0  0  0  0
   -5.4023    1.5383    0.0000 C   0  0  0  0  0  0  0  0  0  0  0  0
   -4.3387    2.5960    0.0000 O   0  0  0  0  0  0  0  0  0  0  0  0
   -6.8501    1.9305    0.0000 C   0  0  0  0  0  0  0  0  0  0  0  0
   -7.9137    0.8727    0.0000 O   0  0  0  0  0  0  0  0  0  0  0  0
   -7.2344    3.3804    0.0000 O   0  0  0  0  0  0  0  0  0  0  0  0
   -1.7381   -2.1460    0.0000 C   0  0  0  0  0  0  0  0  0  0  0  0
   -1.2044   -3.5478    0.0000 C   0  0  0  0  0  0  0  0  0  0  0  0
    0.2938   -3.4734    0.0000 C   0  0  0  0  0  0  0  0  0  0  0  0
    0.6860   -2.0256    0.0000 C   0  0  0  0  0  0  0  0  0  0  0  0
    2.0243   -1.3482    0.0000 C   0  0  0  0  0  0  0  0  0  0  0  0
    3.2801   -2.1686    0.0000 C   0  0  0  0  0  0  0  0  0  0  0  0
    3.1975   -3.6663    0.0000 O   0  0  0  0  0  0  0  0  0  0  0  0
    4.6185   -1.4913    0.0000 C   0  0  0  0  0  0  0  0  0  0  0  0
    4.7010    0.0064    0.0000 C   0  0  0  0  0  0  0  0  0  0  0  0
    6.0394    0.6838    0.0000 C   0  0  0  0  0  0  0  0  0  0  0  0
    6.1220    2.1815    0.0000 C   0  0  0  0  0  0  0  0  0  0  0  0
    7.4604    2.8588    0.0000 O   0  0  0  0  0  0  0  0  0  0  0  0
    4.8662    3.0019    0.0000 C   0  0  0  0  0  0  0  0  0  0  0  0
    3.5279    2.3246    0.0000 C   0  0  0  0  0  0  0  0  0  0  0  0
    3.4453    0.8268    0.0000 C   0  0  0  0  0  0  0  0  0  0  0  0
    2.1895    1.6472    0.0000 C   0  0  0  0  0  0  0  0  0  0  0  0
    2.1069    0.1495    0.0000 C   0  0  0  0  0  0  0  0  0  0  0  0
    0.8511    0.9699    0.0000 C   0  0  0  0  0  0  0  0  0  0  0  0
   -0.4872    0.2925    0.0000 C   0  0  0  0  0  0  0  0  0  0  0  0
   -1.7430    1.1129    0.0000 O   0  0  0  0  0  0  0  0  0  0  0  0
   -0.5698   -1.2052    0.0000 C   0  0  0  0  0  0  0  0  0  0  0  0
   -1.9045   -0.5205    0.0000 C   0  0  0  0  0  0  0  0  0  0  0  0
  2  1  1  6
  2  3  1  0
  3  4  1  0
  4  5  1  0
  5  6  2  0
  5  7  1  0
  7  8  2  0
  7  9  1  0
  2 10  1  0
 10 11  1  6
 11 12  1  0
 13 12  1  6
 13 14  1  0
 14 15  1  1
 15 16  1  1
 15 17  1  0
 18 17  1  1
 18 19  1  0
 19 20  1  0
 20 21  1  1
 20 22  1  0
 22 23  1  0
 23 24  1  0
 24 25  1  6
 24 26  1  0
 26 27  1  6
 27 28  1  0
 28 29  1  1
 28 30  1  0
 30 31  1  6
 30 10  1  0
 30 13  1  0
 26 14  1  0
 24 18  1  0
M  END
>  <MS_ID>  (394) 
MS0414

>  <SMILES>  (394) 
C[C@H](CCC(=O)C(=O)O)[C@H]1CC[C@H]2[C@@H]3[C@H](O)C[C@@H]4C[C@H](O)CC[C@]4(C)[C@H]3C[C@H](O)[C@]12C

>  <Structure_dimension>  (394) 
2D

$$$$
MS0415
     RDKit          2D

 28 31  0  0  0  0  0  0  0  0999 V2000
   -5.1275   -2.0302    0.0000 C   0  0  0  0  0  0  0  0  0  0  0  0
   -3.9468   -1.1050    0.0000 C   0  0  0  0  0  0  0  0  0  0  0  0
   -4.1576    0.3801    0.0000 C   0  0  0  0  0  0  0  0  0  0  0  0
   -5.5492    0.9401    0.0000 C   0  0  0  0  0  0  0  0  0  0  0  0
   -5.7600    2.4252    0.0000 C   0  0  0  0  0  0  0  0  0  0  0  0
   -7.1516    2.9851    0.0000 O   0  0  0  0  0  0  0  0  0  0  0  0
   -4.5793    3.3503    0.0000 F   0  0  0  0  0  0  0  0  0  0  0  0
   -2.5552   -1.6650    0.0000 C   0  0  0  0  0  0  0  0  0  0  0  0
   -2.1903   -3.1199    0.0000 C   0  0  0  0  0  0  0  0  0  0  0  0
   -0.6938   -3.2225    0.0000 C   0  0  0  0  0  0  0  0  0  0  0  0
   -0.1339   -1.8309    0.0000 C   0  0  0  0  0  0  0  0  0  0  0  0
    1.2750   -1.3159    0.0000 C   0  0  0  0  0  0  0  0  0  0  0  0
    2.4254   -2.2785    0.0000 C   0  0  0  0  0  0  0  0  0  0  0  0
    2.1670   -3.7560    0.0000 O   0  0  0  0  0  0  0  0  0  0  0  0
    3.8342   -1.7635    0.0000 C   0  0  0  0  0  0  0  0  0  0  0  0
    4.0926   -0.2859    0.0000 C   0  0  0  0  0  0  0  0  0  0  0  0
    5.5014    0.2291    0.0000 C   0  0  0  0  0  0  0  0  0  0  0  0
    5.7598    1.7067    0.0000 C   0  0  0  0  0  0  0  0  0  0  0  0
    7.1687    2.2217    0.0000 O   0  0  0  0  0  0  0  0  0  0  0  0
    4.6094    2.6692    0.0000 C   0  0  0  0  0  0  0  0  0  0  0  0
    3.2006    2.1542    0.0000 C   0  0  0  0  0  0  0  0  0  0  0  0
    2.9422    0.6767    0.0000 C   0  0  0  0  0  0  0  0  0  0  0  0
    1.7918    1.6392    0.0000 C   0  0  0  0  0  0  0  0  0  0  0  0
    1.5334    0.1617    0.0000 C   0  0  0  0  0  0  0  0  0  0  0  0
    0.3830    1.1242    0.0000 C   0  0  0  0  0  0  0  0  0  0  0  0
   -1.0259    0.6093    0.0000 C   0  0  0  0  0  0  0  0  0  0  0  0
   -1.2843   -0.8683    0.0000 C   0  0  0  0  0  0  0  0  0  0  0  0
   -2.5290   -0.0313    0.0000 C   0  0  0  0  0  0  0  0  0  0  0  0
  2  1  1  6
  2  3  1  0
  3  4  1  0
  4  5  1  0
  5  6  2  0
  5  7  1  0
  2  8  1  0
  8  9  1  6
  9 10  1  0
 11 10  1  6
 11 12  1  0
 12 13  1  1
 13 14  1  1
 13 15  1  0
 16 15  1  1
 16 17  1  0
 17 18  1  0
 18 19  1  1
 18 20  1  0
 20 21  1  0
 21 22  1  0
 22 23  1  6
 22 24  1  0
 24 25  1  6
 25 26  1  0
 26 27  1  0
 27 28  1  6
 27  8  1  0
 27 11  1  0
 24 12  1  0
 22 16  1  0
M  END
>  <MS_ID>  (395) 
MS0415

>  <SMILES>  (395) 
C[C@H](CCC(=O)F)[C@H]1CC[C@H]2[C@@H]3[C@H](O)C[C@@H]4C[C@H](O)CC[C@]4(C)[C@H]3CC[C@]12C

>  <Structure_dimension>  (395) 
2D

$$$$
MS0416
     RDKit          2D

 34 37  0  0  0  0  0  0  0  0999 V2000
   -2.6036   -4.1660    0.0000 C   0  0  0  0  0  0  0  0  0  0  0  0
   -1.8683   -2.8586    0.0000 C   0  0  0  0  0  0  0  0  0  0  0  0
   -2.6328   -1.5681    0.0000 C   0  0  0  0  0  0  0  0  0  0  0  0
   -4.1328   -1.5850    0.0000 C   0  0  0  0  0  0  0  0  0  0  0  0
   -4.8973   -0.2944    0.0000 C   0  0  0  0  0  0  0  0  0  0  0  0
   -4.1620    1.0130    0.0000 O   0  0  0  0  0  0  0  0  0  0  0  0
   -6.3972   -0.3113    0.0000 O   0  0  0  0  0  0  0  0  0  0  0  0
   -7.1618    0.9792    0.0000 C   0  0  0  0  0  0  0  0  0  0  0  0
   -8.6617    0.9623    0.0000 C   0  0  0  0  0  0  0  0  0  0  0  0
   -9.4263    2.2528    0.0000 C   0  0  0  0  0  0  0  0  0  0  0  0
   -8.6910    3.5602    0.0000 O   0  0  0  0  0  0  0  0  0  0  0  0
  -10.9262    2.2359    0.0000 O   0  0  0  0  0  0  0  0  0  0  0  0
   -0.3684   -2.8417    0.0000 C   0  0  0  0  0  0  0  0  0  0  0  0
    0.5269   -4.0452    0.0000 C   0  0  0  0  0  0  0  0  0  0  0  0
    1.9482   -3.5657    0.0000 C   0  0  0  0  0  0  0  0  0  0  0  0
    1.9313   -2.0657    0.0000 C   0  0  0  0  0  0  0  0  0  0  0  0
    3.0347   -1.0496    0.0000 C   0  0  0  0  0  0  0  0  0  0  0  0
    4.4664   -1.4970    0.0000 C   0  0  0  0  0  0  0  0  0  0  0  0
    4.7947   -2.9606    0.0000 O   0  0  0  0  0  0  0  0  0  0  0  0
    5.5697   -0.4808    0.0000 C   0  0  0  0  0  0  0  0  0  0  0  0
    7.0014   -0.9282    0.0000 O   0  0  0  0  0  0  0  0  0  0  0  0
    5.2413    0.9828    0.0000 C   0  0  0  0  0  0  0  0  0  0  0  0
    6.3447    1.9990    0.0000 C   0  0  0  0  0  0  0  0  0  0  0  0
    6.0163    3.4626    0.0000 C   0  0  0  0  0  0  0  0  0  0  0  0
    7.1197    4.4788    0.0000 O   0  0  0  0  0  0  0  0  0  0  0  0
    4.5846    3.9100    0.0000 C   0  0  0  0  0  0  0  0  0  0  0  0
    3.4813    2.8939    0.0000 C   0  0  0  0  0  0  0  0  0  0  0  0
    3.8096    1.4302    0.0000 C   0  0  0  0  0  0  0  0  0  0  0  0
    2.3779    1.8777    0.0000 C   0  0  0  0  0  0  0  0  0  0  0  0
    2.7063    0.4141    0.0000 C   0  0  0  0  0  0  0  0  0  0  0  0
    1.2746    0.8615    0.0000 C   0  0  0  0  0  0  0  0  0  0  0  0
    0.1712   -0.1547    0.0000 C   0  0  0  0  0  0  0  0  0  0  0  0
    0.4996   -1.6183    0.0000 C   0  0  0  0  0  0  0  0  0  0  0  0
   -0.9710   -1.3230    0.0000 C   0  0  0  0  0  0  0  0  0  0  0  0
  2  1  1  6
  2  3  1  0
  3  4  1  0
  4  5  1  0
  5  6  2  0
  5  7  1  0
  7  8  1  0
  8  9  1  0
  9 10  1  0
 10 11  2  0
 10 12  1  0
  2 13  1  0
 13 14  1  6
 14 15  1  0
 16 15  1  6
 16 17  1  0
 17 18  1  1
 18 19  1  1
 18 20  1  0
 20 21  1  1
 20 22  1  0
 22 23  1  1
 23 24  1  0
 24 25  1  1
 24 26  1  0
 26 27  1  0
 27 28  1  0
 28 29  1  6
 28 30  1  0
 30 31  1  6
 31 32  1  0
 32 33  1  0
 33 34  1  6
 33 13  1  0
 33 16  1  0
 30 17  1  0
 28 22  1  0
M  END
>  <MS_ID>  (396) 
MS0416

>  <SMILES>  (396) 
C[C@H](CCC(=O)OCCC(=O)O)[C@H]1CC[C@H]2[C@@H]3[C@H](O)[C@H](O)[C@@H]4C[C@H](O)CC[C@]4(C)[C@H]3CC[C@]12C

>  <Structure_dimension>  (396) 
2D

$$$$
MS0417
     RDKit          2D

 28 31  0  0  0  0  0  0  0  0999 V2000
   -5.0096   -2.1352    0.0000 C   0  0  0  0  0  0  0  0  0  0  0  0
   -3.8132   -1.2303    0.0000 C   0  0  0  0  0  0  0  0  0  0  0  0
   -3.9987    0.2582    0.0000 C   0  0  0  0  0  0  0  0  0  0  0  0
   -5.3805    0.8418    0.0000 C   0  0  0  0  0  0  0  0  0  0  0  0
   -5.5659    2.3303    0.0000 C   0  0  0  0  0  0  0  0  0  0  0  0
   -6.9477    2.9140    0.0000 O   0  0  0  0  0  0  0  0  0  0  0  0
   -4.3695    3.2351    0.0000 F   0  0  0  0  0  0  0  0  0  0  0  0
   -2.4315   -1.8140    0.0000 C   0  0  0  0  0  0  0  0  0  0  0  0
   -2.0914   -3.2749    0.0000 C   0  0  0  0  0  0  0  0  0  0  0  0
   -0.5969   -3.4030    0.0000 C   0  0  0  0  0  0  0  0  0  0  0  0
   -0.0133   -2.0212    0.0000 C   0  0  0  0  0  0  0  0  0  0  0  0
    1.4041   -1.5304    0.0000 C   0  0  0  0  0  0  0  0  0  0  0  0
    2.5379   -2.5125    0.0000 C   0  0  0  0  0  0  0  0  0  0  0  0
    3.9554   -2.0216    0.0000 C   0  0  0  0  0  0  0  0  0  0  0  0
    4.2390   -0.5487    0.0000 C   0  0  0  0  0  0  0  0  0  0  0  0
    5.6564   -0.0578    0.0000 C   0  0  0  0  0  0  0  0  0  0  0  0
    5.9400    1.4151    0.0000 C   0  0  0  0  0  0  0  0  0  0  0  0
    7.3574    1.9060    0.0000 O   0  0  0  0  0  0  0  0  0  0  0  0
    4.8062    2.3972    0.0000 C   0  0  0  0  0  0  0  0  0  0  0  0
    3.3888    1.9064    0.0000 C   0  0  0  0  0  0  0  0  0  0  0  0
    3.1052    0.4334    0.0000 C   0  0  0  0  0  0  0  0  0  0  0  0
    1.9714    1.4155    0.0000 C   0  0  0  0  0  0  0  0  0  0  0  0
    1.6878   -0.0574    0.0000 C   0  0  0  0  0  0  0  0  0  0  0  0
    0.5540    0.9246    0.0000 C   0  0  0  0  0  0  0  0  0  0  0  0
   -0.8635    0.4338    0.0000 C   0  0  0  0  0  0  0  0  0  0  0  0
   -1.9973    1.4159    0.0000 O   0  0  0  0  0  0  0  0  0  0  0  0
   -1.1471   -1.0392    0.0000 C   0  0  0  0  0  0  0  0  0  0  0  0
   -2.3773   -0.1810    0.0000 C   0  0  0  0  0  0  0  0  0  0  0  0
  2  1  1  6
  2  3  1  0
  3  4  1  0
  4  5  1  0
  5  6  2  0
  5  7  1  0
  2  8  1  0
  8  9  1  6
  9 10  1  0
 11 10  1  6
 11 12  1  0
 12 13  1  1
 13 14  1  0
 15 14  1  1
 15 16  1  0
 16 17  1  0
 17 18  1  1
 17 19  1  0
 19 20  1  0
 20 21  1  0
 21 22  1  6
 21 23  1  0
 23 24  1  6
 24 25  1  0
 25 26  1  1
 25 27  1  0
 27 28  1  6
 27  8  1  0
 27 11  1  0
 23 12  1  0
 21 15  1  0
M  END
>  <MS_ID>  (397) 
MS0417

>  <SMILES>  (397) 
C[C@H](CCC(=O)F)[C@H]1CC[C@H]2[C@@H]3CC[C@@H]4C[C@H](O)CC[C@]4(C)[C@H]3C[C@H](O)[C@]12C

>  <Structure_dimension>  (397) 
2D

$$$$
MS0418
     RDKit          2D

 33 36  0  0  0  0  0  0  0  0999 V2000
   -4.5834   -3.2875    0.0000 C   0  0  0  0  0  0  0  0  0  0  0  0
   -3.0960   -3.4812    0.0000 C   0  0  0  0  0  0  0  0  0  0  0  0
   -2.1844   -2.2900    0.0000 C   0  0  0  0  0  0  0  0  0  0  0  0
   -2.7603   -0.9049    0.0000 C   0  0  0  0  0  0  0  0  0  0  0  0
   -4.2478   -0.7111    0.0000 C   0  0  0  0  0  0  0  0  0  0  0  0
   -4.8237    0.6739    0.0000 C   0  0  0  0  0  0  0  0  0  0  0  0
   -3.9122    1.8652    0.0000 O   0  0  0  0  0  0  0  0  0  0  0  0
   -6.3111    0.8677    0.0000 N   0  0  0  0  0  0  0  0  0  0  0  0
   -6.8870    2.2527    0.0000 C   0  0  0  0  0  0  0  0  0  0  0  0
   -8.3745    2.4465    0.0000 C   0  0  0  0  0  0  0  0  0  0  0  0
   -9.2860    1.2552    0.0000 O   0  0  0  0  0  0  0  0  0  0  0  0
   -8.9504    3.8315    0.0000 O   0  0  0  0  0  0  0  0  0  0  0  0
   -0.6970   -2.4837    0.0000 C   0  0  0  0  0  0  0  0  0  0  0  0
    0.0205   -3.8010    0.0000 C   0  0  0  0  0  0  0  0  0  0  0  0
    1.4950   -3.5256    0.0000 C   0  0  0  0  0  0  0  0  0  0  0  0
    1.6888   -2.0382    0.0000 C   0  0  0  0  0  0  0  0  0  0  0  0
    2.9238   -1.1869    0.0000 C   0  0  0  0  0  0  0  0  0  0  0  0
    4.2786   -1.8308    0.0000 C   0  0  0  0  0  0  0  0  0  0  0  0
    4.3983   -3.3261    0.0000 O   0  0  0  0  0  0  0  0  0  0  0  0
    5.5136   -0.9796    0.0000 C   0  0  0  0  0  0  0  0  0  0  0  0
    5.3939    0.5157    0.0000 C   0  0  0  0  0  0  0  0  0  0  0  0
    6.6289    1.3669    0.0000 C   0  0  0  0  0  0  0  0  0  0  0  0
    6.5092    2.8622    0.0000 C   0  0  0  0  0  0  0  0  0  0  0  0
    7.7443    3.7134    0.0000 O   0  0  0  0  0  0  0  0  0  0  0  0
    5.1545    3.5061    0.0000 C   0  0  0  0  0  0  0  0  0  0  0  0
    3.9194    2.6548    0.0000 C   0  0  0  0  0  0  0  0  0  0  0  0
    4.0392    1.1596    0.0000 C   0  0  0  0  0  0  0  0  0  0  0  0
    2.6844    1.8035    0.0000 C   0  0  0  0  0  0  0  0  0  0  0  0
    2.8041    0.3083    0.0000 C   0  0  0  0  0  0  0  0  0  0  0  0
    1.4494    0.9522    0.0000 C   0  0  0  0  0  0  0  0  0  0  0  0
    0.2143    0.1009    0.0000 C   0  0  0  0  0  0  0  0  0  0  0  0
    0.3340   -1.3943    0.0000 C   0  0  0  0  0  0  0  0  0  0  0  0
   -1.0806   -0.8955    0.0000 C   0  0  0  0  0  0  0  0  0  0  0  0
  1  2  1  0
  3  2  1  6
  3  4  1  0
  4  5  1  0
  5  6  1  0
  6  7  2  0
  6  8  1  0
  8  9  1  0
  9 10  1  0
 10 11  2  0
 10 12  1  0
  3 13  1  0
 13 14  1  6
 14 15  1  0
 16 15  1  6
 16 17  1  0
 17 18  1  1
 18 19  1  6
 18 20  1  0
 21 20  1  1
 21 22  1  0
 22 23  1  0
 23 24  1  1
 23 25  1  0
 25 26  1  0
 26 27  1  0
 27 28  1  6
 27 29  1  0
 29 30  1  6
 30 31  1  0
 31 32  1  0
 32 33  1  6
 32 13  1  0
 32 16  1  0
 29 17  1  0
 27 21  1  0
M  END
>  <MS_ID>  (398) 
MS0418

>  <SMILES>  (398) 
CC[C@H](CCC(=O)NCC(=O)O)[C@H]1CC[C@H]2[C@@H]3[C@@H](O)C[C@@H]4C[C@H](O)CC[C@]4(C)[C@H]3CC[C@]12C

>  <Structure_dimension>  (398) 
2D

$$$$
MS0419
     RDKit          2D

 29 32  0  0  0  0  0  0  0  0999 V2000
   -5.0303   -2.1373    0.0000 C   0  0  0  0  0  0  0  0  0  0  0  0
   -3.8594   -1.1998    0.0000 C   0  0  0  0  0  0  0  0  0  0  0  0
   -4.0858    0.2830    0.0000 C   0  0  0  0  0  0  0  0  0  0  0  0
   -5.4831    0.8284    0.0000 C   0  0  0  0  0  0  0  0  0  0  0  0
   -5.7095    2.3112    0.0000 C   0  0  0  0  0  0  0  0  0  0  0  0
   -4.5386    3.2487    0.0000 O   0  0  0  0  0  0  0  0  0  0  0  0
   -7.1069    2.8565    0.0000 O   0  0  0  0  0  0  0  0  0  0  0  0
   -2.4620   -1.7451    0.0000 C   0  0  0  0  0  0  0  0  0  0  0  0
   -2.0818   -3.1961    0.0000 C   0  0  0  0  0  0  0  0  0  0  0  0
   -0.5844   -3.2830    0.0000 C   0  0  0  0  0  0  0  0  0  0  0  0
   -0.0390   -1.8856    0.0000 C   0  0  0  0  0  0  0  0  0  0  0  0
    1.3643   -1.3559    0.0000 C   0  0  0  0  0  0  0  0  0  0  0  0
    2.5248   -2.3063    0.0000 C   0  0  0  0  0  0  0  0  0  0  0  0
    2.2819   -3.7865    0.0000 N   0  0  0  0  0  0  0  0  0  0  0  0
    3.9281   -1.7765    0.0000 C   0  0  0  0  0  0  0  0  0  0  0  0
    4.1710   -0.2963    0.0000 C   0  0  0  0  0  0  0  0  0  0  0  0
    5.5743    0.2334    0.0000 C   0  0  0  0  0  0  0  0  0  0  0  0
    5.8172    1.7136    0.0000 C   0  0  0  0  0  0  0  0  0  0  0  0
    7.2205    2.2434    0.0000 O   0  0  0  0  0  0  0  0  0  0  0  0
    4.6568    2.6641    0.0000 C   0  0  0  0  0  0  0  0  0  0  0  0
    3.2534    2.1343    0.0000 C   0  0  0  0  0  0  0  0  0  0  0  0
    3.0105    0.6541    0.0000 C   0  0  0  0  0  0  0  0  0  0  0  0
    1.8501    1.6046    0.0000 C   0  0  0  0  0  0  0  0  0  0  0  0
    1.6072    0.1244    0.0000 C   0  0  0  0  0  0  0  0  0  0  0  0
    0.4467    1.0748    0.0000 C   0  0  0  0  0  0  0  0  0  0  0  0
   -0.9566    0.5450    0.0000 C   0  0  0  0  0  0  0  0  0  0  0  0
   -2.1170    1.4955    0.0000 O   0  0  0  0  0  0  0  0  0  0  0  0
   -1.1995   -0.9352    0.0000 C   0  0  0  0  0  0  0  0  0  0  0  0
   -2.4529   -0.1112    0.0000 C   0  0  0  0  0  0  0  0  0  0  0  0
  2  1  1  6
  2  3  1  0
  3  4  1  0
  4  5  1  0
  5  6  2  0
  5  7  1  0
  2  8  1  0
  8  9  1  6
  9 10  1  0
 11 10  1  6
 11 12  1  0
 12 13  1  1
 13 14  1  1
 13 15  1  0
 16 15  1  1
 16 17  1  0
 17 18  1  0
 18 19  1  1
 18 20  1  0
 20 21  1  0
 21 22  1  0
 22 23  1  6
 22 24  1  0
 24 25  1  6
 25 26  1  0
 26 27  1  6
 26 28  1  0
 28 29  1  6
 28  8  1  0
 28 11  1  0
 24 12  1  0
 22 16  1  0
M  END
>  <MS_ID>  (399) 
MS0419

>  <SMILES>  (399) 
C[C@H](CCC(=O)O)[C@H]1CC[C@H]2[C@@H]3[C@H](N)C[C@@H]4C[C@H](O)CC[C@]4(C)[C@H]3C[C@@H](O)[C@]12C

>  <Structure_dimension>  (399) 
2D

$$$$
MS0421
     RDKit          2D

 33 36  0  0  0  0  0  0  0  0999 V2000
   -3.1434   -3.4914    0.0000 C   0  0  0  0  0  0  0  0  0  0  0  0
   -2.2570   -2.2812    0.0000 C   0  0  0  0  0  0  0  0  0  0  0  0
   -2.8619   -0.9086    0.0000 C   0  0  0  0  0  0  0  0  0  0  0  0
   -4.3531   -0.7461    0.0000 C   0  0  0  0  0  0  0  0  0  0  0  0
   -4.9579    0.6266    0.0000 C   0  0  0  0  0  0  0  0  0  0  0  0
   -4.0716    1.8367    0.0000 O   0  0  0  0  0  0  0  0  0  0  0  0
   -6.4491    0.7891    0.0000 N   0  0  0  0  0  0  0  0  0  0  0  0
   -7.0540    2.1617    0.0000 C   0  0  0  0  0  0  0  0  0  0  0  0
   -8.5451    2.3242    0.0000 C   0  0  0  0  0  0  0  0  0  0  0  0
   -9.4314    1.1141    0.0000 O   0  0  0  0  0  0  0  0  0  0  0  0
   -9.1500    3.6968    0.0000 O   0  0  0  0  0  0  0  0  0  0  0  0
   -0.7659   -2.4437    0.0000 C   0  0  0  0  0  0  0  0  0  0  0  0
   -0.0209   -3.7456    0.0000 C   0  0  0  0  0  0  0  0  0  0  0  0
   -0.6362   -5.1136    0.0000 O   0  0  0  0  0  0  0  0  0  0  0  0
    1.4476   -3.4394    0.0000 C   0  0  0  0  0  0  0  0  0  0  0  0
    1.6101   -1.9482    0.0000 C   0  0  0  0  0  0  0  0  0  0  0  0
    2.8269   -1.0712    0.0000 C   0  0  0  0  0  0  0  0  0  0  0  0
    4.1949   -1.6865    0.0000 C   0  0  0  0  0  0  0  0  0  0  0  0
    4.3460   -3.1789    0.0000 O   0  0  0  0  0  0  0  0  0  0  0  0
    5.4118   -0.8095    0.0000 C   0  0  0  0  0  0  0  0  0  0  0  0
    5.2607    0.6829    0.0000 C   0  0  0  0  0  0  0  0  0  0  0  0
    6.4776    1.5599    0.0000 C   0  0  0  0  0  0  0  0  0  0  0  0
    6.3265    3.0523    0.0000 C   0  0  0  0  0  0  0  0  0  0  0  0
    7.5434    3.9293    0.0000 O   0  0  0  0  0  0  0  0  0  0  0  0
    4.9586    3.6676    0.0000 C   0  0  0  0  0  0  0  0  0  0  0  0
    3.7417    2.7906    0.0000 C   0  0  0  0  0  0  0  0  0  0  0  0
    3.8928    1.2982    0.0000 C   0  0  0  0  0  0  0  0  0  0  0  0
    2.5248    1.9136    0.0000 C   0  0  0  0  0  0  0  0  0  0  0  0
    2.6759    0.4212    0.0000 C   0  0  0  0  0  0  0  0  0  0  0  0
    1.3079    1.0365    0.0000 C   0  0  0  0  0  0  0  0  0  0  0  0
    0.0910    0.1595    0.0000 C   0  0  0  0  0  0  0  0  0  0  0  0
    0.2421   -1.3329    0.0000 C   0  0  0  0  0  0  0  0  0  0  0  0
   -1.1827   -0.8639    0.0000 C   0  0  0  0  0  0  0  0  0  0  0  0
  2  1  1  6
  2  3  1  0
  3  4  1  0
  4  5  1  0
  5  6  2  0
  5  7  1  0
  7  8  1  0
  8  9  1  0
  9 10  2  0
  9 11  1  0
 12  2  1  6
 12 13  1  0
 13 14  1  1
 13 15  1  0
 16 15  1  6
 16 17  1  0
 17 18  1  1
 18 19  1  1
 18 20  1  0
 21 20  1  1
 21 22  1  0
 22 23  1  0
 23 24  1  1
 23 25  1  0
 25 26  1  0
 26 27  1  0
 27 28  1  6
 27 29  1  0
 29 30  1  6
 30 31  1  0
 31 32  1  0
 32 33  1  6
 32 12  1  0
 32 16  1  0
 29 17  1  0
 27 21  1  0
M  END
>  <MS_ID>  (400) 
MS0421

>  <SMILES>  (400) 
C[C@H](CCC(=O)NCC(=O)O)[C@H]1[C@H](O)C[C@H]2[C@@H]3[C@H](O)C[C@@H]4C[C@H](O)CC[C@]4(C)[C@H]3CC[C@]12C

>  <Structure_dimension>  (400) 
2D

$$$$
MS0422
     RDKit          2D

 33 37  0  0  0  0  0  0  0  0999 V2000
   -3.4505   -3.2444    0.0000 C   0  0  0  0  0  0  0  0  0  0  0  0
   -2.4721   -2.1074    0.0000 C   0  0  0  0  0  0  0  0  0  0  0  0
   -2.9676   -0.6916    0.0000 C   0  0  0  0  0  0  0  0  0  0  0  0
   -4.4415   -0.4128    0.0000 C   0  0  0  0  0  0  0  0  0  0  0  0
   -4.9370    1.0030    0.0000 C   0  0  0  0  0  0  0  0  0  0  0  0
   -3.9586    2.1400    0.0000 O   0  0  0  0  0  0  0  0  0  0  0  0
   -6.4109    1.2817    0.0000 C   0  0  0  0  0  0  0  0  0  0  0  0
   -7.5027    0.2532    0.0000 C   0  0  0  0  0  0  0  0  0  0  0  0
   -8.8183    0.9738    0.0000 C   0  0  0  0  0  0  0  0  0  0  0  0
   -8.5395    2.4477    0.0000 C   0  0  0  0  0  0  0  0  0  0  0  0
   -7.0517    2.6380    0.0000 N   0  0  0  0  0  0  0  0  0  0  0  0
   -0.9983   -2.3862    0.0000 C   0  0  0  0  0  0  0  0  0  0  0  0
   -0.3575   -3.7424    0.0000 C   0  0  0  0  0  0  0  0  0  0  0  0
    1.1304   -3.5521    0.0000 C   0  0  0  0  0  0  0  0  0  0  0  0
    1.4092   -2.0783    0.0000 C   0  0  0  0  0  0  0  0  0  0  0  0
    2.6910   -1.2992    0.0000 C   0  0  0  0  0  0  0  0  0  0  0  0
    4.0066   -2.0198    0.0000 C   0  0  0  0  0  0  0  0  0  0  0  0
    4.0403   -3.5194    0.0000 O   0  0  0  0  0  0  0  0  0  0  0  0
    5.2884   -1.2408    0.0000 C   0  0  0  0  0  0  0  0  0  0  0  0
    5.2547    0.2589    0.0000 C   0  0  0  0  0  0  0  0  0  0  0  0
    6.5365    1.0379    0.0000 C   0  0  0  0  0  0  0  0  0  0  0  0
    6.5028    2.5375    0.0000 C   0  0  0  0  0  0  0  0  0  0  0  0
    7.7846    3.3166    0.0000 O   0  0  0  0  0  0  0  0  0  0  0  0
    5.1872    3.2581    0.0000 C   0  0  0  0  0  0  0  0  0  0  0  0
    3.9054    2.4791    0.0000 C   0  0  0  0  0  0  0  0  0  0  0  0
    3.9391    0.9794    0.0000 C   0  0  0  0  0  0  0  0  0  0  0  0
    2.6235    1.7000    0.0000 C   0  0  0  0  0  0  0  0  0  0  0  0
    2.6573    0.2004    0.0000 C   0  0  0  0  0  0  0  0  0  0  0  0
    1.3417    0.9210    0.0000 C   0  0  0  0  0  0  0  0  0  0  0  0
    0.0598    0.1420    0.0000 C   0  0  0  0  0  0  0  0  0  0  0  0
   -1.2557    0.8625    0.0000 O   0  0  0  0  0  0  0  0  0  0  0  0
    0.0936   -1.3577    0.0000 C   0  0  0  0  0  0  0  0  0  0  0  0
   -1.2901   -0.7785    0.0000 C   0  0  0  0  0  0  0  0  0  0  0  0
  2  1  1  6
  2  3  1  0
  3  4  1  0
  4  5  1  0
  5  6  2  0
  5  7  1  0
  7  8  2  0
  8  9  1  0
  9 10  2  0
 10 11  1  0
  2 12  1  0
 12 13  1  6
 13 14  1  0
 15 14  1  6
 15 16  1  0
 16 17  1  1
 17 18  1  1
 17 19  1  0
 20 19  1  1
 20 21  1  0
 21 22  1  0
 22 23  1  1
 22 24  1  0
 24 25  1  0
 25 26  1  0
 26 27  1  6
 26 28  1  0
 28 29  1  6
 29 30  1  0
 30 31  1  1
 30 32  1  0
 32 33  1  6
 11  7  1  0
 32 12  1  0
 32 15  1  0
 28 16  1  0
 26 20  1  0
M  END
>  <MS_ID>  (401) 
MS0422

>  <SMILES>  (401) 
C[C@H](CCC(=O)c1ccc[nH]1)[C@H]1CC[C@H]2[C@@H]3[C@H](O)C[C@@H]4C[C@H](O)CC[C@]4(C)[C@H]3C[C@H](O)[C@]12C

>  <Structure_dimension>  (401) 
2D

$$$$
MS0423
     RDKit          2D

 36 40  0  0  0  0  0  0  0  0999 V2000
   -2.5639   -3.5335    0.0000 C   0  0  0  0  0  0  0  0  0  0  0  0
   -1.6526   -2.3421    0.0000 C   0  0  0  0  0  0  0  0  0  0  0  0
   -2.2287   -0.9572    0.0000 C   0  0  0  0  0  0  0  0  0  0  0  0
   -3.7161   -0.7636    0.0000 C   0  0  0  0  0  0  0  0  0  0  0  0
   -4.2922    0.6214    0.0000 C   0  0  0  0  0  0  0  0  0  0  0  0
   -3.3808    1.8128    0.0000 O   0  0  0  0  0  0  0  0  0  0  0  0
   -5.7797    0.8149    0.0000 C   0  0  0  0  0  0  0  0  0  0  0  0
   -6.3557    2.1999    0.0000 C   0  0  0  0  0  0  0  0  0  0  0  0
   -7.8432    2.3935    0.0000 C   0  0  0  0  0  0  0  0  0  0  0  0
   -8.4193    3.7784    0.0000 O   0  0  0  0  0  0  0  0  0  0  0  0
   -8.7546    1.2021    0.0000 C   0  0  0  0  0  0  0  0  0  0  0  0
   -8.1785   -0.1829    0.0000 C   0  0  0  0  0  0  0  0  0  0  0  0
   -6.6910   -0.3764    0.0000 C   0  0  0  0  0  0  0  0  0  0  0  0
   -6.1149   -1.7614    0.0000 O   0  0  0  0  0  0  0  0  0  0  0  0
   -0.1651   -2.5357    0.0000 C   0  0  0  0  0  0  0  0  0  0  0  0
    0.5526   -3.8529    0.0000 C   0  0  0  0  0  0  0  0  0  0  0  0
    2.0271   -3.5773    0.0000 C   0  0  0  0  0  0  0  0  0  0  0  0
    2.2206   -2.0899    0.0000 C   0  0  0  0  0  0  0  0  0  0  0  0
    3.4556   -1.2384    0.0000 C   0  0  0  0  0  0  0  0  0  0  0  0
    4.8104   -1.8822    0.0000 C   0  0  0  0  0  0  0  0  0  0  0  0
    4.9303   -3.3774    0.0000 O   0  0  0  0  0  0  0  0  0  0  0  0
    6.0453   -1.0307    0.0000 C   0  0  0  0  0  0  0  0  0  0  0  0
    5.9254    0.4645    0.0000 C   0  0  0  0  0  0  0  0  0  0  0  0
    7.1603    1.3159    0.0000 C   0  0  0  0  0  0  0  0  0  0  0  0
    7.0404    2.8111    0.0000 C   0  0  0  0  0  0  0  0  0  0  0  0
    8.2753    3.6626    0.0000 O   0  0  0  0  0  0  0  0  0  0  0  0
    5.6856    3.4549    0.0000 C   0  0  0  0  0  0  0  0  0  0  0  0
    4.4507    2.6034    0.0000 C   0  0  0  0  0  0  0  0  0  0  0  0
    4.5706    1.1082    0.0000 C   0  0  0  0  0  0  0  0  0  0  0  0
    3.2157    1.7520    0.0000 C   0  0  0  0  0  0  0  0  0  0  0  0
    3.3357    0.2568    0.0000 C   0  0  0  0  0  0  0  0  0  0  0  0
    1.9808    0.9005    0.0000 C   0  0  0  0  0  0  0  0  0  0  0  0
    0.7459    0.0491    0.0000 C   0  0  0  0  0  0  0  0  0  0  0  0
   -0.6089    0.6928    0.0000 O   0  0  0  0  0  0  0  0  0  0  0  0
    0.8658   -1.4461    0.0000 C   0  0  0  0  0  0  0  0  0  0  0  0
   -0.5489   -0.9475    0.0000 C   0  0  0  0  0  0  0  0  0  0  0  0
  2  1  1  6
  2  3  1  0
  3  4  1  0
  4  5  1  0
  5  6  2  0
  5  7  1  0
  7  8  2  0
  8  9  1  0
  9 10  1  0
  9 11  2  0
 11 12  1  0
 12 13  2  0
 13 14  1  0
  2 15  1  0
 15 16  1  6
 16 17  1  0
 18 17  1  6
 18 19  1  0
 19 20  1  1
 20 21  1  1
 20 22  1  0
 23 22  1  1
 23 24  1  0
 24 25  1  0
 25 26  1  1
 25 27  1  0
 27 28  1  0
 28 29  1  0
 29 30  1  6
 29 31  1  0
 31 32  1  6
 32 33  1  0
 33 34  1  1
 33 35  1  0
 35 36  1  6
 13  7  1  0
 35 15  1  0
 35 18  1  0
 31 19  1  0
 29 23  1  0
M  END
>  <MS_ID>  (402) 
MS0423

>  <SMILES>  (402) 
C[C@H](CCC(=O)c1cc(O)ccc1O)[C@H]1CC[C@H]2[C@@H]3[C@H](O)C[C@@H]4C[C@H](O)CC[C@]4(C)[C@H]3C[C@H](O)[C@]12C

>  <Structure_dimension>  (402) 
2D

$$$$
MS0424
     RDKit          2D

 29 32  0  0  0  0  0  0  0  0999 V2000
   -5.0303   -2.1373    0.0000 C   0  0  0  0  0  0  0  0  0  0  0  0
   -3.8594   -1.1998    0.0000 C   0  0  0  0  0  0  0  0  0  0  0  0
   -4.0858    0.2830    0.0000 C   0  0  0  0  0  0  0  0  0  0  0  0
   -5.4831    0.8284    0.0000 C   0  0  0  0  0  0  0  0  0  0  0  0
   -5.7095    2.3112    0.0000 C   0  0  0  0  0  0  0  0  0  0  0  0
   -4.5386    3.2487    0.0000 O   0  0  0  0  0  0  0  0  0  0  0  0
   -7.1069    2.8565    0.0000 O   0  0  0  0  0  0  0  0  0  0  0  0
   -2.4620   -1.7451    0.0000 C   0  0  0  0  0  0  0  0  0  0  0  0
   -2.0818   -3.1961    0.0000 C   0  0  0  0  0  0  0  0  0  0  0  0
   -0.5844   -3.2830    0.0000 C   0  0  0  0  0  0  0  0  0  0  0  0
   -0.0390   -1.8856    0.0000 C   0  0  0  0  0  0  0  0  0  0  0  0
    1.3643   -1.3559    0.0000 C   0  0  0  0  0  0  0  0  0  0  0  0
    2.5248   -2.3063    0.0000 C   0  0  0  0  0  0  0  0  0  0  0  0
    2.2819   -3.7865    0.0000 S   0  0  0  0  0  0  0  0  0  0  0  0
    3.9281   -1.7765    0.0000 C   0  0  0  0  0  0  0  0  0  0  0  0
    4.1710   -0.2963    0.0000 C   0  0  0  0  0  0  0  0  0  0  0  0
    5.5743    0.2334    0.0000 C   0  0  0  0  0  0  0  0  0  0  0  0
    5.8172    1.7136    0.0000 C   0  0  0  0  0  0  0  0  0  0  0  0
    7.2205    2.2434    0.0000 O   0  0  0  0  0  0  0  0  0  0  0  0
    4.6568    2.6641    0.0000 C   0  0  0  0  0  0  0  0  0  0  0  0
    3.2534    2.1343    0.0000 C   0  0  0  0  0  0  0  0  0  0  0  0
    3.0105    0.6541    0.0000 C   0  0  0  0  0  0  0  0  0  0  0  0
    1.8501    1.6046    0.0000 C   0  0  0  0  0  0  0  0  0  0  0  0
    1.6072    0.1244    0.0000 C   0  0  0  0  0  0  0  0  0  0  0  0
    0.4467    1.0748    0.0000 C   0  0  0  0  0  0  0  0  0  0  0  0
   -0.9566    0.5450    0.0000 C   0  0  0  0  0  0  0  0  0  0  0  0
   -2.1170    1.4955    0.0000 O   0  0  0  0  0  0  0  0  0  0  0  0
   -1.1995   -0.9352    0.0000 C   0  0  0  0  0  0  0  0  0  0  0  0
   -2.4529   -0.1112    0.0000 C   0  0  0  0  0  0  0  0  0  0  0  0
  2  1  1  6
  2  3  1  0
  3  4  1  0
  4  5  1  0
  5  6  2  0
  5  7  1  0
  2  8  1  0
  8  9  1  6
  9 10  1  0
 11 10  1  6
 11 12  1  0
 12 13  1  1
 13 14  1  1
 13 15  1  0
 16 15  1  1
 16 17  1  0
 17 18  1  0
 18 19  1  1
 18 20  1  0
 20 21  1  0
 21 22  1  0
 22 23  1  6
 22 24  1  0
 24 25  1  6
 25 26  1  0
 26 27  2  0
 26 28  1  0
 28 29  1  6
 28  8  1  0
 28 11  1  0
 24 12  1  0
 22 16  1  0
M  END
>  <MS_ID>  (403) 
MS0424

>  <SMILES>  (403) 
C[C@H](CCC(=O)O)[C@H]1CC[C@H]2[C@@H]3[C@H](S)C[C@@H]4C[C@H](O)CC[C@]4(C)[C@H]3CC(=O)[C@]12C

>  <Structure_dimension>  (403) 
2D

$$$$
MS0425
     RDKit          2D

 30 33  0  0  0  0  0  0  0  0999 V2000
   -4.3209   -2.7536    0.0000 C   0  0  0  0  0  0  0  0  0  0  0  0
   -3.2523   -1.7010    0.0000 C   0  0  0  0  0  0  0  0  0  0  0  0
   -3.6295   -0.2492    0.0000 C   0  0  0  0  0  0  0  0  0  0  0  0
   -5.0755    0.1499    0.0000 C   0  0  0  0  0  0  0  0  0  0  0  0
   -5.4527    1.6017    0.0000 C   0  0  0  0  0  0  0  0  0  0  0  0
   -4.3841    2.6543    0.0000 O   0  0  0  0  0  0  0  0  0  0  0  0
   -6.8987    2.0009    0.0000 C   0  0  0  0  0  0  0  0  0  0  0  0
   -7.9673    0.9482    0.0000 O   0  0  0  0  0  0  0  0  0  0  0  0
   -7.2759    3.4526    0.0000 O   0  0  0  0  0  0  0  0  0  0  0  0
   -1.8064   -2.1002    0.0000 C   0  0  0  0  0  0  0  0  0  0  0  0
   -1.2794   -3.5046    0.0000 C   0  0  0  0  0  0  0  0  0  0  0  0
    0.2191   -3.4374    0.0000 C   0  0  0  0  0  0  0  0  0  0  0  0
    0.6183   -1.9915    0.0000 C   0  0  0  0  0  0  0  0  0  0  0  0
    1.9599   -1.3206    0.0000 C   0  0  0  0  0  0  0  0  0  0  0  0
    3.2117   -2.1470    0.0000 C   0  0  0  0  0  0  0  0  0  0  0  0
    3.1219   -3.6443    0.0000 O   0  0  0  0  0  0  0  0  0  0  0  0
    4.5533   -1.4762    0.0000 C   0  0  0  0  0  0  0  0  0  0  0  0
    4.6431    0.0211    0.0000 C   0  0  0  0  0  0  0  0  0  0  0  0
    5.9847    0.6920    0.0000 C   0  0  0  0  0  0  0  0  0  0  0  0
    6.0745    2.1893    0.0000 C   0  0  0  0  0  0  0  0  0  0  0  0
    7.4161    2.8602    0.0000 O   0  0  0  0  0  0  0  0  0  0  0  0
    4.8227    3.0158    0.0000 C   0  0  0  0  0  0  0  0  0  0  0  0
    3.4811    2.3449    0.0000 C   0  0  0  0  0  0  0  0  0  0  0  0
    3.3913    0.8476    0.0000 C   0  0  0  0  0  0  0  0  0  0  0  0
    2.1395    1.6740    0.0000 C   0  0  0  0  0  0  0  0  0  0  0  0
    2.0497    0.1767    0.0000 C   0  0  0  0  0  0  0  0  0  0  0  0
    0.7979    1.0031    0.0000 C   0  0  0  0  0  0  0  0  0  0  0  0
   -0.5437    0.3323    0.0000 C   0  0  0  0  0  0  0  0  0  0  0  0
   -0.6335   -1.1650    0.0000 C   0  0  0  0  0  0  0  0  0  0  0  0
   -1.9649   -0.4740    0.0000 C   0  0  0  0  0  0  0  0  0  0  0  0
  2  1  1  6
  2  3  1  0
  3  4  1  0
  4  5  1  0
  5  6  2  0
  5  7  1  0
  7  8  2  0
  7  9  1  0
  2 10  1  0
 10 11  1  6
 11 12  1  0
 13 12  1  6
 13 14  1  0
 14 15  1  1
 15 16  1  6
 15 17  1  0
 18 17  1  1
 18 19  1  0
 19 20  1  0
 20 21  1  1
 20 22  1  0
 22 23  1  0
 23 24  1  0
 24 25  1  6
 24 26  1  0
 26 27  1  6
 27 28  1  0
 28 29  1  0
 29 30  1  6
 29 10  1  0
 29 13  1  0
 26 14  1  0
 24 18  1  0
M  END
>  <MS_ID>  (404) 
MS0425

>  <SMILES>  (404) 
C[C@H](CCC(=O)C(=O)O)[C@H]1CC[C@H]2[C@@H]3[C@@H](O)C[C@@H]4C[C@H](O)CC[C@]4(C)[C@H]3CC[C@]12C

>  <Structure_dimension>  (404) 
2D

$$$$
MS0426
     RDKit          2D

 31 34  0  0  0  0  0  0  0  0999 V2000
   -6.0453   -1.9792    0.0000 C   0  0  0  0  0  0  0  0  0  0  0  0
   -4.8129   -1.1240    0.0000 C   0  0  0  0  0  0  0  0  0  0  0  0
   -4.9374    0.3708    0.0000 C   0  0  0  0  0  0  0  0  0  0  0  0
   -6.2942    1.0105    0.0000 C   0  0  0  0  0  0  0  0  0  0  0  0
   -6.4186    2.5053    0.0000 C   0  0  0  0  0  0  0  0  0  0  0  0
   -5.1863    3.3605    0.0000 O   0  0  0  0  0  0  0  0  0  0  0  0
   -7.7754    3.1449    0.0000 O   0  0  0  0  0  0  0  0  0  0  0  0
   -3.4562   -1.7636    0.0000 C   0  0  0  0  0  0  0  0  0  0  0  0
   -3.1761   -3.2373    0.0000 C   0  0  0  0  0  0  0  0  0  0  0  0
   -1.6881   -3.4263    0.0000 C   0  0  0  0  0  0  0  0  0  0  0  0
   -1.0485   -2.0695    0.0000 C   0  0  0  0  0  0  0  0  0  0  0  0
    0.3878   -1.6370    0.0000 C   0  0  0  0  0  0  0  0  0  0  0  0
    1.4805   -2.6646    0.0000 C   0  0  0  0  0  0  0  0  0  0  0  0
    2.9168   -2.2321    0.0000 C   0  0  0  0  0  0  0  0  0  0  0  0
    3.2604   -0.7719    0.0000 C   0  0  0  0  0  0  0  0  0  0  0  0
    4.6967   -0.3394    0.0000 C   0  0  0  0  0  0  0  0  0  0  0  0
    5.0402    1.1207    0.0000 C   0  0  0  0  0  0  0  0  0  0  0  0
    6.4765    1.5532    0.0000 O   0  0  0  0  0  0  0  0  0  0  0  0
    7.5693    0.5256    0.0000 C   0  0  0  0  0  0  0  0  0  0  0  0
    9.0055    0.9582    0.0000 C   0  0  0  0  0  0  0  0  0  0  0  0
   10.0983   -0.0694    0.0000 O   0  0  0  0  0  0  0  0  0  0  0  0
    3.9475    2.1483    0.0000 C   0  0  0  0  0  0  0  0  0  0  0  0
    2.5112    1.7158    0.0000 C   0  0  0  0  0  0  0  0  0  0  0  0
    2.1677    0.2557    0.0000 C   0  0  0  0  0  0  0  0  0  0  0  0
    1.0749    1.2832    0.0000 C   0  0  0  0  0  0  0  0  0  0  0  0
    0.7314   -0.1769    0.0000 C   0  0  0  0  0  0  0  0  0  0  0  0
   -0.3613    0.8507    0.0000 C   0  0  0  0  0  0  0  0  0  0  0  0
   -1.7976    0.4182    0.0000 C   0  0  0  0  0  0  0  0  0  0  0  0
   -2.8903    1.4458    0.0000 O   0  0  0  0  0  0  0  0  0  0  0  0
   -2.1412   -1.0419    0.0000 C   0  0  0  0  0  0  0  0  0  0  0  0
   -3.3353   -0.1342    0.0000 C   0  0  0  0  0  0  0  0  0  0  0  0
  2  1  1  6
  2  3  1  0
  3  4  1  0
  4  5  1  0
  5  6  2  0
  5  7  1  0
  2  8  1  0
  8  9  1  6
  9 10  1  0
 11 10  1  6
 11 12  1  0
 12 13  1  1
 13 14  1  0
 15 14  1  1
 15 16  1  0
 16 17  1  0
 17 18  1  1
 18 19  1  0
 19 20  1  0
 20 21  1  0
 17 22  1  0
 22 23  1  0
 23 24  1  0
 24 25  1  6
 24 26  1  0
 26 27  1  6
 27 28  1  0
 28 29  1  1
 28 30  1  0
 30 31  1  6
 30  8  1  0
 30 11  1  0
 26 12  1  0
 24 15  1  0
M  END
>  <MS_ID>  (405) 
MS0426

>  <SMILES>  (405) 
C[C@H](CCC(=O)O)[C@H]1CC[C@H]2[C@@H]3CC[C@@H]4C[C@H](OCCO)CC[C@]4(C)[C@H]3C[C@H](O)[C@]12C

>  <Structure_dimension>  (405) 
2D

$$$$
MS0427
     RDKit          2D

 32 35  0  0  0  0  0  0  0  0999 V2000
   -3.4546   -3.6059    0.0000 C   0  0  0  0  0  0  0  0  0  0  0  0
   -2.5561   -2.4048    0.0000 C   0  0  0  0  0  0  0  0  0  0  0  0
   -3.1471   -1.0261    0.0000 C   0  0  0  0  0  0  0  0  0  0  0  0
   -4.6366   -0.8486    0.0000 C   0  0  0  0  0  0  0  0  0  0  0  0
   -5.2276    0.5301    0.0000 C   0  0  0  0  0  0  0  0  0  0  0  0
   -4.3291    1.7312    0.0000 O   0  0  0  0  0  0  0  0  0  0  0  0
   -6.7170    0.7076    0.0000 N   0  0  0  0  0  0  0  0  0  0  0  0
   -7.3080    2.0863    0.0000 C   0  0  0  0  0  0  0  0  0  0  0  0
   -8.7975    2.2638    0.0000 C   0  0  0  0  0  0  0  0  0  0  0  0
   -9.3885    3.6424    0.0000 N   0  0  0  0  0  0  0  0  0  0  0  0
   -1.0667   -2.5823    0.0000 C   0  0  0  0  0  0  0  0  0  0  0  0
   -0.3348   -3.8917    0.0000 C   0  0  0  0  0  0  0  0  0  0  0  0
    1.1366   -3.6002    0.0000 C   0  0  0  0  0  0  0  0  0  0  0  0
    1.3141   -2.1108    0.0000 C   0  0  0  0  0  0  0  0  0  0  0  0
    2.5398   -1.2460    0.0000 C   0  0  0  0  0  0  0  0  0  0  0  0
    3.9015   -1.8751    0.0000 C   0  0  0  0  0  0  0  0  0  0  0  0
    4.0375   -3.3690    0.0000 O   0  0  0  0  0  0  0  0  0  0  0  0
    5.1272   -1.0104    0.0000 C   0  0  0  0  0  0  0  0  0  0  0  0
    4.9911    0.4834    0.0000 C   0  0  0  0  0  0  0  0  0  0  0  0
    6.2168    1.3481    0.0000 C   0  0  0  0  0  0  0  0  0  0  0  0
    6.0808    2.8419    0.0000 C   0  0  0  0  0  0  0  0  0  0  0  0
    7.3064    3.7067    0.0000 O   0  0  0  0  0  0  0  0  0  0  0  0
    4.7191    3.4710    0.0000 C   0  0  0  0  0  0  0  0  0  0  0  0
    3.4934    2.6063    0.0000 C   0  0  0  0  0  0  0  0  0  0  0  0
    3.6294    1.1125    0.0000 C   0  0  0  0  0  0  0  0  0  0  0  0
    2.2677    1.7416    0.0000 C   0  0  0  0  0  0  0  0  0  0  0  0
    2.4038    0.2478    0.0000 C   0  0  0  0  0  0  0  0  0  0  0  0
    1.0421    0.8769    0.0000 C   0  0  0  0  0  0  0  0  0  0  0  0
   -0.1836    0.0122    0.0000 C   0  0  0  0  0  0  0  0  0  0  0  0
   -1.5453    0.6413    0.0000 O   0  0  0  0  0  0  0  0  0  0  0  0
   -0.0476   -1.4817    0.0000 C   0  0  0  0  0  0  0  0  0  0  0  0
   -1.4676   -0.9983    0.0000 C   0  0  0  0  0  0  0  0  0  0  0  0
  2  1  1  6
  2  3  1  0
  3  4  1  0
  4  5  1  0
  5  6  2  0
  5  7  1  0
  7  8  1  0
  8  9  1  0
  9 10  1  0
  2 11  1  0
 11 12  1  6
 12 13  1  0
 14 13  1  6
 14 15  1  0
 15 16  1  1
 16 17  1  1
 16 18  1  0
 19 18  1  1
 19 20  1  0
 20 21  1  0
 21 22  1  1
 21 23  1  0
 23 24  1  0
 24 25  1  0
 25 26  1  6
 25 27  1  0
 27 28  1  6
 28 29  1  0
 29 30  1  1
 29 31  1  0
 31 32  1  6
 31 11  1  0
 31 14  1  0
 27 15  1  0
 25 19  1  0
M  END
>  <MS_ID>  (406) 
MS0427

>  <SMILES>  (406) 
C[C@H](CCC(=O)NCCN)[C@H]1CC[C@H]2[C@@H]3[C@H](O)C[C@@H]4C[C@H](O)CC[C@]4(C)[C@H]3C[C@H](O)[C@]12C

>  <Structure_dimension>  (406) 
2D

$$$$
MS0428
     RDKit          2D

 27 30  0  0  0  0  0  0  0  0999 V2000
   -4.6206   -2.3136    0.0000 C   0  0  0  0  0  0  0  0  0  0  0  0
   -3.4741   -1.3464    0.0000 C   0  0  0  0  0  0  0  0  0  0  0  0
   -3.7384    0.1301    0.0000 C   0  0  0  0  0  0  0  0  0  0  0  0
   -5.1493    0.6394    0.0000 C   0  0  0  0  0  0  0  0  0  0  0  0
   -5.4136    2.1160    0.0000 C   0  0  0  0  0  0  0  0  0  0  0  0
   -6.8245    2.6253    0.0000 O   0  0  0  0  0  0  0  0  0  0  0  0
   -4.2671    3.0832    0.0000 S   0  0  0  0  0  0  0  0  0  0  0  0
   -2.0632   -1.8558    0.0000 C   0  0  0  0  0  0  0  0  0  0  0  0
   -1.6459   -3.2966    0.0000 C   0  0  0  0  0  0  0  0  0  0  0  0
   -0.1467   -3.3450    0.0000 C   0  0  0  0  0  0  0  0  0  0  0  0
    0.3626   -1.9341    0.0000 C   0  0  0  0  0  0  0  0  0  0  0  0
    1.7519   -1.3686    0.0000 C   0  0  0  0  0  0  0  0  0  0  0  0
    2.9363   -2.2890    0.0000 C   0  0  0  0  0  0  0  0  0  0  0  0
    4.3256   -1.7234    0.0000 C   0  0  0  0  0  0  0  0  0  0  0  0
    4.5305   -0.2375    0.0000 C   0  0  0  0  0  0  0  0  0  0  0  0
    5.9198    0.3281    0.0000 C   0  0  0  0  0  0  0  0  0  0  0  0
    6.1247    1.8140    0.0000 C   0  0  0  0  0  0  0  0  0  0  0  0
    4.9402    2.7344    0.0000 C   0  0  0  0  0  0  0  0  0  0  0  0
    3.5509    2.1689    0.0000 C   0  0  0  0  0  0  0  0  0  0  0  0
    3.3461    0.6829    0.0000 C   0  0  0  0  0  0  0  0  0  0  0  0
    2.1616    1.6033    0.0000 C   0  0  0  0  0  0  0  0  0  0  0  0
    1.9568    0.1174    0.0000 C   0  0  0  0  0  0  0  0  0  0  0  0
    0.7723    1.0378    0.0000 C   0  0  0  0  0  0  0  0  0  0  0  0
   -0.6170    0.4722    0.0000 C   0  0  0  0  0  0  0  0  0  0  0  0
   -1.8014    1.3926    0.0000 O   0  0  0  0  0  0  0  0  0  0  0  0
   -0.8218   -1.0137    0.0000 C   0  0  0  0  0  0  0  0  0  0  0  0
   -2.0960   -0.2222    0.0000 C   0  0  0  0  0  0  0  0  0  0  0  0
  2  1  1  6
  2  3  1  0
  3  4  1  0
  4  5  1  0
  5  6  2  0
  5  7  1  0
  2  8  1  0
  8  9  1  6
  9 10  1  0
 11 10  1  6
 11 12  1  0
 12 13  1  1
 13 14  1  0
 15 14  1  1
 15 16  1  0
 16 17  1  0
 17 18  1  0
 18 19  1  0
 19 20  1  0
 20 21  1  6
 20 22  1  0
 22 23  1  6
 23 24  1  0
 24 25  1  6
 24 26  1  0
 26 27  1  6
 26  8  1  0
 26 11  1  0
 22 12  1  0
 20 15  1  0
M  END
>  <MS_ID>  (407) 
MS0428

>  <SMILES>  (407) 
C[C@H](CCC(=O)S)[C@H]1CC[C@H]2[C@@H]3CC[C@@H]4CCCC[C@]4(C)[C@H]3C[C@@H](O)[C@]12C

>  <Structure_dimension>  (407) 
2D

$$$$
MS0429
     RDKit          2D

 29 32  0  0  0  0  0  0  0  0999 V2000
   -5.3431   -2.0646    0.0000 C   0  0  0  0  0  0  0  0  0  0  0  0
   -4.1296   -1.1829    0.0000 C   0  0  0  0  0  0  0  0  0  0  0  0
   -4.2863    0.3088    0.0000 C   0  0  0  0  0  0  0  0  0  0  0  0
   -5.6566    0.9190    0.0000 C   0  0  0  0  0  0  0  0  0  0  0  0
   -5.8134    2.4108    0.0000 C   0  0  0  0  0  0  0  0  0  0  0  0
   -4.5998    3.2924    0.0000 O   0  0  0  0  0  0  0  0  0  0  0  0
   -7.1837    3.0209    0.0000 O   0  0  0  0  0  0  0  0  0  0  0  0
   -2.7593   -1.7931    0.0000 C   0  0  0  0  0  0  0  0  0  0  0  0
   -2.4474   -3.2603    0.0000 C   0  0  0  0  0  0  0  0  0  0  0  0
   -0.9557   -3.4171    0.0000 C   0  0  0  0  0  0  0  0  0  0  0  0
   -0.3455   -2.0468    0.0000 C   0  0  0  0  0  0  0  0  0  0  0  0
    1.0811   -1.5833    0.0000 C   0  0  0  0  0  0  0  0  0  0  0  0
    2.1958   -2.5871    0.0000 C   0  0  0  0  0  0  0  0  0  0  0  0
    3.6224   -2.1236    0.0000 C   0  0  0  0  0  0  0  0  0  0  0  0
    3.9343   -0.6564    0.0000 C   0  0  0  0  0  0  0  0  0  0  0  0
    5.3609   -0.1929    0.0000 C   0  0  0  0  0  0  0  0  0  0  0  0
    5.6728    1.2743    0.0000 C   0  0  0  0  0  0  0  0  0  0  0  0
    7.0994    1.7378    0.0000 C   0  0  0  0  0  0  0  0  0  0  0  0
    8.2141    0.7341    0.0000 O   0  0  0  0  0  0  0  0  0  0  0  0
    4.5581    2.2781    0.0000 C   0  0  0  0  0  0  0  0  0  0  0  0
    3.1315    1.8146    0.0000 C   0  0  0  0  0  0  0  0  0  0  0  0
    2.8196    0.3474    0.0000 C   0  0  0  0  0  0  0  0  0  0  0  0
    1.7049    1.3511    0.0000 C   0  0  0  0  0  0  0  0  0  0  0  0
    1.3930   -0.1161    0.0000 C   0  0  0  0  0  0  0  0  0  0  0  0
    0.2783    0.8876    0.0000 C   0  0  0  0  0  0  0  0  0  0  0  0
   -1.1483    0.4241    0.0000 C   0  0  0  0  0  0  0  0  0  0  0  0
   -2.2630    1.4278    0.0000 O   0  0  0  0  0  0  0  0  0  0  0  0
   -1.4602   -1.0431    0.0000 C   0  0  0  0  0  0  0  0  0  0  0  0
   -2.6737   -0.1614    0.0000 C   0  0  0  0  0  0  0  0  0  0  0  0
  2  1  1  6
  2  3  1  0
  3  4  1  0
  4  5  1  0
  5  6  2  0
  5  7  1  0
  2  8  1  0
  8  9  1  6
  9 10  1  0
 11 10  1  6
 11 12  1  0
 12 13  1  1
 13 14  1  0
 15 14  1  1
 15 16  1  0
 16 17  1  0
 17 18  1  1
 18 19  1  0
 17 20  1  0
 20 21  1  0
 21 22  1  0
 22 23  1  6
 22 24  1  0
 24 25  1  6
 25 26  1  0
 26 27  1  6
 26 28  1  0
 28 29  1  6
 28  8  1  0
 28 11  1  0
 24 12  1  0
 22 15  1  0
M  END
>  <MS_ID>  (408) 
MS0429

>  <SMILES>  (408) 
C[C@H](CCC(=O)O)[C@H]1CC[C@H]2[C@@H]3CC[C@@H]4C[C@H](CO)CC[C@]4(C)[C@H]3C[C@@H](O)[C@]12C

>  <Structure_dimension>  (408) 
2D

$$$$
MS0430
     RDKit          2D

 32 35  0  0  0  0  0  0  0  0999 V2000
   -3.3600   -3.6470    0.0000 C   0  0  0  0  0  0  0  0  0  0  0  0
   -2.4640   -2.4440    0.0000 C   0  0  0  0  0  0  0  0  0  0  0  0
   -3.0579   -1.0666    0.0000 C   0  0  0  0  0  0  0  0  0  0  0  0
   -4.5477   -0.8922    0.0000 C   0  0  0  0  0  0  0  0  0  0  0  0
   -5.1416    0.4852    0.0000 C   0  0  0  0  0  0  0  0  0  0  0  0
   -4.2456    1.6883    0.0000 O   0  0  0  0  0  0  0  0  0  0  0  0
   -6.6314    0.6596    0.0000 O   0  0  0  0  0  0  0  0  0  0  0  0
   -7.2253    2.0371    0.0000 C   0  0  0  0  0  0  0  0  0  0  0  0
   -8.6027    1.4432    0.0000 C   0  0  0  0  0  0  0  0  0  0  0  0
   -5.8479    2.6309    0.0000 C   0  0  0  0  0  0  0  0  0  0  0  0
   -7.8192    3.4145    0.0000 O   0  0  0  0  0  0  0  0  0  0  0  0
   -0.9742   -2.6184    0.0000 C   0  0  0  0  0  0  0  0  0  0  0  0
   -0.2396   -3.9262    0.0000 C   0  0  0  0  0  0  0  0  0  0  0  0
    1.2312   -3.6317    0.0000 C   0  0  0  0  0  0  0  0  0  0  0  0
    1.4056   -2.1419    0.0000 C   0  0  0  0  0  0  0  0  0  0  0  0
    2.6295   -1.2746    0.0000 C   0  0  0  0  0  0  0  0  0  0  0  0
    3.9925   -1.9008    0.0000 C   0  0  0  0  0  0  0  0  0  0  0  0
    4.1317   -3.3944    0.0000 O   0  0  0  0  0  0  0  0  0  0  0  0
    5.2163   -1.0336    0.0000 C   0  0  0  0  0  0  0  0  0  0  0  0
    5.0772    0.4600    0.0000 C   0  0  0  0  0  0  0  0  0  0  0  0
    6.3010    1.3273    0.0000 C   0  0  0  0  0  0  0  0  0  0  0  0
    6.1619    2.8208    0.0000 C   0  0  0  0  0  0  0  0  0  0  0  0
    7.3857    3.6881    0.0000 O   0  0  0  0  0  0  0  0  0  0  0  0
    4.7989    3.4470    0.0000 C   0  0  0  0  0  0  0  0  0  0  0  0
    3.5750    2.5798    0.0000 C   0  0  0  0  0  0  0  0  0  0  0  0
    3.7142    1.0862    0.0000 C   0  0  0  0  0  0  0  0  0  0  0  0
    2.3511    1.7125    0.0000 C   0  0  0  0  0  0  0  0  0  0  0  0
    2.4903    0.2189    0.0000 C   0  0  0  0  0  0  0  0  0  0  0  0
    1.1273    0.8452    0.0000 C   0  0  0  0  0  0  0  0  0  0  0  0
   -0.0966   -0.0221    0.0000 C   0  0  0  0  0  0  0  0  0  0  0  0
    0.0426   -1.5156    0.0000 C   0  0  0  0  0  0  0  0  0  0  0  0
   -1.3784   -1.0353    0.0000 C   0  0  0  0  0  0  0  0  0  0  0  0
  2  1  1  6
  2  3  1  0
  3  4  1  0
  4  5  1  0
  5  6  2  0
  5  7  1  0
  7  8  1  0
  8  9  1  0
  8 10  1  0
  8 11  1  0
  2 12  1  0
 12 13  1  6
 13 14  1  0
 15 14  1  6
 15 16  1  0
 16 17  1  1
 17 18  1  1
 17 19  1  0
 20 19  1  1
 20 21  1  0
 21 22  1  0
 22 23  1  1
 22 24  1  0
 24 25  1  0
 25 26  1  0
 26 27  1  6
 26 28  1  0
 28 29  1  6
 29 30  1  0
 30 31  1  0
 31 32  1  6
 31 12  1  0
 31 15  1  0
 28 16  1  0
 26 20  1  0
M  END
>  <MS_ID>  (409) 
MS0430

>  <SMILES>  (409) 
C[C@H](CCC(=O)OC(C)(C)O)[C@H]1CC[C@H]2[C@@H]3[C@H](O)C[C@@H]4C[C@H](O)CC[C@]4(C)[C@H]3CC[C@]12C

>  <Structure_dimension>  (409) 
2D

$$$$
MS0431
     RDKit          2D

 33 36  0  0  0  0  0  0  0  0999 V2000
   -3.0978   -3.6919    0.0000 C   0  0  0  0  0  0  0  0  0  0  0  0
   -2.2201   -2.4755    0.0000 C   0  0  0  0  0  0  0  0  0  0  0  0
   -2.8347   -1.1072    0.0000 C   0  0  0  0  0  0  0  0  0  0  0  0
   -4.3270   -0.9552    0.0000 C   0  0  0  0  0  0  0  0  0  0  0  0
   -4.9416    0.4131    0.0000 C   0  0  0  0  0  0  0  0  0  0  0  0
   -4.0639    1.6295    0.0000 O   0  0  0  0  0  0  0  0  0  0  0  0
   -6.4339    0.5650    0.0000 O   0  0  0  0  0  0  0  0  0  0  0  0
   -7.0484    1.9333    0.0000 C   0  0  0  0  0  0  0  0  0  0  0  0
   -8.5407    2.0852    0.0000 C   0  0  0  0  0  0  0  0  0  0  0  0
   -9.4184    0.8688    0.0000 O   0  0  0  0  0  0  0  0  0  0  0  0
   -9.1553    3.4535    0.0000 O   0  0  0  0  0  0  0  0  0  0  0  0
   -0.7278   -2.6274    0.0000 C   0  0  0  0  0  0  0  0  0  0  0  0
    0.0264   -3.9240    0.0000 C   0  0  0  0  0  0  0  0  0  0  0  0
    1.4926   -3.6073    0.0000 C   0  0  0  0  0  0  0  0  0  0  0  0
    1.6445   -2.1150    0.0000 C   0  0  0  0  0  0  0  0  0  0  0  0
    2.8552   -1.2294    0.0000 C   0  0  0  0  0  0  0  0  0  0  0  0
    4.2275   -1.8350    0.0000 C   0  0  0  0  0  0  0  0  0  0  0  0
    4.3891   -3.3263    0.0000 O   0  0  0  0  0  0  0  0  0  0  0  0
    5.4381   -0.9494    0.0000 C   0  0  0  0  0  0  0  0  0  0  0  0
    5.2764    0.5419    0.0000 C   0  0  0  0  0  0  0  0  0  0  0  0
    6.4871    1.4275    0.0000 C   0  0  0  0  0  0  0  0  0  0  0  0
    6.3254    2.9188    0.0000 C   0  0  0  0  0  0  0  0  0  0  0  0
    7.5360    3.8044    0.0000 O   0  0  0  0  0  0  0  0  0  0  0  0
    4.9531    3.5244    0.0000 C   0  0  0  0  0  0  0  0  0  0  0  0
    3.7425    2.6388    0.0000 C   0  0  0  0  0  0  0  0  0  0  0  0
    3.9041    1.1475    0.0000 C   0  0  0  0  0  0  0  0  0  0  0  0
    2.5318    1.7531    0.0000 C   0  0  0  0  0  0  0  0  0  0  0  0
    2.6935    0.2619    0.0000 C   0  0  0  0  0  0  0  0  0  0  0  0
    1.3212    0.8675    0.0000 C   0  0  0  0  0  0  0  0  0  0  0  0
    0.1105   -0.0181    0.0000 C   0  0  0  0  0  0  0  0  0  0  0  0
   -1.2618    0.5875    0.0000 O   0  0  0  0  0  0  0  0  0  0  0  0
    0.2722   -1.5094    0.0000 C   0  0  0  0  0  0  0  0  0  0  0  0
   -1.1559   -1.0505    0.0000 C   0  0  0  0  0  0  0  0  0  0  0  0
  2  1  1  6
  2  3  1  0
  3  4  1  0
  4  5  1  0
  5  6  2  0
  5  7  1  0
  7  8  1  0
  8  9  1  0
  9 10  2  0
  9 11  1  0
  2 12  1  0
 12 13  1  6
 13 14  1  0
 15 14  1  6
 15 16  1  0
 16 17  1  1
 17 18  1  1
 17 19  1  0
 20 19  1  1
 20 21  1  0
 21 22  1  0
 22 23  1  1
 22 24  1  0
 24 25  1  0
 25 26  1  0
 26 27  1  6
 26 28  1  0
 28 29  1  6
 29 30  1  0
 30 31  1  1
 30 32  1  0
 32 33  1  6
 32 12  1  0
 32 15  1  0
 28 16  1  0
 26 20  1  0
M  END
>  <MS_ID>  (410) 
MS0431

>  <SMILES>  (410) 
C[C@H](CCC(=O)OCC(=O)O)[C@H]1CC[C@H]2[C@@H]3[C@H](O)C[C@@H]4C[C@H](O)CC[C@]4(C)[C@H]3C[C@H](O)[C@]12C

>  <Structure_dimension>  (410) 
2D

$$$$
MS0432
     RDKit          2D

 35 39  0  0  0  0  0  0  0  0999 V2000
   -2.7184   -3.4912    0.0000 C   0  0  0  0  0  0  0  0  0  0  0  0
   -1.7962   -2.3082    0.0000 C   0  0  0  0  0  0  0  0  0  0  0  0
   -2.3597   -0.9180    0.0000 C   0  0  0  0  0  0  0  0  0  0  0  0
   -3.8454   -0.7110    0.0000 C   0  0  0  0  0  0  0  0  0  0  0  0
   -4.4088    0.6792    0.0000 C   0  0  0  0  0  0  0  0  0  0  0  0
   -3.4867    1.8622    0.0000 O   0  0  0  0  0  0  0  0  0  0  0  0
   -5.8945    0.8862    0.0000 C   0  0  0  0  0  0  0  0  0  0  0  0
   -6.4580    2.2764    0.0000 C   0  0  0  0  0  0  0  0  0  0  0  0
   -7.9436    2.4834    0.0000 C   0  0  0  0  0  0  0  0  0  0  0  0
   -8.8658    1.3004    0.0000 C   0  0  0  0  0  0  0  0  0  0  0  0
  -10.3514    1.5075    0.0000 O   0  0  0  0  0  0  0  0  0  0  0  0
   -8.3023   -0.0898    0.0000 C   0  0  0  0  0  0  0  0  0  0  0  0
   -6.8166   -0.2968    0.0000 C   0  0  0  0  0  0  0  0  0  0  0  0
   -0.3106   -2.5152    0.0000 C   0  0  0  0  0  0  0  0  0  0  0  0
    0.3951   -3.8389    0.0000 C   0  0  0  0  0  0  0  0  0  0  0  0
    1.8720   -3.5767    0.0000 C   0  0  0  0  0  0  0  0  0  0  0  0
    2.0791   -2.0911    0.0000 C   0  0  0  0  0  0  0  0  0  0  0  0
    3.3217   -1.2509    0.0000 C   0  0  0  0  0  0  0  0  0  0  0  0
    4.6707   -1.9069    0.0000 C   0  0  0  0  0  0  0  0  0  0  0  0
    4.7770   -3.4031    0.0000 O   0  0  0  0  0  0  0  0  0  0  0  0
    5.9133   -1.0667    0.0000 C   0  0  0  0  0  0  0  0  0  0  0  0
    5.8069    0.4296    0.0000 C   0  0  0  0  0  0  0  0  0  0  0  0
    7.0495    1.2698    0.0000 C   0  0  0  0  0  0  0  0  0  0  0  0
    6.9432    2.7660    0.0000 C   0  0  0  0  0  0  0  0  0  0  0  0
    8.1858    3.6062    0.0000 O   0  0  0  0  0  0  0  0  0  0  0  0
    5.5942    3.4220    0.0000 C   0  0  0  0  0  0  0  0  0  0  0  0
    4.3516    2.5818    0.0000 C   0  0  0  0  0  0  0  0  0  0  0  0
    4.4580    1.0856    0.0000 C   0  0  0  0  0  0  0  0  0  0  0  0
    3.1090    1.7416    0.0000 C   0  0  0  0  0  0  0  0  0  0  0  0
    3.2154    0.2454    0.0000 C   0  0  0  0  0  0  0  0  0  0  0  0
    1.8664    0.9014    0.0000 C   0  0  0  0  0  0  0  0  0  0  0  0
    0.6238    0.0612    0.0000 C   0  0  0  0  0  0  0  0  0  0  0  0
   -0.7251    0.7172    0.0000 O   0  0  0  0  0  0  0  0  0  0  0  0
    0.7302   -1.4350    0.0000 C   0  0  0  0  0  0  0  0  0  0  0  0
   -0.6799   -0.9236    0.0000 C   0  0  0  0  0  0  0  0  0  0  0  0
  2  1  1  6
  2  3  1  0
  3  4  1  0
  4  5  1  0
  5  6  2  0
  5  7  1  0
  7  8  2  0
  8  9  1  0
  9 10  2  0
 10 11  1  0
 10 12  1  0
 12 13  2  0
  2 14  1  0
 14 15  1  6
 15 16  1  0
 17 16  1  6
 17 18  1  0
 18 19  1  1
 19 20  1  1
 19 21  1  0
 22 21  1  1
 22 23  1  0
 23 24  1  0
 24 25  1  1
 24 26  1  0
 26 27  1  0
 27 28  1  0
 28 29  1  6
 28 30  1  0
 30 31  1  6
 31 32  1  0
 32 33  1  1
 32 34  1  0
 34 35  1  6
 13  7  1  0
 34 14  1  0
 34 17  1  0
 30 18  1  0
 28 22  1  0
M  END
>  <MS_ID>  (411) 
MS0432

>  <SMILES>  (411) 
C[C@H](CCC(=O)c1ccc(O)cc1)[C@H]1CC[C@H]2[C@@H]3[C@H](O)C[C@@H]4C[C@H](O)CC[C@]4(C)[C@H]3C[C@H](O)[C@]12C

>  <Structure_dimension>  (411) 
2D

$$$$
MS0433
     RDKit          2D

 34 37  0  0  0  0  0  0  0  0999 V2000
   -8.6089    2.4497    0.0000 C   0  0  0  0  0  0  0  0  0  0  0  0
   -7.9702    1.0925    0.0000 O   0  0  0  0  0  0  0  0  0  0  0  0
   -6.4754    0.9671    0.0000 C   0  0  0  0  0  0  0  0  0  0  0  0
   -5.6194    2.1989    0.0000 O   0  0  0  0  0  0  0  0  0  0  0  0
   -5.8366   -0.3901    0.0000 C   0  0  0  0  0  0  0  0  0  0  0  0
   -4.3419   -0.5155    0.0000 C   0  0  0  0  0  0  0  0  0  0  0  0
   -3.7031   -1.8727    0.0000 C   0  0  0  0  0  0  0  0  0  0  0  0
   -4.5591   -3.1044    0.0000 C   0  0  0  0  0  0  0  0  0  0  0  0
   -2.2084   -1.9981    0.0000 C   0  0  0  0  0  0  0  0  0  0  0  0
   -1.4312   -3.2811    0.0000 C   0  0  0  0  0  0  0  0  0  0  0  0
    0.0291   -2.9384    0.0000 C   0  0  0  0  0  0  0  0  0  0  0  0
    0.1545   -1.4437    0.0000 C   0  0  0  0  0  0  0  0  0  0  0  0
    1.3492   -0.5367    0.0000 C   0  0  0  0  0  0  0  0  0  0  0  0
    2.7321   -1.1179    0.0000 C   0  0  0  0  0  0  0  0  0  0  0  0
    2.9202   -2.6060    0.0000 O   0  0  0  0  0  0  0  0  0  0  0  0
    4.3030   -3.1872    0.0000 S   0  0  0  0  0  0  0  0  0  0  0  0
    4.8842   -1.8043    0.0000 O   0  0  0  0  0  0  0  0  0  0  0  0
    3.7218   -4.5700    0.0000 O   0  0  0  0  0  0  0  0  0  0  0  0
    5.6859   -3.7684    0.0000 O   0  0  0  0  0  0  0  0  0  0  0  0
    3.9268   -0.2109    0.0000 C   0  0  0  0  0  0  0  0  0  0  0  0
    3.7387    1.2773    0.0000 C   0  0  0  0  0  0  0  0  0  0  0  0
    4.9334    2.1843    0.0000 C   0  0  0  0  0  0  0  0  0  0  0  0
    4.7453    3.6724    0.0000 C   0  0  0  0  0  0  0  0  0  0  0  0
    5.9400    4.5794    0.0000 O   0  0  0  0  0  0  0  0  0  0  0  0
    3.3625    4.2536    0.0000 C   0  0  0  0  0  0  0  0  0  0  0  0
    2.1677    3.3466    0.0000 C   0  0  0  0  0  0  0  0  0  0  0  0
    2.3559    1.8585    0.0000 C   0  0  0  0  0  0  0  0  0  0  0  0
    0.9730    2.4396    0.0000 C   0  0  0  0  0  0  0  0  0  0  0  0
    1.1611    0.9515    0.0000 C   0  0  0  0  0  0  0  0  0  0  0  0
   -0.2217    1.5326    0.0000 C   0  0  0  0  0  0  0  0  0  0  0  0
   -1.4164    0.6257    0.0000 C   0  0  0  0  0  0  0  0  0  0  0  0
   -2.7993    1.2068    0.0000 O   0  0  0  0  0  0  0  0  0  0  0  0
   -1.2283   -0.8625    0.0000 C   0  0  0  0  0  0  0  0  0  0  0  0
   -2.6643   -0.4291    0.0000 C   0  0  0  0  0  0  0  0  0  0  0  0
  1  2  1  0
  2  3  1  0
  3  4  2  0
  3  5  1  0
  5  6  1  0
  6  7  1  0
  7  8  1  6
  7  9  1  0
  9 10  1  6
 10 11  1  0
 12 11  1  6
 12 13  1  0
 13 14  1  1
 14 15  1  1
 15 16  1  0
 16 17  2  0
 16 18  2  0
 16 19  1  0
 14 20  1  0
 21 20  1  1
 21 22  1  0
 22 23  1  0
 23 24  1  1
 23 25  1  0
 25 26  1  0
 26 27  1  0
 27 28  1  6
 27 29  1  0
 29 30  1  6
 30 31  1  0
 31 32  1  1
 31 33  1  0
 33 34  1  6
 33  9  1  0
 33 12  1  0
 29 13  1  0
 27 21  1  0
M  END
>  <MS_ID>  (412) 
MS0433

>  <SMILES>  (412) 
COC(=O)CC[C@@H](C)[C@H]1CC[C@H]2[C@@H]3[C@H](OS(=O)(=O)O)C[C@@H]4C[C@H](O)CC[C@]4(C)[C@H]3C[C@H](O)[C@]12C

>  <Structure_dimension>  (412) 
2D

$$$$
MS0434
     RDKit          2D

 28 31  0  0  0  0  0  0  0  0999 V2000
   -4.6352   -2.6140    0.0000 C   0  0  0  0  0  0  0  0  0  0  0  0
   -3.5136   -1.6180    0.0000 C   0  0  0  0  0  0  0  0  0  0  0  0
   -3.8154   -0.1486    0.0000 C   0  0  0  0  0  0  0  0  0  0  0  0
   -5.2387    0.3247    0.0000 C   0  0  0  0  0  0  0  0  0  0  0  0
   -5.5405    1.7940    0.0000 C   0  0  0  0  0  0  0  0  0  0  0  0
   -4.4189    2.7900    0.0000 O   0  0  0  0  0  0  0  0  0  0  0  0
   -6.9639    2.2673    0.0000 C   0  0  0  0  0  0  0  0  0  0  0  0
   -7.2657    3.7367    0.0000 O   0  0  0  0  0  0  0  0  0  0  0  0
   -2.0902   -2.0913    0.0000 C   0  0  0  0  0  0  0  0  0  0  0  0
   -1.6365   -3.5210    0.0000 C   0  0  0  0  0  0  0  0  0  0  0  0
   -0.1366   -3.5313    0.0000 C   0  0  0  0  0  0  0  0  0  0  0  0
    0.3368   -2.1080    0.0000 C   0  0  0  0  0  0  0  0  0  0  0  0
    1.7112   -1.5073    0.0000 C   0  0  0  0  0  0  0  0  0  0  0  0
    2.9187   -2.3973    0.0000 C   0  0  0  0  0  0  0  0  0  0  0  0
    4.2932   -1.7966    0.0000 C   0  0  0  0  0  0  0  0  0  0  0  0
    4.4602   -0.3060    0.0000 C   0  0  0  0  0  0  0  0  0  0  0  0
    5.8347    0.2947    0.0000 C   0  0  0  0  0  0  0  0  0  0  0  0
    6.0017    1.7854    0.0000 C   0  0  0  0  0  0  0  0  0  0  0  0
    7.3762    2.3861    0.0000 O   0  0  0  0  0  0  0  0  0  0  0  0
    4.7943    2.6754    0.0000 C   0  0  0  0  0  0  0  0  0  0  0  0
    3.4198    2.0747    0.0000 C   0  0  0  0  0  0  0  0  0  0  0  0
    3.2528    0.5840    0.0000 C   0  0  0  0  0  0  0  0  0  0  0  0
    2.0453    1.4740    0.0000 C   0  0  0  0  0  0  0  0  0  0  0  0
    1.8783   -0.0166    0.0000 C   0  0  0  0  0  0  0  0  0  0  0  0
    0.6708    0.8734    0.0000 C   0  0  0  0  0  0  0  0  0  0  0  0
   -0.7036    0.2727    0.0000 C   0  0  0  0  0  0  0  0  0  0  0  0
   -0.8707   -1.2180    0.0000 C   0  0  0  0  0  0  0  0  0  0  0  0
   -2.1645   -0.4591    0.0000 C   0  0  0  0  0  0  0  0  0  0  0  0
  2  1  1  6
  2  3  1  0
  3  4  1  0
  4  5  1  0
  5  6  2  0
  5  7  1  0
  7  8  1  0
  2  9  1  0
  9 10  1  6
 10 11  1  0
 12 11  1  6
 12 13  1  0
 13 14  1  1
 14 15  1  0
 16 15  1  1
 16 17  1  0
 17 18  1  0
 18 19  1  6
 18 20  1  0
 20 21  1  0
 21 22  1  0
 22 23  1  6
 22 24  1  0
 24 25  1  6
 25 26  1  0
 26 27  1  0
 27 28  1  6
 27  9  1  0
 27 12  1  0
 24 13  1  0
 22 16  1  0
M  END
>  <MS_ID>  (413) 
MS0434

>  <SMILES>  (413) 
C[C@H](CCC(=O)CO)[C@H]1CC[C@H]2[C@@H]3CC[C@@H]4C[C@@H](O)CC[C@]4(C)[C@H]3CC[C@]12C

>  <Structure_dimension>  (413) 
2D

$$$$
MS0435
     RDKit          2D

 27 30  0  0  0  0  0  0  0  0999 V2000
   -7.2062    3.4054    0.0000 C   0  0  0  0  0  0  0  0  0  0  0  0
   -6.8181    1.9564    0.0000 O   0  0  0  0  0  0  0  0  0  0  0  0
   -5.3693    1.5680    0.0000 C   0  0  0  0  0  0  0  0  0  0  0  0
   -4.3085    2.6285    0.0000 O   0  0  0  0  0  0  0  0  0  0  0  0
   -4.9813    0.1191    0.0000 C   0  0  0  0  0  0  0  0  0  0  0  0
   -3.5324   -0.2694    0.0000 C   0  0  0  0  0  0  0  0  0  0  0  0
   -3.1444   -1.7183    0.0000 C   0  0  0  0  0  0  0  0  0  0  0  0
   -4.2052   -2.7788    0.0000 C   0  0  0  0  0  0  0  0  0  0  0  0
   -1.6956   -2.1067    0.0000 C   0  0  0  0  0  0  0  0  0  0  0  0
   -1.1582   -3.5072    0.0000 C   0  0  0  0  0  0  0  0  0  0  0  0
    0.3397   -3.4289    0.0000 C   0  0  0  0  0  0  0  0  0  0  0  0
    0.7282   -1.9801    0.0000 C   0  0  0  0  0  0  0  0  0  0  0  0
    2.0648   -1.2993    0.0000 C   0  0  0  0  0  0  0  0  0  0  0  0
    3.3227   -2.1164    0.0000 C   0  0  0  0  0  0  0  0  0  0  0  0
    4.6593   -1.4356    0.0000 C   0  0  0  0  0  0  0  0  0  0  0  0
    4.7380    0.0623    0.0000 C   0  0  0  0  0  0  0  0  0  0  0  0
    6.0746    0.7431    0.0000 C   0  0  0  0  0  0  0  0  0  0  0  0
    6.1533    2.2411    0.0000 C   0  0  0  0  0  0  0  0  0  0  0  0
    4.8954    3.0582    0.0000 C   0  0  0  0  0  0  0  0  0  0  0  0
    3.5588    2.3774    0.0000 C   0  0  0  0  0  0  0  0  0  0  0  0
    3.4801    0.8795    0.0000 C   0  0  0  0  0  0  0  0  0  0  0  0
    2.2222    1.6966    0.0000 C   0  0  0  0  0  0  0  0  0  0  0  0
    2.1435    0.1987    0.0000 C   0  0  0  0  0  0  0  0  0  0  0  0
    0.8856    1.0158    0.0000 C   0  0  0  0  0  0  0  0  0  0  0  0
   -0.4510    0.3350    0.0000 C   0  0  0  0  0  0  0  0  0  0  0  0
   -0.5297   -1.1629    0.0000 C   0  0  0  0  0  0  0  0  0  0  0  0
   -1.8661   -0.4817    0.0000 C   0  0  0  0  0  0  0  0  0  0  0  0
  1  2  1  0
  2  3  1  0
  3  4  2  0
  3  5  1  0
  5  6  1  0
  6  7  1  0
  7  8  1  6
  7  9  1  0
  9 10  1  6
 10 11  1  0
 12 11  1  6
 12 13  1  0
 13 14  1  1
 14 15  1  0
 16 15  1  1
 16 17  1  0
 17 18  1  0
 18 19  1  0
 19 20  1  0
 20 21  1  0
 21 22  1  6
 21 23  1  0
 23 24  1  6
 24 25  1  0
 25 26  1  0
 26 27  1  6
 26  9  1  0
 26 12  1  0
 23 13  1  0
 21 16  1  0
M  END
>  <MS_ID>  (414) 
MS0435

>  <SMILES>  (414) 
COC(=O)CC[C@@H](C)[C@H]1CC[C@H]2[C@@H]3CC[C@@H]4CCCC[C@]4(C)[C@H]3CC[C@]12C

>  <Structure_dimension>  (414) 
2D

$$$$
MS0436
     RDKit          2D

 28 31  0  0  0  0  0  0  0  0999 V2000
   -5.0096   -2.1352    0.0000 C   0  0  0  0  0  0  0  0  0  0  0  0
   -3.8132   -1.2303    0.0000 C   0  0  0  0  0  0  0  0  0  0  0  0
   -3.9987    0.2582    0.0000 C   0  0  0  0  0  0  0  0  0  0  0  0
   -5.3805    0.8418    0.0000 C   0  0  0  0  0  0  0  0  0  0  0  0
   -5.5659    2.3303    0.0000 C   0  0  0  0  0  0  0  0  0  0  0  0
   -6.9477    2.9140    0.0000 O   0  0  0  0  0  0  0  0  0  0  0  0
   -4.3695    3.2351    0.0000 F   0  0  0  0  0  0  0  0  0  0  0  0
   -2.4315   -1.8140    0.0000 C   0  0  0  0  0  0  0  0  0  0  0  0
   -2.0914   -3.2749    0.0000 C   0  0  0  0  0  0  0  0  0  0  0  0
   -0.5969   -3.4030    0.0000 C   0  0  0  0  0  0  0  0  0  0  0  0
   -0.0133   -2.0212    0.0000 C   0  0  0  0  0  0  0  0  0  0  0  0
    1.4041   -1.5304    0.0000 C   0  0  0  0  0  0  0  0  0  0  0  0
    2.5379   -2.5125    0.0000 C   0  0  0  0  0  0  0  0  0  0  0  0
    3.9554   -2.0216    0.0000 C   0  0  0  0  0  0  0  0  0  0  0  0
    4.2390   -0.5487    0.0000 C   0  0  0  0  0  0  0  0  0  0  0  0
    5.6564   -0.0578    0.0000 C   0  0  0  0  0  0  0  0  0  0  0  0
    5.9400    1.4151    0.0000 C   0  0  0  0  0  0  0  0  0  0  0  0
    7.3574    1.9060    0.0000 O   0  0  0  0  0  0  0  0  0  0  0  0
    4.8062    2.3972    0.0000 C   0  0  0  0  0  0  0  0  0  0  0  0
    3.3888    1.9064    0.0000 C   0  0  0  0  0  0  0  0  0  0  0  0
    3.1052    0.4334    0.0000 C   0  0  0  0  0  0  0  0  0  0  0  0
    1.9714    1.4155    0.0000 C   0  0  0  0  0  0  0  0  0  0  0  0
    1.6878   -0.0574    0.0000 C   0  0  0  0  0  0  0  0  0  0  0  0
    0.5540    0.9246    0.0000 C   0  0  0  0  0  0  0  0  0  0  0  0
   -0.8635    0.4338    0.0000 C   0  0  0  0  0  0  0  0  0  0  0  0
   -1.9973    1.4159    0.0000 O   0  0  0  0  0  0  0  0  0  0  0  0
   -1.1471   -1.0392    0.0000 C   0  0  0  0  0  0  0  0  0  0  0  0
   -2.3773   -0.1810    0.0000 C   0  0  0  0  0  0  0  0  0  0  0  0
  2  1  1  6
  2  3  1  0
  3  4  1  0
  4  5  1  0
  5  6  2  0
  5  7  1  0
  2  8  1  0
  8  9  1  6
  9 10  1  0
 11 10  1  6
 11 12  1  0
 12 13  1  1
 13 14  1  0
 15 14  1  1
 15 16  1  0
 16 17  1  0
 17 18  1  1
 17 19  1  0
 19 20  1  0
 20 21  1  0
 21 22  1  6
 21 23  1  0
 23 24  1  6
 24 25  1  0
 25 26  1  6
 25 27  1  0
 27 28  1  6
 27  8  1  0
 27 11  1  0
 23 12  1  0
 21 15  1  0
M  END
>  <MS_ID>  (415) 
MS0436

>  <SMILES>  (415) 
C[C@H](CCC(=O)F)[C@H]1CC[C@H]2[C@@H]3CC[C@@H]4C[C@H](O)CC[C@]4(C)[C@H]3C[C@@H](O)[C@]12C

>  <Structure_dimension>  (415) 
2D

$$$$
MS0437
     RDKit          2D

 28 31  0  0  0  0  0  0  0  0999 V2000
   -5.0096   -2.1352    0.0000 C   0  0  0  0  0  0  0  0  0  0  0  0
   -3.8132   -1.2303    0.0000 C   0  0  0  0  0  0  0  0  0  0  0  0
   -3.9987    0.2582    0.0000 C   0  0  0  0  0  0  0  0  0  0  0  0
   -5.3805    0.8418    0.0000 C   0  0  0  0  0  0  0  0  0  0  0  0
   -5.5659    2.3303    0.0000 C   0  0  0  0  0  0  0  0  0  0  0  0
   -6.9477    2.9140    0.0000 O   0  0  0  0  0  0  0  0  0  0  0  0
   -4.3695    3.2351    0.0000 F   0  0  0  0  0  0  0  0  0  0  0  0
   -2.4315   -1.8140    0.0000 C   0  0  0  0  0  0  0  0  0  0  0  0
   -2.0914   -3.2749    0.0000 C   0  0  0  0  0  0  0  0  0  0  0  0
   -0.5969   -3.4030    0.0000 C   0  0  0  0  0  0  0  0  0  0  0  0
   -0.0133   -2.0212    0.0000 C   0  0  0  0  0  0  0  0  0  0  0  0
    1.4041   -1.5304    0.0000 C   0  0  0  0  0  0  0  0  0  0  0  0
    2.5379   -2.5125    0.0000 C   0  0  0  0  0  0  0  0  0  0  0  0
    3.9554   -2.0216    0.0000 C   0  0  0  0  0  0  0  0  0  0  0  0
    4.2390   -0.5487    0.0000 C   0  0  0  0  0  0  0  0  0  0  0  0
    5.6564   -0.0578    0.0000 C   0  0  0  0  0  0  0  0  0  0  0  0
    5.9400    1.4151    0.0000 C   0  0  0  0  0  0  0  0  0  0  0  0
    7.3574    1.9060    0.0000 O   0  0  0  0  0  0  0  0  0  0  0  0
    4.8062    2.3972    0.0000 C   0  0  0  0  0  0  0  0  0  0  0  0
    3.3888    1.9064    0.0000 C   0  0  0  0  0  0  0  0  0  0  0  0
    3.1052    0.4334    0.0000 C   0  0  0  0  0  0  0  0  0  0  0  0
    1.9714    1.4155    0.0000 C   0  0  0  0  0  0  0  0  0  0  0  0
    1.6878   -0.0574    0.0000 C   0  0  0  0  0  0  0  0  0  0  0  0
    0.5540    0.9246    0.0000 C   0  0  0  0  0  0  0  0  0  0  0  0
   -0.8635    0.4338    0.0000 C   0  0  0  0  0  0  0  0  0  0  0  0
   -1.9973    1.4159    0.0000 O   0  0  0  0  0  0  0  0  0  0  0  0
   -1.1471   -1.0392    0.0000 C   0  0  0  0  0  0  0  0  0  0  0  0
   -2.3773   -0.1810    0.0000 C   0  0  0  0  0  0  0  0  0  0  0  0
  2  1  1  6
  2  3  1  0
  3  4  1  0
  4  5  1  0
  5  6  2  0
  5  7  1  0
  2  8  1  0
  8  9  1  6
  9 10  1  0
 11 10  1  6
 11 12  1  0
 12 13  1  1
 13 14  1  0
 15 14  1  1
 15 16  1  0
 16 17  1  0
 17 18  1  6
 17 19  1  0
 19 20  1  0
 20 21  1  0
 21 22  1  6
 21 23  1  0
 23 24  1  6
 24 25  1  0
 25 26  1  6
 25 27  1  0
 27 28  1  6
 27  8  1  0
 27 11  1  0
 23 12  1  0
 21 15  1  0
M  END
>  <MS_ID>  (416) 
MS0437

>  <SMILES>  (416) 
C[C@H](CCC(=O)F)[C@H]1CC[C@H]2[C@@H]3CC[C@@H]4C[C@@H](O)CC[C@]4(C)[C@H]3C[C@@H](O)[C@]12C

>  <Structure_dimension>  (416) 
2D

$$$$
MS0438
     RDKit          2D

 30 33  0  0  0  0  0  0  0  0999 V2000
   -4.7023   -2.6242    0.0000 C   0  0  0  0  0  0  0  0  0  0  0  0
   -3.5985   -1.6085    0.0000 C   0  0  0  0  0  0  0  0  0  0  0  0
   -3.9263   -0.1448    0.0000 C   0  0  0  0  0  0  0  0  0  0  0  0
   -5.3578    0.3033    0.0000 C   0  0  0  0  0  0  0  0  0  0  0  0
   -5.6855    1.7670    0.0000 C   0  0  0  0  0  0  0  0  0  0  0  0
   -7.1171    2.2151    0.0000 O   0  0  0  0  0  0  0  0  0  0  0  0
   -4.5818    2.7827    0.0000 O   0  0  0  0  0  0  0  0  0  0  0  0
   -4.9095    4.2465    0.0000 O   0  0  0  0  0  0  0  0  0  0  0  0
   -2.1670   -2.0566    0.0000 C   0  0  0  0  0  0  0  0  0  0  0  0
   -1.6881   -3.4780    0.0000 C   0  0  0  0  0  0  0  0  0  0  0  0
   -0.1881   -3.4618    0.0000 C   0  0  0  0  0  0  0  0  0  0  0  0
    0.2599   -2.0303    0.0000 C   0  0  0  0  0  0  0  0  0  0  0  0
    1.6235   -1.4054    0.0000 C   0  0  0  0  0  0  0  0  0  0  0  0
    2.8465   -2.2738    0.0000 C   0  0  0  0  0  0  0  0  0  0  0  0
    2.7059   -3.7672    0.0000 O   0  0  0  0  0  0  0  0  0  0  0  0
    4.2102   -1.6489    0.0000 C   0  0  0  0  0  0  0  0  0  0  0  0
    4.3508   -0.1555    0.0000 C   0  0  0  0  0  0  0  0  0  0  0  0
    5.7144    0.4694    0.0000 C   0  0  0  0  0  0  0  0  0  0  0  0
    5.8550    1.9628    0.0000 C   0  0  0  0  0  0  0  0  0  0  0  0
    7.2187    2.5877    0.0000 O   0  0  0  0  0  0  0  0  0  0  0  0
    4.6320    2.8313    0.0000 C   0  0  0  0  0  0  0  0  0  0  0  0
    3.2684    2.2063    0.0000 C   0  0  0  0  0  0  0  0  0  0  0  0
    3.1278    0.7130    0.0000 C   0  0  0  0  0  0  0  0  0  0  0  0
    1.9048    1.5814    0.0000 C   0  0  0  0  0  0  0  0  0  0  0  0
    1.7642    0.0880    0.0000 C   0  0  0  0  0  0  0  0  0  0  0  0
    0.5411    0.9565    0.0000 C   0  0  0  0  0  0  0  0  0  0  0  0
   -0.8225    0.3316    0.0000 C   0  0  0  0  0  0  0  0  0  0  0  0
   -2.0455    1.2001    0.0000 O   0  0  0  0  0  0  0  0  0  0  0  0
   -0.9631   -1.1618    0.0000 C   0  0  0  0  0  0  0  0  0  0  0  0
   -2.2702   -0.4259    0.0000 C   0  0  0  0  0  0  0  0  0  0  0  0
  2  1  1  6
  2  3  1  0
  3  4  1  0
  4  5  1  0
  5  6  2  0
  5  7  1  0
  7  8  1  0
  2  9  1  0
  9 10  1  6
 10 11  1  0
 12 11  1  6
 12 13  1  0
 13 14  1  1
 14 15  1  6
 14 16  1  0
 17 16  1  1
 17 18  1  0
 18 19  1  0
 19 20  1  6
 19 21  1  0
 21 22  1  0
 22 23  1  0
 23 24  1  6
 23 25  1  0
 25 26  1  6
 26 27  1  0
 27 28  1  1
 27 29  1  0
 29 30  1  6
 29  9  1  0
 29 12  1  0
 25 13  1  0
 23 17  1  0
M  END
>  <MS_ID>  (417) 
MS0438

>  <SMILES>  (417) 
C[C@H](CCC(=O)OO)[C@H]1CC[C@H]2[C@@H]3[C@@H](O)C[C@@H]4C[C@@H](O)CC[C@]4(C)[C@H]3C[C@H](O)[C@]12C

>  <Structure_dimension>  (417) 
2D

$$$$
MS0439
     RDKit          2D

 36 39  0  0  0  0  0  0  0  0999 V2000
   -1.5948   -4.5570    0.0000 C   0  0  0  0  0  0  0  0  0  0  0  0
   -0.8975   -3.2289    0.0000 C   0  0  0  0  0  0  0  0  0  0  0  0
   -1.6991   -1.9610    0.0000 C   0  0  0  0  0  0  0  0  0  0  0  0
   -3.1979   -2.0212    0.0000 C   0  0  0  0  0  0  0  0  0  0  0  0
   -3.9994   -0.7534    0.0000 C   0  0  0  0  0  0  0  0  0  0  0  0
   -3.3022    0.5747    0.0000 O   0  0  0  0  0  0  0  0  0  0  0  0
   -5.4982   -0.8136    0.0000 N   0  0  0  0  0  0  0  0  0  0  0  0
   -6.2998    0.4543    0.0000 C   0  0  0  0  0  0  0  0  0  0  0  0
   -7.7986    0.3940    0.0000 C   0  0  0  0  0  0  0  0  0  0  0  0
   -8.6001    1.6619    0.0000 C   0  0  0  0  0  0  0  0  0  0  0  0
   -7.9029    2.9900    0.0000 O   0  0  0  0  0  0  0  0  0  0  0  0
  -10.0989    1.6017    0.0000 O   0  0  0  0  0  0  0  0  0  0  0  0
   -5.6025    1.7824    0.0000 C   0  0  0  0  0  0  0  0  0  0  0  0
   -4.1038    1.8426    0.0000 O   0  0  0  0  0  0  0  0  0  0  0  0
   -6.4041    3.0502    0.0000 O   0  0  0  0  0  0  0  0  0  0  0  0
    0.6013   -3.1687    0.0000 C   0  0  0  0  0  0  0  0  0  0  0  0
    1.5310   -4.3458    0.0000 C   0  0  0  0  0  0  0  0  0  0  0  0
    2.9378   -3.8254    0.0000 C   0  0  0  0  0  0  0  0  0  0  0  0
    2.8776   -2.3266    0.0000 C   0  0  0  0  0  0  0  0  0  0  0  0
    3.9511   -1.2789    0.0000 C   0  0  0  0  0  0  0  0  0  0  0  0
    5.3951   -1.6848    0.0000 C   0  0  0  0  0  0  0  0  0  0  0  0
    6.4686   -0.6371    0.0000 C   0  0  0  0  0  0  0  0  0  0  0  0
    6.0981    0.8164    0.0000 C   0  0  0  0  0  0  0  0  0  0  0  0
    7.1716    1.8640    0.0000 C   0  0  0  0  0  0  0  0  0  0  0  0
    6.8011    3.3175    0.0000 C   0  0  0  0  0  0  0  0  0  0  0  0
    7.8746    4.3652    0.0000 O   0  0  0  0  0  0  0  0  0  0  0  0
    5.3570    3.7234    0.0000 C   0  0  0  0  0  0  0  0  0  0  0  0
    4.2835    2.6758    0.0000 C   0  0  0  0  0  0  0  0  0  0  0  0
    4.6540    1.2222    0.0000 C   0  0  0  0  0  0  0  0  0  0  0  0
    3.2100    1.6281    0.0000 C   0  0  0  0  0  0  0  0  0  0  0  0
    3.5805    0.1746    0.0000 C   0  0  0  0  0  0  0  0  0  0  0  0
    2.1365    0.5805    0.0000 C   0  0  0  0  0  0  0  0  0  0  0  0
    1.0630   -0.4672    0.0000 C   0  0  0  0  0  0  0  0  0  0  0  0
   -0.3811   -0.0613    0.0000 O   0  0  0  0  0  0  0  0  0  0  0  0
    1.4335   -1.9207    0.0000 C   0  0  0  0  0  0  0  0  0  0  0  0
   -0.0451   -1.6680    0.0000 C   0  0  0  0  0  0  0  0  0  0  0  0
  2  1  1  6
  2  3  1  0
  3  4  1  0
  4  5  1  0
  5  6  2  0
  5  7  1  0
  7  8  1  0
  8  9  1  6
  9 10  1  0
 10 11  2  0
 10 12  1  0
  8 13  1  0
 13 14  2  0
 13 15  1  0
  2 16  1  0
 16 17  1  6
 17 18  1  0
 19 18  1  6
 19 20  1  0
 20 21  1  1
 21 22  1  0
 23 22  1  1
 23 24  1  0
 24 25  1  0
 25 26  1  1
 25 27  1  0
 27 28  1  0
 28 29  1  0
 29 30  1  6
 29 31  1  0
 31 32  1  6
 32 33  1  0
 33 34  1  1
 33 35  1  0
 35 36  1  6
 35 16  1  0
 35 19  1  0
 31 20  1  0
 29 23  1  0
M  END
>  <MS_ID>  (418) 
MS0439

>  <SMILES>  (418) 
C[C@H](CCC(=O)N[C@H](CC(=O)O)C(=O)O)[C@H]1CC[C@H]2[C@@H]3CC[C@@H]4C[C@H](O)CC[C@]4(C)[C@H]3C[C@H](O)[C@]12C

>  <Structure_dimension>  (418) 
2D

$$$$
MS0440
     RDKit          2D

 35 39  0  0  0  0  0  0  0  0999 V2000
   -2.8765   -3.3063    0.0000 C   0  0  0  0  0  0  0  0  0  0  0  0
   -1.9107   -2.1586    0.0000 C   0  0  0  0  0  0  0  0  0  0  0  0
   -2.4217   -0.7484    0.0000 C   0  0  0  0  0  0  0  0  0  0  0  0
   -3.8985   -0.4857    0.0000 C   0  0  0  0  0  0  0  0  0  0  0  0
   -4.4095    0.9245    0.0000 C   0  0  0  0  0  0  0  0  0  0  0  0
   -3.4437    2.0722    0.0000 O   0  0  0  0  0  0  0  0  0  0  0  0
   -5.8863    1.1871    0.0000 C   0  0  0  0  0  0  0  0  0  0  0  0
   -6.3973    2.5974    0.0000 C   0  0  0  0  0  0  0  0  0  0  0  0
   -7.8742    2.8600    0.0000 C   0  0  0  0  0  0  0  0  0  0  0  0
   -8.8400    1.7124    0.0000 C   0  0  0  0  0  0  0  0  0  0  0  0
   -8.3290    0.3021    0.0000 C   0  0  0  0  0  0  0  0  0  0  0  0
   -9.2948   -0.8456    0.0000 O   0  0  0  0  0  0  0  0  0  0  0  0
   -6.8522    0.0395    0.0000 C   0  0  0  0  0  0  0  0  0  0  0  0
   -0.4338   -2.4212    0.0000 C   0  0  0  0  0  0  0  0  0  0  0  0
    0.2218   -3.7704    0.0000 C   0  0  0  0  0  0  0  0  0  0  0  0
    1.7075   -3.5638    0.0000 C   0  0  0  0  0  0  0  0  0  0  0  0
    1.9701   -2.0869    0.0000 C   0  0  0  0  0  0  0  0  0  0  0  0
    3.2433   -1.2939    0.0000 C   0  0  0  0  0  0  0  0  0  0  0  0
    4.5667   -2.0000    0.0000 C   0  0  0  0  0  0  0  0  0  0  0  0
    4.6169   -3.4992    0.0000 O   0  0  0  0  0  0  0  0  0  0  0  0
    5.8399   -1.2070    0.0000 C   0  0  0  0  0  0  0  0  0  0  0  0
    5.7897    0.2922    0.0000 C   0  0  0  0  0  0  0  0  0  0  0  0
    7.0630    1.0852    0.0000 C   0  0  0  0  0  0  0  0  0  0  0  0
    7.0128    2.5844    0.0000 C   0  0  0  0  0  0  0  0  0  0  0  0
    8.2860    3.3774    0.0000 O   0  0  0  0  0  0  0  0  0  0  0  0
    5.6894    3.2905    0.0000 C   0  0  0  0  0  0  0  0  0  0  0  0
    4.4162    2.4975    0.0000 C   0  0  0  0  0  0  0  0  0  0  0  0
    4.4663    0.9983    0.0000 C   0  0  0  0  0  0  0  0  0  0  0  0
    3.1429    1.7044    0.0000 C   0  0  0  0  0  0  0  0  0  0  0  0
    3.1931    0.2053    0.0000 C   0  0  0  0  0  0  0  0  0  0  0  0
    1.8697    0.9114    0.0000 C   0  0  0  0  0  0  0  0  0  0  0  0
    0.5965    0.1184    0.0000 C   0  0  0  0  0  0  0  0  0  0  0  0
   -0.7269    0.8245    0.0000 O   0  0  0  0  0  0  0  0  0  0  0  0
    0.6467   -1.3808    0.0000 C   0  0  0  0  0  0  0  0  0  0  0  0
   -0.7433   -0.8169    0.0000 C   0  0  0  0  0  0  0  0  0  0  0  0
  2  1  1  6
  2  3  1  0
  3  4  1  0
  4  5  1  0
  5  6  2  0
  5  7  1  0
  7  8  2  0
  8  9  1  0
  9 10  2  0
 10 11  1  0
 11 12  1  0
 11 13  2  0
  2 14  1  0
 14 15  1  6
 15 16  1  0
 17 16  1  6
 17 18  1  0
 18 19  1  1
 19 20  1  1
 19 21  1  0
 22 21  1  1
 22 23  1  0
 23 24  1  0
 24 25  1  1
 24 26  1  0
 26 27  1  0
 27 28  1  0
 28 29  1  6
 28 30  1  0
 30 31  1  6
 31 32  1  0
 32 33  1  1
 32 34  1  0
 34 35  1  6
 13  7  1  0
 34 14  1  0
 34 17  1  0
 30 18  1  0
 28 22  1  0
M  END
>  <MS_ID>  (419) 
MS0440

>  <SMILES>  (419) 
C[C@H](CCC(=O)c1cccc(O)c1)[C@H]1CC[C@H]2[C@@H]3[C@H](O)C[C@@H]4C[C@H](O)CC[C@]4(C)[C@H]3C[C@H](O)[C@]12C

>  <Structure_dimension>  (419) 
2D

$$$$
MS0441
     RDKit          2D

 28 31  0  0  0  0  0  0  0  0999 V2000
   -5.0096   -2.1352    0.0000 C   0  0  0  0  0  0  0  0  0  0  0  0
   -3.8132   -1.2303    0.0000 C   0  0  0  0  0  0  0  0  0  0  0  0
   -3.9987    0.2582    0.0000 C   0  0  0  0  0  0  0  0  0  0  0  0
   -5.3805    0.8418    0.0000 C   0  0  0  0  0  0  0  0  0  0  0  0
   -5.5659    2.3303    0.0000 C   0  0  0  0  0  0  0  0  0  0  0  0
   -4.3695    3.2351    0.0000 O   0  0  0  0  0  0  0  0  0  0  0  0
   -6.9477    2.9140    0.0000 O   0  0  0  0  0  0  0  0  0  0  0  0
   -2.4315   -1.8140    0.0000 C   0  0  0  0  0  0  0  0  0  0  0  0
   -2.0914   -3.2749    0.0000 C   0  0  0  0  0  0  0  0  0  0  0  0
   -0.5969   -3.4030    0.0000 C   0  0  0  0  0  0  0  0  0  0  0  0
   -0.0133   -2.0212    0.0000 C   0  0  0  0  0  0  0  0  0  0  0  0
    1.4041   -1.5304    0.0000 C   0  0  0  0  0  0  0  0  0  0  0  0
    2.5379   -2.5125    0.0000 C   0  0  0  0  0  0  0  0  0  0  0  0
    3.9554   -2.0216    0.0000 C   0  0  0  0  0  0  0  0  0  0  0  0
    4.2390   -0.5487    0.0000 C   0  0  0  0  0  0  0  0  0  0  0  0
    5.6564   -0.0578    0.0000 C   0  0  0  0  0  0  0  0  0  0  0  0
    5.9400    1.4151    0.0000 C   0  0  0  0  0  0  0  0  0  0  0  0
    7.3574    1.9060    0.0000 N   0  0  0  0  0  0  0  0  0  0  0  0
    4.8062    2.3972    0.0000 C   0  0  0  0  0  0  0  0  0  0  0  0
    3.3888    1.9064    0.0000 C   0  0  0  0  0  0  0  0  0  0  0  0
    3.1052    0.4334    0.0000 C   0  0  0  0  0  0  0  0  0  0  0  0
    1.9714    1.4155    0.0000 C   0  0  0  0  0  0  0  0  0  0  0  0
    1.6878   -0.0574    0.0000 C   0  0  0  0  0  0  0  0  0  0  0  0
    0.5540    0.9246    0.0000 C   0  0  0  0  0  0  0  0  0  0  0  0
   -0.8635    0.4338    0.0000 C   0  0  0  0  0  0  0  0  0  0  0  0
   -1.9973    1.4159    0.0000 O   0  0  0  0  0  0  0  0  0  0  0  0
   -1.1471   -1.0392    0.0000 C   0  0  0  0  0  0  0  0  0  0  0  0
   -2.3773   -0.1810    0.0000 C   0  0  0  0  0  0  0  0  0  0  0  0
  2  1  1  6
  2  3  1  0
  3  4  1  0
  4  5  1  0
  5  6  2  0
  5  7  1  0
  2  8  1  0
  8  9  1  6
  9 10  1  0
 11 10  1  6
 11 12  1  0
 12 13  1  1
 13 14  1  0
 15 14  1  1
 15 16  1  0
 16 17  1  0
 17 18  1  1
 17 19  1  0
 19 20  1  0
 20 21  1  0
 21 22  1  6
 21 23  1  0
 23 24  1  6
 24 25  1  0
 25 26  1  1
 25 27  1  0
 27 28  1  6
 27  8  1  0
 27 11  1  0
 23 12  1  0
 21 15  1  0
M  END
>  <MS_ID>  (420) 
MS0441

>  <SMILES>  (420) 
C[C@H](CCC(=O)O)[C@H]1CC[C@H]2[C@@H]3CC[C@@H]4C[C@H](N)CC[C@]4(C)[C@H]3C[C@H](O)[C@]12C

>  <Structure_dimension>  (420) 
2D

$$$$
MS0442
     RDKit          2D

 30 33  0  0  0  0  0  0  0  0999 V2000
   -4.7023   -2.6242    0.0000 C   0  0  0  0  0  0  0  0  0  0  0  0
   -3.5985   -1.6085    0.0000 C   0  0  0  0  0  0  0  0  0  0  0  0
   -3.9263   -0.1448    0.0000 C   0  0  0  0  0  0  0  0  0  0  0  0
   -5.3578    0.3033    0.0000 C   0  0  0  0  0  0  0  0  0  0  0  0
   -5.6855    1.7670    0.0000 C   0  0  0  0  0  0  0  0  0  0  0  0
   -7.1171    2.2151    0.0000 O   0  0  0  0  0  0  0  0  0  0  0  0
   -4.5818    2.7827    0.0000 O   0  0  0  0  0  0  0  0  0  0  0  0
   -4.9095    4.2465    0.0000 O   0  0  0  0  0  0  0  0  0  0  0  0
   -2.1670   -2.0566    0.0000 C   0  0  0  0  0  0  0  0  0  0  0  0
   -1.6881   -3.4780    0.0000 C   0  0  0  0  0  0  0  0  0  0  0  0
   -0.1881   -3.4618    0.0000 C   0  0  0  0  0  0  0  0  0  0  0  0
    0.2599   -2.0303    0.0000 C   0  0  0  0  0  0  0  0  0  0  0  0
    1.6235   -1.4054    0.0000 C   0  0  0  0  0  0  0  0  0  0  0  0
    2.8465   -2.2738    0.0000 C   0  0  0  0  0  0  0  0  0  0  0  0
    2.7059   -3.7672    0.0000 O   0  0  0  0  0  0  0  0  0  0  0  0
    4.2102   -1.6489    0.0000 C   0  0  0  0  0  0  0  0  0  0  0  0
    4.3508   -0.1555    0.0000 C   0  0  0  0  0  0  0  0  0  0  0  0
    5.7144    0.4694    0.0000 C   0  0  0  0  0  0  0  0  0  0  0  0
    5.8550    1.9628    0.0000 C   0  0  0  0  0  0  0  0  0  0  0  0
    7.2187    2.5877    0.0000 O   0  0  0  0  0  0  0  0  0  0  0  0
    4.6320    2.8313    0.0000 C   0  0  0  0  0  0  0  0  0  0  0  0
    3.2684    2.2063    0.0000 C   0  0  0  0  0  0  0  0  0  0  0  0
    3.1278    0.7130    0.0000 C   0  0  0  0  0  0  0  0  0  0  0  0
    1.9048    1.5814    0.0000 C   0  0  0  0  0  0  0  0  0  0  0  0
    1.7642    0.0880    0.0000 C   0  0  0  0  0  0  0  0  0  0  0  0
    0.5411    0.9565    0.0000 C   0  0  0  0  0  0  0  0  0  0  0  0
   -0.8225    0.3316    0.0000 C   0  0  0  0  0  0  0  0  0  0  0  0
   -2.0455    1.2001    0.0000 O   0  0  0  0  0  0  0  0  0  0  0  0
   -0.9631   -1.1618    0.0000 C   0  0  0  0  0  0  0  0  0  0  0  0
   -2.2702   -0.4259    0.0000 C   0  0  0  0  0  0  0  0  0  0  0  0
  2  1  1  6
  2  3  1  0
  3  4  1  0
  4  5  1  0
  5  6  2  0
  5  7  1  0
  7  8  1  0
  2  9  1  0
  9 10  1  6
 10 11  1  0
 12 11  1  6
 12 13  1  0
 13 14  1  1
 14 15  1  6
 14 16  1  0
 17 16  1  1
 17 18  1  0
 18 19  1  0
 19 20  1  1
 19 21  1  0
 21 22  1  0
 22 23  1  0
 23 24  1  6
 23 25  1  0
 25 26  1  6
 26 27  1  0
 27 28  1  6
 27 29  1  0
 29 30  1  6
 29  9  1  0
 29 12  1  0
 25 13  1  0
 23 17  1  0
M  END
>  <MS_ID>  (421) 
MS0442

>  <SMILES>  (421) 
C[C@H](CCC(=O)OO)[C@H]1CC[C@H]2[C@@H]3[C@@H](O)C[C@@H]4C[C@H](O)CC[C@]4(C)[C@H]3C[C@@H](O)[C@]12C

>  <Structure_dimension>  (421) 
2D

$$$$
MS0444
     RDKit          2D

 36 40  0  0  0  0  0  0  0  0999 V2000
   -2.1455   -3.8766    0.0000 C   0  0  0  0  0  0  0  0  0  0  0  0
   -1.3209   -2.6236    0.0000 C   0  0  0  0  0  0  0  0  0  0  0  0
   -1.9938   -1.2830    0.0000 C   0  0  0  0  0  0  0  0  0  0  0  0
   -3.4912   -1.1954    0.0000 C   0  0  0  0  0  0  0  0  0  0  0  0
   -4.1640    0.1453    0.0000 C   0  0  0  0  0  0  0  0  0  0  0  0
   -3.3394    1.3983    0.0000 O   0  0  0  0  0  0  0  0  0  0  0  0
   -5.6615    0.2329    0.0000 C   0  0  0  0  0  0  0  0  0  0  0  0
   -6.6125   -0.9271    0.0000 C   0  0  0  0  0  0  0  0  0  0  0  0
   -8.0096   -0.3810    0.0000 C   0  0  0  0  0  0  0  0  0  0  0  0
   -7.9220    1.1164    0.0000 C   0  0  0  0  0  0  0  0  0  0  0  0
   -9.0820    2.0675    0.0000 N   0  0  0  0  0  0  0  0  0  0  0  0
  -10.4856    1.5384    0.0000 O   0  0  0  0  0  0  0  0  0  0  0  0
   -8.8383    3.5475    0.0000 O   0  0  0  0  0  0  0  0  0  0  0  0
   -6.4708    1.4958    0.0000 O   0  0  0  0  0  0  0  0  0  0  0  0
    0.1765   -2.7112    0.0000 C   0  0  0  0  0  0  0  0  0  0  0  0
    0.9858   -3.9742    0.0000 C   0  0  0  0  0  0  0  0  0  0  0  0
    2.4370   -3.5947    0.0000 C   0  0  0  0  0  0  0  0  0  0  0  0
    2.5247   -2.0973    0.0000 C   0  0  0  0  0  0  0  0  0  0  0  0
    3.6961   -1.1604    0.0000 C   0  0  0  0  0  0  0  0  0  0  0  0
    5.0932   -1.7065    0.0000 C   0  0  0  0  0  0  0  0  0  0  0  0
    5.3188   -3.1894    0.0000 O   0  0  0  0  0  0  0  0  0  0  0  0
    6.2646   -0.7696    0.0000 C   0  0  0  0  0  0  0  0  0  0  0  0
    6.0390    0.7133    0.0000 C   0  0  0  0  0  0  0  0  0  0  0  0
    7.2104    1.6502    0.0000 C   0  0  0  0  0  0  0  0  0  0  0  0
    6.9848    3.1331    0.0000 C   0  0  0  0  0  0  0  0  0  0  0  0
    8.1562    4.0700    0.0000 O   0  0  0  0  0  0  0  0  0  0  0  0
    5.5877    3.6792    0.0000 C   0  0  0  0  0  0  0  0  0  0  0  0
    4.4163    2.7423    0.0000 C   0  0  0  0  0  0  0  0  0  0  0  0
    4.6419    1.2594    0.0000 C   0  0  0  0  0  0  0  0  0  0  0  0
    3.2448    1.8054    0.0000 C   0  0  0  0  0  0  0  0  0  0  0  0
    3.4705    0.3225    0.0000 C   0  0  0  0  0  0  0  0  0  0  0  0
    2.0734    0.8686    0.0000 C   0  0  0  0  0  0  0  0  0  0  0  0
    0.9019   -0.0683    0.0000 C   0  0  0  0  0  0  0  0  0  0  0  0
   -0.4951    0.4777    0.0000 O   0  0  0  0  0  0  0  0  0  0  0  0
    1.1276   -1.5513    0.0000 C   0  0  0  0  0  0  0  0  0  0  0  0
   -0.3189   -1.1542    0.0000 C   0  0  0  0  0  0  0  0  0  0  0  0
  2  1  1  6
  2  3  1  0
  3  4  1  0
  4  5  1  0
  5  6  2  0
  5  7  1  0
  7  8  2  0
  8  9  1  0
  9 10  2  0
 10 11  1  0
 11 12  2  0
 11 13  1  0
 10 14  1  0
  2 15  1  0
 15 16  1  6
 16 17  1  0
 18 17  1  6
 18 19  1  0
 19 20  1  1
 20 21  1  1
 20 22  1  0
 23 22  1  1
 23 24  1  0
 24 25  1  0
 25 26  1  1
 25 27  1  0
 27 28  1  0
 28 29  1  0
 29 30  1  6
 29 31  1  0
 31 32  1  6
 32 33  1  0
 33 34  1  1
 33 35  1  0
 35 36  1  6
 14  7  1  0
 35 15  1  0
 35 18  1  0
 31 19  1  0
 29 23  1  0
M  CHG  2  11   1  13  -1
M  END
>  <MS_ID>  (422) 
MS0444

>  <SMILES>  (422) 
C[C@H](CCC(=O)c1ccc([N+](=O)[O-])o1)[C@H]1CC[C@H]2[C@@H]3[C@H](O)C[C@@H]4C[C@H](O)CC[C@]4(C)[C@H]3C[C@H](O)[C@]12C

>  <Structure_dimension>  (422) 
2D

$$$$
MS0445
     RDKit          2D

 31 34  0  0  0  0  0  0  0  0999 V2000
   -3.1892   -3.5907    0.0000 C   0  0  0  0  0  0  0  0  0  0  0  0
   -2.3340   -2.3584    0.0000 C   0  0  0  0  0  0  0  0  0  0  0  0
   -2.9737   -1.0016    0.0000 C   0  0  0  0  0  0  0  0  0  0  0  0
   -4.4686   -0.8772    0.0000 C   0  0  0  0  0  0  0  0  0  0  0  0
   -5.1083    0.4795    0.0000 C   0  0  0  0  0  0  0  0  0  0  0  0
   -4.2531    1.7119    0.0000 O   0  0  0  0  0  0  0  0  0  0  0  0
   -6.6031    0.6039    0.0000 C   0  0  0  0  0  0  0  0  0  0  0  0
   -7.2428    1.9607    0.0000 C   0  0  0  0  0  0  0  0  0  0  0  0
   -6.3877    3.1931    0.0000 O   0  0  0  0  0  0  0  0  0  0  0  0
   -8.7376    2.0851    0.0000 O   0  0  0  0  0  0  0  0  0  0  0  0
   -0.8392   -2.4827    0.0000 C   0  0  0  0  0  0  0  0  0  0  0  0
   -0.0612   -3.7652    0.0000 C   0  0  0  0  0  0  0  0  0  0  0  0
    1.3989   -3.4216    0.0000 C   0  0  0  0  0  0  0  0  0  0  0  0
    1.5233   -1.9267    0.0000 C   0  0  0  0  0  0  0  0  0  0  0  0
    2.7174   -1.0189    0.0000 C   0  0  0  0  0  0  0  0  0  0  0  0
    4.1006   -1.5992    0.0000 C   0  0  0  0  0  0  0  0  0  0  0  0
    4.2898   -3.0872    0.0000 O   0  0  0  0  0  0  0  0  0  0  0  0
    5.2947   -0.6914    0.0000 C   0  0  0  0  0  0  0  0  0  0  0  0
    5.1056    0.7967    0.0000 C   0  0  0  0  0  0  0  0  0  0  0  0
    6.2997    1.7045    0.0000 C   0  0  0  0  0  0  0  0  0  0  0  0
    6.1106    3.1925    0.0000 C   0  0  0  0  0  0  0  0  0  0  0  0
    4.7274    3.7727    0.0000 C   0  0  0  0  0  0  0  0  0  0  0  0
    3.5333    2.8649    0.0000 C   0  0  0  0  0  0  0  0  0  0  0  0
    3.7224    1.3769    0.0000 C   0  0  0  0  0  0  0  0  0  0  0  0
    2.3391    1.9571    0.0000 C   0  0  0  0  0  0  0  0  0  0  0  0
    2.5283    0.4691    0.0000 C   0  0  0  0  0  0  0  0  0  0  0  0
    1.1450    1.0493    0.0000 C   0  0  0  0  0  0  0  0  0  0  0  0
   -0.0491    0.1415    0.0000 C   0  0  0  0  0  0  0  0  0  0  0  0
   -1.4323    0.7218    0.0000 O   0  0  0  0  0  0  0  0  0  0  0  0
    0.1401   -1.3465    0.0000 C   0  0  0  0  0  0  0  0  0  0  0  0
   -1.2962   -0.9140    0.0000 C   0  0  0  0  0  0  0  0  0  0  0  0
  2  1  1  6
  2  3  1  0
  3  4  1  0
  4  5  1  0
  5  6  2  0
  5  7  1  0
  7  8  1  0
  8  9  2  0
  8 10  1  0
  2 11  1  0
 11 12  1  6
 12 13  1  0
 14 13  1  6
 14 15  1  0
 15 16  1  1
 16 17  1  6
 16 18  1  0
 19 18  1  1
 19 20  1  0
 20 21  1  0
 21 22  1  0
 22 23  1  0
 23 24  1  0
 24 25  1  6
 24 26  1  0
 26 27  1  6
 27 28  1  0
 28 29  1  1
 28 30  1  0
 30 31  1  6
 30 11  1  0
 30 14  1  0
 26 15  1  0
 24 19  1  0
M  END
>  <MS_ID>  (423) 
MS0445

>  <SMILES>  (423) 
C[C@H](CCC(=O)CC(=O)O)[C@H]1CC[C@H]2[C@@H]3[C@@H](O)C[C@@H]4CCCC[C@]4(C)[C@H]3C[C@H](O)[C@]12C

>  <Structure_dimension>  (423) 
2D

$$$$
MS0446
     RDKit          2D

 35 39  0  0  0  0  0  0  0  0999 V2000
   -1.7226   -4.5748    0.0000 C   0  0  0  0  0  0  0  0  0  0  0  0
   -1.0860   -3.2166    0.0000 C   0  0  0  0  0  0  0  0  0  0  0  0
   -1.9441   -1.9862    0.0000 C   0  0  0  0  0  0  0  0  0  0  0  0
   -3.4386   -2.1141    0.0000 C   0  0  0  0  0  0  0  0  0  0  0  0
   -4.2966   -0.8837    0.0000 C   0  0  0  0  0  0  0  0  0  0  0  0
   -3.6601    0.4746    0.0000 O   0  0  0  0  0  0  0  0  0  0  0  0
   -5.7911   -1.0116    0.0000 O   0  0  0  0  0  0  0  0  0  0  0  0
   -6.6492    0.2188    0.0000 C   0  0  0  0  0  0  0  0  0  0  0  0
   -6.0126    1.5771    0.0000 C   0  0  0  0  0  0  0  0  0  0  0  0
   -6.8706    2.8074    0.0000 C   0  0  0  0  0  0  0  0  0  0  0  0
   -8.3652    2.6796    0.0000 C   0  0  0  0  0  0  0  0  0  0  0  0
   -9.2232    3.9099    0.0000 O   0  0  0  0  0  0  0  0  0  0  0  0
   -9.0017    1.3213    0.0000 C   0  0  0  0  0  0  0  0  0  0  0  0
   -8.1437    0.0909    0.0000 C   0  0  0  0  0  0  0  0  0  0  0  0
    0.4085   -3.0887    0.0000 C   0  0  0  0  0  0  0  0  0  0  0  0
    1.3904   -4.2226    0.0000 C   0  0  0  0  0  0  0  0  0  0  0  0
    2.7723   -3.6392    0.0000 C   0  0  0  0  0  0  0  0  0  0  0  0
    2.6444   -2.1446    0.0000 C   0  0  0  0  0  0  0  0  0  0  0  0
    3.6695   -1.0496    0.0000 C   0  0  0  0  0  0  0  0  0  0  0  0
    5.1304   -1.3898    0.0000 C   0  0  0  0  0  0  0  0  0  0  0  0
    5.5662   -2.8251    0.0000 O   0  0  0  0  0  0  0  0  0  0  0  0
    6.1555   -0.2947    0.0000 C   0  0  0  0  0  0  0  0  0  0  0  0
    5.7197    1.1406    0.0000 C   0  0  0  0  0  0  0  0  0  0  0  0
    6.7448    2.2356    0.0000 C   0  0  0  0  0  0  0  0  0  0  0  0
    6.3090    3.6709    0.0000 C   0  0  0  0  0  0  0  0  0  0  0  0
    7.3341    4.7660    0.0000 O   0  0  0  0  0  0  0  0  0  0  0  0
    4.8481    4.0112    0.0000 C   0  0  0  0  0  0  0  0  0  0  0  0
    3.8230    2.9161    0.0000 C   0  0  0  0  0  0  0  0  0  0  0  0
    4.2588    1.4808    0.0000 C   0  0  0  0  0  0  0  0  0  0  0  0
    2.7979    1.8210    0.0000 C   0  0  0  0  0  0  0  0  0  0  0  0
    3.2337    0.3857    0.0000 C   0  0  0  0  0  0  0  0  0  0  0  0
    1.7728    0.7259    0.0000 C   0  0  0  0  0  0  0  0  0  0  0  0
    0.7477   -0.3691    0.0000 C   0  0  0  0  0  0  0  0  0  0  0  0
    1.1835   -1.8044    0.0000 C   0  0  0  0  0  0  0  0  0  0  0  0
   -0.3050   -1.6188    0.0000 C   0  0  0  0  0  0  0  0  0  0  0  0
  2  1  1  6
  2  3  1  0
  3  4  1  0
  4  5  1  0
  5  6  2  0
  5  7  1  0
  7  8  1  0
  8  9  2  0
  9 10  1  0
 10 11  2  0
 11 12  1  0
 11 13  1  0
 13 14  2  0
  2 15  1  0
 15 16  1  6
 16 17  1  0
 18 17  1  6
 18 19  1  0
 19 20  1  1
 20 21  1  1
 20 22  1  0
 23 22  1  1
 23 24  1  0
 24 25  1  0
 25 26  1  1
 25 27  1  0
 27 28  1  0
 28 29  1  0
 29 30  1  6
 29 31  1  0
 31 32  1  6
 32 33  1  0
 33 34  1  0
 34 35  1  6
 14  8  1  0
 34 15  1  0
 34 18  1  0
 31 19  1  0
 29 23  1  0
M  END
>  <MS_ID>  (424) 
MS0446

>  <SMILES>  (424) 
C[C@H](CCC(=O)Oc1ccc(O)cc1)[C@H]1CC[C@H]2[C@@H]3[C@H](O)C[C@@H]4C[C@H](O)CC[C@]4(C)[C@H]3CC[C@]12C

>  <Structure_dimension>  (424) 
2D

$$$$
MS0447
     RDKit          2D

 32 35  0  0  0  0  0  0  0  0999 V2000
   -3.6519   -3.4889    0.0000 C   0  0  0  0  0  0  0  0  0  0  0  0
   -2.7185   -2.3147    0.0000 C   0  0  0  0  0  0  0  0  0  0  0  0
   -3.2687   -0.9192    0.0000 C   0  0  0  0  0  0  0  0  0  0  0  0
   -4.7523   -0.6980    0.0000 C   0  0  0  0  0  0  0  0  0  0  0  0
   -5.3024    0.6975    0.0000 C   0  0  0  0  0  0  0  0  0  0  0  0
   -4.3690    1.8717    0.0000 O   0  0  0  0  0  0  0  0  0  0  0  0
   -6.7860    0.9188    0.0000 C   0  0  0  0  0  0  0  0  0  0  0  0
   -7.3362    2.3142    0.0000 C   0  0  0  0  0  0  0  0  0  0  0  0
   -6.4028    3.4884    0.0000 O   0  0  0  0  0  0  0  0  0  0  0  0
   -8.8198    2.5355    0.0000 O   0  0  0  0  0  0  0  0  0  0  0  0
   -1.2349   -2.5360    0.0000 C   0  0  0  0  0  0  0  0  0  0  0  0
   -0.5419   -3.8663    0.0000 C   0  0  0  0  0  0  0  0  0  0  0  0
    0.9375   -3.6183    0.0000 C   0  0  0  0  0  0  0  0  0  0  0  0
    1.1587   -2.1347    0.0000 C   0  0  0  0  0  0  0  0  0  0  0  0
    2.4093   -1.3064    0.0000 C   0  0  0  0  0  0  0  0  0  0  0  0
    3.7519   -1.9753    0.0000 C   0  0  0  0  0  0  0  0  0  0  0  0
    3.8439   -3.4725    0.0000 O   0  0  0  0  0  0  0  0  0  0  0  0
    5.0025   -1.1470    0.0000 C   0  0  0  0  0  0  0  0  0  0  0  0
    4.9105    0.3502    0.0000 C   0  0  0  0  0  0  0  0  0  0  0  0
    6.1611    1.1784    0.0000 C   0  0  0  0  0  0  0  0  0  0  0  0
    6.0690    2.6756    0.0000 C   0  0  0  0  0  0  0  0  0  0  0  0
    7.3196    3.5039    0.0000 O   0  0  0  0  0  0  0  0  0  0  0  0
    4.7264    3.3445    0.0000 C   0  0  0  0  0  0  0  0  0  0  0  0
    3.4759    2.5162    0.0000 C   0  0  0  0  0  0  0  0  0  0  0  0
    3.5679    1.0191    0.0000 C   0  0  0  0  0  0  0  0  0  0  0  0
    2.2253    1.6879    0.0000 C   0  0  0  0  0  0  0  0  0  0  0  0
    2.3173    0.1908    0.0000 C   0  0  0  0  0  0  0  0  0  0  0  0
    0.9747    0.8597    0.0000 C   0  0  0  0  0  0  0  0  0  0  0  0
   -0.2759    0.0314    0.0000 C   0  0  0  0  0  0  0  0  0  0  0  0
   -1.6185    0.7003    0.0000 O   0  0  0  0  0  0  0  0  0  0  0  0
   -0.1839   -1.4658    0.0000 C   0  0  0  0  0  0  0  0  0  0  0  0
   -1.5890   -0.9409    0.0000 C   0  0  0  0  0  0  0  0  0  0  0  0
  2  1  1  6
  2  3  1  0
  3  4  1  0
  4  5  1  0
  5  6  2  0
  5  7  1  0
  7  8  1  0
  8  9  2  0
  8 10  1  0
  2 11  1  0
 11 12  1  6
 12 13  1  0
 14 13  1  6
 14 15  1  0
 15 16  1  1
 16 17  1  1
 16 18  1  0
 19 18  1  1
 19 20  1  0
 20 21  1  0
 21 22  1  1
 21 23  1  0
 23 24  1  0
 24 25  1  0
 25 26  1  6
 25 27  1  0
 27 28  1  6
 28 29  1  0
 29 30  1  6
 29 31  1  0
 31 32  1  6
 31 11  1  0
 31 14  1  0
 27 15  1  0
 25 19  1  0
M  END
>  <MS_ID>  (425) 
MS0447

>  <SMILES>  (425) 
C[C@H](CCC(=O)CC(=O)O)[C@H]1CC[C@H]2[C@@H]3[C@H](O)C[C@@H]4C[C@H](O)CC[C@]4(C)[C@H]3C[C@@H](O)[C@]12C

>  <Structure_dimension>  (425) 
2D

$$$$
MS0448
     RDKit          2D

 37 40  0  0  0  0  0  0  0  0999 V2000
   -4.0125   -4.0748    0.0000 C   0  0  0  0  0  0  0  0  0  0  0  0
   -3.0949   -2.8882    0.0000 C   0  0  0  0  0  0  0  0  0  0  0  0
   -3.6638   -1.5002    0.0000 C   0  0  0  0  0  0  0  0  0  0  0  0
   -5.1502   -1.2989    0.0000 C   0  0  0  0  0  0  0  0  0  0  0  0
   -5.7191    0.0891    0.0000 C   0  0  0  0  0  0  0  0  0  0  0  0
   -4.8015    1.2757    0.0000 O   0  0  0  0  0  0  0  0  0  0  0  0
   -7.2055    0.2904    0.0000 C   0  0  0  0  0  0  0  0  0  0  0  0
   -7.7744    1.6783    0.0000 C   0  0  0  0  0  0  0  0  0  0  0  0
   -9.2608    1.8797    0.0000 C   0  0  0  0  0  0  0  0  0  0  0  0
   -9.8297    3.2676    0.0000 C   0  0  0  0  0  0  0  0  0  0  0  0
   -8.9121    4.4542    0.0000 O   0  0  0  0  0  0  0  0  0  0  0  0
  -11.3161    3.4689    0.0000 O   0  0  0  0  0  0  0  0  0  0  0  0
   -1.6085   -3.0895    0.0000 C   0  0  0  0  0  0  0  0  0  0  0  0
   -0.8977   -4.4104    0.0000 C   0  0  0  0  0  0  0  0  0  0  0  0
    0.5782   -4.1425    0.0000 C   0  0  0  0  0  0  0  0  0  0  0  0
    0.7795   -2.6561    0.0000 C   0  0  0  0  0  0  0  0  0  0  0  0
    2.0189   -1.8111    0.0000 C   0  0  0  0  0  0  0  0  0  0  0  0
    3.3703   -2.4619    0.0000 C   0  0  0  0  0  0  0  0  0  0  0  0
    3.4825   -3.9577    0.0000 O   0  0  0  0  0  0  0  0  0  0  0  0
    4.6097   -1.6169    0.0000 C   0  0  0  0  0  0  0  0  0  0  0  0
    4.4976   -0.1211    0.0000 C   0  0  0  0  0  0  0  0  0  0  0  0
    5.7369    0.7239    0.0000 C   0  0  0  0  0  0  0  0  0  0  0  0
    5.6248    2.2197    0.0000 C   0  0  0  0  0  0  0  0  0  0  0  0
    6.8641    3.0647    0.0000 O   0  0  0  0  0  0  0  0  0  0  0  0
    8.2156    2.4139    0.0000 S   0  0  0  0  0  0  0  0  0  0  0  0
    7.5648    1.0624    0.0000 O   0  0  0  0  0  0  0  0  0  0  0  0
    8.8664    3.7654    0.0000 O   0  0  0  0  0  0  0  0  0  0  0  0
    9.5671    1.7631    0.0000 O   0  0  0  0  0  0  0  0  0  0  0  0
    4.2733    2.8705    0.0000 C   0  0  0  0  0  0  0  0  0  0  0  0
    3.0340    2.0255    0.0000 C   0  0  0  0  0  0  0  0  0  0  0  0
    3.1461    0.5297    0.0000 C   0  0  0  0  0  0  0  0  0  0  0  0
    1.7946    1.1805    0.0000 C   0  0  0  0  0  0  0  0  0  0  0  0
    1.9068   -0.3153    0.0000 C   0  0  0  0  0  0  0  0  0  0  0  0
    0.5553    0.3355    0.0000 C   0  0  0  0  0  0  0  0  0  0  0  0
   -0.6840   -0.5095    0.0000 C   0  0  0  0  0  0  0  0  0  0  0  0
   -0.5719   -2.0053    0.0000 C   0  0  0  0  0  0  0  0  0  0  0  0
   -1.9840   -1.4993    0.0000 C   0  0  0  0  0  0  0  0  0  0  0  0
  2  1  1  6
  2  3  1  0
  3  4  1  0
  4  5  1  0
  5  6  2  0
  5  7  1  0
  7  8  1  0
  8  9  1  0
  9 10  1  0
 10 11  2  0
 10 12  1  0
  2 13  1  0
 13 14  1  6
 14 15  1  0
 16 15  1  6
 16 17  1  0
 17 18  1  1
 18 19  1  1
 18 20  1  0
 21 20  1  1
 21 22  1  0
 22 23  1  0
 23 24  1  1
 24 25  1  0
 25 26  2  0
 25 27  2  0
 25 28  1  0
 23 29  1  0
 29 30  1  0
 30 31  1  0
 31 32  1  6
 31 33  1  0
 33 34  1  6
 34 35  1  0
 35 36  1  0
 36 37  1  6
 36 13  1  0
 36 16  1  0
 33 17  1  0
 31 21  1  0
M  END
>  <MS_ID>  (426) 
MS0448

>  <SMILES>  (426) 
C[C@H](CCC(=O)CCCC(=O)O)[C@H]1CC[C@H]2[C@@H]3[C@H](O)C[C@@H]4C[C@H](OS(=O)(=O)O)CC[C@]4(C)[C@H]3CC[C@]12C

>  <Structure_dimension>  (426) 
2D

$$$$
MS0449
     RDKit          2D

 31 34  0  0  0  0  0  0  0  0999 V2000
  -10.5865    3.1750    0.0000 C   0  0  0  0  0  0  0  0  0  0  0  0
   -9.0910    3.0590    0.0000 C   0  0  0  0  0  0  0  0  0  0  0  0
   -8.4437    1.7059    0.0000 C   0  0  0  0  0  0  0  0  0  0  0  0
   -6.9482    1.5899    0.0000 C   0  0  0  0  0  0  0  0  0  0  0  0
   -6.3008    0.2368    0.0000 O   0  0  0  0  0  0  0  0  0  0  0  0
   -4.8053    0.1208    0.0000 C   0  0  0  0  0  0  0  0  0  0  0  0
   -3.9572    1.3580    0.0000 O   0  0  0  0  0  0  0  0  0  0  0  0
   -4.1580   -1.2323    0.0000 C   0  0  0  0  0  0  0  0  0  0  0  0
   -2.6625   -1.3483    0.0000 C   0  0  0  0  0  0  0  0  0  0  0  0
   -2.0152   -2.7014    0.0000 C   0  0  0  0  0  0  0  0  0  0  0  0
   -2.8633   -3.9386    0.0000 C   0  0  0  0  0  0  0  0  0  0  0  0
   -0.5197   -2.8173    0.0000 C   0  0  0  0  0  0  0  0  0  0  0  0
    0.2656   -4.0954    0.0000 C   0  0  0  0  0  0  0  0  0  0  0  0
    1.7237   -3.7436    0.0000 C   0  0  0  0  0  0  0  0  0  0  0  0
    1.8397   -2.2480    0.0000 C   0  0  0  0  0  0  0  0  0  0  0  0
    3.0287   -1.3335    0.0000 C   0  0  0  0  0  0  0  0  0  0  0  0
    4.4151   -1.9060    0.0000 C   0  0  0  0  0  0  0  0  0  0  0  0
    5.6041   -0.9914    0.0000 C   0  0  0  0  0  0  0  0  0  0  0  0
    5.4066    0.4955    0.0000 C   0  0  0  0  0  0  0  0  0  0  0  0
    6.5956    1.4100    0.0000 C   0  0  0  0  0  0  0  0  0  0  0  0
    6.3981    2.8970    0.0000 C   0  0  0  0  0  0  0  0  0  0  0  0
    7.5871    3.8115    0.0000 O   0  0  0  0  0  0  0  0  0  0  0  0
    5.0116    3.4694    0.0000 C   0  0  0  0  0  0  0  0  0  0  0  0
    3.8226    2.5549    0.0000 C   0  0  0  0  0  0  0  0  0  0  0  0
    4.0201    1.0679    0.0000 C   0  0  0  0  0  0  0  0  0  0  0  0
    2.6336    1.6404    0.0000 C   0  0  0  0  0  0  0  0  0  0  0  0
    2.8312    0.1534    0.0000 C   0  0  0  0  0  0  0  0  0  0  0  0
    1.4447    0.7258    0.0000 C   0  0  0  0  0  0  0  0  0  0  0  0
    0.2557   -0.1887    0.0000 C   0  0  0  0  0  0  0  0  0  0  0  0
    0.4532   -1.6756    0.0000 C   0  0  0  0  0  0  0  0  0  0  0  0
   -0.9855   -1.2513    0.0000 C   0  0  0  0  0  0  0  0  0  0  0  0
  1  2  1  0
  2  3  1  0
  3  4  1  0
  4  5  1  0
  5  6  1  0
  6  7  2  0
  6  8  1  0
  8  9  1  0
  9 10  1  0
 10 11  1  6
 10 12  1  0
 12 13  1  6
 13 14  1  0
 15 14  1  6
 15 16  1  0
 16 17  1  1
 17 18  1  0
 19 18  1  1
 19 20  1  0
 20 21  1  0
 21 22  1  6
 21 23  1  0
 23 24  1  0
 24 25  1  0
 25 26  1  6
 25 27  1  0
 27 28  1  6
 28 29  1  0
 29 30  1  0
 30 31  1  6
 30 12  1  0
 30 15  1  0
 27 16  1  0
 25 19  1  0
M  END
>  <MS_ID>  (427) 
MS0449

>  <SMILES>  (427) 
CCCCOC(=O)CC[C@@H](C)[C@H]1CC[C@H]2[C@@H]3CC[C@@H]4C[C@@H](O)CC[C@]4(C)[C@H]3CC[C@]12C

>  <Structure_dimension>  (427) 
2D

$$$$
MS0450
     RDKit          2D

 28 31  0  0  0  0  0  0  0  0999 V2000
   -5.0096   -2.1352    0.0000 C   0  0  0  0  0  0  0  0  0  0  0  0
   -3.8132   -1.2303    0.0000 C   0  0  0  0  0  0  0  0  0  0  0  0
   -3.9987    0.2582    0.0000 C   0  0  0  0  0  0  0  0  0  0  0  0
   -5.3805    0.8418    0.0000 C   0  0  0  0  0  0  0  0  0  0  0  0
   -5.5659    2.3303    0.0000 C   0  0  0  0  0  0  0  0  0  0  0  0
   -6.9477    2.9140    0.0000 O   0  0  0  0  0  0  0  0  0  0  0  0
   -4.3695    3.2351    0.0000 Cl  0  0  0  0  0  0  0  0  0  0  0  0
   -2.4315   -1.8140    0.0000 C   0  0  0  0  0  0  0  0  0  0  0  0
   -2.0914   -3.2749    0.0000 C   0  0  0  0  0  0  0  0  0  0  0  0
   -0.5969   -3.4030    0.0000 C   0  0  0  0  0  0  0  0  0  0  0  0
   -0.0133   -2.0212    0.0000 C   0  0  0  0  0  0  0  0  0  0  0  0
    1.4041   -1.5304    0.0000 C   0  0  0  0  0  0  0  0  0  0  0  0
    2.5379   -2.5125    0.0000 C   0  0  0  0  0  0  0  0  0  0  0  0
    3.9554   -2.0216    0.0000 C   0  0  0  0  0  0  0  0  0  0  0  0
    4.2390   -0.5487    0.0000 C   0  0  0  0  0  0  0  0  0  0  0  0
    5.6564   -0.0578    0.0000 C   0  0  0  0  0  0  0  0  0  0  0  0
    5.9400    1.4151    0.0000 C   0  0  0  0  0  0  0  0  0  0  0  0
    7.3574    1.9060    0.0000 O   0  0  0  0  0  0  0  0  0  0  0  0
    4.8062    2.3972    0.0000 C   0  0  0  0  0  0  0  0  0  0  0  0
    3.3888    1.9064    0.0000 C   0  0  0  0  0  0  0  0  0  0  0  0
    3.1052    0.4334    0.0000 C   0  0  0  0  0  0  0  0  0  0  0  0
    1.9714    1.4155    0.0000 C   0  0  0  0  0  0  0  0  0  0  0  0
    1.6878   -0.0574    0.0000 C   0  0  0  0  0  0  0  0  0  0  0  0
    0.5540    0.9246    0.0000 C   0  0  0  0  0  0  0  0  0  0  0  0
   -0.8635    0.4338    0.0000 C   0  0  0  0  0  0  0  0  0  0  0  0
   -1.9973    1.4159    0.0000 O   0  0  0  0  0  0  0  0  0  0  0  0
   -1.1471   -1.0392    0.0000 C   0  0  0  0  0  0  0  0  0  0  0  0
   -2.3773   -0.1810    0.0000 C   0  0  0  0  0  0  0  0  0  0  0  0
  2  1  1  6
  2  3  1  0
  3  4  1  0
  4  5  1  0
  5  6  2  0
  5  7  1  0
  2  8  1  0
  8  9  1  6
  9 10  1  0
 11 10  1  6
 11 12  1  0
 12 13  1  1
 13 14  1  0
 15 14  1  1
 15 16  1  0
 16 17  1  0
 17 18  1  1
 17 19  1  0
 19 20  1  0
 20 21  1  0
 21 22  1  6
 21 23  1  0
 23 24  1  6
 24 25  1  0
 25 26  1  1
 25 27  1  0
 27 28  1  6
 27  8  1  0
 27 11  1  0
 23 12  1  0
 21 15  1  0
M  END
>  <MS_ID>  (428) 
MS0450

>  <SMILES>  (428) 
C[C@H](CCC(=O)Cl)[C@H]1CC[C@H]2[C@@H]3CC[C@@H]4C[C@H](O)CC[C@]4(C)[C@H]3C[C@H](O)[C@]12C

>  <Structure_dimension>  (428) 
2D

$$$$
MS0451
     RDKit          2D

 30 33  0  0  0  0  0  0  0  0999 V2000
   -4.3209   -2.7536    0.0000 C   0  0  0  0  0  0  0  0  0  0  0  0
   -3.2523   -1.7010    0.0000 C   0  0  0  0  0  0  0  0  0  0  0  0
   -3.6295   -0.2492    0.0000 C   0  0  0  0  0  0  0  0  0  0  0  0
   -5.0755    0.1499    0.0000 C   0  0  0  0  0  0  0  0  0  0  0  0
   -5.4527    1.6017    0.0000 C   0  0  0  0  0  0  0  0  0  0  0  0
   -4.3841    2.6543    0.0000 O   0  0  0  0  0  0  0  0  0  0  0  0
   -6.8987    2.0009    0.0000 C   0  0  0  0  0  0  0  0  0  0  0  0
   -7.9673    0.9482    0.0000 O   0  0  0  0  0  0  0  0  0  0  0  0
   -7.2759    3.4526    0.0000 O   0  0  0  0  0  0  0  0  0  0  0  0
   -1.8064   -2.1002    0.0000 C   0  0  0  0  0  0  0  0  0  0  0  0
   -1.2794   -3.5046    0.0000 C   0  0  0  0  0  0  0  0  0  0  0  0
    0.2191   -3.4374    0.0000 C   0  0  0  0  0  0  0  0  0  0  0  0
    0.6183   -1.9915    0.0000 C   0  0  0  0  0  0  0  0  0  0  0  0
    1.9599   -1.3206    0.0000 C   0  0  0  0  0  0  0  0  0  0  0  0
    3.2117   -2.1470    0.0000 C   0  0  0  0  0  0  0  0  0  0  0  0
    3.1219   -3.6443    0.0000 O   0  0  0  0  0  0  0  0  0  0  0  0
    4.5533   -1.4762    0.0000 C   0  0  0  0  0  0  0  0  0  0  0  0
    4.6431    0.0211    0.0000 C   0  0  0  0  0  0  0  0  0  0  0  0
    5.9847    0.6920    0.0000 C   0  0  0  0  0  0  0  0  0  0  0  0
    6.0745    2.1893    0.0000 C   0  0  0  0  0  0  0  0  0  0  0  0
    7.4161    2.8602    0.0000 O   0  0  0  0  0  0  0  0  0  0  0  0
    4.8227    3.0158    0.0000 C   0  0  0  0  0  0  0  0  0  0  0  0
    3.4811    2.3449    0.0000 C   0  0  0  0  0  0  0  0  0  0  0  0
    3.3913    0.8476    0.0000 C   0  0  0  0  0  0  0  0  0  0  0  0
    2.1395    1.6740    0.0000 C   0  0  0  0  0  0  0  0  0  0  0  0
    2.0497    0.1767    0.0000 C   0  0  0  0  0  0  0  0  0  0  0  0
    0.7979    1.0031    0.0000 C   0  0  0  0  0  0  0  0  0  0  0  0
   -0.5437    0.3323    0.0000 C   0  0  0  0  0  0  0  0  0  0  0  0
   -0.6335   -1.1650    0.0000 C   0  0  0  0  0  0  0  0  0  0  0  0
   -1.9649   -0.4740    0.0000 C   0  0  0  0  0  0  0  0  0  0  0  0
  2  1  1  6
  2  3  1  0
  3  4  1  0
  4  5  1  0
  5  6  2  0
  5  7  1  0
  7  8  2  0
  7  9  1  0
  2 10  1  0
 10 11  1  6
 11 12  1  0
 13 12  1  6
 13 14  1  0
 14 15  1  1
 15 16  1  1
 15 17  1  0
 18 17  1  1
 18 19  1  0
 19 20  1  0
 20 21  1  1
 20 22  1  0
 22 23  1  0
 23 24  1  0
 24 25  1  6
 24 26  1  0
 26 27  1  6
 27 28  1  0
 28 29  1  0
 29 30  1  6
 29 10  1  0
 29 13  1  0
 26 14  1  0
 24 18  1  0
M  END
>  <MS_ID>  (429) 
MS0451

>  <SMILES>  (429) 
C[C@H](CCC(=O)C(=O)O)[C@H]1CC[C@H]2[C@@H]3[C@H](O)C[C@@H]4C[C@H](O)CC[C@]4(C)[C@H]3CC[C@]12C

>  <Structure_dimension>  (429) 
2D

$$$$
MS0452
     RDKit          2D

 30 33  0  0  0  0  0  0  0  0999 V2000
   -5.3676   -2.0337    0.0000 C   0  0  0  0  0  0  0  0  0  0  0  0
   -4.1713   -1.1288    0.0000 C   0  0  0  0  0  0  0  0  0  0  0  0
   -4.3569    0.3597    0.0000 C   0  0  0  0  0  0  0  0  0  0  0  0
   -5.7388    0.9432    0.0000 C   0  0  0  0  0  0  0  0  0  0  0  0
   -5.9244    2.4317    0.0000 C   0  0  0  0  0  0  0  0  0  0  0  0
   -4.7281    3.3367    0.0000 O   0  0  0  0  0  0  0  0  0  0  0  0
   -7.3062    3.0152    0.0000 O   0  0  0  0  0  0  0  0  0  0  0  0
   -2.7894   -1.7123    0.0000 C   0  0  0  0  0  0  0  0  0  0  0  0
   -2.4493   -3.1732    0.0000 C   0  0  0  0  0  0  0  0  0  0  0  0
   -0.9547   -3.3011    0.0000 C   0  0  0  0  0  0  0  0  0  0  0  0
   -0.3712   -1.9192    0.0000 C   0  0  0  0  0  0  0  0  0  0  0  0
    1.0461   -1.4282    0.0000 C   0  0  0  0  0  0  0  0  0  0  0  0
    2.1800   -2.4102    0.0000 C   0  0  0  0  0  0  0  0  0  0  0  0
    1.8966   -3.8832    0.0000 O   0  0  0  0  0  0  0  0  0  0  0  0
    3.5974   -1.9192    0.0000 C   0  0  0  0  0  0  0  0  0  0  0  0
    3.8808   -0.4462    0.0000 C   0  0  0  0  0  0  0  0  0  0  0  0
    5.2982    0.0448    0.0000 C   0  0  0  0  0  0  0  0  0  0  0  0
    5.5816    1.5178    0.0000 C   0  0  0  0  0  0  0  0  0  0  0  0
    6.9990    2.0088    0.0000 O   0  0  0  0  0  0  0  0  0  0  0  0
    8.1329    1.0269    0.0000 O   0  0  0  0  0  0  0  0  0  0  0  0
    4.4477    2.4998    0.0000 C   0  0  0  0  0  0  0  0  0  0  0  0
    3.0304    2.0087    0.0000 C   0  0  0  0  0  0  0  0  0  0  0  0
    2.7469    0.5358    0.0000 C   0  0  0  0  0  0  0  0  0  0  0  0
    1.6130    1.5177    0.0000 C   0  0  0  0  0  0  0  0  0  0  0  0
    1.3296    0.0448    0.0000 C   0  0  0  0  0  0  0  0  0  0  0  0
    0.1957    1.0267    0.0000 C   0  0  0  0  0  0  0  0  0  0  0  0
   -1.2217    0.5357    0.0000 C   0  0  0  0  0  0  0  0  0  0  0  0
   -2.3556    1.5177    0.0000 O   0  0  0  0  0  0  0  0  0  0  0  0
   -1.5052   -0.9373    0.0000 C   0  0  0  0  0  0  0  0  0  0  0  0
   -2.7355   -0.0792    0.0000 C   0  0  0  0  0  0  0  0  0  0  0  0
  2  1  1  6
  2  3  1  0
  3  4  1  0
  4  5  1  0
  5  6  2  0
  5  7  1  0
  2  8  1  0
  8  9  1  6
  9 10  1  0
 11 10  1  6
 11 12  1  0
 12 13  1  1
 13 14  1  1
 13 15  1  0
 16 15  1  1
 16 17  1  0
 17 18  1  0
 18 19  1  1
 19 20  1  0
 18 21  1  0
 21 22  1  0
 22 23  1  0
 23 24  1  6
 23 25  1  0
 25 26  1  6
 26 27  1  0
 27 28  1  1
 27 29  1  0
 29 30  1  6
 29  8  1  0
 29 11  1  0
 25 12  1  0
 23 16  1  0
M  END
>  <MS_ID>  (430) 
MS0452

>  <SMILES>  (430) 
C[C@H](CCC(=O)O)[C@H]1CC[C@H]2[C@@H]3[C@H](O)C[C@@H]4C[C@H](OO)CC[C@]4(C)[C@H]3C[C@H](O)[C@]12C

>  <Structure_dimension>  (430) 
2D

$$$$
MS0453
     RDKit          2D

 28 31  0  0  0  0  0  0  0  0999 V2000
   -4.6352   -2.6140    0.0000 C   0  0  0  0  0  0  0  0  0  0  0  0
   -3.5136   -1.6180    0.0000 C   0  0  0  0  0  0  0  0  0  0  0  0
   -3.8154   -0.1486    0.0000 C   0  0  0  0  0  0  0  0  0  0  0  0
   -5.2387    0.3247    0.0000 C   0  0  0  0  0  0  0  0  0  0  0  0
   -5.5405    1.7940    0.0000 C   0  0  0  0  0  0  0  0  0  0  0  0
   -4.4189    2.7900    0.0000 O   0  0  0  0  0  0  0  0  0  0  0  0
   -6.9639    2.2673    0.0000 C   0  0  0  0  0  0  0  0  0  0  0  0
   -7.2657    3.7367    0.0000 O   0  0  0  0  0  0  0  0  0  0  0  0
   -2.0902   -2.0913    0.0000 C   0  0  0  0  0  0  0  0  0  0  0  0
   -1.6365   -3.5210    0.0000 C   0  0  0  0  0  0  0  0  0  0  0  0
   -0.1366   -3.5313    0.0000 C   0  0  0  0  0  0  0  0  0  0  0  0
    0.3368   -2.1080    0.0000 C   0  0  0  0  0  0  0  0  0  0  0  0
    1.7112   -1.5073    0.0000 C   0  0  0  0  0  0  0  0  0  0  0  0
    2.9187   -2.3973    0.0000 C   0  0  0  0  0  0  0  0  0  0  0  0
    4.2932   -1.7966    0.0000 C   0  0  0  0  0  0  0  0  0  0  0  0
    4.4602   -0.3060    0.0000 C   0  0  0  0  0  0  0  0  0  0  0  0
    5.8347    0.2947    0.0000 C   0  0  0  0  0  0  0  0  0  0  0  0
    6.0017    1.7854    0.0000 C   0  0  0  0  0  0  0  0  0  0  0  0
    7.3762    2.3861    0.0000 O   0  0  0  0  0  0  0  0  0  0  0  0
    4.7943    2.6754    0.0000 C   0  0  0  0  0  0  0  0  0  0  0  0
    3.4198    2.0747    0.0000 C   0  0  0  0  0  0  0  0  0  0  0  0
    3.2528    0.5840    0.0000 C   0  0  0  0  0  0  0  0  0  0  0  0
    2.0453    1.4740    0.0000 C   0  0  0  0  0  0  0  0  0  0  0  0
    1.8783   -0.0166    0.0000 C   0  0  0  0  0  0  0  0  0  0  0  0
    0.6708    0.8734    0.0000 C   0  0  0  0  0  0  0  0  0  0  0  0
   -0.7036    0.2727    0.0000 C   0  0  0  0  0  0  0  0  0  0  0  0
   -0.8707   -1.2180    0.0000 C   0  0  0  0  0  0  0  0  0  0  0  0
   -2.1645   -0.4591    0.0000 C   0  0  0  0  0  0  0  0  0  0  0  0
  2  1  1  6
  2  3  1  0
  3  4  1  0
  4  5  1  0
  5  6  2  0
  5  7  1  0
  7  8  1  0
  2  9  1  0
  9 10  1  6
 10 11  1  0
 12 11  1  6
 12 13  1  0
 13 14  1  1
 14 15  1  0
 16 15  1  1
 16 17  1  0
 17 18  1  0
 18 19  1  1
 18 20  1  0
 20 21  1  0
 21 22  1  0
 22 23  1  6
 22 24  1  0
 24 25  1  6
 25 26  1  0
 26 27  1  0
 27 28  1  6
 27  9  1  0
 27 12  1  0
 24 13  1  0
 22 16  1  0
M  END
>  <MS_ID>  (431) 
MS0453

>  <SMILES>  (431) 
C[C@H](CCC(=O)CO)[C@H]1CC[C@H]2[C@@H]3CC[C@@H]4C[C@H](O)CC[C@]4(C)[C@H]3CC[C@]12C

>  <Structure_dimension>  (431) 
2D

$$$$
MS0454
     RDKit          2D

 29 32  0  0  0  0  0  0  0  0999 V2000
   -5.0303   -2.1373    0.0000 C   0  0  0  0  0  0  0  0  0  0  0  0
   -3.8594   -1.1998    0.0000 C   0  0  0  0  0  0  0  0  0  0  0  0
   -4.0858    0.2830    0.0000 C   0  0  0  0  0  0  0  0  0  0  0  0
   -5.4831    0.8284    0.0000 C   0  0  0  0  0  0  0  0  0  0  0  0
   -5.7095    2.3112    0.0000 C   0  0  0  0  0  0  0  0  0  0  0  0
   -4.5386    3.2487    0.0000 O   0  0  0  0  0  0  0  0  0  0  0  0
   -7.1069    2.8565    0.0000 O   0  0  0  0  0  0  0  0  0  0  0  0
   -2.4620   -1.7451    0.0000 C   0  0  0  0  0  0  0  0  0  0  0  0
   -2.0818   -3.1961    0.0000 C   0  0  0  0  0  0  0  0  0  0  0  0
   -0.5844   -3.2830    0.0000 C   0  0  0  0  0  0  0  0  0  0  0  0
   -0.0390   -1.8856    0.0000 C   0  0  0  0  0  0  0  0  0  0  0  0
    1.3643   -1.3559    0.0000 C   0  0  0  0  0  0  0  0  0  0  0  0
    2.5248   -2.3063    0.0000 C   0  0  0  0  0  0  0  0  0  0  0  0
    2.2819   -3.7865    0.0000 N   0  0  0  0  0  0  0  0  0  0  0  0
    3.9281   -1.7765    0.0000 C   0  0  0  0  0  0  0  0  0  0  0  0
    4.1710   -0.2963    0.0000 C   0  0  0  0  0  0  0  0  0  0  0  0
    5.5743    0.2334    0.0000 C   0  0  0  0  0  0  0  0  0  0  0  0
    5.8172    1.7136    0.0000 C   0  0  0  0  0  0  0  0  0  0  0  0
    7.2205    2.2434    0.0000 O   0  0  0  0  0  0  0  0  0  0  0  0
    4.6568    2.6641    0.0000 C   0  0  0  0  0  0  0  0  0  0  0  0
    3.2534    2.1343    0.0000 C   0  0  0  0  0  0  0  0  0  0  0  0
    3.0105    0.6541    0.0000 C   0  0  0  0  0  0  0  0  0  0  0  0
    1.8501    1.6046    0.0000 C   0  0  0  0  0  0  0  0  0  0  0  0
    1.6072    0.1244    0.0000 C   0  0  0  0  0  0  0  0  0  0  0  0
    0.4467    1.0748    0.0000 C   0  0  0  0  0  0  0  0  0  0  0  0
   -0.9566    0.5450    0.0000 C   0  0  0  0  0  0  0  0  0  0  0  0
   -2.1170    1.4955    0.0000 O   0  0  0  0  0  0  0  0  0  0  0  0
   -1.1995   -0.9352    0.0000 C   0  0  0  0  0  0  0  0  0  0  0  0
   -2.4529   -0.1112    0.0000 C   0  0  0  0  0  0  0  0  0  0  0  0
  2  1  1  6
  2  3  1  0
  3  4  1  0
  4  5  1  0
  5  6  2  0
  5  7  1  0
  2  8  1  0
  8  9  1  6
  9 10  1  0
 11 10  1  6
 11 12  1  0
 12 13  1  1
 13 14  1  1
 13 15  1  0
 16 15  1  1
 16 17  1  0
 17 18  1  0
 18 19  1  6
 18 20  1  0
 20 21  1  0
 21 22  1  0
 22 23  1  6
 22 24  1  0
 24 25  1  6
 25 26  1  0
 26 27  1  1
 26 28  1  0
 28 29  1  6
 28  8  1  0
 28 11  1  0
 24 12  1  0
 22 16  1  0
M  END
>  <MS_ID>  (432) 
MS0454

>  <SMILES>  (432) 
C[C@H](CCC(=O)O)[C@H]1CC[C@H]2[C@@H]3[C@H](N)C[C@@H]4C[C@@H](O)CC[C@]4(C)[C@H]3C[C@H](O)[C@]12C

>  <Structure_dimension>  (432) 
2D

$$$$
MS0455
     RDKit          2D

 32 35  0  0  0  0  0  0  0  0999 V2000
   -4.0792   -3.5557    0.0000 C   0  0  0  0  0  0  0  0  0  0  0  0
   -3.1619   -2.3688    0.0000 C   0  0  0  0  0  0  0  0  0  0  0  0
   -3.7311   -0.9810    0.0000 C   0  0  0  0  0  0  0  0  0  0  0  0
   -5.2175   -0.7800    0.0000 C   0  0  0  0  0  0  0  0  0  0  0  0
   -5.7867    0.6078    0.0000 C   0  0  0  0  0  0  0  0  0  0  0  0
   -7.2732    0.8088    0.0000 O   0  0  0  0  0  0  0  0  0  0  0  0
   -4.8694    1.7946    0.0000 O   0  0  0  0  0  0  0  0  0  0  0  0
   -5.4386    3.1824    0.0000 C   0  0  0  0  0  0  0  0  0  0  0  0
   -4.5213    4.3693    0.0000 N   0  0  0  0  0  0  0  0  0  0  0  0
   -6.9251    3.3834    0.0000 O   0  0  0  0  0  0  0  0  0  0  0  0
   -1.6754   -2.5698    0.0000 C   0  0  0  0  0  0  0  0  0  0  0  0
   -0.9643   -3.8905    0.0000 C   0  0  0  0  0  0  0  0  0  0  0  0
    0.5115   -3.6223    0.0000 C   0  0  0  0  0  0  0  0  0  0  0  0
    0.7125   -2.1359    0.0000 C   0  0  0  0  0  0  0  0  0  0  0  0
    1.9517   -1.2906    0.0000 C   0  0  0  0  0  0  0  0  0  0  0  0
    3.3033   -1.9411    0.0000 C   0  0  0  0  0  0  0  0  0  0  0  0
    3.4158   -3.4368    0.0000 O   0  0  0  0  0  0  0  0  0  0  0  0
    4.5424   -1.0958    0.0000 C   0  0  0  0  0  0  0  0  0  0  0  0
    5.8941   -1.7463    0.0000 O   0  0  0  0  0  0  0  0  0  0  0  0
    4.4300    0.4000    0.0000 C   0  0  0  0  0  0  0  0  0  0  0  0
    5.6691    1.2453    0.0000 C   0  0  0  0  0  0  0  0  0  0  0  0
    5.5567    2.7411    0.0000 C   0  0  0  0  0  0  0  0  0  0  0  0
    6.7958    3.5863    0.0000 O   0  0  0  0  0  0  0  0  0  0  0  0
    4.2050    3.3916    0.0000 C   0  0  0  0  0  0  0  0  0  0  0  0
    2.9659    2.5463    0.0000 C   0  0  0  0  0  0  0  0  0  0  0  0
    3.0784    1.0505    0.0000 C   0  0  0  0  0  0  0  0  0  0  0  0
    1.7267    1.7010    0.0000 C   0  0  0  0  0  0  0  0  0  0  0  0
    1.8392    0.2052    0.0000 C   0  0  0  0  0  0  0  0  0  0  0  0
    0.4876    0.8557    0.0000 C   0  0  0  0  0  0  0  0  0  0  0  0
   -0.7516    0.0104    0.0000 C   0  0  0  0  0  0  0  0  0  0  0  0
   -0.6391   -1.4854    0.0000 C   0  0  0  0  0  0  0  0  0  0  0  0
   -2.0513   -0.9797    0.0000 C   0  0  0  0  0  0  0  0  0  0  0  0
  2  1  1  6
  2  3  1  0
  3  4  1  0
  4  5  1  0
  5  6  2  0
  5  7  1  0
  7  8  1  0
  8  9  1  0
  8 10  2  0
  2 11  1  0
 11 12  1  6
 12 13  1  0
 14 13  1  6
 14 15  1  0
 15 16  1  1
 16 17  1  1
 16 18  1  0
 18 19  1  1
 18 20  1  0
 20 21  1  1
 21 22  1  0
 22 23  1  1
 22 24  1  0
 24 25  1  0
 25 26  1  0
 26 27  1  6
 26 28  1  0
 28 29  1  6
 29 30  1  0
 30 31  1  0
 31 32  1  6
 31 11  1  0
 31 14  1  0
 28 15  1  0
 26 20  1  0
M  END
>  <MS_ID>  (433) 
MS0455

>  <SMILES>  (433) 
C[C@H](CCC(=O)OC(N)=O)[C@H]1CC[C@H]2[C@@H]3[C@H](O)[C@H](O)[C@@H]4C[C@H](O)CC[C@]4(C)[C@H]3CC[C@]12C

>  <Structure_dimension>  (433) 
2D

$$$$
MS0456
     RDKit          2D

 31 34  0  0  0  0  0  0  0  0999 V2000
   -4.0382   -3.1592    0.0000 C   0  0  0  0  0  0  0  0  0  0  0  0
   -3.0416   -2.0381    0.0000 C   0  0  0  0  0  0  0  0  0  0  0  0
   -3.5143   -0.6145    0.0000 C   0  0  0  0  0  0  0  0  0  0  0  0
   -4.9835   -0.3121    0.0000 C   0  0  0  0  0  0  0  0  0  0  0  0
   -5.4561    1.1115    0.0000 C   0  0  0  0  0  0  0  0  0  0  0  0
   -4.4596    2.2326    0.0000 O   0  0  0  0  0  0  0  0  0  0  0  0
   -6.9253    1.4140    0.0000 C   0  0  0  0  0  0  0  0  0  0  0  0
   -7.3980    2.8376    0.0000 C   0  0  0  0  0  0  0  0  0  0  0  0
   -8.8672    3.1400    0.0000 O   0  0  0  0  0  0  0  0  0  0  0  0
   -1.5724   -2.3406    0.0000 C   0  0  0  0  0  0  0  0  0  0  0  0
   -0.9536   -3.7070    0.0000 C   0  0  0  0  0  0  0  0  0  0  0  0
    0.5372   -3.5406    0.0000 C   0  0  0  0  0  0  0  0  0  0  0  0
    0.8396   -2.0714    0.0000 C   0  0  0  0  0  0  0  0  0  0  0  0
    2.1338   -1.3131    0.0000 C   0  0  0  0  0  0  0  0  0  0  0  0
    3.4377   -2.0548    0.0000 C   0  0  0  0  0  0  0  0  0  0  0  0
    3.4473   -3.5547    0.0000 O   0  0  0  0  0  0  0  0  0  0  0  0
    4.7319   -1.2965    0.0000 C   0  0  0  0  0  0  0  0  0  0  0  0
    4.7223    0.2035    0.0000 C   0  0  0  0  0  0  0  0  0  0  0  0
    6.0165    0.9618    0.0000 C   0  0  0  0  0  0  0  0  0  0  0  0
    6.0069    2.4618    0.0000 C   0  0  0  0  0  0  0  0  0  0  0  0
    7.3011    3.2201    0.0000 O   0  0  0  0  0  0  0  0  0  0  0  0
    4.7030    3.2034    0.0000 C   0  0  0  0  0  0  0  0  0  0  0  0
    3.4088    2.4451    0.0000 C   0  0  0  0  0  0  0  0  0  0  0  0
    3.4184    0.9452    0.0000 C   0  0  0  0  0  0  0  0  0  0  0  0
    2.1146    1.6868    0.0000 C   0  0  0  0  0  0  0  0  0  0  0  0
    2.1242    0.1869    0.0000 C   0  0  0  0  0  0  0  0  0  0  0  0
    0.8204    0.9285    0.0000 C   0  0  0  0  0  0  0  0  0  0  0  0
   -0.4738    0.1702    0.0000 C   0  0  0  0  0  0  0  0  0  0  0  0
   -1.7776    0.9119    0.0000 O   0  0  0  0  0  0  0  0  0  0  0  0
   -0.4642   -1.3298    0.0000 C   0  0  0  0  0  0  0  0  0  0  0  0
   -1.8384   -0.7284    0.0000 C   0  0  0  0  0  0  0  0  0  0  0  0
  2  1  1  6
  2  3  1  0
  3  4  1  0
  4  5  1  0
  5  6  2  0
  5  7  1  0
  7  8  1  0
  8  9  1  0
  2 10  1  0
 10 11  1  6
 11 12  1  0
 13 12  1  6
 13 14  1  0
 14 15  1  1
 15 16  1  1
 15 17  1  0
 18 17  1  1
 18 19  1  0
 19 20  1  0
 20 21  1  1
 20 22  1  0
 22 23  1  0
 23 24  1  0
 24 25  1  6
 24 26  1  0
 26 27  1  6
 27 28  1  0
 28 29  2  0
 28 30  1  0
 30 31  1  6
 30 10  1  0
 30 13  1  0
 26 14  1  0
 24 18  1  0
M  END
>  <MS_ID>  (434) 
MS0456

>  <SMILES>  (434) 
C[C@H](CCC(=O)CCO)[C@H]1CC[C@H]2[C@@H]3[C@H](O)C[C@@H]4C[C@H](O)CC[C@]4(C)[C@H]3CC(=O)[C@]12C

>  <Structure_dimension>  (434) 
2D

$$$$
MS0457
     RDKit          2D

 30 33  0  0  0  0  0  0  0  0999 V2000
   -4.7023   -2.6242    0.0000 C   0  0  0  0  0  0  0  0  0  0  0  0
   -3.5985   -1.6085    0.0000 C   0  0  0  0  0  0  0  0  0  0  0  0
   -3.9263   -0.1448    0.0000 C   0  0  0  0  0  0  0  0  0  0  0  0
   -5.3578    0.3033    0.0000 C   0  0  0  0  0  0  0  0  0  0  0  0
   -5.6855    1.7670    0.0000 C   0  0  0  0  0  0  0  0  0  0  0  0
   -7.1171    2.2151    0.0000 O   0  0  0  0  0  0  0  0  0  0  0  0
   -4.5818    2.7827    0.0000 O   0  0  0  0  0  0  0  0  0  0  0  0
   -4.9095    4.2465    0.0000 N   0  0  0  0  0  0  0  0  0  0  0  0
   -2.1670   -2.0566    0.0000 C   0  0  0  0  0  0  0  0  0  0  0  0
   -1.6881   -3.4780    0.0000 C   0  0  0  0  0  0  0  0  0  0  0  0
   -0.1881   -3.4618    0.0000 C   0  0  0  0  0  0  0  0  0  0  0  0
    0.2599   -2.0303    0.0000 C   0  0  0  0  0  0  0  0  0  0  0  0
    1.6235   -1.4054    0.0000 C   0  0  0  0  0  0  0  0  0  0  0  0
    2.8465   -2.2738    0.0000 C   0  0  0  0  0  0  0  0  0  0  0  0
    2.7059   -3.7672    0.0000 O   0  0  0  0  0  0  0  0  0  0  0  0
    4.2102   -1.6489    0.0000 C   0  0  0  0  0  0  0  0  0  0  0  0
    4.3508   -0.1555    0.0000 C   0  0  0  0  0  0  0  0  0  0  0  0
    5.7144    0.4694    0.0000 C   0  0  0  0  0  0  0  0  0  0  0  0
    5.8550    1.9628    0.0000 C   0  0  0  0  0  0  0  0  0  0  0  0
    7.2187    2.5877    0.0000 O   0  0  0  0  0  0  0  0  0  0  0  0
    4.6320    2.8313    0.0000 C   0  0  0  0  0  0  0  0  0  0  0  0
    3.2684    2.2063    0.0000 C   0  0  0  0  0  0  0  0  0  0  0  0
    3.1278    0.7130    0.0000 C   0  0  0  0  0  0  0  0  0  0  0  0
    1.9048    1.5814    0.0000 C   0  0  0  0  0  0  0  0  0  0  0  0
    1.7642    0.0880    0.0000 C   0  0  0  0  0  0  0  0  0  0  0  0
    0.5411    0.9565    0.0000 C   0  0  0  0  0  0  0  0  0  0  0  0
   -0.8225    0.3316    0.0000 C   0  0  0  0  0  0  0  0  0  0  0  0
   -2.0455    1.2001    0.0000 O   0  0  0  0  0  0  0  0  0  0  0  0
   -0.9631   -1.1618    0.0000 C   0  0  0  0  0  0  0  0  0  0  0  0
   -2.2702   -0.4259    0.0000 C   0  0  0  0  0  0  0  0  0  0  0  0
  2  1  1  6
  2  3  1  0
  3  4  1  0
  4  5  1  0
  5  6  2  0
  5  7  1  0
  7  8  1  0
  2  9  1  0
  9 10  1  6
 10 11  1  0
 12 11  1  6
 12 13  1  0
 13 14  1  1
 14 15  1  1
 14 16  1  0
 17 16  1  1
 17 18  1  0
 18 19  1  0
 19 20  1  1
 19 21  1  0
 21 22  1  0
 22 23  1  0
 23 24  1  6
 23 25  1  0
 25 26  1  6
 26 27  1  0
 27 28  1  1
 27 29  1  0
 29 30  1  6
 29  9  1  0
 29 12  1  0
 25 13  1  0
 23 17  1  0
M  END
>  <MS_ID>  (435) 
MS0457

>  <SMILES>  (435) 
C[C@H](CCC(=O)ON)[C@H]1CC[C@H]2[C@@H]3[C@H](O)C[C@@H]4C[C@H](O)CC[C@]4(C)[C@H]3C[C@H](O)[C@]12C

>  <Structure_dimension>  (435) 
2D

$$$$
MS0458
     RDKit          2D

 28 31  0  0  0  0  0  0  0  0999 V2000
   -5.0096   -2.1352    0.0000 C   0  0  0  0  0  0  0  0  0  0  0  0
   -3.8132   -1.2303    0.0000 C   0  0  0  0  0  0  0  0  0  0  0  0
   -3.9987    0.2582    0.0000 C   0  0  0  0  0  0  0  0  0  0  0  0
   -5.3805    0.8418    0.0000 C   0  0  0  0  0  0  0  0  0  0  0  0
   -5.5659    2.3303    0.0000 C   0  0  0  0  0  0  0  0  0  0  0  0
   -4.3695    3.2351    0.0000 O   0  0  0  0  0  0  0  0  0  0  0  0
   -6.9477    2.9140    0.0000 O   0  0  0  0  0  0  0  0  0  0  0  0
   -2.4315   -1.8140    0.0000 C   0  0  0  0  0  0  0  0  0  0  0  0
   -2.0914   -3.2749    0.0000 C   0  0  0  0  0  0  0  0  0  0  0  0
   -0.5969   -3.4030    0.0000 C   0  0  0  0  0  0  0  0  0  0  0  0
   -0.0133   -2.0212    0.0000 C   0  0  0  0  0  0  0  0  0  0  0  0
    1.4041   -1.5304    0.0000 C   0  0  0  0  0  0  0  0  0  0  0  0
    2.5379   -2.5125    0.0000 C   0  0  0  0  0  0  0  0  0  0  0  0
    3.9554   -2.0216    0.0000 C   0  0  0  0  0  0  0  0  0  0  0  0
    4.2390   -0.5487    0.0000 C   0  0  0  0  0  0  0  0  0  0  0  0
    5.6564   -0.0578    0.0000 C   0  0  0  0  0  0  0  0  0  0  0  0
    5.9400    1.4151    0.0000 C   0  0  0  0  0  0  0  0  0  0  0  0
    7.3574    1.9060    0.0000 N   0  0  0  0  0  0  0  0  0  0  0  0
    4.8062    2.3972    0.0000 C   0  0  0  0  0  0  0  0  0  0  0  0
    3.3888    1.9064    0.0000 C   0  0  0  0  0  0  0  0  0  0  0  0
    3.1052    0.4334    0.0000 C   0  0  0  0  0  0  0  0  0  0  0  0
    1.9714    1.4155    0.0000 C   0  0  0  0  0  0  0  0  0  0  0  0
    1.6878   -0.0574    0.0000 C   0  0  0  0  0  0  0  0  0  0  0  0
    0.5540    0.9246    0.0000 C   0  0  0  0  0  0  0  0  0  0  0  0
   -0.8635    0.4338    0.0000 C   0  0  0  0  0  0  0  0  0  0  0  0
   -1.9973    1.4159    0.0000 O   0  0  0  0  0  0  0  0  0  0  0  0
   -1.1471   -1.0392    0.0000 C   0  0  0  0  0  0  0  0  0  0  0  0
   -2.3773   -0.1810    0.0000 C   0  0  0  0  0  0  0  0  0  0  0  0
  2  1  1  6
  2  3  1  0
  3  4  1  0
  4  5  1  0
  5  6  2  0
  5  7  1  0
  2  8  1  0
  8  9  1  6
  9 10  1  0
 11 10  1  6
 11 12  1  0
 12 13  1  1
 13 14  1  0
 15 14  1  1
 15 16  1  0
 16 17  1  0
 17 18  1  1
 17 19  1  0
 19 20  1  0
 20 21  1  0
 21 22  1  6
 21 23  1  0
 23 24  1  6
 24 25  1  0
 25 26  1  6
 25 27  1  0
 27 28  1  6
 27  8  1  0
 27 11  1  0
 23 12  1  0
 21 15  1  0
M  END
>  <MS_ID>  (436) 
MS0458

>  <SMILES>  (436) 
C[C@H](CCC(=O)O)[C@H]1CC[C@H]2[C@@H]3CC[C@@H]4C[C@H](N)CC[C@]4(C)[C@H]3C[C@@H](O)[C@]12C

>  <Structure_dimension>  (436) 
2D

$$$$
MS0459
     RDKit          2D

 30 33  0  0  0  0  0  0  0  0999 V2000
   -4.3209   -2.7536    0.0000 C   0  0  0  0  0  0  0  0  0  0  0  0
   -3.2523   -1.7010    0.0000 C   0  0  0  0  0  0  0  0  0  0  0  0
   -3.6295   -0.2492    0.0000 C   0  0  0  0  0  0  0  0  0  0  0  0
   -5.0755    0.1499    0.0000 C   0  0  0  0  0  0  0  0  0  0  0  0
   -5.4527    1.6017    0.0000 C   0  0  0  0  0  0  0  0  0  0  0  0
   -4.3841    2.6543    0.0000 O   0  0  0  0  0  0  0  0  0  0  0  0
   -6.8987    2.0009    0.0000 N   0  0  0  0  0  0  0  0  0  0  0  0
   -7.2759    3.4526    0.0000 C   0  0  0  0  0  0  0  0  0  0  0  0
   -7.9673    0.9482    0.0000 C   0  0  0  0  0  0  0  0  0  0  0  0
   -1.8064   -2.1002    0.0000 C   0  0  0  0  0  0  0  0  0  0  0  0
   -1.2794   -3.5046    0.0000 C   0  0  0  0  0  0  0  0  0  0  0  0
    0.2191   -3.4374    0.0000 C   0  0  0  0  0  0  0  0  0  0  0  0
    0.6183   -1.9915    0.0000 C   0  0  0  0  0  0  0  0  0  0  0  0
    1.9599   -1.3206    0.0000 C   0  0  0  0  0  0  0  0  0  0  0  0
    3.2117   -2.1470    0.0000 C   0  0  0  0  0  0  0  0  0  0  0  0
    3.1219   -3.6443    0.0000 O   0  0  0  0  0  0  0  0  0  0  0  0
    4.5533   -1.4762    0.0000 C   0  0  0  0  0  0  0  0  0  0  0  0
    4.6431    0.0211    0.0000 C   0  0  0  0  0  0  0  0  0  0  0  0
    5.9847    0.6920    0.0000 C   0  0  0  0  0  0  0  0  0  0  0  0
    6.0745    2.1893    0.0000 C   0  0  0  0  0  0  0  0  0  0  0  0
    7.4161    2.8602    0.0000 O   0  0  0  0  0  0  0  0  0  0  0  0
    4.8227    3.0158    0.0000 C   0  0  0  0  0  0  0  0  0  0  0  0
    3.4811    2.3449    0.0000 C   0  0  0  0  0  0  0  0  0  0  0  0
    3.3913    0.8476    0.0000 C   0  0  0  0  0  0  0  0  0  0  0  0
    2.1395    1.6740    0.0000 C   0  0  0  0  0  0  0  0  0  0  0  0
    2.0497    0.1767    0.0000 C   0  0  0  0  0  0  0  0  0  0  0  0
    0.7979    1.0031    0.0000 C   0  0  0  0  0  0  0  0  0  0  0  0
   -0.5437    0.3323    0.0000 C   0  0  0  0  0  0  0  0  0  0  0  0
   -0.6335   -1.1650    0.0000 C   0  0  0  0  0  0  0  0  0  0  0  0
   -1.9649   -0.4740    0.0000 C   0  0  0  0  0  0  0  0  0  0  0  0
  2  1  1  6
  2  3  1  0
  3  4  1  0
  4  5  1  0
  5  6  2  0
  5  7  1  0
  7  8  1  0
  7  9  1  0
  2 10  1  0
 10 11  1  6
 11 12  1  0
 13 12  1  6
 13 14  1  0
 14 15  1  1
 15 16  1  6
 15 17  1  0
 18 17  1  1
 18 19  1  0
 19 20  1  0
 20 21  1  1
 20 22  1  0
 22 23  1  0
 23 24  1  0
 24 25  1  6
 24 26  1  0
 26 27  1  6
 27 28  1  0
 28 29  1  0
 29 30  1  6
 29 10  1  0
 29 13  1  0
 26 14  1  0
 24 18  1  0
M  END
>  <MS_ID>  (437) 
MS0459

>  <SMILES>  (437) 
C[C@H](CCC(=O)N(C)C)[C@H]1CC[C@H]2[C@@H]3[C@@H](O)C[C@@H]4C[C@H](O)CC[C@]4(C)[C@H]3CC[C@]12C

>  <Structure_dimension>  (437) 
2D

$$$$
MS0460
     RDKit          2D

 33 36  0  0  0  0  0  0  0  0999 V2000
   -2.8663   -3.9244    0.0000 C   0  0  0  0  0  0  0  0  0  0  0  0
   -2.0510   -2.6653    0.0000 C   0  0  0  0  0  0  0  0  0  0  0  0
   -2.7339   -1.3297    0.0000 C   0  0  0  0  0  0  0  0  0  0  0  0
   -4.2319   -1.2532    0.0000 C   0  0  0  0  0  0  0  0  0  0  0  0
   -4.9147    0.0823    0.0000 C   0  0  0  0  0  0  0  0  0  0  0  0
   -4.0995    1.3415    0.0000 O   0  0  0  0  0  0  0  0  0  0  0  0
   -6.4128    0.1588    0.0000 C   0  0  0  0  0  0  0  0  0  0  0  0
   -7.0956    1.4944    0.0000 C   0  0  0  0  0  0  0  0  0  0  0  0
   -8.5936    1.5708    0.0000 C   0  0  0  0  0  0  0  0  0  0  0  0
   -9.2765    2.9064    0.0000 C   0  0  0  0  0  0  0  0  0  0  0  0
  -10.7745    2.9828    0.0000 O   0  0  0  0  0  0  0  0  0  0  0  0
   -0.5530   -2.7417    0.0000 C   0  0  0  0  0  0  0  0  0  0  0  0
    0.2657   -3.9986    0.0000 C   0  0  0  0  0  0  0  0  0  0  0  0
    1.7140   -3.6084    0.0000 C   0  0  0  0  0  0  0  0  0  0  0  0
    1.7905   -2.1103    0.0000 C   0  0  0  0  0  0  0  0  0  0  0  0
    2.9549   -1.1648    0.0000 C   0  0  0  0  0  0  0  0  0  0  0  0
    4.3560   -1.7004    0.0000 C   0  0  0  0  0  0  0  0  0  0  0  0
    4.5927   -3.1816    0.0000 O   0  0  0  0  0  0  0  0  0  0  0  0
    5.5204   -0.7548    0.0000 C   0  0  0  0  0  0  0  0  0  0  0  0
    5.2838    0.7264    0.0000 C   0  0  0  0  0  0  0  0  0  0  0  0
    6.4482    1.6720    0.0000 C   0  0  0  0  0  0  0  0  0  0  0  0
    6.2115    3.1532    0.0000 C   0  0  0  0  0  0  0  0  0  0  0  0
    7.3759    4.0988    0.0000 O   0  0  0  0  0  0  0  0  0  0  0  0
    4.8104    3.6888    0.0000 C   0  0  0  0  0  0  0  0  0  0  0  0
    3.6460    2.7432    0.0000 C   0  0  0  0  0  0  0  0  0  0  0  0
    3.8827    1.2620    0.0000 C   0  0  0  0  0  0  0  0  0  0  0  0
    2.4816    1.7977    0.0000 C   0  0  0  0  0  0  0  0  0  0  0  0
    2.7182    0.3165    0.0000 C   0  0  0  0  0  0  0  0  0  0  0  0
    1.3171    0.8521    0.0000 C   0  0  0  0  0  0  0  0  0  0  0  0
    0.1527   -0.0935    0.0000 C   0  0  0  0  0  0  0  0  0  0  0  0
   -1.2484    0.4421    0.0000 O   0  0  0  0  0  0  0  0  0  0  0  0
    0.3894   -1.5747    0.0000 C   0  0  0  0  0  0  0  0  0  0  0  0
   -1.0600   -1.1885    0.0000 C   0  0  0  0  0  0  0  0  0  0  0  0
  2  1  1  6
  2  3  1  0
  3  4  1  0
  4  5  1  0
  5  6  2  0
  5  7  1  0
  7  8  1  0
  8  9  1  0
  9 10  1  0
 10 11  1  0
  2 12  1  0
 12 13  1  6
 13 14  1  0
 15 14  1  6
 15 16  1  0
 16 17  1  1
 17 18  1  1
 17 19  1  0
 20 19  1  1
 20 21  1  0
 21 22  1  0
 22 23  1  1
 22 24  1  0
 24 25  1  0
 25 26  1  0
 26 27  1  6
 26 28  1  0
 28 29  1  6
 29 30  1  0
 30 31  1  1
 30 32  1  0
 32 33  1  6
 32 12  1  0
 32 15  1  0
 28 16  1  0
 26 20  1  0
M  END
>  <MS_ID>  (438) 
MS0460

>  <SMILES>  (438) 
C[C@H](CCC(=O)CCCCO)[C@H]1CC[C@H]2[C@@H]3[C@H](O)C[C@@H]4C[C@H](O)CC[C@]4(C)[C@H]3C[C@H](O)[C@]12C

>  <Structure_dimension>  (438) 
2D

$$$$
MS0461
     RDKit          2D

 27 30  0  0  0  0  0  0  0  0999 V2000
   -5.1023   -2.0364    0.0000 C   0  0  0  0  0  0  0  0  0  0  0  0
   -3.8978   -1.1425    0.0000 C   0  0  0  0  0  0  0  0  0  0  0  0
   -4.0697    0.3476    0.0000 C   0  0  0  0  0  0  0  0  0  0  0  0
   -5.4461    0.9438    0.0000 C   0  0  0  0  0  0  0  0  0  0  0  0
   -5.6180    2.4339    0.0000 C   0  0  0  0  0  0  0  0  0  0  0  0
   -6.9944    3.0301    0.0000 O   0  0  0  0  0  0  0  0  0  0  0  0
   -4.4135    3.3278    0.0000 S   0  0  0  0  0  0  0  0  0  0  0  0
   -2.5213   -1.7387    0.0000 C   0  0  0  0  0  0  0  0  0  0  0  0
   -2.1946   -3.2027    0.0000 C   0  0  0  0  0  0  0  0  0  0  0  0
   -0.7013   -3.3444    0.0000 C   0  0  0  0  0  0  0  0  0  0  0  0
   -0.1051   -1.9679    0.0000 C   0  0  0  0  0  0  0  0  0  0  0  0
    1.3167   -1.4900    0.0000 C   0  0  0  0  0  0  0  0  0  0  0  0
    2.4415   -2.4823    0.0000 C   0  0  0  0  0  0  0  0  0  0  0  0
    3.8633   -2.0044    0.0000 C   0  0  0  0  0  0  0  0  0  0  0  0
    4.1603   -0.5341    0.0000 C   0  0  0  0  0  0  0  0  0  0  0  0
    5.5821   -0.0561    0.0000 C   0  0  0  0  0  0  0  0  0  0  0  0
    5.8791    1.4142    0.0000 C   0  0  0  0  0  0  0  0  0  0  0  0
    7.3009    1.8921    0.0000 O   0  0  0  0  0  0  0  0  0  0  0  0
    4.7543    2.4065    0.0000 C   0  0  0  0  0  0  0  0  0  0  0  0
    3.3325    1.9286    0.0000 C   0  0  0  0  0  0  0  0  0  0  0  0
    3.0355    0.4583    0.0000 C   0  0  0  0  0  0  0  0  0  0  0  0
    1.9107    1.4506    0.0000 C   0  0  0  0  0  0  0  0  0  0  0  0
    1.6137   -0.0197    0.0000 C   0  0  0  0  0  0  0  0  0  0  0  0
    0.4888    0.9727    0.0000 C   0  0  0  0  0  0  0  0  0  0  0  0
   -0.9330    0.4947    0.0000 C   0  0  0  0  0  0  0  0  0  0  0  0
   -1.2300   -0.9756    0.0000 C   0  0  0  0  0  0  0  0  0  0  0  0
   -2.4524   -0.1062    0.0000 C   0  0  0  0  0  0  0  0  0  0  0  0
  2  1  1  6
  2  3  1  0
  3  4  1  0
  4  5  1  0
  5  6  2  0
  5  7  1  0
  2  8  1  0
  8  9  1  6
  9 10  1  0
 11 10  1  6
 11 12  1  0
 12 13  1  1
 13 14  1  0
 15 14  1  1
 15 16  1  0
 16 17  1  0
 17 18  1  6
 17 19  1  0
 19 20  1  0
 20 21  1  0
 21 22  1  6
 21 23  1  0
 23 24  1  6
 24 25  1  0
 25 26  1  0
 26 27  1  6
 26  8  1  0
 26 11  1  0
 23 12  1  0
 21 15  1  0
M  END
>  <MS_ID>  (439) 
MS0461

>  <SMILES>  (439) 
C[C@H](CCC(=O)S)[C@H]1CC[C@H]2[C@@H]3CC[C@@H]4C[C@@H](O)CC[C@]4(C)[C@H]3CC[C@]12C

>  <Structure_dimension>  (439) 
2D

$$$$
MS0462
     RDKit          2D

 30 33  0  0  0  0  0  0  0  0999 V2000
   -4.5685   -2.6908    0.0000 C   0  0  0  0  0  0  0  0  0  0  0  0
   -3.4838   -1.6548    0.0000 C   0  0  0  0  0  0  0  0  0  0  0  0
   -3.8388   -0.1974    0.0000 C   0  0  0  0  0  0  0  0  0  0  0  0
   -5.2784    0.2240    0.0000 C   0  0  0  0  0  0  0  0  0  0  0  0
   -5.6333    1.6814    0.0000 C   0  0  0  0  0  0  0  0  0  0  0  0
   -4.5486    2.7174    0.0000 O   0  0  0  0  0  0  0  0  0  0  0  0
   -7.0729    2.1027    0.0000 N   0  0  0  0  0  0  0  0  0  0  0  0
   -7.4279    3.5601    0.0000 N   0  0  0  0  0  0  0  0  0  0  0  0
   -2.0442   -2.0761    0.0000 C   0  0  0  0  0  0  0  0  0  0  0  0
   -1.5389   -3.4884    0.0000 C   0  0  0  0  0  0  0  0  0  0  0  0
   -0.0395   -3.4442    0.0000 C   0  0  0  0  0  0  0  0  0  0  0  0
    0.3818   -2.0046    0.0000 C   0  0  0  0  0  0  0  0  0  0  0  0
    1.7336   -1.3544    0.0000 C   0  0  0  0  0  0  0  0  0  0  0  0
    2.9725   -2.1999    0.0000 C   0  0  0  0  0  0  0  0  0  0  0  0
    2.8597   -3.6957    0.0000 O   0  0  0  0  0  0  0  0  0  0  0  0
    4.3243   -1.5497    0.0000 C   0  0  0  0  0  0  0  0  0  0  0  0
    4.4371   -0.0540    0.0000 C   0  0  0  0  0  0  0  0  0  0  0  0
    5.7888    0.5962    0.0000 C   0  0  0  0  0  0  0  0  0  0  0  0
    5.9016    2.0920    0.0000 C   0  0  0  0  0  0  0  0  0  0  0  0
    7.2534    2.7422    0.0000 O   0  0  0  0  0  0  0  0  0  0  0  0
    4.6627    2.9375    0.0000 C   0  0  0  0  0  0  0  0  0  0  0  0
    3.3109    2.2873    0.0000 C   0  0  0  0  0  0  0  0  0  0  0  0
    3.1981    0.7916    0.0000 C   0  0  0  0  0  0  0  0  0  0  0  0
    1.9591    1.6371    0.0000 C   0  0  0  0  0  0  0  0  0  0  0  0
    1.8464    0.1414    0.0000 C   0  0  0  0  0  0  0  0  0  0  0  0
    0.6074    0.9869    0.0000 C   0  0  0  0  0  0  0  0  0  0  0  0
   -0.7444    0.3367    0.0000 C   0  0  0  0  0  0  0  0  0  0  0  0
   -1.9833    1.1823    0.0000 O   0  0  0  0  0  0  0  0  0  0  0  0
   -0.8572   -1.1590    0.0000 C   0  0  0  0  0  0  0  0  0  0  0  0
   -2.1777   -0.4476    0.0000 C   0  0  0  0  0  0  0  0  0  0  0  0
  2  1  1  6
  2  3  1  0
  3  4  1  0
  4  5  1  0
  5  6  2  0
  5  7  1  0
  7  8  1  0
  2  9  1  0
  9 10  1  6
 10 11  1  0
 12 11  1  6
 12 13  1  0
 13 14  1  1
 14 15  1  1
 14 16  1  0
 17 16  1  1
 17 18  1  0
 18 19  1  0
 19 20  1  1
 19 21  1  0
 21 22  1  0
 22 23  1  0
 23 24  1  6
 23 25  1  0
 25 26  1  6
 26 27  1  0
 27 28  1  1
 27 29  1  0
 29 30  1  6
 29  9  1  0
 29 12  1  0
 25 13  1  0
 23 17  1  0
M  END
>  <MS_ID>  (440) 
MS0462

>  <SMILES>  (440) 
C[C@H](CCC(=O)NN)[C@H]1CC[C@H]2[C@@H]3[C@H](O)C[C@@H]4C[C@H](O)CC[C@]4(C)[C@H]3C[C@H](O)[C@]12C

>  <Structure_dimension>  (440) 
2D

$$$$
MS0463
     RDKit          2D

 28 31  0  0  0  0  0  0  0  0999 V2000
   -4.1269   -2.8452    0.0000 C   0  0  0  0  0  0  0  0  0  0  0  0
   -3.0726   -1.7782    0.0000 C   0  0  0  0  0  0  0  0  0  0  0  0
   -3.4694   -0.3317    0.0000 C   0  0  0  0  0  0  0  0  0  0  0  0
   -4.9206    0.0479    0.0000 C   0  0  0  0  0  0  0  0  0  0  0  0
   -5.3175    1.4944    0.0000 C   0  0  0  0  0  0  0  0  0  0  0  0
   -4.2632    2.5614    0.0000 O   0  0  0  0  0  0  0  0  0  0  0  0
   -6.7687    1.8740    0.0000 C   0  0  0  0  0  0  0  0  0  0  0  0
   -7.1655    3.3206    0.0000 O   0  0  0  0  0  0  0  0  0  0  0  0
   -1.6214   -2.1578    0.0000 C   0  0  0  0  0  0  0  0  0  0  0  0
   -1.0755   -3.5550    0.0000 C   0  0  0  0  0  0  0  0  0  0  0  0
    0.4219   -3.4675    0.0000 C   0  0  0  0  0  0  0  0  0  0  0  0
    0.8015   -2.0163    0.0000 C   0  0  0  0  0  0  0  0  0  0  0  0
    2.1339   -1.3274    0.0000 C   0  0  0  0  0  0  0  0  0  0  0  0
    3.3968   -2.1368    0.0000 C   0  0  0  0  0  0  0  0  0  0  0  0
    4.7292   -1.4479    0.0000 C   0  0  0  0  0  0  0  0  0  0  0  0
    4.7988    0.0505    0.0000 C   0  0  0  0  0  0  0  0  0  0  0  0
    6.1312    0.7394    0.0000 C   0  0  0  0  0  0  0  0  0  0  0  0
    6.2008    2.2378    0.0000 C   0  0  0  0  0  0  0  0  0  0  0  0
    4.9379    3.0473    0.0000 C   0  0  0  0  0  0  0  0  0  0  0  0
    3.6055    2.3583    0.0000 C   0  0  0  0  0  0  0  0  0  0  0  0
    3.5359    0.8599    0.0000 C   0  0  0  0  0  0  0  0  0  0  0  0
    2.2731    1.6694    0.0000 C   0  0  0  0  0  0  0  0  0  0  0  0
    2.2035    0.1710    0.0000 C   0  0  0  0  0  0  0  0  0  0  0  0
    0.9407    0.9804    0.0000 C   0  0  0  0  0  0  0  0  0  0  0  0
   -0.3918    0.2915    0.0000 C   0  0  0  0  0  0  0  0  0  0  0  0
   -1.6546    1.1009    0.0000 O   0  0  0  0  0  0  0  0  0  0  0  0
   -0.4613   -1.2069    0.0000 C   0  0  0  0  0  0  0  0  0  0  0  0
   -1.8019   -0.5339    0.0000 C   0  0  0  0  0  0  0  0  0  0  0  0
  2  1  1  6
  2  3  1  0
  3  4  1  0
  4  5  1  0
  5  6  2  0
  5  7  1  0
  7  8  1  0
  2  9  1  0
  9 10  1  6
 10 11  1  0
 12 11  1  6
 12 13  1  0
 13 14  1  1
 14 15  1  0
 16 15  1  1
 16 17  1  0
 17 18  1  0
 18 19  1  0
 19 20  1  0
 20 21  1  0
 21 22  1  6
 21 23  1  0
 23 24  1  6
 24 25  1  0
 25 26  1  6
 25 27  1  0
 27 28  1  6
 27  9  1  0
 27 12  1  0
 23 13  1  0
 21 16  1  0
M  END
>  <MS_ID>  (441) 
MS0463

>  <SMILES>  (441) 
C[C@H](CCC(=O)CO)[C@H]1CC[C@H]2[C@@H]3CC[C@@H]4CCCC[C@]4(C)[C@H]3C[C@@H](O)[C@]12C

>  <Structure_dimension>  (441) 
2D

$$$$
MS0464
     RDKit          2D

 30 33  0  0  0  0  0  0  0  0999 V2000
   -6.5353   -1.5594    0.0000 C   0  0  0  0  0  0  0  0  0  0  0  0
   -5.2713   -0.7518    0.0000 C   0  0  0  0  0  0  0  0  0  0  0  0
   -5.3386    0.7466    0.0000 C   0  0  0  0  0  0  0  0  0  0  0  0
   -6.6700    1.4376    0.0000 C   0  0  0  0  0  0  0  0  0  0  0  0
   -6.7373    2.9361    0.0000 C   0  0  0  0  0  0  0  0  0  0  0  0
   -8.0687    3.6270    0.0000 O   0  0  0  0  0  0  0  0  0  0  0  0
   -3.9399   -1.4428    0.0000 C   0  0  0  0  0  0  0  0  0  0  0  0
   -3.7163   -2.9260    0.0000 C   0  0  0  0  0  0  0  0  0  0  0  0
   -2.2366   -3.1717    0.0000 C   0  0  0  0  0  0  0  0  0  0  0  0
   -1.5456   -1.8404    0.0000 C   0  0  0  0  0  0  0  0  0  0  0  0
   -0.0939   -1.4630    0.0000 C   0  0  0  0  0  0  0  0  0  0  0  0
    0.9589   -2.5315    0.0000 C   0  0  0  0  0  0  0  0  0  0  0  0
    2.4106   -2.1541    0.0000 C   0  0  0  0  0  0  0  0  0  0  0  0
    2.8096   -0.7082    0.0000 C   0  0  0  0  0  0  0  0  0  0  0  0
    4.2614   -0.3308    0.0000 C   0  0  0  0  0  0  0  0  0  0  0  0
    4.6604    1.1152    0.0000 C   0  0  0  0  0  0  0  0  0  0  0  0
    6.1122    1.4926    0.0000 O   0  0  0  0  0  0  0  0  0  0  0  0
    7.1649    0.4240    0.0000 S   0  0  0  0  0  0  0  0  0  0  0  0
    6.0963   -0.6287    0.0000 O   0  0  0  0  0  0  0  0  0  0  0  0
    8.2334    1.4767    0.0000 O   0  0  0  0  0  0  0  0  0  0  0  0
    8.2176   -0.6445    0.0000 O   0  0  0  0  0  0  0  0  0  0  0  0
    3.6077    2.1837    0.0000 C   0  0  0  0  0  0  0  0  0  0  0  0
    2.1560    1.8063    0.0000 C   0  0  0  0  0  0  0  0  0  0  0  0
    1.7569    0.3604    0.0000 C   0  0  0  0  0  0  0  0  0  0  0  0
    0.7042    1.4289    0.0000 C   0  0  0  0  0  0  0  0  0  0  0  0
    0.3052   -0.0170    0.0000 C   0  0  0  0  0  0  0  0  0  0  0  0
   -0.7475    1.0515    0.0000 C   0  0  0  0  0  0  0  0  0  0  0  0
   -2.1993    0.6741    0.0000 C   0  0  0  0  0  0  0  0  0  0  0  0
   -2.5983   -0.7718    0.0000 C   0  0  0  0  0  0  0  0  0  0  0  0
   -3.7570    0.1808    0.0000 C   0  0  0  0  0  0  0  0  0  0  0  0
  2  1  1  6
  2  3  1  0
  3  4  1  0
  4  5  1  0
  5  6  2  0
  2  7  1  0
  7  8  1  6
  8  9  1  0
 10  9  1  6
 10 11  1  0
 11 12  1  1
 12 13  1  0
 14 13  1  1
 14 15  1  0
 15 16  1  0
 16 17  1  1
 17 18  1  0
 18 19  2  0
 18 20  2  0
 18 21  1  0
 16 22  1  0
 22 23  1  0
 23 24  1  0
 24 25  1  6
 24 26  1  0
 26 27  1  6
 27 28  1  0
 28 29  1  0
 29 30  1  6
 29  7  1  0
 29 10  1  0
 26 11  1  0
 24 14  1  0
M  END
>  <MS_ID>  (442) 
MS0464

>  <SMILES>  (442) 
C[C@H](CCC=O)[C@H]1CC[C@H]2[C@@H]3CC[C@@H]4C[C@H](OS(=O)(=O)O)CC[C@]4(C)[C@H]3CC[C@]12C

>  <Structure_dimension>  (442) 
2D

$$$$
MS0465
     RDKit          2D

 33 36  0  0  0  0  0  0  0  0999 V2000
   -3.3094   -3.6711    0.0000 C   0  0  0  0  0  0  0  0  0  0  0  0
   -2.4155   -2.4665    0.0000 C   0  0  0  0  0  0  0  0  0  0  0  0
   -3.0118   -1.0901    0.0000 C   0  0  0  0  0  0  0  0  0  0  0  0
   -4.5019   -0.9183    0.0000 C   0  0  0  0  0  0  0  0  0  0  0  0
   -5.0982    0.4581    0.0000 C   0  0  0  0  0  0  0  0  0  0  0  0
   -4.2043    1.6627    0.0000 O   0  0  0  0  0  0  0  0  0  0  0  0
   -6.5883    0.6300    0.0000 O   0  0  0  0  0  0  0  0  0  0  0  0
   -7.1845    2.0064    0.0000 C   0  0  0  0  0  0  0  0  0  0  0  0
   -8.5609    1.4101    0.0000 C   0  0  0  0  0  0  0  0  0  0  0  0
   -5.8081    2.6026    0.0000 C   0  0  0  0  0  0  0  0  0  0  0  0
   -7.7808    3.3828    0.0000 C   0  0  0  0  0  0  0  0  0  0  0  0
   -0.9254   -2.6383    0.0000 C   0  0  0  0  0  0  0  0  0  0  0  0
   -0.1885   -3.9449    0.0000 C   0  0  0  0  0  0  0  0  0  0  0  0
    1.2818   -3.6478    0.0000 C   0  0  0  0  0  0  0  0  0  0  0  0
    1.4536   -2.1577    0.0000 C   0  0  0  0  0  0  0  0  0  0  0  0
    2.6759   -1.2883    0.0000 C   0  0  0  0  0  0  0  0  0  0  0  0
    4.0400   -1.9122    0.0000 C   0  0  0  0  0  0  0  0  0  0  0  0
    4.1818   -3.4055    0.0000 O   0  0  0  0  0  0  0  0  0  0  0  0
    5.2624   -1.0428    0.0000 C   0  0  0  0  0  0  0  0  0  0  0  0
    5.1206    0.4505    0.0000 C   0  0  0  0  0  0  0  0  0  0  0  0
    6.3430    1.3199    0.0000 C   0  0  0  0  0  0  0  0  0  0  0  0
    6.2013    2.8132    0.0000 C   0  0  0  0  0  0  0  0  0  0  0  0
    7.4236    3.6826    0.0000 O   0  0  0  0  0  0  0  0  0  0  0  0
    4.8372    3.4371    0.0000 C   0  0  0  0  0  0  0  0  0  0  0  0
    3.6148    2.5677    0.0000 C   0  0  0  0  0  0  0  0  0  0  0  0
    3.7565    1.0744    0.0000 C   0  0  0  0  0  0  0  0  0  0  0  0
    2.3925    1.6983    0.0000 C   0  0  0  0  0  0  0  0  0  0  0  0
    2.5342    0.2050    0.0000 C   0  0  0  0  0  0  0  0  0  0  0  0
    1.1701    0.8289    0.0000 C   0  0  0  0  0  0  0  0  0  0  0  0
   -0.0523   -0.0405    0.0000 C   0  0  0  0  0  0  0  0  0  0  0  0
   -1.4164    0.5834    0.0000 O   0  0  0  0  0  0  0  0  0  0  0  0
    0.0895   -1.5338    0.0000 C   0  0  0  0  0  0  0  0  0  0  0  0
   -1.3324   -1.0559    0.0000 C   0  0  0  0  0  0  0  0  0  0  0  0
  2  1  1  6
  2  3  1  0
  3  4  1  0
  4  5  1  0
  5  6  2  0
  5  7  1  0
  7  8  1  0
  8  9  1  0
  8 10  1  0
  8 11  1  0
  2 12  1  0
 12 13  1  6
 13 14  1  0
 15 14  1  6
 15 16  1  0
 16 17  1  1
 17 18  1  1
 17 19  1  0
 20 19  1  1
 20 21  1  0
 21 22  1  0
 22 23  1  1
 22 24  1  0
 24 25  1  0
 25 26  1  0
 26 27  1  6
 26 28  1  0
 28 29  1  6
 29 30  1  0
 30 31  1  1
 30 32  1  0
 32 33  1  6
 32 12  1  0
 32 15  1  0
 28 16  1  0
 26 20  1  0
M  END
>  <MS_ID>  (443) 
MS0465

>  <SMILES>  (443) 
C[C@H](CCC(=O)OC(C)(C)C)[C@H]1CC[C@H]2[C@@H]3[C@H](O)C[C@@H]4C[C@H](O)CC[C@]4(C)[C@H]3C[C@H](O)[C@]12C

>  <Structure_dimension>  (443) 
2D

$$$$
MS0466
     RDKit          2D

 35 38  0  0  0  0  0  0  0  0999 V2000
   -1.8078   -5.2797    0.0000 C   0  0  0  0  0  0  0  0  0  0  0  0
   -1.3287   -3.8583    0.0000 C   0  0  0  0  0  0  0  0  0  0  0  0
   -2.3201   -2.7327    0.0000 C   0  0  0  0  0  0  0  0  0  0  0  0
   -3.7907   -3.0285    0.0000 C   0  0  0  0  0  0  0  0  0  0  0  0
   -4.7821   -1.9028    0.0000 C   0  0  0  0  0  0  0  0  0  0  0  0
   -6.2527   -2.1986    0.0000 O   0  0  0  0  0  0  0  0  0  0  0  0
   -4.3030   -0.4814    0.0000 O   0  0  0  0  0  0  0  0  0  0  0  0
   -5.2944    0.6442    0.0000 C   0  0  0  0  0  0  0  0  0  0  0  0
   -6.7650    0.3485    0.0000 O   0  0  0  0  0  0  0  0  0  0  0  0
   -4.8153    2.0657    0.0000 C   0  0  0  0  0  0  0  0  0  0  0  0
   -5.8068    3.1913    0.0000 C   0  0  0  0  0  0  0  0  0  0  0  0
   -5.3277    4.6127    0.0000 C   0  0  0  0  0  0  0  0  0  0  0  0
   -3.8571    4.9085    0.0000 O   0  0  0  0  0  0  0  0  0  0  0  0
   -6.3191    5.7384    0.0000 O   0  0  0  0  0  0  0  0  0  0  0  0
    0.1418   -3.5625    0.0000 C   0  0  0  0  0  0  0  0  0  0  0  0
    1.2455   -4.5784    0.0000 C   0  0  0  0  0  0  0  0  0  0  0  0
    2.5527   -3.8426    0.0000 C   0  0  0  0  0  0  0  0  0  0  0  0
    2.2569   -2.3721    0.0000 C   0  0  0  0  0  0  0  0  0  0  0  0
    3.1518   -1.1683    0.0000 C   0  0  0  0  0  0  0  0  0  0  0  0
    4.6418   -1.3414    0.0000 C   0  0  0  0  0  0  0  0  0  0  0  0
    5.2368   -2.7183    0.0000 O   0  0  0  0  0  0  0  0  0  0  0  0
    5.5367   -0.1376    0.0000 C   0  0  0  0  0  0  0  0  0  0  0  0
    4.9416    1.2393    0.0000 C   0  0  0  0  0  0  0  0  0  0  0  0
    5.8365    2.4431    0.0000 C   0  0  0  0  0  0  0  0  0  0  0  0
    5.2415    3.8201    0.0000 C   0  0  0  0  0  0  0  0  0  0  0  0
    6.1364    5.0239    0.0000 O   0  0  0  0  0  0  0  0  0  0  0  0
    3.7515    3.9932    0.0000 C   0  0  0  0  0  0  0  0  0  0  0  0
    2.8566    2.7894    0.0000 C   0  0  0  0  0  0  0  0  0  0  0  0
    3.4516    1.4124    0.0000 C   0  0  0  0  0  0  0  0  0  0  0  0
    1.9617    1.5856    0.0000 C   0  0  0  0  0  0  0  0  0  0  0  0
    2.5567    0.2086    0.0000 C   0  0  0  0  0  0  0  0  0  0  0  0
    1.0667    0.3818    0.0000 C   0  0  0  0  0  0  0  0  0  0  0  0
    0.1718   -0.8220    0.0000 C   0  0  0  0  0  0  0  0  0  0  0  0
    0.7669   -2.1990    0.0000 C   0  0  0  0  0  0  0  0  0  0  0  0
   -0.7330   -2.1825    0.0000 C   0  0  0  0  0  0  0  0  0  0  0  0
  2  1  1  6
  2  3  1  0
  3  4  1  0
  4  5  1  0
  5  6  2  0
  5  7  1  0
  7  8  1  0
  8  9  2  0
  8 10  1  0
 10 11  1  0
 11 12  1  0
 12 13  2  0
 12 14  1  0
  2 15  1  0
 15 16  1  6
 16 17  1  0
 18 17  1  6
 18 19  1  0
 19 20  1  1
 20 21  1  6
 20 22  1  0
 23 22  1  1
 23 24  1  0
 24 25  1  0
 25 26  1  1
 25 27  1  0
 27 28  1  0
 28 29  1  0
 29 30  1  6
 29 31  1  0
 31 32  1  6
 32 33  1  0
 33 34  1  0
 34 35  1  6
 34 15  1  0
 34 18  1  0
 31 19  1  0
 29 23  1  0
M  END
>  <MS_ID>  (444) 
MS0466

>  <SMILES>  (444) 
C[C@H](CCC(=O)OC(=O)CCC(=O)O)[C@H]1CC[C@H]2[C@@H]3[C@@H](O)C[C@@H]4C[C@H](O)CC[C@]4(C)[C@H]3CC[C@]12C

>  <Structure_dimension>  (444) 
2D

$$$$
MS0468
     RDKit          2D

 34 37  0  0  0  0  0  0  0  0999 V2000
   -1.9628   -4.3460    0.0000 C   0  0  0  0  0  0  0  0  0  0  0  0
   -1.2213   -3.0421    0.0000 C   0  0  0  0  0  0  0  0  0  0  0  0
   -1.9798   -1.7480    0.0000 C   0  0  0  0  0  0  0  0  0  0  0  0
   -3.4798   -1.7579    0.0000 C   0  0  0  0  0  0  0  0  0  0  0  0
   -4.2383   -0.4638    0.0000 C   0  0  0  0  0  0  0  0  0  0  0  0
   -3.4968    0.8402    0.0000 O   0  0  0  0  0  0  0  0  0  0  0  0
   -5.7383   -0.4736    0.0000 C   0  0  0  0  0  0  0  0  0  0  0  0
   -6.4968    0.8205    0.0000 C   0  0  0  0  0  0  0  0  0  0  0  0
   -7.9967    0.8106    0.0000 C   0  0  0  0  0  0  0  0  0  0  0  0
   -8.7552    2.1047    0.0000 S   0  0  0  0  0  0  0  0  0  0  0  0
  -10.0493    1.3462    0.0000 O   0  0  0  0  0  0  0  0  0  0  0  0
   -7.4611    2.8632    0.0000 O   0  0  0  0  0  0  0  0  0  0  0  0
   -9.5137    3.3988    0.0000 O   0  0  0  0  0  0  0  0  0  0  0  0
    0.2786   -3.0323    0.0000 C   0  0  0  0  0  0  0  0  0  0  0  0
    1.1683   -4.2400    0.0000 C   0  0  0  0  0  0  0  0  0  0  0  0
    2.5918   -3.7671    0.0000 C   0  0  0  0  0  0  0  0  0  0  0  0
    2.5819   -2.2672    0.0000 C   0  0  0  0  0  0  0  0  0  0  0  0
    3.6901   -1.2562    0.0000 C   0  0  0  0  0  0  0  0  0  0  0  0
    5.1196   -1.7103    0.0000 C   0  0  0  0  0  0  0  0  0  0  0  0
    6.2278   -0.6993    0.0000 C   0  0  0  0  0  0  0  0  0  0  0  0
    5.9063    0.7658    0.0000 C   0  0  0  0  0  0  0  0  0  0  0  0
    7.0144    1.7768    0.0000 C   0  0  0  0  0  0  0  0  0  0  0  0
    6.6929    3.2419    0.0000 C   0  0  0  0  0  0  0  0  0  0  0  0
    7.8010    4.2529    0.0000 O   0  0  0  0  0  0  0  0  0  0  0  0
    5.2633    3.6961    0.0000 C   0  0  0  0  0  0  0  0  0  0  0  0
    4.1552    2.6851    0.0000 C   0  0  0  0  0  0  0  0  0  0  0  0
    4.4767    1.2200    0.0000 C   0  0  0  0  0  0  0  0  0  0  0  0
    3.0471    1.6741    0.0000 C   0  0  0  0  0  0  0  0  0  0  0  0
    3.3686    0.2090    0.0000 C   0  0  0  0  0  0  0  0  0  0  0  0
    1.9390    0.6631    0.0000 C   0  0  0  0  0  0  0  0  0  0  0  0
    0.8309   -0.3479    0.0000 C   0  0  0  0  0  0  0  0  0  0  0  0
   -0.5987    0.1063    0.0000 O   0  0  0  0  0  0  0  0  0  0  0  0
    1.1523   -1.8130    0.0000 C   0  0  0  0  0  0  0  0  0  0  0  0
   -0.3169   -1.5108    0.0000 C   0  0  0  0  0  0  0  0  0  0  0  0
  2  1  1  6
  2  3  1  0
  3  4  1  0
  4  5  1  0
  5  6  2  0
  5  7  1  0
  7  8  1  0
  8  9  1  0
  9 10  1  0
 10 11  2  0
 10 12  2  0
 10 13  1  0
  2 14  1  0
 14 15  1  6
 15 16  1  0
 17 16  1  6
 17 18  1  0
 18 19  1  1
 19 20  1  0
 21 20  1  1
 21 22  1  0
 22 23  1  0
 23 24  1  1
 23 25  1  0
 25 26  1  0
 26 27  1  0
 27 28  1  6
 27 29  1  0
 29 30  1  6
 30 31  1  0
 31 32  1  1
 31 33  1  0
 33 34  1  6
 33 14  1  0
 33 17  1  0
 29 18  1  0
 27 21  1  0
M  END
>  <MS_ID>  (445) 
MS0468

>  <SMILES>  (445) 
C[C@H](CCC(=O)CCCS(=O)(=O)O)[C@H]1CC[C@H]2[C@@H]3CC[C@@H]4C[C@H](O)CC[C@]4(C)[C@H]3C[C@H](O)[C@]12C

>  <Structure_dimension>  (445) 
2D

$$$$
MS0469
     RDKit          2D

 32 35  0  0  0  0  0  0  0  0999 V2000
   -3.4546   -3.6059    0.0000 C   0  0  0  0  0  0  0  0  0  0  0  0
   -2.5561   -2.4048    0.0000 C   0  0  0  0  0  0  0  0  0  0  0  0
   -3.1471   -1.0261    0.0000 C   0  0  0  0  0  0  0  0  0  0  0  0
   -4.6366   -0.8486    0.0000 C   0  0  0  0  0  0  0  0  0  0  0  0
   -5.2276    0.5301    0.0000 C   0  0  0  0  0  0  0  0  0  0  0  0
   -4.3291    1.7312    0.0000 O   0  0  0  0  0  0  0  0  0  0  0  0
   -6.7170    0.7076    0.0000 O   0  0  0  0  0  0  0  0  0  0  0  0
   -7.3080    2.0863    0.0000 C   0  0  0  0  0  0  0  0  0  0  0  0
   -8.7975    2.2638    0.0000 C   0  0  0  0  0  0  0  0  0  0  0  0
   -9.3885    3.6424    0.0000 O   0  0  0  0  0  0  0  0  0  0  0  0
   -1.0667   -2.5823    0.0000 C   0  0  0  0  0  0  0  0  0  0  0  0
   -0.3348   -3.8917    0.0000 C   0  0  0  0  0  0  0  0  0  0  0  0
    1.1366   -3.6002    0.0000 C   0  0  0  0  0  0  0  0  0  0  0  0
    1.3141   -2.1108    0.0000 C   0  0  0  0  0  0  0  0  0  0  0  0
    2.5398   -1.2460    0.0000 C   0  0  0  0  0  0  0  0  0  0  0  0
    3.9015   -1.8751    0.0000 C   0  0  0  0  0  0  0  0  0  0  0  0
    4.0375   -3.3690    0.0000 O   0  0  0  0  0  0  0  0  0  0  0  0
    5.1272   -1.0104    0.0000 C   0  0  0  0  0  0  0  0  0  0  0  0
    4.9911    0.4834    0.0000 C   0  0  0  0  0  0  0  0  0  0  0  0
    6.2168    1.3481    0.0000 C   0  0  0  0  0  0  0  0  0  0  0  0
    6.0808    2.8419    0.0000 C   0  0  0  0  0  0  0  0  0  0  0  0
    7.3064    3.7067    0.0000 O   0  0  0  0  0  0  0  0  0  0  0  0
    4.7191    3.4710    0.0000 C   0  0  0  0  0  0  0  0  0  0  0  0
    3.4934    2.6063    0.0000 C   0  0  0  0  0  0  0  0  0  0  0  0
    3.6294    1.1125    0.0000 C   0  0  0  0  0  0  0  0  0  0  0  0
    2.2677    1.7416    0.0000 C   0  0  0  0  0  0  0  0  0  0  0  0
    2.4038    0.2478    0.0000 C   0  0  0  0  0  0  0  0  0  0  0  0
    1.0421    0.8769    0.0000 C   0  0  0  0  0  0  0  0  0  0  0  0
   -0.1836    0.0122    0.0000 C   0  0  0  0  0  0  0  0  0  0  0  0
   -1.5453    0.6413    0.0000 O   0  0  0  0  0  0  0  0  0  0  0  0
   -0.0476   -1.4817    0.0000 C   0  0  0  0  0  0  0  0  0  0  0  0
   -1.4676   -0.9983    0.0000 C   0  0  0  0  0  0  0  0  0  0  0  0
  2  1  1  6
  2  3  1  0
  3  4  1  0
  4  5  1  0
  5  6  2  0
  5  7  1  0
  7  8  1  0
  8  9  1  0
  9 10  1  0
  2 11  1  0
 11 12  1  6
 12 13  1  0
 14 13  1  6
 14 15  1  0
 15 16  1  1
 16 17  1  1
 16 18  1  0
 19 18  1  1
 19 20  1  0
 20 21  1  0
 21 22  2  0
 21 23  1  0
 23 24  1  0
 24 25  1  0
 25 26  1  6
 25 27  1  0
 27 28  1  6
 28 29  1  0
 29 30  1  1
 29 31  1  0
 31 32  1  6
 31 11  1  0
 31 14  1  0
 27 15  1  0
 25 19  1  0
M  END
>  <MS_ID>  (446) 
MS0469

>  <SMILES>  (446) 
C[C@H](CCC(=O)OCCO)[C@H]1CC[C@H]2[C@@H]3[C@H](O)C[C@@H]4CC(=O)CC[C@]4(C)[C@H]3C[C@H](O)[C@]12C

>  <Structure_dimension>  (446) 
2D

$$$$
MS0470
     RDKit          2D

 32 35  0  0  0  0  0  0  0  0999 V2000
   -3.2905   -3.6805    0.0000 C   0  0  0  0  0  0  0  0  0  0  0  0
   -2.3609   -2.5033    0.0000 C   0  0  0  0  0  0  0  0  0  0  0  0
   -2.9157   -1.1096    0.0000 C   0  0  0  0  0  0  0  0  0  0  0  0
   -4.4000   -0.8932    0.0000 C   0  0  0  0  0  0  0  0  0  0  0  0
   -4.9547    0.5004    0.0000 C   0  0  0  0  0  0  0  0  0  0  0  0
   -4.0251    1.6776    0.0000 O   0  0  0  0  0  0  0  0  0  0  0  0
   -6.4390    0.7168    0.0000 C   0  0  0  0  0  0  0  0  0  0  0  0
   -6.9938    2.1105    0.0000 S   0  0  0  0  0  0  0  0  0  0  0  0
   -8.3874    1.5557    0.0000 O   0  0  0  0  0  0  0  0  0  0  0  0
   -5.6001    2.6652    0.0000 O   0  0  0  0  0  0  0  0  0  0  0  0
   -7.5485    3.5041    0.0000 O   0  0  0  0  0  0  0  0  0  0  0  0
   -0.8766   -2.7197    0.0000 C   0  0  0  0  0  0  0  0  0  0  0  0
   -0.1792   -4.0477    0.0000 C   0  0  0  0  0  0  0  0  0  0  0  0
    1.2993   -3.7949    0.0000 C   0  0  0  0  0  0  0  0  0  0  0  0
    1.5157   -2.3106    0.0000 C   0  0  0  0  0  0  0  0  0  0  0  0
    2.7636   -1.4782    0.0000 C   0  0  0  0  0  0  0  0  0  0  0  0
    4.1084   -2.1427    0.0000 C   0  0  0  0  0  0  0  0  0  0  0  0
    5.3562   -1.3103    0.0000 C   0  0  0  0  0  0  0  0  0  0  0  0
    5.2593    0.1866    0.0000 C   0  0  0  0  0  0  0  0  0  0  0  0
    6.5071    1.0189    0.0000 C   0  0  0  0  0  0  0  0  0  0  0  0
    6.4102    2.5158    0.0000 C   0  0  0  0  0  0  0  0  0  0  0  0
    7.6581    3.3482    0.0000 O   0  0  0  0  0  0  0  0  0  0  0  0
    5.0654    3.1803    0.0000 C   0  0  0  0  0  0  0  0  0  0  0  0
    3.8176    2.3479    0.0000 C   0  0  0  0  0  0  0  0  0  0  0  0
    3.9145    0.8511    0.0000 C   0  0  0  0  0  0  0  0  0  0  0  0
    2.5697    1.5155    0.0000 C   0  0  0  0  0  0  0  0  0  0  0  0
    2.6666    0.0187    0.0000 C   0  0  0  0  0  0  0  0  0  0  0  0
    1.3218    0.6832    0.0000 C   0  0  0  0  0  0  0  0  0  0  0  0
    0.0740   -0.1492    0.0000 C   0  0  0  0  0  0  0  0  0  0  0  0
   -1.2708    0.5153    0.0000 O   0  0  0  0  0  0  0  0  0  0  0  0
    0.1709   -1.6461    0.0000 C   0  0  0  0  0  0  0  0  0  0  0  0
   -1.2360   -1.1258    0.0000 C   0  0  0  0  0  0  0  0  0  0  0  0
  2  1  1  6
  2  3  1  0
  3  4  1  0
  4  5  1  0
  5  6  2  0
  5  7  1  0
  7  8  1  0
  8  9  2  0
  8 10  2  0
  8 11  1  0
  2 12  1  0
 12 13  1  6
 13 14  1  0
 15 14  1  6
 15 16  1  0
 16 17  1  1
 17 18  1  0
 19 18  1  1
 19 20  1  0
 20 21  1  0
 21 22  1  1
 21 23  1  0
 23 24  1  0
 24 25  1  0
 25 26  1  6
 25 27  1  0
 27 28  1  6
 28 29  1  0
 29 30  1  1
 29 31  1  0
 31 32  1  6
 31 12  1  0
 31 15  1  0
 27 16  1  0
 25 19  1  0
M  END
>  <MS_ID>  (447) 
MS0470

>  <SMILES>  (447) 
C[C@H](CCC(=O)CS(=O)(=O)O)[C@H]1CC[C@H]2[C@@H]3CC[C@@H]4C[C@H](O)CC[C@]4(C)[C@H]3C[C@H](O)[C@]12C

>  <Structure_dimension>  (447) 
2D

$$$$
MS0471
     RDKit          2D

 30 33  0  0  0  0  0  0  0  0999 V2000
   -3.1708   -3.5872    0.0000 C   0  0  0  0  0  0  0  0  0  0  0  0
   -2.2740   -2.3848    0.0000 C   0  0  0  0  0  0  0  0  0  0  0  0
   -2.8669   -1.0070    0.0000 C   0  0  0  0  0  0  0  0  0  0  0  0
   -4.3566   -0.8315    0.0000 C   0  0  0  0  0  0  0  0  0  0  0  0
   -4.9495    0.5464    0.0000 C   0  0  0  0  0  0  0  0  0  0  0  0
   -4.0527    1.7488    0.0000 O   0  0  0  0  0  0  0  0  0  0  0  0
   -6.4392    0.7219    0.0000 C   0  0  0  0  0  0  0  0  0  0  0  0
   -7.0321    2.0997    0.0000 C   0  0  0  0  0  0  0  0  0  0  0  0
   -6.1352    3.3021    0.0000 O   0  0  0  0  0  0  0  0  0  0  0  0
   -8.5218    2.2752    0.0000 O   0  0  0  0  0  0  0  0  0  0  0  0
   -0.7843   -2.5603    0.0000 C   0  0  0  0  0  0  0  0  0  0  0  0
   -0.0507   -3.8686    0.0000 C   0  0  0  0  0  0  0  0  0  0  0  0
    1.4203   -3.5752    0.0000 C   0  0  0  0  0  0  0  0  0  0  0  0
    1.5958   -2.0855    0.0000 C   0  0  0  0  0  0  0  0  0  0  0  0
    2.8203   -1.2191    0.0000 C   0  0  0  0  0  0  0  0  0  0  0  0
    4.1829   -1.8463    0.0000 C   0  0  0  0  0  0  0  0  0  0  0  0
    5.4074   -0.9799    0.0000 C   0  0  0  0  0  0  0  0  0  0  0  0
    5.2693    0.5137    0.0000 C   0  0  0  0  0  0  0  0  0  0  0  0
    6.4938    1.3801    0.0000 C   0  0  0  0  0  0  0  0  0  0  0  0
    6.3557    2.8737    0.0000 C   0  0  0  0  0  0  0  0  0  0  0  0
    4.9931    3.5010    0.0000 C   0  0  0  0  0  0  0  0  0  0  0  0
    3.7686    2.6346    0.0000 C   0  0  0  0  0  0  0  0  0  0  0  0
    3.9067    1.1409    0.0000 C   0  0  0  0  0  0  0  0  0  0  0  0
    2.5442    1.7682    0.0000 C   0  0  0  0  0  0  0  0  0  0  0  0
    2.6822    0.2745    0.0000 C   0  0  0  0  0  0  0  0  0  0  0  0
    1.3197    0.9018    0.0000 C   0  0  0  0  0  0  0  0  0  0  0  0
    0.0952    0.0354    0.0000 C   0  0  0  0  0  0  0  0  0  0  0  0
   -1.2674    0.6626    0.0000 O   0  0  0  0  0  0  0  0  0  0  0  0
    0.2333   -1.4583    0.0000 C   0  0  0  0  0  0  0  0  0  0  0  0
   -1.1874   -0.9769    0.0000 C   0  0  0  0  0  0  0  0  0  0  0  0
  2  1  1  6
  2  3  1  0
  3  4  1  0
  4  5  1  0
  5  6  2  0
  5  7  1  0
  7  8  1  0
  8  9  2  0
  8 10  1  0
  2 11  1  0
 11 12  1  6
 12 13  1  0
 14 13  1  6
 14 15  1  0
 15 16  1  1
 16 17  1  0
 18 17  1  1
 18 19  1  0
 19 20  1  0
 20 21  1  0
 21 22  1  0
 22 23  1  0
 23 24  1  6
 23 25  1  0
 25 26  1  6
 26 27  1  0
 27 28  1  1
 27 29  1  0
 29 30  1  6
 29 11  1  0
 29 14  1  0
 25 15  1  0
 23 18  1  0
M  END
>  <MS_ID>  (448) 
MS0471

>  <SMILES>  (448) 
C[C@H](CCC(=O)CC(=O)O)[C@H]1CC[C@H]2[C@@H]3CC[C@@H]4CCCC[C@]4(C)[C@H]3C[C@H](O)[C@]12C

>  <Structure_dimension>  (448) 
2D

$$$$
MS0472
     RDKit          2D

 37 41  0  0  0  0  0  0  0  0999 V2000
   -1.5359   -4.6421    0.0000 C   0  0  0  0  0  0  0  0  0  0  0  0
   -0.9114   -3.2783    0.0000 C   0  0  0  0  0  0  0  0  0  0  0  0
   -1.7803   -2.0555    0.0000 C   0  0  0  0  0  0  0  0  0  0  0  0
   -3.2736   -2.1966    0.0000 C   0  0  0  0  0  0  0  0  0  0  0  0
   -4.1424   -0.9738    0.0000 C   0  0  0  0  0  0  0  0  0  0  0  0
   -3.5179    0.3900    0.0000 O   0  0  0  0  0  0  0  0  0  0  0  0
   -5.6358   -1.1149    0.0000 O   0  0  0  0  0  0  0  0  0  0  0  0
   -6.5046    0.1079    0.0000 C   0  0  0  0  0  0  0  0  0  0  0  0
   -8.0045    0.1237    0.0000 C   0  0  0  0  0  0  0  0  0  0  0  0
   -8.4530    1.5551    0.0000 C   0  0  0  0  0  0  0  0  0  0  0  0
   -9.8746    2.0336    0.0000 O   0  0  0  0  0  0  0  0  0  0  0  0
   -7.2303    2.4239    0.0000 C   0  0  0  0  0  0  0  0  0  0  0  0
   -7.2144    3.9239    0.0000 O   0  0  0  0  0  0  0  0  0  0  0  0
   -6.0261    1.5295    0.0000 C   0  0  0  0  0  0  0  0  0  0  0  0
   -4.5947    1.9780    0.0000 O   0  0  0  0  0  0  0  0  0  0  0  0
    0.5819   -3.1372    0.0000 C   0  0  0  0  0  0  0  0  0  0  0  0
    1.5738   -4.2624    0.0000 C   0  0  0  0  0  0  0  0  0  0  0  0
    2.9505   -3.6668    0.0000 C   0  0  0  0  0  0  0  0  0  0  0  0
    2.8094   -2.1735    0.0000 C   0  0  0  0  0  0  0  0  0  0  0  0
    3.8248   -1.0694    0.0000 C   0  0  0  0  0  0  0  0  0  0  0  0
    5.2887   -1.3967    0.0000 C   0  0  0  0  0  0  0  0  0  0  0  0
    5.7371   -2.8281    0.0000 O   0  0  0  0  0  0  0  0  0  0  0  0
    6.3041   -0.2926    0.0000 C   0  0  0  0  0  0  0  0  0  0  0  0
    5.8556    1.1388    0.0000 C   0  0  0  0  0  0  0  0  0  0  0  0
    6.8710    2.2428    0.0000 C   0  0  0  0  0  0  0  0  0  0  0  0
    6.4225    3.6742    0.0000 C   0  0  0  0  0  0  0  0  0  0  0  0
    7.4379    4.7783    0.0000 O   0  0  0  0  0  0  0  0  0  0  0  0
    4.9587    4.0016    0.0000 C   0  0  0  0  0  0  0  0  0  0  0  0
    3.9433    2.8975    0.0000 C   0  0  0  0  0  0  0  0  0  0  0  0
    4.3918    1.4661    0.0000 C   0  0  0  0  0  0  0  0  0  0  0  0
    2.9279    1.7934    0.0000 C   0  0  0  0  0  0  0  0  0  0  0  0
    3.3764    0.3620    0.0000 C   0  0  0  0  0  0  0  0  0  0  0  0
    1.9125    0.6893    0.0000 C   0  0  0  0  0  0  0  0  0  0  0  0
    0.8971   -0.4147    0.0000 C   0  0  0  0  0  0  0  0  0  0  0  0
   -0.5667   -0.0874    0.0000 O   0  0  0  0  0  0  0  0  0  0  0  0
    1.3456   -1.8461    0.0000 C   0  0  0  0  0  0  0  0  0  0  0  0
   -0.1445   -1.6736    0.0000 C   0  0  0  0  0  0  0  0  0  0  0  0
  2  1  1  6
  2  3  1  0
  3  4  1  0
  4  5  1  0
  5  6  2  0
  5  7  1  0
  8  7  1  6
  8  9  1  0
  9 10  1  0
 10 11  1  6
 10 12  1  0
 12 13  1  6
 12 14  1  0
 14 15  1  1
  2 16  1  0
 16 17  1  6
 17 18  1  0
 19 18  1  6
 19 20  1  0
 20 21  1  1
 21 22  1  1
 21 23  1  0
 24 23  1  1
 24 25  1  0
 25 26  1  0
 26 27  1  1
 26 28  1  0
 28 29  1  0
 29 30  1  0
 30 31  1  6
 30 32  1  0
 32 33  1  6
 33 34  1  0
 34 35  1  1
 34 36  1  0
 36 37  1  6
 14  8  1  0
 36 16  1  0
 36 19  1  0
 32 20  1  0
 30 24  1  0
M  END
>  <MS_ID>  (449) 
MS0472

>  <SMILES>  (449) 
C[C@H](CCC(=O)O[C@@H]1C[C@H](O)[C@H](O)[C@H]1O)[C@H]1CC[C@H]2[C@@H]3[C@H](O)C[C@@H]4C[C@H](O)CC[C@]4(C)[C@H]3C[C@H](O)[C@]12C

>  <Structure_dimension>  (449) 
2D

$$$$
MS0473
     RDKit          2D

 28 31  0  0  0  0  0  0  0  0999 V2000
   -5.1275   -2.0302    0.0000 C   0  0  0  0  0  0  0  0  0  0  0  0
   -3.9468   -1.1050    0.0000 C   0  0  0  0  0  0  0  0  0  0  0  0
   -4.1576    0.3801    0.0000 C   0  0  0  0  0  0  0  0  0  0  0  0
   -5.5492    0.9401    0.0000 C   0  0  0  0  0  0  0  0  0  0  0  0
   -5.7600    2.4252    0.0000 C   0  0  0  0  0  0  0  0  0  0  0  0
   -7.1516    2.9851    0.0000 O   0  0  0  0  0  0  0  0  0  0  0  0
   -4.5793    3.3503    0.0000 Cl  0  0  0  0  0  0  0  0  0  0  0  0
   -2.5552   -1.6650    0.0000 C   0  0  0  0  0  0  0  0  0  0  0  0
   -2.1903   -3.1199    0.0000 C   0  0  0  0  0  0  0  0  0  0  0  0
   -0.6938   -3.2225    0.0000 C   0  0  0  0  0  0  0  0  0  0  0  0
   -0.1339   -1.8309    0.0000 C   0  0  0  0  0  0  0  0  0  0  0  0
    1.2750   -1.3159    0.0000 C   0  0  0  0  0  0  0  0  0  0  0  0
    2.4254   -2.2785    0.0000 C   0  0  0  0  0  0  0  0  0  0  0  0
    2.1670   -3.7560    0.0000 O   0  0  0  0  0  0  0  0  0  0  0  0
    3.8342   -1.7635    0.0000 C   0  0  0  0  0  0  0  0  0  0  0  0
    4.0926   -0.2859    0.0000 C   0  0  0  0  0  0  0  0  0  0  0  0
    5.5014    0.2291    0.0000 C   0  0  0  0  0  0  0  0  0  0  0  0
    5.7598    1.7067    0.0000 C   0  0  0  0  0  0  0  0  0  0  0  0
    7.1687    2.2217    0.0000 O   0  0  0  0  0  0  0  0  0  0  0  0
    4.6094    2.6692    0.0000 C   0  0  0  0  0  0  0  0  0  0  0  0
    3.2006    2.1542    0.0000 C   0  0  0  0  0  0  0  0  0  0  0  0
    2.9422    0.6767    0.0000 C   0  0  0  0  0  0  0  0  0  0  0  0
    1.7918    1.6392    0.0000 C   0  0  0  0  0  0  0  0  0  0  0  0
    1.5334    0.1617    0.0000 C   0  0  0  0  0  0  0  0  0  0  0  0
    0.3830    1.1242    0.0000 C   0  0  0  0  0  0  0  0  0  0  0  0
   -1.0259    0.6093    0.0000 C   0  0  0  0  0  0  0  0  0  0  0  0
   -1.2843   -0.8683    0.0000 C   0  0  0  0  0  0  0  0  0  0  0  0
   -2.5290   -0.0313    0.0000 C   0  0  0  0  0  0  0  0  0  0  0  0
  2  1  1  6
  2  3  1  0
  3  4  1  0
  4  5  1  0
  5  6  2  0
  5  7  1  0
  2  8  1  0
  8  9  1  6
  9 10  1  0
 11 10  1  6
 11 12  1  0
 12 13  1  1
 13 14  1  1
 13 15  1  0
 16 15  1  1
 16 17  1  0
 17 18  1  0
 18 19  1  1
 18 20  1  0
 20 21  1  0
 21 22  1  0
 22 23  1  6
 22 24  1  0
 24 25  1  6
 25 26  1  0
 26 27  1  0
 27 28  1  6
 27  8  1  0
 27 11  1  0
 24 12  1  0
 22 16  1  0
M  END
>  <MS_ID>  (450) 
MS0473

>  <SMILES>  (450) 
C[C@H](CCC(=O)Cl)[C@H]1CC[C@H]2[C@@H]3[C@H](O)C[C@@H]4C[C@H](O)CC[C@]4(C)[C@H]3CC[C@]12C

>  <Structure_dimension>  (450) 
2D

$$$$
MS0474
     RDKit          2D

 34 37  0  0  0  0  0  0  0  0999 V2000
   -9.5910    3.9761    0.0000 C   0  0  0  0  0  0  0  0  0  0  0  0
   -8.1640    3.5139    0.0000 C   0  0  0  0  0  0  0  0  0  0  0  0
   -7.8508    2.0470    0.0000 O   0  0  0  0  0  0  0  0  0  0  0  0
   -6.4238    1.5847    0.0000 C   0  0  0  0  0  0  0  0  0  0  0  0
   -5.3100    2.5895    0.0000 O   0  0  0  0  0  0  0  0  0  0  0  0
   -6.1106    0.1178    0.0000 C   0  0  0  0  0  0  0  0  0  0  0  0
   -4.6836   -0.3444    0.0000 C   0  0  0  0  0  0  0  0  0  0  0  0
   -4.3703   -1.8114    0.0000 C   0  0  0  0  0  0  0  0  0  0  0  0
   -5.4841   -2.8161    0.0000 C   0  0  0  0  0  0  0  0  0  0  0  0
   -2.9433   -2.2736    0.0000 C   0  0  0  0  0  0  0  0  0  0  0  0
   -2.4785   -3.6997    0.0000 C   0  0  0  0  0  0  0  0  0  0  0  0
   -0.9785   -3.6984    0.0000 C   0  0  0  0  0  0  0  0  0  0  0  0
   -0.5163   -2.2714    0.0000 C   0  0  0  0  0  0  0  0  0  0  0  0
    0.8535   -1.6600    0.0000 C   0  0  0  0  0  0  0  0  0  0  0  0
    2.0678   -2.5406    0.0000 C   0  0  0  0  0  0  0  0  0  0  0  0
    1.9124   -4.0325    0.0000 O   0  0  0  0  0  0  0  0  0  0  0  0
    3.4376   -1.9292    0.0000 C   0  0  0  0  0  0  0  0  0  0  0  0
    3.5930   -0.4373    0.0000 C   0  0  0  0  0  0  0  0  0  0  0  0
    4.9628    0.1741    0.0000 C   0  0  0  0  0  0  0  0  0  0  0  0
    5.1182    1.6660    0.0000 C   0  0  0  0  0  0  0  0  0  0  0  0
    6.4879    2.2773    0.0000 O   0  0  0  0  0  0  0  0  0  0  0  0
    7.7023    1.3968    0.0000 S   0  0  0  0  0  0  0  0  0  0  0  0
    6.8217    0.1824    0.0000 O   0  0  0  0  0  0  0  0  0  0  0  0
    8.5828    2.6111    0.0000 O   0  0  0  0  0  0  0  0  0  0  0  0
    8.9166    0.5162    0.0000 O   0  0  0  0  0  0  0  0  0  0  0  0
    3.9039    2.5466    0.0000 C   0  0  0  0  0  0  0  0  0  0  0  0
    2.5341    1.9352    0.0000 C   0  0  0  0  0  0  0  0  0  0  0  0
    2.3787    0.4433    0.0000 C   0  0  0  0  0  0  0  0  0  0  0  0
    1.1643    1.3238    0.0000 C   0  0  0  0  0  0  0  0  0  0  0  0
    1.0089   -0.1681    0.0000 C   0  0  0  0  0  0  0  0  0  0  0  0
   -0.2054    0.7125    0.0000 C   0  0  0  0  0  0  0  0  0  0  0  0
   -1.5752    0.1011    0.0000 C   0  0  0  0  0  0  0  0  0  0  0  0
   -1.7306   -1.3908    0.0000 C   0  0  0  0  0  0  0  0  0  0  0  0
   -3.0303   -0.6420    0.0000 C   0  0  0  0  0  0  0  0  0  0  0  0
  1  2  1  0
  2  3  1  0
  3  4  1  0
  4  5  2  0
  4  6  1  0
  6  7  1  0
  7  8  1  0
  8  9  1  6
  8 10  1  0
 10 11  1  6
 11 12  1  0
 13 12  1  6
 13 14  1  0
 14 15  1  1
 15 16  1  1
 15 17  1  0
 18 17  1  1
 18 19  1  0
 19 20  1  0
 20 21  1  1
 21 22  1  0
 22 23  2  0
 22 24  2  0
 22 25  1  0
 20 26  1  0
 26 27  1  0
 27 28  1  0
 28 29  1  6
 28 30  1  0
 30 31  1  6
 31 32  1  0
 32 33  1  0
 33 34  1  6
 33 10  1  0
 33 13  1  0
 30 14  1  0
 28 18  1  0
M  END
>  <MS_ID>  (451) 
MS0474

>  <SMILES>  (451) 
CCOC(=O)CC[C@@H](C)[C@H]1CC[C@H]2[C@@H]3[C@H](O)C[C@@H]4C[C@H](OS(=O)(=O)O)CC[C@]4(C)[C@H]3CC[C@]12C

>  <Structure_dimension>  (451) 
2D

$$$$
MS0475
     RDKit          2D

 34 37  0  0  0  0  0  0  0  0999 V2000
   -2.4676   -4.1641    0.0000 C   0  0  0  0  0  0  0  0  0  0  0  0
   -1.7000   -2.8754    0.0000 C   0  0  0  0  0  0  0  0  0  0  0  0
   -2.4324   -1.5663    0.0000 C   0  0  0  0  0  0  0  0  0  0  0  0
   -3.9322   -1.5459    0.0000 C   0  0  0  0  0  0  0  0  0  0  0  0
   -4.6645   -0.2368    0.0000 C   0  0  0  0  0  0  0  0  0  0  0  0
   -3.8970    1.0519    0.0000 O   0  0  0  0  0  0  0  0  0  0  0  0
   -6.1644   -0.2165    0.0000 N   0  0  0  0  0  0  0  0  0  0  0  0
   -6.8967    1.0926    0.0000 C   0  0  0  0  0  0  0  0  0  0  0  0
   -8.2058    0.3603    0.0000 C   0  0  0  0  0  0  0  0  0  0  0  0
   -5.5876    1.8249    0.0000 C   0  0  0  0  0  0  0  0  0  0  0  0
   -7.6290    2.4017    0.0000 C   0  0  0  0  0  0  0  0  0  0  0  0
   -9.1289    2.4220    0.0000 O   0  0  0  0  0  0  0  0  0  0  0  0
   -6.8615    3.6904    0.0000 O   0  0  0  0  0  0  0  0  0  0  0  0
   -0.2002   -2.8957    0.0000 C   0  0  0  0  0  0  0  0  0  0  0  0
    0.6650   -4.1211    0.0000 C   0  0  0  0  0  0  0  0  0  0  0  0
    2.0977   -3.6769    0.0000 C   0  0  0  0  0  0  0  0  0  0  0  0
    2.1180   -2.1771    0.0000 C   0  0  0  0  0  0  0  0  0  0  0  0
    3.2463   -1.1886    0.0000 C   0  0  0  0  0  0  0  0  0  0  0  0
    4.6664   -1.6714    0.0000 C   0  0  0  0  0  0  0  0  0  0  0  0
    4.9584   -3.1427    0.0000 O   0  0  0  0  0  0  0  0  0  0  0  0
    5.7947   -0.6829    0.0000 C   0  0  0  0  0  0  0  0  0  0  0  0
    5.5027    0.7884    0.0000 C   0  0  0  0  0  0  0  0  0  0  0  0
    6.6309    1.7769    0.0000 C   0  0  0  0  0  0  0  0  0  0  0  0
    6.3390    3.2482    0.0000 C   0  0  0  0  0  0  0  0  0  0  0  0
    7.4672    4.2367    0.0000 O   0  0  0  0  0  0  0  0  0  0  0  0
    4.9188    3.7310    0.0000 C   0  0  0  0  0  0  0  0  0  0  0  0
    3.7906    2.7425    0.0000 C   0  0  0  0  0  0  0  0  0  0  0  0
    4.0825    1.2712    0.0000 C   0  0  0  0  0  0  0  0  0  0  0  0
    2.6624    1.7540    0.0000 C   0  0  0  0  0  0  0  0  0  0  0  0
    2.9543    0.2827    0.0000 C   0  0  0  0  0  0  0  0  0  0  0  0
    1.5342    0.7656    0.0000 C   0  0  0  0  0  0  0  0  0  0  0  0
    0.4059   -0.2229    0.0000 C   0  0  0  0  0  0  0  0  0  0  0  0
    0.6979   -1.6942    0.0000 C   0  0  0  0  0  0  0  0  0  0  0  0
   -0.7650   -1.3625    0.0000 C   0  0  0  0  0  0  0  0  0  0  0  0
  2  1  1  6
  2  3  1  0
  3  4  1  0
  4  5  1  0
  5  6  2  0
  5  7  1  0
  7  8  1  0
  8  9  1  0
  8 10  1  0
  8 11  1  0
 11 12  2  0
 11 13  1  0
  2 14  1  0
 14 15  1  6
 15 16  1  0
 17 16  1  6
 17 18  1  0
 18 19  1  1
 19 20  1  1
 19 21  1  0
 22 21  1  1
 22 23  1  0
 23 24  1  0
 24 25  1  1
 24 26  1  0
 26 27  1  0
 27 28  1  0
 28 29  1  6
 28 30  1  0
 30 31  1  6
 31 32  1  0
 32 33  1  0
 33 34  1  6
 33 14  1  0
 33 17  1  0
 30 18  1  0
 28 22  1  0
M  END
>  <MS_ID>  (452) 
MS0475

>  <SMILES>  (452) 
C[C@H](CCC(=O)NC(C)(C)C(=O)O)[C@H]1CC[C@H]2[C@@H]3[C@H](O)C[C@@H]4C[C@H](O)CC[C@]4(C)[C@H]3CC[C@]12C

>  <Structure_dimension>  (452) 
2D

$$$$
MS0476
     RDKit          2D

 39 43  0  0  0  0  0  0  0  0999 V2000
   -0.9174   -4.7068    0.0000 C   0  0  0  0  0  0  0  0  0  0  0  0
   -0.3195   -3.3311    0.0000 C   0  0  0  0  0  0  0  0  0  0  0  0
   -1.2120   -2.1255    0.0000 C   0  0  0  0  0  0  0  0  0  0  0  0
   -2.7023   -2.2956    0.0000 C   0  0  0  0  0  0  0  0  0  0  0  0
   -3.5948   -1.0900    0.0000 C   0  0  0  0  0  0  0  0  0  0  0  0
   -2.9970    0.2857    0.0000 O   0  0  0  0  0  0  0  0  0  0  0  0
   -5.0851   -1.2601    0.0000 O   0  0  0  0  0  0  0  0  0  0  0  0
   -5.9776   -0.0545    0.0000 C   0  0  0  0  0  0  0  0  0  0  0  0
   -5.3798    1.3212    0.0000 O   0  0  0  0  0  0  0  0  0  0  0  0
   -6.2722    2.5268    0.0000 C   0  0  0  0  0  0  0  0  0  0  0  0
   -5.6744    3.9025    0.0000 O   0  0  0  0  0  0  0  0  0  0  0  0
   -7.7625    2.3567    0.0000 C   0  0  0  0  0  0  0  0  0  0  0  0
   -8.6550    3.5624    0.0000 O   0  0  0  0  0  0  0  0  0  0  0  0
   -8.3604    0.9810    0.0000 C   0  0  0  0  0  0  0  0  0  0  0  0
   -9.8507    0.8109    0.0000 O   0  0  0  0  0  0  0  0  0  0  0  0
   -7.4679   -0.2246    0.0000 C   0  0  0  0  0  0  0  0  0  0  0  0
   -8.0658   -1.6003    0.0000 O   0  0  0  0  0  0  0  0  0  0  0  0
    1.1708   -3.1610    0.0000 C   0  0  0  0  0  0  0  0  0  0  0  0
    2.1844   -4.2667    0.0000 C   0  0  0  0  0  0  0  0  0  0  0  0
    3.5492   -3.6444    0.0000 C   0  0  0  0  0  0  0  0  0  0  0  0
    3.3791   -2.1541    0.0000 C   0  0  0  0  0  0  0  0  0  0  0  0
    4.3728   -1.0305    0.0000 C   0  0  0  0  0  0  0  0  0  0  0  0
    5.8428   -1.3292    0.0000 C   0  0  0  0  0  0  0  0  0  0  0  0
    6.3190   -2.7516    0.0000 O   0  0  0  0  0  0  0  0  0  0  0  0
    6.8365   -0.2056    0.0000 C   0  0  0  0  0  0  0  0  0  0  0  0
    6.3602    1.2168    0.0000 C   0  0  0  0  0  0  0  0  0  0  0  0
    7.3539    2.3404    0.0000 C   0  0  0  0  0  0  0  0  0  0  0  0
    6.8777    3.7628    0.0000 C   0  0  0  0  0  0  0  0  0  0  0  0
    7.8714    4.8864    0.0000 O   0  0  0  0  0  0  0  0  0  0  0  0
    5.4078    4.0616    0.0000 C   0  0  0  0  0  0  0  0  0  0  0  0
    4.4140    2.9379    0.0000 C   0  0  0  0  0  0  0  0  0  0  0  0
    4.8903    1.5156    0.0000 C   0  0  0  0  0  0  0  0  0  0  0  0
    3.4203    1.8143    0.0000 C   0  0  0  0  0  0  0  0  0  0  0  0
    3.8966    0.3919    0.0000 C   0  0  0  0  0  0  0  0  0  0  0  0
    2.4266    0.6907    0.0000 C   0  0  0  0  0  0  0  0  0  0  0  0
    1.4329   -0.4329    0.0000 C   0  0  0  0  0  0  0  0  0  0  0  0
   -0.0370   -0.1342    0.0000 O   0  0  0  0  0  0  0  0  0  0  0  0
    1.9092   -1.8553    0.0000 C   0  0  0  0  0  0  0  0  0  0  0  0
    0.4160   -1.7119    0.0000 C   0  0  0  0  0  0  0  0  0  0  0  0
  2  1  1  6
  2  3  1  0
  3  4  1  0
  4  5  1  0
  5  6  2  0
  5  7  1  0
  8  7  1  6
  8  9  1  0
  9 10  1  0
 10 11  1  6
 10 12  1  0
 12 13  1  1
 12 14  1  0
 14 15  1  6
 14 16  1  0
 16 17  1  6
  2 18  1  0
 18 19  1  6
 19 20  1  0
 21 20  1  6
 21 22  1  0
 22 23  1  1
 23 24  1  1
 23 25  1  0
 26 25  1  1
 26 27  1  0
 27 28  1  0
 28 29  1  1
 28 30  1  0
 30 31  1  0
 31 32  1  0
 32 33  1  6
 32 34  1  0
 34 35  1  6
 35 36  1  0
 36 37  1  1
 36 38  1  0
 38 39  1  6
 16  8  1  0
 38 18  1  0
 38 21  1  0
 34 22  1  0
 32 26  1  0
M  END
>  <MS_ID>  (453) 
MS0476

>  <SMILES>  (453) 
C[C@H](CCC(=O)O[C@H]1O[C@@H](O)[C@H](O)[C@@H](O)[C@H]1O)[C@H]1CC[C@H]2[C@@H]3[C@H](O)C[C@@H]4C[C@H](O)CC[C@]4(C)[C@H]3C[C@H](O)[C@]12C

>  <Structure_dimension>  (453) 
2D

$$$$
MS0477
     RDKit          2D

 29 32  0  0  0  0  0  0  0  0999 V2000
   -5.0303   -2.1373    0.0000 C   0  0  0  0  0  0  0  0  0  0  0  0
   -3.8594   -1.1998    0.0000 C   0  0  0  0  0  0  0  0  0  0  0  0
   -4.0858    0.2830    0.0000 C   0  0  0  0  0  0  0  0  0  0  0  0
   -5.4831    0.8284    0.0000 C   0  0  0  0  0  0  0  0  0  0  0  0
   -5.7095    2.3112    0.0000 C   0  0  0  0  0  0  0  0  0  0  0  0
   -4.5386    3.2487    0.0000 O   0  0  0  0  0  0  0  0  0  0  0  0
   -7.1069    2.8565    0.0000 O   0  0  0  0  0  0  0  0  0  0  0  0
   -2.4620   -1.7451    0.0000 C   0  0  0  0  0  0  0  0  0  0  0  0
   -2.0818   -3.1961    0.0000 C   0  0  0  0  0  0  0  0  0  0  0  0
   -0.5844   -3.2830    0.0000 C   0  0  0  0  0  0  0  0  0  0  0  0
   -0.0390   -1.8856    0.0000 C   0  0  0  0  0  0  0  0  0  0  0  0
    1.3643   -1.3559    0.0000 C   0  0  0  0  0  0  0  0  0  0  0  0
    2.5248   -2.3063    0.0000 C   0  0  0  0  0  0  0  0  0  0  0  0
    2.2819   -3.7865    0.0000 N   0  0  0  0  0  0  0  0  0  0  0  0
    3.9281   -1.7765    0.0000 C   0  0  0  0  0  0  0  0  0  0  0  0
    4.1710   -0.2963    0.0000 C   0  0  0  0  0  0  0  0  0  0  0  0
    5.5743    0.2334    0.0000 C   0  0  0  0  0  0  0  0  0  0  0  0
    5.8172    1.7136    0.0000 C   0  0  0  0  0  0  0  0  0  0  0  0
    7.2205    2.2434    0.0000 O   0  0  0  0  0  0  0  0  0  0  0  0
    4.6568    2.6641    0.0000 C   0  0  0  0  0  0  0  0  0  0  0  0
    3.2534    2.1343    0.0000 C   0  0  0  0  0  0  0  0  0  0  0  0
    3.0105    0.6541    0.0000 C   0  0  0  0  0  0  0  0  0  0  0  0
    1.8501    1.6046    0.0000 C   0  0  0  0  0  0  0  0  0  0  0  0
    1.6072    0.1244    0.0000 C   0  0  0  0  0  0  0  0  0  0  0  0
    0.4467    1.0748    0.0000 C   0  0  0  0  0  0  0  0  0  0  0  0
   -0.9566    0.5450    0.0000 C   0  0  0  0  0  0  0  0  0  0  0  0
   -2.1170    1.4955    0.0000 O   0  0  0  0  0  0  0  0  0  0  0  0
   -1.1995   -0.9352    0.0000 C   0  0  0  0  0  0  0  0  0  0  0  0
   -2.4529   -0.1112    0.0000 C   0  0  0  0  0  0  0  0  0  0  0  0
  2  1  1  6
  2  3  1  0
  3  4  1  0
  4  5  1  0
  5  6  2  0
  5  7  1  0
  2  8  1  0
  8  9  1  6
  9 10  1  0
 11 10  1  6
 11 12  1  0
 12 13  1  1
 13 14  1  1
 13 15  1  0
 16 15  1  1
 16 17  1  0
 17 18  1  0
 18 19  1  1
 18 20  1  0
 20 21  1  0
 21 22  1  0
 22 23  1  6
 22 24  1  0
 24 25  1  6
 25 26  1  0
 26 27  2  0
 26 28  1  0
 28 29  1  6
 28  8  1  0
 28 11  1  0
 24 12  1  0
 22 16  1  0
M  END
>  <MS_ID>  (454) 
MS0477

>  <SMILES>  (454) 
C[C@H](CCC(=O)O)[C@H]1CC[C@H]2[C@@H]3[C@H](N)C[C@@H]4C[C@H](O)CC[C@]4(C)[C@H]3CC(=O)[C@]12C

>  <Structure_dimension>  (454) 
2D

$$$$
MS0478
     RDKit          2D

 35 38  0  0  0  0  0  0  0  0999 V2000
   -1.8078   -5.2797    0.0000 C   0  0  0  0  0  0  0  0  0  0  0  0
   -1.3287   -3.8583    0.0000 C   0  0  0  0  0  0  0  0  0  0  0  0
   -2.3201   -2.7327    0.0000 C   0  0  0  0  0  0  0  0  0  0  0  0
   -3.7907   -3.0285    0.0000 C   0  0  0  0  0  0  0  0  0  0  0  0
   -4.7821   -1.9028    0.0000 C   0  0  0  0  0  0  0  0  0  0  0  0
   -6.2527   -2.1986    0.0000 O   0  0  0  0  0  0  0  0  0  0  0  0
   -4.3030   -0.4814    0.0000 O   0  0  0  0  0  0  0  0  0  0  0  0
   -5.2944    0.6442    0.0000 C   0  0  0  0  0  0  0  0  0  0  0  0
   -6.7650    0.3485    0.0000 O   0  0  0  0  0  0  0  0  0  0  0  0
   -4.8153    2.0657    0.0000 C   0  0  0  0  0  0  0  0  0  0  0  0
   -5.8068    3.1913    0.0000 C   0  0  0  0  0  0  0  0  0  0  0  0
   -5.3277    4.6127    0.0000 C   0  0  0  0  0  0  0  0  0  0  0  0
   -3.8571    4.9085    0.0000 O   0  0  0  0  0  0  0  0  0  0  0  0
   -6.3191    5.7384    0.0000 O   0  0  0  0  0  0  0  0  0  0  0  0
    0.1418   -3.5625    0.0000 C   0  0  0  0  0  0  0  0  0  0  0  0
    1.2455   -4.5784    0.0000 C   0  0  0  0  0  0  0  0  0  0  0  0
    2.5527   -3.8426    0.0000 C   0  0  0  0  0  0  0  0  0  0  0  0
    2.2569   -2.3721    0.0000 C   0  0  0  0  0  0  0  0  0  0  0  0
    3.1518   -1.1683    0.0000 C   0  0  0  0  0  0  0  0  0  0  0  0
    4.6418   -1.3414    0.0000 C   0  0  0  0  0  0  0  0  0  0  0  0
    5.2368   -2.7183    0.0000 O   0  0  0  0  0  0  0  0  0  0  0  0
    5.5367   -0.1376    0.0000 C   0  0  0  0  0  0  0  0  0  0  0  0
    4.9416    1.2393    0.0000 C   0  0  0  0  0  0  0  0  0  0  0  0
    5.8365    2.4431    0.0000 C   0  0  0  0  0  0  0  0  0  0  0  0
    5.2415    3.8201    0.0000 C   0  0  0  0  0  0  0  0  0  0  0  0
    6.1364    5.0239    0.0000 O   0  0  0  0  0  0  0  0  0  0  0  0
    3.7515    3.9932    0.0000 C   0  0  0  0  0  0  0  0  0  0  0  0
    2.8566    2.7894    0.0000 C   0  0  0  0  0  0  0  0  0  0  0  0
    3.4516    1.4124    0.0000 C   0  0  0  0  0  0  0  0  0  0  0  0
    1.9617    1.5856    0.0000 C   0  0  0  0  0  0  0  0  0  0  0  0
    2.5567    0.2086    0.0000 C   0  0  0  0  0  0  0  0  0  0  0  0
    1.0667    0.3818    0.0000 C   0  0  0  0  0  0  0  0  0  0  0  0
    0.1718   -0.8220    0.0000 C   0  0  0  0  0  0  0  0  0  0  0  0
    0.7669   -2.1990    0.0000 C   0  0  0  0  0  0  0  0  0  0  0  0
   -0.7330   -2.1825    0.0000 C   0  0  0  0  0  0  0  0  0  0  0  0
  2  1  1  6
  2  3  1  0
  3  4  1  0
  4  5  1  0
  5  6  2  0
  5  7  1  0
  7  8  1  0
  8  9  2  0
  8 10  1  0
 10 11  1  0
 11 12  1  0
 12 13  2  0
 12 14  1  0
  2 15  1  0
 15 16  1  6
 16 17  1  0
 18 17  1  6
 18 19  1  0
 19 20  1  1
 20 21  1  1
 20 22  1  0
 23 22  1  1
 23 24  1  0
 24 25  1  0
 25 26  1  1
 25 27  1  0
 27 28  1  0
 28 29  1  0
 29 30  1  6
 29 31  1  0
 31 32  1  6
 32 33  1  0
 33 34  1  0
 34 35  1  6
 34 15  1  0
 34 18  1  0
 31 19  1  0
 29 23  1  0
M  END
>  <MS_ID>  (455) 
MS0478

>  <SMILES>  (455) 
C[C@H](CCC(=O)OC(=O)CCC(=O)O)[C@H]1CC[C@H]2[C@@H]3[C@H](O)C[C@@H]4C[C@H](O)CC[C@]4(C)[C@H]3CC[C@]12C

>  <Structure_dimension>  (455) 
2D

$$$$
MS0479
     RDKit          2D

 34 37  0  0  0  0  0  0  0  0999 V2000
   -2.1579   -4.3331    0.0000 C   0  0  0  0  0  0  0  0  0  0  0  0
   -1.4309   -3.0210    0.0000 C   0  0  0  0  0  0  0  0  0  0  0  0
   -2.2036   -1.7354    0.0000 C   0  0  0  0  0  0  0  0  0  0  0  0
   -3.7034   -1.7618    0.0000 C   0  0  0  0  0  0  0  0  0  0  0  0
   -4.4761   -0.4762    0.0000 C   0  0  0  0  0  0  0  0  0  0  0  0
   -3.7491    0.8359    0.0000 O   0  0  0  0  0  0  0  0  0  0  0  0
   -5.9759   -0.5026    0.0000 N   0  0  0  0  0  0  0  0  0  0  0  0
   -6.7486    0.7831    0.0000 C   0  0  0  0  0  0  0  0  0  0  0  0
   -8.2484    0.7567    0.0000 C   0  0  0  0  0  0  0  0  0  0  0  0
   -9.0212    2.0423    0.0000 S   0  0  0  0  0  0  0  0  0  0  0  0
  -10.3068    1.2696    0.0000 O   0  0  0  0  0  0  0  0  0  0  0  0
   -7.7355    2.8151    0.0000 O   0  0  0  0  0  0  0  0  0  0  0  0
   -9.7939    3.3280    0.0000 O   0  0  0  0  0  0  0  0  0  0  0  0
    0.0689   -2.9946    0.0000 C   0  0  0  0  0  0  0  0  0  0  0  0
    0.9718   -4.1925    0.0000 C   0  0  0  0  0  0  0  0  0  0  0  0
    2.3900   -3.7039    0.0000 C   0  0  0  0  0  0  0  0  0  0  0  0
    2.3636   -2.2041    0.0000 C   0  0  0  0  0  0  0  0  0  0  0  0
    3.4605   -1.1810    0.0000 C   0  0  0  0  0  0  0  0  0  0  0  0
    4.8950   -1.6193    0.0000 C   0  0  0  0  0  0  0  0  0  0  0  0
    5.9919   -0.5962    0.0000 C   0  0  0  0  0  0  0  0  0  0  0  0
    7.4264   -1.0345    0.0000 O   0  0  0  0  0  0  0  0  0  0  0  0
    5.6542    0.8653    0.0000 C   0  0  0  0  0  0  0  0  0  0  0  0
    6.7511    1.8885    0.0000 C   0  0  0  0  0  0  0  0  0  0  0  0
    6.4135    3.3500    0.0000 C   0  0  0  0  0  0  0  0  0  0  0  0
    7.5104    4.3731    0.0000 O   0  0  0  0  0  0  0  0  0  0  0  0
    4.9790    3.7883    0.0000 C   0  0  0  0  0  0  0  0  0  0  0  0
    3.8821    2.7652    0.0000 C   0  0  0  0  0  0  0  0  0  0  0  0
    4.2197    1.3037    0.0000 C   0  0  0  0  0  0  0  0  0  0  0  0
    2.7852    1.7420    0.0000 C   0  0  0  0  0  0  0  0  0  0  0  0
    3.1228    0.2805    0.0000 C   0  0  0  0  0  0  0  0  0  0  0  0
    1.6883    0.7189    0.0000 C   0  0  0  0  0  0  0  0  0  0  0  0
    0.5914   -0.3043    0.0000 C   0  0  0  0  0  0  0  0  0  0  0  0
    0.9291   -1.7658    0.0000 C   0  0  0  0  0  0  0  0  0  0  0  0
   -0.5434   -1.4798    0.0000 C   0  0  0  0  0  0  0  0  0  0  0  0
  2  1  1  6
  2  3  1  0
  3  4  1  0
  4  5  1  0
  5  6  2  0
  5  7  1  0
  7  8  1  0
  8  9  1  0
  9 10  1  0
 10 11  2  0
 10 12  2  0
 10 13  1  0
  2 14  1  0
 14 15  1  6
 15 16  1  0
 17 16  1  6
 17 18  1  0
 18 19  1  1
 19 20  1  0
 20 21  1  6
 20 22  1  0
 22 23  1  1
 23 24  1  0
 24 25  1  1
 24 26  1  0
 26 27  1  0
 27 28  1  0
 28 29  1  6
 28 30  1  0
 30 31  1  6
 31 32  1  0
 32 33  1  0
 33 34  1  6
 33 14  1  0
 33 17  1  0
 30 18  1  0
 28 22  1  0
M  END
>  <MS_ID>  (456) 
MS0479

>  <SMILES>  (456) 
C[C@H](CCC(=O)NCCS(=O)(=O)O)[C@H]1CC[C@H]2[C@@H]3C[C@@H](O)[C@@H]4C[C@H](O)CC[C@]4(C)[C@H]3CC[C@]12C

>  <Structure_dimension>  (456) 
2D

$$$$
MS0480
     RDKit          2D

 33 36  0  0  0  0  0  0  0  0999 V2000
   -3.6067   -3.7883    0.0000 C   0  0  0  0  0  0  0  0  0  0  0  0
   -2.7102   -2.5857    0.0000 C   0  0  0  0  0  0  0  0  0  0  0  0
   -3.3034   -1.2080    0.0000 C   0  0  0  0  0  0  0  0  0  0  0  0
   -4.7932   -1.0329    0.0000 C   0  0  0  0  0  0  0  0  0  0  0  0
   -5.3864    0.3448    0.0000 C   0  0  0  0  0  0  0  0  0  0  0  0
   -6.8761    0.5199    0.0000 O   0  0  0  0  0  0  0  0  0  0  0  0
   -4.4899    1.5474    0.0000 O   0  0  0  0  0  0  0  0  0  0  0  0
   -5.0831    2.9251    0.0000 S   0  0  0  0  0  0  0  0  0  0  0  0
   -6.4608    2.3319    0.0000 O   0  0  0  0  0  0  0  0  0  0  0  0
   -3.7054    3.5183    0.0000 O   0  0  0  0  0  0  0  0  0  0  0  0
   -5.6763    4.3028    0.0000 O   0  0  0  0  0  0  0  0  0  0  0  0
   -1.2204   -2.7608    0.0000 C   0  0  0  0  0  0  0  0  0  0  0  0
   -0.4864   -4.0690    0.0000 C   0  0  0  0  0  0  0  0  0  0  0  0
    0.9845   -3.7752    0.0000 C   0  0  0  0  0  0  0  0  0  0  0  0
    1.1596   -2.2854    0.0000 C   0  0  0  0  0  0  0  0  0  0  0  0
    2.3839   -1.4187    0.0000 C   0  0  0  0  0  0  0  0  0  0  0  0
    3.7466   -2.0456    0.0000 C   0  0  0  0  0  0  0  0  0  0  0  0
    3.8850   -3.5392    0.0000 O   0  0  0  0  0  0  0  0  0  0  0  0
    4.9708   -1.1789    0.0000 C   0  0  0  0  0  0  0  0  0  0  0  0
    4.8324    0.3147    0.0000 C   0  0  0  0  0  0  0  0  0  0  0  0
    6.0566    1.1814    0.0000 C   0  0  0  0  0  0  0  0  0  0  0  0
    5.9182    2.6750    0.0000 C   0  0  0  0  0  0  0  0  0  0  0  0
    7.1424    3.5417    0.0000 O   0  0  0  0  0  0  0  0  0  0  0  0
    4.5555    3.3019    0.0000 C   0  0  0  0  0  0  0  0  0  0  0  0
    3.3312    2.4352    0.0000 C   0  0  0  0  0  0  0  0  0  0  0  0
    3.4697    0.9416    0.0000 C   0  0  0  0  0  0  0  0  0  0  0  0
    2.1069    1.5685    0.0000 C   0  0  0  0  0  0  0  0  0  0  0  0
    2.2454    0.0749    0.0000 C   0  0  0  0  0  0  0  0  0  0  0  0
    0.8827    0.7018    0.0000 C   0  0  0  0  0  0  0  0  0  0  0  0
   -0.3416   -0.1649    0.0000 C   0  0  0  0  0  0  0  0  0  0  0  0
   -1.7043    0.4620    0.0000 O   0  0  0  0  0  0  0  0  0  0  0  0
   -0.2031   -1.6585    0.0000 C   0  0  0  0  0  0  0  0  0  0  0  0
   -1.6239   -1.1775    0.0000 C   0  0  0  0  0  0  0  0  0  0  0  0
  2  1  1  6
  2  3  1  0
  3  4  1  0
  4  5  1  0
  5  6  2  0
  5  7  1  0
  7  8  1  0
  8  9  2  0
  8 10  2  0
  8 11  1  0
  2 12  1  0
 12 13  1  6
 13 14  1  0
 15 14  1  6
 15 16  1  0
 16 17  1  1
 17 18  1  1
 17 19  1  0
 20 19  1  1
 20 21  1  0
 21 22  1  0
 22 23  2  0
 22 24  1  0
 24 25  1  0
 25 26  1  0
 26 27  1  6
 26 28  1  0
 28 29  1  6
 29 30  1  0
 30 31  1  1
 30 32  1  0
 32 33  1  6
 32 12  1  0
 32 15  1  0
 28 16  1  0
 26 20  1  0
M  END
>  <MS_ID>  (457) 
MS0480

>  <SMILES>  (457) 
C[C@H](CCC(=O)OS(=O)(=O)O)[C@H]1CC[C@H]2[C@@H]3[C@H](O)C[C@@H]4CC(=O)CC[C@]4(C)[C@H]3C[C@H](O)[C@]12C

>  <Structure_dimension>  (457) 
2D

$$$$
MS0481
     RDKit          2D

 32 35  0  0  0  0  0  0  0  0999 V2000
   -9.3569    0.9186    0.0000 C   0  0  0  0  0  0  0  0  0  0  0  0
   -7.8931    0.5910    0.0000 O   0  0  0  0  0  0  0  0  0  0  0  0
   -6.8775    1.6948    0.0000 N   0  0  0  0  0  0  0  0  0  0  0  0
   -7.3256    3.1263    0.0000 C   0  0  0  0  0  0  0  0  0  0  0  0
   -5.4137    1.3672    0.0000 C   0  0  0  0  0  0  0  0  0  0  0  0
   -4.3981    2.4711    0.0000 O   0  0  0  0  0  0  0  0  0  0  0  0
   -4.9655   -0.0643    0.0000 C   0  0  0  0  0  0  0  0  0  0  0  0
   -3.5018   -0.3919    0.0000 C   0  0  0  0  0  0  0  0  0  0  0  0
   -3.0536   -1.8234    0.0000 C   0  0  0  0  0  0  0  0  0  0  0  0
   -4.0693   -2.9273    0.0000 C   0  0  0  0  0  0  0  0  0  0  0  0
   -1.5898   -2.1510    0.0000 C   0  0  0  0  0  0  0  0  0  0  0  0
   -0.9945   -3.5278    0.0000 C   0  0  0  0  0  0  0  0  0  0  0  0
    0.4989   -3.3871    0.0000 C   0  0  0  0  0  0  0  0  0  0  0  0
    0.8265   -1.9233    0.0000 C   0  0  0  0  0  0  0  0  0  0  0  0
    2.1335   -1.1874    0.0000 C   0  0  0  0  0  0  0  0  0  0  0  0
    3.4244   -1.9513    0.0000 C   0  0  0  0  0  0  0  0  0  0  0  0
    3.4083   -3.4512    0.0000 O   0  0  0  0  0  0  0  0  0  0  0  0
    4.7315   -1.2153    0.0000 C   0  0  0  0  0  0  0  0  0  0  0  0
    6.0224   -1.9793    0.0000 O   0  0  0  0  0  0  0  0  0  0  0  0
    4.7476    0.2846    0.0000 C   0  0  0  0  0  0  0  0  0  0  0  0
    6.0546    1.0206    0.0000 C   0  0  0  0  0  0  0  0  0  0  0  0
    6.0708    2.5205    0.0000 C   0  0  0  0  0  0  0  0  0  0  0  0
    7.3778    3.2565    0.0000 O   0  0  0  0  0  0  0  0  0  0  0  0
    4.7799    3.2844    0.0000 C   0  0  0  0  0  0  0  0  0  0  0  0
    3.4729    2.5484    0.0000 C   0  0  0  0  0  0  0  0  0  0  0  0
    3.4567    1.0485    0.0000 C   0  0  0  0  0  0  0  0  0  0  0  0
    2.1658    1.8125    0.0000 C   0  0  0  0  0  0  0  0  0  0  0  0
    2.1497    0.3126    0.0000 C   0  0  0  0  0  0  0  0  0  0  0  0
    0.8588    1.0765    0.0000 C   0  0  0  0  0  0  0  0  0  0  0  0
   -0.4482    0.3405    0.0000 C   0  0  0  0  0  0  0  0  0  0  0  0
   -0.4644   -1.1594    0.0000 C   0  0  0  0  0  0  0  0  0  0  0  0
   -1.8281   -0.5346    0.0000 C   0  0  0  0  0  0  0  0  0  0  0  0
  1  2  1  0
  2  3  1  0
  3  4  1  0
  3  5  1  0
  5  6  2  0
  5  7  1  0
  7  8  1  0
  8  9  1  0
  9 10  1  6
  9 11  1  0
 11 12  1  6
 12 13  1  0
 14 13  1  6
 14 15  1  0
 15 16  1  1
 16 17  1  1
 16 18  1  0
 18 19  1  1
 18 20  1  0
 20 21  1  1
 21 22  1  0
 22 23  1  1
 22 24  1  0
 24 25  1  0
 25 26  1  0
 26 27  1  6
 26 28  1  0
 28 29  1  6
 29 30  1  0
 30 31  1  0
 31 32  1  6
 31 11  1  0
 31 14  1  0
 28 15  1  0
 26 20  1  0
M  END
>  <MS_ID>  (458) 
MS0481

>  <SMILES>  (458) 
CON(C)C(=O)CC[C@@H](C)[C@H]1CC[C@H]2[C@@H]3[C@H](O)[C@H](O)[C@@H]4C[C@H](O)CC[C@]4(C)[C@H]3CC[C@]12C

>  <Structure_dimension>  (458) 
2D

$$$$
MS0482
     RDKit          2D

 28 31  0  0  0  0  0  0  0  0999 V2000
   -5.0096   -2.1352    0.0000 C   0  0  0  0  0  0  0  0  0  0  0  0
   -3.8132   -1.2303    0.0000 C   0  0  0  0  0  0  0  0  0  0  0  0
   -3.9987    0.2582    0.0000 C   0  0  0  0  0  0  0  0  0  0  0  0
   -5.3805    0.8418    0.0000 C   0  0  0  0  0  0  0  0  0  0  0  0
   -5.5659    2.3303    0.0000 C   0  0  0  0  0  0  0  0  0  0  0  0
   -4.3695    3.2351    0.0000 O   0  0  0  0  0  0  0  0  0  0  0  0
   -6.9477    2.9140    0.0000 O   0  0  0  0  0  0  0  0  0  0  0  0
   -2.4315   -1.8140    0.0000 C   0  0  0  0  0  0  0  0  0  0  0  0
   -2.0914   -3.2749    0.0000 C   0  0  0  0  0  0  0  0  0  0  0  0
   -0.5969   -3.4030    0.0000 C   0  0  0  0  0  0  0  0  0  0  0  0
   -0.0133   -2.0212    0.0000 C   0  0  0  0  0  0  0  0  0  0  0  0
    1.4041   -1.5304    0.0000 C   0  0  0  0  0  0  0  0  0  0  0  0
    2.5379   -2.5125    0.0000 C   0  0  0  0  0  0  0  0  0  0  0  0
    3.9554   -2.0216    0.0000 C   0  0  0  0  0  0  0  0  0  0  0  0
    4.2390   -0.5487    0.0000 C   0  0  0  0  0  0  0  0  0  0  0  0
    5.6564   -0.0578    0.0000 C   0  0  0  0  0  0  0  0  0  0  0  0
    5.9400    1.4151    0.0000 C   0  0  0  0  0  0  0  0  0  0  0  0
    7.3574    1.9060    0.0000 F   0  0  0  0  0  0  0  0  0  0  0  0
    4.8062    2.3972    0.0000 C   0  0  0  0  0  0  0  0  0  0  0  0
    3.3888    1.9064    0.0000 C   0  0  0  0  0  0  0  0  0  0  0  0
    3.1052    0.4334    0.0000 C   0  0  0  0  0  0  0  0  0  0  0  0
    1.9714    1.4155    0.0000 C   0  0  0  0  0  0  0  0  0  0  0  0
    1.6878   -0.0574    0.0000 C   0  0  0  0  0  0  0  0  0  0  0  0
    0.5540    0.9246    0.0000 C   0  0  0  0  0  0  0  0  0  0  0  0
   -0.8635    0.4338    0.0000 C   0  0  0  0  0  0  0  0  0  0  0  0
   -1.9973    1.4159    0.0000 O   0  0  0  0  0  0  0  0  0  0  0  0
   -1.1471   -1.0392    0.0000 C   0  0  0  0  0  0  0  0  0  0  0  0
   -2.3773   -0.1810    0.0000 C   0  0  0  0  0  0  0  0  0  0  0  0
  2  1  1  6
  2  3  1  0
  3  4  1  0
  4  5  1  0
  5  6  2  0
  5  7  1  0
  2  8  1  0
  8  9  1  6
  9 10  1  0
 11 10  1  6
 11 12  1  0
 12 13  1  1
 13 14  1  0
 15 14  1  1
 15 16  1  0
 16 17  1  0
 17 18  1  1
 17 19  1  0
 19 20  1  0
 20 21  1  0
 21 22  1  6
 21 23  1  0
 23 24  1  6
 24 25  1  0
 25 26  1  1
 25 27  1  0
 27 28  1  6
 27  8  1  0
 27 11  1  0
 23 12  1  0
 21 15  1  0
M  END
>  <MS_ID>  (459) 
MS0482

>  <SMILES>  (459) 
C[C@H](CCC(=O)O)[C@H]1CC[C@H]2[C@@H]3CC[C@@H]4C[C@H](F)CC[C@]4(C)[C@H]3C[C@H](O)[C@]12C

>  <Structure_dimension>  (459) 
2D

$$$$
MS0483
     RDKit          2D

 31 34  0  0  0  0  0  0  0  0999 V2000
   -3.4301   -3.6172    0.0000 C   0  0  0  0  0  0  0  0  0  0  0  0
   -2.4973   -2.4425    0.0000 C   0  0  0  0  0  0  0  0  0  0  0  0
   -3.0483   -1.0473    0.0000 C   0  0  0  0  0  0  0  0  0  0  0  0
   -4.5321   -0.8270    0.0000 C   0  0  0  0  0  0  0  0  0  0  0  0
   -5.0831    0.5682    0.0000 C   0  0  0  0  0  0  0  0  0  0  0  0
   -4.1503    1.7429    0.0000 O   0  0  0  0  0  0  0  0  0  0  0  0
   -6.5668    0.7886    0.0000 C   0  0  0  0  0  0  0  0  0  0  0  0
   -7.1178    2.1837    0.0000 C   0  0  0  0  0  0  0  0  0  0  0  0
   -8.6015    2.4041    0.0000 C   0  0  0  0  0  0  0  0  0  0  0  0
   -9.1525    3.7992    0.0000 N   0  0  0  0  0  0  0  0  0  0  0  0
   -1.0136   -2.6629    0.0000 C   0  0  0  0  0  0  0  0  0  0  0  0
   -0.3198   -3.9928    0.0000 C   0  0  0  0  0  0  0  0  0  0  0  0
    1.1594   -3.7439    0.0000 C   0  0  0  0  0  0  0  0  0  0  0  0
    1.3798   -2.2602    0.0000 C   0  0  0  0  0  0  0  0  0  0  0  0
    2.6299   -1.4311    0.0000 C   0  0  0  0  0  0  0  0  0  0  0  0
    3.9729   -2.0992    0.0000 C   0  0  0  0  0  0  0  0  0  0  0  0
    5.2230   -1.2702    0.0000 C   0  0  0  0  0  0  0  0  0  0  0  0
    5.1301    0.2269    0.0000 C   0  0  0  0  0  0  0  0  0  0  0  0
    6.3802    1.0559    0.0000 C   0  0  0  0  0  0  0  0  0  0  0  0
    6.2872    2.5531    0.0000 C   0  0  0  0  0  0  0  0  0  0  0  0
    7.5373    3.3821    0.0000 O   0  0  0  0  0  0  0  0  0  0  0  0
    4.9442    3.2212    0.0000 C   0  0  0  0  0  0  0  0  0  0  0  0
    3.6942    2.3921    0.0000 C   0  0  0  0  0  0  0  0  0  0  0  0
    3.7871    0.8950    0.0000 C   0  0  0  0  0  0  0  0  0  0  0  0
    2.4441    1.5631    0.0000 C   0  0  0  0  0  0  0  0  0  0  0  0
    2.5370    0.0660    0.0000 C   0  0  0  0  0  0  0  0  0  0  0  0
    1.1940    0.7341    0.0000 C   0  0  0  0  0  0  0  0  0  0  0  0
   -0.0561   -0.0949    0.0000 C   0  0  0  0  0  0  0  0  0  0  0  0
   -1.3991    0.5732    0.0000 O   0  0  0  0  0  0  0  0  0  0  0  0
    0.0368   -1.5921    0.0000 C   0  0  0  0  0  0  0  0  0  0  0  0
   -1.3687   -1.0680    0.0000 C   0  0  0  0  0  0  0  0  0  0  0  0
  2  1  1  6
  2  3  1  0
  3  4  1  0
  4  5  1  0
  5  6  2  0
  5  7  1  0
  7  8  1  0
  8  9  1  0
  9 10  1  0
  2 11  1  0
 11 12  1  6
 12 13  1  0
 14 13  1  6
 14 15  1  0
 15 16  1  1
 16 17  1  0
 18 17  1  1
 18 19  1  0
 19 20  1  0
 20 21  1  1
 20 22  1  0
 22 23  1  0
 23 24  1  0
 24 25  1  6
 24 26  1  0
 26 27  1  6
 27 28  1  0
 28 29  1  1
 28 30  1  0
 30 31  1  6
 30 11  1  0
 30 14  1  0
 26 15  1  0
 24 18  1  0
M  END
>  <MS_ID>  (460) 
MS0483

>  <SMILES>  (460) 
C[C@H](CCC(=O)CCCN)[C@H]1CC[C@H]2[C@@H]3CC[C@@H]4C[C@H](O)CC[C@]4(C)[C@H]3C[C@H](O)[C@]12C

>  <Structure_dimension>  (460) 
2D

$$$$
MS0484
     RDKit          2D

 31 34  0  0  0  0  0  0  0  0999 V2000
   -3.7132   -3.4566    0.0000 C   0  0  0  0  0  0  0  0  0  0  0  0
   -2.7767   -2.2848    0.0000 C   0  0  0  0  0  0  0  0  0  0  0  0
   -3.3232   -0.8879    0.0000 C   0  0  0  0  0  0  0  0  0  0  0  0
   -4.8062   -0.6628    0.0000 C   0  0  0  0  0  0  0  0  0  0  0  0
   -5.3527    0.7341    0.0000 C   0  0  0  0  0  0  0  0  0  0  0  0
   -4.4162    1.9059    0.0000 O   0  0  0  0  0  0  0  0  0  0  0  0
   -6.8357    0.9593    0.0000 C   0  0  0  0  0  0  0  0  0  0  0  0
   -7.3822    2.3562    0.0000 C   0  0  0  0  0  0  0  0  0  0  0  0
   -6.4457    3.5279    0.0000 O   0  0  0  0  0  0  0  0  0  0  0  0
   -8.8652    2.5814    0.0000 O   0  0  0  0  0  0  0  0  0  0  0  0
   -1.2937   -2.5100    0.0000 C   0  0  0  0  0  0  0  0  0  0  0  0
   -0.6042   -3.8421    0.0000 C   0  0  0  0  0  0  0  0  0  0  0  0
    0.8758   -3.5980    0.0000 C   0  0  0  0  0  0  0  0  0  0  0  0
    1.1010   -2.1150    0.0000 C   0  0  0  0  0  0  0  0  0  0  0  0
    2.3537   -1.2900    0.0000 C   0  0  0  0  0  0  0  0  0  0  0  0
    3.6946   -1.9624    0.0000 C   0  0  0  0  0  0  0  0  0  0  0  0
    3.7827   -3.4598    0.0000 O   0  0  0  0  0  0  0  0  0  0  0  0
    4.9473   -1.1374    0.0000 C   0  0  0  0  0  0  0  0  0  0  0  0
    4.8592    0.3600    0.0000 C   0  0  0  0  0  0  0  0  0  0  0  0
    6.1120    1.1850    0.0000 C   0  0  0  0  0  0  0  0  0  0  0  0
    6.0239    2.6824    0.0000 C   0  0  0  0  0  0  0  0  0  0  0  0
    7.2767    3.5074    0.0000 O   0  0  0  0  0  0  0  0  0  0  0  0
    4.6831    3.3548    0.0000 C   0  0  0  0  0  0  0  0  0  0  0  0
    3.4303    2.5298    0.0000 C   0  0  0  0  0  0  0  0  0  0  0  0
    3.5184    1.0324    0.0000 C   0  0  0  0  0  0  0  0  0  0  0  0
    2.1776    1.7048    0.0000 C   0  0  0  0  0  0  0  0  0  0  0  0
    2.2656    0.2074    0.0000 C   0  0  0  0  0  0  0  0  0  0  0  0
    0.9248    0.8798    0.0000 C   0  0  0  0  0  0  0  0  0  0  0  0
   -0.3279    0.0548    0.0000 C   0  0  0  0  0  0  0  0  0  0  0  0
   -0.2399   -1.4426    0.0000 C   0  0  0  0  0  0  0  0  0  0  0  0
   -1.6436   -0.9140    0.0000 C   0  0  0  0  0  0  0  0  0  0  0  0
  2  1  1  6
  2  3  1  0
  3  4  1  0
  4  5  1  0
  5  6  2  0
  5  7  1  0
  7  8  1  0
  8  9  2  0
  8 10  1  0
  2 11  1  0
 11 12  1  6
 12 13  1  0
 14 13  1  6
 14 15  1  0
 15 16  1  1
 16 17  1  1
 16 18  1  0
 19 18  1  1
 19 20  1  0
 20 21  1  0
 21 22  2  0
 21 23  1  0
 23 24  1  0
 24 25  1  0
 25 26  1  6
 25 27  1  0
 27 28  1  6
 28 29  1  0
 29 30  1  0
 30 31  1  6
 30 11  1  0
 30 14  1  0
 27 15  1  0
 25 19  1  0
M  END
>  <MS_ID>  (461) 
MS0484

>  <SMILES>  (461) 
C[C@H](CCC(=O)CC(=O)O)[C@H]1CC[C@H]2[C@@H]3[C@H](O)C[C@@H]4CC(=O)CC[C@]4(C)[C@H]3CC[C@]12C

>  <Structure_dimension>  (461) 
2D

$$$$
MS0485
     RDKit          2D

 40 44  0  0  0  0  0  0  0  0999 V2000
   -0.7210   -4.8232    0.0000 C   0  0  0  0  0  0  0  0  0  0  0  0
   -0.1495   -3.4364    0.0000 C   0  0  0  0  0  0  0  0  0  0  0  0
   -1.0648   -2.2480    0.0000 C   0  0  0  0  0  0  0  0  0  0  0  0
   -2.5516   -2.4465    0.0000 C   0  0  0  0  0  0  0  0  0  0  0  0
   -3.4669   -1.2581    0.0000 C   0  0  0  0  0  0  0  0  0  0  0  0
   -2.8953    0.1288    0.0000 O   0  0  0  0  0  0  0  0  0  0  0  0
   -4.9537   -1.4566    0.0000 O   0  0  0  0  0  0  0  0  0  0  0  0
   -5.8690   -0.2682    0.0000 C   0  0  0  0  0  0  0  0  0  0  0  0
   -5.2974    1.1187    0.0000 O   0  0  0  0  0  0  0  0  0  0  0  0
   -6.2127    2.3071    0.0000 C   0  0  0  0  0  0  0  0  0  0  0  0
   -5.6412    3.6939    0.0000 C   0  0  0  0  0  0  0  0  0  0  0  0
   -4.1544    3.8924    0.0000 O   0  0  0  0  0  0  0  0  0  0  0  0
   -7.6995    2.1086    0.0000 C   0  0  0  0  0  0  0  0  0  0  0  0
   -8.6148    3.2970    0.0000 O   0  0  0  0  0  0  0  0  0  0  0  0
   -8.2711    0.7217    0.0000 C   0  0  0  0  0  0  0  0  0  0  0  0
   -9.7579    0.5233    0.0000 O   0  0  0  0  0  0  0  0  0  0  0  0
   -7.3558   -0.4666    0.0000 C   0  0  0  0  0  0  0  0  0  0  0  0
   -7.9273   -1.8535    0.0000 O   0  0  0  0  0  0  0  0  0  0  0  0
    1.3373   -3.2379    0.0000 C   0  0  0  0  0  0  0  0  0  0  0  0
    2.3718   -4.3241    0.0000 C   0  0  0  0  0  0  0  0  0  0  0  0
    3.7245   -3.6759    0.0000 C   0  0  0  0  0  0  0  0  0  0  0  0
    3.5261   -2.1891    0.0000 C   0  0  0  0  0  0  0  0  0  0  0  0
    4.4982   -1.0468    0.0000 C   0  0  0  0  0  0  0  0  0  0  0  0
    5.9735   -1.3175    0.0000 C   0  0  0  0  0  0  0  0  0  0  0  0
    6.4768   -2.7305    0.0000 O   0  0  0  0  0  0  0  0  0  0  0  0
    6.9457   -0.1751    0.0000 C   0  0  0  0  0  0  0  0  0  0  0  0
    6.4424    1.2380    0.0000 C   0  0  0  0  0  0  0  0  0  0  0  0
    7.4145    2.3803    0.0000 C   0  0  0  0  0  0  0  0  0  0  0  0
    6.9113    3.7934    0.0000 C   0  0  0  0  0  0  0  0  0  0  0  0
    7.8834    4.9357    0.0000 O   0  0  0  0  0  0  0  0  0  0  0  0
    5.4359    4.0641    0.0000 C   0  0  0  0  0  0  0  0  0  0  0  0
    4.4638    2.9217    0.0000 C   0  0  0  0  0  0  0  0  0  0  0  0
    4.9670    1.5087    0.0000 C   0  0  0  0  0  0  0  0  0  0  0  0
    3.4917    1.7794    0.0000 C   0  0  0  0  0  0  0  0  0  0  0  0
    3.9949    0.3663    0.0000 C   0  0  0  0  0  0  0  0  0  0  0  0
    2.5196    0.6370    0.0000 C   0  0  0  0  0  0  0  0  0  0  0  0
    1.5474   -0.5054    0.0000 C   0  0  0  0  0  0  0  0  0  0  0  0
    0.0721   -0.2347    0.0000 O   0  0  0  0  0  0  0  0  0  0  0  0
    2.0507   -1.9184    0.0000 C   0  0  0  0  0  0  0  0  0  0  0  0
    0.5551   -1.8034    0.0000 C   0  0  0  0  0  0  0  0  0  0  0  0
  2  1  1  6
  2  3  1  0
  3  4  1  0
  4  5  1  0
  5  6  2  0
  5  7  1  0
  8  7  1  1
  8  9  1  0
  9 10  1  0
 10 11  1  1
 11 12  1  0
 10 13  1  0
 13 14  1  1
 13 15  1  0
 15 16  1  1
 15 17  1  0
 17 18  1  6
  2 19  1  0
 19 20  1  6
 20 21  1  0
 22 21  1  6
 22 23  1  0
 23 24  1  1
 24 25  1  1
 24 26  1  0
 27 26  1  1
 27 28  1  0
 28 29  1  0
 29 30  1  1
 29 31  1  0
 31 32  1  0
 32 33  1  0
 33 34  1  6
 33 35  1  0
 35 36  1  6
 36 37  1  0
 37 38  1  1
 37 39  1  0
 39 40  1  6
 17  8  1  0
 39 19  1  0
 39 22  1  0
 35 23  1  0
 33 27  1  0
M  END
>  <MS_ID>  (462) 
MS0485

>  <SMILES>  (462) 
C[C@H](CCC(=O)O[C@@H]1O[C@H](CO)[C@H](O)[C@H](O)[C@H]1O)[C@H]1CC[C@H]2[C@@H]3[C@H](O)C[C@@H]4C[C@H](O)CC[C@]4(C)[C@H]3C[C@H](O)[C@]12C

>  <Structure_dimension>  (462) 
2D

$$$$
MS0486
     RDKit          2D

 32 35  0  0  0  0  0  0  0  0999 V2000
   -3.1421   -3.6694    0.0000 C   0  0  0  0  0  0  0  0  0  0  0  0
   -2.2628   -2.4541    0.0000 C   0  0  0  0  0  0  0  0  0  0  0  0
   -2.8756   -1.0850    0.0000 C   0  0  0  0  0  0  0  0  0  0  0  0
   -4.3676   -0.9311    0.0000 C   0  0  0  0  0  0  0  0  0  0  0  0
   -4.9804    0.4380    0.0000 C   0  0  0  0  0  0  0  0  0  0  0  0
   -4.1011    1.6532    0.0000 O   0  0  0  0  0  0  0  0  0  0  0  0
   -6.4725    0.5919    0.0000 O   0  0  0  0  0  0  0  0  0  0  0  0
   -7.0853    1.9610    0.0000 C   0  0  0  0  0  0  0  0  0  0  0  0
   -8.5774    2.1149    0.0000 C   0  0  0  0  0  0  0  0  0  0  0  0
   -9.4567    0.8996    0.0000 O   0  0  0  0  0  0  0  0  0  0  0  0
   -9.1901    3.4840    0.0000 O   0  0  0  0  0  0  0  0  0  0  0  0
   -0.7707   -2.6080    0.0000 C   0  0  0  0  0  0  0  0  0  0  0  0
   -0.0182   -3.9056    0.0000 C   0  0  0  0  0  0  0  0  0  0  0  0
    1.4484   -3.5909    0.0000 C   0  0  0  0  0  0  0  0  0  0  0  0
    1.6023   -2.0988    0.0000 C   0  0  0  0  0  0  0  0  0  0  0  0
    2.8141   -1.2147    0.0000 C   0  0  0  0  0  0  0  0  0  0  0  0
    4.1856   -1.8222    0.0000 C   0  0  0  0  0  0  0  0  0  0  0  0
    4.3453   -3.3136    0.0000 O   0  0  0  0  0  0  0  0  0  0  0  0
    5.3974   -0.9381    0.0000 C   0  0  0  0  0  0  0  0  0  0  0  0
    5.2377    0.5533    0.0000 C   0  0  0  0  0  0  0  0  0  0  0  0
    6.4495    1.4374    0.0000 C   0  0  0  0  0  0  0  0  0  0  0  0
    6.2898    2.9289    0.0000 C   0  0  0  0  0  0  0  0  0  0  0  0
    7.5016    3.8129    0.0000 O   0  0  0  0  0  0  0  0  0  0  0  0
    4.9183    3.5363    0.0000 C   0  0  0  0  0  0  0  0  0  0  0  0
    3.7065    2.6522    0.0000 C   0  0  0  0  0  0  0  0  0  0  0  0
    3.8662    1.1608    0.0000 C   0  0  0  0  0  0  0  0  0  0  0  0
    2.4947    1.7682    0.0000 C   0  0  0  0  0  0  0  0  0  0  0  0
    2.6544    0.2767    0.0000 C   0  0  0  0  0  0  0  0  0  0  0  0
    1.2829    0.8842    0.0000 C   0  0  0  0  0  0  0  0  0  0  0  0
    0.0711    0.0001    0.0000 C   0  0  0  0  0  0  0  0  0  0  0  0
    0.2308   -1.4914    0.0000 C   0  0  0  0  0  0  0  0  0  0  0  0
   -1.1967   -1.0306    0.0000 C   0  0  0  0  0  0  0  0  0  0  0  0
  2  1  1  6
  2  3  1  0
  3  4  1  0
  4  5  1  0
  5  6  2  0
  5  7  1  0
  7  8  1  0
  8  9  1  0
  9 10  2  0
  9 11  1  0
  2 12  1  0
 12 13  1  6
 13 14  1  0
 15 14  1  6
 15 16  1  0
 16 17  1  1
 17 18  1  6
 17 19  1  0
 20 19  1  1
 20 21  1  0
 21 22  1  0
 22 23  1  1
 22 24  1  0
 24 25  1  0
 25 26  1  0
 26 27  1  6
 26 28  1  0
 28 29  1  6
 29 30  1  0
 30 31  1  0
 31 32  1  6
 31 12  1  0
 31 15  1  0
 28 16  1  0
 26 20  1  0
M  END
>  <MS_ID>  (463) 
MS0486

>  <SMILES>  (463) 
C[C@H](CCC(=O)OCC(=O)O)[C@H]1CC[C@H]2[C@@H]3[C@@H](O)C[C@@H]4C[C@H](O)CC[C@]4(C)[C@H]3CC[C@]12C

>  <Structure_dimension>  (463) 
2D

$$$$
MS0487
     RDKit          2D

 32 35  0  0  0  0  0  0  0  0999 V2000
   -3.0684   -3.9444    0.0000 C   0  0  0  0  0  0  0  0  0  0  0  0
   -2.2742   -2.6719    0.0000 C   0  0  0  0  0  0  0  0  0  0  0  0
   -2.9791   -1.3479    0.0000 C   0  0  0  0  0  0  0  0  0  0  0  0
   -4.4782   -1.2963    0.0000 C   0  0  0  0  0  0  0  0  0  0  0  0
   -5.1832    0.0277    0.0000 C   0  0  0  0  0  0  0  0  0  0  0  0
   -6.6823    0.0792    0.0000 O   0  0  0  0  0  0  0  0  0  0  0  0
   -4.3890    1.3002    0.0000 O   0  0  0  0  0  0  0  0  0  0  0  0
   -5.0939    2.6242    0.0000 S   0  0  0  0  0  0  0  0  0  0  0  0
   -6.4180    1.9193    0.0000 O   0  0  0  0  0  0  0  0  0  0  0  0
   -3.7699    3.3292    0.0000 O   0  0  0  0  0  0  0  0  0  0  0  0
   -5.7989    3.9483    0.0000 O   0  0  0  0  0  0  0  0  0  0  0  0
   -0.7751   -2.7234    0.0000 C   0  0  0  0  0  0  0  0  0  0  0  0
    0.0644   -3.9665    0.0000 C   0  0  0  0  0  0  0  0  0  0  0  0
    1.5061   -3.5523    0.0000 C   0  0  0  0  0  0  0  0  0  0  0  0
    1.5576   -2.0532    0.0000 C   0  0  0  0  0  0  0  0  0  0  0  0
    2.7061   -1.0884    0.0000 C   0  0  0  0  0  0  0  0  0  0  0  0
    4.1160   -1.6006    0.0000 C   0  0  0  0  0  0  0  0  0  0  0  0
    4.3772   -3.0777    0.0000 O   0  0  0  0  0  0  0  0  0  0  0  0
    5.2645   -0.6358    0.0000 C   0  0  0  0  0  0  0  0  0  0  0  0
    5.0032    0.8413    0.0000 C   0  0  0  0  0  0  0  0  0  0  0  0
    6.1517    1.8061    0.0000 C   0  0  0  0  0  0  0  0  0  0  0  0
    5.8905    3.2832    0.0000 C   0  0  0  0  0  0  0  0  0  0  0  0
    4.4806    3.7954    0.0000 C   0  0  0  0  0  0  0  0  0  0  0  0
    3.3321    2.8306    0.0000 C   0  0  0  0  0  0  0  0  0  0  0  0
    3.5934    1.3535    0.0000 C   0  0  0  0  0  0  0  0  0  0  0  0
    2.1836    1.8658    0.0000 C   0  0  0  0  0  0  0  0  0  0  0  0
    2.4449    0.3887    0.0000 C   0  0  0  0  0  0  0  0  0  0  0  0
    1.0350    0.9010    0.0000 C   0  0  0  0  0  0  0  0  0  0  0  0
   -0.1135   -0.0638    0.0000 C   0  0  0  0  0  0  0  0  0  0  0  0
   -1.5233    0.4484    0.0000 O   0  0  0  0  0  0  0  0  0  0  0  0
    0.1478   -1.5409    0.0000 C   0  0  0  0  0  0  0  0  0  0  0  0
   -1.3079   -1.1788    0.0000 C   0  0  0  0  0  0  0  0  0  0  0  0
  2  1  1  6
  2  3  1  0
  3  4  1  0
  4  5  1  0
  5  6  2  0
  5  7  1  0
  7  8  1  0
  8  9  2  0
  8 10  2  0
  8 11  1  0
  2 12  1  0
 12 13  1  6
 13 14  1  0
 15 14  1  6
 15 16  1  0
 16 17  1  1
 17 18  1  1
 17 19  1  0
 20 19  1  1
 20 21  1  0
 21 22  1  0
 22 23  1  0
 23 24  1  0
 24 25  1  0
 25 26  1  6
 25 27  1  0
 27 28  1  6
 28 29  1  0
 29 30  1  1
 29 31  1  0
 31 32  1  6
 31 12  1  0
 31 15  1  0
 27 16  1  0
 25 20  1  0
M  END
>  <MS_ID>  (464) 
MS0487

>  <SMILES>  (464) 
C[C@H](CCC(=O)OS(=O)(=O)O)[C@H]1CC[C@H]2[C@@H]3[C@H](O)C[C@@H]4CCCC[C@]4(C)[C@H]3C[C@H](O)[C@]12C

>  <Structure_dimension>  (464) 
2D

$$$$
MS0488
     RDKit          2D

 32 35  0  0  0  0  0  0  0  0999 V2000
   -3.9539   -2.9832    0.0000 C   0  0  0  0  0  0  0  0  0  0  0  0
   -2.9202   -1.8962    0.0000 C   0  0  0  0  0  0  0  0  0  0  0  0
   -3.3447   -0.4575    0.0000 C   0  0  0  0  0  0  0  0  0  0  0  0
   -4.8029   -0.1058    0.0000 C   0  0  0  0  0  0  0  0  0  0  0  0
   -5.2274    1.3329    0.0000 C   0  0  0  0  0  0  0  0  0  0  0  0
   -4.1937    2.4198    0.0000 O   0  0  0  0  0  0  0  0  0  0  0  0
   -6.6856    1.6846    0.0000 C   0  0  0  0  0  0  0  0  0  0  0  0
   -8.1438    2.0363    0.0000 F   0  0  0  0  0  0  0  0  0  0  0  0
   -6.3339    3.1427    0.0000 F   0  0  0  0  0  0  0  0  0  0  0  0
   -7.0373    0.2264    0.0000 F   0  0  0  0  0  0  0  0  0  0  0  0
   -1.4620   -2.2479    0.0000 C   0  0  0  0  0  0  0  0  0  0  0  0
   -0.8894   -3.6343    0.0000 C   0  0  0  0  0  0  0  0  0  0  0  0
    0.6061   -3.5182    0.0000 C   0  0  0  0  0  0  0  0  0  0  0  0
    0.9578   -2.0600    0.0000 C   0  0  0  0  0  0  0  0  0  0  0  0
    2.2768   -1.3457    0.0000 C   0  0  0  0  0  0  0  0  0  0  0  0
    3.5549   -2.1307    0.0000 C   0  0  0  0  0  0  0  0  0  0  0  0
    3.5141   -3.6302    0.0000 O   0  0  0  0  0  0  0  0  0  0  0  0
    4.8739   -1.4164    0.0000 C   0  0  0  0  0  0  0  0  0  0  0  0
    4.9147    0.0830    0.0000 C   0  0  0  0  0  0  0  0  0  0  0  0
    6.2337    0.7974    0.0000 C   0  0  0  0  0  0  0  0  0  0  0  0
    6.2745    2.2968    0.0000 C   0  0  0  0  0  0  0  0  0  0  0  0
    7.5935    3.0112    0.0000 O   0  0  0  0  0  0  0  0  0  0  0  0
    4.9964    3.0819    0.0000 C   0  0  0  0  0  0  0  0  0  0  0  0
    3.6774    2.3676    0.0000 C   0  0  0  0  0  0  0  0  0  0  0  0
    3.6366    0.8681    0.0000 C   0  0  0  0  0  0  0  0  0  0  0  0
    2.3584    1.6532    0.0000 C   0  0  0  0  0  0  0  0  0  0  0  0
    2.3176    0.1538    0.0000 C   0  0  0  0  0  0  0  0  0  0  0  0
    1.0395    0.9389    0.0000 C   0  0  0  0  0  0  0  0  0  0  0  0
   -0.2795    0.2245    0.0000 C   0  0  0  0  0  0  0  0  0  0  0  0
   -1.5577    1.0096    0.0000 O   0  0  0  0  0  0  0  0  0  0  0  0
   -0.3204   -1.2749    0.0000 C   0  0  0  0  0  0  0  0  0  0  0  0
   -1.6736   -0.6277    0.0000 C   0  0  0  0  0  0  0  0  0  0  0  0
  2  1  1  6
  2  3  1  0
  3  4  1  0
  4  5  1  0
  5  6  2  0
  5  7  1  0
  7  8  1  0
  7  9  1  0
  7 10  1  0
  2 11  1  0
 11 12  1  6
 12 13  1  0
 14 13  1  6
 14 15  1  0
 15 16  1  1
 16 17  1  1
 16 18  1  0
 19 18  1  1
 19 20  1  0
 20 21  1  0
 21 22  1  1
 21 23  1  0
 23 24  1  0
 24 25  1  0
 25 26  1  6
 25 27  1  0
 27 28  1  6
 28 29  1  0
 29 30  1  1
 29 31  1  0
 31 32  1  6
 31 11  1  0
 31 14  1  0
 27 15  1  0
 25 19  1  0
M  END
>  <MS_ID>  (465) 
MS0488

>  <SMILES>  (465) 
C[C@H](CCC(=O)C(F)(F)F)[C@H]1CC[C@H]2[C@@H]3[C@H](O)C[C@@H]4C[C@H](O)CC[C@]4(C)[C@H]3C[C@H](O)[C@]12C

>  <Structure_dimension>  (465) 
2D

$$$$
MS0489
     RDKit          2D

 32 35  0  0  0  0  0  0  0  0999 V2000
   -3.9539   -2.9832    0.0000 C   0  0  0  0  0  0  0  0  0  0  0  0
   -2.9202   -1.8962    0.0000 C   0  0  0  0  0  0  0  0  0  0  0  0
   -3.3447   -0.4575    0.0000 C   0  0  0  0  0  0  0  0  0  0  0  0
   -4.8029   -0.1058    0.0000 C   0  0  0  0  0  0  0  0  0  0  0  0
   -5.2274    1.3329    0.0000 C   0  0  0  0  0  0  0  0  0  0  0  0
   -4.1937    2.4198    0.0000 O   0  0  0  0  0  0  0  0  0  0  0  0
   -6.6856    1.6846    0.0000 C   0  0  0  0  0  0  0  0  0  0  0  0
   -8.1438    2.0363    0.0000 Cl  0  0  0  0  0  0  0  0  0  0  0  0
   -6.3339    3.1427    0.0000 Cl  0  0  0  0  0  0  0  0  0  0  0  0
   -7.0373    0.2264    0.0000 Cl  0  0  0  0  0  0  0  0  0  0  0  0
   -1.4620   -2.2479    0.0000 C   0  0  0  0  0  0  0  0  0  0  0  0
   -0.8894   -3.6343    0.0000 C   0  0  0  0  0  0  0  0  0  0  0  0
    0.6061   -3.5182    0.0000 C   0  0  0  0  0  0  0  0  0  0  0  0
    0.9578   -2.0600    0.0000 C   0  0  0  0  0  0  0  0  0  0  0  0
    2.2768   -1.3457    0.0000 C   0  0  0  0  0  0  0  0  0  0  0  0
    3.5549   -2.1307    0.0000 C   0  0  0  0  0  0  0  0  0  0  0  0
    3.5141   -3.6302    0.0000 O   0  0  0  0  0  0  0  0  0  0  0  0
    4.8739   -1.4164    0.0000 C   0  0  0  0  0  0  0  0  0  0  0  0
    4.9147    0.0830    0.0000 C   0  0  0  0  0  0  0  0  0  0  0  0
    6.2337    0.7974    0.0000 C   0  0  0  0  0  0  0  0  0  0  0  0
    6.2745    2.2968    0.0000 C   0  0  0  0  0  0  0  0  0  0  0  0
    7.5935    3.0112    0.0000 O   0  0  0  0  0  0  0  0  0  0  0  0
    4.9964    3.0819    0.0000 C   0  0  0  0  0  0  0  0  0  0  0  0
    3.6774    2.3676    0.0000 C   0  0  0  0  0  0  0  0  0  0  0  0
    3.6366    0.8681    0.0000 C   0  0  0  0  0  0  0  0  0  0  0  0
    2.3584    1.6532    0.0000 C   0  0  0  0  0  0  0  0  0  0  0  0
    2.3176    0.1538    0.0000 C   0  0  0  0  0  0  0  0  0  0  0  0
    1.0395    0.9389    0.0000 C   0  0  0  0  0  0  0  0  0  0  0  0
   -0.2795    0.2245    0.0000 C   0  0  0  0  0  0  0  0  0  0  0  0
   -1.5577    1.0096    0.0000 O   0  0  0  0  0  0  0  0  0  0  0  0
   -0.3204   -1.2749    0.0000 C   0  0  0  0  0  0  0  0  0  0  0  0
   -1.6736   -0.6277    0.0000 C   0  0  0  0  0  0  0  0  0  0  0  0
  2  1  1  6
  2  3  1  0
  3  4  1  0
  4  5  1  0
  5  6  2  0
  5  7  1  0
  7  8  1  0
  7  9  1  0
  7 10  1  0
  2 11  1  0
 11 12  1  6
 12 13  1  0
 14 13  1  6
 14 15  1  0
 15 16  1  1
 16 17  1  1
 16 18  1  0
 19 18  1  1
 19 20  1  0
 20 21  1  0
 21 22  1  1
 21 23  1  0
 23 24  1  0
 24 25  1  0
 25 26  1  6
 25 27  1  0
 27 28  1  6
 28 29  1  0
 29 30  1  1
 29 31  1  0
 31 32  1  6
 31 11  1  0
 31 14  1  0
 27 15  1  0
 25 19  1  0
M  END
>  <MS_ID>  (466) 
MS0489

>  <SMILES>  (466) 
C[C@H](CCC(=O)C(Cl)(Cl)Cl)[C@H]1CC[C@H]2[C@@H]3[C@H](O)C[C@@H]4C[C@H](O)CC[C@]4(C)[C@H]3C[C@H](O)[C@]12C

>  <Structure_dimension>  (466) 
2D

$$$$
MS0490
     RDKit          2D

 31 34  0  0  0  0  0  0  0  0999 V2000
   -9.4306    3.6828    0.0000 C   0  0  0  0  0  0  0  0  0  0  0  0
   -8.8425    2.3029    0.0000 C   0  0  0  0  0  0  0  0  0  0  0  0
   -7.3534    2.1223    0.0000 C   0  0  0  0  0  0  0  0  0  0  0  0
   -6.7653    0.7424    0.0000 O   0  0  0  0  0  0  0  0  0  0  0  0
   -5.2762    0.5618    0.0000 C   0  0  0  0  0  0  0  0  0  0  0  0
   -4.3753    1.7610    0.0000 O   0  0  0  0  0  0  0  0  0  0  0  0
   -4.6881   -0.8181    0.0000 C   0  0  0  0  0  0  0  0  0  0  0  0
   -3.1991   -0.9988    0.0000 C   0  0  0  0  0  0  0  0  0  0  0  0
   -2.6109   -2.3787    0.0000 C   0  0  0  0  0  0  0  0  0  0  0  0
   -3.5119   -3.5779    0.0000 C   0  0  0  0  0  0  0  0  0  0  0  0
   -1.1219   -2.5593    0.0000 C   0  0  0  0  0  0  0  0  0  0  0  0
   -0.3927   -3.8702    0.0000 C   0  0  0  0  0  0  0  0  0  0  0  0
    1.0793   -3.5818    0.0000 C   0  0  0  0  0  0  0  0  0  0  0  0
    1.2599   -2.0927    0.0000 C   0  0  0  0  0  0  0  0  0  0  0  0
    2.4874   -1.2306    0.0000 C   0  0  0  0  0  0  0  0  0  0  0  0
    3.8478   -1.8625    0.0000 C   0  0  0  0  0  0  0  0  0  0  0  0
    3.9807   -3.3566    0.0000 O   0  0  0  0  0  0  0  0  0  0  0  0
    5.0753   -1.0003    0.0000 C   0  0  0  0  0  0  0  0  0  0  0  0
    4.9423    0.4938    0.0000 C   0  0  0  0  0  0  0  0  0  0  0  0
    6.1698    1.3559    0.0000 C   0  0  0  0  0  0  0  0  0  0  0  0
    6.0369    2.8500    0.0000 C   0  0  0  0  0  0  0  0  0  0  0  0
    7.2644    3.7122    0.0000 O   0  0  0  0  0  0  0  0  0  0  0  0
    4.6765    3.4820    0.0000 C   0  0  0  0  0  0  0  0  0  0  0  0
    3.4490    2.6198    0.0000 C   0  0  0  0  0  0  0  0  0  0  0  0
    3.5820    1.1257    0.0000 C   0  0  0  0  0  0  0  0  0  0  0  0
    2.2216    1.7576    0.0000 C   0  0  0  0  0  0  0  0  0  0  0  0
    2.3545    0.2635    0.0000 C   0  0  0  0  0  0  0  0  0  0  0  0
    0.9941    0.8955    0.0000 C   0  0  0  0  0  0  0  0  0  0  0  0
   -0.2334    0.0333    0.0000 C   0  0  0  0  0  0  0  0  0  0  0  0
   -0.1005   -1.4608    0.0000 C   0  0  0  0  0  0  0  0  0  0  0  0
   -1.5195   -0.9745    0.0000 C   0  0  0  0  0  0  0  0  0  0  0  0
  1  2  1  0
  2  3  1  0
  3  4  1  0
  4  5  1  0
  5  6  2  0
  5  7  1  0
  7  8  1  0
  8  9  1  0
  9 10  1  6
  9 11  1  0
 11 12  1  6
 12 13  1  0
 14 13  1  6
 14 15  1  0
 15 16  1  1
 16 17  1  1
 16 18  1  0
 19 18  1  1
 19 20  1  0
 20 21  1  0
 21 22  2  0
 21 23  1  0
 23 24  1  0
 24 25  1  0
 25 26  1  6
 25 27  1  0
 27 28  1  6
 28 29  1  0
 29 30  1  0
 30 31  1  6
 30 11  1  0
 30 14  1  0
 27 15  1  0
 25 19  1  0
M  END
>  <MS_ID>  (467) 
MS0490

>  <SMILES>  (467) 
CCCOC(=O)CC[C@@H](C)[C@H]1CC[C@H]2[C@@H]3[C@H](O)C[C@@H]4CC(=O)CC[C@]4(C)[C@H]3CC[C@]12C

>  <Structure_dimension>  (467) 
2D

$$$$
MS0491
     RDKit          2D

 32 35  0  0  0  0  0  0  0  0999 V2000
   -4.5868   -2.9726    0.0000 C   0  0  0  0  0  0  0  0  0  0  0  0
   -3.7544   -1.7248    0.0000 C   0  0  0  0  0  0  0  0  0  0  0  0
   -4.4189   -0.3800    0.0000 C   0  0  0  0  0  0  0  0  0  0  0  0
   -5.9157   -0.2830    0.0000 C   0  0  0  0  0  0  0  0  0  0  0  0
   -6.5802    1.0618    0.0000 C   0  0  0  0  0  0  0  0  0  0  0  0
   -5.7478    2.3096    0.0000 O   0  0  0  0  0  0  0  0  0  0  0  0
   -8.0771    1.1587    0.0000 O   0  0  0  0  0  0  0  0  0  0  0  0
   -2.2575   -1.8217    0.0000 C   0  0  0  0  0  0  0  0  0  0  0  0
   -1.4561   -3.0897    0.0000 C   0  0  0  0  0  0  0  0  0  0  0  0
   -0.0025   -2.7193    0.0000 C   0  0  0  0  0  0  0  0  0  0  0  0
    0.0944   -1.2224    0.0000 C   0  0  0  0  0  0  0  0  0  0  0  0
    1.2716   -0.2929    0.0000 C   0  0  0  0  0  0  0  0  0  0  0  0
    2.6653   -0.8476    0.0000 C   0  0  0  0  0  0  0  0  0  0  0  0
    2.8817   -2.3319    0.0000 O   0  0  0  0  0  0  0  0  0  0  0  0
    4.2753   -2.8867    0.0000 S   0  0  0  0  0  0  0  0  0  0  0  0
    4.8301   -1.4930    0.0000 O   0  0  0  0  0  0  0  0  0  0  0  0
    3.7206   -4.2803    0.0000 O   0  0  0  0  0  0  0  0  0  0  0  0
    5.6690   -3.4414    0.0000 O   0  0  0  0  0  0  0  0  0  0  0  0
    3.8425    0.0819    0.0000 C   0  0  0  0  0  0  0  0  0  0  0  0
    3.6261    1.5663    0.0000 C   0  0  0  0  0  0  0  0  0  0  0  0
    4.8034    2.4958    0.0000 C   0  0  0  0  0  0  0  0  0  0  0  0
    4.5870    3.9801    0.0000 C   0  0  0  0  0  0  0  0  0  0  0  0
    3.1933    4.5349    0.0000 C   0  0  0  0  0  0  0  0  0  0  0  0
    2.0161    3.6053    0.0000 C   0  0  0  0  0  0  0  0  0  0  0  0
    2.2325    2.1210    0.0000 C   0  0  0  0  0  0  0  0  0  0  0  0
    0.8388    2.6757    0.0000 C   0  0  0  0  0  0  0  0  0  0  0  0
    1.0552    1.1914    0.0000 C   0  0  0  0  0  0  0  0  0  0  0  0
   -0.3384    1.7462    0.0000 C   0  0  0  0  0  0  0  0  0  0  0  0
   -1.5157    0.8166    0.0000 C   0  0  0  0  0  0  0  0  0  0  0  0
   -2.9093    1.3714    0.0000 O   0  0  0  0  0  0  0  0  0  0  0  0
   -1.2993   -0.6677    0.0000 C   0  0  0  0  0  0  0  0  0  0  0  0
   -2.7433   -0.2617    0.0000 C   0  0  0  0  0  0  0  0  0  0  0  0
  2  1  1  6
  2  3  1  0
  3  4  1  0
  4  5  1  0
  5  6  2  0
  5  7  1  0
  2  8  1  0
  8  9  1  6
  9 10  1  0
 11 10  1  6
 11 12  1  0
 12 13  1  1
 13 14  1  1
 14 15  1  0
 15 16  2  0
 15 17  2  0
 15 18  1  0
 13 19  1  0
 20 19  1  1
 20 21  1  0
 21 22  1  0
 22 23  1  0
 23 24  1  0
 24 25  1  0
 25 26  1  6
 25 27  1  0
 27 28  1  6
 28 29  1  0
 29 30  1  6
 29 31  1  0
 31 32  1  6
 31  8  1  0
 31 11  1  0
 27 12  1  0
 25 20  1  0
M  END
>  <MS_ID>  (468) 
MS0491

>  <SMILES>  (468) 
C[C@H](CCC(=O)O)[C@H]1CC[C@H]2[C@@H]3[C@H](OS(=O)(=O)O)C[C@@H]4CCCC[C@]4(C)[C@H]3C[C@@H](O)[C@]12C

>  <Structure_dimension>  (468) 
2D

$$$$
MS0492
     RDKit          2D

 33 36  0  0  0  0  0  0  0  0999 V2000
   -3.0978   -3.6919    0.0000 C   0  0  0  0  0  0  0  0  0  0  0  0
   -2.2201   -2.4755    0.0000 C   0  0  0  0  0  0  0  0  0  0  0  0
   -2.8347   -1.1072    0.0000 C   0  0  0  0  0  0  0  0  0  0  0  0
   -4.3270   -0.9552    0.0000 C   0  0  0  0  0  0  0  0  0  0  0  0
   -4.9416    0.4131    0.0000 C   0  0  0  0  0  0  0  0  0  0  0  0
   -4.0639    1.6295    0.0000 O   0  0  0  0  0  0  0  0  0  0  0  0
   -6.4339    0.5650    0.0000 C   0  0  0  0  0  0  0  0  0  0  0  0
   -7.0484    1.9333    0.0000 C   0  0  0  0  0  0  0  0  0  0  0  0
   -8.5407    2.0852    0.0000 C   0  0  0  0  0  0  0  0  0  0  0  0
   -9.4184    0.8688    0.0000 O   0  0  0  0  0  0  0  0  0  0  0  0
   -9.1553    3.4535    0.0000 O   0  0  0  0  0  0  0  0  0  0  0  0
   -0.7278   -2.6274    0.0000 C   0  0  0  0  0  0  0  0  0  0  0  0
    0.0264   -3.9240    0.0000 C   0  0  0  0  0  0  0  0  0  0  0  0
    1.4926   -3.6073    0.0000 C   0  0  0  0  0  0  0  0  0  0  0  0
    1.6445   -2.1150    0.0000 C   0  0  0  0  0  0  0  0  0  0  0  0
    2.8552   -1.2294    0.0000 C   0  0  0  0  0  0  0  0  0  0  0  0
    4.2275   -1.8350    0.0000 C   0  0  0  0  0  0  0  0  0  0  0  0
    4.3891   -3.3263    0.0000 O   0  0  0  0  0  0  0  0  0  0  0  0
    5.4381   -0.9494    0.0000 C   0  0  0  0  0  0  0  0  0  0  0  0
    5.2764    0.5419    0.0000 C   0  0  0  0  0  0  0  0  0  0  0  0
    6.4871    1.4275    0.0000 C   0  0  0  0  0  0  0  0  0  0  0  0
    6.3254    2.9188    0.0000 C   0  0  0  0  0  0  0  0  0  0  0  0
    7.5360    3.8044    0.0000 O   0  0  0  0  0  0  0  0  0  0  0  0
    4.9531    3.5244    0.0000 C   0  0  0  0  0  0  0  0  0  0  0  0
    3.7425    2.6388    0.0000 C   0  0  0  0  0  0  0  0  0  0  0  0
    3.9041    1.1475    0.0000 C   0  0  0  0  0  0  0  0  0  0  0  0
    2.5318    1.7531    0.0000 C   0  0  0  0  0  0  0  0  0  0  0  0
    2.6935    0.2619    0.0000 C   0  0  0  0  0  0  0  0  0  0  0  0
    1.3212    0.8675    0.0000 C   0  0  0  0  0  0  0  0  0  0  0  0
    0.1105   -0.0181    0.0000 C   0  0  0  0  0  0  0  0  0  0  0  0
   -1.2618    0.5875    0.0000 O   0  0  0  0  0  0  0  0  0  0  0  0
    0.2722   -1.5094    0.0000 C   0  0  0  0  0  0  0  0  0  0  0  0
   -1.1559   -1.0505    0.0000 C   0  0  0  0  0  0  0  0  0  0  0  0
  2  1  1  6
  2  3  1  0
  3  4  1  0
  4  5  1  0
  5  6  2  0
  5  7  1  0
  7  8  1  0
  8  9  1  0
  9 10  2  0
  9 11  1  0
  2 12  1  0
 12 13  1  6
 13 14  1  0
 15 14  1  6
 15 16  1  0
 16 17  1  1
 17 18  1  1
 17 19  1  0
 20 19  1  1
 20 21  1  0
 21 22  1  0
 22 23  2  0
 22 24  1  0
 24 25  1  0
 25 26  1  0
 26 27  1  6
 26 28  1  0
 28 29  1  6
 29 30  1  0
 30 31  1  1
 30 32  1  0
 32 33  1  6
 32 12  1  0
 32 15  1  0
 28 16  1  0
 26 20  1  0
M  END
>  <MS_ID>  (469) 
MS0492

>  <SMILES>  (469) 
C[C@H](CCC(=O)CCC(=O)O)[C@H]1CC[C@H]2[C@@H]3[C@H](O)C[C@@H]4CC(=O)CC[C@]4(C)[C@H]3C[C@H](O)[C@]12C

>  <Structure_dimension>  (469) 
2D

$$$$
MS0493
     RDKit          2D

 28 31  0  0  0  0  0  0  0  0999 V2000
   -5.0096   -2.1352    0.0000 C   0  0  0  0  0  0  0  0  0  0  0  0
   -3.8132   -1.2303    0.0000 C   0  0  0  0  0  0  0  0  0  0  0  0
   -3.9987    0.2582    0.0000 C   0  0  0  0  0  0  0  0  0  0  0  0
   -5.3805    0.8418    0.0000 C   0  0  0  0  0  0  0  0  0  0  0  0
   -5.5659    2.3303    0.0000 C   0  0  0  0  0  0  0  0  0  0  0  0
   -6.9477    2.9140    0.0000 O   0  0  0  0  0  0  0  0  0  0  0  0
   -4.3695    3.2351    0.0000 F   0  0  0  0  0  0  0  0  0  0  0  0
   -2.4315   -1.8140    0.0000 C   0  0  0  0  0  0  0  0  0  0  0  0
   -2.0914   -3.2749    0.0000 C   0  0  0  0  0  0  0  0  0  0  0  0
   -0.5969   -3.4030    0.0000 C   0  0  0  0  0  0  0  0  0  0  0  0
   -0.0133   -2.0212    0.0000 C   0  0  0  0  0  0  0  0  0  0  0  0
    1.4041   -1.5304    0.0000 C   0  0  0  0  0  0  0  0  0  0  0  0
    2.5379   -2.5125    0.0000 C   0  0  0  0  0  0  0  0  0  0  0  0
    3.9554   -2.0216    0.0000 C   0  0  0  0  0  0  0  0  0  0  0  0
    4.2390   -0.5487    0.0000 C   0  0  0  0  0  0  0  0  0  0  0  0
    5.6564   -0.0578    0.0000 C   0  0  0  0  0  0  0  0  0  0  0  0
    5.9400    1.4151    0.0000 C   0  0  0  0  0  0  0  0  0  0  0  0
    7.3574    1.9060    0.0000 O   0  0  0  0  0  0  0  0  0  0  0  0
    4.8062    2.3972    0.0000 C   0  0  0  0  0  0  0  0  0  0  0  0
    3.3888    1.9064    0.0000 C   0  0  0  0  0  0  0  0  0  0  0  0
    3.1052    0.4334    0.0000 C   0  0  0  0  0  0  0  0  0  0  0  0
    1.9714    1.4155    0.0000 C   0  0  0  0  0  0  0  0  0  0  0  0
    1.6878   -0.0574    0.0000 C   0  0  0  0  0  0  0  0  0  0  0  0
    0.5540    0.9246    0.0000 C   0  0  0  0  0  0  0  0  0  0  0  0
   -0.8635    0.4338    0.0000 C   0  0  0  0  0  0  0  0  0  0  0  0
   -1.9973    1.4159    0.0000 O   0  0  0  0  0  0  0  0  0  0  0  0
   -1.1471   -1.0392    0.0000 C   0  0  0  0  0  0  0  0  0  0  0  0
   -2.3773   -0.1810    0.0000 C   0  0  0  0  0  0  0  0  0  0  0  0
  2  1  1  6
  2  3  1  0
  3  4  1  0
  4  5  1  0
  5  6  2  0
  5  7  1  0
  2  8  1  0
  8  9  1  6
  9 10  1  0
 11 10  1  6
 11 12  1  0
 12 13  1  1
 13 14  1  0
 15 14  1  1
 15 16  1  0
 16 17  1  0
 17 18  1  6
 17 19  1  0
 19 20  1  0
 20 21  1  0
 21 22  1  6
 21 23  1  0
 23 24  1  6
 24 25  1  0
 25 26  1  1
 25 27  1  0
 27 28  1  6
 27  8  1  0
 27 11  1  0
 23 12  1  0
 21 15  1  0
M  END
>  <MS_ID>  (470) 
MS0493

>  <SMILES>  (470) 
C[C@H](CCC(=O)F)[C@H]1CC[C@H]2[C@@H]3CC[C@@H]4C[C@@H](O)CC[C@]4(C)[C@H]3C[C@H](O)[C@]12C

>  <Structure_dimension>  (470) 
2D

$$$$
MS0494
     RDKit          2D

 31 34  0  0  0  0  0  0  0  0999 V2000
   -8.8672    3.1400    0.0000 C   0  0  0  0  0  0  0  0  0  0  0  0
   -7.3980    2.8376    0.0000 C   0  0  0  0  0  0  0  0  0  0  0  0
   -6.9253    1.4140    0.0000 N   0  0  0  0  0  0  0  0  0  0  0  0
   -5.4561    1.1115    0.0000 C   0  0  0  0  0  0  0  0  0  0  0  0
   -4.4596    2.2326    0.0000 O   0  0  0  0  0  0  0  0  0  0  0  0
   -4.9835   -0.3121    0.0000 C   0  0  0  0  0  0  0  0  0  0  0  0
   -3.5143   -0.6145    0.0000 C   0  0  0  0  0  0  0  0  0  0  0  0
   -3.0416   -2.0381    0.0000 C   0  0  0  0  0  0  0  0  0  0  0  0
   -4.0382   -3.1592    0.0000 C   0  0  0  0  0  0  0  0  0  0  0  0
   -1.5724   -2.3406    0.0000 C   0  0  0  0  0  0  0  0  0  0  0  0
   -0.9536   -3.7070    0.0000 C   0  0  0  0  0  0  0  0  0  0  0  0
    0.5372   -3.5406    0.0000 C   0  0  0  0  0  0  0  0  0  0  0  0
    0.8396   -2.0714    0.0000 C   0  0  0  0  0  0  0  0  0  0  0  0
    2.1338   -1.3131    0.0000 C   0  0  0  0  0  0  0  0  0  0  0  0
    3.4377   -2.0548    0.0000 C   0  0  0  0  0  0  0  0  0  0  0  0
    3.4473   -3.5547    0.0000 O   0  0  0  0  0  0  0  0  0  0  0  0
    4.7319   -1.2965    0.0000 C   0  0  0  0  0  0  0  0  0  0  0  0
    4.7223    0.2035    0.0000 C   0  0  0  0  0  0  0  0  0  0  0  0
    6.0165    0.9618    0.0000 C   0  0  0  0  0  0  0  0  0  0  0  0
    6.0069    2.4618    0.0000 C   0  0  0  0  0  0  0  0  0  0  0  0
    7.3011    3.2201    0.0000 O   0  0  0  0  0  0  0  0  0  0  0  0
    4.7030    3.2034    0.0000 C   0  0  0  0  0  0  0  0  0  0  0  0
    3.4088    2.4451    0.0000 C   0  0  0  0  0  0  0  0  0  0  0  0
    3.4184    0.9452    0.0000 C   0  0  0  0  0  0  0  0  0  0  0  0
    2.1146    1.6868    0.0000 C   0  0  0  0  0  0  0  0  0  0  0  0
    2.1242    0.1869    0.0000 C   0  0  0  0  0  0  0  0  0  0  0  0
    0.8204    0.9285    0.0000 C   0  0  0  0  0  0  0  0  0  0  0  0
   -0.4738    0.1702    0.0000 C   0  0  0  0  0  0  0  0  0  0  0  0
   -1.7776    0.9119    0.0000 O   0  0  0  0  0  0  0  0  0  0  0  0
   -0.4642   -1.3298    0.0000 C   0  0  0  0  0  0  0  0  0  0  0  0
   -1.8384   -0.7284    0.0000 C   0  0  0  0  0  0  0  0  0  0  0  0
  1  2  1  0
  2  3  1  0
  3  4  1  0
  4  5  2  0
  4  6  1  0
  6  7  1  0
  7  8  1  0
  8  9  1  6
  8 10  1  0
 10 11  1  6
 11 12  1  0
 13 12  1  6
 13 14  1  0
 14 15  1  1
 15 16  1  1
 15 17  1  0
 18 17  1  1
 18 19  1  0
 19 20  1  0
 20 21  1  1
 20 22  1  0
 22 23  1  0
 23 24  1  0
 24 25  1  6
 24 26  1  0
 26 27  1  6
 27 28  1  0
 28 29  1  1
 28 30  1  0
 30 31  1  6
 30 10  1  0
 30 13  1  0
 26 14  1  0
 24 18  1  0
M  END
>  <MS_ID>  (471) 
MS0494

>  <SMILES>  (471) 
CCNC(=O)CC[C@@H](C)[C@H]1CC[C@H]2[C@@H]3[C@H](O)C[C@@H]4C[C@H](O)CC[C@]4(C)[C@H]3C[C@H](O)[C@]12C

>  <Structure_dimension>  (471) 
2D

$$$$
MS0495
     RDKit          2D

 28 31  0  0  0  0  0  0  0  0999 V2000
   -5.0096   -2.1352    0.0000 C   0  0  0  0  0  0  0  0  0  0  0  0
   -3.8132   -1.2303    0.0000 C   0  0  0  0  0  0  0  0  0  0  0  0
   -3.9987    0.2582    0.0000 C   0  0  0  0  0  0  0  0  0  0  0  0
   -5.3805    0.8418    0.0000 C   0  0  0  0  0  0  0  0  0  0  0  0
   -5.5659    2.3303    0.0000 C   0  0  0  0  0  0  0  0  0  0  0  0
   -4.3695    3.2351    0.0000 O   0  0  0  0  0  0  0  0  0  0  0  0
   -6.9477    2.9140    0.0000 O   0  0  0  0  0  0  0  0  0  0  0  0
   -2.4315   -1.8140    0.0000 C   0  0  0  0  0  0  0  0  0  0  0  0
   -2.0914   -3.2749    0.0000 C   0  0  0  0  0  0  0  0  0  0  0  0
   -0.5969   -3.4030    0.0000 C   0  0  0  0  0  0  0  0  0  0  0  0
   -0.0133   -2.0212    0.0000 C   0  0  0  0  0  0  0  0  0  0  0  0
    1.4041   -1.5304    0.0000 C   0  0  0  0  0  0  0  0  0  0  0  0
    2.5379   -2.5125    0.0000 C   0  0  0  0  0  0  0  0  0  0  0  0
    3.9554   -2.0216    0.0000 C   0  0  0  0  0  0  0  0  0  0  0  0
    4.2390   -0.5487    0.0000 C   0  0  0  0  0  0  0  0  0  0  0  0
    5.6564   -0.0578    0.0000 C   0  0  0  0  0  0  0  0  0  0  0  0
    5.9400    1.4151    0.0000 C   0  0  0  0  0  0  0  0  0  0  0  0
    7.3574    1.9060    0.0000 F   0  0  0  0  0  0  0  0  0  0  0  0
    4.8062    2.3972    0.0000 C   0  0  0  0  0  0  0  0  0  0  0  0
    3.3888    1.9064    0.0000 C   0  0  0  0  0  0  0  0  0  0  0  0
    3.1052    0.4334    0.0000 C   0  0  0  0  0  0  0  0  0  0  0  0
    1.9714    1.4155    0.0000 C   0  0  0  0  0  0  0  0  0  0  0  0
    1.6878   -0.0574    0.0000 C   0  0  0  0  0  0  0  0  0  0  0  0
    0.5540    0.9246    0.0000 C   0  0  0  0  0  0  0  0  0  0  0  0
   -0.8635    0.4338    0.0000 C   0  0  0  0  0  0  0  0  0  0  0  0
   -1.9973    1.4159    0.0000 O   0  0  0  0  0  0  0  0  0  0  0  0
   -1.1471   -1.0392    0.0000 C   0  0  0  0  0  0  0  0  0  0  0  0
   -2.3773   -0.1810    0.0000 C   0  0  0  0  0  0  0  0  0  0  0  0
  2  1  1  6
  2  3  1  0
  3  4  1  0
  4  5  1  0
  5  6  2  0
  5  7  1  0
  2  8  1  0
  8  9  1  6
  9 10  1  0
 11 10  1  6
 11 12  1  0
 12 13  1  1
 13 14  1  0
 15 14  1  1
 15 16  1  0
 16 17  1  0
 17 18  1  1
 17 19  1  0
 19 20  1  0
 20 21  1  0
 21 22  1  6
 21 23  1  0
 23 24  1  6
 24 25  1  0
 25 26  1  6
 25 27  1  0
 27 28  1  6
 27  8  1  0
 27 11  1  0
 23 12  1  0
 21 15  1  0
M  END
>  <MS_ID>  (472) 
MS0495

>  <SMILES>  (472) 
C[C@H](CCC(=O)O)[C@H]1CC[C@H]2[C@@H]3CC[C@@H]4C[C@H](F)CC[C@]4(C)[C@H]3C[C@@H](O)[C@]12C

>  <Structure_dimension>  (472) 
2D

$$$$
MS0496
     RDKit          2D

 34 37  0  0  0  0  0  0  0  0999 V2000
   -3.0862    2.3756    0.0000 C   0  0  0  0  0  0  0  0  0  0  0  0
   -4.4326    1.7144    0.0000 C   0  0  0  0  0  0  0  0  0  0  0  0
   -5.6784    2.5498    0.0000 C   0  0  0  0  0  0  0  0  0  0  0  0
   -4.5332    0.2178    0.0000 C   0  0  0  0  0  0  0  0  0  0  0  0
   -5.8796   -0.4434    0.0000 C   0  0  0  0  0  0  0  0  0  0  0  0
   -7.1254    0.3920    0.0000 C   0  0  0  0  0  0  0  0  0  0  0  0
   -8.4719   -0.2691    0.0000 C   0  0  0  0  0  0  0  0  0  0  0  0
   -8.5725   -1.7657    0.0000 O   0  0  0  0  0  0  0  0  0  0  0  0
   -9.7177    0.5663    0.0000 O   0  0  0  0  0  0  0  0  0  0  0  0
   -3.2874   -0.6177    0.0000 C   0  0  0  0  0  0  0  0  0  0  0  0
   -3.2310   -2.1166    0.0000 C   0  0  0  0  0  0  0  0  0  0  0  0
   -1.7880   -2.5262    0.0000 C   0  0  0  0  0  0  0  0  0  0  0  0
   -0.9526   -1.2804    0.0000 C   0  0  0  0  0  0  0  0  0  0  0  0
    0.5322   -1.0677    0.0000 C   0  0  0  0  0  0  0  0  0  0  0  0
    1.4589   -2.2472    0.0000 C   0  0  0  0  0  0  0  0  0  0  0  0
    0.9007   -3.6395    0.0000 O   0  0  0  0  0  0  0  0  0  0  0  0
    2.9437   -2.0345    0.0000 C   0  0  0  0  0  0  0  0  0  0  0  0
    3.5019   -0.6422    0.0000 C   0  0  0  0  0  0  0  0  0  0  0  0
    4.9868   -0.4294    0.0000 C   0  0  0  0  0  0  0  0  0  0  0  0
    5.5449    0.9628    0.0000 C   0  0  0  0  0  0  0  0  0  0  0  0
    7.0298    1.1756    0.0000 O   0  0  0  0  0  0  0  0  0  0  0  0
    7.9564   -0.0040    0.0000 S   0  0  0  0  0  0  0  0  0  0  0  0
    6.7769   -0.9306    0.0000 O   0  0  0  0  0  0  0  0  0  0  0  0
    9.1360    0.9227    0.0000 O   0  0  0  0  0  0  0  0  0  0  0  0
    8.8831   -1.1835    0.0000 O   0  0  0  0  0  0  0  0  0  0  0  0
    4.6183    2.1424    0.0000 C   0  0  0  0  0  0  0  0  0  0  0  0
    3.1334    1.9296    0.0000 C   0  0  0  0  0  0  0  0  0  0  0  0
    2.5753    0.5373    0.0000 C   0  0  0  0  0  0  0  0  0  0  0  0
    1.6486    1.7169    0.0000 C   0  0  0  0  0  0  0  0  0  0  0  0
    1.0904    0.3246    0.0000 C   0  0  0  0  0  0  0  0  0  0  0  0
    0.1638    1.5041    0.0000 C   0  0  0  0  0  0  0  0  0  0  0  0
   -1.3211    1.2914    0.0000 C   0  0  0  0  0  0  0  0  0  0  0  0
   -1.8793   -0.1009    0.0000 C   0  0  0  0  0  0  0  0  0  0  0  0
   -2.9241    0.9753    0.0000 C   0  0  0  0  0  0  0  0  0  0  0  0
  1  2  2  0
  2  3  1  0
  2  4  1  0
  4  5  1  1
  5  6  1  0
  6  7  1  0
  7  8  2  0
  7  9  1  0
  4 10  1  0
 10 11  1  6
 11 12  1  0
 13 12  1  6
 13 14  1  0
 14 15  1  1
 15 16  1  6
 15 17  1  0
 18 17  1  1
 18 19  1  0
 19 20  1  0
 20 21  1  1
 21 22  1  0
 22 23  2  0
 22 24  2  0
 22 25  1  0
 20 26  1  0
 26 27  1  0
 27 28  1  0
 28 29  1  6
 28 30  1  0
 30 31  1  6
 31 32  1  0
 32 33  1  0
 33 34  1  6
 33 10  1  0
 33 13  1  0
 30 14  1  0
 28 18  1  0
M  END
>  <MS_ID>  (473) 
MS0496

>  <SMILES>  (473) 
C=C(C)[C@H](CCC(=O)O)[C@H]1CC[C@H]2[C@@H]3[C@@H](O)C[C@@H]4C[C@H](OS(=O)(=O)O)CC[C@]4(C)[C@H]3CC[C@]12C

>  <Structure_dimension>  (473) 
2D

$$$$
MS0497
     RDKit          2D

 28 31  0  0  0  0  0  0  0  0999 V2000
   -5.1275   -2.0302    0.0000 C   0  0  0  0  0  0  0  0  0  0  0  0
   -3.9468   -1.1050    0.0000 C   0  0  0  0  0  0  0  0  0  0  0  0
   -4.1576    0.3801    0.0000 C   0  0  0  0  0  0  0  0  0  0  0  0
   -5.5492    0.9401    0.0000 C   0  0  0  0  0  0  0  0  0  0  0  0
   -5.7600    2.4252    0.0000 C   0  0  0  0  0  0  0  0  0  0  0  0
   -7.1516    2.9851    0.0000 O   0  0  0  0  0  0  0  0  0  0  0  0
   -4.5793    3.3503    0.0000 Cl  0  0  0  0  0  0  0  0  0  0  0  0
   -2.5552   -1.6650    0.0000 C   0  0  0  0  0  0  0  0  0  0  0  0
   -2.1903   -3.1199    0.0000 C   0  0  0  0  0  0  0  0  0  0  0  0
   -0.6938   -3.2225    0.0000 C   0  0  0  0  0  0  0  0  0  0  0  0
   -0.1339   -1.8309    0.0000 C   0  0  0  0  0  0  0  0  0  0  0  0
    1.2750   -1.3159    0.0000 C   0  0  0  0  0  0  0  0  0  0  0  0
    2.4254   -2.2785    0.0000 C   0  0  0  0  0  0  0  0  0  0  0  0
    2.1670   -3.7560    0.0000 O   0  0  0  0  0  0  0  0  0  0  0  0
    3.8342   -1.7635    0.0000 C   0  0  0  0  0  0  0  0  0  0  0  0
    4.0926   -0.2859    0.0000 C   0  0  0  0  0  0  0  0  0  0  0  0
    5.5014    0.2291    0.0000 C   0  0  0  0  0  0  0  0  0  0  0  0
    5.7598    1.7067    0.0000 C   0  0  0  0  0  0  0  0  0  0  0  0
    7.1687    2.2217    0.0000 O   0  0  0  0  0  0  0  0  0  0  0  0
    4.6094    2.6692    0.0000 C   0  0  0  0  0  0  0  0  0  0  0  0
    3.2006    2.1542    0.0000 C   0  0  0  0  0  0  0  0  0  0  0  0
    2.9422    0.6767    0.0000 C   0  0  0  0  0  0  0  0  0  0  0  0
    1.7918    1.6392    0.0000 C   0  0  0  0  0  0  0  0  0  0  0  0
    1.5334    0.1617    0.0000 C   0  0  0  0  0  0  0  0  0  0  0  0
    0.3830    1.1242    0.0000 C   0  0  0  0  0  0  0  0  0  0  0  0
   -1.0259    0.6093    0.0000 C   0  0  0  0  0  0  0  0  0  0  0  0
   -1.2843   -0.8683    0.0000 C   0  0  0  0  0  0  0  0  0  0  0  0
   -2.5290   -0.0313    0.0000 C   0  0  0  0  0  0  0  0  0  0  0  0
  2  1  1  6
  2  3  1  0
  3  4  1  0
  4  5  1  0
  5  6  2  0
  5  7  1  0
  2  8  1  0
  8  9  1  6
  9 10  1  0
 11 10  1  6
 11 12  1  0
 12 13  1  1
 13 14  1  6
 13 15  1  0
 16 15  1  1
 16 17  1  0
 17 18  1  0
 18 19  1  1
 18 20  1  0
 20 21  1  0
 21 22  1  0
 22 23  1  6
 22 24  1  0
 24 25  1  6
 25 26  1  0
 26 27  1  0
 27 28  1  6
 27  8  1  0
 27 11  1  0
 24 12  1  0
 22 16  1  0
M  END
>  <MS_ID>  (474) 
MS0497

>  <SMILES>  (474) 
C[C@H](CCC(=O)Cl)[C@H]1CC[C@H]2[C@@H]3[C@@H](O)C[C@@H]4C[C@H](O)CC[C@]4(C)[C@H]3CC[C@]12C

>  <Structure_dimension>  (474) 
2D

$$$$
MS0498
     RDKit          2D

 32 35  0  0  0  0  0  0  0  0999 V2000
   -3.6401   -3.7548    0.0000 C   0  0  0  0  0  0  0  0  0  0  0  0
   -2.6957   -2.5895    0.0000 C   0  0  0  0  0  0  0  0  0  0  0  0
   -3.2327   -1.1889    0.0000 C   0  0  0  0  0  0  0  0  0  0  0  0
   -4.7142   -0.9537    0.0000 C   0  0  0  0  0  0  0  0  0  0  0  0
   -5.2512    0.4469    0.0000 C   0  0  0  0  0  0  0  0  0  0  0  0
   -6.7327    0.6821    0.0000 O   0  0  0  0  0  0  0  0  0  0  0  0
   -4.3068    1.6122    0.0000 O   0  0  0  0  0  0  0  0  0  0  0  0
   -4.8438    3.0128    0.0000 S   0  0  0  0  0  0  0  0  0  0  0  0
   -6.2444    2.4758    0.0000 O   0  0  0  0  0  0  0  0  0  0  0  0
   -3.4433    3.5499    0.0000 O   0  0  0  0  0  0  0  0  0  0  0  0
   -5.3809    4.4134    0.0000 O   0  0  0  0  0  0  0  0  0  0  0  0
   -1.2142   -2.8246    0.0000 C   0  0  0  0  0  0  0  0  0  0  0  0
   -0.5337   -4.1614    0.0000 C   0  0  0  0  0  0  0  0  0  0  0  0
    0.9479   -3.9273    0.0000 C   0  0  0  0  0  0  0  0  0  0  0  0
    1.1831   -2.4459    0.0000 C   0  0  0  0  0  0  0  0  0  0  0  0
    2.4414   -1.6294    0.0000 C   0  0  0  0  0  0  0  0  0  0  0  0
    3.7776   -2.3108    0.0000 C   0  0  0  0  0  0  0  0  0  0  0  0
    5.0359   -1.4943    0.0000 C   0  0  0  0  0  0  0  0  0  0  0  0
    4.9580    0.0036    0.0000 C   0  0  0  0  0  0  0  0  0  0  0  0
    6.2163    0.8201    0.0000 C   0  0  0  0  0  0  0  0  0  0  0  0
    6.1383    2.3181    0.0000 C   0  0  0  0  0  0  0  0  0  0  0  0
    7.3966    3.1346    0.0000 O   0  0  0  0  0  0  0  0  0  0  0  0
    4.8021    2.9996    0.0000 C   0  0  0  0  0  0  0  0  0  0  0  0
    3.5438    2.1831    0.0000 C   0  0  0  0  0  0  0  0  0  0  0  0
    3.6217    0.6851    0.0000 C   0  0  0  0  0  0  0  0  0  0  0  0
    2.2855    1.3666    0.0000 C   0  0  0  0  0  0  0  0  0  0  0  0
    2.3634   -0.1314    0.0000 C   0  0  0  0  0  0  0  0  0  0  0  0
    1.0272    0.5501    0.0000 C   0  0  0  0  0  0  0  0  0  0  0  0
   -0.2311   -0.2664    0.0000 C   0  0  0  0  0  0  0  0  0  0  0  0
   -1.5674    0.4151    0.0000 O   0  0  0  0  0  0  0  0  0  0  0  0
   -0.1532   -1.7644    0.0000 C   0  0  0  0  0  0  0  0  0  0  0  0
   -1.5534   -1.2263    0.0000 C   0  0  0  0  0  0  0  0  0  0  0  0
  2  1  1  6
  2  3  1  0
  3  4  1  0
  4  5  1  0
  5  6  2  0
  5  7  1  0
  7  8  1  0
  8  9  2  0
  8 10  2  0
  8 11  1  0
  2 12  1  0
 12 13  1  6
 13 14  1  0
 15 14  1  6
 15 16  1  0
 16 17  1  1
 17 18  1  0
 19 18  1  1
 19 20  1  0
 20 21  1  0
 21 22  1  1
 21 23  1  0
 23 24  1  0
 24 25  1  0
 25 26  1  6
 25 27  1  0
 27 28  1  6
 28 29  1  0
 29 30  2  0
 29 31  1  0
 31 32  1  6
 31 12  1  0
 31 15  1  0
 27 16  1  0
 25 19  1  0
M  END
>  <MS_ID>  (475) 
MS0498

>  <SMILES>  (475) 
C[C@H](CCC(=O)OS(=O)(=O)O)[C@H]1CC[C@H]2[C@@H]3CC[C@@H]4C[C@H](O)CC[C@]4(C)[C@H]3CC(=O)[C@]12C

>  <Structure_dimension>  (475) 
2D

$$$$
MS0499
     RDKit          2D

 33 36  0  0  0  0  0  0  0  0999 V2000
   -6.8029   -1.6078    0.0000 C   0  0  0  0  0  0  0  0  0  0  0  0
   -5.5333   -0.8090    0.0000 C   0  0  0  0  0  0  0  0  0  0  0  0
   -5.5902    0.6899    0.0000 C   0  0  0  0  0  0  0  0  0  0  0  0
   -6.9168    1.3900    0.0000 C   0  0  0  0  0  0  0  0  0  0  0  0
   -6.9738    2.8889    0.0000 C   0  0  0  0  0  0  0  0  0  0  0  0
   -5.7042    3.6877    0.0000 O   0  0  0  0  0  0  0  0  0  0  0  0
   -8.3004    3.5891    0.0000 O   0  0  0  0  0  0  0  0  0  0  0  0
   -4.2067   -1.5091    0.0000 C   0  0  0  0  0  0  0  0  0  0  0  0
   -3.9933   -2.9939    0.0000 C   0  0  0  0  0  0  0  0  0  0  0  0
   -2.5153   -3.2498    0.0000 C   0  0  0  0  0  0  0  0  0  0  0  0
   -1.8152   -1.9232    0.0000 C   0  0  0  0  0  0  0  0  0  0  0  0
   -0.3609   -1.5558    0.0000 C   0  0  0  0  0  0  0  0  0  0  0  0
    0.6844   -2.6316    0.0000 C   0  0  0  0  0  0  0  0  0  0  0  0
    0.2754   -4.0748    0.0000 O   0  0  0  0  0  0  0  0  0  0  0  0
    2.1387   -2.2643    0.0000 C   0  0  0  0  0  0  0  0  0  0  0  0
    2.5477   -0.8211    0.0000 C   0  0  0  0  0  0  0  0  0  0  0  0
    4.0021   -0.4537    0.0000 C   0  0  0  0  0  0  0  0  0  0  0  0
    4.4111    0.9894    0.0000 C   0  0  0  0  0  0  0  0  0  0  0  0
    5.8654    1.3568    0.0000 C   0  0  0  0  0  0  0  0  0  0  0  0
    6.9107    0.2810    0.0000 O   0  0  0  0  0  0  0  0  0  0  0  0
    8.3650    0.6484    0.0000 S   0  0  0  0  0  0  0  0  0  0  0  0
    7.9976    2.1027    0.0000 O   0  0  0  0  0  0  0  0  0  0  0  0
    8.7324   -0.8059    0.0000 O   0  0  0  0  0  0  0  0  0  0  0  0
    9.8193    1.0158    0.0000 O   0  0  0  0  0  0  0  0  0  0  0  0
    3.3658    2.0652    0.0000 C   0  0  0  0  0  0  0  0  0  0  0  0
    1.9114    1.6979    0.0000 C   0  0  0  0  0  0  0  0  0  0  0  0
    1.5024    0.2547    0.0000 C   0  0  0  0  0  0  0  0  0  0  0  0
    0.4571    1.3305    0.0000 C   0  0  0  0  0  0  0  0  0  0  0  0
    0.0481   -0.1127    0.0000 C   0  0  0  0  0  0  0  0  0  0  0  0
   -0.9972    0.9631    0.0000 C   0  0  0  0  0  0  0  0  0  0  0  0
   -2.4515    0.5957    0.0000 C   0  0  0  0  0  0  0  0  0  0  0  0
   -2.8605   -0.8474    0.0000 C   0  0  0  0  0  0  0  0  0  0  0  0
   -4.0126    0.1132    0.0000 C   0  0  0  0  0  0  0  0  0  0  0  0
  2  1  1  6
  2  3  1  0
  3  4  1  0
  4  5  1  0
  5  6  2  0
  5  7  1  0
  2  8  1  0
  8  9  1  6
  9 10  1  0
 11 10  1  6
 11 12  1  0
 12 13  1  1
 13 14  1  6
 13 15  1  0
 16 15  1  1
 16 17  1  0
 17 18  1  0
 18 19  1  1
 19 20  1  0
 20 21  1  0
 21 22  2  0
 21 23  2  0
 21 24  1  0
 18 25  1  0
 25 26  1  0
 26 27  1  0
 27 28  1  6
 27 29  1  0
 29 30  1  6
 30 31  1  0
 31 32  1  0
 32 33  1  6
 32  8  1  0
 32 11  1  0
 29 12  1  0
 27 16  1  0
M  END
>  <MS_ID>  (476) 
MS0499

>  <SMILES>  (476) 
C[C@H](CCC(=O)O)[C@H]1CC[C@H]2[C@@H]3[C@@H](O)C[C@@H]4C[C@H](COS(=O)(=O)O)CC[C@]4(C)[C@H]3CC[C@]12C

>  <Structure_dimension>  (476) 
2D

$$$$
MS0500
     RDKit          2D

 39 43  0  0  0  0  0  0  0  0999 V2000
   -8.0325   -2.2018    0.0000 C   0  0  0  0  0  0  0  0  0  0  0  0
   -6.8746   -1.2481    0.0000 C   0  0  0  0  0  0  0  0  0  0  0  0
   -7.1216    0.2314    0.0000 C   0  0  0  0  0  0  0  0  0  0  0  0
   -8.5264    0.7573    0.0000 C   0  0  0  0  0  0  0  0  0  0  0  0
   -8.7734    2.2368    0.0000 C   0  0  0  0  0  0  0  0  0  0  0  0
   -7.6156    3.1905    0.0000 O   0  0  0  0  0  0  0  0  0  0  0  0
  -10.1782    2.7627    0.0000 O   0  0  0  0  0  0  0  0  0  0  0  0
   -5.4699   -1.7740    0.0000 C   0  0  0  0  0  0  0  0  0  0  0  0
   -5.0696   -3.2196    0.0000 C   0  0  0  0  0  0  0  0  0  0  0  0
   -3.5710   -3.2856    0.0000 C   0  0  0  0  0  0  0  0  0  0  0  0
   -3.0452   -1.8808    0.0000 C   0  0  0  0  0  0  0  0  0  0  0  0
   -1.6493   -1.3317    0.0000 C   0  0  0  0  0  0  0  0  0  0  0  0
   -0.4758   -2.2659    0.0000 C   0  0  0  0  0  0  0  0  0  0  0  0
    0.9201   -1.7167    0.0000 C   0  0  0  0  0  0  0  0  0  0  0  0
    1.1424   -0.2333    0.0000 C   0  0  0  0  0  0  0  0  0  0  0  0
    2.5382    0.3159    0.0000 C   0  0  0  0  0  0  0  0  0  0  0  0
    2.7606    1.7993    0.0000 C   0  0  0  0  0  0  0  0  0  0  0  0
    4.1564    2.3485    0.0000 O   0  0  0  0  0  0  0  0  0  0  0  0
    5.3299    1.4143    0.0000 C   0  0  0  0  0  0  0  0  0  0  0  0
    5.1076   -0.0692    0.0000 O   0  0  0  0  0  0  0  0  0  0  0  0
    6.2812   -1.0034    0.0000 C   0  0  0  0  0  0  0  0  0  0  0  0
    6.0588   -2.4868    0.0000 C   0  0  0  0  0  0  0  0  0  0  0  0
    7.2324   -3.4211    0.0000 O   0  0  0  0  0  0  0  0  0  0  0  0
    4.6630   -3.0360    0.0000 O   0  0  0  0  0  0  0  0  0  0  0  0
    7.6770   -0.4542    0.0000 C   0  0  0  0  0  0  0  0  0  0  0  0
    8.8505   -1.3885    0.0000 O   0  0  0  0  0  0  0  0  0  0  0  0
    7.8993    1.0292    0.0000 C   0  0  0  0  0  0  0  0  0  0  0  0
    9.2952    1.5784    0.0000 O   0  0  0  0  0  0  0  0  0  0  0  0
    6.7258    1.9635    0.0000 C   0  0  0  0  0  0  0  0  0  0  0  0
    6.9481    3.4469    0.0000 O   0  0  0  0  0  0  0  0  0  0  0  0
    1.5870    2.7336    0.0000 C   0  0  0  0  0  0  0  0  0  0  0  0
    0.1912    2.1844    0.0000 C   0  0  0  0  0  0  0  0  0  0  0  0
   -0.0311    0.7010    0.0000 C   0  0  0  0  0  0  0  0  0  0  0  0
   -1.2047    1.6352    0.0000 C   0  0  0  0  0  0  0  0  0  0  0  0
   -1.4270    0.1518    0.0000 C   0  0  0  0  0  0  0  0  0  0  0  0
   -2.6005    1.0860    0.0000 C   0  0  0  0  0  0  0  0  0  0  0  0
   -3.9964    0.5368    0.0000 C   0  0  0  0  0  0  0  0  0  0  0  0
   -4.2187   -0.9466    0.0000 C   0  0  0  0  0  0  0  0  0  0  0  0
   -5.4834   -0.1401    0.0000 C   0  0  0  0  0  0  0  0  0  0  0  0
  2  1  1  6
  2  3  1  0
  3  4  1  0
  4  5  1  0
  5  6  2  0
  5  7  1  0
  2  8  1  0
  8  9  1  6
  9 10  1  0
 11 10  1  6
 11 12  1  0
 12 13  1  1
 13 14  1  0
 15 14  1  1
 15 16  1  0
 16 17  1  0
 17 18  1  1
 19 18  1  1
 19 20  1  0
 20 21  1  0
 21 22  1  1
 22 23  2  0
 22 24  1  0
 21 25  1  0
 25 26  1  1
 25 27  1  0
 27 28  1  1
 27 29  1  0
 29 30  1  6
 17 31  1  0
 31 32  1  0
 32 33  1  0
 33 34  1  6
 33 35  1  0
 35 36  1  6
 36 37  1  0
 37 38  1  0
 38 39  1  6
 38  8  1  0
 38 11  1  0
 35 12  1  0
 33 15  1  0
 29 19  1  0
M  END
>  <MS_ID>  (477) 
MS0500

>  <SMILES>  (477) 
C[C@H](CCC(=O)O)[C@H]1CC[C@H]2[C@@H]3CC[C@@H]4C[C@H](O[C@@H]5O[C@H](C(=O)O)[C@H](O)[C@H](O)[C@H]5O)CC[C@]4(C)[C@H]3CC[C@]12C

>  <Structure_dimension>  (477) 
2D

$$$$
MS0501
     RDKit          2D

 30 33  0  0  0  0  0  0  0  0999 V2000
   -4.5685   -2.6908    0.0000 C   0  0  0  0  0  0  0  0  0  0  0  0
   -3.4838   -1.6548    0.0000 C   0  0  0  0  0  0  0  0  0  0  0  0
   -3.8388   -0.1974    0.0000 C   0  0  0  0  0  0  0  0  0  0  0  0
   -5.2784    0.2240    0.0000 C   0  0  0  0  0  0  0  0  0  0  0  0
   -5.6333    1.6814    0.0000 C   0  0  0  0  0  0  0  0  0  0  0  0
   -4.5486    2.7174    0.0000 O   0  0  0  0  0  0  0  0  0  0  0  0
   -7.0729    2.1027    0.0000 C   0  0  0  0  0  0  0  0  0  0  0  0
   -7.4279    3.5601    0.0000 N   0  0  0  0  0  0  0  0  0  0  0  0
   -2.0442   -2.0761    0.0000 C   0  0  0  0  0  0  0  0  0  0  0  0
   -1.5389   -3.4884    0.0000 C   0  0  0  0  0  0  0  0  0  0  0  0
   -0.0395   -3.4442    0.0000 C   0  0  0  0  0  0  0  0  0  0  0  0
    0.3818   -2.0046    0.0000 C   0  0  0  0  0  0  0  0  0  0  0  0
    1.7336   -1.3544    0.0000 C   0  0  0  0  0  0  0  0  0  0  0  0
    2.9725   -2.1999    0.0000 C   0  0  0  0  0  0  0  0  0  0  0  0
    2.8597   -3.6957    0.0000 O   0  0  0  0  0  0  0  0  0  0  0  0
    4.3243   -1.5497    0.0000 C   0  0  0  0  0  0  0  0  0  0  0  0
    4.4371   -0.0540    0.0000 C   0  0  0  0  0  0  0  0  0  0  0  0
    5.7888    0.5962    0.0000 C   0  0  0  0  0  0  0  0  0  0  0  0
    5.9016    2.0920    0.0000 C   0  0  0  0  0  0  0  0  0  0  0  0
    7.2534    2.7422    0.0000 O   0  0  0  0  0  0  0  0  0  0  0  0
    4.6627    2.9375    0.0000 C   0  0  0  0  0  0  0  0  0  0  0  0
    3.3109    2.2873    0.0000 C   0  0  0  0  0  0  0  0  0  0  0  0
    3.1981    0.7916    0.0000 C   0  0  0  0  0  0  0  0  0  0  0  0
    1.9591    1.6371    0.0000 C   0  0  0  0  0  0  0  0  0  0  0  0
    1.8464    0.1414    0.0000 C   0  0  0  0  0  0  0  0  0  0  0  0
    0.6074    0.9869    0.0000 C   0  0  0  0  0  0  0  0  0  0  0  0
   -0.7444    0.3367    0.0000 C   0  0  0  0  0  0  0  0  0  0  0  0
   -1.9833    1.1823    0.0000 O   0  0  0  0  0  0  0  0  0  0  0  0
   -0.8572   -1.1590    0.0000 C   0  0  0  0  0  0  0  0  0  0  0  0
   -2.1777   -0.4476    0.0000 C   0  0  0  0  0  0  0  0  0  0  0  0
  2  1  1  6
  2  3  1  0
  3  4  1  0
  4  5  1  0
  5  6  2  0
  5  7  1  0
  7  8  1  0
  2  9  1  0
  9 10  1  6
 10 11  1  0
 12 11  1  6
 12 13  1  0
 13 14  1  1
 14 15  1  1
 14 16  1  0
 17 16  1  1
 17 18  1  0
 18 19  1  0
 19 20  1  1
 19 21  1  0
 21 22  1  0
 22 23  1  0
 23 24  1  6
 23 25  1  0
 25 26  1  6
 26 27  1  0
 27 28  1  1
 27 29  1  0
 29 30  1  6
 29  9  1  0
 29 12  1  0
 25 13  1  0
 23 17  1  0
M  END
>  <MS_ID>  (478) 
MS0501

>  <SMILES>  (478) 
C[C@H](CCC(=O)CN)[C@H]1CC[C@H]2[C@@H]3[C@H](O)C[C@@H]4C[C@H](O)CC[C@]4(C)[C@H]3C[C@H](O)[C@]12C

>  <Structure_dimension>  (478) 
2D

$$$$
MS0502
     RDKit          2D

 29 32  0  0  0  0  0  0  0  0999 V2000
   -5.0303   -2.1373    0.0000 C   0  0  0  0  0  0  0  0  0  0  0  0
   -3.8594   -1.1998    0.0000 C   0  0  0  0  0  0  0  0  0  0  0  0
   -4.0858    0.2830    0.0000 C   0  0  0  0  0  0  0  0  0  0  0  0
   -5.4831    0.8284    0.0000 C   0  0  0  0  0  0  0  0  0  0  0  0
   -5.7095    2.3112    0.0000 C   0  0  0  0  0  0  0  0  0  0  0  0
   -4.5386    3.2487    0.0000 O   0  0  0  0  0  0  0  0  0  0  0  0
   -7.1069    2.8565    0.0000 O   0  0  0  0  0  0  0  0  0  0  0  0
   -2.4620   -1.7451    0.0000 C   0  0  0  0  0  0  0  0  0  0  0  0
   -2.0818   -3.1961    0.0000 C   0  0  0  0  0  0  0  0  0  0  0  0
   -0.5844   -3.2830    0.0000 C   0  0  0  0  0  0  0  0  0  0  0  0
   -0.0390   -1.8856    0.0000 C   0  0  0  0  0  0  0  0  0  0  0  0
    1.3643   -1.3559    0.0000 C   0  0  0  0  0  0  0  0  0  0  0  0
    2.5248   -2.3063    0.0000 C   0  0  0  0  0  0  0  0  0  0  0  0
    2.2819   -3.7865    0.0000 O   0  0  0  0  0  0  0  0  0  0  0  0
    3.9281   -1.7765    0.0000 C   0  0  0  0  0  0  0  0  0  0  0  0
    4.1710   -0.2963    0.0000 C   0  0  0  0  0  0  0  0  0  0  0  0
    5.5743    0.2334    0.0000 C   0  0  0  0  0  0  0  0  0  0  0  0
    5.8172    1.7136    0.0000 C   0  0  0  0  0  0  0  0  0  0  0  0
    7.2205    2.2434    0.0000 N   0  0  0  0  0  0  0  0  0  0  0  0
    4.6568    2.6641    0.0000 C   0  0  0  0  0  0  0  0  0  0  0  0
    3.2534    2.1343    0.0000 C   0  0  0  0  0  0  0  0  0  0  0  0
    3.0105    0.6541    0.0000 C   0  0  0  0  0  0  0  0  0  0  0  0
    1.8501    1.6046    0.0000 C   0  0  0  0  0  0  0  0  0  0  0  0
    1.6072    0.1244    0.0000 C   0  0  0  0  0  0  0  0  0  0  0  0
    0.4467    1.0748    0.0000 C   0  0  0  0  0  0  0  0  0  0  0  0
   -0.9566    0.5450    0.0000 C   0  0  0  0  0  0  0  0  0  0  0  0
   -2.1170    1.4955    0.0000 O   0  0  0  0  0  0  0  0  0  0  0  0
   -1.1995   -0.9352    0.0000 C   0  0  0  0  0  0  0  0  0  0  0  0
   -2.4529   -0.1112    0.0000 C   0  0  0  0  0  0  0  0  0  0  0  0
  2  1  1  6
  2  3  1  0
  3  4  1  0
  4  5  1  0
  5  6  2  0
  5  7  1  0
  2  8  1  0
  8  9  1  6
  9 10  1  0
 11 10  1  6
 11 12  1  0
 12 13  1  1
 13 14  1  1
 13 15  1  0
 16 15  1  1
 16 17  1  0
 17 18  1  0
 18 19  1  1
 18 20  1  0
 20 21  1  0
 21 22  1  0
 22 23  1  6
 22 24  1  0
 24 25  1  6
 25 26  1  0
 26 27  1  1
 26 28  1  0
 28 29  1  6
 28  8  1  0
 28 11  1  0
 24 12  1  0
 22 16  1  0
M  END
>  <MS_ID>  (479) 
MS0502

>  <SMILES>  (479) 
C[C@H](CCC(=O)O)[C@H]1CC[C@H]2[C@@H]3[C@H](O)C[C@@H]4C[C@H](N)CC[C@]4(C)[C@H]3C[C@H](O)[C@]12C

>  <Structure_dimension>  (479) 
2D

$$$$
MS0503
     RDKit          2D

 39 43  0  0  0  0  0  0  0  0999 V2000
    0.1734   -5.0172    0.0000 C   0  0  0  0  0  0  0  0  0  0  0  0
    0.6701   -3.6018    0.0000 C   0  0  0  0  0  0  0  0  0  0  0  0
   -0.3073   -2.4640    0.0000 C   0  0  0  0  0  0  0  0  0  0  0  0
   -1.7814   -2.7415    0.0000 C   0  0  0  0  0  0  0  0  0  0  0  0
   -2.7588   -1.6037    0.0000 C   0  0  0  0  0  0  0  0  0  0  0  0
   -2.2621   -0.1883    0.0000 O   0  0  0  0  0  0  0  0  0  0  0  0
   -4.2329   -1.8813    0.0000 N   0  0  0  0  0  0  0  0  0  0  0  0
   -5.2103   -0.7434    0.0000 C   0  0  0  0  0  0  0  0  0  0  0  0
   -6.6844   -1.0210    0.0000 C   0  0  0  0  0  0  0  0  0  0  0  0
   -7.6619    0.1168    0.0000 C   0  0  0  0  0  0  0  0  0  0  0  0
   -7.1652    1.5322    0.0000 C   0  0  0  0  0  0  0  0  0  0  0  0
   -8.1426    2.6700    0.0000 C   0  0  0  0  0  0  0  0  0  0  0  0
   -9.6167    2.3925    0.0000 C   0  0  0  0  0  0  0  0  0  0  0  0
  -10.5941    3.5303    0.0000 O   0  0  0  0  0  0  0  0  0  0  0  0
  -10.1134    0.9771    0.0000 C   0  0  0  0  0  0  0  0  0  0  0  0
   -9.1359   -0.1607    0.0000 C   0  0  0  0  0  0  0  0  0  0  0  0
   -4.7137    0.6719    0.0000 C   0  0  0  0  0  0  0  0  0  0  0  0
   -3.2396    0.9495    0.0000 O   0  0  0  0  0  0  0  0  0  0  0  0
   -5.6911    1.8098    0.0000 O   0  0  0  0  0  0  0  0  0  0  0  0
    2.1442   -3.3243    0.0000 C   0  0  0  0  0  0  0  0  0  0  0  0
    3.2352   -4.3537    0.0000 C   0  0  0  0  0  0  0  0  0  0  0  0
    4.5514   -3.6342    0.0000 C   0  0  0  0  0  0  0  0  0  0  0  0
    4.2738   -2.1601    0.0000 C   0  0  0  0  0  0  0  0  0  0  0  0
    5.1836   -0.9675    0.0000 C   0  0  0  0  0  0  0  0  0  0  0  0
    6.6713   -1.1590    0.0000 C   0  0  0  0  0  0  0  0  0  0  0  0
    7.5811    0.0336    0.0000 C   0  0  0  0  0  0  0  0  0  0  0  0
    7.0031    1.4178    0.0000 C   0  0  0  0  0  0  0  0  0  0  0  0
    7.9128    2.6104    0.0000 C   0  0  0  0  0  0  0  0  0  0  0  0
    7.3349    3.9946    0.0000 C   0  0  0  0  0  0  0  0  0  0  0  0
    8.2446    5.1872    0.0000 O   0  0  0  0  0  0  0  0  0  0  0  0
    5.8471    4.1861    0.0000 C   0  0  0  0  0  0  0  0  0  0  0  0
    4.9374    2.9935    0.0000 C   0  0  0  0  0  0  0  0  0  0  0  0
    5.5154    1.6093    0.0000 C   0  0  0  0  0  0  0  0  0  0  0  0
    4.0276    1.8009    0.0000 C   0  0  0  0  0  0  0  0  0  0  0  0
    4.6056    0.4167    0.0000 C   0  0  0  0  0  0  0  0  0  0  0  0
    3.1179    0.6082    0.0000 C   0  0  0  0  0  0  0  0  0  0  0  0
    2.2081   -0.5844    0.0000 C   0  0  0  0  0  0  0  0  0  0  0  0
    2.7861   -1.9686    0.0000 C   0  0  0  0  0  0  0  0  0  0  0  0
    1.2865   -1.9336    0.0000 C   0  0  0  0  0  0  0  0  0  0  0  0
  2  1  1  6
  2  3  1  0
  3  4  1  0
  4  5  1  0
  5  6  2  0
  5  7  1  0
  7  8  1  0
  8  9  1  6
  9 10  1  0
 10 11  2  0
 11 12  1  0
 12 13  2  0
 13 14  1  0
 13 15  1  0
 15 16  2  0
  8 17  1  0
 17 18  2  0
 17 19  1  0
  2 20  1  0
 20 21  1  6
 21 22  1  0
 23 22  1  6
 23 24  1  0
 24 25  1  1
 25 26  1  0
 27 26  1  1
 27 28  1  0
 28 29  1  0
 29 30  1  1
 29 31  1  0
 31 32  1  0
 32 33  1  0
 33 34  1  6
 33 35  1  0
 35 36  1  6
 36 37  1  0
 37 38  1  0
 38 39  1  6
 16 10  1  0
 38 20  1  0
 38 23  1  0
 35 24  1  0
 33 27  1  0
M  END
>  <MS_ID>  (480) 
MS0503

>  <SMILES>  (480) 
C[C@H](CCC(=O)N[C@H](Cc1ccc(O)cc1)C(=O)O)[C@H]1CC[C@H]2[C@@H]3CC[C@@H]4C[C@H](O)CC[C@]4(C)[C@H]3CC[C@]12C

>  <Structure_dimension>  (480) 
2D

$$$$
MS0504
     RDKit          2D

 29 32  0  0  0  0  0  0  0  0999 V2000
   -5.0303   -2.1373    0.0000 C   0  0  0  0  0  0  0  0  0  0  0  0
   -3.8594   -1.1998    0.0000 C   0  0  0  0  0  0  0  0  0  0  0  0
   -4.0858    0.2830    0.0000 C   0  0  0  0  0  0  0  0  0  0  0  0
   -5.4831    0.8284    0.0000 C   0  0  0  0  0  0  0  0  0  0  0  0
   -5.7095    2.3112    0.0000 C   0  0  0  0  0  0  0  0  0  0  0  0
   -4.5386    3.2487    0.0000 O   0  0  0  0  0  0  0  0  0  0  0  0
   -7.1069    2.8565    0.0000 O   0  0  0  0  0  0  0  0  0  0  0  0
   -2.4620   -1.7451    0.0000 C   0  0  0  0  0  0  0  0  0  0  0  0
   -2.0818   -3.1961    0.0000 C   0  0  0  0  0  0  0  0  0  0  0  0
   -0.5844   -3.2830    0.0000 C   0  0  0  0  0  0  0  0  0  0  0  0
   -0.0390   -1.8856    0.0000 C   0  0  0  0  0  0  0  0  0  0  0  0
    1.3643   -1.3559    0.0000 C   0  0  0  0  0  0  0  0  0  0  0  0
    2.5248   -2.3063    0.0000 C   0  0  0  0  0  0  0  0  0  0  0  0
    2.2819   -3.7865    0.0000 O   0  0  0  0  0  0  0  0  0  0  0  0
    3.9281   -1.7765    0.0000 C   0  0  0  0  0  0  0  0  0  0  0  0
    4.1710   -0.2963    0.0000 C   0  0  0  0  0  0  0  0  0  0  0  0
    5.5743    0.2334    0.0000 C   0  0  0  0  0  0  0  0  0  0  0  0
    5.8172    1.7136    0.0000 C   0  0  0  0  0  0  0  0  0  0  0  0
    7.2205    2.2434    0.0000 N   0  0  0  0  0  0  0  0  0  0  0  0
    4.6568    2.6641    0.0000 C   0  0  0  0  0  0  0  0  0  0  0  0
    3.2534    2.1343    0.0000 C   0  0  0  0  0  0  0  0  0  0  0  0
    3.0105    0.6541    0.0000 C   0  0  0  0  0  0  0  0  0  0  0  0
    1.8501    1.6046    0.0000 C   0  0  0  0  0  0  0  0  0  0  0  0
    1.6072    0.1244    0.0000 C   0  0  0  0  0  0  0  0  0  0  0  0
    0.4467    1.0748    0.0000 C   0  0  0  0  0  0  0  0  0  0  0  0
   -0.9566    0.5450    0.0000 C   0  0  0  0  0  0  0  0  0  0  0  0
   -2.1170    1.4955    0.0000 O   0  0  0  0  0  0  0  0  0  0  0  0
   -1.1995   -0.9352    0.0000 C   0  0  0  0  0  0  0  0  0  0  0  0
   -2.4529   -0.1112    0.0000 C   0  0  0  0  0  0  0  0  0  0  0  0
  2  1  1  6
  2  3  1  0
  3  4  1  0
  4  5  1  0
  5  6  2  0
  5  7  1  0
  2  8  1  0
  8  9  1  6
  9 10  1  0
 11 10  1  6
 11 12  1  0
 12 13  1  1
 13 14  1  1
 13 15  1  0
 16 15  1  1
 16 17  1  0
 17 18  1  0
 18 19  1  1
 18 20  1  0
 20 21  1  0
 21 22  1  0
 22 23  1  6
 22 24  1  0
 24 25  1  6
 25 26  1  0
 26 27  1  6
 26 28  1  0
 28 29  1  6
 28  8  1  0
 28 11  1  0
 24 12  1  0
 22 16  1  0
M  END
>  <MS_ID>  (481) 
MS0504

>  <SMILES>  (481) 
C[C@H](CCC(=O)O)[C@H]1CC[C@H]2[C@@H]3[C@H](O)C[C@@H]4C[C@H](N)CC[C@]4(C)[C@H]3C[C@@H](O)[C@]12C

>  <Structure_dimension>  (481) 
2D

$$$$
MS0505
     RDKit          2D

 30 33  0  0  0  0  0  0  0  0999 V2000
   -4.5685   -2.6908    0.0000 C   0  0  0  0  0  0  0  0  0  0  0  0
   -3.4838   -1.6548    0.0000 C   0  0  0  0  0  0  0  0  0  0  0  0
   -3.8388   -0.1974    0.0000 C   0  0  0  0  0  0  0  0  0  0  0  0
   -5.2784    0.2240    0.0000 C   0  0  0  0  0  0  0  0  0  0  0  0
   -5.6333    1.6814    0.0000 C   0  0  0  0  0  0  0  0  0  0  0  0
   -4.5486    2.7174    0.0000 O   0  0  0  0  0  0  0  0  0  0  0  0
   -7.0729    2.1027    0.0000 N   0  0  0  0  0  0  0  0  0  0  0  0
   -7.4279    3.5601    0.0000 O   0  0  0  0  0  0  0  0  0  0  0  0
   -2.0442   -2.0761    0.0000 C   0  0  0  0  0  0  0  0  0  0  0  0
   -1.5389   -3.4884    0.0000 C   0  0  0  0  0  0  0  0  0  0  0  0
   -0.0395   -3.4442    0.0000 C   0  0  0  0  0  0  0  0  0  0  0  0
    0.3818   -2.0046    0.0000 C   0  0  0  0  0  0  0  0  0  0  0  0
    1.7336   -1.3544    0.0000 C   0  0  0  0  0  0  0  0  0  0  0  0
    2.9725   -2.1999    0.0000 C   0  0  0  0  0  0  0  0  0  0  0  0
    2.8597   -3.6957    0.0000 O   0  0  0  0  0  0  0  0  0  0  0  0
    4.3243   -1.5497    0.0000 C   0  0  0  0  0  0  0  0  0  0  0  0
    4.4371   -0.0540    0.0000 C   0  0  0  0  0  0  0  0  0  0  0  0
    5.7888    0.5962    0.0000 C   0  0  0  0  0  0  0  0  0  0  0  0
    5.9016    2.0920    0.0000 C   0  0  0  0  0  0  0  0  0  0  0  0
    7.2534    2.7422    0.0000 O   0  0  0  0  0  0  0  0  0  0  0  0
    4.6627    2.9375    0.0000 C   0  0  0  0  0  0  0  0  0  0  0  0
    3.3109    2.2873    0.0000 C   0  0  0  0  0  0  0  0  0  0  0  0
    3.1981    0.7916    0.0000 C   0  0  0  0  0  0  0  0  0  0  0  0
    1.9591    1.6371    0.0000 C   0  0  0  0  0  0  0  0  0  0  0  0
    1.8464    0.1414    0.0000 C   0  0  0  0  0  0  0  0  0  0  0  0
    0.6074    0.9869    0.0000 C   0  0  0  0  0  0  0  0  0  0  0  0
   -0.7444    0.3367    0.0000 C   0  0  0  0  0  0  0  0  0  0  0  0
   -1.9833    1.1823    0.0000 O   0  0  0  0  0  0  0  0  0  0  0  0
   -0.8572   -1.1590    0.0000 C   0  0  0  0  0  0  0  0  0  0  0  0
   -2.1777   -0.4476    0.0000 C   0  0  0  0  0  0  0  0  0  0  0  0
  2  1  1  6
  2  3  1  0
  3  4  1  0
  4  5  1  0
  5  6  2  0
  5  7  1  0
  7  8  1  0
  2  9  1  0
  9 10  1  6
 10 11  1  0
 12 11  1  6
 12 13  1  0
 13 14  1  1
 14 15  1  1
 14 16  1  0
 17 16  1  1
 17 18  1  0
 18 19  1  0
 19 20  1  1
 19 21  1  0
 21 22  1  0
 22 23  1  0
 23 24  1  6
 23 25  1  0
 25 26  1  6
 26 27  1  0
 27 28  1  6
 27 29  1  0
 29 30  1  6
 29  9  1  0
 29 12  1  0
 25 13  1  0
 23 17  1  0
M  END
>  <MS_ID>  (482) 
MS0505

>  <SMILES>  (482) 
C[C@H](CCC(=O)NO)[C@H]1CC[C@H]2[C@@H]3[C@H](O)C[C@@H]4C[C@H](O)CC[C@]4(C)[C@H]3C[C@@H](O)[C@]12C

>  <Structure_dimension>  (482) 
2D

$$$$
MS0506
     RDKit          2D

 35 38  0  0  0  0  0  0  0  0999 V2000
   -1.9333   -5.2337    0.0000 C   0  0  0  0  0  0  0  0  0  0  0  0
   -1.3710   -3.8431    0.0000 C   0  0  0  0  0  0  0  0  0  0  0  0
   -2.2941   -2.6608    0.0000 C   0  0  0  0  0  0  0  0  0  0  0  0
   -3.7796   -2.8692    0.0000 C   0  0  0  0  0  0  0  0  0  0  0  0
   -4.7028   -1.6869    0.0000 C   0  0  0  0  0  0  0  0  0  0  0  0
   -6.1882   -1.8953    0.0000 O   0  0  0  0  0  0  0  0  0  0  0  0
   -4.1405   -0.2963    0.0000 O   0  0  0  0  0  0  0  0  0  0  0  0
   -5.0636    0.8860    0.0000 C   0  0  0  0  0  0  0  0  0  0  0  0
   -6.5491    0.6776    0.0000 O   0  0  0  0  0  0  0  0  0  0  0  0
   -4.5013    2.2766    0.0000 C   0  0  0  0  0  0  0  0  0  0  0  0
   -5.4245    3.4589    0.0000 C   0  0  0  0  0  0  0  0  0  0  0  0
   -4.8622    4.8495    0.0000 C   0  0  0  0  0  0  0  0  0  0  0  0
   -3.3768    5.0578    0.0000 O   0  0  0  0  0  0  0  0  0  0  0  0
   -5.7854    6.0318    0.0000 O   0  0  0  0  0  0  0  0  0  0  0  0
    0.1145   -3.6348    0.0000 C   0  0  0  0  0  0  0  0  0  0  0  0
    1.1562   -4.7141    0.0000 C   0  0  0  0  0  0  0  0  0  0  0  0
    2.5045   -4.0569    0.0000 C   0  0  0  0  0  0  0  0  0  0  0  0
    2.2962   -2.5714    0.0000 C   0  0  0  0  0  0  0  0  0  0  0  0
    3.2607   -1.4226    0.0000 C   0  0  0  0  0  0  0  0  0  0  0  0
    4.7378   -1.6835    0.0000 C   0  0  0  0  0  0  0  0  0  0  0  0
    5.7023   -0.5347    0.0000 C   0  0  0  0  0  0  0  0  0  0  0  0
    5.1897    0.8750    0.0000 C   0  0  0  0  0  0  0  0  0  0  0  0
    6.1542    2.0238    0.0000 C   0  0  0  0  0  0  0  0  0  0  0  0
    5.6415    3.4335    0.0000 C   0  0  0  0  0  0  0  0  0  0  0  0
    6.6060    4.5823    0.0000 O   0  0  0  0  0  0  0  0  0  0  0  0
    4.1644    3.6943    0.0000 C   0  0  0  0  0  0  0  0  0  0  0  0
    3.1999    2.5455    0.0000 C   0  0  0  0  0  0  0  0  0  0  0  0
    3.7126    1.1359    0.0000 C   0  0  0  0  0  0  0  0  0  0  0  0
    2.2354    1.3967    0.0000 C   0  0  0  0  0  0  0  0  0  0  0  0
    2.7481   -0.0129    0.0000 C   0  0  0  0  0  0  0  0  0  0  0  0
    1.2709    0.2479    0.0000 C   0  0  0  0  0  0  0  0  0  0  0  0
    0.3064   -0.9009    0.0000 C   0  0  0  0  0  0  0  0  0  0  0  0
   -1.1707   -0.6400    0.0000 O   0  0  0  0  0  0  0  0  0  0  0  0
    0.8191   -2.3105    0.0000 C   0  0  0  0  0  0  0  0  0  0  0  0
   -0.6773   -2.2055    0.0000 C   0  0  0  0  0  0  0  0  0  0  0  0
  2  1  1  6
  2  3  1  0
  3  4  1  0
  4  5  1  0
  5  6  2  0
  5  7  1  0
  7  8  1  0
  8  9  2  0
  8 10  1  0
 10 11  1  0
 11 12  1  0
 12 13  2  0
 12 14  1  0
  2 15  1  0
 15 16  1  6
 16 17  1  0
 18 17  1  6
 18 19  1  0
 19 20  1  1
 20 21  1  0
 22 21  1  1
 22 23  1  0
 23 24  1  0
 24 25  1  1
 24 26  1  0
 26 27  1  0
 27 28  1  0
 28 29  1  6
 28 30  1  0
 30 31  1  6
 31 32  1  0
 32 33  1  1
 32 34  1  0
 34 35  1  6
 34 15  1  0
 34 18  1  0
 30 19  1  0
 28 22  1  0
M  END
>  <MS_ID>  (483) 
MS0506

>  <SMILES>  (483) 
C[C@H](CCC(=O)OC(=O)CCC(=O)O)[C@H]1CC[C@H]2[C@@H]3CC[C@@H]4C[C@H](O)CC[C@]4(C)[C@H]3C[C@H](O)[C@]12C

>  <Structure_dimension>  (483) 
2D

$$$$
MS0507
     RDKit          2D

 33 36  0  0  0  0  0  0  0  0999 V2000
   -2.7798   -3.8103    0.0000 C   0  0  0  0  0  0  0  0  0  0  0  0
   -1.9338   -2.5716    0.0000 C   0  0  0  0  0  0  0  0  0  0  0  0
   -2.5835   -1.2196    0.0000 C   0  0  0  0  0  0  0  0  0  0  0  0
   -4.0792   -1.1063    0.0000 C   0  0  0  0  0  0  0  0  0  0  0  0
   -4.7289    0.2457    0.0000 C   0  0  0  0  0  0  0  0  0  0  0  0
   -3.8829    1.4843    0.0000 O   0  0  0  0  0  0  0  0  0  0  0  0
   -6.2246    0.3590    0.0000 N   0  0  0  0  0  0  0  0  0  0  0  0
   -6.8743    1.7110    0.0000 O   0  0  0  0  0  0  0  0  0  0  0  0
   -8.3700    1.8244    0.0000 S   0  0  0  0  0  0  0  0  0  0  0  0
   -8.4834    0.3287    0.0000 O   0  0  0  0  0  0  0  0  0  0  0  0
   -8.2567    3.3201    0.0000 O   0  0  0  0  0  0  0  0  0  0  0  0
   -9.8657    1.9377    0.0000 O   0  0  0  0  0  0  0  0  0  0  0  0
   -0.4381   -2.6850    0.0000 C   0  0  0  0  0  0  0  0  0  0  0  0
    0.3494   -3.9617    0.0000 C   0  0  0  0  0  0  0  0  0  0  0  0
    1.8069   -3.6073    0.0000 C   0  0  0  0  0  0  0  0  0  0  0  0
    1.9202   -2.1116    0.0000 C   0  0  0  0  0  0  0  0  0  0  0  0
    3.1076   -1.1950    0.0000 C   0  0  0  0  0  0  0  0  0  0  0  0
    4.4951   -1.7650    0.0000 C   0  0  0  0  0  0  0  0  0  0  0  0
    4.6952   -3.2515    0.0000 O   0  0  0  0  0  0  0  0  0  0  0  0
    5.6825   -0.8484    0.0000 C   0  0  0  0  0  0  0  0  0  0  0  0
    5.4824    0.6382    0.0000 C   0  0  0  0  0  0  0  0  0  0  0  0
    6.6697    1.5548    0.0000 C   0  0  0  0  0  0  0  0  0  0  0  0
    6.4696    3.0414    0.0000 C   0  0  0  0  0  0  0  0  0  0  0  0
    7.6570    3.9580    0.0000 O   0  0  0  0  0  0  0  0  0  0  0  0
    5.0821    3.6114    0.0000 C   0  0  0  0  0  0  0  0  0  0  0  0
    3.8948    2.6948    0.0000 C   0  0  0  0  0  0  0  0  0  0  0  0
    4.0949    1.2082    0.0000 C   0  0  0  0  0  0  0  0  0  0  0  0
    2.7074    1.7782    0.0000 C   0  0  0  0  0  0  0  0  0  0  0  0
    2.9075    0.2916    0.0000 C   0  0  0  0  0  0  0  0  0  0  0  0
    1.5200    0.8616    0.0000 C   0  0  0  0  0  0  0  0  0  0  0  0
    0.3327   -0.0550    0.0000 C   0  0  0  0  0  0  0  0  0  0  0  0
    0.5328   -1.5416    0.0000 C   0  0  0  0  0  0  0  0  0  0  0  0
   -0.9067   -1.1197    0.0000 C   0  0  0  0  0  0  0  0  0  0  0  0
  2  1  1  6
  2  3  1  0
  3  4  1  0
  4  5  1  0
  5  6  2  0
  5  7  1  0
  7  8  1  0
  8  9  1  0
  9 10  2  0
  9 11  2  0
  9 12  1  0
  2 13  1  0
 13 14  1  6
 14 15  1  0
 16 15  1  6
 16 17  1  0
 17 18  1  1
 18 19  1  1
 18 20  1  0
 21 20  1  1
 21 22  1  0
 22 23  1  0
 23 24  1  1
 23 25  1  0
 25 26  1  0
 26 27  1  0
 27 28  1  6
 27 29  1  0
 29 30  1  6
 30 31  1  0
 31 32  1  0
 32 33  1  6
 32 13  1  0
 32 16  1  0
 29 17  1  0
 27 21  1  0
M  END
>  <MS_ID>  (484) 
MS0507

>  <SMILES>  (484) 
C[C@H](CCC(=O)NOS(=O)(=O)O)[C@H]1CC[C@H]2[C@@H]3[C@H](O)C[C@@H]4C[C@H](O)CC[C@]4(C)[C@H]3CC[C@]12C

>  <Structure_dimension>  (484) 
2D

$$$$
MS0508
     RDKit          2D

 33 36  0  0  0  0  0  0  0  0999 V2000
   -3.7514   -3.8193    0.0000 C   0  0  0  0  0  0  0  0  0  0  0  0
   -2.8868   -2.5936    0.0000 C   0  0  0  0  0  0  0  0  0  0  0  0
   -3.5159   -1.2319    0.0000 C   0  0  0  0  0  0  0  0  0  0  0  0
   -5.0097   -1.0959    0.0000 C   0  0  0  0  0  0  0  0  0  0  0  0
   -5.6389    0.2658    0.0000 C   0  0  0  0  0  0  0  0  0  0  0  0
   -7.1327    0.4018    0.0000 O   0  0  0  0  0  0  0  0  0  0  0  0
   -4.7742    1.4915    0.0000 O   0  0  0  0  0  0  0  0  0  0  0  0
   -5.4033    2.8532    0.0000 S   0  0  0  0  0  0  0  0  0  0  0  0
   -6.7650    2.2240    0.0000 O   0  0  0  0  0  0  0  0  0  0  0  0
   -4.0416    3.4823    0.0000 O   0  0  0  0  0  0  0  0  0  0  0  0
   -6.0325    4.2148    0.0000 O   0  0  0  0  0  0  0  0  0  0  0  0
   -1.3929   -2.7296    0.0000 C   0  0  0  0  0  0  0  0  0  0  0  0
   -0.6249   -4.0180    0.0000 C   0  0  0  0  0  0  0  0  0  0  0  0
    0.8378   -3.6857    0.0000 C   0  0  0  0  0  0  0  0  0  0  0  0
    0.9738   -2.1919    0.0000 C   0  0  0  0  0  0  0  0  0  0  0  0
    2.1749   -1.2934    0.0000 C   0  0  0  0  0  0  0  0  0  0  0  0
    3.5536   -1.8844    0.0000 C   0  0  0  0  0  0  0  0  0  0  0  0
    3.7312   -3.3738    0.0000 O   0  0  0  0  0  0  0  0  0  0  0  0
    4.7547   -0.9859    0.0000 C   0  0  0  0  0  0  0  0  0  0  0  0
    6.1334   -1.5768    0.0000 O   0  0  0  0  0  0  0  0  0  0  0  0
    4.5772    0.5036    0.0000 C   0  0  0  0  0  0  0  0  0  0  0  0
    5.7783    1.4021    0.0000 C   0  0  0  0  0  0  0  0  0  0  0  0
    5.6007    2.8915    0.0000 C   0  0  0  0  0  0  0  0  0  0  0  0
    6.8019    3.7900    0.0000 O   0  0  0  0  0  0  0  0  0  0  0  0
    4.2220    3.4825    0.0000 C   0  0  0  0  0  0  0  0  0  0  0  0
    3.0209    2.5840    0.0000 C   0  0  0  0  0  0  0  0  0  0  0  0
    3.1985    1.0945    0.0000 C   0  0  0  0  0  0  0  0  0  0  0  0
    1.8198    1.6855    0.0000 C   0  0  0  0  0  0  0  0  0  0  0  0
    1.9974    0.1960    0.0000 C   0  0  0  0  0  0  0  0  0  0  0  0
    0.6187    0.7870    0.0000 C   0  0  0  0  0  0  0  0  0  0  0  0
   -0.5824   -0.1115    0.0000 C   0  0  0  0  0  0  0  0  0  0  0  0
   -0.4049   -1.6010    0.0000 C   0  0  0  0  0  0  0  0  0  0  0  0
   -1.8378   -1.1574    0.0000 C   0  0  0  0  0  0  0  0  0  0  0  0
  2  1  1  6
  2  3  1  0
  3  4  1  0
  4  5  1  0
  5  6  2  0
  5  7  1  0
  7  8  1  0
  8  9  2  0
  8 10  2  0
  8 11  1  0
  2 12  1  0
 12 13  1  6
 13 14  1  0
 15 14  1  6
 15 16  1  0
 16 17  1  1
 17 18  1  1
 17 19  1  0
 19 20  1  1
 19 21  1  0
 21 22  1  1
 22 23  1  0
 23 24  1  1
 23 25  1  0
 25 26  1  0
 26 27  1  0
 27 28  1  6
 27 29  1  0
 29 30  1  6
 30 31  1  0
 31 32  1  0
 32 33  1  6
 32 12  1  0
 32 15  1  0
 29 16  1  0
 27 21  1  0
M  END
>  <MS_ID>  (485) 
MS0508

>  <SMILES>  (485) 
C[C@H](CCC(=O)OS(=O)(=O)O)[C@H]1CC[C@H]2[C@@H]3[C@H](O)[C@H](O)[C@@H]4C[C@H](O)CC[C@]4(C)[C@H]3CC[C@]12C

>  <Structure_dimension>  (485) 
2D

$$$$
MS0510
     RDKit          2D

 31 34  0  0  0  0  0  0  0  0999 V2000
   -4.2495   -2.8115    0.0000 C   0  0  0  0  0  0  0  0  0  0  0  0
   -3.1859   -1.7538    0.0000 C   0  0  0  0  0  0  0  0  0  0  0  0
   -3.5702   -0.3038    0.0000 C   0  0  0  0  0  0  0  0  0  0  0  0
   -5.0180    0.0883    0.0000 C   0  0  0  0  0  0  0  0  0  0  0  0
   -5.4023    1.5383    0.0000 C   0  0  0  0  0  0  0  0  0  0  0  0
   -4.3387    2.5960    0.0000 O   0  0  0  0  0  0  0  0  0  0  0  0
   -6.8501    1.9305    0.0000 C   0  0  0  0  0  0  0  0  0  0  0  0
   -7.2344    3.3804    0.0000 O   0  0  0  0  0  0  0  0  0  0  0  0
   -7.9137    0.8727    0.0000 O   0  0  0  0  0  0  0  0  0  0  0  0
   -1.7381   -2.1460    0.0000 C   0  0  0  0  0  0  0  0  0  0  0  0
   -1.2044   -3.5478    0.0000 C   0  0  0  0  0  0  0  0  0  0  0  0
    0.2938   -3.4734    0.0000 C   0  0  0  0  0  0  0  0  0  0  0  0
    0.6860   -2.0256    0.0000 C   0  0  0  0  0  0  0  0  0  0  0  0
    2.0243   -1.3482    0.0000 C   0  0  0  0  0  0  0  0  0  0  0  0
    3.2801   -2.1686    0.0000 C   0  0  0  0  0  0  0  0  0  0  0  0
    3.1975   -3.6663    0.0000 O   0  0  0  0  0  0  0  0  0  0  0  0
    4.6185   -1.4913    0.0000 C   0  0  0  0  0  0  0  0  0  0  0  0
    4.7010    0.0064    0.0000 C   0  0  0  0  0  0  0  0  0  0  0  0
    6.0394    0.6838    0.0000 C   0  0  0  0  0  0  0  0  0  0  0  0
    6.1220    2.1815    0.0000 C   0  0  0  0  0  0  0  0  0  0  0  0
    7.4604    2.8588    0.0000 O   0  0  0  0  0  0  0  0  0  0  0  0
    4.8662    3.0019    0.0000 C   0  0  0  0  0  0  0  0  0  0  0  0
    3.5279    2.3246    0.0000 C   0  0  0  0  0  0  0  0  0  0  0  0
    3.4453    0.8268    0.0000 C   0  0  0  0  0  0  0  0  0  0  0  0
    2.1895    1.6472    0.0000 C   0  0  0  0  0  0  0  0  0  0  0  0
    2.1069    0.1495    0.0000 C   0  0  0  0  0  0  0  0  0  0  0  0
    0.8511    0.9699    0.0000 C   0  0  0  0  0  0  0  0  0  0  0  0
   -0.4872    0.2925    0.0000 C   0  0  0  0  0  0  0  0  0  0  0  0
   -1.7430    1.1129    0.0000 O   0  0  0  0  0  0  0  0  0  0  0  0
   -0.5698   -1.2052    0.0000 C   0  0  0  0  0  0  0  0  0  0  0  0
   -1.9045   -0.5205    0.0000 C   0  0  0  0  0  0  0  0  0  0  0  0
  2  1  1  6
  2  3  1  0
  3  4  1  0
  4  5  1  0
  5  6  2  0
  5  7  1  0
  7  8  1  0
  7  9  1  0
  2 10  1  0
 10 11  1  6
 11 12  1  0
 13 12  1  6
 13 14  1  0
 14 15  1  1
 15 16  1  1
 15 17  1  0
 18 17  1  1
 18 19  1  0
 19 20  1  0
 20 21  1  1
 20 22  1  0
 22 23  1  0
 23 24  1  0
 24 25  1  6
 24 26  1  0
 26 27  1  6
 27 28  1  0
 28 29  1  1
 28 30  1  0
 30 31  1  6
 30 10  1  0
 30 13  1  0
 26 14  1  0
 24 18  1  0
M  END
>  <MS_ID>  (486) 
MS0510

>  <SMILES>  (486) 
C[C@H](CCC(=O)C(O)O)[C@H]1CC[C@H]2[C@@H]3[C@H](O)C[C@@H]4C[C@H](O)CC[C@]4(C)[C@H]3C[C@H](O)[C@]12C

>  <Structure_dimension>  (486) 
2D

$$$$
MS0511
     RDKit          2D

 29 32  0  0  0  0  0  0  0  0999 V2000
   -5.0303   -2.1373    0.0000 C   0  0  0  0  0  0  0  0  0  0  0  0
   -3.8594   -1.1998    0.0000 C   0  0  0  0  0  0  0  0  0  0  0  0
   -4.0858    0.2830    0.0000 C   0  0  0  0  0  0  0  0  0  0  0  0
   -5.4831    0.8284    0.0000 C   0  0  0  0  0  0  0  0  0  0  0  0
   -5.7095    2.3112    0.0000 C   0  0  0  0  0  0  0  0  0  0  0  0
   -4.5386    3.2487    0.0000 O   0  0  0  0  0  0  0  0  0  0  0  0
   -7.1069    2.8565    0.0000 O   0  0  0  0  0  0  0  0  0  0  0  0
   -2.4620   -1.7451    0.0000 C   0  0  0  0  0  0  0  0  0  0  0  0
   -2.0818   -3.1961    0.0000 C   0  0  0  0  0  0  0  0  0  0  0  0
   -0.5844   -3.2830    0.0000 C   0  0  0  0  0  0  0  0  0  0  0  0
   -0.0390   -1.8856    0.0000 C   0  0  0  0  0  0  0  0  0  0  0  0
    1.3643   -1.3559    0.0000 C   0  0  0  0  0  0  0  0  0  0  0  0
    2.5248   -2.3063    0.0000 C   0  0  0  0  0  0  0  0  0  0  0  0
    2.2819   -3.7865    0.0000 O   0  0  0  0  0  0  0  0  0  0  0  0
    3.9281   -1.7765    0.0000 C   0  0  0  0  0  0  0  0  0  0  0  0
    4.1710   -0.2963    0.0000 C   0  0  0  0  0  0  0  0  0  0  0  0
    5.5743    0.2334    0.0000 C   0  0  0  0  0  0  0  0  0  0  0  0
    5.8172    1.7136    0.0000 C   0  0  0  0  0  0  0  0  0  0  0  0
    7.2205    2.2434    0.0000 S   0  0  0  0  0  0  0  0  0  0  0  0
    4.6568    2.6641    0.0000 C   0  0  0  0  0  0  0  0  0  0  0  0
    3.2534    2.1343    0.0000 C   0  0  0  0  0  0  0  0  0  0  0  0
    3.0105    0.6541    0.0000 C   0  0  0  0  0  0  0  0  0  0  0  0
    1.8501    1.6046    0.0000 C   0  0  0  0  0  0  0  0  0  0  0  0
    1.6072    0.1244    0.0000 C   0  0  0  0  0  0  0  0  0  0  0  0
    0.4467    1.0748    0.0000 C   0  0  0  0  0  0  0  0  0  0  0  0
   -0.9566    0.5450    0.0000 C   0  0  0  0  0  0  0  0  0  0  0  0
   -2.1170    1.4955    0.0000 O   0  0  0  0  0  0  0  0  0  0  0  0
   -1.1995   -0.9352    0.0000 C   0  0  0  0  0  0  0  0  0  0  0  0
   -2.4529   -0.1112    0.0000 C   0  0  0  0  0  0  0  0  0  0  0  0
  2  1  1  6
  2  3  1  0
  3  4  1  0
  4  5  1  0
  5  6  2  0
  5  7  1  0
  2  8  1  0
  8  9  1  6
  9 10  1  0
 11 10  1  6
 11 12  1  0
 12 13  1  1
 13 14  1  1
 13 15  1  0
 16 15  1  1
 16 17  1  0
 17 18  1  0
 18 19  1  1
 18 20  1  0
 20 21  1  0
 21 22  1  0
 22 23  1  6
 22 24  1  0
 24 25  1  6
 25 26  1  0
 26 27  1  6
 26 28  1  0
 28 29  1  6
 28  8  1  0
 28 11  1  0
 24 12  1  0
 22 16  1  0
M  END
>  <MS_ID>  (487) 
MS0511

>  <SMILES>  (487) 
C[C@H](CCC(=O)O)[C@H]1CC[C@H]2[C@@H]3[C@H](O)C[C@@H]4C[C@H](S)CC[C@]4(C)[C@H]3C[C@@H](O)[C@]12C

>  <Structure_dimension>  (487) 
2D

$$$$
MS0512
     RDKit          2D

 30 33  0  0  0  0  0  0  0  0999 V2000
   -4.3770   -2.9491    0.0000 C   0  0  0  0  0  0  0  0  0  0  0  0
   -3.2892   -1.9163    0.0000 C   0  0  0  0  0  0  0  0  0  0  0  0
   -3.6398   -0.4579    0.0000 C   0  0  0  0  0  0  0  0  0  0  0  0
   -5.0782   -0.0322    0.0000 C   0  0  0  0  0  0  0  0  0  0  0  0
   -5.4287    1.4262    0.0000 C   0  0  0  0  0  0  0  0  0  0  0  0
   -6.8671    1.8518    0.0000 O   0  0  0  0  0  0  0  0  0  0  0  0
   -4.3410    2.4591    0.0000 S   0  0  0  0  0  0  0  0  0  0  0  0
   -5.3738    3.5468    0.0000 O   0  0  0  0  0  0  0  0  0  0  0  0
   -3.3081    1.3713    0.0000 O   0  0  0  0  0  0  0  0  0  0  0  0
   -3.2532    3.4919    0.0000 O   0  0  0  0  0  0  0  0  0  0  0  0
   -1.8509   -2.3419    0.0000 C   0  0  0  0  0  0  0  0  0  0  0  0
   -1.3498   -3.7557    0.0000 C   0  0  0  0  0  0  0  0  0  0  0  0
    0.1497   -3.7161    0.0000 C   0  0  0  0  0  0  0  0  0  0  0  0
    0.5753   -2.2777    0.0000 C   0  0  0  0  0  0  0  0  0  0  0  0
    1.9290   -1.6316    0.0000 C   0  0  0  0  0  0  0  0  0  0  0  0
    3.1654   -2.4808    0.0000 C   0  0  0  0  0  0  0  0  0  0  0  0
    4.5191   -1.8347    0.0000 C   0  0  0  0  0  0  0  0  0  0  0  0
    4.6364   -0.3393    0.0000 C   0  0  0  0  0  0  0  0  0  0  0  0
    5.9901    0.3069    0.0000 C   0  0  0  0  0  0  0  0  0  0  0  0
    6.1074    1.8023    0.0000 C   0  0  0  0  0  0  0  0  0  0  0  0
    7.4611    2.4484    0.0000 O   0  0  0  0  0  0  0  0  0  0  0  0
    4.8709    2.6515    0.0000 C   0  0  0  0  0  0  0  0  0  0  0  0
    3.5172    2.0054    0.0000 C   0  0  0  0  0  0  0  0  0  0  0  0
    3.4000    0.5100    0.0000 C   0  0  0  0  0  0  0  0  0  0  0  0
    2.1635    1.3593    0.0000 C   0  0  0  0  0  0  0  0  0  0  0  0
    2.0463   -0.1362    0.0000 C   0  0  0  0  0  0  0  0  0  0  0  0
    0.8098    0.7131    0.0000 C   0  0  0  0  0  0  0  0  0  0  0  0
   -0.5438    0.0670    0.0000 C   0  0  0  0  0  0  0  0  0  0  0  0
   -0.6611   -1.4284    0.0000 C   0  0  0  0  0  0  0  0  0  0  0  0
   -1.9795   -0.7131    0.0000 C   0  0  0  0  0  0  0  0  0  0  0  0
  2  1  1  6
  2  3  1  0
  3  4  1  0
  4  5  1  0
  5  6  2  0
  5  7  1  0
  7  8  2  0
  7  9  2  0
  7 10  1  0
  2 11  1  0
 11 12  1  6
 12 13  1  0
 14 13  1  6
 14 15  1  0
 15 16  1  1
 16 17  1  0
 18 17  1  1
 18 19  1  0
 19 20  1  0
 20 21  1  1
 20 22  1  0
 22 23  1  0
 23 24  1  0
 24 25  1  6
 24 26  1  0
 26 27  1  6
 27 28  1  0
 28 29  1  0
 29 30  1  6
 29 11  1  0
 29 14  1  0
 26 15  1  0
 24 18  1  0
M  END
>  <MS_ID>  (488) 
MS0512

>  <SMILES>  (488) 
C[C@H](CCC(=O)S(=O)(=O)O)[C@H]1CC[C@H]2[C@@H]3CC[C@@H]4C[C@H](O)CC[C@]4(C)[C@H]3CC[C@]12C

>  <Structure_dimension>  (488) 
2D

$$$$
MS0513
     RDKit          2D

 31 34  0  0  0  0  0  0  0  0999 V2000
   -4.0024   -3.4860    0.0000 C   0  0  0  0  0  0  0  0  0  0  0  0
   -3.0477   -2.3291    0.0000 C   0  0  0  0  0  0  0  0  0  0  0  0
   -3.5723   -0.9238    0.0000 C   0  0  0  0  0  0  0  0  0  0  0  0
   -5.0516   -0.6754    0.0000 C   0  0  0  0  0  0  0  0  0  0  0  0
   -5.5761    0.7298    0.0000 C   0  0  0  0  0  0  0  0  0  0  0  0
   -7.0554    0.9782    0.0000 O   0  0  0  0  0  0  0  0  0  0  0  0
   -4.6214    1.8868    0.0000 O   0  0  0  0  0  0  0  0  0  0  0  0
   -5.1460    3.2921    0.0000 C   0  0  0  0  0  0  0  0  0  0  0  0
   -4.1913    4.4490    0.0000 N   0  0  0  0  0  0  0  0  0  0  0  0
   -6.6253    3.5404    0.0000 O   0  0  0  0  0  0  0  0  0  0  0  0
   -1.5684   -2.5774    0.0000 C   0  0  0  0  0  0  0  0  0  0  0  0
   -0.8998   -3.9201    0.0000 C   0  0  0  0  0  0  0  0  0  0  0  0
    0.5839   -3.6992    0.0000 C   0  0  0  0  0  0  0  0  0  0  0  0
    0.8322   -2.2199    0.0000 C   0  0  0  0  0  0  0  0  0  0  0  0
    2.0977   -1.4146    0.0000 C   0  0  0  0  0  0  0  0  0  0  0  0
    3.4279   -2.1079    0.0000 C   0  0  0  0  0  0  0  0  0  0  0  0
    3.4925   -3.6065    0.0000 O   0  0  0  0  0  0  0  0  0  0  0  0
    4.6934   -1.3026    0.0000 C   0  0  0  0  0  0  0  0  0  0  0  0
    4.6287    0.1960    0.0000 C   0  0  0  0  0  0  0  0  0  0  0  0
    5.8942    1.0013    0.0000 C   0  0  0  0  0  0  0  0  0  0  0  0
    5.8296    2.4999    0.0000 C   0  0  0  0  0  0  0  0  0  0  0  0
    7.0951    3.3052    0.0000 O   0  0  0  0  0  0  0  0  0  0  0  0
    4.4994    3.1932    0.0000 C   0  0  0  0  0  0  0  0  0  0  0  0
    3.2339    2.3879    0.0000 C   0  0  0  0  0  0  0  0  0  0  0  0
    3.2986    0.8893    0.0000 C   0  0  0  0  0  0  0  0  0  0  0  0
    1.9684    1.5826    0.0000 C   0  0  0  0  0  0  0  0  0  0  0  0
    2.0331    0.0840    0.0000 C   0  0  0  0  0  0  0  0  0  0  0  0
    0.7029    0.7773    0.0000 C   0  0  0  0  0  0  0  0  0  0  0  0
   -0.5626   -0.0280    0.0000 C   0  0  0  0  0  0  0  0  0  0  0  0
   -0.4979   -1.5266    0.0000 C   0  0  0  0  0  0  0  0  0  0  0  0
   -1.8933   -0.9761    0.0000 C   0  0  0  0  0  0  0  0  0  0  0  0
  2  1  1  6
  2  3  1  0
  3  4  1  0
  4  5  1  0
  5  6  2  0
  5  7  1  0
  7  8  1  0
  8  9  1  0
  8 10  2  0
  2 11  1  0
 11 12  1  6
 12 13  1  0
 14 13  1  6
 14 15  1  0
 15 16  1  1
 16 17  1  1
 16 18  1  0
 19 18  1  1
 19 20  1  0
 20 21  1  0
 21 22  1  1
 21 23  1  0
 23 24  1  0
 24 25  1  0
 25 26  1  6
 25 27  1  0
 27 28  1  6
 28 29  1  0
 29 30  1  0
 30 31  1  6
 30 11  1  0
 30 14  1  0
 27 15  1  0
 25 19  1  0
M  END
>  <MS_ID>  (489) 
MS0513

>  <SMILES>  (489) 
C[C@H](CCC(=O)OC(N)=O)[C@H]1CC[C@H]2[C@@H]3[C@H](O)C[C@@H]4C[C@H](O)CC[C@]4(C)[C@H]3CC[C@]12C

>  <Structure_dimension>  (489) 
2D

$$$$
MS0514
     RDKit          2D

 34 37  0  0  0  0  0  0  0  0999 V2000
   -1.0886   -4.6276    0.0000 C   0  0  0  0  0  0  0  0  0  0  0  0
   -0.4611   -3.2652    0.0000 C   0  0  0  0  0  0  0  0  0  0  0  0
   -1.3273   -2.0405    0.0000 C   0  0  0  0  0  0  0  0  0  0  0  0
   -2.8209   -2.1783    0.0000 C   0  0  0  0  0  0  0  0  0  0  0  0
   -3.6871   -0.9536    0.0000 C   0  0  0  0  0  0  0  0  0  0  0  0
   -3.0596    0.4088    0.0000 O   0  0  0  0  0  0  0  0  0  0  0  0
   -5.1807   -1.0914    0.0000 N   0  0  0  0  0  0  0  0  0  0  0  0
   -6.0469    0.1332    0.0000 C   0  0  0  0  0  0  0  0  0  0  0  0
   -7.5406   -0.0045    0.0000 C   0  0  0  0  0  0  0  0  0  0  0  0
   -8.4067    1.2201    0.0000 C   0  0  0  0  0  0  0  0  0  0  0  0
   -9.9004    1.0823    0.0000 C   0  0  0  0  0  0  0  0  0  0  0  0
  -10.7665    2.3070    0.0000 C   0  0  0  0  0  0  0  0  0  0  0  0
  -10.1390    3.6694    0.0000 O   0  0  0  0  0  0  0  0  0  0  0  0
  -12.2602    2.1692    0.0000 O   0  0  0  0  0  0  0  0  0  0  0  0
    1.0325   -3.1274    0.0000 C   0  0  0  0  0  0  0  0  0  0  0  0
    2.0220   -4.2548    0.0000 C   0  0  0  0  0  0  0  0  0  0  0  0
    3.3999   -3.6622    0.0000 C   0  0  0  0  0  0  0  0  0  0  0  0
    3.2621   -2.1685    0.0000 C   0  0  0  0  0  0  0  0  0  0  0  0
    4.2800   -1.0667    0.0000 C   0  0  0  0  0  0  0  0  0  0  0  0
    5.7431   -1.3972    0.0000 C   0  0  0  0  0  0  0  0  0  0  0  0
    6.7609   -0.2954    0.0000 C   0  0  0  0  0  0  0  0  0  0  0  0
    6.3156    1.1370    0.0000 C   0  0  0  0  0  0  0  0  0  0  0  0
    7.3334    2.2388    0.0000 C   0  0  0  0  0  0  0  0  0  0  0  0
    6.8881    3.6712    0.0000 C   0  0  0  0  0  0  0  0  0  0  0  0
    7.9059    4.7730    0.0000 O   0  0  0  0  0  0  0  0  0  0  0  0
    5.4249    4.0017    0.0000 C   0  0  0  0  0  0  0  0  0  0  0  0
    4.4071    2.8999    0.0000 C   0  0  0  0  0  0  0  0  0  0  0  0
    4.8525    1.4675    0.0000 C   0  0  0  0  0  0  0  0  0  0  0  0
    3.3893    1.7980    0.0000 C   0  0  0  0  0  0  0  0  0  0  0  0
    3.8346    0.3657    0.0000 C   0  0  0  0  0  0  0  0  0  0  0  0
    2.3715    0.6962    0.0000 C   0  0  0  0  0  0  0  0  0  0  0  0
    1.3537   -0.4056    0.0000 C   0  0  0  0  0  0  0  0  0  0  0  0
    1.7990   -1.8380    0.0000 C   0  0  0  0  0  0  0  0  0  0  0  0
    0.3094   -1.6622    0.0000 C   0  0  0  0  0  0  0  0  0  0  0  0
  2  1  1  6
  2  3  1  0
  3  4  1  0
  4  5  1  0
  5  6  2  0
  5  7  1  0
  7  8  1  0
  8  9  1  0
  9 10  1  0
 10 11  1  0
 11 12  1  0
 12 13  2  0
 12 14  1  0
  2 15  1  0
 15 16  1  6
 16 17  1  0
 18 17  1  6
 18 19  1  0
 19 20  1  1
 20 21  1  0
 22 21  1  1
 22 23  1  0
 23 24  1  0
 24 25  1  1
 24 26  1  0
 26 27  1  0
 27 28  1  0
 28 29  1  6
 28 30  1  0
 30 31  1  6
 31 32  1  0
 32 33  1  0
 33 34  1  6
 33 15  1  0
 33 18  1  0
 30 19  1  0
 28 22  1  0
M  END
>  <MS_ID>  (490) 
MS0514

>  <SMILES>  (490) 
C[C@H](CCC(=O)NCCCCC(=O)O)[C@H]1CC[C@H]2[C@@H]3CC[C@@H]4C[C@H](O)CC[C@]4(C)[C@H]3CC[C@]12C

>  <Structure_dimension>  (490) 
2D

$$$$
MS0515
     RDKit          2D

 29 32  0  0  0  0  0  0  0  0999 V2000
   -4.2923   -2.7601    0.0000 C   0  0  0  0  0  0  0  0  0  0  0  0
   -3.1946   -1.7378    0.0000 C   0  0  0  0  0  0  0  0  0  0  0  0
   -3.5310   -0.2760    0.0000 C   0  0  0  0  0  0  0  0  0  0  0  0
   -4.9652    0.1635    0.0000 C   0  0  0  0  0  0  0  0  0  0  0  0
   -5.3016    1.6253    0.0000 C   0  0  0  0  0  0  0  0  0  0  0  0
   -4.2039    2.6475    0.0000 O   0  0  0  0  0  0  0  0  0  0  0  0
   -6.7358    2.0648    0.0000 N   0  0  0  0  0  0  0  0  0  0  0  0
   -7.0722    3.5266    0.0000 C   0  0  0  0  0  0  0  0  0  0  0  0
   -7.8335    1.0426    0.0000 C   0  0  0  0  0  0  0  0  0  0  0  0
   -1.7604   -2.1774    0.0000 C   0  0  0  0  0  0  0  0  0  0  0  0
   -1.2731   -3.5960    0.0000 C   0  0  0  0  0  0  0  0  0  0  0  0
    0.2267   -3.5708    0.0000 C   0  0  0  0  0  0  0  0  0  0  0  0
    0.6663   -2.1367    0.0000 C   0  0  0  0  0  0  0  0  0  0  0  0
    2.0262   -1.5037    0.0000 C   0  0  0  0  0  0  0  0  0  0  0  0
    3.2543   -2.3649    0.0000 C   0  0  0  0  0  0  0  0  0  0  0  0
    4.6142   -1.7319    0.0000 C   0  0  0  0  0  0  0  0  0  0  0  0
    4.7460   -0.2377    0.0000 C   0  0  0  0  0  0  0  0  0  0  0  0
    6.1059    0.3953    0.0000 C   0  0  0  0  0  0  0  0  0  0  0  0
    6.2376    1.8895    0.0000 C   0  0  0  0  0  0  0  0  0  0  0  0
    7.5975    2.5225    0.0000 O   0  0  0  0  0  0  0  0  0  0  0  0
    5.0095    2.7507    0.0000 C   0  0  0  0  0  0  0  0  0  0  0  0
    3.6496    2.1177    0.0000 C   0  0  0  0  0  0  0  0  0  0  0  0
    3.5178    0.6235    0.0000 C   0  0  0  0  0  0  0  0  0  0  0  0
    2.2897    1.4847    0.0000 C   0  0  0  0  0  0  0  0  0  0  0  0
    2.1579   -0.0095    0.0000 C   0  0  0  0  0  0  0  0  0  0  0  0
    0.9298    0.8517    0.0000 C   0  0  0  0  0  0  0  0  0  0  0  0
   -0.4301    0.2187    0.0000 C   0  0  0  0  0  0  0  0  0  0  0  0
   -0.5619   -1.2755    0.0000 C   0  0  0  0  0  0  0  0  0  0  0  0
   -1.8733   -0.5473    0.0000 C   0  0  0  0  0  0  0  0  0  0  0  0
  2  1  1  6
  2  3  1  0
  3  4  1  0
  4  5  1  0
  5  6  2  0
  5  7  1  0
  7  8  1  0
  7  9  1  0
  2 10  1  0
 10 11  1  6
 11 12  1  0
 13 12  1  6
 13 14  1  0
 14 15  1  1
 15 16  1  0
 17 16  1  1
 17 18  1  0
 18 19  1  0
 19 20  1  1
 19 21  1  0
 21 22  1  0
 22 23  1  0
 23 24  1  6
 23 25  1  0
 25 26  1  6
 26 27  1  0
 27 28  1  0
 28 29  1  6
 28 10  1  0
 28 13  1  0
 25 14  1  0
 23 17  1  0
M  END
>  <MS_ID>  (491) 
MS0515

>  <SMILES>  (491) 
C[C@H](CCC(=O)N(C)C)[C@H]1CC[C@H]2[C@@H]3CC[C@@H]4C[C@H](O)CC[C@]4(C)[C@H]3CC[C@]12C

>  <Structure_dimension>  (491) 
2D

$$$$
MS0516
     RDKit          2D

 31 34  0  0  0  0  0  0  0  0999 V2000
   -2.9977   -3.6783    0.0000 C   0  0  0  0  0  0  0  0  0  0  0  0
   -2.1750   -2.4240    0.0000 C   0  0  0  0  0  0  0  0  0  0  0  0
   -2.8500   -1.0844    0.0000 C   0  0  0  0  0  0  0  0  0  0  0  0
   -4.3475   -0.9991    0.0000 C   0  0  0  0  0  0  0  0  0  0  0  0
   -5.0224    0.3405    0.0000 C   0  0  0  0  0  0  0  0  0  0  0  0
   -4.1998    1.5947    0.0000 O   0  0  0  0  0  0  0  0  0  0  0  0
   -6.5200    0.4258    0.0000 O   0  0  0  0  0  0  0  0  0  0  0  0
   -7.1949    1.7653    0.0000 C   0  0  0  0  0  0  0  0  0  0  0  0
   -8.6925    1.8506    0.0000 C   0  0  0  0  0  0  0  0  0  0  0  0
   -9.3674    3.1902    0.0000 N   0  0  0  0  0  0  0  0  0  0  0  0
   -0.6775   -2.5093    0.0000 C   0  0  0  0  0  0  0  0  0  0  0  0
    0.1338   -3.7710    0.0000 C   0  0  0  0  0  0  0  0  0  0  0  0
    1.5844   -3.3894    0.0000 C   0  0  0  0  0  0  0  0  0  0  0  0
    1.6697   -1.8918    0.0000 C   0  0  0  0  0  0  0  0  0  0  0  0
    2.8397   -0.9531    0.0000 C   0  0  0  0  0  0  0  0  0  0  0  0
    4.2376   -1.4970    0.0000 C   0  0  0  0  0  0  0  0  0  0  0  0
    4.4655   -2.9796    0.0000 O   0  0  0  0  0  0  0  0  0  0  0  0
    5.4076   -0.5583    0.0000 C   0  0  0  0  0  0  0  0  0  0  0  0
    5.1797    0.9243    0.0000 C   0  0  0  0  0  0  0  0  0  0  0  0
    6.3497    1.8629    0.0000 C   0  0  0  0  0  0  0  0  0  0  0  0
    6.1217    3.3455    0.0000 C   0  0  0  0  0  0  0  0  0  0  0  0
    4.7238    3.8894    0.0000 C   0  0  0  0  0  0  0  0  0  0  0  0
    3.5538    2.9507    0.0000 C   0  0  0  0  0  0  0  0  0  0  0  0
    3.7818    1.4682    0.0000 C   0  0  0  0  0  0  0  0  0  0  0  0
    2.3839    2.0121    0.0000 C   0  0  0  0  0  0  0  0  0  0  0  0
    2.6118    0.5295    0.0000 C   0  0  0  0  0  0  0  0  0  0  0  0
    1.2139    1.0734    0.0000 C   0  0  0  0  0  0  0  0  0  0  0  0
    0.0439    0.1347    0.0000 C   0  0  0  0  0  0  0  0  0  0  0  0
   -1.3540    0.6786    0.0000 O   0  0  0  0  0  0  0  0  0  0  0  0
    0.2718   -1.3479    0.0000 C   0  0  0  0  0  0  0  0  0  0  0  0
   -1.1753   -0.9531    0.0000 C   0  0  0  0  0  0  0  0  0  0  0  0
  2  1  1  6
  2  3  1  0
  3  4  1  0
  4  5  1  0
  5  6  2  0
  5  7  1  0
  7  8  1  0
  8  9  1  0
  9 10  1  0
  2 11  1  0
 11 12  1  6
 12 13  1  0
 14 13  1  6
 14 15  1  0
 15 16  1  1
 16 17  1  1
 16 18  1  0
 19 18  1  1
 19 20  1  0
 20 21  1  0
 21 22  1  0
 22 23  1  0
 23 24  1  0
 24 25  1  6
 24 26  1  0
 26 27  1  6
 27 28  1  0
 28 29  1  1
 28 30  1  0
 30 31  1  6
 30 11  1  0
 30 14  1  0
 26 15  1  0
 24 19  1  0
M  END
>  <MS_ID>  (492) 
MS0516

>  <SMILES>  (492) 
C[C@H](CCC(=O)OCCN)[C@H]1CC[C@H]2[C@@H]3[C@H](O)C[C@@H]4CCCC[C@]4(C)[C@H]3C[C@H](O)[C@]12C

>  <Structure_dimension>  (492) 
2D

$$$$
MS0517
     RDKit          2D

 31 34  0  0  0  0  0  0  0  0999 V2000
   -5.7175   -1.8176    0.0000 C   0  0  0  0  0  0  0  0  0  0  0  0
   -4.4708   -0.9835    0.0000 C   0  0  0  0  0  0  0  0  0  0  0  0
   -4.5698    0.5132    0.0000 C   0  0  0  0  0  0  0  0  0  0  0  0
   -5.9155    1.1758    0.0000 C   0  0  0  0  0  0  0  0  0  0  0  0
   -6.0145    2.6726    0.0000 C   0  0  0  0  0  0  0  0  0  0  0  0
   -4.7678    3.5067    0.0000 O   0  0  0  0  0  0  0  0  0  0  0  0
   -7.3602    3.3352    0.0000 O   0  0  0  0  0  0  0  0  0  0  0  0
   -3.1251   -1.6462    0.0000 C   0  0  0  0  0  0  0  0  0  0  0  0
   -2.8701   -3.1243    0.0000 C   0  0  0  0  0  0  0  0  0  0  0  0
   -1.3855   -3.3387    0.0000 C   0  0  0  0  0  0  0  0  0  0  0  0
   -0.7229   -1.9930    0.0000 C   0  0  0  0  0  0  0  0  0  0  0  0
    0.7205   -1.5850    0.0000 C   0  0  0  0  0  0  0  0  0  0  0  0
    1.7956   -2.6310    0.0000 C   0  0  0  0  0  0  0  0  0  0  0  0
    1.4272   -4.0851    0.0000 O   0  0  0  0  0  0  0  0  0  0  0  0
    3.2390   -2.2230    0.0000 C   0  0  0  0  0  0  0  0  0  0  0  0
    3.6074   -0.7689    0.0000 C   0  0  0  0  0  0  0  0  0  0  0  0
    5.0508   -0.3609    0.0000 C   0  0  0  0  0  0  0  0  0  0  0  0
    5.4192    1.0932    0.0000 C   0  0  0  0  0  0  0  0  0  0  0  0
    6.8626    1.5012    0.0000 N   0  0  0  0  0  0  0  0  0  0  0  0
    7.9377    0.4551    0.0000 C   0  0  0  0  0  0  0  0  0  0  0  0
    7.2310    2.9552    0.0000 C   0  0  0  0  0  0  0  0  0  0  0  0
    4.3441    2.1392    0.0000 C   0  0  0  0  0  0  0  0  0  0  0  0
    2.9007    1.7312    0.0000 C   0  0  0  0  0  0  0  0  0  0  0  0
    2.5323    0.2771    0.0000 C   0  0  0  0  0  0  0  0  0  0  0  0
    1.4572    1.3232    0.0000 C   0  0  0  0  0  0  0  0  0  0  0  0
    1.0889   -0.1309    0.0000 C   0  0  0  0  0  0  0  0  0  0  0  0
    0.0138    0.9151    0.0000 C   0  0  0  0  0  0  0  0  0  0  0  0
   -1.4296    0.5071    0.0000 C   0  0  0  0  0  0  0  0  0  0  0  0
   -2.5047    1.5532    0.0000 O   0  0  0  0  0  0  0  0  0  0  0  0
   -1.7980   -0.9470    0.0000 C   0  0  0  0  0  0  0  0  0  0  0  0
   -2.9765   -0.0190    0.0000 C   0  0  0  0  0  0  0  0  0  0  0  0
  2  1  1  6
  2  3  1  0
  3  4  1  0
  4  5  1  0
  5  6  2  0
  5  7  1  0
  2  8  1  0
  8  9  1  6
  9 10  1  0
 11 10  1  6
 11 12  1  0
 12 13  1  1
 13 14  1  6
 13 15  1  0
 16 15  1  1
 16 17  1  0
 17 18  1  0
 18 19  1  1
 19 20  1  0
 19 21  1  0
 18 22  1  0
 22 23  1  0
 23 24  1  0
 24 25  1  6
 24 26  1  0
 26 27  1  6
 27 28  1  0
 28 29  1  1
 28 30  1  0
 30 31  1  6
 30  8  1  0
 30 11  1  0
 26 12  1  0
 24 16  1  0
M  END
>  <MS_ID>  (493) 
MS0517

>  <SMILES>  (493) 
C[C@H](CCC(=O)O)[C@H]1CC[C@H]2[C@@H]3[C@@H](O)C[C@@H]4C[C@H](N(C)C)CC[C@]4(C)[C@H]3C[C@H](O)[C@]12C

>  <Structure_dimension>  (493) 
2D

$$$$
MS0518
     RDKit          2D

 29 32  0  0  0  0  0  0  0  0999 V2000
   -5.7953   -1.7772    0.0000 C   0  0  0  0  0  0  0  0  0  0  0  0
   -4.5305   -0.9709    0.0000 C   0  0  0  0  0  0  0  0  0  0  0  0
   -4.5964    0.5277    0.0000 C   0  0  0  0  0  0  0  0  0  0  0  0
   -5.9271    1.2199    0.0000 C   0  0  0  0  0  0  0  0  0  0  0  0
   -5.9930    2.7184    0.0000 C   0  0  0  0  0  0  0  0  0  0  0  0
   -4.7281    3.5248    0.0000 O   0  0  0  0  0  0  0  0  0  0  0  0
   -7.3237    3.4107    0.0000 O   0  0  0  0  0  0  0  0  0  0  0  0
   -3.1998   -1.6631    0.0000 C   0  0  0  0  0  0  0  0  0  0  0  0
   -2.9776   -3.1466    0.0000 C   0  0  0  0  0  0  0  0  0  0  0  0
   -1.4981   -3.3937    0.0000 C   0  0  0  0  0  0  0  0  0  0  0  0
   -0.8059   -2.0630    0.0000 C   0  0  0  0  0  0  0  0  0  0  0  0
    0.6462   -1.6870    0.0000 C   0  0  0  0  0  0  0  0  0  0  0  0
    1.6979   -2.7566    0.0000 C   0  0  0  0  0  0  0  0  0  0  0  0
    3.1500   -2.3806    0.0000 C   0  0  0  0  0  0  0  0  0  0  0  0
    3.5504   -0.9350    0.0000 C   0  0  0  0  0  0  0  0  0  0  0  0
    5.0026   -0.5590    0.0000 C   0  0  0  0  0  0  0  0  0  0  0  0
    5.4030    0.8866    0.0000 C   0  0  0  0  0  0  0  0  0  0  0  0
    6.8551    1.2626    0.0000 C   0  0  0  0  0  0  0  0  0  0  0  0
    7.2555    2.7081    0.0000 O   0  0  0  0  0  0  0  0  0  0  0  0
    7.9068    0.1930    0.0000 O   0  0  0  0  0  0  0  0  0  0  0  0
    4.3513    1.9561    0.0000 C   0  0  0  0  0  0  0  0  0  0  0  0
    2.8992    1.5801    0.0000 C   0  0  0  0  0  0  0  0  0  0  0  0
    2.4988    0.1346    0.0000 C   0  0  0  0  0  0  0  0  0  0  0  0
    1.4471    1.2041    0.0000 C   0  0  0  0  0  0  0  0  0  0  0  0
    1.0467   -0.2414    0.0000 C   0  0  0  0  0  0  0  0  0  0  0  0
   -0.0050    0.8281    0.0000 C   0  0  0  0  0  0  0  0  0  0  0  0
   -1.4571    0.4521    0.0000 C   0  0  0  0  0  0  0  0  0  0  0  0
   -1.8576   -0.9934    0.0000 C   0  0  0  0  0  0  0  0  0  0  0  0
   -3.0153   -0.0396    0.0000 C   0  0  0  0  0  0  0  0  0  0  0  0
  2  1  1  6
  2  3  1  0
  3  4  1  0
  4  5  1  0
  5  6  2  0
  5  7  1  0
  2  8  1  0
  8  9  1  6
  9 10  1  0
 11 10  1  6
 11 12  1  0
 12 13  1  1
 13 14  1  0
 15 14  1  1
 15 16  1  0
 16 17  1  0
 17 18  1  1
 18 19  2  0
 18 20  1  0
 17 21  1  0
 21 22  1  0
 22 23  1  0
 23 24  1  6
 23 25  1  0
 25 26  1  6
 26 27  1  0
 27 28  1  0
 28 29  1  6
 28  8  1  0
 28 11  1  0
 25 12  1  0
 23 15  1  0
M  END
>  <MS_ID>  (494) 
MS0518

>  <SMILES>  (494) 
C[C@H](CCC(=O)O)[C@H]1CC[C@H]2[C@@H]3CC[C@@H]4C[C@H](C(=O)O)CC[C@]4(C)[C@H]3CC[C@]12C

>  <Structure_dimension>  (494) 
2D

$$$$
MS0519
     RDKit          2D

 32 35  0  0  0  0  0  0  0  0999 V2000
   -3.4546   -3.6059    0.0000 C   0  0  0  0  0  0  0  0  0  0  0  0
   -2.5561   -2.4048    0.0000 C   0  0  0  0  0  0  0  0  0  0  0  0
   -3.1471   -1.0261    0.0000 C   0  0  0  0  0  0  0  0  0  0  0  0
   -4.6366   -0.8486    0.0000 C   0  0  0  0  0  0  0  0  0  0  0  0
   -5.2276    0.5301    0.0000 C   0  0  0  0  0  0  0  0  0  0  0  0
   -4.3291    1.7312    0.0000 O   0  0  0  0  0  0  0  0  0  0  0  0
   -6.7170    0.7076    0.0000 C   0  0  0  0  0  0  0  0  0  0  0  0
   -7.3080    2.0863    0.0000 C   0  0  0  0  0  0  0  0  0  0  0  0
   -8.7975    2.2638    0.0000 C   0  0  0  0  0  0  0  0  0  0  0  0
   -9.3885    3.6424    0.0000 O   0  0  0  0  0  0  0  0  0  0  0  0
   -1.0667   -2.5823    0.0000 C   0  0  0  0  0  0  0  0  0  0  0  0
   -0.3348   -3.8917    0.0000 C   0  0  0  0  0  0  0  0  0  0  0  0
    1.1366   -3.6002    0.0000 C   0  0  0  0  0  0  0  0  0  0  0  0
    1.3141   -2.1108    0.0000 C   0  0  0  0  0  0  0  0  0  0  0  0
    2.5398   -1.2460    0.0000 C   0  0  0  0  0  0  0  0  0  0  0  0
    3.9015   -1.8751    0.0000 C   0  0  0  0  0  0  0  0  0  0  0  0
    4.0375   -3.3690    0.0000 O   0  0  0  0  0  0  0  0  0  0  0  0
    5.1272   -1.0104    0.0000 C   0  0  0  0  0  0  0  0  0  0  0  0
    4.9911    0.4834    0.0000 C   0  0  0  0  0  0  0  0  0  0  0  0
    6.2168    1.3481    0.0000 C   0  0  0  0  0  0  0  0  0  0  0  0
    6.0808    2.8419    0.0000 C   0  0  0  0  0  0  0  0  0  0  0  0
    7.3064    3.7067    0.0000 O   0  0  0  0  0  0  0  0  0  0  0  0
    4.7191    3.4710    0.0000 C   0  0  0  0  0  0  0  0  0  0  0  0
    3.4934    2.6063    0.0000 C   0  0  0  0  0  0  0  0  0  0  0  0
    3.6294    1.1125    0.0000 C   0  0  0  0  0  0  0  0  0  0  0  0
    2.2677    1.7416    0.0000 C   0  0  0  0  0  0  0  0  0  0  0  0
    2.4038    0.2478    0.0000 C   0  0  0  0  0  0  0  0  0  0  0  0
    1.0421    0.8769    0.0000 C   0  0  0  0  0  0  0  0  0  0  0  0
   -0.1836    0.0122    0.0000 C   0  0  0  0  0  0  0  0  0  0  0  0
   -1.5453    0.6413    0.0000 O   0  0  0  0  0  0  0  0  0  0  0  0
   -0.0476   -1.4817    0.0000 C   0  0  0  0  0  0  0  0  0  0  0  0
   -1.4676   -0.9983    0.0000 C   0  0  0  0  0  0  0  0  0  0  0  0
  2  1  1  6
  2  3  1  0
  3  4  1  0
  4  5  1  0
  5  6  2  0
  5  7  1  0
  7  8  1  0
  8  9  1  0
  9 10  1  0
  2 11  1  0
 11 12  1  6
 12 13  1  0
 14 13  1  6
 14 15  1  0
 15 16  1  1
 16 17  1  1
 16 18  1  0
 19 18  1  1
 19 20  1  0
 20 21  1  0
 21 22  1  1
 21 23  1  0
 23 24  1  0
 24 25  1  0
 25 26  1  6
 25 27  1  0
 27 28  1  6
 28 29  1  0
 29 30  1  1
 29 31  1  0
 31 32  1  6
 31 11  1  0
 31 14  1  0
 27 15  1  0
 25 19  1  0
M  END
>  <MS_ID>  (495) 
MS0519

>  <SMILES>  (495) 
C[C@H](CCC(=O)CCCO)[C@H]1CC[C@H]2[C@@H]3[C@H](O)C[C@@H]4C[C@H](O)CC[C@]4(C)[C@H]3C[C@H](O)[C@]12C

>  <Structure_dimension>  (495) 
2D

$$$$
MS0520
     RDKit          2D

 35 39  0  0  0  0  0  0  0  0999 V2000
   -2.7184   -3.4912    0.0000 C   0  0  0  0  0  0  0  0  0  0  0  0
   -1.7962   -2.3082    0.0000 C   0  0  0  0  0  0  0  0  0  0  0  0
   -2.3597   -0.9180    0.0000 C   0  0  0  0  0  0  0  0  0  0  0  0
   -3.8454   -0.7110    0.0000 C   0  0  0  0  0  0  0  0  0  0  0  0
   -4.4088    0.6792    0.0000 C   0  0  0  0  0  0  0  0  0  0  0  0
   -3.4867    1.8622    0.0000 O   0  0  0  0  0  0  0  0  0  0  0  0
   -5.8945    0.8862    0.0000 C   0  0  0  0  0  0  0  0  0  0  0  0
   -6.4580    2.2764    0.0000 C   0  0  0  0  0  0  0  0  0  0  0  0
   -7.9436    2.4834    0.0000 C   0  0  0  0  0  0  0  0  0  0  0  0
   -8.8658    1.3004    0.0000 C   0  0  0  0  0  0  0  0  0  0  0  0
  -10.3514    1.5075    0.0000 O   0  0  0  0  0  0  0  0  0  0  0  0
   -8.3023   -0.0898    0.0000 O   0  0  0  0  0  0  0  0  0  0  0  0
   -6.8166   -0.2968    0.0000 C   0  0  0  0  0  0  0  0  0  0  0  0
   -0.3106   -2.5152    0.0000 C   0  0  0  0  0  0  0  0  0  0  0  0
    0.3951   -3.8389    0.0000 C   0  0  0  0  0  0  0  0  0  0  0  0
    1.8720   -3.5767    0.0000 C   0  0  0  0  0  0  0  0  0  0  0  0
    2.0791   -2.0911    0.0000 C   0  0  0  0  0  0  0  0  0  0  0  0
    3.3217   -1.2509    0.0000 C   0  0  0  0  0  0  0  0  0  0  0  0
    4.6707   -1.9069    0.0000 C   0  0  0  0  0  0  0  0  0  0  0  0
    4.7770   -3.4031    0.0000 O   0  0  0  0  0  0  0  0  0  0  0  0
    5.9133   -1.0667    0.0000 C   0  0  0  0  0  0  0  0  0  0  0  0
    5.8069    0.4296    0.0000 C   0  0  0  0  0  0  0  0  0  0  0  0
    7.0495    1.2698    0.0000 C   0  0  0  0  0  0  0  0  0  0  0  0
    6.9432    2.7660    0.0000 C   0  0  0  0  0  0  0  0  0  0  0  0
    8.1858    3.6062    0.0000 O   0  0  0  0  0  0  0  0  0  0  0  0
    5.5942    3.4220    0.0000 C   0  0  0  0  0  0  0  0  0  0  0  0
    4.3516    2.5818    0.0000 C   0  0  0  0  0  0  0  0  0  0  0  0
    4.4580    1.0856    0.0000 C   0  0  0  0  0  0  0  0  0  0  0  0
    3.1090    1.7416    0.0000 C   0  0  0  0  0  0  0  0  0  0  0  0
    3.2154    0.2454    0.0000 C   0  0  0  0  0  0  0  0  0  0  0  0
    1.8664    0.9014    0.0000 C   0  0  0  0  0  0  0  0  0  0  0  0
    0.6238    0.0612    0.0000 C   0  0  0  0  0  0  0  0  0  0  0  0
   -0.7251    0.7172    0.0000 O   0  0  0  0  0  0  0  0  0  0  0  0
    0.7302   -1.4350    0.0000 C   0  0  0  0  0  0  0  0  0  0  0  0
   -0.6799   -0.9236    0.0000 C   0  0  0  0  0  0  0  0  0  0  0  0
  2  1  1  6
  2  3  1  0
  3  4  1  0
  4  5  1  0
  5  6  2  0
  5  7  1  0
  7  8  1  0
  8  9  2  0
  9 10  1  0
 10 11  2  0
 10 12  1  0
 12 13  1  0
  2 14  1  0
 14 15  1  6
 15 16  1  0
 17 16  1  6
 17 18  1  0
 18 19  1  1
 19 20  1  1
 19 21  1  0
 22 21  1  1
 22 23  1  0
 23 24  1  0
 24 25  1  1
 24 26  1  0
 26 27  1  0
 27 28  1  0
 28 29  1  6
 28 30  1  0
 30 31  1  6
 31 32  1  0
 32 33  1  1
 32 34  1  0
 34 35  1  6
 13  7  2  0
 34 14  1  0
 34 17  1  0
 30 18  1  0
 28 22  1  0
M  END
>  <MS_ID>  (496) 
MS0520

>  <SMILES>  (496) 
C[C@H](CCC(=O)c1ccc(=O)oc1)[C@H]1CC[C@H]2[C@@H]3[C@H](O)C[C@@H]4C[C@H](O)CC[C@]4(C)[C@H]3C[C@H](O)[C@]12C

>  <Structure_dimension>  (496) 
2D

$$$$
MS0521
     RDKit          2D

 27 30  0  0  0  0  0  0  0  0999 V2000
   -5.3897   -1.6258    0.0000 C   0  0  0  0  0  0  0  0  0  0  0  0
   -4.1621   -0.7638    0.0000 C   0  0  0  0  0  0  0  0  0  0  0  0
   -4.2949    0.7303    0.0000 C   0  0  0  0  0  0  0  0  0  0  0  0
   -5.6552    1.3624    0.0000 C   0  0  0  0  0  0  0  0  0  0  0  0
   -5.7879    2.8565    0.0000 C   0  0  0  0  0  0  0  0  0  0  0  0
   -7.1482    3.4887    0.0000 O   0  0  0  0  0  0  0  0  0  0  0  0
   -2.8018   -1.3960    0.0000 C   0  0  0  0  0  0  0  0  0  0  0  0
   -2.5137   -2.8680    0.0000 C   0  0  0  0  0  0  0  0  0  0  0  0
   -1.0246   -3.0489    0.0000 C   0  0  0  0  0  0  0  0  0  0  0  0
   -0.3925   -1.6886    0.0000 C   0  0  0  0  0  0  0  0  0  0  0  0
    1.0414   -1.2481    0.0000 C   0  0  0  0  0  0  0  0  0  0  0  0
    2.1398   -2.2697    0.0000 C   0  0  0  0  0  0  0  0  0  0  0  0
    1.8043   -3.7317    0.0000 O   0  0  0  0  0  0  0  0  0  0  0  0
    3.5736   -1.8292    0.0000 C   0  0  0  0  0  0  0  0  0  0  0  0
    3.9091   -0.3672    0.0000 C   0  0  0  0  0  0  0  0  0  0  0  0
    5.3430    0.0733    0.0000 C   0  0  0  0  0  0  0  0  0  0  0  0
    5.6785    1.5353    0.0000 C   0  0  0  0  0  0  0  0  0  0  0  0
    7.1124    1.9757    0.0000 O   0  0  0  0  0  0  0  0  0  0  0  0
    4.5801    2.5568    0.0000 C   0  0  0  0  0  0  0  0  0  0  0  0
    3.1462    2.1163    0.0000 C   0  0  0  0  0  0  0  0  0  0  0  0
    2.8107    0.6543    0.0000 C   0  0  0  0  0  0  0  0  0  0  0  0
    1.7124    1.6759    0.0000 C   0  0  0  0  0  0  0  0  0  0  0  0
    1.3769    0.2139    0.0000 C   0  0  0  0  0  0  0  0  0  0  0  0
    0.2785    1.2354    0.0000 C   0  0  0  0  0  0  0  0  0  0  0  0
   -1.1554    0.7950    0.0000 C   0  0  0  0  0  0  0  0  0  0  0  0
   -1.4909   -0.6670    0.0000 C   0  0  0  0  0  0  0  0  0  0  0  0
   -2.6900    0.2341    0.0000 C   0  0  0  0  0  0  0  0  0  0  0  0
  2  1  1  6
  2  3  1  0
  3  4  1  0
  4  5  1  0
  5  6  2  0
  2  7  1  0
  7  8  1  6
  8  9  1  0
 10  9  1  6
 10 11  1  0
 11 12  1  1
 12 13  1  6
 12 14  1  0
 15 14  1  1
 15 16  1  0
 16 17  1  0
 17 18  1  1
 17 19  1  0
 19 20  1  0
 20 21  1  0
 21 22  1  6
 21 23  1  0
 23 24  1  6
 24 25  1  0
 25 26  1  0
 26 27  1  6
 26  7  1  0
 26 10  1  0
 23 11  1  0
 21 15  1  0
M  END
>  <MS_ID>  (497) 
MS0521

>  <SMILES>  (497) 
C[C@H](CCC=O)[C@H]1CC[C@H]2[C@@H]3[C@@H](O)C[C@@H]4C[C@H](O)CC[C@]4(C)[C@H]3CC[C@]12C

>  <Structure_dimension>  (497) 
2D

$$$$
MS0522
     RDKit          2D

 33 36  0  0  0  0  0  0  0  0999 V2000
   -6.2027   -1.9081    0.0000 C   0  0  0  0  0  0  0  0  0  0  0  0
   -4.9792   -1.0402    0.0000 C   0  0  0  0  0  0  0  0  0  0  0  0
   -5.1191    0.4533    0.0000 C   0  0  0  0  0  0  0  0  0  0  0  0
   -6.4825    1.0788    0.0000 C   0  0  0  0  0  0  0  0  0  0  0  0
   -6.6223    2.5723    0.0000 C   0  0  0  0  0  0  0  0  0  0  0  0
   -5.3989    3.4402    0.0000 O   0  0  0  0  0  0  0  0  0  0  0  0
   -7.9857    3.1979    0.0000 O   0  0  0  0  0  0  0  0  0  0  0  0
   -3.6159   -1.6658    0.0000 C   0  0  0  0  0  0  0  0  0  0  0  0
   -3.3207   -3.1364    0.0000 C   0  0  0  0  0  0  0  0  0  0  0  0
   -1.8308   -3.3101    0.0000 C   0  0  0  0  0  0  0  0  0  0  0  0
   -1.2052   -1.9468    0.0000 C   0  0  0  0  0  0  0  0  0  0  0  0
    0.2265   -1.4995    0.0000 C   0  0  0  0  0  0  0  0  0  0  0  0
    1.3298   -2.5157    0.0000 C   0  0  0  0  0  0  0  0  0  0  0  0
    1.0014   -3.9793    0.0000 O   0  0  0  0  0  0  0  0  0  0  0  0
    2.7616   -2.0684    0.0000 C   0  0  0  0  0  0  0  0  0  0  0  0
    3.0900   -0.6048    0.0000 C   0  0  0  0  0  0  0  0  0  0  0  0
    4.5218   -0.1574    0.0000 C   0  0  0  0  0  0  0  0  0  0  0  0
    4.8502    1.3061    0.0000 C   0  0  0  0  0  0  0  0  0  0  0  0
    6.2820    1.7535    0.0000 O   0  0  0  0  0  0  0  0  0  0  0  0
    7.3853    0.7372    0.0000 S   0  0  0  0  0  0  0  0  0  0  0  0
    6.3690   -0.3660    0.0000 O   0  0  0  0  0  0  0  0  0  0  0  0
    8.4015    1.8405    0.0000 O   0  0  0  0  0  0  0  0  0  0  0  0
    8.4885   -0.2790    0.0000 O   0  0  0  0  0  0  0  0  0  0  0  0
    3.7470    2.3224    0.0000 C   0  0  0  0  0  0  0  0  0  0  0  0
    2.3152    1.8751    0.0000 C   0  0  0  0  0  0  0  0  0  0  0  0
    1.9868    0.4115    0.0000 C   0  0  0  0  0  0  0  0  0  0  0  0
    0.8835    1.4277    0.0000 C   0  0  0  0  0  0  0  0  0  0  0  0
    0.5550   -0.0359    0.0000 C   0  0  0  0  0  0  0  0  0  0  0  0
   -0.5483    0.9804    0.0000 C   0  0  0  0  0  0  0  0  0  0  0  0
   -1.9800    0.5330    0.0000 C   0  0  0  0  0  0  0  0  0  0  0  0
   -3.0833    1.5493    0.0000 O   0  0  0  0  0  0  0  0  0  0  0  0
   -2.3085   -0.9305    0.0000 C   0  0  0  0  0  0  0  0  0  0  0  0
   -3.5119   -0.0352    0.0000 C   0  0  0  0  0  0  0  0  0  0  0  0
  2  1  1  6
  2  3  1  0
  3  4  1  0
  4  5  1  0
  5  6  2  0
  5  7  1  0
  2  8  1  0
  8  9  1  6
  9 10  1  0
 11 10  1  6
 11 12  1  0
 12 13  1  1
 13 14  1  1
 13 15  1  0
 16 15  1  1
 16 17  1  0
 17 18  1  0
 18 19  1  6
 19 20  1  0
 20 21  2  0
 20 22  2  0
 20 23  1  0
 18 24  1  0
 24 25  1  0
 25 26  1  0
 26 27  1  6
 26 28  1  0
 28 29  1  6
 29 30  1  0
 30 31  1  1
 30 32  1  0
 32 33  1  6
 32  8  1  0
 32 11  1  0
 28 12  1  0
 26 16  1  0
M  END
>  <MS_ID>  (498) 
MS0522

>  <SMILES>  (498) 
C[C@H](CCC(=O)O)[C@H]1CC[C@H]2[C@@H]3[C@H](O)C[C@@H]4C[C@@H](OS(=O)(=O)O)CC[C@]4(C)[C@H]3C[C@H](O)[C@]12C

>  <Structure_dimension>  (498) 
2D

$$$$
MS0523
     RDKit          2D

 36 40  0  0  0  0  0  0  0  0999 V2000
   -1.8126   -4.4420    0.0000 C   0  0  0  0  0  0  0  0  0  0  0  0
   -1.1323   -3.1052    0.0000 C   0  0  0  0  0  0  0  0  0  0  0  0
   -1.9499   -1.8476    0.0000 C   0  0  0  0  0  0  0  0  0  0  0  0
   -3.4478   -1.9269    0.0000 C   0  0  0  0  0  0  0  0  0  0  0  0
   -4.2654   -0.6693    0.0000 C   0  0  0  0  0  0  0  0  0  0  0  0
   -3.5851    0.6676    0.0000 O   0  0  0  0  0  0  0  0  0  0  0  0
   -5.7633   -0.7486    0.0000 N   0  0  0  0  0  0  0  0  0  0  0  0
   -6.5809    0.5090    0.0000 C   0  0  0  0  0  0  0  0  0  0  0  0
   -5.9006    1.8459    0.0000 C   0  0  0  0  0  0  0  0  0  0  0  0
   -6.7182    3.1035    0.0000 C   0  0  0  0  0  0  0  0  0  0  0  0
   -8.2162    3.0242    0.0000 C   0  0  0  0  0  0  0  0  0  0  0  0
   -8.8964    1.6873    0.0000 C   0  0  0  0  0  0  0  0  0  0  0  0
  -10.3943    1.6080    0.0000 O   0  0  0  0  0  0  0  0  0  0  0  0
   -8.0788    0.4297    0.0000 C   0  0  0  0  0  0  0  0  0  0  0  0
    0.3656   -3.0259    0.0000 C   0  0  0  0  0  0  0  0  0  0  0  0
    1.3102   -4.1911    0.0000 C   0  0  0  0  0  0  0  0  0  0  0  0
    2.7103   -3.6528    0.0000 C   0  0  0  0  0  0  0  0  0  0  0  0
    2.6310   -2.1549    0.0000 C   0  0  0  0  0  0  0  0  0  0  0  0
    3.6911   -1.0937    0.0000 C   0  0  0  0  0  0  0  0  0  0  0  0
    5.1402   -1.4812    0.0000 C   0  0  0  0  0  0  0  0  0  0  0  0
    5.5292   -2.9299    0.0000 O   0  0  0  0  0  0  0  0  0  0  0  0
    6.2003   -0.4200    0.0000 C   0  0  0  0  0  0  0  0  0  0  0  0
    5.8113    1.0287    0.0000 C   0  0  0  0  0  0  0  0  0  0  0  0
    6.8714    2.0899    0.0000 C   0  0  0  0  0  0  0  0  0  0  0  0
    6.4825    3.5386    0.0000 C   0  0  0  0  0  0  0  0  0  0  0  0
    7.5426    4.5998    0.0000 O   0  0  0  0  0  0  0  0  0  0  0  0
    5.0334    3.9261    0.0000 C   0  0  0  0  0  0  0  0  0  0  0  0
    3.9733    2.8649    0.0000 C   0  0  0  0  0  0  0  0  0  0  0  0
    4.3622    1.4162    0.0000 C   0  0  0  0  0  0  0  0  0  0  0  0
    2.9132    1.8036    0.0000 C   0  0  0  0  0  0  0  0  0  0  0  0
    3.3021    0.3550    0.0000 C   0  0  0  0  0  0  0  0  0  0  0  0
    1.8530    0.7424    0.0000 C   0  0  0  0  0  0  0  0  0  0  0  0
    0.7929   -0.3188    0.0000 C   0  0  0  0  0  0  0  0  0  0  0  0
   -0.6561    0.0687    0.0000 O   0  0  0  0  0  0  0  0  0  0  0  0
    1.1819   -1.7675    0.0000 C   0  0  0  0  0  0  0  0  0  0  0  0
   -0.2997   -1.5336    0.0000 C   0  0  0  0  0  0  0  0  0  0  0  0
  2  1  1  6
  2  3  1  0
  3  4  1  0
  4  5  1  0
  5  6  2  0
  5  7  1  0
  7  8  1  0
  8  9  2  0
  9 10  1  0
 10 11  2  0
 11 12  1  0
 12 13  1  0
 12 14  2  0
  2 15  1  0
 15 16  1  6
 16 17  1  0
 18 17  1  6
 18 19  1  0
 19 20  1  1
 20 21  1  1
 20 22  1  0
 23 22  1  1
 23 24  1  0
 24 25  1  0
 25 26  1  1
 25 27  1  0
 27 28  1  0
 28 29  1  0
 29 30  1  6
 29 31  1  0
 31 32  1  6
 32 33  1  0
 33 34  1  1
 33 35  1  0
 35 36  1  6
 14  8  1  0
 35 15  1  0
 35 18  1  0
 31 19  1  0
 29 23  1  0
M  END
>  <MS_ID>  (499) 
MS0523

>  <SMILES>  (499) 
C[C@H](CCC(=O)Nc1cccc(O)c1)[C@H]1CC[C@H]2[C@@H]3[C@H](O)C[C@@H]4C[C@H](O)CC[C@]4(C)[C@H]3C[C@H](O)[C@]12C

>  <Structure_dimension>  (499) 
2D

$$$$
MS0524
     RDKit          2D

 29 32  0  0  0  0  0  0  0  0999 V2000
   -5.1421   -2.1269    0.0000 C   0  0  0  0  0  0  0  0  0  0  0  0
   -4.0091   -1.1439    0.0000 C   0  0  0  0  0  0  0  0  0  0  0  0
   -4.2938    0.3288    0.0000 C   0  0  0  0  0  0  0  0  0  0  0  0
   -5.7116    0.8186    0.0000 C   0  0  0  0  0  0  0  0  0  0  0  0
   -5.9963    2.2913    0.0000 C   0  0  0  0  0  0  0  0  0  0  0  0
   -4.8632    3.2743    0.0000 O   0  0  0  0  0  0  0  0  0  0  0  0
   -7.4141    2.7811    0.0000 O   0  0  0  0  0  0  0  0  0  0  0  0
   -2.5913   -1.6337    0.0000 C   0  0  0  0  0  0  0  0  0  0  0  0
   -2.1542   -3.0686    0.0000 C   0  0  0  0  0  0  0  0  0  0  0  0
   -0.6544   -3.0963    0.0000 C   0  0  0  0  0  0  0  0  0  0  0  0
   -0.1646   -1.6785    0.0000 C   0  0  0  0  0  0  0  0  0  0  0  0
    1.2167   -1.0938    0.0000 C   0  0  0  0  0  0  0  0  0  0  0  0
    2.4137   -1.9977    0.0000 C   0  0  0  0  0  0  0  0  0  0  0  0
    2.2294   -3.4864    0.0000 C   0  0  0  0  0  0  0  0  0  0  0  0
    3.4265   -4.3903    0.0000 O   0  0  0  0  0  0  0  0  0  0  0  0
    3.7951   -1.4130    0.0000 C   0  0  0  0  0  0  0  0  0  0  0  0
    3.9794    0.0756    0.0000 C   0  0  0  0  0  0  0  0  0  0  0  0
    5.3607    0.6603    0.0000 C   0  0  0  0  0  0  0  0  0  0  0  0
    5.5451    2.1489    0.0000 C   0  0  0  0  0  0  0  0  0  0  0  0
    6.9264    2.7336    0.0000 O   0  0  0  0  0  0  0  0  0  0  0  0
    4.3480    3.0529    0.0000 C   0  0  0  0  0  0  0  0  0  0  0  0
    2.9667    2.4682    0.0000 C   0  0  0  0  0  0  0  0  0  0  0  0
    2.7824    0.9795    0.0000 C   0  0  0  0  0  0  0  0  0  0  0  0
    1.5853    1.8835    0.0000 C   0  0  0  0  0  0  0  0  0  0  0  0
    1.4010    0.3948    0.0000 C   0  0  0  0  0  0  0  0  0  0  0  0
    0.2040    1.2988    0.0000 C   0  0  0  0  0  0  0  0  0  0  0  0
   -1.1774    0.7141    0.0000 C   0  0  0  0  0  0  0  0  0  0  0  0
   -1.3617   -0.7746    0.0000 C   0  0  0  0  0  0  0  0  0  0  0  0
   -2.6467   -0.0007    0.0000 C   0  0  0  0  0  0  0  0  0  0  0  0
  2  1  1  6
  2  3  1  0
  3  4  1  0
  4  5  1  0
  5  6  2  0
  5  7  1  0
  2  8  1  0
  8  9  1  6
  9 10  1  0
 11 10  1  6
 11 12  1  0
 12 13  1  1
 13 14  1  1
 14 15  1  0
 13 16  1  0
 17 16  1  1
 17 18  1  0
 18 19  1  0
 19 20  1  1
 19 21  1  0
 21 22  1  0
 22 23  1  0
 23 24  1  6
 23 25  1  0
 25 26  1  6
 26 27  1  0
 27 28  1  0
 28 29  1  6
 28  8  1  0
 28 11  1  0
 25 12  1  0
 23 17  1  0
M  END
>  <MS_ID>  (500) 
MS0524

>  <SMILES>  (500) 
C[C@H](CCC(=O)O)[C@H]1CC[C@H]2[C@@H]3[C@H](CO)C[C@@H]4C[C@H](O)CC[C@]4(C)[C@H]3CC[C@]12C

>  <Structure_dimension>  (500) 
2D

$$$$
MS0525
     RDKit          2D

 28 31  0  0  0  0  0  0  0  0999 V2000
   -5.1275   -2.0302    0.0000 C   0  0  0  0  0  0  0  0  0  0  0  0
   -3.9468   -1.1050    0.0000 C   0  0  0  0  0  0  0  0  0  0  0  0
   -4.1576    0.3801    0.0000 C   0  0  0  0  0  0  0  0  0  0  0  0
   -5.5492    0.9401    0.0000 C   0  0  0  0  0  0  0  0  0  0  0  0
   -5.7600    2.4252    0.0000 C   0  0  0  0  0  0  0  0  0  0  0  0
   -4.5793    3.3503    0.0000 O   0  0  0  0  0  0  0  0  0  0  0  0
   -7.1516    2.9851    0.0000 O   0  0  0  0  0  0  0  0  0  0  0  0
   -2.5552   -1.6650    0.0000 C   0  0  0  0  0  0  0  0  0  0  0  0
   -2.1903   -3.1199    0.0000 C   0  0  0  0  0  0  0  0  0  0  0  0
   -0.6938   -3.2225    0.0000 C   0  0  0  0  0  0  0  0  0  0  0  0
   -0.1339   -1.8309    0.0000 C   0  0  0  0  0  0  0  0  0  0  0  0
    1.2750   -1.3159    0.0000 C   0  0  0  0  0  0  0  0  0  0  0  0
    2.4254   -2.2785    0.0000 C   0  0  0  0  0  0  0  0  0  0  0  0
    2.1670   -3.7560    0.0000 S   0  0  0  0  0  0  0  0  0  0  0  0
    3.8342   -1.7635    0.0000 C   0  0  0  0  0  0  0  0  0  0  0  0
    4.0926   -0.2859    0.0000 C   0  0  0  0  0  0  0  0  0  0  0  0
    5.5014    0.2291    0.0000 C   0  0  0  0  0  0  0  0  0  0  0  0
    5.7598    1.7067    0.0000 C   0  0  0  0  0  0  0  0  0  0  0  0
    7.1687    2.2217    0.0000 O   0  0  0  0  0  0  0  0  0  0  0  0
    4.6094    2.6692    0.0000 C   0  0  0  0  0  0  0  0  0  0  0  0
    3.2006    2.1542    0.0000 C   0  0  0  0  0  0  0  0  0  0  0  0
    2.9422    0.6767    0.0000 C   0  0  0  0  0  0  0  0  0  0  0  0
    1.7918    1.6392    0.0000 C   0  0  0  0  0  0  0  0  0  0  0  0
    1.5334    0.1617    0.0000 C   0  0  0  0  0  0  0  0  0  0  0  0
    0.3830    1.1242    0.0000 C   0  0  0  0  0  0  0  0  0  0  0  0
   -1.0259    0.6093    0.0000 C   0  0  0  0  0  0  0  0  0  0  0  0
   -1.2843   -0.8683    0.0000 C   0  0  0  0  0  0  0  0  0  0  0  0
   -2.5290   -0.0313    0.0000 C   0  0  0  0  0  0  0  0  0  0  0  0
  2  1  1  6
  2  3  1  0
  3  4  1  0
  4  5  1  0
  5  6  2  0
  5  7  1  0
  2  8  1  0
  8  9  1  6
  9 10  1  0
 11 10  1  6
 11 12  1  0
 12 13  1  1
 13 14  1  1
 13 15  1  0
 16 15  1  1
 16 17  1  0
 17 18  1  0
 18 19  1  1
 18 20  1  0
 20 21  1  0
 21 22  1  0
 22 23  1  6
 22 24  1  0
 24 25  1  6
 25 26  1  0
 26 27  1  0
 27 28  1  6
 27  8  1  0
 27 11  1  0
 24 12  1  0
 22 16  1  0
M  END
>  <MS_ID>  (501) 
MS0525

>  <SMILES>  (501) 
C[C@H](CCC(=O)O)[C@H]1CC[C@H]2[C@@H]3[C@H](S)C[C@@H]4C[C@H](O)CC[C@]4(C)[C@H]3CC[C@]12C

>  <Structure_dimension>  (501) 
2D

$$$$
MS0526
     RDKit          2D

 33 36  0  0  0  0  0  0  0  0999 V2000
   -5.5846   -2.5654    0.0000 C   0  0  0  0  0  0  0  0  0  0  0  0
   -4.4205   -1.6194    0.0000 C   0  0  0  0  0  0  0  0  0  0  0  0
   -4.6579   -0.1383    0.0000 C   0  0  0  0  0  0  0  0  0  0  0  0
   -6.0592    0.3968    0.0000 C   0  0  0  0  0  0  0  0  0  0  0  0
   -6.2965    1.8779    0.0000 C   0  0  0  0  0  0  0  0  0  0  0  0
   -5.1325    2.8240    0.0000 O   0  0  0  0  0  0  0  0  0  0  0  0
   -7.6979    2.4129    0.0000 N   0  0  0  0  0  0  0  0  0  0  0  0
   -7.9352    3.8940    0.0000 C   0  0  0  0  0  0  0  0  0  0  0  0
   -8.8619    1.4668    0.0000 C   0  0  0  0  0  0  0  0  0  0  0  0
   -3.0192   -2.1544    0.0000 C   0  0  0  0  0  0  0  0  0  0  0  0
   -2.6284   -3.6026    0.0000 C   0  0  0  0  0  0  0  0  0  0  0  0
   -1.1303   -3.6784    0.0000 C   0  0  0  0  0  0  0  0  0  0  0  0
   -0.5953   -2.2770    0.0000 C   0  0  0  0  0  0  0  0  0  0  0  0
    0.8041   -1.7370    0.0000 C   0  0  0  0  0  0  0  0  0  0  0  0
    1.9716   -2.6789    0.0000 C   0  0  0  0  0  0  0  0  0  0  0  0
    3.3710   -2.1388    0.0000 C   0  0  0  0  0  0  0  0  0  0  0  0
    3.6029   -0.6568    0.0000 C   0  0  0  0  0  0  0  0  0  0  0  0
    5.0023   -0.1167    0.0000 C   0  0  0  0  0  0  0  0  0  0  0  0
    5.2343    1.3652    0.0000 C   0  0  0  0  0  0  0  0  0  0  0  0
    6.6337    1.9053    0.0000 O   0  0  0  0  0  0  0  0  0  0  0  0
    7.8011    0.9634    0.0000 S   0  0  0  0  0  0  0  0  0  0  0  0
    6.8593   -0.2040    0.0000 O   0  0  0  0  0  0  0  0  0  0  0  0
    8.7430    2.1308    0.0000 O   0  0  0  0  0  0  0  0  0  0  0  0
    8.9686    0.0215    0.0000 O   0  0  0  0  0  0  0  0  0  0  0  0
    4.0669    2.3071    0.0000 C   0  0  0  0  0  0  0  0  0  0  0  0
    2.6675    1.7670    0.0000 C   0  0  0  0  0  0  0  0  0  0  0  0
    2.4355    0.2851    0.0000 C   0  0  0  0  0  0  0  0  0  0  0  0
    1.2681    1.2269    0.0000 C   0  0  0  0  0  0  0  0  0  0  0  0
    1.0361   -0.2550    0.0000 C   0  0  0  0  0  0  0  0  0  0  0  0
   -0.1313    0.6869    0.0000 C   0  0  0  0  0  0  0  0  0  0  0  0
   -1.5307    0.1468    0.0000 C   0  0  0  0  0  0  0  0  0  0  0  0
   -1.7627   -1.3352    0.0000 C   0  0  0  0  0  0  0  0  0  0  0  0
   -3.0222   -0.5205    0.0000 C   0  0  0  0  0  0  0  0  0  0  0  0
  2  1  1  6
  2  3  1  0
  3  4  1  0
  4  5  1  0
  5  6  2  0
  5  7  1  0
  7  8  1  0
  7  9  1  0
  2 10  1  0
 10 11  1  6
 11 12  1  0
 13 12  1  6
 13 14  1  0
 14 15  1  1
 15 16  1  0
 17 16  1  1
 17 18  1  0
 18 19  1  0
 19 20  1  1
 20 21  1  0
 21 22  2  0
 21 23  2  0
 21 24  1  0
 19 25  1  0
 25 26  1  0
 26 27  1  0
 27 28  1  6
 27 29  1  0
 29 30  1  6
 30 31  1  0
 31 32  1  0
 32 33  1  6
 32 10  1  0
 32 13  1  0
 29 14  1  0
 27 17  1  0
M  END
>  <MS_ID>  (502) 
MS0526

>  <SMILES>  (502) 
C[C@H](CCC(=O)N(C)C)[C@H]1CC[C@H]2[C@@H]3CC[C@@H]4C[C@H](OS(=O)(=O)O)CC[C@]4(C)[C@H]3CC[C@]12C

>  <Structure_dimension>  (502) 
2D

$$$$
MS0527
     RDKit          2D

 34 37  0  0  0  0  0  0  0  0999 V2000
   -3.3921   -3.0855    0.0000 C   0  0  0  0  0  0  0  0  0  0  0  0
   -2.4072   -1.9541    0.0000 C   0  0  0  0  0  0  0  0  0  0  0  0
   -2.8947   -0.5355    0.0000 C   0  0  0  0  0  0  0  0  0  0  0  0
   -4.3669   -0.2483    0.0000 C   0  0  0  0  0  0  0  0  0  0  0  0
   -4.8543    1.1703    0.0000 C   0  0  0  0  0  0  0  0  0  0  0  0
   -3.8695    2.3017    0.0000 O   0  0  0  0  0  0  0  0  0  0  0  0
   -6.3266    1.4575    0.0000 N   0  0  0  0  0  0  0  0  0  0  0  0
   -6.8140    2.8761    0.0000 C   0  0  0  0  0  0  0  0  0  0  0  0
   -7.3114    0.3261    0.0000 C   0  0  0  0  0  0  0  0  0  0  0  0
   -8.7837    0.6133    0.0000 C   0  0  0  0  0  0  0  0  0  0  0  0
   -9.2711    2.0319    0.0000 O   0  0  0  0  0  0  0  0  0  0  0  0
   -9.7685   -0.5182    0.0000 O   0  0  0  0  0  0  0  0  0  0  0  0
   -0.9350   -2.2413    0.0000 C   0  0  0  0  0  0  0  0  0  0  0  0
   -0.3020   -3.6012    0.0000 C   0  0  0  0  0  0  0  0  0  0  0  0
    1.1870   -3.4194    0.0000 C   0  0  0  0  0  0  0  0  0  0  0  0
    1.4742   -1.9471    0.0000 C   0  0  0  0  0  0  0  0  0  0  0  0
    2.7604   -1.1754    0.0000 C   0  0  0  0  0  0  0  0  0  0  0  0
    4.0719   -1.9035    0.0000 C   0  0  0  0  0  0  0  0  0  0  0  0
    4.0970   -3.4033    0.0000 O   0  0  0  0  0  0  0  0  0  0  0  0
    5.3581   -1.1318    0.0000 C   0  0  0  0  0  0  0  0  0  0  0  0
    6.6696   -1.8599    0.0000 O   0  0  0  0  0  0  0  0  0  0  0  0
    5.3330    0.3680    0.0000 C   0  0  0  0  0  0  0  0  0  0  0  0
    6.6192    1.1397    0.0000 C   0  0  0  0  0  0  0  0  0  0  0  0
    6.5940    2.6394    0.0000 C   0  0  0  0  0  0  0  0  0  0  0  0
    7.8803    3.4111    0.0000 O   0  0  0  0  0  0  0  0  0  0  0  0
    5.2826    3.3675    0.0000 C   0  0  0  0  0  0  0  0  0  0  0  0
    3.9963    2.5958    0.0000 C   0  0  0  0  0  0  0  0  0  0  0  0
    4.0215    1.0960    0.0000 C   0  0  0  0  0  0  0  0  0  0  0  0
    2.7101    1.8241    0.0000 C   0  0  0  0  0  0  0  0  0  0  0  0
    2.7352    0.3243    0.0000 C   0  0  0  0  0  0  0  0  0  0  0  0
    1.4238    1.0524    0.0000 C   0  0  0  0  0  0  0  0  0  0  0  0
    0.1375    0.2807    0.0000 C   0  0  0  0  0  0  0  0  0  0  0  0
    0.1627   -1.2191    0.0000 C   0  0  0  0  0  0  0  0  0  0  0  0
   -1.2177   -0.6320    0.0000 C   0  0  0  0  0  0  0  0  0  0  0  0
  2  1  1  6
  2  3  1  0
  3  4  1  0
  4  5  1  0
  5  6  2  0
  5  7  1  0
  7  8  1  0
  7  9  1  0
  9 10  1  0
 10 11  2  0
 10 12  1  0
  2 13  1  0
 13 14  1  6
 14 15  1  0
 16 15  1  6
 16 17  1  0
 17 18  1  1
 18 19  1  1
 18 20  1  0
 20 21  1  1
 20 22  1  0
 22 23  1  1
 23 24  1  0
 24 25  1  1
 24 26  1  0
 26 27  1  0
 27 28  1  0
 28 29  1  6
 28 30  1  0
 30 31  1  6
 31 32  1  0
 32 33  1  0
 33 34  1  6
 33 13  1  0
 33 16  1  0
 30 17  1  0
 28 22  1  0
M  END
>  <MS_ID>  (503) 
MS0527

>  <SMILES>  (503) 
C[C@H](CCC(=O)N(C)CC(=O)O)[C@H]1CC[C@H]2[C@@H]3[C@H](O)[C@H](O)[C@@H]4C[C@H](O)CC[C@]4(C)[C@H]3CC[C@]12C

>  <Structure_dimension>  (503) 
2D

$$$$
MS0528
     RDKit          2D

 35 39  0  0  0  0  0  0  0  0999 V2000
   -1.7226   -4.5748    0.0000 C   0  0  0  0  0  0  0  0  0  0  0  0
   -1.0860   -3.2166    0.0000 C   0  0  0  0  0  0  0  0  0  0  0  0
   -1.9441   -1.9862    0.0000 C   0  0  0  0  0  0  0  0  0  0  0  0
   -3.4386   -2.1141    0.0000 C   0  0  0  0  0  0  0  0  0  0  0  0
   -4.2966   -0.8837    0.0000 C   0  0  0  0  0  0  0  0  0  0  0  0
   -3.6601    0.4746    0.0000 O   0  0  0  0  0  0  0  0  0  0  0  0
   -5.7911   -1.0116    0.0000 N   0  0  0  0  0  0  0  0  0  0  0  0
   -6.6492    0.2188    0.0000 C   0  0  0  0  0  0  0  0  0  0  0  0
   -6.0126    1.5771    0.0000 C   0  0  0  0  0  0  0  0  0  0  0  0
   -6.8706    2.8074    0.0000 C   0  0  0  0  0  0  0  0  0  0  0  0
   -8.3652    2.6796    0.0000 C   0  0  0  0  0  0  0  0  0  0  0  0
   -9.2232    3.9099    0.0000 F   0  0  0  0  0  0  0  0  0  0  0  0
   -9.0017    1.3213    0.0000 C   0  0  0  0  0  0  0  0  0  0  0  0
   -8.1437    0.0909    0.0000 C   0  0  0  0  0  0  0  0  0  0  0  0
    0.4085   -3.0887    0.0000 C   0  0  0  0  0  0  0  0  0  0  0  0
    1.3904   -4.2226    0.0000 C   0  0  0  0  0  0  0  0  0  0  0  0
    2.7723   -3.6392    0.0000 C   0  0  0  0  0  0  0  0  0  0  0  0
    2.6444   -2.1446    0.0000 C   0  0  0  0  0  0  0  0  0  0  0  0
    3.6695   -1.0496    0.0000 C   0  0  0  0  0  0  0  0  0  0  0  0
    5.1304   -1.3898    0.0000 C   0  0  0  0  0  0  0  0  0  0  0  0
    5.5662   -2.8251    0.0000 O   0  0  0  0  0  0  0  0  0  0  0  0
    6.1555   -0.2947    0.0000 C   0  0  0  0  0  0  0  0  0  0  0  0
    5.7197    1.1406    0.0000 C   0  0  0  0  0  0  0  0  0  0  0  0
    6.7448    2.2356    0.0000 C   0  0  0  0  0  0  0  0  0  0  0  0
    6.3090    3.6709    0.0000 C   0  0  0  0  0  0  0  0  0  0  0  0
    7.3341    4.7660    0.0000 O   0  0  0  0  0  0  0  0  0  0  0  0
    4.8481    4.0112    0.0000 C   0  0  0  0  0  0  0  0  0  0  0  0
    3.8230    2.9161    0.0000 C   0  0  0  0  0  0  0  0  0  0  0  0
    4.2588    1.4808    0.0000 C   0  0  0  0  0  0  0  0  0  0  0  0
    2.7979    1.8210    0.0000 C   0  0  0  0  0  0  0  0  0  0  0  0
    3.2337    0.3857    0.0000 C   0  0  0  0  0  0  0  0  0  0  0  0
    1.7728    0.7259    0.0000 C   0  0  0  0  0  0  0  0  0  0  0  0
    0.7477   -0.3691    0.0000 C   0  0  0  0  0  0  0  0  0  0  0  0
    1.1835   -1.8044    0.0000 C   0  0  0  0  0  0  0  0  0  0  0  0
   -0.3050   -1.6188    0.0000 C   0  0  0  0  0  0  0  0  0  0  0  0
  2  1  1  6
  2  3  1  0
  3  4  1  0
  4  5  1  0
  5  6  2  0
  5  7  1  0
  7  8  1  0
  8  9  2  0
  9 10  1  0
 10 11  2  0
 11 12  1  0
 11 13  1  0
 13 14  2  0
  2 15  1  0
 15 16  1  6
 16 17  1  0
 18 17  1  6
 18 19  1  0
 19 20  1  1
 20 21  1  1
 20 22  1  0
 23 22  1  1
 23 24  1  0
 24 25  1  0
 25 26  1  1
 25 27  1  0
 27 28  1  0
 28 29  1  0
 29 30  1  6
 29 31  1  0
 31 32  1  6
 32 33  1  0
 33 34  1  0
 34 35  1  6
 14  8  1  0
 34 15  1  0
 34 18  1  0
 31 19  1  0
 29 23  1  0
M  END
>  <MS_ID>  (504) 
MS0528

>  <SMILES>  (504) 
C[C@H](CCC(=O)Nc1ccc(F)cc1)[C@H]1CC[C@H]2[C@@H]3[C@H](O)C[C@@H]4C[C@H](O)CC[C@]4(C)[C@H]3CC[C@]12C

>  <Structure_dimension>  (504) 
2D

$$$$
MS0529
     RDKit          2D

 33 36  0  0  0  0  0  0  0  0999 V2000
   -7.4552   -1.0293    0.0000 C   0  0  0  0  0  0  0  0  0  0  0  0
   -6.1063   -1.6854    0.0000 C   0  0  0  0  0  0  0  0  0  0  0  0
   -4.8636   -0.8453    0.0000 C   0  0  0  0  0  0  0  0  0  0  0  0
   -4.9699    0.6510    0.0000 C   0  0  0  0  0  0  0  0  0  0  0  0
   -6.3188    1.3070    0.0000 C   0  0  0  0  0  0  0  0  0  0  0  0
   -6.4251    2.8033    0.0000 C   0  0  0  0  0  0  0  0  0  0  0  0
   -5.1825    3.6434    0.0000 O   0  0  0  0  0  0  0  0  0  0  0  0
   -7.7740    3.4593    0.0000 O   0  0  0  0  0  0  0  0  0  0  0  0
   -3.5147   -1.5013    0.0000 C   0  0  0  0  0  0  0  0  0  0  0  0
   -3.2526   -2.9783    0.0000 C   0  0  0  0  0  0  0  0  0  0  0  0
   -1.7670   -3.1854    0.0000 C   0  0  0  0  0  0  0  0  0  0  0  0
   -1.1109   -1.8365    0.0000 C   0  0  0  0  0  0  0  0  0  0  0  0
    0.3305   -1.4214    0.0000 C   0  0  0  0  0  0  0  0  0  0  0  0
    1.4107   -2.4622    0.0000 C   0  0  0  0  0  0  0  0  0  0  0  0
    1.0494   -3.9181    0.0000 O   0  0  0  0  0  0  0  0  0  0  0  0
    2.8521   -2.0472    0.0000 C   0  0  0  0  0  0  0  0  0  0  0  0
    3.2134   -0.5914    0.0000 C   0  0  0  0  0  0  0  0  0  0  0  0
    4.6548   -0.1763    0.0000 C   0  0  0  0  0  0  0  0  0  0  0  0
    5.0161    1.2795    0.0000 C   0  0  0  0  0  0  0  0  0  0  0  0
    6.4575    1.6946    0.0000 O   0  0  0  0  0  0  0  0  0  0  0  0
    7.5377    0.6538    0.0000 S   0  0  0  0  0  0  0  0  0  0  0  0
    6.4969   -0.4264    0.0000 O   0  0  0  0  0  0  0  0  0  0  0  0
    8.5785    1.7339    0.0000 O   0  0  0  0  0  0  0  0  0  0  0  0
    8.6179   -0.3870    0.0000 O   0  0  0  0  0  0  0  0  0  0  0  0
    3.9360    2.3203    0.0000 C   0  0  0  0  0  0  0  0  0  0  0  0
    2.4945    1.9053    0.0000 C   0  0  0  0  0  0  0  0  0  0  0  0
    2.1332    0.4494    0.0000 C   0  0  0  0  0  0  0  0  0  0  0  0
    1.0531    1.4902    0.0000 C   0  0  0  0  0  0  0  0  0  0  0  0
    0.6918    0.0344    0.0000 C   0  0  0  0  0  0  0  0  0  0  0  0
   -0.3884    1.0752    0.0000 C   0  0  0  0  0  0  0  0  0  0  0  0
   -1.8298    0.6602    0.0000 C   0  0  0  0  0  0  0  0  0  0  0  0
   -2.1911   -0.7957    0.0000 C   0  0  0  0  0  0  0  0  0  0  0  0
   -3.3741    0.1265    0.0000 C   0  0  0  0  0  0  0  0  0  0  0  0
  1  2  1  0
  3  2  1  6
  3  4  1  0
  4  5  1  0
  5  6  1  0
  6  7  2  0
  6  8  1  0
  3  9  1  0
  9 10  1  6
 10 11  1  0
 12 11  1  6
 12 13  1  0
 13 14  1  1
 14 15  1  6
 14 16  1  0
 17 16  1  1
 17 18  1  0
 18 19  1  0
 19 20  1  1
 20 21  1  0
 21 22  2  0
 21 23  2  0
 21 24  1  0
 19 25  1  0
 25 26  1  0
 26 27  1  0
 27 28  1  6
 27 29  1  0
 29 30  1  6
 30 31  1  0
 31 32  1  0
 32 33  1  6
 32  9  1  0
 32 12  1  0
 29 13  1  0
 27 17  1  0
M  END
>  <MS_ID>  (505) 
MS0529

>  <SMILES>  (505) 
CC[C@H](CCC(=O)O)[C@H]1CC[C@H]2[C@@H]3[C@@H](O)C[C@@H]4C[C@H](OS(=O)(=O)O)CC[C@]4(C)[C@H]3CC[C@]12C

>  <Structure_dimension>  (505) 
2D

$$$$
MS0530
     RDKit          2D

 27 30  0  0  0  0  0  0  0  0999 V2000
   -5.1023   -2.0364    0.0000 C   0  0  0  0  0  0  0  0  0  0  0  0
   -3.8978   -1.1425    0.0000 C   0  0  0  0  0  0  0  0  0  0  0  0
   -4.0697    0.3476    0.0000 C   0  0  0  0  0  0  0  0  0  0  0  0
   -5.4461    0.9438    0.0000 C   0  0  0  0  0  0  0  0  0  0  0  0
   -5.6180    2.4339    0.0000 C   0  0  0  0  0  0  0  0  0  0  0  0
   -6.9944    3.0301    0.0000 O   0  0  0  0  0  0  0  0  0  0  0  0
   -4.4135    3.3278    0.0000 S   0  0  0  0  0  0  0  0  0  0  0  0
   -2.5213   -1.7387    0.0000 C   0  0  0  0  0  0  0  0  0  0  0  0
   -2.1946   -3.2027    0.0000 C   0  0  0  0  0  0  0  0  0  0  0  0
   -0.7013   -3.3444    0.0000 C   0  0  0  0  0  0  0  0  0  0  0  0
   -0.1051   -1.9679    0.0000 C   0  0  0  0  0  0  0  0  0  0  0  0
    1.3167   -1.4900    0.0000 C   0  0  0  0  0  0  0  0  0  0  0  0
    2.4415   -2.4823    0.0000 C   0  0  0  0  0  0  0  0  0  0  0  0
    3.8633   -2.0044    0.0000 C   0  0  0  0  0  0  0  0  0  0  0  0
    4.1603   -0.5341    0.0000 C   0  0  0  0  0  0  0  0  0  0  0  0
    5.5821   -0.0561    0.0000 C   0  0  0  0  0  0  0  0  0  0  0  0
    5.8791    1.4142    0.0000 C   0  0  0  0  0  0  0  0  0  0  0  0
    7.3009    1.8921    0.0000 O   0  0  0  0  0  0  0  0  0  0  0  0
    4.7543    2.4065    0.0000 C   0  0  0  0  0  0  0  0  0  0  0  0
    3.3325    1.9286    0.0000 C   0  0  0  0  0  0  0  0  0  0  0  0
    3.0355    0.4583    0.0000 C   0  0  0  0  0  0  0  0  0  0  0  0
    1.9107    1.4506    0.0000 C   0  0  0  0  0  0  0  0  0  0  0  0
    1.6137   -0.0197    0.0000 C   0  0  0  0  0  0  0  0  0  0  0  0
    0.4888    0.9727    0.0000 C   0  0  0  0  0  0  0  0  0  0  0  0
   -0.9330    0.4947    0.0000 C   0  0  0  0  0  0  0  0  0  0  0  0
   -1.2300   -0.9756    0.0000 C   0  0  0  0  0  0  0  0  0  0  0  0
   -2.4524   -0.1062    0.0000 C   0  0  0  0  0  0  0  0  0  0  0  0
  2  1  1  6
  2  3  1  0
  3  4  1  0
  4  5  1  0
  5  6  2  0
  5  7  1  0
  2  8  1  0
  8  9  1  6
  9 10  1  0
 11 10  1  6
 11 12  1  0
 12 13  1  1
 13 14  1  0
 15 14  1  1
 15 16  1  0
 16 17  1  0
 17 18  1  1
 17 19  1  0
 19 20  1  0
 20 21  1  0
 21 22  1  6
 21 23  1  0
 23 24  1  6
 24 25  1  0
 25 26  1  0
 26 27  1  6
 26  8  1  0
 26 11  1  0
 23 12  1  0
 21 15  1  0
M  END
>  <MS_ID>  (506) 
MS0530

>  <SMILES>  (506) 
C[C@H](CCC(=O)S)[C@H]1CC[C@H]2[C@@H]3CC[C@@H]4C[C@H](O)CC[C@]4(C)[C@H]3CC[C@]12C

>  <Structure_dimension>  (506) 
2D

$$$$
MS0531
     RDKit          2D

 29 32  0  0  0  0  0  0  0  0999 V2000
   -5.0001   -2.1340    0.0000 C   0  0  0  0  0  0  0  0  0  0  0  0
   -3.8304   -1.1951    0.0000 C   0  0  0  0  0  0  0  0  0  0  0  0
   -4.0586    0.2874    0.0000 C   0  0  0  0  0  0  0  0  0  0  0  0
   -2.8889    1.2264    0.0000 O   0  0  0  0  0  0  0  0  0  0  0  0
   -5.4567    0.8310    0.0000 C   0  0  0  0  0  0  0  0  0  0  0  0
   -5.6849    2.3135    0.0000 C   0  0  0  0  0  0  0  0  0  0  0  0
   -4.5152    3.2525    0.0000 O   0  0  0  0  0  0  0  0  0  0  0  0
   -7.0830    2.8571    0.0000 O   0  0  0  0  0  0  0  0  0  0  0  0
   -2.4323   -1.7387    0.0000 C   0  0  0  0  0  0  0  0  0  0  0  0
   -2.0503   -3.1892    0.0000 C   0  0  0  0  0  0  0  0  0  0  0  0
   -0.5528   -3.2742    0.0000 C   0  0  0  0  0  0  0  0  0  0  0  0
   -0.0092   -1.8761    0.0000 C   0  0  0  0  0  0  0  0  0  0  0  0
    1.3935   -1.3446    0.0000 C   0  0  0  0  0  0  0  0  0  0  0  0
    2.5551   -2.2936    0.0000 C   0  0  0  0  0  0  0  0  0  0  0  0
    2.3141   -3.7741    0.0000 O   0  0  0  0  0  0  0  0  0  0  0  0
    3.9578   -1.7621    0.0000 C   0  0  0  0  0  0  0  0  0  0  0  0
    4.1989   -0.2816    0.0000 C   0  0  0  0  0  0  0  0  0  0  0  0
    5.6015    0.2499    0.0000 C   0  0  0  0  0  0  0  0  0  0  0  0
    5.8426    1.7304    0.0000 C   0  0  0  0  0  0  0  0  0  0  0  0
    7.2452    2.2619    0.0000 O   0  0  0  0  0  0  0  0  0  0  0  0
    4.6809    2.6794    0.0000 C   0  0  0  0  0  0  0  0  0  0  0  0
    3.2782    2.1479    0.0000 C   0  0  0  0  0  0  0  0  0  0  0  0
    3.0372    0.6674    0.0000 C   0  0  0  0  0  0  0  0  0  0  0  0
    1.8756    1.6164    0.0000 C   0  0  0  0  0  0  0  0  0  0  0  0
    1.6345    0.1359    0.0000 C   0  0  0  0  0  0  0  0  0  0  0  0
    0.4729    1.0849    0.0000 C   0  0  0  0  0  0  0  0  0  0  0  0
   -0.9298    0.5534    0.0000 C   0  0  0  0  0  0  0  0  0  0  0  0
   -1.1708   -0.9271    0.0000 C   0  0  0  0  0  0  0  0  0  0  0  0
   -2.4253   -0.1048    0.0000 C   0  0  0  0  0  0  0  0  0  0  0  0
  2  1  1  1
  2  3  1  0
  3  4  1  1
  3  5  1  0
  5  6  1  0
  6  7  2  0
  6  8  1  0
  2  9  1  0
  9 10  1  6
 10 11  1  0
 12 11  1  6
 12 13  1  0
 13 14  1  1
 14 15  1  1
 14 16  1  0
 17 16  1  1
 17 18  1  0
 18 19  1  0
 19 20  1  1
 19 21  1  0
 21 22  1  0
 22 23  1  0
 23 24  1  6
 23 25  1  0
 25 26  1  6
 26 27  1  0
 27 28  1  0
 28 29  1  6
 28  9  1  0
 28 12  1  0
 25 13  1  0
 23 17  1  0
M  END
>  <MS_ID>  (507) 
MS0531

>  <SMILES>  (507) 
C[C@@H]([C@H](O)CC(=O)O)[C@H]1CC[C@H]2[C@@H]3[C@H](O)C[C@@H]4C[C@H](O)CC[C@]4(C)[C@H]3CC[C@]12C

>  <Structure_dimension>  (507) 
2D

$$$$
MS0532
     RDKit          2D

 28 31  0  0  0  0  0  0  0  0999 V2000
   -5.1275   -2.0302    0.0000 C   0  0  0  0  0  0  0  0  0  0  0  0
   -3.9468   -1.1050    0.0000 C   0  0  0  0  0  0  0  0  0  0  0  0
   -4.1576    0.3801    0.0000 C   0  0  0  0  0  0  0  0  0  0  0  0
   -5.5492    0.9401    0.0000 C   0  0  0  0  0  0  0  0  0  0  0  0
   -5.7600    2.4252    0.0000 C   0  0  0  0  0  0  0  0  0  0  0  0
   -4.5793    3.3503    0.0000 O   0  0  0  0  0  0  0  0  0  0  0  0
   -7.1516    2.9851    0.0000 O   0  0  0  0  0  0  0  0  0  0  0  0
   -2.5552   -1.6650    0.0000 C   0  0  0  0  0  0  0  0  0  0  0  0
   -2.1903   -3.1199    0.0000 C   0  0  0  0  0  0  0  0  0  0  0  0
   -0.6938   -3.2225    0.0000 C   0  0  0  0  0  0  0  0  0  0  0  0
   -0.1339   -1.8309    0.0000 C   0  0  0  0  0  0  0  0  0  0  0  0
    1.2750   -1.3159    0.0000 C   0  0  0  0  0  0  0  0  0  0  0  0
    2.4254   -2.2785    0.0000 C   0  0  0  0  0  0  0  0  0  0  0  0
    2.1670   -3.7560    0.0000 S   0  0  0  0  0  0  0  0  0  0  0  0
    3.8342   -1.7635    0.0000 C   0  0  0  0  0  0  0  0  0  0  0  0
    4.0926   -0.2859    0.0000 C   0  0  0  0  0  0  0  0  0  0  0  0
    5.5014    0.2291    0.0000 C   0  0  0  0  0  0  0  0  0  0  0  0
    5.7598    1.7067    0.0000 C   0  0  0  0  0  0  0  0  0  0  0  0
    7.1687    2.2217    0.0000 O   0  0  0  0  0  0  0  0  0  0  0  0
    4.6094    2.6692    0.0000 C   0  0  0  0  0  0  0  0  0  0  0  0
    3.2006    2.1542    0.0000 C   0  0  0  0  0  0  0  0  0  0  0  0
    2.9422    0.6767    0.0000 C   0  0  0  0  0  0  0  0  0  0  0  0
    1.7918    1.6392    0.0000 C   0  0  0  0  0  0  0  0  0  0  0  0
    1.5334    0.1617    0.0000 C   0  0  0  0  0  0  0  0  0  0  0  0
    0.3830    1.1242    0.0000 C   0  0  0  0  0  0  0  0  0  0  0  0
   -1.0259    0.6093    0.0000 C   0  0  0  0  0  0  0  0  0  0  0  0
   -1.2843   -0.8683    0.0000 C   0  0  0  0  0  0  0  0  0  0  0  0
   -2.5290   -0.0313    0.0000 C   0  0  0  0  0  0  0  0  0  0  0  0
  2  1  1  6
  2  3  1  0
  3  4  1  0
  4  5  1  0
  5  6  2  0
  5  7  1  0
  2  8  1  0
  8  9  1  6
  9 10  1  0
 11 10  1  6
 11 12  1  0
 12 13  1  1
 13 14  1  1
 13 15  1  0
 16 15  1  1
 16 17  1  0
 17 18  1  0
 18 19  1  6
 18 20  1  0
 20 21  1  0
 21 22  1  0
 22 23  1  6
 22 24  1  0
 24 25  1  6
 25 26  1  0
 26 27  1  0
 27 28  1  6
 27  8  1  0
 27 11  1  0
 24 12  1  0
 22 16  1  0
M  END
>  <MS_ID>  (508) 
MS0532

>  <SMILES>  (508) 
C[C@H](CCC(=O)O)[C@H]1CC[C@H]2[C@@H]3[C@H](S)C[C@@H]4C[C@@H](O)CC[C@]4(C)[C@H]3CC[C@]12C

>  <Structure_dimension>  (508) 
2D

$$$$
MS0533
     RDKit          2D

 29 32  0  0  0  0  0  0  0  0999 V2000
   -5.0303   -2.1373    0.0000 C   0  0  0  0  0  0  0  0  0  0  0  0
   -3.8594   -1.1998    0.0000 C   0  0  0  0  0  0  0  0  0  0  0  0
   -4.0858    0.2830    0.0000 C   0  0  0  0  0  0  0  0  0  0  0  0
   -5.4831    0.8284    0.0000 C   0  0  0  0  0  0  0  0  0  0  0  0
   -5.7095    2.3112    0.0000 C   0  0  0  0  0  0  0  0  0  0  0  0
   -4.5386    3.2487    0.0000 O   0  0  0  0  0  0  0  0  0  0  0  0
   -7.1069    2.8565    0.0000 O   0  0  0  0  0  0  0  0  0  0  0  0
   -2.4620   -1.7451    0.0000 C   0  0  0  0  0  0  0  0  0  0  0  0
   -2.0818   -3.1961    0.0000 C   0  0  0  0  0  0  0  0  0  0  0  0
   -0.5844   -3.2830    0.0000 C   0  0  0  0  0  0  0  0  0  0  0  0
   -0.0390   -1.8856    0.0000 C   0  0  0  0  0  0  0  0  0  0  0  0
    1.3643   -1.3559    0.0000 C   0  0  0  0  0  0  0  0  0  0  0  0
    2.5248   -2.3063    0.0000 C   0  0  0  0  0  0  0  0  0  0  0  0
    2.2819   -3.7865    0.0000 O   0  0  0  0  0  0  0  0  0  0  0  0
    3.9281   -1.7765    0.0000 C   0  0  0  0  0  0  0  0  0  0  0  0
    4.1710   -0.2963    0.0000 C   0  0  0  0  0  0  0  0  0  0  0  0
    5.5743    0.2334    0.0000 C   0  0  0  0  0  0  0  0  0  0  0  0
    5.8172    1.7136    0.0000 C   0  0  0  0  0  0  0  0  0  0  0  0
    7.2205    2.2434    0.0000 S   0  0  0  0  0  0  0  0  0  0  0  0
    4.6568    2.6641    0.0000 C   0  0  0  0  0  0  0  0  0  0  0  0
    3.2534    2.1343    0.0000 C   0  0  0  0  0  0  0  0  0  0  0  0
    3.0105    0.6541    0.0000 C   0  0  0  0  0  0  0  0  0  0  0  0
    1.8501    1.6046    0.0000 C   0  0  0  0  0  0  0  0  0  0  0  0
    1.6072    0.1244    0.0000 C   0  0  0  0  0  0  0  0  0  0  0  0
    0.4467    1.0748    0.0000 C   0  0  0  0  0  0  0  0  0  0  0  0
   -0.9566    0.5450    0.0000 C   0  0  0  0  0  0  0  0  0  0  0  0
   -2.1170    1.4955    0.0000 O   0  0  0  0  0  0  0  0  0  0  0  0
   -1.1995   -0.9352    0.0000 C   0  0  0  0  0  0  0  0  0  0  0  0
   -2.4529   -0.1112    0.0000 C   0  0  0  0  0  0  0  0  0  0  0  0
  2  1  1  6
  2  3  1  0
  3  4  1  0
  4  5  1  0
  5  6  2  0
  5  7  1  0
  2  8  1  0
  8  9  1  6
  9 10  1  0
 11 10  1  6
 11 12  1  0
 12 13  1  1
 13 14  1  1
 13 15  1  0
 16 15  1  1
 16 17  1  0
 17 18  1  0
 18 19  1  1
 18 20  1  0
 20 21  1  0
 21 22  1  0
 22 23  1  6
 22 24  1  0
 24 25  1  6
 25 26  1  0
 26 27  1  1
 26 28  1  0
 28 29  1  6
 28  8  1  0
 28 11  1  0
 24 12  1  0
 22 16  1  0
M  END
>  <MS_ID>  (509) 
MS0533

>  <SMILES>  (509) 
C[C@H](CCC(=O)O)[C@H]1CC[C@H]2[C@@H]3[C@H](O)C[C@@H]4C[C@H](S)CC[C@]4(C)[C@H]3C[C@H](O)[C@]12C

>  <Structure_dimension>  (509) 
2D

$$$$
MS0534
     RDKit          2D

 35 38  0  0  0  0  0  0  0  0999 V2000
   -2.0200   -4.3028    0.0000 C   0  0  0  0  0  0  0  0  0  0  0  0
   -1.3087   -2.9822    0.0000 C   0  0  0  0  0  0  0  0  0  0  0  0
   -2.0967   -1.7059    0.0000 C   0  0  0  0  0  0  0  0  0  0  0  0
   -3.5960   -1.7502    0.0000 C   0  0  0  0  0  0  0  0  0  0  0  0
   -4.3840   -0.4738    0.0000 C   0  0  0  0  0  0  0  0  0  0  0  0
   -3.6727    0.8468    0.0000 O   0  0  0  0  0  0  0  0  0  0  0  0
   -5.8834   -0.5181    0.0000 C   0  0  0  0  0  0  0  0  0  0  0  0
   -6.6714    0.7582    0.0000 C   0  0  0  0  0  0  0  0  0  0  0  0
   -8.1707    0.7140    0.0000 O   0  0  0  0  0  0  0  0  0  0  0  0
   -8.9588    1.9903    0.0000 S   0  0  0  0  0  0  0  0  0  0  0  0
   -7.6824    2.7783    0.0000 O   0  0  0  0  0  0  0  0  0  0  0  0
  -10.2351    1.2023    0.0000 O   0  0  0  0  0  0  0  0  0  0  0  0
   -9.7468    3.2667    0.0000 O   0  0  0  0  0  0  0  0  0  0  0  0
    0.1907   -2.9379    0.0000 C   0  0  0  0  0  0  0  0  0  0  0  0
    1.1078   -4.1249    0.0000 C   0  0  0  0  0  0  0  0  0  0  0  0
    2.5201   -3.6195    0.0000 C   0  0  0  0  0  0  0  0  0  0  0  0
    2.4758   -2.1201    0.0000 C   0  0  0  0  0  0  0  0  0  0  0  0
    3.5604   -1.0840    0.0000 C   0  0  0  0  0  0  0  0  0  0  0  0
    5.0001   -1.5052    0.0000 C   0  0  0  0  0  0  0  0  0  0  0  0
    5.3551   -2.9626    0.0000 O   0  0  0  0  0  0  0  0  0  0  0  0
    6.0847   -0.4691    0.0000 C   0  0  0  0  0  0  0  0  0  0  0  0
    5.7296    0.9883    0.0000 C   0  0  0  0  0  0  0  0  0  0  0  0
    6.8142    2.0245    0.0000 C   0  0  0  0  0  0  0  0  0  0  0  0
    6.4592    3.4819    0.0000 C   0  0  0  0  0  0  0  0  0  0  0  0
    7.5438    4.5180    0.0000 O   0  0  0  0  0  0  0  0  0  0  0  0
    5.0196    3.9031    0.0000 C   0  0  0  0  0  0  0  0  0  0  0  0
    3.9350    2.8669    0.0000 C   0  0  0  0  0  0  0  0  0  0  0  0
    4.2900    1.4095    0.0000 C   0  0  0  0  0  0  0  0  0  0  0  0
    2.8503    1.8308    0.0000 C   0  0  0  0  0  0  0  0  0  0  0  0
    3.2054    0.3734    0.0000 C   0  0  0  0  0  0  0  0  0  0  0  0
    1.7657    0.7946    0.0000 C   0  0  0  0  0  0  0  0  0  0  0  0
    0.6811   -0.2416    0.0000 C   0  0  0  0  0  0  0  0  0  0  0  0
   -0.7585    0.1797    0.0000 O   0  0  0  0  0  0  0  0  0  0  0  0
    1.0362   -1.6989    0.0000 C   0  0  0  0  0  0  0  0  0  0  0  0
   -0.4396   -1.4305    0.0000 C   0  0  0  0  0  0  0  0  0  0  0  0
  2  1  1  6
  2  3  1  0
  3  4  1  0
  4  5  1  0
  5  6  2  0
  5  7  1  0
  7  8  1  0
  8  9  1  0
  9 10  1  0
 10 11  2  0
 10 12  2  0
 10 13  1  0
  2 14  1  0
 14 15  1  6
 15 16  1  0
 17 16  1  6
 17 18  1  0
 18 19  1  1
 19 20  1  1
 19 21  1  0
 22 21  1  1
 22 23  1  0
 23 24  1  0
 24 25  1  1
 24 26  1  0
 26 27  1  0
 27 28  1  0
 28 29  1  6
 28 30  1  0
 30 31  1  6
 31 32  1  0
 32 33  1  1
 32 34  1  0
 34 35  1  6
 34 14  1  0
 34 17  1  0
 30 18  1  0
 28 22  1  0
M  END
>  <MS_ID>  (510) 
MS0534

>  <SMILES>  (510) 
C[C@H](CCC(=O)CCOS(=O)(=O)O)[C@H]1CC[C@H]2[C@@H]3[C@H](O)C[C@@H]4C[C@H](O)CC[C@]4(C)[C@H]3C[C@H](O)[C@]12C

>  <Structure_dimension>  (510) 
2D

$$$$
MS0535
     RDKit          2D

 37 40  0  0  0  0  0  0  0  0999 V2000
   -4.7016   -3.4975    0.0000 C   0  0  0  0  0  0  0  0  0  0  0  0
   -3.7032   -2.3780    0.0000 C   0  0  0  0  0  0  0  0  0  0  0  0
   -4.1735   -0.9537    0.0000 C   0  0  0  0  0  0  0  0  0  0  0  0
   -5.6422   -0.6488    0.0000 C   0  0  0  0  0  0  0  0  0  0  0  0
   -6.1125    0.7756    0.0000 C   0  0  0  0  0  0  0  0  0  0  0  0
   -5.1141    1.8951    0.0000 O   0  0  0  0  0  0  0  0  0  0  0  0
   -7.5812    1.0805    0.0000 C   0  0  0  0  0  0  0  0  0  0  0  0
   -8.0515    2.5048    0.0000 C   0  0  0  0  0  0  0  0  0  0  0  0
   -9.5202    2.8097    0.0000 C   0  0  0  0  0  0  0  0  0  0  0  0
  -10.5186    1.6903    0.0000 O   0  0  0  0  0  0  0  0  0  0  0  0
   -9.9905    4.2341    0.0000 O   0  0  0  0  0  0  0  0  0  0  0  0
   -2.2345   -2.6829    0.0000 C   0  0  0  0  0  0  0  0  0  0  0  0
   -1.6179   -4.0504    0.0000 C   0  0  0  0  0  0  0  0  0  0  0  0
   -0.1269   -3.8865    0.0000 C   0  0  0  0  0  0  0  0  0  0  0  0
    0.1780   -2.4178    0.0000 C   0  0  0  0  0  0  0  0  0  0  0  0
    1.4734   -1.6616    0.0000 C   0  0  0  0  0  0  0  0  0  0  0  0
    2.7760   -2.4055    0.0000 C   0  0  0  0  0  0  0  0  0  0  0  0
    2.7831   -3.9054    0.0000 O   0  0  0  0  0  0  0  0  0  0  0  0
    4.0715   -1.6493    0.0000 C   0  0  0  0  0  0  0  0  0  0  0  0
    5.3741   -2.3931    0.0000 O   0  0  0  0  0  0  0  0  0  0  0  0
    4.0644   -0.1493    0.0000 C   0  0  0  0  0  0  0  0  0  0  0  0
    5.3598    0.6068    0.0000 C   0  0  0  0  0  0  0  0  0  0  0  0
    5.3527    2.1068    0.0000 C   0  0  0  0  0  0  0  0  0  0  0  0
    6.6482    2.8630    0.0000 O   0  0  0  0  0  0  0  0  0  0  0  0
    7.9508    2.1192    0.0000 S   0  0  0  0  0  0  0  0  0  0  0  0
    7.2069    0.8166    0.0000 O   0  0  0  0  0  0  0  0  0  0  0  0
    8.6946    3.4218    0.0000 O   0  0  0  0  0  0  0  0  0  0  0  0
    9.2533    1.3753    0.0000 O   0  0  0  0  0  0  0  0  0  0  0  0
    4.0501    2.8507    0.0000 C   0  0  0  0  0  0  0  0  0  0  0  0
    2.7547    2.0945    0.0000 C   0  0  0  0  0  0  0  0  0  0  0  0
    2.7618    0.5945    0.0000 C   0  0  0  0  0  0  0  0  0  0  0  0
    1.4592    1.3383    0.0000 C   0  0  0  0  0  0  0  0  0  0  0  0
    1.4663   -0.1616    0.0000 C   0  0  0  0  0  0  0  0  0  0  0  0
    0.1637    0.5822    0.0000 C   0  0  0  0  0  0  0  0  0  0  0  0
   -1.1317   -0.1740    0.0000 C   0  0  0  0  0  0  0  0  0  0  0  0
   -1.1246   -1.6740    0.0000 C   0  0  0  0  0  0  0  0  0  0  0  0
   -2.4978   -1.0704    0.0000 C   0  0  0  0  0  0  0  0  0  0  0  0
  2  1  1  6
  2  3  1  0
  3  4  1  0
  4  5  1  0
  5  6  2  0
  5  7  1  0
  7  8  1  0
  8  9  1  0
  9 10  2  0
  9 11  1  0
  2 12  1  0
 12 13  1  6
 13 14  1  0
 15 14  1  6
 15 16  1  0
 16 17  1  1
 17 18  1  1
 17 19  1  0
 19 20  1  1
 19 21  1  0
 21 22  1  1
 22 23  1  0
 23 24  1  1
 24 25  1  0
 25 26  2  0
 25 27  2  0
 25 28  1  0
 23 29  1  0
 29 30  1  0
 30 31  1  0
 31 32  1  6
 31 33  1  0
 33 34  1  6
 34 35  1  0
 35 36  1  0
 36 37  1  6
 36 12  1  0
 36 15  1  0
 33 16  1  0
 31 21  1  0
M  END
>  <MS_ID>  (511) 
MS0535

>  <SMILES>  (511) 
C[C@H](CCC(=O)CCC(=O)O)[C@H]1CC[C@H]2[C@@H]3[C@H](O)[C@H](O)[C@@H]4C[C@H](OS(=O)(=O)O)CC[C@]4(C)[C@H]3CC[C@]12C

>  <Structure_dimension>  (511) 
2D

$$$$
MS0536
     RDKit          2D

 32 35  0  0  0  0  0  0  0  0999 V2000
   -6.4291   -1.5822    0.0000 C   0  0  0  0  0  0  0  0  0  0  0  0
   -5.1768   -0.7566    0.0000 C   0  0  0  0  0  0  0  0  0  0  0  0
   -5.2656    0.7408    0.0000 C   0  0  0  0  0  0  0  0  0  0  0  0
   -6.6068    1.4125    0.0000 C   0  0  0  0  0  0  0  0  0  0  0  0
   -6.6957    2.9099    0.0000 C   0  0  0  0  0  0  0  0  0  0  0  0
   -8.0369    3.5816    0.0000 O   0  0  0  0  0  0  0  0  0  0  0  0
   -3.8356   -1.4283    0.0000 C   0  0  0  0  0  0  0  0  0  0  0  0
   -3.5907   -2.9082    0.0000 C   0  0  0  0  0  0  0  0  0  0  0  0
   -2.1076   -3.1326    0.0000 C   0  0  0  0  0  0  0  0  0  0  0  0
   -1.4359   -1.7914    0.0000 C   0  0  0  0  0  0  0  0  0  0  0  0
    0.0103   -1.3931    0.0000 C   0  0  0  0  0  0  0  0  0  0  0  0
    1.0783   -2.4464    0.0000 C   0  0  0  0  0  0  0  0  0  0  0  0
    0.7001   -3.8980    0.0000 O   0  0  0  0  0  0  0  0  0  0  0  0
    2.5245   -2.0482    0.0000 C   0  0  0  0  0  0  0  0  0  0  0  0
    2.9027   -0.5966    0.0000 C   0  0  0  0  0  0  0  0  0  0  0  0
    4.3488   -0.1984    0.0000 C   0  0  0  0  0  0  0  0  0  0  0  0
    4.7270    1.2531    0.0000 C   0  0  0  0  0  0  0  0  0  0  0  0
    6.1732    1.6514    0.0000 O   0  0  0  0  0  0  0  0  0  0  0  0
    7.2412    0.5981    0.0000 S   0  0  0  0  0  0  0  0  0  0  0  0
    6.1879   -0.4699    0.0000 O   0  0  0  0  0  0  0  0  0  0  0  0
    8.2945    1.6661    0.0000 O   0  0  0  0  0  0  0  0  0  0  0  0
    8.3091   -0.4552    0.0000 O   0  0  0  0  0  0  0  0  0  0  0  0
    3.6590    2.3064    0.0000 C   0  0  0  0  0  0  0  0  0  0  0  0
    2.2129    1.9082    0.0000 C   0  0  0  0  0  0  0  0  0  0  0  0
    1.8347    0.4567    0.0000 C   0  0  0  0  0  0  0  0  0  0  0  0
    0.7667    1.5100    0.0000 C   0  0  0  0  0  0  0  0  0  0  0  0
    0.3885    0.0584    0.0000 C   0  0  0  0  0  0  0  0  0  0  0  0
   -0.6795    1.1117    0.0000 C   0  0  0  0  0  0  0  0  0  0  0  0
   -2.1256    0.7135    0.0000 C   0  0  0  0  0  0  0  0  0  0  0  0
   -3.1936    1.7668    0.0000 O   0  0  0  0  0  0  0  0  0  0  0  0
   -2.5038   -0.7381    0.0000 C   0  0  0  0  0  0  0  0  0  0  0  0
   -3.6760    0.1978    0.0000 C   0  0  0  0  0  0  0  0  0  0  0  0
  2  1  1  6
  2  3  1  0
  3  4  1  0
  4  5  1  0
  5  6  2  0
  2  7  1  0
  7  8  1  6
  8  9  1  0
 10  9  1  6
 10 11  1  0
 11 12  1  1
 12 13  1  6
 12 14  1  0
 15 14  1  1
 15 16  1  0
 16 17  1  0
 17 18  1  1
 18 19  1  0
 19 20  2  0
 19 21  2  0
 19 22  1  0
 17 23  1  0
 23 24  1  0
 24 25  1  0
 25 26  1  6
 25 27  1  0
 27 28  1  6
 28 29  1  0
 29 30  1  1
 29 31  1  0
 31 32  1  6
 31  7  1  0
 31 10  1  0
 27 11  1  0
 25 15  1  0
M  END
>  <MS_ID>  (512) 
MS0536

>  <SMILES>  (512) 
C[C@H](CCC=O)[C@H]1CC[C@H]2[C@@H]3[C@@H](O)C[C@@H]4C[C@H](OS(=O)(=O)O)CC[C@]4(C)[C@H]3C[C@H](O)[C@]12C

>  <Structure_dimension>  (512) 
2D

$$$$
MS0537
     RDKit          2D

 34 37  0  0  0  0  0  0  0  0999 V2000
  -10.9521    0.2483    0.0000 C   0  0  0  0  0  0  0  0  0  0  0  0
   -9.4944   -0.1054    0.0000 O   0  0  0  0  0  0  0  0  0  0  0  0
   -8.4593    0.9802    0.0000 C   0  0  0  0  0  0  0  0  0  0  0  0
   -7.0016    0.6265    0.0000 C   0  0  0  0  0  0  0  0  0  0  0  0
   -5.9664    1.7121    0.0000 N   0  0  0  0  0  0  0  0  0  0  0  0
   -6.3890    3.1513    0.0000 C   0  0  0  0  0  0  0  0  0  0  0  0
   -4.5087    1.3584    0.0000 C   0  0  0  0  0  0  0  0  0  0  0  0
   -3.4736    2.4439    0.0000 O   0  0  0  0  0  0  0  0  0  0  0  0
   -4.0862   -0.0809    0.0000 C   0  0  0  0  0  0  0  0  0  0  0  0
   -2.6285   -0.4346    0.0000 C   0  0  0  0  0  0  0  0  0  0  0  0
   -2.2059   -1.8738    0.0000 C   0  0  0  0  0  0  0  0  0  0  0  0
   -3.2411   -2.9594    0.0000 C   0  0  0  0  0  0  0  0  0  0  0  0
   -0.7482   -2.2275    0.0000 C   0  0  0  0  0  0  0  0  0  0  0  0
   -0.1775   -3.6147    0.0000 C   0  0  0  0  0  0  0  0  0  0  0  0
    1.3181   -3.5006    0.0000 C   0  0  0  0  0  0  0  0  0  0  0  0
    1.6718   -2.0429    0.0000 C   0  0  0  0  0  0  0  0  0  0  0  0
    2.9918   -1.3304    0.0000 C   0  0  0  0  0  0  0  0  0  0  0  0
    4.2688   -2.1172    0.0000 C   0  0  0  0  0  0  0  0  0  0  0  0
    4.2260   -3.6166    0.0000 O   0  0  0  0  0  0  0  0  0  0  0  0
    5.5888   -1.4046    0.0000 C   0  0  0  0  0  0  0  0  0  0  0  0
    5.6317    0.0948    0.0000 C   0  0  0  0  0  0  0  0  0  0  0  0
    6.9516    0.8073    0.0000 C   0  0  0  0  0  0  0  0  0  0  0  0
    6.9945    2.3067    0.0000 C   0  0  0  0  0  0  0  0  0  0  0  0
    8.3145    3.0193    0.0000 O   0  0  0  0  0  0  0  0  0  0  0  0
    5.7174    3.0935    0.0000 C   0  0  0  0  0  0  0  0  0  0  0  0
    4.3975    2.3810    0.0000 C   0  0  0  0  0  0  0  0  0  0  0  0
    4.3546    0.8816    0.0000 C   0  0  0  0  0  0  0  0  0  0  0  0
    3.0775    1.6684    0.0000 C   0  0  0  0  0  0  0  0  0  0  0  0
    3.0347    0.1690    0.0000 C   0  0  0  0  0  0  0  0  0  0  0  0
    1.7576    0.9559    0.0000 C   0  0  0  0  0  0  0  0  0  0  0  0
    0.4376    0.2433    0.0000 C   0  0  0  0  0  0  0  0  0  0  0  0
   -0.8394    1.0301    0.0000 O   0  0  0  0  0  0  0  0  0  0  0  0
    0.3948   -1.2561    0.0000 C   0  0  0  0  0  0  0  0  0  0  0  0
   -0.9576   -0.6070    0.0000 C   0  0  0  0  0  0  0  0  0  0  0  0
  1  2  1  0
  2  3  1  0
  3  4  1  0
  4  5  1  0
  5  6  1  0
  5  7  1  0
  7  8  2  0
  7  9  1  0
  9 10  1  0
 10 11  1  0
 11 12  1  6
 11 13  1  0
 13 14  1  6
 14 15  1  0
 16 15  1  6
 16 17  1  0
 17 18  1  1
 18 19  1  1
 18 20  1  0
 21 20  1  1
 21 22  1  0
 22 23  1  0
 23 24  1  1
 23 25  1  0
 25 26  1  0
 26 27  1  0
 27 28  1  6
 27 29  1  0
 29 30  1  6
 30 31  1  0
 31 32  1  1
 31 33  1  0
 33 34  1  6
 33 13  1  0
 33 16  1  0
 29 17  1  0
 27 21  1  0
M  END
>  <MS_ID>  (513) 
MS0537

>  <SMILES>  (513) 
COCCN(C)C(=O)CC[C@@H](C)[C@H]1CC[C@H]2[C@@H]3[C@H](O)C[C@@H]4C[C@H](O)CC[C@]4(C)[C@H]3C[C@H](O)[C@]12C

>  <Structure_dimension>  (513) 
2D

$$$$
MS0538
     RDKit          2D

 32 35  0  0  0  0  0  0  0  0999 V2000
   -3.1421   -3.6694    0.0000 C   0  0  0  0  0  0  0  0  0  0  0  0
   -2.2628   -2.4541    0.0000 C   0  0  0  0  0  0  0  0  0  0  0  0
   -2.8756   -1.0850    0.0000 C   0  0  0  0  0  0  0  0  0  0  0  0
   -4.3676   -0.9311    0.0000 C   0  0  0  0  0  0  0  0  0  0  0  0
   -4.9804    0.4380    0.0000 C   0  0  0  0  0  0  0  0  0  0  0  0
   -4.1011    1.6532    0.0000 O   0  0  0  0  0  0  0  0  0  0  0  0
   -6.4725    0.5919    0.0000 C   0  0  0  0  0  0  0  0  0  0  0  0
   -7.0853    1.9610    0.0000 C   0  0  0  0  0  0  0  0  0  0  0  0
   -8.5774    2.1149    0.0000 C   0  0  0  0  0  0  0  0  0  0  0  0
   -9.4567    0.8996    0.0000 O   0  0  0  0  0  0  0  0  0  0  0  0
   -9.1901    3.4840    0.0000 O   0  0  0  0  0  0  0  0  0  0  0  0
   -0.7707   -2.6080    0.0000 C   0  0  0  0  0  0  0  0  0  0  0  0
   -0.0182   -3.9056    0.0000 C   0  0  0  0  0  0  0  0  0  0  0  0
    1.4484   -3.5909    0.0000 C   0  0  0  0  0  0  0  0  0  0  0  0
    1.6023   -2.0988    0.0000 C   0  0  0  0  0  0  0  0  0  0  0  0
    2.8141   -1.2147    0.0000 C   0  0  0  0  0  0  0  0  0  0  0  0
    4.1856   -1.8222    0.0000 C   0  0  0  0  0  0  0  0  0  0  0  0
    4.3453   -3.3136    0.0000 O   0  0  0  0  0  0  0  0  0  0  0  0
    5.3974   -0.9381    0.0000 C   0  0  0  0  0  0  0  0  0  0  0  0
    5.2377    0.5533    0.0000 C   0  0  0  0  0  0  0  0  0  0  0  0
    6.4495    1.4374    0.0000 C   0  0  0  0  0  0  0  0  0  0  0  0
    6.2898    2.9289    0.0000 C   0  0  0  0  0  0  0  0  0  0  0  0
    7.5016    3.8129    0.0000 O   0  0  0  0  0  0  0  0  0  0  0  0
    4.9183    3.5363    0.0000 C   0  0  0  0  0  0  0  0  0  0  0  0
    3.7065    2.6522    0.0000 C   0  0  0  0  0  0  0  0  0  0  0  0
    3.8662    1.1608    0.0000 C   0  0  0  0  0  0  0  0  0  0  0  0
    2.4947    1.7682    0.0000 C   0  0  0  0  0  0  0  0  0  0  0  0
    2.6544    0.2767    0.0000 C   0  0  0  0  0  0  0  0  0  0  0  0
    1.2829    0.8842    0.0000 C   0  0  0  0  0  0  0  0  0  0  0  0
    0.0711    0.0001    0.0000 C   0  0  0  0  0  0  0  0  0  0  0  0
    0.2308   -1.4914    0.0000 C   0  0  0  0  0  0  0  0  0  0  0  0
   -1.1967   -1.0306    0.0000 C   0  0  0  0  0  0  0  0  0  0  0  0
  2  1  1  6
  2  3  1  0
  3  4  1  0
  4  5  1  0
  5  6  2  0
  5  7  1  0
  7  8  1  0
  8  9  1  0
  9 10  2  0
  9 11  1  0
  2 12  1  0
 12 13  1  6
 13 14  1  0
 15 14  1  6
 15 16  1  0
 16 17  1  1
 17 18  1  1
 17 19  1  0
 20 19  1  1
 20 21  1  0
 21 22  1  0
 22 23  1  6
 22 24  1  0
 24 25  1  0
 25 26  1  0
 26 27  1  6
 26 28  1  0
 28 29  1  6
 29 30  1  0
 30 31  1  0
 31 32  1  6
 31 12  1  0
 31 15  1  0
 28 16  1  0
 26 20  1  0
M  END
>  <MS_ID>  (514) 
MS0538

>  <SMILES>  (514) 
C[C@H](CCC(=O)CCC(=O)O)[C@H]1CC[C@H]2[C@@H]3[C@H](O)C[C@@H]4C[C@@H](O)CC[C@]4(C)[C@H]3CC[C@]12C

>  <Structure_dimension>  (514) 
2D

$$$$
MS0539
     RDKit          2D

 32 35  0  0  0  0  0  0  0  0999 V2000
   -3.4546   -3.6059    0.0000 C   0  0  0  0  0  0  0  0  0  0  0  0
   -2.5561   -2.4048    0.0000 C   0  0  0  0  0  0  0  0  0  0  0  0
   -3.1471   -1.0261    0.0000 C   0  0  0  0  0  0  0  0  0  0  0  0
   -4.6366   -0.8486    0.0000 C   0  0  0  0  0  0  0  0  0  0  0  0
   -5.2276    0.5301    0.0000 C   0  0  0  0  0  0  0  0  0  0  0  0
   -4.3291    1.7312    0.0000 O   0  0  0  0  0  0  0  0  0  0  0  0
   -6.7170    0.7076    0.0000 N   0  0  0  0  0  0  0  0  0  0  0  0
   -7.3080    2.0863    0.0000 C   0  0  0  0  0  0  0  0  0  0  0  0
   -8.7975    2.2638    0.0000 C   0  0  0  0  0  0  0  0  0  0  0  0
   -9.3885    3.6424    0.0000 O   0  0  0  0  0  0  0  0  0  0  0  0
   -1.0667   -2.5823    0.0000 C   0  0  0  0  0  0  0  0  0  0  0  0
   -0.3348   -3.8917    0.0000 C   0  0  0  0  0  0  0  0  0  0  0  0
    1.1366   -3.6002    0.0000 C   0  0  0  0  0  0  0  0  0  0  0  0
    1.3141   -2.1108    0.0000 C   0  0  0  0  0  0  0  0  0  0  0  0
    2.5398   -1.2460    0.0000 C   0  0  0  0  0  0  0  0  0  0  0  0
    3.9015   -1.8751    0.0000 C   0  0  0  0  0  0  0  0  0  0  0  0
    4.0375   -3.3690    0.0000 O   0  0  0  0  0  0  0  0  0  0  0  0
    5.1272   -1.0104    0.0000 C   0  0  0  0  0  0  0  0  0  0  0  0
    4.9911    0.4834    0.0000 C   0  0  0  0  0  0  0  0  0  0  0  0
    6.2168    1.3481    0.0000 C   0  0  0  0  0  0  0  0  0  0  0  0
    6.0808    2.8419    0.0000 C   0  0  0  0  0  0  0  0  0  0  0  0
    7.3064    3.7067    0.0000 O   0  0  0  0  0  0  0  0  0  0  0  0
    4.7191    3.4710    0.0000 C   0  0  0  0  0  0  0  0  0  0  0  0
    3.4934    2.6063    0.0000 C   0  0  0  0  0  0  0  0  0  0  0  0
    3.6294    1.1125    0.0000 C   0  0  0  0  0  0  0  0  0  0  0  0
    2.2677    1.7416    0.0000 C   0  0  0  0  0  0  0  0  0  0  0  0
    2.4038    0.2478    0.0000 C   0  0  0  0  0  0  0  0  0  0  0  0
    1.0421    0.8769    0.0000 C   0  0  0  0  0  0  0  0  0  0  0  0
   -0.1836    0.0122    0.0000 C   0  0  0  0  0  0  0  0  0  0  0  0
   -1.5453    0.6413    0.0000 O   0  0  0  0  0  0  0  0  0  0  0  0
   -0.0476   -1.4817    0.0000 C   0  0  0  0  0  0  0  0  0  0  0  0
   -1.4676   -0.9983    0.0000 C   0  0  0  0  0  0  0  0  0  0  0  0
  2  1  1  6
  2  3  1  0
  3  4  1  0
  4  5  1  0
  5  6  2  0
  5  7  1  0
  7  8  1  0
  8  9  1  0
  9 10  1  0
  2 11  1  0
 11 12  1  6
 12 13  1  0
 14 13  1  6
 14 15  1  0
 15 16  1  1
 16 17  1  1
 16 18  1  0
 19 18  1  1
 19 20  1  0
 20 21  1  0
 21 22  2  0
 21 23  1  0
 23 24  1  0
 24 25  1  0
 25 26  1  6
 25 27  1  0
 27 28  1  6
 28 29  1  0
 29 30  1  1
 29 31  1  0
 31 32  1  6
 31 11  1  0
 31 14  1  0
 27 15  1  0
 25 19  1  0
M  END
>  <MS_ID>  (515) 
MS0539

>  <SMILES>  (515) 
C[C@H](CCC(=O)NCCO)[C@H]1CC[C@H]2[C@@H]3[C@H](O)C[C@@H]4CC(=O)CC[C@]4(C)[C@H]3C[C@H](O)[C@]12C

>  <Structure_dimension>  (515) 
2D

$$$$
MS0540
     RDKit          2D

 29 32  0  0  0  0  0  0  0  0999 V2000
   -4.7935   -2.5443    0.0000 C   0  0  0  0  0  0  0  0  0  0  0  0
   -3.6816   -1.5375    0.0000 C   0  0  0  0  0  0  0  0  0  0  0  0
   -3.9975   -0.0712    0.0000 C   0  0  0  0  0  0  0  0  0  0  0  0
   -5.4254    0.3884    0.0000 C   0  0  0  0  0  0  0  0  0  0  0  0
   -5.7413    1.8547    0.0000 C   0  0  0  0  0  0  0  0  0  0  0  0
   -7.1692    2.3143    0.0000 O   0  0  0  0  0  0  0  0  0  0  0  0
   -4.6294    2.8615    0.0000 O   0  0  0  0  0  0  0  0  0  0  0  0
   -4.9453    4.3279    0.0000 O   0  0  0  0  0  0  0  0  0  0  0  0
   -2.2537   -1.9971    0.0000 C   0  0  0  0  0  0  0  0  0  0  0  0
   -1.7862   -3.4224    0.0000 C   0  0  0  0  0  0  0  0  0  0  0  0
   -0.2862   -3.4182    0.0000 C   0  0  0  0  0  0  0  0  0  0  0  0
    0.1733   -1.9903    0.0000 C   0  0  0  0  0  0  0  0  0  0  0  0
    1.5420   -1.3764    0.0000 C   0  0  0  0  0  0  0  0  0  0  0  0
    2.7579   -2.2547    0.0000 C   0  0  0  0  0  0  0  0  0  0  0  0
    2.6053   -3.7470    0.0000 O   0  0  0  0  0  0  0  0  0  0  0  0
    4.1265   -1.6408    0.0000 C   0  0  0  0  0  0  0  0  0  0  0  0
    4.2792   -0.1486    0.0000 C   0  0  0  0  0  0  0  0  0  0  0  0
    5.6478    0.4653    0.0000 C   0  0  0  0  0  0  0  0  0  0  0  0
    5.8005    1.9575    0.0000 C   0  0  0  0  0  0  0  0  0  0  0  0
    7.1691    2.5714    0.0000 O   0  0  0  0  0  0  0  0  0  0  0  0
    4.5845    2.8358    0.0000 C   0  0  0  0  0  0  0  0  0  0  0  0
    3.2159    2.2219    0.0000 C   0  0  0  0  0  0  0  0  0  0  0  0
    3.0632    0.7297    0.0000 C   0  0  0  0  0  0  0  0  0  0  0  0
    1.8473    1.6080    0.0000 C   0  0  0  0  0  0  0  0  0  0  0  0
    1.6946    0.1158    0.0000 C   0  0  0  0  0  0  0  0  0  0  0  0
    0.4786    0.9941    0.0000 C   0  0  0  0  0  0  0  0  0  0  0  0
   -0.8900    0.3802    0.0000 C   0  0  0  0  0  0  0  0  0  0  0  0
   -1.0426   -1.1120    0.0000 C   0  0  0  0  0  0  0  0  0  0  0  0
   -2.3437   -0.3657    0.0000 C   0  0  0  0  0  0  0  0  0  0  0  0
  2  1  1  6
  2  3  1  0
  3  4  1  0
  4  5  1  0
  5  6  2  0
  5  7  1  0
  7  8  1  0
  2  9  1  0
  9 10  1  6
 10 11  1  0
 12 11  1  6
 12 13  1  0
 13 14  1  1
 14 15  1  6
 14 16  1  0
 17 16  1  1
 17 18  1  0
 18 19  1  0
 19 20  1  1
 19 21  1  0
 21 22  1  0
 22 23  1  0
 23 24  1  6
 23 25  1  0
 25 26  1  6
 26 27  1  0
 27 28  1  0
 28 29  1  6
 28  9  1  0
 28 12  1  0
 25 13  1  0
 23 17  1  0
M  END
>  <MS_ID>  (516) 
MS0540

>  <SMILES>  (516) 
C[C@H](CCC(=O)OO)[C@H]1CC[C@H]2[C@@H]3[C@@H](O)C[C@@H]4C[C@H](O)CC[C@]4(C)[C@H]3CC[C@]12C

>  <Structure_dimension>  (516) 
2D

$$$$
MS0541
     RDKit          2D

 33 36  0  0  0  0  0  0  0  0999 V2000
   -3.1612   -3.1494    0.0000 C   0  0  0  0  0  0  0  0  0  0  0  0
   -2.1311   -2.0591    0.0000 C   0  0  0  0  0  0  0  0  0  0  0  0
   -2.5603   -0.6218    0.0000 C   0  0  0  0  0  0  0  0  0  0  0  0
   -4.0196   -0.2748    0.0000 C   0  0  0  0  0  0  0  0  0  0  0  0
   -4.4488    1.1625    0.0000 C   0  0  0  0  0  0  0  0  0  0  0  0
   -3.4187    2.2528    0.0000 O   0  0  0  0  0  0  0  0  0  0  0  0
   -5.9081    1.5094    0.0000 N   0  0  0  0  0  0  0  0  0  0  0  0
   -6.3373    2.9467    0.0000 C   0  0  0  0  0  0  0  0  0  0  0  0
   -6.9383    0.4191    0.0000 C   0  0  0  0  0  0  0  0  0  0  0  0
   -8.3976    0.7661    0.0000 C   0  0  0  0  0  0  0  0  0  0  0  0
   -8.8268    2.2034    0.0000 O   0  0  0  0  0  0  0  0  0  0  0  0
   -9.4277   -0.3243    0.0000 O   0  0  0  0  0  0  0  0  0  0  0  0
   -0.6718   -2.4060    0.0000 C   0  0  0  0  0  0  0  0  0  0  0  0
   -0.0947   -3.7906    0.0000 C   0  0  0  0  0  0  0  0  0  0  0  0
    1.4004   -3.6696    0.0000 C   0  0  0  0  0  0  0  0  0  0  0  0
    1.7474   -2.2103    0.0000 C   0  0  0  0  0  0  0  0  0  0  0  0
    3.0640   -1.4916    0.0000 C   0  0  0  0  0  0  0  0  0  0  0  0
    4.3447   -2.2725    0.0000 C   0  0  0  0  0  0  0  0  0  0  0  0
    5.6613   -1.5539    0.0000 C   0  0  0  0  0  0  0  0  0  0  0  0
    5.6973   -0.0543    0.0000 C   0  0  0  0  0  0  0  0  0  0  0  0
    7.0140    0.6643    0.0000 C   0  0  0  0  0  0  0  0  0  0  0  0
    7.0499    2.1639    0.0000 C   0  0  0  0  0  0  0  0  0  0  0  0
    8.3666    2.8825    0.0000 O   0  0  0  0  0  0  0  0  0  0  0  0
    5.7692    2.9448    0.0000 C   0  0  0  0  0  0  0  0  0  0  0  0
    4.4526    2.2262    0.0000 C   0  0  0  0  0  0  0  0  0  0  0  0
    4.4166    0.7266    0.0000 C   0  0  0  0  0  0  0  0  0  0  0  0
    3.1359    1.5075    0.0000 C   0  0  0  0  0  0  0  0  0  0  0  0
    3.1000    0.0080    0.0000 C   0  0  0  0  0  0  0  0  0  0  0  0
    1.8193    0.7889    0.0000 C   0  0  0  0  0  0  0  0  0  0  0  0
    0.5026    0.0702    0.0000 C   0  0  0  0  0  0  0  0  0  0  0  0
   -0.7780    0.8512    0.0000 O   0  0  0  0  0  0  0  0  0  0  0  0
    0.4667   -1.4293    0.0000 C   0  0  0  0  0  0  0  0  0  0  0  0
   -0.8886   -0.7865    0.0000 C   0  0  0  0  0  0  0  0  0  0  0  0
  2  1  1  6
  2  3  1  0
  3  4  1  0
  4  5  1  0
  5  6  2  0
  5  7  1  0
  7  8  1  0
  7  9  1  0
  9 10  1  0
 10 11  2  0
 10 12  1  0
  2 13  1  0
 13 14  1  6
 14 15  1  0
 16 15  1  6
 16 17  1  0
 17 18  1  1
 18 19  1  0
 20 19  1  1
 20 21  1  0
 21 22  1  0
 22 23  1  1
 22 24  1  0
 24 25  1  0
 25 26  1  0
 26 27  1  6
 26 28  1  0
 28 29  1  6
 29 30  1  0
 30 31  1  1
 30 32  1  0
 32 33  1  6
 32 13  1  0
 32 16  1  0
 28 17  1  0
 26 20  1  0
M  END
>  <MS_ID>  (517) 
MS0541

>  <SMILES>  (517) 
C[C@H](CCC(=O)N(C)CC(=O)O)[C@H]1CC[C@H]2[C@@H]3CC[C@@H]4C[C@H](O)CC[C@]4(C)[C@H]3C[C@H](O)[C@]12C

>  <Structure_dimension>  (517) 
2D

$$$$
MS0542
     RDKit          2D

 34 37  0  0  0  0  0  0  0  0999 V2000
   -2.4018   -4.1785    0.0000 C   0  0  0  0  0  0  0  0  0  0  0  0
   -1.6536   -2.8784    0.0000 C   0  0  0  0  0  0  0  0  0  0  0  0
   -2.4055   -1.5804    0.0000 C   0  0  0  0  0  0  0  0  0  0  0  0
   -3.9055   -1.5826    0.0000 C   0  0  0  0  0  0  0  0  0  0  0  0
   -4.6574   -0.2846    0.0000 C   0  0  0  0  0  0  0  0  0  0  0  0
   -3.9092    1.0155    0.0000 O   0  0  0  0  0  0  0  0  0  0  0  0
   -6.1574   -0.2867    0.0000 O   0  0  0  0  0  0  0  0  0  0  0  0
   -6.9092    1.0112    0.0000 C   0  0  0  0  0  0  0  0  0  0  0  0
   -8.4092    1.0091    0.0000 C   0  0  0  0  0  0  0  0  0  0  0  0
   -9.1611    2.3071    0.0000 N   0  0  0  0  0  0  0  0  0  0  0  0
  -10.6611    2.3049    0.0000 C   0  0  0  0  0  0  0  0  0  0  0  0
   -8.4129    3.6072    0.0000 C   0  0  0  0  0  0  0  0  0  0  0  0
   -0.1536   -2.8762    0.0000 C   0  0  0  0  0  0  0  0  0  0  0  0
    0.7298   -4.0885    0.0000 C   0  0  0  0  0  0  0  0  0  0  0  0
    2.1557   -3.6229    0.0000 C   0  0  0  0  0  0  0  0  0  0  0  0
    2.1535   -2.1229    0.0000 C   0  0  0  0  0  0  0  0  0  0  0  0
    3.2668   -1.1176    0.0000 C   0  0  0  0  0  0  0  0  0  0  0  0
    4.6941   -1.5791    0.0000 C   0  0  0  0  0  0  0  0  0  0  0  0
    5.0080   -3.0459    0.0000 O   0  0  0  0  0  0  0  0  0  0  0  0
    5.8073   -0.5738    0.0000 C   0  0  0  0  0  0  0  0  0  0  0  0
    5.4934    0.8929    0.0000 C   0  0  0  0  0  0  0  0  0  0  0  0
    6.6067    1.8982    0.0000 C   0  0  0  0  0  0  0  0  0  0  0  0
    6.2927    3.3650    0.0000 C   0  0  0  0  0  0  0  0  0  0  0  0
    7.4060    4.3703    0.0000 O   0  0  0  0  0  0  0  0  0  0  0  0
    4.8655    3.8265    0.0000 C   0  0  0  0  0  0  0  0  0  0  0  0
    3.7522    2.8212    0.0000 C   0  0  0  0  0  0  0  0  0  0  0  0
    4.0661    1.3544    0.0000 C   0  0  0  0  0  0  0  0  0  0  0  0
    2.6389    1.8159    0.0000 C   0  0  0  0  0  0  0  0  0  0  0  0
    2.9529    0.3491    0.0000 C   0  0  0  0  0  0  0  0  0  0  0  0
    1.5256    0.8106    0.0000 C   0  0  0  0  0  0  0  0  0  0  0  0
    0.4123   -0.1947    0.0000 C   0  0  0  0  0  0  0  0  0  0  0  0
   -1.0149    0.2668    0.0000 O   0  0  0  0  0  0  0  0  0  0  0  0
    0.7263   -1.6614    0.0000 C   0  0  0  0  0  0  0  0  0  0  0  0
   -0.7414   -1.3517    0.0000 C   0  0  0  0  0  0  0  0  0  0  0  0
  2  1  1  6
  2  3  1  0
  3  4  1  0
  4  5  1  0
  5  6  2  0
  5  7  1  0
  7  8  1  0
  8  9  1  0
  9 10  1  0
 10 11  1  0
 10 12  1  0
  2 13  1  0
 13 14  1  6
 14 15  1  0
 16 15  1  6
 16 17  1  0
 17 18  1  1
 18 19  1  1
 18 20  1  0
 21 20  1  1
 21 22  1  0
 22 23  1  0
 23 24  1  1
 23 25  1  0
 25 26  1  0
 26 27  1  0
 27 28  1  6
 27 29  1  0
 29 30  1  6
 30 31  1  0
 31 32  1  1
 31 33  1  0
 33 34  1  6
 33 13  1  0
 33 16  1  0
 29 17  1  0
 27 21  1  0
M  END
>  <MS_ID>  (518) 
MS0542

>  <SMILES>  (518) 
C[C@H](CCC(=O)OCCN(C)C)[C@H]1CC[C@H]2[C@@H]3[C@H](O)C[C@@H]4C[C@H](O)CC[C@]4(C)[C@H]3C[C@H](O)[C@]12C

>  <Structure_dimension>  (518) 
2D

$$$$
MS0543
     RDKit          2D

 30 33  0  0  0  0  0  0  0  0999 V2000
   -4.2255   -2.8134    0.0000 C   0  0  0  0  0  0  0  0  0  0  0  0
   -3.1320   -1.7867    0.0000 C   0  0  0  0  0  0  0  0  0  0  0  0
   -3.4744   -0.3263    0.0000 C   0  0  0  0  0  0  0  0  0  0  0  0
   -4.9104    0.1074    0.0000 C   0  0  0  0  0  0  0  0  0  0  0  0
   -5.2528    1.5677    0.0000 C   0  0  0  0  0  0  0  0  0  0  0  0
   -4.1593    2.5945    0.0000 O   0  0  0  0  0  0  0  0  0  0  0  0
   -6.6888    2.0014    0.0000 C   0  0  0  0  0  0  0  0  0  0  0  0
   -7.7823    0.9746    0.0000 O   0  0  0  0  0  0  0  0  0  0  0  0
   -7.0312    3.4618    0.0000 O   0  0  0  0  0  0  0  0  0  0  0  0
   -1.6961   -2.2203    0.0000 C   0  0  0  0  0  0  0  0  0  0  0  0
   -1.2029   -3.6369    0.0000 C   0  0  0  0  0  0  0  0  0  0  0  0
    0.2968   -3.6056    0.0000 C   0  0  0  0  0  0  0  0  0  0  0  0
    0.7305   -2.1697    0.0000 C   0  0  0  0  0  0  0  0  0  0  0  0
    2.0877   -1.5311    0.0000 C   0  0  0  0  0  0  0  0  0  0  0  0
    3.3194   -2.3873    0.0000 C   0  0  0  0  0  0  0  0  0  0  0  0
    4.6767   -1.7487    0.0000 C   0  0  0  0  0  0  0  0  0  0  0  0
    4.8023   -0.2540    0.0000 C   0  0  0  0  0  0  0  0  0  0  0  0
    6.1596    0.3846    0.0000 C   0  0  0  0  0  0  0  0  0  0  0  0
    6.2852    1.8794    0.0000 C   0  0  0  0  0  0  0  0  0  0  0  0
    7.6425    2.5179    0.0000 O   0  0  0  0  0  0  0  0  0  0  0  0
    5.0536    2.7355    0.0000 C   0  0  0  0  0  0  0  0  0  0  0  0
    3.6963    2.0969    0.0000 C   0  0  0  0  0  0  0  0  0  0  0  0
    3.5706    0.6022    0.0000 C   0  0  0  0  0  0  0  0  0  0  0  0
    2.3390    1.4584    0.0000 C   0  0  0  0  0  0  0  0  0  0  0  0
    2.2134   -0.0364    0.0000 C   0  0  0  0  0  0  0  0  0  0  0  0
    0.9817    0.8198    0.0000 C   0  0  0  0  0  0  0  0  0  0  0  0
   -0.3756    0.1812    0.0000 C   0  0  0  0  0  0  0  0  0  0  0  0
   -1.6072    1.0374    0.0000 O   0  0  0  0  0  0  0  0  0  0  0  0
   -0.5012   -1.3135    0.0000 C   0  0  0  0  0  0  0  0  0  0  0  0
   -1.8156   -0.5908    0.0000 C   0  0  0  0  0  0  0  0  0  0  0  0
  2  1  1  6
  2  3  1  0
  3  4  1  0
  4  5  1  0
  5  6  2  0
  5  7  1  0
  7  8  2  0
  7  9  1  0
  2 10  1  0
 10 11  1  6
 11 12  1  0
 13 12  1  6
 13 14  1  0
 14 15  1  1
 15 16  1  0
 17 16  1  1
 17 18  1  0
 18 19  1  0
 19 20  1  1
 19 21  1  0
 21 22  1  0
 22 23  1  0
 23 24  1  6
 23 25  1  0
 25 26  1  6
 26 27  1  0
 27 28  1  1
 27 29  1  0
 29 30  1  6
 29 10  1  0
 29 13  1  0
 25 14  1  0
 23 17  1  0
M  END
>  <MS_ID>  (519) 
MS0543

>  <SMILES>  (519) 
C[C@H](CCC(=O)C(=O)O)[C@H]1CC[C@H]2[C@@H]3CC[C@@H]4C[C@H](O)CC[C@]4(C)[C@H]3C[C@H](O)[C@]12C

>  <Structure_dimension>  (519) 
2D

$$$$
MS0544
     RDKit          2D

 32 35  0  0  0  0  0  0  0  0999 V2000
   -3.1421   -3.6694    0.0000 C   0  0  0  0  0  0  0  0  0  0  0  0
   -2.2628   -2.4541    0.0000 C   0  0  0  0  0  0  0  0  0  0  0  0
   -2.8756   -1.0850    0.0000 C   0  0  0  0  0  0  0  0  0  0  0  0
   -4.3676   -0.9311    0.0000 C   0  0  0  0  0  0  0  0  0  0  0  0
   -4.9804    0.4380    0.0000 C   0  0  0  0  0  0  0  0  0  0  0  0
   -4.1011    1.6532    0.0000 O   0  0  0  0  0  0  0  0  0  0  0  0
   -6.4725    0.5919    0.0000 O   0  0  0  0  0  0  0  0  0  0  0  0
   -7.0853    1.9610    0.0000 C   0  0  0  0  0  0  0  0  0  0  0  0
   -8.5774    2.1149    0.0000 C   0  0  0  0  0  0  0  0  0  0  0  0
   -9.4567    0.8996    0.0000 O   0  0  0  0  0  0  0  0  0  0  0  0
   -9.1901    3.4840    0.0000 O   0  0  0  0  0  0  0  0  0  0  0  0
   -0.7707   -2.6080    0.0000 C   0  0  0  0  0  0  0  0  0  0  0  0
   -0.0182   -3.9056    0.0000 C   0  0  0  0  0  0  0  0  0  0  0  0
    1.4484   -3.5909    0.0000 C   0  0  0  0  0  0  0  0  0  0  0  0
    1.6023   -2.0988    0.0000 C   0  0  0  0  0  0  0  0  0  0  0  0
    2.8141   -1.2147    0.0000 C   0  0  0  0  0  0  0  0  0  0  0  0
    4.1856   -1.8222    0.0000 C   0  0  0  0  0  0  0  0  0  0  0  0
    4.3453   -3.3136    0.0000 O   0  0  0  0  0  0  0  0  0  0  0  0
    5.3974   -0.9381    0.0000 C   0  0  0  0  0  0  0  0  0  0  0  0
    5.2377    0.5533    0.0000 C   0  0  0  0  0  0  0  0  0  0  0  0
    6.4495    1.4374    0.0000 C   0  0  0  0  0  0  0  0  0  0  0  0
    6.2898    2.9289    0.0000 C   0  0  0  0  0  0  0  0  0  0  0  0
    7.5016    3.8129    0.0000 O   0  0  0  0  0  0  0  0  0  0  0  0
    4.9183    3.5363    0.0000 C   0  0  0  0  0  0  0  0  0  0  0  0
    3.7065    2.6522    0.0000 C   0  0  0  0  0  0  0  0  0  0  0  0
    3.8662    1.1608    0.0000 C   0  0  0  0  0  0  0  0  0  0  0  0
    2.4947    1.7682    0.0000 C   0  0  0  0  0  0  0  0  0  0  0  0
    2.6544    0.2767    0.0000 C   0  0  0  0  0  0  0  0  0  0  0  0
    1.2829    0.8842    0.0000 C   0  0  0  0  0  0  0  0  0  0  0  0
    0.0711    0.0001    0.0000 C   0  0  0  0  0  0  0  0  0  0  0  0
    0.2308   -1.4914    0.0000 C   0  0  0  0  0  0  0  0  0  0  0  0
   -1.1967   -1.0306    0.0000 C   0  0  0  0  0  0  0  0  0  0  0  0
  2  1  1  6
  2  3  1  0
  3  4  1  0
  4  5  1  0
  5  6  2  0
  5  7  1  0
  7  8  1  0
  8  9  1  0
  9 10  2  0
  9 11  1  0
  2 12  1  0
 12 13  1  6
 13 14  1  0
 15 14  1  6
 15 16  1  0
 16 17  1  1
 17 18  1  1
 17 19  1  0
 20 19  1  1
 20 21  1  0
 21 22  1  0
 22 23  1  1
 22 24  1  0
 24 25  1  0
 25 26  1  0
 26 27  1  6
 26 28  1  0
 28 29  1  6
 29 30  1  0
 30 31  1  0
 31 32  1  6
 31 12  1  0
 31 15  1  0
 28 16  1  0
 26 20  1  0
M  END
>  <MS_ID>  (520) 
MS0544

>  <SMILES>  (520) 
C[C@H](CCC(=O)OCC(=O)O)[C@H]1CC[C@H]2[C@@H]3[C@H](O)C[C@@H]4C[C@H](O)CC[C@]4(C)[C@H]3CC[C@]12C

>  <Structure_dimension>  (520) 
2D

$$$$
MS0545
     RDKit          2D

 32 35  0  0  0  0  0  0  0  0999 V2000
   -3.1421   -3.6694    0.0000 C   0  0  0  0  0  0  0  0  0  0  0  0
   -2.2628   -2.4541    0.0000 C   0  0  0  0  0  0  0  0  0  0  0  0
   -2.8756   -1.0850    0.0000 C   0  0  0  0  0  0  0  0  0  0  0  0
   -4.3676   -0.9311    0.0000 C   0  0  0  0  0  0  0  0  0  0  0  0
   -4.9804    0.4380    0.0000 C   0  0  0  0  0  0  0  0  0  0  0  0
   -4.1011    1.6532    0.0000 O   0  0  0  0  0  0  0  0  0  0  0  0
   -6.4725    0.5919    0.0000 N   0  0  0  0  0  0  0  0  0  0  0  0
   -7.0853    1.9610    0.0000 C   0  0  0  0  0  0  0  0  0  0  0  0
   -8.5774    2.1149    0.0000 C   0  0  0  0  0  0  0  0  0  0  0  0
   -9.4567    0.8996    0.0000 O   0  0  0  0  0  0  0  0  0  0  0  0
   -9.1901    3.4840    0.0000 O   0  0  0  0  0  0  0  0  0  0  0  0
   -0.7707   -2.6080    0.0000 C   0  0  0  0  0  0  0  0  0  0  0  0
   -0.0182   -3.9056    0.0000 C   0  0  0  0  0  0  0  0  0  0  0  0
    1.4484   -3.5909    0.0000 C   0  0  0  0  0  0  0  0  0  0  0  0
    1.6023   -2.0988    0.0000 C   0  0  0  0  0  0  0  0  0  0  0  0
    2.8141   -1.2147    0.0000 C   0  0  0  0  0  0  0  0  0  0  0  0
    4.1856   -1.8222    0.0000 C   0  0  0  0  0  0  0  0  0  0  0  0
    4.3453   -3.3136    0.0000 N   0  0  0  0  0  0  0  0  0  0  0  0
    5.3974   -0.9381    0.0000 C   0  0  0  0  0  0  0  0  0  0  0  0
    5.2377    0.5533    0.0000 C   0  0  0  0  0  0  0  0  0  0  0  0
    6.4495    1.4374    0.0000 C   0  0  0  0  0  0  0  0  0  0  0  0
    6.2898    2.9289    0.0000 C   0  0  0  0  0  0  0  0  0  0  0  0
    7.5016    3.8129    0.0000 O   0  0  0  0  0  0  0  0  0  0  0  0
    4.9183    3.5363    0.0000 C   0  0  0  0  0  0  0  0  0  0  0  0
    3.7065    2.6522    0.0000 C   0  0  0  0  0  0  0  0  0  0  0  0
    3.8662    1.1608    0.0000 C   0  0  0  0  0  0  0  0  0  0  0  0
    2.4947    1.7682    0.0000 C   0  0  0  0  0  0  0  0  0  0  0  0
    2.6544    0.2767    0.0000 C   0  0  0  0  0  0  0  0  0  0  0  0
    1.2829    0.8842    0.0000 C   0  0  0  0  0  0  0  0  0  0  0  0
    0.0711    0.0001    0.0000 C   0  0  0  0  0  0  0  0  0  0  0  0
    0.2308   -1.4914    0.0000 C   0  0  0  0  0  0  0  0  0  0  0  0
   -1.1967   -1.0306    0.0000 C   0  0  0  0  0  0  0  0  0  0  0  0
  2  1  1  6
  2  3  1  0
  3  4  1  0
  4  5  1  0
  5  6  2  0
  5  7  1  0
  7  8  1  0
  8  9  1  0
  9 10  2  0
  9 11  1  0
  2 12  1  0
 12 13  1  6
 13 14  1  0
 15 14  1  6
 15 16  1  0
 16 17  1  1
 17 18  1  1
 17 19  1  0
 20 19  1  1
 20 21  1  0
 21 22  1  0
 22 23  1  1
 22 24  1  0
 24 25  1  0
 25 26  1  0
 26 27  1  6
 26 28  1  0
 28 29  1  6
 29 30  1  0
 30 31  1  0
 31 32  1  6
 31 12  1  0
 31 15  1  0
 28 16  1  0
 26 20  1  0
M  END
>  <MS_ID>  (521) 
MS0545

>  <SMILES>  (521) 
C[C@H](CCC(=O)NCC(=O)O)[C@H]1CC[C@H]2[C@@H]3[C@H](N)C[C@@H]4C[C@H](O)CC[C@]4(C)[C@H]3CC[C@]12C

>  <Structure_dimension>  (521) 
2D

$$$$
MS0546
     RDKit          2D

 31 34  0  0  0  0  0  0  0  0999 V2000
   -6.1759   -1.7972    0.0000 C   0  0  0  0  0  0  0  0  0  0  0  0
   -4.9432   -0.9425    0.0000 C   0  0  0  0  0  0  0  0  0  0  0  0
   -5.0671    0.5524    0.0000 C   0  0  0  0  0  0  0  0  0  0  0  0
   -6.4237    1.1926    0.0000 C   0  0  0  0  0  0  0  0  0  0  0  0
   -6.5476    2.6874    0.0000 C   0  0  0  0  0  0  0  0  0  0  0  0
   -5.3149    3.5422    0.0000 O   0  0  0  0  0  0  0  0  0  0  0  0
   -7.9041    3.3276    0.0000 O   0  0  0  0  0  0  0  0  0  0  0  0
   -3.5867   -1.5826    0.0000 C   0  0  0  0  0  0  0  0  0  0  0  0
   -3.3072   -3.0563    0.0000 C   0  0  0  0  0  0  0  0  0  0  0  0
   -1.8192   -3.2459    0.0000 C   0  0  0  0  0  0  0  0  0  0  0  0
   -1.1791   -1.8894    0.0000 C   0  0  0  0  0  0  0  0  0  0  0  0
    0.2574   -1.4574    0.0000 C   0  0  0  0  0  0  0  0  0  0  0  0
    1.3497   -2.4854    0.0000 C   0  0  0  0  0  0  0  0  0  0  0  0
    1.0056   -3.9454    0.0000 O   0  0  0  0  0  0  0  0  0  0  0  0
    2.7862   -2.0534    0.0000 C   0  0  0  0  0  0  0  0  0  0  0  0
    3.1303   -0.5934    0.0000 C   0  0  0  0  0  0  0  0  0  0  0  0
    4.5667   -0.1614    0.0000 C   0  0  0  0  0  0  0  0  0  0  0  0
    4.9108    1.2986    0.0000 C   0  0  0  0  0  0  0  0  0  0  0  0
    6.3473    1.7305    0.0000 O   0  0  0  0  0  0  0  0  0  0  0  0
    7.4396    0.7025    0.0000 C   0  0  0  0  0  0  0  0  0  0  0  0
    8.8761    1.1345    0.0000 C   0  0  0  0  0  0  0  0  0  0  0  0
    9.9684    0.1065    0.0000 O   0  0  0  0  0  0  0  0  0  0  0  0
    3.8185    2.3266    0.0000 C   0  0  0  0  0  0  0  0  0  0  0  0
    2.3820    1.8946    0.0000 C   0  0  0  0  0  0  0  0  0  0  0  0
    2.0379    0.4346    0.0000 C   0  0  0  0  0  0  0  0  0  0  0  0
    0.9456    1.4626    0.0000 C   0  0  0  0  0  0  0  0  0  0  0  0
    0.6015    0.0026    0.0000 C   0  0  0  0  0  0  0  0  0  0  0  0
   -0.4909    1.0306    0.0000 C   0  0  0  0  0  0  0  0  0  0  0  0
   -1.9273    0.5986    0.0000 C   0  0  0  0  0  0  0  0  0  0  0  0
   -2.2714   -0.8614    0.0000 C   0  0  0  0  0  0  0  0  0  0  0  0
   -3.4652    0.0468    0.0000 C   0  0  0  0  0  0  0  0  0  0  0  0
  2  1  1  6
  2  3  1  0
  3  4  1  0
  4  5  1  0
  5  6  2  0
  5  7  1  0
  2  8  1  0
  8  9  1  6
  9 10  1  0
 11 10  1  6
 11 12  1  0
 12 13  1  1
 13 14  1  6
 13 15  1  0
 16 15  1  1
 16 17  1  0
 17 18  1  0
 18 19  1  1
 19 20  1  0
 20 21  1  0
 21 22  1  0
 18 23  1  0
 23 24  1  0
 24 25  1  0
 25 26  1  6
 25 27  1  0
 27 28  1  6
 28 29  1  0
 29 30  1  0
 30 31  1  6
 30  8  1  0
 30 11  1  0
 27 12  1  0
 25 16  1  0
M  END
>  <MS_ID>  (522) 
MS0546

>  <SMILES>  (522) 
C[C@H](CCC(=O)O)[C@H]1CC[C@H]2[C@@H]3[C@@H](O)C[C@@H]4C[C@H](OCCO)CC[C@]4(C)[C@H]3CC[C@]12C

>  <Structure_dimension>  (522) 
2D

$$$$
MS0547
     RDKit          2D

 29 32  0  0  0  0  0  0  0  0999 V2000
   -5.0303   -2.1373    0.0000 C   0  0  0  0  0  0  0  0  0  0  0  0
   -3.8594   -1.1998    0.0000 C   0  0  0  0  0  0  0  0  0  0  0  0
   -4.0858    0.2830    0.0000 C   0  0  0  0  0  0  0  0  0  0  0  0
   -5.4831    0.8284    0.0000 C   0  0  0  0  0  0  0  0  0  0  0  0
   -5.7095    2.3112    0.0000 C   0  0  0  0  0  0  0  0  0  0  0  0
   -4.5386    3.2487    0.0000 O   0  0  0  0  0  0  0  0  0  0  0  0
   -7.1069    2.8565    0.0000 O   0  0  0  0  0  0  0  0  0  0  0  0
   -2.4620   -1.7451    0.0000 C   0  0  0  0  0  0  0  0  0  0  0  0
   -2.0818   -3.1961    0.0000 C   0  0  0  0  0  0  0  0  0  0  0  0
   -0.5844   -3.2830    0.0000 C   0  0  0  0  0  0  0  0  0  0  0  0
   -0.0390   -1.8856    0.0000 C   0  0  0  0  0  0  0  0  0  0  0  0
    1.3643   -1.3559    0.0000 C   0  0  0  0  0  0  0  0  0  0  0  0
    2.5248   -2.3063    0.0000 C   0  0  0  0  0  0  0  0  0  0  0  0
    2.2819   -3.7865    0.0000 O   0  0  0  0  0  0  0  0  0  0  0  0
    3.9281   -1.7765    0.0000 C   0  0  0  0  0  0  0  0  0  0  0  0
    4.1710   -0.2963    0.0000 C   0  0  0  0  0  0  0  0  0  0  0  0
    5.5743    0.2334    0.0000 C   0  0  0  0  0  0  0  0  0  0  0  0
    5.8172    1.7136    0.0000 C   0  0  0  0  0  0  0  0  0  0  0  0
    7.2205    2.2434    0.0000 F   0  0  0  0  0  0  0  0  0  0  0  0
    4.6568    2.6641    0.0000 C   0  0  0  0  0  0  0  0  0  0  0  0
    3.2534    2.1343    0.0000 C   0  0  0  0  0  0  0  0  0  0  0  0
    3.0105    0.6541    0.0000 C   0  0  0  0  0  0  0  0  0  0  0  0
    1.8501    1.6046    0.0000 C   0  0  0  0  0  0  0  0  0  0  0  0
    1.6072    0.1244    0.0000 C   0  0  0  0  0  0  0  0  0  0  0  0
    0.4467    1.0748    0.0000 C   0  0  0  0  0  0  0  0  0  0  0  0
   -0.9566    0.5450    0.0000 C   0  0  0  0  0  0  0  0  0  0  0  0
   -2.1170    1.4955    0.0000 O   0  0  0  0  0  0  0  0  0  0  0  0
   -1.1995   -0.9352    0.0000 C   0  0  0  0  0  0  0  0  0  0  0  0
   -2.4529   -0.1112    0.0000 C   0  0  0  0  0  0  0  0  0  0  0  0
  2  1  1  6
  2  3  1  0
  3  4  1  0
  4  5  1  0
  5  6  2  0
  5  7  1  0
  2  8  1  0
  8  9  1  6
  9 10  1  0
 11 10  1  6
 11 12  1  0
 12 13  1  1
 13 14  1  1
 13 15  1  0
 16 15  1  1
 16 17  1  0
 17 18  1  0
 18 19  1  1
 18 20  1  0
 20 21  1  0
 21 22  1  0
 22 23  1  6
 22 24  1  0
 24 25  1  6
 25 26  1  0
 26 27  2  0
 26 28  1  0
 28 29  1  6
 28  8  1  0
 28 11  1  0
 24 12  1  0
 22 16  1  0
M  END
>  <MS_ID>  (523) 
MS0547

>  <SMILES>  (523) 
C[C@H](CCC(=O)O)[C@H]1CC[C@H]2[C@@H]3[C@H](O)C[C@@H]4C[C@H](F)CC[C@]4(C)[C@H]3CC(=O)[C@]12C

>  <Structure_dimension>  (523) 
2D

$$$$
MS0548
     RDKit          2D

 33 36  0  0  0  0  0  0  0  0999 V2000
   -3.2878   -3.6766    0.0000 C   0  0  0  0  0  0  0  0  0  0  0  0
   -2.4284   -2.4472    0.0000 C   0  0  0  0  0  0  0  0  0  0  0  0
   -3.0634   -1.0882    0.0000 C   0  0  0  0  0  0  0  0  0  0  0  0
   -4.5578   -0.9586    0.0000 C   0  0  0  0  0  0  0  0  0  0  0  0
   -5.1928    0.4003    0.0000 C   0  0  0  0  0  0  0  0  0  0  0  0
   -4.3333    1.6297    0.0000 O   0  0  0  0  0  0  0  0  0  0  0  0
   -6.6871    0.5299    0.0000 O   0  0  0  0  0  0  0  0  0  0  0  0
   -7.3221    1.8889    0.0000 C   0  0  0  0  0  0  0  0  0  0  0  0
   -8.8165    2.0184    0.0000 C   0  0  0  0  0  0  0  0  0  0  0  0
   -9.4515    3.3774    0.0000 O   0  0  0  0  0  0  0  0  0  0  0  0
   -9.6759    0.7890    0.0000 O   0  0  0  0  0  0  0  0  0  0  0  0
   -0.9340   -2.5767    0.0000 C   0  0  0  0  0  0  0  0  0  0  0  0
   -0.1604   -3.8619    0.0000 C   0  0  0  0  0  0  0  0  0  0  0  0
    1.3009   -3.5233    0.0000 C   0  0  0  0  0  0  0  0  0  0  0  0
    1.4304   -2.0289    0.0000 C   0  0  0  0  0  0  0  0  0  0  0  0
    2.6277   -1.1253    0.0000 C   0  0  0  0  0  0  0  0  0  0  0  0
    4.0089   -1.7103    0.0000 C   0  0  0  0  0  0  0  0  0  0  0  0
    4.1929   -3.1990    0.0000 O   0  0  0  0  0  0  0  0  0  0  0  0
    5.2061   -0.8066    0.0000 C   0  0  0  0  0  0  0  0  0  0  0  0
    6.5874   -1.3916    0.0000 O   0  0  0  0  0  0  0  0  0  0  0  0
    5.0222    0.6820    0.0000 C   0  0  0  0  0  0  0  0  0  0  0  0
    6.2194    1.5857    0.0000 C   0  0  0  0  0  0  0  0  0  0  0  0
    6.0355    3.0744    0.0000 C   0  0  0  0  0  0  0  0  0  0  0  0
    7.2327    3.9780    0.0000 O   0  0  0  0  0  0  0  0  0  0  0  0
    4.6542    3.6594    0.0000 C   0  0  0  0  0  0  0  0  0  0  0  0
    3.4570    2.7557    0.0000 C   0  0  0  0  0  0  0  0  0  0  0  0
    3.6410    1.2671    0.0000 C   0  0  0  0  0  0  0  0  0  0  0  0
    2.2597    1.8521    0.0000 C   0  0  0  0  0  0  0  0  0  0  0  0
    2.4437    0.3634    0.0000 C   0  0  0  0  0  0  0  0  0  0  0  0
    1.0625    0.9484    0.0000 C   0  0  0  0  0  0  0  0  0  0  0  0
   -0.1347    0.0448    0.0000 C   0  0  0  0  0  0  0  0  0  0  0  0
    0.0492   -1.4439    0.0000 C   0  0  0  0  0  0  0  0  0  0  0  0
   -1.3856   -1.0065    0.0000 C   0  0  0  0  0  0  0  0  0  0  0  0
  2  1  1  6
  2  3  1  0
  3  4  1  0
  4  5  1  0
  5  6  2  0
  5  7  1  0
  7  8  1  0
  8  9  1  0
  9 10  1  0
  9 11  1  0
  2 12  1  0
 12 13  1  6
 13 14  1  0
 15 14  1  6
 15 16  1  0
 16 17  1  1
 17 18  1  1
 17 19  1  0
 19 20  1  1
 19 21  1  0
 21 22  1  1
 22 23  1  0
 23 24  1  1
 23 25  1  0
 25 26  1  0
 26 27  1  0
 27 28  1  6
 27 29  1  0
 29 30  1  6
 30 31  1  0
 31 32  1  0
 32 33  1  6
 32 12  1  0
 32 15  1  0
 29 16  1  0
 27 21  1  0
M  END
>  <MS_ID>  (524) 
MS0548

>  <SMILES>  (524) 
C[C@H](CCC(=O)OCC(O)O)[C@H]1CC[C@H]2[C@@H]3[C@H](O)[C@H](O)[C@@H]4C[C@H](O)CC[C@]4(C)[C@H]3CC[C@]12C

>  <Structure_dimension>  (524) 
2D

$$$$
MS0549
     RDKit          2D

 28 31  0  0  0  0  0  0  0  0999 V2000
   -4.6340   -2.3524    0.0000 C   0  0  0  0  0  0  0  0  0  0  0  0
   -3.5242   -1.3434    0.0000 C   0  0  0  0  0  0  0  0  0  0  0  0
   -3.8431    0.1223    0.0000 C   0  0  0  0  0  0  0  0  0  0  0  0
   -5.2720    0.5789    0.0000 C   0  0  0  0  0  0  0  0  0  0  0  0
   -5.5909    2.0446    0.0000 C   0  0  0  0  0  0  0  0  0  0  0  0
   -7.0197    2.5012    0.0000 O   0  0  0  0  0  0  0  0  0  0  0  0
   -4.4811    3.0537    0.0000 S   0  0  0  0  0  0  0  0  0  0  0  0
   -2.0954   -1.8000    0.0000 C   0  0  0  0  0  0  0  0  0  0  0  0
   -1.6249   -3.2243    0.0000 C   0  0  0  0  0  0  0  0  0  0  0  0
   -0.1249   -3.2170    0.0000 C   0  0  0  0  0  0  0  0  0  0  0  0
    0.3317   -1.7882    0.0000 C   0  0  0  0  0  0  0  0  0  0  0  0
    1.6990   -1.1715    0.0000 C   0  0  0  0  0  0  0  0  0  0  0  0
    2.9168   -2.0473    0.0000 C   0  0  0  0  0  0  0  0  0  0  0  0
    2.7672   -3.5398    0.0000 O   0  0  0  0  0  0  0  0  0  0  0  0
    4.2841   -1.4305    0.0000 C   0  0  0  0  0  0  0  0  0  0  0  0
    4.4337    0.0620    0.0000 C   0  0  0  0  0  0  0  0  0  0  0  0
    5.8011    0.6787    0.0000 C   0  0  0  0  0  0  0  0  0  0  0  0
    5.9506    2.1713    0.0000 C   0  0  0  0  0  0  0  0  0  0  0  0
    4.7328    3.0471    0.0000 C   0  0  0  0  0  0  0  0  0  0  0  0
    3.3655    2.4303    0.0000 C   0  0  0  0  0  0  0  0  0  0  0  0
    3.2159    0.9378    0.0000 C   0  0  0  0  0  0  0  0  0  0  0  0
    1.9981    1.8136    0.0000 C   0  0  0  0  0  0  0  0  0  0  0  0
    1.8486    0.3211    0.0000 C   0  0  0  0  0  0  0  0  0  0  0  0
    0.6308    1.1968    0.0000 C   0  0  0  0  0  0  0  0  0  0  0  0
   -0.7366    0.5801    0.0000 C   0  0  0  0  0  0  0  0  0  0  0  0
   -1.9543    1.4559    0.0000 O   0  0  0  0  0  0  0  0  0  0  0  0
   -0.8861   -0.9124    0.0000 C   0  0  0  0  0  0  0  0  0  0  0  0
   -2.1888   -0.1687    0.0000 C   0  0  0  0  0  0  0  0  0  0  0  0
  2  1  1  6
  2  3  1  0
  3  4  1  0
  4  5  1  0
  5  6  2  0
  5  7  1  0
  2  8  1  0
  8  9  1  6
  9 10  1  0
 11 10  1  6
 11 12  1  0
 12 13  1  1
 13 14  1  6
 13 15  1  0
 16 15  1  1
 16 17  1  0
 17 18  1  0
 18 19  1  0
 19 20  1  0
 20 21  1  0
 21 22  1  6
 21 23  1  0
 23 24  1  6
 24 25  1  0
 25 26  1  6
 25 27  1  0
 27 28  1  6
 27  8  1  0
 27 11  1  0
 23 12  1  0
 21 16  1  0
M  END
>  <MS_ID>  (525) 
MS0549

>  <SMILES>  (525) 
C[C@H](CCC(=O)S)[C@H]1CC[C@H]2[C@@H]3[C@@H](O)C[C@@H]4CCCC[C@]4(C)[C@H]3C[C@@H](O)[C@]12C

>  <Structure_dimension>  (525) 
2D

$$$$
MS0550
     RDKit          2D

 30 33  0  0  0  0  0  0  0  0999 V2000
   -4.5685   -2.6908    0.0000 C   0  0  0  0  0  0  0  0  0  0  0  0
   -3.4838   -1.6548    0.0000 C   0  0  0  0  0  0  0  0  0  0  0  0
   -3.8388   -0.1974    0.0000 C   0  0  0  0  0  0  0  0  0  0  0  0
   -5.2784    0.2240    0.0000 C   0  0  0  0  0  0  0  0  0  0  0  0
   -5.6333    1.6814    0.0000 C   0  0  0  0  0  0  0  0  0  0  0  0
   -4.5486    2.7174    0.0000 O   0  0  0  0  0  0  0  0  0  0  0  0
   -7.0729    2.1027    0.0000 C   0  0  0  0  0  0  0  0  0  0  0  0
   -7.4279    3.5601    0.0000 O   0  0  0  0  0  0  0  0  0  0  0  0
   -2.0442   -2.0761    0.0000 C   0  0  0  0  0  0  0  0  0  0  0  0
   -1.5389   -3.4884    0.0000 C   0  0  0  0  0  0  0  0  0  0  0  0
   -0.0395   -3.4442    0.0000 C   0  0  0  0  0  0  0  0  0  0  0  0
    0.3818   -2.0046    0.0000 C   0  0  0  0  0  0  0  0  0  0  0  0
    1.7336   -1.3544    0.0000 C   0  0  0  0  0  0  0  0  0  0  0  0
    2.9725   -2.1999    0.0000 C   0  0  0  0  0  0  0  0  0  0  0  0
    2.8597   -3.6957    0.0000 O   0  0  0  0  0  0  0  0  0  0  0  0
    4.3243   -1.5497    0.0000 C   0  0  0  0  0  0  0  0  0  0  0  0
    4.4371   -0.0540    0.0000 C   0  0  0  0  0  0  0  0  0  0  0  0
    5.7888    0.5962    0.0000 C   0  0  0  0  0  0  0  0  0  0  0  0
    5.9016    2.0920    0.0000 C   0  0  0  0  0  0  0  0  0  0  0  0
    7.2534    2.7422    0.0000 O   0  0  0  0  0  0  0  0  0  0  0  0
    4.6627    2.9375    0.0000 C   0  0  0  0  0  0  0  0  0  0  0  0
    3.3109    2.2873    0.0000 C   0  0  0  0  0  0  0  0  0  0  0  0
    3.1981    0.7916    0.0000 C   0  0  0  0  0  0  0  0  0  0  0  0
    1.9591    1.6371    0.0000 C   0  0  0  0  0  0  0  0  0  0  0  0
    1.8464    0.1414    0.0000 C   0  0  0  0  0  0  0  0  0  0  0  0
    0.6074    0.9869    0.0000 C   0  0  0  0  0  0  0  0  0  0  0  0
   -0.7444    0.3367    0.0000 C   0  0  0  0  0  0  0  0  0  0  0  0
   -1.9833    1.1823    0.0000 O   0  0  0  0  0  0  0  0  0  0  0  0
   -0.8572   -1.1590    0.0000 C   0  0  0  0  0  0  0  0  0  0  0  0
   -2.1777   -0.4476    0.0000 C   0  0  0  0  0  0  0  0  0  0  0  0
  2  1  1  6
  2  3  1  0
  3  4  1  0
  4  5  1  0
  5  6  2  0
  5  7  1  0
  7  8  1  0
  2  9  1  0
  9 10  1  6
 10 11  1  0
 12 11  1  6
 12 13  1  0
 13 14  1  1
 14 15  1  6
 14 16  1  0
 17 16  1  1
 17 18  1  0
 18 19  1  0
 19 20  1  1
 19 21  1  0
 21 22  1  0
 22 23  1  0
 23 24  1  6
 23 25  1  0
 25 26  1  6
 26 27  1  0
 27 28  2  0
 27 29  1  0
 29 30  1  6
 29  9  1  0
 29 12  1  0
 25 13  1  0
 23 17  1  0
M  END
>  <MS_ID>  (526) 
MS0550

>  <SMILES>  (526) 
C[C@H](CCC(=O)CO)[C@H]1CC[C@H]2[C@@H]3[C@@H](O)C[C@@H]4C[C@H](O)CC[C@]4(C)[C@H]3CC(=O)[C@]12C

>  <Structure_dimension>  (526) 
2D

$$$$
MS0551
     RDKit          2D

 32 35  0  0  0  0  0  0  0  0999 V2000
   -3.0592   -3.7169    0.0000 C   0  0  0  0  0  0  0  0  0  0  0  0
   -2.1499   -2.5239    0.0000 C   0  0  0  0  0  0  0  0  0  0  0  0
   -2.7284   -1.1399    0.0000 C   0  0  0  0  0  0  0  0  0  0  0  0
   -4.2162   -0.9489    0.0000 C   0  0  0  0  0  0  0  0  0  0  0  0
   -4.7946    0.4350    0.0000 C   0  0  0  0  0  0  0  0  0  0  0  0
   -3.8853    1.6280    0.0000 O   0  0  0  0  0  0  0  0  0  0  0  0
   -6.2824    0.6260    0.0000 N   0  0  0  0  0  0  0  0  0  0  0  0
   -6.8609    2.0100    0.0000 C   0  0  0  0  0  0  0  0  0  0  0  0
   -8.3487    2.2010    0.0000 C   0  0  0  0  0  0  0  0  0  0  0  0
   -9.2580    1.0080    0.0000 O   0  0  0  0  0  0  0  0  0  0  0  0
   -8.9272    3.5850    0.0000 O   0  0  0  0  0  0  0  0  0  0  0  0
   -0.6621   -2.7149    0.0000 C   0  0  0  0  0  0  0  0  0  0  0  0
    0.0579   -4.0308    0.0000 C   0  0  0  0  0  0  0  0  0  0  0  0
    1.5319   -3.7527    0.0000 C   0  0  0  0  0  0  0  0  0  0  0  0
    1.7229   -2.2649    0.0000 C   0  0  0  0  0  0  0  0  0  0  0  0
    2.9563   -1.4114    0.0000 C   0  0  0  0  0  0  0  0  0  0  0  0
    4.3123   -2.0528    0.0000 C   0  0  0  0  0  0  0  0  0  0  0  0
    5.5457   -1.1992    0.0000 C   0  0  0  0  0  0  0  0  0  0  0  0
    5.4232    0.2958    0.0000 C   0  0  0  0  0  0  0  0  0  0  0  0
    6.6567    1.1494    0.0000 C   0  0  0  0  0  0  0  0  0  0  0  0
    6.5342    2.6444    0.0000 C   0  0  0  0  0  0  0  0  0  0  0  0
    7.7676    3.4980    0.0000 O   0  0  0  0  0  0  0  0  0  0  0  0
    5.1782    3.2858    0.0000 C   0  0  0  0  0  0  0  0  0  0  0  0
    3.9448    2.4322    0.0000 C   0  0  0  0  0  0  0  0  0  0  0  0
    4.0673    0.9372    0.0000 C   0  0  0  0  0  0  0  0  0  0  0  0
    2.7113    1.5786    0.0000 C   0  0  0  0  0  0  0  0  0  0  0  0
    2.8338    0.0836    0.0000 C   0  0  0  0  0  0  0  0  0  0  0  0
    1.4779    0.7250    0.0000 C   0  0  0  0  0  0  0  0  0  0  0  0
    0.2444   -0.1285    0.0000 C   0  0  0  0  0  0  0  0  0  0  0  0
   -1.1115    0.5129    0.0000 O   0  0  0  0  0  0  0  0  0  0  0  0
    0.3669   -1.6235    0.0000 C   0  0  0  0  0  0  0  0  0  0  0  0
   -1.0486   -1.1274    0.0000 C   0  0  0  0  0  0  0  0  0  0  0  0
  2  1  1  6
  2  3  1  0
  3  4  1  0
  4  5  1  0
  5  6  2  0
  5  7  1  0
  7  8  1  0
  8  9  1  0
  9 10  2  0
  9 11  1  0
  2 12  1  0
 12 13  1  6
 13 14  1  0
 15 14  1  6
 15 16  1  0
 16 17  1  1
 17 18  1  0
 19 18  1  1
 19 20  1  0
 20 21  1  0
 21 22  2  0
 21 23  1  0
 23 24  1  0
 24 25  1  0
 25 26  1  6
 25 27  1  0
 27 28  1  6
 28 29  1  0
 29 30  1  1
 29 31  1  0
 31 32  1  6
 31 12  1  0
 31 15  1  0
 27 16  1  0
 25 19  1  0
M  END
>  <MS_ID>  (527) 
MS0551

>  <SMILES>  (527) 
C[C@H](CCC(=O)NCC(=O)O)[C@H]1CC[C@H]2[C@@H]3CC[C@@H]4CC(=O)CC[C@]4(C)[C@H]3C[C@H](O)[C@]12C

>  <Structure_dimension>  (527) 
2D

$$$$
MS0552
     RDKit          2D

 40 44  0  0  0  0  0  0  0  0999 V2000
   -8.8383   -1.4174    0.0000 C   0  0  0  0  0  0  0  0  0  0  0  0
   -7.5340   -0.6766    0.0000 C   0  0  0  0  0  0  0  0  0  0  0  0
   -7.5235    0.8234    0.0000 C   0  0  0  0  0  0  0  0  0  0  0  0
   -8.8172    1.5825    0.0000 C   0  0  0  0  0  0  0  0  0  0  0  0
   -8.8066    3.0825    0.0000 C   0  0  0  0  0  0  0  0  0  0  0  0
   -7.5024    3.8233    0.0000 O   0  0  0  0  0  0  0  0  0  0  0  0
  -10.1004    3.8416    0.0000 O   0  0  0  0  0  0  0  0  0  0  0  0
   -6.2403   -1.4357    0.0000 C   0  0  0  0  0  0  0  0  0  0  0  0
   -6.0940   -2.9285    0.0000 C   0  0  0  0  0  0  0  0  0  0  0  0
   -4.6290   -3.2507    0.0000 C   0  0  0  0  0  0  0  0  0  0  0  0
   -3.8699   -1.9570    0.0000 C   0  0  0  0  0  0  0  0  0  0  0  0
   -2.4005   -1.6554    0.0000 C   0  0  0  0  0  0  0  0  0  0  0  0
   -1.4047   -2.7772    0.0000 C   0  0  0  0  0  0  0  0  0  0  0  0
   -1.8782   -4.2005    0.0000 O   0  0  0  0  0  0  0  0  0  0  0  0
    0.0647   -2.4756    0.0000 C   0  0  0  0  0  0  0  0  0  0  0  0
    0.5383   -1.0524    0.0000 C   0  0  0  0  0  0  0  0  0  0  0  0
    2.0076   -0.7508    0.0000 C   0  0  0  0  0  0  0  0  0  0  0  0
    2.4812    0.6725    0.0000 C   0  0  0  0  0  0  0  0  0  0  0  0
    3.9506    0.9740    0.0000 C   0  0  0  0  0  0  0  0  0  0  0  0
    4.9464   -0.1477    0.0000 O   0  0  0  0  0  0  0  0  0  0  0  0
    6.4158    0.1538    0.0000 C   0  0  0  0  0  0  0  0  0  0  0  0
    7.4116   -0.9679    0.0000 O   0  0  0  0  0  0  0  0  0  0  0  0
    8.8810   -0.6664    0.0000 C   0  0  0  0  0  0  0  0  0  0  0  0
    9.8768   -1.7881    0.0000 C   0  0  0  0  0  0  0  0  0  0  0  0
    9.4033   -3.2114    0.0000 O   0  0  0  0  0  0  0  0  0  0  0  0
    9.3545    0.7569    0.0000 C   0  0  0  0  0  0  0  0  0  0  0  0
   10.8239    1.0585    0.0000 O   0  0  0  0  0  0  0  0  0  0  0  0
    8.3587    1.8787    0.0000 C   0  0  0  0  0  0  0  0  0  0  0  0
    8.8322    3.3019    0.0000 O   0  0  0  0  0  0  0  0  0  0  0  0
    6.8893    1.5771    0.0000 C   0  0  0  0  0  0  0  0  0  0  0  0
    5.8935    2.6989    0.0000 O   0  0  0  0  0  0  0  0  0  0  0  0
    1.4854    1.7942    0.0000 C   0  0  0  0  0  0  0  0  0  0  0  0
    0.0160    1.4927    0.0000 C   0  0  0  0  0  0  0  0  0  0  0  0
   -0.4576    0.0694    0.0000 C   0  0  0  0  0  0  0  0  0  0  0  0
   -1.4534    1.1911    0.0000 C   0  0  0  0  0  0  0  0  0  0  0  0
   -1.9269   -0.2322    0.0000 C   0  0  0  0  0  0  0  0  0  0  0  0
   -2.9228    0.8896    0.0000 C   0  0  0  0  0  0  0  0  0  0  0  0
   -4.3922    0.5881    0.0000 C   0  0  0  0  0  0  0  0  0  0  0  0
   -4.8657   -0.8352    0.0000 C   0  0  0  0  0  0  0  0  0  0  0  0
   -5.9733    0.1763    0.0000 C   0  0  0  0  0  0  0  0  0  0  0  0
  2  1  1  6
  2  3  1  0
  3  4  1  0
  4  5  1  0
  5  6  2  0
  5  7  1  0
  2  8  1  0
  8  9  1  6
  9 10  1  0
 11 10  1  6
 11 12  1  0
 12 13  1  1
 13 14  1  6
 13 15  1  0
 16 15  1  1
 16 17  1  0
 17 18  1  0
 18 19  1  1
 19 20  1  0
 21 20  1  1
 21 22  1  0
 22 23  1  0
 23 24  1  1
 24 25  1  0
 23 26  1  0
 26 27  1  6
 26 28  1  0
 28 29  1  1
 28 30  1  0
 30 31  1  6
 18 32  1  0
 32 33  1  0
 33 34  1  0
 34 35  1  6
 34 36  1  0
 36 37  1  6
 37 38  1  0
 38 39  1  0
 39 40  1  6
 39  8  1  0
 39 11  1  0
 36 12  1  0
 34 16  1  0
 30 21  1  0
M  END
>  <MS_ID>  (528) 
MS0552

>  <SMILES>  (528) 
C[C@H](CCC(=O)O)[C@H]1CC[C@H]2[C@@H]3[C@@H](O)C[C@@H]4C[C@H](CO[C@@H]5O[C@H](CO)[C@@H](O)[C@H](O)[C@H]5O)CC[C@]4(C)[C@H]3CC[C@]12C

>  <Structure_dimension>  (528) 
2D

$$$$
MS0553
     RDKit          2D

 29 32  0  0  0  0  0  0  0  0999 V2000
   -5.0303   -2.1373    0.0000 C   0  0  0  0  0  0  0  0  0  0  0  0
   -3.8594   -1.1998    0.0000 C   0  0  0  0  0  0  0  0  0  0  0  0
   -4.0858    0.2830    0.0000 C   0  0  0  0  0  0  0  0  0  0  0  0
   -5.4831    0.8284    0.0000 C   0  0  0  0  0  0  0  0  0  0  0  0
   -5.7095    2.3112    0.0000 C   0  0  0  0  0  0  0  0  0  0  0  0
   -4.5386    3.2487    0.0000 O   0  0  0  0  0  0  0  0  0  0  0  0
   -7.1069    2.8565    0.0000 O   0  0  0  0  0  0  0  0  0  0  0  0
   -2.4620   -1.7451    0.0000 C   0  0  0  0  0  0  0  0  0  0  0  0
   -2.0818   -3.1961    0.0000 C   0  0  0  0  0  0  0  0  0  0  0  0
   -0.5844   -3.2830    0.0000 C   0  0  0  0  0  0  0  0  0  0  0  0
   -0.0390   -1.8856    0.0000 C   0  0  0  0  0  0  0  0  0  0  0  0
    1.3643   -1.3559    0.0000 C   0  0  0  0  0  0  0  0  0  0  0  0
    2.5248   -2.3063    0.0000 C   0  0  0  0  0  0  0  0  0  0  0  0
    2.2819   -3.7865    0.0000 O   0  0  0  0  0  0  0  0  0  0  0  0
    3.9281   -1.7765    0.0000 C   0  0  0  0  0  0  0  0  0  0  0  0
    4.1710   -0.2963    0.0000 C   0  0  0  0  0  0  0  0  0  0  0  0
    5.5743    0.2334    0.0000 C   0  0  0  0  0  0  0  0  0  0  0  0
    5.8172    1.7136    0.0000 C   0  0  0  0  0  0  0  0  0  0  0  0
    7.2205    2.2434    0.0000 O   0  0  0  0  0  0  0  0  0  0  0  0
    4.6568    2.6641    0.0000 C   0  0  0  0  0  0  0  0  0  0  0  0
    3.2534    2.1343    0.0000 C   0  0  0  0  0  0  0  0  0  0  0  0
    3.0105    0.6541    0.0000 C   0  0  0  0  0  0  0  0  0  0  0  0
    1.8501    1.6046    0.0000 C   0  0  0  0  0  0  0  0  0  0  0  0
    1.6072    0.1244    0.0000 C   0  0  0  0  0  0  0  0  0  0  0  0
    0.4467    1.0748    0.0000 C   0  0  0  0  0  0  0  0  0  0  0  0
   -0.9566    0.5450    0.0000 C   0  0  0  0  0  0  0  0  0  0  0  0
   -2.1170    1.4955    0.0000 O   0  0  0  0  0  0  0  0  0  0  0  0
   -1.1995   -0.9352    0.0000 C   0  0  0  0  0  0  0  0  0  0  0  0
   -2.4529   -0.1112    0.0000 C   0  0  0  0  0  0  0  0  0  0  0  0
  2  1  1  6
  2  3  1  0
  3  4  1  0
  4  5  1  0
  5  6  2  0
  5  7  1  0
  2  8  1  0
  8  9  1  6
  9 10  1  0
 11 10  1  6
 11 12  1  0
 12 13  1  1
 13 14  1  6
 13 15  1  0
 16 15  1  1
 16 17  1  0
 17 18  1  0
 18 19  1  6
 18 20  1  0
 20 21  1  0
 21 22  1  0
 22 23  1  6
 22 24  1  0
 24 25  1  6
 25 26  1  0
 26 27  2  0
 26 28  1  0
 28 29  1  6
 28  8  1  0
 28 11  1  0
 24 12  1  0
 22 16  1  0
M  END
>  <MS_ID>  (529) 
MS0553

>  <SMILES>  (529) 
C[C@H](CCC(=O)O)[C@H]1CC[C@H]2[C@@H]3[C@@H](O)C[C@@H]4C[C@@H](O)CC[C@]4(C)[C@H]3CC(=O)[C@]12C

>  <Structure_dimension>  (529) 
2D

$$$$
MS0554
     RDKit          2D

 31 34  0  0  0  0  0  0  0  0999 V2000
   -4.9948   -2.3959    0.0000 C   0  0  0  0  0  0  0  0  0  0  0  0
   -3.9438   -1.3256    0.0000 C   0  0  0  0  0  0  0  0  0  0  0  0
   -4.3452    0.1197    0.0000 C   0  0  0  0  0  0  0  0  0  0  0  0
   -5.7976    0.4947    0.0000 C   0  0  0  0  0  0  0  0  0  0  0  0
   -6.1990    1.9400    0.0000 C   0  0  0  0  0  0  0  0  0  0  0  0
   -5.1480    3.0103    0.0000 O   0  0  0  0  0  0  0  0  0  0  0  0
   -7.6514    2.3150    0.0000 O   0  0  0  0  0  0  0  0  0  0  0  0
   -2.4914   -1.7006    0.0000 C   0  0  0  0  0  0  0  0  0  0  0  0
   -1.9412   -3.0960    0.0000 C   0  0  0  0  0  0  0  0  0  0  0  0
   -0.4440   -3.0039    0.0000 C   0  0  0  0  0  0  0  0  0  0  0  0
   -0.0690   -1.5515    0.0000 C   0  0  0  0  0  0  0  0  0  0  0  0
    1.2613   -0.8584    0.0000 C   0  0  0  0  0  0  0  0  0  0  0  0
    2.5267   -1.6638    0.0000 C   0  0  0  0  0  0  0  0  0  0  0  0
    2.4618   -3.1624    0.0000 O   0  0  0  0  0  0  0  0  0  0  0  0
    3.7272   -3.9679    0.0000 C   0  0  0  0  0  0  0  0  0  0  0  0
    3.6624   -5.4665    0.0000 O   0  0  0  0  0  0  0  0  0  0  0  0
    3.8569   -0.9707    0.0000 C   0  0  0  0  0  0  0  0  0  0  0  0
    3.9218    0.5279    0.0000 C   0  0  0  0  0  0  0  0  0  0  0  0
    5.2520    1.2210    0.0000 C   0  0  0  0  0  0  0  0  0  0  0  0
    5.3169    2.7196    0.0000 C   0  0  0  0  0  0  0  0  0  0  0  0
    6.6471    3.4128    0.0000 O   0  0  0  0  0  0  0  0  0  0  0  0
    4.0515    3.5251    0.0000 C   0  0  0  0  0  0  0  0  0  0  0  0
    2.7212    2.8319    0.0000 C   0  0  0  0  0  0  0  0  0  0  0  0
    2.6564    1.3334    0.0000 C   0  0  0  0  0  0  0  0  0  0  0  0
    1.3910    2.1388    0.0000 C   0  0  0  0  0  0  0  0  0  0  0  0
    1.3261    0.6402    0.0000 C   0  0  0  0  0  0  0  0  0  0  0  0
    0.0607    1.4457    0.0000 C   0  0  0  0  0  0  0  0  0  0  0  0
   -1.2695    0.7525    0.0000 C   0  0  0  0  0  0  0  0  0  0  0  0
   -2.5349    1.5580    0.0000 O   0  0  0  0  0  0  0  0  0  0  0  0
   -1.3344   -0.7460    0.0000 C   0  0  0  0  0  0  0  0  0  0  0  0
   -2.6770   -0.0773    0.0000 C   0  0  0  0  0  0  0  0  0  0  0  0
  2  1  1  6
  2  3  1  0
  3  4  1  0
  4  5  1  0
  5  6  2  0
  5  7  1  0
  2  8  1  0
  8  9  1  6
  9 10  1  0
 11 10  1  6
 11 12  1  0
 12 13  1  1
 13 14  1  1
 14 15  1  0
 15 16  2  0
 13 17  1  0
 18 17  1  1
 18 19  1  0
 19 20  1  0
 20 21  1  1
 20 22  1  0
 22 23  1  0
 23 24  1  0
 24 25  1  6
 24 26  1  0
 26 27  1  6
 27 28  1  0
 28 29  1  1
 28 30  1  0
 30 31  1  6
 30  8  1  0
 30 11  1  0
 26 12  1  0
 24 18  1  0
M  END
>  <MS_ID>  (530) 
MS0554

>  <SMILES>  (530) 
C[C@H](CCC(=O)O)[C@H]1CC[C@H]2[C@@H]3[C@H](OC=O)C[C@@H]4C[C@H](O)CC[C@]4(C)[C@H]3C[C@H](O)[C@]12C

>  <Structure_dimension>  (530) 
2D

$$$$
MS0555
     RDKit          2D

 30 33  0  0  0  0  0  0  0  0999 V2000
   -7.3580   -1.7916    0.0000 C   0  0  0  0  0  0  0  0  0  0  0  0
   -6.1196   -0.9452    0.0000 C   0  0  0  0  0  0  0  0  0  0  0  0
   -4.7674   -1.5945    0.0000 C   0  0  0  0  0  0  0  0  0  0  0  0
   -3.5290   -0.7481    0.0000 C   0  0  0  0  0  0  0  0  0  0  0  0
   -3.6427    0.7475    0.0000 C   0  0  0  0  0  0  0  0  0  0  0  0
   -4.9949    1.3968    0.0000 C   0  0  0  0  0  0  0  0  0  0  0  0
   -5.1087    2.8925    0.0000 C   0  0  0  0  0  0  0  0  0  0  0  0
   -3.8703    3.7389    0.0000 O   0  0  0  0  0  0  0  0  0  0  0  0
   -6.4609    3.5418    0.0000 O   0  0  0  0  0  0  0  0  0  0  0  0
   -2.1768   -1.3975    0.0000 C   0  0  0  0  0  0  0  0  0  0  0  0
   -1.9073   -2.8731    0.0000 C   0  0  0  0  0  0  0  0  0  0  0  0
   -0.4207   -3.0727    0.0000 C   0  0  0  0  0  0  0  0  0  0  0  0
    0.2286   -1.7206    0.0000 C   0  0  0  0  0  0  0  0  0  0  0  0
    1.6680   -1.2983    0.0000 C   0  0  0  0  0  0  0  0  0  0  0  0
    2.7533   -2.3337    0.0000 C   0  0  0  0  0  0  0  0  0  0  0  0
    2.3993   -3.7913    0.0000 O   0  0  0  0  0  0  0  0  0  0  0  0
    4.1927   -1.9115    0.0000 C   0  0  0  0  0  0  0  0  0  0  0  0
    4.5467   -0.4538    0.0000 C   0  0  0  0  0  0  0  0  0  0  0  0
    5.9860   -0.0316    0.0000 C   0  0  0  0  0  0  0  0  0  0  0  0
    6.3400    1.4261    0.0000 C   0  0  0  0  0  0  0  0  0  0  0  0
    7.7794    1.8483    0.0000 O   0  0  0  0  0  0  0  0  0  0  0  0
    5.2547    2.4614    0.0000 C   0  0  0  0  0  0  0  0  0  0  0  0
    3.8153    2.0392    0.0000 C   0  0  0  0  0  0  0  0  0  0  0  0
    3.4613    0.5816    0.0000 C   0  0  0  0  0  0  0  0  0  0  0  0
    2.3760    1.6169    0.0000 C   0  0  0  0  0  0  0  0  0  0  0  0
    2.0220    0.1593    0.0000 C   0  0  0  0  0  0  0  0  0  0  0  0
    0.9366    1.1947    0.0000 C   0  0  0  0  0  0  0  0  0  0  0  0
   -0.5027    0.7724    0.0000 C   0  0  0  0  0  0  0  0  0  0  0  0
   -0.8567   -0.6852    0.0000 C   0  0  0  0  0  0  0  0  0  0  0  0
   -2.0443    0.2311    0.0000 C   0  0  0  0  0  0  0  0  0  0  0  0
  1  2  1  0
  2  3  1  0
  4  3  1  6
  4  5  1  0
  5  6  1  0
  6  7  1  0
  7  8  2  0
  7  9  1  0
  4 10  1  0
 10 11  1  6
 11 12  1  0
 13 12  1  6
 13 14  1  0
 14 15  1  1
 15 16  1  6
 15 17  1  0
 18 17  1  1
 18 19  1  0
 19 20  1  0
 20 21  1  1
 20 22  1  0
 22 23  1  0
 23 24  1  0
 24 25  1  6
 24 26  1  0
 26 27  1  6
 27 28  1  0
 28 29  1  0
 29 30  1  6
 29 10  1  0
 29 13  1  0
 26 14  1  0
 24 18  1  0
M  END
>  <MS_ID>  (531) 
MS0555

>  <SMILES>  (531) 
CCC[C@H](CCC(=O)O)[C@H]1CC[C@H]2[C@@H]3[C@@H](O)C[C@@H]4C[C@H](O)CC[C@]4(C)[C@H]3CC[C@]12C

>  <Structure_dimension>  (531) 
2D

$$$$
MS0556
     RDKit          2D

 36 40  0  0  0  0  0  0  0  0999 V2000
   -1.4753   -4.0971    0.0000 C   0  0  0  0  0  0  0  0  0  0  0  0
   -0.7153   -2.8039    0.0000 C   0  0  0  0  0  0  0  0  0  0  0  0
   -1.4552   -1.4991    0.0000 C   0  0  0  0  0  0  0  0  0  0  0  0
   -2.9552   -1.4875    0.0000 C   0  0  0  0  0  0  0  0  0  0  0  0
   -3.6951   -0.1827    0.0000 C   0  0  0  0  0  0  0  0  0  0  0  0
   -2.9351    1.1105    0.0000 O   0  0  0  0  0  0  0  0  0  0  0  0
   -5.1951   -0.1712    0.0000 N   0  0  0  0  0  0  0  0  0  0  0  0
   -5.9351    1.1336    0.0000 C   0  0  0  0  0  0  0  0  0  0  0  0
   -7.4350    1.1452    0.0000 C   0  0  0  0  0  0  0  0  0  0  0  0
   -8.1750    2.4500    0.0000 C   0  0  0  0  0  0  0  0  0  0  0  0
   -9.6749    2.4615    0.0000 C   0  0  0  0  0  0  0  0  0  0  0  0
  -10.4349    1.1683    0.0000 C   0  0  0  0  0  0  0  0  0  0  0  0
  -11.9349    1.1799    0.0000 O   0  0  0  0  0  0  0  0  0  0  0  0
   -9.6950   -0.1365    0.0000 C   0  0  0  0  0  0  0  0  0  0  0  0
   -8.1950   -0.1480    0.0000 C   0  0  0  0  0  0  0  0  0  0  0  0
    0.7847   -2.8154    0.0000 C   0  0  0  0  0  0  0  0  0  0  0  0
    1.6570   -4.0357    0.0000 C   0  0  0  0  0  0  0  0  0  0  0  0
    3.0871   -3.5832    0.0000 C   0  0  0  0  0  0  0  0  0  0  0  0
    3.0987   -2.0833    0.0000 C   0  0  0  0  0  0  0  0  0  0  0  0
    4.2211   -1.0882    0.0000 C   0  0  0  0  0  0  0  0  0  0  0  0
    5.6441   -1.5627    0.0000 C   0  0  0  0  0  0  0  0  0  0  0  0
    5.9446   -3.0323    0.0000 O   0  0  0  0  0  0  0  0  0  0  0  0
    6.7665   -0.5677    0.0000 C   0  0  0  0  0  0  0  0  0  0  0  0
    6.4659    0.9019    0.0000 C   0  0  0  0  0  0  0  0  0  0  0  0
    7.5884    1.8970    0.0000 C   0  0  0  0  0  0  0  0  0  0  0  0
    7.2878    3.3666    0.0000 C   0  0  0  0  0  0  0  0  0  0  0  0
    8.4103    4.3616    0.0000 O   0  0  0  0  0  0  0  0  0  0  0  0
    5.8649    3.8411    0.0000 C   0  0  0  0  0  0  0  0  0  0  0  0
    4.7424    2.8460    0.0000 C   0  0  0  0  0  0  0  0  0  0  0  0
    5.0430    1.3764    0.0000 C   0  0  0  0  0  0  0  0  0  0  0  0
    3.6200    1.8510    0.0000 C   0  0  0  0  0  0  0  0  0  0  0  0
    3.9205    0.3814    0.0000 C   0  0  0  0  0  0  0  0  0  0  0  0
    2.4976    0.8559    0.0000 C   0  0  0  0  0  0  0  0  0  0  0  0
    1.3752   -0.1392    0.0000 C   0  0  0  0  0  0  0  0  0  0  0  0
    1.6757   -1.6088    0.0000 C   0  0  0  0  0  0  0  0  0  0  0  0
    0.2109   -1.2856    0.0000 C   0  0  0  0  0  0  0  0  0  0  0  0
  2  1  1  6
  2  3  1  0
  3  4  1  0
  4  5  1  0
  5  6  2  0
  5  7  1  0
  7  8  1  0
  8  9  1  0
  9 10  2  0
 10 11  1  0
 11 12  2  0
 12 13  1  0
 12 14  1  0
 14 15  2  0
  2 16  1  0
 16 17  1  6
 17 18  1  0
 19 18  1  6
 19 20  1  0
 20 21  1  1
 21 22  1  1
 21 23  1  0
 24 23  1  1
 24 25  1  0
 25 26  1  0
 26 27  1  1
 26 28  1  0
 28 29  1  0
 29 30  1  0
 30 31  1  6
 30 32  1  0
 32 33  1  6
 33 34  1  0
 34 35  1  0
 35 36  1  6
 15  9  1  0
 35 16  1  0
 35 19  1  0
 32 20  1  0
 30 24  1  0
M  END
>  <MS_ID>  (532) 
MS0556

>  <SMILES>  (532) 
C[C@H](CCC(=O)NCc1ccc(O)cc1)[C@H]1CC[C@H]2[C@@H]3[C@H](O)C[C@@H]4C[C@H](O)CC[C@]4(C)[C@H]3CC[C@]12C

>  <Structure_dimension>  (532) 
2D

$$$$
MS0557
     RDKit          2D

 30 33  0  0  0  0  0  0  0  0999 V2000
   -5.3676   -2.0337    0.0000 C   0  0  0  0  0  0  0  0  0  0  0  0
   -4.1713   -1.1288    0.0000 C   0  0  0  0  0  0  0  0  0  0  0  0
   -4.3569    0.3597    0.0000 C   0  0  0  0  0  0  0  0  0  0  0  0
   -5.7388    0.9432    0.0000 C   0  0  0  0  0  0  0  0  0  0  0  0
   -5.9244    2.4317    0.0000 C   0  0  0  0  0  0  0  0  0  0  0  0
   -4.7281    3.3367    0.0000 O   0  0  0  0  0  0  0  0  0  0  0  0
   -7.3062    3.0152    0.0000 O   0  0  0  0  0  0  0  0  0  0  0  0
   -2.7894   -1.7123    0.0000 C   0  0  0  0  0  0  0  0  0  0  0  0
   -2.4493   -3.1732    0.0000 C   0  0  0  0  0  0  0  0  0  0  0  0
   -0.9547   -3.3011    0.0000 C   0  0  0  0  0  0  0  0  0  0  0  0
   -0.3712   -1.9192    0.0000 C   0  0  0  0  0  0  0  0  0  0  0  0
    1.0461   -1.4282    0.0000 C   0  0  0  0  0  0  0  0  0  0  0  0
    2.1800   -2.4102    0.0000 C   0  0  0  0  0  0  0  0  0  0  0  0
    1.8966   -3.8832    0.0000 O   0  0  0  0  0  0  0  0  0  0  0  0
    3.5974   -1.9192    0.0000 C   0  0  0  0  0  0  0  0  0  0  0  0
    3.8808   -0.4462    0.0000 C   0  0  0  0  0  0  0  0  0  0  0  0
    5.2982    0.0448    0.0000 C   0  0  0  0  0  0  0  0  0  0  0  0
    5.5816    1.5178    0.0000 C   0  0  0  0  0  0  0  0  0  0  0  0
    6.9990    2.0088    0.0000 C   0  0  0  0  0  0  0  0  0  0  0  0
    8.1329    1.0269    0.0000 O   0  0  0  0  0  0  0  0  0  0  0  0
    4.4477    2.4998    0.0000 C   0  0  0  0  0  0  0  0  0  0  0  0
    3.0304    2.0087    0.0000 C   0  0  0  0  0  0  0  0  0  0  0  0
    2.7469    0.5358    0.0000 C   0  0  0  0  0  0  0  0  0  0  0  0
    1.6130    1.5177    0.0000 C   0  0  0  0  0  0  0  0  0  0  0  0
    1.3296    0.0448    0.0000 C   0  0  0  0  0  0  0  0  0  0  0  0
    0.1957    1.0267    0.0000 C   0  0  0  0  0  0  0  0  0  0  0  0
   -1.2217    0.5357    0.0000 C   0  0  0  0  0  0  0  0  0  0  0  0
   -2.3556    1.5177    0.0000 O   0  0  0  0  0  0  0  0  0  0  0  0
   -1.5052   -0.9373    0.0000 C   0  0  0  0  0  0  0  0  0  0  0  0
   -2.7355   -0.0792    0.0000 C   0  0  0  0  0  0  0  0  0  0  0  0
  2  1  1  6
  2  3  1  0
  3  4  1  0
  4  5  1  0
  5  6  2  0
  5  7  1  0
  2  8  1  0
  8  9  1  6
  9 10  1  0
 11 10  1  6
 11 12  1  0
 12 13  1  1
 13 14  1  1
 13 15  1  0
 16 15  1  1
 16 17  1  0
 17 18  1  0
 18 19  1  1
 19 20  1  0
 18 21  1  0
 21 22  1  0
 22 23  1  0
 23 24  1  6
 23 25  1  0
 25 26  1  6
 26 27  1  0
 27 28  1  6
 27 29  1  0
 29 30  1  6
 29  8  1  0
 29 11  1  0
 25 12  1  0
 23 16  1  0
M  END
>  <MS_ID>  (533) 
MS0557

>  <SMILES>  (533) 
C[C@H](CCC(=O)O)[C@H]1CC[C@H]2[C@@H]3[C@H](O)C[C@@H]4C[C@H](CO)CC[C@]4(C)[C@H]3C[C@@H](O)[C@]12C

>  <Structure_dimension>  (533) 
2D

$$$$
MS0558
     RDKit          2D

 34 37  0  0  0  0  0  0  0  0999 V2000
   -2.4592   -4.0923    0.0000 C   0  0  0  0  0  0  0  0  0  0  0  0
   -1.6735   -2.8146    0.0000 C   0  0  0  0  0  0  0  0  0  0  0  0
   -2.3871   -1.4952    0.0000 C   0  0  0  0  0  0  0  0  0  0  0  0
   -3.8865   -1.4536    0.0000 C   0  0  0  0  0  0  0  0  0  0  0  0
   -4.6002   -0.1343    0.0000 C   0  0  0  0  0  0  0  0  0  0  0  0
   -3.8145    1.1434    0.0000 O   0  0  0  0  0  0  0  0  0  0  0  0
   -6.0996   -0.0927    0.0000 N   0  0  0  0  0  0  0  0  0  0  0  0
   -6.8133    1.2267    0.0000 C   0  0  0  0  0  0  0  0  0  0  0  0
   -6.0276    2.5044    0.0000 C   0  0  0  0  0  0  0  0  0  0  0  0
   -6.7412    3.8238    0.0000 S   0  0  0  0  0  0  0  0  0  0  0  0
   -8.3127    1.2683    0.0000 C   0  0  0  0  0  0  0  0  0  0  0  0
   -9.0985   -0.0094    0.0000 O   0  0  0  0  0  0  0  0  0  0  0  0
   -9.0264    2.5876    0.0000 O   0  0  0  0  0  0  0  0  0  0  0  0
   -0.1740   -2.8562    0.0000 C   0  0  0  0  0  0  0  0  0  0  0  0
    0.6736   -4.0937    0.0000 C   0  0  0  0  0  0  0  0  0  0  0  0
    2.1125   -3.6700    0.0000 C   0  0  0  0  0  0  0  0  0  0  0  0
    2.1541   -2.1705    0.0000 C   0  0  0  0  0  0  0  0  0  0  0  0
    3.2963   -1.1982    0.0000 C   0  0  0  0  0  0  0  0  0  0  0  0
    4.7095   -1.7011    0.0000 C   0  0  0  0  0  0  0  0  0  0  0  0
    4.9805   -3.1764    0.0000 O   0  0  0  0  0  0  0  0  0  0  0  0
    5.8516   -0.7287    0.0000 C   0  0  0  0  0  0  0  0  0  0  0  0
    5.5806    0.7466    0.0000 C   0  0  0  0  0  0  0  0  0  0  0  0
    6.7227    1.7190    0.0000 C   0  0  0  0  0  0  0  0  0  0  0  0
    6.4517    3.1943    0.0000 C   0  0  0  0  0  0  0  0  0  0  0  0
    7.5938    4.1667    0.0000 O   0  0  0  0  0  0  0  0  0  0  0  0
    5.0385    3.6972    0.0000 C   0  0  0  0  0  0  0  0  0  0  0  0
    3.8963    2.7248    0.0000 C   0  0  0  0  0  0  0  0  0  0  0  0
    4.1674    1.2495    0.0000 C   0  0  0  0  0  0  0  0  0  0  0  0
    2.7542    1.7525    0.0000 C   0  0  0  0  0  0  0  0  0  0  0  0
    3.0252    0.2771    0.0000 C   0  0  0  0  0  0  0  0  0  0  0  0
    1.6121    0.7801    0.0000 C   0  0  0  0  0  0  0  0  0  0  0  0
    0.4699   -0.1923    0.0000 C   0  0  0  0  0  0  0  0  0  0  0  0
    0.7410   -1.6676    0.0000 C   0  0  0  0  0  0  0  0  0  0  0  0
   -0.7170   -1.3152    0.0000 C   0  0  0  0  0  0  0  0  0  0  0  0
  2  1  1  6
  2  3  1  0
  3  4  1  0
  4  5  1  0
  5  6  2  0
  5  7  1  0
  7  8  1  0
  8  9  1  6
  9 10  1  0
  8 11  1  0
 11 12  2  0
 11 13  1  0
  2 14  1  0
 14 15  1  6
 15 16  1  0
 17 16  1  6
 17 18  1  0
 18 19  1  1
 19 20  1  6
 19 21  1  0
 22 21  1  1
 22 23  1  0
 23 24  1  0
 24 25  1  1
 24 26  1  0
 26 27  1  0
 27 28  1  0
 28 29  1  6
 28 30  1  0
 30 31  1  6
 31 32  1  0
 32 33  1  0
 33 34  1  6
 33 14  1  0
 33 17  1  0
 30 18  1  0
 28 22  1  0
M  END
>  <MS_ID>  (534) 
MS0558

>  <SMILES>  (534) 
C[C@H](CCC(=O)N[C@@H](CS)C(=O)O)[C@H]1CC[C@H]2[C@@H]3[C@@H](O)C[C@@H]4C[C@H](O)CC[C@]4(C)[C@H]3CC[C@]12C

>  <Structure_dimension>  (534) 
2D

$$$$
MS0559
     RDKit          2D

 32 35  0  0  0  0  0  0  0  0999 V2000
   -3.4546   -3.6059    0.0000 C   0  0  0  0  0  0  0  0  0  0  0  0
   -2.5561   -2.4048    0.0000 C   0  0  0  0  0  0  0  0  0  0  0  0
   -3.1471   -1.0261    0.0000 C   0  0  0  0  0  0  0  0  0  0  0  0
   -4.6366   -0.8486    0.0000 C   0  0  0  0  0  0  0  0  0  0  0  0
   -5.2276    0.5301    0.0000 C   0  0  0  0  0  0  0  0  0  0  0  0
   -4.3291    1.7312    0.0000 O   0  0  0  0  0  0  0  0  0  0  0  0
   -6.7170    0.7076    0.0000 O   0  0  0  0  0  0  0  0  0  0  0  0
   -7.3080    2.0863    0.0000 C   0  0  0  0  0  0  0  0  0  0  0  0
   -8.7975    2.2638    0.0000 C   0  0  0  0  0  0  0  0  0  0  0  0
   -9.3885    3.6424    0.0000 N   0  0  0  0  0  0  0  0  0  0  0  0
   -1.0667   -2.5823    0.0000 C   0  0  0  0  0  0  0  0  0  0  0  0
   -0.3348   -3.8917    0.0000 C   0  0  0  0  0  0  0  0  0  0  0  0
    1.1366   -3.6002    0.0000 C   0  0  0  0  0  0  0  0  0  0  0  0
    1.3141   -2.1108    0.0000 C   0  0  0  0  0  0  0  0  0  0  0  0
    2.5398   -1.2460    0.0000 C   0  0  0  0  0  0  0  0  0  0  0  0
    3.9015   -1.8751    0.0000 C   0  0  0  0  0  0  0  0  0  0  0  0
    4.0375   -3.3690    0.0000 O   0  0  0  0  0  0  0  0  0  0  0  0
    5.1272   -1.0104    0.0000 C   0  0  0  0  0  0  0  0  0  0  0  0
    4.9911    0.4834    0.0000 C   0  0  0  0  0  0  0  0  0  0  0  0
    6.2168    1.3481    0.0000 C   0  0  0  0  0  0  0  0  0  0  0  0
    6.0808    2.8419    0.0000 C   0  0  0  0  0  0  0  0  0  0  0  0
    7.3064    3.7067    0.0000 O   0  0  0  0  0  0  0  0  0  0  0  0
    4.7191    3.4710    0.0000 C   0  0  0  0  0  0  0  0  0  0  0  0
    3.4934    2.6063    0.0000 C   0  0  0  0  0  0  0  0  0  0  0  0
    3.6294    1.1125    0.0000 C   0  0  0  0  0  0  0  0  0  0  0  0
    2.2677    1.7416    0.0000 C   0  0  0  0  0  0  0  0  0  0  0  0
    2.4038    0.2478    0.0000 C   0  0  0  0  0  0  0  0  0  0  0  0
    1.0421    0.8769    0.0000 C   0  0  0  0  0  0  0  0  0  0  0  0
   -0.1836    0.0122    0.0000 C   0  0  0  0  0  0  0  0  0  0  0  0
   -1.5453    0.6413    0.0000 O   0  0  0  0  0  0  0  0  0  0  0  0
   -0.0476   -1.4817    0.0000 C   0  0  0  0  0  0  0  0  0  0  0  0
   -1.4676   -0.9983    0.0000 C   0  0  0  0  0  0  0  0  0  0  0  0
  2  1  1  6
  2  3  1  0
  3  4  1  0
  4  5  1  0
  5  6  2  0
  5  7  1  0
  7  8  1  0
  8  9  1  0
  9 10  1  0
  2 11  1  0
 11 12  1  6
 12 13  1  0
 14 13  1  6
 14 15  1  0
 15 16  1  1
 16 17  1  1
 16 18  1  0
 19 18  1  1
 19 20  1  0
 20 21  1  0
 21 22  2  0
 21 23  1  0
 23 24  1  0
 24 25  1  0
 25 26  1  6
 25 27  1  0
 27 28  1  6
 28 29  1  0
 29 30  1  1
 29 31  1  0
 31 32  1  6
 31 11  1  0
 31 14  1  0
 27 15  1  0
 25 19  1  0
M  END
>  <MS_ID>  (535) 
MS0559

>  <SMILES>  (535) 
C[C@H](CCC(=O)OCCN)[C@H]1CC[C@H]2[C@@H]3[C@H](O)C[C@@H]4CC(=O)CC[C@]4(C)[C@H]3C[C@H](O)[C@]12C

>  <Structure_dimension>  (535) 
2D

$$$$
MS0560
     RDKit          2D

 39 43  0  0  0  0  0  0  0  0999 V2000
   -7.6510   -2.0504    0.0000 C   0  0  0  0  0  0  0  0  0  0  0  0
   -6.4615   -1.1366    0.0000 C   0  0  0  0  0  0  0  0  0  0  0  0
   -6.6581    0.3505    0.0000 C   0  0  0  0  0  0  0  0  0  0  0  0
   -8.0442    0.9238    0.0000 C   0  0  0  0  0  0  0  0  0  0  0  0
   -8.2408    2.4108    0.0000 C   0  0  0  0  0  0  0  0  0  0  0  0
   -7.0513    3.3246    0.0000 O   0  0  0  0  0  0  0  0  0  0  0  0
   -9.6270    2.9841    0.0000 O   0  0  0  0  0  0  0  0  0  0  0  0
   -5.0754   -1.7098    0.0000 C   0  0  0  0  0  0  0  0  0  0  0  0
   -4.7244   -3.1682    0.0000 C   0  0  0  0  0  0  0  0  0  0  0  0
   -3.2289   -3.2851    0.0000 C   0  0  0  0  0  0  0  0  0  0  0  0
   -2.6557   -1.8989    0.0000 C   0  0  0  0  0  0  0  0  0  0  0  0
   -1.2420   -1.3975    0.0000 C   0  0  0  0  0  0  0  0  0  0  0  0
   -0.1008   -2.3710    0.0000 C   0  0  0  0  0  0  0  0  0  0  0  0
   -0.3734   -3.8460    0.0000 O   0  0  0  0  0  0  0  0  0  0  0  0
    1.3128   -1.8695    0.0000 C   0  0  0  0  0  0  0  0  0  0  0  0
    1.5854   -0.3945    0.0000 C   0  0  0  0  0  0  0  0  0  0  0  0
    2.9991    0.1070    0.0000 C   0  0  0  0  0  0  0  0  0  0  0  0
    3.2716    1.5820    0.0000 C   0  0  0  0  0  0  0  0  0  0  0  0
    4.6853    2.0835    0.0000 O   0  0  0  0  0  0  0  0  0  0  0  0
    5.8265    1.1100    0.0000 C   0  0  0  0  0  0  0  0  0  0  0  0
    5.5539   -0.3651    0.0000 O   0  0  0  0  0  0  0  0  0  0  0  0
    6.6950   -1.3386    0.0000 C   0  0  0  0  0  0  0  0  0  0  0  0
    6.4225   -2.8136    0.0000 C   0  0  0  0  0  0  0  0  0  0  0  0
    8.1087   -0.8371    0.0000 C   0  0  0  0  0  0  0  0  0  0  0  0
    9.2499   -1.8107    0.0000 O   0  0  0  0  0  0  0  0  0  0  0  0
    8.3813    0.6379    0.0000 C   0  0  0  0  0  0  0  0  0  0  0  0
    9.7950    1.1394    0.0000 O   0  0  0  0  0  0  0  0  0  0  0  0
    7.2401    1.6114    0.0000 C   0  0  0  0  0  0  0  0  0  0  0  0
    7.5127    3.0865    0.0000 O   0  0  0  0  0  0  0  0  0  0  0  0
    2.1305    2.5556    0.0000 C   0  0  0  0  0  0  0  0  0  0  0  0
    0.7168    2.0541    0.0000 C   0  0  0  0  0  0  0  0  0  0  0  0
    0.4442    0.5791    0.0000 C   0  0  0  0  0  0  0  0  0  0  0  0
   -0.6969    1.5526    0.0000 C   0  0  0  0  0  0  0  0  0  0  0  0
   -0.9694    0.0776    0.0000 C   0  0  0  0  0  0  0  0  0  0  0  0
   -2.1106    1.0511    0.0000 C   0  0  0  0  0  0  0  0  0  0  0  0
   -3.5243    0.5496    0.0000 C   0  0  0  0  0  0  0  0  0  0  0  0
   -4.6654    1.5232    0.0000 O   0  0  0  0  0  0  0  0  0  0  0  0
   -3.7968   -0.9254    0.0000 C   0  0  0  0  0  0  0  0  0  0  0  0
   -5.0335   -0.0765    0.0000 C   0  0  0  0  0  0  0  0  0  0  0  0
  2  1  1  6
  2  3  1  0
  3  4  1  0
  4  5  1  0
  5  6  2  0
  5  7  1  0
  2  8  1  0
  8  9  1  6
  9 10  1  0
 11 10  1  6
 11 12  1  0
 12 13  1  1
 13 14  1  1
 13 15  1  0
 16 15  1  1
 16 17  1  0
 17 18  1  0
 18 19  1  1
 20 19  1  1
 20 21  1  0
 21 22  1  0
 22 23  1  6
 22 24  1  0
 24 25  1  1
 24 26  1  0
 26 27  1  1
 26 28  1  0
 28 29  1  6
 18 30  1  0
 30 31  1  0
 31 32  1  0
 32 33  1  6
 32 34  1  0
 34 35  1  6
 35 36  1  0
 36 37  1  1
 36 38  1  0
 38 39  1  6
 38  8  1  0
 38 11  1  0
 34 12  1  0
 32 16  1  0
 28 20  1  0
M  END
>  <MS_ID>  (536) 
MS0560

>  <SMILES>  (536) 
C[C@H](CCC(=O)O)[C@H]1CC[C@H]2[C@@H]3[C@H](O)C[C@@H]4C[C@H](O[C@@H]5O[C@@H](C)[C@H](O)[C@H](O)[C@H]5O)CC[C@]4(C)[C@H]3C[C@H](O)[C@]12C

>  <Structure_dimension>  (536) 
2D

$$$$
MS0561
     RDKit          2D

 28 31  0  0  0  0  0  0  0  0999 V2000
   -7.4469    3.2631    0.0000 C   0  0  0  0  0  0  0  0  0  0  0  0
   -7.0059    1.8294    0.0000 O   0  0  0  0  0  0  0  0  0  0  0  0
   -5.5438    1.4944    0.0000 C   0  0  0  0  0  0  0  0  0  0  0  0
   -4.5227    2.5932    0.0000 O   0  0  0  0  0  0  0  0  0  0  0  0
   -5.1028    0.0607    0.0000 C   0  0  0  0  0  0  0  0  0  0  0  0
   -3.6407   -0.2742    0.0000 C   0  0  0  0  0  0  0  0  0  0  0  0
   -3.1997   -1.7079    0.0000 C   0  0  0  0  0  0  0  0  0  0  0  0
   -4.2208   -2.8067    0.0000 C   0  0  0  0  0  0  0  0  0  0  0  0
   -1.7376   -2.0429    0.0000 C   0  0  0  0  0  0  0  0  0  0  0  0
   -1.1491   -3.4226    0.0000 C   0  0  0  0  0  0  0  0  0  0  0  0
    0.3450   -3.2894    0.0000 C   0  0  0  0  0  0  0  0  0  0  0  0
    0.6799   -1.8272    0.0000 C   0  0  0  0  0  0  0  0  0  0  0  0
    1.9906   -1.0978    0.0000 C   0  0  0  0  0  0  0  0  0  0  0  0
    3.2777   -1.8682    0.0000 C   0  0  0  0  0  0  0  0  0  0  0  0
    3.2540   -3.3680    0.0000 O   0  0  0  0  0  0  0  0  0  0  0  0
    4.5883   -1.1387    0.0000 C   0  0  0  0  0  0  0  0  0  0  0  0
    4.6120    0.3611    0.0000 C   0  0  0  0  0  0  0  0  0  0  0  0
    5.9227    1.0905    0.0000 C   0  0  0  0  0  0  0  0  0  0  0  0
    5.9463    2.5904    0.0000 C   0  0  0  0  0  0  0  0  0  0  0  0
    4.6592    3.3607    0.0000 C   0  0  0  0  0  0  0  0  0  0  0  0
    3.3485    2.6313    0.0000 C   0  0  0  0  0  0  0  0  0  0  0  0
    3.3249    1.1315    0.0000 C   0  0  0  0  0  0  0  0  0  0  0  0
    2.0379    1.9018    0.0000 C   0  0  0  0  0  0  0  0  0  0  0  0
    2.0142    0.4020    0.0000 C   0  0  0  0  0  0  0  0  0  0  0  0
    0.7272    1.1724    0.0000 C   0  0  0  0  0  0  0  0  0  0  0  0
   -0.5835    0.4430    0.0000 C   0  0  0  0  0  0  0  0  0  0  0  0
   -0.6072   -1.0569    0.0000 C   0  0  0  0  0  0  0  0  0  0  0  0
   -1.9677   -0.4252    0.0000 C   0  0  0  0  0  0  0  0  0  0  0  0
  1  2  1  0
  2  3  1  0
  3  4  2  0
  3  5  1  0
  5  6  1  0
  6  7  1  0
  7  8  1  6
  7  9  1  0
  9 10  1  6
 10 11  1  0
 12 11  1  6
 12 13  1  0
 13 14  1  1
 14 15  1  1
 14 16  1  0
 17 16  1  1
 17 18  1  0
 18 19  1  0
 19 20  1  0
 20 21  1  0
 21 22  1  0
 22 23  1  6
 22 24  1  0
 24 25  1  6
 25 26  1  0
 26 27  1  0
 27 28  1  6
 27  9  1  0
 27 12  1  0
 24 13  1  0
 22 17  1  0
M  END
>  <MS_ID>  (537) 
MS0561

>  <SMILES>  (537) 
COC(=O)CC[C@@H](C)[C@H]1CC[C@H]2[C@@H]3[C@H](O)C[C@@H]4CCCC[C@]4(C)[C@H]3CC[C@]12C

>  <Structure_dimension>  (537) 
2D

$$$$
MS0562
     RDKit          2D

 29 32  0  0  0  0  0  0  0  0999 V2000
   -4.7935   -2.5443    0.0000 C   0  0  0  0  0  0  0  0  0  0  0  0
   -3.6816   -1.5375    0.0000 C   0  0  0  0  0  0  0  0  0  0  0  0
   -3.9975   -0.0712    0.0000 C   0  0  0  0  0  0  0  0  0  0  0  0
   -5.4254    0.3884    0.0000 C   0  0  0  0  0  0  0  0  0  0  0  0
   -5.7413    1.8547    0.0000 C   0  0  0  0  0  0  0  0  0  0  0  0
   -7.1692    2.3143    0.0000 O   0  0  0  0  0  0  0  0  0  0  0  0
   -4.6294    2.8615    0.0000 O   0  0  0  0  0  0  0  0  0  0  0  0
   -4.9453    4.3279    0.0000 O   0  0  0  0  0  0  0  0  0  0  0  0
   -2.2537   -1.9971    0.0000 C   0  0  0  0  0  0  0  0  0  0  0  0
   -1.7862   -3.4224    0.0000 C   0  0  0  0  0  0  0  0  0  0  0  0
   -0.2862   -3.4182    0.0000 C   0  0  0  0  0  0  0  0  0  0  0  0
    0.1733   -1.9903    0.0000 C   0  0  0  0  0  0  0  0  0  0  0  0
    1.5420   -1.3764    0.0000 C   0  0  0  0  0  0  0  0  0  0  0  0
    2.7579   -2.2547    0.0000 C   0  0  0  0  0  0  0  0  0  0  0  0
    2.6053   -3.7470    0.0000 O   0  0  0  0  0  0  0  0  0  0  0  0
    4.1265   -1.6408    0.0000 C   0  0  0  0  0  0  0  0  0  0  0  0
    4.2792   -0.1486    0.0000 C   0  0  0  0  0  0  0  0  0  0  0  0
    5.6478    0.4653    0.0000 C   0  0  0  0  0  0  0  0  0  0  0  0
    5.8005    1.9575    0.0000 C   0  0  0  0  0  0  0  0  0  0  0  0
    7.1691    2.5714    0.0000 O   0  0  0  0  0  0  0  0  0  0  0  0
    4.5845    2.8358    0.0000 C   0  0  0  0  0  0  0  0  0  0  0  0
    3.2159    2.2219    0.0000 C   0  0  0  0  0  0  0  0  0  0  0  0
    3.0632    0.7297    0.0000 C   0  0  0  0  0  0  0  0  0  0  0  0
    1.8473    1.6080    0.0000 C   0  0  0  0  0  0  0  0  0  0  0  0
    1.6946    0.1158    0.0000 C   0  0  0  0  0  0  0  0  0  0  0  0
    0.4786    0.9941    0.0000 C   0  0  0  0  0  0  0  0  0  0  0  0
   -0.8900    0.3802    0.0000 C   0  0  0  0  0  0  0  0  0  0  0  0
   -1.0426   -1.1120    0.0000 C   0  0  0  0  0  0  0  0  0  0  0  0
   -2.3437   -0.3657    0.0000 C   0  0  0  0  0  0  0  0  0  0  0  0
  2  1  1  6
  2  3  1  0
  3  4  1  0
  4  5  1  0
  5  6  2  0
  5  7  1  0
  7  8  1  0
  2  9  1  0
  9 10  1  6
 10 11  1  0
 12 11  1  6
 12 13  1  0
 13 14  1  1
 14 15  1  1
 14 16  1  0
 17 16  1  1
 17 18  1  0
 18 19  1  0
 19 20  1  1
 19 21  1  0
 21 22  1  0
 22 23  1  0
 23 24  1  6
 23 25  1  0
 25 26  1  6
 26 27  1  0
 27 28  1  0
 28 29  1  6
 28  9  1  0
 28 12  1  0
 25 13  1  0
 23 17  1  0
M  END
>  <MS_ID>  (538) 
MS0562

>  <SMILES>  (538) 
C[C@H](CCC(=O)OO)[C@H]1CC[C@H]2[C@@H]3[C@H](O)C[C@@H]4C[C@H](O)CC[C@]4(C)[C@H]3CC[C@]12C

>  <Structure_dimension>  (538) 
2D

$$$$
MS0563
     RDKit          2D

 37 41  0  0  0  0  0  0  0  0999 V2000
   -0.3981   -4.8552    0.0000 C   0  0  0  0  0  0  0  0  0  0  0  0
    0.1005   -3.4405    0.0000 C   0  0  0  0  0  0  0  0  0  0  0  0
   -0.8753   -2.3013    0.0000 C   0  0  0  0  0  0  0  0  0  0  0  0
   -2.3498   -2.5768    0.0000 C   0  0  0  0  0  0  0  0  0  0  0  0
   -3.3256   -1.4375    0.0000 C   0  0  0  0  0  0  0  0  0  0  0  0
   -2.8269   -0.0229    0.0000 O   0  0  0  0  0  0  0  0  0  0  0  0
   -4.8000   -1.7130    0.0000 O   0  0  0  0  0  0  0  0  0  0  0  0
   -5.7758   -0.5738    0.0000 C   0  0  0  0  0  0  0  0  0  0  0  0
   -7.2503   -0.8492    0.0000 C   0  0  0  0  0  0  0  0  0  0  0  0
   -8.2261    0.2900    0.0000 C   0  0  0  0  0  0  0  0  0  0  0  0
   -7.7275    1.7046    0.0000 C   0  0  0  0  0  0  0  0  0  0  0  0
   -8.7033    2.8439    0.0000 C   0  0  0  0  0  0  0  0  0  0  0  0
  -10.1777    2.5684    0.0000 C   0  0  0  0  0  0  0  0  0  0  0  0
  -11.1535    3.7076    0.0000 O   0  0  0  0  0  0  0  0  0  0  0  0
  -10.6764    1.1537    0.0000 C   0  0  0  0  0  0  0  0  0  0  0  0
   -9.7006    0.0145    0.0000 C   0  0  0  0  0  0  0  0  0  0  0  0
    1.5750   -3.1650    0.0000 C   0  0  0  0  0  0  0  0  0  0  0  0
    2.6646   -4.1960    0.0000 C   0  0  0  0  0  0  0  0  0  0  0  0
    3.9818   -3.4784    0.0000 C   0  0  0  0  0  0  0  0  0  0  0  0
    3.7063   -2.0039    0.0000 C   0  0  0  0  0  0  0  0  0  0  0  0
    4.6177   -0.8126    0.0000 C   0  0  0  0  0  0  0  0  0  0  0  0
    6.1052   -1.0062    0.0000 C   0  0  0  0  0  0  0  0  0  0  0  0
    6.6812   -2.3912    0.0000 O   0  0  0  0  0  0  0  0  0  0  0  0
    7.0166    0.1851    0.0000 C   0  0  0  0  0  0  0  0  0  0  0  0
    6.4406    1.5701    0.0000 C   0  0  0  0  0  0  0  0  0  0  0  0
    7.3521    2.7614    0.0000 C   0  0  0  0  0  0  0  0  0  0  0  0
    6.7761    4.1464    0.0000 C   0  0  0  0  0  0  0  0  0  0  0  0
    7.6875    5.3378    0.0000 O   0  0  0  0  0  0  0  0  0  0  0  0
    5.2886    4.3401    0.0000 C   0  0  0  0  0  0  0  0  0  0  0  0
    4.3772    3.1488    0.0000 C   0  0  0  0  0  0  0  0  0  0  0  0
    4.9532    1.7638    0.0000 C   0  0  0  0  0  0  0  0  0  0  0  0
    3.4657    1.9574    0.0000 C   0  0  0  0  0  0  0  0  0  0  0  0
    4.0417    0.5724    0.0000 C   0  0  0  0  0  0  0  0  0  0  0  0
    2.5543    0.7661    0.0000 C   0  0  0  0  0  0  0  0  0  0  0  0
    1.6429   -0.4252    0.0000 C   0  0  0  0  0  0  0  0  0  0  0  0
    2.2189   -1.8102    0.0000 C   0  0  0  0  0  0  0  0  0  0  0  0
    0.7193   -1.7731    0.0000 C   0  0  0  0  0  0  0  0  0  0  0  0
  2  1  1  6
  2  3  1  0
  3  4  1  0
  4  5  1  0
  5  6  2  0
  5  7  1  0
  7  8  1  0
  8  9  1  0
  9 10  1  0
 10 11  2  0
 11 12  1  0
 12 13  2  0
 13 14  1  0
 13 15  1  0
 15 16  2  0
  2 17  1  0
 17 18  1  6
 18 19  1  0
 20 19  1  6
 20 21  1  0
 21 22  1  1
 22 23  1  1
 22 24  1  0
 25 24  1  1
 25 26  1  0
 26 27  1  0
 27 28  1  1
 27 29  1  0
 29 30  1  0
 30 31  1  0
 31 32  1  6
 31 33  1  0
 33 34  1  6
 34 35  1  0
 35 36  1  0
 36 37  1  6
 16 10  1  0
 36 17  1  0
 36 20  1  0
 33 21  1  0
 31 25  1  0
M  END
>  <MS_ID>  (539) 
MS0563

>  <SMILES>  (539) 
C[C@H](CCC(=O)OCCc1ccc(O)cc1)[C@H]1CC[C@H]2[C@@H]3[C@H](O)C[C@@H]4C[C@H](O)CC[C@]4(C)[C@H]3CC[C@]12C

>  <Structure_dimension>  (539) 
2D

$$$$
MS0564
     RDKit          2D

 37 41  0  0  0  0  0  0  0  0999 V2000
   -1.6283   -3.9909    0.0000 C   0  0  0  0  0  0  0  0  0  0  0  0
   -0.8318   -2.7198    0.0000 C   0  0  0  0  0  0  0  0  0  0  0  0
   -1.5343   -1.3945    0.0000 C   0  0  0  0  0  0  0  0  0  0  0  0
   -3.0333   -1.3402    0.0000 C   0  0  0  0  0  0  0  0  0  0  0  0
   -3.7358   -0.0148    0.0000 C   0  0  0  0  0  0  0  0  0  0  0  0
   -2.9393    1.2562    0.0000 O   0  0  0  0  0  0  0  0  0  0  0  0
   -5.2348    0.0395    0.0000 C   0  0  0  0  0  0  0  0  0  0  0  0
   -5.9373    1.3648    0.0000 O   0  0  0  0  0  0  0  0  0  0  0  0
   -7.4363    1.4191    0.0000 C   0  0  0  0  0  0  0  0  0  0  0  0
   -8.1388    2.7444    0.0000 C   0  0  0  0  0  0  0  0  0  0  0  0
   -9.6378    2.7987    0.0000 C   0  0  0  0  0  0  0  0  0  0  0  0
  -10.4343    1.5277    0.0000 C   0  0  0  0  0  0  0  0  0  0  0  0
   -9.7319    0.2024    0.0000 C   0  0  0  0  0  0  0  0  0  0  0  0
  -10.5284   -1.0687    0.0000 O   0  0  0  0  0  0  0  0  0  0  0  0
   -8.2328    0.1481    0.0000 C   0  0  0  0  0  0  0  0  0  0  0  0
    0.6672   -2.7741    0.0000 C   0  0  0  0  0  0  0  0  0  0  0  0
    1.5044   -4.0188    0.0000 C   0  0  0  0  0  0  0  0  0  0  0  0
    2.9468   -3.6072    0.0000 C   0  0  0  0  0  0  0  0  0  0  0  0
    3.0011   -2.1082    0.0000 C   0  0  0  0  0  0  0  0  0  0  0  0
    4.1514   -1.1455    0.0000 C   0  0  0  0  0  0  0  0  0  0  0  0
    5.5603   -1.6603    0.0000 C   0  0  0  0  0  0  0  0  0  0  0  0
    5.8189   -3.1379    0.0000 O   0  0  0  0  0  0  0  0  0  0  0  0
    6.7106   -0.6977    0.0000 C   0  0  0  0  0  0  0  0  0  0  0  0
    6.4521    0.7799    0.0000 C   0  0  0  0  0  0  0  0  0  0  0  0
    7.6024    1.7426    0.0000 C   0  0  0  0  0  0  0  0  0  0  0  0
    7.3438    3.2201    0.0000 C   0  0  0  0  0  0  0  0  0  0  0  0
    8.4942    4.1828    0.0000 O   0  0  0  0  0  0  0  0  0  0  0  0
    5.9350    3.7350    0.0000 C   0  0  0  0  0  0  0  0  0  0  0  0
    4.7846    2.7723    0.0000 C   0  0  0  0  0  0  0  0  0  0  0  0
    5.0432    1.2948    0.0000 C   0  0  0  0  0  0  0  0  0  0  0  0
    3.6343    1.8096    0.0000 C   0  0  0  0  0  0  0  0  0  0  0  0
    3.8929    0.3321    0.0000 C   0  0  0  0  0  0  0  0  0  0  0  0
    2.4840    0.8469    0.0000 C   0  0  0  0  0  0  0  0  0  0  0  0
    1.3337   -0.1158    0.0000 C   0  0  0  0  0  0  0  0  0  0  0  0
   -0.0752    0.3991    0.0000 O   0  0  0  0  0  0  0  0  0  0  0  0
    1.5922   -1.5933    0.0000 C   0  0  0  0  0  0  0  0  0  0  0  0
    0.1373   -1.2285    0.0000 C   0  0  0  0  0  0  0  0  0  0  0  0
  2  1  1  6
  2  3  1  0
  3  4  1  0
  4  5  1  0
  5  6  2  0
  5  7  1  0
  7  8  1  0
  8  9  1  0
  9 10  2  0
 10 11  1  0
 11 12  2  0
 12 13  1  0
 13 14  1  0
 13 15  2  0
  2 16  1  0
 16 17  1  6
 17 18  1  0
 19 18  1  6
 19 20  1  0
 20 21  1  1
 21 22  1  1
 21 23  1  0
 24 23  1  1
 24 25  1  0
 25 26  1  0
 26 27  1  1
 26 28  1  0
 28 29  1  0
 29 30  1  0
 30 31  1  6
 30 32  1  0
 32 33  1  6
 33 34  1  0
 34 35  1  1
 34 36  1  0
 36 37  1  6
 15  9  1  0
 36 16  1  0
 36 19  1  0
 32 20  1  0
 30 24  1  0
M  END
>  <MS_ID>  (540) 
MS0564

>  <SMILES>  (540) 
C[C@H](CCC(=O)COc1cccc(O)c1)[C@H]1CC[C@H]2[C@@H]3[C@H](O)C[C@@H]4C[C@H](O)CC[C@]4(C)[C@H]3C[C@H](O)[C@]12C

>  <Structure_dimension>  (540) 
2D

$$$$
MS0565
     RDKit          2D

 31 34  0  0  0  0  0  0  0  0999 V2000
   -3.5119   -3.5779    0.0000 C   0  0  0  0  0  0  0  0  0  0  0  0
   -2.6109   -2.3787    0.0000 C   0  0  0  0  0  0  0  0  0  0  0  0
   -3.1991   -0.9988    0.0000 C   0  0  0  0  0  0  0  0  0  0  0  0
   -4.6881   -0.8181    0.0000 C   0  0  0  0  0  0  0  0  0  0  0  0
   -5.2762    0.5618    0.0000 C   0  0  0  0  0  0  0  0  0  0  0  0
   -4.3753    1.7610    0.0000 O   0  0  0  0  0  0  0  0  0  0  0  0
   -6.7653    0.7424    0.0000 N   0  0  0  0  0  0  0  0  0  0  0  0
   -7.3534    2.1223    0.0000 C   0  0  0  0  0  0  0  0  0  0  0  0
   -8.8425    2.3029    0.0000 C   0  0  0  0  0  0  0  0  0  0  0  0
   -9.4306    3.6828    0.0000 O   0  0  0  0  0  0  0  0  0  0  0  0
   -1.1219   -2.5593    0.0000 C   0  0  0  0  0  0  0  0  0  0  0  0
   -0.3927   -3.8702    0.0000 C   0  0  0  0  0  0  0  0  0  0  0  0
    1.0793   -3.5818    0.0000 C   0  0  0  0  0  0  0  0  0  0  0  0
    1.2599   -2.0927    0.0000 C   0  0  0  0  0  0  0  0  0  0  0  0
    2.4874   -1.2306    0.0000 C   0  0  0  0  0  0  0  0  0  0  0  0
    3.8478   -1.8625    0.0000 C   0  0  0  0  0  0  0  0  0  0  0  0
    3.9807   -3.3566    0.0000 O   0  0  0  0  0  0  0  0  0  0  0  0
    5.0753   -1.0003    0.0000 C   0  0  0  0  0  0  0  0  0  0  0  0
    4.9423    0.4938    0.0000 C   0  0  0  0  0  0  0  0  0  0  0  0
    6.1698    1.3559    0.0000 C   0  0  0  0  0  0  0  0  0  0  0  0
    6.0369    2.8500    0.0000 C   0  0  0  0  0  0  0  0  0  0  0  0
    7.2644    3.7122    0.0000 O   0  0  0  0  0  0  0  0  0  0  0  0
    4.6765    3.4820    0.0000 C   0  0  0  0  0  0  0  0  0  0  0  0
    3.4490    2.6198    0.0000 C   0  0  0  0  0  0  0  0  0  0  0  0
    3.5820    1.1257    0.0000 C   0  0  0  0  0  0  0  0  0  0  0  0
    2.2216    1.7576    0.0000 C   0  0  0  0  0  0  0  0  0  0  0  0
    2.3545    0.2635    0.0000 C   0  0  0  0  0  0  0  0  0  0  0  0
    0.9941    0.8955    0.0000 C   0  0  0  0  0  0  0  0  0  0  0  0
   -0.2334    0.0333    0.0000 C   0  0  0  0  0  0  0  0  0  0  0  0
   -0.1005   -1.4608    0.0000 C   0  0  0  0  0  0  0  0  0  0  0  0
   -1.5195   -0.9745    0.0000 C   0  0  0  0  0  0  0  0  0  0  0  0
  2  1  1  6
  2  3  1  0
  3  4  1  0
  4  5  1  0
  5  6  2  0
  5  7  1  0
  7  8  1  0
  8  9  1  0
  9 10  1  0
  2 11  1  0
 11 12  1  6
 12 13  1  0
 14 13  1  6
 14 15  1  0
 15 16  1  1
 16 17  1  1
 16 18  1  0
 19 18  1  1
 19 20  1  0
 20 21  1  0
 21 22  1  1
 21 23  1  0
 23 24  1  0
 24 25  1  0
 25 26  1  6
 25 27  1  0
 27 28  1  6
 28 29  1  0
 29 30  1  0
 30 31  1  6
 30 11  1  0
 30 14  1  0
 27 15  1  0
 25 19  1  0
M  END
>  <MS_ID>  (541) 
MS0565

>  <SMILES>  (541) 
C[C@H](CCC(=O)NCCO)[C@H]1CC[C@H]2[C@@H]3[C@H](O)C[C@@H]4C[C@H](O)CC[C@]4(C)[C@H]3CC[C@]12C

>  <Structure_dimension>  (541) 
2D

$$$$
MS0566
     RDKit          2D

 39 43  0  0  0  0  0  0  0  0999 V2000
   -7.6510   -2.0504    0.0000 C   0  0  0  0  0  0  0  0  0  0  0  0
   -6.4615   -1.1366    0.0000 C   0  0  0  0  0  0  0  0  0  0  0  0
   -6.6581    0.3505    0.0000 C   0  0  0  0  0  0  0  0  0  0  0  0
   -8.0442    0.9238    0.0000 C   0  0  0  0  0  0  0  0  0  0  0  0
   -8.2408    2.4108    0.0000 C   0  0  0  0  0  0  0  0  0  0  0  0
   -7.0513    3.3246    0.0000 O   0  0  0  0  0  0  0  0  0  0  0  0
   -9.6270    2.9841    0.0000 O   0  0  0  0  0  0  0  0  0  0  0  0
   -5.0754   -1.7098    0.0000 C   0  0  0  0  0  0  0  0  0  0  0  0
   -4.7244   -3.1682    0.0000 C   0  0  0  0  0  0  0  0  0  0  0  0
   -3.2289   -3.2851    0.0000 C   0  0  0  0  0  0  0  0  0  0  0  0
   -2.6557   -1.8989    0.0000 C   0  0  0  0  0  0  0  0  0  0  0  0
   -1.2420   -1.3975    0.0000 C   0  0  0  0  0  0  0  0  0  0  0  0
   -0.1008   -2.3710    0.0000 C   0  0  0  0  0  0  0  0  0  0  0  0
   -0.3734   -3.8460    0.0000 O   0  0  0  0  0  0  0  0  0  0  0  0
    1.3128   -1.8695    0.0000 C   0  0  0  0  0  0  0  0  0  0  0  0
    1.5854   -0.3945    0.0000 C   0  0  0  0  0  0  0  0  0  0  0  0
    2.9991    0.1070    0.0000 C   0  0  0  0  0  0  0  0  0  0  0  0
    3.2716    1.5820    0.0000 C   0  0  0  0  0  0  0  0  0  0  0  0
    4.6853    2.0835    0.0000 O   0  0  0  0  0  0  0  0  0  0  0  0
    5.8265    1.1100    0.0000 C   0  0  0  0  0  0  0  0  0  0  0  0
    5.5539   -0.3651    0.0000 O   0  0  0  0  0  0  0  0  0  0  0  0
    6.6950   -1.3386    0.0000 C   0  0  0  0  0  0  0  0  0  0  0  0
    6.4225   -2.8136    0.0000 C   0  0  0  0  0  0  0  0  0  0  0  0
    8.1087   -0.8371    0.0000 C   0  0  0  0  0  0  0  0  0  0  0  0
    9.2499   -1.8107    0.0000 O   0  0  0  0  0  0  0  0  0  0  0  0
    8.3813    0.6379    0.0000 C   0  0  0  0  0  0  0  0  0  0  0  0
    9.7950    1.1394    0.0000 O   0  0  0  0  0  0  0  0  0  0  0  0
    7.2401    1.6114    0.0000 C   0  0  0  0  0  0  0  0  0  0  0  0
    7.5127    3.0865    0.0000 O   0  0  0  0  0  0  0  0  0  0  0  0
    2.1305    2.5556    0.0000 C   0  0  0  0  0  0  0  0  0  0  0  0
    0.7168    2.0541    0.0000 C   0  0  0  0  0  0  0  0  0  0  0  0
    0.4442    0.5791    0.0000 C   0  0  0  0  0  0  0  0  0  0  0  0
   -0.6969    1.5526    0.0000 C   0  0  0  0  0  0  0  0  0  0  0  0
   -0.9694    0.0776    0.0000 C   0  0  0  0  0  0  0  0  0  0  0  0
   -2.1106    1.0511    0.0000 C   0  0  0  0  0  0  0  0  0  0  0  0
   -3.5243    0.5496    0.0000 C   0  0  0  0  0  0  0  0  0  0  0  0
   -4.6654    1.5232    0.0000 O   0  0  0  0  0  0  0  0  0  0  0  0
   -3.7968   -0.9254    0.0000 C   0  0  0  0  0  0  0  0  0  0  0  0
   -5.0335   -0.0765    0.0000 C   0  0  0  0  0  0  0  0  0  0  0  0
  2  1  1  6
  2  3  1  0
  3  4  1  0
  4  5  1  0
  5  6  2  0
  5  7  1  0
  2  8  1  0
  8  9  1  6
  9 10  1  0
 11 10  1  6
 11 12  1  0
 12 13  1  1
 13 14  1  1
 13 15  1  0
 16 15  1  1
 16 17  1  0
 17 18  1  0
 18 19  1  1
 20 19  1  1
 20 21  1  0
 21 22  1  0
 22 23  1  6
 22 24  1  0
 24 25  1  6
 24 26  1  0
 26 27  1  6
 26 28  1  0
 28 29  1  6
 18 30  1  0
 30 31  1  0
 31 32  1  0
 32 33  1  6
 32 34  1  0
 34 35  1  6
 35 36  1  0
 36 37  1  1
 36 38  1  0
 38 39  1  6
 38  8  1  0
 38 11  1  0
 34 12  1  0
 32 16  1  0
 28 20  1  0
M  END
>  <MS_ID>  (542) 
MS0566

>  <SMILES>  (542) 
C[C@H](CCC(=O)O)[C@H]1CC[C@H]2[C@@H]3[C@H](O)C[C@@H]4C[C@H](O[C@@H]5O[C@@H](C)[C@@H](O)[C@@H](O)[C@H]5O)CC[C@]4(C)[C@H]3C[C@H](O)[C@]12C

>  <Structure_dimension>  (542) 
2D

$$$$
MS0567
     RDKit          2D

 29 32  0  0  0  0  0  0  0  0999 V2000
   -4.6958   -2.6034    0.0000 C   0  0  0  0  0  0  0  0  0  0  0  0
   -3.5597   -1.6240    0.0000 C   0  0  0  0  0  0  0  0  0  0  0  0
   -3.8399   -0.1504    0.0000 C   0  0  0  0  0  0  0  0  0  0  0  0
   -5.2561    0.3438    0.0000 C   0  0  0  0  0  0  0  0  0  0  0  0
   -5.5363    1.8174    0.0000 C   0  0  0  0  0  0  0  0  0  0  0  0
   -6.9525    2.3116    0.0000 O   0  0  0  0  0  0  0  0  0  0  0  0
   -4.4002    2.7968    0.0000 O   0  0  0  0  0  0  0  0  0  0  0  0
   -4.6804    4.2704    0.0000 O   0  0  0  0  0  0  0  0  0  0  0  0
   -2.1434   -2.1182    0.0000 C   0  0  0  0  0  0  0  0  0  0  0  0
   -1.7108   -3.5544    0.0000 C   0  0  0  0  0  0  0  0  0  0  0  0
   -0.2111   -3.5867    0.0000 C   0  0  0  0  0  0  0  0  0  0  0  0
    0.2831   -2.1705    0.0000 C   0  0  0  0  0  0  0  0  0  0  0  0
    1.6662   -1.5901    0.0000 C   0  0  0  0  0  0  0  0  0  0  0  0
    2.8605   -2.4977    0.0000 C   0  0  0  0  0  0  0  0  0  0  0  0
    4.2436   -1.9173    0.0000 C   0  0  0  0  0  0  0  0  0  0  0  0
    4.4325   -0.4292    0.0000 C   0  0  0  0  0  0  0  0  0  0  0  0
    5.8157    0.1512    0.0000 C   0  0  0  0  0  0  0  0  0  0  0  0
    6.0046    1.6393    0.0000 C   0  0  0  0  0  0  0  0  0  0  0  0
    7.3877    2.2197    0.0000 O   0  0  0  0  0  0  0  0  0  0  0  0
    4.8103    2.5469    0.0000 C   0  0  0  0  0  0  0  0  0  0  0  0
    3.4272    1.9665    0.0000 C   0  0  0  0  0  0  0  0  0  0  0  0
    3.2383    0.4784    0.0000 C   0  0  0  0  0  0  0  0  0  0  0  0
    2.0440    1.3861    0.0000 C   0  0  0  0  0  0  0  0  0  0  0  0
    1.8551   -0.1020    0.0000 C   0  0  0  0  0  0  0  0  0  0  0  0
    0.6609    0.8056    0.0000 C   0  0  0  0  0  0  0  0  0  0  0  0
   -0.7223    0.2252    0.0000 C   0  0  0  0  0  0  0  0  0  0  0  0
   -1.9165    1.1328    0.0000 O   0  0  0  0  0  0  0  0  0  0  0  0
   -0.9112   -1.2628    0.0000 C   0  0  0  0  0  0  0  0  0  0  0  0
   -2.1937   -0.4850    0.0000 C   0  0  0  0  0  0  0  0  0  0  0  0
  2  1  1  6
  2  3  1  0
  3  4  1  0
  4  5  1  0
  5  6  2  0
  5  7  1  0
  7  8  1  0
  2  9  1  0
  9 10  1  6
 10 11  1  0
 12 11  1  6
 12 13  1  0
 13 14  1  1
 14 15  1  0
 16 15  1  1
 16 17  1  0
 17 18  1  0
 18 19  1  1
 18 20  1  0
 20 21  1  0
 21 22  1  0
 22 23  1  6
 22 24  1  0
 24 25  1  6
 25 26  1  0
 26 27  1  1
 26 28  1  0
 28 29  1  6
 28  9  1  0
 28 12  1  0
 24 13  1  0
 22 16  1  0
M  END
>  <MS_ID>  (543) 
MS0567

>  <SMILES>  (543) 
C[C@H](CCC(=O)OO)[C@H]1CC[C@H]2[C@@H]3CC[C@@H]4C[C@H](O)CC[C@]4(C)[C@H]3C[C@H](O)[C@]12C

>  <Structure_dimension>  (543) 
2D

$$$$
MS0568
     RDKit          2D

 38 42  0  0  0  0  0  0  0  0999 V2000
   -0.3003   -4.9163    0.0000 C   0  0  0  0  0  0  0  0  0  0  0  0
    0.2521   -3.5217    0.0000 C   0  0  0  0  0  0  0  0  0  0  0  0
   -0.6795   -2.3460    0.0000 C   0  0  0  0  0  0  0  0  0  0  0  0
   -2.1635   -2.5650    0.0000 C   0  0  0  0  0  0  0  0  0  0  0  0
   -3.0951   -1.3893    0.0000 C   0  0  0  0  0  0  0  0  0  0  0  0
   -2.5427    0.0053    0.0000 O   0  0  0  0  0  0  0  0  0  0  0  0
   -4.5790   -1.6083    0.0000 N   0  0  0  0  0  0  0  0  0  0  0  0
   -5.5106   -0.4327    0.0000 C   0  0  0  0  0  0  0  0  0  0  0  0
   -6.9945   -0.6516    0.0000 C   0  0  0  0  0  0  0  0  0  0  0  0
   -7.9261    0.5240    0.0000 C   0  0  0  0  0  0  0  0  0  0  0  0
   -7.3738    1.9186    0.0000 C   0  0  0  0  0  0  0  0  0  0  0  0
   -8.3054    3.0943    0.0000 C   0  0  0  0  0  0  0  0  0  0  0  0
   -9.7893    2.8753    0.0000 C   0  0  0  0  0  0  0  0  0  0  0  0
  -10.3416    1.4807    0.0000 C   0  0  0  0  0  0  0  0  0  0  0  0
   -9.4100    0.3051    0.0000 C   0  0  0  0  0  0  0  0  0  0  0  0
   -4.9582    0.9619    0.0000 C   0  0  0  0  0  0  0  0  0  0  0  0
   -3.4743    1.1809    0.0000 O   0  0  0  0  0  0  0  0  0  0  0  0
   -5.8898    2.1376    0.0000 O   0  0  0  0  0  0  0  0  0  0  0  0
    1.7360   -3.3027    0.0000 C   0  0  0  0  0  0  0  0  0  0  0  0
    2.7854   -4.3745    0.0000 C   0  0  0  0  0  0  0  0  0  0  0  0
    4.1290   -3.7077    0.0000 C   0  0  0  0  0  0  0  0  0  0  0  0
    3.9100   -2.2238    0.0000 C   0  0  0  0  0  0  0  0  0  0  0  0
    4.8663   -1.0681    0.0000 C   0  0  0  0  0  0  0  0  0  0  0  0
    6.3453   -1.3184    0.0000 C   0  0  0  0  0  0  0  0  0  0  0  0
    7.3015   -0.1628    0.0000 C   0  0  0  0  0  0  0  0  0  0  0  0
    6.7788    1.2432    0.0000 C   0  0  0  0  0  0  0  0  0  0  0  0
    7.7351    2.3989    0.0000 C   0  0  0  0  0  0  0  0  0  0  0  0
    7.2124    3.8048    0.0000 C   0  0  0  0  0  0  0  0  0  0  0  0
    8.1687    4.9605    0.0000 O   0  0  0  0  0  0  0  0  0  0  0  0
    5.7334    4.0552    0.0000 C   0  0  0  0  0  0  0  0  0  0  0  0
    4.7772    2.8995    0.0000 C   0  0  0  0  0  0  0  0  0  0  0  0
    5.2999    1.4935    0.0000 C   0  0  0  0  0  0  0  0  0  0  0  0
    3.8209    1.7438    0.0000 C   0  0  0  0  0  0  0  0  0  0  0  0
    4.3436    0.3379    0.0000 C   0  0  0  0  0  0  0  0  0  0  0  0
    2.8646    0.5882    0.0000 C   0  0  0  0  0  0  0  0  0  0  0  0
    1.9084   -0.5675    0.0000 C   0  0  0  0  0  0  0  0  0  0  0  0
    2.4311   -1.9735    0.0000 C   0  0  0  0  0  0  0  0  0  0  0  0
    0.9341   -1.8791    0.0000 C   0  0  0  0  0  0  0  0  0  0  0  0
  2  1  1  6
  2  3  1  0
  3  4  1  0
  4  5  1  0
  5  6  2  0
  5  7  1  0
  7  8  1  0
  8  9  1  6
  9 10  1  0
 10 11  2  0
 11 12  1  0
 12 13  2  0
 13 14  1  0
 14 15  2  0
  8 16  1  0
 16 17  2  0
 16 18  1  0
  2 19  1  0
 19 20  1  6
 20 21  1  0
 22 21  1  6
 22 23  1  0
 23 24  1  1
 24 25  1  0
 26 25  1  1
 26 27  1  0
 27 28  1  0
 28 29  1  1
 28 30  1  0
 30 31  1  0
 31 32  1  0
 32 33  1  6
 32 34  1  0
 34 35  1  6
 35 36  1  0
 36 37  1  0
 37 38  1  6
 15 10  1  0
 37 19  1  0
 37 22  1  0
 34 23  1  0
 32 26  1  0
M  END
>  <MS_ID>  (544) 
MS0568

>  <SMILES>  (544) 
C[C@H](CCC(=O)N[C@H](Cc1ccccc1)C(=O)O)[C@H]1CC[C@H]2[C@@H]3CC[C@@H]4C[C@H](O)CC[C@]4(C)[C@H]3CC[C@]12C

>  <Structure_dimension>  (544) 
2D

$$$$
MS0569
     RDKit          2D

 33 36  0  0  0  0  0  0  0  0999 V2000
   -2.4343   -4.1694    0.0000 C   0  0  0  0  0  0  0  0  0  0  0  0
   -1.6856   -2.8696    0.0000 C   0  0  0  0  0  0  0  0  0  0  0  0
   -2.4369   -1.5713    0.0000 C   0  0  0  0  0  0  0  0  0  0  0  0
   -3.9369   -1.5728    0.0000 C   0  0  0  0  0  0  0  0  0  0  0  0
   -4.6882   -0.2745    0.0000 C   0  0  0  0  0  0  0  0  0  0  0  0
   -3.9395    1.0253    0.0000 O   0  0  0  0  0  0  0  0  0  0  0  0
   -6.1882   -0.2760    0.0000 O   0  0  0  0  0  0  0  0  0  0  0  0
   -6.9395    1.0223    0.0000 C   0  0  0  0  0  0  0  0  0  0  0  0
   -8.4395    1.0208    0.0000 C   0  0  0  0  0  0  0  0  0  0  0  0
   -9.1908    2.3191    0.0000 C   0  0  0  0  0  0  0  0  0  0  0  0
   -8.4421    3.6189    0.0000 O   0  0  0  0  0  0  0  0  0  0  0  0
  -10.6908    2.3176    0.0000 O   0  0  0  0  0  0  0  0  0  0  0  0
   -0.1856   -2.8681    0.0000 C   0  0  0  0  0  0  0  0  0  0  0  0
    0.6973   -4.0807    0.0000 C   0  0  0  0  0  0  0  0  0  0  0  0
    2.1234   -3.6158    0.0000 C   0  0  0  0  0  0  0  0  0  0  0  0
    2.1219   -2.1158    0.0000 C   0  0  0  0  0  0  0  0  0  0  0  0
    3.2356   -1.1109    0.0000 C   0  0  0  0  0  0  0  0  0  0  0  0
    4.6626   -1.5730    0.0000 C   0  0  0  0  0  0  0  0  0  0  0  0
    4.9760   -3.0399    0.0000 O   0  0  0  0  0  0  0  0  0  0  0  0
    5.7764   -0.5682    0.0000 C   0  0  0  0  0  0  0  0  0  0  0  0
    5.4630    0.8987    0.0000 C   0  0  0  0  0  0  0  0  0  0  0  0
    6.5767    1.9035    0.0000 C   0  0  0  0  0  0  0  0  0  0  0  0
    6.2634    3.3704    0.0000 C   0  0  0  0  0  0  0  0  0  0  0  0
    7.3771    4.3752    0.0000 O   0  0  0  0  0  0  0  0  0  0  0  0
    4.8363    3.8325    0.0000 C   0  0  0  0  0  0  0  0  0  0  0  0
    3.7226    2.8277    0.0000 C   0  0  0  0  0  0  0  0  0  0  0  0
    4.0360    1.3608    0.0000 C   0  0  0  0  0  0  0  0  0  0  0  0
    2.6089    1.8229    0.0000 C   0  0  0  0  0  0  0  0  0  0  0  0
    2.9223    0.3560    0.0000 C   0  0  0  0  0  0  0  0  0  0  0  0
    1.4952    0.8181    0.0000 C   0  0  0  0  0  0  0  0  0  0  0  0
    0.3815   -0.1867    0.0000 C   0  0  0  0  0  0  0  0  0  0  0  0
    0.6948   -1.6537    0.0000 C   0  0  0  0  0  0  0  0  0  0  0  0
   -0.7727   -1.3433    0.0000 C   0  0  0  0  0  0  0  0  0  0  0  0
  2  1  1  6
  2  3  1  0
  3  4  1  0
  4  5  1  0
  5  6  2  0
  5  7  1  0
  7  8  1  0
  8  9  1  0
  9 10  1  0
 10 11  2  0
 10 12  1  0
  2 13  1  0
 13 14  1  6
 14 15  1  0
 16 15  1  6
 16 17  1  0
 17 18  1  1
 18 19  1  6
 18 20  1  0
 21 20  1  1
 21 22  1  0
 22 23  1  0
 23 24  1  1
 23 25  1  0
 25 26  1  0
 26 27  1  0
 27 28  1  6
 27 29  1  0
 29 30  1  6
 30 31  1  0
 31 32  1  0
 32 33  1  6
 32 13  1  0
 32 16  1  0
 29 17  1  0
 27 21  1  0
M  END
>  <MS_ID>  (545) 
MS0569

>  <SMILES>  (545) 
C[C@H](CCC(=O)OCCC(=O)O)[C@H]1CC[C@H]2[C@@H]3[C@@H](O)C[C@@H]4C[C@H](O)CC[C@]4(C)[C@H]3CC[C@]12C

>  <Structure_dimension>  (545) 
2D

$$$$
MS0570
     RDKit          2D

 29 32  0  0  0  0  0  0  0  0999 V2000
   -4.6551   -2.6180    0.0000 C   0  0  0  0  0  0  0  0  0  0  0  0
   -3.5633   -1.5894    0.0000 C   0  0  0  0  0  0  0  0  0  0  0  0
   -3.9081   -0.1296    0.0000 C   0  0  0  0  0  0  0  0  0  0  0  0
   -5.3448    0.3016    0.0000 C   0  0  0  0  0  0  0  0  0  0  0  0
   -5.6897    1.7615    0.0000 C   0  0  0  0  0  0  0  0  0  0  0  0
   -4.5979    2.7900    0.0000 O   0  0  0  0  0  0  0  0  0  0  0  0
   -7.1264    2.1927    0.0000 N   0  0  0  0  0  0  0  0  0  0  0  0
   -7.4712    3.6525    0.0000 O   0  0  0  0  0  0  0  0  0  0  0  0
   -2.1266   -2.0207    0.0000 C   0  0  0  0  0  0  0  0  0  0  0  0
   -1.6310   -3.4364    0.0000 C   0  0  0  0  0  0  0  0  0  0  0  0
   -0.1314   -3.4026    0.0000 C   0  0  0  0  0  0  0  0  0  0  0  0
    0.2998   -1.9659    0.0000 C   0  0  0  0  0  0  0  0  0  0  0  0
    1.6561   -1.3251    0.0000 C   0  0  0  0  0  0  0  0  0  0  0  0
    2.8892   -2.1792    0.0000 C   0  0  0  0  0  0  0  0  0  0  0  0
    2.7660   -3.6741    0.0000 O   0  0  0  0  0  0  0  0  0  0  0  0
    4.2454   -1.5383    0.0000 C   0  0  0  0  0  0  0  0  0  0  0  0
    4.3685   -0.0434    0.0000 C   0  0  0  0  0  0  0  0  0  0  0  0
    5.7247    0.5975    0.0000 C   0  0  0  0  0  0  0  0  0  0  0  0
    5.8478    2.0924    0.0000 C   0  0  0  0  0  0  0  0  0  0  0  0
    7.2040    2.7332    0.0000 O   0  0  0  0  0  0  0  0  0  0  0  0
    4.6147    2.9465    0.0000 C   0  0  0  0  0  0  0  0  0  0  0  0
    3.2585    2.3056    0.0000 C   0  0  0  0  0  0  0  0  0  0  0  0
    3.1354    0.8107    0.0000 C   0  0  0  0  0  0  0  0  0  0  0  0
    1.9023    1.6648    0.0000 C   0  0  0  0  0  0  0  0  0  0  0  0
    1.7792    0.1699    0.0000 C   0  0  0  0  0  0  0  0  0  0  0  0
    0.5461    1.0239    0.0000 C   0  0  0  0  0  0  0  0  0  0  0  0
   -0.8101    0.3831    0.0000 C   0  0  0  0  0  0  0  0  0  0  0  0
   -0.9333   -1.1118    0.0000 C   0  0  0  0  0  0  0  0  0  0  0  0
   -2.2489   -0.3913    0.0000 C   0  0  0  0  0  0  0  0  0  0  0  0
  2  1  1  6
  2  3  1  0
  3  4  1  0
  4  5  1  0
  5  6  2  0
  5  7  1  0
  7  8  1  0
  2  9  1  0
  9 10  1  6
 10 11  1  0
 12 11  1  6
 12 13  1  0
 13 14  1  1
 14 15  1  1
 14 16  1  0
 17 16  1  1
 17 18  1  0
 18 19  1  0
 19 20  1  1
 19 21  1  0
 21 22  1  0
 22 23  1  0
 23 24  1  6
 23 25  1  0
 25 26  1  6
 26 27  1  0
 27 28  1  0
 28 29  1  6
 28  9  1  0
 28 12  1  0
 25 13  1  0
 23 17  1  0
M  END
>  <MS_ID>  (546) 
MS0570

>  <SMILES>  (546) 
C[C@H](CCC(=O)NO)[C@H]1CC[C@H]2[C@@H]3[C@H](O)C[C@@H]4C[C@H](O)CC[C@]4(C)[C@H]3CC[C@]12C

>  <Structure_dimension>  (546) 
2D

$$$$
MS0571
     RDKit          2D

 35 38  0  0  0  0  0  0  0  0999 V2000
   -9.9611    4.6154    0.0000 C   0  0  0  0  0  0  0  0  0  0  0  0
   -9.5481    3.1734    0.0000 C   0  0  0  0  0  0  0  0  0  0  0  0
   -8.0927    2.8101    0.0000 C   0  0  0  0  0  0  0  0  0  0  0  0
   -7.6797    1.3681    0.0000 O   0  0  0  0  0  0  0  0  0  0  0  0
   -6.2243    1.0048    0.0000 C   0  0  0  0  0  0  0  0  0  0  0  0
   -5.1821    2.0835    0.0000 O   0  0  0  0  0  0  0  0  0  0  0  0
   -5.8113   -0.4372    0.0000 C   0  0  0  0  0  0  0  0  0  0  0  0
   -4.3559   -0.8005    0.0000 C   0  0  0  0  0  0  0  0  0  0  0  0
   -3.9429   -2.2425    0.0000 C   0  0  0  0  0  0  0  0  0  0  0  0
   -4.9852   -3.3212    0.0000 C   0  0  0  0  0  0  0  0  0  0  0  0
   -2.4875   -2.6058    0.0000 C   0  0  0  0  0  0  0  0  0  0  0  0
   -1.9260   -3.9967    0.0000 C   0  0  0  0  0  0  0  0  0  0  0  0
   -0.4296   -3.8925    0.0000 C   0  0  0  0  0  0  0  0  0  0  0  0
   -0.0664   -2.4372    0.0000 C   0  0  0  0  0  0  0  0  0  0  0  0
    1.2583   -1.7333    0.0000 C   0  0  0  0  0  0  0  0  0  0  0  0
    2.5301   -2.5286    0.0000 C   0  0  0  0  0  0  0  0  0  0  0  0
    2.4774   -4.0276    0.0000 O   0  0  0  0  0  0  0  0  0  0  0  0
    3.8547   -1.8247    0.0000 C   0  0  0  0  0  0  0  0  0  0  0  0
    3.9075   -0.3256    0.0000 C   0  0  0  0  0  0  0  0  0  0  0  0
    5.2321    0.3782    0.0000 C   0  0  0  0  0  0  0  0  0  0  0  0
    5.2849    1.8773    0.0000 C   0  0  0  0  0  0  0  0  0  0  0  0
    6.6095    2.5811    0.0000 O   0  0  0  0  0  0  0  0  0  0  0  0
    7.8813    1.7859    0.0000 S   0  0  0  0  0  0  0  0  0  0  0  0
    7.0861    0.5140    0.0000 O   0  0  0  0  0  0  0  0  0  0  0  0
    8.6766    3.0577    0.0000 O   0  0  0  0  0  0  0  0  0  0  0  0
    9.1532    0.9906    0.0000 O   0  0  0  0  0  0  0  0  0  0  0  0
    4.0130    2.6725    0.0000 C   0  0  0  0  0  0  0  0  0  0  0  0
    2.6884    1.9687    0.0000 C   0  0  0  0  0  0  0  0  0  0  0  0
    2.6356    0.4696    0.0000 C   0  0  0  0  0  0  0  0  0  0  0  0
    1.3638    1.2648    0.0000 C   0  0  0  0  0  0  0  0  0  0  0  0
    1.3110   -0.2343    0.0000 C   0  0  0  0  0  0  0  0  0  0  0  0
    0.0392    0.5610    0.0000 C   0  0  0  0  0  0  0  0  0  0  0  0
   -1.2854   -0.1429    0.0000 C   0  0  0  0  0  0  0  0  0  0  0  0
   -1.3382   -1.6419    0.0000 C   0  0  0  0  0  0  0  0  0  0  0  0
   -2.6862   -0.9840    0.0000 C   0  0  0  0  0  0  0  0  0  0  0  0
  1  2  1  0
  2  3  1  0
  3  4  1  0
  4  5  1  0
  5  6  2  0
  5  7  1  0
  7  8  1  0
  8  9  1  0
  9 10  1  6
  9 11  1  0
 11 12  1  6
 12 13  1  0
 14 13  1  6
 14 15  1  0
 15 16  1  1
 16 17  1  1
 16 18  1  0
 19 18  1  1
 19 20  1  0
 20 21  1  0
 21 22  1  1
 22 23  1  0
 23 24  2  0
 23 25  2  0
 23 26  1  0
 21 27  1  0
 27 28  1  0
 28 29  1  0
 29 30  1  6
 29 31  1  0
 31 32  1  6
 32 33  1  0
 33 34  1  0
 34 35  1  6
 34 11  1  0
 34 14  1  0
 31 15  1  0
 29 19  1  0
M  END
>  <MS_ID>  (547) 
MS0571

>  <SMILES>  (547) 
CCCOC(=O)CC[C@@H](C)[C@H]1CC[C@H]2[C@@H]3[C@H](O)C[C@@H]4C[C@H](OS(=O)(=O)O)CC[C@]4(C)[C@H]3CC[C@]12C

>  <Structure_dimension>  (547) 
2D

$$$$
MS0572
     RDKit          2D

 32 35  0  0  0  0  0  0  0  0999 V2000
   -3.6687   -3.7654    0.0000 C   0  0  0  0  0  0  0  0  0  0  0  0
   -2.7694   -2.5649    0.0000 C   0  0  0  0  0  0  0  0  0  0  0  0
   -3.3594   -1.1858    0.0000 C   0  0  0  0  0  0  0  0  0  0  0  0
   -4.8488   -1.0072    0.0000 C   0  0  0  0  0  0  0  0  0  0  0  0
   -5.4388    0.3718    0.0000 C   0  0  0  0  0  0  0  0  0  0  0  0
   -6.9281    0.5504    0.0000 O   0  0  0  0  0  0  0  0  0  0  0  0
   -4.5395    1.5724    0.0000 O   0  0  0  0  0  0  0  0  0  0  0  0
   -5.1295    2.9514    0.0000 S   0  0  0  0  0  0  0  0  0  0  0  0
   -6.5086    2.3614    0.0000 O   0  0  0  0  0  0  0  0  0  0  0  0
   -3.7505    3.5415    0.0000 O   0  0  0  0  0  0  0  0  0  0  0  0
   -5.7196    4.3305    0.0000 O   0  0  0  0  0  0  0  0  0  0  0  0
   -1.2801   -2.7434    0.0000 C   0  0  0  0  0  0  0  0  0  0  0  0
   -0.5491   -4.0533    0.0000 C   0  0  0  0  0  0  0  0  0  0  0  0
    0.9225   -3.7629    0.0000 C   0  0  0  0  0  0  0  0  0  0  0  0
    1.1011   -2.2735    0.0000 C   0  0  0  0  0  0  0  0  0  0  0  0
    2.3273   -1.4097    0.0000 C   0  0  0  0  0  0  0  0  0  0  0  0
    3.6886   -2.0397    0.0000 C   0  0  0  0  0  0  0  0  0  0  0  0
    3.8236   -3.5336    0.0000 O   0  0  0  0  0  0  0  0  0  0  0  0
    4.9149   -1.1759    0.0000 C   0  0  0  0  0  0  0  0  0  0  0  0
    4.7799    0.3181    0.0000 C   0  0  0  0  0  0  0  0  0  0  0  0
    6.0061    1.1819    0.0000 C   0  0  0  0  0  0  0  0  0  0  0  0
    5.8711    2.6758    0.0000 C   0  0  0  0  0  0  0  0  0  0  0  0
    7.0974    3.5397    0.0000 O   0  0  0  0  0  0  0  0  0  0  0  0
    4.5099    3.3059    0.0000 C   0  0  0  0  0  0  0  0  0  0  0  0
    3.2836    2.4420    0.0000 C   0  0  0  0  0  0  0  0  0  0  0  0
    3.4186    0.9481    0.0000 C   0  0  0  0  0  0  0  0  0  0  0  0
    2.0573    1.5782    0.0000 C   0  0  0  0  0  0  0  0  0  0  0  0
    2.1923    0.0842    0.0000 C   0  0  0  0  0  0  0  0  0  0  0  0
    0.8311    0.7143    0.0000 C   0  0  0  0  0  0  0  0  0  0  0  0
   -0.3952   -0.1496    0.0000 C   0  0  0  0  0  0  0  0  0  0  0  0
   -0.2602   -1.6435    0.0000 C   0  0  0  0  0  0  0  0  0  0  0  0
   -1.6799   -1.1592    0.0000 C   0  0  0  0  0  0  0  0  0  0  0  0
  2  1  1  6
  2  3  1  0
  3  4  1  0
  4  5  1  0
  5  6  2  0
  5  7  1  0
  7  8  1  0
  8  9  2  0
  8 10  2  0
  8 11  1  0
  2 12  1  0
 12 13  1  6
 13 14  1  0
 15 14  1  6
 15 16  1  0
 16 17  1  1
 17 18  1  6
 17 19  1  0
 20 19  1  1
 20 21  1  0
 21 22  1  0
 22 23  1  1
 22 24  1  0
 24 25  1  0
 25 26  1  0
 26 27  1  6
 26 28  1  0
 28 29  1  6
 29 30  1  0
 30 31  1  0
 31 32  1  6
 31 12  1  0
 31 15  1  0
 28 16  1  0
 26 20  1  0
M  END
>  <MS_ID>  (548) 
MS0572

>  <SMILES>  (548) 
C[C@H](CCC(=O)OS(=O)(=O)O)[C@H]1CC[C@H]2[C@@H]3[C@@H](O)C[C@@H]4C[C@H](O)CC[C@]4(C)[C@H]3CC[C@]12C

>  <Structure_dimension>  (548) 
2D

$$$$
MS0573
     RDKit          2D

 31 34  0  0  0  0  0  0  0  0999 V2000
   -2.7019   -3.6997    0.0000 C   0  0  0  0  0  0  0  0  0  0  0  0
   -1.8903   -2.4382    0.0000 C   0  0  0  0  0  0  0  0  0  0  0  0
   -2.5770   -1.1046    0.0000 C   0  0  0  0  0  0  0  0  0  0  0  0
   -4.0753   -1.0325    0.0000 C   0  0  0  0  0  0  0  0  0  0  0  0
   -4.7620    0.3011    0.0000 C   0  0  0  0  0  0  0  0  0  0  0  0
   -3.9505    1.5626    0.0000 O   0  0  0  0  0  0  0  0  0  0  0  0
   -6.2603    0.3731    0.0000 C   0  0  0  0  0  0  0  0  0  0  0  0
   -6.9470    1.7067    0.0000 C   0  0  0  0  0  0  0  0  0  0  0  0
   -8.4453    1.7788    0.0000 C   0  0  0  0  0  0  0  0  0  0  0  0
   -9.2568    0.5173    0.0000 O   0  0  0  0  0  0  0  0  0  0  0  0
   -9.1320    3.1123    0.0000 O   0  0  0  0  0  0  0  0  0  0  0  0
   -0.3920   -2.5102    0.0000 C   0  0  0  0  0  0  0  0  0  0  0  0
    0.4303   -3.7647    0.0000 C   0  0  0  0  0  0  0  0  0  0  0  0
    1.8775   -3.3703    0.0000 C   0  0  0  0  0  0  0  0  0  0  0  0
    1.9496   -1.8720    0.0000 C   0  0  0  0  0  0  0  0  0  0  0  0
    3.1112   -0.9230    0.0000 C   0  0  0  0  0  0  0  0  0  0  0  0
    4.5139   -1.4545    0.0000 C   0  0  0  0  0  0  0  0  0  0  0  0
    4.7549   -2.9351    0.0000 O   0  0  0  0  0  0  0  0  0  0  0  0
    5.6756   -0.5056    0.0000 C   0  0  0  0  0  0  0  0  0  0  0  0
    5.4345    0.9750    0.0000 C   0  0  0  0  0  0  0  0  0  0  0  0
    6.5962    1.9239    0.0000 C   0  0  0  0  0  0  0  0  0  0  0  0
    6.3552    3.4044    0.0000 C   0  0  0  0  0  0  0  0  0  0  0  0
    4.9525    3.9360    0.0000 C   0  0  0  0  0  0  0  0  0  0  0  0
    3.7909    2.9870    0.0000 C   0  0  0  0  0  0  0  0  0  0  0  0
    4.0319    1.5065    0.0000 C   0  0  0  0  0  0  0  0  0  0  0  0
    2.6292    2.0380    0.0000 C   0  0  0  0  0  0  0  0  0  0  0  0
    2.8702    0.5575    0.0000 C   0  0  0  0  0  0  0  0  0  0  0  0
    1.4676    1.0890    0.0000 C   0  0  0  0  0  0  0  0  0  0  0  0
    0.3059    0.1401    0.0000 C   0  0  0  0  0  0  0  0  0  0  0  0
    0.5469   -1.3405    0.0000 C   0  0  0  0  0  0  0  0  0  0  0  0
   -0.9036   -0.9585    0.0000 C   0  0  0  0  0  0  0  0  0  0  0  0
  2  1  1  6
  2  3  1  0
  3  4  1  0
  4  5  1  0
  5  6  2  0
  5  7  1  0
  7  8  1  0
  8  9  1  0
  9 10  2  0
  9 11  1  0
  2 12  1  0
 12 13  1  6
 13 14  1  0
 15 14  1  6
 15 16  1  0
 16 17  1  1
 17 18  1  1
 17 19  1  0
 20 19  1  1
 20 21  1  0
 21 22  1  0
 22 23  1  0
 23 24  1  0
 24 25  1  0
 25 26  1  6
 25 27  1  0
 27 28  1  6
 28 29  1  0
 29 30  1  0
 30 31  1  6
 30 12  1  0
 30 15  1  0
 27 16  1  0
 25 20  1  0
M  END
>  <MS_ID>  (549) 
MS0573

>  <SMILES>  (549) 
C[C@H](CCC(=O)CCC(=O)O)[C@H]1CC[C@H]2[C@@H]3[C@H](O)C[C@@H]4CCCC[C@]4(C)[C@H]3CC[C@]12C

>  <Structure_dimension>  (549) 
2D

$$$$
MS0574
     RDKit          2D

 33 36  0  0  0  0  0  0  0  0999 V2000
   -2.8663   -3.9244    0.0000 C   0  0  0  0  0  0  0  0  0  0  0  0
   -2.0510   -2.6653    0.0000 C   0  0  0  0  0  0  0  0  0  0  0  0
   -2.7339   -1.3297    0.0000 C   0  0  0  0  0  0  0  0  0  0  0  0
   -4.2319   -1.2532    0.0000 C   0  0  0  0  0  0  0  0  0  0  0  0
   -4.9147    0.0823    0.0000 C   0  0  0  0  0  0  0  0  0  0  0  0
   -4.0995    1.3415    0.0000 O   0  0  0  0  0  0  0  0  0  0  0  0
   -6.4128    0.1588    0.0000 N   0  0  0  0  0  0  0  0  0  0  0  0
   -7.0956    1.4944    0.0000 C   0  0  0  0  0  0  0  0  0  0  0  0
   -8.5936    1.5708    0.0000 C   0  0  0  0  0  0  0  0  0  0  0  0
   -9.2765    2.9064    0.0000 C   0  0  0  0  0  0  0  0  0  0  0  0
  -10.7745    2.9828    0.0000 N   0  0  0  0  0  0  0  0  0  0  0  0
   -0.5530   -2.7417    0.0000 C   0  0  0  0  0  0  0  0  0  0  0  0
    0.2657   -3.9986    0.0000 C   0  0  0  0  0  0  0  0  0  0  0  0
    1.7140   -3.6084    0.0000 C   0  0  0  0  0  0  0  0  0  0  0  0
    1.7905   -2.1103    0.0000 C   0  0  0  0  0  0  0  0  0  0  0  0
    2.9549   -1.1648    0.0000 C   0  0  0  0  0  0  0  0  0  0  0  0
    4.3560   -1.7004    0.0000 C   0  0  0  0  0  0  0  0  0  0  0  0
    4.5927   -3.1816    0.0000 O   0  0  0  0  0  0  0  0  0  0  0  0
    5.5204   -0.7548    0.0000 C   0  0  0  0  0  0  0  0  0  0  0  0
    5.2838    0.7264    0.0000 C   0  0  0  0  0  0  0  0  0  0  0  0
    6.4482    1.6720    0.0000 C   0  0  0  0  0  0  0  0  0  0  0  0
    6.2115    3.1532    0.0000 C   0  0  0  0  0  0  0  0  0  0  0  0
    7.3759    4.0988    0.0000 O   0  0  0  0  0  0  0  0  0  0  0  0
    4.8104    3.6888    0.0000 C   0  0  0  0  0  0  0  0  0  0  0  0
    3.6460    2.7432    0.0000 C   0  0  0  0  0  0  0  0  0  0  0  0
    3.8827    1.2620    0.0000 C   0  0  0  0  0  0  0  0  0  0  0  0
    2.4816    1.7977    0.0000 C   0  0  0  0  0  0  0  0  0  0  0  0
    2.7182    0.3165    0.0000 C   0  0  0  0  0  0  0  0  0  0  0  0
    1.3171    0.8521    0.0000 C   0  0  0  0  0  0  0  0  0  0  0  0
    0.1527   -0.0935    0.0000 C   0  0  0  0  0  0  0  0  0  0  0  0
   -1.2484    0.4421    0.0000 O   0  0  0  0  0  0  0  0  0  0  0  0
    0.3894   -1.5747    0.0000 C   0  0  0  0  0  0  0  0  0  0  0  0
   -1.0600   -1.1885    0.0000 C   0  0  0  0  0  0  0  0  0  0  0  0
  2  1  1  6
  2  3  1  0
  3  4  1  0
  4  5  1  0
  5  6  2  0
  5  7  1  0
  7  8  1  0
  8  9  1  0
  9 10  1  0
 10 11  1  0
  2 12  1  0
 12 13  1  6
 13 14  1  0
 15 14  1  6
 15 16  1  0
 16 17  1  1
 17 18  1  1
 17 19  1  0
 20 19  1  1
 20 21  1  0
 21 22  1  0
 22 23  1  1
 22 24  1  0
 24 25  1  0
 25 26  1  0
 26 27  1  6
 26 28  1  0
 28 29  1  6
 29 30  1  0
 30 31  1  1
 30 32  1  0
 32 33  1  6
 32 12  1  0
 32 15  1  0
 28 16  1  0
 26 20  1  0
M  END
>  <MS_ID>  (550) 
MS0574

>  <SMILES>  (550) 
C[C@H](CCC(=O)NCCCN)[C@H]1CC[C@H]2[C@@H]3[C@H](O)C[C@@H]4C[C@H](O)CC[C@]4(C)[C@H]3C[C@H](O)[C@]12C

>  <Structure_dimension>  (550) 
2D

$$$$
MS0575
     RDKit          2D

 34 38  0  0  0  0  0  0  0  0999 V2000
   -2.7422   -3.4682    0.0000 C   0  0  0  0  0  0  0  0  0  0  0  0
   -1.8192   -2.2858    0.0000 C   0  0  0  0  0  0  0  0  0  0  0  0
   -2.3817   -0.8952    0.0000 C   0  0  0  0  0  0  0  0  0  0  0  0
   -3.8672   -0.6871    0.0000 C   0  0  0  0  0  0  0  0  0  0  0  0
   -4.4297    0.7034    0.0000 C   0  0  0  0  0  0  0  0  0  0  0  0
   -3.5067    1.8858    0.0000 O   0  0  0  0  0  0  0  0  0  0  0  0
   -5.9152    0.9116    0.0000 C   0  0  0  0  0  0  0  0  0  0  0  0
   -6.4777    2.3021    0.0000 C   0  0  0  0  0  0  0  0  0  0  0  0
   -7.9632    2.5102    0.0000 C   0  0  0  0  0  0  0  0  0  0  0  0
   -8.8861    1.3278    0.0000 C   0  0  0  0  0  0  0  0  0  0  0  0
  -10.3716    1.5359    0.0000 O   0  0  0  0  0  0  0  0  0  0  0  0
   -8.3236   -0.0627    0.0000 C   0  0  0  0  0  0  0  0  0  0  0  0
   -6.8382   -0.2709    0.0000 C   0  0  0  0  0  0  0  0  0  0  0  0
   -0.3337   -2.4939    0.0000 C   0  0  0  0  0  0  0  0  0  0  0  0
    0.3711   -3.8180    0.0000 C   0  0  0  0  0  0  0  0  0  0  0  0
    1.8482   -3.5569    0.0000 C   0  0  0  0  0  0  0  0  0  0  0  0
    2.0563   -2.0714    0.0000 C   0  0  0  0  0  0  0  0  0  0  0  0
    3.2995   -1.2321    0.0000 C   0  0  0  0  0  0  0  0  0  0  0  0
    4.6480   -1.8891    0.0000 C   0  0  0  0  0  0  0  0  0  0  0  0
    4.7533   -3.3854    0.0000 O   0  0  0  0  0  0  0  0  0  0  0  0
    5.8912   -1.0498    0.0000 C   0  0  0  0  0  0  0  0  0  0  0  0
    5.7859    0.4465    0.0000 C   0  0  0  0  0  0  0  0  0  0  0  0
    7.0291    1.2858    0.0000 C   0  0  0  0  0  0  0  0  0  0  0  0
    6.9238    2.7821    0.0000 C   0  0  0  0  0  0  0  0  0  0  0  0
    8.1670    3.6215    0.0000 O   0  0  0  0  0  0  0  0  0  0  0  0
    5.5754    3.4391    0.0000 C   0  0  0  0  0  0  0  0  0  0  0  0
    4.3322    2.5998    0.0000 C   0  0  0  0  0  0  0  0  0  0  0  0
    4.4374    1.1035    0.0000 C   0  0  0  0  0  0  0  0  0  0  0  0
    3.0890    1.7605    0.0000 C   0  0  0  0  0  0  0  0  0  0  0  0
    3.1942    0.2642    0.0000 C   0  0  0  0  0  0  0  0  0  0  0  0
    1.8458    0.9212    0.0000 C   0  0  0  0  0  0  0  0  0  0  0  0
    0.6026    0.0819    0.0000 C   0  0  0  0  0  0  0  0  0  0  0  0
    0.7078   -1.4144    0.0000 C   0  0  0  0  0  0  0  0  0  0  0  0
   -0.7019   -0.9020    0.0000 C   0  0  0  0  0  0  0  0  0  0  0  0
  2  1  1  6
  2  3  1  0
  3  4  1  0
  4  5  1  0
  5  6  2  0
  5  7  1  0
  7  8  2  0
  8  9  1  0
  9 10  2  0
 10 11  1  0
 10 12  1  0
 12 13  2  0
  2 14  1  0
 14 15  1  6
 15 16  1  0
 17 16  1  6
 17 18  1  0
 18 19  1  1
 19 20  1  1
 19 21  1  0
 22 21  1  1
 22 23  1  0
 23 24  1  0
 24 25  1  1
 24 26  1  0
 26 27  1  0
 27 28  1  0
 28 29  1  6
 28 30  1  0
 30 31  1  6
 31 32  1  0
 32 33  1  0
 33 34  1  6
 13  7  1  0
 33 14  1  0
 33 17  1  0
 30 18  1  0
 28 22  1  0
M  END
>  <MS_ID>  (551) 
MS0575

>  <SMILES>  (551) 
C[C@H](CCC(=O)c1ccc(O)cc1)[C@H]1CC[C@H]2[C@@H]3[C@H](O)C[C@@H]4C[C@H](O)CC[C@]4(C)[C@H]3CC[C@]12C

>  <Structure_dimension>  (551) 
2D

$$$$
MS0576
     RDKit          2D

 34 37  0  0  0  0  0  0  0  0999 V2000
   -2.2502   -4.2128    0.0000 C   0  0  0  0  0  0  0  0  0  0  0  0
   -1.5218   -2.9016    0.0000 C   0  0  0  0  0  0  0  0  0  0  0  0
   -2.2931   -1.6151    0.0000 C   0  0  0  0  0  0  0  0  0  0  0  0
   -3.7929   -1.6399    0.0000 C   0  0  0  0  0  0  0  0  0  0  0  0
   -4.5643   -0.3534    0.0000 C   0  0  0  0  0  0  0  0  0  0  0  0
   -3.8359    0.9578    0.0000 O   0  0  0  0  0  0  0  0  0  0  0  0
   -6.0641   -0.3782    0.0000 C   0  0  0  0  0  0  0  0  0  0  0  0
   -6.8355    0.9082    0.0000 C   0  0  0  0  0  0  0  0  0  0  0  0
   -8.3353    0.8834    0.0000 C   0  0  0  0  0  0  0  0  0  0  0  0
   -9.1066    2.1699    0.0000 C   0  0  0  0  0  0  0  0  0  0  0  0
  -10.6064    2.1451    0.0000 C   0  0  0  0  0  0  0  0  0  0  0  0
  -11.3778    3.4316    0.0000 O   0  0  0  0  0  0  0  0  0  0  0  0
   -0.0220   -2.8768    0.0000 C   0  0  0  0  0  0  0  0  0  0  0  0
    0.8797   -4.0755    0.0000 C   0  0  0  0  0  0  0  0  0  0  0  0
    2.2984   -3.5885    0.0000 C   0  0  0  0  0  0  0  0  0  0  0  0
    2.2736   -2.0887    0.0000 C   0  0  0  0  0  0  0  0  0  0  0  0
    3.3716   -1.0667    0.0000 C   0  0  0  0  0  0  0  0  0  0  0  0
    4.8056   -1.5066    0.0000 C   0  0  0  0  0  0  0  0  0  0  0  0
    5.1417   -2.9685    0.0000 O   0  0  0  0  0  0  0  0  0  0  0  0
    5.9036   -0.4846    0.0000 C   0  0  0  0  0  0  0  0  0  0  0  0
    5.5675    0.9773    0.0000 C   0  0  0  0  0  0  0  0  0  0  0  0
    6.6655    1.9992    0.0000 C   0  0  0  0  0  0  0  0  0  0  0  0
    6.3294    3.4611    0.0000 C   0  0  0  0  0  0  0  0  0  0  0  0
    7.4274    4.4831    0.0000 O   0  0  0  0  0  0  0  0  0  0  0  0
    4.8953    3.9010    0.0000 C   0  0  0  0  0  0  0  0  0  0  0  0
    3.7974    2.8790    0.0000 C   0  0  0  0  0  0  0  0  0  0  0  0
    4.1334    1.4171    0.0000 C   0  0  0  0  0  0  0  0  0  0  0  0
    2.6994    1.8570    0.0000 C   0  0  0  0  0  0  0  0  0  0  0  0
    3.0355    0.3951    0.0000 C   0  0  0  0  0  0  0  0  0  0  0  0
    1.6014    0.8350    0.0000 C   0  0  0  0  0  0  0  0  0  0  0  0
    0.5034   -0.1870    0.0000 C   0  0  0  0  0  0  0  0  0  0  0  0
   -0.9306    0.2529    0.0000 O   0  0  0  0  0  0  0  0  0  0  0  0
    0.8395   -1.6488    0.0000 C   0  0  0  0  0  0  0  0  0  0  0  0
   -0.6326   -1.3613    0.0000 C   0  0  0  0  0  0  0  0  0  0  0  0
  2  1  1  6
  2  3  1  0
  3  4  1  0
  4  5  1  0
  5  6  2  0
  5  7  1  0
  7  8  1  0
  8  9  1  0
  9 10  1  0
 10 11  1  0
 11 12  1  0
  2 13  1  0
 13 14  1  6
 14 15  1  0
 16 15  1  6
 16 17  1  0
 17 18  1  1
 18 19  1  1
 18 20  1  0
 21 20  1  1
 21 22  1  0
 22 23  1  0
 23 24  1  1
 23 25  1  0
 25 26  1  0
 26 27  1  0
 27 28  1  6
 27 29  1  0
 29 30  1  6
 30 31  1  0
 31 32  1  1
 31 33  1  0
 33 34  1  6
 33 13  1  0
 33 16  1  0
 29 17  1  0
 27 21  1  0
M  END
>  <MS_ID>  (552) 
MS0576

>  <SMILES>  (552) 
C[C@H](CCC(=O)CCCCCO)[C@H]1CC[C@H]2[C@@H]3[C@H](O)C[C@@H]4C[C@H](O)CC[C@]4(C)[C@H]3C[C@H](O)[C@]12C

>  <Structure_dimension>  (552) 
2D

$$$$
MS0577
     RDKit          2D

 35 38  0  0  0  0  0  0  0  0999 V2000
   -3.0598   -4.4915    0.0000 C   0  0  0  0  0  0  0  0  0  0  0  0
   -2.3372   -3.1771    0.0000 C   0  0  0  0  0  0  0  0  0  0  0  0
   -3.1142   -1.8940    0.0000 C   0  0  0  0  0  0  0  0  0  0  0  0
   -4.6139   -1.9254    0.0000 C   0  0  0  0  0  0  0  0  0  0  0  0
   -5.3909   -0.6424    0.0000 C   0  0  0  0  0  0  0  0  0  0  0  0
   -6.8906   -0.6738    0.0000 O   0  0  0  0  0  0  0  0  0  0  0  0
   -4.6683    0.6721    0.0000 O   0  0  0  0  0  0  0  0  0  0  0  0
   -5.4453    1.9551    0.0000 C   0  0  0  0  0  0  0  0  0  0  0  0
   -6.9450    1.9237    0.0000 O   0  0  0  0  0  0  0  0  0  0  0  0
   -4.7227    3.2696    0.0000 C   0  0  0  0  0  0  0  0  0  0  0  0
   -3.4082    2.5469    0.0000 C   0  0  0  0  0  0  0  0  0  0  0  0
   -6.0371    3.9922    0.0000 C   0  0  0  0  0  0  0  0  0  0  0  0
   -4.0000    4.5840    0.0000 O   0  0  0  0  0  0  0  0  0  0  0  0
   -0.8375   -3.1457    0.0000 C   0  0  0  0  0  0  0  0  0  0  0  0
    0.0694   -4.3405    0.0000 C   0  0  0  0  0  0  0  0  0  0  0  0
    1.4860   -3.8472    0.0000 C   0  0  0  0  0  0  0  0  0  0  0  0
    1.4545   -2.3475    0.0000 C   0  0  0  0  0  0  0  0  0  0  0  0
    2.5480   -1.3207    0.0000 C   0  0  0  0  0  0  0  0  0  0  0  0
    3.9840   -1.7542    0.0000 C   0  0  0  0  0  0  0  0  0  0  0  0
    4.3265   -3.2146    0.0000 O   0  0  0  0  0  0  0  0  0  0  0  0
    5.0774   -0.7274    0.0000 C   0  0  0  0  0  0  0  0  0  0  0  0
    6.5134   -1.1610    0.0000 O   0  0  0  0  0  0  0  0  0  0  0  0
    4.7349    0.7329    0.0000 C   0  0  0  0  0  0  0  0  0  0  0  0
    5.8284    1.7598    0.0000 C   0  0  0  0  0  0  0  0  0  0  0  0
    5.4859    3.2201    0.0000 C   0  0  0  0  0  0  0  0  0  0  0  0
    6.5793    4.2469    0.0000 O   0  0  0  0  0  0  0  0  0  0  0  0
    4.0499    3.6537    0.0000 C   0  0  0  0  0  0  0  0  0  0  0  0
    2.9564    2.6269    0.0000 C   0  0  0  0  0  0  0  0  0  0  0  0
    3.2989    1.1665    0.0000 C   0  0  0  0  0  0  0  0  0  0  0  0
    1.8630    1.6000    0.0000 C   0  0  0  0  0  0  0  0  0  0  0  0
    2.2055    0.1397    0.0000 C   0  0  0  0  0  0  0  0  0  0  0  0
    0.7695    0.5732    0.0000 C   0  0  0  0  0  0  0  0  0  0  0  0
   -0.3239   -0.4536    0.0000 C   0  0  0  0  0  0  0  0  0  0  0  0
    0.0186   -1.9140    0.0000 C   0  0  0  0  0  0  0  0  0  0  0  0
   -1.4549   -1.6329    0.0000 C   0  0  0  0  0  0  0  0  0  0  0  0
  2  1  1  6
  2  3  1  0
  3  4  1  0
  4  5  1  0
  5  6  2  0
  5  7  1  0
  7  8  1  0
  8  9  2  0
  8 10  1  0
 10 11  1  0
 10 12  1  0
 10 13  1  0
  2 14  1  0
 14 15  1  6
 15 16  1  0
 17 16  1  6
 17 18  1  0
 18 19  1  1
 19 20  1  1
 19 21  1  0
 21 22  1  1
 21 23  1  0
 23 24  1  1
 24 25  1  0
 25 26  1  1
 25 27  1  0
 27 28  1  0
 28 29  1  0
 29 30  1  6
 29 31  1  0
 31 32  1  6
 32 33  1  0
 33 34  1  0
 34 35  1  6
 34 14  1  0
 34 17  1  0
 31 18  1  0
 29 23  1  0
M  END
>  <MS_ID>  (553) 
MS0577

>  <SMILES>  (553) 
C[C@H](CCC(=O)OC(=O)C(C)(C)O)[C@H]1CC[C@H]2[C@@H]3[C@H](O)[C@H](O)[C@@H]4C[C@H](O)CC[C@]4(C)[C@H]3CC[C@]12C

>  <Structure_dimension>  (553) 
2D

$$$$
MS0578
     RDKit          2D

 31 34  0  0  0  0  0  0  0  0999 V2000
   -3.0989   -3.6972    0.0000 C   0  0  0  0  0  0  0  0  0  0  0  0
   -2.1883   -2.5051    0.0000 C   0  0  0  0  0  0  0  0  0  0  0  0
   -2.7654   -1.1206    0.0000 C   0  0  0  0  0  0  0  0  0  0  0  0
   -4.2530   -0.9280    0.0000 C   0  0  0  0  0  0  0  0  0  0  0  0
   -4.8300    0.4565    0.0000 C   0  0  0  0  0  0  0  0  0  0  0  0
   -3.9195    1.6486    0.0000 O   0  0  0  0  0  0  0  0  0  0  0  0
   -6.3176    0.6491    0.0000 N   0  0  0  0  0  0  0  0  0  0  0  0
   -6.8947    2.0336    0.0000 C   0  0  0  0  0  0  0  0  0  0  0  0
   -8.3823    2.2261    0.0000 C   0  0  0  0  0  0  0  0  0  0  0  0
   -9.2928    1.0341    0.0000 O   0  0  0  0  0  0  0  0  0  0  0  0
   -8.9593    3.6107    0.0000 O   0  0  0  0  0  0  0  0  0  0  0  0
   -0.7007   -2.6977    0.0000 C   0  0  0  0  0  0  0  0  0  0  0  0
    0.0179   -4.0143    0.0000 C   0  0  0  0  0  0  0  0  0  0  0  0
    1.4922   -3.7377    0.0000 C   0  0  0  0  0  0  0  0  0  0  0  0
    1.6847   -2.2501    0.0000 C   0  0  0  0  0  0  0  0  0  0  0  0
    2.9190   -1.3978    0.0000 C   0  0  0  0  0  0  0  0  0  0  0  0
    4.2743   -2.0406    0.0000 C   0  0  0  0  0  0  0  0  0  0  0  0
    5.5086   -1.1883    0.0000 C   0  0  0  0  0  0  0  0  0  0  0  0
    5.3877    0.3068    0.0000 C   0  0  0  0  0  0  0  0  0  0  0  0
    6.6220    1.1591    0.0000 C   0  0  0  0  0  0  0  0  0  0  0  0
    6.5010    2.6542    0.0000 C   0  0  0  0  0  0  0  0  0  0  0  0
    7.7354    3.5066    0.0000 N   0  0  0  0  0  0  0  0  0  0  0  0
    5.1457    3.2970    0.0000 C   0  0  0  0  0  0  0  0  0  0  0  0
    3.9114    2.4447    0.0000 C   0  0  0  0  0  0  0  0  0  0  0  0
    4.0324    0.9496    0.0000 C   0  0  0  0  0  0  0  0  0  0  0  0
    2.6771    1.5924    0.0000 C   0  0  0  0  0  0  0  0  0  0  0  0
    2.7981    0.0973    0.0000 C   0  0  0  0  0  0  0  0  0  0  0  0
    1.4428    0.7401    0.0000 C   0  0  0  0  0  0  0  0  0  0  0  0
    0.2084   -0.1122    0.0000 C   0  0  0  0  0  0  0  0  0  0  0  0
    0.3294   -1.6073    0.0000 C   0  0  0  0  0  0  0  0  0  0  0  0
   -1.0856   -1.1097    0.0000 C   0  0  0  0  0  0  0  0  0  0  0  0
  2  1  1  6
  2  3  1  0
  3  4  1  0
  4  5  1  0
  5  6  2  0
  5  7  1  0
  7  8  1  0
  8  9  1  0
  9 10  2  0
  9 11  1  0
  2 12  1  0
 12 13  1  6
 13 14  1  0
 15 14  1  6
 15 16  1  0
 16 17  1  1
 17 18  1  0
 19 18  1  1
 19 20  1  0
 20 21  1  0
 21 22  1  1
 21 23  1  0
 23 24  1  0
 24 25  1  0
 25 26  1  6
 25 27  1  0
 27 28  1  6
 28 29  1  0
 29 30  1  0
 30 31  1  6
 30 12  1  0
 30 15  1  0
 27 16  1  0
 25 19  1  0
M  END
>  <MS_ID>  (554) 
MS0578

>  <SMILES>  (554) 
C[C@H](CCC(=O)NCC(=O)O)[C@H]1CC[C@H]2[C@@H]3CC[C@@H]4C[C@H](N)CC[C@]4(C)[C@H]3CC[C@]12C

>  <Structure_dimension>  (554) 
2D

$$$$
MS0579
     RDKit          2D

 32 35  0  0  0  0  0  0  0  0999 V2000
   -3.6687   -3.7654    0.0000 C   0  0  0  0  0  0  0  0  0  0  0  0
   -2.7694   -2.5649    0.0000 C   0  0  0  0  0  0  0  0  0  0  0  0
   -3.3594   -1.1858    0.0000 C   0  0  0  0  0  0  0  0  0  0  0  0
   -4.8488   -1.0072    0.0000 C   0  0  0  0  0  0  0  0  0  0  0  0
   -5.4388    0.3718    0.0000 C   0  0  0  0  0  0  0  0  0  0  0  0
   -6.9281    0.5504    0.0000 O   0  0  0  0  0  0  0  0  0  0  0  0
   -4.5395    1.5724    0.0000 O   0  0  0  0  0  0  0  0  0  0  0  0
   -5.1295    2.9514    0.0000 S   0  0  0  0  0  0  0  0  0  0  0  0
   -6.5086    2.3614    0.0000 O   0  0  0  0  0  0  0  0  0  0  0  0
   -3.7505    3.5415    0.0000 O   0  0  0  0  0  0  0  0  0  0  0  0
   -5.7196    4.3305    0.0000 O   0  0  0  0  0  0  0  0  0  0  0  0
   -1.2801   -2.7434    0.0000 C   0  0  0  0  0  0  0  0  0  0  0  0
   -0.5491   -4.0533    0.0000 C   0  0  0  0  0  0  0  0  0  0  0  0
    0.9225   -3.7629    0.0000 C   0  0  0  0  0  0  0  0  0  0  0  0
    1.1011   -2.2735    0.0000 C   0  0  0  0  0  0  0  0  0  0  0  0
    2.3273   -1.4097    0.0000 C   0  0  0  0  0  0  0  0  0  0  0  0
    3.6886   -2.0397    0.0000 C   0  0  0  0  0  0  0  0  0  0  0  0
    3.8236   -3.5336    0.0000 O   0  0  0  0  0  0  0  0  0  0  0  0
    4.9149   -1.1759    0.0000 C   0  0  0  0  0  0  0  0  0  0  0  0
    4.7799    0.3181    0.0000 C   0  0  0  0  0  0  0  0  0  0  0  0
    6.0061    1.1819    0.0000 C   0  0  0  0  0  0  0  0  0  0  0  0
    5.8711    2.6758    0.0000 C   0  0  0  0  0  0  0  0  0  0  0  0
    7.0974    3.5397    0.0000 O   0  0  0  0  0  0  0  0  0  0  0  0
    4.5099    3.3059    0.0000 C   0  0  0  0  0  0  0  0  0  0  0  0
    3.2836    2.4420    0.0000 C   0  0  0  0  0  0  0  0  0  0  0  0
    3.4186    0.9481    0.0000 C   0  0  0  0  0  0  0  0  0  0  0  0
    2.0573    1.5782    0.0000 C   0  0  0  0  0  0  0  0  0  0  0  0
    2.1923    0.0842    0.0000 C   0  0  0  0  0  0  0  0  0  0  0  0
    0.8311    0.7143    0.0000 C   0  0  0  0  0  0  0  0  0  0  0  0
   -0.3952   -0.1496    0.0000 C   0  0  0  0  0  0  0  0  0  0  0  0
   -0.2602   -1.6435    0.0000 C   0  0  0  0  0  0  0  0  0  0  0  0
   -1.6799   -1.1592    0.0000 C   0  0  0  0  0  0  0  0  0  0  0  0
  2  1  1  6
  2  3  1  0
  3  4  1  0
  4  5  1  0
  5  6  2  0
  5  7  1  0
  7  8  1  0
  8  9  2  0
  8 10  2  0
  8 11  1  0
  2 12  1  0
 12 13  1  6
 13 14  1  0
 15 14  1  6
 15 16  1  0
 16 17  1  1
 17 18  1  1
 17 19  1  0
 20 19  1  1
 20 21  1  0
 21 22  1  0
 22 23  2  0
 22 24  1  0
 24 25  1  0
 25 26  1  0
 26 27  1  6
 26 28  1  0
 28 29  1  6
 29 30  1  0
 30 31  1  0
 31 32  1  6
 31 12  1  0
 31 15  1  0
 28 16  1  0
 26 20  1  0
M  END
>  <MS_ID>  (555) 
MS0579

>  <SMILES>  (555) 
C[C@H](CCC(=O)OS(=O)(=O)O)[C@H]1CC[C@H]2[C@@H]3[C@H](O)C[C@@H]4CC(=O)CC[C@]4(C)[C@H]3CC[C@]12C

>  <Structure_dimension>  (555) 
2D

$$$$
MS0581
     RDKit          2D

 31 34  0  0  0  0  0  0  0  0999 V2000
   -3.4301   -3.6172    0.0000 C   0  0  0  0  0  0  0  0  0  0  0  0
   -2.4973   -2.4425    0.0000 C   0  0  0  0  0  0  0  0  0  0  0  0
   -3.0483   -1.0473    0.0000 C   0  0  0  0  0  0  0  0  0  0  0  0
   -4.5321   -0.8270    0.0000 C   0  0  0  0  0  0  0  0  0  0  0  0
   -5.0831    0.5682    0.0000 C   0  0  0  0  0  0  0  0  0  0  0  0
   -4.1503    1.7429    0.0000 O   0  0  0  0  0  0  0  0  0  0  0  0
   -6.5668    0.7886    0.0000 O   0  0  0  0  0  0  0  0  0  0  0  0
   -7.1178    2.1837    0.0000 C   0  0  0  0  0  0  0  0  0  0  0  0
   -8.6015    2.4041    0.0000 C   0  0  0  0  0  0  0  0  0  0  0  0
   -9.1525    3.7992    0.0000 O   0  0  0  0  0  0  0  0  0  0  0  0
   -1.0136   -2.6629    0.0000 C   0  0  0  0  0  0  0  0  0  0  0  0
   -0.3198   -3.9928    0.0000 C   0  0  0  0  0  0  0  0  0  0  0  0
    1.1594   -3.7439    0.0000 C   0  0  0  0  0  0  0  0  0  0  0  0
    1.3798   -2.2602    0.0000 C   0  0  0  0  0  0  0  0  0  0  0  0
    2.6299   -1.4311    0.0000 C   0  0  0  0  0  0  0  0  0  0  0  0
    3.9729   -2.0992    0.0000 C   0  0  0  0  0  0  0  0  0  0  0  0
    5.2230   -1.2702    0.0000 C   0  0  0  0  0  0  0  0  0  0  0  0
    5.1301    0.2269    0.0000 C   0  0  0  0  0  0  0  0  0  0  0  0
    6.3802    1.0559    0.0000 C   0  0  0  0  0  0  0  0  0  0  0  0
    6.2872    2.5531    0.0000 C   0  0  0  0  0  0  0  0  0  0  0  0
    7.5373    3.3821    0.0000 O   0  0  0  0  0  0  0  0  0  0  0  0
    4.9442    3.2212    0.0000 C   0  0  0  0  0  0  0  0  0  0  0  0
    3.6942    2.3921    0.0000 C   0  0  0  0  0  0  0  0  0  0  0  0
    3.7871    0.8950    0.0000 C   0  0  0  0  0  0  0  0  0  0  0  0
    2.4441    1.5631    0.0000 C   0  0  0  0  0  0  0  0  0  0  0  0
    2.5370    0.0660    0.0000 C   0  0  0  0  0  0  0  0  0  0  0  0
    1.1940    0.7341    0.0000 C   0  0  0  0  0  0  0  0  0  0  0  0
   -0.0561   -0.0949    0.0000 C   0  0  0  0  0  0  0  0  0  0  0  0
   -1.3991    0.5732    0.0000 O   0  0  0  0  0  0  0  0  0  0  0  0
    0.0368   -1.5921    0.0000 C   0  0  0  0  0  0  0  0  0  0  0  0
   -1.3687   -1.0680    0.0000 C   0  0  0  0  0  0  0  0  0  0  0  0
  2  1  1  6
  2  3  1  0
  3  4  1  0
  4  5  1  0
  5  6  2  0
  5  7  1  0
  7  8  1  0
  8  9  1  0
  9 10  1  0
  2 11  1  0
 11 12  1  6
 12 13  1  0
 14 13  1  6
 14 15  1  0
 15 16  1  1
 16 17  1  0
 18 17  1  1
 18 19  1  0
 19 20  1  0
 20 21  1  1
 20 22  1  0
 22 23  1  0
 23 24  1  0
 24 25  1  6
 24 26  1  0
 26 27  1  6
 27 28  1  0
 28 29  1  1
 28 30  1  0
 30 31  1  6
 30 11  1  0
 30 14  1  0
 26 15  1  0
 24 18  1  0
M  END
>  <MS_ID>  (556) 
MS0581

>  <SMILES>  (556) 
C[C@H](CCC(=O)OCCO)[C@H]1CC[C@H]2[C@@H]3CC[C@@H]4C[C@H](O)CC[C@]4(C)[C@H]3C[C@H](O)[C@]12C

>  <Structure_dimension>  (556) 
2D

$$$$
MS0582
     RDKit          2D

 34 37  0  0  0  0  0  0  0  0999 V2000
   -9.2100    2.3286    0.0000 C   0  0  0  0  0  0  0  0  0  0  0  0
   -8.4697    1.0240    0.0000 C   0  0  0  0  0  0  0  0  0  0  0  0
   -6.9697    1.0128    0.0000 C   0  0  0  0  0  0  0  0  0  0  0  0
   -6.2294   -0.2918    0.0000 N   0  0  0  0  0  0  0  0  0  0  0  0
   -4.7295   -0.3030    0.0000 C   0  0  0  0  0  0  0  0  0  0  0  0
   -3.9698    0.9904    0.0000 O   0  0  0  0  0  0  0  0  0  0  0  0
   -3.9892   -1.6076    0.0000 C   0  0  0  0  0  0  0  0  0  0  0  0
   -2.4892   -1.6188    0.0000 C   0  0  0  0  0  0  0  0  0  0  0  0
   -1.7489   -2.9234    0.0000 C   0  0  0  0  0  0  0  0  0  0  0  0
   -2.5086   -4.2168    0.0000 C   0  0  0  0  0  0  0  0  0  0  0  0
   -0.2490   -2.9346    0.0000 C   0  0  0  0  0  0  0  0  0  0  0  0
    0.6236   -4.1547    0.0000 C   0  0  0  0  0  0  0  0  0  0  0  0
    2.0536   -3.7018    0.0000 C   0  0  0  0  0  0  0  0  0  0  0  0
    2.0648   -2.2018    0.0000 C   0  0  0  0  0  0  0  0  0  0  0  0
    3.1870   -1.2065    0.0000 C   0  0  0  0  0  0  0  0  0  0  0  0
    4.6101   -1.6806    0.0000 C   0  0  0  0  0  0  0  0  0  0  0  0
    4.9110   -3.1501    0.0000 O   0  0  0  0  0  0  0  0  0  0  0  0
    5.7323   -0.6853    0.0000 C   0  0  0  0  0  0  0  0  0  0  0  0
    5.4313    0.7842    0.0000 C   0  0  0  0  0  0  0  0  0  0  0  0
    6.5535    1.7796    0.0000 C   0  0  0  0  0  0  0  0  0  0  0  0
    6.2526    3.2491    0.0000 C   0  0  0  0  0  0  0  0  0  0  0  0
    7.3748    4.2444    0.0000 O   0  0  0  0  0  0  0  0  0  0  0  0
    4.8295    3.7232    0.0000 C   0  0  0  0  0  0  0  0  0  0  0  0
    3.7074    2.7279    0.0000 C   0  0  0  0  0  0  0  0  0  0  0  0
    4.0083    1.2584    0.0000 C   0  0  0  0  0  0  0  0  0  0  0  0
    2.5852    1.7325    0.0000 C   0  0  0  0  0  0  0  0  0  0  0  0
    2.8861    0.2630    0.0000 C   0  0  0  0  0  0  0  0  0  0  0  0
    1.4630    0.7372    0.0000 C   0  0  0  0  0  0  0  0  0  0  0  0
    0.3408   -0.2582    0.0000 C   0  0  0  0  0  0  0  0  0  0  0  0
    0.6417   -1.7277    0.0000 C   0  0  0  0  0  0  0  0  0  0  0  0
   -0.8231   -1.4049    0.0000 C   0  0  0  0  0  0  0  0  0  0  0  0
   -6.2100    2.3062    0.0000 C   0  0  0  0  0  0  0  0  0  0  0  0
   -4.7101    2.2950    0.0000 O   0  0  0  0  0  0  0  0  0  0  0  0
   -6.9503    3.6108    0.0000 O   0  0  0  0  0  0  0  0  0  0  0  0
  1  2  1  0
  3  2  1  1
  3  4  1  0
  4  5  1  0
  5  6  2  0
  5  7  1  0
  7  8  1  0
  8  9  1  0
  9 10  1  6
  9 11  1  0
 11 12  1  6
 12 13  1  0
 14 13  1  6
 14 15  1  0
 15 16  1  1
 16 17  1  1
 16 18  1  0
 19 18  1  1
 19 20  1  0
 20 21  1  0
 21 22  1  1
 21 23  1  0
 23 24  1  0
 24 25  1  0
 25 26  1  6
 25 27  1  0
 27 28  1  6
 28 29  1  0
 29 30  1  0
 30 31  1  6
  3 32  1  0
 32 33  2  0
 32 34  1  0
 30 11  1  0
 30 14  1  0
 27 15  1  0
 25 19  1  0
M  END
>  <MS_ID>  (557) 
MS0582

>  <SMILES>  (557) 
CC[C@H](NC(=O)CC[C@@H](C)[C@H]1CC[C@H]2[C@@H]3[C@H](O)C[C@@H]4C[C@H](O)CC[C@]4(C)[C@H]3CC[C@]12C)C(=O)O

>  <Structure_dimension>  (557) 
2D

$$$$
MS0583
     RDKit          2D

 31 34  0  0  0  0  0  0  0  0999 V2000
   -5.9300   -2.0191    0.0000 C   0  0  0  0  0  0  0  0  0  0  0  0
   -4.7075   -1.1499    0.0000 C   0  0  0  0  0  0  0  0  0  0  0  0
   -4.8490    0.3434    0.0000 C   0  0  0  0  0  0  0  0  0  0  0  0
   -6.2130    0.9675    0.0000 C   0  0  0  0  0  0  0  0  0  0  0  0
   -6.3545    2.4608    0.0000 C   0  0  0  0  0  0  0  0  0  0  0  0
   -5.1320    3.3300    0.0000 O   0  0  0  0  0  0  0  0  0  0  0  0
   -7.7185    3.0849    0.0000 O   0  0  0  0  0  0  0  0  0  0  0  0
   -3.3435   -1.7740    0.0000 C   0  0  0  0  0  0  0  0  0  0  0  0
   -3.0466   -3.2443    0.0000 C   0  0  0  0  0  0  0  0  0  0  0  0
   -1.5565   -3.4164    0.0000 C   0  0  0  0  0  0  0  0  0  0  0  0
   -0.9324   -2.0524    0.0000 C   0  0  0  0  0  0  0  0  0  0  0  0
    0.4988   -1.6035    0.0000 C   0  0  0  0  0  0  0  0  0  0  0  0
    1.6032   -2.6186    0.0000 C   0  0  0  0  0  0  0  0  0  0  0  0
    3.0345   -2.1697    0.0000 C   0  0  0  0  0  0  0  0  0  0  0  0
    3.3613   -0.7057    0.0000 C   0  0  0  0  0  0  0  0  0  0  0  0
    4.7926   -0.2568    0.0000 C   0  0  0  0  0  0  0  0  0  0  0  0
    5.1195    1.2071    0.0000 C   0  0  0  0  0  0  0  0  0  0  0  0
    6.5507    1.6560    0.0000 C   0  0  0  0  0  0  0  0  0  0  0  0
    7.6551    0.6409    0.0000 C   0  0  0  0  0  0  0  0  0  0  0  0
    7.3282   -0.8230    0.0000 O   0  0  0  0  0  0  0  0  0  0  0  0
    9.0864    1.0898    0.0000 O   0  0  0  0  0  0  0  0  0  0  0  0
    4.0151    2.2222    0.0000 C   0  0  0  0  0  0  0  0  0  0  0  0
    2.5838    1.7733    0.0000 C   0  0  0  0  0  0  0  0  0  0  0  0
    2.2570    0.3093    0.0000 C   0  0  0  0  0  0  0  0  0  0  0  0
    1.1526    1.3244    0.0000 C   0  0  0  0  0  0  0  0  0  0  0  0
    0.8257   -0.1396    0.0000 C   0  0  0  0  0  0  0  0  0  0  0  0
   -0.2787    0.8755    0.0000 C   0  0  0  0  0  0  0  0  0  0  0  0
   -1.7099    0.4266    0.0000 C   0  0  0  0  0  0  0  0  0  0  0  0
   -2.8143    1.4417    0.0000 O   0  0  0  0  0  0  0  0  0  0  0  0
   -2.0368   -1.0373    0.0000 C   0  0  0  0  0  0  0  0  0  0  0  0
   -3.2413   -0.1433    0.0000 C   0  0  0  0  0  0  0  0  0  0  0  0
  2  1  1  6
  2  3  1  0
  3  4  1  0
  4  5  1  0
  5  6  2  0
  5  7  1  0
  2  8  1  0
  8  9  1  6
  9 10  1  0
 11 10  1  6
 11 12  1  0
 12 13  1  1
 13 14  1  0
 15 14  1  1
 15 16  1  0
 16 17  1  0
 17 18  1  1
 18 19  1  0
 19 20  2  0
 19 21  1  0
 17 22  1  0
 22 23  1  0
 23 24  1  0
 24 25  1  6
 24 26  1  0
 26 27  1  6
 27 28  1  0
 28 29  1  1
 28 30  1  0
 30 31  1  6
 30  8  1  0
 30 11  1  0
 26 12  1  0
 24 15  1  0
M  END
>  <MS_ID>  (558) 
MS0583

>  <SMILES>  (558) 
C[C@H](CCC(=O)O)[C@H]1CC[C@H]2[C@@H]3CC[C@@H]4C[C@H](CC(=O)O)CC[C@]4(C)[C@H]3C[C@H](O)[C@]12C

>  <Structure_dimension>  (558) 
2D

$$$$
MS0584
     RDKit          2D

 31 34  0  0  0  0  0  0  0  0999 V2000
   -3.5119   -3.5779    0.0000 C   0  0  0  0  0  0  0  0  0  0  0  0
   -2.6109   -2.3787    0.0000 C   0  0  0  0  0  0  0  0  0  0  0  0
   -3.1991   -0.9988    0.0000 C   0  0  0  0  0  0  0  0  0  0  0  0
   -4.6881   -0.8181    0.0000 C   0  0  0  0  0  0  0  0  0  0  0  0
   -5.2762    0.5618    0.0000 C   0  0  0  0  0  0  0  0  0  0  0  0
   -4.3753    1.7610    0.0000 O   0  0  0  0  0  0  0  0  0  0  0  0
   -6.7653    0.7424    0.0000 O   0  0  0  0  0  0  0  0  0  0  0  0
   -7.3534    2.1223    0.0000 C   0  0  0  0  0  0  0  0  0  0  0  0
   -8.8425    2.3029    0.0000 C   0  0  0  0  0  0  0  0  0  0  0  0
   -9.4306    3.6828    0.0000 O   0  0  0  0  0  0  0  0  0  0  0  0
   -1.1219   -2.5593    0.0000 C   0  0  0  0  0  0  0  0  0  0  0  0
   -0.3927   -3.8702    0.0000 C   0  0  0  0  0  0  0  0  0  0  0  0
    1.0793   -3.5818    0.0000 C   0  0  0  0  0  0  0  0  0  0  0  0
    1.2599   -2.0927    0.0000 C   0  0  0  0  0  0  0  0  0  0  0  0
    2.4874   -1.2306    0.0000 C   0  0  0  0  0  0  0  0  0  0  0  0
    3.8478   -1.8625    0.0000 C   0  0  0  0  0  0  0  0  0  0  0  0
    3.9807   -3.3566    0.0000 O   0  0  0  0  0  0  0  0  0  0  0  0
    5.0753   -1.0003    0.0000 C   0  0  0  0  0  0  0  0  0  0  0  0
    4.9423    0.4938    0.0000 C   0  0  0  0  0  0  0  0  0  0  0  0
    6.1698    1.3559    0.0000 C   0  0  0  0  0  0  0  0  0  0  0  0
    6.0369    2.8500    0.0000 C   0  0  0  0  0  0  0  0  0  0  0  0
    7.2644    3.7122    0.0000 O   0  0  0  0  0  0  0  0  0  0  0  0
    4.6765    3.4820    0.0000 C   0  0  0  0  0  0  0  0  0  0  0  0
    3.4490    2.6198    0.0000 C   0  0  0  0  0  0  0  0  0  0  0  0
    3.5820    1.1257    0.0000 C   0  0  0  0  0  0  0  0  0  0  0  0
    2.2216    1.7576    0.0000 C   0  0  0  0  0  0  0  0  0  0  0  0
    2.3545    0.2635    0.0000 C   0  0  0  0  0  0  0  0  0  0  0  0
    0.9941    0.8955    0.0000 C   0  0  0  0  0  0  0  0  0  0  0  0
   -0.2334    0.0333    0.0000 C   0  0  0  0  0  0  0  0  0  0  0  0
   -0.1005   -1.4608    0.0000 C   0  0  0  0  0  0  0  0  0  0  0  0
   -1.5195   -0.9745    0.0000 C   0  0  0  0  0  0  0  0  0  0  0  0
  2  1  1  6
  2  3  1  0
  3  4  1  0
  4  5  1  0
  5  6  2  0
  5  7  1  0
  7  8  1  0
  8  9  1  0
  9 10  1  0
  2 11  1  0
 11 12  1  6
 12 13  1  0
 14 13  1  6
 14 15  1  0
 15 16  1  1
 16 17  1  1
 16 18  1  0
 19 18  1  1
 19 20  1  0
 20 21  1  0
 21 22  1  1
 21 23  1  0
 23 24  1  0
 24 25  1  0
 25 26  1  6
 25 27  1  0
 27 28  1  6
 28 29  1  0
 29 30  1  0
 30 31  1  6
 30 11  1  0
 30 14  1  0
 27 15  1  0
 25 19  1  0
M  END
>  <MS_ID>  (559) 
MS0584

>  <SMILES>  (559) 
C[C@H](CCC(=O)OCCO)[C@H]1CC[C@H]2[C@@H]3[C@H](O)C[C@@H]4C[C@H](O)CC[C@]4(C)[C@H]3CC[C@]12C

>  <Structure_dimension>  (559) 
2D

$$$$
MS0585
     RDKit          2D

 33 36  0  0  0  0  0  0  0  0999 V2000
   -2.6994   -3.8605    0.0000 C   0  0  0  0  0  0  0  0  0  0  0  0
   -1.8238   -2.6426    0.0000 C   0  0  0  0  0  0  0  0  0  0  0  0
   -2.4407   -1.2753    0.0000 C   0  0  0  0  0  0  0  0  0  0  0  0
   -3.9333   -1.1259    0.0000 C   0  0  0  0  0  0  0  0  0  0  0  0
   -4.5502    0.2413    0.0000 C   0  0  0  0  0  0  0  0  0  0  0  0
   -3.6745    1.4592    0.0000 O   0  0  0  0  0  0  0  0  0  0  0  0
   -6.0427    0.3907    0.0000 N   0  0  0  0  0  0  0  0  0  0  0  0
   -6.6596    1.7580    0.0000 O   0  0  0  0  0  0  0  0  0  0  0  0
   -8.1522    1.9073    0.0000 S   0  0  0  0  0  0  0  0  0  0  0  0
   -8.3015    0.4148    0.0000 O   0  0  0  0  0  0  0  0  0  0  0  0
   -8.0028    3.3999    0.0000 O   0  0  0  0  0  0  0  0  0  0  0  0
   -9.6447    2.0567    0.0000 O   0  0  0  0  0  0  0  0  0  0  0  0
   -0.3313   -2.7920    0.0000 C   0  0  0  0  0  0  0  0  0  0  0  0
    0.4252   -4.0872    0.0000 C   0  0  0  0  0  0  0  0  0  0  0  0
    1.8908   -3.7681    0.0000 C   0  0  0  0  0  0  0  0  0  0  0  0
    2.0402   -2.2755    0.0000 C   0  0  0  0  0  0  0  0  0  0  0  0
    3.2493   -1.3878    0.0000 C   0  0  0  0  0  0  0  0  0  0  0  0
    4.6227   -1.9911    0.0000 C   0  0  0  0  0  0  0  0  0  0  0  0
    5.8318   -1.1034    0.0000 C   0  0  0  0  0  0  0  0  0  0  0  0
    5.6676    0.3876    0.0000 C   0  0  0  0  0  0  0  0  0  0  0  0
    6.8767    1.2753    0.0000 C   0  0  0  0  0  0  0  0  0  0  0  0
    6.7125    2.7663    0.0000 C   0  0  0  0  0  0  0  0  0  0  0  0
    7.9216    3.6540    0.0000 O   0  0  0  0  0  0  0  0  0  0  0  0
    5.3392    3.3695    0.0000 C   0  0  0  0  0  0  0  0  0  0  0  0
    4.1300    2.4818    0.0000 C   0  0  0  0  0  0  0  0  0  0  0  0
    4.2943    0.9909    0.0000 C   0  0  0  0  0  0  0  0  0  0  0  0
    2.9209    1.5941    0.0000 C   0  0  0  0  0  0  0  0  0  0  0  0
    3.0851    0.1031    0.0000 C   0  0  0  0  0  0  0  0  0  0  0  0
    1.7118    0.7064    0.0000 C   0  0  0  0  0  0  0  0  0  0  0  0
    0.5027   -0.1813    0.0000 C   0  0  0  0  0  0  0  0  0  0  0  0
   -0.8707    0.4220    0.0000 O   0  0  0  0  0  0  0  0  0  0  0  0
    0.6669   -1.6723    0.0000 C   0  0  0  0  0  0  0  0  0  0  0  0
   -0.7620   -1.2158    0.0000 C   0  0  0  0  0  0  0  0  0  0  0  0
  2  1  1  6
  2  3  1  0
  3  4  1  0
  4  5  1  0
  5  6  2  0
  5  7  1  0
  7  8  1  0
  8  9  1  0
  9 10  2  0
  9 11  2  0
  9 12  1  0
  2 13  1  0
 13 14  1  6
 14 15  1  0
 16 15  1  6
 16 17  1  0
 17 18  1  1
 18 19  1  0
 20 19  1  1
 20 21  1  0
 21 22  1  0
 22 23  1  1
 22 24  1  0
 24 25  1  0
 25 26  1  0
 26 27  1  6
 26 28  1  0
 28 29  1  6
 29 30  1  0
 30 31  1  1
 30 32  1  0
 32 33  1  6
 32 13  1  0
 32 16  1  0
 28 17  1  0
 26 20  1  0
M  END
>  <MS_ID>  (560) 
MS0585

>  <SMILES>  (560) 
C[C@H](CCC(=O)NOS(=O)(=O)O)[C@H]1CC[C@H]2[C@@H]3CC[C@@H]4C[C@H](O)CC[C@]4(C)[C@H]3C[C@H](O)[C@]12C

>  <Structure_dimension>  (560) 
2D

$$$$
MS0586
     RDKit          2D

 31 34  0  0  0  0  0  0  0  0999 V2000
   -3.5119   -3.5779    0.0000 C   0  0  0  0  0  0  0  0  0  0  0  0
   -2.6109   -2.3787    0.0000 C   0  0  0  0  0  0  0  0  0  0  0  0
   -3.1991   -0.9988    0.0000 C   0  0  0  0  0  0  0  0  0  0  0  0
   -4.6881   -0.8181    0.0000 C   0  0  0  0  0  0  0  0  0  0  0  0
   -5.2762    0.5618    0.0000 C   0  0  0  0  0  0  0  0  0  0  0  0
   -4.3753    1.7610    0.0000 O   0  0  0  0  0  0  0  0  0  0  0  0
   -6.7653    0.7424    0.0000 O   0  0  0  0  0  0  0  0  0  0  0  0
   -7.3534    2.1223    0.0000 C   0  0  0  0  0  0  0  0  0  0  0  0
   -8.8425    2.3029    0.0000 C   0  0  0  0  0  0  0  0  0  0  0  0
   -9.4306    3.6828    0.0000 N   0  0  0  0  0  0  0  0  0  0  0  0
   -1.1219   -2.5593    0.0000 C   0  0  0  0  0  0  0  0  0  0  0  0
   -0.3927   -3.8702    0.0000 C   0  0  0  0  0  0  0  0  0  0  0  0
    1.0793   -3.5818    0.0000 C   0  0  0  0  0  0  0  0  0  0  0  0
    1.2599   -2.0927    0.0000 C   0  0  0  0  0  0  0  0  0  0  0  0
    2.4874   -1.2306    0.0000 C   0  0  0  0  0  0  0  0  0  0  0  0
    3.8478   -1.8625    0.0000 C   0  0  0  0  0  0  0  0  0  0  0  0
    3.9807   -3.3566    0.0000 O   0  0  0  0  0  0  0  0  0  0  0  0
    5.0753   -1.0003    0.0000 C   0  0  0  0  0  0  0  0  0  0  0  0
    4.9423    0.4938    0.0000 C   0  0  0  0  0  0  0  0  0  0  0  0
    6.1698    1.3559    0.0000 C   0  0  0  0  0  0  0  0  0  0  0  0
    6.0369    2.8500    0.0000 C   0  0  0  0  0  0  0  0  0  0  0  0
    7.2644    3.7122    0.0000 O   0  0  0  0  0  0  0  0  0  0  0  0
    4.6765    3.4820    0.0000 C   0  0  0  0  0  0  0  0  0  0  0  0
    3.4490    2.6198    0.0000 C   0  0  0  0  0  0  0  0  0  0  0  0
    3.5820    1.1257    0.0000 C   0  0  0  0  0  0  0  0  0  0  0  0
    2.2216    1.7576    0.0000 C   0  0  0  0  0  0  0  0  0  0  0  0
    2.3545    0.2635    0.0000 C   0  0  0  0  0  0  0  0  0  0  0  0
    0.9941    0.8955    0.0000 C   0  0  0  0  0  0  0  0  0  0  0  0
   -0.2334    0.0333    0.0000 C   0  0  0  0  0  0  0  0  0  0  0  0
   -0.1005   -1.4608    0.0000 C   0  0  0  0  0  0  0  0  0  0  0  0
   -1.5195   -0.9745    0.0000 C   0  0  0  0  0  0  0  0  0  0  0  0
  2  1  1  6
  2  3  1  0
  3  4  1  0
  4  5  1  0
  5  6  2  0
  5  7  1  0
  7  8  1  0
  8  9  1  0
  9 10  1  0
  2 11  1  0
 11 12  1  6
 12 13  1  0
 14 13  1  6
 14 15  1  0
 15 16  1  1
 16 17  1  1
 16 18  1  0
 19 18  1  1
 19 20  1  0
 20 21  1  0
 21 22  1  1
 21 23  1  0
 23 24  1  0
 24 25  1  0
 25 26  1  6
 25 27  1  0
 27 28  1  6
 28 29  1  0
 29 30  1  0
 30 31  1  6
 30 11  1  0
 30 14  1  0
 27 15  1  0
 25 19  1  0
M  END
>  <MS_ID>  (561) 
MS0586

>  <SMILES>  (561) 
C[C@H](CCC(=O)OCCN)[C@H]1CC[C@H]2[C@@H]3[C@H](O)C[C@@H]4C[C@H](O)CC[C@]4(C)[C@H]3CC[C@]12C

>  <Structure_dimension>  (561) 
2D

$$$$
MS0587
     RDKit          2D

 30 33  0  0  0  0  0  0  0  0999 V2000
   -4.5685   -2.6908    0.0000 C   0  0  0  0  0  0  0  0  0  0  0  0
   -3.4838   -1.6548    0.0000 C   0  0  0  0  0  0  0  0  0  0  0  0
   -3.8388   -0.1974    0.0000 C   0  0  0  0  0  0  0  0  0  0  0  0
   -5.2784    0.2240    0.0000 C   0  0  0  0  0  0  0  0  0  0  0  0
   -5.6333    1.6814    0.0000 C   0  0  0  0  0  0  0  0  0  0  0  0
   -4.5486    2.7174    0.0000 O   0  0  0  0  0  0  0  0  0  0  0  0
   -7.0729    2.1027    0.0000 N   0  0  0  0  0  0  0  0  0  0  0  0
   -7.4279    3.5601    0.0000 O   0  0  0  0  0  0  0  0  0  0  0  0
   -2.0442   -2.0761    0.0000 C   0  0  0  0  0  0  0  0  0  0  0  0
   -1.5389   -3.4884    0.0000 C   0  0  0  0  0  0  0  0  0  0  0  0
   -0.0395   -3.4442    0.0000 C   0  0  0  0  0  0  0  0  0  0  0  0
    0.3818   -2.0046    0.0000 C   0  0  0  0  0  0  0  0  0  0  0  0
    1.7336   -1.3544    0.0000 C   0  0  0  0  0  0  0  0  0  0  0  0
    2.9725   -2.1999    0.0000 C   0  0  0  0  0  0  0  0  0  0  0  0
    2.8597   -3.6957    0.0000 O   0  0  0  0  0  0  0  0  0  0  0  0
    4.3243   -1.5497    0.0000 C   0  0  0  0  0  0  0  0  0  0  0  0
    4.4371   -0.0540    0.0000 C   0  0  0  0  0  0  0  0  0  0  0  0
    5.7888    0.5962    0.0000 C   0  0  0  0  0  0  0  0  0  0  0  0
    5.9016    2.0920    0.0000 C   0  0  0  0  0  0  0  0  0  0  0  0
    7.2534    2.7422    0.0000 O   0  0  0  0  0  0  0  0  0  0  0  0
    4.6627    2.9375    0.0000 C   0  0  0  0  0  0  0  0  0  0  0  0
    3.3109    2.2873    0.0000 C   0  0  0  0  0  0  0  0  0  0  0  0
    3.1981    0.7916    0.0000 C   0  0  0  0  0  0  0  0  0  0  0  0
    1.9591    1.6371    0.0000 C   0  0  0  0  0  0  0  0  0  0  0  0
    1.8464    0.1414    0.0000 C   0  0  0  0  0  0  0  0  0  0  0  0
    0.6074    0.9869    0.0000 C   0  0  0  0  0  0  0  0  0  0  0  0
   -0.7444    0.3367    0.0000 C   0  0  0  0  0  0  0  0  0  0  0  0
   -1.9833    1.1823    0.0000 O   0  0  0  0  0  0  0  0  0  0  0  0
   -0.8572   -1.1590    0.0000 C   0  0  0  0  0  0  0  0  0  0  0  0
   -2.1777   -0.4476    0.0000 C   0  0  0  0  0  0  0  0  0  0  0  0
  2  1  1  6
  2  3  1  0
  3  4  1  0
  4  5  1  0
  5  6  2  0
  5  7  1  0
  7  8  1  0
  2  9  1  0
  9 10  1  6
 10 11  1  0
 12 11  1  6
 12 13  1  0
 13 14  1  1
 14 15  1  1
 14 16  1  0
 17 16  1  1
 17 18  1  0
 18 19  1  0
 19 20  1  6
 19 21  1  0
 21 22  1  0
 22 23  1  0
 23 24  1  6
 23 25  1  0
 25 26  1  6
 26 27  1  0
 27 28  1  1
 27 29  1  0
 29 30  1  6
 29  9  1  0
 29 12  1  0
 25 13  1  0
 23 17  1  0
M  END
>  <MS_ID>  (562) 
MS0587

>  <SMILES>  (562) 
C[C@H](CCC(=O)NO)[C@H]1CC[C@H]2[C@@H]3[C@H](O)C[C@@H]4C[C@@H](O)CC[C@]4(C)[C@H]3C[C@H](O)[C@]12C

>  <Structure_dimension>  (562) 
2D

$$$$
MS0588
     RDKit          2D

 28 31  0  0  0  0  0  0  0  0999 V2000
   -5.1275   -2.0302    0.0000 C   0  0  0  0  0  0  0  0  0  0  0  0
   -3.9468   -1.1050    0.0000 C   0  0  0  0  0  0  0  0  0  0  0  0
   -4.1576    0.3801    0.0000 C   0  0  0  0  0  0  0  0  0  0  0  0
   -5.5492    0.9401    0.0000 C   0  0  0  0  0  0  0  0  0  0  0  0
   -5.7600    2.4252    0.0000 C   0  0  0  0  0  0  0  0  0  0  0  0
   -4.5793    3.3503    0.0000 O   0  0  0  0  0  0  0  0  0  0  0  0
   -7.1516    2.9851    0.0000 O   0  0  0  0  0  0  0  0  0  0  0  0
   -2.5552   -1.6650    0.0000 C   0  0  0  0  0  0  0  0  0  0  0  0
   -2.1903   -3.1199    0.0000 C   0  0  0  0  0  0  0  0  0  0  0  0
   -0.6938   -3.2225    0.0000 C   0  0  0  0  0  0  0  0  0  0  0  0
   -0.1339   -1.8309    0.0000 C   0  0  0  0  0  0  0  0  0  0  0  0
    1.2750   -1.3159    0.0000 C   0  0  0  0  0  0  0  0  0  0  0  0
    2.4254   -2.2785    0.0000 C   0  0  0  0  0  0  0  0  0  0  0  0
    2.1670   -3.7560    0.0000 O   0  0  0  0  0  0  0  0  0  0  0  0
    3.8342   -1.7635    0.0000 C   0  0  0  0  0  0  0  0  0  0  0  0
    4.0926   -0.2859    0.0000 C   0  0  0  0  0  0  0  0  0  0  0  0
    5.5014    0.2291    0.0000 C   0  0  0  0  0  0  0  0  0  0  0  0
    5.7598    1.7067    0.0000 C   0  0  0  0  0  0  0  0  0  0  0  0
    7.1687    2.2217    0.0000 F   0  0  0  0  0  0  0  0  0  0  0  0
    4.6094    2.6692    0.0000 C   0  0  0  0  0  0  0  0  0  0  0  0
    3.2006    2.1542    0.0000 C   0  0  0  0  0  0  0  0  0  0  0  0
    2.9422    0.6767    0.0000 C   0  0  0  0  0  0  0  0  0  0  0  0
    1.7918    1.6392    0.0000 C   0  0  0  0  0  0  0  0  0  0  0  0
    1.5334    0.1617    0.0000 C   0  0  0  0  0  0  0  0  0  0  0  0
    0.3830    1.1242    0.0000 C   0  0  0  0  0  0  0  0  0  0  0  0
   -1.0259    0.6093    0.0000 C   0  0  0  0  0  0  0  0  0  0  0  0
   -1.2843   -0.8683    0.0000 C   0  0  0  0  0  0  0  0  0  0  0  0
   -2.5290   -0.0313    0.0000 C   0  0  0  0  0  0  0  0  0  0  0  0
  2  1  1  6
  2  3  1  0
  3  4  1  0
  4  5  1  0
  5  6  2  0
  5  7  1  0
  2  8  1  0
  8  9  1  6
  9 10  1  0
 11 10  1  6
 11 12  1  0
 12 13  1  1
 13 14  1  6
 13 15  1  0
 16 15  1  1
 16 17  1  0
 17 18  1  0
 18 19  1  1
 18 20  1  0
 20 21  1  0
 21 22  1  0
 22 23  1  6
 22 24  1  0
 24 25  1  6
 25 26  1  0
 26 27  1  0
 27 28  1  6
 27  8  1  0
 27 11  1  0
 24 12  1  0
 22 16  1  0
M  END
>  <MS_ID>  (563) 
MS0588

>  <SMILES>  (563) 
C[C@H](CCC(=O)O)[C@H]1CC[C@H]2[C@@H]3[C@@H](O)C[C@@H]4C[C@H](F)CC[C@]4(C)[C@H]3CC[C@]12C

>  <Structure_dimension>  (563) 
2D

$$$$
MS0589
     RDKit          2D

 31 34  0  0  0  0  0  0  0  0999 V2000
   -5.9226   -1.7341    0.0000 C   0  0  0  0  0  0  0  0  0  0  0  0
   -4.6300   -0.9732    0.0000 C   0  0  0  0  0  0  0  0  0  0  0  0
   -4.6426    0.5267    0.0000 C   0  0  0  0  0  0  0  0  0  0  0  0
   -5.9479    1.2657    0.0000 C   0  0  0  0  0  0  0  0  0  0  0  0
   -5.9606    2.7657    0.0000 C   0  0  0  0  0  0  0  0  0  0  0  0
   -4.6680    3.5266    0.0000 O   0  0  0  0  0  0  0  0  0  0  0  0
   -7.2659    3.5047    0.0000 O   0  0  0  0  0  0  0  0  0  0  0  0
   -3.3246   -1.7122    0.0000 C   0  0  0  0  0  0  0  0  0  0  0  0
   -3.1552   -3.2026    0.0000 C   0  0  0  0  0  0  0  0  0  0  0  0
   -1.6854   -3.5021    0.0000 C   0  0  0  0  0  0  0  0  0  0  0  0
   -0.9464   -2.1967    0.0000 C   0  0  0  0  0  0  0  0  0  0  0  0
    0.5181   -1.8725    0.0000 C   0  0  0  0  0  0  0  0  0  0  0  0
    1.5312   -2.9787    0.0000 C   0  0  0  0  0  0  0  0  0  0  0  0
    2.9957   -2.6545    0.0000 C   0  0  0  0  0  0  0  0  0  0  0  0
    3.4472   -1.2240    0.0000 C   0  0  0  0  0  0  0  0  0  0  0  0
    4.9117   -0.8998    0.0000 C   0  0  0  0  0  0  0  0  0  0  0  0
    5.3632    0.5307    0.0000 C   0  0  0  0  0  0  0  0  0  0  0  0
    6.6935   -0.1623    0.0000 O   0  0  0  0  0  0  0  0  0  0  0  0
    6.2766    1.7205    0.0000 C   0  0  0  0  0  0  0  0  0  0  0  0
    5.7030    3.1064    0.0000 O   0  0  0  0  0  0  0  0  0  0  0  0
    7.7638    1.5243    0.0000 O   0  0  0  0  0  0  0  0  0  0  0  0
    4.3501    1.6369    0.0000 C   0  0  0  0  0  0  0  0  0  0  0  0
    2.8856    1.3126    0.0000 C   0  0  0  0  0  0  0  0  0  0  0  0
    2.4341   -0.1178    0.0000 C   0  0  0  0  0  0  0  0  0  0  0  0
    1.4210    0.9884    0.0000 C   0  0  0  0  0  0  0  0  0  0  0  0
    0.9696   -0.4421    0.0000 C   0  0  0  0  0  0  0  0  0  0  0  0
   -0.0435    0.6641    0.0000 C   0  0  0  0  0  0  0  0  0  0  0  0
   -1.5080    0.3399    0.0000 C   0  0  0  0  0  0  0  0  0  0  0  0
   -2.5211    1.4461    0.0000 O   0  0  0  0  0  0  0  0  0  0  0  0
   -1.9595   -1.0905    0.0000 C   0  0  0  0  0  0  0  0  0  0  0  0
   -3.0827   -0.0963    0.0000 C   0  0  0  0  0  0  0  0  0  0  0  0
  2  1  1  6
  2  3  1  0
  3  4  1  0
  4  5  1  0
  5  6  2  0
  5  7  1  0
  2  8  1  0
  8  9  1  6
  9 10  1  0
 11 10  1  6
 11 12  1  0
 12 13  1  1
 13 14  1  0
 15 14  1  1
 15 16  1  0
 16 17  1  0
 17 18  1  1
 17 19  1  0
 19 20  2  0
 19 21  1  0
 17 22  1  0
 22 23  1  0
 23 24  1  0
 24 25  1  6
 24 26  1  0
 26 27  1  6
 27 28  1  0
 28 29  1  1
 28 30  1  0
 30 31  1  6
 30  8  1  0
 30 11  1  0
 26 12  1  0
 24 15  1  0
M  END
>  <MS_ID>  (564) 
MS0589

>  <SMILES>  (564) 
C[C@H](CCC(=O)O)[C@H]1CC[C@H]2[C@@H]3CC[C@@H]4C[C@@](O)(C(=O)O)CC[C@]4(C)[C@H]3C[C@H](O)[C@]12C

>  <Structure_dimension>  (564) 
2D

$$$$
MS0591
     RDKit          2D

 31 34  0  0  0  0  0  0  0  0999 V2000
   -3.5119   -3.5779    0.0000 C   0  0  0  0  0  0  0  0  0  0  0  0
   -2.6109   -2.3787    0.0000 C   0  0  0  0  0  0  0  0  0  0  0  0
   -3.1991   -0.9988    0.0000 C   0  0  0  0  0  0  0  0  0  0  0  0
   -4.6881   -0.8181    0.0000 C   0  0  0  0  0  0  0  0  0  0  0  0
   -5.2762    0.5618    0.0000 C   0  0  0  0  0  0  0  0  0  0  0  0
   -4.3753    1.7610    0.0000 O   0  0  0  0  0  0  0  0  0  0  0  0
   -6.7653    0.7424    0.0000 O   0  0  0  0  0  0  0  0  0  0  0  0
   -7.3534    2.1223    0.0000 C   0  0  0  0  0  0  0  0  0  0  0  0
   -8.8425    2.3029    0.0000 C   0  0  0  0  0  0  0  0  0  0  0  0
   -9.4306    3.6828    0.0000 O   0  0  0  0  0  0  0  0  0  0  0  0
   -1.1219   -2.5593    0.0000 C   0  0  0  0  0  0  0  0  0  0  0  0
   -0.3927   -3.8702    0.0000 C   0  0  0  0  0  0  0  0  0  0  0  0
    1.0793   -3.5818    0.0000 C   0  0  0  0  0  0  0  0  0  0  0  0
    1.2599   -2.0927    0.0000 C   0  0  0  0  0  0  0  0  0  0  0  0
    2.4874   -1.2306    0.0000 C   0  0  0  0  0  0  0  0  0  0  0  0
    3.8478   -1.8625    0.0000 C   0  0  0  0  0  0  0  0  0  0  0  0
    3.9807   -3.3566    0.0000 O   0  0  0  0  0  0  0  0  0  0  0  0
    5.0753   -1.0003    0.0000 C   0  0  0  0  0  0  0  0  0  0  0  0
    4.9423    0.4938    0.0000 C   0  0  0  0  0  0  0  0  0  0  0  0
    6.1698    1.3559    0.0000 C   0  0  0  0  0  0  0  0  0  0  0  0
    6.0369    2.8500    0.0000 C   0  0  0  0  0  0  0  0  0  0  0  0
    7.2644    3.7122    0.0000 O   0  0  0  0  0  0  0  0  0  0  0  0
    4.6765    3.4820    0.0000 C   0  0  0  0  0  0  0  0  0  0  0  0
    3.4490    2.6198    0.0000 C   0  0  0  0  0  0  0  0  0  0  0  0
    3.5820    1.1257    0.0000 C   0  0  0  0  0  0  0  0  0  0  0  0
    2.2216    1.7576    0.0000 C   0  0  0  0  0  0  0  0  0  0  0  0
    2.3545    0.2635    0.0000 C   0  0  0  0  0  0  0  0  0  0  0  0
    0.9941    0.8955    0.0000 C   0  0  0  0  0  0  0  0  0  0  0  0
   -0.2334    0.0333    0.0000 C   0  0  0  0  0  0  0  0  0  0  0  0
   -0.1005   -1.4608    0.0000 C   0  0  0  0  0  0  0  0  0  0  0  0
   -1.5195   -0.9745    0.0000 C   0  0  0  0  0  0  0  0  0  0  0  0
  2  1  1  6
  2  3  1  0
  3  4  1  0
  4  5  1  0
  5  6  2  0
  5  7  1  0
  7  8  1  0
  8  9  1  0
  9 10  1  0
  2 11  1  0
 11 12  1  6
 12 13  1  0
 14 13  1  6
 14 15  1  0
 15 16  1  1
 16 17  1  6
 16 18  1  0
 19 18  1  1
 19 20  1  0
 20 21  1  0
 21 22  1  1
 21 23  1  0
 23 24  1  0
 24 25  1  0
 25 26  1  6
 25 27  1  0
 27 28  1  6
 28 29  1  0
 29 30  1  0
 30 31  1  6
 30 11  1  0
 30 14  1  0
 27 15  1  0
 25 19  1  0
M  END
>  <MS_ID>  (565) 
MS0591

>  <SMILES>  (565) 
C[C@H](CCC(=O)OCCO)[C@H]1CC[C@H]2[C@@H]3[C@@H](O)C[C@@H]4C[C@H](O)CC[C@]4(C)[C@H]3CC[C@]12C

>  <Structure_dimension>  (565) 
2D

$$$$
MS0592
     RDKit          2D

 31 34  0  0  0  0  0  0  0  0999 V2000
   -2.9977   -3.6783    0.0000 C   0  0  0  0  0  0  0  0  0  0  0  0
   -2.1750   -2.4240    0.0000 C   0  0  0  0  0  0  0  0  0  0  0  0
   -2.8500   -1.0844    0.0000 C   0  0  0  0  0  0  0  0  0  0  0  0
   -4.3475   -0.9991    0.0000 C   0  0  0  0  0  0  0  0  0  0  0  0
   -5.0224    0.3405    0.0000 C   0  0  0  0  0  0  0  0  0  0  0  0
   -4.1998    1.5947    0.0000 O   0  0  0  0  0  0  0  0  0  0  0  0
   -6.5200    0.4258    0.0000 O   0  0  0  0  0  0  0  0  0  0  0  0
   -7.1949    1.7653    0.0000 C   0  0  0  0  0  0  0  0  0  0  0  0
   -8.6925    1.8506    0.0000 C   0  0  0  0  0  0  0  0  0  0  0  0
   -9.3674    3.1902    0.0000 O   0  0  0  0  0  0  0  0  0  0  0  0
   -0.6775   -2.5093    0.0000 C   0  0  0  0  0  0  0  0  0  0  0  0
    0.1338   -3.7710    0.0000 C   0  0  0  0  0  0  0  0  0  0  0  0
    1.5844   -3.3894    0.0000 C   0  0  0  0  0  0  0  0  0  0  0  0
    1.6697   -1.8918    0.0000 C   0  0  0  0  0  0  0  0  0  0  0  0
    2.8397   -0.9531    0.0000 C   0  0  0  0  0  0  0  0  0  0  0  0
    4.2376   -1.4970    0.0000 C   0  0  0  0  0  0  0  0  0  0  0  0
    4.4655   -2.9796    0.0000 O   0  0  0  0  0  0  0  0  0  0  0  0
    5.4076   -0.5583    0.0000 C   0  0  0  0  0  0  0  0  0  0  0  0
    5.1797    0.9243    0.0000 C   0  0  0  0  0  0  0  0  0  0  0  0
    6.3497    1.8629    0.0000 C   0  0  0  0  0  0  0  0  0  0  0  0
    6.1217    3.3455    0.0000 C   0  0  0  0  0  0  0  0  0  0  0  0
    4.7238    3.8894    0.0000 C   0  0  0  0  0  0  0  0  0  0  0  0
    3.5538    2.9507    0.0000 C   0  0  0  0  0  0  0  0  0  0  0  0
    3.7818    1.4682    0.0000 C   0  0  0  0  0  0  0  0  0  0  0  0
    2.3839    2.0121    0.0000 C   0  0  0  0  0  0  0  0  0  0  0  0
    2.6118    0.5295    0.0000 C   0  0  0  0  0  0  0  0  0  0  0  0
    1.2139    1.0734    0.0000 C   0  0  0  0  0  0  0  0  0  0  0  0
    0.0439    0.1347    0.0000 C   0  0  0  0  0  0  0  0  0  0  0  0
   -1.3540    0.6786    0.0000 O   0  0  0  0  0  0  0  0  0  0  0  0
    0.2718   -1.3479    0.0000 C   0  0  0  0  0  0  0  0  0  0  0  0
   -1.1753   -0.9531    0.0000 C   0  0  0  0  0  0  0  0  0  0  0  0
  2  1  1  6
  2  3  1  0
  3  4  1  0
  4  5  1  0
  5  6  2  0
  5  7  1  0
  7  8  1  0
  8  9  1  0
  9 10  1  0
  2 11  1  0
 11 12  1  6
 12 13  1  0
 14 13  1  6
 14 15  1  0
 15 16  1  1
 16 17  1  1
 16 18  1  0
 19 18  1  1
 19 20  1  0
 20 21  1  0
 21 22  1  0
 22 23  1  0
 23 24  1  0
 24 25  1  6
 24 26  1  0
 26 27  1  6
 27 28  1  0
 28 29  1  1
 28 30  1  0
 30 31  1  6
 30 11  1  0
 30 14  1  0
 26 15  1  0
 24 19  1  0
M  END
>  <MS_ID>  (566) 
MS0592

>  <SMILES>  (566) 
C[C@H](CCC(=O)OCCO)[C@H]1CC[C@H]2[C@@H]3[C@H](O)C[C@@H]4CCCC[C@]4(C)[C@H]3C[C@H](O)[C@]12C

>  <Structure_dimension>  (566) 
2D

$$$$
MS0593
     RDKit          2D

 33 36  0  0  0  0  0  0  0  0999 V2000
   -6.7983   -1.8285    0.0000 C   0  0  0  0  0  0  0  0  0  0  0  0
   -5.5727   -0.9636    0.0000 C   0  0  0  0  0  0  0  0  0  0  0  0
   -5.7089    0.5302    0.0000 C   0  0  0  0  0  0  0  0  0  0  0  0
   -7.0707    1.1591    0.0000 C   0  0  0  0  0  0  0  0  0  0  0  0
   -7.2069    2.6529    0.0000 C   0  0  0  0  0  0  0  0  0  0  0  0
   -5.9813    3.5178    0.0000 O   0  0  0  0  0  0  0  0  0  0  0  0
   -8.5686    3.2819    0.0000 O   0  0  0  0  0  0  0  0  0  0  0  0
   -4.2110   -1.5926    0.0000 C   0  0  0  0  0  0  0  0  0  0  0  0
   -3.9194   -3.0640    0.0000 C   0  0  0  0  0  0  0  0  0  0  0  0
   -2.4299   -3.2413    0.0000 C   0  0  0  0  0  0  0  0  0  0  0  0
   -1.8009   -1.8796    0.0000 C   0  0  0  0  0  0  0  0  0  0  0  0
   -0.3681   -1.4358    0.0000 C   0  0  0  0  0  0  0  0  0  0  0  0
    0.7327   -2.4548    0.0000 C   0  0  0  0  0  0  0  0  0  0  0  0
    0.4006   -3.9175    0.0000 O   0  0  0  0  0  0  0  0  0  0  0  0
    2.1655   -2.0110    0.0000 C   0  0  0  0  0  0  0  0  0  0  0  0
    2.4976   -0.5482    0.0000 C   0  0  0  0  0  0  0  0  0  0  0  0
    3.9305   -0.1044    0.0000 C   0  0  0  0  0  0  0  0  0  0  0  0
    4.2625    1.3584    0.0000 C   0  0  0  0  0  0  0  0  0  0  0  0
    5.6954    1.8022    0.0000 C   0  0  0  0  0  0  0  0  0  0  0  0
    6.7961    0.7832    0.0000 C   0  0  0  0  0  0  0  0  0  0  0  0
    8.2290    1.2270    0.0000 C   0  0  0  0  0  0  0  0  0  0  0  0
    9.3298    0.2080    0.0000 C   0  0  0  0  0  0  0  0  0  0  0  0
    8.9977   -1.2548    0.0000 O   0  0  0  0  0  0  0  0  0  0  0  0
   10.7626    0.6518    0.0000 O   0  0  0  0  0  0  0  0  0  0  0  0
    3.1618    2.3773    0.0000 C   0  0  0  0  0  0  0  0  0  0  0  0
    1.7289    1.9336    0.0000 C   0  0  0  0  0  0  0  0  0  0  0  0
    1.3969    0.4708    0.0000 C   0  0  0  0  0  0  0  0  0  0  0  0
    0.2961    1.4898    0.0000 C   0  0  0  0  0  0  0  0  0  0  0  0
   -0.0360    0.0270    0.0000 C   0  0  0  0  0  0  0  0  0  0  0  0
   -1.1368    1.0460    0.0000 C   0  0  0  0  0  0  0  0  0  0  0  0
   -2.5696    0.6022    0.0000 C   0  0  0  0  0  0  0  0  0  0  0  0
   -2.9017   -0.8606    0.0000 C   0  0  0  0  0  0  0  0  0  0  0  0
   -4.1029    0.0378    0.0000 C   0  0  0  0  0  0  0  0  0  0  0  0
  2  1  1  6
  2  3  1  0
  3  4  1  0
  4  5  1  0
  5  6  2  0
  5  7  1  0
  2  8  1  0
  8  9  1  6
  9 10  1  0
 11 10  1  6
 11 12  1  0
 12 13  1  1
 13 14  1  6
 13 15  1  0
 16 15  1  1
 16 17  1  0
 17 18  1  0
 18 19  1  1
 19 20  1  0
 20 21  1  0
 21 22  1  0
 22 23  2  0
 22 24  1  0
 18 25  1  0
 25 26  1  0
 26 27  1  0
 27 28  1  6
 27 29  1  0
 29 30  1  6
 30 31  1  0
 31 32  1  0
 32 33  1  6
 32  8  1  0
 32 11  1  0
 29 12  1  0
 27 16  1  0
M  END
>  <MS_ID>  (567) 
MS0593

>  <SMILES>  (567) 
C[C@H](CCC(=O)O)[C@H]1CC[C@H]2[C@@H]3[C@@H](O)C[C@@H]4C[C@H](CCCC(=O)O)CC[C@]4(C)[C@H]3CC[C@]12C

>  <Structure_dimension>  (567) 
2D

$$$$
MS0594
     RDKit          2D

 34 38  0  0  0  0  0  0  0  0999 V2000
   -2.7422   -3.4682    0.0000 C   0  0  0  0  0  0  0  0  0  0  0  0
   -1.8192   -2.2858    0.0000 C   0  0  0  0  0  0  0  0  0  0  0  0
   -2.3817   -0.8952    0.0000 C   0  0  0  0  0  0  0  0  0  0  0  0
   -3.8672   -0.6871    0.0000 C   0  0  0  0  0  0  0  0  0  0  0  0
   -4.4297    0.7034    0.0000 C   0  0  0  0  0  0  0  0  0  0  0  0
   -3.5067    1.8858    0.0000 O   0  0  0  0  0  0  0  0  0  0  0  0
   -5.9152    0.9116    0.0000 C   0  0  0  0  0  0  0  0  0  0  0  0
   -6.4777    2.3021    0.0000 C   0  0  0  0  0  0  0  0  0  0  0  0
   -7.9632    2.5102    0.0000 C   0  0  0  0  0  0  0  0  0  0  0  0
   -8.8861    1.3278    0.0000 C   0  0  0  0  0  0  0  0  0  0  0  0
  -10.3716    1.5359    0.0000 O   0  0  0  0  0  0  0  0  0  0  0  0
   -8.3236   -0.0627    0.0000 O   0  0  0  0  0  0  0  0  0  0  0  0
   -6.8382   -0.2709    0.0000 C   0  0  0  0  0  0  0  0  0  0  0  0
   -0.3337   -2.4939    0.0000 C   0  0  0  0  0  0  0  0  0  0  0  0
    0.3711   -3.8180    0.0000 C   0  0  0  0  0  0  0  0  0  0  0  0
    1.8482   -3.5569    0.0000 C   0  0  0  0  0  0  0  0  0  0  0  0
    2.0563   -2.0714    0.0000 C   0  0  0  0  0  0  0  0  0  0  0  0
    3.2995   -1.2321    0.0000 C   0  0  0  0  0  0  0  0  0  0  0  0
    4.6480   -1.8891    0.0000 C   0  0  0  0  0  0  0  0  0  0  0  0
    4.7533   -3.3854    0.0000 O   0  0  0  0  0  0  0  0  0  0  0  0
    5.8912   -1.0498    0.0000 C   0  0  0  0  0  0  0  0  0  0  0  0
    5.7859    0.4465    0.0000 C   0  0  0  0  0  0  0  0  0  0  0  0
    7.0291    1.2858    0.0000 C   0  0  0  0  0  0  0  0  0  0  0  0
    6.9238    2.7821    0.0000 C   0  0  0  0  0  0  0  0  0  0  0  0
    8.1670    3.6215    0.0000 O   0  0  0  0  0  0  0  0  0  0  0  0
    5.5754    3.4391    0.0000 C   0  0  0  0  0  0  0  0  0  0  0  0
    4.3322    2.5998    0.0000 C   0  0  0  0  0  0  0  0  0  0  0  0
    4.4374    1.1035    0.0000 C   0  0  0  0  0  0  0  0  0  0  0  0
    3.0890    1.7605    0.0000 C   0  0  0  0  0  0  0  0  0  0  0  0
    3.1942    0.2642    0.0000 C   0  0  0  0  0  0  0  0  0  0  0  0
    1.8458    0.9212    0.0000 C   0  0  0  0  0  0  0  0  0  0  0  0
    0.6026    0.0819    0.0000 C   0  0  0  0  0  0  0  0  0  0  0  0
    0.7078   -1.4144    0.0000 C   0  0  0  0  0  0  0  0  0  0  0  0
   -0.7019   -0.9020    0.0000 C   0  0  0  0  0  0  0  0  0  0  0  0
  2  1  1  6
  2  3  1  0
  3  4  1  0
  4  5  1  0
  5  6  2  0
  5  7  1  0
  7  8  1  0
  8  9  2  0
  9 10  1  0
 10 11  2  0
 10 12  1  0
 12 13  1  0
  2 14  1  0
 14 15  1  6
 15 16  1  0
 17 16  1  6
 17 18  1  0
 18 19  1  1
 19 20  1  1
 19 21  1  0
 22 21  1  1
 22 23  1  0
 23 24  1  0
 24 25  1  1
 24 26  1  0
 26 27  1  0
 27 28  1  0
 28 29  1  6
 28 30  1  0
 30 31  1  6
 31 32  1  0
 32 33  1  0
 33 34  1  6
 13  7  2  0
 33 14  1  0
 33 17  1  0
 30 18  1  0
 28 22  1  0
M  END
>  <MS_ID>  (568) 
MS0594

>  <SMILES>  (568) 
C[C@H](CCC(=O)c1ccc(=O)oc1)[C@H]1CC[C@H]2[C@@H]3[C@H](O)C[C@@H]4C[C@H](O)CC[C@]4(C)[C@H]3CC[C@]12C

>  <Structure_dimension>  (568) 
2D

$$$$
MS0595
     RDKit          2D

 34 37  0  0  0  0  0  0  0  0999 V2000
   -2.6036   -4.1660    0.0000 C   0  0  0  0  0  0  0  0  0  0  0  0
   -1.8683   -2.8586    0.0000 C   0  0  0  0  0  0  0  0  0  0  0  0
   -2.6328   -1.5681    0.0000 C   0  0  0  0  0  0  0  0  0  0  0  0
   -4.1328   -1.5850    0.0000 C   0  0  0  0  0  0  0  0  0  0  0  0
   -4.8973   -0.2944    0.0000 C   0  0  0  0  0  0  0  0  0  0  0  0
   -4.1620    1.0130    0.0000 O   0  0  0  0  0  0  0  0  0  0  0  0
   -6.3972   -0.3113    0.0000 C   0  0  0  0  0  0  0  0  0  0  0  0
   -7.1618    0.9792    0.0000 C   0  0  0  0  0  0  0  0  0  0  0  0
   -8.6617    0.9623    0.0000 C   0  0  0  0  0  0  0  0  0  0  0  0
   -9.4263    2.2528    0.0000 C   0  0  0  0  0  0  0  0  0  0  0  0
   -8.6910    3.5602    0.0000 O   0  0  0  0  0  0  0  0  0  0  0  0
  -10.9262    2.2359    0.0000 O   0  0  0  0  0  0  0  0  0  0  0  0
   -0.3684   -2.8417    0.0000 C   0  0  0  0  0  0  0  0  0  0  0  0
    0.5269   -4.0452    0.0000 C   0  0  0  0  0  0  0  0  0  0  0  0
    1.9482   -3.5657    0.0000 C   0  0  0  0  0  0  0  0  0  0  0  0
    1.9313   -2.0657    0.0000 C   0  0  0  0  0  0  0  0  0  0  0  0
    3.0347   -1.0496    0.0000 C   0  0  0  0  0  0  0  0  0  0  0  0
    4.4664   -1.4970    0.0000 C   0  0  0  0  0  0  0  0  0  0  0  0
    4.7947   -2.9606    0.0000 O   0  0  0  0  0  0  0  0  0  0  0  0
    5.5697   -0.4808    0.0000 C   0  0  0  0  0  0  0  0  0  0  0  0
    7.0014   -0.9282    0.0000 O   0  0  0  0  0  0  0  0  0  0  0  0
    5.2413    0.9828    0.0000 C   0  0  0  0  0  0  0  0  0  0  0  0
    6.3447    1.9990    0.0000 C   0  0  0  0  0  0  0  0  0  0  0  0
    6.0163    3.4626    0.0000 C   0  0  0  0  0  0  0  0  0  0  0  0
    7.1197    4.4788    0.0000 O   0  0  0  0  0  0  0  0  0  0  0  0
    4.5846    3.9100    0.0000 C   0  0  0  0  0  0  0  0  0  0  0  0
    3.4813    2.8939    0.0000 C   0  0  0  0  0  0  0  0  0  0  0  0
    3.8096    1.4302    0.0000 C   0  0  0  0  0  0  0  0  0  0  0  0
    2.3779    1.8777    0.0000 C   0  0  0  0  0  0  0  0  0  0  0  0
    2.7063    0.4141    0.0000 C   0  0  0  0  0  0  0  0  0  0  0  0
    1.2746    0.8615    0.0000 C   0  0  0  0  0  0  0  0  0  0  0  0
    0.1712   -0.1547    0.0000 C   0  0  0  0  0  0  0  0  0  0  0  0
    0.4996   -1.6183    0.0000 C   0  0  0  0  0  0  0  0  0  0  0  0
   -0.9710   -1.3230    0.0000 C   0  0  0  0  0  0  0  0  0  0  0  0
  2  1  1  6
  2  3  1  0
  3  4  1  0
  4  5  1  0
  5  6  2  0
  5  7  1  0
  7  8  1  0
  8  9  1  0
  9 10  1  0
 10 11  2  0
 10 12  1  0
  2 13  1  0
 13 14  1  6
 14 15  1  0
 16 15  1  6
 16 17  1  0
 17 18  1  1
 18 19  1  1
 18 20  1  0
 20 21  1  1
 20 22  1  0
 22 23  1  1
 23 24  1  0
 24 25  1  1
 24 26  1  0
 26 27  1  0
 27 28  1  0
 28 29  1  6
 28 30  1  0
 30 31  1  6
 31 32  1  0
 32 33  1  0
 33 34  1  6
 33 13  1  0
 33 16  1  0
 30 17  1  0
 28 22  1  0
M  END
>  <MS_ID>  (569) 
MS0595

>  <SMILES>  (569) 
C[C@H](CCC(=O)CCCC(=O)O)[C@H]1CC[C@H]2[C@@H]3[C@H](O)[C@H](O)[C@@H]4C[C@H](O)CC[C@]4(C)[C@H]3CC[C@]12C

>  <Structure_dimension>  (569) 
2D

$$$$
MS0596
     RDKit          2D

 29 32  0  0  0  0  0  0  0  0999 V2000
   -5.0303   -2.1373    0.0000 C   0  0  0  0  0  0  0  0  0  0  0  0
   -3.8594   -1.1998    0.0000 C   0  0  0  0  0  0  0  0  0  0  0  0
   -4.0858    0.2830    0.0000 C   0  0  0  0  0  0  0  0  0  0  0  0
   -5.4831    0.8284    0.0000 C   0  0  0  0  0  0  0  0  0  0  0  0
   -5.7095    2.3112    0.0000 C   0  0  0  0  0  0  0  0  0  0  0  0
   -4.5386    3.2487    0.0000 O   0  0  0  0  0  0  0  0  0  0  0  0
   -7.1069    2.8565    0.0000 O   0  0  0  0  0  0  0  0  0  0  0  0
   -2.4620   -1.7451    0.0000 C   0  0  0  0  0  0  0  0  0  0  0  0
   -2.0818   -3.1961    0.0000 C   0  0  0  0  0  0  0  0  0  0  0  0
   -0.5844   -3.2830    0.0000 C   0  0  0  0  0  0  0  0  0  0  0  0
   -0.0390   -1.8856    0.0000 C   0  0  0  0  0  0  0  0  0  0  0  0
    1.3643   -1.3559    0.0000 C   0  0  0  0  0  0  0  0  0  0  0  0
    2.5248   -2.3063    0.0000 C   0  0  0  0  0  0  0  0  0  0  0  0
    2.2819   -3.7865    0.0000 O   0  0  0  0  0  0  0  0  0  0  0  0
    3.9281   -1.7765    0.0000 C   0  0  0  0  0  0  0  0  0  0  0  0
    4.1710   -0.2963    0.0000 C   0  0  0  0  0  0  0  0  0  0  0  0
    5.5743    0.2334    0.0000 C   0  0  0  0  0  0  0  0  0  0  0  0
    5.8172    1.7136    0.0000 C   0  0  0  0  0  0  0  0  0  0  0  0
    7.2205    2.2434    0.0000 N   0  0  0  0  0  0  0  0  0  0  0  0
    4.6568    2.6641    0.0000 C   0  0  0  0  0  0  0  0  0  0  0  0
    3.2534    2.1343    0.0000 C   0  0  0  0  0  0  0  0  0  0  0  0
    3.0105    0.6541    0.0000 C   0  0  0  0  0  0  0  0  0  0  0  0
    1.8501    1.6046    0.0000 C   0  0  0  0  0  0  0  0  0  0  0  0
    1.6072    0.1244    0.0000 C   0  0  0  0  0  0  0  0  0  0  0  0
    0.4467    1.0748    0.0000 C   0  0  0  0  0  0  0  0  0  0  0  0
   -0.9566    0.5450    0.0000 C   0  0  0  0  0  0  0  0  0  0  0  0
   -2.1170    1.4955    0.0000 O   0  0  0  0  0  0  0  0  0  0  0  0
   -1.1995   -0.9352    0.0000 C   0  0  0  0  0  0  0  0  0  0  0  0
   -2.4529   -0.1112    0.0000 C   0  0  0  0  0  0  0  0  0  0  0  0
  2  1  1  6
  2  3  1  0
  3  4  1  0
  4  5  1  0
  5  6  2  0
  5  7  1  0
  2  8  1  0
  8  9  1  6
  9 10  1  0
 11 10  1  6
 11 12  1  0
 12 13  1  1
 13 14  1  1
 13 15  1  0
 16 15  1  1
 16 17  1  0
 17 18  1  0
 18 19  1  1
 18 20  1  0
 20 21  1  0
 21 22  1  0
 22 23  1  6
 22 24  1  0
 24 25  1  6
 25 26  1  0
 26 27  2  0
 26 28  1  0
 28 29  1  6
 28  8  1  0
 28 11  1  0
 24 12  1  0
 22 16  1  0
M  END
>  <MS_ID>  (570) 
MS0596

>  <SMILES>  (570) 
C[C@H](CCC(=O)O)[C@H]1CC[C@H]2[C@@H]3[C@H](O)C[C@@H]4C[C@H](N)CC[C@]4(C)[C@H]3CC(=O)[C@]12C

>  <Structure_dimension>  (570) 
2D

$$$$
MS0597
     RDKit          2D

 30 33  0  0  0  0  0  0  0  0999 V2000
   -4.2255   -2.8134    0.0000 C   0  0  0  0  0  0  0  0  0  0  0  0
   -3.1320   -1.7867    0.0000 C   0  0  0  0  0  0  0  0  0  0  0  0
   -3.4744   -0.3263    0.0000 C   0  0  0  0  0  0  0  0  0  0  0  0
   -4.9104    0.1074    0.0000 C   0  0  0  0  0  0  0  0  0  0  0  0
   -5.2528    1.5677    0.0000 C   0  0  0  0  0  0  0  0  0  0  0  0
   -4.1593    2.5945    0.0000 O   0  0  0  0  0  0  0  0  0  0  0  0
   -6.6888    2.0014    0.0000 N   0  0  0  0  0  0  0  0  0  0  0  0
   -7.0312    3.4618    0.0000 C   0  0  0  0  0  0  0  0  0  0  0  0
   -7.7823    0.9746    0.0000 C   0  0  0  0  0  0  0  0  0  0  0  0
   -1.6961   -2.2203    0.0000 C   0  0  0  0  0  0  0  0  0  0  0  0
   -1.2029   -3.6369    0.0000 C   0  0  0  0  0  0  0  0  0  0  0  0
    0.2968   -3.6056    0.0000 C   0  0  0  0  0  0  0  0  0  0  0  0
    0.7305   -2.1697    0.0000 C   0  0  0  0  0  0  0  0  0  0  0  0
    2.0877   -1.5311    0.0000 C   0  0  0  0  0  0  0  0  0  0  0  0
    3.3194   -2.3873    0.0000 C   0  0  0  0  0  0  0  0  0  0  0  0
    4.6767   -1.7487    0.0000 C   0  0  0  0  0  0  0  0  0  0  0  0
    4.8023   -0.2540    0.0000 C   0  0  0  0  0  0  0  0  0  0  0  0
    6.1596    0.3846    0.0000 C   0  0  0  0  0  0  0  0  0  0  0  0
    6.2852    1.8794    0.0000 C   0  0  0  0  0  0  0  0  0  0  0  0
    7.6425    2.5179    0.0000 O   0  0  0  0  0  0  0  0  0  0  0  0
    5.0536    2.7355    0.0000 C   0  0  0  0  0  0  0  0  0  0  0  0
    3.6963    2.0969    0.0000 C   0  0  0  0  0  0  0  0  0  0  0  0
    3.5706    0.6022    0.0000 C   0  0  0  0  0  0  0  0  0  0  0  0
    2.3390    1.4584    0.0000 C   0  0  0  0  0  0  0  0  0  0  0  0
    2.2134   -0.0364    0.0000 C   0  0  0  0  0  0  0  0  0  0  0  0
    0.9817    0.8198    0.0000 C   0  0  0  0  0  0  0  0  0  0  0  0
   -0.3756    0.1812    0.0000 C   0  0  0  0  0  0  0  0  0  0  0  0
   -1.6072    1.0374    0.0000 O   0  0  0  0  0  0  0  0  0  0  0  0
   -0.5012   -1.3135    0.0000 C   0  0  0  0  0  0  0  0  0  0  0  0
   -1.8156   -0.5908    0.0000 C   0  0  0  0  0  0  0  0  0  0  0  0
  2  1  1  6
  2  3  1  0
  3  4  1  0
  4  5  1  0
  5  6  2  0
  5  7  1  0
  7  8  1  0
  7  9  1  0
  2 10  1  0
 10 11  1  6
 11 12  1  0
 13 12  1  6
 13 14  1  0
 14 15  1  1
 15 16  1  0
 17 16  1  1
 17 18  1  0
 18 19  1  0
 19 20  1  1
 19 21  1  0
 21 22  1  0
 22 23  1  0
 23 24  1  6
 23 25  1  0
 25 26  1  6
 26 27  1  0
 27 28  1  6
 27 29  1  0
 29 30  1  6
 29 10  1  0
 29 13  1  0
 25 14  1  0
 23 17  1  0
M  END
>  <MS_ID>  (571) 
MS0597

>  <SMILES>  (571) 
C[C@H](CCC(=O)N(C)C)[C@H]1CC[C@H]2[C@@H]3CC[C@@H]4C[C@H](O)CC[C@]4(C)[C@H]3C[C@@H](O)[C@]12C

>  <Structure_dimension>  (571) 
2D

$$$$
MS0598
     RDKit          2D

 29 32  0  0  0  0  0  0  0  0999 V2000
   -4.7935   -2.5443    0.0000 C   0  0  0  0  0  0  0  0  0  0  0  0
   -3.6816   -1.5375    0.0000 C   0  0  0  0  0  0  0  0  0  0  0  0
   -3.9975   -0.0712    0.0000 C   0  0  0  0  0  0  0  0  0  0  0  0
   -5.4254    0.3884    0.0000 C   0  0  0  0  0  0  0  0  0  0  0  0
   -5.7413    1.8547    0.0000 C   0  0  0  0  0  0  0  0  0  0  0  0
   -7.1692    2.3143    0.0000 O   0  0  0  0  0  0  0  0  0  0  0  0
   -4.6294    2.8615    0.0000 O   0  0  0  0  0  0  0  0  0  0  0  0
   -4.9453    4.3279    0.0000 O   0  0  0  0  0  0  0  0  0  0  0  0
   -2.2537   -1.9971    0.0000 C   0  0  0  0  0  0  0  0  0  0  0  0
   -1.7862   -3.4224    0.0000 C   0  0  0  0  0  0  0  0  0  0  0  0
   -0.2862   -3.4182    0.0000 C   0  0  0  0  0  0  0  0  0  0  0  0
    0.1733   -1.9903    0.0000 C   0  0  0  0  0  0  0  0  0  0  0  0
    1.5420   -1.3764    0.0000 C   0  0  0  0  0  0  0  0  0  0  0  0
    2.7579   -2.2547    0.0000 C   0  0  0  0  0  0  0  0  0  0  0  0
    2.6053   -3.7470    0.0000 O   0  0  0  0  0  0  0  0  0  0  0  0
    4.1265   -1.6408    0.0000 C   0  0  0  0  0  0  0  0  0  0  0  0
    4.2792   -0.1486    0.0000 C   0  0  0  0  0  0  0  0  0  0  0  0
    5.6478    0.4653    0.0000 C   0  0  0  0  0  0  0  0  0  0  0  0
    5.8005    1.9575    0.0000 C   0  0  0  0  0  0  0  0  0  0  0  0
    7.1691    2.5714    0.0000 O   0  0  0  0  0  0  0  0  0  0  0  0
    4.5845    2.8358    0.0000 C   0  0  0  0  0  0  0  0  0  0  0  0
    3.2159    2.2219    0.0000 C   0  0  0  0  0  0  0  0  0  0  0  0
    3.0632    0.7297    0.0000 C   0  0  0  0  0  0  0  0  0  0  0  0
    1.8473    1.6080    0.0000 C   0  0  0  0  0  0  0  0  0  0  0  0
    1.6946    0.1158    0.0000 C   0  0  0  0  0  0  0  0  0  0  0  0
    0.4786    0.9941    0.0000 C   0  0  0  0  0  0  0  0  0  0  0  0
   -0.8900    0.3802    0.0000 C   0  0  0  0  0  0  0  0  0  0  0  0
   -1.0426   -1.1120    0.0000 C   0  0  0  0  0  0  0  0  0  0  0  0
   -2.3437   -0.3657    0.0000 C   0  0  0  0  0  0  0  0  0  0  0  0
  2  1  1  6
  2  3  1  0
  3  4  1  0
  4  5  1  0
  5  6  2  0
  5  7  1  0
  7  8  1  0
  2  9  1  0
  9 10  1  6
 10 11  1  0
 12 11  1  6
 12 13  1  0
 13 14  1  1
 14 15  1  1
 14 16  1  0
 17 16  1  1
 17 18  1  0
 18 19  1  0
 19 20  1  6
 19 21  1  0
 21 22  1  0
 22 23  1  0
 23 24  1  6
 23 25  1  0
 25 26  1  6
 26 27  1  0
 27 28  1  0
 28 29  1  6
 28  9  1  0
 28 12  1  0
 25 13  1  0
 23 17  1  0
M  END
>  <MS_ID>  (572) 
MS0598

>  <SMILES>  (572) 
C[C@H](CCC(=O)OO)[C@H]1CC[C@H]2[C@@H]3[C@H](O)C[C@@H]4C[C@@H](O)CC[C@]4(C)[C@H]3CC[C@]12C

>  <Structure_dimension>  (572) 
2D

$$$$
MS0599
     RDKit          2D

 29 32  0  0  0  0  0  0  0  0999 V2000
   -5.0303   -2.1373    0.0000 C   0  0  0  0  0  0  0  0  0  0  0  0
   -3.8594   -1.1998    0.0000 C   0  0  0  0  0  0  0  0  0  0  0  0
   -4.0858    0.2830    0.0000 C   0  0  0  0  0  0  0  0  0  0  0  0
   -5.4831    0.8284    0.0000 C   0  0  0  0  0  0  0  0  0  0  0  0
   -5.7095    2.3112    0.0000 C   0  0  0  0  0  0  0  0  0  0  0  0
   -4.5386    3.2487    0.0000 O   0  0  0  0  0  0  0  0  0  0  0  0
   -7.1069    2.8565    0.0000 O   0  0  0  0  0  0  0  0  0  0  0  0
   -2.4620   -1.7451    0.0000 C   0  0  0  0  0  0  0  0  0  0  0  0
   -2.0818   -3.1961    0.0000 C   0  0  0  0  0  0  0  0  0  0  0  0
   -0.5844   -3.2830    0.0000 C   0  0  0  0  0  0  0  0  0  0  0  0
   -0.0390   -1.8856    0.0000 C   0  0  0  0  0  0  0  0  0  0  0  0
    1.3643   -1.3559    0.0000 C   0  0  0  0  0  0  0  0  0  0  0  0
    2.5248   -2.3063    0.0000 C   0  0  0  0  0  0  0  0  0  0  0  0
    2.2819   -3.7865    0.0000 O   0  0  0  0  0  0  0  0  0  0  0  0
    3.9281   -1.7765    0.0000 C   0  0  0  0  0  0  0  0  0  0  0  0
    4.1710   -0.2963    0.0000 C   0  0  0  0  0  0  0  0  0  0  0  0
    5.5743    0.2334    0.0000 C   0  0  0  0  0  0  0  0  0  0  0  0
    5.8172    1.7136    0.0000 C   0  0  0  0  0  0  0  0  0  0  0  0
    7.2205    2.2434    0.0000 S   0  0  0  0  0  0  0  0  0  0  0  0
    4.6568    2.6641    0.0000 C   0  0  0  0  0  0  0  0  0  0  0  0
    3.2534    2.1343    0.0000 C   0  0  0  0  0  0  0  0  0  0  0  0
    3.0105    0.6541    0.0000 C   0  0  0  0  0  0  0  0  0  0  0  0
    1.8501    1.6046    0.0000 C   0  0  0  0  0  0  0  0  0  0  0  0
    1.6072    0.1244    0.0000 C   0  0  0  0  0  0  0  0  0  0  0  0
    0.4467    1.0748    0.0000 C   0  0  0  0  0  0  0  0  0  0  0  0
   -0.9566    0.5450    0.0000 C   0  0  0  0  0  0  0  0  0  0  0  0
   -2.1170    1.4955    0.0000 O   0  0  0  0  0  0  0  0  0  0  0  0
   -1.1995   -0.9352    0.0000 C   0  0  0  0  0  0  0  0  0  0  0  0
   -2.4529   -0.1112    0.0000 C   0  0  0  0  0  0  0  0  0  0  0  0
  2  1  1  6
  2  3  1  0
  3  4  1  0
  4  5  1  0
  5  6  2  0
  5  7  1  0
  2  8  1  0
  8  9  1  6
  9 10  1  0
 11 10  1  6
 11 12  1  0
 12 13  1  1
 13 14  1  1
 13 15  1  0
 16 15  1  1
 16 17  1  0
 17 18  1  0
 18 19  1  1
 18 20  1  0
 20 21  1  0
 21 22  1  0
 22 23  1  6
 22 24  1  0
 24 25  1  6
 25 26  1  0
 26 27  2  0
 26 28  1  0
 28 29  1  6
 28  8  1  0
 28 11  1  0
 24 12  1  0
 22 16  1  0
M  END
>  <MS_ID>  (573) 
MS0599

>  <SMILES>  (573) 
C[C@H](CCC(=O)O)[C@H]1CC[C@H]2[C@@H]3[C@H](O)C[C@@H]4C[C@H](S)CC[C@]4(C)[C@H]3CC(=O)[C@]12C

>  <Structure_dimension>  (573) 
2D

$$$$
MS0600
     RDKit          2D

 32 35  0  0  0  0  0  0  0  0999 V2000
   -3.0592   -3.7169    0.0000 C   0  0  0  0  0  0  0  0  0  0  0  0
   -2.1499   -2.5239    0.0000 C   0  0  0  0  0  0  0  0  0  0  0  0
   -2.7284   -1.1399    0.0000 C   0  0  0  0  0  0  0  0  0  0  0  0
   -4.2162   -0.9489    0.0000 C   0  0  0  0  0  0  0  0  0  0  0  0
   -4.7946    0.4350    0.0000 C   0  0  0  0  0  0  0  0  0  0  0  0
   -3.8853    1.6280    0.0000 O   0  0  0  0  0  0  0  0  0  0  0  0
   -6.2824    0.6260    0.0000 N   0  0  0  0  0  0  0  0  0  0  0  0
   -6.8609    2.0100    0.0000 C   0  0  0  0  0  0  0  0  0  0  0  0
   -8.3487    2.2010    0.0000 C   0  0  0  0  0  0  0  0  0  0  0  0
   -9.2580    1.0080    0.0000 O   0  0  0  0  0  0  0  0  0  0  0  0
   -8.9272    3.5850    0.0000 O   0  0  0  0  0  0  0  0  0  0  0  0
   -0.6621   -2.7149    0.0000 C   0  0  0  0  0  0  0  0  0  0  0  0
    0.0579   -4.0308    0.0000 C   0  0  0  0  0  0  0  0  0  0  0  0
    1.5319   -3.7527    0.0000 C   0  0  0  0  0  0  0  0  0  0  0  0
    1.7229   -2.2649    0.0000 C   0  0  0  0  0  0  0  0  0  0  0  0
    2.9563   -1.4114    0.0000 C   0  0  0  0  0  0  0  0  0  0  0  0
    4.3123   -2.0528    0.0000 C   0  0  0  0  0  0  0  0  0  0  0  0
    5.5457   -1.1992    0.0000 C   0  0  0  0  0  0  0  0  0  0  0  0
    5.4232    0.2958    0.0000 C   0  0  0  0  0  0  0  0  0  0  0  0
    6.6567    1.1494    0.0000 C   0  0  0  0  0  0  0  0  0  0  0  0
    6.5342    2.6444    0.0000 C   0  0  0  0  0  0  0  0  0  0  0  0
    7.7676    3.4980    0.0000 O   0  0  0  0  0  0  0  0  0  0  0  0
    5.1782    3.2858    0.0000 C   0  0  0  0  0  0  0  0  0  0  0  0
    3.9448    2.4322    0.0000 C   0  0  0  0  0  0  0  0  0  0  0  0
    4.0673    0.9372    0.0000 C   0  0  0  0  0  0  0  0  0  0  0  0
    2.7113    1.5786    0.0000 C   0  0  0  0  0  0  0  0  0  0  0  0
    2.8338    0.0836    0.0000 C   0  0  0  0  0  0  0  0  0  0  0  0
    1.4779    0.7250    0.0000 C   0  0  0  0  0  0  0  0  0  0  0  0
    0.2444   -0.1285    0.0000 C   0  0  0  0  0  0  0  0  0  0  0  0
   -1.1115    0.5129    0.0000 O   0  0  0  0  0  0  0  0  0  0  0  0
    0.3669   -1.6235    0.0000 C   0  0  0  0  0  0  0  0  0  0  0  0
   -1.0486   -1.1274    0.0000 C   0  0  0  0  0  0  0  0  0  0  0  0
  2  1  1  6
  2  3  1  0
  3  4  1  0
  4  5  1  0
  5  6  2  0
  5  7  1  0
  7  8  1  0
  8  9  1  0
  9 10  2  0
  9 11  1  0
  2 12  1  0
 12 13  1  6
 13 14  1  0
 15 14  1  6
 15 16  1  0
 16 17  1  1
 17 18  1  0
 19 18  1  1
 19 20  1  0
 20 21  1  0
 21 22  1  1
 21 23  1  0
 23 24  1  0
 24 25  1  0
 25 26  1  6
 25 27  1  0
 27 28  1  6
 28 29  1  0
 29 30  2  0
 29 31  1  0
 31 32  1  6
 31 12  1  0
 31 15  1  0
 27 16  1  0
 25 19  1  0
M  END
>  <MS_ID>  (574) 
MS0600

>  <SMILES>  (574) 
C[C@H](CCC(=O)NCC(=O)O)[C@H]1CC[C@H]2[C@@H]3CC[C@@H]4C[C@H](O)CC[C@]4(C)[C@H]3CC(=O)[C@]12C

>  <Structure_dimension>  (574) 
2D

$$$$
MS0601
     RDKit          2D

 33 36  0  0  0  0  0  0  0  0999 V2000
   -6.2027   -1.9081    0.0000 C   0  0  0  0  0  0  0  0  0  0  0  0
   -4.9792   -1.0402    0.0000 C   0  0  0  0  0  0  0  0  0  0  0  0
   -5.1191    0.4533    0.0000 C   0  0  0  0  0  0  0  0  0  0  0  0
   -6.4825    1.0788    0.0000 C   0  0  0  0  0  0  0  0  0  0  0  0
   -6.6223    2.5723    0.0000 C   0  0  0  0  0  0  0  0  0  0  0  0
   -7.9857    3.1979    0.0000 N   0  0  0  0  0  0  0  0  0  0  0  0
   -5.3989    3.4402    0.0000 O   0  0  0  0  0  0  0  0  0  0  0  0
   -3.6159   -1.6658    0.0000 C   0  0  0  0  0  0  0  0  0  0  0  0
   -3.3207   -3.1364    0.0000 C   0  0  0  0  0  0  0  0  0  0  0  0
   -1.8308   -3.3101    0.0000 C   0  0  0  0  0  0  0  0  0  0  0  0
   -1.2052   -1.9468    0.0000 C   0  0  0  0  0  0  0  0  0  0  0  0
    0.2265   -1.4995    0.0000 C   0  0  0  0  0  0  0  0  0  0  0  0
    1.3298   -2.5157    0.0000 C   0  0  0  0  0  0  0  0  0  0  0  0
    1.0014   -3.9793    0.0000 O   0  0  0  0  0  0  0  0  0  0  0  0
    2.7616   -2.0684    0.0000 C   0  0  0  0  0  0  0  0  0  0  0  0
    3.0900   -0.6048    0.0000 C   0  0  0  0  0  0  0  0  0  0  0  0
    4.5218   -0.1574    0.0000 C   0  0  0  0  0  0  0  0  0  0  0  0
    4.8502    1.3061    0.0000 C   0  0  0  0  0  0  0  0  0  0  0  0
    6.2820    1.7535    0.0000 O   0  0  0  0  0  0  0  0  0  0  0  0
    7.3853    0.7372    0.0000 S   0  0  0  0  0  0  0  0  0  0  0  0
    6.3690   -0.3660    0.0000 O   0  0  0  0  0  0  0  0  0  0  0  0
    8.4015    1.8405    0.0000 O   0  0  0  0  0  0  0  0  0  0  0  0
    8.4885   -0.2790    0.0000 O   0  0  0  0  0  0  0  0  0  0  0  0
    3.7470    2.3224    0.0000 C   0  0  0  0  0  0  0  0  0  0  0  0
    2.3152    1.8751    0.0000 C   0  0  0  0  0  0  0  0  0  0  0  0
    1.9868    0.4115    0.0000 C   0  0  0  0  0  0  0  0  0  0  0  0
    0.8835    1.4277    0.0000 C   0  0  0  0  0  0  0  0  0  0  0  0
    0.5550   -0.0359    0.0000 C   0  0  0  0  0  0  0  0  0  0  0  0
   -0.5483    0.9804    0.0000 C   0  0  0  0  0  0  0  0  0  0  0  0
   -1.9800    0.5330    0.0000 C   0  0  0  0  0  0  0  0  0  0  0  0
   -3.0833    1.5493    0.0000 O   0  0  0  0  0  0  0  0  0  0  0  0
   -2.3085   -0.9305    0.0000 C   0  0  0  0  0  0  0  0  0  0  0  0
   -3.5119   -0.0352    0.0000 C   0  0  0  0  0  0  0  0  0  0  0  0
  2  1  1  6
  2  3  1  0
  3  4  1  0
  4  5  1  0
  5  6  1  0
  5  7  2  0
  2  8  1  0
  8  9  1  6
  9 10  1  0
 11 10  1  6
 11 12  1  0
 12 13  1  1
 13 14  1  1
 13 15  1  0
 16 15  1  1
 16 17  1  0
 17 18  1  0
 18 19  1  1
 19 20  1  0
 20 21  2  0
 20 22  2  0
 20 23  1  0
 18 24  1  0
 24 25  1  0
 25 26  1  0
 26 27  1  6
 26 28  1  0
 28 29  1  6
 29 30  1  0
 30 31  1  1
 30 32  1  0
 32 33  1  6
 32  8  1  0
 32 11  1  0
 28 12  1  0
 26 16  1  0
M  END
>  <MS_ID>  (575) 
MS0601

>  <SMILES>  (575) 
C[C@H](CCC(N)=O)[C@H]1CC[C@H]2[C@@H]3[C@H](O)C[C@@H]4C[C@H](OS(=O)(=O)O)CC[C@]4(C)[C@H]3C[C@H](O)[C@]12C

>  <Structure_dimension>  (575) 
2D

$$$$
MS0602
     RDKit          2D

 35 38  0  0  0  0  0  0  0  0999 V2000
   -2.6584   -4.2186    0.0000 C   0  0  0  0  0  0  0  0  0  0  0  0
   -1.9156   -2.9154    0.0000 C   0  0  0  0  0  0  0  0  0  0  0  0
   -2.6728   -1.6206    0.0000 C   0  0  0  0  0  0  0  0  0  0  0  0
   -4.1728   -1.6289    0.0000 C   0  0  0  0  0  0  0  0  0  0  0  0
   -4.9300   -0.3341    0.0000 C   0  0  0  0  0  0  0  0  0  0  0  0
   -4.1872    0.9691    0.0000 O   0  0  0  0  0  0  0  0  0  0  0  0
   -6.4300   -0.3424    0.0000 O   0  0  0  0  0  0  0  0  0  0  0  0
   -7.1872    0.9525    0.0000 C   0  0  0  0  0  0  0  0  0  0  0  0
   -8.6871    0.9441    0.0000 C   0  0  0  0  0  0  0  0  0  0  0  0
   -9.4443    2.2390    0.0000 O   0  0  0  0  0  0  0  0  0  0  0  0
   -6.4444    2.2556    0.0000 C   0  0  0  0  0  0  0  0  0  0  0  0
   -4.9444    2.2640    0.0000 O   0  0  0  0  0  0  0  0  0  0  0  0
   -7.2016    3.5505    0.0000 O   0  0  0  0  0  0  0  0  0  0  0  0
   -0.4156   -2.9071    0.0000 C   0  0  0  0  0  0  0  0  0  0  0  0
    0.4728   -4.1157    0.0000 C   0  0  0  0  0  0  0  0  0  0  0  0
    1.8968   -3.6443    0.0000 C   0  0  0  0  0  0  0  0  0  0  0  0
    1.8884   -2.1443    0.0000 C   0  0  0  0  0  0  0  0  0  0  0  0
    2.9976   -1.1344    0.0000 C   0  0  0  0  0  0  0  0  0  0  0  0
    4.4267   -1.5900    0.0000 C   0  0  0  0  0  0  0  0  0  0  0  0
    4.7467   -3.0555    0.0000 O   0  0  0  0  0  0  0  0  0  0  0  0
    5.5358   -0.5802    0.0000 C   0  0  0  0  0  0  0  0  0  0  0  0
    6.9650   -1.0357    0.0000 O   0  0  0  0  0  0  0  0  0  0  0  0
    5.2158    0.8853    0.0000 C   0  0  0  0  0  0  0  0  0  0  0  0
    6.3249    1.8952    0.0000 C   0  0  0  0  0  0  0  0  0  0  0  0
    6.0049    3.3607    0.0000 C   0  0  0  0  0  0  0  0  0  0  0  0
    7.1141    4.3705    0.0000 O   0  0  0  0  0  0  0  0  0  0  0  0
    4.5758    3.8162    0.0000 C   0  0  0  0  0  0  0  0  0  0  0  0
    3.4667    2.8064    0.0000 C   0  0  0  0  0  0  0  0  0  0  0  0
    3.7867    1.3409    0.0000 C   0  0  0  0  0  0  0  0  0  0  0  0
    2.3575    1.7965    0.0000 C   0  0  0  0  0  0  0  0  0  0  0  0
    2.6776    0.3310    0.0000 C   0  0  0  0  0  0  0  0  0  0  0  0
    1.2484    0.7866    0.0000 C   0  0  0  0  0  0  0  0  0  0  0  0
    0.1393   -0.2232    0.0000 C   0  0  0  0  0  0  0  0  0  0  0  0
    0.4593   -1.6887    0.0000 C   0  0  0  0  0  0  0  0  0  0  0  0
   -1.0096   -1.3850    0.0000 C   0  0  0  0  0  0  0  0  0  0  0  0
  2  1  1  6
  2  3  1  0
  3  4  1  0
  4  5  1  0
  5  6  2  0
  5  7  1  0
  7  8  1  0
  8  9  1  1
  9 10  1  0
  8 11  1  0
 11 12  2  0
 11 13  1  0
  2 14  1  0
 14 15  1  6
 15 16  1  0
 17 16  1  6
 17 18  1  0
 18 19  1  1
 19 20  1  1
 19 21  1  0
 21 22  1  1
 21 23  1  0
 23 24  1  1
 24 25  1  0
 25 26  1  1
 25 27  1  0
 27 28  1  0
 28 29  1  0
 29 30  1  6
 29 31  1  0
 31 32  1  6
 32 33  1  0
 33 34  1  0
 34 35  1  6
 34 14  1  0
 34 17  1  0
 31 18  1  0
 29 23  1  0
M  END
>  <MS_ID>  (576) 
MS0602

>  <SMILES>  (576) 
C[C@H](CCC(=O)O[C@@H](CO)C(=O)O)[C@H]1CC[C@H]2[C@@H]3[C@H](O)[C@H](O)[C@@H]4C[C@H](O)CC[C@]4(C)[C@H]3CC[C@]12C

>  <Structure_dimension>  (576) 
2D

$$$$
MS0603
     RDKit          2D

 29 32  0  0  0  0  0  0  0  0999 V2000
   -4.1361   -2.8778    0.0000 C   0  0  0  0  0  0  0  0  0  0  0  0
   -3.1227   -1.7719    0.0000 C   0  0  0  0  0  0  0  0  0  0  0  0
   -3.5738   -0.3413    0.0000 C   0  0  0  0  0  0  0  0  0  0  0  0
   -5.0383   -0.0167    0.0000 C   0  0  0  0  0  0  0  0  0  0  0  0
   -5.4894    1.4138    0.0000 C   0  0  0  0  0  0  0  0  0  0  0  0
   -4.4761    2.5198    0.0000 O   0  0  0  0  0  0  0  0  0  0  0  0
   -6.9539    1.7384    0.0000 N   0  0  0  0  0  0  0  0  0  0  0  0
   -7.4050    3.1690    0.0000 O   0  0  0  0  0  0  0  0  0  0  0  0
   -1.6583   -2.0965    0.0000 C   0  0  0  0  0  0  0  0  0  0  0  0
   -1.0601   -3.4720    0.0000 C   0  0  0  0  0  0  0  0  0  0  0  0
    0.4330   -3.3282    0.0000 C   0  0  0  0  0  0  0  0  0  0  0  0
    0.7576   -1.8638    0.0000 C   0  0  0  0  0  0  0  0  0  0  0  0
    2.0631   -1.1251    0.0000 C   0  0  0  0  0  0  0  0  0  0  0  0
    3.3556   -1.8863    0.0000 C   0  0  0  0  0  0  0  0  0  0  0  0
    3.3426   -3.3863    0.0000 O   0  0  0  0  0  0  0  0  0  0  0  0
    4.6611   -1.1476    0.0000 C   0  0  0  0  0  0  0  0  0  0  0  0
    4.6741    0.3523    0.0000 C   0  0  0  0  0  0  0  0  0  0  0  0
    5.9796    1.0910    0.0000 C   0  0  0  0  0  0  0  0  0  0  0  0
    5.9926    2.5910    0.0000 C   0  0  0  0  0  0  0  0  0  0  0  0
    4.7002    3.3522    0.0000 C   0  0  0  0  0  0  0  0  0  0  0  0
    3.3947    2.6135    0.0000 C   0  0  0  0  0  0  0  0  0  0  0  0
    3.3816    1.1136    0.0000 C   0  0  0  0  0  0  0  0  0  0  0  0
    2.0891    1.8748    0.0000 C   0  0  0  0  0  0  0  0  0  0  0  0
    2.0761    0.3749    0.0000 C   0  0  0  0  0  0  0  0  0  0  0  0
    0.7836    1.1361    0.0000 C   0  0  0  0  0  0  0  0  0  0  0  0
   -0.5219    0.3974    0.0000 C   0  0  0  0  0  0  0  0  0  0  0  0
   -1.8143    1.1587    0.0000 O   0  0  0  0  0  0  0  0  0  0  0  0
   -0.5349   -1.1025    0.0000 C   0  0  0  0  0  0  0  0  0  0  0  0
   -1.8998   -0.4805    0.0000 C   0  0  0  0  0  0  0  0  0  0  0  0
  2  1  1  6
  2  3  1  0
  3  4  1  0
  4  5  1  0
  5  6  2  0
  5  7  1  0
  7  8  1  0
  2  9  1  0
  9 10  1  6
 10 11  1  0
 12 11  1  6
 12 13  1  0
 13 14  1  1
 14 15  1  1
 14 16  1  0
 17 16  1  1
 17 18  1  0
 18 19  1  0
 19 20  1  0
 20 21  1  0
 21 22  1  0
 22 23  1  6
 22 24  1  0
 24 25  1  6
 25 26  1  0
 26 27  1  1
 26 28  1  0
 28 29  1  6
 28  9  1  0
 28 12  1  0
 24 13  1  0
 22 17  1  0
M  END
>  <MS_ID>  (577) 
MS0603

>  <SMILES>  (577) 
C[C@H](CCC(=O)NO)[C@H]1CC[C@H]2[C@@H]3[C@H](O)C[C@@H]4CCCC[C@]4(C)[C@H]3C[C@H](O)[C@]12C

>  <Structure_dimension>  (577) 
2D

$$$$
MS0604
     RDKit          2D

 31 34  0  0  0  0  0  0  0  0999 V2000
   -3.4301   -3.6172    0.0000 C   0  0  0  0  0  0  0  0  0  0  0  0
   -2.4973   -2.4425    0.0000 C   0  0  0  0  0  0  0  0  0  0  0  0
   -3.0483   -1.0473    0.0000 C   0  0  0  0  0  0  0  0  0  0  0  0
   -4.5321   -0.8270    0.0000 C   0  0  0  0  0  0  0  0  0  0  0  0
   -5.0831    0.5682    0.0000 C   0  0  0  0  0  0  0  0  0  0  0  0
   -4.1503    1.7429    0.0000 O   0  0  0  0  0  0  0  0  0  0  0  0
   -6.5668    0.7886    0.0000 O   0  0  0  0  0  0  0  0  0  0  0  0
   -7.1178    2.1837    0.0000 C   0  0  0  0  0  0  0  0  0  0  0  0
   -8.6015    2.4041    0.0000 C   0  0  0  0  0  0  0  0  0  0  0  0
   -9.1525    3.7992    0.0000 O   0  0  0  0  0  0  0  0  0  0  0  0
   -1.0136   -2.6629    0.0000 C   0  0  0  0  0  0  0  0  0  0  0  0
   -0.3198   -3.9928    0.0000 C   0  0  0  0  0  0  0  0  0  0  0  0
    1.1594   -3.7439    0.0000 C   0  0  0  0  0  0  0  0  0  0  0  0
    1.3798   -2.2602    0.0000 C   0  0  0  0  0  0  0  0  0  0  0  0
    2.6299   -1.4311    0.0000 C   0  0  0  0  0  0  0  0  0  0  0  0
    3.9729   -2.0992    0.0000 C   0  0  0  0  0  0  0  0  0  0  0  0
    5.2230   -1.2702    0.0000 C   0  0  0  0  0  0  0  0  0  0  0  0
    5.1301    0.2269    0.0000 C   0  0  0  0  0  0  0  0  0  0  0  0
    6.3802    1.0559    0.0000 C   0  0  0  0  0  0  0  0  0  0  0  0
    6.2872    2.5531    0.0000 C   0  0  0  0  0  0  0  0  0  0  0  0
    7.5373    3.3821    0.0000 O   0  0  0  0  0  0  0  0  0  0  0  0
    4.9442    3.2212    0.0000 C   0  0  0  0  0  0  0  0  0  0  0  0
    3.6942    2.3921    0.0000 C   0  0  0  0  0  0  0  0  0  0  0  0
    3.7871    0.8950    0.0000 C   0  0  0  0  0  0  0  0  0  0  0  0
    2.4441    1.5631    0.0000 C   0  0  0  0  0  0  0  0  0  0  0  0
    2.5370    0.0660    0.0000 C   0  0  0  0  0  0  0  0  0  0  0  0
    1.1940    0.7341    0.0000 C   0  0  0  0  0  0  0  0  0  0  0  0
   -0.0561   -0.0949    0.0000 C   0  0  0  0  0  0  0  0  0  0  0  0
   -1.3991    0.5732    0.0000 O   0  0  0  0  0  0  0  0  0  0  0  0
    0.0368   -1.5921    0.0000 C   0  0  0  0  0  0  0  0  0  0  0  0
   -1.3687   -1.0680    0.0000 C   0  0  0  0  0  0  0  0  0  0  0  0
  2  1  1  6
  2  3  1  0
  3  4  1  0
  4  5  1  0
  5  6  2  0
  5  7  1  0
  7  8  1  0
  8  9  1  0
  9 10  1  0
  2 11  1  0
 11 12  1  6
 12 13  1  0
 14 13  1  6
 14 15  1  0
 15 16  1  1
 16 17  1  0
 18 17  1  1
 18 19  1  0
 19 20  1  0
 20 21  1  6
 20 22  1  0
 22 23  1  0
 23 24  1  0
 24 25  1  6
 24 26  1  0
 26 27  1  6
 27 28  1  0
 28 29  1  1
 28 30  1  0
 30 31  1  6
 30 11  1  0
 30 14  1  0
 26 15  1  0
 24 18  1  0
M  END
>  <MS_ID>  (578) 
MS0604

>  <SMILES>  (578) 
C[C@H](CCC(=O)OCCO)[C@H]1CC[C@H]2[C@@H]3CC[C@@H]4C[C@@H](O)CC[C@]4(C)[C@H]3C[C@H](O)[C@]12C

>  <Structure_dimension>  (578) 
2D

$$$$
MS0605
     RDKit          2D

 27 30  0  0  0  0  0  0  0  0999 V2000
   -4.7316   -2.2462    0.0000 C   0  0  0  0  0  0  0  0  0  0  0  0
   -3.6106   -1.2495    0.0000 C   0  0  0  0  0  0  0  0  0  0  0  0
   -3.9133    0.2196    0.0000 C   0  0  0  0  0  0  0  0  0  0  0  0
   -5.3370    0.6920    0.0000 C   0  0  0  0  0  0  0  0  0  0  0  0
   -5.6397    2.1612    0.0000 C   0  0  0  0  0  0  0  0  0  0  0  0
   -7.0634    2.6336    0.0000 O   0  0  0  0  0  0  0  0  0  0  0  0
   -4.5188    3.1579    0.0000 F   0  0  0  0  0  0  0  0  0  0  0  0
   -2.1870   -1.7219    0.0000 C   0  0  0  0  0  0  0  0  0  0  0  0
   -1.7323   -3.1514    0.0000 C   0  0  0  0  0  0  0  0  0  0  0  0
   -0.2324   -3.1607    0.0000 C   0  0  0  0  0  0  0  0  0  0  0  0
    0.2401   -1.7371    0.0000 C   0  0  0  0  0  0  0  0  0  0  0  0
    1.6141   -1.1355    0.0000 C   0  0  0  0  0  0  0  0  0  0  0  0
    2.8222   -2.0247    0.0000 C   0  0  0  0  0  0  0  0  0  0  0  0
    2.6561   -3.5155    0.0000 O   0  0  0  0  0  0  0  0  0  0  0  0
    4.1962   -1.4232    0.0000 C   0  0  0  0  0  0  0  0  0  0  0  0
    4.3623    0.0676    0.0000 C   0  0  0  0  0  0  0  0  0  0  0  0
    5.7364    0.6691    0.0000 C   0  0  0  0  0  0  0  0  0  0  0  0
    5.9025    2.1599    0.0000 C   0  0  0  0  0  0  0  0  0  0  0  0
    4.6945    3.0491    0.0000 C   0  0  0  0  0  0  0  0  0  0  0  0
    3.3204    2.4476    0.0000 C   0  0  0  0  0  0  0  0  0  0  0  0
    3.1543    0.9568    0.0000 C   0  0  0  0  0  0  0  0  0  0  0  0
    1.9463    1.8460    0.0000 C   0  0  0  0  0  0  0  0  0  0  0  0
    1.7802    0.3553    0.0000 C   0  0  0  0  0  0  0  0  0  0  0  0
    0.5722    1.2445    0.0000 C   0  0  0  0  0  0  0  0  0  0  0  0
   -0.8019    0.6429    0.0000 C   0  0  0  0  0  0  0  0  0  0  0  0
   -0.9680   -0.8478    0.0000 C   0  0  0  0  0  0  0  0  0  0  0  0
   -2.2623   -0.0897    0.0000 C   0  0  0  0  0  0  0  0  0  0  0  0
  2  1  1  6
  2  3  1  0
  3  4  1  0
  4  5  1  0
  5  6  2  0
  5  7  1  0
  2  8  1  0
  8  9  1  6
  9 10  1  0
 11 10  1  6
 11 12  1  0
 12 13  1  1
 13 14  1  1
 13 15  1  0
 16 15  1  1
 16 17  1  0
 17 18  1  0
 18 19  1  0
 19 20  1  0
 20 21  1  0
 21 22  1  6
 21 23  1  0
 23 24  1  6
 24 25  1  0
 25 26  1  0
 26 27  1  6
 26  8  1  0
 26 11  1  0
 23 12  1  0
 21 16  1  0
M  END
>  <MS_ID>  (579) 
MS0605

>  <SMILES>  (579) 
C[C@H](CCC(=O)F)[C@H]1CC[C@H]2[C@@H]3[C@H](O)C[C@@H]4CCCC[C@]4(C)[C@H]3CC[C@]12C

>  <Structure_dimension>  (579) 
2D

$$$$
MS0606
     RDKit          2D

 31 34  0  0  0  0  0  0  0  0999 V2000
   -3.6377   -3.4900    0.0000 C   0  0  0  0  0  0  0  0  0  0  0  0
   -2.6684   -2.3453    0.0000 C   0  0  0  0  0  0  0  0  0  0  0  0
   -3.1751   -0.9335    0.0000 C   0  0  0  0  0  0  0  0  0  0  0  0
   -4.6511   -0.6664    0.0000 C   0  0  0  0  0  0  0  0  0  0  0  0
   -5.1578    0.7454    0.0000 C   0  0  0  0  0  0  0  0  0  0  0  0
   -4.1885    1.8902    0.0000 O   0  0  0  0  0  0  0  0  0  0  0  0
   -6.6339    1.0125    0.0000 C   0  0  0  0  0  0  0  0  0  0  0  0
   -7.1406    2.4243    0.0000 C   0  0  0  0  0  0  0  0  0  0  0  0
   -6.1713    3.5691    0.0000 O   0  0  0  0  0  0  0  0  0  0  0  0
   -8.6166    2.6914    0.0000 O   0  0  0  0  0  0  0  0  0  0  0  0
   -1.1923   -2.6123    0.0000 C   0  0  0  0  0  0  0  0  0  0  0  0
   -0.5408   -3.9635    0.0000 C   0  0  0  0  0  0  0  0  0  0  0  0
    0.9455   -3.7613    0.0000 C   0  0  0  0  0  0  0  0  0  0  0  0
    1.2126   -2.2853    0.0000 C   0  0  0  0  0  0  0  0  0  0  0  0
    2.4882   -1.4961    0.0000 C   0  0  0  0  0  0  0  0  0  0  0  0
    3.8095   -2.2063    0.0000 C   0  0  0  0  0  0  0  0  0  0  0  0
    5.0851   -1.4171    0.0000 C   0  0  0  0  0  0  0  0  0  0  0  0
    5.0394    0.0822    0.0000 C   0  0  0  0  0  0  0  0  0  0  0  0
    6.3151    0.8714    0.0000 C   0  0  0  0  0  0  0  0  0  0  0  0
    6.2694    2.3707    0.0000 C   0  0  0  0  0  0  0  0  0  0  0  0
    7.5450    3.1599    0.0000 O   0  0  0  0  0  0  0  0  0  0  0  0
    4.9481    3.0808    0.0000 C   0  0  0  0  0  0  0  0  0  0  0  0
    3.6725    2.2917    0.0000 C   0  0  0  0  0  0  0  0  0  0  0  0
    3.7182    0.7924    0.0000 C   0  0  0  0  0  0  0  0  0  0  0  0
    2.3969    1.5025    0.0000 C   0  0  0  0  0  0  0  0  0  0  0  0
    2.4426    0.0032    0.0000 C   0  0  0  0  0  0  0  0  0  0  0  0
    1.1213    0.7133    0.0000 C   0  0  0  0  0  0  0  0  0  0  0  0
   -0.1543   -0.0759    0.0000 C   0  0  0  0  0  0  0  0  0  0  0  0
   -1.4756    0.6342    0.0000 O   0  0  0  0  0  0  0  0  0  0  0  0
   -0.1087   -1.5752    0.0000 C   0  0  0  0  0  0  0  0  0  0  0  0
   -1.4969   -1.0071    0.0000 C   0  0  0  0  0  0  0  0  0  0  0  0
  2  1  1  6
  2  3  1  0
  3  4  1  0
  4  5  1  0
  5  6  2  0
  5  7  1  0
  7  8  1  0
  8  9  2  0
  8 10  1  0
  2 11  1  0
 11 12  1  6
 12 13  1  0
 14 13  1  6
 14 15  1  0
 15 16  1  1
 16 17  1  0
 18 17  1  1
 18 19  1  0
 19 20  1  0
 20 21  2  0
 20 22  1  0
 22 23  1  0
 23 24  1  0
 24 25  1  6
 24 26  1  0
 26 27  1  6
 27 28  1  0
 28 29  1  1
 28 30  1  0
 30 31  1  6
 30 11  1  0
 30 14  1  0
 26 15  1  0
 24 18  1  0
M  END
>  <MS_ID>  (580) 
MS0606

>  <SMILES>  (580) 
C[C@H](CCC(=O)CC(=O)O)[C@H]1CC[C@H]2[C@@H]3CC[C@@H]4CC(=O)CC[C@]4(C)[C@H]3C[C@H](O)[C@]12C

>  <Structure_dimension>  (580) 
2D

$$$$
MS0607
     RDKit          2D

 28 31  0  0  0  0  0  0  0  0999 V2000
   -5.0096   -2.1352    0.0000 C   0  0  0  0  0  0  0  0  0  0  0  0
   -3.8132   -1.2303    0.0000 C   0  0  0  0  0  0  0  0  0  0  0  0
   -3.9987    0.2582    0.0000 C   0  0  0  0  0  0  0  0  0  0  0  0
   -5.3805    0.8418    0.0000 C   0  0  0  0  0  0  0  0  0  0  0  0
   -5.5659    2.3303    0.0000 C   0  0  0  0  0  0  0  0  0  0  0  0
   -6.9477    2.9140    0.0000 O   0  0  0  0  0  0  0  0  0  0  0  0
   -4.3695    3.2351    0.0000 F   0  0  0  0  0  0  0  0  0  0  0  0
   -2.4315   -1.8140    0.0000 C   0  0  0  0  0  0  0  0  0  0  0  0
   -2.0914   -3.2749    0.0000 C   0  0  0  0  0  0  0  0  0  0  0  0
   -0.5969   -3.4030    0.0000 C   0  0  0  0  0  0  0  0  0  0  0  0
   -0.0133   -2.0212    0.0000 C   0  0  0  0  0  0  0  0  0  0  0  0
    1.4041   -1.5304    0.0000 C   0  0  0  0  0  0  0  0  0  0  0  0
    2.5379   -2.5125    0.0000 C   0  0  0  0  0  0  0  0  0  0  0  0
    3.9554   -2.0216    0.0000 C   0  0  0  0  0  0  0  0  0  0  0  0
    4.2390   -0.5487    0.0000 C   0  0  0  0  0  0  0  0  0  0  0  0
    5.6564   -0.0578    0.0000 C   0  0  0  0  0  0  0  0  0  0  0  0
    5.9400    1.4151    0.0000 C   0  0  0  0  0  0  0  0  0  0  0  0
    7.3574    1.9060    0.0000 O   0  0  0  0  0  0  0  0  0  0  0  0
    4.8062    2.3972    0.0000 C   0  0  0  0  0  0  0  0  0  0  0  0
    3.3888    1.9064    0.0000 C   0  0  0  0  0  0  0  0  0  0  0  0
    3.1052    0.4334    0.0000 C   0  0  0  0  0  0  0  0  0  0  0  0
    1.9714    1.4155    0.0000 C   0  0  0  0  0  0  0  0  0  0  0  0
    1.6878   -0.0574    0.0000 C   0  0  0  0  0  0  0  0  0  0  0  0
    0.5540    0.9246    0.0000 C   0  0  0  0  0  0  0  0  0  0  0  0
   -0.8635    0.4338    0.0000 C   0  0  0  0  0  0  0  0  0  0  0  0
   -1.9973    1.4159    0.0000 O   0  0  0  0  0  0  0  0  0  0  0  0
   -1.1471   -1.0392    0.0000 C   0  0  0  0  0  0  0  0  0  0  0  0
   -2.3773   -0.1810    0.0000 C   0  0  0  0  0  0  0  0  0  0  0  0
  2  1  1  6
  2  3  1  0
  3  4  1  0
  4  5  1  0
  5  6  2  0
  5  7  1  0
  2  8  1  0
  8  9  1  6
  9 10  1  0
 11 10  1  6
 11 12  1  0
 12 13  1  1
 13 14  1  0
 15 14  1  1
 15 16  1  0
 16 17  1  0
 17 18  2  0
 17 19  1  0
 19 20  1  0
 20 21  1  0
 21 22  1  6
 21 23  1  0
 23 24  1  6
 24 25  1  0
 25 26  1  1
 25 27  1  0
 27 28  1  6
 27  8  1  0
 27 11  1  0
 23 12  1  0
 21 15  1  0
M  END
>  <MS_ID>  (581) 
MS0607

>  <SMILES>  (581) 
C[C@H](CCC(=O)F)[C@H]1CC[C@H]2[C@@H]3CC[C@@H]4CC(=O)CC[C@]4(C)[C@H]3C[C@H](O)[C@]12C

>  <Structure_dimension>  (581) 
2D

$$$$
MS0608
     RDKit          2D

 31 34  0  0  0  0  0  0  0  0999 V2000
   -3.4301   -3.6172    0.0000 C   0  0  0  0  0  0  0  0  0  0  0  0
   -2.4973   -2.4425    0.0000 C   0  0  0  0  0  0  0  0  0  0  0  0
   -3.0483   -1.0473    0.0000 C   0  0  0  0  0  0  0  0  0  0  0  0
   -4.5321   -0.8270    0.0000 C   0  0  0  0  0  0  0  0  0  0  0  0
   -5.0831    0.5682    0.0000 C   0  0  0  0  0  0  0  0  0  0  0  0
   -4.1503    1.7429    0.0000 O   0  0  0  0  0  0  0  0  0  0  0  0
   -6.5668    0.7886    0.0000 O   0  0  0  0  0  0  0  0  0  0  0  0
   -7.1178    2.1837    0.0000 C   0  0  0  0  0  0  0  0  0  0  0  0
   -8.6015    2.4041    0.0000 C   0  0  0  0  0  0  0  0  0  0  0  0
   -9.1525    3.7992    0.0000 O   0  0  0  0  0  0  0  0  0  0  0  0
   -1.0136   -2.6629    0.0000 C   0  0  0  0  0  0  0  0  0  0  0  0
   -0.3198   -3.9928    0.0000 C   0  0  0  0  0  0  0  0  0  0  0  0
    1.1594   -3.7439    0.0000 C   0  0  0  0  0  0  0  0  0  0  0  0
    1.3798   -2.2602    0.0000 C   0  0  0  0  0  0  0  0  0  0  0  0
    2.6299   -1.4311    0.0000 C   0  0  0  0  0  0  0  0  0  0  0  0
    3.9729   -2.0992    0.0000 C   0  0  0  0  0  0  0  0  0  0  0  0
    5.2230   -1.2702    0.0000 C   0  0  0  0  0  0  0  0  0  0  0  0
    5.1301    0.2269    0.0000 C   0  0  0  0  0  0  0  0  0  0  0  0
    6.3802    1.0559    0.0000 C   0  0  0  0  0  0  0  0  0  0  0  0
    6.2872    2.5531    0.0000 C   0  0  0  0  0  0  0  0  0  0  0  0
    7.5373    3.3821    0.0000 O   0  0  0  0  0  0  0  0  0  0  0  0
    4.9442    3.2212    0.0000 C   0  0  0  0  0  0  0  0  0  0  0  0
    3.6942    2.3921    0.0000 C   0  0  0  0  0  0  0  0  0  0  0  0
    3.7871    0.8950    0.0000 C   0  0  0  0  0  0  0  0  0  0  0  0
    2.4441    1.5631    0.0000 C   0  0  0  0  0  0  0  0  0  0  0  0
    2.5370    0.0660    0.0000 C   0  0  0  0  0  0  0  0  0  0  0  0
    1.1940    0.7341    0.0000 C   0  0  0  0  0  0  0  0  0  0  0  0
   -0.0561   -0.0949    0.0000 C   0  0  0  0  0  0  0  0  0  0  0  0
   -1.3991    0.5732    0.0000 O   0  0  0  0  0  0  0  0  0  0  0  0
    0.0368   -1.5921    0.0000 C   0  0  0  0  0  0  0  0  0  0  0  0
   -1.3687   -1.0680    0.0000 C   0  0  0  0  0  0  0  0  0  0  0  0
  2  1  1  6
  2  3  1  0
  3  4  1  0
  4  5  1  0
  5  6  2  0
  5  7  1  0
  7  8  1  0
  8  9  1  0
  9 10  1  0
  2 11  1  0
 11 12  1  6
 12 13  1  0
 14 13  1  6
 14 15  1  0
 15 16  1  1
 16 17  1  0
 18 17  1  1
 18 19  1  0
 19 20  1  0
 20 21  1  1
 20 22  1  0
 22 23  1  0
 23 24  1  0
 24 25  1  6
 24 26  1  0
 26 27  1  6
 27 28  1  0
 28 29  1  6
 28 30  1  0
 30 31  1  6
 30 11  1  0
 30 14  1  0
 26 15  1  0
 24 18  1  0
M  END
>  <MS_ID>  (582) 
MS0608

>  <SMILES>  (582) 
C[C@H](CCC(=O)OCCO)[C@H]1CC[C@H]2[C@@H]3CC[C@@H]4C[C@H](O)CC[C@]4(C)[C@H]3C[C@@H](O)[C@]12C

>  <Structure_dimension>  (582) 
2D

$$$$
MS0609
     RDKit          2D

 31 34  0  0  0  0  0  0  0  0999 V2000
   -4.0382   -3.1592    0.0000 C   0  0  0  0  0  0  0  0  0  0  0  0
   -3.0416   -2.0381    0.0000 C   0  0  0  0  0  0  0  0  0  0  0  0
   -3.5143   -0.6145    0.0000 C   0  0  0  0  0  0  0  0  0  0  0  0
   -4.9835   -0.3121    0.0000 C   0  0  0  0  0  0  0  0  0  0  0  0
   -5.4561    1.1115    0.0000 C   0  0  0  0  0  0  0  0  0  0  0  0
   -4.4596    2.2326    0.0000 O   0  0  0  0  0  0  0  0  0  0  0  0
   -6.9253    1.4140    0.0000 C   0  0  0  0  0  0  0  0  0  0  0  0
   -7.3980    2.8376    0.0000 C   0  0  0  0  0  0  0  0  0  0  0  0
   -8.8672    3.1400    0.0000 O   0  0  0  0  0  0  0  0  0  0  0  0
   -1.5724   -2.3406    0.0000 C   0  0  0  0  0  0  0  0  0  0  0  0
   -0.9536   -3.7070    0.0000 C   0  0  0  0  0  0  0  0  0  0  0  0
    0.5372   -3.5406    0.0000 C   0  0  0  0  0  0  0  0  0  0  0  0
    0.8396   -2.0714    0.0000 C   0  0  0  0  0  0  0  0  0  0  0  0
    2.1338   -1.3131    0.0000 C   0  0  0  0  0  0  0  0  0  0  0  0
    3.4377   -2.0548    0.0000 C   0  0  0  0  0  0  0  0  0  0  0  0
    3.4473   -3.5547    0.0000 O   0  0  0  0  0  0  0  0  0  0  0  0
    4.7319   -1.2965    0.0000 C   0  0  0  0  0  0  0  0  0  0  0  0
    4.7223    0.2035    0.0000 C   0  0  0  0  0  0  0  0  0  0  0  0
    6.0165    0.9618    0.0000 C   0  0  0  0  0  0  0  0  0  0  0  0
    6.0069    2.4618    0.0000 C   0  0  0  0  0  0  0  0  0  0  0  0
    7.3011    3.2201    0.0000 O   0  0  0  0  0  0  0  0  0  0  0  0
    4.7030    3.2034    0.0000 C   0  0  0  0  0  0  0  0  0  0  0  0
    3.4088    2.4451    0.0000 C   0  0  0  0  0  0  0  0  0  0  0  0
    3.4184    0.9452    0.0000 C   0  0  0  0  0  0  0  0  0  0  0  0
    2.1146    1.6868    0.0000 C   0  0  0  0  0  0  0  0  0  0  0  0
    2.1242    0.1869    0.0000 C   0  0  0  0  0  0  0  0  0  0  0  0
    0.8204    0.9285    0.0000 C   0  0  0  0  0  0  0  0  0  0  0  0
   -0.4738    0.1702    0.0000 C   0  0  0  0  0  0  0  0  0  0  0  0
   -1.7776    0.9119    0.0000 O   0  0  0  0  0  0  0  0  0  0  0  0
   -0.4642   -1.3298    0.0000 C   0  0  0  0  0  0  0  0  0  0  0  0
   -1.8384   -0.7284    0.0000 C   0  0  0  0  0  0  0  0  0  0  0  0
  2  1  1  6
  2  3  1  0
  3  4  1  0
  4  5  1  0
  5  6  2  0
  5  7  1  0
  7  8  1  0
  8  9  1  0
  2 10  1  0
 10 11  1  6
 11 12  1  0
 13 12  1  6
 13 14  1  0
 14 15  1  1
 15 16  2  0
 15 17  1  0
 18 17  1  1
 18 19  1  0
 19 20  1  0
 20 21  1  1
 20 22  1  0
 22 23  1  0
 23 24  1  0
 24 25  1  6
 24 26  1  0
 26 27  1  6
 27 28  1  0
 28 29  1  1
 28 30  1  0
 30 31  1  6
 30 10  1  0
 30 13  1  0
 26 14  1  0
 24 18  1  0
M  END
>  <MS_ID>  (583) 
MS0609

>  <SMILES>  (583) 
C[C@H](CCC(=O)CCO)[C@H]1CC[C@H]2[C@@H]3C(=O)C[C@@H]4C[C@H](O)CC[C@]4(C)[C@H]3C[C@H](O)[C@]12C

>  <Structure_dimension>  (583) 
2D

$$$$
MS0610
     RDKit          2D

 29 32  0  0  0  0  0  0  0  0999 V2000
   -5.0303   -2.1373    0.0000 C   0  0  0  0  0  0  0  0  0  0  0  0
   -3.8594   -1.1998    0.0000 C   0  0  0  0  0  0  0  0  0  0  0  0
   -4.0858    0.2830    0.0000 C   0  0  0  0  0  0  0  0  0  0  0  0
   -5.4831    0.8284    0.0000 C   0  0  0  0  0  0  0  0  0  0  0  0
   -5.7095    2.3112    0.0000 C   0  0  0  0  0  0  0  0  0  0  0  0
   -7.1069    2.8565    0.0000 O   0  0  0  0  0  0  0  0  0  0  0  0
   -4.5386    3.2487    0.0000 S   0  0  0  0  0  0  0  0  0  0  0  0
   -2.4620   -1.7451    0.0000 C   0  0  0  0  0  0  0  0  0  0  0  0
   -2.0818   -3.1961    0.0000 C   0  0  0  0  0  0  0  0  0  0  0  0
   -0.5844   -3.2830    0.0000 C   0  0  0  0  0  0  0  0  0  0  0  0
   -0.0390   -1.8856    0.0000 C   0  0  0  0  0  0  0  0  0  0  0  0
    1.3643   -1.3559    0.0000 C   0  0  0  0  0  0  0  0  0  0  0  0
    2.5248   -2.3063    0.0000 C   0  0  0  0  0  0  0  0  0  0  0  0
    2.2819   -3.7865    0.0000 O   0  0  0  0  0  0  0  0  0  0  0  0
    3.9281   -1.7765    0.0000 C   0  0  0  0  0  0  0  0  0  0  0  0
    4.1710   -0.2963    0.0000 C   0  0  0  0  0  0  0  0  0  0  0  0
    5.5743    0.2334    0.0000 C   0  0  0  0  0  0  0  0  0  0  0  0
    5.8172    1.7136    0.0000 C   0  0  0  0  0  0  0  0  0  0  0  0
    7.2205    2.2434    0.0000 O   0  0  0  0  0  0  0  0  0  0  0  0
    4.6568    2.6641    0.0000 C   0  0  0  0  0  0  0  0  0  0  0  0
    3.2534    2.1343    0.0000 C   0  0  0  0  0  0  0  0  0  0  0  0
    3.0105    0.6541    0.0000 C   0  0  0  0  0  0  0  0  0  0  0  0
    1.8501    1.6046    0.0000 C   0  0  0  0  0  0  0  0  0  0  0  0
    1.6072    0.1244    0.0000 C   0  0  0  0  0  0  0  0  0  0  0  0
    0.4467    1.0748    0.0000 C   0  0  0  0  0  0  0  0  0  0  0  0
   -0.9566    0.5450    0.0000 C   0  0  0  0  0  0  0  0  0  0  0  0
   -2.1170    1.4955    0.0000 O   0  0  0  0  0  0  0  0  0  0  0  0
   -1.1995   -0.9352    0.0000 C   0  0  0  0  0  0  0  0  0  0  0  0
   -2.4529   -0.1112    0.0000 C   0  0  0  0  0  0  0  0  0  0  0  0
  2  1  1  6
  2  3  1  0
  3  4  1  0
  4  5  1  0
  5  6  2  0
  5  7  1  0
  2  8  1  0
  8  9  1  6
  9 10  1  0
 11 10  1  6
 11 12  1  0
 12 13  1  1
 13 14  1  6
 13 15  1  0
 16 15  1  1
 16 17  1  0
 17 18  1  0
 18 19  1  1
 18 20  1  0
 20 21  1  0
 21 22  1  0
 22 23  1  6
 22 24  1  0
 24 25  1  6
 25 26  1  0
 26 27  2  0
 26 28  1  0
 28 29  1  6
 28  8  1  0
 28 11  1  0
 24 12  1  0
 22 16  1  0
M  END
>  <MS_ID>  (584) 
MS0610

>  <SMILES>  (584) 
C[C@H](CCC(=O)S)[C@H]1CC[C@H]2[C@@H]3[C@@H](O)C[C@@H]4C[C@H](O)CC[C@]4(C)[C@H]3CC(=O)[C@]12C

>  <Structure_dimension>  (584) 
2D

$$$$
MS0611
     RDKit          2D

 31 34  0  0  0  0  0  0  0  0999 V2000
   -3.5119   -3.5779    0.0000 C   0  0  0  0  0  0  0  0  0  0  0  0
   -2.6109   -2.3787    0.0000 C   0  0  0  0  0  0  0  0  0  0  0  0
   -3.1991   -0.9988    0.0000 C   0  0  0  0  0  0  0  0  0  0  0  0
   -4.6881   -0.8181    0.0000 C   0  0  0  0  0  0  0  0  0  0  0  0
   -5.2762    0.5618    0.0000 C   0  0  0  0  0  0  0  0  0  0  0  0
   -4.3753    1.7610    0.0000 O   0  0  0  0  0  0  0  0  0  0  0  0
   -6.7653    0.7424    0.0000 C   0  0  0  0  0  0  0  0  0  0  0  0
   -7.3534    2.1223    0.0000 C   0  0  0  0  0  0  0  0  0  0  0  0
   -8.8425    2.3029    0.0000 C   0  0  0  0  0  0  0  0  0  0  0  0
   -9.4306    3.6828    0.0000 N   0  0  0  0  0  0  0  0  0  0  0  0
   -1.1219   -2.5593    0.0000 C   0  0  0  0  0  0  0  0  0  0  0  0
   -0.3927   -3.8702    0.0000 C   0  0  0  0  0  0  0  0  0  0  0  0
    1.0793   -3.5818    0.0000 C   0  0  0  0  0  0  0  0  0  0  0  0
    1.2599   -2.0927    0.0000 C   0  0  0  0  0  0  0  0  0  0  0  0
    2.4874   -1.2306    0.0000 C   0  0  0  0  0  0  0  0  0  0  0  0
    3.8478   -1.8625    0.0000 C   0  0  0  0  0  0  0  0  0  0  0  0
    3.9807   -3.3566    0.0000 O   0  0  0  0  0  0  0  0  0  0  0  0
    5.0753   -1.0003    0.0000 C   0  0  0  0  0  0  0  0  0  0  0  0
    4.9423    0.4938    0.0000 C   0  0  0  0  0  0  0  0  0  0  0  0
    6.1698    1.3559    0.0000 C   0  0  0  0  0  0  0  0  0  0  0  0
    6.0369    2.8500    0.0000 C   0  0  0  0  0  0  0  0  0  0  0  0
    7.2644    3.7122    0.0000 O   0  0  0  0  0  0  0  0  0  0  0  0
    4.6765    3.4820    0.0000 C   0  0  0  0  0  0  0  0  0  0  0  0
    3.4490    2.6198    0.0000 C   0  0  0  0  0  0  0  0  0  0  0  0
    3.5820    1.1257    0.0000 C   0  0  0  0  0  0  0  0  0  0  0  0
    2.2216    1.7576    0.0000 C   0  0  0  0  0  0  0  0  0  0  0  0
    2.3545    0.2635    0.0000 C   0  0  0  0  0  0  0  0  0  0  0  0
    0.9941    0.8955    0.0000 C   0  0  0  0  0  0  0  0  0  0  0  0
   -0.2334    0.0333    0.0000 C   0  0  0  0  0  0  0  0  0  0  0  0
   -0.1005   -1.4608    0.0000 C   0  0  0  0  0  0  0  0  0  0  0  0
   -1.5195   -0.9745    0.0000 C   0  0  0  0  0  0  0  0  0  0  0  0
  2  1  1  6
  2  3  1  0
  3  4  1  0
  4  5  1  0
  5  6  2  0
  5  7  1  0
  7  8  1  0
  8  9  1  0
  9 10  1  0
  2 11  1  0
 11 12  1  6
 12 13  1  0
 14 13  1  6
 14 15  1  0
 15 16  1  1
 16 17  1  1
 16 18  1  0
 19 18  1  1
 19 20  1  0
 20 21  1  0
 21 22  1  1
 21 23  1  0
 23 24  1  0
 24 25  1  0
 25 26  1  6
 25 27  1  0
 27 28  1  6
 28 29  1  0
 29 30  1  0
 30 31  1  6
 30 11  1  0
 30 14  1  0
 27 15  1  0
 25 19  1  0
M  END
>  <MS_ID>  (585) 
MS0611

>  <SMILES>  (585) 
C[C@H](CCC(=O)CCCN)[C@H]1CC[C@H]2[C@@H]3[C@H](O)C[C@@H]4C[C@H](O)CC[C@]4(C)[C@H]3CC[C@]12C

>  <Structure_dimension>  (585) 
2D

$$$$
MS0612
     RDKit          2D

 34 38  0  0  0  0  0  0  0  0999 V2000
   -2.9007   -3.2796    0.0000 C   0  0  0  0  0  0  0  0  0  0  0  0
   -1.9339   -2.1328    0.0000 C   0  0  0  0  0  0  0  0  0  0  0  0
   -2.4437   -0.7220    0.0000 C   0  0  0  0  0  0  0  0  0  0  0  0
   -3.9203   -0.4582    0.0000 C   0  0  0  0  0  0  0  0  0  0  0  0
   -4.4301    0.9525    0.0000 C   0  0  0  0  0  0  0  0  0  0  0  0
   -3.4633    2.0994    0.0000 O   0  0  0  0  0  0  0  0  0  0  0  0
   -5.9067    1.2164    0.0000 C   0  0  0  0  0  0  0  0  0  0  0  0
   -6.4165    2.6271    0.0000 C   0  0  0  0  0  0  0  0  0  0  0  0
   -7.8931    2.8909    0.0000 C   0  0  0  0  0  0  0  0  0  0  0  0
   -8.8599    1.7441    0.0000 C   0  0  0  0  0  0  0  0  0  0  0  0
   -8.3501    0.3334    0.0000 C   0  0  0  0  0  0  0  0  0  0  0  0
   -9.3169   -0.8135    0.0000 O   0  0  0  0  0  0  0  0  0  0  0  0
   -6.8735    0.0695    0.0000 C   0  0  0  0  0  0  0  0  0  0  0  0
   -0.4572   -2.3966    0.0000 C   0  0  0  0  0  0  0  0  0  0  0  0
    0.1972   -3.7463    0.0000 C   0  0  0  0  0  0  0  0  0  0  0  0
    1.6831   -3.5409    0.0000 C   0  0  0  0  0  0  0  0  0  0  0  0
    1.9470   -2.0643    0.0000 C   0  0  0  0  0  0  0  0  0  0  0  0
    3.2208   -1.2724    0.0000 C   0  0  0  0  0  0  0  0  0  0  0  0
    4.5437   -1.9796    0.0000 C   0  0  0  0  0  0  0  0  0  0  0  0
    4.5926   -3.4788    0.0000 O   0  0  0  0  0  0  0  0  0  0  0  0
    5.8175   -1.1876    0.0000 C   0  0  0  0  0  0  0  0  0  0  0  0
    5.7686    0.3116    0.0000 C   0  0  0  0  0  0  0  0  0  0  0  0
    7.0425    1.1035    0.0000 C   0  0  0  0  0  0  0  0  0  0  0  0
    6.9936    2.6027    0.0000 C   0  0  0  0  0  0  0  0  0  0  0  0
    8.2675    3.3947    0.0000 O   0  0  0  0  0  0  0  0  0  0  0  0
    5.6708    3.3100    0.0000 C   0  0  0  0  0  0  0  0  0  0  0  0
    4.3969    2.5180    0.0000 C   0  0  0  0  0  0  0  0  0  0  0  0
    4.4458    1.0188    0.0000 C   0  0  0  0  0  0  0  0  0  0  0  0
    3.1230    1.7260    0.0000 C   0  0  0  0  0  0  0  0  0  0  0  0
    3.1719    0.2268    0.0000 C   0  0  0  0  0  0  0  0  0  0  0  0
    1.8491    0.9341    0.0000 C   0  0  0  0  0  0  0  0  0  0  0  0
    0.5752    0.1421    0.0000 C   0  0  0  0  0  0  0  0  0  0  0  0
    0.6242   -1.3571    0.0000 C   0  0  0  0  0  0  0  0  0  0  0  0
   -0.7653   -0.7920    0.0000 C   0  0  0  0  0  0  0  0  0  0  0  0
  2  1  1  6
  2  3  1  0
  3  4  1  0
  4  5  1  0
  5  6  2  0
  5  7  1  0
  7  8  2  0
  8  9  1  0
  9 10  2  0
 10 11  1  0
 11 12  1  0
 11 13  2  0
  2 14  1  0
 14 15  1  6
 15 16  1  0
 17 16  1  6
 17 18  1  0
 18 19  1  1
 19 20  1  1
 19 21  1  0
 22 21  1  1
 22 23  1  0
 23 24  1  0
 24 25  1  1
 24 26  1  0
 26 27  1  0
 27 28  1  0
 28 29  1  6
 28 30  1  0
 30 31  1  6
 31 32  1  0
 32 33  1  0
 33 34  1  6
 13  7  1  0
 33 14  1  0
 33 17  1  0
 30 18  1  0
 28 22  1  0
M  END
>  <MS_ID>  (586) 
MS0612

>  <SMILES>  (586) 
C[C@H](CCC(=O)c1cccc(O)c1)[C@H]1CC[C@H]2[C@@H]3[C@H](O)C[C@@H]4C[C@H](O)CC[C@]4(C)[C@H]3CC[C@]12C

>  <Structure_dimension>  (586) 
2D

$$$$
MS0613
     RDKit          2D

 30 33  0  0  0  0  0  0  0  0999 V2000
   -4.1099   -3.1124    0.0000 C   0  0  0  0  0  0  0  0  0  0  0  0
   -3.1089   -1.9953    0.0000 C   0  0  0  0  0  0  0  0  0  0  0  0
   -3.5759   -0.5698    0.0000 C   0  0  0  0  0  0  0  0  0  0  0  0
   -5.0438   -0.2615    0.0000 C   0  0  0  0  0  0  0  0  0  0  0  0
   -5.5108    1.1640    0.0000 C   0  0  0  0  0  0  0  0  0  0  0  0
   -4.5097    2.2811    0.0000 O   0  0  0  0  0  0  0  0  0  0  0  0
   -6.9787    1.4724    0.0000 C   0  0  0  0  0  0  0  0  0  0  0  0
   -7.4457    2.8978    0.0000 C   0  0  0  0  0  0  0  0  0  0  0  0
   -8.9136    3.2062    0.0000 O   0  0  0  0  0  0  0  0  0  0  0  0
   -1.6409   -2.3036    0.0000 C   0  0  0  0  0  0  0  0  0  0  0  0
   -1.0276   -3.6725    0.0000 C   0  0  0  0  0  0  0  0  0  0  0  0
    0.4638   -3.5121    0.0000 C   0  0  0  0  0  0  0  0  0  0  0  0
    0.7722   -2.0441    0.0000 C   0  0  0  0  0  0  0  0  0  0  0  0
    2.0694   -1.2910    0.0000 C   0  0  0  0  0  0  0  0  0  0  0  0
    3.3703   -2.0379    0.0000 C   0  0  0  0  0  0  0  0  0  0  0  0
    3.3739   -3.5379    0.0000 O   0  0  0  0  0  0  0  0  0  0  0  0
    4.6675   -1.2848    0.0000 C   0  0  0  0  0  0  0  0  0  0  0  0
    4.6639    0.2152    0.0000 C   0  0  0  0  0  0  0  0  0  0  0  0
    5.9611    0.9683    0.0000 C   0  0  0  0  0  0  0  0  0  0  0  0
    5.9575    2.4683    0.0000 C   0  0  0  0  0  0  0  0  0  0  0  0
    7.2548    3.2214    0.0000 O   0  0  0  0  0  0  0  0  0  0  0  0
    4.6567    3.2152    0.0000 C   0  0  0  0  0  0  0  0  0  0  0  0
    3.3595    2.4621    0.0000 C   0  0  0  0  0  0  0  0  0  0  0  0
    3.3631    0.9621    0.0000 C   0  0  0  0  0  0  0  0  0  0  0  0
    2.0622    1.7090    0.0000 C   0  0  0  0  0  0  0  0  0  0  0  0
    2.0658    0.2090    0.0000 C   0  0  0  0  0  0  0  0  0  0  0  0
    0.7650    0.9559    0.0000 C   0  0  0  0  0  0  0  0  0  0  0  0
   -0.5322    0.2027    0.0000 C   0  0  0  0  0  0  0  0  0  0  0  0
   -0.5286   -1.2973    0.0000 C   0  0  0  0  0  0  0  0  0  0  0  0
   -1.9004   -0.6904    0.0000 C   0  0  0  0  0  0  0  0  0  0  0  0
  2  1  1  6
  2  3  1  0
  3  4  1  0
  4  5  1  0
  5  6  2  0
  5  7  1  0
  7  8  1  0
  8  9  1  0
  2 10  1  0
 10 11  1  6
 11 12  1  0
 13 12  1  6
 13 14  1  0
 14 15  1  1
 15 16  1  6
 15 17  1  0
 18 17  1  1
 18 19  1  0
 19 20  1  0
 20 21  1  1
 20 22  1  0
 22 23  1  0
 23 24  1  0
 24 25  1  6
 24 26  1  0
 26 27  1  6
 27 28  1  0
 28 29  1  0
 29 30  1  6
 29 10  1  0
 29 13  1  0
 26 14  1  0
 24 18  1  0
M  END
>  <MS_ID>  (587) 
MS0613

>  <SMILES>  (587) 
C[C@H](CCC(=O)CCO)[C@H]1CC[C@H]2[C@@H]3[C@@H](O)C[C@@H]4C[C@H](O)CC[C@]4(C)[C@H]3CC[C@]12C

>  <Structure_dimension>  (587) 
2D

$$$$
MS0614
     RDKit          2D

 35 39  0  0  0  0  0  0  0  0999 V2000
   -2.5834   -3.5122    0.0000 C   0  0  0  0  0  0  0  0  0  0  0  0
   -1.6713   -2.3214    0.0000 C   0  0  0  0  0  0  0  0  0  0  0  0
   -2.2466   -0.9361    0.0000 C   0  0  0  0  0  0  0  0  0  0  0  0
   -3.7339   -0.7416    0.0000 C   0  0  0  0  0  0  0  0  0  0  0  0
   -4.3092    0.6437    0.0000 C   0  0  0  0  0  0  0  0  0  0  0  0
   -3.3972    1.8345    0.0000 O   0  0  0  0  0  0  0  0  0  0  0  0
   -5.7966    0.8381    0.0000 C   0  0  0  0  0  0  0  0  0  0  0  0
   -6.3718    2.2234    0.0000 C   0  0  0  0  0  0  0  0  0  0  0  0
   -7.8592    2.4179    0.0000 C   0  0  0  0  0  0  0  0  0  0  0  0
   -8.4345    3.8032    0.0000 O   0  0  0  0  0  0  0  0  0  0  0  0
   -8.7712    1.2270    0.0000 C   0  0  0  0  0  0  0  0  0  0  0  0
   -8.1960   -0.1583    0.0000 C   0  0  0  0  0  0  0  0  0  0  0  0
   -6.7086   -0.3527    0.0000 C   0  0  0  0  0  0  0  0  0  0  0  0
   -6.1334   -1.7380    0.0000 O   0  0  0  0  0  0  0  0  0  0  0  0
   -0.1840   -2.5158    0.0000 C   0  0  0  0  0  0  0  0  0  0  0  0
    0.5329   -3.8334    0.0000 C   0  0  0  0  0  0  0  0  0  0  0  0
    2.0076   -3.5587    0.0000 C   0  0  0  0  0  0  0  0  0  0  0  0
    2.2020   -2.0713    0.0000 C   0  0  0  0  0  0  0  0  0  0  0  0
    3.4375   -1.2206    0.0000 C   0  0  0  0  0  0  0  0  0  0  0  0
    4.7919   -1.8652    0.0000 C   0  0  0  0  0  0  0  0  0  0  0  0
    4.9110   -3.3604    0.0000 O   0  0  0  0  0  0  0  0  0  0  0  0
    6.0273   -1.0144    0.0000 C   0  0  0  0  0  0  0  0  0  0  0  0
    5.9083    0.4808    0.0000 C   0  0  0  0  0  0  0  0  0  0  0  0
    7.1437    1.3316    0.0000 C   0  0  0  0  0  0  0  0  0  0  0  0
    7.0247    2.8268    0.0000 C   0  0  0  0  0  0  0  0  0  0  0  0
    8.2601    3.6775    0.0000 O   0  0  0  0  0  0  0  0  0  0  0  0
    5.6702    3.4714    0.0000 C   0  0  0  0  0  0  0  0  0  0  0  0
    4.4348    2.6206    0.0000 C   0  0  0  0  0  0  0  0  0  0  0  0
    4.5538    1.1254    0.0000 C   0  0  0  0  0  0  0  0  0  0  0  0
    3.1994    1.7699    0.0000 C   0  0  0  0  0  0  0  0  0  0  0  0
    3.3184    0.2746    0.0000 C   0  0  0  0  0  0  0  0  0  0  0  0
    1.9640    0.9192    0.0000 C   0  0  0  0  0  0  0  0  0  0  0  0
    0.7285    0.0685    0.0000 C   0  0  0  0  0  0  0  0  0  0  0  0
    0.8476   -1.4268    0.0000 C   0  0  0  0  0  0  0  0  0  0  0  0
   -0.5668   -0.9274    0.0000 C   0  0  0  0  0  0  0  0  0  0  0  0
  2  1  1  6
  2  3  1  0
  3  4  1  0
  4  5  1  0
  5  6  2  0
  5  7  1  0
  7  8  2  0
  8  9  1  0
  9 10  1  0
  9 11  2  0
 11 12  1  0
 12 13  2  0
 13 14  1  0
  2 15  1  0
 15 16  1  6
 16 17  1  0
 18 17  1  6
 18 19  1  0
 19 20  1  1
 20 21  1  1
 20 22  1  0
 23 22  1  1
 23 24  1  0
 24 25  1  0
 25 26  1  1
 25 27  1  0
 27 28  1  0
 28 29  1  0
 29 30  1  6
 29 31  1  0
 31 32  1  6
 32 33  1  0
 33 34  1  0
 34 35  1  6
 13  7  1  0
 34 15  1  0
 34 18  1  0
 31 19  1  0
 29 23  1  0
M  END
>  <MS_ID>  (588) 
MS0614

>  <SMILES>  (588) 
C[C@H](CCC(=O)c1cc(O)ccc1O)[C@H]1CC[C@H]2[C@@H]3[C@H](O)C[C@@H]4C[C@H](O)CC[C@]4(C)[C@H]3CC[C@]12C

>  <Structure_dimension>  (588) 
2D

$$$$
MS0615
     RDKit          2D

 32 35  0  0  0  0  0  0  0  0999 V2000
   -3.0592   -3.7169    0.0000 C   0  0  0  0  0  0  0  0  0  0  0  0
   -2.1499   -2.5239    0.0000 C   0  0  0  0  0  0  0  0  0  0  0  0
   -2.7284   -1.1399    0.0000 C   0  0  0  0  0  0  0  0  0  0  0  0
   -4.2162   -0.9489    0.0000 C   0  0  0  0  0  0  0  0  0  0  0  0
   -4.7946    0.4350    0.0000 C   0  0  0  0  0  0  0  0  0  0  0  0
   -3.8853    1.6280    0.0000 O   0  0  0  0  0  0  0  0  0  0  0  0
   -6.2824    0.6260    0.0000 O   0  0  0  0  0  0  0  0  0  0  0  0
   -6.8609    2.0100    0.0000 C   0  0  0  0  0  0  0  0  0  0  0  0
   -8.3487    2.2010    0.0000 C   0  0  0  0  0  0  0  0  0  0  0  0
   -9.2580    1.0080    0.0000 O   0  0  0  0  0  0  0  0  0  0  0  0
   -8.9272    3.5850    0.0000 O   0  0  0  0  0  0  0  0  0  0  0  0
   -0.6621   -2.7149    0.0000 C   0  0  0  0  0  0  0  0  0  0  0  0
    0.0579   -4.0308    0.0000 C   0  0  0  0  0  0  0  0  0  0  0  0
    1.5319   -3.7527    0.0000 C   0  0  0  0  0  0  0  0  0  0  0  0
    1.7229   -2.2649    0.0000 C   0  0  0  0  0  0  0  0  0  0  0  0
    2.9563   -1.4114    0.0000 C   0  0  0  0  0  0  0  0  0  0  0  0
    4.3123   -2.0528    0.0000 C   0  0  0  0  0  0  0  0  0  0  0  0
    5.5457   -1.1992    0.0000 C   0  0  0  0  0  0  0  0  0  0  0  0
    5.4232    0.2958    0.0000 C   0  0  0  0  0  0  0  0  0  0  0  0
    6.6567    1.1494    0.0000 C   0  0  0  0  0  0  0  0  0  0  0  0
    6.5342    2.6444    0.0000 C   0  0  0  0  0  0  0  0  0  0  0  0
    7.7676    3.4980    0.0000 O   0  0  0  0  0  0  0  0  0  0  0  0
    5.1782    3.2858    0.0000 C   0  0  0  0  0  0  0  0  0  0  0  0
    3.9448    2.4322    0.0000 C   0  0  0  0  0  0  0  0  0  0  0  0
    4.0673    0.9372    0.0000 C   0  0  0  0  0  0  0  0  0  0  0  0
    2.7113    1.5786    0.0000 C   0  0  0  0  0  0  0  0  0  0  0  0
    2.8338    0.0836    0.0000 C   0  0  0  0  0  0  0  0  0  0  0  0
    1.4779    0.7250    0.0000 C   0  0  0  0  0  0  0  0  0  0  0  0
    0.2444   -0.1285    0.0000 C   0  0  0  0  0  0  0  0  0  0  0  0
   -1.1115    0.5129    0.0000 O   0  0  0  0  0  0  0  0  0  0  0  0
    0.3669   -1.6235    0.0000 C   0  0  0  0  0  0  0  0  0  0  0  0
   -1.0486   -1.1274    0.0000 C   0  0  0  0  0  0  0  0  0  0  0  0
  2  1  1  6
  2  3  1  0
  3  4  1  0
  4  5  1  0
  5  6  2  0
  5  7  1  0
  7  8  1  0
  8  9  1  0
  9 10  2  0
  9 11  1  0
  2 12  1  0
 12 13  1  6
 13 14  1  0
 15 14  1  6
 15 16  1  0
 16 17  1  1
 17 18  1  0
 19 18  1  1
 19 20  1  0
 20 21  1  0
 21 22  1  1
 21 23  1  0
 23 24  1  0
 24 25  1  0
 25 26  1  6
 25 27  1  0
 27 28  1  6
 28 29  1  0
 29 30  1  1
 29 31  1  0
 31 32  1  6
 31 12  1  0
 31 15  1  0
 27 16  1  0
 25 19  1  0
M  END
>  <MS_ID>  (589) 
MS0615

>  <SMILES>  (589) 
C[C@H](CCC(=O)OCC(=O)O)[C@H]1CC[C@H]2[C@@H]3CC[C@@H]4C[C@H](O)CC[C@]4(C)[C@H]3C[C@H](O)[C@]12C

>  <Structure_dimension>  (589) 
2D

$$$$
MS0616
     RDKit          2D

 29 32  0  0  0  0  0  0  0  0999 V2000
   -5.3431   -2.0646    0.0000 C   0  0  0  0  0  0  0  0  0  0  0  0
   -4.1296   -1.1829    0.0000 C   0  0  0  0  0  0  0  0  0  0  0  0
   -4.2863    0.3088    0.0000 C   0  0  0  0  0  0  0  0  0  0  0  0
   -5.6566    0.9190    0.0000 C   0  0  0  0  0  0  0  0  0  0  0  0
   -5.8134    2.4108    0.0000 C   0  0  0  0  0  0  0  0  0  0  0  0
   -4.5998    3.2924    0.0000 O   0  0  0  0  0  0  0  0  0  0  0  0
   -7.1837    3.0209    0.0000 O   0  0  0  0  0  0  0  0  0  0  0  0
   -2.7593   -1.7931    0.0000 C   0  0  0  0  0  0  0  0  0  0  0  0
   -2.4474   -3.2603    0.0000 C   0  0  0  0  0  0  0  0  0  0  0  0
   -0.9557   -3.4171    0.0000 C   0  0  0  0  0  0  0  0  0  0  0  0
   -0.3455   -2.0468    0.0000 C   0  0  0  0  0  0  0  0  0  0  0  0
    1.0811   -1.5833    0.0000 C   0  0  0  0  0  0  0  0  0  0  0  0
    2.1958   -2.5871    0.0000 C   0  0  0  0  0  0  0  0  0  0  0  0
    3.6224   -2.1236    0.0000 C   0  0  0  0  0  0  0  0  0  0  0  0
    3.9343   -0.6564    0.0000 C   0  0  0  0  0  0  0  0  0  0  0  0
    5.3609   -0.1929    0.0000 C   0  0  0  0  0  0  0  0  0  0  0  0
    5.6728    1.2743    0.0000 C   0  0  0  0  0  0  0  0  0  0  0  0
    7.0994    1.7378    0.0000 C   0  0  0  0  0  0  0  0  0  0  0  0
    8.2141    0.7341    0.0000 O   0  0  0  0  0  0  0  0  0  0  0  0
    4.5581    2.2781    0.0000 C   0  0  0  0  0  0  0  0  0  0  0  0
    3.1315    1.8146    0.0000 C   0  0  0  0  0  0  0  0  0  0  0  0
    2.8196    0.3474    0.0000 C   0  0  0  0  0  0  0  0  0  0  0  0
    1.7049    1.3511    0.0000 C   0  0  0  0  0  0  0  0  0  0  0  0
    1.3930   -0.1161    0.0000 C   0  0  0  0  0  0  0  0  0  0  0  0
    0.2783    0.8876    0.0000 C   0  0  0  0  0  0  0  0  0  0  0  0
   -1.1483    0.4241    0.0000 C   0  0  0  0  0  0  0  0  0  0  0  0
   -2.2630    1.4278    0.0000 O   0  0  0  0  0  0  0  0  0  0  0  0
   -1.4602   -1.0431    0.0000 C   0  0  0  0  0  0  0  0  0  0  0  0
   -2.6737   -0.1614    0.0000 C   0  0  0  0  0  0  0  0  0  0  0  0
  2  1  1  6
  2  3  1  0
  3  4  1  0
  4  5  1  0
  5  6  2  0
  5  7  1  0
  2  8  1  0
  8  9  1  6
  9 10  1  0
 11 10  1  6
 11 12  1  0
 12 13  1  1
 13 14  1  0
 15 14  1  1
 15 16  1  0
 16 17  1  0
 17 18  1  1
 18 19  1  0
 17 20  1  0
 20 21  1  0
 21 22  1  0
 22 23  1  6
 22 24  1  0
 24 25  1  6
 25 26  1  0
 26 27  2  0
 26 28  1  0
 28 29  1  6
 28  8  1  0
 28 11  1  0
 24 12  1  0
 22 15  1  0
M  END
>  <MS_ID>  (590) 
MS0616

>  <SMILES>  (590) 
C[C@H](CCC(=O)O)[C@H]1CC[C@H]2[C@@H]3CC[C@@H]4C[C@H](CO)CC[C@]4(C)[C@H]3CC(=O)[C@]12C

>  <Structure_dimension>  (590) 
2D

$$$$
MS0617
     RDKit          2D

 30 33  0  0  0  0  0  0  0  0999 V2000
   -5.3676   -2.0337    0.0000 C   0  0  0  0  0  0  0  0  0  0  0  0
   -4.1713   -1.1288    0.0000 C   0  0  0  0  0  0  0  0  0  0  0  0
   -4.3569    0.3597    0.0000 C   0  0  0  0  0  0  0  0  0  0  0  0
   -5.7388    0.9432    0.0000 C   0  0  0  0  0  0  0  0  0  0  0  0
   -5.9244    2.4317    0.0000 C   0  0  0  0  0  0  0  0  0  0  0  0
   -4.7281    3.3367    0.0000 O   0  0  0  0  0  0  0  0  0  0  0  0
   -7.3062    3.0152    0.0000 O   0  0  0  0  0  0  0  0  0  0  0  0
   -2.7894   -1.7123    0.0000 C   0  0  0  0  0  0  0  0  0  0  0  0
   -2.4493   -3.1732    0.0000 C   0  0  0  0  0  0  0  0  0  0  0  0
   -0.9547   -3.3011    0.0000 C   0  0  0  0  0  0  0  0  0  0  0  0
   -0.3712   -1.9192    0.0000 C   0  0  0  0  0  0  0  0  0  0  0  0
    1.0461   -1.4282    0.0000 C   0  0  0  0  0  0  0  0  0  0  0  0
    2.1800   -2.4102    0.0000 C   0  0  0  0  0  0  0  0  0  0  0  0
    1.8966   -3.8832    0.0000 O   0  0  0  0  0  0  0  0  0  0  0  0
    3.5974   -1.9192    0.0000 C   0  0  0  0  0  0  0  0  0  0  0  0
    3.8808   -0.4462    0.0000 C   0  0  0  0  0  0  0  0  0  0  0  0
    5.2982    0.0448    0.0000 C   0  0  0  0  0  0  0  0  0  0  0  0
    5.5816    1.5178    0.0000 C   0  0  0  0  0  0  0  0  0  0  0  0
    6.9990    2.0088    0.0000 C   0  0  0  0  0  0  0  0  0  0  0  0
    8.1329    1.0269    0.0000 O   0  0  0  0  0  0  0  0  0  0  0  0
    4.4477    2.4998    0.0000 C   0  0  0  0  0  0  0  0  0  0  0  0
    3.0304    2.0087    0.0000 C   0  0  0  0  0  0  0  0  0  0  0  0
    2.7469    0.5358    0.0000 C   0  0  0  0  0  0  0  0  0  0  0  0
    1.6130    1.5177    0.0000 C   0  0  0  0  0  0  0  0  0  0  0  0
    1.3296    0.0448    0.0000 C   0  0  0  0  0  0  0  0  0  0  0  0
    0.1957    1.0267    0.0000 C   0  0  0  0  0  0  0  0  0  0  0  0
   -1.2217    0.5357    0.0000 C   0  0  0  0  0  0  0  0  0  0  0  0
   -2.3556    1.5177    0.0000 O   0  0  0  0  0  0  0  0  0  0  0  0
   -1.5052   -0.9373    0.0000 C   0  0  0  0  0  0  0  0  0  0  0  0
   -2.7355   -0.0792    0.0000 C   0  0  0  0  0  0  0  0  0  0  0  0
  2  1  1  6
  2  3  1  0
  3  4  1  0
  4  5  1  0
  5  6  2  0
  5  7  1  0
  2  8  1  0
  8  9  1  6
  9 10  1  0
 11 10  1  6
 11 12  1  0
 12 13  1  1
 13 14  1  1
 13 15  1  0
 16 15  1  1
 16 17  1  0
 17 18  1  0
 18 19  1  1
 19 20  1  0
 18 21  1  0
 21 22  1  0
 22 23  1  0
 23 24  1  6
 23 25  1  0
 25 26  1  6
 26 27  1  0
 27 28  2  0
 27 29  1  0
 29 30  1  6
 29  8  1  0
 29 11  1  0
 25 12  1  0
 23 16  1  0
M  END
>  <MS_ID>  (591) 
MS0617

>  <SMILES>  (591) 
C[C@H](CCC(=O)O)[C@H]1CC[C@H]2[C@@H]3[C@H](O)C[C@@H]4C[C@H](CO)CC[C@]4(C)[C@H]3CC(=O)[C@]12C

>  <Structure_dimension>  (591) 
2D

$$$$
MS0618
     RDKit          2D

 30 33  0  0  0  0  0  0  0  0999 V2000
   -1.9492    2.3736    0.0000 C   0  0  0  0  0  0  0  0  0  0  0  0
   -3.3081    1.7384    0.0000 C   0  0  0  0  0  0  0  0  0  0  0  0
   -4.5376    2.5976    0.0000 C   0  0  0  0  0  0  0  0  0  0  0  0
   -3.4374    0.2439    0.0000 C   0  0  0  0  0  0  0  0  0  0  0  0
   -4.7963   -0.3913    0.0000 C   0  0  0  0  0  0  0  0  0  0  0  0
   -6.0258    0.4679    0.0000 C   0  0  0  0  0  0  0  0  0  0  0  0
   -7.3847   -0.1673    0.0000 C   0  0  0  0  0  0  0  0  0  0  0  0
   -7.5140   -1.6617    0.0000 O   0  0  0  0  0  0  0  0  0  0  0  0
   -8.6142    0.6920    0.0000 O   0  0  0  0  0  0  0  0  0  0  0  0
   -2.2079   -0.6153    0.0000 C   0  0  0  0  0  0  0  0  0  0  0  0
   -2.1803   -2.1150    0.0000 C   0  0  0  0  0  0  0  0  0  0  0  0
   -0.7454   -2.5522    0.0000 C   0  0  0  0  0  0  0  0  0  0  0  0
    0.1138   -1.3227    0.0000 C   0  0  0  0  0  0  0  0  0  0  0  0
    1.6024   -1.1385    0.0000 C   0  0  0  0  0  0  0  0  0  0  0  0
    2.5063   -2.3356    0.0000 C   0  0  0  0  0  0  0  0  0  0  0  0
    1.9215   -3.7169    0.0000 O   0  0  0  0  0  0  0  0  0  0  0  0
    3.9949   -2.1514    0.0000 C   0  0  0  0  0  0  0  0  0  0  0  0
    4.5797   -0.7701    0.0000 C   0  0  0  0  0  0  0  0  0  0  0  0
    6.0684   -0.5859    0.0000 C   0  0  0  0  0  0  0  0  0  0  0  0
    6.6532    0.7954    0.0000 C   0  0  0  0  0  0  0  0  0  0  0  0
    8.1418    0.9796    0.0000 O   0  0  0  0  0  0  0  0  0  0  0  0
    5.7493    1.9925    0.0000 C   0  0  0  0  0  0  0  0  0  0  0  0
    4.2607    1.8083    0.0000 C   0  0  0  0  0  0  0  0  0  0  0  0
    3.6759    0.4270    0.0000 C   0  0  0  0  0  0  0  0  0  0  0  0
    2.7720    1.6241    0.0000 C   0  0  0  0  0  0  0  0  0  0  0  0
    2.1872    0.2428    0.0000 C   0  0  0  0  0  0  0  0  0  0  0  0
    1.2834    1.4399    0.0000 C   0  0  0  0  0  0  0  0  0  0  0  0
   -0.2053    1.2557    0.0000 C   0  0  0  0  0  0  0  0  0  0  0  0
   -0.7901   -0.1256    0.0000 C   0  0  0  0  0  0  0  0  0  0  0  0
   -1.8141    0.9705    0.0000 C   0  0  0  0  0  0  0  0  0  0  0  0
  1  2  2  0
  2  3  1  0
  2  4  1  0
  4  5  1  1
  5  6  1  0
  6  7  1  0
  7  8  2  0
  7  9  1  0
  4 10  1  0
 10 11  1  6
 11 12  1  0
 13 12  1  6
 13 14  1  0
 14 15  1  1
 15 16  1  6
 15 17  1  0
 18 17  1  1
 18 19  1  0
 19 20  1  0
 20 21  1  1
 20 22  1  0
 22 23  1  0
 23 24  1  0
 24 25  1  6
 24 26  1  0
 26 27  1  6
 27 28  1  0
 28 29  1  0
 29 30  1  6
 29 10  1  0
 29 13  1  0
 26 14  1  0
 24 18  1  0
M  END
>  <MS_ID>  (592) 
MS0618

>  <SMILES>  (592) 
C=C(C)[C@H](CCC(=O)O)[C@H]1CC[C@H]2[C@@H]3[C@@H](O)C[C@@H]4C[C@H](O)CC[C@]4(C)[C@H]3CC[C@]12C

>  <Structure_dimension>  (592) 
2D

$$$$
MS0619
     RDKit          2D

 30 33  0  0  0  0  0  0  0  0999 V2000
   -3.2463   -3.5582    0.0000 C   0  0  0  0  0  0  0  0  0  0  0  0
   -2.3879   -2.3280    0.0000 C   0  0  0  0  0  0  0  0  0  0  0  0
   -3.0240   -0.9696    0.0000 C   0  0  0  0  0  0  0  0  0  0  0  0
   -4.5185   -0.8413    0.0000 C   0  0  0  0  0  0  0  0  0  0  0  0
   -5.1547    0.5171    0.0000 C   0  0  0  0  0  0  0  0  0  0  0  0
   -4.2963    1.7473    0.0000 O   0  0  0  0  0  0  0  0  0  0  0  0
   -6.6492    0.6455    0.0000 C   0  0  0  0  0  0  0  0  0  0  0  0
   -7.2853    2.0039    0.0000 C   0  0  0  0  0  0  0  0  0  0  0  0
   -6.4269    3.2340    0.0000 O   0  0  0  0  0  0  0  0  0  0  0  0
   -8.7798    2.1322    0.0000 O   0  0  0  0  0  0  0  0  0  0  0  0
   -0.8934   -2.4563    0.0000 C   0  0  0  0  0  0  0  0  0  0  0  0
   -0.1188   -3.7408    0.0000 C   0  0  0  0  0  0  0  0  0  0  0  0
    1.3422   -3.4010    0.0000 C   0  0  0  0  0  0  0  0  0  0  0  0
    1.4705   -1.9065    0.0000 C   0  0  0  0  0  0  0  0  0  0  0  0
    2.6670   -1.0019    0.0000 C   0  0  0  0  0  0  0  0  0  0  0  0
    4.0487   -1.5857    0.0000 C   0  0  0  0  0  0  0  0  0  0  0  0
    4.2340   -3.0743    0.0000 O   0  0  0  0  0  0  0  0  0  0  0  0
    5.2452   -0.6811    0.0000 C   0  0  0  0  0  0  0  0  0  0  0  0
    5.0600    0.8074    0.0000 C   0  0  0  0  0  0  0  0  0  0  0  0
    6.2565    1.7121    0.0000 C   0  0  0  0  0  0  0  0  0  0  0  0
    6.0713    3.2006    0.0000 C   0  0  0  0  0  0  0  0  0  0  0  0
    4.6896    3.7845    0.0000 C   0  0  0  0  0  0  0  0  0  0  0  0
    3.4931    2.8798    0.0000 C   0  0  0  0  0  0  0  0  0  0  0  0
    3.6783    1.3913    0.0000 C   0  0  0  0  0  0  0  0  0  0  0  0
    2.2966    1.9752    0.0000 C   0  0  0  0  0  0  0  0  0  0  0  0
    2.4818    0.4866    0.0000 C   0  0  0  0  0  0  0  0  0  0  0  0
    1.1001    1.0705    0.0000 C   0  0  0  0  0  0  0  0  0  0  0  0
   -0.0964    0.1658    0.0000 C   0  0  0  0  0  0  0  0  0  0  0  0
    0.0888   -1.3227    0.0000 C   0  0  0  0  0  0  0  0  0  0  0  0
   -1.3463   -0.8865    0.0000 C   0  0  0  0  0  0  0  0  0  0  0  0
  2  1  1  6
  2  3  1  0
  3  4  1  0
  4  5  1  0
  5  6  2  0
  5  7  1  0
  7  8  1  0
  8  9  2  0
  8 10  1  0
  2 11  1  0
 11 12  1  6
 12 13  1  0
 14 13  1  6
 14 15  1  0
 15 16  1  1
 16 17  1  1
 16 18  1  0
 19 18  1  1
 19 20  1  0
 20 21  1  0
 21 22  1  0
 22 23  1  0
 23 24  1  0
 24 25  1  6
 24 26  1  0
 26 27  1  6
 27 28  1  0
 28 29  1  0
 29 30  1  6
 29 11  1  0
 29 14  1  0
 26 15  1  0
 24 19  1  0
M  END
>  <MS_ID>  (593) 
MS0619

>  <SMILES>  (593) 
C[C@H](CCC(=O)CC(=O)O)[C@H]1CC[C@H]2[C@@H]3[C@H](O)C[C@@H]4CCCC[C@]4(C)[C@H]3CC[C@]12C

>  <Structure_dimension>  (593) 
2D

$$$$
MS0620
     RDKit          2D

 34 37  0  0  0  0  0  0  0  0999 V2000
   -2.6036   -4.1660    0.0000 C   0  0  0  0  0  0  0  0  0  0  0  0
   -1.8683   -2.8586    0.0000 C   0  0  0  0  0  0  0  0  0  0  0  0
   -2.6328   -1.5681    0.0000 C   0  0  0  0  0  0  0  0  0  0  0  0
   -4.1328   -1.5850    0.0000 C   0  0  0  0  0  0  0  0  0  0  0  0
   -4.8973   -0.2944    0.0000 C   0  0  0  0  0  0  0  0  0  0  0  0
   -4.1620    1.0130    0.0000 O   0  0  0  0  0  0  0  0  0  0  0  0
   -6.3972   -0.3113    0.0000 O   0  0  0  0  0  0  0  0  0  0  0  0
   -7.1618    0.9792    0.0000 C   0  0  0  0  0  0  0  0  0  0  0  0
   -8.6617    0.9623    0.0000 C   0  0  0  0  0  0  0  0  0  0  0  0
   -9.4263    2.2528    0.0000 N   0  0  0  0  0  0  0  0  0  0  0  0
  -10.9262    2.2359    0.0000 C   0  0  0  0  0  0  0  0  0  0  0  0
   -8.6910    3.5602    0.0000 C   0  0  0  0  0  0  0  0  0  0  0  0
   -0.3684   -2.8417    0.0000 C   0  0  0  0  0  0  0  0  0  0  0  0
    0.5269   -4.0452    0.0000 C   0  0  0  0  0  0  0  0  0  0  0  0
    1.9482   -3.5657    0.0000 C   0  0  0  0  0  0  0  0  0  0  0  0
    1.9313   -2.0657    0.0000 C   0  0  0  0  0  0  0  0  0  0  0  0
    3.0347   -1.0496    0.0000 C   0  0  0  0  0  0  0  0  0  0  0  0
    4.4664   -1.4970    0.0000 C   0  0  0  0  0  0  0  0  0  0  0  0
    4.7947   -2.9606    0.0000 O   0  0  0  0  0  0  0  0  0  0  0  0
    5.5697   -0.4808    0.0000 C   0  0  0  0  0  0  0  0  0  0  0  0
    7.0014   -0.9282    0.0000 O   0  0  0  0  0  0  0  0  0  0  0  0
    5.2413    0.9828    0.0000 C   0  0  0  0  0  0  0  0  0  0  0  0
    6.3447    1.9990    0.0000 C   0  0  0  0  0  0  0  0  0  0  0  0
    6.0163    3.4626    0.0000 C   0  0  0  0  0  0  0  0  0  0  0  0
    7.1197    4.4788    0.0000 O   0  0  0  0  0  0  0  0  0  0  0  0
    4.5846    3.9100    0.0000 C   0  0  0  0  0  0  0  0  0  0  0  0
    3.4813    2.8939    0.0000 C   0  0  0  0  0  0  0  0  0  0  0  0
    3.8096    1.4302    0.0000 C   0  0  0  0  0  0  0  0  0  0  0  0
    2.3779    1.8777    0.0000 C   0  0  0  0  0  0  0  0  0  0  0  0
    2.7063    0.4141    0.0000 C   0  0  0  0  0  0  0  0  0  0  0  0
    1.2746    0.8615    0.0000 C   0  0  0  0  0  0  0  0  0  0  0  0
    0.1712   -0.1547    0.0000 C   0  0  0  0  0  0  0  0  0  0  0  0
    0.4996   -1.6183    0.0000 C   0  0  0  0  0  0  0  0  0  0  0  0
   -0.9710   -1.3230    0.0000 C   0  0  0  0  0  0  0  0  0  0  0  0
  2  1  1  6
  2  3  1  0
  3  4  1  0
  4  5  1  0
  5  6  2  0
  5  7  1  0
  7  8  1  0
  8  9  1  0
  9 10  1  0
 10 11  1  0
 10 12  1  0
  2 13  1  0
 13 14  1  6
 14 15  1  0
 16 15  1  6
 16 17  1  0
 17 18  1  1
 18 19  1  1
 18 20  1  0
 20 21  1  1
 20 22  1  0
 22 23  1  1
 23 24  1  0
 24 25  1  1
 24 26  1  0
 26 27  1  0
 27 28  1  0
 28 29  1  6
 28 30  1  0
 30 31  1  6
 31 32  1  0
 32 33  1  0
 33 34  1  6
 33 13  1  0
 33 16  1  0
 30 17  1  0
 28 22  1  0
M  END
>  <MS_ID>  (594) 
MS0620

>  <SMILES>  (594) 
C[C@H](CCC(=O)OCCN(C)C)[C@H]1CC[C@H]2[C@@H]3[C@H](O)[C@H](O)[C@@H]4C[C@H](O)CC[C@]4(C)[C@H]3CC[C@]12C

>  <Structure_dimension>  (594) 
2D

$$$$
MS0621
     RDKit          2D

 34 38  0  0  0  0  0  0  0  0999 V2000
   -3.2858   -3.3478    0.0000 C   0  0  0  0  0  0  0  0  0  0  0  0
   -2.3538   -2.1725    0.0000 C   0  0  0  0  0  0  0  0  0  0  0  0
   -2.9057   -0.7777    0.0000 C   0  0  0  0  0  0  0  0  0  0  0  0
   -4.3895   -0.5582    0.0000 C   0  0  0  0  0  0  0  0  0  0  0  0
   -4.9414    0.8366    0.0000 C   0  0  0  0  0  0  0  0  0  0  0  0
   -4.0094    2.0119    0.0000 O   0  0  0  0  0  0  0  0  0  0  0  0
   -6.4253    1.0561    0.0000 C   0  0  0  0  0  0  0  0  0  0  0  0
   -6.9771    2.4509    0.0000 C   0  0  0  0  0  0  0  0  0  0  0  0
   -8.4610    2.6704    0.0000 C   0  0  0  0  0  0  0  0  0  0  0  0
   -9.3930    1.4950    0.0000 C   0  0  0  0  0  0  0  0  0  0  0  0
   -8.8411    0.1002    0.0000 C   0  0  0  0  0  0  0  0  0  0  0  0
   -7.3573   -0.1192    0.0000 C   0  0  0  0  0  0  0  0  0  0  0  0
   -0.8700   -2.3919    0.0000 C   0  0  0  0  0  0  0  0  0  0  0  0
   -0.1754   -3.7214    0.0000 C   0  0  0  0  0  0  0  0  0  0  0  0
    1.3037   -3.4716    0.0000 C   0  0  0  0  0  0  0  0  0  0  0  0
    1.5232   -1.9878    0.0000 C   0  0  0  0  0  0  0  0  0  0  0  0
    2.7728   -1.1580    0.0000 C   0  0  0  0  0  0  0  0  0  0  0  0
    4.1162   -1.8252    0.0000 C   0  0  0  0  0  0  0  0  0  0  0  0
    4.2100   -3.3223    0.0000 O   0  0  0  0  0  0  0  0  0  0  0  0
    5.3657   -0.9955    0.0000 C   0  0  0  0  0  0  0  0  0  0  0  0
    6.7092   -1.6627    0.0000 O   0  0  0  0  0  0  0  0  0  0  0  0
    5.2719    0.5016    0.0000 C   0  0  0  0  0  0  0  0  0  0  0  0
    6.5215    1.3314    0.0000 C   0  0  0  0  0  0  0  0  0  0  0  0
    6.4277    2.8285    0.0000 C   0  0  0  0  0  0  0  0  0  0  0  0
    7.6772    3.6583    0.0000 O   0  0  0  0  0  0  0  0  0  0  0  0
    5.0843    3.4957    0.0000 C   0  0  0  0  0  0  0  0  0  0  0  0
    3.8347    2.6659    0.0000 C   0  0  0  0  0  0  0  0  0  0  0  0
    3.9285    1.1689    0.0000 C   0  0  0  0  0  0  0  0  0  0  0  0
    2.5851    1.8362    0.0000 C   0  0  0  0  0  0  0  0  0  0  0  0
    2.6789    0.3391    0.0000 C   0  0  0  0  0  0  0  0  0  0  0  0
    1.3355    1.0064    0.0000 C   0  0  0  0  0  0  0  0  0  0  0  0
    0.0859    0.1766    0.0000 C   0  0  0  0  0  0  0  0  0  0  0  0
    0.1798   -1.3205    0.0000 C   0  0  0  0  0  0  0  0  0  0  0  0
   -1.2260   -0.7973    0.0000 C   0  0  0  0  0  0  0  0  0  0  0  0
  2  1  1  6
  2  3  1  0
  3  4  1  0
  4  5  1  0
  5  6  2  0
  5  7  1  0
  7  8  2  0
  8  9  1  0
  9 10  2  0
 10 11  1  0
 11 12  2  0
  2 13  1  0
 13 14  1  6
 14 15  1  0
 16 15  1  6
 16 17  1  0
 17 18  1  1
 18 19  1  1
 18 20  1  0
 20 21  1  1
 20 22  1  0
 22 23  1  1
 23 24  1  0
 24 25  1  1
 24 26  1  0
 26 27  1  0
 27 28  1  0
 28 29  1  6
 28 30  1  0
 30 31  1  6
 31 32  1  0
 32 33  1  0
 33 34  1  6
 12  7  1  0
 33 13  1  0
 33 16  1  0
 30 17  1  0
 28 22  1  0
M  END
>  <MS_ID>  (595) 
MS0621

>  <SMILES>  (595) 
C[C@H](CCC(=O)c1ccccc1)[C@H]1CC[C@H]2[C@@H]3[C@H](O)[C@H](O)[C@@H]4C[C@H](O)CC[C@]4(C)[C@H]3CC[C@]12C

>  <Structure_dimension>  (595) 
2D

$$$$
MS0622
     RDKit          2D

 29 32  0  0  0  0  0  0  0  0999 V2000
   -4.9453    4.3279    0.0000 C   0  0  0  0  0  0  0  0  0  0  0  0
   -4.6294    2.8615    0.0000 S   0  0  0  0  0  0  0  0  0  0  0  0
   -5.7413    1.8547    0.0000 C   0  0  0  0  0  0  0  0  0  0  0  0
   -7.1692    2.3143    0.0000 O   0  0  0  0  0  0  0  0  0  0  0  0
   -5.4254    0.3884    0.0000 C   0  0  0  0  0  0  0  0  0  0  0  0
   -3.9975   -0.0712    0.0000 C   0  0  0  0  0  0  0  0  0  0  0  0
   -3.6816   -1.5375    0.0000 C   0  0  0  0  0  0  0  0  0  0  0  0
   -4.7935   -2.5443    0.0000 C   0  0  0  0  0  0  0  0  0  0  0  0
   -2.2537   -1.9971    0.0000 C   0  0  0  0  0  0  0  0  0  0  0  0
   -1.7862   -3.4224    0.0000 C   0  0  0  0  0  0  0  0  0  0  0  0
   -0.2862   -3.4182    0.0000 C   0  0  0  0  0  0  0  0  0  0  0  0
    0.1733   -1.9903    0.0000 C   0  0  0  0  0  0  0  0  0  0  0  0
    1.5420   -1.3764    0.0000 C   0  0  0  0  0  0  0  0  0  0  0  0
    2.7579   -2.2547    0.0000 C   0  0  0  0  0  0  0  0  0  0  0  0
    2.6053   -3.7470    0.0000 O   0  0  0  0  0  0  0  0  0  0  0  0
    4.1265   -1.6408    0.0000 C   0  0  0  0  0  0  0  0  0  0  0  0
    4.2792   -0.1486    0.0000 C   0  0  0  0  0  0  0  0  0  0  0  0
    5.6478    0.4653    0.0000 C   0  0  0  0  0  0  0  0  0  0  0  0
    5.8005    1.9575    0.0000 C   0  0  0  0  0  0  0  0  0  0  0  0
    7.1691    2.5714    0.0000 O   0  0  0  0  0  0  0  0  0  0  0  0
    4.5845    2.8358    0.0000 C   0  0  0  0  0  0  0  0  0  0  0  0
    3.2159    2.2219    0.0000 C   0  0  0  0  0  0  0  0  0  0  0  0
    3.0632    0.7297    0.0000 C   0  0  0  0  0  0  0  0  0  0  0  0
    1.8473    1.6080    0.0000 C   0  0  0  0  0  0  0  0  0  0  0  0
    1.6946    0.1158    0.0000 C   0  0  0  0  0  0  0  0  0  0  0  0
    0.4786    0.9941    0.0000 C   0  0  0  0  0  0  0  0  0  0  0  0
   -0.8900    0.3802    0.0000 C   0  0  0  0  0  0  0  0  0  0  0  0
   -1.0426   -1.1120    0.0000 C   0  0  0  0  0  0  0  0  0  0  0  0
   -2.3437   -0.3657    0.0000 C   0  0  0  0  0  0  0  0  0  0  0  0
  1  2  1  0
  2  3  1  0
  3  4  2  0
  3  5  1  0
  5  6  1  0
  6  7  1  0
  7  8  1  6
  7  9  1  0
  9 10  1  6
 10 11  1  0
 12 11  1  6
 12 13  1  0
 13 14  1  1
 14 15  1  1
 14 16  1  0
 17 16  1  1
 17 18  1  0
 18 19  1  0
 19 20  2  0
 19 21  1  0
 21 22  1  0
 22 23  1  0
 23 24  1  6
 23 25  1  0
 25 26  1  6
 26 27  1  0
 27 28  1  0
 28 29  1  6
 28  9  1  0
 28 12  1  0
 25 13  1  0
 23 17  1  0
M  END
>  <MS_ID>  (596) 
MS0622

>  <SMILES>  (596) 
CSC(=O)CC[C@@H](C)[C@H]1CC[C@H]2[C@@H]3[C@H](O)C[C@@H]4CC(=O)CC[C@]4(C)[C@H]3CC[C@]12C

>  <Structure_dimension>  (596) 
2D

$$$$
MS0623
     RDKit          2D

 33 36  0  0  0  0  0  0  0  0999 V2000
   -3.2878   -3.6766    0.0000 C   0  0  0  0  0  0  0  0  0  0  0  0
   -2.4284   -2.4472    0.0000 C   0  0  0  0  0  0  0  0  0  0  0  0
   -3.0634   -1.0882    0.0000 C   0  0  0  0  0  0  0  0  0  0  0  0
   -4.5578   -0.9586    0.0000 C   0  0  0  0  0  0  0  0  0  0  0  0
   -5.1928    0.4003    0.0000 C   0  0  0  0  0  0  0  0  0  0  0  0
   -4.3333    1.6297    0.0000 O   0  0  0  0  0  0  0  0  0  0  0  0
   -6.6871    0.5299    0.0000 C   0  0  0  0  0  0  0  0  0  0  0  0
   -7.3221    1.8889    0.0000 O   0  0  0  0  0  0  0  0  0  0  0  0
   -8.8165    2.0184    0.0000 C   0  0  0  0  0  0  0  0  0  0  0  0
   -9.6759    0.7890    0.0000 O   0  0  0  0  0  0  0  0  0  0  0  0
   -9.4515    3.3774    0.0000 O   0  0  0  0  0  0  0  0  0  0  0  0
   -0.9340   -2.5767    0.0000 C   0  0  0  0  0  0  0  0  0  0  0  0
   -0.1604   -3.8619    0.0000 C   0  0  0  0  0  0  0  0  0  0  0  0
    1.3009   -3.5233    0.0000 C   0  0  0  0  0  0  0  0  0  0  0  0
    1.4304   -2.0289    0.0000 C   0  0  0  0  0  0  0  0  0  0  0  0
    2.6277   -1.1253    0.0000 C   0  0  0  0  0  0  0  0  0  0  0  0
    4.0089   -1.7103    0.0000 C   0  0  0  0  0  0  0  0  0  0  0  0
    4.1929   -3.1990    0.0000 O   0  0  0  0  0  0  0  0  0  0  0  0
    5.2061   -0.8066    0.0000 C   0  0  0  0  0  0  0  0  0  0  0  0
    6.5874   -1.3916    0.0000 O   0  0  0  0  0  0  0  0  0  0  0  0
    5.0222    0.6820    0.0000 C   0  0  0  0  0  0  0  0  0  0  0  0
    6.2194    1.5857    0.0000 C   0  0  0  0  0  0  0  0  0  0  0  0
    6.0355    3.0744    0.0000 C   0  0  0  0  0  0  0  0  0  0  0  0
    7.2327    3.9780    0.0000 O   0  0  0  0  0  0  0  0  0  0  0  0
    4.6542    3.6594    0.0000 C   0  0  0  0  0  0  0  0  0  0  0  0
    3.4570    2.7557    0.0000 C   0  0  0  0  0  0  0  0  0  0  0  0
    3.6410    1.2671    0.0000 C   0  0  0  0  0  0  0  0  0  0  0  0
    2.2597    1.8521    0.0000 C   0  0  0  0  0  0  0  0  0  0  0  0
    2.4437    0.3634    0.0000 C   0  0  0  0  0  0  0  0  0  0  0  0
    1.0625    0.9484    0.0000 C   0  0  0  0  0  0  0  0  0  0  0  0
   -0.1347    0.0448    0.0000 C   0  0  0  0  0  0  0  0  0  0  0  0
    0.0492   -1.4439    0.0000 C   0  0  0  0  0  0  0  0  0  0  0  0
   -1.3856   -1.0065    0.0000 C   0  0  0  0  0  0  0  0  0  0  0  0
  2  1  1  6
  2  3  1  0
  3  4  1  0
  4  5  1  0
  5  6  2  0
  5  7  1  0
  7  8  1  0
  8  9  1  0
  9 10  2  0
  9 11  1  0
  2 12  1  0
 12 13  1  6
 13 14  1  0
 15 14  1  6
 15 16  1  0
 16 17  1  1
 17 18  1  1
 17 19  1  0
 19 20  1  1
 19 21  1  0
 21 22  1  1
 22 23  1  0
 23 24  1  1
 23 25  1  0
 25 26  1  0
 26 27  1  0
 27 28  1  6
 27 29  1  0
 29 30  1  6
 30 31  1  0
 31 32  1  0
 32 33  1  6
 32 12  1  0
 32 15  1  0
 29 16  1  0
 27 21  1  0
M  END
>  <MS_ID>  (597) 
MS0623

>  <SMILES>  (597) 
C[C@H](CCC(=O)COC(=O)O)[C@H]1CC[C@H]2[C@@H]3[C@H](O)[C@H](O)[C@@H]4C[C@H](O)CC[C@]4(C)[C@H]3CC[C@]12C

>  <Structure_dimension>  (597) 
2D

$$$$
MS0624
     RDKit          2D

 29 32  0  0  0  0  0  0  0  0999 V2000
   -5.0303   -2.1373    0.0000 C   0  0  0  0  0  0  0  0  0  0  0  0
   -3.8594   -1.1998    0.0000 C   0  0  0  0  0  0  0  0  0  0  0  0
   -4.0858    0.2830    0.0000 C   0  0  0  0  0  0  0  0  0  0  0  0
   -5.4831    0.8284    0.0000 C   0  0  0  0  0  0  0  0  0  0  0  0
   -5.7095    2.3112    0.0000 C   0  0  0  0  0  0  0  0  0  0  0  0
   -4.5386    3.2487    0.0000 O   0  0  0  0  0  0  0  0  0  0  0  0
   -7.1069    2.8565    0.0000 O   0  0  0  0  0  0  0  0  0  0  0  0
   -2.4620   -1.7451    0.0000 C   0  0  0  0  0  0  0  0  0  0  0  0
   -2.0818   -3.1961    0.0000 C   0  0  0  0  0  0  0  0  0  0  0  0
   -0.5844   -3.2830    0.0000 C   0  0  0  0  0  0  0  0  0  0  0  0
   -0.0390   -1.8856    0.0000 C   0  0  0  0  0  0  0  0  0  0  0  0
    1.3643   -1.3559    0.0000 C   0  0  0  0  0  0  0  0  0  0  0  0
    2.5248   -2.3063    0.0000 C   0  0  0  0  0  0  0  0  0  0  0  0
    2.2819   -3.7865    0.0000 O   0  0  0  0  0  0  0  0  0  0  0  0
    3.9281   -1.7765    0.0000 C   0  0  0  0  0  0  0  0  0  0  0  0
    4.1710   -0.2963    0.0000 C   0  0  0  0  0  0  0  0  0  0  0  0
    5.5743    0.2334    0.0000 C   0  0  0  0  0  0  0  0  0  0  0  0
    5.8172    1.7136    0.0000 C   0  0  0  0  0  0  0  0  0  0  0  0
    7.2205    2.2434    0.0000 O   0  0  0  0  0  0  0  0  0  0  0  0
    4.6568    2.6641    0.0000 C   0  0  0  0  0  0  0  0  0  0  0  0
    3.2534    2.1343    0.0000 C   0  0  0  0  0  0  0  0  0  0  0  0
    3.0105    0.6541    0.0000 C   0  0  0  0  0  0  0  0  0  0  0  0
    1.8501    1.6046    0.0000 C   0  0  0  0  0  0  0  0  0  0  0  0
    1.6072    0.1244    0.0000 C   0  0  0  0  0  0  0  0  0  0  0  0
    0.4467    1.0748    0.0000 C   0  0  0  0  0  0  0  0  0  0  0  0
   -0.9566    0.5450    0.0000 C   0  0  0  0  0  0  0  0  0  0  0  0
   -2.1170    1.4955    0.0000 O   0  0  0  0  0  0  0  0  0  0  0  0
   -1.1995   -0.9352    0.0000 C   0  0  0  0  0  0  0  0  0  0  0  0
   -2.4529   -0.1112    0.0000 C   0  0  0  0  0  0  0  0  0  0  0  0
  2  1  1  1
  2  3  1  0
  3  4  1  0
  4  5  1  0
  5  6  2  0
  5  7  1  0
  2  8  1  0
  8  9  1  6
  9 10  1  0
 11 10  1  6
 11 12  1  0
 12 13  1  1
 13 14  1  1
 13 15  1  0
 16 15  1  1
 16 17  1  0
 17 18  1  0
 18 19  1  1
 18 20  1  0
 20 21  1  0
 21 22  1  0
 22 23  1  6
 22 24  1  0
 24 25  1  6
 25 26  1  0
 26 27  1  1
 26 28  1  0
 28 29  1  6
 28  8  1  0
 28 11  1  0
 24 12  1  0
 22 16  1  0
M  END
>  <MS_ID>  (598) 
MS0624

>  <SMILES>  (598) 
C[C@@H](CCC(=O)O)[C@H]1CC[C@H]2[C@@H]3[C@H](O)C[C@@H]4C[C@H](O)CC[C@]4(C)[C@H]3C[C@H](O)[C@]12C

>  <Structure_dimension>  (598) 
2D

$$$$
MS0625
     RDKit          2D

 31 34  0  0  0  0  0  0  0  0999 V2000
   -5.7175   -1.8176    0.0000 C   0  0  0  0  0  0  0  0  0  0  0  0
   -4.4708   -0.9835    0.0000 C   0  0  0  0  0  0  0  0  0  0  0  0
   -4.5698    0.5132    0.0000 C   0  0  0  0  0  0  0  0  0  0  0  0
   -5.9155    1.1758    0.0000 C   0  0  0  0  0  0  0  0  0  0  0  0
   -6.0145    2.6726    0.0000 C   0  0  0  0  0  0  0  0  0  0  0  0
   -4.7678    3.5067    0.0000 O   0  0  0  0  0  0  0  0  0  0  0  0
   -7.3602    3.3352    0.0000 O   0  0  0  0  0  0  0  0  0  0  0  0
   -3.1251   -1.6462    0.0000 C   0  0  0  0  0  0  0  0  0  0  0  0
   -2.8701   -3.1243    0.0000 C   0  0  0  0  0  0  0  0  0  0  0  0
   -1.3855   -3.3387    0.0000 C   0  0  0  0  0  0  0  0  0  0  0  0
   -0.7229   -1.9930    0.0000 C   0  0  0  0  0  0  0  0  0  0  0  0
    0.7205   -1.5850    0.0000 C   0  0  0  0  0  0  0  0  0  0  0  0
    1.7956   -2.6310    0.0000 C   0  0  0  0  0  0  0  0  0  0  0  0
    1.4272   -4.0851    0.0000 O   0  0  0  0  0  0  0  0  0  0  0  0
    3.2390   -2.2230    0.0000 C   0  0  0  0  0  0  0  0  0  0  0  0
    3.6074   -0.7689    0.0000 C   0  0  0  0  0  0  0  0  0  0  0  0
    5.0508   -0.3609    0.0000 C   0  0  0  0  0  0  0  0  0  0  0  0
    5.4192    1.0932    0.0000 C   0  0  0  0  0  0  0  0  0  0  0  0
    6.8626    1.5012    0.0000 N   0  0  0  0  0  0  0  0  0  0  0  0
    7.9377    0.4551    0.0000 C   0  0  0  0  0  0  0  0  0  0  0  0
    7.2310    2.9552    0.0000 C   0  0  0  0  0  0  0  0  0  0  0  0
    4.3441    2.1392    0.0000 C   0  0  0  0  0  0  0  0  0  0  0  0
    2.9007    1.7312    0.0000 C   0  0  0  0  0  0  0  0  0  0  0  0
    2.5323    0.2771    0.0000 C   0  0  0  0  0  0  0  0  0  0  0  0
    1.4572    1.3232    0.0000 C   0  0  0  0  0  0  0  0  0  0  0  0
    1.0889   -0.1309    0.0000 C   0  0  0  0  0  0  0  0  0  0  0  0
    0.0138    0.9151    0.0000 C   0  0  0  0  0  0  0  0  0  0  0  0
   -1.4296    0.5071    0.0000 C   0  0  0  0  0  0  0  0  0  0  0  0
   -2.5047    1.5532    0.0000 O   0  0  0  0  0  0  0  0  0  0  0  0
   -1.7980   -0.9470    0.0000 C   0  0  0  0  0  0  0  0  0  0  0  0
   -2.9765   -0.0190    0.0000 C   0  0  0  0  0  0  0  0  0  0  0  0
  2  1  1  6
  2  3  1  0
  3  4  1  0
  4  5  1  0
  5  6  2  0
  5  7  1  0
  2  8  1  0
  8  9  1  6
  9 10  1  0
 11 10  1  6
 11 12  1  0
 12 13  1  1
 13 14  1  6
 13 15  1  0
 16 15  1  1
 16 17  1  0
 17 18  1  0
 18 19  1  1
 19 20  1  0
 19 21  1  0
 18 22  1  0
 22 23  1  0
 23 24  1  0
 24 25  1  6
 24 26  1  0
 26 27  1  6
 27 28  1  0
 28 29  1  6
 28 30  1  0
 30 31  1  6
 30  8  1  0
 30 11  1  0
 26 12  1  0
 24 16  1  0
M  END
>  <MS_ID>  (599) 
MS0625

>  <SMILES>  (599) 
C[C@H](CCC(=O)O)[C@H]1CC[C@H]2[C@@H]3[C@@H](O)C[C@@H]4C[C@H](N(C)C)CC[C@]4(C)[C@H]3C[C@@H](O)[C@]12C

>  <Structure_dimension>  (599) 
2D

$$$$
MS0626
     RDKit          2D

 40 44  0  0  0  0  0  0  0  0999 V2000
   -0.7210   -4.8232    0.0000 C   0  0  0  0  0  0  0  0  0  0  0  0
   -0.1495   -3.4364    0.0000 C   0  0  0  0  0  0  0  0  0  0  0  0
   -1.0648   -2.2480    0.0000 C   0  0  0  0  0  0  0  0  0  0  0  0
   -2.5516   -2.4465    0.0000 C   0  0  0  0  0  0  0  0  0  0  0  0
   -3.4669   -1.2581    0.0000 C   0  0  0  0  0  0  0  0  0  0  0  0
   -2.8953    0.1288    0.0000 O   0  0  0  0  0  0  0  0  0  0  0  0
   -4.9537   -1.4566    0.0000 O   0  0  0  0  0  0  0  0  0  0  0  0
   -5.8690   -0.2682    0.0000 C   0  0  0  0  0  0  0  0  0  0  0  0
   -5.2974    1.1187    0.0000 O   0  0  0  0  0  0  0  0  0  0  0  0
   -6.2127    2.3071    0.0000 C   0  0  0  0  0  0  0  0  0  0  0  0
   -5.6412    3.6939    0.0000 C   0  0  0  0  0  0  0  0  0  0  0  0
   -4.1544    3.8924    0.0000 O   0  0  0  0  0  0  0  0  0  0  0  0
   -7.6995    2.1086    0.0000 C   0  0  0  0  0  0  0  0  0  0  0  0
   -8.6148    3.2970    0.0000 O   0  0  0  0  0  0  0  0  0  0  0  0
   -8.2711    0.7217    0.0000 C   0  0  0  0  0  0  0  0  0  0  0  0
   -9.7579    0.5233    0.0000 O   0  0  0  0  0  0  0  0  0  0  0  0
   -7.3558   -0.4666    0.0000 C   0  0  0  0  0  0  0  0  0  0  0  0
   -7.9273   -1.8535    0.0000 O   0  0  0  0  0  0  0  0  0  0  0  0
    1.3373   -3.2379    0.0000 C   0  0  0  0  0  0  0  0  0  0  0  0
    2.3718   -4.3241    0.0000 C   0  0  0  0  0  0  0  0  0  0  0  0
    3.7245   -3.6759    0.0000 C   0  0  0  0  0  0  0  0  0  0  0  0
    3.5261   -2.1891    0.0000 C   0  0  0  0  0  0  0  0  0  0  0  0
    4.4982   -1.0468    0.0000 C   0  0  0  0  0  0  0  0  0  0  0  0
    5.9735   -1.3175    0.0000 C   0  0  0  0  0  0  0  0  0  0  0  0
    6.4768   -2.7305    0.0000 O   0  0  0  0  0  0  0  0  0  0  0  0
    6.9457   -0.1751    0.0000 C   0  0  0  0  0  0  0  0  0  0  0  0
    6.4424    1.2380    0.0000 C   0  0  0  0  0  0  0  0  0  0  0  0
    7.4145    2.3803    0.0000 C   0  0  0  0  0  0  0  0  0  0  0  0
    6.9113    3.7934    0.0000 C   0  0  0  0  0  0  0  0  0  0  0  0
    7.8834    4.9357    0.0000 O   0  0  0  0  0  0  0  0  0  0  0  0
    5.4359    4.0641    0.0000 C   0  0  0  0  0  0  0  0  0  0  0  0
    4.4638    2.9217    0.0000 C   0  0  0  0  0  0  0  0  0  0  0  0
    4.9670    1.5087    0.0000 C   0  0  0  0  0  0  0  0  0  0  0  0
    3.4917    1.7794    0.0000 C   0  0  0  0  0  0  0  0  0  0  0  0
    3.9949    0.3663    0.0000 C   0  0  0  0  0  0  0  0  0  0  0  0
    2.5196    0.6370    0.0000 C   0  0  0  0  0  0  0  0  0  0  0  0
    1.5474   -0.5054    0.0000 C   0  0  0  0  0  0  0  0  0  0  0  0
    0.0721   -0.2347    0.0000 O   0  0  0  0  0  0  0  0  0  0  0  0
    2.0507   -1.9184    0.0000 C   0  0  0  0  0  0  0  0  0  0  0  0
    0.5551   -1.8034    0.0000 C   0  0  0  0  0  0  0  0  0  0  0  0
  2  1  1  6
  2  3  1  0
  3  4  1  0
  4  5  1  0
  5  6  2  0
  5  7  1  0
  8  7  1  6
  8  9  1  0
  9 10  1  0
 10 11  1  1
 11 12  1  0
 10 13  1  0
 13 14  1  6
 13 15  1  0
 15 16  1  1
 15 17  1  0
 17 18  1  6
  2 19  1  0
 19 20  1  6
 20 21  1  0
 22 21  1  6
 22 23  1  0
 23 24  1  1
 24 25  1  1
 24 26  1  0
 27 26  1  1
 27 28  1  0
 28 29  1  0
 29 30  1  1
 29 31  1  0
 31 32  1  0
 32 33  1  0
 33 34  1  6
 33 35  1  0
 35 36  1  6
 36 37  1  0
 37 38  1  1
 37 39  1  0
 39 40  1  6
 17  8  1  0
 39 19  1  0
 39 22  1  0
 35 23  1  0
 33 27  1  0
M  END
>  <MS_ID>  (600) 
MS0626

>  <SMILES>  (600) 
C[C@H](CCC(=O)O[C@H]1O[C@H](CO)[C@@H](O)[C@H](O)[C@H]1O)[C@H]1CC[C@H]2[C@@H]3[C@H](O)C[C@@H]4C[C@H](O)CC[C@]4(C)[C@H]3C[C@H](O)[C@]12C

>  <Structure_dimension>  (600) 
2D

$$$$
MS0627
     RDKit          2D

 33 36  0  0  0  0  0  0  0  0999 V2000
   -3.3094   -3.6711    0.0000 C   0  0  0  0  0  0  0  0  0  0  0  0
   -2.4155   -2.4665    0.0000 C   0  0  0  0  0  0  0  0  0  0  0  0
   -3.0118   -1.0901    0.0000 C   0  0  0  0  0  0  0  0  0  0  0  0
   -4.5019   -0.9183    0.0000 C   0  0  0  0  0  0  0  0  0  0  0  0
   -5.0982    0.4581    0.0000 C   0  0  0  0  0  0  0  0  0  0  0  0
   -4.2043    1.6627    0.0000 O   0  0  0  0  0  0  0  0  0  0  0  0
   -6.5883    0.6300    0.0000 C   0  0  0  0  0  0  0  0  0  0  0  0
   -7.1845    2.0064    0.0000 C   0  0  0  0  0  0  0  0  0  0  0  0
   -5.8081    2.6026    0.0000 C   0  0  0  0  0  0  0  0  0  0  0  0
   -8.5609    1.4101    0.0000 C   0  0  0  0  0  0  0  0  0  0  0  0
   -7.7808    3.3828    0.0000 O   0  0  0  0  0  0  0  0  0  0  0  0
   -0.9254   -2.6383    0.0000 C   0  0  0  0  0  0  0  0  0  0  0  0
   -0.1885   -3.9449    0.0000 C   0  0  0  0  0  0  0  0  0  0  0  0
    1.2818   -3.6478    0.0000 C   0  0  0  0  0  0  0  0  0  0  0  0
    1.4536   -2.1577    0.0000 C   0  0  0  0  0  0  0  0  0  0  0  0
    2.6759   -1.2883    0.0000 C   0  0  0  0  0  0  0  0  0  0  0  0
    4.0400   -1.9122    0.0000 C   0  0  0  0  0  0  0  0  0  0  0  0
    4.1818   -3.4055    0.0000 O   0  0  0  0  0  0  0  0  0  0  0  0
    5.2624   -1.0428    0.0000 C   0  0  0  0  0  0  0  0  0  0  0  0
    5.1206    0.4505    0.0000 C   0  0  0  0  0  0  0  0  0  0  0  0
    6.3430    1.3199    0.0000 C   0  0  0  0  0  0  0  0  0  0  0  0
    6.2013    2.8132    0.0000 C   0  0  0  0  0  0  0  0  0  0  0  0
    7.4236    3.6826    0.0000 O   0  0  0  0  0  0  0  0  0  0  0  0
    4.8372    3.4371    0.0000 C   0  0  0  0  0  0  0  0  0  0  0  0
    3.6148    2.5677    0.0000 C   0  0  0  0  0  0  0  0  0  0  0  0
    3.7565    1.0744    0.0000 C   0  0  0  0  0  0  0  0  0  0  0  0
    2.3925    1.6983    0.0000 C   0  0  0  0  0  0  0  0  0  0  0  0
    2.5342    0.2050    0.0000 C   0  0  0  0  0  0  0  0  0  0  0  0
    1.1701    0.8289    0.0000 C   0  0  0  0  0  0  0  0  0  0  0  0
   -0.0523   -0.0405    0.0000 C   0  0  0  0  0  0  0  0  0  0  0  0
   -1.4164    0.5834    0.0000 O   0  0  0  0  0  0  0  0  0  0  0  0
    0.0895   -1.5338    0.0000 C   0  0  0  0  0  0  0  0  0  0  0  0
   -1.3324   -1.0559    0.0000 C   0  0  0  0  0  0  0  0  0  0  0  0
  2  1  1  6
  2  3  1  0
  3  4  1  0
  4  5  1  0
  5  6  2  0
  5  7  1  0
  7  8  1  0
  8  9  1  0
  8 10  1  0
  8 11  1  0
  2 12  1  0
 12 13  1  6
 13 14  1  0
 15 14  1  6
 15 16  1  0
 16 17  1  1
 17 18  1  1
 17 19  1  0
 20 19  1  1
 20 21  1  0
 21 22  1  0
 22 23  1  1
 22 24  1  0
 24 25  1  0
 25 26  1  0
 26 27  1  6
 26 28  1  0
 28 29  1  6
 29 30  1  0
 30 31  1  1
 30 32  1  0
 32 33  1  6
 32 12  1  0
 32 15  1  0
 28 16  1  0
 26 20  1  0
M  END
>  <MS_ID>  (601) 
MS0627

>  <SMILES>  (601) 
C[C@H](CCC(=O)CC(C)(C)O)[C@H]1CC[C@H]2[C@@H]3[C@H](O)C[C@@H]4C[C@H](O)CC[C@]4(C)[C@H]3C[C@H](O)[C@]12C

>  <Structure_dimension>  (601) 
2D

$$$$
MS0628
     RDKit          2D

 31 34  0  0  0  0  0  0  0  0999 V2000
   -4.0382   -3.1592    0.0000 C   0  0  0  0  0  0  0  0  0  0  0  0
   -3.0416   -2.0381    0.0000 C   0  0  0  0  0  0  0  0  0  0  0  0
   -3.5143   -0.6145    0.0000 C   0  0  0  0  0  0  0  0  0  0  0  0
   -4.9835   -0.3121    0.0000 C   0  0  0  0  0  0  0  0  0  0  0  0
   -5.4561    1.1115    0.0000 C   0  0  0  0  0  0  0  0  0  0  0  0
   -4.4596    2.2326    0.0000 O   0  0  0  0  0  0  0  0  0  0  0  0
   -6.9253    1.4140    0.0000 O   0  0  0  0  0  0  0  0  0  0  0  0
   -7.3980    2.8376    0.0000 C   0  0  0  0  0  0  0  0  0  0  0  0
   -8.8672    3.1400    0.0000 O   0  0  0  0  0  0  0  0  0  0  0  0
   -1.5724   -2.3406    0.0000 C   0  0  0  0  0  0  0  0  0  0  0  0
   -0.9536   -3.7070    0.0000 C   0  0  0  0  0  0  0  0  0  0  0  0
    0.5372   -3.5406    0.0000 C   0  0  0  0  0  0  0  0  0  0  0  0
    0.8396   -2.0714    0.0000 C   0  0  0  0  0  0  0  0  0  0  0  0
    2.1338   -1.3131    0.0000 C   0  0  0  0  0  0  0  0  0  0  0  0
    3.4377   -2.0548    0.0000 C   0  0  0  0  0  0  0  0  0  0  0  0
    3.4473   -3.5547    0.0000 O   0  0  0  0  0  0  0  0  0  0  0  0
    4.7319   -1.2965    0.0000 C   0  0  0  0  0  0  0  0  0  0  0  0
    4.7223    0.2035    0.0000 C   0  0  0  0  0  0  0  0  0  0  0  0
    6.0165    0.9618    0.0000 C   0  0  0  0  0  0  0  0  0  0  0  0
    6.0069    2.4618    0.0000 C   0  0  0  0  0  0  0  0  0  0  0  0
    7.3011    3.2201    0.0000 O   0  0  0  0  0  0  0  0  0  0  0  0
    4.7030    3.2034    0.0000 C   0  0  0  0  0  0  0  0  0  0  0  0
    3.4088    2.4451    0.0000 C   0  0  0  0  0  0  0  0  0  0  0  0
    3.4184    0.9452    0.0000 C   0  0  0  0  0  0  0  0  0  0  0  0
    2.1146    1.6868    0.0000 C   0  0  0  0  0  0  0  0  0  0  0  0
    2.1242    0.1869    0.0000 C   0  0  0  0  0  0  0  0  0  0  0  0
    0.8204    0.9285    0.0000 C   0  0  0  0  0  0  0  0  0  0  0  0
   -0.4738    0.1702    0.0000 C   0  0  0  0  0  0  0  0  0  0  0  0
   -1.7776    0.9119    0.0000 O   0  0  0  0  0  0  0  0  0  0  0  0
   -0.4642   -1.3298    0.0000 C   0  0  0  0  0  0  0  0  0  0  0  0
   -1.8384   -0.7284    0.0000 C   0  0  0  0  0  0  0  0  0  0  0  0
  2  1  1  6
  2  3  1  0
  3  4  1  0
  4  5  1  0
  5  6  2  0
  5  7  1  0
  7  8  1  0
  8  9  1  0
  2 10  1  0
 10 11  1  6
 11 12  1  0
 13 12  1  6
 13 14  1  0
 14 15  1  1
 15 16  1  1
 15 17  1  0
 18 17  1  1
 18 19  1  0
 19 20  1  0
 20 21  1  1
 20 22  1  0
 22 23  1  0
 23 24  1  0
 24 25  1  6
 24 26  1  0
 26 27  1  6
 27 28  1  0
 28 29  1  1
 28 30  1  0
 30 31  1  6
 30 10  1  0
 30 13  1  0
 26 14  1  0
 24 18  1  0
M  END
>  <MS_ID>  (602) 
MS0628

>  <SMILES>  (602) 
C[C@H](CCC(=O)OCO)[C@H]1CC[C@H]2[C@@H]3[C@H](O)C[C@@H]4C[C@H](O)CC[C@]4(C)[C@H]3C[C@H](O)[C@]12C

>  <Structure_dimension>  (602) 
2D

$$$$
MS0629
     RDKit          2D

 36 39  0  0  0  0  0  0  0  0999 V2000
   -1.9689   -5.2839    0.0000 C   0  0  0  0  0  0  0  0  0  0  0  0
   -1.4990   -3.8594    0.0000 C   0  0  0  0  0  0  0  0  0  0  0  0
   -2.4977   -2.7402    0.0000 C   0  0  0  0  0  0  0  0  0  0  0  0
   -3.9663   -3.0455    0.0000 C   0  0  0  0  0  0  0  0  0  0  0  0
   -4.9650   -1.9263    0.0000 C   0  0  0  0  0  0  0  0  0  0  0  0
   -6.4336   -2.2316    0.0000 O   0  0  0  0  0  0  0  0  0  0  0  0
   -4.4950   -0.5018    0.0000 O   0  0  0  0  0  0  0  0  0  0  0  0
   -5.4937    0.6174    0.0000 C   0  0  0  0  0  0  0  0  0  0  0  0
   -6.9623    0.3121    0.0000 O   0  0  0  0  0  0  0  0  0  0  0  0
   -5.0238    2.0419    0.0000 N   0  0  0  0  0  0  0  0  0  0  0  0
   -6.0225    3.1611    0.0000 C   0  0  0  0  0  0  0  0  0  0  0  0
   -5.5526    4.5856    0.0000 C   0  0  0  0  0  0  0  0  0  0  0  0
   -4.0840    4.8908    0.0000 O   0  0  0  0  0  0  0  0  0  0  0  0
   -6.5513    5.7048    0.0000 O   0  0  0  0  0  0  0  0  0  0  0  0
   -0.0304   -3.5542    0.0000 C   0  0  0  0  0  0  0  0  0  0  0  0
    1.0798   -4.5628    0.0000 C   0  0  0  0  0  0  0  0  0  0  0  0
    2.3822   -3.8187    0.0000 C   0  0  0  0  0  0  0  0  0  0  0  0
    2.0769   -2.3501    0.0000 C   0  0  0  0  0  0  0  0  0  0  0  0
    2.9640   -1.1405    0.0000 C   0  0  0  0  0  0  0  0  0  0  0  0
    4.4551   -1.3040    0.0000 C   0  0  0  0  0  0  0  0  0  0  0  0
    5.0591   -2.6770    0.0000 O   0  0  0  0  0  0  0  0  0  0  0  0
    5.3422   -0.0944    0.0000 C   0  0  0  0  0  0  0  0  0  0  0  0
    6.8333   -0.2579    0.0000 O   0  0  0  0  0  0  0  0  0  0  0  0
    4.7383    1.2786    0.0000 C   0  0  0  0  0  0  0  0  0  0  0  0
    5.6254    2.4882    0.0000 C   0  0  0  0  0  0  0  0  0  0  0  0
    5.0214    3.8612    0.0000 C   0  0  0  0  0  0  0  0  0  0  0  0
    5.9085    5.0708    0.0000 O   0  0  0  0  0  0  0  0  0  0  0  0
    3.5303    4.0247    0.0000 C   0  0  0  0  0  0  0  0  0  0  0  0
    2.6432    2.8151    0.0000 C   0  0  0  0  0  0  0  0  0  0  0  0
    3.2472    1.4421    0.0000 C   0  0  0  0  0  0  0  0  0  0  0  0
    1.7561    1.6056    0.0000 C   0  0  0  0  0  0  0  0  0  0  0  0
    2.3601    0.2325    0.0000 C   0  0  0  0  0  0  0  0  0  0  0  0
    0.8690    0.3960    0.0000 C   0  0  0  0  0  0  0  0  0  0  0  0
   -0.0181   -0.8135    0.0000 C   0  0  0  0  0  0  0  0  0  0  0  0
    0.5859   -2.1866    0.0000 C   0  0  0  0  0  0  0  0  0  0  0  0
   -0.9141   -2.1799    0.0000 C   0  0  0  0  0  0  0  0  0  0  0  0
  2  1  1  6
  2  3  1  0
  3  4  1  0
  4  5  1  0
  5  6  2  0
  5  7  1  0
  7  8  1  0
  8  9  2  0
  8 10  1  0
 10 11  1  0
 11 12  1  0
 12 13  2  0
 12 14  1  0
  2 15  1  0
 15 16  1  6
 16 17  1  0
 18 17  1  6
 18 19  1  0
 19 20  1  1
 20 21  1  1
 20 22  1  0
 22 23  1  1
 22 24  1  0
 24 25  1  1
 25 26  1  0
 26 27  1  1
 26 28  1  0
 28 29  1  0
 29 30  1  0
 30 31  1  6
 30 32  1  0
 32 33  1  6
 33 34  1  0
 34 35  1  0
 35 36  1  6
 35 15  1  0
 35 18  1  0
 32 19  1  0
 30 24  1  0
M  END
>  <MS_ID>  (603) 
MS0629

>  <SMILES>  (603) 
C[C@H](CCC(=O)OC(=O)NCC(=O)O)[C@H]1CC[C@H]2[C@@H]3[C@H](O)[C@H](O)[C@@H]4C[C@H](O)CC[C@]4(C)[C@H]3CC[C@]12C

>  <Structure_dimension>  (603) 
2D

$$$$
MS0630
     RDKit          2D

 36 40  0  0  0  0  0  0  0  0999 V2000
   -1.3594   -4.5884    0.0000 C   0  0  0  0  0  0  0  0  0  0  0  0
   -0.7492   -3.2182    0.0000 C   0  0  0  0  0  0  0  0  0  0  0  0
   -1.6307   -2.0046    0.0000 C   0  0  0  0  0  0  0  0  0  0  0  0
   -3.1225   -2.1613    0.0000 C   0  0  0  0  0  0  0  0  0  0  0  0
   -4.0041   -0.9477    0.0000 C   0  0  0  0  0  0  0  0  0  0  0  0
   -3.3939    0.4226    0.0000 O   0  0  0  0  0  0  0  0  0  0  0  0
   -5.4959   -1.1043    0.0000 N   0  0  0  0  0  0  0  0  0  0  0  0
   -6.3775    0.1092    0.0000 C   0  0  0  0  0  0  0  0  0  0  0  0
   -7.8693   -0.0474    0.0000 C   0  0  0  0  0  0  0  0  0  0  0  0
   -8.7509    1.1661    0.0000 C   0  0  0  0  0  0  0  0  0  0  0  0
  -10.2509    1.1662    0.0000 C   0  0  0  0  0  0  0  0  0  0  0  0
  -10.7143    2.5929    0.0000 N   0  0  0  0  0  0  0  0  0  0  0  0
   -9.5007    3.4745    0.0000 C   0  0  0  0  0  0  0  0  0  0  0  0
   -8.2873    2.5927    0.0000 N   0  0  0  0  0  0  0  0  0  0  0  0
    0.7426   -3.0615    0.0000 C   0  0  0  0  0  0  0  0  0  0  0  0
    1.7463   -4.1763    0.0000 C   0  0  0  0  0  0  0  0  0  0  0  0
    3.1166   -3.5662    0.0000 C   0  0  0  0  0  0  0  0  0  0  0  0
    2.9599   -2.0745    0.0000 C   0  0  0  0  0  0  0  0  0  0  0  0
    3.9637   -0.9598    0.0000 C   0  0  0  0  0  0  0  0  0  0  0  0
    5.4309   -1.2718    0.0000 C   0  0  0  0  0  0  0  0  0  0  0  0
    5.8943   -2.6984    0.0000 O   0  0  0  0  0  0  0  0  0  0  0  0
    6.4347   -0.1571    0.0000 C   0  0  0  0  0  0  0  0  0  0  0  0
    5.9713    1.2695    0.0000 C   0  0  0  0  0  0  0  0  0  0  0  0
    6.9750    2.3841    0.0000 C   0  0  0  0  0  0  0  0  0  0  0  0
    6.5116    3.8107    0.0000 C   0  0  0  0  0  0  0  0  0  0  0  0
    7.5154    4.9254    0.0000 O   0  0  0  0  0  0  0  0  0  0  0  0
    5.0444    4.1227    0.0000 C   0  0  0  0  0  0  0  0  0  0  0  0
    4.0406    3.0081    0.0000 C   0  0  0  0  0  0  0  0  0  0  0  0
    4.5041    1.5815    0.0000 C   0  0  0  0  0  0  0  0  0  0  0  0
    3.0369    1.8934    0.0000 C   0  0  0  0  0  0  0  0  0  0  0  0
    3.5003    0.4668    0.0000 C   0  0  0  0  0  0  0  0  0  0  0  0
    2.0331    0.7788    0.0000 C   0  0  0  0  0  0  0  0  0  0  0  0
    1.0293   -0.3359    0.0000 C   0  0  0  0  0  0  0  0  0  0  0  0
   -0.4379   -0.0239    0.0000 O   0  0  0  0  0  0  0  0  0  0  0  0
    1.4927   -1.7625    0.0000 C   0  0  0  0  0  0  0  0  0  0  0  0
    0.0010   -1.6056    0.0000 C   0  0  0  0  0  0  0  0  0  0  0  0
  2  1  1  6
  2  3  1  0
  3  4  1  0
  4  5  1  0
  5  6  2  0
  5  7  1  0
  7  8  1  0
  8  9  1  0
  9 10  1  0
 10 11  2  0
 11 12  1  0
 12 13  1  0
 13 14  2  0
  2 15  1  0
 15 16  1  6
 16 17  1  0
 18 17  1  6
 18 19  1  0
 19 20  1  1
 20 21  1  1
 20 22  1  0
 23 22  1  1
 23 24  1  0
 24 25  1  0
 25 26  1  1
 25 27  1  0
 27 28  1  0
 28 29  1  0
 29 30  1  6
 29 31  1  0
 31 32  1  6
 32 33  1  0
 33 34  1  1
 33 35  1  0
 35 36  1  6
 14 10  1  0
 35 15  1  0
 35 18  1  0
 31 19  1  0
 29 23  1  0
M  END
>  <MS_ID>  (604) 
MS0630

>  <SMILES>  (604) 
C[C@H](CCC(=O)NCCc1c[nH]cn1)[C@H]1CC[C@H]2[C@@H]3[C@H](O)C[C@@H]4C[C@H](O)CC[C@]4(C)[C@H]3C[C@H](O)[C@]12C

>  <Structure_dimension>  (604) 
2D

$$$$
MS0631
     RDKit          2D

 30 33  0  0  0  0  0  0  0  0999 V2000
   -3.5909   -3.2894    0.0000 C   0  0  0  0  0  0  0  0  0  0  0  0
   -2.6685   -2.1066    0.0000 C   0  0  0  0  0  0  0  0  0  0  0  0
   -3.2316   -0.7163    0.0000 C   0  0  0  0  0  0  0  0  0  0  0  0
   -4.7172   -0.5088    0.0000 C   0  0  0  0  0  0  0  0  0  0  0  0
   -5.2803    0.8815    0.0000 C   0  0  0  0  0  0  0  0  0  0  0  0
   -4.3578    2.0643    0.0000 O   0  0  0  0  0  0  0  0  0  0  0  0
   -6.7659    1.0889    0.0000 C   0  0  0  0  0  0  0  0  0  0  0  0
   -7.3290    2.4792    0.0000 C   0  0  0  0  0  0  0  0  0  0  0  0
   -8.8146    2.6867    0.0000 O   0  0  0  0  0  0  0  0  0  0  0  0
   -1.1829   -2.3140    0.0000 C   0  0  0  0  0  0  0  0  0  0  0  0
   -0.4775   -3.6378    0.0000 C   0  0  0  0  0  0  0  0  0  0  0  0
    0.9995   -3.3760    0.0000 C   0  0  0  0  0  0  0  0  0  0  0  0
    1.2069   -1.8905    0.0000 C   0  0  0  0  0  0  0  0  0  0  0  0
    2.4498   -1.0506    0.0000 C   0  0  0  0  0  0  0  0  0  0  0  0
    3.7985   -1.7070    0.0000 C   0  0  0  0  0  0  0  0  0  0  0  0
    3.9045   -3.2032    0.0000 O   0  0  0  0  0  0  0  0  0  0  0  0
    5.0414   -0.8671    0.0000 C   0  0  0  0  0  0  0  0  0  0  0  0
    4.9354    0.6292    0.0000 C   0  0  0  0  0  0  0  0  0  0  0  0
    6.1782    1.4691    0.0000 C   0  0  0  0  0  0  0  0  0  0  0  0
    6.0723    2.9653    0.0000 C   0  0  0  0  0  0  0  0  0  0  0  0
    4.7235    3.6217    0.0000 C   0  0  0  0  0  0  0  0  0  0  0  0
    3.4807    2.7818    0.0000 C   0  0  0  0  0  0  0  0  0  0  0  0
    3.5866    1.2856    0.0000 C   0  0  0  0  0  0  0  0  0  0  0  0
    2.2379    1.9419    0.0000 C   0  0  0  0  0  0  0  0  0  0  0  0
    2.3438    0.4457    0.0000 C   0  0  0  0  0  0  0  0  0  0  0  0
    0.9950    1.1020    0.0000 C   0  0  0  0  0  0  0  0  0  0  0  0
   -0.2478    0.2622    0.0000 C   0  0  0  0  0  0  0  0  0  0  0  0
   -1.5965    0.9185    0.0000 O   0  0  0  0  0  0  0  0  0  0  0  0
   -0.1418   -1.2341    0.0000 C   0  0  0  0  0  0  0  0  0  0  0  0
   -1.5518   -0.7223    0.0000 C   0  0  0  0  0  0  0  0  0  0  0  0
  2  1  1  6
  2  3  1  0
  3  4  1  0
  4  5  1  0
  5  6  2  0
  5  7  1  0
  7  8  1  0
  8  9  1  0
  2 10  1  0
 10 11  1  6
 11 12  1  0
 13 12  1  6
 13 14  1  0
 14 15  1  1
 15 16  1  1
 15 17  1  0
 18 17  1  1
 18 19  1  0
 19 20  1  0
 20 21  1  0
 21 22  1  0
 22 23  1  0
 23 24  1  6
 23 25  1  0
 25 26  1  6
 26 27  1  0
 27 28  1  1
 27 29  1  0
 29 30  1  6
 29 10  1  0
 29 13  1  0
 25 14  1  0
 23 18  1  0
M  END
>  <MS_ID>  (605) 
MS0631

>  <SMILES>  (605) 
C[C@H](CCC(=O)CCO)[C@H]1CC[C@H]2[C@@H]3[C@H](O)C[C@@H]4CCCC[C@]4(C)[C@H]3C[C@H](O)[C@]12C

>  <Structure_dimension>  (605) 
2D

$$$$
MS0632
     RDKit          2D

 30 33  0  0  0  0  0  0  0  0999 V2000
   -5.0361   -2.2421    0.0000 C   0  0  0  0  0  0  0  0  0  0  0  0
   -3.9151   -1.2454    0.0000 C   0  0  0  0  0  0  0  0  0  0  0  0
   -4.2177    0.2237    0.0000 C   0  0  0  0  0  0  0  0  0  0  0  0
   -5.6413    0.6963    0.0000 C   0  0  0  0  0  0  0  0  0  0  0  0
   -5.9439    2.1654    0.0000 C   0  0  0  0  0  0  0  0  0  0  0  0
   -4.8228    3.1621    0.0000 O   0  0  0  0  0  0  0  0  0  0  0  0
   -7.3675    2.6380    0.0000 O   0  0  0  0  0  0  0  0  0  0  0  0
   -2.4915   -1.7180    0.0000 C   0  0  0  0  0  0  0  0  0  0  0  0
   -2.0370   -3.1475    0.0000 C   0  0  0  0  0  0  0  0  0  0  0  0
   -0.5370   -3.1570    0.0000 C   0  0  0  0  0  0  0  0  0  0  0  0
   -0.0645   -1.7333    0.0000 C   0  0  0  0  0  0  0  0  0  0  0  0
    1.3097   -1.1319    0.0000 C   0  0  0  0  0  0  0  0  0  0  0  0
    2.5176   -2.0213    0.0000 C   0  0  0  0  0  0  0  0  0  0  0  0
    2.3514   -3.5120    0.0000 C   0  0  0  0  0  0  0  0  0  0  0  0
    3.5593   -4.4014    0.0000 O   0  0  0  0  0  0  0  0  0  0  0  0
    3.8918   -1.4198    0.0000 C   0  0  0  0  0  0  0  0  0  0  0  0
    4.0580    0.0709    0.0000 C   0  0  0  0  0  0  0  0  0  0  0  0
    5.4321    0.6723    0.0000 C   0  0  0  0  0  0  0  0  0  0  0  0
    5.5984    2.1631    0.0000 C   0  0  0  0  0  0  0  0  0  0  0  0
    6.9725    2.7645    0.0000 O   0  0  0  0  0  0  0  0  0  0  0  0
    4.3904    3.0524    0.0000 C   0  0  0  0  0  0  0  0  0  0  0  0
    3.0163    2.4510    0.0000 C   0  0  0  0  0  0  0  0  0  0  0  0
    2.8501    0.9603    0.0000 C   0  0  0  0  0  0  0  0  0  0  0  0
    1.6421    1.8496    0.0000 C   0  0  0  0  0  0  0  0  0  0  0  0
    1.4759    0.3588    0.0000 C   0  0  0  0  0  0  0  0  0  0  0  0
    0.2680    1.2482    0.0000 C   0  0  0  0  0  0  0  0  0  0  0  0
   -1.1062    0.6468    0.0000 C   0  0  0  0  0  0  0  0  0  0  0  0
   -2.3141    1.5361    0.0000 O   0  0  0  0  0  0  0  0  0  0  0  0
   -1.2724   -0.8440    0.0000 C   0  0  0  0  0  0  0  0  0  0  0  0
   -2.5667   -0.0858    0.0000 C   0  0  0  0  0  0  0  0  0  0  0  0
  2  1  1  6
  2  3  1  0
  3  4  1  0
  4  5  1  0
  5  6  2  0
  5  7  1  0
  2  8  1  0
  8  9  1  6
  9 10  1  0
 11 10  1  6
 11 12  1  0
 12 13  1  1
 13 14  1  6
 14 15  1  0
 13 16  1  0
 17 16  1  1
 17 18  1  0
 18 19  1  0
 19 20  1  1
 19 21  1  0
 21 22  1  0
 22 23  1  0
 23 24  1  6
 23 25  1  0
 25 26  1  6
 26 27  1  0
 27 28  1  1
 27 29  1  0
 29 30  1  6
 29  8  1  0
 29 11  1  0
 25 12  1  0
 23 17  1  0
M  END
>  <MS_ID>  (606) 
MS0632

>  <SMILES>  (606) 
C[C@H](CCC(=O)O)[C@H]1CC[C@H]2[C@@H]3[C@@H](CO)C[C@@H]4C[C@H](O)CC[C@]4(C)[C@H]3C[C@H](O)[C@]12C

>  <Structure_dimension>  (606) 
2D

$$$$
MS0633
     RDKit          2D

 32 35  0  0  0  0  0  0  0  0999 V2000
   -3.1421   -3.6694    0.0000 C   0  0  0  0  0  0  0  0  0  0  0  0
   -2.2628   -2.4541    0.0000 C   0  0  0  0  0  0  0  0  0  0  0  0
   -2.8756   -1.0850    0.0000 C   0  0  0  0  0  0  0  0  0  0  0  0
   -4.3676   -0.9311    0.0000 C   0  0  0  0  0  0  0  0  0  0  0  0
   -4.9804    0.4380    0.0000 C   0  0  0  0  0  0  0  0  0  0  0  0
   -4.1011    1.6532    0.0000 O   0  0  0  0  0  0  0  0  0  0  0  0
   -6.4725    0.5919    0.0000 C   0  0  0  0  0  0  0  0  0  0  0  0
   -7.0853    1.9610    0.0000 C   0  0  0  0  0  0  0  0  0  0  0  0
   -8.5774    2.1149    0.0000 C   0  0  0  0  0  0  0  0  0  0  0  0
   -9.4567    0.8996    0.0000 O   0  0  0  0  0  0  0  0  0  0  0  0
   -9.1901    3.4840    0.0000 O   0  0  0  0  0  0  0  0  0  0  0  0
   -0.7707   -2.6080    0.0000 C   0  0  0  0  0  0  0  0  0  0  0  0
   -0.0182   -3.9056    0.0000 C   0  0  0  0  0  0  0  0  0  0  0  0
    1.4484   -3.5909    0.0000 C   0  0  0  0  0  0  0  0  0  0  0  0
    1.6023   -2.0988    0.0000 C   0  0  0  0  0  0  0  0  0  0  0  0
    2.8141   -1.2147    0.0000 C   0  0  0  0  0  0  0  0  0  0  0  0
    4.1856   -1.8222    0.0000 C   0  0  0  0  0  0  0  0  0  0  0  0
    4.3453   -3.3136    0.0000 O   0  0  0  0  0  0  0  0  0  0  0  0
    5.3974   -0.9381    0.0000 C   0  0  0  0  0  0  0  0  0  0  0  0
    5.2377    0.5533    0.0000 C   0  0  0  0  0  0  0  0  0  0  0  0
    6.4495    1.4374    0.0000 C   0  0  0  0  0  0  0  0  0  0  0  0
    6.2898    2.9289    0.0000 C   0  0  0  0  0  0  0  0  0  0  0  0
    7.5016    3.8129    0.0000 O   0  0  0  0  0  0  0  0  0  0  0  0
    4.9183    3.5363    0.0000 C   0  0  0  0  0  0  0  0  0  0  0  0
    3.7065    2.6522    0.0000 C   0  0  0  0  0  0  0  0  0  0  0  0
    3.8662    1.1608    0.0000 C   0  0  0  0  0  0  0  0  0  0  0  0
    2.4947    1.7682    0.0000 C   0  0  0  0  0  0  0  0  0  0  0  0
    2.6544    0.2767    0.0000 C   0  0  0  0  0  0  0  0  0  0  0  0
    1.2829    0.8842    0.0000 C   0  0  0  0  0  0  0  0  0  0  0  0
    0.0711    0.0001    0.0000 C   0  0  0  0  0  0  0  0  0  0  0  0
    0.2308   -1.4914    0.0000 C   0  0  0  0  0  0  0  0  0  0  0  0
   -1.1967   -1.0306    0.0000 C   0  0  0  0  0  0  0  0  0  0  0  0
  2  1  1  6
  2  3  1  0
  3  4  1  0
  4  5  1  0
  5  6  2  0
  5  7  1  0
  7  8  1  0
  8  9  1  0
  9 10  2  0
  9 11  1  0
  2 12  1  0
 12 13  1  6
 13 14  1  0
 15 14  1  6
 15 16  1  0
 16 17  1  1
 17 18  1  1
 17 19  1  0
 20 19  1  1
 20 21  1  0
 21 22  1  0
 22 23  2  0
 22 24  1  0
 24 25  1  0
 25 26  1  0
 26 27  1  6
 26 28  1  0
 28 29  1  6
 29 30  1  0
 30 31  1  0
 31 32  1  6
 31 12  1  0
 31 15  1  0
 28 16  1  0
 26 20  1  0
M  END
>  <MS_ID>  (607) 
MS0633

>  <SMILES>  (607) 
C[C@H](CCC(=O)CCC(=O)O)[C@H]1CC[C@H]2[C@@H]3[C@H](O)C[C@@H]4CC(=O)CC[C@]4(C)[C@H]3CC[C@]12C

>  <Structure_dimension>  (607) 
2D

$$$$
MS0634
     RDKit          2D

 31 34  0  0  0  0  0  0  0  0999 V2000
   -2.9977   -3.6783    0.0000 C   0  0  0  0  0  0  0  0  0  0  0  0
   -2.1750   -2.4240    0.0000 C   0  0  0  0  0  0  0  0  0  0  0  0
   -2.8500   -1.0844    0.0000 C   0  0  0  0  0  0  0  0  0  0  0  0
   -4.3475   -0.9991    0.0000 C   0  0  0  0  0  0  0  0  0  0  0  0
   -5.0224    0.3405    0.0000 C   0  0  0  0  0  0  0  0  0  0  0  0
   -4.1998    1.5947    0.0000 O   0  0  0  0  0  0  0  0  0  0  0  0
   -6.5200    0.4258    0.0000 O   0  0  0  0  0  0  0  0  0  0  0  0
   -7.1949    1.7653    0.0000 C   0  0  0  0  0  0  0  0  0  0  0  0
   -8.6925    1.8506    0.0000 C   0  0  0  0  0  0  0  0  0  0  0  0
   -9.3674    3.1902    0.0000 N   0  0  0  0  0  0  0  0  0  0  0  0
   -0.6775   -2.5093    0.0000 C   0  0  0  0  0  0  0  0  0  0  0  0
    0.1338   -3.7710    0.0000 C   0  0  0  0  0  0  0  0  0  0  0  0
    1.5844   -3.3894    0.0000 C   0  0  0  0  0  0  0  0  0  0  0  0
    1.6697   -1.8918    0.0000 C   0  0  0  0  0  0  0  0  0  0  0  0
    2.8397   -0.9531    0.0000 C   0  0  0  0  0  0  0  0  0  0  0  0
    4.2376   -1.4970    0.0000 C   0  0  0  0  0  0  0  0  0  0  0  0
    4.4655   -2.9796    0.0000 O   0  0  0  0  0  0  0  0  0  0  0  0
    5.4076   -0.5583    0.0000 C   0  0  0  0  0  0  0  0  0  0  0  0
    5.1797    0.9243    0.0000 C   0  0  0  0  0  0  0  0  0  0  0  0
    6.3497    1.8629    0.0000 C   0  0  0  0  0  0  0  0  0  0  0  0
    6.1217    3.3455    0.0000 C   0  0  0  0  0  0  0  0  0  0  0  0
    4.7238    3.8894    0.0000 C   0  0  0  0  0  0  0  0  0  0  0  0
    3.5538    2.9507    0.0000 C   0  0  0  0  0  0  0  0  0  0  0  0
    3.7818    1.4682    0.0000 C   0  0  0  0  0  0  0  0  0  0  0  0
    2.3839    2.0121    0.0000 C   0  0  0  0  0  0  0  0  0  0  0  0
    2.6118    0.5295    0.0000 C   0  0  0  0  0  0  0  0  0  0  0  0
    1.2139    1.0734    0.0000 C   0  0  0  0  0  0  0  0  0  0  0  0
    0.0439    0.1347    0.0000 C   0  0  0  0  0  0  0  0  0  0  0  0
   -1.3540    0.6786    0.0000 O   0  0  0  0  0  0  0  0  0  0  0  0
    0.2718   -1.3479    0.0000 C   0  0  0  0  0  0  0  0  0  0  0  0
   -1.1753   -0.9531    0.0000 C   0  0  0  0  0  0  0  0  0  0  0  0
  2  1  1  6
  2  3  1  0
  3  4  1  0
  4  5  1  0
  5  6  2  0
  5  7  1  0
  7  8  1  0
  8  9  1  0
  9 10  1  0
  2 11  1  0
 11 12  1  6
 12 13  1  0
 14 13  1  6
 14 15  1  0
 15 16  1  1
 16 17  1  1
 16 18  1  0
 19 18  1  1
 19 20  1  0
 20 21  1  0
 21 22  1  0
 22 23  1  0
 23 24  1  0
 24 25  1  6
 24 26  1  0
 26 27  1  6
 27 28  1  0
 28 29  1  6
 28 30  1  0
 30 31  1  6
 30 11  1  0
 30 14  1  0
 26 15  1  0
 24 19  1  0
M  END
>  <MS_ID>  (608) 
MS0634

>  <SMILES>  (608) 
C[C@H](CCC(=O)OCCN)[C@H]1CC[C@H]2[C@@H]3[C@H](O)C[C@@H]4CCCC[C@]4(C)[C@H]3C[C@@H](O)[C@]12C

>  <Structure_dimension>  (608) 
2D

$$$$
MS0635
     RDKit          2D

 35 39  0  0  0  0  0  0  0  0999 V2000
   -1.6577   -4.6151    0.0000 C   0  0  0  0  0  0  0  0  0  0  0  0
   -0.9878   -3.2730    0.0000 C   0  0  0  0  0  0  0  0  0  0  0  0
   -1.8152   -2.0218    0.0000 C   0  0  0  0  0  0  0  0  0  0  0  0
   -3.3124   -2.1127    0.0000 C   0  0  0  0  0  0  0  0  0  0  0  0
   -4.1398   -0.8615    0.0000 C   0  0  0  0  0  0  0  0  0  0  0  0
   -3.4698    0.4806    0.0000 O   0  0  0  0  0  0  0  0  0  0  0  0
   -5.6370   -0.9524    0.0000 C   0  0  0  0  0  0  0  0  0  0  0  0
   -6.4643    0.2988    0.0000 C   0  0  0  0  0  0  0  0  0  0  0  0
   -5.7944    1.6409    0.0000 C   0  0  0  0  0  0  0  0  0  0  0  0
   -6.6218    2.8921    0.0000 C   0  0  0  0  0  0  0  0  0  0  0  0
   -8.1190    2.8012    0.0000 C   0  0  0  0  0  0  0  0  0  0  0  0
   -8.9464    4.0524    0.0000 O   0  0  0  0  0  0  0  0  0  0  0  0
   -8.7889    1.4591    0.0000 C   0  0  0  0  0  0  0  0  0  0  0  0
   -7.9616    0.2079    0.0000 C   0  0  0  0  0  0  0  0  0  0  0  0
    0.5094   -3.1821    0.0000 C   0  0  0  0  0  0  0  0  0  0  0  0
    1.4630   -4.3400    0.0000 C   0  0  0  0  0  0  0  0  0  0  0  0
    2.8589   -3.7909    0.0000 C   0  0  0  0  0  0  0  0  0  0  0  0
    2.7680   -2.2936    0.0000 C   0  0  0  0  0  0  0  0  0  0  0  0
    3.8198   -1.2243    0.0000 C   0  0  0  0  0  0  0  0  0  0  0  0
    5.2719   -1.6005    0.0000 C   0  0  0  0  0  0  0  0  0  0  0  0
    6.3237   -0.5311    0.0000 C   0  0  0  0  0  0  0  0  0  0  0  0
    5.9235    0.9145    0.0000 C   0  0  0  0  0  0  0  0  0  0  0  0
    6.9754    1.9839    0.0000 C   0  0  0  0  0  0  0  0  0  0  0  0
    6.5752    3.4296    0.0000 C   0  0  0  0  0  0  0  0  0  0  0  0
    7.6270    4.4990    0.0000 O   0  0  0  0  0  0  0  0  0  0  0  0
    5.1231    3.8058    0.0000 C   0  0  0  0  0  0  0  0  0  0  0  0
    4.0713    2.7364    0.0000 C   0  0  0  0  0  0  0  0  0  0  0  0
    4.4715    1.2908    0.0000 C   0  0  0  0  0  0  0  0  0  0  0  0
    3.0194    1.6670    0.0000 C   0  0  0  0  0  0  0  0  0  0  0  0
    3.4196    0.2214    0.0000 C   0  0  0  0  0  0  0  0  0  0  0  0
    1.9676    0.5976    0.0000 C   0  0  0  0  0  0  0  0  0  0  0  0
    0.9157   -0.4718    0.0000 C   0  0  0  0  0  0  0  0  0  0  0  0
   -0.5363   -0.0956    0.0000 O   0  0  0  0  0  0  0  0  0  0  0  0
    1.3159   -1.9174    0.0000 C   0  0  0  0  0  0  0  0  0  0  0  0
   -0.1675   -1.6950    0.0000 C   0  0  0  0  0  0  0  0  0  0  0  0
  2  1  1  6
  2  3  1  0
  3  4  1  0
  4  5  1  0
  5  6  2  0
  5  7  1  0
  7  8  1  0
  8  9  2  0
  9 10  1  0
 10 11  2  0
 11 12  1  0
 11 13  1  0
 13 14  2  0
  2 15  1  0
 15 16  1  6
 16 17  1  0
 18 17  1  6
 18 19  1  0
 19 20  1  1
 20 21  1  0
 22 21  1  1
 22 23  1  0
 23 24  1  0
 24 25  1  1
 24 26  1  0
 26 27  1  0
 27 28  1  0
 28 29  1  6
 28 30  1  0
 30 31  1  6
 31 32  1  0
 32 33  1  1
 32 34  1  0
 34 35  1  6
 14  8  1  0
 34 15  1  0
 34 18  1  0
 30 19  1  0
 28 22  1  0
M  END
>  <MS_ID>  (609) 
MS0635

>  <SMILES>  (609) 
C[C@H](CCC(=O)Cc1ccc(O)cc1)[C@H]1CC[C@H]2[C@@H]3CC[C@@H]4C[C@H](O)CC[C@]4(C)[C@H]3C[C@H](O)[C@]12C

>  <Structure_dimension>  (609) 
2D

$$$$
MS0636
     RDKit          2D

 34 37  0  0  0  0  0  0  0  0999 V2000
   -2.2502   -4.2128    0.0000 C   0  0  0  0  0  0  0  0  0  0  0  0
   -1.5218   -2.9016    0.0000 C   0  0  0  0  0  0  0  0  0  0  0  0
   -2.2931   -1.6151    0.0000 C   0  0  0  0  0  0  0  0  0  0  0  0
   -3.7929   -1.6399    0.0000 C   0  0  0  0  0  0  0  0  0  0  0  0
   -4.5643   -0.3534    0.0000 C   0  0  0  0  0  0  0  0  0  0  0  0
   -3.8359    0.9578    0.0000 O   0  0  0  0  0  0  0  0  0  0  0  0
   -6.0641   -0.3782    0.0000 O   0  0  0  0  0  0  0  0  0  0  0  0
   -6.8355    0.9082    0.0000 C   0  0  0  0  0  0  0  0  0  0  0  0
   -8.3353    0.8834    0.0000 C   0  0  0  0  0  0  0  0  0  0  0  0
   -9.1066    2.1699    0.0000 C   0  0  0  0  0  0  0  0  0  0  0  0
  -10.6064    2.1451    0.0000 C   0  0  0  0  0  0  0  0  0  0  0  0
  -11.3778    3.4316    0.0000 O   0  0  0  0  0  0  0  0  0  0  0  0
   -0.0220   -2.8768    0.0000 C   0  0  0  0  0  0  0  0  0  0  0  0
    0.8797   -4.0755    0.0000 C   0  0  0  0  0  0  0  0  0  0  0  0
    2.2984   -3.5885    0.0000 C   0  0  0  0  0  0  0  0  0  0  0  0
    2.2736   -2.0887    0.0000 C   0  0  0  0  0  0  0  0  0  0  0  0
    3.3716   -1.0667    0.0000 C   0  0  0  0  0  0  0  0  0  0  0  0
    4.8056   -1.5066    0.0000 C   0  0  0  0  0  0  0  0  0  0  0  0
    5.1417   -2.9685    0.0000 O   0  0  0  0  0  0  0  0  0  0  0  0
    5.9036   -0.4846    0.0000 C   0  0  0  0  0  0  0  0  0  0  0  0
    5.5675    0.9773    0.0000 C   0  0  0  0  0  0  0  0  0  0  0  0
    6.6655    1.9992    0.0000 C   0  0  0  0  0  0  0  0  0  0  0  0
    6.3294    3.4611    0.0000 C   0  0  0  0  0  0  0  0  0  0  0  0
    7.4274    4.4831    0.0000 O   0  0  0  0  0  0  0  0  0  0  0  0
    4.8953    3.9010    0.0000 C   0  0  0  0  0  0  0  0  0  0  0  0
    3.7974    2.8790    0.0000 C   0  0  0  0  0  0  0  0  0  0  0  0
    4.1334    1.4171    0.0000 C   0  0  0  0  0  0  0  0  0  0  0  0
    2.6994    1.8570    0.0000 C   0  0  0  0  0  0  0  0  0  0  0  0
    3.0355    0.3951    0.0000 C   0  0  0  0  0  0  0  0  0  0  0  0
    1.6014    0.8350    0.0000 C   0  0  0  0  0  0  0  0  0  0  0  0
    0.5034   -0.1870    0.0000 C   0  0  0  0  0  0  0  0  0  0  0  0
   -0.9306    0.2529    0.0000 O   0  0  0  0  0  0  0  0  0  0  0  0
    0.8395   -1.6488    0.0000 C   0  0  0  0  0  0  0  0  0  0  0  0
   -0.6326   -1.3613    0.0000 C   0  0  0  0  0  0  0  0  0  0  0  0
  2  1  1  6
  2  3  1  0
  3  4  1  0
  4  5  1  0
  5  6  2  0
  5  7  1  0
  7  8  1  0
  8  9  1  0
  9 10  1  0
 10 11  1  0
 11 12  1  0
  2 13  1  0
 13 14  1  6
 14 15  1  0
 16 15  1  6
 16 17  1  0
 17 18  1  1
 18 19  1  1
 18 20  1  0
 21 20  1  1
 21 22  1  0
 22 23  1  0
 23 24  1  1
 23 25  1  0
 25 26  1  0
 26 27  1  0
 27 28  1  6
 27 29  1  0
 29 30  1  6
 30 31  1  0
 31 32  1  1
 31 33  1  0
 33 34  1  6
 33 13  1  0
 33 16  1  0
 29 17  1  0
 27 21  1  0
M  END
>  <MS_ID>  (610) 
MS0636

>  <SMILES>  (610) 
C[C@H](CCC(=O)OCCCCO)[C@H]1CC[C@H]2[C@@H]3[C@H](O)C[C@@H]4C[C@H](O)CC[C@]4(C)[C@H]3C[C@H](O)[C@]12C

>  <Structure_dimension>  (610) 
2D

$$$$
MS0637
     RDKit          2D

 31 34  0  0  0  0  0  0  0  0999 V2000
   -3.4301   -3.6172    0.0000 C   0  0  0  0  0  0  0  0  0  0  0  0
   -2.4973   -2.4425    0.0000 C   0  0  0  0  0  0  0  0  0  0  0  0
   -3.0483   -1.0473    0.0000 C   0  0  0  0  0  0  0  0  0  0  0  0
   -4.5321   -0.8270    0.0000 C   0  0  0  0  0  0  0  0  0  0  0  0
   -5.0831    0.5682    0.0000 C   0  0  0  0  0  0  0  0  0  0  0  0
   -4.1503    1.7429    0.0000 O   0  0  0  0  0  0  0  0  0  0  0  0
   -6.5668    0.7886    0.0000 O   0  0  0  0  0  0  0  0  0  0  0  0
   -7.1178    2.1837    0.0000 C   0  0  0  0  0  0  0  0  0  0  0  0
   -8.6015    2.4041    0.0000 C   0  0  0  0  0  0  0  0  0  0  0  0
   -9.1525    3.7992    0.0000 N   0  0  0  0  0  0  0  0  0  0  0  0
   -1.0136   -2.6629    0.0000 C   0  0  0  0  0  0  0  0  0  0  0  0
   -0.3198   -3.9928    0.0000 C   0  0  0  0  0  0  0  0  0  0  0  0
    1.1594   -3.7439    0.0000 C   0  0  0  0  0  0  0  0  0  0  0  0
    1.3798   -2.2602    0.0000 C   0  0  0  0  0  0  0  0  0  0  0  0
    2.6299   -1.4311    0.0000 C   0  0  0  0  0  0  0  0  0  0  0  0
    3.9729   -2.0992    0.0000 C   0  0  0  0  0  0  0  0  0  0  0  0
    5.2230   -1.2702    0.0000 C   0  0  0  0  0  0  0  0  0  0  0  0
    5.1301    0.2269    0.0000 C   0  0  0  0  0  0  0  0  0  0  0  0
    6.3802    1.0559    0.0000 C   0  0  0  0  0  0  0  0  0  0  0  0
    6.2872    2.5531    0.0000 C   0  0  0  0  0  0  0  0  0  0  0  0
    7.5373    3.3821    0.0000 O   0  0  0  0  0  0  0  0  0  0  0  0
    4.9442    3.2212    0.0000 C   0  0  0  0  0  0  0  0  0  0  0  0
    3.6942    2.3921    0.0000 C   0  0  0  0  0  0  0  0  0  0  0  0
    3.7871    0.8950    0.0000 C   0  0  0  0  0  0  0  0  0  0  0  0
    2.4441    1.5631    0.0000 C   0  0  0  0  0  0  0  0  0  0  0  0
    2.5370    0.0660    0.0000 C   0  0  0  0  0  0  0  0  0  0  0  0
    1.1940    0.7341    0.0000 C   0  0  0  0  0  0  0  0  0  0  0  0
   -0.0561   -0.0949    0.0000 C   0  0  0  0  0  0  0  0  0  0  0  0
   -1.3991    0.5732    0.0000 O   0  0  0  0  0  0  0  0  0  0  0  0
    0.0368   -1.5921    0.0000 C   0  0  0  0  0  0  0  0  0  0  0  0
   -1.3687   -1.0680    0.0000 C   0  0  0  0  0  0  0  0  0  0  0  0
  2  1  1  6
  2  3  1  0
  3  4  1  0
  4  5  1  0
  5  6  2  0
  5  7  1  0
  7  8  1  0
  8  9  1  0
  9 10  1  0
  2 11  1  0
 11 12  1  6
 12 13  1  0
 14 13  1  6
 14 15  1  0
 15 16  1  1
 16 17  1  0
 18 17  1  1
 18 19  1  0
 19 20  1  0
 20 21  1  1
 20 22  1  0
 22 23  1  0
 23 24  1  0
 24 25  1  6
 24 26  1  0
 26 27  1  6
 27 28  1  0
 28 29  1  1
 28 30  1  0
 30 31  1  6
 30 11  1  0
 30 14  1  0
 26 15  1  0
 24 18  1  0
M  END
>  <MS_ID>  (611) 
MS0637

>  <SMILES>  (611) 
C[C@H](CCC(=O)OCCN)[C@H]1CC[C@H]2[C@@H]3CC[C@@H]4C[C@H](O)CC[C@]4(C)[C@H]3C[C@H](O)[C@]12C

>  <Structure_dimension>  (611) 
2D

$$$$
MS0638
     RDKit          2D

 34 38  0  0  0  0  0  0  0  0999 V2000
   -3.2858   -3.3478    0.0000 C   0  0  0  0  0  0  0  0  0  0  0  0
   -2.3538   -2.1725    0.0000 C   0  0  0  0  0  0  0  0  0  0  0  0
   -2.9057   -0.7777    0.0000 C   0  0  0  0  0  0  0  0  0  0  0  0
   -4.3895   -0.5582    0.0000 C   0  0  0  0  0  0  0  0  0  0  0  0
   -4.9414    0.8366    0.0000 C   0  0  0  0  0  0  0  0  0  0  0  0
   -4.0094    2.0119    0.0000 O   0  0  0  0  0  0  0  0  0  0  0  0
   -6.4253    1.0561    0.0000 C   0  0  0  0  0  0  0  0  0  0  0  0
   -6.9771    2.4509    0.0000 C   0  0  0  0  0  0  0  0  0  0  0  0
   -8.4610    2.6704    0.0000 C   0  0  0  0  0  0  0  0  0  0  0  0
   -9.3930    1.4950    0.0000 C   0  0  0  0  0  0  0  0  0  0  0  0
   -8.8411    0.1002    0.0000 N   0  0  0  0  0  0  0  0  0  0  0  0
   -7.3573   -0.1192    0.0000 C   0  0  0  0  0  0  0  0  0  0  0  0
   -0.8700   -2.3919    0.0000 C   0  0  0  0  0  0  0  0  0  0  0  0
   -0.1754   -3.7214    0.0000 C   0  0  0  0  0  0  0  0  0  0  0  0
    1.3037   -3.4716    0.0000 C   0  0  0  0  0  0  0  0  0  0  0  0
    1.5232   -1.9878    0.0000 C   0  0  0  0  0  0  0  0  0  0  0  0
    2.7728   -1.1580    0.0000 C   0  0  0  0  0  0  0  0  0  0  0  0
    4.1162   -1.8252    0.0000 C   0  0  0  0  0  0  0  0  0  0  0  0
    4.2100   -3.3223    0.0000 O   0  0  0  0  0  0  0  0  0  0  0  0
    5.3657   -0.9955    0.0000 C   0  0  0  0  0  0  0  0  0  0  0  0
    6.7092   -1.6627    0.0000 O   0  0  0  0  0  0  0  0  0  0  0  0
    5.2719    0.5016    0.0000 C   0  0  0  0  0  0  0  0  0  0  0  0
    6.5215    1.3314    0.0000 C   0  0  0  0  0  0  0  0  0  0  0  0
    6.4277    2.8285    0.0000 C   0  0  0  0  0  0  0  0  0  0  0  0
    7.6772    3.6583    0.0000 O   0  0  0  0  0  0  0  0  0  0  0  0
    5.0843    3.4957    0.0000 C   0  0  0  0  0  0  0  0  0  0  0  0
    3.8347    2.6659    0.0000 C   0  0  0  0  0  0  0  0  0  0  0  0
    3.9285    1.1689    0.0000 C   0  0  0  0  0  0  0  0  0  0  0  0
    2.5851    1.8362    0.0000 C   0  0  0  0  0  0  0  0  0  0  0  0
    2.6789    0.3391    0.0000 C   0  0  0  0  0  0  0  0  0  0  0  0
    1.3355    1.0064    0.0000 C   0  0  0  0  0  0  0  0  0  0  0  0
    0.0859    0.1766    0.0000 C   0  0  0  0  0  0  0  0  0  0  0  0
    0.1798   -1.3205    0.0000 C   0  0  0  0  0  0  0  0  0  0  0  0
   -1.2260   -0.7973    0.0000 C   0  0  0  0  0  0  0  0  0  0  0  0
  2  1  1  6
  2  3  1  0
  3  4  1  0
  4  5  1  0
  5  6  2  0
  5  7  1  0
  7  8  2  0
  8  9  1  0
  9 10  2  0
 10 11  1  0
 11 12  2  0
  2 13  1  0
 13 14  1  6
 14 15  1  0
 16 15  1  6
 16 17  1  0
 17 18  1  1
 18 19  1  1
 18 20  1  0
 20 21  1  1
 20 22  1  0
 22 23  1  1
 23 24  1  0
 24 25  1  1
 24 26  1  0
 26 27  1  0
 27 28  1  0
 28 29  1  6
 28 30  1  0
 30 31  1  6
 31 32  1  0
 32 33  1  0
 33 34  1  6
 12  7  1  0
 33 13  1  0
 33 16  1  0
 30 17  1  0
 28 22  1  0
M  END
>  <MS_ID>  (612) 
MS0638

>  <SMILES>  (612) 
C[C@H](CCC(=O)c1cccnc1)[C@H]1CC[C@H]2[C@@H]3[C@H](O)[C@H](O)[C@@H]4C[C@H](O)CC[C@]4(C)[C@H]3CC[C@]12C

>  <Structure_dimension>  (612) 
2D

$$$$
MS0639
     RDKit          2D

 29 32  0  0  0  0  0  0  0  0999 V2000
   -5.1607   -2.0928    0.0000 C   0  0  0  0  0  0  0  0  0  0  0  0
   -3.9751   -1.1738    0.0000 C   0  0  0  0  0  0  0  0  0  0  0  0
   -4.1782    0.3124    0.0000 C   0  0  0  0  0  0  0  0  0  0  0  0
   -5.5668    0.8796    0.0000 C   0  0  0  0  0  0  0  0  0  0  0  0
   -5.7698    2.3658    0.0000 C   0  0  0  0  0  0  0  0  0  0  0  0
   -4.5842    3.2848    0.0000 O   0  0  0  0  0  0  0  0  0  0  0  0
   -7.1584    2.9331    0.0000 O   0  0  0  0  0  0  0  0  0  0  0  0
   -2.5865   -1.7411    0.0000 C   0  0  0  0  0  0  0  0  0  0  0  0
   -2.2293   -3.1980    0.0000 C   0  0  0  0  0  0  0  0  0  0  0  0
   -0.7334   -3.3084    0.0000 C   0  0  0  0  0  0  0  0  0  0  0  0
   -0.1661   -1.9198    0.0000 C   0  0  0  0  0  0  0  0  0  0  0  0
    1.2454   -1.4122    0.0000 C   0  0  0  0  0  0  0  0  0  0  0  0
    2.3908   -2.3808    0.0000 C   0  0  0  0  0  0  0  0  0  0  0  0
    2.1246   -3.8570    0.0000 O   0  0  0  0  0  0  0  0  0  0  0  0
    3.8023   -1.8732    0.0000 C   0  0  0  0  0  0  0  0  0  0  0  0
    4.0685   -0.3970    0.0000 C   0  0  0  0  0  0  0  0  0  0  0  0
    5.4800    0.1106    0.0000 C   0  0  0  0  0  0  0  0  0  0  0  0
    5.7461    1.5868    0.0000 C   0  0  0  0  0  0  0  0  0  0  0  0
    7.1577    2.0943    0.0000 O   0  0  0  0  0  0  0  0  0  0  0  0
    4.6008    2.5554    0.0000 C   0  0  0  0  0  0  0  0  0  0  0  0
    3.1893    2.0478    0.0000 C   0  0  0  0  0  0  0  0  0  0  0  0
    2.9231    0.5716    0.0000 C   0  0  0  0  0  0  0  0  0  0  0  0
    1.7778    1.5402    0.0000 C   0  0  0  0  0  0  0  0  0  0  0  0
    1.5116    0.0640    0.0000 C   0  0  0  0  0  0  0  0  0  0  0  0
    0.3663    1.0326    0.0000 C   0  0  0  0  0  0  0  0  0  0  0  0
    0.6325    2.5088    0.0000 O   0  0  0  0  0  0  0  0  0  0  0  0
   -1.0452    0.5250    0.0000 C   0  0  0  0  0  0  0  0  0  0  0  0
   -1.3114   -0.9512    0.0000 C   0  0  0  0  0  0  0  0  0  0  0  0
   -2.5517   -0.1076    0.0000 C   0  0  0  0  0  0  0  0  0  0  0  0
  2  1  1  6
  2  3  1  0
  3  4  1  0
  4  5  1  0
  5  6  2  0
  5  7  1  0
  2  8  1  0
  8  9  1  6
  9 10  1  0
 11 10  1  6
 11 12  1  0
 12 13  1  1
 13 14  1  6
 13 15  1  0
 16 15  1  1
 16 17  1  0
 17 18  1  0
 18 19  1  1
 18 20  1  0
 20 21  1  0
 21 22  1  0
 22 23  1  6
 22 24  1  0
 24 25  1  6
 25 26  2  0
 25 27  1  0
 27 28  1  0
 28 29  1  6
 28  8  1  0
 28 11  1  0
 24 12  1  0
 22 16  1  0
M  END
>  <MS_ID>  (613) 
MS0639

>  <SMILES>  (613) 
C[C@H](CCC(=O)O)[C@H]1CC[C@H]2[C@@H]3[C@@H](O)C[C@@H]4C[C@H](O)CC[C@]4(C)[C@H]3C(=O)C[C@]12C

>  <Structure_dimension>  (613) 
2D

$$$$
MS0640
     RDKit          2D

 37 40  0  0  0  0  0  0  0  0999 V2000
   -1.0033   -4.5187    0.0000 C   0  0  0  0  0  0  0  0  0  0  0  0
   -0.3845   -3.1522    0.0000 C   0  0  0  0  0  0  0  0  0  0  0  0
   -1.2585   -1.9332    0.0000 C   0  0  0  0  0  0  0  0  0  0  0  0
   -2.7512   -2.0805    0.0000 C   0  0  0  0  0  0  0  0  0  0  0  0
   -3.6252   -0.8614    0.0000 C   0  0  0  0  0  0  0  0  0  0  0  0
   -3.0064    0.5050    0.0000 O   0  0  0  0  0  0  0  0  0  0  0  0
   -5.1179   -1.0088    0.0000 C   0  0  0  0  0  0  0  0  0  0  0  0
   -5.9919    0.2103    0.0000 O   0  0  0  0  0  0  0  0  0  0  0  0
   -7.4846    0.0630    0.0000 C   0  0  0  0  0  0  0  0  0  0  0  0
   -8.1034   -1.3035    0.0000 O   0  0  0  0  0  0  0  0  0  0  0  0
   -8.3586    1.2821    0.0000 C   0  0  0  0  0  0  0  0  0  0  0  0
   -9.8514    1.1347    0.0000 C   0  0  0  0  0  0  0  0  0  0  0  0
  -10.7253    2.3538    0.0000 C   0  0  0  0  0  0  0  0  0  0  0  0
  -10.1066    3.7202    0.0000 O   0  0  0  0  0  0  0  0  0  0  0  0
  -12.2181    2.2065    0.0000 O   0  0  0  0  0  0  0  0  0  0  0  0
    1.1083   -3.0049    0.0000 C   0  0  0  0  0  0  0  0  0  0  0  0
    2.1049   -4.1260    0.0000 C   0  0  0  0  0  0  0  0  0  0  0  0
    3.4790   -3.5245    0.0000 C   0  0  0  0  0  0  0  0  0  0  0  0
    3.3317   -2.0318    0.0000 C   0  0  0  0  0  0  0  0  0  0  0  0
    4.3424   -0.9235    0.0000 C   0  0  0  0  0  0  0  0  0  0  0  0
    5.8076   -1.2446    0.0000 C   0  0  0  0  0  0  0  0  0  0  0  0
    6.2621   -2.6741    0.0000 O   0  0  0  0  0  0  0  0  0  0  0  0
    6.8184   -0.1363    0.0000 C   0  0  0  0  0  0  0  0  0  0  0  0
    6.3639    1.2932    0.0000 C   0  0  0  0  0  0  0  0  0  0  0  0
    7.3746    2.4016    0.0000 C   0  0  0  0  0  0  0  0  0  0  0  0
    6.9201    3.8311    0.0000 C   0  0  0  0  0  0  0  0  0  0  0  0
    7.9309    4.9394    0.0000 O   0  0  0  0  0  0  0  0  0  0  0  0
    5.4549    4.1522    0.0000 C   0  0  0  0  0  0  0  0  0  0  0  0
    4.4442    3.0439    0.0000 C   0  0  0  0  0  0  0  0  0  0  0  0
    4.8987    1.6144    0.0000 C   0  0  0  0  0  0  0  0  0  0  0  0
    3.4335    1.9355    0.0000 C   0  0  0  0  0  0  0  0  0  0  0  0
    3.8879    0.5060    0.0000 C   0  0  0  0  0  0  0  0  0  0  0  0
    2.4227    0.8272    0.0000 C   0  0  0  0  0  0  0  0  0  0  0  0
    1.4120   -0.2811    0.0000 C   0  0  0  0  0  0  0  0  0  0  0  0
   -0.0532    0.0400    0.0000 O   0  0  0  0  0  0  0  0  0  0  0  0
    1.8665   -1.7106    0.0000 C   0  0  0  0  0  0  0  0  0  0  0  0
    0.3757   -1.5444    0.0000 C   0  0  0  0  0  0  0  0  0  0  0  0
  2  1  1  6
  2  3  1  0
  3  4  1  0
  4  5  1  0
  5  6  2  0
  5  7  1  0
  7  8  1  0
  8  9  1  0
  9 10  2  0
  9 11  1  0
 11 12  1  0
 12 13  1  0
 13 14  2  0
 13 15  1  0
  2 16  1  0
 16 17  1  6
 17 18  1  0
 19 18  1  6
 19 20  1  0
 20 21  1  1
 21 22  1  1
 21 23  1  0
 24 23  1  1
 24 25  1  0
 25 26  1  0
 26 27  1  1
 26 28  1  0
 28 29  1  0
 29 30  1  0
 30 31  1  6
 30 32  1  0
 32 33  1  6
 33 34  1  0
 34 35  1  1
 34 36  1  0
 36 37  1  6
 36 16  1  0
 36 19  1  0
 32 20  1  0
 30 24  1  0
M  END
>  <MS_ID>  (614) 
MS0640

>  <SMILES>  (614) 
C[C@H](CCC(=O)COC(=O)CCC(=O)O)[C@H]1CC[C@H]2[C@@H]3[C@H](O)C[C@@H]4C[C@H](O)CC[C@]4(C)[C@H]3C[C@H](O)[C@]12C

>  <Structure_dimension>  (614) 
2D

$$$$
MS0641
     RDKit          2D

 29 32  0  0  0  0  0  0  0  0999 V2000
   -5.0303   -2.1373    0.0000 C   0  0  0  0  0  0  0  0  0  0  0  0
   -3.8594   -1.1998    0.0000 C   0  0  0  0  0  0  0  0  0  0  0  0
   -4.0858    0.2830    0.0000 C   0  0  0  0  0  0  0  0  0  0  0  0
   -5.4831    0.8284    0.0000 C   0  0  0  0  0  0  0  0  0  0  0  0
   -5.7095    2.3112    0.0000 C   0  0  0  0  0  0  0  0  0  0  0  0
   -4.5386    3.2487    0.0000 O   0  0  0  0  0  0  0  0  0  0  0  0
   -7.1069    2.8565    0.0000 O   0  0  0  0  0  0  0  0  0  0  0  0
   -2.4620   -1.7451    0.0000 C   0  0  0  0  0  0  0  0  0  0  0  0
   -2.0818   -3.1961    0.0000 C   0  0  0  0  0  0  0  0  0  0  0  0
   -0.5844   -3.2830    0.0000 C   0  0  0  0  0  0  0  0  0  0  0  0
   -0.0390   -1.8856    0.0000 C   0  0  0  0  0  0  0  0  0  0  0  0
    1.3643   -1.3559    0.0000 C   0  0  0  0  0  0  0  0  0  0  0  0
    2.5248   -2.3063    0.0000 C   0  0  0  0  0  0  0  0  0  0  0  0
    2.2819   -3.7865    0.0000 N   0  0  0  0  0  0  0  0  0  0  0  0
    3.9281   -1.7765    0.0000 C   0  0  0  0  0  0  0  0  0  0  0  0
    4.1710   -0.2963    0.0000 C   0  0  0  0  0  0  0  0  0  0  0  0
    5.5743    0.2334    0.0000 C   0  0  0  0  0  0  0  0  0  0  0  0
    5.8172    1.7136    0.0000 C   0  0  0  0  0  0  0  0  0  0  0  0
    7.2205    2.2434    0.0000 O   0  0  0  0  0  0  0  0  0  0  0  0
    4.6568    2.6641    0.0000 C   0  0  0  0  0  0  0  0  0  0  0  0
    3.2534    2.1343    0.0000 C   0  0  0  0  0  0  0  0  0  0  0  0
    3.0105    0.6541    0.0000 C   0  0  0  0  0  0  0  0  0  0  0  0
    1.8501    1.6046    0.0000 C   0  0  0  0  0  0  0  0  0  0  0  0
    1.6072    0.1244    0.0000 C   0  0  0  0  0  0  0  0  0  0  0  0
    0.4467    1.0748    0.0000 C   0  0  0  0  0  0  0  0  0  0  0  0
   -0.9566    0.5450    0.0000 C   0  0  0  0  0  0  0  0  0  0  0  0
   -2.1170    1.4955    0.0000 O   0  0  0  0  0  0  0  0  0  0  0  0
   -1.1995   -0.9352    0.0000 C   0  0  0  0  0  0  0  0  0  0  0  0
   -2.4529   -0.1112    0.0000 C   0  0  0  0  0  0  0  0  0  0  0  0
  2  1  1  6
  2  3  1  0
  3  4  1  0
  4  5  1  0
  5  6  2  0
  5  7  1  0
  2  8  1  0
  8  9  1  6
  9 10  1  0
 11 10  1  6
 11 12  1  0
 12 13  1  1
 13 14  1  1
 13 15  1  0
 16 15  1  1
 16 17  1  0
 17 18  1  0
 18 19  2  0
 18 20  1  0
 20 21  1  0
 21 22  1  0
 22 23  1  6
 22 24  1  0
 24 25  1  6
 25 26  1  0
 26 27  1  1
 26 28  1  0
 28 29  1  6
 28  8  1  0
 28 11  1  0
 24 12  1  0
 22 16  1  0
M  END
>  <MS_ID>  (615) 
MS0641

>  <SMILES>  (615) 
C[C@H](CCC(=O)O)[C@H]1CC[C@H]2[C@@H]3[C@H](N)C[C@@H]4CC(=O)CC[C@]4(C)[C@H]3C[C@H](O)[C@]12C

>  <Structure_dimension>  (615) 
2D

$$$$
MS0642
     RDKit          2D

 29 32  0  0  0  0  0  0  0  0999 V2000
   -4.6212   -2.5003    0.0000 C   0  0  0  0  0  0  0  0  0  0  0  0
   -3.5781   -1.4224    0.0000 C   0  0  0  0  0  0  0  0  0  0  0  0
   -3.9900    0.0199    0.0000 C   0  0  0  0  0  0  0  0  0  0  0  0
   -5.4450    0.3844    0.0000 C   0  0  0  0  0  0  0  0  0  0  0  0
   -5.8569    1.8267    0.0000 C   0  0  0  0  0  0  0  0  0  0  0  0
   -4.8137    2.9046    0.0000 O   0  0  0  0  0  0  0  0  0  0  0  0
   -7.3119    2.1912    0.0000 O   0  0  0  0  0  0  0  0  0  0  0  0
   -2.1230   -1.7869    0.0000 C   0  0  0  0  0  0  0  0  0  0  0  0
   -1.5626   -3.1783    0.0000 C   0  0  0  0  0  0  0  0  0  0  0  0
   -0.0662   -3.0753    0.0000 C   0  0  0  0  0  0  0  0  0  0  0  0
    0.2983   -1.6202    0.0000 C   0  0  0  0  0  0  0  0  0  0  0  0
    1.6235   -0.9174    0.0000 C   0  0  0  0  0  0  0  0  0  0  0  0
    2.8947   -1.7137    0.0000 C   0  0  0  0  0  0  0  0  0  0  0  0
    2.8407   -3.2127    0.0000 C   0  0  0  0  0  0  0  0  0  0  0  0
    4.1119   -4.0090    0.0000 O   0  0  0  0  0  0  0  0  0  0  0  0
    4.2199   -1.0109    0.0000 C   0  0  0  0  0  0  0  0  0  0  0  0
    4.2739    0.4881    0.0000 C   0  0  0  0  0  0  0  0  0  0  0  0
    5.5990    1.1908    0.0000 C   0  0  0  0  0  0  0  0  0  0  0  0
    5.6530    2.6899    0.0000 C   0  0  0  0  0  0  0  0  0  0  0  0
    4.3818    3.4861    0.0000 C   0  0  0  0  0  0  0  0  0  0  0  0
    3.0566    2.7834    0.0000 C   0  0  0  0  0  0  0  0  0  0  0  0
    3.0026    1.2843    0.0000 C   0  0  0  0  0  0  0  0  0  0  0  0
    1.7314    2.0806    0.0000 C   0  0  0  0  0  0  0  0  0  0  0  0
    1.6775    0.5816    0.0000 C   0  0  0  0  0  0  0  0  0  0  0  0
    0.4063    1.3778    0.0000 C   0  0  0  0  0  0  0  0  0  0  0  0
   -0.9189    0.6751    0.0000 C   0  0  0  0  0  0  0  0  0  0  0  0
   -2.1901    1.4713    0.0000 O   0  0  0  0  0  0  0  0  0  0  0  0
   -0.9729   -0.8239    0.0000 C   0  0  0  0  0  0  0  0  0  0  0  0
   -2.3204   -0.1649    0.0000 C   0  0  0  0  0  0  0  0  0  0  0  0
  2  1  1  6
  2  3  1  0
  3  4  1  0
  4  5  1  0
  5  6  2  0
  5  7  1  0
  2  8  1  0
  8  9  1  6
  9 10  1  0
 11 10  1  6
 11 12  1  0
 12 13  1  1
 13 14  1  1
 14 15  1  0
 13 16  1  0
 17 16  1  1
 17 18  1  0
 18 19  1  0
 19 20  1  0
 20 21  1  0
 21 22  1  0
 22 23  1  6
 22 24  1  0
 24 25  1  6
 25 26  1  0
 26 27  1  1
 26 28  1  0
 28 29  1  6
 28  8  1  0
 28 11  1  0
 24 12  1  0
 22 17  1  0
M  END
>  <MS_ID>  (616) 
MS0642

>  <SMILES>  (616) 
C[C@H](CCC(=O)O)[C@H]1CC[C@H]2[C@@H]3[C@H](CO)C[C@@H]4CCCC[C@]4(C)[C@H]3C[C@H](O)[C@]12C

>  <Structure_dimension>  (616) 
2D

$$$$
MS0643
     RDKit          2D

 28 31  0  0  0  0  0  0  0  0999 V2000
   -5.0096   -2.1352    0.0000 C   0  0  0  0  0  0  0  0  0  0  0  0
   -3.8132   -1.2303    0.0000 C   0  0  0  0  0  0  0  0  0  0  0  0
   -3.9987    0.2582    0.0000 C   0  0  0  0  0  0  0  0  0  0  0  0
   -5.3805    0.8418    0.0000 C   0  0  0  0  0  0  0  0  0  0  0  0
   -5.5659    2.3303    0.0000 C   0  0  0  0  0  0  0  0  0  0  0  0
   -4.3695    3.2351    0.0000 O   0  0  0  0  0  0  0  0  0  0  0  0
   -6.9477    2.9140    0.0000 O   0  0  0  0  0  0  0  0  0  0  0  0
   -2.4315   -1.8140    0.0000 C   0  0  0  0  0  0  0  0  0  0  0  0
   -2.0914   -3.2749    0.0000 C   0  0  0  0  0  0  0  0  0  0  0  0
   -0.5969   -3.4030    0.0000 C   0  0  0  0  0  0  0  0  0  0  0  0
   -0.0133   -2.0212    0.0000 C   0  0  0  0  0  0  0  0  0  0  0  0
    1.4041   -1.5304    0.0000 C   0  0  0  0  0  0  0  0  0  0  0  0
    2.5379   -2.5125    0.0000 C   0  0  0  0  0  0  0  0  0  0  0  0
    3.9554   -2.0216    0.0000 C   0  0  0  0  0  0  0  0  0  0  0  0
    4.2390   -0.5487    0.0000 C   0  0  0  0  0  0  0  0  0  0  0  0
    5.6564   -0.0578    0.0000 C   0  0  0  0  0  0  0  0  0  0  0  0
    5.9400    1.4151    0.0000 C   0  0  0  0  0  0  0  0  0  0  0  0
    7.3574    1.9060    0.0000 N   0  0  0  0  0  0  0  0  0  0  0  0
    4.8062    2.3972    0.0000 C   0  0  0  0  0  0  0  0  0  0  0  0
    3.3888    1.9064    0.0000 C   0  0  0  0  0  0  0  0  0  0  0  0
    3.1052    0.4334    0.0000 C   0  0  0  0  0  0  0  0  0  0  0  0
    1.9714    1.4155    0.0000 C   0  0  0  0  0  0  0  0  0  0  0  0
    1.6878   -0.0574    0.0000 C   0  0  0  0  0  0  0  0  0  0  0  0
    0.5540    0.9246    0.0000 C   0  0  0  0  0  0  0  0  0  0  0  0
   -0.8635    0.4338    0.0000 C   0  0  0  0  0  0  0  0  0  0  0  0
   -1.9973    1.4159    0.0000 O   0  0  0  0  0  0  0  0  0  0  0  0
   -1.1471   -1.0392    0.0000 C   0  0  0  0  0  0  0  0  0  0  0  0
   -2.3773   -0.1810    0.0000 C   0  0  0  0  0  0  0  0  0  0  0  0
  2  1  1  6
  2  3  1  0
  3  4  1  0
  4  5  1  0
  5  6  2  0
  5  7  1  0
  2  8  1  0
  8  9  1  6
  9 10  1  0
 11 10  1  6
 11 12  1  0
 12 13  1  1
 13 14  1  0
 15 14  1  1
 15 16  1  0
 16 17  1  0
 17 18  1  1
 17 19  1  0
 19 20  1  0
 20 21  1  0
 21 22  1  6
 21 23  1  0
 23 24  1  6
 24 25  1  0
 25 26  2  0
 25 27  1  0
 27 28  1  6
 27  8  1  0
 27 11  1  0
 23 12  1  0
 21 15  1  0
M  END
>  <MS_ID>  (617) 
MS0643

>  <SMILES>  (617) 
C[C@H](CCC(=O)O)[C@H]1CC[C@H]2[C@@H]3CC[C@@H]4C[C@H](N)CC[C@]4(C)[C@H]3CC(=O)[C@]12C

>  <Structure_dimension>  (617) 
2D

$$$$
MS0645
     RDKit          2D

 32 35  0  0  0  0  0  0  0  0999 V2000
   -3.4546   -3.6059    0.0000 C   0  0  0  0  0  0  0  0  0  0  0  0
   -2.5561   -2.4048    0.0000 C   0  0  0  0  0  0  0  0  0  0  0  0
   -3.1471   -1.0261    0.0000 C   0  0  0  0  0  0  0  0  0  0  0  0
   -4.6366   -0.8486    0.0000 C   0  0  0  0  0  0  0  0  0  0  0  0
   -5.2276    0.5301    0.0000 C   0  0  0  0  0  0  0  0  0  0  0  0
   -4.3291    1.7312    0.0000 O   0  0  0  0  0  0  0  0  0  0  0  0
   -6.7170    0.7076    0.0000 O   0  0  0  0  0  0  0  0  0  0  0  0
   -7.3080    2.0863    0.0000 C   0  0  0  0  0  0  0  0  0  0  0  0
   -8.7975    2.2638    0.0000 C   0  0  0  0  0  0  0  0  0  0  0  0
   -9.3885    3.6424    0.0000 O   0  0  0  0  0  0  0  0  0  0  0  0
   -1.0667   -2.5823    0.0000 C   0  0  0  0  0  0  0  0  0  0  0  0
   -0.3348   -3.8917    0.0000 C   0  0  0  0  0  0  0  0  0  0  0  0
    1.1366   -3.6002    0.0000 C   0  0  0  0  0  0  0  0  0  0  0  0
    1.3141   -2.1108    0.0000 C   0  0  0  0  0  0  0  0  0  0  0  0
    2.5398   -1.2460    0.0000 C   0  0  0  0  0  0  0  0  0  0  0  0
    3.9015   -1.8751    0.0000 C   0  0  0  0  0  0  0  0  0  0  0  0
    4.0375   -3.3690    0.0000 O   0  0  0  0  0  0  0  0  0  0  0  0
    5.1272   -1.0104    0.0000 C   0  0  0  0  0  0  0  0  0  0  0  0
    4.9911    0.4834    0.0000 C   0  0  0  0  0  0  0  0  0  0  0  0
    6.2168    1.3481    0.0000 C   0  0  0  0  0  0  0  0  0  0  0  0
    6.0808    2.8419    0.0000 C   0  0  0  0  0  0  0  0  0  0  0  0
    7.3064    3.7067    0.0000 O   0  0  0  0  0  0  0  0  0  0  0  0
    4.7191    3.4710    0.0000 C   0  0  0  0  0  0  0  0  0  0  0  0
    3.4934    2.6063    0.0000 C   0  0  0  0  0  0  0  0  0  0  0  0
    3.6294    1.1125    0.0000 C   0  0  0  0  0  0  0  0  0  0  0  0
    2.2677    1.7416    0.0000 C   0  0  0  0  0  0  0  0  0  0  0  0
    2.4038    0.2478    0.0000 C   0  0  0  0  0  0  0  0  0  0  0  0
    1.0421    0.8769    0.0000 C   0  0  0  0  0  0  0  0  0  0  0  0
   -0.1836    0.0122    0.0000 C   0  0  0  0  0  0  0  0  0  0  0  0
   -1.5453    0.6413    0.0000 O   0  0  0  0  0  0  0  0  0  0  0  0
   -0.0476   -1.4817    0.0000 C   0  0  0  0  0  0  0  0  0  0  0  0
   -1.4676   -0.9983    0.0000 C   0  0  0  0  0  0  0  0  0  0  0  0
  2  1  1  6
  2  3  1  0
  3  4  1  0
  4  5  1  0
  5  6  2  0
  5  7  1  0
  7  8  1  0
  8  9  1  0
  9 10  1  0
  2 11  1  0
 11 12  1  6
 12 13  1  0
 14 13  1  6
 14 15  1  0
 15 16  1  1
 16 17  2  0
 16 18  1  0
 19 18  1  1
 19 20  1  0
 20 21  1  0
 21 22  1  1
 21 23  1  0
 23 24  1  0
 24 25  1  0
 25 26  1  6
 25 27  1  0
 27 28  1  6
 28 29  1  0
 29 30  1  1
 29 31  1  0
 31 32  1  6
 31 11  1  0
 31 14  1  0
 27 15  1  0
 25 19  1  0
M  END
>  <MS_ID>  (618) 
MS0645

>  <SMILES>  (618) 
C[C@H](CCC(=O)OCCO)[C@H]1CC[C@H]2[C@@H]3C(=O)C[C@@H]4C[C@H](O)CC[C@]4(C)[C@H]3C[C@H](O)[C@]12C

>  <Structure_dimension>  (618) 
2D

$$$$
MS0646
     RDKit          2D

 39 43  0  0  0  0  0  0  0  0999 V2000
   -0.7193   -4.8292    0.0000 C   0  0  0  0  0  0  0  0  0  0  0  0
   -0.1477   -3.4424    0.0000 C   0  0  0  0  0  0  0  0  0  0  0  0
   -1.0630   -2.2540    0.0000 C   0  0  0  0  0  0  0  0  0  0  0  0
   -2.5498   -2.4524    0.0000 C   0  0  0  0  0  0  0  0  0  0  0  0
   -3.4650   -1.2640    0.0000 C   0  0  0  0  0  0  0  0  0  0  0  0
   -2.8935    0.1228    0.0000 O   0  0  0  0  0  0  0  0  0  0  0  0
   -4.9519   -1.4625    0.0000 O   0  0  0  0  0  0  0  0  0  0  0  0
   -5.8671   -0.2741    0.0000 C   0  0  0  0  0  0  0  0  0  0  0  0
   -5.2956    1.1128    0.0000 O   0  0  0  0  0  0  0  0  0  0  0  0
   -6.2108    2.3012    0.0000 C   0  0  0  0  0  0  0  0  0  0  0  0
   -5.6393    3.6880    0.0000 C   0  0  0  0  0  0  0  0  0  0  0  0
   -4.1524    3.8864    0.0000 O   0  0  0  0  0  0  0  0  0  0  0  0
   -7.6976    2.1027    0.0000 C   0  0  0  0  0  0  0  0  0  0  0  0
   -8.6129    3.2911    0.0000 O   0  0  0  0  0  0  0  0  0  0  0  0
   -8.2692    0.7159    0.0000 C   0  0  0  0  0  0  0  0  0  0  0  0
   -9.7560    0.5175    0.0000 O   0  0  0  0  0  0  0  0  0  0  0  0
   -7.3539   -0.4725    0.0000 C   0  0  0  0  0  0  0  0  0  0  0  0
   -7.9255   -1.8593    0.0000 O   0  0  0  0  0  0  0  0  0  0  0  0
    1.3391   -3.2440    0.0000 C   0  0  0  0  0  0  0  0  0  0  0  0
    2.3736   -4.3302    0.0000 C   0  0  0  0  0  0  0  0  0  0  0  0
    3.7263   -3.6820    0.0000 C   0  0  0  0  0  0  0  0  0  0  0  0
    3.5279   -2.1952    0.0000 C   0  0  0  0  0  0  0  0  0  0  0  0
    4.5000   -1.0529    0.0000 C   0  0  0  0  0  0  0  0  0  0  0  0
    5.9754   -1.3236    0.0000 C   0  0  0  0  0  0  0  0  0  0  0  0
    6.4786   -2.7367    0.0000 O   0  0  0  0  0  0  0  0  0  0  0  0
    6.9475   -0.1813    0.0000 C   0  0  0  0  0  0  0  0  0  0  0  0
    6.4443    1.2318    0.0000 C   0  0  0  0  0  0  0  0  0  0  0  0
    7.4164    2.3742    0.0000 C   0  0  0  0  0  0  0  0  0  0  0  0
    6.9132    3.7872    0.0000 C   0  0  0  0  0  0  0  0  0  0  0  0
    7.8853    4.9296    0.0000 O   0  0  0  0  0  0  0  0  0  0  0  0
    5.4378    4.0580    0.0000 C   0  0  0  0  0  0  0  0  0  0  0  0
    4.4657    2.9156    0.0000 C   0  0  0  0  0  0  0  0  0  0  0  0
    4.9689    1.5025    0.0000 C   0  0  0  0  0  0  0  0  0  0  0  0
    3.4936    1.7733    0.0000 C   0  0  0  0  0  0  0  0  0  0  0  0
    3.9968    0.3602    0.0000 C   0  0  0  0  0  0  0  0  0  0  0  0
    2.5214    0.6309    0.0000 C   0  0  0  0  0  0  0  0  0  0  0  0
    1.5493   -0.5114    0.0000 C   0  0  0  0  0  0  0  0  0  0  0  0
    2.0525   -1.9245    0.0000 C   0  0  0  0  0  0  0  0  0  0  0  0
    0.5569   -1.8095    0.0000 C   0  0  0  0  0  0  0  0  0  0  0  0
  2  1  1  6
  2  3  1  0
  3  4  1  0
  4  5  1  0
  5  6  2  0
  5  7  1  0
  8  7  1  1
  8  9  1  0
  9 10  1  0
 10 11  1  1
 11 12  1  0
 10 13  1  0
 13 14  1  1
 13 15  1  0
 15 16  1  1
 15 17  1  0
 17 18  1  6
  2 19  1  0
 19 20  1  6
 20 21  1  0
 22 21  1  6
 22 23  1  0
 23 24  1  1
 24 25  1  1
 24 26  1  0
 27 26  1  1
 27 28  1  0
 28 29  1  0
 29 30  1  1
 29 31  1  0
 31 32  1  0
 32 33  1  0
 33 34  1  6
 33 35  1  0
 35 36  1  6
 36 37  1  0
 37 38  1  0
 38 39  1  6
 17  8  1  0
 38 19  1  0
 38 22  1  0
 35 23  1  0
 33 27  1  0
M  END
>  <MS_ID>  (619) 
MS0646

>  <SMILES>  (619) 
C[C@H](CCC(=O)O[C@@H]1O[C@H](CO)[C@H](O)[C@H](O)[C@H]1O)[C@H]1CC[C@H]2[C@@H]3[C@H](O)C[C@@H]4C[C@H](O)CC[C@]4(C)[C@H]3CC[C@]12C

>  <Structure_dimension>  (619) 
2D

$$$$
MS0647
     RDKit          2D

 30 33  0  0  0  0  0  0  0  0999 V2000
   -4.1099   -3.1124    0.0000 C   0  0  0  0  0  0  0  0  0  0  0  0
   -3.1089   -1.9953    0.0000 C   0  0  0  0  0  0  0  0  0  0  0  0
   -3.5759   -0.5698    0.0000 C   0  0  0  0  0  0  0  0  0  0  0  0
   -5.0438   -0.2615    0.0000 C   0  0  0  0  0  0  0  0  0  0  0  0
   -5.5108    1.1640    0.0000 C   0  0  0  0  0  0  0  0  0  0  0  0
   -4.5097    2.2811    0.0000 O   0  0  0  0  0  0  0  0  0  0  0  0
   -6.9787    1.4724    0.0000 C   0  0  0  0  0  0  0  0  0  0  0  0
   -7.4457    2.8978    0.0000 C   0  0  0  0  0  0  0  0  0  0  0  0
   -8.9136    3.2062    0.0000 O   0  0  0  0  0  0  0  0  0  0  0  0
   -1.6409   -2.3036    0.0000 C   0  0  0  0  0  0  0  0  0  0  0  0
   -1.0276   -3.6725    0.0000 C   0  0  0  0  0  0  0  0  0  0  0  0
    0.4638   -3.5121    0.0000 C   0  0  0  0  0  0  0  0  0  0  0  0
    0.7722   -2.0441    0.0000 C   0  0  0  0  0  0  0  0  0  0  0  0
    2.0694   -1.2910    0.0000 C   0  0  0  0  0  0  0  0  0  0  0  0
    3.3703   -2.0379    0.0000 C   0  0  0  0  0  0  0  0  0  0  0  0
    3.3739   -3.5379    0.0000 O   0  0  0  0  0  0  0  0  0  0  0  0
    4.6675   -1.2848    0.0000 C   0  0  0  0  0  0  0  0  0  0  0  0
    4.6639    0.2152    0.0000 C   0  0  0  0  0  0  0  0  0  0  0  0
    5.9611    0.9683    0.0000 C   0  0  0  0  0  0  0  0  0  0  0  0
    5.9575    2.4683    0.0000 C   0  0  0  0  0  0  0  0  0  0  0  0
    7.2548    3.2214    0.0000 O   0  0  0  0  0  0  0  0  0  0  0  0
    4.6567    3.2152    0.0000 C   0  0  0  0  0  0  0  0  0  0  0  0
    3.3595    2.4621    0.0000 C   0  0  0  0  0  0  0  0  0  0  0  0
    3.3631    0.9621    0.0000 C   0  0  0  0  0  0  0  0  0  0  0  0
    2.0622    1.7090    0.0000 C   0  0  0  0  0  0  0  0  0  0  0  0
    2.0658    0.2090    0.0000 C   0  0  0  0  0  0  0  0  0  0  0  0
    0.7650    0.9559    0.0000 C   0  0  0  0  0  0  0  0  0  0  0  0
   -0.5322    0.2027    0.0000 C   0  0  0  0  0  0  0  0  0  0  0  0
   -0.5286   -1.2973    0.0000 C   0  0  0  0  0  0  0  0  0  0  0  0
   -1.9004   -0.6904    0.0000 C   0  0  0  0  0  0  0  0  0  0  0  0
  2  1  1  6
  2  3  1  0
  3  4  1  0
  4  5  1  0
  5  6  2  0
  5  7  1  0
  7  8  1  0
  8  9  1  0
  2 10  1  0
 10 11  1  6
 11 12  1  0
 13 12  1  6
 13 14  1  0
 14 15  1  1
 15 16  1  1
 15 17  1  0
 18 17  1  1
 18 19  1  0
 19 20  1  0
 20 21  1  1
 20 22  1  0
 22 23  1  0
 23 24  1  0
 24 25  1  6
 24 26  1  0
 26 27  1  6
 27 28  1  0
 28 29  1  0
 29 30  1  6
 29 10  1  0
 29 13  1  0
 26 14  1  0
 24 18  1  0
M  END
>  <MS_ID>  (620) 
MS0647

>  <SMILES>  (620) 
C[C@H](CCC(=O)CCO)[C@H]1CC[C@H]2[C@@H]3[C@H](O)C[C@@H]4C[C@H](O)CC[C@]4(C)[C@H]3CC[C@]12C

>  <Structure_dimension>  (620) 
2D

$$$$
MS0648
     RDKit          2D

 30 33  0  0  0  0  0  0  0  0999 V2000
   -4.0199   -3.1584    0.0000 C   0  0  0  0  0  0  0  0  0  0  0  0
   -2.9902   -2.0677    0.0000 C   0  0  0  0  0  0  0  0  0  0  0  0
   -3.4199   -0.6306    0.0000 C   0  0  0  0  0  0  0  0  0  0  0  0
   -4.8793   -0.2841    0.0000 C   0  0  0  0  0  0  0  0  0  0  0  0
   -5.3090    1.1530    0.0000 C   0  0  0  0  0  0  0  0  0  0  0  0
   -4.2792    2.2437    0.0000 O   0  0  0  0  0  0  0  0  0  0  0  0
   -6.7684    1.4995    0.0000 C   0  0  0  0  0  0  0  0  0  0  0  0
   -7.1981    2.9366    0.0000 C   0  0  0  0  0  0  0  0  0  0  0  0
   -8.6575    3.2831    0.0000 O   0  0  0  0  0  0  0  0  0  0  0  0
   -1.5307   -2.4142    0.0000 C   0  0  0  0  0  0  0  0  0  0  0  0
   -0.9532   -3.7985    0.0000 C   0  0  0  0  0  0  0  0  0  0  0  0
    0.5419   -3.6770    0.0000 C   0  0  0  0  0  0  0  0  0  0  0  0
    0.8883   -2.2176    0.0000 C   0  0  0  0  0  0  0  0  0  0  0  0
    2.2047   -1.4985    0.0000 C   0  0  0  0  0  0  0  0  0  0  0  0
    3.4857   -2.2790    0.0000 C   0  0  0  0  0  0  0  0  0  0  0  0
    4.8021   -1.5599    0.0000 C   0  0  0  0  0  0  0  0  0  0  0  0
    4.8375   -0.0603    0.0000 C   0  0  0  0  0  0  0  0  0  0  0  0
    6.1539    0.6588    0.0000 C   0  0  0  0  0  0  0  0  0  0  0  0
    6.1894    2.1583    0.0000 C   0  0  0  0  0  0  0  0  0  0  0  0
    7.5058    2.8774    0.0000 O   0  0  0  0  0  0  0  0  0  0  0  0
    4.9084    2.9388    0.0000 C   0  0  0  0  0  0  0  0  0  0  0  0
    3.5920    2.2197    0.0000 C   0  0  0  0  0  0  0  0  0  0  0  0
    3.5566    0.7202    0.0000 C   0  0  0  0  0  0  0  0  0  0  0  0
    2.2756    1.5007    0.0000 C   0  0  0  0  0  0  0  0  0  0  0  0
    2.2402    0.0011    0.0000 C   0  0  0  0  0  0  0  0  0  0  0  0
    0.9592    0.7816    0.0000 C   0  0  0  0  0  0  0  0  0  0  0  0
   -0.3572    0.0625    0.0000 C   0  0  0  0  0  0  0  0  0  0  0  0
   -1.6381    0.8430    0.0000 O   0  0  0  0  0  0  0  0  0  0  0  0
   -0.3926   -1.4371    0.0000 C   0  0  0  0  0  0  0  0  0  0  0  0
   -1.7481   -0.7948    0.0000 C   0  0  0  0  0  0  0  0  0  0  0  0
  2  1  1  6
  2  3  1  0
  3  4  1  0
  4  5  1  0
  5  6  2  0
  5  7  1  0
  7  8  1  0
  8  9  1  0
  2 10  1  0
 10 11  1  6
 11 12  1  0
 13 12  1  6
 13 14  1  0
 14 15  1  1
 15 16  1  0
 17 16  1  1
 17 18  1  0
 18 19  1  0
 19 20  1  1
 19 21  1  0
 21 22  1  0
 22 23  1  0
 23 24  1  6
 23 25  1  0
 25 26  1  6
 26 27  1  0
 27 28  1  1
 27 29  1  0
 29 30  1  6
 29 10  1  0
 29 13  1  0
 25 14  1  0
 23 17  1  0
M  END
>  <MS_ID>  (621) 
MS0648

>  <SMILES>  (621) 
C[C@H](CCC(=O)CCO)[C@H]1CC[C@H]2[C@@H]3CC[C@@H]4C[C@H](O)CC[C@]4(C)[C@H]3C[C@H](O)[C@]12C

>  <Structure_dimension>  (621) 
2D

$$$$
MS0649
     RDKit          2D

 30 33  0  0  0  0  0  0  0  0999 V2000
   -5.0361   -2.2421    0.0000 C   0  0  0  0  0  0  0  0  0  0  0  0
   -3.9151   -1.2454    0.0000 C   0  0  0  0  0  0  0  0  0  0  0  0
   -4.2177    0.2237    0.0000 C   0  0  0  0  0  0  0  0  0  0  0  0
   -5.6413    0.6963    0.0000 C   0  0  0  0  0  0  0  0  0  0  0  0
   -5.9439    2.1654    0.0000 C   0  0  0  0  0  0  0  0  0  0  0  0
   -4.8228    3.1621    0.0000 O   0  0  0  0  0  0  0  0  0  0  0  0
   -7.3675    2.6380    0.0000 O   0  0  0  0  0  0  0  0  0  0  0  0
   -2.4915   -1.7180    0.0000 C   0  0  0  0  0  0  0  0  0  0  0  0
   -2.0370   -3.1475    0.0000 C   0  0  0  0  0  0  0  0  0  0  0  0
   -0.5370   -3.1570    0.0000 C   0  0  0  0  0  0  0  0  0  0  0  0
   -0.0645   -1.7333    0.0000 C   0  0  0  0  0  0  0  0  0  0  0  0
    1.3097   -1.1319    0.0000 C   0  0  0  0  0  0  0  0  0  0  0  0
    2.5176   -2.0213    0.0000 C   0  0  0  0  0  0  0  0  0  0  0  0
    2.3514   -3.5120    0.0000 O   0  0  0  0  0  0  0  0  0  0  0  0
    3.5593   -4.4014    0.0000 O   0  0  0  0  0  0  0  0  0  0  0  0
    3.8918   -1.4198    0.0000 C   0  0  0  0  0  0  0  0  0  0  0  0
    4.0580    0.0709    0.0000 C   0  0  0  0  0  0  0  0  0  0  0  0
    5.4321    0.6723    0.0000 C   0  0  0  0  0  0  0  0  0  0  0  0
    5.5984    2.1631    0.0000 C   0  0  0  0  0  0  0  0  0  0  0  0
    6.9725    2.7645    0.0000 O   0  0  0  0  0  0  0  0  0  0  0  0
    4.3904    3.0524    0.0000 C   0  0  0  0  0  0  0  0  0  0  0  0
    3.0163    2.4510    0.0000 C   0  0  0  0  0  0  0  0  0  0  0  0
    2.8501    0.9603    0.0000 C   0  0  0  0  0  0  0  0  0  0  0  0
    1.6421    1.8496    0.0000 C   0  0  0  0  0  0  0  0  0  0  0  0
    1.4759    0.3588    0.0000 C   0  0  0  0  0  0  0  0  0  0  0  0
    0.2680    1.2482    0.0000 C   0  0  0  0  0  0  0  0  0  0  0  0
   -1.1062    0.6468    0.0000 C   0  0  0  0  0  0  0  0  0  0  0  0
   -2.3141    1.5361    0.0000 O   0  0  0  0  0  0  0  0  0  0  0  0
   -1.2724   -0.8440    0.0000 C   0  0  0  0  0  0  0  0  0  0  0  0
   -2.5667   -0.0858    0.0000 C   0  0  0  0  0  0  0  0  0  0  0  0
  2  1  1  6
  2  3  1  0
  3  4  1  0
  4  5  1  0
  5  6  2  0
  5  7  1  0
  2  8  1  0
  8  9  1  6
  9 10  1  0
 11 10  1  6
 11 12  1  0
 12 13  1  1
 13 14  1  1
 14 15  1  0
 13 16  1  0
 17 16  1  1
 17 18  1  0
 18 19  1  0
 19 20  1  1
 19 21  1  0
 21 22  1  0
 22 23  1  0
 23 24  1  6
 23 25  1  0
 25 26  1  6
 26 27  1  0
 27 28  1  1
 27 29  1  0
 29 30  1  6
 29  8  1  0
 29 11  1  0
 25 12  1  0
 23 17  1  0
M  END
>  <MS_ID>  (622) 
MS0649

>  <SMILES>  (622) 
C[C@H](CCC(=O)O)[C@H]1CC[C@H]2[C@@H]3[C@H](OO)C[C@@H]4C[C@H](O)CC[C@]4(C)[C@H]3C[C@H](O)[C@]12C

>  <Structure_dimension>  (622) 
2D

$$$$
MS0650
     RDKit          2D

 32 35  0  0  0  0  0  0  0  0999 V2000
   -5.1569   -2.5516    0.0000 C   0  0  0  0  0  0  0  0  0  0  0  0
   -4.1971   -1.3989    0.0000 C   0  0  0  0  0  0  0  0  0  0  0  0
   -4.7155    0.0087    0.0000 C   0  0  0  0  0  0  0  0  0  0  0  0
   -6.1937    0.2635    0.0000 C   0  0  0  0  0  0  0  0  0  0  0  0
   -6.7121    1.6711    0.0000 C   0  0  0  0  0  0  0  0  0  0  0  0
   -5.7523    2.8238    0.0000 O   0  0  0  0  0  0  0  0  0  0  0  0
   -8.1903    1.9259    0.0000 O   0  0  0  0  0  0  0  0  0  0  0  0
   -2.7189   -1.6538    0.0000 C   0  0  0  0  0  0  0  0  0  0  0  0
   -2.0562   -2.9994    0.0000 C   0  0  0  0  0  0  0  0  0  0  0  0
   -0.5716   -2.7850    0.0000 C   0  0  0  0  0  0  0  0  0  0  0  0
   -0.3168   -1.3068    0.0000 C   0  0  0  0  0  0  0  0  0  0  0  0
    0.9523   -0.5071    0.0000 C   0  0  0  0  0  0  0  0  0  0  0  0
    2.2794   -1.2062    0.0000 C   0  0  0  0  0  0  0  0  0  0  0  0
    2.3374   -2.7051    0.0000 O   0  0  0  0  0  0  0  0  0  0  0  0
    3.6645   -3.4043    0.0000 S   0  0  0  0  0  0  0  0  0  0  0  0
    4.3637   -2.0772    0.0000 O   0  0  0  0  0  0  0  0  0  0  0  0
    2.9654   -4.7314    0.0000 O   0  0  0  0  0  0  0  0  0  0  0  0
    4.9916   -4.1034    0.0000 O   0  0  0  0  0  0  0  0  0  0  0  0
    3.5484   -0.4065    0.0000 C   0  0  0  0  0  0  0  0  0  0  0  0
    3.4903    1.0923    0.0000 C   0  0  0  0  0  0  0  0  0  0  0  0
    4.7594    1.8921    0.0000 C   0  0  0  0  0  0  0  0  0  0  0  0
    4.7013    3.3909    0.0000 C   0  0  0  0  0  0  0  0  0  0  0  0
    5.9703    4.1907    0.0000 O   0  0  0  0  0  0  0  0  0  0  0  0
    3.3742    4.0901    0.0000 C   0  0  0  0  0  0  0  0  0  0  0  0
    2.1052    3.2904    0.0000 C   0  0  0  0  0  0  0  0  0  0  0  0
    2.1632    1.7915    0.0000 C   0  0  0  0  0  0  0  0  0  0  0  0
    0.8361    2.4907    0.0000 C   0  0  0  0  0  0  0  0  0  0  0  0
    0.8942    0.9918    0.0000 C   0  0  0  0  0  0  0  0  0  0  0  0
   -0.4329    1.6909    0.0000 C   0  0  0  0  0  0  0  0  0  0  0  0
   -1.7019    0.8912    0.0000 C   0  0  0  0  0  0  0  0  0  0  0  0
   -1.6439   -0.6077    0.0000 C   0  0  0  0  0  0  0  0  0  0  0  0
   -3.0368   -0.0511    0.0000 C   0  0  0  0  0  0  0  0  0  0  0  0
  2  1  1  6
  2  3  1  0
  3  4  1  0
  4  5  1  0
  5  6  2  0
  5  7  1  0
  2  8  1  0
  8  9  1  6
  9 10  1  0
 11 10  1  6
 11 12  1  0
 12 13  1  1
 13 14  1  1
 14 15  1  0
 15 16  2  0
 15 17  2  0
 15 18  1  0
 13 19  1  0
 20 19  1  1
 20 21  1  0
 21 22  1  0
 22 23  1  6
 22 24  1  0
 24 25  1  0
 25 26  1  0
 26 27  1  6
 26 28  1  0
 28 29  1  6
 29 30  1  0
 30 31  1  0
 31 32  1  6
 31  8  1  0
 31 11  1  0
 28 12  1  0
 26 20  1  0
M  END
>  <MS_ID>  (623) 
MS0650

>  <SMILES>  (623) 
C[C@H](CCC(=O)O)[C@H]1CC[C@H]2[C@@H]3[C@H](OS(=O)(=O)O)C[C@@H]4C[C@@H](O)CC[C@]4(C)[C@H]3CC[C@]12C

>  <Structure_dimension>  (623) 
2D

$$$$
MS0651
     RDKit          2D

 38 42  0  0  0  0  0  0  0  0999 V2000
   -0.9368   -4.9121    0.0000 C   0  0  0  0  0  0  0  0  0  0  0  0
   -0.4368   -3.4979    0.0000 C   0  0  0  0  0  0  0  0  0  0  0  0
   -1.4116   -2.3578    0.0000 C   0  0  0  0  0  0  0  0  0  0  0  0
   -2.8863   -2.6319    0.0000 C   0  0  0  0  0  0  0  0  0  0  0  0
   -3.8611   -1.4918    0.0000 C   0  0  0  0  0  0  0  0  0  0  0  0
   -3.3611   -0.0776    0.0000 O   0  0  0  0  0  0  0  0  0  0  0  0
   -5.3358   -1.7660    0.0000 N   0  0  0  0  0  0  0  0  0  0  0  0
   -6.3106   -0.6259    0.0000 C   0  0  0  0  0  0  0  0  0  0  0  0
   -5.8107    0.7883    0.0000 C   0  0  0  0  0  0  0  0  0  0  0  0
   -6.7854    1.9284    0.0000 C   0  0  0  0  0  0  0  0  0  0  0  0
   -8.2602    1.6543    0.0000 C   0  0  0  0  0  0  0  0  0  0  0  0
   -9.2350    2.7944    0.0000 N   0  0  0  0  0  0  0  0  0  0  0  0
  -10.7097    2.5202    0.0000 O   0  0  0  0  0  0  0  0  0  0  0  0
   -8.7350    4.2086    0.0000 O   0  0  0  0  0  0  0  0  0  0  0  0
   -8.7601    0.2401    0.0000 C   0  0  0  0  0  0  0  0  0  0  0  0
   -7.7854   -0.9000    0.0000 C   0  0  0  0  0  0  0  0  0  0  0  0
    1.0379   -3.2237    0.0000 C   0  0  0  0  0  0  0  0  0  0  0  0
    2.1265   -4.2557    0.0000 C   0  0  0  0  0  0  0  0  0  0  0  0
    3.4444   -3.5392    0.0000 C   0  0  0  0  0  0  0  0  0  0  0  0
    3.1702   -2.0645    0.0000 C   0  0  0  0  0  0  0  0  0  0  0  0
    4.0828   -0.8740    0.0000 C   0  0  0  0  0  0  0  0  0  0  0  0
    5.5700   -1.0690    0.0000 C   0  0  0  0  0  0  0  0  0  0  0  0
    6.1448   -2.4545    0.0000 O   0  0  0  0  0  0  0  0  0  0  0  0
    6.4825    0.1215    0.0000 C   0  0  0  0  0  0  0  0  0  0  0  0
    7.9698   -0.0735    0.0000 O   0  0  0  0  0  0  0  0  0  0  0  0
    5.9078    1.5070    0.0000 C   0  0  0  0  0  0  0  0  0  0  0  0
    6.8203    2.6976    0.0000 C   0  0  0  0  0  0  0  0  0  0  0  0
    6.2455    4.0831    0.0000 C   0  0  0  0  0  0  0  0  0  0  0  0
    7.1580    5.2736    0.0000 O   0  0  0  0  0  0  0  0  0  0  0  0
    4.7582    4.2781    0.0000 C   0  0  0  0  0  0  0  0  0  0  0  0
    3.8457    3.0875    0.0000 C   0  0  0  0  0  0  0  0  0  0  0  0
    4.4205    1.7020    0.0000 C   0  0  0  0  0  0  0  0  0  0  0  0
    2.9332    1.8970    0.0000 C   0  0  0  0  0  0  0  0  0  0  0  0
    3.5080    0.5115    0.0000 C   0  0  0  0  0  0  0  0  0  0  0  0
    2.0207    0.7065    0.0000 C   0  0  0  0  0  0  0  0  0  0  0  0
    1.1082   -0.4840    0.0000 C   0  0  0  0  0  0  0  0  0  0  0  0
    1.6830   -1.8695    0.0000 C   0  0  0  0  0  0  0  0  0  0  0  0
    0.1835   -1.8311    0.0000 C   0  0  0  0  0  0  0  0  0  0  0  0
  2  1  1  6
  2  3  1  0
  3  4  1  0
  4  5  1  0
  5  6  2  0
  5  7  1  0
  7  8  1  0
  8  9  2  0
  9 10  1  0
 10 11  2  0
 11 12  1  0
 12 13  2  0
 12 14  1  0
 11 15  1  0
 15 16  2  0
  2 17  1  0
 17 18  1  6
 18 19  1  0
 20 19  1  6
 20 21  1  0
 21 22  1  1
 22 23  1  1
 22 24  1  0
 24 25  1  1
 24 26  1  0
 26 27  1  1
 27 28  1  0
 28 29  1  1
 28 30  1  0
 30 31  1  0
 31 32  1  0
 32 33  1  6
 32 34  1  0
 34 35  1  6
 35 36  1  0
 36 37  1  0
 37 38  1  6
 16  8  1  0
 37 17  1  0
 37 20  1  0
 34 21  1  0
 32 26  1  0
M  CHG  2  12   1  14  -1
M  END
>  <MS_ID>  (624) 
MS0651

>  <SMILES>  (624) 
C[C@H](CCC(=O)Nc1ccc([N+](=O)[O-])cc1)[C@H]1CC[C@H]2[C@@H]3[C@H](O)[C@H](O)[C@@H]4C[C@H](O)CC[C@]4(C)[C@H]3CC[C@]12C

>  <Structure_dimension>  (624) 
2D

$$$$
MS0652
     RDKit          2D

 29 32  0  0  0  0  0  0  0  0999 V2000
   -7.1069    2.8565    0.0000 C   0  0  0  0  0  0  0  0  0  0  0  0
   -5.7095    2.3112    0.0000 C   0  0  0  0  0  0  0  0  0  0  0  0
   -4.5386    3.2487    0.0000 O   0  0  0  0  0  0  0  0  0  0  0  0
   -5.4831    0.8284    0.0000 C   0  0  0  0  0  0  0  0  0  0  0  0
   -4.0858    0.2830    0.0000 C   0  0  0  0  0  0  0  0  0  0  0  0
   -3.8594   -1.1998    0.0000 C   0  0  0  0  0  0  0  0  0  0  0  0
   -5.0303   -2.1373    0.0000 C   0  0  0  0  0  0  0  0  0  0  0  0
   -2.4620   -1.7451    0.0000 C   0  0  0  0  0  0  0  0  0  0  0  0
   -2.0818   -3.1961    0.0000 C   0  0  0  0  0  0  0  0  0  0  0  0
   -0.5844   -3.2830    0.0000 C   0  0  0  0  0  0  0  0  0  0  0  0
   -0.0390   -1.8856    0.0000 C   0  0  0  0  0  0  0  0  0  0  0  0
    1.3643   -1.3559    0.0000 C   0  0  0  0  0  0  0  0  0  0  0  0
    2.5248   -2.3063    0.0000 C   0  0  0  0  0  0  0  0  0  0  0  0
    2.2819   -3.7865    0.0000 O   0  0  0  0  0  0  0  0  0  0  0  0
    3.9281   -1.7765    0.0000 C   0  0  0  0  0  0  0  0  0  0  0  0
    4.1710   -0.2963    0.0000 C   0  0  0  0  0  0  0  0  0  0  0  0
    5.5743    0.2334    0.0000 C   0  0  0  0  0  0  0  0  0  0  0  0
    5.8172    1.7136    0.0000 C   0  0  0  0  0  0  0  0  0  0  0  0
    7.2205    2.2434    0.0000 O   0  0  0  0  0  0  0  0  0  0  0  0
    4.6568    2.6641    0.0000 C   0  0  0  0  0  0  0  0  0  0  0  0
    3.2534    2.1343    0.0000 C   0  0  0  0  0  0  0  0  0  0  0  0
    3.0105    0.6541    0.0000 C   0  0  0  0  0  0  0  0  0  0  0  0
    1.8501    1.6046    0.0000 C   0  0  0  0  0  0  0  0  0  0  0  0
    1.6072    0.1244    0.0000 C   0  0  0  0  0  0  0  0  0  0  0  0
    0.4467    1.0748    0.0000 C   0  0  0  0  0  0  0  0  0  0  0  0
   -0.9566    0.5450    0.0000 C   0  0  0  0  0  0  0  0  0  0  0  0
   -2.1170    1.4955    0.0000 O   0  0  0  0  0  0  0  0  0  0  0  0
   -1.1995   -0.9352    0.0000 C   0  0  0  0  0  0  0  0  0  0  0  0
   -2.4529   -0.1112    0.0000 C   0  0  0  0  0  0  0  0  0  0  0  0
  1  2  1  0
  2  3  2  0
  2  4  1  0
  4  5  1  0
  5  6  1  0
  6  7  1  6
  6  8  1  0
  8  9  1  6
  9 10  1  0
 11 10  1  6
 11 12  1  0
 12 13  1  1
 13 14  1  1
 13 15  1  0
 16 15  1  1
 16 17  1  0
 17 18  1  0
 18 19  1  1
 18 20  1  0
 20 21  1  0
 21 22  1  0
 22 23  1  6
 22 24  1  0
 24 25  1  6
 25 26  1  0
 26 27  1  1
 26 28  1  0
 28 29  1  6
 28  8  1  0
 28 11  1  0
 24 12  1  0
 22 16  1  0
M  END
>  <MS_ID>  (625) 
MS0652

>  <SMILES>  (625) 
CC(=O)CC[C@@H](C)[C@H]1CC[C@H]2[C@@H]3[C@H](O)C[C@@H]4C[C@H](O)CC[C@]4(C)[C@H]3C[C@H](O)[C@]12C

>  <Structure_dimension>  (625) 
2D

$$$$
MS0653
     RDKit          2D

 38 41  0  0  0  0  0  0  0  0999 V2000
   -5.7480   -2.4808    0.0000 C   0  0  0  0  0  0  0  0  0  0  0  0
   -4.6843   -1.4231    0.0000 C   0  0  0  0  0  0  0  0  0  0  0  0
   -5.0684    0.0269    0.0000 C   0  0  0  0  0  0  0  0  0  0  0  0
   -6.5162    0.4192    0.0000 C   0  0  0  0  0  0  0  0  0  0  0  0
   -6.9003    1.8692    0.0000 C   0  0  0  0  0  0  0  0  0  0  0  0
   -5.8367    2.9268    0.0000 O   0  0  0  0  0  0  0  0  0  0  0  0
   -8.3481    2.2615    0.0000 C   0  0  0  0  0  0  0  0  0  0  0  0
   -9.4118    1.2039    0.0000 O   0  0  0  0  0  0  0  0  0  0  0  0
   -8.7322    3.7115    0.0000 O   0  0  0  0  0  0  0  0  0  0  0  0
   -3.2365   -1.8155    0.0000 C   0  0  0  0  0  0  0  0  0  0  0  0
   -2.7029   -3.2173    0.0000 C   0  0  0  0  0  0  0  0  0  0  0  0
   -1.2048   -3.1431    0.0000 C   0  0  0  0  0  0  0  0  0  0  0  0
   -0.8124   -1.6953    0.0000 C   0  0  0  0  0  0  0  0  0  0  0  0
    0.5260   -1.0181    0.0000 C   0  0  0  0  0  0  0  0  0  0  0  0
    1.7817   -1.8386    0.0000 C   0  0  0  0  0  0  0  0  0  0  0  0
    1.6989   -3.3363    0.0000 O   0  0  0  0  0  0  0  0  0  0  0  0
    2.9546   -4.1569    0.0000 S   0  0  0  0  0  0  0  0  0  0  0  0
    3.7751   -2.9012    0.0000 O   0  0  0  0  0  0  0  0  0  0  0  0
    2.1341   -5.4125    0.0000 O   0  0  0  0  0  0  0  0  0  0  0  0
    4.2103   -4.9774    0.0000 O   0  0  0  0  0  0  0  0  0  0  0  0
    3.1201   -1.1614    0.0000 C   0  0  0  0  0  0  0  0  0  0  0  0
    3.2029    0.3363    0.0000 C   0  0  0  0  0  0  0  0  0  0  0  0
    4.5413    1.0135    0.0000 C   0  0  0  0  0  0  0  0  0  0  0  0
    4.6240    2.5112    0.0000 C   0  0  0  0  0  0  0  0  0  0  0  0
    5.9625    3.1884    0.0000 O   0  0  0  0  0  0  0  0  0  0  0  0
    7.2182    2.3679    0.0000 S   0  0  0  0  0  0  0  0  0  0  0  0
    6.3976    1.1122    0.0000 O   0  0  0  0  0  0  0  0  0  0  0  0
    8.0387    3.6236    0.0000 O   0  0  0  0  0  0  0  0  0  0  0  0
    8.4739    1.5474    0.0000 O   0  0  0  0  0  0  0  0  0  0  0  0
    3.3684    3.3317    0.0000 C   0  0  0  0  0  0  0  0  0  0  0  0
    2.0299    2.6545    0.0000 C   0  0  0  0  0  0  0  0  0  0  0  0
    1.9472    1.1568    0.0000 C   0  0  0  0  0  0  0  0  0  0  0  0
    0.6915    1.9773    0.0000 C   0  0  0  0  0  0  0  0  0  0  0  0
    0.6087    0.4796    0.0000 C   0  0  0  0  0  0  0  0  0  0  0  0
   -0.6469    1.3001    0.0000 C   0  0  0  0  0  0  0  0  0  0  0  0
   -1.9854    0.6229    0.0000 C   0  0  0  0  0  0  0  0  0  0  0  0
   -2.0681   -0.8748    0.0000 C   0  0  0  0  0  0  0  0  0  0  0  0
   -3.4027   -0.1900    0.0000 C   0  0  0  0  0  0  0  0  0  0  0  0
  2  1  1  6
  2  3  1  0
  3  4  1  0
  4  5  1  0
  5  6  2  0
  5  7  1  0
  7  8  2  0
  7  9  1  0
  2 10  1  0
 10 11  1  6
 11 12  1  0
 13 12  1  6
 13 14  1  0
 14 15  1  1
 15 16  1  1
 16 17  1  0
 17 18  2  0
 17 19  2  0
 17 20  1  0
 15 21  1  0
 22 21  1  1
 22 23  1  0
 23 24  1  0
 24 25  1  1
 25 26  1  0
 26 27  2  0
 26 28  2  0
 26 29  1  0
 24 30  1  0
 30 31  1  0
 31 32  1  0
 32 33  1  6
 32 34  1  0
 34 35  1  6
 35 36  1  0
 36 37  1  0
 37 38  1  6
 37 10  1  0
 37 13  1  0
 34 14  1  0
 32 22  1  0
M  END
>  <MS_ID>  (626) 
MS0653

>  <SMILES>  (626) 
C[C@H](CCC(=O)C(=O)O)[C@H]1CC[C@H]2[C@@H]3[C@H](OS(=O)(=O)O)C[C@@H]4C[C@H](OS(=O)(=O)O)CC[C@]4(C)[C@H]3CC[C@]12C

>  <Structure_dimension>  (626) 
2D

$$$$
MS0654
     RDKit          2D

 29 32  0  0  0  0  0  0  0  0999 V2000
   -4.1361   -2.8778    0.0000 C   0  0  0  0  0  0  0  0  0  0  0  0
   -3.1227   -1.7719    0.0000 C   0  0  0  0  0  0  0  0  0  0  0  0
   -3.5738   -0.3413    0.0000 C   0  0  0  0  0  0  0  0  0  0  0  0
   -5.0383   -0.0167    0.0000 C   0  0  0  0  0  0  0  0  0  0  0  0
   -5.4894    1.4138    0.0000 C   0  0  0  0  0  0  0  0  0  0  0  0
   -4.4761    2.5198    0.0000 O   0  0  0  0  0  0  0  0  0  0  0  0
   -6.9539    1.7384    0.0000 C   0  0  0  0  0  0  0  0  0  0  0  0
   -7.4050    3.1690    0.0000 O   0  0  0  0  0  0  0  0  0  0  0  0
   -1.6583   -2.0965    0.0000 C   0  0  0  0  0  0  0  0  0  0  0  0
   -1.0601   -3.4720    0.0000 C   0  0  0  0  0  0  0  0  0  0  0  0
    0.4330   -3.3282    0.0000 C   0  0  0  0  0  0  0  0  0  0  0  0
    0.7576   -1.8638    0.0000 C   0  0  0  0  0  0  0  0  0  0  0  0
    2.0631   -1.1251    0.0000 C   0  0  0  0  0  0  0  0  0  0  0  0
    3.3556   -1.8863    0.0000 C   0  0  0  0  0  0  0  0  0  0  0  0
    3.3426   -3.3863    0.0000 O   0  0  0  0  0  0  0  0  0  0  0  0
    4.6611   -1.1476    0.0000 C   0  0  0  0  0  0  0  0  0  0  0  0
    4.6741    0.3523    0.0000 C   0  0  0  0  0  0  0  0  0  0  0  0
    5.9796    1.0910    0.0000 C   0  0  0  0  0  0  0  0  0  0  0  0
    5.9926    2.5910    0.0000 C   0  0  0  0  0  0  0  0  0  0  0  0
    4.7002    3.3522    0.0000 C   0  0  0  0  0  0  0  0  0  0  0  0
    3.3947    2.6135    0.0000 C   0  0  0  0  0  0  0  0  0  0  0  0
    3.3816    1.1136    0.0000 C   0  0  0  0  0  0  0  0  0  0  0  0
    2.0891    1.8748    0.0000 C   0  0  0  0  0  0  0  0  0  0  0  0
    2.0761    0.3749    0.0000 C   0  0  0  0  0  0  0  0  0  0  0  0
    0.7836    1.1361    0.0000 C   0  0  0  0  0  0  0  0  0  0  0  0
   -0.5219    0.3974    0.0000 C   0  0  0  0  0  0  0  0  0  0  0  0
   -1.8143    1.1587    0.0000 O   0  0  0  0  0  0  0  0  0  0  0  0
   -0.5349   -1.1025    0.0000 C   0  0  0  0  0  0  0  0  0  0  0  0
   -1.8998   -0.4805    0.0000 C   0  0  0  0  0  0  0  0  0  0  0  0
  2  1  1  6
  2  3  1  0
  3  4  1  0
  4  5  1  0
  5  6  2  0
  5  7  1  0
  7  8  1  0
  2  9  1  0
  9 10  1  6
 10 11  1  0
 12 11  1  6
 12 13  1  0
 13 14  1  1
 14 15  1  6
 14 16  1  0
 17 16  1  1
 17 18  1  0
 18 19  1  0
 19 20  1  0
 20 21  1  0
 21 22  1  0
 22 23  1  6
 22 24  1  0
 24 25  1  6
 25 26  1  0
 26 27  1  6
 26 28  1  0
 28 29  1  6
 28  9  1  0
 28 12  1  0
 24 13  1  0
 22 17  1  0
M  END
>  <MS_ID>  (627) 
MS0654

>  <SMILES>  (627) 
C[C@H](CCC(=O)CO)[C@H]1CC[C@H]2[C@@H]3[C@@H](O)C[C@@H]4CCCC[C@]4(C)[C@H]3C[C@@H](O)[C@]12C

>  <Structure_dimension>  (627) 
2D

$$$$
MS0655
     RDKit          2D

 32 35  0  0  0  0  0  0  0  0999 V2000
  -10.8107    3.0070    0.0000 C   0  0  0  0  0  0  0  0  0  0  0  0
   -9.3127    2.9291    0.0000 O   0  0  0  0  0  0  0  0  0  0  0  0
   -8.6311    1.5929    0.0000 C   0  0  0  0  0  0  0  0  0  0  0  0
   -7.1332    1.5150    0.0000 C   0  0  0  0  0  0  0  0  0  0  0  0
   -6.4516    0.1788    0.0000 N   0  0  0  0  0  0  0  0  0  0  0  0
   -4.9536    0.1009    0.0000 C   0  0  0  0  0  0  0  0  0  0  0  0
   -4.1372    1.3592    0.0000 O   0  0  0  0  0  0  0  0  0  0  0  0
   -4.2721   -1.2353    0.0000 C   0  0  0  0  0  0  0  0  0  0  0  0
   -2.7741   -1.3132    0.0000 C   0  0  0  0  0  0  0  0  0  0  0  0
   -2.0926   -2.6494    0.0000 C   0  0  0  0  0  0  0  0  0  0  0  0
   -2.9090   -3.9078    0.0000 C   0  0  0  0  0  0  0  0  0  0  0  0
   -0.5946   -2.7273    0.0000 C   0  0  0  0  0  0  0  0  0  0  0  0
    0.2229   -3.9850    0.0000 C   0  0  0  0  0  0  0  0  0  0  0  0
    1.6716   -3.5962    0.0000 C   0  0  0  0  0  0  0  0  0  0  0  0
    1.7495   -2.0982    0.0000 C   0  0  0  0  0  0  0  0  0  0  0  0
    2.9148   -1.1537    0.0000 C   0  0  0  0  0  0  0  0  0  0  0  0
    4.3154   -1.6907    0.0000 C   0  0  0  0  0  0  0  0  0  0  0  0
    4.5507   -3.1721    0.0000 O   0  0  0  0  0  0  0  0  0  0  0  0
    5.4807   -0.7462    0.0000 C   0  0  0  0  0  0  0  0  0  0  0  0
    5.2455    0.7352    0.0000 C   0  0  0  0  0  0  0  0  0  0  0  0
    6.4108    1.6797    0.0000 C   0  0  0  0  0  0  0  0  0  0  0  0
    6.1755    3.1611    0.0000 C   0  0  0  0  0  0  0  0  0  0  0  0
    7.3408    4.1056    0.0000 O   0  0  0  0  0  0  0  0  0  0  0  0
    4.7749    3.6981    0.0000 C   0  0  0  0  0  0  0  0  0  0  0  0
    3.6096    2.7536    0.0000 C   0  0  0  0  0  0  0  0  0  0  0  0
    3.8449    1.2722    0.0000 C   0  0  0  0  0  0  0  0  0  0  0  0
    2.4443    1.8091    0.0000 C   0  0  0  0  0  0  0  0  0  0  0  0
    2.6795    0.3277    0.0000 C   0  0  0  0  0  0  0  0  0  0  0  0
    1.2789    0.8647    0.0000 C   0  0  0  0  0  0  0  0  0  0  0  0
    0.1136   -0.0798    0.0000 C   0  0  0  0  0  0  0  0  0  0  0  0
    0.3489   -1.5612    0.0000 C   0  0  0  0  0  0  0  0  0  0  0  0
   -1.1002   -1.1736    0.0000 C   0  0  0  0  0  0  0  0  0  0  0  0
  1  2  1  0
  2  3  1  0
  3  4  1  0
  4  5  1  0
  5  6  1  0
  6  7  2  0
  6  8  1  0
  8  9  1  0
  9 10  1  0
 10 11  1  6
 10 12  1  0
 12 13  1  6
 13 14  1  0
 15 14  1  6
 15 16  1  0
 16 17  1  1
 17 18  1  1
 17 19  1  0
 20 19  1  1
 20 21  1  0
 21 22  1  0
 22 23  1  1
 22 24  1  0
 24 25  1  0
 25 26  1  0
 26 27  1  6
 26 28  1  0
 28 29  1  6
 29 30  1  0
 30 31  1  0
 31 32  1  6
 31 12  1  0
 31 15  1  0
 28 16  1  0
 26 20  1  0
M  END
>  <MS_ID>  (628) 
MS0655

>  <SMILES>  (628) 
COCCNC(=O)CC[C@@H](C)[C@H]1CC[C@H]2[C@@H]3[C@H](O)C[C@@H]4C[C@H](O)CC[C@]4(C)[C@H]3CC[C@]12C

>  <Structure_dimension>  (628) 
2D

$$$$
MS0656
     RDKit          2D

 30 33  0  0  0  0  0  0  0  0999 V2000
   -4.5685   -2.6908    0.0000 C   0  0  0  0  0  0  0  0  0  0  0  0
   -3.4838   -1.6548    0.0000 C   0  0  0  0  0  0  0  0  0  0  0  0
   -3.8388   -0.1974    0.0000 C   0  0  0  0  0  0  0  0  0  0  0  0
   -5.2784    0.2240    0.0000 C   0  0  0  0  0  0  0  0  0  0  0  0
   -5.6333    1.6814    0.0000 C   0  0  0  0  0  0  0  0  0  0  0  0
   -4.5486    2.7174    0.0000 O   0  0  0  0  0  0  0  0  0  0  0  0
   -7.0729    2.1027    0.0000 C   0  0  0  0  0  0  0  0  0  0  0  0
   -7.4279    3.5601    0.0000 S   0  0  0  0  0  0  0  0  0  0  0  0
   -2.0442   -2.0761    0.0000 C   0  0  0  0  0  0  0  0  0  0  0  0
   -1.5389   -3.4884    0.0000 C   0  0  0  0  0  0  0  0  0  0  0  0
   -0.0395   -3.4442    0.0000 C   0  0  0  0  0  0  0  0  0  0  0  0
    0.3818   -2.0046    0.0000 C   0  0  0  0  0  0  0  0  0  0  0  0
    1.7336   -1.3544    0.0000 C   0  0  0  0  0  0  0  0  0  0  0  0
    2.9725   -2.1999    0.0000 C   0  0  0  0  0  0  0  0  0  0  0  0
    2.8597   -3.6957    0.0000 O   0  0  0  0  0  0  0  0  0  0  0  0
    4.3243   -1.5497    0.0000 C   0  0  0  0  0  0  0  0  0  0  0  0
    4.4371   -0.0540    0.0000 C   0  0  0  0  0  0  0  0  0  0  0  0
    5.7888    0.5962    0.0000 C   0  0  0  0  0  0  0  0  0  0  0  0
    5.9016    2.0920    0.0000 C   0  0  0  0  0  0  0  0  0  0  0  0
    7.2534    2.7422    0.0000 O   0  0  0  0  0  0  0  0  0  0  0  0
    4.6627    2.9375    0.0000 C   0  0  0  0  0  0  0  0  0  0  0  0
    3.3109    2.2873    0.0000 C   0  0  0  0  0  0  0  0  0  0  0  0
    3.1981    0.7916    0.0000 C   0  0  0  0  0  0  0  0  0  0  0  0
    1.9591    1.6371    0.0000 C   0  0  0  0  0  0  0  0  0  0  0  0
    1.8464    0.1414    0.0000 C   0  0  0  0  0  0  0  0  0  0  0  0
    0.6074    0.9869    0.0000 C   0  0  0  0  0  0  0  0  0  0  0  0
   -0.7444    0.3367    0.0000 C   0  0  0  0  0  0  0  0  0  0  0  0
   -1.9833    1.1823    0.0000 O   0  0  0  0  0  0  0  0  0  0  0  0
   -0.8572   -1.1590    0.0000 C   0  0  0  0  0  0  0  0  0  0  0  0
   -2.1777   -0.4476    0.0000 C   0  0  0  0  0  0  0  0  0  0  0  0
  2  1  1  6
  2  3  1  0
  3  4  1  0
  4  5  1  0
  5  6  2  0
  5  7  1  0
  7  8  1  0
  2  9  1  0
  9 10  1  6
 10 11  1  0
 12 11  1  6
 12 13  1  0
 13 14  1  1
 14 15  1  1
 14 16  1  0
 17 16  1  1
 17 18  1  0
 18 19  1  0
 19 20  1  1
 19 21  1  0
 21 22  1  0
 22 23  1  0
 23 24  1  6
 23 25  1  0
 25 26  1  6
 26 27  1  0
 27 28  1  1
 27 29  1  0
 29 30  1  6
 29  9  1  0
 29 12  1  0
 25 13  1  0
 23 17  1  0
M  END
>  <MS_ID>  (629) 
MS0656

>  <SMILES>  (629) 
C[C@H](CCC(=O)CS)[C@H]1CC[C@H]2[C@@H]3[C@H](O)C[C@@H]4C[C@H](O)CC[C@]4(C)[C@H]3C[C@H](O)[C@]12C

>  <Structure_dimension>  (629) 
2D

$$$$
MS0657
     RDKit          2D

 30 33  0  0  0  0  0  0  0  0999 V2000
   -5.0361   -2.2421    0.0000 C   0  0  0  0  0  0  0  0  0  0  0  0
   -3.9151   -1.2454    0.0000 C   0  0  0  0  0  0  0  0  0  0  0  0
   -4.2177    0.2237    0.0000 C   0  0  0  0  0  0  0  0  0  0  0  0
   -5.6413    0.6963    0.0000 C   0  0  0  0  0  0  0  0  0  0  0  0
   -5.9439    2.1654    0.0000 C   0  0  0  0  0  0  0  0  0  0  0  0
   -4.8228    3.1621    0.0000 O   0  0  0  0  0  0  0  0  0  0  0  0
   -7.3675    2.6380    0.0000 O   0  0  0  0  0  0  0  0  0  0  0  0
   -2.4915   -1.7180    0.0000 C   0  0  0  0  0  0  0  0  0  0  0  0
   -2.0370   -3.1475    0.0000 C   0  0  0  0  0  0  0  0  0  0  0  0
   -0.5370   -3.1570    0.0000 C   0  0  0  0  0  0  0  0  0  0  0  0
   -0.0645   -1.7333    0.0000 C   0  0  0  0  0  0  0  0  0  0  0  0
    1.3097   -1.1319    0.0000 C   0  0  0  0  0  0  0  0  0  0  0  0
    2.5176   -2.0213    0.0000 C   0  0  0  0  0  0  0  0  0  0  0  0
    2.3514   -3.5120    0.0000 C   0  0  0  0  0  0  0  0  0  0  0  0
    3.5593   -4.4014    0.0000 O   0  0  0  0  0  0  0  0  0  0  0  0
    3.8918   -1.4198    0.0000 C   0  0  0  0  0  0  0  0  0  0  0  0
    4.0580    0.0709    0.0000 C   0  0  0  0  0  0  0  0  0  0  0  0
    5.4321    0.6723    0.0000 C   0  0  0  0  0  0  0  0  0  0  0  0
    5.5984    2.1631    0.0000 C   0  0  0  0  0  0  0  0  0  0  0  0
    6.9725    2.7645    0.0000 O   0  0  0  0  0  0  0  0  0  0  0  0
    4.3904    3.0524    0.0000 C   0  0  0  0  0  0  0  0  0  0  0  0
    3.0163    2.4510    0.0000 C   0  0  0  0  0  0  0  0  0  0  0  0
    2.8501    0.9603    0.0000 C   0  0  0  0  0  0  0  0  0  0  0  0
    1.6421    1.8496    0.0000 C   0  0  0  0  0  0  0  0  0  0  0  0
    1.4759    0.3588    0.0000 C   0  0  0  0  0  0  0  0  0  0  0  0
    0.2680    1.2482    0.0000 C   0  0  0  0  0  0  0  0  0  0  0  0
   -1.1062    0.6468    0.0000 C   0  0  0  0  0  0  0  0  0  0  0  0
   -2.3141    1.5361    0.0000 O   0  0  0  0  0  0  0  0  0  0  0  0
   -1.2724   -0.8440    0.0000 C   0  0  0  0  0  0  0  0  0  0  0  0
   -2.5667   -0.0858    0.0000 C   0  0  0  0  0  0  0  0  0  0  0  0
  2  1  1  6
  2  3  1  0
  3  4  1  0
  4  5  1  0
  5  6  2  0
  5  7  1  0
  2  8  1  0
  8  9  1  6
  9 10  1  0
 11 10  1  6
 11 12  1  0
 12 13  1  1
 13 14  1  1
 14 15  1  0
 13 16  1  0
 17 16  1  1
 17 18  1  0
 18 19  1  0
 19 20  1  1
 19 21  1  0
 21 22  1  0
 22 23  1  0
 23 24  1  6
 23 25  1  0
 25 26  1  6
 26 27  1  0
 27 28  2  0
 27 29  1  0
 29 30  1  6
 29  8  1  0
 29 11  1  0
 25 12  1  0
 23 17  1  0
M  END
>  <MS_ID>  (630) 
MS0657

>  <SMILES>  (630) 
C[C@H](CCC(=O)O)[C@H]1CC[C@H]2[C@@H]3[C@H](CO)C[C@@H]4C[C@H](O)CC[C@]4(C)[C@H]3CC(=O)[C@]12C

>  <Structure_dimension>  (630) 
2D

$$$$
MS0658
     RDKit          2D

 31 34  0  0  0  0  0  0  0  0999 V2000
   -2.9977   -3.6783    0.0000 C   0  0  0  0  0  0  0  0  0  0  0  0
   -2.1750   -2.4240    0.0000 C   0  0  0  0  0  0  0  0  0  0  0  0
   -2.8500   -1.0844    0.0000 C   0  0  0  0  0  0  0  0  0  0  0  0
   -4.3475   -0.9991    0.0000 C   0  0  0  0  0  0  0  0  0  0  0  0
   -5.0224    0.3405    0.0000 C   0  0  0  0  0  0  0  0  0  0  0  0
   -4.1998    1.5947    0.0000 O   0  0  0  0  0  0  0  0  0  0  0  0
   -6.5200    0.4258    0.0000 O   0  0  0  0  0  0  0  0  0  0  0  0
   -7.1949    1.7653    0.0000 C   0  0  0  0  0  0  0  0  0  0  0  0
   -8.6925    1.8506    0.0000 C   0  0  0  0  0  0  0  0  0  0  0  0
   -9.3674    3.1902    0.0000 N   0  0  0  0  0  0  0  0  0  0  0  0
   -0.6775   -2.5093    0.0000 C   0  0  0  0  0  0  0  0  0  0  0  0
    0.1338   -3.7710    0.0000 C   0  0  0  0  0  0  0  0  0  0  0  0
    1.5844   -3.3894    0.0000 C   0  0  0  0  0  0  0  0  0  0  0  0
    1.6697   -1.8918    0.0000 C   0  0  0  0  0  0  0  0  0  0  0  0
    2.8397   -0.9531    0.0000 C   0  0  0  0  0  0  0  0  0  0  0  0
    4.2376   -1.4970    0.0000 C   0  0  0  0  0  0  0  0  0  0  0  0
    4.4655   -2.9796    0.0000 O   0  0  0  0  0  0  0  0  0  0  0  0
    5.4076   -0.5583    0.0000 C   0  0  0  0  0  0  0  0  0  0  0  0
    5.1797    0.9243    0.0000 C   0  0  0  0  0  0  0  0  0  0  0  0
    6.3497    1.8629    0.0000 C   0  0  0  0  0  0  0  0  0  0  0  0
    6.1217    3.3455    0.0000 C   0  0  0  0  0  0  0  0  0  0  0  0
    4.7238    3.8894    0.0000 C   0  0  0  0  0  0  0  0  0  0  0  0
    3.5538    2.9507    0.0000 C   0  0  0  0  0  0  0  0  0  0  0  0
    3.7818    1.4682    0.0000 C   0  0  0  0  0  0  0  0  0  0  0  0
    2.3839    2.0121    0.0000 C   0  0  0  0  0  0  0  0  0  0  0  0
    2.6118    0.5295    0.0000 C   0  0  0  0  0  0  0  0  0  0  0  0
    1.2139    1.0734    0.0000 C   0  0  0  0  0  0  0  0  0  0  0  0
    0.0439    0.1347    0.0000 C   0  0  0  0  0  0  0  0  0  0  0  0
   -1.3540    0.6786    0.0000 O   0  0  0  0  0  0  0  0  0  0  0  0
    0.2718   -1.3479    0.0000 C   0  0  0  0  0  0  0  0  0  0  0  0
   -1.1753   -0.9531    0.0000 C   0  0  0  0  0  0  0  0  0  0  0  0
  2  1  1  6
  2  3  1  0
  3  4  1  0
  4  5  1  0
  5  6  2  0
  5  7  1  0
  7  8  1  0
  8  9  1  0
  9 10  1  0
  2 11  1  0
 11 12  1  6
 12 13  1  0
 14 13  1  6
 14 15  1  0
 15 16  1  1
 16 17  1  6
 16 18  1  0
 19 18  1  1
 19 20  1  0
 20 21  1  0
 21 22  1  0
 22 23  1  0
 23 24  1  0
 24 25  1  6
 24 26  1  0
 26 27  1  6
 27 28  1  0
 28 29  1  1
 28 30  1  0
 30 31  1  6
 30 11  1  0
 30 14  1  0
 26 15  1  0
 24 19  1  0
M  END
>  <MS_ID>  (631) 
MS0658

>  <SMILES>  (631) 
C[C@H](CCC(=O)OCCN)[C@H]1CC[C@H]2[C@@H]3[C@@H](O)C[C@@H]4CCCC[C@]4(C)[C@H]3C[C@H](O)[C@]12C

>  <Structure_dimension>  (631) 
2D

$$$$
MS0659
     RDKit          2D

 29 32  0  0  0  0  0  0  0  0999 V2000
   -5.4679   -1.9280    0.0000 C   0  0  0  0  0  0  0  0  0  0  0  0
   -4.2629   -1.0348    0.0000 C   0  0  0  0  0  0  0  0  0  0  0  0
   -4.4339    0.4554    0.0000 C   0  0  0  0  0  0  0  0  0  0  0  0
   -5.8100    1.0524    0.0000 C   0  0  0  0  0  0  0  0  0  0  0  0
   -5.9810    2.5426    0.0000 C   0  0  0  0  0  0  0  0  0  0  0  0
   -4.7760    3.4359    0.0000 O   0  0  0  0  0  0  0  0  0  0  0  0
   -7.3571    3.1396    0.0000 O   0  0  0  0  0  0  0  0  0  0  0  0
   -2.8868   -1.6318    0.0000 C   0  0  0  0  0  0  0  0  0  0  0  0
   -2.5609   -3.0959    0.0000 C   0  0  0  0  0  0  0  0  0  0  0  0
   -1.0677   -3.2385    0.0000 C   0  0  0  0  0  0  0  0  0  0  0  0
   -0.4707   -1.8624    0.0000 C   0  0  0  0  0  0  0  0  0  0  0  0
    0.9514   -1.3853    0.0000 C   0  0  0  0  0  0  0  0  0  0  0  0
    2.0756   -2.3783    0.0000 C   0  0  0  0  0  0  0  0  0  0  0  0
    1.7778   -3.8484    0.0000 O   0  0  0  0  0  0  0  0  0  0  0  0
    3.4977   -1.9011    0.0000 C   0  0  0  0  0  0  0  0  0  0  0  0
    3.7956   -0.4310    0.0000 C   0  0  0  0  0  0  0  0  0  0  0  0
    5.2177    0.0461    0.0000 C   0  0  0  0  0  0  0  0  0  0  0  0
    5.5155    1.5163    0.0000 C   0  0  0  0  0  0  0  0  0  0  0  0
    6.9376    1.9934    0.0000 C   0  0  0  0  0  0  0  0  0  0  0  0
    8.0618    1.0004    0.0000 O   0  0  0  0  0  0  0  0  0  0  0  0
    4.3912    2.5093    0.0000 C   0  0  0  0  0  0  0  0  0  0  0  0
    2.9692    2.0321    0.0000 C   0  0  0  0  0  0  0  0  0  0  0  0
    2.6713    0.5620    0.0000 C   0  0  0  0  0  0  0  0  0  0  0  0
    1.5471    1.5550    0.0000 C   0  0  0  0  0  0  0  0  0  0  0  0
    1.2492    0.0849    0.0000 C   0  0  0  0  0  0  0  0  0  0  0  0
    0.1250    1.0779    0.0000 C   0  0  0  0  0  0  0  0  0  0  0  0
   -1.2971    0.6007    0.0000 C   0  0  0  0  0  0  0  0  0  0  0  0
   -1.5950   -0.8694    0.0000 C   0  0  0  0  0  0  0  0  0  0  0  0
   -2.8169    0.0007    0.0000 C   0  0  0  0  0  0  0  0  0  0  0  0
  2  1  1  6
  2  3  1  0
  3  4  1  0
  4  5  1  0
  5  6  2  0
  5  7  1  0
  2  8  1  0
  8  9  1  6
  9 10  1  0
 11 10  1  6
 11 12  1  0
 12 13  1  1
 13 14  1  6
 13 15  1  0
 16 15  1  1
 16 17  1  0
 17 18  1  0
 18 19  1  1
 19 20  2  0
 18 21  1  0
 21 22  1  0
 22 23  1  0
 23 24  1  6
 23 25  1  0
 25 26  1  6
 26 27  1  0
 27 28  1  0
 28 29  1  6
 28  8  1  0
 28 11  1  0
 25 12  1  0
 23 16  1  0
M  END
>  <MS_ID>  (632) 
MS0659

>  <SMILES>  (632) 
C[C@H](CCC(=O)O)[C@H]1CC[C@H]2[C@@H]3[C@@H](O)C[C@@H]4C[C@H](C=O)CC[C@]4(C)[C@H]3CC[C@]12C

>  <Structure_dimension>  (632) 
2D

$$$$
MS0660
     RDKit          2D

 39 43  0  0  0  0  0  0  0  0999 V2000
   -7.6510   -2.0504    0.0000 C   0  0  0  0  0  0  0  0  0  0  0  0
   -6.4615   -1.1366    0.0000 C   0  0  0  0  0  0  0  0  0  0  0  0
   -6.6581    0.3505    0.0000 C   0  0  0  0  0  0  0  0  0  0  0  0
   -8.0442    0.9238    0.0000 C   0  0  0  0  0  0  0  0  0  0  0  0
   -8.2408    2.4108    0.0000 C   0  0  0  0  0  0  0  0  0  0  0  0
   -7.0513    3.3246    0.0000 O   0  0  0  0  0  0  0  0  0  0  0  0
   -9.6270    2.9841    0.0000 O   0  0  0  0  0  0  0  0  0  0  0  0
   -5.0754   -1.7098    0.0000 C   0  0  0  0  0  0  0  0  0  0  0  0
   -4.7244   -3.1682    0.0000 C   0  0  0  0  0  0  0  0  0  0  0  0
   -3.2289   -3.2851    0.0000 C   0  0  0  0  0  0  0  0  0  0  0  0
   -2.6557   -1.8989    0.0000 C   0  0  0  0  0  0  0  0  0  0  0  0
   -1.2420   -1.3975    0.0000 C   0  0  0  0  0  0  0  0  0  0  0  0
   -0.1008   -2.3710    0.0000 C   0  0  0  0  0  0  0  0  0  0  0  0
   -0.3734   -3.8460    0.0000 O   0  0  0  0  0  0  0  0  0  0  0  0
    1.3128   -1.8695    0.0000 C   0  0  0  0  0  0  0  0  0  0  0  0
    1.5854   -0.3945    0.0000 C   0  0  0  0  0  0  0  0  0  0  0  0
    2.9991    0.1070    0.0000 C   0  0  0  0  0  0  0  0  0  0  0  0
    3.2716    1.5820    0.0000 C   0  0  0  0  0  0  0  0  0  0  0  0
    4.6853    2.0835    0.0000 O   0  0  0  0  0  0  0  0  0  0  0  0
    5.8265    1.1100    0.0000 C   0  0  0  0  0  0  0  0  0  0  0  0
    5.5539   -0.3651    0.0000 O   0  0  0  0  0  0  0  0  0  0  0  0
    6.6950   -1.3386    0.0000 C   0  0  0  0  0  0  0  0  0  0  0  0
    6.4225   -2.8136    0.0000 C   0  0  0  0  0  0  0  0  0  0  0  0
    8.1087   -0.8371    0.0000 C   0  0  0  0  0  0  0  0  0  0  0  0
    9.2499   -1.8107    0.0000 O   0  0  0  0  0  0  0  0  0  0  0  0
    8.3813    0.6379    0.0000 C   0  0  0  0  0  0  0  0  0  0  0  0
    9.7950    1.1394    0.0000 O   0  0  0  0  0  0  0  0  0  0  0  0
    7.2401    1.6114    0.0000 C   0  0  0  0  0  0  0  0  0  0  0  0
    7.5127    3.0865    0.0000 O   0  0  0  0  0  0  0  0  0  0  0  0
    2.1305    2.5556    0.0000 C   0  0  0  0  0  0  0  0  0  0  0  0
    0.7168    2.0541    0.0000 C   0  0  0  0  0  0  0  0  0  0  0  0
    0.4442    0.5791    0.0000 C   0  0  0  0  0  0  0  0  0  0  0  0
   -0.6969    1.5526    0.0000 C   0  0  0  0  0  0  0  0  0  0  0  0
   -0.9694    0.0776    0.0000 C   0  0  0  0  0  0  0  0  0  0  0  0
   -2.1106    1.0511    0.0000 C   0  0  0  0  0  0  0  0  0  0  0  0
   -3.5243    0.5496    0.0000 C   0  0  0  0  0  0  0  0  0  0  0  0
   -4.6654    1.5232    0.0000 O   0  0  0  0  0  0  0  0  0  0  0  0
   -3.7968   -0.9254    0.0000 C   0  0  0  0  0  0  0  0  0  0  0  0
   -5.0335   -0.0765    0.0000 C   0  0  0  0  0  0  0  0  0  0  0  0
  2  1  1  6
  2  3  1  0
  3  4  1  0
  4  5  1  0
  5  6  2  0
  5  7  1  0
  2  8  1  0
  8  9  1  6
  9 10  1  0
 11 10  1  6
 11 12  1  0
 12 13  1  1
 13 14  1  1
 13 15  1  0
 16 15  1  1
 16 17  1  0
 17 18  1  0
 18 19  1  1
 20 19  1  1
 20 21  1  0
 21 22  1  0
 22 23  1  6
 22 24  1  0
 24 25  1  6
 24 26  1  0
 26 27  1  1
 26 28  1  0
 28 29  1  6
 18 30  1  0
 30 31  1  0
 31 32  1  0
 32 33  1  6
 32 34  1  0
 34 35  1  6
 35 36  1  0
 36 37  1  1
 36 38  1  0
 38 39  1  6
 38  8  1  0
 38 11  1  0
 34 12  1  0
 32 16  1  0
 28 20  1  0
M  END
>  <MS_ID>  (633) 
MS0660

>  <SMILES>  (633) 
C[C@H](CCC(=O)O)[C@H]1CC[C@H]2[C@@H]3[C@H](O)C[C@@H]4C[C@H](O[C@@H]5O[C@@H](C)[C@@H](O)[C@H](O)[C@H]5O)CC[C@]4(C)[C@H]3C[C@H](O)[C@]12C

>  <Structure_dimension>  (633) 
2D

$$$$
MS0661
     RDKit          2D

 27 30  0  0  0  0  0  0  0  0999 V2000
   -5.2592   -1.7738    0.0000 C   0  0  0  0  0  0  0  0  0  0  0  0
   -4.0222   -0.9253    0.0000 C   0  0  0  0  0  0  0  0  0  0  0  0
   -4.1386    0.5702    0.0000 C   0  0  0  0  0  0  0  0  0  0  0  0
   -5.4919    1.2172    0.0000 C   0  0  0  0  0  0  0  0  0  0  0  0
   -5.6082    2.7126    0.0000 C   0  0  0  0  0  0  0  0  0  0  0  0
   -6.9615    3.3596    0.0000 O   0  0  0  0  0  0  0  0  0  0  0  0
   -2.6689   -1.5723    0.0000 C   0  0  0  0  0  0  0  0  0  0  0  0
   -2.3969   -3.0474    0.0000 C   0  0  0  0  0  0  0  0  0  0  0  0
   -0.9099   -3.2446    0.0000 C   0  0  0  0  0  0  0  0  0  0  0  0
   -0.2629   -1.8913    0.0000 C   0  0  0  0  0  0  0  0  0  0  0  0
    1.1757   -1.4666    0.0000 C   0  0  0  0  0  0  0  0  0  0  0  0
    2.2628   -2.5001    0.0000 C   0  0  0  0  0  0  0  0  0  0  0  0
    3.7014   -2.0754    0.0000 C   0  0  0  0  0  0  0  0  0  0  0  0
    4.0529   -0.6171    0.0000 C   0  0  0  0  0  0  0  0  0  0  0  0
    5.4915   -0.1924    0.0000 C   0  0  0  0  0  0  0  0  0  0  0  0
    5.8430    1.2658    0.0000 C   0  0  0  0  0  0  0  0  0  0  0  0
    7.2816    1.6906    0.0000 O   0  0  0  0  0  0  0  0  0  0  0  0
    4.7559    2.2994    0.0000 C   0  0  0  0  0  0  0  0  0  0  0  0
    3.3173    1.8746    0.0000 C   0  0  0  0  0  0  0  0  0  0  0  0
    2.9658    0.4164    0.0000 C   0  0  0  0  0  0  0  0  0  0  0  0
    1.8787    1.4499    0.0000 C   0  0  0  0  0  0  0  0  0  0  0  0
    1.5272   -0.0083    0.0000 C   0  0  0  0  0  0  0  0  0  0  0  0
    0.4400    1.0252    0.0000 C   0  0  0  0  0  0  0  0  0  0  0  0
   -0.9986    0.6005    0.0000 C   0  0  0  0  0  0  0  0  0  0  0  0
   -2.0857    1.6340    0.0000 O   0  0  0  0  0  0  0  0  0  0  0  0
   -1.3501   -0.8578    0.0000 C   0  0  0  0  0  0  0  0  0  0  0  0
   -2.5393    0.0565    0.0000 C   0  0  0  0  0  0  0  0  0  0  0  0
  2  1  1  6
  2  3  1  0
  3  4  1  0
  4  5  1  0
  5  6  2  0
  2  7  1  0
  7  8  1  6
  8  9  1  0
 10  9  1  6
 10 11  1  0
 11 12  1  1
 12 13  1  0
 14 13  1  1
 14 15  1  0
 15 16  1  0
 16 17  1  1
 16 18  1  0
 18 19  1  0
 19 20  1  0
 20 21  1  6
 20 22  1  0
 22 23  1  6
 23 24  1  0
 24 25  1  1
 24 26  1  0
 26 27  1  6
 26  7  1  0
 26 10  1  0
 22 11  1  0
 20 14  1  0
M  END
>  <MS_ID>  (634) 
MS0661

>  <SMILES>  (634) 
C[C@H](CCC=O)[C@H]1CC[C@H]2[C@@H]3CC[C@@H]4C[C@H](O)CC[C@]4(C)[C@H]3C[C@H](O)[C@]12C

>  <Structure_dimension>  (634) 
2D

$$$$
MS0662
     RDKit          2D

 39 43  0  0  0  0  0  0  0  0999 V2000
   -8.3199   -1.6780    0.0000 C   0  0  0  0  0  0  0  0  0  0  0  0
   -7.0581   -0.8670    0.0000 C   0  0  0  0  0  0  0  0  0  0  0  0
   -7.1294    0.6313    0.0000 C   0  0  0  0  0  0  0  0  0  0  0  0
   -8.4627    1.3186    0.0000 C   0  0  0  0  0  0  0  0  0  0  0  0
   -8.5341    2.8169    0.0000 C   0  0  0  0  0  0  0  0  0  0  0  0
   -7.2722    3.6279    0.0000 O   0  0  0  0  0  0  0  0  0  0  0  0
   -9.8673    3.5043    0.0000 O   0  0  0  0  0  0  0  0  0  0  0  0
   -5.7248   -1.5543    0.0000 C   0  0  0  0  0  0  0  0  0  0  0  0
   -5.4972   -3.0370    0.0000 C   0  0  0  0  0  0  0  0  0  0  0  0
   -4.0168   -3.2787    0.0000 C   0  0  0  0  0  0  0  0  0  0  0  0
   -3.3295   -1.9454    0.0000 C   0  0  0  0  0  0  0  0  0  0  0  0
   -1.8787   -1.5641    0.0000 C   0  0  0  0  0  0  0  0  0  0  0  0
   -0.8231   -2.6298    0.0000 C   0  0  0  0  0  0  0  0  0  0  0  0
   -1.2183   -4.0768    0.0000 O   0  0  0  0  0  0  0  0  0  0  0  0
    0.6276   -2.2484    0.0000 C   0  0  0  0  0  0  0  0  0  0  0  0
    1.0227   -0.8014    0.0000 C   0  0  0  0  0  0  0  0  0  0  0  0
    2.4734   -0.4201    0.0000 C   0  0  0  0  0  0  0  0  0  0  0  0
    2.8685    1.0270    0.0000 C   0  0  0  0  0  0  0  0  0  0  0  0
    4.3192    1.4083    0.0000 O   0  0  0  0  0  0  0  0  0  0  0  0
    5.3748    0.3426    0.0000 C   0  0  0  0  0  0  0  0  0  0  0  0
    4.9797   -1.1044    0.0000 O   0  0  0  0  0  0  0  0  0  0  0  0
    6.8256    0.7240    0.0000 C   0  0  0  0  0  0  0  0  0  0  0  0
    7.8812   -0.3417    0.0000 C   0  0  0  0  0  0  0  0  0  0  0  0
    9.3319    0.0396    0.0000 C   0  0  0  0  0  0  0  0  0  0  0  0
   10.3875   -1.0261    0.0000 C   0  0  0  0  0  0  0  0  0  0  0  0
   11.8382   -0.6448    0.0000 C   0  0  0  0  0  0  0  0  0  0  0  0
   12.2333    0.8023    0.0000 C   0  0  0  0  0  0  0  0  0  0  0  0
   11.1777    1.8680    0.0000 C   0  0  0  0  0  0  0  0  0  0  0  0
    9.7270    1.4866    0.0000 C   0  0  0  0  0  0  0  0  0  0  0  0
    1.8129    2.0927    0.0000 C   0  0  0  0  0  0  0  0  0  0  0  0
    0.3622    1.7113    0.0000 C   0  0  0  0  0  0  0  0  0  0  0  0
   -0.0329    0.2643    0.0000 C   0  0  0  0  0  0  0  0  0  0  0  0
   -1.0885    1.3300    0.0000 C   0  0  0  0  0  0  0  0  0  0  0  0
   -1.4836   -0.1170    0.0000 C   0  0  0  0  0  0  0  0  0  0  0  0
   -2.5392    0.9487    0.0000 C   0  0  0  0  0  0  0  0  0  0  0  0
   -3.9900    0.5673    0.0000 C   0  0  0  0  0  0  0  0  0  0  0  0
   -5.0456    1.6330    0.0000 O   0  0  0  0  0  0  0  0  0  0  0  0
   -4.3851   -0.8797    0.0000 C   0  0  0  0  0  0  0  0  0  0  0  0
   -5.5463    0.0698    0.0000 C   0  0  0  0  0  0  0  0  0  0  0  0
  2  1  1  6
  2  3  1  0
  3  4  1  0
  4  5  1  0
  5  6  2  0
  5  7  1  0
  2  8  1  0
  8  9  1  6
  9 10  1  0
 11 10  1  6
 11 12  1  0
 12 13  1  1
 13 14  1  1
 13 15  1  0
 16 15  1  1
 16 17  1  0
 17 18  1  0
 18 19  1  1
 19 20  1  0
 20 21  2  0
 20 22  1  0
 22 23  2  0
 23 24  1  0
 24 25  2  0
 25 26  1  0
 26 27  2  0
 27 28  1  0
 28 29  2  0
 18 30  1  0
 30 31  1  0
 31 32  1  0
 32 33  1  6
 32 34  1  0
 34 35  1  6
 35 36  1  0
 36 37  1  1
 36 38  1  0
 38 39  1  6
 38  8  1  0
 38 11  1  0
 34 12  1  0
 32 16  1  0
 29 24  1  0
M  END
>  <MS_ID>  (635) 
MS0662

>  <SMILES>  (635) 
C[C@H](CCC(=O)O)[C@H]1CC[C@H]2[C@@H]3[C@H](O)C[C@@H]4C[C@H](OC(=O)/C=C/c5ccccc5)CC[C@]4(C)[C@H]3C[C@H](O)[C@]12C

>  <Structure_dimension>  (635) 
2D

$$$$
MS0663
     RDKit          2D

 34 37  0  0  0  0  0  0  0  0999 V2000
   -2.4018   -4.1785    0.0000 C   0  0  0  0  0  0  0  0  0  0  0  0
   -1.6536   -2.8784    0.0000 C   0  0  0  0  0  0  0  0  0  0  0  0
   -2.4055   -1.5804    0.0000 C   0  0  0  0  0  0  0  0  0  0  0  0
   -3.9055   -1.5826    0.0000 C   0  0  0  0  0  0  0  0  0  0  0  0
   -4.6574   -0.2846    0.0000 C   0  0  0  0  0  0  0  0  0  0  0  0
   -3.9092    1.0155    0.0000 O   0  0  0  0  0  0  0  0  0  0  0  0
   -6.1574   -0.2867    0.0000 O   0  0  0  0  0  0  0  0  0  0  0  0
   -6.9092    1.0112    0.0000 C   0  0  0  0  0  0  0  0  0  0  0  0
   -8.4092    1.0091    0.0000 C   0  0  0  0  0  0  0  0  0  0  0  0
   -9.1611    2.3071    0.0000 C   0  0  0  0  0  0  0  0  0  0  0  0
   -8.4129    3.6072    0.0000 O   0  0  0  0  0  0  0  0  0  0  0  0
  -10.6611    2.3049    0.0000 O   0  0  0  0  0  0  0  0  0  0  0  0
   -0.1536   -2.8762    0.0000 C   0  0  0  0  0  0  0  0  0  0  0  0
    0.7298   -4.0885    0.0000 C   0  0  0  0  0  0  0  0  0  0  0  0
    2.1557   -3.6229    0.0000 C   0  0  0  0  0  0  0  0  0  0  0  0
    2.1535   -2.1229    0.0000 C   0  0  0  0  0  0  0  0  0  0  0  0
    3.2668   -1.1176    0.0000 C   0  0  0  0  0  0  0  0  0  0  0  0
    4.6941   -1.5791    0.0000 C   0  0  0  0  0  0  0  0  0  0  0  0
    5.0080   -3.0459    0.0000 O   0  0  0  0  0  0  0  0  0  0  0  0
    5.8073   -0.5738    0.0000 C   0  0  0  0  0  0  0  0  0  0  0  0
    5.4934    0.8929    0.0000 C   0  0  0  0  0  0  0  0  0  0  0  0
    6.6067    1.8982    0.0000 C   0  0  0  0  0  0  0  0  0  0  0  0
    6.2927    3.3650    0.0000 C   0  0  0  0  0  0  0  0  0  0  0  0
    7.4060    4.3703    0.0000 O   0  0  0  0  0  0  0  0  0  0  0  0
    4.8655    3.8265    0.0000 C   0  0  0  0  0  0  0  0  0  0  0  0
    3.7522    2.8212    0.0000 C   0  0  0  0  0  0  0  0  0  0  0  0
    4.0661    1.3544    0.0000 C   0  0  0  0  0  0  0  0  0  0  0  0
    2.6389    1.8159    0.0000 C   0  0  0  0  0  0  0  0  0  0  0  0
    2.9529    0.3491    0.0000 C   0  0  0  0  0  0  0  0  0  0  0  0
    1.5256    0.8106    0.0000 C   0  0  0  0  0  0  0  0  0  0  0  0
    0.4123   -0.1947    0.0000 C   0  0  0  0  0  0  0  0  0  0  0  0
   -1.0149    0.2668    0.0000 O   0  0  0  0  0  0  0  0  0  0  0  0
    0.7263   -1.6614    0.0000 C   0  0  0  0  0  0  0  0  0  0  0  0
   -0.7414   -1.3517    0.0000 C   0  0  0  0  0  0  0  0  0  0  0  0
  2  1  1  6
  2  3  1  0
  3  4  1  0
  4  5  1  0
  5  6  2  0
  5  7  1  0
  7  8  1  0
  8  9  1  0
  9 10  1  0
 10 11  2  0
 10 12  1  0
  2 13  1  0
 13 14  1  6
 14 15  1  0
 16 15  1  6
 16 17  1  0
 17 18  1  1
 18 19  1  1
 18 20  1  0
 21 20  1  1
 21 22  1  0
 22 23  1  0
 23 24  1  1
 23 25  1  0
 25 26  1  0
 26 27  1  0
 27 28  1  6
 27 29  1  0
 29 30  1  6
 30 31  1  0
 31 32  1  1
 31 33  1  0
 33 34  1  6
 33 13  1  0
 33 16  1  0
 29 17  1  0
 27 21  1  0
M  END
>  <MS_ID>  (636) 
MS0663

>  <SMILES>  (636) 
C[C@H](CCC(=O)OCCC(=O)O)[C@H]1CC[C@H]2[C@@H]3[C@H](O)C[C@@H]4C[C@H](O)CC[C@]4(C)[C@H]3C[C@H](O)[C@]12C

>  <Structure_dimension>  (636) 
2D

$$$$
MS0664
     RDKit          2D

 29 32  0  0  0  0  0  0  0  0999 V2000
   -5.0303   -2.1373    0.0000 C   0  0  0  0  0  0  0  0  0  0  0  0
   -3.8594   -1.1998    0.0000 C   0  0  0  0  0  0  0  0  0  0  0  0
   -4.0858    0.2830    0.0000 C   0  0  0  0  0  0  0  0  0  0  0  0
   -5.4831    0.8284    0.0000 C   0  0  0  0  0  0  0  0  0  0  0  0
   -5.7095    2.3112    0.0000 C   0  0  0  0  0  0  0  0  0  0  0  0
   -4.5386    3.2487    0.0000 O   0  0  0  0  0  0  0  0  0  0  0  0
   -7.1069    2.8565    0.0000 O   0  0  0  0  0  0  0  0  0  0  0  0
   -2.4620   -1.7451    0.0000 C   0  0  0  0  0  0  0  0  0  0  0  0
   -2.0818   -3.1961    0.0000 C   0  0  0  0  0  0  0  0  0  0  0  0
   -0.5844   -3.2830    0.0000 C   0  0  0  0  0  0  0  0  0  0  0  0
   -0.0390   -1.8856    0.0000 C   0  0  0  0  0  0  0  0  0  0  0  0
    1.3643   -1.3559    0.0000 C   0  0  0  0  0  0  0  0  0  0  0  0
    2.5248   -2.3063    0.0000 C   0  0  0  0  0  0  0  0  0  0  0  0
    2.2819   -3.7865    0.0000 O   0  0  0  0  0  0  0  0  0  0  0  0
    3.9281   -1.7765    0.0000 C   0  0  0  0  0  0  0  0  0  0  0  0
    4.1710   -0.2963    0.0000 C   0  0  0  0  0  0  0  0  0  0  0  0
    5.5743    0.2334    0.0000 C   0  0  0  0  0  0  0  0  0  0  0  0
    5.8172    1.7136    0.0000 C   0  0  0  0  0  0  0  0  0  0  0  0
    7.2205    2.2434    0.0000 O   0  0  0  0  0  0  0  0  0  0  0  0
    4.6568    2.6641    0.0000 C   0  0  0  0  0  0  0  0  0  0  0  0
    3.2534    2.1343    0.0000 C   0  0  0  0  0  0  0  0  0  0  0  0
    3.0105    0.6541    0.0000 C   0  0  0  0  0  0  0  0  0  0  0  0
    1.8501    1.6046    0.0000 C   0  0  0  0  0  0  0  0  0  0  0  0
    1.6072    0.1244    0.0000 C   0  0  0  0  0  0  0  0  0  0  0  0
    0.4467    1.0748    0.0000 C   0  0  0  0  0  0  0  0  0  0  0  0
   -0.9566    0.5450    0.0000 C   0  0  0  0  0  0  0  0  0  0  0  0
   -2.1170    1.4955    0.0000 O   0  0  0  0  0  0  0  0  0  0  0  0
   -1.1995   -0.9352    0.0000 C   0  0  0  0  0  0  0  0  0  0  0  0
   -2.4529   -0.1112    0.0000 C   0  0  0  0  0  0  0  0  0  0  0  0
  2  1  1  6
  2  3  1  0
  3  4  1  0
  4  5  1  0
  5  6  2  0
  5  7  1  0
  2  8  1  0
  8  9  1  6
  9 10  1  0
 11 10  1  6
 11 12  1  0
 12 13  1  1
 13 14  1  1
 13 15  1  0
 16 15  1  1
 16 17  1  0
 17 18  1  0
 18 19  1  1
 18 20  1  0
 20 21  1  0
 21 22  1  0
 22 23  1  6
 22 24  1  0
 24 25  1  1
 25 26  1  0
 26 27  1  6
 26 28  1  0
 28 29  1  6
 28  8  1  0
 28 11  1  0
 24 12  1  0
 22 16  1  0
M  END
>  <MS_ID>  (637) 
MS0664

>  <SMILES>  (637) 
C[C@H](CCC(=O)O)[C@H]1CC[C@H]2[C@@H]3[C@H](O)C[C@@H]4C[C@H](O)CC[C@]4(C)[C@@H]3C[C@@H](O)[C@]12C

>  <Structure_dimension>  (637) 
2D

$$$$
MS0665
     RDKit          2D

 32 35  0  0  0  0  0  0  0  0999 V2000
   -3.0684   -3.9444    0.0000 C   0  0  0  0  0  0  0  0  0  0  0  0
   -2.2742   -2.6719    0.0000 C   0  0  0  0  0  0  0  0  0  0  0  0
   -2.9791   -1.3479    0.0000 C   0  0  0  0  0  0  0  0  0  0  0  0
   -4.4782   -1.2963    0.0000 C   0  0  0  0  0  0  0  0  0  0  0  0
   -5.1832    0.0277    0.0000 C   0  0  0  0  0  0  0  0  0  0  0  0
   -6.6823    0.0792    0.0000 O   0  0  0  0  0  0  0  0  0  0  0  0
   -4.3890    1.3002    0.0000 O   0  0  0  0  0  0  0  0  0  0  0  0
   -5.0939    2.6242    0.0000 S   0  0  0  0  0  0  0  0  0  0  0  0
   -6.4180    1.9193    0.0000 O   0  0  0  0  0  0  0  0  0  0  0  0
   -3.7699    3.3292    0.0000 O   0  0  0  0  0  0  0  0  0  0  0  0
   -5.7989    3.9483    0.0000 O   0  0  0  0  0  0  0  0  0  0  0  0
   -0.7751   -2.7234    0.0000 C   0  0  0  0  0  0  0  0  0  0  0  0
    0.0644   -3.9665    0.0000 C   0  0  0  0  0  0  0  0  0  0  0  0
    1.5061   -3.5523    0.0000 C   0  0  0  0  0  0  0  0  0  0  0  0
    1.5576   -2.0532    0.0000 C   0  0  0  0  0  0  0  0  0  0  0  0
    2.7061   -1.0884    0.0000 C   0  0  0  0  0  0  0  0  0  0  0  0
    4.1160   -1.6006    0.0000 C   0  0  0  0  0  0  0  0  0  0  0  0
    4.3772   -3.0777    0.0000 O   0  0  0  0  0  0  0  0  0  0  0  0
    5.2645   -0.6358    0.0000 C   0  0  0  0  0  0  0  0  0  0  0  0
    5.0032    0.8413    0.0000 C   0  0  0  0  0  0  0  0  0  0  0  0
    6.1517    1.8061    0.0000 C   0  0  0  0  0  0  0  0  0  0  0  0
    5.8905    3.2832    0.0000 C   0  0  0  0  0  0  0  0  0  0  0  0
    4.4806    3.7954    0.0000 C   0  0  0  0  0  0  0  0  0  0  0  0
    3.3321    2.8306    0.0000 C   0  0  0  0  0  0  0  0  0  0  0  0
    3.5934    1.3535    0.0000 C   0  0  0  0  0  0  0  0  0  0  0  0
    2.1836    1.8658    0.0000 C   0  0  0  0  0  0  0  0  0  0  0  0
    2.4449    0.3887    0.0000 C   0  0  0  0  0  0  0  0  0  0  0  0
    1.0350    0.9010    0.0000 C   0  0  0  0  0  0  0  0  0  0  0  0
   -0.1135   -0.0638    0.0000 C   0  0  0  0  0  0  0  0  0  0  0  0
   -1.5233    0.4484    0.0000 O   0  0  0  0  0  0  0  0  0  0  0  0
    0.1478   -1.5409    0.0000 C   0  0  0  0  0  0  0  0  0  0  0  0
   -1.3079   -1.1788    0.0000 C   0  0  0  0  0  0  0  0  0  0  0  0
  2  1  1  6
  2  3  1  0
  3  4  1  0
  4  5  1  0
  5  6  2  0
  5  7  1  0
  7  8  1  0
  8  9  2  0
  8 10  2  0
  8 11  1  0
  2 12  1  0
 12 13  1  6
 13 14  1  0
 15 14  1  6
 15 16  1  0
 16 17  1  1
 17 18  1  1
 17 19  1  0
 20 19  1  1
 20 21  1  0
 21 22  1  0
 22 23  1  0
 23 24  1  0
 24 25  1  0
 25 26  1  6
 25 27  1  0
 27 28  1  6
 28 29  1  0
 29 30  1  6
 29 31  1  0
 31 32  1  6
 31 12  1  0
 31 15  1  0
 27 16  1  0
 25 20  1  0
M  END
>  <MS_ID>  (638) 
MS0665

>  <SMILES>  (638) 
C[C@H](CCC(=O)OS(=O)(=O)O)[C@H]1CC[C@H]2[C@@H]3[C@H](O)C[C@@H]4CCCC[C@]4(C)[C@H]3C[C@@H](O)[C@]12C

>  <Structure_dimension>  (638) 
2D

$$$$
MS0666
     RDKit          2D

 32 35  0  0  0  0  0  0  0  0999 V2000
   -3.9539   -2.9832    0.0000 C   0  0  0  0  0  0  0  0  0  0  0  0
   -2.9202   -1.8962    0.0000 C   0  0  0  0  0  0  0  0  0  0  0  0
   -3.3447   -0.4575    0.0000 C   0  0  0  0  0  0  0  0  0  0  0  0
   -4.8029   -0.1058    0.0000 C   0  0  0  0  0  0  0  0  0  0  0  0
   -5.2274    1.3329    0.0000 C   0  0  0  0  0  0  0  0  0  0  0  0
   -4.1937    2.4198    0.0000 O   0  0  0  0  0  0  0  0  0  0  0  0
   -6.6856    1.6846    0.0000 C   0  0  0  0  0  0  0  0  0  0  0  0
   -7.0373    0.2264    0.0000 C   0  0  0  0  0  0  0  0  0  0  0  0
   -6.3339    3.1427    0.0000 C   0  0  0  0  0  0  0  0  0  0  0  0
   -8.1438    2.0363    0.0000 S   0  0  0  0  0  0  0  0  0  0  0  0
   -1.4620   -2.2479    0.0000 C   0  0  0  0  0  0  0  0  0  0  0  0
   -0.8894   -3.6343    0.0000 C   0  0  0  0  0  0  0  0  0  0  0  0
    0.6061   -3.5182    0.0000 C   0  0  0  0  0  0  0  0  0  0  0  0
    0.9578   -2.0600    0.0000 C   0  0  0  0  0  0  0  0  0  0  0  0
    2.2768   -1.3457    0.0000 C   0  0  0  0  0  0  0  0  0  0  0  0
    3.5549   -2.1307    0.0000 C   0  0  0  0  0  0  0  0  0  0  0  0
    3.5141   -3.6302    0.0000 O   0  0  0  0  0  0  0  0  0  0  0  0
    4.8739   -1.4164    0.0000 C   0  0  0  0  0  0  0  0  0  0  0  0
    4.9147    0.0830    0.0000 C   0  0  0  0  0  0  0  0  0  0  0  0
    6.2337    0.7974    0.0000 C   0  0  0  0  0  0  0  0  0  0  0  0
    6.2745    2.2968    0.0000 C   0  0  0  0  0  0  0  0  0  0  0  0
    7.5935    3.0112    0.0000 O   0  0  0  0  0  0  0  0  0  0  0  0
    4.9964    3.0819    0.0000 C   0  0  0  0  0  0  0  0  0  0  0  0
    3.6774    2.3676    0.0000 C   0  0  0  0  0  0  0  0  0  0  0  0
    3.6366    0.8681    0.0000 C   0  0  0  0  0  0  0  0  0  0  0  0
    2.3584    1.6532    0.0000 C   0  0  0  0  0  0  0  0  0  0  0  0
    2.3176    0.1538    0.0000 C   0  0  0  0  0  0  0  0  0  0  0  0
    1.0395    0.9389    0.0000 C   0  0  0  0  0  0  0  0  0  0  0  0
   -0.2795    0.2245    0.0000 C   0  0  0  0  0  0  0  0  0  0  0  0
   -1.5577    1.0096    0.0000 O   0  0  0  0  0  0  0  0  0  0  0  0
   -0.3204   -1.2749    0.0000 C   0  0  0  0  0  0  0  0  0  0  0  0
   -1.6736   -0.6277    0.0000 C   0  0  0  0  0  0  0  0  0  0  0  0
  2  1  1  6
  2  3  1  0
  3  4  1  0
  4  5  1  0
  5  6  2  0
  5  7  1  0
  7  8  1  0
  7  9  1  0
  7 10  1  0
  2 11  1  0
 11 12  1  6
 12 13  1  0
 14 13  1  6
 14 15  1  0
 15 16  1  1
 16 17  1  1
 16 18  1  0
 19 18  1  1
 19 20  1  0
 20 21  1  0
 21 22  1  1
 21 23  1  0
 23 24  1  0
 24 25  1  0
 25 26  1  6
 25 27  1  0
 27 28  1  6
 28 29  1  0
 29 30  1  1
 29 31  1  0
 31 32  1  6
 31 11  1  0
 31 14  1  0
 27 15  1  0
 25 19  1  0
M  END
>  <MS_ID>  (639) 
MS0666

>  <SMILES>  (639) 
C[C@H](CCC(=O)C(C)(C)S)[C@H]1CC[C@H]2[C@@H]3[C@H](O)C[C@@H]4C[C@H](O)CC[C@]4(C)[C@H]3C[C@H](O)[C@]12C

>  <Structure_dimension>  (639) 
2D

$$$$
MS0667
     RDKit          2D

 29 32  0  0  0  0  0  0  0  0999 V2000
   -4.7935   -2.5443    0.0000 C   0  0  0  0  0  0  0  0  0  0  0  0
   -3.6816   -1.5375    0.0000 C   0  0  0  0  0  0  0  0  0  0  0  0
   -3.9975   -0.0712    0.0000 C   0  0  0  0  0  0  0  0  0  0  0  0
   -5.4254    0.3884    0.0000 C   0  0  0  0  0  0  0  0  0  0  0  0
   -5.7413    1.8547    0.0000 C   0  0  0  0  0  0  0  0  0  0  0  0
   -7.1692    2.3143    0.0000 O   0  0  0  0  0  0  0  0  0  0  0  0
   -4.6294    2.8615    0.0000 O   0  0  0  0  0  0  0  0  0  0  0  0
   -4.9453    4.3279    0.0000 O   0  0  0  0  0  0  0  0  0  0  0  0
   -2.2537   -1.9971    0.0000 C   0  0  0  0  0  0  0  0  0  0  0  0
   -1.7862   -3.4224    0.0000 C   0  0  0  0  0  0  0  0  0  0  0  0
   -0.2862   -3.4182    0.0000 C   0  0  0  0  0  0  0  0  0  0  0  0
    0.1733   -1.9903    0.0000 C   0  0  0  0  0  0  0  0  0  0  0  0
    1.5420   -1.3764    0.0000 C   0  0  0  0  0  0  0  0  0  0  0  0
    2.7579   -2.2547    0.0000 C   0  0  0  0  0  0  0  0  0  0  0  0
    2.6053   -3.7470    0.0000 O   0  0  0  0  0  0  0  0  0  0  0  0
    4.1265   -1.6408    0.0000 C   0  0  0  0  0  0  0  0  0  0  0  0
    4.2792   -0.1486    0.0000 C   0  0  0  0  0  0  0  0  0  0  0  0
    5.6478    0.4653    0.0000 C   0  0  0  0  0  0  0  0  0  0  0  0
    5.8005    1.9575    0.0000 C   0  0  0  0  0  0  0  0  0  0  0  0
    7.1691    2.5714    0.0000 O   0  0  0  0  0  0  0  0  0  0  0  0
    4.5845    2.8358    0.0000 C   0  0  0  0  0  0  0  0  0  0  0  0
    3.2159    2.2219    0.0000 C   0  0  0  0  0  0  0  0  0  0  0  0
    3.0632    0.7297    0.0000 C   0  0  0  0  0  0  0  0  0  0  0  0
    1.8473    1.6080    0.0000 C   0  0  0  0  0  0  0  0  0  0  0  0
    1.6946    0.1158    0.0000 C   0  0  0  0  0  0  0  0  0  0  0  0
    0.4786    0.9941    0.0000 C   0  0  0  0  0  0  0  0  0  0  0  0
   -0.8900    0.3802    0.0000 C   0  0  0  0  0  0  0  0  0  0  0  0
   -1.0426   -1.1120    0.0000 C   0  0  0  0  0  0  0  0  0  0  0  0
   -2.3437   -0.3657    0.0000 C   0  0  0  0  0  0  0  0  0  0  0  0
  2  1  1  6
  2  3  1  0
  3  4  1  0
  4  5  1  0
  5  6  2  0
  5  7  1  0
  7  8  1  0
  2  9  1  0
  9 10  1  6
 10 11  1  0
 12 11  1  6
 12 13  1  0
 13 14  1  1
 14 15  1  6
 14 16  1  0
 17 16  1  1
 17 18  1  0
 18 19  1  0
 19 20  1  6
 19 21  1  0
 21 22  1  0
 22 23  1  0
 23 24  1  6
 23 25  1  0
 25 26  1  6
 26 27  1  0
 27 28  1  0
 28 29  1  6
 28  9  1  0
 28 12  1  0
 25 13  1  0
 23 17  1  0
M  END
>  <MS_ID>  (640) 
MS0667

>  <SMILES>  (640) 
C[C@H](CCC(=O)OO)[C@H]1CC[C@H]2[C@@H]3[C@@H](O)C[C@@H]4C[C@@H](O)CC[C@]4(C)[C@H]3CC[C@]12C

>  <Structure_dimension>  (640) 
2D

$$$$
MS0668
     RDKit          2D

 31 34  0  0  0  0  0  0  0  0999 V2000
   -2.9977   -3.6783    0.0000 C   0  0  0  0  0  0  0  0  0  0  0  0
   -2.1750   -2.4240    0.0000 C   0  0  0  0  0  0  0  0  0  0  0  0
   -2.8500   -1.0844    0.0000 C   0  0  0  0  0  0  0  0  0  0  0  0
   -4.3475   -0.9991    0.0000 C   0  0  0  0  0  0  0  0  0  0  0  0
   -5.0224    0.3405    0.0000 C   0  0  0  0  0  0  0  0  0  0  0  0
   -4.1998    1.5947    0.0000 O   0  0  0  0  0  0  0  0  0  0  0  0
   -6.5200    0.4258    0.0000 O   0  0  0  0  0  0  0  0  0  0  0  0
   -7.1949    1.7653    0.0000 C   0  0  0  0  0  0  0  0  0  0  0  0
   -8.6925    1.8506    0.0000 C   0  0  0  0  0  0  0  0  0  0  0  0
   -9.3674    3.1902    0.0000 O   0  0  0  0  0  0  0  0  0  0  0  0
   -0.6775   -2.5093    0.0000 C   0  0  0  0  0  0  0  0  0  0  0  0
    0.1338   -3.7710    0.0000 C   0  0  0  0  0  0  0  0  0  0  0  0
    1.5844   -3.3894    0.0000 C   0  0  0  0  0  0  0  0  0  0  0  0
    1.6697   -1.8918    0.0000 C   0  0  0  0  0  0  0  0  0  0  0  0
    2.8397   -0.9531    0.0000 C   0  0  0  0  0  0  0  0  0  0  0  0
    4.2376   -1.4970    0.0000 C   0  0  0  0  0  0  0  0  0  0  0  0
    4.4655   -2.9796    0.0000 O   0  0  0  0  0  0  0  0  0  0  0  0
    5.4076   -0.5583    0.0000 C   0  0  0  0  0  0  0  0  0  0  0  0
    5.1797    0.9243    0.0000 C   0  0  0  0  0  0  0  0  0  0  0  0
    6.3497    1.8629    0.0000 C   0  0  0  0  0  0  0  0  0  0  0  0
    6.1217    3.3455    0.0000 C   0  0  0  0  0  0  0  0  0  0  0  0
    4.7238    3.8894    0.0000 C   0  0  0  0  0  0  0  0  0  0  0  0
    3.5538    2.9507    0.0000 C   0  0  0  0  0  0  0  0  0  0  0  0
    3.7818    1.4682    0.0000 C   0  0  0  0  0  0  0  0  0  0  0  0
    2.3839    2.0121    0.0000 C   0  0  0  0  0  0  0  0  0  0  0  0
    2.6118    0.5295    0.0000 C   0  0  0  0  0  0  0  0  0  0  0  0
    1.2139    1.0734    0.0000 C   0  0  0  0  0  0  0  0  0  0  0  0
    0.0439    0.1347    0.0000 C   0  0  0  0  0  0  0  0  0  0  0  0
   -1.3540    0.6786    0.0000 O   0  0  0  0  0  0  0  0  0  0  0  0
    0.2718   -1.3479    0.0000 C   0  0  0  0  0  0  0  0  0  0  0  0
   -1.1753   -0.9531    0.0000 C   0  0  0  0  0  0  0  0  0  0  0  0
  2  1  1  6
  2  3  1  0
  3  4  1  0
  4  5  1  0
  5  6  2  0
  5  7  1  0
  7  8  1  0
  8  9  1  0
  9 10  1  0
  2 11  1  0
 11 12  1  6
 12 13  1  0
 14 13  1  6
 14 15  1  0
 15 16  1  1
 16 17  1  6
 16 18  1  0
 19 18  1  1
 19 20  1  0
 20 21  1  0
 21 22  1  0
 22 23  1  0
 23 24  1  0
 24 25  1  6
 24 26  1  0
 26 27  1  6
 27 28  1  0
 28 29  1  1
 28 30  1  0
 30 31  1  6
 30 11  1  0
 30 14  1  0
 26 15  1  0
 24 19  1  0
M  END
>  <MS_ID>  (641) 
MS0668

>  <SMILES>  (641) 
C[C@H](CCC(=O)OCCO)[C@H]1CC[C@H]2[C@@H]3[C@@H](O)C[C@@H]4CCCC[C@]4(C)[C@H]3C[C@H](O)[C@]12C

>  <Structure_dimension>  (641) 
2D

$$$$
MS0669
     RDKit          2D

 28 31  0  0  0  0  0  0  0  0999 V2000
   -5.1275   -2.0302    0.0000 C   0  0  0  0  0  0  0  0  0  0  0  0
   -3.9468   -1.1050    0.0000 C   0  0  0  0  0  0  0  0  0  0  0  0
   -4.1576    0.3801    0.0000 C   0  0  0  0  0  0  0  0  0  0  0  0
   -5.5492    0.9401    0.0000 C   0  0  0  0  0  0  0  0  0  0  0  0
   -5.7600    2.4252    0.0000 C   0  0  0  0  0  0  0  0  0  0  0  0
   -4.5793    3.3503    0.0000 O   0  0  0  0  0  0  0  0  0  0  0  0
   -7.1516    2.9851    0.0000 O   0  0  0  0  0  0  0  0  0  0  0  0
   -2.5552   -1.6650    0.0000 C   0  0  0  0  0  0  0  0  0  0  0  0
   -2.1903   -3.1199    0.0000 C   0  0  0  0  0  0  0  0  0  0  0  0
   -0.6938   -3.2225    0.0000 C   0  0  0  0  0  0  0  0  0  0  0  0
   -0.1339   -1.8309    0.0000 C   0  0  0  0  0  0  0  0  0  0  0  0
    1.2750   -1.3159    0.0000 C   0  0  0  0  0  0  0  0  0  0  0  0
    2.4254   -2.2785    0.0000 C   0  0  0  0  0  0  0  0  0  0  0  0
    2.1670   -3.7560    0.0000 N   0  0  0  0  0  0  0  0  0  0  0  0
    3.8342   -1.7635    0.0000 C   0  0  0  0  0  0  0  0  0  0  0  0
    4.0926   -0.2859    0.0000 C   0  0  0  0  0  0  0  0  0  0  0  0
    5.5014    0.2291    0.0000 C   0  0  0  0  0  0  0  0  0  0  0  0
    5.7598    1.7067    0.0000 C   0  0  0  0  0  0  0  0  0  0  0  0
    7.1687    2.2217    0.0000 O   0  0  0  0  0  0  0  0  0  0  0  0
    4.6094    2.6692    0.0000 C   0  0  0  0  0  0  0  0  0  0  0  0
    3.2006    2.1542    0.0000 C   0  0  0  0  0  0  0  0  0  0  0  0
    2.9422    0.6767    0.0000 C   0  0  0  0  0  0  0  0  0  0  0  0
    1.7918    1.6392    0.0000 C   0  0  0  0  0  0  0  0  0  0  0  0
    1.5334    0.1617    0.0000 C   0  0  0  0  0  0  0  0  0  0  0  0
    0.3830    1.1242    0.0000 C   0  0  0  0  0  0  0  0  0  0  0  0
   -1.0259    0.6093    0.0000 C   0  0  0  0  0  0  0  0  0  0  0  0
   -1.2843   -0.8683    0.0000 C   0  0  0  0  0  0  0  0  0  0  0  0
   -2.5290   -0.0313    0.0000 C   0  0  0  0  0  0  0  0  0  0  0  0
  2  1  1  6
  2  3  1  0
  3  4  1  0
  4  5  1  0
  5  6  2  0
  5  7  1  0
  2  8  1  0
  8  9  1  6
  9 10  1  0
 11 10  1  6
 11 12  1  0
 12 13  1  1
 13 14  1  1
 13 15  1  0
 16 15  1  1
 16 17  1  0
 17 18  1  0
 18 19  1  1
 18 20  1  0
 20 21  1  0
 21 22  1  0
 22 23  1  6
 22 24  1  0
 24 25  1  6
 25 26  1  0
 26 27  1  0
 27 28  1  6
 27  8  1  0
 27 11  1  0
 24 12  1  0
 22 16  1  0
M  END
>  <MS_ID>  (642) 
MS0669

>  <SMILES>  (642) 
C[C@H](CCC(=O)O)[C@H]1CC[C@H]2[C@@H]3[C@H](N)C[C@@H]4C[C@H](O)CC[C@]4(C)[C@H]3CC[C@]12C

>  <Structure_dimension>  (642) 
2D

$$$$
MS0670
     RDKit          2D

 31 34  0  0  0  0  0  0  0  0999 V2000
   -3.1067   -3.9074    0.0000 C   0  0  0  0  0  0  0  0  0  0  0  0
   -2.2559   -2.6721    0.0000 C   0  0  0  0  0  0  0  0  0  0  0  0
   -2.9003   -1.3176    0.0000 C   0  0  0  0  0  0  0  0  0  0  0  0
   -4.3956   -1.1984    0.0000 C   0  0  0  0  0  0  0  0  0  0  0  0
   -5.0401    0.1561    0.0000 C   0  0  0  0  0  0  0  0  0  0  0  0
   -6.5353    0.2752    0.0000 O   0  0  0  0  0  0  0  0  0  0  0  0
   -4.1892    1.3914    0.0000 O   0  0  0  0  0  0  0  0  0  0  0  0
   -4.8337    2.7460    0.0000 S   0  0  0  0  0  0  0  0  0  0  0  0
   -6.1882    2.1015    0.0000 O   0  0  0  0  0  0  0  0  0  0  0  0
   -3.4792    3.3904    0.0000 O   0  0  0  0  0  0  0  0  0  0  0  0
   -5.4781    4.1005    0.0000 O   0  0  0  0  0  0  0  0  0  0  0  0
   -0.7606   -2.7912    0.0000 C   0  0  0  0  0  0  0  0  0  0  0  0
    0.0219   -4.0709    0.0000 C   0  0  0  0  0  0  0  0  0  0  0  0
    1.4808   -3.7222    0.0000 C   0  0  0  0  0  0  0  0  0  0  0  0
    1.5999   -2.2269    0.0000 C   0  0  0  0  0  0  0  0  0  0  0  0
    2.7908   -1.3150    0.0000 C   0  0  0  0  0  0  0  0  0  0  0  0
    4.1761   -1.8903    0.0000 C   0  0  0  0  0  0  0  0  0  0  0  0
    5.3670   -0.9784    0.0000 C   0  0  0  0  0  0  0  0  0  0  0  0
    5.1727    0.5090    0.0000 C   0  0  0  0  0  0  0  0  0  0  0  0
    6.3636    1.4210    0.0000 C   0  0  0  0  0  0  0  0  0  0  0  0
    6.1692    2.9083    0.0000 C   0  0  0  0  0  0  0  0  0  0  0  0
    4.7840    3.4837    0.0000 C   0  0  0  0  0  0  0  0  0  0  0  0
    3.5931    2.5717    0.0000 C   0  0  0  0  0  0  0  0  0  0  0  0
    3.7874    1.0844    0.0000 C   0  0  0  0  0  0  0  0  0  0  0  0
    2.4021    1.6598    0.0000 C   0  0  0  0  0  0  0  0  0  0  0  0
    2.5965    0.1724    0.0000 C   0  0  0  0  0  0  0  0  0  0  0  0
    1.2112    0.7478    0.0000 C   0  0  0  0  0  0  0  0  0  0  0  0
    0.0203   -0.1642    0.0000 C   0  0  0  0  0  0  0  0  0  0  0  0
   -1.3650    0.4112    0.0000 O   0  0  0  0  0  0  0  0  0  0  0  0
    0.2146   -1.6516    0.0000 C   0  0  0  0  0  0  0  0  0  0  0  0
   -1.2232   -1.2241    0.0000 C   0  0  0  0  0  0  0  0  0  0  0  0
  2  1  1  6
  2  3  1  0
  3  4  1  0
  4  5  1  0
  5  6  2  0
  5  7  1  0
  7  8  1  0
  8  9  2  0
  8 10  2  0
  8 11  1  0
  2 12  1  0
 12 13  1  6
 13 14  1  0
 15 14  1  6
 15 16  1  0
 16 17  1  1
 17 18  1  0
 19 18  1  1
 19 20  1  0
 20 21  1  0
 21 22  1  0
 22 23  1  0
 23 24  1  0
 24 25  1  6
 24 26  1  0
 26 27  1  6
 27 28  1  0
 28 29  1  6
 28 30  1  0
 30 31  1  6
 30 12  1  0
 30 15  1  0
 26 16  1  0
 24 19  1  0
M  END
>  <MS_ID>  (643) 
MS0670

>  <SMILES>  (643) 
C[C@H](CCC(=O)OS(=O)(=O)O)[C@H]1CC[C@H]2[C@@H]3CC[C@@H]4CCCC[C@]4(C)[C@H]3C[C@@H](O)[C@]12C

>  <Structure_dimension>  (643) 
2D

$$$$
MS0672
     RDKit          2D

 39 43  0  0  0  0  0  0  0  0999 V2000
   -8.0325   -2.2018    0.0000 C   0  0  0  0  0  0  0  0  0  0  0  0
   -6.8746   -1.2481    0.0000 C   0  0  0  0  0  0  0  0  0  0  0  0
   -7.1216    0.2314    0.0000 C   0  0  0  0  0  0  0  0  0  0  0  0
   -8.5264    0.7573    0.0000 C   0  0  0  0  0  0  0  0  0  0  0  0
   -8.7734    2.2368    0.0000 C   0  0  0  0  0  0  0  0  0  0  0  0
   -7.6156    3.1905    0.0000 O   0  0  0  0  0  0  0  0  0  0  0  0
  -10.1782    2.7627    0.0000 O   0  0  0  0  0  0  0  0  0  0  0  0
   -5.4699   -1.7740    0.0000 C   0  0  0  0  0  0  0  0  0  0  0  0
   -5.0696   -3.2196    0.0000 C   0  0  0  0  0  0  0  0  0  0  0  0
   -3.5710   -3.2856    0.0000 C   0  0  0  0  0  0  0  0  0  0  0  0
   -3.0452   -1.8808    0.0000 C   0  0  0  0  0  0  0  0  0  0  0  0
   -1.6493   -1.3317    0.0000 C   0  0  0  0  0  0  0  0  0  0  0  0
   -0.4758   -2.2659    0.0000 C   0  0  0  0  0  0  0  0  0  0  0  0
    0.9201   -1.7167    0.0000 C   0  0  0  0  0  0  0  0  0  0  0  0
    1.1424   -0.2333    0.0000 C   0  0  0  0  0  0  0  0  0  0  0  0
    2.5382    0.3159    0.0000 C   0  0  0  0  0  0  0  0  0  0  0  0
    2.7606    1.7993    0.0000 C   0  0  0  0  0  0  0  0  0  0  0  0
    4.1564    2.3485    0.0000 O   0  0  0  0  0  0  0  0  0  0  0  0
    5.3299    1.4143    0.0000 C   0  0  0  0  0  0  0  0  0  0  0  0
    5.1076   -0.0692    0.0000 O   0  0  0  0  0  0  0  0  0  0  0  0
    6.2812   -1.0034    0.0000 C   0  0  0  0  0  0  0  0  0  0  0  0
    6.0588   -2.4868    0.0000 C   0  0  0  0  0  0  0  0  0  0  0  0
    7.2324   -3.4211    0.0000 O   0  0  0  0  0  0  0  0  0  0  0  0
    4.6630   -3.0360    0.0000 O   0  0  0  0  0  0  0  0  0  0  0  0
    7.6770   -0.4542    0.0000 C   0  0  0  0  0  0  0  0  0  0  0  0
    8.8505   -1.3885    0.0000 O   0  0  0  0  0  0  0  0  0  0  0  0
    7.8993    1.0292    0.0000 C   0  0  0  0  0  0  0  0  0  0  0  0
    9.2952    1.5784    0.0000 O   0  0  0  0  0  0  0  0  0  0  0  0
    6.7258    1.9635    0.0000 C   0  0  0  0  0  0  0  0  0  0  0  0
    6.9481    3.4469    0.0000 O   0  0  0  0  0  0  0  0  0  0  0  0
    1.5870    2.7336    0.0000 C   0  0  0  0  0  0  0  0  0  0  0  0
    0.1912    2.1844    0.0000 C   0  0  0  0  0  0  0  0  0  0  0  0
   -0.0311    0.7010    0.0000 C   0  0  0  0  0  0  0  0  0  0  0  0
   -1.2047    1.6352    0.0000 C   0  0  0  0  0  0  0  0  0  0  0  0
   -1.4270    0.1518    0.0000 C   0  0  0  0  0  0  0  0  0  0  0  0
   -2.6005    1.0860    0.0000 C   0  0  0  0  0  0  0  0  0  0  0  0
   -3.9964    0.5368    0.0000 C   0  0  0  0  0  0  0  0  0  0  0  0
   -4.2187   -0.9466    0.0000 C   0  0  0  0  0  0  0  0  0  0  0  0
   -5.4834   -0.1401    0.0000 C   0  0  0  0  0  0  0  0  0  0  0  0
  2  1  1  6
  2  3  1  0
  3  4  1  0
  4  5  1  0
  5  6  2  0
  5  7  1  0
  2  8  1  0
  8  9  1  6
  9 10  1  0
 11 10  1  6
 11 12  1  0
 12 13  1  1
 13 14  1  0
 15 14  1  1
 15 16  1  0
 16 17  1  0
 17 18  1  6
 19 18  1  1
 19 20  1  0
 20 21  1  0
 21 22  1  1
 22 23  2  0
 22 24  1  0
 21 25  1  0
 25 26  1  1
 25 27  1  0
 27 28  1  6
 27 29  1  0
 29 30  1  6
 17 31  1  0
 31 32  1  0
 32 33  1  0
 33 34  1  6
 33 35  1  0
 35 36  1  6
 36 37  1  0
 37 38  1  0
 38 39  1  6
 38  8  1  0
 38 11  1  0
 35 12  1  0
 33 15  1  0
 29 19  1  0
M  END
>  <MS_ID>  (644) 
MS0672

>  <SMILES>  (644) 
C[C@H](CCC(=O)O)[C@H]1CC[C@H]2[C@@H]3CC[C@@H]4C[C@@H](O[C@@H]5O[C@H](C(=O)O)[C@H](O)[C@@H](O)[C@H]5O)CC[C@]4(C)[C@H]3CC[C@]12C

>  <Structure_dimension>  (644) 
2D

$$$$
MS0673
     RDKit          2D

 39 43  0  0  0  0  0  0  0  0999 V2000
    0.1734   -5.0172    0.0000 C   0  0  0  0  0  0  0  0  0  0  0  0
    0.6701   -3.6018    0.0000 C   0  0  0  0  0  0  0  0  0  0  0  0
   -0.3073   -2.4640    0.0000 C   0  0  0  0  0  0  0  0  0  0  0  0
   -1.7814   -2.7415    0.0000 C   0  0  0  0  0  0  0  0  0  0  0  0
   -2.7588   -1.6037    0.0000 C   0  0  0  0  0  0  0  0  0  0  0  0
   -2.2621   -0.1883    0.0000 O   0  0  0  0  0  0  0  0  0  0  0  0
   -4.2329   -1.8813    0.0000 N   0  0  0  0  0  0  0  0  0  0  0  0
   -5.2103   -0.7434    0.0000 C   0  0  0  0  0  0  0  0  0  0  0  0
   -6.6844   -1.0210    0.0000 C   0  0  0  0  0  0  0  0  0  0  0  0
   -7.6619    0.1168    0.0000 C   0  0  0  0  0  0  0  0  0  0  0  0
   -7.1652    1.5322    0.0000 C   0  0  0  0  0  0  0  0  0  0  0  0
   -8.1426    2.6700    0.0000 C   0  0  0  0  0  0  0  0  0  0  0  0
   -9.6167    2.3925    0.0000 C   0  0  0  0  0  0  0  0  0  0  0  0
  -10.5941    3.5303    0.0000 O   0  0  0  0  0  0  0  0  0  0  0  0
  -10.1134    0.9771    0.0000 C   0  0  0  0  0  0  0  0  0  0  0  0
   -9.1359   -0.1607    0.0000 C   0  0  0  0  0  0  0  0  0  0  0  0
   -4.7137    0.6719    0.0000 C   0  0  0  0  0  0  0  0  0  0  0  0
   -3.2396    0.9495    0.0000 O   0  0  0  0  0  0  0  0  0  0  0  0
   -5.6911    1.8098    0.0000 O   0  0  0  0  0  0  0  0  0  0  0  0
    2.1442   -3.3243    0.0000 C   0  0  0  0  0  0  0  0  0  0  0  0
    3.2352   -4.3537    0.0000 C   0  0  0  0  0  0  0  0  0  0  0  0
    4.5514   -3.6342    0.0000 C   0  0  0  0  0  0  0  0  0  0  0  0
    4.2738   -2.1601    0.0000 C   0  0  0  0  0  0  0  0  0  0  0  0
    5.1836   -0.9675    0.0000 C   0  0  0  0  0  0  0  0  0  0  0  0
    6.6713   -1.1590    0.0000 C   0  0  0  0  0  0  0  0  0  0  0  0
    7.5811    0.0336    0.0000 C   0  0  0  0  0  0  0  0  0  0  0  0
    7.0031    1.4178    0.0000 C   0  0  0  0  0  0  0  0  0  0  0  0
    7.9128    2.6104    0.0000 C   0  0  0  0  0  0  0  0  0  0  0  0
    7.3349    3.9946    0.0000 C   0  0  0  0  0  0  0  0  0  0  0  0
    8.2446    5.1872    0.0000 O   0  0  0  0  0  0  0  0  0  0  0  0
    5.8471    4.1861    0.0000 C   0  0  0  0  0  0  0  0  0  0  0  0
    4.9374    2.9935    0.0000 C   0  0  0  0  0  0  0  0  0  0  0  0
    5.5154    1.6093    0.0000 C   0  0  0  0  0  0  0  0  0  0  0  0
    4.0276    1.8009    0.0000 C   0  0  0  0  0  0  0  0  0  0  0  0
    4.6056    0.4167    0.0000 C   0  0  0  0  0  0  0  0  0  0  0  0
    3.1179    0.6082    0.0000 C   0  0  0  0  0  0  0  0  0  0  0  0
    2.2081   -0.5844    0.0000 C   0  0  0  0  0  0  0  0  0  0  0  0
    2.7861   -1.9686    0.0000 C   0  0  0  0  0  0  0  0  0  0  0  0
    1.2865   -1.9336    0.0000 C   0  0  0  0  0  0  0  0  0  0  0  0
  2  1  1  6
  2  3  1  0
  3  4  1  0
  4  5  1  0
  5  6  2  0
  5  7  1  0
  7  8  1  0
  8  9  1  1
  9 10  1  0
 10 11  2  0
 11 12  1  0
 12 13  2  0
 13 14  1  0
 13 15  1  0
 15 16  2  0
  8 17  1  0
 17 18  2  0
 17 19  1  0
  2 20  1  0
 20 21  1  6
 21 22  1  0
 23 22  1  6
 23 24  1  0
 24 25  1  1
 25 26  1  0
 27 26  1  1
 27 28  1  0
 28 29  1  0
 29 30  1  1
 29 31  1  0
 31 32  1  0
 32 33  1  0
 33 34  1  6
 33 35  1  0
 35 36  1  6
 36 37  1  0
 37 38  1  0
 38 39  1  6
 16 10  1  0
 38 20  1  0
 38 23  1  0
 35 24  1  0
 33 27  1  0
M  END
>  <MS_ID>  (645) 
MS0673

>  <SMILES>  (645) 
C[C@H](CCC(=O)N[C@@H](Cc1ccc(O)cc1)C(=O)O)[C@H]1CC[C@H]2[C@@H]3CC[C@@H]4C[C@H](O)CC[C@]4(C)[C@H]3CC[C@]12C

>  <Structure_dimension>  (645) 
2D

$$$$
MS0674
     RDKit          2D

 26 29  0  0  0  0  0  0  0  0999 V2000
   -5.3583   -1.6509    0.0000 C   0  0  0  0  0  0  0  0  0  0  0  0
   -4.1119   -0.8164    0.0000 C   0  0  0  0  0  0  0  0  0  0  0  0
   -4.2114    0.6803    0.0000 C   0  0  0  0  0  0  0  0  0  0  0  0
   -5.5574    1.3424    0.0000 C   0  0  0  0  0  0  0  0  0  0  0  0
   -5.6569    2.8391    0.0000 C   0  0  0  0  0  0  0  0  0  0  0  0
   -7.0028    3.5013    0.0000 O   0  0  0  0  0  0  0  0  0  0  0  0
   -2.7659   -1.4785    0.0000 C   0  0  0  0  0  0  0  0  0  0  0  0
   -2.5105   -2.9566    0.0000 C   0  0  0  0  0  0  0  0  0  0  0  0
   -1.0258   -3.1704    0.0000 C   0  0  0  0  0  0  0  0  0  0  0  0
   -0.3637   -1.8245    0.0000 C   0  0  0  0  0  0  0  0  0  0  0  0
    1.0796   -1.4159    0.0000 C   0  0  0  0  0  0  0  0  0  0  0  0
    2.1551   -2.4616    0.0000 C   0  0  0  0  0  0  0  0  0  0  0  0
    3.5984   -2.0530    0.0000 C   0  0  0  0  0  0  0  0  0  0  0  0
    3.9662   -0.5988    0.0000 C   0  0  0  0  0  0  0  0  0  0  0  0
    5.4095   -0.1903    0.0000 C   0  0  0  0  0  0  0  0  0  0  0  0
    5.7773    1.2639    0.0000 C   0  0  0  0  0  0  0  0  0  0  0  0
    7.2206    1.6725    0.0000 O   0  0  0  0  0  0  0  0  0  0  0  0
    4.7019    2.3096    0.0000 C   0  0  0  0  0  0  0  0  0  0  0  0
    3.2586    1.9010    0.0000 C   0  0  0  0  0  0  0  0  0  0  0  0
    2.8908    0.4468    0.0000 C   0  0  0  0  0  0  0  0  0  0  0  0
    1.8153    1.4925    0.0000 C   0  0  0  0  0  0  0  0  0  0  0  0
    1.4475    0.0383    0.0000 C   0  0  0  0  0  0  0  0  0  0  0  0
    0.3720    1.0839    0.0000 C   0  0  0  0  0  0  0  0  0  0  0  0
   -1.0713    0.6754    0.0000 C   0  0  0  0  0  0  0  0  0  0  0  0
   -1.4391   -0.7788    0.0000 C   0  0  0  0  0  0  0  0  0  0  0  0
   -2.6180    0.1487    0.0000 C   0  0  0  0  0  0  0  0  0  0  0  0
  2  1  1  6
  2  3  1  0
  3  4  1  0
  4  5  1  0
  5  6  2  0
  2  7  1  0
  7  8  1  6
  8  9  1  0
 10  9  1  6
 10 11  1  0
 11 12  1  1
 12 13  1  0
 14 13  1  1
 14 15  1  0
 15 16  1  0
 16 17  1  1
 16 18  1  0
 18 19  1  0
 19 20  1  0
 20 21  1  6
 20 22  1  0
 22 23  1  6
 23 24  1  0
 24 25  1  0
 25 26  1  6
 25  7  1  0
 25 10  1  0
 22 11  1  0
 20 14  1  0
M  END
>  <MS_ID>  (646) 
MS0674

>  <SMILES>  (646) 
C[C@H](CCC=O)[C@H]1CC[C@H]2[C@@H]3CC[C@@H]4C[C@H](O)CC[C@]4(C)[C@H]3CC[C@]12C

>  <Structure_dimension>  (646) 
2D

$$$$
MS0675
     RDKit          2D

 29 32  0  0  0  0  0  0  0  0999 V2000
   -5.0303   -2.1373    0.0000 C   0  0  0  0  0  0  0  0  0  0  0  0
   -3.8594   -1.1998    0.0000 C   0  0  0  0  0  0  0  0  0  0  0  0
   -4.0858    0.2830    0.0000 C   0  0  0  0  0  0  0  0  0  0  0  0
   -5.4831    0.8284    0.0000 C   0  0  0  0  0  0  0  0  0  0  0  0
   -5.7095    2.3112    0.0000 C   0  0  0  0  0  0  0  0  0  0  0  0
   -4.5386    3.2487    0.0000 O   0  0  0  0  0  0  0  0  0  0  0  0
   -7.1069    2.8565    0.0000 O   0  0  0  0  0  0  0  0  0  0  0  0
   -2.4620   -1.7451    0.0000 C   0  0  0  0  0  0  0  0  0  0  0  0
   -2.0818   -3.1961    0.0000 C   0  0  0  0  0  0  0  0  0  0  0  0
   -0.5844   -3.2830    0.0000 C   0  0  0  0  0  0  0  0  0  0  0  0
   -0.0390   -1.8856    0.0000 C   0  0  0  0  0  0  0  0  0  0  0  0
    1.3643   -1.3559    0.0000 C   0  0  0  0  0  0  0  0  0  0  0  0
    2.5248   -2.3063    0.0000 C   0  0  0  0  0  0  0  0  0  0  0  0
    2.2819   -3.7865    0.0000 O   0  0  0  0  0  0  0  0  0  0  0  0
    3.9281   -1.7765    0.0000 C   0  0  0  0  0  0  0  0  0  0  0  0
    4.1710   -0.2963    0.0000 C   0  0  0  0  0  0  0  0  0  0  0  0
    5.5743    0.2334    0.0000 C   0  0  0  0  0  0  0  0  0  0  0  0
    5.8172    1.7136    0.0000 C   0  0  0  0  0  0  0  0  0  0  0  0
    7.2205    2.2434    0.0000 O   0  0  0  0  0  0  0  0  0  0  0  0
    4.6568    2.6641    0.0000 C   0  0  0  0  0  0  0  0  0  0  0  0
    3.2534    2.1343    0.0000 C   0  0  0  0  0  0  0  0  0  0  0  0
    3.0105    0.6541    0.0000 C   0  0  0  0  0  0  0  0  0  0  0  0
    1.8501    1.6046    0.0000 C   0  0  0  0  0  0  0  0  0  0  0  0
    1.6072    0.1244    0.0000 C   0  0  0  0  0  0  0  0  0  0  0  0
    0.4467    1.0748    0.0000 C   0  0  0  0  0  0  0  0  0  0  0  0
   -0.9566    0.5450    0.0000 C   0  0  0  0  0  0  0  0  0  0  0  0
   -2.1170    1.4955    0.0000 O   0  0  0  0  0  0  0  0  0  0  0  0
   -1.1995   -0.9352    0.0000 C   0  0  0  0  0  0  0  0  0  0  0  0
   -2.4529   -0.1112    0.0000 C   0  0  0  0  0  0  0  0  0  0  0  0
  2  1  1  6
  2  3  1  0
  3  4  1  0
  4  5  1  0
  5  6  2  0
  5  7  1  0
  2  8  1  0
  8  9  1  6
  9 10  1  0
 11 10  1  6
 11 12  1  0
 12 13  1  1
 13 14  1  1
 13 15  1  0
 16 15  1  1
 16 17  1  0
 17 18  1  0
 18 19  1  1
 18 20  1  0
 20 21  1  0
 21 22  1  0
 22 23  1  6
 22 24  1  0
 24 25  1  1
 25 26  1  0
 26 27  1  1
 26 28  1  0
 28 29  1  6
 28  8  1  0
 28 11  1  0
 24 12  1  0
 22 16  1  0
M  END
>  <MS_ID>  (647) 
MS0675

>  <SMILES>  (647) 
C[C@H](CCC(=O)O)[C@H]1CC[C@H]2[C@@H]3[C@H](O)C[C@@H]4C[C@H](O)CC[C@]4(C)[C@@H]3C[C@H](O)[C@]12C

>  <Structure_dimension>  (647) 
2D

$$$$
MS0676
     RDKit          2D

 34 37  0  0  0  0  0  0  0  0999 V2000
   -5.8320   -2.3958    0.0000 C   0  0  0  0  0  0  0  0  0  0  0  0
   -4.6621   -1.4570    0.0000 C   0  0  0  0  0  0  0  0  0  0  0  0
   -4.8903    0.0256    0.0000 C   0  0  0  0  0  0  0  0  0  0  0  0
   -6.2882    0.5693    0.0000 C   0  0  0  0  0  0  0  0  0  0  0  0
   -6.5164    2.0518    0.0000 C   0  0  0  0  0  0  0  0  0  0  0  0
   -5.3465    2.9907    0.0000 O   0  0  0  0  0  0  0  0  0  0  0  0
   -7.9144    2.5955    0.0000 C   0  0  0  0  0  0  0  0  0  0  0  0
   -8.1425    4.0781    0.0000 O   0  0  0  0  0  0  0  0  0  0  0  0
   -3.2641   -2.0007    0.0000 C   0  0  0  0  0  0  0  0  0  0  0  0
   -2.8823   -3.4513    0.0000 C   0  0  0  0  0  0  0  0  0  0  0  0
   -1.3847   -3.5364    0.0000 C   0  0  0  0  0  0  0  0  0  0  0  0
   -0.8410   -2.1384    0.0000 C   0  0  0  0  0  0  0  0  0  0  0  0
    0.5617   -1.6070    0.0000 C   0  0  0  0  0  0  0  0  0  0  0  0
    1.7233   -2.5561    0.0000 C   0  0  0  0  0  0  0  0  0  0  0  0
    1.4821   -4.0366    0.0000 O   0  0  0  0  0  0  0  0  0  0  0  0
    3.1260   -2.0247    0.0000 C   0  0  0  0  0  0  0  0  0  0  0  0
    3.3672   -0.5442    0.0000 C   0  0  0  0  0  0  0  0  0  0  0  0
    4.7699   -0.0128    0.0000 C   0  0  0  0  0  0  0  0  0  0  0  0
    5.0111    1.4677    0.0000 C   0  0  0  0  0  0  0  0  0  0  0  0
    6.4138    1.9990    0.0000 O   0  0  0  0  0  0  0  0  0  0  0  0
    7.5753    1.0499    0.0000 S   0  0  0  0  0  0  0  0  0  0  0  0
    6.6262   -0.1116    0.0000 O   0  0  0  0  0  0  0  0  0  0  0  0
    8.5244    2.2115    0.0000 O   0  0  0  0  0  0  0  0  0  0  0  0
    8.7369    0.1008    0.0000 O   0  0  0  0  0  0  0  0  0  0  0  0
    3.8495    2.4168    0.0000 C   0  0  0  0  0  0  0  0  0  0  0  0
    2.4468    1.8854    0.0000 C   0  0  0  0  0  0  0  0  0  0  0  0
    2.2056    0.4049    0.0000 C   0  0  0  0  0  0  0  0  0  0  0  0
    1.0441    1.3540    0.0000 C   0  0  0  0  0  0  0  0  0  0  0  0
    0.8029   -0.1265    0.0000 C   0  0  0  0  0  0  0  0  0  0  0  0
   -0.3587    0.8226    0.0000 C   0  0  0  0  0  0  0  0  0  0  0  0
   -1.7614    0.2912    0.0000 C   0  0  0  0  0  0  0  0  0  0  0  0
   -2.9229    1.2403    0.0000 O   0  0  0  0  0  0  0  0  0  0  0  0
   -2.0025   -1.1893    0.0000 C   0  0  0  0  0  0  0  0  0  0  0  0
   -3.2569   -0.3668    0.0000 C   0  0  0  0  0  0  0  0  0  0  0  0
  2  1  1  6
  2  3  1  0
  3  4  1  0
  4  5  1  0
  5  6  2  0
  5  7  1  0
  7  8  1  0
  2  9  1  0
  9 10  1  6
 10 11  1  0
 12 11  1  6
 12 13  1  0
 13 14  1  1
 14 15  1  1
 14 16  1  0
 17 16  1  1
 17 18  1  0
 18 19  1  0
 19 20  1  1
 20 21  1  0
 21 22  2  0
 21 23  2  0
 21 24  1  0
 19 25  1  0
 25 26  1  0
 26 27  1  0
 27 28  1  6
 27 29  1  0
 29 30  1  6
 30 31  1  0
 31 32  1  1
 31 33  1  0
 33 34  1  6
 33  9  1  0
 33 12  1  0
 29 13  1  0
 27 17  1  0
M  END
>  <MS_ID>  (648) 
MS0676

>  <SMILES>  (648) 
C[C@H](CCC(=O)CO)[C@H]1CC[C@H]2[C@@H]3[C@H](O)C[C@@H]4C[C@H](OS(=O)(=O)O)CC[C@]4(C)[C@H]3C[C@H](O)[C@]12C

>  <Structure_dimension>  (648) 
2D

$$$$
MS0677
     RDKit          2D

 34 37  0  0  0  0  0  0  0  0999 V2000
   -4.5932   -3.4780    0.0000 C   0  0  0  0  0  0  0  0  0  0  0  0
   -3.9416   -2.1269    0.0000 C   0  0  0  0  0  0  0  0  0  0  0  0
   -4.7859   -0.8870    0.0000 C   0  0  0  0  0  0  0  0  0  0  0  0
   -6.2817   -0.9983    0.0000 C   0  0  0  0  0  0  0  0  0  0  0  0
   -7.1260    0.2415    0.0000 C   0  0  0  0  0  0  0  0  0  0  0  0
   -6.4744    1.5926    0.0000 O   0  0  0  0  0  0  0  0  0  0  0  0
   -8.6219    0.1303    0.0000 O   0  0  0  0  0  0  0  0  0  0  0  0
   -2.4457   -2.0156    0.0000 C   0  0  0  0  0  0  0  0  0  0  0  0
   -1.4765   -3.1604    0.0000 C   0  0  0  0  0  0  0  0  0  0  0  0
   -0.0882   -2.5924    0.0000 C   0  0  0  0  0  0  0  0  0  0  0  0
   -0.1994   -1.0965    0.0000 C   0  0  0  0  0  0  0  0  0  0  0  0
    0.8378   -0.0129    0.0000 C   0  0  0  0  0  0  0  0  0  0  0  0
    2.2948   -0.3694    0.0000 C   0  0  0  0  0  0  0  0  0  0  0  0
    2.7146   -1.8094    0.0000 O   0  0  0  0  0  0  0  0  0  0  0  0
    4.1717   -2.1659    0.0000 C   0  0  0  0  0  0  0  0  0  0  0  0
    4.5915   -3.6059    0.0000 C   0  0  0  0  0  0  0  0  0  0  0  0
    6.0485   -3.9624    0.0000 C   0  0  0  0  0  0  0  0  0  0  0  0
    7.0857   -2.8788    0.0000 O   0  0  0  0  0  0  0  0  0  0  0  0
    6.4683   -5.4024    0.0000 O   0  0  0  0  0  0  0  0  0  0  0  0
    3.3320    0.7142    0.0000 C   0  0  0  0  0  0  0  0  0  0  0  0
    2.9122    2.1543    0.0000 C   0  0  0  0  0  0  0  0  0  0  0  0
    3.9494    3.2379    0.0000 C   0  0  0  0  0  0  0  0  0  0  0  0
    3.5296    4.6779    0.0000 C   0  0  0  0  0  0  0  0  0  0  0  0
    4.5668    5.7615    0.0000 O   0  0  0  0  0  0  0  0  0  0  0  0
    2.0726    5.0344    0.0000 C   0  0  0  0  0  0  0  0  0  0  0  0
    1.0354    3.9508    0.0000 C   0  0  0  0  0  0  0  0  0  0  0  0
    1.4552    2.5107    0.0000 C   0  0  0  0  0  0  0  0  0  0  0  0
   -0.0019    2.8672    0.0000 C   0  0  0  0  0  0  0  0  0  0  0  0
    0.4180    1.4271    0.0000 C   0  0  0  0  0  0  0  0  0  0  0  0
   -1.0391    1.7836    0.0000 C   0  0  0  0  0  0  0  0  0  0  0  0
   -2.0763    0.7000    0.0000 C   0  0  0  0  0  0  0  0  0  0  0  0
   -3.5333    1.0564    0.0000 O   0  0  0  0  0  0  0  0  0  0  0  0
   -1.6565   -0.7401    0.0000 C   0  0  0  0  0  0  0  0  0  0  0  0
   -3.1428   -0.5379    0.0000 C   0  0  0  0  0  0  0  0  0  0  0  0
  2  1  1  6
  2  3  1  0
  3  4  1  0
  4  5  1  0
  5  6  2  0
  5  7  1  0
  2  8  1  0
  8  9  1  6
  9 10  1  0
 11 10  1  6
 11 12  1  0
 12 13  1  1
 13 14  1  1
 14 15  1  0
 15 16  2  0
 16 17  1  0
 17 18  2  0
 17 19  1  0
 13 20  1  0
 21 20  1  1
 21 22  1  0
 22 23  1  0
 23 24  1  1
 23 25  1  0
 25 26  1  0
 26 27  1  0
 27 28  1  6
 27 29  1  0
 29 30  1  6
 30 31  1  0
 31 32  1  1
 31 33  1  0
 33 34  1  6
 33  8  1  0
 33 11  1  0
 29 12  1  0
 27 21  1  0
M  END
>  <MS_ID>  (649) 
MS0677

>  <SMILES>  (649) 
C[C@H](CCC(=O)O)[C@H]1CC[C@H]2[C@@H]3[C@H](O/C=C/C(=O)O)C[C@@H]4C[C@H](O)CC[C@]4(C)[C@H]3C[C@H](O)[C@]12C

>  <Structure_dimension>  (649) 
2D

$$$$
MS0678
     RDKit          2D

 28 31  0  0  0  0  0  0  0  0999 V2000
   -5.1275   -2.0302    0.0000 C   0  0  0  0  0  0  0  0  0  0  0  0
   -3.9468   -1.1050    0.0000 C   0  0  0  0  0  0  0  0  0  0  0  0
   -4.1576    0.3801    0.0000 C   0  0  0  0  0  0  0  0  0  0  0  0
   -5.5492    0.9401    0.0000 C   0  0  0  0  0  0  0  0  0  0  0  0
   -5.7600    2.4252    0.0000 C   0  0  0  0  0  0  0  0  0  0  0  0
   -4.5793    3.3503    0.0000 O   0  0  0  0  0  0  0  0  0  0  0  0
   -7.1516    2.9851    0.0000 O   0  0  0  0  0  0  0  0  0  0  0  0
   -2.5552   -1.6650    0.0000 C   0  0  0  0  0  0  0  0  0  0  0  0
   -2.1903   -3.1199    0.0000 C   0  0  0  0  0  0  0  0  0  0  0  0
   -0.6938   -3.2225    0.0000 C   0  0  0  0  0  0  0  0  0  0  0  0
   -0.1339   -1.8309    0.0000 C   0  0  0  0  0  0  0  0  0  0  0  0
    1.2750   -1.3159    0.0000 C   0  0  0  0  0  0  0  0  0  0  0  0
    2.4254   -2.2785    0.0000 C   0  0  0  0  0  0  0  0  0  0  0  0
    2.1670   -3.7560    0.0000 N   0  0  0  0  0  0  0  0  0  0  0  0
    3.8342   -1.7635    0.0000 C   0  0  0  0  0  0  0  0  0  0  0  0
    4.0926   -0.2859    0.0000 C   0  0  0  0  0  0  0  0  0  0  0  0
    5.5014    0.2291    0.0000 C   0  0  0  0  0  0  0  0  0  0  0  0
    5.7598    1.7067    0.0000 C   0  0  0  0  0  0  0  0  0  0  0  0
    7.1687    2.2217    0.0000 O   0  0  0  0  0  0  0  0  0  0  0  0
    4.6094    2.6692    0.0000 C   0  0  0  0  0  0  0  0  0  0  0  0
    3.2006    2.1542    0.0000 C   0  0  0  0  0  0  0  0  0  0  0  0
    2.9422    0.6767    0.0000 C   0  0  0  0  0  0  0  0  0  0  0  0
    1.7918    1.6392    0.0000 C   0  0  0  0  0  0  0  0  0  0  0  0
    1.5334    0.1617    0.0000 C   0  0  0  0  0  0  0  0  0  0  0  0
    0.3830    1.1242    0.0000 C   0  0  0  0  0  0  0  0  0  0  0  0
   -1.0259    0.6093    0.0000 C   0  0  0  0  0  0  0  0  0  0  0  0
   -1.2843   -0.8683    0.0000 C   0  0  0  0  0  0  0  0  0  0  0  0
   -2.5290   -0.0313    0.0000 C   0  0  0  0  0  0  0  0  0  0  0  0
  2  1  1  6
  2  3  1  0
  3  4  1  0
  4  5  1  0
  5  6  2  0
  5  7  1  0
  2  8  1  0
  8  9  1  6
  9 10  1  0
 11 10  1  6
 11 12  1  0
 12 13  1  1
 13 14  1  1
 13 15  1  0
 16 15  1  1
 16 17  1  0
 17 18  1  0
 18 19  1  6
 18 20  1  0
 20 21  1  0
 21 22  1  0
 22 23  1  6
 22 24  1  0
 24 25  1  6
 25 26  1  0
 26 27  1  0
 27 28  1  6
 27  8  1  0
 27 11  1  0
 24 12  1  0
 22 16  1  0
M  END
>  <MS_ID>  (650) 
MS0678

>  <SMILES>  (650) 
C[C@H](CCC(=O)O)[C@H]1CC[C@H]2[C@@H]3[C@H](N)C[C@@H]4C[C@@H](O)CC[C@]4(C)[C@H]3CC[C@]12C

>  <Structure_dimension>  (650) 
2D

$$$$
MS0679
     RDKit          2D

 31 34  0  0  0  0  0  0  0  0999 V2000
   -3.4301   -3.6172    0.0000 C   0  0  0  0  0  0  0  0  0  0  0  0
   -2.4973   -2.4425    0.0000 C   0  0  0  0  0  0  0  0  0  0  0  0
   -3.0483   -1.0473    0.0000 C   0  0  0  0  0  0  0  0  0  0  0  0
   -4.5321   -0.8270    0.0000 C   0  0  0  0  0  0  0  0  0  0  0  0
   -5.0831    0.5682    0.0000 C   0  0  0  0  0  0  0  0  0  0  0  0
   -4.1503    1.7429    0.0000 O   0  0  0  0  0  0  0  0  0  0  0  0
   -6.5668    0.7886    0.0000 O   0  0  0  0  0  0  0  0  0  0  0  0
   -7.1178    2.1837    0.0000 C   0  0  0  0  0  0  0  0  0  0  0  0
   -8.6015    2.4041    0.0000 C   0  0  0  0  0  0  0  0  0  0  0  0
   -9.1525    3.7992    0.0000 O   0  0  0  0  0  0  0  0  0  0  0  0
   -1.0136   -2.6629    0.0000 C   0  0  0  0  0  0  0  0  0  0  0  0
   -0.3198   -3.9928    0.0000 C   0  0  0  0  0  0  0  0  0  0  0  0
    1.1594   -3.7439    0.0000 C   0  0  0  0  0  0  0  0  0  0  0  0
    1.3798   -2.2602    0.0000 C   0  0  0  0  0  0  0  0  0  0  0  0
    2.6299   -1.4311    0.0000 C   0  0  0  0  0  0  0  0  0  0  0  0
    3.9729   -2.0992    0.0000 C   0  0  0  0  0  0  0  0  0  0  0  0
    5.2230   -1.2702    0.0000 C   0  0  0  0  0  0  0  0  0  0  0  0
    5.1301    0.2269    0.0000 C   0  0  0  0  0  0  0  0  0  0  0  0
    6.3802    1.0559    0.0000 C   0  0  0  0  0  0  0  0  0  0  0  0
    6.2872    2.5531    0.0000 C   0  0  0  0  0  0  0  0  0  0  0  0
    7.5373    3.3821    0.0000 O   0  0  0  0  0  0  0  0  0  0  0  0
    4.9442    3.2212    0.0000 C   0  0  0  0  0  0  0  0  0  0  0  0
    3.6942    2.3921    0.0000 C   0  0  0  0  0  0  0  0  0  0  0  0
    3.7871    0.8950    0.0000 C   0  0  0  0  0  0  0  0  0  0  0  0
    2.4441    1.5631    0.0000 C   0  0  0  0  0  0  0  0  0  0  0  0
    2.5370    0.0660    0.0000 C   0  0  0  0  0  0  0  0  0  0  0  0
    1.1940    0.7341    0.0000 C   0  0  0  0  0  0  0  0  0  0  0  0
   -0.0561   -0.0949    0.0000 C   0  0  0  0  0  0  0  0  0  0  0  0
   -1.3991    0.5732    0.0000 O   0  0  0  0  0  0  0  0  0  0  0  0
    0.0368   -1.5921    0.0000 C   0  0  0  0  0  0  0  0  0  0  0  0
   -1.3687   -1.0680    0.0000 C   0  0  0  0  0  0  0  0  0  0  0  0
  2  1  1  6
  2  3  1  0
  3  4  1  0
  4  5  1  0
  5  6  2  0
  5  7  1  0
  7  8  1  0
  8  9  1  0
  9 10  1  0
  2 11  1  0
 11 12  1  6
 12 13  1  0
 14 13  1  6
 14 15  1  0
 15 16  1  1
 16 17  1  0
 18 17  1  1
 18 19  1  0
 19 20  1  0
 20 21  1  6
 20 22  1  0
 22 23  1  0
 23 24  1  0
 24 25  1  6
 24 26  1  0
 26 27  1  6
 27 28  1  0
 28 29  1  6
 28 30  1  0
 30 31  1  6
 30 11  1  0
 30 14  1  0
 26 15  1  0
 24 18  1  0
M  END
>  <MS_ID>  (651) 
MS0679

>  <SMILES>  (651) 
C[C@H](CCC(=O)OCCO)[C@H]1CC[C@H]2[C@@H]3CC[C@@H]4C[C@@H](O)CC[C@]4(C)[C@H]3C[C@@H](O)[C@]12C

>  <Structure_dimension>  (651) 
2D

$$$$
MS0680
     RDKit          2D

 31 34  0  0  0  0  0  0  0  0999 V2000
   -3.4301   -3.6172    0.0000 C   0  0  0  0  0  0  0  0  0  0  0  0
   -2.4973   -2.4425    0.0000 C   0  0  0  0  0  0  0  0  0  0  0  0
   -3.0483   -1.0473    0.0000 C   0  0  0  0  0  0  0  0  0  0  0  0
   -4.5321   -0.8270    0.0000 C   0  0  0  0  0  0  0  0  0  0  0  0
   -5.0831    0.5682    0.0000 C   0  0  0  0  0  0  0  0  0  0  0  0
   -4.1503    1.7429    0.0000 O   0  0  0  0  0  0  0  0  0  0  0  0
   -6.5668    0.7886    0.0000 N   0  0  0  0  0  0  0  0  0  0  0  0
   -7.1178    2.1837    0.0000 C   0  0  0  0  0  0  0  0  0  0  0  0
   -8.6015    2.4041    0.0000 C   0  0  0  0  0  0  0  0  0  0  0  0
   -9.1525    3.7992    0.0000 N   0  0  0  0  0  0  0  0  0  0  0  0
   -1.0136   -2.6629    0.0000 C   0  0  0  0  0  0  0  0  0  0  0  0
   -0.3198   -3.9928    0.0000 C   0  0  0  0  0  0  0  0  0  0  0  0
    1.1594   -3.7439    0.0000 C   0  0  0  0  0  0  0  0  0  0  0  0
    1.3798   -2.2602    0.0000 C   0  0  0  0  0  0  0  0  0  0  0  0
    2.6299   -1.4311    0.0000 C   0  0  0  0  0  0  0  0  0  0  0  0
    3.9729   -2.0992    0.0000 C   0  0  0  0  0  0  0  0  0  0  0  0
    5.2230   -1.2702    0.0000 C   0  0  0  0  0  0  0  0  0  0  0  0
    5.1301    0.2269    0.0000 C   0  0  0  0  0  0  0  0  0  0  0  0
    6.3802    1.0559    0.0000 C   0  0  0  0  0  0  0  0  0  0  0  0
    6.2872    2.5531    0.0000 C   0  0  0  0  0  0  0  0  0  0  0  0
    7.5373    3.3821    0.0000 O   0  0  0  0  0  0  0  0  0  0  0  0
    4.9442    3.2212    0.0000 C   0  0  0  0  0  0  0  0  0  0  0  0
    3.6942    2.3921    0.0000 C   0  0  0  0  0  0  0  0  0  0  0  0
    3.7871    0.8950    0.0000 C   0  0  0  0  0  0  0  0  0  0  0  0
    2.4441    1.5631    0.0000 C   0  0  0  0  0  0  0  0  0  0  0  0
    2.5370    0.0660    0.0000 C   0  0  0  0  0  0  0  0  0  0  0  0
    1.1940    0.7341    0.0000 C   0  0  0  0  0  0  0  0  0  0  0  0
   -0.0561   -0.0949    0.0000 C   0  0  0  0  0  0  0  0  0  0  0  0
   -1.3991    0.5732    0.0000 O   0  0  0  0  0  0  0  0  0  0  0  0
    0.0368   -1.5921    0.0000 C   0  0  0  0  0  0  0  0  0  0  0  0
   -1.3687   -1.0680    0.0000 C   0  0  0  0  0  0  0  0  0  0  0  0
  2  1  1  6
  2  3  1  0
  3  4  1  0
  4  5  1  0
  5  6  2  0
  5  7  1  0
  7  8  1  0
  8  9  1  0
  9 10  1  0
  2 11  1  0
 11 12  1  6
 12 13  1  0
 14 13  1  6
 14 15  1  0
 15 16  1  1
 16 17  1  0
 18 17  1  1
 18 19  1  0
 19 20  1  0
 20 21  1  1
 20 22  1  0
 22 23  1  0
 23 24  1  0
 24 25  1  6
 24 26  1  0
 26 27  1  6
 27 28  1  0
 28 29  1  1
 28 30  1  0
 30 31  1  6
 30 11  1  0
 30 14  1  0
 26 15  1  0
 24 18  1  0
M  END
>  <MS_ID>  (652) 
MS0680

>  <SMILES>  (652) 
C[C@H](CCC(=O)NCCN)[C@H]1CC[C@H]2[C@@H]3CC[C@@H]4C[C@H](O)CC[C@]4(C)[C@H]3C[C@H](O)[C@]12C

>  <Structure_dimension>  (652) 
2D

$$$$
MS0681
     RDKit          2D

 37 41  0  0  0  0  0  0  0  0999 V2000
   -2.1730   -3.6145    0.0000 C   0  0  0  0  0  0  0  0  0  0  0  0
   -1.3054   -2.3909    0.0000 C   0  0  0  0  0  0  0  0  0  0  0  0
   -1.9313   -1.0277    0.0000 C   0  0  0  0  0  0  0  0  0  0  0  0
   -3.4248   -0.8882    0.0000 C   0  0  0  0  0  0  0  0  0  0  0  0
   -4.0507    0.4750    0.0000 C   0  0  0  0  0  0  0  0  0  0  0  0
   -3.1831    1.6986    0.0000 O   0  0  0  0  0  0  0  0  0  0  0  0
   -5.5442    0.6146    0.0000 C   0  0  0  0  0  0  0  0  0  0  0  0
   -6.1701    1.9777    0.0000 C   0  0  0  0  0  0  0  0  0  0  0  0
   -7.6636    2.1173    0.0000 C   0  0  0  0  0  0  0  0  0  0  0  0
   -8.5312    0.8937    0.0000 C   0  0  0  0  0  0  0  0  0  0  0  0
  -10.0247    1.0332    0.0000 N   0  0  0  0  0  0  0  0  0  0  0  0
  -10.8923   -0.1904    0.0000 O   0  0  0  0  0  0  0  0  0  0  0  0
  -10.6506    2.3964    0.0000 O   0  0  0  0  0  0  0  0  0  0  0  0
   -7.9053   -0.4695    0.0000 C   0  0  0  0  0  0  0  0  0  0  0  0
   -6.4118   -0.6091    0.0000 C   0  0  0  0  0  0  0  0  0  0  0  0
    0.1881   -2.5304    0.0000 C   0  0  0  0  0  0  0  0  0  0  0  0
    0.9530   -3.8207    0.0000 C   0  0  0  0  0  0  0  0  0  0  0  0
    2.4165   -3.4919    0.0000 C   0  0  0  0  0  0  0  0  0  0  0  0
    2.5561   -1.9984    0.0000 C   0  0  0  0  0  0  0  0  0  0  0  0
    3.7593   -1.1028    0.0000 C   0  0  0  0  0  0  0  0  0  0  0  0
    5.1366   -1.6971    0.0000 C   0  0  0  0  0  0  0  0  0  0  0  0
    5.3106   -3.1869    0.0000 O   0  0  0  0  0  0  0  0  0  0  0  0
    6.3399   -0.8014    0.0000 C   0  0  0  0  0  0  0  0  0  0  0  0
    7.7172   -1.3957    0.0000 O   0  0  0  0  0  0  0  0  0  0  0  0
    6.1659    0.6885    0.0000 C   0  0  0  0  0  0  0  0  0  0  0  0
    7.3691    1.5841    0.0000 C   0  0  0  0  0  0  0  0  0  0  0  0
    7.1951    3.0740    0.0000 C   0  0  0  0  0  0  0  0  0  0  0  0
    8.3984    3.9696    0.0000 O   0  0  0  0  0  0  0  0  0  0  0  0
    5.8178    3.6682    0.0000 C   0  0  0  0  0  0  0  0  0  0  0  0
    4.6146    2.7726    0.0000 C   0  0  0  0  0  0  0  0  0  0  0  0
    4.7886    1.2827    0.0000 C   0  0  0  0  0  0  0  0  0  0  0  0
    3.4113    1.8769    0.0000 C   0  0  0  0  0  0  0  0  0  0  0  0
    3.5853    0.3871    0.0000 C   0  0  0  0  0  0  0  0  0  0  0  0
    2.2081    0.9813    0.0000 C   0  0  0  0  0  0  0  0  0  0  0  0
    1.0048    0.0857    0.0000 C   0  0  0  0  0  0  0  0  0  0  0  0
    1.1788   -1.4042    0.0000 C   0  0  0  0  0  0  0  0  0  0  0  0
   -0.2530   -0.9572    0.0000 C   0  0  0  0  0  0  0  0  0  0  0  0
  2  1  1  6
  2  3  1  0
  3  4  1  0
  4  5  1  0
  5  6  2  0
  5  7  1  0
  7  8  2  0
  8  9  1  0
  9 10  2  0
 10 11  1  0
 11 12  2  0
 11 13  1  0
 10 14  1  0
 14 15  2  0
  2 16  1  0
 16 17  1  6
 17 18  1  0
 19 18  1  6
 19 20  1  0
 20 21  1  1
 21 22  1  1
 21 23  1  0
 23 24  1  1
 23 25  1  0
 25 26  1  1
 26 27  1  0
 27 28  1  1
 27 29  1  0
 29 30  1  0
 30 31  1  0
 31 32  1  6
 31 33  1  0
 33 34  1  6
 34 35  1  0
 35 36  1  0
 36 37  1  6
 15  7  1  0
 36 16  1  0
 36 19  1  0
 33 20  1  0
 31 25  1  0
M  CHG  2  11   1  13  -1
M  END
>  <MS_ID>  (653) 
MS0681

>  <SMILES>  (653) 
C[C@H](CCC(=O)c1ccc([N+](=O)[O-])cc1)[C@H]1CC[C@H]2[C@@H]3[C@H](O)[C@H](O)[C@@H]4C[C@H](O)CC[C@]4(C)[C@H]3CC[C@]12C

>  <Structure_dimension>  (653) 
2D

$$$$
MS0682
     RDKit          2D

 34 37  0  0  0  0  0  0  0  0999 V2000
   -3.3357   -4.2386    0.0000 C   0  0  0  0  0  0  0  0  0  0  0  0
   -2.5200   -2.9798    0.0000 C   0  0  0  0  0  0  0  0  0  0  0  0
   -3.2023   -1.6440    0.0000 C   0  0  0  0  0  0  0  0  0  0  0  0
   -4.7003   -1.5670    0.0000 C   0  0  0  0  0  0  0  0  0  0  0  0
   -5.3826   -0.2311    0.0000 C   0  0  0  0  0  0  0  0  0  0  0  0
   -6.8806   -0.1541    0.0000 O   0  0  0  0  0  0  0  0  0  0  0  0
   -4.5669    1.0277    0.0000 O   0  0  0  0  0  0  0  0  0  0  0  0
   -5.2492    2.3635    0.0000 C   0  0  0  0  0  0  0  0  0  0  0  0
   -4.4335    3.6223    0.0000 S   0  0  0  0  0  0  0  0  0  0  0  0
   -5.6923    4.4381    0.0000 O   0  0  0  0  0  0  0  0  0  0  0  0
   -3.1747    2.8066    0.0000 O   0  0  0  0  0  0  0  0  0  0  0  0
   -3.6178    4.8812    0.0000 O   0  0  0  0  0  0  0  0  0  0  0  0
   -1.0219   -3.0568    0.0000 C   0  0  0  0  0  0  0  0  0  0  0  0
   -0.2037   -4.3140    0.0000 C   0  0  0  0  0  0  0  0  0  0  0  0
    1.2448   -3.9243    0.0000 C   0  0  0  0  0  0  0  0  0  0  0  0
    1.3218   -2.4263    0.0000 C   0  0  0  0  0  0  0  0  0  0  0  0
    2.4866   -1.4812    0.0000 C   0  0  0  0  0  0  0  0  0  0  0  0
    3.8875   -2.0173    0.0000 C   0  0  0  0  0  0  0  0  0  0  0  0
    4.1236   -3.4986    0.0000 O   0  0  0  0  0  0  0  0  0  0  0  0
    5.0523   -1.0722    0.0000 C   0  0  0  0  0  0  0  0  0  0  0  0
    4.8161    0.4091    0.0000 C   0  0  0  0  0  0  0  0  0  0  0  0
    5.9809    1.3543    0.0000 C   0  0  0  0  0  0  0  0  0  0  0  0
    5.7448    2.8355    0.0000 C   0  0  0  0  0  0  0  0  0  0  0  0
    6.9096    3.7807    0.0000 O   0  0  0  0  0  0  0  0  0  0  0  0
    4.3439    3.3717    0.0000 C   0  0  0  0  0  0  0  0  0  0  0  0
    3.1791    2.4266    0.0000 C   0  0  0  0  0  0  0  0  0  0  0  0
    3.4152    0.9453    0.0000 C   0  0  0  0  0  0  0  0  0  0  0  0
    2.0143    1.4814    0.0000 C   0  0  0  0  0  0  0  0  0  0  0  0
    2.2504    0.0001    0.0000 C   0  0  0  0  0  0  0  0  0  0  0  0
    0.8495    0.5363    0.0000 C   0  0  0  0  0  0  0  0  0  0  0  0
   -0.3152   -0.4089    0.0000 C   0  0  0  0  0  0  0  0  0  0  0  0
   -1.7161    0.1273    0.0000 O   0  0  0  0  0  0  0  0  0  0  0  0
   -0.0791   -1.8902    0.0000 C   0  0  0  0  0  0  0  0  0  0  0  0
   -1.5284   -1.5034    0.0000 C   0  0  0  0  0  0  0  0  0  0  0  0
  2  1  1  6
  2  3  1  0
  3  4  1  0
  4  5  1  0
  5  6  2  0
  5  7  1  0
  7  8  1  0
  8  9  1  0
  9 10  2  0
  9 11  2  0
  9 12  1  0
  2 13  1  0
 13 14  1  6
 14 15  1  0
 16 15  1  6
 16 17  1  0
 17 18  1  1
 18 19  1  1
 18 20  1  0
 21 20  1  1
 21 22  1  0
 22 23  1  0
 23 24  1  1
 23 25  1  0
 25 26  1  0
 26 27  1  0
 27 28  1  6
 27 29  1  0
 29 30  1  6
 30 31  1  0
 31 32  1  1
 31 33  1  0
 33 34  1  6
 33 13  1  0
 33 16  1  0
 29 17  1  0
 27 21  1  0
M  END
>  <MS_ID>  (654) 
MS0682

>  <SMILES>  (654) 
C[C@H](CCC(=O)OCS(=O)(=O)O)[C@H]1CC[C@H]2[C@@H]3[C@H](O)C[C@@H]4C[C@H](O)CC[C@]4(C)[C@H]3C[C@H](O)[C@]12C

>  <Structure_dimension>  (654) 
2D

$$$$
MS0683
     RDKit          2D

 30 33  0  0  0  0  0  0  0  0999 V2000
   -4.0199   -3.1584    0.0000 C   0  0  0  0  0  0  0  0  0  0  0  0
   -2.9902   -2.0677    0.0000 C   0  0  0  0  0  0  0  0  0  0  0  0
   -3.4199   -0.6306    0.0000 C   0  0  0  0  0  0  0  0  0  0  0  0
   -4.8793   -0.2841    0.0000 C   0  0  0  0  0  0  0  0  0  0  0  0
   -5.3090    1.1530    0.0000 C   0  0  0  0  0  0  0  0  0  0  0  0
   -4.2792    2.2437    0.0000 O   0  0  0  0  0  0  0  0  0  0  0  0
   -6.7684    1.4995    0.0000 C   0  0  0  0  0  0  0  0  0  0  0  0
   -7.1981    2.9366    0.0000 C   0  0  0  0  0  0  0  0  0  0  0  0
   -8.6575    3.2831    0.0000 O   0  0  0  0  0  0  0  0  0  0  0  0
   -1.5307   -2.4142    0.0000 C   0  0  0  0  0  0  0  0  0  0  0  0
   -0.9532   -3.7985    0.0000 C   0  0  0  0  0  0  0  0  0  0  0  0
    0.5419   -3.6770    0.0000 C   0  0  0  0  0  0  0  0  0  0  0  0
    0.8883   -2.2176    0.0000 C   0  0  0  0  0  0  0  0  0  0  0  0
    2.2047   -1.4985    0.0000 C   0  0  0  0  0  0  0  0  0  0  0  0
    3.4857   -2.2790    0.0000 C   0  0  0  0  0  0  0  0  0  0  0  0
    4.8021   -1.5599    0.0000 C   0  0  0  0  0  0  0  0  0  0  0  0
    4.8375   -0.0603    0.0000 C   0  0  0  0  0  0  0  0  0  0  0  0
    6.1539    0.6588    0.0000 C   0  0  0  0  0  0  0  0  0  0  0  0
    6.1894    2.1583    0.0000 C   0  0  0  0  0  0  0  0  0  0  0  0
    7.5058    2.8774    0.0000 O   0  0  0  0  0  0  0  0  0  0  0  0
    4.9084    2.9388    0.0000 C   0  0  0  0  0  0  0  0  0  0  0  0
    3.5920    2.2197    0.0000 C   0  0  0  0  0  0  0  0  0  0  0  0
    3.5566    0.7202    0.0000 C   0  0  0  0  0  0  0  0  0  0  0  0
    2.2756    1.5007    0.0000 C   0  0  0  0  0  0  0  0  0  0  0  0
    2.2402    0.0011    0.0000 C   0  0  0  0  0  0  0  0  0  0  0  0
    0.9592    0.7816    0.0000 C   0  0  0  0  0  0  0  0  0  0  0  0
   -0.3572    0.0625    0.0000 C   0  0  0  0  0  0  0  0  0  0  0  0
   -1.6381    0.8430    0.0000 O   0  0  0  0  0  0  0  0  0  0  0  0
   -0.3926   -1.4371    0.0000 C   0  0  0  0  0  0  0  0  0  0  0  0
   -1.7481   -0.7948    0.0000 C   0  0  0  0  0  0  0  0  0  0  0  0
  2  1  1  6
  2  3  1  0
  3  4  1  0
  4  5  1  0
  5  6  2  0
  5  7  1  0
  7  8  1  0
  8  9  1  0
  2 10  1  0
 10 11  1  6
 11 12  1  0
 13 12  1  6
 13 14  1  0
 14 15  1  1
 15 16  1  0
 17 16  1  1
 17 18  1  0
 18 19  1  0
 19 20  1  1
 19 21  1  0
 21 22  1  0
 22 23  1  0
 23 24  1  6
 23 25  1  0
 25 26  1  6
 26 27  1  0
 27 28  1  6
 27 29  1  0
 29 30  1  6
 29 10  1  0
 29 13  1  0
 25 14  1  0
 23 17  1  0
M  END
>  <MS_ID>  (655) 
MS0683

>  <SMILES>  (655) 
C[C@H](CCC(=O)CCO)[C@H]1CC[C@H]2[C@@H]3CC[C@@H]4C[C@H](O)CC[C@]4(C)[C@H]3C[C@@H](O)[C@]12C

>  <Structure_dimension>  (655) 
2D

$$$$
MS0684
     RDKit          2D

 33 36  0  0  0  0  0  0  0  0999 V2000
   -3.0978   -3.6919    0.0000 C   0  0  0  0  0  0  0  0  0  0  0  0
   -2.2201   -2.4755    0.0000 C   0  0  0  0  0  0  0  0  0  0  0  0
   -2.8347   -1.1072    0.0000 C   0  0  0  0  0  0  0  0  0  0  0  0
   -4.3270   -0.9552    0.0000 C   0  0  0  0  0  0  0  0  0  0  0  0
   -4.9416    0.4131    0.0000 C   0  0  0  0  0  0  0  0  0  0  0  0
   -4.0639    1.6295    0.0000 O   0  0  0  0  0  0  0  0  0  0  0  0
   -6.4339    0.5650    0.0000 C   0  0  0  0  0  0  0  0  0  0  0  0
   -7.0484    1.9333    0.0000 O   0  0  0  0  0  0  0  0  0  0  0  0
   -8.5407    2.0852    0.0000 C   0  0  0  0  0  0  0  0  0  0  0  0
   -9.4184    0.8688    0.0000 O   0  0  0  0  0  0  0  0  0  0  0  0
   -9.1553    3.4535    0.0000 O   0  0  0  0  0  0  0  0  0  0  0  0
   -0.7278   -2.6274    0.0000 C   0  0  0  0  0  0  0  0  0  0  0  0
    0.0264   -3.9240    0.0000 C   0  0  0  0  0  0  0  0  0  0  0  0
    1.4926   -3.6073    0.0000 C   0  0  0  0  0  0  0  0  0  0  0  0
    1.6445   -2.1150    0.0000 C   0  0  0  0  0  0  0  0  0  0  0  0
    2.8552   -1.2294    0.0000 C   0  0  0  0  0  0  0  0  0  0  0  0
    4.2275   -1.8350    0.0000 C   0  0  0  0  0  0  0  0  0  0  0  0
    4.3891   -3.3263    0.0000 O   0  0  0  0  0  0  0  0  0  0  0  0
    5.4381   -0.9494    0.0000 C   0  0  0  0  0  0  0  0  0  0  0  0
    5.2764    0.5419    0.0000 C   0  0  0  0  0  0  0  0  0  0  0  0
    6.4871    1.4275    0.0000 C   0  0  0  0  0  0  0  0  0  0  0  0
    6.3254    2.9188    0.0000 C   0  0  0  0  0  0  0  0  0  0  0  0
    7.5360    3.8044    0.0000 O   0  0  0  0  0  0  0  0  0  0  0  0
    4.9531    3.5244    0.0000 C   0  0  0  0  0  0  0  0  0  0  0  0
    3.7425    2.6388    0.0000 C   0  0  0  0  0  0  0  0  0  0  0  0
    3.9041    1.1475    0.0000 C   0  0  0  0  0  0  0  0  0  0  0  0
    2.5318    1.7531    0.0000 C   0  0  0  0  0  0  0  0  0  0  0  0
    2.6935    0.2619    0.0000 C   0  0  0  0  0  0  0  0  0  0  0  0
    1.3212    0.8675    0.0000 C   0  0  0  0  0  0  0  0  0  0  0  0
    0.1105   -0.0181    0.0000 C   0  0  0  0  0  0  0  0  0  0  0  0
   -1.2618    0.5875    0.0000 O   0  0  0  0  0  0  0  0  0  0  0  0
    0.2722   -1.5094    0.0000 C   0  0  0  0  0  0  0  0  0  0  0  0
   -1.1559   -1.0505    0.0000 C   0  0  0  0  0  0  0  0  0  0  0  0
  2  1  1  6
  2  3  1  0
  3  4  1  0
  4  5  1  0
  5  6  2  0
  5  7  1  0
  7  8  1  0
  8  9  1  0
  9 10  2  0
  9 11  1  0
  2 12  1  0
 12 13  1  6
 13 14  1  0
 15 14  1  6
 15 16  1  0
 16 17  1  1
 17 18  1  1
 17 19  1  0
 20 19  1  1
 20 21  1  0
 21 22  1  0
 22 23  1  1
 22 24  1  0
 24 25  1  0
 25 26  1  0
 26 27  1  6
 26 28  1  0
 28 29  1  6
 29 30  1  0
 30 31  1  1
 30 32  1  0
 32 33  1  6
 32 12  1  0
 32 15  1  0
 28 16  1  0
 26 20  1  0
M  END
>  <MS_ID>  (656) 
MS0684

>  <SMILES>  (656) 
C[C@H](CCC(=O)COC(=O)O)[C@H]1CC[C@H]2[C@@H]3[C@H](O)C[C@@H]4C[C@H](O)CC[C@]4(C)[C@H]3C[C@H](O)[C@]12C

>  <Structure_dimension>  (656) 
2D

$$$$
MS0685
     RDKit          2D

 29 32  0  0  0  0  0  0  0  0999 V2000
   -4.5534   -2.6812    0.0000 C   0  0  0  0  0  0  0  0  0  0  0  0
   -3.4378   -1.6786    0.0000 C   0  0  0  0  0  0  0  0  0  0  0  0
   -3.7483   -0.2111    0.0000 C   0  0  0  0  0  0  0  0  0  0  0  0
   -5.1744    0.2538    0.0000 C   0  0  0  0  0  0  0  0  0  0  0  0
   -5.4850    1.7213    0.0000 C   0  0  0  0  0  0  0  0  0  0  0  0
   -4.3693    2.7239    0.0000 O   0  0  0  0  0  0  0  0  0  0  0  0
   -6.9111    2.1861    0.0000 N   0  0  0  0  0  0  0  0  0  0  0  0
   -7.2216    3.6536    0.0000 O   0  0  0  0  0  0  0  0  0  0  0  0
   -2.0116   -2.1434    0.0000 C   0  0  0  0  0  0  0  0  0  0  0  0
   -1.5494   -3.5704    0.0000 C   0  0  0  0  0  0  0  0  0  0  0  0
   -0.0494   -3.5718    0.0000 C   0  0  0  0  0  0  0  0  0  0  0  0
    0.4155   -2.1456    0.0000 C   0  0  0  0  0  0  0  0  0  0  0  0
    1.7863   -1.5368    0.0000 C   0  0  0  0  0  0  0  0  0  0  0  0
    2.9990   -2.4196    0.0000 C   0  0  0  0  0  0  0  0  0  0  0  0
    4.3699   -1.8107    0.0000 C   0  0  0  0  0  0  0  0  0  0  0  0
    4.5281   -0.3191    0.0000 C   0  0  0  0  0  0  0  0  0  0  0  0
    5.8990    0.2898    0.0000 C   0  0  0  0  0  0  0  0  0  0  0  0
    6.0571    1.7814    0.0000 C   0  0  0  0  0  0  0  0  0  0  0  0
    7.4280    2.3902    0.0000 O   0  0  0  0  0  0  0  0  0  0  0  0
    4.8444    2.6642    0.0000 C   0  0  0  0  0  0  0  0  0  0  0  0
    3.4735    2.0553    0.0000 C   0  0  0  0  0  0  0  0  0  0  0  0
    3.3154    0.5637    0.0000 C   0  0  0  0  0  0  0  0  0  0  0  0
    2.1026    1.4465    0.0000 C   0  0  0  0  0  0  0  0  0  0  0  0
    1.9445   -0.0451    0.0000 C   0  0  0  0  0  0  0  0  0  0  0  0
    0.7318    0.8376    0.0000 C   0  0  0  0  0  0  0  0  0  0  0  0
   -0.6391    0.2288    0.0000 C   0  0  0  0  0  0  0  0  0  0  0  0
   -1.8518    1.1116    0.0000 O   0  0  0  0  0  0  0  0  0  0  0  0
   -0.7973   -1.2628    0.0000 C   0  0  0  0  0  0  0  0  0  0  0  0
   -2.0956   -0.5116    0.0000 C   0  0  0  0  0  0  0  0  0  0  0  0
  2  1  1  6
  2  3  1  0
  3  4  1  0
  4  5  1  0
  5  6  2  0
  5  7  1  0
  7  8  1  0
  2  9  1  0
  9 10  1  6
 10 11  1  0
 12 11  1  6
 12 13  1  0
 13 14  1  1
 14 15  1  0
 16 15  1  1
 16 17  1  0
 17 18  1  0
 18 19  1  1
 18 20  1  0
 20 21  1  0
 21 22  1  0
 22 23  1  6
 22 24  1  0
 24 25  1  6
 25 26  1  0
 26 27  1  1
 26 28  1  0
 28 29  1  6
 28  9  1  0
 28 12  1  0
 24 13  1  0
 22 16  1  0
M  END
>  <MS_ID>  (657) 
MS0685

>  <SMILES>  (657) 
C[C@H](CCC(=O)NO)[C@H]1CC[C@H]2[C@@H]3CC[C@@H]4C[C@H](O)CC[C@]4(C)[C@H]3C[C@H](O)[C@]12C

>  <Structure_dimension>  (657) 
2D

$$$$
MS0686
     RDKit          2D

 28 31  0  0  0  0  0  0  0  0999 V2000
   -4.6340   -2.3524    0.0000 C   0  0  0  0  0  0  0  0  0  0  0  0
   -3.5242   -1.3434    0.0000 C   0  0  0  0  0  0  0  0  0  0  0  0
   -3.8431    0.1223    0.0000 C   0  0  0  0  0  0  0  0  0  0  0  0
   -5.2720    0.5789    0.0000 C   0  0  0  0  0  0  0  0  0  0  0  0
   -5.5909    2.0446    0.0000 C   0  0  0  0  0  0  0  0  0  0  0  0
   -4.4811    3.0537    0.0000 O   0  0  0  0  0  0  0  0  0  0  0  0
   -7.0197    2.5012    0.0000 O   0  0  0  0  0  0  0  0  0  0  0  0
   -2.0954   -1.8000    0.0000 C   0  0  0  0  0  0  0  0  0  0  0  0
   -1.6249   -3.2243    0.0000 C   0  0  0  0  0  0  0  0  0  0  0  0
   -0.1249   -3.2170    0.0000 C   0  0  0  0  0  0  0  0  0  0  0  0
    0.3317   -1.7882    0.0000 C   0  0  0  0  0  0  0  0  0  0  0  0
    1.6990   -1.1715    0.0000 C   0  0  0  0  0  0  0  0  0  0  0  0
    2.9168   -2.0473    0.0000 C   0  0  0  0  0  0  0  0  0  0  0  0
    2.7672   -3.5398    0.0000 N   0  0  0  0  0  0  0  0  0  0  0  0
    4.2841   -1.4305    0.0000 C   0  0  0  0  0  0  0  0  0  0  0  0
    4.4337    0.0620    0.0000 C   0  0  0  0  0  0  0  0  0  0  0  0
    5.8011    0.6787    0.0000 C   0  0  0  0  0  0  0  0  0  0  0  0
    5.9506    2.1713    0.0000 C   0  0  0  0  0  0  0  0  0  0  0  0
    4.7328    3.0471    0.0000 C   0  0  0  0  0  0  0  0  0  0  0  0
    3.3655    2.4303    0.0000 C   0  0  0  0  0  0  0  0  0  0  0  0
    3.2159    0.9378    0.0000 C   0  0  0  0  0  0  0  0  0  0  0  0
    1.9981    1.8136    0.0000 C   0  0  0  0  0  0  0  0  0  0  0  0
    1.8486    0.3211    0.0000 C   0  0  0  0  0  0  0  0  0  0  0  0
    0.6308    1.1968    0.0000 C   0  0  0  0  0  0  0  0  0  0  0  0
   -0.7366    0.5801    0.0000 C   0  0  0  0  0  0  0  0  0  0  0  0
   -1.9543    1.4559    0.0000 O   0  0  0  0  0  0  0  0  0  0  0  0
   -0.8861   -0.9124    0.0000 C   0  0  0  0  0  0  0  0  0  0  0  0
   -2.1888   -0.1687    0.0000 C   0  0  0  0  0  0  0  0  0  0  0  0
  2  1  1  6
  2  3  1  0
  3  4  1  0
  4  5  1  0
  5  6  2  0
  5  7  1  0
  2  8  1  0
  8  9  1  6
  9 10  1  0
 11 10  1  6
 11 12  1  0
 12 13  1  1
 13 14  1  1
 13 15  1  0
 16 15  1  1
 16 17  1  0
 17 18  1  0
 18 19  1  0
 19 20  1  0
 20 21  1  0
 21 22  1  6
 21 23  1  0
 23 24  1  6
 24 25  1  0
 25 26  1  1
 25 27  1  0
 27 28  1  6
 27  8  1  0
 27 11  1  0
 23 12  1  0
 21 16  1  0
M  END
>  <MS_ID>  (658) 
MS0686

>  <SMILES>  (658) 
C[C@H](CCC(=O)O)[C@H]1CC[C@H]2[C@@H]3[C@H](N)C[C@@H]4CCCC[C@]4(C)[C@H]3C[C@H](O)[C@]12C

>  <Structure_dimension>  (658) 
2D

$$$$
MS0687
     RDKit          2D

 27 30  0  0  0  0  0  0  0  0999 V2000
   -5.1023   -2.0364    0.0000 C   0  0  0  0  0  0  0  0  0  0  0  0
   -3.8978   -1.1425    0.0000 C   0  0  0  0  0  0  0  0  0  0  0  0
   -4.0697    0.3476    0.0000 C   0  0  0  0  0  0  0  0  0  0  0  0
   -5.4461    0.9438    0.0000 C   0  0  0  0  0  0  0  0  0  0  0  0
   -5.6180    2.4339    0.0000 C   0  0  0  0  0  0  0  0  0  0  0  0
   -6.9944    3.0301    0.0000 O   0  0  0  0  0  0  0  0  0  0  0  0
   -4.4135    3.3278    0.0000 F   0  0  0  0  0  0  0  0  0  0  0  0
   -2.5213   -1.7387    0.0000 C   0  0  0  0  0  0  0  0  0  0  0  0
   -2.1946   -3.2027    0.0000 C   0  0  0  0  0  0  0  0  0  0  0  0
   -0.7013   -3.3444    0.0000 C   0  0  0  0  0  0  0  0  0  0  0  0
   -0.1051   -1.9679    0.0000 C   0  0  0  0  0  0  0  0  0  0  0  0
    1.3167   -1.4900    0.0000 C   0  0  0  0  0  0  0  0  0  0  0  0
    2.4415   -2.4823    0.0000 C   0  0  0  0  0  0  0  0  0  0  0  0
    3.8633   -2.0044    0.0000 C   0  0  0  0  0  0  0  0  0  0  0  0
    4.1603   -0.5341    0.0000 C   0  0  0  0  0  0  0  0  0  0  0  0
    5.5821   -0.0561    0.0000 C   0  0  0  0  0  0  0  0  0  0  0  0
    5.8791    1.4142    0.0000 C   0  0  0  0  0  0  0  0  0  0  0  0
    7.3009    1.8921    0.0000 O   0  0  0  0  0  0  0  0  0  0  0  0
    4.7543    2.4065    0.0000 C   0  0  0  0  0  0  0  0  0  0  0  0
    3.3325    1.9286    0.0000 C   0  0  0  0  0  0  0  0  0  0  0  0
    3.0355    0.4583    0.0000 C   0  0  0  0  0  0  0  0  0  0  0  0
    1.9107    1.4506    0.0000 C   0  0  0  0  0  0  0  0  0  0  0  0
    1.6137   -0.0197    0.0000 C   0  0  0  0  0  0  0  0  0  0  0  0
    0.4888    0.9727    0.0000 C   0  0  0  0  0  0  0  0  0  0  0  0
   -0.9330    0.4947    0.0000 C   0  0  0  0  0  0  0  0  0  0  0  0
   -1.2300   -0.9756    0.0000 C   0  0  0  0  0  0  0  0  0  0  0  0
   -2.4524   -0.1062    0.0000 C   0  0  0  0  0  0  0  0  0  0  0  0
  2  1  1  6
  2  3  1  0
  3  4  1  0
  4  5  1  0
  5  6  2  0
  5  7  1  0
  2  8  1  0
  8  9  1  6
  9 10  1  0
 11 10  1  6
 11 12  1  0
 12 13  1  1
 13 14  1  0
 15 14  1  1
 15 16  1  0
 16 17  1  0
 17 18  1  6
 17 19  1  0
 19 20  1  0
 20 21  1  0
 21 22  1  6
 21 23  1  0
 23 24  1  6
 24 25  1  0
 25 26  1  0
 26 27  1  6
 26  8  1  0
 26 11  1  0
 23 12  1  0
 21 15  1  0
M  END
>  <MS_ID>  (659) 
MS0687

>  <SMILES>  (659) 
C[C@H](CCC(=O)F)[C@H]1CC[C@H]2[C@@H]3CC[C@@H]4C[C@@H](O)CC[C@]4(C)[C@H]3CC[C@]12C

>  <Structure_dimension>  (659) 
2D

$$$$
MS0688
     RDKit          2D

 35 38  0  0  0  0  0  0  0  0999 V2000
   -1.9333   -5.2337    0.0000 C   0  0  0  0  0  0  0  0  0  0  0  0
   -1.3710   -3.8431    0.0000 C   0  0  0  0  0  0  0  0  0  0  0  0
   -2.2941   -2.6608    0.0000 C   0  0  0  0  0  0  0  0  0  0  0  0
   -3.7796   -2.8692    0.0000 C   0  0  0  0  0  0  0  0  0  0  0  0
   -4.7028   -1.6869    0.0000 C   0  0  0  0  0  0  0  0  0  0  0  0
   -6.1882   -1.8953    0.0000 O   0  0  0  0  0  0  0  0  0  0  0  0
   -4.1405   -0.2963    0.0000 O   0  0  0  0  0  0  0  0  0  0  0  0
   -5.0636    0.8860    0.0000 C   0  0  0  0  0  0  0  0  0  0  0  0
   -6.5491    0.6776    0.0000 O   0  0  0  0  0  0  0  0  0  0  0  0
   -4.5013    2.2766    0.0000 N   0  0  0  0  0  0  0  0  0  0  0  0
   -5.4245    3.4589    0.0000 C   0  0  0  0  0  0  0  0  0  0  0  0
   -4.8622    4.8495    0.0000 C   0  0  0  0  0  0  0  0  0  0  0  0
   -3.3768    5.0578    0.0000 O   0  0  0  0  0  0  0  0  0  0  0  0
   -5.7854    6.0318    0.0000 O   0  0  0  0  0  0  0  0  0  0  0  0
    0.1145   -3.6348    0.0000 C   0  0  0  0  0  0  0  0  0  0  0  0
    1.1562   -4.7141    0.0000 C   0  0  0  0  0  0  0  0  0  0  0  0
    2.5045   -4.0569    0.0000 C   0  0  0  0  0  0  0  0  0  0  0  0
    2.2962   -2.5714    0.0000 C   0  0  0  0  0  0  0  0  0  0  0  0
    3.2607   -1.4226    0.0000 C   0  0  0  0  0  0  0  0  0  0  0  0
    4.7378   -1.6835    0.0000 C   0  0  0  0  0  0  0  0  0  0  0  0
    5.7023   -0.5347    0.0000 C   0  0  0  0  0  0  0  0  0  0  0  0
    5.1897    0.8750    0.0000 C   0  0  0  0  0  0  0  0  0  0  0  0
    6.1542    2.0238    0.0000 C   0  0  0  0  0  0  0  0  0  0  0  0
    5.6415    3.4335    0.0000 C   0  0  0  0  0  0  0  0  0  0  0  0
    6.6060    4.5823    0.0000 O   0  0  0  0  0  0  0  0  0  0  0  0
    4.1644    3.6943    0.0000 C   0  0  0  0  0  0  0  0  0  0  0  0
    3.1999    2.5455    0.0000 C   0  0  0  0  0  0  0  0  0  0  0  0
    3.7126    1.1359    0.0000 C   0  0  0  0  0  0  0  0  0  0  0  0
    2.2354    1.3967    0.0000 C   0  0  0  0  0  0  0  0  0  0  0  0
    2.7481   -0.0129    0.0000 C   0  0  0  0  0  0  0  0  0  0  0  0
    1.2709    0.2479    0.0000 C   0  0  0  0  0  0  0  0  0  0  0  0
    0.3064   -0.9009    0.0000 C   0  0  0  0  0  0  0  0  0  0  0  0
   -1.1707   -0.6400    0.0000 O   0  0  0  0  0  0  0  0  0  0  0  0
    0.8191   -2.3105    0.0000 C   0  0  0  0  0  0  0  0  0  0  0  0
   -0.6773   -2.2055    0.0000 C   0  0  0  0  0  0  0  0  0  0  0  0
  2  1  1  6
  2  3  1  0
  3  4  1  0
  4  5  1  0
  5  6  2  0
  5  7  1  0
  7  8  1  0
  8  9  2  0
  8 10  1  0
 10 11  1  0
 11 12  1  0
 12 13  2  0
 12 14  1  0
  2 15  1  0
 15 16  1  6
 16 17  1  0
 18 17  1  6
 18 19  1  0
 19 20  1  1
 20 21  1  0
 22 21  1  1
 22 23  1  0
 23 24  1  0
 24 25  1  1
 24 26  1  0
 26 27  1  0
 27 28  1  0
 28 29  1  6
 28 30  1  0
 30 31  1  6
 31 32  1  0
 32 33  1  1
 32 34  1  0
 34 35  1  6
 34 15  1  0
 34 18  1  0
 30 19  1  0
 28 22  1  0
M  END
>  <MS_ID>  (660) 
MS0688

>  <SMILES>  (660) 
C[C@H](CCC(=O)OC(=O)NCC(=O)O)[C@H]1CC[C@H]2[C@@H]3CC[C@@H]4C[C@H](O)CC[C@]4(C)[C@H]3C[C@H](O)[C@]12C

>  <Structure_dimension>  (660) 
2D

$$$$
MS0689
     RDKit          2D

 34 37  0  0  0  0  0  0  0  0999 V2000
   -2.0431   -4.2971    0.0000 C   0  0  0  0  0  0  0  0  0  0  0  0
   -1.3315   -2.9767    0.0000 C   0  0  0  0  0  0  0  0  0  0  0  0
   -2.1193   -1.7002    0.0000 C   0  0  0  0  0  0  0  0  0  0  0  0
   -3.6187   -1.7442    0.0000 C   0  0  0  0  0  0  0  0  0  0  0  0
   -4.4064   -0.4677    0.0000 C   0  0  0  0  0  0  0  0  0  0  0  0
   -3.6948    0.8528    0.0000 O   0  0  0  0  0  0  0  0  0  0  0  0
   -5.9058   -0.5117    0.0000 C   0  0  0  0  0  0  0  0  0  0  0  0
   -6.6936    0.7648    0.0000 C   0  0  0  0  0  0  0  0  0  0  0  0
   -8.1929    0.7208    0.0000 O   0  0  0  0  0  0  0  0  0  0  0  0
   -8.9807    1.9973    0.0000 S   0  0  0  0  0  0  0  0  0  0  0  0
   -7.7042    2.7851    0.0000 O   0  0  0  0  0  0  0  0  0  0  0  0
  -10.2572    1.2096    0.0000 O   0  0  0  0  0  0  0  0  0  0  0  0
   -9.7684    3.2738    0.0000 O   0  0  0  0  0  0  0  0  0  0  0  0
    0.1678   -2.9327    0.0000 C   0  0  0  0  0  0  0  0  0  0  0  0
    1.0847   -4.1198    0.0000 C   0  0  0  0  0  0  0  0  0  0  0  0
    2.4971   -3.6147    0.0000 C   0  0  0  0  0  0  0  0  0  0  0  0
    2.4531   -2.1153    0.0000 C   0  0  0  0  0  0  0  0  0  0  0  0
    3.5379   -1.0794    0.0000 C   0  0  0  0  0  0  0  0  0  0  0  0
    4.9775   -1.5009    0.0000 C   0  0  0  0  0  0  0  0  0  0  0  0
    5.3322   -2.9583    0.0000 O   0  0  0  0  0  0  0  0  0  0  0  0
    6.0623   -0.4649    0.0000 C   0  0  0  0  0  0  0  0  0  0  0  0
    5.7075    0.9925    0.0000 C   0  0  0  0  0  0  0  0  0  0  0  0
    6.7923    2.0285    0.0000 C   0  0  0  0  0  0  0  0  0  0  0  0
    6.4376    3.4859    0.0000 C   0  0  0  0  0  0  0  0  0  0  0  0
    7.5224    4.5219    0.0000 O   0  0  0  0  0  0  0  0  0  0  0  0
    4.9980    3.9074    0.0000 C   0  0  0  0  0  0  0  0  0  0  0  0
    3.9132    2.8715    0.0000 C   0  0  0  0  0  0  0  0  0  0  0  0
    4.2680    1.4140    0.0000 C   0  0  0  0  0  0  0  0  0  0  0  0
    2.8284    1.8355    0.0000 C   0  0  0  0  0  0  0  0  0  0  0  0
    3.1831    0.3781    0.0000 C   0  0  0  0  0  0  0  0  0  0  0  0
    1.7436    0.7996    0.0000 C   0  0  0  0  0  0  0  0  0  0  0  0
    0.6588   -0.2364    0.0000 C   0  0  0  0  0  0  0  0  0  0  0  0
    1.0135   -1.6938    0.0000 C   0  0  0  0  0  0  0  0  0  0  0  0
   -0.4622   -1.4251    0.0000 C   0  0  0  0  0  0  0  0  0  0  0  0
  2  1  1  6
  2  3  1  0
  3  4  1  0
  4  5  1  0
  5  6  2  0
  5  7  1  0
  7  8  1  0
  8  9  1  0
  9 10  1  0
 10 11  2  0
 10 12  2  0
 10 13  1  0
  2 14  1  0
 14 15  1  6
 15 16  1  0
 17 16  1  6
 17 18  1  0
 18 19  1  1
 19 20  1  1
 19 21  1  0
 22 21  1  1
 22 23  1  0
 23 24  1  0
 24 25  1  1
 24 26  1  0
 26 27  1  0
 27 28  1  0
 28 29  1  6
 28 30  1  0
 30 31  1  6
 31 32  1  0
 32 33  1  0
 33 34  1  6
 33 14  1  0
 33 17  1  0
 30 18  1  0
 28 22  1  0
M  END
>  <MS_ID>  (661) 
MS0689

>  <SMILES>  (661) 
C[C@H](CCC(=O)CCOS(=O)(=O)O)[C@H]1CC[C@H]2[C@@H]3[C@H](O)C[C@@H]4C[C@H](O)CC[C@]4(C)[C@H]3CC[C@]12C

>  <Structure_dimension>  (661) 
2D

$$$$
MS0690
     RDKit          2D

 30 33  0  0  0  0  0  0  0  0999 V2000
   -4.1099   -3.1124    0.0000 C   0  0  0  0  0  0  0  0  0  0  0  0
   -3.1089   -1.9953    0.0000 C   0  0  0  0  0  0  0  0  0  0  0  0
   -3.5759   -0.5698    0.0000 C   0  0  0  0  0  0  0  0  0  0  0  0
   -5.0438   -0.2615    0.0000 C   0  0  0  0  0  0  0  0  0  0  0  0
   -5.5108    1.1640    0.0000 C   0  0  0  0  0  0  0  0  0  0  0  0
   -4.5097    2.2811    0.0000 O   0  0  0  0  0  0  0  0  0  0  0  0
   -6.9787    1.4724    0.0000 C   0  0  0  0  0  0  0  0  0  0  0  0
   -7.4457    2.8978    0.0000 C   0  0  0  0  0  0  0  0  0  0  0  0
   -8.9136    3.2062    0.0000 O   0  0  0  0  0  0  0  0  0  0  0  0
   -1.6409   -2.3036    0.0000 C   0  0  0  0  0  0  0  0  0  0  0  0
   -1.0276   -3.6725    0.0000 C   0  0  0  0  0  0  0  0  0  0  0  0
    0.4638   -3.5121    0.0000 C   0  0  0  0  0  0  0  0  0  0  0  0
    0.7722   -2.0441    0.0000 C   0  0  0  0  0  0  0  0  0  0  0  0
    2.0694   -1.2910    0.0000 C   0  0  0  0  0  0  0  0  0  0  0  0
    3.3703   -2.0379    0.0000 C   0  0  0  0  0  0  0  0  0  0  0  0
    3.3739   -3.5379    0.0000 O   0  0  0  0  0  0  0  0  0  0  0  0
    4.6675   -1.2848    0.0000 C   0  0  0  0  0  0  0  0  0  0  0  0
    4.6639    0.2152    0.0000 C   0  0  0  0  0  0  0  0  0  0  0  0
    5.9611    0.9683    0.0000 C   0  0  0  0  0  0  0  0  0  0  0  0
    5.9575    2.4683    0.0000 C   0  0  0  0  0  0  0  0  0  0  0  0
    7.2548    3.2214    0.0000 O   0  0  0  0  0  0  0  0  0  0  0  0
    4.6567    3.2152    0.0000 C   0  0  0  0  0  0  0  0  0  0  0  0
    3.3595    2.4621    0.0000 C   0  0  0  0  0  0  0  0  0  0  0  0
    3.3631    0.9621    0.0000 C   0  0  0  0  0  0  0  0  0  0  0  0
    2.0622    1.7090    0.0000 C   0  0  0  0  0  0  0  0  0  0  0  0
    2.0658    0.2090    0.0000 C   0  0  0  0  0  0  0  0  0  0  0  0
    0.7650    0.9559    0.0000 C   0  0  0  0  0  0  0  0  0  0  0  0
   -0.5322    0.2027    0.0000 C   0  0  0  0  0  0  0  0  0  0  0  0
   -0.5286   -1.2973    0.0000 C   0  0  0  0  0  0  0  0  0  0  0  0
   -1.9004   -0.6904    0.0000 C   0  0  0  0  0  0  0  0  0  0  0  0
  2  1  1  6
  2  3  1  0
  3  4  1  0
  4  5  1  0
  5  6  2  0
  5  7  1  0
  7  8  1  0
  8  9  1  0
  2 10  1  0
 10 11  1  6
 11 12  1  0
 13 12  1  6
 13 14  1  0
 14 15  1  1
 15 16  1  1
 15 17  1  0
 18 17  1  1
 18 19  1  0
 19 20  1  0
 20 21  1  6
 20 22  1  0
 22 23  1  0
 23 24  1  0
 24 25  1  6
 24 26  1  0
 26 27  1  6
 27 28  1  0
 28 29  1  0
 29 30  1  6
 29 10  1  0
 29 13  1  0
 26 14  1  0
 24 18  1  0
M  END
>  <MS_ID>  (662) 
MS0690

>  <SMILES>  (662) 
C[C@H](CCC(=O)CCO)[C@H]1CC[C@H]2[C@@H]3[C@H](O)C[C@@H]4C[C@@H](O)CC[C@]4(C)[C@H]3CC[C@]12C

>  <Structure_dimension>  (662) 
2D

$$$$
MS0691
     RDKit          2D

 35 38  0  0  0  0  0  0  0  0999 V2000
   -2.4368   -4.1726    0.0000 C   0  0  0  0  0  0  0  0  0  0  0  0
   -1.6698   -2.8835    0.0000 C   0  0  0  0  0  0  0  0  0  0  0  0
   -2.4027   -1.5747    0.0000 C   0  0  0  0  0  0  0  0  0  0  0  0
   -3.9026   -1.5550    0.0000 C   0  0  0  0  0  0  0  0  0  0  0  0
   -4.6355   -0.2462    0.0000 C   0  0  0  0  0  0  0  0  0  0  0  0
   -3.8685    1.0428    0.0000 O   0  0  0  0  0  0  0  0  0  0  0  0
   -6.1353   -0.2265    0.0000 N   0  0  0  0  0  0  0  0  0  0  0  0
   -6.8682    1.0822    0.0000 S   0  0  0  0  0  0  0  0  0  0  0  0
   -8.1770    0.3494    0.0000 O   0  0  0  0  0  0  0  0  0  0  0  0
   -5.5594    1.8151    0.0000 O   0  0  0  0  0  0  0  0  0  0  0  0
   -7.6011    2.3910    0.0000 N   0  0  0  0  0  0  0  0  0  0  0  0
   -6.8341    3.6801    0.0000 C   0  0  0  0  0  0  0  0  0  0  0  0
   -9.1009    2.4107    0.0000 C   0  0  0  0  0  0  0  0  0  0  0  0
   -0.1700   -2.9032    0.0000 C   0  0  0  0  0  0  0  0  0  0  0  0
    0.6957   -4.1282    0.0000 C   0  0  0  0  0  0  0  0  0  0  0  0
    2.1282   -3.6835    0.0000 C   0  0  0  0  0  0  0  0  0  0  0  0
    2.1479   -2.1836    0.0000 C   0  0  0  0  0  0  0  0  0  0  0  0
    3.2757   -1.1946    0.0000 C   0  0  0  0  0  0  0  0  0  0  0  0
    4.6961   -1.6768    0.0000 C   0  0  0  0  0  0  0  0  0  0  0  0
    4.9887   -3.1480    0.0000 O   0  0  0  0  0  0  0  0  0  0  0  0
    5.8239   -0.6879    0.0000 C   0  0  0  0  0  0  0  0  0  0  0  0
    5.5314    0.7833    0.0000 C   0  0  0  0  0  0  0  0  0  0  0  0
    6.6592    1.7723    0.0000 C   0  0  0  0  0  0  0  0  0  0  0  0
    6.3666    3.2435    0.0000 C   0  0  0  0  0  0  0  0  0  0  0  0
    7.4944    4.2324    0.0000 O   0  0  0  0  0  0  0  0  0  0  0  0
    4.9462    3.7257    0.0000 C   0  0  0  0  0  0  0  0  0  0  0  0
    3.8184    2.7367    0.0000 C   0  0  0  0  0  0  0  0  0  0  0  0
    4.1110    1.2655    0.0000 C   0  0  0  0  0  0  0  0  0  0  0  0
    2.6906    1.7478    0.0000 C   0  0  0  0  0  0  0  0  0  0  0  0
    2.9832    0.2766    0.0000 C   0  0  0  0  0  0  0  0  0  0  0  0
    1.5628    0.7588    0.0000 C   0  0  0  0  0  0  0  0  0  0  0  0
    0.4350   -0.2302    0.0000 C   0  0  0  0  0  0  0  0  0  0  0  0
   -0.9854    0.2521    0.0000 O   0  0  0  0  0  0  0  0  0  0  0  0
    0.7276   -1.7014    0.0000 C   0  0  0  0  0  0  0  0  0  0  0  0
   -0.7354   -1.3702    0.0000 C   0  0  0  0  0  0  0  0  0  0  0  0
  2  1  1  6
  2  3  1  0
  3  4  1  0
  4  5  1  0
  5  6  2  0
  5  7  1  0
  7  8  1  0
  8  9  2  0
  8 10  2  0
  8 11  1  0
 11 12  1  0
 11 13  1  0
  2 14  1  0
 14 15  1  6
 15 16  1  0
 17 16  1  6
 17 18  1  0
 18 19  1  1
 19 20  1  1
 19 21  1  0
 22 21  1  1
 22 23  1  0
 23 24  1  0
 24 25  1  1
 24 26  1  0
 26 27  1  0
 27 28  1  0
 28 29  1  6
 28 30  1  0
 30 31  1  6
 31 32  1  0
 32 33  1  1
 32 34  1  0
 34 35  1  6
 34 14  1  0
 34 17  1  0
 30 18  1  0
 28 22  1  0
M  END
>  <MS_ID>  (663) 
MS0691

>  <SMILES>  (663) 
C[C@H](CCC(=O)NS(=O)(=O)N(C)C)[C@H]1CC[C@H]2[C@@H]3[C@H](O)C[C@@H]4C[C@H](O)CC[C@]4(C)[C@H]3C[C@H](O)[C@]12C

>  <Structure_dimension>  (663) 
2D

$$$$
MS0692
     RDKit          2D

 35 39  0  0  0  0  0  0  0  0999 V2000
   -1.8316   -4.4400    0.0000 C   0  0  0  0  0  0  0  0  0  0  0  0
   -1.1512   -3.1031    0.0000 C   0  0  0  0  0  0  0  0  0  0  0  0
   -1.9688   -1.8455    0.0000 C   0  0  0  0  0  0  0  0  0  0  0  0
   -3.4667   -1.9247    0.0000 C   0  0  0  0  0  0  0  0  0  0  0  0
   -4.2842   -0.6671    0.0000 C   0  0  0  0  0  0  0  0  0  0  0  0
   -3.6038    0.6698    0.0000 O   0  0  0  0  0  0  0  0  0  0  0  0
   -5.7821   -0.7462    0.0000 N   0  0  0  0  0  0  0  0  0  0  0  0
   -6.5996    0.5114    0.0000 C   0  0  0  0  0  0  0  0  0  0  0  0
   -5.9193    1.8482    0.0000 C   0  0  0  0  0  0  0  0  0  0  0  0
   -6.7368    3.1059    0.0000 C   0  0  0  0  0  0  0  0  0  0  0  0
   -8.2347    3.0267    0.0000 C   0  0  0  0  0  0  0  0  0  0  0  0
   -8.9151    1.6898    0.0000 C   0  0  0  0  0  0  0  0  0  0  0  0
  -10.4130    1.6107    0.0000 O   0  0  0  0  0  0  0  0  0  0  0  0
   -8.0976    0.4322    0.0000 C   0  0  0  0  0  0  0  0  0  0  0  0
    0.3467   -3.0240    0.0000 C   0  0  0  0  0  0  0  0  0  0  0  0
    1.2912   -4.1892    0.0000 C   0  0  0  0  0  0  0  0  0  0  0  0
    2.6913   -3.6511    0.0000 C   0  0  0  0  0  0  0  0  0  0  0  0
    2.6121   -2.1531    0.0000 C   0  0  0  0  0  0  0  0  0  0  0  0
    3.6723   -1.0920    0.0000 C   0  0  0  0  0  0  0  0  0  0  0  0
    5.1214   -1.4796    0.0000 C   0  0  0  0  0  0  0  0  0  0  0  0
    5.5103   -2.9283    0.0000 O   0  0  0  0  0  0  0  0  0  0  0  0
    6.1815   -0.4184    0.0000 C   0  0  0  0  0  0  0  0  0  0  0  0
    5.7927    1.0303    0.0000 C   0  0  0  0  0  0  0  0  0  0  0  0
    6.8528    2.0914    0.0000 C   0  0  0  0  0  0  0  0  0  0  0  0
    6.4640    3.5401    0.0000 C   0  0  0  0  0  0  0  0  0  0  0  0
    7.5241    4.6013    0.0000 O   0  0  0  0  0  0  0  0  0  0  0  0
    5.0149    3.9277    0.0000 C   0  0  0  0  0  0  0  0  0  0  0  0
    3.9547    2.8666    0.0000 C   0  0  0  0  0  0  0  0  0  0  0  0
    4.3436    1.4179    0.0000 C   0  0  0  0  0  0  0  0  0  0  0  0
    2.8945    1.8054    0.0000 C   0  0  0  0  0  0  0  0  0  0  0  0
    3.2834    0.3567    0.0000 C   0  0  0  0  0  0  0  0  0  0  0  0
    1.8344    0.7443    0.0000 C   0  0  0  0  0  0  0  0  0  0  0  0
    0.7742   -0.3169    0.0000 C   0  0  0  0  0  0  0  0  0  0  0  0
    1.1631   -1.7656    0.0000 C   0  0  0  0  0  0  0  0  0  0  0  0
   -0.3186   -1.5316    0.0000 C   0  0  0  0  0  0  0  0  0  0  0  0
  2  1  1  6
  2  3  1  0
  3  4  1  0
  4  5  1  0
  5  6  2  0
  5  7  1  0
  7  8  1  0
  8  9  2  0
  9 10  1  0
 10 11  2  0
 11 12  1  0
 12 13  1  0
 12 14  2  0
  2 15  1  0
 15 16  1  6
 16 17  1  0
 18 17  1  6
 18 19  1  0
 19 20  1  1
 20 21  1  1
 20 22  1  0
 23 22  1  1
 23 24  1  0
 24 25  1  0
 25 26  1  1
 25 27  1  0
 27 28  1  0
 28 29  1  0
 29 30  1  6
 29 31  1  0
 31 32  1  6
 32 33  1  0
 33 34  1  0
 34 35  1  6
 14  8  1  0
 34 15  1  0
 34 18  1  0
 31 19  1  0
 29 23  1  0
M  END
>  <MS_ID>  (664) 
MS0692

>  <SMILES>  (664) 
C[C@H](CCC(=O)Nc1cccc(O)c1)[C@H]1CC[C@H]2[C@@H]3[C@H](O)C[C@@H]4C[C@H](O)CC[C@]4(C)[C@H]3CC[C@]12C

>  <Structure_dimension>  (664) 
2D

$$$$
MS0693
     RDKit          2D

 31 34  0  0  0  0  0  0  0  0999 V2000
   -3.4301   -3.6172    0.0000 C   0  0  0  0  0  0  0  0  0  0  0  0
   -2.4973   -2.4425    0.0000 C   0  0  0  0  0  0  0  0  0  0  0  0
   -3.0483   -1.0473    0.0000 C   0  0  0  0  0  0  0  0  0  0  0  0
   -4.5321   -0.8270    0.0000 C   0  0  0  0  0  0  0  0  0  0  0  0
   -5.0831    0.5682    0.0000 C   0  0  0  0  0  0  0  0  0  0  0  0
   -4.1503    1.7429    0.0000 O   0  0  0  0  0  0  0  0  0  0  0  0
   -6.5668    0.7886    0.0000 N   0  0  0  0  0  0  0  0  0  0  0  0
   -7.1178    2.1837    0.0000 C   0  0  0  0  0  0  0  0  0  0  0  0
   -8.6015    2.4041    0.0000 C   0  0  0  0  0  0  0  0  0  0  0  0
   -9.1525    3.7992    0.0000 O   0  0  0  0  0  0  0  0  0  0  0  0
   -1.0136   -2.6629    0.0000 C   0  0  0  0  0  0  0  0  0  0  0  0
   -0.3198   -3.9928    0.0000 C   0  0  0  0  0  0  0  0  0  0  0  0
    1.1594   -3.7439    0.0000 C   0  0  0  0  0  0  0  0  0  0  0  0
    1.3798   -2.2602    0.0000 C   0  0  0  0  0  0  0  0  0  0  0  0
    2.6299   -1.4311    0.0000 C   0  0  0  0  0  0  0  0  0  0  0  0
    3.9729   -2.0992    0.0000 C   0  0  0  0  0  0  0  0  0  0  0  0
    5.2230   -1.2702    0.0000 C   0  0  0  0  0  0  0  0  0  0  0  0
    5.1301    0.2269    0.0000 C   0  0  0  0  0  0  0  0  0  0  0  0
    6.3802    1.0559    0.0000 C   0  0  0  0  0  0  0  0  0  0  0  0
    6.2872    2.5531    0.0000 C   0  0  0  0  0  0  0  0  0  0  0  0
    7.5373    3.3821    0.0000 O   0  0  0  0  0  0  0  0  0  0  0  0
    4.9442    3.2212    0.0000 C   0  0  0  0  0  0  0  0  0  0  0  0
    3.6942    2.3921    0.0000 C   0  0  0  0  0  0  0  0  0  0  0  0
    3.7871    0.8950    0.0000 C   0  0  0  0  0  0  0  0  0  0  0  0
    2.4441    1.5631    0.0000 C   0  0  0  0  0  0  0  0  0  0  0  0
    2.5370    0.0660    0.0000 C   0  0  0  0  0  0  0  0  0  0  0  0
    1.1940    0.7341    0.0000 C   0  0  0  0  0  0  0  0  0  0  0  0
   -0.0561   -0.0949    0.0000 C   0  0  0  0  0  0  0  0  0  0  0  0
   -1.3991    0.5732    0.0000 O   0  0  0  0  0  0  0  0  0  0  0  0
    0.0368   -1.5921    0.0000 C   0  0  0  0  0  0  0  0  0  0  0  0
   -1.3687   -1.0680    0.0000 C   0  0  0  0  0  0  0  0  0  0  0  0
  2  1  1  6
  2  3  1  0
  3  4  1  0
  4  5  1  0
  5  6  2  0
  5  7  1  0
  7  8  1  0
  8  9  1  0
  9 10  1  0
  2 11  1  0
 11 12  1  6
 12 13  1  0
 14 13  1  6
 14 15  1  0
 15 16  1  1
 16 17  1  0
 18 17  1  1
 18 19  1  0
 19 20  1  0
 20 21  1  1
 20 22  1  0
 22 23  1  0
 23 24  1  0
 24 25  1  6
 24 26  1  0
 26 27  1  6
 27 28  1  0
 28 29  1  1
 28 30  1  0
 30 31  1  6
 30 11  1  0
 30 14  1  0
 26 15  1  0
 24 18  1  0
M  END
>  <MS_ID>  (665) 
MS0693

>  <SMILES>  (665) 
C[C@H](CCC(=O)NCCO)[C@H]1CC[C@H]2[C@@H]3CC[C@@H]4C[C@H](O)CC[C@]4(C)[C@H]3C[C@H](O)[C@]12C

>  <Structure_dimension>  (665) 
2D

$$$$
MS0694
     RDKit          2D

 29 32  0  0  0  0  0  0  0  0999 V2000
   -4.5534   -2.6812    0.0000 C   0  0  0  0  0  0  0  0  0  0  0  0
   -3.4378   -1.6786    0.0000 C   0  0  0  0  0  0  0  0  0  0  0  0
   -3.7483   -0.2111    0.0000 C   0  0  0  0  0  0  0  0  0  0  0  0
   -5.1744    0.2538    0.0000 C   0  0  0  0  0  0  0  0  0  0  0  0
   -5.4850    1.7213    0.0000 C   0  0  0  0  0  0  0  0  0  0  0  0
   -4.3693    2.7239    0.0000 O   0  0  0  0  0  0  0  0  0  0  0  0
   -6.9111    2.1861    0.0000 C   0  0  0  0  0  0  0  0  0  0  0  0
   -7.2216    3.6536    0.0000 F   0  0  0  0  0  0  0  0  0  0  0  0
   -2.0116   -2.1434    0.0000 C   0  0  0  0  0  0  0  0  0  0  0  0
   -1.5494   -3.5704    0.0000 C   0  0  0  0  0  0  0  0  0  0  0  0
   -0.0494   -3.5718    0.0000 C   0  0  0  0  0  0  0  0  0  0  0  0
    0.4155   -2.1456    0.0000 C   0  0  0  0  0  0  0  0  0  0  0  0
    1.7863   -1.5368    0.0000 C   0  0  0  0  0  0  0  0  0  0  0  0
    2.9990   -2.4196    0.0000 C   0  0  0  0  0  0  0  0  0  0  0  0
    4.3699   -1.8107    0.0000 C   0  0  0  0  0  0  0  0  0  0  0  0
    4.5281   -0.3191    0.0000 C   0  0  0  0  0  0  0  0  0  0  0  0
    5.8990    0.2898    0.0000 C   0  0  0  0  0  0  0  0  0  0  0  0
    6.0571    1.7814    0.0000 C   0  0  0  0  0  0  0  0  0  0  0  0
    7.4280    2.3902    0.0000 O   0  0  0  0  0  0  0  0  0  0  0  0
    4.8444    2.6642    0.0000 C   0  0  0  0  0  0  0  0  0  0  0  0
    3.4735    2.0553    0.0000 C   0  0  0  0  0  0  0  0  0  0  0  0
    3.3154    0.5637    0.0000 C   0  0  0  0  0  0  0  0  0  0  0  0
    2.1026    1.4465    0.0000 C   0  0  0  0  0  0  0  0  0  0  0  0
    1.9445   -0.0451    0.0000 C   0  0  0  0  0  0  0  0  0  0  0  0
    0.7318    0.8376    0.0000 C   0  0  0  0  0  0  0  0  0  0  0  0
   -0.6391    0.2288    0.0000 C   0  0  0  0  0  0  0  0  0  0  0  0
   -1.8518    1.1116    0.0000 O   0  0  0  0  0  0  0  0  0  0  0  0
   -0.7973   -1.2628    0.0000 C   0  0  0  0  0  0  0  0  0  0  0  0
   -2.0956   -0.5116    0.0000 C   0  0  0  0  0  0  0  0  0  0  0  0
  2  1  1  6
  2  3  1  0
  3  4  1  0
  4  5  1  0
  5  6  2  0
  5  7  1  0
  7  8  1  0
  2  9  1  0
  9 10  1  6
 10 11  1  0
 12 11  1  6
 12 13  1  0
 13 14  1  1
 14 15  1  0
 16 15  1  1
 16 17  1  0
 17 18  1  0
 18 19  1  1
 18 20  1  0
 20 21  1  0
 21 22  1  0
 22 23  1  6
 22 24  1  0
 24 25  1  6
 25 26  1  0
 26 27  1  1
 26 28  1  0
 28 29  1  6
 28  9  1  0
 28 12  1  0
 24 13  1  0
 22 16  1  0
M  END
>  <MS_ID>  (666) 
MS0694

>  <SMILES>  (666) 
C[C@H](CCC(=O)CF)[C@H]1CC[C@H]2[C@@H]3CC[C@@H]4C[C@H](O)CC[C@]4(C)[C@H]3C[C@H](O)[C@]12C

>  <Structure_dimension>  (666) 
2D

$$$$
MS0695
     RDKit          2D

 29 32  0  0  0  0  0  0  0  0999 V2000
   -4.6551   -2.6180    0.0000 C   0  0  0  0  0  0  0  0  0  0  0  0
   -3.5633   -1.5894    0.0000 C   0  0  0  0  0  0  0  0  0  0  0  0
   -3.9081   -0.1296    0.0000 C   0  0  0  0  0  0  0  0  0  0  0  0
   -5.3448    0.3016    0.0000 C   0  0  0  0  0  0  0  0  0  0  0  0
   -5.6897    1.7615    0.0000 C   0  0  0  0  0  0  0  0  0  0  0  0
   -4.5979    2.7900    0.0000 O   0  0  0  0  0  0  0  0  0  0  0  0
   -7.1264    2.1927    0.0000 C   0  0  0  0  0  0  0  0  0  0  0  0
   -7.4712    3.6525    0.0000 F   0  0  0  0  0  0  0  0  0  0  0  0
   -2.1266   -2.0207    0.0000 C   0  0  0  0  0  0  0  0  0  0  0  0
   -1.6310   -3.4364    0.0000 C   0  0  0  0  0  0  0  0  0  0  0  0
   -0.1314   -3.4026    0.0000 C   0  0  0  0  0  0  0  0  0  0  0  0
    0.2998   -1.9659    0.0000 C   0  0  0  0  0  0  0  0  0  0  0  0
    1.6561   -1.3251    0.0000 C   0  0  0  0  0  0  0  0  0  0  0  0
    2.8892   -2.1792    0.0000 C   0  0  0  0  0  0  0  0  0  0  0  0
    2.7660   -3.6741    0.0000 O   0  0  0  0  0  0  0  0  0  0  0  0
    4.2454   -1.5383    0.0000 C   0  0  0  0  0  0  0  0  0  0  0  0
    4.3685   -0.0434    0.0000 C   0  0  0  0  0  0  0  0  0  0  0  0
    5.7247    0.5975    0.0000 C   0  0  0  0  0  0  0  0  0  0  0  0
    5.8478    2.0924    0.0000 C   0  0  0  0  0  0  0  0  0  0  0  0
    7.2040    2.7332    0.0000 O   0  0  0  0  0  0  0  0  0  0  0  0
    4.6147    2.9465    0.0000 C   0  0  0  0  0  0  0  0  0  0  0  0
    3.2585    2.3056    0.0000 C   0  0  0  0  0  0  0  0  0  0  0  0
    3.1354    0.8107    0.0000 C   0  0  0  0  0  0  0  0  0  0  0  0
    1.9023    1.6648    0.0000 C   0  0  0  0  0  0  0  0  0  0  0  0
    1.7792    0.1699    0.0000 C   0  0  0  0  0  0  0  0  0  0  0  0
    0.5461    1.0239    0.0000 C   0  0  0  0  0  0  0  0  0  0  0  0
   -0.8101    0.3831    0.0000 C   0  0  0  0  0  0  0  0  0  0  0  0
   -0.9333   -1.1118    0.0000 C   0  0  0  0  0  0  0  0  0  0  0  0
   -2.2489   -0.3913    0.0000 C   0  0  0  0  0  0  0  0  0  0  0  0
  2  1  1  6
  2  3  1  0
  3  4  1  0
  4  5  1  0
  5  6  2  0
  5  7  1  0
  7  8  1  0
  2  9  1  0
  9 10  1  6
 10 11  1  0
 12 11  1  6
 12 13  1  0
 13 14  1  1
 14 15  1  1
 14 16  1  0
 17 16  1  1
 17 18  1  0
 18 19  1  0
 19 20  1  1
 19 21  1  0
 21 22  1  0
 22 23  1  0
 23 24  1  6
 23 25  1  0
 25 26  1  6
 26 27  1  0
 27 28  1  0
 28 29  1  6
 28  9  1  0
 28 12  1  0
 25 13  1  0
 23 17  1  0
M  END
>  <MS_ID>  (667) 
MS0695

>  <SMILES>  (667) 
C[C@H](CCC(=O)CF)[C@H]1CC[C@H]2[C@@H]3[C@H](O)C[C@@H]4C[C@H](O)CC[C@]4(C)[C@H]3CC[C@]12C

>  <Structure_dimension>  (667) 
2D

$$$$
MS0696
     RDKit          2D

 29 32  0  0  0  0  0  0  0  0999 V2000
   -7.2216    3.6536    0.0000 C   0  0  0  0  0  0  0  0  0  0  0  0
   -6.9111    2.1861    0.0000 O   0  0  0  0  0  0  0  0  0  0  0  0
   -5.4850    1.7213    0.0000 C   0  0  0  0  0  0  0  0  0  0  0  0
   -4.3693    2.7239    0.0000 O   0  0  0  0  0  0  0  0  0  0  0  0
   -5.1744    0.2538    0.0000 C   0  0  0  0  0  0  0  0  0  0  0  0
   -3.7483   -0.2111    0.0000 C   0  0  0  0  0  0  0  0  0  0  0  0
   -3.4378   -1.6786    0.0000 C   0  0  0  0  0  0  0  0  0  0  0  0
   -4.5534   -2.6812    0.0000 C   0  0  0  0  0  0  0  0  0  0  0  0
   -2.0116   -2.1434    0.0000 C   0  0  0  0  0  0  0  0  0  0  0  0
   -1.5494   -3.5704    0.0000 C   0  0  0  0  0  0  0  0  0  0  0  0
   -0.0494   -3.5718    0.0000 C   0  0  0  0  0  0  0  0  0  0  0  0
    0.4155   -2.1456    0.0000 C   0  0  0  0  0  0  0  0  0  0  0  0
    1.7863   -1.5368    0.0000 C   0  0  0  0  0  0  0  0  0  0  0  0
    2.9990   -2.4196    0.0000 C   0  0  0  0  0  0  0  0  0  0  0  0
    4.3699   -1.8107    0.0000 C   0  0  0  0  0  0  0  0  0  0  0  0
    4.5281   -0.3191    0.0000 C   0  0  0  0  0  0  0  0  0  0  0  0
    5.8990    0.2898    0.0000 C   0  0  0  0  0  0  0  0  0  0  0  0
    6.0571    1.7814    0.0000 C   0  0  0  0  0  0  0  0  0  0  0  0
    7.4280    2.3902    0.0000 O   0  0  0  0  0  0  0  0  0  0  0  0
    4.8444    2.6642    0.0000 C   0  0  0  0  0  0  0  0  0  0  0  0
    3.4735    2.0553    0.0000 C   0  0  0  0  0  0  0  0  0  0  0  0
    3.3154    0.5637    0.0000 C   0  0  0  0  0  0  0  0  0  0  0  0
    2.1026    1.4465    0.0000 C   0  0  0  0  0  0  0  0  0  0  0  0
    1.9445   -0.0451    0.0000 C   0  0  0  0  0  0  0  0  0  0  0  0
    0.7318    0.8376    0.0000 C   0  0  0  0  0  0  0  0  0  0  0  0
   -0.6391    0.2288    0.0000 C   0  0  0  0  0  0  0  0  0  0  0  0
   -1.8518    1.1116    0.0000 O   0  0  0  0  0  0  0  0  0  0  0  0
   -0.7973   -1.2628    0.0000 C   0  0  0  0  0  0  0  0  0  0  0  0
   -2.0956   -0.5116    0.0000 C   0  0  0  0  0  0  0  0  0  0  0  0
  1  2  1  0
  2  3  1  0
  3  4  2  0
  3  5  1  0
  5  6  1  0
  6  7  1  0
  7  8  1  6
  7  9  1  0
  9 10  1  6
 10 11  1  0
 12 11  1  6
 12 13  1  0
 13 14  1  1
 14 15  1  0
 16 15  1  1
 16 17  1  0
 17 18  1  0
 18 19  1  1
 18 20  1  0
 20 21  1  0
 21 22  1  0
 22 23  1  6
 22 24  1  0
 24 25  1  6
 25 26  1  0
 26 27  1  6
 26 28  1  0
 28 29  1  6
 28  9  1  0
 28 12  1  0
 24 13  1  0
 22 16  1  0
M  END
>  <MS_ID>  (668) 
MS0696

>  <SMILES>  (668) 
COC(=O)CC[C@@H](C)[C@H]1CC[C@H]2[C@@H]3CC[C@@H]4C[C@H](O)CC[C@]4(C)[C@H]3C[C@@H](O)[C@]12C

>  <Structure_dimension>  (668) 
2D

$$$$
MS0697
     RDKit          2D

 29 32  0  0  0  0  0  0  0  0999 V2000
   -5.0303   -2.1373    0.0000 C   0  0  0  0  0  0  0  0  0  0  0  0
   -3.8594   -1.1998    0.0000 C   0  0  0  0  0  0  0  0  0  0  0  0
   -4.0858    0.2830    0.0000 C   0  0  0  0  0  0  0  0  0  0  0  0
   -5.4831    0.8284    0.0000 C   0  0  0  0  0  0  0  0  0  0  0  0
   -5.7095    2.3112    0.0000 C   0  0  0  0  0  0  0  0  0  0  0  0
   -4.5386    3.2487    0.0000 O   0  0  0  0  0  0  0  0  0  0  0  0
   -7.1069    2.8565    0.0000 O   0  0  0  0  0  0  0  0  0  0  0  0
   -2.4620   -1.7451    0.0000 C   0  0  0  0  0  0  0  0  0  0  0  0
   -2.0818   -3.1961    0.0000 C   0  0  0  0  0  0  0  0  0  0  0  0
   -0.5844   -3.2830    0.0000 C   0  0  0  0  0  0  0  0  0  0  0  0
   -0.0390   -1.8856    0.0000 C   0  0  0  0  0  0  0  0  0  0  0  0
    1.3643   -1.3559    0.0000 C   0  0  0  0  0  0  0  0  0  0  0  0
    2.5248   -2.3063    0.0000 C   0  0  0  0  0  0  0  0  0  0  0  0
    2.2819   -3.7865    0.0000 O   0  0  0  0  0  0  0  0  0  0  0  0
    3.9281   -1.7765    0.0000 C   0  0  0  0  0  0  0  0  0  0  0  0
    4.1710   -0.2963    0.0000 C   0  0  0  0  0  0  0  0  0  0  0  0
    5.5743    0.2334    0.0000 C   0  0  0  0  0  0  0  0  0  0  0  0
    5.8172    1.7136    0.0000 C   0  0  0  0  0  0  0  0  0  0  0  0
    7.2205    2.2434    0.0000 O   0  0  0  0  0  0  0  0  0  0  0  0
    4.6568    2.6641    0.0000 C   0  0  0  0  0  0  0  0  0  0  0  0
    3.2534    2.1343    0.0000 C   0  0  0  0  0  0  0  0  0  0  0  0
    3.0105    0.6541    0.0000 C   0  0  0  0  0  0  0  0  0  0  0  0
    1.8501    1.6046    0.0000 C   0  0  0  0  0  0  0  0  0  0  0  0
    1.6072    0.1244    0.0000 C   0  0  0  0  0  0  0  0  0  0  0  0
    0.4467    1.0748    0.0000 C   0  0  0  0  0  0  0  0  0  0  0  0
   -0.9566    0.5450    0.0000 C   0  0  0  0  0  0  0  0  0  0  0  0
   -2.1170    1.4955    0.0000 O   0  0  0  0  0  0  0  0  0  0  0  0
   -1.1995   -0.9352    0.0000 C   0  0  0  0  0  0  0  0  0  0  0  0
   -2.4529   -0.1112    0.0000 C   0  0  0  0  0  0  0  0  0  0  0  0
  2  1  1  1
  2  3  1  0
  3  4  1  0
  4  5  1  0
  5  6  2  0
  5  7  1  0
  2  8  1  0
  8  9  1  6
  9 10  1  0
 11 10  1  6
 11 12  1  0
 12 13  1  1
 13 14  1  1
 13 15  1  0
 16 15  1  6
 16 17  1  0
 17 18  1  0
 18 19  1  1
 18 20  1  0
 20 21  1  0
 21 22  1  0
 22 23  1  6
 22 24  1  0
 24 25  1  6
 25 26  1  0
 26 27  1  1
 26 28  1  0
 28 29  1  6
 28  8  1  0
 28 11  1  0
 24 12  1  0
 22 16  1  0
M  END
>  <MS_ID>  (669) 
MS0697

>  <SMILES>  (669) 
C[C@@H](CCC(=O)O)[C@H]1CC[C@H]2[C@@H]3[C@H](O)C[C@H]4C[C@H](O)CC[C@]4(C)[C@H]3C[C@H](O)[C@]12C

>  <Structure_dimension>  (669) 
2D

$$$$
MS0698
     RDKit          2D

 35 38  0  0  0  0  0  0  0  0999 V2000
   -2.5033   -3.7280    0.0000 C   0  0  0  0  0  0  0  0  0  0  0  0
   -1.6358   -2.5042    0.0000 C   0  0  0  0  0  0  0  0  0  0  0  0
   -2.2619   -1.1411    0.0000 C   0  0  0  0  0  0  0  0  0  0  0  0
   -3.7554   -1.0018    0.0000 C   0  0  0  0  0  0  0  0  0  0  0  0
   -4.3815    0.3613    0.0000 C   0  0  0  0  0  0  0  0  0  0  0  0
   -3.5140    1.5851    0.0000 O   0  0  0  0  0  0  0  0  0  0  0  0
   -5.8750    0.5007    0.0000 C   0  0  0  0  0  0  0  0  0  0  0  0
   -6.5011    1.8638    0.0000 C   0  0  0  0  0  0  0  0  0  0  0  0
   -7.9946    2.0031    0.0000 C   0  0  0  0  0  0  0  0  0  0  0  0
   -8.6207    3.3662    0.0000 C   0  0  0  0  0  0  0  0  0  0  0  0
   -8.8620    0.7794    0.0000 C   0  0  0  0  0  0  0  0  0  0  0  0
   -8.2360   -0.5837    0.0000 O   0  0  0  0  0  0  0  0  0  0  0  0
  -10.3555    0.9188    0.0000 O   0  0  0  0  0  0  0  0  0  0  0  0
   -0.1423   -2.6436    0.0000 C   0  0  0  0  0  0  0  0  0  0  0  0
    0.6228   -3.9338    0.0000 C   0  0  0  0  0  0  0  0  0  0  0  0
    2.0863   -3.6048    0.0000 C   0  0  0  0  0  0  0  0  0  0  0  0
    2.2256   -2.1113    0.0000 C   0  0  0  0  0  0  0  0  0  0  0  0
    3.4288   -1.2155    0.0000 C   0  0  0  0  0  0  0  0  0  0  0  0
    4.8061   -1.8095    0.0000 C   0  0  0  0  0  0  0  0  0  0  0  0
    4.9803   -3.2994    0.0000 O   0  0  0  0  0  0  0  0  0  0  0  0
    6.0093   -0.9138    0.0000 C   0  0  0  0  0  0  0  0  0  0  0  0
    5.8351    0.5761    0.0000 C   0  0  0  0  0  0  0  0  0  0  0  0
    7.0382    1.4719    0.0000 C   0  0  0  0  0  0  0  0  0  0  0  0
    6.8640    2.9617    0.0000 C   0  0  0  0  0  0  0  0  0  0  0  0
    8.0671    3.8575    0.0000 O   0  0  0  0  0  0  0  0  0  0  0  0
    5.4867    3.5558    0.0000 C   0  0  0  0  0  0  0  0  0  0  0  0
    4.2835    2.6600    0.0000 C   0  0  0  0  0  0  0  0  0  0  0  0
    4.4577    1.1702    0.0000 C   0  0  0  0  0  0  0  0  0  0  0  0
    3.0804    1.7642    0.0000 C   0  0  0  0  0  0  0  0  0  0  0  0
    3.2546    0.2744    0.0000 C   0  0  0  0  0  0  0  0  0  0  0  0
    1.8772    0.8684    0.0000 C   0  0  0  0  0  0  0  0  0  0  0  0
    0.6741   -0.0274    0.0000 C   0  0  0  0  0  0  0  0  0  0  0  0
   -0.7033    0.5667    0.0000 O   0  0  0  0  0  0  0  0  0  0  0  0
    0.8483   -1.5172    0.0000 C   0  0  0  0  0  0  0  0  0  0  0  0
   -0.5836   -1.0704    0.0000 C   0  0  0  0  0  0  0  0  0  0  0  0
  2  1  1  6
  2  3  1  0
  3  4  1  0
  4  5  1  0
  5  6  2  0
  5  7  1  0
  7  8  1  0
  8  9  1  0
  9 10  1  1
  9 11  1  0
 11 12  2  0
 11 13  1  0
  2 14  1  0
 14 15  1  6
 15 16  1  0
 17 16  1  6
 17 18  1  0
 18 19  1  1
 19 20  1  1
 19 21  1  0
 22 21  1  1
 22 23  1  0
 23 24  1  0
 24 25  1  1
 24 26  1  0
 26 27  1  0
 27 28  1  0
 28 29  1  6
 28 30  1  0
 30 31  1  6
 31 32  1  0
 32 33  1  1
 32 34  1  0
 34 35  1  6
 34 14  1  0
 34 17  1  0
 30 18  1  0
 28 22  1  0
M  END
>  <MS_ID>  (670) 
MS0698

>  <SMILES>  (670) 
C[C@H](CCC(=O)CC[C@H](C)C(=O)O)[C@H]1CC[C@H]2[C@@H]3[C@H](O)C[C@@H]4C[C@H](O)CC[C@]4(C)[C@H]3C[C@H](O)[C@]12C

>  <Structure_dimension>  (670) 
2D

$$$$
MS0699
     RDKit          2D

 31 34  0  0  0  0  0  0  0  0999 V2000
   -3.7132   -3.4566    0.0000 C   0  0  0  0  0  0  0  0  0  0  0  0
   -2.7767   -2.2848    0.0000 C   0  0  0  0  0  0  0  0  0  0  0  0
   -3.3232   -0.8879    0.0000 C   0  0  0  0  0  0  0  0  0  0  0  0
   -4.8062   -0.6628    0.0000 C   0  0  0  0  0  0  0  0  0  0  0  0
   -5.3527    0.7341    0.0000 C   0  0  0  0  0  0  0  0  0  0  0  0
   -4.4162    1.9059    0.0000 O   0  0  0  0  0  0  0  0  0  0  0  0
   -6.8357    0.9593    0.0000 C   0  0  0  0  0  0  0  0  0  0  0  0
   -7.3822    2.3562    0.0000 C   0  0  0  0  0  0  0  0  0  0  0  0
   -6.4457    3.5279    0.0000 O   0  0  0  0  0  0  0  0  0  0  0  0
   -8.8652    2.5814    0.0000 O   0  0  0  0  0  0  0  0  0  0  0  0
   -1.2937   -2.5100    0.0000 C   0  0  0  0  0  0  0  0  0  0  0  0
   -0.6042   -3.8421    0.0000 C   0  0  0  0  0  0  0  0  0  0  0  0
    0.8758   -3.5980    0.0000 C   0  0  0  0  0  0  0  0  0  0  0  0
    1.1010   -2.1150    0.0000 C   0  0  0  0  0  0  0  0  0  0  0  0
    2.3537   -1.2900    0.0000 C   0  0  0  0  0  0  0  0  0  0  0  0
    3.6946   -1.9624    0.0000 C   0  0  0  0  0  0  0  0  0  0  0  0
    3.7827   -3.4598    0.0000 O   0  0  0  0  0  0  0  0  0  0  0  0
    4.9473   -1.1374    0.0000 C   0  0  0  0  0  0  0  0  0  0  0  0
    4.8592    0.3600    0.0000 C   0  0  0  0  0  0  0  0  0  0  0  0
    6.1120    1.1850    0.0000 C   0  0  0  0  0  0  0  0  0  0  0  0
    6.0239    2.6824    0.0000 C   0  0  0  0  0  0  0  0  0  0  0  0
    7.2767    3.5074    0.0000 O   0  0  0  0  0  0  0  0  0  0  0  0
    4.6831    3.3548    0.0000 C   0  0  0  0  0  0  0  0  0  0  0  0
    3.4303    2.5298    0.0000 C   0  0  0  0  0  0  0  0  0  0  0  0
    3.5184    1.0324    0.0000 C   0  0  0  0  0  0  0  0  0  0  0  0
    2.1776    1.7048    0.0000 C   0  0  0  0  0  0  0  0  0  0  0  0
    2.2656    0.2074    0.0000 C   0  0  0  0  0  0  0  0  0  0  0  0
    0.9248    0.8798    0.0000 C   0  0  0  0  0  0  0  0  0  0  0  0
   -0.3279    0.0548    0.0000 C   0  0  0  0  0  0  0  0  0  0  0  0
   -0.2399   -1.4426    0.0000 C   0  0  0  0  0  0  0  0  0  0  0  0
   -1.6436   -0.9140    0.0000 C   0  0  0  0  0  0  0  0  0  0  0  0
  2  1  1  6
  2  3  1  0
  3  4  1  0
  4  5  1  0
  5  6  2  0
  5  7  1  0
  7  8  1  0
  8  9  2  0
  8 10  1  0
  2 11  1  0
 11 12  1  6
 12 13  1  0
 14 13  1  6
 14 15  1  0
 15 16  1  1
 16 17  1  1
 16 18  1  0
 19 18  1  1
 19 20  1  0
 20 21  1  0
 21 22  1  6
 21 23  1  0
 23 24  1  0
 24 25  1  0
 25 26  1  6
 25 27  1  0
 27 28  1  6
 28 29  1  0
 29 30  1  0
 30 31  1  6
 30 11  1  0
 30 14  1  0
 27 15  1  0
 25 19  1  0
M  END
>  <MS_ID>  (671) 
MS0699

>  <SMILES>  (671) 
C[C@H](CCC(=O)CC(=O)O)[C@H]1CC[C@H]2[C@@H]3[C@H](O)C[C@@H]4C[C@@H](O)CC[C@]4(C)[C@H]3CC[C@]12C

>  <Structure_dimension>  (671) 
2D

$$$$
MS0700
     RDKit          2D

 31 34  0  0  0  0  0  0  0  0999 V2000
   -3.5119   -3.5779    0.0000 C   0  0  0  0  0  0  0  0  0  0  0  0
   -2.6109   -2.3787    0.0000 C   0  0  0  0  0  0  0  0  0  0  0  0
   -3.1991   -0.9988    0.0000 C   0  0  0  0  0  0  0  0  0  0  0  0
   -4.6881   -0.8181    0.0000 C   0  0  0  0  0  0  0  0  0  0  0  0
   -5.2762    0.5618    0.0000 C   0  0  0  0  0  0  0  0  0  0  0  0
   -4.3753    1.7610    0.0000 O   0  0  0  0  0  0  0  0  0  0  0  0
   -6.7653    0.7424    0.0000 N   0  0  0  0  0  0  0  0  0  0  0  0
   -7.3534    2.1223    0.0000 C   0  0  0  0  0  0  0  0  0  0  0  0
   -8.8425    2.3029    0.0000 C   0  0  0  0  0  0  0  0  0  0  0  0
   -9.4306    3.6828    0.0000 N   0  0  0  0  0  0  0  0  0  0  0  0
   -1.1219   -2.5593    0.0000 C   0  0  0  0  0  0  0  0  0  0  0  0
   -0.3927   -3.8702    0.0000 C   0  0  0  0  0  0  0  0  0  0  0  0
    1.0793   -3.5818    0.0000 C   0  0  0  0  0  0  0  0  0  0  0  0
    1.2599   -2.0927    0.0000 C   0  0  0  0  0  0  0  0  0  0  0  0
    2.4874   -1.2306    0.0000 C   0  0  0  0  0  0  0  0  0  0  0  0
    3.8478   -1.8625    0.0000 C   0  0  0  0  0  0  0  0  0  0  0  0
    3.9807   -3.3566    0.0000 O   0  0  0  0  0  0  0  0  0  0  0  0
    5.0753   -1.0003    0.0000 C   0  0  0  0  0  0  0  0  0  0  0  0
    4.9423    0.4938    0.0000 C   0  0  0  0  0  0  0  0  0  0  0  0
    6.1698    1.3559    0.0000 C   0  0  0  0  0  0  0  0  0  0  0  0
    6.0369    2.8500    0.0000 C   0  0  0  0  0  0  0  0  0  0  0  0
    7.2644    3.7122    0.0000 O   0  0  0  0  0  0  0  0  0  0  0  0
    4.6765    3.4820    0.0000 C   0  0  0  0  0  0  0  0  0  0  0  0
    3.4490    2.6198    0.0000 C   0  0  0  0  0  0  0  0  0  0  0  0
    3.5820    1.1257    0.0000 C   0  0  0  0  0  0  0  0  0  0  0  0
    2.2216    1.7576    0.0000 C   0  0  0  0  0  0  0  0  0  0  0  0
    2.3545    0.2635    0.0000 C   0  0  0  0  0  0  0  0  0  0  0  0
    0.9941    0.8955    0.0000 C   0  0  0  0  0  0  0  0  0  0  0  0
   -0.2334    0.0333    0.0000 C   0  0  0  0  0  0  0  0  0  0  0  0
   -0.1005   -1.4608    0.0000 C   0  0  0  0  0  0  0  0  0  0  0  0
   -1.5195   -0.9745    0.0000 C   0  0  0  0  0  0  0  0  0  0  0  0
  2  1  1  6
  2  3  1  0
  3  4  1  0
  4  5  1  0
  5  6  2  0
  5  7  1  0
  7  8  1  0
  8  9  1  0
  9 10  1  0
  2 11  1  0
 11 12  1  6
 12 13  1  0
 14 13  1  6
 14 15  1  0
 15 16  1  1
 16 17  1  6
 16 18  1  0
 19 18  1  1
 19 20  1  0
 20 21  1  0
 21 22  1  1
 21 23  1  0
 23 24  1  0
 24 25  1  0
 25 26  1  6
 25 27  1  0
 27 28  1  6
 28 29  1  0
 29 30  1  0
 30 31  1  6
 30 11  1  0
 30 14  1  0
 27 15  1  0
 25 19  1  0
M  END
>  <MS_ID>  (672) 
MS0700

>  <SMILES>  (672) 
C[C@H](CCC(=O)NCCN)[C@H]1CC[C@H]2[C@@H]3[C@@H](O)C[C@@H]4C[C@H](O)CC[C@]4(C)[C@H]3CC[C@]12C

>  <Structure_dimension>  (672) 
2D

$$$$
MS0702
     RDKit          2D

 31 34  0  0  0  0  0  0  0  0999 V2000
   -3.1263   -3.9230    0.0000 C   0  0  0  0  0  0  0  0  0  0  0  0
   -2.3293   -2.6522    0.0000 C   0  0  0  0  0  0  0  0  0  0  0  0
   -3.0312   -1.3266    0.0000 C   0  0  0  0  0  0  0  0  0  0  0  0
   -4.5302   -1.2717    0.0000 C   0  0  0  0  0  0  0  0  0  0  0  0
   -5.2322    0.0539    0.0000 C   0  0  0  0  0  0  0  0  0  0  0  0
   -6.7312    0.1087    0.0000 O   0  0  0  0  0  0  0  0  0  0  0  0
   -4.4352    1.3246    0.0000 O   0  0  0  0  0  0  0  0  0  0  0  0
   -5.1371    2.6502    0.0000 S   0  0  0  0  0  0  0  0  0  0  0  0
   -6.4627    1.9482    0.0000 O   0  0  0  0  0  0  0  0  0  0  0  0
   -3.8115    3.3522    0.0000 O   0  0  0  0  0  0  0  0  0  0  0  0
   -5.8391    3.9758    0.0000 O   0  0  0  0  0  0  0  0  0  0  0  0
   -0.8303   -2.7071    0.0000 C   0  0  0  0  0  0  0  0  0  0  0  0
    0.0064   -3.9521    0.0000 C   0  0  0  0  0  0  0  0  0  0  0  0
    1.4490   -3.5411    0.0000 C   0  0  0  0  0  0  0  0  0  0  0  0
    1.5039   -2.0421    0.0000 C   0  0  0  0  0  0  0  0  0  0  0  0
    2.6546   -1.0798    0.0000 C   0  0  0  0  0  0  0  0  0  0  0  0
    4.0633   -1.5952    0.0000 C   0  0  0  0  0  0  0  0  0  0  0  0
    4.3212   -3.0729    0.0000 O   0  0  0  0  0  0  0  0  0  0  0  0
    5.2139   -0.6330    0.0000 C   0  0  0  0  0  0  0  0  0  0  0  0
    4.9560    0.8446    0.0000 C   0  0  0  0  0  0  0  0  0  0  0  0
    6.1067    1.8069    0.0000 C   0  0  0  0  0  0  0  0  0  0  0  0
    5.8487    3.2845    0.0000 C   0  0  0  0  0  0  0  0  0  0  0  0
    4.4400    3.7999    0.0000 C   0  0  0  0  0  0  0  0  0  0  0  0
    3.2893    2.8377    0.0000 C   0  0  0  0  0  0  0  0  0  0  0  0
    3.5473    1.3601    0.0000 C   0  0  0  0  0  0  0  0  0  0  0  0
    2.1386    1.8755    0.0000 C   0  0  0  0  0  0  0  0  0  0  0  0
    2.3966    0.3978    0.0000 C   0  0  0  0  0  0  0  0  0  0  0  0
    0.9879    0.9132    0.0000 C   0  0  0  0  0  0  0  0  0  0  0  0
   -0.1628   -0.0490    0.0000 C   0  0  0  0  0  0  0  0  0  0  0  0
    0.0952   -1.5267    0.0000 C   0  0  0  0  0  0  0  0  0  0  0  0
   -1.3596   -1.1613    0.0000 C   0  0  0  0  0  0  0  0  0  0  0  0
  2  1  1  6
  2  3  1  0
  3  4  1  0
  4  5  1  0
  5  6  2  0
  5  7  1  0
  7  8  1  0
  8  9  2  0
  8 10  2  0
  8 11  1  0
  2 12  1  0
 12 13  1  6
 13 14  1  0
 15 14  1  6
 15 16  1  0
 16 17  1  1
 17 18  1  1
 17 19  1  0
 20 19  1  1
 20 21  1  0
 21 22  1  0
 22 23  1  0
 23 24  1  0
 24 25  1  0
 25 26  1  6
 25 27  1  0
 27 28  1  6
 28 29  1  0
 29 30  1  0
 30 31  1  6
 30 12  1  0
 30 15  1  0
 27 16  1  0
 25 20  1  0
M  END
>  <MS_ID>  (673) 
MS0702

>  <SMILES>  (673) 
C[C@H](CCC(=O)OS(=O)(=O)O)[C@H]1CC[C@H]2[C@@H]3[C@H](O)C[C@@H]4CCCC[C@]4(C)[C@H]3CC[C@]12C

>  <Structure_dimension>  (673) 
2D

$$$$
MS0703
     RDKit          2D

 35 39  0  0  0  0  0  0  0  0999 V2000
   -2.5058   -3.5180    0.0000 C   0  0  0  0  0  0  0  0  0  0  0  0
   -1.5913   -2.3291    0.0000 C   0  0  0  0  0  0  0  0  0  0  0  0
   -2.1636   -0.9426    0.0000 C   0  0  0  0  0  0  0  0  0  0  0  0
   -3.6505   -0.7450    0.0000 C   0  0  0  0  0  0  0  0  0  0  0  0
   -4.2229    0.6415    0.0000 C   0  0  0  0  0  0  0  0  0  0  0  0
   -3.3083    1.8304    0.0000 O   0  0  0  0  0  0  0  0  0  0  0  0
   -5.7098    0.8391    0.0000 C   0  0  0  0  0  0  0  0  0  0  0  0
   -6.2822    2.2256    0.0000 C   0  0  0  0  0  0  0  0  0  0  0  0
   -7.7691    2.4232    0.0000 C   0  0  0  0  0  0  0  0  0  0  0  0
   -8.3414    3.8097    0.0000 O   0  0  0  0  0  0  0  0  0  0  0  0
   -8.6837    1.2343    0.0000 C   0  0  0  0  0  0  0  0  0  0  0  0
   -8.1113   -0.1522    0.0000 C   0  0  0  0  0  0  0  0  0  0  0  0
   -9.0259   -1.3412    0.0000 O   0  0  0  0  0  0  0  0  0  0  0  0
   -6.6244   -0.3498    0.0000 C   0  0  0  0  0  0  0  0  0  0  0  0
   -0.1043   -2.5267    0.0000 C   0  0  0  0  0  0  0  0  0  0  0  0
    0.6098   -3.8458    0.0000 C   0  0  0  0  0  0  0  0  0  0  0  0
    2.0850   -3.5742    0.0000 C   0  0  0  0  0  0  0  0  0  0  0  0
    2.2826   -2.0873    0.0000 C   0  0  0  0  0  0  0  0  0  0  0  0
    3.5198   -1.2392    0.0000 C   0  0  0  0  0  0  0  0  0  0  0  0
    4.8729   -1.8866    0.0000 C   0  0  0  0  0  0  0  0  0  0  0  0
    4.9888   -3.3821    0.0000 O   0  0  0  0  0  0  0  0  0  0  0  0
    6.1101   -1.0385    0.0000 C   0  0  0  0  0  0  0  0  0  0  0  0
    5.9943    0.4571    0.0000 C   0  0  0  0  0  0  0  0  0  0  0  0
    7.2315    1.3052    0.0000 C   0  0  0  0  0  0  0  0  0  0  0  0
    7.1156    2.8007    0.0000 C   0  0  0  0  0  0  0  0  0  0  0  0
    8.3528    3.6488    0.0000 O   0  0  0  0  0  0  0  0  0  0  0  0
    5.7625    3.4481    0.0000 C   0  0  0  0  0  0  0  0  0  0  0  0
    4.5253    2.6000    0.0000 C   0  0  0  0  0  0  0  0  0  0  0  0
    4.6412    1.1045    0.0000 C   0  0  0  0  0  0  0  0  0  0  0  0
    3.2881    1.7519    0.0000 C   0  0  0  0  0  0  0  0  0  0  0  0
    3.4040    0.2563    0.0000 C   0  0  0  0  0  0  0  0  0  0  0  0
    2.0509    0.9037    0.0000 C   0  0  0  0  0  0  0  0  0  0  0  0
    0.8136    0.0556    0.0000 C   0  0  0  0  0  0  0  0  0  0  0  0
    0.9295   -1.4399    0.0000 C   0  0  0  0  0  0  0  0  0  0  0  0
   -0.4838   -0.9375    0.0000 C   0  0  0  0  0  0  0  0  0  0  0  0
  2  1  1  6
  2  3  1  0
  3  4  1  0
  4  5  1  0
  5  6  2  0
  5  7  1  0
  7  8  2  0
  8  9  1  0
  9 10  1  0
  9 11  2  0
 11 12  1  0
 12 13  1  0
 12 14  2  0
  2 15  1  0
 15 16  1  6
 16 17  1  0
 18 17  1  6
 18 19  1  0
 19 20  1  1
 20 21  1  1
 20 22  1  0
 23 22  1  1
 23 24  1  0
 24 25  1  0
 25 26  1  1
 25 27  1  0
 27 28  1  0
 28 29  1  0
 29 30  1  6
 29 31  1  0
 31 32  1  6
 32 33  1  0
 33 34  1  0
 34 35  1  6
 14  7  1  0
 34 15  1  0
 34 18  1  0
 31 19  1  0
 29 23  1  0
M  END
>  <MS_ID>  (674) 
MS0703

>  <SMILES>  (674) 
C[C@H](CCC(=O)c1cc(O)cc(O)c1)[C@H]1CC[C@H]2[C@@H]3[C@H](O)C[C@@H]4C[C@H](O)CC[C@]4(C)[C@H]3CC[C@]12C

>  <Structure_dimension>  (674) 
2D

$$$$
MS0704
     RDKit          2D

 29 32  0  0  0  0  0  0  0  0999 V2000
   -4.5534   -2.6812    0.0000 C   0  0  0  0  0  0  0  0  0  0  0  0
   -3.4378   -1.6786    0.0000 C   0  0  0  0  0  0  0  0  0  0  0  0
   -3.7483   -0.2111    0.0000 C   0  0  0  0  0  0  0  0  0  0  0  0
   -5.1744    0.2538    0.0000 C   0  0  0  0  0  0  0  0  0  0  0  0
   -5.4850    1.7213    0.0000 C   0  0  0  0  0  0  0  0  0  0  0  0
   -4.3693    2.7239    0.0000 O   0  0  0  0  0  0  0  0  0  0  0  0
   -6.9111    2.1861    0.0000 N   0  0  0  0  0  0  0  0  0  0  0  0
   -7.2216    3.6536    0.0000 N   0  0  0  0  0  0  0  0  0  0  0  0
   -2.0116   -2.1434    0.0000 C   0  0  0  0  0  0  0  0  0  0  0  0
   -1.5494   -3.5704    0.0000 C   0  0  0  0  0  0  0  0  0  0  0  0
   -0.0494   -3.5718    0.0000 C   0  0  0  0  0  0  0  0  0  0  0  0
    0.4155   -2.1456    0.0000 C   0  0  0  0  0  0  0  0  0  0  0  0
    1.7863   -1.5368    0.0000 C   0  0  0  0  0  0  0  0  0  0  0  0
    2.9990   -2.4196    0.0000 C   0  0  0  0  0  0  0  0  0  0  0  0
    4.3699   -1.8107    0.0000 C   0  0  0  0  0  0  0  0  0  0  0  0
    4.5281   -0.3191    0.0000 C   0  0  0  0  0  0  0  0  0  0  0  0
    5.8990    0.2898    0.0000 C   0  0  0  0  0  0  0  0  0  0  0  0
    6.0571    1.7814    0.0000 C   0  0  0  0  0  0  0  0  0  0  0  0
    7.4280    2.3902    0.0000 O   0  0  0  0  0  0  0  0  0  0  0  0
    4.8444    2.6642    0.0000 C   0  0  0  0  0  0  0  0  0  0  0  0
    3.4735    2.0553    0.0000 C   0  0  0  0  0  0  0  0  0  0  0  0
    3.3154    0.5637    0.0000 C   0  0  0  0  0  0  0  0  0  0  0  0
    2.1026    1.4465    0.0000 C   0  0  0  0  0  0  0  0  0  0  0  0
    1.9445   -0.0451    0.0000 C   0  0  0  0  0  0  0  0  0  0  0  0
    0.7318    0.8376    0.0000 C   0  0  0  0  0  0  0  0  0  0  0  0
   -0.6391    0.2288    0.0000 C   0  0  0  0  0  0  0  0  0  0  0  0
   -1.8518    1.1116    0.0000 O   0  0  0  0  0  0  0  0  0  0  0  0
   -0.7973   -1.2628    0.0000 C   0  0  0  0  0  0  0  0  0  0  0  0
   -2.0956   -0.5116    0.0000 C   0  0  0  0  0  0  0  0  0  0  0  0
  2  1  1  6
  2  3  1  0
  3  4  1  0
  4  5  1  0
  5  6  2  0
  5  7  1  0
  7  8  1  0
  2  9  1  0
  9 10  1  6
 10 11  1  0
 12 11  1  6
 12 13  1  0
 13 14  1  1
 14 15  1  0
 16 15  1  1
 16 17  1  0
 17 18  1  0
 18 19  1  1
 18 20  1  0
 20 21  1  0
 21 22  1  0
 22 23  1  6
 22 24  1  0
 24 25  1  6
 25 26  1  0
 26 27  1  1
 26 28  1  0
 28 29  1  6
 28  9  1  0
 28 12  1  0
 24 13  1  0
 22 16  1  0
M  END
>  <MS_ID>  (675) 
MS0704

>  <SMILES>  (675) 
C[C@H](CCC(=O)NN)[C@H]1CC[C@H]2[C@@H]3CC[C@@H]4C[C@H](O)CC[C@]4(C)[C@H]3C[C@H](O)[C@]12C

>  <Structure_dimension>  (675) 
2D

$$$$
MS0705
     RDKit          2D

 33 36  0  0  0  0  0  0  0  0999 V2000
   -3.4872   -3.6667    0.0000 C   0  0  0  0  0  0  0  0  0  0  0  0
   -2.6153   -2.4461    0.0000 C   0  0  0  0  0  0  0  0  0  0  0  0
   -3.2364   -1.0808    0.0000 C   0  0  0  0  0  0  0  0  0  0  0  0
   -4.7294   -0.9360    0.0000 C   0  0  0  0  0  0  0  0  0  0  0  0
   -5.3505    0.4294    0.0000 C   0  0  0  0  0  0  0  0  0  0  0  0
   -4.4787    1.6500    0.0000 O   0  0  0  0  0  0  0  0  0  0  0  0
   -6.8435    0.5742    0.0000 N   0  0  0  0  0  0  0  0  0  0  0  0
   -7.4647    1.9396    0.0000 S   0  0  0  0  0  0  0  0  0  0  0  0
   -8.8300    1.3184    0.0000 O   0  0  0  0  0  0  0  0  0  0  0  0
   -6.0993    2.5607    0.0000 O   0  0  0  0  0  0  0  0  0  0  0  0
   -8.0858    3.3049    0.0000 O   0  0  0  0  0  0  0  0  0  0  0  0
   -1.1223   -2.5909    0.0000 C   0  0  0  0  0  0  0  0  0  0  0  0
   -0.3619   -3.8839    0.0000 C   0  0  0  0  0  0  0  0  0  0  0  0
    1.1027   -3.5602    0.0000 C   0  0  0  0  0  0  0  0  0  0  0  0
    1.2475   -2.0672    0.0000 C   0  0  0  0  0  0  0  0  0  0  0  0
    2.4539   -1.1758    0.0000 C   0  0  0  0  0  0  0  0  0  0  0  0
    3.8291   -1.7749    0.0000 C   0  0  0  0  0  0  0  0  0  0  0  0
    3.9979   -3.2654    0.0000 O   0  0  0  0  0  0  0  0  0  0  0  0
    5.0355   -0.8835    0.0000 C   0  0  0  0  0  0  0  0  0  0  0  0
    6.4107   -1.4825    0.0000 O   0  0  0  0  0  0  0  0  0  0  0  0
    4.8667    0.6070    0.0000 C   0  0  0  0  0  0  0  0  0  0  0  0
    6.0731    1.4984    0.0000 C   0  0  0  0  0  0  0  0  0  0  0  0
    5.9043    2.9889    0.0000 C   0  0  0  0  0  0  0  0  0  0  0  0
    7.1107    3.8803    0.0000 O   0  0  0  0  0  0  0  0  0  0  0  0
    4.5291    3.5880    0.0000 C   0  0  0  0  0  0  0  0  0  0  0  0
    3.3228    2.6965    0.0000 C   0  0  0  0  0  0  0  0  0  0  0  0
    3.4915    1.2061    0.0000 C   0  0  0  0  0  0  0  0  0  0  0  0
    2.1164    1.8051    0.0000 C   0  0  0  0  0  0  0  0  0  0  0  0
    2.2851    0.3147    0.0000 C   0  0  0  0  0  0  0  0  0  0  0  0
    0.9100    0.9137    0.0000 C   0  0  0  0  0  0  0  0  0  0  0  0
   -0.2964    0.0223    0.0000 C   0  0  0  0  0  0  0  0  0  0  0  0
   -0.1276   -1.4682    0.0000 C   0  0  0  0  0  0  0  0  0  0  0  0
   -1.5579   -1.0161    0.0000 C   0  0  0  0  0  0  0  0  0  0  0  0
  2  1  1  6
  2  3  1  0
  3  4  1  0
  4  5  1  0
  5  6  2  0
  5  7  1  0
  7  8  1  0
  8  9  2  0
  8 10  2  0
  8 11  1  0
  2 12  1  0
 12 13  1  6
 13 14  1  0
 15 14  1  6
 15 16  1  0
 16 17  1  1
 17 18  1  1
 17 19  1  0
 19 20  1  1
 19 21  1  0
 21 22  1  1
 22 23  1  0
 23 24  1  1
 23 25  1  0
 25 26  1  0
 26 27  1  0
 27 28  1  6
 27 29  1  0
 29 30  1  6
 30 31  1  0
 31 32  1  0
 32 33  1  6
 32 12  1  0
 32 15  1  0
 29 16  1  0
 27 21  1  0
M  END
>  <MS_ID>  (676) 
MS0705

>  <SMILES>  (676) 
C[C@H](CCC(=O)NS(=O)(=O)O)[C@H]1CC[C@H]2[C@@H]3[C@H](O)[C@H](O)[C@@H]4C[C@H](O)CC[C@]4(C)[C@H]3CC[C@]12C

>  <Structure_dimension>  (676) 
2D

$$$$
MS0706
     RDKit          2D

 39 43  0  0  0  0  0  0  0  0999 V2000
   -0.9174   -4.7068    0.0000 C   0  0  0  0  0  0  0  0  0  0  0  0
   -0.3195   -3.3311    0.0000 C   0  0  0  0  0  0  0  0  0  0  0  0
   -1.2120   -2.1255    0.0000 C   0  0  0  0  0  0  0  0  0  0  0  0
   -2.7023   -2.2956    0.0000 C   0  0  0  0  0  0  0  0  0  0  0  0
   -3.5948   -1.0900    0.0000 C   0  0  0  0  0  0  0  0  0  0  0  0
   -2.9970    0.2857    0.0000 O   0  0  0  0  0  0  0  0  0  0  0  0
   -5.0851   -1.2601    0.0000 O   0  0  0  0  0  0  0  0  0  0  0  0
   -5.9776   -0.0545    0.0000 C   0  0  0  0  0  0  0  0  0  0  0  0
   -5.3798    1.3212    0.0000 C   0  0  0  0  0  0  0  0  0  0  0  0
   -6.2722    2.5268    0.0000 C   0  0  0  0  0  0  0  0  0  0  0  0
   -5.6744    3.9025    0.0000 O   0  0  0  0  0  0  0  0  0  0  0  0
   -7.7625    2.3567    0.0000 C   0  0  0  0  0  0  0  0  0  0  0  0
   -8.6550    3.5624    0.0000 O   0  0  0  0  0  0  0  0  0  0  0  0
   -8.3604    0.9810    0.0000 C   0  0  0  0  0  0  0  0  0  0  0  0
   -9.8507    0.8109    0.0000 O   0  0  0  0  0  0  0  0  0  0  0  0
   -7.4679   -0.2246    0.0000 C   0  0  0  0  0  0  0  0  0  0  0  0
   -8.0658   -1.6003    0.0000 O   0  0  0  0  0  0  0  0  0  0  0  0
    1.1708   -3.1610    0.0000 C   0  0  0  0  0  0  0  0  0  0  0  0
    2.1844   -4.2667    0.0000 C   0  0  0  0  0  0  0  0  0  0  0  0
    3.5492   -3.6444    0.0000 C   0  0  0  0  0  0  0  0  0  0  0  0
    3.3791   -2.1541    0.0000 C   0  0  0  0  0  0  0  0  0  0  0  0
    4.3728   -1.0305    0.0000 C   0  0  0  0  0  0  0  0  0  0  0  0
    5.8428   -1.3292    0.0000 C   0  0  0  0  0  0  0  0  0  0  0  0
    6.3190   -2.7516    0.0000 O   0  0  0  0  0  0  0  0  0  0  0  0
    6.8365   -0.2056    0.0000 C   0  0  0  0  0  0  0  0  0  0  0  0
    6.3602    1.2168    0.0000 C   0  0  0  0  0  0  0  0  0  0  0  0
    7.3539    2.3404    0.0000 C   0  0  0  0  0  0  0  0  0  0  0  0
    6.8777    3.7628    0.0000 C   0  0  0  0  0  0  0  0  0  0  0  0
    7.8714    4.8864    0.0000 O   0  0  0  0  0  0  0  0  0  0  0  0
    5.4078    4.0616    0.0000 C   0  0  0  0  0  0  0  0  0  0  0  0
    4.4140    2.9379    0.0000 C   0  0  0  0  0  0  0  0  0  0  0  0
    4.8903    1.5156    0.0000 C   0  0  0  0  0  0  0  0  0  0  0  0
    3.4203    1.8143    0.0000 C   0  0  0  0  0  0  0  0  0  0  0  0
    3.8966    0.3919    0.0000 C   0  0  0  0  0  0  0  0  0  0  0  0
    2.4266    0.6907    0.0000 C   0  0  0  0  0  0  0  0  0  0  0  0
    1.4329   -0.4329    0.0000 C   0  0  0  0  0  0  0  0  0  0  0  0
   -0.0370   -0.1342    0.0000 O   0  0  0  0  0  0  0  0  0  0  0  0
    1.9092   -1.8553    0.0000 C   0  0  0  0  0  0  0  0  0  0  0  0
    0.4160   -1.7119    0.0000 C   0  0  0  0  0  0  0  0  0  0  0  0
  2  1  1  6
  2  3  1  0
  3  4  1  0
  4  5  1  0
  5  6  2  0
  5  7  1  0
  8  7  1  6
  8  9  1  0
  9 10  1  0
 10 11  1  1
 10 12  1  0
 12 13  1  6
 12 14  1  0
 14 15  1  1
 14 16  1  0
 16 17  1  1
  2 18  1  0
 18 19  1  6
 19 20  1  0
 21 20  1  6
 21 22  1  0
 22 23  1  1
 23 24  1  1
 23 25  1  0
 26 25  1  1
 26 27  1  0
 27 28  1  0
 28 29  1  1
 28 30  1  0
 30 31  1  0
 31 32  1  0
 32 33  1  6
 32 34  1  0
 34 35  1  6
 35 36  1  0
 36 37  1  1
 36 38  1  0
 38 39  1  6
 16  8  1  0
 38 18  1  0
 38 21  1  0
 34 22  1  0
 32 26  1  0
M  END
>  <MS_ID>  (677) 
MS0706

>  <SMILES>  (677) 
C[C@H](CCC(=O)O[C@H]1C[C@H](O)[C@@H](O)[C@H](O)[C@@H]1O)[C@H]1CC[C@H]2[C@@H]3[C@H](O)C[C@@H]4C[C@H](O)CC[C@]4(C)[C@H]3C[C@H](O)[C@]12C

>  <Structure_dimension>  (677) 
2D

$$$$
MS0707
     RDKit          2D

 38 43  0  0  0  0  0  0  0  0999 V2000
   -1.4341   -4.3943    0.0000 C   0  0  0  0  0  0  0  0  0  0  0  0
   -0.7576   -3.0556    0.0000 C   0  0  0  0  0  0  0  0  0  0  0  0
   -1.5787   -1.8003    0.0000 C   0  0  0  0  0  0  0  0  0  0  0  0
   -3.0764   -1.8838    0.0000 C   0  0  0  0  0  0  0  0  0  0  0  0
   -3.8975   -0.6285    0.0000 C   0  0  0  0  0  0  0  0  0  0  0  0
   -3.2210    0.7102    0.0000 O   0  0  0  0  0  0  0  0  0  0  0  0
   -5.3952   -0.7121    0.0000 C   0  0  0  0  0  0  0  0  0  0  0  0
   -6.2164    0.5432    0.0000 C   0  0  0  0  0  0  0  0  0  0  0  0
   -5.6835    1.9454    0.0000 C   0  0  0  0  0  0  0  0  0  0  0  0
   -6.8524    2.8855    0.0000 N   0  0  0  0  0  0  0  0  0  0  0  0
   -8.1076    2.0643    0.0000 C   0  0  0  0  0  0  0  0  0  0  0  0
   -9.5578    2.4477    0.0000 C   0  0  0  0  0  0  0  0  0  0  0  0
  -10.6149    1.3835    0.0000 C   0  0  0  0  0  0  0  0  0  0  0  0
  -10.2219   -0.0641    0.0000 C   0  0  0  0  0  0  0  0  0  0  0  0
   -8.7717   -0.4475    0.0000 C   0  0  0  0  0  0  0  0  0  0  0  0
   -7.7146    0.6167    0.0000 C   0  0  0  0  0  0  0  0  0  0  0  0
    0.7401   -2.9721    0.0000 C   0  0  0  0  0  0  0  0  0  0  0  0
    1.6880   -4.1346    0.0000 C   0  0  0  0  0  0  0  0  0  0  0  0
    3.0866   -3.5924    0.0000 C   0  0  0  0  0  0  0  0  0  0  0  0
    3.0030   -2.0947    0.0000 C   0  0  0  0  0  0  0  0  0  0  0  0
    4.0602   -1.0305    0.0000 C   0  0  0  0  0  0  0  0  0  0  0  0
    5.5103   -1.4139    0.0000 C   0  0  0  0  0  0  0  0  0  0  0  0
    5.9034   -2.8615    0.0000 O   0  0  0  0  0  0  0  0  0  0  0  0
    6.5674   -0.3497    0.0000 C   0  0  0  0  0  0  0  0  0  0  0  0
    8.0176   -0.7331    0.0000 O   0  0  0  0  0  0  0  0  0  0  0  0
    6.1744    1.0979    0.0000 C   0  0  0  0  0  0  0  0  0  0  0  0
    7.2315    2.1621    0.0000 C   0  0  0  0  0  0  0  0  0  0  0  0
    6.8384    3.6097    0.0000 C   0  0  0  0  0  0  0  0  0  0  0  0
    7.8955    4.6739    0.0000 O   0  0  0  0  0  0  0  0  0  0  0  0
    5.3882    3.9931    0.0000 C   0  0  0  0  0  0  0  0  0  0  0  0
    4.3311    2.9289    0.0000 C   0  0  0  0  0  0  0  0  0  0  0  0
    4.7242    1.4813    0.0000 C   0  0  0  0  0  0  0  0  0  0  0  0
    3.2740    1.8647    0.0000 C   0  0  0  0  0  0  0  0  0  0  0  0
    3.6671    0.4171    0.0000 C   0  0  0  0  0  0  0  0  0  0  0  0
    2.2169    0.8005    0.0000 C   0  0  0  0  0  0  0  0  0  0  0  0
    1.1598   -0.2637    0.0000 C   0  0  0  0  0  0  0  0  0  0  0  0
    1.5529   -1.7113    0.0000 C   0  0  0  0  0  0  0  0  0  0  0  0
    0.0706   -1.4816    0.0000 C   0  0  0  0  0  0  0  0  0  0  0  0
  2  1  1  6
  2  3  1  0
  3  4  1  0
  4  5  1  0
  5  6  2  0
  5  7  1  0
  7  8  1  0
  8  9  2  0
  9 10  1  0
 10 11  1  0
 11 12  2  0
 12 13  1  0
 13 14  2  0
 14 15  1  0
 15 16  2  0
  2 17  1  0
 17 18  1  6
 18 19  1  0
 20 19  1  6
 20 21  1  0
 21 22  1  1
 22 23  1  1
 22 24  1  0
 24 25  1  1
 24 26  1  0
 26 27  1  1
 27 28  1  0
 28 29  1  1
 28 30  1  0
 30 31  1  0
 31 32  1  0
 32 33  1  6
 32 34  1  0
 34 35  1  6
 35 36  1  0
 36 37  1  0
 37 38  1  6
 16  8  1  0
 37 17  1  0
 16 11  1  0
 37 20  1  0
 34 21  1  0
 32 26  1  0
M  END
>  <MS_ID>  (678) 
MS0707

>  <SMILES>  (678) 
C[C@H](CCC(=O)Cc1c[nH]c2ccccc12)[C@H]1CC[C@H]2[C@@H]3[C@H](O)[C@H](O)[C@@H]4C[C@H](O)CC[C@]4(C)[C@H]3CC[C@]12C

>  <Structure_dimension>  (678) 
2D

$$$$
MS0708
     RDKit          2D

 30 33  0  0  0  0  0  0  0  0999 V2000
   -4.5685   -2.6908    0.0000 C   0  0  0  0  0  0  0  0  0  0  0  0
   -3.4838   -1.6548    0.0000 C   0  0  0  0  0  0  0  0  0  0  0  0
   -3.8388   -0.1974    0.0000 C   0  0  0  0  0  0  0  0  0  0  0  0
   -5.2784    0.2240    0.0000 C   0  0  0  0  0  0  0  0  0  0  0  0
   -5.6333    1.6814    0.0000 C   0  0  0  0  0  0  0  0  0  0  0  0
   -4.5486    2.7174    0.0000 O   0  0  0  0  0  0  0  0  0  0  0  0
   -7.0729    2.1027    0.0000 N   0  0  0  0  0  0  0  0  0  0  0  0
   -7.4279    3.5601    0.0000 O   0  0  0  0  0  0  0  0  0  0  0  0
   -2.0442   -2.0761    0.0000 C   0  0  0  0  0  0  0  0  0  0  0  0
   -1.5389   -3.4884    0.0000 C   0  0  0  0  0  0  0  0  0  0  0  0
   -0.0395   -3.4442    0.0000 C   0  0  0  0  0  0  0  0  0  0  0  0
    0.3818   -2.0046    0.0000 C   0  0  0  0  0  0  0  0  0  0  0  0
    1.7336   -1.3544    0.0000 C   0  0  0  0  0  0  0  0  0  0  0  0
    2.9725   -2.1999    0.0000 C   0  0  0  0  0  0  0  0  0  0  0  0
    2.8597   -3.6957    0.0000 O   0  0  0  0  0  0  0  0  0  0  0  0
    4.3243   -1.5497    0.0000 C   0  0  0  0  0  0  0  0  0  0  0  0
    4.4371   -0.0540    0.0000 C   0  0  0  0  0  0  0  0  0  0  0  0
    5.7888    0.5962    0.0000 C   0  0  0  0  0  0  0  0  0  0  0  0
    5.9016    2.0920    0.0000 C   0  0  0  0  0  0  0  0  0  0  0  0
    7.2534    2.7422    0.0000 O   0  0  0  0  0  0  0  0  0  0  0  0
    4.6627    2.9375    0.0000 C   0  0  0  0  0  0  0  0  0  0  0  0
    3.3109    2.2873    0.0000 C   0  0  0  0  0  0  0  0  0  0  0  0
    3.1981    0.7916    0.0000 C   0  0  0  0  0  0  0  0  0  0  0  0
    1.9591    1.6371    0.0000 C   0  0  0  0  0  0  0  0  0  0  0  0
    1.8464    0.1414    0.0000 C   0  0  0  0  0  0  0  0  0  0  0  0
    0.6074    0.9869    0.0000 C   0  0  0  0  0  0  0  0  0  0  0  0
   -0.7444    0.3367    0.0000 C   0  0  0  0  0  0  0  0  0  0  0  0
   -1.9833    1.1823    0.0000 O   0  0  0  0  0  0  0  0  0  0  0  0
   -0.8572   -1.1590    0.0000 C   0  0  0  0  0  0  0  0  0  0  0  0
   -2.1777   -0.4476    0.0000 C   0  0  0  0  0  0  0  0  0  0  0  0
  2  1  1  6
  2  3  1  0
  3  4  1  0
  4  5  1  0
  5  6  2  0
  5  7  1  0
  7  8  1  0
  2  9  1  0
  9 10  1  6
 10 11  1  0
 12 11  1  6
 12 13  1  0
 13 14  1  1
 14 15  1  6
 14 16  1  0
 17 16  1  1
 17 18  1  0
 18 19  1  0
 19 20  1  1
 19 21  1  0
 21 22  1  0
 22 23  1  0
 23 24  1  6
 23 25  1  0
 25 26  1  6
 26 27  1  0
 27 28  1  1
 27 29  1  0
 29 30  1  6
 29  9  1  0
 29 12  1  0
 25 13  1  0
 23 17  1  0
M  END
>  <MS_ID>  (679) 
MS0708

>  <SMILES>  (679) 
C[C@H](CCC(=O)NO)[C@H]1CC[C@H]2[C@@H]3[C@@H](O)C[C@@H]4C[C@H](O)CC[C@]4(C)[C@H]3C[C@H](O)[C@]12C

>  <Structure_dimension>  (679) 
2D

$$$$
MS0709
     RDKit          2D

 34 37  0  0  0  0  0  0  0  0999 V2000
   -3.0140   -4.4146    0.0000 C   0  0  0  0  0  0  0  0  0  0  0  0
   -2.1988   -3.1554    0.0000 C   0  0  0  0  0  0  0  0  0  0  0  0
   -2.8817   -1.8199    0.0000 C   0  0  0  0  0  0  0  0  0  0  0  0
   -4.3798   -1.7435    0.0000 C   0  0  0  0  0  0  0  0  0  0  0  0
   -5.0627   -0.4080    0.0000 C   0  0  0  0  0  0  0  0  0  0  0  0
   -6.5608   -0.3317    0.0000 O   0  0  0  0  0  0  0  0  0  0  0  0
   -4.2475    0.8512    0.0000 O   0  0  0  0  0  0  0  0  0  0  0  0
   -4.9304    2.1867    0.0000 C   0  0  0  0  0  0  0  0  0  0  0  0
   -6.4285    2.2631    0.0000 O   0  0  0  0  0  0  0  0  0  0  0  0
   -4.1153    3.4459    0.0000 C   0  0  0  0  0  0  0  0  0  0  0  0
   -2.8561    2.6307    0.0000 C   0  0  0  0  0  0  0  0  0  0  0  0
   -5.3745    4.2610    0.0000 C   0  0  0  0  0  0  0  0  0  0  0  0
   -3.3001    4.7050    0.0000 O   0  0  0  0  0  0  0  0  0  0  0  0
   -0.7008   -3.2318    0.0000 C   0  0  0  0  0  0  0  0  0  0  0  0
    0.1180   -4.4886    0.0000 C   0  0  0  0  0  0  0  0  0  0  0  0
    1.5663   -4.0983    0.0000 C   0  0  0  0  0  0  0  0  0  0  0  0
    1.6427   -2.6003    0.0000 C   0  0  0  0  0  0  0  0  0  0  0  0
    2.8070   -1.6546    0.0000 C   0  0  0  0  0  0  0  0  0  0  0  0
    4.2082   -2.1902    0.0000 C   0  0  0  0  0  0  0  0  0  0  0  0
    5.3725   -1.2445    0.0000 C   0  0  0  0  0  0  0  0  0  0  0  0
    5.1358    0.2367    0.0000 C   0  0  0  0  0  0  0  0  0  0  0  0
    6.3001    1.1823    0.0000 C   0  0  0  0  0  0  0  0  0  0  0  0
    6.0634    2.6635    0.0000 C   0  0  0  0  0  0  0  0  0  0  0  0
    7.2277    3.6092    0.0000 O   0  0  0  0  0  0  0  0  0  0  0  0
    4.6622    3.1991    0.0000 C   0  0  0  0  0  0  0  0  0  0  0  0
    3.4978    2.2534    0.0000 C   0  0  0  0  0  0  0  0  0  0  0  0
    3.7346    0.7722    0.0000 C   0  0  0  0  0  0  0  0  0  0  0  0
    2.3335    1.3078    0.0000 C   0  0  0  0  0  0  0  0  0  0  0  0
    2.5703   -0.1734    0.0000 C   0  0  0  0  0  0  0  0  0  0  0  0
    1.1691    0.3621    0.0000 C   0  0  0  0  0  0  0  0  0  0  0  0
    0.0047   -0.5835    0.0000 C   0  0  0  0  0  0  0  0  0  0  0  0
   -1.3964   -0.0480    0.0000 O   0  0  0  0  0  0  0  0  0  0  0  0
    0.2415   -2.0647    0.0000 C   0  0  0  0  0  0  0  0  0  0  0  0
   -1.2079   -1.6786    0.0000 C   0  0  0  0  0  0  0  0  0  0  0  0
  2  1  1  6
  2  3  1  0
  3  4  1  0
  4  5  1  0
  5  6  2  0
  5  7  1  0
  7  8  1  0
  8  9  2  0
  8 10  1  0
 10 11  1  0
 10 12  1  0
 10 13  1  0
  2 14  1  0
 14 15  1  6
 15 16  1  0
 17 16  1  6
 17 18  1  0
 18 19  1  1
 19 20  1  0
 21 20  1  1
 21 22  1  0
 22 23  1  0
 23 24  1  1
 23 25  1  0
 25 26  1  0
 26 27  1  0
 27 28  1  6
 27 29  1  0
 29 30  1  6
 30 31  1  0
 31 32  1  1
 31 33  1  0
 33 34  1  6
 33 14  1  0
 33 17  1  0
 29 18  1  0
 27 21  1  0
M  END
>  <MS_ID>  (680) 
MS0709

>  <SMILES>  (680) 
C[C@H](CCC(=O)OC(=O)C(C)(C)O)[C@H]1CC[C@H]2[C@@H]3CC[C@@H]4C[C@H](O)CC[C@]4(C)[C@H]3C[C@H](O)[C@]12C

>  <Structure_dimension>  (680) 
2D

$$$$
MS0710
     RDKit          2D

 29 32  0  0  0  0  0  0  0  0999 V2000
   -8.7027    3.3418    0.0000 C   0  0  0  0  0  0  0  0  0  0  0  0
   -7.2445    2.9904    0.0000 C   0  0  0  0  0  0  0  0  0  0  0  0
   -6.8197    1.5518    0.0000 O   0  0  0  0  0  0  0  0  0  0  0  0
   -5.3614    1.2003    0.0000 C   0  0  0  0  0  0  0  0  0  0  0  0
   -4.3279    2.2875    0.0000 O   0  0  0  0  0  0  0  0  0  0  0  0
   -4.9366   -0.2383    0.0000 C   0  0  0  0  0  0  0  0  0  0  0  0
   -3.4784   -0.5897    0.0000 C   0  0  0  0  0  0  0  0  0  0  0  0
   -3.0536   -2.0283    0.0000 C   0  0  0  0  0  0  0  0  0  0  0  0
   -4.0871   -3.1154    0.0000 C   0  0  0  0  0  0  0  0  0  0  0  0
   -1.5953   -2.3797    0.0000 C   0  0  0  0  0  0  0  0  0  0  0  0
   -1.0225   -3.7660    0.0000 C   0  0  0  0  0  0  0  0  0  0  0  0
    0.4730   -3.6496    0.0000 C   0  0  0  0  0  0  0  0  0  0  0  0
    0.8244   -2.1914    0.0000 C   0  0  0  0  0  0  0  0  0  0  0  0
    2.1432   -1.4767    0.0000 C   0  0  0  0  0  0  0  0  0  0  0  0
    3.4215   -2.2616    0.0000 C   0  0  0  0  0  0  0  0  0  0  0  0
    4.7404   -1.5470    0.0000 C   0  0  0  0  0  0  0  0  0  0  0  0
    4.7809   -0.0475    0.0000 C   0  0  0  0  0  0  0  0  0  0  0  0
    6.0998    0.6671    0.0000 C   0  0  0  0  0  0  0  0  0  0  0  0
    6.1403    2.1665    0.0000 C   0  0  0  0  0  0  0  0  0  0  0  0
    7.4592    2.8811    0.0000 O   0  0  0  0  0  0  0  0  0  0  0  0
    4.8620    2.9514    0.0000 C   0  0  0  0  0  0  0  0  0  0  0  0
    3.5432    2.2368    0.0000 C   0  0  0  0  0  0  0  0  0  0  0  0
    3.5026    0.7373    0.0000 C   0  0  0  0  0  0  0  0  0  0  0  0
    2.2243    1.5222    0.0000 C   0  0  0  0  0  0  0  0  0  0  0  0
    2.1838    0.0227    0.0000 C   0  0  0  0  0  0  0  0  0  0  0  0
    0.9055    0.8076    0.0000 C   0  0  0  0  0  0  0  0  0  0  0  0
   -0.4133    0.0929    0.0000 C   0  0  0  0  0  0  0  0  0  0  0  0
   -0.4539   -1.4065    0.0000 C   0  0  0  0  0  0  0  0  0  0  0  0
   -1.8072   -0.7596    0.0000 C   0  0  0  0  0  0  0  0  0  0  0  0
  1  2  1  0
  2  3  1  0
  3  4  1  0
  4  5  2  0
  4  6  1  0
  6  7  1  0
  7  8  1  0
  8  9  1  6
  8 10  1  0
 10 11  1  6
 11 12  1  0
 13 12  1  6
 13 14  1  0
 14 15  1  1
 15 16  1  0
 17 16  1  1
 17 18  1  0
 18 19  1  0
 19 20  1  6
 19 21  1  0
 21 22  1  0
 22 23  1  0
 23 24  1  6
 23 25  1  0
 25 26  1  6
 26 27  1  0
 27 28  1  0
 28 29  1  6
 28 10  1  0
 28 13  1  0
 25 14  1  0
 23 17  1  0
M  END
>  <MS_ID>  (681) 
MS0710

>  <SMILES>  (681) 
CCOC(=O)CC[C@@H](C)[C@H]1CC[C@H]2[C@@H]3CC[C@@H]4C[C@@H](O)CC[C@]4(C)[C@H]3CC[C@]12C

>  <Structure_dimension>  (681) 
2D

$$$$
MS0711
     RDKit          2D

 39 43  0  0  0  0  0  0  0  0999 V2000
   -7.7223   -2.0161    0.0000 C   0  0  0  0  0  0  0  0  0  0  0  0
   -6.5302   -1.1057    0.0000 C   0  0  0  0  0  0  0  0  0  0  0  0
   -6.7225    0.3819    0.0000 C   0  0  0  0  0  0  0  0  0  0  0  0
   -8.1070    0.9591    0.0000 C   0  0  0  0  0  0  0  0  0  0  0  0
   -8.2993    2.4467    0.0000 C   0  0  0  0  0  0  0  0  0  0  0  0
   -7.1072    3.3571    0.0000 O   0  0  0  0  0  0  0  0  0  0  0  0
   -9.6838    3.0240    0.0000 O   0  0  0  0  0  0  0  0  0  0  0  0
   -5.1457   -1.6830    0.0000 C   0  0  0  0  0  0  0  0  0  0  0  0
   -4.7989   -3.1423    0.0000 C   0  0  0  0  0  0  0  0  0  0  0  0
   -3.3038   -3.2635    0.0000 C   0  0  0  0  0  0  0  0  0  0  0  0
   -2.7266   -1.8790    0.0000 C   0  0  0  0  0  0  0  0  0  0  0  0
   -1.3115   -1.3816    0.0000 C   0  0  0  0  0  0  0  0  0  0  0  0
   -0.1731   -2.3584    0.0000 C   0  0  0  0  0  0  0  0  0  0  0  0
   -0.4499   -3.8327    0.0000 O   0  0  0  0  0  0  0  0  0  0  0  0
    1.2420   -1.8610    0.0000 C   0  0  0  0  0  0  0  0  0  0  0  0
    1.5188   -0.3867    0.0000 C   0  0  0  0  0  0  0  0  0  0  0  0
    2.9339    0.1107    0.0000 C   0  0  0  0  0  0  0  0  0  0  0  0
    3.2107    1.5849    0.0000 C   0  0  0  0  0  0  0  0  0  0  0  0
    4.6258    2.0824    0.0000 O   0  0  0  0  0  0  0  0  0  0  0  0
    5.7641    1.1055    0.0000 C   0  0  0  0  0  0  0  0  0  0  0  0
    5.4874   -0.3687    0.0000 C   0  0  0  0  0  0  0  0  0  0  0  0
    6.6257   -1.3455    0.0000 C   0  0  0  0  0  0  0  0  0  0  0  0
    6.3489   -2.8198    0.0000 O   0  0  0  0  0  0  0  0  0  0  0  0
    8.0408   -0.8481    0.0000 C   0  0  0  0  0  0  0  0  0  0  0  0
    9.1792   -1.8249    0.0000 O   0  0  0  0  0  0  0  0  0  0  0  0
    8.3176    0.6262    0.0000 C   0  0  0  0  0  0  0  0  0  0  0  0
    9.7327    1.1236    0.0000 C   0  0  0  0  0  0  0  0  0  0  0  0
   10.0095    2.5978    0.0000 O   0  0  0  0  0  0  0  0  0  0  0  0
    7.1793    1.6030    0.0000 O   0  0  0  0  0  0  0  0  0  0  0  0
    2.0723    2.5618    0.0000 C   0  0  0  0  0  0  0  0  0  0  0  0
    0.6572    2.0643    0.0000 C   0  0  0  0  0  0  0  0  0  0  0  0
    0.3804    0.5901    0.0000 C   0  0  0  0  0  0  0  0  0  0  0  0
   -0.7579    1.5669    0.0000 C   0  0  0  0  0  0  0  0  0  0  0  0
   -1.0347    0.0927    0.0000 C   0  0  0  0  0  0  0  0  0  0  0  0
   -2.1730    1.0695    0.0000 C   0  0  0  0  0  0  0  0  0  0  0  0
   -3.5882    0.5720    0.0000 C   0  0  0  0  0  0  0  0  0  0  0  0
   -4.7265    1.5489    0.0000 O   0  0  0  0  0  0  0  0  0  0  0  0
   -3.8649   -0.9022    0.0000 C   0  0  0  0  0  0  0  0  0  0  0  0
   -5.0991   -0.0497    0.0000 C   0  0  0  0  0  0  0  0  0  0  0  0
  2  1  1  6
  2  3  1  0
  3  4  1  0
  4  5  1  0
  5  6  2  0
  5  7  1  0
  2  8  1  0
  8  9  1  6
  9 10  1  0
 11 10  1  6
 11 12  1  0
 12 13  1  1
 13 14  1  1
 13 15  1  0
 16 15  1  1
 16 17  1  0
 17 18  1  0
 18 19  1  1
 20 19  1  1
 20 21  1  0
 21 22  1  0
 22 23  1  1
 22 24  1  0
 24 25  1  1
 24 26  1  0
 26 27  1  6
 27 28  1  0
 26 29  1  0
 18 30  1  0
 30 31  1  0
 31 32  1  0
 32 33  1  6
 32 34  1  0
 34 35  1  6
 35 36  1  0
 36 37  1  1
 36 38  1  0
 38 39  1  6
 38  8  1  0
 38 11  1  0
 34 12  1  0
 32 16  1  0
 29 20  1  0
M  END
>  <MS_ID>  (682) 
MS0711

>  <SMILES>  (682) 
C[C@H](CCC(=O)O)[C@H]1CC[C@H]2[C@@H]3[C@H](O)C[C@@H]4C[C@H](O[C@@H]5C[C@H](O)[C@H](O)[C@@H](CO)O5)CC[C@]4(C)[C@H]3C[C@H](O)[C@]12C

>  <Structure_dimension>  (682) 
2D

$$$$
MS0712
     RDKit          2D

 31 34  0  0  0  0  0  0  0  0999 V2000
   -3.5119   -3.5779    0.0000 C   0  0  0  0  0  0  0  0  0  0  0  0
   -2.6109   -2.3787    0.0000 C   0  0  0  0  0  0  0  0  0  0  0  0
   -3.1991   -0.9988    0.0000 C   0  0  0  0  0  0  0  0  0  0  0  0
   -4.6881   -0.8181    0.0000 C   0  0  0  0  0  0  0  0  0  0  0  0
   -5.2762    0.5618    0.0000 C   0  0  0  0  0  0  0  0  0  0  0  0
   -4.3753    1.7610    0.0000 O   0  0  0  0  0  0  0  0  0  0  0  0
   -6.7653    0.7424    0.0000 N   0  0  0  0  0  0  0  0  0  0  0  0
   -7.3534    2.1223    0.0000 C   0  0  0  0  0  0  0  0  0  0  0  0
   -8.8425    2.3029    0.0000 C   0  0  0  0  0  0  0  0  0  0  0  0
   -9.4306    3.6828    0.0000 O   0  0  0  0  0  0  0  0  0  0  0  0
   -1.1219   -2.5593    0.0000 C   0  0  0  0  0  0  0  0  0  0  0  0
   -0.3927   -3.8702    0.0000 C   0  0  0  0  0  0  0  0  0  0  0  0
    1.0793   -3.5818    0.0000 C   0  0  0  0  0  0  0  0  0  0  0  0
    1.2599   -2.0927    0.0000 C   0  0  0  0  0  0  0  0  0  0  0  0
    2.4874   -1.2306    0.0000 C   0  0  0  0  0  0  0  0  0  0  0  0
    3.8478   -1.8625    0.0000 C   0  0  0  0  0  0  0  0  0  0  0  0
    3.9807   -3.3566    0.0000 O   0  0  0  0  0  0  0  0  0  0  0  0
    5.0753   -1.0003    0.0000 C   0  0  0  0  0  0  0  0  0  0  0  0
    4.9423    0.4938    0.0000 C   0  0  0  0  0  0  0  0  0  0  0  0
    6.1698    1.3559    0.0000 C   0  0  0  0  0  0  0  0  0  0  0  0
    6.0369    2.8500    0.0000 C   0  0  0  0  0  0  0  0  0  0  0  0
    7.2644    3.7122    0.0000 O   0  0  0  0  0  0  0  0  0  0  0  0
    4.6765    3.4820    0.0000 C   0  0  0  0  0  0  0  0  0  0  0  0
    3.4490    2.6198    0.0000 C   0  0  0  0  0  0  0  0  0  0  0  0
    3.5820    1.1257    0.0000 C   0  0  0  0  0  0  0  0  0  0  0  0
    2.2216    1.7576    0.0000 C   0  0  0  0  0  0  0  0  0  0  0  0
    2.3545    0.2635    0.0000 C   0  0  0  0  0  0  0  0  0  0  0  0
    0.9941    0.8955    0.0000 C   0  0  0  0  0  0  0  0  0  0  0  0
   -0.2334    0.0333    0.0000 C   0  0  0  0  0  0  0  0  0  0  0  0
   -0.1005   -1.4608    0.0000 C   0  0  0  0  0  0  0  0  0  0  0  0
   -1.5195   -0.9745    0.0000 C   0  0  0  0  0  0  0  0  0  0  0  0
  2  1  1  6
  2  3  1  0
  3  4  1  0
  4  5  1  0
  5  6  2  0
  5  7  1  0
  7  8  1  0
  8  9  1  0
  9 10  1  0
  2 11  1  0
 11 12  1  6
 12 13  1  0
 14 13  1  6
 14 15  1  0
 15 16  1  1
 16 17  1  6
 16 18  1  0
 19 18  1  1
 19 20  1  0
 20 21  1  0
 21 22  1  1
 21 23  1  0
 23 24  1  0
 24 25  1  0
 25 26  1  6
 25 27  1  0
 27 28  1  6
 28 29  1  0
 29 30  1  0
 30 31  1  6
 30 11  1  0
 30 14  1  0
 27 15  1  0
 25 19  1  0
M  END
>  <MS_ID>  (683) 
MS0712

>  <SMILES>  (683) 
C[C@H](CCC(=O)NCCO)[C@H]1CC[C@H]2[C@@H]3[C@@H](O)C[C@@H]4C[C@H](O)CC[C@]4(C)[C@H]3CC[C@]12C

>  <Structure_dimension>  (683) 
2D

$$$$
MS0713
     RDKit          2D

 35 39  0  0  0  0  0  0  0  0999 V2000
   -1.3718   -4.5891    0.0000 C   0  0  0  0  0  0  0  0  0  0  0  0
   -0.7616   -3.2188    0.0000 C   0  0  0  0  0  0  0  0  0  0  0  0
   -1.6432   -2.0053    0.0000 C   0  0  0  0  0  0  0  0  0  0  0  0
   -3.1350   -2.1620    0.0000 C   0  0  0  0  0  0  0  0  0  0  0  0
   -4.0166   -0.9484    0.0000 C   0  0  0  0  0  0  0  0  0  0  0  0
   -3.4064    0.4219    0.0000 O   0  0  0  0  0  0  0  0  0  0  0  0
   -5.5084   -1.1051    0.0000 N   0  0  0  0  0  0  0  0  0  0  0  0
   -6.3900    0.1085    0.0000 C   0  0  0  0  0  0  0  0  0  0  0  0
   -7.8818   -0.0482    0.0000 C   0  0  0  0  0  0  0  0  0  0  0  0
   -8.7634    1.1653    0.0000 C   0  0  0  0  0  0  0  0  0  0  0  0
  -10.2634    1.1654    0.0000 C   0  0  0  0  0  0  0  0  0  0  0  0
  -10.7269    2.5920    0.0000 N   0  0  0  0  0  0  0  0  0  0  0  0
   -9.5133    3.4737    0.0000 C   0  0  0  0  0  0  0  0  0  0  0  0
   -8.2998    2.5919    0.0000 N   0  0  0  0  0  0  0  0  0  0  0  0
    0.7302   -3.0621    0.0000 C   0  0  0  0  0  0  0  0  0  0  0  0
    1.7338   -4.1769    0.0000 C   0  0  0  0  0  0  0  0  0  0  0  0
    3.1042   -3.5669    0.0000 C   0  0  0  0  0  0  0  0  0  0  0  0
    2.9474   -2.0751    0.0000 C   0  0  0  0  0  0  0  0  0  0  0  0
    3.9512   -0.9604    0.0000 C   0  0  0  0  0  0  0  0  0  0  0  0
    5.4184   -1.2724    0.0000 C   0  0  0  0  0  0  0  0  0  0  0  0
    5.8819   -2.6990    0.0000 O   0  0  0  0  0  0  0  0  0  0  0  0
    6.4222   -0.1577    0.0000 C   0  0  0  0  0  0  0  0  0  0  0  0
    5.9587    1.2689    0.0000 C   0  0  0  0  0  0  0  0  0  0  0  0
    6.9625    2.3835    0.0000 C   0  0  0  0  0  0  0  0  0  0  0  0
    6.4990    3.8101    0.0000 C   0  0  0  0  0  0  0  0  0  0  0  0
    7.5028    4.9248    0.0000 O   0  0  0  0  0  0  0  0  0  0  0  0
    5.0318    4.1221    0.0000 C   0  0  0  0  0  0  0  0  0  0  0  0
    4.0281    3.0074    0.0000 C   0  0  0  0  0  0  0  0  0  0  0  0
    4.4915    1.5808    0.0000 C   0  0  0  0  0  0  0  0  0  0  0  0
    3.0243    1.8928    0.0000 C   0  0  0  0  0  0  0  0  0  0  0  0
    3.4878    0.4662    0.0000 C   0  0  0  0  0  0  0  0  0  0  0  0
    2.0206    0.7781    0.0000 C   0  0  0  0  0  0  0  0  0  0  0  0
    1.0168   -0.3365    0.0000 C   0  0  0  0  0  0  0  0  0  0  0  0
    1.4802   -1.7631    0.0000 C   0  0  0  0  0  0  0  0  0  0  0  0
   -0.0115   -1.6063    0.0000 C   0  0  0  0  0  0  0  0  0  0  0  0
  2  1  1  6
  2  3  1  0
  3  4  1  0
  4  5  1  0
  5  6  2  0
  5  7  1  0
  7  8  1  0
  8  9  1  0
  9 10  1  0
 10 11  2  0
 11 12  1  0
 12 13  1  0
 13 14  2  0
  2 15  1  0
 15 16  1  6
 16 17  1  0
 18 17  1  6
 18 19  1  0
 19 20  1  1
 20 21  1  1
 20 22  1  0
 23 22  1  1
 23 24  1  0
 24 25  1  0
 25 26  1  1
 25 27  1  0
 27 28  1  0
 28 29  1  0
 29 30  1  6
 29 31  1  0
 31 32  1  6
 32 33  1  0
 33 34  1  0
 34 35  1  6
 14 10  1  0
 34 15  1  0
 34 18  1  0
 31 19  1  0
 29 23  1  0
M  END
>  <MS_ID>  (684) 
MS0713

>  <SMILES>  (684) 
C[C@H](CCC(=O)NCCc1c[nH]cn1)[C@H]1CC[C@H]2[C@@H]3[C@H](O)C[C@@H]4C[C@H](O)CC[C@]4(C)[C@H]3CC[C@]12C

>  <Structure_dimension>  (684) 
2D

$$$$
MS0714
     RDKit          2D

 30 33  0  0  0  0  0  0  0  0999 V2000
   -8.9136    3.2062    0.0000 C   0  0  0  0  0  0  0  0  0  0  0  0
   -7.4457    2.8978    0.0000 C   0  0  0  0  0  0  0  0  0  0  0  0
   -6.9787    1.4724    0.0000 O   0  0  0  0  0  0  0  0  0  0  0  0
   -5.5108    1.1640    0.0000 C   0  0  0  0  0  0  0  0  0  0  0  0
   -4.5097    2.2811    0.0000 O   0  0  0  0  0  0  0  0  0  0  0  0
   -5.0438   -0.2615    0.0000 C   0  0  0  0  0  0  0  0  0  0  0  0
   -3.5759   -0.5698    0.0000 C   0  0  0  0  0  0  0  0  0  0  0  0
   -3.1089   -1.9953    0.0000 C   0  0  0  0  0  0  0  0  0  0  0  0
   -4.1099   -3.1124    0.0000 C   0  0  0  0  0  0  0  0  0  0  0  0
   -1.6409   -2.3036    0.0000 C   0  0  0  0  0  0  0  0  0  0  0  0
   -1.0276   -3.6725    0.0000 C   0  0  0  0  0  0  0  0  0  0  0  0
    0.4638   -3.5121    0.0000 C   0  0  0  0  0  0  0  0  0  0  0  0
    0.7722   -2.0441    0.0000 C   0  0  0  0  0  0  0  0  0  0  0  0
    2.0694   -1.2910    0.0000 C   0  0  0  0  0  0  0  0  0  0  0  0
    3.3703   -2.0379    0.0000 C   0  0  0  0  0  0  0  0  0  0  0  0
    3.3739   -3.5379    0.0000 O   0  0  0  0  0  0  0  0  0  0  0  0
    4.6675   -1.2848    0.0000 C   0  0  0  0  0  0  0  0  0  0  0  0
    4.6639    0.2152    0.0000 C   0  0  0  0  0  0  0  0  0  0  0  0
    5.9611    0.9683    0.0000 C   0  0  0  0  0  0  0  0  0  0  0  0
    5.9575    2.4683    0.0000 C   0  0  0  0  0  0  0  0  0  0  0  0
    7.2548    3.2214    0.0000 O   0  0  0  0  0  0  0  0  0  0  0  0
    4.6567    3.2152    0.0000 C   0  0  0  0  0  0  0  0  0  0  0  0
    3.3595    2.4621    0.0000 C   0  0  0  0  0  0  0  0  0  0  0  0
    3.3631    0.9621    0.0000 C   0  0  0  0  0  0  0  0  0  0  0  0
    2.0622    1.7090    0.0000 C   0  0  0  0  0  0  0  0  0  0  0  0
    2.0658    0.2090    0.0000 C   0  0  0  0  0  0  0  0  0  0  0  0
    0.7650    0.9559    0.0000 C   0  0  0  0  0  0  0  0  0  0  0  0
   -0.5322    0.2027    0.0000 C   0  0  0  0  0  0  0  0  0  0  0  0
   -0.5286   -1.2973    0.0000 C   0  0  0  0  0  0  0  0  0  0  0  0
   -1.9004   -0.6904    0.0000 C   0  0  0  0  0  0  0  0  0  0  0  0
  1  2  1  0
  2  3  1  0
  3  4  1  0
  4  5  2  0
  4  6  1  0
  6  7  1  0
  7  8  1  0
  8  9  1  6
  8 10  1  0
 10 11  1  6
 11 12  1  0
 13 12  1  6
 13 14  1  0
 14 15  1  1
 15 16  1  1
 15 17  1  0
 18 17  1  1
 18 19  1  0
 19 20  1  0
 20 21  2  0
 20 22  1  0
 22 23  1  0
 23 24  1  0
 24 25  1  6
 24 26  1  0
 26 27  1  6
 27 28  1  0
 28 29  1  0
 29 30  1  6
 29 10  1  0
 29 13  1  0
 26 14  1  0
 24 18  1  0
M  END
>  <MS_ID>  (685) 
MS0714

>  <SMILES>  (685) 
CCOC(=O)CC[C@@H](C)[C@H]1CC[C@H]2[C@@H]3[C@H](O)C[C@@H]4CC(=O)CC[C@]4(C)[C@H]3CC[C@]12C

>  <Structure_dimension>  (685) 
2D

$$$$
MS0716
     RDKit          2D

 32 35  0  0  0  0  0  0  0  0999 V2000
   -9.3885    3.6424    0.0000 C   0  0  0  0  0  0  0  0  0  0  0  0
   -8.7975    2.2638    0.0000 C   0  0  0  0  0  0  0  0  0  0  0  0
   -7.3080    2.0863    0.0000 C   0  0  0  0  0  0  0  0  0  0  0  0
   -6.7170    0.7076    0.0000 N   0  0  0  0  0  0  0  0  0  0  0  0
   -5.2276    0.5301    0.0000 C   0  0  0  0  0  0  0  0  0  0  0  0
   -4.3291    1.7312    0.0000 O   0  0  0  0  0  0  0  0  0  0  0  0
   -4.6366   -0.8486    0.0000 C   0  0  0  0  0  0  0  0  0  0  0  0
   -3.1471   -1.0261    0.0000 C   0  0  0  0  0  0  0  0  0  0  0  0
   -2.5561   -2.4048    0.0000 C   0  0  0  0  0  0  0  0  0  0  0  0
   -3.4546   -3.6059    0.0000 C   0  0  0  0  0  0  0  0  0  0  0  0
   -1.0667   -2.5823    0.0000 C   0  0  0  0  0  0  0  0  0  0  0  0
   -0.3348   -3.8917    0.0000 C   0  0  0  0  0  0  0  0  0  0  0  0
    1.1366   -3.6002    0.0000 C   0  0  0  0  0  0  0  0  0  0  0  0
    1.3141   -2.1108    0.0000 C   0  0  0  0  0  0  0  0  0  0  0  0
    2.5398   -1.2460    0.0000 C   0  0  0  0  0  0  0  0  0  0  0  0
    3.9015   -1.8751    0.0000 C   0  0  0  0  0  0  0  0  0  0  0  0
    4.0375   -3.3690    0.0000 O   0  0  0  0  0  0  0  0  0  0  0  0
    5.1272   -1.0104    0.0000 C   0  0  0  0  0  0  0  0  0  0  0  0
    4.9911    0.4834    0.0000 C   0  0  0  0  0  0  0  0  0  0  0  0
    6.2168    1.3481    0.0000 C   0  0  0  0  0  0  0  0  0  0  0  0
    6.0808    2.8419    0.0000 C   0  0  0  0  0  0  0  0  0  0  0  0
    7.3064    3.7067    0.0000 O   0  0  0  0  0  0  0  0  0  0  0  0
    4.7191    3.4710    0.0000 C   0  0  0  0  0  0  0  0  0  0  0  0
    3.4934    2.6063    0.0000 C   0  0  0  0  0  0  0  0  0  0  0  0
    3.6294    1.1125    0.0000 C   0  0  0  0  0  0  0  0  0  0  0  0
    2.2677    1.7416    0.0000 C   0  0  0  0  0  0  0  0  0  0  0  0
    2.4038    0.2478    0.0000 C   0  0  0  0  0  0  0  0  0  0  0  0
    1.0421    0.8769    0.0000 C   0  0  0  0  0  0  0  0  0  0  0  0
   -0.1836    0.0122    0.0000 C   0  0  0  0  0  0  0  0  0  0  0  0
   -1.5453    0.6413    0.0000 O   0  0  0  0  0  0  0  0  0  0  0  0
   -0.0476   -1.4817    0.0000 C   0  0  0  0  0  0  0  0  0  0  0  0
   -1.4676   -0.9983    0.0000 C   0  0  0  0  0  0  0  0  0  0  0  0
  1  2  1  0
  2  3  1  0
  3  4  1  0
  4  5  1  0
  5  6  2  0
  5  7  1  0
  7  8  1  0
  8  9  1  0
  9 10  1  6
  9 11  1  0
 11 12  1  6
 12 13  1  0
 14 13  1  6
 14 15  1  0
 15 16  1  1
 16 17  1  1
 16 18  1  0
 19 18  1  1
 19 20  1  0
 20 21  1  0
 21 22  1  1
 21 23  1  0
 23 24  1  0
 24 25  1  0
 25 26  1  6
 25 27  1  0
 27 28  1  6
 28 29  1  0
 29 30  1  1
 29 31  1  0
 31 32  1  6
 31 11  1  0
 31 14  1  0
 27 15  1  0
 25 19  1  0
M  END
>  <MS_ID>  (686) 
MS0716

>  <SMILES>  (686) 
CCCNC(=O)CC[C@@H](C)[C@H]1CC[C@H]2[C@@H]3[C@H](O)C[C@@H]4C[C@H](O)CC[C@]4(C)[C@H]3C[C@H](O)[C@]12C

>  <Structure_dimension>  (686) 
2D

$$$$
MS0717
     RDKit          2D

 30 33  0  0  0  0  0  0  0  0999 V2000
   -4.5685   -2.6908    0.0000 C   0  0  0  0  0  0  0  0  0  0  0  0
   -3.4838   -1.6548    0.0000 C   0  0  0  0  0  0  0  0  0  0  0  0
   -3.8388   -0.1974    0.0000 C   0  0  0  0  0  0  0  0  0  0  0  0
   -5.2784    0.2240    0.0000 C   0  0  0  0  0  0  0  0  0  0  0  0
   -5.6333    1.6814    0.0000 C   0  0  0  0  0  0  0  0  0  0  0  0
   -4.5486    2.7174    0.0000 O   0  0  0  0  0  0  0  0  0  0  0  0
   -7.0729    2.1027    0.0000 C   0  0  0  0  0  0  0  0  0  0  0  0
   -7.4279    3.5601    0.0000 S   0  0  0  0  0  0  0  0  0  0  0  0
   -2.0442   -2.0761    0.0000 C   0  0  0  0  0  0  0  0  0  0  0  0
   -1.5389   -3.4884    0.0000 C   0  0  0  0  0  0  0  0  0  0  0  0
   -0.0395   -3.4442    0.0000 C   0  0  0  0  0  0  0  0  0  0  0  0
    0.3818   -2.0046    0.0000 C   0  0  0  0  0  0  0  0  0  0  0  0
    1.7336   -1.3544    0.0000 C   0  0  0  0  0  0  0  0  0  0  0  0
    2.9725   -2.1999    0.0000 C   0  0  0  0  0  0  0  0  0  0  0  0
    2.8597   -3.6957    0.0000 O   0  0  0  0  0  0  0  0  0  0  0  0
    4.3243   -1.5497    0.0000 C   0  0  0  0  0  0  0  0  0  0  0  0
    4.4371   -0.0540    0.0000 C   0  0  0  0  0  0  0  0  0  0  0  0
    5.7888    0.5962    0.0000 C   0  0  0  0  0  0  0  0  0  0  0  0
    5.9016    2.0920    0.0000 C   0  0  0  0  0  0  0  0  0  0  0  0
    7.2534    2.7422    0.0000 O   0  0  0  0  0  0  0  0  0  0  0  0
    4.6627    2.9375    0.0000 C   0  0  0  0  0  0  0  0  0  0  0  0
    3.3109    2.2873    0.0000 C   0  0  0  0  0  0  0  0  0  0  0  0
    3.1981    0.7916    0.0000 C   0  0  0  0  0  0  0  0  0  0  0  0
    1.9591    1.6371    0.0000 C   0  0  0  0  0  0  0  0  0  0  0  0
    1.8464    0.1414    0.0000 C   0  0  0  0  0  0  0  0  0  0  0  0
    0.6074    0.9869    0.0000 C   0  0  0  0  0  0  0  0  0  0  0  0
   -0.7444    0.3367    0.0000 C   0  0  0  0  0  0  0  0  0  0  0  0
   -1.9833    1.1823    0.0000 O   0  0  0  0  0  0  0  0  0  0  0  0
   -0.8572   -1.1590    0.0000 C   0  0  0  0  0  0  0  0  0  0  0  0
   -2.1777   -0.4476    0.0000 C   0  0  0  0  0  0  0  0  0  0  0  0
  2  1  1  6
  2  3  1  0
  3  4  1  0
  4  5  1  0
  5  6  2  0
  5  7  1  0
  7  8  1  0
  2  9  1  0
  9 10  1  6
 10 11  1  0
 12 11  1  6
 12 13  1  0
 13 14  1  1
 14 15  1  1
 14 16  1  0
 17 16  1  1
 17 18  1  0
 18 19  1  0
 19 20  1  1
 19 21  1  0
 21 22  1  0
 22 23  1  0
 23 24  1  6
 23 25  1  0
 25 26  1  6
 26 27  1  0
 27 28  1  6
 27 29  1  0
 29 30  1  6
 29  9  1  0
 29 12  1  0
 25 13  1  0
 23 17  1  0
M  END
>  <MS_ID>  (687) 
MS0717

>  <SMILES>  (687) 
C[C@H](CCC(=O)CS)[C@H]1CC[C@H]2[C@@H]3[C@H](O)C[C@@H]4C[C@H](O)CC[C@]4(C)[C@H]3C[C@@H](O)[C@]12C

>  <Structure_dimension>  (687) 
2D

$$$$
MS0718
     RDKit          2D

 40 44  0  0  0  0  0  0  0  0999 V2000
   -0.9108   -4.8216    0.0000 C   0  0  0  0  0  0  0  0  0  0  0  0
   -0.3447   -3.4325    0.0000 C   0  0  0  0  0  0  0  0  0  0  0  0
   -1.2647   -2.2477    0.0000 C   0  0  0  0  0  0  0  0  0  0  0  0
   -2.7507   -2.4520    0.0000 C   0  0  0  0  0  0  0  0  0  0  0  0
   -3.6706   -1.2672    0.0000 C   0  0  0  0  0  0  0  0  0  0  0  0
   -3.1046    0.1219    0.0000 O   0  0  0  0  0  0  0  0  0  0  0  0
   -5.1567   -1.4715    0.0000 O   0  0  0  0  0  0  0  0  0  0  0  0
   -6.0766   -0.2867    0.0000 C   0  0  0  0  0  0  0  0  0  0  0  0
   -5.5105    1.1023    0.0000 O   0  0  0  0  0  0  0  0  0  0  0  0
   -6.4305    2.2871    0.0000 C   0  0  0  0  0  0  0  0  0  0  0  0
   -5.8644    3.6762    0.0000 C   0  0  0  0  0  0  0  0  0  0  0  0
   -4.3784    3.8805    0.0000 O   0  0  0  0  0  0  0  0  0  0  0  0
   -7.9165    2.0828    0.0000 C   0  0  0  0  0  0  0  0  0  0  0  0
   -8.8364    3.2676    0.0000 O   0  0  0  0  0  0  0  0  0  0  0  0
   -8.4826    0.6937    0.0000 C   0  0  0  0  0  0  0  0  0  0  0  0
   -9.9686    0.4894    0.0000 O   0  0  0  0  0  0  0  0  0  0  0  0
   -7.5626   -0.4910    0.0000 C   0  0  0  0  0  0  0  0  0  0  0  0
   -8.1287   -1.8801    0.0000 O   0  0  0  0  0  0  0  0  0  0  0  0
    1.1413   -3.2282    0.0000 C   0  0  0  0  0  0  0  0  0  0  0  0
    2.1800   -4.3103    0.0000 C   0  0  0  0  0  0  0  0  0  0  0  0
    3.5302   -3.6568    0.0000 C   0  0  0  0  0  0  0  0  0  0  0  0
    3.3259   -2.1708    0.0000 C   0  0  0  0  0  0  0  0  0  0  0  0
    4.2935   -1.0246    0.0000 C   0  0  0  0  0  0  0  0  0  0  0  0
    5.7699   -1.2896    0.0000 C   0  0  0  0  0  0  0  0  0  0  0  0
    6.2787   -2.7006    0.0000 O   0  0  0  0  0  0  0  0  0  0  0  0
    6.7376   -0.1434    0.0000 C   0  0  0  0  0  0  0  0  0  0  0  0
    8.2140   -0.4083    0.0000 O   0  0  0  0  0  0  0  0  0  0  0  0
    6.2288    1.2677    0.0000 C   0  0  0  0  0  0  0  0  0  0  0  0
    7.1964    2.4139    0.0000 C   0  0  0  0  0  0  0  0  0  0  0  0
    6.6876    3.8249    0.0000 C   0  0  0  0  0  0  0  0  0  0  0  0
    7.6552    4.9711    0.0000 O   0  0  0  0  0  0  0  0  0  0  0  0
    5.2112    4.0898    0.0000 C   0  0  0  0  0  0  0  0  0  0  0  0
    4.2435    2.9437    0.0000 C   0  0  0  0  0  0  0  0  0  0  0  0
    4.7523    1.5326    0.0000 C   0  0  0  0  0  0  0  0  0  0  0  0
    3.2759    1.7975    0.0000 C   0  0  0  0  0  0  0  0  0  0  0  0
    3.7847    0.3864    0.0000 C   0  0  0  0  0  0  0  0  0  0  0  0
    2.3083    0.6513    0.0000 C   0  0  0  0  0  0  0  0  0  0  0  0
    1.3407   -0.4948    0.0000 C   0  0  0  0  0  0  0  0  0  0  0  0
    1.8495   -1.9059    0.0000 C   0  0  0  0  0  0  0  0  0  0  0  0
    0.3534   -1.7968    0.0000 C   0  0  0  0  0  0  0  0  0  0  0  0
  2  1  1  6
  2  3  1  0
  3  4  1  0
  4  5  1  0
  5  6  2  0
  5  7  1  0
  8  7  1  1
  8  9  1  0
  9 10  1  0
 10 11  1  1
 11 12  1  0
 10 13  1  0
 13 14  1  6
 13 15  1  0
 15 16  1  1
 15 17  1  0
 17 18  1  6
  2 19  1  0
 19 20  1  6
 20 21  1  0
 22 21  1  6
 22 23  1  0
 23 24  1  1
 24 25  1  1
 24 26  1  0
 26 27  1  1
 26 28  1  0
 28 29  1  1
 29 30  1  0
 30 31  1  1
 30 32  1  0
 32 33  1  0
 33 34  1  0
 34 35  1  6
 34 36  1  0
 36 37  1  6
 37 38  1  0
 38 39  1  0
 39 40  1  6
 17  8  1  0
 39 19  1  0
 39 22  1  0
 36 23  1  0
 34 28  1  0
M  END
>  <MS_ID>  (688) 
MS0718

>  <SMILES>  (688) 
C[C@H](CCC(=O)O[C@@H]1O[C@H](CO)[C@@H](O)[C@H](O)[C@H]1O)[C@H]1CC[C@H]2[C@@H]3[C@H](O)[C@H](O)[C@@H]4C[C@H](O)CC[C@]4(C)[C@H]3CC[C@]12C

>  <Structure_dimension>  (688) 
2D

$$$$
MS0719
     RDKit          2D

 35 39  0  0  0  0  0  0  0  0999 V2000
   -2.2319   -4.3352    0.0000 C   0  0  0  0  0  0  0  0  0  0  0  0
   -1.5144   -3.0180    0.0000 C   0  0  0  0  0  0  0  0  0  0  0  0
   -2.2965   -1.7380    0.0000 C   0  0  0  0  0  0  0  0  0  0  0  0
   -3.7960   -1.7752    0.0000 C   0  0  0  0  0  0  0  0  0  0  0  0
   -4.5781   -0.4952    0.0000 C   0  0  0  0  0  0  0  0  0  0  0  0
   -3.8606    0.8220    0.0000 O   0  0  0  0  0  0  0  0  0  0  0  0
   -6.0776   -0.5325    0.0000 O   0  0  0  0  0  0  0  0  0  0  0  0
   -6.8597    0.7475    0.0000 C   0  0  0  0  0  0  0  0  0  0  0  0
   -6.1422    2.0648    0.0000 C   0  0  0  0  0  0  0  0  0  0  0  0
   -6.9242    3.3448    0.0000 C   0  0  0  0  0  0  0  0  0  0  0  0
   -8.4238    3.3075    0.0000 C   0  0  0  0  0  0  0  0  0  0  0  0
   -9.1412    1.9902    0.0000 C   0  0  0  0  0  0  0  0  0  0  0  0
   -8.3592    0.7102    0.0000 C   0  0  0  0  0  0  0  0  0  0  0  0
   -0.0149   -2.9807    0.0000 C   0  0  0  0  0  0  0  0  0  0  0  0
    0.8967   -4.1719    0.0000 C   0  0  0  0  0  0  0  0  0  0  0  0
    2.3113   -3.6731    0.0000 C   0  0  0  0  0  0  0  0  0  0  0  0
    2.2740   -2.1736    0.0000 C   0  0  0  0  0  0  0  0  0  0  0  0
    3.3634   -1.1425    0.0000 C   0  0  0  0  0  0  0  0  0  0  0  0
    4.8011   -1.5704    0.0000 C   0  0  0  0  0  0  0  0  0  0  0  0
    5.1493   -3.0294    0.0000 O   0  0  0  0  0  0  0  0  0  0  0  0
    5.8905   -0.5393    0.0000 C   0  0  0  0  0  0  0  0  0  0  0  0
    5.5423    0.9197    0.0000 C   0  0  0  0  0  0  0  0  0  0  0  0
    6.6317    1.9508    0.0000 C   0  0  0  0  0  0  0  0  0  0  0  0
    6.2835    3.4098    0.0000 C   0  0  0  0  0  0  0  0  0  0  0  0
    7.3729    4.4409    0.0000 O   0  0  0  0  0  0  0  0  0  0  0  0
    4.8458    3.8377    0.0000 C   0  0  0  0  0  0  0  0  0  0  0  0
    3.7564    2.8066    0.0000 C   0  0  0  0  0  0  0  0  0  0  0  0
    4.1046    1.3476    0.0000 C   0  0  0  0  0  0  0  0  0  0  0  0
    2.6670    1.7755    0.0000 C   0  0  0  0  0  0  0  0  0  0  0  0
    3.0152    0.3165    0.0000 C   0  0  0  0  0  0  0  0  0  0  0  0
    1.5776    0.7445    0.0000 C   0  0  0  0  0  0  0  0  0  0  0  0
    0.4881   -0.2866    0.0000 C   0  0  0  0  0  0  0  0  0  0  0  0
   -0.9495    0.1413    0.0000 O   0  0  0  0  0  0  0  0  0  0  0  0
    0.8363   -1.7456    0.0000 C   0  0  0  0  0  0  0  0  0  0  0  0
   -0.6382   -1.4703    0.0000 C   0  0  0  0  0  0  0  0  0  0  0  0
  2  1  1  6
  2  3  1  0
  3  4  1  0
  4  5  1  0
  5  6  2  0
  5  7  1  0
  7  8  1  0
  8  9  2  0
  9 10  1  0
 10 11  2  0
 11 12  1  0
 12 13  2  0
  2 14  1  0
 14 15  1  6
 15 16  1  0
 17 16  1  6
 17 18  1  0
 18 19  1  1
 19 20  1  1
 19 21  1  0
 22 21  1  1
 22 23  1  0
 23 24  1  0
 24 25  1  1
 24 26  1  0
 26 27  1  0
 27 28  1  0
 28 29  1  6
 28 30  1  0
 30 31  1  6
 31 32  1  0
 32 33  1  1
 32 34  1  0
 34 35  1  6
 13  8  1  0
 34 14  1  0
 34 17  1  0
 30 18  1  0
 28 22  1  0
M  END
>  <MS_ID>  (689) 
MS0719

>  <SMILES>  (689) 
C[C@H](CCC(=O)Oc1ccccc1)[C@H]1CC[C@H]2[C@@H]3[C@H](O)C[C@@H]4C[C@H](O)CC[C@]4(C)[C@H]3C[C@H](O)[C@]12C

>  <Structure_dimension>  (689) 
2D

$$$$
MS0720
     RDKit          2D

 34 37  0  0  0  0  0  0  0  0999 V2000
   -2.4018   -4.1785    0.0000 C   0  0  0  0  0  0  0  0  0  0  0  0
   -1.6536   -2.8784    0.0000 C   0  0  0  0  0  0  0  0  0  0  0  0
   -2.4055   -1.5804    0.0000 C   0  0  0  0  0  0  0  0  0  0  0  0
   -3.9055   -1.5826    0.0000 C   0  0  0  0  0  0  0  0  0  0  0  0
   -4.6574   -0.2846    0.0000 C   0  0  0  0  0  0  0  0  0  0  0  0
   -3.9092    1.0155    0.0000 O   0  0  0  0  0  0  0  0  0  0  0  0
   -6.1574   -0.2867    0.0000 C   0  0  0  0  0  0  0  0  0  0  0  0
   -6.9092    1.0112    0.0000 C   0  0  0  0  0  0  0  0  0  0  0  0
   -8.4092    1.0091    0.0000 C   0  0  0  0  0  0  0  0  0  0  0  0
   -9.1611    2.3071    0.0000 C   0  0  0  0  0  0  0  0  0  0  0  0
   -8.4129    3.6072    0.0000 O   0  0  0  0  0  0  0  0  0  0  0  0
  -10.6611    2.3049    0.0000 O   0  0  0  0  0  0  0  0  0  0  0  0
   -0.1536   -2.8762    0.0000 C   0  0  0  0  0  0  0  0  0  0  0  0
    0.7298   -4.0885    0.0000 C   0  0  0  0  0  0  0  0  0  0  0  0
    2.1557   -3.6229    0.0000 C   0  0  0  0  0  0  0  0  0  0  0  0
    2.1535   -2.1229    0.0000 C   0  0  0  0  0  0  0  0  0  0  0  0
    3.2668   -1.1176    0.0000 C   0  0  0  0  0  0  0  0  0  0  0  0
    4.6941   -1.5791    0.0000 C   0  0  0  0  0  0  0  0  0  0  0  0
    5.0080   -3.0459    0.0000 O   0  0  0  0  0  0  0  0  0  0  0  0
    5.8073   -0.5738    0.0000 C   0  0  0  0  0  0  0  0  0  0  0  0
    5.4934    0.8929    0.0000 C   0  0  0  0  0  0  0  0  0  0  0  0
    6.6067    1.8982    0.0000 C   0  0  0  0  0  0  0  0  0  0  0  0
    6.2927    3.3650    0.0000 C   0  0  0  0  0  0  0  0  0  0  0  0
    7.4060    4.3703    0.0000 O   0  0  0  0  0  0  0  0  0  0  0  0
    4.8655    3.8265    0.0000 C   0  0  0  0  0  0  0  0  0  0  0  0
    3.7522    2.8212    0.0000 C   0  0  0  0  0  0  0  0  0  0  0  0
    4.0661    1.3544    0.0000 C   0  0  0  0  0  0  0  0  0  0  0  0
    2.6389    1.8159    0.0000 C   0  0  0  0  0  0  0  0  0  0  0  0
    2.9529    0.3491    0.0000 C   0  0  0  0  0  0  0  0  0  0  0  0
    1.5256    0.8106    0.0000 C   0  0  0  0  0  0  0  0  0  0  0  0
    0.4123   -0.1947    0.0000 C   0  0  0  0  0  0  0  0  0  0  0  0
   -1.0149    0.2668    0.0000 O   0  0  0  0  0  0  0  0  0  0  0  0
    0.7263   -1.6614    0.0000 C   0  0  0  0  0  0  0  0  0  0  0  0
   -0.7414   -1.3517    0.0000 C   0  0  0  0  0  0  0  0  0  0  0  0
  2  1  1  6
  2  3  1  0
  3  4  1  0
  4  5  1  0
  5  6  2  0
  5  7  1  0
  7  8  1  0
  8  9  1  0
  9 10  1  0
 10 11  2  0
 10 12  1  0
  2 13  1  0
 13 14  1  6
 14 15  1  0
 16 15  1  6
 16 17  1  0
 17 18  1  1
 18 19  1  1
 18 20  1  0
 21 20  1  1
 21 22  1  0
 22 23  1  0
 23 24  1  1
 23 25  1  0
 25 26  1  0
 26 27  1  0
 27 28  1  6
 27 29  1  0
 29 30  1  6
 30 31  1  0
 31 32  1  1
 31 33  1  0
 33 34  1  6
 33 13  1  0
 33 16  1  0
 29 17  1  0
 27 21  1  0
M  END
>  <MS_ID>  (690) 
MS0720

>  <SMILES>  (690) 
C[C@H](CCC(=O)CCCC(=O)O)[C@H]1CC[C@H]2[C@@H]3[C@H](O)C[C@@H]4C[C@H](O)CC[C@]4(C)[C@H]3C[C@H](O)[C@]12C

>  <Structure_dimension>  (690) 
2D

$$$$
MS0721
     RDKit          2D

 28 31  0  0  0  0  0  0  0  0999 V2000
   -5.1275   -2.0302    0.0000 C   0  0  0  0  0  0  0  0  0  0  0  0
   -3.9468   -1.1050    0.0000 C   0  0  0  0  0  0  0  0  0  0  0  0
   -4.1576    0.3801    0.0000 C   0  0  0  0  0  0  0  0  0  0  0  0
   -5.5492    0.9401    0.0000 C   0  0  0  0  0  0  0  0  0  0  0  0
   -5.7600    2.4252    0.0000 C   0  0  0  0  0  0  0  0  0  0  0  0
   -4.5793    3.3503    0.0000 O   0  0  0  0  0  0  0  0  0  0  0  0
   -7.1516    2.9851    0.0000 O   0  0  0  0  0  0  0  0  0  0  0  0
   -2.5552   -1.6650    0.0000 C   0  0  0  0  0  0  0  0  0  0  0  0
   -2.1903   -3.1199    0.0000 C   0  0  0  0  0  0  0  0  0  0  0  0
   -0.6938   -3.2225    0.0000 C   0  0  0  0  0  0  0  0  0  0  0  0
   -0.1339   -1.8309    0.0000 C   0  0  0  0  0  0  0  0  0  0  0  0
    1.2750   -1.3159    0.0000 C   0  0  0  0  0  0  0  0  0  0  0  0
    2.4254   -2.2785    0.0000 C   0  0  0  0  0  0  0  0  0  0  0  0
    2.1670   -3.7560    0.0000 O   0  0  0  0  0  0  0  0  0  0  0  0
    3.8342   -1.7635    0.0000 C   0  0  0  0  0  0  0  0  0  0  0  0
    4.0926   -0.2859    0.0000 C   0  0  0  0  0  0  0  0  0  0  0  0
    5.5014    0.2291    0.0000 C   0  0  0  0  0  0  0  0  0  0  0  0
    5.7598    1.7067    0.0000 C   0  0  0  0  0  0  0  0  0  0  0  0
    7.1687    2.2217    0.0000 O   0  0  0  0  0  0  0  0  0  0  0  0
    4.6094    2.6692    0.0000 C   0  0  0  0  0  0  0  0  0  0  0  0
    3.2006    2.1542    0.0000 C   0  0  0  0  0  0  0  0  0  0  0  0
    2.9422    0.6767    0.0000 C   0  0  0  0  0  0  0  0  0  0  0  0
    1.7918    1.6392    0.0000 C   0  0  0  0  0  0  0  0  0  0  0  0
    1.5334    0.1617    0.0000 C   0  0  0  0  0  0  0  0  0  0  0  0
    0.3830    1.1242    0.0000 C   0  0  0  0  0  0  0  0  0  0  0  0
   -1.0259    0.6093    0.0000 C   0  0  0  0  0  0  0  0  0  0  0  0
   -1.2843   -0.8683    0.0000 C   0  0  0  0  0  0  0  0  0  0  0  0
   -2.5290   -0.0313    0.0000 C   0  0  0  0  0  0  0  0  0  0  0  0
  2  1  1  6
  2  3  1  0
  3  4  1  0
  4  5  1  0
  5  6  2  0
  5  7  1  0
  2  8  1  0
  8  9  1  6
  9 10  1  0
 11 10  1  6
 11 12  1  0
 12 13  1  1
 13 14  2  0
 13 15  1  0
 16 15  1  1
 16 17  1  0
 17 18  1  0
 18 19  1  1
 18 20  1  0
 20 21  1  0
 21 22  1  0
 22 23  1  6
 22 24  1  0
 24 25  1  6
 25 26  1  0
 26 27  1  0
 27 28  1  6
 27  8  1  0
 27 11  1  0
 24 12  1  0
 22 16  1  0
M  END
>  <MS_ID>  (691) 
MS0721

>  <SMILES>  (691) 
C[C@H](CCC(=O)O)[C@H]1CC[C@H]2[C@@H]3C(=O)C[C@@H]4C[C@H](O)CC[C@]4(C)[C@H]3CC[C@]12C

>  <Structure_dimension>  (691) 
2D

$$$$
MS0722
     RDKit          2D

 36 40  0  0  0  0  0  0  0  0999 V2000
   -2.3115   -3.8536    0.0000 C   0  0  0  0  0  0  0  0  0  0  0  0
   -1.4551   -2.6221    0.0000 C   0  0  0  0  0  0  0  0  0  0  0  0
   -2.0934   -1.2647    0.0000 C   0  0  0  0  0  0  0  0  0  0  0  0
   -3.5882   -1.1388    0.0000 C   0  0  0  0  0  0  0  0  0  0  0  0
   -4.2265    0.2186    0.0000 C   0  0  0  0  0  0  0  0  0  0  0  0
   -3.3702    1.4501    0.0000 O   0  0  0  0  0  0  0  0  0  0  0  0
   -5.7212    0.3444    0.0000 N   0  0  0  0  0  0  0  0  0  0  0  0
   -6.7016   -0.7908    0.0000 C   0  0  0  0  0  0  0  0  0  0  0  0
   -8.0843   -0.2092    0.0000 C   0  0  0  0  0  0  0  0  0  0  0  0
   -9.3675   -0.9860    0.0000 O   0  0  0  0  0  0  0  0  0  0  0  0
   -7.9584    1.2855    0.0000 C   0  0  0  0  0  0  0  0  0  0  0  0
   -6.4980    1.6276    0.0000 C   0  0  0  0  0  0  0  0  0  0  0  0
   -5.9164    3.0103    0.0000 C   0  0  0  0  0  0  0  0  0  0  0  0
   -4.4281    3.1980    0.0000 O   0  0  0  0  0  0  0  0  0  0  0  0
   -6.8230    4.2053    0.0000 O   0  0  0  0  0  0  0  0  0  0  0  0
    0.0396   -2.7480    0.0000 C   0  0  0  0  0  0  0  0  0  0  0  0
    0.8164   -4.0312    0.0000 C   0  0  0  0  0  0  0  0  0  0  0  0
    2.2768   -3.6890    0.0000 C   0  0  0  0  0  0  0  0  0  0  0  0
    2.4027   -2.1943    0.0000 C   0  0  0  0  0  0  0  0  0  0  0  0
    3.5977   -1.2877    0.0000 C   0  0  0  0  0  0  0  0  0  0  0  0
    4.9803   -1.8693    0.0000 C   0  0  0  0  0  0  0  0  0  0  0  0
    5.1680   -3.3575    0.0000 O   0  0  0  0  0  0  0  0  0  0  0  0
    6.1753   -0.9627    0.0000 C   0  0  0  0  0  0  0  0  0  0  0  0
    5.9877    0.5256    0.0000 C   0  0  0  0  0  0  0  0  0  0  0  0
    7.1827    1.4322    0.0000 C   0  0  0  0  0  0  0  0  0  0  0  0
    6.9950    2.9204    0.0000 C   0  0  0  0  0  0  0  0  0  0  0  0
    8.1901    3.8270    0.0000 O   0  0  0  0  0  0  0  0  0  0  0  0
    5.6124    3.5020    0.0000 C   0  0  0  0  0  0  0  0  0  0  0  0
    4.4174    2.5954    0.0000 C   0  0  0  0  0  0  0  0  0  0  0  0
    4.6050    1.1072    0.0000 C   0  0  0  0  0  0  0  0  0  0  0  0
    3.2224    1.6888    0.0000 C   0  0  0  0  0  0  0  0  0  0  0  0
    3.4100    0.2005    0.0000 C   0  0  0  0  0  0  0  0  0  0  0  0
    2.0274    0.7821    0.0000 C   0  0  0  0  0  0  0  0  0  0  0  0
    0.8324   -0.1245    0.0000 C   0  0  0  0  0  0  0  0  0  0  0  0
    1.0200   -1.6127    0.0000 C   0  0  0  0  0  0  0  0  0  0  0  0
   -0.4159   -1.1788    0.0000 C   0  0  0  0  0  0  0  0  0  0  0  0
  2  1  1  6
  2  3  1  0
  3  4  1  0
  4  5  1  0
  5  6  2  0
  5  7  1  0
  7  8  1  0
  8  9  1  0
  9 10  1  6
  9 11  1  0
 11 12  1  0
 12 13  1  1
 13 14  2  0
 13 15  1  0
  2 16  1  0
 16 17  1  6
 17 18  1  0
 19 18  1  6
 19 20  1  0
 20 21  1  1
 21 22  1  1
 21 23  1  0
 24 23  1  1
 24 25  1  0
 25 26  1  0
 26 27  1  1
 26 28  1  0
 28 29  1  0
 29 30  1  0
 30 31  1  6
 30 32  1  0
 32 33  1  6
 33 34  1  0
 34 35  1  0
 35 36  1  6
 12  7  1  0
 35 16  1  0
 35 19  1  0
 32 20  1  0
 30 24  1  0
M  END
>  <MS_ID>  (692) 
MS0722

>  <SMILES>  (692) 
C[C@H](CCC(=O)N1C[C@H](O)C[C@H]1C(=O)O)[C@H]1CC[C@H]2[C@@H]3[C@H](O)C[C@@H]4C[C@H](O)CC[C@]4(C)[C@H]3CC[C@]12C

>  <Structure_dimension>  (692) 
2D

$$$$
MS0723
     RDKit          2D

 34 38  0  0  0  0  0  0  0  0999 V2000
   -3.1078   -3.3705    0.0000 C   0  0  0  0  0  0  0  0  0  0  0  0
   -2.1565   -2.2107    0.0000 C   0  0  0  0  0  0  0  0  0  0  0  0
   -2.6851   -0.8070    0.0000 C   0  0  0  0  0  0  0  0  0  0  0  0
   -4.1651   -0.5630    0.0000 C   0  0  0  0  0  0  0  0  0  0  0  0
   -4.6938    0.8408    0.0000 C   0  0  0  0  0  0  0  0  0  0  0  0
   -3.7424    2.0005    0.0000 O   0  0  0  0  0  0  0  0  0  0  0  0
   -6.1738    1.0848    0.0000 C   0  0  0  0  0  0  0  0  0  0  0  0
   -6.7025    2.4886    0.0000 C   0  0  0  0  0  0  0  0  0  0  0  0
   -8.1825    2.7326    0.0000 C   0  0  0  0  0  0  0  0  0  0  0  0
   -9.1338    1.5729    0.0000 C   0  0  0  0  0  0  0  0  0  0  0  0
   -8.6052    0.1692    0.0000 C   0  0  0  0  0  0  0  0  0  0  0  0
   -7.1252   -0.0749    0.0000 C   0  0  0  0  0  0  0  0  0  0  0  0
   -0.6765   -2.4548    0.0000 C   0  0  0  0  0  0  0  0  0  0  0  0
   -0.0040   -3.7956    0.0000 C   0  0  0  0  0  0  0  0  0  0  0  0
    1.4790   -3.5703    0.0000 C   0  0  0  0  0  0  0  0  0  0  0  0
    1.7231   -2.0903    0.0000 C   0  0  0  0  0  0  0  0  0  0  0  0
    2.9862   -1.2814    0.0000 C   0  0  0  0  0  0  0  0  0  0  0  0
    4.3184   -1.9708    0.0000 C   0  0  0  0  0  0  0  0  0  0  0  0
    4.3874   -3.4692    0.0000 O   0  0  0  0  0  0  0  0  0  0  0  0
    5.5816   -1.1619    0.0000 C   0  0  0  0  0  0  0  0  0  0  0  0
    5.5126    0.3366    0.0000 C   0  0  0  0  0  0  0  0  0  0  0  0
    6.7757    1.1455    0.0000 C   0  0  0  0  0  0  0  0  0  0  0  0
    6.7067    2.6439    0.0000 C   0  0  0  0  0  0  0  0  0  0  0  0
    7.9699    3.4529    0.0000 O   0  0  0  0  0  0  0  0  0  0  0  0
    5.3746    3.3334    0.0000 C   0  0  0  0  0  0  0  0  0  0  0  0
    4.1114    2.5244    0.0000 C   0  0  0  0  0  0  0  0  0  0  0  0
    4.1804    1.0260    0.0000 C   0  0  0  0  0  0  0  0  0  0  0  0
    2.8482    1.7155    0.0000 C   0  0  0  0  0  0  0  0  0  0  0  0
    2.9172    0.2170    0.0000 C   0  0  0  0  0  0  0  0  0  0  0  0
    1.5851    0.9065    0.0000 C   0  0  0  0  0  0  0  0  0  0  0  0
    0.3219    0.0975    0.0000 C   0  0  0  0  0  0  0  0  0  0  0  0
   -1.0102    0.7870    0.0000 O   0  0  0  0  0  0  0  0  0  0  0  0
    0.3909   -1.4009    0.0000 C   0  0  0  0  0  0  0  0  0  0  0  0
   -1.0060   -0.8545    0.0000 C   0  0  0  0  0  0  0  0  0  0  0  0
  2  1  1  6
  2  3  1  0
  3  4  1  0
  4  5  1  0
  5  6  2  0
  5  7  1  0
  7  8  2  0
  8  9  1  0
  9 10  2  0
 10 11  1  0
 11 12  2  0
  2 13  1  0
 13 14  1  6
 14 15  1  0
 16 15  1  6
 16 17  1  0
 17 18  1  1
 18 19  1  1
 18 20  1  0
 21 20  1  1
 21 22  1  0
 22 23  1  0
 23 24  1  1
 23 25  1  0
 25 26  1  0
 26 27  1  0
 27 28  1  6
 27 29  1  0
 29 30  1  6
 30 31  1  0
 31 32  1  1
 31 33  1  0
 33 34  1  6
 12  7  1  0
 33 13  1  0
 33 16  1  0
 29 17  1  0
 27 21  1  0
M  END
>  <MS_ID>  (693) 
MS0723

>  <SMILES>  (693) 
C[C@H](CCC(=O)c1ccccc1)[C@H]1CC[C@H]2[C@@H]3[C@H](O)C[C@@H]4C[C@H](O)CC[C@]4(C)[C@H]3C[C@H](O)[C@]12C

>  <Structure_dimension>  (693) 
2D

$$$$
MS0724
     RDKit          2D

 37 41  0  0  0  0  0  0  0  0999 V2000
   -2.7357   -3.0872    0.0000 C   0  0  0  0  0  0  0  0  0  0  0  0
   -1.7308   -1.9736    0.0000 C   0  0  0  0  0  0  0  0  0  0  0  0
   -2.1927   -0.5465    0.0000 C   0  0  0  0  0  0  0  0  0  0  0  0
   -3.6596   -0.2330    0.0000 C   0  0  0  0  0  0  0  0  0  0  0  0
   -4.1216    1.1941    0.0000 C   0  0  0  0  0  0  0  0  0  0  0  0
   -3.1166    2.3077    0.0000 O   0  0  0  0  0  0  0  0  0  0  0  0
   -5.5884    1.5076    0.0000 C   0  0  0  0  0  0  0  0  0  0  0  0
   -6.0504    2.9347    0.0000 C   0  0  0  0  0  0  0  0  0  0  0  0
   -7.5173    3.2482    0.0000 C   0  0  0  0  0  0  0  0  0  0  0  0
   -8.5222    2.1346    0.0000 C   0  0  0  0  0  0  0  0  0  0  0  0
   -8.0602    0.7075    0.0000 C   0  0  0  0  0  0  0  0  0  0  0  0
   -6.5934    0.3940    0.0000 C   0  0  0  0  0  0  0  0  0  0  0  0
   -6.1314   -1.0331    0.0000 C   0  0  0  0  0  0  0  0  0  0  0  0
   -4.6645   -1.3466    0.0000 O   0  0  0  0  0  0  0  0  0  0  0  0
   -7.1363   -2.1467    0.0000 O   0  0  0  0  0  0  0  0  0  0  0  0
   -0.2639   -2.2871    0.0000 C   0  0  0  0  0  0  0  0  0  0  0  0
    0.3447   -3.6581    0.0000 C   0  0  0  0  0  0  0  0  0  0  0  0
    1.8366   -3.5029    0.0000 C   0  0  0  0  0  0  0  0  0  0  0  0
    2.1501   -2.0360    0.0000 C   0  0  0  0  0  0  0  0  0  0  0  0
    3.4500   -1.2875    0.0000 C   0  0  0  0  0  0  0  0  0  0  0  0
    4.7482   -2.0389    0.0000 C   0  0  0  0  0  0  0  0  0  0  0  0
    4.7465   -3.5389    0.0000 O   0  0  0  0  0  0  0  0  0  0  0  0
    6.0481   -1.2903    0.0000 C   0  0  0  0  0  0  0  0  0  0  0  0
    6.0497    0.2097    0.0000 C   0  0  0  0  0  0  0  0  0  0  0  0
    7.3496    0.9582    0.0000 C   0  0  0  0  0  0  0  0  0  0  0  0
    7.3512    2.4582    0.0000 C   0  0  0  0  0  0  0  0  0  0  0  0
    8.6511    3.2068    0.0000 O   0  0  0  0  0  0  0  0  0  0  0  0
    6.0530    3.2097    0.0000 C   0  0  0  0  0  0  0  0  0  0  0  0
    4.7532    2.4611    0.0000 C   0  0  0  0  0  0  0  0  0  0  0  0
    4.7515    0.9611    0.0000 C   0  0  0  0  0  0  0  0  0  0  0  0
    3.4533    1.7125    0.0000 C   0  0  0  0  0  0  0  0  0  0  0  0
    3.4516    0.2125    0.0000 C   0  0  0  0  0  0  0  0  0  0  0  0
    2.1534    0.9640    0.0000 C   0  0  0  0  0  0  0  0  0  0  0  0
    0.8536    0.2154    0.0000 C   0  0  0  0  0  0  0  0  0  0  0  0
   -0.4446    0.9668    0.0000 O   0  0  0  0  0  0  0  0  0  0  0  0
    0.8519   -1.2846    0.0000 C   0  0  0  0  0  0  0  0  0  0  0  0
   -0.5177   -0.6730    0.0000 C   0  0  0  0  0  0  0  0  0  0  0  0
  2  1  1  6
  2  3  1  0
  3  4  1  0
  4  5  1  0
  5  6  2  0
  5  7  1  0
  7  8  2  0
  8  9  1  0
  9 10  2  0
 10 11  1  0
 11 12  2  0
 12 13  1  0
 13 14  2  0
 13 15  1  0
  2 16  1  0
 16 17  1  6
 17 18  1  0
 19 18  1  6
 19 20  1  0
 20 21  1  1
 21 22  1  1
 21 23  1  0
 24 23  1  1
 24 25  1  0
 25 26  1  0
 26 27  1  1
 26 28  1  0
 28 29  1  0
 29 30  1  0
 30 31  1  6
 30 32  1  0
 32 33  1  6
 33 34  1  0
 34 35  1  1
 34 36  1  0
 36 37  1  6
 12  7  1  0
 36 16  1  0
 36 19  1  0
 32 20  1  0
 30 24  1  0
M  END
>  <MS_ID>  (694) 
MS0724

>  <SMILES>  (694) 
C[C@H](CCC(=O)c1ccccc1C(=O)O)[C@H]1CC[C@H]2[C@@H]3[C@H](O)C[C@@H]4C[C@H](O)CC[C@]4(C)[C@H]3C[C@H](O)[C@]12C

>  <Structure_dimension>  (694) 
2D

$$$$
MS0725
     RDKit          2D

 30 33  0  0  0  0  0  0  0  0999 V2000
   -7.4279    3.5601    0.0000 C   0  0  0  0  0  0  0  0  0  0  0  0
   -7.0729    2.1027    0.0000 C   0  0  0  0  0  0  0  0  0  0  0  0
   -5.6333    1.6814    0.0000 C   0  0  0  0  0  0  0  0  0  0  0  0
   -4.5486    2.7174    0.0000 O   0  0  0  0  0  0  0  0  0  0  0  0
   -5.2784    0.2240    0.0000 C   0  0  0  0  0  0  0  0  0  0  0  0
   -3.8388   -0.1974    0.0000 C   0  0  0  0  0  0  0  0  0  0  0  0
   -3.4838   -1.6548    0.0000 C   0  0  0  0  0  0  0  0  0  0  0  0
   -4.5685   -2.6908    0.0000 C   0  0  0  0  0  0  0  0  0  0  0  0
   -2.0442   -2.0761    0.0000 C   0  0  0  0  0  0  0  0  0  0  0  0
   -1.5389   -3.4884    0.0000 C   0  0  0  0  0  0  0  0  0  0  0  0
   -0.0395   -3.4442    0.0000 C   0  0  0  0  0  0  0  0  0  0  0  0
    0.3818   -2.0046    0.0000 C   0  0  0  0  0  0  0  0  0  0  0  0
    1.7336   -1.3544    0.0000 C   0  0  0  0  0  0  0  0  0  0  0  0
    2.9725   -2.1999    0.0000 C   0  0  0  0  0  0  0  0  0  0  0  0
    2.8597   -3.6957    0.0000 O   0  0  0  0  0  0  0  0  0  0  0  0
    4.3243   -1.5497    0.0000 C   0  0  0  0  0  0  0  0  0  0  0  0
    4.4371   -0.0540    0.0000 C   0  0  0  0  0  0  0  0  0  0  0  0
    5.7888    0.5962    0.0000 C   0  0  0  0  0  0  0  0  0  0  0  0
    5.9016    2.0920    0.0000 C   0  0  0  0  0  0  0  0  0  0  0  0
    7.2534    2.7422    0.0000 O   0  0  0  0  0  0  0  0  0  0  0  0
    4.6627    2.9375    0.0000 C   0  0  0  0  0  0  0  0  0  0  0  0
    3.3109    2.2873    0.0000 C   0  0  0  0  0  0  0  0  0  0  0  0
    3.1981    0.7916    0.0000 C   0  0  0  0  0  0  0  0  0  0  0  0
    1.9591    1.6371    0.0000 C   0  0  0  0  0  0  0  0  0  0  0  0
    1.8464    0.1414    0.0000 C   0  0  0  0  0  0  0  0  0  0  0  0
    0.6074    0.9869    0.0000 C   0  0  0  0  0  0  0  0  0  0  0  0
   -0.7444    0.3367    0.0000 C   0  0  0  0  0  0  0  0  0  0  0  0
   -1.9833    1.1823    0.0000 O   0  0  0  0  0  0  0  0  0  0  0  0
   -0.8572   -1.1590    0.0000 C   0  0  0  0  0  0  0  0  0  0  0  0
   -2.1777   -0.4476    0.0000 C   0  0  0  0  0  0  0  0  0  0  0  0
  1  2  1  0
  2  3  1  0
  3  4  2  0
  3  5  1  0
  5  6  1  0
  6  7  1  0
  7  8  1  6
  7  9  1  0
  9 10  1  6
 10 11  1  0
 12 11  1  6
 12 13  1  0
 13 14  1  1
 14 15  1  1
 14 16  1  0
 17 16  1  1
 17 18  1  0
 18 19  1  0
 19 20  1  1
 19 21  1  0
 21 22  1  0
 22 23  1  0
 23 24  1  6
 23 25  1  0
 25 26  1  6
 26 27  1  0
 27 28  1  1
 27 29  1  0
 29 30  1  6
 29  9  1  0
 29 12  1  0
 25 13  1  0
 23 17  1  0
M  END
>  <MS_ID>  (695) 
MS0725

>  <SMILES>  (695) 
CCC(=O)CC[C@@H](C)[C@H]1CC[C@H]2[C@@H]3[C@H](O)C[C@@H]4C[C@H](O)CC[C@]4(C)[C@H]3C[C@H](O)[C@]12C

>  <Structure_dimension>  (695) 
2D

$$$$
MS0726
     RDKit          2D

 33 36  0  0  0  0  0  0  0  0999 V2000
  -11.4048    3.4431    0.0000 C   0  0  0  0  0  0  0  0  0  0  0  0
  -10.6339    2.1564    0.0000 C   0  0  0  0  0  0  0  0  0  0  0  0
   -9.1341    2.1807    0.0000 C   0  0  0  0  0  0  0  0  0  0  0  0
   -8.3632    0.8939    0.0000 C   0  0  0  0  0  0  0  0  0  0  0  0
   -6.8634    0.9182    0.0000 C   0  0  0  0  0  0  0  0  0  0  0  0
   -6.0924   -0.3685    0.0000 O   0  0  0  0  0  0  0  0  0  0  0  0
   -4.5926   -0.3442    0.0000 C   0  0  0  0  0  0  0  0  0  0  0  0
   -3.8638    0.9668    0.0000 O   0  0  0  0  0  0  0  0  0  0  0  0
   -3.8217   -1.6309    0.0000 C   0  0  0  0  0  0  0  0  0  0  0  0
   -2.3219   -1.6066    0.0000 C   0  0  0  0  0  0  0  0  0  0  0  0
   -1.5509   -2.8934    0.0000 C   0  0  0  0  0  0  0  0  0  0  0  0
   -2.2798   -4.2044    0.0000 C   0  0  0  0  0  0  0  0  0  0  0  0
   -0.0511   -2.8691    0.0000 C   0  0  0  0  0  0  0  0  0  0  0  0
    0.8501   -4.0682    0.0000 C   0  0  0  0  0  0  0  0  0  0  0  0
    2.2690   -3.5816    0.0000 C   0  0  0  0  0  0  0  0  0  0  0  0
    2.2447   -2.0818    0.0000 C   0  0  0  0  0  0  0  0  0  0  0  0
    3.3430   -1.0602    0.0000 C   0  0  0  0  0  0  0  0  0  0  0  0
    4.7769   -1.5006    0.0000 C   0  0  0  0  0  0  0  0  0  0  0  0
    5.1125   -2.9625    0.0000 O   0  0  0  0  0  0  0  0  0  0  0  0
    5.8752   -0.4789    0.0000 C   0  0  0  0  0  0  0  0  0  0  0  0
    5.5396    0.9830    0.0000 C   0  0  0  0  0  0  0  0  0  0  0  0
    6.6380    2.0047    0.0000 C   0  0  0  0  0  0  0  0  0  0  0  0
    6.3024    3.4666    0.0000 C   0  0  0  0  0  0  0  0  0  0  0  0
    7.4007    4.4882    0.0000 O   0  0  0  0  0  0  0  0  0  0  0  0
    4.8685    3.9070    0.0000 C   0  0  0  0  0  0  0  0  0  0  0  0
    3.7701    2.8854    0.0000 C   0  0  0  0  0  0  0  0  0  0  0  0
    4.1057    1.4234    0.0000 C   0  0  0  0  0  0  0  0  0  0  0  0
    2.6718    1.8638    0.0000 C   0  0  0  0  0  0  0  0  0  0  0  0
    3.0074    0.4018    0.0000 C   0  0  0  0  0  0  0  0  0  0  0  0
    1.5735    0.8422    0.0000 C   0  0  0  0  0  0  0  0  0  0  0  0
    0.4752   -0.1795    0.0000 C   0  0  0  0  0  0  0  0  0  0  0  0
    0.8108   -1.6414    0.0000 C   0  0  0  0  0  0  0  0  0  0  0  0
   -0.6613   -1.3534    0.0000 C   0  0  0  0  0  0  0  0  0  0  0  0
  1  2  1  0
  2  3  1  0
  3  4  1  0
  4  5  1  0
  5  6  1  0
  6  7  1  0
  7  8  2  0
  7  9  1  0
  9 10  1  0
 10 11  1  0
 11 12  1  6
 11 13  1  0
 13 14  1  6
 14 15  1  0
 16 15  1  6
 16 17  1  0
 17 18  1  1
 18 19  1  6
 18 20  1  0
 21 20  1  1
 21 22  1  0
 22 23  1  0
 23 24  1  1
 23 25  1  0
 25 26  1  0
 26 27  1  0
 27 28  1  6
 27 29  1  0
 29 30  1  6
 30 31  1  0
 31 32  1  0
 32 33  1  6
 32 13  1  0
 32 16  1  0
 29 17  1  0
 27 21  1  0
M  END
>  <MS_ID>  (696) 
MS0726

>  <SMILES>  (696) 
CCCCCOC(=O)CC[C@@H](C)[C@H]1CC[C@H]2[C@@H]3[C@@H](O)C[C@@H]4C[C@H](O)CC[C@]4(C)[C@H]3CC[C@]12C

>  <Structure_dimension>  (696) 
2D

$$$$
MS0727
     RDKit          2D

 28 31  0  0  0  0  0  0  0  0999 V2000
   -5.2870   -1.7591    0.0000 C   0  0  0  0  0  0  0  0  0  0  0  0
   -4.0706   -0.8813    0.0000 C   0  0  0  0  0  0  0  0  0  0  0  0
   -4.2226    0.6109    0.0000 C   0  0  0  0  0  0  0  0  0  0  0  0
   -5.5910    1.2255    0.0000 C   0  0  0  0  0  0  0  0  0  0  0  0
   -5.7429    2.7177    0.0000 C   0  0  0  0  0  0  0  0  0  0  0  0
   -7.1113    3.3322    0.0000 O   0  0  0  0  0  0  0  0  0  0  0  0
   -2.7023   -1.4959    0.0000 C   0  0  0  0  0  0  0  0  0  0  0  0
   -2.3951   -2.9641    0.0000 C   0  0  0  0  0  0  0  0  0  0  0  0
   -0.9039   -3.1257    0.0000 C   0  0  0  0  0  0  0  0  0  0  0  0
   -0.2893   -1.7573    0.0000 C   0  0  0  0  0  0  0  0  0  0  0  0
    1.1387   -1.2984    0.0000 C   0  0  0  0  0  0  0  0  0  0  0  0
    2.2502   -2.3057    0.0000 C   0  0  0  0  0  0  0  0  0  0  0  0
    1.9336   -3.7719    0.0000 O   0  0  0  0  0  0  0  0  0  0  0  0
    3.6783   -1.8467    0.0000 C   0  0  0  0  0  0  0  0  0  0  0  0
    3.9949   -0.3805    0.0000 C   0  0  0  0  0  0  0  0  0  0  0  0
    5.4229    0.0784    0.0000 C   0  0  0  0  0  0  0  0  0  0  0  0
    5.7395    1.5446    0.0000 C   0  0  0  0  0  0  0  0  0  0  0  0
    7.1676    2.0035    0.0000 O   0  0  0  0  0  0  0  0  0  0  0  0
    4.6280    2.5519    0.0000 C   0  0  0  0  0  0  0  0  0  0  0  0
    3.2000    2.0930    0.0000 C   0  0  0  0  0  0  0  0  0  0  0  0
    2.8834    0.6267    0.0000 C   0  0  0  0  0  0  0  0  0  0  0  0
    1.7719    1.6340    0.0000 C   0  0  0  0  0  0  0  0  0  0  0  0
    1.4553    0.1678    0.0000 C   0  0  0  0  0  0  0  0  0  0  0  0
    0.3438    1.1751    0.0000 C   0  0  0  0  0  0  0  0  0  0  0  0
   -1.0842    0.7162    0.0000 C   0  0  0  0  0  0  0  0  0  0  0  0
   -2.1957    1.7234    0.0000 O   0  0  0  0  0  0  0  0  0  0  0  0
   -1.4008   -0.7500    0.0000 C   0  0  0  0  0  0  0  0  0  0  0  0
   -2.6115    0.1355    0.0000 C   0  0  0  0  0  0  0  0  0  0  0  0
  2  1  1  6
  2  3  1  0
  3  4  1  0
  4  5  1  0
  5  6  2  0
  2  7  1  0
  7  8  1  6
  8  9  1  0
 10  9  1  6
 10 11  1  0
 11 12  1  1
 12 13  1  6
 12 14  1  0
 15 14  1  1
 15 16  1  0
 16 17  1  0
 17 18  1  1
 17 19  1  0
 19 20  1  0
 20 21  1  0
 21 22  1  6
 21 23  1  0
 23 24  1  6
 24 25  1  0
 25 26  1  6
 25 27  1  0
 27 28  1  6
 27  7  1  0
 27 10  1  0
 23 11  1  0
 21 15  1  0
M  END
>  <MS_ID>  (697) 
MS0727

>  <SMILES>  (697) 
C[C@H](CCC=O)[C@H]1CC[C@H]2[C@@H]3[C@@H](O)C[C@@H]4C[C@H](O)CC[C@]4(C)[C@H]3C[C@@H](O)[C@]12C

>  <Structure_dimension>  (697) 
2D

$$$$
MS0728
     RDKit          2D

 30 33  0  0  0  0  0  0  0  0999 V2000
   -4.9282   -2.3226    0.0000 C   0  0  0  0  0  0  0  0  0  0  0  0
   -3.7737   -1.3649    0.0000 C   0  0  0  0  0  0  0  0  0  0  0  0
   -4.0259    0.1138    0.0000 C   0  0  0  0  0  0  0  0  0  0  0  0
   -5.4325    0.6347    0.0000 C   0  0  0  0  0  0  0  0  0  0  0  0
   -5.6847    2.1133    0.0000 C   0  0  0  0  0  0  0  0  0  0  0  0
   -4.5303    3.0711    0.0000 O   0  0  0  0  0  0  0  0  0  0  0  0
   -7.0914    2.6342    0.0000 O   0  0  0  0  0  0  0  0  0  0  0  0
   -2.3671   -1.8858    0.0000 C   0  0  0  0  0  0  0  0  0  0  0  0
   -1.9617   -3.3300    0.0000 C   0  0  0  0  0  0  0  0  0  0  0  0
   -0.4629   -3.3907    0.0000 C   0  0  0  0  0  0  0  0  0  0  0  0
    0.0580   -1.9841    0.0000 C   0  0  0  0  0  0  0  0  0  0  0  0
    1.4519   -1.4300    0.0000 C   0  0  0  0  0  0  0  0  0  0  0  0
    2.6287   -2.3601    0.0000 C   0  0  0  0  0  0  0  0  0  0  0  0
    2.4116   -3.8443    0.0000 O   0  0  0  0  0  0  0  0  0  0  0  0
    4.0226   -1.8060    0.0000 C   0  0  0  0  0  0  0  0  0  0  0  0
    4.2397   -0.3218    0.0000 C   0  0  0  0  0  0  0  0  0  0  0  0
    5.6336    0.2323    0.0000 C   0  0  0  0  0  0  0  0  0  0  0  0
    5.8507    1.7166    0.0000 C   0  0  0  0  0  0  0  0  0  0  0  0
    7.2446    2.2707    0.0000 O   0  0  0  0  0  0  0  0  0  0  0  0
    4.6739    2.6467    0.0000 C   0  0  0  0  0  0  0  0  0  0  0  0
    3.2800    2.0925    0.0000 C   0  0  0  0  0  0  0  0  0  0  0  0
    3.0629    0.6083    0.0000 C   0  0  0  0  0  0  0  0  0  0  0  0
    1.8861    1.5384    0.0000 C   0  0  0  0  0  0  0  0  0  0  0  0
    1.6690    0.0542    0.0000 C   0  0  0  0  0  0  0  0  0  0  0  0
    0.4922    0.9843    0.0000 C   0  0  0  0  0  0  0  0  0  0  0  0
   -0.9017    0.4302    0.0000 C   0  0  0  0  0  0  0  0  0  0  0  0
   -2.0786    1.3603    0.0000 O   0  0  0  0  0  0  0  0  0  0  0  0
   -1.8615    2.8445    0.0000 O   0  0  0  0  0  0  0  0  0  0  0  0
   -1.1188   -1.0540    0.0000 C   0  0  0  0  0  0  0  0  0  0  0  0
   -2.3864   -0.2520    0.0000 C   0  0  0  0  0  0  0  0  0  0  0  0
  2  1  1  6
  2  3  1  0
  3  4  1  0
  4  5  1  0
  5  6  2  0
  5  7  1  0
  2  8  1  0
  8  9  1  6
  9 10  1  0
 11 10  1  6
 11 12  1  0
 12 13  1  1
 13 14  1  1
 13 15  1  0
 16 15  1  1
 16 17  1  0
 17 18  1  0
 18 19  1  1
 18 20  1  0
 20 21  1  0
 21 22  1  0
 22 23  1  6
 22 24  1  0
 24 25  1  6
 25 26  1  0
 26 27  1  1
 27 28  1  0
 26 29  1  0
 29 30  1  6
 29  8  1  0
 29 11  1  0
 24 12  1  0
 22 16  1  0
M  END
>  <MS_ID>  (698) 
MS0728

>  <SMILES>  (698) 
C[C@H](CCC(=O)O)[C@H]1CC[C@H]2[C@@H]3[C@H](O)C[C@@H]4C[C@H](O)CC[C@]4(C)[C@H]3C[C@H](OO)[C@]12C

>  <Structure_dimension>  (698) 
2D

$$$$
MS0729
     RDKit          2D

 38 42  0  0  0  0  0  0  0  0999 V2000
   -1.8008   -4.1873    0.0000 C   0  0  0  0  0  0  0  0  0  0  0  0
   -1.0564   -2.8851    0.0000 C   0  0  0  0  0  0  0  0  0  0  0  0
   -1.8119   -1.5893    0.0000 C   0  0  0  0  0  0  0  0  0  0  0  0
   -3.3119   -1.5957    0.0000 C   0  0  0  0  0  0  0  0  0  0  0  0
   -4.0675   -0.2999    0.0000 C   0  0  0  0  0  0  0  0  0  0  0  0
   -3.3230    1.0024    0.0000 O   0  0  0  0  0  0  0  0  0  0  0  0
   -5.5675   -0.3063    0.0000 N   0  0  0  0  0  0  0  0  0  0  0  0
   -6.3230    0.9895    0.0000 C   0  0  0  0  0  0  0  0  0  0  0  0
   -5.5786    2.2918    0.0000 C   0  0  0  0  0  0  0  0  0  0  0  0
   -6.3341    3.5876    0.0000 C   0  0  0  0  0  0  0  0  0  0  0  0
   -7.8341    3.5811    0.0000 C   0  0  0  0  0  0  0  0  0  0  0  0
   -8.5786    2.2789    0.0000 C   0  0  0  0  0  0  0  0  0  0  0  0
   -7.8230    0.9831    0.0000 C   0  0  0  0  0  0  0  0  0  0  0  0
   -8.5674   -0.3191    0.0000 C   0  0  0  0  0  0  0  0  0  0  0  0
   -7.8119   -1.6150    0.0000 O   0  0  0  0  0  0  0  0  0  0  0  0
  -10.0674   -0.3256    0.0000 O   0  0  0  0  0  0  0  0  0  0  0  0
    0.4436   -2.8787    0.0000 C   0  0  0  0  0  0  0  0  0  0  0  0
    1.3305   -4.0884    0.0000 C   0  0  0  0  0  0  0  0  0  0  0  0
    2.7551   -3.6188    0.0000 C   0  0  0  0  0  0  0  0  0  0  0  0
    2.7486   -2.1188    0.0000 C   0  0  0  0  0  0  0  0  0  0  0  0
    3.8590   -1.1103    0.0000 C   0  0  0  0  0  0  0  0  0  0  0  0
    5.2876   -1.5678    0.0000 C   0  0  0  0  0  0  0  0  0  0  0  0
    5.6057   -3.0336    0.0000 O   0  0  0  0  0  0  0  0  0  0  0  0
    6.3980   -0.5593    0.0000 C   0  0  0  0  0  0  0  0  0  0  0  0
    7.8266   -1.0167    0.0000 O   0  0  0  0  0  0  0  0  0  0  0  0
    6.0799    0.9066    0.0000 C   0  0  0  0  0  0  0  0  0  0  0  0
    7.1903    1.9150    0.0000 C   0  0  0  0  0  0  0  0  0  0  0  0
    6.8721    3.3809    0.0000 C   0  0  0  0  0  0  0  0  0  0  0  0
    7.9825    4.3894    0.0000 O   0  0  0  0  0  0  0  0  0  0  0  0
    5.4436    3.8383    0.0000 C   0  0  0  0  0  0  0  0  0  0  0  0
    4.3332    2.8299    0.0000 C   0  0  0  0  0  0  0  0  0  0  0  0
    4.6513    1.3640    0.0000 C   0  0  0  0  0  0  0  0  0  0  0  0
    3.2228    1.8214    0.0000 C   0  0  0  0  0  0  0  0  0  0  0  0
    3.5409    0.3555    0.0000 C   0  0  0  0  0  0  0  0  0  0  0  0
    2.1123    0.8129    0.0000 C   0  0  0  0  0  0  0  0  0  0  0  0
    1.0019   -0.1955    0.0000 C   0  0  0  0  0  0  0  0  0  0  0  0
    1.3201   -1.6614    0.0000 C   0  0  0  0  0  0  0  0  0  0  0  0
   -0.1485   -1.3558    0.0000 C   0  0  0  0  0  0  0  0  0  0  0  0
  2  1  1  6
  2  3  1  0
  3  4  1  0
  4  5  1  0
  5  6  2  0
  5  7  1  0
  7  8  1  0
  8  9  2  0
  9 10  1  0
 10 11  2  0
 11 12  1  0
 12 13  2  0
 13 14  1  0
 14 15  2  0
 14 16  1  0
  2 17  1  0
 17 18  1  6
 18 19  1  0
 20 19  1  6
 20 21  1  0
 21 22  1  1
 22 23  1  1
 22 24  1  0
 24 25  1  1
 24 26  1  0
 26 27  1  1
 27 28  1  0
 28 29  1  1
 28 30  1  0
 30 31  1  0
 31 32  1  0
 32 33  1  6
 32 34  1  0
 34 35  1  6
 35 36  1  0
 36 37  1  0
 37 38  1  6
 13  8  1  0
 37 17  1  0
 37 20  1  0
 34 21  1  0
 32 26  1  0
M  END
>  <MS_ID>  (699) 
MS0729

>  <SMILES>  (699) 
C[C@H](CCC(=O)Nc1ccccc1C(=O)O)[C@H]1CC[C@H]2[C@@H]3[C@H](O)[C@H](O)[C@@H]4C[C@H](O)CC[C@]4(C)[C@H]3CC[C@]12C

>  <Structure_dimension>  (699) 
2D

$$$$
MS0730
     RDKit          2D

 31 34  0  0  0  0  0  0  0  0999 V2000
   -2.9977   -3.6783    0.0000 C   0  0  0  0  0  0  0  0  0  0  0  0
   -2.1750   -2.4240    0.0000 C   0  0  0  0  0  0  0  0  0  0  0  0
   -2.8500   -1.0844    0.0000 C   0  0  0  0  0  0  0  0  0  0  0  0
   -4.3475   -0.9991    0.0000 C   0  0  0  0  0  0  0  0  0  0  0  0
   -5.0224    0.3405    0.0000 C   0  0  0  0  0  0  0  0  0  0  0  0
   -4.1998    1.5947    0.0000 O   0  0  0  0  0  0  0  0  0  0  0  0
   -6.5200    0.4258    0.0000 O   0  0  0  0  0  0  0  0  0  0  0  0
   -7.1949    1.7653    0.0000 C   0  0  0  0  0  0  0  0  0  0  0  0
   -8.6925    1.8506    0.0000 C   0  0  0  0  0  0  0  0  0  0  0  0
   -9.3674    3.1902    0.0000 O   0  0  0  0  0  0  0  0  0  0  0  0
   -0.6775   -2.5093    0.0000 C   0  0  0  0  0  0  0  0  0  0  0  0
    0.1338   -3.7710    0.0000 C   0  0  0  0  0  0  0  0  0  0  0  0
    1.5844   -3.3894    0.0000 C   0  0  0  0  0  0  0  0  0  0  0  0
    1.6697   -1.8918    0.0000 C   0  0  0  0  0  0  0  0  0  0  0  0
    2.8397   -0.9531    0.0000 C   0  0  0  0  0  0  0  0  0  0  0  0
    4.2376   -1.4970    0.0000 C   0  0  0  0  0  0  0  0  0  0  0  0
    4.4655   -2.9796    0.0000 O   0  0  0  0  0  0  0  0  0  0  0  0
    5.4076   -0.5583    0.0000 C   0  0  0  0  0  0  0  0  0  0  0  0
    5.1797    0.9243    0.0000 C   0  0  0  0  0  0  0  0  0  0  0  0
    6.3497    1.8629    0.0000 C   0  0  0  0  0  0  0  0  0  0  0  0
    6.1217    3.3455    0.0000 C   0  0  0  0  0  0  0  0  0  0  0  0
    4.7238    3.8894    0.0000 C   0  0  0  0  0  0  0  0  0  0  0  0
    3.5538    2.9507    0.0000 C   0  0  0  0  0  0  0  0  0  0  0  0
    3.7818    1.4682    0.0000 C   0  0  0  0  0  0  0  0  0  0  0  0
    2.3839    2.0121    0.0000 C   0  0  0  0  0  0  0  0  0  0  0  0
    2.6118    0.5295    0.0000 C   0  0  0  0  0  0  0  0  0  0  0  0
    1.2139    1.0734    0.0000 C   0  0  0  0  0  0  0  0  0  0  0  0
    0.0439    0.1347    0.0000 C   0  0  0  0  0  0  0  0  0  0  0  0
   -1.3540    0.6786    0.0000 O   0  0  0  0  0  0  0  0  0  0  0  0
    0.2718   -1.3479    0.0000 C   0  0  0  0  0  0  0  0  0  0  0  0
   -1.1753   -0.9531    0.0000 C   0  0  0  0  0  0  0  0  0  0  0  0
  2  1  1  6
  2  3  1  0
  3  4  1  0
  4  5  1  0
  5  6  2  0
  5  7  1  0
  7  8  1  0
  8  9  1  0
  9 10  1  0
  2 11  1  0
 11 12  1  6
 12 13  1  0
 14 13  1  6
 14 15  1  0
 15 16  1  1
 16 17  1  1
 16 18  1  0
 19 18  1  1
 19 20  1  0
 20 21  1  0
 21 22  1  0
 22 23  1  0
 23 24  1  0
 24 25  1  6
 24 26  1  0
 26 27  1  6
 27 28  1  0
 28 29  1  6
 28 30  1  0
 30 31  1  6
 30 11  1  0
 30 14  1  0
 26 15  1  0
 24 19  1  0
M  END
>  <MS_ID>  (700) 
MS0730

>  <SMILES>  (700) 
C[C@H](CCC(=O)OCCO)[C@H]1CC[C@H]2[C@@H]3[C@H](O)C[C@@H]4CCCC[C@]4(C)[C@H]3C[C@@H](O)[C@]12C

>  <Structure_dimension>  (700) 
2D

$$$$
MS0731
     RDKit          2D

 36 40  0  0  0  0  0  0  0  0999 V2000
   -1.9152   -3.7037    0.0000 C   0  0  0  0  0  0  0  0  0  0  0  0
   -1.0105   -2.5073    0.0000 C   0  0  0  0  0  0  0  0  0  0  0  0
   -1.5943   -1.1256    0.0000 C   0  0  0  0  0  0  0  0  0  0  0  0
   -3.0829   -0.9403    0.0000 C   0  0  0  0  0  0  0  0  0  0  0  0
   -3.6667    0.4414    0.0000 C   0  0  0  0  0  0  0  0  0  0  0  0
   -2.7620    1.6379    0.0000 O   0  0  0  0  0  0  0  0  0  0  0  0
   -5.1552    0.6267    0.0000 C   0  0  0  0  0  0  0  0  0  0  0  0
   -5.7390    2.0084    0.0000 C   0  0  0  0  0  0  0  0  0  0  0  0
   -7.2275    2.1937    0.0000 C   0  0  0  0  0  0  0  0  0  0  0  0
   -8.1322    0.9972    0.0000 C   0  0  0  0  0  0  0  0  0  0  0  0
   -9.6207    1.1825    0.0000 N   0  0  0  0  0  0  0  0  0  0  0  0
  -10.5254   -0.0139    0.0000 O   0  0  0  0  0  0  0  0  0  0  0  0
  -10.2045    2.5642    0.0000 O   0  0  0  0  0  0  0  0  0  0  0  0
   -7.5484   -0.3845    0.0000 C   0  0  0  0  0  0  0  0  0  0  0  0
   -6.0599   -0.5697    0.0000 C   0  0  0  0  0  0  0  0  0  0  0  0
    0.4780   -2.6925    0.0000 C   0  0  0  0  0  0  0  0  0  0  0  0
    1.2030   -4.0057    0.0000 C   0  0  0  0  0  0  0  0  0  0  0  0
    2.6759   -3.7219    0.0000 C   0  0  0  0  0  0  0  0  0  0  0  0
    2.8612   -2.2334    0.0000 C   0  0  0  0  0  0  0  0  0  0  0  0
    4.0914   -1.3751    0.0000 C   0  0  0  0  0  0  0  0  0  0  0  0
    5.4498   -2.0112    0.0000 C   0  0  0  0  0  0  0  0  0  0  0  0
    6.6799   -1.1529    0.0000 C   0  0  0  0  0  0  0  0  0  0  0  0
    6.5517    0.3416    0.0000 C   0  0  0  0  0  0  0  0  0  0  0  0
    7.7818    1.1999    0.0000 C   0  0  0  0  0  0  0  0  0  0  0  0
    7.6535    2.6944    0.0000 C   0  0  0  0  0  0  0  0  0  0  0  0
    8.8837    3.5528    0.0000 O   0  0  0  0  0  0  0  0  0  0  0  0
    6.2951    3.3306    0.0000 C   0  0  0  0  0  0  0  0  0  0  0  0
    5.0650    2.4723    0.0000 C   0  0  0  0  0  0  0  0  0  0  0  0
    5.1932    0.9778    0.0000 C   0  0  0  0  0  0  0  0  0  0  0  0
    3.8348    1.6140    0.0000 C   0  0  0  0  0  0  0  0  0  0  0  0
    3.9631    0.1194    0.0000 C   0  0  0  0  0  0  0  0  0  0  0  0
    2.6047    0.7556    0.0000 C   0  0  0  0  0  0  0  0  0  0  0  0
    1.3745   -0.1027    0.0000 C   0  0  0  0  0  0  0  0  0  0  0  0
    0.0161    0.5335    0.0000 O   0  0  0  0  0  0  0  0  0  0  0  0
    1.5028   -1.5972    0.0000 C   0  0  0  0  0  0  0  0  0  0  0  0
    0.0853   -1.1065    0.0000 C   0  0  0  0  0  0  0  0  0  0  0  0
  2  1  1  6
  2  3  1  0
  3  4  1  0
  4  5  1  0
  5  6  2  0
  5  7  1  0
  7  8  2  0
  8  9  1  0
  9 10  2  0
 10 11  1  0
 11 12  2  0
 11 13  1  0
 10 14  1  0
 14 15  2  0
  2 16  1  0
 16 17  1  6
 17 18  1  0
 19 18  1  6
 19 20  1  0
 20 21  1  1
 21 22  1  0
 23 22  1  1
 23 24  1  0
 24 25  1  0
 25 26  1  1
 25 27  1  0
 27 28  1  0
 28 29  1  0
 29 30  1  6
 29 31  1  0
 31 32  1  6
 32 33  1  0
 33 34  1  1
 33 35  1  0
 35 36  1  6
 15  7  1  0
 35 16  1  0
 35 19  1  0
 31 20  1  0
 29 23  1  0
M  CHG  2  11   1  13  -1
M  END
>  <MS_ID>  (701) 
MS0731

>  <SMILES>  (701) 
C[C@H](CCC(=O)c1ccc([N+](=O)[O-])cc1)[C@H]1CC[C@H]2[C@@H]3CC[C@@H]4C[C@H](O)CC[C@]4(C)[C@H]3C[C@H](O)[C@]12C

>  <Structure_dimension>  (701) 
2D

$$$$
MS0733
     RDKit          2D

 33 36  0  0  0  0  0  0  0  0999 V2000
   -2.8663   -3.9244    0.0000 C   0  0  0  0  0  0  0  0  0  0  0  0
   -2.0510   -2.6653    0.0000 C   0  0  0  0  0  0  0  0  0  0  0  0
   -2.7339   -1.3297    0.0000 C   0  0  0  0  0  0  0  0  0  0  0  0
   -4.2319   -1.2532    0.0000 C   0  0  0  0  0  0  0  0  0  0  0  0
   -4.9147    0.0823    0.0000 C   0  0  0  0  0  0  0  0  0  0  0  0
   -4.0995    1.3415    0.0000 O   0  0  0  0  0  0  0  0  0  0  0  0
   -6.4128    0.1588    0.0000 N   0  0  0  0  0  0  0  0  0  0  0  0
   -7.0956    1.4944    0.0000 C   0  0  0  0  0  0  0  0  0  0  0  0
   -8.5936    1.5708    0.0000 C   0  0  0  0  0  0  0  0  0  0  0  0
   -9.2765    2.9064    0.0000 C   0  0  0  0  0  0  0  0  0  0  0  0
  -10.7745    2.9828    0.0000 O   0  0  0  0  0  0  0  0  0  0  0  0
   -0.5530   -2.7417    0.0000 C   0  0  0  0  0  0  0  0  0  0  0  0
    0.2657   -3.9986    0.0000 C   0  0  0  0  0  0  0  0  0  0  0  0
    1.7140   -3.6084    0.0000 C   0  0  0  0  0  0  0  0  0  0  0  0
    1.7905   -2.1103    0.0000 C   0  0  0  0  0  0  0  0  0  0  0  0
    2.9549   -1.1648    0.0000 C   0  0  0  0  0  0  0  0  0  0  0  0
    4.3560   -1.7004    0.0000 C   0  0  0  0  0  0  0  0  0  0  0  0
    4.5927   -3.1816    0.0000 O   0  0  0  0  0  0  0  0  0  0  0  0
    5.5204   -0.7548    0.0000 C   0  0  0  0  0  0  0  0  0  0  0  0
    5.2838    0.7264    0.0000 C   0  0  0  0  0  0  0  0  0  0  0  0
    6.4482    1.6720    0.0000 C   0  0  0  0  0  0  0  0  0  0  0  0
    6.2115    3.1532    0.0000 C   0  0  0  0  0  0  0  0  0  0  0  0
    7.3759    4.0988    0.0000 O   0  0  0  0  0  0  0  0  0  0  0  0
    4.8104    3.6888    0.0000 C   0  0  0  0  0  0  0  0  0  0  0  0
    3.6460    2.7432    0.0000 C   0  0  0  0  0  0  0  0  0  0  0  0
    3.8827    1.2620    0.0000 C   0  0  0  0  0  0  0  0  0  0  0  0
    2.4816    1.7977    0.0000 C   0  0  0  0  0  0  0  0  0  0  0  0
    2.7182    0.3165    0.0000 C   0  0  0  0  0  0  0  0  0  0  0  0
    1.3171    0.8521    0.0000 C   0  0  0  0  0  0  0  0  0  0  0  0
    0.1527   -0.0935    0.0000 C   0  0  0  0  0  0  0  0  0  0  0  0
   -1.2484    0.4421    0.0000 O   0  0  0  0  0  0  0  0  0  0  0  0
    0.3894   -1.5747    0.0000 C   0  0  0  0  0  0  0  0  0  0  0  0
   -1.0600   -1.1885    0.0000 C   0  0  0  0  0  0  0  0  0  0  0  0
  2  1  1  6
  2  3  1  0
  3  4  1  0
  4  5  1  0
  5  6  2  0
  5  7  1  0
  7  8  1  0
  8  9  1  0
  9 10  1  0
 10 11  1  0
  2 12  1  0
 12 13  1  6
 13 14  1  0
 15 14  1  6
 15 16  1  0
 16 17  1  1
 17 18  1  1
 17 19  1  0
 20 19  1  1
 20 21  1  0
 21 22  1  0
 22 23  1  1
 22 24  1  0
 24 25  1  0
 25 26  1  0
 26 27  1  6
 26 28  1  0
 28 29  1  6
 29 30  1  0
 30 31  1  1
 30 32  1  0
 32 33  1  6
 32 12  1  0
 32 15  1  0
 28 16  1  0
 26 20  1  0
M  END
>  <MS_ID>  (702) 
MS0733

>  <SMILES>  (702) 
C[C@H](CCC(=O)NCCCO)[C@H]1CC[C@H]2[C@@H]3[C@H](O)C[C@@H]4C[C@H](O)CC[C@]4(C)[C@H]3C[C@H](O)[C@]12C

>  <Structure_dimension>  (702) 
2D

$$$$
MS0734
     RDKit          2D

 34 37  0  0  0  0  0  0  0  0999 V2000
   -2.2502   -4.2128    0.0000 C   0  0  0  0  0  0  0  0  0  0  0  0
   -1.5218   -2.9016    0.0000 C   0  0  0  0  0  0  0  0  0  0  0  0
   -2.2931   -1.6151    0.0000 C   0  0  0  0  0  0  0  0  0  0  0  0
   -3.7929   -1.6399    0.0000 C   0  0  0  0  0  0  0  0  0  0  0  0
   -4.5643   -0.3534    0.0000 C   0  0  0  0  0  0  0  0  0  0  0  0
   -3.8359    0.9578    0.0000 O   0  0  0  0  0  0  0  0  0  0  0  0
   -6.0641   -0.3782    0.0000 N   0  0  0  0  0  0  0  0  0  0  0  0
   -6.8355    0.9082    0.0000 C   0  0  0  0  0  0  0  0  0  0  0  0
   -8.3353    0.8834    0.0000 C   0  0  0  0  0  0  0  0  0  0  0  0
   -9.1066    2.1699    0.0000 C   0  0  0  0  0  0  0  0  0  0  0  0
  -10.6064    2.1451    0.0000 C   0  0  0  0  0  0  0  0  0  0  0  0
  -11.3778    3.4316    0.0000 N   0  0  0  0  0  0  0  0  0  0  0  0
   -0.0220   -2.8768    0.0000 C   0  0  0  0  0  0  0  0  0  0  0  0
    0.8797   -4.0755    0.0000 C   0  0  0  0  0  0  0  0  0  0  0  0
    2.2984   -3.5885    0.0000 C   0  0  0  0  0  0  0  0  0  0  0  0
    2.2736   -2.0887    0.0000 C   0  0  0  0  0  0  0  0  0  0  0  0
    3.3716   -1.0667    0.0000 C   0  0  0  0  0  0  0  0  0  0  0  0
    4.8056   -1.5066    0.0000 C   0  0  0  0  0  0  0  0  0  0  0  0
    5.1417   -2.9685    0.0000 O   0  0  0  0  0  0  0  0  0  0  0  0
    5.9036   -0.4846    0.0000 C   0  0  0  0  0  0  0  0  0  0  0  0
    5.5675    0.9773    0.0000 C   0  0  0  0  0  0  0  0  0  0  0  0
    6.6655    1.9992    0.0000 C   0  0  0  0  0  0  0  0  0  0  0  0
    6.3294    3.4611    0.0000 C   0  0  0  0  0  0  0  0  0  0  0  0
    7.4274    4.4831    0.0000 O   0  0  0  0  0  0  0  0  0  0  0  0
    4.8953    3.9010    0.0000 C   0  0  0  0  0  0  0  0  0  0  0  0
    3.7974    2.8790    0.0000 C   0  0  0  0  0  0  0  0  0  0  0  0
    4.1334    1.4171    0.0000 C   0  0  0  0  0  0  0  0  0  0  0  0
    2.6994    1.8570    0.0000 C   0  0  0  0  0  0  0  0  0  0  0  0
    3.0355    0.3951    0.0000 C   0  0  0  0  0  0  0  0  0  0  0  0
    1.6014    0.8350    0.0000 C   0  0  0  0  0  0  0  0  0  0  0  0
    0.5034   -0.1870    0.0000 C   0  0  0  0  0  0  0  0  0  0  0  0
   -0.9306    0.2529    0.0000 O   0  0  0  0  0  0  0  0  0  0  0  0
    0.8395   -1.6488    0.0000 C   0  0  0  0  0  0  0  0  0  0  0  0
   -0.6326   -1.3613    0.0000 C   0  0  0  0  0  0  0  0  0  0  0  0
  2  1  1  6
  2  3  1  0
  3  4  1  0
  4  5  1  0
  5  6  2  0
  5  7  1  0
  7  8  1  0
  8  9  1  0
  9 10  1  0
 10 11  1  0
 11 12  1  0
  2 13  1  0
 13 14  1  6
 14 15  1  0
 16 15  1  6
 16 17  1  0
 17 18  1  1
 18 19  1  1
 18 20  1  0
 21 20  1  1
 21 22  1  0
 22 23  1  0
 23 24  1  1
 23 25  1  0
 25 26  1  0
 26 27  1  0
 27 28  1  6
 27 29  1  0
 29 30  1  6
 30 31  1  0
 31 32  1  1
 31 33  1  0
 33 34  1  6
 33 13  1  0
 33 16  1  0
 29 17  1  0
 27 21  1  0
M  END
>  <MS_ID>  (703) 
MS0734

>  <SMILES>  (703) 
C[C@H](CCC(=O)NCCCCN)[C@H]1CC[C@H]2[C@@H]3[C@H](O)C[C@@H]4C[C@H](O)CC[C@]4(C)[C@H]3C[C@H](O)[C@]12C

>  <Structure_dimension>  (703) 
2D

$$$$
MS0735
     RDKit          2D

 31 34  0  0  0  0  0  0  0  0999 V2000
   -2.6128   -3.7484    0.0000 C   0  0  0  0  0  0  0  0  0  0  0  0
   -1.7683   -2.5088    0.0000 C   0  0  0  0  0  0  0  0  0  0  0  0
   -2.4196   -1.1576    0.0000 C   0  0  0  0  0  0  0  0  0  0  0  0
   -3.9155   -1.0460    0.0000 C   0  0  0  0  0  0  0  0  0  0  0  0
   -4.5668    0.3052    0.0000 C   0  0  0  0  0  0  0  0  0  0  0  0
   -3.7223    1.5449    0.0000 O   0  0  0  0  0  0  0  0  0  0  0  0
   -6.0626    0.4167    0.0000 C   0  0  0  0  0  0  0  0  0  0  0  0
   -6.7140    1.7679    0.0000 C   0  0  0  0  0  0  0  0  0  0  0  0
   -8.2098    1.8794    0.0000 C   0  0  0  0  0  0  0  0  0  0  0  0
   -9.0543    0.6398    0.0000 O   0  0  0  0  0  0  0  0  0  0  0  0
   -8.8612    3.2307    0.0000 O   0  0  0  0  0  0  0  0  0  0  0  0
   -0.2724   -2.6203    0.0000 C   0  0  0  0  0  0  0  0  0  0  0  0
    0.5166   -3.8960    0.0000 C   0  0  0  0  0  0  0  0  0  0  0  0
    1.9737   -3.5398    0.0000 C   0  0  0  0  0  0  0  0  0  0  0  0
    2.0852   -2.0440    0.0000 C   0  0  0  0  0  0  0  0  0  0  0  0
    3.2715   -1.1260    0.0000 C   0  0  0  0  0  0  0  0  0  0  0  0
    4.6596   -1.6943    0.0000 C   0  0  0  0  0  0  0  0  0  0  0  0
    5.8459   -0.7762    0.0000 C   0  0  0  0  0  0  0  0  0  0  0  0
    5.6440    0.7101    0.0000 C   0  0  0  0  0  0  0  0  0  0  0  0
    6.8302    1.6281    0.0000 C   0  0  0  0  0  0  0  0  0  0  0  0
    6.6283    3.1145    0.0000 C   0  0  0  0  0  0  0  0  0  0  0  0
    5.2402    3.6828    0.0000 C   0  0  0  0  0  0  0  0  0  0  0  0
    4.0539    2.7648    0.0000 C   0  0  0  0  0  0  0  0  0  0  0  0
    4.2558    1.2784    0.0000 C   0  0  0  0  0  0  0  0  0  0  0  0
    2.8676    1.8467    0.0000 C   0  0  0  0  0  0  0  0  0  0  0  0
    3.0696    0.3604    0.0000 C   0  0  0  0  0  0  0  0  0  0  0  0
    1.6814    0.9287    0.0000 C   0  0  0  0  0  0  0  0  0  0  0  0
    0.4951    0.0107    0.0000 C   0  0  0  0  0  0  0  0  0  0  0  0
   -0.8930    0.5790    0.0000 O   0  0  0  0  0  0  0  0  0  0  0  0
    0.6970   -1.4757    0.0000 C   0  0  0  0  0  0  0  0  0  0  0  0
   -0.7429   -1.0556    0.0000 C   0  0  0  0  0  0  0  0  0  0  0  0
  2  1  1  6
  2  3  1  0
  3  4  1  0
  4  5  1  0
  5  6  2  0
  5  7  1  0
  7  8  1  0
  8  9  1  0
  9 10  2  0
  9 11  1  0
  2 12  1  0
 12 13  1  6
 13 14  1  0
 15 14  1  6
 15 16  1  0
 16 17  1  1
 17 18  1  0
 19 18  1  1
 19 20  1  0
 20 21  1  0
 21 22  1  0
 22 23  1  0
 23 24  1  0
 24 25  1  6
 24 26  1  0
 26 27  1  6
 27 28  1  0
 28 29  1  1
 28 30  1  0
 30 31  1  6
 30 12  1  0
 30 15  1  0
 26 16  1  0
 24 19  1  0
M  END
>  <MS_ID>  (704) 
MS0735

>  <SMILES>  (704) 
C[C@H](CCC(=O)CCC(=O)O)[C@H]1CC[C@H]2[C@@H]3CC[C@@H]4CCCC[C@]4(C)[C@H]3C[C@H](O)[C@]12C

>  <Structure_dimension>  (704) 
2D

$$$$
MS0736
     RDKit          2D

 30 33  0  0  0  0  0  0  0  0999 V2000
   -3.1708   -3.5872    0.0000 C   0  0  0  0  0  0  0  0  0  0  0  0
   -2.2740   -2.3848    0.0000 C   0  0  0  0  0  0  0  0  0  0  0  0
   -2.8669   -1.0070    0.0000 C   0  0  0  0  0  0  0  0  0  0  0  0
   -4.3566   -0.8315    0.0000 C   0  0  0  0  0  0  0  0  0  0  0  0
   -4.9495    0.5464    0.0000 C   0  0  0  0  0  0  0  0  0  0  0  0
   -4.0527    1.7488    0.0000 O   0  0  0  0  0  0  0  0  0  0  0  0
   -6.4392    0.7219    0.0000 C   0  0  0  0  0  0  0  0  0  0  0  0
   -7.0321    2.0997    0.0000 C   0  0  0  0  0  0  0  0  0  0  0  0
   -6.1352    3.3021    0.0000 O   0  0  0  0  0  0  0  0  0  0  0  0
   -8.5218    2.2752    0.0000 O   0  0  0  0  0  0  0  0  0  0  0  0
   -0.7843   -2.5603    0.0000 C   0  0  0  0  0  0  0  0  0  0  0  0
   -0.0507   -3.8686    0.0000 C   0  0  0  0  0  0  0  0  0  0  0  0
    1.4203   -3.5752    0.0000 C   0  0  0  0  0  0  0  0  0  0  0  0
    1.5958   -2.0855    0.0000 C   0  0  0  0  0  0  0  0  0  0  0  0
    2.8203   -1.2191    0.0000 C   0  0  0  0  0  0  0  0  0  0  0  0
    4.1829   -1.8463    0.0000 C   0  0  0  0  0  0  0  0  0  0  0  0
    5.4074   -0.9799    0.0000 C   0  0  0  0  0  0  0  0  0  0  0  0
    5.2693    0.5137    0.0000 C   0  0  0  0  0  0  0  0  0  0  0  0
    6.4938    1.3801    0.0000 C   0  0  0  0  0  0  0  0  0  0  0  0
    6.3557    2.8737    0.0000 C   0  0  0  0  0  0  0  0  0  0  0  0
    4.9931    3.5010    0.0000 C   0  0  0  0  0  0  0  0  0  0  0  0
    3.7686    2.6346    0.0000 C   0  0  0  0  0  0  0  0  0  0  0  0
    3.9067    1.1409    0.0000 C   0  0  0  0  0  0  0  0  0  0  0  0
    2.5442    1.7682    0.0000 C   0  0  0  0  0  0  0  0  0  0  0  0
    2.6822    0.2745    0.0000 C   0  0  0  0  0  0  0  0  0  0  0  0
    1.3197    0.9018    0.0000 C   0  0  0  0  0  0  0  0  0  0  0  0
    0.0952    0.0354    0.0000 C   0  0  0  0  0  0  0  0  0  0  0  0
   -1.2674    0.6626    0.0000 O   0  0  0  0  0  0  0  0  0  0  0  0
    0.2333   -1.4583    0.0000 C   0  0  0  0  0  0  0  0  0  0  0  0
   -1.1874   -0.9769    0.0000 C   0  0  0  0  0  0  0  0  0  0  0  0
  2  1  1  6
  2  3  1  0
  3  4  1  0
  4  5  1  0
  5  6  2  0
  5  7  1  0
  7  8  1  0
  8  9  2  0
  8 10  1  0
  2 11  1  0
 11 12  1  6
 12 13  1  0
 14 13  1  6
 14 15  1  0
 15 16  1  1
 16 17  1  0
 18 17  1  1
 18 19  1  0
 19 20  1  0
 20 21  1  0
 21 22  1  0
 22 23  1  0
 23 24  1  6
 23 25  1  0
 25 26  1  6
 26 27  1  0
 27 28  1  6
 27 29  1  0
 29 30  1  6
 29 11  1  0
 29 14  1  0
 25 15  1  0
 23 18  1  0
M  END
>  <MS_ID>  (705) 
MS0736

>  <SMILES>  (705) 
C[C@H](CCC(=O)CC(=O)O)[C@H]1CC[C@H]2[C@@H]3CC[C@@H]4CCCC[C@]4(C)[C@H]3C[C@@H](O)[C@]12C

>  <Structure_dimension>  (705) 
2D

$$$$
MS0737
     RDKit          2D

 33 36  0  0  0  0  0  0  0  0999 V2000
   -3.8188   -3.9816    0.0000 C   0  0  0  0  0  0  0  0  0  0  0  0
   -2.9717   -2.7437    0.0000 C   0  0  0  0  0  0  0  0  0  0  0  0
   -3.6202   -1.3911    0.0000 C   0  0  0  0  0  0  0  0  0  0  0  0
   -5.1159   -1.2765    0.0000 C   0  0  0  0  0  0  0  0  0  0  0  0
   -5.7644    0.0760    0.0000 C   0  0  0  0  0  0  0  0  0  0  0  0
   -7.2600    0.1906    0.0000 O   0  0  0  0  0  0  0  0  0  0  0  0
   -4.9174    1.3140    0.0000 S   0  0  0  0  0  0  0  0  0  0  0  0
   -5.5659    2.6665    0.0000 C   0  0  0  0  0  0  0  0  0  0  0  0
   -4.7188    3.9044    0.0000 C   0  0  0  0  0  0  0  0  0  0  0  0
   -3.2232    3.7898    0.0000 O   0  0  0  0  0  0  0  0  0  0  0  0
   -5.3674    5.2570    0.0000 O   0  0  0  0  0  0  0  0  0  0  0  0
   -1.4761   -2.8583    0.0000 C   0  0  0  0  0  0  0  0  0  0  0  0
   -0.6897   -4.1356    0.0000 C   0  0  0  0  0  0  0  0  0  0  0  0
    0.7681   -3.7825    0.0000 C   0  0  0  0  0  0  0  0  0  0  0  0
    0.8827   -2.2868    0.0000 C   0  0  0  0  0  0  0  0  0  0  0  0
    2.0709   -1.3712    0.0000 C   0  0  0  0  0  0  0  0  0  0  0  0
    3.4579   -1.9424    0.0000 C   0  0  0  0  0  0  0  0  0  0  0  0
    3.6567   -3.4292    0.0000 O   0  0  0  0  0  0  0  0  0  0  0  0
    4.6460   -1.0268    0.0000 C   0  0  0  0  0  0  0  0  0  0  0  0
    6.0330   -1.5980    0.0000 O   0  0  0  0  0  0  0  0  0  0  0  0
    4.4472    0.4599    0.0000 C   0  0  0  0  0  0  0  0  0  0  0  0
    5.6353    1.3755    0.0000 C   0  0  0  0  0  0  0  0  0  0  0  0
    5.4365    2.8623    0.0000 C   0  0  0  0  0  0  0  0  0  0  0  0
    6.6246    3.7779    0.0000 O   0  0  0  0  0  0  0  0  0  0  0  0
    4.0495    3.4335    0.0000 C   0  0  0  0  0  0  0  0  0  0  0  0
    2.8613    2.5179    0.0000 C   0  0  0  0  0  0  0  0  0  0  0  0
    3.0602    1.0311    0.0000 C   0  0  0  0  0  0  0  0  0  0  0  0
    1.6732    1.6023    0.0000 C   0  0  0  0  0  0  0  0  0  0  0  0
    1.8720    0.1155    0.0000 C   0  0  0  0  0  0  0  0  0  0  0  0
    0.4850    0.6867    0.0000 C   0  0  0  0  0  0  0  0  0  0  0  0
   -0.7031   -0.2289    0.0000 C   0  0  0  0  0  0  0  0  0  0  0  0
   -0.5043   -1.7157    0.0000 C   0  0  0  0  0  0  0  0  0  0  0  0
   -1.9434   -1.2926    0.0000 C   0  0  0  0  0  0  0  0  0  0  0  0
  2  1  1  6
  2  3  1  0
  3  4  1  0
  4  5  1  0
  5  6  2  0
  5  7  1  0
  7  8  1  0
  8  9  1  0
  9 10  2  0
  9 11  1  0
  2 12  1  0
 12 13  1  6
 13 14  1  0
 15 14  1  6
 15 16  1  0
 16 17  1  1
 17 18  1  1
 17 19  1  0
 19 20  1  1
 19 21  1  0
 21 22  1  1
 22 23  1  0
 23 24  1  1
 23 25  1  0
 25 26  1  0
 26 27  1  0
 27 28  1  6
 27 29  1  0
 29 30  1  6
 30 31  1  0
 31 32  1  0
 32 33  1  6
 32 12  1  0
 32 15  1  0
 29 16  1  0
 27 21  1  0
M  END
>  <MS_ID>  (706) 
MS0737

>  <SMILES>  (706) 
C[C@H](CCC(=O)SCC(=O)O)[C@H]1CC[C@H]2[C@@H]3[C@H](O)[C@H](O)[C@@H]4C[C@H](O)CC[C@]4(C)[C@H]3CC[C@]12C

>  <Structure_dimension>  (706) 
2D

$$$$
MS0738
     RDKit          2D

 29 32  0  0  0  0  0  0  0  0999 V2000
   -4.6958   -2.6034    0.0000 C   0  0  0  0  0  0  0  0  0  0  0  0
   -3.5597   -1.6240    0.0000 C   0  0  0  0  0  0  0  0  0  0  0  0
   -3.8399   -0.1504    0.0000 C   0  0  0  0  0  0  0  0  0  0  0  0
   -5.2561    0.3438    0.0000 C   0  0  0  0  0  0  0  0  0  0  0  0
   -5.5363    1.8174    0.0000 C   0  0  0  0  0  0  0  0  0  0  0  0
   -6.9525    2.3116    0.0000 O   0  0  0  0  0  0  0  0  0  0  0  0
   -4.4002    2.7968    0.0000 O   0  0  0  0  0  0  0  0  0  0  0  0
   -4.6804    4.2704    0.0000 O   0  0  0  0  0  0  0  0  0  0  0  0
   -2.1434   -2.1182    0.0000 C   0  0  0  0  0  0  0  0  0  0  0  0
   -1.7108   -3.5544    0.0000 C   0  0  0  0  0  0  0  0  0  0  0  0
   -0.2111   -3.5867    0.0000 C   0  0  0  0  0  0  0  0  0  0  0  0
    0.2831   -2.1705    0.0000 C   0  0  0  0  0  0  0  0  0  0  0  0
    1.6662   -1.5901    0.0000 C   0  0  0  0  0  0  0  0  0  0  0  0
    2.8605   -2.4977    0.0000 C   0  0  0  0  0  0  0  0  0  0  0  0
    4.2436   -1.9173    0.0000 C   0  0  0  0  0  0  0  0  0  0  0  0
    4.4325   -0.4292    0.0000 C   0  0  0  0  0  0  0  0  0  0  0  0
    5.8157    0.1512    0.0000 C   0  0  0  0  0  0  0  0  0  0  0  0
    6.0046    1.6393    0.0000 C   0  0  0  0  0  0  0  0  0  0  0  0
    7.3877    2.2197    0.0000 O   0  0  0  0  0  0  0  0  0  0  0  0
    4.8103    2.5469    0.0000 C   0  0  0  0  0  0  0  0  0  0  0  0
    3.4272    1.9665    0.0000 C   0  0  0  0  0  0  0  0  0  0  0  0
    3.2383    0.4784    0.0000 C   0  0  0  0  0  0  0  0  0  0  0  0
    2.0440    1.3861    0.0000 C   0  0  0  0  0  0  0  0  0  0  0  0
    1.8551   -0.1020    0.0000 C   0  0  0  0  0  0  0  0  0  0  0  0
    0.6609    0.8056    0.0000 C   0  0  0  0  0  0  0  0  0  0  0  0
   -0.7223    0.2252    0.0000 C   0  0  0  0  0  0  0  0  0  0  0  0
   -1.9165    1.1328    0.0000 O   0  0  0  0  0  0  0  0  0  0  0  0
   -0.9112   -1.2628    0.0000 C   0  0  0  0  0  0  0  0  0  0  0  0
   -2.1937   -0.4850    0.0000 C   0  0  0  0  0  0  0  0  0  0  0  0
  2  1  1  6
  2  3  1  0
  3  4  1  0
  4  5  1  0
  5  6  2  0
  5  7  1  0
  7  8  1  0
  2  9  1  0
  9 10  1  6
 10 11  1  0
 12 11  1  6
 12 13  1  0
 13 14  1  1
 14 15  1  0
 16 15  1  1
 16 17  1  0
 17 18  1  0
 18 19  2  0
 18 20  1  0
 20 21  1  0
 21 22  1  0
 22 23  1  6
 22 24  1  0
 24 25  1  6
 25 26  1  0
 26 27  1  1
 26 28  1  0
 28 29  1  6
 28  9  1  0
 28 12  1  0
 24 13  1  0
 22 16  1  0
M  END
>  <MS_ID>  (707) 
MS0738

>  <SMILES>  (707) 
C[C@H](CCC(=O)OO)[C@H]1CC[C@H]2[C@@H]3CC[C@@H]4CC(=O)CC[C@]4(C)[C@H]3C[C@H](O)[C@]12C

>  <Structure_dimension>  (707) 
2D

$$$$
MS0739
     RDKit          2D

 30 33  0  0  0  0  0  0  0  0999 V2000
   -3.5909   -3.2894    0.0000 C   0  0  0  0  0  0  0  0  0  0  0  0
   -2.6685   -2.1066    0.0000 C   0  0  0  0  0  0  0  0  0  0  0  0
   -3.2316   -0.7163    0.0000 C   0  0  0  0  0  0  0  0  0  0  0  0
   -4.7172   -0.5088    0.0000 C   0  0  0  0  0  0  0  0  0  0  0  0
   -5.2803    0.8815    0.0000 C   0  0  0  0  0  0  0  0  0  0  0  0
   -4.3578    2.0643    0.0000 O   0  0  0  0  0  0  0  0  0  0  0  0
   -6.7659    1.0889    0.0000 C   0  0  0  0  0  0  0  0  0  0  0  0
   -7.3290    2.4792    0.0000 C   0  0  0  0  0  0  0  0  0  0  0  0
   -8.8146    2.6867    0.0000 O   0  0  0  0  0  0  0  0  0  0  0  0
   -1.1829   -2.3140    0.0000 C   0  0  0  0  0  0  0  0  0  0  0  0
   -0.4775   -3.6378    0.0000 C   0  0  0  0  0  0  0  0  0  0  0  0
    0.9995   -3.3760    0.0000 C   0  0  0  0  0  0  0  0  0  0  0  0
    1.2069   -1.8905    0.0000 C   0  0  0  0  0  0  0  0  0  0  0  0
    2.4498   -1.0506    0.0000 C   0  0  0  0  0  0  0  0  0  0  0  0
    3.7985   -1.7070    0.0000 C   0  0  0  0  0  0  0  0  0  0  0  0
    3.9045   -3.2032    0.0000 O   0  0  0  0  0  0  0  0  0  0  0  0
    5.0414   -0.8671    0.0000 C   0  0  0  0  0  0  0  0  0  0  0  0
    4.9354    0.6292    0.0000 C   0  0  0  0  0  0  0  0  0  0  0  0
    6.1782    1.4691    0.0000 C   0  0  0  0  0  0  0  0  0  0  0  0
    6.0723    2.9653    0.0000 C   0  0  0  0  0  0  0  0  0  0  0  0
    4.7235    3.6217    0.0000 C   0  0  0  0  0  0  0  0  0  0  0  0
    3.4807    2.7818    0.0000 C   0  0  0  0  0  0  0  0  0  0  0  0
    3.5866    1.2856    0.0000 C   0  0  0  0  0  0  0  0  0  0  0  0
    2.2379    1.9419    0.0000 C   0  0  0  0  0  0  0  0  0  0  0  0
    2.3438    0.4457    0.0000 C   0  0  0  0  0  0  0  0  0  0  0  0
    0.9950    1.1020    0.0000 C   0  0  0  0  0  0  0  0  0  0  0  0
   -0.2478    0.2622    0.0000 C   0  0  0  0  0  0  0  0  0  0  0  0
   -1.5965    0.9185    0.0000 O   0  0  0  0  0  0  0  0  0  0  0  0
   -0.1418   -1.2341    0.0000 C   0  0  0  0  0  0  0  0  0  0  0  0
   -1.5518   -0.7223    0.0000 C   0  0  0  0  0  0  0  0  0  0  0  0
  2  1  1  6
  2  3  1  0
  3  4  1  0
  4  5  1  0
  5  6  2  0
  5  7  1  0
  7  8  1  0
  8  9  1  0
  2 10  1  0
 10 11  1  6
 11 12  1  0
 13 12  1  6
 13 14  1  0
 14 15  1  1
 15 16  1  6
 15 17  1  0
 18 17  1  1
 18 19  1  0
 19 20  1  0
 20 21  1  0
 21 22  1  0
 22 23  1  0
 23 24  1  6
 23 25  1  0
 25 26  1  6
 26 27  1  0
 27 28  1  1
 27 29  1  0
 29 30  1  6
 29 10  1  0
 29 13  1  0
 25 14  1  0
 23 18  1  0
M  END
>  <MS_ID>  (708) 
MS0739

>  <SMILES>  (708) 
C[C@H](CCC(=O)CCO)[C@H]1CC[C@H]2[C@@H]3[C@@H](O)C[C@@H]4CCCC[C@]4(C)[C@H]3C[C@H](O)[C@]12C

>  <Structure_dimension>  (708) 
2D

$$$$
MS0740
     RDKit          2D

 29 32  0  0  0  0  0  0  0  0999 V2000
   -4.6958   -2.6034    0.0000 C   0  0  0  0  0  0  0  0  0  0  0  0
   -3.5597   -1.6240    0.0000 C   0  0  0  0  0  0  0  0  0  0  0  0
   -3.8399   -0.1504    0.0000 C   0  0  0  0  0  0  0  0  0  0  0  0
   -5.2561    0.3438    0.0000 C   0  0  0  0  0  0  0  0  0  0  0  0
   -5.5363    1.8174    0.0000 C   0  0  0  0  0  0  0  0  0  0  0  0
   -6.9525    2.3116    0.0000 O   0  0  0  0  0  0  0  0  0  0  0  0
   -4.4002    2.7968    0.0000 O   0  0  0  0  0  0  0  0  0  0  0  0
   -4.6804    4.2704    0.0000 O   0  0  0  0  0  0  0  0  0  0  0  0
   -2.1434   -2.1182    0.0000 C   0  0  0  0  0  0  0  0  0  0  0  0
   -1.7108   -3.5544    0.0000 C   0  0  0  0  0  0  0  0  0  0  0  0
   -0.2111   -3.5867    0.0000 C   0  0  0  0  0  0  0  0  0  0  0  0
    0.2831   -2.1705    0.0000 C   0  0  0  0  0  0  0  0  0  0  0  0
    1.6662   -1.5901    0.0000 C   0  0  0  0  0  0  0  0  0  0  0  0
    2.8605   -2.4977    0.0000 C   0  0  0  0  0  0  0  0  0  0  0  0
    4.2436   -1.9173    0.0000 C   0  0  0  0  0  0  0  0  0  0  0  0
    4.4325   -0.4292    0.0000 C   0  0  0  0  0  0  0  0  0  0  0  0
    5.8157    0.1512    0.0000 C   0  0  0  0  0  0  0  0  0  0  0  0
    6.0046    1.6393    0.0000 C   0  0  0  0  0  0  0  0  0  0  0  0
    7.3877    2.2197    0.0000 O   0  0  0  0  0  0  0  0  0  0  0  0
    4.8103    2.5469    0.0000 C   0  0  0  0  0  0  0  0  0  0  0  0
    3.4272    1.9665    0.0000 C   0  0  0  0  0  0  0  0  0  0  0  0
    3.2383    0.4784    0.0000 C   0  0  0  0  0  0  0  0  0  0  0  0
    2.0440    1.3861    0.0000 C   0  0  0  0  0  0  0  0  0  0  0  0
    1.8551   -0.1020    0.0000 C   0  0  0  0  0  0  0  0  0  0  0  0
    0.6609    0.8056    0.0000 C   0  0  0  0  0  0  0  0  0  0  0  0
   -0.7223    0.2252    0.0000 C   0  0  0  0  0  0  0  0  0  0  0  0
   -1.9165    1.1328    0.0000 O   0  0  0  0  0  0  0  0  0  0  0  0
   -0.9112   -1.2628    0.0000 C   0  0  0  0  0  0  0  0  0  0  0  0
   -2.1937   -0.4850    0.0000 C   0  0  0  0  0  0  0  0  0  0  0  0
  2  1  1  6
  2  3  1  0
  3  4  1  0
  4  5  1  0
  5  6  2  0
  5  7  1  0
  7  8  1  0
  2  9  1  0
  9 10  1  6
 10 11  1  0
 12 11  1  6
 12 13  1  0
 13 14  1  1
 14 15  1  0
 16 15  1  1
 16 17  1  0
 17 18  1  0
 18 19  1  1
 18 20  1  0
 20 21  1  0
 21 22  1  0
 22 23  1  6
 22 24  1  0
 24 25  1  6
 25 26  1  0
 26 27  2  0
 26 28  1  0
 28 29  1  6
 28  9  1  0
 28 12  1  0
 24 13  1  0
 22 16  1  0
M  END
>  <MS_ID>  (709) 
MS0740

>  <SMILES>  (709) 
C[C@H](CCC(=O)OO)[C@H]1CC[C@H]2[C@@H]3CC[C@@H]4C[C@H](O)CC[C@]4(C)[C@H]3CC(=O)[C@]12C

>  <Structure_dimension>  (709) 
2D

$$$$
MS0741
     RDKit          2D

 35 39  0  0  0  0  0  0  0  0999 V2000
   -2.4249   -4.3282    0.0000 C   0  0  0  0  0  0  0  0  0  0  0  0
   -1.7208   -3.0038    0.0000 C   0  0  0  0  0  0  0  0  0  0  0  0
   -2.5157   -1.7317    0.0000 C   0  0  0  0  0  0  0  0  0  0  0  0
   -4.0147   -1.7841    0.0000 C   0  0  0  0  0  0  0  0  0  0  0  0
   -4.8097   -0.5121    0.0000 C   0  0  0  0  0  0  0  0  0  0  0  0
   -4.1055    0.8124    0.0000 O   0  0  0  0  0  0  0  0  0  0  0  0
   -6.3087   -0.5645    0.0000 N   0  0  0  0  0  0  0  0  0  0  0  0
   -7.1037    0.7076    0.0000 C   0  0  0  0  0  0  0  0  0  0  0  0
   -6.3995    2.0320    0.0000 C   0  0  0  0  0  0  0  0  0  0  0  0
   -7.1944    3.3041    0.0000 C   0  0  0  0  0  0  0  0  0  0  0  0
   -8.6935    3.2517    0.0000 C   0  0  0  0  0  0  0  0  0  0  0  0
   -9.3977    1.9272    0.0000 C   0  0  0  0  0  0  0  0  0  0  0  0
   -8.6027    0.6552    0.0000 C   0  0  0  0  0  0  0  0  0  0  0  0
   -0.2217   -2.9514    0.0000 C   0  0  0  0  0  0  0  0  0  0  0  0
    0.7019   -4.1334    0.0000 C   0  0  0  0  0  0  0  0  0  0  0  0
    2.1114   -3.6203    0.0000 C   0  0  0  0  0  0  0  0  0  0  0  0
    2.0590   -2.1213    0.0000 C   0  0  0  0  0  0  0  0  0  0  0  0
    3.1380   -1.0792    0.0000 C   0  0  0  0  0  0  0  0  0  0  0  0
    4.5799   -1.4927    0.0000 C   0  0  0  0  0  0  0  0  0  0  0  0
    4.9428   -2.9481    0.0000 O   0  0  0  0  0  0  0  0  0  0  0  0
    5.6589   -0.4506    0.0000 C   0  0  0  0  0  0  0  0  0  0  0  0
    7.1008   -0.8641    0.0000 O   0  0  0  0  0  0  0  0  0  0  0  0
    5.2959    1.0048    0.0000 C   0  0  0  0  0  0  0  0  0  0  0  0
    6.3749    2.0468    0.0000 C   0  0  0  0  0  0  0  0  0  0  0  0
    6.0120    3.5022    0.0000 C   0  0  0  0  0  0  0  0  0  0  0  0
    7.0910    4.5443    0.0000 O   0  0  0  0  0  0  0  0  0  0  0  0
    4.5701    3.9157    0.0000 C   0  0  0  0  0  0  0  0  0  0  0  0
    3.4911    2.8736    0.0000 C   0  0  0  0  0  0  0  0  0  0  0  0
    3.8540    1.4182    0.0000 C   0  0  0  0  0  0  0  0  0  0  0  0
    2.4121    1.8316    0.0000 C   0  0  0  0  0  0  0  0  0  0  0  0
    2.7751    0.3762    0.0000 C   0  0  0  0  0  0  0  0  0  0  0  0
    1.3332    0.7896    0.0000 C   0  0  0  0  0  0  0  0  0  0  0  0
    0.2542   -0.2524    0.0000 C   0  0  0  0  0  0  0  0  0  0  0  0
    0.6171   -1.7078    0.0000 C   0  0  0  0  0  0  0  0  0  0  0  0
   -0.8601   -1.4474    0.0000 C   0  0  0  0  0  0  0  0  0  0  0  0
  2  1  1  6
  2  3  1  0
  3  4  1  0
  4  5  1  0
  5  6  2  0
  5  7  1  0
  7  8  1  0
  8  9  2  0
  9 10  1  0
 10 11  2  0
 11 12  1  0
 12 13  2  0
  2 14  1  0
 14 15  1  6
 15 16  1  0
 17 16  1  6
 17 18  1  0
 18 19  1  1
 19 20  1  1
 19 21  1  0
 21 22  1  1
 21 23  1  0
 23 24  1  1
 24 25  1  0
 25 26  1  1
 25 27  1  0
 27 28  1  0
 28 29  1  0
 29 30  1  6
 29 31  1  0
 31 32  1  6
 32 33  1  0
 33 34  1  0
 34 35  1  6
 13  8  1  0
 34 14  1  0
 34 17  1  0
 31 18  1  0
 29 23  1  0
M  END
>  <MS_ID>  (710) 
MS0741

>  <SMILES>  (710) 
C[C@H](CCC(=O)Nc1ccccc1)[C@H]1CC[C@H]2[C@@H]3[C@H](O)[C@H](O)[C@@H]4C[C@H](O)CC[C@]4(C)[C@H]3CC[C@]12C

>  <Structure_dimension>  (710) 
2D

$$$$
MS0742
     RDKit          2D

 32 35  0  0  0  0  0  0  0  0999 V2000
   -2.9090   -3.9078    0.0000 C   0  0  0  0  0  0  0  0  0  0  0  0
   -2.0926   -2.6494    0.0000 C   0  0  0  0  0  0  0  0  0  0  0  0
   -2.7741   -1.3132    0.0000 C   0  0  0  0  0  0  0  0  0  0  0  0
   -4.2721   -1.2353    0.0000 C   0  0  0  0  0  0  0  0  0  0  0  0
   -4.9536    0.1009    0.0000 C   0  0  0  0  0  0  0  0  0  0  0  0
   -4.1372    1.3592    0.0000 O   0  0  0  0  0  0  0  0  0  0  0  0
   -6.4516    0.1788    0.0000 C   0  0  0  0  0  0  0  0  0  0  0  0
   -7.1332    1.5150    0.0000 C   0  0  0  0  0  0  0  0  0  0  0  0
   -8.6311    1.5929    0.0000 C   0  0  0  0  0  0  0  0  0  0  0  0
   -9.3127    2.9291    0.0000 C   0  0  0  0  0  0  0  0  0  0  0  0
  -10.8107    3.0070    0.0000 O   0  0  0  0  0  0  0  0  0  0  0  0
   -0.5946   -2.7273    0.0000 C   0  0  0  0  0  0  0  0  0  0  0  0
    0.2229   -3.9850    0.0000 C   0  0  0  0  0  0  0  0  0  0  0  0
    1.6716   -3.5962    0.0000 C   0  0  0  0  0  0  0  0  0  0  0  0
    1.7495   -2.0982    0.0000 C   0  0  0  0  0  0  0  0  0  0  0  0
    2.9148   -1.1537    0.0000 C   0  0  0  0  0  0  0  0  0  0  0  0
    4.3154   -1.6907    0.0000 C   0  0  0  0  0  0  0  0  0  0  0  0
    4.5507   -3.1721    0.0000 O   0  0  0  0  0  0  0  0  0  0  0  0
    5.4807   -0.7462    0.0000 C   0  0  0  0  0  0  0  0  0  0  0  0
    5.2455    0.7352    0.0000 C   0  0  0  0  0  0  0  0  0  0  0  0
    6.4108    1.6797    0.0000 C   0  0  0  0  0  0  0  0  0  0  0  0
    6.1755    3.1611    0.0000 C   0  0  0  0  0  0  0  0  0  0  0  0
    7.3408    4.1056    0.0000 O   0  0  0  0  0  0  0  0  0  0  0  0
    4.7749    3.6981    0.0000 C   0  0  0  0  0  0  0  0  0  0  0  0
    3.6096    2.7536    0.0000 C   0  0  0  0  0  0  0  0  0  0  0  0
    3.8449    1.2722    0.0000 C   0  0  0  0  0  0  0  0  0  0  0  0
    2.4443    1.8091    0.0000 C   0  0  0  0  0  0  0  0  0  0  0  0
    2.6795    0.3277    0.0000 C   0  0  0  0  0  0  0  0  0  0  0  0
    1.2789    0.8647    0.0000 C   0  0  0  0  0  0  0  0  0  0  0  0
    0.1136   -0.0798    0.0000 C   0  0  0  0  0  0  0  0  0  0  0  0
    0.3489   -1.5612    0.0000 C   0  0  0  0  0  0  0  0  0  0  0  0
   -1.1002   -1.1736    0.0000 C   0  0  0  0  0  0  0  0  0  0  0  0
  2  1  1  6
  2  3  1  0
  3  4  1  0
  4  5  1  0
  5  6  2  0
  5  7  1  0
  7  8  1  0
  8  9  1  0
  9 10  1  0
 10 11  1  0
  2 12  1  0
 12 13  1  6
 13 14  1  0
 15 14  1  6
 15 16  1  0
 16 17  1  1
 17 18  1  1
 17 19  1  0
 20 19  1  1
 20 21  1  0
 21 22  1  0
 22 23  1  1
 22 24  1  0
 24 25  1  0
 25 26  1  0
 26 27  1  6
 26 28  1  0
 28 29  1  6
 29 30  1  0
 30 31  1  0
 31 32  1  6
 31 12  1  0
 31 15  1  0
 28 16  1  0
 26 20  1  0
M  END
>  <MS_ID>  (711) 
MS0742

>  <SMILES>  (711) 
C[C@H](CCC(=O)CCCCO)[C@H]1CC[C@H]2[C@@H]3[C@H](O)C[C@@H]4C[C@H](O)CC[C@]4(C)[C@H]3CC[C@]12C

>  <Structure_dimension>  (711) 
2D

$$$$
MS0743
     RDKit          2D

 33 36  0  0  0  0  0  0  0  0999 V2000
   -2.7798   -3.8103    0.0000 C   0  0  0  0  0  0  0  0  0  0  0  0
   -1.9338   -2.5716    0.0000 C   0  0  0  0  0  0  0  0  0  0  0  0
   -2.5835   -1.2196    0.0000 C   0  0  0  0  0  0  0  0  0  0  0  0
   -4.0792   -1.1063    0.0000 C   0  0  0  0  0  0  0  0  0  0  0  0
   -4.7289    0.2457    0.0000 C   0  0  0  0  0  0  0  0  0  0  0  0
   -3.8829    1.4843    0.0000 O   0  0  0  0  0  0  0  0  0  0  0  0
   -6.2246    0.3590    0.0000 C   0  0  0  0  0  0  0  0  0  0  0  0
   -6.8743    1.7110    0.0000 C   0  0  0  0  0  0  0  0  0  0  0  0
   -8.3700    1.8244    0.0000 S   0  0  0  0  0  0  0  0  0  0  0  0
   -8.2567    3.3201    0.0000 O   0  0  0  0  0  0  0  0  0  0  0  0
   -8.4834    0.3287    0.0000 O   0  0  0  0  0  0  0  0  0  0  0  0
   -9.8657    1.9377    0.0000 O   0  0  0  0  0  0  0  0  0  0  0  0
   -0.4381   -2.6850    0.0000 C   0  0  0  0  0  0  0  0  0  0  0  0
    0.3494   -3.9617    0.0000 C   0  0  0  0  0  0  0  0  0  0  0  0
    1.8069   -3.6073    0.0000 C   0  0  0  0  0  0  0  0  0  0  0  0
    1.9202   -2.1116    0.0000 C   0  0  0  0  0  0  0  0  0  0  0  0
    3.1076   -1.1950    0.0000 C   0  0  0  0  0  0  0  0  0  0  0  0
    4.4951   -1.7650    0.0000 C   0  0  0  0  0  0  0  0  0  0  0  0
    4.6952   -3.2515    0.0000 O   0  0  0  0  0  0  0  0  0  0  0  0
    5.6825   -0.8484    0.0000 C   0  0  0  0  0  0  0  0  0  0  0  0
    5.4824    0.6382    0.0000 C   0  0  0  0  0  0  0  0  0  0  0  0
    6.6697    1.5548    0.0000 C   0  0  0  0  0  0  0  0  0  0  0  0
    6.4696    3.0414    0.0000 C   0  0  0  0  0  0  0  0  0  0  0  0
    7.6570    3.9580    0.0000 O   0  0  0  0  0  0  0  0  0  0  0  0
    5.0821    3.6114    0.0000 C   0  0  0  0  0  0  0  0  0  0  0  0
    3.8948    2.6948    0.0000 C   0  0  0  0  0  0  0  0  0  0  0  0
    4.0949    1.2082    0.0000 C   0  0  0  0  0  0  0  0  0  0  0  0
    2.7074    1.7782    0.0000 C   0  0  0  0  0  0  0  0  0  0  0  0
    2.9075    0.2916    0.0000 C   0  0  0  0  0  0  0  0  0  0  0  0
    1.5200    0.8616    0.0000 C   0  0  0  0  0  0  0  0  0  0  0  0
    0.3327   -0.0550    0.0000 C   0  0  0  0  0  0  0  0  0  0  0  0
    0.5328   -1.5416    0.0000 C   0  0  0  0  0  0  0  0  0  0  0  0
   -0.9067   -1.1197    0.0000 C   0  0  0  0  0  0  0  0  0  0  0  0
  2  1  1  6
  2  3  1  0
  3  4  1  0
  4  5  1  0
  5  6  2  0
  5  7  1  0
  7  8  1  0
  8  9  1  0
  9 10  2  0
  9 11  2  0
  9 12  1  0
  2 13  1  0
 13 14  1  6
 14 15  1  0
 16 15  1  6
 16 17  1  0
 17 18  1  1
 18 19  1  1
 18 20  1  0
 21 20  1  1
 21 22  1  0
 22 23  1  0
 23 24  1  1
 23 25  1  0
 25 26  1  0
 26 27  1  0
 27 28  1  6
 27 29  1  0
 29 30  1  6
 30 31  1  0
 31 32  1  0
 32 33  1  6
 32 13  1  0
 32 16  1  0
 29 17  1  0
 27 21  1  0
M  END
>  <MS_ID>  (712) 
MS0743

>  <SMILES>  (712) 
C[C@H](CCC(=O)CCS(=O)(=O)O)[C@H]1CC[C@H]2[C@@H]3[C@H](O)C[C@@H]4C[C@H](O)CC[C@]4(C)[C@H]3CC[C@]12C

>  <Structure_dimension>  (712) 
2D

$$$$
MS0744
     RDKit          2D

 32 35  0  0  0  0  0  0  0  0999 V2000
   -3.4546   -3.6059    0.0000 C   0  0  0  0  0  0  0  0  0  0  0  0
   -2.5561   -2.4048    0.0000 C   0  0  0  0  0  0  0  0  0  0  0  0
   -3.1471   -1.0261    0.0000 C   0  0  0  0  0  0  0  0  0  0  0  0
   -4.6366   -0.8486    0.0000 C   0  0  0  0  0  0  0  0  0  0  0  0
   -5.2276    0.5301    0.0000 C   0  0  0  0  0  0  0  0  0  0  0  0
   -4.3291    1.7312    0.0000 O   0  0  0  0  0  0  0  0  0  0  0  0
   -6.7170    0.7076    0.0000 C   0  0  0  0  0  0  0  0  0  0  0  0
   -7.3080    2.0863    0.0000 C   0  0  0  0  0  0  0  0  0  0  0  0
   -8.7975    2.2638    0.0000 C   0  0  0  0  0  0  0  0  0  0  0  0
   -9.3885    3.6424    0.0000 O   0  0  0  0  0  0  0  0  0  0  0  0
   -1.0667   -2.5823    0.0000 C   0  0  0  0  0  0  0  0  0  0  0  0
   -0.3348   -3.8917    0.0000 C   0  0  0  0  0  0  0  0  0  0  0  0
    1.1366   -3.6002    0.0000 C   0  0  0  0  0  0  0  0  0  0  0  0
    1.3141   -2.1108    0.0000 C   0  0  0  0  0  0  0  0  0  0  0  0
    2.5398   -1.2460    0.0000 C   0  0  0  0  0  0  0  0  0  0  0  0
    3.9015   -1.8751    0.0000 C   0  0  0  0  0  0  0  0  0  0  0  0
    4.0375   -3.3690    0.0000 O   0  0  0  0  0  0  0  0  0  0  0  0
    5.1272   -1.0104    0.0000 C   0  0  0  0  0  0  0  0  0  0  0  0
    4.9911    0.4834    0.0000 C   0  0  0  0  0  0  0  0  0  0  0  0
    6.2168    1.3481    0.0000 C   0  0  0  0  0  0  0  0  0  0  0  0
    6.0808    2.8419    0.0000 C   0  0  0  0  0  0  0  0  0  0  0  0
    7.3064    3.7067    0.0000 O   0  0  0  0  0  0  0  0  0  0  0  0
    4.7191    3.4710    0.0000 C   0  0  0  0  0  0  0  0  0  0  0  0
    3.4934    2.6063    0.0000 C   0  0  0  0  0  0  0  0  0  0  0  0
    3.6294    1.1125    0.0000 C   0  0  0  0  0  0  0  0  0  0  0  0
    2.2677    1.7416    0.0000 C   0  0  0  0  0  0  0  0  0  0  0  0
    2.4038    0.2478    0.0000 C   0  0  0  0  0  0  0  0  0  0  0  0
    1.0421    0.8769    0.0000 C   0  0  0  0  0  0  0  0  0  0  0  0
   -0.1836    0.0122    0.0000 C   0  0  0  0  0  0  0  0  0  0  0  0
   -1.5453    0.6413    0.0000 O   0  0  0  0  0  0  0  0  0  0  0  0
   -0.0476   -1.4817    0.0000 C   0  0  0  0  0  0  0  0  0  0  0  0
   -1.4676   -0.9983    0.0000 C   0  0  0  0  0  0  0  0  0  0  0  0
  2  1  1  6
  2  3  1  0
  3  4  1  0
  4  5  1  0
  5  6  2  0
  5  7  1  0
  7  8  1  0
  8  9  1  0
  9 10  1  0
  2 11  1  0
 11 12  1  6
 12 13  1  0
 14 13  1  6
 14 15  1  0
 15 16  1  1
 16 17  1  1
 16 18  1  0
 19 18  1  1
 19 20  1  0
 20 21  1  0
 21 22  2  0
 21 23  1  0
 23 24  1  0
 24 25  1  0
 25 26  1  6
 25 27  1  0
 27 28  1  6
 28 29  1  0
 29 30  1  1
 29 31  1  0
 31 32  1  6
 31 11  1  0
 31 14  1  0
 27 15  1  0
 25 19  1  0
M  END
>  <MS_ID>  (713) 
MS0744

>  <SMILES>  (713) 
C[C@H](CCC(=O)CCCO)[C@H]1CC[C@H]2[C@@H]3[C@H](O)C[C@@H]4CC(=O)CC[C@]4(C)[C@H]3C[C@H](O)[C@]12C

>  <Structure_dimension>  (713) 
2D

$$$$
MS0745
     RDKit          2D

 30 33  0  0  0  0  0  0  0  0999 V2000
   -4.5685   -2.6908    0.0000 C   0  0  0  0  0  0  0  0  0  0  0  0
   -3.4838   -1.6548    0.0000 C   0  0  0  0  0  0  0  0  0  0  0  0
   -3.8388   -0.1974    0.0000 C   0  0  0  0  0  0  0  0  0  0  0  0
   -5.2784    0.2240    0.0000 C   0  0  0  0  0  0  0  0  0  0  0  0
   -5.6333    1.6814    0.0000 C   0  0  0  0  0  0  0  0  0  0  0  0
   -4.5486    2.7174    0.0000 O   0  0  0  0  0  0  0  0  0  0  0  0
   -7.0729    2.1027    0.0000 N   0  0  0  0  0  0  0  0  0  0  0  0
   -7.4279    3.5601    0.0000 O   0  0  0  0  0  0  0  0  0  0  0  0
   -2.0442   -2.0761    0.0000 C   0  0  0  0  0  0  0  0  0  0  0  0
   -1.5389   -3.4884    0.0000 C   0  0  0  0  0  0  0  0  0  0  0  0
   -0.0395   -3.4442    0.0000 C   0  0  0  0  0  0  0  0  0  0  0  0
    0.3818   -2.0046    0.0000 C   0  0  0  0  0  0  0  0  0  0  0  0
    1.7336   -1.3544    0.0000 C   0  0  0  0  0  0  0  0  0  0  0  0
    2.9725   -2.1999    0.0000 C   0  0  0  0  0  0  0  0  0  0  0  0
    2.8597   -3.6957    0.0000 O   0  0  0  0  0  0  0  0  0  0  0  0
    4.3243   -1.5497    0.0000 C   0  0  0  0  0  0  0  0  0  0  0  0
    4.4371   -0.0540    0.0000 C   0  0  0  0  0  0  0  0  0  0  0  0
    5.7888    0.5962    0.0000 C   0  0  0  0  0  0  0  0  0  0  0  0
    5.9016    2.0920    0.0000 C   0  0  0  0  0  0  0  0  0  0  0  0
    7.2534    2.7422    0.0000 O   0  0  0  0  0  0  0  0  0  0  0  0
    4.6627    2.9375    0.0000 C   0  0  0  0  0  0  0  0  0  0  0  0
    3.3109    2.2873    0.0000 C   0  0  0  0  0  0  0  0  0  0  0  0
    3.1981    0.7916    0.0000 C   0  0  0  0  0  0  0  0  0  0  0  0
    1.9591    1.6371    0.0000 C   0  0  0  0  0  0  0  0  0  0  0  0
    1.8464    0.1414    0.0000 C   0  0  0  0  0  0  0  0  0  0  0  0
    0.6074    0.9869    0.0000 C   0  0  0  0  0  0  0  0  0  0  0  0
   -0.7444    0.3367    0.0000 C   0  0  0  0  0  0  0  0  0  0  0  0
   -1.9833    1.1823    0.0000 O   0  0  0  0  0  0  0  0  0  0  0  0
   -0.8572   -1.1590    0.0000 C   0  0  0  0  0  0  0  0  0  0  0  0
   -2.1777   -0.4476    0.0000 C   0  0  0  0  0  0  0  0  0  0  0  0
  2  1  1  6
  2  3  1  0
  3  4  1  0
  4  5  1  0
  5  6  2  0
  5  7  1  0
  7  8  1  0
  2  9  1  0
  9 10  1  6
 10 11  1  0
 12 11  1  6
 12 13  1  0
 13 14  1  1
 14 15  1  1
 14 16  1  0
 17 16  1  1
 17 18  1  0
 18 19  1  0
 19 20  2  0
 19 21  1  0
 21 22  1  0
 22 23  1  0
 23 24  1  6
 23 25  1  0
 25 26  1  6
 26 27  1  0
 27 28  1  1
 27 29  1  0
 29 30  1  6
 29  9  1  0
 29 12  1  0
 25 13  1  0
 23 17  1  0
M  END
>  <MS_ID>  (714) 
MS0745

>  <SMILES>  (714) 
C[C@H](CCC(=O)NO)[C@H]1CC[C@H]2[C@@H]3[C@H](O)C[C@@H]4CC(=O)CC[C@]4(C)[C@H]3C[C@H](O)[C@]12C

>  <Structure_dimension>  (714) 
2D

$$$$
MS0746
     RDKit          2D

 30 33  0  0  0  0  0  0  0  0999 V2000
   -7.4279    3.5601    0.0000 C   0  0  0  0  0  0  0  0  0  0  0  0
   -7.0729    2.1027    0.0000 O   0  0  0  0  0  0  0  0  0  0  0  0
   -5.6333    1.6814    0.0000 C   0  0  0  0  0  0  0  0  0  0  0  0
   -4.5486    2.7174    0.0000 O   0  0  0  0  0  0  0  0  0  0  0  0
   -5.2784    0.2240    0.0000 C   0  0  0  0  0  0  0  0  0  0  0  0
   -3.8388   -0.1974    0.0000 C   0  0  0  0  0  0  0  0  0  0  0  0
   -3.4838   -1.6548    0.0000 C   0  0  0  0  0  0  0  0  0  0  0  0
   -4.5685   -2.6908    0.0000 C   0  0  0  0  0  0  0  0  0  0  0  0
   -2.0442   -2.0761    0.0000 C   0  0  0  0  0  0  0  0  0  0  0  0
   -1.5389   -3.4884    0.0000 C   0  0  0  0  0  0  0  0  0  0  0  0
   -0.0395   -3.4442    0.0000 C   0  0  0  0  0  0  0  0  0  0  0  0
    0.3818   -2.0046    0.0000 C   0  0  0  0  0  0  0  0  0  0  0  0
    1.7336   -1.3544    0.0000 C   0  0  0  0  0  0  0  0  0  0  0  0
    2.9725   -2.1999    0.0000 C   0  0  0  0  0  0  0  0  0  0  0  0
    2.8597   -3.6957    0.0000 O   0  0  0  0  0  0  0  0  0  0  0  0
    4.3243   -1.5497    0.0000 C   0  0  0  0  0  0  0  0  0  0  0  0
    4.4371   -0.0540    0.0000 C   0  0  0  0  0  0  0  0  0  0  0  0
    5.7888    0.5962    0.0000 C   0  0  0  0  0  0  0  0  0  0  0  0
    5.9016    2.0920    0.0000 C   0  0  0  0  0  0  0  0  0  0  0  0
    7.2534    2.7422    0.0000 O   0  0  0  0  0  0  0  0  0  0  0  0
    4.6627    2.9375    0.0000 C   0  0  0  0  0  0  0  0  0  0  0  0
    3.3109    2.2873    0.0000 C   0  0  0  0  0  0  0  0  0  0  0  0
    3.1981    0.7916    0.0000 C   0  0  0  0  0  0  0  0  0  0  0  0
    1.9591    1.6371    0.0000 C   0  0  0  0  0  0  0  0  0  0  0  0
    1.8464    0.1414    0.0000 C   0  0  0  0  0  0  0  0  0  0  0  0
    0.6074    0.9869    0.0000 C   0  0  0  0  0  0  0  0  0  0  0  0
   -0.7444    0.3367    0.0000 C   0  0  0  0  0  0  0  0  0  0  0  0
   -1.9833    1.1823    0.0000 O   0  0  0  0  0  0  0  0  0  0  0  0
   -0.8572   -1.1590    0.0000 C   0  0  0  0  0  0  0  0  0  0  0  0
   -2.1777   -0.4476    0.0000 C   0  0  0  0  0  0  0  0  0  0  0  0
  1  2  1  0
  2  3  1  0
  3  4  2  0
  3  5  1  0
  5  6  1  0
  6  7  1  0
  7  8  1  6
  7  9  1  0
  9 10  1  6
 10 11  1  0
 12 11  1  6
 12 13  1  0
 13 14  1  1
 14 15  1  1
 14 16  1  0
 17 16  1  1
 17 18  1  0
 18 19  1  0
 19 20  2  0
 19 21  1  0
 21 22  1  0
 22 23  1  0
 23 24  1  6
 23 25  1  0
 25 26  1  6
 26 27  1  0
 27 28  1  1
 27 29  1  0
 29 30  1  6
 29  9  1  0
 29 12  1  0
 25 13  1  0
 23 17  1  0
M  END
>  <MS_ID>  (715) 
MS0746

>  <SMILES>  (715) 
COC(=O)CC[C@@H](C)[C@H]1CC[C@H]2[C@@H]3[C@H](O)C[C@@H]4CC(=O)CC[C@]4(C)[C@H]3C[C@H](O)[C@]12C

>  <Structure_dimension>  (715) 
2D

$$$$
MS0747
     RDKit          2D

 32 35  0  0  0  0  0  0  0  0999 V2000
   -4.6321   -2.8439    0.0000 C   0  0  0  0  0  0  0  0  0  0  0  0
   -3.4960   -1.8645    0.0000 C   0  0  0  0  0  0  0  0  0  0  0  0
   -3.7761   -0.3909    0.0000 C   0  0  0  0  0  0  0  0  0  0  0  0
   -5.1923    0.1033    0.0000 C   0  0  0  0  0  0  0  0  0  0  0  0
   -5.4724    1.5769    0.0000 C   0  0  0  0  0  0  0  0  0  0  0  0
   -4.3363    2.5563    0.0000 O   0  0  0  0  0  0  0  0  0  0  0  0
   -6.8887    2.0711    0.0000 O   0  0  0  0  0  0  0  0  0  0  0  0
   -2.0797   -2.3588    0.0000 C   0  0  0  0  0  0  0  0  0  0  0  0
   -1.6471   -3.7950    0.0000 C   0  0  0  0  0  0  0  0  0  0  0  0
   -0.1475   -3.8274    0.0000 C   0  0  0  0  0  0  0  0  0  0  0  0
    0.3468   -2.4112    0.0000 C   0  0  0  0  0  0  0  0  0  0  0  0
    1.7299   -1.8308    0.0000 C   0  0  0  0  0  0  0  0  0  0  0  0
    2.9241   -2.7385    0.0000 C   0  0  0  0  0  0  0  0  0  0  0  0
    4.3073   -2.1581    0.0000 C   0  0  0  0  0  0  0  0  0  0  0  0
    4.4963   -0.6700    0.0000 C   0  0  0  0  0  0  0  0  0  0  0  0
    5.8795   -0.0896    0.0000 C   0  0  0  0  0  0  0  0  0  0  0  0
    6.0684    1.3984    0.0000 C   0  0  0  0  0  0  0  0  0  0  0  0
    7.4516    1.9788    0.0000 O   0  0  0  0  0  0  0  0  0  0  0  0
    4.8742    2.3061    0.0000 C   0  0  0  0  0  0  0  0  0  0  0  0
    3.4910    1.7257    0.0000 C   0  0  0  0  0  0  0  0  0  0  0  0
    3.3021    0.2376    0.0000 C   0  0  0  0  0  0  0  0  0  0  0  0
    2.1079    1.1453    0.0000 C   0  0  0  0  0  0  0  0  0  0  0  0
    1.9189   -0.3427    0.0000 C   0  0  0  0  0  0  0  0  0  0  0  0
    0.7247    0.5649    0.0000 C   0  0  0  0  0  0  0  0  0  0  0  0
   -0.6585   -0.0154    0.0000 C   0  0  0  0  0  0  0  0  0  0  0  0
   -1.8527    0.8922    0.0000 O   0  0  0  0  0  0  0  0  0  0  0  0
   -1.6637    2.3803    0.0000 S   0  0  0  0  0  0  0  0  0  0  0  0
   -0.1757    2.1913    0.0000 O   0  0  0  0  0  0  0  0  0  0  0  0
   -3.1518    2.5693    0.0000 O   0  0  0  0  0  0  0  0  0  0  0  0
   -1.4748    3.8683    0.0000 O   0  0  0  0  0  0  0  0  0  0  0  0
   -0.8474   -1.5035    0.0000 C   0  0  0  0  0  0  0  0  0  0  0  0
   -2.1300   -0.7256    0.0000 C   0  0  0  0  0  0  0  0  0  0  0  0
  2  1  1  6
  2  3  1  0
  3  4  1  0
  4  5  1  0
  5  6  2  0
  5  7  1  0
  2  8  1  0
  8  9  1  6
  9 10  1  0
 11 10  1  6
 11 12  1  0
 12 13  1  1
 13 14  1  0
 15 14  1  1
 15 16  1  0
 16 17  1  0
 17 18  1  1
 17 19  1  0
 19 20  1  0
 20 21  1  0
 21 22  1  6
 21 23  1  0
 23 24  1  6
 24 25  1  0
 25 26  1  6
 26 27  1  0
 27 28  2  0
 27 29  2  0
 27 30  1  0
 25 31  1  0
 31 32  1  6
 31  8  1  0
 31 11  1  0
 23 12  1  0
 21 15  1  0
M  END
>  <MS_ID>  (716) 
MS0747

>  <SMILES>  (716) 
C[C@H](CCC(=O)O)[C@H]1CC[C@H]2[C@@H]3CC[C@@H]4C[C@H](O)CC[C@]4(C)[C@H]3C[C@@H](OS(=O)(=O)O)[C@]12C

>  <Structure_dimension>  (716) 
2D

$$$$
MS0748
     RDKit          2D

 32 35  0  0  0  0  0  0  0  0999 V2000
   -3.6687   -3.7654    0.0000 C   0  0  0  0  0  0  0  0  0  0  0  0
   -2.7694   -2.5649    0.0000 C   0  0  0  0  0  0  0  0  0  0  0  0
   -3.3594   -1.1858    0.0000 C   0  0  0  0  0  0  0  0  0  0  0  0
   -4.8488   -1.0072    0.0000 C   0  0  0  0  0  0  0  0  0  0  0  0
   -5.4388    0.3718    0.0000 C   0  0  0  0  0  0  0  0  0  0  0  0
   -6.9281    0.5504    0.0000 O   0  0  0  0  0  0  0  0  0  0  0  0
   -4.5395    1.5724    0.0000 O   0  0  0  0  0  0  0  0  0  0  0  0
   -5.1295    2.9514    0.0000 P   0  0  0  0  0  0  0  0  0  0  0  0
   -3.7505    3.5415    0.0000 O   0  0  0  0  0  0  0  0  0  0  0  0
   -6.5086    2.3614    0.0000 O   0  0  0  0  0  0  0  0  0  0  0  0
   -5.7196    4.3305    0.0000 O   0  0  0  0  0  0  0  0  0  0  0  0
   -1.2801   -2.7434    0.0000 C   0  0  0  0  0  0  0  0  0  0  0  0
   -0.5491   -4.0533    0.0000 C   0  0  0  0  0  0  0  0  0  0  0  0
    0.9225   -3.7629    0.0000 C   0  0  0  0  0  0  0  0  0  0  0  0
    1.1011   -2.2735    0.0000 C   0  0  0  0  0  0  0  0  0  0  0  0
    2.3273   -1.4097    0.0000 C   0  0  0  0  0  0  0  0  0  0  0  0
    3.6886   -2.0397    0.0000 C   0  0  0  0  0  0  0  0  0  0  0  0
    3.8236   -3.5336    0.0000 O   0  0  0  0  0  0  0  0  0  0  0  0
    4.9149   -1.1759    0.0000 C   0  0  0  0  0  0  0  0  0  0  0  0
    4.7799    0.3181    0.0000 C   0  0  0  0  0  0  0  0  0  0  0  0
    6.0061    1.1819    0.0000 C   0  0  0  0  0  0  0  0  0  0  0  0
    5.8711    2.6758    0.0000 C   0  0  0  0  0  0  0  0  0  0  0  0
    7.0974    3.5397    0.0000 O   0  0  0  0  0  0  0  0  0  0  0  0
    4.5099    3.3059    0.0000 C   0  0  0  0  0  0  0  0  0  0  0  0
    3.2836    2.4420    0.0000 C   0  0  0  0  0  0  0  0  0  0  0  0
    3.4186    0.9481    0.0000 C   0  0  0  0  0  0  0  0  0  0  0  0
    2.0573    1.5782    0.0000 C   0  0  0  0  0  0  0  0  0  0  0  0
    2.1923    0.0842    0.0000 C   0  0  0  0  0  0  0  0  0  0  0  0
    0.8311    0.7143    0.0000 C   0  0  0  0  0  0  0  0  0  0  0  0
   -0.3952   -0.1496    0.0000 C   0  0  0  0  0  0  0  0  0  0  0  0
   -0.2602   -1.6435    0.0000 C   0  0  0  0  0  0  0  0  0  0  0  0
   -1.6799   -1.1592    0.0000 C   0  0  0  0  0  0  0  0  0  0  0  0
  2  1  1  6
  2  3  1  0
  3  4  1  0
  4  5  1  0
  5  6  2  0
  5  7  1  0
  7  8  1  0
  8  9  2  0
  8 10  1  0
  8 11  1  0
  2 12  1  0
 12 13  1  6
 13 14  1  0
 15 14  1  6
 15 16  1  0
 16 17  1  1
 17 18  1  6
 17 19  1  0
 20 19  1  1
 20 21  1  0
 21 22  1  0
 22 23  1  1
 22 24  1  0
 24 25  1  0
 25 26  1  0
 26 27  1  6
 26 28  1  0
 28 29  1  6
 29 30  1  0
 30 31  1  0
 31 32  1  6
 31 12  1  0
 31 15  1  0
 28 16  1  0
 26 20  1  0
M  END
>  <MS_ID>  (717) 
MS0748

>  <SMILES>  (717) 
C[C@H](CCC(=O)OP(=O)(O)O)[C@H]1CC[C@H]2[C@@H]3[C@@H](O)C[C@@H]4C[C@H](O)CC[C@]4(C)[C@H]3CC[C@]12C

>  <Structure_dimension>  (717) 
2D

$$$$
MS0749
     RDKit          2D

 30 33  0  0  0  0  0  0  0  0999 V2000
   -4.0199   -3.1584    0.0000 C   0  0  0  0  0  0  0  0  0  0  0  0
   -2.9902   -2.0677    0.0000 C   0  0  0  0  0  0  0  0  0  0  0  0
   -3.4199   -0.6306    0.0000 C   0  0  0  0  0  0  0  0  0  0  0  0
   -4.8793   -0.2841    0.0000 C   0  0  0  0  0  0  0  0  0  0  0  0
   -5.3090    1.1530    0.0000 C   0  0  0  0  0  0  0  0  0  0  0  0
   -4.2792    2.2437    0.0000 O   0  0  0  0  0  0  0  0  0  0  0  0
   -6.7684    1.4995    0.0000 C   0  0  0  0  0  0  0  0  0  0  0  0
   -7.1981    2.9366    0.0000 C   0  0  0  0  0  0  0  0  0  0  0  0
   -8.6575    3.2831    0.0000 O   0  0  0  0  0  0  0  0  0  0  0  0
   -1.5307   -2.4142    0.0000 C   0  0  0  0  0  0  0  0  0  0  0  0
   -0.9532   -3.7985    0.0000 C   0  0  0  0  0  0  0  0  0  0  0  0
    0.5419   -3.6770    0.0000 C   0  0  0  0  0  0  0  0  0  0  0  0
    0.8883   -2.2176    0.0000 C   0  0  0  0  0  0  0  0  0  0  0  0
    2.2047   -1.4985    0.0000 C   0  0  0  0  0  0  0  0  0  0  0  0
    3.4857   -2.2790    0.0000 C   0  0  0  0  0  0  0  0  0  0  0  0
    4.8021   -1.5599    0.0000 C   0  0  0  0  0  0  0  0  0  0  0  0
    4.8375   -0.0603    0.0000 C   0  0  0  0  0  0  0  0  0  0  0  0
    6.1539    0.6588    0.0000 C   0  0  0  0  0  0  0  0  0  0  0  0
    6.1894    2.1583    0.0000 C   0  0  0  0  0  0  0  0  0  0  0  0
    7.5058    2.8774    0.0000 O   0  0  0  0  0  0  0  0  0  0  0  0
    4.9084    2.9388    0.0000 C   0  0  0  0  0  0  0  0  0  0  0  0
    3.5920    2.2197    0.0000 C   0  0  0  0  0  0  0  0  0  0  0  0
    3.5566    0.7202    0.0000 C   0  0  0  0  0  0  0  0  0  0  0  0
    2.2756    1.5007    0.0000 C   0  0  0  0  0  0  0  0  0  0  0  0
    2.2402    0.0011    0.0000 C   0  0  0  0  0  0  0  0  0  0  0  0
    0.9592    0.7816    0.0000 C   0  0  0  0  0  0  0  0  0  0  0  0
   -0.3572    0.0625    0.0000 C   0  0  0  0  0  0  0  0  0  0  0  0
   -1.6381    0.8430    0.0000 O   0  0  0  0  0  0  0  0  0  0  0  0
   -0.3926   -1.4371    0.0000 C   0  0  0  0  0  0  0  0  0  0  0  0
   -1.7481   -0.7948    0.0000 C   0  0  0  0  0  0  0  0  0  0  0  0
  2  1  1  6
  2  3  1  0
  3  4  1  0
  4  5  1  0
  5  6  2  0
  5  7  1  0
  7  8  1  0
  8  9  1  0
  2 10  1  0
 10 11  1  6
 11 12  1  0
 13 12  1  6
 13 14  1  0
 14 15  1  1
 15 16  1  0
 17 16  1  1
 17 18  1  0
 18 19  1  0
 19 20  1  6
 19 21  1  0
 21 22  1  0
 22 23  1  0
 23 24  1  6
 23 25  1  0
 25 26  1  6
 26 27  1  0
 27 28  1  1
 27 29  1  0
 29 30  1  6
 29 10  1  0
 29 13  1  0
 25 14  1  0
 23 17  1  0
M  END
>  <MS_ID>  (718) 
MS0749

>  <SMILES>  (718) 
C[C@H](CCC(=O)CCO)[C@H]1CC[C@H]2[C@@H]3CC[C@@H]4C[C@@H](O)CC[C@]4(C)[C@H]3C[C@H](O)[C@]12C

>  <Structure_dimension>  (718) 
2D

$$$$
MS0750
     RDKit          2D

 30 33  0  0  0  0  0  0  0  0999 V2000
   -3.5909   -3.2894    0.0000 C   0  0  0  0  0  0  0  0  0  0  0  0
   -2.6685   -2.1066    0.0000 C   0  0  0  0  0  0  0  0  0  0  0  0
   -3.2316   -0.7163    0.0000 C   0  0  0  0  0  0  0  0  0  0  0  0
   -4.7172   -0.5088    0.0000 C   0  0  0  0  0  0  0  0  0  0  0  0
   -5.2803    0.8815    0.0000 C   0  0  0  0  0  0  0  0  0  0  0  0
   -4.3578    2.0643    0.0000 O   0  0  0  0  0  0  0  0  0  0  0  0
   -6.7659    1.0889    0.0000 C   0  0  0  0  0  0  0  0  0  0  0  0
   -7.3290    2.4792    0.0000 C   0  0  0  0  0  0  0  0  0  0  0  0
   -8.8146    2.6867    0.0000 O   0  0  0  0  0  0  0  0  0  0  0  0
   -1.1829   -2.3140    0.0000 C   0  0  0  0  0  0  0  0  0  0  0  0
   -0.4775   -3.6378    0.0000 C   0  0  0  0  0  0  0  0  0  0  0  0
    0.9995   -3.3760    0.0000 C   0  0  0  0  0  0  0  0  0  0  0  0
    1.2069   -1.8905    0.0000 C   0  0  0  0  0  0  0  0  0  0  0  0
    2.4498   -1.0506    0.0000 C   0  0  0  0  0  0  0  0  0  0  0  0
    3.7985   -1.7070    0.0000 C   0  0  0  0  0  0  0  0  0  0  0  0
    3.9045   -3.2032    0.0000 O   0  0  0  0  0  0  0  0  0  0  0  0
    5.0414   -0.8671    0.0000 C   0  0  0  0  0  0  0  0  0  0  0  0
    4.9354    0.6292    0.0000 C   0  0  0  0  0  0  0  0  0  0  0  0
    6.1782    1.4691    0.0000 C   0  0  0  0  0  0  0  0  0  0  0  0
    6.0723    2.9653    0.0000 C   0  0  0  0  0  0  0  0  0  0  0  0
    4.7235    3.6217    0.0000 C   0  0  0  0  0  0  0  0  0  0  0  0
    3.4807    2.7818    0.0000 C   0  0  0  0  0  0  0  0  0  0  0  0
    3.5866    1.2856    0.0000 C   0  0  0  0  0  0  0  0  0  0  0  0
    2.2379    1.9419    0.0000 C   0  0  0  0  0  0  0  0  0  0  0  0
    2.3438    0.4457    0.0000 C   0  0  0  0  0  0  0  0  0  0  0  0
    0.9950    1.1020    0.0000 C   0  0  0  0  0  0  0  0  0  0  0  0
   -0.2478    0.2622    0.0000 C   0  0  0  0  0  0  0  0  0  0  0  0
   -1.5965    0.9185    0.0000 O   0  0  0  0  0  0  0  0  0  0  0  0
   -0.1418   -1.2341    0.0000 C   0  0  0  0  0  0  0  0  0  0  0  0
   -1.5518   -0.7223    0.0000 C   0  0  0  0  0  0  0  0  0  0  0  0
  2  1  1  6
  2  3  1  0
  3  4  1  0
  4  5  1  0
  5  6  2  0
  5  7  1  0
  7  8  1  0
  8  9  1  0
  2 10  1  0
 10 11  1  6
 11 12  1  0
 13 12  1  6
 13 14  1  0
 14 15  1  1
 15 16  1  1
 15 17  1  0
 18 17  1  1
 18 19  1  0
 19 20  1  0
 20 21  1  0
 21 22  1  0
 22 23  1  0
 23 24  1  6
 23 25  1  0
 25 26  1  6
 26 27  1  0
 27 28  1  6
 27 29  1  0
 29 30  1  6
 29 10  1  0
 29 13  1  0
 25 14  1  0
 23 18  1  0
M  END
>  <MS_ID>  (719) 
MS0750

>  <SMILES>  (719) 
C[C@H](CCC(=O)CCO)[C@H]1CC[C@H]2[C@@H]3[C@H](O)C[C@@H]4CCCC[C@]4(C)[C@H]3C[C@@H](O)[C@]12C

>  <Structure_dimension>  (719) 
2D

$$$$
MS0751
     RDKit          2D

 40 44  0  0  0  0  0  0  0  0999 V2000
   -7.9284   -1.9657    0.0000 C   0  0  0  0  0  0  0  0  0  0  0  0
   -6.7513   -1.0359    0.0000 C   0  0  0  0  0  0  0  0  0  0  0  0
   -6.9680    0.4484    0.0000 C   0  0  0  0  0  0  0  0  0  0  0  0
   -8.3617    1.0028    0.0000 C   0  0  0  0  0  0  0  0  0  0  0  0
   -8.5784    2.4871    0.0000 C   0  0  0  0  0  0  0  0  0  0  0  0
   -7.4014    3.4169    0.0000 O   0  0  0  0  0  0  0  0  0  0  0  0
   -9.9722    3.0416    0.0000 O   0  0  0  0  0  0  0  0  0  0  0  0
   -5.3575   -1.5904    0.0000 C   0  0  0  0  0  0  0  0  0  0  0  0
   -4.9869   -3.0439    0.0000 C   0  0  0  0  0  0  0  0  0  0  0  0
   -3.4900   -3.1405    0.0000 C   0  0  0  0  0  0  0  0  0  0  0  0
   -2.9355   -1.7467    0.0000 C   0  0  0  0  0  0  0  0  0  0  0  0
   -1.5288   -1.2262    0.0000 C   0  0  0  0  0  0  0  0  0  0  0  0
   -0.3746   -2.1842    0.0000 C   0  0  0  0  0  0  0  0  0  0  0  0
   -0.6271   -3.6628    0.0000 O   0  0  0  0  0  0  0  0  0  0  0  0
    1.0322   -1.6637    0.0000 C   0  0  0  0  0  0  0  0  0  0  0  0
    2.1864   -2.6217    0.0000 O   0  0  0  0  0  0  0  0  0  0  0  0
    1.2848   -0.1851    0.0000 C   0  0  0  0  0  0  0  0  0  0  0  0
    2.6916    0.3355    0.0000 C   0  0  0  0  0  0  0  0  0  0  0  0
    2.9442    1.8140    0.0000 C   0  0  0  0  0  0  0  0  0  0  0  0
    4.3509    2.3346    0.0000 O   0  0  0  0  0  0  0  0  0  0  0  0
    5.5051    1.3766    0.0000 C   0  0  0  0  0  0  0  0  0  0  0  0
    5.2526   -0.1020    0.0000 O   0  0  0  0  0  0  0  0  0  0  0  0
    6.4068   -1.0601    0.0000 C   0  0  0  0  0  0  0  0  0  0  0  0
    6.1542   -2.5386    0.0000 C   0  0  0  0  0  0  0  0  0  0  0  0
    4.7474   -3.0592    0.0000 O   0  0  0  0  0  0  0  0  0  0  0  0
    7.8135   -0.5395    0.0000 C   0  0  0  0  0  0  0  0  0  0  0  0
    8.9677   -1.4975    0.0000 O   0  0  0  0  0  0  0  0  0  0  0  0
    8.0661    0.9391    0.0000 C   0  0  0  0  0  0  0  0  0  0  0  0
    9.4729    1.4596    0.0000 O   0  0  0  0  0  0  0  0  0  0  0  0
    6.9119    1.8971    0.0000 C   0  0  0  0  0  0  0  0  0  0  0  0
    7.1645    3.3757    0.0000 O   0  0  0  0  0  0  0  0  0  0  0  0
    1.7900    2.7721    0.0000 C   0  0  0  0  0  0  0  0  0  0  0  0
    0.3832    2.2515    0.0000 C   0  0  0  0  0  0  0  0  0  0  0  0
    0.1306    0.7729    0.0000 C   0  0  0  0  0  0  0  0  0  0  0  0
   -1.0236    1.7310    0.0000 C   0  0  0  0  0  0  0  0  0  0  0  0
   -1.2762    0.2524    0.0000 C   0  0  0  0  0  0  0  0  0  0  0  0
   -2.4304    1.2104    0.0000 C   0  0  0  0  0  0  0  0  0  0  0  0
   -3.8372    0.6899    0.0000 C   0  0  0  0  0  0  0  0  0  0  0  0
   -4.0897   -0.7887    0.0000 C   0  0  0  0  0  0  0  0  0  0  0  0
   -5.3378    0.0434    0.0000 C   0  0  0  0  0  0  0  0  0  0  0  0
  2  1  1  6
  2  3  1  0
  3  4  1  0
  4  5  1  0
  5  6  2  0
  5  7  1  0
  2  8  1  0
  8  9  1  6
  9 10  1  0
 11 10  1  6
 11 12  1  0
 12 13  1  1
 13 14  1  1
 13 15  1  0
 15 16  1  1
 15 17  1  0
 17 18  1  1
 18 19  1  0
 19 20  1  1
 21 20  1  1
 21 22  1  0
 22 23  1  0
 23 24  1  1
 24 25  1  0
 23 26  1  0
 26 27  1  6
 26 28  1  0
 28 29  1  1
 28 30  1  0
 30 31  1  6
 19 32  1  0
 32 33  1  0
 33 34  1  0
 34 35  1  6
 34 36  1  0
 36 37  1  6
 37 38  1  0
 38 39  1  0
 39 40  1  6
 39  8  1  0
 39 11  1  0
 36 12  1  0
 34 17  1  0
 30 21  1  0
M  END
>  <MS_ID>  (720) 
MS0751

>  <SMILES>  (720) 
C[C@H](CCC(=O)O)[C@H]1CC[C@H]2[C@@H]3[C@H](O)[C@H](O)[C@@H]4C[C@H](O[C@@H]5O[C@H](CO)[C@@H](O)[C@H](O)[C@H]5O)CC[C@]4(C)[C@H]3CC[C@]12C

>  <Structure_dimension>  (720) 
2D

$$$$
MS0752
     RDKit          2D

 29 32  0  0  0  0  0  0  0  0999 V2000
   -5.1421   -2.1269    0.0000 C   0  0  0  0  0  0  0  0  0  0  0  0
   -4.0091   -1.1439    0.0000 C   0  0  0  0  0  0  0  0  0  0  0  0
   -4.2938    0.3288    0.0000 C   0  0  0  0  0  0  0  0  0  0  0  0
   -5.7116    0.8186    0.0000 C   0  0  0  0  0  0  0  0  0  0  0  0
   -5.9963    2.2913    0.0000 C   0  0  0  0  0  0  0  0  0  0  0  0
   -4.8632    3.2743    0.0000 O   0  0  0  0  0  0  0  0  0  0  0  0
   -7.4141    2.7811    0.0000 O   0  0  0  0  0  0  0  0  0  0  0  0
   -2.5913   -1.6337    0.0000 C   0  0  0  0  0  0  0  0  0  0  0  0
   -2.1542   -3.0686    0.0000 C   0  0  0  0  0  0  0  0  0  0  0  0
   -0.6544   -3.0963    0.0000 C   0  0  0  0  0  0  0  0  0  0  0  0
   -0.1646   -1.6785    0.0000 C   0  0  0  0  0  0  0  0  0  0  0  0
    1.2167   -1.0938    0.0000 C   0  0  0  0  0  0  0  0  0  0  0  0
    2.4137   -1.9977    0.0000 C   0  0  0  0  0  0  0  0  0  0  0  0
    2.2294   -3.4864    0.0000 C   0  0  0  0  0  0  0  0  0  0  0  0
    3.4265   -4.3903    0.0000 O   0  0  0  0  0  0  0  0  0  0  0  0
    3.7951   -1.4130    0.0000 C   0  0  0  0  0  0  0  0  0  0  0  0
    3.9794    0.0756    0.0000 C   0  0  0  0  0  0  0  0  0  0  0  0
    5.3607    0.6603    0.0000 C   0  0  0  0  0  0  0  0  0  0  0  0
    5.5451    2.1489    0.0000 C   0  0  0  0  0  0  0  0  0  0  0  0
    6.9264    2.7336    0.0000 O   0  0  0  0  0  0  0  0  0  0  0  0
    4.3480    3.0529    0.0000 C   0  0  0  0  0  0  0  0  0  0  0  0
    2.9667    2.4682    0.0000 C   0  0  0  0  0  0  0  0  0  0  0  0
    2.7824    0.9795    0.0000 C   0  0  0  0  0  0  0  0  0  0  0  0
    1.5853    1.8835    0.0000 C   0  0  0  0  0  0  0  0  0  0  0  0
    1.4010    0.3948    0.0000 C   0  0  0  0  0  0  0  0  0  0  0  0
    0.2040    1.2988    0.0000 C   0  0  0  0  0  0  0  0  0  0  0  0
   -1.1774    0.7141    0.0000 C   0  0  0  0  0  0  0  0  0  0  0  0
   -1.3617   -0.7746    0.0000 C   0  0  0  0  0  0  0  0  0  0  0  0
   -2.6467   -0.0007    0.0000 C   0  0  0  0  0  0  0  0  0  0  0  0
  2  1  1  6
  2  3  1  0
  3  4  1  0
  4  5  1  0
  5  6  2  0
  5  7  1  0
  2  8  1  0
  8  9  1  6
  9 10  1  0
 11 10  1  6
 11 12  1  0
 12 13  1  1
 13 14  1  1
 14 15  1  0
 13 16  1  0
 17 16  1  1
 17 18  1  0
 18 19  1  0
 19 20  2  0
 19 21  1  0
 21 22  1  0
 22 23  1  0
 23 24  1  6
 23 25  1  0
 25 26  1  6
 26 27  1  0
 27 28  1  0
 28 29  1  6
 28  8  1  0
 28 11  1  0
 25 12  1  0
 23 17  1  0
M  END
>  <MS_ID>  (721) 
MS0752

>  <SMILES>  (721) 
C[C@H](CCC(=O)O)[C@H]1CC[C@H]2[C@@H]3[C@H](CO)C[C@@H]4CC(=O)CC[C@]4(C)[C@H]3CC[C@]12C

>  <Structure_dimension>  (721) 
2D

$$$$
MS0753
     RDKit          2D

 31 34  0  0  0  0  0  0  0  0999 V2000
   -4.2495   -2.8115    0.0000 C   0  0  0  0  0  0  0  0  0  0  0  0
   -3.1859   -1.7538    0.0000 C   0  0  0  0  0  0  0  0  0  0  0  0
   -3.5702   -0.3038    0.0000 C   0  0  0  0  0  0  0  0  0  0  0  0
   -5.0180    0.0883    0.0000 C   0  0  0  0  0  0  0  0  0  0  0  0
   -5.4023    1.5383    0.0000 C   0  0  0  0  0  0  0  0  0  0  0  0
   -4.3387    2.5960    0.0000 O   0  0  0  0  0  0  0  0  0  0  0  0
   -6.8501    1.9305    0.0000 C   0  0  0  0  0  0  0  0  0  0  0  0
   -7.2344    3.3804    0.0000 Cl  0  0  0  0  0  0  0  0  0  0  0  0
   -7.9137    0.8727    0.0000 Cl  0  0  0  0  0  0  0  0  0  0  0  0
   -1.7381   -2.1460    0.0000 C   0  0  0  0  0  0  0  0  0  0  0  0
   -1.2044   -3.5478    0.0000 C   0  0  0  0  0  0  0  0  0  0  0  0
    0.2938   -3.4734    0.0000 C   0  0  0  0  0  0  0  0  0  0  0  0
    0.6860   -2.0256    0.0000 C   0  0  0  0  0  0  0  0  0  0  0  0
    2.0243   -1.3482    0.0000 C   0  0  0  0  0  0  0  0  0  0  0  0
    3.2801   -2.1686    0.0000 C   0  0  0  0  0  0  0  0  0  0  0  0
    3.1975   -3.6663    0.0000 O   0  0  0  0  0  0  0  0  0  0  0  0
    4.6185   -1.4913    0.0000 C   0  0  0  0  0  0  0  0  0  0  0  0
    4.7010    0.0064    0.0000 C   0  0  0  0  0  0  0  0  0  0  0  0
    6.0394    0.6838    0.0000 C   0  0  0  0  0  0  0  0  0  0  0  0
    6.1220    2.1815    0.0000 C   0  0  0  0  0  0  0  0  0  0  0  0
    7.4604    2.8588    0.0000 O   0  0  0  0  0  0  0  0  0  0  0  0
    4.8662    3.0019    0.0000 C   0  0  0  0  0  0  0  0  0  0  0  0
    3.5279    2.3246    0.0000 C   0  0  0  0  0  0  0  0  0  0  0  0
    3.4453    0.8268    0.0000 C   0  0  0  0  0  0  0  0  0  0  0  0
    2.1895    1.6472    0.0000 C   0  0  0  0  0  0  0  0  0  0  0  0
    2.1069    0.1495    0.0000 C   0  0  0  0  0  0  0  0  0  0  0  0
    0.8511    0.9699    0.0000 C   0  0  0  0  0  0  0  0  0  0  0  0
   -0.4872    0.2925    0.0000 C   0  0  0  0  0  0  0  0  0  0  0  0
   -1.7430    1.1129    0.0000 O   0  0  0  0  0  0  0  0  0  0  0  0
   -0.5698   -1.2052    0.0000 C   0  0  0  0  0  0  0  0  0  0  0  0
   -1.9045   -0.5205    0.0000 C   0  0  0  0  0  0  0  0  0  0  0  0
  2  1  1  6
  2  3  1  0
  3  4  1  0
  4  5  1  0
  5  6  2  0
  5  7  1  0
  7  8  1  0
  7  9  1  0
  2 10  1  0
 10 11  1  6
 11 12  1  0
 13 12  1  6
 13 14  1  0
 14 15  1  1
 15 16  1  1
 15 17  1  0
 18 17  1  1
 18 19  1  0
 19 20  1  0
 20 21  1  1
 20 22  1  0
 22 23  1  0
 23 24  1  0
 24 25  1  6
 24 26  1  0
 26 27  1  6
 27 28  1  0
 28 29  1  1
 28 30  1  0
 30 31  1  6
 30 10  1  0
 30 13  1  0
 26 14  1  0
 24 18  1  0
M  END
>  <MS_ID>  (722) 
MS0753

>  <SMILES>  (722) 
C[C@H](CCC(=O)C(Cl)Cl)[C@H]1CC[C@H]2[C@@H]3[C@H](O)C[C@@H]4C[C@H](O)CC[C@]4(C)[C@H]3C[C@H](O)[C@]12C

>  <Structure_dimension>  (722) 
2D

$$$$
MS0754
     RDKit          2D

 33 37  0  0  0  0  0  0  0  0999 V2000
   -3.1427   -3.3426    0.0000 C   0  0  0  0  0  0  0  0  0  0  0  0
   -2.1899   -2.1841    0.0000 C   0  0  0  0  0  0  0  0  0  0  0  0
   -2.7167   -0.7797    0.0000 C   0  0  0  0  0  0  0  0  0  0  0  0
   -4.1964   -0.5338    0.0000 C   0  0  0  0  0  0  0  0  0  0  0  0
   -4.7233    0.8707    0.0000 C   0  0  0  0  0  0  0  0  0  0  0  0
   -3.7705    2.0292    0.0000 O   0  0  0  0  0  0  0  0  0  0  0  0
   -6.2030    1.1166    0.0000 C   0  0  0  0  0  0  0  0  0  0  0  0
   -6.7299    2.5210    0.0000 C   0  0  0  0  0  0  0  0  0  0  0  0
   -8.2096    2.7669    0.0000 C   0  0  0  0  0  0  0  0  0  0  0  0
   -9.1624    1.6084    0.0000 C   0  0  0  0  0  0  0  0  0  0  0  0
   -8.6355    0.2040    0.0000 C   0  0  0  0  0  0  0  0  0  0  0  0
   -7.1558   -0.0419    0.0000 C   0  0  0  0  0  0  0  0  0  0  0  0
   -0.7102   -2.4300    0.0000 C   0  0  0  0  0  0  0  0  0  0  0  0
   -0.0394   -3.7717    0.0000 C   0  0  0  0  0  0  0  0  0  0  0  0
    1.4439   -3.5483    0.0000 C   0  0  0  0  0  0  0  0  0  0  0  0
    1.6898   -2.0686    0.0000 C   0  0  0  0  0  0  0  0  0  0  0  0
    2.9540   -1.2613    0.0000 C   0  0  0  0  0  0  0  0  0  0  0  0
    4.2853   -1.9524    0.0000 C   0  0  0  0  0  0  0  0  0  0  0  0
    4.3524   -3.4509    0.0000 O   0  0  0  0  0  0  0  0  0  0  0  0
    5.5495   -1.1451    0.0000 C   0  0  0  0  0  0  0  0  0  0  0  0
    5.4824    0.3534    0.0000 C   0  0  0  0  0  0  0  0  0  0  0  0
    6.7466    1.1608    0.0000 C   0  0  0  0  0  0  0  0  0  0  0  0
    6.6795    2.6593    0.0000 C   0  0  0  0  0  0  0  0  0  0  0  0
    7.9437    3.4666    0.0000 O   0  0  0  0  0  0  0  0  0  0  0  0
    5.3482    3.3504    0.0000 C   0  0  0  0  0  0  0  0  0  0  0  0
    4.0840    2.5431    0.0000 C   0  0  0  0  0  0  0  0  0  0  0  0
    4.1511    1.0446    0.0000 C   0  0  0  0  0  0  0  0  0  0  0  0
    2.8198    1.7357    0.0000 C   0  0  0  0  0  0  0  0  0  0  0  0
    2.8869    0.2372    0.0000 C   0  0  0  0  0  0  0  0  0  0  0  0
    1.5556    0.9284    0.0000 C   0  0  0  0  0  0  0  0  0  0  0  0
    0.2915    0.1210    0.0000 C   0  0  0  0  0  0  0  0  0  0  0  0
    0.3586   -1.3775    0.0000 C   0  0  0  0  0  0  0  0  0  0  0  0
   -1.0377   -0.8293    0.0000 C   0  0  0  0  0  0  0  0  0  0  0  0
  2  1  1  6
  2  3  1  0
  3  4  1  0
  4  5  1  0
  5  6  2  0
  5  7  1  0
  7  8  2  0
  8  9  1  0
  9 10  2  0
 10 11  1  0
 11 12  2  0
  2 13  1  0
 13 14  1  6
 14 15  1  0
 16 15  1  6
 16 17  1  0
 17 18  1  1
 18 19  1  1
 18 20  1  0
 21 20  1  1
 21 22  1  0
 22 23  1  0
 23 24  1  1
 23 25  1  0
 25 26  1  0
 26 27  1  0
 27 28  1  6
 27 29  1  0
 29 30  1  6
 30 31  1  0
 31 32  1  0
 32 33  1  6
 12  7  1  0
 32 13  1  0
 32 16  1  0
 29 17  1  0
 27 21  1  0
M  END
>  <MS_ID>  (723) 
MS0754

>  <SMILES>  (723) 
C[C@H](CCC(=O)c1ccccc1)[C@H]1CC[C@H]2[C@@H]3[C@H](O)C[C@@H]4C[C@H](O)CC[C@]4(C)[C@H]3CC[C@]12C

>  <Structure_dimension>  (723) 
2D

$$$$
MS0755
     RDKit          2D

 31 34  0  0  0  0  0  0  0  0999 V2000
   -3.5119   -3.5779    0.0000 C   0  0  0  0  0  0  0  0  0  0  0  0
   -2.6109   -2.3787    0.0000 C   0  0  0  0  0  0  0  0  0  0  0  0
   -3.1991   -0.9988    0.0000 C   0  0  0  0  0  0  0  0  0  0  0  0
   -4.6881   -0.8181    0.0000 C   0  0  0  0  0  0  0  0  0  0  0  0
   -5.2762    0.5618    0.0000 C   0  0  0  0  0  0  0  0  0  0  0  0
   -4.3753    1.7610    0.0000 O   0  0  0  0  0  0  0  0  0  0  0  0
   -6.7653    0.7424    0.0000 N   0  0  0  0  0  0  0  0  0  0  0  0
   -7.3534    2.1223    0.0000 C   0  0  0  0  0  0  0  0  0  0  0  0
   -8.8425    2.3029    0.0000 C   0  0  0  0  0  0  0  0  0  0  0  0
   -9.4306    3.6828    0.0000 O   0  0  0  0  0  0  0  0  0  0  0  0
   -1.1219   -2.5593    0.0000 C   0  0  0  0  0  0  0  0  0  0  0  0
   -0.3927   -3.8702    0.0000 C   0  0  0  0  0  0  0  0  0  0  0  0
    1.0793   -3.5818    0.0000 C   0  0  0  0  0  0  0  0  0  0  0  0
    1.2599   -2.0927    0.0000 C   0  0  0  0  0  0  0  0  0  0  0  0
    2.4874   -1.2306    0.0000 C   0  0  0  0  0  0  0  0  0  0  0  0
    3.8478   -1.8625    0.0000 C   0  0  0  0  0  0  0  0  0  0  0  0
    3.9807   -3.3566    0.0000 O   0  0  0  0  0  0  0  0  0  0  0  0
    5.0753   -1.0003    0.0000 C   0  0  0  0  0  0  0  0  0  0  0  0
    4.9423    0.4938    0.0000 C   0  0  0  0  0  0  0  0  0  0  0  0
    6.1698    1.3559    0.0000 C   0  0  0  0  0  0  0  0  0  0  0  0
    6.0369    2.8500    0.0000 C   0  0  0  0  0  0  0  0  0  0  0  0
    7.2644    3.7122    0.0000 O   0  0  0  0  0  0  0  0  0  0  0  0
    4.6765    3.4820    0.0000 C   0  0  0  0  0  0  0  0  0  0  0  0
    3.4490    2.6198    0.0000 C   0  0  0  0  0  0  0  0  0  0  0  0
    3.5820    1.1257    0.0000 C   0  0  0  0  0  0  0  0  0  0  0  0
    2.2216    1.7576    0.0000 C   0  0  0  0  0  0  0  0  0  0  0  0
    2.3545    0.2635    0.0000 C   0  0  0  0  0  0  0  0  0  0  0  0
    0.9941    0.8955    0.0000 C   0  0  0  0  0  0  0  0  0  0  0  0
   -0.2334    0.0333    0.0000 C   0  0  0  0  0  0  0  0  0  0  0  0
   -0.1005   -1.4608    0.0000 C   0  0  0  0  0  0  0  0  0  0  0  0
   -1.5195   -0.9745    0.0000 C   0  0  0  0  0  0  0  0  0  0  0  0
  2  1  1  6
  2  3  1  0
  3  4  1  0
  4  5  1  0
  5  6  2  0
  5  7  1  0
  7  8  1  0
  8  9  1  0
  9 10  1  0
  2 11  1  0
 11 12  1  6
 12 13  1  0
 14 13  1  6
 14 15  1  0
 15 16  1  1
 16 17  1  1
 16 18  1  0
 19 18  1  1
 19 20  1  0
 20 21  1  0
 21 22  2  0
 21 23  1  0
 23 24  1  0
 24 25  1  0
 25 26  1  6
 25 27  1  0
 27 28  1  6
 28 29  1  0
 29 30  1  0
 30 31  1  6
 30 11  1  0
 30 14  1  0
 27 15  1  0
 25 19  1  0
M  END
>  <MS_ID>  (724) 
MS0755

>  <SMILES>  (724) 
C[C@H](CCC(=O)NCCO)[C@H]1CC[C@H]2[C@@H]3[C@H](O)C[C@@H]4CC(=O)CC[C@]4(C)[C@H]3CC[C@]12C

>  <Structure_dimension>  (724) 
2D

$$$$
MS0756
     RDKit          2D

 31 34  0  0  0  0  0  0  0  0999 V2000
   -8.8672    3.1400    0.0000 C   0  0  0  0  0  0  0  0  0  0  0  0
   -7.3980    2.8376    0.0000 O   0  0  0  0  0  0  0  0  0  0  0  0
   -6.9253    1.4140    0.0000 N   0  0  0  0  0  0  0  0  0  0  0  0
   -5.4561    1.1115    0.0000 C   0  0  0  0  0  0  0  0  0  0  0  0
   -4.4596    2.2326    0.0000 O   0  0  0  0  0  0  0  0  0  0  0  0
   -4.9835   -0.3121    0.0000 C   0  0  0  0  0  0  0  0  0  0  0  0
   -3.5143   -0.6145    0.0000 C   0  0  0  0  0  0  0  0  0  0  0  0
   -3.0416   -2.0381    0.0000 C   0  0  0  0  0  0  0  0  0  0  0  0
   -4.0382   -3.1592    0.0000 C   0  0  0  0  0  0  0  0  0  0  0  0
   -1.5724   -2.3406    0.0000 C   0  0  0  0  0  0  0  0  0  0  0  0
   -0.9536   -3.7070    0.0000 C   0  0  0  0  0  0  0  0  0  0  0  0
    0.5372   -3.5406    0.0000 C   0  0  0  0  0  0  0  0  0  0  0  0
    0.8396   -2.0714    0.0000 C   0  0  0  0  0  0  0  0  0  0  0  0
    2.1338   -1.3131    0.0000 C   0  0  0  0  0  0  0  0  0  0  0  0
    3.4377   -2.0548    0.0000 C   0  0  0  0  0  0  0  0  0  0  0  0
    3.4473   -3.5547    0.0000 O   0  0  0  0  0  0  0  0  0  0  0  0
    4.7319   -1.2965    0.0000 C   0  0  0  0  0  0  0  0  0  0  0  0
    4.7223    0.2035    0.0000 C   0  0  0  0  0  0  0  0  0  0  0  0
    6.0165    0.9618    0.0000 C   0  0  0  0  0  0  0  0  0  0  0  0
    6.0069    2.4618    0.0000 C   0  0  0  0  0  0  0  0  0  0  0  0
    7.3011    3.2201    0.0000 O   0  0  0  0  0  0  0  0  0  0  0  0
    4.7030    3.2034    0.0000 C   0  0  0  0  0  0  0  0  0  0  0  0
    3.4088    2.4451    0.0000 C   0  0  0  0  0  0  0  0  0  0  0  0
    3.4184    0.9452    0.0000 C   0  0  0  0  0  0  0  0  0  0  0  0
    2.1146    1.6868    0.0000 C   0  0  0  0  0  0  0  0  0  0  0  0
    2.1242    0.1869    0.0000 C   0  0  0  0  0  0  0  0  0  0  0  0
    0.8204    0.9285    0.0000 C   0  0  0  0  0  0  0  0  0  0  0  0
   -0.4738    0.1702    0.0000 C   0  0  0  0  0  0  0  0  0  0  0  0
   -1.7776    0.9119    0.0000 O   0  0  0  0  0  0  0  0  0  0  0  0
   -0.4642   -1.3298    0.0000 C   0  0  0  0  0  0  0  0  0  0  0  0
   -1.8384   -0.7284    0.0000 C   0  0  0  0  0  0  0  0  0  0  0  0
  1  2  1  0
  2  3  1  0
  3  4  1  0
  4  5  2  0
  4  6  1  0
  6  7  1  0
  7  8  1  0
  8  9  1  6
  8 10  1  0
 10 11  1  6
 11 12  1  0
 13 12  1  6
 13 14  1  0
 14 15  1  1
 15 16  1  1
 15 17  1  0
 18 17  1  1
 18 19  1  0
 19 20  1  0
 20 21  1  1
 20 22  1  0
 22 23  1  0
 23 24  1  0
 24 25  1  6
 24 26  1  0
 26 27  1  6
 27 28  1  0
 28 29  1  1
 28 30  1  0
 30 31  1  6
 30 10  1  0
 30 13  1  0
 26 14  1  0
 24 18  1  0
M  END
>  <MS_ID>  (725) 
MS0756

>  <SMILES>  (725) 
CONC(=O)CC[C@@H](C)[C@H]1CC[C@H]2[C@@H]3[C@H](O)C[C@@H]4C[C@H](O)CC[C@]4(C)[C@H]3C[C@H](O)[C@]12C

>  <Structure_dimension>  (725) 
2D

$$$$
MS0757
     RDKit          2D

 34 38  0  0  0  0  0  0  0  0999 V2000
   -3.1078   -3.3705    0.0000 C   0  0  0  0  0  0  0  0  0  0  0  0
   -2.1565   -2.2107    0.0000 C   0  0  0  0  0  0  0  0  0  0  0  0
   -2.6851   -0.8070    0.0000 C   0  0  0  0  0  0  0  0  0  0  0  0
   -4.1651   -0.5630    0.0000 C   0  0  0  0  0  0  0  0  0  0  0  0
   -4.6938    0.8408    0.0000 C   0  0  0  0  0  0  0  0  0  0  0  0
   -3.7424    2.0005    0.0000 O   0  0  0  0  0  0  0  0  0  0  0  0
   -6.1738    1.0848    0.0000 C   0  0  0  0  0  0  0  0  0  0  0  0
   -6.7025    2.4886    0.0000 C   0  0  0  0  0  0  0  0  0  0  0  0
   -8.1825    2.7326    0.0000 C   0  0  0  0  0  0  0  0  0  0  0  0
   -9.1338    1.5729    0.0000 C   0  0  0  0  0  0  0  0  0  0  0  0
   -8.6052    0.1692    0.0000 N   0  0  0  0  0  0  0  0  0  0  0  0
   -7.1252   -0.0749    0.0000 C   0  0  0  0  0  0  0  0  0  0  0  0
   -0.6765   -2.4548    0.0000 C   0  0  0  0  0  0  0  0  0  0  0  0
   -0.0040   -3.7956    0.0000 C   0  0  0  0  0  0  0  0  0  0  0  0
    1.4790   -3.5703    0.0000 C   0  0  0  0  0  0  0  0  0  0  0  0
    1.7231   -2.0903    0.0000 C   0  0  0  0  0  0  0  0  0  0  0  0
    2.9862   -1.2814    0.0000 C   0  0  0  0  0  0  0  0  0  0  0  0
    4.3184   -1.9708    0.0000 C   0  0  0  0  0  0  0  0  0  0  0  0
    4.3874   -3.4692    0.0000 O   0  0  0  0  0  0  0  0  0  0  0  0
    5.5816   -1.1619    0.0000 C   0  0  0  0  0  0  0  0  0  0  0  0
    5.5126    0.3366    0.0000 C   0  0  0  0  0  0  0  0  0  0  0  0
    6.7757    1.1455    0.0000 C   0  0  0  0  0  0  0  0  0  0  0  0
    6.7067    2.6439    0.0000 C   0  0  0  0  0  0  0  0  0  0  0  0
    7.9699    3.4529    0.0000 O   0  0  0  0  0  0  0  0  0  0  0  0
    5.3746    3.3334    0.0000 C   0  0  0  0  0  0  0  0  0  0  0  0
    4.1114    2.5244    0.0000 C   0  0  0  0  0  0  0  0  0  0  0  0
    4.1804    1.0260    0.0000 C   0  0  0  0  0  0  0  0  0  0  0  0
    2.8482    1.7155    0.0000 C   0  0  0  0  0  0  0  0  0  0  0  0
    2.9172    0.2170    0.0000 C   0  0  0  0  0  0  0  0  0  0  0  0
    1.5851    0.9065    0.0000 C   0  0  0  0  0  0  0  0  0  0  0  0
    0.3219    0.0975    0.0000 C   0  0  0  0  0  0  0  0  0  0  0  0
   -1.0102    0.7870    0.0000 O   0  0  0  0  0  0  0  0  0  0  0  0
    0.3909   -1.4009    0.0000 C   0  0  0  0  0  0  0  0  0  0  0  0
   -1.0060   -0.8545    0.0000 C   0  0  0  0  0  0  0  0  0  0  0  0
  2  1  1  6
  2  3  1  0
  3  4  1  0
  4  5  1  0
  5  6  2  0
  5  7  1  0
  7  8  2  0
  8  9  1  0
  9 10  2  0
 10 11  1  0
 11 12  2  0
  2 13  1  0
 13 14  1  6
 14 15  1  0
 16 15  1  6
 16 17  1  0
 17 18  1  1
 18 19  1  1
 18 20  1  0
 21 20  1  1
 21 22  1  0
 22 23  1  0
 23 24  1  1
 23 25  1  0
 25 26  1  0
 26 27  1  0
 27 28  1  6
 27 29  1  0
 29 30  1  6
 30 31  1  0
 31 32  1  1
 31 33  1  0
 33 34  1  6
 12  7  1  0
 33 13  1  0
 33 16  1  0
 29 17  1  0
 27 21  1  0
M  END
>  <MS_ID>  (726) 
MS0757

>  <SMILES>  (726) 
C[C@H](CCC(=O)c1cccnc1)[C@H]1CC[C@H]2[C@@H]3[C@H](O)C[C@@H]4C[C@H](O)CC[C@]4(C)[C@H]3C[C@H](O)[C@]12C

>  <Structure_dimension>  (726) 
2D

$$$$
MS0758
     RDKit          2D

 29 32  0  0  0  0  0  0  0  0999 V2000
   -5.0303   -2.1373    0.0000 C   0  0  0  0  0  0  0  0  0  0  0  0
   -3.8594   -1.1998    0.0000 C   0  0  0  0  0  0  0  0  0  0  0  0
   -4.0858    0.2830    0.0000 C   0  0  0  0  0  0  0  0  0  0  0  0
   -5.4831    0.8284    0.0000 C   0  0  0  0  0  0  0  0  0  0  0  0
   -5.7095    2.3112    0.0000 C   0  0  0  0  0  0  0  0  0  0  0  0
   -4.5386    3.2487    0.0000 O   0  0  0  0  0  0  0  0  0  0  0  0
   -7.1069    2.8565    0.0000 O   0  0  0  0  0  0  0  0  0  0  0  0
   -2.4620   -1.7451    0.0000 C   0  0  0  0  0  0  0  0  0  0  0  0
   -2.0818   -3.1961    0.0000 C   0  0  0  0  0  0  0  0  0  0  0  0
   -0.5844   -3.2830    0.0000 C   0  0  0  0  0  0  0  0  0  0  0  0
   -0.0390   -1.8856    0.0000 C   0  0  0  0  0  0  0  0  0  0  0  0
    1.3643   -1.3559    0.0000 C   0  0  0  0  0  0  0  0  0  0  0  0
    2.5248   -2.3063    0.0000 C   0  0  0  0  0  0  0  0  0  0  0  0
    2.2819   -3.7865    0.0000 F   0  0  0  0  0  0  0  0  0  0  0  0
    3.9281   -1.7765    0.0000 C   0  0  0  0  0  0  0  0  0  0  0  0
    4.1710   -0.2963    0.0000 C   0  0  0  0  0  0  0  0  0  0  0  0
    5.5743    0.2334    0.0000 C   0  0  0  0  0  0  0  0  0  0  0  0
    5.8172    1.7136    0.0000 C   0  0  0  0  0  0  0  0  0  0  0  0
    7.2205    2.2434    0.0000 O   0  0  0  0  0  0  0  0  0  0  0  0
    4.6568    2.6641    0.0000 C   0  0  0  0  0  0  0  0  0  0  0  0
    3.2534    2.1343    0.0000 C   0  0  0  0  0  0  0  0  0  0  0  0
    3.0105    0.6541    0.0000 C   0  0  0  0  0  0  0  0  0  0  0  0
    1.8501    1.6046    0.0000 C   0  0  0  0  0  0  0  0  0  0  0  0
    1.6072    0.1244    0.0000 C   0  0  0  0  0  0  0  0  0  0  0  0
    0.4467    1.0748    0.0000 C   0  0  0  0  0  0  0  0  0  0  0  0
   -0.9566    0.5450    0.0000 C   0  0  0  0  0  0  0  0  0  0  0  0
   -2.1170    1.4955    0.0000 O   0  0  0  0  0  0  0  0  0  0  0  0
   -1.1995   -0.9352    0.0000 C   0  0  0  0  0  0  0  0  0  0  0  0
   -2.4529   -0.1112    0.0000 C   0  0  0  0  0  0  0  0  0  0  0  0
  2  1  1  6
  2  3  1  0
  3  4  1  0
  4  5  1  0
  5  6  2  0
  5  7  1  0
  2  8  1  0
  8  9  1  6
  9 10  1  0
 11 10  1  6
 11 12  1  0
 12 13  1  1
 13 14  1  1
 13 15  1  0
 16 15  1  1
 16 17  1  0
 17 18  1  0
 18 19  1  6
 18 20  1  0
 20 21  1  0
 21 22  1  0
 22 23  1  6
 22 24  1  0
 24 25  1  6
 25 26  1  0
 26 27  1  1
 26 28  1  0
 28 29  1  6
 28  8  1  0
 28 11  1  0
 24 12  1  0
 22 16  1  0
M  END
>  <MS_ID>  (727) 
MS0758

>  <SMILES>  (727) 
C[C@H](CCC(=O)O)[C@H]1CC[C@H]2[C@@H]3[C@H](F)C[C@@H]4C[C@@H](O)CC[C@]4(C)[C@H]3C[C@H](O)[C@]12C

>  <Structure_dimension>  (727) 
2D

$$$$
MS0759
     RDKit          2D

 32 35  0  0  0  0  0  0  0  0999 V2000
   -3.1421   -3.6694    0.0000 C   0  0  0  0  0  0  0  0  0  0  0  0
   -2.2628   -2.4541    0.0000 C   0  0  0  0  0  0  0  0  0  0  0  0
   -2.8756   -1.0850    0.0000 C   0  0  0  0  0  0  0  0  0  0  0  0
   -4.3676   -0.9311    0.0000 C   0  0  0  0  0  0  0  0  0  0  0  0
   -4.9804    0.4380    0.0000 C   0  0  0  0  0  0  0  0  0  0  0  0
   -4.1011    1.6532    0.0000 O   0  0  0  0  0  0  0  0  0  0  0  0
   -6.4725    0.5919    0.0000 C   0  0  0  0  0  0  0  0  0  0  0  0
   -7.0853    1.9610    0.0000 O   0  0  0  0  0  0  0  0  0  0  0  0
   -8.5774    2.1149    0.0000 C   0  0  0  0  0  0  0  0  0  0  0  0
   -9.4567    0.8996    0.0000 O   0  0  0  0  0  0  0  0  0  0  0  0
   -9.1901    3.4840    0.0000 O   0  0  0  0  0  0  0  0  0  0  0  0
   -0.7707   -2.6080    0.0000 C   0  0  0  0  0  0  0  0  0  0  0  0
   -0.0182   -3.9056    0.0000 C   0  0  0  0  0  0  0  0  0  0  0  0
    1.4484   -3.5909    0.0000 C   0  0  0  0  0  0  0  0  0  0  0  0
    1.6023   -2.0988    0.0000 C   0  0  0  0  0  0  0  0  0  0  0  0
    2.8141   -1.2147    0.0000 C   0  0  0  0  0  0  0  0  0  0  0  0
    4.1856   -1.8222    0.0000 C   0  0  0  0  0  0  0  0  0  0  0  0
    4.3453   -3.3136    0.0000 O   0  0  0  0  0  0  0  0  0  0  0  0
    5.3974   -0.9381    0.0000 C   0  0  0  0  0  0  0  0  0  0  0  0
    5.2377    0.5533    0.0000 C   0  0  0  0  0  0  0  0  0  0  0  0
    6.4495    1.4374    0.0000 C   0  0  0  0  0  0  0  0  0  0  0  0
    6.2898    2.9289    0.0000 C   0  0  0  0  0  0  0  0  0  0  0  0
    7.5016    3.8129    0.0000 O   0  0  0  0  0  0  0  0  0  0  0  0
    4.9183    3.5363    0.0000 C   0  0  0  0  0  0  0  0  0  0  0  0
    3.7065    2.6522    0.0000 C   0  0  0  0  0  0  0  0  0  0  0  0
    3.8662    1.1608    0.0000 C   0  0  0  0  0  0  0  0  0  0  0  0
    2.4947    1.7682    0.0000 C   0  0  0  0  0  0  0  0  0  0  0  0
    2.6544    0.2767    0.0000 C   0  0  0  0  0  0  0  0  0  0  0  0
    1.2829    0.8842    0.0000 C   0  0  0  0  0  0  0  0  0  0  0  0
    0.0711    0.0001    0.0000 C   0  0  0  0  0  0  0  0  0  0  0  0
    0.2308   -1.4914    0.0000 C   0  0  0  0  0  0  0  0  0  0  0  0
   -1.1967   -1.0306    0.0000 C   0  0  0  0  0  0  0  0  0  0  0  0
  2  1  1  6
  2  3  1  0
  3  4  1  0
  4  5  1  0
  5  6  2  0
  5  7  1  0
  7  8  1  0
  8  9  1  0
  9 10  2  0
  9 11  1  0
  2 12  1  0
 12 13  1  6
 13 14  1  0
 15 14  1  6
 15 16  1  0
 16 17  1  1
 17 18  1  1
 17 19  1  0
 20 19  1  1
 20 21  1  0
 21 22  1  0
 22 23  1  1
 22 24  1  0
 24 25  1  0
 25 26  1  0
 26 27  1  6
 26 28  1  0
 28 29  1  6
 29 30  1  0
 30 31  1  0
 31 32  1  6
 31 12  1  0
 31 15  1  0
 28 16  1  0
 26 20  1  0
M  END
>  <MS_ID>  (728) 
MS0759

>  <SMILES>  (728) 
C[C@H](CCC(=O)COC(=O)O)[C@H]1CC[C@H]2[C@@H]3[C@H](O)C[C@@H]4C[C@H](O)CC[C@]4(C)[C@H]3CC[C@]12C

>  <Structure_dimension>  (728) 
2D

$$$$
MS0760
     RDKit          2D

 34 37  0  0  0  0  0  0  0  0999 V2000
  -11.6490    3.3708    0.0000 C   0  0  0  0  0  0  0  0  0  0  0  0
  -10.8671    2.0907    0.0000 C   0  0  0  0  0  0  0  0  0  0  0  0
   -9.3676    2.1278    0.0000 C   0  0  0  0  0  0  0  0  0  0  0  0
   -8.5857    0.8477    0.0000 C   0  0  0  0  0  0  0  0  0  0  0  0
   -7.0861    0.8848    0.0000 C   0  0  0  0  0  0  0  0  0  0  0  0
   -6.3043   -0.3953    0.0000 O   0  0  0  0  0  0  0  0  0  0  0  0
   -4.8047   -0.3582    0.0000 C   0  0  0  0  0  0  0  0  0  0  0  0
   -4.0871    0.9590    0.0000 O   0  0  0  0  0  0  0  0  0  0  0  0
   -4.0228   -1.6383    0.0000 C   0  0  0  0  0  0  0  0  0  0  0  0
   -2.5233   -1.6012    0.0000 C   0  0  0  0  0  0  0  0  0  0  0  0
   -1.7414   -2.8813    0.0000 C   0  0  0  0  0  0  0  0  0  0  0  0
   -2.4590   -4.1985    0.0000 C   0  0  0  0  0  0  0  0  0  0  0  0
   -0.2418   -2.8442    0.0000 C   0  0  0  0  0  0  0  0  0  0  0  0
    0.6696   -4.0356    0.0000 C   0  0  0  0  0  0  0  0  0  0  0  0
    2.0843   -3.5369    0.0000 C   0  0  0  0  0  0  0  0  0  0  0  0
    2.0472   -2.0374    0.0000 C   0  0  0  0  0  0  0  0  0  0  0  0
    3.1367   -1.0064    0.0000 C   0  0  0  0  0  0  0  0  0  0  0  0
    4.5743   -1.4345    0.0000 C   0  0  0  0  0  0  0  0  0  0  0  0
    4.9224   -2.8936    0.0000 O   0  0  0  0  0  0  0  0  0  0  0  0
    5.6639   -0.4035    0.0000 C   0  0  0  0  0  0  0  0  0  0  0  0
    7.1015   -0.8317    0.0000 O   0  0  0  0  0  0  0  0  0  0  0  0
    5.3158    1.0555    0.0000 C   0  0  0  0  0  0  0  0  0  0  0  0
    6.4054    2.0865    0.0000 C   0  0  0  0  0  0  0  0  0  0  0  0
    6.0573    3.5455    0.0000 C   0  0  0  0  0  0  0  0  0  0  0  0
    7.1469    4.5765    0.0000 O   0  0  0  0  0  0  0  0  0  0  0  0
    4.6197    3.9736    0.0000 C   0  0  0  0  0  0  0  0  0  0  0  0
    3.5302    2.9427    0.0000 C   0  0  0  0  0  0  0  0  0  0  0  0
    3.8782    1.4836    0.0000 C   0  0  0  0  0  0  0  0  0  0  0  0
    2.4406    1.9117    0.0000 C   0  0  0  0  0  0  0  0  0  0  0  0
    2.7887    0.4527    0.0000 C   0  0  0  0  0  0  0  0  0  0  0  0
    1.3511    0.8808    0.0000 C   0  0  0  0  0  0  0  0  0  0  0  0
    0.2615   -0.1502    0.0000 C   0  0  0  0  0  0  0  0  0  0  0  0
    0.6096   -1.6093    0.0000 C   0  0  0  0  0  0  0  0  0  0  0  0
   -0.8649   -1.3338    0.0000 C   0  0  0  0  0  0  0  0  0  0  0  0
  1  2  1  0
  2  3  1  0
  3  4  1  0
  4  5  1  0
  5  6  1  0
  6  7  1  0
  7  8  2  0
  7  9  1  0
  9 10  1  0
 10 11  1  0
 11 12  1  6
 11 13  1  0
 13 14  1  6
 14 15  1  0
 16 15  1  6
 16 17  1  0
 17 18  1  1
 18 19  1  1
 18 20  1  0
 20 21  1  1
 20 22  1  0
 22 23  1  1
 23 24  1  0
 24 25  1  1
 24 26  1  0
 26 27  1  0
 27 28  1  0
 28 29  1  6
 28 30  1  0
 30 31  1  6
 31 32  1  0
 32 33  1  0
 33 34  1  6
 33 13  1  0
 33 16  1  0
 30 17  1  0
 28 22  1  0
M  END
>  <MS_ID>  (729) 
MS0760

>  <SMILES>  (729) 
CCCCCOC(=O)CC[C@@H](C)[C@H]1CC[C@H]2[C@@H]3[C@H](O)[C@H](O)[C@@H]4C[C@H](O)CC[C@]4(C)[C@H]3CC[C@]12C

>  <Structure_dimension>  (729) 
2D

$$$$
MS0761
     RDKit          2D

 30 33  0  0  0  0  0  0  0  0999 V2000
   -4.1099   -3.1124    0.0000 C   0  0  0  0  0  0  0  0  0  0  0  0
   -3.1089   -1.9953    0.0000 C   0  0  0  0  0  0  0  0  0  0  0  0
   -3.5759   -0.5698    0.0000 C   0  0  0  0  0  0  0  0  0  0  0  0
   -5.0438   -0.2615    0.0000 C   0  0  0  0  0  0  0  0  0  0  0  0
   -5.5108    1.1640    0.0000 C   0  0  0  0  0  0  0  0  0  0  0  0
   -4.5097    2.2811    0.0000 O   0  0  0  0  0  0  0  0  0  0  0  0
   -6.9787    1.4724    0.0000 C   0  0  0  0  0  0  0  0  0  0  0  0
   -7.4457    2.8978    0.0000 C   0  0  0  0  0  0  0  0  0  0  0  0
   -8.9136    3.2062    0.0000 O   0  0  0  0  0  0  0  0  0  0  0  0
   -1.6409   -2.3036    0.0000 C   0  0  0  0  0  0  0  0  0  0  0  0
   -1.0276   -3.6725    0.0000 C   0  0  0  0  0  0  0  0  0  0  0  0
    0.4638   -3.5121    0.0000 C   0  0  0  0  0  0  0  0  0  0  0  0
    0.7722   -2.0441    0.0000 C   0  0  0  0  0  0  0  0  0  0  0  0
    2.0694   -1.2910    0.0000 C   0  0  0  0  0  0  0  0  0  0  0  0
    3.3703   -2.0379    0.0000 C   0  0  0  0  0  0  0  0  0  0  0  0
    3.3739   -3.5379    0.0000 O   0  0  0  0  0  0  0  0  0  0  0  0
    4.6675   -1.2848    0.0000 C   0  0  0  0  0  0  0  0  0  0  0  0
    4.6639    0.2152    0.0000 C   0  0  0  0  0  0  0  0  0  0  0  0
    5.9611    0.9683    0.0000 C   0  0  0  0  0  0  0  0  0  0  0  0
    5.9575    2.4683    0.0000 C   0  0  0  0  0  0  0  0  0  0  0  0
    7.2548    3.2214    0.0000 O   0  0  0  0  0  0  0  0  0  0  0  0
    4.6567    3.2152    0.0000 C   0  0  0  0  0  0  0  0  0  0  0  0
    3.3595    2.4621    0.0000 C   0  0  0  0  0  0  0  0  0  0  0  0
    3.3631    0.9621    0.0000 C   0  0  0  0  0  0  0  0  0  0  0  0
    2.0622    1.7090    0.0000 C   0  0  0  0  0  0  0  0  0  0  0  0
    2.0658    0.2090    0.0000 C   0  0  0  0  0  0  0  0  0  0  0  0
    0.7650    0.9559    0.0000 C   0  0  0  0  0  0  0  0  0  0  0  0
   -0.5322    0.2027    0.0000 C   0  0  0  0  0  0  0  0  0  0  0  0
   -0.5286   -1.2973    0.0000 C   0  0  0  0  0  0  0  0  0  0  0  0
   -1.9004   -0.6904    0.0000 C   0  0  0  0  0  0  0  0  0  0  0  0
  2  1  1  6
  2  3  1  0
  3  4  1  0
  4  5  1  0
  5  6  2  0
  5  7  1  0
  7  8  1  0
  8  9  1  0
  2 10  1  0
 10 11  1  6
 11 12  1  0
 13 12  1  6
 13 14  1  0
 14 15  1  1
 15 16  1  6
 15 17  1  0
 18 17  1  1
 18 19  1  0
 19 20  1  0
 20 21  1  6
 20 22  1  0
 22 23  1  0
 23 24  1  0
 24 25  1  6
 24 26  1  0
 26 27  1  6
 27 28  1  0
 28 29  1  0
 29 30  1  6
 29 10  1  0
 29 13  1  0
 26 14  1  0
 24 18  1  0
M  END
>  <MS_ID>  (730) 
MS0761

>  <SMILES>  (730) 
C[C@H](CCC(=O)CCO)[C@H]1CC[C@H]2[C@@H]3[C@@H](O)C[C@@H]4C[C@@H](O)CC[C@]4(C)[C@H]3CC[C@]12C

>  <Structure_dimension>  (730) 
2D

$$$$
MS0762
     RDKit          2D

 32 35  0  0  0  0  0  0  0  0999 V2000
   -3.6401   -3.7548    0.0000 C   0  0  0  0  0  0  0  0  0  0  0  0
   -2.6957   -2.5895    0.0000 C   0  0  0  0  0  0  0  0  0  0  0  0
   -3.2327   -1.1889    0.0000 C   0  0  0  0  0  0  0  0  0  0  0  0
   -4.7142   -0.9537    0.0000 C   0  0  0  0  0  0  0  0  0  0  0  0
   -5.2512    0.4469    0.0000 C   0  0  0  0  0  0  0  0  0  0  0  0
   -6.7327    0.6821    0.0000 O   0  0  0  0  0  0  0  0  0  0  0  0
   -4.3068    1.6122    0.0000 O   0  0  0  0  0  0  0  0  0  0  0  0
   -4.8438    3.0128    0.0000 S   0  0  0  0  0  0  0  0  0  0  0  0
   -6.2444    2.4758    0.0000 O   0  0  0  0  0  0  0  0  0  0  0  0
   -3.4433    3.5499    0.0000 O   0  0  0  0  0  0  0  0  0  0  0  0
   -5.3809    4.4134    0.0000 O   0  0  0  0  0  0  0  0  0  0  0  0
   -1.2142   -2.8246    0.0000 C   0  0  0  0  0  0  0  0  0  0  0  0
   -0.5337   -4.1614    0.0000 C   0  0  0  0  0  0  0  0  0  0  0  0
    0.9479   -3.9273    0.0000 C   0  0  0  0  0  0  0  0  0  0  0  0
    1.1831   -2.4459    0.0000 C   0  0  0  0  0  0  0  0  0  0  0  0
    2.4414   -1.6294    0.0000 C   0  0  0  0  0  0  0  0  0  0  0  0
    3.7776   -2.3108    0.0000 C   0  0  0  0  0  0  0  0  0  0  0  0
    5.0359   -1.4943    0.0000 C   0  0  0  0  0  0  0  0  0  0  0  0
    4.9580    0.0036    0.0000 C   0  0  0  0  0  0  0  0  0  0  0  0
    6.2163    0.8201    0.0000 C   0  0  0  0  0  0  0  0  0  0  0  0
    6.1383    2.3181    0.0000 C   0  0  0  0  0  0  0  0  0  0  0  0
    7.3966    3.1346    0.0000 O   0  0  0  0  0  0  0  0  0  0  0  0
    4.8021    2.9996    0.0000 C   0  0  0  0  0  0  0  0  0  0  0  0
    3.5438    2.1831    0.0000 C   0  0  0  0  0  0  0  0  0  0  0  0
    3.6217    0.6851    0.0000 C   0  0  0  0  0  0  0  0  0  0  0  0
    2.2855    1.3666    0.0000 C   0  0  0  0  0  0  0  0  0  0  0  0
    2.3634   -0.1314    0.0000 C   0  0  0  0  0  0  0  0  0  0  0  0
    1.0272    0.5501    0.0000 C   0  0  0  0  0  0  0  0  0  0  0  0
   -0.2311   -0.2664    0.0000 C   0  0  0  0  0  0  0  0  0  0  0  0
   -1.5674    0.4151    0.0000 O   0  0  0  0  0  0  0  0  0  0  0  0
   -0.1532   -1.7644    0.0000 C   0  0  0  0  0  0  0  0  0  0  0  0
   -1.5534   -1.2263    0.0000 C   0  0  0  0  0  0  0  0  0  0  0  0
  2  1  1  6
  2  3  1  0
  3  4  1  0
  4  5  1  0
  5  6  2  0
  5  7  1  0
  7  8  1  0
  8  9  2  0
  8 10  2  0
  8 11  1  0
  2 12  1  0
 12 13  1  6
 13 14  1  0
 15 14  1  6
 15 16  1  0
 16 17  1  1
 17 18  1  0
 19 18  1  1
 19 20  1  0
 20 21  1  0
 21 22  1  6
 21 23  1  0
 23 24  1  0
 24 25  1  0
 25 26  1  6
 25 27  1  0
 27 28  1  6
 28 29  1  0
 29 30  1  1
 29 31  1  0
 31 32  1  6
 31 12  1  0
 31 15  1  0
 27 16  1  0
 25 19  1  0
M  END
>  <MS_ID>  (731) 
MS0762

>  <SMILES>  (731) 
C[C@H](CCC(=O)OS(=O)(=O)O)[C@H]1CC[C@H]2[C@@H]3CC[C@@H]4C[C@@H](O)CC[C@]4(C)[C@H]3C[C@H](O)[C@]12C

>  <Structure_dimension>  (731) 
2D

$$$$
MS0763
     RDKit          2D

 33 36  0  0  0  0  0  0  0  0999 V2000
   -2.7798   -3.8103    0.0000 C   0  0  0  0  0  0  0  0  0  0  0  0
   -1.9338   -2.5716    0.0000 C   0  0  0  0  0  0  0  0  0  0  0  0
   -2.5835   -1.2196    0.0000 C   0  0  0  0  0  0  0  0  0  0  0  0
   -4.0792   -1.1063    0.0000 C   0  0  0  0  0  0  0  0  0  0  0  0
   -4.7289    0.2457    0.0000 C   0  0  0  0  0  0  0  0  0  0  0  0
   -3.8829    1.4843    0.0000 O   0  0  0  0  0  0  0  0  0  0  0  0
   -6.2246    0.3590    0.0000 C   0  0  0  0  0  0  0  0  0  0  0  0
   -6.8743    1.7110    0.0000 S   0  0  0  0  0  0  0  0  0  0  0  0
   -8.3700    1.8244    0.0000 S   0  0  0  0  0  0  0  0  0  0  0  0
   -8.4834    0.3287    0.0000 O   0  0  0  0  0  0  0  0  0  0  0  0
   -9.8657    1.9377    0.0000 O   0  0  0  0  0  0  0  0  0  0  0  0
   -8.2567    3.3201    0.0000 O   0  0  0  0  0  0  0  0  0  0  0  0
   -0.4381   -2.6850    0.0000 C   0  0  0  0  0  0  0  0  0  0  0  0
    0.3494   -3.9617    0.0000 C   0  0  0  0  0  0  0  0  0  0  0  0
    1.8069   -3.6073    0.0000 C   0  0  0  0  0  0  0  0  0  0  0  0
    1.9202   -2.1116    0.0000 C   0  0  0  0  0  0  0  0  0  0  0  0
    3.1076   -1.1950    0.0000 C   0  0  0  0  0  0  0  0  0  0  0  0
    4.4951   -1.7650    0.0000 C   0  0  0  0  0  0  0  0  0  0  0  0
    4.6952   -3.2515    0.0000 O   0  0  0  0  0  0  0  0  0  0  0  0
    5.6825   -0.8484    0.0000 C   0  0  0  0  0  0  0  0  0  0  0  0
    5.4824    0.6382    0.0000 C   0  0  0  0  0  0  0  0  0  0  0  0
    6.6697    1.5548    0.0000 C   0  0  0  0  0  0  0  0  0  0  0  0
    6.4696    3.0414    0.0000 C   0  0  0  0  0  0  0  0  0  0  0  0
    7.6570    3.9580    0.0000 O   0  0  0  0  0  0  0  0  0  0  0  0
    5.0821    3.6114    0.0000 C   0  0  0  0  0  0  0  0  0  0  0  0
    3.8948    2.6948    0.0000 C   0  0  0  0  0  0  0  0  0  0  0  0
    4.0949    1.2082    0.0000 C   0  0  0  0  0  0  0  0  0  0  0  0
    2.7074    1.7782    0.0000 C   0  0  0  0  0  0  0  0  0  0  0  0
    2.9075    0.2916    0.0000 C   0  0  0  0  0  0  0  0  0  0  0  0
    1.5200    0.8616    0.0000 C   0  0  0  0  0  0  0  0  0  0  0  0
    0.3327   -0.0550    0.0000 C   0  0  0  0  0  0  0  0  0  0  0  0
    0.5328   -1.5416    0.0000 C   0  0  0  0  0  0  0  0  0  0  0  0
   -0.9067   -1.1197    0.0000 C   0  0  0  0  0  0  0  0  0  0  0  0
  2  1  1  6
  2  3  1  0
  3  4  1  0
  4  5  1  0
  5  6  2  0
  5  7  1  0
  7  8  1  0
  8  9  1  0
  9 10  2  0
  9 11  2  0
  9 12  1  0
  2 13  1  0
 13 14  1  6
 14 15  1  0
 16 15  1  6
 16 17  1  0
 17 18  1  1
 18 19  1  1
 18 20  1  0
 21 20  1  1
 21 22  1  0
 22 23  1  0
 23 24  1  1
 23 25  1  0
 25 26  1  0
 26 27  1  0
 27 28  1  6
 27 29  1  0
 29 30  1  6
 30 31  1  0
 31 32  1  0
 32 33  1  6
 32 13  1  0
 32 16  1  0
 29 17  1  0
 27 21  1  0
M  END
>  <MS_ID>  (732) 
MS0763

>  <SMILES>  (732) 
C[C@H](CCC(=O)CSS(=O)(=O)O)[C@H]1CC[C@H]2[C@@H]3[C@H](O)C[C@@H]4C[C@H](O)CC[C@]4(C)[C@H]3CC[C@]12C

>  <Structure_dimension>  (732) 
2D

$$$$
MS0764
     RDKit          2D

 33 36  0  0  0  0  0  0  0  0999 V2000
   -5.0246   -2.6773    0.0000 C   0  0  0  0  0  0  0  0  0  0  0  0
   -4.0826   -1.5100    0.0000 C   0  0  0  0  0  0  0  0  0  0  0  0
   -4.6226   -0.1105    0.0000 C   0  0  0  0  0  0  0  0  0  0  0  0
   -6.1045    0.1216    0.0000 C   0  0  0  0  0  0  0  0  0  0  0  0
   -6.6444    1.5210    0.0000 C   0  0  0  0  0  0  0  0  0  0  0  0
   -5.7025    2.6884    0.0000 O   0  0  0  0  0  0  0  0  0  0  0  0
   -8.1264    1.7531    0.0000 O   0  0  0  0  0  0  0  0  0  0  0  0
   -2.6007   -1.7421    0.0000 C   0  0  0  0  0  0  0  0  0  0  0  0
   -1.9174   -3.0774    0.0000 C   0  0  0  0  0  0  0  0  0  0  0  0
   -0.4363   -2.8402    0.0000 C   0  0  0  0  0  0  0  0  0  0  0  0
   -0.2042   -1.3583    0.0000 C   0  0  0  0  0  0  0  0  0  0  0  0
    1.0525   -0.5392    0.0000 C   0  0  0  0  0  0  0  0  0  0  0  0
    2.3901   -1.2179    0.0000 C   0  0  0  0  0  0  0  0  0  0  0  0
    2.4712   -2.7157    0.0000 O   0  0  0  0  0  0  0  0  0  0  0  0
    3.8089   -3.3944    0.0000 S   0  0  0  0  0  0  0  0  0  0  0  0
    4.4876   -2.0567    0.0000 O   0  0  0  0  0  0  0  0  0  0  0  0
    3.1302   -4.7321    0.0000 O   0  0  0  0  0  0  0  0  0  0  0  0
    5.1465   -4.0731    0.0000 O   0  0  0  0  0  0  0  0  0  0  0  0
    3.6467   -0.3988    0.0000 C   0  0  0  0  0  0  0  0  0  0  0  0
    3.5657    1.0990    0.0000 C   0  0  0  0  0  0  0  0  0  0  0  0
    4.8223    1.9182    0.0000 C   0  0  0  0  0  0  0  0  0  0  0  0
    4.7412    3.4160    0.0000 C   0  0  0  0  0  0  0  0  0  0  0  0
    5.9978    4.2351    0.0000 O   0  0  0  0  0  0  0  0  0  0  0  0
    3.4035    4.0947    0.0000 C   0  0  0  0  0  0  0  0  0  0  0  0
    2.1469    3.2755    0.0000 C   0  0  0  0  0  0  0  0  0  0  0  0
    2.2280    1.7777    0.0000 C   0  0  0  0  0  0  0  0  0  0  0  0
    0.8903    2.4564    0.0000 C   0  0  0  0  0  0  0  0  0  0  0  0
    0.9714    0.9586    0.0000 C   0  0  0  0  0  0  0  0  0  0  0  0
   -0.3663    1.6373    0.0000 C   0  0  0  0  0  0  0  0  0  0  0  0
   -1.6229    0.8182    0.0000 C   0  0  0  0  0  0  0  0  0  0  0  0
   -2.9606    1.4969    0.0000 O   0  0  0  0  0  0  0  0  0  0  0  0
   -1.5418   -0.6796    0.0000 C   0  0  0  0  0  0  0  0  0  0  0  0
   -2.9431   -0.1445    0.0000 C   0  0  0  0  0  0  0  0  0  0  0  0
  2  1  1  6
  2  3  1  0
  3  4  1  0
  4  5  1  0
  5  6  2  0
  5  7  1  0
  2  8  1  0
  8  9  1  6
  9 10  1  0
 11 10  1  6
 11 12  1  0
 12 13  1  1
 13 14  1  6
 14 15  1  0
 15 16  2  0
 15 17  2  0
 15 18  1  0
 13 19  1  0
 20 19  1  1
 20 21  1  0
 21 22  1  0
 22 23  1  1
 22 24  1  0
 24 25  1  0
 25 26  1  0
 26 27  1  6
 26 28  1  0
 28 29  1  6
 29 30  1  0
 30 31  1  6
 30 32  1  0
 32 33  1  6
 32  8  1  0
 32 11  1  0
 28 12  1  0
 26 20  1  0
M  END
>  <MS_ID>  (733) 
MS0764

>  <SMILES>  (733) 
C[C@H](CCC(=O)O)[C@H]1CC[C@H]2[C@@H]3[C@@H](OS(=O)(=O)O)C[C@@H]4C[C@H](O)CC[C@]4(C)[C@H]3C[C@@H](O)[C@]12C

>  <Structure_dimension>  (733) 
2D

$$$$
MS0765
     RDKit          2D

 31 34  0  0  0  0  0  0  0  0999 V2000
   -4.2495   -2.8115    0.0000 C   0  0  0  0  0  0  0  0  0  0  0  0
   -3.1859   -1.7538    0.0000 C   0  0  0  0  0  0  0  0  0  0  0  0
   -3.5702   -0.3038    0.0000 C   0  0  0  0  0  0  0  0  0  0  0  0
   -5.0180    0.0883    0.0000 C   0  0  0  0  0  0  0  0  0  0  0  0
   -5.4023    1.5383    0.0000 C   0  0  0  0  0  0  0  0  0  0  0  0
   -4.3387    2.5960    0.0000 O   0  0  0  0  0  0  0  0  0  0  0  0
   -6.8501    1.9305    0.0000 C   0  0  0  0  0  0  0  0  0  0  0  0
   -7.9137    0.8727    0.0000 O   0  0  0  0  0  0  0  0  0  0  0  0
   -7.2344    3.3804    0.0000 O   0  0  0  0  0  0  0  0  0  0  0  0
   -1.7381   -2.1460    0.0000 C   0  0  0  0  0  0  0  0  0  0  0  0
   -1.2044   -3.5478    0.0000 C   0  0  0  0  0  0  0  0  0  0  0  0
    0.2938   -3.4734    0.0000 C   0  0  0  0  0  0  0  0  0  0  0  0
    0.6860   -2.0256    0.0000 C   0  0  0  0  0  0  0  0  0  0  0  0
    2.0243   -1.3482    0.0000 C   0  0  0  0  0  0  0  0  0  0  0  0
    3.2801   -2.1686    0.0000 C   0  0  0  0  0  0  0  0  0  0  0  0
    3.1975   -3.6663    0.0000 O   0  0  0  0  0  0  0  0  0  0  0  0
    4.6185   -1.4913    0.0000 C   0  0  0  0  0  0  0  0  0  0  0  0
    4.7010    0.0064    0.0000 C   0  0  0  0  0  0  0  0  0  0  0  0
    6.0394    0.6838    0.0000 C   0  0  0  0  0  0  0  0  0  0  0  0
    6.1220    2.1815    0.0000 C   0  0  0  0  0  0  0  0  0  0  0  0
    7.4604    2.8588    0.0000 O   0  0  0  0  0  0  0  0  0  0  0  0
    4.8662    3.0019    0.0000 C   0  0  0  0  0  0  0  0  0  0  0  0
    3.5279    2.3246    0.0000 C   0  0  0  0  0  0  0  0  0  0  0  0
    3.4453    0.8268    0.0000 C   0  0  0  0  0  0  0  0  0  0  0  0
    2.1895    1.6472    0.0000 C   0  0  0  0  0  0  0  0  0  0  0  0
    2.1069    0.1495    0.0000 C   0  0  0  0  0  0  0  0  0  0  0  0
    0.8511    0.9699    0.0000 C   0  0  0  0  0  0  0  0  0  0  0  0
   -0.4872    0.2925    0.0000 C   0  0  0  0  0  0  0  0  0  0  0  0
   -1.7430    1.1129    0.0000 O   0  0  0  0  0  0  0  0  0  0  0  0
   -0.5698   -1.2052    0.0000 C   0  0  0  0  0  0  0  0  0  0  0  0
   -1.9045   -0.5205    0.0000 C   0  0  0  0  0  0  0  0  0  0  0  0
  2  1  1  6
  2  3  1  0
  3  4  1  0
  4  5  1  0
  5  6  2  0
  5  7  1  0
  7  8  2  0
  7  9  1  0
  2 10  1  0
 10 11  1  6
 11 12  1  0
 13 12  1  6
 13 14  1  0
 14 15  1  1
 15 16  2  0
 15 17  1  0
 18 17  1  1
 18 19  1  0
 19 20  1  0
 20 21  1  1
 20 22  1  0
 22 23  1  0
 23 24  1  0
 24 25  1  6
 24 26  1  0
 26 27  1  6
 27 28  1  0
 28 29  1  1
 28 30  1  0
 30 31  1  6
 30 10  1  0
 30 13  1  0
 26 14  1  0
 24 18  1  0
M  END
>  <MS_ID>  (734) 
MS0765

>  <SMILES>  (734) 
C[C@H](CCC(=O)C(=O)O)[C@H]1CC[C@H]2[C@@H]3C(=O)C[C@@H]4C[C@H](O)CC[C@]4(C)[C@H]3C[C@H](O)[C@]12C

>  <Structure_dimension>  (734) 
2D

$$$$
MS0766
     RDKit          2D

 31 34  0  0  0  0  0  0  0  0999 V2000
   -3.4301   -3.6172    0.0000 C   0  0  0  0  0  0  0  0  0  0  0  0
   -2.4973   -2.4425    0.0000 C   0  0  0  0  0  0  0  0  0  0  0  0
   -3.0483   -1.0473    0.0000 C   0  0  0  0  0  0  0  0  0  0  0  0
   -4.5321   -0.8270    0.0000 C   0  0  0  0  0  0  0  0  0  0  0  0
   -5.0831    0.5682    0.0000 C   0  0  0  0  0  0  0  0  0  0  0  0
   -4.1503    1.7429    0.0000 O   0  0  0  0  0  0  0  0  0  0  0  0
   -6.5668    0.7886    0.0000 N   0  0  0  0  0  0  0  0  0  0  0  0
   -7.1178    2.1837    0.0000 C   0  0  0  0  0  0  0  0  0  0  0  0
   -8.6015    2.4041    0.0000 C   0  0  0  0  0  0  0  0  0  0  0  0
   -9.1525    3.7992    0.0000 O   0  0  0  0  0  0  0  0  0  0  0  0
   -1.0136   -2.6629    0.0000 C   0  0  0  0  0  0  0  0  0  0  0  0
   -0.3198   -3.9928    0.0000 C   0  0  0  0  0  0  0  0  0  0  0  0
    1.1594   -3.7439    0.0000 C   0  0  0  0  0  0  0  0  0  0  0  0
    1.3798   -2.2602    0.0000 C   0  0  0  0  0  0  0  0  0  0  0  0
    2.6299   -1.4311    0.0000 C   0  0  0  0  0  0  0  0  0  0  0  0
    3.9729   -2.0992    0.0000 C   0  0  0  0  0  0  0  0  0  0  0  0
    5.2230   -1.2702    0.0000 C   0  0  0  0  0  0  0  0  0  0  0  0
    5.1301    0.2269    0.0000 C   0  0  0  0  0  0  0  0  0  0  0  0
    6.3802    1.0559    0.0000 C   0  0  0  0  0  0  0  0  0  0  0  0
    6.2872    2.5531    0.0000 C   0  0  0  0  0  0  0  0  0  0  0  0
    7.5373    3.3821    0.0000 O   0  0  0  0  0  0  0  0  0  0  0  0
    4.9442    3.2212    0.0000 C   0  0  0  0  0  0  0  0  0  0  0  0
    3.6942    2.3921    0.0000 C   0  0  0  0  0  0  0  0  0  0  0  0
    3.7871    0.8950    0.0000 C   0  0  0  0  0  0  0  0  0  0  0  0
    2.4441    1.5631    0.0000 C   0  0  0  0  0  0  0  0  0  0  0  0
    2.5370    0.0660    0.0000 C   0  0  0  0  0  0  0  0  0  0  0  0
    1.1940    0.7341    0.0000 C   0  0  0  0  0  0  0  0  0  0  0  0
   -0.0561   -0.0949    0.0000 C   0  0  0  0  0  0  0  0  0  0  0  0
   -1.3991    0.5732    0.0000 O   0  0  0  0  0  0  0  0  0  0  0  0
    0.0368   -1.5921    0.0000 C   0  0  0  0  0  0  0  0  0  0  0  0
   -1.3687   -1.0680    0.0000 C   0  0  0  0  0  0  0  0  0  0  0  0
  2  1  1  6
  2  3  1  0
  3  4  1  0
  4  5  1  0
  5  6  2  0
  5  7  1  0
  7  8  1  0
  8  9  1  0
  9 10  1  0
  2 11  1  0
 11 12  1  6
 12 13  1  0
 14 13  1  6
 14 15  1  0
 15 16  1  1
 16 17  1  0
 18 17  1  1
 18 19  1  0
 19 20  1  0
 20 21  1  1
 20 22  1  0
 22 23  1  0
 23 24  1  0
 24 25  1  6
 24 26  1  0
 26 27  1  6
 27 28  1  0
 28 29  1  6
 28 30  1  0
 30 31  1  6
 30 11  1  0
 30 14  1  0
 26 15  1  0
 24 18  1  0
M  END
>  <MS_ID>  (735) 
MS0766

>  <SMILES>  (735) 
C[C@H](CCC(=O)NCCO)[C@H]1CC[C@H]2[C@@H]3CC[C@@H]4C[C@H](O)CC[C@]4(C)[C@H]3C[C@@H](O)[C@]12C

>  <Structure_dimension>  (735) 
2D

$$$$
MS0767
     RDKit          2D

 37 41  0  0  0  0  0  0  0  0999 V2000
   -1.5310   -4.5183    0.0000 C   0  0  0  0  0  0  0  0  0  0  0  0
   -0.8750   -3.1693    0.0000 C   0  0  0  0  0  0  0  0  0  0  0  0
   -1.7153   -1.9267    0.0000 C   0  0  0  0  0  0  0  0  0  0  0  0
   -3.2115   -2.0332    0.0000 C   0  0  0  0  0  0  0  0  0  0  0  0
   -4.0518   -0.7906    0.0000 C   0  0  0  0  0  0  0  0  0  0  0  0
   -3.3958    0.5584    0.0000 O   0  0  0  0  0  0  0  0  0  0  0  0
   -5.5480   -0.8970    0.0000 N   0  0  0  0  0  0  0  0  0  0  0  0
   -6.3883    0.3455    0.0000 C   0  0  0  0  0  0  0  0  0  0  0  0
   -5.7323    1.6945    0.0000 C   0  0  0  0  0  0  0  0  0  0  0  0
   -6.5726    2.9370    0.0000 C   0  0  0  0  0  0  0  0  0  0  0  0
   -8.0688    2.8306    0.0000 C   0  0  0  0  0  0  0  0  0  0  0  0
   -8.9091    4.0732    0.0000 F   0  0  0  0  0  0  0  0  0  0  0  0
   -8.7248    1.4816    0.0000 C   0  0  0  0  0  0  0  0  0  0  0  0
   -7.8845    0.2391    0.0000 C   0  0  0  0  0  0  0  0  0  0  0  0
   -8.5404   -1.1099    0.0000 F   0  0  0  0  0  0  0  0  0  0  0  0
    0.6212   -3.0629    0.0000 C   0  0  0  0  0  0  0  0  0  0  0  0
    1.5868   -4.2108    0.0000 C   0  0  0  0  0  0  0  0  0  0  0  0
    2.9769   -3.6472    0.0000 C   0  0  0  0  0  0  0  0  0  0  0  0
    2.8704   -2.1510    0.0000 C   0  0  0  0  0  0  0  0  0  0  0  0
    3.9111   -1.0708    0.0000 C   0  0  0  0  0  0  0  0  0  0  0  0
    5.3670   -1.4319    0.0000 C   0  0  0  0  0  0  0  0  0  0  0  0
    5.7822   -2.8733    0.0000 O   0  0  0  0  0  0  0  0  0  0  0  0
    6.4077   -0.3516    0.0000 C   0  0  0  0  0  0  0  0  0  0  0  0
    5.9925    1.0898    0.0000 C   0  0  0  0  0  0  0  0  0  0  0  0
    7.0332    2.1700    0.0000 C   0  0  0  0  0  0  0  0  0  0  0  0
    6.6181    3.6114    0.0000 C   0  0  0  0  0  0  0  0  0  0  0  0
    7.6587    4.6917    0.0000 O   0  0  0  0  0  0  0  0  0  0  0  0
    5.1622    3.9726    0.0000 C   0  0  0  0  0  0  0  0  0  0  0  0
    4.1215    2.8923    0.0000 C   0  0  0  0  0  0  0  0  0  0  0  0
    4.5367    1.4509    0.0000 C   0  0  0  0  0  0  0  0  0  0  0  0
    3.0808    1.8120    0.0000 C   0  0  0  0  0  0  0  0  0  0  0  0
    3.4960    0.3706    0.0000 C   0  0  0  0  0  0  0  0  0  0  0  0
    2.0401    0.7318    0.0000 C   0  0  0  0  0  0  0  0  0  0  0  0
    0.9994   -0.3485    0.0000 C   0  0  0  0  0  0  0  0  0  0  0  0
   -0.4565    0.0127    0.0000 O   0  0  0  0  0  0  0  0  0  0  0  0
    1.4146   -1.7899    0.0000 C   0  0  0  0  0  0  0  0  0  0  0  0
   -0.0711   -1.5829    0.0000 C   0  0  0  0  0  0  0  0  0  0  0  0
  2  1  1  6
  2  3  1  0
  3  4  1  0
  4  5  1  0
  5  6  2  0
  5  7  1  0
  7  8  1  0
  8  9  2  0
  9 10  1  0
 10 11  2  0
 11 12  1  0
 11 13  1  0
 13 14  2  0
 14 15  1  0
  2 16  1  0
 16 17  1  6
 17 18  1  0
 19 18  1  6
 19 20  1  0
 20 21  1  1
 21 22  1  1
 21 23  1  0
 24 23  1  1
 24 25  1  0
 25 26  1  0
 26 27  1  1
 26 28  1  0
 28 29  1  0
 29 30  1  0
 30 31  1  6
 30 32  1  0
 32 33  1  6
 33 34  1  0
 34 35  1  1
 34 36  1  0
 36 37  1  6
 14  8  1  0
 36 16  1  0
 36 19  1  0
 32 20  1  0
 30 24  1  0
M  END
>  <MS_ID>  (736) 
MS0767

>  <SMILES>  (736) 
C[C@H](CCC(=O)Nc1ccc(F)cc1F)[C@H]1CC[C@H]2[C@@H]3[C@H](O)C[C@@H]4C[C@H](O)CC[C@]4(C)[C@H]3C[C@H](O)[C@]12C

>  <Structure_dimension>  (736) 
2D

$$$$
MS0768
     RDKit          2D

 34 37  0  0  0  0  0  0  0  0999 V2000
   -8.6523    1.4696    0.0000 C   0  0  0  0  0  0  0  0  0  0  0  0
   -7.1543    1.3922    0.0000 C   0  0  0  0  0  0  0  0  0  0  0  0
   -6.4723    0.0562    0.0000 N   0  0  0  0  0  0  0  0  0  0  0  0
   -4.9743   -0.0213    0.0000 C   0  0  0  0  0  0  0  0  0  0  0  0
   -4.1583    1.2374    0.0000 O   0  0  0  0  0  0  0  0  0  0  0  0
   -4.2923   -1.3573    0.0000 C   0  0  0  0  0  0  0  0  0  0  0  0
   -2.7943   -1.4347    0.0000 C   0  0  0  0  0  0  0  0  0  0  0  0
   -2.1124   -2.7707    0.0000 C   0  0  0  0  0  0  0  0  0  0  0  0
   -2.9284   -4.0293    0.0000 C   0  0  0  0  0  0  0  0  0  0  0  0
   -0.6144   -2.8481    0.0000 C   0  0  0  0  0  0  0  0  0  0  0  0
    0.2035   -4.1055    0.0000 C   0  0  0  0  0  0  0  0  0  0  0  0
    1.6521   -3.7162    0.0000 C   0  0  0  0  0  0  0  0  0  0  0  0
    1.7295   -2.2182    0.0000 C   0  0  0  0  0  0  0  0  0  0  0  0
    2.8945   -1.2734    0.0000 C   0  0  0  0  0  0  0  0  0  0  0  0
    4.2953   -1.8099    0.0000 C   0  0  0  0  0  0  0  0  0  0  0  0
    4.5310   -3.2913    0.0000 O   0  0  0  0  0  0  0  0  0  0  0  0
    5.4603   -0.8651    0.0000 C   0  0  0  0  0  0  0  0  0  0  0  0
    5.2246    0.6163    0.0000 C   0  0  0  0  0  0  0  0  0  0  0  0
    6.3896    1.5611    0.0000 C   0  0  0  0  0  0  0  0  0  0  0  0
    6.1539    3.0425    0.0000 C   0  0  0  0  0  0  0  0  0  0  0  0
    7.3189    3.9873    0.0000 O   0  0  0  0  0  0  0  0  0  0  0  0
    4.7531    3.5790    0.0000 C   0  0  0  0  0  0  0  0  0  0  0  0
    3.5881    2.6342    0.0000 C   0  0  0  0  0  0  0  0  0  0  0  0
    3.8238    1.1528    0.0000 C   0  0  0  0  0  0  0  0  0  0  0  0
    2.4231    1.6893    0.0000 C   0  0  0  0  0  0  0  0  0  0  0  0
    2.6588    0.2080    0.0000 C   0  0  0  0  0  0  0  0  0  0  0  0
    1.2580    0.7445    0.0000 C   0  0  0  0  0  0  0  0  0  0  0  0
    0.0930   -0.2003    0.0000 C   0  0  0  0  0  0  0  0  0  0  0  0
   -1.3077    0.3362    0.0000 O   0  0  0  0  0  0  0  0  0  0  0  0
    0.3287   -1.6817    0.0000 C   0  0  0  0  0  0  0  0  0  0  0  0
   -1.1204   -1.2945    0.0000 C   0  0  0  0  0  0  0  0  0  0  0  0
   -6.3382    2.6508    0.0000 C   0  0  0  0  0  0  0  0  0  0  0  0
   -4.8402    2.5734    0.0000 O   0  0  0  0  0  0  0  0  0  0  0  0
   -7.0202    3.9868    0.0000 O   0  0  0  0  0  0  0  0  0  0  0  0
  2  1  1  1
  2  3  1  0
  3  4  1  0
  4  5  2  0
  4  6  1  0
  6  7  1  0
  7  8  1  0
  8  9  1  6
  8 10  1  0
 10 11  1  6
 11 12  1  0
 13 12  1  6
 13 14  1  0
 14 15  1  1
 15 16  1  1
 15 17  1  0
 18 17  1  1
 18 19  1  0
 19 20  1  0
 20 21  1  1
 20 22  1  0
 22 23  1  0
 23 24  1  0
 24 25  1  6
 24 26  1  0
 26 27  1  6
 27 28  1  0
 28 29  1  1
 28 30  1  0
 30 31  1  6
  2 32  1  0
 32 33  2  0
 32 34  1  0
 30 10  1  0
 30 13  1  0
 26 14  1  0
 24 18  1  0
M  END
>  <MS_ID>  (737) 
MS0768

>  <SMILES>  (737) 
C[C@H](NC(=O)CC[C@@H](C)[C@H]1CC[C@H]2[C@@H]3[C@H](O)C[C@@H]4C[C@H](O)CC[C@]4(C)[C@H]3C[C@H](O)[C@]12C)C(=O)O

>  <Structure_dimension>  (737) 
2D

$$$$
MS0769
     RDKit          2D

 31 34  0  0  0  0  0  0  0  0999 V2000
   -3.5119   -3.5779    0.0000 C   0  0  0  0  0  0  0  0  0  0  0  0
   -2.6109   -2.3787    0.0000 C   0  0  0  0  0  0  0  0  0  0  0  0
   -3.1991   -0.9988    0.0000 C   0  0  0  0  0  0  0  0  0  0  0  0
   -4.6881   -0.8181    0.0000 C   0  0  0  0  0  0  0  0  0  0  0  0
   -5.2762    0.5618    0.0000 C   0  0  0  0  0  0  0  0  0  0  0  0
   -4.3753    1.7610    0.0000 O   0  0  0  0  0  0  0  0  0  0  0  0
   -6.7653    0.7424    0.0000 O   0  0  0  0  0  0  0  0  0  0  0  0
   -7.3534    2.1223    0.0000 C   0  0  0  0  0  0  0  0  0  0  0  0
   -8.8425    2.3029    0.0000 C   0  0  0  0  0  0  0  0  0  0  0  0
   -9.4306    3.6828    0.0000 O   0  0  0  0  0  0  0  0  0  0  0  0
   -1.1219   -2.5593    0.0000 C   0  0  0  0  0  0  0  0  0  0  0  0
   -0.3927   -3.8702    0.0000 C   0  0  0  0  0  0  0  0  0  0  0  0
    1.0793   -3.5818    0.0000 C   0  0  0  0  0  0  0  0  0  0  0  0
    1.2599   -2.0927    0.0000 C   0  0  0  0  0  0  0  0  0  0  0  0
    2.4874   -1.2306    0.0000 C   0  0  0  0  0  0  0  0  0  0  0  0
    3.8478   -1.8625    0.0000 C   0  0  0  0  0  0  0  0  0  0  0  0
    3.9807   -3.3566    0.0000 O   0  0  0  0  0  0  0  0  0  0  0  0
    5.0753   -1.0003    0.0000 C   0  0  0  0  0  0  0  0  0  0  0  0
    4.9423    0.4938    0.0000 C   0  0  0  0  0  0  0  0  0  0  0  0
    6.1698    1.3559    0.0000 C   0  0  0  0  0  0  0  0  0  0  0  0
    6.0369    2.8500    0.0000 C   0  0  0  0  0  0  0  0  0  0  0  0
    7.2644    3.7122    0.0000 O   0  0  0  0  0  0  0  0  0  0  0  0
    4.6765    3.4820    0.0000 C   0  0  0  0  0  0  0  0  0  0  0  0
    3.4490    2.6198    0.0000 C   0  0  0  0  0  0  0  0  0  0  0  0
    3.5820    1.1257    0.0000 C   0  0  0  0  0  0  0  0  0  0  0  0
    2.2216    1.7576    0.0000 C   0  0  0  0  0  0  0  0  0  0  0  0
    2.3545    0.2635    0.0000 C   0  0  0  0  0  0  0  0  0  0  0  0
    0.9941    0.8955    0.0000 C   0  0  0  0  0  0  0  0  0  0  0  0
   -0.2334    0.0333    0.0000 C   0  0  0  0  0  0  0  0  0  0  0  0
   -0.1005   -1.4608    0.0000 C   0  0  0  0  0  0  0  0  0  0  0  0
   -1.5195   -0.9745    0.0000 C   0  0  0  0  0  0  0  0  0  0  0  0
  2  1  1  6
  2  3  1  0
  3  4  1  0
  4  5  1  0
  5  6  2  0
  5  7  1  0
  7  8  1  0
  8  9  1  0
  9 10  1  0
  2 11  1  0
 11 12  1  6
 12 13  1  0
 14 13  1  6
 14 15  1  0
 15 16  1  1
 16 17  1  1
 16 18  1  0
 19 18  1  1
 19 20  1  0
 20 21  1  0
 21 22  2  0
 21 23  1  0
 23 24  1  0
 24 25  1  0
 25 26  1  6
 25 27  1  0
 27 28  1  6
 28 29  1  0
 29 30  1  0
 30 31  1  6
 30 11  1  0
 30 14  1  0
 27 15  1  0
 25 19  1  0
M  END
>  <MS_ID>  (738) 
MS0769

>  <SMILES>  (738) 
C[C@H](CCC(=O)OCCO)[C@H]1CC[C@H]2[C@@H]3[C@H](O)C[C@@H]4CC(=O)CC[C@]4(C)[C@H]3CC[C@]12C

>  <Structure_dimension>  (738) 
2D

$$$$
MS0770
     RDKit          2D

 31 34  0  0  0  0  0  0  0  0999 V2000
   -3.4301   -3.6172    0.0000 C   0  0  0  0  0  0  0  0  0  0  0  0
   -2.4973   -2.4425    0.0000 C   0  0  0  0  0  0  0  0  0  0  0  0
   -3.0483   -1.0473    0.0000 C   0  0  0  0  0  0  0  0  0  0  0  0
   -4.5321   -0.8270    0.0000 C   0  0  0  0  0  0  0  0  0  0  0  0
   -5.0831    0.5682    0.0000 C   0  0  0  0  0  0  0  0  0  0  0  0
   -4.1503    1.7429    0.0000 O   0  0  0  0  0  0  0  0  0  0  0  0
   -6.5668    0.7886    0.0000 O   0  0  0  0  0  0  0  0  0  0  0  0
   -7.1178    2.1837    0.0000 C   0  0  0  0  0  0  0  0  0  0  0  0
   -8.6015    2.4041    0.0000 C   0  0  0  0  0  0  0  0  0  0  0  0
   -9.1525    3.7992    0.0000 O   0  0  0  0  0  0  0  0  0  0  0  0
   -1.0136   -2.6629    0.0000 C   0  0  0  0  0  0  0  0  0  0  0  0
   -0.3198   -3.9928    0.0000 C   0  0  0  0  0  0  0  0  0  0  0  0
    1.1594   -3.7439    0.0000 C   0  0  0  0  0  0  0  0  0  0  0  0
    1.3798   -2.2602    0.0000 C   0  0  0  0  0  0  0  0  0  0  0  0
    2.6299   -1.4311    0.0000 C   0  0  0  0  0  0  0  0  0  0  0  0
    3.9729   -2.0992    0.0000 C   0  0  0  0  0  0  0  0  0  0  0  0
    5.2230   -1.2702    0.0000 C   0  0  0  0  0  0  0  0  0  0  0  0
    5.1301    0.2269    0.0000 C   0  0  0  0  0  0  0  0  0  0  0  0
    6.3802    1.0559    0.0000 C   0  0  0  0  0  0  0  0  0  0  0  0
    6.2872    2.5531    0.0000 C   0  0  0  0  0  0  0  0  0  0  0  0
    7.5373    3.3821    0.0000 O   0  0  0  0  0  0  0  0  0  0  0  0
    4.9442    3.2212    0.0000 C   0  0  0  0  0  0  0  0  0  0  0  0
    3.6942    2.3921    0.0000 C   0  0  0  0  0  0  0  0  0  0  0  0
    3.7871    0.8950    0.0000 C   0  0  0  0  0  0  0  0  0  0  0  0
    2.4441    1.5631    0.0000 C   0  0  0  0  0  0  0  0  0  0  0  0
    2.5370    0.0660    0.0000 C   0  0  0  0  0  0  0  0  0  0  0  0
    1.1940    0.7341    0.0000 C   0  0  0  0  0  0  0  0  0  0  0  0
   -0.0561   -0.0949    0.0000 C   0  0  0  0  0  0  0  0  0  0  0  0
   -1.3991    0.5732    0.0000 O   0  0  0  0  0  0  0  0  0  0  0  0
    0.0368   -1.5921    0.0000 C   0  0  0  0  0  0  0  0  0  0  0  0
   -1.3687   -1.0680    0.0000 C   0  0  0  0  0  0  0  0  0  0  0  0
  2  1  1  6
  2  3  1  0
  3  4  1  0
  4  5  1  0
  5  6  2  0
  5  7  1  0
  7  8  1  0
  8  9  1  0
  9 10  1  0
  2 11  1  0
 11 12  1  6
 12 13  1  0
 14 13  1  6
 14 15  1  0
 15 16  1  1
 16 17  1  0
 18 17  1  1
 18 19  1  0
 19 20  1  0
 20 21  1  1
 20 22  1  0
 22 23  1  0
 23 24  1  0
 24 25  1  6
 24 26  1  0
 26 27  1  6
 27 28  1  0
 28 29  2  0
 28 30  1  0
 30 31  1  6
 30 11  1  0
 30 14  1  0
 26 15  1  0
 24 18  1  0
M  END
>  <MS_ID>  (739) 
MS0770

>  <SMILES>  (739) 
C[C@H](CCC(=O)OCCO)[C@H]1CC[C@H]2[C@@H]3CC[C@@H]4C[C@H](O)CC[C@]4(C)[C@H]3CC(=O)[C@]12C

>  <Structure_dimension>  (739) 
2D

$$$$
MS0771
     RDKit          2D

 29 32  0  0  0  0  0  0  0  0999 V2000
   -5.0303   -2.1373    0.0000 C   0  0  0  0  0  0  0  0  0  0  0  0
   -3.8594   -1.1998    0.0000 C   0  0  0  0  0  0  0  0  0  0  0  0
   -4.0858    0.2830    0.0000 C   0  0  0  0  0  0  0  0  0  0  0  0
   -5.4831    0.8284    0.0000 C   0  0  0  0  0  0  0  0  0  0  0  0
   -5.7095    2.3112    0.0000 C   0  0  0  0  0  0  0  0  0  0  0  0
   -4.5386    3.2487    0.0000 O   0  0  0  0  0  0  0  0  0  0  0  0
   -7.1069    2.8565    0.0000 O   0  0  0  0  0  0  0  0  0  0  0  0
   -2.4620   -1.7451    0.0000 C   0  0  0  0  0  0  0  0  0  0  0  0
   -2.0818   -3.1961    0.0000 C   0  0  0  0  0  0  0  0  0  0  0  0
   -0.5844   -3.2830    0.0000 C   0  0  0  0  0  0  0  0  0  0  0  0
   -0.0390   -1.8856    0.0000 C   0  0  0  0  0  0  0  0  0  0  0  0
    1.3643   -1.3559    0.0000 C   0  0  0  0  0  0  0  0  0  0  0  0
    2.5248   -2.3063    0.0000 C   0  0  0  0  0  0  0  0  0  0  0  0
    2.2819   -3.7865    0.0000 O   0  0  0  0  0  0  0  0  0  0  0  0
    3.9281   -1.7765    0.0000 C   0  0  0  0  0  0  0  0  0  0  0  0
    4.1710   -0.2963    0.0000 C   0  0  0  0  0  0  0  0  0  0  0  0
    5.5743    0.2334    0.0000 C   0  0  0  0  0  0  0  0  0  0  0  0
    5.8172    1.7136    0.0000 C   0  0  0  0  0  0  0  0  0  0  0  0
    7.2205    2.2434    0.0000 N   0  0  0  0  0  0  0  0  0  0  0  0
    4.6568    2.6641    0.0000 C   0  0  0  0  0  0  0  0  0  0  0  0
    3.2534    2.1343    0.0000 C   0  0  0  0  0  0  0  0  0  0  0  0
    3.0105    0.6541    0.0000 C   0  0  0  0  0  0  0  0  0  0  0  0
    1.8501    1.6046    0.0000 C   0  0  0  0  0  0  0  0  0  0  0  0
    1.6072    0.1244    0.0000 C   0  0  0  0  0  0  0  0  0  0  0  0
    0.4467    1.0748    0.0000 C   0  0  0  0  0  0  0  0  0  0  0  0
   -0.9566    0.5450    0.0000 C   0  0  0  0  0  0  0  0  0  0  0  0
   -2.1170    1.4955    0.0000 O   0  0  0  0  0  0  0  0  0  0  0  0
   -1.1995   -0.9352    0.0000 C   0  0  0  0  0  0  0  0  0  0  0  0
   -2.4529   -0.1112    0.0000 C   0  0  0  0  0  0  0  0  0  0  0  0
  2  1  1  6
  2  3  1  0
  3  4  1  0
  4  5  1  0
  5  6  2  0
  5  7  1  0
  2  8  1  0
  8  9  1  6
  9 10  1  0
 11 10  1  6
 11 12  1  0
 12 13  1  1
 13 14  1  6
 13 15  1  0
 16 15  1  1
 16 17  1  0
 17 18  1  0
 18 19  1  1
 18 20  1  0
 20 21  1  0
 21 22  1  0
 22 23  1  6
 22 24  1  0
 24 25  1  6
 25 26  1  0
 26 27  2  0
 26 28  1  0
 28 29  1  6
 28  8  1  0
 28 11  1  0
 24 12  1  0
 22 16  1  0
M  END
>  <MS_ID>  (740) 
MS0771

>  <SMILES>  (740) 
C[C@H](CCC(=O)O)[C@H]1CC[C@H]2[C@@H]3[C@@H](O)C[C@@H]4C[C@H](N)CC[C@]4(C)[C@H]3CC(=O)[C@]12C

>  <Structure_dimension>  (740) 
2D

$$$$
MS0772
     RDKit          2D

 33 36  0  0  0  0  0  0  0  0999 V2000
   -2.4343   -4.1694    0.0000 C   0  0  0  0  0  0  0  0  0  0  0  0
   -1.6856   -2.8696    0.0000 C   0  0  0  0  0  0  0  0  0  0  0  0
   -2.4369   -1.5713    0.0000 C   0  0  0  0  0  0  0  0  0  0  0  0
   -3.9369   -1.5728    0.0000 C   0  0  0  0  0  0  0  0  0  0  0  0
   -4.6882   -0.2745    0.0000 C   0  0  0  0  0  0  0  0  0  0  0  0
   -3.9395    1.0253    0.0000 O   0  0  0  0  0  0  0  0  0  0  0  0
   -6.1882   -0.2760    0.0000 O   0  0  0  0  0  0  0  0  0  0  0  0
   -6.9395    1.0223    0.0000 C   0  0  0  0  0  0  0  0  0  0  0  0
   -8.4395    1.0208    0.0000 C   0  0  0  0  0  0  0  0  0  0  0  0
   -9.1908    2.3191    0.0000 N   0  0  0  0  0  0  0  0  0  0  0  0
  -10.6908    2.3176    0.0000 C   0  0  0  0  0  0  0  0  0  0  0  0
   -8.4421    3.6189    0.0000 C   0  0  0  0  0  0  0  0  0  0  0  0
   -0.1856   -2.8681    0.0000 C   0  0  0  0  0  0  0  0  0  0  0  0
    0.6973   -4.0807    0.0000 C   0  0  0  0  0  0  0  0  0  0  0  0
    2.1234   -3.6158    0.0000 C   0  0  0  0  0  0  0  0  0  0  0  0
    2.1219   -2.1158    0.0000 C   0  0  0  0  0  0  0  0  0  0  0  0
    3.2356   -1.1109    0.0000 C   0  0  0  0  0  0  0  0  0  0  0  0
    4.6626   -1.5730    0.0000 C   0  0  0  0  0  0  0  0  0  0  0  0
    4.9760   -3.0399    0.0000 O   0  0  0  0  0  0  0  0  0  0  0  0
    5.7764   -0.5682    0.0000 C   0  0  0  0  0  0  0  0  0  0  0  0
    5.4630    0.8987    0.0000 C   0  0  0  0  0  0  0  0  0  0  0  0
    6.5767    1.9035    0.0000 C   0  0  0  0  0  0  0  0  0  0  0  0
    6.2634    3.3704    0.0000 C   0  0  0  0  0  0  0  0  0  0  0  0
    7.3771    4.3752    0.0000 O   0  0  0  0  0  0  0  0  0  0  0  0
    4.8363    3.8325    0.0000 C   0  0  0  0  0  0  0  0  0  0  0  0
    3.7226    2.8277    0.0000 C   0  0  0  0  0  0  0  0  0  0  0  0
    4.0360    1.3608    0.0000 C   0  0  0  0  0  0  0  0  0  0  0  0
    2.6089    1.8229    0.0000 C   0  0  0  0  0  0  0  0  0  0  0  0
    2.9223    0.3560    0.0000 C   0  0  0  0  0  0  0  0  0  0  0  0
    1.4952    0.8181    0.0000 C   0  0  0  0  0  0  0  0  0  0  0  0
    0.3815   -0.1867    0.0000 C   0  0  0  0  0  0  0  0  0  0  0  0
    0.6948   -1.6537    0.0000 C   0  0  0  0  0  0  0  0  0  0  0  0
   -0.7727   -1.3433    0.0000 C   0  0  0  0  0  0  0  0  0  0  0  0
  2  1  1  6
  2  3  1  0
  3  4  1  0
  4  5  1  0
  5  6  2  0
  5  7  1  0
  7  8  1  0
  8  9  1  0
  9 10  1  0
 10 11  1  0
 10 12  1  0
  2 13  1  0
 13 14  1  6
 14 15  1  0
 16 15  1  6
 16 17  1  0
 17 18  1  1
 18 19  1  1
 18 20  1  0
 21 20  1  1
 21 22  1  0
 22 23  1  0
 23 24  1  1
 23 25  1  0
 25 26  1  0
 26 27  1  0
 27 28  1  6
 27 29  1  0
 29 30  1  6
 30 31  1  0
 31 32  1  0
 32 33  1  6
 32 13  1  0
 32 16  1  0
 29 17  1  0
 27 21  1  0
M  END
>  <MS_ID>  (741) 
MS0772

>  <SMILES>  (741) 
C[C@H](CCC(=O)OCCN(C)C)[C@H]1CC[C@H]2[C@@H]3[C@H](O)C[C@@H]4C[C@H](O)CC[C@]4(C)[C@H]3CC[C@]12C

>  <Structure_dimension>  (741) 
2D

$$$$
MS0773
     RDKit          2D

 31 34  0  0  0  0  0  0  0  0999 V2000
   -6.0604   -1.8459    0.0000 C   0  0  0  0  0  0  0  0  0  0  0  0
   -4.8386   -0.9757    0.0000 C   0  0  0  0  0  0  0  0  0  0  0  0
   -4.9814    0.5175    0.0000 C   0  0  0  0  0  0  0  0  0  0  0  0
   -6.3459    1.1405    0.0000 C   0  0  0  0  0  0  0  0  0  0  0  0
   -6.4886    2.6337    0.0000 C   0  0  0  0  0  0  0  0  0  0  0  0
   -5.2668    3.5039    0.0000 O   0  0  0  0  0  0  0  0  0  0  0  0
   -7.8531    3.2567    0.0000 O   0  0  0  0  0  0  0  0  0  0  0  0
   -3.4741   -1.5987    0.0000 C   0  0  0  0  0  0  0  0  0  0  0  0
   -3.1761   -3.0687    0.0000 C   0  0  0  0  0  0  0  0  0  0  0  0
   -1.6858   -3.2396    0.0000 C   0  0  0  0  0  0  0  0  0  0  0  0
   -1.0629   -1.8751    0.0000 C   0  0  0  0  0  0  0  0  0  0  0  0
    0.3680   -1.4250    0.0000 C   0  0  0  0  0  0  0  0  0  0  0  0
    1.4732   -2.4392    0.0000 C   0  0  0  0  0  0  0  0  0  0  0  0
    1.1476   -3.9034    0.0000 O   0  0  0  0  0  0  0  0  0  0  0  0
    2.9041   -1.9891    0.0000 C   0  0  0  0  0  0  0  0  0  0  0  0
    3.2298   -0.5249    0.0000 C   0  0  0  0  0  0  0  0  0  0  0  0
    4.6607   -0.0748    0.0000 C   0  0  0  0  0  0  0  0  0  0  0  0
    4.9864    1.3894    0.0000 C   0  0  0  0  0  0  0  0  0  0  0  0
    6.4173    1.8395    0.0000 C   0  0  0  0  0  0  0  0  0  0  0  0
    7.5225    0.8253    0.0000 C   0  0  0  0  0  0  0  0  0  0  0  0
    7.1968   -0.6389    0.0000 O   0  0  0  0  0  0  0  0  0  0  0  0
    8.9534    1.2754    0.0000 O   0  0  0  0  0  0  0  0  0  0  0  0
    3.8812    2.4036    0.0000 C   0  0  0  0  0  0  0  0  0  0  0  0
    2.4503    1.9535    0.0000 C   0  0  0  0  0  0  0  0  0  0  0  0
    2.1246    0.4893    0.0000 C   0  0  0  0  0  0  0  0  0  0  0  0
    1.0194    1.5034    0.0000 C   0  0  0  0  0  0  0  0  0  0  0  0
    0.6937    0.0392    0.0000 C   0  0  0  0  0  0  0  0  0  0  0  0
   -0.4115    1.0534    0.0000 C   0  0  0  0  0  0  0  0  0  0  0  0
   -1.8424    0.6033    0.0000 C   0  0  0  0  0  0  0  0  0  0  0  0
   -2.1681   -0.8609    0.0000 C   0  0  0  0  0  0  0  0  0  0  0  0
   -3.3732    0.0321    0.0000 C   0  0  0  0  0  0  0  0  0  0  0  0
  2  1  1  6
  2  3  1  0
  3  4  1  0
  4  5  1  0
  5  6  2  0
  5  7  1  0
  2  8  1  0
  8  9  1  6
  9 10  1  0
 11 10  1  6
 11 12  1  0
 12 13  1  1
 13 14  1  1
 13 15  1  0
 16 15  1  1
 16 17  1  0
 17 18  1  0
 18 19  1  1
 19 20  1  0
 20 21  2  0
 20 22  1  0
 18 23  1  0
 23 24  1  0
 24 25  1  0
 25 26  1  6
 25 27  1  0
 27 28  1  6
 28 29  1  0
 29 30  1  0
 30 31  1  6
 30  8  1  0
 30 11  1  0
 27 12  1  0
 25 16  1  0
M  END
>  <MS_ID>  (742) 
MS0773

>  <SMILES>  (742) 
C[C@H](CCC(=O)O)[C@H]1CC[C@H]2[C@@H]3[C@H](O)C[C@@H]4C[C@H](CC(=O)O)CC[C@]4(C)[C@H]3CC[C@]12C

>  <Structure_dimension>  (742) 
2D

$$$$
MS0774
     RDKit          2D

 33 36  0  0  0  0  0  0  0  0999 V2000
   -3.1842   -3.6686    0.0000 C   0  0  0  0  0  0  0  0  0  0  0  0
   -2.3496   -2.4222    0.0000 C   0  0  0  0  0  0  0  0  0  0  0  0
   -3.0117   -1.0763    0.0000 C   0  0  0  0  0  0  0  0  0  0  0  0
   -4.5084   -0.9767    0.0000 C   0  0  0  0  0  0  0  0  0  0  0  0
   -5.1705    0.3693    0.0000 C   0  0  0  0  0  0  0  0  0  0  0  0
   -4.3359    1.6157    0.0000 O   0  0  0  0  0  0  0  0  0  0  0  0
   -6.6672    0.4689    0.0000 N   0  0  0  0  0  0  0  0  0  0  0  0
   -7.3293    1.8149    0.0000 C   0  0  0  0  0  0  0  0  0  0  0  0
   -8.8259    1.9145    0.0000 C   0  0  0  0  0  0  0  0  0  0  0  0
   -9.6606    0.6681    0.0000 O   0  0  0  0  0  0  0  0  0  0  0  0
   -9.4880    3.2604    0.0000 O   0  0  0  0  0  0  0  0  0  0  0  0
   -0.8529   -2.5218    0.0000 C   0  0  0  0  0  0  0  0  0  0  0  0
   -0.0538   -3.7912    0.0000 C   0  0  0  0  0  0  0  0  0  0  0  0
    1.4004   -3.4235    0.0000 C   0  0  0  0  0  0  0  0  0  0  0  0
    1.5000   -1.9268    0.0000 C   0  0  0  0  0  0  0  0  0  0  0  0
    2.6789   -0.9993    0.0000 C   0  0  0  0  0  0  0  0  0  0  0  0
    4.0716   -1.5565    0.0000 C   0  0  0  0  0  0  0  0  0  0  0  0
    4.2854   -3.0412    0.0000 C   0  0  0  0  0  0  0  0  0  0  0  0
    5.6780   -3.5985    0.0000 O   0  0  0  0  0  0  0  0  0  0  0  0
    5.2505   -0.6291    0.0000 C   0  0  0  0  0  0  0  0  0  0  0  0
    5.0368    0.8556    0.0000 C   0  0  0  0  0  0  0  0  0  0  0  0
    6.2157    1.7831    0.0000 C   0  0  0  0  0  0  0  0  0  0  0  0
    6.0019    3.2678    0.0000 C   0  0  0  0  0  0  0  0  0  0  0  0
    7.1808    4.1952    0.0000 O   0  0  0  0  0  0  0  0  0  0  0  0
    4.6092    3.8250    0.0000 C   0  0  0  0  0  0  0  0  0  0  0  0
    3.4303    2.8975    0.0000 C   0  0  0  0  0  0  0  0  0  0  0  0
    3.6441    1.4129    0.0000 C   0  0  0  0  0  0  0  0  0  0  0  0
    2.2514    1.9701    0.0000 C   0  0  0  0  0  0  0  0  0  0  0  0
    2.4652    0.4854    0.0000 C   0  0  0  0  0  0  0  0  0  0  0  0
    1.0725    1.0426    0.0000 C   0  0  0  0  0  0  0  0  0  0  0  0
   -0.1064    0.1152    0.0000 C   0  0  0  0  0  0  0  0  0  0  0  0
    0.1074   -1.3695    0.0000 C   0  0  0  0  0  0  0  0  0  0  0  0
   -1.3359   -0.9609    0.0000 C   0  0  0  0  0  0  0  0  0  0  0  0
  2  1  1  6
  2  3  1  0
  3  4  1  0
  4  5  1  0
  5  6  2  0
  5  7  1  0
  7  8  1  0
  8  9  1  0
  9 10  2  0
  9 11  1  0
  2 12  1  0
 12 13  1  6
 13 14  1  0
 15 14  1  6
 15 16  1  0
 16 17  1  1
 17 18  1  6
 18 19  1  0
 17 20  1  0
 21 20  1  1
 21 22  1  0
 22 23  1  0
 23 24  1  1
 23 25  1  0
 25 26  1  0
 26 27  1  0
 27 28  1  6
 27 29  1  0
 29 30  1  6
 30 31  1  0
 31 32  1  0
 32 33  1  6
 32 12  1  0
 32 15  1  0
 29 16  1  0
 27 21  1  0
M  END
>  <MS_ID>  (743) 
MS0774

>  <SMILES>  (743) 
C[C@H](CCC(=O)NCC(=O)O)[C@H]1CC[C@H]2[C@@H]3[C@@H](CO)C[C@@H]4C[C@H](O)CC[C@]4(C)[C@H]3CC[C@]12C

>  <Structure_dimension>  (743) 
2D

$$$$
MS0776
     RDKit          2D

 29 32  0  0  0  0  0  0  0  0999 V2000
   -5.0303   -2.1373    0.0000 C   0  0  0  0  0  0  0  0  0  0  0  0
   -3.8594   -1.1998    0.0000 C   0  0  0  0  0  0  0  0  0  0  0  0
   -4.0858    0.2830    0.0000 C   0  0  0  0  0  0  0  0  0  0  0  0
   -5.4831    0.8284    0.0000 C   0  0  0  0  0  0  0  0  0  0  0  0
   -5.7095    2.3112    0.0000 C   0  0  0  0  0  0  0  0  0  0  0  0
   -4.5386    3.2487    0.0000 O   0  0  0  0  0  0  0  0  0  0  0  0
   -7.1069    2.8565    0.0000 O   0  0  0  0  0  0  0  0  0  0  0  0
   -2.4620   -1.7451    0.0000 C   0  0  0  0  0  0  0  0  0  0  0  0
   -2.0818   -3.1961    0.0000 C   0  0  0  0  0  0  0  0  0  0  0  0
   -0.5844   -3.2830    0.0000 C   0  0  0  0  0  0  0  0  0  0  0  0
   -0.0390   -1.8856    0.0000 C   0  0  0  0  0  0  0  0  0  0  0  0
    1.3643   -1.3559    0.0000 C   0  0  0  0  0  0  0  0  0  0  0  0
    2.5248   -2.3063    0.0000 C   0  0  0  0  0  0  0  0  0  0  0  0
    2.2819   -3.7865    0.0000 O   0  0  0  0  0  0  0  0  0  0  0  0
    3.9281   -1.7765    0.0000 C   0  0  0  0  0  0  0  0  0  0  0  0
    4.1710   -0.2963    0.0000 C   0  0  0  0  0  0  0  0  0  0  0  0
    5.5743    0.2334    0.0000 C   0  0  0  0  0  0  0  0  0  0  0  0
    5.8172    1.7136    0.0000 C   0  0  0  0  0  0  0  0  0  0  0  0
    7.2205    2.2434    0.0000 S   0  0  0  0  0  0  0  0  0  0  0  0
    4.6568    2.6641    0.0000 C   0  0  0  0  0  0  0  0  0  0  0  0
    3.2534    2.1343    0.0000 C   0  0  0  0  0  0  0  0  0  0  0  0
    3.0105    0.6541    0.0000 C   0  0  0  0  0  0  0  0  0  0  0  0
    1.8501    1.6046    0.0000 C   0  0  0  0  0  0  0  0  0  0  0  0
    1.6072    0.1244    0.0000 C   0  0  0  0  0  0  0  0  0  0  0  0
    0.4467    1.0748    0.0000 C   0  0  0  0  0  0  0  0  0  0  0  0
   -0.9566    0.5450    0.0000 C   0  0  0  0  0  0  0  0  0  0  0  0
   -2.1170    1.4955    0.0000 O   0  0  0  0  0  0  0  0  0  0  0  0
   -1.1995   -0.9352    0.0000 C   0  0  0  0  0  0  0  0  0  0  0  0
   -2.4529   -0.1112    0.0000 C   0  0  0  0  0  0  0  0  0  0  0  0
  2  1  1  6
  2  3  1  0
  3  4  1  0
  4  5  1  0
  5  6  2  0
  5  7  1  0
  2  8  1  0
  8  9  1  6
  9 10  1  0
 11 10  1  6
 11 12  1  0
 12 13  1  1
 13 14  1  6
 13 15  1  0
 16 15  1  1
 16 17  1  0
 17 18  1  0
 18 19  1  1
 18 20  1  0
 20 21  1  0
 21 22  1  0
 22 23  1  6
 22 24  1  0
 24 25  1  6
 25 26  1  0
 26 27  1  1
 26 28  1  0
 28 29  1  6
 28  8  1  0
 28 11  1  0
 24 12  1  0
 22 16  1  0
M  END
>  <MS_ID>  (744) 
MS0776

>  <SMILES>  (744) 
C[C@H](CCC(=O)O)[C@H]1CC[C@H]2[C@@H]3[C@@H](O)C[C@@H]4C[C@H](S)CC[C@]4(C)[C@H]3C[C@H](O)[C@]12C

>  <Structure_dimension>  (744) 
2D

$$$$
MS0777
     RDKit          2D

 31 34  0  0  0  0  0  0  0  0999 V2000
   -2.6128   -3.7484    0.0000 C   0  0  0  0  0  0  0  0  0  0  0  0
   -1.7683   -2.5088    0.0000 C   0  0  0  0  0  0  0  0  0  0  0  0
   -2.4196   -1.1576    0.0000 C   0  0  0  0  0  0  0  0  0  0  0  0
   -3.9155   -1.0460    0.0000 C   0  0  0  0  0  0  0  0  0  0  0  0
   -4.5668    0.3052    0.0000 C   0  0  0  0  0  0  0  0  0  0  0  0
   -3.7223    1.5449    0.0000 O   0  0  0  0  0  0  0  0  0  0  0  0
   -6.0626    0.4167    0.0000 C   0  0  0  0  0  0  0  0  0  0  0  0
   -6.7140    1.7679    0.0000 C   0  0  0  0  0  0  0  0  0  0  0  0
   -8.2098    1.8794    0.0000 C   0  0  0  0  0  0  0  0  0  0  0  0
   -9.0543    0.6398    0.0000 O   0  0  0  0  0  0  0  0  0  0  0  0
   -8.8612    3.2307    0.0000 O   0  0  0  0  0  0  0  0  0  0  0  0
   -0.2724   -2.6203    0.0000 C   0  0  0  0  0  0  0  0  0  0  0  0
    0.5166   -3.8960    0.0000 C   0  0  0  0  0  0  0  0  0  0  0  0
    1.9737   -3.5398    0.0000 C   0  0  0  0  0  0  0  0  0  0  0  0
    2.0852   -2.0440    0.0000 C   0  0  0  0  0  0  0  0  0  0  0  0
    3.2715   -1.1260    0.0000 C   0  0  0  0  0  0  0  0  0  0  0  0
    4.6596   -1.6943    0.0000 C   0  0  0  0  0  0  0  0  0  0  0  0
    5.8459   -0.7762    0.0000 C   0  0  0  0  0  0  0  0  0  0  0  0
    5.6440    0.7101    0.0000 C   0  0  0  0  0  0  0  0  0  0  0  0
    6.8302    1.6281    0.0000 C   0  0  0  0  0  0  0  0  0  0  0  0
    6.6283    3.1145    0.0000 C   0  0  0  0  0  0  0  0  0  0  0  0
    5.2402    3.6828    0.0000 C   0  0  0  0  0  0  0  0  0  0  0  0
    4.0539    2.7648    0.0000 C   0  0  0  0  0  0  0  0  0  0  0  0
    4.2558    1.2784    0.0000 C   0  0  0  0  0  0  0  0  0  0  0  0
    2.8676    1.8467    0.0000 C   0  0  0  0  0  0  0  0  0  0  0  0
    3.0696    0.3604    0.0000 C   0  0  0  0  0  0  0  0  0  0  0  0
    1.6814    0.9287    0.0000 C   0  0  0  0  0  0  0  0  0  0  0  0
    0.4951    0.0107    0.0000 C   0  0  0  0  0  0  0  0  0  0  0  0
   -0.8930    0.5790    0.0000 O   0  0  0  0  0  0  0  0  0  0  0  0
    0.6970   -1.4757    0.0000 C   0  0  0  0  0  0  0  0  0  0  0  0
   -0.7429   -1.0556    0.0000 C   0  0  0  0  0  0  0  0  0  0  0  0
  2  1  1  6
  2  3  1  0
  3  4  1  0
  4  5  1  0
  5  6  2  0
  5  7  1  0
  7  8  1  0
  8  9  1  0
  9 10  2  0
  9 11  1  0
  2 12  1  0
 12 13  1  6
 13 14  1  0
 15 14  1  6
 15 16  1  0
 16 17  1  1
 17 18  1  0
 19 18  1  1
 19 20  1  0
 20 21  1  0
 21 22  1  0
 22 23  1  0
 23 24  1  0
 24 25  1  6
 24 26  1  0
 26 27  1  6
 27 28  1  0
 28 29  1  6
 28 30  1  0
 30 31  1  6
 30 12  1  0
 30 15  1  0
 26 16  1  0
 24 19  1  0
M  END
>  <MS_ID>  (745) 
MS0777

>  <SMILES>  (745) 
C[C@H](CCC(=O)CCC(=O)O)[C@H]1CC[C@H]2[C@@H]3CC[C@@H]4CCCC[C@]4(C)[C@H]3C[C@@H](O)[C@]12C

>  <Structure_dimension>  (745) 
2D

$$$$
MS0778
     RDKit          2D

 29 32  0  0  0  0  0  0  0  0999 V2000
   -5.0303   -2.1373    0.0000 C   0  0  0  0  0  0  0  0  0  0  0  0
   -3.8594   -1.1998    0.0000 C   0  0  0  0  0  0  0  0  0  0  0  0
   -4.0858    0.2830    0.0000 C   0  0  0  0  0  0  0  0  0  0  0  0
   -5.4831    0.8284    0.0000 C   0  0  0  0  0  0  0  0  0  0  0  0
   -5.7095    2.3112    0.0000 C   0  0  0  0  0  0  0  0  0  0  0  0
   -4.5386    3.2487    0.0000 O   0  0  0  0  0  0  0  0  0  0  0  0
   -7.1069    2.8565    0.0000 O   0  0  0  0  0  0  0  0  0  0  0  0
   -2.4620   -1.7451    0.0000 C   0  0  0  0  0  0  0  0  0  0  0  0
   -2.0818   -3.1961    0.0000 C   0  0  0  0  0  0  0  0  0  0  0  0
   -0.5844   -3.2830    0.0000 C   0  0  0  0  0  0  0  0  0  0  0  0
   -0.0390   -1.8856    0.0000 C   0  0  0  0  0  0  0  0  0  0  0  0
    1.3643   -1.3559    0.0000 C   0  0  0  0  0  0  0  0  0  0  0  0
    2.5248   -2.3063    0.0000 C   0  0  0  0  0  0  0  0  0  0  0  0
    2.2819   -3.7865    0.0000 O   0  0  0  0  0  0  0  0  0  0  0  0
    3.9281   -1.7765    0.0000 C   0  0  0  0  0  0  0  0  0  0  0  0
    4.1710   -0.2963    0.0000 C   0  0  0  0  0  0  0  0  0  0  0  0
    5.5743    0.2334    0.0000 C   0  0  0  0  0  0  0  0  0  0  0  0
    5.8172    1.7136    0.0000 C   0  0  0  0  0  0  0  0  0  0  0  0
    7.2205    2.2434    0.0000 Cl  0  0  0  0  0  0  0  0  0  0  0  0
    4.6568    2.6641    0.0000 C   0  0  0  0  0  0  0  0  0  0  0  0
    3.2534    2.1343    0.0000 C   0  0  0  0  0  0  0  0  0  0  0  0
    3.0105    0.6541    0.0000 C   0  0  0  0  0  0  0  0  0  0  0  0
    1.8501    1.6046    0.0000 C   0  0  0  0  0  0  0  0  0  0  0  0
    1.6072    0.1244    0.0000 C   0  0  0  0  0  0  0  0  0  0  0  0
    0.4467    1.0748    0.0000 C   0  0  0  0  0  0  0  0  0  0  0  0
   -0.9566    0.5450    0.0000 C   0  0  0  0  0  0  0  0  0  0  0  0
   -2.1170    1.4955    0.0000 O   0  0  0  0  0  0  0  0  0  0  0  0
   -1.1995   -0.9352    0.0000 C   0  0  0  0  0  0  0  0  0  0  0  0
   -2.4529   -0.1112    0.0000 C   0  0  0  0  0  0  0  0  0  0  0  0
  2  1  1  6
  2  3  1  0
  3  4  1  0
  4  5  1  0
  5  6  2  0
  5  7  1  0
  2  8  1  0
  8  9  1  6
  9 10  1  0
 11 10  1  6
 11 12  1  0
 12 13  1  1
 13 14  1  6
 13 15  1  0
 16 15  1  1
 16 17  1  0
 17 18  1  0
 18 19  1  1
 18 20  1  0
 20 21  1  0
 21 22  1  0
 22 23  1  6
 22 24  1  0
 24 25  1  6
 25 26  1  0
 26 27  2  0
 26 28  1  0
 28 29  1  6
 28  8  1  0
 28 11  1  0
 24 12  1  0
 22 16  1  0
M  END
>  <MS_ID>  (746) 
MS0778

>  <SMILES>  (746) 
C[C@H](CCC(=O)O)[C@H]1CC[C@H]2[C@@H]3[C@@H](O)C[C@@H]4C[C@H](Cl)CC[C@]4(C)[C@H]3CC(=O)[C@]12C

>  <Structure_dimension>  (746) 
2D

$$$$
MS0779
     RDKit          2D

 34 37  0  0  0  0  0  0  0  0999 V2000
   -2.7457   -3.8277    0.0000 C   0  0  0  0  0  0  0  0  0  0  0  0
   -1.9007   -2.5883    0.0000 C   0  0  0  0  0  0  0  0  0  0  0  0
   -2.5515   -1.2369    0.0000 C   0  0  0  0  0  0  0  0  0  0  0  0
   -4.0473   -1.1247    0.0000 C   0  0  0  0  0  0  0  0  0  0  0  0
   -4.6981    0.2267    0.0000 C   0  0  0  0  0  0  0  0  0  0  0  0
   -3.8531    1.4661    0.0000 O   0  0  0  0  0  0  0  0  0  0  0  0
   -6.1939    0.3389    0.0000 C   0  0  0  0  0  0  0  0  0  0  0  0
   -6.8447    1.6903    0.0000 N   0  0  0  0  0  0  0  0  0  0  0  0
   -8.3405    1.8025    0.0000 S   0  0  0  0  0  0  0  0  0  0  0  0
   -8.2283    3.2983    0.0000 O   0  0  0  0  0  0  0  0  0  0  0  0
   -8.4526    0.3067    0.0000 O   0  0  0  0  0  0  0  0  0  0  0  0
   -9.8363    1.9146    0.0000 O   0  0  0  0  0  0  0  0  0  0  0  0
   -0.4049   -2.7005    0.0000 C   0  0  0  0  0  0  0  0  0  0  0  0
    0.3836   -3.9765    0.0000 C   0  0  0  0  0  0  0  0  0  0  0  0
    1.8409   -3.6209    0.0000 C   0  0  0  0  0  0  0  0  0  0  0  0
    1.9530   -2.1251    0.0000 C   0  0  0  0  0  0  0  0  0  0  0  0
    3.1396   -1.2076    0.0000 C   0  0  0  0  0  0  0  0  0  0  0  0
    4.5276   -1.7764    0.0000 C   0  0  0  0  0  0  0  0  0  0  0  0
    4.7289   -3.2629    0.0000 O   0  0  0  0  0  0  0  0  0  0  0  0
    5.7142   -0.8589    0.0000 C   0  0  0  0  0  0  0  0  0  0  0  0
    5.5129    0.6276    0.0000 C   0  0  0  0  0  0  0  0  0  0  0  0
    6.6995    1.5451    0.0000 C   0  0  0  0  0  0  0  0  0  0  0  0
    6.4982    3.0315    0.0000 C   0  0  0  0  0  0  0  0  0  0  0  0
    7.6848    3.9491    0.0000 O   0  0  0  0  0  0  0  0  0  0  0  0
    5.1102    3.6004    0.0000 C   0  0  0  0  0  0  0  0  0  0  0  0
    3.9236    2.6829    0.0000 C   0  0  0  0  0  0  0  0  0  0  0  0
    4.1249    1.1964    0.0000 C   0  0  0  0  0  0  0  0  0  0  0  0
    2.7370    1.7653    0.0000 C   0  0  0  0  0  0  0  0  0  0  0  0
    2.9383    0.2789    0.0000 C   0  0  0  0  0  0  0  0  0  0  0  0
    1.5504    0.8477    0.0000 C   0  0  0  0  0  0  0  0  0  0  0  0
    0.3637   -0.0698    0.0000 C   0  0  0  0  0  0  0  0  0  0  0  0
   -1.0242    0.4991    0.0000 O   0  0  0  0  0  0  0  0  0  0  0  0
    0.5650   -1.5562    0.0000 C   0  0  0  0  0  0  0  0  0  0  0  0
   -0.8748   -1.1356    0.0000 C   0  0  0  0  0  0  0  0  0  0  0  0
  2  1  1  6
  2  3  1  0
  3  4  1  0
  4  5  1  0
  5  6  2  0
  5  7  1  0
  7  8  1  0
  8  9  1  0
  9 10  2  0
  9 11  2  0
  9 12  1  0
  2 13  1  0
 13 14  1  6
 14 15  1  0
 16 15  1  6
 16 17  1  0
 17 18  1  1
 18 19  1  1
 18 20  1  0
 21 20  1  1
 21 22  1  0
 22 23  1  0
 23 24  1  1
 23 25  1  0
 25 26  1  0
 26 27  1  0
 27 28  1  6
 27 29  1  0
 29 30  1  6
 30 31  1  0
 31 32  1  1
 31 33  1  0
 33 34  1  6
 33 13  1  0
 33 16  1  0
 29 17  1  0
 27 21  1  0
M  END
>  <MS_ID>  (747) 
MS0779

>  <SMILES>  (747) 
C[C@H](CCC(=O)CNS(=O)(=O)O)[C@H]1CC[C@H]2[C@@H]3[C@H](O)C[C@@H]4C[C@H](O)CC[C@]4(C)[C@H]3C[C@H](O)[C@]12C

>  <Structure_dimension>  (747) 
2D

$$$$
MS0780
     RDKit          2D

 33 36  0  0  0  0  0  0  0  0999 V2000
   -2.8663   -3.9244    0.0000 C   0  0  0  0  0  0  0  0  0  0  0  0
   -2.0510   -2.6653    0.0000 C   0  0  0  0  0  0  0  0  0  0  0  0
   -2.7339   -1.3297    0.0000 C   0  0  0  0  0  0  0  0  0  0  0  0
   -4.2319   -1.2532    0.0000 C   0  0  0  0  0  0  0  0  0  0  0  0
   -4.9147    0.0823    0.0000 C   0  0  0  0  0  0  0  0  0  0  0  0
   -4.0995    1.3415    0.0000 O   0  0  0  0  0  0  0  0  0  0  0  0
   -6.4128    0.1588    0.0000 O   0  0  0  0  0  0  0  0  0  0  0  0
   -7.0956    1.4944    0.0000 C   0  0  0  0  0  0  0  0  0  0  0  0
   -8.5936    1.5708    0.0000 C   0  0  0  0  0  0  0  0  0  0  0  0
   -9.2765    2.9064    0.0000 C   0  0  0  0  0  0  0  0  0  0  0  0
  -10.7745    2.9828    0.0000 O   0  0  0  0  0  0  0  0  0  0  0  0
   -0.5530   -2.7417    0.0000 C   0  0  0  0  0  0  0  0  0  0  0  0
    0.2657   -3.9986    0.0000 C   0  0  0  0  0  0  0  0  0  0  0  0
    1.7140   -3.6084    0.0000 C   0  0  0  0  0  0  0  0  0  0  0  0
    1.7905   -2.1103    0.0000 C   0  0  0  0  0  0  0  0  0  0  0  0
    2.9549   -1.1648    0.0000 C   0  0  0  0  0  0  0  0  0  0  0  0
    4.3560   -1.7004    0.0000 C   0  0  0  0  0  0  0  0  0  0  0  0
    4.5927   -3.1816    0.0000 O   0  0  0  0  0  0  0  0  0  0  0  0
    5.5204   -0.7548    0.0000 C   0  0  0  0  0  0  0  0  0  0  0  0
    5.2838    0.7264    0.0000 C   0  0  0  0  0  0  0  0  0  0  0  0
    6.4482    1.6720    0.0000 C   0  0  0  0  0  0  0  0  0  0  0  0
    6.2115    3.1532    0.0000 C   0  0  0  0  0  0  0  0  0  0  0  0
    7.3759    4.0988    0.0000 O   0  0  0  0  0  0  0  0  0  0  0  0
    4.8104    3.6888    0.0000 C   0  0  0  0  0  0  0  0  0  0  0  0
    3.6460    2.7432    0.0000 C   0  0  0  0  0  0  0  0  0  0  0  0
    3.8827    1.2620    0.0000 C   0  0  0  0  0  0  0  0  0  0  0  0
    2.4816    1.7977    0.0000 C   0  0  0  0  0  0  0  0  0  0  0  0
    2.7182    0.3165    0.0000 C   0  0  0  0  0  0  0  0  0  0  0  0
    1.3171    0.8521    0.0000 C   0  0  0  0  0  0  0  0  0  0  0  0
    0.1527   -0.0935    0.0000 C   0  0  0  0  0  0  0  0  0  0  0  0
   -1.2484    0.4421    0.0000 O   0  0  0  0  0  0  0  0  0  0  0  0
    0.3894   -1.5747    0.0000 C   0  0  0  0  0  0  0  0  0  0  0  0
   -1.0600   -1.1885    0.0000 C   0  0  0  0  0  0  0  0  0  0  0  0
  2  1  1  6
  2  3  1  0
  3  4  1  0
  4  5  1  0
  5  6  2  0
  5  7  1  0
  7  8  1  0
  8  9  1  0
  9 10  1  0
 10 11  1  0
  2 12  1  0
 12 13  1  6
 13 14  1  0
 15 14  1  6
 15 16  1  0
 16 17  1  1
 17 18  1  1
 17 19  1  0
 20 19  1  1
 20 21  1  0
 21 22  1  0
 22 23  1  1
 22 24  1  0
 24 25  1  0
 25 26  1  0
 26 27  1  6
 26 28  1  0
 28 29  1  6
 29 30  1  0
 30 31  1  1
 30 32  1  0
 32 33  1  6
 32 12  1  0
 32 15  1  0
 28 16  1  0
 26 20  1  0
M  END
>  <MS_ID>  (748) 
MS0780

>  <SMILES>  (748) 
C[C@H](CCC(=O)OCCCO)[C@H]1CC[C@H]2[C@@H]3[C@H](O)C[C@@H]4C[C@H](O)CC[C@]4(C)[C@H]3C[C@H](O)[C@]12C

>  <Structure_dimension>  (748) 
2D

$$$$
MS0781
     RDKit          2D

 27 30  0  0  0  0  0  0  0  0999 V2000
   -5.1023   -2.0364    0.0000 C   0  0  0  0  0  0  0  0  0  0  0  0
   -3.8978   -1.1425    0.0000 C   0  0  0  0  0  0  0  0  0  0  0  0
   -4.0697    0.3476    0.0000 C   0  0  0  0  0  0  0  0  0  0  0  0
   -5.4461    0.9438    0.0000 C   0  0  0  0  0  0  0  0  0  0  0  0
   -5.6180    2.4339    0.0000 C   0  0  0  0  0  0  0  0  0  0  0  0
   -6.9944    3.0301    0.0000 O   0  0  0  0  0  0  0  0  0  0  0  0
   -4.4135    3.3278    0.0000 F   0  0  0  0  0  0  0  0  0  0  0  0
   -2.5213   -1.7387    0.0000 C   0  0  0  0  0  0  0  0  0  0  0  0
   -2.1946   -3.2027    0.0000 C   0  0  0  0  0  0  0  0  0  0  0  0
   -0.7013   -3.3444    0.0000 C   0  0  0  0  0  0  0  0  0  0  0  0
   -0.1051   -1.9679    0.0000 C   0  0  0  0  0  0  0  0  0  0  0  0
    1.3167   -1.4900    0.0000 C   0  0  0  0  0  0  0  0  0  0  0  0
    2.4415   -2.4823    0.0000 C   0  0  0  0  0  0  0  0  0  0  0  0
    3.8633   -2.0044    0.0000 C   0  0  0  0  0  0  0  0  0  0  0  0
    4.1603   -0.5341    0.0000 C   0  0  0  0  0  0  0  0  0  0  0  0
    5.5821   -0.0561    0.0000 C   0  0  0  0  0  0  0  0  0  0  0  0
    5.8791    1.4142    0.0000 C   0  0  0  0  0  0  0  0  0  0  0  0
    7.3009    1.8921    0.0000 O   0  0  0  0  0  0  0  0  0  0  0  0
    4.7543    2.4065    0.0000 C   0  0  0  0  0  0  0  0  0  0  0  0
    3.3325    1.9286    0.0000 C   0  0  0  0  0  0  0  0  0  0  0  0
    3.0355    0.4583    0.0000 C   0  0  0  0  0  0  0  0  0  0  0  0
    1.9107    1.4506    0.0000 C   0  0  0  0  0  0  0  0  0  0  0  0
    1.6137   -0.0197    0.0000 C   0  0  0  0  0  0  0  0  0  0  0  0
    0.4888    0.9727    0.0000 C   0  0  0  0  0  0  0  0  0  0  0  0
   -0.9330    0.4947    0.0000 C   0  0  0  0  0  0  0  0  0  0  0  0
   -1.2300   -0.9756    0.0000 C   0  0  0  0  0  0  0  0  0  0  0  0
   -2.4524   -0.1062    0.0000 C   0  0  0  0  0  0  0  0  0  0  0  0
  2  1  1  6
  2  3  1  0
  3  4  1  0
  4  5  1  0
  5  6  2  0
  5  7  1  0
  2  8  1  0
  8  9  1  6
  9 10  1  0
 11 10  1  6
 11 12  1  0
 12 13  1  1
 13 14  1  0
 15 14  1  1
 15 16  1  0
 16 17  1  0
 17 18  1  1
 17 19  1  0
 19 20  1  0
 20 21  1  0
 21 22  1  6
 21 23  1  0
 23 24  1  6
 24 25  1  0
 25 26  1  0
 26 27  1  6
 26  8  1  0
 26 11  1  0
 23 12  1  0
 21 15  1  0
M  END
>  <MS_ID>  (749) 
MS0781

>  <SMILES>  (749) 
C[C@H](CCC(=O)F)[C@H]1CC[C@H]2[C@@H]3CC[C@@H]4C[C@H](O)CC[C@]4(C)[C@H]3CC[C@]12C

>  <Structure_dimension>  (749) 
2D

$$$$
MS0782
     RDKit          2D

 33 36  0  0  0  0  0  0  0  0999 V2000
   -2.4343   -4.1694    0.0000 C   0  0  0  0  0  0  0  0  0  0  0  0
   -1.6856   -2.8696    0.0000 C   0  0  0  0  0  0  0  0  0  0  0  0
   -2.4369   -1.5713    0.0000 C   0  0  0  0  0  0  0  0  0  0  0  0
   -3.9369   -1.5728    0.0000 C   0  0  0  0  0  0  0  0  0  0  0  0
   -4.6882   -0.2745    0.0000 C   0  0  0  0  0  0  0  0  0  0  0  0
   -3.9395    1.0253    0.0000 O   0  0  0  0  0  0  0  0  0  0  0  0
   -6.1882   -0.2760    0.0000 O   0  0  0  0  0  0  0  0  0  0  0  0
   -6.9395    1.0223    0.0000 C   0  0  0  0  0  0  0  0  0  0  0  0
   -8.4395    1.0208    0.0000 C   0  0  0  0  0  0  0  0  0  0  0  0
   -9.1908    2.3191    0.0000 C   0  0  0  0  0  0  0  0  0  0  0  0
   -8.4421    3.6189    0.0000 O   0  0  0  0  0  0  0  0  0  0  0  0
  -10.6908    2.3176    0.0000 O   0  0  0  0  0  0  0  0  0  0  0  0
   -0.1856   -2.8681    0.0000 C   0  0  0  0  0  0  0  0  0  0  0  0
    0.6973   -4.0807    0.0000 C   0  0  0  0  0  0  0  0  0  0  0  0
    2.1234   -3.6158    0.0000 C   0  0  0  0  0  0  0  0  0  0  0  0
    2.1219   -2.1158    0.0000 C   0  0  0  0  0  0  0  0  0  0  0  0
    3.2356   -1.1109    0.0000 C   0  0  0  0  0  0  0  0  0  0  0  0
    4.6626   -1.5730    0.0000 C   0  0  0  0  0  0  0  0  0  0  0  0
    4.9760   -3.0399    0.0000 O   0  0  0  0  0  0  0  0  0  0  0  0
    5.7764   -0.5682    0.0000 C   0  0  0  0  0  0  0  0  0  0  0  0
    5.4630    0.8987    0.0000 C   0  0  0  0  0  0  0  0  0  0  0  0
    6.5767    1.9035    0.0000 C   0  0  0  0  0  0  0  0  0  0  0  0
    6.2634    3.3704    0.0000 C   0  0  0  0  0  0  0  0  0  0  0  0
    7.3771    4.3752    0.0000 O   0  0  0  0  0  0  0  0  0  0  0  0
    4.8363    3.8325    0.0000 C   0  0  0  0  0  0  0  0  0  0  0  0
    3.7226    2.8277    0.0000 C   0  0  0  0  0  0  0  0  0  0  0  0
    4.0360    1.3608    0.0000 C   0  0  0  0  0  0  0  0  0  0  0  0
    2.6089    1.8229    0.0000 C   0  0  0  0  0  0  0  0  0  0  0  0
    2.9223    0.3560    0.0000 C   0  0  0  0  0  0  0  0  0  0  0  0
    1.4952    0.8181    0.0000 C   0  0  0  0  0  0  0  0  0  0  0  0
    0.3815   -0.1867    0.0000 C   0  0  0  0  0  0  0  0  0  0  0  0
    0.6948   -1.6537    0.0000 C   0  0  0  0  0  0  0  0  0  0  0  0
   -0.7727   -1.3433    0.0000 C   0  0  0  0  0  0  0  0  0  0  0  0
  2  1  1  6
  2  3  1  0
  3  4  1  0
  4  5  1  0
  5  6  2  0
  5  7  1  0
  7  8  1  0
  8  9  1  0
  9 10  1  0
 10 11  2  0
 10 12  1  0
  2 13  1  0
 13 14  1  6
 14 15  1  0
 16 15  1  6
 16 17  1  0
 17 18  1  1
 18 19  1  1
 18 20  1  0
 21 20  1  1
 21 22  1  0
 22 23  1  0
 23 24  1  1
 23 25  1  0
 25 26  1  0
 26 27  1  0
 27 28  1  6
 27 29  1  0
 29 30  1  6
 30 31  1  0
 31 32  1  0
 32 33  1  6
 32 13  1  0
 32 16  1  0
 29 17  1  0
 27 21  1  0
M  END
>  <MS_ID>  (750) 
MS0782

>  <SMILES>  (750) 
C[C@H](CCC(=O)OCCC(=O)O)[C@H]1CC[C@H]2[C@@H]3[C@H](O)C[C@@H]4C[C@H](O)CC[C@]4(C)[C@H]3CC[C@]12C

>  <Structure_dimension>  (750) 
2D

$$$$
MS0783
     RDKit          2D

 31 34  0  0  0  0  0  0  0  0999 V2000
   -3.4301   -3.6172    0.0000 C   0  0  0  0  0  0  0  0  0  0  0  0
   -2.4973   -2.4425    0.0000 C   0  0  0  0  0  0  0  0  0  0  0  0
   -3.0483   -1.0473    0.0000 C   0  0  0  0  0  0  0  0  0  0  0  0
   -4.5321   -0.8270    0.0000 C   0  0  0  0  0  0  0  0  0  0  0  0
   -5.0831    0.5682    0.0000 C   0  0  0  0  0  0  0  0  0  0  0  0
   -4.1503    1.7429    0.0000 O   0  0  0  0  0  0  0  0  0  0  0  0
   -6.5668    0.7886    0.0000 O   0  0  0  0  0  0  0  0  0  0  0  0
   -7.1178    2.1837    0.0000 C   0  0  0  0  0  0  0  0  0  0  0  0
   -8.6015    2.4041    0.0000 C   0  0  0  0  0  0  0  0  0  0  0  0
   -9.1525    3.7992    0.0000 O   0  0  0  0  0  0  0  0  0  0  0  0
   -1.0136   -2.6629    0.0000 C   0  0  0  0  0  0  0  0  0  0  0  0
   -0.3198   -3.9928    0.0000 C   0  0  0  0  0  0  0  0  0  0  0  0
    1.1594   -3.7439    0.0000 C   0  0  0  0  0  0  0  0  0  0  0  0
    1.3798   -2.2602    0.0000 C   0  0  0  0  0  0  0  0  0  0  0  0
    2.6299   -1.4311    0.0000 C   0  0  0  0  0  0  0  0  0  0  0  0
    3.9729   -2.0992    0.0000 C   0  0  0  0  0  0  0  0  0  0  0  0
    5.2230   -1.2702    0.0000 C   0  0  0  0  0  0  0  0  0  0  0  0
    5.1301    0.2269    0.0000 C   0  0  0  0  0  0  0  0  0  0  0  0
    6.3802    1.0559    0.0000 C   0  0  0  0  0  0  0  0  0  0  0  0
    6.2872    2.5531    0.0000 C   0  0  0  0  0  0  0  0  0  0  0  0
    7.5373    3.3821    0.0000 O   0  0  0  0  0  0  0  0  0  0  0  0
    4.9442    3.2212    0.0000 C   0  0  0  0  0  0  0  0  0  0  0  0
    3.6942    2.3921    0.0000 C   0  0  0  0  0  0  0  0  0  0  0  0
    3.7871    0.8950    0.0000 C   0  0  0  0  0  0  0  0  0  0  0  0
    2.4441    1.5631    0.0000 C   0  0  0  0  0  0  0  0  0  0  0  0
    2.5370    0.0660    0.0000 C   0  0  0  0  0  0  0  0  0  0  0  0
    1.1940    0.7341    0.0000 C   0  0  0  0  0  0  0  0  0  0  0  0
   -0.0561   -0.0949    0.0000 C   0  0  0  0  0  0  0  0  0  0  0  0
   -1.3991    0.5732    0.0000 O   0  0  0  0  0  0  0  0  0  0  0  0
    0.0368   -1.5921    0.0000 C   0  0  0  0  0  0  0  0  0  0  0  0
   -1.3687   -1.0680    0.0000 C   0  0  0  0  0  0  0  0  0  0  0  0
  2  1  1  6
  2  3  1  0
  3  4  1  0
  4  5  1  0
  5  6  2  0
  5  7  1  0
  7  8  1  0
  8  9  1  0
  9 10  1  0
  2 11  1  0
 11 12  1  6
 12 13  1  0
 14 13  1  6
 14 15  1  0
 15 16  1  1
 16 17  1  0
 18 17  1  1
 18 19  1  0
 19 20  1  0
 20 21  2  0
 20 22  1  0
 22 23  1  0
 23 24  1  0
 24 25  1  6
 24 26  1  0
 26 27  1  6
 27 28  1  0
 28 29  1  1
 28 30  1  0
 30 31  1  6
 30 11  1  0
 30 14  1  0
 26 15  1  0
 24 18  1  0
M  END
>  <MS_ID>  (751) 
MS0783

>  <SMILES>  (751) 
C[C@H](CCC(=O)OCCO)[C@H]1CC[C@H]2[C@@H]3CC[C@@H]4CC(=O)CC[C@]4(C)[C@H]3C[C@H](O)[C@]12C

>  <Structure_dimension>  (751) 
2D

$$$$
MS0784
     RDKit          2D

 33 36  0  0  0  0  0  0  0  0999 V2000
   -6.4151   -1.7464    0.0000 C   0  0  0  0  0  0  0  0  0  0  0  0
   -5.1590   -0.9265    0.0000 C   0  0  0  0  0  0  0  0  0  0  0  0
   -5.2411    0.5713    0.0000 C   0  0  0  0  0  0  0  0  0  0  0  0
   -6.5792    1.2491    0.0000 C   0  0  0  0  0  0  0  0  0  0  0  0
   -6.6612    2.7469    0.0000 C   0  0  0  0  0  0  0  0  0  0  0  0
   -5.4052    3.5668    0.0000 O   0  0  0  0  0  0  0  0  0  0  0  0
   -7.9994    3.4247    0.0000 O   0  0  0  0  0  0  0  0  0  0  0  0
   -3.8209   -1.6043    0.0000 C   0  0  0  0  0  0  0  0  0  0  0  0
   -3.5828   -3.0853    0.0000 C   0  0  0  0  0  0  0  0  0  0  0  0
   -2.1007   -3.3164    0.0000 C   0  0  0  0  0  0  0  0  0  0  0  0
   -1.4229   -1.9783    0.0000 C   0  0  0  0  0  0  0  0  0  0  0  0
    0.0251   -1.5866    0.0000 C   0  0  0  0  0  0  0  0  0  0  0  0
    1.0883   -2.6448    0.0000 C   0  0  0  0  0  0  0  0  0  0  0  0
    0.7035   -4.0946    0.0000 O   0  0  0  0  0  0  0  0  0  0  0  0
    2.5362   -2.2531    0.0000 C   0  0  0  0  0  0  0  0  0  0  0  0
    2.9210   -0.8033    0.0000 C   0  0  0  0  0  0  0  0  0  0  0  0
    4.3690   -0.4117    0.0000 C   0  0  0  0  0  0  0  0  0  0  0  0
    4.7538    1.0381    0.0000 C   0  0  0  0  0  0  0  0  0  0  0  0
    6.2018    1.4298    0.0000 O   0  0  0  0  0  0  0  0  0  0  0  0
    7.2649    0.3716    0.0000 C   0  0  0  0  0  0  0  0  0  0  0  0
    8.7129    0.7633    0.0000 C   0  0  0  0  0  0  0  0  0  0  0  0
    9.0977    2.2131    0.0000 O   0  0  0  0  0  0  0  0  0  0  0  0
    9.7761   -0.2949    0.0000 O   0  0  0  0  0  0  0  0  0  0  0  0
    3.6907    2.0963    0.0000 C   0  0  0  0  0  0  0  0  0  0  0  0
    2.2427    1.7046    0.0000 C   0  0  0  0  0  0  0  0  0  0  0  0
    1.8579    0.2548    0.0000 C   0  0  0  0  0  0  0  0  0  0  0  0
    0.7947    1.3130    0.0000 C   0  0  0  0  0  0  0  0  0  0  0  0
    0.4099   -0.1368    0.0000 C   0  0  0  0  0  0  0  0  0  0  0  0
   -0.6533    0.9213    0.0000 C   0  0  0  0  0  0  0  0  0  0  0  0
   -2.1012    0.5297    0.0000 C   0  0  0  0  0  0  0  0  0  0  0  0
   -3.1644    1.5878    0.0000 O   0  0  0  0  0  0  0  0  0  0  0  0
   -2.4860   -0.9201    0.0000 C   0  0  0  0  0  0  0  0  0  0  0  0
   -3.6540    0.0211    0.0000 C   0  0  0  0  0  0  0  0  0  0  0  0
  2  1  1  6
  2  3  1  0
  3  4  1  0
  4  5  1  0
  5  6  2  0
  5  7  1  0
  2  8  1  0
  8  9  1  6
  9 10  1  0
 11 10  1  6
 11 12  1  0
 12 13  1  1
 13 14  1  1
 13 15  1  0
 16 15  1  1
 16 17  1  0
 17 18  1  0
 18 19  1  1
 19 20  1  0
 20 21  1  0
 21 22  2  0
 21 23  1  0
 18 24  1  0
 24 25  1  0
 25 26  1  0
 26 27  1  6
 26 28  1  0
 28 29  1  6
 29 30  1  0
 30 31  1  1
 30 32  1  0
 32 33  1  6
 32  8  1  0
 32 11  1  0
 28 12  1  0
 26 16  1  0
M  END
>  <MS_ID>  (752) 
MS0784

>  <SMILES>  (752) 
C[C@H](CCC(=O)O)[C@H]1CC[C@H]2[C@@H]3[C@H](O)C[C@@H]4C[C@H](OCC(=O)O)CC[C@]4(C)[C@H]3C[C@H](O)[C@]12C

>  <Structure_dimension>  (752) 
2D

$$$$
MS0785
     RDKit          2D

 33 36  0  0  0  0  0  0  0  0999 V2000
   -3.6194   -4.0272    0.0000 C   0  0  0  0  0  0  0  0  0  0  0  0
   -2.7983   -2.7719    0.0000 C   0  0  0  0  0  0  0  0  0  0  0  0
   -3.4749   -1.4332    0.0000 C   0  0  0  0  0  0  0  0  0  0  0  0
   -4.9725   -1.3497    0.0000 C   0  0  0  0  0  0  0  0  0  0  0  0
   -5.6491   -0.0109    0.0000 C   0  0  0  0  0  0  0  0  0  0  0  0
   -7.1468    0.0725    0.0000 O   0  0  0  0  0  0  0  0  0  0  0  0
   -4.8280    1.2443    0.0000 O   0  0  0  0  0  0  0  0  0  0  0  0
   -5.5045    2.5831    0.0000 C   0  0  0  0  0  0  0  0  0  0  0  0
   -7.0022    2.6666    0.0000 O   0  0  0  0  0  0  0  0  0  0  0  0
   -4.6834    3.8384    0.0000 C   0  0  0  0  0  0  0  0  0  0  0  0
   -5.3600    5.1772    0.0000 O   0  0  0  0  0  0  0  0  0  0  0  0
   -1.3006   -2.8554    0.0000 C   0  0  0  0  0  0  0  0  0  0  0  0
   -0.4878   -4.1161    0.0000 C   0  0  0  0  0  0  0  0  0  0  0  0
    0.9623   -3.7327    0.0000 C   0  0  0  0  0  0  0  0  0  0  0  0
    1.0458   -2.2350    0.0000 C   0  0  0  0  0  0  0  0  0  0  0  0
    2.2146   -1.2949    0.0000 C   0  0  0  0  0  0  0  0  0  0  0  0
    3.6132   -1.8371    0.0000 C   0  0  0  0  0  0  0  0  0  0  0  0
    3.8429   -3.3194    0.0000 O   0  0  0  0  0  0  0  0  0  0  0  0
    4.7820   -0.8970    0.0000 C   0  0  0  0  0  0  0  0  0  0  0  0
    6.1806   -1.4391    0.0000 O   0  0  0  0  0  0  0  0  0  0  0  0
    4.5523    0.5854    0.0000 C   0  0  0  0  0  0  0  0  0  0  0  0
    5.7211    1.5255    0.0000 C   0  0  0  0  0  0  0  0  0  0  0  0
    5.4914    3.0078    0.0000 C   0  0  0  0  0  0  0  0  0  0  0  0
    6.6602    3.9479    0.0000 O   0  0  0  0  0  0  0  0  0  0  0  0
    4.0928    3.5500    0.0000 C   0  0  0  0  0  0  0  0  0  0  0  0
    2.9240    2.6098    0.0000 C   0  0  0  0  0  0  0  0  0  0  0  0
    3.1537    1.1275    0.0000 C   0  0  0  0  0  0  0  0  0  0  0  0
    1.7551    1.6697    0.0000 C   0  0  0  0  0  0  0  0  0  0  0  0
    1.9849    0.1874    0.0000 C   0  0  0  0  0  0  0  0  0  0  0  0
    0.5863    0.7296    0.0000 C   0  0  0  0  0  0  0  0  0  0  0  0
   -0.5825   -0.2105    0.0000 C   0  0  0  0  0  0  0  0  0  0  0  0
   -0.3528   -1.6928    0.0000 C   0  0  0  0  0  0  0  0  0  0  0  0
   -1.8004   -1.2998    0.0000 C   0  0  0  0  0  0  0  0  0  0  0  0
  2  1  1  6
  2  3  1  0
  3  4  1  0
  4  5  1  0
  5  6  2  0
  5  7  1  0
  7  8  1  0
  8  9  2  0
  8 10  1  0
 10 11  1  0
  2 12  1  0
 12 13  1  6
 13 14  1  0
 15 14  1  6
 15 16  1  0
 16 17  1  1
 17 18  1  1
 17 19  1  0
 19 20  1  1
 19 21  1  0
 21 22  1  1
 22 23  1  0
 23 24  1  1
 23 25  1  0
 25 26  1  0
 26 27  1  0
 27 28  1  6
 27 29  1  0
 29 30  1  6
 30 31  1  0
 31 32  1  0
 32 33  1  6
 32 12  1  0
 32 15  1  0
 29 16  1  0
 27 21  1  0
M  END
>  <MS_ID>  (753) 
MS0785

>  <SMILES>  (753) 
C[C@H](CCC(=O)OC(=O)CO)[C@H]1CC[C@H]2[C@@H]3[C@H](O)[C@H](O)[C@@H]4C[C@H](O)CC[C@]4(C)[C@H]3CC[C@]12C

>  <Structure_dimension>  (753) 
2D

$$$$
MS0786
     RDKit          2D

 29 32  0  0  0  0  0  0  0  0999 V2000
   -5.4679   -1.9280    0.0000 C   0  0  0  0  0  0  0  0  0  0  0  0
   -4.2629   -1.0348    0.0000 C   0  0  0  0  0  0  0  0  0  0  0  0
   -4.4339    0.4554    0.0000 C   0  0  0  0  0  0  0  0  0  0  0  0
   -5.8100    1.0524    0.0000 C   0  0  0  0  0  0  0  0  0  0  0  0
   -5.9810    2.5426    0.0000 C   0  0  0  0  0  0  0  0  0  0  0  0
   -4.7760    3.4359    0.0000 O   0  0  0  0  0  0  0  0  0  0  0  0
   -7.3571    3.1396    0.0000 O   0  0  0  0  0  0  0  0  0  0  0  0
   -2.8868   -1.6318    0.0000 C   0  0  0  0  0  0  0  0  0  0  0  0
   -2.5609   -3.0959    0.0000 C   0  0  0  0  0  0  0  0  0  0  0  0
   -1.0677   -3.2385    0.0000 C   0  0  0  0  0  0  0  0  0  0  0  0
   -0.4707   -1.8624    0.0000 C   0  0  0  0  0  0  0  0  0  0  0  0
    0.9514   -1.3853    0.0000 C   0  0  0  0  0  0  0  0  0  0  0  0
    2.0756   -2.3783    0.0000 C   0  0  0  0  0  0  0  0  0  0  0  0
    1.7778   -3.8484    0.0000 O   0  0  0  0  0  0  0  0  0  0  0  0
    3.4977   -1.9011    0.0000 C   0  0  0  0  0  0  0  0  0  0  0  0
    3.7956   -0.4310    0.0000 C   0  0  0  0  0  0  0  0  0  0  0  0
    5.2177    0.0461    0.0000 C   0  0  0  0  0  0  0  0  0  0  0  0
    5.5155    1.5163    0.0000 C   0  0  0  0  0  0  0  0  0  0  0  0
    6.9376    1.9934    0.0000 C   0  0  0  0  0  0  0  0  0  0  0  0
    8.0618    1.0004    0.0000 O   0  0  0  0  0  0  0  0  0  0  0  0
    4.3912    2.5093    0.0000 C   0  0  0  0  0  0  0  0  0  0  0  0
    2.9692    2.0321    0.0000 C   0  0  0  0  0  0  0  0  0  0  0  0
    2.6713    0.5620    0.0000 C   0  0  0  0  0  0  0  0  0  0  0  0
    1.5471    1.5550    0.0000 C   0  0  0  0  0  0  0  0  0  0  0  0
    1.2492    0.0849    0.0000 C   0  0  0  0  0  0  0  0  0  0  0  0
    0.1250    1.0779    0.0000 C   0  0  0  0  0  0  0  0  0  0  0  0
   -1.2971    0.6007    0.0000 C   0  0  0  0  0  0  0  0  0  0  0  0
   -1.5950   -0.8694    0.0000 C   0  0  0  0  0  0  0  0  0  0  0  0
   -2.8169    0.0007    0.0000 C   0  0  0  0  0  0  0  0  0  0  0  0
  2  1  1  6
  2  3  1  0
  3  4  1  0
  4  5  1  0
  5  6  2  0
  5  7  1  0
  2  8  1  0
  8  9  1  6
  9 10  1  0
 11 10  1  6
 11 12  1  0
 12 13  1  1
 13 14  1  1
 13 15  1  0
 16 15  1  1
 16 17  1  0
 17 18  1  0
 18 19  1  1
 19 20  1  0
 18 21  1  0
 21 22  1  0
 22 23  1  0
 23 24  1  6
 23 25  1  0
 25 26  1  6
 26 27  1  0
 27 28  1  0
 28 29  1  6
 28  8  1  0
 28 11  1  0
 25 12  1  0
 23 16  1  0
M  END
>  <MS_ID>  (754) 
MS0786

>  <SMILES>  (754) 
C[C@H](CCC(=O)O)[C@H]1CC[C@H]2[C@@H]3[C@H](O)C[C@@H]4C[C@H](CO)CC[C@]4(C)[C@H]3CC[C@]12C

>  <Structure_dimension>  (754) 
2D

$$$$
MS0787
     RDKit          2D

 37 41  0  0  0  0  0  0  0  0999 V2000
   -1.6296   -4.1994    0.0000 C   0  0  0  0  0  0  0  0  0  0  0  0
   -0.8727   -2.9043    0.0000 C   0  0  0  0  0  0  0  0  0  0  0  0
   -1.6158   -1.6014    0.0000 C   0  0  0  0  0  0  0  0  0  0  0  0
   -3.1158   -1.5934    0.0000 C   0  0  0  0  0  0  0  0  0  0  0  0
   -3.8589   -0.2904    0.0000 C   0  0  0  0  0  0  0  0  0  0  0  0
   -3.1020    1.0046    0.0000 O   0  0  0  0  0  0  0  0  0  0  0  0
   -5.3589   -0.2825    0.0000 O   0  0  0  0  0  0  0  0  0  0  0  0
   -6.1020    1.0205    0.0000 C   0  0  0  0  0  0  0  0  0  0  0  0
   -5.3451    2.3156    0.0000 C   0  0  0  0  0  0  0  0  0  0  0  0
   -6.0882    3.6185    0.0000 C   0  0  0  0  0  0  0  0  0  0  0  0
   -7.5882    3.6265    0.0000 C   0  0  0  0  0  0  0  0  0  0  0  0
   -8.3451    2.3314    0.0000 C   0  0  0  0  0  0  0  0  0  0  0  0
   -7.6020    1.0284    0.0000 C   0  0  0  0  0  0  0  0  0  0  0  0
   -8.3588   -0.2666    0.0000 C   0  0  0  0  0  0  0  0  0  0  0  0
   -7.6157   -1.5696    0.0000 O   0  0  0  0  0  0  0  0  0  0  0  0
   -9.8588   -0.2587    0.0000 O   0  0  0  0  0  0  0  0  0  0  0  0
    0.6273   -2.9123    0.0000 C   0  0  0  0  0  0  0  0  0  0  0  0
    1.5025   -4.1305    0.0000 C   0  0  0  0  0  0  0  0  0  0  0  0
    2.9315   -3.6745    0.0000 C   0  0  0  0  0  0  0  0  0  0  0  0
    2.9395   -2.1745    0.0000 C   0  0  0  0  0  0  0  0  0  0  0  0
    4.0595   -1.1767    0.0000 C   0  0  0  0  0  0  0  0  0  0  0  0
    5.4836   -1.6478    0.0000 C   0  0  0  0  0  0  0  0  0  0  0  0
    5.7877   -3.1167    0.0000 O   0  0  0  0  0  0  0  0  0  0  0  0
    6.6036   -0.6500    0.0000 C   0  0  0  0  0  0  0  0  0  0  0  0
    6.2995    0.8188    0.0000 C   0  0  0  0  0  0  0  0  0  0  0  0
    7.4195    1.8166    0.0000 C   0  0  0  0  0  0  0  0  0  0  0  0
    7.1154    3.2855    0.0000 C   0  0  0  0  0  0  0  0  0  0  0  0
    8.2355    4.2832    0.0000 O   0  0  0  0  0  0  0  0  0  0  0  0
    5.6913    3.7565    0.0000 C   0  0  0  0  0  0  0  0  0  0  0  0
    4.5713    2.7587    0.0000 C   0  0  0  0  0  0  0  0  0  0  0  0
    4.8754    1.2899    0.0000 C   0  0  0  0  0  0  0  0  0  0  0  0
    3.4513    1.7610    0.0000 C   0  0  0  0  0  0  0  0  0  0  0  0
    3.7554    0.2921    0.0000 C   0  0  0  0  0  0  0  0  0  0  0  0
    2.3313    0.7632    0.0000 C   0  0  0  0  0  0  0  0  0  0  0  0
    1.2113   -0.2346    0.0000 C   0  0  0  0  0  0  0  0  0  0  0  0
    1.5154   -1.7034    0.0000 C   0  0  0  0  0  0  0  0  0  0  0  0
    0.0498   -1.3838    0.0000 C   0  0  0  0  0  0  0  0  0  0  0  0
  2  1  1  6
  2  3  1  0
  3  4  1  0
  4  5  1  0
  5  6  2  0
  5  7  1  0
  7  8  1  0
  8  9  2  0
  9 10  1  0
 10 11  2  0
 11 12  1  0
 12 13  2  0
 13 14  1  0
 14 15  2  0
 14 16  1  0
  2 17  1  0
 17 18  1  6
 18 19  1  0
 20 19  1  6
 20 21  1  0
 21 22  1  1
 22 23  1  6
 22 24  1  0
 25 24  1  1
 25 26  1  0
 26 27  1  0
 27 28  1  1
 27 29  1  0
 29 30  1  0
 30 31  1  0
 31 32  1  6
 31 33  1  0
 33 34  1  6
 34 35  1  0
 35 36  1  0
 36 37  1  6
 13  8  1  0
 36 17  1  0
 36 20  1  0
 33 21  1  0
 31 25  1  0
M  END
>  <MS_ID>  (755) 
MS0787

>  <SMILES>  (755) 
C[C@H](CCC(=O)Oc1ccccc1C(=O)O)[C@H]1CC[C@H]2[C@@H]3[C@@H](O)C[C@@H]4C[C@H](O)CC[C@]4(C)[C@H]3CC[C@]12C

>  <Structure_dimension>  (755) 
2D

$$$$
MS0789
     RDKit          2D

 32 35  0  0  0  0  0  0  0  0999 V2000
   -3.0592   -3.7169    0.0000 C   0  0  0  0  0  0  0  0  0  0  0  0
   -2.1499   -2.5239    0.0000 C   0  0  0  0  0  0  0  0  0  0  0  0
   -2.7284   -1.1399    0.0000 C   0  0  0  0  0  0  0  0  0  0  0  0
   -4.2162   -0.9489    0.0000 C   0  0  0  0  0  0  0  0  0  0  0  0
   -4.7946    0.4350    0.0000 C   0  0  0  0  0  0  0  0  0  0  0  0
   -3.8853    1.6280    0.0000 O   0  0  0  0  0  0  0  0  0  0  0  0
   -6.2824    0.6260    0.0000 C   0  0  0  0  0  0  0  0  0  0  0  0
   -6.8609    2.0100    0.0000 C   0  0  0  0  0  0  0  0  0  0  0  0
   -8.3487    2.2010    0.0000 C   0  0  0  0  0  0  0  0  0  0  0  0
   -9.2580    1.0080    0.0000 O   0  0  0  0  0  0  0  0  0  0  0  0
   -8.9272    3.5850    0.0000 O   0  0  0  0  0  0  0  0  0  0  0  0
   -0.6621   -2.7149    0.0000 C   0  0  0  0  0  0  0  0  0  0  0  0
    0.0579   -4.0308    0.0000 C   0  0  0  0  0  0  0  0  0  0  0  0
    1.5319   -3.7527    0.0000 C   0  0  0  0  0  0  0  0  0  0  0  0
    1.7229   -2.2649    0.0000 C   0  0  0  0  0  0  0  0  0  0  0  0
    2.9563   -1.4114    0.0000 C   0  0  0  0  0  0  0  0  0  0  0  0
    4.3123   -2.0528    0.0000 C   0  0  0  0  0  0  0  0  0  0  0  0
    5.5457   -1.1992    0.0000 C   0  0  0  0  0  0  0  0  0  0  0  0
    5.4232    0.2958    0.0000 C   0  0  0  0  0  0  0  0  0  0  0  0
    6.6567    1.1494    0.0000 C   0  0  0  0  0  0  0  0  0  0  0  0
    6.5342    2.6444    0.0000 C   0  0  0  0  0  0  0  0  0  0  0  0
    7.7676    3.4980    0.0000 O   0  0  0  0  0  0  0  0  0  0  0  0
    5.1782    3.2858    0.0000 C   0  0  0  0  0  0  0  0  0  0  0  0
    3.9448    2.4322    0.0000 C   0  0  0  0  0  0  0  0  0  0  0  0
    4.0673    0.9372    0.0000 C   0  0  0  0  0  0  0  0  0  0  0  0
    2.7113    1.5786    0.0000 C   0  0  0  0  0  0  0  0  0  0  0  0
    2.8338    0.0836    0.0000 C   0  0  0  0  0  0  0  0  0  0  0  0
    1.4779    0.7250    0.0000 C   0  0  0  0  0  0  0  0  0  0  0  0
    0.2444   -0.1285    0.0000 C   0  0  0  0  0  0  0  0  0  0  0  0
   -1.1115    0.5129    0.0000 O   0  0  0  0  0  0  0  0  0  0  0  0
    0.3669   -1.6235    0.0000 C   0  0  0  0  0  0  0  0  0  0  0  0
   -1.0486   -1.1274    0.0000 C   0  0  0  0  0  0  0  0  0  0  0  0
  2  1  1  6
  2  3  1  0
  3  4  1  0
  4  5  1  0
  5  6  2  0
  5  7  1  0
  7  8  1  0
  8  9  1  0
  9 10  2  0
  9 11  1  0
  2 12  1  0
 12 13  1  6
 13 14  1  0
 15 14  1  6
 15 16  1  0
 16 17  1  1
 17 18  1  0
 19 18  1  1
 19 20  1  0
 20 21  1  0
 21 22  1  1
 21 23  1  0
 23 24  1  0
 24 25  1  0
 25 26  1  6
 25 27  1  0
 27 28  1  6
 28 29  1  0
 29 30  2  0
 29 31  1  0
 31 32  1  6
 31 12  1  0
 31 15  1  0
 27 16  1  0
 25 19  1  0
M  END
>  <MS_ID>  (756) 
MS0789

>  <SMILES>  (756) 
C[C@H](CCC(=O)CCC(=O)O)[C@H]1CC[C@H]2[C@@H]3CC[C@@H]4C[C@H](O)CC[C@]4(C)[C@H]3CC(=O)[C@]12C

>  <Structure_dimension>  (756) 
2D

$$$$
MS0790
     RDKit          2D

 37 41  0  0  0  0  0  0  0  0999 V2000
   -2.4343   -3.1650    0.0000 C   0  0  0  0  0  0  0  0  0  0  0  0
   -1.4378   -2.0438    0.0000 C   0  0  0  0  0  0  0  0  0  0  0  0
   -1.9106   -0.6203    0.0000 C   0  0  0  0  0  0  0  0  0  0  0  0
   -3.3798   -0.3179    0.0000 C   0  0  0  0  0  0  0  0  0  0  0  0
   -3.8525    1.1057    0.0000 C   0  0  0  0  0  0  0  0  0  0  0  0
   -2.8561    2.2268    0.0000 O   0  0  0  0  0  0  0  0  0  0  0  0
   -5.3217    1.4080    0.0000 C   0  0  0  0  0  0  0  0  0  0  0  0
   -5.7945    2.8316    0.0000 C   0  0  0  0  0  0  0  0  0  0  0  0
   -7.2637    3.1340    0.0000 C   0  0  0  0  0  0  0  0  0  0  0  0
   -8.2601    2.0128    0.0000 C   0  0  0  0  0  0  0  0  0  0  0  0
   -7.7874    0.5892    0.0000 C   0  0  0  0  0  0  0  0  0  0  0  0
   -8.7839   -0.5319    0.0000 C   0  0  0  0  0  0  0  0  0  0  0  0
   -8.3111   -1.9555    0.0000 O   0  0  0  0  0  0  0  0  0  0  0  0
  -10.2531   -0.2296    0.0000 O   0  0  0  0  0  0  0  0  0  0  0  0
   -6.3182    0.2869    0.0000 C   0  0  0  0  0  0  0  0  0  0  0  0
    0.0314   -2.3462    0.0000 C   0  0  0  0  0  0  0  0  0  0  0  0
    0.6503   -3.7126    0.0000 C   0  0  0  0  0  0  0  0  0  0  0  0
    2.1411   -3.5461    0.0000 C   0  0  0  0  0  0  0  0  0  0  0  0
    2.4434   -2.0769    0.0000 C   0  0  0  0  0  0  0  0  0  0  0  0
    3.7376   -1.3185    0.0000 C   0  0  0  0  0  0  0  0  0  0  0  0
    5.0415   -2.0601    0.0000 C   0  0  0  0  0  0  0  0  0  0  0  0
    5.0511   -3.5601    0.0000 O   0  0  0  0  0  0  0  0  0  0  0  0
    6.3356   -1.3017    0.0000 C   0  0  0  0  0  0  0  0  0  0  0  0
    6.3259    0.1982    0.0000 C   0  0  0  0  0  0  0  0  0  0  0  0
    7.6201    0.9566    0.0000 C   0  0  0  0  0  0  0  0  0  0  0  0
    7.6104    2.4566    0.0000 C   0  0  0  0  0  0  0  0  0  0  0  0
    8.9046    3.2150    0.0000 O   0  0  0  0  0  0  0  0  0  0  0  0
    6.3065    3.1982    0.0000 C   0  0  0  0  0  0  0  0  0  0  0  0
    5.0124    2.4398    0.0000 C   0  0  0  0  0  0  0  0  0  0  0  0
    5.0221    0.9398    0.0000 C   0  0  0  0  0  0  0  0  0  0  0  0
    3.7182    1.6814    0.0000 C   0  0  0  0  0  0  0  0  0  0  0  0
    3.7279    0.1814    0.0000 C   0  0  0  0  0  0  0  0  0  0  0  0
    2.4240    0.9230    0.0000 C   0  0  0  0  0  0  0  0  0  0  0  0
    1.1299    0.1646    0.0000 C   0  0  0  0  0  0  0  0  0  0  0  0
   -0.1740    0.9062    0.0000 O   0  0  0  0  0  0  0  0  0  0  0  0
    1.1396   -1.3353    0.0000 C   0  0  0  0  0  0  0  0  0  0  0  0
   -0.2347   -0.7341    0.0000 C   0  0  0  0  0  0  0  0  0  0  0  0
  2  1  1  6
  2  3  1  0
  3  4  1  0
  4  5  1  0
  5  6  2  0
  5  7  1  0
  7  8  2  0
  8  9  1  0
  9 10  2  0
 10 11  1  0
 11 12  1  0
 12 13  2  0
 12 14  1  0
 11 15  2  0
  2 16  1  0
 16 17  1  6
 17 18  1  0
 19 18  1  6
 19 20  1  0
 20 21  1  1
 21 22  1  1
 21 23  1  0
 24 23  1  1
 24 25  1  0
 25 26  1  0
 26 27  1  1
 26 28  1  0
 28 29  1  0
 29 30  1  0
 30 31  1  6
 30 32  1  0
 32 33  1  6
 33 34  1  0
 34 35  1  1
 34 36  1  0
 36 37  1  6
 15  7  1  0
 36 16  1  0
 36 19  1  0
 32 20  1  0
 30 24  1  0
M  END
>  <MS_ID>  (757) 
MS0790

>  <SMILES>  (757) 
C[C@H](CCC(=O)c1cccc(C(=O)O)c1)[C@H]1CC[C@H]2[C@@H]3[C@H](O)C[C@@H]4C[C@H](O)CC[C@]4(C)[C@H]3C[C@H](O)[C@]12C

>  <Structure_dimension>  (757) 
2D

$$$$
MS0791
     RDKit          2D

 34 38  0  0  0  0  0  0  0  0999 V2000
   -7.0172   -1.4803    0.0000 C   0  0  0  0  0  0  0  0  0  0  0  0
   -5.6896   -0.7820    0.0000 C   0  0  0  0  0  0  0  0  0  0  0  0
   -5.6306    0.7169    0.0000 C   0  0  0  0  0  0  0  0  0  0  0  0
   -6.8991    1.5174    0.0000 C   0  0  0  0  0  0  0  0  0  0  0  0
   -6.8401    3.0162    0.0000 C   0  0  0  0  0  0  0  0  0  0  0  0
   -5.5125    3.7145    0.0000 O   0  0  0  0  0  0  0  0  0  0  0  0
   -8.1086    3.8168    0.0000 O   0  0  0  0  0  0  0  0  0  0  0  0
   -4.4211   -1.5825    0.0000 C   0  0  0  0  0  0  0  0  0  0  0  0
   -4.3232   -3.0793    0.0000 C   0  0  0  0  0  0  0  0  0  0  0  0
   -2.8694   -3.4487    0.0000 C   0  0  0  0  0  0  0  0  0  0  0  0
   -2.0688   -2.1802    0.0000 C   0  0  0  0  0  0  0  0  0  0  0  0
   -0.5905   -1.9263    0.0000 C   0  0  0  0  0  0  0  0  0  0  0  0
    0.3686   -3.0797    0.0000 C   0  0  0  0  0  0  0  0  0  0  0  0
    1.8469   -2.8258    0.0000 C   0  0  0  0  0  0  0  0  0  0  0  0
    2.3663   -1.4185    0.0000 C   0  0  0  0  0  0  0  0  0  0  0  0
    3.8446   -1.1647    0.0000 C   0  0  0  0  0  0  0  0  0  0  0  0
    4.3639    0.2426    0.0000 C   0  0  0  0  0  0  0  0  0  0  0  0
    5.8423    0.4964    0.0000 C   0  0  0  0  0  0  0  0  0  0  0  0
    6.8013   -0.6569    0.0000 C   0  0  0  0  0  0  0  0  0  0  0  0
    8.2797   -0.4030    0.0000 C   0  0  0  0  0  0  0  0  0  0  0  0
    8.7990    1.0042    0.0000 C   0  0  0  0  0  0  0  0  0  0  0  0
   10.2774    1.2581    0.0000 O   0  0  0  0  0  0  0  0  0  0  0  0
    7.8400    2.1576    0.0000 C   0  0  0  0  0  0  0  0  0  0  0  0
    6.3616    1.9037    0.0000 C   0  0  0  0  0  0  0  0  0  0  0  0
    3.4049    1.3959    0.0000 C   0  0  0  0  0  0  0  0  0  0  0  0
    1.9265    1.1420    0.0000 C   0  0  0  0  0  0  0  0  0  0  0  0
    1.4072   -0.2652    0.0000 C   0  0  0  0  0  0  0  0  0  0  0  0
    0.4482    0.8882    0.0000 C   0  0  0  0  0  0  0  0  0  0  0  0
   -0.0711   -0.5191    0.0000 C   0  0  0  0  0  0  0  0  0  0  0  0
   -1.0302    0.6343    0.0000 C   0  0  0  0  0  0  0  0  0  0  0  0
   -2.5086    0.3804    0.0000 C   0  0  0  0  0  0  0  0  0  0  0  0
   -3.4676    1.5338    0.0000 O   0  0  0  0  0  0  0  0  0  0  0  0
   -3.0279   -1.0268    0.0000 C   0  0  0  0  0  0  0  0  0  0  0  0
   -4.1022    0.0200    0.0000 C   0  0  0  0  0  0  0  0  0  0  0  0
  2  1  1  6
  2  3  1  0
  3  4  1  0
  4  5  1  0
  5  6  2  0
  5  7  1  0
  2  8  1  0
  8  9  1  6
  9 10  1  0
 11 10  1  6
 11 12  1  0
 12 13  1  1
 13 14  1  0
 15 14  1  1
 15 16  1  0
 16 17  1  0
 17 18  1  1
 18 19  2  0
 19 20  1  0
 20 21  2  0
 21 22  1  0
 21 23  1  0
 23 24  2  0
 17 25  1  0
 25 26  1  0
 26 27  1  0
 27 28  1  6
 27 29  1  0
 29 30  1  6
 30 31  1  0
 31 32  1  6
 31 33  1  0
 33 34  1  6
 33  8  1  0
 33 11  1  0
 29 12  1  0
 27 15  1  0
 24 18  1  0
M  END
>  <MS_ID>  (758) 
MS0791

>  <SMILES>  (758) 
C[C@H](CCC(=O)O)[C@H]1CC[C@H]2[C@@H]3CC[C@@H]4C[C@H](c5ccc(O)cc5)CC[C@]4(C)[C@H]3C[C@@H](O)[C@]12C

>  <Structure_dimension>  (758) 
2D

$$$$
MS0792
     RDKit          2D

 39 43  0  0  0  0  0  0  0  0999 V2000
   -7.6510   -2.0504    0.0000 C   0  0  0  0  0  0  0  0  0  0  0  0
   -6.4615   -1.1366    0.0000 C   0  0  0  0  0  0  0  0  0  0  0  0
   -6.6581    0.3505    0.0000 C   0  0  0  0  0  0  0  0  0  0  0  0
   -8.0442    0.9238    0.0000 C   0  0  0  0  0  0  0  0  0  0  0  0
   -8.2408    2.4108    0.0000 C   0  0  0  0  0  0  0  0  0  0  0  0
   -7.0513    3.3246    0.0000 O   0  0  0  0  0  0  0  0  0  0  0  0
   -9.6270    2.9841    0.0000 O   0  0  0  0  0  0  0  0  0  0  0  0
   -5.0754   -1.7098    0.0000 C   0  0  0  0  0  0  0  0  0  0  0  0
   -4.7244   -3.1682    0.0000 C   0  0  0  0  0  0  0  0  0  0  0  0
   -3.2289   -3.2851    0.0000 C   0  0  0  0  0  0  0  0  0  0  0  0
   -2.6557   -1.8989    0.0000 C   0  0  0  0  0  0  0  0  0  0  0  0
   -1.2420   -1.3975    0.0000 C   0  0  0  0  0  0  0  0  0  0  0  0
   -0.1008   -2.3710    0.0000 C   0  0  0  0  0  0  0  0  0  0  0  0
   -0.3734   -3.8460    0.0000 O   0  0  0  0  0  0  0  0  0  0  0  0
    1.3128   -1.8695    0.0000 C   0  0  0  0  0  0  0  0  0  0  0  0
    1.5854   -0.3945    0.0000 C   0  0  0  0  0  0  0  0  0  0  0  0
    2.9991    0.1070    0.0000 C   0  0  0  0  0  0  0  0  0  0  0  0
    3.2716    1.5820    0.0000 C   0  0  0  0  0  0  0  0  0  0  0  0
    4.6853    2.0835    0.0000 O   0  0  0  0  0  0  0  0  0  0  0  0
    5.8265    1.1100    0.0000 C   0  0  0  0  0  0  0  0  0  0  0  0
    5.5539   -0.3651    0.0000 O   0  0  0  0  0  0  0  0  0  0  0  0
    6.6950   -1.3386    0.0000 C   0  0  0  0  0  0  0  0  0  0  0  0
    6.4225   -2.8136    0.0000 C   0  0  0  0  0  0  0  0  0  0  0  0
    8.1087   -0.8371    0.0000 C   0  0  0  0  0  0  0  0  0  0  0  0
    9.2499   -1.8107    0.0000 O   0  0  0  0  0  0  0  0  0  0  0  0
    8.3813    0.6379    0.0000 C   0  0  0  0  0  0  0  0  0  0  0  0
    9.7950    1.1394    0.0000 O   0  0  0  0  0  0  0  0  0  0  0  0
    7.2401    1.6114    0.0000 C   0  0  0  0  0  0  0  0  0  0  0  0
    7.5127    3.0865    0.0000 O   0  0  0  0  0  0  0  0  0  0  0  0
    2.1305    2.5556    0.0000 C   0  0  0  0  0  0  0  0  0  0  0  0
    0.7168    2.0541    0.0000 C   0  0  0  0  0  0  0  0  0  0  0  0
    0.4442    0.5791    0.0000 C   0  0  0  0  0  0  0  0  0  0  0  0
   -0.6969    1.5526    0.0000 C   0  0  0  0  0  0  0  0  0  0  0  0
   -0.9694    0.0776    0.0000 C   0  0  0  0  0  0  0  0  0  0  0  0
   -2.1106    1.0511    0.0000 C   0  0  0  0  0  0  0  0  0  0  0  0
   -3.5243    0.5496    0.0000 C   0  0  0  0  0  0  0  0  0  0  0  0
   -4.6654    1.5232    0.0000 O   0  0  0  0  0  0  0  0  0  0  0  0
   -3.7968   -0.9254    0.0000 C   0  0  0  0  0  0  0  0  0  0  0  0
   -5.0335   -0.0765    0.0000 C   0  0  0  0  0  0  0  0  0  0  0  0
  2  1  1  6
  2  3  1  0
  3  4  1  0
  4  5  1  0
  5  6  2  0
  5  7  1  0
  2  8  1  0
  8  9  1  6
  9 10  1  0
 11 10  1  6
 11 12  1  0
 12 13  1  1
 13 14  1  1
 13 15  1  0
 16 15  1  1
 16 17  1  0
 17 18  1  0
 18 19  1  1
 20 19  1  1
 20 21  1  0
 21 22  1  0
 22 23  1  6
 22 24  1  0
 24 25  1  1
 24 26  1  0
 26 27  1  6
 26 28  1  0
 28 29  1  1
 18 30  1  0
 30 31  1  0
 31 32  1  0
 32 33  1  6
 32 34  1  0
 34 35  1  6
 35 36  1  0
 36 37  1  1
 36 38  1  0
 38 39  1  6
 38  8  1  0
 38 11  1  0
 34 12  1  0
 32 16  1  0
 28 20  1  0
M  END
>  <MS_ID>  (759) 
MS0792

>  <SMILES>  (759) 
C[C@H](CCC(=O)O)[C@H]1CC[C@H]2[C@@H]3[C@H](O)C[C@@H]4C[C@H](O[C@@H]5O[C@@H](C)[C@H](O)[C@@H](O)[C@@H]5O)CC[C@]4(C)[C@H]3C[C@H](O)[C@]12C

>  <Structure_dimension>  (759) 
2D

$$$$
MS0793
     RDKit          2D

 30 33  0  0  0  0  0  0  0  0999 V2000
   -4.0199   -3.1584    0.0000 C   0  0  0  0  0  0  0  0  0  0  0  0
   -2.9902   -2.0677    0.0000 C   0  0  0  0  0  0  0  0  0  0  0  0
   -3.4199   -0.6306    0.0000 C   0  0  0  0  0  0  0  0  0  0  0  0
   -4.8793   -0.2841    0.0000 C   0  0  0  0  0  0  0  0  0  0  0  0
   -5.3090    1.1530    0.0000 C   0  0  0  0  0  0  0  0  0  0  0  0
   -4.2792    2.2437    0.0000 O   0  0  0  0  0  0  0  0  0  0  0  0
   -6.7684    1.4995    0.0000 C   0  0  0  0  0  0  0  0  0  0  0  0
   -7.1981    2.9366    0.0000 C   0  0  0  0  0  0  0  0  0  0  0  0
   -8.6575    3.2831    0.0000 O   0  0  0  0  0  0  0  0  0  0  0  0
   -1.5307   -2.4142    0.0000 C   0  0  0  0  0  0  0  0  0  0  0  0
   -0.9532   -3.7985    0.0000 C   0  0  0  0  0  0  0  0  0  0  0  0
    0.5419   -3.6770    0.0000 C   0  0  0  0  0  0  0  0  0  0  0  0
    0.8883   -2.2176    0.0000 C   0  0  0  0  0  0  0  0  0  0  0  0
    2.2047   -1.4985    0.0000 C   0  0  0  0  0  0  0  0  0  0  0  0
    3.4857   -2.2790    0.0000 C   0  0  0  0  0  0  0  0  0  0  0  0
    4.8021   -1.5599    0.0000 C   0  0  0  0  0  0  0  0  0  0  0  0
    4.8375   -0.0603    0.0000 C   0  0  0  0  0  0  0  0  0  0  0  0
    6.1539    0.6588    0.0000 C   0  0  0  0  0  0  0  0  0  0  0  0
    6.1894    2.1583    0.0000 C   0  0  0  0  0  0  0  0  0  0  0  0
    7.5058    2.8774    0.0000 O   0  0  0  0  0  0  0  0  0  0  0  0
    4.9084    2.9388    0.0000 C   0  0  0  0  0  0  0  0  0  0  0  0
    3.5920    2.2197    0.0000 C   0  0  0  0  0  0  0  0  0  0  0  0
    3.5566    0.7202    0.0000 C   0  0  0  0  0  0  0  0  0  0  0  0
    2.2756    1.5007    0.0000 C   0  0  0  0  0  0  0  0  0  0  0  0
    2.2402    0.0011    0.0000 C   0  0  0  0  0  0  0  0  0  0  0  0
    0.9592    0.7816    0.0000 C   0  0  0  0  0  0  0  0  0  0  0  0
   -0.3572    0.0625    0.0000 C   0  0  0  0  0  0  0  0  0  0  0  0
   -1.6381    0.8430    0.0000 O   0  0  0  0  0  0  0  0  0  0  0  0
   -0.3926   -1.4371    0.0000 C   0  0  0  0  0  0  0  0  0  0  0  0
   -1.7481   -0.7948    0.0000 C   0  0  0  0  0  0  0  0  0  0  0  0
  2  1  1  6
  2  3  1  0
  3  4  1  0
  4  5  1  0
  5  6  2  0
  5  7  1  0
  7  8  1  0
  8  9  1  0
  2 10  1  0
 10 11  1  6
 11 12  1  0
 13 12  1  6
 13 14  1  0
 14 15  1  1
 15 16  1  0
 17 16  1  1
 17 18  1  0
 18 19  1  0
 19 20  1  6
 19 21  1  0
 21 22  1  0
 22 23  1  0
 23 24  1  6
 23 25  1  0
 25 26  1  6
 26 27  1  0
 27 28  1  6
 27 29  1  0
 29 30  1  6
 29 10  1  0
 29 13  1  0
 25 14  1  0
 23 17  1  0
M  END
>  <MS_ID>  (760) 
MS0793

>  <SMILES>  (760) 
C[C@H](CCC(=O)CCO)[C@H]1CC[C@H]2[C@@H]3CC[C@@H]4C[C@@H](O)CC[C@]4(C)[C@H]3C[C@@H](O)[C@]12C

>  <Structure_dimension>  (760) 
2D

$$$$
MS0794
     RDKit          2D

 28 31  0  0  0  0  0  0  0  0999 V2000
   -4.6340   -2.3524    0.0000 C   0  0  0  0  0  0  0  0  0  0  0  0
   -3.5242   -1.3434    0.0000 C   0  0  0  0  0  0  0  0  0  0  0  0
   -3.8431    0.1223    0.0000 C   0  0  0  0  0  0  0  0  0  0  0  0
   -5.2720    0.5789    0.0000 C   0  0  0  0  0  0  0  0  0  0  0  0
   -5.5909    2.0446    0.0000 C   0  0  0  0  0  0  0  0  0  0  0  0
   -4.4811    3.0537    0.0000 O   0  0  0  0  0  0  0  0  0  0  0  0
   -7.0197    2.5012    0.0000 O   0  0  0  0  0  0  0  0  0  0  0  0
   -2.0954   -1.8000    0.0000 C   0  0  0  0  0  0  0  0  0  0  0  0
   -1.6249   -3.2243    0.0000 C   0  0  0  0  0  0  0  0  0  0  0  0
   -0.1249   -3.2170    0.0000 C   0  0  0  0  0  0  0  0  0  0  0  0
    0.3317   -1.7882    0.0000 C   0  0  0  0  0  0  0  0  0  0  0  0
    1.6990   -1.1715    0.0000 C   0  0  0  0  0  0  0  0  0  0  0  0
    2.9168   -2.0473    0.0000 C   0  0  0  0  0  0  0  0  0  0  0  0
    2.7672   -3.5398    0.0000 N   0  0  0  0  0  0  0  0  0  0  0  0
    4.2841   -1.4305    0.0000 C   0  0  0  0  0  0  0  0  0  0  0  0
    4.4337    0.0620    0.0000 C   0  0  0  0  0  0  0  0  0  0  0  0
    5.8011    0.6787    0.0000 C   0  0  0  0  0  0  0  0  0  0  0  0
    5.9506    2.1713    0.0000 C   0  0  0  0  0  0  0  0  0  0  0  0
    4.7328    3.0471    0.0000 C   0  0  0  0  0  0  0  0  0  0  0  0
    3.3655    2.4303    0.0000 C   0  0  0  0  0  0  0  0  0  0  0  0
    3.2159    0.9378    0.0000 C   0  0  0  0  0  0  0  0  0  0  0  0
    1.9981    1.8136    0.0000 C   0  0  0  0  0  0  0  0  0  0  0  0
    1.8486    0.3211    0.0000 C   0  0  0  0  0  0  0  0  0  0  0  0
    0.6308    1.1968    0.0000 C   0  0  0  0  0  0  0  0  0  0  0  0
   -0.7366    0.5801    0.0000 C   0  0  0  0  0  0  0  0  0  0  0  0
   -1.9543    1.4559    0.0000 O   0  0  0  0  0  0  0  0  0  0  0  0
   -0.8861   -0.9124    0.0000 C   0  0  0  0  0  0  0  0  0  0  0  0
   -2.1888   -0.1687    0.0000 C   0  0  0  0  0  0  0  0  0  0  0  0
  2  1  1  6
  2  3  1  0
  3  4  1  0
  4  5  1  0
  5  6  2  0
  5  7  1  0
  2  8  1  0
  8  9  1  6
  9 10  1  0
 11 10  1  6
 11 12  1  0
 12 13  1  1
 13 14  1  1
 13 15  1  0
 16 15  1  1
 16 17  1  0
 17 18  1  0
 18 19  1  0
 19 20  1  0
 20 21  1  0
 21 22  1  6
 21 23  1  0
 23 24  1  6
 24 25  1  0
 25 26  1  6
 25 27  1  0
 27 28  1  6
 27  8  1  0
 27 11  1  0
 23 12  1  0
 21 16  1  0
M  END
>  <MS_ID>  (761) 
MS0794

>  <SMILES>  (761) 
C[C@H](CCC(=O)O)[C@H]1CC[C@H]2[C@@H]3[C@H](N)C[C@@H]4CCCC[C@]4(C)[C@H]3C[C@@H](O)[C@]12C

>  <Structure_dimension>  (761) 
2D

$$$$
MS0795
     RDKit          2D

 30 33  0  0  0  0  0  0  0  0999 V2000
   -4.5685   -2.6908    0.0000 C   0  0  0  0  0  0  0  0  0  0  0  0
   -3.4838   -1.6548    0.0000 C   0  0  0  0  0  0  0  0  0  0  0  0
   -3.8388   -0.1974    0.0000 C   0  0  0  0  0  0  0  0  0  0  0  0
   -5.2784    0.2240    0.0000 C   0  0  0  0  0  0  0  0  0  0  0  0
   -5.6333    1.6814    0.0000 C   0  0  0  0  0  0  0  0  0  0  0  0
   -4.5486    2.7174    0.0000 O   0  0  0  0  0  0  0  0  0  0  0  0
   -7.0729    2.1027    0.0000 C   0  0  0  0  0  0  0  0  0  0  0  0
   -7.4279    3.5601    0.0000 S   0  0  0  0  0  0  0  0  0  0  0  0
   -2.0442   -2.0761    0.0000 C   0  0  0  0  0  0  0  0  0  0  0  0
   -1.5389   -3.4884    0.0000 C   0  0  0  0  0  0  0  0  0  0  0  0
   -0.0395   -3.4442    0.0000 C   0  0  0  0  0  0  0  0  0  0  0  0
    0.3818   -2.0046    0.0000 C   0  0  0  0  0  0  0  0  0  0  0  0
    1.7336   -1.3544    0.0000 C   0  0  0  0  0  0  0  0  0  0  0  0
    2.9725   -2.1999    0.0000 C   0  0  0  0  0  0  0  0  0  0  0  0
    2.8597   -3.6957    0.0000 O   0  0  0  0  0  0  0  0  0  0  0  0
    4.3243   -1.5497    0.0000 C   0  0  0  0  0  0  0  0  0  0  0  0
    4.4371   -0.0540    0.0000 C   0  0  0  0  0  0  0  0  0  0  0  0
    5.7888    0.5962    0.0000 C   0  0  0  0  0  0  0  0  0  0  0  0
    5.9016    2.0920    0.0000 C   0  0  0  0  0  0  0  0  0  0  0  0
    7.2534    2.7422    0.0000 O   0  0  0  0  0  0  0  0  0  0  0  0
    4.6627    2.9375    0.0000 C   0  0  0  0  0  0  0  0  0  0  0  0
    3.3109    2.2873    0.0000 C   0  0  0  0  0  0  0  0  0  0  0  0
    3.1981    0.7916    0.0000 C   0  0  0  0  0  0  0  0  0  0  0  0
    1.9591    1.6371    0.0000 C   0  0  0  0  0  0  0  0  0  0  0  0
    1.8464    0.1414    0.0000 C   0  0  0  0  0  0  0  0  0  0  0  0
    0.6074    0.9869    0.0000 C   0  0  0  0  0  0  0  0  0  0  0  0
   -0.7444    0.3367    0.0000 C   0  0  0  0  0  0  0  0  0  0  0  0
   -1.9833    1.1823    0.0000 O   0  0  0  0  0  0  0  0  0  0  0  0
   -0.8572   -1.1590    0.0000 C   0  0  0  0  0  0  0  0  0  0  0  0
   -2.1777   -0.4476    0.0000 C   0  0  0  0  0  0  0  0  0  0  0  0
  2  1  1  6
  2  3  1  0
  3  4  1  0
  4  5  1  0
  5  6  2  0
  5  7  1  0
  7  8  1  0
  2  9  1  0
  9 10  1  6
 10 11  1  0
 12 11  1  6
 12 13  1  0
 13 14  1  1
 14 15  1  1
 14 16  1  0
 17 16  1  1
 17 18  1  0
 18 19  1  0
 19 20  1  1
 19 21  1  0
 21 22  1  0
 22 23  1  0
 23 24  1  6
 23 25  1  0
 25 26  1  6
 26 27  1  0
 27 28  2  0
 27 29  1  0
 29 30  1  6
 29  9  1  0
 29 12  1  0
 25 13  1  0
 23 17  1  0
M  END
>  <MS_ID>  (762) 
MS0795

>  <SMILES>  (762) 
C[C@H](CCC(=O)CS)[C@H]1CC[C@H]2[C@@H]3[C@H](O)C[C@@H]4C[C@H](O)CC[C@]4(C)[C@H]3CC(=O)[C@]12C

>  <Structure_dimension>  (762) 
2D

$$$$
MS0796
     RDKit          2D

 29 32  0  0  0  0  0  0  0  0999 V2000
   -4.5534   -2.6812    0.0000 C   0  0  0  0  0  0  0  0  0  0  0  0
   -3.4378   -1.6786    0.0000 C   0  0  0  0  0  0  0  0  0  0  0  0
   -3.7483   -0.2111    0.0000 C   0  0  0  0  0  0  0  0  0  0  0  0
   -5.1744    0.2538    0.0000 C   0  0  0  0  0  0  0  0  0  0  0  0
   -5.4850    1.7213    0.0000 C   0  0  0  0  0  0  0  0  0  0  0  0
   -4.3693    2.7239    0.0000 O   0  0  0  0  0  0  0  0  0  0  0  0
   -6.9111    2.1861    0.0000 N   0  0  0  0  0  0  0  0  0  0  0  0
   -7.2216    3.6536    0.0000 N   0  0  0  0  0  0  0  0  0  0  0  0
   -2.0116   -2.1434    0.0000 C   0  0  0  0  0  0  0  0  0  0  0  0
   -1.5494   -3.5704    0.0000 C   0  0  0  0  0  0  0  0  0  0  0  0
   -0.0494   -3.5718    0.0000 C   0  0  0  0  0  0  0  0  0  0  0  0
    0.4155   -2.1456    0.0000 C   0  0  0  0  0  0  0  0  0  0  0  0
    1.7863   -1.5368    0.0000 C   0  0  0  0  0  0  0  0  0  0  0  0
    2.9990   -2.4196    0.0000 C   0  0  0  0  0  0  0  0  0  0  0  0
    4.3699   -1.8107    0.0000 C   0  0  0  0  0  0  0  0  0  0  0  0
    4.5281   -0.3191    0.0000 C   0  0  0  0  0  0  0  0  0  0  0  0
    5.8990    0.2898    0.0000 C   0  0  0  0  0  0  0  0  0  0  0  0
    6.0571    1.7814    0.0000 C   0  0  0  0  0  0  0  0  0  0  0  0
    7.4280    2.3902    0.0000 O   0  0  0  0  0  0  0  0  0  0  0  0
    4.8444    2.6642    0.0000 C   0  0  0  0  0  0  0  0  0  0  0  0
    3.4735    2.0553    0.0000 C   0  0  0  0  0  0  0  0  0  0  0  0
    3.3154    0.5637    0.0000 C   0  0  0  0  0  0  0  0  0  0  0  0
    2.1026    1.4465    0.0000 C   0  0  0  0  0  0  0  0  0  0  0  0
    1.9445   -0.0451    0.0000 C   0  0  0  0  0  0  0  0  0  0  0  0
    0.7318    0.8376    0.0000 C   0  0  0  0  0  0  0  0  0  0  0  0
   -0.6391    0.2288    0.0000 C   0  0  0  0  0  0  0  0  0  0  0  0
   -1.8518    1.1116    0.0000 O   0  0  0  0  0  0  0  0  0  0  0  0
   -0.7973   -1.2628    0.0000 C   0  0  0  0  0  0  0  0  0  0  0  0
   -2.0956   -0.5116    0.0000 C   0  0  0  0  0  0  0  0  0  0  0  0
  2  1  1  6
  2  3  1  0
  3  4  1  0
  4  5  1  0
  5  6  2  0
  5  7  1  0
  7  8  1  0
  2  9  1  0
  9 10  1  6
 10 11  1  0
 12 11  1  6
 12 13  1  0
 13 14  1  1
 14 15  1  0
 16 15  1  1
 16 17  1  0
 17 18  1  0
 18 19  1  1
 18 20  1  0
 20 21  1  0
 21 22  1  0
 22 23  1  6
 22 24  1  0
 24 25  1  6
 25 26  1  0
 26 27  1  6
 26 28  1  0
 28 29  1  6
 28  9  1  0
 28 12  1  0
 24 13  1  0
 22 16  1  0
M  END
>  <MS_ID>  (763) 
MS0796

>  <SMILES>  (763) 
C[C@H](CCC(=O)NN)[C@H]1CC[C@H]2[C@@H]3CC[C@@H]4C[C@H](O)CC[C@]4(C)[C@H]3C[C@@H](O)[C@]12C

>  <Structure_dimension>  (763) 
2D

$$$$
MS0797
     RDKit          2D

 28 31  0  0  0  0  0  0  0  0999 V2000
   -5.1275   -2.0302    0.0000 C   0  0  0  0  0  0  0  0  0  0  0  0
   -3.9468   -1.1050    0.0000 C   0  0  0  0  0  0  0  0  0  0  0  0
   -4.1576    0.3801    0.0000 C   0  0  0  0  0  0  0  0  0  0  0  0
   -5.5492    0.9401    0.0000 C   0  0  0  0  0  0  0  0  0  0  0  0
   -5.7600    2.4252    0.0000 C   0  0  0  0  0  0  0  0  0  0  0  0
   -4.5793    3.3503    0.0000 O   0  0  0  0  0  0  0  0  0  0  0  0
   -7.1516    2.9851    0.0000 O   0  0  0  0  0  0  0  0  0  0  0  0
   -2.5552   -1.6650    0.0000 C   0  0  0  0  0  0  0  0  0  0  0  0
   -2.1903   -3.1199    0.0000 C   0  0  0  0  0  0  0  0  0  0  0  0
   -0.6938   -3.2225    0.0000 C   0  0  0  0  0  0  0  0  0  0  0  0
   -0.1339   -1.8309    0.0000 C   0  0  0  0  0  0  0  0  0  0  0  0
    1.2750   -1.3159    0.0000 C   0  0  0  0  0  0  0  0  0  0  0  0
    2.4254   -2.2785    0.0000 C   0  0  0  0  0  0  0  0  0  0  0  0
    2.1670   -3.7560    0.0000 O   0  0  0  0  0  0  0  0  0  0  0  0
    3.8342   -1.7635    0.0000 C   0  0  0  0  0  0  0  0  0  0  0  0
    4.0926   -0.2859    0.0000 C   0  0  0  0  0  0  0  0  0  0  0  0
    5.5014    0.2291    0.0000 C   0  0  0  0  0  0  0  0  0  0  0  0
    5.7598    1.7067    0.0000 C   0  0  0  0  0  0  0  0  0  0  0  0
    7.1687    2.2217    0.0000 S   0  0  0  0  0  0  0  0  0  0  0  0
    4.6094    2.6692    0.0000 C   0  0  0  0  0  0  0  0  0  0  0  0
    3.2006    2.1542    0.0000 C   0  0  0  0  0  0  0  0  0  0  0  0
    2.9422    0.6767    0.0000 C   0  0  0  0  0  0  0  0  0  0  0  0
    1.7918    1.6392    0.0000 C   0  0  0  0  0  0  0  0  0  0  0  0
    1.5334    0.1617    0.0000 C   0  0  0  0  0  0  0  0  0  0  0  0
    0.3830    1.1242    0.0000 C   0  0  0  0  0  0  0  0  0  0  0  0
   -1.0259    0.6093    0.0000 C   0  0  0  0  0  0  0  0  0  0  0  0
   -1.2843   -0.8683    0.0000 C   0  0  0  0  0  0  0  0  0  0  0  0
   -2.5290   -0.0313    0.0000 C   0  0  0  0  0  0  0  0  0  0  0  0
  2  1  1  6
  2  3  1  0
  3  4  1  0
  4  5  1  0
  5  6  2  0
  5  7  1  0
  2  8  1  0
  8  9  1  6
  9 10  1  0
 11 10  1  6
 11 12  1  0
 12 13  1  1
 13 14  1  1
 13 15  1  0
 16 15  1  1
 16 17  1  0
 17 18  1  0
 18 19  1  1
 18 20  1  0
 20 21  1  0
 21 22  1  0
 22 23  1  6
 22 24  1  0
 24 25  1  6
 25 26  1  0
 26 27  1  0
 27 28  1  6
 27  8  1  0
 27 11  1  0
 24 12  1  0
 22 16  1  0
M  END
>  <MS_ID>  (764) 
MS0797

>  <SMILES>  (764) 
C[C@H](CCC(=O)O)[C@H]1CC[C@H]2[C@@H]3[C@H](O)C[C@@H]4C[C@H](S)CC[C@]4(C)[C@H]3CC[C@]12C

>  <Structure_dimension>  (764) 
2D

$$$$
MS0798
     RDKit          2D

 35 39  0  0  0  0  0  0  0  0999 V2000
   -3.1364   -3.2618    0.0000 C   0  0  0  0  0  0  0  0  0  0  0  0
   -2.1884   -2.0994    0.0000 C   0  0  0  0  0  0  0  0  0  0  0  0
   -2.7211   -0.6972    0.0000 C   0  0  0  0  0  0  0  0  0  0  0  0
   -4.2018   -0.4574    0.0000 C   0  0  0  0  0  0  0  0  0  0  0  0
   -4.7345    0.9448    0.0000 C   0  0  0  0  0  0  0  0  0  0  0  0
   -3.7864    2.1073    0.0000 O   0  0  0  0  0  0  0  0  0  0  0  0
   -6.2152    1.1846    0.0000 C   0  0  0  0  0  0  0  0  0  0  0  0
   -6.7478    2.5869    0.0000 C   0  0  0  0  0  0  0  0  0  0  0  0
   -8.2286    2.8267    0.0000 C   0  0  0  0  0  0  0  0  0  0  0  0
   -9.1766    1.6642    0.0000 C   0  0  0  0  0  0  0  0  0  0  0  0
   -8.6439    0.2620    0.0000 C   0  0  0  0  0  0  0  0  0  0  0  0
   -7.1632    0.0222    0.0000 C   0  0  0  0  0  0  0  0  0  0  0  0
   -6.6305   -1.3800    0.0000 O   0  0  0  0  0  0  0  0  0  0  0  0
   -0.7077   -2.3392    0.0000 C   0  0  0  0  0  0  0  0  0  0  0  0
   -0.0313   -3.6781    0.0000 C   0  0  0  0  0  0  0  0  0  0  0  0
    1.4510   -3.4486    0.0000 C   0  0  0  0  0  0  0  0  0  0  0  0
    1.6908   -1.9679    0.0000 C   0  0  0  0  0  0  0  0  0  0  0  0
    2.9516   -1.1553    0.0000 C   0  0  0  0  0  0  0  0  0  0  0  0
    4.2858   -1.8409    0.0000 C   0  0  0  0  0  0  0  0  0  0  0  0
    4.3591   -3.3391    0.0000 O   0  0  0  0  0  0  0  0  0  0  0  0
    5.5466   -1.0283    0.0000 C   0  0  0  0  0  0  0  0  0  0  0  0
    6.8807   -1.7140    0.0000 O   0  0  0  0  0  0  0  0  0  0  0  0
    5.4733    0.4699    0.0000 C   0  0  0  0  0  0  0  0  0  0  0  0
    6.7342    1.2825    0.0000 C   0  0  0  0  0  0  0  0  0  0  0  0
    6.6609    2.7807    0.0000 C   0  0  0  0  0  0  0  0  0  0  0  0
    7.9217    3.5933    0.0000 O   0  0  0  0  0  0  0  0  0  0  0  0
    5.3267    3.4663    0.0000 C   0  0  0  0  0  0  0  0  0  0  0  0
    4.0659    2.6537    0.0000 C   0  0  0  0  0  0  0  0  0  0  0  0
    4.1392    1.1555    0.0000 C   0  0  0  0  0  0  0  0  0  0  0  0
    2.8050    1.8411    0.0000 C   0  0  0  0  0  0  0  0  0  0  0  0
    2.8783    0.3429    0.0000 C   0  0  0  0  0  0  0  0  0  0  0  0
    1.5442    1.0286    0.0000 C   0  0  0  0  0  0  0  0  0  0  0  0
    0.2834    0.2160    0.0000 C   0  0  0  0  0  0  0  0  0  0  0  0
    0.3567   -1.2822    0.0000 C   0  0  0  0  0  0  0  0  0  0  0  0
   -1.0418   -0.7398    0.0000 C   0  0  0  0  0  0  0  0  0  0  0  0
  2  1  1  6
  2  3  1  0
  3  4  1  0
  4  5  1  0
  5  6  2  0
  5  7  1  0
  7  8  2  0
  8  9  1  0
  9 10  2  0
 10 11  1  0
 11 12  2  0
 12 13  1  0
  2 14  1  0
 14 15  1  6
 15 16  1  0
 17 16  1  6
 17 18  1  0
 18 19  1  1
 19 20  1  1
 19 21  1  0
 21 22  1  1
 21 23  1  0
 23 24  1  1
 24 25  1  0
 25 26  1  1
 25 27  1  0
 27 28  1  0
 28 29  1  0
 29 30  1  6
 29 31  1  0
 31 32  1  6
 32 33  1  0
 33 34  1  0
 34 35  1  6
 12  7  1  0
 34 14  1  0
 34 17  1  0
 31 18  1  0
 29 23  1  0
M  END
>  <MS_ID>  (765) 
MS0798

>  <SMILES>  (765) 
C[C@H](CCC(=O)c1ccccc1O)[C@H]1CC[C@H]2[C@@H]3[C@H](O)[C@H](O)[C@@H]4C[C@H](O)CC[C@]4(C)[C@H]3CC[C@]12C

>  <Structure_dimension>  (765) 
2D

$$$$
MS0800
     RDKit          2D

 32 36  0  0  0  0  0  0  0  0999 V2000
   -3.4100   -3.2672    0.0000 C   0  0  0  0  0  0  0  0  0  0  0  0
   -2.4025   -2.1559    0.0000 C   0  0  0  0  0  0  0  0  0  0  0  0
   -2.8612   -0.7278    0.0000 C   0  0  0  0  0  0  0  0  0  0  0  0
   -4.3273   -0.4109    0.0000 C   0  0  0  0  0  0  0  0  0  0  0  0
   -4.7860    1.0172    0.0000 C   0  0  0  0  0  0  0  0  0  0  0  0
   -3.7785    2.1285    0.0000 O   0  0  0  0  0  0  0  0  0  0  0  0
   -6.2522    1.3341    0.0000 C   0  0  0  0  0  0  0  0  0  0  0  0
   -7.3703    0.3342    0.0000 C   0  0  0  0  0  0  0  0  0  0  0  0
   -8.6668    1.0886    0.0000 C   0  0  0  0  0  0  0  0  0  0  0  0
   -8.3499    2.5547    0.0000 C   0  0  0  0  0  0  0  0  0  0  0  0
   -6.8576    2.7065    0.0000 N   0  0  0  0  0  0  0  0  0  0  0  0
   -0.9363   -2.4728    0.0000 C   0  0  0  0  0  0  0  0  0  0  0  0
   -0.3309   -3.8451    0.0000 C   0  0  0  0  0  0  0  0  0  0  0  0
    1.1614   -3.6934    0.0000 C   0  0  0  0  0  0  0  0  0  0  0  0
    1.4783   -2.2273    0.0000 C   0  0  0  0  0  0  0  0  0  0  0  0
    2.7798   -1.4817    0.0000 C   0  0  0  0  0  0  0  0  0  0  0  0
    4.0763   -2.2361    0.0000 C   0  0  0  0  0  0  0  0  0  0  0  0
    5.3779   -1.4905    0.0000 C   0  0  0  0  0  0  0  0  0  0  0  0
    5.3830    0.0095    0.0000 C   0  0  0  0  0  0  0  0  0  0  0  0
    6.6846    0.7551    0.0000 C   0  0  0  0  0  0  0  0  0  0  0  0
    6.6897    2.2551    0.0000 C   0  0  0  0  0  0  0  0  0  0  0  0
    7.9912    3.0007    0.0000 O   0  0  0  0  0  0  0  0  0  0  0  0
    5.3932    3.0095    0.0000 C   0  0  0  0  0  0  0  0  0  0  0  0
    4.0916    2.2639    0.0000 C   0  0  0  0  0  0  0  0  0  0  0  0
    4.0865    0.7639    0.0000 C   0  0  0  0  0  0  0  0  0  0  0  0
    2.7900    1.5183    0.0000 C   0  0  0  0  0  0  0  0  0  0  0  0
    2.7849    0.0183    0.0000 C   0  0  0  0  0  0  0  0  0  0  0  0
    1.4884    0.7727    0.0000 C   0  0  0  0  0  0  0  0  0  0  0  0
    0.1869    0.0271    0.0000 C   0  0  0  0  0  0  0  0  0  0  0  0
   -1.1096    0.7815    0.0000 O   0  0  0  0  0  0  0  0  0  0  0  0
    0.1818   -1.4728    0.0000 C   0  0  0  0  0  0  0  0  0  0  0  0
   -1.1865   -0.8581    0.0000 C   0  0  0  0  0  0  0  0  0  0  0  0
  2  1  1  6
  2  3  1  0
  3  4  1  0
  4  5  1  0
  5  6  2  0
  5  7  1  0
  7  8  2  0
  8  9  1  0
  9 10  2  0
 10 11  1  0
  2 12  1  0
 12 13  1  6
 13 14  1  0
 15 14  1  6
 15 16  1  0
 16 17  1  1
 17 18  1  0
 19 18  1  1
 19 20  1  0
 20 21  1  0
 21 22  1  1
 21 23  1  0
 23 24  1  0
 24 25  1  0
 25 26  1  6
 25 27  1  0
 27 28  1  6
 28 29  1  0
 29 30  1  1
 29 31  1  0
 31 32  1  6
 11  7  1  0
 31 12  1  0
 31 15  1  0
 27 16  1  0
 25 19  1  0
M  END
>  <MS_ID>  (766) 
MS0800

>  <SMILES>  (766) 
C[C@H](CCC(=O)c1ccc[nH]1)[C@H]1CC[C@H]2[C@@H]3CC[C@@H]4C[C@H](O)CC[C@]4(C)[C@H]3C[C@H](O)[C@]12C

>  <Structure_dimension>  (766) 
2D

$$$$
MS0801
     RDKit          2D

 31 34  0  0  0  0  0  0  0  0999 V2000
   -3.5119   -3.5779    0.0000 C   0  0  0  0  0  0  0  0  0  0  0  0
   -2.6109   -2.3787    0.0000 C   0  0  0  0  0  0  0  0  0  0  0  0
   -3.1991   -0.9988    0.0000 C   0  0  0  0  0  0  0  0  0  0  0  0
   -4.6881   -0.8181    0.0000 C   0  0  0  0  0  0  0  0  0  0  0  0
   -5.2762    0.5618    0.0000 C   0  0  0  0  0  0  0  0  0  0  0  0
   -4.3753    1.7610    0.0000 O   0  0  0  0  0  0  0  0  0  0  0  0
   -6.7653    0.7424    0.0000 N   0  0  0  0  0  0  0  0  0  0  0  0
   -7.3534    2.1223    0.0000 C   0  0  0  0  0  0  0  0  0  0  0  0
   -8.8425    2.3029    0.0000 C   0  0  0  0  0  0  0  0  0  0  0  0
   -9.4306    3.6828    0.0000 N   0  0  0  0  0  0  0  0  0  0  0  0
   -1.1219   -2.5593    0.0000 C   0  0  0  0  0  0  0  0  0  0  0  0
   -0.3927   -3.8702    0.0000 C   0  0  0  0  0  0  0  0  0  0  0  0
    1.0793   -3.5818    0.0000 C   0  0  0  0  0  0  0  0  0  0  0  0
    1.2599   -2.0927    0.0000 C   0  0  0  0  0  0  0  0  0  0  0  0
    2.4874   -1.2306    0.0000 C   0  0  0  0  0  0  0  0  0  0  0  0
    3.8478   -1.8625    0.0000 C   0  0  0  0  0  0  0  0  0  0  0  0
    3.9807   -3.3566    0.0000 O   0  0  0  0  0  0  0  0  0  0  0  0
    5.0753   -1.0003    0.0000 C   0  0  0  0  0  0  0  0  0  0  0  0
    4.9423    0.4938    0.0000 C   0  0  0  0  0  0  0  0  0  0  0  0
    6.1698    1.3559    0.0000 C   0  0  0  0  0  0  0  0  0  0  0  0
    6.0369    2.8500    0.0000 C   0  0  0  0  0  0  0  0  0  0  0  0
    7.2644    3.7122    0.0000 O   0  0  0  0  0  0  0  0  0  0  0  0
    4.6765    3.4820    0.0000 C   0  0  0  0  0  0  0  0  0  0  0  0
    3.4490    2.6198    0.0000 C   0  0  0  0  0  0  0  0  0  0  0  0
    3.5820    1.1257    0.0000 C   0  0  0  0  0  0  0  0  0  0  0  0
    2.2216    1.7576    0.0000 C   0  0  0  0  0  0  0  0  0  0  0  0
    2.3545    0.2635    0.0000 C   0  0  0  0  0  0  0  0  0  0  0  0
    0.9941    0.8955    0.0000 C   0  0  0  0  0  0  0  0  0  0  0  0
   -0.2334    0.0333    0.0000 C   0  0  0  0  0  0  0  0  0  0  0  0
   -0.1005   -1.4608    0.0000 C   0  0  0  0  0  0  0  0  0  0  0  0
   -1.5195   -0.9745    0.0000 C   0  0  0  0  0  0  0  0  0  0  0  0
  2  1  1  6
  2  3  1  0
  3  4  1  0
  4  5  1  0
  5  6  2  0
  5  7  1  0
  7  8  1  0
  8  9  1  0
  9 10  1  0
  2 11  1  0
 11 12  1  6
 12 13  1  0
 14 13  1  6
 14 15  1  0
 15 16  1  1
 16 17  1  1
 16 18  1  0
 19 18  1  1
 19 20  1  0
 20 21  1  0
 21 22  1  1
 21 23  1  0
 23 24  1  0
 24 25  1  0
 25 26  1  6
 25 27  1  0
 27 28  1  6
 28 29  1  0
 29 30  1  0
 30 31  1  6
 30 11  1  0
 30 14  1  0
 27 15  1  0
 25 19  1  0
M  END
>  <MS_ID>  (767) 
MS0801

>  <SMILES>  (767) 
C[C@H](CCC(=O)NCCN)[C@H]1CC[C@H]2[C@@H]3[C@H](O)C[C@@H]4C[C@H](O)CC[C@]4(C)[C@H]3CC[C@]12C

>  <Structure_dimension>  (767) 
2D

$$$$
MS0802
     RDKit          2D

 32 35  0  0  0  0  0  0  0  0999 V2000
   -6.3148   -1.8053    0.0000 C   0  0  0  0  0  0  0  0  0  0  0  0
   -5.0840   -0.9480    0.0000 C   0  0  0  0  0  0  0  0  0  0  0  0
   -5.2110    0.5466    0.0000 C   0  0  0  0  0  0  0  0  0  0  0  0
   -6.5688    1.1840    0.0000 C   0  0  0  0  0  0  0  0  0  0  0  0
   -6.6958    2.6786    0.0000 C   0  0  0  0  0  0  0  0  0  0  0  0
   -8.0537    3.3159    0.0000 O   0  0  0  0  0  0  0  0  0  0  0  0
   -5.4650    3.5359    0.0000 Cl  0  0  0  0  0  0  0  0  0  0  0  0
   -3.7261   -1.5853    0.0000 C   0  0  0  0  0  0  0  0  0  0  0  0
   -3.4436   -3.0584    0.0000 C   0  0  0  0  0  0  0  0  0  0  0  0
   -1.9552   -3.2450    0.0000 C   0  0  0  0  0  0  0  0  0  0  0  0
   -1.3179   -1.8871    0.0000 C   0  0  0  0  0  0  0  0  0  0  0  0
    0.1177   -1.4521    0.0000 C   0  0  0  0  0  0  0  0  0  0  0  0
    1.2121   -2.4779    0.0000 C   0  0  0  0  0  0  0  0  0  0  0  0
    0.8711   -3.9386    0.0000 O   0  0  0  0  0  0  0  0  0  0  0  0
    2.6477   -2.0429    0.0000 C   0  0  0  0  0  0  0  0  0  0  0  0
    2.9888   -0.5822    0.0000 C   0  0  0  0  0  0  0  0  0  0  0  0
    4.4243   -0.1472    0.0000 C   0  0  0  0  0  0  0  0  0  0  0  0
    4.7654    1.3135    0.0000 C   0  0  0  0  0  0  0  0  0  0  0  0
    6.2009    1.7485    0.0000 O   0  0  0  0  0  0  0  0  0  0  0  0
    7.2954    0.7227    0.0000 S   0  0  0  0  0  0  0  0  0  0  0  0
    6.2697   -0.3717    0.0000 O   0  0  0  0  0  0  0  0  0  0  0  0
    8.3211    1.8172    0.0000 O   0  0  0  0  0  0  0  0  0  0  0  0
    8.3899   -0.3030    0.0000 O   0  0  0  0  0  0  0  0  0  0  0  0
    3.6709    2.3392    0.0000 C   0  0  0  0  0  0  0  0  0  0  0  0
    2.2354    1.9043    0.0000 C   0  0  0  0  0  0  0  0  0  0  0  0
    1.8943    0.4436    0.0000 C   0  0  0  0  0  0  0  0  0  0  0  0
    0.7998    1.4693    0.0000 C   0  0  0  0  0  0  0  0  0  0  0  0
    0.4587    0.0086    0.0000 C   0  0  0  0  0  0  0  0  0  0  0  0
   -0.6357    1.0343    0.0000 C   0  0  0  0  0  0  0  0  0  0  0  0
   -2.0713    0.5993    0.0000 C   0  0  0  0  0  0  0  0  0  0  0  0
   -2.4123   -0.8614    0.0000 C   0  0  0  0  0  0  0  0  0  0  0  0
   -3.6080    0.0444    0.0000 C   0  0  0  0  0  0  0  0  0  0  0  0
  2  1  1  6
  2  3  1  0
  3  4  1  0
  4  5  1  0
  5  6  2  0
  5  7  1  0
  2  8  1  0
  8  9  1  6
  9 10  1  0
 11 10  1  6
 11 12  1  0
 12 13  1  1
 13 14  1  6
 13 15  1  0
 16 15  1  1
 16 17  1  0
 17 18  1  0
 18 19  1  1
 19 20  1  0
 20 21  2  0
 20 22  2  0
 20 23  1  0
 18 24  1  0
 24 25  1  0
 25 26  1  0
 26 27  1  6
 26 28  1  0
 28 29  1  6
 29 30  1  0
 30 31  1  0
 31 32  1  6
 31  8  1  0
 31 11  1  0
 28 12  1  0
 26 16  1  0
M  END
>  <MS_ID>  (768) 
MS0802

>  <SMILES>  (768) 
C[C@H](CCC(=O)Cl)[C@H]1CC[C@H]2[C@@H]3[C@@H](O)C[C@@H]4C[C@H](OS(=O)(=O)O)CC[C@]4(C)[C@H]3CC[C@]12C

>  <Structure_dimension>  (768) 
2D

$$$$
MS0803
     RDKit          2D

 30 33  0  0  0  0  0  0  0  0999 V2000
   -4.5685   -2.6908    0.0000 C   0  0  0  0  0  0  0  0  0  0  0  0
   -3.4838   -1.6548    0.0000 C   0  0  0  0  0  0  0  0  0  0  0  0
   -3.8388   -0.1974    0.0000 C   0  0  0  0  0  0  0  0  0  0  0  0
   -5.2784    0.2240    0.0000 C   0  0  0  0  0  0  0  0  0  0  0  0
   -5.6333    1.6814    0.0000 C   0  0  0  0  0  0  0  0  0  0  0  0
   -4.5486    2.7174    0.0000 O   0  0  0  0  0  0  0  0  0  0  0  0
   -7.0729    2.1027    0.0000 C   0  0  0  0  0  0  0  0  0  0  0  0
   -7.4279    3.5601    0.0000 S   0  0  0  0  0  0  0  0  0  0  0  0
   -2.0442   -2.0761    0.0000 C   0  0  0  0  0  0  0  0  0  0  0  0
   -1.5389   -3.4884    0.0000 C   0  0  0  0  0  0  0  0  0  0  0  0
   -0.0395   -3.4442    0.0000 C   0  0  0  0  0  0  0  0  0  0  0  0
    0.3818   -2.0046    0.0000 C   0  0  0  0  0  0  0  0  0  0  0  0
    1.7336   -1.3544    0.0000 C   0  0  0  0  0  0  0  0  0  0  0  0
    2.9725   -2.1999    0.0000 C   0  0  0  0  0  0  0  0  0  0  0  0
    2.8597   -3.6957    0.0000 O   0  0  0  0  0  0  0  0  0  0  0  0
    4.3243   -1.5497    0.0000 C   0  0  0  0  0  0  0  0  0  0  0  0
    4.4371   -0.0540    0.0000 C   0  0  0  0  0  0  0  0  0  0  0  0
    5.7888    0.5962    0.0000 C   0  0  0  0  0  0  0  0  0  0  0  0
    5.9016    2.0920    0.0000 C   0  0  0  0  0  0  0  0  0  0  0  0
    7.2534    2.7422    0.0000 O   0  0  0  0  0  0  0  0  0  0  0  0
    4.6627    2.9375    0.0000 C   0  0  0  0  0  0  0  0  0  0  0  0
    3.3109    2.2873    0.0000 C   0  0  0  0  0  0  0  0  0  0  0  0
    3.1981    0.7916    0.0000 C   0  0  0  0  0  0  0  0  0  0  0  0
    1.9591    1.6371    0.0000 C   0  0  0  0  0  0  0  0  0  0  0  0
    1.8464    0.1414    0.0000 C   0  0  0  0  0  0  0  0  0  0  0  0
    0.6074    0.9869    0.0000 C   0  0  0  0  0  0  0  0  0  0  0  0
   -0.7444    0.3367    0.0000 C   0  0  0  0  0  0  0  0  0  0  0  0
   -1.9833    1.1823    0.0000 O   0  0  0  0  0  0  0  0  0  0  0  0
   -0.8572   -1.1590    0.0000 C   0  0  0  0  0  0  0  0  0  0  0  0
   -2.1777   -0.4476    0.0000 C   0  0  0  0  0  0  0  0  0  0  0  0
  2  1  1  6
  2  3  1  0
  3  4  1  0
  4  5  1  0
  5  6  2  0
  5  7  1  0
  7  8  1  0
  2  9  1  0
  9 10  1  6
 10 11  1  0
 12 11  1  6
 12 13  1  0
 13 14  1  1
 14 15  1  1
 14 16  1  0
 17 16  1  1
 17 18  1  0
 18 19  1  0
 19 20  1  6
 19 21  1  0
 21 22  1  0
 22 23  1  0
 23 24  1  6
 23 25  1  0
 25 26  1  6
 26 27  1  0
 27 28  1  1
 27 29  1  0
 29 30  1  6
 29  9  1  0
 29 12  1  0
 25 13  1  0
 23 17  1  0
M  END
>  <MS_ID>  (769) 
MS0803

>  <SMILES>  (769) 
C[C@H](CCC(=O)CS)[C@H]1CC[C@H]2[C@@H]3[C@H](O)C[C@@H]4C[C@@H](O)CC[C@]4(C)[C@H]3C[C@H](O)[C@]12C

>  <Structure_dimension>  (769) 
2D

$$$$
MS0804
     RDKit          2D

 36 39  0  0  0  0  0  0  0  0999 V2000
   -1.9689   -5.2839    0.0000 C   0  0  0  0  0  0  0  0  0  0  0  0
   -1.4990   -3.8594    0.0000 C   0  0  0  0  0  0  0  0  0  0  0  0
   -2.4977   -2.7402    0.0000 C   0  0  0  0  0  0  0  0  0  0  0  0
   -3.9663   -3.0455    0.0000 C   0  0  0  0  0  0  0  0  0  0  0  0
   -4.9650   -1.9263    0.0000 C   0  0  0  0  0  0  0  0  0  0  0  0
   -6.4336   -2.2316    0.0000 O   0  0  0  0  0  0  0  0  0  0  0  0
   -4.4950   -0.5018    0.0000 O   0  0  0  0  0  0  0  0  0  0  0  0
   -5.4937    0.6174    0.0000 C   0  0  0  0  0  0  0  0  0  0  0  0
   -6.9623    0.3121    0.0000 O   0  0  0  0  0  0  0  0  0  0  0  0
   -5.0238    2.0419    0.0000 C   0  0  0  0  0  0  0  0  0  0  0  0
   -6.0225    3.1611    0.0000 C   0  0  0  0  0  0  0  0  0  0  0  0
   -5.5526    4.5856    0.0000 C   0  0  0  0  0  0  0  0  0  0  0  0
   -4.0840    4.8908    0.0000 O   0  0  0  0  0  0  0  0  0  0  0  0
   -6.5513    5.7048    0.0000 O   0  0  0  0  0  0  0  0  0  0  0  0
   -0.0304   -3.5542    0.0000 C   0  0  0  0  0  0  0  0  0  0  0  0
    1.0798   -4.5628    0.0000 C   0  0  0  0  0  0  0  0  0  0  0  0
    2.3822   -3.8187    0.0000 C   0  0  0  0  0  0  0  0  0  0  0  0
    2.0769   -2.3501    0.0000 C   0  0  0  0  0  0  0  0  0  0  0  0
    2.9640   -1.1405    0.0000 C   0  0  0  0  0  0  0  0  0  0  0  0
    4.4551   -1.3040    0.0000 C   0  0  0  0  0  0  0  0  0  0  0  0
    5.0591   -2.6770    0.0000 O   0  0  0  0  0  0  0  0  0  0  0  0
    5.3422   -0.0944    0.0000 C   0  0  0  0  0  0  0  0  0  0  0  0
    6.8333   -0.2579    0.0000 O   0  0  0  0  0  0  0  0  0  0  0  0
    4.7383    1.2786    0.0000 C   0  0  0  0  0  0  0  0  0  0  0  0
    5.6254    2.4882    0.0000 C   0  0  0  0  0  0  0  0  0  0  0  0
    5.0214    3.8612    0.0000 C   0  0  0  0  0  0  0  0  0  0  0  0
    5.9085    5.0708    0.0000 O   0  0  0  0  0  0  0  0  0  0  0  0
    3.5303    4.0247    0.0000 C   0  0  0  0  0  0  0  0  0  0  0  0
    2.6432    2.8151    0.0000 C   0  0  0  0  0  0  0  0  0  0  0  0
    3.2472    1.4421    0.0000 C   0  0  0  0  0  0  0  0  0  0  0  0
    1.7561    1.6056    0.0000 C   0  0  0  0  0  0  0  0  0  0  0  0
    2.3601    0.2325    0.0000 C   0  0  0  0  0  0  0  0  0  0  0  0
    0.8690    0.3960    0.0000 C   0  0  0  0  0  0  0  0  0  0  0  0
   -0.0181   -0.8135    0.0000 C   0  0  0  0  0  0  0  0  0  0  0  0
    0.5859   -2.1866    0.0000 C   0  0  0  0  0  0  0  0  0  0  0  0
   -0.9141   -2.1799    0.0000 C   0  0  0  0  0  0  0  0  0  0  0  0
  2  1  1  6
  2  3  1  0
  3  4  1  0
  4  5  1  0
  5  6  2  0
  5  7  1  0
  7  8  1  0
  8  9  2  0
  8 10  1  0
 10 11  1  0
 11 12  1  0
 12 13  2  0
 12 14  1  0
  2 15  1  0
 15 16  1  6
 16 17  1  0
 18 17  1  6
 18 19  1  0
 19 20  1  1
 20 21  1  1
 20 22  1  0
 22 23  1  1
 22 24  1  0
 24 25  1  1
 25 26  1  0
 26 27  1  1
 26 28  1  0
 28 29  1  0
 29 30  1  0
 30 31  1  6
 30 32  1  0
 32 33  1  6
 33 34  1  0
 34 35  1  0
 35 36  1  6
 35 15  1  0
 35 18  1  0
 32 19  1  0
 30 24  1  0
M  END
>  <MS_ID>  (770) 
MS0804

>  <SMILES>  (770) 
C[C@H](CCC(=O)OC(=O)CCC(=O)O)[C@H]1CC[C@H]2[C@@H]3[C@H](O)[C@H](O)[C@@H]4C[C@H](O)CC[C@]4(C)[C@H]3CC[C@]12C

>  <Structure_dimension>  (770) 
2D

$$$$
MS0805
     RDKit          2D

 40 44  0  0  0  0  0  0  0  0999 V2000
   -7.7456   -2.0849    0.0000 C   0  0  0  0  0  0  0  0  0  0  0  0
   -6.5700   -1.1533    0.0000 C   0  0  0  0  0  0  0  0  0  0  0  0
   -6.7891    0.3307    0.0000 C   0  0  0  0  0  0  0  0  0  0  0  0
   -8.1837    0.8829    0.0000 C   0  0  0  0  0  0  0  0  0  0  0  0
   -8.4028    2.3668    0.0000 C   0  0  0  0  0  0  0  0  0  0  0  0
   -7.2273    3.2985    0.0000 O   0  0  0  0  0  0  0  0  0  0  0  0
   -9.7975    2.9190    0.0000 O   0  0  0  0  0  0  0  0  0  0  0  0
   -5.1754   -1.7055    0.0000 C   0  0  0  0  0  0  0  0  0  0  0  0
   -4.8024   -3.1584    0.0000 C   0  0  0  0  0  0  0  0  0  0  0  0
   -3.3053   -3.2526    0.0000 C   0  0  0  0  0  0  0  0  0  0  0  0
   -2.7531   -1.8579    0.0000 C   0  0  0  0  0  0  0  0  0  0  0  0
   -1.3472   -1.3351    0.0000 C   0  0  0  0  0  0  0  0  0  0  0  0
   -0.1914   -2.2913    0.0000 C   0  0  0  0  0  0  0  0  0  0  0  0
   -0.4416   -3.7703    0.0000 O   0  0  0  0  0  0  0  0  0  0  0  0
    1.2145   -1.7685    0.0000 C   0  0  0  0  0  0  0  0  0  0  0  0
    1.4647   -0.2895    0.0000 C   0  0  0  0  0  0  0  0  0  0  0  0
    2.8707    0.2333    0.0000 C   0  0  0  0  0  0  0  0  0  0  0  0
    3.1208    1.7123    0.0000 C   0  0  0  0  0  0  0  0  0  0  0  0
    4.5268    2.2352    0.0000 O   0  0  0  0  0  0  0  0  0  0  0  0
    5.6825    1.2790    0.0000 C   0  0  0  0  0  0  0  0  0  0  0  0
    5.4323   -0.2000    0.0000 O   0  0  0  0  0  0  0  0  0  0  0  0
    6.5881   -1.1562    0.0000 C   0  0  0  0  0  0  0  0  0  0  0  0
    6.3379   -2.6351    0.0000 C   0  0  0  0  0  0  0  0  0  0  0  0
    4.9320   -3.1580    0.0000 O   0  0  0  0  0  0  0  0  0  0  0  0
    7.9940   -0.6333    0.0000 C   0  0  0  0  0  0  0  0  0  0  0  0
    9.1498   -1.5895    0.0000 O   0  0  0  0  0  0  0  0  0  0  0  0
    8.2442    0.8456    0.0000 C   0  0  0  0  0  0  0  0  0  0  0  0
    9.6501    1.3685    0.0000 O   0  0  0  0  0  0  0  0  0  0  0  0
    7.0885    1.8018    0.0000 C   0  0  0  0  0  0  0  0  0  0  0  0
    7.3387    3.2808    0.0000 O   0  0  0  0  0  0  0  0  0  0  0  0
    1.9651    2.6685    0.0000 C   0  0  0  0  0  0  0  0  0  0  0  0
    0.5592    2.1457    0.0000 C   0  0  0  0  0  0  0  0  0  0  0  0
    0.3090    0.6667    0.0000 C   0  0  0  0  0  0  0  0  0  0  0  0
   -0.8468    1.6229    0.0000 C   0  0  0  0  0  0  0  0  0  0  0  0
   -1.0970    0.1439    0.0000 C   0  0  0  0  0  0  0  0  0  0  0  0
   -2.2527    1.1000    0.0000 C   0  0  0  0  0  0  0  0  0  0  0  0
   -3.6586    0.5772    0.0000 C   0  0  0  0  0  0  0  0  0  0  0  0
   -4.8144    1.5334    0.0000 O   0  0  0  0  0  0  0  0  0  0  0  0
   -3.9088   -0.9018    0.0000 C   0  0  0  0  0  0  0  0  0  0  0  0
   -5.1582   -0.0716    0.0000 C   0  0  0  0  0  0  0  0  0  0  0  0
  2  1  1  6
  2  3  1  0
  3  4  1  0
  4  5  1  0
  5  6  2  0
  5  7  1  0
  2  8  1  0
  8  9  1  6
  9 10  1  0
 11 10  1  6
 11 12  1  0
 12 13  1  1
 13 14  1  1
 13 15  1  0
 16 15  1  1
 16 17  1  0
 17 18  1  0
 18 19  1  1
 20 19  1  1
 20 21  1  0
 21 22  1  0
 22 23  1  1
 23 24  1  0
 22 25  1  0
 25 26  1  6
 25 27  1  0
 27 28  1  6
 27 29  1  0
 29 30  1  6
 18 31  1  0
 31 32  1  0
 32 33  1  0
 33 34  1  6
 33 35  1  0
 35 36  1  6
 36 37  1  0
 37 38  1  1
 37 39  1  0
 39 40  1  6
 39  8  1  0
 39 11  1  0
 35 12  1  0
 33 16  1  0
 29 20  1  0
M  END
>  <MS_ID>  (771) 
MS0805

>  <SMILES>  (771) 
C[C@H](CCC(=O)O)[C@H]1CC[C@H]2[C@@H]3[C@H](O)C[C@@H]4C[C@H](O[C@@H]5O[C@H](CO)[C@@H](O)[C@@H](O)[C@H]5O)CC[C@]4(C)[C@H]3C[C@H](O)[C@]12C

>  <Structure_dimension>  (771) 
2D

$$$$
MS0806
     RDKit          2D

 33 36  0  0  0  0  0  0  0  0999 V2000
   -2.7798   -3.8103    0.0000 C   0  0  0  0  0  0  0  0  0  0  0  0
   -1.9338   -2.5716    0.0000 C   0  0  0  0  0  0  0  0  0  0  0  0
   -2.5835   -1.2196    0.0000 C   0  0  0  0  0  0  0  0  0  0  0  0
   -4.0792   -1.1063    0.0000 C   0  0  0  0  0  0  0  0  0  0  0  0
   -4.7289    0.2457    0.0000 C   0  0  0  0  0  0  0  0  0  0  0  0
   -3.8829    1.4843    0.0000 O   0  0  0  0  0  0  0  0  0  0  0  0
   -6.2246    0.3590    0.0000 N   0  0  0  0  0  0  0  0  0  0  0  0
   -6.8743    1.7110    0.0000 N   0  0  0  0  0  0  0  0  0  0  0  0
   -8.3700    1.8244    0.0000 S   0  0  0  0  0  0  0  0  0  0  0  0
   -8.2567    3.3201    0.0000 O   0  0  0  0  0  0  0  0  0  0  0  0
   -8.4834    0.3287    0.0000 O   0  0  0  0  0  0  0  0  0  0  0  0
   -9.8657    1.9377    0.0000 O   0  0  0  0  0  0  0  0  0  0  0  0
   -0.4381   -2.6850    0.0000 C   0  0  0  0  0  0  0  0  0  0  0  0
    0.3494   -3.9617    0.0000 C   0  0  0  0  0  0  0  0  0  0  0  0
    1.8069   -3.6073    0.0000 C   0  0  0  0  0  0  0  0  0  0  0  0
    1.9202   -2.1116    0.0000 C   0  0  0  0  0  0  0  0  0  0  0  0
    3.1076   -1.1950    0.0000 C   0  0  0  0  0  0  0  0  0  0  0  0
    4.4951   -1.7650    0.0000 C   0  0  0  0  0  0  0  0  0  0  0  0
    4.6952   -3.2515    0.0000 O   0  0  0  0  0  0  0  0  0  0  0  0
    5.6825   -0.8484    0.0000 C   0  0  0  0  0  0  0  0  0  0  0  0
    5.4824    0.6382    0.0000 C   0  0  0  0  0  0  0  0  0  0  0  0
    6.6697    1.5548    0.0000 C   0  0  0  0  0  0  0  0  0  0  0  0
    6.4696    3.0414    0.0000 C   0  0  0  0  0  0  0  0  0  0  0  0
    7.6570    3.9580    0.0000 O   0  0  0  0  0  0  0  0  0  0  0  0
    5.0821    3.6114    0.0000 C   0  0  0  0  0  0  0  0  0  0  0  0
    3.8948    2.6948    0.0000 C   0  0  0  0  0  0  0  0  0  0  0  0
    4.0949    1.2082    0.0000 C   0  0  0  0  0  0  0  0  0  0  0  0
    2.7074    1.7782    0.0000 C   0  0  0  0  0  0  0  0  0  0  0  0
    2.9075    0.2916    0.0000 C   0  0  0  0  0  0  0  0  0  0  0  0
    1.5200    0.8616    0.0000 C   0  0  0  0  0  0  0  0  0  0  0  0
    0.3327   -0.0550    0.0000 C   0  0  0  0  0  0  0  0  0  0  0  0
    0.5328   -1.5416    0.0000 C   0  0  0  0  0  0  0  0  0  0  0  0
   -0.9067   -1.1197    0.0000 C   0  0  0  0  0  0  0  0  0  0  0  0
  2  1  1  6
  2  3  1  0
  3  4  1  0
  4  5  1  0
  5  6  2  0
  5  7  1  0
  7  8  1  0
  8  9  1  0
  9 10  2  0
  9 11  2  0
  9 12  1  0
  2 13  1  0
 13 14  1  6
 14 15  1  0
 16 15  1  6
 16 17  1  0
 17 18  1  1
 18 19  1  1
 18 20  1  0
 21 20  1  1
 21 22  1  0
 22 23  1  0
 23 24  1  1
 23 25  1  0
 25 26  1  0
 26 27  1  0
 27 28  1  6
 27 29  1  0
 29 30  1  6
 30 31  1  0
 31 32  1  0
 32 33  1  6
 32 13  1  0
 32 16  1  0
 29 17  1  0
 27 21  1  0
M  END
>  <MS_ID>  (772) 
MS0806

>  <SMILES>  (772) 
C[C@H](CCC(=O)NNS(=O)(=O)O)[C@H]1CC[C@H]2[C@@H]3[C@H](O)C[C@@H]4C[C@H](O)CC[C@]4(C)[C@H]3CC[C@]12C

>  <Structure_dimension>  (772) 
2D

$$$$
MS0807
     RDKit          2D

 34 37  0  0  0  0  0  0  0  0999 V2000
   -5.8320   -2.3958    0.0000 C   0  0  0  0  0  0  0  0  0  0  0  0
   -4.6621   -1.4570    0.0000 C   0  0  0  0  0  0  0  0  0  0  0  0
   -4.8903    0.0256    0.0000 C   0  0  0  0  0  0  0  0  0  0  0  0
   -6.2882    0.5693    0.0000 C   0  0  0  0  0  0  0  0  0  0  0  0
   -6.5164    2.0518    0.0000 C   0  0  0  0  0  0  0  0  0  0  0  0
   -5.3465    2.9907    0.0000 O   0  0  0  0  0  0  0  0  0  0  0  0
   -7.9144    2.5955    0.0000 N   0  0  0  0  0  0  0  0  0  0  0  0
   -8.1425    4.0781    0.0000 O   0  0  0  0  0  0  0  0  0  0  0  0
   -3.2641   -2.0007    0.0000 C   0  0  0  0  0  0  0  0  0  0  0  0
   -2.8823   -3.4513    0.0000 C   0  0  0  0  0  0  0  0  0  0  0  0
   -1.3847   -3.5364    0.0000 C   0  0  0  0  0  0  0  0  0  0  0  0
   -0.8410   -2.1384    0.0000 C   0  0  0  0  0  0  0  0  0  0  0  0
    0.5617   -1.6070    0.0000 C   0  0  0  0  0  0  0  0  0  0  0  0
    1.7233   -2.5561    0.0000 C   0  0  0  0  0  0  0  0  0  0  0  0
    1.4821   -4.0366    0.0000 O   0  0  0  0  0  0  0  0  0  0  0  0
    3.1260   -2.0247    0.0000 C   0  0  0  0  0  0  0  0  0  0  0  0
    3.3672   -0.5442    0.0000 C   0  0  0  0  0  0  0  0  0  0  0  0
    4.7699   -0.0128    0.0000 C   0  0  0  0  0  0  0  0  0  0  0  0
    5.0111    1.4677    0.0000 C   0  0  0  0  0  0  0  0  0  0  0  0
    6.4138    1.9990    0.0000 O   0  0  0  0  0  0  0  0  0  0  0  0
    7.5753    1.0499    0.0000 S   0  0  0  0  0  0  0  0  0  0  0  0
    6.6262   -0.1116    0.0000 O   0  0  0  0  0  0  0  0  0  0  0  0
    8.5244    2.2115    0.0000 O   0  0  0  0  0  0  0  0  0  0  0  0
    8.7369    0.1008    0.0000 O   0  0  0  0  0  0  0  0  0  0  0  0
    3.8495    2.4168    0.0000 C   0  0  0  0  0  0  0  0  0  0  0  0
    2.4468    1.8854    0.0000 C   0  0  0  0  0  0  0  0  0  0  0  0
    2.2056    0.4049    0.0000 C   0  0  0  0  0  0  0  0  0  0  0  0
    1.0441    1.3540    0.0000 C   0  0  0  0  0  0  0  0  0  0  0  0
    0.8029   -0.1265    0.0000 C   0  0  0  0  0  0  0  0  0  0  0  0
   -0.3587    0.8226    0.0000 C   0  0  0  0  0  0  0  0  0  0  0  0
   -1.7614    0.2912    0.0000 C   0  0  0  0  0  0  0  0  0  0  0  0
   -2.9229    1.2403    0.0000 O   0  0  0  0  0  0  0  0  0  0  0  0
   -2.0025   -1.1893    0.0000 C   0  0  0  0  0  0  0  0  0  0  0  0
   -3.2569   -0.3668    0.0000 C   0  0  0  0  0  0  0  0  0  0  0  0
  2  1  1  6
  2  3  1  0
  3  4  1  0
  4  5  1  0
  5  6  2  0
  5  7  1  0
  7  8  1  0
  2  9  1  0
  9 10  1  6
 10 11  1  0
 12 11  1  6
 12 13  1  0
 13 14  1  1
 14 15  1  1
 14 16  1  0
 17 16  1  1
 17 18  1  0
 18 19  1  0
 19 20  1  1
 20 21  1  0
 21 22  2  0
 21 23  2  0
 21 24  1  0
 19 25  1  0
 25 26  1  0
 26 27  1  0
 27 28  1  6
 27 29  1  0
 29 30  1  6
 30 31  1  0
 31 32  1  1
 31 33  1  0
 33 34  1  6
 33  9  1  0
 33 12  1  0
 29 13  1  0
 27 17  1  0
M  END
>  <MS_ID>  (773) 
MS0807

>  <SMILES>  (773) 
C[C@H](CCC(=O)NO)[C@H]1CC[C@H]2[C@@H]3[C@H](O)C[C@@H]4C[C@H](OS(=O)(=O)O)CC[C@]4(C)[C@H]3C[C@H](O)[C@]12C

>  <Structure_dimension>  (773) 
2D

$$$$
MS0808
     RDKit          2D

 30 33  0  0  0  0  0  0  0  0999 V2000
   -4.5685   -2.6908    0.0000 C   0  0  0  0  0  0  0  0  0  0  0  0
   -3.4838   -1.6548    0.0000 C   0  0  0  0  0  0  0  0  0  0  0  0
   -3.8388   -0.1974    0.0000 C   0  0  0  0  0  0  0  0  0  0  0  0
   -5.2784    0.2240    0.0000 C   0  0  0  0  0  0  0  0  0  0  0  0
   -5.6333    1.6814    0.0000 C   0  0  0  0  0  0  0  0  0  0  0  0
   -4.5486    2.7174    0.0000 O   0  0  0  0  0  0  0  0  0  0  0  0
   -7.0729    2.1027    0.0000 N   0  0  0  0  0  0  0  0  0  0  0  0
   -7.4279    3.5601    0.0000 N   0  0  0  0  0  0  0  0  0  0  0  0
   -2.0442   -2.0761    0.0000 C   0  0  0  0  0  0  0  0  0  0  0  0
   -1.5389   -3.4884    0.0000 C   0  0  0  0  0  0  0  0  0  0  0  0
   -0.0395   -3.4442    0.0000 C   0  0  0  0  0  0  0  0  0  0  0  0
    0.3818   -2.0046    0.0000 C   0  0  0  0  0  0  0  0  0  0  0  0
    1.7336   -1.3544    0.0000 C   0  0  0  0  0  0  0  0  0  0  0  0
    2.9725   -2.1999    0.0000 C   0  0  0  0  0  0  0  0  0  0  0  0
    2.8597   -3.6957    0.0000 O   0  0  0  0  0  0  0  0  0  0  0  0
    4.3243   -1.5497    0.0000 C   0  0  0  0  0  0  0  0  0  0  0  0
    4.4371   -0.0540    0.0000 C   0  0  0  0  0  0  0  0  0  0  0  0
    5.7888    0.5962    0.0000 C   0  0  0  0  0  0  0  0  0  0  0  0
    5.9016    2.0920    0.0000 C   0  0  0  0  0  0  0  0  0  0  0  0
    7.2534    2.7422    0.0000 O   0  0  0  0  0  0  0  0  0  0  0  0
    4.6627    2.9375    0.0000 C   0  0  0  0  0  0  0  0  0  0  0  0
    3.3109    2.2873    0.0000 C   0  0  0  0  0  0  0  0  0  0  0  0
    3.1981    0.7916    0.0000 C   0  0  0  0  0  0  0  0  0  0  0  0
    1.9591    1.6371    0.0000 C   0  0  0  0  0  0  0  0  0  0  0  0
    1.8464    0.1414    0.0000 C   0  0  0  0  0  0  0  0  0  0  0  0
    0.6074    0.9869    0.0000 C   0  0  0  0  0  0  0  0  0  0  0  0
   -0.7444    0.3367    0.0000 C   0  0  0  0  0  0  0  0  0  0  0  0
   -1.9833    1.1823    0.0000 O   0  0  0  0  0  0  0  0  0  0  0  0
   -0.8572   -1.1590    0.0000 C   0  0  0  0  0  0  0  0  0  0  0  0
   -2.1777   -0.4476    0.0000 C   0  0  0  0  0  0  0  0  0  0  0  0
  2  1  1  6
  2  3  1  0
  3  4  1  0
  4  5  1  0
  5  6  2  0
  5  7  1  0
  7  8  1  0
  2  9  1  0
  9 10  1  6
 10 11  1  0
 12 11  1  6
 12 13  1  0
 13 14  1  1
 14 15  1  1
 14 16  1  0
 17 16  1  1
 17 18  1  0
 18 19  1  0
 19 20  2  0
 19 21  1  0
 21 22  1  0
 22 23  1  0
 23 24  1  6
 23 25  1  0
 25 26  1  6
 26 27  1  0
 27 28  1  1
 27 29  1  0
 29 30  1  6
 29  9  1  0
 29 12  1  0
 25 13  1  0
 23 17  1  0
M  END
>  <MS_ID>  (774) 
MS0808

>  <SMILES>  (774) 
C[C@H](CCC(=O)NN)[C@H]1CC[C@H]2[C@@H]3[C@H](O)C[C@@H]4CC(=O)CC[C@]4(C)[C@H]3C[C@H](O)[C@]12C

>  <Structure_dimension>  (774) 
2D

$$$$
MS0809
     RDKit          2D

 39 43  0  0  0  0  0  0  0  0999 V2000
   -7.7534   -2.1938    0.0000 C   0  0  0  0  0  0  0  0  0  0  0  0
   -6.5793   -1.2603    0.0000 C   0  0  0  0  0  0  0  0  0  0  0  0
   -6.8008    0.2233    0.0000 C   0  0  0  0  0  0  0  0  0  0  0  0
   -8.1963    0.7733    0.0000 C   0  0  0  0  0  0  0  0  0  0  0  0
   -8.4177    2.2569    0.0000 C   0  0  0  0  0  0  0  0  0  0  0  0
   -7.2436    3.1904    0.0000 O   0  0  0  0  0  0  0  0  0  0  0  0
   -9.8132    2.8069    0.0000 O   0  0  0  0  0  0  0  0  0  0  0  0
   -5.1838   -1.8103    0.0000 C   0  0  0  0  0  0  0  0  0  0  0  0
   -4.8085   -3.2626    0.0000 C   0  0  0  0  0  0  0  0  0  0  0  0
   -3.3114   -3.3545    0.0000 C   0  0  0  0  0  0  0  0  0  0  0  0
   -2.7613   -1.9590    0.0000 C   0  0  0  0  0  0  0  0  0  0  0  0
   -1.3562   -1.4339    0.0000 C   0  0  0  0  0  0  0  0  0  0  0  0
   -0.1990   -2.3883    0.0000 C   0  0  0  0  0  0  0  0  0  0  0  0
    1.2061   -1.8632    0.0000 C   0  0  0  0  0  0  0  0  0  0  0  0
    1.4540   -0.3839    0.0000 C   0  0  0  0  0  0  0  0  0  0  0  0
    2.8591    0.1412    0.0000 C   0  0  0  0  0  0  0  0  0  0  0  0
    3.1070    1.6206    0.0000 C   0  0  0  0  0  0  0  0  0  0  0  0
    4.5121    2.1456    0.0000 O   0  0  0  0  0  0  0  0  0  0  0  0
    5.6693    1.1912    0.0000 C   0  0  0  0  0  0  0  0  0  0  0  0
    5.4215   -0.2881    0.0000 O   0  0  0  0  0  0  0  0  0  0  0  0
    6.5787   -1.2425    0.0000 C   0  0  0  0  0  0  0  0  0  0  0  0
    6.3309   -2.7219    0.0000 C   0  0  0  0  0  0  0  0  0  0  0  0
    4.9257   -3.2469    0.0000 O   0  0  0  0  0  0  0  0  0  0  0  0
    7.9838   -0.7174    0.0000 C   0  0  0  0  0  0  0  0  0  0  0  0
    9.1411   -1.6718    0.0000 O   0  0  0  0  0  0  0  0  0  0  0  0
    8.2317    0.7619    0.0000 C   0  0  0  0  0  0  0  0  0  0  0  0
    9.6368    1.2870    0.0000 O   0  0  0  0  0  0  0  0  0  0  0  0
    7.0744    1.7163    0.0000 C   0  0  0  0  0  0  0  0  0  0  0  0
    7.3223    3.1957    0.0000 O   0  0  0  0  0  0  0  0  0  0  0  0
    1.9497    2.5749    0.0000 C   0  0  0  0  0  0  0  0  0  0  0  0
    0.5446    2.0499    0.0000 C   0  0  0  0  0  0  0  0  0  0  0  0
    0.2967    0.5705    0.0000 C   0  0  0  0  0  0  0  0  0  0  0  0
   -0.8605    1.5248    0.0000 C   0  0  0  0  0  0  0  0  0  0  0  0
   -1.1084    0.0455    0.0000 C   0  0  0  0  0  0  0  0  0  0  0  0
   -2.2656    0.9998    0.0000 C   0  0  0  0  0  0  0  0  0  0  0  0
   -3.6707    0.4748    0.0000 C   0  0  0  0  0  0  0  0  0  0  0  0
   -4.8280    1.4291    0.0000 O   0  0  0  0  0  0  0  0  0  0  0  0
   -3.9186   -1.0046    0.0000 C   0  0  0  0  0  0  0  0  0  0  0  0
   -5.1693   -0.1765    0.0000 C   0  0  0  0  0  0  0  0  0  0  0  0
  2  1  1  6
  2  3  1  0
  3  4  1  0
  4  5  1  0
  5  6  2  0
  5  7  1  0
  2  8  1  0
  8  9  1  6
  9 10  1  0
 11 10  1  6
 11 12  1  0
 12 13  1  1
 13 14  1  0
 15 14  1  1
 15 16  1  0
 16 17  1  0
 17 18  1  1
 19 18  1  1
 19 20  1  0
 20 21  1  0
 21 22  1  1
 22 23  1  0
 21 24  1  0
 24 25  1  1
 24 26  1  0
 26 27  1  1
 26 28  1  0
 28 29  1  6
 17 30  1  0
 30 31  1  0
 31 32  1  0
 32 33  1  6
 32 34  1  0
 34 35  1  6
 35 36  1  0
 36 37  1  1
 36 38  1  0
 38 39  1  6
 38  8  1  0
 38 11  1  0
 34 12  1  0
 32 15  1  0
 28 19  1  0
M  END
>  <MS_ID>  (775) 
MS0809

>  <SMILES>  (775) 
C[C@H](CCC(=O)O)[C@H]1CC[C@H]2[C@@H]3CC[C@@H]4C[C@H](O[C@@H]5O[C@H](CO)[C@H](O)[C@H](O)[C@H]5O)CC[C@]4(C)[C@H]3C[C@H](O)[C@]12C

>  <Structure_dimension>  (775) 
2D

$$$$
MS0810
     RDKit          2D

 29 32  0  0  0  0  0  0  0  0999 V2000
   -5.0303   -2.1373    0.0000 C   0  0  0  0  0  0  0  0  0  0  0  0
   -3.8594   -1.1998    0.0000 C   0  0  0  0  0  0  0  0  0  0  0  0
   -4.0858    0.2830    0.0000 C   0  0  0  0  0  0  0  0  0  0  0  0
   -5.4831    0.8284    0.0000 C   0  0  0  0  0  0  0  0  0  0  0  0
   -5.7095    2.3112    0.0000 C   0  0  0  0  0  0  0  0  0  0  0  0
   -4.5386    3.2487    0.0000 O   0  0  0  0  0  0  0  0  0  0  0  0
   -7.1069    2.8565    0.0000 O   0  0  0  0  0  0  0  0  0  0  0  0
   -2.4620   -1.7451    0.0000 C   0  0  0  0  0  0  0  0  0  0  0  0
   -2.0818   -3.1961    0.0000 C   0  0  0  0  0  0  0  0  0  0  0  0
   -0.5844   -3.2830    0.0000 C   0  0  0  0  0  0  0  0  0  0  0  0
   -0.0390   -1.8856    0.0000 C   0  0  0  0  0  0  0  0  0  0  0  0
    1.3643   -1.3559    0.0000 C   0  0  0  0  0  0  0  0  0  0  0  0
    2.5248   -2.3063    0.0000 C   0  0  0  0  0  0  0  0  0  0  0  0
    2.2819   -3.7865    0.0000 O   0  0  0  0  0  0  0  0  0  0  0  0
    3.9281   -1.7765    0.0000 C   0  0  0  0  0  0  0  0  0  0  0  0
    4.1710   -0.2963    0.0000 C   0  0  0  0  0  0  0  0  0  0  0  0
    5.5743    0.2334    0.0000 C   0  0  0  0  0  0  0  0  0  0  0  0
    5.8172    1.7136    0.0000 C   0  0  0  0  0  0  0  0  0  0  0  0
    7.2205    2.2434    0.0000 S   0  0  0  0  0  0  0  0  0  0  0  0
    4.6568    2.6641    0.0000 C   0  0  0  0  0  0  0  0  0  0  0  0
    3.2534    2.1343    0.0000 C   0  0  0  0  0  0  0  0  0  0  0  0
    3.0105    0.6541    0.0000 C   0  0  0  0  0  0  0  0  0  0  0  0
    1.8501    1.6046    0.0000 C   0  0  0  0  0  0  0  0  0  0  0  0
    1.6072    0.1244    0.0000 C   0  0  0  0  0  0  0  0  0  0  0  0
    0.4467    1.0748    0.0000 C   0  0  0  0  0  0  0  0  0  0  0  0
   -0.9566    0.5450    0.0000 C   0  0  0  0  0  0  0  0  0  0  0  0
   -2.1170    1.4955    0.0000 O   0  0  0  0  0  0  0  0  0  0  0  0
   -1.1995   -0.9352    0.0000 C   0  0  0  0  0  0  0  0  0  0  0  0
   -2.4529   -0.1112    0.0000 C   0  0  0  0  0  0  0  0  0  0  0  0
  2  1  1  6
  2  3  1  0
  3  4  1  0
  4  5  1  0
  5  6  2  0
  5  7  1  0
  2  8  1  0
  8  9  1  6
  9 10  1  0
 11 10  1  6
 11 12  1  0
 12 13  1  1
 13 14  1  6
 13 15  1  0
 16 15  1  1
 16 17  1  0
 17 18  1  0
 18 19  1  1
 18 20  1  0
 20 21  1  0
 21 22  1  0
 22 23  1  6
 22 24  1  0
 24 25  1  6
 25 26  1  0
 26 27  1  6
 26 28  1  0
 28 29  1  6
 28  8  1  0
 28 11  1  0
 24 12  1  0
 22 16  1  0
M  END
>  <MS_ID>  (776) 
MS0810

>  <SMILES>  (776) 
C[C@H](CCC(=O)O)[C@H]1CC[C@H]2[C@@H]3[C@@H](O)C[C@@H]4C[C@H](S)CC[C@]4(C)[C@H]3C[C@@H](O)[C@]12C

>  <Structure_dimension>  (776) 
2D

$$$$
MS0811
     RDKit          2D

 32 35  0  0  0  0  0  0  0  0999 V2000
   -3.0592   -3.7169    0.0000 C   0  0  0  0  0  0  0  0  0  0  0  0
   -2.1499   -2.5239    0.0000 C   0  0  0  0  0  0  0  0  0  0  0  0
   -2.7284   -1.1399    0.0000 C   0  0  0  0  0  0  0  0  0  0  0  0
   -4.2162   -0.9489    0.0000 C   0  0  0  0  0  0  0  0  0  0  0  0
   -4.7946    0.4350    0.0000 C   0  0  0  0  0  0  0  0  0  0  0  0
   -3.8853    1.6280    0.0000 O   0  0  0  0  0  0  0  0  0  0  0  0
   -6.2824    0.6260    0.0000 C   0  0  0  0  0  0  0  0  0  0  0  0
   -6.8609    2.0100    0.0000 C   0  0  0  0  0  0  0  0  0  0  0  0
   -8.3487    2.2010    0.0000 C   0  0  0  0  0  0  0  0  0  0  0  0
   -9.2580    1.0080    0.0000 O   0  0  0  0  0  0  0  0  0  0  0  0
   -8.9272    3.5850    0.0000 O   0  0  0  0  0  0  0  0  0  0  0  0
   -0.6621   -2.7149    0.0000 C   0  0  0  0  0  0  0  0  0  0  0  0
    0.0579   -4.0308    0.0000 C   0  0  0  0  0  0  0  0  0  0  0  0
    1.5319   -3.7527    0.0000 C   0  0  0  0  0  0  0  0  0  0  0  0
    1.7229   -2.2649    0.0000 C   0  0  0  0  0  0  0  0  0  0  0  0
    2.9563   -1.4114    0.0000 C   0  0  0  0  0  0  0  0  0  0  0  0
    4.3123   -2.0528    0.0000 C   0  0  0  0  0  0  0  0  0  0  0  0
    5.5457   -1.1992    0.0000 C   0  0  0  0  0  0  0  0  0  0  0  0
    5.4232    0.2958    0.0000 C   0  0  0  0  0  0  0  0  0  0  0  0
    6.6567    1.1494    0.0000 C   0  0  0  0  0  0  0  0  0  0  0  0
    6.5342    2.6444    0.0000 C   0  0  0  0  0  0  0  0  0  0  0  0
    7.7676    3.4980    0.0000 O   0  0  0  0  0  0  0  0  0  0  0  0
    5.1782    3.2858    0.0000 C   0  0  0  0  0  0  0  0  0  0  0  0
    3.9448    2.4322    0.0000 C   0  0  0  0  0  0  0  0  0  0  0  0
    4.0673    0.9372    0.0000 C   0  0  0  0  0  0  0  0  0  0  0  0
    2.7113    1.5786    0.0000 C   0  0  0  0  0  0  0  0  0  0  0  0
    2.8338    0.0836    0.0000 C   0  0  0  0  0  0  0  0  0  0  0  0
    1.4779    0.7250    0.0000 C   0  0  0  0  0  0  0  0  0  0  0  0
    0.2444   -0.1285    0.0000 C   0  0  0  0  0  0  0  0  0  0  0  0
   -1.1115    0.5129    0.0000 O   0  0  0  0  0  0  0  0  0  0  0  0
    0.3669   -1.6235    0.0000 C   0  0  0  0  0  0  0  0  0  0  0  0
   -1.0486   -1.1274    0.0000 C   0  0  0  0  0  0  0  0  0  0  0  0
  2  1  1  6
  2  3  1  0
  3  4  1  0
  4  5  1  0
  5  6  2  0
  5  7  1  0
  7  8  1  0
  8  9  1  0
  9 10  2  0
  9 11  1  0
  2 12  1  0
 12 13  1  6
 13 14  1  0
 15 14  1  6
 15 16  1  0
 16 17  1  1
 17 18  1  0
 19 18  1  1
 19 20  1  0
 20 21  1  0
 21 22  2  0
 21 23  1  0
 23 24  1  0
 24 25  1  0
 25 26  1  6
 25 27  1  0
 27 28  1  6
 28 29  1  0
 29 30  1  1
 29 31  1  0
 31 32  1  6
 31 12  1  0
 31 15  1  0
 27 16  1  0
 25 19  1  0
M  END
>  <MS_ID>  (777) 
MS0811

>  <SMILES>  (777) 
C[C@H](CCC(=O)CCC(=O)O)[C@H]1CC[C@H]2[C@@H]3CC[C@@H]4CC(=O)CC[C@]4(C)[C@H]3C[C@H](O)[C@]12C

>  <Structure_dimension>  (777) 
2D

$$$$
MS0812
     RDKit          2D

 32 36  0  0  0  0  0  0  0  0999 V2000
   -6.4932   -1.4350    0.0000 C   0  0  0  0  0  0  0  0  0  0  0  0
   -5.1891   -0.6940    0.0000 C   0  0  0  0  0  0  0  0  0  0  0  0
   -5.1787    0.8060    0.0000 C   0  0  0  0  0  0  0  0  0  0  0  0
   -6.4726    1.5649    0.0000 C   0  0  0  0  0  0  0  0  0  0  0  0
   -6.4622    3.0649    0.0000 C   0  0  0  0  0  0  0  0  0  0  0  0
   -5.1580    3.8059    0.0000 O   0  0  0  0  0  0  0  0  0  0  0  0
   -7.7561    3.8238    0.0000 O   0  0  0  0  0  0  0  0  0  0  0  0
   -3.8952   -1.4529    0.0000 C   0  0  0  0  0  0  0  0  0  0  0  0
   -3.7487   -2.9458    0.0000 C   0  0  0  0  0  0  0  0  0  0  0  0
   -2.2837   -3.2677    0.0000 C   0  0  0  0  0  0  0  0  0  0  0  0
   -1.5248   -1.9739    0.0000 C   0  0  0  0  0  0  0  0  0  0  0  0
   -0.0554   -1.6722    0.0000 C   0  0  0  0  0  0  0  0  0  0  0  0
    0.9406   -2.7938    0.0000 C   0  0  0  0  0  0  0  0  0  0  0  0
    0.4672   -4.2171    0.0000 O   0  0  0  0  0  0  0  0  0  0  0  0
    2.4099   -2.4920    0.0000 C   0  0  0  0  0  0  0  0  0  0  0  0
    2.8833   -1.0687    0.0000 C   0  0  0  0  0  0  0  0  0  0  0  0
    4.3526   -0.7669    0.0000 C   0  0  0  0  0  0  0  0  0  0  0  0
    4.8259    0.6564    0.0000 C   0  0  0  0  0  0  0  0  0  0  0  0
    6.2953    0.9582    0.0000 C   0  0  0  0  0  0  0  0  0  0  0  0
    6.9148    2.3243    0.0000 C   0  0  0  0  0  0  0  0  0  0  0  0
    8.4055    2.1572    0.0000 C   0  0  0  0  0  0  0  0  0  0  0  0
    8.7072    0.6878    0.0000 C   0  0  0  0  0  0  0  0  0  0  0  0
    7.4031   -0.0532    0.0000 O   0  0  0  0  0  0  0  0  0  0  0  0
    3.8300    1.7780    0.0000 C   0  0  0  0  0  0  0  0  0  0  0  0
    2.3606    1.4763    0.0000 C   0  0  0  0  0  0  0  0  0  0  0  0
    1.8873    0.0529    0.0000 C   0  0  0  0  0  0  0  0  0  0  0  0
    0.8913    1.1746    0.0000 C   0  0  0  0  0  0  0  0  0  0  0  0
    0.4179   -0.2488    0.0000 C   0  0  0  0  0  0  0  0  0  0  0  0
   -0.5781    0.8728    0.0000 C   0  0  0  0  0  0  0  0  0  0  0  0
   -2.0474    0.5711    0.0000 C   0  0  0  0  0  0  0  0  0  0  0  0
   -2.5207   -0.8523    0.0000 C   0  0  0  0  0  0  0  0  0  0  0  0
   -3.6285    0.1591    0.0000 C   0  0  0  0  0  0  0  0  0  0  0  0
  2  1  1  6
  2  3  1  0
  3  4  1  0
  4  5  1  0
  5  6  2  0
  5  7  1  0
  2  8  1  0
  8  9  1  6
  9 10  1  0
 11 10  1  6
 11 12  1  0
 12 13  1  1
 13 14  1  1
 13 15  1  0
 16 15  1  1
 16 17  1  0
 17 18  1  0
 18 19  1  1
 19 20  2  0
 20 21  1  0
 21 22  2  0
 22 23  1  0
 18 24  1  0
 24 25  1  0
 25 26  1  0
 26 27  1  6
 26 28  1  0
 28 29  1  6
 29 30  1  0
 30 31  1  0
 31 32  1  6
 31  8  1  0
 31 11  1  0
 28 12  1  0
 26 16  1  0
 23 19  1  0
M  END
>  <MS_ID>  (778) 
MS0812

>  <SMILES>  (778) 
C[C@H](CCC(=O)O)[C@H]1CC[C@H]2[C@@H]3[C@H](O)C[C@@H]4C[C@H](c5ccco5)CC[C@]4(C)[C@H]3CC[C@]12C

>  <Structure_dimension>  (778) 
2D

$$$$
MS0813
     RDKit          2D

 33 36  0  0  0  0  0  0  0  0999 V2000
   -2.4823   -4.2429    0.0000 C   0  0  0  0  0  0  0  0  0  0  0  0
   -1.6859   -2.9718    0.0000 C   0  0  0  0  0  0  0  0  0  0  0  0
   -2.3885   -1.6465    0.0000 C   0  0  0  0  0  0  0  0  0  0  0  0
   -3.8876   -1.5924    0.0000 C   0  0  0  0  0  0  0  0  0  0  0  0
   -4.5902   -0.2671    0.0000 C   0  0  0  0  0  0  0  0  0  0  0  0
   -3.7938    1.0040    0.0000 O   0  0  0  0  0  0  0  0  0  0  0  0
   -6.0892   -0.2130    0.0000 N   0  0  0  0  0  0  0  0  0  0  0  0
   -6.7918    1.1123    0.0000 C   0  0  0  0  0  0  0  0  0  0  0  0
   -8.2908    1.1664    0.0000 C   0  0  0  0  0  0  0  0  0  0  0  0
   -8.9935    2.4917    0.0000 O   0  0  0  0  0  0  0  0  0  0  0  0
   -5.9954    2.3834    0.0000 C   0  0  0  0  0  0  0  0  0  0  0  0
   -4.4964    2.3293    0.0000 O   0  0  0  0  0  0  0  0  0  0  0  0
   -6.6980    3.7087    0.0000 O   0  0  0  0  0  0  0  0  0  0  0  0
   -0.1869   -3.0259    0.0000 C   0  0  0  0  0  0  0  0  0  0  0  0
    0.6504   -4.2705    0.0000 C   0  0  0  0  0  0  0  0  0  0  0  0
    2.0928   -3.8588    0.0000 C   0  0  0  0  0  0  0  0  0  0  0  0
    2.1469   -2.3597    0.0000 C   0  0  0  0  0  0  0  0  0  0  0  0
    3.2972   -1.3969    0.0000 C   0  0  0  0  0  0  0  0  0  0  0  0
    4.7061   -1.9116    0.0000 C   0  0  0  0  0  0  0  0  0  0  0  0
    5.8563   -0.9488    0.0000 C   0  0  0  0  0  0  0  0  0  0  0  0
    5.5976    0.5287    0.0000 C   0  0  0  0  0  0  0  0  0  0  0  0
    6.7478    1.4915    0.0000 C   0  0  0  0  0  0  0  0  0  0  0  0
    6.4891    2.9690    0.0000 C   0  0  0  0  0  0  0  0  0  0  0  0
    7.6393    3.9318    0.0000 O   0  0  0  0  0  0  0  0  0  0  0  0
    5.0802    3.4837    0.0000 C   0  0  0  0  0  0  0  0  0  0  0  0
    3.9300    2.5209    0.0000 C   0  0  0  0  0  0  0  0  0  0  0  0
    4.1887    1.0434    0.0000 C   0  0  0  0  0  0  0  0  0  0  0  0
    2.7797    1.5581    0.0000 C   0  0  0  0  0  0  0  0  0  0  0  0
    3.0385    0.0806    0.0000 C   0  0  0  0  0  0  0  0  0  0  0  0
    1.6295    0.5953    0.0000 C   0  0  0  0  0  0  0  0  0  0  0  0
    0.4793   -0.3675    0.0000 C   0  0  0  0  0  0  0  0  0  0  0  0
    0.7380   -1.8450    0.0000 C   0  0  0  0  0  0  0  0  0  0  0  0
   -0.7170   -1.4804    0.0000 C   0  0  0  0  0  0  0  0  0  0  0  0
  2  1  1  6
  2  3  1  0
  3  4  1  0
  4  5  1  0
  5  6  2  0
  5  7  1  0
  7  8  1  0
  8  9  1  1
  9 10  1  0
  8 11  1  0
 11 12  2  0
 11 13  1  0
  2 14  1  0
 14 15  1  6
 15 16  1  0
 17 16  1  6
 17 18  1  0
 18 19  1  1
 19 20  1  0
 21 20  1  1
 21 22  1  0
 22 23  1  0
 23 24  2  0
 23 25  1  0
 25 26  1  0
 26 27  1  0
 27 28  1  6
 27 29  1  0
 29 30  1  6
 30 31  1  0
 31 32  1  0
 32 33  1  6
 32 14  1  0
 32 17  1  0
 29 18  1  0
 27 21  1  0
M  END
>  <MS_ID>  (779) 
MS0813

>  <SMILES>  (779) 
C[C@H](CCC(=O)N[C@@H](CO)C(=O)O)[C@H]1CC[C@H]2[C@@H]3CC[C@@H]4CC(=O)CC[C@]4(C)[C@H]3CC[C@]12C

>  <Structure_dimension>  (779) 
2D

$$$$
MS0814
     RDKit          2D

 30 33  0  0  0  0  0  0  0  0999 V2000
   -4.1099   -3.1124    0.0000 C   0  0  0  0  0  0  0  0  0  0  0  0
   -3.1089   -1.9953    0.0000 C   0  0  0  0  0  0  0  0  0  0  0  0
   -3.5759   -0.5698    0.0000 C   0  0  0  0  0  0  0  0  0  0  0  0
   -5.0438   -0.2615    0.0000 C   0  0  0  0  0  0  0  0  0  0  0  0
   -5.5108    1.1640    0.0000 C   0  0  0  0  0  0  0  0  0  0  0  0
   -4.5097    2.2811    0.0000 O   0  0  0  0  0  0  0  0  0  0  0  0
   -6.9787    1.4724    0.0000 C   0  0  0  0  0  0  0  0  0  0  0  0
   -7.4457    2.8978    0.0000 C   0  0  0  0  0  0  0  0  0  0  0  0
   -8.9136    3.2062    0.0000 O   0  0  0  0  0  0  0  0  0  0  0  0
   -1.6409   -2.3036    0.0000 C   0  0  0  0  0  0  0  0  0  0  0  0
   -1.0276   -3.6725    0.0000 C   0  0  0  0  0  0  0  0  0  0  0  0
    0.4638   -3.5121    0.0000 C   0  0  0  0  0  0  0  0  0  0  0  0
    0.7722   -2.0441    0.0000 C   0  0  0  0  0  0  0  0  0  0  0  0
    2.0694   -1.2910    0.0000 C   0  0  0  0  0  0  0  0  0  0  0  0
    3.3703   -2.0379    0.0000 C   0  0  0  0  0  0  0  0  0  0  0  0
    3.3739   -3.5379    0.0000 O   0  0  0  0  0  0  0  0  0  0  0  0
    4.6675   -1.2848    0.0000 C   0  0  0  0  0  0  0  0  0  0  0  0
    4.6639    0.2152    0.0000 C   0  0  0  0  0  0  0  0  0  0  0  0
    5.9611    0.9683    0.0000 C   0  0  0  0  0  0  0  0  0  0  0  0
    5.9575    2.4683    0.0000 C   0  0  0  0  0  0  0  0  0  0  0  0
    7.2548    3.2214    0.0000 O   0  0  0  0  0  0  0  0  0  0  0  0
    4.6567    3.2152    0.0000 C   0  0  0  0  0  0  0  0  0  0  0  0
    3.3595    2.4621    0.0000 C   0  0  0  0  0  0  0  0  0  0  0  0
    3.3631    0.9621    0.0000 C   0  0  0  0  0  0  0  0  0  0  0  0
    2.0622    1.7090    0.0000 C   0  0  0  0  0  0  0  0  0  0  0  0
    2.0658    0.2090    0.0000 C   0  0  0  0  0  0  0  0  0  0  0  0
    0.7650    0.9559    0.0000 C   0  0  0  0  0  0  0  0  0  0  0  0
   -0.5322    0.2027    0.0000 C   0  0  0  0  0  0  0  0  0  0  0  0
   -0.5286   -1.2973    0.0000 C   0  0  0  0  0  0  0  0  0  0  0  0
   -1.9004   -0.6904    0.0000 C   0  0  0  0  0  0  0  0  0  0  0  0
  2  1  1  6
  2  3  1  0
  3  4  1  0
  4  5  1  0
  5  6  2  0
  5  7  1  0
  7  8  1  0
  8  9  1  0
  2 10  1  0
 10 11  1  6
 11 12  1  0
 13 12  1  6
 13 14  1  0
 14 15  1  1
 15 16  1  1
 15 17  1  0
 18 17  1  1
 18 19  1  0
 19 20  1  0
 20 21  2  0
 20 22  1  0
 22 23  1  0
 23 24  1  0
 24 25  1  6
 24 26  1  0
 26 27  1  6
 27 28  1  0
 28 29  1  0
 29 30  1  6
 29 10  1  0
 29 13  1  0
 26 14  1  0
 24 18  1  0
M  END
>  <MS_ID>  (780) 
MS0814

>  <SMILES>  (780) 
C[C@H](CCC(=O)CCO)[C@H]1CC[C@H]2[C@@H]3[C@H](O)C[C@@H]4CC(=O)CC[C@]4(C)[C@H]3CC[C@]12C

>  <Structure_dimension>  (780) 
2D

$$$$
MS0815
     RDKit          2D

 30 33  0  0  0  0  0  0  0  0999 V2000
   -3.0505   -3.6493    0.0000 C   0  0  0  0  0  0  0  0  0  0  0  0
   -2.2252   -2.3967    0.0000 C   0  0  0  0  0  0  0  0  0  0  0  0
   -2.8973   -1.0557    0.0000 C   0  0  0  0  0  0  0  0  0  0  0  0
   -4.3947   -0.9673    0.0000 C   0  0  0  0  0  0  0  0  0  0  0  0
   -5.0668    0.3737    0.0000 C   0  0  0  0  0  0  0  0  0  0  0  0
   -4.2415    1.6263    0.0000 O   0  0  0  0  0  0  0  0  0  0  0  0
   -6.5642    0.4622    0.0000 O   0  0  0  0  0  0  0  0  0  0  0  0
   -7.2363    1.8032    0.0000 C   0  0  0  0  0  0  0  0  0  0  0  0
   -8.7337    1.8916    0.0000 C   0  0  0  0  0  0  0  0  0  0  0  0
   -9.4058    3.2326    0.0000 N   0  0  0  0  0  0  0  0  0  0  0  0
   -0.7278   -2.4852    0.0000 C   0  0  0  0  0  0  0  0  0  0  0  0
    0.0808   -3.7486    0.0000 C   0  0  0  0  0  0  0  0  0  0  0  0
    1.5322   -3.3700    0.0000 C   0  0  0  0  0  0  0  0  0  0  0  0
    1.6207   -1.8726    0.0000 C   0  0  0  0  0  0  0  0  0  0  0  0
    2.7926   -0.9364    0.0000 C   0  0  0  0  0  0  0  0  0  0  0  0
    4.1894   -1.4832    0.0000 C   0  0  0  0  0  0  0  0  0  0  0  0
    4.4142   -2.9662    0.0000 O   0  0  0  0  0  0  0  0  0  0  0  0
    5.3613   -0.5470    0.0000 C   0  0  0  0  0  0  0  0  0  0  0  0
    5.1365    0.9361    0.0000 C   0  0  0  0  0  0  0  0  0  0  0  0
    6.3085    1.8723    0.0000 C   0  0  0  0  0  0  0  0  0  0  0  0
    6.0837    3.3554    0.0000 C   0  0  0  0  0  0  0  0  0  0  0  0
    4.6869    3.9022    0.0000 C   0  0  0  0  0  0  0  0  0  0  0  0
    3.5149    2.9660    0.0000 C   0  0  0  0  0  0  0  0  0  0  0  0
    3.7398    1.4829    0.0000 C   0  0  0  0  0  0  0  0  0  0  0  0
    2.3430    2.0298    0.0000 C   0  0  0  0  0  0  0  0  0  0  0  0
    2.5678    0.5467    0.0000 C   0  0  0  0  0  0  0  0  0  0  0  0
    1.1710    1.0935    0.0000 C   0  0  0  0  0  0  0  0  0  0  0  0
   -0.0009    0.1573    0.0000 C   0  0  0  0  0  0  0  0  0  0  0  0
    0.2239   -1.3257    0.0000 C   0  0  0  0  0  0  0  0  0  0  0  0
   -1.2224   -0.9279    0.0000 C   0  0  0  0  0  0  0  0  0  0  0  0
  2  1  1  6
  2  3  1  0
  3  4  1  0
  4  5  1  0
  5  6  2  0
  5  7  1  0
  7  8  1  0
  8  9  1  0
  9 10  1  0
  2 11  1  0
 11 12  1  6
 12 13  1  0
 14 13  1  6
 14 15  1  0
 15 16  1  1
 16 17  1  1
 16 18  1  0
 19 18  1  1
 19 20  1  0
 20 21  1  0
 21 22  1  0
 22 23  1  0
 23 24  1  0
 24 25  1  6
 24 26  1  0
 26 27  1  6
 27 28  1  0
 28 29  1  0
 29 30  1  6
 29 11  1  0
 29 14  1  0
 26 15  1  0
 24 19  1  0
M  END
>  <MS_ID>  (781) 
MS0815

>  <SMILES>  (781) 
C[C@H](CCC(=O)OCCN)[C@H]1CC[C@H]2[C@@H]3[C@H](O)C[C@@H]4CCCC[C@]4(C)[C@H]3CC[C@]12C

>  <Structure_dimension>  (781) 
2D

$$$$
MS0816
     RDKit          2D

 30 33  0  0  0  0  0  0  0  0999 V2000
   -5.8176   -1.7103    0.0000 C   0  0  0  0  0  0  0  0  0  0  0  0
   -4.5630   -0.8881    0.0000 C   0  0  0  0  0  0  0  0  0  0  0  0
   -4.6476    0.6095    0.0000 C   0  0  0  0  0  0  0  0  0  0  0  0
   -5.9869    1.2849    0.0000 C   0  0  0  0  0  0  0  0  0  0  0  0
   -6.0716    2.7826    0.0000 C   0  0  0  0  0  0  0  0  0  0  0  0
   -4.8170    3.6047    0.0000 O   0  0  0  0  0  0  0  0  0  0  0  0
   -7.4109    3.4580    0.0000 O   0  0  0  0  0  0  0  0  0  0  0  0
   -3.2237   -1.5636    0.0000 C   0  0  0  0  0  0  0  0  0  0  0  0
   -2.9829   -3.0442    0.0000 C   0  0  0  0  0  0  0  0  0  0  0  0
   -1.5004   -3.2727    0.0000 C   0  0  0  0  0  0  0  0  0  0  0  0
   -0.8249   -1.9334    0.0000 C   0  0  0  0  0  0  0  0  0  0  0  0
    0.6223   -1.5392    0.0000 C   0  0  0  0  0  0  0  0  0  0  0  0
    1.6874   -2.5955    0.0000 C   0  0  0  0  0  0  0  0  0  0  0  0
    1.3051   -4.0460    0.0000 O   0  0  0  0  0  0  0  0  0  0  0  0
    3.1346   -2.2013    0.0000 C   0  0  0  0  0  0  0  0  0  0  0  0
    3.5169   -0.7508    0.0000 C   0  0  0  0  0  0  0  0  0  0  0  0
    4.9642   -0.3567    0.0000 C   0  0  0  0  0  0  0  0  0  0  0  0
    5.3464    1.0938    0.0000 C   0  0  0  0  0  0  0  0  0  0  0  0
    6.7937    1.4880    0.0000 N   0  0  0  0  0  0  0  0  0  0  0  0
    7.8587    0.4317    0.0000 C   0  0  0  0  0  0  0  0  0  0  0  0
    7.1760    2.9385    0.0000 C   0  0  0  0  0  0  0  0  0  0  0  0
    4.2814    2.1501    0.0000 C   0  0  0  0  0  0  0  0  0  0  0  0
    2.8341    1.7559    0.0000 C   0  0  0  0  0  0  0  0  0  0  0  0
    2.4519    0.3054    0.0000 C   0  0  0  0  0  0  0  0  0  0  0  0
    1.3869    1.3617    0.0000 C   0  0  0  0  0  0  0  0  0  0  0  0
    1.0046   -0.0888    0.0000 C   0  0  0  0  0  0  0  0  0  0  0  0
   -0.0604    0.9675    0.0000 C   0  0  0  0  0  0  0  0  0  0  0  0
   -1.5077    0.5733    0.0000 C   0  0  0  0  0  0  0  0  0  0  0  0
   -1.8900   -0.8771    0.0000 C   0  0  0  0  0  0  0  0  0  0  0  0
   -3.0596    0.0620    0.0000 C   0  0  0  0  0  0  0  0  0  0  0  0
  2  1  1  6
  2  3  1  0
  3  4  1  0
  4  5  1  0
  5  6  2  0
  5  7  1  0
  2  8  1  0
  8  9  1  6
  9 10  1  0
 11 10  1  6
 11 12  1  0
 12 13  1  1
 13 14  1  6
 13 15  1  0
 16 15  1  1
 16 17  1  0
 17 18  1  0
 18 19  1  1
 19 20  1  0
 19 21  1  0
 18 22  1  0
 22 23  1  0
 23 24  1  0
 24 25  1  6
 24 26  1  0
 26 27  1  6
 27 28  1  0
 28 29  1  0
 29 30  1  6
 29  8  1  0
 29 11  1  0
 26 12  1  0
 24 16  1  0
M  END
>  <MS_ID>  (782) 
MS0816

>  <SMILES>  (782) 
C[C@H](CCC(=O)O)[C@H]1CC[C@H]2[C@@H]3[C@@H](O)C[C@@H]4C[C@H](N(C)C)CC[C@]4(C)[C@H]3CC[C@]12C

>  <Structure_dimension>  (782) 
2D

$$$$
MS0817
     RDKit          2D

 33 36  0  0  0  0  0  0  0  0999 V2000
  -10.7745    2.9828    0.0000 C   0  0  0  0  0  0  0  0  0  0  0  0
   -9.2765    2.9064    0.0000 C   0  0  0  0  0  0  0  0  0  0  0  0
   -8.5936    1.5708    0.0000 C   0  0  0  0  0  0  0  0  0  0  0  0
   -7.0956    1.4944    0.0000 C   0  0  0  0  0  0  0  0  0  0  0  0
   -6.4128    0.1588    0.0000 N   0  0  0  0  0  0  0  0  0  0  0  0
   -4.9147    0.0823    0.0000 C   0  0  0  0  0  0  0  0  0  0  0  0
   -4.0995    1.3415    0.0000 O   0  0  0  0  0  0  0  0  0  0  0  0
   -4.2319   -1.2532    0.0000 C   0  0  0  0  0  0  0  0  0  0  0  0
   -2.7339   -1.3297    0.0000 C   0  0  0  0  0  0  0  0  0  0  0  0
   -2.0510   -2.6653    0.0000 C   0  0  0  0  0  0  0  0  0  0  0  0
   -2.8663   -3.9244    0.0000 C   0  0  0  0  0  0  0  0  0  0  0  0
   -0.5530   -2.7417    0.0000 C   0  0  0  0  0  0  0  0  0  0  0  0
    0.2657   -3.9986    0.0000 C   0  0  0  0  0  0  0  0  0  0  0  0
    1.7140   -3.6084    0.0000 C   0  0  0  0  0  0  0  0  0  0  0  0
    1.7905   -2.1103    0.0000 C   0  0  0  0  0  0  0  0  0  0  0  0
    2.9549   -1.1648    0.0000 C   0  0  0  0  0  0  0  0  0  0  0  0
    4.3560   -1.7004    0.0000 C   0  0  0  0  0  0  0  0  0  0  0  0
    4.5927   -3.1816    0.0000 O   0  0  0  0  0  0  0  0  0  0  0  0
    5.5204   -0.7548    0.0000 C   0  0  0  0  0  0  0  0  0  0  0  0
    5.2838    0.7264    0.0000 C   0  0  0  0  0  0  0  0  0  0  0  0
    6.4482    1.6720    0.0000 C   0  0  0  0  0  0  0  0  0  0  0  0
    6.2115    3.1532    0.0000 C   0  0  0  0  0  0  0  0  0  0  0  0
    7.3759    4.0988    0.0000 O   0  0  0  0  0  0  0  0  0  0  0  0
    4.8104    3.6888    0.0000 C   0  0  0  0  0  0  0  0  0  0  0  0
    3.6460    2.7432    0.0000 C   0  0  0  0  0  0  0  0  0  0  0  0
    3.8827    1.2620    0.0000 C   0  0  0  0  0  0  0  0  0  0  0  0
    2.4816    1.7977    0.0000 C   0  0  0  0  0  0  0  0  0  0  0  0
    2.7182    0.3165    0.0000 C   0  0  0  0  0  0  0  0  0  0  0  0
    1.3171    0.8521    0.0000 C   0  0  0  0  0  0  0  0  0  0  0  0
    0.1527   -0.0935    0.0000 C   0  0  0  0  0  0  0  0  0  0  0  0
   -1.2484    0.4421    0.0000 O   0  0  0  0  0  0  0  0  0  0  0  0
    0.3894   -1.5747    0.0000 C   0  0  0  0  0  0  0  0  0  0  0  0
   -1.0600   -1.1885    0.0000 C   0  0  0  0  0  0  0  0  0  0  0  0
  1  2  1  0
  2  3  1  0
  3  4  1  0
  4  5  1  0
  5  6  1  0
  6  7  2  0
  6  8  1  0
  8  9  1  0
  9 10  1  0
 10 11  1  6
 10 12  1  0
 12 13  1  6
 13 14  1  0
 15 14  1  6
 15 16  1  0
 16 17  1  1
 17 18  1  1
 17 19  1  0
 20 19  1  1
 20 21  1  0
 21 22  1  0
 22 23  1  1
 22 24  1  0
 24 25  1  0
 25 26  1  0
 26 27  1  6
 26 28  1  0
 28 29  1  6
 29 30  1  0
 30 31  1  1
 30 32  1  0
 32 33  1  6
 32 12  1  0
 32 15  1  0
 28 16  1  0
 26 20  1  0
M  END
>  <MS_ID>  (783) 
MS0817

>  <SMILES>  (783) 
CCCCNC(=O)CC[C@@H](C)[C@H]1CC[C@H]2[C@@H]3[C@H](O)C[C@@H]4C[C@H](O)CC[C@]4(C)[C@H]3C[C@H](O)[C@]12C

>  <Structure_dimension>  (783) 
2D

$$$$
MS0818
     RDKit          2D

 27 30  0  0  0  0  0  0  0  0999 V2000
   -4.7316   -2.2462    0.0000 C   0  0  0  0  0  0  0  0  0  0  0  0
   -3.6106   -1.2495    0.0000 C   0  0  0  0  0  0  0  0  0  0  0  0
   -3.9133    0.2196    0.0000 C   0  0  0  0  0  0  0  0  0  0  0  0
   -5.3370    0.6920    0.0000 C   0  0  0  0  0  0  0  0  0  0  0  0
   -5.6397    2.1612    0.0000 C   0  0  0  0  0  0  0  0  0  0  0  0
   -7.0634    2.6336    0.0000 O   0  0  0  0  0  0  0  0  0  0  0  0
   -4.5188    3.1579    0.0000 S   0  0  0  0  0  0  0  0  0  0  0  0
   -2.1870   -1.7219    0.0000 C   0  0  0  0  0  0  0  0  0  0  0  0
   -1.7323   -3.1514    0.0000 C   0  0  0  0  0  0  0  0  0  0  0  0
   -0.2324   -3.1607    0.0000 C   0  0  0  0  0  0  0  0  0  0  0  0
    0.2401   -1.7371    0.0000 C   0  0  0  0  0  0  0  0  0  0  0  0
    1.6141   -1.1355    0.0000 C   0  0  0  0  0  0  0  0  0  0  0  0
    2.8222   -2.0247    0.0000 C   0  0  0  0  0  0  0  0  0  0  0  0
    2.6561   -3.5155    0.0000 O   0  0  0  0  0  0  0  0  0  0  0  0
    4.1962   -1.4232    0.0000 C   0  0  0  0  0  0  0  0  0  0  0  0
    4.3623    0.0676    0.0000 C   0  0  0  0  0  0  0  0  0  0  0  0
    5.7364    0.6691    0.0000 C   0  0  0  0  0  0  0  0  0  0  0  0
    5.9025    2.1599    0.0000 C   0  0  0  0  0  0  0  0  0  0  0  0
    4.6945    3.0491    0.0000 C   0  0  0  0  0  0  0  0  0  0  0  0
    3.3204    2.4476    0.0000 C   0  0  0  0  0  0  0  0  0  0  0  0
    3.1543    0.9568    0.0000 C   0  0  0  0  0  0  0  0  0  0  0  0
    1.9463    1.8460    0.0000 C   0  0  0  0  0  0  0  0  0  0  0  0
    1.7802    0.3553    0.0000 C   0  0  0  0  0  0  0  0  0  0  0  0
    0.5722    1.2445    0.0000 C   0  0  0  0  0  0  0  0  0  0  0  0
   -0.8019    0.6429    0.0000 C   0  0  0  0  0  0  0  0  0  0  0  0
   -0.9680   -0.8478    0.0000 C   0  0  0  0  0  0  0  0  0  0  0  0
   -2.2623   -0.0897    0.0000 C   0  0  0  0  0  0  0  0  0  0  0  0
  2  1  1  6
  2  3  1  0
  3  4  1  0
  4  5  1  0
  5  6  2  0
  5  7  1  0
  2  8  1  0
  8  9  1  6
  9 10  1  0
 11 10  1  6
 11 12  1  0
 12 13  1  1
 13 14  1  6
 13 15  1  0
 16 15  1  1
 16 17  1  0
 17 18  1  0
 18 19  1  0
 19 20  1  0
 20 21  1  0
 21 22  1  6
 21 23  1  0
 23 24  1  6
 24 25  1  0
 25 26  1  0
 26 27  1  6
 26  8  1  0
 26 11  1  0
 23 12  1  0
 21 16  1  0
M  END
>  <MS_ID>  (784) 
MS0818

>  <SMILES>  (784) 
C[C@H](CCC(=O)S)[C@H]1CC[C@H]2[C@@H]3[C@@H](O)C[C@@H]4CCCC[C@]4(C)[C@H]3CC[C@]12C

>  <Structure_dimension>  (784) 
2D

$$$$
MS0819
     RDKit          2D

 30 33  0  0  0  0  0  0  0  0999 V2000
   -5.0361   -2.2421    0.0000 C   0  0  0  0  0  0  0  0  0  0  0  0
   -3.9151   -1.2454    0.0000 C   0  0  0  0  0  0  0  0  0  0  0  0
   -4.2177    0.2237    0.0000 C   0  0  0  0  0  0  0  0  0  0  0  0
   -5.6413    0.6963    0.0000 C   0  0  0  0  0  0  0  0  0  0  0  0
   -5.9439    2.1654    0.0000 C   0  0  0  0  0  0  0  0  0  0  0  0
   -4.8228    3.1621    0.0000 O   0  0  0  0  0  0  0  0  0  0  0  0
   -7.3675    2.6380    0.0000 O   0  0  0  0  0  0  0  0  0  0  0  0
   -2.4915   -1.7180    0.0000 C   0  0  0  0  0  0  0  0  0  0  0  0
   -2.0370   -3.1475    0.0000 C   0  0  0  0  0  0  0  0  0  0  0  0
   -0.5370   -3.1570    0.0000 C   0  0  0  0  0  0  0  0  0  0  0  0
   -0.0645   -1.7333    0.0000 C   0  0  0  0  0  0  0  0  0  0  0  0
    1.3097   -1.1319    0.0000 C   0  0  0  0  0  0  0  0  0  0  0  0
    2.5176   -2.0213    0.0000 C   0  0  0  0  0  0  0  0  0  0  0  0
    2.3514   -3.5120    0.0000 C   0  0  0  0  0  0  0  0  0  0  0  0
    3.5593   -4.4014    0.0000 O   0  0  0  0  0  0  0  0  0  0  0  0
    3.8918   -1.4198    0.0000 C   0  0  0  0  0  0  0  0  0  0  0  0
    4.0580    0.0709    0.0000 C   0  0  0  0  0  0  0  0  0  0  0  0
    5.4321    0.6723    0.0000 C   0  0  0  0  0  0  0  0  0  0  0  0
    5.5984    2.1631    0.0000 C   0  0  0  0  0  0  0  0  0  0  0  0
    6.9725    2.7645    0.0000 O   0  0  0  0  0  0  0  0  0  0  0  0
    4.3904    3.0524    0.0000 C   0  0  0  0  0  0  0  0  0  0  0  0
    3.0163    2.4510    0.0000 C   0  0  0  0  0  0  0  0  0  0  0  0
    2.8501    0.9603    0.0000 C   0  0  0  0  0  0  0  0  0  0  0  0
    1.6421    1.8496    0.0000 C   0  0  0  0  0  0  0  0  0  0  0  0
    1.4759    0.3588    0.0000 C   0  0  0  0  0  0  0  0  0  0  0  0
    0.2680    1.2482    0.0000 C   0  0  0  0  0  0  0  0  0  0  0  0
   -1.1062    0.6468    0.0000 C   0  0  0  0  0  0  0  0  0  0  0  0
   -2.3141    1.5361    0.0000 O   0  0  0  0  0  0  0  0  0  0  0  0
   -1.2724   -0.8440    0.0000 C   0  0  0  0  0  0  0  0  0  0  0  0
   -2.5667   -0.0858    0.0000 C   0  0  0  0  0  0  0  0  0  0  0  0
  2  1  1  6
  2  3  1  0
  3  4  1  0
  4  5  1  0
  5  6  2  0
  5  7  1  0
  2  8  1  0
  8  9  1  6
  9 10  1  0
 11 10  1  6
 11 12  1  0
 12 13  1  1
 13 14  1  6
 14 15  1  0
 13 16  1  0
 17 16  1  1
 17 18  1  0
 18 19  1  0
 19 20  1  1
 19 21  1  0
 21 22  1  0
 22 23  1  0
 23 24  1  6
 23 25  1  0
 25 26  1  6
 26 27  1  0
 27 28  1  6
 27 29  1  0
 29 30  1  6
 29  8  1  0
 29 11  1  0
 25 12  1  0
 23 17  1  0
M  END
>  <MS_ID>  (785) 
MS0819

>  <SMILES>  (785) 
C[C@H](CCC(=O)O)[C@H]1CC[C@H]2[C@@H]3[C@@H](CO)C[C@@H]4C[C@H](O)CC[C@]4(C)[C@H]3C[C@@H](O)[C@]12C

>  <Structure_dimension>  (785) 
2D

$$$$
MS0820
     RDKit          2D

 29 32  0  0  0  0  0  0  0  0999 V2000
   -5.0303   -2.1373    0.0000 C   0  0  0  0  0  0  0  0  0  0  0  0
   -3.8594   -1.1998    0.0000 C   0  0  0  0  0  0  0  0  0  0  0  0
   -4.0858    0.2830    0.0000 C   0  0  0  0  0  0  0  0  0  0  0  0
   -5.4831    0.8284    0.0000 C   0  0  0  0  0  0  0  0  0  0  0  0
   -5.7095    2.3112    0.0000 C   0  0  0  0  0  0  0  0  0  0  0  0
   -4.5386    3.2487    0.0000 O   0  0  0  0  0  0  0  0  0  0  0  0
   -7.1069    2.8565    0.0000 O   0  0  0  0  0  0  0  0  0  0  0  0
   -2.4620   -1.7451    0.0000 C   0  0  0  0  0  0  0  0  0  0  0  0
   -2.0818   -3.1961    0.0000 C   0  0  0  0  0  0  0  0  0  0  0  0
   -0.5844   -3.2830    0.0000 C   0  0  0  0  0  0  0  0  0  0  0  0
   -0.0390   -1.8856    0.0000 C   0  0  0  0  0  0  0  0  0  0  0  0
    1.3643   -1.3559    0.0000 C   0  0  0  0  0  0  0  0  0  0  0  0
    2.5248   -2.3063    0.0000 C   0  0  0  0  0  0  0  0  0  0  0  0
    2.2819   -3.7865    0.0000 O   0  0  0  0  0  0  0  0  0  0  0  0
    3.9281   -1.7765    0.0000 C   0  0  0  0  0  0  0  0  0  0  0  0
    4.1710   -0.2963    0.0000 C   0  0  0  0  0  0  0  0  0  0  0  0
    5.5743    0.2334    0.0000 C   0  0  0  0  0  0  0  0  0  0  0  0
    5.8172    1.7136    0.0000 C   0  0  0  0  0  0  0  0  0  0  0  0
    7.2205    2.2434    0.0000 O   0  0  0  0  0  0  0  0  0  0  0  0
    4.6568    2.6641    0.0000 C   0  0  0  0  0  0  0  0  0  0  0  0
    3.2534    2.1343    0.0000 C   0  0  0  0  0  0  0  0  0  0  0  0
    3.0105    0.6541    0.0000 C   0  0  0  0  0  0  0  0  0  0  0  0
    1.8501    1.6046    0.0000 C   0  0  0  0  0  0  0  0  0  0  0  0
    1.6072    0.1244    0.0000 C   0  0  0  0  0  0  0  0  0  0  0  0
    0.4467    1.0748    0.0000 C   0  0  0  0  0  0  0  0  0  0  0  0
   -0.9566    0.5450    0.0000 C   0  0  0  0  0  0  0  0  0  0  0  0
   -2.1170    1.4955    0.0000 O   0  0  0  0  0  0  0  0  0  0  0  0
   -1.1995   -0.9352    0.0000 C   0  0  0  0  0  0  0  0  0  0  0  0
   -2.4529   -0.1112    0.0000 C   0  0  0  0  0  0  0  0  0  0  0  0
  2  1  1  6
  2  3  1  0
  3  4  1  0
  4  5  1  0
  5  6  2  0
  5  7  1  0
  2  8  1  0
  8  9  1  6
  9 10  1  0
 11 10  1  6
 11 12  1  0
 12 13  1  1
 13 14  2  0
 13 15  1  0
 16 15  1  1
 16 17  1  0
 17 18  1  0
 18 19  1  1
 18 20  1  0
 20 21  1  0
 21 22  1  0
 22 23  1  6
 22 24  1  0
 24 25  1  6
 25 26  1  0
 26 27  1  6
 26 28  1  0
 28 29  1  6
 28  8  1  0
 28 11  1  0
 24 12  1  0
 22 16  1  0
M  END
>  <MS_ID>  (786) 
MS0820

>  <SMILES>  (786) 
C[C@H](CCC(=O)O)[C@H]1CC[C@H]2[C@@H]3C(=O)C[C@@H]4C[C@H](O)CC[C@]4(C)[C@H]3C[C@@H](O)[C@]12C

>  <Structure_dimension>  (786) 
2D

$$$$
MS0821
     RDKit          2D

 33 36  0  0  0  0  0  0  0  0999 V2000
   -2.4823   -4.2429    0.0000 C   0  0  0  0  0  0  0  0  0  0  0  0
   -1.6859   -2.9718    0.0000 C   0  0  0  0  0  0  0  0  0  0  0  0
   -2.3885   -1.6465    0.0000 C   0  0  0  0  0  0  0  0  0  0  0  0
   -3.8876   -1.5924    0.0000 C   0  0  0  0  0  0  0  0  0  0  0  0
   -4.5902   -0.2671    0.0000 C   0  0  0  0  0  0  0  0  0  0  0  0
   -3.7938    1.0040    0.0000 O   0  0  0  0  0  0  0  0  0  0  0  0
   -6.0892   -0.2130    0.0000 O   0  0  0  0  0  0  0  0  0  0  0  0
   -6.7918    1.1123    0.0000 C   0  0  0  0  0  0  0  0  0  0  0  0
   -8.2908    1.1664    0.0000 C   0  0  0  0  0  0  0  0  0  0  0  0
   -8.9935    2.4917    0.0000 O   0  0  0  0  0  0  0  0  0  0  0  0
   -5.9954    2.3834    0.0000 C   0  0  0  0  0  0  0  0  0  0  0  0
   -4.4964    2.3293    0.0000 O   0  0  0  0  0  0  0  0  0  0  0  0
   -6.6980    3.7087    0.0000 O   0  0  0  0  0  0  0  0  0  0  0  0
   -0.1869   -3.0259    0.0000 C   0  0  0  0  0  0  0  0  0  0  0  0
    0.6504   -4.2705    0.0000 C   0  0  0  0  0  0  0  0  0  0  0  0
    2.0928   -3.8588    0.0000 C   0  0  0  0  0  0  0  0  0  0  0  0
    2.1469   -2.3597    0.0000 C   0  0  0  0  0  0  0  0  0  0  0  0
    3.2972   -1.3969    0.0000 C   0  0  0  0  0  0  0  0  0  0  0  0
    4.7061   -1.9116    0.0000 C   0  0  0  0  0  0  0  0  0  0  0  0
    5.8563   -0.9488    0.0000 C   0  0  0  0  0  0  0  0  0  0  0  0
    5.5976    0.5287    0.0000 C   0  0  0  0  0  0  0  0  0  0  0  0
    6.7478    1.4915    0.0000 C   0  0  0  0  0  0  0  0  0  0  0  0
    6.4891    2.9690    0.0000 C   0  0  0  0  0  0  0  0  0  0  0  0
    7.6393    3.9318    0.0000 O   0  0  0  0  0  0  0  0  0  0  0  0
    5.0802    3.4837    0.0000 C   0  0  0  0  0  0  0  0  0  0  0  0
    3.9300    2.5209    0.0000 C   0  0  0  0  0  0  0  0  0  0  0  0
    4.1887    1.0434    0.0000 C   0  0  0  0  0  0  0  0  0  0  0  0
    2.7797    1.5581    0.0000 C   0  0  0  0  0  0  0  0  0  0  0  0
    3.0385    0.0806    0.0000 C   0  0  0  0  0  0  0  0  0  0  0  0
    1.6295    0.5953    0.0000 C   0  0  0  0  0  0  0  0  0  0  0  0
    0.4793   -0.3675    0.0000 C   0  0  0  0  0  0  0  0  0  0  0  0
    0.7380   -1.8450    0.0000 C   0  0  0  0  0  0  0  0  0  0  0  0
   -0.7170   -1.4804    0.0000 C   0  0  0  0  0  0  0  0  0  0  0  0
  2  1  1  6
  2  3  1  0
  3  4  1  0
  4  5  1  0
  5  6  2  0
  5  7  1  0
  7  8  1  0
  8  9  1  1
  9 10  1  0
  8 11  1  0
 11 12  2  0
 11 13  1  0
  2 14  1  0
 14 15  1  6
 15 16  1  0
 17 16  1  6
 17 18  1  0
 18 19  1  1
 19 20  1  0
 21 20  1  1
 21 22  1  0
 22 23  1  0
 23 24  1  1
 23 25  1  0
 25 26  1  0
 26 27  1  0
 27 28  1  6
 27 29  1  0
 29 30  1  6
 30 31  1  0
 31 32  1  0
 32 33  1  6
 32 14  1  0
 32 17  1  0
 29 18  1  0
 27 21  1  0
M  END
>  <MS_ID>  (787) 
MS0821

>  <SMILES>  (787) 
C[C@H](CCC(=O)O[C@@H](CO)C(=O)O)[C@H]1CC[C@H]2[C@@H]3CC[C@@H]4C[C@H](O)CC[C@]4(C)[C@H]3CC[C@]12C

>  <Structure_dimension>  (787) 
2D

$$$$
MS0822
     RDKit          2D

 32 35  0  0  0  0  0  0  0  0999 V2000
   -4.6321   -2.8439    0.0000 C   0  0  0  0  0  0  0  0  0  0  0  0
   -3.4960   -1.8645    0.0000 C   0  0  0  0  0  0  0  0  0  0  0  0
   -3.7761   -0.3909    0.0000 C   0  0  0  0  0  0  0  0  0  0  0  0
   -5.1923    0.1033    0.0000 C   0  0  0  0  0  0  0  0  0  0  0  0
   -5.4724    1.5769    0.0000 C   0  0  0  0  0  0  0  0  0  0  0  0
   -4.3363    2.5563    0.0000 O   0  0  0  0  0  0  0  0  0  0  0  0
   -6.8887    2.0711    0.0000 O   0  0  0  0  0  0  0  0  0  0  0  0
   -2.0797   -2.3588    0.0000 C   0  0  0  0  0  0  0  0  0  0  0  0
   -1.6471   -3.7950    0.0000 C   0  0  0  0  0  0  0  0  0  0  0  0
   -0.1475   -3.8274    0.0000 C   0  0  0  0  0  0  0  0  0  0  0  0
    0.3468   -2.4112    0.0000 C   0  0  0  0  0  0  0  0  0  0  0  0
    1.7299   -1.8308    0.0000 C   0  0  0  0  0  0  0  0  0  0  0  0
    2.9241   -2.7385    0.0000 C   0  0  0  0  0  0  0  0  0  0  0  0
    4.3073   -2.1581    0.0000 C   0  0  0  0  0  0  0  0  0  0  0  0
    4.4963   -0.6700    0.0000 C   0  0  0  0  0  0  0  0  0  0  0  0
    5.8795   -0.0896    0.0000 C   0  0  0  0  0  0  0  0  0  0  0  0
    6.0684    1.3984    0.0000 C   0  0  0  0  0  0  0  0  0  0  0  0
    7.4516    1.9788    0.0000 O   0  0  0  0  0  0  0  0  0  0  0  0
    4.8742    2.3061    0.0000 C   0  0  0  0  0  0  0  0  0  0  0  0
    3.4910    1.7257    0.0000 C   0  0  0  0  0  0  0  0  0  0  0  0
    3.3021    0.2376    0.0000 C   0  0  0  0  0  0  0  0  0  0  0  0
    2.1079    1.1453    0.0000 C   0  0  0  0  0  0  0  0  0  0  0  0
    1.9189   -0.3427    0.0000 C   0  0  0  0  0  0  0  0  0  0  0  0
    0.7247    0.5649    0.0000 C   0  0  0  0  0  0  0  0  0  0  0  0
   -0.6585   -0.0154    0.0000 C   0  0  0  0  0  0  0  0  0  0  0  0
   -1.8527    0.8922    0.0000 O   0  0  0  0  0  0  0  0  0  0  0  0
   -1.6637    2.3803    0.0000 S   0  0  0  0  0  0  0  0  0  0  0  0
   -0.1757    2.1913    0.0000 O   0  0  0  0  0  0  0  0  0  0  0  0
   -3.1518    2.5693    0.0000 O   0  0  0  0  0  0  0  0  0  0  0  0
   -1.4748    3.8683    0.0000 O   0  0  0  0  0  0  0  0  0  0  0  0
   -0.8474   -1.5035    0.0000 C   0  0  0  0  0  0  0  0  0  0  0  0
   -2.1300   -0.7256    0.0000 C   0  0  0  0  0  0  0  0  0  0  0  0
  2  1  1  6
  2  3  1  0
  3  4  1  0
  4  5  1  0
  5  6  2  0
  5  7  1  0
  2  8  1  0
  8  9  1  6
  9 10  1  0
 11 10  1  6
 11 12  1  0
 12 13  1  1
 13 14  1  0
 15 14  1  1
 15 16  1  0
 16 17  1  0
 17 18  1  6
 17 19  1  0
 19 20  1  0
 20 21  1  0
 21 22  1  6
 21 23  1  0
 23 24  1  6
 24 25  1  0
 25 26  1  6
 26 27  1  0
 27 28  2  0
 27 29  2  0
 27 30  1  0
 25 31  1  0
 31 32  1  6
 31  8  1  0
 31 11  1  0
 23 12  1  0
 21 15  1  0
M  END
>  <MS_ID>  (788) 
MS0822

>  <SMILES>  (788) 
C[C@H](CCC(=O)O)[C@H]1CC[C@H]2[C@@H]3CC[C@@H]4C[C@@H](O)CC[C@]4(C)[C@H]3C[C@@H](OS(=O)(=O)O)[C@]12C

>  <Structure_dimension>  (788) 
2D

$$$$
MS0823
     RDKit          2D

 32 35  0  0  0  0  0  0  0  0999 V2000
   -2.7289   -3.8457    0.0000 C   0  0  0  0  0  0  0  0  0  0  0  0
   -1.8526   -2.6283    0.0000 C   0  0  0  0  0  0  0  0  0  0  0  0
   -2.4687   -1.2607    0.0000 C   0  0  0  0  0  0  0  0  0  0  0  0
   -3.9611   -1.1104    0.0000 C   0  0  0  0  0  0  0  0  0  0  0  0
   -4.5772    0.2572    0.0000 C   0  0  0  0  0  0  0  0  0  0  0  0
   -3.7009    1.4746    0.0000 O   0  0  0  0  0  0  0  0  0  0  0  0
   -6.0697    0.4075    0.0000 N   0  0  0  0  0  0  0  0  0  0  0  0
   -6.6858    1.7751    0.0000 O   0  0  0  0  0  0  0  0  0  0  0  0
   -8.1782    1.9254    0.0000 S   0  0  0  0  0  0  0  0  0  0  0  0
   -8.3285    0.4329    0.0000 O   0  0  0  0  0  0  0  0  0  0  0  0
   -8.0280    3.4178    0.0000 O   0  0  0  0  0  0  0  0  0  0  0  0
   -9.6707    2.0756    0.0000 O   0  0  0  0  0  0  0  0  0  0  0  0
   -0.3601   -2.7786    0.0000 C   0  0  0  0  0  0  0  0  0  0  0  0
    0.3956   -4.0743    0.0000 C   0  0  0  0  0  0  0  0  0  0  0  0
    1.8614   -3.7560    0.0000 C   0  0  0  0  0  0  0  0  0  0  0  0
    2.0117   -2.2635    0.0000 C   0  0  0  0  0  0  0  0  0  0  0  0
    3.2213   -1.3766    0.0000 C   0  0  0  0  0  0  0  0  0  0  0  0
    4.5943   -1.9807    0.0000 C   0  0  0  0  0  0  0  0  0  0  0  0
    5.8039   -1.0937    0.0000 C   0  0  0  0  0  0  0  0  0  0  0  0
    5.6406    0.3974    0.0000 C   0  0  0  0  0  0  0  0  0  0  0  0
    6.8503    1.2844    0.0000 C   0  0  0  0  0  0  0  0  0  0  0  0
    6.6869    2.7755    0.0000 C   0  0  0  0  0  0  0  0  0  0  0  0
    7.8966    3.6625    0.0000 O   0  0  0  0  0  0  0  0  0  0  0  0
    5.3140    3.3796    0.0000 C   0  0  0  0  0  0  0  0  0  0  0  0
    4.1043    2.4926    0.0000 C   0  0  0  0  0  0  0  0  0  0  0  0
    4.2676    1.0015    0.0000 C   0  0  0  0  0  0  0  0  0  0  0  0
    2.8947    1.6056    0.0000 C   0  0  0  0  0  0  0  0  0  0  0  0
    3.0580    0.1145    0.0000 C   0  0  0  0  0  0  0  0  0  0  0  0
    1.6850    0.7186    0.0000 C   0  0  0  0  0  0  0  0  0  0  0  0
    0.4754   -0.1684    0.0000 C   0  0  0  0  0  0  0  0  0  0  0  0
    0.6387   -1.6594    0.0000 C   0  0  0  0  0  0  0  0  0  0  0  0
   -0.7899   -1.2022    0.0000 C   0  0  0  0  0  0  0  0  0  0  0  0
  2  1  1  6
  2  3  1  0
  3  4  1  0
  4  5  1  0
  5  6  2  0
  5  7  1  0
  7  8  1  0
  8  9  1  0
  9 10  2  0
  9 11  2  0
  9 12  1  0
  2 13  1  0
 13 14  1  6
 14 15  1  0
 16 15  1  6
 16 17  1  0
 17 18  1  1
 18 19  1  0
 20 19  1  1
 20 21  1  0
 21 22  1  0
 22 23  1  1
 22 24  1  0
 24 25  1  0
 25 26  1  0
 26 27  1  6
 26 28  1  0
 28 29  1  6
 29 30  1  0
 30 31  1  0
 31 32  1  6
 31 13  1  0
 31 16  1  0
 28 17  1  0
 26 20  1  0
M  END
>  <MS_ID>  (789) 
MS0823

>  <SMILES>  (789) 
C[C@H](CCC(=O)NOS(=O)(=O)O)[C@H]1CC[C@H]2[C@@H]3CC[C@@H]4C[C@H](O)CC[C@]4(C)[C@H]3CC[C@]12C

>  <Structure_dimension>  (789) 
2D

$$$$
MS0824
     RDKit          2D

 31 34  0  0  0  0  0  0  0  0999 V2000
   -4.0145   -2.9364    0.0000 C   0  0  0  0  0  0  0  0  0  0  0  0
   -2.9770   -1.8531    0.0000 C   0  0  0  0  0  0  0  0  0  0  0  0
   -3.3964   -0.4129    0.0000 C   0  0  0  0  0  0  0  0  0  0  0  0
   -4.8534   -0.0561    0.0000 C   0  0  0  0  0  0  0  0  0  0  0  0
   -5.2728    1.3841    0.0000 C   0  0  0  0  0  0  0  0  0  0  0  0
   -4.2353    2.4674    0.0000 O   0  0  0  0  0  0  0  0  0  0  0  0
   -6.7297    1.7410    0.0000 C   0  0  0  0  0  0  0  0  0  0  0  0
   -7.0866    0.2840    0.0000 C   0  0  0  0  0  0  0  0  0  0  0  0
   -6.3728    3.1979    0.0000 C   0  0  0  0  0  0  0  0  0  0  0  0
   -8.1866    2.0978    0.0000 O   0  0  0  0  0  0  0  0  0  0  0  0
   -1.5201   -2.2100    0.0000 C   0  0  0  0  0  0  0  0  0  0  0  0
   -0.9524   -3.5984    0.0000 C   0  0  0  0  0  0  0  0  0  0  0  0
    0.5435   -3.4876    0.0000 C   0  0  0  0  0  0  0  0  0  0  0  0
    0.9003   -2.0306    0.0000 C   0  0  0  0  0  0  0  0  0  0  0  0
    2.2218   -1.3210    0.0000 C   0  0  0  0  0  0  0  0  0  0  0  0
    3.4972   -2.1106    0.0000 C   0  0  0  0  0  0  0  0  0  0  0  0
    3.4510   -3.6099    0.0000 O   0  0  0  0  0  0  0  0  0  0  0  0
    4.8187   -1.4009    0.0000 C   0  0  0  0  0  0  0  0  0  0  0  0
    4.8648    0.0984    0.0000 C   0  0  0  0  0  0  0  0  0  0  0  0
    6.1863    0.8081    0.0000 C   0  0  0  0  0  0  0  0  0  0  0  0
    6.2325    2.3074    0.0000 C   0  0  0  0  0  0  0  0  0  0  0  0
    7.5540    3.0170    0.0000 O   0  0  0  0  0  0  0  0  0  0  0  0
    4.9571    3.0970    0.0000 C   0  0  0  0  0  0  0  0  0  0  0  0
    3.6356    2.3873    0.0000 C   0  0  0  0  0  0  0  0  0  0  0  0
    3.5895    0.8880    0.0000 C   0  0  0  0  0  0  0  0  0  0  0  0
    2.3141    1.6776    0.0000 C   0  0  0  0  0  0  0  0  0  0  0  0
    2.2680    0.1783    0.0000 C   0  0  0  0  0  0  0  0  0  0  0  0
    0.9926    0.9679    0.0000 C   0  0  0  0  0  0  0  0  0  0  0  0
   -0.3289    0.2583    0.0000 C   0  0  0  0  0  0  0  0  0  0  0  0
   -0.3750   -1.2410    0.0000 C   0  0  0  0  0  0  0  0  0  0  0  0
   -1.7259   -0.5891    0.0000 C   0  0  0  0  0  0  0  0  0  0  0  0
  2  1  1  6
  2  3  1  0
  3  4  1  0
  4  5  1  0
  5  6  2  0
  5  7  1  0
  7  8  1  0
  7  9  1  0
  7 10  1  0
  2 11  1  0
 11 12  1  6
 12 13  1  0
 14 13  1  6
 14 15  1  0
 15 16  1  1
 16 17  1  1
 16 18  1  0
 19 18  1  1
 19 20  1  0
 20 21  1  0
 21 22  1  1
 21 23  1  0
 23 24  1  0
 24 25  1  0
 25 26  1  6
 25 27  1  0
 27 28  1  6
 28 29  1  0
 29 30  1  0
 30 31  1  6
 30 11  1  0
 30 14  1  0
 27 15  1  0
 25 19  1  0
M  END
>  <MS_ID>  (790) 
MS0824

>  <SMILES>  (790) 
C[C@H](CCC(=O)C(C)(C)O)[C@H]1CC[C@H]2[C@@H]3[C@H](O)C[C@@H]4C[C@H](O)CC[C@]4(C)[C@H]3CC[C@]12C

>  <Structure_dimension>  (790) 
2D

$$$$
MS0825
     RDKit          2D

 33 36  0  0  0  0  0  0  0  0999 V2000
   -3.3910   -4.2321    0.0000 C   0  0  0  0  0  0  0  0  0  0  0  0
   -2.5743   -2.9739    0.0000 C   0  0  0  0  0  0  0  0  0  0  0  0
   -3.2556   -1.6376    0.0000 C   0  0  0  0  0  0  0  0  0  0  0  0
   -4.7535   -1.5594    0.0000 C   0  0  0  0  0  0  0  0  0  0  0  0
   -5.4348   -0.2230    0.0000 C   0  0  0  0  0  0  0  0  0  0  0  0
   -6.9327   -0.1448    0.0000 O   0  0  0  0  0  0  0  0  0  0  0  0
   -4.6181    1.0352    0.0000 O   0  0  0  0  0  0  0  0  0  0  0  0
   -5.2994    2.3715    0.0000 C   0  0  0  0  0  0  0  0  0  0  0  0
   -4.4827    3.6297    0.0000 S   0  0  0  0  0  0  0  0  0  0  0  0
   -5.7409    4.4464    0.0000 O   0  0  0  0  0  0  0  0  0  0  0  0
   -3.2245    2.8130    0.0000 O   0  0  0  0  0  0  0  0  0  0  0  0
   -3.6660    4.8879    0.0000 O   0  0  0  0  0  0  0  0  0  0  0  0
   -1.0763   -3.0521    0.0000 C   0  0  0  0  0  0  0  0  0  0  0  0
   -0.2591   -4.3099    0.0000 C   0  0  0  0  0  0  0  0  0  0  0  0
    1.1897   -3.9214    0.0000 C   0  0  0  0  0  0  0  0  0  0  0  0
    1.2679   -2.4234    0.0000 C   0  0  0  0  0  0  0  0  0  0  0  0
    2.4334   -1.4792    0.0000 C   0  0  0  0  0  0  0  0  0  0  0  0
    3.8339   -2.0165    0.0000 C   0  0  0  0  0  0  0  0  0  0  0  0
    4.0689   -3.4980    0.0000 O   0  0  0  0  0  0  0  0  0  0  0  0
    4.9994   -1.0722    0.0000 C   0  0  0  0  0  0  0  0  0  0  0  0
    4.7644    0.4092    0.0000 C   0  0  0  0  0  0  0  0  0  0  0  0
    5.9300    1.3535    0.0000 C   0  0  0  0  0  0  0  0  0  0  0  0
    5.6950    2.8349    0.0000 C   0  0  0  0  0  0  0  0  0  0  0  0
    6.8605    3.7792    0.0000 O   0  0  0  0  0  0  0  0  0  0  0  0
    4.2945    3.3722    0.0000 C   0  0  0  0  0  0  0  0  0  0  0  0
    3.1290    2.4280    0.0000 C   0  0  0  0  0  0  0  0  0  0  0  0
    3.3640    0.9465    0.0000 C   0  0  0  0  0  0  0  0  0  0  0  0
    1.9635    1.4837    0.0000 C   0  0  0  0  0  0  0  0  0  0  0  0
    2.1984    0.0023    0.0000 C   0  0  0  0  0  0  0  0  0  0  0  0
    0.7980    0.5395    0.0000 C   0  0  0  0  0  0  0  0  0  0  0  0
   -0.3676   -0.4047    0.0000 C   0  0  0  0  0  0  0  0  0  0  0  0
   -0.1326   -1.8862    0.0000 C   0  0  0  0  0  0  0  0  0  0  0  0
   -1.5816   -1.4983    0.0000 C   0  0  0  0  0  0  0  0  0  0  0  0
  2  1  1  6
  2  3  1  0
  3  4  1  0
  4  5  1  0
  5  6  2  0
  5  7  1  0
  7  8  1  0
  8  9  1  0
  9 10  2  0
  9 11  2  0
  9 12  1  0
  2 13  1  0
 13 14  1  6
 14 15  1  0
 16 15  1  6
 16 17  1  0
 17 18  1  1
 18 19  1  1
 18 20  1  0
 21 20  1  1
 21 22  1  0
 22 23  1  0
 23 24  1  1
 23 25  1  0
 25 26  1  0
 26 27  1  0
 27 28  1  6
 27 29  1  0
 29 30  1  6
 30 31  1  0
 31 32  1  0
 32 33  1  6
 32 13  1  0
 32 16  1  0
 29 17  1  0
 27 21  1  0
M  END
>  <MS_ID>  (791) 
MS0825

>  <SMILES>  (791) 
C[C@H](CCC(=O)OCS(=O)(=O)O)[C@H]1CC[C@H]2[C@@H]3[C@H](O)C[C@@H]4C[C@H](O)CC[C@]4(C)[C@H]3CC[C@]12C

>  <Structure_dimension>  (791) 
2D

$$$$
MS0826
     RDKit          2D

 31 34  0  0  0  0  0  0  0  0999 V2000
   -8.8672    3.1400    0.0000 C   0  0  0  0  0  0  0  0  0  0  0  0
   -7.3980    2.8376    0.0000 S   0  0  0  0  0  0  0  0  0  0  0  0
   -6.9253    1.4140    0.0000 C   0  0  0  0  0  0  0  0  0  0  0  0
   -5.4561    1.1115    0.0000 C   0  0  0  0  0  0  0  0  0  0  0  0
   -4.4596    2.2326    0.0000 O   0  0  0  0  0  0  0  0  0  0  0  0
   -4.9835   -0.3121    0.0000 C   0  0  0  0  0  0  0  0  0  0  0  0
   -3.5143   -0.6145    0.0000 C   0  0  0  0  0  0  0  0  0  0  0  0
   -3.0416   -2.0381    0.0000 C   0  0  0  0  0  0  0  0  0  0  0  0
   -4.0382   -3.1592    0.0000 C   0  0  0  0  0  0  0  0  0  0  0  0
   -1.5724   -2.3406    0.0000 C   0  0  0  0  0  0  0  0  0  0  0  0
   -0.9536   -3.7070    0.0000 C   0  0  0  0  0  0  0  0  0  0  0  0
    0.5372   -3.5406    0.0000 C   0  0  0  0  0  0  0  0  0  0  0  0
    0.8396   -2.0714    0.0000 C   0  0  0  0  0  0  0  0  0  0  0  0
    2.1338   -1.3131    0.0000 C   0  0  0  0  0  0  0  0  0  0  0  0
    3.4377   -2.0548    0.0000 C   0  0  0  0  0  0  0  0  0  0  0  0
    3.4473   -3.5547    0.0000 O   0  0  0  0  0  0  0  0  0  0  0  0
    4.7319   -1.2965    0.0000 C   0  0  0  0  0  0  0  0  0  0  0  0
    4.7223    0.2035    0.0000 C   0  0  0  0  0  0  0  0  0  0  0  0
    6.0165    0.9618    0.0000 C   0  0  0  0  0  0  0  0  0  0  0  0
    6.0069    2.4618    0.0000 C   0  0  0  0  0  0  0  0  0  0  0  0
    7.3011    3.2201    0.0000 O   0  0  0  0  0  0  0  0  0  0  0  0
    4.7030    3.2034    0.0000 C   0  0  0  0  0  0  0  0  0  0  0  0
    3.4088    2.4451    0.0000 C   0  0  0  0  0  0  0  0  0  0  0  0
    3.4184    0.9452    0.0000 C   0  0  0  0  0  0  0  0  0  0  0  0
    2.1146    1.6868    0.0000 C   0  0  0  0  0  0  0  0  0  0  0  0
    2.1242    0.1869    0.0000 C   0  0  0  0  0  0  0  0  0  0  0  0
    0.8204    0.9285    0.0000 C   0  0  0  0  0  0  0  0  0  0  0  0
   -0.4738    0.1702    0.0000 C   0  0  0  0  0  0  0  0  0  0  0  0
   -1.7776    0.9119    0.0000 O   0  0  0  0  0  0  0  0  0  0  0  0
   -0.4642   -1.3298    0.0000 C   0  0  0  0  0  0  0  0  0  0  0  0
   -1.8384   -0.7284    0.0000 C   0  0  0  0  0  0  0  0  0  0  0  0
  1  2  1  0
  2  3  1  0
  3  4  1  0
  4  5  2  0
  4  6  1  0
  6  7  1  0
  7  8  1  0
  8  9  1  6
  8 10  1  0
 10 11  1  6
 11 12  1  0
 13 12  1  6
 13 14  1  0
 14 15  1  1
 15 16  1  1
 15 17  1  0
 18 17  1  1
 18 19  1  0
 19 20  1  0
 20 21  1  1
 20 22  1  0
 22 23  1  0
 23 24  1  0
 24 25  1  6
 24 26  1  0
 26 27  1  6
 27 28  1  0
 28 29  1  1
 28 30  1  0
 30 31  1  6
 30 10  1  0
 30 13  1  0
 26 14  1  0
 24 18  1  0
M  END
>  <MS_ID>  (792) 
MS0826

>  <SMILES>  (792) 
CSCC(=O)CC[C@@H](C)[C@H]1CC[C@H]2[C@@H]3[C@H](O)C[C@@H]4C[C@H](O)CC[C@]4(C)[C@H]3C[C@H](O)[C@]12C

>  <Structure_dimension>  (792) 
2D

$$$$
MS0827
     RDKit          2D

 34 38  0  0  0  0  0  0  0  0999 V2000
   -3.2858   -3.3478    0.0000 C   0  0  0  0  0  0  0  0  0  0  0  0
   -2.3538   -2.1725    0.0000 C   0  0  0  0  0  0  0  0  0  0  0  0
   -2.9057   -0.7777    0.0000 C   0  0  0  0  0  0  0  0  0  0  0  0
   -4.3895   -0.5582    0.0000 C   0  0  0  0  0  0  0  0  0  0  0  0
   -4.9414    0.8366    0.0000 C   0  0  0  0  0  0  0  0  0  0  0  0
   -4.0094    2.0119    0.0000 O   0  0  0  0  0  0  0  0  0  0  0  0
   -6.4253    1.0561    0.0000 C   0  0  0  0  0  0  0  0  0  0  0  0
   -6.9771    2.4509    0.0000 C   0  0  0  0  0  0  0  0  0  0  0  0
   -8.4610    2.6704    0.0000 C   0  0  0  0  0  0  0  0  0  0  0  0
   -9.3930    1.4950    0.0000 C   0  0  0  0  0  0  0  0  0  0  0  0
   -8.8411    0.1002    0.0000 C   0  0  0  0  0  0  0  0  0  0  0  0
   -7.3573   -0.1192    0.0000 N   0  0  0  0  0  0  0  0  0  0  0  0
   -0.8700   -2.3919    0.0000 C   0  0  0  0  0  0  0  0  0  0  0  0
   -0.1754   -3.7214    0.0000 C   0  0  0  0  0  0  0  0  0  0  0  0
    1.3037   -3.4716    0.0000 C   0  0  0  0  0  0  0  0  0  0  0  0
    1.5232   -1.9878    0.0000 C   0  0  0  0  0  0  0  0  0  0  0  0
    2.7728   -1.1580    0.0000 C   0  0  0  0  0  0  0  0  0  0  0  0
    4.1162   -1.8252    0.0000 C   0  0  0  0  0  0  0  0  0  0  0  0
    4.2100   -3.3223    0.0000 O   0  0  0  0  0  0  0  0  0  0  0  0
    5.3657   -0.9955    0.0000 C   0  0  0  0  0  0  0  0  0  0  0  0
    6.7092   -1.6627    0.0000 O   0  0  0  0  0  0  0  0  0  0  0  0
    5.2719    0.5016    0.0000 C   0  0  0  0  0  0  0  0  0  0  0  0
    6.5215    1.3314    0.0000 C   0  0  0  0  0  0  0  0  0  0  0  0
    6.4277    2.8285    0.0000 C   0  0  0  0  0  0  0  0  0  0  0  0
    7.6772    3.6583    0.0000 O   0  0  0  0  0  0  0  0  0  0  0  0
    5.0843    3.4957    0.0000 C   0  0  0  0  0  0  0  0  0  0  0  0
    3.8347    2.6659    0.0000 C   0  0  0  0  0  0  0  0  0  0  0  0
    3.9285    1.1689    0.0000 C   0  0  0  0  0  0  0  0  0  0  0  0
    2.5851    1.8362    0.0000 C   0  0  0  0  0  0  0  0  0  0  0  0
    2.6789    0.3391    0.0000 C   0  0  0  0  0  0  0  0  0  0  0  0
    1.3355    1.0064    0.0000 C   0  0  0  0  0  0  0  0  0  0  0  0
    0.0859    0.1766    0.0000 C   0  0  0  0  0  0  0  0  0  0  0  0
    0.1798   -1.3205    0.0000 C   0  0  0  0  0  0  0  0  0  0  0  0
   -1.2260   -0.7973    0.0000 C   0  0  0  0  0  0  0  0  0  0  0  0
  2  1  1  6
  2  3  1  0
  3  4  1  0
  4  5  1  0
  5  6  2  0
  5  7  1  0
  7  8  2  0
  8  9  1  0
  9 10  2  0
 10 11  1  0
 11 12  2  0
  2 13  1  0
 13 14  1  6
 14 15  1  0
 16 15  1  6
 16 17  1  0
 17 18  1  1
 18 19  1  1
 18 20  1  0
 20 21  1  1
 20 22  1  0
 22 23  1  1
 23 24  1  0
 24 25  1  1
 24 26  1  0
 26 27  1  0
 27 28  1  0
 28 29  1  6
 28 30  1  0
 30 31  1  6
 31 32  1  0
 32 33  1  0
 33 34  1  6
 12  7  1  0
 33 13  1  0
 33 16  1  0
 30 17  1  0
 28 22  1  0
M  END
>  <MS_ID>  (793) 
MS0827

>  <SMILES>  (793) 
C[C@H](CCC(=O)c1ccccn1)[C@H]1CC[C@H]2[C@@H]3[C@H](O)[C@H](O)[C@@H]4C[C@H](O)CC[C@]4(C)[C@H]3CC[C@]12C

>  <Structure_dimension>  (793) 
2D

$$$$
MS0828
     RDKit          2D

 31 34  0  0  0  0  0  0  0  0999 V2000
   -3.9560   -3.4843    0.0000 C   0  0  0  0  0  0  0  0  0  0  0  0
   -2.9605   -2.3623    0.0000 C   0  0  0  0  0  0  0  0  0  0  0  0
   -3.4344   -0.9392    0.0000 C   0  0  0  0  0  0  0  0  0  0  0  0
   -4.9038   -0.6380    0.0000 C   0  0  0  0  0  0  0  0  0  0  0  0
   -5.3777    0.7852    0.0000 C   0  0  0  0  0  0  0  0  0  0  0  0
   -6.8472    1.0863    0.0000 O   0  0  0  0  0  0  0  0  0  0  0  0
   -4.3822    1.9072    0.0000 O   0  0  0  0  0  0  0  0  0  0  0  0
   -4.8561    3.3303    0.0000 C   0  0  0  0  0  0  0  0  0  0  0  0
   -3.8606    4.4523    0.0000 N   0  0  0  0  0  0  0  0  0  0  0  0
   -6.3256    3.6315    0.0000 O   0  0  0  0  0  0  0  0  0  0  0  0
   -1.4910   -2.6635    0.0000 C   0  0  0  0  0  0  0  0  0  0  0  0
   -0.8709   -4.0293    0.0000 C   0  0  0  0  0  0  0  0  0  0  0  0
    0.6197   -3.8617    0.0000 C   0  0  0  0  0  0  0  0  0  0  0  0
    0.9208   -2.3922    0.0000 C   0  0  0  0  0  0  0  0  0  0  0  0
    2.2144   -1.6327    0.0000 C   0  0  0  0  0  0  0  0  0  0  0  0
    3.5189   -2.3733    0.0000 C   0  0  0  0  0  0  0  0  0  0  0  0
    4.8124   -1.6138    0.0000 C   0  0  0  0  0  0  0  0  0  0  0  0
    4.8014   -0.1138    0.0000 C   0  0  0  0  0  0  0  0  0  0  0  0
    6.0950    0.6456    0.0000 C   0  0  0  0  0  0  0  0  0  0  0  0
    6.0840    2.1456    0.0000 C   0  0  0  0  0  0  0  0  0  0  0  0
    7.3776    2.9050    0.0000 O   0  0  0  0  0  0  0  0  0  0  0  0
    4.7796    2.8861    0.0000 C   0  0  0  0  0  0  0  0  0  0  0  0
    3.4860    2.1266    0.0000 C   0  0  0  0  0  0  0  0  0  0  0  0
    3.4970    0.6267    0.0000 C   0  0  0  0  0  0  0  0  0  0  0  0
    2.1925    1.3672    0.0000 C   0  0  0  0  0  0  0  0  0  0  0  0
    2.2034   -0.1328    0.0000 C   0  0  0  0  0  0  0  0  0  0  0  0
    0.8990    0.6077    0.0000 C   0  0  0  0  0  0  0  0  0  0  0  0
   -0.3946   -0.1517    0.0000 C   0  0  0  0  0  0  0  0  0  0  0  0
   -1.6990    0.5888    0.0000 O   0  0  0  0  0  0  0  0  0  0  0  0
   -0.3836   -1.6517    0.0000 C   0  0  0  0  0  0  0  0  0  0  0  0
   -1.7584   -1.0516    0.0000 C   0  0  0  0  0  0  0  0  0  0  0  0
  2  1  1  6
  2  3  1  0
  3  4  1  0
  4  5  1  0
  5  6  2  0
  5  7  1  0
  7  8  1  0
  8  9  1  0
  8 10  2  0
  2 11  1  0
 11 12  1  6
 12 13  1  0
 14 13  1  6
 14 15  1  0
 15 16  1  1
 16 17  1  0
 18 17  1  1
 18 19  1  0
 19 20  1  0
 20 21  1  1
 20 22  1  0
 22 23  1  0
 23 24  1  0
 24 25  1  6
 24 26  1  0
 26 27  1  6
 27 28  1  0
 28 29  1  1
 28 30  1  0
 30 31  1  6
 30 11  1  0
 30 14  1  0
 26 15  1  0
 24 18  1  0
M  END
>  <MS_ID>  (794) 
MS0828

>  <SMILES>  (794) 
C[C@H](CCC(=O)OC(N)=O)[C@H]1CC[C@H]2[C@@H]3CC[C@@H]4C[C@H](O)CC[C@]4(C)[C@H]3C[C@H](O)[C@]12C

>  <Structure_dimension>  (794) 
2D

$$$$
MS0829
     RDKit          2D

 30 33  0  0  0  0  0  0  0  0999 V2000
   -5.3676   -2.0337    0.0000 C   0  0  0  0  0  0  0  0  0  0  0  0
   -4.1713   -1.1288    0.0000 C   0  0  0  0  0  0  0  0  0  0  0  0
   -4.3569    0.3597    0.0000 C   0  0  0  0  0  0  0  0  0  0  0  0
   -5.7388    0.9432    0.0000 C   0  0  0  0  0  0  0  0  0  0  0  0
   -5.9244    2.4317    0.0000 C   0  0  0  0  0  0  0  0  0  0  0  0
   -4.7281    3.3367    0.0000 O   0  0  0  0  0  0  0  0  0  0  0  0
   -7.3062    3.0152    0.0000 O   0  0  0  0  0  0  0  0  0  0  0  0
   -2.7894   -1.7123    0.0000 C   0  0  0  0  0  0  0  0  0  0  0  0
   -2.4493   -3.1732    0.0000 C   0  0  0  0  0  0  0  0  0  0  0  0
   -0.9547   -3.3011    0.0000 C   0  0  0  0  0  0  0  0  0  0  0  0
   -0.3712   -1.9192    0.0000 C   0  0  0  0  0  0  0  0  0  0  0  0
    1.0461   -1.4282    0.0000 C   0  0  0  0  0  0  0  0  0  0  0  0
    2.1800   -2.4102    0.0000 C   0  0  0  0  0  0  0  0  0  0  0  0
    1.8966   -3.8832    0.0000 O   0  0  0  0  0  0  0  0  0  0  0  0
    3.5974   -1.9192    0.0000 C   0  0  0  0  0  0  0  0  0  0  0  0
    3.8808   -0.4462    0.0000 C   0  0  0  0  0  0  0  0  0  0  0  0
    5.2982    0.0448    0.0000 C   0  0  0  0  0  0  0  0  0  0  0  0
    5.5816    1.5178    0.0000 C   0  0  0  0  0  0  0  0  0  0  0  0
    6.9990    2.0088    0.0000 C   0  0  0  0  0  0  0  0  0  0  0  0
    8.1329    1.0269    0.0000 O   0  0  0  0  0  0  0  0  0  0  0  0
    4.4477    2.4998    0.0000 C   0  0  0  0  0  0  0  0  0  0  0  0
    3.0304    2.0087    0.0000 C   0  0  0  0  0  0  0  0  0  0  0  0
    2.7469    0.5358    0.0000 C   0  0  0  0  0  0  0  0  0  0  0  0
    1.6130    1.5177    0.0000 C   0  0  0  0  0  0  0  0  0  0  0  0
    1.3296    0.0448    0.0000 C   0  0  0  0  0  0  0  0  0  0  0  0
    0.1957    1.0267    0.0000 C   0  0  0  0  0  0  0  0  0  0  0  0
   -1.2217    0.5357    0.0000 C   0  0  0  0  0  0  0  0  0  0  0  0
   -2.3556    1.5177    0.0000 O   0  0  0  0  0  0  0  0  0  0  0  0
   -1.5052   -0.9373    0.0000 C   0  0  0  0  0  0  0  0  0  0  0  0
   -2.7355   -0.0792    0.0000 C   0  0  0  0  0  0  0  0  0  0  0  0
  2  1  1  6
  2  3  1  0
  3  4  1  0
  4  5  1  0
  5  6  2  0
  5  7  1  0
  2  8  1  0
  8  9  1  6
  9 10  1  0
 11 10  1  6
 11 12  1  0
 12 13  1  1
 13 14  1  6
 13 15  1  0
 16 15  1  1
 16 17  1  0
 17 18  1  0
 18 19  1  1
 19 20  1  0
 18 21  1  0
 21 22  1  0
 22 23  1  0
 23 24  1  6
 23 25  1  0
 25 26  1  6
 26 27  1  0
 27 28  2  0
 27 29  1  0
 29 30  1  6
 29  8  1  0
 29 11  1  0
 25 12  1  0
 23 16  1  0
M  END
>  <MS_ID>  (795) 
MS0829

>  <SMILES>  (795) 
C[C@H](CCC(=O)O)[C@H]1CC[C@H]2[C@@H]3[C@@H](O)C[C@@H]4C[C@H](CO)CC[C@]4(C)[C@H]3CC(=O)[C@]12C

>  <Structure_dimension>  (795) 
2D

$$$$
MS0830
     RDKit          2D

 31 34  0  0  0  0  0  0  0  0999 V2000
   -3.5119   -3.5779    0.0000 C   0  0  0  0  0  0  0  0  0  0  0  0
   -2.6109   -2.3787    0.0000 C   0  0  0  0  0  0  0  0  0  0  0  0
   -3.1991   -0.9988    0.0000 C   0  0  0  0  0  0  0  0  0  0  0  0
   -4.6881   -0.8181    0.0000 C   0  0  0  0  0  0  0  0  0  0  0  0
   -5.2762    0.5618    0.0000 C   0  0  0  0  0  0  0  0  0  0  0  0
   -4.3753    1.7610    0.0000 O   0  0  0  0  0  0  0  0  0  0  0  0
   -6.7653    0.7424    0.0000 O   0  0  0  0  0  0  0  0  0  0  0  0
   -7.3534    2.1223    0.0000 C   0  0  0  0  0  0  0  0  0  0  0  0
   -8.8425    2.3029    0.0000 C   0  0  0  0  0  0  0  0  0  0  0  0
   -9.4306    3.6828    0.0000 N   0  0  0  0  0  0  0  0  0  0  0  0
   -1.1219   -2.5593    0.0000 C   0  0  0  0  0  0  0  0  0  0  0  0
   -0.3927   -3.8702    0.0000 C   0  0  0  0  0  0  0  0  0  0  0  0
    1.0793   -3.5818    0.0000 C   0  0  0  0  0  0  0  0  0  0  0  0
    1.2599   -2.0927    0.0000 C   0  0  0  0  0  0  0  0  0  0  0  0
    2.4874   -1.2306    0.0000 C   0  0  0  0  0  0  0  0  0  0  0  0
    3.8478   -1.8625    0.0000 C   0  0  0  0  0  0  0  0  0  0  0  0
    3.9807   -3.3566    0.0000 O   0  0  0  0  0  0  0  0  0  0  0  0
    5.0753   -1.0003    0.0000 C   0  0  0  0  0  0  0  0  0  0  0  0
    4.9423    0.4938    0.0000 C   0  0  0  0  0  0  0  0  0  0  0  0
    6.1698    1.3559    0.0000 C   0  0  0  0  0  0  0  0  0  0  0  0
    6.0369    2.8500    0.0000 C   0  0  0  0  0  0  0  0  0  0  0  0
    7.2644    3.7122    0.0000 O   0  0  0  0  0  0  0  0  0  0  0  0
    4.6765    3.4820    0.0000 C   0  0  0  0  0  0  0  0  0  0  0  0
    3.4490    2.6198    0.0000 C   0  0  0  0  0  0  0  0  0  0  0  0
    3.5820    1.1257    0.0000 C   0  0  0  0  0  0  0  0  0  0  0  0
    2.2216    1.7576    0.0000 C   0  0  0  0  0  0  0  0  0  0  0  0
    2.3545    0.2635    0.0000 C   0  0  0  0  0  0  0  0  0  0  0  0
    0.9941    0.8955    0.0000 C   0  0  0  0  0  0  0  0  0  0  0  0
   -0.2334    0.0333    0.0000 C   0  0  0  0  0  0  0  0  0  0  0  0
   -0.1005   -1.4608    0.0000 C   0  0  0  0  0  0  0  0  0  0  0  0
   -1.5195   -0.9745    0.0000 C   0  0  0  0  0  0  0  0  0  0  0  0
  2  1  1  6
  2  3  1  0
  3  4  1  0
  4  5  1  0
  5  6  2  0
  5  7  1  0
  7  8  1  0
  8  9  1  0
  9 10  1  0
  2 11  1  0
 11 12  1  6
 12 13  1  0
 14 13  1  6
 14 15  1  0
 15 16  1  1
 16 17  1  1
 16 18  1  0
 19 18  1  1
 19 20  1  0
 20 21  1  0
 21 22  2  0
 21 23  1  0
 23 24  1  0
 24 25  1  0
 25 26  1  6
 25 27  1  0
 27 28  1  6
 28 29  1  0
 29 30  1  0
 30 31  1  6
 30 11  1  0
 30 14  1  0
 27 15  1  0
 25 19  1  0
M  END
>  <MS_ID>  (796) 
MS0830

>  <SMILES>  (796) 
C[C@H](CCC(=O)OCCN)[C@H]1CC[C@H]2[C@@H]3[C@H](O)C[C@@H]4CC(=O)CC[C@]4(C)[C@H]3CC[C@]12C

>  <Structure_dimension>  (796) 
2D

$$$$
MS0831
     RDKit          2D

 35 38  0  0  0  0  0  0  0  0999 V2000
   -1.6055   -4.5588    0.0000 C   0  0  0  0  0  0  0  0  0  0  0  0
   -0.9083   -3.2307    0.0000 C   0  0  0  0  0  0  0  0  0  0  0  0
   -1.7099   -1.9628    0.0000 C   0  0  0  0  0  0  0  0  0  0  0  0
   -3.2087   -2.0231    0.0000 C   0  0  0  0  0  0  0  0  0  0  0  0
   -4.0103   -0.7553    0.0000 C   0  0  0  0  0  0  0  0  0  0  0  0
   -3.3131    0.5729    0.0000 O   0  0  0  0  0  0  0  0  0  0  0  0
   -5.5091   -0.8155    0.0000 N   0  0  0  0  0  0  0  0  0  0  0  0
   -6.3107    0.4523    0.0000 C   0  0  0  0  0  0  0  0  0  0  0  0
   -7.8095    0.3920    0.0000 C   0  0  0  0  0  0  0  0  0  0  0  0
   -8.6111    1.6599    0.0000 C   0  0  0  0  0  0  0  0  0  0  0  0
  -10.1099    1.5996    0.0000 N   0  0  0  0  0  0  0  0  0  0  0  0
   -7.9139    2.9880    0.0000 O   0  0  0  0  0  0  0  0  0  0  0  0
   -5.6135    1.7804    0.0000 C   0  0  0  0  0  0  0  0  0  0  0  0
   -4.1147    1.8407    0.0000 O   0  0  0  0  0  0  0  0  0  0  0  0
   -6.4151    3.0483    0.0000 O   0  0  0  0  0  0  0  0  0  0  0  0
    0.5905   -3.1704    0.0000 C   0  0  0  0  0  0  0  0  0  0  0  0
    1.5202   -4.3475    0.0000 C   0  0  0  0  0  0  0  0  0  0  0  0
    2.9270   -3.8270    0.0000 C   0  0  0  0  0  0  0  0  0  0  0  0
    2.8667   -2.3282    0.0000 C   0  0  0  0  0  0  0  0  0  0  0  0
    3.9402   -1.2805    0.0000 C   0  0  0  0  0  0  0  0  0  0  0  0
    5.3843   -1.6864    0.0000 C   0  0  0  0  0  0  0  0  0  0  0  0
    6.4578   -0.6387    0.0000 C   0  0  0  0  0  0  0  0  0  0  0  0
    6.0872    0.8148    0.0000 C   0  0  0  0  0  0  0  0  0  0  0  0
    7.1607    1.8625    0.0000 C   0  0  0  0  0  0  0  0  0  0  0  0
    6.7901    3.3160    0.0000 C   0  0  0  0  0  0  0  0  0  0  0  0
    7.8636    4.3637    0.0000 O   0  0  0  0  0  0  0  0  0  0  0  0
    5.3460    3.7218    0.0000 C   0  0  0  0  0  0  0  0  0  0  0  0
    4.2725    2.6741    0.0000 C   0  0  0  0  0  0  0  0  0  0  0  0
    4.6431    1.2206    0.0000 C   0  0  0  0  0  0  0  0  0  0  0  0
    3.1991    1.6265    0.0000 C   0  0  0  0  0  0  0  0  0  0  0  0
    3.5696    0.1730    0.0000 C   0  0  0  0  0  0  0  0  0  0  0  0
    2.1256    0.5788    0.0000 C   0  0  0  0  0  0  0  0  0  0  0  0
    1.0521   -0.4689    0.0000 C   0  0  0  0  0  0  0  0  0  0  0  0
    1.4227   -1.9224    0.0000 C   0  0  0  0  0  0  0  0  0  0  0  0
   -0.0559   -1.6698    0.0000 C   0  0  0  0  0  0  0  0  0  0  0  0
  2  1  1  6
  2  3  1  0
  3  4  1  0
  4  5  1  0
  5  6  2  0
  5  7  1  0
  7  8  1  0
  8  9  1  1
  9 10  1  0
 10 11  1  0
 10 12  2  0
  8 13  1  0
 13 14  2  0
 13 15  1  0
  2 16  1  0
 16 17  1  6
 17 18  1  0
 19 18  1  6
 19 20  1  0
 20 21  1  1
 21 22  1  0
 23 22  1  1
 23 24  1  0
 24 25  1  0
 25 26  1  1
 25 27  1  0
 27 28  1  0
 28 29  1  0
 29 30  1  6
 29 31  1  0
 31 32  1  6
 32 33  1  0
 33 34  1  0
 34 35  1  6
 34 16  1  0
 34 19  1  0
 31 20  1  0
 29 23  1  0
M  END
>  <MS_ID>  (797) 
MS0831

>  <SMILES>  (797) 
C[C@H](CCC(=O)N[C@@H](CC(N)=O)C(=O)O)[C@H]1CC[C@H]2[C@@H]3CC[C@@H]4C[C@H](O)CC[C@]4(C)[C@H]3CC[C@]12C

>  <Structure_dimension>  (797) 
2D

$$$$
MS0832
     RDKit          2D

 34 38  0  0  0  0  0  0  0  0999 V2000
   -3.2858   -3.3478    0.0000 C   0  0  0  0  0  0  0  0  0  0  0  0
   -2.3538   -2.1725    0.0000 C   0  0  0  0  0  0  0  0  0  0  0  0
   -2.9057   -0.7777    0.0000 C   0  0  0  0  0  0  0  0  0  0  0  0
   -4.3895   -0.5582    0.0000 C   0  0  0  0  0  0  0  0  0  0  0  0
   -4.9414    0.8366    0.0000 C   0  0  0  0  0  0  0  0  0  0  0  0
   -4.0094    2.0119    0.0000 O   0  0  0  0  0  0  0  0  0  0  0  0
   -6.4253    1.0561    0.0000 C   0  0  0  0  0  0  0  0  0  0  0  0
   -6.9771    2.4509    0.0000 C   0  0  0  0  0  0  0  0  0  0  0  0
   -8.4610    2.6704    0.0000 N   0  0  0  0  0  0  0  0  0  0  0  0
   -9.3930    1.4950    0.0000 C   0  0  0  0  0  0  0  0  0  0  0  0
   -8.8411    0.1002    0.0000 C   0  0  0  0  0  0  0  0  0  0  0  0
   -7.3573   -0.1192    0.0000 N   0  0  0  0  0  0  0  0  0  0  0  0
   -0.8700   -2.3919    0.0000 C   0  0  0  0  0  0  0  0  0  0  0  0
   -0.1754   -3.7214    0.0000 C   0  0  0  0  0  0  0  0  0  0  0  0
    1.3037   -3.4716    0.0000 C   0  0  0  0  0  0  0  0  0  0  0  0
    1.5232   -1.9878    0.0000 C   0  0  0  0  0  0  0  0  0  0  0  0
    2.7728   -1.1580    0.0000 C   0  0  0  0  0  0  0  0  0  0  0  0
    4.1162   -1.8252    0.0000 C   0  0  0  0  0  0  0  0  0  0  0  0
    4.2100   -3.3223    0.0000 O   0  0  0  0  0  0  0  0  0  0  0  0
    5.3657   -0.9955    0.0000 C   0  0  0  0  0  0  0  0  0  0  0  0
    6.7092   -1.6627    0.0000 O   0  0  0  0  0  0  0  0  0  0  0  0
    5.2719    0.5016    0.0000 C   0  0  0  0  0  0  0  0  0  0  0  0
    6.5215    1.3314    0.0000 C   0  0  0  0  0  0  0  0  0  0  0  0
    6.4277    2.8285    0.0000 C   0  0  0  0  0  0  0  0  0  0  0  0
    7.6772    3.6583    0.0000 O   0  0  0  0  0  0  0  0  0  0  0  0
    5.0843    3.4957    0.0000 C   0  0  0  0  0  0  0  0  0  0  0  0
    3.8347    2.6659    0.0000 C   0  0  0  0  0  0  0  0  0  0  0  0
    3.9285    1.1689    0.0000 C   0  0  0  0  0  0  0  0  0  0  0  0
    2.5851    1.8362    0.0000 C   0  0  0  0  0  0  0  0  0  0  0  0
    2.6789    0.3391    0.0000 C   0  0  0  0  0  0  0  0  0  0  0  0
    1.3355    1.0064    0.0000 C   0  0  0  0  0  0  0  0  0  0  0  0
    0.0859    0.1766    0.0000 C   0  0  0  0  0  0  0  0  0  0  0  0
    0.1798   -1.3205    0.0000 C   0  0  0  0  0  0  0  0  0  0  0  0
   -1.2260   -0.7973    0.0000 C   0  0  0  0  0  0  0  0  0  0  0  0
  2  1  1  6
  2  3  1  0
  3  4  1  0
  4  5  1  0
  5  6  2  0
  5  7  1  0
  7  8  2  0
  8  9  1  0
  9 10  2  0
 10 11  1  0
 11 12  2  0
  2 13  1  0
 13 14  1  6
 14 15  1  0
 16 15  1  6
 16 17  1  0
 17 18  1  1
 18 19  1  1
 18 20  1  0
 20 21  1  1
 20 22  1  0
 22 23  1  1
 23 24  1  0
 24 25  1  1
 24 26  1  0
 26 27  1  0
 27 28  1  0
 28 29  1  6
 28 30  1  0
 30 31  1  6
 31 32  1  0
 32 33  1  0
 33 34  1  6
 12  7  1  0
 33 13  1  0
 33 16  1  0
 30 17  1  0
 28 22  1  0
M  END
>  <MS_ID>  (798) 
MS0832

>  <SMILES>  (798) 
C[C@H](CCC(=O)c1cnccn1)[C@H]1CC[C@H]2[C@@H]3[C@H](O)[C@H](O)[C@@H]4C[C@H](O)CC[C@]4(C)[C@H]3CC[C@]12C

>  <Structure_dimension>  (798) 
2D

$$$$
MS0833
     RDKit          2D

 34 37  0  0  0  0  0  0  0  0999 V2000
   -2.5260   -3.7099    0.0000 C   0  0  0  0  0  0  0  0  0  0  0  0
   -1.6579   -2.4867    0.0000 C   0  0  0  0  0  0  0  0  0  0  0  0
   -2.2832   -1.1232    0.0000 C   0  0  0  0  0  0  0  0  0  0  0  0
   -3.7766   -0.9831    0.0000 C   0  0  0  0  0  0  0  0  0  0  0  0
   -4.4020    0.3804    0.0000 C   0  0  0  0  0  0  0  0  0  0  0  0
   -3.5339    1.6036    0.0000 O   0  0  0  0  0  0  0  0  0  0  0  0
   -5.8954    0.5205    0.0000 C   0  0  0  0  0  0  0  0  0  0  0  0
   -6.5207    1.8839    0.0000 C   0  0  0  0  0  0  0  0  0  0  0  0
   -8.0142    2.0241    0.0000 C   0  0  0  0  0  0  0  0  0  0  0  0
   -8.6395    3.3875    0.0000 C   0  0  0  0  0  0  0  0  0  0  0  0
   -8.8823    0.8008    0.0000 C   0  0  0  0  0  0  0  0  0  0  0  0
   -8.2569   -0.5626    0.0000 O   0  0  0  0  0  0  0  0  0  0  0  0
  -10.3757    0.9410    0.0000 O   0  0  0  0  0  0  0  0  0  0  0  0
   -0.1644   -2.6268    0.0000 C   0  0  0  0  0  0  0  0  0  0  0  0
    0.6000   -3.9174    0.0000 C   0  0  0  0  0  0  0  0  0  0  0  0
    2.0637   -3.5892    0.0000 C   0  0  0  0  0  0  0  0  0  0  0  0
    2.2038   -2.0958    0.0000 C   0  0  0  0  0  0  0  0  0  0  0  0
    3.4074   -1.2006    0.0000 C   0  0  0  0  0  0  0  0  0  0  0  0
    4.7845   -1.7954    0.0000 C   0  0  0  0  0  0  0  0  0  0  0  0
    4.9579   -3.2854    0.0000 O   0  0  0  0  0  0  0  0  0  0  0  0
    5.9881   -0.9003    0.0000 C   0  0  0  0  0  0  0  0  0  0  0  0
    5.8147    0.5897    0.0000 C   0  0  0  0  0  0  0  0  0  0  0  0
    7.0183    1.4848    0.0000 C   0  0  0  0  0  0  0  0  0  0  0  0
    6.8449    2.9747    0.0000 C   0  0  0  0  0  0  0  0  0  0  0  0
    8.0485    3.8699    0.0000 O   0  0  0  0  0  0  0  0  0  0  0  0
    5.4679    3.5695    0.0000 C   0  0  0  0  0  0  0  0  0  0  0  0
    4.2643    2.6744    0.0000 C   0  0  0  0  0  0  0  0  0  0  0  0
    4.4377    1.1844    0.0000 C   0  0  0  0  0  0  0  0  0  0  0  0
    3.0606    1.7792    0.0000 C   0  0  0  0  0  0  0  0  0  0  0  0
    3.2340    0.2893    0.0000 C   0  0  0  0  0  0  0  0  0  0  0  0
    1.8570    0.8841    0.0000 C   0  0  0  0  0  0  0  0  0  0  0  0
    0.6534   -0.0111    0.0000 C   0  0  0  0  0  0  0  0  0  0  0  0
    0.8268   -1.5010    0.0000 C   0  0  0  0  0  0  0  0  0  0  0  0
   -0.6049   -1.0534    0.0000 C   0  0  0  0  0  0  0  0  0  0  0  0
  2  1  1  6
  2  3  1  0
  3  4  1  0
  4  5  1  0
  5  6  2  0
  5  7  1  0
  7  8  1  0
  8  9  1  0
  9 10  1  1
  9 11  1  0
 11 12  2  0
 11 13  1  0
  2 14  1  0
 14 15  1  6
 15 16  1  0
 17 16  1  6
 17 18  1  0
 18 19  1  1
 19 20  1  1
 19 21  1  0
 22 21  1  1
 22 23  1  0
 23 24  1  0
 24 25  1  1
 24 26  1  0
 26 27  1  0
 27 28  1  0
 28 29  1  6
 28 30  1  0
 30 31  1  6
 31 32  1  0
 32 33  1  0
 33 34  1  6
 33 14  1  0
 33 17  1  0
 30 18  1  0
 28 22  1  0
M  END
>  <MS_ID>  (799) 
MS0833

>  <SMILES>  (799) 
C[C@H](CCC(=O)CC[C@H](C)C(=O)O)[C@H]1CC[C@H]2[C@@H]3[C@H](O)C[C@@H]4C[C@H](O)CC[C@]4(C)[C@H]3CC[C@]12C

>  <Structure_dimension>  (799) 
2D

$$$$
MS0834
     RDKit          2D

 29 32  0  0  0  0  0  0  0  0999 V2000
   -4.5534   -2.6812    0.0000 C   0  0  0  0  0  0  0  0  0  0  0  0
   -3.4378   -1.6786    0.0000 C   0  0  0  0  0  0  0  0  0  0  0  0
   -3.7483   -0.2111    0.0000 C   0  0  0  0  0  0  0  0  0  0  0  0
   -5.1744    0.2538    0.0000 C   0  0  0  0  0  0  0  0  0  0  0  0
   -5.4850    1.7213    0.0000 C   0  0  0  0  0  0  0  0  0  0  0  0
   -4.3693    2.7239    0.0000 O   0  0  0  0  0  0  0  0  0  0  0  0
   -6.9111    2.1861    0.0000 N   0  0  0  0  0  0  0  0  0  0  0  0
   -7.2216    3.6536    0.0000 O   0  0  0  0  0  0  0  0  0  0  0  0
   -2.0116   -2.1434    0.0000 C   0  0  0  0  0  0  0  0  0  0  0  0
   -1.5494   -3.5704    0.0000 C   0  0  0  0  0  0  0  0  0  0  0  0
   -0.0494   -3.5718    0.0000 C   0  0  0  0  0  0  0  0  0  0  0  0
    0.4155   -2.1456    0.0000 C   0  0  0  0  0  0  0  0  0  0  0  0
    1.7863   -1.5368    0.0000 C   0  0  0  0  0  0  0  0  0  0  0  0
    2.9990   -2.4196    0.0000 C   0  0  0  0  0  0  0  0  0  0  0  0
    4.3699   -1.8107    0.0000 C   0  0  0  0  0  0  0  0  0  0  0  0
    4.5281   -0.3191    0.0000 C   0  0  0  0  0  0  0  0  0  0  0  0
    5.8990    0.2898    0.0000 C   0  0  0  0  0  0  0  0  0  0  0  0
    6.0571    1.7814    0.0000 C   0  0  0  0  0  0  0  0  0  0  0  0
    7.4280    2.3902    0.0000 O   0  0  0  0  0  0  0  0  0  0  0  0
    4.8444    2.6642    0.0000 C   0  0  0  0  0  0  0  0  0  0  0  0
    3.4735    2.0553    0.0000 C   0  0  0  0  0  0  0  0  0  0  0  0
    3.3154    0.5637    0.0000 C   0  0  0  0  0  0  0  0  0  0  0  0
    2.1026    1.4465    0.0000 C   0  0  0  0  0  0  0  0  0  0  0  0
    1.9445   -0.0451    0.0000 C   0  0  0  0  0  0  0  0  0  0  0  0
    0.7318    0.8376    0.0000 C   0  0  0  0  0  0  0  0  0  0  0  0
   -0.6391    0.2288    0.0000 C   0  0  0  0  0  0  0  0  0  0  0  0
   -1.8518    1.1116    0.0000 O   0  0  0  0  0  0  0  0  0  0  0  0
   -0.7973   -1.2628    0.0000 C   0  0  0  0  0  0  0  0  0  0  0  0
   -2.0956   -0.5116    0.0000 C   0  0  0  0  0  0  0  0  0  0  0  0
  2  1  1  6
  2  3  1  0
  3  4  1  0
  4  5  1  0
  5  6  2  0
  5  7  1  0
  7  8  1  0
  2  9  1  0
  9 10  1  6
 10 11  1  0
 12 11  1  6
 12 13  1  0
 13 14  1  1
 14 15  1  0
 16 15  1  1
 16 17  1  0
 17 18  1  0
 18 19  1  1
 18 20  1  0
 20 21  1  0
 21 22  1  0
 22 23  1  6
 22 24  1  0
 24 25  1  6
 25 26  1  0
 26 27  1  6
 26 28  1  0
 28 29  1  6
 28  9  1  0
 28 12  1  0
 24 13  1  0
 22 16  1  0
M  END
>  <MS_ID>  (800) 
MS0834

>  <SMILES>  (800) 
C[C@H](CCC(=O)NO)[C@H]1CC[C@H]2[C@@H]3CC[C@@H]4C[C@H](O)CC[C@]4(C)[C@H]3C[C@@H](O)[C@]12C

>  <Structure_dimension>  (800) 
2D

$$$$
MS0835
     RDKit          2D

 33 36  0  0  0  0  0  0  0  0999 V2000
   -3.0978   -3.6919    0.0000 C   0  0  0  0  0  0  0  0  0  0  0  0
   -2.2201   -2.4755    0.0000 C   0  0  0  0  0  0  0  0  0  0  0  0
   -2.8347   -1.1072    0.0000 C   0  0  0  0  0  0  0  0  0  0  0  0
   -4.3270   -0.9552    0.0000 C   0  0  0  0  0  0  0  0  0  0  0  0
   -4.9416    0.4131    0.0000 C   0  0  0  0  0  0  0  0  0  0  0  0
   -4.0639    1.6295    0.0000 O   0  0  0  0  0  0  0  0  0  0  0  0
   -6.4339    0.5650    0.0000 C   0  0  0  0  0  0  0  0  0  0  0  0
   -7.0484    1.9333    0.0000 C   0  0  0  0  0  0  0  0  0  0  0  0
   -8.5407    2.0852    0.0000 C   0  0  0  0  0  0  0  0  0  0  0  0
   -9.4184    0.8688    0.0000 O   0  0  0  0  0  0  0  0  0  0  0  0
   -9.1553    3.4535    0.0000 O   0  0  0  0  0  0  0  0  0  0  0  0
   -0.7278   -2.6274    0.0000 C   0  0  0  0  0  0  0  0  0  0  0  0
    0.0264   -3.9240    0.0000 C   0  0  0  0  0  0  0  0  0  0  0  0
    1.4926   -3.6073    0.0000 C   0  0  0  0  0  0  0  0  0  0  0  0
    1.6445   -2.1150    0.0000 C   0  0  0  0  0  0  0  0  0  0  0  0
    2.8552   -1.2294    0.0000 C   0  0  0  0  0  0  0  0  0  0  0  0
    4.2275   -1.8350    0.0000 C   0  0  0  0  0  0  0  0  0  0  0  0
    4.3891   -3.3263    0.0000 O   0  0  0  0  0  0  0  0  0  0  0  0
    5.4381   -0.9494    0.0000 C   0  0  0  0  0  0  0  0  0  0  0  0
    5.2764    0.5419    0.0000 C   0  0  0  0  0  0  0  0  0  0  0  0
    6.4871    1.4275    0.0000 C   0  0  0  0  0  0  0  0  0  0  0  0
    6.3254    2.9188    0.0000 C   0  0  0  0  0  0  0  0  0  0  0  0
    7.5360    3.8044    0.0000 O   0  0  0  0  0  0  0  0  0  0  0  0
    4.9531    3.5244    0.0000 C   0  0  0  0  0  0  0  0  0  0  0  0
    3.7425    2.6388    0.0000 C   0  0  0  0  0  0  0  0  0  0  0  0
    3.9041    1.1475    0.0000 C   0  0  0  0  0  0  0  0  0  0  0  0
    2.5318    1.7531    0.0000 C   0  0  0  0  0  0  0  0  0  0  0  0
    2.6935    0.2619    0.0000 C   0  0  0  0  0  0  0  0  0  0  0  0
    1.3212    0.8675    0.0000 C   0  0  0  0  0  0  0  0  0  0  0  0
    0.1105   -0.0181    0.0000 C   0  0  0  0  0  0  0  0  0  0  0  0
   -1.2618    0.5875    0.0000 O   0  0  0  0  0  0  0  0  0  0  0  0
    0.2722   -1.5094    0.0000 C   0  0  0  0  0  0  0  0  0  0  0  0
   -1.1559   -1.0505    0.0000 C   0  0  0  0  0  0  0  0  0  0  0  0
  2  1  1  6
  2  3  1  0
  3  4  1  0
  4  5  1  0
  5  6  2  0
  5  7  1  0
  7  8  1  0
  8  9  1  0
  9 10  2  0
  9 11  1  0
  2 12  1  0
 12 13  1  6
 13 14  1  0
 15 14  1  6
 15 16  1  0
 16 17  1  1
 17 18  1  6
 17 19  1  0
 20 19  1  1
 20 21  1  0
 21 22  1  0
 22 23  1  6
 22 24  1  0
 24 25  1  0
 25 26  1  0
 26 27  1  6
 26 28  1  0
 28 29  1  6
 29 30  1  0
 30 31  1  6
 30 32  1  0
 32 33  1  6
 32 12  1  0
 32 15  1  0
 28 16  1  0
 26 20  1  0
M  END
>  <MS_ID>  (801) 
MS0835

>  <SMILES>  (801) 
C[C@H](CCC(=O)CCC(=O)O)[C@H]1CC[C@H]2[C@@H]3[C@@H](O)C[C@@H]4C[C@@H](O)CC[C@]4(C)[C@H]3C[C@@H](O)[C@]12C

>  <Structure_dimension>  (801) 
2D

$$$$
MS0836
     RDKit          2D

 28 31  0  0  0  0  0  0  0  0999 V2000
   -6.2800   -1.2329    0.0000 C   0  0  0  0  0  0  0  0  0  0  0  0
   -4.9188   -1.8631    0.0000 C   0  0  0  0  0  0  0  0  0  0  0  0
   -3.6924   -0.9995    0.0000 C   0  0  0  0  0  0  0  0  0  0  0  0
   -3.8272    0.4945    0.0000 C   0  0  0  0  0  0  0  0  0  0  0  0
   -5.1883    1.1247    0.0000 C   0  0  0  0  0  0  0  0  0  0  0  0
   -5.3231    2.6187    0.0000 C   0  0  0  0  0  0  0  0  0  0  0  0
   -4.0967    3.4823    0.0000 O   0  0  0  0  0  0  0  0  0  0  0  0
   -6.6842    3.2490    0.0000 O   0  0  0  0  0  0  0  0  0  0  0  0
   -2.3312   -1.6297    0.0000 C   0  0  0  0  0  0  0  0  0  0  0  0
   -2.0411   -3.1014    0.0000 C   0  0  0  0  0  0  0  0  0  0  0  0
   -0.5518   -3.2802    0.0000 C   0  0  0  0  0  0  0  0  0  0  0  0
    0.0785   -1.9190    0.0000 C   0  0  0  0  0  0  0  0  0  0  0  0
    1.5118   -1.4766    0.0000 C   0  0  0  0  0  0  0  0  0  0  0  0
    2.6115   -2.4967    0.0000 C   0  0  0  0  0  0  0  0  0  0  0  0
    4.0448   -2.0543    0.0000 C   0  0  0  0  0  0  0  0  0  0  0  0
    4.3783   -0.5918    0.0000 C   0  0  0  0  0  0  0  0  0  0  0  0
    5.8116   -0.1494    0.0000 C   0  0  0  0  0  0  0  0  0  0  0  0
    6.1451    1.3130    0.0000 C   0  0  0  0  0  0  0  0  0  0  0  0
    7.5784    1.7555    0.0000 O   0  0  0  0  0  0  0  0  0  0  0  0
    5.0453    2.3331    0.0000 C   0  0  0  0  0  0  0  0  0  0  0  0
    3.6120    1.8907    0.0000 C   0  0  0  0  0  0  0  0  0  0  0  0
    3.2785    0.4282    0.0000 C   0  0  0  0  0  0  0  0  0  0  0  0
    2.1788    1.4483    0.0000 C   0  0  0  0  0  0  0  0  0  0  0  0
    1.8453   -0.0142    0.0000 C   0  0  0  0  0  0  0  0  0  0  0  0
    0.7455    1.0059    0.0000 C   0  0  0  0  0  0  0  0  0  0  0  0
   -0.6878    0.5635    0.0000 C   0  0  0  0  0  0  0  0  0  0  0  0
   -1.0213   -0.8990    0.0000 C   0  0  0  0  0  0  0  0  0  0  0  0
   -2.2217    0.0005    0.0000 C   0  0  0  0  0  0  0  0  0  0  0  0
  1  2  1  0
  3  2  1  6
  3  4  1  0
  4  5  1  0
  5  6  1  0
  6  7  2  0
  6  8  1  0
  3  9  1  0
  9 10  1  6
 10 11  1  0
 12 11  1  6
 12 13  1  0
 13 14  1  1
 14 15  1  0
 16 15  1  1
 16 17  1  0
 17 18  1  0
 18 19  1  1
 18 20  1  0
 20 21  1  0
 21 22  1  0
 22 23  1  6
 22 24  1  0
 24 25  1  6
 25 26  1  0
 26 27  1  0
 27 28  1  6
 27  9  1  0
 27 12  1  0
 24 13  1  0
 22 16  1  0
M  END
>  <MS_ID>  (802) 
MS0836

>  <SMILES>  (802) 
CC[C@H](CCC(=O)O)[C@H]1CC[C@H]2[C@@H]3CC[C@@H]4C[C@H](O)CC[C@]4(C)[C@H]3CC[C@]12C

>  <Structure_dimension>  (802) 
2D

$$$$
MS0837
     RDKit          2D

 29 32  0  0  0  0  0  0  0  0999 V2000
   -4.5534   -2.6812    0.0000 C   0  0  0  0  0  0  0  0  0  0  0  0
   -3.4378   -1.6786    0.0000 C   0  0  0  0  0  0  0  0  0  0  0  0
   -3.7483   -0.2111    0.0000 C   0  0  0  0  0  0  0  0  0  0  0  0
   -5.1744    0.2538    0.0000 C   0  0  0  0  0  0  0  0  0  0  0  0
   -5.4850    1.7213    0.0000 C   0  0  0  0  0  0  0  0  0  0  0  0
   -4.3693    2.7239    0.0000 O   0  0  0  0  0  0  0  0  0  0  0  0
   -6.9111    2.1861    0.0000 N   0  0  0  0  0  0  0  0  0  0  0  0
   -7.2216    3.6536    0.0000 N   0  0  0  0  0  0  0  0  0  0  0  0
   -2.0116   -2.1434    0.0000 C   0  0  0  0  0  0  0  0  0  0  0  0
   -1.5494   -3.5704    0.0000 C   0  0  0  0  0  0  0  0  0  0  0  0
   -0.0494   -3.5718    0.0000 C   0  0  0  0  0  0  0  0  0  0  0  0
    0.4155   -2.1456    0.0000 C   0  0  0  0  0  0  0  0  0  0  0  0
    1.7863   -1.5368    0.0000 C   0  0  0  0  0  0  0  0  0  0  0  0
    2.9990   -2.4196    0.0000 C   0  0  0  0  0  0  0  0  0  0  0  0
    4.3699   -1.8107    0.0000 C   0  0  0  0  0  0  0  0  0  0  0  0
    4.5281   -0.3191    0.0000 C   0  0  0  0  0  0  0  0  0  0  0  0
    5.8990    0.2898    0.0000 C   0  0  0  0  0  0  0  0  0  0  0  0
    6.0571    1.7814    0.0000 C   0  0  0  0  0  0  0  0  0  0  0  0
    7.4280    2.3902    0.0000 O   0  0  0  0  0  0  0  0  0  0  0  0
    4.8444    2.6642    0.0000 C   0  0  0  0  0  0  0  0  0  0  0  0
    3.4735    2.0553    0.0000 C   0  0  0  0  0  0  0  0  0  0  0  0
    3.3154    0.5637    0.0000 C   0  0  0  0  0  0  0  0  0  0  0  0
    2.1026    1.4465    0.0000 C   0  0  0  0  0  0  0  0  0  0  0  0
    1.9445   -0.0451    0.0000 C   0  0  0  0  0  0  0  0  0  0  0  0
    0.7318    0.8376    0.0000 C   0  0  0  0  0  0  0  0  0  0  0  0
   -0.6391    0.2288    0.0000 C   0  0  0  0  0  0  0  0  0  0  0  0
   -1.8518    1.1116    0.0000 O   0  0  0  0  0  0  0  0  0  0  0  0
   -0.7973   -1.2628    0.0000 C   0  0  0  0  0  0  0  0  0  0  0  0
   -2.0956   -0.5116    0.0000 C   0  0  0  0  0  0  0  0  0  0  0  0
  2  1  1  6
  2  3  1  0
  3  4  1  0
  4  5  1  0
  5  6  2  0
  5  7  1  0
  7  8  1  0
  2  9  1  0
  9 10  1  6
 10 11  1  0
 12 11  1  6
 12 13  1  0
 13 14  1  1
 14 15  1  0
 16 15  1  1
 16 17  1  0
 17 18  1  0
 18 19  1  6
 18 20  1  0
 20 21  1  0
 21 22  1  0
 22 23  1  6
 22 24  1  0
 24 25  1  6
 25 26  1  0
 26 27  1  1
 26 28  1  0
 28 29  1  6
 28  9  1  0
 28 12  1  0
 24 13  1  0
 22 16  1  0
M  END
>  <MS_ID>  (803) 
MS0837

>  <SMILES>  (803) 
C[C@H](CCC(=O)NN)[C@H]1CC[C@H]2[C@@H]3CC[C@@H]4C[C@@H](O)CC[C@]4(C)[C@H]3C[C@H](O)[C@]12C

>  <Structure_dimension>  (803) 
2D

$$$$
MS0840
     RDKit          2D

 30 33  0  0  0  0  0  0  0  0999 V2000
   -3.4429   -3.6587    0.0000 C   0  0  0  0  0  0  0  0  0  0  0  0
   -2.5352   -2.4646    0.0000 C   0  0  0  0  0  0  0  0  0  0  0  0
   -3.1155   -1.0814    0.0000 C   0  0  0  0  0  0  0  0  0  0  0  0
   -4.6036   -0.8924    0.0000 C   0  0  0  0  0  0  0  0  0  0  0  0
   -5.1839    0.4908    0.0000 C   0  0  0  0  0  0  0  0  0  0  0  0
   -6.6719    0.6799    0.0000 O   0  0  0  0  0  0  0  0  0  0  0  0
   -4.2762    1.6850    0.0000 O   0  0  0  0  0  0  0  0  0  0  0  0
   -4.8565    3.0682    0.0000 C   0  0  0  0  0  0  0  0  0  0  0  0
   -6.3445    3.2572    0.0000 O   0  0  0  0  0  0  0  0  0  0  0  0
   -3.9488    4.2624    0.0000 O   0  0  0  0  0  0  0  0  0  0  0  0
   -1.0471   -2.6536    0.0000 C   0  0  0  0  0  0  0  0  0  0  0  0
   -0.3254   -3.9685    0.0000 C   0  0  0  0  0  0  0  0  0  0  0  0
    1.1482   -3.6885    0.0000 C   0  0  0  0  0  0  0  0  0  0  0  0
    1.3372   -2.2004    0.0000 C   0  0  0  0  0  0  0  0  0  0  0  0
    2.5695   -1.3452    0.0000 C   0  0  0  0  0  0  0  0  0  0  0  0
    3.9263   -1.9848    0.0000 C   0  0  0  0  0  0  0  0  0  0  0  0
    5.1587   -1.1296    0.0000 C   0  0  0  0  0  0  0  0  0  0  0  0
    5.0342    0.3653    0.0000 C   0  0  0  0  0  0  0  0  0  0  0  0
    6.2665    1.2205    0.0000 C   0  0  0  0  0  0  0  0  0  0  0  0
    6.1420    2.7153    0.0000 C   0  0  0  0  0  0  0  0  0  0  0  0
    4.7852    3.3549    0.0000 C   0  0  0  0  0  0  0  0  0  0  0  0
    3.5529    2.4997    0.0000 C   0  0  0  0  0  0  0  0  0  0  0  0
    3.6774    1.0049    0.0000 C   0  0  0  0  0  0  0  0  0  0  0  0
    2.3206    1.6445    0.0000 C   0  0  0  0  0  0  0  0  0  0  0  0
    2.4450    0.1496    0.0000 C   0  0  0  0  0  0  0  0  0  0  0  0
    1.0882    0.7892    0.0000 C   0  0  0  0  0  0  0  0  0  0  0  0
   -0.1441   -0.0660    0.0000 C   0  0  0  0  0  0  0  0  0  0  0  0
   -1.5009    0.5736    0.0000 O   0  0  0  0  0  0  0  0  0  0  0  0
   -0.0196   -1.5608    0.0000 C   0  0  0  0  0  0  0  0  0  0  0  0
   -1.4358   -1.0666    0.0000 C   0  0  0  0  0  0  0  0  0  0  0  0
  2  1  1  6
  2  3  1  0
  3  4  1  0
  4  5  1  0
  5  6  2  0
  5  7  1  0
  7  8  1  0
  8  9  2  0
  8 10  1  0
  2 11  1  0
 11 12  1  6
 12 13  1  0
 14 13  1  6
 14 15  1  0
 15 16  1  1
 16 17  1  0
 18 17  1  1
 18 19  1  0
 19 20  1  0
 20 21  1  0
 21 22  1  0
 22 23  1  0
 23 24  1  6
 23 25  1  0
 25 26  1  6
 26 27  1  0
 27 28  1  1
 27 29  1  0
 29 30  1  6
 29 11  1  0
 29 14  1  0
 25 15  1  0
 23 18  1  0
M  END
>  <MS_ID>  (804) 
MS0840

>  <SMILES>  (804) 
C[C@H](CCC(=O)OC(=O)O)[C@H]1CC[C@H]2[C@@H]3CC[C@@H]4CCCC[C@]4(C)[C@H]3C[C@H](O)[C@]12C

>  <Structure_dimension>  (804) 
2D

$$$$
MS0841
     RDKit          2D

 29 32  0  0  0  0  0  0  0  0999 V2000
   -4.6958   -2.6034    0.0000 C   0  0  0  0  0  0  0  0  0  0  0  0
   -3.5597   -1.6240    0.0000 C   0  0  0  0  0  0  0  0  0  0  0  0
   -3.8399   -0.1504    0.0000 C   0  0  0  0  0  0  0  0  0  0  0  0
   -5.2561    0.3438    0.0000 C   0  0  0  0  0  0  0  0  0  0  0  0
   -5.5363    1.8174    0.0000 C   0  0  0  0  0  0  0  0  0  0  0  0
   -6.9525    2.3116    0.0000 O   0  0  0  0  0  0  0  0  0  0  0  0
   -4.4002    2.7968    0.0000 O   0  0  0  0  0  0  0  0  0  0  0  0
   -4.6804    4.2704    0.0000 N   0  0  0  0  0  0  0  0  0  0  0  0
   -2.1434   -2.1182    0.0000 C   0  0  0  0  0  0  0  0  0  0  0  0
   -1.7108   -3.5544    0.0000 C   0  0  0  0  0  0  0  0  0  0  0  0
   -0.2111   -3.5867    0.0000 C   0  0  0  0  0  0  0  0  0  0  0  0
    0.2831   -2.1705    0.0000 C   0  0  0  0  0  0  0  0  0  0  0  0
    1.6662   -1.5901    0.0000 C   0  0  0  0  0  0  0  0  0  0  0  0
    2.8605   -2.4977    0.0000 C   0  0  0  0  0  0  0  0  0  0  0  0
    4.2436   -1.9173    0.0000 C   0  0  0  0  0  0  0  0  0  0  0  0
    4.4325   -0.4292    0.0000 C   0  0  0  0  0  0  0  0  0  0  0  0
    5.8157    0.1512    0.0000 C   0  0  0  0  0  0  0  0  0  0  0  0
    6.0046    1.6393    0.0000 C   0  0  0  0  0  0  0  0  0  0  0  0
    7.3877    2.2197    0.0000 O   0  0  0  0  0  0  0  0  0  0  0  0
    4.8103    2.5469    0.0000 C   0  0  0  0  0  0  0  0  0  0  0  0
    3.4272    1.9665    0.0000 C   0  0  0  0  0  0  0  0  0  0  0  0
    3.2383    0.4784    0.0000 C   0  0  0  0  0  0  0  0  0  0  0  0
    2.0440    1.3861    0.0000 C   0  0  0  0  0  0  0  0  0  0  0  0
    1.8551   -0.1020    0.0000 C   0  0  0  0  0  0  0  0  0  0  0  0
    0.6609    0.8056    0.0000 C   0  0  0  0  0  0  0  0  0  0  0  0
   -0.7223    0.2252    0.0000 C   0  0  0  0  0  0  0  0  0  0  0  0
   -1.9165    1.1328    0.0000 O   0  0  0  0  0  0  0  0  0  0  0  0
   -0.9112   -1.2628    0.0000 C   0  0  0  0  0  0  0  0  0  0  0  0
   -2.1937   -0.4850    0.0000 C   0  0  0  0  0  0  0  0  0  0  0  0
  2  1  1  6
  2  3  1  0
  3  4  1  0
  4  5  1  0
  5  6  2  0
  5  7  1  0
  7  8  1  0
  2  9  1  0
  9 10  1  6
 10 11  1  0
 12 11  1  6
 12 13  1  0
 13 14  1  1
 14 15  1  0
 16 15  1  1
 16 17  1  0
 17 18  1  0
 18 19  1  1
 18 20  1  0
 20 21  1  0
 21 22  1  0
 22 23  1  6
 22 24  1  0
 24 25  1  6
 25 26  1  0
 26 27  1  1
 26 28  1  0
 28 29  1  6
 28  9  1  0
 28 12  1  0
 24 13  1  0
 22 16  1  0
M  END
>  <MS_ID>  (805) 
MS0841

>  <SMILES>  (805) 
C[C@H](CCC(=O)ON)[C@H]1CC[C@H]2[C@@H]3CC[C@@H]4C[C@H](O)CC[C@]4(C)[C@H]3C[C@H](O)[C@]12C

>  <Structure_dimension>  (805) 
2D

$$$$
MS0842
     RDKit          2D

 27 30  0  0  0  0  0  0  0  0999 V2000
   -4.7316   -2.2462    0.0000 C   0  0  0  0  0  0  0  0  0  0  0  0
   -3.6106   -1.2495    0.0000 C   0  0  0  0  0  0  0  0  0  0  0  0
   -3.9133    0.2196    0.0000 C   0  0  0  0  0  0  0  0  0  0  0  0
   -5.3370    0.6920    0.0000 C   0  0  0  0  0  0  0  0  0  0  0  0
   -5.6397    2.1612    0.0000 C   0  0  0  0  0  0  0  0  0  0  0  0
   -4.5188    3.1579    0.0000 O   0  0  0  0  0  0  0  0  0  0  0  0
   -7.0634    2.6336    0.0000 O   0  0  0  0  0  0  0  0  0  0  0  0
   -2.1870   -1.7219    0.0000 C   0  0  0  0  0  0  0  0  0  0  0  0
   -1.7323   -3.1514    0.0000 C   0  0  0  0  0  0  0  0  0  0  0  0
   -0.2324   -3.1607    0.0000 C   0  0  0  0  0  0  0  0  0  0  0  0
    0.2401   -1.7371    0.0000 C   0  0  0  0  0  0  0  0  0  0  0  0
    1.6141   -1.1355    0.0000 C   0  0  0  0  0  0  0  0  0  0  0  0
    2.8222   -2.0247    0.0000 C   0  0  0  0  0  0  0  0  0  0  0  0
    2.6561   -3.5155    0.0000 S   0  0  0  0  0  0  0  0  0  0  0  0
    4.1962   -1.4232    0.0000 C   0  0  0  0  0  0  0  0  0  0  0  0
    4.3623    0.0676    0.0000 C   0  0  0  0  0  0  0  0  0  0  0  0
    5.7364    0.6691    0.0000 C   0  0  0  0  0  0  0  0  0  0  0  0
    5.9025    2.1599    0.0000 C   0  0  0  0  0  0  0  0  0  0  0  0
    4.6945    3.0491    0.0000 C   0  0  0  0  0  0  0  0  0  0  0  0
    3.3204    2.4476    0.0000 C   0  0  0  0  0  0  0  0  0  0  0  0
    3.1543    0.9568    0.0000 C   0  0  0  0  0  0  0  0  0  0  0  0
    1.9463    1.8460    0.0000 C   0  0  0  0  0  0  0  0  0  0  0  0
    1.7802    0.3553    0.0000 C   0  0  0  0  0  0  0  0  0  0  0  0
    0.5722    1.2445    0.0000 C   0  0  0  0  0  0  0  0  0  0  0  0
   -0.8019    0.6429    0.0000 C   0  0  0  0  0  0  0  0  0  0  0  0
   -0.9680   -0.8478    0.0000 C   0  0  0  0  0  0  0  0  0  0  0  0
   -2.2623   -0.0897    0.0000 C   0  0  0  0  0  0  0  0  0  0  0  0
  2  1  1  6
  2  3  1  0
  3  4  1  0
  4  5  1  0
  5  6  2  0
  5  7  1  0
  2  8  1  0
  8  9  1  6
  9 10  1  0
 11 10  1  6
 11 12  1  0
 12 13  1  1
 13 14  1  1
 13 15  1  0
 16 15  1  1
 16 17  1  0
 17 18  1  0
 18 19  1  0
 19 20  1  0
 20 21  1  0
 21 22  1  6
 21 23  1  0
 23 24  1  6
 24 25  1  0
 25 26  1  0
 26 27  1  6
 26  8  1  0
 26 11  1  0
 23 12  1  0
 21 16  1  0
M  END
>  <MS_ID>  (806) 
MS0842

>  <SMILES>  (806) 
C[C@H](CCC(=O)O)[C@H]1CC[C@H]2[C@@H]3[C@H](S)C[C@@H]4CCCC[C@]4(C)[C@H]3CC[C@]12C

>  <Structure_dimension>  (806) 
2D

$$$$
MS0843
     RDKit          2D

 30 33  0  0  0  0  0  0  0  0999 V2000
   -7.4279    3.5601    0.0000 C   0  0  0  0  0  0  0  0  0  0  0  0
   -7.0729    2.1027    0.0000 O   0  0  0  0  0  0  0  0  0  0  0  0
   -5.6333    1.6814    0.0000 C   0  0  0  0  0  0  0  0  0  0  0  0
   -4.5486    2.7174    0.0000 O   0  0  0  0  0  0  0  0  0  0  0  0
   -5.2784    0.2240    0.0000 C   0  0  0  0  0  0  0  0  0  0  0  0
   -3.8388   -0.1974    0.0000 C   0  0  0  0  0  0  0  0  0  0  0  0
   -3.4838   -1.6548    0.0000 C   0  0  0  0  0  0  0  0  0  0  0  0
   -4.5685   -2.6908    0.0000 C   0  0  0  0  0  0  0  0  0  0  0  0
   -2.0442   -2.0761    0.0000 C   0  0  0  0  0  0  0  0  0  0  0  0
   -1.5389   -3.4884    0.0000 C   0  0  0  0  0  0  0  0  0  0  0  0
   -0.0395   -3.4442    0.0000 C   0  0  0  0  0  0  0  0  0  0  0  0
    0.3818   -2.0046    0.0000 C   0  0  0  0  0  0  0  0  0  0  0  0
    1.7336   -1.3544    0.0000 C   0  0  0  0  0  0  0  0  0  0  0  0
    2.9725   -2.1999    0.0000 C   0  0  0  0  0  0  0  0  0  0  0  0
    2.8597   -3.6957    0.0000 O   0  0  0  0  0  0  0  0  0  0  0  0
    4.3243   -1.5497    0.0000 C   0  0  0  0  0  0  0  0  0  0  0  0
    4.4371   -0.0540    0.0000 C   0  0  0  0  0  0  0  0  0  0  0  0
    5.7888    0.5962    0.0000 C   0  0  0  0  0  0  0  0  0  0  0  0
    5.9016    2.0920    0.0000 C   0  0  0  0  0  0  0  0  0  0  0  0
    7.2534    2.7422    0.0000 O   0  0  0  0  0  0  0  0  0  0  0  0
    4.6627    2.9375    0.0000 C   0  0  0  0  0  0  0  0  0  0  0  0
    3.3109    2.2873    0.0000 C   0  0  0  0  0  0  0  0  0  0  0  0
    3.1981    0.7916    0.0000 C   0  0  0  0  0  0  0  0  0  0  0  0
    1.9591    1.6371    0.0000 C   0  0  0  0  0  0  0  0  0  0  0  0
    1.8464    0.1414    0.0000 C   0  0  0  0  0  0  0  0  0  0  0  0
    0.6074    0.9869    0.0000 C   0  0  0  0  0  0  0  0  0  0  0  0
   -0.7444    0.3367    0.0000 C   0  0  0  0  0  0  0  0  0  0  0  0
   -1.9833    1.1823    0.0000 O   0  0  0  0  0  0  0  0  0  0  0  0
   -0.8572   -1.1590    0.0000 C   0  0  0  0  0  0  0  0  0  0  0  0
   -2.1777   -0.4476    0.0000 C   0  0  0  0  0  0  0  0  0  0  0  0
  1  2  1  0
  2  3  1  0
  3  4  2  0
  3  5  1  0
  5  6  1  0
  6  7  1  0
  7  8  1  6
  7  9  1  0
  9 10  1  6
 10 11  1  0
 12 11  1  6
 12 13  1  0
 13 14  1  1
 14 15  1  6
 14 16  1  0
 17 16  1  1
 17 18  1  0
 18 19  1  0
 19 20  1  1
 19 21  1  0
 21 22  1  0
 22 23  1  0
 23 24  1  6
 23 25  1  0
 25 26  1  6
 26 27  1  0
 27 28  1  1
 27 29  1  0
 29 30  1  6
 29  9  1  0
 29 12  1  0
 25 13  1  0
 23 17  1  0
M  END
>  <MS_ID>  (807) 
MS0843

>  <SMILES>  (807) 
COC(=O)CC[C@@H](C)[C@H]1CC[C@H]2[C@@H]3[C@@H](O)C[C@@H]4C[C@H](O)CC[C@]4(C)[C@H]3C[C@H](O)[C@]12C

>  <Structure_dimension>  (807) 
2D

$$$$
MS0844
     RDKit          2D

 32 35  0  0  0  0  0  0  0  0999 V2000
   -3.3600   -3.6470    0.0000 C   0  0  0  0  0  0  0  0  0  0  0  0
   -2.4640   -2.4440    0.0000 C   0  0  0  0  0  0  0  0  0  0  0  0
   -3.0579   -1.0666    0.0000 C   0  0  0  0  0  0  0  0  0  0  0  0
   -4.5477   -0.8922    0.0000 C   0  0  0  0  0  0  0  0  0  0  0  0
   -5.1416    0.4852    0.0000 C   0  0  0  0  0  0  0  0  0  0  0  0
   -4.2456    1.6883    0.0000 O   0  0  0  0  0  0  0  0  0  0  0  0
   -6.6314    0.6596    0.0000 N   0  0  0  0  0  0  0  0  0  0  0  0
   -7.2253    2.0371    0.0000 C   0  0  0  0  0  0  0  0  0  0  0  0
   -5.8479    2.6309    0.0000 C   0  0  0  0  0  0  0  0  0  0  0  0
   -8.6027    1.4432    0.0000 C   0  0  0  0  0  0  0  0  0  0  0  0
   -7.8192    3.4145    0.0000 O   0  0  0  0  0  0  0  0  0  0  0  0
   -0.9742   -2.6184    0.0000 C   0  0  0  0  0  0  0  0  0  0  0  0
   -0.2396   -3.9262    0.0000 C   0  0  0  0  0  0  0  0  0  0  0  0
    1.2312   -3.6317    0.0000 C   0  0  0  0  0  0  0  0  0  0  0  0
    1.4056   -2.1419    0.0000 C   0  0  0  0  0  0  0  0  0  0  0  0
    2.6295   -1.2746    0.0000 C   0  0  0  0  0  0  0  0  0  0  0  0
    3.9925   -1.9008    0.0000 C   0  0  0  0  0  0  0  0  0  0  0  0
    4.1317   -3.3944    0.0000 O   0  0  0  0  0  0  0  0  0  0  0  0
    5.2163   -1.0336    0.0000 C   0  0  0  0  0  0  0  0  0  0  0  0
    5.0772    0.4600    0.0000 C   0  0  0  0  0  0  0  0  0  0  0  0
    6.3010    1.3273    0.0000 C   0  0  0  0  0  0  0  0  0  0  0  0
    6.1619    2.8208    0.0000 C   0  0  0  0  0  0  0  0  0  0  0  0
    7.3857    3.6881    0.0000 O   0  0  0  0  0  0  0  0  0  0  0  0
    4.7989    3.4470    0.0000 C   0  0  0  0  0  0  0  0  0  0  0  0
    3.5750    2.5798    0.0000 C   0  0  0  0  0  0  0  0  0  0  0  0
    3.7142    1.0862    0.0000 C   0  0  0  0  0  0  0  0  0  0  0  0
    2.3511    1.7125    0.0000 C   0  0  0  0  0  0  0  0  0  0  0  0
    2.4903    0.2189    0.0000 C   0  0  0  0  0  0  0  0  0  0  0  0
    1.1273    0.8452    0.0000 C   0  0  0  0  0  0  0  0  0  0  0  0
   -0.0966   -0.0221    0.0000 C   0  0  0  0  0  0  0  0  0  0  0  0
    0.0426   -1.5156    0.0000 C   0  0  0  0  0  0  0  0  0  0  0  0
   -1.3784   -1.0353    0.0000 C   0  0  0  0  0  0  0  0  0  0  0  0
  2  1  1  6
  2  3  1  0
  3  4  1  0
  4  5  1  0
  5  6  2  0
  5  7  1  0
  7  8  1  0
  8  9  1  0
  8 10  1  0
  8 11  1  0
  2 12  1  0
 12 13  1  6
 13 14  1  0
 15 14  1  6
 15 16  1  0
 16 17  1  1
 17 18  1  1
 17 19  1  0
 20 19  1  1
 20 21  1  0
 21 22  1  0
 22 23  1  1
 22 24  1  0
 24 25  1  0
 25 26  1  0
 26 27  1  6
 26 28  1  0
 28 29  1  6
 29 30  1  0
 30 31  1  0
 31 32  1  6
 31 12  1  0
 31 15  1  0
 28 16  1  0
 26 20  1  0
M  END
>  <MS_ID>  (808) 
MS0844

>  <SMILES>  (808) 
C[C@H](CCC(=O)NC(C)(C)O)[C@H]1CC[C@H]2[C@@H]3[C@H](O)C[C@@H]4C[C@H](O)CC[C@]4(C)[C@H]3CC[C@]12C

>  <Structure_dimension>  (808) 
2D

$$$$
MS0845
     RDKit          2D

 34 37  0  0  0  0  0  0  0  0999 V2000
   -5.6784    2.5498    0.0000 C   0  0  0  0  0  0  0  0  0  0  0  0
   -4.4326    1.7144    0.0000 C   0  0  0  0  0  0  0  0  0  0  0  0
   -3.0862    2.3756    0.0000 C   0  0  0  0  0  0  0  0  0  0  0  0
   -4.5332    0.2178    0.0000 C   0  0  0  0  0  0  0  0  0  0  0  0
   -5.8796   -0.4434    0.0000 C   0  0  0  0  0  0  0  0  0  0  0  0
   -7.1254    0.3920    0.0000 C   0  0  0  0  0  0  0  0  0  0  0  0
   -8.4719   -0.2691    0.0000 C   0  0  0  0  0  0  0  0  0  0  0  0
   -8.5725   -1.7657    0.0000 O   0  0  0  0  0  0  0  0  0  0  0  0
   -9.7177    0.5663    0.0000 O   0  0  0  0  0  0  0  0  0  0  0  0
   -3.2874   -0.6177    0.0000 C   0  0  0  0  0  0  0  0  0  0  0  0
   -3.2310   -2.1166    0.0000 C   0  0  0  0  0  0  0  0  0  0  0  0
   -1.7880   -2.5262    0.0000 C   0  0  0  0  0  0  0  0  0  0  0  0
   -0.9526   -1.2804    0.0000 C   0  0  0  0  0  0  0  0  0  0  0  0
    0.5322   -1.0677    0.0000 C   0  0  0  0  0  0  0  0  0  0  0  0
    1.4589   -2.2472    0.0000 C   0  0  0  0  0  0  0  0  0  0  0  0
    0.9007   -3.6395    0.0000 O   0  0  0  0  0  0  0  0  0  0  0  0
    2.9437   -2.0345    0.0000 C   0  0  0  0  0  0  0  0  0  0  0  0
    3.5019   -0.6422    0.0000 C   0  0  0  0  0  0  0  0  0  0  0  0
    4.9868   -0.4294    0.0000 C   0  0  0  0  0  0  0  0  0  0  0  0
    5.5449    0.9628    0.0000 C   0  0  0  0  0  0  0  0  0  0  0  0
    7.0298    1.1756    0.0000 O   0  0  0  0  0  0  0  0  0  0  0  0
    7.9564   -0.0040    0.0000 S   0  0  0  0  0  0  0  0  0  0  0  0
    6.7769   -0.9306    0.0000 O   0  0  0  0  0  0  0  0  0  0  0  0
    9.1360    0.9227    0.0000 O   0  0  0  0  0  0  0  0  0  0  0  0
    8.8831   -1.1835    0.0000 O   0  0  0  0  0  0  0  0  0  0  0  0
    4.6183    2.1424    0.0000 C   0  0  0  0  0  0  0  0  0  0  0  0
    3.1334    1.9296    0.0000 C   0  0  0  0  0  0  0  0  0  0  0  0
    2.5753    0.5373    0.0000 C   0  0  0  0  0  0  0  0  0  0  0  0
    1.6486    1.7169    0.0000 C   0  0  0  0  0  0  0  0  0  0  0  0
    1.0904    0.3246    0.0000 C   0  0  0  0  0  0  0  0  0  0  0  0
    0.1638    1.5041    0.0000 C   0  0  0  0  0  0  0  0  0  0  0  0
   -1.3211    1.2914    0.0000 C   0  0  0  0  0  0  0  0  0  0  0  0
   -1.8793   -0.1009    0.0000 C   0  0  0  0  0  0  0  0  0  0  0  0
   -2.9241    0.9753    0.0000 C   0  0  0  0  0  0  0  0  0  0  0  0
  1  2  1  0
  2  3  1  0
  2  4  1  0
  4  5  1  1
  5  6  1  0
  6  7  1  0
  7  8  2  0
  7  9  1  0
  4 10  1  0
 10 11  1  6
 11 12  1  0
 13 12  1  6
 13 14  1  0
 14 15  1  1
 15 16  1  6
 15 17  1  0
 18 17  1  1
 18 19  1  0
 19 20  1  0
 20 21  1  1
 21 22  1  0
 22 23  2  0
 22 24  2  0
 22 25  1  0
 20 26  1  0
 26 27  1  0
 27 28  1  0
 28 29  1  6
 28 30  1  0
 30 31  1  6
 31 32  1  0
 32 33  1  0
 33 34  1  6
 33 10  1  0
 33 13  1  0
 30 14  1  0
 28 18  1  0
M  END
>  <MS_ID>  (809) 
MS0845

>  <SMILES>  (809) 
CC(C)[C@H](CCC(=O)O)[C@H]1CC[C@H]2[C@@H]3[C@@H](O)C[C@@H]4C[C@H](OS(=O)(=O)O)CC[C@]4(C)[C@H]3CC[C@]12C

>  <Structure_dimension>  (809) 
2D

$$$$
MS0846
     RDKit          2D

 31 34  0  0  0  0  0  0  0  0999 V2000
   -3.5119   -3.5779    0.0000 C   0  0  0  0  0  0  0  0  0  0  0  0
   -2.6109   -2.3787    0.0000 C   0  0  0  0  0  0  0  0  0  0  0  0
   -3.1991   -0.9988    0.0000 C   0  0  0  0  0  0  0  0  0  0  0  0
   -4.6881   -0.8181    0.0000 C   0  0  0  0  0  0  0  0  0  0  0  0
   -5.2762    0.5618    0.0000 C   0  0  0  0  0  0  0  0  0  0  0  0
   -4.3753    1.7610    0.0000 O   0  0  0  0  0  0  0  0  0  0  0  0
   -6.7653    0.7424    0.0000 C   0  0  0  0  0  0  0  0  0  0  0  0
   -7.3534    2.1223    0.0000 C   0  0  0  0  0  0  0  0  0  0  0  0
   -8.8425    2.3029    0.0000 C   0  0  0  0  0  0  0  0  0  0  0  0
   -9.4306    3.6828    0.0000 O   0  0  0  0  0  0  0  0  0  0  0  0
   -1.1219   -2.5593    0.0000 C   0  0  0  0  0  0  0  0  0  0  0  0
   -0.3927   -3.8702    0.0000 C   0  0  0  0  0  0  0  0  0  0  0  0
    1.0793   -3.5818    0.0000 C   0  0  0  0  0  0  0  0  0  0  0  0
    1.2599   -2.0927    0.0000 C   0  0  0  0  0  0  0  0  0  0  0  0
    2.4874   -1.2306    0.0000 C   0  0  0  0  0  0  0  0  0  0  0  0
    3.8478   -1.8625    0.0000 C   0  0  0  0  0  0  0  0  0  0  0  0
    3.9807   -3.3566    0.0000 O   0  0  0  0  0  0  0  0  0  0  0  0
    5.0753   -1.0003    0.0000 C   0  0  0  0  0  0  0  0  0  0  0  0
    4.9423    0.4938    0.0000 C   0  0  0  0  0  0  0  0  0  0  0  0
    6.1698    1.3559    0.0000 C   0  0  0  0  0  0  0  0  0  0  0  0
    6.0369    2.8500    0.0000 C   0  0  0  0  0  0  0  0  0  0  0  0
    7.2644    3.7122    0.0000 O   0  0  0  0  0  0  0  0  0  0  0  0
    4.6765    3.4820    0.0000 C   0  0  0  0  0  0  0  0  0  0  0  0
    3.4490    2.6198    0.0000 C   0  0  0  0  0  0  0  0  0  0  0  0
    3.5820    1.1257    0.0000 C   0  0  0  0  0  0  0  0  0  0  0  0
    2.2216    1.7576    0.0000 C   0  0  0  0  0  0  0  0  0  0  0  0
    2.3545    0.2635    0.0000 C   0  0  0  0  0  0  0  0  0  0  0  0
    0.9941    0.8955    0.0000 C   0  0  0  0  0  0  0  0  0  0  0  0
   -0.2334    0.0333    0.0000 C   0  0  0  0  0  0  0  0  0  0  0  0
   -0.1005   -1.4608    0.0000 C   0  0  0  0  0  0  0  0  0  0  0  0
   -1.5195   -0.9745    0.0000 C   0  0  0  0  0  0  0  0  0  0  0  0
  2  1  1  6
  2  3  1  0
  3  4  1  0
  4  5  1  0
  5  6  2  0
  5  7  1  0
  7  8  1  0
  8  9  1  0
  9 10  1  0
  2 11  1  0
 11 12  1  6
 12 13  1  0
 14 13  1  6
 14 15  1  0
 15 16  1  1
 16 17  1  1
 16 18  1  0
 19 18  1  1
 19 20  1  0
 20 21  1  0
 21 22  1  1
 21 23  1  0
 23 24  1  0
 24 25  1  0
 25 26  1  6
 25 27  1  0
 27 28  1  6
 28 29  1  0
 29 30  1  0
 30 31  1  6
 30 11  1  0
 30 14  1  0
 27 15  1  0
 25 19  1  0
M  END
>  <MS_ID>  (810) 
MS0846

>  <SMILES>  (810) 
C[C@H](CCC(=O)CCCO)[C@H]1CC[C@H]2[C@@H]3[C@H](O)C[C@@H]4C[C@H](O)CC[C@]4(C)[C@H]3CC[C@]12C

>  <Structure_dimension>  (810) 
2D

$$$$
MS0847
     RDKit          2D

 28 31  0  0  0  0  0  0  0  0999 V2000
   -4.2208   -2.8067    0.0000 C   0  0  0  0  0  0  0  0  0  0  0  0
   -3.1997   -1.7079    0.0000 C   0  0  0  0  0  0  0  0  0  0  0  0
   -3.6407   -0.2742    0.0000 C   0  0  0  0  0  0  0  0  0  0  0  0
   -5.1028    0.0607    0.0000 C   0  0  0  0  0  0  0  0  0  0  0  0
   -5.5438    1.4944    0.0000 C   0  0  0  0  0  0  0  0  0  0  0  0
   -4.5227    2.5932    0.0000 O   0  0  0  0  0  0  0  0  0  0  0  0
   -7.0059    1.8294    0.0000 C   0  0  0  0  0  0  0  0  0  0  0  0
   -7.4469    3.2631    0.0000 O   0  0  0  0  0  0  0  0  0  0  0  0
   -1.7376   -2.0429    0.0000 C   0  0  0  0  0  0  0  0  0  0  0  0
   -1.1491   -3.4226    0.0000 C   0  0  0  0  0  0  0  0  0  0  0  0
    0.3450   -3.2894    0.0000 C   0  0  0  0  0  0  0  0  0  0  0  0
    0.6799   -1.8272    0.0000 C   0  0  0  0  0  0  0  0  0  0  0  0
    1.9906   -1.0978    0.0000 C   0  0  0  0  0  0  0  0  0  0  0  0
    3.2777   -1.8682    0.0000 C   0  0  0  0  0  0  0  0  0  0  0  0
    3.2540   -3.3680    0.0000 O   0  0  0  0  0  0  0  0  0  0  0  0
    4.5883   -1.1387    0.0000 C   0  0  0  0  0  0  0  0  0  0  0  0
    4.6120    0.3611    0.0000 C   0  0  0  0  0  0  0  0  0  0  0  0
    5.9227    1.0905    0.0000 C   0  0  0  0  0  0  0  0  0  0  0  0
    5.9463    2.5904    0.0000 C   0  0  0  0  0  0  0  0  0  0  0  0
    4.6592    3.3607    0.0000 C   0  0  0  0  0  0  0  0  0  0  0  0
    3.3485    2.6313    0.0000 C   0  0  0  0  0  0  0  0  0  0  0  0
    3.3249    1.1315    0.0000 C   0  0  0  0  0  0  0  0  0  0  0  0
    2.0379    1.9018    0.0000 C   0  0  0  0  0  0  0  0  0  0  0  0
    2.0142    0.4020    0.0000 C   0  0  0  0  0  0  0  0  0  0  0  0
    0.7272    1.1724    0.0000 C   0  0  0  0  0  0  0  0  0  0  0  0
   -0.5835    0.4430    0.0000 C   0  0  0  0  0  0  0  0  0  0  0  0
   -0.6072   -1.0569    0.0000 C   0  0  0  0  0  0  0  0  0  0  0  0
   -1.9677   -0.4252    0.0000 C   0  0  0  0  0  0  0  0  0  0  0  0
  2  1  1  6
  2  3  1  0
  3  4  1  0
  4  5  1  0
  5  6  2  0
  5  7  1  0
  7  8  1  0
  2  9  1  0
  9 10  1  6
 10 11  1  0
 12 11  1  6
 12 13  1  0
 13 14  1  1
 14 15  1  6
 14 16  1  0
 17 16  1  1
 17 18  1  0
 18 19  1  0
 19 20  1  0
 20 21  1  0
 21 22  1  0
 22 23  1  6
 22 24  1  0
 24 25  1  6
 25 26  1  0
 26 27  1  0
 27 28  1  6
 27  9  1  0
 27 12  1  0
 24 13  1  0
 22 17  1  0
M  END
>  <MS_ID>  (811) 
MS0847

>  <SMILES>  (811) 
C[C@H](CCC(=O)CO)[C@H]1CC[C@H]2[C@@H]3[C@@H](O)C[C@@H]4CCCC[C@]4(C)[C@H]3CC[C@]12C

>  <Structure_dimension>  (811) 
2D

$$$$
MS0848
     RDKit          2D

 36 40  0  0  0  0  0  0  0  0999 V2000
   -7.4159   -1.5459    0.0000 C   0  0  0  0  0  0  0  0  0  0  0  0
   -6.1256   -0.7809    0.0000 C   0  0  0  0  0  0  0  0  0  0  0  0
   -6.1430    0.7190    0.0000 C   0  0  0  0  0  0  0  0  0  0  0  0
   -7.4506    1.4539    0.0000 C   0  0  0  0  0  0  0  0  0  0  0  0
   -7.4679    2.9538    0.0000 C   0  0  0  0  0  0  0  0  0  0  0  0
   -6.1777    3.7188    0.0000 O   0  0  0  0  0  0  0  0  0  0  0  0
   -8.7756    3.6887    0.0000 O   0  0  0  0  0  0  0  0  0  0  0  0
   -4.8180   -1.5158    0.0000 C   0  0  0  0  0  0  0  0  0  0  0  0
   -4.6439   -3.0057    0.0000 C   0  0  0  0  0  0  0  0  0  0  0  0
   -3.1732   -3.3006    0.0000 C   0  0  0  0  0  0  0  0  0  0  0  0
   -2.4383   -1.9930    0.0000 C   0  0  0  0  0  0  0  0  0  0  0  0
   -0.9748   -1.6641    0.0000 C   0  0  0  0  0  0  0  0  0  0  0  0
    0.0418   -2.7672    0.0000 C   0  0  0  0  0  0  0  0  0  0  0  0
   -0.4052   -4.1990    0.0000 O   0  0  0  0  0  0  0  0  0  0  0  0
    1.5053   -2.4384    0.0000 C   0  0  0  0  0  0  0  0  0  0  0  0
    1.9523   -1.0065    0.0000 C   0  0  0  0  0  0  0  0  0  0  0  0
    3.4158   -0.6777    0.0000 C   0  0  0  0  0  0  0  0  0  0  0  0
    3.8628    0.7542    0.0000 C   0  0  0  0  0  0  0  0  0  0  0  0
    5.3263    1.0830    0.0000 O   0  0  0  0  0  0  0  0  0  0  0  0
    6.3428   -0.0200    0.0000 C   0  0  0  0  0  0  0  0  0  0  0  0
    7.8063    0.3088    0.0000 C   0  0  0  0  0  0  0  0  0  0  0  0
    8.8228   -0.7942    0.0000 C   0  0  0  0  0  0  0  0  0  0  0  0
   10.2864   -0.4654    0.0000 C   0  0  0  0  0  0  0  0  0  0  0  0
   10.7333    0.9664    0.0000 C   0  0  0  0  0  0  0  0  0  0  0  0
    9.7168    2.0695    0.0000 C   0  0  0  0  0  0  0  0  0  0  0  0
    8.2533    1.7406    0.0000 C   0  0  0  0  0  0  0  0  0  0  0  0
    2.8462    1.8572    0.0000 C   0  0  0  0  0  0  0  0  0  0  0  0
    1.3827    1.5284    0.0000 C   0  0  0  0  0  0  0  0  0  0  0  0
    0.9357    0.0965    0.0000 C   0  0  0  0  0  0  0  0  0  0  0  0
   -0.0808    1.1996    0.0000 C   0  0  0  0  0  0  0  0  0  0  0  0
   -0.5278   -0.2323    0.0000 C   0  0  0  0  0  0  0  0  0  0  0  0
   -1.5443    0.8707    0.0000 C   0  0  0  0  0  0  0  0  0  0  0  0
   -3.0078    0.5419    0.0000 C   0  0  0  0  0  0  0  0  0  0  0  0
   -4.0243    1.6450    0.0000 O   0  0  0  0  0  0  0  0  0  0  0  0
   -3.4548   -0.8899    0.0000 C   0  0  0  0  0  0  0  0  0  0  0  0
   -4.5811    0.1008    0.0000 C   0  0  0  0  0  0  0  0  0  0  0  0
  2  1  1  6
  2  3  1  0
  3  4  1  0
  4  5  1  0
  5  6  2  0
  5  7  1  0
  2  8  1  0
  8  9  1  6
  9 10  1  0
 11 10  1  6
 11 12  1  0
 12 13  1  1
 13 14  1  1
 13 15  1  0
 16 15  1  1
 16 17  1  0
 17 18  1  0
 18 19  1  1
 19 20  1  0
 20 21  1  0
 21 22  2  0
 22 23  1  0
 23 24  2  0
 24 25  1  0
 25 26  2  0
 18 27  1  0
 27 28  1  0
 28 29  1  0
 29 30  1  6
 29 31  1  0
 31 32  1  6
 32 33  1  0
 33 34  1  6
 33 35  1  0
 35 36  1  6
 35  8  1  0
 35 11  1  0
 31 12  1  0
 29 16  1  0
 26 21  1  0
M  END
>  <MS_ID>  (812) 
MS0848

>  <SMILES>  (812) 
C[C@H](CCC(=O)O)[C@H]1CC[C@H]2[C@@H]3[C@H](O)C[C@@H]4C[C@H](OCc5ccccc5)CC[C@]4(C)[C@H]3C[C@@H](O)[C@]12C

>  <Structure_dimension>  (812) 
2D

$$$$
MS0849
     RDKit          2D

 37 40  0  0  0  0  0  0  0  0999 V2000
   -4.5396   -3.5152    0.0000 C   0  0  0  0  0  0  0  0  0  0  0  0
   -3.5258   -2.4097    0.0000 C   0  0  0  0  0  0  0  0  0  0  0  0
   -3.9764   -0.9789    0.0000 C   0  0  0  0  0  0  0  0  0  0  0  0
   -5.4407   -0.6538    0.0000 C   0  0  0  0  0  0  0  0  0  0  0  0
   -5.8913    0.7769    0.0000 C   0  0  0  0  0  0  0  0  0  0  0  0
   -4.8775    1.8825    0.0000 O   0  0  0  0  0  0  0  0  0  0  0  0
   -7.3556    1.1021    0.0000 C   0  0  0  0  0  0  0  0  0  0  0  0
   -7.8062    2.5328    0.0000 C   0  0  0  0  0  0  0  0  0  0  0  0
   -9.2705    2.8580    0.0000 C   0  0  0  0  0  0  0  0  0  0  0  0
  -10.2843    1.7524    0.0000 O   0  0  0  0  0  0  0  0  0  0  0  0
   -9.7211    4.2887    0.0000 O   0  0  0  0  0  0  0  0  0  0  0  0
   -2.0615   -2.7348    0.0000 C   0  0  0  0  0  0  0  0  0  0  0  0
   -1.4638   -4.1106    0.0000 C   0  0  0  0  0  0  0  0  0  0  0  0
    0.0293   -3.9673    0.0000 C   0  0  0  0  0  0  0  0  0  0  0  0
    0.3545   -2.5030    0.0000 C   0  0  0  0  0  0  0  0  0  0  0  0
    1.6603   -1.7648    0.0000 C   0  0  0  0  0  0  0  0  0  0  0  0
    2.9525   -2.5265    0.0000 C   0  0  0  0  0  0  0  0  0  0  0  0
    2.9389   -4.0265    0.0000 O   0  0  0  0  0  0  0  0  0  0  0  0
    4.2582   -1.7884    0.0000 C   0  0  0  0  0  0  0  0  0  0  0  0
    4.2718   -0.2884    0.0000 C   0  0  0  0  0  0  0  0  0  0  0  0
    5.5776    0.4498    0.0000 C   0  0  0  0  0  0  0  0  0  0  0  0
    5.5912    1.9497    0.0000 C   0  0  0  0  0  0  0  0  0  0  0  0
    6.8970    2.6879    0.0000 O   0  0  0  0  0  0  0  0  0  0  0  0
    8.1892    1.9262    0.0000 S   0  0  0  0  0  0  0  0  0  0  0  0
    7.4274    0.6340    0.0000 O   0  0  0  0  0  0  0  0  0  0  0  0
    8.9509    3.2184    0.0000 O   0  0  0  0  0  0  0  0  0  0  0  0
    9.4814    1.1644    0.0000 O   0  0  0  0  0  0  0  0  0  0  0  0
    4.2990    2.7115    0.0000 C   0  0  0  0  0  0  0  0  0  0  0  0
    2.9932    1.9733    0.0000 C   0  0  0  0  0  0  0  0  0  0  0  0
    2.9796    0.4733    0.0000 C   0  0  0  0  0  0  0  0  0  0  0  0
    1.6875    1.2351    0.0000 C   0  0  0  0  0  0  0  0  0  0  0  0
    1.6739   -0.2649    0.0000 C   0  0  0  0  0  0  0  0  0  0  0  0
    0.3817    0.4969    0.0000 C   0  0  0  0  0  0  0  0  0  0  0  0
   -0.9241   -0.2413    0.0000 C   0  0  0  0  0  0  0  0  0  0  0  0
   -2.2163    0.5204    0.0000 O   0  0  0  0  0  0  0  0  0  0  0  0
   -0.9377   -1.7413    0.0000 C   0  0  0  0  0  0  0  0  0  0  0  0
   -2.3024   -1.1188    0.0000 C   0  0  0  0  0  0  0  0  0  0  0  0
  2  1  1  6
  2  3  1  0
  3  4  1  0
  4  5  1  0
  5  6  2  0
  5  7  1  0
  7  8  1  0
  8  9  1  0
  9 10  2  0
  9 11  1  0
  2 12  1  0
 12 13  1  6
 13 14  1  0
 15 14  1  6
 15 16  1  0
 16 17  1  1
 17 18  1  1
 17 19  1  0
 20 19  1  1
 20 21  1  0
 21 22  1  0
 22 23  1  1
 23 24  1  0
 24 25  2  0
 24 26  2  0
 24 27  1  0
 22 28  1  0
 28 29  1  0
 29 30  1  0
 30 31  1  6
 30 32  1  0
 32 33  1  6
 33 34  1  0
 34 35  1  1
 34 36  1  0
 36 37  1  6
 36 12  1  0
 36 15  1  0
 32 16  1  0
 30 20  1  0
M  END
>  <MS_ID>  (813) 
MS0849

>  <SMILES>  (813) 
C[C@H](CCC(=O)CCC(=O)O)[C@H]1CC[C@H]2[C@@H]3[C@H](O)C[C@@H]4C[C@H](OS(=O)(=O)O)CC[C@]4(C)[C@H]3C[C@H](O)[C@]12C

>  <Structure_dimension>  (813) 
2D

$$$$
MS0850
     RDKit          2D

 32 35  0  0  0  0  0  0  0  0999 V2000
   -3.6401   -3.7548    0.0000 C   0  0  0  0  0  0  0  0  0  0  0  0
   -2.6957   -2.5895    0.0000 C   0  0  0  0  0  0  0  0  0  0  0  0
   -3.2327   -1.1889    0.0000 C   0  0  0  0  0  0  0  0  0  0  0  0
   -4.7142   -0.9537    0.0000 C   0  0  0  0  0  0  0  0  0  0  0  0
   -5.2512    0.4469    0.0000 C   0  0  0  0  0  0  0  0  0  0  0  0
   -6.7327    0.6821    0.0000 O   0  0  0  0  0  0  0  0  0  0  0  0
   -4.3068    1.6122    0.0000 O   0  0  0  0  0  0  0  0  0  0  0  0
   -4.8438    3.0128    0.0000 S   0  0  0  0  0  0  0  0  0  0  0  0
   -6.2444    2.4758    0.0000 O   0  0  0  0  0  0  0  0  0  0  0  0
   -3.4433    3.5499    0.0000 O   0  0  0  0  0  0  0  0  0  0  0  0
   -5.3809    4.4134    0.0000 O   0  0  0  0  0  0  0  0  0  0  0  0
   -1.2142   -2.8246    0.0000 C   0  0  0  0  0  0  0  0  0  0  0  0
   -0.5337   -4.1614    0.0000 C   0  0  0  0  0  0  0  0  0  0  0  0
    0.9479   -3.9273    0.0000 C   0  0  0  0  0  0  0  0  0  0  0  0
    1.1831   -2.4459    0.0000 C   0  0  0  0  0  0  0  0  0  0  0  0
    2.4414   -1.6294    0.0000 C   0  0  0  0  0  0  0  0  0  0  0  0
    3.7776   -2.3108    0.0000 C   0  0  0  0  0  0  0  0  0  0  0  0
    5.0359   -1.4943    0.0000 C   0  0  0  0  0  0  0  0  0  0  0  0
    4.9580    0.0036    0.0000 C   0  0  0  0  0  0  0  0  0  0  0  0
    6.2163    0.8201    0.0000 C   0  0  0  0  0  0  0  0  0  0  0  0
    6.1383    2.3181    0.0000 C   0  0  0  0  0  0  0  0  0  0  0  0
    7.3966    3.1346    0.0000 O   0  0  0  0  0  0  0  0  0  0  0  0
    4.8021    2.9996    0.0000 C   0  0  0  0  0  0  0  0  0  0  0  0
    3.5438    2.1831    0.0000 C   0  0  0  0  0  0  0  0  0  0  0  0
    3.6217    0.6851    0.0000 C   0  0  0  0  0  0  0  0  0  0  0  0
    2.2855    1.3666    0.0000 C   0  0  0  0  0  0  0  0  0  0  0  0
    2.3634   -0.1314    0.0000 C   0  0  0  0  0  0  0  0  0  0  0  0
    1.0272    0.5501    0.0000 C   0  0  0  0  0  0  0  0  0  0  0  0
   -0.2311   -0.2664    0.0000 C   0  0  0  0  0  0  0  0  0  0  0  0
   -1.5674    0.4151    0.0000 O   0  0  0  0  0  0  0  0  0  0  0  0
   -0.1532   -1.7644    0.0000 C   0  0  0  0  0  0  0  0  0  0  0  0
   -1.5534   -1.2263    0.0000 C   0  0  0  0  0  0  0  0  0  0  0  0
  2  1  1  6
  2  3  1  0
  3  4  1  0
  4  5  1  0
  5  6  2  0
  5  7  1  0
  7  8  1  0
  8  9  2  0
  8 10  2  0
  8 11  1  0
  2 12  1  0
 12 13  1  6
 13 14  1  0
 15 14  1  6
 15 16  1  0
 16 17  1  1
 17 18  1  0
 19 18  1  1
 19 20  1  0
 20 21  1  0
 21 22  1  1
 21 23  1  0
 23 24  1  0
 24 25  1  0
 25 26  1  6
 25 27  1  0
 27 28  1  6
 28 29  1  0
 29 30  1  6
 29 31  1  0
 31 32  1  6
 31 12  1  0
 31 15  1  0
 27 16  1  0
 25 19  1  0
M  END
>  <MS_ID>  (814) 
MS0850

>  <SMILES>  (814) 
C[C@H](CCC(=O)OS(=O)(=O)O)[C@H]1CC[C@H]2[C@@H]3CC[C@@H]4C[C@H](O)CC[C@]4(C)[C@H]3C[C@@H](O)[C@]12C

>  <Structure_dimension>  (814) 
2D

$$$$
MS0851
     RDKit          2D

 28 31  0  0  0  0  0  0  0  0999 V2000
   -5.1275   -2.0302    0.0000 C   0  0  0  0  0  0  0  0  0  0  0  0
   -3.9468   -1.1050    0.0000 C   0  0  0  0  0  0  0  0  0  0  0  0
   -4.1576    0.3801    0.0000 C   0  0  0  0  0  0  0  0  0  0  0  0
   -5.5492    0.9401    0.0000 C   0  0  0  0  0  0  0  0  0  0  0  0
   -5.7600    2.4252    0.0000 C   0  0  0  0  0  0  0  0  0  0  0  0
   -4.5793    3.3503    0.0000 O   0  0  0  0  0  0  0  0  0  0  0  0
   -7.1516    2.9851    0.0000 O   0  0  0  0  0  0  0  0  0  0  0  0
   -2.5552   -1.6650    0.0000 C   0  0  0  0  0  0  0  0  0  0  0  0
   -2.1903   -3.1199    0.0000 C   0  0  0  0  0  0  0  0  0  0  0  0
   -0.6938   -3.2225    0.0000 C   0  0  0  0  0  0  0  0  0  0  0  0
   -0.1339   -1.8309    0.0000 C   0  0  0  0  0  0  0  0  0  0  0  0
    1.2750   -1.3159    0.0000 C   0  0  0  0  0  0  0  0  0  0  0  0
    2.4254   -2.2785    0.0000 C   0  0  0  0  0  0  0  0  0  0  0  0
    2.1670   -3.7560    0.0000 O   0  0  0  0  0  0  0  0  0  0  0  0
    3.8342   -1.7635    0.0000 C   0  0  0  0  0  0  0  0  0  0  0  0
    4.0926   -0.2859    0.0000 C   0  0  0  0  0  0  0  0  0  0  0  0
    5.5014    0.2291    0.0000 C   0  0  0  0  0  0  0  0  0  0  0  0
    5.7598    1.7067    0.0000 C   0  0  0  0  0  0  0  0  0  0  0  0
    7.1687    2.2217    0.0000 N   0  0  0  0  0  0  0  0  0  0  0  0
    4.6094    2.6692    0.0000 C   0  0  0  0  0  0  0  0  0  0  0  0
    3.2006    2.1542    0.0000 C   0  0  0  0  0  0  0  0  0  0  0  0
    2.9422    0.6767    0.0000 C   0  0  0  0  0  0  0  0  0  0  0  0
    1.7918    1.6392    0.0000 C   0  0  0  0  0  0  0  0  0  0  0  0
    1.5334    0.1617    0.0000 C   0  0  0  0  0  0  0  0  0  0  0  0
    0.3830    1.1242    0.0000 C   0  0  0  0  0  0  0  0  0  0  0  0
   -1.0259    0.6093    0.0000 C   0  0  0  0  0  0  0  0  0  0  0  0
   -1.2843   -0.8683    0.0000 C   0  0  0  0  0  0  0  0  0  0  0  0
   -2.5290   -0.0313    0.0000 C   0  0  0  0  0  0  0  0  0  0  0  0
  2  1  1  6
  2  3  1  0
  3  4  1  0
  4  5  1  0
  5  6  2  0
  5  7  1  0
  2  8  1  0
  8  9  1  6
  9 10  1  0
 11 10  1  6
 11 12  1  0
 12 13  1  1
 13 14  1  1
 13 15  1  0
 16 15  1  1
 16 17  1  0
 17 18  1  0
 18 19  1  1
 18 20  1  0
 20 21  1  0
 21 22  1  0
 22 23  1  6
 22 24  1  0
 24 25  1  6
 25 26  1  0
 26 27  1  0
 27 28  1  6
 27  8  1  0
 27 11  1  0
 24 12  1  0
 22 16  1  0
M  END
>  <MS_ID>  (815) 
MS0851

>  <SMILES>  (815) 
C[C@H](CCC(=O)O)[C@H]1CC[C@H]2[C@@H]3[C@H](O)C[C@@H]4C[C@H](N)CC[C@]4(C)[C@H]3CC[C@]12C

>  <Structure_dimension>  (815) 
2D

$$$$
MS0852
     RDKit          2D

 32 35  0  0  0  0  0  0  0  0999 V2000
   -6.3148   -1.8053    0.0000 C   0  0  0  0  0  0  0  0  0  0  0  0
   -5.0840   -0.9480    0.0000 C   0  0  0  0  0  0  0  0  0  0  0  0
   -5.2110    0.5466    0.0000 C   0  0  0  0  0  0  0  0  0  0  0  0
   -6.5688    1.1840    0.0000 C   0  0  0  0  0  0  0  0  0  0  0  0
   -6.6958    2.6786    0.0000 C   0  0  0  0  0  0  0  0  0  0  0  0
   -5.4650    3.5359    0.0000 O   0  0  0  0  0  0  0  0  0  0  0  0
   -8.0537    3.3159    0.0000 O   0  0  0  0  0  0  0  0  0  0  0  0
   -3.7261   -1.5853    0.0000 C   0  0  0  0  0  0  0  0  0  0  0  0
   -3.4436   -3.0584    0.0000 C   0  0  0  0  0  0  0  0  0  0  0  0
   -1.9552   -3.2450    0.0000 C   0  0  0  0  0  0  0  0  0  0  0  0
   -1.3179   -1.8871    0.0000 C   0  0  0  0  0  0  0  0  0  0  0  0
    0.1177   -1.4521    0.0000 C   0  0  0  0  0  0  0  0  0  0  0  0
    1.2121   -2.4779    0.0000 C   0  0  0  0  0  0  0  0  0  0  0  0
    0.8711   -3.9386    0.0000 O   0  0  0  0  0  0  0  0  0  0  0  0
    2.6477   -2.0429    0.0000 C   0  0  0  0  0  0  0  0  0  0  0  0
    2.9888   -0.5822    0.0000 C   0  0  0  0  0  0  0  0  0  0  0  0
    4.4243   -0.1472    0.0000 C   0  0  0  0  0  0  0  0  0  0  0  0
    4.7654    1.3135    0.0000 C   0  0  0  0  0  0  0  0  0  0  0  0
    6.2009    1.7485    0.0000 N   0  0  0  0  0  0  0  0  0  0  0  0
    7.2954    0.7227    0.0000 S   0  0  0  0  0  0  0  0  0  0  0  0
    8.3211    1.8172    0.0000 O   0  0  0  0  0  0  0  0  0  0  0  0
    6.2697   -0.3717    0.0000 O   0  0  0  0  0  0  0  0  0  0  0  0
    8.3899   -0.3030    0.0000 O   0  0  0  0  0  0  0  0  0  0  0  0
    3.6709    2.3392    0.0000 C   0  0  0  0  0  0  0  0  0  0  0  0
    2.2354    1.9043    0.0000 C   0  0  0  0  0  0  0  0  0  0  0  0
    1.8943    0.4436    0.0000 C   0  0  0  0  0  0  0  0  0  0  0  0
    0.7998    1.4693    0.0000 C   0  0  0  0  0  0  0  0  0  0  0  0
    0.4587    0.0086    0.0000 C   0  0  0  0  0  0  0  0  0  0  0  0
   -0.6357    1.0343    0.0000 C   0  0  0  0  0  0  0  0  0  0  0  0
   -2.0713    0.5993    0.0000 C   0  0  0  0  0  0  0  0  0  0  0  0
   -2.4123   -0.8614    0.0000 C   0  0  0  0  0  0  0  0  0  0  0  0
   -3.6080    0.0444    0.0000 C   0  0  0  0  0  0  0  0  0  0  0  0
  2  1  1  6
  2  3  1  0
  3  4  1  0
  4  5  1  0
  5  6  2  0
  5  7  1  0
  2  8  1  0
  8  9  1  6
  9 10  1  0
 11 10  1  6
 11 12  1  0
 12 13  1  1
 13 14  1  6
 13 15  1  0
 16 15  1  1
 16 17  1  0
 17 18  1  0
 18 19  1  1
 19 20  1  0
 20 21  2  0
 20 22  2  0
 20 23  1  0
 18 24  1  0
 24 25  1  0
 25 26  1  0
 26 27  1  6
 26 28  1  0
 28 29  1  6
 29 30  1  0
 30 31  1  0
 31 32  1  6
 31  8  1  0
 31 11  1  0
 28 12  1  0
 26 16  1  0
M  END
>  <MS_ID>  (816) 
MS0852

>  <SMILES>  (816) 
C[C@H](CCC(=O)O)[C@H]1CC[C@H]2[C@@H]3[C@@H](O)C[C@@H]4C[C@H](NS(=O)(=O)O)CC[C@]4(C)[C@H]3CC[C@]12C

>  <Structure_dimension>  (816) 
2D

$$$$
MS0853
     RDKit          2D

 31 34  0  0  0  0  0  0  0  0999 V2000
   -4.2495   -2.8115    0.0000 C   0  0  0  0  0  0  0  0  0  0  0  0
   -3.1859   -1.7538    0.0000 C   0  0  0  0  0  0  0  0  0  0  0  0
   -3.5702   -0.3038    0.0000 C   0  0  0  0  0  0  0  0  0  0  0  0
   -5.0180    0.0883    0.0000 C   0  0  0  0  0  0  0  0  0  0  0  0
   -5.4023    1.5383    0.0000 C   0  0  0  0  0  0  0  0  0  0  0  0
   -4.3387    2.5960    0.0000 O   0  0  0  0  0  0  0  0  0  0  0  0
   -6.8501    1.9305    0.0000 C   0  0  0  0  0  0  0  0  0  0  0  0
   -7.9137    0.8727    0.0000 O   0  0  0  0  0  0  0  0  0  0  0  0
   -7.2344    3.3804    0.0000 O   0  0  0  0  0  0  0  0  0  0  0  0
   -1.7381   -2.1460    0.0000 C   0  0  0  0  0  0  0  0  0  0  0  0
   -1.2044   -3.5478    0.0000 C   0  0  0  0  0  0  0  0  0  0  0  0
    0.2938   -3.4734    0.0000 C   0  0  0  0  0  0  0  0  0  0  0  0
    0.6860   -2.0256    0.0000 C   0  0  0  0  0  0  0  0  0  0  0  0
    2.0243   -1.3482    0.0000 C   0  0  0  0  0  0  0  0  0  0  0  0
    3.2801   -2.1686    0.0000 C   0  0  0  0  0  0  0  0  0  0  0  0
    3.1975   -3.6663    0.0000 O   0  0  0  0  0  0  0  0  0  0  0  0
    4.6185   -1.4913    0.0000 C   0  0  0  0  0  0  0  0  0  0  0  0
    4.7010    0.0064    0.0000 C   0  0  0  0  0  0  0  0  0  0  0  0
    6.0394    0.6838    0.0000 C   0  0  0  0  0  0  0  0  0  0  0  0
    6.1220    2.1815    0.0000 C   0  0  0  0  0  0  0  0  0  0  0  0
    7.4604    2.8588    0.0000 O   0  0  0  0  0  0  0  0  0  0  0  0
    4.8662    3.0019    0.0000 C   0  0  0  0  0  0  0  0  0  0  0  0
    3.5279    2.3246    0.0000 C   0  0  0  0  0  0  0  0  0  0  0  0
    3.4453    0.8268    0.0000 C   0  0  0  0  0  0  0  0  0  0  0  0
    2.1895    1.6472    0.0000 C   0  0  0  0  0  0  0  0  0  0  0  0
    2.1069    0.1495    0.0000 C   0  0  0  0  0  0  0  0  0  0  0  0
    0.8511    0.9699    0.0000 C   0  0  0  0  0  0  0  0  0  0  0  0
   -0.4872    0.2925    0.0000 C   0  0  0  0  0  0  0  0  0  0  0  0
   -1.7430    1.1129    0.0000 O   0  0  0  0  0  0  0  0  0  0  0  0
   -0.5698   -1.2052    0.0000 C   0  0  0  0  0  0  0  0  0  0  0  0
   -1.9045   -0.5205    0.0000 C   0  0  0  0  0  0  0  0  0  0  0  0
  2  1  1  6
  2  3  1  0
  3  4  1  0
  4  5  1  0
  5  6  2  0
  5  7  1  0
  7  8  2  0
  7  9  1  0
  2 10  1  0
 10 11  1  6
 11 12  1  0
 13 12  1  6
 13 14  1  0
 14 15  1  1
 15 16  1  6
 15 17  1  0
 18 17  1  1
 18 19  1  0
 19 20  1  0
 20 21  1  1
 20 22  1  0
 22 23  1  0
 23 24  1  0
 24 25  1  6
 24 26  1  0
 26 27  1  6
 27 28  1  0
 28 29  1  6
 28 30  1  0
 30 31  1  6
 30 10  1  0
 30 13  1  0
 26 14  1  0
 24 18  1  0
M  END
>  <MS_ID>  (817) 
MS0853

>  <SMILES>  (817) 
C[C@H](CCC(=O)C(=O)O)[C@H]1CC[C@H]2[C@@H]3[C@@H](O)C[C@@H]4C[C@H](O)CC[C@]4(C)[C@H]3C[C@@H](O)[C@]12C

>  <Structure_dimension>  (817) 
2D

$$$$
MS0854
     RDKit          2D

 29 32  0  0  0  0  0  0  0  0999 V2000
   -4.7935   -2.5443    0.0000 C   0  0  0  0  0  0  0  0  0  0  0  0
   -3.6816   -1.5375    0.0000 C   0  0  0  0  0  0  0  0  0  0  0  0
   -3.9975   -0.0712    0.0000 C   0  0  0  0  0  0  0  0  0  0  0  0
   -5.4254    0.3884    0.0000 C   0  0  0  0  0  0  0  0  0  0  0  0
   -5.7413    1.8547    0.0000 C   0  0  0  0  0  0  0  0  0  0  0  0
   -7.1692    2.3143    0.0000 O   0  0  0  0  0  0  0  0  0  0  0  0
   -4.6294    2.8615    0.0000 O   0  0  0  0  0  0  0  0  0  0  0  0
   -4.9453    4.3279    0.0000 N   0  0  0  0  0  0  0  0  0  0  0  0
   -2.2537   -1.9971    0.0000 C   0  0  0  0  0  0  0  0  0  0  0  0
   -1.7862   -3.4224    0.0000 C   0  0  0  0  0  0  0  0  0  0  0  0
   -0.2862   -3.4182    0.0000 C   0  0  0  0  0  0  0  0  0  0  0  0
    0.1733   -1.9903    0.0000 C   0  0  0  0  0  0  0  0  0  0  0  0
    1.5420   -1.3764    0.0000 C   0  0  0  0  0  0  0  0  0  0  0  0
    2.7579   -2.2547    0.0000 C   0  0  0  0  0  0  0  0  0  0  0  0
    2.6053   -3.7470    0.0000 O   0  0  0  0  0  0  0  0  0  0  0  0
    4.1265   -1.6408    0.0000 C   0  0  0  0  0  0  0  0  0  0  0  0
    4.2792   -0.1486    0.0000 C   0  0  0  0  0  0  0  0  0  0  0  0
    5.6478    0.4653    0.0000 C   0  0  0  0  0  0  0  0  0  0  0  0
    5.8005    1.9575    0.0000 C   0  0  0  0  0  0  0  0  0  0  0  0
    7.1691    2.5714    0.0000 O   0  0  0  0  0  0  0  0  0  0  0  0
    4.5845    2.8358    0.0000 C   0  0  0  0  0  0  0  0  0  0  0  0
    3.2159    2.2219    0.0000 C   0  0  0  0  0  0  0  0  0  0  0  0
    3.0632    0.7297    0.0000 C   0  0  0  0  0  0  0  0  0  0  0  0
    1.8473    1.6080    0.0000 C   0  0  0  0  0  0  0  0  0  0  0  0
    1.6946    0.1158    0.0000 C   0  0  0  0  0  0  0  0  0  0  0  0
    0.4786    0.9941    0.0000 C   0  0  0  0  0  0  0  0  0  0  0  0
   -0.8900    0.3802    0.0000 C   0  0  0  0  0  0  0  0  0  0  0  0
   -1.0426   -1.1120    0.0000 C   0  0  0  0  0  0  0  0  0  0  0  0
   -2.3437   -0.3657    0.0000 C   0  0  0  0  0  0  0  0  0  0  0  0
  2  1  1  6
  2  3  1  0
  3  4  1  0
  4  5  1  0
  5  6  2  0
  5  7  1  0
  7  8  1  0
  2  9  1  0
  9 10  1  6
 10 11  1  0
 12 11  1  6
 12 13  1  0
 13 14  1  1
 14 15  1  1
 14 16  1  0
 17 16  1  1
 17 18  1  0
 18 19  1  0
 19 20  1  1
 19 21  1  0
 21 22  1  0
 22 23  1  0
 23 24  1  6
 23 25  1  0
 25 26  1  6
 26 27  1  0
 27 28  1  0
 28 29  1  6
 28  9  1  0
 28 12  1  0
 25 13  1  0
 23 17  1  0
M  END
>  <MS_ID>  (818) 
MS0854

>  <SMILES>  (818) 
C[C@H](CCC(=O)ON)[C@H]1CC[C@H]2[C@@H]3[C@H](O)C[C@@H]4C[C@H](O)CC[C@]4(C)[C@H]3CC[C@]12C

>  <Structure_dimension>  (818) 
2D

$$$$
MS0855
     RDKit          2D

 30 33  0  0  0  0  0  0  0  0999 V2000
   -3.6944   -3.4608    0.0000 C   0  0  0  0  0  0  0  0  0  0  0  0
   -2.7226   -2.3182    0.0000 C   0  0  0  0  0  0  0  0  0  0  0  0
   -3.2262   -0.9053    0.0000 C   0  0  0  0  0  0  0  0  0  0  0  0
   -4.7017   -0.6350    0.0000 C   0  0  0  0  0  0  0  0  0  0  0  0
   -5.2053    0.7779    0.0000 C   0  0  0  0  0  0  0  0  0  0  0  0
   -4.2335    1.9206    0.0000 O   0  0  0  0  0  0  0  0  0  0  0  0
   -6.6808    1.0482    0.0000 C   0  0  0  0  0  0  0  0  0  0  0  0
   -7.1844    2.4611    0.0000 C   0  0  0  0  0  0  0  0  0  0  0  0
   -6.2126    3.6038    0.0000 O   0  0  0  0  0  0  0  0  0  0  0  0
   -8.6599    2.7314    0.0000 O   0  0  0  0  0  0  0  0  0  0  0  0
   -1.2471   -2.5885    0.0000 C   0  0  0  0  0  0  0  0  0  0  0  0
   -0.5986   -3.9410    0.0000 C   0  0  0  0  0  0  0  0  0  0  0  0
    0.8882   -3.7422    0.0000 C   0  0  0  0  0  0  0  0  0  0  0  0
    1.1585   -2.2667    0.0000 C   0  0  0  0  0  0  0  0  0  0  0  0
    2.4358   -1.4803    0.0000 C   0  0  0  0  0  0  0  0  0  0  0  0
    3.7555   -2.1933    0.0000 C   0  0  0  0  0  0  0  0  0  0  0  0
    5.0328   -1.4069    0.0000 C   0  0  0  0  0  0  0  0  0  0  0  0
    4.9905    0.0925    0.0000 C   0  0  0  0  0  0  0  0  0  0  0  0
    6.2678    0.8789    0.0000 C   0  0  0  0  0  0  0  0  0  0  0  0
    6.2254    2.3783    0.0000 C   0  0  0  0  0  0  0  0  0  0  0  0
    7.5027    3.1647    0.0000 O   0  0  0  0  0  0  0  0  0  0  0  0
    4.9057    3.0913    0.0000 C   0  0  0  0  0  0  0  0  0  0  0  0
    3.6284    2.3049    0.0000 C   0  0  0  0  0  0  0  0  0  0  0  0
    3.6708    0.8055    0.0000 C   0  0  0  0  0  0  0  0  0  0  0  0
    2.3510    1.5185    0.0000 C   0  0  0  0  0  0  0  0  0  0  0  0
    2.3934    0.0191    0.0000 C   0  0  0  0  0  0  0  0  0  0  0  0
    1.0737    0.7321    0.0000 C   0  0  0  0  0  0  0  0  0  0  0  0
   -0.2036   -0.0543    0.0000 C   0  0  0  0  0  0  0  0  0  0  0  0
   -0.1612   -1.5537    0.0000 C   0  0  0  0  0  0  0  0  0  0  0  0
   -1.5482   -0.9826    0.0000 C   0  0  0  0  0  0  0  0  0  0  0  0
  2  1  1  6
  2  3  1  0
  3  4  1  0
  4  5  1  0
  5  6  2  0
  5  7  1  0
  7  8  1  0
  8  9  2  0
  8 10  1  0
  2 11  1  0
 11 12  1  6
 12 13  1  0
 14 13  1  6
 14 15  1  0
 15 16  1  1
 16 17  1  0
 18 17  1  1
 18 19  1  0
 19 20  1  0
 20 21  2  0
 20 22  1  0
 22 23  1  0
 23 24  1  0
 24 25  1  6
 24 26  1  0
 26 27  1  6
 27 28  1  0
 28 29  1  0
 29 30  1  6
 29 11  1  0
 29 14  1  0
 26 15  1  0
 24 18  1  0
M  END
>  <MS_ID>  (819) 
MS0855

>  <SMILES>  (819) 
C[C@H](CCC(=O)CC(=O)O)[C@H]1CC[C@H]2[C@@H]3CC[C@@H]4CC(=O)CC[C@]4(C)[C@H]3CC[C@]12C

>  <Structure_dimension>  (819) 
2D

$$$$
MS0856
     RDKit          2D

 36 39  0  0  0  0  0  0  0  0999 V2000
   -1.0047   -4.5176    0.0000 C   0  0  0  0  0  0  0  0  0  0  0  0
   -0.3860   -3.1511    0.0000 C   0  0  0  0  0  0  0  0  0  0  0  0
   -1.2599   -1.9320    0.0000 C   0  0  0  0  0  0  0  0  0  0  0  0
   -2.7527   -2.0794    0.0000 C   0  0  0  0  0  0  0  0  0  0  0  0
   -3.6267   -0.8603    0.0000 C   0  0  0  0  0  0  0  0  0  0  0  0
   -3.0079    0.5061    0.0000 O   0  0  0  0  0  0  0  0  0  0  0  0
   -5.1194   -1.0076    0.0000 C   0  0  0  0  0  0  0  0  0  0  0  0
   -5.9934    0.2114    0.0000 O   0  0  0  0  0  0  0  0  0  0  0  0
   -7.4861    0.0641    0.0000 C   0  0  0  0  0  0  0  0  0  0  0  0
   -8.1049   -1.3023    0.0000 O   0  0  0  0  0  0  0  0  0  0  0  0
   -8.3601    1.2832    0.0000 C   0  0  0  0  0  0  0  0  0  0  0  0
   -9.8528    1.1359    0.0000 C   0  0  0  0  0  0  0  0  0  0  0  0
  -10.7268    2.3549    0.0000 C   0  0  0  0  0  0  0  0  0  0  0  0
  -10.1080    3.7214    0.0000 O   0  0  0  0  0  0  0  0  0  0  0  0
  -12.2196    2.2076    0.0000 O   0  0  0  0  0  0  0  0  0  0  0  0
    1.1068   -3.0038    0.0000 C   0  0  0  0  0  0  0  0  0  0  0  0
    2.1034   -4.1248    0.0000 C   0  0  0  0  0  0  0  0  0  0  0  0
    3.4775   -3.5234    0.0000 C   0  0  0  0  0  0  0  0  0  0  0  0
    3.3302   -2.0307    0.0000 C   0  0  0  0  0  0  0  0  0  0  0  0
    4.3409   -0.9224    0.0000 C   0  0  0  0  0  0  0  0  0  0  0  0
    5.8062   -1.2435    0.0000 C   0  0  0  0  0  0  0  0  0  0  0  0
    6.2606   -2.6730    0.0000 O   0  0  0  0  0  0  0  0  0  0  0  0
    6.8169   -0.1352    0.0000 C   0  0  0  0  0  0  0  0  0  0  0  0
    6.3624    1.2943    0.0000 C   0  0  0  0  0  0  0  0  0  0  0  0
    7.3732    2.4027    0.0000 C   0  0  0  0  0  0  0  0  0  0  0  0
    6.9187    3.8322    0.0000 C   0  0  0  0  0  0  0  0  0  0  0  0
    7.9294    4.9405    0.0000 O   0  0  0  0  0  0  0  0  0  0  0  0
    5.4535    4.1533    0.0000 C   0  0  0  0  0  0  0  0  0  0  0  0
    4.4427    3.0450    0.0000 C   0  0  0  0  0  0  0  0  0  0  0  0
    4.8972    1.6155    0.0000 C   0  0  0  0  0  0  0  0  0  0  0  0
    3.4320    1.9366    0.0000 C   0  0  0  0  0  0  0  0  0  0  0  0
    3.8865    0.5071    0.0000 C   0  0  0  0  0  0  0  0  0  0  0  0
    2.4212    0.8283    0.0000 C   0  0  0  0  0  0  0  0  0  0  0  0
    1.4105   -0.2800    0.0000 C   0  0  0  0  0  0  0  0  0  0  0  0
    1.8650   -1.7095    0.0000 C   0  0  0  0  0  0  0  0  0  0  0  0
    0.3742   -1.5433    0.0000 C   0  0  0  0  0  0  0  0  0  0  0  0
  2  1  1  6
  2  3  1  0
  3  4  1  0
  4  5  1  0
  5  6  2  0
  5  7  1  0
  7  8  1  0
  8  9  1  0
  9 10  2  0
  9 11  1  0
 11 12  1  0
 12 13  1  0
 13 14  2  0
 13 15  1  0
  2 16  1  0
 16 17  1  6
 17 18  1  0
 19 18  1  6
 19 20  1  0
 20 21  1  1
 21 22  1  1
 21 23  1  0
 24 23  1  1
 24 25  1  0
 25 26  1  0
 26 27  1  1
 26 28  1  0
 28 29  1  0
 29 30  1  0
 30 31  1  6
 30 32  1  0
 32 33  1  6
 33 34  1  0
 34 35  1  0
 35 36  1  6
 35 16  1  0
 35 19  1  0
 32 20  1  0
 30 24  1  0
M  END
>  <MS_ID>  (820) 
MS0856

>  <SMILES>  (820) 
C[C@H](CCC(=O)COC(=O)CCC(=O)O)[C@H]1CC[C@H]2[C@@H]3[C@H](O)C[C@@H]4C[C@H](O)CC[C@]4(C)[C@H]3CC[C@]12C

>  <Structure_dimension>  (820) 
2D

$$$$
MS0857
     RDKit          2D

 31 34  0  0  0  0  0  0  0  0999 V2000
   -3.6377   -3.4900    0.0000 C   0  0  0  0  0  0  0  0  0  0  0  0
   -2.6684   -2.3453    0.0000 C   0  0  0  0  0  0  0  0  0  0  0  0
   -3.1751   -0.9335    0.0000 C   0  0  0  0  0  0  0  0  0  0  0  0
   -4.6511   -0.6664    0.0000 C   0  0  0  0  0  0  0  0  0  0  0  0
   -5.1578    0.7454    0.0000 C   0  0  0  0  0  0  0  0  0  0  0  0
   -4.1885    1.8902    0.0000 O   0  0  0  0  0  0  0  0  0  0  0  0
   -6.6339    1.0125    0.0000 C   0  0  0  0  0  0  0  0  0  0  0  0
   -7.1406    2.4243    0.0000 C   0  0  0  0  0  0  0  0  0  0  0  0
   -6.1713    3.5691    0.0000 O   0  0  0  0  0  0  0  0  0  0  0  0
   -8.6166    2.6914    0.0000 O   0  0  0  0  0  0  0  0  0  0  0  0
   -1.1923   -2.6123    0.0000 C   0  0  0  0  0  0  0  0  0  0  0  0
   -0.5408   -3.9635    0.0000 C   0  0  0  0  0  0  0  0  0  0  0  0
    0.9455   -3.7613    0.0000 C   0  0  0  0  0  0  0  0  0  0  0  0
    1.2126   -2.2853    0.0000 C   0  0  0  0  0  0  0  0  0  0  0  0
    2.4882   -1.4961    0.0000 C   0  0  0  0  0  0  0  0  0  0  0  0
    3.8095   -2.2063    0.0000 C   0  0  0  0  0  0  0  0  0  0  0  0
    5.0851   -1.4171    0.0000 C   0  0  0  0  0  0  0  0  0  0  0  0
    5.0394    0.0822    0.0000 C   0  0  0  0  0  0  0  0  0  0  0  0
    6.3151    0.8714    0.0000 C   0  0  0  0  0  0  0  0  0  0  0  0
    6.2694    2.3707    0.0000 C   0  0  0  0  0  0  0  0  0  0  0  0
    7.5450    3.1599    0.0000 O   0  0  0  0  0  0  0  0  0  0  0  0
    4.9481    3.0808    0.0000 C   0  0  0  0  0  0  0  0  0  0  0  0
    3.6725    2.2917    0.0000 C   0  0  0  0  0  0  0  0  0  0  0  0
    3.7182    0.7924    0.0000 C   0  0  0  0  0  0  0  0  0  0  0  0
    2.3969    1.5025    0.0000 C   0  0  0  0  0  0  0  0  0  0  0  0
    2.4426    0.0032    0.0000 C   0  0  0  0  0  0  0  0  0  0  0  0
    1.1213    0.7133    0.0000 C   0  0  0  0  0  0  0  0  0  0  0  0
   -0.1543   -0.0759    0.0000 C   0  0  0  0  0  0  0  0  0  0  0  0
   -1.4756    0.6342    0.0000 O   0  0  0  0  0  0  0  0  0  0  0  0
   -0.1087   -1.5752    0.0000 C   0  0  0  0  0  0  0  0  0  0  0  0
   -1.4969   -1.0071    0.0000 C   0  0  0  0  0  0  0  0  0  0  0  0
  2  1  1  6
  2  3  1  0
  3  4  1  0
  4  5  1  0
  5  6  2  0
  5  7  1  0
  7  8  1  0
  8  9  2  0
  8 10  1  0
  2 11  1  0
 11 12  1  6
 12 13  1  0
 14 13  1  6
 14 15  1  0
 15 16  1  1
 16 17  1  0
 18 17  1  1
 18 19  1  0
 19 20  1  0
 20 21  1  1
 20 22  1  0
 22 23  1  0
 23 24  1  0
 24 25  1  6
 24 26  1  0
 26 27  1  6
 27 28  1  0
 28 29  2  0
 28 30  1  0
 30 31  1  6
 30 11  1  0
 30 14  1  0
 26 15  1  0
 24 18  1  0
M  END
>  <MS_ID>  (821) 
MS0857

>  <SMILES>  (821) 
C[C@H](CCC(=O)CC(=O)O)[C@H]1CC[C@H]2[C@@H]3CC[C@@H]4C[C@H](O)CC[C@]4(C)[C@H]3CC(=O)[C@]12C

>  <Structure_dimension>  (821) 
2D

$$$$
MS0858
     RDKit          2D

 31 34  0  0  0  0  0  0  0  0999 V2000
   -4.2495   -2.8115    0.0000 C   0  0  0  0  0  0  0  0  0  0  0  0
   -3.1859   -1.7538    0.0000 C   0  0  0  0  0  0  0  0  0  0  0  0
   -3.5702   -0.3038    0.0000 C   0  0  0  0  0  0  0  0  0  0  0  0
   -5.0180    0.0883    0.0000 C   0  0  0  0  0  0  0  0  0  0  0  0
   -5.4023    1.5383    0.0000 C   0  0  0  0  0  0  0  0  0  0  0  0
   -4.3387    2.5960    0.0000 O   0  0  0  0  0  0  0  0  0  0  0  0
   -6.8501    1.9305    0.0000 C   0  0  0  0  0  0  0  0  0  0  0  0
   -7.9137    0.8727    0.0000 O   0  0  0  0  0  0  0  0  0  0  0  0
   -7.2344    3.3804    0.0000 O   0  0  0  0  0  0  0  0  0  0  0  0
   -1.7381   -2.1460    0.0000 C   0  0  0  0  0  0  0  0  0  0  0  0
   -1.2044   -3.5478    0.0000 C   0  0  0  0  0  0  0  0  0  0  0  0
    0.2938   -3.4734    0.0000 C   0  0  0  0  0  0  0  0  0  0  0  0
    0.6860   -2.0256    0.0000 C   0  0  0  0  0  0  0  0  0  0  0  0
    2.0243   -1.3482    0.0000 C   0  0  0  0  0  0  0  0  0  0  0  0
    3.2801   -2.1686    0.0000 C   0  0  0  0  0  0  0  0  0  0  0  0
    3.1975   -3.6663    0.0000 O   0  0  0  0  0  0  0  0  0  0  0  0
    4.6185   -1.4913    0.0000 C   0  0  0  0  0  0  0  0  0  0  0  0
    4.7010    0.0064    0.0000 C   0  0  0  0  0  0  0  0  0  0  0  0
    6.0394    0.6838    0.0000 C   0  0  0  0  0  0  0  0  0  0  0  0
    6.1220    2.1815    0.0000 C   0  0  0  0  0  0  0  0  0  0  0  0
    7.4604    2.8588    0.0000 O   0  0  0  0  0  0  0  0  0  0  0  0
    4.8662    3.0019    0.0000 C   0  0  0  0  0  0  0  0  0  0  0  0
    3.5279    2.3246    0.0000 C   0  0  0  0  0  0  0  0  0  0  0  0
    3.4453    0.8268    0.0000 C   0  0  0  0  0  0  0  0  0  0  0  0
    2.1895    1.6472    0.0000 C   0  0  0  0  0  0  0  0  0  0  0  0
    2.1069    0.1495    0.0000 C   0  0  0  0  0  0  0  0  0  0  0  0
    0.8511    0.9699    0.0000 C   0  0  0  0  0  0  0  0  0  0  0  0
   -0.4872    0.2925    0.0000 C   0  0  0  0  0  0  0  0  0  0  0  0
   -1.7430    1.1129    0.0000 O   0  0  0  0  0  0  0  0  0  0  0  0
   -0.5698   -1.2052    0.0000 C   0  0  0  0  0  0  0  0  0  0  0  0
   -1.9045   -0.5205    0.0000 C   0  0  0  0  0  0  0  0  0  0  0  0
  2  1  1  6
  2  3  1  0
  3  4  1  0
  4  5  1  0
  5  6  2  0
  5  7  1  0
  7  8  2  0
  7  9  1  0
  2 10  1  0
 10 11  1  6
 11 12  1  0
 13 12  1  6
 13 14  1  0
 14 15  1  1
 15 16  1  6
 15 17  1  0
 18 17  1  1
 18 19  1  0
 19 20  1  0
 20 21  1  6
 20 22  1  0
 22 23  1  0
 23 24  1  0
 24 25  1  6
 24 26  1  0
 26 27  1  6
 27 28  1  0
 28 29  1  1
 28 30  1  0
 30 31  1  6
 30 10  1  0
 30 13  1  0
 26 14  1  0
 24 18  1  0
M  END
>  <MS_ID>  (822) 
MS0858

>  <SMILES>  (822) 
C[C@H](CCC(=O)C(=O)O)[C@H]1CC[C@H]2[C@@H]3[C@@H](O)C[C@@H]4C[C@@H](O)CC[C@]4(C)[C@H]3C[C@H](O)[C@]12C

>  <Structure_dimension>  (822) 
2D

$$$$
MS0859
     RDKit          2D

 34 38  0  0  0  0  0  0  0  0999 V2000
   -2.2608   -4.3306    0.0000 C   0  0  0  0  0  0  0  0  0  0  0  0
   -1.5430   -3.0135    0.0000 C   0  0  0  0  0  0  0  0  0  0  0  0
   -2.3248   -1.7333    0.0000 C   0  0  0  0  0  0  0  0  0  0  0  0
   -3.8244   -1.7702    0.0000 C   0  0  0  0  0  0  0  0  0  0  0  0
   -4.6061   -0.4901    0.0000 C   0  0  0  0  0  0  0  0  0  0  0  0
   -3.8883    0.8271    0.0000 O   0  0  0  0  0  0  0  0  0  0  0  0
   -6.1057   -0.5270    0.0000 O   0  0  0  0  0  0  0  0  0  0  0  0
   -6.8874    0.7532    0.0000 C   0  0  0  0  0  0  0  0  0  0  0  0
   -6.1696    2.0703    0.0000 C   0  0  0  0  0  0  0  0  0  0  0  0
   -6.9514    3.3505    0.0000 C   0  0  0  0  0  0  0  0  0  0  0  0
   -8.4509    3.3135    0.0000 C   0  0  0  0  0  0  0  0  0  0  0  0
   -9.1687    1.9964    0.0000 C   0  0  0  0  0  0  0  0  0  0  0  0
   -8.3870    0.7163    0.0000 C   0  0  0  0  0  0  0  0  0  0  0  0
   -0.0435   -2.9765    0.0000 C   0  0  0  0  0  0  0  0  0  0  0  0
    0.8678   -4.1680    0.0000 C   0  0  0  0  0  0  0  0  0  0  0  0
    2.2825   -3.6695    0.0000 C   0  0  0  0  0  0  0  0  0  0  0  0
    2.2456   -2.1699    0.0000 C   0  0  0  0  0  0  0  0  0  0  0  0
    3.3353   -1.1391    0.0000 C   0  0  0  0  0  0  0  0  0  0  0  0
    4.7728   -1.5673    0.0000 C   0  0  0  0  0  0  0  0  0  0  0  0
    5.1207   -3.0264    0.0000 O   0  0  0  0  0  0  0  0  0  0  0  0
    5.8625   -0.5365    0.0000 C   0  0  0  0  0  0  0  0  0  0  0  0
    5.5146    0.9226    0.0000 C   0  0  0  0  0  0  0  0  0  0  0  0
    6.6043    1.9534    0.0000 C   0  0  0  0  0  0  0  0  0  0  0  0
    6.2564    3.4125    0.0000 C   0  0  0  0  0  0  0  0  0  0  0  0
    7.3460    4.4434    0.0000 O   0  0  0  0  0  0  0  0  0  0  0  0
    4.8188    3.8408    0.0000 C   0  0  0  0  0  0  0  0  0  0  0  0
    3.7291    2.8099    0.0000 C   0  0  0  0  0  0  0  0  0  0  0  0
    4.0770    1.3509    0.0000 C   0  0  0  0  0  0  0  0  0  0  0  0
    2.6395    1.7791    0.0000 C   0  0  0  0  0  0  0  0  0  0  0  0
    2.9874    0.3200    0.0000 C   0  0  0  0  0  0  0  0  0  0  0  0
    1.5498    0.7483    0.0000 C   0  0  0  0  0  0  0  0  0  0  0  0
    0.4601   -0.2826    0.0000 C   0  0  0  0  0  0  0  0  0  0  0  0
    0.8080   -1.7417    0.0000 C   0  0  0  0  0  0  0  0  0  0  0  0
   -0.6664   -1.4660    0.0000 C   0  0  0  0  0  0  0  0  0  0  0  0
  2  1  1  6
  2  3  1  0
  3  4  1  0
  4  5  1  0
  5  6  2  0
  5  7  1  0
  7  8  1  0
  8  9  2  0
  9 10  1  0
 10 11  2  0
 11 12  1  0
 12 13  2  0
  2 14  1  0
 14 15  1  6
 15 16  1  0
 17 16  1  6
 17 18  1  0
 18 19  1  1
 19 20  1  1
 19 21  1  0
 22 21  1  1
 22 23  1  0
 23 24  1  0
 24 25  1  1
 24 26  1  0
 26 27  1  0
 27 28  1  0
 28 29  1  6
 28 30  1  0
 30 31  1  6
 31 32  1  0
 32 33  1  0
 33 34  1  6
 13  8  1  0
 33 14  1  0
 33 17  1  0
 30 18  1  0
 28 22  1  0
M  END
>  <MS_ID>  (823) 
MS0859

>  <SMILES>  (823) 
C[C@H](CCC(=O)Oc1ccccc1)[C@H]1CC[C@H]2[C@@H]3[C@H](O)C[C@@H]4C[C@H](O)CC[C@]4(C)[C@H]3CC[C@]12C

>  <Structure_dimension>  (823) 
2D

$$$$
MS0860
     RDKit          2D

 31 34  0  0  0  0  0  0  0  0999 V2000
   -3.4301   -3.6172    0.0000 C   0  0  0  0  0  0  0  0  0  0  0  0
   -2.4973   -2.4425    0.0000 C   0  0  0  0  0  0  0  0  0  0  0  0
   -3.0483   -1.0473    0.0000 C   0  0  0  0  0  0  0  0  0  0  0  0
   -4.5321   -0.8270    0.0000 C   0  0  0  0  0  0  0  0  0  0  0  0
   -5.0831    0.5682    0.0000 C   0  0  0  0  0  0  0  0  0  0  0  0
   -4.1503    1.7429    0.0000 O   0  0  0  0  0  0  0  0  0  0  0  0
   -6.5668    0.7886    0.0000 N   0  0  0  0  0  0  0  0  0  0  0  0
   -7.1178    2.1837    0.0000 C   0  0  0  0  0  0  0  0  0  0  0  0
   -8.6015    2.4041    0.0000 C   0  0  0  0  0  0  0  0  0  0  0  0
   -9.1525    3.7992    0.0000 N   0  0  0  0  0  0  0  0  0  0  0  0
   -1.0136   -2.6629    0.0000 C   0  0  0  0  0  0  0  0  0  0  0  0
   -0.3198   -3.9928    0.0000 C   0  0  0  0  0  0  0  0  0  0  0  0
    1.1594   -3.7439    0.0000 C   0  0  0  0  0  0  0  0  0  0  0  0
    1.3798   -2.2602    0.0000 C   0  0  0  0  0  0  0  0  0  0  0  0
    2.6299   -1.4311    0.0000 C   0  0  0  0  0  0  0  0  0  0  0  0
    3.9729   -2.0992    0.0000 C   0  0  0  0  0  0  0  0  0  0  0  0
    5.2230   -1.2702    0.0000 C   0  0  0  0  0  0  0  0  0  0  0  0
    5.1301    0.2269    0.0000 C   0  0  0  0  0  0  0  0  0  0  0  0
    6.3802    1.0559    0.0000 C   0  0  0  0  0  0  0  0  0  0  0  0
    6.2872    2.5531    0.0000 C   0  0  0  0  0  0  0  0  0  0  0  0
    7.5373    3.3821    0.0000 O   0  0  0  0  0  0  0  0  0  0  0  0
    4.9442    3.2212    0.0000 C   0  0  0  0  0  0  0  0  0  0  0  0
    3.6942    2.3921    0.0000 C   0  0  0  0  0  0  0  0  0  0  0  0
    3.7871    0.8950    0.0000 C   0  0  0  0  0  0  0  0  0  0  0  0
    2.4441    1.5631    0.0000 C   0  0  0  0  0  0  0  0  0  0  0  0
    2.5370    0.0660    0.0000 C   0  0  0  0  0  0  0  0  0  0  0  0
    1.1940    0.7341    0.0000 C   0  0  0  0  0  0  0  0  0  0  0  0
   -0.0561   -0.0949    0.0000 C   0  0  0  0  0  0  0  0  0  0  0  0
   -1.3991    0.5732    0.0000 O   0  0  0  0  0  0  0  0  0  0  0  0
    0.0368   -1.5921    0.0000 C   0  0  0  0  0  0  0  0  0  0  0  0
   -1.3687   -1.0680    0.0000 C   0  0  0  0  0  0  0  0  0  0  0  0
  2  1  1  6
  2  3  1  0
  3  4  1  0
  4  5  1  0
  5  6  2  0
  5  7  1  0
  7  8  1  0
  8  9  1  0
  9 10  1  0
  2 11  1  0
 11 12  1  6
 12 13  1  0
 14 13  1  6
 14 15  1  0
 15 16  1  1
 16 17  1  0
 18 17  1  1
 18 19  1  0
 19 20  1  0
 20 21  1  1
 20 22  1  0
 22 23  1  0
 23 24  1  0
 24 25  1  6
 24 26  1  0
 26 27  1  6
 27 28  1  0
 28 29  2  0
 28 30  1  0
 30 31  1  6
 30 11  1  0
 30 14  1  0
 26 15  1  0
 24 18  1  0
M  END
>  <MS_ID>  (824) 
MS0860

>  <SMILES>  (824) 
C[C@H](CCC(=O)NCCN)[C@H]1CC[C@H]2[C@@H]3CC[C@@H]4C[C@H](O)CC[C@]4(C)[C@H]3CC(=O)[C@]12C

>  <Structure_dimension>  (824) 
2D

$$$$
MS0861
     RDKit          2D

 33 36  0  0  0  0  0  0  0  0999 V2000
   -2.0350   -4.2183    0.0000 C   0  0  0  0  0  0  0  0  0  0  0  0
   -1.3545   -2.8815    0.0000 C   0  0  0  0  0  0  0  0  0  0  0  0
   -2.1720   -1.6238    0.0000 C   0  0  0  0  0  0  0  0  0  0  0  0
   -3.6699   -1.7029    0.0000 C   0  0  0  0  0  0  0  0  0  0  0  0
   -4.4873   -0.4452    0.0000 C   0  0  0  0  0  0  0  0  0  0  0  0
   -3.8069    0.8916    0.0000 O   0  0  0  0  0  0  0  0  0  0  0  0
   -5.9852   -0.5243    0.0000 N   0  0  0  0  0  0  0  0  0  0  0  0
   -6.8027    0.7334    0.0000 C   0  0  0  0  0  0  0  0  0  0  0  0
   -8.3006    0.6544    0.0000 C   0  0  0  0  0  0  0  0  0  0  0  0
   -9.1180    1.9120    0.0000 O   0  0  0  0  0  0  0  0  0  0  0  0
   -6.1222    2.0702    0.0000 C   0  0  0  0  0  0  0  0  0  0  0  0
   -4.6243    2.1493    0.0000 O   0  0  0  0  0  0  0  0  0  0  0  0
   -6.9397    3.3279    0.0000 O   0  0  0  0  0  0  0  0  0  0  0  0
    0.1434   -2.8024    0.0000 C   0  0  0  0  0  0  0  0  0  0  0  0
    1.0878   -3.9678    0.0000 C   0  0  0  0  0  0  0  0  0  0  0  0
    2.4880   -3.4297    0.0000 C   0  0  0  0  0  0  0  0  0  0  0  0
    2.4089   -1.9318    0.0000 C   0  0  0  0  0  0  0  0  0  0  0  0
    3.4691   -0.8707    0.0000 C   0  0  0  0  0  0  0  0  0  0  0  0
    4.9182   -1.2584    0.0000 C   0  0  0  0  0  0  0  0  0  0  0  0
    5.3070   -2.7071    0.0000 O   0  0  0  0  0  0  0  0  0  0  0  0
    5.9784   -0.1973    0.0000 C   0  0  0  0  0  0  0  0  0  0  0  0
    5.5897    1.2514    0.0000 C   0  0  0  0  0  0  0  0  0  0  0  0
    6.6499    2.3125    0.0000 C   0  0  0  0  0  0  0  0  0  0  0  0
    6.2611    3.7612    0.0000 C   0  0  0  0  0  0  0  0  0  0  0  0
    4.8121    4.1489    0.0000 C   0  0  0  0  0  0  0  0  0  0  0  0
    3.7518    3.0878    0.0000 C   0  0  0  0  0  0  0  0  0  0  0  0
    4.1406    1.6391    0.0000 C   0  0  0  0  0  0  0  0  0  0  0  0
    2.6916    2.0268    0.0000 C   0  0  0  0  0  0  0  0  0  0  0  0
    3.0804    0.5780    0.0000 C   0  0  0  0  0  0  0  0  0  0  0  0
    1.6313    0.9657    0.0000 C   0  0  0  0  0  0  0  0  0  0  0  0
    0.5711   -0.0954    0.0000 C   0  0  0  0  0  0  0  0  0  0  0  0
    0.9599   -1.5441    0.0000 C   0  0  0  0  0  0  0  0  0  0  0  0
   -0.5218   -1.3100    0.0000 C   0  0  0  0  0  0  0  0  0  0  0  0
  2  1  1  6
  2  3  1  0
  3  4  1  0
  4  5  1  0
  5  6  2  0
  5  7  1  0
  7  8  1  0
  8  9  1  1
  9 10  1  0
  8 11  1  0
 11 12  2  0
 11 13  1  0
  2 14  1  0
 14 15  1  6
 15 16  1  0
 17 16  1  6
 17 18  1  0
 18 19  1  1
 19 20  1  1
 19 21  1  0
 22 21  1  1
 22 23  1  0
 23 24  1  0
 24 25  1  0
 25 26  1  0
 26 27  1  0
 27 28  1  6
 27 29  1  0
 29 30  1  6
 30 31  1  0
 31 32  1  0
 32 33  1  6
 32 14  1  0
 32 17  1  0
 29 18  1  0
 27 22  1  0
M  END
>  <MS_ID>  (825) 
MS0861

>  <SMILES>  (825) 
C[C@H](CCC(=O)N[C@@H](CO)C(=O)O)[C@H]1CC[C@H]2[C@@H]3[C@H](O)C[C@@H]4CCCC[C@]4(C)[C@H]3CC[C@]12C

>  <Structure_dimension>  (825) 
2D

$$$$
MS0862
     RDKit          2D

 29 32  0  0  0  0  0  0  0  0999 V2000
   -5.0303   -2.1373    0.0000 C   0  0  0  0  0  0  0  0  0  0  0  0
   -3.8594   -1.1998    0.0000 C   0  0  0  0  0  0  0  0  0  0  0  0
   -4.0858    0.2830    0.0000 C   0  0  0  0  0  0  0  0  0  0  0  0
   -5.4831    0.8284    0.0000 C   0  0  0  0  0  0  0  0  0  0  0  0
   -5.7095    2.3112    0.0000 C   0  0  0  0  0  0  0  0  0  0  0  0
   -4.5386    3.2487    0.0000 O   0  0  0  0  0  0  0  0  0  0  0  0
   -7.1069    2.8565    0.0000 O   0  0  0  0  0  0  0  0  0  0  0  0
   -2.4620   -1.7451    0.0000 C   0  0  0  0  0  0  0  0  0  0  0  0
   -2.0818   -3.1961    0.0000 C   0  0  0  0  0  0  0  0  0  0  0  0
   -0.5844   -3.2830    0.0000 C   0  0  0  0  0  0  0  0  0  0  0  0
   -0.0390   -1.8856    0.0000 C   0  0  0  0  0  0  0  0  0  0  0  0
    1.3643   -1.3559    0.0000 C   0  0  0  0  0  0  0  0  0  0  0  0
    2.5248   -2.3063    0.0000 C   0  0  0  0  0  0  0  0  0  0  0  0
    2.2819   -3.7865    0.0000 F   0  0  0  0  0  0  0  0  0  0  0  0
    3.9281   -1.7765    0.0000 C   0  0  0  0  0  0  0  0  0  0  0  0
    4.1710   -0.2963    0.0000 C   0  0  0  0  0  0  0  0  0  0  0  0
    5.5743    0.2334    0.0000 C   0  0  0  0  0  0  0  0  0  0  0  0
    5.8172    1.7136    0.0000 C   0  0  0  0  0  0  0  0  0  0  0  0
    7.2205    2.2434    0.0000 O   0  0  0  0  0  0  0  0  0  0  0  0
    4.6568    2.6641    0.0000 C   0  0  0  0  0  0  0  0  0  0  0  0
    3.2534    2.1343    0.0000 C   0  0  0  0  0  0  0  0  0  0  0  0
    3.0105    0.6541    0.0000 C   0  0  0  0  0  0  0  0  0  0  0  0
    1.8501    1.6046    0.0000 C   0  0  0  0  0  0  0  0  0  0  0  0
    1.6072    0.1244    0.0000 C   0  0  0  0  0  0  0  0  0  0  0  0
    0.4467    1.0748    0.0000 C   0  0  0  0  0  0  0  0  0  0  0  0
   -0.9566    0.5450    0.0000 C   0  0  0  0  0  0  0  0  0  0  0  0
   -2.1170    1.4955    0.0000 O   0  0  0  0  0  0  0  0  0  0  0  0
   -1.1995   -0.9352    0.0000 C   0  0  0  0  0  0  0  0  0  0  0  0
   -2.4529   -0.1112    0.0000 C   0  0  0  0  0  0  0  0  0  0  0  0
  2  1  1  6
  2  3  1  0
  3  4  1  0
  4  5  1  0
  5  6  2  0
  5  7  1  0
  2  8  1  0
  8  9  1  6
  9 10  1  0
 11 10  1  6
 11 12  1  0
 12 13  1  1
 13 14  1  1
 13 15  1  0
 16 15  1  1
 16 17  1  0
 17 18  1  0
 18 19  1  1
 18 20  1  0
 20 21  1  0
 21 22  1  0
 22 23  1  6
 22 24  1  0
 24 25  1  6
 25 26  1  0
 26 27  1  1
 26 28  1  0
 28 29  1  6
 28  8  1  0
 28 11  1  0
 24 12  1  0
 22 16  1  0
M  END
>  <MS_ID>  (826) 
MS0862

>  <SMILES>  (826) 
C[C@H](CCC(=O)O)[C@H]1CC[C@H]2[C@@H]3[C@H](F)C[C@@H]4C[C@H](O)CC[C@]4(C)[C@H]3C[C@H](O)[C@]12C

>  <Structure_dimension>  (826) 
2D

$$$$
MS0863
     RDKit          2D

 37 41  0  0  0  0  0  0  0  0999 V2000
   -1.5359   -4.6421    0.0000 C   0  0  0  0  0  0  0  0  0  0  0  0
   -0.9114   -3.2783    0.0000 C   0  0  0  0  0  0  0  0  0  0  0  0
   -1.7803   -2.0555    0.0000 C   0  0  0  0  0  0  0  0  0  0  0  0
   -3.2736   -2.1966    0.0000 C   0  0  0  0  0  0  0  0  0  0  0  0
   -4.1424   -0.9738    0.0000 C   0  0  0  0  0  0  0  0  0  0  0  0
   -3.5179    0.3900    0.0000 O   0  0  0  0  0  0  0  0  0  0  0  0
   -5.6358   -1.1149    0.0000 O   0  0  0  0  0  0  0  0  0  0  0  0
   -6.5046    0.1079    0.0000 C   0  0  0  0  0  0  0  0  0  0  0  0
   -8.0045    0.1237    0.0000 C   0  0  0  0  0  0  0  0  0  0  0  0
   -8.4530    1.5551    0.0000 C   0  0  0  0  0  0  0  0  0  0  0  0
   -9.8746    2.0336    0.0000 O   0  0  0  0  0  0  0  0  0  0  0  0
   -7.2303    2.4239    0.0000 C   0  0  0  0  0  0  0  0  0  0  0  0
   -7.2144    3.9239    0.0000 O   0  0  0  0  0  0  0  0  0  0  0  0
   -6.0261    1.5295    0.0000 C   0  0  0  0  0  0  0  0  0  0  0  0
   -4.5947    1.9780    0.0000 O   0  0  0  0  0  0  0  0  0  0  0  0
    0.5819   -3.1372    0.0000 C   0  0  0  0  0  0  0  0  0  0  0  0
    1.5738   -4.2624    0.0000 C   0  0  0  0  0  0  0  0  0  0  0  0
    2.9505   -3.6668    0.0000 C   0  0  0  0  0  0  0  0  0  0  0  0
    2.8094   -2.1735    0.0000 C   0  0  0  0  0  0  0  0  0  0  0  0
    3.8248   -1.0694    0.0000 C   0  0  0  0  0  0  0  0  0  0  0  0
    5.2887   -1.3967    0.0000 C   0  0  0  0  0  0  0  0  0  0  0  0
    5.7371   -2.8281    0.0000 O   0  0  0  0  0  0  0  0  0  0  0  0
    6.3041   -0.2926    0.0000 C   0  0  0  0  0  0  0  0  0  0  0  0
    5.8556    1.1388    0.0000 C   0  0  0  0  0  0  0  0  0  0  0  0
    6.8710    2.2428    0.0000 C   0  0  0  0  0  0  0  0  0  0  0  0
    6.4225    3.6742    0.0000 C   0  0  0  0  0  0  0  0  0  0  0  0
    7.4379    4.7783    0.0000 O   0  0  0  0  0  0  0  0  0  0  0  0
    4.9587    4.0016    0.0000 C   0  0  0  0  0  0  0  0  0  0  0  0
    3.9433    2.8975    0.0000 C   0  0  0  0  0  0  0  0  0  0  0  0
    4.3918    1.4661    0.0000 C   0  0  0  0  0  0  0  0  0  0  0  0
    2.9279    1.7934    0.0000 C   0  0  0  0  0  0  0  0  0  0  0  0
    3.3764    0.3620    0.0000 C   0  0  0  0  0  0  0  0  0  0  0  0
    1.9125    0.6893    0.0000 C   0  0  0  0  0  0  0  0  0  0  0  0
    0.8971   -0.4147    0.0000 C   0  0  0  0  0  0  0  0  0  0  0  0
   -0.5667   -0.0874    0.0000 O   0  0  0  0  0  0  0  0  0  0  0  0
    1.3456   -1.8461    0.0000 C   0  0  0  0  0  0  0  0  0  0  0  0
   -0.1445   -1.6736    0.0000 C   0  0  0  0  0  0  0  0  0  0  0  0
  2  1  1  6
  2  3  1  0
  3  4  1  0
  4  5  1  0
  5  6  2  0
  5  7  1  0
  8  7  1  1
  8  9  1  0
  9 10  1  0
 10 11  1  6
 10 12  1  0
 12 13  1  1
 12 14  1  0
 14 15  1  1
  2 16  1  0
 16 17  1  6
 17 18  1  0
 19 18  1  6
 19 20  1  0
 20 21  1  1
 21 22  1  1
 21 23  1  0
 24 23  1  1
 24 25  1  0
 25 26  1  0
 26 27  1  1
 26 28  1  0
 28 29  1  0
 29 30  1  0
 30 31  1  6
 30 32  1  0
 32 33  1  6
 33 34  1  0
 34 35  1  1
 34 36  1  0
 36 37  1  6
 14  8  1  0
 36 16  1  0
 36 19  1  0
 32 20  1  0
 30 24  1  0
M  END
>  <MS_ID>  (827) 
MS0863

>  <SMILES>  (827) 
C[C@H](CCC(=O)O[C@H]1C[C@H](O)[C@@H](O)[C@H]1O)[C@H]1CC[C@H]2[C@@H]3[C@H](O)C[C@@H]4C[C@H](O)CC[C@]4(C)[C@H]3C[C@H](O)[C@]12C

>  <Structure_dimension>  (827) 
2D

$$$$
MS0864
     RDKit          2D

 35 38  0  0  0  0  0  0  0  0999 V2000
   -2.1397   -4.2885    0.0000 C   0  0  0  0  0  0  0  0  0  0  0  0
   -1.4179   -2.9736    0.0000 C   0  0  0  0  0  0  0  0  0  0  0  0
   -2.1958   -1.6911    0.0000 C   0  0  0  0  0  0  0  0  0  0  0  0
   -3.6955   -1.7235    0.0000 C   0  0  0  0  0  0  0  0  0  0  0  0
   -4.4733   -0.4409    0.0000 C   0  0  0  0  0  0  0  0  0  0  0  0
   -3.7516    0.8740    0.0000 O   0  0  0  0  0  0  0  0  0  0  0  0
   -5.9730   -0.4733    0.0000 C   0  0  0  0  0  0  0  0  0  0  0  0
   -6.7509    0.8092    0.0000 C   0  0  0  0  0  0  0  0  0  0  0  0
   -6.0291    2.1241    0.0000 O   0  0  0  0  0  0  0  0  0  0  0  0
   -8.2505    0.7768    0.0000 C   0  0  0  0  0  0  0  0  0  0  0  0
   -9.0284    2.0594    0.0000 C   0  0  0  0  0  0  0  0  0  0  0  0
   -8.3066    3.3743    0.0000 O   0  0  0  0  0  0  0  0  0  0  0  0
  -10.5281    2.0270    0.0000 O   0  0  0  0  0  0  0  0  0  0  0  0
    0.0817   -2.9412    0.0000 C   0  0  0  0  0  0  0  0  0  0  0  0
    0.9894   -4.1354    0.0000 C   0  0  0  0  0  0  0  0  0  0  0  0
    2.4056   -3.6412    0.0000 C   0  0  0  0  0  0  0  0  0  0  0  0
    2.3732   -2.1415    0.0000 C   0  0  0  0  0  0  0  0  0  0  0  0
    3.4660   -1.1140    0.0000 C   0  0  0  0  0  0  0  0  0  0  0  0
    4.9023   -1.5466    0.0000 C   0  0  0  0  0  0  0  0  0  0  0  0
    5.2458   -3.0068    0.0000 O   0  0  0  0  0  0  0  0  0  0  0  0
    5.9951   -0.5191    0.0000 C   0  0  0  0  0  0  0  0  0  0  0  0
    5.6516    0.9411    0.0000 C   0  0  0  0  0  0  0  0  0  0  0  0
    6.7444    1.9686    0.0000 C   0  0  0  0  0  0  0  0  0  0  0  0
    6.4009    3.4287    0.0000 C   0  0  0  0  0  0  0  0  0  0  0  0
    7.4937    4.4563    0.0000 O   0  0  0  0  0  0  0  0  0  0  0  0
    4.9646    3.8614    0.0000 C   0  0  0  0  0  0  0  0  0  0  0  0
    3.8718    2.8338    0.0000 C   0  0  0  0  0  0  0  0  0  0  0  0
    4.2153    1.3737    0.0000 C   0  0  0  0  0  0  0  0  0  0  0  0
    2.7791    1.8063    0.0000 C   0  0  0  0  0  0  0  0  0  0  0  0
    3.1225    0.3461    0.0000 C   0  0  0  0  0  0  0  0  0  0  0  0
    1.6863    0.7787    0.0000 C   0  0  0  0  0  0  0  0  0  0  0  0
    0.5935   -0.2488    0.0000 C   0  0  0  0  0  0  0  0  0  0  0  0
   -0.8428    0.1838    0.0000 O   0  0  0  0  0  0  0  0  0  0  0  0
    0.9370   -1.7089    0.0000 C   0  0  0  0  0  0  0  0  0  0  0  0
   -0.5366   -1.4288    0.0000 C   0  0  0  0  0  0  0  0  0  0  0  0
  2  1  1  6
  2  3  1  0
  3  4  1  0
  4  5  1  0
  5  6  2  0
  5  7  1  0
  7  8  1  0
  8  9  1  1
  8 10  1  0
 10 11  1  0
 11 12  2  0
 11 13  1  0
  2 14  1  0
 14 15  1  6
 15 16  1  0
 17 16  1  6
 17 18  1  0
 18 19  1  1
 19 20  1  1
 19 21  1  0
 22 21  1  1
 22 23  1  0
 23 24  1  0
 24 25  1  1
 24 26  1  0
 26 27  1  0
 27 28  1  0
 28 29  1  6
 28 30  1  0
 30 31  1  6
 31 32  1  0
 32 33  1  1
 32 34  1  0
 34 35  1  6
 34 14  1  0
 34 17  1  0
 30 18  1  0
 28 22  1  0
M  END
>  <MS_ID>  (828) 
MS0864

>  <SMILES>  (828) 
C[C@H](CCC(=O)C[C@H](O)CC(=O)O)[C@H]1CC[C@H]2[C@@H]3[C@H](O)C[C@@H]4C[C@H](O)CC[C@]4(C)[C@H]3C[C@H](O)[C@]12C

>  <Structure_dimension>  (828) 
2D

$$$$
MS0865
     RDKit          2D

 34 38  0  0  0  0  0  0  0  0999 V2000
   -2.2608   -4.3306    0.0000 C   0  0  0  0  0  0  0  0  0  0  0  0
   -1.5430   -3.0135    0.0000 C   0  0  0  0  0  0  0  0  0  0  0  0
   -2.3248   -1.7333    0.0000 C   0  0  0  0  0  0  0  0  0  0  0  0
   -3.8244   -1.7702    0.0000 C   0  0  0  0  0  0  0  0  0  0  0  0
   -4.6061   -0.4901    0.0000 C   0  0  0  0  0  0  0  0  0  0  0  0
   -3.8883    0.8271    0.0000 O   0  0  0  0  0  0  0  0  0  0  0  0
   -6.1057   -0.5270    0.0000 N   0  0  0  0  0  0  0  0  0  0  0  0
   -6.8874    0.7532    0.0000 C   0  0  0  0  0  0  0  0  0  0  0  0
   -6.1696    2.0703    0.0000 C   0  0  0  0  0  0  0  0  0  0  0  0
   -6.9514    3.3505    0.0000 C   0  0  0  0  0  0  0  0  0  0  0  0
   -8.4509    3.3135    0.0000 C   0  0  0  0  0  0  0  0  0  0  0  0
   -9.1687    1.9964    0.0000 C   0  0  0  0  0  0  0  0  0  0  0  0
   -8.3870    0.7163    0.0000 C   0  0  0  0  0  0  0  0  0  0  0  0
   -0.0435   -2.9765    0.0000 C   0  0  0  0  0  0  0  0  0  0  0  0
    0.8678   -4.1680    0.0000 C   0  0  0  0  0  0  0  0  0  0  0  0
    2.2825   -3.6695    0.0000 C   0  0  0  0  0  0  0  0  0  0  0  0
    2.2456   -2.1699    0.0000 C   0  0  0  0  0  0  0  0  0  0  0  0
    3.3353   -1.1391    0.0000 C   0  0  0  0  0  0  0  0  0  0  0  0
    4.7728   -1.5673    0.0000 C   0  0  0  0  0  0  0  0  0  0  0  0
    5.1207   -3.0264    0.0000 O   0  0  0  0  0  0  0  0  0  0  0  0
    5.8625   -0.5365    0.0000 C   0  0  0  0  0  0  0  0  0  0  0  0
    5.5146    0.9226    0.0000 C   0  0  0  0  0  0  0  0  0  0  0  0
    6.6043    1.9534    0.0000 C   0  0  0  0  0  0  0  0  0  0  0  0
    6.2564    3.4125    0.0000 C   0  0  0  0  0  0  0  0  0  0  0  0
    7.3460    4.4434    0.0000 O   0  0  0  0  0  0  0  0  0  0  0  0
    4.8188    3.8408    0.0000 C   0  0  0  0  0  0  0  0  0  0  0  0
    3.7291    2.8099    0.0000 C   0  0  0  0  0  0  0  0  0  0  0  0
    4.0770    1.3509    0.0000 C   0  0  0  0  0  0  0  0  0  0  0  0
    2.6395    1.7791    0.0000 C   0  0  0  0  0  0  0  0  0  0  0  0
    2.9874    0.3200    0.0000 C   0  0  0  0  0  0  0  0  0  0  0  0
    1.5498    0.7483    0.0000 C   0  0  0  0  0  0  0  0  0  0  0  0
    0.4601   -0.2826    0.0000 C   0  0  0  0  0  0  0  0  0  0  0  0
    0.8080   -1.7417    0.0000 C   0  0  0  0  0  0  0  0  0  0  0  0
   -0.6664   -1.4660    0.0000 C   0  0  0  0  0  0  0  0  0  0  0  0
  2  1  1  6
  2  3  1  0
  3  4  1  0
  4  5  1  0
  5  6  2  0
  5  7  1  0
  7  8  1  0
  8  9  2  0
  9 10  1  0
 10 11  2  0
 11 12  1  0
 12 13  2  0
  2 14  1  0
 14 15  1  6
 15 16  1  0
 17 16  1  6
 17 18  1  0
 18 19  1  1
 19 20  1  1
 19 21  1  0
 22 21  1  1
 22 23  1  0
 23 24  1  0
 24 25  1  1
 24 26  1  0
 26 27  1  0
 27 28  1  0
 28 29  1  6
 28 30  1  0
 30 31  1  6
 31 32  1  0
 32 33  1  0
 33 34  1  6
 13  8  1  0
 33 14  1  0
 33 17  1  0
 30 18  1  0
 28 22  1  0
M  END
>  <MS_ID>  (829) 
MS0865

>  <SMILES>  (829) 
C[C@H](CCC(=O)Nc1ccccc1)[C@H]1CC[C@H]2[C@@H]3[C@H](O)C[C@@H]4C[C@H](O)CC[C@]4(C)[C@H]3CC[C@]12C

>  <Structure_dimension>  (829) 
2D

$$$$
MS0866
     RDKit          2D

 31 34  0  0  0  0  0  0  0  0999 V2000
   -4.7372   -2.2415    0.0000 C   0  0  0  0  0  0  0  0  0  0  0  0
   -3.5492   -1.3257    0.0000 C   0  0  0  0  0  0  0  0  0  0  0  0
   -3.7483    0.1610    0.0000 C   0  0  0  0  0  0  0  0  0  0  0  0
   -5.1354    0.7319    0.0000 C   0  0  0  0  0  0  0  0  0  0  0  0
   -5.3345    2.2187    0.0000 C   0  0  0  0  0  0  0  0  0  0  0  0
   -4.1465    3.1345    0.0000 O   0  0  0  0  0  0  0  0  0  0  0  0
   -6.7216    2.7896    0.0000 O   0  0  0  0  0  0  0  0  0  0  0  0
   -2.1621   -1.8967    0.0000 C   0  0  0  0  0  0  0  0  0  0  0  0
   -1.8087   -3.3544    0.0000 C   0  0  0  0  0  0  0  0  0  0  0  0
   -0.3131   -3.4688    0.0000 C   0  0  0  0  0  0  0  0  0  0  0  0
    0.2579   -2.0817    0.0000 C   0  0  0  0  0  0  0  0  0  0  0  0
    1.6707   -1.5778    0.0000 C   0  0  0  0  0  0  0  0  0  0  0  0
    2.8135   -2.5495    0.0000 C   0  0  0  0  0  0  0  0  0  0  0  0
    4.2263   -2.0456    0.0000 C   0  0  0  0  0  0  0  0  0  0  0  0
    4.4964   -0.5701    0.0000 C   0  0  0  0  0  0  0  0  0  0  0  0
    5.9092   -0.0662    0.0000 C   0  0  0  0  0  0  0  0  0  0  0  0
    6.1793    1.4092    0.0000 C   0  0  0  0  0  0  0  0  0  0  0  0
    7.5921    1.9131    0.0000 O   0  0  0  0  0  0  0  0  0  0  0  0
    5.0365    2.3809    0.0000 C   0  0  0  0  0  0  0  0  0  0  0  0
    3.6237    1.8770    0.0000 C   0  0  0  0  0  0  0  0  0  0  0  0
    3.3536    0.4015    0.0000 C   0  0  0  0  0  0  0  0  0  0  0  0
    2.2108    1.3732    0.0000 C   0  0  0  0  0  0  0  0  0  0  0  0
    1.9408   -0.1023    0.0000 C   0  0  0  0  0  0  0  0  0  0  0  0
    0.7980    0.8693    0.0000 C   0  0  0  0  0  0  0  0  0  0  0  0
   -0.6149    0.3654    0.0000 C   0  0  0  0  0  0  0  0  0  0  0  0
   -0.8657    1.8443    0.0000 O   0  0  0  0  0  0  0  0  0  0  0  0
   -2.1148    0.3752    0.0000 C   0  0  0  0  0  0  0  0  0  0  0  0
   -2.9645   -0.4933    0.0000 O   0  0  0  0  0  0  0  0  0  0  0  0
   -2.8564    1.6791    0.0000 O   0  0  0  0  0  0  0  0  0  0  0  0
   -0.8849   -1.1101    0.0000 C   0  0  0  0  0  0  0  0  0  0  0  0
   -2.1505   -0.6402    0.0000 C   0  0  0  0  0  0  0  0  0  0  0  0
  2  1  1  6
  2  3  1  0
  3  4  1  0
  4  5  1  0
  5  6  2  0
  5  7  1  0
  2  8  1  0
  8  9  1  6
  9 10  1  0
 11 10  1  6
 11 12  1  0
 12 13  1  1
 13 14  1  0
 15 14  1  1
 15 16  1  0
 16 17  1  0
 17 18  1  1
 17 19  1  0
 19 20  1  0
 20 21  1  0
 21 22  1  6
 21 23  1  0
 23 24  1  6
 24 25  1  0
 25 26  1  6
 25 27  1  0
 27 28  2  0
 27 29  1  0
 25 30  1  0
 30 31  1  6
 30  8  1  0
 30 11  1  0
 23 12  1  0
 21 15  1  0
M  END
>  <MS_ID>  (830) 
MS0866

>  <SMILES>  (830) 
C[C@H](CCC(=O)O)[C@H]1CC[C@H]2[C@@H]3CC[C@@H]4C[C@H](O)CC[C@]4(C)[C@H]3C[C@](O)(C(=O)O)[C@]12C

>  <Structure_dimension>  (830) 
2D

$$$$
MS0867
     RDKit          2D

 31 34  0  0  0  0  0  0  0  0999 V2000
   -3.9971    4.8499    0.0000 C   0  0  0  0  0  0  0  0  0  0  0  0
   -5.0345    3.7665    0.0000 C   0  0  0  0  0  0  0  0  0  0  0  0
   -4.6150    2.3263    0.0000 S   0  0  0  0  0  0  0  0  0  0  0  0
   -5.6525    1.2430    0.0000 C   0  0  0  0  0  0  0  0  0  0  0  0
   -7.1095    1.5998    0.0000 O   0  0  0  0  0  0  0  0  0  0  0  0
   -5.2330   -0.1972    0.0000 C   0  0  0  0  0  0  0  0  0  0  0  0
   -3.7761   -0.5540    0.0000 C   0  0  0  0  0  0  0  0  0  0  0  0
   -3.3566   -1.9941    0.0000 C   0  0  0  0  0  0  0  0  0  0  0  0
   -4.3941   -3.0775    0.0000 C   0  0  0  0  0  0  0  0  0  0  0  0
   -1.8996   -2.3509    0.0000 C   0  0  0  0  0  0  0  0  0  0  0  0
   -1.3319   -3.7393    0.0000 C   0  0  0  0  0  0  0  0  0  0  0  0
    0.1640   -3.6284    0.0000 C   0  0  0  0  0  0  0  0  0  0  0  0
    0.5208   -2.1715    0.0000 C   0  0  0  0  0  0  0  0  0  0  0  0
    1.8422   -1.4617    0.0000 C   0  0  0  0  0  0  0  0  0  0  0  0
    3.1176   -2.2513    0.0000 C   0  0  0  0  0  0  0  0  0  0  0  0
    3.0715   -3.7506    0.0000 O   0  0  0  0  0  0  0  0  0  0  0  0
    4.4391   -1.5416    0.0000 C   0  0  0  0  0  0  0  0  0  0  0  0
    4.4852   -0.0423    0.0000 C   0  0  0  0  0  0  0  0  0  0  0  0
    5.8066    0.6675    0.0000 C   0  0  0  0  0  0  0  0  0  0  0  0
    5.8527    2.1668    0.0000 C   0  0  0  0  0  0  0  0  0  0  0  0
    7.1742    2.8765    0.0000 O   0  0  0  0  0  0  0  0  0  0  0  0
    4.5773    2.9563    0.0000 C   0  0  0  0  0  0  0  0  0  0  0  0
    3.2559    2.2466    0.0000 C   0  0  0  0  0  0  0  0  0  0  0  0
    3.2098    0.7473    0.0000 C   0  0  0  0  0  0  0  0  0  0  0  0
    1.9344    1.5368    0.0000 C   0  0  0  0  0  0  0  0  0  0  0  0
    1.8883    0.0376    0.0000 C   0  0  0  0  0  0  0  0  0  0  0  0
    0.6129    0.8271    0.0000 C   0  0  0  0  0  0  0  0  0  0  0  0
   -0.7085    0.1174    0.0000 C   0  0  0  0  0  0  0  0  0  0  0  0
   -1.9839    0.9069    0.0000 O   0  0  0  0  0  0  0  0  0  0  0  0
   -0.7546   -1.3819    0.0000 C   0  0  0  0  0  0  0  0  0  0  0  0
   -2.1055   -0.7300    0.0000 C   0  0  0  0  0  0  0  0  0  0  0  0
  1  2  1  0
  2  3  1  0
  3  4  1  0
  4  5  2  0
  4  6  1  0
  6  7  1  0
  7  8  1  0
  8  9  1  6
  8 10  1  0
 10 11  1  6
 11 12  1  0
 13 12  1  6
 13 14  1  0
 14 15  1  1
 15 16  1  1
 15 17  1  0
 18 17  1  1
 18 19  1  0
 19 20  1  0
 20 21  1  1
 20 22  1  0
 22 23  1  0
 23 24  1  0
 24 25  1  6
 24 26  1  0
 26 27  1  6
 27 28  1  0
 28 29  1  1
 28 30  1  0
 30 31  1  6
 30 10  1  0
 30 13  1  0
 26 14  1  0
 24 18  1  0
M  END
>  <MS_ID>  (831) 
MS0867

>  <SMILES>  (831) 
CCSC(=O)CC[C@@H](C)[C@H]1CC[C@H]2[C@@H]3[C@H](O)C[C@@H]4C[C@H](O)CC[C@]4(C)[C@H]3C[C@H](O)[C@]12C

>  <Structure_dimension>  (831) 
2D

$$$$
MS0868
     RDKit          2D

 33 36  0  0  0  0  0  0  0  0999 V2000
   -2.3545   -4.2141    0.0000 C   0  0  0  0  0  0  0  0  0  0  0  0
   -1.5746   -2.9328    0.0000 C   0  0  0  0  0  0  0  0  0  0  0  0
   -2.2943   -1.6167    0.0000 C   0  0  0  0  0  0  0  0  0  0  0  0
   -3.7939   -1.5819    0.0000 C   0  0  0  0  0  0  0  0  0  0  0  0
   -4.5135   -0.2658    0.0000 C   0  0  0  0  0  0  0  0  0  0  0  0
   -3.7336    1.0155    0.0000 O   0  0  0  0  0  0  0  0  0  0  0  0
   -6.0131   -0.2310    0.0000 N   0  0  0  0  0  0  0  0  0  0  0  0
   -6.7328    1.0851    0.0000 C   0  0  0  0  0  0  0  0  0  0  0  0
   -8.2324    1.1199    0.0000 C   0  0  0  0  0  0  0  0  0  0  0  0
   -8.9520    2.4360    0.0000 C   0  0  0  0  0  0  0  0  0  0  0  0
   -8.1721    3.7173    0.0000 O   0  0  0  0  0  0  0  0  0  0  0  0
  -10.4516    2.4708    0.0000 O   0  0  0  0  0  0  0  0  0  0  0  0
   -0.0750   -2.9676    0.0000 C   0  0  0  0  0  0  0  0  0  0  0  0
    0.7783   -4.2012    0.0000 C   0  0  0  0  0  0  0  0  0  0  0  0
    2.2152   -3.7709    0.0000 C   0  0  0  0  0  0  0  0  0  0  0  0
    2.2500   -2.2713    0.0000 C   0  0  0  0  0  0  0  0  0  0  0  0
    3.3877   -1.2938    0.0000 C   0  0  0  0  0  0  0  0  0  0  0  0
    4.8032   -1.7903    0.0000 C   0  0  0  0  0  0  0  0  0  0  0  0
    5.9409   -0.8127    0.0000 C   0  0  0  0  0  0  0  0  0  0  0  0
    5.6632    0.6614    0.0000 C   0  0  0  0  0  0  0  0  0  0  0  0
    6.8009    1.6389    0.0000 C   0  0  0  0  0  0  0  0  0  0  0  0
    6.5231    3.1130    0.0000 C   0  0  0  0  0  0  0  0  0  0  0  0
    7.6608    4.0905    0.0000 O   0  0  0  0  0  0  0  0  0  0  0  0
    5.1077    3.6095    0.0000 C   0  0  0  0  0  0  0  0  0  0  0  0
    3.9700    2.6319    0.0000 C   0  0  0  0  0  0  0  0  0  0  0  0
    4.2477    1.1579    0.0000 C   0  0  0  0  0  0  0  0  0  0  0  0
    2.8323    1.6544    0.0000 C   0  0  0  0  0  0  0  0  0  0  0  0
    3.1100    0.1803    0.0000 C   0  0  0  0  0  0  0  0  0  0  0  0
    1.6946    0.6768    0.0000 C   0  0  0  0  0  0  0  0  0  0  0  0
    0.5569   -0.3008    0.0000 C   0  0  0  0  0  0  0  0  0  0  0  0
   -0.8586    0.1957    0.0000 O   0  0  0  0  0  0  0  0  0  0  0  0
    0.8346   -1.7748    0.0000 C   0  0  0  0  0  0  0  0  0  0  0  0
   -0.6250   -1.4290    0.0000 C   0  0  0  0  0  0  0  0  0  0  0  0
  2  1  1  6
  2  3  1  0
  3  4  1  0
  4  5  1  0
  5  6  2  0
  5  7  1  0
  7  8  1  0
  8  9  1  0
  9 10  1  0
 10 11  2  0
 10 12  1  0
  2 13  1  0
 13 14  1  6
 14 15  1  0
 16 15  1  6
 16 17  1  0
 17 18  1  1
 18 19  1  0
 20 19  1  1
 20 21  1  0
 21 22  1  0
 22 23  1  1
 22 24  1  0
 24 25  1  0
 25 26  1  0
 26 27  1  6
 26 28  1  0
 28 29  1  6
 29 30  1  0
 30 31  1  6
 30 32  1  0
 32 33  1  6
 32 13  1  0
 32 16  1  0
 28 17  1  0
 26 20  1  0
M  END
>  <MS_ID>  (832) 
MS0868

>  <SMILES>  (832) 
C[C@H](CCC(=O)NCCC(=O)O)[C@H]1CC[C@H]2[C@@H]3CC[C@@H]4C[C@H](O)CC[C@]4(C)[C@H]3C[C@@H](O)[C@]12C

>  <Structure_dimension>  (832) 
2D

$$$$
MS0869
     RDKit          2D

 39 43  0  0  0  0  0  0  0  0999 V2000
   -0.6608   -4.8801    0.0000 C   0  0  0  0  0  0  0  0  0  0  0  0
   -0.0594   -3.5059    0.0000 C   0  0  0  0  0  0  0  0  0  0  0  0
   -0.9487   -2.2980    0.0000 C   0  0  0  0  0  0  0  0  0  0  0  0
   -2.4395   -2.4642    0.0000 C   0  0  0  0  0  0  0  0  0  0  0  0
   -3.3288   -1.2563    0.0000 C   0  0  0  0  0  0  0  0  0  0  0  0
   -2.7274    0.1179    0.0000 O   0  0  0  0  0  0  0  0  0  0  0  0
   -4.8196   -1.4225    0.0000 O   0  0  0  0  0  0  0  0  0  0  0  0
   -5.7089   -0.2146    0.0000 C   0  0  0  0  0  0  0  0  0  0  0  0
   -5.1074    1.1596    0.0000 O   0  0  0  0  0  0  0  0  0  0  0  0
   -5.9968    2.3675    0.0000 C   0  0  0  0  0  0  0  0  0  0  0  0
   -5.3953    3.7417    0.0000 C   0  0  0  0  0  0  0  0  0  0  0  0
   -3.9046    3.9079    0.0000 O   0  0  0  0  0  0  0  0  0  0  0  0
   -7.4875    2.2013    0.0000 C   0  0  0  0  0  0  0  0  0  0  0  0
   -8.3768    3.4092    0.0000 O   0  0  0  0  0  0  0  0  0  0  0  0
   -8.0890    0.8272    0.0000 C   0  0  0  0  0  0  0  0  0  0  0  0
   -9.5797    0.6610    0.0000 O   0  0  0  0  0  0  0  0  0  0  0  0
   -7.1996   -0.3808    0.0000 C   0  0  0  0  0  0  0  0  0  0  0  0
   -7.8011   -1.7549    0.0000 O   0  0  0  0  0  0  0  0  0  0  0  0
    1.4314   -3.3397    0.0000 C   0  0  0  0  0  0  0  0  0  0  0  0
    2.4421   -4.4481    0.0000 C   0  0  0  0  0  0  0  0  0  0  0  0
    3.8085   -3.8293    0.0000 C   0  0  0  0  0  0  0  0  0  0  0  0
    3.6423   -2.3386    0.0000 C   0  0  0  0  0  0  0  0  0  0  0  0
    4.6390   -1.2176    0.0000 C   0  0  0  0  0  0  0  0  0  0  0  0
    6.1081   -1.5201    0.0000 C   0  0  0  0  0  0  0  0  0  0  0  0
    7.1048   -0.3991    0.0000 C   0  0  0  0  0  0  0  0  0  0  0  0
    6.6322    1.0245    0.0000 C   0  0  0  0  0  0  0  0  0  0  0  0
    7.6289    2.1455    0.0000 C   0  0  0  0  0  0  0  0  0  0  0  0
    7.1563    3.5692    0.0000 C   0  0  0  0  0  0  0  0  0  0  0  0
    8.1530    4.6902    0.0000 O   0  0  0  0  0  0  0  0  0  0  0  0
    5.6872    3.8718    0.0000 C   0  0  0  0  0  0  0  0  0  0  0  0
    4.6906    2.7507    0.0000 C   0  0  0  0  0  0  0  0  0  0  0  0
    5.1631    1.3271    0.0000 C   0  0  0  0  0  0  0  0  0  0  0  0
    3.6939    1.6297    0.0000 C   0  0  0  0  0  0  0  0  0  0  0  0
    4.1664    0.2061    0.0000 C   0  0  0  0  0  0  0  0  0  0  0  0
    2.6973    0.5087    0.0000 C   0  0  0  0  0  0  0  0  0  0  0  0
    1.7006   -0.6124    0.0000 C   0  0  0  0  0  0  0  0  0  0  0  0
    0.2315   -0.3098    0.0000 O   0  0  0  0  0  0  0  0  0  0  0  0
    2.1732   -2.0360    0.0000 C   0  0  0  0  0  0  0  0  0  0  0  0
    0.6804   -1.8886    0.0000 C   0  0  0  0  0  0  0  0  0  0  0  0
  2  1  1  6
  2  3  1  0
  3  4  1  0
  4  5  1  0
  5  6  2  0
  5  7  1  0
  8  7  1  1
  8  9  1  0
  9 10  1  0
 10 11  1  1
 11 12  1  0
 10 13  1  0
 13 14  1  1
 13 15  1  0
 15 16  1  1
 15 17  1  0
 17 18  1  6
  2 19  1  0
 19 20  1  6
 20 21  1  0
 22 21  1  6
 22 23  1  0
 23 24  1  1
 24 25  1  0
 26 25  1  1
 26 27  1  0
 27 28  1  0
 28 29  1  1
 28 30  1  0
 30 31  1  0
 31 32  1  0
 32 33  1  6
 32 34  1  0
 34 35  1  6
 35 36  1  0
 36 37  1  1
 36 38  1  0
 38 39  1  6
 17  8  1  0
 38 19  1  0
 38 22  1  0
 34 23  1  0
 32 26  1  0
M  END
>  <MS_ID>  (833) 
MS0869

>  <SMILES>  (833) 
C[C@H](CCC(=O)O[C@@H]1O[C@H](CO)[C@H](O)[C@H](O)[C@H]1O)[C@H]1CC[C@H]2[C@@H]3CC[C@@H]4C[C@H](O)CC[C@]4(C)[C@H]3C[C@H](O)[C@]12C

>  <Structure_dimension>  (833) 
2D

$$$$
MS0870
     RDKit          2D

 32 35  0  0  0  0  0  0  0  0999 V2000
   -9.3885    3.6424    0.0000 C   0  0  0  0  0  0  0  0  0  0  0  0
   -8.7975    2.2638    0.0000 C   0  0  0  0  0  0  0  0  0  0  0  0
   -7.3080    2.0863    0.0000 C   0  0  0  0  0  0  0  0  0  0  0  0
   -6.7170    0.7076    0.0000 O   0  0  0  0  0  0  0  0  0  0  0  0
   -5.2276    0.5301    0.0000 C   0  0  0  0  0  0  0  0  0  0  0  0
   -4.3291    1.7312    0.0000 O   0  0  0  0  0  0  0  0  0  0  0  0
   -4.6366   -0.8486    0.0000 C   0  0  0  0  0  0  0  0  0  0  0  0
   -3.1471   -1.0261    0.0000 C   0  0  0  0  0  0  0  0  0  0  0  0
   -2.5561   -2.4048    0.0000 C   0  0  0  0  0  0  0  0  0  0  0  0
   -3.4546   -3.6059    0.0000 C   0  0  0  0  0  0  0  0  0  0  0  0
   -1.0667   -2.5823    0.0000 C   0  0  0  0  0  0  0  0  0  0  0  0
   -0.3348   -3.8917    0.0000 C   0  0  0  0  0  0  0  0  0  0  0  0
    1.1366   -3.6002    0.0000 C   0  0  0  0  0  0  0  0  0  0  0  0
    1.3141   -2.1108    0.0000 C   0  0  0  0  0  0  0  0  0  0  0  0
    2.5398   -1.2460    0.0000 C   0  0  0  0  0  0  0  0  0  0  0  0
    3.9015   -1.8751    0.0000 C   0  0  0  0  0  0  0  0  0  0  0  0
    4.0375   -3.3690    0.0000 O   0  0  0  0  0  0  0  0  0  0  0  0
    5.1272   -1.0104    0.0000 C   0  0  0  0  0  0  0  0  0  0  0  0
    4.9911    0.4834    0.0000 C   0  0  0  0  0  0  0  0  0  0  0  0
    6.2168    1.3481    0.0000 C   0  0  0  0  0  0  0  0  0  0  0  0
    6.0808    2.8419    0.0000 C   0  0  0  0  0  0  0  0  0  0  0  0
    7.3064    3.7067    0.0000 O   0  0  0  0  0  0  0  0  0  0  0  0
    4.7191    3.4710    0.0000 C   0  0  0  0  0  0  0  0  0  0  0  0
    3.4934    2.6063    0.0000 C   0  0  0  0  0  0  0  0  0  0  0  0
    3.6294    1.1125    0.0000 C   0  0  0  0  0  0  0  0  0  0  0  0
    2.2677    1.7416    0.0000 C   0  0  0  0  0  0  0  0  0  0  0  0
    2.4038    0.2478    0.0000 C   0  0  0  0  0  0  0  0  0  0  0  0
    1.0421    0.8769    0.0000 C   0  0  0  0  0  0  0  0  0  0  0  0
   -0.1836    0.0122    0.0000 C   0  0  0  0  0  0  0  0  0  0  0  0
   -1.5453    0.6413    0.0000 O   0  0  0  0  0  0  0  0  0  0  0  0
   -0.0476   -1.4817    0.0000 C   0  0  0  0  0  0  0  0  0  0  0  0
   -1.4676   -0.9983    0.0000 C   0  0  0  0  0  0  0  0  0  0  0  0
  1  2  1  0
  2  3  1  0
  3  4  1  0
  4  5  1  0
  5  6  2  0
  5  7  1  0
  7  8  1  0
  8  9  1  0
  9 10  1  6
  9 11  1  0
 11 12  1  6
 12 13  1  0
 14 13  1  6
 14 15  1  0
 15 16  1  1
 16 17  1  1
 16 18  1  0
 19 18  1  1
 19 20  1  0
 20 21  1  0
 21 22  2  0
 21 23  1  0
 23 24  1  0
 24 25  1  0
 25 26  1  6
 25 27  1  0
 27 28  1  6
 28 29  1  0
 29 30  1  1
 29 31  1  0
 31 32  1  6
 31 11  1  0
 31 14  1  0
 27 15  1  0
 25 19  1  0
M  END
>  <MS_ID>  (834) 
MS0870

>  <SMILES>  (834) 
CCCOC(=O)CC[C@@H](C)[C@H]1CC[C@H]2[C@@H]3[C@H](O)C[C@@H]4CC(=O)CC[C@]4(C)[C@H]3C[C@H](O)[C@]12C

>  <Structure_dimension>  (834) 
2D

$$$$
MS0871
     RDKit          2D

 28 31  0  0  0  0  0  0  0  0999 V2000
   -5.4410   -1.9671    0.0000 C   0  0  0  0  0  0  0  0  0  0  0  0
   -4.2199   -1.0958    0.0000 C   0  0  0  0  0  0  0  0  0  0  0  0
   -4.3639    0.3972    0.0000 C   0  0  0  0  0  0  0  0  0  0  0  0
   -5.7289    1.0191    0.0000 C   0  0  0  0  0  0  0  0  0  0  0  0
   -5.8729    2.5122    0.0000 C   0  0  0  0  0  0  0  0  0  0  0  0
   -4.6519    3.3834    0.0000 O   0  0  0  0  0  0  0  0  0  0  0  0
   -7.2379    3.1340    0.0000 O   0  0  0  0  0  0  0  0  0  0  0  0
   -2.8549   -1.7177    0.0000 C   0  0  0  0  0  0  0  0  0  0  0  0
   -2.5557   -3.1875    0.0000 C   0  0  0  0  0  0  0  0  0  0  0  0
   -1.0653   -3.3571    0.0000 C   0  0  0  0  0  0  0  0  0  0  0  0
   -0.4434   -1.9921    0.0000 C   0  0  0  0  0  0  0  0  0  0  0  0
    0.9871   -1.5409    0.0000 C   0  0  0  0  0  0  0  0  0  0  0  0
    2.0931   -2.5541    0.0000 C   0  0  0  0  0  0  0  0  0  0  0  0
    3.5237   -2.1029    0.0000 C   0  0  0  0  0  0  0  0  0  0  0  0
    3.8481   -0.6384    0.0000 C   0  0  0  0  0  0  0  0  0  0  0  0
    5.2786   -0.1871    0.0000 C   0  0  0  0  0  0  0  0  0  0  0  0
    5.6031    1.2774    0.0000 C   0  0  0  0  0  0  0  0  0  0  0  0
    7.0336    1.7286    0.0000 C   0  0  0  0  0  0  0  0  0  0  0  0
    8.1397    0.7154    0.0000 O   0  0  0  0  0  0  0  0  0  0  0  0
    4.4970    2.2906    0.0000 C   0  0  0  0  0  0  0  0  0  0  0  0
    3.0665    1.8394    0.0000 C   0  0  0  0  0  0  0  0  0  0  0  0
    2.7421    0.3749    0.0000 C   0  0  0  0  0  0  0  0  0  0  0  0
    1.6360    1.3881    0.0000 C   0  0  0  0  0  0  0  0  0  0  0  0
    1.3115   -0.0764    0.0000 C   0  0  0  0  0  0  0  0  0  0  0  0
    0.2055    0.9369    0.0000 C   0  0  0  0  0  0  0  0  0  0  0  0
   -1.2250    0.4856    0.0000 C   0  0  0  0  0  0  0  0  0  0  0  0
   -1.5495   -0.9789    0.0000 C   0  0  0  0  0  0  0  0  0  0  0  0
   -2.7554   -0.0868    0.0000 C   0  0  0  0  0  0  0  0  0  0  0  0
  2  1  1  6
  2  3  1  0
  3  4  1  0
  4  5  1  0
  5  6  2  0
  5  7  1  0
  2  8  1  0
  8  9  1  6
  9 10  1  0
 11 10  1  6
 11 12  1  0
 12 13  1  1
 13 14  1  0
 15 14  1  1
 15 16  1  0
 16 17  1  0
 17 18  1  1
 18 19  1  0
 17 20  1  0
 20 21  1  0
 21 22  1  0
 22 23  1  6
 22 24  1  0
 24 25  1  6
 25 26  1  0
 26 27  1  0
 27 28  1  6
 27  8  1  0
 27 11  1  0
 24 12  1  0
 22 15  1  0
M  END
>  <MS_ID>  (835) 
MS0871

>  <SMILES>  (835) 
C[C@H](CCC(=O)O)[C@H]1CC[C@H]2[C@@H]3CC[C@@H]4C[C@H](CO)CC[C@]4(C)[C@H]3CC[C@]12C

>  <Structure_dimension>  (835) 
2D

$$$$
MS0872
     RDKit          2D

 35 38  0  0  0  0  0  0  0  0999 V2000
   -9.9362    1.9656    0.0000 C   0  0  0  0  0  0  0  0  0  0  0  0
   -8.4369    1.9215    0.0000 C   0  0  0  0  0  0  0  0  0  0  0  0
   -7.7254    0.6009    0.0000 O   0  0  0  0  0  0  0  0  0  0  0  0
   -6.2261    0.5567    0.0000 C   0  0  0  0  0  0  0  0  0  0  0  0
   -5.4382    1.8331    0.0000 O   0  0  0  0  0  0  0  0  0  0  0  0
   -5.5147   -0.7638    0.0000 C   0  0  0  0  0  0  0  0  0  0  0  0
   -4.0153   -0.8080    0.0000 C   0  0  0  0  0  0  0  0  0  0  0  0
   -3.3039   -2.1285    0.0000 C   0  0  0  0  0  0  0  0  0  0  0  0
   -4.0918   -3.4049    0.0000 C   0  0  0  0  0  0  0  0  0  0  0  0
   -1.8045   -2.1727    0.0000 C   0  0  0  0  0  0  0  0  0  0  0  0
   -0.9590   -3.4117    0.0000 C   0  0  0  0  0  0  0  0  0  0  0  0
    0.4806   -2.9903    0.0000 C   0  0  0  0  0  0  0  0  0  0  0  0
    0.5248   -1.4910    0.0000 C   0  0  0  0  0  0  0  0  0  0  0  0
    1.6686   -0.5205    0.0000 C   0  0  0  0  0  0  0  0  0  0  0  0
    3.0809   -1.0259    0.0000 C   0  0  0  0  0  0  0  0  0  0  0  0
    3.3494   -2.5016    0.0000 O   0  0  0  0  0  0  0  0  0  0  0  0
    4.7618   -3.0070    0.0000 S   0  0  0  0  0  0  0  0  0  0  0  0
    5.2671   -1.5946    0.0000 O   0  0  0  0  0  0  0  0  0  0  0  0
    4.2564   -4.4193    0.0000 O   0  0  0  0  0  0  0  0  0  0  0  0
    6.1741   -3.5123    0.0000 O   0  0  0  0  0  0  0  0  0  0  0  0
    4.2247   -0.0554    0.0000 C   0  0  0  0  0  0  0  0  0  0  0  0
    3.9562    1.4203    0.0000 C   0  0  0  0  0  0  0  0  0  0  0  0
    5.0999    2.3908    0.0000 C   0  0  0  0  0  0  0  0  0  0  0  0
    4.8314    3.8666    0.0000 C   0  0  0  0  0  0  0  0  0  0  0  0
    5.9752    4.8370    0.0000 O   0  0  0  0  0  0  0  0  0  0  0  0
    3.4191    4.3719    0.0000 C   0  0  0  0  0  0  0  0  0  0  0  0
    2.2753    3.4014    0.0000 C   0  0  0  0  0  0  0  0  0  0  0  0
    2.5438    1.9257    0.0000 C   0  0  0  0  0  0  0  0  0  0  0  0
    1.1315    2.4310    0.0000 C   0  0  0  0  0  0  0  0  0  0  0  0
    1.4001    0.9552    0.0000 C   0  0  0  0  0  0  0  0  0  0  0  0
   -0.0123    1.4606    0.0000 C   0  0  0  0  0  0  0  0  0  0  0  0
   -1.1560    0.4901    0.0000 C   0  0  0  0  0  0  0  0  0  0  0  0
   -2.5684    0.9954    0.0000 O   0  0  0  0  0  0  0  0  0  0  0  0
   -0.8875   -0.9857    0.0000 C   0  0  0  0  0  0  0  0  0  0  0  0
   -2.3449   -0.6307    0.0000 C   0  0  0  0  0  0  0  0  0  0  0  0
  1  2  1  0
  2  3  1  0
  3  4  1  0
  4  5  2  0
  4  6  1  0
  6  7  1  0
  7  8  1  0
  8  9  1  6
  8 10  1  0
 10 11  1  6
 11 12  1  0
 13 12  1  6
 13 14  1  0
 14 15  1  1
 15 16  1  1
 16 17  1  0
 17 18  2  0
 17 19  2  0
 17 20  1  0
 15 21  1  0
 22 21  1  1
 22 23  1  0
 23 24  1  0
 24 25  1  1
 24 26  1  0
 26 27  1  0
 27 28  1  0
 28 29  1  6
 28 30  1  0
 30 31  1  6
 31 32  1  0
 32 33  1  1
 32 34  1  0
 34 35  1  6
 34 10  1  0
 34 13  1  0
 30 14  1  0
 28 22  1  0
M  END
>  <MS_ID>  (836) 
MS0872

>  <SMILES>  (836) 
CCOC(=O)CC[C@@H](C)[C@H]1CC[C@H]2[C@@H]3[C@H](OS(=O)(=O)O)C[C@@H]4C[C@H](O)CC[C@]4(C)[C@H]3C[C@H](O)[C@]12C

>  <Structure_dimension>  (836) 
2D

$$$$
MS0873
     RDKit          2D

 39 43  0  0  0  0  0  0  0  0999 V2000
   -0.7193   -4.8292    0.0000 C   0  0  0  0  0  0  0  0  0  0  0  0
   -0.1477   -3.4424    0.0000 C   0  0  0  0  0  0  0  0  0  0  0  0
   -1.0630   -2.2540    0.0000 C   0  0  0  0  0  0  0  0  0  0  0  0
   -2.5498   -2.4524    0.0000 C   0  0  0  0  0  0  0  0  0  0  0  0
   -3.4650   -1.2640    0.0000 C   0  0  0  0  0  0  0  0  0  0  0  0
   -2.8935    0.1228    0.0000 O   0  0  0  0  0  0  0  0  0  0  0  0
   -4.9519   -1.4625    0.0000 O   0  0  0  0  0  0  0  0  0  0  0  0
   -5.8671   -0.2741    0.0000 C   0  0  0  0  0  0  0  0  0  0  0  0
   -5.2956    1.1128    0.0000 O   0  0  0  0  0  0  0  0  0  0  0  0
   -6.2108    2.3012    0.0000 C   0  0  0  0  0  0  0  0  0  0  0  0
   -5.6393    3.6880    0.0000 C   0  0  0  0  0  0  0  0  0  0  0  0
   -4.1524    3.8864    0.0000 O   0  0  0  0  0  0  0  0  0  0  0  0
   -7.6976    2.1027    0.0000 C   0  0  0  0  0  0  0  0  0  0  0  0
   -8.6129    3.2911    0.0000 O   0  0  0  0  0  0  0  0  0  0  0  0
   -8.2692    0.7159    0.0000 C   0  0  0  0  0  0  0  0  0  0  0  0
   -9.7560    0.5175    0.0000 O   0  0  0  0  0  0  0  0  0  0  0  0
   -7.3539   -0.4725    0.0000 C   0  0  0  0  0  0  0  0  0  0  0  0
   -7.9255   -1.8593    0.0000 O   0  0  0  0  0  0  0  0  0  0  0  0
    1.3391   -3.2440    0.0000 C   0  0  0  0  0  0  0  0  0  0  0  0
    2.3736   -4.3302    0.0000 C   0  0  0  0  0  0  0  0  0  0  0  0
    3.7263   -3.6820    0.0000 C   0  0  0  0  0  0  0  0  0  0  0  0
    3.5279   -2.1952    0.0000 C   0  0  0  0  0  0  0  0  0  0  0  0
    4.5000   -1.0529    0.0000 C   0  0  0  0  0  0  0  0  0  0  0  0
    5.9754   -1.3236    0.0000 C   0  0  0  0  0  0  0  0  0  0  0  0
    6.4786   -2.7367    0.0000 O   0  0  0  0  0  0  0  0  0  0  0  0
    6.9475   -0.1813    0.0000 C   0  0  0  0  0  0  0  0  0  0  0  0
    6.4443    1.2318    0.0000 C   0  0  0  0  0  0  0  0  0  0  0  0
    7.4164    2.3742    0.0000 C   0  0  0  0  0  0  0  0  0  0  0  0
    6.9132    3.7872    0.0000 C   0  0  0  0  0  0  0  0  0  0  0  0
    7.8853    4.9296    0.0000 O   0  0  0  0  0  0  0  0  0  0  0  0
    5.4378    4.0580    0.0000 C   0  0  0  0  0  0  0  0  0  0  0  0
    4.4657    2.9156    0.0000 C   0  0  0  0  0  0  0  0  0  0  0  0
    4.9689    1.5025    0.0000 C   0  0  0  0  0  0  0  0  0  0  0  0
    3.4936    1.7733    0.0000 C   0  0  0  0  0  0  0  0  0  0  0  0
    3.9968    0.3602    0.0000 C   0  0  0  0  0  0  0  0  0  0  0  0
    2.5214    0.6309    0.0000 C   0  0  0  0  0  0  0  0  0  0  0  0
    1.5493   -0.5114    0.0000 C   0  0  0  0  0  0  0  0  0  0  0  0
    2.0525   -1.9245    0.0000 C   0  0  0  0  0  0  0  0  0  0  0  0
    0.5569   -1.8095    0.0000 C   0  0  0  0  0  0  0  0  0  0  0  0
  2  1  1  6
  2  3  1  0
  3  4  1  0
  4  5  1  0
  5  6  2  0
  5  7  1  0
  8  7  1  6
  8  9  1  0
  9 10  1  0
 10 11  1  1
 11 12  1  0
 10 13  1  0
 13 14  1  6
 13 15  1  0
 15 16  1  1
 15 17  1  0
 17 18  1  6
  2 19  1  0
 19 20  1  6
 20 21  1  0
 22 21  1  6
 22 23  1  0
 23 24  1  1
 24 25  1  1
 24 26  1  0
 27 26  1  1
 27 28  1  0
 28 29  1  0
 29 30  1  1
 29 31  1  0
 31 32  1  0
 32 33  1  0
 33 34  1  6
 33 35  1  0
 35 36  1  6
 36 37  1  0
 37 38  1  0
 38 39  1  6
 17  8  1  0
 38 19  1  0
 38 22  1  0
 35 23  1  0
 33 27  1  0
M  END
>  <MS_ID>  (837) 
MS0873

>  <SMILES>  (837) 
C[C@H](CCC(=O)O[C@H]1O[C@H](CO)[C@@H](O)[C@H](O)[C@H]1O)[C@H]1CC[C@H]2[C@@H]3[C@H](O)C[C@@H]4C[C@H](O)CC[C@]4(C)[C@H]3CC[C@]12C

>  <Structure_dimension>  (837) 
2D

$$$$
MS0874
     RDKit          2D

 30 33  0  0  0  0  0  0  0  0999 V2000
   -4.0199   -3.1584    0.0000 C   0  0  0  0  0  0  0  0  0  0  0  0
   -2.9902   -2.0677    0.0000 C   0  0  0  0  0  0  0  0  0  0  0  0
   -3.4199   -0.6306    0.0000 C   0  0  0  0  0  0  0  0  0  0  0  0
   -4.8793   -0.2841    0.0000 C   0  0  0  0  0  0  0  0  0  0  0  0
   -5.3090    1.1530    0.0000 C   0  0  0  0  0  0  0  0  0  0  0  0
   -4.2792    2.2437    0.0000 O   0  0  0  0  0  0  0  0  0  0  0  0
   -6.7684    1.4995    0.0000 C   0  0  0  0  0  0  0  0  0  0  0  0
   -7.1981    2.9366    0.0000 C   0  0  0  0  0  0  0  0  0  0  0  0
   -8.6575    3.2831    0.0000 O   0  0  0  0  0  0  0  0  0  0  0  0
   -1.5307   -2.4142    0.0000 C   0  0  0  0  0  0  0  0  0  0  0  0
   -0.9532   -3.7985    0.0000 C   0  0  0  0  0  0  0  0  0  0  0  0
    0.5419   -3.6770    0.0000 C   0  0  0  0  0  0  0  0  0  0  0  0
    0.8883   -2.2176    0.0000 C   0  0  0  0  0  0  0  0  0  0  0  0
    2.2047   -1.4985    0.0000 C   0  0  0  0  0  0  0  0  0  0  0  0
    3.4857   -2.2790    0.0000 C   0  0  0  0  0  0  0  0  0  0  0  0
    4.8021   -1.5599    0.0000 C   0  0  0  0  0  0  0  0  0  0  0  0
    4.8375   -0.0603    0.0000 C   0  0  0  0  0  0  0  0  0  0  0  0
    6.1539    0.6588    0.0000 C   0  0  0  0  0  0  0  0  0  0  0  0
    6.1894    2.1583    0.0000 C   0  0  0  0  0  0  0  0  0  0  0  0
    7.5058    2.8774    0.0000 O   0  0  0  0  0  0  0  0  0  0  0  0
    4.9084    2.9388    0.0000 C   0  0  0  0  0  0  0  0  0  0  0  0
    3.5920    2.2197    0.0000 C   0  0  0  0  0  0  0  0  0  0  0  0
    3.5566    0.7202    0.0000 C   0  0  0  0  0  0  0  0  0  0  0  0
    2.2756    1.5007    0.0000 C   0  0  0  0  0  0  0  0  0  0  0  0
    2.2402    0.0011    0.0000 C   0  0  0  0  0  0  0  0  0  0  0  0
    0.9592    0.7816    0.0000 C   0  0  0  0  0  0  0  0  0  0  0  0
   -0.3572    0.0625    0.0000 C   0  0  0  0  0  0  0  0  0  0  0  0
   -1.6381    0.8430    0.0000 O   0  0  0  0  0  0  0  0  0  0  0  0
   -0.3926   -1.4371    0.0000 C   0  0  0  0  0  0  0  0  0  0  0  0
   -1.7481   -0.7948    0.0000 C   0  0  0  0  0  0  0  0  0  0  0  0
  2  1  1  6
  2  3  1  0
  3  4  1  0
  4  5  1  0
  5  6  2  0
  5  7  1  0
  7  8  1  0
  8  9  1  0
  2 10  1  0
 10 11  1  6
 11 12  1  0
 13 12  1  6
 13 14  1  0
 14 15  1  1
 15 16  1  0
 17 16  1  1
 17 18  1  0
 18 19  1  0
 19 20  1  1
 19 21  1  0
 21 22  1  0
 22 23  1  0
 23 24  1  6
 23 25  1  0
 25 26  1  6
 26 27  1  0
 27 28  2  0
 27 29  1  0
 29 30  1  6
 29 10  1  0
 29 13  1  0
 25 14  1  0
 23 17  1  0
M  END
>  <MS_ID>  (838) 
MS0874

>  <SMILES>  (838) 
C[C@H](CCC(=O)CCO)[C@H]1CC[C@H]2[C@@H]3CC[C@@H]4C[C@H](O)CC[C@]4(C)[C@H]3CC(=O)[C@]12C

>  <Structure_dimension>  (838) 
2D

$$$$
MS0875
     RDKit          2D

 34 38  0  0  0  0  0  0  0  0999 V2000
   -7.0172   -1.4803    0.0000 C   0  0  0  0  0  0  0  0  0  0  0  0
   -5.6896   -0.7820    0.0000 C   0  0  0  0  0  0  0  0  0  0  0  0
   -5.6306    0.7169    0.0000 C   0  0  0  0  0  0  0  0  0  0  0  0
   -6.8991    1.5174    0.0000 C   0  0  0  0  0  0  0  0  0  0  0  0
   -6.8401    3.0162    0.0000 C   0  0  0  0  0  0  0  0  0  0  0  0
   -5.5125    3.7145    0.0000 O   0  0  0  0  0  0  0  0  0  0  0  0
   -8.1086    3.8168    0.0000 O   0  0  0  0  0  0  0  0  0  0  0  0
   -4.4211   -1.5825    0.0000 C   0  0  0  0  0  0  0  0  0  0  0  0
   -4.3232   -3.0793    0.0000 C   0  0  0  0  0  0  0  0  0  0  0  0
   -2.8694   -3.4487    0.0000 C   0  0  0  0  0  0  0  0  0  0  0  0
   -2.0688   -2.1802    0.0000 C   0  0  0  0  0  0  0  0  0  0  0  0
   -0.5905   -1.9263    0.0000 C   0  0  0  0  0  0  0  0  0  0  0  0
    0.3686   -3.0797    0.0000 C   0  0  0  0  0  0  0  0  0  0  0  0
    1.8469   -2.8258    0.0000 C   0  0  0  0  0  0  0  0  0  0  0  0
    2.3663   -1.4185    0.0000 C   0  0  0  0  0  0  0  0  0  0  0  0
    3.8446   -1.1647    0.0000 C   0  0  0  0  0  0  0  0  0  0  0  0
    4.3639    0.2426    0.0000 C   0  0  0  0  0  0  0  0  0  0  0  0
    5.8423    0.4964    0.0000 C   0  0  0  0  0  0  0  0  0  0  0  0
    6.8013   -0.6569    0.0000 C   0  0  0  0  0  0  0  0  0  0  0  0
    8.2797   -0.4030    0.0000 C   0  0  0  0  0  0  0  0  0  0  0  0
    8.7990    1.0042    0.0000 C   0  0  0  0  0  0  0  0  0  0  0  0
   10.2774    1.2581    0.0000 O   0  0  0  0  0  0  0  0  0  0  0  0
    7.8400    2.1576    0.0000 C   0  0  0  0  0  0  0  0  0  0  0  0
    6.3616    1.9037    0.0000 C   0  0  0  0  0  0  0  0  0  0  0  0
    3.4049    1.3959    0.0000 C   0  0  0  0  0  0  0  0  0  0  0  0
    1.9265    1.1420    0.0000 C   0  0  0  0  0  0  0  0  0  0  0  0
    1.4072   -0.2652    0.0000 C   0  0  0  0  0  0  0  0  0  0  0  0
    0.4482    0.8882    0.0000 C   0  0  0  0  0  0  0  0  0  0  0  0
   -0.0711   -0.5191    0.0000 C   0  0  0  0  0  0  0  0  0  0  0  0
   -1.0302    0.6343    0.0000 C   0  0  0  0  0  0  0  0  0  0  0  0
   -2.5086    0.3804    0.0000 C   0  0  0  0  0  0  0  0  0  0  0  0
   -3.4676    1.5338    0.0000 O   0  0  0  0  0  0  0  0  0  0  0  0
   -3.0279   -1.0268    0.0000 C   0  0  0  0  0  0  0  0  0  0  0  0
   -4.1022    0.0200    0.0000 C   0  0  0  0  0  0  0  0  0  0  0  0
  2  1  1  6
  2  3  1  0
  3  4  1  0
  4  5  1  0
  5  6  2  0
  5  7  1  0
  2  8  1  0
  8  9  1  6
  9 10  1  0
 11 10  1  6
 11 12  1  0
 12 13  1  1
 13 14  1  0
 15 14  1  1
 15 16  1  0
 16 17  1  0
 17 18  1  1
 18 19  2  0
 19 20  1  0
 20 21  2  0
 21 22  1  0
 21 23  1  0
 23 24  2  0
 17 25  1  0
 25 26  1  0
 26 27  1  0
 27 28  1  6
 27 29  1  0
 29 30  1  6
 30 31  1  0
 31 32  1  1
 31 33  1  0
 33 34  1  6
 33  8  1  0
 33 11  1  0
 29 12  1  0
 27 15  1  0
 24 18  1  0
M  END
>  <MS_ID>  (839) 
MS0875

>  <SMILES>  (839) 
C[C@H](CCC(=O)O)[C@H]1CC[C@H]2[C@@H]3CC[C@@H]4C[C@H](c5ccc(O)cc5)CC[C@]4(C)[C@H]3C[C@H](O)[C@]12C

>  <Structure_dimension>  (839) 
2D

$$$$
MS0876
     RDKit          2D

 35 39  0  0  0  0  0  0  0  0999 V2000
   -1.7620   -4.4850    0.0000 C   0  0  0  0  0  0  0  0  0  0  0  0
   -1.0500   -3.1648    0.0000 C   0  0  0  0  0  0  0  0  0  0  0  0
   -1.8374   -1.8881    0.0000 C   0  0  0  0  0  0  0  0  0  0  0  0
   -3.3368   -1.9316    0.0000 C   0  0  0  0  0  0  0  0  0  0  0  0
   -4.1242   -0.6549    0.0000 C   0  0  0  0  0  0  0  0  0  0  0  0
   -3.4123    0.6654    0.0000 O   0  0  0  0  0  0  0  0  0  0  0  0
   -5.6236   -0.6985    0.0000 N   0  0  0  0  0  0  0  0  0  0  0  0
   -6.4110    0.5782    0.0000 C   0  0  0  0  0  0  0  0  0  0  0  0
   -5.6990    1.8985    0.0000 C   0  0  0  0  0  0  0  0  0  0  0  0
   -6.4864    3.1752    0.0000 C   0  0  0  0  0  0  0  0  0  0  0  0
   -7.9858    3.1317    0.0000 C   0  0  0  0  0  0  0  0  0  0  0  0
   -8.6978    1.8114    0.0000 C   0  0  0  0  0  0  0  0  0  0  0  0
  -10.1971    1.7678    0.0000 O   0  0  0  0  0  0  0  0  0  0  0  0
   -7.9104    0.5347    0.0000 C   0  0  0  0  0  0  0  0  0  0  0  0
    0.4493   -3.1212    0.0000 C   0  0  0  0  0  0  0  0  0  0  0  0
    1.3659   -4.3086    0.0000 C   0  0  0  0  0  0  0  0  0  0  0  0
    2.7784   -3.8038    0.0000 C   0  0  0  0  0  0  0  0  0  0  0  0
    2.7348   -2.3045    0.0000 C   0  0  0  0  0  0  0  0  0  0  0  0
    3.8199   -1.2688    0.0000 C   0  0  0  0  0  0  0  0  0  0  0  0
    5.2594   -1.6907    0.0000 C   0  0  0  0  0  0  0  0  0  0  0  0
    6.3445   -0.6551    0.0000 C   0  0  0  0  0  0  0  0  0  0  0  0
    5.9901    0.8025    0.0000 C   0  0  0  0  0  0  0  0  0  0  0  0
    7.0752    1.8381    0.0000 C   0  0  0  0  0  0  0  0  0  0  0  0
    6.7209    3.2956    0.0000 C   0  0  0  0  0  0  0  0  0  0  0  0
    7.8060    4.3313    0.0000 O   0  0  0  0  0  0  0  0  0  0  0  0
    5.2814    3.7175    0.0000 C   0  0  0  0  0  0  0  0  0  0  0  0
    4.1964    2.6819    0.0000 C   0  0  0  0  0  0  0  0  0  0  0  0
    4.5507    1.2244    0.0000 C   0  0  0  0  0  0  0  0  0  0  0  0
    3.1113    1.6463    0.0000 C   0  0  0  0  0  0  0  0  0  0  0  0
    3.4656    0.1887    0.0000 C   0  0  0  0  0  0  0  0  0  0  0  0
    2.0262    0.6106    0.0000 C   0  0  0  0  0  0  0  0  0  0  0  0
    0.9411   -0.4250    0.0000 C   0  0  0  0  0  0  0  0  0  0  0  0
   -0.4984   -0.0031    0.0000 O   0  0  0  0  0  0  0  0  0  0  0  0
    1.2954   -1.8826    0.0000 C   0  0  0  0  0  0  0  0  0  0  0  0
   -0.1803   -1.6135    0.0000 C   0  0  0  0  0  0  0  0  0  0  0  0
  2  1  1  6
  2  3  1  0
  3  4  1  0
  4  5  1  0
  5  6  2  0
  5  7  1  0
  7  8  1  0
  8  9  2  0
  9 10  1  0
 10 11  2  0
 11 12  1  0
 12 13  1  0
 12 14  2  0
  2 15  1  0
 15 16  1  6
 16 17  1  0
 18 17  1  6
 18 19  1  0
 19 20  1  1
 20 21  1  0
 22 21  1  1
 22 23  1  0
 23 24  1  0
 24 25  1  1
 24 26  1  0
 26 27  1  0
 27 28  1  0
 28 29  1  6
 28 30  1  0
 30 31  1  6
 31 32  1  0
 32 33  1  1
 32 34  1  0
 34 35  1  6
 14  8  1  0
 34 15  1  0
 34 18  1  0
 30 19  1  0
 28 22  1  0
M  END
>  <MS_ID>  (840) 
MS0876

>  <SMILES>  (840) 
C[C@H](CCC(=O)Nc1cccc(O)c1)[C@H]1CC[C@H]2[C@@H]3CC[C@@H]4C[C@H](O)CC[C@]4(C)[C@H]3C[C@H](O)[C@]12C

>  <Structure_dimension>  (840) 
2D

$$$$
MS0877
     RDKit          2D

 33 36  0  0  0  0  0  0  0  0999 V2000
   -2.4343   -4.1694    0.0000 C   0  0  0  0  0  0  0  0  0  0  0  0
   -1.6856   -2.8696    0.0000 C   0  0  0  0  0  0  0  0  0  0  0  0
   -2.4369   -1.5713    0.0000 C   0  0  0  0  0  0  0  0  0  0  0  0
   -3.9369   -1.5728    0.0000 C   0  0  0  0  0  0  0  0  0  0  0  0
   -4.6882   -0.2745    0.0000 C   0  0  0  0  0  0  0  0  0  0  0  0
   -3.9395    1.0253    0.0000 O   0  0  0  0  0  0  0  0  0  0  0  0
   -6.1882   -0.2760    0.0000 C   0  0  0  0  0  0  0  0  0  0  0  0
   -6.9395    1.0223    0.0000 C   0  0  0  0  0  0  0  0  0  0  0  0
   -8.4395    1.0208    0.0000 C   0  0  0  0  0  0  0  0  0  0  0  0
   -9.1908    2.3191    0.0000 C   0  0  0  0  0  0  0  0  0  0  0  0
   -8.4421    3.6189    0.0000 O   0  0  0  0  0  0  0  0  0  0  0  0
  -10.6908    2.3176    0.0000 O   0  0  0  0  0  0  0  0  0  0  0  0
   -0.1856   -2.8681    0.0000 C   0  0  0  0  0  0  0  0  0  0  0  0
    0.6973   -4.0807    0.0000 C   0  0  0  0  0  0  0  0  0  0  0  0
    2.1234   -3.6158    0.0000 C   0  0  0  0  0  0  0  0  0  0  0  0
    2.1219   -2.1158    0.0000 C   0  0  0  0  0  0  0  0  0  0  0  0
    3.2356   -1.1109    0.0000 C   0  0  0  0  0  0  0  0  0  0  0  0
    4.6626   -1.5730    0.0000 C   0  0  0  0  0  0  0  0  0  0  0  0
    4.9760   -3.0399    0.0000 O   0  0  0  0  0  0  0  0  0  0  0  0
    5.7764   -0.5682    0.0000 C   0  0  0  0  0  0  0  0  0  0  0  0
    5.4630    0.8987    0.0000 C   0  0  0  0  0  0  0  0  0  0  0  0
    6.5767    1.9035    0.0000 C   0  0  0  0  0  0  0  0  0  0  0  0
    6.2634    3.3704    0.0000 C   0  0  0  0  0  0  0  0  0  0  0  0
    7.3771    4.3752    0.0000 O   0  0  0  0  0  0  0  0  0  0  0  0
    4.8363    3.8325    0.0000 C   0  0  0  0  0  0  0  0  0  0  0  0
    3.7226    2.8277    0.0000 C   0  0  0  0  0  0  0  0  0  0  0  0
    4.0360    1.3608    0.0000 C   0  0  0  0  0  0  0  0  0  0  0  0
    2.6089    1.8229    0.0000 C   0  0  0  0  0  0  0  0  0  0  0  0
    2.9223    0.3560    0.0000 C   0  0  0  0  0  0  0  0  0  0  0  0
    1.4952    0.8181    0.0000 C   0  0  0  0  0  0  0  0  0  0  0  0
    0.3815   -0.1867    0.0000 C   0  0  0  0  0  0  0  0  0  0  0  0
    0.6948   -1.6537    0.0000 C   0  0  0  0  0  0  0  0  0  0  0  0
   -0.7727   -1.3433    0.0000 C   0  0  0  0  0  0  0  0  0  0  0  0
  2  1  1  6
  2  3  1  0
  3  4  1  0
  4  5  1  0
  5  6  2  0
  5  7  1  0
  7  8  1  0
  8  9  1  0
  9 10  1  0
 10 11  2  0
 10 12  1  0
  2 13  1  0
 13 14  1  6
 14 15  1  0
 16 15  1  6
 16 17  1  0
 17 18  1  1
 18 19  1  1
 18 20  1  0
 21 20  1  1
 21 22  1  0
 22 23  1  0
 23 24  1  1
 23 25  1  0
 25 26  1  0
 26 27  1  0
 27 28  1  6
 27 29  1  0
 29 30  1  6
 30 31  1  0
 31 32  1  0
 32 33  1  6
 32 13  1  0
 32 16  1  0
 29 17  1  0
 27 21  1  0
M  END
>  <MS_ID>  (841) 
MS0877

>  <SMILES>  (841) 
C[C@H](CCC(=O)CCCC(=O)O)[C@H]1CC[C@H]2[C@@H]3[C@H](O)C[C@@H]4C[C@H](O)CC[C@]4(C)[C@H]3CC[C@]12C

>  <Structure_dimension>  (841) 
2D

$$$$
MS0878
     RDKit          2D

 32 35  0  0  0  0  0  0  0  0999 V2000
   -2.6627   -3.7242    0.0000 C   0  0  0  0  0  0  0  0  0  0  0  0
   -1.8528   -2.4616    0.0000 C   0  0  0  0  0  0  0  0  0  0  0  0
   -2.5413   -1.1289    0.0000 C   0  0  0  0  0  0  0  0  0  0  0  0
   -4.0396   -1.0588    0.0000 C   0  0  0  0  0  0  0  0  0  0  0  0
   -4.7281    0.2738    0.0000 C   0  0  0  0  0  0  0  0  0  0  0  0
   -3.9182    1.5364    0.0000 O   0  0  0  0  0  0  0  0  0  0  0  0
   -6.2265    0.3439    0.0000 C   0  0  0  0  0  0  0  0  0  0  0  0
   -6.9150    1.6766    0.0000 C   0  0  0  0  0  0  0  0  0  0  0  0
   -8.4133    1.7467    0.0000 C   0  0  0  0  0  0  0  0  0  0  0  0
   -9.2232    0.4841    0.0000 O   0  0  0  0  0  0  0  0  0  0  0  0
   -9.1018    3.0794    0.0000 O   0  0  0  0  0  0  0  0  0  0  0  0
   -0.3544   -2.5317    0.0000 C   0  0  0  0  0  0  0  0  0  0  0  0
    0.4696   -3.7851    0.0000 C   0  0  0  0  0  0  0  0  0  0  0  0
    1.9163   -3.3887    0.0000 C   0  0  0  0  0  0  0  0  0  0  0  0
    1.9864   -1.8904    0.0000 C   0  0  0  0  0  0  0  0  0  0  0  0
    3.1468   -0.9399    0.0000 C   0  0  0  0  0  0  0  0  0  0  0  0
    4.5501   -1.4695    0.0000 C   0  0  0  0  0  0  0  0  0  0  0  0
    4.7931   -2.9497    0.0000 O   0  0  0  0  0  0  0  0  0  0  0  0
    5.7105   -0.5190    0.0000 C   0  0  0  0  0  0  0  0  0  0  0  0
    5.4676    0.9612    0.0000 C   0  0  0  0  0  0  0  0  0  0  0  0
    6.6280    1.9117    0.0000 C   0  0  0  0  0  0  0  0  0  0  0  0
    6.3850    3.3919    0.0000 C   0  0  0  0  0  0  0  0  0  0  0  0
    4.9816    3.9216    0.0000 C   0  0  0  0  0  0  0  0  0  0  0  0
    3.8212    2.9710    0.0000 C   0  0  0  0  0  0  0  0  0  0  0  0
    4.0642    1.4909    0.0000 C   0  0  0  0  0  0  0  0  0  0  0  0
    2.6608    2.0205    0.0000 C   0  0  0  0  0  0  0  0  0  0  0  0
    2.9038    0.5403    0.0000 C   0  0  0  0  0  0  0  0  0  0  0  0
    1.5004    1.0700    0.0000 C   0  0  0  0  0  0  0  0  0  0  0  0
    0.3400    0.1195    0.0000 C   0  0  0  0  0  0  0  0  0  0  0  0
   -1.0633    0.6492    0.0000 O   0  0  0  0  0  0  0  0  0  0  0  0
    0.5830   -1.3607    0.0000 C   0  0  0  0  0  0  0  0  0  0  0  0
   -0.8681   -0.9806    0.0000 C   0  0  0  0  0  0  0  0  0  0  0  0
  2  1  1  6
  2  3  1  0
  3  4  1  0
  4  5  1  0
  5  6  2  0
  5  7  1  0
  7  8  1  0
  8  9  1  0
  9 10  2  0
  9 11  1  0
  2 12  1  0
 12 13  1  6
 13 14  1  0
 15 14  1  6
 15 16  1  0
 16 17  1  1
 17 18  1  1
 17 19  1  0
 20 19  1  1
 20 21  1  0
 21 22  1  0
 22 23  1  0
 23 24  1  0
 24 25  1  0
 25 26  1  6
 25 27  1  0
 27 28  1  6
 28 29  1  0
 29 30  1  6
 29 31  1  0
 31 32  1  6
 31 12  1  0
 31 15  1  0
 27 16  1  0
 25 20  1  0
M  END
>  <MS_ID>  (842) 
MS0878

>  <SMILES>  (842) 
C[C@H](CCC(=O)CCC(=O)O)[C@H]1CC[C@H]2[C@@H]3[C@H](O)C[C@@H]4CCCC[C@]4(C)[C@H]3C[C@@H](O)[C@]12C

>  <Structure_dimension>  (842) 
2D

$$$$
MS0879
     RDKit          2D

 33 36  0  0  0  0  0  0  0  0999 V2000
   -6.2027   -1.9081    0.0000 C   0  0  0  0  0  0  0  0  0  0  0  0
   -4.9792   -1.0402    0.0000 C   0  0  0  0  0  0  0  0  0  0  0  0
   -5.1191    0.4533    0.0000 C   0  0  0  0  0  0  0  0  0  0  0  0
   -6.4825    1.0788    0.0000 C   0  0  0  0  0  0  0  0  0  0  0  0
   -6.6223    2.5723    0.0000 C   0  0  0  0  0  0  0  0  0  0  0  0
   -5.3989    3.4402    0.0000 O   0  0  0  0  0  0  0  0  0  0  0  0
   -7.9857    3.1979    0.0000 O   0  0  0  0  0  0  0  0  0  0  0  0
   -3.6159   -1.6658    0.0000 C   0  0  0  0  0  0  0  0  0  0  0  0
   -3.3207   -3.1364    0.0000 C   0  0  0  0  0  0  0  0  0  0  0  0
   -1.8308   -3.3101    0.0000 C   0  0  0  0  0  0  0  0  0  0  0  0
   -1.2052   -1.9468    0.0000 C   0  0  0  0  0  0  0  0  0  0  0  0
    0.2265   -1.4995    0.0000 C   0  0  0  0  0  0  0  0  0  0  0  0
    1.3298   -2.5157    0.0000 C   0  0  0  0  0  0  0  0  0  0  0  0
    1.0014   -3.9793    0.0000 O   0  0  0  0  0  0  0  0  0  0  0  0
    2.7616   -2.0684    0.0000 C   0  0  0  0  0  0  0  0  0  0  0  0
    3.0900   -0.6048    0.0000 C   0  0  0  0  0  0  0  0  0  0  0  0
    4.5218   -0.1574    0.0000 C   0  0  0  0  0  0  0  0  0  0  0  0
    4.8502    1.3061    0.0000 C   0  0  0  0  0  0  0  0  0  0  0  0
    6.2820    1.7535    0.0000 O   0  0  0  0  0  0  0  0  0  0  0  0
    7.3853    0.7372    0.0000 S   0  0  0  0  0  0  0  0  0  0  0  0
    6.3690   -0.3660    0.0000 O   0  0  0  0  0  0  0  0  0  0  0  0
    8.4015    1.8405    0.0000 O   0  0  0  0  0  0  0  0  0  0  0  0
    8.4885   -0.2790    0.0000 O   0  0  0  0  0  0  0  0  0  0  0  0
    3.7470    2.3224    0.0000 C   0  0  0  0  0  0  0  0  0  0  0  0
    2.3152    1.8751    0.0000 C   0  0  0  0  0  0  0  0  0  0  0  0
    1.9868    0.4115    0.0000 C   0  0  0  0  0  0  0  0  0  0  0  0
    0.8835    1.4277    0.0000 C   0  0  0  0  0  0  0  0  0  0  0  0
    0.5550   -0.0359    0.0000 C   0  0  0  0  0  0  0  0  0  0  0  0
   -0.5483    0.9804    0.0000 C   0  0  0  0  0  0  0  0  0  0  0  0
   -1.9800    0.5330    0.0000 C   0  0  0  0  0  0  0  0  0  0  0  0
   -3.0833    1.5493    0.0000 O   0  0  0  0  0  0  0  0  0  0  0  0
   -2.3085   -0.9305    0.0000 C   0  0  0  0  0  0  0  0  0  0  0  0
   -3.5119   -0.0352    0.0000 C   0  0  0  0  0  0  0  0  0  0  0  0
  2  1  1  6
  2  3  1  0
  3  4  1  0
  4  5  1  0
  5  6  2  0
  5  7  1  0
  2  8  1  0
  8  9  1  6
  9 10  1  0
 11 10  1  6
 11 12  1  0
 12 13  1  1
 13 14  2  0
 13 15  1  0
 16 15  1  1
 16 17  1  0
 17 18  1  0
 18 19  1  1
 19 20  1  0
 20 21  2  0
 20 22  2  0
 20 23  1  0
 18 24  1  0
 24 25  1  0
 25 26  1  0
 26 27  1  6
 26 28  1  0
 28 29  1  6
 29 30  1  0
 30 31  1  1
 30 32  1  0
 32 33  1  6
 32  8  1  0
 32 11  1  0
 28 12  1  0
 26 16  1  0
M  END
>  <MS_ID>  (843) 
MS0879

>  <SMILES>  (843) 
C[C@H](CCC(=O)O)[C@H]1CC[C@H]2[C@@H]3C(=O)C[C@@H]4C[C@H](OS(=O)(=O)O)CC[C@]4(C)[C@H]3C[C@H](O)[C@]12C

>  <Structure_dimension>  (843) 
2D

$$$$
MS0880
     RDKit          2D

 32 35  0  0  0  0  0  0  0  0999 V2000
   -2.8252   -3.9526    0.0000 C   0  0  0  0  0  0  0  0  0  0  0  0
   -1.9779   -2.7148    0.0000 C   0  0  0  0  0  0  0  0  0  0  0  0
   -2.6262   -1.3621    0.0000 C   0  0  0  0  0  0  0  0  0  0  0  0
   -4.1218   -1.2472    0.0000 C   0  0  0  0  0  0  0  0  0  0  0  0
   -4.7701    0.1054    0.0000 C   0  0  0  0  0  0  0  0  0  0  0  0
   -3.9228    1.3432    0.0000 O   0  0  0  0  0  0  0  0  0  0  0  0
   -6.2657    0.2203    0.0000 C   0  0  0  0  0  0  0  0  0  0  0  0
   -6.9140    1.5730    0.0000 C   0  0  0  0  0  0  0  0  0  0  0  0
   -8.4096    1.6879    0.0000 C   0  0  0  0  0  0  0  0  0  0  0  0
   -9.0579    3.0406    0.0000 C   0  0  0  0  0  0  0  0  0  0  0  0
  -10.5534    3.1554    0.0000 O   0  0  0  0  0  0  0  0  0  0  0  0
   -0.4823   -2.8297    0.0000 C   0  0  0  0  0  0  0  0  0  0  0  0
    0.3038   -4.1072    0.0000 C   0  0  0  0  0  0  0  0  0  0  0  0
    1.7617   -3.7543    0.0000 C   0  0  0  0  0  0  0  0  0  0  0  0
    1.8766   -2.2587    0.0000 C   0  0  0  0  0  0  0  0  0  0  0  0
    3.0650   -1.3433    0.0000 C   0  0  0  0  0  0  0  0  0  0  0  0
    4.4518   -1.9148    0.0000 C   0  0  0  0  0  0  0  0  0  0  0  0
    5.6402   -0.9994    0.0000 C   0  0  0  0  0  0  0  0  0  0  0  0
    5.4416    0.4874    0.0000 C   0  0  0  0  0  0  0  0  0  0  0  0
    6.6299    1.4028    0.0000 C   0  0  0  0  0  0  0  0  0  0  0  0
    6.4313    2.8896    0.0000 C   0  0  0  0  0  0  0  0  0  0  0  0
    7.6197    3.8049    0.0000 O   0  0  0  0  0  0  0  0  0  0  0  0
    5.0445    3.4610    0.0000 C   0  0  0  0  0  0  0  0  0  0  0  0
    3.8561    2.5456    0.0000 C   0  0  0  0  0  0  0  0  0  0  0  0
    4.0547    1.0588    0.0000 C   0  0  0  0  0  0  0  0  0  0  0  0
    2.6678    1.6303    0.0000 C   0  0  0  0  0  0  0  0  0  0  0  0
    2.8664    0.1435    0.0000 C   0  0  0  0  0  0  0  0  0  0  0  0
    1.4795    0.7149    0.0000 C   0  0  0  0  0  0  0  0  0  0  0  0
    0.2912   -0.2005    0.0000 C   0  0  0  0  0  0  0  0  0  0  0  0
   -1.0957    0.3710    0.0000 O   0  0  0  0  0  0  0  0  0  0  0  0
    0.4897   -1.6873    0.0000 C   0  0  0  0  0  0  0  0  0  0  0  0
   -0.9493   -1.2639    0.0000 C   0  0  0  0  0  0  0  0  0  0  0  0
  2  1  1  6
  2  3  1  0
  3  4  1  0
  4  5  1  0
  5  6  2  0
  5  7  1  0
  7  8  1  0
  8  9  1  0
  9 10  1  0
 10 11  1  0
  2 12  1  0
 12 13  1  6
 13 14  1  0
 15 14  1  6
 15 16  1  0
 16 17  1  1
 17 18  1  0
 19 18  1  1
 19 20  1  0
 20 21  1  0
 21 22  1  1
 21 23  1  0
 23 24  1  0
 24 25  1  0
 25 26  1  6
 25 27  1  0
 27 28  1  6
 28 29  1  0
 29 30  1  1
 29 31  1  0
 31 32  1  6
 31 12  1  0
 31 15  1  0
 27 16  1  0
 25 19  1  0
M  END
>  <MS_ID>  (844) 
MS0880

>  <SMILES>  (844) 
C[C@H](CCC(=O)CCCCO)[C@H]1CC[C@H]2[C@@H]3CC[C@@H]4C[C@H](O)CC[C@]4(C)[C@H]3C[C@H](O)[C@]12C

>  <Structure_dimension>  (844) 
2D

$$$$
MS0881
     RDKit          2D

 31 34  0  0  0  0  0  0  0  0999 V2000
   -2.8249   -3.7477    0.0000 C   0  0  0  0  0  0  0  0  0  0  0  0
   -1.9672   -2.5171    0.0000 C   0  0  0  0  0  0  0  0  0  0  0  0
   -2.6041   -1.1590    0.0000 C   0  0  0  0  0  0  0  0  0  0  0  0
   -4.0987   -1.0316    0.0000 C   0  0  0  0  0  0  0  0  0  0  0  0
   -4.7356    0.3265    0.0000 C   0  0  0  0  0  0  0  0  0  0  0  0
   -3.8779    1.5571    0.0000 O   0  0  0  0  0  0  0  0  0  0  0  0
   -6.2302    0.4540    0.0000 N   0  0  0  0  0  0  0  0  0  0  0  0
   -6.8670    1.8121    0.0000 S   0  0  0  0  0  0  0  0  0  0  0  0
   -8.2251    1.1752    0.0000 O   0  0  0  0  0  0  0  0  0  0  0  0
   -5.5090    2.4490    0.0000 O   0  0  0  0  0  0  0  0  0  0  0  0
   -7.5039    3.1702    0.0000 O   0  0  0  0  0  0  0  0  0  0  0  0
   -0.4727   -2.6446    0.0000 C   0  0  0  0  0  0  0  0  0  0  0  0
    0.3027   -3.9287    0.0000 C   0  0  0  0  0  0  0  0  0  0  0  0
    1.7635   -3.5881    0.0000 C   0  0  0  0  0  0  0  0  0  0  0  0
    1.8910   -2.0935    0.0000 C   0  0  0  0  0  0  0  0  0  0  0  0
    3.0870   -1.1882    0.0000 C   0  0  0  0  0  0  0  0  0  0  0  0
    4.4690   -1.7712    0.0000 C   0  0  0  0  0  0  0  0  0  0  0  0
    5.6650   -0.8659    0.0000 C   0  0  0  0  0  0  0  0  0  0  0  0
    5.4789    0.6225    0.0000 C   0  0  0  0  0  0  0  0  0  0  0  0
    6.6749    1.5278    0.0000 C   0  0  0  0  0  0  0  0  0  0  0  0
    6.4889    3.0162    0.0000 C   0  0  0  0  0  0  0  0  0  0  0  0
    5.1068    3.5993    0.0000 C   0  0  0  0  0  0  0  0  0  0  0  0
    3.9109    2.6940    0.0000 C   0  0  0  0  0  0  0  0  0  0  0  0
    4.0969    1.2056    0.0000 C   0  0  0  0  0  0  0  0  0  0  0  0
    2.7149    1.7887    0.0000 C   0  0  0  0  0  0  0  0  0  0  0  0
    2.9009    0.3003    0.0000 C   0  0  0  0  0  0  0  0  0  0  0  0
    1.5189    0.8833    0.0000 C   0  0  0  0  0  0  0  0  0  0  0  0
    0.3229   -0.0220    0.0000 C   0  0  0  0  0  0  0  0  0  0  0  0
   -1.0591    0.5611    0.0000 O   0  0  0  0  0  0  0  0  0  0  0  0
    0.5090   -1.5104    0.0000 C   0  0  0  0  0  0  0  0  0  0  0  0
   -0.9265   -1.0750    0.0000 C   0  0  0  0  0  0  0  0  0  0  0  0
  2  1  1  6
  2  3  1  0
  3  4  1  0
  4  5  1  0
  5  6  2  0
  5  7  1  0
  7  8  1  0
  8  9  2  0
  8 10  2  0
  8 11  1  0
  2 12  1  0
 12 13  1  6
 13 14  1  0
 15 14  1  6
 15 16  1  0
 16 17  1  1
 17 18  1  0
 19 18  1  1
 19 20  1  0
 20 21  1  0
 21 22  1  0
 22 23  1  0
 23 24  1  0
 24 25  1  6
 24 26  1  0
 26 27  1  6
 27 28  1  0
 28 29  1  1
 28 30  1  0
 30 31  1  6
 30 12  1  0
 30 15  1  0
 26 16  1  0
 24 19  1  0
M  END
>  <MS_ID>  (845) 
MS0881

>  <SMILES>  (845) 
C[C@H](CCC(=O)NS(=O)(=O)O)[C@H]1CC[C@H]2[C@@H]3CC[C@@H]4CCCC[C@]4(C)[C@H]3C[C@H](O)[C@]12C

>  <Structure_dimension>  (845) 
2D

$$$$
MS0882
     RDKit          2D

 36 40  0  0  0  0  0  0  0  0999 V2000
   -1.5431   -4.0497    0.0000 C   0  0  0  0  0  0  0  0  0  0  0  0
   -0.7228   -2.7939    0.0000 C   0  0  0  0  0  0  0  0  0  0  0  0
   -1.4003   -1.4556    0.0000 C   0  0  0  0  0  0  0  0  0  0  0  0
   -2.8980   -1.3731    0.0000 C   0  0  0  0  0  0  0  0  0  0  0  0
   -3.5754   -0.0348    0.0000 C   0  0  0  0  0  0  0  0  0  0  0  0
   -2.7551    1.2211    0.0000 O   0  0  0  0  0  0  0  0  0  0  0  0
   -5.0732    0.0477    0.0000 N   0  0  0  0  0  0  0  0  0  0  0  0
   -5.7506    1.3860    0.0000 C   0  0  0  0  0  0  0  0  0  0  0  0
   -7.2483    1.4685    0.0000 C   0  0  0  0  0  0  0  0  0  0  0  0
   -7.9258    2.8068    0.0000 C   0  0  0  0  0  0  0  0  0  0  0  0
   -9.4235    2.8893    0.0000 C   0  0  0  0  0  0  0  0  0  0  0  0
  -10.2438    1.6335    0.0000 C   0  0  0  0  0  0  0  0  0  0  0  0
   -9.5664    0.2952    0.0000 C   0  0  0  0  0  0  0  0  0  0  0  0
  -10.3867   -0.9607    0.0000 O   0  0  0  0  0  0  0  0  0  0  0  0
   -8.0686    0.2127    0.0000 C   0  0  0  0  0  0  0  0  0  0  0  0
    0.7749   -2.8764    0.0000 C   0  0  0  0  0  0  0  0  0  0  0  0
    1.5885   -4.1365    0.0000 C   0  0  0  0  0  0  0  0  0  0  0  0
    3.0384   -3.7522    0.0000 C   0  0  0  0  0  0  0  0  0  0  0  0
    3.1209   -2.2544    0.0000 C   0  0  0  0  0  0  0  0  0  0  0  0
    4.2891   -1.3135    0.0000 C   0  0  0  0  0  0  0  0  0  0  0  0
    5.6881   -1.8548    0.0000 C   0  0  0  0  0  0  0  0  0  0  0  0
    6.8563   -0.9139    0.0000 C   0  0  0  0  0  0  0  0  0  0  0  0
    6.6256    0.5682    0.0000 C   0  0  0  0  0  0  0  0  0  0  0  0
    7.7938    1.5091    0.0000 C   0  0  0  0  0  0  0  0  0  0  0  0
    7.5631    2.9912    0.0000 C   0  0  0  0  0  0  0  0  0  0  0  0
    8.7313    3.9321    0.0000 O   0  0  0  0  0  0  0  0  0  0  0  0
    6.1641    3.5325    0.0000 C   0  0  0  0  0  0  0  0  0  0  0  0
    4.9959    2.5916    0.0000 C   0  0  0  0  0  0  0  0  0  0  0  0
    5.2266    1.1095    0.0000 C   0  0  0  0  0  0  0  0  0  0  0  0
    3.8277    1.6508    0.0000 C   0  0  0  0  0  0  0  0  0  0  0  0
    4.0584    0.1686    0.0000 C   0  0  0  0  0  0  0  0  0  0  0  0
    2.6595    0.7099    0.0000 C   0  0  0  0  0  0  0  0  0  0  0  0
    1.4912   -0.2310    0.0000 C   0  0  0  0  0  0  0  0  0  0  0  0
    0.0923    0.3103    0.0000 O   0  0  0  0  0  0  0  0  0  0  0  0
    1.7220   -1.7132    0.0000 C   0  0  0  0  0  0  0  0  0  0  0  0
    0.2741   -1.3211    0.0000 C   0  0  0  0  0  0  0  0  0  0  0  0
  2  1  1  6
  2  3  1  0
  3  4  1  0
  4  5  1  0
  5  6  2  0
  5  7  1  0
  7  8  1  0
  8  9  1  0
  9 10  2  0
 10 11  1  0
 11 12  2  0
 12 13  1  0
 13 14  1  0
 13 15  2  0
  2 16  1  0
 16 17  1  6
 17 18  1  0
 19 18  1  6
 19 20  1  0
 20 21  1  1
 21 22  1  0
 23 22  1  1
 23 24  1  0
 24 25  1  0
 25 26  1  1
 25 27  1  0
 27 28  1  0
 28 29  1  0
 29 30  1  6
 29 31  1  0
 31 32  1  6
 32 33  1  0
 33 34  1  1
 33 35  1  0
 35 36  1  6
 15  9  1  0
 35 16  1  0
 35 19  1  0
 31 20  1  0
 29 23  1  0
M  END
>  <MS_ID>  (846) 
MS0882

>  <SMILES>  (846) 
C[C@H](CCC(=O)NCc1cccc(O)c1)[C@H]1CC[C@H]2[C@@H]3CC[C@@H]4C[C@H](O)CC[C@]4(C)[C@H]3C[C@H](O)[C@]12C

>  <Structure_dimension>  (846) 
2D

$$$$
MS0883
     RDKit          2D

 32 35  0  0  0  0  0  0  0  0999 V2000
   -3.6519   -3.4889    0.0000 C   0  0  0  0  0  0  0  0  0  0  0  0
   -2.7185   -2.3147    0.0000 C   0  0  0  0  0  0  0  0  0  0  0  0
   -3.2687   -0.9192    0.0000 C   0  0  0  0  0  0  0  0  0  0  0  0
   -4.7523   -0.6980    0.0000 C   0  0  0  0  0  0  0  0  0  0  0  0
   -5.3024    0.6975    0.0000 C   0  0  0  0  0  0  0  0  0  0  0  0
   -4.3690    1.8717    0.0000 O   0  0  0  0  0  0  0  0  0  0  0  0
   -6.7860    0.9188    0.0000 C   0  0  0  0  0  0  0  0  0  0  0  0
   -7.3362    2.3142    0.0000 C   0  0  0  0  0  0  0  0  0  0  0  0
   -6.4028    3.4884    0.0000 O   0  0  0  0  0  0  0  0  0  0  0  0
   -8.8198    2.5355    0.0000 O   0  0  0  0  0  0  0  0  0  0  0  0
   -1.2349   -2.5360    0.0000 C   0  0  0  0  0  0  0  0  0  0  0  0
   -0.5419   -3.8663    0.0000 C   0  0  0  0  0  0  0  0  0  0  0  0
    0.9375   -3.6183    0.0000 C   0  0  0  0  0  0  0  0  0  0  0  0
    1.1587   -2.1347    0.0000 C   0  0  0  0  0  0  0  0  0  0  0  0
    2.4093   -1.3064    0.0000 C   0  0  0  0  0  0  0  0  0  0  0  0
    3.7519   -1.9753    0.0000 C   0  0  0  0  0  0  0  0  0  0  0  0
    3.8439   -3.4725    0.0000 O   0  0  0  0  0  0  0  0  0  0  0  0
    5.0025   -1.1470    0.0000 C   0  0  0  0  0  0  0  0  0  0  0  0
    4.9105    0.3502    0.0000 C   0  0  0  0  0  0  0  0  0  0  0  0
    6.1611    1.1784    0.0000 C   0  0  0  0  0  0  0  0  0  0  0  0
    6.0690    2.6756    0.0000 C   0  0  0  0  0  0  0  0  0  0  0  0
    7.3196    3.5039    0.0000 O   0  0  0  0  0  0  0  0  0  0  0  0
    4.7264    3.3445    0.0000 C   0  0  0  0  0  0  0  0  0  0  0  0
    3.4759    2.5162    0.0000 C   0  0  0  0  0  0  0  0  0  0  0  0
    3.5679    1.0191    0.0000 C   0  0  0  0  0  0  0  0  0  0  0  0
    2.2253    1.6879    0.0000 C   0  0  0  0  0  0  0  0  0  0  0  0
    2.3173    0.1908    0.0000 C   0  0  0  0  0  0  0  0  0  0  0  0
    0.9747    0.8597    0.0000 C   0  0  0  0  0  0  0  0  0  0  0  0
   -0.2759    0.0314    0.0000 C   0  0  0  0  0  0  0  0  0  0  0  0
   -1.6185    0.7003    0.0000 O   0  0  0  0  0  0  0  0  0  0  0  0
   -0.1839   -1.4658    0.0000 C   0  0  0  0  0  0  0  0  0  0  0  0
   -1.5890   -0.9409    0.0000 C   0  0  0  0  0  0  0  0  0  0  0  0
  2  1  1  6
  2  3  1  0
  3  4  1  0
  4  5  1  0
  5  6  2  0
  5  7  1  0
  7  8  1  0
  8  9  2  0
  8 10  1  0
  2 11  1  0
 11 12  1  6
 12 13  1  0
 14 13  1  6
 14 15  1  0
 15 16  1  1
 16 17  1  6
 16 18  1  0
 19 18  1  1
 19 20  1  0
 20 21  1  0
 21 22  2  0
 21 23  1  0
 23 24  1  0
 24 25  1  0
 25 26  1  6
 25 27  1  0
 27 28  1  6
 28 29  1  0
 29 30  1  1
 29 31  1  0
 31 32  1  6
 31 11  1  0
 31 14  1  0
 27 15  1  0
 25 19  1  0
M  END
>  <MS_ID>  (847) 
MS0883

>  <SMILES>  (847) 
C[C@H](CCC(=O)CC(=O)O)[C@H]1CC[C@H]2[C@@H]3[C@@H](O)C[C@@H]4CC(=O)CC[C@]4(C)[C@H]3C[C@H](O)[C@]12C

>  <Structure_dimension>  (847) 
2D

$$$$
MS0884
     RDKit          2D

 36 40  0  0  0  0  0  0  0  0999 V2000
   -2.0625   -4.0210    0.0000 C   0  0  0  0  0  0  0  0  0  0  0  0
   -1.2935   -2.7331    0.0000 C   0  0  0  0  0  0  0  0  0  0  0  0
   -2.0243   -1.4232    0.0000 C   0  0  0  0  0  0  0  0  0  0  0  0
   -3.5241   -1.4011    0.0000 C   0  0  0  0  0  0  0  0  0  0  0  0
   -4.2549   -0.0912    0.0000 C   0  0  0  0  0  0  0  0  0  0  0  0
   -3.4858    1.1967    0.0000 O   0  0  0  0  0  0  0  0  0  0  0  0
   -5.7547   -0.0691    0.0000 O   0  0  0  0  0  0  0  0  0  0  0  0
   -6.4855    1.2409    0.0000 C   0  0  0  0  0  0  0  0  0  0  0  0
   -7.9854    1.2630    0.0000 C   0  0  0  0  0  0  0  0  0  0  0  0
   -8.7161    2.5729    0.0000 C   0  0  0  0  0  0  0  0  0  0  0  0
  -10.2160    2.5950    0.0000 C   0  0  0  0  0  0  0  0  0  0  0  0
  -10.9850    1.3071    0.0000 C   0  0  0  0  0  0  0  0  0  0  0  0
  -10.2542   -0.0028    0.0000 C   0  0  0  0  0  0  0  0  0  0  0  0
   -8.7544   -0.0249    0.0000 C   0  0  0  0  0  0  0  0  0  0  0  0
    0.2063   -2.7552    0.0000 C   0  0  0  0  0  0  0  0  0  0  0  0
    1.0701   -3.9816    0.0000 C   0  0  0  0  0  0  0  0  0  0  0  0
    2.5033   -3.5392    0.0000 C   0  0  0  0  0  0  0  0  0  0  0  0
    2.5254   -2.0393    0.0000 C   0  0  0  0  0  0  0  0  0  0  0  0
    3.6548   -1.0521    0.0000 C   0  0  0  0  0  0  0  0  0  0  0  0
    5.0744   -1.5366    0.0000 C   0  0  0  0  0  0  0  0  0  0  0  0
    5.3646   -3.0083    0.0000 O   0  0  0  0  0  0  0  0  0  0  0  0
    6.2038   -0.5495    0.0000 C   0  0  0  0  0  0  0  0  0  0  0  0
    7.6234   -1.0339    0.0000 O   0  0  0  0  0  0  0  0  0  0  0  0
    5.9135    0.9222    0.0000 C   0  0  0  0  0  0  0  0  0  0  0  0
    7.0429    1.9094    0.0000 C   0  0  0  0  0  0  0  0  0  0  0  0
    6.7527    3.3810    0.0000 C   0  0  0  0  0  0  0  0  0  0  0  0
    7.8821    4.3682    0.0000 O   0  0  0  0  0  0  0  0  0  0  0  0
    5.3331    3.8655    0.0000 C   0  0  0  0  0  0  0  0  0  0  0  0
    4.2037    2.8783    0.0000 C   0  0  0  0  0  0  0  0  0  0  0  0
    4.4939    1.4067    0.0000 C   0  0  0  0  0  0  0  0  0  0  0  0
    3.0743    1.8912    0.0000 C   0  0  0  0  0  0  0  0  0  0  0  0
    3.3646    0.4195    0.0000 C   0  0  0  0  0  0  0  0  0  0  0  0
    1.9450    0.9040    0.0000 C   0  0  0  0  0  0  0  0  0  0  0  0
    0.8156   -0.0832    0.0000 C   0  0  0  0  0  0  0  0  0  0  0  0
    1.1058   -1.5548    0.0000 C   0  0  0  0  0  0  0  0  0  0  0  0
   -0.3567   -1.2214    0.0000 C   0  0  0  0  0  0  0  0  0  0  0  0
  2  1  1  6
  2  3  1  0
  3  4  1  0
  4  5  1  0
  5  6  2  0
  5  7  1  0
  7  8  1  0
  8  9  1  0
  9 10  2  0
 10 11  1  0
 11 12  2  0
 12 13  1  0
 13 14  2  0
  2 15  1  0
 15 16  1  6
 16 17  1  0
 18 17  1  6
 18 19  1  0
 19 20  1  1
 20 21  1  1
 20 22  1  0
 22 23  1  1
 22 24  1  0
 24 25  1  1
 25 26  1  0
 26 27  1  1
 26 28  1  0
 28 29  1  0
 29 30  1  0
 30 31  1  6
 30 32  1  0
 32 33  1  6
 33 34  1  0
 34 35  1  0
 35 36  1  6
 14  9  1  0
 35 15  1  0
 35 18  1  0
 32 19  1  0
 30 24  1  0
M  END
>  <MS_ID>  (848) 
MS0884

>  <SMILES>  (848) 
C[C@H](CCC(=O)OCc1ccccc1)[C@H]1CC[C@H]2[C@@H]3[C@H](O)[C@H](O)[C@@H]4C[C@H](O)CC[C@]4(C)[C@H]3CC[C@]12C

>  <Structure_dimension>  (848) 
2D

$$$$
MS0885
     RDKit          2D

 30 33  0  0  0  0  0  0  0  0999 V2000
   -4.5685   -2.6908    0.0000 C   0  0  0  0  0  0  0  0  0  0  0  0
   -3.4838   -1.6548    0.0000 C   0  0  0  0  0  0  0  0  0  0  0  0
   -3.8388   -0.1974    0.0000 C   0  0  0  0  0  0  0  0  0  0  0  0
   -5.2784    0.2240    0.0000 C   0  0  0  0  0  0  0  0  0  0  0  0
   -5.6333    1.6814    0.0000 C   0  0  0  0  0  0  0  0  0  0  0  0
   -4.5486    2.7174    0.0000 O   0  0  0  0  0  0  0  0  0  0  0  0
   -7.0729    2.1027    0.0000 C   0  0  0  0  0  0  0  0  0  0  0  0
   -7.4279    3.5601    0.0000 S   0  0  0  0  0  0  0  0  0  0  0  0
   -2.0442   -2.0761    0.0000 C   0  0  0  0  0  0  0  0  0  0  0  0
   -1.5389   -3.4884    0.0000 C   0  0  0  0  0  0  0  0  0  0  0  0
   -0.0395   -3.4442    0.0000 C   0  0  0  0  0  0  0  0  0  0  0  0
    0.3818   -2.0046    0.0000 C   0  0  0  0  0  0  0  0  0  0  0  0
    1.7336   -1.3544    0.0000 C   0  0  0  0  0  0  0  0  0  0  0  0
    2.9725   -2.1999    0.0000 C   0  0  0  0  0  0  0  0  0  0  0  0
    2.8597   -3.6957    0.0000 O   0  0  0  0  0  0  0  0  0  0  0  0
    4.3243   -1.5497    0.0000 C   0  0  0  0  0  0  0  0  0  0  0  0
    4.4371   -0.0540    0.0000 C   0  0  0  0  0  0  0  0  0  0  0  0
    5.7888    0.5962    0.0000 C   0  0  0  0  0  0  0  0  0  0  0  0
    5.9016    2.0920    0.0000 C   0  0  0  0  0  0  0  0  0  0  0  0
    7.2534    2.7422    0.0000 O   0  0  0  0  0  0  0  0  0  0  0  0
    4.6627    2.9375    0.0000 C   0  0  0  0  0  0  0  0  0  0  0  0
    3.3109    2.2873    0.0000 C   0  0  0  0  0  0  0  0  0  0  0  0
    3.1981    0.7916    0.0000 C   0  0  0  0  0  0  0  0  0  0  0  0
    1.9591    1.6371    0.0000 C   0  0  0  0  0  0  0  0  0  0  0  0
    1.8464    0.1414    0.0000 C   0  0  0  0  0  0  0  0  0  0  0  0
    0.6074    0.9869    0.0000 C   0  0  0  0  0  0  0  0  0  0  0  0
   -0.7444    0.3367    0.0000 C   0  0  0  0  0  0  0  0  0  0  0  0
   -1.9833    1.1823    0.0000 O   0  0  0  0  0  0  0  0  0  0  0  0
   -0.8572   -1.1590    0.0000 C   0  0  0  0  0  0  0  0  0  0  0  0
   -2.1777   -0.4476    0.0000 C   0  0  0  0  0  0  0  0  0  0  0  0
  2  1  1  6
  2  3  1  0
  3  4  1  0
  4  5  1  0
  5  6  2  0
  5  7  1  0
  7  8  1  0
  2  9  1  0
  9 10  1  6
 10 11  1  0
 12 11  1  6
 12 13  1  0
 13 14  1  1
 14 15  1  6
 14 16  1  0
 17 16  1  1
 17 18  1  0
 18 19  1  0
 19 20  1  1
 19 21  1  0
 21 22  1  0
 22 23  1  0
 23 24  1  6
 23 25  1  0
 25 26  1  6
 26 27  1  0
 27 28  1  1
 27 29  1  0
 29 30  1  6
 29  9  1  0
 29 12  1  0
 25 13  1  0
 23 17  1  0
M  END
>  <MS_ID>  (849) 
MS0885

>  <SMILES>  (849) 
C[C@H](CCC(=O)CS)[C@H]1CC[C@H]2[C@@H]3[C@@H](O)C[C@@H]4C[C@H](O)CC[C@]4(C)[C@H]3C[C@H](O)[C@]12C

>  <Structure_dimension>  (849) 
2D

$$$$
MS0886
     RDKit          2D

 33 36  0  0  0  0  0  0  0  0999 V2000
   -2.7798   -3.8103    0.0000 C   0  0  0  0  0  0  0  0  0  0  0  0
   -1.9338   -2.5716    0.0000 C   0  0  0  0  0  0  0  0  0  0  0  0
   -2.5835   -1.2196    0.0000 C   0  0  0  0  0  0  0  0  0  0  0  0
   -4.0792   -1.1063    0.0000 C   0  0  0  0  0  0  0  0  0  0  0  0
   -4.7289    0.2457    0.0000 C   0  0  0  0  0  0  0  0  0  0  0  0
   -3.8829    1.4843    0.0000 O   0  0  0  0  0  0  0  0  0  0  0  0
   -6.2246    0.3590    0.0000 C   0  0  0  0  0  0  0  0  0  0  0  0
   -6.8743    1.7110    0.0000 O   0  0  0  0  0  0  0  0  0  0  0  0
   -8.3700    1.8244    0.0000 P   0  0  0  0  0  0  0  0  0  0  0  0
   -8.2567    3.3201    0.0000 O   0  0  0  0  0  0  0  0  0  0  0  0
   -8.4834    0.3287    0.0000 O   0  0  0  0  0  0  0  0  0  0  0  0
   -9.8657    1.9377    0.0000 O   0  0  0  0  0  0  0  0  0  0  0  0
   -0.4381   -2.6850    0.0000 C   0  0  0  0  0  0  0  0  0  0  0  0
    0.3494   -3.9617    0.0000 C   0  0  0  0  0  0  0  0  0  0  0  0
    1.8069   -3.6073    0.0000 C   0  0  0  0  0  0  0  0  0  0  0  0
    1.9202   -2.1116    0.0000 C   0  0  0  0  0  0  0  0  0  0  0  0
    3.1076   -1.1950    0.0000 C   0  0  0  0  0  0  0  0  0  0  0  0
    4.4951   -1.7650    0.0000 C   0  0  0  0  0  0  0  0  0  0  0  0
    4.6952   -3.2515    0.0000 O   0  0  0  0  0  0  0  0  0  0  0  0
    5.6825   -0.8484    0.0000 C   0  0  0  0  0  0  0  0  0  0  0  0
    5.4824    0.6382    0.0000 C   0  0  0  0  0  0  0  0  0  0  0  0
    6.6697    1.5548    0.0000 C   0  0  0  0  0  0  0  0  0  0  0  0
    6.4696    3.0414    0.0000 C   0  0  0  0  0  0  0  0  0  0  0  0
    7.6570    3.9580    0.0000 O   0  0  0  0  0  0  0  0  0  0  0  0
    5.0821    3.6114    0.0000 C   0  0  0  0  0  0  0  0  0  0  0  0
    3.8948    2.6948    0.0000 C   0  0  0  0  0  0  0  0  0  0  0  0
    4.0949    1.2082    0.0000 C   0  0  0  0  0  0  0  0  0  0  0  0
    2.7074    1.7782    0.0000 C   0  0  0  0  0  0  0  0  0  0  0  0
    2.9075    0.2916    0.0000 C   0  0  0  0  0  0  0  0  0  0  0  0
    1.5200    0.8616    0.0000 C   0  0  0  0  0  0  0  0  0  0  0  0
    0.3327   -0.0550    0.0000 C   0  0  0  0  0  0  0  0  0  0  0  0
    0.5328   -1.5416    0.0000 C   0  0  0  0  0  0  0  0  0  0  0  0
   -0.9067   -1.1197    0.0000 C   0  0  0  0  0  0  0  0  0  0  0  0
  2  1  1  6
  2  3  1  0
  3  4  1  0
  4  5  1  0
  5  6  2  0
  5  7  1  0
  7  8  1  0
  8  9  1  0
  9 10  2  0
  9 11  1  0
  9 12  1  0
  2 13  1  0
 13 14  1  6
 14 15  1  0
 16 15  1  6
 16 17  1  0
 17 18  1  1
 18 19  1  6
 18 20  1  0
 21 20  1  1
 21 22  1  0
 22 23  1  0
 23 24  1  1
 23 25  1  0
 25 26  1  0
 26 27  1  0
 27 28  1  6
 27 29  1  0
 29 30  1  6
 30 31  1  0
 31 32  1  0
 32 33  1  6
 32 13  1  0
 32 16  1  0
 29 17  1  0
 27 21  1  0
M  END
>  <MS_ID>  (850) 
MS0886

>  <SMILES>  (850) 
C[C@H](CCC(=O)COP(=O)(O)O)[C@H]1CC[C@H]2[C@@H]3[C@@H](O)C[C@@H]4C[C@H](O)CC[C@]4(C)[C@H]3CC[C@]12C

>  <Structure_dimension>  (850) 
2D

$$$$
MS0887
     RDKit          2D

 29 32  0  0  0  0  0  0  0  0999 V2000
   -4.6551   -2.6180    0.0000 C   0  0  0  0  0  0  0  0  0  0  0  0
   -3.5633   -1.5894    0.0000 C   0  0  0  0  0  0  0  0  0  0  0  0
   -3.9081   -0.1296    0.0000 C   0  0  0  0  0  0  0  0  0  0  0  0
   -5.3448    0.3016    0.0000 C   0  0  0  0  0  0  0  0  0  0  0  0
   -5.6897    1.7615    0.0000 C   0  0  0  0  0  0  0  0  0  0  0  0
   -4.5979    2.7900    0.0000 O   0  0  0  0  0  0  0  0  0  0  0  0
   -7.1264    2.1927    0.0000 N   0  0  0  0  0  0  0  0  0  0  0  0
   -7.4712    3.6525    0.0000 O   0  0  0  0  0  0  0  0  0  0  0  0
   -2.1266   -2.0207    0.0000 C   0  0  0  0  0  0  0  0  0  0  0  0
   -1.6310   -3.4364    0.0000 C   0  0  0  0  0  0  0  0  0  0  0  0
   -0.1314   -3.4026    0.0000 C   0  0  0  0  0  0  0  0  0  0  0  0
    0.2998   -1.9659    0.0000 C   0  0  0  0  0  0  0  0  0  0  0  0
    1.6561   -1.3251    0.0000 C   0  0  0  0  0  0  0  0  0  0  0  0
    2.8892   -2.1792    0.0000 C   0  0  0  0  0  0  0  0  0  0  0  0
    2.7660   -3.6741    0.0000 O   0  0  0  0  0  0  0  0  0  0  0  0
    4.2454   -1.5383    0.0000 C   0  0  0  0  0  0  0  0  0  0  0  0
    4.3685   -0.0434    0.0000 C   0  0  0  0  0  0  0  0  0  0  0  0
    5.7247    0.5975    0.0000 C   0  0  0  0  0  0  0  0  0  0  0  0
    5.8478    2.0924    0.0000 C   0  0  0  0  0  0  0  0  0  0  0  0
    7.2040    2.7332    0.0000 O   0  0  0  0  0  0  0  0  0  0  0  0
    4.6147    2.9465    0.0000 C   0  0  0  0  0  0  0  0  0  0  0  0
    3.2585    2.3056    0.0000 C   0  0  0  0  0  0  0  0  0  0  0  0
    3.1354    0.8107    0.0000 C   0  0  0  0  0  0  0  0  0  0  0  0
    1.9023    1.6648    0.0000 C   0  0  0  0  0  0  0  0  0  0  0  0
    1.7792    0.1699    0.0000 C   0  0  0  0  0  0  0  0  0  0  0  0
    0.5461    1.0239    0.0000 C   0  0  0  0  0  0  0  0  0  0  0  0
   -0.8101    0.3831    0.0000 C   0  0  0  0  0  0  0  0  0  0  0  0
   -0.9333   -1.1118    0.0000 C   0  0  0  0  0  0  0  0  0  0  0  0
   -2.2489   -0.3913    0.0000 C   0  0  0  0  0  0  0  0  0  0  0  0
  2  1  1  6
  2  3  1  0
  3  4  1  0
  4  5  1  0
  5  6  2  0
  5  7  1  0
  7  8  1  0
  2  9  1  0
  9 10  1  6
 10 11  1  0
 12 11  1  6
 12 13  1  0
 13 14  1  1
 14 15  1  1
 14 16  1  0
 17 16  1  1
 17 18  1  0
 18 19  1  0
 19 20  1  6
 19 21  1  0
 21 22  1  0
 22 23  1  0
 23 24  1  6
 23 25  1  0
 25 26  1  6
 26 27  1  0
 27 28  1  0
 28 29  1  6
 28  9  1  0
 28 12  1  0
 25 13  1  0
 23 17  1  0
M  END
>  <MS_ID>  (851) 
MS0887

>  <SMILES>  (851) 
C[C@H](CCC(=O)NO)[C@H]1CC[C@H]2[C@@H]3[C@H](O)C[C@@H]4C[C@@H](O)CC[C@]4(C)[C@H]3CC[C@]12C

>  <Structure_dimension>  (851) 
2D

$$$$
MS0888
     RDKit          2D

 33 36  0  0  0  0  0  0  0  0999 V2000
   -2.4343   -4.1694    0.0000 C   0  0  0  0  0  0  0  0  0  0  0  0
   -1.6856   -2.8696    0.0000 C   0  0  0  0  0  0  0  0  0  0  0  0
   -2.4369   -1.5713    0.0000 C   0  0  0  0  0  0  0  0  0  0  0  0
   -3.9369   -1.5728    0.0000 C   0  0  0  0  0  0  0  0  0  0  0  0
   -4.6882   -0.2745    0.0000 C   0  0  0  0  0  0  0  0  0  0  0  0
   -3.9395    1.0253    0.0000 O   0  0  0  0  0  0  0  0  0  0  0  0
   -6.1882   -0.2760    0.0000 C   0  0  0  0  0  0  0  0  0  0  0  0
   -6.9395    1.0223    0.0000 S   0  0  0  0  0  0  0  0  0  0  0  0
   -8.4395    1.0208    0.0000 C   0  0  0  0  0  0  0  0  0  0  0  0
   -9.1908    2.3191    0.0000 C   0  0  0  0  0  0  0  0  0  0  0  0
   -8.4421    3.6189    0.0000 O   0  0  0  0  0  0  0  0  0  0  0  0
  -10.6908    2.3176    0.0000 O   0  0  0  0  0  0  0  0  0  0  0  0
   -0.1856   -2.8681    0.0000 C   0  0  0  0  0  0  0  0  0  0  0  0
    0.6973   -4.0807    0.0000 C   0  0  0  0  0  0  0  0  0  0  0  0
    2.1234   -3.6158    0.0000 C   0  0  0  0  0  0  0  0  0  0  0  0
    2.1219   -2.1158    0.0000 C   0  0  0  0  0  0  0  0  0  0  0  0
    3.2356   -1.1109    0.0000 C   0  0  0  0  0  0  0  0  0  0  0  0
    4.6626   -1.5730    0.0000 C   0  0  0  0  0  0  0  0  0  0  0  0
    4.9760   -3.0399    0.0000 O   0  0  0  0  0  0  0  0  0  0  0  0
    5.7764   -0.5682    0.0000 C   0  0  0  0  0  0  0  0  0  0  0  0
    5.4630    0.8987    0.0000 C   0  0  0  0  0  0  0  0  0  0  0  0
    6.5767    1.9035    0.0000 C   0  0  0  0  0  0  0  0  0  0  0  0
    6.2634    3.3704    0.0000 C   0  0  0  0  0  0  0  0  0  0  0  0
    7.3771    4.3752    0.0000 O   0  0  0  0  0  0  0  0  0  0  0  0
    4.8363    3.8325    0.0000 C   0  0  0  0  0  0  0  0  0  0  0  0
    3.7226    2.8277    0.0000 C   0  0  0  0  0  0  0  0  0  0  0  0
    4.0360    1.3608    0.0000 C   0  0  0  0  0  0  0  0  0  0  0  0
    2.6089    1.8229    0.0000 C   0  0  0  0  0  0  0  0  0  0  0  0
    2.9223    0.3560    0.0000 C   0  0  0  0  0  0  0  0  0  0  0  0
    1.4952    0.8181    0.0000 C   0  0  0  0  0  0  0  0  0  0  0  0
    0.3815   -0.1867    0.0000 C   0  0  0  0  0  0  0  0  0  0  0  0
    0.6948   -1.6537    0.0000 C   0  0  0  0  0  0  0  0  0  0  0  0
   -0.7727   -1.3433    0.0000 C   0  0  0  0  0  0  0  0  0  0  0  0
  2  1  1  6
  2  3  1  0
  3  4  1  0
  4  5  1  0
  5  6  2  0
  5  7  1  0
  7  8  1  0
  8  9  1  0
  9 10  1  0
 10 11  2  0
 10 12  1  0
  2 13  1  0
 13 14  1  6
 14 15  1  0
 16 15  1  6
 16 17  1  0
 17 18  1  1
 18 19  1  6
 18 20  1  0
 21 20  1  1
 21 22  1  0
 22 23  1  0
 23 24  1  1
 23 25  1  0
 25 26  1  0
 26 27  1  0
 27 28  1  6
 27 29  1  0
 29 30  1  6
 30 31  1  0
 31 32  1  0
 32 33  1  6
 32 13  1  0
 32 16  1  0
 29 17  1  0
 27 21  1  0
M  END
>  <MS_ID>  (852) 
MS0888

>  <SMILES>  (852) 
C[C@H](CCC(=O)CSCC(=O)O)[C@H]1CC[C@H]2[C@@H]3[C@@H](O)C[C@@H]4C[C@H](O)CC[C@]4(C)[C@H]3CC[C@]12C

>  <Structure_dimension>  (852) 
2D

$$$$
MS0889
     RDKit          2D

 30 33  0  0  0  0  0  0  0  0999 V2000
   -4.5685   -2.6908    0.0000 C   0  0  0  0  0  0  0  0  0  0  0  0
   -3.4838   -1.6548    0.0000 C   0  0  0  0  0  0  0  0  0  0  0  0
   -3.8388   -0.1974    0.0000 C   0  0  0  0  0  0  0  0  0  0  0  0
   -5.2784    0.2240    0.0000 C   0  0  0  0  0  0  0  0  0  0  0  0
   -5.6333    1.6814    0.0000 C   0  0  0  0  0  0  0  0  0  0  0  0
   -4.5486    2.7174    0.0000 O   0  0  0  0  0  0  0  0  0  0  0  0
   -7.0729    2.1027    0.0000 C   0  0  0  0  0  0  0  0  0  0  0  0
   -7.4279    3.5601    0.0000 O   0  0  0  0  0  0  0  0  0  0  0  0
   -2.0442   -2.0761    0.0000 C   0  0  0  0  0  0  0  0  0  0  0  0
   -1.5389   -3.4884    0.0000 C   0  0  0  0  0  0  0  0  0  0  0  0
   -0.0395   -3.4442    0.0000 C   0  0  0  0  0  0  0  0  0  0  0  0
    0.3818   -2.0046    0.0000 C   0  0  0  0  0  0  0  0  0  0  0  0
    1.7336   -1.3544    0.0000 C   0  0  0  0  0  0  0  0  0  0  0  0
    2.9725   -2.1999    0.0000 C   0  0  0  0  0  0  0  0  0  0  0  0
    2.8597   -3.6957    0.0000 O   0  0  0  0  0  0  0  0  0  0  0  0
    4.3243   -1.5497    0.0000 C   0  0  0  0  0  0  0  0  0  0  0  0
    4.4371   -0.0540    0.0000 C   0  0  0  0  0  0  0  0  0  0  0  0
    5.7888    0.5962    0.0000 C   0  0  0  0  0  0  0  0  0  0  0  0
    5.9016    2.0920    0.0000 C   0  0  0  0  0  0  0  0  0  0  0  0
    7.2534    2.7422    0.0000 O   0  0  0  0  0  0  0  0  0  0  0  0
    4.6627    2.9375    0.0000 C   0  0  0  0  0  0  0  0  0  0  0  0
    3.3109    2.2873    0.0000 C   0  0  0  0  0  0  0  0  0  0  0  0
    3.1981    0.7916    0.0000 C   0  0  0  0  0  0  0  0  0  0  0  0
    1.9591    1.6371    0.0000 C   0  0  0  0  0  0  0  0  0  0  0  0
    1.8464    0.1414    0.0000 C   0  0  0  0  0  0  0  0  0  0  0  0
    0.6074    0.9869    0.0000 C   0  0  0  0  0  0  0  0  0  0  0  0
   -0.7444    0.3367    0.0000 C   0  0  0  0  0  0  0  0  0  0  0  0
   -1.9833    1.1823    0.0000 O   0  0  0  0  0  0  0  0  0  0  0  0
   -0.8572   -1.1590    0.0000 C   0  0  0  0  0  0  0  0  0  0  0  0
   -2.1777   -0.4476    0.0000 C   0  0  0  0  0  0  0  0  0  0  0  0
  2  1  1  6
  2  3  1  0
  3  4  1  0
  4  5  1  0
  5  6  2  0
  5  7  1  0
  7  8  1  0
  2  9  1  0
  9 10  1  6
 10 11  1  0
 12 11  1  6
 12 13  1  0
 13 14  1  1
 14 15  1  6
 14 16  1  0
 17 16  1  1
 17 18  1  0
 18 19  1  0
 19 20  2  0
 19 21  1  0
 21 22  1  0
 22 23  1  0
 23 24  1  6
 23 25  1  0
 25 26  1  6
 26 27  1  0
 27 28  1  1
 27 29  1  0
 29 30  1  6
 29  9  1  0
 29 12  1  0
 25 13  1  0
 23 17  1  0
M  END
>  <MS_ID>  (853) 
MS0889

>  <SMILES>  (853) 
C[C@H](CCC(=O)CO)[C@H]1CC[C@H]2[C@@H]3[C@@H](O)C[C@@H]4CC(=O)CC[C@]4(C)[C@H]3C[C@H](O)[C@]12C

>  <Structure_dimension>  (853) 
2D

$$$$
MS0890
     RDKit          2D

 35 39  0  0  0  0  0  0  0  0999 V2000
   -2.2319   -4.3352    0.0000 C   0  0  0  0  0  0  0  0  0  0  0  0
   -1.5144   -3.0180    0.0000 C   0  0  0  0  0  0  0  0  0  0  0  0
   -2.2965   -1.7380    0.0000 C   0  0  0  0  0  0  0  0  0  0  0  0
   -3.7960   -1.7752    0.0000 C   0  0  0  0  0  0  0  0  0  0  0  0
   -4.5781   -0.4952    0.0000 C   0  0  0  0  0  0  0  0  0  0  0  0
   -3.8606    0.8220    0.0000 O   0  0  0  0  0  0  0  0  0  0  0  0
   -6.0776   -0.5325    0.0000 N   0  0  0  0  0  0  0  0  0  0  0  0
   -6.8597    0.7475    0.0000 C   0  0  0  0  0  0  0  0  0  0  0  0
   -6.1422    2.0648    0.0000 C   0  0  0  0  0  0  0  0  0  0  0  0
   -6.9242    3.3448    0.0000 C   0  0  0  0  0  0  0  0  0  0  0  0
   -8.4238    3.3075    0.0000 C   0  0  0  0  0  0  0  0  0  0  0  0
   -9.1412    1.9902    0.0000 C   0  0  0  0  0  0  0  0  0  0  0  0
   -8.3592    0.7102    0.0000 C   0  0  0  0  0  0  0  0  0  0  0  0
   -0.0149   -2.9807    0.0000 C   0  0  0  0  0  0  0  0  0  0  0  0
    0.8967   -4.1719    0.0000 C   0  0  0  0  0  0  0  0  0  0  0  0
    2.3113   -3.6731    0.0000 C   0  0  0  0  0  0  0  0  0  0  0  0
    2.2740   -2.1736    0.0000 C   0  0  0  0  0  0  0  0  0  0  0  0
    3.3634   -1.1425    0.0000 C   0  0  0  0  0  0  0  0  0  0  0  0
    4.8011   -1.5704    0.0000 C   0  0  0  0  0  0  0  0  0  0  0  0
    5.1493   -3.0294    0.0000 O   0  0  0  0  0  0  0  0  0  0  0  0
    5.8905   -0.5393    0.0000 C   0  0  0  0  0  0  0  0  0  0  0  0
    5.5423    0.9197    0.0000 C   0  0  0  0  0  0  0  0  0  0  0  0
    6.6317    1.9508    0.0000 C   0  0  0  0  0  0  0  0  0  0  0  0
    6.2835    3.4098    0.0000 C   0  0  0  0  0  0  0  0  0  0  0  0
    7.3729    4.4409    0.0000 O   0  0  0  0  0  0  0  0  0  0  0  0
    4.8458    3.8377    0.0000 C   0  0  0  0  0  0  0  0  0  0  0  0
    3.7564    2.8066    0.0000 C   0  0  0  0  0  0  0  0  0  0  0  0
    4.1046    1.3476    0.0000 C   0  0  0  0  0  0  0  0  0  0  0  0
    2.6670    1.7755    0.0000 C   0  0  0  0  0  0  0  0  0  0  0  0
    3.0152    0.3165    0.0000 C   0  0  0  0  0  0  0  0  0  0  0  0
    1.5776    0.7445    0.0000 C   0  0  0  0  0  0  0  0  0  0  0  0
    0.4881   -0.2866    0.0000 C   0  0  0  0  0  0  0  0  0  0  0  0
   -0.9495    0.1413    0.0000 O   0  0  0  0  0  0  0  0  0  0  0  0
    0.8363   -1.7456    0.0000 C   0  0  0  0  0  0  0  0  0  0  0  0
   -0.6382   -1.4703    0.0000 C   0  0  0  0  0  0  0  0  0  0  0  0
  2  1  1  6
  2  3  1  0
  3  4  1  0
  4  5  1  0
  5  6  2  0
  5  7  1  0
  7  8  1  0
  8  9  2  0
  9 10  1  0
 10 11  2  0
 11 12  1  0
 12 13  2  0
  2 14  1  0
 14 15  1  6
 15 16  1  0
 17 16  1  6
 17 18  1  0
 18 19  1  1
 19 20  1  1
 19 21  1  0
 22 21  1  1
 22 23  1  0
 23 24  1  0
 24 25  1  1
 24 26  1  0
 26 27  1  0
 27 28  1  0
 28 29  1  6
 28 30  1  0
 30 31  1  6
 31 32  1  0
 32 33  1  1
 32 34  1  0
 34 35  1  6
 13  8  1  0
 34 14  1  0
 34 17  1  0
 30 18  1  0
 28 22  1  0
M  END
>  <MS_ID>  (854) 
MS0890

>  <SMILES>  (854) 
C[C@H](CCC(=O)Nc1ccccc1)[C@H]1CC[C@H]2[C@@H]3[C@H](O)C[C@@H]4C[C@H](O)CC[C@]4(C)[C@H]3C[C@H](O)[C@]12C

>  <Structure_dimension>  (854) 
2D

$$$$
MS0891
     RDKit          2D

 29 32  0  0  0  0  0  0  0  0999 V2000
   -4.6551   -2.6180    0.0000 C   0  0  0  0  0  0  0  0  0  0  0  0
   -3.5633   -1.5894    0.0000 C   0  0  0  0  0  0  0  0  0  0  0  0
   -3.9081   -0.1296    0.0000 C   0  0  0  0  0  0  0  0  0  0  0  0
   -5.3448    0.3016    0.0000 C   0  0  0  0  0  0  0  0  0  0  0  0
   -5.6897    1.7615    0.0000 C   0  0  0  0  0  0  0  0  0  0  0  0
   -4.5979    2.7900    0.0000 O   0  0  0  0  0  0  0  0  0  0  0  0
   -7.1264    2.1927    0.0000 N   0  0  0  0  0  0  0  0  0  0  0  0
   -7.4712    3.6525    0.0000 N   0  0  0  0  0  0  0  0  0  0  0  0
   -2.1266   -2.0207    0.0000 C   0  0  0  0  0  0  0  0  0  0  0  0
   -1.6310   -3.4364    0.0000 C   0  0  0  0  0  0  0  0  0  0  0  0
   -0.1314   -3.4026    0.0000 C   0  0  0  0  0  0  0  0  0  0  0  0
    0.2998   -1.9659    0.0000 C   0  0  0  0  0  0  0  0  0  0  0  0
    1.6561   -1.3251    0.0000 C   0  0  0  0  0  0  0  0  0  0  0  0
    2.8892   -2.1792    0.0000 C   0  0  0  0  0  0  0  0  0  0  0  0
    2.7660   -3.6741    0.0000 O   0  0  0  0  0  0  0  0  0  0  0  0
    4.2454   -1.5383    0.0000 C   0  0  0  0  0  0  0  0  0  0  0  0
    4.3685   -0.0434    0.0000 C   0  0  0  0  0  0  0  0  0  0  0  0
    5.7247    0.5975    0.0000 C   0  0  0  0  0  0  0  0  0  0  0  0
    5.8478    2.0924    0.0000 C   0  0  0  0  0  0  0  0  0  0  0  0
    7.2040    2.7332    0.0000 O   0  0  0  0  0  0  0  0  0  0  0  0
    4.6147    2.9465    0.0000 C   0  0  0  0  0  0  0  0  0  0  0  0
    3.2585    2.3056    0.0000 C   0  0  0  0  0  0  0  0  0  0  0  0
    3.1354    0.8107    0.0000 C   0  0  0  0  0  0  0  0  0  0  0  0
    1.9023    1.6648    0.0000 C   0  0  0  0  0  0  0  0  0  0  0  0
    1.7792    0.1699    0.0000 C   0  0  0  0  0  0  0  0  0  0  0  0
    0.5461    1.0239    0.0000 C   0  0  0  0  0  0  0  0  0  0  0  0
   -0.8101    0.3831    0.0000 C   0  0  0  0  0  0  0  0  0  0  0  0
   -0.9333   -1.1118    0.0000 C   0  0  0  0  0  0  0  0  0  0  0  0
   -2.2489   -0.3913    0.0000 C   0  0  0  0  0  0  0  0  0  0  0  0
  2  1  1  6
  2  3  1  0
  3  4  1  0
  4  5  1  0
  5  6  2  0
  5  7  1  0
  7  8  1  0
  2  9  1  0
  9 10  1  6
 10 11  1  0
 12 11  1  6
 12 13  1  0
 13 14  1  1
 14 15  1  1
 14 16  1  0
 17 16  1  1
 17 18  1  0
 18 19  1  0
 19 20  1  1
 19 21  1  0
 21 22  1  0
 22 23  1  0
 23 24  1  6
 23 25  1  0
 25 26  1  6
 26 27  1  0
 27 28  1  0
 28 29  1  6
 28  9  1  0
 28 12  1  0
 25 13  1  0
 23 17  1  0
M  END
>  <MS_ID>  (855) 
MS0891

>  <SMILES>  (855) 
C[C@H](CCC(=O)NN)[C@H]1CC[C@H]2[C@@H]3[C@H](O)C[C@@H]4C[C@H](O)CC[C@]4(C)[C@H]3CC[C@]12C

>  <Structure_dimension>  (855) 
2D

$$$$
MS0892
     RDKit          2D

 30 33  0  0  0  0  0  0  0  0999 V2000
   -4.0199   -3.1584    0.0000 C   0  0  0  0  0  0  0  0  0  0  0  0
   -2.9902   -2.0677    0.0000 C   0  0  0  0  0  0  0  0  0  0  0  0
   -3.4199   -0.6306    0.0000 C   0  0  0  0  0  0  0  0  0  0  0  0
   -4.8793   -0.2841    0.0000 C   0  0  0  0  0  0  0  0  0  0  0  0
   -5.3090    1.1530    0.0000 C   0  0  0  0  0  0  0  0  0  0  0  0
   -4.2792    2.2437    0.0000 O   0  0  0  0  0  0  0  0  0  0  0  0
   -6.7684    1.4995    0.0000 C   0  0  0  0  0  0  0  0  0  0  0  0
   -7.1981    2.9366    0.0000 C   0  0  0  0  0  0  0  0  0  0  0  0
   -8.6575    3.2831    0.0000 O   0  0  0  0  0  0  0  0  0  0  0  0
   -1.5307   -2.4142    0.0000 C   0  0  0  0  0  0  0  0  0  0  0  0
   -0.9532   -3.7985    0.0000 C   0  0  0  0  0  0  0  0  0  0  0  0
    0.5419   -3.6770    0.0000 C   0  0  0  0  0  0  0  0  0  0  0  0
    0.8883   -2.2176    0.0000 C   0  0  0  0  0  0  0  0  0  0  0  0
    2.2047   -1.4985    0.0000 C   0  0  0  0  0  0  0  0  0  0  0  0
    3.4857   -2.2790    0.0000 C   0  0  0  0  0  0  0  0  0  0  0  0
    4.8021   -1.5599    0.0000 C   0  0  0  0  0  0  0  0  0  0  0  0
    4.8375   -0.0603    0.0000 C   0  0  0  0  0  0  0  0  0  0  0  0
    6.1539    0.6588    0.0000 C   0  0  0  0  0  0  0  0  0  0  0  0
    6.1894    2.1583    0.0000 C   0  0  0  0  0  0  0  0  0  0  0  0
    7.5058    2.8774    0.0000 O   0  0  0  0  0  0  0  0  0  0  0  0
    4.9084    2.9388    0.0000 C   0  0  0  0  0  0  0  0  0  0  0  0
    3.5920    2.2197    0.0000 C   0  0  0  0  0  0  0  0  0  0  0  0
    3.5566    0.7202    0.0000 C   0  0  0  0  0  0  0  0  0  0  0  0
    2.2756    1.5007    0.0000 C   0  0  0  0  0  0  0  0  0  0  0  0
    2.2402    0.0011    0.0000 C   0  0  0  0  0  0  0  0  0  0  0  0
    0.9592    0.7816    0.0000 C   0  0  0  0  0  0  0  0  0  0  0  0
   -0.3572    0.0625    0.0000 C   0  0  0  0  0  0  0  0  0  0  0  0
   -1.6381    0.8430    0.0000 O   0  0  0  0  0  0  0  0  0  0  0  0
   -0.3926   -1.4371    0.0000 C   0  0  0  0  0  0  0  0  0  0  0  0
   -1.7481   -0.7948    0.0000 C   0  0  0  0  0  0  0  0  0  0  0  0
  2  1  1  6
  2  3  1  0
  3  4  1  0
  4  5  1  0
  5  6  2  0
  5  7  1  0
  7  8  1  0
  8  9  1  0
  2 10  1  0
 10 11  1  6
 11 12  1  0
 13 12  1  6
 13 14  1  0
 14 15  1  1
 15 16  1  0
 17 16  1  1
 17 18  1  0
 18 19  1  0
 19 20  2  0
 19 21  1  0
 21 22  1  0
 22 23  1  0
 23 24  1  6
 23 25  1  0
 25 26  1  6
 26 27  1  0
 27 28  1  1
 27 29  1  0
 29 30  1  6
 29 10  1  0
 29 13  1  0
 25 14  1  0
 23 17  1  0
M  END
>  <MS_ID>  (856) 
MS0892

>  <SMILES>  (856) 
C[C@H](CCC(=O)CCO)[C@H]1CC[C@H]2[C@@H]3CC[C@@H]4CC(=O)CC[C@]4(C)[C@H]3C[C@H](O)[C@]12C

>  <Structure_dimension>  (856) 
2D

$$$$
MS0893
     RDKit          2D

 32 35  0  0  0  0  0  0  0  0999 V2000
   -3.2905   -3.6805    0.0000 C   0  0  0  0  0  0  0  0  0  0  0  0
   -2.3609   -2.5033    0.0000 C   0  0  0  0  0  0  0  0  0  0  0  0
   -2.9157   -1.1096    0.0000 C   0  0  0  0  0  0  0  0  0  0  0  0
   -4.4000   -0.8932    0.0000 C   0  0  0  0  0  0  0  0  0  0  0  0
   -4.9547    0.5004    0.0000 C   0  0  0  0  0  0  0  0  0  0  0  0
   -4.0251    1.6776    0.0000 O   0  0  0  0  0  0  0  0  0  0  0  0
   -6.4390    0.7168    0.0000 O   0  0  0  0  0  0  0  0  0  0  0  0
   -6.9938    2.1105    0.0000 C   0  0  0  0  0  0  0  0  0  0  0  0
   -8.3874    1.5557    0.0000 C   0  0  0  0  0  0  0  0  0  0  0  0
   -5.6001    2.6652    0.0000 C   0  0  0  0  0  0  0  0  0  0  0  0
   -7.5485    3.5041    0.0000 O   0  0  0  0  0  0  0  0  0  0  0  0
   -0.8766   -2.7197    0.0000 C   0  0  0  0  0  0  0  0  0  0  0  0
   -0.1792   -4.0477    0.0000 C   0  0  0  0  0  0  0  0  0  0  0  0
    1.2993   -3.7949    0.0000 C   0  0  0  0  0  0  0  0  0  0  0  0
    1.5157   -2.3106    0.0000 C   0  0  0  0  0  0  0  0  0  0  0  0
    2.7636   -1.4782    0.0000 C   0  0  0  0  0  0  0  0  0  0  0  0
    4.1084   -2.1427    0.0000 C   0  0  0  0  0  0  0  0  0  0  0  0
    5.3562   -1.3103    0.0000 C   0  0  0  0  0  0  0  0  0  0  0  0
    5.2593    0.1866    0.0000 C   0  0  0  0  0  0  0  0  0  0  0  0
    6.5071    1.0189    0.0000 C   0  0  0  0  0  0  0  0  0  0  0  0
    6.4102    2.5158    0.0000 C   0  0  0  0  0  0  0  0  0  0  0  0
    7.6581    3.3482    0.0000 O   0  0  0  0  0  0  0  0  0  0  0  0
    5.0654    3.1803    0.0000 C   0  0  0  0  0  0  0  0  0  0  0  0
    3.8176    2.3479    0.0000 C   0  0  0  0  0  0  0  0  0  0  0  0
    3.9145    0.8511    0.0000 C   0  0  0  0  0  0  0  0  0  0  0  0
    2.5697    1.5155    0.0000 C   0  0  0  0  0  0  0  0  0  0  0  0
    2.6666    0.0187    0.0000 C   0  0  0  0  0  0  0  0  0  0  0  0
    1.3218    0.6832    0.0000 C   0  0  0  0  0  0  0  0  0  0  0  0
    0.0740   -0.1492    0.0000 C   0  0  0  0  0  0  0  0  0  0  0  0
   -1.2708    0.5153    0.0000 O   0  0  0  0  0  0  0  0  0  0  0  0
    0.1709   -1.6461    0.0000 C   0  0  0  0  0  0  0  0  0  0  0  0
   -1.2360   -1.1258    0.0000 C   0  0  0  0  0  0  0  0  0  0  0  0
  2  1  1  6
  2  3  1  0
  3  4  1  0
  4  5  1  0
  5  6  2  0
  5  7  1  0
  7  8  1  0
  8  9  1  0
  8 10  1  0
  8 11  1  0
  2 12  1  0
 12 13  1  6
 13 14  1  0
 15 14  1  6
 15 16  1  0
 16 17  1  1
 17 18  1  0
 19 18  1  1
 19 20  1  0
 20 21  1  0
 21 22  1  1
 21 23  1  0
 23 24  1  0
 24 25  1  0
 25 26  1  6
 25 27  1  0
 27 28  1  6
 28 29  1  0
 29 30  1  1
 29 31  1  0
 31 32  1  6
 31 12  1  0
 31 15  1  0
 27 16  1  0
 25 19  1  0
M  END
>  <MS_ID>  (857) 
MS0893

>  <SMILES>  (857) 
C[C@H](CCC(=O)OC(C)(C)O)[C@H]1CC[C@H]2[C@@H]3CC[C@@H]4C[C@H](O)CC[C@]4(C)[C@H]3C[C@H](O)[C@]12C

>  <Structure_dimension>  (857) 
2D

$$$$
MS0894
     RDKit          2D

 34 37  0  0  0  0  0  0  0  0999 V2000
   -2.2928   -4.0886    0.0000 C   0  0  0  0  0  0  0  0  0  0  0  0
   -1.5244   -2.8004    0.0000 C   0  0  0  0  0  0  0  0  0  0  0  0
   -2.2558   -1.4908    0.0000 C   0  0  0  0  0  0  0  0  0  0  0  0
   -3.7557   -1.4695    0.0000 C   0  0  0  0  0  0  0  0  0  0  0  0
   -4.4872   -0.1599    0.0000 C   0  0  0  0  0  0  0  0  0  0  0  0
   -3.7188    1.1283    0.0000 O   0  0  0  0  0  0  0  0  0  0  0  0
   -5.9870   -0.1386    0.0000 C   0  0  0  0  0  0  0  0  0  0  0  0
   -6.7554   -1.4268    0.0000 O   0  0  0  0  0  0  0  0  0  0  0  0
   -6.7185    1.1710    0.0000 N   0  0  0  0  0  0  0  0  0  0  0  0
   -8.2183    1.1923    0.0000 C   0  0  0  0  0  0  0  0  0  0  0  0
   -8.9498    2.5019    0.0000 C   0  0  0  0  0  0  0  0  0  0  0  0
   -8.1814    3.7901    0.0000 O   0  0  0  0  0  0  0  0  0  0  0  0
  -10.4496    2.5232    0.0000 O   0  0  0  0  0  0  0  0  0  0  0  0
   -0.0245   -2.8217    0.0000 C   0  0  0  0  0  0  0  0  0  0  0  0
    0.8398   -4.0476    0.0000 C   0  0  0  0  0  0  0  0  0  0  0  0
    2.2728   -3.6044    0.0000 C   0  0  0  0  0  0  0  0  0  0  0  0
    2.2942   -2.1046    0.0000 C   0  0  0  0  0  0  0  0  0  0  0  0
    3.4230   -1.1168    0.0000 C   0  0  0  0  0  0  0  0  0  0  0  0
    4.8429   -1.6006    0.0000 C   0  0  0  0  0  0  0  0  0  0  0  0
    5.1339   -3.0721    0.0000 O   0  0  0  0  0  0  0  0  0  0  0  0
    5.9717   -0.6128    0.0000 C   0  0  0  0  0  0  0  0  0  0  0  0
    5.6808    0.8587    0.0000 C   0  0  0  0  0  0  0  0  0  0  0  0
    6.8096    1.8465    0.0000 C   0  0  0  0  0  0  0  0  0  0  0  0
    6.5187    3.3180    0.0000 C   0  0  0  0  0  0  0  0  0  0  0  0
    7.6475    4.3057    0.0000 O   0  0  0  0  0  0  0  0  0  0  0  0
    5.0988    3.8017    0.0000 C   0  0  0  0  0  0  0  0  0  0  0  0
    3.9699    2.8140    0.0000 C   0  0  0  0  0  0  0  0  0  0  0  0
    4.2609    1.3425    0.0000 C   0  0  0  0  0  0  0  0  0  0  0  0
    2.8411    1.8262    0.0000 C   0  0  0  0  0  0  0  0  0  0  0  0
    3.1320    0.3547    0.0000 C   0  0  0  0  0  0  0  0  0  0  0  0
    1.7122    0.8385    0.0000 C   0  0  0  0  0  0  0  0  0  0  0  0
    0.5833   -0.1493    0.0000 C   0  0  0  0  0  0  0  0  0  0  0  0
    0.8743   -1.6208    0.0000 C   0  0  0  0  0  0  0  0  0  0  0  0
   -0.5883   -1.2881    0.0000 C   0  0  0  0  0  0  0  0  0  0  0  0
  2  1  1  6
  2  3  1  0
  3  4  1  0
  4  5  1  0
  5  6  2  0
  5  7  1  0
  7  8  2  0
  7  9  1  0
  9 10  1  0
 10 11  1  0
 11 12  2  0
 11 13  1  0
  2 14  1  0
 14 15  1  6
 15 16  1  0
 17 16  1  6
 17 18  1  0
 18 19  1  1
 19 20  1  6
 19 21  1  0
 22 21  1  1
 22 23  1  0
 23 24  1  0
 24 25  1  1
 24 26  1  0
 26 27  1  0
 27 28  1  0
 28 29  1  6
 28 30  1  0
 30 31  1  6
 31 32  1  0
 32 33  1  0
 33 34  1  6
 33 14  1  0
 33 17  1  0
 30 18  1  0
 28 22  1  0
M  END
>  <MS_ID>  (858) 
MS0894

>  <SMILES>  (858) 
C[C@H](CCC(=O)C(=O)NCC(=O)O)[C@H]1CC[C@H]2[C@@H]3[C@@H](O)C[C@@H]4C[C@H](O)CC[C@]4(C)[C@H]3CC[C@]12C

>  <Structure_dimension>  (858) 
2D

$$$$
MS0895
     RDKit          2D

 31 34  0  0  0  0  0  0  0  0999 V2000
   -4.2495   -2.8115    0.0000 C   0  0  0  0  0  0  0  0  0  0  0  0
   -3.1859   -1.7538    0.0000 C   0  0  0  0  0  0  0  0  0  0  0  0
   -3.5702   -0.3038    0.0000 C   0  0  0  0  0  0  0  0  0  0  0  0
   -5.0180    0.0883    0.0000 C   0  0  0  0  0  0  0  0  0  0  0  0
   -5.4023    1.5383    0.0000 C   0  0  0  0  0  0  0  0  0  0  0  0
   -4.3387    2.5960    0.0000 O   0  0  0  0  0  0  0  0  0  0  0  0
   -6.8501    1.9305    0.0000 N   0  0  0  0  0  0  0  0  0  0  0  0
   -7.2344    3.3804    0.0000 C   0  0  0  0  0  0  0  0  0  0  0  0
   -7.9137    0.8727    0.0000 C   0  0  0  0  0  0  0  0  0  0  0  0
   -1.7381   -2.1460    0.0000 C   0  0  0  0  0  0  0  0  0  0  0  0
   -1.2044   -3.5478    0.0000 C   0  0  0  0  0  0  0  0  0  0  0  0
    0.2938   -3.4734    0.0000 C   0  0  0  0  0  0  0  0  0  0  0  0
    0.6860   -2.0256    0.0000 C   0  0  0  0  0  0  0  0  0  0  0  0
    2.0243   -1.3482    0.0000 C   0  0  0  0  0  0  0  0  0  0  0  0
    3.2801   -2.1686    0.0000 C   0  0  0  0  0  0  0  0  0  0  0  0
    3.1975   -3.6663    0.0000 O   0  0  0  0  0  0  0  0  0  0  0  0
    4.6185   -1.4913    0.0000 C   0  0  0  0  0  0  0  0  0  0  0  0
    4.7010    0.0064    0.0000 C   0  0  0  0  0  0  0  0  0  0  0  0
    6.0394    0.6838    0.0000 C   0  0  0  0  0  0  0  0  0  0  0  0
    6.1220    2.1815    0.0000 C   0  0  0  0  0  0  0  0  0  0  0  0
    7.4604    2.8588    0.0000 O   0  0  0  0  0  0  0  0  0  0  0  0
    4.8662    3.0019    0.0000 C   0  0  0  0  0  0  0  0  0  0  0  0
    3.5279    2.3246    0.0000 C   0  0  0  0  0  0  0  0  0  0  0  0
    3.4453    0.8268    0.0000 C   0  0  0  0  0  0  0  0  0  0  0  0
    2.1895    1.6472    0.0000 C   0  0  0  0  0  0  0  0  0  0  0  0
    2.1069    0.1495    0.0000 C   0  0  0  0  0  0  0  0  0  0  0  0
    0.8511    0.9699    0.0000 C   0  0  0  0  0  0  0  0  0  0  0  0
   -0.4872    0.2925    0.0000 C   0  0  0  0  0  0  0  0  0  0  0  0
   -1.7430    1.1129    0.0000 O   0  0  0  0  0  0  0  0  0  0  0  0
   -0.5698   -1.2052    0.0000 C   0  0  0  0  0  0  0  0  0  0  0  0
   -1.9045   -0.5205    0.0000 C   0  0  0  0  0  0  0  0  0  0  0  0
  2  1  1  6
  2  3  1  0
  3  4  1  0
  4  5  1  0
  5  6  2  0
  5  7  1  0
  7  8  1  0
  7  9  1  0
  2 10  1  0
 10 11  1  6
 11 12  1  0
 13 12  1  6
 13 14  1  0
 14 15  1  1
 15 16  1  6
 15 17  1  0
 18 17  1  1
 18 19  1  0
 19 20  1  0
 20 21  1  1
 20 22  1  0
 22 23  1  0
 23 24  1  0
 24 25  1  6
 24 26  1  0
 26 27  1  6
 27 28  1  0
 28 29  1  6
 28 30  1  0
 30 31  1  6
 30 10  1  0
 30 13  1  0
 26 14  1  0
 24 18  1  0
M  END
>  <MS_ID>  (859) 
MS0895

>  <SMILES>  (859) 
C[C@H](CCC(=O)N(C)C)[C@H]1CC[C@H]2[C@@H]3[C@@H](O)C[C@@H]4C[C@H](O)CC[C@]4(C)[C@H]3C[C@@H](O)[C@]12C

>  <Structure_dimension>  (859) 
2D

$$$$
MS0896
     RDKit          2D

 32 35  0  0  0  0  0  0  0  0999 V2000
   -9.3885    3.6424    0.0000 C   0  0  0  0  0  0  0  0  0  0  0  0
   -8.7975    2.2638    0.0000 C   0  0  0  0  0  0  0  0  0  0  0  0
   -7.3080    2.0863    0.0000 C   0  0  0  0  0  0  0  0  0  0  0  0
   -6.7170    0.7076    0.0000 O   0  0  0  0  0  0  0  0  0  0  0  0
   -5.2276    0.5301    0.0000 C   0  0  0  0  0  0  0  0  0  0  0  0
   -4.3291    1.7312    0.0000 O   0  0  0  0  0  0  0  0  0  0  0  0
   -4.6366   -0.8486    0.0000 C   0  0  0  0  0  0  0  0  0  0  0  0
   -3.1471   -1.0261    0.0000 C   0  0  0  0  0  0  0  0  0  0  0  0
   -2.5561   -2.4048    0.0000 C   0  0  0  0  0  0  0  0  0  0  0  0
   -3.4546   -3.6059    0.0000 C   0  0  0  0  0  0  0  0  0  0  0  0
   -1.0667   -2.5823    0.0000 C   0  0  0  0  0  0  0  0  0  0  0  0
   -0.3348   -3.8917    0.0000 C   0  0  0  0  0  0  0  0  0  0  0  0
    1.1366   -3.6002    0.0000 C   0  0  0  0  0  0  0  0  0  0  0  0
    1.3141   -2.1108    0.0000 C   0  0  0  0  0  0  0  0  0  0  0  0
    2.5398   -1.2460    0.0000 C   0  0  0  0  0  0  0  0  0  0  0  0
    3.9015   -1.8751    0.0000 C   0  0  0  0  0  0  0  0  0  0  0  0
    4.0375   -3.3690    0.0000 O   0  0  0  0  0  0  0  0  0  0  0  0
    5.1272   -1.0104    0.0000 C   0  0  0  0  0  0  0  0  0  0  0  0
    4.9911    0.4834    0.0000 C   0  0  0  0  0  0  0  0  0  0  0  0
    6.2168    1.3481    0.0000 C   0  0  0  0  0  0  0  0  0  0  0  0
    6.0808    2.8419    0.0000 C   0  0  0  0  0  0  0  0  0  0  0  0
    7.3064    3.7067    0.0000 O   0  0  0  0  0  0  0  0  0  0  0  0
    4.7191    3.4710    0.0000 C   0  0  0  0  0  0  0  0  0  0  0  0
    3.4934    2.6063    0.0000 C   0  0  0  0  0  0  0  0  0  0  0  0
    3.6294    1.1125    0.0000 C   0  0  0  0  0  0  0  0  0  0  0  0
    2.2677    1.7416    0.0000 C   0  0  0  0  0  0  0  0  0  0  0  0
    2.4038    0.2478    0.0000 C   0  0  0  0  0  0  0  0  0  0  0  0
    1.0421    0.8769    0.0000 C   0  0  0  0  0  0  0  0  0  0  0  0
   -0.1836    0.0122    0.0000 C   0  0  0  0  0  0  0  0  0  0  0  0
   -1.5453    0.6413    0.0000 O   0  0  0  0  0  0  0  0  0  0  0  0
   -0.0476   -1.4817    0.0000 C   0  0  0  0  0  0  0  0  0  0  0  0
   -1.4676   -0.9983    0.0000 C   0  0  0  0  0  0  0  0  0  0  0  0
  1  2  1  0
  2  3  1  0
  3  4  1  0
  4  5  1  0
  5  6  2  0
  5  7  1  0
  7  8  1  0
  8  9  1  0
  9 10  1  6
  9 11  1  0
 11 12  1  6
 12 13  1  0
 14 13  1  6
 14 15  1  0
 15 16  1  1
 16 17  1  1
 16 18  1  0
 19 18  1  1
 19 20  1  0
 20 21  1  0
 21 22  1  1
 21 23  1  0
 23 24  1  0
 24 25  1  0
 25 26  1  6
 25 27  1  0
 27 28  1  6
 28 29  1  0
 29 30  2  0
 29 31  1  0
 31 32  1  6
 31 11  1  0
 31 14  1  0
 27 15  1  0
 25 19  1  0
M  END
>  <MS_ID>  (860) 
MS0896

>  <SMILES>  (860) 
CCCOC(=O)CC[C@@H](C)[C@H]1CC[C@H]2[C@@H]3[C@H](O)C[C@@H]4C[C@H](O)CC[C@]4(C)[C@H]3CC(=O)[C@]12C

>  <Structure_dimension>  (860) 
2D

$$$$
MS0897
     RDKit          2D

 32 35  0  0  0  0  0  0  0  0999 V2000
   -3.0592   -3.7169    0.0000 C   0  0  0  0  0  0  0  0  0  0  0  0
   -2.1499   -2.5239    0.0000 C   0  0  0  0  0  0  0  0  0  0  0  0
   -2.7284   -1.1399    0.0000 C   0  0  0  0  0  0  0  0  0  0  0  0
   -4.2162   -0.9489    0.0000 C   0  0  0  0  0  0  0  0  0  0  0  0
   -4.7946    0.4350    0.0000 C   0  0  0  0  0  0  0  0  0  0  0  0
   -3.8853    1.6280    0.0000 O   0  0  0  0  0  0  0  0  0  0  0  0
   -6.2824    0.6260    0.0000 C   0  0  0  0  0  0  0  0  0  0  0  0
   -6.8609    2.0100    0.0000 C   0  0  0  0  0  0  0  0  0  0  0  0
   -8.3487    2.2010    0.0000 C   0  0  0  0  0  0  0  0  0  0  0  0
   -9.2580    1.0080    0.0000 O   0  0  0  0  0  0  0  0  0  0  0  0
   -8.9272    3.5850    0.0000 O   0  0  0  0  0  0  0  0  0  0  0  0
   -0.6621   -2.7149    0.0000 C   0  0  0  0  0  0  0  0  0  0  0  0
    0.0579   -4.0308    0.0000 C   0  0  0  0  0  0  0  0  0  0  0  0
    1.5319   -3.7527    0.0000 C   0  0  0  0  0  0  0  0  0  0  0  0
    1.7229   -2.2649    0.0000 C   0  0  0  0  0  0  0  0  0  0  0  0
    2.9563   -1.4114    0.0000 C   0  0  0  0  0  0  0  0  0  0  0  0
    4.3123   -2.0528    0.0000 C   0  0  0  0  0  0  0  0  0  0  0  0
    5.5457   -1.1992    0.0000 C   0  0  0  0  0  0  0  0  0  0  0  0
    5.4232    0.2958    0.0000 C   0  0  0  0  0  0  0  0  0  0  0  0
    6.6567    1.1494    0.0000 C   0  0  0  0  0  0  0  0  0  0  0  0
    6.5342    2.6444    0.0000 C   0  0  0  0  0  0  0  0  0  0  0  0
    7.7676    3.4980    0.0000 O   0  0  0  0  0  0  0  0  0  0  0  0
    5.1782    3.2858    0.0000 C   0  0  0  0  0  0  0  0  0  0  0  0
    3.9448    2.4322    0.0000 C   0  0  0  0  0  0  0  0  0  0  0  0
    4.0673    0.9372    0.0000 C   0  0  0  0  0  0  0  0  0  0  0  0
    2.7113    1.5786    0.0000 C   0  0  0  0  0  0  0  0  0  0  0  0
    2.8338    0.0836    0.0000 C   0  0  0  0  0  0  0  0  0  0  0  0
    1.4779    0.7250    0.0000 C   0  0  0  0  0  0  0  0  0  0  0  0
    0.2444   -0.1285    0.0000 C   0  0  0  0  0  0  0  0  0  0  0  0
   -1.1115    0.5129    0.0000 O   0  0  0  0  0  0  0  0  0  0  0  0
    0.3669   -1.6235    0.0000 C   0  0  0  0  0  0  0  0  0  0  0  0
   -1.0486   -1.1274    0.0000 C   0  0  0  0  0  0  0  0  0  0  0  0
  2  1  1  6
  2  3  1  0
  3  4  1  0
  4  5  1  0
  5  6  2  0
  5  7  1  0
  7  8  1  0
  8  9  1  0
  9 10  2  0
  9 11  1  0
  2 12  1  0
 12 13  1  6
 13 14  1  0
 15 14  1  6
 15 16  1  0
 16 17  1  1
 17 18  1  0
 19 18  1  1
 19 20  1  0
 20 21  1  0
 21 22  1  6
 21 23  1  0
 23 24  1  0
 24 25  1  0
 25 26  1  6
 25 27  1  0
 27 28  1  6
 28 29  1  0
 29 30  1  1
 29 31  1  0
 31 32  1  6
 31 12  1  0
 31 15  1  0
 27 16  1  0
 25 19  1  0
M  END
>  <MS_ID>  (861) 
MS0897

>  <SMILES>  (861) 
C[C@H](CCC(=O)CCC(=O)O)[C@H]1CC[C@H]2[C@@H]3CC[C@@H]4C[C@@H](O)CC[C@]4(C)[C@H]3C[C@H](O)[C@]12C

>  <Structure_dimension>  (861) 
2D

$$$$
MS0898
     RDKit          2D

 29 32  0  0  0  0  0  0  0  0999 V2000
   -4.5534   -2.6812    0.0000 C   0  0  0  0  0  0  0  0  0  0  0  0
   -3.4378   -1.6786    0.0000 C   0  0  0  0  0  0  0  0  0  0  0  0
   -3.7483   -0.2111    0.0000 C   0  0  0  0  0  0  0  0  0  0  0  0
   -5.1744    0.2538    0.0000 C   0  0  0  0  0  0  0  0  0  0  0  0
   -5.4850    1.7213    0.0000 C   0  0  0  0  0  0  0  0  0  0  0  0
   -4.3693    2.7239    0.0000 O   0  0  0  0  0  0  0  0  0  0  0  0
   -6.9111    2.1861    0.0000 C   0  0  0  0  0  0  0  0  0  0  0  0
   -7.2216    3.6536    0.0000 N   0  0  0  0  0  0  0  0  0  0  0  0
   -2.0116   -2.1434    0.0000 C   0  0  0  0  0  0  0  0  0  0  0  0
   -1.5494   -3.5704    0.0000 C   0  0  0  0  0  0  0  0  0  0  0  0
   -0.0494   -3.5718    0.0000 C   0  0  0  0  0  0  0  0  0  0  0  0
    0.4155   -2.1456    0.0000 C   0  0  0  0  0  0  0  0  0  0  0  0
    1.7863   -1.5368    0.0000 C   0  0  0  0  0  0  0  0  0  0  0  0
    2.9990   -2.4196    0.0000 C   0  0  0  0  0  0  0  0  0  0  0  0
    4.3699   -1.8107    0.0000 C   0  0  0  0  0  0  0  0  0  0  0  0
    4.5281   -0.3191    0.0000 C   0  0  0  0  0  0  0  0  0  0  0  0
    5.8990    0.2898    0.0000 C   0  0  0  0  0  0  0  0  0  0  0  0
    6.0571    1.7814    0.0000 C   0  0  0  0  0  0  0  0  0  0  0  0
    7.4280    2.3902    0.0000 O   0  0  0  0  0  0  0  0  0  0  0  0
    4.8444    2.6642    0.0000 C   0  0  0  0  0  0  0  0  0  0  0  0
    3.4735    2.0553    0.0000 C   0  0  0  0  0  0  0  0  0  0  0  0
    3.3154    0.5637    0.0000 C   0  0  0  0  0  0  0  0  0  0  0  0
    2.1026    1.4465    0.0000 C   0  0  0  0  0  0  0  0  0  0  0  0
    1.9445   -0.0451    0.0000 C   0  0  0  0  0  0  0  0  0  0  0  0
    0.7318    0.8376    0.0000 C   0  0  0  0  0  0  0  0  0  0  0  0
   -0.6391    0.2288    0.0000 C   0  0  0  0  0  0  0  0  0  0  0  0
   -1.8518    1.1116    0.0000 O   0  0  0  0  0  0  0  0  0  0  0  0
   -0.7973   -1.2628    0.0000 C   0  0  0  0  0  0  0  0  0  0  0  0
   -2.0956   -0.5116    0.0000 C   0  0  0  0  0  0  0  0  0  0  0  0
  2  1  1  6
  2  3  1  0
  3  4  1  0
  4  5  1  0
  5  6  2  0
  5  7  1  0
  7  8  1  0
  2  9  1  0
  9 10  1  6
 10 11  1  0
 12 11  1  6
 12 13  1  0
 13 14  1  1
 14 15  1  0
 16 15  1  1
 16 17  1  0
 17 18  1  0
 18 19  1  1
 18 20  1  0
 20 21  1  0
 21 22  1  0
 22 23  1  6
 22 24  1  0
 24 25  1  6
 25 26  1  0
 26 27  1  1
 26 28  1  0
 28 29  1  6
 28  9  1  0
 28 12  1  0
 24 13  1  0
 22 16  1  0
M  END
>  <MS_ID>  (862) 
MS0898

>  <SMILES>  (862) 
C[C@H](CCC(=O)CN)[C@H]1CC[C@H]2[C@@H]3CC[C@@H]4C[C@H](O)CC[C@]4(C)[C@H]3C[C@H](O)[C@]12C

>  <Structure_dimension>  (862) 
2D

$$$$
MS0899
     RDKit          2D

 29 32  0  0  0  0  0  0  0  0999 V2000
   -4.5534   -2.6812    0.0000 C   0  0  0  0  0  0  0  0  0  0  0  0
   -3.4378   -1.6786    0.0000 C   0  0  0  0  0  0  0  0  0  0  0  0
   -3.7483   -0.2111    0.0000 C   0  0  0  0  0  0  0  0  0  0  0  0
   -5.1744    0.2538    0.0000 C   0  0  0  0  0  0  0  0  0  0  0  0
   -5.4850    1.7213    0.0000 C   0  0  0  0  0  0  0  0  0  0  0  0
   -4.3693    2.7239    0.0000 O   0  0  0  0  0  0  0  0  0  0  0  0
   -6.9111    2.1861    0.0000 N   0  0  0  0  0  0  0  0  0  0  0  0
   -7.2216    3.6536    0.0000 O   0  0  0  0  0  0  0  0  0  0  0  0
   -2.0116   -2.1434    0.0000 C   0  0  0  0  0  0  0  0  0  0  0  0
   -1.5494   -3.5704    0.0000 C   0  0  0  0  0  0  0  0  0  0  0  0
   -0.0494   -3.5718    0.0000 C   0  0  0  0  0  0  0  0  0  0  0  0
    0.4155   -2.1456    0.0000 C   0  0  0  0  0  0  0  0  0  0  0  0
    1.7863   -1.5368    0.0000 C   0  0  0  0  0  0  0  0  0  0  0  0
    2.9990   -2.4196    0.0000 C   0  0  0  0  0  0  0  0  0  0  0  0
    4.3699   -1.8107    0.0000 C   0  0  0  0  0  0  0  0  0  0  0  0
    4.5281   -0.3191    0.0000 C   0  0  0  0  0  0  0  0  0  0  0  0
    5.8990    0.2898    0.0000 C   0  0  0  0  0  0  0  0  0  0  0  0
    6.0571    1.7814    0.0000 C   0  0  0  0  0  0  0  0  0  0  0  0
    7.4280    2.3902    0.0000 O   0  0  0  0  0  0  0  0  0  0  0  0
    4.8444    2.6642    0.0000 C   0  0  0  0  0  0  0  0  0  0  0  0
    3.4735    2.0553    0.0000 C   0  0  0  0  0  0  0  0  0  0  0  0
    3.3154    0.5637    0.0000 C   0  0  0  0  0  0  0  0  0  0  0  0
    2.1026    1.4465    0.0000 C   0  0  0  0  0  0  0  0  0  0  0  0
    1.9445   -0.0451    0.0000 C   0  0  0  0  0  0  0  0  0  0  0  0
    0.7318    0.8376    0.0000 C   0  0  0  0  0  0  0  0  0  0  0  0
   -0.6391    0.2288    0.0000 C   0  0  0  0  0  0  0  0  0  0  0  0
   -1.8518    1.1116    0.0000 O   0  0  0  0  0  0  0  0  0  0  0  0
   -0.7973   -1.2628    0.0000 C   0  0  0  0  0  0  0  0  0  0  0  0
   -2.0956   -0.5116    0.0000 C   0  0  0  0  0  0  0  0  0  0  0  0
  2  1  1  6
  2  3  1  0
  3  4  1  0
  4  5  1  0
  5  6  2  0
  5  7  1  0
  7  8  1  0
  2  9  1  0
  9 10  1  6
 10 11  1  0
 12 11  1  6
 12 13  1  0
 13 14  1  1
 14 15  1  0
 16 15  1  1
 16 17  1  0
 17 18  1  0
 18 19  1  1
 18 20  1  0
 20 21  1  0
 21 22  1  0
 22 23  1  6
 22 24  1  0
 24 25  1  6
 25 26  1  0
 26 27  2  0
 26 28  1  0
 28 29  1  6
 28  9  1  0
 28 12  1  0
 24 13  1  0
 22 16  1  0
M  END
>  <MS_ID>  (863) 
MS0899

>  <SMILES>  (863) 
C[C@H](CCC(=O)NO)[C@H]1CC[C@H]2[C@@H]3CC[C@@H]4C[C@H](O)CC[C@]4(C)[C@H]3CC(=O)[C@]12C

>  <Structure_dimension>  (863) 
2D

$$$$
MS0900
     RDKit          2D

 31 34  0  0  0  0  0  0  0  0999 V2000
   -2.7019   -3.6997    0.0000 C   0  0  0  0  0  0  0  0  0  0  0  0
   -1.8903   -2.4382    0.0000 C   0  0  0  0  0  0  0  0  0  0  0  0
   -2.5770   -1.1046    0.0000 C   0  0  0  0  0  0  0  0  0  0  0  0
   -4.0753   -1.0325    0.0000 C   0  0  0  0  0  0  0  0  0  0  0  0
   -4.7620    0.3011    0.0000 C   0  0  0  0  0  0  0  0  0  0  0  0
   -3.9505    1.5626    0.0000 O   0  0  0  0  0  0  0  0  0  0  0  0
   -6.2603    0.3731    0.0000 C   0  0  0  0  0  0  0  0  0  0  0  0
   -6.9470    1.7067    0.0000 C   0  0  0  0  0  0  0  0  0  0  0  0
   -8.4453    1.7788    0.0000 C   0  0  0  0  0  0  0  0  0  0  0  0
   -9.2568    0.5173    0.0000 O   0  0  0  0  0  0  0  0  0  0  0  0
   -9.1320    3.1123    0.0000 O   0  0  0  0  0  0  0  0  0  0  0  0
   -0.3920   -2.5102    0.0000 C   0  0  0  0  0  0  0  0  0  0  0  0
    0.4303   -3.7647    0.0000 C   0  0  0  0  0  0  0  0  0  0  0  0
    1.8775   -3.3703    0.0000 C   0  0  0  0  0  0  0  0  0  0  0  0
    1.9496   -1.8720    0.0000 C   0  0  0  0  0  0  0  0  0  0  0  0
    3.1112   -0.9230    0.0000 C   0  0  0  0  0  0  0  0  0  0  0  0
    4.5139   -1.4545    0.0000 C   0  0  0  0  0  0  0  0  0  0  0  0
    4.7549   -2.9351    0.0000 O   0  0  0  0  0  0  0  0  0  0  0  0
    5.6756   -0.5056    0.0000 C   0  0  0  0  0  0  0  0  0  0  0  0
    5.4345    0.9750    0.0000 C   0  0  0  0  0  0  0  0  0  0  0  0
    6.5962    1.9239    0.0000 C   0  0  0  0  0  0  0  0  0  0  0  0
    6.3552    3.4044    0.0000 C   0  0  0  0  0  0  0  0  0  0  0  0
    4.9525    3.9360    0.0000 C   0  0  0  0  0  0  0  0  0  0  0  0
    3.7909    2.9870    0.0000 C   0  0  0  0  0  0  0  0  0  0  0  0
    4.0319    1.5065    0.0000 C   0  0  0  0  0  0  0  0  0  0  0  0
    2.6292    2.0380    0.0000 C   0  0  0  0  0  0  0  0  0  0  0  0
    2.8702    0.5575    0.0000 C   0  0  0  0  0  0  0  0  0  0  0  0
    1.4676    1.0890    0.0000 C   0  0  0  0  0  0  0  0  0  0  0  0
    0.3059    0.1401    0.0000 C   0  0  0  0  0  0  0  0  0  0  0  0
    0.5469   -1.3405    0.0000 C   0  0  0  0  0  0  0  0  0  0  0  0
   -0.9036   -0.9585    0.0000 C   0  0  0  0  0  0  0  0  0  0  0  0
  2  1  1  6
  2  3  1  0
  3  4  1  0
  4  5  1  0
  5  6  2  0
  5  7  1  0
  7  8  1  0
  8  9  1  0
  9 10  2  0
  9 11  1  0
  2 12  1  0
 12 13  1  6
 13 14  1  0
 15 14  1  6
 15 16  1  0
 16 17  1  1
 17 18  1  6
 17 19  1  0
 20 19  1  1
 20 21  1  0
 21 22  1  0
 22 23  1  0
 23 24  1  0
 24 25  1  0
 25 26  1  6
 25 27  1  0
 27 28  1  6
 28 29  1  0
 29 30  1  0
 30 31  1  6
 30 12  1  0
 30 15  1  0
 27 16  1  0
 25 20  1  0
M  END
>  <MS_ID>  (864) 
MS0900

>  <SMILES>  (864) 
C[C@H](CCC(=O)CCC(=O)O)[C@H]1CC[C@H]2[C@@H]3[C@@H](O)C[C@@H]4CCCC[C@]4(C)[C@H]3CC[C@]12C

>  <Structure_dimension>  (864) 
2D

$$$$
MS0901
     RDKit          2D

 31 34  0  0  0  0  0  0  0  0999 V2000
   -3.4301   -3.6172    0.0000 C   0  0  0  0  0  0  0  0  0  0  0  0
   -2.4973   -2.4425    0.0000 C   0  0  0  0  0  0  0  0  0  0  0  0
   -3.0483   -1.0473    0.0000 C   0  0  0  0  0  0  0  0  0  0  0  0
   -4.5321   -0.8270    0.0000 C   0  0  0  0  0  0  0  0  0  0  0  0
   -5.0831    0.5682    0.0000 C   0  0  0  0  0  0  0  0  0  0  0  0
   -4.1503    1.7429    0.0000 O   0  0  0  0  0  0  0  0  0  0  0  0
   -6.5668    0.7886    0.0000 N   0  0  0  0  0  0  0  0  0  0  0  0
   -7.1178    2.1837    0.0000 C   0  0  0  0  0  0  0  0  0  0  0  0
   -8.6015    2.4041    0.0000 C   0  0  0  0  0  0  0  0  0  0  0  0
   -9.1525    3.7992    0.0000 O   0  0  0  0  0  0  0  0  0  0  0  0
   -1.0136   -2.6629    0.0000 C   0  0  0  0  0  0  0  0  0  0  0  0
   -0.3198   -3.9928    0.0000 C   0  0  0  0  0  0  0  0  0  0  0  0
    1.1594   -3.7439    0.0000 C   0  0  0  0  0  0  0  0  0  0  0  0
    1.3798   -2.2602    0.0000 C   0  0  0  0  0  0  0  0  0  0  0  0
    2.6299   -1.4311    0.0000 C   0  0  0  0  0  0  0  0  0  0  0  0
    3.9729   -2.0992    0.0000 C   0  0  0  0  0  0  0  0  0  0  0  0
    5.2230   -1.2702    0.0000 C   0  0  0  0  0  0  0  0  0  0  0  0
    5.1301    0.2269    0.0000 C   0  0  0  0  0  0  0  0  0  0  0  0
    6.3802    1.0559    0.0000 C   0  0  0  0  0  0  0  0  0  0  0  0
    6.2872    2.5531    0.0000 C   0  0  0  0  0  0  0  0  0  0  0  0
    7.5373    3.3821    0.0000 O   0  0  0  0  0  0  0  0  0  0  0  0
    4.9442    3.2212    0.0000 C   0  0  0  0  0  0  0  0  0  0  0  0
    3.6942    2.3921    0.0000 C   0  0  0  0  0  0  0  0  0  0  0  0
    3.7871    0.8950    0.0000 C   0  0  0  0  0  0  0  0  0  0  0  0
    2.4441    1.5631    0.0000 C   0  0  0  0  0  0  0  0  0  0  0  0
    2.5370    0.0660    0.0000 C   0  0  0  0  0  0  0  0  0  0  0  0
    1.1940    0.7341    0.0000 C   0  0  0  0  0  0  0  0  0  0  0  0
   -0.0561   -0.0949    0.0000 C   0  0  0  0  0  0  0  0  0  0  0  0
   -1.3991    0.5732    0.0000 O   0  0  0  0  0  0  0  0  0  0  0  0
    0.0368   -1.5921    0.0000 C   0  0  0  0  0  0  0  0  0  0  0  0
   -1.3687   -1.0680    0.0000 C   0  0  0  0  0  0  0  0  0  0  0  0
  2  1  1  6
  2  3  1  0
  3  4  1  0
  4  5  1  0
  5  6  2  0
  5  7  1  0
  7  8  1  0
  8  9  1  0
  9 10  1  0
  2 11  1  0
 11 12  1  6
 12 13  1  0
 14 13  1  6
 14 15  1  0
 15 16  1  1
 16 17  1  0
 18 17  1  1
 18 19  1  0
 19 20  1  0
 20 21  1  1
 20 22  1  0
 22 23  1  0
 23 24  1  0
 24 25  1  6
 24 26  1  0
 26 27  1  6
 27 28  1  0
 28 29  2  0
 28 30  1  0
 30 31  1  6
 30 11  1  0
 30 14  1  0
 26 15  1  0
 24 18  1  0
M  END
>  <MS_ID>  (865) 
MS0901

>  <SMILES>  (865) 
C[C@H](CCC(=O)NCCO)[C@H]1CC[C@H]2[C@@H]3CC[C@@H]4C[C@H](O)CC[C@]4(C)[C@H]3CC(=O)[C@]12C

>  <Structure_dimension>  (865) 
2D

$$$$
MS0902
     RDKit          2D

 33 36  0  0  0  0  0  0  0  0999 V2000
   -5.0246   -2.6773    0.0000 C   0  0  0  0  0  0  0  0  0  0  0  0
   -4.0826   -1.5100    0.0000 C   0  0  0  0  0  0  0  0  0  0  0  0
   -4.6226   -0.1105    0.0000 C   0  0  0  0  0  0  0  0  0  0  0  0
   -6.1045    0.1216    0.0000 C   0  0  0  0  0  0  0  0  0  0  0  0
   -6.6444    1.5210    0.0000 C   0  0  0  0  0  0  0  0  0  0  0  0
   -5.7025    2.6884    0.0000 O   0  0  0  0  0  0  0  0  0  0  0  0
   -8.1264    1.7531    0.0000 O   0  0  0  0  0  0  0  0  0  0  0  0
   -2.6007   -1.7421    0.0000 C   0  0  0  0  0  0  0  0  0  0  0  0
   -1.9174   -3.0774    0.0000 C   0  0  0  0  0  0  0  0  0  0  0  0
   -0.4363   -2.8402    0.0000 C   0  0  0  0  0  0  0  0  0  0  0  0
   -0.2042   -1.3583    0.0000 C   0  0  0  0  0  0  0  0  0  0  0  0
    1.0525   -0.5392    0.0000 C   0  0  0  0  0  0  0  0  0  0  0  0
    2.3901   -1.2179    0.0000 C   0  0  0  0  0  0  0  0  0  0  0  0
    2.4712   -2.7157    0.0000 O   0  0  0  0  0  0  0  0  0  0  0  0
    3.8089   -3.3944    0.0000 S   0  0  0  0  0  0  0  0  0  0  0  0
    4.4876   -2.0567    0.0000 O   0  0  0  0  0  0  0  0  0  0  0  0
    3.1302   -4.7321    0.0000 O   0  0  0  0  0  0  0  0  0  0  0  0
    5.1465   -4.0731    0.0000 O   0  0  0  0  0  0  0  0  0  0  0  0
    3.6467   -0.3988    0.0000 C   0  0  0  0  0  0  0  0  0  0  0  0
    3.5657    1.0990    0.0000 C   0  0  0  0  0  0  0  0  0  0  0  0
    4.8223    1.9182    0.0000 C   0  0  0  0  0  0  0  0  0  0  0  0
    4.7412    3.4160    0.0000 C   0  0  0  0  0  0  0  0  0  0  0  0
    5.9978    4.2351    0.0000 O   0  0  0  0  0  0  0  0  0  0  0  0
    3.4035    4.0947    0.0000 C   0  0  0  0  0  0  0  0  0  0  0  0
    2.1469    3.2755    0.0000 C   0  0  0  0  0  0  0  0  0  0  0  0
    2.2280    1.7777    0.0000 C   0  0  0  0  0  0  0  0  0  0  0  0
    0.8903    2.4564    0.0000 C   0  0  0  0  0  0  0  0  0  0  0  0
    0.9714    0.9586    0.0000 C   0  0  0  0  0  0  0  0  0  0  0  0
   -0.3663    1.6373    0.0000 C   0  0  0  0  0  0  0  0  0  0  0  0
   -1.6229    0.8182    0.0000 C   0  0  0  0  0  0  0  0  0  0  0  0
   -2.9606    1.4969    0.0000 O   0  0  0  0  0  0  0  0  0  0  0  0
   -1.5418   -0.6796    0.0000 C   0  0  0  0  0  0  0  0  0  0  0  0
   -2.9431   -0.1445    0.0000 C   0  0  0  0  0  0  0  0  0  0  0  0
  2  1  1  6
  2  3  1  0
  3  4  1  0
  4  5  1  0
  5  6  2  0
  5  7  1  0
  2  8  1  0
  8  9  1  6
  9 10  1  0
 11 10  1  6
 11 12  1  0
 12 13  1  1
 13 14  1  6
 14 15  1  0
 15 16  2  0
 15 17  2  0
 15 18  1  0
 13 19  1  0
 20 19  1  1
 20 21  1  0
 21 22  1  0
 22 23  1  6
 22 24  1  0
 24 25  1  0
 25 26  1  0
 26 27  1  6
 26 28  1  0
 28 29  1  6
 29 30  1  0
 30 31  1  1
 30 32  1  0
 32 33  1  6
 32  8  1  0
 32 11  1  0
 28 12  1  0
 26 20  1  0
M  END
>  <MS_ID>  (866) 
MS0902

>  <SMILES>  (866) 
C[C@H](CCC(=O)O)[C@H]1CC[C@H]2[C@@H]3[C@@H](OS(=O)(=O)O)C[C@@H]4C[C@@H](O)CC[C@]4(C)[C@H]3C[C@H](O)[C@]12C

>  <Structure_dimension>  (866) 
2D

$$$$
MS0903
     RDKit          2D

 35 38  0  0  0  0  0  0  0  0999 V2000
   -1.1848   -4.5684    0.0000 C   0  0  0  0  0  0  0  0  0  0  0  0
   -0.5815   -3.1951    0.0000 C   0  0  0  0  0  0  0  0  0  0  0  0
   -1.4692   -1.9860    0.0000 C   0  0  0  0  0  0  0  0  0  0  0  0
   -2.9602   -2.1502    0.0000 C   0  0  0  0  0  0  0  0  0  0  0  0
   -3.8478   -0.9410    0.0000 C   0  0  0  0  0  0  0  0  0  0  0  0
   -3.2445    0.4323    0.0000 O   0  0  0  0  0  0  0  0  0  0  0  0
   -5.3388   -1.1052    0.0000 N   0  0  0  0  0  0  0  0  0  0  0  0
   -6.2265    0.1039    0.0000 C   0  0  0  0  0  0  0  0  0  0  0  0
   -7.7175   -0.0603    0.0000 C   0  0  0  0  0  0  0  0  0  0  0  0
   -8.6052    1.1489    0.0000 N   0  0  0  0  0  0  0  0  0  0  0  0
  -10.0962    0.9847    0.0000 C   0  0  0  0  0  0  0  0  0  0  0  0
  -10.9839    2.1938    0.0000 C   0  0  0  0  0  0  0  0  0  0  0  0
  -10.3806    3.5672    0.0000 O   0  0  0  0  0  0  0  0  0  0  0  0
  -12.4748    2.0297    0.0000 O   0  0  0  0  0  0  0  0  0  0  0  0
    0.9095   -3.0309    0.0000 C   0  0  0  0  0  0  0  0  0  0  0  0
    1.9187   -4.1407    0.0000 C   0  0  0  0  0  0  0  0  0  0  0  0
    3.2860   -3.5238    0.0000 C   0  0  0  0  0  0  0  0  0  0  0  0
    3.1218   -2.0328    0.0000 C   0  0  0  0  0  0  0  0  0  0  0  0
    4.1199   -0.9131    0.0000 C   0  0  0  0  0  0  0  0  0  0  0  0
    5.5887   -1.2177    0.0000 C   0  0  0  0  0  0  0  0  0  0  0  0
    6.0593   -2.6420    0.0000 O   0  0  0  0  0  0  0  0  0  0  0  0
    6.5869   -0.0980    0.0000 C   0  0  0  0  0  0  0  0  0  0  0  0
    6.1163    1.3263    0.0000 C   0  0  0  0  0  0  0  0  0  0  0  0
    7.1144    2.4459    0.0000 C   0  0  0  0  0  0  0  0  0  0  0  0
    6.6438    3.8702    0.0000 C   0  0  0  0  0  0  0  0  0  0  0  0
    7.6420    4.9899    0.0000 O   0  0  0  0  0  0  0  0  0  0  0  0
    5.1751    4.1748    0.0000 C   0  0  0  0  0  0  0  0  0  0  0  0
    4.1769    3.0551    0.0000 C   0  0  0  0  0  0  0  0  0  0  0  0
    4.6475    1.6309    0.0000 C   0  0  0  0  0  0  0  0  0  0  0  0
    3.1788    1.9354    0.0000 C   0  0  0  0  0  0  0  0  0  0  0  0
    3.6494    0.5112    0.0000 C   0  0  0  0  0  0  0  0  0  0  0  0
    2.1806    0.8158    0.0000 C   0  0  0  0  0  0  0  0  0  0  0  0
    1.1825   -0.3039    0.0000 C   0  0  0  0  0  0  0  0  0  0  0  0
    1.6530   -1.7282    0.0000 C   0  0  0  0  0  0  0  0  0  0  0  0
    0.1605   -1.5788    0.0000 C   0  0  0  0  0  0  0  0  0  0  0  0
  2  1  1  6
  2  3  1  0
  3  4  1  0
  4  5  1  0
  5  6  2  0
  5  7  1  0
  7  8  1  0
  8  9  1  0
  9 10  1  0
 10 11  1  0
 11 12  1  0
 12 13  2  0
 12 14  1  0
  2 15  1  0
 15 16  1  6
 16 17  1  0
 18 17  1  6
 18 19  1  0
 19 20  1  1
 20 21  1  6
 20 22  1  0
 23 22  1  1
 23 24  1  0
 24 25  1  0
 25 26  1  1
 25 27  1  0
 27 28  1  0
 28 29  1  0
 29 30  1  6
 29 31  1  0
 31 32  1  6
 32 33  1  0
 33 34  1  0
 34 35  1  6
 34 15  1  0
 34 18  1  0
 31 19  1  0
 29 23  1  0
M  END
>  <MS_ID>  (867) 
MS0903

>  <SMILES>  (867) 
C[C@H](CCC(=O)NCCNCC(=O)O)[C@H]1CC[C@H]2[C@@H]3[C@@H](O)C[C@@H]4C[C@H](O)CC[C@]4(C)[C@H]3CC[C@]12C

>  <Structure_dimension>  (867) 
2D

$$$$
MS0904
     RDKit          2D

 35 39  0  0  0  0  0  0  0  0999 V2000
   -2.4249   -4.3282    0.0000 C   0  0  0  0  0  0  0  0  0  0  0  0
   -1.7208   -3.0038    0.0000 C   0  0  0  0  0  0  0  0  0  0  0  0
   -2.5157   -1.7317    0.0000 C   0  0  0  0  0  0  0  0  0  0  0  0
   -4.0147   -1.7841    0.0000 C   0  0  0  0  0  0  0  0  0  0  0  0
   -4.8097   -0.5121    0.0000 C   0  0  0  0  0  0  0  0  0  0  0  0
   -4.1055    0.8124    0.0000 O   0  0  0  0  0  0  0  0  0  0  0  0
   -6.3087   -0.5645    0.0000 N   0  0  0  0  0  0  0  0  0  0  0  0
   -7.1037    0.7076    0.0000 C   0  0  0  0  0  0  0  0  0  0  0  0
   -6.3995    2.0320    0.0000 C   0  0  0  0  0  0  0  0  0  0  0  0
   -7.1944    3.3041    0.0000 C   0  0  0  0  0  0  0  0  0  0  0  0
   -8.6935    3.2517    0.0000 N   0  0  0  0  0  0  0  0  0  0  0  0
   -9.3977    1.9272    0.0000 C   0  0  0  0  0  0  0  0  0  0  0  0
   -8.6027    0.6552    0.0000 C   0  0  0  0  0  0  0  0  0  0  0  0
   -0.2217   -2.9514    0.0000 C   0  0  0  0  0  0  0  0  0  0  0  0
    0.7019   -4.1334    0.0000 C   0  0  0  0  0  0  0  0  0  0  0  0
    2.1114   -3.6203    0.0000 C   0  0  0  0  0  0  0  0  0  0  0  0
    2.0590   -2.1213    0.0000 C   0  0  0  0  0  0  0  0  0  0  0  0
    3.1380   -1.0792    0.0000 C   0  0  0  0  0  0  0  0  0  0  0  0
    4.5799   -1.4927    0.0000 C   0  0  0  0  0  0  0  0  0  0  0  0
    4.9428   -2.9481    0.0000 O   0  0  0  0  0  0  0  0  0  0  0  0
    5.6589   -0.4506    0.0000 C   0  0  0  0  0  0  0  0  0  0  0  0
    7.1008   -0.8641    0.0000 O   0  0  0  0  0  0  0  0  0  0  0  0
    5.2959    1.0048    0.0000 C   0  0  0  0  0  0  0  0  0  0  0  0
    6.3749    2.0468    0.0000 C   0  0  0  0  0  0  0  0  0  0  0  0
    6.0120    3.5022    0.0000 C   0  0  0  0  0  0  0  0  0  0  0  0
    7.0910    4.5443    0.0000 O   0  0  0  0  0  0  0  0  0  0  0  0
    4.5701    3.9157    0.0000 C   0  0  0  0  0  0  0  0  0  0  0  0
    3.4911    2.8736    0.0000 C   0  0  0  0  0  0  0  0  0  0  0  0
    3.8540    1.4182    0.0000 C   0  0  0  0  0  0  0  0  0  0  0  0
    2.4121    1.8316    0.0000 C   0  0  0  0  0  0  0  0  0  0  0  0
    2.7751    0.3762    0.0000 C   0  0  0  0  0  0  0  0  0  0  0  0
    1.3332    0.7896    0.0000 C   0  0  0  0  0  0  0  0  0  0  0  0
    0.2542   -0.2524    0.0000 C   0  0  0  0  0  0  0  0  0  0  0  0
    0.6171   -1.7078    0.0000 C   0  0  0  0  0  0  0  0  0  0  0  0
   -0.8601   -1.4474    0.0000 C   0  0  0  0  0  0  0  0  0  0  0  0
  2  1  1  6
  2  3  1  0
  3  4  1  0
  4  5  1  0
  5  6  2  0
  5  7  1  0
  7  8  1  0
  8  9  2  0
  9 10  1  0
 10 11  2  0
 11 12  1  0
 12 13  2  0
  2 14  1  0
 14 15  1  6
 15 16  1  0
 17 16  1  6
 17 18  1  0
 18 19  1  1
 19 20  1  1
 19 21  1  0
 21 22  1  1
 21 23  1  0
 23 24  1  1
 24 25  1  0
 25 26  1  1
 25 27  1  0
 27 28  1  0
 28 29  1  0
 29 30  1  6
 29 31  1  0
 31 32  1  6
 32 33  1  0
 33 34  1  0
 34 35  1  6
 13  8  1  0
 34 14  1  0
 34 17  1  0
 31 18  1  0
 29 23  1  0
M  END
>  <MS_ID>  (868) 
MS0904

>  <SMILES>  (868) 
C[C@H](CCC(=O)Nc1ccncc1)[C@H]1CC[C@H]2[C@@H]3[C@H](O)[C@H](O)[C@@H]4C[C@H](O)CC[C@]4(C)[C@H]3CC[C@]12C

>  <Structure_dimension>  (868) 
2D

$$$$
MS0905
     RDKit          2D

 30 33  0  0  0  0  0  0  0  0999 V2000
   -5.0361   -2.2421    0.0000 C   0  0  0  0  0  0  0  0  0  0  0  0
   -3.9151   -1.2454    0.0000 C   0  0  0  0  0  0  0  0  0  0  0  0
   -4.2177    0.2237    0.0000 C   0  0  0  0  0  0  0  0  0  0  0  0
   -5.6413    0.6963    0.0000 C   0  0  0  0  0  0  0  0  0  0  0  0
   -5.9439    2.1654    0.0000 C   0  0  0  0  0  0  0  0  0  0  0  0
   -4.8228    3.1621    0.0000 O   0  0  0  0  0  0  0  0  0  0  0  0
   -7.3675    2.6380    0.0000 O   0  0  0  0  0  0  0  0  0  0  0  0
   -2.4915   -1.7180    0.0000 C   0  0  0  0  0  0  0  0  0  0  0  0
   -2.0370   -3.1475    0.0000 C   0  0  0  0  0  0  0  0  0  0  0  0
   -0.5370   -3.1570    0.0000 C   0  0  0  0  0  0  0  0  0  0  0  0
   -0.0645   -1.7333    0.0000 C   0  0  0  0  0  0  0  0  0  0  0  0
    1.3097   -1.1319    0.0000 C   0  0  0  0  0  0  0  0  0  0  0  0
    2.5176   -2.0213    0.0000 C   0  0  0  0  0  0  0  0  0  0  0  0
    2.3514   -3.5120    0.0000 C   0  0  0  0  0  0  0  0  0  0  0  0
    3.5593   -4.4014    0.0000 O   0  0  0  0  0  0  0  0  0  0  0  0
    3.8918   -1.4198    0.0000 C   0  0  0  0  0  0  0  0  0  0  0  0
    4.0580    0.0709    0.0000 C   0  0  0  0  0  0  0  0  0  0  0  0
    5.4321    0.6723    0.0000 C   0  0  0  0  0  0  0  0  0  0  0  0
    5.5984    2.1631    0.0000 C   0  0  0  0  0  0  0  0  0  0  0  0
    6.9725    2.7645    0.0000 O   0  0  0  0  0  0  0  0  0  0  0  0
    4.3904    3.0524    0.0000 C   0  0  0  0  0  0  0  0  0  0  0  0
    3.0163    2.4510    0.0000 C   0  0  0  0  0  0  0  0  0  0  0  0
    2.8501    0.9603    0.0000 C   0  0  0  0  0  0  0  0  0  0  0  0
    1.6421    1.8496    0.0000 C   0  0  0  0  0  0  0  0  0  0  0  0
    1.4759    0.3588    0.0000 C   0  0  0  0  0  0  0  0  0  0  0  0
    0.2680    1.2482    0.0000 C   0  0  0  0  0  0  0  0  0  0  0  0
   -1.1062    0.6468    0.0000 C   0  0  0  0  0  0  0  0  0  0  0  0
   -2.3141    1.5361    0.0000 O   0  0  0  0  0  0  0  0  0  0  0  0
   -1.2724   -0.8440    0.0000 C   0  0  0  0  0  0  0  0  0  0  0  0
   -2.5667   -0.0858    0.0000 C   0  0  0  0  0  0  0  0  0  0  0  0
  2  1  1  6
  2  3  1  0
  3  4  1  0
  4  5  1  0
  5  6  2  0
  5  7  1  0
  2  8  1  0
  8  9  1  6
  9 10  1  0
 11 10  1  6
 11 12  1  0
 12 13  1  1
 13 14  1  1
 14 15  1  0
 13 16  1  0
 17 16  1  1
 17 18  1  0
 18 19  1  0
 19 20  1  1
 19 21  1  0
 21 22  1  0
 22 23  1  0
 23 24  1  6
 23 25  1  0
 25 26  1  6
 26 27  1  0
 27 28  1  6
 27 29  1  0
 29 30  1  6
 29  8  1  0
 29 11  1  0
 25 12  1  0
 23 17  1  0
M  END
>  <MS_ID>  (869) 
MS0905

>  <SMILES>  (869) 
C[C@H](CCC(=O)O)[C@H]1CC[C@H]2[C@@H]3[C@H](CO)C[C@@H]4C[C@H](O)CC[C@]4(C)[C@H]3C[C@@H](O)[C@]12C

>  <Structure_dimension>  (869) 
2D

$$$$
MS0906
     RDKit          2D

 30 33  0  0  0  0  0  0  0  0999 V2000
   -5.3676   -2.0337    0.0000 C   0  0  0  0  0  0  0  0  0  0  0  0
   -4.1713   -1.1288    0.0000 C   0  0  0  0  0  0  0  0  0  0  0  0
   -4.3569    0.3597    0.0000 C   0  0  0  0  0  0  0  0  0  0  0  0
   -5.7388    0.9432    0.0000 C   0  0  0  0  0  0  0  0  0  0  0  0
   -5.9244    2.4317    0.0000 C   0  0  0  0  0  0  0  0  0  0  0  0
   -4.7281    3.3367    0.0000 O   0  0  0  0  0  0  0  0  0  0  0  0
   -7.3062    3.0152    0.0000 O   0  0  0  0  0  0  0  0  0  0  0  0
   -2.7894   -1.7123    0.0000 C   0  0  0  0  0  0  0  0  0  0  0  0
   -2.4493   -3.1732    0.0000 C   0  0  0  0  0  0  0  0  0  0  0  0
   -0.9547   -3.3011    0.0000 C   0  0  0  0  0  0  0  0  0  0  0  0
   -0.3712   -1.9192    0.0000 C   0  0  0  0  0  0  0  0  0  0  0  0
    1.0461   -1.4282    0.0000 C   0  0  0  0  0  0  0  0  0  0  0  0
    2.1800   -2.4102    0.0000 C   0  0  0  0  0  0  0  0  0  0  0  0
    1.8966   -3.8832    0.0000 O   0  0  0  0  0  0  0  0  0  0  0  0
    3.5974   -1.9192    0.0000 C   0  0  0  0  0  0  0  0  0  0  0  0
    3.8808   -0.4462    0.0000 C   0  0  0  0  0  0  0  0  0  0  0  0
    5.2982    0.0448    0.0000 C   0  0  0  0  0  0  0  0  0  0  0  0
    5.5816    1.5178    0.0000 C   0  0  0  0  0  0  0  0  0  0  0  0
    6.9990    2.0088    0.0000 C   0  0  0  0  0  0  0  0  0  0  0  0
    8.1329    1.0269    0.0000 S   0  0  0  0  0  0  0  0  0  0  0  0
    4.4477    2.4998    0.0000 C   0  0  0  0  0  0  0  0  0  0  0  0
    3.0304    2.0087    0.0000 C   0  0  0  0  0  0  0  0  0  0  0  0
    2.7469    0.5358    0.0000 C   0  0  0  0  0  0  0  0  0  0  0  0
    1.6130    1.5177    0.0000 C   0  0  0  0  0  0  0  0  0  0  0  0
    1.3296    0.0448    0.0000 C   0  0  0  0  0  0  0  0  0  0  0  0
    0.1957    1.0267    0.0000 C   0  0  0  0  0  0  0  0  0  0  0  0
   -1.2217    0.5357    0.0000 C   0  0  0  0  0  0  0  0  0  0  0  0
   -2.3556    1.5177    0.0000 O   0  0  0  0  0  0  0  0  0  0  0  0
   -1.5052   -0.9373    0.0000 C   0  0  0  0  0  0  0  0  0  0  0  0
   -2.7355   -0.0792    0.0000 C   0  0  0  0  0  0  0  0  0  0  0  0
  2  1  1  6
  2  3  1  0
  3  4  1  0
  4  5  1  0
  5  6  2  0
  5  7  1  0
  2  8  1  0
  8  9  1  6
  9 10  1  0
 11 10  1  6
 11 12  1  0
 12 13  1  1
 13 14  1  1
 13 15  1  0
 16 15  1  1
 16 17  1  0
 17 18  1  0
 18 19  1  1
 19 20  1  0
 18 21  1  0
 21 22  1  0
 22 23  1  0
 23 24  1  6
 23 25  1  0
 25 26  1  6
 26 27  1  0
 27 28  2  0
 27 29  1  0
 29 30  1  6
 29  8  1  0
 29 11  1  0
 25 12  1  0
 23 16  1  0
M  END
>  <MS_ID>  (870) 
MS0906

>  <SMILES>  (870) 
C[C@H](CCC(=O)O)[C@H]1CC[C@H]2[C@@H]3[C@H](O)C[C@@H]4C[C@H](CS)CC[C@]4(C)[C@H]3CC(=O)[C@]12C

>  <Structure_dimension>  (870) 
2D

$$$$
MS0907
     RDKit          2D

 29 32  0  0  0  0  0  0  0  0999 V2000
   -5.0303   -2.1373    0.0000 C   0  0  0  0  0  0  0  0  0  0  0  0
   -3.8594   -1.1998    0.0000 C   0  0  0  0  0  0  0  0  0  0  0  0
   -4.0858    0.2830    0.0000 C   0  0  0  0  0  0  0  0  0  0  0  0
   -5.4831    0.8284    0.0000 C   0  0  0  0  0  0  0  0  0  0  0  0
   -5.7095    2.3112    0.0000 C   0  0  0  0  0  0  0  0  0  0  0  0
   -7.1069    2.8565    0.0000 O   0  0  0  0  0  0  0  0  0  0  0  0
   -4.5386    3.2487    0.0000 Br  0  0  0  0  0  0  0  0  0  0  0  0
   -2.4620   -1.7451    0.0000 C   0  0  0  0  0  0  0  0  0  0  0  0
   -2.0818   -3.1961    0.0000 C   0  0  0  0  0  0  0  0  0  0  0  0
   -0.5844   -3.2830    0.0000 C   0  0  0  0  0  0  0  0  0  0  0  0
   -0.0390   -1.8856    0.0000 C   0  0  0  0  0  0  0  0  0  0  0  0
    1.3643   -1.3559    0.0000 C   0  0  0  0  0  0  0  0  0  0  0  0
    2.5248   -2.3063    0.0000 C   0  0  0  0  0  0  0  0  0  0  0  0
    2.2819   -3.7865    0.0000 O   0  0  0  0  0  0  0  0  0  0  0  0
    3.9281   -1.7765    0.0000 C   0  0  0  0  0  0  0  0  0  0  0  0
    4.1710   -0.2963    0.0000 C   0  0  0  0  0  0  0  0  0  0  0  0
    5.5743    0.2334    0.0000 C   0  0  0  0  0  0  0  0  0  0  0  0
    5.8172    1.7136    0.0000 C   0  0  0  0  0  0  0  0  0  0  0  0
    7.2205    2.2434    0.0000 O   0  0  0  0  0  0  0  0  0  0  0  0
    4.6568    2.6641    0.0000 C   0  0  0  0  0  0  0  0  0  0  0  0
    3.2534    2.1343    0.0000 C   0  0  0  0  0  0  0  0  0  0  0  0
    3.0105    0.6541    0.0000 C   0  0  0  0  0  0  0  0  0  0  0  0
    1.8501    1.6046    0.0000 C   0  0  0  0  0  0  0  0  0  0  0  0
    1.6072    0.1244    0.0000 C   0  0  0  0  0  0  0  0  0  0  0  0
    0.4467    1.0748    0.0000 C   0  0  0  0  0  0  0  0  0  0  0  0
   -0.9566    0.5450    0.0000 C   0  0  0  0  0  0  0  0  0  0  0  0
   -2.1170    1.4955    0.0000 O   0  0  0  0  0  0  0  0  0  0  0  0
   -1.1995   -0.9352    0.0000 C   0  0  0  0  0  0  0  0  0  0  0  0
   -2.4529   -0.1112    0.0000 C   0  0  0  0  0  0  0  0  0  0  0  0
  2  1  1  6
  2  3  1  0
  3  4  1  0
  4  5  1  0
  5  6  2  0
  5  7  1  0
  2  8  1  0
  8  9  1  6
  9 10  1  0
 11 10  1  6
 11 12  1  0
 12 13  1  1
 13 14  1  1
 13 15  1  0
 16 15  1  1
 16 17  1  0
 17 18  1  0
 18 19  1  1
 18 20  1  0
 20 21  1  0
 21 22  1  0
 22 23  1  6
 22 24  1  0
 24 25  1  6
 25 26  1  0
 26 27  1  1
 26 28  1  0
 28 29  1  6
 28  8  1  0
 28 11  1  0
 24 12  1  0
 22 16  1  0
M  END
>  <MS_ID>  (871) 
MS0907

>  <SMILES>  (871) 
C[C@H](CCC(=O)Br)[C@H]1CC[C@H]2[C@@H]3[C@H](O)C[C@@H]4C[C@H](O)CC[C@]4(C)[C@H]3C[C@H](O)[C@]12C

>  <Structure_dimension>  (871) 
2D

$$$$
MS0908
     RDKit          2D

 30 33  0  0  0  0  0  0  0  0999 V2000
   -3.0505   -3.6493    0.0000 C   0  0  0  0  0  0  0  0  0  0  0  0
   -2.2252   -2.3967    0.0000 C   0  0  0  0  0  0  0  0  0  0  0  0
   -2.8973   -1.0557    0.0000 C   0  0  0  0  0  0  0  0  0  0  0  0
   -4.3947   -0.9673    0.0000 C   0  0  0  0  0  0  0  0  0  0  0  0
   -5.0668    0.3737    0.0000 C   0  0  0  0  0  0  0  0  0  0  0  0
   -4.2415    1.6263    0.0000 O   0  0  0  0  0  0  0  0  0  0  0  0
   -6.5642    0.4622    0.0000 N   0  0  0  0  0  0  0  0  0  0  0  0
   -7.2363    1.8032    0.0000 C   0  0  0  0  0  0  0  0  0  0  0  0
   -8.7337    1.8916    0.0000 C   0  0  0  0  0  0  0  0  0  0  0  0
   -9.4058    3.2326    0.0000 O   0  0  0  0  0  0  0  0  0  0  0  0
   -0.7278   -2.4852    0.0000 C   0  0  0  0  0  0  0  0  0  0  0  0
    0.0808   -3.7486    0.0000 C   0  0  0  0  0  0  0  0  0  0  0  0
    1.5322   -3.3700    0.0000 C   0  0  0  0  0  0  0  0  0  0  0  0
    1.6207   -1.8726    0.0000 C   0  0  0  0  0  0  0  0  0  0  0  0
    2.7926   -0.9364    0.0000 C   0  0  0  0  0  0  0  0  0  0  0  0
    4.1894   -1.4832    0.0000 C   0  0  0  0  0  0  0  0  0  0  0  0
    4.4142   -2.9662    0.0000 O   0  0  0  0  0  0  0  0  0  0  0  0
    5.3613   -0.5470    0.0000 C   0  0  0  0  0  0  0  0  0  0  0  0
    5.1365    0.9361    0.0000 C   0  0  0  0  0  0  0  0  0  0  0  0
    6.3085    1.8723    0.0000 C   0  0  0  0  0  0  0  0  0  0  0  0
    6.0837    3.3554    0.0000 C   0  0  0  0  0  0  0  0  0  0  0  0
    4.6869    3.9022    0.0000 C   0  0  0  0  0  0  0  0  0  0  0  0
    3.5149    2.9660    0.0000 C   0  0  0  0  0  0  0  0  0  0  0  0
    3.7398    1.4829    0.0000 C   0  0  0  0  0  0  0  0  0  0  0  0
    2.3430    2.0298    0.0000 C   0  0  0  0  0  0  0  0  0  0  0  0
    2.5678    0.5467    0.0000 C   0  0  0  0  0  0  0  0  0  0  0  0
    1.1710    1.0935    0.0000 C   0  0  0  0  0  0  0  0  0  0  0  0
   -0.0009    0.1573    0.0000 C   0  0  0  0  0  0  0  0  0  0  0  0
    0.2239   -1.3257    0.0000 C   0  0  0  0  0  0  0  0  0  0  0  0
   -1.2224   -0.9279    0.0000 C   0  0  0  0  0  0  0  0  0  0  0  0
  2  1  1  6
  2  3  1  0
  3  4  1  0
  4  5  1  0
  5  6  2  0
  5  7  1  0
  7  8  1  0
  8  9  1  0
  9 10  1  0
  2 11  1  0
 11 12  1  6
 12 13  1  0
 14 13  1  6
 14 15  1  0
 15 16  1  1
 16 17  1  1
 16 18  1  0
 19 18  1  1
 19 20  1  0
 20 21  1  0
 21 22  1  0
 22 23  1  0
 23 24  1  0
 24 25  1  6
 24 26  1  0
 26 27  1  6
 27 28  1  0
 28 29  1  0
 29 30  1  6
 29 11  1  0
 29 14  1  0
 26 15  1  0
 24 19  1  0
M  END
>  <MS_ID>  (872) 
MS0908

>  <SMILES>  (872) 
C[C@H](CCC(=O)NCCO)[C@H]1CC[C@H]2[C@@H]3[C@H](O)C[C@@H]4CCCC[C@]4(C)[C@H]3CC[C@]12C

>  <Structure_dimension>  (872) 
2D

$$$$
MS0909
     RDKit          2D

 32 35  0  0  0  0  0  0  0  0999 V2000
   -3.4546   -3.6059    0.0000 C   0  0  0  0  0  0  0  0  0  0  0  0
   -2.5561   -2.4048    0.0000 C   0  0  0  0  0  0  0  0  0  0  0  0
   -3.1471   -1.0261    0.0000 C   0  0  0  0  0  0  0  0  0  0  0  0
   -4.6366   -0.8486    0.0000 C   0  0  0  0  0  0  0  0  0  0  0  0
   -5.2276    0.5301    0.0000 C   0  0  0  0  0  0  0  0  0  0  0  0
   -4.3291    1.7312    0.0000 O   0  0  0  0  0  0  0  0  0  0  0  0
   -6.7170    0.7076    0.0000 C   0  0  0  0  0  0  0  0  0  0  0  0
   -7.3080    2.0863    0.0000 C   0  0  0  0  0  0  0  0  0  0  0  0
   -8.7975    2.2638    0.0000 C   0  0  0  0  0  0  0  0  0  0  0  0
   -9.3885    3.6424    0.0000 O   0  0  0  0  0  0  0  0  0  0  0  0
   -1.0667   -2.5823    0.0000 C   0  0  0  0  0  0  0  0  0  0  0  0
   -0.3348   -3.8917    0.0000 C   0  0  0  0  0  0  0  0  0  0  0  0
    1.1366   -3.6002    0.0000 C   0  0  0  0  0  0  0  0  0  0  0  0
    1.3141   -2.1108    0.0000 C   0  0  0  0  0  0  0  0  0  0  0  0
    2.5398   -1.2460    0.0000 C   0  0  0  0  0  0  0  0  0  0  0  0
    3.9015   -1.8751    0.0000 C   0  0  0  0  0  0  0  0  0  0  0  0
    4.0375   -3.3690    0.0000 O   0  0  0  0  0  0  0  0  0  0  0  0
    5.1272   -1.0104    0.0000 C   0  0  0  0  0  0  0  0  0  0  0  0
    4.9911    0.4834    0.0000 C   0  0  0  0  0  0  0  0  0  0  0  0
    6.2168    1.3481    0.0000 C   0  0  0  0  0  0  0  0  0  0  0  0
    6.0808    2.8419    0.0000 C   0  0  0  0  0  0  0  0  0  0  0  0
    7.3064    3.7067    0.0000 O   0  0  0  0  0  0  0  0  0  0  0  0
    4.7191    3.4710    0.0000 C   0  0  0  0  0  0  0  0  0  0  0  0
    3.4934    2.6063    0.0000 C   0  0  0  0  0  0  0  0  0  0  0  0
    3.6294    1.1125    0.0000 C   0  0  0  0  0  0  0  0  0  0  0  0
    2.2677    1.7416    0.0000 C   0  0  0  0  0  0  0  0  0  0  0  0
    2.4038    0.2478    0.0000 C   0  0  0  0  0  0  0  0  0  0  0  0
    1.0421    0.8769    0.0000 C   0  0  0  0  0  0  0  0  0  0  0  0
   -0.1836    0.0122    0.0000 C   0  0  0  0  0  0  0  0  0  0  0  0
   -1.5453    0.6413    0.0000 O   0  0  0  0  0  0  0  0  0  0  0  0
   -0.0476   -1.4817    0.0000 C   0  0  0  0  0  0  0  0  0  0  0  0
   -1.4676   -0.9983    0.0000 C   0  0  0  0  0  0  0  0  0  0  0  0
  2  1  1  6
  2  3  1  0
  3  4  1  0
  4  5  1  0
  5  6  2  0
  5  7  1  0
  7  8  1  0
  8  9  1  0
  9 10  1  0
  2 11  1  0
 11 12  1  6
 12 13  1  0
 14 13  1  6
 14 15  1  0
 15 16  1  1
 16 17  2  0
 16 18  1  0
 19 18  1  1
 19 20  1  0
 20 21  1  0
 21 22  1  1
 21 23  1  0
 23 24  1  0
 24 25  1  0
 25 26  1  6
 25 27  1  0
 27 28  1  6
 28 29  1  0
 29 30  1  1
 29 31  1  0
 31 32  1  6
 31 11  1  0
 31 14  1  0
 27 15  1  0
 25 19  1  0
M  END
>  <MS_ID>  (873) 
MS0909

>  <SMILES>  (873) 
C[C@H](CCC(=O)CCCO)[C@H]1CC[C@H]2[C@@H]3C(=O)C[C@@H]4C[C@H](O)CC[C@]4(C)[C@H]3C[C@H](O)[C@]12C

>  <Structure_dimension>  (873) 
2D

$$$$
MS0910
     RDKit          2D

 28 31  0  0  0  0  0  0  0  0999 V2000
   -5.0096   -2.1352    0.0000 C   0  0  0  0  0  0  0  0  0  0  0  0
   -3.8132   -1.2303    0.0000 C   0  0  0  0  0  0  0  0  0  0  0  0
   -3.9987    0.2582    0.0000 C   0  0  0  0  0  0  0  0  0  0  0  0
   -5.3805    0.8418    0.0000 C   0  0  0  0  0  0  0  0  0  0  0  0
   -5.5659    2.3303    0.0000 C   0  0  0  0  0  0  0  0  0  0  0  0
   -4.3695    3.2351    0.0000 O   0  0  0  0  0  0  0  0  0  0  0  0
   -6.9477    2.9140    0.0000 O   0  0  0  0  0  0  0  0  0  0  0  0
   -2.4315   -1.8140    0.0000 C   0  0  0  0  0  0  0  0  0  0  0  0
   -2.0914   -3.2749    0.0000 C   0  0  0  0  0  0  0  0  0  0  0  0
   -0.5969   -3.4030    0.0000 C   0  0  0  0  0  0  0  0  0  0  0  0
   -0.0133   -2.0212    0.0000 C   0  0  0  0  0  0  0  0  0  0  0  0
    1.4041   -1.5304    0.0000 C   0  0  0  0  0  0  0  0  0  0  0  0
    2.5379   -2.5125    0.0000 C   0  0  0  0  0  0  0  0  0  0  0  0
    3.9554   -2.0216    0.0000 C   0  0  0  0  0  0  0  0  0  0  0  0
    4.2390   -0.5487    0.0000 C   0  0  0  0  0  0  0  0  0  0  0  0
    5.6564   -0.0578    0.0000 C   0  0  0  0  0  0  0  0  0  0  0  0
    5.9400    1.4151    0.0000 C   0  0  0  0  0  0  0  0  0  0  0  0
    7.3574    1.9060    0.0000 O   0  0  0  0  0  0  0  0  0  0  0  0
    4.8062    2.3972    0.0000 C   0  0  0  0  0  0  0  0  0  0  0  0
    3.3888    1.9064    0.0000 C   0  0  0  0  0  0  0  0  0  0  0  0
    3.1052    0.4334    0.0000 C   0  0  0  0  0  0  0  0  0  0  0  0
    1.9714    1.4155    0.0000 C   0  0  0  0  0  0  0  0  0  0  0  0
    1.6878   -0.0574    0.0000 C   0  0  0  0  0  0  0  0  0  0  0  0
    0.5540    0.9246    0.0000 C   0  0  0  0  0  0  0  0  0  0  0  0
   -0.8635    0.4338    0.0000 C   0  0  0  0  0  0  0  0  0  0  0  0
   -1.9973    1.4159    0.0000 O   0  0  0  0  0  0  0  0  0  0  0  0
   -1.1471   -1.0392    0.0000 C   0  0  0  0  0  0  0  0  0  0  0  0
   -2.3773   -0.1810    0.0000 C   0  0  0  0  0  0  0  0  0  0  0  0
  2  1  1  6
  2  3  1  0
  3  4  1  0
  4  5  1  0
  5  6  2  0
  5  7  1  0
  2  8  1  0
  8  9  1  6
  9 10  1  0
 11 10  1  6
 11 12  1  0
 12 13  1  1
 13 14  1  0
 15 14  1  1
 15 16  1  0
 16 17  1  0
 17 18  1  1
 17 19  1  0
 19 20  1  0
 20 21  1  0
 21 22  1  6
 21 23  1  0
 23 24  1  1
 24 25  1  0
 25 26  1  1
 25 27  1  0
 27 28  1  6
 27  8  1  0
 27 11  1  0
 23 12  1  0
 21 15  1  0
M  END
>  <MS_ID>  (874) 
MS0910

>  <SMILES>  (874) 
C[C@H](CCC(=O)O)[C@H]1CC[C@H]2[C@@H]3CC[C@@H]4C[C@H](O)CC[C@]4(C)[C@@H]3C[C@H](O)[C@]12C

>  <Structure_dimension>  (874) 
2D

$$$$
MS0911
     RDKit          2D

 33 36  0  0  0  0  0  0  0  0999 V2000
  -10.9772    0.2930    0.0000 C   0  0  0  0  0  0  0  0  0  0  0  0
   -9.5200   -0.0625    0.0000 O   0  0  0  0  0  0  0  0  0  0  0  0
   -8.4835    1.0218    0.0000 C   0  0  0  0  0  0  0  0  0  0  0  0
   -7.0262    0.6664    0.0000 C   0  0  0  0  0  0  0  0  0  0  0  0
   -5.9897    1.7506    0.0000 N   0  0  0  0  0  0  0  0  0  0  0  0
   -6.4105    3.1904    0.0000 C   0  0  0  0  0  0  0  0  0  0  0  0
   -4.5324    1.3952    0.0000 C   0  0  0  0  0  0  0  0  0  0  0  0
   -3.4959    2.4795    0.0000 O   0  0  0  0  0  0  0  0  0  0  0  0
   -4.1117   -0.0446    0.0000 C   0  0  0  0  0  0  0  0  0  0  0  0
   -2.6544   -0.4001    0.0000 C   0  0  0  0  0  0  0  0  0  0  0  0
   -2.2336   -1.8399    0.0000 C   0  0  0  0  0  0  0  0  0  0  0  0
   -3.2701   -2.9241    0.0000 C   0  0  0  0  0  0  0  0  0  0  0  0
   -0.7763   -2.1953    0.0000 C   0  0  0  0  0  0  0  0  0  0  0  0
   -0.2074   -3.5832    0.0000 C   0  0  0  0  0  0  0  0  0  0  0  0
    1.2884   -3.4710    0.0000 C   0  0  0  0  0  0  0  0  0  0  0  0
    1.6439   -2.0137    0.0000 C   0  0  0  0  0  0  0  0  0  0  0  0
    2.9647   -1.3028    0.0000 C   0  0  0  0  0  0  0  0  0  0  0  0
    4.2408   -2.0912    0.0000 C   0  0  0  0  0  0  0  0  0  0  0  0
    4.1961   -3.5905    0.0000 O   0  0  0  0  0  0  0  0  0  0  0  0
    5.5617   -1.3802    0.0000 C   0  0  0  0  0  0  0  0  0  0  0  0
    5.6064    0.1191    0.0000 C   0  0  0  0  0  0  0  0  0  0  0  0
    6.9272    0.8300    0.0000 C   0  0  0  0  0  0  0  0  0  0  0  0
    6.9719    2.3294    0.0000 C   0  0  0  0  0  0  0  0  0  0  0  0
    8.2928    3.0403    0.0000 O   0  0  0  0  0  0  0  0  0  0  0  0
    5.6958    3.1178    0.0000 C   0  0  0  0  0  0  0  0  0  0  0  0
    4.3750    2.4068    0.0000 C   0  0  0  0  0  0  0  0  0  0  0  0
    4.3303    0.9075    0.0000 C   0  0  0  0  0  0  0  0  0  0  0  0
    3.0542    1.6959    0.0000 C   0  0  0  0  0  0  0  0  0  0  0  0
    3.0095    0.1966    0.0000 C   0  0  0  0  0  0  0  0  0  0  0  0
    1.7334    0.9850    0.0000 C   0  0  0  0  0  0  0  0  0  0  0  0
    0.4125    0.2740    0.0000 C   0  0  0  0  0  0  0  0  0  0  0  0
    0.3678   -1.2253    0.0000 C   0  0  0  0  0  0  0  0  0  0  0  0
   -0.9837   -0.5746    0.0000 C   0  0  0  0  0  0  0  0  0  0  0  0
  1  2  1  0
  2  3  1  0
  3  4  1  0
  4  5  1  0
  5  6  1  0
  5  7  1  0
  7  8  2  0
  7  9  1  0
  9 10  1  0
 10 11  1  0
 11 12  1  6
 11 13  1  0
 13 14  1  6
 14 15  1  0
 16 15  1  6
 16 17  1  0
 17 18  1  1
 18 19  1  1
 18 20  1  0
 21 20  1  1
 21 22  1  0
 22 23  1  0
 23 24  1  1
 23 25  1  0
 25 26  1  0
 26 27  1  0
 27 28  1  6
 27 29  1  0
 29 30  1  6
 30 31  1  0
 31 32  1  0
 32 33  1  6
 32 13  1  0
 32 16  1  0
 29 17  1  0
 27 21  1  0
M  END
>  <MS_ID>  (875) 
MS0911

>  <SMILES>  (875) 
COCCN(C)C(=O)CC[C@@H](C)[C@H]1CC[C@H]2[C@@H]3[C@H](O)C[C@@H]4C[C@H](O)CC[C@]4(C)[C@H]3CC[C@]12C

>  <Structure_dimension>  (875) 
2D

$$$$
MS0912
     RDKit          2D

 28 31  0  0  0  0  0  0  0  0999 V2000
   -4.7819   -2.5298    0.0000 C   0  0  0  0  0  0  0  0  0  0  0  0
   -3.6391   -1.5583    0.0000 C   0  0  0  0  0  0  0  0  0  0  0  0
   -3.9090   -0.0827    0.0000 C   0  0  0  0  0  0  0  0  0  0  0  0
   -5.3218    0.4213    0.0000 C   0  0  0  0  0  0  0  0  0  0  0  0
   -5.5917    1.8968    0.0000 C   0  0  0  0  0  0  0  0  0  0  0  0
   -7.0045    2.4008    0.0000 O   0  0  0  0  0  0  0  0  0  0  0  0
   -4.4488    2.8683    0.0000 O   0  0  0  0  0  0  0  0  0  0  0  0
   -4.7187    4.3438    0.0000 O   0  0  0  0  0  0  0  0  0  0  0  0
   -2.2263   -2.0623    0.0000 C   0  0  0  0  0  0  0  0  0  0  0  0
   -1.8036   -3.5015    0.0000 C   0  0  0  0  0  0  0  0  0  0  0  0
   -0.3042   -3.5443    0.0000 C   0  0  0  0  0  0  0  0  0  0  0  0
    0.1998   -2.1315    0.0000 C   0  0  0  0  0  0  0  0  0  0  0  0
    1.5870   -1.5607    0.0000 C   0  0  0  0  0  0  0  0  0  0  0  0
    2.7749   -2.4766    0.0000 C   0  0  0  0  0  0  0  0  0  0  0  0
    4.1620   -1.9058    0.0000 C   0  0  0  0  0  0  0  0  0  0  0  0
    4.3613   -0.4191    0.0000 C   0  0  0  0  0  0  0  0  0  0  0  0
    5.7484    0.1517    0.0000 C   0  0  0  0  0  0  0  0  0  0  0  0
    5.9477    1.6384    0.0000 C   0  0  0  0  0  0  0  0  0  0  0  0
    7.3348    2.2092    0.0000 O   0  0  0  0  0  0  0  0  0  0  0  0
    4.7598    2.5543    0.0000 C   0  0  0  0  0  0  0  0  0  0  0  0
    3.3726    1.9835    0.0000 C   0  0  0  0  0  0  0  0  0  0  0  0
    3.1734    0.4968    0.0000 C   0  0  0  0  0  0  0  0  0  0  0  0
    1.9855    1.4127    0.0000 C   0  0  0  0  0  0  0  0  0  0  0  0
    1.7862   -0.0740    0.0000 C   0  0  0  0  0  0  0  0  0  0  0  0
    0.5983    0.8419    0.0000 C   0  0  0  0  0  0  0  0  0  0  0  0
   -0.7888    0.2712    0.0000 C   0  0  0  0  0  0  0  0  0  0  0  0
   -0.9881   -1.2155    0.0000 C   0  0  0  0  0  0  0  0  0  0  0  0
   -2.2652   -0.4288    0.0000 C   0  0  0  0  0  0  0  0  0  0  0  0
  2  1  1  6
  2  3  1  0
  3  4  1  0
  4  5  1  0
  5  6  2  0
  5  7  1  0
  7  8  1  0
  2  9  1  0
  9 10  1  6
 10 11  1  0
 12 11  1  6
 12 13  1  0
 13 14  1  1
 14 15  1  0
 16 15  1  1
 16 17  1  0
 17 18  1  0
 18 19  1  6
 18 20  1  0
 20 21  1  0
 21 22  1  0
 22 23  1  6
 22 24  1  0
 24 25  1  6
 25 26  1  0
 26 27  1  0
 27 28  1  6
 27  9  1  0
 27 12  1  0
 24 13  1  0
 22 16  1  0
M  END
>  <MS_ID>  (876) 
MS0912

>  <SMILES>  (876) 
C[C@H](CCC(=O)OO)[C@H]1CC[C@H]2[C@@H]3CC[C@@H]4C[C@@H](O)CC[C@]4(C)[C@H]3CC[C@]12C

>  <Structure_dimension>  (876) 
2D

$$$$
MS0913
     RDKit          2D

 31 34  0  0  0  0  0  0  0  0999 V2000
   -2.6128   -3.7484    0.0000 C   0  0  0  0  0  0  0  0  0  0  0  0
   -1.7683   -2.5088    0.0000 C   0  0  0  0  0  0  0  0  0  0  0  0
   -2.4196   -1.1576    0.0000 C   0  0  0  0  0  0  0  0  0  0  0  0
   -3.9155   -1.0460    0.0000 C   0  0  0  0  0  0  0  0  0  0  0  0
   -4.5668    0.3052    0.0000 C   0  0  0  0  0  0  0  0  0  0  0  0
   -3.7223    1.5449    0.0000 O   0  0  0  0  0  0  0  0  0  0  0  0
   -6.0626    0.4167    0.0000 N   0  0  0  0  0  0  0  0  0  0  0  0
   -6.7140    1.7679    0.0000 C   0  0  0  0  0  0  0  0  0  0  0  0
   -8.2098    1.8794    0.0000 C   0  0  0  0  0  0  0  0  0  0  0  0
   -9.0543    0.6398    0.0000 O   0  0  0  0  0  0  0  0  0  0  0  0
   -8.8612    3.2307    0.0000 O   0  0  0  0  0  0  0  0  0  0  0  0
   -0.2724   -2.6203    0.0000 C   0  0  0  0  0  0  0  0  0  0  0  0
    0.5166   -3.8960    0.0000 C   0  0  0  0  0  0  0  0  0  0  0  0
    1.9737   -3.5398    0.0000 C   0  0  0  0  0  0  0  0  0  0  0  0
    2.0852   -2.0440    0.0000 C   0  0  0  0  0  0  0  0  0  0  0  0
    3.2715   -1.1260    0.0000 C   0  0  0  0  0  0  0  0  0  0  0  0
    4.6596   -1.6943    0.0000 C   0  0  0  0  0  0  0  0  0  0  0  0
    5.8459   -0.7762    0.0000 C   0  0  0  0  0  0  0  0  0  0  0  0
    5.6440    0.7101    0.0000 C   0  0  0  0  0  0  0  0  0  0  0  0
    6.8302    1.6281    0.0000 C   0  0  0  0  0  0  0  0  0  0  0  0
    6.6283    3.1145    0.0000 C   0  0  0  0  0  0  0  0  0  0  0  0
    5.2402    3.6828    0.0000 C   0  0  0  0  0  0  0  0  0  0  0  0
    4.0539    2.7648    0.0000 C   0  0  0  0  0  0  0  0  0  0  0  0
    4.2558    1.2784    0.0000 C   0  0  0  0  0  0  0  0  0  0  0  0
    2.8676    1.8467    0.0000 C   0  0  0  0  0  0  0  0  0  0  0  0
    3.0696    0.3604    0.0000 C   0  0  0  0  0  0  0  0  0  0  0  0
    1.6814    0.9287    0.0000 C   0  0  0  0  0  0  0  0  0  0  0  0
    0.4951    0.0107    0.0000 C   0  0  0  0  0  0  0  0  0  0  0  0
   -0.8930    0.5790    0.0000 O   0  0  0  0  0  0  0  0  0  0  0  0
    0.6970   -1.4757    0.0000 C   0  0  0  0  0  0  0  0  0  0  0  0
   -0.7429   -1.0556    0.0000 C   0  0  0  0  0  0  0  0  0  0  0  0
  2  1  1  6
  2  3  1  0
  3  4  1  0
  4  5  1  0
  5  6  2  0
  5  7  1  0
  7  8  1  0
  8  9  1  0
  9 10  2  0
  9 11  1  0
  2 12  1  0
 12 13  1  6
 13 14  1  0
 15 14  1  6
 15 16  1  0
 16 17  1  1
 17 18  1  0
 19 18  1  1
 19 20  1  0
 20 21  1  0
 21 22  1  0
 22 23  1  0
 23 24  1  0
 24 25  1  6
 24 26  1  0
 26 27  1  6
 27 28  1  0
 28 29  1  6
 28 30  1  0
 30 31  1  6
 30 12  1  0
 30 15  1  0
 26 16  1  0
 24 19  1  0
M  END
>  <MS_ID>  (877) 
MS0913

>  <SMILES>  (877) 
C[C@H](CCC(=O)NCC(=O)O)[C@H]1CC[C@H]2[C@@H]3CC[C@@H]4CCCC[C@]4(C)[C@H]3C[C@@H](O)[C@]12C

>  <Structure_dimension>  (877) 
2D

$$$$
MS0914
     RDKit          2D

 34 37  0  0  0  0  0  0  0  0999 V2000
   -8.6395    3.3875    0.0000 C   0  0  0  0  0  0  0  0  0  0  0  0
   -8.0142    2.0241    0.0000 C   0  0  0  0  0  0  0  0  0  0  0  0
   -6.5207    1.8839    0.0000 C   0  0  0  0  0  0  0  0  0  0  0  0
   -5.8954    0.5205    0.0000 O   0  0  0  0  0  0  0  0  0  0  0  0
   -4.4020    0.3804    0.0000 C   0  0  0  0  0  0  0  0  0  0  0  0
   -3.5339    1.6036    0.0000 O   0  0  0  0  0  0  0  0  0  0  0  0
   -3.7766   -0.9831    0.0000 C   0  0  0  0  0  0  0  0  0  0  0  0
   -2.2832   -1.1232    0.0000 C   0  0  0  0  0  0  0  0  0  0  0  0
   -1.6579   -2.4867    0.0000 C   0  0  0  0  0  0  0  0  0  0  0  0
   -2.5260   -3.7099    0.0000 C   0  0  0  0  0  0  0  0  0  0  0  0
   -0.1644   -2.6268    0.0000 C   0  0  0  0  0  0  0  0  0  0  0  0
    0.6000   -3.9174    0.0000 C   0  0  0  0  0  0  0  0  0  0  0  0
    2.0637   -3.5892    0.0000 C   0  0  0  0  0  0  0  0  0  0  0  0
    2.2038   -2.0958    0.0000 C   0  0  0  0  0  0  0  0  0  0  0  0
    3.4074   -1.2006    0.0000 C   0  0  0  0  0  0  0  0  0  0  0  0
    4.7845   -1.7954    0.0000 C   0  0  0  0  0  0  0  0  0  0  0  0
    4.9579   -3.2854    0.0000 O   0  0  0  0  0  0  0  0  0  0  0  0
    5.9881   -0.9003    0.0000 C   0  0  0  0  0  0  0  0  0  0  0  0
    5.8147    0.5897    0.0000 C   0  0  0  0  0  0  0  0  0  0  0  0
    7.0183    1.4848    0.0000 C   0  0  0  0  0  0  0  0  0  0  0  0
    6.8449    2.9747    0.0000 C   0  0  0  0  0  0  0  0  0  0  0  0
    8.0485    3.8699    0.0000 O   0  0  0  0  0  0  0  0  0  0  0  0
    5.4679    3.5695    0.0000 C   0  0  0  0  0  0  0  0  0  0  0  0
    4.2643    2.6744    0.0000 C   0  0  0  0  0  0  0  0  0  0  0  0
    4.4377    1.1844    0.0000 C   0  0  0  0  0  0  0  0  0  0  0  0
    3.0606    1.7792    0.0000 C   0  0  0  0  0  0  0  0  0  0  0  0
    3.2340    0.2893    0.0000 C   0  0  0  0  0  0  0  0  0  0  0  0
    1.8570    0.8841    0.0000 C   0  0  0  0  0  0  0  0  0  0  0  0
    0.6534   -0.0111    0.0000 C   0  0  0  0  0  0  0  0  0  0  0  0
    0.8268   -1.5010    0.0000 C   0  0  0  0  0  0  0  0  0  0  0  0
   -0.6049   -1.0534    0.0000 C   0  0  0  0  0  0  0  0  0  0  0  0
   -8.8823    0.8008    0.0000 C   0  0  0  0  0  0  0  0  0  0  0  0
   -8.2569   -0.5626    0.0000 O   0  0  0  0  0  0  0  0  0  0  0  0
  -10.3757    0.9410    0.0000 O   0  0  0  0  0  0  0  0  0  0  0  0
  2  1  1  6
  2  3  1  0
  3  4  1  0
  4  5  1  0
  5  6  2  0
  5  7  1  0
  7  8  1  0
  8  9  1  0
  9 10  1  6
  9 11  1  0
 11 12  1  6
 12 13  1  0
 14 13  1  6
 14 15  1  0
 15 16  1  1
 16 17  1  1
 16 18  1  0
 19 18  1  1
 19 20  1  0
 20 21  1  0
 21 22  1  1
 21 23  1  0
 23 24  1  0
 24 25  1  0
 25 26  1  6
 25 27  1  0
 27 28  1  6
 28 29  1  0
 29 30  1  0
 30 31  1  6
  2 32  1  0
 32 33  2  0
 32 34  1  0
 30 11  1  0
 30 14  1  0
 27 15  1  0
 25 19  1  0
M  END
>  <MS_ID>  (878) 
MS0914

>  <SMILES>  (878) 
C[C@H](COC(=O)CC[C@@H](C)[C@H]1CC[C@H]2[C@@H]3[C@H](O)C[C@@H]4C[C@H](O)CC[C@]4(C)[C@H]3CC[C@]12C)C(=O)O

>  <Structure_dimension>  (878) 
2D

$$$$
MS0915
     RDKit          2D

 32 35  0  0  0  0  0  0  0  0999 V2000
   -3.1421   -3.6694    0.0000 C   0  0  0  0  0  0  0  0  0  0  0  0
   -2.2628   -2.4541    0.0000 C   0  0  0  0  0  0  0  0  0  0  0  0
   -2.8756   -1.0850    0.0000 C   0  0  0  0  0  0  0  0  0  0  0  0
   -4.3676   -0.9311    0.0000 C   0  0  0  0  0  0  0  0  0  0  0  0
   -4.9804    0.4380    0.0000 C   0  0  0  0  0  0  0  0  0  0  0  0
   -4.1011    1.6532    0.0000 O   0  0  0  0  0  0  0  0  0  0  0  0
   -6.4725    0.5919    0.0000 O   0  0  0  0  0  0  0  0  0  0  0  0
   -7.0853    1.9610    0.0000 C   0  0  0  0  0  0  0  0  0  0  0  0
   -8.5774    2.1149    0.0000 C   0  0  0  0  0  0  0  0  0  0  0  0
   -9.1901    3.4840    0.0000 O   0  0  0  0  0  0  0  0  0  0  0  0
   -9.4567    0.8996    0.0000 O   0  0  0  0  0  0  0  0  0  0  0  0
   -0.7707   -2.6080    0.0000 C   0  0  0  0  0  0  0  0  0  0  0  0
   -0.0182   -3.9056    0.0000 C   0  0  0  0  0  0  0  0  0  0  0  0
    1.4484   -3.5909    0.0000 C   0  0  0  0  0  0  0  0  0  0  0  0
    1.6023   -2.0988    0.0000 C   0  0  0  0  0  0  0  0  0  0  0  0
    2.8141   -1.2147    0.0000 C   0  0  0  0  0  0  0  0  0  0  0  0
    4.1856   -1.8222    0.0000 C   0  0  0  0  0  0  0  0  0  0  0  0
    4.3453   -3.3136    0.0000 O   0  0  0  0  0  0  0  0  0  0  0  0
    5.3974   -0.9381    0.0000 C   0  0  0  0  0  0  0  0  0  0  0  0
    5.2377    0.5533    0.0000 C   0  0  0  0  0  0  0  0  0  0  0  0
    6.4495    1.4374    0.0000 C   0  0  0  0  0  0  0  0  0  0  0  0
    6.2898    2.9289    0.0000 C   0  0  0  0  0  0  0  0  0  0  0  0
    7.5016    3.8129    0.0000 O   0  0  0  0  0  0  0  0  0  0  0  0
    4.9183    3.5363    0.0000 C   0  0  0  0  0  0  0  0  0  0  0  0
    3.7065    2.6522    0.0000 C   0  0  0  0  0  0  0  0  0  0  0  0
    3.8662    1.1608    0.0000 C   0  0  0  0  0  0  0  0  0  0  0  0
    2.4947    1.7682    0.0000 C   0  0  0  0  0  0  0  0  0  0  0  0
    2.6544    0.2767    0.0000 C   0  0  0  0  0  0  0  0  0  0  0  0
    1.2829    0.8842    0.0000 C   0  0  0  0  0  0  0  0  0  0  0  0
    0.0711    0.0001    0.0000 C   0  0  0  0  0  0  0  0  0  0  0  0
    0.2308   -1.4914    0.0000 C   0  0  0  0  0  0  0  0  0  0  0  0
   -1.1967   -1.0306    0.0000 C   0  0  0  0  0  0  0  0  0  0  0  0
  2  1  1  6
  2  3  1  0
  3  4  1  0
  4  5  1  0
  5  6  2  0
  5  7  1  0
  7  8  1  0
  8  9  1  0
  9 10  1  0
  9 11  1  0
  2 12  1  0
 12 13  1  6
 13 14  1  0
 15 14  1  6
 15 16  1  0
 16 17  1  1
 17 18  1  6
 17 19  1  0
 20 19  1  1
 20 21  1  0
 21 22  1  0
 22 23  1  1
 22 24  1  0
 24 25  1  0
 25 26  1  0
 26 27  1  6
 26 28  1  0
 28 29  1  6
 29 30  1  0
 30 31  1  0
 31 32  1  6
 31 12  1  0
 31 15  1  0
 28 16  1  0
 26 20  1  0
M  END
>  <MS_ID>  (879) 
MS0915

>  <SMILES>  (879) 
C[C@H](CCC(=O)OCC(O)O)[C@H]1CC[C@H]2[C@@H]3[C@@H](O)C[C@@H]4C[C@H](O)CC[C@]4(C)[C@H]3CC[C@]12C

>  <Structure_dimension>  (879) 
2D

$$$$
MS0916
     RDKit          2D

 27 30  0  0  0  0  0  0  0  0999 V2000
   -5.1023   -2.0364    0.0000 C   0  0  0  0  0  0  0  0  0  0  0  0
   -3.8978   -1.1425    0.0000 C   0  0  0  0  0  0  0  0  0  0  0  0
   -4.0697    0.3476    0.0000 C   0  0  0  0  0  0  0  0  0  0  0  0
   -5.4461    0.9438    0.0000 C   0  0  0  0  0  0  0  0  0  0  0  0
   -5.6180    2.4339    0.0000 C   0  0  0  0  0  0  0  0  0  0  0  0
   -4.4135    3.3278    0.0000 O   0  0  0  0  0  0  0  0  0  0  0  0
   -6.9944    3.0301    0.0000 O   0  0  0  0  0  0  0  0  0  0  0  0
   -2.5213   -1.7387    0.0000 C   0  0  0  0  0  0  0  0  0  0  0  0
   -2.1946   -3.2027    0.0000 C   0  0  0  0  0  0  0  0  0  0  0  0
   -0.7013   -3.3444    0.0000 C   0  0  0  0  0  0  0  0  0  0  0  0
   -0.1051   -1.9679    0.0000 C   0  0  0  0  0  0  0  0  0  0  0  0
    1.3167   -1.4900    0.0000 C   0  0  0  0  0  0  0  0  0  0  0  0
    2.4415   -2.4823    0.0000 C   0  0  0  0  0  0  0  0  0  0  0  0
    3.8633   -2.0044    0.0000 C   0  0  0  0  0  0  0  0  0  0  0  0
    4.1603   -0.5341    0.0000 C   0  0  0  0  0  0  0  0  0  0  0  0
    5.5821   -0.0561    0.0000 C   0  0  0  0  0  0  0  0  0  0  0  0
    5.8791    1.4142    0.0000 C   0  0  0  0  0  0  0  0  0  0  0  0
    7.3009    1.8921    0.0000 N   0  0  0  0  0  0  0  0  0  0  0  0
    4.7543    2.4065    0.0000 C   0  0  0  0  0  0  0  0  0  0  0  0
    3.3325    1.9286    0.0000 C   0  0  0  0  0  0  0  0  0  0  0  0
    3.0355    0.4583    0.0000 C   0  0  0  0  0  0  0  0  0  0  0  0
    1.9107    1.4506    0.0000 C   0  0  0  0  0  0  0  0  0  0  0  0
    1.6137   -0.0197    0.0000 C   0  0  0  0  0  0  0  0  0  0  0  0
    0.4888    0.9727    0.0000 C   0  0  0  0  0  0  0  0  0  0  0  0
   -0.9330    0.4947    0.0000 C   0  0  0  0  0  0  0  0  0  0  0  0
   -1.2300   -0.9756    0.0000 C   0  0  0  0  0  0  0  0  0  0  0  0
   -2.4524   -0.1062    0.0000 C   0  0  0  0  0  0  0  0  0  0  0  0
  2  1  1  6
  2  3  1  0
  3  4  1  0
  4  5  1  0
  5  6  2  0
  5  7  1  0
  2  8  1  0
  8  9  1  6
  9 10  1  0
 11 10  1  6
 11 12  1  0
 12 13  1  1
 13 14  1  0
 15 14  1  1
 15 16  1  0
 16 17  1  0
 17 18  1  1
 17 19  1  0
 19 20  1  0
 20 21  1  0
 21 22  1  6
 21 23  1  0
 23 24  1  6
 24 25  1  0
 25 26  1  0
 26 27  1  6
 26  8  1  0
 26 11  1  0
 23 12  1  0
 21 15  1  0
M  END
>  <MS_ID>  (880) 
MS0916

>  <SMILES>  (880) 
C[C@H](CCC(=O)O)[C@H]1CC[C@H]2[C@@H]3CC[C@@H]4C[C@H](N)CC[C@]4(C)[C@H]3CC[C@]12C

>  <Structure_dimension>  (880) 
2D

$$$$
MS0917
     RDKit          2D

 35 39  0  0  0  0  0  0  0  0999 V2000
   -2.4249   -4.3282    0.0000 C   0  0  0  0  0  0  0  0  0  0  0  0
   -1.7208   -3.0038    0.0000 C   0  0  0  0  0  0  0  0  0  0  0  0
   -2.5157   -1.7317    0.0000 C   0  0  0  0  0  0  0  0  0  0  0  0
   -4.0147   -1.7841    0.0000 C   0  0  0  0  0  0  0  0  0  0  0  0
   -4.8097   -0.5121    0.0000 C   0  0  0  0  0  0  0  0  0  0  0  0
   -4.1055    0.8124    0.0000 O   0  0  0  0  0  0  0  0  0  0  0  0
   -6.3087   -0.5645    0.0000 O   0  0  0  0  0  0  0  0  0  0  0  0
   -7.1037    0.7076    0.0000 C   0  0  0  0  0  0  0  0  0  0  0  0
   -6.3995    2.0320    0.0000 C   0  0  0  0  0  0  0  0  0  0  0  0
   -7.1944    3.3041    0.0000 C   0  0  0  0  0  0  0  0  0  0  0  0
   -8.6935    3.2517    0.0000 C   0  0  0  0  0  0  0  0  0  0  0  0
   -9.3977    1.9272    0.0000 C   0  0  0  0  0  0  0  0  0  0  0  0
   -8.6027    0.6552    0.0000 C   0  0  0  0  0  0  0  0  0  0  0  0
   -0.2217   -2.9514    0.0000 C   0  0  0  0  0  0  0  0  0  0  0  0
    0.7019   -4.1334    0.0000 C   0  0  0  0  0  0  0  0  0  0  0  0
    2.1114   -3.6203    0.0000 C   0  0  0  0  0  0  0  0  0  0  0  0
    2.0590   -2.1213    0.0000 C   0  0  0  0  0  0  0  0  0  0  0  0
    3.1380   -1.0792    0.0000 C   0  0  0  0  0  0  0  0  0  0  0  0
    4.5799   -1.4927    0.0000 C   0  0  0  0  0  0  0  0  0  0  0  0
    4.9428   -2.9481    0.0000 O   0  0  0  0  0  0  0  0  0  0  0  0
    5.6589   -0.4506    0.0000 C   0  0  0  0  0  0  0  0  0  0  0  0
    7.1008   -0.8641    0.0000 O   0  0  0  0  0  0  0  0  0  0  0  0
    5.2959    1.0048    0.0000 C   0  0  0  0  0  0  0  0  0  0  0  0
    6.3749    2.0468    0.0000 C   0  0  0  0  0  0  0  0  0  0  0  0
    6.0120    3.5022    0.0000 C   0  0  0  0  0  0  0  0  0  0  0  0
    7.0910    4.5443    0.0000 O   0  0  0  0  0  0  0  0  0  0  0  0
    4.5701    3.9157    0.0000 C   0  0  0  0  0  0  0  0  0  0  0  0
    3.4911    2.8736    0.0000 C   0  0  0  0  0  0  0  0  0  0  0  0
    3.8540    1.4182    0.0000 C   0  0  0  0  0  0  0  0  0  0  0  0
    2.4121    1.8316    0.0000 C   0  0  0  0  0  0  0  0  0  0  0  0
    2.7751    0.3762    0.0000 C   0  0  0  0  0  0  0  0  0  0  0  0
    1.3332    0.7896    0.0000 C   0  0  0  0  0  0  0  0  0  0  0  0
    0.2542   -0.2524    0.0000 C   0  0  0  0  0  0  0  0  0  0  0  0
    0.6171   -1.7078    0.0000 C   0  0  0  0  0  0  0  0  0  0  0  0
   -0.8601   -1.4474    0.0000 C   0  0  0  0  0  0  0  0  0  0  0  0
  2  1  1  6
  2  3  1  0
  3  4  1  0
  4  5  1  0
  5  6  2  0
  5  7  1  0
  7  8  1  0
  8  9  2  0
  9 10  1  0
 10 11  2  0
 11 12  1  0
 12 13  2  0
  2 14  1  0
 14 15  1  6
 15 16  1  0
 17 16  1  6
 17 18  1  0
 18 19  1  1
 19 20  1  1
 19 21  1  0
 21 22  1  1
 21 23  1  0
 23 24  1  1
 24 25  1  0
 25 26  1  1
 25 27  1  0
 27 28  1  0
 28 29  1  0
 29 30  1  6
 29 31  1  0
 31 32  1  6
 32 33  1  0
 33 34  1  0
 34 35  1  6
 13  8  1  0
 34 14  1  0
 34 17  1  0
 31 18  1  0
 29 23  1  0
M  END
>  <MS_ID>  (881) 
MS0917

>  <SMILES>  (881) 
C[C@H](CCC(=O)Oc1ccccc1)[C@H]1CC[C@H]2[C@@H]3[C@H](O)[C@H](O)[C@@H]4C[C@H](O)CC[C@]4(C)[C@H]3CC[C@]12C

>  <Structure_dimension>  (881) 
2D

$$$$
MS0918
     RDKit          2D

 34 37  0  0  0  0  0  0  0  0999 V2000
   -2.4018   -4.1785    0.0000 C   0  0  0  0  0  0  0  0  0  0  0  0
   -1.6536   -2.8784    0.0000 C   0  0  0  0  0  0  0  0  0  0  0  0
   -2.4055   -1.5804    0.0000 C   0  0  0  0  0  0  0  0  0  0  0  0
   -3.9055   -1.5826    0.0000 C   0  0  0  0  0  0  0  0  0  0  0  0
   -4.6574   -0.2846    0.0000 C   0  0  0  0  0  0  0  0  0  0  0  0
   -3.9092    1.0155    0.0000 O   0  0  0  0  0  0  0  0  0  0  0  0
   -6.1574   -0.2867    0.0000 C   0  0  0  0  0  0  0  0  0  0  0  0
   -6.9092    1.0112    0.0000 S   0  0  0  0  0  0  0  0  0  0  0  0
   -8.4092    1.0091    0.0000 C   0  0  0  0  0  0  0  0  0  0  0  0
   -9.1611    2.3071    0.0000 C   0  0  0  0  0  0  0  0  0  0  0  0
   -8.4129    3.6072    0.0000 O   0  0  0  0  0  0  0  0  0  0  0  0
  -10.6611    2.3049    0.0000 O   0  0  0  0  0  0  0  0  0  0  0  0
   -0.1536   -2.8762    0.0000 C   0  0  0  0  0  0  0  0  0  0  0  0
    0.7298   -4.0885    0.0000 C   0  0  0  0  0  0  0  0  0  0  0  0
    2.1557   -3.6229    0.0000 C   0  0  0  0  0  0  0  0  0  0  0  0
    2.1535   -2.1229    0.0000 C   0  0  0  0  0  0  0  0  0  0  0  0
    3.2668   -1.1176    0.0000 C   0  0  0  0  0  0  0  0  0  0  0  0
    4.6941   -1.5791    0.0000 C   0  0  0  0  0  0  0  0  0  0  0  0
    5.0080   -3.0459    0.0000 O   0  0  0  0  0  0  0  0  0  0  0  0
    5.8073   -0.5738    0.0000 C   0  0  0  0  0  0  0  0  0  0  0  0
    5.4934    0.8929    0.0000 C   0  0  0  0  0  0  0  0  0  0  0  0
    6.6067    1.8982    0.0000 C   0  0  0  0  0  0  0  0  0  0  0  0
    6.2927    3.3650    0.0000 C   0  0  0  0  0  0  0  0  0  0  0  0
    7.4060    4.3703    0.0000 O   0  0  0  0  0  0  0  0  0  0  0  0
    4.8655    3.8265    0.0000 C   0  0  0  0  0  0  0  0  0  0  0  0
    3.7522    2.8212    0.0000 C   0  0  0  0  0  0  0  0  0  0  0  0
    4.0661    1.3544    0.0000 C   0  0  0  0  0  0  0  0  0  0  0  0
    2.6389    1.8159    0.0000 C   0  0  0  0  0  0  0  0  0  0  0  0
    2.9529    0.3491    0.0000 C   0  0  0  0  0  0  0  0  0  0  0  0
    1.5256    0.8106    0.0000 C   0  0  0  0  0  0  0  0  0  0  0  0
    0.4123   -0.1947    0.0000 C   0  0  0  0  0  0  0  0  0  0  0  0
   -1.0149    0.2668    0.0000 O   0  0  0  0  0  0  0  0  0  0  0  0
    0.7263   -1.6614    0.0000 C   0  0  0  0  0  0  0  0  0  0  0  0
   -0.7414   -1.3517    0.0000 C   0  0  0  0  0  0  0  0  0  0  0  0
  2  1  1  6
  2  3  1  0
  3  4  1  0
  4  5  1  0
  5  6  2  0
  5  7  1  0
  7  8  1  0
  8  9  1  0
  9 10  1  0
 10 11  2  0
 10 12  1  0
  2 13  1  0
 13 14  1  6
 14 15  1  0
 16 15  1  6
 16 17  1  0
 17 18  1  1
 18 19  1  1
 18 20  1  0
 21 20  1  1
 21 22  1  0
 22 23  1  0
 23 24  1  1
 23 25  1  0
 25 26  1  0
 26 27  1  0
 27 28  1  6
 27 29  1  0
 29 30  1  6
 30 31  1  0
 31 32  1  1
 31 33  1  0
 33 34  1  6
 33 13  1  0
 33 16  1  0
 29 17  1  0
 27 21  1  0
M  END
>  <MS_ID>  (882) 
MS0918

>  <SMILES>  (882) 
C[C@H](CCC(=O)CSCC(=O)O)[C@H]1CC[C@H]2[C@@H]3[C@H](O)C[C@@H]4C[C@H](O)CC[C@]4(C)[C@H]3C[C@H](O)[C@]12C

>  <Structure_dimension>  (882) 
2D

$$$$
MS0919
     RDKit          2D

 35 38  0  0  0  0  0  0  0  0999 V2000
   -2.2673   -4.0990    0.0000 C   0  0  0  0  0  0  0  0  0  0  0  0
   -1.4994   -2.8105    0.0000 C   0  0  0  0  0  0  0  0  0  0  0  0
   -2.2314   -1.5012    0.0000 C   0  0  0  0  0  0  0  0  0  0  0  0
   -3.7312   -1.4805    0.0000 C   0  0  0  0  0  0  0  0  0  0  0  0
   -4.4632   -0.1712    0.0000 C   0  0  0  0  0  0  0  0  0  0  0  0
   -3.6953    1.1174    0.0000 O   0  0  0  0  0  0  0  0  0  0  0  0
   -5.9630   -0.1505    0.0000 C   0  0  0  0  0  0  0  0  0  0  0  0
   -6.7309   -1.4390    0.0000 O   0  0  0  0  0  0  0  0  0  0  0  0
   -6.6950    1.1588    0.0000 N   0  0  0  0  0  0  0  0  0  0  0  0
   -8.1949    1.1796    0.0000 C   0  0  0  0  0  0  0  0  0  0  0  0
   -8.9268    2.4888    0.0000 C   0  0  0  0  0  0  0  0  0  0  0  0
   -8.1590    3.7774    0.0000 O   0  0  0  0  0  0  0  0  0  0  0  0
  -10.4267    2.5096    0.0000 O   0  0  0  0  0  0  0  0  0  0  0  0
    0.0005   -2.8312    0.0000 C   0  0  0  0  0  0  0  0  0  0  0  0
    0.8653   -4.0568    0.0000 C   0  0  0  0  0  0  0  0  0  0  0  0
    2.2981   -3.6131    0.0000 C   0  0  0  0  0  0  0  0  0  0  0  0
    2.3189   -2.1132    0.0000 C   0  0  0  0  0  0  0  0  0  0  0  0
    3.4474   -1.1250    0.0000 C   0  0  0  0  0  0  0  0  0  0  0  0
    4.8674   -1.6082    0.0000 C   0  0  0  0  0  0  0  0  0  0  0  0
    5.1590   -3.0796    0.0000 O   0  0  0  0  0  0  0  0  0  0  0  0
    5.9959   -0.6200    0.0000 C   0  0  0  0  0  0  0  0  0  0  0  0
    5.7043    0.8514    0.0000 C   0  0  0  0  0  0  0  0  0  0  0  0
    6.8328    1.8396    0.0000 C   0  0  0  0  0  0  0  0  0  0  0  0
    6.5413    3.3110    0.0000 C   0  0  0  0  0  0  0  0  0  0  0  0
    7.6697    4.2991    0.0000 O   0  0  0  0  0  0  0  0  0  0  0  0
    5.1212    3.7942    0.0000 C   0  0  0  0  0  0  0  0  0  0  0  0
    3.9927    2.8060    0.0000 C   0  0  0  0  0  0  0  0  0  0  0  0
    4.2843    1.3346    0.0000 C   0  0  0  0  0  0  0  0  0  0  0  0
    2.8643    1.8178    0.0000 C   0  0  0  0  0  0  0  0  0  0  0  0
    3.1558    0.3464    0.0000 C   0  0  0  0  0  0  0  0  0  0  0  0
    1.7358    0.8296    0.0000 C   0  0  0  0  0  0  0  0  0  0  0  0
    0.6073   -0.1586    0.0000 C   0  0  0  0  0  0  0  0  0  0  0  0
   -0.8128    0.3246    0.0000 O   0  0  0  0  0  0  0  0  0  0  0  0
    0.8988   -1.6300    0.0000 C   0  0  0  0  0  0  0  0  0  0  0  0
   -0.5639   -1.2979    0.0000 C   0  0  0  0  0  0  0  0  0  0  0  0
  2  1  1  6
  2  3  1  0
  3  4  1  0
  4  5  1  0
  5  6  2  0
  5  7  1  0
  7  8  2  0
  7  9  1  0
  9 10  1  0
 10 11  1  0
 11 12  2  0
 11 13  1  0
  2 14  1  0
 14 15  1  6
 15 16  1  0
 17 16  1  6
 17 18  1  0
 18 19  1  1
 19 20  1  1
 19 21  1  0
 22 21  1  1
 22 23  1  0
 23 24  1  0
 24 25  1  1
 24 26  1  0
 26 27  1  0
 27 28  1  0
 28 29  1  6
 28 30  1  0
 30 31  1  6
 31 32  1  0
 32 33  1  1
 32 34  1  0
 34 35  1  6
 34 14  1  0
 34 17  1  0
 30 18  1  0
 28 22  1  0
M  END
>  <MS_ID>  (883) 
MS0919

>  <SMILES>  (883) 
C[C@H](CCC(=O)C(=O)NCC(=O)O)[C@H]1CC[C@H]2[C@@H]3[C@H](O)C[C@@H]4C[C@H](O)CC[C@]4(C)[C@H]3C[C@H](O)[C@]12C

>  <Structure_dimension>  (883) 
2D

$$$$
MS0920
     RDKit          2D

 41 45  0  0  0  0  0  0  0  0999 V2000
   -7.8790   -2.1838    0.0000 C   0  0  0  0  0  0  0  0  0  0  0  0
   -6.7258   -1.2247    0.0000 C   0  0  0  0  0  0  0  0  0  0  0  0
   -6.9798    0.2537    0.0000 C   0  0  0  0  0  0  0  0  0  0  0  0
   -8.3871    0.7728    0.0000 C   0  0  0  0  0  0  0  0  0  0  0  0
   -8.6411    2.2512    0.0000 C   0  0  0  0  0  0  0  0  0  0  0  0
   -7.4878    3.2103    0.0000 O   0  0  0  0  0  0  0  0  0  0  0  0
  -10.0484    2.7703    0.0000 O   0  0  0  0  0  0  0  0  0  0  0  0
   -5.3185   -1.7438    0.0000 C   0  0  0  0  0  0  0  0  0  0  0  0
   -4.9113   -3.1875    0.0000 C   0  0  0  0  0  0  0  0  0  0  0  0
   -3.4125   -3.2464    0.0000 C   0  0  0  0  0  0  0  0  0  0  0  0
   -2.8933   -1.8391    0.0000 C   0  0  0  0  0  0  0  0  0  0  0  0
   -1.5001   -1.2833    0.0000 C   0  0  0  0  0  0  0  0  0  0  0  0
   -0.3221   -2.2119    0.0000 C   0  0  0  0  0  0  0  0  0  0  0  0
   -0.5373   -3.6964    0.0000 O   0  0  0  0  0  0  0  0  0  0  0  0
    1.0711   -1.6561    0.0000 C   0  0  0  0  0  0  0  0  0  0  0  0
    1.2863   -0.1716    0.0000 C   0  0  0  0  0  0  0  0  0  0  0  0
    2.6796    0.3843    0.0000 C   0  0  0  0  0  0  0  0  0  0  0  0
    2.8948    1.8687    0.0000 C   0  0  0  0  0  0  0  0  0  0  0  0
    4.2880    2.4246    0.0000 O   0  0  0  0  0  0  0  0  0  0  0  0
    5.4660    1.4959    0.0000 C   0  0  0  0  0  0  0  0  0  0  0  0
    5.2508    0.0115    0.0000 O   0  0  0  0  0  0  0  0  0  0  0  0
    6.4287   -0.9172    0.0000 C   0  0  0  0  0  0  0  0  0  0  0  0
    6.2135   -2.4016    0.0000 C   0  0  0  0  0  0  0  0  0  0  0  0
    7.3915   -3.3303    0.0000 O   0  0  0  0  0  0  0  0  0  0  0  0
    4.8203   -2.9575    0.0000 O   0  0  0  0  0  0  0  0  0  0  0  0
    7.8219   -0.3613    0.0000 C   0  0  0  0  0  0  0  0  0  0  0  0
    8.9999   -1.2900    0.0000 O   0  0  0  0  0  0  0  0  0  0  0  0
    8.0372    1.1232    0.0000 C   0  0  0  0  0  0  0  0  0  0  0  0
    9.4304    1.6790    0.0000 O   0  0  0  0  0  0  0  0  0  0  0  0
    6.8592    2.0518    0.0000 C   0  0  0  0  0  0  0  0  0  0  0  0
    7.0744    3.5363    0.0000 O   0  0  0  0  0  0  0  0  0  0  0  0
    1.7168    2.7974    0.0000 C   0  0  0  0  0  0  0  0  0  0  0  0
    0.3236    2.2415    0.0000 C   0  0  0  0  0  0  0  0  0  0  0  0
    0.1084    0.7571    0.0000 C   0  0  0  0  0  0  0  0  0  0  0  0
   -1.0696    1.6857    0.0000 C   0  0  0  0  0  0  0  0  0  0  0  0
   -1.2848    0.2012    0.0000 C   0  0  0  0  0  0  0  0  0  0  0  0
   -2.4628    1.1298    0.0000 C   0  0  0  0  0  0  0  0  0  0  0  0
   -3.8560    0.5740    0.0000 C   0  0  0  0  0  0  0  0  0  0  0  0
   -5.0340    1.5026    0.0000 O   0  0  0  0  0  0  0  0  0  0  0  0
   -4.0713   -0.9105    0.0000 C   0  0  0  0  0  0  0  0  0  0  0  0
   -5.3399   -0.1101    0.0000 C   0  0  0  0  0  0  0  0  0  0  0  0
  2  1  1  6
  2  3  1  0
  3  4  1  0
  4  5  1  0
  5  6  2  0
  5  7  1  0
  2  8  1  0
  8  9  1  6
  9 10  1  0
 11 10  1  6
 11 12  1  0
 12 13  1  1
 13 14  1  1
 13 15  1  0
 16 15  1  1
 16 17  1  0
 17 18  1  0
 18 19  1  1
 20 19  1  6
 20 21  1  0
 21 22  1  0
 22 23  1  1
 23 24  2  0
 23 25  1  0
 22 26  1  0
 26 27  1  1
 26 28  1  0
 28 29  1  1
 28 30  1  0
 30 31  1  1
 18 32  1  0
 32 33  1  0
 33 34  1  0
 34 35  1  6
 34 36  1  0
 36 37  1  6
 37 38  1  0
 38 39  1  1
 38 40  1  0
 40 41  1  6
 40  8  1  0
 40 11  1  0
 36 12  1  0
 34 16  1  0
 30 20  1  0
M  END
>  <MS_ID>  (884) 
MS0920

>  <SMILES>  (884) 
C[C@H](CCC(=O)O)[C@H]1CC[C@H]2[C@@H]3[C@H](O)C[C@@H]4C[C@H](O[C@H]5O[C@H](C(=O)O)[C@H](O)[C@H](O)[C@@H]5O)CC[C@]4(C)[C@H]3C[C@H](O)[C@]12C

>  <Structure_dimension>  (884) 
2D

$$$$
MS0921
     RDKit          2D

 34 37  0  0  0  0  0  0  0  0999 V2000
   -2.0927   -4.3294    0.0000 C   0  0  0  0  0  0  0  0  0  0  0  0
   -1.3265   -3.0399    0.0000 C   0  0  0  0  0  0  0  0  0  0  0  0
   -2.0603   -1.7316    0.0000 C   0  0  0  0  0  0  0  0  0  0  0  0
   -3.5602   -1.7128    0.0000 C   0  0  0  0  0  0  0  0  0  0  0  0
   -4.2939   -0.4046    0.0000 C   0  0  0  0  0  0  0  0  0  0  0  0
   -3.5277    0.8850    0.0000 O   0  0  0  0  0  0  0  0  0  0  0  0
   -5.7938   -0.3858    0.0000 N   0  0  0  0  0  0  0  0  0  0  0  0
   -6.5275    0.9225    0.0000 S   0  0  0  0  0  0  0  0  0  0  0  0
   -5.2192    1.6562    0.0000 O   0  0  0  0  0  0  0  0  0  0  0  0
   -7.8358    0.1887    0.0000 O   0  0  0  0  0  0  0  0  0  0  0  0
   -7.2612    2.2308    0.0000 C   0  0  0  0  0  0  0  0  0  0  0  0
   -5.9529    2.9645    0.0000 F   0  0  0  0  0  0  0  0  0  0  0  0
   -8.5695    1.4970    0.0000 F   0  0  0  0  0  0  0  0  0  0  0  0
   -7.9950    3.5391    0.0000 F   0  0  0  0  0  0  0  0  0  0  0  0
    0.1733   -3.0586    0.0000 C   0  0  0  0  0  0  0  0  0  0  0  0
    1.0398   -4.2830    0.0000 C   0  0  0  0  0  0  0  0  0  0  0  0
    2.4721   -3.8373    0.0000 C   0  0  0  0  0  0  0  0  0  0  0  0
    2.4908   -2.3374    0.0000 C   0  0  0  0  0  0  0  0  0  0  0  0
    3.6179   -1.3477    0.0000 C   0  0  0  0  0  0  0  0  0  0  0  0
    5.0386   -1.8290    0.0000 C   0  0  0  0  0  0  0  0  0  0  0  0
    6.1658   -0.8393    0.0000 C   0  0  0  0  0  0  0  0  0  0  0  0
    5.8723    0.6317    0.0000 C   0  0  0  0  0  0  0  0  0  0  0  0
    6.9994    1.6214    0.0000 C   0  0  0  0  0  0  0  0  0  0  0  0
    6.7059    3.0924    0.0000 C   0  0  0  0  0  0  0  0  0  0  0  0
    7.8330    4.0821    0.0000 O   0  0  0  0  0  0  0  0  0  0  0  0
    5.2852    3.5737    0.0000 C   0  0  0  0  0  0  0  0  0  0  0  0
    4.1580    2.5840    0.0000 C   0  0  0  0  0  0  0  0  0  0  0  0
    4.4516    1.1130    0.0000 C   0  0  0  0  0  0  0  0  0  0  0  0
    3.0309    1.5943    0.0000 C   0  0  0  0  0  0  0  0  0  0  0  0
    3.3244    0.1233    0.0000 C   0  0  0  0  0  0  0  0  0  0  0  0
    1.9037    0.6045    0.0000 C   0  0  0  0  0  0  0  0  0  0  0  0
    0.7766   -0.3852    0.0000 C   0  0  0  0  0  0  0  0  0  0  0  0
    1.0701   -1.8562    0.0000 C   0  0  0  0  0  0  0  0  0  0  0  0
   -0.3931   -1.5260    0.0000 C   0  0  0  0  0  0  0  0  0  0  0  0
  2  1  1  6
  2  3  1  0
  3  4  1  0
  4  5  1  0
  5  6  2  0
  5  7  1  0
  7  8  1  0
  8  9  2  0
  8 10  2  0
  8 11  1  0
 11 12  1  0
 11 13  1  0
 11 14  1  0
  2 15  1  0
 15 16  1  6
 16 17  1  0
 18 17  1  6
 18 19  1  0
 19 20  1  1
 20 21  1  0
 22 21  1  1
 22 23  1  0
 23 24  1  0
 24 25  1  1
 24 26  1  0
 26 27  1  0
 27 28  1  0
 28 29  1  6
 28 30  1  0
 30 31  1  6
 31 32  1  0
 32 33  1  0
 33 34  1  6
 33 15  1  0
 33 18  1  0
 30 19  1  0
 28 22  1  0
M  END
>  <MS_ID>  (885) 
MS0921

>  <SMILES>  (885) 
C[C@H](CCC(=O)NS(=O)(=O)C(F)(F)F)[C@H]1CC[C@H]2[C@@H]3CC[C@@H]4C[C@H](O)CC[C@]4(C)[C@H]3CC[C@]12C

>  <Structure_dimension>  (885) 
2D

$$$$
MS0922
     RDKit          2D

 30 33  0  0  0  0  0  0  0  0999 V2000
   -3.0505   -3.6493    0.0000 C   0  0  0  0  0  0  0  0  0  0  0  0
   -2.2252   -2.3967    0.0000 C   0  0  0  0  0  0  0  0  0  0  0  0
   -2.8973   -1.0557    0.0000 C   0  0  0  0  0  0  0  0  0  0  0  0
   -4.3947   -0.9673    0.0000 C   0  0  0  0  0  0  0  0  0  0  0  0
   -5.0668    0.3737    0.0000 C   0  0  0  0  0  0  0  0  0  0  0  0
   -4.2415    1.6263    0.0000 O   0  0  0  0  0  0  0  0  0  0  0  0
   -6.5642    0.4622    0.0000 O   0  0  0  0  0  0  0  0  0  0  0  0
   -7.2363    1.8032    0.0000 C   0  0  0  0  0  0  0  0  0  0  0  0
   -8.7337    1.8916    0.0000 C   0  0  0  0  0  0  0  0  0  0  0  0
   -9.4058    3.2326    0.0000 O   0  0  0  0  0  0  0  0  0  0  0  0
   -0.7278   -2.4852    0.0000 C   0  0  0  0  0  0  0  0  0  0  0  0
    0.0808   -3.7486    0.0000 C   0  0  0  0  0  0  0  0  0  0  0  0
    1.5322   -3.3700    0.0000 C   0  0  0  0  0  0  0  0  0  0  0  0
    1.6207   -1.8726    0.0000 C   0  0  0  0  0  0  0  0  0  0  0  0
    2.7926   -0.9364    0.0000 C   0  0  0  0  0  0  0  0  0  0  0  0
    4.1894   -1.4832    0.0000 C   0  0  0  0  0  0  0  0  0  0  0  0
    4.4142   -2.9662    0.0000 O   0  0  0  0  0  0  0  0  0  0  0  0
    5.3613   -0.5470    0.0000 C   0  0  0  0  0  0  0  0  0  0  0  0
    5.1365    0.9361    0.0000 C   0  0  0  0  0  0  0  0  0  0  0  0
    6.3085    1.8723    0.0000 C   0  0  0  0  0  0  0  0  0  0  0  0
    6.0837    3.3554    0.0000 C   0  0  0  0  0  0  0  0  0  0  0  0
    4.6869    3.9022    0.0000 C   0  0  0  0  0  0  0  0  0  0  0  0
    3.5149    2.9660    0.0000 C   0  0  0  0  0  0  0  0  0  0  0  0
    3.7398    1.4829    0.0000 C   0  0  0  0  0  0  0  0  0  0  0  0
    2.3430    2.0298    0.0000 C   0  0  0  0  0  0  0  0  0  0  0  0
    2.5678    0.5467    0.0000 C   0  0  0  0  0  0  0  0  0  0  0  0
    1.1710    1.0935    0.0000 C   0  0  0  0  0  0  0  0  0  0  0  0
   -0.0009    0.1573    0.0000 C   0  0  0  0  0  0  0  0  0  0  0  0
    0.2239   -1.3257    0.0000 C   0  0  0  0  0  0  0  0  0  0  0  0
   -1.2224   -0.9279    0.0000 C   0  0  0  0  0  0  0  0  0  0  0  0
  2  1  1  6
  2  3  1  0
  3  4  1  0
  4  5  1  0
  5  6  2  0
  5  7  1  0
  7  8  1  0
  8  9  1  0
  9 10  1  0
  2 11  1  0
 11 12  1  6
 12 13  1  0
 14 13  1  6
 14 15  1  0
 15 16  1  1
 16 17  1  1
 16 18  1  0
 19 18  1  1
 19 20  1  0
 20 21  1  0
 21 22  1  0
 22 23  1  0
 23 24  1  0
 24 25  1  6
 24 26  1  0
 26 27  1  6
 27 28  1  0
 28 29  1  0
 29 30  1  6
 29 11  1  0
 29 14  1  0
 26 15  1  0
 24 19  1  0
M  END
>  <MS_ID>  (886) 
MS0922

>  <SMILES>  (886) 
C[C@H](CCC(=O)OCCO)[C@H]1CC[C@H]2[C@@H]3[C@H](O)C[C@@H]4CCCC[C@]4(C)[C@H]3CC[C@]12C

>  <Structure_dimension>  (886) 
2D

$$$$
MS0923
     RDKit          2D

 35 38  0  0  0  0  0  0  0  0999 V2000
   -3.8582   -3.8789    0.0000 C   0  0  0  0  0  0  0  0  0  0  0  0
   -3.1699   -2.5461    0.0000 C   0  0  0  0  0  0  0  0  0  0  0  0
   -3.9799   -1.2837    0.0000 C   0  0  0  0  0  0  0  0  0  0  0  0
   -5.4783   -1.3539    0.0000 C   0  0  0  0  0  0  0  0  0  0  0  0
   -6.2883   -0.0915    0.0000 C   0  0  0  0  0  0  0  0  0  0  0  0
   -7.7867   -0.1617    0.0000 O   0  0  0  0  0  0  0  0  0  0  0  0
   -5.6000    1.2413    0.0000 O   0  0  0  0  0  0  0  0  0  0  0  0
   -6.4100    2.5038    0.0000 C   0  0  0  0  0  0  0  0  0  0  0  0
   -7.9084    2.4335    0.0000 O   0  0  0  0  0  0  0  0  0  0  0  0
   -5.7217    3.8365    0.0000 O   0  0  0  0  0  0  0  0  0  0  0  0
   -1.6715   -2.4759    0.0000 C   0  0  0  0  0  0  0  0  0  0  0  0
   -0.7340   -3.6468    0.0000 C   0  0  0  0  0  0  0  0  0  0  0  0
    0.6693   -3.1169    0.0000 C   0  0  0  0  0  0  0  0  0  0  0  0
    0.5991   -1.6186    0.0000 C   0  0  0  0  0  0  0  0  0  0  0  0
    1.6655   -0.5638    0.0000 C   0  0  0  0  0  0  0  0  0  0  0  0
    3.1123   -0.9599    0.0000 C   0  0  0  0  0  0  0  0  0  0  0  0
    3.4925   -2.4109    0.0000 O   0  0  0  0  0  0  0  0  0  0  0  0
    4.9392   -2.8071    0.0000 S   0  0  0  0  0  0  0  0  0  0  0  0
    5.3354   -1.3604    0.0000 O   0  0  0  0  0  0  0  0  0  0  0  0
    4.5431   -4.2539    0.0000 O   0  0  0  0  0  0  0  0  0  0  0  0
    6.3860   -3.2033    0.0000 O   0  0  0  0  0  0  0  0  0  0  0  0
    4.1787    0.0949    0.0000 C   0  0  0  0  0  0  0  0  0  0  0  0
    3.7985    1.5459    0.0000 C   0  0  0  0  0  0  0  0  0  0  0  0
    4.8650    2.6007    0.0000 C   0  0  0  0  0  0  0  0  0  0  0  0
    4.4847    4.0517    0.0000 C   0  0  0  0  0  0  0  0  0  0  0  0
    5.5512    5.1065    0.0000 O   0  0  0  0  0  0  0  0  0  0  0  0
    3.0380    4.4479    0.0000 C   0  0  0  0  0  0  0  0  0  0  0  0
    1.9715    3.3931    0.0000 C   0  0  0  0  0  0  0  0  0  0  0  0
    2.3517    1.9421    0.0000 C   0  0  0  0  0  0  0  0  0  0  0  0
    0.9050    2.3382    0.0000 C   0  0  0  0  0  0  0  0  0  0  0  0
    1.2853    0.8872    0.0000 C   0  0  0  0  0  0  0  0  0  0  0  0
   -0.1615    1.2834    0.0000 C   0  0  0  0  0  0  0  0  0  0  0  0
   -1.2279    0.2286    0.0000 C   0  0  0  0  0  0  0  0  0  0  0  0
   -0.8477   -1.2224    0.0000 C   0  0  0  0  0  0  0  0  0  0  0  0
   -2.3279   -0.9796    0.0000 C   0  0  0  0  0  0  0  0  0  0  0  0
  2  1  1  6
  2  3  1  0
  3  4  1  0
  4  5  1  0
  5  6  2  0
  5  7  1  0
  7  8  1  0
  8  9  2  0
  8 10  1  0
  2 11  1  0
 11 12  1  6
 12 13  1  0
 14 13  1  6
 14 15  1  0
 15 16  1  1
 16 17  1  6
 17 18  1  0
 18 19  2  0
 18 20  2  0
 18 21  1  0
 16 22  1  0
 23 22  1  1
 23 24  1  0
 24 25  1  0
 25 26  1  1
 25 27  1  0
 27 28  1  0
 28 29  1  0
 29 30  1  6
 29 31  1  0
 31 32  1  6
 32 33  1  0
 33 34  1  0
 34 35  1  6
 34 11  1  0
 34 14  1  0
 31 15  1  0
 29 23  1  0
M  END
>  <MS_ID>  (887) 
MS0923

>  <SMILES>  (887) 
C[C@H](CCC(=O)OC(=O)O)[C@H]1CC[C@H]2[C@@H]3[C@@H](OS(=O)(=O)O)C[C@@H]4C[C@H](O)CC[C@]4(C)[C@H]3CC[C@]12C

>  <Structure_dimension>  (887) 
2D

$$$$
MS0924
     RDKit          2D

 31 34  0  0  0  0  0  0  0  0999 V2000
   -6.5478   -1.4565    0.0000 C   0  0  0  0  0  0  0  0  0  0  0  0
   -5.2869   -0.6441    0.0000 C   0  0  0  0  0  0  0  0  0  0  0  0
   -5.3600    0.8541    0.0000 C   0  0  0  0  0  0  0  0  0  0  0  0
   -6.6941    1.5399    0.0000 C   0  0  0  0  0  0  0  0  0  0  0  0
   -6.7672    3.0381    0.0000 C   0  0  0  0  0  0  0  0  0  0  0  0
   -8.1013    3.7239    0.0000 O   0  0  0  0  0  0  0  0  0  0  0  0
   -3.9528   -1.3299    0.0000 C   0  0  0  0  0  0  0  0  0  0  0  0
   -3.7235   -2.8122    0.0000 C   0  0  0  0  0  0  0  0  0  0  0  0
   -2.2428   -3.0522    0.0000 C   0  0  0  0  0  0  0  0  0  0  0  0
   -1.5570   -1.7181    0.0000 C   0  0  0  0  0  0  0  0  0  0  0  0
   -0.1067   -1.3351    0.0000 C   0  0  0  0  0  0  0  0  0  0  0  0
    0.9501   -2.3995    0.0000 C   0  0  0  0  0  0  0  0  0  0  0  0
    0.5567   -3.8470    0.0000 O   0  0  0  0  0  0  0  0  0  0  0  0
    2.4004   -2.0165    0.0000 C   0  0  0  0  0  0  0  0  0  0  0  0
    2.7938   -0.5690    0.0000 C   0  0  0  0  0  0  0  0  0  0  0  0
    4.2441   -0.1860    0.0000 C   0  0  0  0  0  0  0  0  0  0  0  0
    4.6375    1.2615    0.0000 C   0  0  0  0  0  0  0  0  0  0  0  0
    6.0878    1.6445    0.0000 O   0  0  0  0  0  0  0  0  0  0  0  0
    7.1446    0.5801    0.0000 S   0  0  0  0  0  0  0  0  0  0  0  0
    6.0802   -0.4768    0.0000 O   0  0  0  0  0  0  0  0  0  0  0  0
    8.2091    1.6369    0.0000 O   0  0  0  0  0  0  0  0  0  0  0  0
    8.2015   -0.4844    0.0000 O   0  0  0  0  0  0  0  0  0  0  0  0
    3.5806    2.3260    0.0000 C   0  0  0  0  0  0  0  0  0  0  0  0
    2.1304    1.9429    0.0000 C   0  0  0  0  0  0  0  0  0  0  0  0
    1.7370    0.4954    0.0000 C   0  0  0  0  0  0  0  0  0  0  0  0
    0.6801    1.5599    0.0000 C   0  0  0  0  0  0  0  0  0  0  0  0
    0.2867    0.1124    0.0000 C   0  0  0  0  0  0  0  0  0  0  0  0
   -0.7702    1.1769    0.0000 C   0  0  0  0  0  0  0  0  0  0  0  0
   -2.2204    0.7938    0.0000 C   0  0  0  0  0  0  0  0  0  0  0  0
   -2.6139   -0.6537    0.0000 C   0  0  0  0  0  0  0  0  0  0  0  0
   -3.7762    0.2945    0.0000 C   0  0  0  0  0  0  0  0  0  0  0  0
  2  1  1  6
  2  3  1  0
  3  4  1  0
  4  5  1  0
  5  6  2  0
  2  7  1  0
  7  8  1  6
  8  9  1  0
 10  9  1  6
 10 11  1  0
 11 12  1  1
 12 13  1  6
 12 14  1  0
 15 14  1  1
 15 16  1  0
 16 17  1  0
 17 18  1  1
 18 19  1  0
 19 20  2  0
 19 21  2  0
 19 22  1  0
 17 23  1  0
 23 24  1  0
 24 25  1  0
 25 26  1  6
 25 27  1  0
 27 28  1  6
 28 29  1  0
 29 30  1  0
 30 31  1  6
 30  7  1  0
 30 10  1  0
 27 11  1  0
 25 15  1  0
M  END
>  <MS_ID>  (888) 
MS0924

>  <SMILES>  (888) 
C[C@H](CCC=O)[C@H]1CC[C@H]2[C@@H]3[C@@H](O)C[C@@H]4C[C@H](OS(=O)(=O)O)CC[C@]4(C)[C@H]3CC[C@]12C

>  <Structure_dimension>  (888) 
2D

$$$$
MS0926
     RDKit          2D

 30 33  0  0  0  0  0  0  0  0999 V2000
   -5.8393   -1.8075    0.0000 C   0  0  0  0  0  0  0  0  0  0  0  0
   -4.6087   -0.9498    0.0000 C   0  0  0  0  0  0  0  0  0  0  0  0
   -4.7361    0.5448    0.0000 C   0  0  0  0  0  0  0  0  0  0  0  0
   -6.0942    1.1817    0.0000 C   0  0  0  0  0  0  0  0  0  0  0  0
   -6.2216    2.6763    0.0000 C   0  0  0  0  0  0  0  0  0  0  0  0
   -4.9910    3.5339    0.0000 O   0  0  0  0  0  0  0  0  0  0  0  0
   -7.5797    3.3132    0.0000 O   0  0  0  0  0  0  0  0  0  0  0  0
   -3.2506   -1.5867    0.0000 C   0  0  0  0  0  0  0  0  0  0  0  0
   -2.9677   -3.0598    0.0000 C   0  0  0  0  0  0  0  0  0  0  0  0
   -1.4793   -3.2459    0.0000 C   0  0  0  0  0  0  0  0  0  0  0  0
   -0.8423   -1.8878    0.0000 C   0  0  0  0  0  0  0  0  0  0  0  0
    0.5931   -1.4525    0.0000 C   0  0  0  0  0  0  0  0  0  0  0  0
    1.6878   -2.4779    0.0000 C   0  0  0  0  0  0  0  0  0  0  0  0
    1.3472   -3.9387    0.0000 O   0  0  0  0  0  0  0  0  0  0  0  0
    3.1233   -2.0425    0.0000 C   0  0  0  0  0  0  0  0  0  0  0  0
    3.4639   -0.5817    0.0000 C   0  0  0  0  0  0  0  0  0  0  0  0
    4.8993   -0.1463    0.0000 C   0  0  0  0  0  0  0  0  0  0  0  0
    5.2400    1.3145    0.0000 C   0  0  0  0  0  0  0  0  0  0  0  0
    6.6754    1.7499    0.0000 C   0  0  0  0  0  0  0  0  0  0  0  0
    7.7702    0.7245    0.0000 C   0  0  0  0  0  0  0  0  0  0  0  0
    9.2056    1.1599    0.0000 O   0  0  0  0  0  0  0  0  0  0  0  0
    4.1452    2.3399    0.0000 C   0  0  0  0  0  0  0  0  0  0  0  0
    2.7098    1.9045    0.0000 C   0  0  0  0  0  0  0  0  0  0  0  0
    2.3692    0.4437    0.0000 C   0  0  0  0  0  0  0  0  0  0  0  0
    1.2744    1.4692    0.0000 C   0  0  0  0  0  0  0  0  0  0  0  0
    0.9337    0.0084    0.0000 C   0  0  0  0  0  0  0  0  0  0  0  0
   -0.1610    1.0338    0.0000 C   0  0  0  0  0  0  0  0  0  0  0  0
   -1.5965    0.5984    0.0000 C   0  0  0  0  0  0  0  0  0  0  0  0
   -1.9371   -0.8624    0.0000 C   0  0  0  0  0  0  0  0  0  0  0  0
   -3.1331    0.0429    0.0000 C   0  0  0  0  0  0  0  0  0  0  0  0
  2  1  1  6
  2  3  1  0
  3  4  1  0
  4  5  1  0
  5  6  2  0
  5  7  1  0
  2  8  1  0
  8  9  1  6
  9 10  1  0
 11 10  1  6
 11 12  1  0
 12 13  1  1
 13 14  1  6
 13 15  1  0
 16 15  1  1
 16 17  1  0
 17 18  1  0
 18 19  1  1
 19 20  1  0
 20 21  1  0
 18 22  1  0
 22 23  1  0
 23 24  1  0
 24 25  1  6
 24 26  1  0
 26 27  1  6
 27 28  1  0
 28 29  1  0
 29 30  1  6
 29  8  1  0
 29 11  1  0
 26 12  1  0
 24 16  1  0
M  END
>  <MS_ID>  (889) 
MS0926

>  <SMILES>  (889) 
C[C@H](CCC(=O)O)[C@H]1CC[C@H]2[C@@H]3[C@@H](O)C[C@@H]4C[C@H](CCO)CC[C@]4(C)[C@H]3CC[C@]12C

>  <Structure_dimension>  (889) 
2D

$$$$
MS0927
     RDKit          2D

 30 33  0  0  0  0  0  0  0  0999 V2000
   -3.1596   -3.8878    0.0000 C   0  0  0  0  0  0  0  0  0  0  0  0
   -2.3064   -2.6540    0.0000 C   0  0  0  0  0  0  0  0  0  0  0  0
   -2.9483   -1.2983    0.0000 C   0  0  0  0  0  0  0  0  0  0  0  0
   -4.4433   -1.1763    0.0000 C   0  0  0  0  0  0  0  0  0  0  0  0
   -5.0852    0.1794    0.0000 C   0  0  0  0  0  0  0  0  0  0  0  0
   -6.5803    0.3014    0.0000 O   0  0  0  0  0  0  0  0  0  0  0  0
   -4.2321    1.4132    0.0000 O   0  0  0  0  0  0  0  0  0  0  0  0
   -4.8740    2.7689    0.0000 S   0  0  0  0  0  0  0  0  0  0  0  0
   -6.2297    2.1270    0.0000 O   0  0  0  0  0  0  0  0  0  0  0  0
   -3.5182    3.4108    0.0000 O   0  0  0  0  0  0  0  0  0  0  0  0
   -5.5158    4.1246    0.0000 O   0  0  0  0  0  0  0  0  0  0  0  0
   -0.8114   -2.7760    0.0000 C   0  0  0  0  0  0  0  0  0  0  0  0
   -0.0313   -4.0572    0.0000 C   0  0  0  0  0  0  0  0  0  0  0  0
    1.4282   -3.7112    0.0000 C   0  0  0  0  0  0  0  0  0  0  0  0
    1.5502   -2.2162    0.0000 C   0  0  0  0  0  0  0  0  0  0  0  0
    2.7429   -1.3064    0.0000 C   0  0  0  0  0  0  0  0  0  0  0  0
    4.1270   -1.8844    0.0000 C   0  0  0  0  0  0  0  0  0  0  0  0
    5.3197   -0.9747    0.0000 C   0  0  0  0  0  0  0  0  0  0  0  0
    5.1281    0.5130    0.0000 C   0  0  0  0  0  0  0  0  0  0  0  0
    6.3208    1.4227    0.0000 C   0  0  0  0  0  0  0  0  0  0  0  0
    6.1293    2.9105    0.0000 C   0  0  0  0  0  0  0  0  0  0  0  0
    4.7451    3.4885    0.0000 C   0  0  0  0  0  0  0  0  0  0  0  0
    3.5525    2.5787    0.0000 C   0  0  0  0  0  0  0  0  0  0  0  0
    3.7440    1.0910    0.0000 C   0  0  0  0  0  0  0  0  0  0  0  0
    2.3598    1.6690    0.0000 C   0  0  0  0  0  0  0  0  0  0  0  0
    2.5513    0.1813    0.0000 C   0  0  0  0  0  0  0  0  0  0  0  0
    1.1672    0.7593    0.0000 C   0  0  0  0  0  0  0  0  0  0  0  0
   -0.0255   -0.1505    0.0000 C   0  0  0  0  0  0  0  0  0  0  0  0
    0.1660   -1.6382    0.0000 C   0  0  0  0  0  0  0  0  0  0  0  0
   -1.2710   -1.2080    0.0000 C   0  0  0  0  0  0  0  0  0  0  0  0
  2  1  1  6
  2  3  1  0
  3  4  1  0
  4  5  1  0
  5  6  2  0
  5  7  1  0
  7  8  1  0
  8  9  2  0
  8 10  2  0
  8 11  1  0
  2 12  1  0
 12 13  1  6
 13 14  1  0
 15 14  1  6
 15 16  1  0
 16 17  1  1
 17 18  1  0
 19 18  1  1
 19 20  1  0
 20 21  1  0
 21 22  1  0
 22 23  1  0
 23 24  1  0
 24 25  1  6
 24 26  1  0
 26 27  1  6
 27 28  1  0
 28 29  1  0
 29 30  1  6
 29 12  1  0
 29 15  1  0
 26 16  1  0
 24 19  1  0
M  END
>  <MS_ID>  (890) 
MS0927

>  <SMILES>  (890) 
C[C@H](CCC(=O)OS(=O)(=O)O)[C@H]1CC[C@H]2[C@@H]3CC[C@@H]4CCCC[C@]4(C)[C@H]3CC[C@]12C

>  <Structure_dimension>  (890) 
2D

$$$$
MS0928
     RDKit          2D

 31 34  0  0  0  0  0  0  0  0999 V2000
   -5.9226   -1.7341    0.0000 C   0  0  0  0  0  0  0  0  0  0  0  0
   -4.6300   -0.9732    0.0000 C   0  0  0  0  0  0  0  0  0  0  0  0
   -4.6426    0.5267    0.0000 C   0  0  0  0  0  0  0  0  0  0  0  0
   -5.9479    1.2657    0.0000 C   0  0  0  0  0  0  0  0  0  0  0  0
   -5.9606    2.7657    0.0000 C   0  0  0  0  0  0  0  0  0  0  0  0
   -4.6680    3.5266    0.0000 O   0  0  0  0  0  0  0  0  0  0  0  0
   -7.2659    3.5047    0.0000 O   0  0  0  0  0  0  0  0  0  0  0  0
   -3.3246   -1.7122    0.0000 C   0  0  0  0  0  0  0  0  0  0  0  0
   -3.1552   -3.2026    0.0000 C   0  0  0  0  0  0  0  0  0  0  0  0
   -1.6854   -3.5021    0.0000 C   0  0  0  0  0  0  0  0  0  0  0  0
   -0.9464   -2.1967    0.0000 C   0  0  0  0  0  0  0  0  0  0  0  0
    0.5181   -1.8725    0.0000 C   0  0  0  0  0  0  0  0  0  0  0  0
    1.5312   -2.9787    0.0000 C   0  0  0  0  0  0  0  0  0  0  0  0
    2.9957   -2.6545    0.0000 C   0  0  0  0  0  0  0  0  0  0  0  0
    3.4472   -1.2240    0.0000 C   0  0  0  0  0  0  0  0  0  0  0  0
    4.9117   -0.8998    0.0000 C   0  0  0  0  0  0  0  0  0  0  0  0
    5.3632    0.5307    0.0000 C   0  0  0  0  0  0  0  0  0  0  0  0
    6.6935   -0.1623    0.0000 O   0  0  0  0  0  0  0  0  0  0  0  0
    6.2766    1.7205    0.0000 C   0  0  0  0  0  0  0  0  0  0  0  0
    5.7030    3.1064    0.0000 O   0  0  0  0  0  0  0  0  0  0  0  0
    7.7638    1.5243    0.0000 O   0  0  0  0  0  0  0  0  0  0  0  0
    4.3501    1.6369    0.0000 C   0  0  0  0  0  0  0  0  0  0  0  0
    2.8856    1.3126    0.0000 C   0  0  0  0  0  0  0  0  0  0  0  0
    2.4341   -0.1178    0.0000 C   0  0  0  0  0  0  0  0  0  0  0  0
    1.4210    0.9884    0.0000 C   0  0  0  0  0  0  0  0  0  0  0  0
    0.9696   -0.4421    0.0000 C   0  0  0  0  0  0  0  0  0  0  0  0
   -0.0435    0.6641    0.0000 C   0  0  0  0  0  0  0  0  0  0  0  0
   -1.5080    0.3399    0.0000 C   0  0  0  0  0  0  0  0  0  0  0  0
   -2.5211    1.4461    0.0000 O   0  0  0  0  0  0  0  0  0  0  0  0
   -1.9595   -1.0905    0.0000 C   0  0  0  0  0  0  0  0  0  0  0  0
   -3.0827   -0.0963    0.0000 C   0  0  0  0  0  0  0  0  0  0  0  0
  2  1  1  6
  2  3  1  0
  3  4  1  0
  4  5  1  0
  5  6  2  0
  5  7  1  0
  2  8  1  0
  8  9  1  6
  9 10  1  0
 11 10  1  6
 11 12  1  0
 12 13  1  1
 13 14  1  0
 15 14  1  1
 15 16  1  0
 16 17  1  0
 17 18  1  6
 17 19  1  0
 19 20  2  0
 19 21  1  0
 17 22  1  0
 22 23  1  0
 23 24  1  0
 24 25  1  6
 24 26  1  0
 26 27  1  6
 27 28  1  0
 28 29  1  1
 28 30  1  0
 30 31  1  6
 30  8  1  0
 30 11  1  0
 26 12  1  0
 24 15  1  0
M  END
>  <MS_ID>  (891) 
MS0928

>  <SMILES>  (891) 
C[C@H](CCC(=O)O)[C@H]1CC[C@H]2[C@@H]3CC[C@@H]4C[C@](O)(C(=O)O)CC[C@]4(C)[C@H]3C[C@H](O)[C@]12C

>  <Structure_dimension>  (891) 
2D

$$$$
MS0929
     RDKit          2D

 33 36  0  0  0  0  0  0  0  0999 V2000
   -2.3545   -4.2141    0.0000 C   0  0  0  0  0  0  0  0  0  0  0  0
   -1.5746   -2.9328    0.0000 C   0  0  0  0  0  0  0  0  0  0  0  0
   -2.2943   -1.6167    0.0000 C   0  0  0  0  0  0  0  0  0  0  0  0
   -3.7939   -1.5819    0.0000 C   0  0  0  0  0  0  0  0  0  0  0  0
   -4.5135   -0.2658    0.0000 C   0  0  0  0  0  0  0  0  0  0  0  0
   -3.7336    1.0155    0.0000 O   0  0  0  0  0  0  0  0  0  0  0  0
   -6.0131   -0.2310    0.0000 O   0  0  0  0  0  0  0  0  0  0  0  0
   -6.7328    1.0851    0.0000 C   0  0  0  0  0  0  0  0  0  0  0  0
   -8.2324    1.1199    0.0000 C   0  0  0  0  0  0  0  0  0  0  0  0
   -8.9520    2.4360    0.0000 C   0  0  0  0  0  0  0  0  0  0  0  0
   -8.1721    3.7173    0.0000 O   0  0  0  0  0  0  0  0  0  0  0  0
  -10.4516    2.4708    0.0000 O   0  0  0  0  0  0  0  0  0  0  0  0
   -0.0750   -2.9676    0.0000 C   0  0  0  0  0  0  0  0  0  0  0  0
    0.7783   -4.2012    0.0000 C   0  0  0  0  0  0  0  0  0  0  0  0
    2.2152   -3.7709    0.0000 C   0  0  0  0  0  0  0  0  0  0  0  0
    2.2500   -2.2713    0.0000 C   0  0  0  0  0  0  0  0  0  0  0  0
    3.3877   -1.2938    0.0000 C   0  0  0  0  0  0  0  0  0  0  0  0
    4.8032   -1.7903    0.0000 C   0  0  0  0  0  0  0  0  0  0  0  0
    5.9409   -0.8127    0.0000 C   0  0  0  0  0  0  0  0  0  0  0  0
    5.6632    0.6614    0.0000 C   0  0  0  0  0  0  0  0  0  0  0  0
    6.8009    1.6389    0.0000 C   0  0  0  0  0  0  0  0  0  0  0  0
    6.5231    3.1130    0.0000 C   0  0  0  0  0  0  0  0  0  0  0  0
    7.6608    4.0905    0.0000 O   0  0  0  0  0  0  0  0  0  0  0  0
    5.1077    3.6095    0.0000 C   0  0  0  0  0  0  0  0  0  0  0  0
    3.9700    2.6319    0.0000 C   0  0  0  0  0  0  0  0  0  0  0  0
    4.2477    1.1579    0.0000 C   0  0  0  0  0  0  0  0  0  0  0  0
    2.8323    1.6544    0.0000 C   0  0  0  0  0  0  0  0  0  0  0  0
    3.1100    0.1803    0.0000 C   0  0  0  0  0  0  0  0  0  0  0  0
    1.6946    0.6768    0.0000 C   0  0  0  0  0  0  0  0  0  0  0  0
    0.5569   -0.3008    0.0000 C   0  0  0  0  0  0  0  0  0  0  0  0
   -0.8586    0.1957    0.0000 O   0  0  0  0  0  0  0  0  0  0  0  0
    0.8346   -1.7748    0.0000 C   0  0  0  0  0  0  0  0  0  0  0  0
   -0.6250   -1.4290    0.0000 C   0  0  0  0  0  0  0  0  0  0  0  0
  2  1  1  6
  2  3  1  0
  3  4  1  0
  4  5  1  0
  5  6  2  0
  5  7  1  0
  7  8  1  0
  8  9  1  0
  9 10  1  0
 10 11  2  0
 10 12  1  0
  2 13  1  0
 13 14  1  6
 14 15  1  0
 16 15  1  6
 16 17  1  0
 17 18  1  1
 18 19  1  0
 20 19  1  1
 20 21  1  0
 21 22  1  0
 22 23  1  1
 22 24  1  0
 24 25  1  0
 25 26  1  0
 26 27  1  6
 26 28  1  0
 28 29  1  6
 29 30  1  0
 30 31  1  1
 30 32  1  0
 32 33  1  6
 32 13  1  0
 32 16  1  0
 28 17  1  0
 26 20  1  0
M  END
>  <MS_ID>  (892) 
MS0929

>  <SMILES>  (892) 
C[C@H](CCC(=O)OCCC(=O)O)[C@H]1CC[C@H]2[C@@H]3CC[C@@H]4C[C@H](O)CC[C@]4(C)[C@H]3C[C@H](O)[C@]12C

>  <Structure_dimension>  (892) 
2D

$$$$
MS0930
     RDKit          2D

 30 33  0  0  0  0  0  0  0  0999 V2000
   -4.5685   -2.6908    0.0000 C   0  0  0  0  0  0  0  0  0  0  0  0
   -3.4838   -1.6548    0.0000 C   0  0  0  0  0  0  0  0  0  0  0  0
   -3.8388   -0.1974    0.0000 C   0  0  0  0  0  0  0  0  0  0  0  0
   -5.2784    0.2240    0.0000 C   0  0  0  0  0  0  0  0  0  0  0  0
   -5.6333    1.6814    0.0000 C   0  0  0  0  0  0  0  0  0  0  0  0
   -4.5486    2.7174    0.0000 O   0  0  0  0  0  0  0  0  0  0  0  0
   -7.0729    2.1027    0.0000 C   0  0  0  0  0  0  0  0  0  0  0  0
   -7.4279    3.5601    0.0000 S   0  0  0  0  0  0  0  0  0  0  0  0
   -2.0442   -2.0761    0.0000 C   0  0  0  0  0  0  0  0  0  0  0  0
   -1.5389   -3.4884    0.0000 C   0  0  0  0  0  0  0  0  0  0  0  0
   -0.0395   -3.4442    0.0000 C   0  0  0  0  0  0  0  0  0  0  0  0
    0.3818   -2.0046    0.0000 C   0  0  0  0  0  0  0  0  0  0  0  0
    1.7336   -1.3544    0.0000 C   0  0  0  0  0  0  0  0  0  0  0  0
    2.9725   -2.1999    0.0000 C   0  0  0  0  0  0  0  0  0  0  0  0
    2.8597   -3.6957    0.0000 O   0  0  0  0  0  0  0  0  0  0  0  0
    4.3243   -1.5497    0.0000 C   0  0  0  0  0  0  0  0  0  0  0  0
    4.4371   -0.0540    0.0000 C   0  0  0  0  0  0  0  0  0  0  0  0
    5.7888    0.5962    0.0000 C   0  0  0  0  0  0  0  0  0  0  0  0
    5.9016    2.0920    0.0000 C   0  0  0  0  0  0  0  0  0  0  0  0
    7.2534    2.7422    0.0000 O   0  0  0  0  0  0  0  0  0  0  0  0
    4.6627    2.9375    0.0000 C   0  0  0  0  0  0  0  0  0  0  0  0
    3.3109    2.2873    0.0000 C   0  0  0  0  0  0  0  0  0  0  0  0
    3.1981    0.7916    0.0000 C   0  0  0  0  0  0  0  0  0  0  0  0
    1.9591    1.6371    0.0000 C   0  0  0  0  0  0  0  0  0  0  0  0
    1.8464    0.1414    0.0000 C   0  0  0  0  0  0  0  0  0  0  0  0
    0.6074    0.9869    0.0000 C   0  0  0  0  0  0  0  0  0  0  0  0
   -0.7444    0.3367    0.0000 C   0  0  0  0  0  0  0  0  0  0  0  0
   -1.9833    1.1823    0.0000 O   0  0  0  0  0  0  0  0  0  0  0  0
   -0.8572   -1.1590    0.0000 C   0  0  0  0  0  0  0  0  0  0  0  0
   -2.1777   -0.4476    0.0000 C   0  0  0  0  0  0  0  0  0  0  0  0
  2  1  1  6
  2  3  1  0
  3  4  1  0
  4  5  1  0
  5  6  2  0
  5  7  1  0
  7  8  1  0
  2  9  1  0
  9 10  1  6
 10 11  1  0
 12 11  1  6
 12 13  1  0
 13 14  1  1
 14 15  1  6
 14 16  1  0
 17 16  1  1
 17 18  1  0
 18 19  1  0
 19 20  1  6
 19 21  1  0
 21 22  1  0
 22 23  1  0
 23 24  1  6
 23 25  1  0
 25 26  1  6
 26 27  1  0
 27 28  1  1
 27 29  1  0
 29 30  1  6
 29  9  1  0
 29 12  1  0
 25 13  1  0
 23 17  1  0
M  END
>  <MS_ID>  (893) 
MS0930

>  <SMILES>  (893) 
C[C@H](CCC(=O)CS)[C@H]1CC[C@H]2[C@@H]3[C@@H](O)C[C@@H]4C[C@@H](O)CC[C@]4(C)[C@H]3C[C@H](O)[C@]12C

>  <Structure_dimension>  (893) 
2D

$$$$
MS0931
     RDKit          2D

 35 39  0  0  0  0  0  0  0  0999 V2000
   -2.9651   -3.2875    0.0000 C   0  0  0  0  0  0  0  0  0  0  0  0
   -1.9978   -2.1411    0.0000 C   0  0  0  0  0  0  0  0  0  0  0  0
   -2.5070   -0.7301    0.0000 C   0  0  0  0  0  0  0  0  0  0  0  0
   -3.9835   -0.4656    0.0000 C   0  0  0  0  0  0  0  0  0  0  0  0
   -4.4927    0.9453    0.0000 C   0  0  0  0  0  0  0  0  0  0  0  0
   -3.5254    2.0917    0.0000 O   0  0  0  0  0  0  0  0  0  0  0  0
   -5.9692    1.2098    0.0000 C   0  0  0  0  0  0  0  0  0  0  0  0
   -6.4784    2.6207    0.0000 C   0  0  0  0  0  0  0  0  0  0  0  0
   -7.9549    2.8852    0.0000 C   0  0  0  0  0  0  0  0  0  0  0  0
   -8.9222    1.7388    0.0000 C   0  0  0  0  0  0  0  0  0  0  0  0
   -8.4130    0.3279    0.0000 C   0  0  0  0  0  0  0  0  0  0  0  0
   -6.9365    0.0634    0.0000 C   0  0  0  0  0  0  0  0  0  0  0  0
   -6.4273   -1.3476    0.0000 O   0  0  0  0  0  0  0  0  0  0  0  0
   -0.5213   -2.4056    0.0000 C   0  0  0  0  0  0  0  0  0  0  0  0
    0.1326   -3.7555    0.0000 C   0  0  0  0  0  0  0  0  0  0  0  0
    1.6185   -3.5508    0.0000 C   0  0  0  0  0  0  0  0  0  0  0  0
    1.8830   -2.0743    0.0000 C   0  0  0  0  0  0  0  0  0  0  0  0
    3.1573   -1.2829    0.0000 C   0  0  0  0  0  0  0  0  0  0  0  0
    4.4798   -1.9907    0.0000 C   0  0  0  0  0  0  0  0  0  0  0  0
    4.5280   -3.4900    0.0000 O   0  0  0  0  0  0  0  0  0  0  0  0
    5.7540   -1.1993    0.0000 C   0  0  0  0  0  0  0  0  0  0  0  0
    5.7057    0.2999    0.0000 C   0  0  0  0  0  0  0  0  0  0  0  0
    6.9800    1.0913    0.0000 C   0  0  0  0  0  0  0  0  0  0  0  0
    6.9317    2.5905    0.0000 C   0  0  0  0  0  0  0  0  0  0  0  0
    8.2059    3.3819    0.0000 O   0  0  0  0  0  0  0  0  0  0  0  0
    5.6092    3.2983    0.0000 C   0  0  0  0  0  0  0  0  0  0  0  0
    4.3350    2.5069    0.0000 C   0  0  0  0  0  0  0  0  0  0  0  0
    4.3832    1.0077    0.0000 C   0  0  0  0  0  0  0  0  0  0  0  0
    3.0607    1.7155    0.0000 C   0  0  0  0  0  0  0  0  0  0  0  0
    3.1090    0.2163    0.0000 C   0  0  0  0  0  0  0  0  0  0  0  0
    1.7865    0.9241    0.0000 C   0  0  0  0  0  0  0  0  0  0  0  0
    0.5123    0.1327    0.0000 C   0  0  0  0  0  0  0  0  0  0  0  0
   -0.8102    0.8405    0.0000 O   0  0  0  0  0  0  0  0  0  0  0  0
    0.5605   -1.3665    0.0000 C   0  0  0  0  0  0  0  0  0  0  0  0
   -0.8287   -0.8008    0.0000 C   0  0  0  0  0  0  0  0  0  0  0  0
  2  1  1  6
  2  3  1  0
  3  4  1  0
  4  5  1  0
  5  6  2  0
  5  7  1  0
  7  8  2  0
  8  9  1  0
  9 10  2  0
 10 11  1  0
 11 12  2  0
 12 13  1  0
  2 14  1  0
 14 15  1  6
 15 16  1  0
 17 16  1  6
 17 18  1  0
 18 19  1  1
 19 20  1  1
 19 21  1  0
 22 21  1  1
 22 23  1  0
 23 24  1  0
 24 25  1  1
 24 26  1  0
 26 27  1  0
 27 28  1  0
 28 29  1  6
 28 30  1  0
 30 31  1  6
 31 32  1  0
 32 33  1  1
 32 34  1  0
 34 35  1  6
 12  7  1  0
 34 14  1  0
 34 17  1  0
 30 18  1  0
 28 22  1  0
M  END
>  <MS_ID>  (894) 
MS0931

>  <SMILES>  (894) 
C[C@H](CCC(=O)c1ccccc1O)[C@H]1CC[C@H]2[C@@H]3[C@H](O)C[C@@H]4C[C@H](O)CC[C@]4(C)[C@H]3C[C@H](O)[C@]12C

>  <Structure_dimension>  (894) 
2D

$$$$
MS0932
     RDKit          2D

 39 43  0  0  0  0  0  0  0  0999 V2000
   -0.6953   -4.6897    0.0000 C   0  0  0  0  0  0  0  0  0  0  0  0
   -0.1066   -3.3101    0.0000 C   0  0  0  0  0  0  0  0  0  0  0  0
   -1.0070   -2.1104    0.0000 C   0  0  0  0  0  0  0  0  0  0  0  0
   -2.4962   -2.2904    0.0000 C   0  0  0  0  0  0  0  0  0  0  0  0
   -3.3966   -1.0907    0.0000 C   0  0  0  0  0  0  0  0  0  0  0  0
   -2.8079    0.2889    0.0000 O   0  0  0  0  0  0  0  0  0  0  0  0
   -4.8858   -1.2707    0.0000 N   0  0  0  0  0  0  0  0  0  0  0  0
   -5.7862   -0.0710    0.0000 C   0  0  0  0  0  0  0  0  0  0  0  0
   -5.1975    1.3086    0.0000 C   0  0  0  0  0  0  0  0  0  0  0  0
   -6.0979    2.5083    0.0000 C   0  0  0  0  0  0  0  0  0  0  0  0
   -7.5871    2.3284    0.0000 C   0  0  0  0  0  0  0  0  0  0  0  0
   -8.4875    3.5280    0.0000 O   0  0  0  0  0  0  0  0  0  0  0  0
   -8.1758    0.9487    0.0000 C   0  0  0  0  0  0  0  0  0  0  0  0
   -9.6650    0.7688    0.0000 C   0  0  0  0  0  0  0  0  0  0  0  0
  -10.5654    1.9684    0.0000 O   0  0  0  0  0  0  0  0  0  0  0  0
  -10.2537   -0.6109    0.0000 O   0  0  0  0  0  0  0  0  0  0  0  0
   -7.2754   -0.2510    0.0000 C   0  0  0  0  0  0  0  0  0  0  0  0
    1.3826   -3.1301    0.0000 C   0  0  0  0  0  0  0  0  0  0  0  0
    2.4035   -4.2291    0.0000 C   0  0  0  0  0  0  0  0  0  0  0  0
    3.7642   -3.5978    0.0000 C   0  0  0  0  0  0  0  0  0  0  0  0
    3.5842   -2.1086    0.0000 C   0  0  0  0  0  0  0  0  0  0  0  0
    4.5705   -0.9784    0.0000 C   0  0  0  0  0  0  0  0  0  0  0  0
    6.0424   -1.2674    0.0000 C   0  0  0  0  0  0  0  0  0  0  0  0
    6.5280   -2.6866    0.0000 O   0  0  0  0  0  0  0  0  0  0  0  0
    7.0286   -0.1372    0.0000 C   0  0  0  0  0  0  0  0  0  0  0  0
    6.5430    1.2820    0.0000 C   0  0  0  0  0  0  0  0  0  0  0  0
    7.5292    2.4121    0.0000 C   0  0  0  0  0  0  0  0  0  0  0  0
    7.0436    3.8314    0.0000 C   0  0  0  0  0  0  0  0  0  0  0  0
    8.0298    4.9615    0.0000 O   0  0  0  0  0  0  0  0  0  0  0  0
    5.5717    4.1204    0.0000 C   0  0  0  0  0  0  0  0  0  0  0  0
    4.5854    2.9902    0.0000 C   0  0  0  0  0  0  0  0  0  0  0  0
    5.0711    1.5710    0.0000 C   0  0  0  0  0  0  0  0  0  0  0  0
    3.5992    1.8600    0.0000 C   0  0  0  0  0  0  0  0  0  0  0  0
    4.0848    0.4408    0.0000 C   0  0  0  0  0  0  0  0  0  0  0  0
    2.6129    0.7298    0.0000 C   0  0  0  0  0  0  0  0  0  0  0  0
    1.6267   -0.4004    0.0000 C   0  0  0  0  0  0  0  0  0  0  0  0
    0.1548   -0.1113    0.0000 O   0  0  0  0  0  0  0  0  0  0  0  0
    2.1123   -1.8196    0.0000 C   0  0  0  0  0  0  0  0  0  0  0  0
    0.6183   -1.6860    0.0000 C   0  0  0  0  0  0  0  0  0  0  0  0
  2  1  1  6
  2  3  1  0
  3  4  1  0
  4  5  1  0
  5  6  2  0
  5  7  1  0
  7  8  1  0
  8  9  2  0
  9 10  1  0
 10 11  2  0
 11 12  1  0
 11 13  1  0
 13 14  1  0
 14 15  2  0
 14 16  1  0
 13 17  2  0
  2 18  1  0
 18 19  1  6
 19 20  1  0
 21 20  1  6
 21 22  1  0
 22 23  1  1
 23 24  1  1
 23 25  1  0
 26 25  1  1
 26 27  1  0
 27 28  1  0
 28 29  1  1
 28 30  1  0
 30 31  1  0
 31 32  1  0
 32 33  1  6
 32 34  1  0
 34 35  1  6
 35 36  1  0
 36 37  1  1
 36 38  1  0
 38 39  1  6
 17  8  1  0
 38 18  1  0
 38 21  1  0
 34 22  1  0
 32 26  1  0
M  END
>  <MS_ID>  (895) 
MS0932

>  <SMILES>  (895) 
C[C@H](CCC(=O)Nc1ccc(O)c(C(=O)O)c1)[C@H]1CC[C@H]2[C@@H]3[C@H](O)C[C@@H]4C[C@H](O)CC[C@]4(C)[C@H]3C[C@H](O)[C@]12C

>  <Structure_dimension>  (895) 
2D

$$$$
MS0933
     RDKit          2D

 35 38  0  0  0  0  0  0  0  0999 V2000
   -3.0309   -2.8642    0.0000 C   0  0  0  0  0  0  0  0  0  0  0  0
   -1.9775   -1.7964    0.0000 C   0  0  0  0  0  0  0  0  0  0  0  0
   -2.3755   -0.3502    0.0000 C   0  0  0  0  0  0  0  0  0  0  0  0
   -3.8270    0.0282    0.0000 C   0  0  0  0  0  0  0  0  0  0  0  0
   -4.2251    1.4744    0.0000 C   0  0  0  0  0  0  0  0  0  0  0  0
   -3.1717    2.5423    0.0000 O   0  0  0  0  0  0  0  0  0  0  0  0
   -5.6766    1.8528    0.0000 N   0  0  0  0  0  0  0  0  0  0  0  0
   -6.0747    3.2990    0.0000 C   0  0  0  0  0  0  0  0  0  0  0  0
   -6.7300    0.7849    0.0000 C   0  0  0  0  0  0  0  0  0  0  0  0
   -8.1815    1.1633    0.0000 C   0  0  0  0  0  0  0  0  0  0  0  0
   -9.2349    0.0954    0.0000 N   0  0  0  0  0  0  0  0  0  0  0  0
  -10.6864    0.4738    0.0000 C   0  0  0  0  0  0  0  0  0  0  0  0
   -8.8369   -1.3508    0.0000 C   0  0  0  0  0  0  0  0  0  0  0  0
   -0.5260   -2.1748    0.0000 C   0  0  0  0  0  0  0  0  0  0  0  0
    0.0211   -3.5714    0.0000 C   0  0  0  0  0  0  0  0  0  0  0  0
    1.5185   -3.4827    0.0000 C   0  0  0  0  0  0  0  0  0  0  0  0
    1.8968   -2.0312    0.0000 C   0  0  0  0  0  0  0  0  0  0  0  0
    3.2287   -1.3412    0.0000 C   0  0  0  0  0  0  0  0  0  0  0  0
    4.4922   -2.1496    0.0000 C   0  0  0  0  0  0  0  0  0  0  0  0
    4.4239   -3.6480    0.0000 O   0  0  0  0  0  0  0  0  0  0  0  0
    5.8241   -1.4595    0.0000 C   0  0  0  0  0  0  0  0  0  0  0  0
    5.8924    0.0389    0.0000 C   0  0  0  0  0  0  0  0  0  0  0  0
    7.2242    0.7290    0.0000 C   0  0  0  0  0  0  0  0  0  0  0  0
    7.2925    2.2274    0.0000 C   0  0  0  0  0  0  0  0  0  0  0  0
    8.6244    2.9175    0.0000 O   0  0  0  0  0  0  0  0  0  0  0  0
    6.0290    3.0358    0.0000 C   0  0  0  0  0  0  0  0  0  0  0  0
    4.6972    2.3458    0.0000 C   0  0  0  0  0  0  0  0  0  0  0  0
    4.6288    0.8473    0.0000 C   0  0  0  0  0  0  0  0  0  0  0  0
    3.3653    1.6557    0.0000 C   0  0  0  0  0  0  0  0  0  0  0  0
    3.2970    0.1573    0.0000 C   0  0  0  0  0  0  0  0  0  0  0  0
    2.0335    0.9656    0.0000 C   0  0  0  0  0  0  0  0  0  0  0  0
    0.7016    0.2756    0.0000 C   0  0  0  0  0  0  0  0  0  0  0  0
   -0.5619    1.0840    0.0000 O   0  0  0  0  0  0  0  0  0  0  0  0
    0.6333   -1.2229    0.0000 C   0  0  0  0  0  0  0  0  0  0  0  0
   -0.7078   -0.5510    0.0000 C   0  0  0  0  0  0  0  0  0  0  0  0
  2  1  1  6
  2  3  1  0
  3  4  1  0
  4  5  1  0
  5  6  2  0
  5  7  1  0
  7  8  1  0
  7  9  1  0
  9 10  1  0
 10 11  1  0
 11 12  1  0
 11 13  1  0
  2 14  1  0
 14 15  1  6
 15 16  1  0
 17 16  1  6
 17 18  1  0
 18 19  1  1
 19 20  1  1
 19 21  1  0
 22 21  1  1
 22 23  1  0
 23 24  1  0
 24 25  1  1
 24 26  1  0
 26 27  1  0
 27 28  1  0
 28 29  1  6
 28 30  1  0
 30 31  1  6
 31 32  1  0
 32 33  1  1
 32 34  1  0
 34 35  1  6
 34 14  1  0
 34 17  1  0
 30 18  1  0
 28 22  1  0
M  END
>  <MS_ID>  (896) 
MS0933

>  <SMILES>  (896) 
C[C@H](CCC(=O)N(C)CCN(C)C)[C@H]1CC[C@H]2[C@@H]3[C@H](O)C[C@@H]4C[C@H](O)CC[C@]4(C)[C@H]3C[C@H](O)[C@]12C

>  <Structure_dimension>  (896) 
2D

$$$$
MS0934
     RDKit          2D

 29 32  0  0  0  0  0  0  0  0999 V2000
   -3.6590   -3.2430    0.0000 C   0  0  0  0  0  0  0  0  0  0  0  0
   -2.7318   -2.0639    0.0000 C   0  0  0  0  0  0  0  0  0  0  0  0
   -3.2894   -0.6714    0.0000 C   0  0  0  0  0  0  0  0  0  0  0  0
   -4.7741   -0.4579    0.0000 C   0  0  0  0  0  0  0  0  0  0  0  0
   -5.3316    0.9346    0.0000 C   0  0  0  0  0  0  0  0  0  0  0  0
   -4.4044    2.1137    0.0000 O   0  0  0  0  0  0  0  0  0  0  0  0
   -6.8164    1.1480    0.0000 C   0  0  0  0  0  0  0  0  0  0  0  0
   -7.3739    2.5406    0.0000 C   0  0  0  0  0  0  0  0  0  0  0  0
   -8.8586    2.7540    0.0000 O   0  0  0  0  0  0  0  0  0  0  0  0
   -1.2471   -2.2773    0.0000 C   0  0  0  0  0  0  0  0  0  0  0  0
   -0.5471   -3.6040    0.0000 C   0  0  0  0  0  0  0  0  0  0  0  0
    0.9310   -3.3481    0.0000 C   0  0  0  0  0  0  0  0  0  0  0  0
    1.1444   -1.8634    0.0000 C   0  0  0  0  0  0  0  0  0  0  0  0
    2.3906   -1.0285    0.0000 C   0  0  0  0  0  0  0  0  0  0  0  0
    3.7367   -1.6903    0.0000 C   0  0  0  0  0  0  0  0  0  0  0  0
    3.8366   -3.1870    0.0000 O   0  0  0  0  0  0  0  0  0  0  0  0
    4.9829   -0.8554    0.0000 C   0  0  0  0  0  0  0  0  0  0  0  0
    4.8830    0.6412    0.0000 C   0  0  0  0  0  0  0  0  0  0  0  0
    6.1292    1.4761    0.0000 C   0  0  0  0  0  0  0  0  0  0  0  0
    6.0292    2.9728    0.0000 C   0  0  0  0  0  0  0  0  0  0  0  0
    4.6831    3.6346    0.0000 C   0  0  0  0  0  0  0  0  0  0  0  0
    3.4369    2.7997    0.0000 C   0  0  0  0  0  0  0  0  0  0  0  0
    3.5369    1.3030    0.0000 C   0  0  0  0  0  0  0  0  0  0  0  0
    2.1907    1.9648    0.0000 C   0  0  0  0  0  0  0  0  0  0  0  0
    2.2907    0.4681    0.0000 C   0  0  0  0  0  0  0  0  0  0  0  0
    0.9445    1.1299    0.0000 C   0  0  0  0  0  0  0  0  0  0  0  0
   -0.3016    0.2951    0.0000 C   0  0  0  0  0  0  0  0  0  0  0  0
   -0.2017   -1.2016    0.0000 C   0  0  0  0  0  0  0  0  0  0  0  0
   -1.6096   -0.6841    0.0000 C   0  0  0  0  0  0  0  0  0  0  0  0
  2  1  1  6
  2  3  1  0
  3  4  1  0
  4  5  1  0
  5  6  2  0
  5  7  1  0
  7  8  1  0
  8  9  1  0
  2 10  1  0
 10 11  1  6
 11 12  1  0
 13 12  1  6
 13 14  1  0
 14 15  1  1
 15 16  1  1
 15 17  1  0
 18 17  1  1
 18 19  1  0
 19 20  1  0
 20 21  1  0
 21 22  1  0
 22 23  1  0
 23 24  1  6
 23 25  1  0
 25 26  1  6
 26 27  1  0
 27 28  1  0
 28 29  1  6
 28 10  1  0
 28 13  1  0
 25 14  1  0
 23 18  1  0
M  END
>  <MS_ID>  (897) 
MS0934

>  <SMILES>  (897) 
C[C@H](CCC(=O)CCO)[C@H]1CC[C@H]2[C@@H]3[C@H](O)C[C@@H]4CCCC[C@]4(C)[C@H]3CC[C@]12C

>  <Structure_dimension>  (897) 
2D

$$$$
MS0935
     RDKit          2D

 31 34  0  0  0  0  0  0  0  0999 V2000
   -3.5119   -3.5779    0.0000 C   0  0  0  0  0  0  0  0  0  0  0  0
   -2.6109   -2.3787    0.0000 C   0  0  0  0  0  0  0  0  0  0  0  0
   -3.1991   -0.9988    0.0000 C   0  0  0  0  0  0  0  0  0  0  0  0
   -4.6881   -0.8181    0.0000 C   0  0  0  0  0  0  0  0  0  0  0  0
   -5.2762    0.5618    0.0000 C   0  0  0  0  0  0  0  0  0  0  0  0
   -4.3753    1.7610    0.0000 O   0  0  0  0  0  0  0  0  0  0  0  0
   -6.7653    0.7424    0.0000 N   0  0  0  0  0  0  0  0  0  0  0  0
   -7.3534    2.1223    0.0000 C   0  0  0  0  0  0  0  0  0  0  0  0
   -8.8425    2.3029    0.0000 C   0  0  0  0  0  0  0  0  0  0  0  0
   -9.4306    3.6828    0.0000 O   0  0  0  0  0  0  0  0  0  0  0  0
   -1.1219   -2.5593    0.0000 C   0  0  0  0  0  0  0  0  0  0  0  0
   -0.3927   -3.8702    0.0000 C   0  0  0  0  0  0  0  0  0  0  0  0
    1.0793   -3.5818    0.0000 C   0  0  0  0  0  0  0  0  0  0  0  0
    1.2599   -2.0927    0.0000 C   0  0  0  0  0  0  0  0  0  0  0  0
    2.4874   -1.2306    0.0000 C   0  0  0  0  0  0  0  0  0  0  0  0
    3.8478   -1.8625    0.0000 C   0  0  0  0  0  0  0  0  0  0  0  0
    3.9807   -3.3566    0.0000 O   0  0  0  0  0  0  0  0  0  0  0  0
    5.0753   -1.0003    0.0000 C   0  0  0  0  0  0  0  0  0  0  0  0
    4.9423    0.4938    0.0000 C   0  0  0  0  0  0  0  0  0  0  0  0
    6.1698    1.3559    0.0000 C   0  0  0  0  0  0  0  0  0  0  0  0
    6.0369    2.8500    0.0000 C   0  0  0  0  0  0  0  0  0  0  0  0
    7.2644    3.7122    0.0000 O   0  0  0  0  0  0  0  0  0  0  0  0
    4.6765    3.4820    0.0000 C   0  0  0  0  0  0  0  0  0  0  0  0
    3.4490    2.6198    0.0000 C   0  0  0  0  0  0  0  0  0  0  0  0
    3.5820    1.1257    0.0000 C   0  0  0  0  0  0  0  0  0  0  0  0
    2.2216    1.7576    0.0000 C   0  0  0  0  0  0  0  0  0  0  0  0
    2.3545    0.2635    0.0000 C   0  0  0  0  0  0  0  0  0  0  0  0
    0.9941    0.8955    0.0000 C   0  0  0  0  0  0  0  0  0  0  0  0
   -0.2334    0.0333    0.0000 C   0  0  0  0  0  0  0  0  0  0  0  0
   -0.1005   -1.4608    0.0000 C   0  0  0  0  0  0  0  0  0  0  0  0
   -1.5195   -0.9745    0.0000 C   0  0  0  0  0  0  0  0  0  0  0  0
  2  1  1  6
  2  3  1  0
  3  4  1  0
  4  5  1  0
  5  6  2  0
  5  7  1  0
  7  8  1  0
  8  9  1  0
  9 10  1  0
  2 11  1  0
 11 12  1  6
 12 13  1  0
 14 13  1  6
 14 15  1  0
 15 16  1  1
 16 17  1  1
 16 18  1  0
 19 18  1  1
 19 20  1  0
 20 21  1  0
 21 22  1  6
 21 23  1  0
 23 24  1  0
 24 25  1  0
 25 26  1  6
 25 27  1  0
 27 28  1  6
 28 29  1  0
 29 30  1  0
 30 31  1  6
 30 11  1  0
 30 14  1  0
 27 15  1  0
 25 19  1  0
M  END
>  <MS_ID>  (898) 
MS0935

>  <SMILES>  (898) 
C[C@H](CCC(=O)NCCO)[C@H]1CC[C@H]2[C@@H]3[C@H](O)C[C@@H]4C[C@@H](O)CC[C@]4(C)[C@H]3CC[C@]12C

>  <Structure_dimension>  (898) 
2D

$$$$
MS0936
     RDKit          2D

 34 37  0  0  0  0  0  0  0  0999 V2000
   -4.1628   -3.3031    0.0000 C   0  0  0  0  0  0  0  0  0  0  0  0
   -3.1416   -2.2044    0.0000 C   0  0  0  0  0  0  0  0  0  0  0  0
   -3.5825   -0.7706    0.0000 C   0  0  0  0  0  0  0  0  0  0  0  0
   -5.0447   -0.4356    0.0000 C   0  0  0  0  0  0  0  0  0  0  0  0
   -5.4856    0.9981    0.0000 C   0  0  0  0  0  0  0  0  0  0  0  0
   -4.4644    2.0968    0.0000 O   0  0  0  0  0  0  0  0  0  0  0  0
   -6.9477    1.3331    0.0000 C   0  0  0  0  0  0  0  0  0  0  0  0
   -7.3886    2.7669    0.0000 O   0  0  0  0  0  0  0  0  0  0  0  0
   -1.6795   -2.5394    0.0000 C   0  0  0  0  0  0  0  0  0  0  0  0
   -1.0912   -3.9192    0.0000 C   0  0  0  0  0  0  0  0  0  0  0  0
    0.4029   -3.7860    0.0000 C   0  0  0  0  0  0  0  0  0  0  0  0
    0.7379   -2.3239    0.0000 C   0  0  0  0  0  0  0  0  0  0  0  0
    2.0487   -1.5945    0.0000 C   0  0  0  0  0  0  0  0  0  0  0  0
    3.3357   -2.3650    0.0000 C   0  0  0  0  0  0  0  0  0  0  0  0
    3.3120   -3.8648    0.0000 O   0  0  0  0  0  0  0  0  0  0  0  0
    4.6464   -1.6356    0.0000 C   0  0  0  0  0  0  0  0  0  0  0  0
    4.6701   -0.1358    0.0000 C   0  0  0  0  0  0  0  0  0  0  0  0
    5.9809    0.5936    0.0000 C   0  0  0  0  0  0  0  0  0  0  0  0
    6.0046    2.0934    0.0000 C   0  0  0  0  0  0  0  0  0  0  0  0
    7.3153    2.8228    0.0000 O   0  0  0  0  0  0  0  0  0  0  0  0
    4.7176    2.8638    0.0000 C   0  0  0  0  0  0  0  0  0  0  0  0
    3.4068    2.1345    0.0000 C   0  0  0  0  0  0  0  0  0  0  0  0
    3.3831    0.6347    0.0000 C   0  0  0  0  0  0  0  0  0  0  0  0
    2.0961    1.4051    0.0000 C   0  0  0  0  0  0  0  0  0  0  0  0
    2.0724   -0.0947    0.0000 C   0  0  0  0  0  0  0  0  0  0  0  0
    0.7854    0.6757    0.0000 C   0  0  0  0  0  0  0  0  0  0  0  0
   -0.5254   -0.0536    0.0000 C   0  0  0  0  0  0  0  0  0  0  0  0
   -1.8124    0.7168    0.0000 O   0  0  0  0  0  0  0  0  0  0  0  0
   -1.7887    2.2166    0.0000 S   0  0  0  0  0  0  0  0  0  0  0  0
   -0.2889    2.1929    0.0000 O   0  0  0  0  0  0  0  0  0  0  0  0
   -3.2885    2.2403    0.0000 O   0  0  0  0  0  0  0  0  0  0  0  0
   -1.7650    3.7164    0.0000 O   0  0  0  0  0  0  0  0  0  0  0  0
   -0.5491   -1.5535    0.0000 C   0  0  0  0  0  0  0  0  0  0  0  0
   -1.9096   -0.9218    0.0000 C   0  0  0  0  0  0  0  0  0  0  0  0
  2  1  1  6
  2  3  1  0
  3  4  1  0
  4  5  1  0
  5  6  2  0
  5  7  1  0
  7  8  1  0
  2  9  1  0
  9 10  1  6
 10 11  1  0
 12 11  1  6
 12 13  1  0
 13 14  1  1
 14 15  1  1
 14 16  1  0
 17 16  1  1
 17 18  1  0
 18 19  1  0
 19 20  1  1
 19 21  1  0
 21 22  1  0
 22 23  1  0
 23 24  1  6
 23 25  1  0
 25 26  1  6
 26 27  1  0
 27 28  1  1
 28 29  1  0
 29 30  2  0
 29 31  2  0
 29 32  1  0
 27 33  1  0
 33 34  1  6
 33  9  1  0
 33 12  1  0
 25 13  1  0
 23 17  1  0
M  END
>  <MS_ID>  (899) 
MS0936

>  <SMILES>  (899) 
C[C@H](CCC(=O)CO)[C@H]1CC[C@H]2[C@@H]3[C@H](O)C[C@@H]4C[C@H](O)CC[C@]4(C)[C@H]3C[C@H](OS(=O)(=O)O)[C@]12C

>  <Structure_dimension>  (899) 
2D

$$$$
MS0937
     RDKit          2D

 29 32  0  0  0  0  0  0  0  0999 V2000
   -5.3431   -2.0646    0.0000 C   0  0  0  0  0  0  0  0  0  0  0  0
   -4.1296   -1.1829    0.0000 C   0  0  0  0  0  0  0  0  0  0  0  0
   -4.2863    0.3088    0.0000 C   0  0  0  0  0  0  0  0  0  0  0  0
   -5.6566    0.9190    0.0000 C   0  0  0  0  0  0  0  0  0  0  0  0
   -5.8134    2.4108    0.0000 C   0  0  0  0  0  0  0  0  0  0  0  0
   -4.5998    3.2924    0.0000 O   0  0  0  0  0  0  0  0  0  0  0  0
   -7.1837    3.0209    0.0000 O   0  0  0  0  0  0  0  0  0  0  0  0
   -2.7593   -1.7931    0.0000 C   0  0  0  0  0  0  0  0  0  0  0  0
   -2.4474   -3.2603    0.0000 C   0  0  0  0  0  0  0  0  0  0  0  0
   -0.9557   -3.4171    0.0000 C   0  0  0  0  0  0  0  0  0  0  0  0
   -0.3455   -2.0468    0.0000 C   0  0  0  0  0  0  0  0  0  0  0  0
    1.0811   -1.5833    0.0000 C   0  0  0  0  0  0  0  0  0  0  0  0
    2.1958   -2.5871    0.0000 C   0  0  0  0  0  0  0  0  0  0  0  0
    3.6224   -2.1236    0.0000 C   0  0  0  0  0  0  0  0  0  0  0  0
    3.9343   -0.6564    0.0000 C   0  0  0  0  0  0  0  0  0  0  0  0
    5.3609   -0.1929    0.0000 C   0  0  0  0  0  0  0  0  0  0  0  0
    5.6728    1.2743    0.0000 C   0  0  0  0  0  0  0  0  0  0  0  0
    7.0994    1.7378    0.0000 O   0  0  0  0  0  0  0  0  0  0  0  0
    8.2141    0.7341    0.0000 O   0  0  0  0  0  0  0  0  0  0  0  0
    4.5581    2.2781    0.0000 C   0  0  0  0  0  0  0  0  0  0  0  0
    3.1315    1.8146    0.0000 C   0  0  0  0  0  0  0  0  0  0  0  0
    2.8196    0.3474    0.0000 C   0  0  0  0  0  0  0  0  0  0  0  0
    1.7049    1.3511    0.0000 C   0  0  0  0  0  0  0  0  0  0  0  0
    1.3930   -0.1161    0.0000 C   0  0  0  0  0  0  0  0  0  0  0  0
    0.2783    0.8876    0.0000 C   0  0  0  0  0  0  0  0  0  0  0  0
   -1.1483    0.4241    0.0000 C   0  0  0  0  0  0  0  0  0  0  0  0
   -2.2630    1.4278    0.0000 O   0  0  0  0  0  0  0  0  0  0  0  0
   -1.4602   -1.0431    0.0000 C   0  0  0  0  0  0  0  0  0  0  0  0
   -2.6737   -0.1614    0.0000 C   0  0  0  0  0  0  0  0  0  0  0  0
  2  1  1  6
  2  3  1  0
  3  4  1  0
  4  5  1  0
  5  6  2  0
  5  7  1  0
  2  8  1  0
  8  9  1  6
  9 10  1  0
 11 10  1  6
 11 12  1  0
 12 13  1  1
 13 14  1  0
 15 14  1  1
 15 16  1  0
 16 17  1  0
 17 18  1  1
 18 19  1  0
 17 20  1  0
 20 21  1  0
 21 22  1  0
 22 23  1  6
 22 24  1  0
 24 25  1  6
 25 26  1  0
 26 27  1  1
 26 28  1  0
 28 29  1  6
 28  8  1  0
 28 11  1  0
 24 12  1  0
 22 15  1  0
M  END
>  <MS_ID>  (900) 
MS0937

>  <SMILES>  (900) 
C[C@H](CCC(=O)O)[C@H]1CC[C@H]2[C@@H]3CC[C@@H]4C[C@H](OO)CC[C@]4(C)[C@H]3C[C@H](O)[C@]12C

>  <Structure_dimension>  (900) 
2D

$$$$
MS0938
     RDKit          2D

 31 34  0  0  0  0  0  0  0  0999 V2000
   -8.8672    3.1400    0.0000 C   0  0  0  0  0  0  0  0  0  0  0  0
   -7.3980    2.8376    0.0000 C   0  0  0  0  0  0  0  0  0  0  0  0
   -6.9253    1.4140    0.0000 O   0  0  0  0  0  0  0  0  0  0  0  0
   -5.4561    1.1115    0.0000 C   0  0  0  0  0  0  0  0  0  0  0  0
   -4.4596    2.2326    0.0000 O   0  0  0  0  0  0  0  0  0  0  0  0
   -4.9835   -0.3121    0.0000 C   0  0  0  0  0  0  0  0  0  0  0  0
   -3.5143   -0.6145    0.0000 C   0  0  0  0  0  0  0  0  0  0  0  0
   -3.0416   -2.0381    0.0000 C   0  0  0  0  0  0  0  0  0  0  0  0
   -4.0382   -3.1592    0.0000 C   0  0  0  0  0  0  0  0  0  0  0  0
   -1.5724   -2.3406    0.0000 C   0  0  0  0  0  0  0  0  0  0  0  0
   -0.9536   -3.7070    0.0000 C   0  0  0  0  0  0  0  0  0  0  0  0
    0.5372   -3.5406    0.0000 C   0  0  0  0  0  0  0  0  0  0  0  0
    0.8396   -2.0714    0.0000 C   0  0  0  0  0  0  0  0  0  0  0  0
    2.1338   -1.3131    0.0000 C   0  0  0  0  0  0  0  0  0  0  0  0
    3.4377   -2.0548    0.0000 C   0  0  0  0  0  0  0  0  0  0  0  0
    3.4473   -3.5547    0.0000 O   0  0  0  0  0  0  0  0  0  0  0  0
    4.7319   -1.2965    0.0000 C   0  0  0  0  0  0  0  0  0  0  0  0
    4.7223    0.2035    0.0000 C   0  0  0  0  0  0  0  0  0  0  0  0
    6.0165    0.9618    0.0000 C   0  0  0  0  0  0  0  0  0  0  0  0
    6.0069    2.4618    0.0000 C   0  0  0  0  0  0  0  0  0  0  0  0
    7.3011    3.2201    0.0000 O   0  0  0  0  0  0  0  0  0  0  0  0
    4.7030    3.2034    0.0000 C   0  0  0  0  0  0  0  0  0  0  0  0
    3.4088    2.4451    0.0000 C   0  0  0  0  0  0  0  0  0  0  0  0
    3.4184    0.9452    0.0000 C   0  0  0  0  0  0  0  0  0  0  0  0
    2.1146    1.6868    0.0000 C   0  0  0  0  0  0  0  0  0  0  0  0
    2.1242    0.1869    0.0000 C   0  0  0  0  0  0  0  0  0  0  0  0
    0.8204    0.9285    0.0000 C   0  0  0  0  0  0  0  0  0  0  0  0
   -0.4738    0.1702    0.0000 C   0  0  0  0  0  0  0  0  0  0  0  0
   -1.7776    0.9119    0.0000 O   0  0  0  0  0  0  0  0  0  0  0  0
   -0.4642   -1.3298    0.0000 C   0  0  0  0  0  0  0  0  0  0  0  0
   -1.8384   -0.7284    0.0000 C   0  0  0  0  0  0  0  0  0  0  0  0
  1  2  1  0
  2  3  1  0
  3  4  1  0
  4  5  2  0
  4  6  1  0
  6  7  1  0
  7  8  1  0
  8  9  1  6
  8 10  1  0
 10 11  1  6
 11 12  1  0
 13 12  1  6
 13 14  1  0
 14 15  1  1
 15 16  1  1
 15 17  1  0
 18 17  1  1
 18 19  1  0
 19 20  1  0
 20 21  1  1
 20 22  1  0
 22 23  1  0
 23 24  1  0
 24 25  1  6
 24 26  1  0
 26 27  1  6
 27 28  1  0
 28 29  2  0
 28 30  1  0
 30 31  1  6
 30 10  1  0
 30 13  1  0
 26 14  1  0
 24 18  1  0
M  END
>  <MS_ID>  (901) 
MS0938

>  <SMILES>  (901) 
CCOC(=O)CC[C@@H](C)[C@H]1CC[C@H]2[C@@H]3[C@H](O)C[C@@H]4C[C@H](O)CC[C@]4(C)[C@H]3CC(=O)[C@]12C

>  <Structure_dimension>  (901) 
2D

$$$$
MS0939
     RDKit          2D

 29 32  0  0  0  0  0  0  0  0999 V2000
   -4.5534   -2.6812    0.0000 C   0  0  0  0  0  0  0  0  0  0  0  0
   -3.4378   -1.6786    0.0000 C   0  0  0  0  0  0  0  0  0  0  0  0
   -3.7483   -0.2111    0.0000 C   0  0  0  0  0  0  0  0  0  0  0  0
   -5.1744    0.2538    0.0000 C   0  0  0  0  0  0  0  0  0  0  0  0
   -5.4850    1.7213    0.0000 C   0  0  0  0  0  0  0  0  0  0  0  0
   -4.3693    2.7239    0.0000 O   0  0  0  0  0  0  0  0  0  0  0  0
   -6.9111    2.1861    0.0000 N   0  0  0  0  0  0  0  0  0  0  0  0
   -7.2216    3.6536    0.0000 N   0  0  0  0  0  0  0  0  0  0  0  0
   -2.0116   -2.1434    0.0000 C   0  0  0  0  0  0  0  0  0  0  0  0
   -1.5494   -3.5704    0.0000 C   0  0  0  0  0  0  0  0  0  0  0  0
   -0.0494   -3.5718    0.0000 C   0  0  0  0  0  0  0  0  0  0  0  0
    0.4155   -2.1456    0.0000 C   0  0  0  0  0  0  0  0  0  0  0  0
    1.7863   -1.5368    0.0000 C   0  0  0  0  0  0  0  0  0  0  0  0
    2.9990   -2.4196    0.0000 C   0  0  0  0  0  0  0  0  0  0  0  0
    4.3699   -1.8107    0.0000 C   0  0  0  0  0  0  0  0  0  0  0  0
    4.5281   -0.3191    0.0000 C   0  0  0  0  0  0  0  0  0  0  0  0
    5.8990    0.2898    0.0000 C   0  0  0  0  0  0  0  0  0  0  0  0
    6.0571    1.7814    0.0000 C   0  0  0  0  0  0  0  0  0  0  0  0
    7.4280    2.3902    0.0000 O   0  0  0  0  0  0  0  0  0  0  0  0
    4.8444    2.6642    0.0000 C   0  0  0  0  0  0  0  0  0  0  0  0
    3.4735    2.0553    0.0000 C   0  0  0  0  0  0  0  0  0  0  0  0
    3.3154    0.5637    0.0000 C   0  0  0  0  0  0  0  0  0  0  0  0
    2.1026    1.4465    0.0000 C   0  0  0  0  0  0  0  0  0  0  0  0
    1.9445   -0.0451    0.0000 C   0  0  0  0  0  0  0  0  0  0  0  0
    0.7318    0.8376    0.0000 C   0  0  0  0  0  0  0  0  0  0  0  0
   -0.6391    0.2288    0.0000 C   0  0  0  0  0  0  0  0  0  0  0  0
   -1.8518    1.1116    0.0000 O   0  0  0  0  0  0  0  0  0  0  0  0
   -0.7973   -1.2628    0.0000 C   0  0  0  0  0  0  0  0  0  0  0  0
   -2.0956   -0.5116    0.0000 C   0  0  0  0  0  0  0  0  0  0  0  0
  2  1  1  6
  2  3  1  0
  3  4  1  0
  4  5  1  0
  5  6  2  0
  5  7  1  0
  7  8  1  0
  2  9  1  0
  9 10  1  6
 10 11  1  0
 12 11  1  6
 12 13  1  0
 13 14  1  1
 14 15  1  0
 16 15  1  1
 16 17  1  0
 17 18  1  0
 18 19  1  6
 18 20  1  0
 20 21  1  0
 21 22  1  0
 22 23  1  6
 22 24  1  0
 24 25  1  6
 25 26  1  0
 26 27  1  6
 26 28  1  0
 28 29  1  6
 28  9  1  0
 28 12  1  0
 24 13  1  0
 22 16  1  0
M  END
>  <MS_ID>  (902) 
MS0939

>  <SMILES>  (902) 
C[C@H](CCC(=O)NN)[C@H]1CC[C@H]2[C@@H]3CC[C@@H]4C[C@@H](O)CC[C@]4(C)[C@H]3C[C@@H](O)[C@]12C

>  <Structure_dimension>  (902) 
2D

$$$$
MS0940
     RDKit          2D

 34 37  0  0  0  0  0  0  0  0999 V2000
   -2.5086   -4.2168    0.0000 C   0  0  0  0  0  0  0  0  0  0  0  0
   -1.7489   -2.9234    0.0000 C   0  0  0  0  0  0  0  0  0  0  0  0
   -2.4892   -1.6188    0.0000 C   0  0  0  0  0  0  0  0  0  0  0  0
   -3.9892   -1.6076    0.0000 C   0  0  0  0  0  0  0  0  0  0  0  0
   -4.7295   -0.3030    0.0000 C   0  0  0  0  0  0  0  0  0  0  0  0
   -3.9698    0.9904    0.0000 O   0  0  0  0  0  0  0  0  0  0  0  0
   -6.2294   -0.2918    0.0000 N   0  0  0  0  0  0  0  0  0  0  0  0
   -6.9697    1.0128    0.0000 C   0  0  0  0  0  0  0  0  0  0  0  0
   -8.4697    1.0240    0.0000 C   0  0  0  0  0  0  0  0  0  0  0  0
   -9.2100    2.3286    0.0000 O   0  0  0  0  0  0  0  0  0  0  0  0
   -6.2100    2.3062    0.0000 C   0  0  0  0  0  0  0  0  0  0  0  0
   -4.7101    2.2950    0.0000 O   0  0  0  0  0  0  0  0  0  0  0  0
   -6.9503    3.6108    0.0000 O   0  0  0  0  0  0  0  0  0  0  0  0
   -0.2490   -2.9346    0.0000 C   0  0  0  0  0  0  0  0  0  0  0  0
    0.6236   -4.1547    0.0000 C   0  0  0  0  0  0  0  0  0  0  0  0
    2.0536   -3.7018    0.0000 C   0  0  0  0  0  0  0  0  0  0  0  0
    2.0648   -2.2018    0.0000 C   0  0  0  0  0  0  0  0  0  0  0  0
    3.1870   -1.2065    0.0000 C   0  0  0  0  0  0  0  0  0  0  0  0
    4.6101   -1.6806    0.0000 C   0  0  0  0  0  0  0  0  0  0  0  0
    4.9110   -3.1501    0.0000 O   0  0  0  0  0  0  0  0  0  0  0  0
    5.7323   -0.6853    0.0000 C   0  0  0  0  0  0  0  0  0  0  0  0
    5.4313    0.7842    0.0000 C   0  0  0  0  0  0  0  0  0  0  0  0
    6.5535    1.7796    0.0000 C   0  0  0  0  0  0  0  0  0  0  0  0
    6.2526    3.2491    0.0000 C   0  0  0  0  0  0  0  0  0  0  0  0
    7.3748    4.2444    0.0000 O   0  0  0  0  0  0  0  0  0  0  0  0
    4.8295    3.7232    0.0000 C   0  0  0  0  0  0  0  0  0  0  0  0
    3.7074    2.7279    0.0000 C   0  0  0  0  0  0  0  0  0  0  0  0
    4.0083    1.2584    0.0000 C   0  0  0  0  0  0  0  0  0  0  0  0
    2.5852    1.7325    0.0000 C   0  0  0  0  0  0  0  0  0  0  0  0
    2.8861    0.2630    0.0000 C   0  0  0  0  0  0  0  0  0  0  0  0
    1.4630    0.7372    0.0000 C   0  0  0  0  0  0  0  0  0  0  0  0
    0.3408   -0.2582    0.0000 C   0  0  0  0  0  0  0  0  0  0  0  0
    0.6417   -1.7277    0.0000 C   0  0  0  0  0  0  0  0  0  0  0  0
   -0.8231   -1.4049    0.0000 C   0  0  0  0  0  0  0  0  0  0  0  0
  2  1  1  6
  2  3  1  0
  3  4  1  0
  4  5  1  0
  5  6  2  0
  5  7  1  0
  7  8  1  0
  8  9  1  1
  9 10  1  0
  8 11  1  0
 11 12  2  0
 11 13  1  0
  2 14  1  0
 14 15  1  6
 15 16  1  0
 17 16  1  6
 17 18  1  0
 18 19  1  1
 19 20  1  1
 19 21  1  0
 22 21  1  1
 22 23  1  0
 23 24  1  0
 24 25  2  0
 24 26  1  0
 26 27  1  0
 27 28  1  0
 28 29  1  6
 28 30  1  0
 30 31  1  6
 31 32  1  0
 32 33  1  0
 33 34  1  6
 33 14  1  0
 33 17  1  0
 30 18  1  0
 28 22  1  0
M  END
>  <MS_ID>  (903) 
MS0940

>  <SMILES>  (903) 
C[C@H](CCC(=O)N[C@@H](CO)C(=O)O)[C@H]1CC[C@H]2[C@@H]3[C@H](O)C[C@@H]4CC(=O)CC[C@]4(C)[C@H]3CC[C@]12C

>  <Structure_dimension>  (903) 
2D

$$$$
MS0941
     RDKit          2D

 32 35  0  0  0  0  0  0  0  0999 V2000
   -3.3600   -3.6470    0.0000 C   0  0  0  0  0  0  0  0  0  0  0  0
   -2.4640   -2.4440    0.0000 C   0  0  0  0  0  0  0  0  0  0  0  0
   -3.0579   -1.0666    0.0000 C   0  0  0  0  0  0  0  0  0  0  0  0
   -4.5477   -0.8922    0.0000 C   0  0  0  0  0  0  0  0  0  0  0  0
   -5.1416    0.4852    0.0000 C   0  0  0  0  0  0  0  0  0  0  0  0
   -4.2456    1.6883    0.0000 O   0  0  0  0  0  0  0  0  0  0  0  0
   -6.6314    0.6596    0.0000 O   0  0  0  0  0  0  0  0  0  0  0  0
   -7.2253    2.0371    0.0000 C   0  0  0  0  0  0  0  0  0  0  0  0
   -8.6027    1.4432    0.0000 C   0  0  0  0  0  0  0  0  0  0  0  0
   -5.8479    2.6309    0.0000 C   0  0  0  0  0  0  0  0  0  0  0  0
   -7.8192    3.4145    0.0000 C   0  0  0  0  0  0  0  0  0  0  0  0
   -0.9742   -2.6184    0.0000 C   0  0  0  0  0  0  0  0  0  0  0  0
   -0.2396   -3.9262    0.0000 C   0  0  0  0  0  0  0  0  0  0  0  0
    1.2312   -3.6317    0.0000 C   0  0  0  0  0  0  0  0  0  0  0  0
    1.4056   -2.1419    0.0000 C   0  0  0  0  0  0  0  0  0  0  0  0
    2.6295   -1.2746    0.0000 C   0  0  0  0  0  0  0  0  0  0  0  0
    3.9925   -1.9008    0.0000 C   0  0  0  0  0  0  0  0  0  0  0  0
    4.1317   -3.3944    0.0000 O   0  0  0  0  0  0  0  0  0  0  0  0
    5.2163   -1.0336    0.0000 C   0  0  0  0  0  0  0  0  0  0  0  0
    5.0772    0.4600    0.0000 C   0  0  0  0  0  0  0  0  0  0  0  0
    6.3010    1.3273    0.0000 C   0  0  0  0  0  0  0  0  0  0  0  0
    6.1619    2.8208    0.0000 C   0  0  0  0  0  0  0  0  0  0  0  0
    7.3857    3.6881    0.0000 O   0  0  0  0  0  0  0  0  0  0  0  0
    4.7989    3.4470    0.0000 C   0  0  0  0  0  0  0  0  0  0  0  0
    3.5750    2.5798    0.0000 C   0  0  0  0  0  0  0  0  0  0  0  0
    3.7142    1.0862    0.0000 C   0  0  0  0  0  0  0  0  0  0  0  0
    2.3511    1.7125    0.0000 C   0  0  0  0  0  0  0  0  0  0  0  0
    2.4903    0.2189    0.0000 C   0  0  0  0  0  0  0  0  0  0  0  0
    1.1273    0.8452    0.0000 C   0  0  0  0  0  0  0  0  0  0  0  0
   -0.0966   -0.0221    0.0000 C   0  0  0  0  0  0  0  0  0  0  0  0
    0.0426   -1.5156    0.0000 C   0  0  0  0  0  0  0  0  0  0  0  0
   -1.3784   -1.0353    0.0000 C   0  0  0  0  0  0  0  0  0  0  0  0
  2  1  1  6
  2  3  1  0
  3  4  1  0
  4  5  1  0
  5  6  2  0
  5  7  1  0
  7  8  1  0
  8  9  1  0
  8 10  1  0
  8 11  1  0
  2 12  1  0
 12 13  1  6
 13 14  1  0
 15 14  1  6
 15 16  1  0
 16 17  1  1
 17 18  1  1
 17 19  1  0
 20 19  1  1
 20 21  1  0
 21 22  1  0
 22 23  1  1
 22 24  1  0
 24 25  1  0
 25 26  1  0
 26 27  1  6
 26 28  1  0
 28 29  1  6
 29 30  1  0
 30 31  1  0
 31 32  1  6
 31 12  1  0
 31 15  1  0
 28 16  1  0
 26 20  1  0
M  END
>  <MS_ID>  (904) 
MS0941

>  <SMILES>  (904) 
C[C@H](CCC(=O)OC(C)(C)C)[C@H]1CC[C@H]2[C@@H]3[C@H](O)C[C@@H]4C[C@H](O)CC[C@]4(C)[C@H]3CC[C@]12C

>  <Structure_dimension>  (904) 
2D

$$$$
MS0942
     RDKit          2D

 31 34  0  0  0  0  0  0  0  0999 V2000
   -4.7372   -2.2415    0.0000 C   0  0  0  0  0  0  0  0  0  0  0  0
   -3.5492   -1.3257    0.0000 C   0  0  0  0  0  0  0  0  0  0  0  0
   -3.7483    0.1610    0.0000 C   0  0  0  0  0  0  0  0  0  0  0  0
   -5.1354    0.7319    0.0000 C   0  0  0  0  0  0  0  0  0  0  0  0
   -5.3345    2.2187    0.0000 C   0  0  0  0  0  0  0  0  0  0  0  0
   -4.1465    3.1345    0.0000 O   0  0  0  0  0  0  0  0  0  0  0  0
   -6.7216    2.7896    0.0000 O   0  0  0  0  0  0  0  0  0  0  0  0
   -2.1621   -1.8967    0.0000 C   0  0  0  0  0  0  0  0  0  0  0  0
   -1.8087   -3.3544    0.0000 C   0  0  0  0  0  0  0  0  0  0  0  0
   -0.3131   -3.4688    0.0000 C   0  0  0  0  0  0  0  0  0  0  0  0
    0.2579   -2.0817    0.0000 C   0  0  0  0  0  0  0  0  0  0  0  0
    1.6707   -1.5778    0.0000 C   0  0  0  0  0  0  0  0  0  0  0  0
    2.8135   -2.5495    0.0000 C   0  0  0  0  0  0  0  0  0  0  0  0
    4.2263   -2.0456    0.0000 C   0  0  0  0  0  0  0  0  0  0  0  0
    4.4964   -0.5701    0.0000 C   0  0  0  0  0  0  0  0  0  0  0  0
    5.9092   -0.0662    0.0000 C   0  0  0  0  0  0  0  0  0  0  0  0
    6.1793    1.4092    0.0000 C   0  0  0  0  0  0  0  0  0  0  0  0
    7.5921    1.9131    0.0000 O   0  0  0  0  0  0  0  0  0  0  0  0
    5.0365    2.3809    0.0000 C   0  0  0  0  0  0  0  0  0  0  0  0
    3.6237    1.8770    0.0000 C   0  0  0  0  0  0  0  0  0  0  0  0
    3.3536    0.4015    0.0000 C   0  0  0  0  0  0  0  0  0  0  0  0
    2.2108    1.3732    0.0000 C   0  0  0  0  0  0  0  0  0  0  0  0
    1.9408   -0.1023    0.0000 C   0  0  0  0  0  0  0  0  0  0  0  0
    0.7980    0.8693    0.0000 C   0  0  0  0  0  0  0  0  0  0  0  0
   -0.6149    0.3654    0.0000 C   0  0  0  0  0  0  0  0  0  0  0  0
   -0.8657    1.8443    0.0000 O   0  0  0  0  0  0  0  0  0  0  0  0
   -2.1148    0.3752    0.0000 C   0  0  0  0  0  0  0  0  0  0  0  0
   -2.9645   -0.4933    0.0000 O   0  0  0  0  0  0  0  0  0  0  0  0
   -2.8564    1.6791    0.0000 O   0  0  0  0  0  0  0  0  0  0  0  0
   -0.8849   -1.1101    0.0000 C   0  0  0  0  0  0  0  0  0  0  0  0
   -2.1505   -0.6402    0.0000 C   0  0  0  0  0  0  0  0  0  0  0  0
  2  1  1  6
  2  3  1  0
  3  4  1  0
  4  5  1  0
  5  6  2  0
  5  7  1  0
  2  8  1  0
  8  9  1  6
  9 10  1  0
 11 10  1  6
 11 12  1  0
 12 13  1  1
 13 14  1  0
 15 14  1  1
 15 16  1  0
 16 17  1  0
 17 18  1  1
 17 19  1  0
 19 20  1  0
 20 21  1  0
 21 22  1  6
 21 23  1  0
 23 24  1  6
 24 25  1  0
 25 26  1  1
 25 27  1  0
 27 28  2  0
 27 29  1  0
 25 30  1  0
 30 31  1  6
 30  8  1  0
 30 11  1  0
 23 12  1  0
 21 15  1  0
M  END
>  <MS_ID>  (905) 
MS0942

>  <SMILES>  (905) 
C[C@H](CCC(=O)O)[C@H]1CC[C@H]2[C@@H]3CC[C@@H]4C[C@H](O)CC[C@]4(C)[C@H]3C[C@@](O)(C(=O)O)[C@]12C

>  <Structure_dimension>  (905) 
2D

$$$$
MS0943
     RDKit          2D

 37 41  0  0  0  0  0  0  0  0999 V2000
   -1.1939   -4.5748    0.0000 C   0  0  0  0  0  0  0  0  0  0  0  0
   -0.5597   -3.2155    0.0000 C   0  0  0  0  0  0  0  0  0  0  0  0
   -1.4197   -1.9866    0.0000 C   0  0  0  0  0  0  0  0  0  0  0  0
   -2.9141   -2.1170    0.0000 C   0  0  0  0  0  0  0  0  0  0  0  0
   -3.7741   -0.8880    0.0000 C   0  0  0  0  0  0  0  0  0  0  0  0
   -3.1399    0.4713    0.0000 O   0  0  0  0  0  0  0  0  0  0  0  0
   -5.2685   -1.0184    0.0000 O   0  0  0  0  0  0  0  0  0  0  0  0
   -6.1285    0.2105    0.0000 C   0  0  0  0  0  0  0  0  0  0  0  0
   -5.4943    1.5698    0.0000 O   0  0  0  0  0  0  0  0  0  0  0  0
   -6.3544    2.7987    0.0000 C   0  0  0  0  0  0  0  0  0  0  0  0
   -7.8487    2.6683    0.0000 C   0  0  0  0  0  0  0  0  0  0  0  0
   -8.7088    3.8973    0.0000 O   0  0  0  0  0  0  0  0  0  0  0  0
   -8.4829    1.3090    0.0000 C   0  0  0  0  0  0  0  0  0  0  0  0
   -9.9773    1.1786    0.0000 O   0  0  0  0  0  0  0  0  0  0  0  0
   -7.6229    0.0801    0.0000 C   0  0  0  0  0  0  0  0  0  0  0  0
   -8.2571   -1.2792    0.0000 O   0  0  0  0  0  0  0  0  0  0  0  0
    0.9347   -3.0851    0.0000 C   0  0  0  0  0  0  0  0  0  0  0  0
    1.9185   -4.2174    0.0000 C   0  0  0  0  0  0  0  0  0  0  0  0
    3.2994   -3.6316    0.0000 C   0  0  0  0  0  0  0  0  0  0  0  0
    3.1690   -2.1373    0.0000 C   0  0  0  0  0  0  0  0  0  0  0  0
    4.1923   -1.0405    0.0000 C   0  0  0  0  0  0  0  0  0  0  0  0
    5.6537   -1.3783    0.0000 C   0  0  0  0  0  0  0  0  0  0  0  0
    6.0920   -2.8128    0.0000 O   0  0  0  0  0  0  0  0  0  0  0  0
    6.6770   -0.2815    0.0000 C   0  0  0  0  0  0  0  0  0  0  0  0
    6.2388    1.1531    0.0000 C   0  0  0  0  0  0  0  0  0  0  0  0
    7.2620    2.2499    0.0000 C   0  0  0  0  0  0  0  0  0  0  0  0
    6.8238    3.6844    0.0000 C   0  0  0  0  0  0  0  0  0  0  0  0
    7.8470    4.7812    0.0000 O   0  0  0  0  0  0  0  0  0  0  0  0
    5.3623    4.0222    0.0000 C   0  0  0  0  0  0  0  0  0  0  0  0
    4.3391    2.9254    0.0000 C   0  0  0  0  0  0  0  0  0  0  0  0
    4.7773    1.4908    0.0000 C   0  0  0  0  0  0  0  0  0  0  0  0
    3.3158    1.8286    0.0000 C   0  0  0  0  0  0  0  0  0  0  0  0
    3.7540    0.3940    0.0000 C   0  0  0  0  0  0  0  0  0  0  0  0
    2.2926    0.7318    0.0000 C   0  0  0  0  0  0  0  0  0  0  0  0
    1.2693   -0.3650    0.0000 C   0  0  0  0  0  0  0  0  0  0  0  0
    1.7075   -1.7995    0.0000 C   0  0  0  0  0  0  0  0  0  0  0  0
    0.2187   -1.6164    0.0000 C   0  0  0  0  0  0  0  0  0  0  0  0
  2  1  1  6
  2  3  1  0
  3  4  1  0
  4  5  1  0
  5  6  2  0
  5  7  1  0
  8  7  1  6
  8  9  1  0
  9 10  1  0
 10 11  1  0
 11 12  1  1
 11 13  1  0
 13 14  1  1
 13 15  1  0
 15 16  1  6
  2 17  1  0
 17 18  1  6
 18 19  1  0
 20 19  1  6
 20 21  1  0
 21 22  1  1
 22 23  1  1
 22 24  1  0
 25 24  1  1
 25 26  1  0
 26 27  1  0
 27 28  1  1
 27 29  1  0
 29 30  1  0
 30 31  1  0
 31 32  1  6
 31 33  1  0
 33 34  1  6
 34 35  1  0
 35 36  1  0
 36 37  1  6
 15  8  1  0
 36 17  1  0
 36 20  1  0
 33 21  1  0
 31 25  1  0
M  END
>  <MS_ID>  (906) 
MS0943

>  <SMILES>  (906) 
C[C@H](CCC(=O)O[C@H]1OC[C@H](O)[C@H](O)[C@H]1O)[C@H]1CC[C@H]2[C@@H]3[C@H](O)C[C@@H]4C[C@H](O)CC[C@]4(C)[C@H]3CC[C@]12C

>  <Structure_dimension>  (906) 
2D

$$$$
MS0944
     RDKit          2D

 37 41  0  0  0  0  0  0  0  0999 V2000
   -0.9194   -4.7117    0.0000 C   0  0  0  0  0  0  0  0  0  0  0  0
   -0.3568   -3.3212    0.0000 C   0  0  0  0  0  0  0  0  0  0  0  0
   -1.2797   -2.1388    0.0000 C   0  0  0  0  0  0  0  0  0  0  0  0
   -2.7652   -2.3468    0.0000 C   0  0  0  0  0  0  0  0  0  0  0  0
   -3.6881   -1.1643    0.0000 C   0  0  0  0  0  0  0  0  0  0  0  0
   -3.1255    0.2262    0.0000 O   0  0  0  0  0  0  0  0  0  0  0  0
   -5.1736   -1.3723    0.0000 O   0  0  0  0  0  0  0  0  0  0  0  0
   -6.0965   -0.1898    0.0000 C   0  0  0  0  0  0  0  0  0  0  0  0
   -7.5820   -0.3978    0.0000 C   0  0  0  0  0  0  0  0  0  0  0  0
   -8.5049    0.7847    0.0000 C   0  0  0  0  0  0  0  0  0  0  0  0
   -7.9423    2.1752    0.0000 C   0  0  0  0  0  0  0  0  0  0  0  0
   -8.8652    3.3576    0.0000 C   0  0  0  0  0  0  0  0  0  0  0  0
  -10.3507    3.1496    0.0000 C   0  0  0  0  0  0  0  0  0  0  0  0
  -10.9133    1.7591    0.0000 C   0  0  0  0  0  0  0  0  0  0  0  0
   -9.9904    0.5767    0.0000 C   0  0  0  0  0  0  0  0  0  0  0  0
    1.1287   -3.1132    0.0000 C   0  0  0  0  0  0  0  0  0  0  0  0
    2.1702   -4.1928    0.0000 C   0  0  0  0  0  0  0  0  0  0  0  0
    3.5187   -3.5359    0.0000 C   0  0  0  0  0  0  0  0  0  0  0  0
    3.3107   -2.0504    0.0000 C   0  0  0  0  0  0  0  0  0  0  0  0
    4.2755   -0.9018    0.0000 C   0  0  0  0  0  0  0  0  0  0  0  0
    5.7525   -1.1630    0.0000 C   0  0  0  0  0  0  0  0  0  0  0  0
    6.2649   -2.5728    0.0000 O   0  0  0  0  0  0  0  0  0  0  0  0
    6.7173   -0.0144    0.0000 C   0  0  0  0  0  0  0  0  0  0  0  0
    6.2050    1.3954    0.0000 C   0  0  0  0  0  0  0  0  0  0  0  0
    7.1697    2.5439    0.0000 C   0  0  0  0  0  0  0  0  0  0  0  0
    6.6574    3.9537    0.0000 C   0  0  0  0  0  0  0  0  0  0  0  0
    7.6222    5.1023    0.0000 O   0  0  0  0  0  0  0  0  0  0  0  0
    5.1803    4.2150    0.0000 C   0  0  0  0  0  0  0  0  0  0  0  0
    4.2156    3.0664    0.0000 C   0  0  0  0  0  0  0  0  0  0  0  0
    4.7279    1.6566    0.0000 C   0  0  0  0  0  0  0  0  0  0  0  0
    3.2508    1.9178    0.0000 C   0  0  0  0  0  0  0  0  0  0  0  0
    3.7631    0.5080    0.0000 C   0  0  0  0  0  0  0  0  0  0  0  0
    2.2861    0.7692    0.0000 C   0  0  0  0  0  0  0  0  0  0  0  0
    1.3213   -0.3794    0.0000 C   0  0  0  0  0  0  0  0  0  0  0  0
   -0.1558   -0.1181    0.0000 O   0  0  0  0  0  0  0  0  0  0  0  0
    1.8336   -1.7892    0.0000 C   0  0  0  0  0  0  0  0  0  0  0  0
    0.3373   -1.6838    0.0000 C   0  0  0  0  0  0  0  0  0  0  0  0
  2  1  1  6
  2  3  1  0
  3  4  1  0
  4  5  1  0
  5  6  2  0
  5  7  1  0
  7  8  1  0
  8  9  1  0
  9 10  1  0
 10 11  2  0
 11 12  1  0
 12 13  2  0
 13 14  1  0
 14 15  2  0
  2 16  1  0
 16 17  1  6
 17 18  1  0
 19 18  1  6
 19 20  1  0
 20 21  1  1
 21 22  1  1
 21 23  1  0
 24 23  1  1
 24 25  1  0
 25 26  1  0
 26 27  1  1
 26 28  1  0
 28 29  1  0
 29 30  1  0
 30 31  1  6
 30 32  1  0
 32 33  1  6
 33 34  1  0
 34 35  1  1
 34 36  1  0
 36 37  1  6
 15 10  1  0
 36 16  1  0
 36 19  1  0
 32 20  1  0
 30 24  1  0
M  END
>  <MS_ID>  (907) 
MS0944

>  <SMILES>  (907) 
C[C@H](CCC(=O)OCCc1ccccc1)[C@H]1CC[C@H]2[C@@H]3[C@H](O)C[C@@H]4C[C@H](O)CC[C@]4(C)[C@H]3C[C@H](O)[C@]12C

>  <Structure_dimension>  (907) 
2D

$$$$
MS0945
     RDKit          2D

 39 44  0  0  0  0  0  0  0  0999 V2000
   -1.0073   -4.3706    0.0000 C   0  0  0  0  0  0  0  0  0  0  0  0
   -0.3078   -3.0437    0.0000 C   0  0  0  0  0  0  0  0  0  0  0  0
   -1.1072   -1.7744    0.0000 C   0  0  0  0  0  0  0  0  0  0  0  0
   -2.6061   -1.8321    0.0000 C   0  0  0  0  0  0  0  0  0  0  0  0
   -3.4055   -0.5629    0.0000 C   0  0  0  0  0  0  0  0  0  0  0  0
   -2.7060    0.7640    0.0000 O   0  0  0  0  0  0  0  0  0  0  0  0
   -4.9044   -0.6206    0.0000 C   0  0  0  0  0  0  0  0  0  0  0  0
   -5.7038    0.6486    0.0000 C   0  0  0  0  0  0  0  0  0  0  0  0
   -5.1469    2.0414    0.0000 C   0  0  0  0  0  0  0  0  0  0  0  0
   -6.2994    3.0014    0.0000 N   0  0  0  0  0  0  0  0  0  0  0  0
   -7.5686    2.2020    0.0000 C   0  0  0  0  0  0  0  0  0  0  0  0
   -9.0120    2.6103    0.0000 C   0  0  0  0  0  0  0  0  0  0  0  0
  -10.0873    1.5645    0.0000 C   0  0  0  0  0  0  0  0  0  0  0  0
   -9.7192    0.1104    0.0000 C   0  0  0  0  0  0  0  0  0  0  0  0
  -10.7945   -0.9355    0.0000 O   0  0  0  0  0  0  0  0  0  0  0  0
   -8.2758   -0.2979    0.0000 C   0  0  0  0  0  0  0  0  0  0  0  0
   -7.2005    0.7479    0.0000 C   0  0  0  0  0  0  0  0  0  0  0  0
    1.1911   -2.9859    0.0000 C   0  0  0  0  0  0  0  0  0  0  0  0
    2.1188   -4.1647    0.0000 C   0  0  0  0  0  0  0  0  0  0  0  0
    3.5265   -3.6466    0.0000 C   0  0  0  0  0  0  0  0  0  0  0  0
    3.4688   -2.1477    0.0000 C   0  0  0  0  0  0  0  0  0  0  0  0
    4.5441   -1.1019    0.0000 C   0  0  0  0  0  0  0  0  0  0  0  0
    5.9874   -1.5102    0.0000 C   0  0  0  0  0  0  0  0  0  0  0  0
    6.3555   -2.9643    0.0000 O   0  0  0  0  0  0  0  0  0  0  0  0
    7.0627   -0.4643    0.0000 C   0  0  0  0  0  0  0  0  0  0  0  0
    6.6946    0.9898    0.0000 C   0  0  0  0  0  0  0  0  0  0  0  0
    7.7699    2.0357    0.0000 C   0  0  0  0  0  0  0  0  0  0  0  0
    7.4018    3.4898    0.0000 C   0  0  0  0  0  0  0  0  0  0  0  0
    8.4771    4.5356    0.0000 O   0  0  0  0  0  0  0  0  0  0  0  0
    5.9585    3.8981    0.0000 C   0  0  0  0  0  0  0  0  0  0  0  0
    4.8832    2.8523    0.0000 C   0  0  0  0  0  0  0  0  0  0  0  0
    5.2513    1.3981    0.0000 C   0  0  0  0  0  0  0  0  0  0  0  0
    3.8079    1.8064    0.0000 C   0  0  0  0  0  0  0  0  0  0  0  0
    4.1760    0.3523    0.0000 C   0  0  0  0  0  0  0  0  0  0  0  0
    2.7326    0.7606    0.0000 C   0  0  0  0  0  0  0  0  0  0  0  0
    1.6574   -0.2853    0.0000 C   0  0  0  0  0  0  0  0  0  0  0  0
    0.2140    0.1230    0.0000 O   0  0  0  0  0  0  0  0  0  0  0  0
    2.0254   -1.7394    0.0000 C   0  0  0  0  0  0  0  0  0  0  0  0
    0.5473   -1.4842    0.0000 C   0  0  0  0  0  0  0  0  0  0  0  0
  2  1  1  6
  2  3  1  0
  3  4  1  0
  4  5  1  0
  5  6  2  0
  5  7  1  0
  7  8  1  0
  8  9  2  0
  9 10  1  0
 10 11  1  0
 11 12  2  0
 12 13  1  0
 13 14  2  0
 14 15  1  0
 14 16  1  0
 16 17  2  0
  2 18  1  0
 18 19  1  6
 19 20  1  0
 21 20  1  6
 21 22  1  0
 22 23  1  1
 23 24  1  1
 23 25  1  0
 26 25  1  1
 26 27  1  0
 27 28  1  0
 28 29  1  1
 28 30  1  0
 30 31  1  0
 31 32  1  0
 32 33  1  6
 32 34  1  0
 34 35  1  6
 35 36  1  0
 36 37  1  1
 36 38  1  0
 38 39  1  6
 17  8  1  0
 38 18  1  0
 17 11  1  0
 38 21  1  0
 34 22  1  0
 32 26  1  0
M  END
>  <MS_ID>  (908) 
MS0945

>  <SMILES>  (908) 
C[C@H](CCC(=O)Cc1c[nH]c2ccc(O)cc12)[C@H]1CC[C@H]2[C@@H]3[C@H](O)C[C@@H]4C[C@H](O)CC[C@]4(C)[C@H]3C[C@H](O)[C@]12C

>  <Structure_dimension>  (908) 
2D

$$$$
MS0946
     RDKit          2D

 30 33  0  0  0  0  0  0  0  0999 V2000
   -4.3209   -2.7536    0.0000 C   0  0  0  0  0  0  0  0  0  0  0  0
   -3.2523   -1.7010    0.0000 C   0  0  0  0  0  0  0  0  0  0  0  0
   -3.6295   -0.2492    0.0000 C   0  0  0  0  0  0  0  0  0  0  0  0
   -5.0755    0.1499    0.0000 C   0  0  0  0  0  0  0  0  0  0  0  0
   -5.4527    1.6017    0.0000 C   0  0  0  0  0  0  0  0  0  0  0  0
   -4.3841    2.6543    0.0000 O   0  0  0  0  0  0  0  0  0  0  0  0
   -6.8987    2.0009    0.0000 C   0  0  0  0  0  0  0  0  0  0  0  0
   -7.2759    3.4526    0.0000 O   0  0  0  0  0  0  0  0  0  0  0  0
   -7.9673    0.9482    0.0000 O   0  0  0  0  0  0  0  0  0  0  0  0
   -1.8064   -2.1002    0.0000 C   0  0  0  0  0  0  0  0  0  0  0  0
   -1.2794   -3.5046    0.0000 C   0  0  0  0  0  0  0  0  0  0  0  0
    0.2191   -3.4374    0.0000 C   0  0  0  0  0  0  0  0  0  0  0  0
    0.6183   -1.9915    0.0000 C   0  0  0  0  0  0  0  0  0  0  0  0
    1.9599   -1.3206    0.0000 C   0  0  0  0  0  0  0  0  0  0  0  0
    3.2117   -2.1470    0.0000 C   0  0  0  0  0  0  0  0  0  0  0  0
    3.1219   -3.6443    0.0000 O   0  0  0  0  0  0  0  0  0  0  0  0
    4.5533   -1.4762    0.0000 C   0  0  0  0  0  0  0  0  0  0  0  0
    4.6431    0.0211    0.0000 C   0  0  0  0  0  0  0  0  0  0  0  0
    5.9847    0.6920    0.0000 C   0  0  0  0  0  0  0  0  0  0  0  0
    6.0745    2.1893    0.0000 C   0  0  0  0  0  0  0  0  0  0  0  0
    7.4161    2.8602    0.0000 O   0  0  0  0  0  0  0  0  0  0  0  0
    4.8227    3.0158    0.0000 C   0  0  0  0  0  0  0  0  0  0  0  0
    3.4811    2.3449    0.0000 C   0  0  0  0  0  0  0  0  0  0  0  0
    3.3913    0.8476    0.0000 C   0  0  0  0  0  0  0  0  0  0  0  0
    2.1395    1.6740    0.0000 C   0  0  0  0  0  0  0  0  0  0  0  0
    2.0497    0.1767    0.0000 C   0  0  0  0  0  0  0  0  0  0  0  0
    0.7979    1.0031    0.0000 C   0  0  0  0  0  0  0  0  0  0  0  0
   -0.5437    0.3323    0.0000 C   0  0  0  0  0  0  0  0  0  0  0  0
   -0.6335   -1.1650    0.0000 C   0  0  0  0  0  0  0  0  0  0  0  0
   -1.9649   -0.4740    0.0000 C   0  0  0  0  0  0  0  0  0  0  0  0
  2  1  1  6
  2  3  1  0
  3  4  1  0
  4  5  1  0
  5  6  2  0
  5  7  1  0
  7  8  1  0
  7  9  1  0
  2 10  1  0
 10 11  1  6
 11 12  1  0
 13 12  1  6
 13 14  1  0
 14 15  1  1
 15 16  1  1
 15 17  1  0
 18 17  1  1
 18 19  1  0
 19 20  1  0
 20 21  1  1
 20 22  1  0
 22 23  1  0
 23 24  1  0
 24 25  1  6
 24 26  1  0
 26 27  1  6
 27 28  1  0
 28 29  1  0
 29 30  1  6
 29 10  1  0
 29 13  1  0
 26 14  1  0
 24 18  1  0
M  END
>  <MS_ID>  (909) 
MS0946

>  <SMILES>  (909) 
C[C@H](CCC(=O)C(O)O)[C@H]1CC[C@H]2[C@@H]3[C@H](O)C[C@@H]4C[C@H](O)CC[C@]4(C)[C@H]3CC[C@]12C

>  <Structure_dimension>  (909) 
2D

$$$$
MS0947
     RDKit          2D

 33 36  0  0  0  0  0  0  0  0999 V2000
   -3.4787   -3.9904    0.0000 C   0  0  0  0  0  0  0  0  0  0  0  0
   -2.6247   -2.7573    0.0000 C   0  0  0  0  0  0  0  0  0  0  0  0
   -3.2657   -1.4011    0.0000 C   0  0  0  0  0  0  0  0  0  0  0  0
   -4.7606   -1.2781    0.0000 C   0  0  0  0  0  0  0  0  0  0  0  0
   -5.4016    0.0780    0.0000 C   0  0  0  0  0  0  0  0  0  0  0  0
   -6.8965    0.2010    0.0000 O   0  0  0  0  0  0  0  0  0  0  0  0
   -4.5476    1.3112    0.0000 O   0  0  0  0  0  0  0  0  0  0  0  0
   -5.1886    2.6674    0.0000 C   0  0  0  0  0  0  0  0  0  0  0  0
   -6.6835    2.7903    0.0000 O   0  0  0  0  0  0  0  0  0  0  0  0
   -4.3346    3.9005    0.0000 C   0  0  0  0  0  0  0  0  0  0  0  0
   -4.9756    5.2567    0.0000 O   0  0  0  0  0  0  0  0  0  0  0  0
   -1.1297   -2.8802    0.0000 C   0  0  0  0  0  0  0  0  0  0  0  0
   -0.3505   -4.1620    0.0000 C   0  0  0  0  0  0  0  0  0  0  0  0
    1.1093   -3.8169    0.0000 C   0  0  0  0  0  0  0  0  0  0  0  0
    1.2322   -2.3220    0.0000 C   0  0  0  0  0  0  0  0  0  0  0  0
    2.4255   -1.4131    0.0000 C   0  0  0  0  0  0  0  0  0  0  0  0
    3.8093   -1.9920    0.0000 C   0  0  0  0  0  0  0  0  0  0  0  0
    3.9998   -3.4798    0.0000 O   0  0  0  0  0  0  0  0  0  0  0  0
    5.0025   -1.0831    0.0000 C   0  0  0  0  0  0  0  0  0  0  0  0
    4.8120    0.4048    0.0000 C   0  0  0  0  0  0  0  0  0  0  0  0
    6.0052    1.3137    0.0000 C   0  0  0  0  0  0  0  0  0  0  0  0
    5.8147    2.8016    0.0000 C   0  0  0  0  0  0  0  0  0  0  0  0
    7.0080    3.7105    0.0000 O   0  0  0  0  0  0  0  0  0  0  0  0
    4.4309    3.3805    0.0000 C   0  0  0  0  0  0  0  0  0  0  0  0
    3.2377    2.4716    0.0000 C   0  0  0  0  0  0  0  0  0  0  0  0
    3.4282    0.9837    0.0000 C   0  0  0  0  0  0  0  0  0  0  0  0
    2.0444    1.5626    0.0000 C   0  0  0  0  0  0  0  0  0  0  0  0
    2.2350    0.0748    0.0000 C   0  0  0  0  0  0  0  0  0  0  0  0
    0.8512    0.6537    0.0000 C   0  0  0  0  0  0  0  0  0  0  0  0
   -0.3421   -0.2552    0.0000 C   0  0  0  0  0  0  0  0  0  0  0  0
   -1.7259    0.3237    0.0000 O   0  0  0  0  0  0  0  0  0  0  0  0
   -0.1515   -1.7431    0.0000 C   0  0  0  0  0  0  0  0  0  0  0  0
   -1.5883   -1.3120    0.0000 C   0  0  0  0  0  0  0  0  0  0  0  0
  2  1  1  6
  2  3  1  0
  3  4  1  0
  4  5  1  0
  5  6  2  0
  5  7  1  0
  7  8  1  0
  8  9  2  0
  8 10  1  0
 10 11  1  0
  2 12  1  0
 12 13  1  6
 13 14  1  0
 15 14  1  6
 15 16  1  0
 16 17  1  1
 17 18  1  1
 17 19  1  0
 20 19  1  1
 20 21  1  0
 21 22  1  0
 22 23  1  1
 22 24  1  0
 24 25  1  0
 25 26  1  0
 26 27  1  6
 26 28  1  0
 28 29  1  6
 29 30  1  0
 30 31  1  1
 30 32  1  0
 32 33  1  6
 32 12  1  0
 32 15  1  0
 28 16  1  0
 26 20  1  0
M  END
>  <MS_ID>  (910) 
MS0947

>  <SMILES>  (910) 
C[C@H](CCC(=O)OC(=O)CO)[C@H]1CC[C@H]2[C@@H]3[C@H](O)C[C@@H]4C[C@H](O)CC[C@]4(C)[C@H]3C[C@H](O)[C@]12C

>  <Structure_dimension>  (910) 
2D

$$$$
MS0948
     RDKit          2D

 30 33  0  0  0  0  0  0  0  0999 V2000
   -3.4828   -3.5922    0.0000 C   0  0  0  0  0  0  0  0  0  0  0  0
   -2.5481   -2.4190    0.0000 C   0  0  0  0  0  0  0  0  0  0  0  0
   -3.0967   -1.0230    0.0000 C   0  0  0  0  0  0  0  0  0  0  0  0
   -4.5801   -0.8000    0.0000 C   0  0  0  0  0  0  0  0  0  0  0  0
   -5.1287    0.5960    0.0000 C   0  0  0  0  0  0  0  0  0  0  0  0
   -4.1940    1.7692    0.0000 O   0  0  0  0  0  0  0  0  0  0  0  0
   -6.6120    0.8190    0.0000 O   0  0  0  0  0  0  0  0  0  0  0  0
   -7.1606    2.2150    0.0000 C   0  0  0  0  0  0  0  0  0  0  0  0
   -8.6440    2.4379    0.0000 C   0  0  0  0  0  0  0  0  0  0  0  0
   -9.1926    3.8340    0.0000 O   0  0  0  0  0  0  0  0  0  0  0  0
   -1.0648   -2.6420    0.0000 C   0  0  0  0  0  0  0  0  0  0  0  0
   -0.3732   -3.9730    0.0000 C   0  0  0  0  0  0  0  0  0  0  0  0
    1.1064   -3.7267    0.0000 C   0  0  0  0  0  0  0  0  0  0  0  0
    1.3293   -2.2433    0.0000 C   0  0  0  0  0  0  0  0  0  0  0  0
    2.5808   -1.4164    0.0000 C   0  0  0  0  0  0  0  0  0  0  0  0
    3.9227   -2.0868    0.0000 C   0  0  0  0  0  0  0  0  0  0  0  0
    5.1742   -1.2599    0.0000 C   0  0  0  0  0  0  0  0  0  0  0  0
    5.0838    0.2373    0.0000 C   0  0  0  0  0  0  0  0  0  0  0  0
    6.3353    1.0642    0.0000 C   0  0  0  0  0  0  0  0  0  0  0  0
    6.2450    2.5615    0.0000 C   0  0  0  0  0  0  0  0  0  0  0  0
    7.4965    3.3884    0.0000 O   0  0  0  0  0  0  0  0  0  0  0  0
    4.9031    3.2319    0.0000 C   0  0  0  0  0  0  0  0  0  0  0  0
    3.6516    2.4050    0.0000 C   0  0  0  0  0  0  0  0  0  0  0  0
    3.7420    0.9077    0.0000 C   0  0  0  0  0  0  0  0  0  0  0  0
    2.4001    1.5781    0.0000 C   0  0  0  0  0  0  0  0  0  0  0  0
    2.4905    0.0808    0.0000 C   0  0  0  0  0  0  0  0  0  0  0  0
    1.1486    0.7512    0.0000 C   0  0  0  0  0  0  0  0  0  0  0  0
   -0.1029   -0.0757    0.0000 C   0  0  0  0  0  0  0  0  0  0  0  0
   -0.0125   -1.5729    0.0000 C   0  0  0  0  0  0  0  0  0  0  0  0
   -1.4171   -1.0465    0.0000 C   0  0  0  0  0  0  0  0  0  0  0  0
  2  1  1  6
  2  3  1  0
  3  4  1  0
  4  5  1  0
  5  6  2  0
  5  7  1  0
  7  8  1  0
  8  9  1  0
  9 10  1  0
  2 11  1  0
 11 12  1  6
 12 13  1  0
 14 13  1  6
 14 15  1  0
 15 16  1  1
 16 17  1  0
 18 17  1  1
 18 19  1  0
 19 20  1  0
 20 21  1  6
 20 22  1  0
 22 23  1  0
 23 24  1  0
 24 25  1  6
 24 26  1  0
 26 27  1  6
 27 28  1  0
 28 29  1  0
 29 30  1  6
 29 11  1  0
 29 14  1  0
 26 15  1  0
 24 18  1  0
M  END
>  <MS_ID>  (911) 
MS0948

>  <SMILES>  (911) 
C[C@H](CCC(=O)OCCO)[C@H]1CC[C@H]2[C@@H]3CC[C@@H]4C[C@@H](O)CC[C@]4(C)[C@H]3CC[C@]12C

>  <Structure_dimension>  (911) 
2D

$$$$
MS0949
     RDKit          2D

 35 39  0  0  0  0  0  0  0  0999 V2000
   -2.7184   -3.4912    0.0000 C   0  0  0  0  0  0  0  0  0  0  0  0
   -1.7962   -2.3082    0.0000 C   0  0  0  0  0  0  0  0  0  0  0  0
   -2.3597   -0.9180    0.0000 C   0  0  0  0  0  0  0  0  0  0  0  0
   -3.8454   -0.7110    0.0000 C   0  0  0  0  0  0  0  0  0  0  0  0
   -4.4088    0.6792    0.0000 C   0  0  0  0  0  0  0  0  0  0  0  0
   -3.4867    1.8622    0.0000 O   0  0  0  0  0  0  0  0  0  0  0  0
   -5.8945    0.8862    0.0000 C   0  0  0  0  0  0  0  0  0  0  0  0
   -6.4580    2.2764    0.0000 C   0  0  0  0  0  0  0  0  0  0  0  0
   -7.9436    2.4834    0.0000 C   0  0  0  0  0  0  0  0  0  0  0  0
   -8.8658    1.3004    0.0000 N   0  0  0  0  0  0  0  0  0  0  0  0
  -10.3514    1.5075    0.0000 O   0  0  0  0  0  0  0  0  0  0  0  0
   -8.3023   -0.0898    0.0000 C   0  0  0  0  0  0  0  0  0  0  0  0
   -6.8166   -0.2968    0.0000 C   0  0  0  0  0  0  0  0  0  0  0  0
   -0.3106   -2.5152    0.0000 C   0  0  0  0  0  0  0  0  0  0  0  0
    0.3951   -3.8389    0.0000 C   0  0  0  0  0  0  0  0  0  0  0  0
    1.8720   -3.5767    0.0000 C   0  0  0  0  0  0  0  0  0  0  0  0
    2.0791   -2.0911    0.0000 C   0  0  0  0  0  0  0  0  0  0  0  0
    3.3217   -1.2509    0.0000 C   0  0  0  0  0  0  0  0  0  0  0  0
    4.6707   -1.9069    0.0000 C   0  0  0  0  0  0  0  0  0  0  0  0
    4.7770   -3.4031    0.0000 O   0  0  0  0  0  0  0  0  0  0  0  0
    5.9133   -1.0667    0.0000 C   0  0  0  0  0  0  0  0  0  0  0  0
    5.8069    0.4296    0.0000 C   0  0  0  0  0  0  0  0  0  0  0  0
    7.0495    1.2698    0.0000 C   0  0  0  0  0  0  0  0  0  0  0  0
    6.9432    2.7660    0.0000 C   0  0  0  0  0  0  0  0  0  0  0  0
    8.1858    3.6062    0.0000 O   0  0  0  0  0  0  0  0  0  0  0  0
    5.5942    3.4220    0.0000 C   0  0  0  0  0  0  0  0  0  0  0  0
    4.3516    2.5818    0.0000 C   0  0  0  0  0  0  0  0  0  0  0  0
    4.4580    1.0856    0.0000 C   0  0  0  0  0  0  0  0  0  0  0  0
    3.1090    1.7416    0.0000 C   0  0  0  0  0  0  0  0  0  0  0  0
    3.2154    0.2454    0.0000 C   0  0  0  0  0  0  0  0  0  0  0  0
    1.8664    0.9014    0.0000 C   0  0  0  0  0  0  0  0  0  0  0  0
    0.6238    0.0612    0.0000 C   0  0  0  0  0  0  0  0  0  0  0  0
   -0.7251    0.7172    0.0000 O   0  0  0  0  0  0  0  0  0  0  0  0
    0.7302   -1.4350    0.0000 C   0  0  0  0  0  0  0  0  0  0  0  0
   -0.6799   -0.9236    0.0000 C   0  0  0  0  0  0  0  0  0  0  0  0
  2  1  1  6
  2  3  1  0
  3  4  1  0
  4  5  1  0
  5  6  2  0
  5  7  1  0
  7  8  2  0
  8  9  1  0
  9 10  2  0
 10 11  1  0
 10 12  1  0
 12 13  2  0
  2 14  1  0
 14 15  1  6
 15 16  1  0
 17 16  1  6
 17 18  1  0
 18 19  1  1
 19 20  1  1
 19 21  1  0
 22 21  1  1
 22 23  1  0
 23 24  1  0
 24 25  1  1
 24 26  1  0
 26 27  1  0
 27 28  1  0
 28 29  1  6
 28 30  1  0
 30 31  1  6
 31 32  1  0
 32 33  1  1
 32 34  1  0
 34 35  1  6
 13  7  1  0
 34 14  1  0
 34 17  1  0
 30 18  1  0
 28 22  1  0
M  CHG  2  10   1  11  -1
M  END
>  <MS_ID>  (912) 
MS0949

>  <SMILES>  (912) 
C[C@H](CCC(=O)c1cc[n+]([O-])cc1)[C@H]1CC[C@H]2[C@@H]3[C@H](O)C[C@@H]4C[C@H](O)CC[C@]4(C)[C@H]3C[C@H](O)[C@]12C

>  <Structure_dimension>  (912) 
2D

$$$$
MS0950
     RDKit          2D

 36 39  0  0  0  0  0  0  0  0999 V2000
   -1.3915   -4.2707    0.0000 C   0  0  0  0  0  0  0  0  0  0  0  0
   -0.6899   -2.9450    0.0000 C   0  0  0  0  0  0  0  0  0  0  0  0
   -1.4872   -1.6744    0.0000 C   0  0  0  0  0  0  0  0  0  0  0  0
   -2.9861   -1.7296    0.0000 C   0  0  0  0  0  0  0  0  0  0  0  0
   -3.7835   -0.4591    0.0000 C   0  0  0  0  0  0  0  0  0  0  0  0
   -3.0818    0.8667    0.0000 O   0  0  0  0  0  0  0  0  0  0  0  0
   -5.2824   -0.5143    0.0000 C   0  0  0  0  0  0  0  0  0  0  0  0
   -5.9841   -1.8401    0.0000 O   0  0  0  0  0  0  0  0  0  0  0  0
   -6.0798    0.7563    0.0000 N   0  0  0  0  0  0  0  0  0  0  0  0
   -7.5787    0.7010    0.0000 C   0  0  0  0  0  0  0  0  0  0  0  0
   -8.3760    1.9716    0.0000 C   0  0  0  0  0  0  0  0  0  0  0  0
   -9.8750    1.9164    0.0000 S   0  0  0  0  0  0  0  0  0  0  0  0
   -9.9302    3.4154    0.0000 O   0  0  0  0  0  0  0  0  0  0  0  0
   -9.8198    0.4174    0.0000 O   0  0  0  0  0  0  0  0  0  0  0  0
  -11.3740    1.8612    0.0000 O   0  0  0  0  0  0  0  0  0  0  0  0
    0.8091   -2.8897    0.0000 C   0  0  0  0  0  0  0  0  0  0  0  0
    1.7349   -4.0700    0.0000 C   0  0  0  0  0  0  0  0  0  0  0  0
    3.1434   -3.5543    0.0000 C   0  0  0  0  0  0  0  0  0  0  0  0
    3.0882   -2.0553    0.0000 C   0  0  0  0  0  0  0  0  0  0  0  0
    4.1652   -1.0112    0.0000 C   0  0  0  0  0  0  0  0  0  0  0  0
    5.6079   -1.4219    0.0000 C   0  0  0  0  0  0  0  0  0  0  0  0
    5.9736   -2.8767    0.0000 O   0  0  0  0  0  0  0  0  0  0  0  0
    6.6849   -0.3779    0.0000 C   0  0  0  0  0  0  0  0  0  0  0  0
    6.3193    1.0769    0.0000 C   0  0  0  0  0  0  0  0  0  0  0  0
    7.3963    2.1209    0.0000 C   0  0  0  0  0  0  0  0  0  0  0  0
    7.0306    3.5757    0.0000 C   0  0  0  0  0  0  0  0  0  0  0  0
    8.1076    4.6197    0.0000 O   0  0  0  0  0  0  0  0  0  0  0  0
    5.5879    3.9864    0.0000 C   0  0  0  0  0  0  0  0  0  0  0  0
    4.5109    2.9423    0.0000 C   0  0  0  0  0  0  0  0  0  0  0  0
    4.8766    1.4876    0.0000 C   0  0  0  0  0  0  0  0  0  0  0  0
    3.4339    1.8983    0.0000 C   0  0  0  0  0  0  0  0  0  0  0  0
    3.7996    0.4435    0.0000 C   0  0  0  0  0  0  0  0  0  0  0  0
    2.3569    0.8542    0.0000 C   0  0  0  0  0  0  0  0  0  0  0  0
    1.2799   -0.1898    0.0000 C   0  0  0  0  0  0  0  0  0  0  0  0
    1.6455   -1.6446    0.0000 C   0  0  0  0  0  0  0  0  0  0  0  0
    0.1678   -1.3869    0.0000 C   0  0  0  0  0  0  0  0  0  0  0  0
  2  1  1  6
  2  3  1  0
  3  4  1  0
  4  5  1  0
  5  6  2  0
  5  7  1  0
  7  8  2  0
  7  9  1  0
  9 10  1  0
 10 11  1  0
 11 12  1  0
 12 13  2  0
 12 14  2  0
 12 15  1  0
  2 16  1  0
 16 17  1  6
 17 18  1  0
 19 18  1  6
 19 20  1  0
 20 21  1  1
 21 22  1  1
 21 23  1  0
 24 23  1  1
 24 25  1  0
 25 26  1  0
 26 27  1  1
 26 28  1  0
 28 29  1  0
 29 30  1  0
 30 31  1  6
 30 32  1  0
 32 33  1  6
 33 34  1  0
 34 35  1  0
 35 36  1  6
 35 16  1  0
 35 19  1  0
 32 20  1  0
 30 24  1  0
M  END
>  <MS_ID>  (913) 
MS0950

>  <SMILES>  (913) 
C[C@H](CCC(=O)C(=O)NCCS(=O)(=O)O)[C@H]1CC[C@H]2[C@@H]3[C@H](O)C[C@@H]4C[C@H](O)CC[C@]4(C)[C@H]3CC[C@]12C

>  <Structure_dimension>  (913) 
2D

$$$$
MS0951
     RDKit          2D

 29 32  0  0  0  0  0  0  0  0999 V2000
   -4.6551   -2.6180    0.0000 C   0  0  0  0  0  0  0  0  0  0  0  0
   -3.5633   -1.5894    0.0000 C   0  0  0  0  0  0  0  0  0  0  0  0
   -3.9081   -0.1296    0.0000 C   0  0  0  0  0  0  0  0  0  0  0  0
   -5.3448    0.3016    0.0000 C   0  0  0  0  0  0  0  0  0  0  0  0
   -5.6897    1.7615    0.0000 C   0  0  0  0  0  0  0  0  0  0  0  0
   -4.5979    2.7900    0.0000 O   0  0  0  0  0  0  0  0  0  0  0  0
   -7.1264    2.1927    0.0000 C   0  0  0  0  0  0  0  0  0  0  0  0
   -7.4712    3.6525    0.0000 N   0  0  0  0  0  0  0  0  0  0  0  0
   -2.1266   -2.0207    0.0000 C   0  0  0  0  0  0  0  0  0  0  0  0
   -1.6310   -3.4364    0.0000 C   0  0  0  0  0  0  0  0  0  0  0  0
   -0.1314   -3.4026    0.0000 C   0  0  0  0  0  0  0  0  0  0  0  0
    0.2998   -1.9659    0.0000 C   0  0  0  0  0  0  0  0  0  0  0  0
    1.6561   -1.3251    0.0000 C   0  0  0  0  0  0  0  0  0  0  0  0
    2.8892   -2.1792    0.0000 C   0  0  0  0  0  0  0  0  0  0  0  0
    2.7660   -3.6741    0.0000 O   0  0  0  0  0  0  0  0  0  0  0  0
    4.2454   -1.5383    0.0000 C   0  0  0  0  0  0  0  0  0  0  0  0
    4.3685   -0.0434    0.0000 C   0  0  0  0  0  0  0  0  0  0  0  0
    5.7247    0.5975    0.0000 C   0  0  0  0  0  0  0  0  0  0  0  0
    5.8478    2.0924    0.0000 C   0  0  0  0  0  0  0  0  0  0  0  0
    7.2040    2.7332    0.0000 O   0  0  0  0  0  0  0  0  0  0  0  0
    4.6147    2.9465    0.0000 C   0  0  0  0  0  0  0  0  0  0  0  0
    3.2585    2.3056    0.0000 C   0  0  0  0  0  0  0  0  0  0  0  0
    3.1354    0.8107    0.0000 C   0  0  0  0  0  0  0  0  0  0  0  0
    1.9023    1.6648    0.0000 C   0  0  0  0  0  0  0  0  0  0  0  0
    1.7792    0.1699    0.0000 C   0  0  0  0  0  0  0  0  0  0  0  0
    0.5461    1.0239    0.0000 C   0  0  0  0  0  0  0  0  0  0  0  0
   -0.8101    0.3831    0.0000 C   0  0  0  0  0  0  0  0  0  0  0  0
   -0.9333   -1.1118    0.0000 C   0  0  0  0  0  0  0  0  0  0  0  0
   -2.2489   -0.3913    0.0000 C   0  0  0  0  0  0  0  0  0  0  0  0
  2  1  1  6
  2  3  1  0
  3  4  1  0
  4  5  1  0
  5  6  2  0
  5  7  1  0
  7  8  1  0
  2  9  1  0
  9 10  1  6
 10 11  1  0
 12 11  1  6
 12 13  1  0
 13 14  1  1
 14 15  1  1
 14 16  1  0
 17 16  1  1
 17 18  1  0
 18 19  1  0
 19 20  1  1
 19 21  1  0
 21 22  1  0
 22 23  1  0
 23 24  1  6
 23 25  1  0
 25 26  1  6
 26 27  1  0
 27 28  1  0
 28 29  1  6
 28  9  1  0
 28 12  1  0
 25 13  1  0
 23 17  1  0
M  END
>  <MS_ID>  (914) 
MS0951

>  <SMILES>  (914) 
C[C@H](CCC(=O)CN)[C@H]1CC[C@H]2[C@@H]3[C@H](O)C[C@@H]4C[C@H](O)CC[C@]4(C)[C@H]3CC[C@]12C

>  <Structure_dimension>  (914) 
2D

$$$$
MS0952
     RDKit          2D

 29 32  0  0  0  0  0  0  0  0999 V2000
   -4.8949   -2.0320    0.0000 C   0  0  0  0  0  0  0  0  0  0  0  0
   -3.7144   -1.1065    0.0000 C   0  0  0  0  0  0  0  0  0  0  0  0
   -3.9257    0.3785    0.0000 C   0  0  0  0  0  0  0  0  0  0  0  0
   -5.3174    0.9381    0.0000 C   0  0  0  0  0  0  0  0  0  0  0  0
   -6.4978    0.0126    0.0000 O   0  0  0  0  0  0  0  0  0  0  0  0
   -5.5286    2.4232    0.0000 C   0  0  0  0  0  0  0  0  0  0  0  0
   -4.3481    3.3486    0.0000 O   0  0  0  0  0  0  0  0  0  0  0  0
   -6.9203    2.9827    0.0000 O   0  0  0  0  0  0  0  0  0  0  0  0
   -2.3227   -1.6661    0.0000 C   0  0  0  0  0  0  0  0  0  0  0  0
   -1.9574   -3.1210    0.0000 C   0  0  0  0  0  0  0  0  0  0  0  0
   -0.4609   -3.2231    0.0000 C   0  0  0  0  0  0  0  0  0  0  0  0
    0.0987   -1.8314    0.0000 C   0  0  0  0  0  0  0  0  0  0  0  0
    1.5074   -1.3160    0.0000 C   0  0  0  0  0  0  0  0  0  0  0  0
    2.6581   -2.2783    0.0000 C   0  0  0  0  0  0  0  0  0  0  0  0
    2.4001   -3.7559    0.0000 O   0  0  0  0  0  0  0  0  0  0  0  0
    4.0667   -1.7629    0.0000 C   0  0  0  0  0  0  0  0  0  0  0  0
    4.3247   -0.2852    0.0000 C   0  0  0  0  0  0  0  0  0  0  0  0
    5.7334    0.2301    0.0000 C   0  0  0  0  0  0  0  0  0  0  0  0
    5.9914    1.7078    0.0000 C   0  0  0  0  0  0  0  0  0  0  0  0
    7.4001    2.2232    0.0000 O   0  0  0  0  0  0  0  0  0  0  0  0
    4.8408    2.6701    0.0000 C   0  0  0  0  0  0  0  0  0  0  0  0
    3.4321    2.1547    0.0000 C   0  0  0  0  0  0  0  0  0  0  0  0
    3.1741    0.6770    0.0000 C   0  0  0  0  0  0  0  0  0  0  0  0
    2.0234    1.6393    0.0000 C   0  0  0  0  0  0  0  0  0  0  0  0
    1.7654    0.1616    0.0000 C   0  0  0  0  0  0  0  0  0  0  0  0
    0.6147    1.1239    0.0000 C   0  0  0  0  0  0  0  0  0  0  0  0
   -0.7940    0.6085    0.0000 C   0  0  0  0  0  0  0  0  0  0  0  0
   -1.0520   -0.8691    0.0000 C   0  0  0  0  0  0  0  0  0  0  0  0
   -2.2969   -0.0324    0.0000 C   0  0  0  0  0  0  0  0  0  0  0  0
  2  1  1  6
  2  3  1  0
  3  4  1  0
  4  5  2  0
  4  6  1  0
  6  7  2  0
  6  8  1  0
  2  9  1  0
  9 10  1  6
 10 11  1  0
 12 11  1  6
 12 13  1  0
 13 14  1  1
 14 15  1  6
 14 16  1  0
 17 16  1  1
 17 18  1  0
 18 19  1  0
 19 20  1  1
 19 21  1  0
 21 22  1  0
 22 23  1  0
 23 24  1  6
 23 25  1  0
 25 26  1  6
 26 27  1  0
 27 28  1  0
 28 29  1  6
 28  9  1  0
 28 12  1  0
 25 13  1  0
 23 17  1  0
M  END
>  <MS_ID>  (915) 
MS0952

>  <SMILES>  (915) 
C[C@H](CC(=O)C(=O)O)[C@H]1CC[C@H]2[C@@H]3[C@@H](O)C[C@@H]4C[C@H](O)CC[C@]4(C)[C@H]3CC[C@]12C

>  <Structure_dimension>  (915) 
2D

$$$$
MS0953
     RDKit          2D

 34 37  0  0  0  0  0  0  0  0999 V2000
   -2.7457   -3.8277    0.0000 C   0  0  0  0  0  0  0  0  0  0  0  0
   -1.9007   -2.5883    0.0000 C   0  0  0  0  0  0  0  0  0  0  0  0
   -2.5515   -1.2369    0.0000 C   0  0  0  0  0  0  0  0  0  0  0  0
   -4.0473   -1.1247    0.0000 C   0  0  0  0  0  0  0  0  0  0  0  0
   -4.6981    0.2267    0.0000 C   0  0  0  0  0  0  0  0  0  0  0  0
   -3.8531    1.4661    0.0000 O   0  0  0  0  0  0  0  0  0  0  0  0
   -6.1939    0.3389    0.0000 O   0  0  0  0  0  0  0  0  0  0  0  0
   -6.8447    1.6903    0.0000 C   0  0  0  0  0  0  0  0  0  0  0  0
   -8.3405    1.8025    0.0000 C   0  0  0  0  0  0  0  0  0  0  0  0
   -8.4526    0.3067    0.0000 C   0  0  0  0  0  0  0  0  0  0  0  0
   -8.2283    3.2983    0.0000 C   0  0  0  0  0  0  0  0  0  0  0  0
   -9.8363    1.9146    0.0000 O   0  0  0  0  0  0  0  0  0  0  0  0
   -0.4049   -2.7005    0.0000 C   0  0  0  0  0  0  0  0  0  0  0  0
    0.3836   -3.9765    0.0000 C   0  0  0  0  0  0  0  0  0  0  0  0
    1.8409   -3.6209    0.0000 C   0  0  0  0  0  0  0  0  0  0  0  0
    1.9530   -2.1251    0.0000 C   0  0  0  0  0  0  0  0  0  0  0  0
    3.1396   -1.2076    0.0000 C   0  0  0  0  0  0  0  0  0  0  0  0
    4.5276   -1.7764    0.0000 C   0  0  0  0  0  0  0  0  0  0  0  0
    4.7289   -3.2629    0.0000 O   0  0  0  0  0  0  0  0  0  0  0  0
    5.7142   -0.8589    0.0000 C   0  0  0  0  0  0  0  0  0  0  0  0
    5.5129    0.6276    0.0000 C   0  0  0  0  0  0  0  0  0  0  0  0
    6.6995    1.5451    0.0000 C   0  0  0  0  0  0  0  0  0  0  0  0
    6.4982    3.0315    0.0000 C   0  0  0  0  0  0  0  0  0  0  0  0
    7.6848    3.9491    0.0000 O   0  0  0  0  0  0  0  0  0  0  0  0
    5.1102    3.6004    0.0000 C   0  0  0  0  0  0  0  0  0  0  0  0
    3.9236    2.6829    0.0000 C   0  0  0  0  0  0  0  0  0  0  0  0
    4.1249    1.1964    0.0000 C   0  0  0  0  0  0  0  0  0  0  0  0
    2.7370    1.7653    0.0000 C   0  0  0  0  0  0  0  0  0  0  0  0
    2.9383    0.2789    0.0000 C   0  0  0  0  0  0  0  0  0  0  0  0
    1.5504    0.8477    0.0000 C   0  0  0  0  0  0  0  0  0  0  0  0
    0.3637   -0.0698    0.0000 C   0  0  0  0  0  0  0  0  0  0  0  0
   -1.0242    0.4991    0.0000 O   0  0  0  0  0  0  0  0  0  0  0  0
    0.5650   -1.5562    0.0000 C   0  0  0  0  0  0  0  0  0  0  0  0
   -0.8748   -1.1356    0.0000 C   0  0  0  0  0  0  0  0  0  0  0  0
  2  1  1  6
  2  3  1  0
  3  4  1  0
  4  5  1  0
  5  6  2  0
  5  7  1  0
  7  8  1  0
  8  9  1  0
  9 10  1  0
  9 11  1  0
  9 12  1  0
  2 13  1  0
 13 14  1  6
 14 15  1  0
 16 15  1  6
 16 17  1  0
 17 18  1  1
 18 19  1  1
 18 20  1  0
 21 20  1  1
 21 22  1  0
 22 23  1  0
 23 24  1  1
 23 25  1  0
 25 26  1  0
 26 27  1  0
 27 28  1  6
 27 29  1  0
 29 30  1  6
 30 31  1  0
 31 32  1  1
 31 33  1  0
 33 34  1  6
 33 13  1  0
 33 16  1  0
 29 17  1  0
 27 21  1  0
M  END
>  <MS_ID>  (916) 
MS0953

>  <SMILES>  (916) 
C[C@H](CCC(=O)OCC(C)(C)O)[C@H]1CC[C@H]2[C@@H]3[C@H](O)C[C@@H]4C[C@H](O)CC[C@]4(C)[C@H]3C[C@H](O)[C@]12C

>  <Structure_dimension>  (916) 
2D

$$$$
MS0954
     RDKit          2D

 31 34  0  0  0  0  0  0  0  0999 V2000
   -4.0382   -3.1592    0.0000 C   0  0  0  0  0  0  0  0  0  0  0  0
   -3.0416   -2.0381    0.0000 C   0  0  0  0  0  0  0  0  0  0  0  0
   -3.5143   -0.6145    0.0000 C   0  0  0  0  0  0  0  0  0  0  0  0
   -4.9835   -0.3121    0.0000 C   0  0  0  0  0  0  0  0  0  0  0  0
   -5.4561    1.1115    0.0000 C   0  0  0  0  0  0  0  0  0  0  0  0
   -4.4596    2.2326    0.0000 O   0  0  0  0  0  0  0  0  0  0  0  0
   -6.9253    1.4140    0.0000 C   0  0  0  0  0  0  0  0  0  0  0  0
   -7.3980    2.8376    0.0000 C   0  0  0  0  0  0  0  0  0  0  0  0
   -8.8672    3.1400    0.0000 N   0  0  0  0  0  0  0  0  0  0  0  0
   -1.5724   -2.3406    0.0000 C   0  0  0  0  0  0  0  0  0  0  0  0
   -0.9536   -3.7070    0.0000 C   0  0  0  0  0  0  0  0  0  0  0  0
    0.5372   -3.5406    0.0000 C   0  0  0  0  0  0  0  0  0  0  0  0
    0.8396   -2.0714    0.0000 C   0  0  0  0  0  0  0  0  0  0  0  0
    2.1338   -1.3131    0.0000 C   0  0  0  0  0  0  0  0  0  0  0  0
    3.4377   -2.0548    0.0000 C   0  0  0  0  0  0  0  0  0  0  0  0
    3.4473   -3.5547    0.0000 O   0  0  0  0  0  0  0  0  0  0  0  0
    4.7319   -1.2965    0.0000 C   0  0  0  0  0  0  0  0  0  0  0  0
    4.7223    0.2035    0.0000 C   0  0  0  0  0  0  0  0  0  0  0  0
    6.0165    0.9618    0.0000 C   0  0  0  0  0  0  0  0  0  0  0  0
    6.0069    2.4618    0.0000 C   0  0  0  0  0  0  0  0  0  0  0  0
    7.3011    3.2201    0.0000 O   0  0  0  0  0  0  0  0  0  0  0  0
    4.7030    3.2034    0.0000 C   0  0  0  0  0  0  0  0  0  0  0  0
    3.4088    2.4451    0.0000 C   0  0  0  0  0  0  0  0  0  0  0  0
    3.4184    0.9452    0.0000 C   0  0  0  0  0  0  0  0  0  0  0  0
    2.1146    1.6868    0.0000 C   0  0  0  0  0  0  0  0  0  0  0  0
    2.1242    0.1869    0.0000 C   0  0  0  0  0  0  0  0  0  0  0  0
    0.8204    0.9285    0.0000 C   0  0  0  0  0  0  0  0  0  0  0  0
   -0.4738    0.1702    0.0000 C   0  0  0  0  0  0  0  0  0  0  0  0
   -1.7776    0.9119    0.0000 O   0  0  0  0  0  0  0  0  0  0  0  0
   -0.4642   -1.3298    0.0000 C   0  0  0  0  0  0  0  0  0  0  0  0
   -1.8384   -0.7284    0.0000 C   0  0  0  0  0  0  0  0  0  0  0  0
  2  1  1  6
  2  3  1  0
  3  4  1  0
  4  5  1  0
  5  6  2  0
  5  7  1  0
  7  8  1  0
  8  9  1  0
  2 10  1  0
 10 11  1  6
 11 12  1  0
 13 12  1  6
 13 14  1  0
 14 15  1  1
 15 16  1  1
 15 17  1  0
 18 17  1  1
 18 19  1  0
 19 20  1  0
 20 21  1  1
 20 22  1  0
 22 23  1  0
 23 24  1  0
 24 25  1  6
 24 26  1  0
 26 27  1  6
 27 28  1  0
 28 29  1  1
 28 30  1  0
 30 31  1  6
 30 10  1  0
 30 13  1  0
 26 14  1  0
 24 18  1  0
M  END
>  <MS_ID>  (917) 
MS0954

>  <SMILES>  (917) 
C[C@H](CCC(=O)CCN)[C@H]1CC[C@H]2[C@@H]3[C@H](O)C[C@@H]4C[C@H](O)CC[C@]4(C)[C@H]3C[C@H](O)[C@]12C

>  <Structure_dimension>  (917) 
2D

$$$$
MS0955
     RDKit          2D

 33 36  0  0  0  0  0  0  0  0999 V2000
   -8.6905    1.4878    0.0000 C   0  0  0  0  0  0  0  0  0  0  0  0
   -7.1926    1.4090    0.0000 C   0  0  0  0  0  0  0  0  0  0  0  0
   -6.5119    0.0724    0.0000 N   0  0  0  0  0  0  0  0  0  0  0  0
   -5.0139   -0.0064    0.0000 C   0  0  0  0  0  0  0  0  0  0  0  0
   -4.1967    1.2514    0.0000 O   0  0  0  0  0  0  0  0  0  0  0  0
   -4.3332   -1.3431    0.0000 C   0  0  0  0  0  0  0  0  0  0  0  0
   -2.8353   -1.4219    0.0000 C   0  0  0  0  0  0  0  0  0  0  0  0
   -2.1546   -2.7585    0.0000 C   0  0  0  0  0  0  0  0  0  0  0  0
   -2.9718   -4.0164    0.0000 C   0  0  0  0  0  0  0  0  0  0  0  0
   -0.6566   -2.8373    0.0000 C   0  0  0  0  0  0  0  0  0  0  0  0
    0.1601   -4.0955    0.0000 C   0  0  0  0  0  0  0  0  0  0  0  0
    1.6091   -3.7075    0.0000 C   0  0  0  0  0  0  0  0  0  0  0  0
    1.6878   -2.2096    0.0000 C   0  0  0  0  0  0  0  0  0  0  0  0
    2.8537   -1.2658    0.0000 C   0  0  0  0  0  0  0  0  0  0  0  0
    4.2540   -1.8037    0.0000 C   0  0  0  0  0  0  0  0  0  0  0  0
    4.4884   -3.2852    0.0000 O   0  0  0  0  0  0  0  0  0  0  0  0
    5.4199   -0.8599    0.0000 C   0  0  0  0  0  0  0  0  0  0  0  0
    5.1855    0.6217    0.0000 C   0  0  0  0  0  0  0  0  0  0  0  0
    6.3514    1.5654    0.0000 C   0  0  0  0  0  0  0  0  0  0  0  0
    6.1171    3.0470    0.0000 C   0  0  0  0  0  0  0  0  0  0  0  0
    7.2830    3.9908    0.0000 O   0  0  0  0  0  0  0  0  0  0  0  0
    4.7168    3.5848    0.0000 C   0  0  0  0  0  0  0  0  0  0  0  0
    3.5509    2.6411    0.0000 C   0  0  0  0  0  0  0  0  0  0  0  0
    3.7853    1.1595    0.0000 C   0  0  0  0  0  0  0  0  0  0  0  0
    2.3850    1.6973    0.0000 C   0  0  0  0  0  0  0  0  0  0  0  0
    2.6194    0.2157    0.0000 C   0  0  0  0  0  0  0  0  0  0  0  0
    1.2191    0.7536    0.0000 C   0  0  0  0  0  0  0  0  0  0  0  0
    0.0532   -0.1902    0.0000 C   0  0  0  0  0  0  0  0  0  0  0  0
    0.2876   -1.6718    0.0000 C   0  0  0  0  0  0  0  0  0  0  0  0
   -1.1612   -1.2833    0.0000 C   0  0  0  0  0  0  0  0  0  0  0  0
   -6.3754    2.6668    0.0000 C   0  0  0  0  0  0  0  0  0  0  0  0
   -4.8775    2.5881    0.0000 O   0  0  0  0  0  0  0  0  0  0  0  0
   -7.0561    4.0035    0.0000 O   0  0  0  0  0  0  0  0  0  0  0  0
  2  1  1  1
  2  3  1  0
  3  4  1  0
  4  5  2  0
  4  6  1  0
  6  7  1  0
  7  8  1  0
  8  9  1  6
  8 10  1  0
 10 11  1  6
 11 12  1  0
 13 12  1  6
 13 14  1  0
 14 15  1  1
 15 16  1  1
 15 17  1  0
 18 17  1  1
 18 19  1  0
 19 20  1  0
 20 21  1  1
 20 22  1  0
 22 23  1  0
 23 24  1  0
 24 25  1  6
 24 26  1  0
 26 27  1  6
 27 28  1  0
 28 29  1  0
 29 30  1  6
  2 31  1  0
 31 32  2  0
 31 33  1  0
 29 10  1  0
 29 13  1  0
 26 14  1  0
 24 18  1  0
M  END
>  <MS_ID>  (918) 
MS0955

>  <SMILES>  (918) 
C[C@H](NC(=O)CC[C@@H](C)[C@H]1CC[C@H]2[C@@H]3[C@H](O)C[C@@H]4C[C@H](O)CC[C@]4(C)[C@H]3CC[C@]12C)C(=O)O

>  <Structure_dimension>  (918) 
2D

$$$$
MS0956
     RDKit          2D

 29 32  0  0  0  0  0  0  0  0999 V2000
   -5.1421   -2.1269    0.0000 C   0  0  0  0  0  0  0  0  0  0  0  0
   -4.0091   -1.1439    0.0000 C   0  0  0  0  0  0  0  0  0  0  0  0
   -4.2938    0.3288    0.0000 C   0  0  0  0  0  0  0  0  0  0  0  0
   -5.7116    0.8186    0.0000 C   0  0  0  0  0  0  0  0  0  0  0  0
   -5.9963    2.2913    0.0000 C   0  0  0  0  0  0  0  0  0  0  0  0
   -4.8632    3.2743    0.0000 O   0  0  0  0  0  0  0  0  0  0  0  0
   -7.4141    2.7811    0.0000 O   0  0  0  0  0  0  0  0  0  0  0  0
   -2.5913   -1.6337    0.0000 C   0  0  0  0  0  0  0  0  0  0  0  0
   -2.1542   -3.0686    0.0000 C   0  0  0  0  0  0  0  0  0  0  0  0
   -0.6544   -3.0963    0.0000 C   0  0  0  0  0  0  0  0  0  0  0  0
   -0.1646   -1.6785    0.0000 C   0  0  0  0  0  0  0  0  0  0  0  0
    1.2167   -1.0938    0.0000 C   0  0  0  0  0  0  0  0  0  0  0  0
    2.4137   -1.9977    0.0000 C   0  0  0  0  0  0  0  0  0  0  0  0
    2.2294   -3.4864    0.0000 C   0  0  0  0  0  0  0  0  0  0  0  0
    3.4265   -4.3903    0.0000 O   0  0  0  0  0  0  0  0  0  0  0  0
    3.7951   -1.4130    0.0000 C   0  0  0  0  0  0  0  0  0  0  0  0
    3.9794    0.0756    0.0000 C   0  0  0  0  0  0  0  0  0  0  0  0
    5.3607    0.6603    0.0000 C   0  0  0  0  0  0  0  0  0  0  0  0
    5.5451    2.1489    0.0000 C   0  0  0  0  0  0  0  0  0  0  0  0
    6.9264    2.7336    0.0000 O   0  0  0  0  0  0  0  0  0  0  0  0
    4.3480    3.0529    0.0000 C   0  0  0  0  0  0  0  0  0  0  0  0
    2.9667    2.4682    0.0000 C   0  0  0  0  0  0  0  0  0  0  0  0
    2.7824    0.9795    0.0000 C   0  0  0  0  0  0  0  0  0  0  0  0
    1.5853    1.8835    0.0000 C   0  0  0  0  0  0  0  0  0  0  0  0
    1.4010    0.3948    0.0000 C   0  0  0  0  0  0  0  0  0  0  0  0
    0.2040    1.2988    0.0000 C   0  0  0  0  0  0  0  0  0  0  0  0
   -1.1774    0.7141    0.0000 C   0  0  0  0  0  0  0  0  0  0  0  0
   -1.3617   -0.7746    0.0000 C   0  0  0  0  0  0  0  0  0  0  0  0
   -2.6467   -0.0007    0.0000 C   0  0  0  0  0  0  0  0  0  0  0  0
  2  1  1  6
  2  3  1  0
  3  4  1  0
  4  5  1  0
  5  6  2  0
  5  7  1  0
  2  8  1  0
  8  9  1  6
  9 10  1  0
 11 10  1  6
 11 12  1  0
 12 13  1  1
 13 14  1  6
 14 15  1  0
 13 16  1  0
 17 16  1  1
 17 18  1  0
 18 19  1  0
 19 20  1  1
 19 21  1  0
 21 22  1  0
 22 23  1  0
 23 24  1  6
 23 25  1  0
 25 26  1  6
 26 27  1  0
 27 28  1  0
 28 29  1  6
 28  8  1  0
 28 11  1  0
 25 12  1  0
 23 17  1  0
M  END
>  <MS_ID>  (919) 
MS0956

>  <SMILES>  (919) 
C[C@H](CCC(=O)O)[C@H]1CC[C@H]2[C@@H]3[C@@H](CO)C[C@@H]4C[C@H](O)CC[C@]4(C)[C@H]3CC[C@]12C

>  <Structure_dimension>  (919) 
2D

$$$$
MS0957
     RDKit          2D

 28 31  0  0  0  0  0  0  0  0999 V2000
   -7.1516    2.9851    0.0000 C   0  0  0  0  0  0  0  0  0  0  0  0
   -5.7600    2.4252    0.0000 C   0  0  0  0  0  0  0  0  0  0  0  0
   -4.5793    3.3503    0.0000 O   0  0  0  0  0  0  0  0  0  0  0  0
   -5.5492    0.9401    0.0000 C   0  0  0  0  0  0  0  0  0  0  0  0
   -4.1576    0.3801    0.0000 C   0  0  0  0  0  0  0  0  0  0  0  0
   -3.9468   -1.1050    0.0000 C   0  0  0  0  0  0  0  0  0  0  0  0
   -5.1275   -2.0302    0.0000 C   0  0  0  0  0  0  0  0  0  0  0  0
   -2.5552   -1.6650    0.0000 C   0  0  0  0  0  0  0  0  0  0  0  0
   -2.1903   -3.1199    0.0000 C   0  0  0  0  0  0  0  0  0  0  0  0
   -0.6938   -3.2225    0.0000 C   0  0  0  0  0  0  0  0  0  0  0  0
   -0.1339   -1.8309    0.0000 C   0  0  0  0  0  0  0  0  0  0  0  0
    1.2750   -1.3159    0.0000 C   0  0  0  0  0  0  0  0  0  0  0  0
    2.4254   -2.2785    0.0000 C   0  0  0  0  0  0  0  0  0  0  0  0
    2.1670   -3.7560    0.0000 O   0  0  0  0  0  0  0  0  0  0  0  0
    3.8342   -1.7635    0.0000 C   0  0  0  0  0  0  0  0  0  0  0  0
    4.0926   -0.2859    0.0000 C   0  0  0  0  0  0  0  0  0  0  0  0
    5.5014    0.2291    0.0000 C   0  0  0  0  0  0  0  0  0  0  0  0
    5.7598    1.7067    0.0000 C   0  0  0  0  0  0  0  0  0  0  0  0
    7.1687    2.2217    0.0000 O   0  0  0  0  0  0  0  0  0  0  0  0
    4.6094    2.6692    0.0000 C   0  0  0  0  0  0  0  0  0  0  0  0
    3.2006    2.1542    0.0000 C   0  0  0  0  0  0  0  0  0  0  0  0
    2.9422    0.6767    0.0000 C   0  0  0  0  0  0  0  0  0  0  0  0
    1.7918    1.6392    0.0000 C   0  0  0  0  0  0  0  0  0  0  0  0
    1.5334    0.1617    0.0000 C   0  0  0  0  0  0  0  0  0  0  0  0
    0.3830    1.1242    0.0000 C   0  0  0  0  0  0  0  0  0  0  0  0
   -1.0259    0.6093    0.0000 C   0  0  0  0  0  0  0  0  0  0  0  0
   -1.2843   -0.8683    0.0000 C   0  0  0  0  0  0  0  0  0  0  0  0
   -2.5290   -0.0313    0.0000 C   0  0  0  0  0  0  0  0  0  0  0  0
  1  2  1  0
  2  3  2  0
  2  4  1  0
  4  5  1  0
  5  6  1  0
  6  7  1  6
  6  8  1  0
  8  9  1  6
  9 10  1  0
 11 10  1  6
 11 12  1  0
 12 13  1  1
 13 14  1  1
 13 15  1  0
 16 15  1  1
 16 17  1  0
 17 18  1  0
 18 19  1  1
 18 20  1  0
 20 21  1  0
 21 22  1  0
 22 23  1  6
 22 24  1  0
 24 25  1  6
 25 26  1  0
 26 27  1  0
 27 28  1  6
 27  8  1  0
 27 11  1  0
 24 12  1  0
 22 16  1  0
M  END
>  <MS_ID>  (920) 
MS0957

>  <SMILES>  (920) 
CC(=O)CC[C@@H](C)[C@H]1CC[C@H]2[C@@H]3[C@H](O)C[C@@H]4C[C@H](O)CC[C@]4(C)[C@H]3CC[C@]12C

>  <Structure_dimension>  (920) 
2D

$$$$
MS0958
     RDKit          2D

 30 33  0  0  0  0  0  0  0  0999 V2000
   -2.9646   -3.6874    0.0000 C   0  0  0  0  0  0  0  0  0  0  0  0
   -2.1035   -2.4593    0.0000 C   0  0  0  0  0  0  0  0  0  0  0  0
   -2.7365   -1.0994    0.0000 C   0  0  0  0  0  0  0  0  0  0  0  0
   -4.2307   -0.9677    0.0000 C   0  0  0  0  0  0  0  0  0  0  0  0
   -4.8638    0.3922    0.0000 C   0  0  0  0  0  0  0  0  0  0  0  0
   -4.0026    1.6204    0.0000 O   0  0  0  0  0  0  0  0  0  0  0  0
   -6.3580    0.5239    0.0000 O   0  0  0  0  0  0  0  0  0  0  0  0
   -6.9910    1.8838    0.0000 C   0  0  0  0  0  0  0  0  0  0  0  0
   -8.4852    2.0155    0.0000 C   0  0  0  0  0  0  0  0  0  0  0  0
   -9.1182    3.3754    0.0000 O   0  0  0  0  0  0  0  0  0  0  0  0
   -0.6093   -2.5910    0.0000 C   0  0  0  0  0  0  0  0  0  0  0  0
    0.1624   -3.8772    0.0000 C   0  0  0  0  0  0  0  0  0  0  0  0
    1.6242   -3.5408    0.0000 C   0  0  0  0  0  0  0  0  0  0  0  0
    1.7559   -2.0466    0.0000 C   0  0  0  0  0  0  0  0  0  0  0  0
    2.9545   -1.1446    0.0000 C   0  0  0  0  0  0  0  0  0  0  0  0
    4.3348   -1.7316    0.0000 C   0  0  0  0  0  0  0  0  0  0  0  0
    5.5334   -0.8297    0.0000 C   0  0  0  0  0  0  0  0  0  0  0  0
    5.3516    0.6593    0.0000 C   0  0  0  0  0  0  0  0  0  0  0  0
    6.5501    1.5612    0.0000 C   0  0  0  0  0  0  0  0  0  0  0  0
    6.3683    3.0501    0.0000 C   0  0  0  0  0  0  0  0  0  0  0  0
    4.9879    3.6371    0.0000 C   0  0  0  0  0  0  0  0  0  0  0  0
    3.7894    2.7352    0.0000 C   0  0  0  0  0  0  0  0  0  0  0  0
    3.9712    1.2463    0.0000 C   0  0  0  0  0  0  0  0  0  0  0  0
    2.5908    1.8333    0.0000 C   0  0  0  0  0  0  0  0  0  0  0  0
    2.7726    0.3443    0.0000 C   0  0  0  0  0  0  0  0  0  0  0  0
    1.3923    0.9313    0.0000 C   0  0  0  0  0  0  0  0  0  0  0  0
    0.1937    0.0294    0.0000 C   0  0  0  0  0  0  0  0  0  0  0  0
   -1.1866    0.6164    0.0000 O   0  0  0  0  0  0  0  0  0  0  0  0
    0.3756   -1.4596    0.0000 C   0  0  0  0  0  0  0  0  0  0  0  0
   -1.0586   -1.0201    0.0000 C   0  0  0  0  0  0  0  0  0  0  0  0
  2  1  1  6
  2  3  1  0
  3  4  1  0
  4  5  1  0
  5  6  2  0
  5  7  1  0
  7  8  1  0
  8  9  1  0
  9 10  1  0
  2 11  1  0
 11 12  1  6
 12 13  1  0
 14 13  1  6
 14 15  1  0
 15 16  1  1
 16 17  1  0
 18 17  1  1
 18 19  1  0
 19 20  1  0
 20 21  1  0
 21 22  1  0
 22 23  1  0
 23 24  1  6
 23 25  1  0
 25 26  1  6
 26 27  1  0
 27 28  1  6
 27 29  1  0
 29 30  1  6
 29 11  1  0
 29 14  1  0
 25 15  1  0
 23 18  1  0
M  END
>  <MS_ID>  (921) 
MS0958

>  <SMILES>  (921) 
C[C@H](CCC(=O)OCCO)[C@H]1CC[C@H]2[C@@H]3CC[C@@H]4CCCC[C@]4(C)[C@H]3C[C@@H](O)[C@]12C

>  <Structure_dimension>  (921) 
2D

$$$$
MS0959
     RDKit          2D

 33 37  0  0  0  0  0  0  0  0999 V2000
   -3.1427   -3.3426    0.0000 C   0  0  0  0  0  0  0  0  0  0  0  0
   -2.1899   -2.1841    0.0000 C   0  0  0  0  0  0  0  0  0  0  0  0
   -2.7167   -0.7797    0.0000 C   0  0  0  0  0  0  0  0  0  0  0  0
   -4.1964   -0.5338    0.0000 C   0  0  0  0  0  0  0  0  0  0  0  0
   -4.7233    0.8707    0.0000 C   0  0  0  0  0  0  0  0  0  0  0  0
   -3.7705    2.0292    0.0000 O   0  0  0  0  0  0  0  0  0  0  0  0
   -6.2030    1.1166    0.0000 C   0  0  0  0  0  0  0  0  0  0  0  0
   -6.7299    2.5210    0.0000 C   0  0  0  0  0  0  0  0  0  0  0  0
   -8.2096    2.7669    0.0000 C   0  0  0  0  0  0  0  0  0  0  0  0
   -9.1624    1.6084    0.0000 C   0  0  0  0  0  0  0  0  0  0  0  0
   -8.6355    0.2040    0.0000 N   0  0  0  0  0  0  0  0  0  0  0  0
   -7.1558   -0.0419    0.0000 C   0  0  0  0  0  0  0  0  0  0  0  0
   -0.7102   -2.4300    0.0000 C   0  0  0  0  0  0  0  0  0  0  0  0
   -0.0394   -3.7717    0.0000 C   0  0  0  0  0  0  0  0  0  0  0  0
    1.4439   -3.5483    0.0000 C   0  0  0  0  0  0  0  0  0  0  0  0
    1.6898   -2.0686    0.0000 C   0  0  0  0  0  0  0  0  0  0  0  0
    2.9540   -1.2613    0.0000 C   0  0  0  0  0  0  0  0  0  0  0  0
    4.2853   -1.9524    0.0000 C   0  0  0  0  0  0  0  0  0  0  0  0
    4.3524   -3.4509    0.0000 O   0  0  0  0  0  0  0  0  0  0  0  0
    5.5495   -1.1451    0.0000 C   0  0  0  0  0  0  0  0  0  0  0  0
    5.4824    0.3534    0.0000 C   0  0  0  0  0  0  0  0  0  0  0  0
    6.7466    1.1608    0.0000 C   0  0  0  0  0  0  0  0  0  0  0  0
    6.6795    2.6593    0.0000 C   0  0  0  0  0  0  0  0  0  0  0  0
    7.9437    3.4666    0.0000 O   0  0  0  0  0  0  0  0  0  0  0  0
    5.3482    3.3504    0.0000 C   0  0  0  0  0  0  0  0  0  0  0  0
    4.0840    2.5431    0.0000 C   0  0  0  0  0  0  0  0  0  0  0  0
    4.1511    1.0446    0.0000 C   0  0  0  0  0  0  0  0  0  0  0  0
    2.8198    1.7357    0.0000 C   0  0  0  0  0  0  0  0  0  0  0  0
    2.8869    0.2372    0.0000 C   0  0  0  0  0  0  0  0  0  0  0  0
    1.5556    0.9284    0.0000 C   0  0  0  0  0  0  0  0  0  0  0  0
    0.2915    0.1210    0.0000 C   0  0  0  0  0  0  0  0  0  0  0  0
    0.3586   -1.3775    0.0000 C   0  0  0  0  0  0  0  0  0  0  0  0
   -1.0377   -0.8293    0.0000 C   0  0  0  0  0  0  0  0  0  0  0  0
  2  1  1  6
  2  3  1  0
  3  4  1  0
  4  5  1  0
  5  6  2  0
  5  7  1  0
  7  8  2  0
  8  9  1  0
  9 10  2  0
 10 11  1  0
 11 12  2  0
  2 13  1  0
 13 14  1  6
 14 15  1  0
 16 15  1  6
 16 17  1  0
 17 18  1  1
 18 19  1  1
 18 20  1  0
 21 20  1  1
 21 22  1  0
 22 23  1  0
 23 24  1  1
 23 25  1  0
 25 26  1  0
 26 27  1  0
 27 28  1  6
 27 29  1  0
 29 30  1  6
 30 31  1  0
 31 32  1  0
 32 33  1  6
 12  7  1  0
 32 13  1  0
 32 16  1  0
 29 17  1  0
 27 21  1  0
M  END
>  <MS_ID>  (922) 
MS0959

>  <SMILES>  (922) 
C[C@H](CCC(=O)c1cccnc1)[C@H]1CC[C@H]2[C@@H]3[C@H](O)C[C@@H]4C[C@H](O)CC[C@]4(C)[C@H]3CC[C@]12C

>  <Structure_dimension>  (922) 
2D

$$$$
MS0960
     RDKit          2D

 34 37  0  0  0  0  0  0  0  0999 V2000
   -2.8787   -3.9813    0.0000 C   0  0  0  0  0  0  0  0  0  0  0  0
   -2.0569   -2.7265    0.0000 C   0  0  0  0  0  0  0  0  0  0  0  0
   -2.7327   -1.3874    0.0000 C   0  0  0  0  0  0  0  0  0  0  0  0
   -4.2303   -1.3031    0.0000 C   0  0  0  0  0  0  0  0  0  0  0  0
   -4.9061    0.0361    0.0000 C   0  0  0  0  0  0  0  0  0  0  0  0
   -4.0843    1.2909    0.0000 O   0  0  0  0  0  0  0  0  0  0  0  0
   -6.4038    0.1204    0.0000 N   0  0  0  0  0  0  0  0  0  0  0  0
   -7.0796    1.4595    0.0000 C   0  0  0  0  0  0  0  0  0  0  0  0
   -8.4187    0.7837    0.0000 C   0  0  0  0  0  0  0  0  0  0  0  0
   -5.7404    2.1353    0.0000 C   0  0  0  0  0  0  0  0  0  0  0  0
   -7.7554    2.7987    0.0000 C   0  0  0  0  0  0  0  0  0  0  0  0
   -6.9335    4.0535    0.0000 O   0  0  0  0  0  0  0  0  0  0  0  0
   -0.5593   -2.8108    0.0000 C   0  0  0  0  0  0  0  0  0  0  0  0
    0.2528   -4.0720    0.0000 C   0  0  0  0  0  0  0  0  0  0  0  0
    1.7032   -3.6894    0.0000 C   0  0  0  0  0  0  0  0  0  0  0  0
    1.7875   -2.1917    0.0000 C   0  0  0  0  0  0  0  0  0  0  0  0
    2.9569   -1.2523    0.0000 C   0  0  0  0  0  0  0  0  0  0  0  0
    4.3551   -1.7952    0.0000 C   0  0  0  0  0  0  0  0  0  0  0  0
    4.5841   -3.2777    0.0000 O   0  0  0  0  0  0  0  0  0  0  0  0
    5.5245   -0.8558    0.0000 C   0  0  0  0  0  0  0  0  0  0  0  0
    5.2956    0.6267    0.0000 C   0  0  0  0  0  0  0  0  0  0  0  0
    6.4650    1.5661    0.0000 C   0  0  0  0  0  0  0  0  0  0  0  0
    6.2361    3.0485    0.0000 C   0  0  0  0  0  0  0  0  0  0  0  0
    7.4054    3.9880    0.0000 O   0  0  0  0  0  0  0  0  0  0  0  0
    4.8378    3.5915    0.0000 C   0  0  0  0  0  0  0  0  0  0  0  0
    3.6684    2.6521    0.0000 C   0  0  0  0  0  0  0  0  0  0  0  0
    3.8973    1.1696    0.0000 C   0  0  0  0  0  0  0  0  0  0  0  0
    2.4990    1.7126    0.0000 C   0  0  0  0  0  0  0  0  0  0  0  0
    2.7280    0.2302    0.0000 C   0  0  0  0  0  0  0  0  0  0  0  0
    1.3297    0.7731    0.0000 C   0  0  0  0  0  0  0  0  0  0  0  0
    0.1603   -0.1663    0.0000 C   0  0  0  0  0  0  0  0  0  0  0  0
   -1.2380    0.3766    0.0000 O   0  0  0  0  0  0  0  0  0  0  0  0
    0.3892   -1.6488    0.0000 C   0  0  0  0  0  0  0  0  0  0  0  0
   -1.0582   -1.2549    0.0000 C   0  0  0  0  0  0  0  0  0  0  0  0
  2  1  1  6
  2  3  1  0
  3  4  1  0
  4  5  1  0
  5  6  2  0
  5  7  1  0
  7  8  1  0
  8  9  1  0
  8 10  1  0
  8 11  1  0
 11 12  1  0
  2 13  1  0
 13 14  1  6
 14 15  1  0
 16 15  1  6
 16 17  1  0
 17 18  1  1
 18 19  1  1
 18 20  1  0
 21 20  1  1
 21 22  1  0
 22 23  1  0
 23 24  1  1
 23 25  1  0
 25 26  1  0
 26 27  1  0
 27 28  1  6
 27 29  1  0
 29 30  1  6
 30 31  1  0
 31 32  1  1
 31 33  1  0
 33 34  1  6
 33 13  1  0
 33 16  1  0
 29 17  1  0
 27 21  1  0
M  END
>  <MS_ID>  (923) 
MS0960

>  <SMILES>  (923) 
C[C@H](CCC(=O)NC(C)(C)CO)[C@H]1CC[C@H]2[C@@H]3[C@H](O)C[C@@H]4C[C@H](O)CC[C@]4(C)[C@H]3C[C@H](O)[C@]12C

>  <Structure_dimension>  (923) 
2D

$$$$
MS0961
     RDKit          2D

 30 33  0  0  0  0  0  0  0  0999 V2000
   -4.2255   -2.8134    0.0000 C   0  0  0  0  0  0  0  0  0  0  0  0
   -3.1320   -1.7867    0.0000 C   0  0  0  0  0  0  0  0  0  0  0  0
   -3.4744   -0.3263    0.0000 C   0  0  0  0  0  0  0  0  0  0  0  0
   -4.9104    0.1074    0.0000 C   0  0  0  0  0  0  0  0  0  0  0  0
   -5.2528    1.5677    0.0000 C   0  0  0  0  0  0  0  0  0  0  0  0
   -4.1593    2.5945    0.0000 O   0  0  0  0  0  0  0  0  0  0  0  0
   -6.6888    2.0014    0.0000 C   0  0  0  0  0  0  0  0  0  0  0  0
   -7.7823    0.9746    0.0000 O   0  0  0  0  0  0  0  0  0  0  0  0
   -7.0312    3.4618    0.0000 O   0  0  0  0  0  0  0  0  0  0  0  0
   -1.6961   -2.2203    0.0000 C   0  0  0  0  0  0  0  0  0  0  0  0
   -1.2029   -3.6369    0.0000 C   0  0  0  0  0  0  0  0  0  0  0  0
    0.2968   -3.6056    0.0000 C   0  0  0  0  0  0  0  0  0  0  0  0
    0.7305   -2.1697    0.0000 C   0  0  0  0  0  0  0  0  0  0  0  0
    2.0877   -1.5311    0.0000 C   0  0  0  0  0  0  0  0  0  0  0  0
    3.3194   -2.3873    0.0000 C   0  0  0  0  0  0  0  0  0  0  0  0
    4.6767   -1.7487    0.0000 C   0  0  0  0  0  0  0  0  0  0  0  0
    4.8023   -0.2540    0.0000 C   0  0  0  0  0  0  0  0  0  0  0  0
    6.1596    0.3846    0.0000 C   0  0  0  0  0  0  0  0  0  0  0  0
    6.2852    1.8794    0.0000 C   0  0  0  0  0  0  0  0  0  0  0  0
    7.6425    2.5179    0.0000 O   0  0  0  0  0  0  0  0  0  0  0  0
    5.0536    2.7355    0.0000 C   0  0  0  0  0  0  0  0  0  0  0  0
    3.6963    2.0969    0.0000 C   0  0  0  0  0  0  0  0  0  0  0  0
    3.5706    0.6022    0.0000 C   0  0  0  0  0  0  0  0  0  0  0  0
    2.3390    1.4584    0.0000 C   0  0  0  0  0  0  0  0  0  0  0  0
    2.2134   -0.0364    0.0000 C   0  0  0  0  0  0  0  0  0  0  0  0
    0.9817    0.8198    0.0000 C   0  0  0  0  0  0  0  0  0  0  0  0
   -0.3756    0.1812    0.0000 C   0  0  0  0  0  0  0  0  0  0  0  0
   -1.6072    1.0374    0.0000 O   0  0  0  0  0  0  0  0  0  0  0  0
   -0.5012   -1.3135    0.0000 C   0  0  0  0  0  0  0  0  0  0  0  0
   -1.8156   -0.5908    0.0000 C   0  0  0  0  0  0  0  0  0  0  0  0
  2  1  1  6
  2  3  1  0
  3  4  1  0
  4  5  1  0
  5  6  2  0
  5  7  1  0
  7  8  2  0
  7  9  1  0
  2 10  1  0
 10 11  1  6
 11 12  1  0
 13 12  1  6
 13 14  1  0
 14 15  1  1
 15 16  1  0
 17 16  1  1
 17 18  1  0
 18 19  1  0
 19 20  1  1
 19 21  1  0
 21 22  1  0
 22 23  1  0
 23 24  1  6
 23 25  1  0
 25 26  1  6
 26 27  1  0
 27 28  1  6
 27 29  1  0
 29 30  1  6
 29 10  1  0
 29 13  1  0
 25 14  1  0
 23 17  1  0
M  END
>  <MS_ID>  (924) 
MS0961

>  <SMILES>  (924) 
C[C@H](CCC(=O)C(=O)O)[C@H]1CC[C@H]2[C@@H]3CC[C@@H]4C[C@H](O)CC[C@]4(C)[C@H]3C[C@@H](O)[C@]12C

>  <Structure_dimension>  (924) 
2D

$$$$
MS0962
     RDKit          2D

 34 37  0  0  0  0  0  0  0  0999 V2000
   -2.9284   -4.0293    0.0000 C   0  0  0  0  0  0  0  0  0  0  0  0
   -2.1124   -2.7707    0.0000 C   0  0  0  0  0  0  0  0  0  0  0  0
   -2.7943   -1.4347    0.0000 C   0  0  0  0  0  0  0  0  0  0  0  0
   -4.2923   -1.3573    0.0000 C   0  0  0  0  0  0  0  0  0  0  0  0
   -4.9743   -0.0213    0.0000 C   0  0  0  0  0  0  0  0  0  0  0  0
   -4.1583    1.2374    0.0000 O   0  0  0  0  0  0  0  0  0  0  0  0
   -6.4723    0.0562    0.0000 N   0  0  0  0  0  0  0  0  0  0  0  0
   -7.1543    1.3922    0.0000 C   0  0  0  0  0  0  0  0  0  0  0  0
   -8.6523    1.4696    0.0000 C   0  0  0  0  0  0  0  0  0  0  0  0
   -6.3382    2.6508    0.0000 C   0  0  0  0  0  0  0  0  0  0  0  0
   -4.8402    2.5734    0.0000 O   0  0  0  0  0  0  0  0  0  0  0  0
   -7.0202    3.9868    0.0000 O   0  0  0  0  0  0  0  0  0  0  0  0
   -0.6144   -2.8481    0.0000 C   0  0  0  0  0  0  0  0  0  0  0  0
    0.2035   -4.1055    0.0000 C   0  0  0  0  0  0  0  0  0  0  0  0
    1.6521   -3.7162    0.0000 C   0  0  0  0  0  0  0  0  0  0  0  0
    1.7295   -2.2182    0.0000 C   0  0  0  0  0  0  0  0  0  0  0  0
    2.8945   -1.2734    0.0000 C   0  0  0  0  0  0  0  0  0  0  0  0
    4.2953   -1.8099    0.0000 C   0  0  0  0  0  0  0  0  0  0  0  0
    4.5310   -3.2913    0.0000 O   0  0  0  0  0  0  0  0  0  0  0  0
    5.4603   -0.8651    0.0000 C   0  0  0  0  0  0  0  0  0  0  0  0
    5.2246    0.6163    0.0000 C   0  0  0  0  0  0  0  0  0  0  0  0
    6.3896    1.5611    0.0000 C   0  0  0  0  0  0  0  0  0  0  0  0
    6.1539    3.0425    0.0000 C   0  0  0  0  0  0  0  0  0  0  0  0
    7.3189    3.9873    0.0000 O   0  0  0  0  0  0  0  0  0  0  0  0
    4.7531    3.5790    0.0000 C   0  0  0  0  0  0  0  0  0  0  0  0
    3.5881    2.6342    0.0000 C   0  0  0  0  0  0  0  0  0  0  0  0
    3.8238    1.1528    0.0000 C   0  0  0  0  0  0  0  0  0  0  0  0
    2.4231    1.6893    0.0000 C   0  0  0  0  0  0  0  0  0  0  0  0
    2.6588    0.2080    0.0000 C   0  0  0  0  0  0  0  0  0  0  0  0
    1.2580    0.7445    0.0000 C   0  0  0  0  0  0  0  0  0  0  0  0
    0.0930   -0.2003    0.0000 C   0  0  0  0  0  0  0  0  0  0  0  0
   -1.3077    0.3362    0.0000 O   0  0  0  0  0  0  0  0  0  0  0  0
    0.3287   -1.6817    0.0000 C   0  0  0  0  0  0  0  0  0  0  0  0
   -1.1204   -1.2945    0.0000 C   0  0  0  0  0  0  0  0  0  0  0  0
  2  1  1  6
  2  3  1  0
  3  4  1  0
  4  5  1  0
  5  6  2  0
  5  7  1  0
  7  8  1  0
  8  9  1  6
  8 10  1  0
 10 11  2  0
 10 12  1  0
  2 13  1  0
 13 14  1  6
 14 15  1  0
 16 15  1  6
 16 17  1  0
 17 18  1  1
 18 19  1  1
 18 20  1  0
 21 20  1  1
 21 22  1  0
 22 23  1  0
 23 24  1  1
 23 25  1  0
 25 26  1  0
 26 27  1  0
 27 28  1  6
 27 29  1  0
 29 30  1  6
 30 31  1  0
 31 32  1  1
 31 33  1  0
 33 34  1  6
 33 13  1  0
 33 16  1  0
 29 17  1  0
 27 21  1  0
M  END
>  <MS_ID>  (925) 
MS0962

>  <SMILES>  (925) 
C[C@H](CCC(=O)N[C@H](C)C(=O)O)[C@H]1CC[C@H]2[C@@H]3[C@H](O)C[C@@H]4C[C@H](O)CC[C@]4(C)[C@H]3C[C@H](O)[C@]12C

>  <Structure_dimension>  (925) 
2D

$$$$
MS0963
     RDKit          2D

 38 42  0  0  0  0  0  0  0  0999 V2000
   -8.4623   -1.5846    0.0000 C   0  0  0  0  0  0  0  0  0  0  0  0
   -7.1956   -0.7812    0.0000 C   0  0  0  0  0  0  0  0  0  0  0  0
   -7.2581    0.7175    0.0000 C   0  0  0  0  0  0  0  0  0  0  0  0
   -8.5872    1.4128    0.0000 C   0  0  0  0  0  0  0  0  0  0  0  0
   -8.6497    2.9115    0.0000 C   0  0  0  0  0  0  0  0  0  0  0  0
   -7.3830    3.7149    0.0000 O   0  0  0  0  0  0  0  0  0  0  0  0
   -9.9788    3.6068    0.0000 O   0  0  0  0  0  0  0  0  0  0  0  0
   -5.8665   -1.4764    0.0000 C   0  0  0  0  0  0  0  0  0  0  0  0
   -5.6477   -2.9604    0.0000 C   0  0  0  0  0  0  0  0  0  0  0  0
   -4.1688   -3.2109    0.0000 C   0  0  0  0  0  0  0  0  0  0  0  0
   -3.4735   -1.8818    0.0000 C   0  0  0  0  0  0  0  0  0  0  0  0
   -2.0206   -1.5091    0.0000 C   0  0  0  0  0  0  0  0  0  0  0  0
   -0.9713   -2.5810    0.0000 C   0  0  0  0  0  0  0  0  0  0  0  0
   -1.3750   -4.0257    0.0000 O   0  0  0  0  0  0  0  0  0  0  0  0
    0.4816   -2.2083    0.0000 C   0  0  0  0  0  0  0  0  0  0  0  0
    0.8854   -0.7637    0.0000 C   0  0  0  0  0  0  0  0  0  0  0  0
    2.3383   -0.3910    0.0000 C   0  0  0  0  0  0  0  0  0  0  0  0
    2.7421    1.0536    0.0000 C   0  0  0  0  0  0  0  0  0  0  0  0
    4.1950    1.4263    0.0000 O   0  0  0  0  0  0  0  0  0  0  0  0
    5.2443    0.3544    0.0000 C   0  0  0  0  0  0  0  0  0  0  0  0
    4.8405   -1.0903    0.0000 O   0  0  0  0  0  0  0  0  0  0  0  0
    6.6972    0.7270    0.0000 C   0  0  0  0  0  0  0  0  0  0  0  0
    7.7465   -0.3449    0.0000 C   0  0  0  0  0  0  0  0  0  0  0  0
    9.1994    0.0278    0.0000 C   0  0  0  0  0  0  0  0  0  0  0  0
   10.2487   -1.0442    0.0000 C   0  0  0  0  0  0  0  0  0  0  0  0
   11.7016   -0.6715    0.0000 C   0  0  0  0  0  0  0  0  0  0  0  0
   12.1054    0.7731    0.0000 C   0  0  0  0  0  0  0  0  0  0  0  0
   11.0561    1.8451    0.0000 C   0  0  0  0  0  0  0  0  0  0  0  0
    9.6032    1.4724    0.0000 C   0  0  0  0  0  0  0  0  0  0  0  0
    1.6928    2.1256    0.0000 C   0  0  0  0  0  0  0  0  0  0  0  0
    0.2399    1.7529    0.0000 C   0  0  0  0  0  0  0  0  0  0  0  0
   -0.1639    0.3083    0.0000 C   0  0  0  0  0  0  0  0  0  0  0  0
   -1.2131    1.3802    0.0000 C   0  0  0  0  0  0  0  0  0  0  0  0
   -1.6168   -0.0644    0.0000 C   0  0  0  0  0  0  0  0  0  0  0  0
   -2.6661    1.0075    0.0000 C   0  0  0  0  0  0  0  0  0  0  0  0
   -4.1190    0.6349    0.0000 C   0  0  0  0  0  0  0  0  0  0  0  0
   -4.5228   -0.8098    0.0000 C   0  0  0  0  0  0  0  0  0  0  0  0
   -5.6783    0.1466    0.0000 C   0  0  0  0  0  0  0  0  0  0  0  0
  2  1  1  6
  2  3  1  0
  3  4  1  0
  4  5  1  0
  5  6  2  0
  5  7  1  0
  2  8  1  0
  8  9  1  6
  9 10  1  0
 11 10  1  6
 11 12  1  0
 12 13  1  1
 13 14  1  1
 13 15  1  0
 16 15  1  1
 16 17  1  0
 17 18  1  0
 18 19  1  1
 19 20  1  0
 20 21  2  0
 20 22  1  0
 22 23  2  0
 23 24  1  0
 24 25  2  0
 25 26  1  0
 26 27  2  0
 27 28  1  0
 28 29  2  0
 18 30  1  0
 30 31  1  0
 31 32  1  0
 32 33  1  6
 32 34  1  0
 34 35  1  6
 35 36  1  0
 36 37  1  0
 37 38  1  6
 37  8  1  0
 37 11  1  0
 34 12  1  0
 32 16  1  0
 29 24  1  0
M  END
>  <MS_ID>  (926) 
MS0963

>  <SMILES>  (926) 
C[C@H](CCC(=O)O)[C@H]1CC[C@H]2[C@@H]3[C@H](O)C[C@@H]4C[C@H](OC(=O)/C=C/c5ccccc5)CC[C@]4(C)[C@H]3CC[C@]12C

>  <Structure_dimension>  (926) 
2D

$$$$
MS0964
     RDKit          2D

 35 38  0  0  0  0  0  0  0  0999 V2000
   -9.1800    2.3188    0.0000 C   0  0  0  0  0  0  0  0  0  0  0  0
   -8.4391    1.0145    0.0000 O   0  0  0  0  0  0  0  0  0  0  0  0
   -6.9392    1.0039    0.0000 C   0  0  0  0  0  0  0  0  0  0  0  0
   -6.1984   -0.3004    0.0000 C   0  0  0  0  0  0  0  0  0  0  0  0
   -4.6984   -0.3110    0.0000 C   0  0  0  0  0  0  0  0  0  0  0  0
   -3.9393    0.9827    0.0000 O   0  0  0  0  0  0  0  0  0  0  0  0
   -3.9576   -1.6153    0.0000 C   0  0  0  0  0  0  0  0  0  0  0  0
   -2.4577   -1.6259    0.0000 C   0  0  0  0  0  0  0  0  0  0  0  0
   -1.7169   -2.9302    0.0000 C   0  0  0  0  0  0  0  0  0  0  0  0
   -2.4760   -4.2239    0.0000 C   0  0  0  0  0  0  0  0  0  0  0  0
   -0.2169   -2.9408    0.0000 C   0  0  0  0  0  0  0  0  0  0  0  0
    0.6562   -4.1606    0.0000 C   0  0  0  0  0  0  0  0  0  0  0  0
    2.0860   -3.7071    0.0000 C   0  0  0  0  0  0  0  0  0  0  0  0
    2.0966   -2.2072    0.0000 C   0  0  0  0  0  0  0  0  0  0  0  0
    3.2184   -1.2114    0.0000 C   0  0  0  0  0  0  0  0  0  0  0  0
    4.6417   -1.6850    0.0000 C   0  0  0  0  0  0  0  0  0  0  0  0
    4.9432   -3.1544    0.0000 O   0  0  0  0  0  0  0  0  0  0  0  0
    5.7634   -0.6892    0.0000 C   0  0  0  0  0  0  0  0  0  0  0  0
    5.4620    0.7802    0.0000 C   0  0  0  0  0  0  0  0  0  0  0  0
    6.5837    1.7760    0.0000 C   0  0  0  0  0  0  0  0  0  0  0  0
    6.2822    3.2454    0.0000 C   0  0  0  0  0  0  0  0  0  0  0  0
    7.4040    4.2412    0.0000 O   0  0  0  0  0  0  0  0  0  0  0  0
    4.8590    3.7190    0.0000 C   0  0  0  0  0  0  0  0  0  0  0  0
    3.7372    2.7232    0.0000 C   0  0  0  0  0  0  0  0  0  0  0  0
    4.0387    1.2538    0.0000 C   0  0  0  0  0  0  0  0  0  0  0  0
    2.6154    1.7274    0.0000 C   0  0  0  0  0  0  0  0  0  0  0  0
    2.9169    0.2580    0.0000 C   0  0  0  0  0  0  0  0  0  0  0  0
    1.4936    0.7316    0.0000 C   0  0  0  0  0  0  0  0  0  0  0  0
    0.3718   -0.2642    0.0000 C   0  0  0  0  0  0  0  0  0  0  0  0
   -1.0514    0.2094    0.0000 O   0  0  0  0  0  0  0  0  0  0  0  0
    0.6733   -1.7336    0.0000 C   0  0  0  0  0  0  0  0  0  0  0  0
   -0.7916   -1.4113    0.0000 C   0  0  0  0  0  0  0  0  0  0  0  0
   -6.1800    2.2976    0.0000 C   0  0  0  0  0  0  0  0  0  0  0  0
   -4.6801    2.2870    0.0000 O   0  0  0  0  0  0  0  0  0  0  0  0
   -6.9208    3.6019    0.0000 O   0  0  0  0  0  0  0  0  0  0  0  0
  1  2  1  0
  2  3  1  0
  3  4  2  0
  4  5  1  0
  5  6  2  0
  5  7  1  0
  7  8  1  0
  8  9  1  0
  9 10  1  6
  9 11  1  0
 11 12  1  6
 12 13  1  0
 14 13  1  6
 14 15  1  0
 15 16  1  1
 16 17  1  1
 16 18  1  0
 19 18  1  1
 19 20  1  0
 20 21  1  0
 21 22  1  1
 21 23  1  0
 23 24  1  0
 24 25  1  0
 25 26  1  6
 25 27  1  0
 27 28  1  6
 28 29  1  0
 29 30  1  1
 29 31  1  0
 31 32  1  6
  3 33  1  0
 33 34  2  0
 33 35  1  0
 31 11  1  0
 31 14  1  0
 27 15  1  0
 25 19  1  0
M  END
>  <MS_ID>  (927) 
MS0964

>  <SMILES>  (927) 
CO/C(=C/C(=O)CC[C@@H](C)[C@H]1CC[C@H]2[C@@H]3[C@H](O)C[C@@H]4C[C@H](O)CC[C@]4(C)[C@H]3C[C@H](O)[C@]12C)C(=O)O

>  <Structure_dimension>  (927) 
2D

$$$$
MS0965
     RDKit          2D

 32 35  0  0  0  0  0  0  0  0999 V2000
   -6.3148   -1.8053    0.0000 C   0  0  0  0  0  0  0  0  0  0  0  0
   -5.0840   -0.9480    0.0000 C   0  0  0  0  0  0  0  0  0  0  0  0
   -5.2110    0.5466    0.0000 C   0  0  0  0  0  0  0  0  0  0  0  0
   -6.5688    1.1840    0.0000 C   0  0  0  0  0  0  0  0  0  0  0  0
   -6.6958    2.6786    0.0000 C   0  0  0  0  0  0  0  0  0  0  0  0
   -5.4650    3.5359    0.0000 O   0  0  0  0  0  0  0  0  0  0  0  0
   -8.0537    3.3159    0.0000 O   0  0  0  0  0  0  0  0  0  0  0  0
   -3.7261   -1.5853    0.0000 C   0  0  0  0  0  0  0  0  0  0  0  0
   -3.4436   -3.0584    0.0000 C   0  0  0  0  0  0  0  0  0  0  0  0
   -1.9552   -3.2450    0.0000 C   0  0  0  0  0  0  0  0  0  0  0  0
   -1.3179   -1.8871    0.0000 C   0  0  0  0  0  0  0  0  0  0  0  0
    0.1177   -1.4521    0.0000 C   0  0  0  0  0  0  0  0  0  0  0  0
    1.2121   -2.4779    0.0000 C   0  0  0  0  0  0  0  0  0  0  0  0
    0.8711   -3.9386    0.0000 O   0  0  0  0  0  0  0  0  0  0  0  0
    2.6477   -2.0429    0.0000 C   0  0  0  0  0  0  0  0  0  0  0  0
    2.9888   -0.5822    0.0000 C   0  0  0  0  0  0  0  0  0  0  0  0
    4.4243   -0.1472    0.0000 C   0  0  0  0  0  0  0  0  0  0  0  0
    4.7654    1.3135    0.0000 C   0  0  0  0  0  0  0  0  0  0  0  0
    6.2009    1.7485    0.0000 C   0  0  0  0  0  0  0  0  0  0  0  0
    7.2954    0.7227    0.0000 S   0  0  0  0  0  0  0  0  0  0  0  0
    8.3211    1.8172    0.0000 O   0  0  0  0  0  0  0  0  0  0  0  0
    6.2697   -0.3717    0.0000 O   0  0  0  0  0  0  0  0  0  0  0  0
    8.3899   -0.3030    0.0000 O   0  0  0  0  0  0  0  0  0  0  0  0
    3.6709    2.3392    0.0000 C   0  0  0  0  0  0  0  0  0  0  0  0
    2.2354    1.9043    0.0000 C   0  0  0  0  0  0  0  0  0  0  0  0
    1.8943    0.4436    0.0000 C   0  0  0  0  0  0  0  0  0  0  0  0
    0.7998    1.4693    0.0000 C   0  0  0  0  0  0  0  0  0  0  0  0
    0.4587    0.0086    0.0000 C   0  0  0  0  0  0  0  0  0  0  0  0
   -0.6357    1.0343    0.0000 C   0  0  0  0  0  0  0  0  0  0  0  0
   -2.0713    0.5993    0.0000 C   0  0  0  0  0  0  0  0  0  0  0  0
   -2.4123   -0.8614    0.0000 C   0  0  0  0  0  0  0  0  0  0  0  0
   -3.6080    0.0444    0.0000 C   0  0  0  0  0  0  0  0  0  0  0  0
  2  1  1  6
  2  3  1  0
  3  4  1  0
  4  5  1  0
  5  6  2  0
  5  7  1  0
  2  8  1  0
  8  9  1  6
  9 10  1  0
 11 10  1  6
 11 12  1  0
 12 13  1  1
 13 14  1  6
 13 15  1  0
 16 15  1  1
 16 17  1  0
 17 18  1  0
 18 19  1  1
 19 20  1  0
 20 21  2  0
 20 22  2  0
 20 23  1  0
 18 24  1  0
 24 25  1  0
 25 26  1  0
 26 27  1  6
 26 28  1  0
 28 29  1  6
 29 30  1  0
 30 31  1  0
 31 32  1  6
 31  8  1  0
 31 11  1  0
 28 12  1  0
 26 16  1  0
M  END
>  <MS_ID>  (928) 
MS0965

>  <SMILES>  (928) 
C[C@H](CCC(=O)O)[C@H]1CC[C@H]2[C@@H]3[C@@H](O)C[C@@H]4C[C@H](CS(=O)(=O)O)CC[C@]4(C)[C@H]3CC[C@]12C

>  <Structure_dimension>  (928) 
2D

$$$$
MS0966
     RDKit          2D

 33 36  0  0  0  0  0  0  0  0999 V2000
   -1.9813   -4.3426    0.0000 C   0  0  0  0  0  0  0  0  0  0  0  0
   -1.2397   -3.0388    0.0000 C   0  0  0  0  0  0  0  0  0  0  0  0
   -1.9981   -1.7446    0.0000 C   0  0  0  0  0  0  0  0  0  0  0  0
   -3.4981   -1.7543    0.0000 C   0  0  0  0  0  0  0  0  0  0  0  0
   -4.2565   -0.4602    0.0000 C   0  0  0  0  0  0  0  0  0  0  0  0
   -3.5149    0.8437    0.0000 O   0  0  0  0  0  0  0  0  0  0  0  0
   -5.7564   -0.4699    0.0000 N   0  0  0  0  0  0  0  0  0  0  0  0
   -6.5148    0.8243    0.0000 C   0  0  0  0  0  0  0  0  0  0  0  0
   -8.0148    0.8146    0.0000 C   0  0  0  0  0  0  0  0  0  0  0  0
   -8.7732    2.1088    0.0000 S   0  0  0  0  0  0  0  0  0  0  0  0
  -10.0673    1.3504    0.0000 O   0  0  0  0  0  0  0  0  0  0  0  0
   -7.4790    2.8671    0.0000 O   0  0  0  0  0  0  0  0  0  0  0  0
   -9.5316    3.4029    0.0000 O   0  0  0  0  0  0  0  0  0  0  0  0
    0.2602   -3.0291    0.0000 C   0  0  0  0  0  0  0  0  0  0  0  0
    1.1497   -4.2369    0.0000 C   0  0  0  0  0  0  0  0  0  0  0  0
    2.5733   -3.7641    0.0000 C   0  0  0  0  0  0  0  0  0  0  0  0
    2.5636   -2.2642    0.0000 C   0  0  0  0  0  0  0  0  0  0  0  0
    3.6718   -1.2533    0.0000 C   0  0  0  0  0  0  0  0  0  0  0  0
    5.1013   -1.7076    0.0000 C   0  0  0  0  0  0  0  0  0  0  0  0
    6.2095   -0.6967    0.0000 C   0  0  0  0  0  0  0  0  0  0  0  0
    5.8882    0.7685    0.0000 C   0  0  0  0  0  0  0  0  0  0  0  0
    6.9964    1.7794    0.0000 C   0  0  0  0  0  0  0  0  0  0  0  0
    6.6751    3.2445    0.0000 C   0  0  0  0  0  0  0  0  0  0  0  0
    7.7833    4.2554    0.0000 O   0  0  0  0  0  0  0  0  0  0  0  0
    5.2455    3.6988    0.0000 C   0  0  0  0  0  0  0  0  0  0  0  0
    4.1373    2.6879    0.0000 C   0  0  0  0  0  0  0  0  0  0  0  0
    4.4586    1.2228    0.0000 C   0  0  0  0  0  0  0  0  0  0  0  0
    3.0291    1.6771    0.0000 C   0  0  0  0  0  0  0  0  0  0  0  0
    3.3504    0.2119    0.0000 C   0  0  0  0  0  0  0  0  0  0  0  0
    1.9209    0.6662    0.0000 C   0  0  0  0  0  0  0  0  0  0  0  0
    0.8127   -0.3447    0.0000 C   0  0  0  0  0  0  0  0  0  0  0  0
    1.1340   -1.8099    0.0000 C   0  0  0  0  0  0  0  0  0  0  0  0
   -0.3352   -1.5075    0.0000 C   0  0  0  0  0  0  0  0  0  0  0  0
  2  1  1  6
  2  3  1  0
  3  4  1  0
  4  5  1  0
  5  6  2  0
  5  7  1  0
  7  8  1  0
  8  9  1  0
  9 10  1  0
 10 11  2  0
 10 12  2  0
 10 13  1  0
  2 14  1  0
 14 15  1  6
 15 16  1  0
 17 16  1  6
 17 18  1  0
 18 19  1  1
 19 20  1  0
 21 20  1  1
 21 22  1  0
 22 23  1  0
 23 24  2  0
 23 25  1  0
 25 26  1  0
 26 27  1  0
 27 28  1  6
 27 29  1  0
 29 30  1  6
 30 31  1  0
 31 32  1  0
 32 33  1  6
 32 14  1  0
 32 17  1  0
 29 18  1  0
 27 21  1  0
M  END
>  <MS_ID>  (929) 
MS0966

>  <SMILES>  (929) 
C[C@H](CCC(=O)NCCS(=O)(=O)O)[C@H]1CC[C@H]2[C@@H]3CC[C@@H]4CC(=O)CC[C@]4(C)[C@H]3CC[C@]12C

>  <Structure_dimension>  (929) 
2D

$$$$
MS0967
     RDKit          2D

 32 35  0  0  0  0  0  0  0  0999 V2000
  -10.5534    3.1554    0.0000 C   0  0  0  0  0  0  0  0  0  0  0  0
   -9.0579    3.0406    0.0000 C   0  0  0  0  0  0  0  0  0  0  0  0
   -8.4096    1.6879    0.0000 C   0  0  0  0  0  0  0  0  0  0  0  0
   -6.9140    1.5730    0.0000 C   0  0  0  0  0  0  0  0  0  0  0  0
   -6.2657    0.2203    0.0000 C   0  0  0  0  0  0  0  0  0  0  0  0
   -4.7701    0.1054    0.0000 C   0  0  0  0  0  0  0  0  0  0  0  0
   -3.9228    1.3432    0.0000 O   0  0  0  0  0  0  0  0  0  0  0  0
   -4.1218   -1.2472    0.0000 C   0  0  0  0  0  0  0  0  0  0  0  0
   -2.6262   -1.3621    0.0000 C   0  0  0  0  0  0  0  0  0  0  0  0
   -1.9779   -2.7148    0.0000 C   0  0  0  0  0  0  0  0  0  0  0  0
   -2.8252   -3.9526    0.0000 C   0  0  0  0  0  0  0  0  0  0  0  0
   -0.4823   -2.8297    0.0000 C   0  0  0  0  0  0  0  0  0  0  0  0
    0.3038   -4.1072    0.0000 C   0  0  0  0  0  0  0  0  0  0  0  0
    1.7617   -3.7543    0.0000 C   0  0  0  0  0  0  0  0  0  0  0  0
    1.8766   -2.2587    0.0000 C   0  0  0  0  0  0  0  0  0  0  0  0
    3.0650   -1.3433    0.0000 C   0  0  0  0  0  0  0  0  0  0  0  0
    4.4518   -1.9148    0.0000 C   0  0  0  0  0  0  0  0  0  0  0  0
    5.6402   -0.9994    0.0000 C   0  0  0  0  0  0  0  0  0  0  0  0
    5.4416    0.4874    0.0000 C   0  0  0  0  0  0  0  0  0  0  0  0
    6.6299    1.4028    0.0000 C   0  0  0  0  0  0  0  0  0  0  0  0
    6.4313    2.8896    0.0000 C   0  0  0  0  0  0  0  0  0  0  0  0
    7.6197    3.8049    0.0000 O   0  0  0  0  0  0  0  0  0  0  0  0
    5.0445    3.4610    0.0000 C   0  0  0  0  0  0  0  0  0  0  0  0
    3.8561    2.5456    0.0000 C   0  0  0  0  0  0  0  0  0  0  0  0
    4.0547    1.0588    0.0000 C   0  0  0  0  0  0  0  0  0  0  0  0
    2.6678    1.6303    0.0000 C   0  0  0  0  0  0  0  0  0  0  0  0
    2.8664    0.1435    0.0000 C   0  0  0  0  0  0  0  0  0  0  0  0
    1.4795    0.7149    0.0000 C   0  0  0  0  0  0  0  0  0  0  0  0
    0.2912   -0.2005    0.0000 C   0  0  0  0  0  0  0  0  0  0  0  0
   -1.0957    0.3710    0.0000 O   0  0  0  0  0  0  0  0  0  0  0  0
    0.4897   -1.6873    0.0000 C   0  0  0  0  0  0  0  0  0  0  0  0
   -0.9493   -1.2639    0.0000 C   0  0  0  0  0  0  0  0  0  0  0  0
  1  2  1  0
  2  3  1  0
  3  4  1  0
  4  5  1  0
  5  6  1  0
  6  7  2  0
  6  8  1  0
  8  9  1  0
  9 10  1  0
 10 11  1  6
 10 12  1  0
 12 13  1  6
 13 14  1  0
 15 14  1  6
 15 16  1  0
 16 17  1  1
 17 18  1  0
 19 18  1  1
 19 20  1  0
 20 21  1  0
 21 22  1  6
 21 23  1  0
 23 24  1  0
 24 25  1  0
 25 26  1  6
 25 27  1  0
 27 28  1  6
 28 29  1  0
 29 30  1  1
 29 31  1  0
 31 32  1  6
 31 12  1  0
 31 15  1  0
 27 16  1  0
 25 19  1  0
M  END
>  <MS_ID>  (930) 
MS0967

>  <SMILES>  (930) 
CCCCCC(=O)CC[C@@H](C)[C@H]1CC[C@H]2[C@@H]3CC[C@@H]4C[C@@H](O)CC[C@]4(C)[C@H]3C[C@H](O)[C@]12C

>  <Structure_dimension>  (930) 
2D

$$$$
MS0968
     RDKit          2D

 31 34  0  0  0  0  0  0  0  0999 V2000
   -3.4301   -3.6172    0.0000 C   0  0  0  0  0  0  0  0  0  0  0  0
   -2.4973   -2.4425    0.0000 C   0  0  0  0  0  0  0  0  0  0  0  0
   -3.0483   -1.0473    0.0000 C   0  0  0  0  0  0  0  0  0  0  0  0
   -4.5321   -0.8270    0.0000 C   0  0  0  0  0  0  0  0  0  0  0  0
   -5.0831    0.5682    0.0000 C   0  0  0  0  0  0  0  0  0  0  0  0
   -4.1503    1.7429    0.0000 O   0  0  0  0  0  0  0  0  0  0  0  0
   -6.5668    0.7886    0.0000 N   0  0  0  0  0  0  0  0  0  0  0  0
   -7.1178    2.1837    0.0000 C   0  0  0  0  0  0  0  0  0  0  0  0
   -8.6015    2.4041    0.0000 C   0  0  0  0  0  0  0  0  0  0  0  0
   -9.1525    3.7992    0.0000 O   0  0  0  0  0  0  0  0  0  0  0  0
   -1.0136   -2.6629    0.0000 C   0  0  0  0  0  0  0  0  0  0  0  0
   -0.3198   -3.9928    0.0000 C   0  0  0  0  0  0  0  0  0  0  0  0
    1.1594   -3.7439    0.0000 C   0  0  0  0  0  0  0  0  0  0  0  0
    1.3798   -2.2602    0.0000 C   0  0  0  0  0  0  0  0  0  0  0  0
    2.6299   -1.4311    0.0000 C   0  0  0  0  0  0  0  0  0  0  0  0
    3.9729   -2.0992    0.0000 C   0  0  0  0  0  0  0  0  0  0  0  0
    5.2230   -1.2702    0.0000 C   0  0  0  0  0  0  0  0  0  0  0  0
    5.1301    0.2269    0.0000 C   0  0  0  0  0  0  0  0  0  0  0  0
    6.3802    1.0559    0.0000 C   0  0  0  0  0  0  0  0  0  0  0  0
    6.2872    2.5531    0.0000 C   0  0  0  0  0  0  0  0  0  0  0  0
    7.5373    3.3821    0.0000 O   0  0  0  0  0  0  0  0  0  0  0  0
    4.9442    3.2212    0.0000 C   0  0  0  0  0  0  0  0  0  0  0  0
    3.6942    2.3921    0.0000 C   0  0  0  0  0  0  0  0  0  0  0  0
    3.7871    0.8950    0.0000 C   0  0  0  0  0  0  0  0  0  0  0  0
    2.4441    1.5631    0.0000 C   0  0  0  0  0  0  0  0  0  0  0  0
    2.5370    0.0660    0.0000 C   0  0  0  0  0  0  0  0  0  0  0  0
    1.1940    0.7341    0.0000 C   0  0  0  0  0  0  0  0  0  0  0  0
   -0.0561   -0.0949    0.0000 C   0  0  0  0  0  0  0  0  0  0  0  0
   -1.3991    0.5732    0.0000 O   0  0  0  0  0  0  0  0  0  0  0  0
    0.0368   -1.5921    0.0000 C   0  0  0  0  0  0  0  0  0  0  0  0
   -1.3687   -1.0680    0.0000 C   0  0  0  0  0  0  0  0  0  0  0  0
  2  1  1  6
  2  3  1  0
  3  4  1  0
  4  5  1  0
  5  6  2  0
  5  7  1  0
  7  8  1  0
  8  9  1  0
  9 10  1  0
  2 11  1  0
 11 12  1  6
 12 13  1  0
 14 13  1  6
 14 15  1  0
 15 16  1  1
 16 17  1  0
 18 17  1  1
 18 19  1  0
 19 20  1  0
 20 21  2  0
 20 22  1  0
 22 23  1  0
 23 24  1  0
 24 25  1  6
 24 26  1  0
 26 27  1  6
 27 28  1  0
 28 29  1  1
 28 30  1  0
 30 31  1  6
 30 11  1  0
 30 14  1  0
 26 15  1  0
 24 18  1  0
M  END
>  <MS_ID>  (931) 
MS0968

>  <SMILES>  (931) 
C[C@H](CCC(=O)NCCO)[C@H]1CC[C@H]2[C@@H]3CC[C@@H]4CC(=O)CC[C@]4(C)[C@H]3C[C@H](O)[C@]12C

>  <Structure_dimension>  (931) 
2D

$$$$
MS0969
     RDKit          2D

 34 38  0  0  0  0  0  0  0  0999 V2000
   -3.1078   -3.3705    0.0000 C   0  0  0  0  0  0  0  0  0  0  0  0
   -2.1565   -2.2107    0.0000 C   0  0  0  0  0  0  0  0  0  0  0  0
   -2.6851   -0.8070    0.0000 C   0  0  0  0  0  0  0  0  0  0  0  0
   -4.1651   -0.5630    0.0000 C   0  0  0  0  0  0  0  0  0  0  0  0
   -4.6938    0.8408    0.0000 C   0  0  0  0  0  0  0  0  0  0  0  0
   -3.7424    2.0005    0.0000 O   0  0  0  0  0  0  0  0  0  0  0  0
   -6.1738    1.0848    0.0000 C   0  0  0  0  0  0  0  0  0  0  0  0
   -6.7025    2.4886    0.0000 C   0  0  0  0  0  0  0  0  0  0  0  0
   -8.1825    2.7326    0.0000 C   0  0  0  0  0  0  0  0  0  0  0  0
   -9.1338    1.5729    0.0000 C   0  0  0  0  0  0  0  0  0  0  0  0
   -8.6052    0.1692    0.0000 C   0  0  0  0  0  0  0  0  0  0  0  0
   -7.1252   -0.0749    0.0000 N   0  0  0  0  0  0  0  0  0  0  0  0
   -0.6765   -2.4548    0.0000 C   0  0  0  0  0  0  0  0  0  0  0  0
   -0.0040   -3.7956    0.0000 C   0  0  0  0  0  0  0  0  0  0  0  0
    1.4790   -3.5703    0.0000 C   0  0  0  0  0  0  0  0  0  0  0  0
    1.7231   -2.0903    0.0000 C   0  0  0  0  0  0  0  0  0  0  0  0
    2.9862   -1.2814    0.0000 C   0  0  0  0  0  0  0  0  0  0  0  0
    4.3184   -1.9708    0.0000 C   0  0  0  0  0  0  0  0  0  0  0  0
    4.3874   -3.4692    0.0000 O   0  0  0  0  0  0  0  0  0  0  0  0
    5.5816   -1.1619    0.0000 C   0  0  0  0  0  0  0  0  0  0  0  0
    5.5126    0.3366    0.0000 C   0  0  0  0  0  0  0  0  0  0  0  0
    6.7757    1.1455    0.0000 C   0  0  0  0  0  0  0  0  0  0  0  0
    6.7067    2.6439    0.0000 C   0  0  0  0  0  0  0  0  0  0  0  0
    7.9699    3.4529    0.0000 O   0  0  0  0  0  0  0  0  0  0  0  0
    5.3746    3.3334    0.0000 C   0  0  0  0  0  0  0  0  0  0  0  0
    4.1114    2.5244    0.0000 C   0  0  0  0  0  0  0  0  0  0  0  0
    4.1804    1.0260    0.0000 C   0  0  0  0  0  0  0  0  0  0  0  0
    2.8482    1.7155    0.0000 C   0  0  0  0  0  0  0  0  0  0  0  0
    2.9172    0.2170    0.0000 C   0  0  0  0  0  0  0  0  0  0  0  0
    1.5851    0.9065    0.0000 C   0  0  0  0  0  0  0  0  0  0  0  0
    0.3219    0.0975    0.0000 C   0  0  0  0  0  0  0  0  0  0  0  0
   -1.0102    0.7870    0.0000 O   0  0  0  0  0  0  0  0  0  0  0  0
    0.3909   -1.4009    0.0000 C   0  0  0  0  0  0  0  0  0  0  0  0
   -1.0060   -0.8545    0.0000 C   0  0  0  0  0  0  0  0  0  0  0  0
  2  1  1  6
  2  3  1  0
  3  4  1  0
  4  5  1  0
  5  6  2  0
  5  7  1  0
  7  8  2  0
  8  9  1  0
  9 10  2  0
 10 11  1  0
 11 12  2  0
  2 13  1  0
 13 14  1  6
 14 15  1  0
 16 15  1  6
 16 17  1  0
 17 18  1  1
 18 19  1  1
 18 20  1  0
 21 20  1  1
 21 22  1  0
 22 23  1  0
 23 24  1  1
 23 25  1  0
 25 26  1  0
 26 27  1  0
 27 28  1  6
 27 29  1  0
 29 30  1  6
 30 31  1  0
 31 32  1  1
 31 33  1  0
 33 34  1  6
 12  7  1  0
 33 13  1  0
 33 16  1  0
 29 17  1  0
 27 21  1  0
M  END
>  <MS_ID>  (932) 
MS0969

>  <SMILES>  (932) 
C[C@H](CCC(=O)c1ccccn1)[C@H]1CC[C@H]2[C@@H]3[C@H](O)C[C@@H]4C[C@H](O)CC[C@]4(C)[C@H]3C[C@H](O)[C@]12C

>  <Structure_dimension>  (932) 
2D

$$$$
MS0970
     RDKit          2D

 30 33  0  0  0  0  0  0  0  0999 V2000
   -8.8146    2.6867    0.0000 C   0  0  0  0  0  0  0  0  0  0  0  0
   -7.3290    2.4792    0.0000 C   0  0  0  0  0  0  0  0  0  0  0  0
   -6.7659    1.0889    0.0000 O   0  0  0  0  0  0  0  0  0  0  0  0
   -5.2803    0.8815    0.0000 C   0  0  0  0  0  0  0  0  0  0  0  0
   -4.3578    2.0643    0.0000 O   0  0  0  0  0  0  0  0  0  0  0  0
   -4.7172   -0.5088    0.0000 C   0  0  0  0  0  0  0  0  0  0  0  0
   -3.2316   -0.7163    0.0000 C   0  0  0  0  0  0  0  0  0  0  0  0
   -2.6685   -2.1066    0.0000 C   0  0  0  0  0  0  0  0  0  0  0  0
   -3.5909   -3.2894    0.0000 C   0  0  0  0  0  0  0  0  0  0  0  0
   -1.1829   -2.3140    0.0000 C   0  0  0  0  0  0  0  0  0  0  0  0
   -0.4775   -3.6378    0.0000 C   0  0  0  0  0  0  0  0  0  0  0  0
    0.9995   -3.3760    0.0000 C   0  0  0  0  0  0  0  0  0  0  0  0
    1.2069   -1.8905    0.0000 C   0  0  0  0  0  0  0  0  0  0  0  0
    2.4498   -1.0506    0.0000 C   0  0  0  0  0  0  0  0  0  0  0  0
    3.7985   -1.7070    0.0000 C   0  0  0  0  0  0  0  0  0  0  0  0
    3.9045   -3.2032    0.0000 O   0  0  0  0  0  0  0  0  0  0  0  0
    5.0414   -0.8671    0.0000 C   0  0  0  0  0  0  0  0  0  0  0  0
    4.9354    0.6292    0.0000 C   0  0  0  0  0  0  0  0  0  0  0  0
    6.1782    1.4691    0.0000 C   0  0  0  0  0  0  0  0  0  0  0  0
    6.0723    2.9653    0.0000 C   0  0  0  0  0  0  0  0  0  0  0  0
    4.7235    3.6217    0.0000 C   0  0  0  0  0  0  0  0  0  0  0  0
    3.4807    2.7818    0.0000 C   0  0  0  0  0  0  0  0  0  0  0  0
    3.5866    1.2856    0.0000 C   0  0  0  0  0  0  0  0  0  0  0  0
    2.2379    1.9419    0.0000 C   0  0  0  0  0  0  0  0  0  0  0  0
    2.3438    0.4457    0.0000 C   0  0  0  0  0  0  0  0  0  0  0  0
    0.9950    1.1020    0.0000 C   0  0  0  0  0  0  0  0  0  0  0  0
   -0.2478    0.2622    0.0000 C   0  0  0  0  0  0  0  0  0  0  0  0
   -1.5965    0.9185    0.0000 O   0  0  0  0  0  0  0  0  0  0  0  0
   -0.1418   -1.2341    0.0000 C   0  0  0  0  0  0  0  0  0  0  0  0
   -1.5518   -0.7223    0.0000 C   0  0  0  0  0  0  0  0  0  0  0  0
  1  2  1  0
  2  3  1  0
  3  4  1  0
  4  5  2  0
  4  6  1  0
  6  7  1  0
  7  8  1  0
  8  9  1  6
  8 10  1  0
 10 11  1  6
 11 12  1  0
 13 12  1  6
 13 14  1  0
 14 15  1  1
 15 16  1  1
 15 17  1  0
 18 17  1  1
 18 19  1  0
 19 20  1  0
 20 21  1  0
 21 22  1  0
 22 23  1  0
 23 24  1  6
 23 25  1  0
 25 26  1  6
 26 27  1  0
 27 28  1  1
 27 29  1  0
 29 30  1  6
 29 10  1  0
 29 13  1  0
 25 14  1  0
 23 18  1  0
M  END
>  <MS_ID>  (933) 
MS0970

>  <SMILES>  (933) 
CCOC(=O)CC[C@@H](C)[C@H]1CC[C@H]2[C@@H]3[C@H](O)C[C@@H]4CCCC[C@]4(C)[C@H]3C[C@H](O)[C@]12C

>  <Structure_dimension>  (933) 
2D

$$$$
MS0971
     RDKit          2D

 34 37  0  0  0  0  0  0  0  0999 V2000
   -5.4841   -2.8161    0.0000 C   0  0  0  0  0  0  0  0  0  0  0  0
   -4.3703   -1.8114    0.0000 C   0  0  0  0  0  0  0  0  0  0  0  0
   -4.6836   -0.3444    0.0000 C   0  0  0  0  0  0  0  0  0  0  0  0
   -6.1106    0.1178    0.0000 C   0  0  0  0  0  0  0  0  0  0  0  0
   -6.4238    1.5847    0.0000 C   0  0  0  0  0  0  0  0  0  0  0  0
   -5.3100    2.5895    0.0000 O   0  0  0  0  0  0  0  0  0  0  0  0
   -7.8508    2.0470    0.0000 C   0  0  0  0  0  0  0  0  0  0  0  0
   -8.1640    3.5139    0.0000 C   0  0  0  0  0  0  0  0  0  0  0  0
   -9.5910    3.9761    0.0000 O   0  0  0  0  0  0  0  0  0  0  0  0
   -2.9433   -2.2736    0.0000 C   0  0  0  0  0  0  0  0  0  0  0  0
   -2.4785   -3.6997    0.0000 C   0  0  0  0  0  0  0  0  0  0  0  0
   -0.9785   -3.6984    0.0000 C   0  0  0  0  0  0  0  0  0  0  0  0
   -0.5163   -2.2714    0.0000 C   0  0  0  0  0  0  0  0  0  0  0  0
    0.8535   -1.6600    0.0000 C   0  0  0  0  0  0  0  0  0  0  0  0
    2.0678   -2.5406    0.0000 C   0  0  0  0  0  0  0  0  0  0  0  0
    1.9124   -4.0325    0.0000 O   0  0  0  0  0  0  0  0  0  0  0  0
    3.4376   -1.9292    0.0000 C   0  0  0  0  0  0  0  0  0  0  0  0
    3.5930   -0.4373    0.0000 C   0  0  0  0  0  0  0  0  0  0  0  0
    4.9628    0.1741    0.0000 C   0  0  0  0  0  0  0  0  0  0  0  0
    5.1182    1.6660    0.0000 C   0  0  0  0  0  0  0  0  0  0  0  0
    6.4879    2.2773    0.0000 O   0  0  0  0  0  0  0  0  0  0  0  0
    7.7023    1.3968    0.0000 S   0  0  0  0  0  0  0  0  0  0  0  0
    6.8217    0.1824    0.0000 O   0  0  0  0  0  0  0  0  0  0  0  0
    8.5828    2.6111    0.0000 O   0  0  0  0  0  0  0  0  0  0  0  0
    8.9166    0.5162    0.0000 O   0  0  0  0  0  0  0  0  0  0  0  0
    3.9039    2.5466    0.0000 C   0  0  0  0  0  0  0  0  0  0  0  0
    2.5341    1.9352    0.0000 C   0  0  0  0  0  0  0  0  0  0  0  0
    2.3787    0.4433    0.0000 C   0  0  0  0  0  0  0  0  0  0  0  0
    1.1643    1.3238    0.0000 C   0  0  0  0  0  0  0  0  0  0  0  0
    1.0089   -0.1681    0.0000 C   0  0  0  0  0  0  0  0  0  0  0  0
   -0.2054    0.7125    0.0000 C   0  0  0  0  0  0  0  0  0  0  0  0
   -1.5752    0.1011    0.0000 C   0  0  0  0  0  0  0  0  0  0  0  0
   -1.7306   -1.3908    0.0000 C   0  0  0  0  0  0  0  0  0  0  0  0
   -3.0303   -0.6420    0.0000 C   0  0  0  0  0  0  0  0  0  0  0  0
  2  1  1  6
  2  3  1  0
  3  4  1  0
  4  5  1  0
  5  6  2  0
  5  7  1  0
  7  8  1  0
  8  9  1  0
  2 10  1  0
 10 11  1  6
 11 12  1  0
 13 12  1  6
 13 14  1  0
 14 15  1  1
 15 16  1  6
 15 17  1  0
 18 17  1  1
 18 19  1  0
 19 20  1  0
 20 21  1  1
 21 22  1  0
 22 23  2  0
 22 24  2  0
 22 25  1  0
 20 26  1  0
 26 27  1  0
 27 28  1  0
 28 29  1  6
 28 30  1  0
 30 31  1  6
 31 32  1  0
 32 33  1  0
 33 34  1  6
 33 10  1  0
 33 13  1  0
 30 14  1  0
 28 18  1  0
M  END
>  <MS_ID>  (934) 
MS0971

>  <SMILES>  (934) 
C[C@H](CCC(=O)CCO)[C@H]1CC[C@H]2[C@@H]3[C@@H](O)C[C@@H]4C[C@H](OS(=O)(=O)O)CC[C@]4(C)[C@H]3CC[C@]12C

>  <Structure_dimension>  (934) 
2D

$$$$
MS0972
     RDKit          2D

 32 35  0  0  0  0  0  0  0  0999 V2000
   -3.4546   -3.6059    0.0000 C   0  0  0  0  0  0  0  0  0  0  0  0
   -2.5561   -2.4048    0.0000 C   0  0  0  0  0  0  0  0  0  0  0  0
   -3.1471   -1.0261    0.0000 C   0  0  0  0  0  0  0  0  0  0  0  0
   -4.6366   -0.8486    0.0000 C   0  0  0  0  0  0  0  0  0  0  0  0
   -5.2276    0.5301    0.0000 C   0  0  0  0  0  0  0  0  0  0  0  0
   -4.3291    1.7312    0.0000 O   0  0  0  0  0  0  0  0  0  0  0  0
   -6.7170    0.7076    0.0000 N   0  0  0  0  0  0  0  0  0  0  0  0
   -7.3080    2.0863    0.0000 C   0  0  0  0  0  0  0  0  0  0  0  0
   -8.7975    2.2638    0.0000 C   0  0  0  0  0  0  0  0  0  0  0  0
   -9.3885    3.6424    0.0000 S   0  0  0  0  0  0  0  0  0  0  0  0
   -1.0667   -2.5823    0.0000 C   0  0  0  0  0  0  0  0  0  0  0  0
   -0.3348   -3.8917    0.0000 C   0  0  0  0  0  0  0  0  0  0  0  0
    1.1366   -3.6002    0.0000 C   0  0  0  0  0  0  0  0  0  0  0  0
    1.3141   -2.1108    0.0000 C   0  0  0  0  0  0  0  0  0  0  0  0
    2.5398   -1.2460    0.0000 C   0  0  0  0  0  0  0  0  0  0  0  0
    3.9015   -1.8751    0.0000 C   0  0  0  0  0  0  0  0  0  0  0  0
    4.0375   -3.3690    0.0000 O   0  0  0  0  0  0  0  0  0  0  0  0
    5.1272   -1.0104    0.0000 C   0  0  0  0  0  0  0  0  0  0  0  0
    4.9911    0.4834    0.0000 C   0  0  0  0  0  0  0  0  0  0  0  0
    6.2168    1.3481    0.0000 C   0  0  0  0  0  0  0  0  0  0  0  0
    6.0808    2.8419    0.0000 C   0  0  0  0  0  0  0  0  0  0  0  0
    7.3064    3.7067    0.0000 O   0  0  0  0  0  0  0  0  0  0  0  0
    4.7191    3.4710    0.0000 C   0  0  0  0  0  0  0  0  0  0  0  0
    3.4934    2.6063    0.0000 C   0  0  0  0  0  0  0  0  0  0  0  0
    3.6294    1.1125    0.0000 C   0  0  0  0  0  0  0  0  0  0  0  0
    2.2677    1.7416    0.0000 C   0  0  0  0  0  0  0  0  0  0  0  0
    2.4038    0.2478    0.0000 C   0  0  0  0  0  0  0  0  0  0  0  0
    1.0421    0.8769    0.0000 C   0  0  0  0  0  0  0  0  0  0  0  0
   -0.1836    0.0122    0.0000 C   0  0  0  0  0  0  0  0  0  0  0  0
   -1.5453    0.6413    0.0000 O   0  0  0  0  0  0  0  0  0  0  0  0
   -0.0476   -1.4817    0.0000 C   0  0  0  0  0  0  0  0  0  0  0  0
   -1.4676   -0.9983    0.0000 C   0  0  0  0  0  0  0  0  0  0  0  0
  2  1  1  6
  2  3  1  0
  3  4  1  0
  4  5  1  0
  5  6  2  0
  5  7  1  0
  7  8  1  0
  8  9  1  0
  9 10  1  0
  2 11  1  0
 11 12  1  6
 12 13  1  0
 14 13  1  6
 14 15  1  0
 15 16  1  1
 16 17  1  1
 16 18  1  0
 19 18  1  1
 19 20  1  0
 20 21  1  0
 21 22  1  1
 21 23  1  0
 23 24  1  0
 24 25  1  0
 25 26  1  6
 25 27  1  0
 27 28  1  6
 28 29  1  0
 29 30  1  1
 29 31  1  0
 31 32  1  6
 31 11  1  0
 31 14  1  0
 27 15  1  0
 25 19  1  0
M  END
>  <MS_ID>  (935) 
MS0972

>  <SMILES>  (935) 
C[C@H](CCC(=O)NCCS)[C@H]1CC[C@H]2[C@@H]3[C@H](O)C[C@@H]4C[C@H](O)CC[C@]4(C)[C@H]3C[C@H](O)[C@]12C

>  <Structure_dimension>  (935) 
2D

$$$$
MS0973
     RDKit          2D

 40 44  0  0  0  0  0  0  0  0999 V2000
   -8.6782   -1.6232    0.0000 C   0  0  0  0  0  0  0  0  0  0  0  0
   -7.4085   -0.8246    0.0000 C   0  0  0  0  0  0  0  0  0  0  0  0
   -7.4653    0.6743    0.0000 C   0  0  0  0  0  0  0  0  0  0  0  0
   -8.7919    1.3746    0.0000 C   0  0  0  0  0  0  0  0  0  0  0  0
   -8.8487    2.8735    0.0000 C   0  0  0  0  0  0  0  0  0  0  0  0
   -7.5790    3.6722    0.0000 O   0  0  0  0  0  0  0  0  0  0  0  0
  -10.1752    3.5738    0.0000 O   0  0  0  0  0  0  0  0  0  0  0  0
   -6.0820   -1.5248    0.0000 C   0  0  0  0  0  0  0  0  0  0  0  0
   -5.8688   -3.0096    0.0000 C   0  0  0  0  0  0  0  0  0  0  0  0
   -4.3909   -3.2657    0.0000 C   0  0  0  0  0  0  0  0  0  0  0  0
   -3.6906   -1.9392    0.0000 C   0  0  0  0  0  0  0  0  0  0  0  0
   -2.2362   -1.5720    0.0000 C   0  0  0  0  0  0  0  0  0  0  0  0
   -1.1911   -2.6479    0.0000 C   0  0  0  0  0  0  0  0  0  0  0  0
   -1.6002   -4.0910    0.0000 O   0  0  0  0  0  0  0  0  0  0  0  0
    0.2633   -2.2807    0.0000 C   0  0  0  0  0  0  0  0  0  0  0  0
    0.6725   -0.8376    0.0000 C   0  0  0  0  0  0  0  0  0  0  0  0
    2.1268   -0.4703    0.0000 C   0  0  0  0  0  0  0  0  0  0  0  0
    2.5360    0.9728    0.0000 C   0  0  0  0  0  0  0  0  0  0  0  0
    3.9904    1.3400    0.0000 O   0  0  0  0  0  0  0  0  0  0  0  0
    5.0355    0.2641    0.0000 C   0  0  0  0  0  0  0  0  0  0  0  0
    4.6264   -1.1790    0.0000 O   0  0  0  0  0  0  0  0  0  0  0  0
    6.4899    0.6313    0.0000 C   0  0  0  0  0  0  0  0  0  0  0  0
    7.5351   -0.4446    0.0000 C   0  0  0  0  0  0  0  0  0  0  0  0
    8.9895   -0.0774    0.0000 C   0  0  0  0  0  0  0  0  0  0  0  0
   10.0346   -1.1533    0.0000 C   0  0  0  0  0  0  0  0  0  0  0  0
   11.4890   -0.7861    0.0000 C   0  0  0  0  0  0  0  0  0  0  0  0
   11.8982    0.6570    0.0000 C   0  0  0  0  0  0  0  0  0  0  0  0
   13.3525    1.0242    0.0000 O   0  0  0  0  0  0  0  0  0  0  0  0
   10.8530    1.7329    0.0000 C   0  0  0  0  0  0  0  0  0  0  0  0
    9.3986    1.3657    0.0000 C   0  0  0  0  0  0  0  0  0  0  0  0
    1.4908    2.0487    0.0000 C   0  0  0  0  0  0  0  0  0  0  0  0
    0.0364    1.6815    0.0000 C   0  0  0  0  0  0  0  0  0  0  0  0
   -0.3727    0.2383    0.0000 C   0  0  0  0  0  0  0  0  0  0  0  0
   -1.4179    1.3143    0.0000 C   0  0  0  0  0  0  0  0  0  0  0  0
   -1.8271   -0.1289    0.0000 C   0  0  0  0  0  0  0  0  0  0  0  0
   -2.8723    0.9470    0.0000 C   0  0  0  0  0  0  0  0  0  0  0  0
   -4.3266    0.5798    0.0000 C   0  0  0  0  0  0  0  0  0  0  0  0
   -5.3718    1.6557    0.0000 O   0  0  0  0  0  0  0  0  0  0  0  0
   -4.7358   -0.8633    0.0000 C   0  0  0  0  0  0  0  0  0  0  0  0
   -5.8877    0.0975    0.0000 C   0  0  0  0  0  0  0  0  0  0  0  0
  2  1  1  6
  2  3  1  0
  3  4  1  0
  4  5  1  0
  5  6  2  0
  5  7  1  0
  2  8  1  0
  8  9  1  6
  9 10  1  0
 11 10  1  6
 11 12  1  0
 12 13  1  1
 13 14  1  1
 13 15  1  0
 16 15  1  1
 16 17  1  0
 17 18  1  0
 18 19  1  1
 19 20  1  0
 20 21  2  0
 20 22  1  0
 22 23  2  0
 23 24  1  0
 24 25  2  0
 25 26  1  0
 26 27  2  0
 27 28  1  0
 27 29  1  0
 29 30  2  0
 18 31  1  0
 31 32  1  0
 32 33  1  0
 33 34  1  6
 33 35  1  0
 35 36  1  6
 36 37  1  0
 37 38  1  1
 37 39  1  0
 39 40  1  6
 39  8  1  0
 39 11  1  0
 35 12  1  0
 33 16  1  0
 30 24  1  0
M  END
>  <MS_ID>  (936) 
MS0973

>  <SMILES>  (936) 
C[C@H](CCC(=O)O)[C@H]1CC[C@H]2[C@@H]3[C@H](O)C[C@@H]4C[C@H](OC(=O)/C=C/c5ccc(O)cc5)CC[C@]4(C)[C@H]3C[C@H](O)[C@]12C

>  <Structure_dimension>  (936) 
2D

$$$$
MS0975
     RDKit          2D

 32 35  0  0  0  0  0  0  0  0999 V2000
   -3.6519   -3.4889    0.0000 C   0  0  0  0  0  0  0  0  0  0  0  0
   -2.7185   -2.3147    0.0000 C   0  0  0  0  0  0  0  0  0  0  0  0
   -3.2687   -0.9192    0.0000 C   0  0  0  0  0  0  0  0  0  0  0  0
   -4.7523   -0.6980    0.0000 C   0  0  0  0  0  0  0  0  0  0  0  0
   -5.3024    0.6975    0.0000 C   0  0  0  0  0  0  0  0  0  0  0  0
   -4.3690    1.8717    0.0000 O   0  0  0  0  0  0  0  0  0  0  0  0
   -6.7860    0.9188    0.0000 O   0  0  0  0  0  0  0  0  0  0  0  0
   -7.3362    2.3142    0.0000 C   0  0  0  0  0  0  0  0  0  0  0  0
   -8.8198    2.5355    0.0000 C   0  0  0  0  0  0  0  0  0  0  0  0
   -6.4028    3.4884    0.0000 O   0  0  0  0  0  0  0  0  0  0  0  0
   -1.2349   -2.5360    0.0000 C   0  0  0  0  0  0  0  0  0  0  0  0
   -0.5419   -3.8663    0.0000 C   0  0  0  0  0  0  0  0  0  0  0  0
    0.9375   -3.6183    0.0000 C   0  0  0  0  0  0  0  0  0  0  0  0
    1.1587   -2.1347    0.0000 C   0  0  0  0  0  0  0  0  0  0  0  0
    2.4093   -1.3064    0.0000 C   0  0  0  0  0  0  0  0  0  0  0  0
    3.7519   -1.9753    0.0000 C   0  0  0  0  0  0  0  0  0  0  0  0
    3.8439   -3.4725    0.0000 O   0  0  0  0  0  0  0  0  0  0  0  0
    5.0025   -1.1470    0.0000 C   0  0  0  0  0  0  0  0  0  0  0  0
    4.9105    0.3502    0.0000 C   0  0  0  0  0  0  0  0  0  0  0  0
    6.1611    1.1784    0.0000 C   0  0  0  0  0  0  0  0  0  0  0  0
    6.0690    2.6756    0.0000 C   0  0  0  0  0  0  0  0  0  0  0  0
    7.3196    3.5039    0.0000 O   0  0  0  0  0  0  0  0  0  0  0  0
    4.7264    3.3445    0.0000 C   0  0  0  0  0  0  0  0  0  0  0  0
    3.4759    2.5162    0.0000 C   0  0  0  0  0  0  0  0  0  0  0  0
    3.5679    1.0191    0.0000 C   0  0  0  0  0  0  0  0  0  0  0  0
    2.2253    1.6879    0.0000 C   0  0  0  0  0  0  0  0  0  0  0  0
    2.3173    0.1908    0.0000 C   0  0  0  0  0  0  0  0  0  0  0  0
    0.9747    0.8597    0.0000 C   0  0  0  0  0  0  0  0  0  0  0  0
   -0.2759    0.0314    0.0000 C   0  0  0  0  0  0  0  0  0  0  0  0
   -1.6185    0.7003    0.0000 O   0  0  0  0  0  0  0  0  0  0  0  0
   -0.1839   -1.4658    0.0000 C   0  0  0  0  0  0  0  0  0  0  0  0
   -1.5890   -0.9409    0.0000 C   0  0  0  0  0  0  0  0  0  0  0  0
  2  1  1  6
  2  3  1  0
  3  4  1  0
  4  5  1  0
  5  6  2  0
  5  7  1  0
  7  8  1  0
  8  9  1  1
  8 10  1  0
  2 11  1  0
 11 12  1  6
 12 13  1  0
 14 13  1  6
 14 15  1  0
 15 16  1  1
 16 17  1  1
 16 18  1  0
 19 18  1  1
 19 20  1  0
 20 21  1  0
 21 22  1  1
 21 23  1  0
 23 24  1  0
 24 25  1  0
 25 26  1  6
 25 27  1  0
 27 28  1  6
 28 29  1  0
 29 30  1  1
 29 31  1  0
 31 32  1  6
 31 11  1  0
 31 14  1  0
 27 15  1  0
 25 19  1  0
M  END
>  <MS_ID>  (937) 
MS0975

>  <SMILES>  (937) 
C[C@H](CCC(=O)O[C@@H](C)O)[C@H]1CC[C@H]2[C@@H]3[C@H](O)C[C@@H]4C[C@H](O)CC[C@]4(C)[C@H]3C[C@H](O)[C@]12C

>  <Structure_dimension>  (937) 
2D

$$$$
MS0976
     RDKit          2D

 33 36  0  0  0  0  0  0  0  0999 V2000
   -3.3094   -3.6711    0.0000 C   0  0  0  0  0  0  0  0  0  0  0  0
   -2.4155   -2.4665    0.0000 C   0  0  0  0  0  0  0  0  0  0  0  0
   -3.0118   -1.0901    0.0000 C   0  0  0  0  0  0  0  0  0  0  0  0
   -4.5019   -0.9183    0.0000 C   0  0  0  0  0  0  0  0  0  0  0  0
   -5.0982    0.4581    0.0000 C   0  0  0  0  0  0  0  0  0  0  0  0
   -4.2043    1.6627    0.0000 O   0  0  0  0  0  0  0  0  0  0  0  0
   -6.5883    0.6300    0.0000 C   0  0  0  0  0  0  0  0  0  0  0  0
   -7.1845    2.0064    0.0000 S   0  0  0  0  0  0  0  0  0  0  0  0
   -8.5609    1.4101    0.0000 O   0  0  0  0  0  0  0  0  0  0  0  0
   -5.8081    2.6026    0.0000 O   0  0  0  0  0  0  0  0  0  0  0  0
   -7.7808    3.3828    0.0000 O   0  0  0  0  0  0  0  0  0  0  0  0
   -0.9254   -2.6383    0.0000 C   0  0  0  0  0  0  0  0  0  0  0  0
   -0.1885   -3.9449    0.0000 C   0  0  0  0  0  0  0  0  0  0  0  0
    1.2818   -3.6478    0.0000 C   0  0  0  0  0  0  0  0  0  0  0  0
    1.4536   -2.1577    0.0000 C   0  0  0  0  0  0  0  0  0  0  0  0
    2.6759   -1.2883    0.0000 C   0  0  0  0  0  0  0  0  0  0  0  0
    4.0400   -1.9122    0.0000 C   0  0  0  0  0  0  0  0  0  0  0  0
    4.1818   -3.4055    0.0000 O   0  0  0  0  0  0  0  0  0  0  0  0
    5.2624   -1.0428    0.0000 C   0  0  0  0  0  0  0  0  0  0  0  0
    5.1206    0.4505    0.0000 C   0  0  0  0  0  0  0  0  0  0  0  0
    6.3430    1.3199    0.0000 C   0  0  0  0  0  0  0  0  0  0  0  0
    6.2013    2.8132    0.0000 C   0  0  0  0  0  0  0  0  0  0  0  0
    7.4236    3.6826    0.0000 O   0  0  0  0  0  0  0  0  0  0  0  0
    4.8372    3.4371    0.0000 C   0  0  0  0  0  0  0  0  0  0  0  0
    3.6148    2.5677    0.0000 C   0  0  0  0  0  0  0  0  0  0  0  0
    3.7565    1.0744    0.0000 C   0  0  0  0  0  0  0  0  0  0  0  0
    2.3925    1.6983    0.0000 C   0  0  0  0  0  0  0  0  0  0  0  0
    2.5342    0.2050    0.0000 C   0  0  0  0  0  0  0  0  0  0  0  0
    1.1701    0.8289    0.0000 C   0  0  0  0  0  0  0  0  0  0  0  0
   -0.0523   -0.0405    0.0000 C   0  0  0  0  0  0  0  0  0  0  0  0
   -1.4164    0.5834    0.0000 O   0  0  0  0  0  0  0  0  0  0  0  0
    0.0895   -1.5338    0.0000 C   0  0  0  0  0  0  0  0  0  0  0  0
   -1.3324   -1.0559    0.0000 C   0  0  0  0  0  0  0  0  0  0  0  0
  2  1  1  6
  2  3  1  0
  3  4  1  0
  4  5  1  0
  5  6  2  0
  5  7  1  0
  7  8  1  0
  8  9  2  0
  8 10  2  0
  8 11  1  0
  2 12  1  0
 12 13  1  6
 13 14  1  0
 15 14  1  6
 15 16  1  0
 16 17  1  1
 17 18  2  0
 17 19  1  0
 20 19  1  1
 20 21  1  0
 21 22  1  0
 22 23  1  1
 22 24  1  0
 24 25  1  0
 25 26  1  0
 26 27  1  6
 26 28  1  0
 28 29  1  6
 29 30  1  0
 30 31  1  1
 30 32  1  0
 32 33  1  6
 32 12  1  0
 32 15  1  0
 28 16  1  0
 26 20  1  0
M  END
>  <MS_ID>  (938) 
MS0976

>  <SMILES>  (938) 
C[C@H](CCC(=O)CS(=O)(=O)O)[C@H]1CC[C@H]2[C@@H]3C(=O)C[C@@H]4C[C@H](O)CC[C@]4(C)[C@H]3C[C@H](O)[C@]12C

>  <Structure_dimension>  (938) 
2D

$$$$
MS0977
     RDKit          2D

 31 34  0  0  0  0  0  0  0  0999 V2000
   -4.2495   -2.8115    0.0000 C   0  0  0  0  0  0  0  0  0  0  0  0
   -3.1859   -1.7538    0.0000 C   0  0  0  0  0  0  0  0  0  0  0  0
   -3.5702   -0.3038    0.0000 C   0  0  0  0  0  0  0  0  0  0  0  0
   -5.0180    0.0883    0.0000 C   0  0  0  0  0  0  0  0  0  0  0  0
   -5.4023    1.5383    0.0000 C   0  0  0  0  0  0  0  0  0  0  0  0
   -4.3387    2.5960    0.0000 O   0  0  0  0  0  0  0  0  0  0  0  0
   -6.8501    1.9305    0.0000 N   0  0  0  0  0  0  0  0  0  0  0  0
   -7.2344    3.3804    0.0000 C   0  0  0  0  0  0  0  0  0  0  0  0
   -7.9137    0.8727    0.0000 O   0  0  0  0  0  0  0  0  0  0  0  0
   -1.7381   -2.1460    0.0000 C   0  0  0  0  0  0  0  0  0  0  0  0
   -1.2044   -3.5478    0.0000 C   0  0  0  0  0  0  0  0  0  0  0  0
    0.2938   -3.4734    0.0000 C   0  0  0  0  0  0  0  0  0  0  0  0
    0.6860   -2.0256    0.0000 C   0  0  0  0  0  0  0  0  0  0  0  0
    2.0243   -1.3482    0.0000 C   0  0  0  0  0  0  0  0  0  0  0  0
    3.2801   -2.1686    0.0000 C   0  0  0  0  0  0  0  0  0  0  0  0
    3.1975   -3.6663    0.0000 O   0  0  0  0  0  0  0  0  0  0  0  0
    4.6185   -1.4913    0.0000 C   0  0  0  0  0  0  0  0  0  0  0  0
    4.7010    0.0064    0.0000 C   0  0  0  0  0  0  0  0  0  0  0  0
    6.0394    0.6838    0.0000 C   0  0  0  0  0  0  0  0  0  0  0  0
    6.1220    2.1815    0.0000 C   0  0  0  0  0  0  0  0  0  0  0  0
    7.4604    2.8588    0.0000 O   0  0  0  0  0  0  0  0  0  0  0  0
    4.8662    3.0019    0.0000 C   0  0  0  0  0  0  0  0  0  0  0  0
    3.5279    2.3246    0.0000 C   0  0  0  0  0  0  0  0  0  0  0  0
    3.4453    0.8268    0.0000 C   0  0  0  0  0  0  0  0  0  0  0  0
    2.1895    1.6472    0.0000 C   0  0  0  0  0  0  0  0  0  0  0  0
    2.1069    0.1495    0.0000 C   0  0  0  0  0  0  0  0  0  0  0  0
    0.8511    0.9699    0.0000 C   0  0  0  0  0  0  0  0  0  0  0  0
   -0.4872    0.2925    0.0000 C   0  0  0  0  0  0  0  0  0  0  0  0
   -1.7430    1.1129    0.0000 O   0  0  0  0  0  0  0  0  0  0  0  0
   -0.5698   -1.2052    0.0000 C   0  0  0  0  0  0  0  0  0  0  0  0
   -1.9045   -0.5205    0.0000 C   0  0  0  0  0  0  0  0  0  0  0  0
  2  1  1  6
  2  3  1  0
  3  4  1  0
  4  5  1  0
  5  6  2  0
  5  7  1  0
  7  8  1  0
  7  9  1  0
  2 10  1  0
 10 11  1  6
 11 12  1  0
 13 12  1  6
 13 14  1  0
 14 15  1  1
 15 16  1  1
 15 17  1  0
 18 17  1  1
 18 19  1  0
 19 20  1  0
 20 21  1  1
 20 22  1  0
 22 23  1  0
 23 24  1  0
 24 25  1  6
 24 26  1  0
 26 27  1  6
 27 28  1  0
 28 29  1  1
 28 30  1  0
 30 31  1  6
 30 10  1  0
 30 13  1  0
 26 14  1  0
 24 18  1  0
M  END
>  <MS_ID>  (939) 
MS0977

>  <SMILES>  (939) 
C[C@H](CCC(=O)N(C)O)[C@H]1CC[C@H]2[C@@H]3[C@H](O)C[C@@H]4C[C@H](O)CC[C@]4(C)[C@H]3C[C@H](O)[C@]12C

>  <Structure_dimension>  (939) 
2D

$$$$
MS0978
     RDKit          2D

 30 33  0  0  0  0  0  0  0  0999 V2000
   -3.2463   -3.5582    0.0000 C   0  0  0  0  0  0  0  0  0  0  0  0
   -2.3879   -2.3280    0.0000 C   0  0  0  0  0  0  0  0  0  0  0  0
   -3.0240   -0.9696    0.0000 C   0  0  0  0  0  0  0  0  0  0  0  0
   -4.5185   -0.8413    0.0000 C   0  0  0  0  0  0  0  0  0  0  0  0
   -5.1547    0.5171    0.0000 C   0  0  0  0  0  0  0  0  0  0  0  0
   -4.2963    1.7473    0.0000 O   0  0  0  0  0  0  0  0  0  0  0  0
   -6.6492    0.6455    0.0000 C   0  0  0  0  0  0  0  0  0  0  0  0
   -7.2853    2.0039    0.0000 C   0  0  0  0  0  0  0  0  0  0  0  0
   -6.4269    3.2340    0.0000 O   0  0  0  0  0  0  0  0  0  0  0  0
   -8.7798    2.1322    0.0000 O   0  0  0  0  0  0  0  0  0  0  0  0
   -0.8934   -2.4563    0.0000 C   0  0  0  0  0  0  0  0  0  0  0  0
   -0.1188   -3.7408    0.0000 C   0  0  0  0  0  0  0  0  0  0  0  0
    1.3422   -3.4010    0.0000 C   0  0  0  0  0  0  0  0  0  0  0  0
    1.4705   -1.9065    0.0000 C   0  0  0  0  0  0  0  0  0  0  0  0
    2.6670   -1.0019    0.0000 C   0  0  0  0  0  0  0  0  0  0  0  0
    4.0487   -1.5857    0.0000 C   0  0  0  0  0  0  0  0  0  0  0  0
    4.2340   -3.0743    0.0000 O   0  0  0  0  0  0  0  0  0  0  0  0
    5.2452   -0.6811    0.0000 C   0  0  0  0  0  0  0  0  0  0  0  0
    5.0600    0.8074    0.0000 C   0  0  0  0  0  0  0  0  0  0  0  0
    6.2565    1.7121    0.0000 C   0  0  0  0  0  0  0  0  0  0  0  0
    6.0713    3.2006    0.0000 C   0  0  0  0  0  0  0  0  0  0  0  0
    4.6896    3.7845    0.0000 C   0  0  0  0  0  0  0  0  0  0  0  0
    3.4931    2.8798    0.0000 C   0  0  0  0  0  0  0  0  0  0  0  0
    3.6783    1.3913    0.0000 C   0  0  0  0  0  0  0  0  0  0  0  0
    2.2966    1.9752    0.0000 C   0  0  0  0  0  0  0  0  0  0  0  0
    2.4818    0.4866    0.0000 C   0  0  0  0  0  0  0  0  0  0  0  0
    1.1001    1.0705    0.0000 C   0  0  0  0  0  0  0  0  0  0  0  0
   -0.0964    0.1658    0.0000 C   0  0  0  0  0  0  0  0  0  0  0  0
    0.0888   -1.3227    0.0000 C   0  0  0  0  0  0  0  0  0  0  0  0
   -1.3463   -0.8865    0.0000 C   0  0  0  0  0  0  0  0  0  0  0  0
  2  1  1  6
  2  3  1  0
  3  4  1  0
  4  5  1  0
  5  6  2  0
  5  7  1  0
  7  8  1  0
  8  9  2  0
  8 10  1  0
  2 11  1  0
 11 12  1  6
 12 13  1  0
 14 13  1  6
 14 15  1  0
 15 16  1  1
 16 17  1  6
 16 18  1  0
 19 18  1  1
 19 20  1  0
 20 21  1  0
 21 22  1  0
 22 23  1  0
 23 24  1  0
 24 25  1  6
 24 26  1  0
 26 27  1  6
 27 28  1  0
 28 29  1  0
 29 30  1  6
 29 11  1  0
 29 14  1  0
 26 15  1  0
 24 19  1  0
M  END
>  <MS_ID>  (940) 
MS0978

>  <SMILES>  (940) 
C[C@H](CCC(=O)CC(=O)O)[C@H]1CC[C@H]2[C@@H]3[C@@H](O)C[C@@H]4CCCC[C@]4(C)[C@H]3CC[C@]12C

>  <Structure_dimension>  (940) 
2D

$$$$
MS0979
     RDKit          2D

 30 33  0  0  0  0  0  0  0  0999 V2000
   -4.5685   -2.6908    0.0000 C   0  0  0  0  0  0  0  0  0  0  0  0
   -3.4838   -1.6548    0.0000 C   0  0  0  0  0  0  0  0  0  0  0  0
   -3.8388   -0.1974    0.0000 C   0  0  0  0  0  0  0  0  0  0  0  0
   -5.2784    0.2240    0.0000 C   0  0  0  0  0  0  0  0  0  0  0  0
   -5.6333    1.6814    0.0000 C   0  0  0  0  0  0  0  0  0  0  0  0
   -4.5486    2.7174    0.0000 O   0  0  0  0  0  0  0  0  0  0  0  0
   -7.0729    2.1027    0.0000 C   0  0  0  0  0  0  0  0  0  0  0  0
   -7.4279    3.5601    0.0000 S   0  0  0  0  0  0  0  0  0  0  0  0
   -2.0442   -2.0761    0.0000 C   0  0  0  0  0  0  0  0  0  0  0  0
   -1.5389   -3.4884    0.0000 C   0  0  0  0  0  0  0  0  0  0  0  0
   -0.0395   -3.4442    0.0000 C   0  0  0  0  0  0  0  0  0  0  0  0
    0.3818   -2.0046    0.0000 C   0  0  0  0  0  0  0  0  0  0  0  0
    1.7336   -1.3544    0.0000 C   0  0  0  0  0  0  0  0  0  0  0  0
    2.9725   -2.1999    0.0000 C   0  0  0  0  0  0  0  0  0  0  0  0
    2.8597   -3.6957    0.0000 O   0  0  0  0  0  0  0  0  0  0  0  0
    4.3243   -1.5497    0.0000 C   0  0  0  0  0  0  0  0  0  0  0  0
    4.4371   -0.0540    0.0000 C   0  0  0  0  0  0  0  0  0  0  0  0
    5.7888    0.5962    0.0000 C   0  0  0  0  0  0  0  0  0  0  0  0
    5.9016    2.0920    0.0000 C   0  0  0  0  0  0  0  0  0  0  0  0
    7.2534    2.7422    0.0000 O   0  0  0  0  0  0  0  0  0  0  0  0
    4.6627    2.9375    0.0000 C   0  0  0  0  0  0  0  0  0  0  0  0
    3.3109    2.2873    0.0000 C   0  0  0  0  0  0  0  0  0  0  0  0
    3.1981    0.7916    0.0000 C   0  0  0  0  0  0  0  0  0  0  0  0
    1.9591    1.6371    0.0000 C   0  0  0  0  0  0  0  0  0  0  0  0
    1.8464    0.1414    0.0000 C   0  0  0  0  0  0  0  0  0  0  0  0
    0.6074    0.9869    0.0000 C   0  0  0  0  0  0  0  0  0  0  0  0
   -0.7444    0.3367    0.0000 C   0  0  0  0  0  0  0  0  0  0  0  0
   -1.9833    1.1823    0.0000 O   0  0  0  0  0  0  0  0  0  0  0  0
   -0.8572   -1.1590    0.0000 C   0  0  0  0  0  0  0  0  0  0  0  0
   -2.1777   -0.4476    0.0000 C   0  0  0  0  0  0  0  0  0  0  0  0
  2  1  1  6
  2  3  1  0
  3  4  1  0
  4  5  1  0
  5  6  2  0
  5  7  1  0
  7  8  1  0
  2  9  1  0
  9 10  1  6
 10 11  1  0
 12 11  1  6
 12 13  1  0
 13 14  1  1
 14 15  1  1
 14 16  1  0
 17 16  1  1
 17 18  1  0
 18 19  1  0
 19 20  2  0
 19 21  1  0
 21 22  1  0
 22 23  1  0
 23 24  1  6
 23 25  1  0
 25 26  1  6
 26 27  1  0
 27 28  1  1
 27 29  1  0
 29 30  1  6
 29  9  1  0
 29 12  1  0
 25 13  1  0
 23 17  1  0
M  END
>  <MS_ID>  (941) 
MS0979

>  <SMILES>  (941) 
C[C@H](CCC(=O)CS)[C@H]1CC[C@H]2[C@@H]3[C@H](O)C[C@@H]4CC(=O)CC[C@]4(C)[C@H]3C[C@H](O)[C@]12C

>  <Structure_dimension>  (941) 
2D

$$$$
MS0980
     RDKit          2D

 36 40  0  0  0  0  0  0  0  0999 V2000
   -1.8695   -4.0446    0.0000 C   0  0  0  0  0  0  0  0  0  0  0  0
   -1.0892   -2.7636    0.0000 C   0  0  0  0  0  0  0  0  0  0  0  0
   -1.8085   -1.4473    0.0000 C   0  0  0  0  0  0  0  0  0  0  0  0
   -3.3081   -1.4120    0.0000 C   0  0  0  0  0  0  0  0  0  0  0  0
   -4.0274   -0.0958    0.0000 C   0  0  0  0  0  0  0  0  0  0  0  0
   -3.2470    1.1853    0.0000 O   0  0  0  0  0  0  0  0  0  0  0  0
   -5.5269   -0.0605    0.0000 O   0  0  0  0  0  0  0  0  0  0  0  0
   -6.2462    1.2558    0.0000 C   0  0  0  0  0  0  0  0  0  0  0  0
   -7.7458    1.2910    0.0000 C   0  0  0  0  0  0  0  0  0  0  0  0
   -8.4651    2.6073    0.0000 C   0  0  0  0  0  0  0  0  0  0  0  0
   -9.9647    2.6425    0.0000 C   0  0  0  0  0  0  0  0  0  0  0  0
  -10.7450    1.3615    0.0000 C   0  0  0  0  0  0  0  0  0  0  0  0
  -10.0257    0.0452    0.0000 C   0  0  0  0  0  0  0  0  0  0  0  0
   -8.5261    0.0099    0.0000 C   0  0  0  0  0  0  0  0  0  0  0  0
    0.4104   -2.7988    0.0000 C   0  0  0  0  0  0  0  0  0  0  0  0
    1.2633   -4.0327    0.0000 C   0  0  0  0  0  0  0  0  0  0  0  0
    2.7004   -3.6028    0.0000 C   0  0  0  0  0  0  0  0  0  0  0  0
    2.7356   -2.1032    0.0000 C   0  0  0  0  0  0  0  0  0  0  0  0
    3.8736   -1.1260    0.0000 C   0  0  0  0  0  0  0  0  0  0  0  0
    5.2889   -1.6229    0.0000 C   0  0  0  0  0  0  0  0  0  0  0  0
    5.5662   -3.0970    0.0000 O   0  0  0  0  0  0  0  0  0  0  0  0
    6.4269   -0.6457    0.0000 C   0  0  0  0  0  0  0  0  0  0  0  0
    6.1496    0.8285    0.0000 C   0  0  0  0  0  0  0  0  0  0  0  0
    7.2876    1.8057    0.0000 C   0  0  0  0  0  0  0  0  0  0  0  0
    7.0102    3.2799    0.0000 C   0  0  0  0  0  0  0  0  0  0  0  0
    8.1482    4.2571    0.0000 O   0  0  0  0  0  0  0  0  0  0  0  0
    5.5949    3.7768    0.0000 C   0  0  0  0  0  0  0  0  0  0  0  0
    4.4570    2.7995    0.0000 C   0  0  0  0  0  0  0  0  0  0  0  0
    4.7343    1.3254    0.0000 C   0  0  0  0  0  0  0  0  0  0  0  0
    3.3190    1.8223    0.0000 C   0  0  0  0  0  0  0  0  0  0  0  0
    3.5963    0.3481    0.0000 C   0  0  0  0  0  0  0  0  0  0  0  0
    2.1810    0.8451    0.0000 C   0  0  0  0  0  0  0  0  0  0  0  0
    1.0430   -0.1322    0.0000 C   0  0  0  0  0  0  0  0  0  0  0  0
   -0.3723    0.3647    0.0000 O   0  0  0  0  0  0  0  0  0  0  0  0
    1.3203   -1.6063    0.0000 C   0  0  0  0  0  0  0  0  0  0  0  0
   -0.1392   -1.2601    0.0000 C   0  0  0  0  0  0  0  0  0  0  0  0
  2  1  1  6
  2  3  1  0
  3  4  1  0
  4  5  1  0
  5  6  2  0
  5  7  1  0
  7  8  1  0
  8  9  1  0
  9 10  2  0
 10 11  1  0
 11 12  2  0
 12 13  1  0
 13 14  2  0
  2 15  1  0
 15 16  1  6
 16 17  1  0
 18 17  1  6
 18 19  1  0
 19 20  1  1
 20 21  1  1
 20 22  1  0
 23 22  1  1
 23 24  1  0
 24 25  1  0
 25 26  1  1
 25 27  1  0
 27 28  1  0
 28 29  1  0
 29 30  1  6
 29 31  1  0
 31 32  1  6
 32 33  1  0
 33 34  1  1
 33 35  1  0
 35 36  1  6
 14  9  1  0
 35 15  1  0
 35 18  1  0
 31 19  1  0
 29 23  1  0
M  END
>  <MS_ID>  (942) 
MS0980

>  <SMILES>  (942) 
C[C@H](CCC(=O)OCc1ccccc1)[C@H]1CC[C@H]2[C@@H]3[C@H](O)C[C@@H]4C[C@H](O)CC[C@]4(C)[C@H]3C[C@H](O)[C@]12C

>  <Structure_dimension>  (942) 
2D

$$$$
MS0981
     RDKit          2D

 28 31  0  0  0  0  0  0  0  0999 V2000
   -4.6340   -2.3524    0.0000 C   0  0  0  0  0  0  0  0  0  0  0  0
   -3.5242   -1.3434    0.0000 C   0  0  0  0  0  0  0  0  0  0  0  0
   -3.8431    0.1223    0.0000 C   0  0  0  0  0  0  0  0  0  0  0  0
   -5.2720    0.5789    0.0000 C   0  0  0  0  0  0  0  0  0  0  0  0
   -5.5909    2.0446    0.0000 C   0  0  0  0  0  0  0  0  0  0  0  0
   -7.0197    2.5012    0.0000 O   0  0  0  0  0  0  0  0  0  0  0  0
   -4.4811    3.0537    0.0000 S   0  0  0  0  0  0  0  0  0  0  0  0
   -2.0954   -1.8000    0.0000 C   0  0  0  0  0  0  0  0  0  0  0  0
   -1.6249   -3.2243    0.0000 C   0  0  0  0  0  0  0  0  0  0  0  0
   -0.1249   -3.2170    0.0000 C   0  0  0  0  0  0  0  0  0  0  0  0
    0.3317   -1.7882    0.0000 C   0  0  0  0  0  0  0  0  0  0  0  0
    1.6990   -1.1715    0.0000 C   0  0  0  0  0  0  0  0  0  0  0  0
    2.9168   -2.0473    0.0000 C   0  0  0  0  0  0  0  0  0  0  0  0
    2.7672   -3.5398    0.0000 O   0  0  0  0  0  0  0  0  0  0  0  0
    4.2841   -1.4305    0.0000 C   0  0  0  0  0  0  0  0  0  0  0  0
    4.4337    0.0620    0.0000 C   0  0  0  0  0  0  0  0  0  0  0  0
    5.8011    0.6787    0.0000 C   0  0  0  0  0  0  0  0  0  0  0  0
    5.9506    2.1713    0.0000 C   0  0  0  0  0  0  0  0  0  0  0  0
    4.7328    3.0471    0.0000 C   0  0  0  0  0  0  0  0  0  0  0  0
    3.3655    2.4303    0.0000 C   0  0  0  0  0  0  0  0  0  0  0  0
    3.2159    0.9378    0.0000 C   0  0  0  0  0  0  0  0  0  0  0  0
    1.9981    1.8136    0.0000 C   0  0  0  0  0  0  0  0  0  0  0  0
    1.8486    0.3211    0.0000 C   0  0  0  0  0  0  0  0  0  0  0  0
    0.6308    1.1968    0.0000 C   0  0  0  0  0  0  0  0  0  0  0  0
   -0.7366    0.5801    0.0000 C   0  0  0  0  0  0  0  0  0  0  0  0
   -1.9543    1.4559    0.0000 O   0  0  0  0  0  0  0  0  0  0  0  0
   -0.8861   -0.9124    0.0000 C   0  0  0  0  0  0  0  0  0  0  0  0
   -2.1888   -0.1687    0.0000 C   0  0  0  0  0  0  0  0  0  0  0  0
  2  1  1  6
  2  3  1  0
  3  4  1  0
  4  5  1  0
  5  6  2  0
  5  7  1  0
  2  8  1  0
  8  9  1  6
  9 10  1  0
 11 10  1  6
 11 12  1  0
 12 13  1  1
 13 14  1  1
 13 15  1  0
 16 15  1  1
 16 17  1  0
 17 18  1  0
 18 19  1  0
 19 20  1  0
 20 21  1  0
 21 22  1  6
 21 23  1  0
 23 24  1  6
 24 25  1  0
 25 26  2  0
 25 27  1  0
 27 28  1  6
 27  8  1  0
 27 11  1  0
 23 12  1  0
 21 16  1  0
M  END
>  <MS_ID>  (943) 
MS0981

>  <SMILES>  (943) 
C[C@H](CCC(=O)S)[C@H]1CC[C@H]2[C@@H]3[C@H](O)C[C@@H]4CCCC[C@]4(C)[C@H]3CC(=O)[C@]12C

>  <Structure_dimension>  (943) 
2D

$$$$
MS0982
     RDKit          2D

 35 38  0  0  0  0  0  0  0  0999 V2000
   -4.7811   -3.1726    0.0000 C   0  0  0  0  0  0  0  0  0  0  0  0
   -4.0517   -1.8619    0.0000 C   0  0  0  0  0  0  0  0  0  0  0  0
   -4.8220   -0.5748    0.0000 C   0  0  0  0  0  0  0  0  0  0  0  0
   -6.3218   -0.5984    0.0000 C   0  0  0  0  0  0  0  0  0  0  0  0
   -7.0922    0.6887    0.0000 C   0  0  0  0  0  0  0  0  0  0  0  0
   -6.3627    1.9993    0.0000 O   0  0  0  0  0  0  0  0  0  0  0  0
   -8.5920    0.6651    0.0000 O   0  0  0  0  0  0  0  0  0  0  0  0
   -2.5518   -1.8383    0.0000 C   0  0  0  0  0  0  0  0  0  0  0  0
   -1.6512   -3.0378    0.0000 C   0  0  0  0  0  0  0  0  0  0  0  0
   -0.2321   -2.5519    0.0000 C   0  0  0  0  0  0  0  0  0  0  0  0
   -0.2557   -1.0521    0.0000 C   0  0  0  0  0  0  0  0  0  0  0  0
    0.8431   -0.0309    0.0000 C   0  0  0  0  0  0  0  0  0  0  0  0
    2.2768   -0.4720    0.0000 C   0  0  0  0  0  0  0  0  0  0  0  0
    2.6117   -1.9341    0.0000 O   0  0  0  0  0  0  0  0  0  0  0  0
    4.0454   -2.3751    0.0000 C   0  0  0  0  0  0  0  0  0  0  0  0
    5.1442   -1.3540    0.0000 O   0  0  0  0  0  0  0  0  0  0  0  0
    4.3803   -3.8373    0.0000 C   0  0  0  0  0  0  0  0  0  0  0  0
    2.9182   -4.1722    0.0000 C   0  0  0  0  0  0  0  0  0  0  0  0
    5.8425   -3.5023    0.0000 C   0  0  0  0  0  0  0  0  0  0  0  0
    4.7153   -5.2994    0.0000 O   0  0  0  0  0  0  0  0  0  0  0  0
    3.3756    0.5491    0.0000 C   0  0  0  0  0  0  0  0  0  0  0  0
    3.0407    2.0113    0.0000 C   0  0  0  0  0  0  0  0  0  0  0  0
    4.1395    3.0324    0.0000 C   0  0  0  0  0  0  0  0  0  0  0  0
    3.8046    4.4945    0.0000 C   0  0  0  0  0  0  0  0  0  0  0  0
    4.9033    5.5156    0.0000 O   0  0  0  0  0  0  0  0  0  0  0  0
    2.3709    4.9355    0.0000 C   0  0  0  0  0  0  0  0  0  0  0  0
    1.2721    3.9144    0.0000 C   0  0  0  0  0  0  0  0  0  0  0  0
    1.6070    2.4523    0.0000 C   0  0  0  0  0  0  0  0  0  0  0  0
    0.1733    2.8933    0.0000 C   0  0  0  0  0  0  0  0  0  0  0  0
    0.5082    1.4312    0.0000 C   0  0  0  0  0  0  0  0  0  0  0  0
   -0.9255    1.8722    0.0000 C   0  0  0  0  0  0  0  0  0  0  0  0
   -2.0243    0.8511    0.0000 C   0  0  0  0  0  0  0  0  0  0  0  0
   -3.4580    1.2921    0.0000 O   0  0  0  0  0  0  0  0  0  0  0  0
   -1.6894   -0.6110    0.0000 C   0  0  0  0  0  0  0  0  0  0  0  0
   -3.1613   -0.3223    0.0000 C   0  0  0  0  0  0  0  0  0  0  0  0
  2  1  1  6
  2  3  1  0
  3  4  1  0
  4  5  1  0
  5  6  2  0
  5  7  1  0
  2  8  1  0
  8  9  1  6
  9 10  1  0
 11 10  1  6
 11 12  1  0
 12 13  1  1
 13 14  1  1
 14 15  1  0
 15 16  2  0
 15 17  1  0
 17 18  1  0
 17 19  1  0
 17 20  1  0
 13 21  1  0
 22 21  1  1
 22 23  1  0
 23 24  1  0
 24 25  1  1
 24 26  1  0
 26 27  1  0
 27 28  1  0
 28 29  1  6
 28 30  1  0
 30 31  1  6
 31 32  1  0
 32 33  1  1
 32 34  1  0
 34 35  1  6
 34  8  1  0
 34 11  1  0
 30 12  1  0
 28 22  1  0
M  END
>  <MS_ID>  (944) 
MS0982

>  <SMILES>  (944) 
C[C@H](CCC(=O)O)[C@H]1CC[C@H]2[C@@H]3[C@H](OC(=O)C(C)(C)O)C[C@@H]4C[C@H](O)CC[C@]4(C)[C@H]3C[C@H](O)[C@]12C

>  <Structure_dimension>  (944) 
2D

$$$$
MS0983
     RDKit          2D

 39 44  0  0  0  0  0  0  0  0999 V2000
   -1.3862   -4.0354    0.0000 C   0  0  0  0  0  0  0  0  0  0  0  0
   -0.6000   -2.7580    0.0000 C   0  0  0  0  0  0  0  0  0  0  0  0
   -1.3131   -1.4383    0.0000 C   0  0  0  0  0  0  0  0  0  0  0  0
   -2.8125   -1.3962    0.0000 C   0  0  0  0  0  0  0  0  0  0  0  0
   -3.5257   -0.0765    0.0000 C   0  0  0  0  0  0  0  0  0  0  0  0
   -2.7395    1.2009    0.0000 O   0  0  0  0  0  0  0  0  0  0  0  0
   -5.0251   -0.0343    0.0000 C   0  0  0  0  0  0  0  0  0  0  0  0
   -5.8113   -1.3118    0.0000 C   0  0  0  0  0  0  0  0  0  0  0  0
   -7.3108   -1.2696    0.0000 C   0  0  0  0  0  0  0  0  0  0  0  0
   -8.0239    0.0501    0.0000 C   0  0  0  0  0  0  0  0  0  0  0  0
   -9.5233    0.0923    0.0000 C   0  0  0  0  0  0  0  0  0  0  0  0
  -10.2365    1.4119    0.0000 C   0  0  0  0  0  0  0  0  0  0  0  0
   -9.4502    2.6893    0.0000 C   0  0  0  0  0  0  0  0  0  0  0  0
   -7.9508    2.6471    0.0000 C   0  0  0  0  0  0  0  0  0  0  0  0
   -7.2377    1.3275    0.0000 C   0  0  0  0  0  0  0  0  0  0  0  0
   -5.7383    1.2853    0.0000 C   0  0  0  0  0  0  0  0  0  0  0  0
   -4.9520    2.5627    0.0000 O   0  0  0  0  0  0  0  0  0  0  0  0
    0.8994   -2.8002    0.0000 C   0  0  0  0  0  0  0  0  0  0  0  0
    1.7466   -4.0380    0.0000 C   0  0  0  0  0  0  0  0  0  0  0  0
    3.1857   -3.6148    0.0000 C   0  0  0  0  0  0  0  0  0  0  0  0
    3.2279   -2.1154    0.0000 C   0  0  0  0  0  0  0  0  0  0  0  0
    4.3704   -1.1435    0.0000 C   0  0  0  0  0  0  0  0  0  0  0  0
    5.7834   -1.6469    0.0000 C   0  0  0  0  0  0  0  0  0  0  0  0
    6.0538   -3.1223    0.0000 O   0  0  0  0  0  0  0  0  0  0  0  0
    6.9259   -0.6750    0.0000 C   0  0  0  0  0  0  0  0  0  0  0  0
    6.6554    0.8004    0.0000 C   0  0  0  0  0  0  0  0  0  0  0  0
    7.7979    1.7724    0.0000 C   0  0  0  0  0  0  0  0  0  0  0  0
    7.5275    3.2478    0.0000 C   0  0  0  0  0  0  0  0  0  0  0  0
    8.6700    4.2197    0.0000 O   0  0  0  0  0  0  0  0  0  0  0  0
    6.1145    3.7513    0.0000 C   0  0  0  0  0  0  0  0  0  0  0  0
    4.9720    2.7793    0.0000 C   0  0  0  0  0  0  0  0  0  0  0  0
    5.2424    1.3039    0.0000 C   0  0  0  0  0  0  0  0  0  0  0  0
    3.8295    1.8074    0.0000 C   0  0  0  0  0  0  0  0  0  0  0  0
    4.0999    0.3320    0.0000 C   0  0  0  0  0  0  0  0  0  0  0  0
    2.6869    0.8354    0.0000 C   0  0  0  0  0  0  0  0  0  0  0  0
    1.5444   -0.1365    0.0000 C   0  0  0  0  0  0  0  0  0  0  0  0
    0.1315    0.3670    0.0000 O   0  0  0  0  0  0  0  0  0  0  0  0
    1.8149   -1.6119    0.0000 C   0  0  0  0  0  0  0  0  0  0  0  0
    0.3570   -1.2589    0.0000 C   0  0  0  0  0  0  0  0  0  0  0  0
  2  1  1  6
  2  3  1  0
  3  4  1  0
  4  5  1  0
  5  6  2  0
  5  7  1  0
  7  8  2  0
  8  9  1  0
  9 10  2  0
 10 11  1  0
 11 12  2  0
 12 13  1  0
 13 14  2  0
 14 15  1  0
 15 16  2  0
 16 17  1  0
  2 18  1  0
 18 19  1  6
 19 20  1  0
 21 20  1  6
 21 22  1  0
 22 23  1  1
 23 24  1  1
 23 25  1  0
 26 25  1  1
 26 27  1  0
 27 28  1  0
 28 29  1  1
 28 30  1  0
 30 31  1  0
 31 32  1  0
 32 33  1  6
 32 34  1  0
 34 35  1  6
 35 36  1  0
 36 37  1  1
 36 38  1  0
 38 39  1  6
 16  7  1  0
 38 18  1  0
 15 10  1  0
 38 21  1  0
 34 22  1  0
 32 26  1  0
M  END
>  <MS_ID>  (945) 
MS0983

>  <SMILES>  (945) 
C[C@H](CCC(=O)c1ccc2ccccc2c1O)[C@H]1CC[C@H]2[C@@H]3[C@H](O)C[C@@H]4C[C@H](O)CC[C@]4(C)[C@H]3C[C@H](O)[C@]12C

>  <Structure_dimension>  (945) 
2D

$$$$
MS0984
     RDKit          2D

 34 37  0  0  0  0  0  0  0  0999 V2000
   -8.6523    1.4696    0.0000 C   0  0  0  0  0  0  0  0  0  0  0  0
   -7.1543    1.3922    0.0000 C   0  0  0  0  0  0  0  0  0  0  0  0
   -6.4723    0.0562    0.0000 O   0  0  0  0  0  0  0  0  0  0  0  0
   -4.9743   -0.0213    0.0000 C   0  0  0  0  0  0  0  0  0  0  0  0
   -4.1583    1.2374    0.0000 O   0  0  0  0  0  0  0  0  0  0  0  0
   -4.2923   -1.3573    0.0000 C   0  0  0  0  0  0  0  0  0  0  0  0
   -2.7943   -1.4347    0.0000 C   0  0  0  0  0  0  0  0  0  0  0  0
   -2.1124   -2.7707    0.0000 C   0  0  0  0  0  0  0  0  0  0  0  0
   -2.9284   -4.0293    0.0000 C   0  0  0  0  0  0  0  0  0  0  0  0
   -0.6144   -2.8481    0.0000 C   0  0  0  0  0  0  0  0  0  0  0  0
    0.2035   -4.1055    0.0000 C   0  0  0  0  0  0  0  0  0  0  0  0
    1.6521   -3.7162    0.0000 C   0  0  0  0  0  0  0  0  0  0  0  0
    1.7295   -2.2182    0.0000 C   0  0  0  0  0  0  0  0  0  0  0  0
    2.8945   -1.2734    0.0000 C   0  0  0  0  0  0  0  0  0  0  0  0
    4.2953   -1.8099    0.0000 C   0  0  0  0  0  0  0  0  0  0  0  0
    4.5310   -3.2913    0.0000 O   0  0  0  0  0  0  0  0  0  0  0  0
    5.4603   -0.8651    0.0000 C   0  0  0  0  0  0  0  0  0  0  0  0
    5.2246    0.6163    0.0000 C   0  0  0  0  0  0  0  0  0  0  0  0
    6.3896    1.5611    0.0000 C   0  0  0  0  0  0  0  0  0  0  0  0
    6.1539    3.0425    0.0000 C   0  0  0  0  0  0  0  0  0  0  0  0
    7.3189    3.9873    0.0000 O   0  0  0  0  0  0  0  0  0  0  0  0
    4.7531    3.5790    0.0000 C   0  0  0  0  0  0  0  0  0  0  0  0
    3.5881    2.6342    0.0000 C   0  0  0  0  0  0  0  0  0  0  0  0
    3.8238    1.1528    0.0000 C   0  0  0  0  0  0  0  0  0  0  0  0
    2.4231    1.6893    0.0000 C   0  0  0  0  0  0  0  0  0  0  0  0
    2.6588    0.2080    0.0000 C   0  0  0  0  0  0  0  0  0  0  0  0
    1.2580    0.7445    0.0000 C   0  0  0  0  0  0  0  0  0  0  0  0
    0.0930   -0.2003    0.0000 C   0  0  0  0  0  0  0  0  0  0  0  0
   -1.3077    0.3362    0.0000 O   0  0  0  0  0  0  0  0  0  0  0  0
    0.3287   -1.6817    0.0000 C   0  0  0  0  0  0  0  0  0  0  0  0
   -1.1204   -1.2945    0.0000 C   0  0  0  0  0  0  0  0  0  0  0  0
   -6.3382    2.6508    0.0000 C   0  0  0  0  0  0  0  0  0  0  0  0
   -4.8402    2.5734    0.0000 O   0  0  0  0  0  0  0  0  0  0  0  0
   -7.0202    3.9868    0.0000 O   0  0  0  0  0  0  0  0  0  0  0  0
  2  1  1  1
  2  3  1  0
  3  4  1  0
  4  5  2  0
  4  6  1  0
  6  7  1  0
  7  8  1  0
  8  9  1  6
  8 10  1  0
 10 11  1  6
 11 12  1  0
 13 12  1  6
 13 14  1  0
 14 15  1  1
 15 16  1  1
 15 17  1  0
 18 17  1  1
 18 19  1  0
 19 20  1  0
 20 21  1  1
 20 22  1  0
 22 23  1  0
 23 24  1  0
 24 25  1  6
 24 26  1  0
 26 27  1  6
 27 28  1  0
 28 29  1  1
 28 30  1  0
 30 31  1  6
  2 32  1  0
 32 33  2  0
 32 34  1  0
 30 10  1  0
 30 13  1  0
 26 14  1  0
 24 18  1  0
M  END
>  <MS_ID>  (946) 
MS0984

>  <SMILES>  (946) 
C[C@H](OC(=O)CC[C@@H](C)[C@H]1CC[C@H]2[C@@H]3[C@H](O)C[C@@H]4C[C@H](O)CC[C@]4(C)[C@H]3C[C@H](O)[C@]12C)C(=O)O

>  <Structure_dimension>  (946) 
2D

$$$$
MS0985
     RDKit          2D

 28 31  0  0  0  0  0  0  0  0999 V2000
   -5.1275   -2.0302    0.0000 C   0  0  0  0  0  0  0  0  0  0  0  0
   -3.9468   -1.1050    0.0000 C   0  0  0  0  0  0  0  0  0  0  0  0
   -4.1576    0.3801    0.0000 C   0  0  0  0  0  0  0  0  0  0  0  0
   -5.5492    0.9401    0.0000 C   0  0  0  0  0  0  0  0  0  0  0  0
   -5.7600    2.4252    0.0000 C   0  0  0  0  0  0  0  0  0  0  0  0
   -4.5793    3.3503    0.0000 O   0  0  0  0  0  0  0  0  0  0  0  0
   -7.1516    2.9851    0.0000 O   0  0  0  0  0  0  0  0  0  0  0  0
   -2.5552   -1.6650    0.0000 C   0  0  0  0  0  0  0  0  0  0  0  0
   -2.1903   -3.1199    0.0000 C   0  0  0  0  0  0  0  0  0  0  0  0
   -0.6938   -3.2225    0.0000 C   0  0  0  0  0  0  0  0  0  0  0  0
   -0.1339   -1.8309    0.0000 C   0  0  0  0  0  0  0  0  0  0  0  0
    1.2750   -1.3159    0.0000 C   0  0  0  0  0  0  0  0  0  0  0  0
    2.4254   -2.2785    0.0000 C   0  0  0  0  0  0  0  0  0  0  0  0
    2.1670   -3.7560    0.0000 O   0  0  0  0  0  0  0  0  0  0  0  0
    3.8342   -1.7635    0.0000 C   0  0  0  0  0  0  0  0  0  0  0  0
    4.0926   -0.2859    0.0000 C   0  0  0  0  0  0  0  0  0  0  0  0
    5.5014    0.2291    0.0000 C   0  0  0  0  0  0  0  0  0  0  0  0
    5.7598    1.7067    0.0000 C   0  0  0  0  0  0  0  0  0  0  0  0
    7.1687    2.2217    0.0000 O   0  0  0  0  0  0  0  0  0  0  0  0
    4.6094    2.6692    0.0000 C   0  0  0  0  0  0  0  0  0  0  0  0
    3.2006    2.1542    0.0000 C   0  0  0  0  0  0  0  0  0  0  0  0
    2.9422    0.6767    0.0000 C   0  0  0  0  0  0  0  0  0  0  0  0
    1.7918    1.6392    0.0000 C   0  0  0  0  0  0  0  0  0  0  0  0
    1.5334    0.1617    0.0000 C   0  0  0  0  0  0  0  0  0  0  0  0
    0.3830    1.1242    0.0000 C   0  0  0  0  0  0  0  0  0  0  0  0
   -1.0259    0.6093    0.0000 C   0  0  0  0  0  0  0  0  0  0  0  0
   -1.2843   -0.8683    0.0000 C   0  0  0  0  0  0  0  0  0  0  0  0
   -2.5290   -0.0313    0.0000 C   0  0  0  0  0  0  0  0  0  0  0  0
  2  1  1  1
  2  3  1  0
  3  4  1  0
  4  5  1  0
  5  6  2  0
  5  7  1  0
  2  8  1  0
  8  9  1  6
  9 10  1  0
 11 10  1  6
 11 12  1  0
 12 13  1  1
 13 14  1  1
 13 15  1  0
 16 15  1  1
 16 17  1  0
 17 18  1  0
 18 19  1  1
 18 20  1  0
 20 21  1  0
 21 22  1  0
 22 23  1  6
 22 24  1  0
 24 25  1  6
 25 26  1  0
 26 27  1  0
 27 28  1  6
 27  8  1  0
 27 11  1  0
 24 12  1  0
 22 16  1  0
M  END
>  <MS_ID>  (947) 
MS0985

>  <SMILES>  (947) 
C[C@@H](CCC(=O)O)[C@H]1CC[C@H]2[C@@H]3[C@H](O)C[C@@H]4C[C@H](O)CC[C@]4(C)[C@H]3CC[C@]12C

>  <Structure_dimension>  (947) 
2D

$$$$
MS0986
     RDKit          2D

 32 35  0  0  0  0  0  0  0  0999 V2000
   -3.6587   -2.9016    0.0000 C   0  0  0  0  0  0  0  0  0  0  0  0
   -2.5818   -1.8574    0.0000 C   0  0  0  0  0  0  0  0  0  0  0  0
   -2.9478   -0.4027    0.0000 C   0  0  0  0  0  0  0  0  0  0  0  0
   -4.3905    0.0077    0.0000 C   0  0  0  0  0  0  0  0  0  0  0  0
   -4.7564    1.4624    0.0000 C   0  0  0  0  0  0  0  0  0  0  0  0
   -3.6796    2.5067    0.0000 O   0  0  0  0  0  0  0  0  0  0  0  0
   -6.1992    1.8728    0.0000 N   0  0  0  0  0  0  0  0  0  0  0  0
   -6.5651    3.3275    0.0000 C   0  0  0  0  0  0  0  0  0  0  0  0
   -7.2760    0.8286    0.0000 C   0  0  0  0  0  0  0  0  0  0  0  0
   -6.9101   -0.6261    0.0000 O   0  0  0  0  0  0  0  0  0  0  0  0
   -8.7188    1.2390    0.0000 O   0  0  0  0  0  0  0  0  0  0  0  0
   -1.1391   -2.2678    0.0000 C   0  0  0  0  0  0  0  0  0  0  0  0
   -0.6231   -3.6763    0.0000 C   0  0  0  0  0  0  0  0  0  0  0  0
    0.8759   -3.6208    0.0000 C   0  0  0  0  0  0  0  0  0  0  0  0
    1.2863   -2.1780    0.0000 C   0  0  0  0  0  0  0  0  0  0  0  0
    2.6331   -1.5177    0.0000 C   0  0  0  0  0  0  0  0  0  0  0  0
    3.8784   -2.3539    0.0000 C   0  0  0  0  0  0  0  0  0  0  0  0
    5.2252   -1.6935    0.0000 C   0  0  0  0  0  0  0  0  0  0  0  0
    5.3267   -0.1969    0.0000 C   0  0  0  0  0  0  0  0  0  0  0  0
    6.6736    0.4635    0.0000 C   0  0  0  0  0  0  0  0  0  0  0  0
    6.7751    1.9600    0.0000 C   0  0  0  0  0  0  0  0  0  0  0  0
    8.1219    2.6204    0.0000 O   0  0  0  0  0  0  0  0  0  0  0  0
    5.5298    2.7962    0.0000 C   0  0  0  0  0  0  0  0  0  0  0  0
    4.1829    2.1358    0.0000 C   0  0  0  0  0  0  0  0  0  0  0  0
    4.0814    0.6393    0.0000 C   0  0  0  0  0  0  0  0  0  0  0  0
    2.8361    1.4755    0.0000 C   0  0  0  0  0  0  0  0  0  0  0  0
    2.7346   -0.0211    0.0000 C   0  0  0  0  0  0  0  0  0  0  0  0
    1.4893    0.8151    0.0000 C   0  0  0  0  0  0  0  0  0  0  0  0
    0.1425    0.1547    0.0000 C   0  0  0  0  0  0  0  0  0  0  0  0
   -1.1028    0.9909    0.0000 O   0  0  0  0  0  0  0  0  0  0  0  0
    0.0410   -1.3419    0.0000 C   0  0  0  0  0  0  0  0  0  0  0  0
   -1.2849   -0.6404    0.0000 C   0  0  0  0  0  0  0  0  0  0  0  0
  2  1  1  6
  2  3  1  0
  3  4  1  0
  4  5  1  0
  5  6  2  0
  5  7  1  0
  7  8  1  0
  7  9  1  0
  9 10  2  0
  9 11  1  0
  2 12  1  0
 12 13  1  6
 13 14  1  0
 15 14  1  6
 15 16  1  0
 16 17  1  1
 17 18  1  0
 19 18  1  1
 19 20  1  0
 20 21  1  0
 21 22  1  1
 21 23  1  0
 23 24  1  0
 24 25  1  0
 25 26  1  6
 25 27  1  0
 27 28  1  6
 28 29  1  0
 29 30  1  1
 29 31  1  0
 31 32  1  6
 31 12  1  0
 31 15  1  0
 27 16  1  0
 25 19  1  0
M  END
>  <MS_ID>  (948) 
MS0986

>  <SMILES>  (948) 
C[C@H](CCC(=O)N(C)C(=O)O)[C@H]1CC[C@H]2[C@@H]3CC[C@@H]4C[C@H](O)CC[C@]4(C)[C@H]3C[C@H](O)[C@]12C

>  <Structure_dimension>  (948) 
2D

$$$$
MS0987
     RDKit          2D

 29 32  0  0  0  0  0  0  0  0999 V2000
   -4.6551   -2.6180    0.0000 C   0  0  0  0  0  0  0  0  0  0  0  0
   -3.5633   -1.5894    0.0000 C   0  0  0  0  0  0  0  0  0  0  0  0
   -3.9081   -0.1296    0.0000 C   0  0  0  0  0  0  0  0  0  0  0  0
   -5.3448    0.3016    0.0000 C   0  0  0  0  0  0  0  0  0  0  0  0
   -5.6897    1.7615    0.0000 C   0  0  0  0  0  0  0  0  0  0  0  0
   -4.5979    2.7900    0.0000 O   0  0  0  0  0  0  0  0  0  0  0  0
   -7.1264    2.1927    0.0000 N   0  0  0  0  0  0  0  0  0  0  0  0
   -7.4712    3.6525    0.0000 N   0  0  0  0  0  0  0  0  0  0  0  0
   -2.1266   -2.0207    0.0000 C   0  0  0  0  0  0  0  0  0  0  0  0
   -1.6310   -3.4364    0.0000 C   0  0  0  0  0  0  0  0  0  0  0  0
   -0.1314   -3.4026    0.0000 C   0  0  0  0  0  0  0  0  0  0  0  0
    0.2998   -1.9659    0.0000 C   0  0  0  0  0  0  0  0  0  0  0  0
    1.6561   -1.3251    0.0000 C   0  0  0  0  0  0  0  0  0  0  0  0
    2.8892   -2.1792    0.0000 C   0  0  0  0  0  0  0  0  0  0  0  0
    2.7660   -3.6741    0.0000 O   0  0  0  0  0  0  0  0  0  0  0  0
    4.2454   -1.5383    0.0000 C   0  0  0  0  0  0  0  0  0  0  0  0
    4.3685   -0.0434    0.0000 C   0  0  0  0  0  0  0  0  0  0  0  0
    5.7247    0.5975    0.0000 C   0  0  0  0  0  0  0  0  0  0  0  0
    5.8478    2.0924    0.0000 C   0  0  0  0  0  0  0  0  0  0  0  0
    7.2040    2.7332    0.0000 O   0  0  0  0  0  0  0  0  0  0  0  0
    4.6147    2.9465    0.0000 C   0  0  0  0  0  0  0  0  0  0  0  0
    3.2585    2.3056    0.0000 C   0  0  0  0  0  0  0  0  0  0  0  0
    3.1354    0.8107    0.0000 C   0  0  0  0  0  0  0  0  0  0  0  0
    1.9023    1.6648    0.0000 C   0  0  0  0  0  0  0  0  0  0  0  0
    1.7792    0.1699    0.0000 C   0  0  0  0  0  0  0  0  0  0  0  0
    0.5461    1.0239    0.0000 C   0  0  0  0  0  0  0  0  0  0  0  0
   -0.8101    0.3831    0.0000 C   0  0  0  0  0  0  0  0  0  0  0  0
   -0.9333   -1.1118    0.0000 C   0  0  0  0  0  0  0  0  0  0  0  0
   -2.2489   -0.3913    0.0000 C   0  0  0  0  0  0  0  0  0  0  0  0
  2  1  1  6
  2  3  1  0
  3  4  1  0
  4  5  1  0
  5  6  2  0
  5  7  1  0
  7  8  1  0
  2  9  1  0
  9 10  1  6
 10 11  1  0
 12 11  1  6
 12 13  1  0
 13 14  1  1
 14 15  1  1
 14 16  1  0
 17 16  1  1
 17 18  1  0
 18 19  1  0
 19 20  1  6
 19 21  1  0
 21 22  1  0
 22 23  1  0
 23 24  1  6
 23 25  1  0
 25 26  1  6
 26 27  1  0
 27 28  1  0
 28 29  1  6
 28  9  1  0
 28 12  1  0
 25 13  1  0
 23 17  1  0
M  END
>  <MS_ID>  (949) 
MS0987

>  <SMILES>  (949) 
C[C@H](CCC(=O)NN)[C@H]1CC[C@H]2[C@@H]3[C@H](O)C[C@@H]4C[C@@H](O)CC[C@]4(C)[C@H]3CC[C@]12C

>  <Structure_dimension>  (949) 
2D

$$$$
MS0988
     RDKit          2D

 34 37  0  0  0  0  0  0  0  0999 V2000
   -4.5932   -3.4780    0.0000 C   0  0  0  0  0  0  0  0  0  0  0  0
   -3.9416   -2.1269    0.0000 C   0  0  0  0  0  0  0  0  0  0  0  0
   -4.7859   -0.8870    0.0000 C   0  0  0  0  0  0  0  0  0  0  0  0
   -6.2817   -0.9983    0.0000 C   0  0  0  0  0  0  0  0  0  0  0  0
   -7.1260    0.2415    0.0000 C   0  0  0  0  0  0  0  0  0  0  0  0
   -6.4744    1.5926    0.0000 O   0  0  0  0  0  0  0  0  0  0  0  0
   -8.6219    0.1303    0.0000 O   0  0  0  0  0  0  0  0  0  0  0  0
   -2.4457   -2.0156    0.0000 C   0  0  0  0  0  0  0  0  0  0  0  0
   -1.4765   -3.1604    0.0000 C   0  0  0  0  0  0  0  0  0  0  0  0
   -0.0882   -2.5924    0.0000 C   0  0  0  0  0  0  0  0  0  0  0  0
   -0.1994   -1.0965    0.0000 C   0  0  0  0  0  0  0  0  0  0  0  0
    0.8378   -0.0129    0.0000 C   0  0  0  0  0  0  0  0  0  0  0  0
    2.2948   -0.3694    0.0000 C   0  0  0  0  0  0  0  0  0  0  0  0
    2.7146   -1.8094    0.0000 C   0  0  0  0  0  0  0  0  0  0  0  0
    4.1717   -2.1659    0.0000 C   0  0  0  0  0  0  0  0  0  0  0  0
    4.5915   -3.6059    0.0000 C   0  0  0  0  0  0  0  0  0  0  0  0
    6.0485   -3.9624    0.0000 C   0  0  0  0  0  0  0  0  0  0  0  0
    7.0857   -2.8788    0.0000 O   0  0  0  0  0  0  0  0  0  0  0  0
    6.4683   -5.4024    0.0000 O   0  0  0  0  0  0  0  0  0  0  0  0
    3.3320    0.7142    0.0000 C   0  0  0  0  0  0  0  0  0  0  0  0
    2.9122    2.1543    0.0000 C   0  0  0  0  0  0  0  0  0  0  0  0
    3.9494    3.2379    0.0000 C   0  0  0  0  0  0  0  0  0  0  0  0
    3.5296    4.6779    0.0000 C   0  0  0  0  0  0  0  0  0  0  0  0
    4.5668    5.7615    0.0000 O   0  0  0  0  0  0  0  0  0  0  0  0
    2.0726    5.0344    0.0000 C   0  0  0  0  0  0  0  0  0  0  0  0
    1.0354    3.9508    0.0000 C   0  0  0  0  0  0  0  0  0  0  0  0
    1.4552    2.5107    0.0000 C   0  0  0  0  0  0  0  0  0  0  0  0
   -0.0019    2.8672    0.0000 C   0  0  0  0  0  0  0  0  0  0  0  0
    0.4180    1.4271    0.0000 C   0  0  0  0  0  0  0  0  0  0  0  0
   -1.0391    1.7836    0.0000 C   0  0  0  0  0  0  0  0  0  0  0  0
   -2.0763    0.7000    0.0000 C   0  0  0  0  0  0  0  0  0  0  0  0
   -3.5333    1.0564    0.0000 O   0  0  0  0  0  0  0  0  0  0  0  0
   -1.6565   -0.7401    0.0000 C   0  0  0  0  0  0  0  0  0  0  0  0
   -3.1428   -0.5379    0.0000 C   0  0  0  0  0  0  0  0  0  0  0  0
  2  1  1  6
  2  3  1  0
  3  4  1  0
  4  5  1  0
  5  6  2  0
  5  7  1  0
  2  8  1  0
  8  9  1  6
  9 10  1  0
 11 10  1  6
 11 12  1  0
 12 13  1  1
 13 14  1  1
 14 15  1  0
 15 16  2  0
 16 17  1  0
 17 18  2  0
 17 19  1  0
 13 20  1  0
 21 20  1  1
 21 22  1  0
 22 23  1  0
 23 24  1  1
 23 25  1  0
 25 26  1  0
 26 27  1  0
 27 28  1  6
 27 29  1  0
 29 30  1  6
 30 31  1  0
 31 32  1  1
 31 33  1  0
 33 34  1  6
 33  8  1  0
 33 11  1  0
 29 12  1  0
 27 21  1  0
M  END
>  <MS_ID>  (950) 
MS0988

>  <SMILES>  (950) 
C[C@H](CCC(=O)O)[C@H]1CC[C@H]2[C@@H]3[C@H](C/C=C/C(=O)O)C[C@@H]4C[C@H](O)CC[C@]4(C)[C@H]3C[C@H](O)[C@]12C

>  <Structure_dimension>  (950) 
2D

$$$$
MS0989
     RDKit          2D

 31 34  0  0  0  0  0  0  0  0999 V2000
   -3.4301   -3.6172    0.0000 C   0  0  0  0  0  0  0  0  0  0  0  0
   -2.4973   -2.4425    0.0000 C   0  0  0  0  0  0  0  0  0  0  0  0
   -3.0483   -1.0473    0.0000 C   0  0  0  0  0  0  0  0  0  0  0  0
   -4.5321   -0.8270    0.0000 C   0  0  0  0  0  0  0  0  0  0  0  0
   -5.0831    0.5682    0.0000 C   0  0  0  0  0  0  0  0  0  0  0  0
   -4.1503    1.7429    0.0000 O   0  0  0  0  0  0  0  0  0  0  0  0
   -6.5668    0.7886    0.0000 C   0  0  0  0  0  0  0  0  0  0  0  0
   -7.1178    2.1837    0.0000 C   0  0  0  0  0  0  0  0  0  0  0  0
   -8.6015    2.4041    0.0000 C   0  0  0  0  0  0  0  0  0  0  0  0
   -9.1525    3.7992    0.0000 O   0  0  0  0  0  0  0  0  0  0  0  0
   -1.0136   -2.6629    0.0000 C   0  0  0  0  0  0  0  0  0  0  0  0
   -0.3198   -3.9928    0.0000 C   0  0  0  0  0  0  0  0  0  0  0  0
    1.1594   -3.7439    0.0000 C   0  0  0  0  0  0  0  0  0  0  0  0
    1.3798   -2.2602    0.0000 C   0  0  0  0  0  0  0  0  0  0  0  0
    2.6299   -1.4311    0.0000 C   0  0  0  0  0  0  0  0  0  0  0  0
    3.9729   -2.0992    0.0000 C   0  0  0  0  0  0  0  0  0  0  0  0
    5.2230   -1.2702    0.0000 C   0  0  0  0  0  0  0  0  0  0  0  0
    5.1301    0.2269    0.0000 C   0  0  0  0  0  0  0  0  0  0  0  0
    6.3802    1.0559    0.0000 C   0  0  0  0  0  0  0  0  0  0  0  0
    6.2872    2.5531    0.0000 C   0  0  0  0  0  0  0  0  0  0  0  0
    7.5373    3.3821    0.0000 O   0  0  0  0  0  0  0  0  0  0  0  0
    4.9442    3.2212    0.0000 C   0  0  0  0  0  0  0  0  0  0  0  0
    3.6942    2.3921    0.0000 C   0  0  0  0  0  0  0  0  0  0  0  0
    3.7871    0.8950    0.0000 C   0  0  0  0  0  0  0  0  0  0  0  0
    2.4441    1.5631    0.0000 C   0  0  0  0  0  0  0  0  0  0  0  0
    2.5370    0.0660    0.0000 C   0  0  0  0  0  0  0  0  0  0  0  0
    1.1940    0.7341    0.0000 C   0  0  0  0  0  0  0  0  0  0  0  0
   -0.0561   -0.0949    0.0000 C   0  0  0  0  0  0  0  0  0  0  0  0
   -1.3991    0.5732    0.0000 O   0  0  0  0  0  0  0  0  0  0  0  0
    0.0368   -1.5921    0.0000 C   0  0  0  0  0  0  0  0  0  0  0  0
   -1.3687   -1.0680    0.0000 C   0  0  0  0  0  0  0  0  0  0  0  0
  2  1  1  6
  2  3  1  0
  3  4  1  0
  4  5  1  0
  5  6  2  0
  5  7  1  0
  7  8  1  0
  8  9  1  0
  9 10  1  0
  2 11  1  0
 11 12  1  6
 12 13  1  0
 14 13  1  6
 14 15  1  0
 15 16  1  1
 16 17  1  0
 18 17  1  1
 18 19  1  0
 19 20  1  0
 20 21  1  1
 20 22  1  0
 22 23  1  0
 23 24  1  0
 24 25  1  6
 24 26  1  0
 26 27  1  6
 27 28  1  0
 28 29  1  1
 28 30  1  0
 30 31  1  6
 30 11  1  0
 30 14  1  0
 26 15  1  0
 24 18  1  0
M  END
>  <MS_ID>  (951) 
MS0989

>  <SMILES>  (951) 
C[C@H](CCC(=O)CCCO)[C@H]1CC[C@H]2[C@@H]3CC[C@@H]4C[C@H](O)CC[C@]4(C)[C@H]3C[C@H](O)[C@]12C

>  <Structure_dimension>  (951) 
2D

$$$$
MS0990
     RDKit          2D

 29 32  0  0  0  0  0  0  0  0999 V2000
   -5.2182   -2.1453    0.0000 C   0  0  0  0  0  0  0  0  0  0  0  0
   -4.0752   -1.1739    0.0000 C   0  0  0  0  0  0  0  0  0  0  0  0
   -4.3449    0.3016    0.0000 C   0  0  0  0  0  0  0  0  0  0  0  0
   -5.7577    0.8058    0.0000 C   0  0  0  0  0  0  0  0  0  0  0  0
   -6.0274    2.2814    0.0000 C   0  0  0  0  0  0  0  0  0  0  0  0
   -7.4401    2.7856    0.0000 O   0  0  0  0  0  0  0  0  0  0  0  0
   -4.8843    3.2527    0.0000 S   0  0  0  0  0  0  0  0  0  0  0  0
   -2.6625   -1.6782    0.0000 C   0  0  0  0  0  0  0  0  0  0  0  0
   -2.2400   -3.1174    0.0000 C   0  0  0  0  0  0  0  0  0  0  0  0
   -0.7407   -3.1604    0.0000 C   0  0  0  0  0  0  0  0  0  0  0  0
   -0.2364   -1.7477    0.0000 C   0  0  0  0  0  0  0  0  0  0  0  0
    1.1508   -1.1771    0.0000 C   0  0  0  0  0  0  0  0  0  0  0  0
    2.3386   -2.0932    0.0000 C   0  0  0  0  0  0  0  0  0  0  0  0
    2.1391   -3.5798    0.0000 O   0  0  0  0  0  0  0  0  0  0  0  0
    3.7258   -1.5226    0.0000 C   0  0  0  0  0  0  0  0  0  0  0  0
    4.9136   -2.4386    0.0000 O   0  0  0  0  0  0  0  0  0  0  0  0
    3.9253   -0.0359    0.0000 C   0  0  0  0  0  0  0  0  0  0  0  0
    5.3125    0.5347    0.0000 C   0  0  0  0  0  0  0  0  0  0  0  0
    5.5119    2.0214    0.0000 C   0  0  0  0  0  0  0  0  0  0  0  0
    6.8992    2.5920    0.0000 O   0  0  0  0  0  0  0  0  0  0  0  0
    4.3242    2.9375    0.0000 C   0  0  0  0  0  0  0  0  0  0  0  0
    2.9369    2.3669    0.0000 C   0  0  0  0  0  0  0  0  0  0  0  0
    2.7375    0.8802    0.0000 C   0  0  0  0  0  0  0  0  0  0  0  0
    1.5497    1.7963    0.0000 C   0  0  0  0  0  0  0  0  0  0  0  0
    1.3502    0.3096    0.0000 C   0  0  0  0  0  0  0  0  0  0  0  0
    0.1625    1.2257    0.0000 C   0  0  0  0  0  0  0  0  0  0  0  0
   -1.2248    0.6551    0.0000 C   0  0  0  0  0  0  0  0  0  0  0  0
   -1.4242   -0.8316    0.0000 C   0  0  0  0  0  0  0  0  0  0  0  0
   -2.7012   -0.0447    0.0000 C   0  0  0  0  0  0  0  0  0  0  0  0
  2  1  1  6
  2  3  1  0
  3  4  1  0
  4  5  1  0
  5  6  2  0
  5  7  1  0
  2  8  1  0
  8  9  1  6
  9 10  1  0
 11 10  1  6
 11 12  1  0
 12 13  1  1
 13 14  1  1
 13 15  1  0
 15 16  1  1
 15 17  1  0
 17 18  1  1
 18 19  1  0
 19 20  1  1
 19 21  1  0
 21 22  1  0
 22 23  1  0
 23 24  1  6
 23 25  1  0
 25 26  1  6
 26 27  1  0
 27 28  1  0
 28 29  1  6
 28  8  1  0
 28 11  1  0
 25 12  1  0
 23 17  1  0
M  END
>  <MS_ID>  (952) 
MS0990

>  <SMILES>  (952) 
C[C@H](CCC(=O)S)[C@H]1CC[C@H]2[C@@H]3[C@H](O)[C@H](O)[C@@H]4C[C@H](O)CC[C@]4(C)[C@H]3CC[C@]12C

>  <Structure_dimension>  (952) 
2D

$$$$
MS0991
     RDKit          2D

 34 37  0  0  0  0  0  0  0  0999 V2000
   -2.7457   -3.8277    0.0000 C   0  0  0  0  0  0  0  0  0  0  0  0
   -1.9007   -2.5883    0.0000 C   0  0  0  0  0  0  0  0  0  0  0  0
   -2.5515   -1.2369    0.0000 C   0  0  0  0  0  0  0  0  0  0  0  0
   -4.0473   -1.1247    0.0000 C   0  0  0  0  0  0  0  0  0  0  0  0
   -4.6981    0.2267    0.0000 C   0  0  0  0  0  0  0  0  0  0  0  0
   -3.8531    1.4661    0.0000 O   0  0  0  0  0  0  0  0  0  0  0  0
   -6.1939    0.3389    0.0000 N   0  0  0  0  0  0  0  0  0  0  0  0
   -6.8447    1.6903    0.0000 C   0  0  0  0  0  0  0  0  0  0  0  0
   -8.3405    1.8025    0.0000 C   0  0  0  0  0  0  0  0  0  0  0  0
   -8.4526    0.3067    0.0000 C   0  0  0  0  0  0  0  0  0  0  0  0
   -8.2283    3.2983    0.0000 C   0  0  0  0  0  0  0  0  0  0  0  0
   -9.8363    1.9146    0.0000 O   0  0  0  0  0  0  0  0  0  0  0  0
   -0.4049   -2.7005    0.0000 C   0  0  0  0  0  0  0  0  0  0  0  0
    0.3836   -3.9765    0.0000 C   0  0  0  0  0  0  0  0  0  0  0  0
    1.8409   -3.6209    0.0000 C   0  0  0  0  0  0  0  0  0  0  0  0
    1.9530   -2.1251    0.0000 C   0  0  0  0  0  0  0  0  0  0  0  0
    3.1396   -1.2076    0.0000 C   0  0  0  0  0  0  0  0  0  0  0  0
    4.5276   -1.7764    0.0000 C   0  0  0  0  0  0  0  0  0  0  0  0
    4.7289   -3.2629    0.0000 O   0  0  0  0  0  0  0  0  0  0  0  0
    5.7142   -0.8589    0.0000 C   0  0  0  0  0  0  0  0  0  0  0  0
    5.5129    0.6276    0.0000 C   0  0  0  0  0  0  0  0  0  0  0  0
    6.6995    1.5451    0.0000 C   0  0  0  0  0  0  0  0  0  0  0  0
    6.4982    3.0315    0.0000 C   0  0  0  0  0  0  0  0  0  0  0  0
    7.6848    3.9491    0.0000 O   0  0  0  0  0  0  0  0  0  0  0  0
    5.1102    3.6004    0.0000 C   0  0  0  0  0  0  0  0  0  0  0  0
    3.9236    2.6829    0.0000 C   0  0  0  0  0  0  0  0  0  0  0  0
    4.1249    1.1964    0.0000 C   0  0  0  0  0  0  0  0  0  0  0  0
    2.7370    1.7653    0.0000 C   0  0  0  0  0  0  0  0  0  0  0  0
    2.9383    0.2789    0.0000 C   0  0  0  0  0  0  0  0  0  0  0  0
    1.5504    0.8477    0.0000 C   0  0  0  0  0  0  0  0  0  0  0  0
    0.3637   -0.0698    0.0000 C   0  0  0  0  0  0  0  0  0  0  0  0
   -1.0242    0.4991    0.0000 O   0  0  0  0  0  0  0  0  0  0  0  0
    0.5650   -1.5562    0.0000 C   0  0  0  0  0  0  0  0  0  0  0  0
   -0.8748   -1.1356    0.0000 C   0  0  0  0  0  0  0  0  0  0  0  0
  2  1  1  6
  2  3  1  0
  3  4  1  0
  4  5  1  0
  5  6  2  0
  5  7  1  0
  7  8  1  0
  8  9  1  0
  9 10  1  0
  9 11  1  0
  9 12  1  0
  2 13  1  0
 13 14  1  6
 14 15  1  0
 16 15  1  6
 16 17  1  0
 17 18  1  1
 18 19  1  1
 18 20  1  0
 21 20  1  1
 21 22  1  0
 22 23  1  0
 23 24  1  1
 23 25  1  0
 25 26  1  0
 26 27  1  0
 27 28  1  6
 27 29  1  0
 29 30  1  6
 30 31  1  0
 31 32  1  1
 31 33  1  0
 33 34  1  6
 33 13  1  0
 33 16  1  0
 29 17  1  0
 27 21  1  0
M  END
>  <MS_ID>  (953) 
MS0991

>  <SMILES>  (953) 
C[C@H](CCC(=O)NCC(C)(C)O)[C@H]1CC[C@H]2[C@@H]3[C@H](O)C[C@@H]4C[C@H](O)CC[C@]4(C)[C@H]3C[C@H](O)[C@]12C

>  <Structure_dimension>  (953) 
2D

$$$$
MS0993
     RDKit          2D

 31 34  0  0  0  0  0  0  0  0999 V2000
   -4.0024   -3.4860    0.0000 C   0  0  0  0  0  0  0  0  0  0  0  0
   -3.0477   -2.3291    0.0000 C   0  0  0  0  0  0  0  0  0  0  0  0
   -3.5723   -0.9238    0.0000 C   0  0  0  0  0  0  0  0  0  0  0  0
   -5.0516   -0.6754    0.0000 C   0  0  0  0  0  0  0  0  0  0  0  0
   -5.5761    0.7298    0.0000 C   0  0  0  0  0  0  0  0  0  0  0  0
   -7.0554    0.9782    0.0000 O   0  0  0  0  0  0  0  0  0  0  0  0
   -4.6214    1.8868    0.0000 O   0  0  0  0  0  0  0  0  0  0  0  0
   -5.1460    3.2921    0.0000 C   0  0  0  0  0  0  0  0  0  0  0  0
   -4.1913    4.4490    0.0000 N   0  0  0  0  0  0  0  0  0  0  0  0
   -6.6253    3.5404    0.0000 O   0  0  0  0  0  0  0  0  0  0  0  0
   -1.5684   -2.5774    0.0000 C   0  0  0  0  0  0  0  0  0  0  0  0
   -0.8998   -3.9201    0.0000 C   0  0  0  0  0  0  0  0  0  0  0  0
    0.5839   -3.6992    0.0000 C   0  0  0  0  0  0  0  0  0  0  0  0
    0.8322   -2.2199    0.0000 C   0  0  0  0  0  0  0  0  0  0  0  0
    2.0977   -1.4146    0.0000 C   0  0  0  0  0  0  0  0  0  0  0  0
    3.4279   -2.1079    0.0000 C   0  0  0  0  0  0  0  0  0  0  0  0
    3.4925   -3.6065    0.0000 O   0  0  0  0  0  0  0  0  0  0  0  0
    4.6934   -1.3026    0.0000 C   0  0  0  0  0  0  0  0  0  0  0  0
    4.6287    0.1960    0.0000 C   0  0  0  0  0  0  0  0  0  0  0  0
    5.8942    1.0013    0.0000 C   0  0  0  0  0  0  0  0  0  0  0  0
    5.8296    2.4999    0.0000 C   0  0  0  0  0  0  0  0  0  0  0  0
    7.0951    3.3052    0.0000 O   0  0  0  0  0  0  0  0  0  0  0  0
    4.4994    3.1932    0.0000 C   0  0  0  0  0  0  0  0  0  0  0  0
    3.2339    2.3879    0.0000 C   0  0  0  0  0  0  0  0  0  0  0  0
    3.2986    0.8893    0.0000 C   0  0  0  0  0  0  0  0  0  0  0  0
    1.9684    1.5826    0.0000 C   0  0  0  0  0  0  0  0  0  0  0  0
    2.0331    0.0840    0.0000 C   0  0  0  0  0  0  0  0  0  0  0  0
    0.7029    0.7773    0.0000 C   0  0  0  0  0  0  0  0  0  0  0  0
   -0.5626   -0.0280    0.0000 C   0  0  0  0  0  0  0  0  0  0  0  0
   -0.4979   -1.5266    0.0000 C   0  0  0  0  0  0  0  0  0  0  0  0
   -1.8933   -0.9761    0.0000 C   0  0  0  0  0  0  0  0  0  0  0  0
  2  1  1  6
  2  3  1  0
  3  4  1  0
  4  5  1  0
  5  6  2  0
  5  7  1  0
  7  8  1  0
  8  9  1  0
  8 10  2  0
  2 11  1  0
 11 12  1  6
 12 13  1  0
 14 13  1  6
 14 15  1  0
 15 16  1  1
 16 17  1  6
 16 18  1  0
 19 18  1  1
 19 20  1  0
 20 21  1  0
 21 22  1  1
 21 23  1  0
 23 24  1  0
 24 25  1  0
 25 26  1  6
 25 27  1  0
 27 28  1  6
 28 29  1  0
 29 30  1  0
 30 31  1  6
 30 11  1  0
 30 14  1  0
 27 15  1  0
 25 19  1  0
M  END
>  <MS_ID>  (954) 
MS0993

>  <SMILES>  (954) 
C[C@H](CCC(=O)OC(N)=O)[C@H]1CC[C@H]2[C@@H]3[C@@H](O)C[C@@H]4C[C@H](O)CC[C@]4(C)[C@H]3CC[C@]12C

>  <Structure_dimension>  (954) 
2D

$$$$
MS0994
     RDKit          2D

 35 39  0  0  0  0  0  0  0  0999 V2000
   -2.2319   -4.3352    0.0000 C   0  0  0  0  0  0  0  0  0  0  0  0
   -1.5144   -3.0180    0.0000 C   0  0  0  0  0  0  0  0  0  0  0  0
   -2.2965   -1.7380    0.0000 C   0  0  0  0  0  0  0  0  0  0  0  0
   -3.7960   -1.7752    0.0000 C   0  0  0  0  0  0  0  0  0  0  0  0
   -4.5781   -0.4952    0.0000 C   0  0  0  0  0  0  0  0  0  0  0  0
   -3.8606    0.8220    0.0000 O   0  0  0  0  0  0  0  0  0  0  0  0
   -6.0776   -0.5325    0.0000 N   0  0  0  0  0  0  0  0  0  0  0  0
   -6.8597    0.7475    0.0000 C   0  0  0  0  0  0  0  0  0  0  0  0
   -6.1422    2.0648    0.0000 C   0  0  0  0  0  0  0  0  0  0  0  0
   -6.9242    3.3448    0.0000 C   0  0  0  0  0  0  0  0  0  0  0  0
   -8.4238    3.3075    0.0000 N   0  0  0  0  0  0  0  0  0  0  0  0
   -9.1412    1.9902    0.0000 C   0  0  0  0  0  0  0  0  0  0  0  0
   -8.3592    0.7102    0.0000 C   0  0  0  0  0  0  0  0  0  0  0  0
   -0.0149   -2.9807    0.0000 C   0  0  0  0  0  0  0  0  0  0  0  0
    0.8967   -4.1719    0.0000 C   0  0  0  0  0  0  0  0  0  0  0  0
    2.3113   -3.6731    0.0000 C   0  0  0  0  0  0  0  0  0  0  0  0
    2.2740   -2.1736    0.0000 C   0  0  0  0  0  0  0  0  0  0  0  0
    3.3634   -1.1425    0.0000 C   0  0  0  0  0  0  0  0  0  0  0  0
    4.8011   -1.5704    0.0000 C   0  0  0  0  0  0  0  0  0  0  0  0
    5.1493   -3.0294    0.0000 O   0  0  0  0  0  0  0  0  0  0  0  0
    5.8905   -0.5393    0.0000 C   0  0  0  0  0  0  0  0  0  0  0  0
    5.5423    0.9197    0.0000 C   0  0  0  0  0  0  0  0  0  0  0  0
    6.6317    1.9508    0.0000 C   0  0  0  0  0  0  0  0  0  0  0  0
    6.2835    3.4098    0.0000 C   0  0  0  0  0  0  0  0  0  0  0  0
    7.3729    4.4409    0.0000 O   0  0  0  0  0  0  0  0  0  0  0  0
    4.8458    3.8377    0.0000 C   0  0  0  0  0  0  0  0  0  0  0  0
    3.7564    2.8066    0.0000 C   0  0  0  0  0  0  0  0  0  0  0  0
    4.1046    1.3476    0.0000 C   0  0  0  0  0  0  0  0  0  0  0  0
    2.6670    1.7755    0.0000 C   0  0  0  0  0  0  0  0  0  0  0  0
    3.0152    0.3165    0.0000 C   0  0  0  0  0  0  0  0  0  0  0  0
    1.5776    0.7445    0.0000 C   0  0  0  0  0  0  0  0  0  0  0  0
    0.4881   -0.2866    0.0000 C   0  0  0  0  0  0  0  0  0  0  0  0
   -0.9495    0.1413    0.0000 O   0  0  0  0  0  0  0  0  0  0  0  0
    0.8363   -1.7456    0.0000 C   0  0  0  0  0  0  0  0  0  0  0  0
   -0.6382   -1.4703    0.0000 C   0  0  0  0  0  0  0  0  0  0  0  0
  2  1  1  6
  2  3  1  0
  3  4  1  0
  4  5  1  0
  5  6  2  0
  5  7  1  0
  7  8  1  0
  8  9  2  0
  9 10  1  0
 10 11  2  0
 11 12  1  0
 12 13  2  0
  2 14  1  0
 14 15  1  6
 15 16  1  0
 17 16  1  6
 17 18  1  0
 18 19  1  1
 19 20  1  1
 19 21  1  0
 22 21  1  1
 22 23  1  0
 23 24  1  0
 24 25  1  1
 24 26  1  0
 26 27  1  0
 27 28  1  0
 28 29  1  6
 28 30  1  0
 30 31  1  6
 31 32  1  0
 32 33  1  1
 32 34  1  0
 34 35  1  6
 13  8  1  0
 34 14  1  0
 34 17  1  0
 30 18  1  0
 28 22  1  0
M  END
>  <MS_ID>  (955) 
MS0994

>  <SMILES>  (955) 
C[C@H](CCC(=O)Nc1ccncc1)[C@H]1CC[C@H]2[C@@H]3[C@H](O)C[C@@H]4C[C@H](O)CC[C@]4(C)[C@H]3C[C@H](O)[C@]12C

>  <Structure_dimension>  (955) 
2D

$$$$
MS0995
     RDKit          2D

 38 42  0  0  0  0  0  0  0  0999 V2000
   -1.0668   -4.5648    0.0000 C   0  0  0  0  0  0  0  0  0  0  0  0
   -0.4338   -3.2049    0.0000 C   0  0  0  0  0  0  0  0  0  0  0  0
   -1.2949   -1.9767    0.0000 C   0  0  0  0  0  0  0  0  0  0  0  0
   -2.7892   -2.1084    0.0000 C   0  0  0  0  0  0  0  0  0  0  0  0
   -3.6503   -0.8803    0.0000 C   0  0  0  0  0  0  0  0  0  0  0  0
   -3.0173    0.4796    0.0000 O   0  0  0  0  0  0  0  0  0  0  0  0
   -5.1445   -1.0120    0.0000 N   0  0  0  0  0  0  0  0  0  0  0  0
   -6.0057    0.2162    0.0000 C   0  0  0  0  0  0  0  0  0  0  0  0
   -5.3727    1.5761    0.0000 C   0  0  0  0  0  0  0  0  0  0  0  0
   -6.2338    2.8042    0.0000 C   0  0  0  0  0  0  0  0  0  0  0  0
   -7.7280    2.6725    0.0000 C   0  0  0  0  0  0  0  0  0  0  0  0
   -8.3611    1.3126    0.0000 C   0  0  0  0  0  0  0  0  0  0  0  0
   -9.8553    1.1809    0.0000 C   0  0  0  0  0  0  0  0  0  0  0  0
  -10.4883   -0.1790    0.0000 O   0  0  0  0  0  0  0  0  0  0  0  0
  -10.7165    2.4091    0.0000 O   0  0  0  0  0  0  0  0  0  0  0  0
   -7.4999    0.0845    0.0000 C   0  0  0  0  0  0  0  0  0  0  0  0
    1.0604   -3.0732    0.0000 C   0  0  0  0  0  0  0  0  0  0  0  0
    2.0453   -4.2046    0.0000 C   0  0  0  0  0  0  0  0  0  0  0  0
    3.4256   -3.6176    0.0000 C   0  0  0  0  0  0  0  0  0  0  0  0
    3.2939   -2.1234    0.0000 C   0  0  0  0  0  0  0  0  0  0  0  0
    4.3162   -1.0257    0.0000 C   0  0  0  0  0  0  0  0  0  0  0  0
    5.7780   -1.3622    0.0000 C   0  0  0  0  0  0  0  0  0  0  0  0
    6.2175   -2.7963    0.0000 O   0  0  0  0  0  0  0  0  0  0  0  0
    6.8002   -0.2645    0.0000 C   0  0  0  0  0  0  0  0  0  0  0  0
    6.3608    1.1697    0.0000 C   0  0  0  0  0  0  0  0  0  0  0  0
    7.3830    2.2674    0.0000 C   0  0  0  0  0  0  0  0  0  0  0  0
    6.9435    3.7016    0.0000 C   0  0  0  0  0  0  0  0  0  0  0  0
    7.9658    4.7993    0.0000 O   0  0  0  0  0  0  0  0  0  0  0  0
    5.4818    4.0381    0.0000 C   0  0  0  0  0  0  0  0  0  0  0  0
    4.4595    2.9404    0.0000 C   0  0  0  0  0  0  0  0  0  0  0  0
    4.8990    1.5062    0.0000 C   0  0  0  0  0  0  0  0  0  0  0  0
    3.4372    1.8427    0.0000 C   0  0  0  0  0  0  0  0  0  0  0  0
    3.8767    0.4085    0.0000 C   0  0  0  0  0  0  0  0  0  0  0  0
    2.4149    0.7450    0.0000 C   0  0  0  0  0  0  0  0  0  0  0  0
    1.3926   -0.3527    0.0000 C   0  0  0  0  0  0  0  0  0  0  0  0
   -0.0691   -0.0163    0.0000 O   0  0  0  0  0  0  0  0  0  0  0  0
    1.8321   -1.7869    0.0000 C   0  0  0  0  0  0  0  0  0  0  0  0
    0.3432   -1.6051    0.0000 C   0  0  0  0  0  0  0  0  0  0  0  0
  2  1  1  6
  2  3  1  0
  3  4  1  0
  4  5  1  0
  5  6  2  0
  5  7  1  0
  7  8  1  0
  8  9  2  0
  9 10  1  0
 10 11  2  0
 11 12  1  0
 12 13  1  0
 13 14  2  0
 13 15  1  0
 12 16  2  0
  2 17  1  0
 17 18  1  6
 18 19  1  0
 20 19  1  6
 20 21  1  0
 21 22  1  1
 22 23  1  1
 22 24  1  0
 25 24  1  1
 25 26  1  0
 26 27  1  0
 27 28  1  1
 27 29  1  0
 29 30  1  0
 30 31  1  0
 31 32  1  6
 31 33  1  0
 33 34  1  6
 34 35  1  0
 35 36  1  1
 35 37  1  0
 37 38  1  6
 16  8  1  0
 37 17  1  0
 37 20  1  0
 33 21  1  0
 31 25  1  0
M  END
>  <MS_ID>  (956) 
MS0995

>  <SMILES>  (956) 
C[C@H](CCC(=O)Nc1cccc(C(=O)O)c1)[C@H]1CC[C@H]2[C@@H]3[C@H](O)C[C@@H]4C[C@H](O)CC[C@]4(C)[C@H]3C[C@H](O)[C@]12C

>  <Structure_dimension>  (956) 
2D

$$$$
MS0996
     RDKit          2D

 32 35  0  0  0  0  0  0  0  0999 V2000
   -3.0592   -3.7169    0.0000 C   0  0  0  0  0  0  0  0  0  0  0  0
   -2.1499   -2.5239    0.0000 C   0  0  0  0  0  0  0  0  0  0  0  0
   -2.7284   -1.1399    0.0000 C   0  0  0  0  0  0  0  0  0  0  0  0
   -4.2162   -0.9489    0.0000 C   0  0  0  0  0  0  0  0  0  0  0  0
   -4.7946    0.4350    0.0000 C   0  0  0  0  0  0  0  0  0  0  0  0
   -3.8853    1.6280    0.0000 O   0  0  0  0  0  0  0  0  0  0  0  0
   -6.2824    0.6260    0.0000 C   0  0  0  0  0  0  0  0  0  0  0  0
   -6.8609    2.0100    0.0000 O   0  0  0  0  0  0  0  0  0  0  0  0
   -8.3487    2.2010    0.0000 C   0  0  0  0  0  0  0  0  0  0  0  0
   -9.2580    1.0080    0.0000 O   0  0  0  0  0  0  0  0  0  0  0  0
   -8.9272    3.5850    0.0000 O   0  0  0  0  0  0  0  0  0  0  0  0
   -0.6621   -2.7149    0.0000 C   0  0  0  0  0  0  0  0  0  0  0  0
    0.0579   -4.0308    0.0000 C   0  0  0  0  0  0  0  0  0  0  0  0
    1.5319   -3.7527    0.0000 C   0  0  0  0  0  0  0  0  0  0  0  0
    1.7229   -2.2649    0.0000 C   0  0  0  0  0  0  0  0  0  0  0  0
    2.9563   -1.4114    0.0000 C   0  0  0  0  0  0  0  0  0  0  0  0
    4.3123   -2.0528    0.0000 C   0  0  0  0  0  0  0  0  0  0  0  0
    5.5457   -1.1992    0.0000 C   0  0  0  0  0  0  0  0  0  0  0  0
    5.4232    0.2958    0.0000 C   0  0  0  0  0  0  0  0  0  0  0  0
    6.6567    1.1494    0.0000 C   0  0  0  0  0  0  0  0  0  0  0  0
    6.5342    2.6444    0.0000 C   0  0  0  0  0  0  0  0  0  0  0  0
    7.7676    3.4980    0.0000 O   0  0  0  0  0  0  0  0  0  0  0  0
    5.1782    3.2858    0.0000 C   0  0  0  0  0  0  0  0  0  0  0  0
    3.9448    2.4322    0.0000 C   0  0  0  0  0  0  0  0  0  0  0  0
    4.0673    0.9372    0.0000 C   0  0  0  0  0  0  0  0  0  0  0  0
    2.7113    1.5786    0.0000 C   0  0  0  0  0  0  0  0  0  0  0  0
    2.8338    0.0836    0.0000 C   0  0  0  0  0  0  0  0  0  0  0  0
    1.4779    0.7250    0.0000 C   0  0  0  0  0  0  0  0  0  0  0  0
    0.2444   -0.1285    0.0000 C   0  0  0  0  0  0  0  0  0  0  0  0
   -1.1115    0.5129    0.0000 O   0  0  0  0  0  0  0  0  0  0  0  0
    0.3669   -1.6235    0.0000 C   0  0  0  0  0  0  0  0  0  0  0  0
   -1.0486   -1.1274    0.0000 C   0  0  0  0  0  0  0  0  0  0  0  0
  2  1  1  6
  2  3  1  0
  3  4  1  0
  4  5  1  0
  5  6  2  0
  5  7  1  0
  7  8  1  0
  8  9  1  0
  9 10  2  0
  9 11  1  0
  2 12  1  0
 12 13  1  6
 13 14  1  0
 15 14  1  6
 15 16  1  0
 16 17  1  1
 17 18  1  0
 19 18  1  1
 19 20  1  0
 20 21  1  0
 21 22  1  1
 21 23  1  0
 23 24  1  0
 24 25  1  0
 25 26  1  6
 25 27  1  0
 27 28  1  6
 28 29  1  0
 29 30  1  1
 29 31  1  0
 31 32  1  6
 31 12  1  0
 31 15  1  0
 27 16  1  0
 25 19  1  0
M  END
>  <MS_ID>  (957) 
MS0996

>  <SMILES>  (957) 
C[C@H](CCC(=O)COC(=O)O)[C@H]1CC[C@H]2[C@@H]3CC[C@@H]4C[C@H](O)CC[C@]4(C)[C@H]3C[C@H](O)[C@]12C

>  <Structure_dimension>  (957) 
2D

$$$$
MS0997
     RDKit          2D

 34 38  0  0  0  0  0  0  0  0999 V2000
   -2.8489   -4.1271    0.0000 C   0  0  0  0  0  0  0  0  0  0  0  0
   -2.0902   -2.8331    0.0000 C   0  0  0  0  0  0  0  0  0  0  0  0
   -2.8315   -1.5291    0.0000 C   0  0  0  0  0  0  0  0  0  0  0  0
   -4.3315   -1.5191    0.0000 C   0  0  0  0  0  0  0  0  0  0  0  0
   -5.0728   -0.2151    0.0000 C   0  0  0  0  0  0  0  0  0  0  0  0
   -4.3141    1.0789    0.0000 O   0  0  0  0  0  0  0  0  0  0  0  0
   -6.5727   -0.2050    0.0000 C   0  0  0  0  0  0  0  0  0  0  0  0
   -7.3140    1.0990    0.0000 N   0  0  0  0  0  0  0  0  0  0  0  0
   -8.8047    1.2657    0.0000 C   0  0  0  0  0  0  0  0  0  0  0  0
   -9.1068    2.7350    0.0000 N   0  0  0  0  0  0  0  0  0  0  0  0
   -7.8028    3.4763    0.0000 C   0  0  0  0  0  0  0  0  0  0  0  0
   -6.6948    2.4652    0.0000 N   0  0  0  0  0  0  0  0  0  0  0  0
   -0.5902   -2.8432    0.0000 C   0  0  0  0  0  0  0  0  0  0  0  0
    0.2833   -4.0625    0.0000 C   0  0  0  0  0  0  0  0  0  0  0  0
    1.7130   -3.6086    0.0000 C   0  0  0  0  0  0  0  0  0  0  0  0
    1.7230   -2.1086    0.0000 C   0  0  0  0  0  0  0  0  0  0  0  0
    2.8444   -1.1124    0.0000 C   0  0  0  0  0  0  0  0  0  0  0  0
    4.2678   -1.5854    0.0000 C   0  0  0  0  0  0  0  0  0  0  0  0
    4.5699   -3.0547    0.0000 O   0  0  0  0  0  0  0  0  0  0  0  0
    5.3892   -0.5892    0.0000 C   0  0  0  0  0  0  0  0  0  0  0  0
    6.8127   -1.0622    0.0000 O   0  0  0  0  0  0  0  0  0  0  0  0
    5.0872    0.8801    0.0000 C   0  0  0  0  0  0  0  0  0  0  0  0
    6.2086    1.8763    0.0000 C   0  0  0  0  0  0  0  0  0  0  0  0
    5.9065    3.3456    0.0000 C   0  0  0  0  0  0  0  0  0  0  0  0
    7.0279    4.3418    0.0000 O   0  0  0  0  0  0  0  0  0  0  0  0
    4.4831    3.8186    0.0000 C   0  0  0  0  0  0  0  0  0  0  0  0
    3.3617    2.8224    0.0000 C   0  0  0  0  0  0  0  0  0  0  0  0
    3.6637    1.3531    0.0000 C   0  0  0  0  0  0  0  0  0  0  0  0
    2.2403    1.8262    0.0000 C   0  0  0  0  0  0  0  0  0  0  0  0
    2.5423    0.3569    0.0000 C   0  0  0  0  0  0  0  0  0  0  0  0
    1.1189    0.8299    0.0000 C   0  0  0  0  0  0  0  0  0  0  0  0
   -0.0025   -0.1663    0.0000 C   0  0  0  0  0  0  0  0  0  0  0  0
    0.2995   -1.6355    0.0000 C   0  0  0  0  0  0  0  0  0  0  0  0
   -1.1656   -1.3139    0.0000 C   0  0  0  0  0  0  0  0  0  0  0  0
  2  1  1  6
  2  3  1  0
  3  4  1  0
  4  5  1  0
  5  6  2  0
  5  7  1  0
  7  8  1  0
  8  9  1  0
  9 10  2  0
 10 11  1  0
 11 12  2  0
  2 13  1  0
 13 14  1  6
 14 15  1  0
 16 15  1  6
 16 17  1  0
 17 18  1  1
 18 19  1  1
 18 20  1  0
 20 21  1  1
 20 22  1  0
 22 23  1  1
 23 24  1  0
 24 25  1  1
 24 26  1  0
 26 27  1  0
 27 28  1  0
 28 29  1  6
 28 30  1  0
 30 31  1  6
 31 32  1  0
 32 33  1  0
 33 34  1  6
 12  8  1  0
 33 13  1  0
 33 16  1  0
 30 17  1  0
 28 22  1  0
M  END
>  <MS_ID>  (958) 
MS0997

>  <SMILES>  (958) 
C[C@H](CCC(=O)Cn1cncn1)[C@H]1CC[C@H]2[C@@H]3[C@H](O)[C@H](O)[C@@H]4C[C@H](O)CC[C@]4(C)[C@H]3CC[C@]12C

>  <Structure_dimension>  (958) 
2D

$$$$
MS0998
     RDKit          2D

 38 43  0  0  0  0  0  0  0  0999 V2000
   -1.7481   -3.9204    0.0000 C   0  0  0  0  0  0  0  0  0  0  0  0
   -0.9568   -2.6461    0.0000 C   0  0  0  0  0  0  0  0  0  0  0  0
   -1.6647   -1.3236    0.0000 C   0  0  0  0  0  0  0  0  0  0  0  0
   -3.1639   -1.2755    0.0000 C   0  0  0  0  0  0  0  0  0  0  0  0
   -3.8718    0.0470    0.0000 C   0  0  0  0  0  0  0  0  0  0  0  0
   -3.0805    1.3213    0.0000 O   0  0  0  0  0  0  0  0  0  0  0  0
   -5.3711    0.0951    0.0000 C   0  0  0  0  0  0  0  0  0  0  0  0
   -6.1624   -1.1792    0.0000 C   0  0  0  0  0  0  0  0  0  0  0  0
   -7.6616   -1.1310    0.0000 C   0  0  0  0  0  0  0  0  0  0  0  0
   -8.3695    0.1914    0.0000 C   0  0  0  0  0  0  0  0  0  0  0  0
   -9.8687    0.2396    0.0000 C   0  0  0  0  0  0  0  0  0  0  0  0
  -10.5767    1.5620    0.0000 C   0  0  0  0  0  0  0  0  0  0  0  0
   -9.7853    2.8363    0.0000 C   0  0  0  0  0  0  0  0  0  0  0  0
   -8.2861    2.7882    0.0000 C   0  0  0  0  0  0  0  0  0  0  0  0
   -7.5782    1.4657    0.0000 C   0  0  0  0  0  0  0  0  0  0  0  0
   -6.0790    1.4176    0.0000 C   0  0  0  0  0  0  0  0  0  0  0  0
    0.5424   -2.6942    0.0000 C   0  0  0  0  0  0  0  0  0  0  0  0
    1.3847   -3.9354    0.0000 C   0  0  0  0  0  0  0  0  0  0  0  0
    2.8254   -3.5179    0.0000 C   0  0  0  0  0  0  0  0  0  0  0  0
    2.8736   -2.0187    0.0000 C   0  0  0  0  0  0  0  0  0  0  0  0
    4.0199   -1.0513    0.0000 C   0  0  0  0  0  0  0  0  0  0  0  0
    5.4309   -1.5604    0.0000 C   0  0  0  0  0  0  0  0  0  0  0  0
    5.6955   -3.0369    0.0000 O   0  0  0  0  0  0  0  0  0  0  0  0
    6.5773   -0.5930    0.0000 C   0  0  0  0  0  0  0  0  0  0  0  0
    7.9883   -1.1021    0.0000 O   0  0  0  0  0  0  0  0  0  0  0  0
    6.3127    0.8835    0.0000 C   0  0  0  0  0  0  0  0  0  0  0  0
    7.4590    1.8509    0.0000 C   0  0  0  0  0  0  0  0  0  0  0  0
    7.1944    3.3273    0.0000 C   0  0  0  0  0  0  0  0  0  0  0  0
    8.3408    4.2947    0.0000 O   0  0  0  0  0  0  0  0  0  0  0  0
    5.7835    3.8364    0.0000 C   0  0  0  0  0  0  0  0  0  0  0  0
    4.6371    2.8690    0.0000 C   0  0  0  0  0  0  0  0  0  0  0  0
    4.9017    1.3925    0.0000 C   0  0  0  0  0  0  0  0  0  0  0  0
    3.4907    1.9016    0.0000 C   0  0  0  0  0  0  0  0  0  0  0  0
    3.7553    0.4251    0.0000 C   0  0  0  0  0  0  0  0  0  0  0  0
    2.3444    0.9342    0.0000 C   0  0  0  0  0  0  0  0  0  0  0  0
    1.1980   -0.0332    0.0000 C   0  0  0  0  0  0  0  0  0  0  0  0
    1.4626   -1.5096    0.0000 C   0  0  0  0  0  0  0  0  0  0  0  0
    0.0062   -1.1508    0.0000 C   0  0  0  0  0  0  0  0  0  0  0  0
  2  1  1  6
  2  3  1  0
  3  4  1  0
  4  5  1  0
  5  6  2  0
  5  7  1  0
  7  8  2  0
  8  9  1  0
  9 10  2  0
 10 11  1  0
 11 12  2  0
 12 13  1  0
 13 14  2  0
 14 15  1  0
 15 16  2  0
  2 17  1  0
 17 18  1  6
 18 19  1  0
 20 19  1  6
 20 21  1  0
 21 22  1  1
 22 23  1  1
 22 24  1  0
 24 25  1  1
 24 26  1  0
 26 27  1  1
 27 28  1  0
 28 29  1  1
 28 30  1  0
 30 31  1  0
 31 32  1  0
 32 33  1  6
 32 34  1  0
 34 35  1  6
 35 36  1  0
 36 37  1  0
 37 38  1  6
 16  7  1  0
 37 17  1  0
 15 10  1  0
 37 20  1  0
 34 21  1  0
 32 26  1  0
M  END
>  <MS_ID>  (959) 
MS0998

>  <SMILES>  (959) 
C[C@H](CCC(=O)c1ccc2ccccc2c1)[C@H]1CC[C@H]2[C@@H]3[C@H](O)[C@H](O)[C@@H]4C[C@H](O)CC[C@]4(C)[C@H]3CC[C@]12C

>  <Structure_dimension>  (959) 
2D

$$$$
MS0999
     RDKit          2D

 34 38  0  0  0  0  0  0  0  0999 V2000
   -3.2858   -3.3478    0.0000 C   0  0  0  0  0  0  0  0  0  0  0  0
   -2.3538   -2.1725    0.0000 C   0  0  0  0  0  0  0  0  0  0  0  0
   -2.9057   -0.7777    0.0000 C   0  0  0  0  0  0  0  0  0  0  0  0
   -4.3895   -0.5582    0.0000 C   0  0  0  0  0  0  0  0  0  0  0  0
   -4.9414    0.8366    0.0000 C   0  0  0  0  0  0  0  0  0  0  0  0
   -4.0094    2.0119    0.0000 O   0  0  0  0  0  0  0  0  0  0  0  0
   -6.4253    1.0561    0.0000 C   0  0  0  0  0  0  0  0  0  0  0  0
   -6.9771    2.4509    0.0000 C   0  0  0  0  0  0  0  0  0  0  0  0
   -8.4610    2.6704    0.0000 C   0  0  0  0  0  0  0  0  0  0  0  0
   -9.3930    1.4950    0.0000 N   0  0  0  0  0  0  0  0  0  0  0  0
   -8.8411    0.1002    0.0000 C   0  0  0  0  0  0  0  0  0  0  0  0
   -7.3573   -0.1192    0.0000 C   0  0  0  0  0  0  0  0  0  0  0  0
   -0.8700   -2.3919    0.0000 C   0  0  0  0  0  0  0  0  0  0  0  0
   -0.1754   -3.7214    0.0000 C   0  0  0  0  0  0  0  0  0  0  0  0
    1.3037   -3.4716    0.0000 C   0  0  0  0  0  0  0  0  0  0  0  0
    1.5232   -1.9878    0.0000 C   0  0  0  0  0  0  0  0  0  0  0  0
    2.7728   -1.1580    0.0000 C   0  0  0  0  0  0  0  0  0  0  0  0
    4.1162   -1.8252    0.0000 C   0  0  0  0  0  0  0  0  0  0  0  0
    4.2100   -3.3223    0.0000 O   0  0  0  0  0  0  0  0  0  0  0  0
    5.3657   -0.9955    0.0000 C   0  0  0  0  0  0  0  0  0  0  0  0
    6.7092   -1.6627    0.0000 O   0  0  0  0  0  0  0  0  0  0  0  0
    5.2719    0.5016    0.0000 C   0  0  0  0  0  0  0  0  0  0  0  0
    6.5215    1.3314    0.0000 C   0  0  0  0  0  0  0  0  0  0  0  0
    6.4277    2.8285    0.0000 C   0  0  0  0  0  0  0  0  0  0  0  0
    7.6772    3.6583    0.0000 O   0  0  0  0  0  0  0  0  0  0  0  0
    5.0843    3.4957    0.0000 C   0  0  0  0  0  0  0  0  0  0  0  0
    3.8347    2.6659    0.0000 C   0  0  0  0  0  0  0  0  0  0  0  0
    3.9285    1.1689    0.0000 C   0  0  0  0  0  0  0  0  0  0  0  0
    2.5851    1.8362    0.0000 C   0  0  0  0  0  0  0  0  0  0  0  0
    2.6789    0.3391    0.0000 C   0  0  0  0  0  0  0  0  0  0  0  0
    1.3355    1.0064    0.0000 C   0  0  0  0  0  0  0  0  0  0  0  0
    0.0859    0.1766    0.0000 C   0  0  0  0  0  0  0  0  0  0  0  0
    0.1798   -1.3205    0.0000 C   0  0  0  0  0  0  0  0  0  0  0  0
   -1.2260   -0.7973    0.0000 C   0  0  0  0  0  0  0  0  0  0  0  0
  2  1  1  6
  2  3  1  0
  3  4  1  0
  4  5  1  0
  5  6  2  0
  5  7  1  0
  7  8  2  0
  8  9  1  0
  9 10  2  0
 10 11  1  0
 11 12  2  0
  2 13  1  0
 13 14  1  6
 14 15  1  0
 16 15  1  6
 16 17  1  0
 17 18  1  1
 18 19  1  1
 18 20  1  0
 20 21  1  1
 20 22  1  0
 22 23  1  1
 23 24  1  0
 24 25  1  1
 24 26  1  0
 26 27  1  0
 27 28  1  0
 28 29  1  6
 28 30  1  0
 30 31  1  6
 31 32  1  0
 32 33  1  0
 33 34  1  6
 12  7  1  0
 33 13  1  0
 33 16  1  0
 30 17  1  0
 28 22  1  0
M  END
>  <MS_ID>  (960) 
MS0999

>  <SMILES>  (960) 
C[C@H](CCC(=O)c1ccncc1)[C@H]1CC[C@H]2[C@@H]3[C@H](O)[C@H](O)[C@@H]4C[C@H](O)CC[C@]4(C)[C@H]3CC[C@]12C

>  <Structure_dimension>  (960) 
2D

$$$$
MS1000
     RDKit          2D

 36 39  0  0  0  0  0  0  0  0999 V2000
   -2.8440   -4.0351    0.0000 C   0  0  0  0  0  0  0  0  0  0  0  0
   -1.9571   -2.8255    0.0000 C   0  0  0  0  0  0  0  0  0  0  0  0
   -2.5613   -1.4525    0.0000 C   0  0  0  0  0  0  0  0  0  0  0  0
   -4.0523   -1.2892    0.0000 C   0  0  0  0  0  0  0  0  0  0  0  0
   -4.6565    0.0837    0.0000 C   0  0  0  0  0  0  0  0  0  0  0  0
   -3.7696    1.2934    0.0000 O   0  0  0  0  0  0  0  0  0  0  0  0
   -6.1476    0.2470    0.0000 C   0  0  0  0  0  0  0  0  0  0  0  0
   -6.7517    1.6199    0.0000 C   0  0  0  0  0  0  0  0  0  0  0  0
   -8.2428    1.7832    0.0000 C   0  0  0  0  0  0  0  0  0  0  0  0
   -9.1298    0.5735    0.0000 O   0  0  0  0  0  0  0  0  0  0  0  0
   -8.8470    3.1562    0.0000 O   0  0  0  0  0  0  0  0  0  0  0  0
   -0.4660   -2.9887    0.0000 C   0  0  0  0  0  0  0  0  0  0  0  0
    0.2783   -4.2910    0.0000 C   0  0  0  0  0  0  0  0  0  0  0  0
    1.7469   -3.9855    0.0000 C   0  0  0  0  0  0  0  0  0  0  0  0
    1.9102   -2.4944    0.0000 C   0  0  0  0  0  0  0  0  0  0  0  0
    3.1275   -1.6180    0.0000 C   0  0  0  0  0  0  0  0  0  0  0  0
    4.4952   -2.2341    0.0000 C   0  0  0  0  0  0  0  0  0  0  0  0
    5.7125   -1.3577    0.0000 C   0  0  0  0  0  0  0  0  0  0  0  0
    5.5622    0.1348    0.0000 C   0  0  0  0  0  0  0  0  0  0  0  0
    6.7795    1.0112    0.0000 C   0  0  0  0  0  0  0  0  0  0  0  0
    6.6292    2.5036    0.0000 C   0  0  0  0  0  0  0  0  0  0  0  0
    7.8466    3.3800    0.0000 O   0  0  0  0  0  0  0  0  0  0  0  0
    5.2616    3.1197    0.0000 C   0  0  0  0  0  0  0  0  0  0  0  0
    4.0442    2.2433    0.0000 C   0  0  0  0  0  0  0  0  0  0  0  0
    4.1945    0.7508    0.0000 C   0  0  0  0  0  0  0  0  0  0  0  0
    2.8269    1.3669    0.0000 C   0  0  0  0  0  0  0  0  0  0  0  0
    2.9772   -0.1256    0.0000 C   0  0  0  0  0  0  0  0  0  0  0  0
    1.6095    0.4905    0.0000 C   0  0  0  0  0  0  0  0  0  0  0  0
    0.3922   -0.3859    0.0000 C   0  0  0  0  0  0  0  0  0  0  0  0
   -0.9755    0.2301    0.0000 O   0  0  0  0  0  0  0  0  0  0  0  0
   -1.1258    1.7226    0.0000 S   0  0  0  0  0  0  0  0  0  0  0  0
    0.3667    1.8729    0.0000 O   0  0  0  0  0  0  0  0  0  0  0  0
   -2.6182    1.5723    0.0000 O   0  0  0  0  0  0  0  0  0  0  0  0
   -1.2761    3.2150    0.0000 O   0  0  0  0  0  0  0  0  0  0  0  0
    0.5425   -1.8784    0.0000 C   0  0  0  0  0  0  0  0  0  0  0  0
   -0.8821   -1.4087    0.0000 C   0  0  0  0  0  0  0  0  0  0  0  0
  2  1  1  6
  2  3  1  0
  3  4  1  0
  4  5  1  0
  5  6  2  0
  5  7  1  0
  7  8  1  0
  8  9  1  0
  9 10  2  0
  9 11  1  0
  2 12  1  0
 12 13  1  6
 13 14  1  0
 15 14  1  6
 15 16  1  0
 16 17  1  1
 17 18  1  0
 19 18  1  1
 19 20  1  0
 20 21  1  0
 21 22  1  1
 21 23  1  0
 23 24  1  0
 24 25  1  0
 25 26  1  6
 25 27  1  0
 27 28  1  6
 28 29  1  0
 29 30  1  1
 30 31  1  0
 31 32  2  0
 31 33  2  0
 31 34  1  0
 29 35  1  0
 35 36  1  6
 35 12  1  0
 35 15  1  0
 27 16  1  0
 25 19  1  0
M  END
>  <MS_ID>  (961) 
MS1000

>  <SMILES>  (961) 
C[C@H](CCC(=O)CCC(=O)O)[C@H]1CC[C@H]2[C@@H]3CC[C@@H]4C[C@H](O)CC[C@]4(C)[C@H]3C[C@H](OS(=O)(=O)O)[C@]12C

>  <Structure_dimension>  (961) 
2D

$$$$
MS1001
     RDKit          2D

 31 34  0  0  0  0  0  0  0  0999 V2000
   -5.9226   -1.7341    0.0000 C   0  0  0  0  0  0  0  0  0  0  0  0
   -4.6300   -0.9732    0.0000 C   0  0  0  0  0  0  0  0  0  0  0  0
   -4.6426    0.5267    0.0000 C   0  0  0  0  0  0  0  0  0  0  0  0
   -5.9479    1.2657    0.0000 C   0  0  0  0  0  0  0  0  0  0  0  0
   -5.9606    2.7657    0.0000 C   0  0  0  0  0  0  0  0  0  0  0  0
   -4.6680    3.5266    0.0000 O   0  0  0  0  0  0  0  0  0  0  0  0
   -7.2659    3.5047    0.0000 O   0  0  0  0  0  0  0  0  0  0  0  0
   -3.3246   -1.7122    0.0000 C   0  0  0  0  0  0  0  0  0  0  0  0
   -3.1552   -3.2026    0.0000 C   0  0  0  0  0  0  0  0  0  0  0  0
   -1.6854   -3.5021    0.0000 C   0  0  0  0  0  0  0  0  0  0  0  0
   -0.9464   -2.1967    0.0000 C   0  0  0  0  0  0  0  0  0  0  0  0
    0.5181   -1.8725    0.0000 C   0  0  0  0  0  0  0  0  0  0  0  0
    1.5312   -2.9787    0.0000 C   0  0  0  0  0  0  0  0  0  0  0  0
    2.9957   -2.6545    0.0000 C   0  0  0  0  0  0  0  0  0  0  0  0
    3.4472   -1.2240    0.0000 C   0  0  0  0  0  0  0  0  0  0  0  0
    4.9117   -0.8998    0.0000 C   0  0  0  0  0  0  0  0  0  0  0  0
    5.3632    0.5307    0.0000 C   0  0  0  0  0  0  0  0  0  0  0  0
    6.6935   -0.1623    0.0000 O   0  0  0  0  0  0  0  0  0  0  0  0
    6.2766    1.7205    0.0000 C   0  0  0  0  0  0  0  0  0  0  0  0
    5.7030    3.1064    0.0000 O   0  0  0  0  0  0  0  0  0  0  0  0
    7.7638    1.5243    0.0000 O   0  0  0  0  0  0  0  0  0  0  0  0
    4.3501    1.6369    0.0000 C   0  0  0  0  0  0  0  0  0  0  0  0
    2.8856    1.3126    0.0000 C   0  0  0  0  0  0  0  0  0  0  0  0
    2.4341   -0.1178    0.0000 C   0  0  0  0  0  0  0  0  0  0  0  0
    1.4210    0.9884    0.0000 C   0  0  0  0  0  0  0  0  0  0  0  0
    0.9696   -0.4421    0.0000 C   0  0  0  0  0  0  0  0  0  0  0  0
   -0.0435    0.6641    0.0000 C   0  0  0  0  0  0  0  0  0  0  0  0
   -1.5080    0.3399    0.0000 C   0  0  0  0  0  0  0  0  0  0  0  0
   -2.5211    1.4461    0.0000 O   0  0  0  0  0  0  0  0  0  0  0  0
   -1.9595   -1.0905    0.0000 C   0  0  0  0  0  0  0  0  0  0  0  0
   -3.0827   -0.0963    0.0000 C   0  0  0  0  0  0  0  0  0  0  0  0
  2  1  1  6
  2  3  1  0
  3  4  1  0
  4  5  1  0
  5  6  2  0
  5  7  1  0
  2  8  1  0
  8  9  1  6
  9 10  1  0
 11 10  1  6
 11 12  1  0
 12 13  1  1
 13 14  1  0
 15 14  1  1
 15 16  1  0
 16 17  1  0
 17 18  1  1
 17 19  1  0
 19 20  2  0
 19 21  1  0
 17 22  1  0
 22 23  1  0
 23 24  1  0
 24 25  1  6
 24 26  1  0
 26 27  1  6
 27 28  1  0
 28 29  1  6
 28 30  1  0
 30 31  1  6
 30  8  1  0
 30 11  1  0
 26 12  1  0
 24 15  1  0
M  END
>  <MS_ID>  (962) 
MS1001

>  <SMILES>  (962) 
C[C@H](CCC(=O)O)[C@H]1CC[C@H]2[C@@H]3CC[C@@H]4C[C@@](O)(C(=O)O)CC[C@]4(C)[C@H]3C[C@@H](O)[C@]12C

>  <Structure_dimension>  (962) 
2D

$$$$
MS1002
     RDKit          2D

 40 44  0  0  0  0  0  0  0  0999 V2000
   -7.8928   -1.8910    0.0000 C   0  0  0  0  0  0  0  0  0  0  0  0
   -6.7129   -0.9649    0.0000 C   0  0  0  0  0  0  0  0  0  0  0  0
   -6.9249    0.5200    0.0000 C   0  0  0  0  0  0  0  0  0  0  0  0
   -8.3169    1.0788    0.0000 C   0  0  0  0  0  0  0  0  0  0  0  0
   -8.5290    2.5638    0.0000 C   0  0  0  0  0  0  0  0  0  0  0  0
   -7.3490    3.4899    0.0000 O   0  0  0  0  0  0  0  0  0  0  0  0
   -9.9210    3.1226    0.0000 O   0  0  0  0  0  0  0  0  0  0  0  0
   -5.3209   -1.5238    0.0000 C   0  0  0  0  0  0  0  0  0  0  0  0
   -4.9547   -2.9784    0.0000 C   0  0  0  0  0  0  0  0  0  0  0  0
   -3.4582   -3.0797    0.0000 C   0  0  0  0  0  0  0  0  0  0  0  0
   -2.8993   -1.6877    0.0000 C   0  0  0  0  0  0  0  0  0  0  0  0
   -1.4909   -1.1716    0.0000 C   0  0  0  0  0  0  0  0  0  0  0  0
   -0.3397   -2.1332    0.0000 C   0  0  0  0  0  0  0  0  0  0  0  0
   -0.5969   -3.6110    0.0000 C   0  0  0  0  0  0  0  0  0  0  0  0
    0.5542   -4.5726    0.0000 O   0  0  0  0  0  0  0  0  0  0  0  0
    1.0687   -1.6170    0.0000 C   0  0  0  0  0  0  0  0  0  0  0  0
    1.3259   -0.1393    0.0000 C   0  0  0  0  0  0  0  0  0  0  0  0
    2.7343    0.3769    0.0000 C   0  0  0  0  0  0  0  0  0  0  0  0
    2.9915    1.8547    0.0000 C   0  0  0  0  0  0  0  0  0  0  0  0
    4.3999    2.3708    0.0000 O   0  0  0  0  0  0  0  0  0  0  0  0
    5.5511    1.4092    0.0000 C   0  0  0  0  0  0  0  0  0  0  0  0
    5.2939   -0.0686    0.0000 O   0  0  0  0  0  0  0  0  0  0  0  0
    6.4451   -1.0302    0.0000 C   0  0  0  0  0  0  0  0  0  0  0  0
    6.1879   -2.5080    0.0000 C   0  0  0  0  0  0  0  0  0  0  0  0
    4.7795   -3.0242    0.0000 O   0  0  0  0  0  0  0  0  0  0  0  0
    7.8535   -0.5141    0.0000 C   0  0  0  0  0  0  0  0  0  0  0  0
    9.0047   -1.4757    0.0000 O   0  0  0  0  0  0  0  0  0  0  0  0
    8.1107    0.9637    0.0000 C   0  0  0  0  0  0  0  0  0  0  0  0
    9.5191    1.4798    0.0000 O   0  0  0  0  0  0  0  0  0  0  0  0
    6.9595    1.9253    0.0000 C   0  0  0  0  0  0  0  0  0  0  0  0
    7.2167    3.4031    0.0000 O   0  0  0  0  0  0  0  0  0  0  0  0
    1.8403    2.8163    0.0000 C   0  0  0  0  0  0  0  0  0  0  0  0
    0.4319    2.3002    0.0000 C   0  0  0  0  0  0  0  0  0  0  0  0
    0.1747    0.8224    0.0000 C   0  0  0  0  0  0  0  0  0  0  0  0
   -0.9765    1.7840    0.0000 C   0  0  0  0  0  0  0  0  0  0  0  0
   -1.2337    0.3062    0.0000 C   0  0  0  0  0  0  0  0  0  0  0  0
   -2.3849    1.2679    0.0000 C   0  0  0  0  0  0  0  0  0  0  0  0
   -3.7933    0.7517    0.0000 C   0  0  0  0  0  0  0  0  0  0  0  0
   -4.0505   -0.7261    0.0000 C   0  0  0  0  0  0  0  0  0  0  0  0
   -5.2960    0.1100    0.0000 C   0  0  0  0  0  0  0  0  0  0  0  0
  2  1  1  6
  2  3  1  0
  3  4  1  0
  4  5  1  0
  5  6  2  0
  5  7  1  0
  2  8  1  0
  8  9  1  6
  9 10  1  0
 11 10  1  6
 11 12  1  0
 12 13  1  1
 13 14  1  6
 14 15  1  0
 13 16  1  0
 17 16  1  1
 17 18  1  0
 18 19  1  0
 19 20  1  1
 21 20  1  1
 21 22  1  0
 22 23  1  0
 23 24  1  1
 24 25  1  0
 23 26  1  0
 26 27  1  6
 26 28  1  0
 28 29  1  1
 28 30  1  0
 30 31  1  6
 19 32  1  0
 32 33  1  0
 33 34  1  0
 34 35  1  6
 34 36  1  0
 36 37  1  6
 37 38  1  0
 38 39  1  0
 39 40  1  6
 39  8  1  0
 39 11  1  0
 36 12  1  0
 34 17  1  0
 30 21  1  0
M  END
>  <MS_ID>  (963) 
MS1002

>  <SMILES>  (963) 
C[C@H](CCC(=O)O)[C@H]1CC[C@H]2[C@@H]3[C@@H](CO)C[C@@H]4C[C@H](O[C@@H]5O[C@H](CO)[C@@H](O)[C@H](O)[C@H]5O)CC[C@]4(C)[C@H]3CC[C@]12C

>  <Structure_dimension>  (963) 
2D

$$$$
MS1004
     RDKit          2D

 28 31  0  0  0  0  0  0  0  0999 V2000
   -5.1275   -2.0302    0.0000 C   0  0  0  0  0  0  0  0  0  0  0  0
   -3.9468   -1.1050    0.0000 C   0  0  0  0  0  0  0  0  0  0  0  0
   -4.1576    0.3801    0.0000 C   0  0  0  0  0  0  0  0  0  0  0  0
   -5.5492    0.9401    0.0000 C   0  0  0  0  0  0  0  0  0  0  0  0
   -5.7600    2.4252    0.0000 C   0  0  0  0  0  0  0  0  0  0  0  0
   -7.1516    2.9851    0.0000 N   0  0  0  0  0  0  0  0  0  0  0  0
   -4.5793    3.3503    0.0000 O   0  0  0  0  0  0  0  0  0  0  0  0
   -2.5552   -1.6650    0.0000 C   0  0  0  0  0  0  0  0  0  0  0  0
   -2.1903   -3.1199    0.0000 C   0  0  0  0  0  0  0  0  0  0  0  0
   -0.6938   -3.2225    0.0000 C   0  0  0  0  0  0  0  0  0  0  0  0
   -0.1339   -1.8309    0.0000 C   0  0  0  0  0  0  0  0  0  0  0  0
    1.2750   -1.3159    0.0000 C   0  0  0  0  0  0  0  0  0  0  0  0
    2.4254   -2.2785    0.0000 C   0  0  0  0  0  0  0  0  0  0  0  0
    2.1670   -3.7560    0.0000 O   0  0  0  0  0  0  0  0  0  0  0  0
    3.8342   -1.7635    0.0000 C   0  0  0  0  0  0  0  0  0  0  0  0
    4.0926   -0.2859    0.0000 C   0  0  0  0  0  0  0  0  0  0  0  0
    5.5014    0.2291    0.0000 C   0  0  0  0  0  0  0  0  0  0  0  0
    5.7598    1.7067    0.0000 C   0  0  0  0  0  0  0  0  0  0  0  0
    7.1687    2.2217    0.0000 O   0  0  0  0  0  0  0  0  0  0  0  0
    4.6094    2.6692    0.0000 C   0  0  0  0  0  0  0  0  0  0  0  0
    3.2006    2.1542    0.0000 C   0  0  0  0  0  0  0  0  0  0  0  0
    2.9422    0.6767    0.0000 C   0  0  0  0  0  0  0  0  0  0  0  0
    1.7918    1.6392    0.0000 C   0  0  0  0  0  0  0  0  0  0  0  0
    1.5334    0.1617    0.0000 C   0  0  0  0  0  0  0  0  0  0  0  0
    0.3830    1.1242    0.0000 C   0  0  0  0  0  0  0  0  0  0  0  0
   -1.0259    0.6093    0.0000 C   0  0  0  0  0  0  0  0  0  0  0  0
   -1.2843   -0.8683    0.0000 C   0  0  0  0  0  0  0  0  0  0  0  0
   -2.5290   -0.0313    0.0000 C   0  0  0  0  0  0  0  0  0  0  0  0
  2  1  1  6
  2  3  1  0
  3  4  1  0
  4  5  1  0
  5  6  1  0
  5  7  2  0
  2  8  1  0
  8  9  1  6
  9 10  1  0
 11 10  1  6
 11 12  1  0
 12 13  1  1
 13 14  1  1
 13 15  1  0
 16 15  1  1
 16 17  1  0
 17 18  1  0
 18 19  1  1
 18 20  1  0
 20 21  1  0
 21 22  1  0
 22 23  1  6
 22 24  1  0
 24 25  1  6
 25 26  1  0
 26 27  1  0
 27 28  1  6
 27  8  1  0
 27 11  1  0
 24 12  1  0
 22 16  1  0
M  END
>  <MS_ID>  (964) 
MS1004

>  <SMILES>  (964) 
C[C@H](CCC(N)=O)[C@H]1CC[C@H]2[C@@H]3[C@H](O)C[C@@H]4C[C@H](O)CC[C@]4(C)[C@H]3CC[C@]12C

>  <Structure_dimension>  (964) 
2D

$$$$
MS1005
     RDKit          2D

 40 45  0  0  0  0  0  0  0  0999 V2000
   -1.1162   -3.9343    0.0000 C   0  0  0  0  0  0  0  0  0  0  0  0
   -0.3212   -2.6623    0.0000 C   0  0  0  0  0  0  0  0  0  0  0  0
   -1.0253   -1.3378    0.0000 C   0  0  0  0  0  0  0  0  0  0  0  0
   -2.5244   -1.2853    0.0000 C   0  0  0  0  0  0  0  0  0  0  0  0
   -3.2285    0.0392    0.0000 C   0  0  0  0  0  0  0  0  0  0  0  0
   -2.4334    1.3112    0.0000 O   0  0  0  0  0  0  0  0  0  0  0  0
   -4.7275    0.0917    0.0000 C   0  0  0  0  0  0  0  0  0  0  0  0
   -5.4316    1.4161    0.0000 C   0  0  0  0  0  0  0  0  0  0  0  0
   -6.9307    1.4686    0.0000 C   0  0  0  0  0  0  0  0  0  0  0  0
   -7.6348    2.7931    0.0000 C   0  0  0  0  0  0  0  0  0  0  0  0
   -9.1338    2.8456    0.0000 C   0  0  0  0  0  0  0  0  0  0  0  0
   -9.9289    1.5736    0.0000 C   0  0  0  0  0  0  0  0  0  0  0  0
  -11.4279    1.6261    0.0000 O   0  0  0  0  0  0  0  0  0  0  0  0
   -9.2248    0.2492    0.0000 C   0  0  0  0  0  0  0  0  0  0  0  0
   -7.7257    0.1967    0.0000 C   0  0  0  0  0  0  0  0  0  0  0  0
   -7.0216   -1.1278    0.0000 O   0  0  0  0  0  0  0  0  0  0  0  0
   -5.5225   -1.1803    0.0000 C   0  0  0  0  0  0  0  0  0  0  0  0
   -4.8185   -2.5048    0.0000 O   0  0  0  0  0  0  0  0  0  0  0  0
    1.1779   -2.7148    0.0000 C   0  0  0  0  0  0  0  0  0  0  0  0
    2.0165   -3.9585    0.0000 C   0  0  0  0  0  0  0  0  0  0  0  0
    3.4585   -3.5452    0.0000 C   0  0  0  0  0  0  0  0  0  0  0  0
    3.5110   -2.0461    0.0000 C   0  0  0  0  0  0  0  0  0  0  0  0
    4.6601   -1.0820    0.0000 C   0  0  0  0  0  0  0  0  0  0  0  0
    6.0696   -1.5952    0.0000 C   0  0  0  0  0  0  0  0  0  0  0  0
    6.3299   -3.0724    0.0000 O   0  0  0  0  0  0  0  0  0  0  0  0
    7.2188   -0.6311    0.0000 C   0  0  0  0  0  0  0  0  0  0  0  0
    6.9584    0.8461    0.0000 C   0  0  0  0  0  0  0  0  0  0  0  0
    8.1076    1.8102    0.0000 C   0  0  0  0  0  0  0  0  0  0  0  0
    7.8473    3.2874    0.0000 C   0  0  0  0  0  0  0  0  0  0  0  0
    8.9964    4.2515    0.0000 O   0  0  0  0  0  0  0  0  0  0  0  0
    6.4378    3.8006    0.0000 C   0  0  0  0  0  0  0  0  0  0  0  0
    5.2886    2.8365    0.0000 C   0  0  0  0  0  0  0  0  0  0  0  0
    5.5490    1.3593    0.0000 C   0  0  0  0  0  0  0  0  0  0  0  0
    4.1395    1.8725    0.0000 C   0  0  0  0  0  0  0  0  0  0  0  0
    4.3998    0.3952    0.0000 C   0  0  0  0  0  0  0  0  0  0  0  0
    2.9903    0.9084    0.0000 C   0  0  0  0  0  0  0  0  0  0  0  0
    1.8411   -0.0557    0.0000 C   0  0  0  0  0  0  0  0  0  0  0  0
    0.4317    0.4575    0.0000 O   0  0  0  0  0  0  0  0  0  0  0  0
    2.1015   -1.5329    0.0000 C   0  0  0  0  0  0  0  0  0  0  0  0
    0.6461   -1.1699    0.0000 C   0  0  0  0  0  0  0  0  0  0  0  0
  2  1  1  6
  2  3  1  0
  3  4  1  0
  4  5  1  0
  5  6  2  0
  5  7  1  0
  7  8  2  0
  8  9  1  0
  9 10  2  0
 10 11  1  0
 11 12  2  0
 12 13  1  0
 12 14  1  0
 14 15  2  0
 15 16  1  0
 16 17  1  0
 17 18  2  0
  2 19  1  0
 19 20  1  6
 20 21  1  0
 22 21  1  6
 22 23  1  0
 23 24  1  1
 24 25  1  1
 24 26  1  0
 27 26  1  1
 27 28  1  0
 28 29  1  0
 29 30  1  1
 29 31  1  0
 31 32  1  0
 32 33  1  0
 33 34  1  6
 33 35  1  0
 35 36  1  6
 36 37  1  0
 37 38  1  1
 37 39  1  0
 39 40  1  6
 17  7  1  0
 39 19  1  0
 15  9  1  0
 39 22  1  0
 35 23  1  0
 33 27  1  0
M  END
>  <MS_ID>  (965) 
MS1005

>  <SMILES>  (965) 
C[C@H](CCC(=O)c1cc2ccc(O)cc2oc1=O)[C@H]1CC[C@H]2[C@@H]3[C@H](O)C[C@@H]4C[C@H](O)CC[C@]4(C)[C@H]3C[C@H](O)[C@]12C

>  <Structure_dimension>  (965) 
2D

$$$$
MS1006
     RDKit          2D

 36 39  0  0  0  0  0  0  0  0999 V2000
   -1.8010   -4.2744    0.0000 C   0  0  0  0  0  0  0  0  0  0  0  0
   -1.0811   -2.9584    0.0000 C   0  0  0  0  0  0  0  0  0  0  0  0
   -1.8609   -1.6770    0.0000 C   0  0  0  0  0  0  0  0  0  0  0  0
   -3.3605   -1.7115    0.0000 C   0  0  0  0  0  0  0  0  0  0  0  0
   -4.1402   -0.4301    0.0000 C   0  0  0  0  0  0  0  0  0  0  0  0
   -3.4203    0.8858    0.0000 O   0  0  0  0  0  0  0  0  0  0  0  0
   -5.6398   -0.4647    0.0000 C   0  0  0  0  0  0  0  0  0  0  0  0
   -6.4195    0.8168    0.0000 O   0  0  0  0  0  0  0  0  0  0  0  0
   -7.9191    0.7822    0.0000 C   0  0  0  0  0  0  0  0  0  0  0  0
   -8.6390   -0.5338    0.0000 O   0  0  0  0  0  0  0  0  0  0  0  0
   -8.6988    2.0636    0.0000 C   0  0  0  0  0  0  0  0  0  0  0  0
   -7.4174    2.8433    0.0000 C   0  0  0  0  0  0  0  0  0  0  0  0
   -9.9802    1.2839    0.0000 C   0  0  0  0  0  0  0  0  0  0  0  0
   -9.4785    3.3450    0.0000 O   0  0  0  0  0  0  0  0  0  0  0  0
    0.4185   -2.9239    0.0000 C   0  0  0  0  0  0  0  0  0  0  0  0
    1.3278   -4.1168    0.0000 C   0  0  0  0  0  0  0  0  0  0  0  0
    2.7434   -3.6205    0.0000 C   0  0  0  0  0  0  0  0  0  0  0  0
    2.7088   -2.1209    0.0000 C   0  0  0  0  0  0  0  0  0  0  0  0
    3.8001   -1.0918    0.0000 C   0  0  0  0  0  0  0  0  0  0  0  0
    5.2370   -1.5224    0.0000 C   0  0  0  0  0  0  0  0  0  0  0  0
    5.5826   -2.9820    0.0000 O   0  0  0  0  0  0  0  0  0  0  0  0
    6.3283   -0.4933    0.0000 C   0  0  0  0  0  0  0  0  0  0  0  0
    5.9828    0.9664    0.0000 C   0  0  0  0  0  0  0  0  0  0  0  0
    7.0741    1.9955    0.0000 C   0  0  0  0  0  0  0  0  0  0  0  0
    6.7285    3.4551    0.0000 C   0  0  0  0  0  0  0  0  0  0  0  0
    7.8198    4.4843    0.0000 O   0  0  0  0  0  0  0  0  0  0  0  0
    5.2916    3.8857    0.0000 C   0  0  0  0  0  0  0  0  0  0  0  0
    4.2003    2.8566    0.0000 C   0  0  0  0  0  0  0  0  0  0  0  0
    4.5459    1.3969    0.0000 C   0  0  0  0  0  0  0  0  0  0  0  0
    3.1090    1.8275    0.0000 C   0  0  0  0  0  0  0  0  0  0  0  0
    3.4546    0.3678    0.0000 C   0  0  0  0  0  0  0  0  0  0  0  0
    2.0177    0.7984    0.0000 C   0  0  0  0  0  0  0  0  0  0  0  0
    0.9264   -0.2307    0.0000 C   0  0  0  0  0  0  0  0  0  0  0  0
   -0.5105    0.1998    0.0000 O   0  0  0  0  0  0  0  0  0  0  0  0
    1.2720   -1.6904    0.0000 C   0  0  0  0  0  0  0  0  0  0  0  0
   -0.2021   -1.4124    0.0000 C   0  0  0  0  0  0  0  0  0  0  0  0
  2  1  1  6
  2  3  1  0
  3  4  1  0
  4  5  1  0
  5  6  2  0
  5  7  1  0
  7  8  1  0
  8  9  1  0
  9 10  2  0
  9 11  1  0
 11 12  1  0
 11 13  1  0
 11 14  1  0
  2 15  1  0
 15 16  1  6
 16 17  1  0
 18 17  1  6
 18 19  1  0
 19 20  1  1
 20 21  1  1
 20 22  1  0
 23 22  1  1
 23 24  1  0
 24 25  1  0
 25 26  1  1
 25 27  1  0
 27 28  1  0
 28 29  1  0
 29 30  1  6
 29 31  1  0
 31 32  1  6
 32 33  1  0
 33 34  1  1
 33 35  1  0
 35 36  1  6
 35 15  1  0
 35 18  1  0
 31 19  1  0
 29 23  1  0
M  END
>  <MS_ID>  (966) 
MS1006

>  <SMILES>  (966) 
C[C@H](CCC(=O)COC(=O)C(C)(C)O)[C@H]1CC[C@H]2[C@@H]3[C@H](O)C[C@@H]4C[C@H](O)CC[C@]4(C)[C@H]3C[C@H](O)[C@]12C

>  <Structure_dimension>  (966) 
2D

$$$$
MS1007
     RDKit          2D

 34 37  0  0  0  0  0  0  0  0999 V2000
   -8.1425    4.0781    0.0000 C   0  0  0  0  0  0  0  0  0  0  0  0
   -7.9144    2.5955    0.0000 O   0  0  0  0  0  0  0  0  0  0  0  0
   -6.5164    2.0518    0.0000 C   0  0  0  0  0  0  0  0  0  0  0  0
   -5.3465    2.9907    0.0000 O   0  0  0  0  0  0  0  0  0  0  0  0
   -6.2882    0.5693    0.0000 C   0  0  0  0  0  0  0  0  0  0  0  0
   -4.8903    0.0256    0.0000 C   0  0  0  0  0  0  0  0  0  0  0  0
   -4.6621   -1.4570    0.0000 C   0  0  0  0  0  0  0  0  0  0  0  0
   -5.8320   -2.3958    0.0000 C   0  0  0  0  0  0  0  0  0  0  0  0
   -3.2641   -2.0007    0.0000 C   0  0  0  0  0  0  0  0  0  0  0  0
   -2.8823   -3.4513    0.0000 C   0  0  0  0  0  0  0  0  0  0  0  0
   -1.3847   -3.5364    0.0000 C   0  0  0  0  0  0  0  0  0  0  0  0
   -0.8410   -2.1384    0.0000 C   0  0  0  0  0  0  0  0  0  0  0  0
    0.5617   -1.6070    0.0000 C   0  0  0  0  0  0  0  0  0  0  0  0
    1.7233   -2.5561    0.0000 C   0  0  0  0  0  0  0  0  0  0  0  0
    1.4821   -4.0366    0.0000 O   0  0  0  0  0  0  0  0  0  0  0  0
    3.1260   -2.0247    0.0000 C   0  0  0  0  0  0  0  0  0  0  0  0
    3.3672   -0.5442    0.0000 C   0  0  0  0  0  0  0  0  0  0  0  0
    4.7699   -0.0128    0.0000 C   0  0  0  0  0  0  0  0  0  0  0  0
    5.0111    1.4677    0.0000 C   0  0  0  0  0  0  0  0  0  0  0  0
    6.4138    1.9990    0.0000 O   0  0  0  0  0  0  0  0  0  0  0  0
    7.5753    1.0499    0.0000 S   0  0  0  0  0  0  0  0  0  0  0  0
    6.6262   -0.1116    0.0000 O   0  0  0  0  0  0  0  0  0  0  0  0
    8.5244    2.2115    0.0000 O   0  0  0  0  0  0  0  0  0  0  0  0
    8.7369    0.1008    0.0000 O   0  0  0  0  0  0  0  0  0  0  0  0
    3.8495    2.4168    0.0000 C   0  0  0  0  0  0  0  0  0  0  0  0
    2.4468    1.8854    0.0000 C   0  0  0  0  0  0  0  0  0  0  0  0
    2.2056    0.4049    0.0000 C   0  0  0  0  0  0  0  0  0  0  0  0
    1.0441    1.3540    0.0000 C   0  0  0  0  0  0  0  0  0  0  0  0
    0.8029   -0.1265    0.0000 C   0  0  0  0  0  0  0  0  0  0  0  0
   -0.3587    0.8226    0.0000 C   0  0  0  0  0  0  0  0  0  0  0  0
   -1.7614    0.2912    0.0000 C   0  0  0  0  0  0  0  0  0  0  0  0
   -2.9229    1.2403    0.0000 O   0  0  0  0  0  0  0  0  0  0  0  0
   -2.0025   -1.1893    0.0000 C   0  0  0  0  0  0  0  0  0  0  0  0
   -3.2569   -0.3668    0.0000 C   0  0  0  0  0  0  0  0  0  0  0  0
  1  2  1  0
  2  3  1  0
  3  4  2  0
  3  5  1  0
  5  6  1  0
  6  7  1  0
  7  8  1  6
  7  9  1  0
  9 10  1  6
 10 11  1  0
 12 11  1  6
 12 13  1  0
 13 14  1  1
 14 15  1  1
 14 16  1  0
 17 16  1  1
 17 18  1  0
 18 19  1  0
 19 20  1  1
 20 21  1  0
 21 22  2  0
 21 23  2  0
 21 24  1  0
 19 25  1  0
 25 26  1  0
 26 27  1  0
 27 28  1  6
 27 29  1  0
 29 30  1  6
 30 31  1  0
 31 32  1  1
 31 33  1  0
 33 34  1  6
 33  9  1  0
 33 12  1  0
 29 13  1  0
 27 17  1  0
M  END
>  <MS_ID>  (967) 
MS1007

>  <SMILES>  (967) 
COC(=O)CC[C@@H](C)[C@H]1CC[C@H]2[C@@H]3[C@H](O)C[C@@H]4C[C@H](OS(=O)(=O)O)CC[C@]4(C)[C@H]3C[C@H](O)[C@]12C

>  <Structure_dimension>  (967) 
2D

$$$$
MS1008
     RDKit          2D

 30 33  0  0  0  0  0  0  0  0999 V2000
   -8.9136    3.2062    0.0000 C   0  0  0  0  0  0  0  0  0  0  0  0
   -7.4457    2.8978    0.0000 O   0  0  0  0  0  0  0  0  0  0  0  0
   -6.9787    1.4724    0.0000 C   0  0  0  0  0  0  0  0  0  0  0  0
   -5.5108    1.1640    0.0000 C   0  0  0  0  0  0  0  0  0  0  0  0
   -4.5097    2.2811    0.0000 O   0  0  0  0  0  0  0  0  0  0  0  0
   -5.0438   -0.2615    0.0000 C   0  0  0  0  0  0  0  0  0  0  0  0
   -3.5759   -0.5698    0.0000 C   0  0  0  0  0  0  0  0  0  0  0  0
   -3.1089   -1.9953    0.0000 C   0  0  0  0  0  0  0  0  0  0  0  0
   -4.1099   -3.1124    0.0000 C   0  0  0  0  0  0  0  0  0  0  0  0
   -1.6409   -2.3036    0.0000 C   0  0  0  0  0  0  0  0  0  0  0  0
   -1.0276   -3.6725    0.0000 C   0  0  0  0  0  0  0  0  0  0  0  0
    0.4638   -3.5121    0.0000 C   0  0  0  0  0  0  0  0  0  0  0  0
    0.7722   -2.0441    0.0000 C   0  0  0  0  0  0  0  0  0  0  0  0
    2.0694   -1.2910    0.0000 C   0  0  0  0  0  0  0  0  0  0  0  0
    3.3703   -2.0379    0.0000 C   0  0  0  0  0  0  0  0  0  0  0  0
    3.3739   -3.5379    0.0000 O   0  0  0  0  0  0  0  0  0  0  0  0
    4.6675   -1.2848    0.0000 C   0  0  0  0  0  0  0  0  0  0  0  0
    4.6639    0.2152    0.0000 C   0  0  0  0  0  0  0  0  0  0  0  0
    5.9611    0.9683    0.0000 C   0  0  0  0  0  0  0  0  0  0  0  0
    5.9575    2.4683    0.0000 C   0  0  0  0  0  0  0  0  0  0  0  0
    7.2548    3.2214    0.0000 O   0  0  0  0  0  0  0  0  0  0  0  0
    4.6567    3.2152    0.0000 C   0  0  0  0  0  0  0  0  0  0  0  0
    3.3595    2.4621    0.0000 C   0  0  0  0  0  0  0  0  0  0  0  0
    3.3631    0.9621    0.0000 C   0  0  0  0  0  0  0  0  0  0  0  0
    2.0622    1.7090    0.0000 C   0  0  0  0  0  0  0  0  0  0  0  0
    2.0658    0.2090    0.0000 C   0  0  0  0  0  0  0  0  0  0  0  0
    0.7650    0.9559    0.0000 C   0  0  0  0  0  0  0  0  0  0  0  0
   -0.5322    0.2027    0.0000 C   0  0  0  0  0  0  0  0  0  0  0  0
   -0.5286   -1.2973    0.0000 C   0  0  0  0  0  0  0  0  0  0  0  0
   -1.9004   -0.6904    0.0000 C   0  0  0  0  0  0  0  0  0  0  0  0
  1  2  1  0
  2  3  1  0
  3  4  1  0
  4  5  2  0
  4  6  1  0
  6  7  1  0
  7  8  1  0
  8  9  1  6
  8 10  1  0
 10 11  1  6
 11 12  1  0
 13 12  1  6
 13 14  1  0
 14 15  1  1
 15 16  1  1
 15 17  1  0
 18 17  1  1
 18 19  1  0
 19 20  1  0
 20 21  1  1
 20 22  1  0
 22 23  1  0
 23 24  1  0
 24 25  1  6
 24 26  1  0
 26 27  1  6
 27 28  1  0
 28 29  1  0
 29 30  1  6
 29 10  1  0
 29 13  1  0
 26 14  1  0
 24 18  1  0
M  END
>  <MS_ID>  (968) 
MS1008

>  <SMILES>  (968) 
COCC(=O)CC[C@@H](C)[C@H]1CC[C@H]2[C@@H]3[C@H](O)C[C@@H]4C[C@H](O)CC[C@]4(C)[C@H]3CC[C@]12C

>  <Structure_dimension>  (968) 
2D

$$$$
MS1009
     RDKit          2D

 33 36  0  0  0  0  0  0  0  0999 V2000
   -3.0978   -3.6919    0.0000 C   0  0  0  0  0  0  0  0  0  0  0  0
   -2.2201   -2.4755    0.0000 C   0  0  0  0  0  0  0  0  0  0  0  0
   -2.8347   -1.1072    0.0000 C   0  0  0  0  0  0  0  0  0  0  0  0
   -4.3270   -0.9552    0.0000 C   0  0  0  0  0  0  0  0  0  0  0  0
   -4.9416    0.4131    0.0000 C   0  0  0  0  0  0  0  0  0  0  0  0
   -4.0639    1.6295    0.0000 O   0  0  0  0  0  0  0  0  0  0  0  0
   -6.4339    0.5650    0.0000 C   0  0  0  0  0  0  0  0  0  0  0  0
   -7.0484    1.9333    0.0000 C   0  0  0  0  0  0  0  0  0  0  0  0
   -8.5407    2.0852    0.0000 C   0  0  0  0  0  0  0  0  0  0  0  0
   -9.4184    0.8688    0.0000 O   0  0  0  0  0  0  0  0  0  0  0  0
   -9.1553    3.4535    0.0000 O   0  0  0  0  0  0  0  0  0  0  0  0
   -0.7278   -2.6274    0.0000 C   0  0  0  0  0  0  0  0  0  0  0  0
    0.0264   -3.9240    0.0000 C   0  0  0  0  0  0  0  0  0  0  0  0
    1.4926   -3.6073    0.0000 C   0  0  0  0  0  0  0  0  0  0  0  0
    1.6445   -2.1150    0.0000 C   0  0  0  0  0  0  0  0  0  0  0  0
    2.8552   -1.2294    0.0000 C   0  0  0  0  0  0  0  0  0  0  0  0
    4.2275   -1.8350    0.0000 C   0  0  0  0  0  0  0  0  0  0  0  0
    4.3891   -3.3263    0.0000 O   0  0  0  0  0  0  0  0  0  0  0  0
    5.4381   -0.9494    0.0000 C   0  0  0  0  0  0  0  0  0  0  0  0
    5.2764    0.5419    0.0000 C   0  0  0  0  0  0  0  0  0  0  0  0
    6.4871    1.4275    0.0000 C   0  0  0  0  0  0  0  0  0  0  0  0
    6.3254    2.9188    0.0000 C   0  0  0  0  0  0  0  0  0  0  0  0
    7.5360    3.8044    0.0000 O   0  0  0  0  0  0  0  0  0  0  0  0
    4.9531    3.5244    0.0000 C   0  0  0  0  0  0  0  0  0  0  0  0
    3.7425    2.6388    0.0000 C   0  0  0  0  0  0  0  0  0  0  0  0
    3.9041    1.1475    0.0000 C   0  0  0  0  0  0  0  0  0  0  0  0
    2.5318    1.7531    0.0000 C   0  0  0  0  0  0  0  0  0  0  0  0
    2.6935    0.2619    0.0000 C   0  0  0  0  0  0  0  0  0  0  0  0
    1.3212    0.8675    0.0000 C   0  0  0  0  0  0  0  0  0  0  0  0
    0.1105   -0.0181    0.0000 C   0  0  0  0  0  0  0  0  0  0  0  0
   -1.2618    0.5875    0.0000 O   0  0  0  0  0  0  0  0  0  0  0  0
    0.2722   -1.5094    0.0000 C   0  0  0  0  0  0  0  0  0  0  0  0
   -1.1559   -1.0505    0.0000 C   0  0  0  0  0  0  0  0  0  0  0  0
  2  1  1  6
  2  3  1  0
  3  4  1  0
  4  5  1  0
  5  6  2  0
  5  7  1  0
  7  8  1  0
  8  9  1  0
  9 10  2  0
  9 11  1  0
  2 12  1  0
 12 13  1  6
 13 14  1  0
 15 14  1  6
 15 16  1  0
 16 17  1  1
 17 18  1  6
 17 19  1  0
 20 19  1  1
 20 21  1  0
 21 22  1  0
 22 23  2  0
 22 24  1  0
 24 25  1  0
 25 26  1  0
 26 27  1  6
 26 28  1  0
 28 29  1  6
 29 30  1  0
 30 31  1  1
 30 32  1  0
 32 33  1  6
 32 12  1  0
 32 15  1  0
 28 16  1  0
 26 20  1  0
M  END
>  <MS_ID>  (969) 
MS1009

>  <SMILES>  (969) 
C[C@H](CCC(=O)CCC(=O)O)[C@H]1CC[C@H]2[C@@H]3[C@@H](O)C[C@@H]4CC(=O)CC[C@]4(C)[C@H]3C[C@H](O)[C@]12C

>  <Structure_dimension>  (969) 
2D

$$$$
MS1010
     RDKit          2D

 30 33  0  0  0  0  0  0  0  0999 V2000
   -5.0361   -2.2421    0.0000 C   0  0  0  0  0  0  0  0  0  0  0  0
   -3.9151   -1.2454    0.0000 C   0  0  0  0  0  0  0  0  0  0  0  0
   -4.2177    0.2237    0.0000 C   0  0  0  0  0  0  0  0  0  0  0  0
   -5.6413    0.6963    0.0000 C   0  0  0  0  0  0  0  0  0  0  0  0
   -5.9439    2.1654    0.0000 C   0  0  0  0  0  0  0  0  0  0  0  0
   -4.8228    3.1621    0.0000 O   0  0  0  0  0  0  0  0  0  0  0  0
   -7.3675    2.6380    0.0000 O   0  0  0  0  0  0  0  0  0  0  0  0
   -2.4915   -1.7180    0.0000 C   0  0  0  0  0  0  0  0  0  0  0  0
   -2.0370   -3.1475    0.0000 C   0  0  0  0  0  0  0  0  0  0  0  0
   -0.5370   -3.1570    0.0000 C   0  0  0  0  0  0  0  0  0  0  0  0
   -0.0645   -1.7333    0.0000 C   0  0  0  0  0  0  0  0  0  0  0  0
    1.3097   -1.1319    0.0000 C   0  0  0  0  0  0  0  0  0  0  0  0
    2.5176   -2.0213    0.0000 C   0  0  0  0  0  0  0  0  0  0  0  0
    2.3514   -3.5120    0.0000 C   0  0  0  0  0  0  0  0  0  0  0  0
    3.5593   -4.4014    0.0000 S   0  0  0  0  0  0  0  0  0  0  0  0
    3.8918   -1.4198    0.0000 C   0  0  0  0  0  0  0  0  0  0  0  0
    4.0580    0.0709    0.0000 C   0  0  0  0  0  0  0  0  0  0  0  0
    5.4321    0.6723    0.0000 C   0  0  0  0  0  0  0  0  0  0  0  0
    5.5984    2.1631    0.0000 C   0  0  0  0  0  0  0  0  0  0  0  0
    6.9725    2.7645    0.0000 O   0  0  0  0  0  0  0  0  0  0  0  0
    4.3904    3.0524    0.0000 C   0  0  0  0  0  0  0  0  0  0  0  0
    3.0163    2.4510    0.0000 C   0  0  0  0  0  0  0  0  0  0  0  0
    2.8501    0.9603    0.0000 C   0  0  0  0  0  0  0  0  0  0  0  0
    1.6421    1.8496    0.0000 C   0  0  0  0  0  0  0  0  0  0  0  0
    1.4759    0.3588    0.0000 C   0  0  0  0  0  0  0  0  0  0  0  0
    0.2680    1.2482    0.0000 C   0  0  0  0  0  0  0  0  0  0  0  0
   -1.1062    0.6468    0.0000 C   0  0  0  0  0  0  0  0  0  0  0  0
   -2.3141    1.5361    0.0000 O   0  0  0  0  0  0  0  0  0  0  0  0
   -1.2724   -0.8440    0.0000 C   0  0  0  0  0  0  0  0  0  0  0  0
   -2.5667   -0.0858    0.0000 C   0  0  0  0  0  0  0  0  0  0  0  0
  2  1  1  6
  2  3  1  0
  3  4  1  0
  4  5  1  0
  5  6  2  0
  5  7  1  0
  2  8  1  0
  8  9  1  6
  9 10  1  0
 11 10  1  6
 11 12  1  0
 12 13  1  1
 13 14  1  1
 14 15  1  0
 13 16  1  0
 17 16  1  1
 17 18  1  0
 18 19  1  0
 19 20  1  1
 19 21  1  0
 21 22  1  0
 22 23  1  0
 23 24  1  6
 23 25  1  0
 25 26  1  6
 26 27  1  0
 27 28  1  1
 27 29  1  0
 29 30  1  6
 29  8  1  0
 29 11  1  0
 25 12  1  0
 23 17  1  0
M  END
>  <MS_ID>  (970) 
MS1010

>  <SMILES>  (970) 
C[C@H](CCC(=O)O)[C@H]1CC[C@H]2[C@@H]3[C@H](CS)C[C@@H]4C[C@H](O)CC[C@]4(C)[C@H]3C[C@H](O)[C@]12C

>  <Structure_dimension>  (970) 
2D

$$$$
MS1011
     RDKit          2D

 31 34  0  0  0  0  0  0  0  0999 V2000
   -7.5628    3.3078    0.0000 C   0  0  0  0  0  0  0  0  0  0  0  0
   -7.1434    1.8677    0.0000 C   0  0  0  0  0  0  0  0  0  0  0  0
   -8.1809    0.7843    0.0000 C   0  0  0  0  0  0  0  0  0  0  0  0
   -5.6865    1.5108    0.0000 C   0  0  0  0  0  0  0  0  0  0  0  0
   -4.6490    2.5942    0.0000 O   0  0  0  0  0  0  0  0  0  0  0  0
   -5.2670    0.0707    0.0000 C   0  0  0  0  0  0  0  0  0  0  0  0
   -3.8101   -0.2862    0.0000 C   0  0  0  0  0  0  0  0  0  0  0  0
   -3.3906   -1.7263    0.0000 C   0  0  0  0  0  0  0  0  0  0  0  0
   -4.4281   -2.8097    0.0000 C   0  0  0  0  0  0  0  0  0  0  0  0
   -1.9337   -2.0832    0.0000 C   0  0  0  0  0  0  0  0  0  0  0  0
   -1.3660   -3.4716    0.0000 C   0  0  0  0  0  0  0  0  0  0  0  0
    0.1299   -3.3608    0.0000 C   0  0  0  0  0  0  0  0  0  0  0  0
    0.4867   -1.9038    0.0000 C   0  0  0  0  0  0  0  0  0  0  0  0
    1.8082   -1.1941    0.0000 C   0  0  0  0  0  0  0  0  0  0  0  0
    3.0836   -1.9837    0.0000 C   0  0  0  0  0  0  0  0  0  0  0  0
    3.0374   -3.4830    0.0000 O   0  0  0  0  0  0  0  0  0  0  0  0
    4.4050   -1.2740    0.0000 C   0  0  0  0  0  0  0  0  0  0  0  0
    5.6804   -2.0636    0.0000 O   0  0  0  0  0  0  0  0  0  0  0  0
    4.4512    0.2253    0.0000 C   0  0  0  0  0  0  0  0  0  0  0  0
    5.7727    0.9350    0.0000 C   0  0  0  0  0  0  0  0  0  0  0  0
    5.8188    2.4343    0.0000 C   0  0  0  0  0  0  0  0  0  0  0  0
    7.1403    3.1440    0.0000 O   0  0  0  0  0  0  0  0  0  0  0  0
    4.5434    3.2239    0.0000 C   0  0  0  0  0  0  0  0  0  0  0  0
    3.2219    2.5142    0.0000 C   0  0  0  0  0  0  0  0  0  0  0  0
    3.1758    1.0149    0.0000 C   0  0  0  0  0  0  0  0  0  0  0  0
    1.9004    1.8045    0.0000 C   0  0  0  0  0  0  0  0  0  0  0  0
    1.8543    0.3052    0.0000 C   0  0  0  0  0  0  0  0  0  0  0  0
    0.5790    1.0948    0.0000 C   0  0  0  0  0  0  0  0  0  0  0  0
   -0.7425    0.3851    0.0000 C   0  0  0  0  0  0  0  0  0  0  0  0
   -0.7887   -1.1142    0.0000 C   0  0  0  0  0  0  0  0  0  0  0  0
   -2.1396   -0.4623    0.0000 C   0  0  0  0  0  0  0  0  0  0  0  0
  1  2  1  0
  2  3  1  0
  2  4  1  0
  4  5  2  0
  4  6  1  0
  6  7  1  0
  7  8  1  0
  8  9  1  6
  8 10  1  0
 10 11  1  6
 11 12  1  0
 13 12  1  6
 13 14  1  0
 14 15  1  1
 15 16  1  1
 15 17  1  0
 17 18  1  1
 17 19  1  0
 19 20  1  1
 20 21  1  0
 21 22  1  1
 21 23  1  0
 23 24  1  0
 24 25  1  0
 25 26  1  6
 25 27  1  0
 27 28  1  6
 28 29  1  0
 29 30  1  0
 30 31  1  6
 30 10  1  0
 30 13  1  0
 27 14  1  0
 25 19  1  0
M  END
>  <MS_ID>  (971) 
MS1011

>  <SMILES>  (971) 
CC(C)C(=O)CC[C@@H](C)[C@H]1CC[C@H]2[C@@H]3[C@H](O)[C@H](O)[C@@H]4C[C@H](O)CC[C@]4(C)[C@H]3CC[C@]12C

>  <Structure_dimension>  (971) 
2D

$$$$
MS1012
     RDKit          2D

 30 33  0  0  0  0  0  0  0  0999 V2000
   -4.0199   -3.1584    0.0000 C   0  0  0  0  0  0  0  0  0  0  0  0
   -2.9902   -2.0677    0.0000 C   0  0  0  0  0  0  0  0  0  0  0  0
   -3.4199   -0.6306    0.0000 C   0  0  0  0  0  0  0  0  0  0  0  0
   -4.8793   -0.2841    0.0000 C   0  0  0  0  0  0  0  0  0  0  0  0
   -5.3090    1.1530    0.0000 C   0  0  0  0  0  0  0  0  0  0  0  0
   -4.2792    2.2437    0.0000 O   0  0  0  0  0  0  0  0  0  0  0  0
   -6.7684    1.4995    0.0000 O   0  0  0  0  0  0  0  0  0  0  0  0
   -7.1981    2.9366    0.0000 C   0  0  0  0  0  0  0  0  0  0  0  0
   -8.6575    3.2831    0.0000 O   0  0  0  0  0  0  0  0  0  0  0  0
   -1.5307   -2.4142    0.0000 C   0  0  0  0  0  0  0  0  0  0  0  0
   -0.9532   -3.7985    0.0000 C   0  0  0  0  0  0  0  0  0  0  0  0
    0.5419   -3.6770    0.0000 C   0  0  0  0  0  0  0  0  0  0  0  0
    0.8883   -2.2176    0.0000 C   0  0  0  0  0  0  0  0  0  0  0  0
    2.2047   -1.4985    0.0000 C   0  0  0  0  0  0  0  0  0  0  0  0
    3.4857   -2.2790    0.0000 C   0  0  0  0  0  0  0  0  0  0  0  0
    4.8021   -1.5599    0.0000 C   0  0  0  0  0  0  0  0  0  0  0  0
    4.8375   -0.0603    0.0000 C   0  0  0  0  0  0  0  0  0  0  0  0
    6.1539    0.6588    0.0000 C   0  0  0  0  0  0  0  0  0  0  0  0
    6.1894    2.1583    0.0000 C   0  0  0  0  0  0  0  0  0  0  0  0
    7.5058    2.8774    0.0000 O   0  0  0  0  0  0  0  0  0  0  0  0
    4.9084    2.9388    0.0000 C   0  0  0  0  0  0  0  0  0  0  0  0
    3.5920    2.2197    0.0000 C   0  0  0  0  0  0  0  0  0  0  0  0
    3.5566    0.7202    0.0000 C   0  0  0  0  0  0  0  0  0  0  0  0
    2.2756    1.5007    0.0000 C   0  0  0  0  0  0  0  0  0  0  0  0
    2.2402    0.0011    0.0000 C   0  0  0  0  0  0  0  0  0  0  0  0
    0.9592    0.7816    0.0000 C   0  0  0  0  0  0  0  0  0  0  0  0
   -0.3572    0.0625    0.0000 C   0  0  0  0  0  0  0  0  0  0  0  0
   -1.6381    0.8430    0.0000 O   0  0  0  0  0  0  0  0  0  0  0  0
   -0.3926   -1.4371    0.0000 C   0  0  0  0  0  0  0  0  0  0  0  0
   -1.7481   -0.7948    0.0000 C   0  0  0  0  0  0  0  0  0  0  0  0
  2  1  1  6
  2  3  1  0
  3  4  1  0
  4  5  1  0
  5  6  2  0
  5  7  1  0
  7  8  1  0
  8  9  1  0
  2 10  1  0
 10 11  1  6
 11 12  1  0
 13 12  1  6
 13 14  1  0
 14 15  1  1
 15 16  1  0
 17 16  1  1
 17 18  1  0
 18 19  1  0
 19 20  1  1
 19 21  1  0
 21 22  1  0
 22 23  1  0
 23 24  1  6
 23 25  1  0
 25 26  1  6
 26 27  1  0
 27 28  1  1
 27 29  1  0
 29 30  1  6
 29 10  1  0
 29 13  1  0
 25 14  1  0
 23 17  1  0
M  END
>  <MS_ID>  (972) 
MS1012

>  <SMILES>  (972) 
C[C@H](CCC(=O)OCO)[C@H]1CC[C@H]2[C@@H]3CC[C@@H]4C[C@H](O)CC[C@]4(C)[C@H]3C[C@H](O)[C@]12C

>  <Structure_dimension>  (972) 
2D

$$$$
MS1013
     RDKit          2D

 29 32  0  0  0  0  0  0  0  0999 V2000
   -4.1361   -2.8778    0.0000 C   0  0  0  0  0  0  0  0  0  0  0  0
   -3.1227   -1.7719    0.0000 C   0  0  0  0  0  0  0  0  0  0  0  0
   -3.5738   -0.3413    0.0000 C   0  0  0  0  0  0  0  0  0  0  0  0
   -5.0383   -0.0167    0.0000 C   0  0  0  0  0  0  0  0  0  0  0  0
   -5.4894    1.4138    0.0000 C   0  0  0  0  0  0  0  0  0  0  0  0
   -4.4761    2.5198    0.0000 O   0  0  0  0  0  0  0  0  0  0  0  0
   -6.9539    1.7384    0.0000 N   0  0  0  0  0  0  0  0  0  0  0  0
   -7.4050    3.1690    0.0000 O   0  0  0  0  0  0  0  0  0  0  0  0
   -1.6583   -2.0965    0.0000 C   0  0  0  0  0  0  0  0  0  0  0  0
   -1.0601   -3.4720    0.0000 C   0  0  0  0  0  0  0  0  0  0  0  0
    0.4330   -3.3282    0.0000 C   0  0  0  0  0  0  0  0  0  0  0  0
    0.7576   -1.8638    0.0000 C   0  0  0  0  0  0  0  0  0  0  0  0
    2.0631   -1.1251    0.0000 C   0  0  0  0  0  0  0  0  0  0  0  0
    3.3556   -1.8863    0.0000 C   0  0  0  0  0  0  0  0  0  0  0  0
    3.3426   -3.3863    0.0000 O   0  0  0  0  0  0  0  0  0  0  0  0
    4.6611   -1.1476    0.0000 C   0  0  0  0  0  0  0  0  0  0  0  0
    4.6741    0.3523    0.0000 C   0  0  0  0  0  0  0  0  0  0  0  0
    5.9796    1.0910    0.0000 C   0  0  0  0  0  0  0  0  0  0  0  0
    5.9926    2.5910    0.0000 C   0  0  0  0  0  0  0  0  0  0  0  0
    4.7002    3.3522    0.0000 C   0  0  0  0  0  0  0  0  0  0  0  0
    3.3947    2.6135    0.0000 C   0  0  0  0  0  0  0  0  0  0  0  0
    3.3816    1.1136    0.0000 C   0  0  0  0  0  0  0  0  0  0  0  0
    2.0891    1.8748    0.0000 C   0  0  0  0  0  0  0  0  0  0  0  0
    2.0761    0.3749    0.0000 C   0  0  0  0  0  0  0  0  0  0  0  0
    0.7836    1.1361    0.0000 C   0  0  0  0  0  0  0  0  0  0  0  0
   -0.5219    0.3974    0.0000 C   0  0  0  0  0  0  0  0  0  0  0  0
   -1.8143    1.1587    0.0000 O   0  0  0  0  0  0  0  0  0  0  0  0
   -0.5349   -1.1025    0.0000 C   0  0  0  0  0  0  0  0  0  0  0  0
   -1.8998   -0.4805    0.0000 C   0  0  0  0  0  0  0  0  0  0  0  0
  2  1  1  6
  2  3  1  0
  3  4  1  0
  4  5  1  0
  5  6  2  0
  5  7  1  0
  7  8  1  0
  2  9  1  0
  9 10  1  6
 10 11  1  0
 12 11  1  6
 12 13  1  0
 13 14  1  1
 14 15  1  1
 14 16  1  0
 17 16  1  1
 17 18  1  0
 18 19  1  0
 19 20  1  0
 20 21  1  0
 21 22  1  0
 22 23  1  6
 22 24  1  0
 24 25  1  6
 25 26  1  0
 26 27  1  6
 26 28  1  0
 28 29  1  6
 28  9  1  0
 28 12  1  0
 24 13  1  0
 22 17  1  0
M  END
>  <MS_ID>  (973) 
MS1013

>  <SMILES>  (973) 
C[C@H](CCC(=O)NO)[C@H]1CC[C@H]2[C@@H]3[C@H](O)C[C@@H]4CCCC[C@]4(C)[C@H]3C[C@@H](O)[C@]12C

>  <Structure_dimension>  (973) 
2D

$$$$
MS1014
     RDKit          2D

 36 40  0  0  0  0  0  0  0  0999 V2000
   -2.4397   -3.1394    0.0000 C   0  0  0  0  0  0  0  0  0  0  0  0
   -1.4430   -2.0184    0.0000 C   0  0  0  0  0  0  0  0  0  0  0  0
   -1.9155   -0.5948    0.0000 C   0  0  0  0  0  0  0  0  0  0  0  0
   -3.3847   -0.2921    0.0000 C   0  0  0  0  0  0  0  0  0  0  0  0
   -3.8572    1.1315    0.0000 C   0  0  0  0  0  0  0  0  0  0  0  0
   -2.8605    2.2525    0.0000 O   0  0  0  0  0  0  0  0  0  0  0  0
   -5.3263    1.4342    0.0000 C   0  0  0  0  0  0  0  0  0  0  0  0
   -5.7988    2.8578    0.0000 C   0  0  0  0  0  0  0  0  0  0  0  0
   -7.2679    3.1604    0.0000 C   0  0  0  0  0  0  0  0  0  0  0  0
   -8.2646    2.0394    0.0000 C   0  0  0  0  0  0  0  0  0  0  0  0
   -7.7921    0.6158    0.0000 C   0  0  0  0  0  0  0  0  0  0  0  0
   -8.7888   -0.5052    0.0000 C   0  0  0  0  0  0  0  0  0  0  0  0
   -8.3163   -1.9289    0.0000 O   0  0  0  0  0  0  0  0  0  0  0  0
  -10.2580   -0.2026    0.0000 O   0  0  0  0  0  0  0  0  0  0  0  0
   -6.3230    0.3132    0.0000 C   0  0  0  0  0  0  0  0  0  0  0  0
    0.0261   -2.3210    0.0000 C   0  0  0  0  0  0  0  0  0  0  0  0
    0.6448   -3.6875    0.0000 C   0  0  0  0  0  0  0  0  0  0  0  0
    2.1356   -3.5213    0.0000 C   0  0  0  0  0  0  0  0  0  0  0  0
    2.4382   -2.0522    0.0000 C   0  0  0  0  0  0  0  0  0  0  0  0
    3.7325   -1.2940    0.0000 C   0  0  0  0  0  0  0  0  0  0  0  0
    5.0363   -2.0358    0.0000 C   0  0  0  0  0  0  0  0  0  0  0  0
    5.0457   -3.5358    0.0000 O   0  0  0  0  0  0  0  0  0  0  0  0
    6.3306   -1.2777    0.0000 C   0  0  0  0  0  0  0  0  0  0  0  0
    6.3211    0.2223    0.0000 C   0  0  0  0  0  0  0  0  0  0  0  0
    7.6154    0.9804    0.0000 C   0  0  0  0  0  0  0  0  0  0  0  0
    7.6060    2.4804    0.0000 C   0  0  0  0  0  0  0  0  0  0  0  0
    8.9003    3.2385    0.0000 O   0  0  0  0  0  0  0  0  0  0  0  0
    6.3023    3.2222    0.0000 C   0  0  0  0  0  0  0  0  0  0  0  0
    5.0080    2.4641    0.0000 C   0  0  0  0  0  0  0  0  0  0  0  0
    5.0174    0.9641    0.0000 C   0  0  0  0  0  0  0  0  0  0  0  0
    3.7137    1.7059    0.0000 C   0  0  0  0  0  0  0  0  0  0  0  0
    3.7231    0.2059    0.0000 C   0  0  0  0  0  0  0  0  0  0  0  0
    2.4194    0.9478    0.0000 C   0  0  0  0  0  0  0  0  0  0  0  0
    1.1251    0.1896    0.0000 C   0  0  0  0  0  0  0  0  0  0  0  0
    1.1345   -1.3104    0.0000 C   0  0  0  0  0  0  0  0  0  0  0  0
   -0.2396   -0.7089    0.0000 C   0  0  0  0  0  0  0  0  0  0  0  0
  2  1  1  6
  2  3  1  0
  3  4  1  0
  4  5  1  0
  5  6  2  0
  5  7  1  0
  7  8  2  0
  8  9  1  0
  9 10  2  0
 10 11  1  0
 11 12  1  0
 12 13  2  0
 12 14  1  0
 11 15  2  0
  2 16  1  0
 16 17  1  6
 17 18  1  0
 19 18  1  6
 19 20  1  0
 20 21  1  1
 21 22  1  1
 21 23  1  0
 24 23  1  1
 24 25  1  0
 25 26  1  0
 26 27  1  1
 26 28  1  0
 28 29  1  0
 29 30  1  0
 30 31  1  6
 30 32  1  0
 32 33  1  6
 33 34  1  0
 34 35  1  0
 35 36  1  6
 15  7  1  0
 35 16  1  0
 35 19  1  0
 32 20  1  0
 30 24  1  0
M  END
>  <MS_ID>  (974) 
MS1014

>  <SMILES>  (974) 
C[C@H](CCC(=O)c1cccc(C(=O)O)c1)[C@H]1CC[C@H]2[C@@H]3[C@H](O)C[C@@H]4C[C@H](O)CC[C@]4(C)[C@H]3CC[C@]12C

>  <Structure_dimension>  (974) 
2D

$$$$
MS1015
     RDKit          2D

 33 36  0  0  0  0  0  0  0  0999 V2000
   -3.3094   -3.6711    0.0000 C   0  0  0  0  0  0  0  0  0  0  0  0
   -2.4155   -2.4665    0.0000 C   0  0  0  0  0  0  0  0  0  0  0  0
   -3.0118   -1.0901    0.0000 C   0  0  0  0  0  0  0  0  0  0  0  0
   -4.5019   -0.9183    0.0000 C   0  0  0  0  0  0  0  0  0  0  0  0
   -5.0982    0.4581    0.0000 C   0  0  0  0  0  0  0  0  0  0  0  0
   -4.2043    1.6627    0.0000 O   0  0  0  0  0  0  0  0  0  0  0  0
   -6.5883    0.6300    0.0000 N   0  0  0  0  0  0  0  0  0  0  0  0
   -7.1845    2.0064    0.0000 S   0  0  0  0  0  0  0  0  0  0  0  0
   -8.5609    1.4101    0.0000 O   0  0  0  0  0  0  0  0  0  0  0  0
   -5.8081    2.6026    0.0000 O   0  0  0  0  0  0  0  0  0  0  0  0
   -7.7808    3.3828    0.0000 O   0  0  0  0  0  0  0  0  0  0  0  0
   -0.9254   -2.6383    0.0000 C   0  0  0  0  0  0  0  0  0  0  0  0
   -0.1885   -3.9449    0.0000 C   0  0  0  0  0  0  0  0  0  0  0  0
    1.2818   -3.6478    0.0000 C   0  0  0  0  0  0  0  0  0  0  0  0
    1.4536   -2.1577    0.0000 C   0  0  0  0  0  0  0  0  0  0  0  0
    2.6759   -1.2883    0.0000 C   0  0  0  0  0  0  0  0  0  0  0  0
    4.0400   -1.9122    0.0000 C   0  0  0  0  0  0  0  0  0  0  0  0
    4.1818   -3.4055    0.0000 O   0  0  0  0  0  0  0  0  0  0  0  0
    5.2624   -1.0428    0.0000 C   0  0  0  0  0  0  0  0  0  0  0  0
    5.1206    0.4505    0.0000 C   0  0  0  0  0  0  0  0  0  0  0  0
    6.3430    1.3199    0.0000 C   0  0  0  0  0  0  0  0  0  0  0  0
    6.2013    2.8132    0.0000 C   0  0  0  0  0  0  0  0  0  0  0  0
    7.4236    3.6826    0.0000 O   0  0  0  0  0  0  0  0  0  0  0  0
    4.8372    3.4371    0.0000 C   0  0  0  0  0  0  0  0  0  0  0  0
    3.6148    2.5677    0.0000 C   0  0  0  0  0  0  0  0  0  0  0  0
    3.7565    1.0744    0.0000 C   0  0  0  0  0  0  0  0  0  0  0  0
    2.3925    1.6983    0.0000 C   0  0  0  0  0  0  0  0  0  0  0  0
    2.5342    0.2050    0.0000 C   0  0  0  0  0  0  0  0  0  0  0  0
    1.1701    0.8289    0.0000 C   0  0  0  0  0  0  0  0  0  0  0  0
   -0.0523   -0.0405    0.0000 C   0  0  0  0  0  0  0  0  0  0  0  0
   -1.4164    0.5834    0.0000 O   0  0  0  0  0  0  0  0  0  0  0  0
    0.0895   -1.5338    0.0000 C   0  0  0  0  0  0  0  0  0  0  0  0
   -1.3324   -1.0559    0.0000 C   0  0  0  0  0  0  0  0  0  0  0  0
  2  1  1  6
  2  3  1  0
  3  4  1  0
  4  5  1  0
  5  6  2  0
  5  7  1  0
  7  8  1  0
  8  9  2  0
  8 10  2  0
  8 11  1  0
  2 12  1  0
 12 13  1  6
 13 14  1  0
 15 14  1  6
 15 16  1  0
 16 17  1  1
 17 18  1  1
 17 19  1  0
 20 19  1  1
 20 21  1  0
 21 22  1  0
 22 23  2  0
 22 24  1  0
 24 25  1  0
 25 26  1  0
 26 27  1  6
 26 28  1  0
 28 29  1  6
 29 30  1  0
 30 31  1  1
 30 32  1  0
 32 33  1  6
 32 12  1  0
 32 15  1  0
 28 16  1  0
 26 20  1  0
M  END
>  <MS_ID>  (975) 
MS1015

>  <SMILES>  (975) 
C[C@H](CCC(=O)NS(=O)(=O)O)[C@H]1CC[C@H]2[C@@H]3[C@H](O)C[C@@H]4CC(=O)CC[C@]4(C)[C@H]3C[C@H](O)[C@]12C

>  <Structure_dimension>  (975) 
2D

$$$$
MS1017
     RDKit          2D

 29 32  0  0  0  0  0  0  0  0999 V2000
   -5.0303   -2.1373    0.0000 C   0  0  0  0  0  0  0  0  0  0  0  0
   -3.8594   -1.1998    0.0000 C   0  0  0  0  0  0  0  0  0  0  0  0
   -4.0858    0.2830    0.0000 C   0  0  0  0  0  0  0  0  0  0  0  0
   -5.4831    0.8284    0.0000 C   0  0  0  0  0  0  0  0  0  0  0  0
   -5.7095    2.3112    0.0000 C   0  0  0  0  0  0  0  0  0  0  0  0
   -7.1069    2.8565    0.0000 O   0  0  0  0  0  0  0  0  0  0  0  0
   -4.5386    3.2487    0.0000 Cl  0  0  0  0  0  0  0  0  0  0  0  0
   -2.4620   -1.7451    0.0000 C   0  0  0  0  0  0  0  0  0  0  0  0
   -2.0818   -3.1961    0.0000 C   0  0  0  0  0  0  0  0  0  0  0  0
   -0.5844   -3.2830    0.0000 C   0  0  0  0  0  0  0  0  0  0  0  0
   -0.0390   -1.8856    0.0000 C   0  0  0  0  0  0  0  0  0  0  0  0
    1.3643   -1.3559    0.0000 C   0  0  0  0  0  0  0  0  0  0  0  0
    2.5248   -2.3063    0.0000 C   0  0  0  0  0  0  0  0  0  0  0  0
    2.2819   -3.7865    0.0000 O   0  0  0  0  0  0  0  0  0  0  0  0
    3.9281   -1.7765    0.0000 C   0  0  0  0  0  0  0  0  0  0  0  0
    4.1710   -0.2963    0.0000 C   0  0  0  0  0  0  0  0  0  0  0  0
    5.5743    0.2334    0.0000 C   0  0  0  0  0  0  0  0  0  0  0  0
    5.8172    1.7136    0.0000 C   0  0  0  0  0  0  0  0  0  0  0  0
    7.2205    2.2434    0.0000 O   0  0  0  0  0  0  0  0  0  0  0  0
    4.6568    2.6641    0.0000 C   0  0  0  0  0  0  0  0  0  0  0  0
    3.2534    2.1343    0.0000 C   0  0  0  0  0  0  0  0  0  0  0  0
    3.0105    0.6541    0.0000 C   0  0  0  0  0  0  0  0  0  0  0  0
    1.8501    1.6046    0.0000 C   0  0  0  0  0  0  0  0  0  0  0  0
    1.6072    0.1244    0.0000 C   0  0  0  0  0  0  0  0  0  0  0  0
    0.4467    1.0748    0.0000 C   0  0  0  0  0  0  0  0  0  0  0  0
   -0.9566    0.5450    0.0000 C   0  0  0  0  0  0  0  0  0  0  0  0
   -2.1170    1.4955    0.0000 O   0  0  0  0  0  0  0  0  0  0  0  0
   -1.1995   -0.9352    0.0000 C   0  0  0  0  0  0  0  0  0  0  0  0
   -2.4529   -0.1112    0.0000 C   0  0  0  0  0  0  0  0  0  0  0  0
  2  1  1  6
  2  3  1  0
  3  4  1  0
  4  5  1  0
  5  6  2  0
  5  7  1  0
  2  8  1  0
  8  9  1  6
  9 10  1  0
 11 10  1  6
 11 12  1  0
 12 13  1  1
 13 14  1  6
 13 15  1  0
 16 15  1  1
 16 17  1  0
 17 18  1  0
 18 19  1  1
 18 20  1  0
 20 21  1  0
 21 22  1  0
 22 23  1  6
 22 24  1  0
 24 25  1  6
 25 26  1  0
 26 27  2  0
 26 28  1  0
 28 29  1  6
 28  8  1  0
 28 11  1  0
 24 12  1  0
 22 16  1  0
M  END
>  <MS_ID>  (976) 
MS1017

>  <SMILES>  (976) 
C[C@H](CCC(=O)Cl)[C@H]1CC[C@H]2[C@@H]3[C@@H](O)C[C@@H]4C[C@H](O)CC[C@]4(C)[C@H]3CC(=O)[C@]12C

>  <Structure_dimension>  (976) 
2D

$$$$
MS1018
     RDKit          2D

 30 33  0  0  0  0  0  0  0  0999 V2000
   -5.7116   -1.9729    0.0000 C   0  0  0  0  0  0  0  0  0  0  0  0
   -4.4780   -1.1196    0.0000 C   0  0  0  0  0  0  0  0  0  0  0  0
   -4.6002    0.3754    0.0000 C   0  0  0  0  0  0  0  0  0  0  0  0
   -5.9561    1.0171    0.0000 C   0  0  0  0  0  0  0  0  0  0  0  0
   -6.0783    2.5121    0.0000 C   0  0  0  0  0  0  0  0  0  0  0  0
   -4.8447    3.3654    0.0000 O   0  0  0  0  0  0  0  0  0  0  0  0
   -7.4341    3.1538    0.0000 O   0  0  0  0  0  0  0  0  0  0  0  0
   -3.1222   -1.7613    0.0000 C   0  0  0  0  0  0  0  0  0  0  0  0
   -2.8444   -3.2353    0.0000 C   0  0  0  0  0  0  0  0  0  0  0  0
   -1.3566   -3.4266    0.0000 C   0  0  0  0  0  0  0  0  0  0  0  0
   -0.7150   -2.0708    0.0000 C   0  0  0  0  0  0  0  0  0  0  0  0
    0.7220   -1.6404    0.0000 C   0  0  0  0  0  0  0  0  0  0  0  0
    1.8132   -2.6696    0.0000 C   0  0  0  0  0  0  0  0  0  0  0  0
    3.2501   -2.2393    0.0000 C   0  0  0  0  0  0  0  0  0  0  0  0
    3.5958   -0.7797    0.0000 C   0  0  0  0  0  0  0  0  0  0  0  0
    5.0328   -0.3493    0.0000 C   0  0  0  0  0  0  0  0  0  0  0  0
    5.3785    1.1103    0.0000 C   0  0  0  0  0  0  0  0  0  0  0  0
    6.8155    1.5407    0.0000 C   0  0  0  0  0  0  0  0  0  0  0  0
    7.9066    0.5115    0.0000 C   0  0  0  0  0  0  0  0  0  0  0  0
    9.3436    0.9418    0.0000 O   0  0  0  0  0  0  0  0  0  0  0  0
    4.2873    2.1396    0.0000 C   0  0  0  0  0  0  0  0  0  0  0  0
    2.8504    1.7092    0.0000 C   0  0  0  0  0  0  0  0  0  0  0  0
    2.5047    0.2496    0.0000 C   0  0  0  0  0  0  0  0  0  0  0  0
    1.4135    1.2788    0.0000 C   0  0  0  0  0  0  0  0  0  0  0  0
    1.0677   -0.1808    0.0000 C   0  0  0  0  0  0  0  0  0  0  0  0
   -0.0235    0.8484    0.0000 C   0  0  0  0  0  0  0  0  0  0  0  0
   -1.4604    0.4181    0.0000 C   0  0  0  0  0  0  0  0  0  0  0  0
   -2.5516    1.4473    0.0000 O   0  0  0  0  0  0  0  0  0  0  0  0
   -1.8061   -1.0415    0.0000 C   0  0  0  0  0  0  0  0  0  0  0  0
   -2.9989   -0.1320    0.0000 C   0  0  0  0  0  0  0  0  0  0  0  0
  2  1  1  6
  2  3  1  0
  3  4  1  0
  4  5  1  0
  5  6  2  0
  5  7  1  0
  2  8  1  0
  8  9  1  6
  9 10  1  0
 11 10  1  6
 11 12  1  0
 12 13  1  1
 13 14  1  0
 15 14  1  1
 15 16  1  0
 16 17  1  0
 17 18  1  1
 18 19  1  0
 19 20  1  0
 17 21  1  0
 21 22  1  0
 22 23  1  0
 23 24  1  6
 23 25  1  0
 25 26  1  6
 26 27  1  0
 27 28  1  1
 27 29  1  0
 29 30  1  6
 29  8  1  0
 29 11  1  0
 25 12  1  0
 23 15  1  0
M  END
>  <MS_ID>  (977) 
MS1018

>  <SMILES>  (977) 
C[C@H](CCC(=O)O)[C@H]1CC[C@H]2[C@@H]3CC[C@@H]4C[C@H](CCO)CC[C@]4(C)[C@H]3C[C@H](O)[C@]12C

>  <Structure_dimension>  (977) 
2D

$$$$
MS1019
     RDKit          2D

 30 33  0  0  0  0  0  0  0  0999 V2000
   -4.0199   -3.1584    0.0000 C   0  0  0  0  0  0  0  0  0  0  0  0
   -2.9902   -2.0677    0.0000 C   0  0  0  0  0  0  0  0  0  0  0  0
   -3.4199   -0.6306    0.0000 C   0  0  0  0  0  0  0  0  0  0  0  0
   -4.8793   -0.2841    0.0000 C   0  0  0  0  0  0  0  0  0  0  0  0
   -5.3090    1.1530    0.0000 C   0  0  0  0  0  0  0  0  0  0  0  0
   -4.2792    2.2437    0.0000 O   0  0  0  0  0  0  0  0  0  0  0  0
   -6.7684    1.4995    0.0000 O   0  0  0  0  0  0  0  0  0  0  0  0
   -7.1981    2.9366    0.0000 C   0  0  0  0  0  0  0  0  0  0  0  0
   -8.6575    3.2831    0.0000 O   0  0  0  0  0  0  0  0  0  0  0  0
   -1.5307   -2.4142    0.0000 C   0  0  0  0  0  0  0  0  0  0  0  0
   -0.9532   -3.7985    0.0000 C   0  0  0  0  0  0  0  0  0  0  0  0
    0.5419   -3.6770    0.0000 C   0  0  0  0  0  0  0  0  0  0  0  0
    0.8883   -2.2176    0.0000 C   0  0  0  0  0  0  0  0  0  0  0  0
    2.2047   -1.4985    0.0000 C   0  0  0  0  0  0  0  0  0  0  0  0
    3.4857   -2.2790    0.0000 C   0  0  0  0  0  0  0  0  0  0  0  0
    4.8021   -1.5599    0.0000 C   0  0  0  0  0  0  0  0  0  0  0  0
    4.8375   -0.0603    0.0000 C   0  0  0  0  0  0  0  0  0  0  0  0
    6.1539    0.6588    0.0000 C   0  0  0  0  0  0  0  0  0  0  0  0
    6.1894    2.1583    0.0000 C   0  0  0  0  0  0  0  0  0  0  0  0
    7.5058    2.8774    0.0000 O   0  0  0  0  0  0  0  0  0  0  0  0
    4.9084    2.9388    0.0000 C   0  0  0  0  0  0  0  0  0  0  0  0
    3.5920    2.2197    0.0000 C   0  0  0  0  0  0  0  0  0  0  0  0
    3.5566    0.7202    0.0000 C   0  0  0  0  0  0  0  0  0  0  0  0
    2.2756    1.5007    0.0000 C   0  0  0  0  0  0  0  0  0  0  0  0
    2.2402    0.0011    0.0000 C   0  0  0  0  0  0  0  0  0  0  0  0
    0.9592    0.7816    0.0000 C   0  0  0  0  0  0  0  0  0  0  0  0
   -0.3572    0.0625    0.0000 C   0  0  0  0  0  0  0  0  0  0  0  0
   -1.6381    0.8430    0.0000 O   0  0  0  0  0  0  0  0  0  0  0  0
   -0.3926   -1.4371    0.0000 C   0  0  0  0  0  0  0  0  0  0  0  0
   -1.7481   -0.7948    0.0000 C   0  0  0  0  0  0  0  0  0  0  0  0
  2  1  1  6
  2  3  1  0
  3  4  1  0
  4  5  1  0
  5  6  2  0
  5  7  1  0
  7  8  1  0
  8  9  1  0
  2 10  1  0
 10 11  1  6
 11 12  1  0
 13 12  1  6
 13 14  1  0
 14 15  1  1
 15 16  1  0
 17 16  1  1
 17 18  1  0
 18 19  1  0
 19 20  1  6
 19 21  1  0
 21 22  1  0
 22 23  1  0
 23 24  1  6
 23 25  1  0
 25 26  1  6
 26 27  1  0
 27 28  1  1
 27 29  1  0
 29 30  1  6
 29 10  1  0
 29 13  1  0
 25 14  1  0
 23 17  1  0
M  END
>  <MS_ID>  (978) 
MS1019

>  <SMILES>  (978) 
C[C@H](CCC(=O)OCO)[C@H]1CC[C@H]2[C@@H]3CC[C@@H]4C[C@@H](O)CC[C@]4(C)[C@H]3C[C@H](O)[C@]12C

>  <Structure_dimension>  (978) 
2D

$$$$
MS1020
     RDKit          2D

 28 31  0  0  0  0  0  0  0  0999 V2000
   -5.1275   -2.0302    0.0000 C   0  0  0  0  0  0  0  0  0  0  0  0
   -3.9468   -1.1050    0.0000 C   0  0  0  0  0  0  0  0  0  0  0  0
   -4.1576    0.3801    0.0000 C   0  0  0  0  0  0  0  0  0  0  0  0
   -5.5492    0.9401    0.0000 C   0  0  0  0  0  0  0  0  0  0  0  0
   -5.7600    2.4252    0.0000 C   0  0  0  0  0  0  0  0  0  0  0  0
   -4.5793    3.3503    0.0000 O   0  0  0  0  0  0  0  0  0  0  0  0
   -7.1516    2.9851    0.0000 O   0  0  0  0  0  0  0  0  0  0  0  0
   -2.5552   -1.6650    0.0000 C   0  0  0  0  0  0  0  0  0  0  0  0
   -2.1903   -3.1199    0.0000 C   0  0  0  0  0  0  0  0  0  0  0  0
   -0.6938   -3.2225    0.0000 C   0  0  0  0  0  0  0  0  0  0  0  0
   -0.1339   -1.8309    0.0000 C   0  0  0  0  0  0  0  0  0  0  0  0
    1.2750   -1.3159    0.0000 C   0  0  0  0  0  0  0  0  0  0  0  0
    2.4254   -2.2785    0.0000 C   0  0  0  0  0  0  0  0  0  0  0  0
    2.1670   -3.7560    0.0000 O   0  0  0  0  0  0  0  0  0  0  0  0
    3.8342   -1.7635    0.0000 C   0  0  0  0  0  0  0  0  0  0  0  0
    4.0926   -0.2859    0.0000 C   0  0  0  0  0  0  0  0  0  0  0  0
    5.5014    0.2291    0.0000 C   0  0  0  0  0  0  0  0  0  0  0  0
    5.7598    1.7067    0.0000 C   0  0  0  0  0  0  0  0  0  0  0  0
    7.1687    2.2217    0.0000 S   0  0  0  0  0  0  0  0  0  0  0  0
    4.6094    2.6692    0.0000 C   0  0  0  0  0  0  0  0  0  0  0  0
    3.2006    2.1542    0.0000 C   0  0  0  0  0  0  0  0  0  0  0  0
    2.9422    0.6767    0.0000 C   0  0  0  0  0  0  0  0  0  0  0  0
    1.7918    1.6392    0.0000 C   0  0  0  0  0  0  0  0  0  0  0  0
    1.5334    0.1617    0.0000 C   0  0  0  0  0  0  0  0  0  0  0  0
    0.3830    1.1242    0.0000 C   0  0  0  0  0  0  0  0  0  0  0  0
   -1.0259    0.6093    0.0000 C   0  0  0  0  0  0  0  0  0  0  0  0
   -1.2843   -0.8683    0.0000 C   0  0  0  0  0  0  0  0  0  0  0  0
   -2.5290   -0.0313    0.0000 C   0  0  0  0  0  0  0  0  0  0  0  0
  2  1  1  6
  2  3  1  0
  3  4  1  0
  4  5  1  0
  5  6  2  0
  5  7  1  0
  2  8  1  0
  8  9  1  6
  9 10  1  0
 11 10  1  6
 11 12  1  0
 12 13  1  1
 13 14  1  6
 13 15  1  0
 16 15  1  1
 16 17  1  0
 17 18  1  0
 18 19  1  1
 18 20  1  0
 20 21  1  0
 21 22  1  0
 22 23  1  6
 22 24  1  0
 24 25  1  6
 25 26  1  0
 26 27  1  0
 27 28  1  6
 27  8  1  0
 27 11  1  0
 24 12  1  0
 22 16  1  0
M  END
>  <MS_ID>  (979) 
MS1020

>  <SMILES>  (979) 
C[C@H](CCC(=O)O)[C@H]1CC[C@H]2[C@@H]3[C@@H](O)C[C@@H]4C[C@H](S)CC[C@]4(C)[C@H]3CC[C@]12C

>  <Structure_dimension>  (979) 
2D

$$$$
MS1021
     RDKit          2D

 32 35  0  0  0  0  0  0  0  0999 V2000
   -9.0946    1.0175    0.0000 C   0  0  0  0  0  0  0  0  0  0  0  0
   -7.6382    0.6585    0.0000 C   0  0  0  0  0  0  0  0  0  0  0  0
   -6.5991    1.7404    0.0000 C   0  0  0  0  0  0  0  0  0  0  0  0
   -7.0165    3.1811    0.0000 C   0  0  0  0  0  0  0  0  0  0  0  0
   -5.1427    1.3814    0.0000 C   0  0  0  0  0  0  0  0  0  0  0  0
   -4.1036    2.4632    0.0000 O   0  0  0  0  0  0  0  0  0  0  0  0
   -4.7254   -0.0593    0.0000 C   0  0  0  0  0  0  0  0  0  0  0  0
   -3.2689   -0.4183    0.0000 C   0  0  0  0  0  0  0  0  0  0  0  0
   -2.8516   -1.8591    0.0000 C   0  0  0  0  0  0  0  0  0  0  0  0
   -3.8907   -2.9409    0.0000 C   0  0  0  0  0  0  0  0  0  0  0  0
   -1.3952   -2.2180    0.0000 C   0  0  0  0  0  0  0  0  0  0  0  0
   -0.8295   -3.6073    0.0000 C   0  0  0  0  0  0  0  0  0  0  0  0
    0.6666   -3.4986    0.0000 C   0  0  0  0  0  0  0  0  0  0  0  0
    1.0255   -2.0422    0.0000 C   0  0  0  0  0  0  0  0  0  0  0  0
    2.3480   -1.3344    0.0000 C   0  0  0  0  0  0  0  0  0  0  0  0
    3.6222   -2.1258    0.0000 C   0  0  0  0  0  0  0  0  0  0  0  0
    3.5739   -3.6250    0.0000 O   0  0  0  0  0  0  0  0  0  0  0  0
    4.9447   -1.4180    0.0000 C   0  0  0  0  0  0  0  0  0  0  0  0
    4.9930    0.0812    0.0000 C   0  0  0  0  0  0  0  0  0  0  0  0
    6.3156    0.7890    0.0000 C   0  0  0  0  0  0  0  0  0  0  0  0
    6.3639    2.2882    0.0000 C   0  0  0  0  0  0  0  0  0  0  0  0
    7.6864    2.9960    0.0000 O   0  0  0  0  0  0  0  0  0  0  0  0
    5.0896    3.0796    0.0000 C   0  0  0  0  0  0  0  0  0  0  0  0
    3.7671    2.3719    0.0000 C   0  0  0  0  0  0  0  0  0  0  0  0
    3.7188    0.8726    0.0000 C   0  0  0  0  0  0  0  0  0  0  0  0
    2.4446    1.6641    0.0000 C   0  0  0  0  0  0  0  0  0  0  0  0
    2.3963    0.1648    0.0000 C   0  0  0  0  0  0  0  0  0  0  0  0
    1.1221    0.9563    0.0000 C   0  0  0  0  0  0  0  0  0  0  0  0
   -0.2004    0.2485    0.0000 C   0  0  0  0  0  0  0  0  0  0  0  0
   -1.4746    1.0399    0.0000 O   0  0  0  0  0  0  0  0  0  0  0  0
   -0.2487   -1.2507    0.0000 C   0  0  0  0  0  0  0  0  0  0  0  0
   -1.5987   -0.5968    0.0000 C   0  0  0  0  0  0  0  0  0  0  0  0
  1  2  2  0
  2  3  1  0
  3  4  1  6
  3  5  1  0
  5  6  2  0
  5  7  1  0
  7  8  1  0
  8  9  1  0
  9 10  1  6
  9 11  1  0
 11 12  1  6
 12 13  1  0
 14 13  1  6
 14 15  1  0
 15 16  1  1
 16 17  1  1
 16 18  1  0
 19 18  1  1
 19 20  1  0
 20 21  1  0
 21 22  1  1
 21 23  1  0
 23 24  1  0
 24 25  1  0
 25 26  1  6
 25 27  1  0
 27 28  1  6
 28 29  1  0
 29 30  1  1
 29 31  1  0
 31 32  1  6
 31 11  1  0
 31 14  1  0
 27 15  1  0
 25 19  1  0
M  END
>  <MS_ID>  (980) 
MS1021

>  <SMILES>  (980) 
C=C[C@H](C)C(=O)CC[C@@H](C)[C@H]1CC[C@H]2[C@@H]3[C@H](O)C[C@@H]4C[C@H](O)CC[C@]4(C)[C@H]3C[C@H](O)[C@]12C

>  <Structure_dimension>  (980) 
2D

$$$$
MS1022
     RDKit          2D

 31 34  0  0  0  0  0  0  0  0999 V2000
   -5.9300   -2.0191    0.0000 C   0  0  0  0  0  0  0  0  0  0  0  0
   -4.7075   -1.1499    0.0000 C   0  0  0  0  0  0  0  0  0  0  0  0
   -4.8490    0.3434    0.0000 C   0  0  0  0  0  0  0  0  0  0  0  0
   -6.2130    0.9675    0.0000 C   0  0  0  0  0  0  0  0  0  0  0  0
   -6.3545    2.4608    0.0000 C   0  0  0  0  0  0  0  0  0  0  0  0
   -5.1320    3.3300    0.0000 O   0  0  0  0  0  0  0  0  0  0  0  0
   -7.7185    3.0849    0.0000 O   0  0  0  0  0  0  0  0  0  0  0  0
   -3.3435   -1.7740    0.0000 C   0  0  0  0  0  0  0  0  0  0  0  0
   -3.0466   -3.2443    0.0000 C   0  0  0  0  0  0  0  0  0  0  0  0
   -1.5565   -3.4164    0.0000 C   0  0  0  0  0  0  0  0  0  0  0  0
   -0.9324   -2.0524    0.0000 C   0  0  0  0  0  0  0  0  0  0  0  0
    0.4988   -1.6035    0.0000 C   0  0  0  0  0  0  0  0  0  0  0  0
    1.6032   -2.6186    0.0000 C   0  0  0  0  0  0  0  0  0  0  0  0
    3.0345   -2.1697    0.0000 C   0  0  0  0  0  0  0  0  0  0  0  0
    3.3613   -0.7057    0.0000 C   0  0  0  0  0  0  0  0  0  0  0  0
    4.7926   -0.2568    0.0000 C   0  0  0  0  0  0  0  0  0  0  0  0
    5.1195    1.2071    0.0000 C   0  0  0  0  0  0  0  0  0  0  0  0
    6.5507    1.6560    0.0000 C   0  0  0  0  0  0  0  0  0  0  0  0
    7.6551    0.6409    0.0000 C   0  0  0  0  0  0  0  0  0  0  0  0
    7.3282   -0.8230    0.0000 O   0  0  0  0  0  0  0  0  0  0  0  0
    9.0864    1.0898    0.0000 O   0  0  0  0  0  0  0  0  0  0  0  0
    4.0151    2.2222    0.0000 C   0  0  0  0  0  0  0  0  0  0  0  0
    2.5838    1.7733    0.0000 C   0  0  0  0  0  0  0  0  0  0  0  0
    2.2570    0.3093    0.0000 C   0  0  0  0  0  0  0  0  0  0  0  0
    1.1526    1.3244    0.0000 C   0  0  0  0  0  0  0  0  0  0  0  0
    0.8257   -0.1396    0.0000 C   0  0  0  0  0  0  0  0  0  0  0  0
   -0.2787    0.8755    0.0000 C   0  0  0  0  0  0  0  0  0  0  0  0
   -1.7099    0.4266    0.0000 C   0  0  0  0  0  0  0  0  0  0  0  0
   -2.8143    1.4417    0.0000 O   0  0  0  0  0  0  0  0  0  0  0  0
   -2.0368   -1.0373    0.0000 C   0  0  0  0  0  0  0  0  0  0  0  0
   -3.2413   -0.1433    0.0000 C   0  0  0  0  0  0  0  0  0  0  0  0
  2  1  1  6
  2  3  1  0
  3  4  1  0
  4  5  1  0
  5  6  2  0
  5  7  1  0
  2  8  1  0
  8  9  1  6
  9 10  1  0
 11 10  1  6
 11 12  1  0
 12 13  1  1
 13 14  1  0
 15 14  1  1
 15 16  1  0
 16 17  1  0
 17 18  1  1
 18 19  1  0
 19 20  2  0
 19 21  1  0
 17 22  1  0
 22 23  1  0
 23 24  1  0
 24 25  1  6
 24 26  1  0
 26 27  1  6
 27 28  1  0
 28 29  1  6
 28 30  1  0
 30 31  1  6
 30  8  1  0
 30 11  1  0
 26 12  1  0
 24 15  1  0
M  END
>  <MS_ID>  (981) 
MS1022

>  <SMILES>  (981) 
C[C@H](CCC(=O)O)[C@H]1CC[C@H]2[C@@H]3CC[C@@H]4C[C@H](CC(=O)O)CC[C@]4(C)[C@H]3C[C@@H](O)[C@]12C

>  <Structure_dimension>  (981) 
2D

$$$$
MS1023
     RDKit          2D

 30 33  0  0  0  0  0  0  0  0999 V2000
   -4.5685   -2.6908    0.0000 C   0  0  0  0  0  0  0  0  0  0  0  0
   -3.4838   -1.6548    0.0000 C   0  0  0  0  0  0  0  0  0  0  0  0
   -3.8388   -0.1974    0.0000 C   0  0  0  0  0  0  0  0  0  0  0  0
   -5.2784    0.2240    0.0000 C   0  0  0  0  0  0  0  0  0  0  0  0
   -5.6333    1.6814    0.0000 C   0  0  0  0  0  0  0  0  0  0  0  0
   -4.5486    2.7174    0.0000 O   0  0  0  0  0  0  0  0  0  0  0  0
   -7.0729    2.1027    0.0000 C   0  0  0  0  0  0  0  0  0  0  0  0
   -7.4279    3.5601    0.0000 S   0  0  0  0  0  0  0  0  0  0  0  0
   -2.0442   -2.0761    0.0000 C   0  0  0  0  0  0  0  0  0  0  0  0
   -1.5389   -3.4884    0.0000 C   0  0  0  0  0  0  0  0  0  0  0  0
   -0.0395   -3.4442    0.0000 C   0  0  0  0  0  0  0  0  0  0  0  0
    0.3818   -2.0046    0.0000 C   0  0  0  0  0  0  0  0  0  0  0  0
    1.7336   -1.3544    0.0000 C   0  0  0  0  0  0  0  0  0  0  0  0
    2.9725   -2.1999    0.0000 C   0  0  0  0  0  0  0  0  0  0  0  0
    2.8597   -3.6957    0.0000 O   0  0  0  0  0  0  0  0  0  0  0  0
    4.3243   -1.5497    0.0000 C   0  0  0  0  0  0  0  0  0  0  0  0
    4.4371   -0.0540    0.0000 C   0  0  0  0  0  0  0  0  0  0  0  0
    5.7888    0.5962    0.0000 C   0  0  0  0  0  0  0  0  0  0  0  0
    5.9016    2.0920    0.0000 C   0  0  0  0  0  0  0  0  0  0  0  0
    7.2534    2.7422    0.0000 O   0  0  0  0  0  0  0  0  0  0  0  0
    4.6627    2.9375    0.0000 C   0  0  0  0  0  0  0  0  0  0  0  0
    3.3109    2.2873    0.0000 C   0  0  0  0  0  0  0  0  0  0  0  0
    3.1981    0.7916    0.0000 C   0  0  0  0  0  0  0  0  0  0  0  0
    1.9591    1.6371    0.0000 C   0  0  0  0  0  0  0  0  0  0  0  0
    1.8464    0.1414    0.0000 C   0  0  0  0  0  0  0  0  0  0  0  0
    0.6074    0.9869    0.0000 C   0  0  0  0  0  0  0  0  0  0  0  0
   -0.7444    0.3367    0.0000 C   0  0  0  0  0  0  0  0  0  0  0  0
   -1.9833    1.1823    0.0000 O   0  0  0  0  0  0  0  0  0  0  0  0
   -0.8572   -1.1590    0.0000 C   0  0  0  0  0  0  0  0  0  0  0  0
   -2.1777   -0.4476    0.0000 C   0  0  0  0  0  0  0  0  0  0  0  0
  2  1  1  6
  2  3  1  0
  3  4  1  0
  4  5  1  0
  5  6  2  0
  5  7  1  0
  7  8  1  0
  2  9  1  0
  9 10  1  6
 10 11  1  0
 12 11  1  6
 12 13  1  0
 13 14  1  1
 14 15  2  0
 14 16  1  0
 17 16  1  1
 17 18  1  0
 18 19  1  0
 19 20  1  1
 19 21  1  0
 21 22  1  0
 22 23  1  0
 23 24  1  6
 23 25  1  0
 25 26  1  6
 26 27  1  0
 27 28  1  1
 27 29  1  0
 29 30  1  6
 29  9  1  0
 29 12  1  0
 25 13  1  0
 23 17  1  0
M  END
>  <MS_ID>  (982) 
MS1023

>  <SMILES>  (982) 
C[C@H](CCC(=O)CS)[C@H]1CC[C@H]2[C@@H]3C(=O)C[C@@H]4C[C@H](O)CC[C@]4(C)[C@H]3C[C@H](O)[C@]12C

>  <Structure_dimension>  (982) 
2D

$$$$
MS1024
     RDKit          2D

 30 33  0  0  0  0  0  0  0  0999 V2000
   -4.5685   -2.6908    0.0000 C   0  0  0  0  0  0  0  0  0  0  0  0
   -3.4838   -1.6548    0.0000 C   0  0  0  0  0  0  0  0  0  0  0  0
   -3.8388   -0.1974    0.0000 C   0  0  0  0  0  0  0  0  0  0  0  0
   -5.2784    0.2240    0.0000 C   0  0  0  0  0  0  0  0  0  0  0  0
   -5.6333    1.6814    0.0000 C   0  0  0  0  0  0  0  0  0  0  0  0
   -4.5486    2.7174    0.0000 O   0  0  0  0  0  0  0  0  0  0  0  0
   -7.0729    2.1027    0.0000 C   0  0  0  0  0  0  0  0  0  0  0  0
   -7.4279    3.5601    0.0000 S   0  0  0  0  0  0  0  0  0  0  0  0
   -2.0442   -2.0761    0.0000 C   0  0  0  0  0  0  0  0  0  0  0  0
   -1.5389   -3.4884    0.0000 C   0  0  0  0  0  0  0  0  0  0  0  0
   -0.0395   -3.4442    0.0000 C   0  0  0  0  0  0  0  0  0  0  0  0
    0.3818   -2.0046    0.0000 C   0  0  0  0  0  0  0  0  0  0  0  0
    1.7336   -1.3544    0.0000 C   0  0  0  0  0  0  0  0  0  0  0  0
    2.9725   -2.1999    0.0000 C   0  0  0  0  0  0  0  0  0  0  0  0
    2.8597   -3.6957    0.0000 O   0  0  0  0  0  0  0  0  0  0  0  0
    4.3243   -1.5497    0.0000 C   0  0  0  0  0  0  0  0  0  0  0  0
    4.4371   -0.0540    0.0000 C   0  0  0  0  0  0  0  0  0  0  0  0
    5.7888    0.5962    0.0000 C   0  0  0  0  0  0  0  0  0  0  0  0
    5.9016    2.0920    0.0000 C   0  0  0  0  0  0  0  0  0  0  0  0
    7.2534    2.7422    0.0000 O   0  0  0  0  0  0  0  0  0  0  0  0
    4.6627    2.9375    0.0000 C   0  0  0  0  0  0  0  0  0  0  0  0
    3.3109    2.2873    0.0000 C   0  0  0  0  0  0  0  0  0  0  0  0
    3.1981    0.7916    0.0000 C   0  0  0  0  0  0  0  0  0  0  0  0
    1.9591    1.6371    0.0000 C   0  0  0  0  0  0  0  0  0  0  0  0
    1.8464    0.1414    0.0000 C   0  0  0  0  0  0  0  0  0  0  0  0
    0.6074    0.9869    0.0000 C   0  0  0  0  0  0  0  0  0  0  0  0
   -0.7444    0.3367    0.0000 C   0  0  0  0  0  0  0  0  0  0  0  0
   -1.9833    1.1823    0.0000 O   0  0  0  0  0  0  0  0  0  0  0  0
   -0.8572   -1.1590    0.0000 C   0  0  0  0  0  0  0  0  0  0  0  0
   -2.1777   -0.4476    0.0000 C   0  0  0  0  0  0  0  0  0  0  0  0
  2  1  1  6
  2  3  1  0
  3  4  1  0
  4  5  1  0
  5  6  2  0
  5  7  1  0
  7  8  1  0
  2  9  1  0
  9 10  1  6
 10 11  1  0
 12 11  1  6
 12 13  1  0
 13 14  1  1
 14 15  1  6
 14 16  1  0
 17 16  1  1
 17 18  1  0
 18 19  1  0
 19 20  1  1
 19 21  1  0
 21 22  1  0
 22 23  1  0
 23 24  1  6
 23 25  1  0
 25 26  1  6
 26 27  1  0
 27 28  1  6
 27 29  1  0
 29 30  1  6
 29  9  1  0
 29 12  1  0
 25 13  1  0
 23 17  1  0
M  END
>  <MS_ID>  (983) 
MS1024

>  <SMILES>  (983) 
C[C@H](CCC(=O)CS)[C@H]1CC[C@H]2[C@@H]3[C@@H](O)C[C@@H]4C[C@H](O)CC[C@]4(C)[C@H]3C[C@@H](O)[C@]12C

>  <Structure_dimension>  (983) 
2D

$$$$
MS1025
     RDKit          2D

 34 38  0  0  0  0  0  0  0  0999 V2000
   -2.6584   -3.5322    0.0000 C   0  0  0  0  0  0  0  0  0  0  0  0
   -1.7097   -2.3702    0.0000 C   0  0  0  0  0  0  0  0  0  0  0  0
   -2.2417   -0.9677    0.0000 C   0  0  0  0  0  0  0  0  0  0  0  0
   -3.7222   -0.7271    0.0000 C   0  0  0  0  0  0  0  0  0  0  0  0
   -4.2542    0.6754    0.0000 C   0  0  0  0  0  0  0  0  0  0  0  0
   -3.3055    1.8373    0.0000 O   0  0  0  0  0  0  0  0  0  0  0  0
   -5.7348    0.9160    0.0000 C   0  0  0  0  0  0  0  0  0  0  0  0
   -6.2667    2.3185    0.0000 C   0  0  0  0  0  0  0  0  0  0  0  0
   -7.7473    2.5591    0.0000 C   0  0  0  0  0  0  0  0  0  0  0  0
   -8.6959    1.3971    0.0000 C   0  0  0  0  0  0  0  0  0  0  0  0
  -10.1765    1.6377    0.0000 O   0  0  0  0  0  0  0  0  0  0  0  0
   -8.1640   -0.0054    0.0000 C   0  0  0  0  0  0  0  0  0  0  0  0
   -6.6834   -0.2460    0.0000 C   0  0  0  0  0  0  0  0  0  0  0  0
   -0.2291   -2.6108    0.0000 C   0  0  0  0  0  0  0  0  0  0  0  0
    0.4465   -3.9500    0.0000 C   0  0  0  0  0  0  0  0  0  0  0  0
    1.9290   -3.7213    0.0000 C   0  0  0  0  0  0  0  0  0  0  0  0
    2.1695   -2.2407    0.0000 C   0  0  0  0  0  0  0  0  0  0  0  0
    3.4308   -1.4288    0.0000 C   0  0  0  0  0  0  0  0  0  0  0  0
    4.7646   -2.1152    0.0000 C   0  0  0  0  0  0  0  0  0  0  0  0
    6.0258   -1.3033    0.0000 C   0  0  0  0  0  0  0  0  0  0  0  0
    5.9533    0.1950    0.0000 C   0  0  0  0  0  0  0  0  0  0  0  0
    7.2146    1.0069    0.0000 C   0  0  0  0  0  0  0  0  0  0  0  0
    7.1421    2.5052    0.0000 C   0  0  0  0  0  0  0  0  0  0  0  0
    8.4034    3.3171    0.0000 O   0  0  0  0  0  0  0  0  0  0  0  0
    5.8083    3.1915    0.0000 C   0  0  0  0  0  0  0  0  0  0  0  0
    4.5471    2.3796    0.0000 C   0  0  0  0  0  0  0  0  0  0  0  0
    4.6196    0.8813    0.0000 C   0  0  0  0  0  0  0  0  0  0  0  0
    3.2858    1.5677    0.0000 C   0  0  0  0  0  0  0  0  0  0  0  0
    3.3583    0.0694    0.0000 C   0  0  0  0  0  0  0  0  0  0  0  0
    2.0245    0.7558    0.0000 C   0  0  0  0  0  0  0  0  0  0  0  0
    0.7633   -0.0562    0.0000 C   0  0  0  0  0  0  0  0  0  0  0  0
   -0.5705    0.6302    0.0000 O   0  0  0  0  0  0  0  0  0  0  0  0
    0.8358   -1.5544    0.0000 C   0  0  0  0  0  0  0  0  0  0  0  0
   -0.5624   -1.0113    0.0000 C   0  0  0  0  0  0  0  0  0  0  0  0
  2  1  1  6
  2  3  1  0
  3  4  1  0
  4  5  1  0
  5  6  2  0
  5  7  1  0
  7  8  2  0
  8  9  1  0
  9 10  2  0
 10 11  1  0
 10 12  1  0
 12 13  2  0
  2 14  1  0
 14 15  1  6
 15 16  1  0
 17 16  1  6
 17 18  1  0
 18 19  1  1
 19 20  1  0
 21 20  1  1
 21 22  1  0
 22 23  1  0
 23 24  1  1
 23 25  1  0
 25 26  1  0
 26 27  1  0
 27 28  1  6
 27 29  1  0
 29 30  1  6
 30 31  1  0
 31 32  1  1
 31 33  1  0
 33 34  1  6
 13  7  1  0
 33 14  1  0
 33 17  1  0
 29 18  1  0
 27 21  1  0
M  END
>  <MS_ID>  (984) 
MS1025

>  <SMILES>  (984) 
C[C@H](CCC(=O)c1ccc(O)cc1)[C@H]1CC[C@H]2[C@@H]3CC[C@@H]4C[C@H](O)CC[C@]4(C)[C@H]3C[C@H](O)[C@]12C

>  <Structure_dimension>  (984) 
2D

$$$$
MS1027
     RDKit          2D

 33 36  0  0  0  0  0  0  0  0999 V2000
   -2.3545   -4.2141    0.0000 C   0  0  0  0  0  0  0  0  0  0  0  0
   -1.5746   -2.9328    0.0000 C   0  0  0  0  0  0  0  0  0  0  0  0
   -2.2943   -1.6167    0.0000 C   0  0  0  0  0  0  0  0  0  0  0  0
   -3.7939   -1.5819    0.0000 C   0  0  0  0  0  0  0  0  0  0  0  0
   -4.5135   -0.2658    0.0000 C   0  0  0  0  0  0  0  0  0  0  0  0
   -3.7336    1.0155    0.0000 O   0  0  0  0  0  0  0  0  0  0  0  0
   -6.0131   -0.2310    0.0000 C   0  0  0  0  0  0  0  0  0  0  0  0
   -6.7328    1.0851    0.0000 C   0  0  0  0  0  0  0  0  0  0  0  0
   -8.2324    1.1199    0.0000 C   0  0  0  0  0  0  0  0  0  0  0  0
   -8.9520    2.4360    0.0000 C   0  0  0  0  0  0  0  0  0  0  0  0
   -8.1721    3.7173    0.0000 O   0  0  0  0  0  0  0  0  0  0  0  0
  -10.4516    2.4708    0.0000 O   0  0  0  0  0  0  0  0  0  0  0  0
   -0.0750   -2.9676    0.0000 C   0  0  0  0  0  0  0  0  0  0  0  0
    0.7783   -4.2012    0.0000 C   0  0  0  0  0  0  0  0  0  0  0  0
    2.2152   -3.7709    0.0000 C   0  0  0  0  0  0  0  0  0  0  0  0
    2.2500   -2.2713    0.0000 C   0  0  0  0  0  0  0  0  0  0  0  0
    3.3877   -1.2938    0.0000 C   0  0  0  0  0  0  0  0  0  0  0  0
    4.8032   -1.7903    0.0000 C   0  0  0  0  0  0  0  0  0  0  0  0
    5.9409   -0.8127    0.0000 C   0  0  0  0  0  0  0  0  0  0  0  0
    5.6632    0.6614    0.0000 C   0  0  0  0  0  0  0  0  0  0  0  0
    6.8009    1.6389    0.0000 C   0  0  0  0  0  0  0  0  0  0  0  0
    6.5231    3.1130    0.0000 C   0  0  0  0  0  0  0  0  0  0  0  0
    7.6608    4.0905    0.0000 O   0  0  0  0  0  0  0  0  0  0  0  0
    5.1077    3.6095    0.0000 C   0  0  0  0  0  0  0  0  0  0  0  0
    3.9700    2.6319    0.0000 C   0  0  0  0  0  0  0  0  0  0  0  0
    4.2477    1.1579    0.0000 C   0  0  0  0  0  0  0  0  0  0  0  0
    2.8323    1.6544    0.0000 C   0  0  0  0  0  0  0  0  0  0  0  0
    3.1100    0.1803    0.0000 C   0  0  0  0  0  0  0  0  0  0  0  0
    1.6946    0.6768    0.0000 C   0  0  0  0  0  0  0  0  0  0  0  0
    0.5569   -0.3008    0.0000 C   0  0  0  0  0  0  0  0  0  0  0  0
   -0.8586    0.1957    0.0000 O   0  0  0  0  0  0  0  0  0  0  0  0
    0.8346   -1.7748    0.0000 C   0  0  0  0  0  0  0  0  0  0  0  0
   -0.6250   -1.4290    0.0000 C   0  0  0  0  0  0  0  0  0  0  0  0
  2  1  1  6
  2  3  1  0
  3  4  1  0
  4  5  1  0
  5  6  2  0
  5  7  1  0
  7  8  1  0
  8  9  1  0
  9 10  1  0
 10 11  2  0
 10 12  1  0
  2 13  1  0
 13 14  1  6
 14 15  1  0
 16 15  1  6
 16 17  1  0
 17 18  1  1
 18 19  1  0
 20 19  1  1
 20 21  1  0
 21 22  1  0
 22 23  1  1
 22 24  1  0
 24 25  1  0
 25 26  1  0
 26 27  1  6
 26 28  1  0
 28 29  1  6
 29 30  1  0
 30 31  1  1
 30 32  1  0
 32 33  1  6
 32 13  1  0
 32 16  1  0
 28 17  1  0
 26 20  1  0
M  END
>  <MS_ID>  (985) 
MS1027

>  <SMILES>  (985) 
C[C@H](CCC(=O)CCCC(=O)O)[C@H]1CC[C@H]2[C@@H]3CC[C@@H]4C[C@H](O)CC[C@]4(C)[C@H]3C[C@H](O)[C@]12C

>  <Structure_dimension>  (985) 
2D

$$$$
MS1028
     RDKit          2D

 31 34  0  0  0  0  0  0  0  0999 V2000
   -7.5670    3.7816    0.0000 C   0  0  0  0  0  0  0  0  0  0  0  0
   -7.2663    2.3121    0.0000 O   0  0  0  0  0  0  0  0  0  0  0  0
   -5.8432    1.8378    0.0000 C   0  0  0  0  0  0  0  0  0  0  0  0
   -4.7209    2.8330    0.0000 O   0  0  0  0  0  0  0  0  0  0  0  0
   -5.5425    0.3682    0.0000 C   0  0  0  0  0  0  0  0  0  0  0  0
   -4.1195   -0.1061    0.0000 C   0  0  0  0  0  0  0  0  0  0  0  0
   -3.8187   -1.5756    0.0000 C   0  0  0  0  0  0  0  0  0  0  0  0
   -4.9410   -2.5709    0.0000 C   0  0  0  0  0  0  0  0  0  0  0  0
   -2.3957   -2.0500    0.0000 C   0  0  0  0  0  0  0  0  0  0  0  0
   -1.9430   -3.4800    0.0000 C   0  0  0  0  0  0  0  0  0  0  0  0
   -0.4430   -3.4914    0.0000 C   0  0  0  0  0  0  0  0  0  0  0  0
    0.0313   -2.0683    0.0000 C   0  0  0  0  0  0  0  0  0  0  0  0
    1.4062   -1.4686    0.0000 C   0  0  0  0  0  0  0  0  0  0  0  0
    2.6130   -2.3595    0.0000 C   0  0  0  0  0  0  0  0  0  0  0  0
    2.4449   -3.8500    0.0000 O   0  0  0  0  0  0  0  0  0  0  0  0
    3.9879   -1.7598    0.0000 C   0  0  0  0  0  0  0  0  0  0  0  0
    4.1560   -0.2692    0.0000 C   0  0  0  0  0  0  0  0  0  0  0  0
    5.5309    0.3305    0.0000 C   0  0  0  0  0  0  0  0  0  0  0  0
    5.6990    1.8210    0.0000 C   0  0  0  0  0  0  0  0  0  0  0  0
    7.0739    2.4208    0.0000 O   0  0  0  0  0  0  0  0  0  0  0  0
    8.2807    1.5299    0.0000 C   0  0  0  0  0  0  0  0  0  0  0  0
    4.4922    2.7119    0.0000 C   0  0  0  0  0  0  0  0  0  0  0  0
    3.1173    2.1122    0.0000 C   0  0  0  0  0  0  0  0  0  0  0  0
    2.9492    0.6216    0.0000 C   0  0  0  0  0  0  0  0  0  0  0  0
    1.7424    1.5125    0.0000 C   0  0  0  0  0  0  0  0  0  0  0  0
    1.5743    0.0219    0.0000 C   0  0  0  0  0  0  0  0  0  0  0  0
    0.3675    0.9128    0.0000 C   0  0  0  0  0  0  0  0  0  0  0  0
   -1.0074    0.3131    0.0000 C   0  0  0  0  0  0  0  0  0  0  0  0
   -2.2142    1.2039    0.0000 O   0  0  0  0  0  0  0  0  0  0  0  0
   -1.1755   -1.1775    0.0000 C   0  0  0  0  0  0  0  0  0  0  0  0
   -2.4688   -0.4177    0.0000 C   0  0  0  0  0  0  0  0  0  0  0  0
  1  2  1  0
  2  3  1  0
  3  4  2  0
  3  5  1  0
  5  6  1  0
  6  7  1  0
  7  8  1  6
  7  9  1  0
  9 10  1  6
 10 11  1  0
 12 11  1  6
 12 13  1  0
 13 14  1  1
 14 15  1  1
 14 16  1  0
 17 16  1  1
 17 18  1  0
 18 19  1  0
 19 20  1  1
 20 21  1  0
 19 22  1  0
 22 23  1  0
 23 24  1  0
 24 25  1  6
 24 26  1  0
 26 27  1  6
 27 28  1  0
 28 29  1  1
 28 30  1  0
 30 31  1  6
 30  9  1  0
 30 12  1  0
 26 13  1  0
 24 17  1  0
M  END
>  <MS_ID>  (986) 
MS1028

>  <SMILES>  (986) 
COC(=O)CC[C@@H](C)[C@H]1CC[C@H]2[C@@H]3[C@H](O)C[C@@H]4C[C@H](OC)CC[C@]4(C)[C@H]3C[C@H](O)[C@]12C

>  <Structure_dimension>  (986) 
2D

$$$$
MS1029
     RDKit          2D

 30 33  0  0  0  0  0  0  0  0999 V2000
   -4.5685   -2.6908    0.0000 C   0  0  0  0  0  0  0  0  0  0  0  0
   -3.4838   -1.6548    0.0000 C   0  0  0  0  0  0  0  0  0  0  0  0
   -3.8388   -0.1974    0.0000 C   0  0  0  0  0  0  0  0  0  0  0  0
   -5.2784    0.2240    0.0000 C   0  0  0  0  0  0  0  0  0  0  0  0
   -5.6333    1.6814    0.0000 C   0  0  0  0  0  0  0  0  0  0  0  0
   -4.5486    2.7174    0.0000 O   0  0  0  0  0  0  0  0  0  0  0  0
   -7.0729    2.1027    0.0000 C   0  0  0  0  0  0  0  0  0  0  0  0
   -7.4279    3.5601    0.0000 N   0  0  0  0  0  0  0  0  0  0  0  0
   -2.0442   -2.0761    0.0000 C   0  0  0  0  0  0  0  0  0  0  0  0
   -1.5389   -3.4884    0.0000 C   0  0  0  0  0  0  0  0  0  0  0  0
   -0.0395   -3.4442    0.0000 C   0  0  0  0  0  0  0  0  0  0  0  0
    0.3818   -2.0046    0.0000 C   0  0  0  0  0  0  0  0  0  0  0  0
    1.7336   -1.3544    0.0000 C   0  0  0  0  0  0  0  0  0  0  0  0
    2.9725   -2.1999    0.0000 C   0  0  0  0  0  0  0  0  0  0  0  0
    2.8597   -3.6957    0.0000 O   0  0  0  0  0  0  0  0  0  0  0  0
    4.3243   -1.5497    0.0000 C   0  0  0  0  0  0  0  0  0  0  0  0
    4.4371   -0.0540    0.0000 C   0  0  0  0  0  0  0  0  0  0  0  0
    5.7888    0.5962    0.0000 C   0  0  0  0  0  0  0  0  0  0  0  0
    5.9016    2.0920    0.0000 C   0  0  0  0  0  0  0  0  0  0  0  0
    7.2534    2.7422    0.0000 O   0  0  0  0  0  0  0  0  0  0  0  0
    4.6627    2.9375    0.0000 C   0  0  0  0  0  0  0  0  0  0  0  0
    3.3109    2.2873    0.0000 C   0  0  0  0  0  0  0  0  0  0  0  0
    3.1981    0.7916    0.0000 C   0  0  0  0  0  0  0  0  0  0  0  0
    1.9591    1.6371    0.0000 C   0  0  0  0  0  0  0  0  0  0  0  0
    1.8464    0.1414    0.0000 C   0  0  0  0  0  0  0  0  0  0  0  0
    0.6074    0.9869    0.0000 C   0  0  0  0  0  0  0  0  0  0  0  0
   -0.7444    0.3367    0.0000 C   0  0  0  0  0  0  0  0  0  0  0  0
   -1.9833    1.1823    0.0000 O   0  0  0  0  0  0  0  0  0  0  0  0
   -0.8572   -1.1590    0.0000 C   0  0  0  0  0  0  0  0  0  0  0  0
   -2.1777   -0.4476    0.0000 C   0  0  0  0  0  0  0  0  0  0  0  0
  2  1  1  6
  2  3  1  0
  3  4  1  0
  4  5  1  0
  5  6  2  0
  5  7  1  0
  7  8  1  0
  2  9  1  0
  9 10  1  6
 10 11  1  0
 12 11  1  6
 12 13  1  0
 13 14  1  1
 14 15  1  1
 14 16  1  0
 17 16  1  1
 17 18  1  0
 18 19  1  0
 19 20  2  0
 19 21  1  0
 21 22  1  0
 22 23  1  0
 23 24  1  6
 23 25  1  0
 25 26  1  6
 26 27  1  0
 27 28  1  1
 27 29  1  0
 29 30  1  6
 29  9  1  0
 29 12  1  0
 25 13  1  0
 23 17  1  0
M  END
>  <MS_ID>  (987) 
MS1029

>  <SMILES>  (987) 
C[C@H](CCC(=O)CN)[C@H]1CC[C@H]2[C@@H]3[C@H](O)C[C@@H]4CC(=O)CC[C@]4(C)[C@H]3C[C@H](O)[C@]12C

>  <Structure_dimension>  (987) 
2D

$$$$
MS1030
     RDKit          2D

 33 36  0  0  0  0  0  0  0  0999 V2000
   -2.4343   -4.1694    0.0000 C   0  0  0  0  0  0  0  0  0  0  0  0
   -1.6856   -2.8696    0.0000 C   0  0  0  0  0  0  0  0  0  0  0  0
   -2.4369   -1.5713    0.0000 C   0  0  0  0  0  0  0  0  0  0  0  0
   -3.9369   -1.5728    0.0000 C   0  0  0  0  0  0  0  0  0  0  0  0
   -4.6882   -0.2745    0.0000 C   0  0  0  0  0  0  0  0  0  0  0  0
   -3.9395    1.0253    0.0000 O   0  0  0  0  0  0  0  0  0  0  0  0
   -6.1882   -0.2760    0.0000 C   0  0  0  0  0  0  0  0  0  0  0  0
   -6.9395    1.0223    0.0000 S   0  0  0  0  0  0  0  0  0  0  0  0
   -8.4395    1.0208    0.0000 C   0  0  0  0  0  0  0  0  0  0  0  0
   -9.1908    2.3191    0.0000 C   0  0  0  0  0  0  0  0  0  0  0  0
   -8.4421    3.6189    0.0000 O   0  0  0  0  0  0  0  0  0  0  0  0
  -10.6908    2.3176    0.0000 O   0  0  0  0  0  0  0  0  0  0  0  0
   -0.1856   -2.8681    0.0000 C   0  0  0  0  0  0  0  0  0  0  0  0
    0.6973   -4.0807    0.0000 C   0  0  0  0  0  0  0  0  0  0  0  0
    2.1234   -3.6158    0.0000 C   0  0  0  0  0  0  0  0  0  0  0  0
    2.1219   -2.1158    0.0000 C   0  0  0  0  0  0  0  0  0  0  0  0
    3.2356   -1.1109    0.0000 C   0  0  0  0  0  0  0  0  0  0  0  0
    4.6626   -1.5730    0.0000 C   0  0  0  0  0  0  0  0  0  0  0  0
    4.9760   -3.0399    0.0000 O   0  0  0  0  0  0  0  0  0  0  0  0
    5.7764   -0.5682    0.0000 C   0  0  0  0  0  0  0  0  0  0  0  0
    5.4630    0.8987    0.0000 C   0  0  0  0  0  0  0  0  0  0  0  0
    6.5767    1.9035    0.0000 C   0  0  0  0  0  0  0  0  0  0  0  0
    6.2634    3.3704    0.0000 C   0  0  0  0  0  0  0  0  0  0  0  0
    7.3771    4.3752    0.0000 O   0  0  0  0  0  0  0  0  0  0  0  0
    4.8363    3.8325    0.0000 C   0  0  0  0  0  0  0  0  0  0  0  0
    3.7226    2.8277    0.0000 C   0  0  0  0  0  0  0  0  0  0  0  0
    4.0360    1.3608    0.0000 C   0  0  0  0  0  0  0  0  0  0  0  0
    2.6089    1.8229    0.0000 C   0  0  0  0  0  0  0  0  0  0  0  0
    2.9223    0.3560    0.0000 C   0  0  0  0  0  0  0  0  0  0  0  0
    1.4952    0.8181    0.0000 C   0  0  0  0  0  0  0  0  0  0  0  0
    0.3815   -0.1867    0.0000 C   0  0  0  0  0  0  0  0  0  0  0  0
    0.6948   -1.6537    0.0000 C   0  0  0  0  0  0  0  0  0  0  0  0
   -0.7727   -1.3433    0.0000 C   0  0  0  0  0  0  0  0  0  0  0  0
  2  1  1  6
  2  3  1  0
  3  4  1  0
  4  5  1  0
  5  6  2  0
  5  7  1  0
  7  8  1  0
  8  9  1  0
  9 10  1  0
 10 11  2  0
 10 12  1  0
  2 13  1  0
 13 14  1  6
 14 15  1  0
 16 15  1  6
 16 17  1  0
 17 18  1  1
 18 19  1  1
 18 20  1  0
 21 20  1  1
 21 22  1  0
 22 23  1  0
 23 24  1  1
 23 25  1  0
 25 26  1  0
 26 27  1  0
 27 28  1  6
 27 29  1  0
 29 30  1  6
 30 31  1  0
 31 32  1  0
 32 33  1  6
 32 13  1  0
 32 16  1  0
 29 17  1  0
 27 21  1  0
M  END
>  <MS_ID>  (988) 
MS1030

>  <SMILES>  (988) 
C[C@H](CCC(=O)CSCC(=O)O)[C@H]1CC[C@H]2[C@@H]3[C@H](O)C[C@@H]4C[C@H](O)CC[C@]4(C)[C@H]3CC[C@]12C

>  <Structure_dimension>  (988) 
2D

$$$$
MS1031
     RDKit          2D

 29 32  0  0  0  0  0  0  0  0999 V2000
   -4.6551   -2.6180    0.0000 C   0  0  0  0  0  0  0  0  0  0  0  0
   -3.5633   -1.5894    0.0000 C   0  0  0  0  0  0  0  0  0  0  0  0
   -3.9081   -0.1296    0.0000 C   0  0  0  0  0  0  0  0  0  0  0  0
   -5.3448    0.3016    0.0000 C   0  0  0  0  0  0  0  0  0  0  0  0
   -5.6897    1.7615    0.0000 C   0  0  0  0  0  0  0  0  0  0  0  0
   -4.5979    2.7900    0.0000 O   0  0  0  0  0  0  0  0  0  0  0  0
   -7.1264    2.1927    0.0000 N   0  0  0  0  0  0  0  0  0  0  0  0
   -7.4712    3.6525    0.0000 N   0  0  0  0  0  0  0  0  0  0  0  0
   -2.1266   -2.0207    0.0000 C   0  0  0  0  0  0  0  0  0  0  0  0
   -1.6310   -3.4364    0.0000 C   0  0  0  0  0  0  0  0  0  0  0  0
   -0.1314   -3.4026    0.0000 C   0  0  0  0  0  0  0  0  0  0  0  0
    0.2998   -1.9659    0.0000 C   0  0  0  0  0  0  0  0  0  0  0  0
    1.6561   -1.3251    0.0000 C   0  0  0  0  0  0  0  0  0  0  0  0
    2.8892   -2.1792    0.0000 C   0  0  0  0  0  0  0  0  0  0  0  0
    2.7660   -3.6741    0.0000 O   0  0  0  0  0  0  0  0  0  0  0  0
    4.2454   -1.5383    0.0000 C   0  0  0  0  0  0  0  0  0  0  0  0
    4.3685   -0.0434    0.0000 C   0  0  0  0  0  0  0  0  0  0  0  0
    5.7247    0.5975    0.0000 C   0  0  0  0  0  0  0  0  0  0  0  0
    5.8478    2.0924    0.0000 C   0  0  0  0  0  0  0  0  0  0  0  0
    7.2040    2.7332    0.0000 O   0  0  0  0  0  0  0  0  0  0  0  0
    4.6147    2.9465    0.0000 C   0  0  0  0  0  0  0  0  0  0  0  0
    3.2585    2.3056    0.0000 C   0  0  0  0  0  0  0  0  0  0  0  0
    3.1354    0.8107    0.0000 C   0  0  0  0  0  0  0  0  0  0  0  0
    1.9023    1.6648    0.0000 C   0  0  0  0  0  0  0  0  0  0  0  0
    1.7792    0.1699    0.0000 C   0  0  0  0  0  0  0  0  0  0  0  0
    0.5461    1.0239    0.0000 C   0  0  0  0  0  0  0  0  0  0  0  0
   -0.8101    0.3831    0.0000 C   0  0  0  0  0  0  0  0  0  0  0  0
   -0.9333   -1.1118    0.0000 C   0  0  0  0  0  0  0  0  0  0  0  0
   -2.2489   -0.3913    0.0000 C   0  0  0  0  0  0  0  0  0  0  0  0
  2  1  1  6
  2  3  1  0
  3  4  1  0
  4  5  1  0
  5  6  2  0
  5  7  1  0
  7  8  1  0
  2  9  1  0
  9 10  1  6
 10 11  1  0
 12 11  1  6
 12 13  1  0
 13 14  1  1
 14 15  1  6
 14 16  1  0
 17 16  1  1
 17 18  1  0
 18 19  1  0
 19 20  1  1
 19 21  1  0
 21 22  1  0
 22 23  1  0
 23 24  1  6
 23 25  1  0
 25 26  1  6
 26 27  1  0
 27 28  1  0
 28 29  1  6
 28  9  1  0
 28 12  1  0
 25 13  1  0
 23 17  1  0
M  END
>  <MS_ID>  (989) 
MS1031

>  <SMILES>  (989) 
C[C@H](CCC(=O)NN)[C@H]1CC[C@H]2[C@@H]3[C@@H](O)C[C@@H]4C[C@H](O)CC[C@]4(C)[C@H]3CC[C@]12C

>  <Structure_dimension>  (989) 
2D

$$$$
MS1032
     RDKit          2D

 35 39  0  0  0  0  0  0  0  0999 V2000
   -3.0498   -3.2774    0.0000 C   0  0  0  0  0  0  0  0  0  0  0  0
   -2.1025   -2.1144    0.0000 C   0  0  0  0  0  0  0  0  0  0  0  0
   -2.6360   -0.7125    0.0000 C   0  0  0  0  0  0  0  0  0  0  0  0
   -4.1169   -0.4736    0.0000 C   0  0  0  0  0  0  0  0  0  0  0  0
   -4.6504    0.9283    0.0000 C   0  0  0  0  0  0  0  0  0  0  0  0
   -3.7031    2.0913    0.0000 O   0  0  0  0  0  0  0  0  0  0  0  0
   -6.1313    1.1672    0.0000 C   0  0  0  0  0  0  0  0  0  0  0  0
   -6.6648    2.5691    0.0000 C   0  0  0  0  0  0  0  0  0  0  0  0
   -8.1456    2.8080    0.0000 C   0  0  0  0  0  0  0  0  0  0  0  0
   -9.0930    1.6450    0.0000 C   0  0  0  0  0  0  0  0  0  0  0  0
   -8.5594    0.2431    0.0000 C   0  0  0  0  0  0  0  0  0  0  0  0
   -9.5068   -0.9199    0.0000 O   0  0  0  0  0  0  0  0  0  0  0  0
   -7.0786    0.0042    0.0000 C   0  0  0  0  0  0  0  0  0  0  0  0
   -0.6216   -2.3533    0.0000 C   0  0  0  0  0  0  0  0  0  0  0  0
    0.0555   -3.6917    0.0000 C   0  0  0  0  0  0  0  0  0  0  0  0
    1.5377   -3.4613    0.0000 C   0  0  0  0  0  0  0  0  0  0  0  0
    1.7766   -1.9805    0.0000 C   0  0  0  0  0  0  0  0  0  0  0  0
    3.0370   -1.1671    0.0000 C   0  0  0  0  0  0  0  0  0  0  0  0
    4.3715   -1.8520    0.0000 C   0  0  0  0  0  0  0  0  0  0  0  0
    4.4457   -3.3501    0.0000 O   0  0  0  0  0  0  0  0  0  0  0  0
    5.6319   -1.0386    0.0000 C   0  0  0  0  0  0  0  0  0  0  0  0
    6.9664   -1.7234    0.0000 O   0  0  0  0  0  0  0  0  0  0  0  0
    5.5576    0.4596    0.0000 C   0  0  0  0  0  0  0  0  0  0  0  0
    6.8180    1.2729    0.0000 C   0  0  0  0  0  0  0  0  0  0  0  0
    6.7438    2.7711    0.0000 C   0  0  0  0  0  0  0  0  0  0  0  0
    8.0041    3.5844    0.0000 O   0  0  0  0  0  0  0  0  0  0  0  0
    5.4092    3.4559    0.0000 C   0  0  0  0  0  0  0  0  0  0  0  0
    4.1489    2.6425    0.0000 C   0  0  0  0  0  0  0  0  0  0  0  0
    4.2231    1.1444    0.0000 C   0  0  0  0  0  0  0  0  0  0  0  0
    2.8885    1.8292    0.0000 C   0  0  0  0  0  0  0  0  0  0  0  0
    2.9628    0.3310    0.0000 C   0  0  0  0  0  0  0  0  0  0  0  0
    1.6282    1.0158    0.0000 C   0  0  0  0  0  0  0  0  0  0  0  0
    0.3679    0.2025    0.0000 C   0  0  0  0  0  0  0  0  0  0  0  0
    0.4421   -1.2957    0.0000 C   0  0  0  0  0  0  0  0  0  0  0  0
   -0.9568   -0.7541    0.0000 C   0  0  0  0  0  0  0  0  0  0  0  0
  2  1  1  6
  2  3  1  0
  3  4  1  0
  4  5  1  0
  5  6  2  0
  5  7  1  0
  7  8  2  0
  8  9  1  0
  9 10  2  0
 10 11  1  0
 11 12  1  0
 11 13  2  0
  2 14  1  0
 14 15  1  6
 15 16  1  0
 17 16  1  6
 17 18  1  0
 18 19  1  1
 19 20  1  1
 19 21  1  0
 21 22  1  1
 21 23  1  0
 23 24  1  1
 24 25  1  0
 25 26  1  1
 25 27  1  0
 27 28  1  0
 28 29  1  0
 29 30  1  6
 29 31  1  0
 31 32  1  6
 32 33  1  0
 33 34  1  0
 34 35  1  6
 13  7  1  0
 34 14  1  0
 34 17  1  0
 31 18  1  0
 29 23  1  0
M  END
>  <MS_ID>  (990) 
MS1032

>  <SMILES>  (990) 
C[C@H](CCC(=O)c1cccc(O)c1)[C@H]1CC[C@H]2[C@@H]3[C@H](O)[C@H](O)[C@@H]4C[C@H](O)CC[C@]4(C)[C@H]3CC[C@]12C

>  <Structure_dimension>  (990) 
2D

$$$$
MS1033
     RDKit          2D

 36 40  0  0  0  0  0  0  0  0999 V2000
   -2.7499   -3.0587    0.0000 C   0  0  0  0  0  0  0  0  0  0  0  0
   -1.7443   -1.9457    0.0000 C   0  0  0  0  0  0  0  0  0  0  0  0
   -2.2054   -0.5183    0.0000 C   0  0  0  0  0  0  0  0  0  0  0  0
   -3.6721   -0.2040    0.0000 C   0  0  0  0  0  0  0  0  0  0  0  0
   -4.1332    1.2234    0.0000 C   0  0  0  0  0  0  0  0  0  0  0  0
   -3.1276    2.3364    0.0000 O   0  0  0  0  0  0  0  0  0  0  0  0
   -5.5999    1.5377    0.0000 C   0  0  0  0  0  0  0  0  0  0  0  0
   -6.0610    2.9651    0.0000 C   0  0  0  0  0  0  0  0  0  0  0  0
   -7.5277    3.2794    0.0000 C   0  0  0  0  0  0  0  0  0  0  0  0
   -8.5333    2.1664    0.0000 C   0  0  0  0  0  0  0  0  0  0  0  0
   -8.0722    0.7390    0.0000 C   0  0  0  0  0  0  0  0  0  0  0  0
   -6.6055    0.4247    0.0000 C   0  0  0  0  0  0  0  0  0  0  0  0
   -6.1444   -1.0027    0.0000 C   0  0  0  0  0  0  0  0  0  0  0  0
   -4.6777   -1.3170    0.0000 O   0  0  0  0  0  0  0  0  0  0  0  0
   -7.1499   -2.1157    0.0000 O   0  0  0  0  0  0  0  0  0  0  0  0
   -0.2776   -2.2601    0.0000 C   0  0  0  0  0  0  0  0  0  0  0  0
    0.3302   -3.6314    0.0000 C   0  0  0  0  0  0  0  0  0  0  0  0
    1.8222   -3.4771    0.0000 C   0  0  0  0  0  0  0  0  0  0  0  0
    2.1366   -2.0104    0.0000 C   0  0  0  0  0  0  0  0  0  0  0  0
    3.4369   -1.2626    0.0000 C   0  0  0  0  0  0  0  0  0  0  0  0
    4.7347   -2.0148    0.0000 C   0  0  0  0  0  0  0  0  0  0  0  0
    4.7321   -3.5148    0.0000 O   0  0  0  0  0  0  0  0  0  0  0  0
    6.0350   -1.2670    0.0000 C   0  0  0  0  0  0  0  0  0  0  0  0
    6.0375    0.2330    0.0000 C   0  0  0  0  0  0  0  0  0  0  0  0
    7.3378    0.9808    0.0000 C   0  0  0  0  0  0  0  0  0  0  0  0
    7.3403    2.4808    0.0000 C   0  0  0  0  0  0  0  0  0  0  0  0
    8.6406    3.2286    0.0000 O   0  0  0  0  0  0  0  0  0  0  0  0
    6.0426    3.2330    0.0000 C   0  0  0  0  0  0  0  0  0  0  0  0
    4.7423    2.4852    0.0000 C   0  0  0  0  0  0  0  0  0  0  0  0
    4.7397    0.9852    0.0000 C   0  0  0  0  0  0  0  0  0  0  0  0
    3.4420    1.7374    0.0000 C   0  0  0  0  0  0  0  0  0  0  0  0
    3.4394    0.2374    0.0000 C   0  0  0  0  0  0  0  0  0  0  0  0
    2.1417    0.9896    0.0000 C   0  0  0  0  0  0  0  0  0  0  0  0
    0.8414    0.2418    0.0000 C   0  0  0  0  0  0  0  0  0  0  0  0
    0.8388   -1.2582    0.0000 C   0  0  0  0  0  0  0  0  0  0  0  0
   -0.5305   -0.6458    0.0000 C   0  0  0  0  0  0  0  0  0  0  0  0
  2  1  1  6
  2  3  1  0
  3  4  1  0
  4  5  1  0
  5  6  2  0
  5  7  1  0
  7  8  2  0
  8  9  1  0
  9 10  2  0
 10 11  1  0
 11 12  2  0
 12 13  1  0
 13 14  2  0
 13 15  1  0
  2 16  1  0
 16 17  1  6
 17 18  1  0
 19 18  1  6
 19 20  1  0
 20 21  1  1
 21 22  1  1
 21 23  1  0
 24 23  1  1
 24 25  1  0
 25 26  1  0
 26 27  1  1
 26 28  1  0
 28 29  1  0
 29 30  1  0
 30 31  1  6
 30 32  1  0
 32 33  1  6
 33 34  1  0
 34 35  1  0
 35 36  1  6
 12  7  1  0
 35 16  1  0
 35 19  1  0
 32 20  1  0
 30 24  1  0
M  END
>  <MS_ID>  (991) 
MS1033

>  <SMILES>  (991) 
C[C@H](CCC(=O)c1ccccc1C(=O)O)[C@H]1CC[C@H]2[C@@H]3[C@H](O)C[C@@H]4C[C@H](O)CC[C@]4(C)[C@H]3CC[C@]12C

>  <Structure_dimension>  (991) 
2D

$$$$
MS1034
     RDKit          2D

 30 33  0  0  0  0  0  0  0  0999 V2000
   -6.2541   -1.3640    0.0000 C   0  0  0  0  0  0  0  0  0  0  0  0
   -4.8726   -1.9483    0.0000 C   0  0  0  0  0  0  0  0  0  0  0  0
   -3.6758   -1.0440    0.0000 C   0  0  0  0  0  0  0  0  0  0  0  0
   -3.8606    0.4446    0.0000 C   0  0  0  0  0  0  0  0  0  0  0  0
   -5.2421    1.0289    0.0000 C   0  0  0  0  0  0  0  0  0  0  0  0
   -5.4268    2.5175    0.0000 C   0  0  0  0  0  0  0  0  0  0  0  0
   -4.2300    3.4217    0.0000 O   0  0  0  0  0  0  0  0  0  0  0  0
   -6.8083    3.1018    0.0000 O   0  0  0  0  0  0  0  0  0  0  0  0
   -2.2943   -1.6283    0.0000 C   0  0  0  0  0  0  0  0  0  0  0  0
   -1.9550   -3.0894    0.0000 C   0  0  0  0  0  0  0  0  0  0  0  0
   -0.4606   -3.2183    0.0000 C   0  0  0  0  0  0  0  0  0  0  0  0
    0.1238   -1.8367    0.0000 C   0  0  0  0  0  0  0  0  0  0  0  0
    1.5414   -1.3466    0.0000 C   0  0  0  0  0  0  0  0  0  0  0  0
    2.6747   -2.3292    0.0000 C   0  0  0  0  0  0  0  0  0  0  0  0
    2.3904   -3.8020    0.0000 O   0  0  0  0  0  0  0  0  0  0  0  0
    4.0924   -1.8390    0.0000 C   0  0  0  0  0  0  0  0  0  0  0  0
    4.3767   -0.3662    0.0000 C   0  0  0  0  0  0  0  0  0  0  0  0
    5.7943    0.1240    0.0000 C   0  0  0  0  0  0  0  0  0  0  0  0
    6.0787    1.5968    0.0000 C   0  0  0  0  0  0  0  0  0  0  0  0
    7.4963    2.0870    0.0000 O   0  0  0  0  0  0  0  0  0  0  0  0
    4.9453    2.5794    0.0000 C   0  0  0  0  0  0  0  0  0  0  0  0
    3.5277    2.0892    0.0000 C   0  0  0  0  0  0  0  0  0  0  0  0
    3.2434    0.6164    0.0000 C   0  0  0  0  0  0  0  0  0  0  0  0
    2.1100    1.5991    0.0000 C   0  0  0  0  0  0  0  0  0  0  0  0
    1.8257    0.1262    0.0000 C   0  0  0  0  0  0  0  0  0  0  0  0
    0.6924    1.1089    0.0000 C   0  0  0  0  0  0  0  0  0  0  0  0
   -0.7253    0.6187    0.0000 C   0  0  0  0  0  0  0  0  0  0  0  0
   -1.8586    1.6013    0.0000 O   0  0  0  0  0  0  0  0  0  0  0  0
   -1.0096   -0.8541    0.0000 C   0  0  0  0  0  0  0  0  0  0  0  0
   -2.2394    0.0047    0.0000 C   0  0  0  0  0  0  0  0  0  0  0  0
  1  2  1  0
  3  2  1  6
  3  4  1  0
  4  5  1  0
  5  6  1  0
  6  7  2  0
  6  8  1  0
  3  9  1  0
  9 10  1  6
 10 11  1  0
 12 11  1  6
 12 13  1  0
 13 14  1  1
 14 15  1  6
 14 16  1  0
 17 16  1  1
 17 18  1  0
 18 19  1  0
 19 20  1  1
 19 21  1  0
 21 22  1  0
 22 23  1  0
 23 24  1  6
 23 25  1  0
 25 26  1  6
 26 27  1  0
 27 28  2  0
 27 29  1  0
 29 30  1  6
 29  9  1  0
 29 12  1  0
 25 13  1  0
 23 17  1  0
M  END
>  <MS_ID>  (992) 
MS1034

>  <SMILES>  (992) 
CC[C@H](CCC(=O)O)[C@H]1CC[C@H]2[C@@H]3[C@@H](O)C[C@@H]4C[C@H](O)CC[C@]4(C)[C@H]3CC(=O)[C@]12C

>  <Structure_dimension>  (992) 
2D

$$$$
MS1035
     RDKit          2D

 32 35  0  0  0  0  0  0  0  0999 V2000
   -3.5396   -3.9741    0.0000 C   0  0  0  0  0  0  0  0  0  0  0  0
   -2.6835   -2.7424    0.0000 C   0  0  0  0  0  0  0  0  0  0  0  0
   -3.3221   -1.3851    0.0000 C   0  0  0  0  0  0  0  0  0  0  0  0
   -4.8168   -1.2595    0.0000 C   0  0  0  0  0  0  0  0  0  0  0  0
   -5.4554    0.0978    0.0000 C   0  0  0  0  0  0  0  0  0  0  0  0
   -6.9501    0.2234    0.0000 O   0  0  0  0  0  0  0  0  0  0  0  0
   -4.5992    1.3295    0.0000 O   0  0  0  0  0  0  0  0  0  0  0  0
   -5.2378    2.6867    0.0000 C   0  0  0  0  0  0  0  0  0  0  0  0
   -6.7325    2.8124    0.0000 O   0  0  0  0  0  0  0  0  0  0  0  0
   -4.3816    3.9184    0.0000 C   0  0  0  0  0  0  0  0  0  0  0  0
   -5.0202    5.2757    0.0000 O   0  0  0  0  0  0  0  0  0  0  0  0
   -1.1888   -2.8680    0.0000 C   0  0  0  0  0  0  0  0  0  0  0  0
   -0.4118   -4.1511    0.0000 C   0  0  0  0  0  0  0  0  0  0  0  0
    1.0486   -3.8087    0.0000 C   0  0  0  0  0  0  0  0  0  0  0  0
    1.1742   -2.3140    0.0000 C   0  0  0  0  0  0  0  0  0  0  0  0
    2.3691   -1.4071    0.0000 C   0  0  0  0  0  0  0  0  0  0  0  0
    3.7518   -1.9885    0.0000 C   0  0  0  0  0  0  0  0  0  0  0  0
    3.9397   -3.4767    0.0000 O   0  0  0  0  0  0  0  0  0  0  0  0
    4.9467   -1.0817    0.0000 C   0  0  0  0  0  0  0  0  0  0  0  0
    4.7588    0.4065    0.0000 C   0  0  0  0  0  0  0  0  0  0  0  0
    5.9536    1.3133    0.0000 C   0  0  0  0  0  0  0  0  0  0  0  0
    5.7657    2.8015    0.0000 C   0  0  0  0  0  0  0  0  0  0  0  0
    6.9606    3.7083    0.0000 O   0  0  0  0  0  0  0  0  0  0  0  0
    4.3830    3.3829    0.0000 C   0  0  0  0  0  0  0  0  0  0  0  0
    3.1881    2.4760    0.0000 C   0  0  0  0  0  0  0  0  0  0  0  0
    3.3760    0.9879    0.0000 C   0  0  0  0  0  0  0  0  0  0  0  0
    1.9933    1.5692    0.0000 C   0  0  0  0  0  0  0  0  0  0  0  0
    2.1812    0.0810    0.0000 C   0  0  0  0  0  0  0  0  0  0  0  0
    0.7984    0.6624    0.0000 C   0  0  0  0  0  0  0  0  0  0  0  0
   -0.3964   -0.2444    0.0000 C   0  0  0  0  0  0  0  0  0  0  0  0
   -0.2085   -1.7326    0.0000 C   0  0  0  0  0  0  0  0  0  0  0  0
   -1.6445   -1.2989    0.0000 C   0  0  0  0  0  0  0  0  0  0  0  0
  2  1  1  6
  2  3  1  0
  3  4  1  0
  4  5  1  0
  5  6  2  0
  5  7  1  0
  7  8  1  0
  8  9  2  0
  8 10  1  0
 10 11  1  0
  2 12  1  0
 12 13  1  6
 13 14  1  0
 15 14  1  6
 15 16  1  0
 16 17  1  1
 17 18  1  1
 17 19  1  0
 20 19  1  1
 20 21  1  0
 21 22  1  0
 22 23  1  1
 22 24  1  0
 24 25  1  0
 25 26  1  0
 26 27  1  6
 26 28  1  0
 28 29  1  6
 29 30  1  0
 30 31  1  0
 31 32  1  6
 31 12  1  0
 31 15  1  0
 28 16  1  0
 26 20  1  0
M  END
>  <MS_ID>  (993) 
MS1035

>  <SMILES>  (993) 
C[C@H](CCC(=O)OC(=O)CO)[C@H]1CC[C@H]2[C@@H]3[C@H](O)C[C@@H]4C[C@H](O)CC[C@]4(C)[C@H]3CC[C@]12C

>  <Structure_dimension>  (993) 
2D

$$$$
MS1036
     RDKit          2D

 28 31  0  0  0  0  0  0  0  0999 V2000
   -4.7819   -2.5298    0.0000 C   0  0  0  0  0  0  0  0  0  0  0  0
   -3.6391   -1.5583    0.0000 C   0  0  0  0  0  0  0  0  0  0  0  0
   -3.9090   -0.0827    0.0000 C   0  0  0  0  0  0  0  0  0  0  0  0
   -5.3218    0.4213    0.0000 C   0  0  0  0  0  0  0  0  0  0  0  0
   -5.5917    1.8968    0.0000 C   0  0  0  0  0  0  0  0  0  0  0  0
   -7.0045    2.4008    0.0000 O   0  0  0  0  0  0  0  0  0  0  0  0
   -4.4488    2.8683    0.0000 O   0  0  0  0  0  0  0  0  0  0  0  0
   -4.7187    4.3438    0.0000 O   0  0  0  0  0  0  0  0  0  0  0  0
   -2.2263   -2.0623    0.0000 C   0  0  0  0  0  0  0  0  0  0  0  0
   -1.8036   -3.5015    0.0000 C   0  0  0  0  0  0  0  0  0  0  0  0
   -0.3042   -3.5443    0.0000 C   0  0  0  0  0  0  0  0  0  0  0  0
    0.1998   -2.1315    0.0000 C   0  0  0  0  0  0  0  0  0  0  0  0
    1.5870   -1.5607    0.0000 C   0  0  0  0  0  0  0  0  0  0  0  0
    2.7749   -2.4766    0.0000 C   0  0  0  0  0  0  0  0  0  0  0  0
    4.1620   -1.9058    0.0000 C   0  0  0  0  0  0  0  0  0  0  0  0
    4.3613   -0.4191    0.0000 C   0  0  0  0  0  0  0  0  0  0  0  0
    5.7484    0.1517    0.0000 C   0  0  0  0  0  0  0  0  0  0  0  0
    5.9477    1.6384    0.0000 C   0  0  0  0  0  0  0  0  0  0  0  0
    7.3348    2.2092    0.0000 O   0  0  0  0  0  0  0  0  0  0  0  0
    4.7598    2.5543    0.0000 C   0  0  0  0  0  0  0  0  0  0  0  0
    3.3726    1.9835    0.0000 C   0  0  0  0  0  0  0  0  0  0  0  0
    3.1734    0.4968    0.0000 C   0  0  0  0  0  0  0  0  0  0  0  0
    1.9855    1.4127    0.0000 C   0  0  0  0  0  0  0  0  0  0  0  0
    1.7862   -0.0740    0.0000 C   0  0  0  0  0  0  0  0  0  0  0  0
    0.5983    0.8419    0.0000 C   0  0  0  0  0  0  0  0  0  0  0  0
   -0.7888    0.2712    0.0000 C   0  0  0  0  0  0  0  0  0  0  0  0
   -0.9881   -1.2155    0.0000 C   0  0  0  0  0  0  0  0  0  0  0  0
   -2.2652   -0.4288    0.0000 C   0  0  0  0  0  0  0  0  0  0  0  0
  2  1  1  6
  2  3  1  0
  3  4  1  0
  4  5  1  0
  5  6  2  0
  5  7  1  0
  7  8  1  0
  2  9  1  0
  9 10  1  6
 10 11  1  0
 12 11  1  6
 12 13  1  0
 13 14  1  1
 14 15  1  0
 16 15  1  1
 16 17  1  0
 17 18  1  0
 18 19  1  1
 18 20  1  0
 20 21  1  0
 21 22  1  0
 22 23  1  6
 22 24  1  0
 24 25  1  6
 25 26  1  0
 26 27  1  0
 27 28  1  6
 27  9  1  0
 27 12  1  0
 24 13  1  0
 22 16  1  0
M  END
>  <MS_ID>  (994) 
MS1036

>  <SMILES>  (994) 
C[C@H](CCC(=O)OO)[C@H]1CC[C@H]2[C@@H]3CC[C@@H]4C[C@H](O)CC[C@]4(C)[C@H]3CC[C@]12C

>  <Structure_dimension>  (994) 
2D

$$$$
MS1037
     RDKit          2D

 34 38  0  0  0  0  0  0  0  0999 V2000
   -2.6599   -4.1335    0.0000 C   0  0  0  0  0  0  0  0  0  0  0  0
   -1.8847   -2.8494    0.0000 C   0  0  0  0  0  0  0  0  0  0  0  0
   -2.6091   -1.5360    0.0000 C   0  0  0  0  0  0  0  0  0  0  0  0
   -4.1089   -1.5067    0.0000 C   0  0  0  0  0  0  0  0  0  0  0  0
   -4.8333   -0.1932    0.0000 C   0  0  0  0  0  0  0  0  0  0  0  0
   -4.0581    1.0909    0.0000 O   0  0  0  0  0  0  0  0  0  0  0  0
   -6.3331   -0.1639    0.0000 C   0  0  0  0  0  0  0  0  0  0  0  0
   -7.0575    1.1495    0.0000 N   0  0  0  0  0  0  0  0  0  0  0  0
   -8.5460    1.3354    0.0000 C   0  0  0  0  0  0  0  0  0  0  0  0
   -8.8291    2.8085    0.0000 N   0  0  0  0  0  0  0  0  0  0  0  0
   -7.5157    3.5330    0.0000 C   0  0  0  0  0  0  0  0  0  0  0  0
   -6.4208    2.5077    0.0000 N   0  0  0  0  0  0  0  0  0  0  0  0
   -0.3850   -2.8787    0.0000 C   0  0  0  0  0  0  0  0  0  0  0  0
    0.4728   -4.1092    0.0000 C   0  0  0  0  0  0  0  0  0  0  0  0
    1.9082   -3.6737    0.0000 C   0  0  0  0  0  0  0  0  0  0  0  0
    1.9375   -2.1740    0.0000 C   0  0  0  0  0  0  0  0  0  0  0  0
    3.0716   -1.1922    0.0000 C   0  0  0  0  0  0  0  0  0  0  0  0
    4.4889   -1.6835    0.0000 C   0  0  0  0  0  0  0  0  0  0  0  0
    4.7720   -3.1566    0.0000 O   0  0  0  0  0  0  0  0  0  0  0  0
    5.6230   -0.7018    0.0000 C   0  0  0  0  0  0  0  0  0  0  0  0
    5.3399    0.7712    0.0000 C   0  0  0  0  0  0  0  0  0  0  0  0
    6.4740    1.7530    0.0000 C   0  0  0  0  0  0  0  0  0  0  0  0
    6.1908    3.2260    0.0000 C   0  0  0  0  0  0  0  0  0  0  0  0
    7.3249    4.2077    0.0000 O   0  0  0  0  0  0  0  0  0  0  0  0
    4.7736    3.7173    0.0000 C   0  0  0  0  0  0  0  0  0  0  0  0
    3.6395    2.7356    0.0000 C   0  0  0  0  0  0  0  0  0  0  0  0
    3.9226    1.2625    0.0000 C   0  0  0  0  0  0  0  0  0  0  0  0
    2.5053    1.7538    0.0000 C   0  0  0  0  0  0  0  0  0  0  0  0
    2.7885    0.2808    0.0000 C   0  0  0  0  0  0  0  0  0  0  0  0
    1.3712    0.7721    0.0000 C   0  0  0  0  0  0  0  0  0  0  0  0
    0.2371   -0.2096    0.0000 C   0  0  0  0  0  0  0  0  0  0  0  0
   -1.1801    0.2817    0.0000 O   0  0  0  0  0  0  0  0  0  0  0  0
    0.5203   -1.6826    0.0000 C   0  0  0  0  0  0  0  0  0  0  0  0
   -0.9406   -1.3422    0.0000 C   0  0  0  0  0  0  0  0  0  0  0  0
  2  1  1  6
  2  3  1  0
  3  4  1  0
  4  5  1  0
  5  6  2  0
  5  7  1  0
  7  8  1  0
  8  9  1  0
  9 10  2  0
 10 11  1  0
 11 12  2  0
  2 13  1  0
 13 14  1  6
 14 15  1  0
 16 15  1  6
 16 17  1  0
 17 18  1  1
 18 19  1  1
 18 20  1  0
 21 20  1  1
 21 22  1  0
 22 23  1  0
 23 24  1  1
 23 25  1  0
 25 26  1  0
 26 27  1  0
 27 28  1  6
 27 29  1  0
 29 30  1  6
 30 31  1  0
 31 32  1  1
 31 33  1  0
 33 34  1  6
 12  8  1  0
 33 13  1  0
 33 16  1  0
 29 17  1  0
 27 21  1  0
M  END
>  <MS_ID>  (995) 
MS1037

>  <SMILES>  (995) 
C[C@H](CCC(=O)Cn1cncn1)[C@H]1CC[C@H]2[C@@H]3[C@H](O)C[C@@H]4C[C@H](O)CC[C@]4(C)[C@H]3C[C@H](O)[C@]12C

>  <Structure_dimension>  (995) 
2D

$$$$
MS1038
     RDKit          2D

 31 34  0  0  0  0  0  0  0  0999 V2000
   -8.8672    3.1400    0.0000 C   0  0  0  0  0  0  0  0  0  0  0  0
   -7.3980    2.8376    0.0000 C   0  0  0  0  0  0  0  0  0  0  0  0
   -6.9253    1.4140    0.0000 C   0  0  0  0  0  0  0  0  0  0  0  0
   -5.4561    1.1115    0.0000 C   0  0  0  0  0  0  0  0  0  0  0  0
   -4.4596    2.2326    0.0000 O   0  0  0  0  0  0  0  0  0  0  0  0
   -4.9835   -0.3121    0.0000 C   0  0  0  0  0  0  0  0  0  0  0  0
   -3.5143   -0.6145    0.0000 C   0  0  0  0  0  0  0  0  0  0  0  0
   -3.0416   -2.0381    0.0000 C   0  0  0  0  0  0  0  0  0  0  0  0
   -4.0382   -3.1592    0.0000 C   0  0  0  0  0  0  0  0  0  0  0  0
   -1.5724   -2.3406    0.0000 C   0  0  0  0  0  0  0  0  0  0  0  0
   -0.9536   -3.7070    0.0000 C   0  0  0  0  0  0  0  0  0  0  0  0
    0.5372   -3.5406    0.0000 C   0  0  0  0  0  0  0  0  0  0  0  0
    0.8396   -2.0714    0.0000 C   0  0  0  0  0  0  0  0  0  0  0  0
    2.1338   -1.3131    0.0000 C   0  0  0  0  0  0  0  0  0  0  0  0
    3.4377   -2.0548    0.0000 C   0  0  0  0  0  0  0  0  0  0  0  0
    3.4473   -3.5547    0.0000 O   0  0  0  0  0  0  0  0  0  0  0  0
    4.7319   -1.2965    0.0000 C   0  0  0  0  0  0  0  0  0  0  0  0
    4.7223    0.2035    0.0000 C   0  0  0  0  0  0  0  0  0  0  0  0
    6.0165    0.9618    0.0000 C   0  0  0  0  0  0  0  0  0  0  0  0
    6.0069    2.4618    0.0000 C   0  0  0  0  0  0  0  0  0  0  0  0
    7.3011    3.2201    0.0000 O   0  0  0  0  0  0  0  0  0  0  0  0
    4.7030    3.2034    0.0000 C   0  0  0  0  0  0  0  0  0  0  0  0
    3.4088    2.4451    0.0000 C   0  0  0  0  0  0  0  0  0  0  0  0
    3.4184    0.9452    0.0000 C   0  0  0  0  0  0  0  0  0  0  0  0
    2.1146    1.6868    0.0000 C   0  0  0  0  0  0  0  0  0  0  0  0
    2.1242    0.1869    0.0000 C   0  0  0  0  0  0  0  0  0  0  0  0
    0.8204    0.9285    0.0000 C   0  0  0  0  0  0  0  0  0  0  0  0
   -0.4738    0.1702    0.0000 C   0  0  0  0  0  0  0  0  0  0  0  0
   -1.7776    0.9119    0.0000 O   0  0  0  0  0  0  0  0  0  0  0  0
   -0.4642   -1.3298    0.0000 C   0  0  0  0  0  0  0  0  0  0  0  0
   -1.8384   -0.7284    0.0000 C   0  0  0  0  0  0  0  0  0  0  0  0
  1  2  1  0
  2  3  1  0
  3  4  1  0
  4  5  2  0
  4  6  1  0
  6  7  1  0
  7  8  1  0
  8  9  1  6
  8 10  1  0
 10 11  1  6
 11 12  1  0
 13 12  1  6
 13 14  1  0
 14 15  1  1
 15 16  1  1
 15 17  1  0
 18 17  1  1
 18 19  1  0
 19 20  1  0
 20 21  1  1
 20 22  1  0
 22 23  1  0
 23 24  1  0
 24 25  1  6
 24 26  1  0
 26 27  1  6
 27 28  1  0
 28 29  1  1
 28 30  1  0
 30 31  1  6
 30 10  1  0
 30 13  1  0
 26 14  1  0
 24 18  1  0
M  END
>  <MS_ID>  (996) 
MS1038

>  <SMILES>  (996) 
CCCC(=O)CC[C@@H](C)[C@H]1CC[C@H]2[C@@H]3[C@H](O)C[C@@H]4C[C@H](O)CC[C@]4(C)[C@H]3C[C@H](O)[C@]12C

>  <Structure_dimension>  (996) 
2D

$$$$
MS1039
     RDKit          2D

 34 37  0  0  0  0  0  0  0  0999 V2000
   -1.8984   -4.2506    0.0000 C   0  0  0  0  0  0  0  0  0  0  0  0
   -1.1842   -2.9316    0.0000 C   0  0  0  0  0  0  0  0  0  0  0  0
   -1.9694   -1.6535    0.0000 C   0  0  0  0  0  0  0  0  0  0  0  0
   -3.4688   -1.6945    0.0000 C   0  0  0  0  0  0  0  0  0  0  0  0
   -4.2540   -0.4165    0.0000 C   0  0  0  0  0  0  0  0  0  0  0  0
   -3.5398    0.9026    0.0000 O   0  0  0  0  0  0  0  0  0  0  0  0
   -5.7535   -0.4574    0.0000 C   0  0  0  0  0  0  0  0  0  0  0  0
   -6.5387    0.8206    0.0000 C   0  0  0  0  0  0  0  0  0  0  0  0
   -8.0381    0.7796    0.0000 O   0  0  0  0  0  0  0  0  0  0  0  0
   -8.8234    2.0577    0.0000 C   0  0  0  0  0  0  0  0  0  0  0  0
  -10.3228    2.0167    0.0000 C   0  0  0  0  0  0  0  0  0  0  0  0
  -11.0370    0.6977    0.0000 O   0  0  0  0  0  0  0  0  0  0  0  0
  -11.1080    3.2948    0.0000 O   0  0  0  0  0  0  0  0  0  0  0  0
    0.3153   -2.8906    0.0000 C   0  0  0  0  0  0  0  0  0  0  0  0
    1.2298   -4.0796    0.0000 C   0  0  0  0  0  0  0  0  0  0  0  0
    2.6432   -3.5773    0.0000 C   0  0  0  0  0  0  0  0  0  0  0  0
    2.6022   -2.0778    0.0000 C   0  0  0  0  0  0  0  0  0  0  0  0
    3.6890   -1.0440    0.0000 C   0  0  0  0  0  0  0  0  0  0  0  0
    5.1278   -1.4684    0.0000 C   0  0  0  0  0  0  0  0  0  0  0  0
    5.4796   -2.9266    0.0000 O   0  0  0  0  0  0  0  0  0  0  0  0
    6.2146   -0.4346    0.0000 C   0  0  0  0  0  0  0  0  0  0  0  0
    5.8628    1.0235    0.0000 C   0  0  0  0  0  0  0  0  0  0  0  0
    6.9497    2.0573    0.0000 C   0  0  0  0  0  0  0  0  0  0  0  0
    6.5978    3.5154    0.0000 C   0  0  0  0  0  0  0  0  0  0  0  0
    7.6847    4.5492    0.0000 O   0  0  0  0  0  0  0  0  0  0  0  0
    5.1591    3.9398    0.0000 C   0  0  0  0  0  0  0  0  0  0  0  0
    4.0722    2.9060    0.0000 C   0  0  0  0  0  0  0  0  0  0  0  0
    4.4241    1.4479    0.0000 C   0  0  0  0  0  0  0  0  0  0  0  0
    2.9854    1.8723    0.0000 C   0  0  0  0  0  0  0  0  0  0  0  0
    3.3372    0.4141    0.0000 C   0  0  0  0  0  0  0  0  0  0  0  0
    1.8985    0.8385    0.0000 C   0  0  0  0  0  0  0  0  0  0  0  0
    0.8116   -0.1953    0.0000 C   0  0  0  0  0  0  0  0  0  0  0  0
    1.1635   -1.6534    0.0000 C   0  0  0  0  0  0  0  0  0  0  0  0
   -0.3117   -1.3818    0.0000 C   0  0  0  0  0  0  0  0  0  0  0  0
  2  1  1  6
  2  3  1  0
  3  4  1  0
  4  5  1  0
  5  6  2  0
  5  7  1  0
  7  8  1  0
  8  9  1  0
  9 10  1  0
 10 11  1  0
 11 12  2  0
 11 13  1  0
  2 14  1  0
 14 15  1  6
 15 16  1  0
 17 16  1  6
 17 18  1  0
 18 19  1  1
 19 20  1  6
 19 21  1  0
 22 21  1  1
 22 23  1  0
 23 24  1  0
 24 25  1  1
 24 26  1  0
 26 27  1  0
 27 28  1  0
 28 29  1  6
 28 30  1  0
 30 31  1  6
 31 32  1  0
 32 33  1  0
 33 34  1  6
 33 14  1  0
 33 17  1  0
 30 18  1  0
 28 22  1  0
M  END
>  <MS_ID>  (997) 
MS1039

>  <SMILES>  (997) 
C[C@H](CCC(=O)CCOCC(=O)O)[C@H]1CC[C@H]2[C@@H]3[C@@H](O)C[C@@H]4C[C@H](O)CC[C@]4(C)[C@H]3CC[C@]12C

>  <Structure_dimension>  (997) 
2D

$$$$
MS1040
     RDKit          2D

 34 38  0  0  0  0  0  0  0  0999 V2000
   -2.2608   -4.3306    0.0000 C   0  0  0  0  0  0  0  0  0  0  0  0
   -1.5430   -3.0135    0.0000 C   0  0  0  0  0  0  0  0  0  0  0  0
   -2.3248   -1.7333    0.0000 C   0  0  0  0  0  0  0  0  0  0  0  0
   -3.8244   -1.7702    0.0000 C   0  0  0  0  0  0  0  0  0  0  0  0
   -4.6061   -0.4901    0.0000 C   0  0  0  0  0  0  0  0  0  0  0  0
   -3.8883    0.8271    0.0000 O   0  0  0  0  0  0  0  0  0  0  0  0
   -6.1057   -0.5270    0.0000 N   0  0  0  0  0  0  0  0  0  0  0  0
   -6.8874    0.7532    0.0000 C   0  0  0  0  0  0  0  0  0  0  0  0
   -6.1696    2.0703    0.0000 C   0  0  0  0  0  0  0  0  0  0  0  0
   -6.9514    3.3505    0.0000 C   0  0  0  0  0  0  0  0  0  0  0  0
   -8.4509    3.3135    0.0000 N   0  0  0  0  0  0  0  0  0  0  0  0
   -9.1687    1.9964    0.0000 C   0  0  0  0  0  0  0  0  0  0  0  0
   -8.3870    0.7163    0.0000 C   0  0  0  0  0  0  0  0  0  0  0  0
   -0.0435   -2.9765    0.0000 C   0  0  0  0  0  0  0  0  0  0  0  0
    0.8678   -4.1680    0.0000 C   0  0  0  0  0  0  0  0  0  0  0  0
    2.2825   -3.6695    0.0000 C   0  0  0  0  0  0  0  0  0  0  0  0
    2.2456   -2.1699    0.0000 C   0  0  0  0  0  0  0  0  0  0  0  0
    3.3353   -1.1391    0.0000 C   0  0  0  0  0  0  0  0  0  0  0  0
    4.7728   -1.5673    0.0000 C   0  0  0  0  0  0  0  0  0  0  0  0
    5.1207   -3.0264    0.0000 O   0  0  0  0  0  0  0  0  0  0  0  0
    5.8625   -0.5365    0.0000 C   0  0  0  0  0  0  0  0  0  0  0  0
    5.5146    0.9226    0.0000 C   0  0  0  0  0  0  0  0  0  0  0  0
    6.6043    1.9534    0.0000 C   0  0  0  0  0  0  0  0  0  0  0  0
    6.2564    3.4125    0.0000 C   0  0  0  0  0  0  0  0  0  0  0  0
    7.3460    4.4434    0.0000 O   0  0  0  0  0  0  0  0  0  0  0  0
    4.8188    3.8408    0.0000 C   0  0  0  0  0  0  0  0  0  0  0  0
    3.7291    2.8099    0.0000 C   0  0  0  0  0  0  0  0  0  0  0  0
    4.0770    1.3509    0.0000 C   0  0  0  0  0  0  0  0  0  0  0  0
    2.6395    1.7791    0.0000 C   0  0  0  0  0  0  0  0  0  0  0  0
    2.9874    0.3200    0.0000 C   0  0  0  0  0  0  0  0  0  0  0  0
    1.5498    0.7483    0.0000 C   0  0  0  0  0  0  0  0  0  0  0  0
    0.4601   -0.2826    0.0000 C   0  0  0  0  0  0  0  0  0  0  0  0
    0.8080   -1.7417    0.0000 C   0  0  0  0  0  0  0  0  0  0  0  0
   -0.6664   -1.4660    0.0000 C   0  0  0  0  0  0  0  0  0  0  0  0
  2  1  1  6
  2  3  1  0
  3  4  1  0
  4  5  1  0
  5  6  2  0
  5  7  1  0
  7  8  1  0
  8  9  2  0
  9 10  1  0
 10 11  2  0
 11 12  1  0
 12 13  2  0
  2 14  1  0
 14 15  1  6
 15 16  1  0
 17 16  1  6
 17 18  1  0
 18 19  1  1
 19 20  1  1
 19 21  1  0
 22 21  1  1
 22 23  1  0
 23 24  1  0
 24 25  1  1
 24 26  1  0
 26 27  1  0
 27 28  1  0
 28 29  1  6
 28 30  1  0
 30 31  1  6
 31 32  1  0
 32 33  1  0
 33 34  1  6
 13  8  1  0
 33 14  1  0
 33 17  1  0
 30 18  1  0
 28 22  1  0
M  END
>  <MS_ID>  (998) 
MS1040

>  <SMILES>  (998) 
C[C@H](CCC(=O)Nc1ccncc1)[C@H]1CC[C@H]2[C@@H]3[C@H](O)C[C@@H]4C[C@H](O)CC[C@]4(C)[C@H]3CC[C@]12C

>  <Structure_dimension>  (998) 
2D

$$$$
MS1041
     RDKit          2D

 29 32  0  0  0  0  0  0  0  0999 V2000
   -4.5534   -2.6812    0.0000 C   0  0  0  0  0  0  0  0  0  0  0  0
   -3.4378   -1.6786    0.0000 C   0  0  0  0  0  0  0  0  0  0  0  0
   -3.7483   -0.2111    0.0000 C   0  0  0  0  0  0  0  0  0  0  0  0
   -5.1744    0.2538    0.0000 C   0  0  0  0  0  0  0  0  0  0  0  0
   -5.4850    1.7213    0.0000 C   0  0  0  0  0  0  0  0  0  0  0  0
   -4.3693    2.7239    0.0000 O   0  0  0  0  0  0  0  0  0  0  0  0
   -6.9111    2.1861    0.0000 N   0  0  0  0  0  0  0  0  0  0  0  0
   -7.2216    3.6536    0.0000 N   0  0  0  0  0  0  0  0  0  0  0  0
   -2.0116   -2.1434    0.0000 C   0  0  0  0  0  0  0  0  0  0  0  0
   -1.5494   -3.5704    0.0000 C   0  0  0  0  0  0  0  0  0  0  0  0
   -0.0494   -3.5718    0.0000 C   0  0  0  0  0  0  0  0  0  0  0  0
    0.4155   -2.1456    0.0000 C   0  0  0  0  0  0  0  0  0  0  0  0
    1.7863   -1.5368    0.0000 C   0  0  0  0  0  0  0  0  0  0  0  0
    2.9990   -2.4196    0.0000 C   0  0  0  0  0  0  0  0  0  0  0  0
    4.3699   -1.8107    0.0000 C   0  0  0  0  0  0  0  0  0  0  0  0
    4.5281   -0.3191    0.0000 C   0  0  0  0  0  0  0  0  0  0  0  0
    5.8990    0.2898    0.0000 C   0  0  0  0  0  0  0  0  0  0  0  0
    6.0571    1.7814    0.0000 C   0  0  0  0  0  0  0  0  0  0  0  0
    7.4280    2.3902    0.0000 O   0  0  0  0  0  0  0  0  0  0  0  0
    4.8444    2.6642    0.0000 C   0  0  0  0  0  0  0  0  0  0  0  0
    3.4735    2.0553    0.0000 C   0  0  0  0  0  0  0  0  0  0  0  0
    3.3154    0.5637    0.0000 C   0  0  0  0  0  0  0  0  0  0  0  0
    2.1026    1.4465    0.0000 C   0  0  0  0  0  0  0  0  0  0  0  0
    1.9445   -0.0451    0.0000 C   0  0  0  0  0  0  0  0  0  0  0  0
    0.7318    0.8376    0.0000 C   0  0  0  0  0  0  0  0  0  0  0  0
   -0.6391    0.2288    0.0000 C   0  0  0  0  0  0  0  0  0  0  0  0
   -1.8518    1.1116    0.0000 O   0  0  0  0  0  0  0  0  0  0  0  0
   -0.7973   -1.2628    0.0000 C   0  0  0  0  0  0  0  0  0  0  0  0
   -2.0956   -0.5116    0.0000 C   0  0  0  0  0  0  0  0  0  0  0  0
  2  1  1  6
  2  3  1  0
  3  4  1  0
  4  5  1  0
  5  6  2  0
  5  7  1  0
  7  8  1  0
  2  9  1  0
  9 10  1  6
 10 11  1  0
 12 11  1  6
 12 13  1  0
 13 14  1  1
 14 15  1  0
 16 15  1  1
 16 17  1  0
 17 18  1  0
 18 19  2  0
 18 20  1  0
 20 21  1  0
 21 22  1  0
 22 23  1  6
 22 24  1  0
 24 25  1  6
 25 26  1  0
 26 27  1  1
 26 28  1  0
 28 29  1  6
 28  9  1  0
 28 12  1  0
 24 13  1  0
 22 16  1  0
M  END
>  <MS_ID>  (999) 
MS1041

>  <SMILES>  (999) 
C[C@H](CCC(=O)NN)[C@H]1CC[C@H]2[C@@H]3CC[C@@H]4CC(=O)CC[C@]4(C)[C@H]3C[C@H](O)[C@]12C

>  <Structure_dimension>  (999) 
2D

$$$$
MS1042
     RDKit          2D

 37 40  0  0  0  0  0  0  0  0999 V2000
   -5.2384   -3.4077    0.0000 C   0  0  0  0  0  0  0  0  0  0  0  0
   -4.2010   -2.3243    0.0000 C   0  0  0  0  0  0  0  0  0  0  0  0
   -4.6205   -0.8842    0.0000 C   0  0  0  0  0  0  0  0  0  0  0  0
   -6.0775   -0.5274    0.0000 C   0  0  0  0  0  0  0  0  0  0  0  0
   -6.4970    0.9127    0.0000 C   0  0  0  0  0  0  0  0  0  0  0  0
   -7.9540    1.2694    0.0000 O   0  0  0  0  0  0  0  0  0  0  0  0
   -5.4596    1.9961    0.0000 O   0  0  0  0  0  0  0  0  0  0  0  0
   -5.8792    3.4362    0.0000 S   0  0  0  0  0  0  0  0  0  0  0  0
   -7.3193    3.0167    0.0000 O   0  0  0  0  0  0  0  0  0  0  0  0
   -4.4390    3.8558    0.0000 O   0  0  0  0  0  0  0  0  0  0  0  0
   -6.2987    4.8764    0.0000 O   0  0  0  0  0  0  0  0  0  0  0  0
   -2.7440   -2.6810    0.0000 C   0  0  0  0  0  0  0  0  0  0  0  0
   -2.1762   -4.0694    0.0000 C   0  0  0  0  0  0  0  0  0  0  0  0
   -0.6803   -3.9585    0.0000 C   0  0  0  0  0  0  0  0  0  0  0  0
   -0.3236   -2.5015    0.0000 C   0  0  0  0  0  0  0  0  0  0  0  0
    0.9978   -1.7917    0.0000 C   0  0  0  0  0  0  0  0  0  0  0  0
    2.2732   -2.5812    0.0000 C   0  0  0  0  0  0  0  0  0  0  0  0
    2.2272   -4.0805    0.0000 O   0  0  0  0  0  0  0  0  0  0  0  0
    3.5947   -1.8714    0.0000 C   0  0  0  0  0  0  0  0  0  0  0  0
    4.8701   -2.6609    0.0000 O   0  0  0  0  0  0  0  0  0  0  0  0
    3.6407   -0.3721    0.0000 C   0  0  0  0  0  0  0  0  0  0  0  0
    4.9621    0.3377    0.0000 C   0  0  0  0  0  0  0  0  0  0  0  0
    5.0081    1.8370    0.0000 C   0  0  0  0  0  0  0  0  0  0  0  0
    6.3296    2.5468    0.0000 O   0  0  0  0  0  0  0  0  0  0  0  0
    7.6050    1.7573    0.0000 S   0  0  0  0  0  0  0  0  0  0  0  0
    6.8155    0.4819    0.0000 O   0  0  0  0  0  0  0  0  0  0  0  0
    8.3945    3.0327    0.0000 O   0  0  0  0  0  0  0  0  0  0  0  0
    8.8804    0.9678    0.0000 O   0  0  0  0  0  0  0  0  0  0  0  0
    3.7327    2.6265    0.0000 C   0  0  0  0  0  0  0  0  0  0  0  0
    2.4113    1.9167    0.0000 C   0  0  0  0  0  0  0  0  0  0  0  0
    2.3653    0.4174    0.0000 C   0  0  0  0  0  0  0  0  0  0  0  0
    1.0899    1.2069    0.0000 C   0  0  0  0  0  0  0  0  0  0  0  0
    1.0438   -0.2924    0.0000 C   0  0  0  0  0  0  0  0  0  0  0  0
   -0.2316    0.4971    0.0000 C   0  0  0  0  0  0  0  0  0  0  0  0
   -1.5530   -0.2127    0.0000 C   0  0  0  0  0  0  0  0  0  0  0  0
   -1.5990   -1.7120    0.0000 C   0  0  0  0  0  0  0  0  0  0  0  0
   -2.9500   -1.0601    0.0000 C   0  0  0  0  0  0  0  0  0  0  0  0
  2  1  1  6
  2  3  1  0
  3  4  1  0
  4  5  1  0
  5  6  2  0
  5  7  1  0
  7  8  1  0
  8  9  2  0
  8 10  2  0
  8 11  1  0
  2 12  1  0
 12 13  1  6
 13 14  1  0
 15 14  1  6
 15 16  1  0
 16 17  1  1
 17 18  1  1
 17 19  1  0
 19 20  1  1
 19 21  1  0
 21 22  1  1
 22 23  1  0
 23 24  1  1
 24 25  1  0
 25 26  2  0
 25 27  2  0
 25 28  1  0
 23 29  1  0
 29 30  1  0
 30 31  1  0
 31 32  1  6
 31 33  1  0
 33 34  1  6
 34 35  1  0
 35 36  1  0
 36 37  1  6
 36 12  1  0
 36 15  1  0
 33 16  1  0
 31 21  1  0
M  END
>  <MS_ID>  (1000) 
MS1042

>  <SMILES>  (1000) 
C[C@H](CCC(=O)OS(=O)(=O)O)[C@H]1CC[C@H]2[C@@H]3[C@H](O)[C@H](O)[C@@H]4C[C@H](OS(=O)(=O)O)CC[C@]4(C)[C@H]3CC[C@]12C

>  <Structure_dimension>  (1000) 
2D

$$$$
MS1043
     RDKit          2D

 28 31  0  0  0  0  0  0  0  0999 V2000
   -5.0096   -2.1352    0.0000 C   0  0  0  0  0  0  0  0  0  0  0  0
   -3.8132   -1.2303    0.0000 C   0  0  0  0  0  0  0  0  0  0  0  0
   -3.9987    0.2582    0.0000 C   0  0  0  0  0  0  0  0  0  0  0  0
   -5.3805    0.8418    0.0000 C   0  0  0  0  0  0  0  0  0  0  0  0
   -5.5659    2.3303    0.0000 C   0  0  0  0  0  0  0  0  0  0  0  0
   -4.3695    3.2351    0.0000 O   0  0  0  0  0  0  0  0  0  0  0  0
   -6.9477    2.9140    0.0000 O   0  0  0  0  0  0  0  0  0  0  0  0
   -2.4315   -1.8140    0.0000 C   0  0  0  0  0  0  0  0  0  0  0  0
   -2.0914   -3.2749    0.0000 C   0  0  0  0  0  0  0  0  0  0  0  0
   -0.5969   -3.4030    0.0000 C   0  0  0  0  0  0  0  0  0  0  0  0
   -0.0133   -2.0212    0.0000 C   0  0  0  0  0  0  0  0  0  0  0  0
    1.4041   -1.5304    0.0000 C   0  0  0  0  0  0  0  0  0  0  0  0
    2.5379   -2.5125    0.0000 C   0  0  0  0  0  0  0  0  0  0  0  0
    3.9554   -2.0216    0.0000 C   0  0  0  0  0  0  0  0  0  0  0  0
    4.2390   -0.5487    0.0000 C   0  0  0  0  0  0  0  0  0  0  0  0
    5.6564   -0.0578    0.0000 C   0  0  0  0  0  0  0  0  0  0  0  0
    5.9400    1.4151    0.0000 C   0  0  0  0  0  0  0  0  0  0  0  0
    7.3574    1.9060    0.0000 O   0  0  0  0  0  0  0  0  0  0  0  0
    4.8062    2.3972    0.0000 C   0  0  0  0  0  0  0  0  0  0  0  0
    3.3888    1.9064    0.0000 C   0  0  0  0  0  0  0  0  0  0  0  0
    3.1052    0.4334    0.0000 C   0  0  0  0  0  0  0  0  0  0  0  0
    1.9714    1.4155    0.0000 C   0  0  0  0  0  0  0  0  0  0  0  0
    1.6878   -0.0574    0.0000 C   0  0  0  0  0  0  0  0  0  0  0  0
    0.5540    0.9246    0.0000 C   0  0  0  0  0  0  0  0  0  0  0  0
   -0.8635    0.4338    0.0000 C   0  0  0  0  0  0  0  0  0  0  0  0
   -1.9973    1.4159    0.0000 O   0  0  0  0  0  0  0  0  0  0  0  0
   -1.1471   -1.0392    0.0000 C   0  0  0  0  0  0  0  0  0  0  0  0
   -2.3773   -0.1810    0.0000 C   0  0  0  0  0  0  0  0  0  0  0  0
  2  1  1  6
  2  3  1  0
  3  4  1  0
  4  5  1  0
  5  6  2  0
  5  7  1  0
  2  8  1  0
  8  9  1  6
  9 10  1  0
 11 10  1  6
 11 12  1  0
 12 13  1  1
 13 14  1  0
 15 14  1  1
 15 16  1  0
 16 17  1  0
 17 18  2  0
 17 19  1  0
 19 20  1  0
 20 21  1  0
 21 22  1  6
 21 23  1  0
 23 24  1  6
 24 25  1  0
 25 26  2  0
 25 27  1  0
 27 28  1  6
 27  8  1  0
 27 11  1  0
 23 12  1  0
 21 15  1  0
M  END
>  <MS_ID>  (1001) 
MS1043

>  <SMILES>  (1001) 
C[C@H](CCC(=O)O)[C@H]1CC[C@H]2[C@@H]3CC[C@@H]4CC(=O)CC[C@]4(C)[C@H]3CC(=O)[C@]12C

>  <Structure_dimension>  (1001) 
2D

$$$$
MS1044
     RDKit          2D

 29 32  0  0  0  0  0  0  0  0999 V2000
   -5.0303   -2.1373    0.0000 C   0  0  0  0  0  0  0  0  0  0  0  0
   -3.8594   -1.1998    0.0000 C   0  0  0  0  0  0  0  0  0  0  0  0
   -4.0858    0.2830    0.0000 C   0  0  0  0  0  0  0  0  0  0  0  0
   -5.4831    0.8284    0.0000 C   0  0  0  0  0  0  0  0  0  0  0  0
   -5.7095    2.3112    0.0000 C   0  0  0  0  0  0  0  0  0  0  0  0
   -7.1069    2.8565    0.0000 O   0  0  0  0  0  0  0  0  0  0  0  0
   -4.5386    3.2487    0.0000 S   0  0  0  0  0  0  0  0  0  0  0  0
   -2.4620   -1.7451    0.0000 C   0  0  0  0  0  0  0  0  0  0  0  0
   -2.0818   -3.1961    0.0000 C   0  0  0  0  0  0  0  0  0  0  0  0
   -0.5844   -3.2830    0.0000 C   0  0  0  0  0  0  0  0  0  0  0  0
   -0.0390   -1.8856    0.0000 C   0  0  0  0  0  0  0  0  0  0  0  0
    1.3643   -1.3559    0.0000 C   0  0  0  0  0  0  0  0  0  0  0  0
    2.5248   -2.3063    0.0000 C   0  0  0  0  0  0  0  0  0  0  0  0
    2.2819   -3.7865    0.0000 O   0  0  0  0  0  0  0  0  0  0  0  0
    3.9281   -1.7765    0.0000 C   0  0  0  0  0  0  0  0  0  0  0  0
    4.1710   -0.2963    0.0000 C   0  0  0  0  0  0  0  0  0  0  0  0
    5.5743    0.2334    0.0000 C   0  0  0  0  0  0  0  0  0  0  0  0
    5.8172    1.7136    0.0000 C   0  0  0  0  0  0  0  0  0  0  0  0
    7.2205    2.2434    0.0000 O   0  0  0  0  0  0  0  0  0  0  0  0
    4.6568    2.6641    0.0000 C   0  0  0  0  0  0  0  0  0  0  0  0
    3.2534    2.1343    0.0000 C   0  0  0  0  0  0  0  0  0  0  0  0
    3.0105    0.6541    0.0000 C   0  0  0  0  0  0  0  0  0  0  0  0
    1.8501    1.6046    0.0000 C   0  0  0  0  0  0  0  0  0  0  0  0
    1.6072    0.1244    0.0000 C   0  0  0  0  0  0  0  0  0  0  0  0
    0.4467    1.0748    0.0000 C   0  0  0  0  0  0  0  0  0  0  0  0
   -0.9566    0.5450    0.0000 C   0  0  0  0  0  0  0  0  0  0  0  0
   -2.1170    1.4955    0.0000 O   0  0  0  0  0  0  0  0  0  0  0  0
   -1.1995   -0.9352    0.0000 C   0  0  0  0  0  0  0  0  0  0  0  0
   -2.4529   -0.1112    0.0000 C   0  0  0  0  0  0  0  0  0  0  0  0
  2  1  1  6
  2  3  1  0
  3  4  1  0
  4  5  1  0
  5  6  2  0
  5  7  1  0
  2  8  1  0
  8  9  1  6
  9 10  1  0
 11 10  1  6
 11 12  1  0
 12 13  1  1
 13 14  1  1
 13 15  1  0
 16 15  1  1
 16 17  1  0
 17 18  1  0
 18 19  1  6
 18 20  1  0
 20 21  1  0
 21 22  1  0
 22 23  1  6
 22 24  1  0
 24 25  1  6
 25 26  1  0
 26 27  1  6
 26 28  1  0
 28 29  1  6
 28  8  1  0
 28 11  1  0
 24 12  1  0
 22 16  1  0
M  END
>  <MS_ID>  (1002) 
MS1044

>  <SMILES>  (1002) 
C[C@H](CCC(=O)S)[C@H]1CC[C@H]2[C@@H]3[C@H](O)C[C@@H]4C[C@@H](O)CC[C@]4(C)[C@H]3C[C@@H](O)[C@]12C

>  <Structure_dimension>  (1002) 
2D

$$$$
MS1045
     RDKit          2D

 30 33  0  0  0  0  0  0  0  0999 V2000
   -4.7023   -2.6242    0.0000 C   0  0  0  0  0  0  0  0  0  0  0  0
   -3.5985   -1.6085    0.0000 C   0  0  0  0  0  0  0  0  0  0  0  0
   -3.9263   -0.1448    0.0000 C   0  0  0  0  0  0  0  0  0  0  0  0
   -5.3578    0.3033    0.0000 C   0  0  0  0  0  0  0  0  0  0  0  0
   -5.6855    1.7670    0.0000 C   0  0  0  0  0  0  0  0  0  0  0  0
   -7.1171    2.2151    0.0000 O   0  0  0  0  0  0  0  0  0  0  0  0
   -4.5818    2.7827    0.0000 O   0  0  0  0  0  0  0  0  0  0  0  0
   -4.9095    4.2465    0.0000 F   0  0  0  0  0  0  0  0  0  0  0  0
   -2.1670   -2.0566    0.0000 C   0  0  0  0  0  0  0  0  0  0  0  0
   -1.6881   -3.4780    0.0000 C   0  0  0  0  0  0  0  0  0  0  0  0
   -0.1881   -3.4618    0.0000 C   0  0  0  0  0  0  0  0  0  0  0  0
    0.2599   -2.0303    0.0000 C   0  0  0  0  0  0  0  0  0  0  0  0
    1.6235   -1.4054    0.0000 C   0  0  0  0  0  0  0  0  0  0  0  0
    2.8465   -2.2738    0.0000 C   0  0  0  0  0  0  0  0  0  0  0  0
    2.7059   -3.7672    0.0000 O   0  0  0  0  0  0  0  0  0  0  0  0
    4.2102   -1.6489    0.0000 C   0  0  0  0  0  0  0  0  0  0  0  0
    4.3508   -0.1555    0.0000 C   0  0  0  0  0  0  0  0  0  0  0  0
    5.7144    0.4694    0.0000 C   0  0  0  0  0  0  0  0  0  0  0  0
    5.8550    1.9628    0.0000 C   0  0  0  0  0  0  0  0  0  0  0  0
    7.2187    2.5877    0.0000 O   0  0  0  0  0  0  0  0  0  0  0  0
    4.6320    2.8313    0.0000 C   0  0  0  0  0  0  0  0  0  0  0  0
    3.2684    2.2063    0.0000 C   0  0  0  0  0  0  0  0  0  0  0  0
    3.1278    0.7130    0.0000 C   0  0  0  0  0  0  0  0  0  0  0  0
    1.9048    1.5814    0.0000 C   0  0  0  0  0  0  0  0  0  0  0  0
    1.7642    0.0880    0.0000 C   0  0  0  0  0  0  0  0  0  0  0  0
    0.5411    0.9565    0.0000 C   0  0  0  0  0  0  0  0  0  0  0  0
   -0.8225    0.3316    0.0000 C   0  0  0  0  0  0  0  0  0  0  0  0
   -2.0455    1.2001    0.0000 O   0  0  0  0  0  0  0  0  0  0  0  0
   -0.9631   -1.1618    0.0000 C   0  0  0  0  0  0  0  0  0  0  0  0
   -2.2702   -0.4259    0.0000 C   0  0  0  0  0  0  0  0  0  0  0  0
  2  1  1  6
  2  3  1  0
  3  4  1  0
  4  5  1  0
  5  6  2  0
  5  7  1  0
  7  8  1  0
  2  9  1  0
  9 10  1  6
 10 11  1  0
 12 11  1  6
 12 13  1  0
 13 14  1  1
 14 15  1  1
 14 16  1  0
 17 16  1  1
 17 18  1  0
 18 19  1  0
 19 20  1  1
 19 21  1  0
 21 22  1  0
 22 23  1  0
 23 24  1  6
 23 25  1  0
 25 26  1  6
 26 27  1  0
 27 28  1  1
 27 29  1  0
 29 30  1  6
 29  9  1  0
 29 12  1  0
 25 13  1  0
 23 17  1  0
M  END
>  <MS_ID>  (1003) 
MS1045

>  <SMILES>  (1003) 
C[C@H](CCC(=O)OF)[C@H]1CC[C@H]2[C@@H]3[C@H](O)C[C@@H]4C[C@H](O)CC[C@]4(C)[C@H]3C[C@H](O)[C@]12C

>  <Structure_dimension>  (1003) 
2D

$$$$
MS1046
     RDKit          2D

 33 36  0  0  0  0  0  0  0  0999 V2000
   -2.2798   -4.2044    0.0000 C   0  0  0  0  0  0  0  0  0  0  0  0
   -1.5509   -2.8934    0.0000 C   0  0  0  0  0  0  0  0  0  0  0  0
   -2.3219   -1.6066    0.0000 C   0  0  0  0  0  0  0  0  0  0  0  0
   -3.8217   -1.6309    0.0000 C   0  0  0  0  0  0  0  0  0  0  0  0
   -4.5926   -0.3442    0.0000 C   0  0  0  0  0  0  0  0  0  0  0  0
   -3.8638    0.9668    0.0000 O   0  0  0  0  0  0  0  0  0  0  0  0
   -6.0924   -0.3685    0.0000 O   0  0  0  0  0  0  0  0  0  0  0  0
   -6.8634    0.9182    0.0000 C   0  0  0  0  0  0  0  0  0  0  0  0
   -8.3632    0.8939    0.0000 C   0  0  0  0  0  0  0  0  0  0  0  0
   -9.1341    2.1807    0.0000 C   0  0  0  0  0  0  0  0  0  0  0  0
  -10.6339    2.1564    0.0000 C   0  0  0  0  0  0  0  0  0  0  0  0
  -11.4048    3.4431    0.0000 O   0  0  0  0  0  0  0  0  0  0  0  0
   -0.0511   -2.8691    0.0000 C   0  0  0  0  0  0  0  0  0  0  0  0
    0.8501   -4.0682    0.0000 C   0  0  0  0  0  0  0  0  0  0  0  0
    2.2690   -3.5816    0.0000 C   0  0  0  0  0  0  0  0  0  0  0  0
    2.2447   -2.0818    0.0000 C   0  0  0  0  0  0  0  0  0  0  0  0
    3.3430   -1.0602    0.0000 C   0  0  0  0  0  0  0  0  0  0  0  0
    4.7769   -1.5006    0.0000 C   0  0  0  0  0  0  0  0  0  0  0  0
    5.1125   -2.9625    0.0000 O   0  0  0  0  0  0  0  0  0  0  0  0
    5.8752   -0.4789    0.0000 C   0  0  0  0  0  0  0  0  0  0  0  0
    5.5396    0.9830    0.0000 C   0  0  0  0  0  0  0  0  0  0  0  0
    6.6380    2.0047    0.0000 C   0  0  0  0  0  0  0  0  0  0  0  0
    6.3024    3.4666    0.0000 C   0  0  0  0  0  0  0  0  0  0  0  0
    7.4007    4.4882    0.0000 O   0  0  0  0  0  0  0  0  0  0  0  0
    4.8685    3.9070    0.0000 C   0  0  0  0  0  0  0  0  0  0  0  0
    3.7701    2.8854    0.0000 C   0  0  0  0  0  0  0  0  0  0  0  0
    4.1057    1.4234    0.0000 C   0  0  0  0  0  0  0  0  0  0  0  0
    2.6718    1.8638    0.0000 C   0  0  0  0  0  0  0  0  0  0  0  0
    3.0074    0.4018    0.0000 C   0  0  0  0  0  0  0  0  0  0  0  0
    1.5735    0.8422    0.0000 C   0  0  0  0  0  0  0  0  0  0  0  0
    0.4752   -0.1795    0.0000 C   0  0  0  0  0  0  0  0  0  0  0  0
    0.8108   -1.6414    0.0000 C   0  0  0  0  0  0  0  0  0  0  0  0
   -0.6613   -1.3534    0.0000 C   0  0  0  0  0  0  0  0  0  0  0  0
  2  1  1  6
  2  3  1  0
  3  4  1  0
  4  5  1  0
  5  6  2  0
  5  7  1  0
  7  8  1  0
  8  9  1  0
  9 10  1  0
 10 11  1  0
 11 12  1  0
  2 13  1  0
 13 14  1  6
 14 15  1  0
 16 15  1  6
 16 17  1  0
 17 18  1  1
 18 19  1  1
 18 20  1  0
 21 20  1  1
 21 22  1  0
 22 23  1  0
 23 24  1  1
 23 25  1  0
 25 26  1  0
 26 27  1  0
 27 28  1  6
 27 29  1  0
 29 30  1  6
 30 31  1  0
 31 32  1  0
 32 33  1  6
 32 13  1  0
 32 16  1  0
 29 17  1  0
 27 21  1  0
M  END
>  <MS_ID>  (1004) 
MS1046

>  <SMILES>  (1004) 
C[C@H](CCC(=O)OCCCCO)[C@H]1CC[C@H]2[C@@H]3[C@H](O)C[C@@H]4C[C@H](O)CC[C@]4(C)[C@H]3CC[C@]12C

>  <Structure_dimension>  (1004) 
2D

$$$$
MS1047
     RDKit          2D

 34 37  0  0  0  0  0  0  0  0999 V2000
   -2.2928   -4.0886    0.0000 C   0  0  0  0  0  0  0  0  0  0  0  0
   -1.5244   -2.8004    0.0000 C   0  0  0  0  0  0  0  0  0  0  0  0
   -2.2558   -1.4908    0.0000 C   0  0  0  0  0  0  0  0  0  0  0  0
   -3.7557   -1.4695    0.0000 C   0  0  0  0  0  0  0  0  0  0  0  0
   -4.4872   -0.1599    0.0000 C   0  0  0  0  0  0  0  0  0  0  0  0
   -3.7188    1.1283    0.0000 O   0  0  0  0  0  0  0  0  0  0  0  0
   -5.9870   -0.1386    0.0000 C   0  0  0  0  0  0  0  0  0  0  0  0
   -6.7554   -1.4268    0.0000 O   0  0  0  0  0  0  0  0  0  0  0  0
   -6.7185    1.1710    0.0000 N   0  0  0  0  0  0  0  0  0  0  0  0
   -8.2183    1.1923    0.0000 C   0  0  0  0  0  0  0  0  0  0  0  0
   -8.9498    2.5019    0.0000 C   0  0  0  0  0  0  0  0  0  0  0  0
   -8.1814    3.7901    0.0000 O   0  0  0  0  0  0  0  0  0  0  0  0
  -10.4496    2.5232    0.0000 O   0  0  0  0  0  0  0  0  0  0  0  0
   -0.0245   -2.8217    0.0000 C   0  0  0  0  0  0  0  0  0  0  0  0
    0.8398   -4.0476    0.0000 C   0  0  0  0  0  0  0  0  0  0  0  0
    2.2728   -3.6044    0.0000 C   0  0  0  0  0  0  0  0  0  0  0  0
    2.2942   -2.1046    0.0000 C   0  0  0  0  0  0  0  0  0  0  0  0
    3.4230   -1.1168    0.0000 C   0  0  0  0  0  0  0  0  0  0  0  0
    4.8429   -1.6006    0.0000 C   0  0  0  0  0  0  0  0  0  0  0  0
    5.1339   -3.0721    0.0000 O   0  0  0  0  0  0  0  0  0  0  0  0
    5.9717   -0.6128    0.0000 C   0  0  0  0  0  0  0  0  0  0  0  0
    5.6808    0.8587    0.0000 C   0  0  0  0  0  0  0  0  0  0  0  0
    6.8096    1.8465    0.0000 C   0  0  0  0  0  0  0  0  0  0  0  0
    6.5187    3.3180    0.0000 C   0  0  0  0  0  0  0  0  0  0  0  0
    7.6475    4.3057    0.0000 O   0  0  0  0  0  0  0  0  0  0  0  0
    5.0988    3.8017    0.0000 C   0  0  0  0  0  0  0  0  0  0  0  0
    3.9699    2.8140    0.0000 C   0  0  0  0  0  0  0  0  0  0  0  0
    4.2609    1.3425    0.0000 C   0  0  0  0  0  0  0  0  0  0  0  0
    2.8411    1.8262    0.0000 C   0  0  0  0  0  0  0  0  0  0  0  0
    3.1320    0.3547    0.0000 C   0  0  0  0  0  0  0  0  0  0  0  0
    1.7122    0.8385    0.0000 C   0  0  0  0  0  0  0  0  0  0  0  0
    0.5833   -0.1493    0.0000 C   0  0  0  0  0  0  0  0  0  0  0  0
    0.8743   -1.6208    0.0000 C   0  0  0  0  0  0  0  0  0  0  0  0
   -0.5883   -1.2881    0.0000 C   0  0  0  0  0  0  0  0  0  0  0  0
  2  1  1  6
  2  3  1  0
  3  4  1  0
  4  5  1  0
  5  6  2  0
  5  7  1  0
  7  8  2  0
  7  9  1  0
  9 10  1  0
 10 11  1  0
 11 12  2  0
 11 13  1  0
  2 14  1  0
 14 15  1  6
 15 16  1  0
 17 16  1  6
 17 18  1  0
 18 19  1  1
 19 20  1  1
 19 21  1  0
 22 21  1  1
 22 23  1  0
 23 24  1  0
 24 25  1  1
 24 26  1  0
 26 27  1  0
 27 28  1  0
 28 29  1  6
 28 30  1  0
 30 31  1  6
 31 32  1  0
 32 33  1  0
 33 34  1  6
 33 14  1  0
 33 17  1  0
 30 18  1  0
 28 22  1  0
M  END
>  <MS_ID>  (1005) 
MS1047

>  <SMILES>  (1005) 
C[C@H](CCC(=O)C(=O)NCC(=O)O)[C@H]1CC[C@H]2[C@@H]3[C@H](O)C[C@@H]4C[C@H](O)CC[C@]4(C)[C@H]3CC[C@]12C

>  <Structure_dimension>  (1005) 
2D

$$$$
MS1048
     RDKit          2D

 30 33  0  0  0  0  0  0  0  0999 V2000
   -3.4828   -3.5922    0.0000 C   0  0  0  0  0  0  0  0  0  0  0  0
   -2.5481   -2.4190    0.0000 C   0  0  0  0  0  0  0  0  0  0  0  0
   -3.0967   -1.0230    0.0000 C   0  0  0  0  0  0  0  0  0  0  0  0
   -4.5801   -0.8000    0.0000 C   0  0  0  0  0  0  0  0  0  0  0  0
   -5.1287    0.5960    0.0000 C   0  0  0  0  0  0  0  0  0  0  0  0
   -4.1940    1.7692    0.0000 O   0  0  0  0  0  0  0  0  0  0  0  0
   -6.6120    0.8190    0.0000 O   0  0  0  0  0  0  0  0  0  0  0  0
   -7.1606    2.2150    0.0000 C   0  0  0  0  0  0  0  0  0  0  0  0
   -8.6440    2.4379    0.0000 C   0  0  0  0  0  0  0  0  0  0  0  0
   -9.1926    3.8340    0.0000 N   0  0  0  0  0  0  0  0  0  0  0  0
   -1.0648   -2.6420    0.0000 C   0  0  0  0  0  0  0  0  0  0  0  0
   -0.3732   -3.9730    0.0000 C   0  0  0  0  0  0  0  0  0  0  0  0
    1.1064   -3.7267    0.0000 C   0  0  0  0  0  0  0  0  0  0  0  0
    1.3293   -2.2433    0.0000 C   0  0  0  0  0  0  0  0  0  0  0  0
    2.5808   -1.4164    0.0000 C   0  0  0  0  0  0  0  0  0  0  0  0
    3.9227   -2.0868    0.0000 C   0  0  0  0  0  0  0  0  0  0  0  0
    5.1742   -1.2599    0.0000 C   0  0  0  0  0  0  0  0  0  0  0  0
    5.0838    0.2373    0.0000 C   0  0  0  0  0  0  0  0  0  0  0  0
    6.3353    1.0642    0.0000 C   0  0  0  0  0  0  0  0  0  0  0  0
    6.2450    2.5615    0.0000 C   0  0  0  0  0  0  0  0  0  0  0  0
    7.4965    3.3884    0.0000 O   0  0  0  0  0  0  0  0  0  0  0  0
    4.9031    3.2319    0.0000 C   0  0  0  0  0  0  0  0  0  0  0  0
    3.6516    2.4050    0.0000 C   0  0  0  0  0  0  0  0  0  0  0  0
    3.7420    0.9077    0.0000 C   0  0  0  0  0  0  0  0  0  0  0  0
    2.4001    1.5781    0.0000 C   0  0  0  0  0  0  0  0  0  0  0  0
    2.4905    0.0808    0.0000 C   0  0  0  0  0  0  0  0  0  0  0  0
    1.1486    0.7512    0.0000 C   0  0  0  0  0  0  0  0  0  0  0  0
   -0.1029   -0.0757    0.0000 C   0  0  0  0  0  0  0  0  0  0  0  0
   -0.0125   -1.5729    0.0000 C   0  0  0  0  0  0  0  0  0  0  0  0
   -1.4171   -1.0465    0.0000 C   0  0  0  0  0  0  0  0  0  0  0  0
  2  1  1  6
  2  3  1  0
  3  4  1  0
  4  5  1  0
  5  6  2  0
  5  7  1  0
  7  8  1  0
  8  9  1  0
  9 10  1  0
  2 11  1  0
 11 12  1  6
 12 13  1  0
 14 13  1  6
 14 15  1  0
 15 16  1  1
 16 17  1  0
 18 17  1  1
 18 19  1  0
 19 20  1  0
 20 21  1  6
 20 22  1  0
 22 23  1  0
 23 24  1  0
 24 25  1  6
 24 26  1  0
 26 27  1  6
 27 28  1  0
 28 29  1  0
 29 30  1  6
 29 11  1  0
 29 14  1  0
 26 15  1  0
 24 18  1  0
M  END
>  <MS_ID>  (1006) 
MS1048

>  <SMILES>  (1006) 
C[C@H](CCC(=O)OCCN)[C@H]1CC[C@H]2[C@@H]3CC[C@@H]4C[C@@H](O)CC[C@]4(C)[C@H]3CC[C@]12C

>  <Structure_dimension>  (1006) 
2D

$$$$
MS1049
     RDKit          2D

 34 38  0  0  0  0  0  0  0  0999 V2000
   -2.8183   -3.3453    0.0000 C   0  0  0  0  0  0  0  0  0  0  0  0
   -1.8264   -2.2202    0.0000 C   0  0  0  0  0  0  0  0  0  0  0  0
   -2.3048   -0.7985    0.0000 C   0  0  0  0  0  0  0  0  0  0  0  0
   -3.7752   -0.5020    0.0000 C   0  0  0  0  0  0  0  0  0  0  0  0
   -4.2537    0.9196    0.0000 C   0  0  0  0  0  0  0  0  0  0  0  0
   -3.2617    2.0448    0.0000 O   0  0  0  0  0  0  0  0  0  0  0  0
   -5.7241    1.2161    0.0000 C   0  0  0  0  0  0  0  0  0  0  0  0
   -6.2026    2.6377    0.0000 C   0  0  0  0  0  0  0  0  0  0  0  0
   -7.6730    2.9342    0.0000 C   0  0  0  0  0  0  0  0  0  0  0  0
   -8.6649    1.8090    0.0000 C   0  0  0  0  0  0  0  0  0  0  0  0
   -8.1865    0.3874    0.0000 C   0  0  0  0  0  0  0  0  0  0  0  0
   -9.1784   -0.7378    0.0000 O   0  0  0  0  0  0  0  0  0  0  0  0
   -6.7161    0.0909    0.0000 C   0  0  0  0  0  0  0  0  0  0  0  0
   -0.3560   -2.5166    0.0000 C   0  0  0  0  0  0  0  0  0  0  0  0
    0.2685   -3.8805    0.0000 C   0  0  0  0  0  0  0  0  0  0  0  0
    1.7585   -3.7081    0.0000 C   0  0  0  0  0  0  0  0  0  0  0  0
    2.0550   -2.2377    0.0000 C   0  0  0  0  0  0  0  0  0  0  0  0
    3.3461   -1.4741    0.0000 C   0  0  0  0  0  0  0  0  0  0  0  0
    4.6529   -2.2104    0.0000 C   0  0  0  0  0  0  0  0  0  0  0  0
    5.9440   -1.4469    0.0000 C   0  0  0  0  0  0  0  0  0  0  0  0
    5.9283    0.0531    0.0000 C   0  0  0  0  0  0  0  0  0  0  0  0
    7.2194    0.8166    0.0000 C   0  0  0  0  0  0  0  0  0  0  0  0
    7.2037    2.3165    0.0000 C   0  0  0  0  0  0  0  0  0  0  0  0
    8.4948    3.0801    0.0000 O   0  0  0  0  0  0  0  0  0  0  0  0
    5.8969    3.0529    0.0000 C   0  0  0  0  0  0  0  0  0  0  0  0
    4.6058    2.2893    0.0000 C   0  0  0  0  0  0  0  0  0  0  0  0
    4.6215    0.7894    0.0000 C   0  0  0  0  0  0  0  0  0  0  0  0
    3.3147    1.5257    0.0000 C   0  0  0  0  0  0  0  0  0  0  0  0
    3.3304    0.0258    0.0000 C   0  0  0  0  0  0  0  0  0  0  0  0
    2.0236    0.7622    0.0000 C   0  0  0  0  0  0  0  0  0  0  0  0
    0.7324   -0.0014    0.0000 C   0  0  0  0  0  0  0  0  0  0  0  0
   -0.5744    0.7349    0.0000 O   0  0  0  0  0  0  0  0  0  0  0  0
    0.7482   -1.5013    0.0000 C   0  0  0  0  0  0  0  0  0  0  0  0
   -0.6285   -0.9056    0.0000 C   0  0  0  0  0  0  0  0  0  0  0  0
  2  1  1  6
  2  3  1  0
  3  4  1  0
  4  5  1  0
  5  6  2  0
  5  7  1  0
  7  8  2  0
  8  9  1  0
  9 10  2  0
 10 11  1  0
 11 12  1  0
 11 13  2  0
  2 14  1  0
 14 15  1  6
 15 16  1  0
 17 16  1  6
 17 18  1  0
 18 19  1  1
 19 20  1  0
 21 20  1  1
 21 22  1  0
 22 23  1  0
 23 24  1  1
 23 25  1  0
 25 26  1  0
 26 27  1  0
 27 28  1  6
 27 29  1  0
 29 30  1  6
 30 31  1  0
 31 32  1  1
 31 33  1  0
 33 34  1  6
 13  7  1  0
 33 14  1  0
 33 17  1  0
 29 18  1  0
 27 21  1  0
M  END
>  <MS_ID>  (1007) 
MS1049

>  <SMILES>  (1007) 
C[C@H](CCC(=O)c1cccc(O)c1)[C@H]1CC[C@H]2[C@@H]3CC[C@@H]4C[C@H](O)CC[C@]4(C)[C@H]3C[C@H](O)[C@]12C

>  <Structure_dimension>  (1007) 
2D

$$$$
MS1050
     RDKit          2D

 30 33  0  0  0  0  0  0  0  0999 V2000
   -5.7116   -1.9729    0.0000 C   0  0  0  0  0  0  0  0  0  0  0  0
   -4.4780   -1.1196    0.0000 C   0  0  0  0  0  0  0  0  0  0  0  0
   -4.6002    0.3754    0.0000 C   0  0  0  0  0  0  0  0  0  0  0  0
   -5.9561    1.0171    0.0000 C   0  0  0  0  0  0  0  0  0  0  0  0
   -6.0783    2.5121    0.0000 C   0  0  0  0  0  0  0  0  0  0  0  0
   -4.8447    3.3654    0.0000 O   0  0  0  0  0  0  0  0  0  0  0  0
   -7.4341    3.1538    0.0000 O   0  0  0  0  0  0  0  0  0  0  0  0
   -3.1222   -1.7613    0.0000 C   0  0  0  0  0  0  0  0  0  0  0  0
   -2.8444   -3.2353    0.0000 C   0  0  0  0  0  0  0  0  0  0  0  0
   -1.3566   -3.4266    0.0000 C   0  0  0  0  0  0  0  0  0  0  0  0
   -0.7150   -2.0708    0.0000 C   0  0  0  0  0  0  0  0  0  0  0  0
    0.7220   -1.6404    0.0000 C   0  0  0  0  0  0  0  0  0  0  0  0
    1.8132   -2.6696    0.0000 C   0  0  0  0  0  0  0  0  0  0  0  0
    3.2501   -2.2393    0.0000 C   0  0  0  0  0  0  0  0  0  0  0  0
    3.5958   -0.7797    0.0000 C   0  0  0  0  0  0  0  0  0  0  0  0
    5.0328   -0.3493    0.0000 C   0  0  0  0  0  0  0  0  0  0  0  0
    5.3785    1.1103    0.0000 C   0  0  0  0  0  0  0  0  0  0  0  0
    6.8155    1.5407    0.0000 C   0  0  0  0  0  0  0  0  0  0  0  0
    7.9066    0.5115    0.0000 C   0  0  0  0  0  0  0  0  0  0  0  0
    9.3436    0.9418    0.0000 O   0  0  0  0  0  0  0  0  0  0  0  0
    4.2873    2.1396    0.0000 C   0  0  0  0  0  0  0  0  0  0  0  0
    2.8504    1.7092    0.0000 C   0  0  0  0  0  0  0  0  0  0  0  0
    2.5047    0.2496    0.0000 C   0  0  0  0  0  0  0  0  0  0  0  0
    1.4135    1.2788    0.0000 C   0  0  0  0  0  0  0  0  0  0  0  0
    1.0677   -0.1808    0.0000 C   0  0  0  0  0  0  0  0  0  0  0  0
   -0.0235    0.8484    0.0000 C   0  0  0  0  0  0  0  0  0  0  0  0
   -1.4604    0.4181    0.0000 C   0  0  0  0  0  0  0  0  0  0  0  0
   -2.5516    1.4473    0.0000 O   0  0  0  0  0  0  0  0  0  0  0  0
   -1.8061   -1.0415    0.0000 C   0  0  0  0  0  0  0  0  0  0  0  0
   -2.9989   -0.1320    0.0000 C   0  0  0  0  0  0  0  0  0  0  0  0
  2  1  1  6
  2  3  1  0
  3  4  1  0
  4  5  1  0
  5  6  2  0
  5  7  1  0
  2  8  1  0
  8  9  1  6
  9 10  1  0
 11 10  1  6
 11 12  1  0
 12 13  1  1
 13 14  1  0
 15 14  1  1
 15 16  1  0
 16 17  1  0
 17 18  1  1
 18 19  1  0
 19 20  1  0
 17 21  1  0
 21 22  1  0
 22 23  1  0
 23 24  1  6
 23 25  1  0
 25 26  1  6
 26 27  1  0
 27 28  1  6
 27 29  1  0
 29 30  1  6
 29  8  1  0
 29 11  1  0
 25 12  1  0
 23 15  1  0
M  END
>  <MS_ID>  (1008) 
MS1050

>  <SMILES>  (1008) 
C[C@H](CCC(=O)O)[C@H]1CC[C@H]2[C@@H]3CC[C@@H]4C[C@H](CCO)CC[C@]4(C)[C@H]3C[C@@H](O)[C@]12C

>  <Structure_dimension>  (1008) 
2D

$$$$
MS1051
     RDKit          2D

 40 44  0  0  0  0  0  0  0  0999 V2000
   -0.9108   -4.8216    0.0000 C   0  0  0  0  0  0  0  0  0  0  0  0
   -0.3447   -3.4325    0.0000 C   0  0  0  0  0  0  0  0  0  0  0  0
   -1.2647   -2.2477    0.0000 C   0  0  0  0  0  0  0  0  0  0  0  0
   -2.7507   -2.4520    0.0000 C   0  0  0  0  0  0  0  0  0  0  0  0
   -3.6706   -1.2672    0.0000 C   0  0  0  0  0  0  0  0  0  0  0  0
   -3.1046    0.1219    0.0000 O   0  0  0  0  0  0  0  0  0  0  0  0
   -5.1567   -1.4715    0.0000 O   0  0  0  0  0  0  0  0  0  0  0  0
   -6.0766   -0.2867    0.0000 C   0  0  0  0  0  0  0  0  0  0  0  0
   -5.5105    1.1023    0.0000 O   0  0  0  0  0  0  0  0  0  0  0  0
   -6.4305    2.2871    0.0000 C   0  0  0  0  0  0  0  0  0  0  0  0
   -5.8644    3.6762    0.0000 C   0  0  0  0  0  0  0  0  0  0  0  0
   -4.3784    3.8805    0.0000 O   0  0  0  0  0  0  0  0  0  0  0  0
   -7.9165    2.0828    0.0000 C   0  0  0  0  0  0  0  0  0  0  0  0
   -8.8364    3.2676    0.0000 O   0  0  0  0  0  0  0  0  0  0  0  0
   -8.4826    0.6937    0.0000 C   0  0  0  0  0  0  0  0  0  0  0  0
   -9.9686    0.4894    0.0000 O   0  0  0  0  0  0  0  0  0  0  0  0
   -7.5626   -0.4910    0.0000 C   0  0  0  0  0  0  0  0  0  0  0  0
   -8.1287   -1.8801    0.0000 O   0  0  0  0  0  0  0  0  0  0  0  0
    1.1413   -3.2282    0.0000 C   0  0  0  0  0  0  0  0  0  0  0  0
    2.1800   -4.3103    0.0000 C   0  0  0  0  0  0  0  0  0  0  0  0
    3.5302   -3.6568    0.0000 C   0  0  0  0  0  0  0  0  0  0  0  0
    3.3259   -2.1708    0.0000 C   0  0  0  0  0  0  0  0  0  0  0  0
    4.2935   -1.0246    0.0000 C   0  0  0  0  0  0  0  0  0  0  0  0
    5.7699   -1.2896    0.0000 C   0  0  0  0  0  0  0  0  0  0  0  0
    6.2787   -2.7006    0.0000 O   0  0  0  0  0  0  0  0  0  0  0  0
    6.7376   -0.1434    0.0000 C   0  0  0  0  0  0  0  0  0  0  0  0
    8.2140   -0.4083    0.0000 O   0  0  0  0  0  0  0  0  0  0  0  0
    6.2288    1.2677    0.0000 C   0  0  0  0  0  0  0  0  0  0  0  0
    7.1964    2.4139    0.0000 C   0  0  0  0  0  0  0  0  0  0  0  0
    6.6876    3.8249    0.0000 C   0  0  0  0  0  0  0  0  0  0  0  0
    7.6552    4.9711    0.0000 O   0  0  0  0  0  0  0  0  0  0  0  0
    5.2112    4.0898    0.0000 C   0  0  0  0  0  0  0  0  0  0  0  0
    4.2435    2.9437    0.0000 C   0  0  0  0  0  0  0  0  0  0  0  0
    4.7523    1.5326    0.0000 C   0  0  0  0  0  0  0  0  0  0  0  0
    3.2759    1.7975    0.0000 C   0  0  0  0  0  0  0  0  0  0  0  0
    3.7847    0.3864    0.0000 C   0  0  0  0  0  0  0  0  0  0  0  0
    2.3083    0.6513    0.0000 C   0  0  0  0  0  0  0  0  0  0  0  0
    1.3407   -0.4948    0.0000 C   0  0  0  0  0  0  0  0  0  0  0  0
    1.8495   -1.9059    0.0000 C   0  0  0  0  0  0  0  0  0  0  0  0
    0.3534   -1.7968    0.0000 C   0  0  0  0  0  0  0  0  0  0  0  0
  2  1  1  6
  2  3  1  0
  3  4  1  0
  4  5  1  0
  5  6  2  0
  5  7  1  0
  8  7  1  1
  8  9  1  0
  9 10  1  0
 10 11  1  1
 11 12  1  0
 10 13  1  0
 13 14  1  1
 13 15  1  0
 15 16  1  1
 15 17  1  0
 17 18  1  6
  2 19  1  0
 19 20  1  6
 20 21  1  0
 22 21  1  6
 22 23  1  0
 23 24  1  1
 24 25  1  1
 24 26  1  0
 26 27  1  1
 26 28  1  0
 28 29  1  1
 29 30  1  0
 30 31  1  1
 30 32  1  0
 32 33  1  0
 33 34  1  0
 34 35  1  6
 34 36  1  0
 36 37  1  6
 37 38  1  0
 38 39  1  0
 39 40  1  6
 17  8  1  0
 39 19  1  0
 39 22  1  0
 36 23  1  0
 34 28  1  0
M  END
>  <MS_ID>  (1009) 
MS1051

>  <SMILES>  (1009) 
C[C@H](CCC(=O)O[C@@H]1O[C@H](CO)[C@H](O)[C@H](O)[C@H]1O)[C@H]1CC[C@H]2[C@@H]3[C@H](O)[C@H](O)[C@@H]4C[C@H](O)CC[C@]4(C)[C@H]3CC[C@]12C

>  <Structure_dimension>  (1009) 
2D

$$$$
MS1052
     RDKit          2D

 29 32  0  0  0  0  0  0  0  0999 V2000
   -4.6551   -2.6180    0.0000 C   0  0  0  0  0  0  0  0  0  0  0  0
   -3.5633   -1.5894    0.0000 C   0  0  0  0  0  0  0  0  0  0  0  0
   -3.9081   -0.1296    0.0000 C   0  0  0  0  0  0  0  0  0  0  0  0
   -5.3448    0.3016    0.0000 C   0  0  0  0  0  0  0  0  0  0  0  0
   -5.6897    1.7615    0.0000 C   0  0  0  0  0  0  0  0  0  0  0  0
   -4.5979    2.7900    0.0000 O   0  0  0  0  0  0  0  0  0  0  0  0
   -7.1264    2.1927    0.0000 N   0  0  0  0  0  0  0  0  0  0  0  0
   -7.4712    3.6525    0.0000 O   0  0  0  0  0  0  0  0  0  0  0  0
   -2.1266   -2.0207    0.0000 C   0  0  0  0  0  0  0  0  0  0  0  0
   -1.6310   -3.4364    0.0000 C   0  0  0  0  0  0  0  0  0  0  0  0
   -0.1314   -3.4026    0.0000 C   0  0  0  0  0  0  0  0  0  0  0  0
    0.2998   -1.9659    0.0000 C   0  0  0  0  0  0  0  0  0  0  0  0
    1.6561   -1.3251    0.0000 C   0  0  0  0  0  0  0  0  0  0  0  0
    2.8892   -2.1792    0.0000 C   0  0  0  0  0  0  0  0  0  0  0  0
    2.7660   -3.6741    0.0000 O   0  0  0  0  0  0  0  0  0  0  0  0
    4.2454   -1.5383    0.0000 C   0  0  0  0  0  0  0  0  0  0  0  0
    4.3685   -0.0434    0.0000 C   0  0  0  0  0  0  0  0  0  0  0  0
    5.7247    0.5975    0.0000 C   0  0  0  0  0  0  0  0  0  0  0  0
    5.8478    2.0924    0.0000 C   0  0  0  0  0  0  0  0  0  0  0  0
    7.2040    2.7332    0.0000 O   0  0  0  0  0  0  0  0  0  0  0  0
    4.6147    2.9465    0.0000 C   0  0  0  0  0  0  0  0  0  0  0  0
    3.2585    2.3056    0.0000 C   0  0  0  0  0  0  0  0  0  0  0  0
    3.1354    0.8107    0.0000 C   0  0  0  0  0  0  0  0  0  0  0  0
    1.9023    1.6648    0.0000 C   0  0  0  0  0  0  0  0  0  0  0  0
    1.7792    0.1699    0.0000 C   0  0  0  0  0  0  0  0  0  0  0  0
    0.5461    1.0239    0.0000 C   0  0  0  0  0  0  0  0  0  0  0  0
   -0.8101    0.3831    0.0000 C   0  0  0  0  0  0  0  0  0  0  0  0
   -0.9333   -1.1118    0.0000 C   0  0  0  0  0  0  0  0  0  0  0  0
   -2.2489   -0.3913    0.0000 C   0  0  0  0  0  0  0  0  0  0  0  0
  2  1  1  6
  2  3  1  0
  3  4  1  0
  4  5  1  0
  5  6  2  0
  5  7  1  0
  7  8  1  0
  2  9  1  0
  9 10  1  6
 10 11  1  0
 12 11  1  6
 12 13  1  0
 13 14  1  1
 14 15  1  1
 14 16  1  0
 17 16  1  1
 17 18  1  0
 18 19  1  0
 19 20  2  0
 19 21  1  0
 21 22  1  0
 22 23  1  0
 23 24  1  6
 23 25  1  0
 25 26  1  6
 26 27  1  0
 27 28  1  0
 28 29  1  6
 28  9  1  0
 28 12  1  0
 25 13  1  0
 23 17  1  0
M  END
>  <MS_ID>  (1010) 
MS1052

>  <SMILES>  (1010) 
C[C@H](CCC(=O)NO)[C@H]1CC[C@H]2[C@@H]3[C@H](O)C[C@@H]4CC(=O)CC[C@]4(C)[C@H]3CC[C@]12C

>  <Structure_dimension>  (1010) 
2D

$$$$
MS1053
     RDKit          2D

 27 30  0  0  0  0  0  0  0  0999 V2000
   -5.1023   -2.0364    0.0000 C   0  0  0  0  0  0  0  0  0  0  0  0
   -3.8978   -1.1425    0.0000 C   0  0  0  0  0  0  0  0  0  0  0  0
   -4.0697    0.3476    0.0000 C   0  0  0  0  0  0  0  0  0  0  0  0
   -5.4461    0.9438    0.0000 C   0  0  0  0  0  0  0  0  0  0  0  0
   -5.6180    2.4339    0.0000 C   0  0  0  0  0  0  0  0  0  0  0  0
   -4.4135    3.3278    0.0000 O   0  0  0  0  0  0  0  0  0  0  0  0
   -6.9944    3.0301    0.0000 O   0  0  0  0  0  0  0  0  0  0  0  0
   -2.5213   -1.7387    0.0000 C   0  0  0  0  0  0  0  0  0  0  0  0
   -2.1946   -3.2027    0.0000 C   0  0  0  0  0  0  0  0  0  0  0  0
   -0.7013   -3.3444    0.0000 C   0  0  0  0  0  0  0  0  0  0  0  0
   -0.1051   -1.9679    0.0000 C   0  0  0  0  0  0  0  0  0  0  0  0
    1.3167   -1.4900    0.0000 C   0  0  0  0  0  0  0  0  0  0  0  0
    2.4415   -2.4823    0.0000 C   0  0  0  0  0  0  0  0  0  0  0  0
    3.8633   -2.0044    0.0000 C   0  0  0  0  0  0  0  0  0  0  0  0
    4.1603   -0.5341    0.0000 C   0  0  0  0  0  0  0  0  0  0  0  0
    5.5821   -0.0561    0.0000 C   0  0  0  0  0  0  0  0  0  0  0  0
    5.8791    1.4142    0.0000 C   0  0  0  0  0  0  0  0  0  0  0  0
    7.3009    1.8921    0.0000 F   0  0  0  0  0  0  0  0  0  0  0  0
    4.7543    2.4065    0.0000 C   0  0  0  0  0  0  0  0  0  0  0  0
    3.3325    1.9286    0.0000 C   0  0  0  0  0  0  0  0  0  0  0  0
    3.0355    0.4583    0.0000 C   0  0  0  0  0  0  0  0  0  0  0  0
    1.9107    1.4506    0.0000 C   0  0  0  0  0  0  0  0  0  0  0  0
    1.6137   -0.0197    0.0000 C   0  0  0  0  0  0  0  0  0  0  0  0
    0.4888    0.9727    0.0000 C   0  0  0  0  0  0  0  0  0  0  0  0
   -0.9330    0.4947    0.0000 C   0  0  0  0  0  0  0  0  0  0  0  0
   -1.2300   -0.9756    0.0000 C   0  0  0  0  0  0  0  0  0  0  0  0
   -2.4524   -0.1062    0.0000 C   0  0  0  0  0  0  0  0  0  0  0  0
  2  1  1  6
  2  3  1  0
  3  4  1  0
  4  5  1  0
  5  6  2  0
  5  7  1  0
  2  8  1  0
  8  9  1  6
  9 10  1  0
 11 10  1  6
 11 12  1  0
 12 13  1  1
 13 14  1  0
 15 14  1  1
 15 16  1  0
 16 17  1  0
 17 18  1  1
 17 19  1  0
 19 20  1  0
 20 21  1  0
 21 22  1  6
 21 23  1  0
 23 24  1  6
 24 25  1  0
 25 26  1  0
 26 27  1  6
 26  8  1  0
 26 11  1  0
 23 12  1  0
 21 15  1  0
M  END
>  <MS_ID>  (1011) 
MS1053

>  <SMILES>  (1011) 
C[C@H](CCC(=O)O)[C@H]1CC[C@H]2[C@@H]3CC[C@@H]4C[C@H](F)CC[C@]4(C)[C@H]3CC[C@]12C

>  <Structure_dimension>  (1011) 
2D

$$$$
MS1054
     RDKit          2D

 32 35  0  0  0  0  0  0  0  0999 V2000
   -3.5170   -3.1982    0.0000 C   0  0  0  0  0  0  0  0  0  0  0  0
   -2.5331   -2.0660    0.0000 C   0  0  0  0  0  0  0  0  0  0  0  0
   -3.0217   -0.6478    0.0000 C   0  0  0  0  0  0  0  0  0  0  0  0
   -4.4942   -0.3618    0.0000 C   0  0  0  0  0  0  0  0  0  0  0  0
   -4.9828    1.0563    0.0000 C   0  0  0  0  0  0  0  0  0  0  0  0
   -3.9990    2.1886    0.0000 O   0  0  0  0  0  0  0  0  0  0  0  0
   -6.4553    1.3423    0.0000 C   0  0  0  0  0  0  0  0  0  0  0  0
   -6.9439    2.7605    0.0000 C   0  0  0  0  0  0  0  0  0  0  0  0
   -8.4164    3.0464    0.0000 O   0  0  0  0  0  0  0  0  0  0  0  0
   -7.4392    0.2100    0.0000 C   0  0  0  0  0  0  0  0  0  0  0  0
   -8.9117    0.4960    0.0000 O   0  0  0  0  0  0  0  0  0  0  0  0
   -1.0606   -2.3519    0.0000 C   0  0  0  0  0  0  0  0  0  0  0  0
   -0.4264   -3.7112    0.0000 C   0  0  0  0  0  0  0  0  0  0  0  0
    1.0624   -3.5282    0.0000 C   0  0  0  0  0  0  0  0  0  0  0  0
    1.3483   -2.0557    0.0000 C   0  0  0  0  0  0  0  0  0  0  0  0
    2.6339   -1.2829    0.0000 C   0  0  0  0  0  0  0  0  0  0  0  0
    3.9460   -2.0098    0.0000 C   0  0  0  0  0  0  0  0  0  0  0  0
    3.9724   -3.5096    0.0000 O   0  0  0  0  0  0  0  0  0  0  0  0
    5.2316   -1.2370    0.0000 C   0  0  0  0  0  0  0  0  0  0  0  0
    5.2051    0.2627    0.0000 C   0  0  0  0  0  0  0  0  0  0  0  0
    6.4907    1.0355    0.0000 C   0  0  0  0  0  0  0  0  0  0  0  0
    6.4643    2.5353    0.0000 C   0  0  0  0  0  0  0  0  0  0  0  0
    7.7499    3.3081    0.0000 O   0  0  0  0  0  0  0  0  0  0  0  0
    5.1522    3.2623    0.0000 C   0  0  0  0  0  0  0  0  0  0  0  0
    3.8666    2.4895    0.0000 C   0  0  0  0  0  0  0  0  0  0  0  0
    3.8930    0.9897    0.0000 C   0  0  0  0  0  0  0  0  0  0  0  0
    2.5810    1.7167    0.0000 C   0  0  0  0  0  0  0  0  0  0  0  0
    2.6074    0.2169    0.0000 C   0  0  0  0  0  0  0  0  0  0  0  0
    1.2954    0.9439    0.0000 C   0  0  0  0  0  0  0  0  0  0  0  0
    0.0098    0.1711    0.0000 C   0  0  0  0  0  0  0  0  0  0  0  0
    0.0362   -1.3287    0.0000 C   0  0  0  0  0  0  0  0  0  0  0  0
   -1.3446   -0.7429    0.0000 C   0  0  0  0  0  0  0  0  0  0  0  0
  2  1  1  6
  2  3  1  0
  3  4  1  0
  4  5  1  0
  5  6  2  0
  5  7  1  0
  7  8  1  0
  8  9  1  0
  7 10  1  0
 10 11  1  0
  2 12  1  0
 12 13  1  6
 13 14  1  0
 15 14  1  6
 15 16  1  0
 16 17  1  1
 17 18  1  1
 17 19  1  0
 20 19  1  1
 20 21  1  0
 21 22  1  0
 22 23  1  1
 22 24  1  0
 24 25  1  0
 25 26  1  0
 26 27  1  6
 26 28  1  0
 28 29  1  6
 29 30  1  0
 30 31  1  0
 31 32  1  6
 31 12  1  0
 31 15  1  0
 28 16  1  0
 26 20  1  0
M  END
>  <MS_ID>  (1012) 
MS1054

>  <SMILES>  (1012) 
C[C@H](CCC(=O)C(CO)CO)[C@H]1CC[C@H]2[C@@H]3[C@H](O)C[C@@H]4C[C@H](O)CC[C@]4(C)[C@H]3CC[C@]12C

>  <Structure_dimension>  (1012) 
2D

$$$$
MS1055
     RDKit          2D

 31 34  0  0  0  0  0  0  0  0999 V2000
   -6.0200   -1.8327    0.0000 C   0  0  0  0  0  0  0  0  0  0  0  0
   -4.7535   -1.0289    0.0000 C   0  0  0  0  0  0  0  0  0  0  0  0
   -4.8164    0.4698    0.0000 C   0  0  0  0  0  0  0  0  0  0  0  0
   -6.1458    1.1647    0.0000 C   0  0  0  0  0  0  0  0  0  0  0  0
   -6.2086    2.6634    0.0000 C   0  0  0  0  0  0  0  0  0  0  0  0
   -4.9422    3.4672    0.0000 O   0  0  0  0  0  0  0  0  0  0  0  0
   -7.5380    3.3582    0.0000 O   0  0  0  0  0  0  0  0  0  0  0  0
   -3.4242   -1.7237    0.0000 C   0  0  0  0  0  0  0  0  0  0  0  0
   -3.2050   -3.2076    0.0000 C   0  0  0  0  0  0  0  0  0  0  0  0
   -1.7260   -3.4577    0.0000 C   0  0  0  0  0  0  0  0  0  0  0  0
   -1.0311   -2.1284    0.0000 C   0  0  0  0  0  0  0  0  0  0  0  0
    0.4218   -1.7553    0.0000 C   0  0  0  0  0  0  0  0  0  0  0  0
    1.4713   -2.8269    0.0000 C   0  0  0  0  0  0  0  0  0  0  0  0
    2.9242   -2.4538    0.0000 C   0  0  0  0  0  0  0  0  0  0  0  0
    3.3275   -1.0091    0.0000 C   0  0  0  0  0  0  0  0  0  0  0  0
    4.7803   -0.6359    0.0000 C   0  0  0  0  0  0  0  0  0  0  0  0
    5.1836    0.8088    0.0000 C   0  0  0  0  0  0  0  0  0  0  0  0
    6.6365    1.1819    0.0000 C   0  0  0  0  0  0  0  0  0  0  0  0
    7.0398    2.6267    0.0000 O   0  0  0  0  0  0  0  0  0  0  0  0
    7.6860    0.1103    0.0000 C   0  0  0  0  0  0  0  0  0  0  0  0
    9.1389    0.4834    0.0000 O   0  0  0  0  0  0  0  0  0  0  0  0
    4.1341    1.8805    0.0000 C   0  0  0  0  0  0  0  0  0  0  0  0
    2.6812    1.5074    0.0000 C   0  0  0  0  0  0  0  0  0  0  0  0
    2.2779    0.0626    0.0000 C   0  0  0  0  0  0  0  0  0  0  0  0
    1.2284    1.1343    0.0000 C   0  0  0  0  0  0  0  0  0  0  0  0
    0.8251   -0.3105    0.0000 C   0  0  0  0  0  0  0  0  0  0  0  0
   -0.2245    0.7611    0.0000 C   0  0  0  0  0  0  0  0  0  0  0  0
   -1.6773    0.3880    0.0000 C   0  0  0  0  0  0  0  0  0  0  0  0
   -2.7269    1.4597    0.0000 O   0  0  0  0  0  0  0  0  0  0  0  0
   -2.0806   -1.0567    0.0000 C   0  0  0  0  0  0  0  0  0  0  0  0
   -3.2365   -0.1006    0.0000 C   0  0  0  0  0  0  0  0  0  0  0  0
  2  1  1  6
  2  3  1  0
  3  4  1  0
  4  5  1  0
  5  6  2  0
  5  7  1  0
  2  8  1  0
  8  9  1  6
  9 10  1  0
 11 10  1  6
 11 12  1  0
 12 13  1  1
 13 14  1  0
 15 14  1  1
 15 16  1  0
 16 17  1  0
 17 18  1  1
 18 19  2  0
 18 20  1  0
 20 21  1  0
 17 22  1  0
 22 23  1  0
 23 24  1  0
 24 25  1  6
 24 26  1  0
 26 27  1  6
 27 28  1  0
 28 29  1  1
 28 30  1  0
 30 31  1  6
 30  8  1  0
 30 11  1  0
 26 12  1  0
 24 15  1  0
M  END
>  <MS_ID>  (1013) 
MS1055

>  <SMILES>  (1013) 
C[C@H](CCC(=O)O)[C@H]1CC[C@H]2[C@@H]3CC[C@@H]4C[C@H](C(=O)CO)CC[C@]4(C)[C@H]3C[C@H](O)[C@]12C

>  <Structure_dimension>  (1013) 
2D

$$$$
MS1056
     RDKit          2D

 33 36  0  0  0  0  0  0  0  0999 V2000
   -2.7798   -3.8103    0.0000 C   0  0  0  0  0  0  0  0  0  0  0  0
   -1.9338   -2.5716    0.0000 C   0  0  0  0  0  0  0  0  0  0  0  0
   -2.5835   -1.2196    0.0000 C   0  0  0  0  0  0  0  0  0  0  0  0
   -4.0792   -1.1063    0.0000 C   0  0  0  0  0  0  0  0  0  0  0  0
   -4.7289    0.2457    0.0000 C   0  0  0  0  0  0  0  0  0  0  0  0
   -3.8829    1.4843    0.0000 O   0  0  0  0  0  0  0  0  0  0  0  0
   -6.2246    0.3590    0.0000 C   0  0  0  0  0  0  0  0  0  0  0  0
   -6.8743    1.7110    0.0000 N   0  0  0  0  0  0  0  0  0  0  0  0
   -8.3700    1.8244    0.0000 S   0  0  0  0  0  0  0  0  0  0  0  0
   -8.2567    3.3201    0.0000 O   0  0  0  0  0  0  0  0  0  0  0  0
   -8.4834    0.3287    0.0000 O   0  0  0  0  0  0  0  0  0  0  0  0
   -9.8657    1.9377    0.0000 O   0  0  0  0  0  0  0  0  0  0  0  0
   -0.4381   -2.6850    0.0000 C   0  0  0  0  0  0  0  0  0  0  0  0
    0.3494   -3.9617    0.0000 C   0  0  0  0  0  0  0  0  0  0  0  0
    1.8069   -3.6073    0.0000 C   0  0  0  0  0  0  0  0  0  0  0  0
    1.9202   -2.1116    0.0000 C   0  0  0  0  0  0  0  0  0  0  0  0
    3.1076   -1.1950    0.0000 C   0  0  0  0  0  0  0  0  0  0  0  0
    4.4951   -1.7650    0.0000 C   0  0  0  0  0  0  0  0  0  0  0  0
    4.6952   -3.2515    0.0000 O   0  0  0  0  0  0  0  0  0  0  0  0
    5.6825   -0.8484    0.0000 C   0  0  0  0  0  0  0  0  0  0  0  0
    5.4824    0.6382    0.0000 C   0  0  0  0  0  0  0  0  0  0  0  0
    6.6697    1.5548    0.0000 C   0  0  0  0  0  0  0  0  0  0  0  0
    6.4696    3.0414    0.0000 C   0  0  0  0  0  0  0  0  0  0  0  0
    7.6570    3.9580    0.0000 O   0  0  0  0  0  0  0  0  0  0  0  0
    5.0821    3.6114    0.0000 C   0  0  0  0  0  0  0  0  0  0  0  0
    3.8948    2.6948    0.0000 C   0  0  0  0  0  0  0  0  0  0  0  0
    4.0949    1.2082    0.0000 C   0  0  0  0  0  0  0  0  0  0  0  0
    2.7074    1.7782    0.0000 C   0  0  0  0  0  0  0  0  0  0  0  0
    2.9075    0.2916    0.0000 C   0  0  0  0  0  0  0  0  0  0  0  0
    1.5200    0.8616    0.0000 C   0  0  0  0  0  0  0  0  0  0  0  0
    0.3327   -0.0550    0.0000 C   0  0  0  0  0  0  0  0  0  0  0  0
    0.5328   -1.5416    0.0000 C   0  0  0  0  0  0  0  0  0  0  0  0
   -0.9067   -1.1197    0.0000 C   0  0  0  0  0  0  0  0  0  0  0  0
  2  1  1  6
  2  3  1  0
  3  4  1  0
  4  5  1  0
  5  6  2  0
  5  7  1  0
  7  8  1  0
  8  9  1  0
  9 10  2  0
  9 11  2  0
  9 12  1  0
  2 13  1  0
 13 14  1  6
 14 15  1  0
 16 15  1  6
 16 17  1  0
 17 18  1  1
 18 19  1  1
 18 20  1  0
 21 20  1  1
 21 22  1  0
 22 23  1  0
 23 24  1  1
 23 25  1  0
 25 26  1  0
 26 27  1  0
 27 28  1  6
 27 29  1  0
 29 30  1  6
 30 31  1  0
 31 32  1  0
 32 33  1  6
 32 13  1  0
 32 16  1  0
 29 17  1  0
 27 21  1  0
M  END
>  <MS_ID>  (1014) 
MS1056

>  <SMILES>  (1014) 
C[C@H](CCC(=O)CNS(=O)(=O)O)[C@H]1CC[C@H]2[C@@H]3[C@H](O)C[C@@H]4C[C@H](O)CC[C@]4(C)[C@H]3CC[C@]12C

>  <Structure_dimension>  (1014) 
2D

$$$$
MS1057
     RDKit          2D

 32 35  0  0  0  0  0  0  0  0999 V2000
   -1.9919   -4.2474    0.0000 C   0  0  0  0  0  0  0  0  0  0  0  0
   -1.2734   -2.9307    0.0000 C   0  0  0  0  0  0  0  0  0  0  0  0
   -2.0544   -1.6501    0.0000 C   0  0  0  0  0  0  0  0  0  0  0  0
   -3.5539   -1.6861    0.0000 C   0  0  0  0  0  0  0  0  0  0  0  0
   -4.3349   -0.4055    0.0000 C   0  0  0  0  0  0  0  0  0  0  0  0
   -3.6164    0.9112    0.0000 O   0  0  0  0  0  0  0  0  0  0  0  0
   -5.8345   -0.4416    0.0000 N   0  0  0  0  0  0  0  0  0  0  0  0
   -6.6155    0.8391    0.0000 C   0  0  0  0  0  0  0  0  0  0  0  0
   -8.1151    0.8030    0.0000 C   0  0  0  0  0  0  0  0  0  0  0  0
   -8.8961    2.0837    0.0000 O   0  0  0  0  0  0  0  0  0  0  0  0
   -5.8969    2.1558    0.0000 C   0  0  0  0  0  0  0  0  0  0  0  0
   -4.3974    2.1918    0.0000 O   0  0  0  0  0  0  0  0  0  0  0  0
   -6.6779    3.4364    0.0000 O   0  0  0  0  0  0  0  0  0  0  0  0
    0.2262   -2.8947    0.0000 C   0  0  0  0  0  0  0  0  0  0  0  0
    1.1368   -4.0867    0.0000 C   0  0  0  0  0  0  0  0  0  0  0  0
    2.5518   -3.5890    0.0000 C   0  0  0  0  0  0  0  0  0  0  0  0
    2.5158   -2.0894    0.0000 C   0  0  0  0  0  0  0  0  0  0  0  0
    3.6061   -1.0592    0.0000 C   0  0  0  0  0  0  0  0  0  0  0  0
    5.0434   -1.4884    0.0000 C   0  0  0  0  0  0  0  0  0  0  0  0
    6.1337   -0.4582    0.0000 C   0  0  0  0  0  0  0  0  0  0  0  0
    5.7866    1.0011    0.0000 C   0  0  0  0  0  0  0  0  0  0  0  0
    6.8769    2.0313    0.0000 C   0  0  0  0  0  0  0  0  0  0  0  0
    6.5299    3.4906    0.0000 C   0  0  0  0  0  0  0  0  0  0  0  0
    5.0925    3.9197    0.0000 C   0  0  0  0  0  0  0  0  0  0  0  0
    4.0023    2.8896    0.0000 C   0  0  0  0  0  0  0  0  0  0  0  0
    4.3493    1.4302    0.0000 C   0  0  0  0  0  0  0  0  0  0  0  0
    2.9120    1.8594    0.0000 C   0  0  0  0  0  0  0  0  0  0  0  0
    3.2590    0.4001    0.0000 C   0  0  0  0  0  0  0  0  0  0  0  0
    1.8217    0.8292    0.0000 C   0  0  0  0  0  0  0  0  0  0  0  0
    0.7314   -0.2010    0.0000 C   0  0  0  0  0  0  0  0  0  0  0  0
    1.0785   -1.6603    0.0000 C   0  0  0  0  0  0  0  0  0  0  0  0
   -0.3958   -1.3838    0.0000 C   0  0  0  0  0  0  0  0  0  0  0  0
  2  1  1  6
  2  3  1  0
  3  4  1  0
  4  5  1  0
  5  6  2  0
  5  7  1  0
  7  8  1  0
  8  9  1  1
  9 10  1  0
  8 11  1  0
 11 12  2  0
 11 13  1  0
  2 14  1  0
 14 15  1  6
 15 16  1  0
 17 16  1  6
 17 18  1  0
 18 19  1  1
 19 20  1  0
 21 20  1  1
 21 22  1  0
 22 23  1  0
 23 24  1  0
 24 25  1  0
 25 26  1  0
 26 27  1  6
 26 28  1  0
 28 29  1  6
 29 30  1  0
 30 31  1  0
 31 32  1  6
 31 14  1  0
 31 17  1  0
 28 18  1  0
 26 21  1  0
M  END
>  <MS_ID>  (1015) 
MS1057

>  <SMILES>  (1015) 
C[C@H](CCC(=O)N[C@@H](CO)C(=O)O)[C@H]1CC[C@H]2[C@@H]3CC[C@@H]4CCCC[C@]4(C)[C@H]3CC[C@]12C

>  <Structure_dimension>  (1015) 
2D

$$$$
MS1058
     RDKit          2D

 35 38  0  0  0  0  0  0  0  0999 V2000
   -2.4368   -4.1726    0.0000 C   0  0  0  0  0  0  0  0  0  0  0  0
   -1.6698   -2.8835    0.0000 C   0  0  0  0  0  0  0  0  0  0  0  0
   -2.4027   -1.5747    0.0000 C   0  0  0  0  0  0  0  0  0  0  0  0
   -3.9026   -1.5550    0.0000 C   0  0  0  0  0  0  0  0  0  0  0  0
   -4.6355   -0.2462    0.0000 C   0  0  0  0  0  0  0  0  0  0  0  0
   -3.8685    1.0428    0.0000 O   0  0  0  0  0  0  0  0  0  0  0  0
   -6.1353   -0.2265    0.0000 O   0  0  0  0  0  0  0  0  0  0  0  0
   -6.8682    1.0822    0.0000 C   0  0  0  0  0  0  0  0  0  0  0  0
   -8.1770    0.3494    0.0000 C   0  0  0  0  0  0  0  0  0  0  0  0
   -5.5594    1.8151    0.0000 C   0  0  0  0  0  0  0  0  0  0  0  0
   -7.6011    2.3910    0.0000 C   0  0  0  0  0  0  0  0  0  0  0  0
   -9.1009    2.4107    0.0000 O   0  0  0  0  0  0  0  0  0  0  0  0
   -6.8341    3.6801    0.0000 O   0  0  0  0  0  0  0  0  0  0  0  0
   -0.1700   -2.9032    0.0000 C   0  0  0  0  0  0  0  0  0  0  0  0
    0.6957   -4.1282    0.0000 C   0  0  0  0  0  0  0  0  0  0  0  0
    2.1282   -3.6835    0.0000 C   0  0  0  0  0  0  0  0  0  0  0  0
    2.1479   -2.1836    0.0000 C   0  0  0  0  0  0  0  0  0  0  0  0
    3.2757   -1.1946    0.0000 C   0  0  0  0  0  0  0  0  0  0  0  0
    4.6961   -1.6768    0.0000 C   0  0  0  0  0  0  0  0  0  0  0  0
    4.9887   -3.1480    0.0000 O   0  0  0  0  0  0  0  0  0  0  0  0
    5.8239   -0.6879    0.0000 C   0  0  0  0  0  0  0  0  0  0  0  0
    5.5314    0.7833    0.0000 C   0  0  0  0  0  0  0  0  0  0  0  0
    6.6592    1.7723    0.0000 C   0  0  0  0  0  0  0  0  0  0  0  0
    6.3666    3.2435    0.0000 C   0  0  0  0  0  0  0  0  0  0  0  0
    7.4944    4.2324    0.0000 O   0  0  0  0  0  0  0  0  0  0  0  0
    4.9462    3.7257    0.0000 C   0  0  0  0  0  0  0  0  0  0  0  0
    3.8184    2.7367    0.0000 C   0  0  0  0  0  0  0  0  0  0  0  0
    4.1110    1.2655    0.0000 C   0  0  0  0  0  0  0  0  0  0  0  0
    2.6906    1.7478    0.0000 C   0  0  0  0  0  0  0  0  0  0  0  0
    2.9832    0.2766    0.0000 C   0  0  0  0  0  0  0  0  0  0  0  0
    1.5628    0.7588    0.0000 C   0  0  0  0  0  0  0  0  0  0  0  0
    0.4350   -0.2302    0.0000 C   0  0  0  0  0  0  0  0  0  0  0  0
   -0.9854    0.2521    0.0000 O   0  0  0  0  0  0  0  0  0  0  0  0
    0.7276   -1.7014    0.0000 C   0  0  0  0  0  0  0  0  0  0  0  0
   -0.7354   -1.3702    0.0000 C   0  0  0  0  0  0  0  0  0  0  0  0
  2  1  1  6
  2  3  1  0
  3  4  1  0
  4  5  1  0
  5  6  2  0
  5  7  1  0
  7  8  1  0
  8  9  1  0
  8 10  1  0
  8 11  1  0
 11 12  2  0
 11 13  1  0
  2 14  1  0
 14 15  1  6
 15 16  1  0
 17 16  1  6
 17 18  1  0
 18 19  1  1
 19 20  1  1
 19 21  1  0
 22 21  1  1
 22 23  1  0
 23 24  1  0
 24 25  1  1
 24 26  1  0
 26 27  1  0
 27 28  1  0
 28 29  1  6
 28 30  1  0
 30 31  1  6
 31 32  1  0
 32 33  1  1
 32 34  1  0
 34 35  1  6
 34 14  1  0
 34 17  1  0
 30 18  1  0
 28 22  1  0
M  END
>  <MS_ID>  (1016) 
MS1058

>  <SMILES>  (1016) 
C[C@H](CCC(=O)OC(C)(C)C(=O)O)[C@H]1CC[C@H]2[C@@H]3[C@H](O)C[C@@H]4C[C@H](O)CC[C@]4(C)[C@H]3C[C@H](O)[C@]12C

>  <Structure_dimension>  (1016) 
2D

$$$$
MS1059
     RDKit          2D

 35 38  0  0  0  0  0  0  0  0999 V2000
  -10.8538    2.7631    0.0000 C   0  0  0  0  0  0  0  0  0  0  0  0
  -10.0396    1.5033    0.0000 S   0  0  0  0  0  0  0  0  0  0  0  0
   -8.5415    1.5785    0.0000 C   0  0  0  0  0  0  0  0  0  0  0  0
   -7.7274    0.3187    0.0000 C   0  0  0  0  0  0  0  0  0  0  0  0
   -6.2293    0.3939    0.0000 C   0  0  0  0  0  0  0  0  0  0  0  0
   -5.4151   -0.8660    0.0000 N   0  0  0  0  0  0  0  0  0  0  0  0
   -3.9170   -0.7908    0.0000 C   0  0  0  0  0  0  0  0  0  0  0  0
   -3.2330    0.5442    0.0000 O   0  0  0  0  0  0  0  0  0  0  0  0
   -3.1028   -2.0506    0.0000 C   0  0  0  0  0  0  0  0  0  0  0  0
   -1.6047   -1.9754    0.0000 C   0  0  0  0  0  0  0  0  0  0  0  0
   -0.7905   -3.2352    0.0000 C   0  0  0  0  0  0  0  0  0  0  0  0
   -1.4745   -4.5702    0.0000 C   0  0  0  0  0  0  0  0  0  0  0  0
    0.7076   -3.1601    0.0000 C   0  0  0  0  0  0  0  0  0  0  0  0
    1.6490   -4.3279    0.0000 C   0  0  0  0  0  0  0  0  0  0  0  0
    3.0505   -3.7934    0.0000 C   0  0  0  0  0  0  0  0  0  0  0  0
    2.9753   -2.2953    0.0000 C   0  0  0  0  0  0  0  0  0  0  0  0
    4.0384   -1.2370    0.0000 C   0  0  0  0  0  0  0  0  0  0  0  0
    5.4864   -1.6285    0.0000 C   0  0  0  0  0  0  0  0  0  0  0  0
    6.5494   -0.5702    0.0000 C   0  0  0  0  0  0  0  0  0  0  0  0
    6.1644    0.8796    0.0000 C   0  0  0  0  0  0  0  0  0  0  0  0
    7.2274    1.9379    0.0000 C   0  0  0  0  0  0  0  0  0  0  0  0
    6.8424    3.3876    0.0000 C   0  0  0  0  0  0  0  0  0  0  0  0
    7.9054    4.4459    0.0000 O   0  0  0  0  0  0  0  0  0  0  0  0
    5.3944    3.7791    0.0000 C   0  0  0  0  0  0  0  0  0  0  0  0
    4.3314    2.7208    0.0000 C   0  0  0  0  0  0  0  0  0  0  0  0
    4.7164    1.2710    0.0000 C   0  0  0  0  0  0  0  0  0  0  0  0
    3.2683    1.6625    0.0000 C   0  0  0  0  0  0  0  0  0  0  0  0
    3.6534    0.2127    0.0000 C   0  0  0  0  0  0  0  0  0  0  0  0
    2.2053    0.6042    0.0000 C   0  0  0  0  0  0  0  0  0  0  0  0
    1.1423   -0.4541    0.0000 C   0  0  0  0  0  0  0  0  0  0  0  0
    1.5273   -1.9039    0.0000 C   0  0  0  0  0  0  0  0  0  0  0  0
    0.0463   -1.6659    0.0000 C   0  0  0  0  0  0  0  0  0  0  0  0
   -5.5453    1.7289    0.0000 C   0  0  0  0  0  0  0  0  0  0  0  0
   -4.0472    1.8040    0.0000 O   0  0  0  0  0  0  0  0  0  0  0  0
   -6.3595    2.9887    0.0000 O   0  0  0  0  0  0  0  0  0  0  0  0
  1  2  1  0
  2  3  1  0
  3  4  1  0
  5  4  1  1
  5  6  1  0
  6  7  1  0
  7  8  2  0
  7  9  1  0
  9 10  1  0
 10 11  1  0
 11 12  1  6
 11 13  1  0
 13 14  1  6
 14 15  1  0
 16 15  1  6
 16 17  1  0
 17 18  1  1
 18 19  1  0
 20 19  1  1
 20 21  1  0
 21 22  1  0
 22 23  1  1
 22 24  1  0
 24 25  1  0
 25 26  1  0
 26 27  1  6
 26 28  1  0
 28 29  1  6
 29 30  1  0
 30 31  1  0
 31 32  1  6
  5 33  1  0
 33 34  2  0
 33 35  1  0
 31 13  1  0
 31 16  1  0
 28 17  1  0
 26 20  1  0
M  END
>  <MS_ID>  (1017) 
MS1059

>  <SMILES>  (1017) 
CSCC[C@H](NC(=O)CC[C@@H](C)[C@H]1CC[C@H]2[C@@H]3CC[C@@H]4C[C@H](O)CC[C@]4(C)[C@H]3CC[C@]12C)C(=O)O

>  <Structure_dimension>  (1017) 
2D

$$$$
MS1060
     RDKit          2D

 38 42  0  0  0  0  0  0  0  0999 V2000
   -0.8352   -4.4369    0.0000 C   0  0  0  0  0  0  0  0  0  0  0  0
   -0.1976   -3.0791    0.0000 C   0  0  0  0  0  0  0  0  0  0  0  0
   -1.0546   -1.8481    0.0000 C   0  0  0  0  0  0  0  0  0  0  0  0
   -2.5492   -1.9747    0.0000 C   0  0  0  0  0  0  0  0  0  0  0  0
   -3.4062   -0.7437    0.0000 C   0  0  0  0  0  0  0  0  0  0  0  0
   -2.7686    0.6141    0.0000 O   0  0  0  0  0  0  0  0  0  0  0  0
   -4.9009   -0.8703    0.0000 O   0  0  0  0  0  0  0  0  0  0  0  0
   -5.7579    0.3607    0.0000 C   0  0  0  0  0  0  0  0  0  0  0  0
   -7.2525    0.2341    0.0000 C   0  0  0  0  0  0  0  0  0  0  0  0
   -8.1096    1.4651    0.0000 C   0  0  0  0  0  0  0  0  0  0  0  0
   -9.6042    1.3385    0.0000 C   0  0  0  0  0  0  0  0  0  0  0  0
  -10.4612    2.5696    0.0000 C   0  0  0  0  0  0  0  0  0  0  0  0
  -11.9559    2.4429    0.0000 C   0  0  0  0  0  0  0  0  0  0  0  0
  -12.5935    1.0852    0.0000 C   0  0  0  0  0  0  0  0  0  0  0  0
  -11.7365   -0.1459    0.0000 C   0  0  0  0  0  0  0  0  0  0  0  0
  -10.2418   -0.0192    0.0000 C   0  0  0  0  0  0  0  0  0  0  0  0
    1.2971   -2.9525    0.0000 C   0  0  0  0  0  0  0  0  0  0  0  0
    2.2781   -4.0872    0.0000 C   0  0  0  0  0  0  0  0  0  0  0  0
    3.6604   -3.5049    0.0000 C   0  0  0  0  0  0  0  0  0  0  0  0
    3.5337   -2.0103    0.0000 C   0  0  0  0  0  0  0  0  0  0  0  0
    4.5597   -0.9160    0.0000 C   0  0  0  0  0  0  0  0  0  0  0  0
    6.0204   -1.2574    0.0000 C   0  0  0  0  0  0  0  0  0  0  0  0
    6.4550   -2.6931    0.0000 O   0  0  0  0  0  0  0  0  0  0  0  0
    7.0463   -0.1632    0.0000 C   0  0  0  0  0  0  0  0  0  0  0  0
    8.5070   -0.5046    0.0000 O   0  0  0  0  0  0  0  0  0  0  0  0
    6.6117    1.2725    0.0000 C   0  0  0  0  0  0  0  0  0  0  0  0
    7.6377    2.3667    0.0000 C   0  0  0  0  0  0  0  0  0  0  0  0
    7.2030    3.8023    0.0000 C   0  0  0  0  0  0  0  0  0  0  0  0
    8.2290    4.8966    0.0000 O   0  0  0  0  0  0  0  0  0  0  0  0
    5.7424    4.1437    0.0000 C   0  0  0  0  0  0  0  0  0  0  0  0
    4.7164    3.0495    0.0000 C   0  0  0  0  0  0  0  0  0  0  0  0
    5.1511    1.6139    0.0000 C   0  0  0  0  0  0  0  0  0  0  0  0
    3.6904    1.9553    0.0000 C   0  0  0  0  0  0  0  0  0  0  0  0
    4.1251    0.5196    0.0000 C   0  0  0  0  0  0  0  0  0  0  0  0
    2.6645    0.8610    0.0000 C   0  0  0  0  0  0  0  0  0  0  0  0
    1.6385   -0.2332    0.0000 C   0  0  0  0  0  0  0  0  0  0  0  0
    2.0731   -1.6689    0.0000 C   0  0  0  0  0  0  0  0  0  0  0  0
    0.5848   -1.4820    0.0000 C   0  0  0  0  0  0  0  0  0  0  0  0
  2  1  1  6
  2  3  1  0
  3  4  1  0
  4  5  1  0
  5  6  2  0
  5  7  1  0
  7  8  1  0
  8  9  1  0
  9 10  1  0
 10 11  1  0
 11 12  2  0
 12 13  1  0
 13 14  2  0
 14 15  1  0
 15 16  2  0
  2 17  1  0
 17 18  1  6
 18 19  1  0
 20 19  1  6
 20 21  1  0
 21 22  1  1
 22 23  1  1
 22 24  1  0
 24 25  1  1
 24 26  1  0
 26 27  1  1
 27 28  1  0
 28 29  1  1
 28 30  1  0
 30 31  1  0
 31 32  1  0
 32 33  1  6
 32 34  1  0
 34 35  1  6
 35 36  1  0
 36 37  1  0
 37 38  1  6
 16 11  1  0
 37 17  1  0
 37 20  1  0
 34 21  1  0
 32 26  1  0
M  END
>  <MS_ID>  (1018) 
MS1060

>  <SMILES>  (1018) 
C[C@H](CCC(=O)OCCCc1ccccc1)[C@H]1CC[C@H]2[C@@H]3[C@H](O)[C@H](O)[C@@H]4C[C@H](O)CC[C@]4(C)[C@H]3CC[C@]12C

>  <Structure_dimension>  (1018) 
2D

$$$$
MS1061
     RDKit          2D

 30 33  0  0  0  0  0  0  0  0999 V2000
   -4.0199   -3.1584    0.0000 C   0  0  0  0  0  0  0  0  0  0  0  0
   -2.9902   -2.0677    0.0000 C   0  0  0  0  0  0  0  0  0  0  0  0
   -3.4199   -0.6306    0.0000 C   0  0  0  0  0  0  0  0  0  0  0  0
   -4.8793   -0.2841    0.0000 C   0  0  0  0  0  0  0  0  0  0  0  0
   -5.3090    1.1530    0.0000 C   0  0  0  0  0  0  0  0  0  0  0  0
   -4.2792    2.2437    0.0000 O   0  0  0  0  0  0  0  0  0  0  0  0
   -6.7684    1.4995    0.0000 O   0  0  0  0  0  0  0  0  0  0  0  0
   -7.1981    2.9366    0.0000 C   0  0  0  0  0  0  0  0  0  0  0  0
   -8.6575    3.2831    0.0000 O   0  0  0  0  0  0  0  0  0  0  0  0
   -1.5307   -2.4142    0.0000 C   0  0  0  0  0  0  0  0  0  0  0  0
   -0.9532   -3.7985    0.0000 C   0  0  0  0  0  0  0  0  0  0  0  0
    0.5419   -3.6770    0.0000 C   0  0  0  0  0  0  0  0  0  0  0  0
    0.8883   -2.2176    0.0000 C   0  0  0  0  0  0  0  0  0  0  0  0
    2.2047   -1.4985    0.0000 C   0  0  0  0  0  0  0  0  0  0  0  0
    3.4857   -2.2790    0.0000 C   0  0  0  0  0  0  0  0  0  0  0  0
    4.8021   -1.5599    0.0000 C   0  0  0  0  0  0  0  0  0  0  0  0
    4.8375   -0.0603    0.0000 C   0  0  0  0  0  0  0  0  0  0  0  0
    6.1539    0.6588    0.0000 C   0  0  0  0  0  0  0  0  0  0  0  0
    6.1894    2.1583    0.0000 C   0  0  0  0  0  0  0  0  0  0  0  0
    7.5058    2.8774    0.0000 O   0  0  0  0  0  0  0  0  0  0  0  0
    4.9084    2.9388    0.0000 C   0  0  0  0  0  0  0  0  0  0  0  0
    3.5920    2.2197    0.0000 C   0  0  0  0  0  0  0  0  0  0  0  0
    3.5566    0.7202    0.0000 C   0  0  0  0  0  0  0  0  0  0  0  0
    2.2756    1.5007    0.0000 C   0  0  0  0  0  0  0  0  0  0  0  0
    2.2402    0.0011    0.0000 C   0  0  0  0  0  0  0  0  0  0  0  0
    0.9592    0.7816    0.0000 C   0  0  0  0  0  0  0  0  0  0  0  0
   -0.3572    0.0625    0.0000 C   0  0  0  0  0  0  0  0  0  0  0  0
   -1.6381    0.8430    0.0000 O   0  0  0  0  0  0  0  0  0  0  0  0
   -0.3926   -1.4371    0.0000 C   0  0  0  0  0  0  0  0  0  0  0  0
   -1.7481   -0.7948    0.0000 C   0  0  0  0  0  0  0  0  0  0  0  0
  2  1  1  6
  2  3  1  0
  3  4  1  0
  4  5  1  0
  5  6  2  0
  5  7  1  0
  7  8  1  0
  8  9  1  0
  2 10  1  0
 10 11  1  6
 11 12  1  0
 13 12  1  6
 13 14  1  0
 14 15  1  1
 15 16  1  0
 17 16  1  1
 17 18  1  0
 18 19  1  0
 19 20  1  1
 19 21  1  0
 21 22  1  0
 22 23  1  0
 23 24  1  6
 23 25  1  0
 25 26  1  6
 26 27  1  0
 27 28  1  6
 27 29  1  0
 29 30  1  6
 29 10  1  0
 29 13  1  0
 25 14  1  0
 23 17  1  0
M  END
>  <MS_ID>  (1019) 
MS1061

>  <SMILES>  (1019) 
C[C@H](CCC(=O)OCO)[C@H]1CC[C@H]2[C@@H]3CC[C@@H]4C[C@H](O)CC[C@]4(C)[C@H]3C[C@@H](O)[C@]12C

>  <Structure_dimension>  (1019) 
2D

$$$$
MS1062
     RDKit          2D

 31 34  0  0  0  0  0  0  0  0999 V2000
   -3.0989   -3.6972    0.0000 C   0  0  0  0  0  0  0  0  0  0  0  0
   -2.1883   -2.5051    0.0000 C   0  0  0  0  0  0  0  0  0  0  0  0
   -2.7654   -1.1206    0.0000 C   0  0  0  0  0  0  0  0  0  0  0  0
   -4.2530   -0.9280    0.0000 C   0  0  0  0  0  0  0  0  0  0  0  0
   -4.8300    0.4565    0.0000 C   0  0  0  0  0  0  0  0  0  0  0  0
   -3.9195    1.6486    0.0000 O   0  0  0  0  0  0  0  0  0  0  0  0
   -6.3176    0.6491    0.0000 N   0  0  0  0  0  0  0  0  0  0  0  0
   -6.8947    2.0336    0.0000 C   0  0  0  0  0  0  0  0  0  0  0  0
   -8.3823    2.2261    0.0000 C   0  0  0  0  0  0  0  0  0  0  0  0
   -9.2928    1.0341    0.0000 O   0  0  0  0  0  0  0  0  0  0  0  0
   -8.9593    3.6107    0.0000 O   0  0  0  0  0  0  0  0  0  0  0  0
   -0.7007   -2.6977    0.0000 C   0  0  0  0  0  0  0  0  0  0  0  0
    0.0179   -4.0143    0.0000 C   0  0  0  0  0  0  0  0  0  0  0  0
    1.4922   -3.7377    0.0000 C   0  0  0  0  0  0  0  0  0  0  0  0
    1.6847   -2.2501    0.0000 C   0  0  0  0  0  0  0  0  0  0  0  0
    2.9190   -1.3978    0.0000 C   0  0  0  0  0  0  0  0  0  0  0  0
    4.2743   -2.0406    0.0000 C   0  0  0  0  0  0  0  0  0  0  0  0
    5.5086   -1.1883    0.0000 C   0  0  0  0  0  0  0  0  0  0  0  0
    5.3877    0.3068    0.0000 C   0  0  0  0  0  0  0  0  0  0  0  0
    6.6220    1.1591    0.0000 C   0  0  0  0  0  0  0  0  0  0  0  0
    6.5010    2.6542    0.0000 C   0  0  0  0  0  0  0  0  0  0  0  0
    7.7354    3.5066    0.0000 O   0  0  0  0  0  0  0  0  0  0  0  0
    5.1457    3.2970    0.0000 C   0  0  0  0  0  0  0  0  0  0  0  0
    3.9114    2.4447    0.0000 C   0  0  0  0  0  0  0  0  0  0  0  0
    4.0324    0.9496    0.0000 C   0  0  0  0  0  0  0  0  0  0  0  0
    2.6771    1.5924    0.0000 C   0  0  0  0  0  0  0  0  0  0  0  0
    2.7981    0.0973    0.0000 C   0  0  0  0  0  0  0  0  0  0  0  0
    1.4428    0.7401    0.0000 C   0  0  0  0  0  0  0  0  0  0  0  0
    0.2084   -0.1122    0.0000 C   0  0  0  0  0  0  0  0  0  0  0  0
    0.3294   -1.6073    0.0000 C   0  0  0  0  0  0  0  0  0  0  0  0
   -1.0856   -1.1097    0.0000 C   0  0  0  0  0  0  0  0  0  0  0  0
  2  1  1  6
  2  3  1  0
  3  4  1  0
  4  5  1  0
  5  6  2  0
  5  7  1  0
  7  8  1  0
  8  9  1  0
  9 10  2  0
  9 11  1  0
  2 12  1  0
 12 13  1  6
 13 14  1  0
 15 14  1  6
 15 16  1  0
 16 17  1  1
 17 18  1  0
 19 18  1  1
 19 20  1  0
 20 21  1  0
 21 22  1  6
 21 23  1  0
 23 24  1  0
 24 25  1  0
 25 26  1  6
 25 27  1  0
 27 28  1  6
 28 29  1  0
 29 30  1  0
 30 31  1  6
 30 12  1  0
 30 15  1  0
 27 16  1  0
 25 19  1  0
M  END
>  <MS_ID>  (1020) 
MS1062

>  <SMILES>  (1020) 
C[C@H](CCC(=O)NCC(=O)O)[C@H]1CC[C@H]2[C@@H]3CC[C@@H]4C[C@@H](O)CC[C@]4(C)[C@H]3CC[C@]12C

>  <Structure_dimension>  (1020) 
2D

$$$$
MS1063
     RDKit          2D

 35 38  0  0  0  0  0  0  0  0999 V2000
   -1.4169   -4.4023    0.0000 C   0  0  0  0  0  0  0  0  0  0  0  0
   -0.7063   -3.0813    0.0000 C   0  0  0  0  0  0  0  0  0  0  0  0
   -1.4950   -1.8054    0.0000 C   0  0  0  0  0  0  0  0  0  0  0  0
   -2.9944   -1.8505    0.0000 C   0  0  0  0  0  0  0  0  0  0  0  0
   -3.7831   -0.5746    0.0000 C   0  0  0  0  0  0  0  0  0  0  0  0
   -3.0725    0.7464    0.0000 O   0  0  0  0  0  0  0  0  0  0  0  0
   -5.2824   -0.6197    0.0000 C   0  0  0  0  0  0  0  0  0  0  0  0
   -6.0711    0.6562    0.0000 C   0  0  0  0  0  0  0  0  0  0  0  0
   -7.5704    0.6111    0.0000 C   0  0  0  0  0  0  0  0  0  0  0  0
   -8.3591    1.8870    0.0000 C   0  0  0  0  0  0  0  0  0  0  0  0
   -9.8585    1.8419    0.0000 S   0  0  0  0  0  0  0  0  0  0  0  0
   -9.9036    3.3412    0.0000 O   0  0  0  0  0  0  0  0  0  0  0  0
   -9.8134    0.3426    0.0000 O   0  0  0  0  0  0  0  0  0  0  0  0
  -11.3578    1.7968    0.0000 O   0  0  0  0  0  0  0  0  0  0  0  0
    0.7930   -3.0362    0.0000 C   0  0  0  0  0  0  0  0  0  0  0  0
    1.7108   -4.2227    0.0000 C   0  0  0  0  0  0  0  0  0  0  0  0
    3.1228   -3.7165    0.0000 C   0  0  0  0  0  0  0  0  0  0  0  0
    3.0777   -2.2172    0.0000 C   0  0  0  0  0  0  0  0  0  0  0  0
    4.1617   -1.1804    0.0000 C   0  0  0  0  0  0  0  0  0  0  0  0
    5.6016   -1.6009    0.0000 C   0  0  0  0  0  0  0  0  0  0  0  0
    6.6856   -0.5641    0.0000 C   0  0  0  0  0  0  0  0  0  0  0  0
    6.3298    0.8931    0.0000 C   0  0  0  0  0  0  0  0  0  0  0  0
    7.4138    1.9298    0.0000 C   0  0  0  0  0  0  0  0  0  0  0  0
    7.0580    3.3870    0.0000 C   0  0  0  0  0  0  0  0  0  0  0  0
    8.1420    4.4238    0.0000 O   0  0  0  0  0  0  0  0  0  0  0  0
    5.6181    3.8074    0.0000 C   0  0  0  0  0  0  0  0  0  0  0  0
    4.5341    2.7707    0.0000 C   0  0  0  0  0  0  0  0  0  0  0  0
    4.8899    1.3135    0.0000 C   0  0  0  0  0  0  0  0  0  0  0  0
    3.4500    1.7339    0.0000 C   0  0  0  0  0  0  0  0  0  0  0  0
    3.8059    0.2768    0.0000 C   0  0  0  0  0  0  0  0  0  0  0  0
    2.3660    0.6972    0.0000 C   0  0  0  0  0  0  0  0  0  0  0  0
    1.2820   -0.3396    0.0000 C   0  0  0  0  0  0  0  0  0  0  0  0
   -0.1579    0.0809    0.0000 O   0  0  0  0  0  0  0  0  0  0  0  0
    1.6378   -1.7968    0.0000 C   0  0  0  0  0  0  0  0  0  0  0  0
    0.1619   -1.5291    0.0000 C   0  0  0  0  0  0  0  0  0  0  0  0
  2  1  1  6
  2  3  1  0
  3  4  1  0
  4  5  1  0
  5  6  2  0
  5  7  1  0
  7  8  1  0
  8  9  1  0
  9 10  1  0
 10 11  1  0
 11 12  2  0
 11 13  2  0
 11 14  1  0
  2 15  1  0
 15 16  1  6
 16 17  1  0
 18 17  1  6
 18 19  1  0
 19 20  1  1
 20 21  1  0
 22 21  1  1
 22 23  1  0
 23 24  1  0
 24 25  1  1
 24 26  1  0
 26 27  1  0
 27 28  1  0
 28 29  1  6
 28 30  1  0
 30 31  1  6
 31 32  1  0
 32 33  1  1
 32 34  1  0
 34 35  1  6
 34 15  1  0
 34 18  1  0
 30 19  1  0
 28 22  1  0
M  END
>  <MS_ID>  (1021) 
MS1063

>  <SMILES>  (1021) 
C[C@H](CCC(=O)CCCCS(=O)(=O)O)[C@H]1CC[C@H]2[C@@H]3CC[C@@H]4C[C@H](O)CC[C@]4(C)[C@H]3C[C@H](O)[C@]12C

>  <Structure_dimension>  (1021) 
2D

$$$$
MS1064
     RDKit          2D

 33 37  0  0  0  0  0  0  0  0999 V2000
   -3.1427   -3.3426    0.0000 C   0  0  0  0  0  0  0  0  0  0  0  0
   -2.1899   -2.1841    0.0000 C   0  0  0  0  0  0  0  0  0  0  0  0
   -2.7167   -0.7797    0.0000 C   0  0  0  0  0  0  0  0  0  0  0  0
   -4.1964   -0.5338    0.0000 C   0  0  0  0  0  0  0  0  0  0  0  0
   -4.7233    0.8707    0.0000 C   0  0  0  0  0  0  0  0  0  0  0  0
   -3.7705    2.0292    0.0000 O   0  0  0  0  0  0  0  0  0  0  0  0
   -6.2030    1.1166    0.0000 C   0  0  0  0  0  0  0  0  0  0  0  0
   -6.7299    2.5210    0.0000 C   0  0  0  0  0  0  0  0  0  0  0  0
   -8.2096    2.7669    0.0000 C   0  0  0  0  0  0  0  0  0  0  0  0
   -9.1624    1.6084    0.0000 C   0  0  0  0  0  0  0  0  0  0  0  0
   -8.6355    0.2040    0.0000 C   0  0  0  0  0  0  0  0  0  0  0  0
   -7.1558   -0.0419    0.0000 N   0  0  0  0  0  0  0  0  0  0  0  0
   -0.7102   -2.4300    0.0000 C   0  0  0  0  0  0  0  0  0  0  0  0
   -0.0394   -3.7717    0.0000 C   0  0  0  0  0  0  0  0  0  0  0  0
    1.4439   -3.5483    0.0000 C   0  0  0  0  0  0  0  0  0  0  0  0
    1.6898   -2.0686    0.0000 C   0  0  0  0  0  0  0  0  0  0  0  0
    2.9540   -1.2613    0.0000 C   0  0  0  0  0  0  0  0  0  0  0  0
    4.2853   -1.9524    0.0000 C   0  0  0  0  0  0  0  0  0  0  0  0
    4.3524   -3.4509    0.0000 O   0  0  0  0  0  0  0  0  0  0  0  0
    5.5495   -1.1451    0.0000 C   0  0  0  0  0  0  0  0  0  0  0  0
    5.4824    0.3534    0.0000 C   0  0  0  0  0  0  0  0  0  0  0  0
    6.7466    1.1608    0.0000 C   0  0  0  0  0  0  0  0  0  0  0  0
    6.6795    2.6593    0.0000 C   0  0  0  0  0  0  0  0  0  0  0  0
    7.9437    3.4666    0.0000 O   0  0  0  0  0  0  0  0  0  0  0  0
    5.3482    3.3504    0.0000 C   0  0  0  0  0  0  0  0  0  0  0  0
    4.0840    2.5431    0.0000 C   0  0  0  0  0  0  0  0  0  0  0  0
    4.1511    1.0446    0.0000 C   0  0  0  0  0  0  0  0  0  0  0  0
    2.8198    1.7357    0.0000 C   0  0  0  0  0  0  0  0  0  0  0  0
    2.8869    0.2372    0.0000 C   0  0  0  0  0  0  0  0  0  0  0  0
    1.5556    0.9284    0.0000 C   0  0  0  0  0  0  0  0  0  0  0  0
    0.2915    0.1210    0.0000 C   0  0  0  0  0  0  0  0  0  0  0  0
    0.3586   -1.3775    0.0000 C   0  0  0  0  0  0  0  0  0  0  0  0
   -1.0377   -0.8293    0.0000 C   0  0  0  0  0  0  0  0  0  0  0  0
  2  1  1  6
  2  3  1  0
  3  4  1  0
  4  5  1  0
  5  6  2  0
  5  7  1  0
  7  8  2  0
  8  9  1  0
  9 10  2  0
 10 11  1  0
 11 12  2  0
  2 13  1  0
 13 14  1  6
 14 15  1  0
 16 15  1  6
 16 17  1  0
 17 18  1  1
 18 19  1  1
 18 20  1  0
 21 20  1  1
 21 22  1  0
 22 23  1  0
 23 24  1  1
 23 25  1  0
 25 26  1  0
 26 27  1  0
 27 28  1  6
 27 29  1  0
 29 30  1  6
 30 31  1  0
 31 32  1  0
 32 33  1  6
 12  7  1  0
 32 13  1  0
 32 16  1  0
 29 17  1  0
 27 21  1  0
M  END
>  <MS_ID>  (1022) 
MS1064

>  <SMILES>  (1022) 
C[C@H](CCC(=O)c1ccccn1)[C@H]1CC[C@H]2[C@@H]3[C@H](O)C[C@@H]4C[C@H](O)CC[C@]4(C)[C@H]3CC[C@]12C

>  <Structure_dimension>  (1022) 
2D

$$$$
MS1066
     RDKit          2D

 33 36  0  0  0  0  0  0  0  0999 V2000
   -6.3451   -1.7640    0.0000 C   0  0  0  0  0  0  0  0  0  0  0  0
   -5.1291   -0.8857    0.0000 C   0  0  0  0  0  0  0  0  0  0  0  0
   -5.2817    0.6065    0.0000 C   0  0  0  0  0  0  0  0  0  0  0  0
   -6.6503    1.2204    0.0000 C   0  0  0  0  0  0  0  0  0  0  0  0
   -6.8030    2.7126    0.0000 C   0  0  0  0  0  0  0  0  0  0  0  0
   -5.5870    3.5909    0.0000 O   0  0  0  0  0  0  0  0  0  0  0  0
   -8.1716    3.3266    0.0000 O   0  0  0  0  0  0  0  0  0  0  0  0
   -3.7605   -1.4996    0.0000 C   0  0  0  0  0  0  0  0  0  0  0  0
   -3.4527   -2.9677    0.0000 C   0  0  0  0  0  0  0  0  0  0  0  0
   -1.9613   -3.1287    0.0000 C   0  0  0  0  0  0  0  0  0  0  0  0
   -1.3474   -1.7600    0.0000 C   0  0  0  0  0  0  0  0  0  0  0  0
    0.0804   -1.3005    0.0000 C   0  0  0  0  0  0  0  0  0  0  0  0
    1.1924   -2.3073    0.0000 C   0  0  0  0  0  0  0  0  0  0  0  0
    0.8764   -3.7736    0.0000 C   0  0  0  0  0  0  0  0  0  0  0  0
    1.9883   -4.7804    0.0000 O   0  0  0  0  0  0  0  0  0  0  0  0
    2.6202   -1.8477    0.0000 C   0  0  0  0  0  0  0  0  0  0  0  0
    2.9362   -0.3814    0.0000 C   0  0  0  0  0  0  0  0  0  0  0  0
    4.3641    0.0782    0.0000 C   0  0  0  0  0  0  0  0  0  0  0  0
    4.6800    1.5445    0.0000 C   0  0  0  0  0  0  0  0  0  0  0  0
    6.1079    2.0040    0.0000 O   0  0  0  0  0  0  0  0  0  0  0  0
    7.2198    0.9972    0.0000 S   0  0  0  0  0  0  0  0  0  0  0  0
    6.2130   -0.1147    0.0000 O   0  0  0  0  0  0  0  0  0  0  0  0
    8.2266    2.1092    0.0000 O   0  0  0  0  0  0  0  0  0  0  0  0
    8.3317   -0.0095    0.0000 O   0  0  0  0  0  0  0  0  0  0  0  0
    3.5681    2.5513    0.0000 C   0  0  0  0  0  0  0  0  0  0  0  0
    2.1402    2.0917    0.0000 C   0  0  0  0  0  0  0  0  0  0  0  0
    1.8243    0.6254    0.0000 C   0  0  0  0  0  0  0  0  0  0  0  0
    0.7124    1.6322    0.0000 C   0  0  0  0  0  0  0  0  0  0  0  0
    0.3964    0.1658    0.0000 C   0  0  0  0  0  0  0  0  0  0  0  0
   -0.7155    1.1726    0.0000 C   0  0  0  0  0  0  0  0  0  0  0  0
   -2.1434    0.7131    0.0000 C   0  0  0  0  0  0  0  0  0  0  0  0
   -2.4593   -0.7532    0.0000 C   0  0  0  0  0  0  0  0  0  0  0  0
   -3.6704    0.1318    0.0000 C   0  0  0  0  0  0  0  0  0  0  0  0
  2  1  1  6
  2  3  1  0
  3  4  1  0
  4  5  1  0
  5  6  2  0
  5  7  1  0
  2  8  1  0
  8  9  1  6
  9 10  1  0
 11 10  1  6
 11 12  1  0
 12 13  1  1
 13 14  1  6
 14 15  1  0
 13 16  1  0
 17 16  1  1
 17 18  1  0
 18 19  1  0
 19 20  1  1
 20 21  1  0
 21 22  2  0
 21 23  2  0
 21 24  1  0
 19 25  1  0
 25 26  1  0
 26 27  1  0
 27 28  1  6
 27 29  1  0
 29 30  1  6
 30 31  1  0
 31 32  1  0
 32 33  1  6
 32  8  1  0
 32 11  1  0
 29 12  1  0
 27 17  1  0
M  END
>  <MS_ID>  (1023) 
MS1066

>  <SMILES>  (1023) 
C[C@H](CCC(=O)O)[C@H]1CC[C@H]2[C@@H]3[C@@H](CO)C[C@@H]4C[C@H](OS(=O)(=O)O)CC[C@]4(C)[C@H]3CC[C@]12C

>  <Structure_dimension>  (1023) 
2D

$$$$
MS1067
     RDKit          2D

 41 45  0  0  0  0  0  0  0  0999 V2000
   -8.0324   -2.0326    0.0000 C   0  0  0  0  0  0  0  0  0  0  0  0
   -6.8746   -1.0789    0.0000 C   0  0  0  0  0  0  0  0  0  0  0  0
   -7.1216    0.4006    0.0000 C   0  0  0  0  0  0  0  0  0  0  0  0
   -8.5264    0.9264    0.0000 C   0  0  0  0  0  0  0  0  0  0  0  0
   -8.7735    2.4060    0.0000 C   0  0  0  0  0  0  0  0  0  0  0  0
   -7.6157    3.3597    0.0000 O   0  0  0  0  0  0  0  0  0  0  0  0
  -10.1783    2.9318    0.0000 O   0  0  0  0  0  0  0  0  0  0  0  0
   -5.4698   -1.6047    0.0000 C   0  0  0  0  0  0  0  0  0  0  0  0
   -5.0694   -3.0503    0.0000 C   0  0  0  0  0  0  0  0  0  0  0  0
   -3.5709   -3.1163    0.0000 C   0  0  0  0  0  0  0  0  0  0  0  0
   -3.0451   -1.7115    0.0000 C   0  0  0  0  0  0  0  0  0  0  0  0
   -1.6492   -1.1622    0.0000 C   0  0  0  0  0  0  0  0  0  0  0  0
   -0.4757   -2.0964    0.0000 C   0  0  0  0  0  0  0  0  0  0  0  0
   -0.6979   -3.5799    0.0000 O   0  0  0  0  0  0  0  0  0  0  0  0
    0.9202   -1.5472    0.0000 C   0  0  0  0  0  0  0  0  0  0  0  0
    1.1424   -0.0637    0.0000 C   0  0  0  0  0  0  0  0  0  0  0  0
    2.5382    0.4855    0.0000 C   0  0  0  0  0  0  0  0  0  0  0  0
    2.7605    1.9689    0.0000 C   0  0  0  0  0  0  0  0  0  0  0  0
    4.1563    2.5182    0.0000 O   0  0  0  0  0  0  0  0  0  0  0  0
    5.3299    1.5840    0.0000 C   0  0  0  0  0  0  0  0  0  0  0  0
    5.1076    0.1005    0.0000 O   0  0  0  0  0  0  0  0  0  0  0  0
    6.2812   -0.8337    0.0000 C   0  0  0  0  0  0  0  0  0  0  0  0
    6.0589   -2.3171    0.0000 C   0  0  0  0  0  0  0  0  0  0  0  0
    4.6631   -2.8663    0.0000 C   0  0  0  0  0  0  0  0  0  0  0  0
    3.4895   -1.9321    0.0000 O   0  0  0  0  0  0  0  0  0  0  0  0
    4.4409   -4.3498    0.0000 O   0  0  0  0  0  0  0  0  0  0  0  0
    7.6770   -0.2844    0.0000 C   0  0  0  0  0  0  0  0  0  0  0  0
    8.8506   -1.2186    0.0000 O   0  0  0  0  0  0  0  0  0  0  0  0
    7.8993    1.1990    0.0000 C   0  0  0  0  0  0  0  0  0  0  0  0
    9.2951    1.7483    0.0000 O   0  0  0  0  0  0  0  0  0  0  0  0
    6.7257    2.1332    0.0000 C   0  0  0  0  0  0  0  0  0  0  0  0
    6.9480    3.6167    0.0000 O   0  0  0  0  0  0  0  0  0  0  0  0
    1.5869    2.9031    0.0000 C   0  0  0  0  0  0  0  0  0  0  0  0
    0.1911    2.3539    0.0000 C   0  0  0  0  0  0  0  0  0  0  0  0
   -0.0312    0.8705    0.0000 C   0  0  0  0  0  0  0  0  0  0  0  0
   -1.2047    1.8047    0.0000 C   0  0  0  0  0  0  0  0  0  0  0  0
   -1.4270    0.3212    0.0000 C   0  0  0  0  0  0  0  0  0  0  0  0
   -2.6006    1.2554    0.0000 C   0  0  0  0  0  0  0  0  0  0  0  0
   -3.9964    0.7062    0.0000 C   0  0  0  0  0  0  0  0  0  0  0  0
   -4.2186   -0.7773    0.0000 C   0  0  0  0  0  0  0  0  0  0  0  0
   -5.4834    0.0291    0.0000 C   0  0  0  0  0  0  0  0  0  0  0  0
  2  1  1  6
  2  3  1  0
  3  4  1  0
  4  5  1  0
  5  6  2  0
  5  7  1  0
  2  8  1  0
  8  9  1  6
  9 10  1  0
 11 10  1  6
 11 12  1  0
 12 13  1  1
 13 14  1  6
 13 15  1  0
 16 15  1  1
 16 17  1  0
 17 18  1  0
 18 19  1  1
 20 19  1  1
 20 21  1  0
 21 22  1  0
 22 23  1  1
 23 24  1  0
 24 25  2  0
 24 26  1  0
 22 27  1  0
 27 28  1  6
 27 29  1  0
 29 30  1  1
 29 31  1  0
 31 32  1  6
 18 33  1  0
 33 34  1  0
 34 35  1  0
 35 36  1  6
 35 37  1  0
 37 38  1  6
 38 39  1  0
 39 40  1  0
 40 41  1  6
 40  8  1  0
 40 11  1  0
 37 12  1  0
 35 16  1  0
 31 20  1  0
M  END
>  <MS_ID>  (1024) 
MS1067

>  <SMILES>  (1024) 
C[C@H](CCC(=O)O)[C@H]1CC[C@H]2[C@@H]3[C@@H](O)C[C@@H]4C[C@H](O[C@@H]5O[C@H](CC(=O)O)[C@@H](O)[C@H](O)[C@H]5O)CC[C@]4(C)[C@H]3CC[C@]12C

>  <Structure_dimension>  (1024) 
2D

$$$$
MS1068
     RDKit          2D

 29 32  0  0  0  0  0  0  0  0999 V2000
   -4.6551   -2.6180    0.0000 C   0  0  0  0  0  0  0  0  0  0  0  0
   -3.5633   -1.5894    0.0000 C   0  0  0  0  0  0  0  0  0  0  0  0
   -3.9081   -0.1296    0.0000 C   0  0  0  0  0  0  0  0  0  0  0  0
   -5.3448    0.3016    0.0000 C   0  0  0  0  0  0  0  0  0  0  0  0
   -5.6897    1.7615    0.0000 C   0  0  0  0  0  0  0  0  0  0  0  0
   -4.5979    2.7900    0.0000 O   0  0  0  0  0  0  0  0  0  0  0  0
   -7.1264    2.1927    0.0000 C   0  0  0  0  0  0  0  0  0  0  0  0
   -7.4712    3.6525    0.0000 N   0  0  0  0  0  0  0  0  0  0  0  0
   -2.1266   -2.0207    0.0000 C   0  0  0  0  0  0  0  0  0  0  0  0
   -1.6310   -3.4364    0.0000 C   0  0  0  0  0  0  0  0  0  0  0  0
   -0.1314   -3.4026    0.0000 C   0  0  0  0  0  0  0  0  0  0  0  0
    0.2998   -1.9659    0.0000 C   0  0  0  0  0  0  0  0  0  0  0  0
    1.6561   -1.3251    0.0000 C   0  0  0  0  0  0  0  0  0  0  0  0
    2.8892   -2.1792    0.0000 C   0  0  0  0  0  0  0  0  0  0  0  0
    2.7660   -3.6741    0.0000 O   0  0  0  0  0  0  0  0  0  0  0  0
    4.2454   -1.5383    0.0000 C   0  0  0  0  0  0  0  0  0  0  0  0
    4.3685   -0.0434    0.0000 C   0  0  0  0  0  0  0  0  0  0  0  0
    5.7247    0.5975    0.0000 C   0  0  0  0  0  0  0  0  0  0  0  0
    5.8478    2.0924    0.0000 C   0  0  0  0  0  0  0  0  0  0  0  0
    7.2040    2.7332    0.0000 O   0  0  0  0  0  0  0  0  0  0  0  0
    4.6147    2.9465    0.0000 C   0  0  0  0  0  0  0  0  0  0  0  0
    3.2585    2.3056    0.0000 C   0  0  0  0  0  0  0  0  0  0  0  0
    3.1354    0.8107    0.0000 C   0  0  0  0  0  0  0  0  0  0  0  0
    1.9023    1.6648    0.0000 C   0  0  0  0  0  0  0  0  0  0  0  0
    1.7792    0.1699    0.0000 C   0  0  0  0  0  0  0  0  0  0  0  0
    0.5461    1.0239    0.0000 C   0  0  0  0  0  0  0  0  0  0  0  0
   -0.8101    0.3831    0.0000 C   0  0  0  0  0  0  0  0  0  0  0  0
   -0.9333   -1.1118    0.0000 C   0  0  0  0  0  0  0  0  0  0  0  0
   -2.2489   -0.3913    0.0000 C   0  0  0  0  0  0  0  0  0  0  0  0
  2  1  1  6
  2  3  1  0
  3  4  1  0
  4  5  1  0
  5  6  2  0
  5  7  1  0
  7  8  1  0
  2  9  1  0
  9 10  1  6
 10 11  1  0
 12 11  1  6
 12 13  1  0
 13 14  1  1
 14 15  1  6
 14 16  1  0
 17 16  1  1
 17 18  1  0
 18 19  1  0
 19 20  1  1
 19 21  1  0
 21 22  1  0
 22 23  1  0
 23 24  1  6
 23 25  1  0
 25 26  1  6
 26 27  1  0
 27 28  1  0
 28 29  1  6
 28  9  1  0
 28 12  1  0
 25 13  1  0
 23 17  1  0
M  END
>  <MS_ID>  (1025) 
MS1068

>  <SMILES>  (1025) 
C[C@H](CCC(=O)CN)[C@H]1CC[C@H]2[C@@H]3[C@@H](O)C[C@@H]4C[C@H](O)CC[C@]4(C)[C@H]3CC[C@]12C

>  <Structure_dimension>  (1025) 
2D

$$$$
MS1069
     RDKit          2D

 35 38  0  0  0  0  0  0  0  0999 V2000
   -2.6216   -4.1641    0.0000 C   0  0  0  0  0  0  0  0  0  0  0  0
   -1.8703   -2.8658    0.0000 C   0  0  0  0  0  0  0  0  0  0  0  0
   -2.6190   -1.5660    0.0000 C   0  0  0  0  0  0  0  0  0  0  0  0
   -4.1190   -1.5645    0.0000 C   0  0  0  0  0  0  0  0  0  0  0  0
   -4.8677   -0.2647    0.0000 C   0  0  0  0  0  0  0  0  0  0  0  0
   -4.1164    1.0336    0.0000 O   0  0  0  0  0  0  0  0  0  0  0  0
   -6.3677   -0.2632    0.0000 N   0  0  0  0  0  0  0  0  0  0  0  0
   -7.1164    1.0366    0.0000 S   0  0  0  0  0  0  0  0  0  0  0  0
   -8.4162    0.2879    0.0000 O   0  0  0  0  0  0  0  0  0  0  0  0
   -5.8166    1.7853    0.0000 O   0  0  0  0  0  0  0  0  0  0  0  0
   -7.8651    2.3364    0.0000 N   0  0  0  0  0  0  0  0  0  0  0  0
   -7.1138    3.6347    0.0000 C   0  0  0  0  0  0  0  0  0  0  0  0
   -9.3651    2.3379    0.0000 C   0  0  0  0  0  0  0  0  0  0  0  0
   -0.3703   -2.8673    0.0000 C   0  0  0  0  0  0  0  0  0  0  0  0
    0.5101   -4.0817    0.0000 C   0  0  0  0  0  0  0  0  0  0  0  0
    1.9372   -3.6196    0.0000 C   0  0  0  0  0  0  0  0  0  0  0  0
    1.9387   -2.1196    0.0000 C   0  0  0  0  0  0  0  0  0  0  0  0
    3.0544   -1.1170    0.0000 C   0  0  0  0  0  0  0  0  0  0  0  0
    4.4805   -1.5820    0.0000 C   0  0  0  0  0  0  0  0  0  0  0  0
    4.7909   -3.0495    0.0000 O   0  0  0  0  0  0  0  0  0  0  0  0
    5.5962   -0.5794    0.0000 C   0  0  0  0  0  0  0  0  0  0  0  0
    7.0224   -1.0443    0.0000 O   0  0  0  0  0  0  0  0  0  0  0  0
    5.2858    0.8882    0.0000 C   0  0  0  0  0  0  0  0  0  0  0  0
    6.4016    1.8907    0.0000 C   0  0  0  0  0  0  0  0  0  0  0  0
    6.0912    3.3583    0.0000 C   0  0  0  0  0  0  0  0  0  0  0  0
    7.2069    4.3608    0.0000 O   0  0  0  0  0  0  0  0  0  0  0  0
    4.6650    3.8232    0.0000 C   0  0  0  0  0  0  0  0  0  0  0  0
    3.5493    2.8206    0.0000 C   0  0  0  0  0  0  0  0  0  0  0  0
    3.8597    1.3531    0.0000 C   0  0  0  0  0  0  0  0  0  0  0  0
    2.4336    1.8181    0.0000 C   0  0  0  0  0  0  0  0  0  0  0  0
    2.7440    0.3505    0.0000 C   0  0  0  0  0  0  0  0  0  0  0  0
    1.3179    0.8155    0.0000 C   0  0  0  0  0  0  0  0  0  0  0  0
    0.2022   -0.1871    0.0000 C   0  0  0  0  0  0  0  0  0  0  0  0
    0.5126   -1.6546    0.0000 C   0  0  0  0  0  0  0  0  0  0  0  0
   -0.9544   -1.3413    0.0000 C   0  0  0  0  0  0  0  0  0  0  0  0
  2  1  1  6
  2  3  1  0
  3  4  1  0
  4  5  1  0
  5  6  2  0
  5  7  1  0
  7  8  1  0
  8  9  2  0
  8 10  2  0
  8 11  1  0
 11 12  1  0
 11 13  1  0
  2 14  1  0
 14 15  1  6
 15 16  1  0
 17 16  1  6
 17 18  1  0
 18 19  1  1
 19 20  1  1
 19 21  1  0
 21 22  1  1
 21 23  1  0
 23 24  1  1
 24 25  1  0
 25 26  1  1
 25 27  1  0
 27 28  1  0
 28 29  1  0
 29 30  1  6
 29 31  1  0
 31 32  1  6
 32 33  1  0
 33 34  1  0
 34 35  1  6
 34 14  1  0
 34 17  1  0
 31 18  1  0
 29 23  1  0
M  END
>  <MS_ID>  (1026) 
MS1069

>  <SMILES>  (1026) 
C[C@H](CCC(=O)NS(=O)(=O)N(C)C)[C@H]1CC[C@H]2[C@@H]3[C@H](O)[C@H](O)[C@@H]4C[C@H](O)CC[C@]4(C)[C@H]3CC[C@]12C

>  <Structure_dimension>  (1026) 
2D

$$$$
MS1070
     RDKit          2D

 31 34  0  0  0  0  0  0  0  0999 V2000
   -3.4301   -3.6172    0.0000 C   0  0  0  0  0  0  0  0  0  0  0  0
   -2.4973   -2.4425    0.0000 C   0  0  0  0  0  0  0  0  0  0  0  0
   -3.0483   -1.0473    0.0000 C   0  0  0  0  0  0  0  0  0  0  0  0
   -4.5321   -0.8270    0.0000 C   0  0  0  0  0  0  0  0  0  0  0  0
   -5.0831    0.5682    0.0000 C   0  0  0  0  0  0  0  0  0  0  0  0
   -4.1503    1.7429    0.0000 O   0  0  0  0  0  0  0  0  0  0  0  0
   -6.5668    0.7886    0.0000 O   0  0  0  0  0  0  0  0  0  0  0  0
   -7.1178    2.1837    0.0000 C   0  0  0  0  0  0  0  0  0  0  0  0
   -8.6015    2.4041    0.0000 C   0  0  0  0  0  0  0  0  0  0  0  0
   -9.1525    3.7992    0.0000 N   0  0  0  0  0  0  0  0  0  0  0  0
   -1.0136   -2.6629    0.0000 C   0  0  0  0  0  0  0  0  0  0  0  0
   -0.3198   -3.9928    0.0000 C   0  0  0  0  0  0  0  0  0  0  0  0
    1.1594   -3.7439    0.0000 C   0  0  0  0  0  0  0  0  0  0  0  0
    1.3798   -2.2602    0.0000 C   0  0  0  0  0  0  0  0  0  0  0  0
    2.6299   -1.4311    0.0000 C   0  0  0  0  0  0  0  0  0  0  0  0
    3.9729   -2.0992    0.0000 C   0  0  0  0  0  0  0  0  0  0  0  0
    5.2230   -1.2702    0.0000 C   0  0  0  0  0  0  0  0  0  0  0  0
    5.1301    0.2269    0.0000 C   0  0  0  0  0  0  0  0  0  0  0  0
    6.3802    1.0559    0.0000 C   0  0  0  0  0  0  0  0  0  0  0  0
    6.2872    2.5531    0.0000 C   0  0  0  0  0  0  0  0  0  0  0  0
    7.5373    3.3821    0.0000 O   0  0  0  0  0  0  0  0  0  0  0  0
    4.9442    3.2212    0.0000 C   0  0  0  0  0  0  0  0  0  0  0  0
    3.6942    2.3921    0.0000 C   0  0  0  0  0  0  0  0  0  0  0  0
    3.7871    0.8950    0.0000 C   0  0  0  0  0  0  0  0  0  0  0  0
    2.4441    1.5631    0.0000 C   0  0  0  0  0  0  0  0  0  0  0  0
    2.5370    0.0660    0.0000 C   0  0  0  0  0  0  0  0  0  0  0  0
    1.1940    0.7341    0.0000 C   0  0  0  0  0  0  0  0  0  0  0  0
   -0.0561   -0.0949    0.0000 C   0  0  0  0  0  0  0  0  0  0  0  0
   -1.3991    0.5732    0.0000 O   0  0  0  0  0  0  0  0  0  0  0  0
    0.0368   -1.5921    0.0000 C   0  0  0  0  0  0  0  0  0  0  0  0
   -1.3687   -1.0680    0.0000 C   0  0  0  0  0  0  0  0  0  0  0  0
  2  1  1  6
  2  3  1  0
  3  4  1  0
  4  5  1  0
  5  6  2  0
  5  7  1  0
  7  8  1  0
  8  9  1  0
  9 10  1  0
  2 11  1  0
 11 12  1  6
 12 13  1  0
 14 13  1  6
 14 15  1  0
 15 16  1  1
 16 17  1  0
 18 17  1  1
 18 19  1  0
 19 20  1  0
 20 21  2  0
 20 22  1  0
 22 23  1  0
 23 24  1  0
 24 25  1  6
 24 26  1  0
 26 27  1  6
 27 28  1  0
 28 29  1  1
 28 30  1  0
 30 31  1  6
 30 11  1  0
 30 14  1  0
 26 15  1  0
 24 18  1  0
M  END
>  <MS_ID>  (1027) 
MS1070

>  <SMILES>  (1027) 
C[C@H](CCC(=O)OCCN)[C@H]1CC[C@H]2[C@@H]3CC[C@@H]4CC(=O)CC[C@]4(C)[C@H]3C[C@H](O)[C@]12C

>  <Structure_dimension>  (1027) 
2D

$$$$
MS1071
     RDKit          2D

 32 35  0  0  0  0  0  0  0  0999 V2000
   -3.3600   -3.6470    0.0000 C   0  0  0  0  0  0  0  0  0  0  0  0
   -2.4640   -2.4440    0.0000 C   0  0  0  0  0  0  0  0  0  0  0  0
   -3.0579   -1.0666    0.0000 C   0  0  0  0  0  0  0  0  0  0  0  0
   -4.5477   -0.8922    0.0000 C   0  0  0  0  0  0  0  0  0  0  0  0
   -5.1416    0.4852    0.0000 C   0  0  0  0  0  0  0  0  0  0  0  0
   -4.2456    1.6883    0.0000 O   0  0  0  0  0  0  0  0  0  0  0  0
   -6.6314    0.6596    0.0000 C   0  0  0  0  0  0  0  0  0  0  0  0
   -7.2253    2.0371    0.0000 C   0  0  0  0  0  0  0  0  0  0  0  0
   -5.8479    2.6309    0.0000 C   0  0  0  0  0  0  0  0  0  0  0  0
   -8.6027    1.4432    0.0000 C   0  0  0  0  0  0  0  0  0  0  0  0
   -7.8192    3.4145    0.0000 O   0  0  0  0  0  0  0  0  0  0  0  0
   -0.9742   -2.6184    0.0000 C   0  0  0  0  0  0  0  0  0  0  0  0
   -0.2396   -3.9262    0.0000 C   0  0  0  0  0  0  0  0  0  0  0  0
    1.2312   -3.6317    0.0000 C   0  0  0  0  0  0  0  0  0  0  0  0
    1.4056   -2.1419    0.0000 C   0  0  0  0  0  0  0  0  0  0  0  0
    2.6295   -1.2746    0.0000 C   0  0  0  0  0  0  0  0  0  0  0  0
    3.9925   -1.9008    0.0000 C   0  0  0  0  0  0  0  0  0  0  0  0
    4.1317   -3.3944    0.0000 O   0  0  0  0  0  0  0  0  0  0  0  0
    5.2163   -1.0336    0.0000 C   0  0  0  0  0  0  0  0  0  0  0  0
    5.0772    0.4600    0.0000 C   0  0  0  0  0  0  0  0  0  0  0  0
    6.3010    1.3273    0.0000 C   0  0  0  0  0  0  0  0  0  0  0  0
    6.1619    2.8208    0.0000 C   0  0  0  0  0  0  0  0  0  0  0  0
    7.3857    3.6881    0.0000 O   0  0  0  0  0  0  0  0  0  0  0  0
    4.7989    3.4470    0.0000 C   0  0  0  0  0  0  0  0  0  0  0  0
    3.5750    2.5798    0.0000 C   0  0  0  0  0  0  0  0  0  0  0  0
    3.7142    1.0862    0.0000 C   0  0  0  0  0  0  0  0  0  0  0  0
    2.3511    1.7125    0.0000 C   0  0  0  0  0  0  0  0  0  0  0  0
    2.4903    0.2189    0.0000 C   0  0  0  0  0  0  0  0  0  0  0  0
    1.1273    0.8452    0.0000 C   0  0  0  0  0  0  0  0  0  0  0  0
   -0.0966   -0.0221    0.0000 C   0  0  0  0  0  0  0  0  0  0  0  0
    0.0426   -1.5156    0.0000 C   0  0  0  0  0  0  0  0  0  0  0  0
   -1.3784   -1.0353    0.0000 C   0  0  0  0  0  0  0  0  0  0  0  0
  2  1  1  6
  2  3  1  0
  3  4  1  0
  4  5  1  0
  5  6  2  0
  5  7  1  0
  7  8  1  0
  8  9  1  0
  8 10  1  0
  8 11  1  0
  2 12  1  0
 12 13  1  6
 13 14  1  0
 15 14  1  6
 15 16  1  0
 16 17  1  1
 17 18  1  1
 17 19  1  0
 20 19  1  1
 20 21  1  0
 21 22  1  0
 22 23  1  1
 22 24  1  0
 24 25  1  0
 25 26  1  0
 26 27  1  6
 26 28  1  0
 28 29  1  6
 29 30  1  0
 30 31  1  0
 31 32  1  6
 31 12  1  0
 31 15  1  0
 28 16  1  0
 26 20  1  0
M  END
>  <MS_ID>  (1028) 
MS1071

>  <SMILES>  (1028) 
C[C@H](CCC(=O)CC(C)(C)O)[C@H]1CC[C@H]2[C@@H]3[C@H](O)C[C@@H]4C[C@H](O)CC[C@]4(C)[C@H]3CC[C@]12C

>  <Structure_dimension>  (1028) 
2D

$$$$
MS1072
     RDKit          2D

 30 33  0  0  0  0  0  0  0  0999 V2000
   -3.4828   -3.5922    0.0000 C   0  0  0  0  0  0  0  0  0  0  0  0
   -2.5481   -2.4190    0.0000 C   0  0  0  0  0  0  0  0  0  0  0  0
   -3.0967   -1.0230    0.0000 C   0  0  0  0  0  0  0  0  0  0  0  0
   -4.5801   -0.8000    0.0000 C   0  0  0  0  0  0  0  0  0  0  0  0
   -5.1287    0.5960    0.0000 C   0  0  0  0  0  0  0  0  0  0  0  0
   -4.1940    1.7692    0.0000 O   0  0  0  0  0  0  0  0  0  0  0  0
   -6.6120    0.8190    0.0000 O   0  0  0  0  0  0  0  0  0  0  0  0
   -7.1606    2.2150    0.0000 C   0  0  0  0  0  0  0  0  0  0  0  0
   -8.6440    2.4379    0.0000 C   0  0  0  0  0  0  0  0  0  0  0  0
   -9.1926    3.8340    0.0000 O   0  0  0  0  0  0  0  0  0  0  0  0
   -1.0648   -2.6420    0.0000 C   0  0  0  0  0  0  0  0  0  0  0  0
   -0.3732   -3.9730    0.0000 C   0  0  0  0  0  0  0  0  0  0  0  0
    1.1064   -3.7267    0.0000 C   0  0  0  0  0  0  0  0  0  0  0  0
    1.3293   -2.2433    0.0000 C   0  0  0  0  0  0  0  0  0  0  0  0
    2.5808   -1.4164    0.0000 C   0  0  0  0  0  0  0  0  0  0  0  0
    3.9227   -2.0868    0.0000 C   0  0  0  0  0  0  0  0  0  0  0  0
    5.1742   -1.2599    0.0000 C   0  0  0  0  0  0  0  0  0  0  0  0
    5.0838    0.2373    0.0000 C   0  0  0  0  0  0  0  0  0  0  0  0
    6.3353    1.0642    0.0000 C   0  0  0  0  0  0  0  0  0  0  0  0
    6.2450    2.5615    0.0000 C   0  0  0  0  0  0  0  0  0  0  0  0
    7.4965    3.3884    0.0000 O   0  0  0  0  0  0  0  0  0  0  0  0
    4.9031    3.2319    0.0000 C   0  0  0  0  0  0  0  0  0  0  0  0
    3.6516    2.4050    0.0000 C   0  0  0  0  0  0  0  0  0  0  0  0
    3.7420    0.9077    0.0000 C   0  0  0  0  0  0  0  0  0  0  0  0
    2.4001    1.5781    0.0000 C   0  0  0  0  0  0  0  0  0  0  0  0
    2.4905    0.0808    0.0000 C   0  0  0  0  0  0  0  0  0  0  0  0
    1.1486    0.7512    0.0000 C   0  0  0  0  0  0  0  0  0  0  0  0
   -0.1029   -0.0757    0.0000 C   0  0  0  0  0  0  0  0  0  0  0  0
   -0.0125   -1.5729    0.0000 C   0  0  0  0  0  0  0  0  0  0  0  0
   -1.4171   -1.0465    0.0000 C   0  0  0  0  0  0  0  0  0  0  0  0
  2  1  1  6
  2  3  1  0
  3  4  1  0
  4  5  1  0
  5  6  2  0
  5  7  1  0
  7  8  1  0
  8  9  1  0
  9 10  1  0
  2 11  1  0
 11 12  1  6
 12 13  1  0
 14 13  1  6
 14 15  1  0
 15 16  1  1
 16 17  1  0
 18 17  1  1
 18 19  1  0
 19 20  1  0
 20 21  1  1
 20 22  1  0
 22 23  1  0
 23 24  1  0
 24 25  1  6
 24 26  1  0
 26 27  1  6
 27 28  1  0
 28 29  1  0
 29 30  1  6
 29 11  1  0
 29 14  1  0
 26 15  1  0
 24 18  1  0
M  END
>  <MS_ID>  (1029) 
MS1072

>  <SMILES>  (1029) 
C[C@H](CCC(=O)OCCO)[C@H]1CC[C@H]2[C@@H]3CC[C@@H]4C[C@H](O)CC[C@]4(C)[C@H]3CC[C@]12C

>  <Structure_dimension>  (1029) 
2D

$$$$
MS1073
     RDKit          2D

 34 38  0  0  0  0  0  0  0  0999 V2000
   -2.8489   -4.1271    0.0000 C   0  0  0  0  0  0  0  0  0  0  0  0
   -2.0902   -2.8331    0.0000 C   0  0  0  0  0  0  0  0  0  0  0  0
   -2.8315   -1.5291    0.0000 C   0  0  0  0  0  0  0  0  0  0  0  0
   -4.3315   -1.5191    0.0000 C   0  0  0  0  0  0  0  0  0  0  0  0
   -5.0728   -0.2151    0.0000 C   0  0  0  0  0  0  0  0  0  0  0  0
   -4.3141    1.0789    0.0000 O   0  0  0  0  0  0  0  0  0  0  0  0
   -6.5727   -0.2050    0.0000 C   0  0  0  0  0  0  0  0  0  0  0  0
   -7.3140    1.0990    0.0000 N   0  0  0  0  0  0  0  0  0  0  0  0
   -8.8047    1.2657    0.0000 C   0  0  0  0  0  0  0  0  0  0  0  0
   -9.1068    2.7350    0.0000 N   0  0  0  0  0  0  0  0  0  0  0  0
   -7.8028    3.4763    0.0000 N   0  0  0  0  0  0  0  0  0  0  0  0
   -6.6948    2.4652    0.0000 N   0  0  0  0  0  0  0  0  0  0  0  0
   -0.5902   -2.8432    0.0000 C   0  0  0  0  0  0  0  0  0  0  0  0
    0.2833   -4.0625    0.0000 C   0  0  0  0  0  0  0  0  0  0  0  0
    1.7130   -3.6086    0.0000 C   0  0  0  0  0  0  0  0  0  0  0  0
    1.7230   -2.1086    0.0000 C   0  0  0  0  0  0  0  0  0  0  0  0
    2.8444   -1.1124    0.0000 C   0  0  0  0  0  0  0  0  0  0  0  0
    4.2678   -1.5854    0.0000 C   0  0  0  0  0  0  0  0  0  0  0  0
    4.5699   -3.0547    0.0000 O   0  0  0  0  0  0  0  0  0  0  0  0
    5.3892   -0.5892    0.0000 C   0  0  0  0  0  0  0  0  0  0  0  0
    6.8127   -1.0622    0.0000 O   0  0  0  0  0  0  0  0  0  0  0  0
    5.0872    0.8801    0.0000 C   0  0  0  0  0  0  0  0  0  0  0  0
    6.2086    1.8763    0.0000 C   0  0  0  0  0  0  0  0  0  0  0  0
    5.9065    3.3456    0.0000 C   0  0  0  0  0  0  0  0  0  0  0  0
    7.0279    4.3418    0.0000 O   0  0  0  0  0  0  0  0  0  0  0  0
    4.4831    3.8186    0.0000 C   0  0  0  0  0  0  0  0  0  0  0  0
    3.3617    2.8224    0.0000 C   0  0  0  0  0  0  0  0  0  0  0  0
    3.6637    1.3531    0.0000 C   0  0  0  0  0  0  0  0  0  0  0  0
    2.2403    1.8262    0.0000 C   0  0  0  0  0  0  0  0  0  0  0  0
    2.5423    0.3569    0.0000 C   0  0  0  0  0  0  0  0  0  0  0  0
    1.1189    0.8299    0.0000 C   0  0  0  0  0  0  0  0  0  0  0  0
   -0.0025   -0.1663    0.0000 C   0  0  0  0  0  0  0  0  0  0  0  0
    0.2995   -1.6355    0.0000 C   0  0  0  0  0  0  0  0  0  0  0  0
   -1.1656   -1.3139    0.0000 C   0  0  0  0  0  0  0  0  0  0  0  0
  2  1  1  6
  2  3  1  0
  3  4  1  0
  4  5  1  0
  5  6  2  0
  5  7  1  0
  7  8  1  0
  8  9  1  0
  9 10  2  0
 10 11  1  0
 11 12  2  0
  2 13  1  0
 13 14  1  6
 14 15  1  0
 16 15  1  6
 16 17  1  0
 17 18  1  1
 18 19  1  1
 18 20  1  0
 20 21  1  1
 20 22  1  0
 22 23  1  1
 23 24  1  0
 24 25  1  1
 24 26  1  0
 26 27  1  0
 27 28  1  0
 28 29  1  6
 28 30  1  0
 30 31  1  6
 31 32  1  0
 32 33  1  0
 33 34  1  6
 12  8  1  0
 33 13  1  0
 33 16  1  0
 30 17  1  0
 28 22  1  0
M  END
>  <MS_ID>  (1030) 
MS1073

>  <SMILES>  (1030) 
C[C@H](CCC(=O)Cn1cnnn1)[C@H]1CC[C@H]2[C@@H]3[C@H](O)[C@H](O)[C@@H]4C[C@H](O)CC[C@]4(C)[C@H]3CC[C@]12C

>  <Structure_dimension>  (1030) 
2D

$$$$
MS1074
     RDKit          2D

 30 33  0  0  0  0  0  0  0  0999 V2000
   -4.1099   -3.1124    0.0000 C   0  0  0  0  0  0  0  0  0  0  0  0
   -3.1089   -1.9953    0.0000 C   0  0  0  0  0  0  0  0  0  0  0  0
   -3.5759   -0.5698    0.0000 C   0  0  0  0  0  0  0  0  0  0  0  0
   -5.0438   -0.2615    0.0000 C   0  0  0  0  0  0  0  0  0  0  0  0
   -5.5108    1.1640    0.0000 C   0  0  0  0  0  0  0  0  0  0  0  0
   -4.5097    2.2811    0.0000 O   0  0  0  0  0  0  0  0  0  0  0  0
   -6.9787    1.4724    0.0000 O   0  0  0  0  0  0  0  0  0  0  0  0
   -7.4457    2.8978    0.0000 C   0  0  0  0  0  0  0  0  0  0  0  0
   -8.9136    3.2062    0.0000 O   0  0  0  0  0  0  0  0  0  0  0  0
   -1.6409   -2.3036    0.0000 C   0  0  0  0  0  0  0  0  0  0  0  0
   -1.0276   -3.6725    0.0000 C   0  0  0  0  0  0  0  0  0  0  0  0
    0.4638   -3.5121    0.0000 C   0  0  0  0  0  0  0  0  0  0  0  0
    0.7722   -2.0441    0.0000 C   0  0  0  0  0  0  0  0  0  0  0  0
    2.0694   -1.2910    0.0000 C   0  0  0  0  0  0  0  0  0  0  0  0
    3.3703   -2.0379    0.0000 C   0  0  0  0  0  0  0  0  0  0  0  0
    3.3739   -3.5379    0.0000 O   0  0  0  0  0  0  0  0  0  0  0  0
    4.6675   -1.2848    0.0000 C   0  0  0  0  0  0  0  0  0  0  0  0
    4.6639    0.2152    0.0000 C   0  0  0  0  0  0  0  0  0  0  0  0
    5.9611    0.9683    0.0000 C   0  0  0  0  0  0  0  0  0  0  0  0
    5.9575    2.4683    0.0000 C   0  0  0  0  0  0  0  0  0  0  0  0
    7.2548    3.2214    0.0000 O   0  0  0  0  0  0  0  0  0  0  0  0
    4.6567    3.2152    0.0000 C   0  0  0  0  0  0  0  0  0  0  0  0
    3.3595    2.4621    0.0000 C   0  0  0  0  0  0  0  0  0  0  0  0
    3.3631    0.9621    0.0000 C   0  0  0  0  0  0  0  0  0  0  0  0
    2.0622    1.7090    0.0000 C   0  0  0  0  0  0  0  0  0  0  0  0
    2.0658    0.2090    0.0000 C   0  0  0  0  0  0  0  0  0  0  0  0
    0.7650    0.9559    0.0000 C   0  0  0  0  0  0  0  0  0  0  0  0
   -0.5322    0.2027    0.0000 C   0  0  0  0  0  0  0  0  0  0  0  0
   -0.5286   -1.2973    0.0000 C   0  0  0  0  0  0  0  0  0  0  0  0
   -1.9004   -0.6904    0.0000 C   0  0  0  0  0  0  0  0  0  0  0  0
  2  1  1  6
  2  3  1  0
  3  4  1  0
  4  5  1  0
  5  6  2  0
  5  7  1  0
  7  8  1  0
  8  9  1  0
  2 10  1  0
 10 11  1  6
 11 12  1  0
 13 12  1  6
 13 14  1  0
 14 15  1  1
 15 16  1  1
 15 17  1  0
 18 17  1  1
 18 19  1  0
 19 20  1  0
 20 21  1  1
 20 22  1  0
 22 23  1  0
 23 24  1  0
 24 25  1  6
 24 26  1  0
 26 27  1  6
 27 28  1  0
 28 29  1  0
 29 30  1  6
 29 10  1  0
 29 13  1  0
 26 14  1  0
 24 18  1  0
M  END
>  <MS_ID>  (1031) 
MS1074

>  <SMILES>  (1031) 
C[C@H](CCC(=O)OCO)[C@H]1CC[C@H]2[C@@H]3[C@H](O)C[C@@H]4C[C@H](O)CC[C@]4(C)[C@H]3CC[C@]12C

>  <Structure_dimension>  (1031) 
2D

$$$$
MS1075
     RDKit          2D

 30 33  0  0  0  0  0  0  0  0999 V2000
   -2.9646   -3.6874    0.0000 C   0  0  0  0  0  0  0  0  0  0  0  0
   -2.1035   -2.4593    0.0000 C   0  0  0  0  0  0  0  0  0  0  0  0
   -2.7365   -1.0994    0.0000 C   0  0  0  0  0  0  0  0  0  0  0  0
   -4.2307   -0.9677    0.0000 C   0  0  0  0  0  0  0  0  0  0  0  0
   -4.8638    0.3922    0.0000 C   0  0  0  0  0  0  0  0  0  0  0  0
   -4.0026    1.6204    0.0000 O   0  0  0  0  0  0  0  0  0  0  0  0
   -6.3580    0.5239    0.0000 O   0  0  0  0  0  0  0  0  0  0  0  0
   -6.9910    1.8838    0.0000 C   0  0  0  0  0  0  0  0  0  0  0  0
   -8.4852    2.0155    0.0000 C   0  0  0  0  0  0  0  0  0  0  0  0
   -9.1182    3.3754    0.0000 N   0  0  0  0  0  0  0  0  0  0  0  0
   -0.6093   -2.5910    0.0000 C   0  0  0  0  0  0  0  0  0  0  0  0
    0.1624   -3.8772    0.0000 C   0  0  0  0  0  0  0  0  0  0  0  0
    1.6242   -3.5408    0.0000 C   0  0  0  0  0  0  0  0  0  0  0  0
    1.7559   -2.0466    0.0000 C   0  0  0  0  0  0  0  0  0  0  0  0
    2.9545   -1.1446    0.0000 C   0  0  0  0  0  0  0  0  0  0  0  0
    4.3348   -1.7316    0.0000 C   0  0  0  0  0  0  0  0  0  0  0  0
    5.5334   -0.8297    0.0000 C   0  0  0  0  0  0  0  0  0  0  0  0
    5.3516    0.6593    0.0000 C   0  0  0  0  0  0  0  0  0  0  0  0
    6.5501    1.5612    0.0000 C   0  0  0  0  0  0  0  0  0  0  0  0
    6.3683    3.0501    0.0000 C   0  0  0  0  0  0  0  0  0  0  0  0
    4.9879    3.6371    0.0000 C   0  0  0  0  0  0  0  0  0  0  0  0
    3.7894    2.7352    0.0000 C   0  0  0  0  0  0  0  0  0  0  0  0
    3.9712    1.2463    0.0000 C   0  0  0  0  0  0  0  0  0  0  0  0
    2.5908    1.8333    0.0000 C   0  0  0  0  0  0  0  0  0  0  0  0
    2.7726    0.3443    0.0000 C   0  0  0  0  0  0  0  0  0  0  0  0
    1.3923    0.9313    0.0000 C   0  0  0  0  0  0  0  0  0  0  0  0
    0.1937    0.0294    0.0000 C   0  0  0  0  0  0  0  0  0  0  0  0
   -1.1866    0.6164    0.0000 O   0  0  0  0  0  0  0  0  0  0  0  0
    0.3756   -1.4596    0.0000 C   0  0  0  0  0  0  0  0  0  0  0  0
   -1.0586   -1.0201    0.0000 C   0  0  0  0  0  0  0  0  0  0  0  0
  2  1  1  6
  2  3  1  0
  3  4  1  0
  4  5  1  0
  5  6  2  0
  5  7  1  0
  7  8  1  0
  8  9  1  0
  9 10  1  0
  2 11  1  0
 11 12  1  6
 12 13  1  0
 14 13  1  6
 14 15  1  0
 15 16  1  1
 16 17  1  0
 18 17  1  1
 18 19  1  0
 19 20  1  0
 20 21  1  0
 21 22  1  0
 22 23  1  0
 23 24  1  6
 23 25  1  0
 25 26  1  6
 26 27  1  0
 27 28  1  6
 27 29  1  0
 29 30  1  6
 29 11  1  0
 29 14  1  0
 25 15  1  0
 23 18  1  0
M  END
>  <MS_ID>  (1032) 
MS1075

>  <SMILES>  (1032) 
C[C@H](CCC(=O)OCCN)[C@H]1CC[C@H]2[C@@H]3CC[C@@H]4CCCC[C@]4(C)[C@H]3C[C@@H](O)[C@]12C

>  <Structure_dimension>  (1032) 
2D

$$$$
MS1076
     RDKit          2D

 38 42  0  0  0  0  0  0  0  0999 V2000
   -0.6314   -4.4508    0.0000 C   0  0  0  0  0  0  0  0  0  0  0  0
    0.0109   -3.0953    0.0000 C   0  0  0  0  0  0  0  0  0  0  0  0
   -0.8419   -1.8613    0.0000 C   0  0  0  0  0  0  0  0  0  0  0  0
   -2.3369   -1.9828    0.0000 C   0  0  0  0  0  0  0  0  0  0  0  0
   -3.1897   -0.7488    0.0000 C   0  0  0  0  0  0  0  0  0  0  0  0
   -2.5473    0.6068    0.0000 O   0  0  0  0  0  0  0  0  0  0  0  0
   -4.6847   -0.8702    0.0000 O   0  0  0  0  0  0  0  0  0  0  0  0
   -5.5375    0.3638    0.0000 C   0  0  0  0  0  0  0  0  0  0  0  0
   -7.0326    0.2423    0.0000 C   0  0  0  0  0  0  0  0  0  0  0  0
   -7.8853    1.4763    0.0000 C   0  0  0  0  0  0  0  0  0  0  0  0
   -9.3804    1.3548    0.0000 C   0  0  0  0  0  0  0  0  0  0  0  0
  -10.2331    2.5889    0.0000 C   0  0  0  0  0  0  0  0  0  0  0  0
  -11.7282    2.4674    0.0000 C   0  0  0  0  0  0  0  0  0  0  0  0
  -12.3705    1.1119    0.0000 C   0  0  0  0  0  0  0  0  0  0  0  0
  -11.5178   -0.1222    0.0000 C   0  0  0  0  0  0  0  0  0  0  0  0
  -10.0227   -0.0007    0.0000 C   0  0  0  0  0  0  0  0  0  0  0  0
    1.5060   -2.9738    0.0000 C   0  0  0  0  0  0  0  0  0  0  0  0
    2.4830   -4.1120    0.0000 C   0  0  0  0  0  0  0  0  0  0  0  0
    3.8674   -3.5344    0.0000 C   0  0  0  0  0  0  0  0  0  0  0  0
    3.7459   -2.0394    0.0000 C   0  0  0  0  0  0  0  0  0  0  0  0
    4.7757   -0.9487    0.0000 C   0  0  0  0  0  0  0  0  0  0  0  0
    6.2351   -1.2951    0.0000 C   0  0  0  0  0  0  0  0  0  0  0  0
    6.6648   -2.7323    0.0000 O   0  0  0  0  0  0  0  0  0  0  0  0
    7.2649   -0.2045    0.0000 C   0  0  0  0  0  0  0  0  0  0  0  0
    6.8352    1.2327    0.0000 C   0  0  0  0  0  0  0  0  0  0  0  0
    7.8650    2.3234    0.0000 C   0  0  0  0  0  0  0  0  0  0  0  0
    7.4353    3.7605    0.0000 C   0  0  0  0  0  0  0  0  0  0  0  0
    8.4651    4.8512    0.0000 O   0  0  0  0  0  0  0  0  0  0  0  0
    5.9758    4.1070    0.0000 C   0  0  0  0  0  0  0  0  0  0  0  0
    4.9461    3.0163    0.0000 C   0  0  0  0  0  0  0  0  0  0  0  0
    5.3758    1.5791    0.0000 C   0  0  0  0  0  0  0  0  0  0  0  0
    3.9163    1.9256    0.0000 C   0  0  0  0  0  0  0  0  0  0  0  0
    4.3460    0.4885    0.0000 C   0  0  0  0  0  0  0  0  0  0  0  0
    2.8866    0.8349    0.0000 C   0  0  0  0  0  0  0  0  0  0  0  0
    1.8568   -0.2558    0.0000 C   0  0  0  0  0  0  0  0  0  0  0  0
    0.3973    0.0907    0.0000 O   0  0  0  0  0  0  0  0  0  0  0  0
    2.2865   -1.6929    0.0000 C   0  0  0  0  0  0  0  0  0  0  0  0
    0.7988   -1.5009    0.0000 C   0  0  0  0  0  0  0  0  0  0  0  0
  2  1  1  6
  2  3  1  0
  3  4  1  0
  4  5  1  0
  5  6  2  0
  5  7  1  0
  7  8  1  0
  8  9  1  0
  9 10  1  0
 10 11  1  0
 11 12  2  0
 12 13  1  0
 13 14  2  0
 14 15  1  0
 15 16  2  0
  2 17  1  0
 17 18  1  6
 18 19  1  0
 20 19  1  6
 20 21  1  0
 21 22  1  1
 22 23  1  1
 22 24  1  0
 25 24  1  1
 25 26  1  0
 26 27  1  0
 27 28  1  1
 27 29  1  0
 29 30  1  0
 30 31  1  0
 31 32  1  6
 31 33  1  0
 33 34  1  6
 34 35  1  0
 35 36  1  1
 35 37  1  0
 37 38  1  6
 16 11  1  0
 37 17  1  0
 37 20  1  0
 33 21  1  0
 31 25  1  0
M  END
>  <MS_ID>  (1033) 
MS1076

>  <SMILES>  (1033) 
C[C@H](CCC(=O)OCCCc1ccccc1)[C@H]1CC[C@H]2[C@@H]3[C@H](O)C[C@@H]4C[C@H](O)CC[C@]4(C)[C@H]3C[C@H](O)[C@]12C

>  <Structure_dimension>  (1033) 
2D

$$$$
MS1077
     RDKit          2D

 29 32  0  0  0  0  0  0  0  0999 V2000
    5.2401    2.0328    0.0000 C   0  0  0  0  0  0  0  0  0  0  0  0
    4.0410    1.1316    0.0000 C   0  0  0  0  0  0  0  0  0  0  0  0
    4.2220   -0.3575    0.0000 C   0  0  0  0  0  0  0  0  0  0  0  0
    5.6020   -0.9453    0.0000 C   0  0  0  0  0  0  0  0  0  0  0  0
    5.7830   -2.4343    0.0000 C   0  0  0  0  0  0  0  0  0  0  0  0
    7.1630   -3.0221    0.0000 O   0  0  0  0  0  0  0  0  0  0  0  0
    4.5839   -3.3355    0.0000 S   0  0  0  0  0  0  0  0  0  0  0  0
    2.6610    1.7194    0.0000 C   0  0  0  0  0  0  0  0  0  0  0  0
    2.3254    3.1813    0.0000 C   0  0  0  0  0  0  0  0  0  0  0  0
    0.8312    3.3139    0.0000 C   0  0  0  0  0  0  0  0  0  0  0  0
    0.2434    1.9339    0.0000 C   0  0  0  0  0  0  0  0  0  0  0  0
   -1.1754    1.4473    0.0000 C   0  0  0  0  0  0  0  0  0  0  0  0
   -2.3063    2.4327    0.0000 C   0  0  0  0  0  0  0  0  0  0  0  0
   -2.0183    3.9048    0.0000 O   0  0  0  0  0  0  0  0  0  0  0  0
   -3.7252    1.9461    0.0000 C   0  0  0  0  0  0  0  0  0  0  0  0
   -4.0132    0.4740    0.0000 C   0  0  0  0  0  0  0  0  0  0  0  0
   -5.4321   -0.0126    0.0000 C   0  0  0  0  0  0  0  0  0  0  0  0
   -5.7201   -1.4846    0.0000 C   0  0  0  0  0  0  0  0  0  0  0  0
   -7.1390   -1.9713    0.0000 O   0  0  0  0  0  0  0  0  0  0  0  0
   -4.5892   -2.4701    0.0000 C   0  0  0  0  0  0  0  0  0  0  0  0
   -3.1704   -1.9835    0.0000 C   0  0  0  0  0  0  0  0  0  0  0  0
   -2.0395   -2.9690    0.0000 O   0  0  0  0  0  0  0  0  0  0  0  0
   -2.8823   -0.5114    0.0000 C   0  0  0  0  0  0  0  0  0  0  0  0
   -1.7515   -1.4969    0.0000 C   0  0  0  0  0  0  0  0  0  0  0  0
   -1.4635   -0.0248    0.0000 C   0  0  0  0  0  0  0  0  0  0  0  0
   -0.3326   -1.0103    0.0000 C   0  0  0  0  0  0  0  0  0  0  0  0
    1.0863   -0.5237    0.0000 C   0  0  0  0  0  0  0  0  0  0  0  0
    1.3743    0.9484    0.0000 C   0  0  0  0  0  0  0  0  0  0  0  0
    2.6020    0.0865    0.0000 C   0  0  0  0  0  0  0  0  0  0  0  0
  2  1  1  6
  2  3  1  0
  3  4  1  0
  4  5  1  0
  5  6  2  0
  5  7  1  0
  2  8  1  0
  8  9  1  6
  9 10  1  0
 11 10  1  6
 11 12  1  0
 12 13  1  1
 13 14  1  1
 13 15  1  0
 16 15  1  1
 16 17  1  0
 17 18  1  0
 18 19  1  1
 18 20  1  0
 20 21  1  0
 21 22  1  1
 21 23  1  0
 23 24  1  6
 23 25  1  0
 25 26  1  6
 26 27  1  0
 27 28  1  0
 28 29  1  6
 28  8  1  0
 28 11  1  0
 25 12  1  0
 23 16  1  0
M  END
>  <MS_ID>  (1034) 
MS1077

>  <SMILES>  (1034) 
C[C@H](CCC(=O)S)[C@H]1CC[C@H]2[C@@H]3[C@H](O)C[C@@H]4C[C@H](O)C[C@H](O)[C@]4(C)[C@H]3CC[C@]12C

>  <Structure_dimension>  (1034) 
2D

$$$$
MS1078
     RDKit          2D

 30 33  0  0  0  0  0  0  0  0999 V2000
   -3.4429   -3.6587    0.0000 C   0  0  0  0  0  0  0  0  0  0  0  0
   -2.5352   -2.4646    0.0000 C   0  0  0  0  0  0  0  0  0  0  0  0
   -3.1155   -1.0814    0.0000 C   0  0  0  0  0  0  0  0  0  0  0  0
   -4.6036   -0.8924    0.0000 C   0  0  0  0  0  0  0  0  0  0  0  0
   -5.1839    0.4908    0.0000 C   0  0  0  0  0  0  0  0  0  0  0  0
   -6.6719    0.6799    0.0000 O   0  0  0  0  0  0  0  0  0  0  0  0
   -4.2762    1.6850    0.0000 O   0  0  0  0  0  0  0  0  0  0  0  0
   -4.8565    3.0682    0.0000 C   0  0  0  0  0  0  0  0  0  0  0  0
   -6.3445    3.2572    0.0000 O   0  0  0  0  0  0  0  0  0  0  0  0
   -3.9488    4.2624    0.0000 O   0  0  0  0  0  0  0  0  0  0  0  0
   -1.0471   -2.6536    0.0000 C   0  0  0  0  0  0  0  0  0  0  0  0
   -0.3254   -3.9685    0.0000 C   0  0  0  0  0  0  0  0  0  0  0  0
    1.1482   -3.6885    0.0000 C   0  0  0  0  0  0  0  0  0  0  0  0
    1.3372   -2.2004    0.0000 C   0  0  0  0  0  0  0  0  0  0  0  0
    2.5695   -1.3452    0.0000 C   0  0  0  0  0  0  0  0  0  0  0  0
    3.9263   -1.9848    0.0000 C   0  0  0  0  0  0  0  0  0  0  0  0
    5.1587   -1.1296    0.0000 C   0  0  0  0  0  0  0  0  0  0  0  0
    5.0342    0.3653    0.0000 C   0  0  0  0  0  0  0  0  0  0  0  0
    6.2665    1.2205    0.0000 C   0  0  0  0  0  0  0  0  0  0  0  0
    6.1420    2.7153    0.0000 C   0  0  0  0  0  0  0  0  0  0  0  0
    4.7852    3.3549    0.0000 C   0  0  0  0  0  0  0  0  0  0  0  0
    3.5529    2.4997    0.0000 C   0  0  0  0  0  0  0  0  0  0  0  0
    3.6774    1.0049    0.0000 C   0  0  0  0  0  0  0  0  0  0  0  0
    2.3206    1.6445    0.0000 C   0  0  0  0  0  0  0  0  0  0  0  0
    2.4450    0.1496    0.0000 C   0  0  0  0  0  0  0  0  0  0  0  0
    1.0882    0.7892    0.0000 C   0  0  0  0  0  0  0  0  0  0  0  0
   -0.1441   -0.0660    0.0000 C   0  0  0  0  0  0  0  0  0  0  0  0
   -1.5009    0.5736    0.0000 O   0  0  0  0  0  0  0  0  0  0  0  0
   -0.0196   -1.5608    0.0000 C   0  0  0  0  0  0  0  0  0  0  0  0
   -1.4358   -1.0666    0.0000 C   0  0  0  0  0  0  0  0  0  0  0  0
  2  1  1  6
  2  3  1  0
  3  4  1  0
  4  5  1  0
  5  6  2  0
  5  7  1  0
  7  8  1  0
  8  9  2  0
  8 10  1  0
  2 11  1  0
 11 12  1  6
 12 13  1  0
 14 13  1  6
 14 15  1  0
 15 16  1  1
 16 17  1  0
 18 17  1  1
 18 19  1  0
 19 20  1  0
 20 21  1  0
 21 22  1  0
 22 23  1  0
 23 24  1  6
 23 25  1  0
 25 26  1  6
 26 27  1  0
 27 28  1  6
 27 29  1  0
 29 30  1  6
 29 11  1  0
 29 14  1  0
 25 15  1  0
 23 18  1  0
M  END
>  <MS_ID>  (1035) 
MS1078

>  <SMILES>  (1035) 
C[C@H](CCC(=O)OC(=O)O)[C@H]1CC[C@H]2[C@@H]3CC[C@@H]4CCCC[C@]4(C)[C@H]3C[C@@H](O)[C@]12C

>  <Structure_dimension>  (1035) 
2D

$$$$
MS1079
     RDKit          2D

 34 37  0  0  0  0  0  0  0  0999 V2000
   -2.4676   -4.1641    0.0000 C   0  0  0  0  0  0  0  0  0  0  0  0
   -1.7000   -2.8754    0.0000 C   0  0  0  0  0  0  0  0  0  0  0  0
   -2.4324   -1.5663    0.0000 C   0  0  0  0  0  0  0  0  0  0  0  0
   -3.9322   -1.5459    0.0000 C   0  0  0  0  0  0  0  0  0  0  0  0
   -4.6645   -0.2368    0.0000 C   0  0  0  0  0  0  0  0  0  0  0  0
   -3.8970    1.0519    0.0000 O   0  0  0  0  0  0  0  0  0  0  0  0
   -6.1644   -0.2165    0.0000 N   0  0  0  0  0  0  0  0  0  0  0  0
   -6.8967    1.0926    0.0000 S   0  0  0  0  0  0  0  0  0  0  0  0
   -8.2058    0.3603    0.0000 O   0  0  0  0  0  0  0  0  0  0  0  0
   -5.5876    1.8249    0.0000 O   0  0  0  0  0  0  0  0  0  0  0  0
   -7.6290    2.4017    0.0000 N   0  0  0  0  0  0  0  0  0  0  0  0
   -6.8615    3.6904    0.0000 C   0  0  0  0  0  0  0  0  0  0  0  0
   -9.1289    2.4220    0.0000 C   0  0  0  0  0  0  0  0  0  0  0  0
   -0.2002   -2.8957    0.0000 C   0  0  0  0  0  0  0  0  0  0  0  0
    0.6650   -4.1211    0.0000 C   0  0  0  0  0  0  0  0  0  0  0  0
    2.0977   -3.6769    0.0000 C   0  0  0  0  0  0  0  0  0  0  0  0
    2.1180   -2.1771    0.0000 C   0  0  0  0  0  0  0  0  0  0  0  0
    3.2463   -1.1886    0.0000 C   0  0  0  0  0  0  0  0  0  0  0  0
    4.6664   -1.6714    0.0000 C   0  0  0  0  0  0  0  0  0  0  0  0
    4.9584   -3.1427    0.0000 O   0  0  0  0  0  0  0  0  0  0  0  0
    5.7947   -0.6829    0.0000 C   0  0  0  0  0  0  0  0  0  0  0  0
    5.5027    0.7884    0.0000 C   0  0  0  0  0  0  0  0  0  0  0  0
    6.6309    1.7769    0.0000 C   0  0  0  0  0  0  0  0  0  0  0  0
    6.3390    3.2482    0.0000 C   0  0  0  0  0  0  0  0  0  0  0  0
    7.4672    4.2367    0.0000 O   0  0  0  0  0  0  0  0  0  0  0  0
    4.9188    3.7310    0.0000 C   0  0  0  0  0  0  0  0  0  0  0  0
    3.7906    2.7425    0.0000 C   0  0  0  0  0  0  0  0  0  0  0  0
    4.0825    1.2712    0.0000 C   0  0  0  0  0  0  0  0  0  0  0  0
    2.6624    1.7540    0.0000 C   0  0  0  0  0  0  0  0  0  0  0  0
    2.9543    0.2827    0.0000 C   0  0  0  0  0  0  0  0  0  0  0  0
    1.5342    0.7656    0.0000 C   0  0  0  0  0  0  0  0  0  0  0  0
    0.4059   -0.2229    0.0000 C   0  0  0  0  0  0  0  0  0  0  0  0
    0.6979   -1.6942    0.0000 C   0  0  0  0  0  0  0  0  0  0  0  0
   -0.7650   -1.3625    0.0000 C   0  0  0  0  0  0  0  0  0  0  0  0
  2  1  1  6
  2  3  1  0
  3  4  1  0
  4  5  1  0
  5  6  2  0
  5  7  1  0
  7  8  1  0
  8  9  2  0
  8 10  2  0
  8 11  1  0
 11 12  1  0
 11 13  1  0
  2 14  1  0
 14 15  1  6
 15 16  1  0
 17 16  1  6
 17 18  1  0
 18 19  1  1
 19 20  1  1
 19 21  1  0
 22 21  1  1
 22 23  1  0
 23 24  1  0
 24 25  1  1
 24 26  1  0
 26 27  1  0
 27 28  1  0
 28 29  1  6
 28 30  1  0
 30 31  1  6
 31 32  1  0
 32 33  1  0
 33 34  1  6
 33 14  1  0
 33 17  1  0
 30 18  1  0
 28 22  1  0
M  END
>  <MS_ID>  (1036) 
MS1079

>  <SMILES>  (1036) 
C[C@H](CCC(=O)NS(=O)(=O)N(C)C)[C@H]1CC[C@H]2[C@@H]3[C@H](O)C[C@@H]4C[C@H](O)CC[C@]4(C)[C@H]3CC[C@]12C

>  <Structure_dimension>  (1036) 
2D

$$$$
MS1080
     RDKit          2D

 32 35  0  0  0  0  0  0  0  0999 V2000
   -8.8198    2.5355    0.0000 C   0  0  0  0  0  0  0  0  0  0  0  0
   -7.3362    2.3142    0.0000 C   0  0  0  0  0  0  0  0  0  0  0  0
   -6.4028    3.4884    0.0000 C   0  0  0  0  0  0  0  0  0  0  0  0
   -6.7860    0.9188    0.0000 C   0  0  0  0  0  0  0  0  0  0  0  0
   -5.3024    0.6975    0.0000 C   0  0  0  0  0  0  0  0  0  0  0  0
   -4.3690    1.8717    0.0000 O   0  0  0  0  0  0  0  0  0  0  0  0
   -4.7523   -0.6980    0.0000 C   0  0  0  0  0  0  0  0  0  0  0  0
   -3.2687   -0.9192    0.0000 C   0  0  0  0  0  0  0  0  0  0  0  0
   -2.7185   -2.3147    0.0000 C   0  0  0  0  0  0  0  0  0  0  0  0
   -3.6519   -3.4889    0.0000 C   0  0  0  0  0  0  0  0  0  0  0  0
   -1.2349   -2.5360    0.0000 C   0  0  0  0  0  0  0  0  0  0  0  0
   -0.5419   -3.8663    0.0000 C   0  0  0  0  0  0  0  0  0  0  0  0
    0.9375   -3.6183    0.0000 C   0  0  0  0  0  0  0  0  0  0  0  0
    1.1587   -2.1347    0.0000 C   0  0  0  0  0  0  0  0  0  0  0  0
    2.4093   -1.3064    0.0000 C   0  0  0  0  0  0  0  0  0  0  0  0
    3.7519   -1.9753    0.0000 C   0  0  0  0  0  0  0  0  0  0  0  0
    3.8439   -3.4725    0.0000 O   0  0  0  0  0  0  0  0  0  0  0  0
    5.0025   -1.1470    0.0000 C   0  0  0  0  0  0  0  0  0  0  0  0
    4.9105    0.3502    0.0000 C   0  0  0  0  0  0  0  0  0  0  0  0
    6.1611    1.1784    0.0000 C   0  0  0  0  0  0  0  0  0  0  0  0
    6.0690    2.6756    0.0000 C   0  0  0  0  0  0  0  0  0  0  0  0
    7.3196    3.5039    0.0000 O   0  0  0  0  0  0  0  0  0  0  0  0
    4.7264    3.3445    0.0000 C   0  0  0  0  0  0  0  0  0  0  0  0
    3.4759    2.5162    0.0000 C   0  0  0  0  0  0  0  0  0  0  0  0
    3.5679    1.0191    0.0000 C   0  0  0  0  0  0  0  0  0  0  0  0
    2.2253    1.6879    0.0000 C   0  0  0  0  0  0  0  0  0  0  0  0
    2.3173    0.1908    0.0000 C   0  0  0  0  0  0  0  0  0  0  0  0
    0.9747    0.8597    0.0000 C   0  0  0  0  0  0  0  0  0  0  0  0
   -0.2759    0.0314    0.0000 C   0  0  0  0  0  0  0  0  0  0  0  0
   -1.6185    0.7003    0.0000 O   0  0  0  0  0  0  0  0  0  0  0  0
   -0.1839   -1.4658    0.0000 C   0  0  0  0  0  0  0  0  0  0  0  0
   -1.5890   -0.9409    0.0000 C   0  0  0  0  0  0  0  0  0  0  0  0
  1  2  1  0
  2  3  1  0
  2  4  2  0
  4  5  1  0
  5  6  2  0
  5  7  1  0
  7  8  1  0
  8  9  1  0
  9 10  1  6
  9 11  1  0
 11 12  1  6
 12 13  1  0
 14 13  1  6
 14 15  1  0
 15 16  1  1
 16 17  1  1
 16 18  1  0
 19 18  1  1
 19 20  1  0
 20 21  1  0
 21 22  1  1
 21 23  1  0
 23 24  1  0
 24 25  1  0
 25 26  1  6
 25 27  1  0
 27 28  1  6
 28 29  1  0
 29 30  1  1
 29 31  1  0
 31 32  1  6
 31 11  1  0
 31 14  1  0
 27 15  1  0
 25 19  1  0
M  END
>  <MS_ID>  (1037) 
MS1080

>  <SMILES>  (1037) 
CC(C)=CC(=O)CC[C@@H](C)[C@H]1CC[C@H]2[C@@H]3[C@H](O)C[C@@H]4C[C@H](O)CC[C@]4(C)[C@H]3C[C@H](O)[C@]12C

>  <Structure_dimension>  (1037) 
2D

$$$$
MS1081
     RDKit          2D

 37 40  0  0  0  0  0  0  0  0999 V2000
   -3.4142   -3.7779    0.0000 C   0  0  0  0  0  0  0  0  0  0  0  0
   -2.7126   -2.4521    0.0000 C   0  0  0  0  0  0  0  0  0  0  0  0
   -3.5100   -1.1816    0.0000 C   0  0  0  0  0  0  0  0  0  0  0  0
   -5.0089   -1.2369    0.0000 C   0  0  0  0  0  0  0  0  0  0  0  0
   -5.8063    0.0336    0.0000 C   0  0  0  0  0  0  0  0  0  0  0  0
   -5.1047    1.3594    0.0000 O   0  0  0  0  0  0  0  0  0  0  0  0
   -7.3053   -0.0217    0.0000 O   0  0  0  0  0  0  0  0  0  0  0  0
   -8.1027    1.2488    0.0000 C   0  0  0  0  0  0  0  0  0  0  0  0
   -9.3732    0.4514    0.0000 C   0  0  0  0  0  0  0  0  0  0  0  0
   -6.8322    2.0462    0.0000 C   0  0  0  0  0  0  0  0  0  0  0  0
   -8.9001    2.5193    0.0000 C   0  0  0  0  0  0  0  0  0  0  0  0
   -1.2136   -2.3968    0.0000 C   0  0  0  0  0  0  0  0  0  0  0  0
   -0.2878   -3.5769    0.0000 C   0  0  0  0  0  0  0  0  0  0  0  0
    1.1207   -3.0611    0.0000 C   0  0  0  0  0  0  0  0  0  0  0  0
    1.0654   -1.5622    0.0000 C   0  0  0  0  0  0  0  0  0  0  0  0
    2.1424   -0.5180    0.0000 C   0  0  0  0  0  0  0  0  0  0  0  0
    3.5851   -0.9287    0.0000 C   0  0  0  0  0  0  0  0  0  0  0  0
    3.9508   -2.3834    0.0000 O   0  0  0  0  0  0  0  0  0  0  0  0
    5.3936   -2.7940    0.0000 S   0  0  0  0  0  0  0  0  0  0  0  0
    5.8042   -1.3513    0.0000 O   0  0  0  0  0  0  0  0  0  0  0  0
    4.9829   -4.2367    0.0000 O   0  0  0  0  0  0  0  0  0  0  0  0
    6.8363   -3.2046    0.0000 O   0  0  0  0  0  0  0  0  0  0  0  0
    4.6620    0.1155    0.0000 C   0  0  0  0  0  0  0  0  0  0  0  0
    4.2963    1.5702    0.0000 C   0  0  0  0  0  0  0  0  0  0  0  0
    5.3732    2.6143    0.0000 C   0  0  0  0  0  0  0  0  0  0  0  0
    5.0075    4.0690    0.0000 C   0  0  0  0  0  0  0  0  0  0  0  0
    6.0845    5.1131    0.0000 O   0  0  0  0  0  0  0  0  0  0  0  0
    3.5648    4.4796    0.0000 C   0  0  0  0  0  0  0  0  0  0  0  0
    2.4878    3.4355    0.0000 C   0  0  0  0  0  0  0  0  0  0  0  0
    2.8536    1.9808    0.0000 C   0  0  0  0  0  0  0  0  0  0  0  0
    1.4109    2.3914    0.0000 C   0  0  0  0  0  0  0  0  0  0  0  0
    1.7766    0.9367    0.0000 C   0  0  0  0  0  0  0  0  0  0  0  0
    0.3339    1.3473    0.0000 C   0  0  0  0  0  0  0  0  0  0  0  0
   -0.7430    0.3032    0.0000 C   0  0  0  0  0  0  0  0  0  0  0  0
   -2.1857    0.7138    0.0000 O   0  0  0  0  0  0  0  0  0  0  0  0
   -0.3773   -1.1515    0.0000 C   0  0  0  0  0  0  0  0  0  0  0  0
   -1.8550   -0.8940    0.0000 C   0  0  0  0  0  0  0  0  0  0  0  0
  2  1  1  6
  2  3  1  0
  3  4  1  0
  4  5  1  0
  5  6  2  0
  5  7  1  0
  7  8  1  0
  8  9  1  0
  8 10  1  0
  8 11  1  0
  2 12  1  0
 12 13  1  6
 13 14  1  0
 15 14  1  6
 15 16  1  0
 16 17  1  1
 17 18  1  1
 18 19  1  0
 19 20  2  0
 19 21  2  0
 19 22  1  0
 17 23  1  0
 24 23  1  1
 24 25  1  0
 25 26  1  0
 26 27  1  1
 26 28  1  0
 28 29  1  0
 29 30  1  0
 30 31  1  6
 30 32  1  0
 32 33  1  6
 33 34  1  0
 34 35  1  1
 34 36  1  0
 36 37  1  6
 36 12  1  0
 36 15  1  0
 32 16  1  0
 30 24  1  0
M  END
>  <MS_ID>  (1038) 
MS1081

>  <SMILES>  (1038) 
C[C@H](CCC(=O)OC(C)(C)C)[C@H]1CC[C@H]2[C@@H]3[C@H](OS(=O)(=O)O)C[C@@H]4C[C@H](O)CC[C@]4(C)[C@H]3C[C@H](O)[C@]12C

>  <Structure_dimension>  (1038) 
2D

$$$$
MS1082
     RDKit          2D

 30 33  0  0  0  0  0  0  0  0999 V2000
   -5.0361   -2.2421    0.0000 C   0  0  0  0  0  0  0  0  0  0  0  0
   -3.9151   -1.2454    0.0000 C   0  0  0  0  0  0  0  0  0  0  0  0
   -4.2177    0.2237    0.0000 C   0  0  0  0  0  0  0  0  0  0  0  0
   -5.6413    0.6963    0.0000 C   0  0  0  0  0  0  0  0  0  0  0  0
   -5.9439    2.1654    0.0000 C   0  0  0  0  0  0  0  0  0  0  0  0
   -4.8228    3.1621    0.0000 O   0  0  0  0  0  0  0  0  0  0  0  0
   -7.3675    2.6380    0.0000 O   0  0  0  0  0  0  0  0  0  0  0  0
   -2.4915   -1.7180    0.0000 C   0  0  0  0  0  0  0  0  0  0  0  0
   -2.0370   -3.1475    0.0000 C   0  0  0  0  0  0  0  0  0  0  0  0
   -0.5370   -3.1570    0.0000 C   0  0  0  0  0  0  0  0  0  0  0  0
   -0.0645   -1.7333    0.0000 C   0  0  0  0  0  0  0  0  0  0  0  0
    1.3097   -1.1319    0.0000 C   0  0  0  0  0  0  0  0  0  0  0  0
    2.5176   -2.0213    0.0000 C   0  0  0  0  0  0  0  0  0  0  0  0
    2.3514   -3.5120    0.0000 C   0  0  0  0  0  0  0  0  0  0  0  0
    3.5593   -4.4014    0.0000 S   0  0  0  0  0  0  0  0  0  0  0  0
    3.8918   -1.4198    0.0000 C   0  0  0  0  0  0  0  0  0  0  0  0
    4.0580    0.0709    0.0000 C   0  0  0  0  0  0  0  0  0  0  0  0
    5.4321    0.6723    0.0000 C   0  0  0  0  0  0  0  0  0  0  0  0
    5.5984    2.1631    0.0000 C   0  0  0  0  0  0  0  0  0  0  0  0
    6.9725    2.7645    0.0000 O   0  0  0  0  0  0  0  0  0  0  0  0
    4.3904    3.0524    0.0000 C   0  0  0  0  0  0  0  0  0  0  0  0
    3.0163    2.4510    0.0000 C   0  0  0  0  0  0  0  0  0  0  0  0
    2.8501    0.9603    0.0000 C   0  0  0  0  0  0  0  0  0  0  0  0
    1.6421    1.8496    0.0000 C   0  0  0  0  0  0  0  0  0  0  0  0
    1.4759    0.3588    0.0000 C   0  0  0  0  0  0  0  0  0  0  0  0
    0.2680    1.2482    0.0000 C   0  0  0  0  0  0  0  0  0  0  0  0
   -1.1062    0.6468    0.0000 C   0  0  0  0  0  0  0  0  0  0  0  0
   -2.3141    1.5361    0.0000 O   0  0  0  0  0  0  0  0  0  0  0  0
   -1.2724   -0.8440    0.0000 C   0  0  0  0  0  0  0  0  0  0  0  0
   -2.5667   -0.0858    0.0000 C   0  0  0  0  0  0  0  0  0  0  0  0
  2  1  1  6
  2  3  1  0
  3  4  1  0
  4  5  1  0
  5  6  2  0
  5  7  1  0
  2  8  1  0
  8  9  1  6
  9 10  1  0
 11 10  1  6
 11 12  1  0
 12 13  1  1
 13 14  1  1
 14 15  1  0
 13 16  1  0
 17 16  1  1
 17 18  1  0
 18 19  1  0
 19 20  1  1
 19 21  1  0
 21 22  1  0
 22 23  1  0
 23 24  1  6
 23 25  1  0
 25 26  1  6
 26 27  1  0
 27 28  1  6
 27 29  1  0
 29 30  1  6
 29  8  1  0
 29 11  1  0
 25 12  1  0
 23 17  1  0
M  END
>  <MS_ID>  (1039) 
MS1082

>  <SMILES>  (1039) 
C[C@H](CCC(=O)O)[C@H]1CC[C@H]2[C@@H]3[C@H](CS)C[C@@H]4C[C@H](O)CC[C@]4(C)[C@H]3C[C@@H](O)[C@]12C

>  <Structure_dimension>  (1039) 
2D

$$$$
MS1083
     RDKit          2D

 35 38  0  0  0  0  0  0  0  0999 V2000
   -1.6055   -4.5588    0.0000 C   0  0  0  0  0  0  0  0  0  0  0  0
   -0.9083   -3.2307    0.0000 C   0  0  0  0  0  0  0  0  0  0  0  0
   -1.7099   -1.9628    0.0000 C   0  0  0  0  0  0  0  0  0  0  0  0
   -3.2087   -2.0231    0.0000 C   0  0  0  0  0  0  0  0  0  0  0  0
   -4.0103   -0.7553    0.0000 C   0  0  0  0  0  0  0  0  0  0  0  0
   -3.3131    0.5729    0.0000 O   0  0  0  0  0  0  0  0  0  0  0  0
   -5.5091   -0.8155    0.0000 N   0  0  0  0  0  0  0  0  0  0  0  0
   -6.3107    0.4523    0.0000 C   0  0  0  0  0  0  0  0  0  0  0  0
   -7.8095    0.3920    0.0000 C   0  0  0  0  0  0  0  0  0  0  0  0
   -8.6111    1.6599    0.0000 C   0  0  0  0  0  0  0  0  0  0  0  0
   -7.9139    2.9880    0.0000 O   0  0  0  0  0  0  0  0  0  0  0  0
  -10.1099    1.5996    0.0000 O   0  0  0  0  0  0  0  0  0  0  0  0
   -5.6135    1.7804    0.0000 C   0  0  0  0  0  0  0  0  0  0  0  0
   -4.1147    1.8407    0.0000 O   0  0  0  0  0  0  0  0  0  0  0  0
   -6.4151    3.0483    0.0000 O   0  0  0  0  0  0  0  0  0  0  0  0
    0.5905   -3.1704    0.0000 C   0  0  0  0  0  0  0  0  0  0  0  0
    1.5202   -4.3475    0.0000 C   0  0  0  0  0  0  0  0  0  0  0  0
    2.9270   -3.8270    0.0000 C   0  0  0  0  0  0  0  0  0  0  0  0
    2.8667   -2.3282    0.0000 C   0  0  0  0  0  0  0  0  0  0  0  0
    3.9402   -1.2805    0.0000 C   0  0  0  0  0  0  0  0  0  0  0  0
    5.3843   -1.6864    0.0000 C   0  0  0  0  0  0  0  0  0  0  0  0
    6.4578   -0.6387    0.0000 C   0  0  0  0  0  0  0  0  0  0  0  0
    6.0872    0.8148    0.0000 C   0  0  0  0  0  0  0  0  0  0  0  0
    7.1607    1.8625    0.0000 C   0  0  0  0  0  0  0  0  0  0  0  0
    6.7901    3.3160    0.0000 C   0  0  0  0  0  0  0  0  0  0  0  0
    7.8636    4.3637    0.0000 O   0  0  0  0  0  0  0  0  0  0  0  0
    5.3460    3.7218    0.0000 C   0  0  0  0  0  0  0  0  0  0  0  0
    4.2725    2.6741    0.0000 C   0  0  0  0  0  0  0  0  0  0  0  0
    4.6431    1.2206    0.0000 C   0  0  0  0  0  0  0  0  0  0  0  0
    3.1991    1.6265    0.0000 C   0  0  0  0  0  0  0  0  0  0  0  0
    3.5696    0.1730    0.0000 C   0  0  0  0  0  0  0  0  0  0  0  0
    2.1256    0.5788    0.0000 C   0  0  0  0  0  0  0  0  0  0  0  0
    1.0521   -0.4689    0.0000 C   0  0  0  0  0  0  0  0  0  0  0  0
    1.4227   -1.9224    0.0000 C   0  0  0  0  0  0  0  0  0  0  0  0
   -0.0559   -1.6698    0.0000 C   0  0  0  0  0  0  0  0  0  0  0  0
  2  1  1  6
  2  3  1  0
  3  4  1  0
  4  5  1  0
  5  6  2  0
  5  7  1  0
  7  8  1  0
  8  9  1  6
  9 10  1  0
 10 11  2  0
 10 12  1  0
  8 13  1  0
 13 14  2  0
 13 15  1  0
  2 16  1  0
 16 17  1  6
 17 18  1  0
 19 18  1  6
 19 20  1  0
 20 21  1  1
 21 22  1  0
 23 22  1  1
 23 24  1  0
 24 25  1  0
 25 26  1  1
 25 27  1  0
 27 28  1  0
 28 29  1  0
 29 30  1  6
 29 31  1  0
 31 32  1  6
 32 33  1  0
 33 34  1  0
 34 35  1  6
 34 16  1  0
 34 19  1  0
 31 20  1  0
 29 23  1  0
M  END
>  <MS_ID>  (1040) 
MS1083

>  <SMILES>  (1040) 
C[C@H](CCC(=O)N[C@H](CC(=O)O)C(=O)O)[C@H]1CC[C@H]2[C@@H]3CC[C@@H]4C[C@H](O)CC[C@]4(C)[C@H]3CC[C@]12C

>  <Structure_dimension>  (1040) 
2D

$$$$
MS1084
     RDKit          2D

 31 34  0  0  0  0  0  0  0  0999 V2000
   -4.4281   -2.8097    0.0000 C   0  0  0  0  0  0  0  0  0  0  0  0
   -3.3906   -1.7263    0.0000 C   0  0  0  0  0  0  0  0  0  0  0  0
   -3.8101   -0.2862    0.0000 C   0  0  0  0  0  0  0  0  0  0  0  0
   -5.2670    0.0707    0.0000 C   0  0  0  0  0  0  0  0  0  0  0  0
   -5.6865    1.5108    0.0000 C   0  0  0  0  0  0  0  0  0  0  0  0
   -4.6490    2.5942    0.0000 O   0  0  0  0  0  0  0  0  0  0  0  0
   -7.1434    1.8677    0.0000 C   0  0  0  0  0  0  0  0  0  0  0  0
   -7.5628    3.3078    0.0000 Cl  0  0  0  0  0  0  0  0  0  0  0  0
   -8.1809    0.7843    0.0000 Cl  0  0  0  0  0  0  0  0  0  0  0  0
   -1.9337   -2.0832    0.0000 C   0  0  0  0  0  0  0  0  0  0  0  0
   -1.3660   -3.4716    0.0000 C   0  0  0  0  0  0  0  0  0  0  0  0
    0.1299   -3.3608    0.0000 C   0  0  0  0  0  0  0  0  0  0  0  0
    0.4867   -1.9038    0.0000 C   0  0  0  0  0  0  0  0  0  0  0  0
    1.8082   -1.1941    0.0000 C   0  0  0  0  0  0  0  0  0  0  0  0
    3.0836   -1.9837    0.0000 C   0  0  0  0  0  0  0  0  0  0  0  0
    3.0374   -3.4830    0.0000 O   0  0  0  0  0  0  0  0  0  0  0  0
    4.4050   -1.2740    0.0000 C   0  0  0  0  0  0  0  0  0  0  0  0
    5.6804   -2.0636    0.0000 O   0  0  0  0  0  0  0  0  0  0  0  0
    4.4512    0.2253    0.0000 C   0  0  0  0  0  0  0  0  0  0  0  0
    5.7727    0.9350    0.0000 C   0  0  0  0  0  0  0  0  0  0  0  0
    5.8188    2.4343    0.0000 C   0  0  0  0  0  0  0  0  0  0  0  0
    7.1403    3.1440    0.0000 O   0  0  0  0  0  0  0  0  0  0  0  0
    4.5434    3.2239    0.0000 C   0  0  0  0  0  0  0  0  0  0  0  0
    3.2219    2.5142    0.0000 C   0  0  0  0  0  0  0  0  0  0  0  0
    3.1758    1.0149    0.0000 C   0  0  0  0  0  0  0  0  0  0  0  0
    1.9004    1.8045    0.0000 C   0  0  0  0  0  0  0  0  0  0  0  0
    1.8543    0.3052    0.0000 C   0  0  0  0  0  0  0  0  0  0  0  0
    0.5790    1.0948    0.0000 C   0  0  0  0  0  0  0  0  0  0  0  0
   -0.7425    0.3851    0.0000 C   0  0  0  0  0  0  0  0  0  0  0  0
   -0.7887   -1.1142    0.0000 C   0  0  0  0  0  0  0  0  0  0  0  0
   -2.1396   -0.4623    0.0000 C   0  0  0  0  0  0  0  0  0  0  0  0
  2  1  1  6
  2  3  1  0
  3  4  1  0
  4  5  1  0
  5  6  2  0
  5  7  1  0
  7  8  1  0
  7  9  1  0
  2 10  1  0
 10 11  1  6
 11 12  1  0
 13 12  1  6
 13 14  1  0
 14 15  1  1
 15 16  1  1
 15 17  1  0
 17 18  1  1
 17 19  1  0
 19 20  1  1
 20 21  1  0
 21 22  1  1
 21 23  1  0
 23 24  1  0
 24 25  1  0
 25 26  1  6
 25 27  1  0
 27 28  1  6
 28 29  1  0
 29 30  1  0
 30 31  1  6
 30 10  1  0
 30 13  1  0
 27 14  1  0
 25 19  1  0
M  END
>  <MS_ID>  (1041) 
MS1084

>  <SMILES>  (1041) 
C[C@H](CCC(=O)C(Cl)Cl)[C@H]1CC[C@H]2[C@@H]3[C@H](O)[C@H](O)[C@@H]4C[C@H](O)CC[C@]4(C)[C@H]3CC[C@]12C

>  <Structure_dimension>  (1041) 
2D

$$$$
MS1085
     RDKit          2D

 32 35  0  0  0  0  0  0  0  0999 V2000
   -6.3148   -1.8053    0.0000 C   0  0  0  0  0  0  0  0  0  0  0  0
   -5.0840   -0.9480    0.0000 C   0  0  0  0  0  0  0  0  0  0  0  0
   -5.2110    0.5466    0.0000 C   0  0  0  0  0  0  0  0  0  0  0  0
   -6.5688    1.1840    0.0000 C   0  0  0  0  0  0  0  0  0  0  0  0
   -6.6958    2.6786    0.0000 C   0  0  0  0  0  0  0  0  0  0  0  0
   -8.0537    3.3159    0.0000 N   0  0  0  0  0  0  0  0  0  0  0  0
   -5.4650    3.5359    0.0000 O   0  0  0  0  0  0  0  0  0  0  0  0
   -3.7261   -1.5853    0.0000 C   0  0  0  0  0  0  0  0  0  0  0  0
   -3.4436   -3.0584    0.0000 C   0  0  0  0  0  0  0  0  0  0  0  0
   -1.9552   -3.2450    0.0000 C   0  0  0  0  0  0  0  0  0  0  0  0
   -1.3179   -1.8871    0.0000 C   0  0  0  0  0  0  0  0  0  0  0  0
    0.1177   -1.4521    0.0000 C   0  0  0  0  0  0  0  0  0  0  0  0
    1.2121   -2.4779    0.0000 C   0  0  0  0  0  0  0  0  0  0  0  0
    0.8711   -3.9386    0.0000 O   0  0  0  0  0  0  0  0  0  0  0  0
    2.6477   -2.0429    0.0000 C   0  0  0  0  0  0  0  0  0  0  0  0
    2.9888   -0.5822    0.0000 C   0  0  0  0  0  0  0  0  0  0  0  0
    4.4243   -0.1472    0.0000 C   0  0  0  0  0  0  0  0  0  0  0  0
    4.7654    1.3135    0.0000 C   0  0  0  0  0  0  0  0  0  0  0  0
    6.2009    1.7485    0.0000 O   0  0  0  0  0  0  0  0  0  0  0  0
    7.2954    0.7227    0.0000 S   0  0  0  0  0  0  0  0  0  0  0  0
    6.2697   -0.3717    0.0000 O   0  0  0  0  0  0  0  0  0  0  0  0
    8.3211    1.8172    0.0000 O   0  0  0  0  0  0  0  0  0  0  0  0
    8.3899   -0.3030    0.0000 O   0  0  0  0  0  0  0  0  0  0  0  0
    3.6709    2.3392    0.0000 C   0  0  0  0  0  0  0  0  0  0  0  0
    2.2354    1.9043    0.0000 C   0  0  0  0  0  0  0  0  0  0  0  0
    1.8943    0.4436    0.0000 C   0  0  0  0  0  0  0  0  0  0  0  0
    0.7998    1.4693    0.0000 C   0  0  0  0  0  0  0  0  0  0  0  0
    0.4587    0.0086    0.0000 C   0  0  0  0  0  0  0  0  0  0  0  0
   -0.6357    1.0343    0.0000 C   0  0  0  0  0  0  0  0  0  0  0  0
   -2.0713    0.5993    0.0000 C   0  0  0  0  0  0  0  0  0  0  0  0
   -2.4123   -0.8614    0.0000 C   0  0  0  0  0  0  0  0  0  0  0  0
   -3.6080    0.0444    0.0000 C   0  0  0  0  0  0  0  0  0  0  0  0
  2  1  1  6
  2  3  1  0
  3  4  1  0
  4  5  1  0
  5  6  1  0
  5  7  2  0
  2  8  1  0
  8  9  1  6
  9 10  1  0
 11 10  1  6
 11 12  1  0
 12 13  1  1
 13 14  1  1
 13 15  1  0
 16 15  1  1
 16 17  1  0
 17 18  1  0
 18 19  1  1
 19 20  1  0
 20 21  2  0
 20 22  2  0
 20 23  1  0
 18 24  1  0
 24 25  1  0
 25 26  1  0
 26 27  1  6
 26 28  1  0
 28 29  1  6
 29 30  1  0
 30 31  1  0
 31 32  1  6
 31  8  1  0
 31 11  1  0
 28 12  1  0
 26 16  1  0
M  END
>  <MS_ID>  (1042) 
MS1085

>  <SMILES>  (1042) 
C[C@H](CCC(N)=O)[C@H]1CC[C@H]2[C@@H]3[C@H](O)C[C@@H]4C[C@H](OS(=O)(=O)O)CC[C@]4(C)[C@H]3CC[C@]12C

>  <Structure_dimension>  (1042) 
2D

$$$$
MS1086
     RDKit          2D

 36 40  0  0  0  0  0  0  0  0999 V2000
   -2.5893   -3.4109    0.0000 C   0  0  0  0  0  0  0  0  0  0  0  0
   -1.6519   -2.2400    0.0000 C   0  0  0  0  0  0  0  0  0  0  0  0
   -2.1972   -0.8426    0.0000 C   0  0  0  0  0  0  0  0  0  0  0  0
   -3.6800   -0.6162    0.0000 C   0  0  0  0  0  0  0  0  0  0  0  0
   -4.2253    0.7812    0.0000 C   0  0  0  0  0  0  0  0  0  0  0  0
   -3.2878    1.9521    0.0000 O   0  0  0  0  0  0  0  0  0  0  0  0
   -5.7081    1.0076    0.0000 C   0  0  0  0  0  0  0  0  0  0  0  0
   -6.2535    2.4049    0.0000 C   0  0  0  0  0  0  0  0  0  0  0  0
   -7.7363    2.6313    0.0000 C   0  0  0  0  0  0  0  0  0  0  0  0
   -8.6738    1.4604    0.0000 C   0  0  0  0  0  0  0  0  0  0  0  0
  -10.1566    1.6868    0.0000 O   0  0  0  0  0  0  0  0  0  0  0  0
   -8.1284    0.0630    0.0000 C   0  0  0  0  0  0  0  0  0  0  0  0
   -6.6456   -0.1634    0.0000 C   0  0  0  0  0  0  0  0  0  0  0  0
   -6.1003   -1.5607    0.0000 O   0  0  0  0  0  0  0  0  0  0  0  0
   -0.1690   -2.4664    0.0000 C   0  0  0  0  0  0  0  0  0  0  0  0
    0.5194   -3.7991    0.0000 C   0  0  0  0  0  0  0  0  0  0  0  0
    1.9996   -3.5562    0.0000 C   0  0  0  0  0  0  0  0  0  0  0  0
    2.2260   -2.0734    0.0000 C   0  0  0  0  0  0  0  0  0  0  0  0
    3.4794   -1.2494    0.0000 C   0  0  0  0  0  0  0  0  0  0  0  0
    4.8197   -1.9230    0.0000 C   0  0  0  0  0  0  0  0  0  0  0  0
    4.9065   -3.4205    0.0000 O   0  0  0  0  0  0  0  0  0  0  0  0
    6.0731   -1.0990    0.0000 C   0  0  0  0  0  0  0  0  0  0  0  0
    5.9863    0.3984    0.0000 C   0  0  0  0  0  0  0  0  0  0  0  0
    7.2398    1.2224    0.0000 C   0  0  0  0  0  0  0  0  0  0  0  0
    7.1529    2.7199    0.0000 C   0  0  0  0  0  0  0  0  0  0  0  0
    8.4064    3.5438    0.0000 O   0  0  0  0  0  0  0  0  0  0  0  0
    5.8126    3.3934    0.0000 C   0  0  0  0  0  0  0  0  0  0  0  0
    4.5592    2.5695    0.0000 C   0  0  0  0  0  0  0  0  0  0  0  0
    4.6460    1.0720    0.0000 C   0  0  0  0  0  0  0  0  0  0  0  0
    3.3058    1.7455    0.0000 C   0  0  0  0  0  0  0  0  0  0  0  0
    3.3926    0.2480    0.0000 C   0  0  0  0  0  0  0  0  0  0  0  0
    2.0523    0.9216    0.0000 C   0  0  0  0  0  0  0  0  0  0  0  0
    0.7989    0.0976    0.0000 C   0  0  0  0  0  0  0  0  0  0  0  0
   -0.5414    0.7712    0.0000 O   0  0  0  0  0  0  0  0  0  0  0  0
    0.8857   -1.3998    0.0000 C   0  0  0  0  0  0  0  0  0  0  0  0
   -0.5176   -0.8701    0.0000 C   0  0  0  0  0  0  0  0  0  0  0  0
  2  1  1  6
  2  3  1  0
  3  4  1  0
  4  5  1  0
  5  6  2  0
  5  7  1  0
  7  8  2  0
  8  9  1  0
  9 10  2  0
 10 11  1  0
 10 12  1  0
 12 13  2  0
 13 14  1  0
  2 15  1  0
 15 16  1  6
 16 17  1  0
 18 17  1  6
 18 19  1  0
 19 20  1  1
 20 21  1  1
 20 22  1  0
 23 22  1  1
 23 24  1  0
 24 25  1  0
 25 26  1  1
 25 27  1  0
 27 28  1  0
 28 29  1  0
 29 30  1  6
 29 31  1  0
 31 32  1  6
 32 33  1  0
 33 34  1  1
 33 35  1  0
 35 36  1  6
 13  7  1  0
 35 15  1  0
 35 18  1  0
 31 19  1  0
 29 23  1  0
M  END
>  <MS_ID>  (1043) 
MS1086

>  <SMILES>  (1043) 
C[C@H](CCC(=O)c1ccc(O)cc1O)[C@H]1CC[C@H]2[C@@H]3[C@H](O)C[C@@H]4C[C@H](O)CC[C@]4(C)[C@H]3C[C@H](O)[C@]12C

>  <Structure_dimension>  (1043) 
2D

$$$$
MS1087
     RDKit          2D

 36 39  0  0  0  0  0  0  0  0999 V2000
   -1.3945   -4.5616    0.0000 C   0  0  0  0  0  0  0  0  0  0  0  0
   -0.7955   -3.1864    0.0000 C   0  0  0  0  0  0  0  0  0  0  0  0
   -1.6869   -1.9800    0.0000 C   0  0  0  0  0  0  0  0  0  0  0  0
   -3.1773   -2.1488    0.0000 C   0  0  0  0  0  0  0  0  0  0  0  0
   -4.0687   -0.9424    0.0000 C   0  0  0  0  0  0  0  0  0  0  0  0
   -3.4697    0.4328    0.0000 O   0  0  0  0  0  0  0  0  0  0  0  0
   -5.5592   -1.1111    0.0000 C   0  0  0  0  0  0  0  0  0  0  0  0
   -6.4506    0.0953    0.0000 C   0  0  0  0  0  0  0  0  0  0  0  0
   -7.9411   -0.0735    0.0000 C   0  0  0  0  0  0  0  0  0  0  0  0
   -8.8325    1.1329    0.0000 C   0  0  0  0  0  0  0  0  0  0  0  0
  -10.3230    0.9641    0.0000 C   0  0  0  0  0  0  0  0  0  0  0  0
  -11.2144    2.1705    0.0000 C   0  0  0  0  0  0  0  0  0  0  0  0
  -10.6153    3.5457    0.0000 O   0  0  0  0  0  0  0  0  0  0  0  0
  -12.7048    2.0017    0.0000 O   0  0  0  0  0  0  0  0  0  0  0  0
    0.6950   -3.0176    0.0000 C   0  0  0  0  0  0  0  0  0  0  0  0
    1.7076   -4.1242    0.0000 C   0  0  0  0  0  0  0  0  0  0  0  0
    3.0730   -3.5031    0.0000 C   0  0  0  0  0  0  0  0  0  0  0  0
    2.9042   -2.0127    0.0000 C   0  0  0  0  0  0  0  0  0  0  0  0
    3.8989   -0.8899    0.0000 C   0  0  0  0  0  0  0  0  0  0  0  0
    5.3686   -1.1900    0.0000 C   0  0  0  0  0  0  0  0  0  0  0  0
    5.8436   -2.6128    0.0000 O   0  0  0  0  0  0  0  0  0  0  0  0
    6.3633   -0.0672    0.0000 C   0  0  0  0  0  0  0  0  0  0  0  0
    7.8330   -0.3673    0.0000 O   0  0  0  0  0  0  0  0  0  0  0  0
    5.8884    1.3556    0.0000 C   0  0  0  0  0  0  0  0  0  0  0  0
    6.8831    2.4783    0.0000 C   0  0  0  0  0  0  0  0  0  0  0  0
    6.4081    3.9011    0.0000 C   0  0  0  0  0  0  0  0  0  0  0  0
    7.4028    5.0239    0.0000 O   0  0  0  0  0  0  0  0  0  0  0  0
    4.9384    4.2012    0.0000 C   0  0  0  0  0  0  0  0  0  0  0  0
    3.9437    3.0785    0.0000 C   0  0  0  0  0  0  0  0  0  0  0  0
    4.4187    1.6556    0.0000 C   0  0  0  0  0  0  0  0  0  0  0  0
    2.9490    1.9557    0.0000 C   0  0  0  0  0  0  0  0  0  0  0  0
    3.4240    0.5329    0.0000 C   0  0  0  0  0  0  0  0  0  0  0  0
    1.9543    0.8330    0.0000 C   0  0  0  0  0  0  0  0  0  0  0  0
    0.9596   -0.2898    0.0000 C   0  0  0  0  0  0  0  0  0  0  0  0
    1.4346   -1.7126    0.0000 C   0  0  0  0  0  0  0  0  0  0  0  0
   -0.0584   -1.5678    0.0000 C   0  0  0  0  0  0  0  0  0  0  0  0
  2  1  1  6
  2  3  1  0
  3  4  1  0
  4  5  1  0
  5  6  2  0
  5  7  1  0
  7  8  1  0
  8  9  1  0
  9 10  1  0
 10 11  1  0
 11 12  1  0
 12 13  2  0
 12 14  1  0
  2 15  1  0
 15 16  1  6
 16 17  1  0
 18 17  1  6
 18 19  1  0
 19 20  1  1
 20 21  1  1
 20 22  1  0
 22 23  1  1
 22 24  1  0
 24 25  1  1
 25 26  1  0
 26 27  1  1
 26 28  1  0
 28 29  1  0
 29 30  1  0
 30 31  1  6
 30 32  1  0
 32 33  1  6
 33 34  1  0
 34 35  1  0
 35 36  1  6
 35 15  1  0
 35 18  1  0
 32 19  1  0
 30 24  1  0
M  END
>  <MS_ID>  (1044) 
MS1087

>  <SMILES>  (1044) 
C[C@H](CCC(=O)CCCCCC(=O)O)[C@H]1CC[C@H]2[C@@H]3[C@H](O)[C@H](O)[C@@H]4C[C@H](O)CC[C@]4(C)[C@H]3CC[C@]12C

>  <Structure_dimension>  (1044) 
2D

$$$$
MS1088
     RDKit          2D

 32 35  0  0  0  0  0  0  0  0999 V2000
   -2.9090   -3.9078    0.0000 C   0  0  0  0  0  0  0  0  0  0  0  0
   -2.0926   -2.6494    0.0000 C   0  0  0  0  0  0  0  0  0  0  0  0
   -2.7741   -1.3132    0.0000 C   0  0  0  0  0  0  0  0  0  0  0  0
   -4.2721   -1.2353    0.0000 C   0  0  0  0  0  0  0  0  0  0  0  0
   -4.9536    0.1009    0.0000 C   0  0  0  0  0  0  0  0  0  0  0  0
   -4.1372    1.3592    0.0000 O   0  0  0  0  0  0  0  0  0  0  0  0
   -6.4516    0.1788    0.0000 N   0  0  0  0  0  0  0  0  0  0  0  0
   -7.1332    1.5150    0.0000 C   0  0  0  0  0  0  0  0  0  0  0  0
   -8.6311    1.5929    0.0000 C   0  0  0  0  0  0  0  0  0  0  0  0
   -9.3127    2.9291    0.0000 C   0  0  0  0  0  0  0  0  0  0  0  0
  -10.8107    3.0070    0.0000 N   0  0  0  0  0  0  0  0  0  0  0  0
   -0.5946   -2.7273    0.0000 C   0  0  0  0  0  0  0  0  0  0  0  0
    0.2229   -3.9850    0.0000 C   0  0  0  0  0  0  0  0  0  0  0  0
    1.6716   -3.5962    0.0000 C   0  0  0  0  0  0  0  0  0  0  0  0
    1.7495   -2.0982    0.0000 C   0  0  0  0  0  0  0  0  0  0  0  0
    2.9148   -1.1537    0.0000 C   0  0  0  0  0  0  0  0  0  0  0  0
    4.3154   -1.6907    0.0000 C   0  0  0  0  0  0  0  0  0  0  0  0
    4.5507   -3.1721    0.0000 O   0  0  0  0  0  0  0  0  0  0  0  0
    5.4807   -0.7462    0.0000 C   0  0  0  0  0  0  0  0  0  0  0  0
    5.2455    0.7352    0.0000 C   0  0  0  0  0  0  0  0  0  0  0  0
    6.4108    1.6797    0.0000 C   0  0  0  0  0  0  0  0  0  0  0  0
    6.1755    3.1611    0.0000 C   0  0  0  0  0  0  0  0  0  0  0  0
    7.3408    4.1056    0.0000 O   0  0  0  0  0  0  0  0  0  0  0  0
    4.7749    3.6981    0.0000 C   0  0  0  0  0  0  0  0  0  0  0  0
    3.6096    2.7536    0.0000 C   0  0  0  0  0  0  0  0  0  0  0  0
    3.8449    1.2722    0.0000 C   0  0  0  0  0  0  0  0  0  0  0  0
    2.4443    1.8091    0.0000 C   0  0  0  0  0  0  0  0  0  0  0  0
    2.6795    0.3277    0.0000 C   0  0  0  0  0  0  0  0  0  0  0  0
    1.2789    0.8647    0.0000 C   0  0  0  0  0  0  0  0  0  0  0  0
    0.1136   -0.0798    0.0000 C   0  0  0  0  0  0  0  0  0  0  0  0
    0.3489   -1.5612    0.0000 C   0  0  0  0  0  0  0  0  0  0  0  0
   -1.1002   -1.1736    0.0000 C   0  0  0  0  0  0  0  0  0  0  0  0
  2  1  1  6
  2  3  1  0
  3  4  1  0
  4  5  1  0
  5  6  2  0
  5  7  1  0
  7  8  1  0
  8  9  1  0
  9 10  1  0
 10 11  1  0
  2 12  1  0
 12 13  1  6
 13 14  1  0
 15 14  1  6
 15 16  1  0
 16 17  1  1
 17 18  1  1
 17 19  1  0
 20 19  1  1
 20 21  1  0
 21 22  1  0
 22 23  1  1
 22 24  1  0
 24 25  1  0
 25 26  1  0
 26 27  1  6
 26 28  1  0
 28 29  1  6
 29 30  1  0
 30 31  1  0
 31 32  1  6
 31 12  1  0
 31 15  1  0
 28 16  1  0
 26 20  1  0
M  END
>  <MS_ID>  (1045) 
MS1088

>  <SMILES>  (1045) 
C[C@H](CCC(=O)NCCCN)[C@H]1CC[C@H]2[C@@H]3[C@H](O)C[C@@H]4C[C@H](O)CC[C@]4(C)[C@H]3CC[C@]12C

>  <Structure_dimension>  (1045) 
2D

$$$$
MS1089
     RDKit          2D

 29 32  0  0  0  0  0  0  0  0999 V2000
   -5.0303   -2.1373    0.0000 C   0  0  0  0  0  0  0  0  0  0  0  0
   -3.8594   -1.1998    0.0000 C   0  0  0  0  0  0  0  0  0  0  0  0
   -4.0858    0.2830    0.0000 C   0  0  0  0  0  0  0  0  0  0  0  0
   -5.4831    0.8284    0.0000 C   0  0  0  0  0  0  0  0  0  0  0  0
   -5.7095    2.3112    0.0000 C   0  0  0  0  0  0  0  0  0  0  0  0
   -4.5386    3.2487    0.0000 O   0  0  0  0  0  0  0  0  0  0  0  0
   -7.1069    2.8565    0.0000 O   0  0  0  0  0  0  0  0  0  0  0  0
   -2.4620   -1.7451    0.0000 C   0  0  0  0  0  0  0  0  0  0  0  0
   -2.0818   -3.1961    0.0000 C   0  0  0  0  0  0  0  0  0  0  0  0
   -0.5844   -3.2830    0.0000 C   0  0  0  0  0  0  0  0  0  0  0  0
   -0.0390   -1.8856    0.0000 C   0  0  0  0  0  0  0  0  0  0  0  0
    1.3643   -1.3559    0.0000 C   0  0  0  0  0  0  0  0  0  0  0  0
    2.5248   -2.3063    0.0000 C   0  0  0  0  0  0  0  0  0  0  0  0
    2.2819   -3.7865    0.0000 F   0  0  0  0  0  0  0  0  0  0  0  0
    3.9281   -1.7765    0.0000 C   0  0  0  0  0  0  0  0  0  0  0  0
    4.1710   -0.2963    0.0000 C   0  0  0  0  0  0  0  0  0  0  0  0
    5.5743    0.2334    0.0000 C   0  0  0  0  0  0  0  0  0  0  0  0
    5.8172    1.7136    0.0000 C   0  0  0  0  0  0  0  0  0  0  0  0
    7.2205    2.2434    0.0000 O   0  0  0  0  0  0  0  0  0  0  0  0
    4.6568    2.6641    0.0000 C   0  0  0  0  0  0  0  0  0  0  0  0
    3.2534    2.1343    0.0000 C   0  0  0  0  0  0  0  0  0  0  0  0
    3.0105    0.6541    0.0000 C   0  0  0  0  0  0  0  0  0  0  0  0
    1.8501    1.6046    0.0000 C   0  0  0  0  0  0  0  0  0  0  0  0
    1.6072    0.1244    0.0000 C   0  0  0  0  0  0  0  0  0  0  0  0
    0.4467    1.0748    0.0000 C   0  0  0  0  0  0  0  0  0  0  0  0
   -0.9566    0.5450    0.0000 C   0  0  0  0  0  0  0  0  0  0  0  0
   -2.1170    1.4955    0.0000 O   0  0  0  0  0  0  0  0  0  0  0  0
   -1.1995   -0.9352    0.0000 C   0  0  0  0  0  0  0  0  0  0  0  0
   -2.4529   -0.1112    0.0000 C   0  0  0  0  0  0  0  0  0  0  0  0
  2  1  1  6
  2  3  1  0
  3  4  1  0
  4  5  1  0
  5  6  2  0
  5  7  1  0
  2  8  1  0
  8  9  1  6
  9 10  1  0
 11 10  1  6
 11 12  1  0
 12 13  1  1
 13 14  1  1
 13 15  1  0
 16 15  1  1
 16 17  1  0
 17 18  1  0
 18 19  1  1
 18 20  1  0
 20 21  1  0
 21 22  1  0
 22 23  1  6
 22 24  1  0
 24 25  1  6
 25 26  1  0
 26 27  2  0
 26 28  1  0
 28 29  1  6
 28  8  1  0
 28 11  1  0
 24 12  1  0
 22 16  1  0
M  END
>  <MS_ID>  (1046) 
MS1089

>  <SMILES>  (1046) 
C[C@H](CCC(=O)O)[C@H]1CC[C@H]2[C@@H]3[C@H](F)C[C@@H]4C[C@H](O)CC[C@]4(C)[C@H]3CC(=O)[C@]12C

>  <Structure_dimension>  (1046) 
2D

$$$$
MS1090
     RDKit          2D

 32 35  0  0  0  0  0  0  0  0999 V2000
   -3.4885   -3.5079    0.0000 C   0  0  0  0  0  0  0  0  0  0  0  0
   -2.5691   -2.3226    0.0000 C   0  0  0  0  0  0  0  0  0  0  0  0
   -3.1359   -0.9338    0.0000 C   0  0  0  0  0  0  0  0  0  0  0  0
   -4.6220   -0.7302    0.0000 C   0  0  0  0  0  0  0  0  0  0  0  0
   -5.1887    0.6586    0.0000 C   0  0  0  0  0  0  0  0  0  0  0  0
   -4.2694    1.8438    0.0000 O   0  0  0  0  0  0  0  0  0  0  0  0
   -6.6749    0.8621    0.0000 C   0  0  0  0  0  0  0  0  0  0  0  0
   -7.2416    2.2510    0.0000 C   0  0  0  0  0  0  0  0  0  0  0  0
   -8.7277    2.4545    0.0000 C   0  0  0  0  0  0  0  0  0  0  0  0
  -10.2139    2.6581    0.0000 N   0  0  0  0  0  0  0  0  0  0  0  0
   -1.0830   -2.5262    0.0000 C   0  0  0  0  0  0  0  0  0  0  0  0
   -0.3742   -3.8482    0.0000 C   0  0  0  0  0  0  0  0  0  0  0  0
    1.1021   -3.5825    0.0000 C   0  0  0  0  0  0  0  0  0  0  0  0
    1.3057   -2.0964    0.0000 C   0  0  0  0  0  0  0  0  0  0  0  0
    2.5463   -1.2533    0.0000 C   0  0  0  0  0  0  0  0  0  0  0  0
    3.8968   -1.9061    0.0000 C   0  0  0  0  0  0  0  0  0  0  0  0
    4.0067   -3.4021    0.0000 O   0  0  0  0  0  0  0  0  0  0  0  0
    5.1374   -1.0630    0.0000 C   0  0  0  0  0  0  0  0  0  0  0  0
    5.0276    0.4330    0.0000 C   0  0  0  0  0  0  0  0  0  0  0  0
    6.2682    1.2761    0.0000 C   0  0  0  0  0  0  0  0  0  0  0  0
    6.1583    2.7720    0.0000 C   0  0  0  0  0  0  0  0  0  0  0  0
    7.3990    3.6152    0.0000 O   0  0  0  0  0  0  0  0  0  0  0  0
    4.8079    3.4249    0.0000 C   0  0  0  0  0  0  0  0  0  0  0  0
    3.5672    2.5818    0.0000 C   0  0  0  0  0  0  0  0  0  0  0  0
    3.6771    1.0858    0.0000 C   0  0  0  0  0  0  0  0  0  0  0  0
    2.3266    1.7387    0.0000 C   0  0  0  0  0  0  0  0  0  0  0  0
    2.4365    0.2427    0.0000 C   0  0  0  0  0  0  0  0  0  0  0  0
    1.0860    0.8955    0.0000 C   0  0  0  0  0  0  0  0  0  0  0  0
   -0.1546    0.0524    0.0000 C   0  0  0  0  0  0  0  0  0  0  0  0
   -1.5051    0.7053    0.0000 O   0  0  0  0  0  0  0  0  0  0  0  0
   -0.0448   -1.4436    0.0000 C   0  0  0  0  0  0  0  0  0  0  0  0
   -1.4561   -0.9355    0.0000 C   0  0  0  0  0  0  0  0  0  0  0  0
  2  1  1  6
  2  3  1  0
  3  4  1  0
  4  5  1  0
  5  6  2  0
  5  7  1  0
  7  8  1  0
  8  9  1  0
  9 10  3  0
  2 11  1  0
 11 12  1  6
 12 13  1  0
 14 13  1  6
 14 15  1  0
 15 16  1  1
 16 17  1  1
 16 18  1  0
 19 18  1  1
 19 20  1  0
 20 21  1  0
 21 22  1  1
 21 23  1  0
 23 24  1  0
 24 25  1  0
 25 26  1  6
 25 27  1  0
 27 28  1  6
 28 29  1  0
 29 30  1  1
 29 31  1  0
 31 32  1  6
 31 11  1  0
 31 14  1  0
 27 15  1  0
 25 19  1  0
M  END
>  <MS_ID>  (1047) 
MS1090

>  <SMILES>  (1047) 
C[C@H](CCC(=O)CCC#N)[C@H]1CC[C@H]2[C@@H]3[C@H](O)C[C@@H]4C[C@H](O)CC[C@]4(C)[C@H]3C[C@H](O)[C@]12C

>  <Structure_dimension>  (1047) 
2D

$$$$
MS1091
     RDKit          2D

 31 34  0  0  0  0  0  0  0  0999 V2000
   -7.4149    3.3714    0.0000 C   0  0  0  0  0  0  0  0  0  0  0  0
   -7.0398    1.9191    0.0000 O   0  0  0  0  0  0  0  0  0  0  0  0
   -5.5945    1.5177    0.0000 C   0  0  0  0  0  0  0  0  0  0  0  0
   -4.5243    2.5687    0.0000 O   0  0  0  0  0  0  0  0  0  0  0  0
   -5.2194    0.0654    0.0000 C   0  0  0  0  0  0  0  0  0  0  0  0
   -3.7741   -0.3360    0.0000 C   0  0  0  0  0  0  0  0  0  0  0  0
   -3.3991   -1.7883    0.0000 C   0  0  0  0  0  0  0  0  0  0  0  0
   -4.4693   -2.8393    0.0000 C   0  0  0  0  0  0  0  0  0  0  0  0
   -1.9537   -2.1897    0.0000 C   0  0  0  0  0  0  0  0  0  0  0  0
   -1.4289   -3.5949    0.0000 C   0  0  0  0  0  0  0  0  0  0  0  0
    0.0697   -3.5300    0.0000 C   0  0  0  0  0  0  0  0  0  0  0  0
    0.4710   -2.0847    0.0000 C   0  0  0  0  0  0  0  0  0  0  0  0
    1.8137   -1.4158    0.0000 C   0  0  0  0  0  0  0  0  0  0  0  0
    3.0642   -2.2442    0.0000 C   0  0  0  0  0  0  0  0  0  0  0  0
    2.9721   -3.7413    0.0000 O   0  0  0  0  0  0  0  0  0  0  0  0
    4.4068   -1.5753    0.0000 C   0  0  0  0  0  0  0  0  0  0  0  0
    4.4989   -0.0781    0.0000 C   0  0  0  0  0  0  0  0  0  0  0  0
    5.8416    0.5907    0.0000 C   0  0  0  0  0  0  0  0  0  0  0  0
    5.9336    2.0879    0.0000 C   0  0  0  0  0  0  0  0  0  0  0  0
    7.2763    2.7567    0.0000 O   0  0  0  0  0  0  0  0  0  0  0  0
    4.6831    2.9162    0.0000 C   0  0  0  0  0  0  0  0  0  0  0  0
    3.3405    2.2474    0.0000 C   0  0  0  0  0  0  0  0  0  0  0  0
    3.2484    0.7502    0.0000 C   0  0  0  0  0  0  0  0  0  0  0  0
    1.9978    1.5785    0.0000 C   0  0  0  0  0  0  0  0  0  0  0  0
    1.9057    0.0814    0.0000 C   0  0  0  0  0  0  0  0  0  0  0  0
    0.6552    0.9097    0.0000 C   0  0  0  0  0  0  0  0  0  0  0  0
   -0.6874    0.2408    0.0000 C   0  0  0  0  0  0  0  0  0  0  0  0
   -1.9380    1.0692    0.0000 O   0  0  0  0  0  0  0  0  0  0  0  0
   -1.8459    2.5664    0.0000 O   0  0  0  0  0  0  0  0  0  0  0  0
   -0.7795   -1.2563    0.0000 C   0  0  0  0  0  0  0  0  0  0  0  0
   -2.1098   -0.5632    0.0000 C   0  0  0  0  0  0  0  0  0  0  0  0
  1  2  1  0
  2  3  1  0
  3  4  2  0
  3  5  1  0
  5  6  1  0
  6  7  1  0
  7  8  1  6
  7  9  1  0
  9 10  1  6
 10 11  1  0
 12 11  1  6
 12 13  1  0
 13 14  1  1
 14 15  1  1
 14 16  1  0
 17 16  1  1
 17 18  1  0
 18 19  1  0
 19 20  1  1
 19 21  1  0
 21 22  1  0
 22 23  1  0
 23 24  1  6
 23 25  1  0
 25 26  1  6
 26 27  1  0
 27 28  1  1
 28 29  1  0
 27 30  1  0
 30 31  1  6
 30  9  1  0
 30 12  1  0
 25 13  1  0
 23 17  1  0
M  END
>  <MS_ID>  (1048) 
MS1091

>  <SMILES>  (1048) 
COC(=O)CC[C@@H](C)[C@H]1CC[C@H]2[C@@H]3[C@H](O)C[C@@H]4C[C@H](O)CC[C@]4(C)[C@H]3C[C@H](OO)[C@]12C

>  <Structure_dimension>  (1048) 
2D

$$$$
MS1092
     RDKit          2D

 30 33  0  0  0  0  0  0  0  0999 V2000
   -7.4279    3.5601    0.0000 C   0  0  0  0  0  0  0  0  0  0  0  0
   -7.0729    2.1027    0.0000 C   0  0  0  0  0  0  0  0  0  0  0  0
   -5.6333    1.6814    0.0000 C   0  0  0  0  0  0  0  0  0  0  0  0
   -4.5486    2.7174    0.0000 O   0  0  0  0  0  0  0  0  0  0  0  0
   -5.2784    0.2240    0.0000 C   0  0  0  0  0  0  0  0  0  0  0  0
   -3.8388   -0.1974    0.0000 C   0  0  0  0  0  0  0  0  0  0  0  0
   -3.4838   -1.6548    0.0000 C   0  0  0  0  0  0  0  0  0  0  0  0
   -4.5685   -2.6908    0.0000 C   0  0  0  0  0  0  0  0  0  0  0  0
   -2.0442   -2.0761    0.0000 C   0  0  0  0  0  0  0  0  0  0  0  0
   -1.5389   -3.4884    0.0000 C   0  0  0  0  0  0  0  0  0  0  0  0
   -0.0395   -3.4442    0.0000 C   0  0  0  0  0  0  0  0  0  0  0  0
    0.3818   -2.0046    0.0000 C   0  0  0  0  0  0  0  0  0  0  0  0
    1.7336   -1.3544    0.0000 C   0  0  0  0  0  0  0  0  0  0  0  0
    2.9725   -2.1999    0.0000 C   0  0  0  0  0  0  0  0  0  0  0  0
    2.8597   -3.6957    0.0000 O   0  0  0  0  0  0  0  0  0  0  0  0
    4.3243   -1.5497    0.0000 C   0  0  0  0  0  0  0  0  0  0  0  0
    4.4371   -0.0540    0.0000 C   0  0  0  0  0  0  0  0  0  0  0  0
    5.7888    0.5962    0.0000 C   0  0  0  0  0  0  0  0  0  0  0  0
    5.9016    2.0920    0.0000 C   0  0  0  0  0  0  0  0  0  0  0  0
    7.2534    2.7422    0.0000 O   0  0  0  0  0  0  0  0  0  0  0  0
    4.6627    2.9375    0.0000 C   0  0  0  0  0  0  0  0  0  0  0  0
    3.3109    2.2873    0.0000 C   0  0  0  0  0  0  0  0  0  0  0  0
    3.1981    0.7916    0.0000 C   0  0  0  0  0  0  0  0  0  0  0  0
    1.9591    1.6371    0.0000 C   0  0  0  0  0  0  0  0  0  0  0  0
    1.8464    0.1414    0.0000 C   0  0  0  0  0  0  0  0  0  0  0  0
    0.6074    0.9869    0.0000 C   0  0  0  0  0  0  0  0  0  0  0  0
   -0.7444    0.3367    0.0000 C   0  0  0  0  0  0  0  0  0  0  0  0
   -1.9833    1.1823    0.0000 O   0  0  0  0  0  0  0  0  0  0  0  0
   -0.8572   -1.1590    0.0000 C   0  0  0  0  0  0  0  0  0  0  0  0
   -2.1777   -0.4476    0.0000 C   0  0  0  0  0  0  0  0  0  0  0  0
  1  2  2  0
  2  3  1  0
  3  4  2  0
  3  5  1  0
  5  6  1  0
  6  7  1  0
  7  8  1  6
  7  9  1  0
  9 10  1  6
 10 11  1  0
 12 11  1  6
 12 13  1  0
 13 14  1  1
 14 15  1  1
 14 16  1  0
 17 16  1  1
 17 18  1  0
 18 19  1  0
 19 20  1  1
 19 21  1  0
 21 22  1  0
 22 23  1  0
 23 24  1  6
 23 25  1  0
 25 26  1  6
 26 27  1  0
 27 28  1  1
 27 29  1  0
 29 30  1  6
 29  9  1  0
 29 12  1  0
 25 13  1  0
 23 17  1  0
M  END
>  <MS_ID>  (1049) 
MS1092

>  <SMILES>  (1049) 
C=CC(=O)CC[C@@H](C)[C@H]1CC[C@H]2[C@@H]3[C@H](O)C[C@@H]4C[C@H](O)CC[C@]4(C)[C@H]3C[C@H](O)[C@]12C

>  <Structure_dimension>  (1049) 
2D

$$$$
MS1093
     RDKit          2D

 29 32  0  0  0  0  0  0  0  0999 V2000
   -4.6551   -2.6180    0.0000 C   0  0  0  0  0  0  0  0  0  0  0  0
   -3.5633   -1.5894    0.0000 C   0  0  0  0  0  0  0  0  0  0  0  0
   -3.9081   -0.1296    0.0000 C   0  0  0  0  0  0  0  0  0  0  0  0
   -5.3448    0.3016    0.0000 C   0  0  0  0  0  0  0  0  0  0  0  0
   -5.6897    1.7615    0.0000 C   0  0  0  0  0  0  0  0  0  0  0  0
   -4.5979    2.7900    0.0000 O   0  0  0  0  0  0  0  0  0  0  0  0
   -7.1264    2.1927    0.0000 C   0  0  0  0  0  0  0  0  0  0  0  0
   -7.4712    3.6525    0.0000 S   0  0  0  0  0  0  0  0  0  0  0  0
   -2.1266   -2.0207    0.0000 C   0  0  0  0  0  0  0  0  0  0  0  0
   -1.6310   -3.4364    0.0000 C   0  0  0  0  0  0  0  0  0  0  0  0
   -0.1314   -3.4026    0.0000 C   0  0  0  0  0  0  0  0  0  0  0  0
    0.2998   -1.9659    0.0000 C   0  0  0  0  0  0  0  0  0  0  0  0
    1.6561   -1.3251    0.0000 C   0  0  0  0  0  0  0  0  0  0  0  0
    2.8892   -2.1792    0.0000 C   0  0  0  0  0  0  0  0  0  0  0  0
    2.7660   -3.6741    0.0000 O   0  0  0  0  0  0  0  0  0  0  0  0
    4.2454   -1.5383    0.0000 C   0  0  0  0  0  0  0  0  0  0  0  0
    4.3685   -0.0434    0.0000 C   0  0  0  0  0  0  0  0  0  0  0  0
    5.7247    0.5975    0.0000 C   0  0  0  0  0  0  0  0  0  0  0  0
    5.8478    2.0924    0.0000 C   0  0  0  0  0  0  0  0  0  0  0  0
    7.2040    2.7332    0.0000 O   0  0  0  0  0  0  0  0  0  0  0  0
    4.6147    2.9465    0.0000 C   0  0  0  0  0  0  0  0  0  0  0  0
    3.2585    2.3056    0.0000 C   0  0  0  0  0  0  0  0  0  0  0  0
    3.1354    0.8107    0.0000 C   0  0  0  0  0  0  0  0  0  0  0  0
    1.9023    1.6648    0.0000 C   0  0  0  0  0  0  0  0  0  0  0  0
    1.7792    0.1699    0.0000 C   0  0  0  0  0  0  0  0  0  0  0  0
    0.5461    1.0239    0.0000 C   0  0  0  0  0  0  0  0  0  0  0  0
   -0.8101    0.3831    0.0000 C   0  0  0  0  0  0  0  0  0  0  0  0
   -0.9333   -1.1118    0.0000 C   0  0  0  0  0  0  0  0  0  0  0  0
   -2.2489   -0.3913    0.0000 C   0  0  0  0  0  0  0  0  0  0  0  0
  2  1  1  6
  2  3  1  0
  3  4  1  0
  4  5  1  0
  5  6  2  0
  5  7  1  0
  7  8  1  0
  2  9  1  0
  9 10  1  6
 10 11  1  0
 12 11  1  6
 12 13  1  0
 13 14  1  1
 14 15  1  1
 14 16  1  0
 17 16  1  1
 17 18  1  0
 18 19  1  0
 19 20  1  1
 19 21  1  0
 21 22  1  0
 22 23  1  0
 23 24  1  6
 23 25  1  0
 25 26  1  6
 26 27  1  0
 27 28  1  0
 28 29  1  6
 28  9  1  0
 28 12  1  0
 25 13  1  0
 23 17  1  0
M  END
>  <MS_ID>  (1050) 
MS1093

>  <SMILES>  (1050) 
C[C@H](CCC(=O)CS)[C@H]1CC[C@H]2[C@@H]3[C@H](O)C[C@@H]4C[C@H](O)CC[C@]4(C)[C@H]3CC[C@]12C

>  <Structure_dimension>  (1050) 
2D

$$$$
MS1094
     RDKit          2D

 30 33  0  0  0  0  0  0  0  0999 V2000
   -5.0361   -2.2421    0.0000 C   0  0  0  0  0  0  0  0  0  0  0  0
   -3.9151   -1.2454    0.0000 C   0  0  0  0  0  0  0  0  0  0  0  0
   -4.2177    0.2237    0.0000 C   0  0  0  0  0  0  0  0  0  0  0  0
   -5.6413    0.6963    0.0000 C   0  0  0  0  0  0  0  0  0  0  0  0
   -5.9439    2.1654    0.0000 C   0  0  0  0  0  0  0  0  0  0  0  0
   -4.8228    3.1621    0.0000 O   0  0  0  0  0  0  0  0  0  0  0  0
   -7.3675    2.6380    0.0000 O   0  0  0  0  0  0  0  0  0  0  0  0
   -2.4915   -1.7180    0.0000 C   0  0  0  0  0  0  0  0  0  0  0  0
   -2.0370   -3.1475    0.0000 C   0  0  0  0  0  0  0  0  0  0  0  0
   -0.5370   -3.1570    0.0000 C   0  0  0  0  0  0  0  0  0  0  0  0
   -0.0645   -1.7333    0.0000 C   0  0  0  0  0  0  0  0  0  0  0  0
    1.3097   -1.1319    0.0000 C   0  0  0  0  0  0  0  0  0  0  0  0
    2.5176   -2.0213    0.0000 C   0  0  0  0  0  0  0  0  0  0  0  0
    2.3514   -3.5120    0.0000 N   0  0  0  0  0  0  0  0  0  0  0  0
    3.5593   -4.4014    0.0000 O   0  0  0  0  0  0  0  0  0  0  0  0
    3.8918   -1.4198    0.0000 C   0  0  0  0  0  0  0  0  0  0  0  0
    4.0580    0.0709    0.0000 C   0  0  0  0  0  0  0  0  0  0  0  0
    5.4321    0.6723    0.0000 C   0  0  0  0  0  0  0  0  0  0  0  0
    5.5984    2.1631    0.0000 C   0  0  0  0  0  0  0  0  0  0  0  0
    6.9725    2.7645    0.0000 O   0  0  0  0  0  0  0  0  0  0  0  0
    4.3904    3.0524    0.0000 C   0  0  0  0  0  0  0  0  0  0  0  0
    3.0163    2.4510    0.0000 C   0  0  0  0  0  0  0  0  0  0  0  0
    2.8501    0.9603    0.0000 C   0  0  0  0  0  0  0  0  0  0  0  0
    1.6421    1.8496    0.0000 C   0  0  0  0  0  0  0  0  0  0  0  0
    1.4759    0.3588    0.0000 C   0  0  0  0  0  0  0  0  0  0  0  0
    0.2680    1.2482    0.0000 C   0  0  0  0  0  0  0  0  0  0  0  0
   -1.1062    0.6468    0.0000 C   0  0  0  0  0  0  0  0  0  0  0  0
   -2.3141    1.5361    0.0000 O   0  0  0  0  0  0  0  0  0  0  0  0
   -1.2724   -0.8440    0.0000 C   0  0  0  0  0  0  0  0  0  0  0  0
   -2.5667   -0.0858    0.0000 C   0  0  0  0  0  0  0  0  0  0  0  0
  2  1  1  6
  2  3  1  0
  3  4  1  0
  4  5  1  0
  5  6  2  0
  5  7  1  0
  2  8  1  0
  8  9  1  6
  9 10  1  0
 11 10  1  6
 11 12  1  0
 12 13  1  1
 13 14  1  1
 14 15  1  0
 13 16  1  0
 17 16  1  1
 17 18  1  0
 18 19  1  0
 19 20  1  1
 19 21  1  0
 21 22  1  0
 22 23  1  0
 23 24  1  6
 23 25  1  0
 25 26  1  6
 26 27  1  0
 27 28  1  1
 27 29  1  0
 29 30  1  6
 29  8  1  0
 29 11  1  0
 25 12  1  0
 23 17  1  0
M  END
>  <MS_ID>  (1051) 
MS1094

>  <SMILES>  (1051) 
C[C@H](CCC(=O)O)[C@H]1CC[C@H]2[C@@H]3[C@H](NO)C[C@@H]4C[C@H](O)CC[C@]4(C)[C@H]3C[C@H](O)[C@]12C

>  <Structure_dimension>  (1051) 
2D

$$$$
MS1095
     RDKit          2D

 29 32  0  0  0  0  0  0  0  0999 V2000
   -4.2923   -2.7601    0.0000 C   0  0  0  0  0  0  0  0  0  0  0  0
   -3.1946   -1.7378    0.0000 C   0  0  0  0  0  0  0  0  0  0  0  0
   -3.5310   -0.2760    0.0000 C   0  0  0  0  0  0  0  0  0  0  0  0
   -4.9652    0.1635    0.0000 C   0  0  0  0  0  0  0  0  0  0  0  0
   -5.3016    1.6253    0.0000 C   0  0  0  0  0  0  0  0  0  0  0  0
   -4.2039    2.6475    0.0000 O   0  0  0  0  0  0  0  0  0  0  0  0
   -6.7358    2.0648    0.0000 C   0  0  0  0  0  0  0  0  0  0  0  0
   -7.8335    1.0426    0.0000 O   0  0  0  0  0  0  0  0  0  0  0  0
   -7.0722    3.5266    0.0000 O   0  0  0  0  0  0  0  0  0  0  0  0
   -1.7604   -2.1774    0.0000 C   0  0  0  0  0  0  0  0  0  0  0  0
   -1.2731   -3.5960    0.0000 C   0  0  0  0  0  0  0  0  0  0  0  0
    0.2267   -3.5708    0.0000 C   0  0  0  0  0  0  0  0  0  0  0  0
    0.6663   -2.1367    0.0000 C   0  0  0  0  0  0  0  0  0  0  0  0
    2.0262   -1.5037    0.0000 C   0  0  0  0  0  0  0  0  0  0  0  0
    3.2543   -2.3649    0.0000 C   0  0  0  0  0  0  0  0  0  0  0  0
    4.6142   -1.7319    0.0000 C   0  0  0  0  0  0  0  0  0  0  0  0
    4.7460   -0.2377    0.0000 C   0  0  0  0  0  0  0  0  0  0  0  0
    6.1059    0.3953    0.0000 C   0  0  0  0  0  0  0  0  0  0  0  0
    6.2376    1.8895    0.0000 C   0  0  0  0  0  0  0  0  0  0  0  0
    7.5975    2.5225    0.0000 O   0  0  0  0  0  0  0  0  0  0  0  0
    5.0095    2.7507    0.0000 C   0  0  0  0  0  0  0  0  0  0  0  0
    3.6496    2.1177    0.0000 C   0  0  0  0  0  0  0  0  0  0  0  0
    3.5178    0.6235    0.0000 C   0  0  0  0  0  0  0  0  0  0  0  0
    2.2897    1.4847    0.0000 C   0  0  0  0  0  0  0  0  0  0  0  0
    2.1579   -0.0095    0.0000 C   0  0  0  0  0  0  0  0  0  0  0  0
    0.9298    0.8517    0.0000 C   0  0  0  0  0  0  0  0  0  0  0  0
   -0.4301    0.2187    0.0000 C   0  0  0  0  0  0  0  0  0  0  0  0
   -0.5619   -1.2755    0.0000 C   0  0  0  0  0  0  0  0  0  0  0  0
   -1.8733   -0.5473    0.0000 C   0  0  0  0  0  0  0  0  0  0  0  0
  2  1  1  6
  2  3  1  0
  3  4  1  0
  4  5  1  0
  5  6  2  0
  5  7  1  0
  7  8  2  0
  7  9  1  0
  2 10  1  0
 10 11  1  6
 11 12  1  0
 13 12  1  6
 13 14  1  0
 14 15  1  1
 15 16  1  0
 17 16  1  1
 17 18  1  0
 18 19  1  0
 19 20  1  1
 19 21  1  0
 21 22  1  0
 22 23  1  0
 23 24  1  6
 23 25  1  0
 25 26  1  6
 26 27  1  0
 27 28  1  0
 28 29  1  6
 28 10  1  0
 28 13  1  0
 25 14  1  0
 23 17  1  0
M  END
>  <MS_ID>  (1052) 
MS1095

>  <SMILES>  (1052) 
C[C@H](CCC(=O)C(=O)O)[C@H]1CC[C@H]2[C@@H]3CC[C@@H]4C[C@H](O)CC[C@]4(C)[C@H]3CC[C@]12C

>  <Structure_dimension>  (1052) 
2D

$$$$
MS1096
     RDKit          2D

 35 39  0  0  0  0  0  0  0  0999 V2000
   -2.4249   -4.3282    0.0000 C   0  0  0  0  0  0  0  0  0  0  0  0
   -1.7208   -3.0038    0.0000 C   0  0  0  0  0  0  0  0  0  0  0  0
   -2.5157   -1.7317    0.0000 C   0  0  0  0  0  0  0  0  0  0  0  0
   -4.0147   -1.7841    0.0000 C   0  0  0  0  0  0  0  0  0  0  0  0
   -4.8097   -0.5121    0.0000 C   0  0  0  0  0  0  0  0  0  0  0  0
   -4.1055    0.8124    0.0000 O   0  0  0  0  0  0  0  0  0  0  0  0
   -6.3087   -0.5645    0.0000 N   0  0  0  0  0  0  0  0  0  0  0  0
   -7.1037    0.7076    0.0000 C   0  0  0  0  0  0  0  0  0  0  0  0
   -6.3995    2.0320    0.0000 C   0  0  0  0  0  0  0  0  0  0  0  0
   -7.1944    3.3041    0.0000 C   0  0  0  0  0  0  0  0  0  0  0  0
   -8.6935    3.2517    0.0000 C   0  0  0  0  0  0  0  0  0  0  0  0
   -9.3977    1.9272    0.0000 C   0  0  0  0  0  0  0  0  0  0  0  0
   -8.6027    0.6552    0.0000 N   0  0  0  0  0  0  0  0  0  0  0  0
   -0.2217   -2.9514    0.0000 C   0  0  0  0  0  0  0  0  0  0  0  0
    0.7019   -4.1334    0.0000 C   0  0  0  0  0  0  0  0  0  0  0  0
    2.1114   -3.6203    0.0000 C   0  0  0  0  0  0  0  0  0  0  0  0
    2.0590   -2.1213    0.0000 C   0  0  0  0  0  0  0  0  0  0  0  0
    3.1380   -1.0792    0.0000 C   0  0  0  0  0  0  0  0  0  0  0  0
    4.5799   -1.4927    0.0000 C   0  0  0  0  0  0  0  0  0  0  0  0
    4.9428   -2.9481    0.0000 O   0  0  0  0  0  0  0  0  0  0  0  0
    5.6589   -0.4506    0.0000 C   0  0  0  0  0  0  0  0  0  0  0  0
    7.1008   -0.8641    0.0000 O   0  0  0  0  0  0  0  0  0  0  0  0
    5.2959    1.0048    0.0000 C   0  0  0  0  0  0  0  0  0  0  0  0
    6.3749    2.0468    0.0000 C   0  0  0  0  0  0  0  0  0  0  0  0
    6.0120    3.5022    0.0000 C   0  0  0  0  0  0  0  0  0  0  0  0
    7.0910    4.5443    0.0000 O   0  0  0  0  0  0  0  0  0  0  0  0
    4.5701    3.9157    0.0000 C   0  0  0  0  0  0  0  0  0  0  0  0
    3.4911    2.8736    0.0000 C   0  0  0  0  0  0  0  0  0  0  0  0
    3.8540    1.4182    0.0000 C   0  0  0  0  0  0  0  0  0  0  0  0
    2.4121    1.8316    0.0000 C   0  0  0  0  0  0  0  0  0  0  0  0
    2.7751    0.3762    0.0000 C   0  0  0  0  0  0  0  0  0  0  0  0
    1.3332    0.7896    0.0000 C   0  0  0  0  0  0  0  0  0  0  0  0
    0.2542   -0.2524    0.0000 C   0  0  0  0  0  0  0  0  0  0  0  0
    0.6171   -1.7078    0.0000 C   0  0  0  0  0  0  0  0  0  0  0  0
   -0.8601   -1.4474    0.0000 C   0  0  0  0  0  0  0  0  0  0  0  0
  2  1  1  6
  2  3  1  0
  3  4  1  0
  4  5  1  0
  5  6  2  0
  5  7  1  0
  7  8  1  0
  8  9  2  0
  9 10  1  0
 10 11  2  0
 11 12  1  0
 12 13  2  0
  2 14  1  0
 14 15  1  6
 15 16  1  0
 17 16  1  6
 17 18  1  0
 18 19  1  1
 19 20  1  1
 19 21  1  0
 21 22  1  1
 21 23  1  0
 23 24  1  1
 24 25  1  0
 25 26  1  1
 25 27  1  0
 27 28  1  0
 28 29  1  0
 29 30  1  6
 29 31  1  0
 31 32  1  6
 32 33  1  0
 33 34  1  0
 34 35  1  6
 13  8  1  0
 34 14  1  0
 34 17  1  0
 31 18  1  0
 29 23  1  0
M  END
>  <MS_ID>  (1053) 
MS1096

>  <SMILES>  (1053) 
C[C@H](CCC(=O)Nc1ccccn1)[C@H]1CC[C@H]2[C@@H]3[C@H](O)[C@H](O)[C@@H]4C[C@H](O)CC[C@]4(C)[C@H]3CC[C@]12C

>  <Structure_dimension>  (1053) 
2D

$$$$
MS1097
     RDKit          2D

 29 32  0  0  0  0  0  0  0  0999 V2000
   -4.5534   -2.6812    0.0000 C   0  0  0  0  0  0  0  0  0  0  0  0
   -3.4378   -1.6786    0.0000 C   0  0  0  0  0  0  0  0  0  0  0  0
   -3.7483   -0.2111    0.0000 C   0  0  0  0  0  0  0  0  0  0  0  0
   -5.1744    0.2538    0.0000 C   0  0  0  0  0  0  0  0  0  0  0  0
   -5.4850    1.7213    0.0000 C   0  0  0  0  0  0  0  0  0  0  0  0
   -4.3693    2.7239    0.0000 O   0  0  0  0  0  0  0  0  0  0  0  0
   -6.9111    2.1861    0.0000 N   0  0  0  0  0  0  0  0  0  0  0  0
   -7.2216    3.6536    0.0000 O   0  0  0  0  0  0  0  0  0  0  0  0
   -2.0116   -2.1434    0.0000 C   0  0  0  0  0  0  0  0  0  0  0  0
   -1.5494   -3.5704    0.0000 C   0  0  0  0  0  0  0  0  0  0  0  0
   -0.0494   -3.5718    0.0000 C   0  0  0  0  0  0  0  0  0  0  0  0
    0.4155   -2.1456    0.0000 C   0  0  0  0  0  0  0  0  0  0  0  0
    1.7863   -1.5368    0.0000 C   0  0  0  0  0  0  0  0  0  0  0  0
    2.9990   -2.4196    0.0000 C   0  0  0  0  0  0  0  0  0  0  0  0
    4.3699   -1.8107    0.0000 C   0  0  0  0  0  0  0  0  0  0  0  0
    4.5281   -0.3191    0.0000 C   0  0  0  0  0  0  0  0  0  0  0  0
    5.8990    0.2898    0.0000 C   0  0  0  0  0  0  0  0  0  0  0  0
    6.0571    1.7814    0.0000 C   0  0  0  0  0  0  0  0  0  0  0  0
    7.4280    2.3902    0.0000 O   0  0  0  0  0  0  0  0  0  0  0  0
    4.8444    2.6642    0.0000 C   0  0  0  0  0  0  0  0  0  0  0  0
    3.4735    2.0553    0.0000 C   0  0  0  0  0  0  0  0  0  0  0  0
    3.3154    0.5637    0.0000 C   0  0  0  0  0  0  0  0  0  0  0  0
    2.1026    1.4465    0.0000 C   0  0  0  0  0  0  0  0  0  0  0  0
    1.9445   -0.0451    0.0000 C   0  0  0  0  0  0  0  0  0  0  0  0
    0.7318    0.8376    0.0000 C   0  0  0  0  0  0  0  0  0  0  0  0
   -0.6391    0.2288    0.0000 C   0  0  0  0  0  0  0  0  0  0  0  0
   -1.8518    1.1116    0.0000 O   0  0  0  0  0  0  0  0  0  0  0  0
   -0.7973   -1.2628    0.0000 C   0  0  0  0  0  0  0  0  0  0  0  0
   -2.0956   -0.5116    0.0000 C   0  0  0  0  0  0  0  0  0  0  0  0
  2  1  1  6
  2  3  1  0
  3  4  1  0
  4  5  1  0
  5  6  2  0
  5  7  1  0
  7  8  1  0
  2  9  1  0
  9 10  1  6
 10 11  1  0
 12 11  1  6
 12 13  1  0
 13 14  1  1
 14 15  1  0
 16 15  1  1
 16 17  1  0
 17 18  1  0
 18 19  2  0
 18 20  1  0
 20 21  1  0
 21 22  1  0
 22 23  1  6
 22 24  1  0
 24 25  1  6
 25 26  1  0
 26 27  1  1
 26 28  1  0
 28 29  1  6
 28  9  1  0
 28 12  1  0
 24 13  1  0
 22 16  1  0
M  END
>  <MS_ID>  (1054) 
MS1097

>  <SMILES>  (1054) 
C[C@H](CCC(=O)NO)[C@H]1CC[C@H]2[C@@H]3CC[C@@H]4CC(=O)CC[C@]4(C)[C@H]3C[C@H](O)[C@]12C

>  <Structure_dimension>  (1054) 
2D

$$$$
MS1098
     RDKit          2D

 33 37  0  0  0  0  0  0  0  0999 V2000
   -2.6982   -4.1233    0.0000 C   0  0  0  0  0  0  0  0  0  0  0  0
   -1.9222   -2.8397    0.0000 C   0  0  0  0  0  0  0  0  0  0  0  0
   -2.6459   -1.5258    0.0000 C   0  0  0  0  0  0  0  0  0  0  0  0
   -4.1456   -1.4956    0.0000 C   0  0  0  0  0  0  0  0  0  0  0  0
   -4.8692   -0.1817    0.0000 C   0  0  0  0  0  0  0  0  0  0  0  0
   -4.0932    1.1020    0.0000 O   0  0  0  0  0  0  0  0  0  0  0  0
   -6.3689   -0.1514    0.0000 C   0  0  0  0  0  0  0  0  0  0  0  0
   -7.0926    1.1625    0.0000 N   0  0  0  0  0  0  0  0  0  0  0  0
   -8.5809    1.3493    0.0000 C   0  0  0  0  0  0  0  0  0  0  0  0
   -8.8631    2.8225    0.0000 N   0  0  0  0  0  0  0  0  0  0  0  0
   -7.5492    3.5462    0.0000 C   0  0  0  0  0  0  0  0  0  0  0  0
   -6.4550    2.5202    0.0000 N   0  0  0  0  0  0  0  0  0  0  0  0
   -0.4225   -2.8699    0.0000 C   0  0  0  0  0  0  0  0  0  0  0  0
    0.4345   -4.1010    0.0000 C   0  0  0  0  0  0  0  0  0  0  0  0
    1.8702   -3.6663    0.0000 C   0  0  0  0  0  0  0  0  0  0  0  0
    1.9004   -2.1666    0.0000 C   0  0  0  0  0  0  0  0  0  0  0  0
    3.0351   -1.1856    0.0000 C   0  0  0  0  0  0  0  0  0  0  0  0
    4.4521   -1.6778    0.0000 C   0  0  0  0  0  0  0  0  0  0  0  0
    4.7343   -3.1510    0.0000 O   0  0  0  0  0  0  0  0  0  0  0  0
    5.5868   -0.6967    0.0000 C   0  0  0  0  0  0  0  0  0  0  0  0
    5.3046    0.7765    0.0000 C   0  0  0  0  0  0  0  0  0  0  0  0
    6.4393    1.7575    0.0000 C   0  0  0  0  0  0  0  0  0  0  0  0
    6.1571    3.2307    0.0000 C   0  0  0  0  0  0  0  0  0  0  0  0
    7.2918    4.2117    0.0000 O   0  0  0  0  0  0  0  0  0  0  0  0
    4.7401    3.7229    0.0000 C   0  0  0  0  0  0  0  0  0  0  0  0
    3.6054    2.7419    0.0000 C   0  0  0  0  0  0  0  0  0  0  0  0
    3.8876    1.2687    0.0000 C   0  0  0  0  0  0  0  0  0  0  0  0
    2.4707    1.7609    0.0000 C   0  0  0  0  0  0  0  0  0  0  0  0
    2.7529    0.2876    0.0000 C   0  0  0  0  0  0  0  0  0  0  0  0
    1.3360    0.7798    0.0000 C   0  0  0  0  0  0  0  0  0  0  0  0
    0.2012   -0.2012    0.0000 C   0  0  0  0  0  0  0  0  0  0  0  0
    0.4835   -1.6744    0.0000 C   0  0  0  0  0  0  0  0  0  0  0  0
   -0.9772   -1.3330    0.0000 C   0  0  0  0  0  0  0  0  0  0  0  0
  2  1  1  6
  2  3  1  0
  3  4  1  0
  4  5  1  0
  5  6  2  0
  5  7  1  0
  7  8  1  0
  8  9  1  0
  9 10  2  0
 10 11  1  0
 11 12  2  0
  2 13  1  0
 13 14  1  6
 14 15  1  0
 16 15  1  6
 16 17  1  0
 17 18  1  1
 18 19  1  1
 18 20  1  0
 21 20  1  1
 21 22  1  0
 22 23  1  0
 23 24  1  1
 23 25  1  0
 25 26  1  0
 26 27  1  0
 27 28  1  6
 27 29  1  0
 29 30  1  6
 30 31  1  0
 31 32  1  0
 32 33  1  6
 12  8  1  0
 32 13  1  0
 32 16  1  0
 29 17  1  0
 27 21  1  0
M  END
>  <MS_ID>  (1055) 
MS1098

>  <SMILES>  (1055) 
C[C@H](CCC(=O)Cn1cncn1)[C@H]1CC[C@H]2[C@@H]3[C@H](O)C[C@@H]4C[C@H](O)CC[C@]4(C)[C@H]3CC[C@]12C

>  <Structure_dimension>  (1055) 
2D

$$$$
MS1099
     RDKit          2D

 29 32  0  0  0  0  0  0  0  0999 V2000
   -5.0303   -2.1373    0.0000 C   0  0  0  0  0  0  0  0  0  0  0  0
   -3.8594   -1.1998    0.0000 C   0  0  0  0  0  0  0  0  0  0  0  0
   -4.0858    0.2830    0.0000 C   0  0  0  0  0  0  0  0  0  0  0  0
   -5.4831    0.8284    0.0000 C   0  0  0  0  0  0  0  0  0  0  0  0
   -5.7095    2.3112    0.0000 C   0  0  0  0  0  0  0  0  0  0  0  0
   -4.5386    3.2487    0.0000 O   0  0  0  0  0  0  0  0  0  0  0  0
   -7.1069    2.8565    0.0000 O   0  0  0  0  0  0  0  0  0  0  0  0
   -2.4620   -1.7451    0.0000 C   0  0  0  0  0  0  0  0  0  0  0  0
   -2.0818   -3.1961    0.0000 C   0  0  0  0  0  0  0  0  0  0  0  0
   -0.5844   -3.2830    0.0000 C   0  0  0  0  0  0  0  0  0  0  0  0
   -0.0390   -1.8856    0.0000 C   0  0  0  0  0  0  0  0  0  0  0  0
    1.3643   -1.3559    0.0000 C   0  0  0  0  0  0  0  0  0  0  0  0
    2.5248   -2.3063    0.0000 C   0  0  0  0  0  0  0  0  0  0  0  0
    2.2819   -3.7865    0.0000 F   0  0  0  0  0  0  0  0  0  0  0  0
    3.9281   -1.7765    0.0000 C   0  0  0  0  0  0  0  0  0  0  0  0
    4.1710   -0.2963    0.0000 C   0  0  0  0  0  0  0  0  0  0  0  0
    5.5743    0.2334    0.0000 C   0  0  0  0  0  0  0  0  0  0  0  0
    5.8172    1.7136    0.0000 C   0  0  0  0  0  0  0  0  0  0  0  0
    7.2205    2.2434    0.0000 O   0  0  0  0  0  0  0  0  0  0  0  0
    4.6568    2.6641    0.0000 C   0  0  0  0  0  0  0  0  0  0  0  0
    3.2534    2.1343    0.0000 C   0  0  0  0  0  0  0  0  0  0  0  0
    3.0105    0.6541    0.0000 C   0  0  0  0  0  0  0  0  0  0  0  0
    1.8501    1.6046    0.0000 C   0  0  0  0  0  0  0  0  0  0  0  0
    1.6072    0.1244    0.0000 C   0  0  0  0  0  0  0  0  0  0  0  0
    0.4467    1.0748    0.0000 C   0  0  0  0  0  0  0  0  0  0  0  0
   -0.9566    0.5450    0.0000 C   0  0  0  0  0  0  0  0  0  0  0  0
   -2.1170    1.4955    0.0000 O   0  0  0  0  0  0  0  0  0  0  0  0
   -1.1995   -0.9352    0.0000 C   0  0  0  0  0  0  0  0  0  0  0  0
   -2.4529   -0.1112    0.0000 C   0  0  0  0  0  0  0  0  0  0  0  0
  2  1  1  6
  2  3  1  0
  3  4  1  0
  4  5  1  0
  5  6  2  0
  5  7  1  0
  2  8  1  0
  8  9  1  6
  9 10  1  0
 11 10  1  6
 11 12  1  0
 12 13  1  1
 13 14  1  1
 13 15  1  0
 16 15  1  1
 16 17  1  0
 17 18  1  0
 18 19  2  0
 18 20  1  0
 20 21  1  0
 21 22  1  0
 22 23  1  6
 22 24  1  0
 24 25  1  6
 25 26  1  0
 26 27  1  1
 26 28  1  0
 28 29  1  6
 28  8  1  0
 28 11  1  0
 24 12  1  0
 22 16  1  0
M  END
>  <MS_ID>  (1056) 
MS1099

>  <SMILES>  (1056) 
C[C@H](CCC(=O)O)[C@H]1CC[C@H]2[C@@H]3[C@H](F)C[C@@H]4CC(=O)CC[C@]4(C)[C@H]3C[C@H](O)[C@]12C

>  <Structure_dimension>  (1056) 
2D

$$$$
MS1100
     RDKit          2D

 37 40  0  0  0  0  0  0  0  0999 V2000
   -6.3219   -1.8873    0.0000 C   0  0  0  0  0  0  0  0  0  0  0  0
   -5.1771   -0.9182    0.0000 C   0  0  0  0  0  0  0  0  0  0  0  0
   -5.4440    0.5579    0.0000 C   0  0  0  0  0  0  0  0  0  0  0  0
   -6.8558    1.0648    0.0000 C   0  0  0  0  0  0  0  0  0  0  0  0
   -7.1227    2.5408    0.0000 C   0  0  0  0  0  0  0  0  0  0  0  0
   -5.9779    3.5100    0.0000 O   0  0  0  0  0  0  0  0  0  0  0  0
   -8.5345    3.0477    0.0000 O   0  0  0  0  0  0  0  0  0  0  0  0
   -3.7653   -1.4250    0.0000 C   0  0  0  0  0  0  0  0  0  0  0  0
   -3.3456   -2.8651    0.0000 C   0  0  0  0  0  0  0  0  0  0  0  0
   -1.8463   -2.9109    0.0000 C   0  0  0  0  0  0  0  0  0  0  0  0
   -1.3394   -1.4991    0.0000 C   0  0  0  0  0  0  0  0  0  0  0  0
    0.0489   -0.9312    0.0000 C   0  0  0  0  0  0  0  0  0  0  0  0
    1.2349   -1.8495    0.0000 C   0  0  0  0  0  0  0  0  0  0  0  0
    1.0327   -3.3358    0.0000 O   0  0  0  0  0  0  0  0  0  0  0  0
    2.2187   -4.2541    0.0000 S   0  0  0  0  0  0  0  0  0  0  0  0
    3.1370   -3.0681    0.0000 O   0  0  0  0  0  0  0  0  0  0  0  0
    1.3004   -5.4401    0.0000 O   0  0  0  0  0  0  0  0  0  0  0  0
    3.4047   -5.1724    0.0000 O   0  0  0  0  0  0  0  0  0  0  0  0
    2.6232   -1.2815    0.0000 C   0  0  0  0  0  0  0  0  0  0  0  0
    2.8255    0.2048    0.0000 C   0  0  0  0  0  0  0  0  0  0  0  0
    4.2138    0.7728    0.0000 C   0  0  0  0  0  0  0  0  0  0  0  0
    4.4161    2.2591    0.0000 C   0  0  0  0  0  0  0  0  0  0  0  0
    5.8044    2.8270    0.0000 O   0  0  0  0  0  0  0  0  0  0  0  0
    6.9904    1.9087    0.0000 S   0  0  0  0  0  0  0  0  0  0  0  0
    6.0721    0.7227    0.0000 O   0  0  0  0  0  0  0  0  0  0  0  0
    7.9088    3.0947    0.0000 O   0  0  0  0  0  0  0  0  0  0  0  0
    8.1765    0.9904    0.0000 O   0  0  0  0  0  0  0  0  0  0  0  0
    3.2301    3.1774    0.0000 C   0  0  0  0  0  0  0  0  0  0  0  0
    1.8418    2.6094    0.0000 C   0  0  0  0  0  0  0  0  0  0  0  0
    1.6395    1.1231    0.0000 C   0  0  0  0  0  0  0  0  0  0  0  0
    0.4534    2.0414    0.0000 C   0  0  0  0  0  0  0  0  0  0  0  0
    0.2512    0.5551    0.0000 C   0  0  0  0  0  0  0  0  0  0  0  0
   -0.9349    1.4735    0.0000 C   0  0  0  0  0  0  0  0  0  0  0  0
   -2.3232    0.9055    0.0000 C   0  0  0  0  0  0  0  0  0  0  0  0
   -3.5092    1.8238    0.0000 O   0  0  0  0  0  0  0  0  0  0  0  0
   -2.5254   -0.5808    0.0000 C   0  0  0  0  0  0  0  0  0  0  0  0
   -3.8010    0.2085    0.0000 C   0  0  0  0  0  0  0  0  0  0  0  0
  2  1  1  6
  2  3  1  0
  3  4  1  0
  4  5  1  0
  5  6  2  0
  5  7  1  0
  2  8  1  0
  8  9  1  6
  9 10  1  0
 11 10  1  6
 11 12  1  0
 12 13  1  1
 13 14  1  1
 14 15  1  0
 15 16  2  0
 15 17  2  0
 15 18  1  0
 13 19  1  0
 20 19  1  1
 20 21  1  0
 21 22  1  0
 22 23  1  1
 23 24  1  0
 24 25  2  0
 24 26  2  0
 24 27  1  0
 22 28  1  0
 28 29  1  0
 29 30  1  0
 30 31  1  6
 30 32  1  0
 32 33  1  6
 33 34  1  0
 34 35  1  1
 34 36  1  0
 36 37  1  6
 36  8  1  0
 36 11  1  0
 32 12  1  0
 30 20  1  0
M  END
>  <MS_ID>  (1057) 
MS1100

>  <SMILES>  (1057) 
C[C@H](CCC(=O)O)[C@H]1CC[C@H]2[C@@H]3[C@H](OS(=O)(=O)O)C[C@@H]4C[C@H](OS(=O)(=O)O)CC[C@]4(C)[C@H]3C[C@H](O)[C@]12C

>  <Structure_dimension>  (1057) 
2D

$$$$
MS1101
     RDKit          2D

 28 31  0  0  0  0  0  0  0  0999 V2000
   -4.2208   -2.8067    0.0000 C   0  0  0  0  0  0  0  0  0  0  0  0
   -3.1997   -1.7079    0.0000 C   0  0  0  0  0  0  0  0  0  0  0  0
   -3.6407   -0.2742    0.0000 C   0  0  0  0  0  0  0  0  0  0  0  0
   -5.1028    0.0607    0.0000 C   0  0  0  0  0  0  0  0  0  0  0  0
   -5.5438    1.4944    0.0000 C   0  0  0  0  0  0  0  0  0  0  0  0
   -4.5227    2.5932    0.0000 O   0  0  0  0  0  0  0  0  0  0  0  0
   -7.0059    1.8294    0.0000 N   0  0  0  0  0  0  0  0  0  0  0  0
   -7.4469    3.2631    0.0000 O   0  0  0  0  0  0  0  0  0  0  0  0
   -1.7376   -2.0429    0.0000 C   0  0  0  0  0  0  0  0  0  0  0  0
   -1.1491   -3.4226    0.0000 C   0  0  0  0  0  0  0  0  0  0  0  0
    0.3450   -3.2894    0.0000 C   0  0  0  0  0  0  0  0  0  0  0  0
    0.6799   -1.8272    0.0000 C   0  0  0  0  0  0  0  0  0  0  0  0
    1.9906   -1.0978    0.0000 C   0  0  0  0  0  0  0  0  0  0  0  0
    3.2777   -1.8682    0.0000 C   0  0  0  0  0  0  0  0  0  0  0  0
    3.2540   -3.3680    0.0000 O   0  0  0  0  0  0  0  0  0  0  0  0
    4.5883   -1.1387    0.0000 C   0  0  0  0  0  0  0  0  0  0  0  0
    4.6120    0.3611    0.0000 C   0  0  0  0  0  0  0  0  0  0  0  0
    5.9227    1.0905    0.0000 C   0  0  0  0  0  0  0  0  0  0  0  0
    5.9463    2.5904    0.0000 C   0  0  0  0  0  0  0  0  0  0  0  0
    4.6592    3.3607    0.0000 C   0  0  0  0  0  0  0  0  0  0  0  0
    3.3485    2.6313    0.0000 C   0  0  0  0  0  0  0  0  0  0  0  0
    3.3249    1.1315    0.0000 C   0  0  0  0  0  0  0  0  0  0  0  0
    2.0379    1.9018    0.0000 C   0  0  0  0  0  0  0  0  0  0  0  0
    2.0142    0.4020    0.0000 C   0  0  0  0  0  0  0  0  0  0  0  0
    0.7272    1.1724    0.0000 C   0  0  0  0  0  0  0  0  0  0  0  0
   -0.5835    0.4430    0.0000 C   0  0  0  0  0  0  0  0  0  0  0  0
   -0.6072   -1.0569    0.0000 C   0  0  0  0  0  0  0  0  0  0  0  0
   -1.9677   -0.4252    0.0000 C   0  0  0  0  0  0  0  0  0  0  0  0
  2  1  1  6
  2  3  1  0
  3  4  1  0
  4  5  1  0
  5  6  2  0
  5  7  1  0
  7  8  1  0
  2  9  1  0
  9 10  1  6
 10 11  1  0
 12 11  1  6
 12 13  1  0
 13 14  1  1
 14 15  1  1
 14 16  1  0
 17 16  1  1
 17 18  1  0
 18 19  1  0
 19 20  1  0
 20 21  1  0
 21 22  1  0
 22 23  1  6
 22 24  1  0
 24 25  1  6
 25 26  1  0
 26 27  1  0
 27 28  1  6
 27  9  1  0
 27 12  1  0
 24 13  1  0
 22 17  1  0
M  END
>  <MS_ID>  (1058) 
MS1101

>  <SMILES>  (1058) 
C[C@H](CCC(=O)NO)[C@H]1CC[C@H]2[C@@H]3[C@H](O)C[C@@H]4CCCC[C@]4(C)[C@H]3CC[C@]12C

>  <Structure_dimension>  (1058) 
2D

$$$$
MS1102
     RDKit          2D

 34 37  0  0  0  0  0  0  0  0999 V2000
   -2.7692   -3.9261    0.0000 C   0  0  0  0  0  0  0  0  0  0  0  0
   -1.9736   -2.6545    0.0000 C   0  0  0  0  0  0  0  0  0  0  0  0
   -2.6771   -1.3297    0.0000 C   0  0  0  0  0  0  0  0  0  0  0  0
   -4.1761   -1.2765    0.0000 C   0  0  0  0  0  0  0  0  0  0  0  0
   -4.8796    0.0483    0.0000 C   0  0  0  0  0  0  0  0  0  0  0  0
   -4.0841    1.3199    0.0000 O   0  0  0  0  0  0  0  0  0  0  0  0
   -6.3787    0.1014    0.0000 N   0  0  0  0  0  0  0  0  0  0  0  0
   -7.0822    1.4263    0.0000 C   0  0  0  0  0  0  0  0  0  0  0  0
   -8.5812    1.4794    0.0000 C   0  0  0  0  0  0  0  0  0  0  0  0
   -9.3768    0.2078    0.0000 O   0  0  0  0  0  0  0  0  0  0  0  0
   -9.2847    2.8042    0.0000 N   0  0  0  0  0  0  0  0  0  0  0  0
  -10.7838    2.8574    0.0000 O   0  0  0  0  0  0  0  0  0  0  0  0
   -0.4745   -2.7076    0.0000 C   0  0  0  0  0  0  0  0  0  0  0  0
    0.3636   -3.9516    0.0000 C   0  0  0  0  0  0  0  0  0  0  0  0
    1.8057   -3.5390    0.0000 C   0  0  0  0  0  0  0  0  0  0  0  0
    1.8589   -2.0399    0.0000 C   0  0  0  0  0  0  0  0  0  0  0  0
    3.0084   -1.0763    0.0000 C   0  0  0  0  0  0  0  0  0  0  0  0
    4.4177   -1.5901    0.0000 C   0  0  0  0  0  0  0  0  0  0  0  0
    4.6774   -3.0675    0.0000 O   0  0  0  0  0  0  0  0  0  0  0  0
    5.5673   -0.6266    0.0000 C   0  0  0  0  0  0  0  0  0  0  0  0
    6.9766   -1.1404    0.0000 O   0  0  0  0  0  0  0  0  0  0  0  0
    5.3076    0.8508    0.0000 C   0  0  0  0  0  0  0  0  0  0  0  0
    6.4572    1.8144    0.0000 C   0  0  0  0  0  0  0  0  0  0  0  0
    6.1975    3.2917    0.0000 C   0  0  0  0  0  0  0  0  0  0  0  0
    7.3471    4.2553    0.0000 O   0  0  0  0  0  0  0  0  0  0  0  0
    4.7883    3.8055    0.0000 C   0  0  0  0  0  0  0  0  0  0  0  0
    3.6387    2.8419    0.0000 C   0  0  0  0  0  0  0  0  0  0  0  0
    3.8984    1.3646    0.0000 C   0  0  0  0  0  0  0  0  0  0  0  0
    2.4891    1.8784    0.0000 C   0  0  0  0  0  0  0  0  0  0  0  0
    2.7488    0.4010    0.0000 C   0  0  0  0  0  0  0  0  0  0  0  0
    1.3395    0.9148    0.0000 C   0  0  0  0  0  0  0  0  0  0  0  0
    0.1899   -0.0488    0.0000 C   0  0  0  0  0  0  0  0  0  0  0  0
    0.4496   -1.5261    0.0000 C   0  0  0  0  0  0  0  0  0  0  0  0
   -1.0056   -1.1624    0.0000 C   0  0  0  0  0  0  0  0  0  0  0  0
  2  1  1  6
  2  3  1  0
  3  4  1  0
  4  5  1  0
  5  6  2  0
  5  7  1  0
  7  8  1  0
  8  9  1  0
  9 10  2  0
  9 11  1  0
 11 12  1  0
  2 13  1  0
 13 14  1  6
 14 15  1  0
 16 15  1  6
 16 17  1  0
 17 18  1  1
 18 19  1  1
 18 20  1  0
 20 21  1  1
 20 22  1  0
 22 23  1  1
 23 24  1  0
 24 25  1  1
 24 26  1  0
 26 27  1  0
 27 28  1  0
 28 29  1  6
 28 30  1  0
 30 31  1  6
 31 32  1  0
 32 33  1  0
 33 34  1  6
 33 13  1  0
 33 16  1  0
 30 17  1  0
 28 22  1  0
M  END
>  <MS_ID>  (1059) 
MS1102

>  <SMILES>  (1059) 
C[C@H](CCC(=O)NCC(=O)NO)[C@H]1CC[C@H]2[C@@H]3[C@H](O)[C@H](O)[C@@H]4C[C@H](O)CC[C@]4(C)[C@H]3CC[C@]12C

>  <Structure_dimension>  (1059) 
2D

$$$$
MS1103
     RDKit          2D

 36 40  0  0  0  0  0  0  0  0999 V2000
   -1.9050   -4.5694    0.0000 C   0  0  0  0  0  0  0  0  0  0  0  0
   -1.2772   -3.2071    0.0000 C   0  0  0  0  0  0  0  0  0  0  0  0
   -2.1430   -1.9823    0.0000 C   0  0  0  0  0  0  0  0  0  0  0  0
   -3.6367   -2.1197    0.0000 C   0  0  0  0  0  0  0  0  0  0  0  0
   -4.5026   -0.8948    0.0000 C   0  0  0  0  0  0  0  0  0  0  0  0
   -3.8747    0.4675    0.0000 O   0  0  0  0  0  0  0  0  0  0  0  0
   -5.9962   -1.0322    0.0000 N   0  0  0  0  0  0  0  0  0  0  0  0
   -6.8621    0.1926    0.0000 C   0  0  0  0  0  0  0  0  0  0  0  0
   -6.2343    1.5549    0.0000 C   0  0  0  0  0  0  0  0  0  0  0  0
   -7.1001    2.7798    0.0000 C   0  0  0  0  0  0  0  0  0  0  0  0
   -8.5938    2.6424    0.0000 C   0  0  0  0  0  0  0  0  0  0  0  0
   -9.4597    3.8672    0.0000 O   0  0  0  0  0  0  0  0  0  0  0  0
   -9.2216    1.2801    0.0000 C   0  0  0  0  0  0  0  0  0  0  0  0
   -8.3558    0.0552    0.0000 C   0  0  0  0  0  0  0  0  0  0  0  0
    0.2165   -3.0697    0.0000 C   0  0  0  0  0  0  0  0  0  0  0  0
    1.2057   -4.1974    0.0000 C   0  0  0  0  0  0  0  0  0  0  0  0
    2.5838   -3.6051    0.0000 C   0  0  0  0  0  0  0  0  0  0  0  0
    2.4464   -2.1114    0.0000 C   0  0  0  0  0  0  0  0  0  0  0  0
    3.4645   -1.0098    0.0000 C   0  0  0  0  0  0  0  0  0  0  0  0
    4.9275   -1.3407    0.0000 C   0  0  0  0  0  0  0  0  0  0  0  0
    5.3725   -2.7732    0.0000 O   0  0  0  0  0  0  0  0  0  0  0  0
    5.9456   -0.2391    0.0000 C   0  0  0  0  0  0  0  0  0  0  0  0
    7.4086   -0.5700    0.0000 O   0  0  0  0  0  0  0  0  0  0  0  0
    5.5006    1.1934    0.0000 C   0  0  0  0  0  0  0  0  0  0  0  0
    6.5187    2.2950    0.0000 C   0  0  0  0  0  0  0  0  0  0  0  0
    6.0737    3.7274    0.0000 C   0  0  0  0  0  0  0  0  0  0  0  0
    7.0918    4.8290    0.0000 O   0  0  0  0  0  0  0  0  0  0  0  0
    4.6107    4.0583    0.0000 C   0  0  0  0  0  0  0  0  0  0  0  0
    3.5926    2.9567    0.0000 C   0  0  0  0  0  0  0  0  0  0  0  0
    4.0376    1.5242    0.0000 C   0  0  0  0  0  0  0  0  0  0  0  0
    2.5745    1.8551    0.0000 C   0  0  0  0  0  0  0  0  0  0  0  0
    3.0195    0.4227    0.0000 C   0  0  0  0  0  0  0  0  0  0  0  0
    1.5564    0.7535    0.0000 C   0  0  0  0  0  0  0  0  0  0  0  0
    0.5384   -0.3481    0.0000 C   0  0  0  0  0  0  0  0  0  0  0  0
    0.9833   -1.7805    0.0000 C   0  0  0  0  0  0  0  0  0  0  0  0
   -0.5063   -1.6044    0.0000 C   0  0  0  0  0  0  0  0  0  0  0  0
  2  1  1  6
  2  3  1  0
  3  4  1  0
  4  5  1  0
  5  6  2  0
  5  7  1  0
  7  8  1  0
  8  9  2  0
  9 10  1  0
 10 11  2  0
 11 12  1  0
 11 13  1  0
 13 14  2  0
  2 15  1  0
 15 16  1  6
 16 17  1  0
 18 17  1  6
 18 19  1  0
 19 20  1  1
 20 21  1  1
 20 22  1  0
 22 23  1  1
 22 24  1  0
 24 25  1  1
 25 26  1  0
 26 27  1  1
 26 28  1  0
 28 29  1  0
 29 30  1  0
 30 31  1  6
 30 32  1  0
 32 33  1  6
 33 34  1  0
 34 35  1  0
 35 36  1  6
 14  8  1  0
 35 15  1  0
 35 18  1  0
 32 19  1  0
 30 24  1  0
M  END
>  <MS_ID>  (1060) 
MS1103

>  <SMILES>  (1060) 
C[C@H](CCC(=O)Nc1ccc(O)cc1)[C@H]1CC[C@H]2[C@@H]3[C@H](O)[C@H](O)[C@@H]4C[C@H](O)CC[C@]4(C)[C@H]3CC[C@]12C

>  <Structure_dimension>  (1060) 
2D

$$$$
MS1104
     RDKit          2D

 29 32  0  0  0  0  0  0  0  0999 V2000
   -4.0871   -3.1154    0.0000 C   0  0  0  0  0  0  0  0  0  0  0  0
   -3.0536   -2.0283    0.0000 C   0  0  0  0  0  0  0  0  0  0  0  0
   -3.4784   -0.5897    0.0000 C   0  0  0  0  0  0  0  0  0  0  0  0
   -4.9366   -0.2383    0.0000 C   0  0  0  0  0  0  0  0  0  0  0  0
   -5.3614    1.2003    0.0000 C   0  0  0  0  0  0  0  0  0  0  0  0
   -4.3279    2.2875    0.0000 O   0  0  0  0  0  0  0  0  0  0  0  0
   -6.8197    1.5518    0.0000 C   0  0  0  0  0  0  0  0  0  0  0  0
   -7.2445    2.9904    0.0000 C   0  0  0  0  0  0  0  0  0  0  0  0
   -8.7027    3.3418    0.0000 O   0  0  0  0  0  0  0  0  0  0  0  0
   -1.5953   -2.3797    0.0000 C   0  0  0  0  0  0  0  0  0  0  0  0
   -1.0225   -3.7660    0.0000 C   0  0  0  0  0  0  0  0  0  0  0  0
    0.4730   -3.6496    0.0000 C   0  0  0  0  0  0  0  0  0  0  0  0
    0.8244   -2.1914    0.0000 C   0  0  0  0  0  0  0  0  0  0  0  0
    2.1432   -1.4767    0.0000 C   0  0  0  0  0  0  0  0  0  0  0  0
    3.4215   -2.2616    0.0000 C   0  0  0  0  0  0  0  0  0  0  0  0
    4.7404   -1.5470    0.0000 C   0  0  0  0  0  0  0  0  0  0  0  0
    4.7809   -0.0475    0.0000 C   0  0  0  0  0  0  0  0  0  0  0  0
    6.0998    0.6671    0.0000 C   0  0  0  0  0  0  0  0  0  0  0  0
    6.1403    2.1665    0.0000 C   0  0  0  0  0  0  0  0  0  0  0  0
    7.4592    2.8811    0.0000 O   0  0  0  0  0  0  0  0  0  0  0  0
    4.8620    2.9514    0.0000 C   0  0  0  0  0  0  0  0  0  0  0  0
    3.5432    2.2368    0.0000 C   0  0  0  0  0  0  0  0  0  0  0  0
    3.5026    0.7373    0.0000 C   0  0  0  0  0  0  0  0  0  0  0  0
    2.2243    1.5222    0.0000 C   0  0  0  0  0  0  0  0  0  0  0  0
    2.1838    0.0227    0.0000 C   0  0  0  0  0  0  0  0  0  0  0  0
    0.9055    0.8076    0.0000 C   0  0  0  0  0  0  0  0  0  0  0  0
   -0.4133    0.0929    0.0000 C   0  0  0  0  0  0  0  0  0  0  0  0
   -0.4539   -1.4065    0.0000 C   0  0  0  0  0  0  0  0  0  0  0  0
   -1.8072   -0.7596    0.0000 C   0  0  0  0  0  0  0  0  0  0  0  0
  2  1  1  6
  2  3  1  0
  3  4  1  0
  4  5  1  0
  5  6  2  0
  5  7  1  0
  7  8  1  0
  8  9  1  0
  2 10  1  0
 10 11  1  6
 11 12  1  0
 13 12  1  6
 13 14  1  0
 14 15  1  1
 15 16  1  0
 17 16  1  1
 17 18  1  0
 18 19  1  0
 19 20  1  6
 19 21  1  0
 21 22  1  0
 22 23  1  0
 23 24  1  6
 23 25  1  0
 25 26  1  6
 26 27  1  0
 27 28  1  0
 28 29  1  6
 28 10  1  0
 28 13  1  0
 25 14  1  0
 23 17  1  0
M  END
>  <MS_ID>  (1061) 
MS1104

>  <SMILES>  (1061) 
C[C@H](CCC(=O)CCO)[C@H]1CC[C@H]2[C@@H]3CC[C@@H]4C[C@@H](O)CC[C@]4(C)[C@H]3CC[C@]12C

>  <Structure_dimension>  (1061) 
2D

$$$$
MS1105
     RDKit          2D

 31 34  0  0  0  0  0  0  0  0999 V2000
   -3.7132   -3.4566    0.0000 C   0  0  0  0  0  0  0  0  0  0  0  0
   -2.7767   -2.2848    0.0000 C   0  0  0  0  0  0  0  0  0  0  0  0
   -3.3232   -0.8879    0.0000 C   0  0  0  0  0  0  0  0  0  0  0  0
   -4.8062   -0.6628    0.0000 C   0  0  0  0  0  0  0  0  0  0  0  0
   -5.3527    0.7341    0.0000 C   0  0  0  0  0  0  0  0  0  0  0  0
   -4.4162    1.9059    0.0000 O   0  0  0  0  0  0  0  0  0  0  0  0
   -6.8357    0.9593    0.0000 C   0  0  0  0  0  0  0  0  0  0  0  0
   -7.3822    2.3562    0.0000 C   0  0  0  0  0  0  0  0  0  0  0  0
   -6.4457    3.5279    0.0000 O   0  0  0  0  0  0  0  0  0  0  0  0
   -8.8652    2.5814    0.0000 O   0  0  0  0  0  0  0  0  0  0  0  0
   -1.2937   -2.5100    0.0000 C   0  0  0  0  0  0  0  0  0  0  0  0
   -0.6042   -3.8421    0.0000 C   0  0  0  0  0  0  0  0  0  0  0  0
    0.8758   -3.5980    0.0000 C   0  0  0  0  0  0  0  0  0  0  0  0
    1.1010   -2.1150    0.0000 C   0  0  0  0  0  0  0  0  0  0  0  0
    2.3537   -1.2900    0.0000 C   0  0  0  0  0  0  0  0  0  0  0  0
    3.6946   -1.9624    0.0000 C   0  0  0  0  0  0  0  0  0  0  0  0
    3.7827   -3.4598    0.0000 O   0  0  0  0  0  0  0  0  0  0  0  0
    4.9473   -1.1374    0.0000 C   0  0  0  0  0  0  0  0  0  0  0  0
    4.8592    0.3600    0.0000 C   0  0  0  0  0  0  0  0  0  0  0  0
    6.1120    1.1850    0.0000 C   0  0  0  0  0  0  0  0  0  0  0  0
    6.0239    2.6824    0.0000 C   0  0  0  0  0  0  0  0  0  0  0  0
    7.2767    3.5074    0.0000 O   0  0  0  0  0  0  0  0  0  0  0  0
    4.6831    3.3548    0.0000 C   0  0  0  0  0  0  0  0  0  0  0  0
    3.4303    2.5298    0.0000 C   0  0  0  0  0  0  0  0  0  0  0  0
    3.5184    1.0324    0.0000 C   0  0  0  0  0  0  0  0  0  0  0  0
    2.1776    1.7048    0.0000 C   0  0  0  0  0  0  0  0  0  0  0  0
    2.2656    0.2074    0.0000 C   0  0  0  0  0  0  0  0  0  0  0  0
    0.9248    0.8798    0.0000 C   0  0  0  0  0  0  0  0  0  0  0  0
   -0.3279    0.0548    0.0000 C   0  0  0  0  0  0  0  0  0  0  0  0
   -0.2399   -1.4426    0.0000 C   0  0  0  0  0  0  0  0  0  0  0  0
   -1.6436   -0.9140    0.0000 C   0  0  0  0  0  0  0  0  0  0  0  0
  2  1  1  6
  2  3  1  0
  3  4  1  0
  4  5  1  0
  5  6  2  0
  5  7  1  0
  7  8  1  0
  8  9  2  0
  8 10  1  0
  2 11  1  0
 11 12  1  6
 12 13  1  0
 14 13  1  6
 14 15  1  0
 15 16  1  1
 16 17  1  6
 16 18  1  0
 19 18  1  1
 19 20  1  0
 20 21  1  0
 21 22  2  0
 21 23  1  0
 23 24  1  0
 24 25  1  0
 25 26  1  6
 25 27  1  0
 27 28  1  6
 28 29  1  0
 29 30  1  0
 30 31  1  6
 30 11  1  0
 30 14  1  0
 27 15  1  0
 25 19  1  0
M  END
>  <MS_ID>  (1062) 
MS1105

>  <SMILES>  (1062) 
C[C@H](CCC(=O)CC(=O)O)[C@H]1CC[C@H]2[C@@H]3[C@@H](O)C[C@@H]4CC(=O)CC[C@]4(C)[C@H]3CC[C@]12C

>  <Structure_dimension>  (1062) 
2D

$$$$
MS1106
     RDKit          2D

 34 38  0  0  0  0  0  0  0  0999 V2000
   -3.1078   -3.3705    0.0000 C   0  0  0  0  0  0  0  0  0  0  0  0
   -2.1565   -2.2107    0.0000 C   0  0  0  0  0  0  0  0  0  0  0  0
   -2.6851   -0.8070    0.0000 C   0  0  0  0  0  0  0  0  0  0  0  0
   -4.1651   -0.5630    0.0000 C   0  0  0  0  0  0  0  0  0  0  0  0
   -4.6938    0.8408    0.0000 C   0  0  0  0  0  0  0  0  0  0  0  0
   -3.7424    2.0005    0.0000 O   0  0  0  0  0  0  0  0  0  0  0  0
   -6.1738    1.0848    0.0000 C   0  0  0  0  0  0  0  0  0  0  0  0
   -6.7025    2.4886    0.0000 C   0  0  0  0  0  0  0  0  0  0  0  0
   -8.1825    2.7326    0.0000 C   0  0  0  0  0  0  0  0  0  0  0  0
   -9.1338    1.5729    0.0000 N   0  0  0  0  0  0  0  0  0  0  0  0
   -8.6052    0.1692    0.0000 C   0  0  0  0  0  0  0  0  0  0  0  0
   -7.1252   -0.0749    0.0000 C   0  0  0  0  0  0  0  0  0  0  0  0
   -0.6765   -2.4548    0.0000 C   0  0  0  0  0  0  0  0  0  0  0  0
   -0.0040   -3.7956    0.0000 C   0  0  0  0  0  0  0  0  0  0  0  0
    1.4790   -3.5703    0.0000 C   0  0  0  0  0  0  0  0  0  0  0  0
    1.7231   -2.0903    0.0000 C   0  0  0  0  0  0  0  0  0  0  0  0
    2.9862   -1.2814    0.0000 C   0  0  0  0  0  0  0  0  0  0  0  0
    4.3184   -1.9708    0.0000 C   0  0  0  0  0  0  0  0  0  0  0  0
    4.3874   -3.4692    0.0000 O   0  0  0  0  0  0  0  0  0  0  0  0
    5.5816   -1.1619    0.0000 C   0  0  0  0  0  0  0  0  0  0  0  0
    5.5126    0.3366    0.0000 C   0  0  0  0  0  0  0  0  0  0  0  0
    6.7757    1.1455    0.0000 C   0  0  0  0  0  0  0  0  0  0  0  0
    6.7067    2.6439    0.0000 C   0  0  0  0  0  0  0  0  0  0  0  0
    7.9699    3.4529    0.0000 O   0  0  0  0  0  0  0  0  0  0  0  0
    5.3746    3.3334    0.0000 C   0  0  0  0  0  0  0  0  0  0  0  0
    4.1114    2.5244    0.0000 C   0  0  0  0  0  0  0  0  0  0  0  0
    4.1804    1.0260    0.0000 C   0  0  0  0  0  0  0  0  0  0  0  0
    2.8482    1.7155    0.0000 C   0  0  0  0  0  0  0  0  0  0  0  0
    2.9172    0.2170    0.0000 C   0  0  0  0  0  0  0  0  0  0  0  0
    1.5851    0.9065    0.0000 C   0  0  0  0  0  0  0  0  0  0  0  0
    0.3219    0.0975    0.0000 C   0  0  0  0  0  0  0  0  0  0  0  0
   -1.0102    0.7870    0.0000 O   0  0  0  0  0  0  0  0  0  0  0  0
    0.3909   -1.4009    0.0000 C   0  0  0  0  0  0  0  0  0  0  0  0
   -1.0060   -0.8545    0.0000 C   0  0  0  0  0  0  0  0  0  0  0  0
  2  1  1  6
  2  3  1  0
  3  4  1  0
  4  5  1  0
  5  6  2  0
  5  7  1  0
  7  8  2  0
  8  9  1  0
  9 10  2  0
 10 11  1  0
 11 12  2  0
  2 13  1  0
 13 14  1  6
 14 15  1  0
 16 15  1  6
 16 17  1  0
 17 18  1  1
 18 19  1  1
 18 20  1  0
 21 20  1  1
 21 22  1  0
 22 23  1  0
 23 24  1  1
 23 25  1  0
 25 26  1  0
 26 27  1  0
 27 28  1  6
 27 29  1  0
 29 30  1  6
 30 31  1  0
 31 32  1  1
 31 33  1  0
 33 34  1  6
 12  7  1  0
 33 13  1  0
 33 16  1  0
 29 17  1  0
 27 21  1  0
M  END
>  <MS_ID>  (1063) 
MS1106

>  <SMILES>  (1063) 
C[C@H](CCC(=O)c1ccncc1)[C@H]1CC[C@H]2[C@@H]3[C@H](O)C[C@@H]4C[C@H](O)CC[C@]4(C)[C@H]3C[C@H](O)[C@]12C

>  <Structure_dimension>  (1063) 
2D

$$$$
MS1107
     RDKit          2D

 30 33  0  0  0  0  0  0  0  0999 V2000
   -5.3676   -2.0337    0.0000 C   0  0  0  0  0  0  0  0  0  0  0  0
   -4.1713   -1.1288    0.0000 C   0  0  0  0  0  0  0  0  0  0  0  0
   -4.3569    0.3597    0.0000 C   0  0  0  0  0  0  0  0  0  0  0  0
   -5.7388    0.9432    0.0000 C   0  0  0  0  0  0  0  0  0  0  0  0
   -5.9244    2.4317    0.0000 C   0  0  0  0  0  0  0  0  0  0  0  0
   -4.7281    3.3367    0.0000 O   0  0  0  0  0  0  0  0  0  0  0  0
   -7.3062    3.0152    0.0000 O   0  0  0  0  0  0  0  0  0  0  0  0
   -2.7894   -1.7123    0.0000 C   0  0  0  0  0  0  0  0  0  0  0  0
   -2.4493   -3.1732    0.0000 C   0  0  0  0  0  0  0  0  0  0  0  0
   -0.9547   -3.3011    0.0000 C   0  0  0  0  0  0  0  0  0  0  0  0
   -0.3712   -1.9192    0.0000 C   0  0  0  0  0  0  0  0  0  0  0  0
    1.0461   -1.4282    0.0000 C   0  0  0  0  0  0  0  0  0  0  0  0
    2.1800   -2.4102    0.0000 C   0  0  0  0  0  0  0  0  0  0  0  0
    1.8966   -3.8832    0.0000 O   0  0  0  0  0  0  0  0  0  0  0  0
    3.5974   -1.9192    0.0000 C   0  0  0  0  0  0  0  0  0  0  0  0
    3.8808   -0.4462    0.0000 C   0  0  0  0  0  0  0  0  0  0  0  0
    5.2982    0.0448    0.0000 C   0  0  0  0  0  0  0  0  0  0  0  0
    5.5816    1.5178    0.0000 C   0  0  0  0  0  0  0  0  0  0  0  0
    6.9990    2.0088    0.0000 O   0  0  0  0  0  0  0  0  0  0  0  0
    8.1329    1.0269    0.0000 F   0  0  0  0  0  0  0  0  0  0  0  0
    4.4477    2.4998    0.0000 C   0  0  0  0  0  0  0  0  0  0  0  0
    3.0304    2.0087    0.0000 C   0  0  0  0  0  0  0  0  0  0  0  0
    2.7469    0.5358    0.0000 C   0  0  0  0  0  0  0  0  0  0  0  0
    1.6130    1.5177    0.0000 C   0  0  0  0  0  0  0  0  0  0  0  0
    1.3296    0.0448    0.0000 C   0  0  0  0  0  0  0  0  0  0  0  0
    0.1957    1.0267    0.0000 C   0  0  0  0  0  0  0  0  0  0  0  0
   -1.2217    0.5357    0.0000 C   0  0  0  0  0  0  0  0  0  0  0  0
   -2.3556    1.5177    0.0000 O   0  0  0  0  0  0  0  0  0  0  0  0
   -1.5052   -0.9373    0.0000 C   0  0  0  0  0  0  0  0  0  0  0  0
   -2.7355   -0.0792    0.0000 C   0  0  0  0  0  0  0  0  0  0  0  0
  2  1  1  6
  2  3  1  0
  3  4  1  0
  4  5  1  0
  5  6  2  0
  5  7  1  0
  2  8  1  0
  8  9  1  6
  9 10  1  0
 11 10  1  6
 11 12  1  0
 12 13  1  1
 13 14  1  1
 13 15  1  0
 16 15  1  1
 16 17  1  0
 17 18  1  0
 18 19  1  1
 19 20  1  0
 18 21  1  0
 21 22  1  0
 22 23  1  0
 23 24  1  6
 23 25  1  0
 25 26  1  6
 26 27  1  0
 27 28  1  1
 27 29  1  0
 29 30  1  6
 29  8  1  0
 29 11  1  0
 25 12  1  0
 23 16  1  0
M  END
>  <MS_ID>  (1064) 
MS1107

>  <SMILES>  (1064) 
C[C@H](CCC(=O)O)[C@H]1CC[C@H]2[C@@H]3[C@H](O)C[C@@H]4C[C@H](OF)CC[C@]4(C)[C@H]3C[C@H](O)[C@]12C

>  <Structure_dimension>  (1064) 
2D

$$$$
MS1108
     RDKit          2D

 29 32  0  0  0  0  0  0  0  0999 V2000
   -4.1361   -2.8778    0.0000 C   0  0  0  0  0  0  0  0  0  0  0  0
   -3.1227   -1.7719    0.0000 C   0  0  0  0  0  0  0  0  0  0  0  0
   -3.5738   -0.3413    0.0000 C   0  0  0  0  0  0  0  0  0  0  0  0
   -5.0383   -0.0167    0.0000 C   0  0  0  0  0  0  0  0  0  0  0  0
   -5.4894    1.4138    0.0000 C   0  0  0  0  0  0  0  0  0  0  0  0
   -4.4761    2.5198    0.0000 O   0  0  0  0  0  0  0  0  0  0  0  0
   -6.9539    1.7384    0.0000 C   0  0  0  0  0  0  0  0  0  0  0  0
   -7.4050    3.1690    0.0000 S   0  0  0  0  0  0  0  0  0  0  0  0
   -1.6583   -2.0965    0.0000 C   0  0  0  0  0  0  0  0  0  0  0  0
   -1.0601   -3.4720    0.0000 C   0  0  0  0  0  0  0  0  0  0  0  0
    0.4330   -3.3282    0.0000 C   0  0  0  0  0  0  0  0  0  0  0  0
    0.7576   -1.8638    0.0000 C   0  0  0  0  0  0  0  0  0  0  0  0
    2.0631   -1.1251    0.0000 C   0  0  0  0  0  0  0  0  0  0  0  0
    3.3556   -1.8863    0.0000 C   0  0  0  0  0  0  0  0  0  0  0  0
    3.3426   -3.3863    0.0000 O   0  0  0  0  0  0  0  0  0  0  0  0
    4.6611   -1.1476    0.0000 C   0  0  0  0  0  0  0  0  0  0  0  0
    4.6741    0.3523    0.0000 C   0  0  0  0  0  0  0  0  0  0  0  0
    5.9796    1.0910    0.0000 C   0  0  0  0  0  0  0  0  0  0  0  0
    5.9926    2.5910    0.0000 C   0  0  0  0  0  0  0  0  0  0  0  0
    4.7002    3.3522    0.0000 C   0  0  0  0  0  0  0  0  0  0  0  0
    3.3947    2.6135    0.0000 C   0  0  0  0  0  0  0  0  0  0  0  0
    3.3816    1.1136    0.0000 C   0  0  0  0  0  0  0  0  0  0  0  0
    2.0891    1.8748    0.0000 C   0  0  0  0  0  0  0  0  0  0  0  0
    2.0761    0.3749    0.0000 C   0  0  0  0  0  0  0  0  0  0  0  0
    0.7836    1.1361    0.0000 C   0  0  0  0  0  0  0  0  0  0  0  0
   -0.5219    0.3974    0.0000 C   0  0  0  0  0  0  0  0  0  0  0  0
   -1.8143    1.1587    0.0000 O   0  0  0  0  0  0  0  0  0  0  0  0
   -0.5349   -1.1025    0.0000 C   0  0  0  0  0  0  0  0  0  0  0  0
   -1.8998   -0.4805    0.0000 C   0  0  0  0  0  0  0  0  0  0  0  0
  2  1  1  6
  2  3  1  0
  3  4  1  0
  4  5  1  0
  5  6  2  0
  5  7  1  0
  7  8  1  0
  2  9  1  0
  9 10  1  6
 10 11  1  0
 12 11  1  6
 12 13  1  0
 13 14  1  1
 14 15  1  1
 14 16  1  0
 17 16  1  1
 17 18  1  0
 18 19  1  0
 19 20  1  0
 20 21  1  0
 21 22  1  0
 22 23  1  6
 22 24  1  0
 24 25  1  6
 25 26  1  0
 26 27  1  1
 26 28  1  0
 28 29  1  6
 28  9  1  0
 28 12  1  0
 24 13  1  0
 22 17  1  0
M  END
>  <MS_ID>  (1065) 
MS1108

>  <SMILES>  (1065) 
C[C@H](CCC(=O)CS)[C@H]1CC[C@H]2[C@@H]3[C@H](O)C[C@@H]4CCCC[C@]4(C)[C@H]3C[C@H](O)[C@]12C

>  <Structure_dimension>  (1065) 
2D

$$$$
MS1109
     RDKit          2D

 29 32  0  0  0  0  0  0  0  0999 V2000
   -3.5717   -3.2784    0.0000 C   0  0  0  0  0  0  0  0  0  0  0  0
   -2.6089   -2.1281    0.0000 C   0  0  0  0  0  0  0  0  0  0  0  0
   -3.1237   -0.7192    0.0000 C   0  0  0  0  0  0  0  0  0  0  0  0
   -4.6012   -0.4606    0.0000 C   0  0  0  0  0  0  0  0  0  0  0  0
   -5.1159    0.9483    0.0000 C   0  0  0  0  0  0  0  0  0  0  0  0
   -4.1532    2.0986    0.0000 O   0  0  0  0  0  0  0  0  0  0  0  0
   -6.5935    1.2070    0.0000 C   0  0  0  0  0  0  0  0  0  0  0  0
   -7.1082    2.6159    0.0000 C   0  0  0  0  0  0  0  0  0  0  0  0
   -8.5858    2.8746    0.0000 O   0  0  0  0  0  0  0  0  0  0  0  0
   -1.1314   -2.3868    0.0000 C   0  0  0  0  0  0  0  0  0  0  0  0
   -0.4722   -3.7342    0.0000 C   0  0  0  0  0  0  0  0  0  0  0  0
    1.0130   -3.5236    0.0000 C   0  0  0  0  0  0  0  0  0  0  0  0
    1.2716   -2.0461    0.0000 C   0  0  0  0  0  0  0  0  0  0  0  0
    2.5427   -1.2496    0.0000 C   0  0  0  0  0  0  0  0  0  0  0  0
    3.8680   -1.9522    0.0000 C   0  0  0  0  0  0  0  0  0  0  0  0
    5.1391   -1.1558    0.0000 C   0  0  0  0  0  0  0  0  0  0  0  0
    5.0849    0.3432    0.0000 C   0  0  0  0  0  0  0  0  0  0  0  0
    6.3560    1.1397    0.0000 C   0  0  0  0  0  0  0  0  0  0  0  0
    6.3018    2.6387    0.0000 C   0  0  0  0  0  0  0  0  0  0  0  0
    4.9766    3.3413    0.0000 C   0  0  0  0  0  0  0  0  0  0  0  0
    3.7055    2.5448    0.0000 C   0  0  0  0  0  0  0  0  0  0  0  0
    3.7597    1.0458    0.0000 C   0  0  0  0  0  0  0  0  0  0  0  0
    2.4344    1.7484    0.0000 C   0  0  0  0  0  0  0  0  0  0  0  0
    2.4886    0.2494    0.0000 C   0  0  0  0  0  0  0  0  0  0  0  0
    1.1633    0.9520    0.0000 C   0  0  0  0  0  0  0  0  0  0  0  0
   -0.1078    0.1555    0.0000 C   0  0  0  0  0  0  0  0  0  0  0  0
   -1.4331    0.8581    0.0000 O   0  0  0  0  0  0  0  0  0  0  0  0
   -0.0536   -1.3435    0.0000 C   0  0  0  0  0  0  0  0  0  0  0  0
   -1.4451   -0.7833    0.0000 C   0  0  0  0  0  0  0  0  0  0  0  0
  2  1  1  6
  2  3  1  0
  3  4  1  0
  4  5  1  0
  5  6  2  0
  5  7  1  0
  7  8  1  0
  8  9  1  0
  2 10  1  0
 10 11  1  6
 11 12  1  0
 13 12  1  6
 13 14  1  0
 14 15  1  1
 15 16  1  0
 17 16  1  1
 17 18  1  0
 18 19  1  0
 19 20  1  0
 20 21  1  0
 21 22  1  0
 22 23  1  6
 22 24  1  0
 24 25  1  6
 25 26  1  0
 26 27  1  6
 26 28  1  0
 28 29  1  6
 28 10  1  0
 28 13  1  0
 24 14  1  0
 22 17  1  0
M  END
>  <MS_ID>  (1066) 
MS1109

>  <SMILES>  (1066) 
C[C@H](CCC(=O)CCO)[C@H]1CC[C@H]2[C@@H]3CC[C@@H]4CCCC[C@]4(C)[C@H]3C[C@@H](O)[C@]12C

>  <Structure_dimension>  (1066) 
2D

$$$$
MS1110
     RDKit          2D

 29 32  0  0  0  0  0  0  0  0999 V2000
   -7.5935    3.5474    0.0000 C   0  0  0  0  0  0  0  0  0  0  0  0
   -7.2369    2.0904    0.0000 O   0  0  0  0  0  0  0  0  0  0  0  0
   -5.7968    1.6707    0.0000 C   0  0  0  0  0  0  0  0  0  0  0  0
   -4.7133    2.7080    0.0000 O   0  0  0  0  0  0  0  0  0  0  0  0
   -5.4402    0.2137    0.0000 C   0  0  0  0  0  0  0  0  0  0  0  0
   -4.0001   -0.2060    0.0000 C   0  0  0  0  0  0  0  0  0  0  0  0
   -3.6435   -1.6630    0.0000 C   0  0  0  0  0  0  0  0  0  0  0  0
   -4.7270   -2.7003    0.0000 C   0  0  0  0  0  0  0  0  0  0  0  0
   -2.2035   -2.0826    0.0000 C   0  0  0  0  0  0  0  0  0  0  0  0
   -1.6965   -3.4944    0.0000 C   0  0  0  0  0  0  0  0  0  0  0  0
   -0.1972   -3.4485    0.0000 C   0  0  0  0  0  0  0  0  0  0  0  0
    0.2225   -2.0084    0.0000 C   0  0  0  0  0  0  0  0  0  0  0  0
    1.5735   -1.3567    0.0000 C   0  0  0  0  0  0  0  0  0  0  0  0
    2.8134   -2.2008    0.0000 C   0  0  0  0  0  0  0  0  0  0  0  0
    4.1644   -1.5491    0.0000 C   0  0  0  0  0  0  0  0  0  0  0  0
    5.4043   -2.3933    0.0000 O   0  0  0  0  0  0  0  0  0  0  0  0
    4.2755   -0.0532    0.0000 C   0  0  0  0  0  0  0  0  0  0  0  0
    5.6265    0.5985    0.0000 C   0  0  0  0  0  0  0  0  0  0  0  0
    5.7376    2.0944    0.0000 C   0  0  0  0  0  0  0  0  0  0  0  0
    7.0887    2.7461    0.0000 O   0  0  0  0  0  0  0  0  0  0  0  0
    4.4977    2.9385    0.0000 C   0  0  0  0  0  0  0  0  0  0  0  0
    3.1467    2.2868    0.0000 C   0  0  0  0  0  0  0  0  0  0  0  0
    3.0356    0.7909    0.0000 C   0  0  0  0  0  0  0  0  0  0  0  0
    1.7957    1.6351    0.0000 C   0  0  0  0  0  0  0  0  0  0  0  0
    1.6846    0.1392    0.0000 C   0  0  0  0  0  0  0  0  0  0  0  0
    0.4447    0.9834    0.0000 C   0  0  0  0  0  0  0  0  0  0  0  0
   -0.9064    0.3316    0.0000 C   0  0  0  0  0  0  0  0  0  0  0  0
   -1.0175   -1.1643    0.0000 C   0  0  0  0  0  0  0  0  0  0  0  0
   -2.3388   -0.4543    0.0000 C   0  0  0  0  0  0  0  0  0  0  0  0
  1  2  1  0
  2  3  1  0
  3  4  2  0
  3  5  1  0
  5  6  1  0
  6  7  1  0
  7  8  1  6
  7  9  1  0
  9 10  1  6
 10 11  1  0
 12 11  1  6
 12 13  1  0
 13 14  1  1
 14 15  1  0
 15 16  1  1
 15 17  1  0
 17 18  1  1
 18 19  1  0
 19 20  1  1
 19 21  1  0
 21 22  1  0
 22 23  1  0
 23 24  1  6
 23 25  1  0
 25 26  1  6
 26 27  1  0
 27 28  1  0
 28 29  1  6
 28  9  1  0
 28 12  1  0
 25 13  1  0
 23 17  1  0
M  END
>  <MS_ID>  (1067) 
MS1110

>  <SMILES>  (1067) 
COC(=O)CC[C@@H](C)[C@H]1CC[C@H]2[C@@H]3C[C@H](O)[C@@H]4C[C@H](O)CC[C@]4(C)[C@H]3CC[C@]12C

>  <Structure_dimension>  (1067) 
2D

$$$$
MS1111
     RDKit          2D

 36 39  0  0  0  0  0  0  0  0999 V2000
   -1.8010   -4.2744    0.0000 C   0  0  0  0  0  0  0  0  0  0  0  0
   -1.0811   -2.9584    0.0000 C   0  0  0  0  0  0  0  0  0  0  0  0
   -1.8609   -1.6770    0.0000 C   0  0  0  0  0  0  0  0  0  0  0  0
   -3.3605   -1.7115    0.0000 C   0  0  0  0  0  0  0  0  0  0  0  0
   -4.1402   -0.4301    0.0000 C   0  0  0  0  0  0  0  0  0  0  0  0
   -3.4203    0.8858    0.0000 O   0  0  0  0  0  0  0  0  0  0  0  0
   -5.6398   -0.4647    0.0000 O   0  0  0  0  0  0  0  0  0  0  0  0
   -6.4195    0.8168    0.0000 C   0  0  0  0  0  0  0  0  0  0  0  0
   -7.9191    0.7822    0.0000 C   0  0  0  0  0  0  0  0  0  0  0  0
   -8.6390   -0.5338    0.0000 O   0  0  0  0  0  0  0  0  0  0  0  0
   -8.6988    2.0636    0.0000 C   0  0  0  0  0  0  0  0  0  0  0  0
   -7.4174    2.8433    0.0000 C   0  0  0  0  0  0  0  0  0  0  0  0
   -9.9802    1.2839    0.0000 C   0  0  0  0  0  0  0  0  0  0  0  0
   -9.4785    3.3450    0.0000 O   0  0  0  0  0  0  0  0  0  0  0  0
    0.4185   -2.9239    0.0000 C   0  0  0  0  0  0  0  0  0  0  0  0
    1.3278   -4.1168    0.0000 C   0  0  0  0  0  0  0  0  0  0  0  0
    2.7434   -3.6205    0.0000 C   0  0  0  0  0  0  0  0  0  0  0  0
    2.7088   -2.1209    0.0000 C   0  0  0  0  0  0  0  0  0  0  0  0
    3.8001   -1.0918    0.0000 C   0  0  0  0  0  0  0  0  0  0  0  0
    5.2370   -1.5224    0.0000 C   0  0  0  0  0  0  0  0  0  0  0  0
    5.5826   -2.9820    0.0000 O   0  0  0  0  0  0  0  0  0  0  0  0
    6.3283   -0.4933    0.0000 C   0  0  0  0  0  0  0  0  0  0  0  0
    5.9828    0.9664    0.0000 C   0  0  0  0  0  0  0  0  0  0  0  0
    7.0741    1.9955    0.0000 C   0  0  0  0  0  0  0  0  0  0  0  0
    6.7285    3.4551    0.0000 C   0  0  0  0  0  0  0  0  0  0  0  0
    7.8198    4.4843    0.0000 O   0  0  0  0  0  0  0  0  0  0  0  0
    5.2916    3.8857    0.0000 C   0  0  0  0  0  0  0  0  0  0  0  0
    4.2003    2.8566    0.0000 C   0  0  0  0  0  0  0  0  0  0  0  0
    4.5459    1.3969    0.0000 C   0  0  0  0  0  0  0  0  0  0  0  0
    3.1090    1.8275    0.0000 C   0  0  0  0  0  0  0  0  0  0  0  0
    3.4546    0.3678    0.0000 C   0  0  0  0  0  0  0  0  0  0  0  0
    2.0177    0.7984    0.0000 C   0  0  0  0  0  0  0  0  0  0  0  0
    0.9264   -0.2307    0.0000 C   0  0  0  0  0  0  0  0  0  0  0  0
   -0.5105    0.1998    0.0000 O   0  0  0  0  0  0  0  0  0  0  0  0
    1.2720   -1.6904    0.0000 C   0  0  0  0  0  0  0  0  0  0  0  0
   -0.2021   -1.4124    0.0000 C   0  0  0  0  0  0  0  0  0  0  0  0
  2  1  1  6
  2  3  1  0
  3  4  1  0
  4  5  1  0
  5  6  2  0
  5  7  1  0
  7  8  1  0
  8  9  1  0
  9 10  2  0
  9 11  1  0
 11 12  1  0
 11 13  1  0
 11 14  1  0
  2 15  1  0
 15 16  1  6
 16 17  1  0
 18 17  1  6
 18 19  1  0
 19 20  1  1
 20 21  1  1
 20 22  1  0
 23 22  1  1
 23 24  1  0
 24 25  1  0
 25 26  1  1
 25 27  1  0
 27 28  1  0
 28 29  1  0
 29 30  1  6
 29 31  1  0
 31 32  1  6
 32 33  1  0
 33 34  1  1
 33 35  1  0
 35 36  1  6
 35 15  1  0
 35 18  1  0
 31 19  1  0
 29 23  1  0
M  END
>  <MS_ID>  (1068) 
MS1111

>  <SMILES>  (1068) 
C[C@H](CCC(=O)OCC(=O)C(C)(C)O)[C@H]1CC[C@H]2[C@@H]3[C@H](O)C[C@@H]4C[C@H](O)CC[C@]4(C)[C@H]3C[C@H](O)[C@]12C

>  <Structure_dimension>  (1068) 
2D

$$$$
MS1112
     RDKit          2D

 29 32  0  0  0  0  0  0  0  0999 V2000
   -5.2182   -2.1453    0.0000 C   0  0  0  0  0  0  0  0  0  0  0  0
   -4.0752   -1.1739    0.0000 C   0  0  0  0  0  0  0  0  0  0  0  0
   -4.3449    0.3016    0.0000 C   0  0  0  0  0  0  0  0  0  0  0  0
   -5.7577    0.8058    0.0000 C   0  0  0  0  0  0  0  0  0  0  0  0
   -6.0274    2.2814    0.0000 C   0  0  0  0  0  0  0  0  0  0  0  0
   -4.8843    3.2527    0.0000 O   0  0  0  0  0  0  0  0  0  0  0  0
   -7.4401    2.7856    0.0000 O   0  0  0  0  0  0  0  0  0  0  0  0
   -2.6625   -1.6782    0.0000 C   0  0  0  0  0  0  0  0  0  0  0  0
   -2.2400   -3.1174    0.0000 C   0  0  0  0  0  0  0  0  0  0  0  0
   -0.7407   -3.1604    0.0000 C   0  0  0  0  0  0  0  0  0  0  0  0
   -0.2364   -1.7477    0.0000 C   0  0  0  0  0  0  0  0  0  0  0  0
    1.1508   -1.1771    0.0000 C   0  0  0  0  0  0  0  0  0  0  0  0
    2.3386   -2.0932    0.0000 C   0  0  0  0  0  0  0  0  0  0  0  0
    2.1391   -3.5798    0.0000 O   0  0  0  0  0  0  0  0  0  0  0  0
    3.7258   -1.5226    0.0000 C   0  0  0  0  0  0  0  0  0  0  0  0
    4.9136   -2.4386    0.0000 Cl  0  0  0  0  0  0  0  0  0  0  0  0
    3.9253   -0.0359    0.0000 C   0  0  0  0  0  0  0  0  0  0  0  0
    5.3125    0.5347    0.0000 C   0  0  0  0  0  0  0  0  0  0  0  0
    5.5119    2.0214    0.0000 C   0  0  0  0  0  0  0  0  0  0  0  0
    6.8992    2.5920    0.0000 O   0  0  0  0  0  0  0  0  0  0  0  0
    4.3242    2.9375    0.0000 C   0  0  0  0  0  0  0  0  0  0  0  0
    2.9369    2.3669    0.0000 C   0  0  0  0  0  0  0  0  0  0  0  0
    2.7375    0.8802    0.0000 C   0  0  0  0  0  0  0  0  0  0  0  0
    1.5497    1.7963    0.0000 C   0  0  0  0  0  0  0  0  0  0  0  0
    1.3502    0.3096    0.0000 C   0  0  0  0  0  0  0  0  0  0  0  0
    0.1625    1.2257    0.0000 C   0  0  0  0  0  0  0  0  0  0  0  0
   -1.2248    0.6551    0.0000 C   0  0  0  0  0  0  0  0  0  0  0  0
   -1.4242   -0.8316    0.0000 C   0  0  0  0  0  0  0  0  0  0  0  0
   -2.7012   -0.0447    0.0000 C   0  0  0  0  0  0  0  0  0  0  0  0
  2  1  1  6
  2  3  1  0
  3  4  1  0
  4  5  1  0
  5  6  2  0
  5  7  1  0
  2  8  1  0
  8  9  1  6
  9 10  1  0
 11 10  1  6
 11 12  1  0
 12 13  1  1
 13 14  1  6
 13 15  1  0
 15 16  1  6
 15 17  1  0
 17 18  1  1
 18 19  1  0
 19 20  1  1
 19 21  1  0
 21 22  1  0
 22 23  1  0
 23 24  1  6
 23 25  1  0
 25 26  1  6
 26 27  1  0
 27 28  1  0
 28 29  1  6
 28  8  1  0
 28 11  1  0
 25 12  1  0
 23 17  1  0
M  END
>  <MS_ID>  (1069) 
MS1112

>  <SMILES>  (1069) 
C[C@H](CCC(=O)O)[C@H]1CC[C@H]2[C@@H]3[C@@H](O)[C@@H](Cl)[C@@H]4C[C@H](O)CC[C@]4(C)[C@H]3CC[C@]12C

>  <Structure_dimension>  (1069) 
2D

$$$$
MS1113
     RDKit          2D

 34 38  0  0  0  0  0  0  0  0999 V2000
   -2.9923   -3.2597    0.0000 C   0  0  0  0  0  0  0  0  0  0  0  0
   -2.0238   -2.1143    0.0000 C   0  0  0  0  0  0  0  0  0  0  0  0
   -2.5315   -0.7028    0.0000 C   0  0  0  0  0  0  0  0  0  0  0  0
   -4.0078   -0.4368    0.0000 C   0  0  0  0  0  0  0  0  0  0  0  0
   -4.5155    0.9746    0.0000 C   0  0  0  0  0  0  0  0  0  0  0  0
   -3.5470    2.1201    0.0000 O   0  0  0  0  0  0  0  0  0  0  0  0
   -5.9917    1.2407    0.0000 C   0  0  0  0  0  0  0  0  0  0  0  0
   -6.4995    2.6521    0.0000 C   0  0  0  0  0  0  0  0  0  0  0  0
   -7.9757    2.9181    0.0000 C   0  0  0  0  0  0  0  0  0  0  0  0
   -8.9442    1.7727    0.0000 C   0  0  0  0  0  0  0  0  0  0  0  0
   -8.4364    0.3612    0.0000 C   0  0  0  0  0  0  0  0  0  0  0  0
   -6.9602    0.0952    0.0000 C   0  0  0  0  0  0  0  0  0  0  0  0
   -6.4525   -1.3162    0.0000 O   0  0  0  0  0  0  0  0  0  0  0  0
   -0.5476   -2.3803    0.0000 C   0  0  0  0  0  0  0  0  0  0  0  0
    0.1049   -3.7309    0.0000 C   0  0  0  0  0  0  0  0  0  0  0  0
    1.5911   -3.5277    0.0000 C   0  0  0  0  0  0  0  0  0  0  0  0
    1.8571   -2.0515    0.0000 C   0  0  0  0  0  0  0  0  0  0  0  0
    3.1321   -1.2614    0.0000 C   0  0  0  0  0  0  0  0  0  0  0  0
    4.4539   -1.9706    0.0000 C   0  0  0  0  0  0  0  0  0  0  0  0
    4.5006   -3.4699    0.0000 O   0  0  0  0  0  0  0  0  0  0  0  0
    5.7290   -1.1805    0.0000 C   0  0  0  0  0  0  0  0  0  0  0  0
    5.6822    0.3188    0.0000 C   0  0  0  0  0  0  0  0  0  0  0  0
    6.9573    1.1089    0.0000 C   0  0  0  0  0  0  0  0  0  0  0  0
    6.9105    2.6082    0.0000 C   0  0  0  0  0  0  0  0  0  0  0  0
    8.1856    3.3983    0.0000 O   0  0  0  0  0  0  0  0  0  0  0  0
    5.5888    3.3173    0.0000 C   0  0  0  0  0  0  0  0  0  0  0  0
    4.3137    2.5272    0.0000 C   0  0  0  0  0  0  0  0  0  0  0  0
    4.3605    1.0280    0.0000 C   0  0  0  0  0  0  0  0  0  0  0  0
    3.0387    1.7371    0.0000 C   0  0  0  0  0  0  0  0  0  0  0  0
    3.0854    0.2379    0.0000 C   0  0  0  0  0  0  0  0  0  0  0  0
    1.7636    0.9470    0.0000 C   0  0  0  0  0  0  0  0  0  0  0  0
    0.4886    0.1569    0.0000 C   0  0  0  0  0  0  0  0  0  0  0  0
    0.5353   -1.3424    0.0000 C   0  0  0  0  0  0  0  0  0  0  0  0
   -0.8533   -0.7752    0.0000 C   0  0  0  0  0  0  0  0  0  0  0  0
  2  1  1  6
  2  3  1  0
  3  4  1  0
  4  5  1  0
  5  6  2  0
  5  7  1  0
  7  8  2  0
  8  9  1  0
  9 10  2  0
 10 11  1  0
 11 12  2  0
 12 13  1  0
  2 14  1  0
 14 15  1  6
 15 16  1  0
 17 16  1  6
 17 18  1  0
 18 19  1  1
 19 20  1  1
 19 21  1  0
 22 21  1  1
 22 23  1  0
 23 24  1  0
 24 25  1  1
 24 26  1  0
 26 27  1  0
 27 28  1  0
 28 29  1  6
 28 30  1  0
 30 31  1  6
 31 32  1  0
 32 33  1  0
 33 34  1  6
 12  7  1  0
 33 14  1  0
 33 17  1  0
 30 18  1  0
 28 22  1  0
M  END
>  <MS_ID>  (1070) 
MS1113

>  <SMILES>  (1070) 
C[C@H](CCC(=O)c1ccccc1O)[C@H]1CC[C@H]2[C@@H]3[C@H](O)C[C@@H]4C[C@H](O)CC[C@]4(C)[C@H]3CC[C@]12C

>  <Structure_dimension>  (1070) 
2D

$$$$
MS1114
     RDKit          2D

 30 33  0  0  0  0  0  0  0  0999 V2000
   -3.4828   -3.5922    0.0000 C   0  0  0  0  0  0  0  0  0  0  0  0
   -2.5481   -2.4190    0.0000 C   0  0  0  0  0  0  0  0  0  0  0  0
   -3.0967   -1.0230    0.0000 C   0  0  0  0  0  0  0  0  0  0  0  0
   -4.5801   -0.8000    0.0000 C   0  0  0  0  0  0  0  0  0  0  0  0
   -5.1287    0.5960    0.0000 C   0  0  0  0  0  0  0  0  0  0  0  0
   -4.1940    1.7692    0.0000 O   0  0  0  0  0  0  0  0  0  0  0  0
   -6.6120    0.8190    0.0000 N   0  0  0  0  0  0  0  0  0  0  0  0
   -7.1606    2.2150    0.0000 C   0  0  0  0  0  0  0  0  0  0  0  0
   -8.6440    2.4379    0.0000 C   0  0  0  0  0  0  0  0  0  0  0  0
   -9.1926    3.8340    0.0000 O   0  0  0  0  0  0  0  0  0  0  0  0
   -1.0648   -2.6420    0.0000 C   0  0  0  0  0  0  0  0  0  0  0  0
   -0.3732   -3.9730    0.0000 C   0  0  0  0  0  0  0  0  0  0  0  0
    1.1064   -3.7267    0.0000 C   0  0  0  0  0  0  0  0  0  0  0  0
    1.3293   -2.2433    0.0000 C   0  0  0  0  0  0  0  0  0  0  0  0
    2.5808   -1.4164    0.0000 C   0  0  0  0  0  0  0  0  0  0  0  0
    3.9227   -2.0868    0.0000 C   0  0  0  0  0  0  0  0  0  0  0  0
    5.1742   -1.2599    0.0000 C   0  0  0  0  0  0  0  0  0  0  0  0
    5.0838    0.2373    0.0000 C   0  0  0  0  0  0  0  0  0  0  0  0
    6.3353    1.0642    0.0000 C   0  0  0  0  0  0  0  0  0  0  0  0
    6.2450    2.5615    0.0000 C   0  0  0  0  0  0  0  0  0  0  0  0
    7.4965    3.3884    0.0000 O   0  0  0  0  0  0  0  0  0  0  0  0
    4.9031    3.2319    0.0000 C   0  0  0  0  0  0  0  0  0  0  0  0
    3.6516    2.4050    0.0000 C   0  0  0  0  0  0  0  0  0  0  0  0
    3.7420    0.9077    0.0000 C   0  0  0  0  0  0  0  0  0  0  0  0
    2.4001    1.5781    0.0000 C   0  0  0  0  0  0  0  0  0  0  0  0
    2.4905    0.0808    0.0000 C   0  0  0  0  0  0  0  0  0  0  0  0
    1.1486    0.7512    0.0000 C   0  0  0  0  0  0  0  0  0  0  0  0
   -0.1029   -0.0757    0.0000 C   0  0  0  0  0  0  0  0  0  0  0  0
   -0.0125   -1.5729    0.0000 C   0  0  0  0  0  0  0  0  0  0  0  0
   -1.4171   -1.0465    0.0000 C   0  0  0  0  0  0  0  0  0  0  0  0
  2  1  1  6
  2  3  1  0
  3  4  1  0
  4  5  1  0
  5  6  2  0
  5  7  1  0
  7  8  1  0
  8  9  1  0
  9 10  1  0
  2 11  1  0
 11 12  1  6
 12 13  1  0
 14 13  1  6
 14 15  1  0
 15 16  1  1
 16 17  1  0
 18 17  1  1
 18 19  1  0
 19 20  1  0
 20 21  1  1
 20 22  1  0
 22 23  1  0
 23 24  1  0
 24 25  1  6
 24 26  1  0
 26 27  1  6
 27 28  1  0
 28 29  1  0
 29 30  1  6
 29 11  1  0
 29 14  1  0
 26 15  1  0
 24 18  1  0
M  END
>  <MS_ID>  (1071) 
MS1114

>  <SMILES>  (1071) 
C[C@H](CCC(=O)NCCO)[C@H]1CC[C@H]2[C@@H]3CC[C@@H]4C[C@H](O)CC[C@]4(C)[C@H]3CC[C@]12C

>  <Structure_dimension>  (1071) 
2D

$$$$
MS1115
     RDKit          2D

 29 32  0  0  0  0  0  0  0  0999 V2000
   -4.6551   -2.6180    0.0000 C   0  0  0  0  0  0  0  0  0  0  0  0
   -3.5633   -1.5894    0.0000 C   0  0  0  0  0  0  0  0  0  0  0  0
   -3.9081   -0.1296    0.0000 C   0  0  0  0  0  0  0  0  0  0  0  0
   -5.3448    0.3016    0.0000 C   0  0  0  0  0  0  0  0  0  0  0  0
   -5.6897    1.7615    0.0000 C   0  0  0  0  0  0  0  0  0  0  0  0
   -4.5979    2.7900    0.0000 O   0  0  0  0  0  0  0  0  0  0  0  0
   -7.1264    2.1927    0.0000 C   0  0  0  0  0  0  0  0  0  0  0  0
   -7.4712    3.6525    0.0000 S   0  0  0  0  0  0  0  0  0  0  0  0
   -2.1266   -2.0207    0.0000 C   0  0  0  0  0  0  0  0  0  0  0  0
   -1.6310   -3.4364    0.0000 C   0  0  0  0  0  0  0  0  0  0  0  0
   -0.1314   -3.4026    0.0000 C   0  0  0  0  0  0  0  0  0  0  0  0
    0.2998   -1.9659    0.0000 C   0  0  0  0  0  0  0  0  0  0  0  0
    1.6561   -1.3251    0.0000 C   0  0  0  0  0  0  0  0  0  0  0  0
    2.8892   -2.1792    0.0000 C   0  0  0  0  0  0  0  0  0  0  0  0
    2.7660   -3.6741    0.0000 O   0  0  0  0  0  0  0  0  0  0  0  0
    4.2454   -1.5383    0.0000 C   0  0  0  0  0  0  0  0  0  0  0  0
    4.3685   -0.0434    0.0000 C   0  0  0  0  0  0  0  0  0  0  0  0
    5.7247    0.5975    0.0000 C   0  0  0  0  0  0  0  0  0  0  0  0
    5.8478    2.0924    0.0000 C   0  0  0  0  0  0  0  0  0  0  0  0
    7.2040    2.7332    0.0000 O   0  0  0  0  0  0  0  0  0  0  0  0
    4.6147    2.9465    0.0000 C   0  0  0  0  0  0  0  0  0  0  0  0
    3.2585    2.3056    0.0000 C   0  0  0  0  0  0  0  0  0  0  0  0
    3.1354    0.8107    0.0000 C   0  0  0  0  0  0  0  0  0  0  0  0
    1.9023    1.6648    0.0000 C   0  0  0  0  0  0  0  0  0  0  0  0
    1.7792    0.1699    0.0000 C   0  0  0  0  0  0  0  0  0  0  0  0
    0.5461    1.0239    0.0000 C   0  0  0  0  0  0  0  0  0  0  0  0
   -0.8101    0.3831    0.0000 C   0  0  0  0  0  0  0  0  0  0  0  0
   -0.9333   -1.1118    0.0000 C   0  0  0  0  0  0  0  0  0  0  0  0
   -2.2489   -0.3913    0.0000 C   0  0  0  0  0  0  0  0  0  0  0  0
  2  1  1  6
  2  3  1  0
  3  4  1  0
  4  5  1  0
  5  6  2  0
  5  7  1  0
  7  8  1  0
  2  9  1  0
  9 10  1  6
 10 11  1  0
 12 11  1  6
 12 13  1  0
 13 14  1  1
 14 15  1  1
 14 16  1  0
 17 16  1  1
 17 18  1  0
 18 19  1  0
 19 20  1  6
 19 21  1  0
 21 22  1  0
 22 23  1  0
 23 24  1  6
 23 25  1  0
 25 26  1  6
 26 27  1  0
 27 28  1  0
 28 29  1  6
 28  9  1  0
 28 12  1  0
 25 13  1  0
 23 17  1  0
M  END
>  <MS_ID>  (1072) 
MS1115

>  <SMILES>  (1072) 
C[C@H](CCC(=O)CS)[C@H]1CC[C@H]2[C@@H]3[C@H](O)C[C@@H]4C[C@@H](O)CC[C@]4(C)[C@H]3CC[C@]12C

>  <Structure_dimension>  (1072) 
2D

$$$$
MS1116
     RDKit          2D

 32 35  0  0  0  0  0  0  0  0999 V2000
   -2.9090   -3.9078    0.0000 C   0  0  0  0  0  0  0  0  0  0  0  0
   -2.0926   -2.6494    0.0000 C   0  0  0  0  0  0  0  0  0  0  0  0
   -2.7741   -1.3132    0.0000 C   0  0  0  0  0  0  0  0  0  0  0  0
   -4.2721   -1.2353    0.0000 C   0  0  0  0  0  0  0  0  0  0  0  0
   -4.9536    0.1009    0.0000 C   0  0  0  0  0  0  0  0  0  0  0  0
   -4.1372    1.3592    0.0000 O   0  0  0  0  0  0  0  0  0  0  0  0
   -6.4516    0.1788    0.0000 C   0  0  0  0  0  0  0  0  0  0  0  0
   -7.1332    1.5150    0.0000 C   0  0  0  0  0  0  0  0  0  0  0  0
   -8.6311    1.5929    0.0000 C   0  0  0  0  0  0  0  0  0  0  0  0
   -9.3127    2.9291    0.0000 C   0  0  0  0  0  0  0  0  0  0  0  0
  -10.8107    3.0070    0.0000 O   0  0  0  0  0  0  0  0  0  0  0  0
   -0.5946   -2.7273    0.0000 C   0  0  0  0  0  0  0  0  0  0  0  0
    0.2229   -3.9850    0.0000 C   0  0  0  0  0  0  0  0  0  0  0  0
    1.6716   -3.5962    0.0000 C   0  0  0  0  0  0  0  0  0  0  0  0
    1.7495   -2.0982    0.0000 C   0  0  0  0  0  0  0  0  0  0  0  0
    2.9148   -1.1537    0.0000 C   0  0  0  0  0  0  0  0  0  0  0  0
    4.3154   -1.6907    0.0000 C   0  0  0  0  0  0  0  0  0  0  0  0
    4.5507   -3.1721    0.0000 O   0  0  0  0  0  0  0  0  0  0  0  0
    5.4807   -0.7462    0.0000 C   0  0  0  0  0  0  0  0  0  0  0  0
    5.2455    0.7352    0.0000 C   0  0  0  0  0  0  0  0  0  0  0  0
    6.4108    1.6797    0.0000 C   0  0  0  0  0  0  0  0  0  0  0  0
    6.1755    3.1611    0.0000 C   0  0  0  0  0  0  0  0  0  0  0  0
    7.3408    4.1056    0.0000 O   0  0  0  0  0  0  0  0  0  0  0  0
    4.7749    3.6981    0.0000 C   0  0  0  0  0  0  0  0  0  0  0  0
    3.6096    2.7536    0.0000 C   0  0  0  0  0  0  0  0  0  0  0  0
    3.8449    1.2722    0.0000 C   0  0  0  0  0  0  0  0  0  0  0  0
    2.4443    1.8091    0.0000 C   0  0  0  0  0  0  0  0  0  0  0  0
    2.6795    0.3277    0.0000 C   0  0  0  0  0  0  0  0  0  0  0  0
    1.2789    0.8647    0.0000 C   0  0  0  0  0  0  0  0  0  0  0  0
    0.1136   -0.0798    0.0000 C   0  0  0  0  0  0  0  0  0  0  0  0
    0.3489   -1.5612    0.0000 C   0  0  0  0  0  0  0  0  0  0  0  0
   -1.1002   -1.1736    0.0000 C   0  0  0  0  0  0  0  0  0  0  0  0
  2  1  1  6
  2  3  1  0
  3  4  1  0
  4  5  1  0
  5  6  2  0
  5  7  1  0
  7  8  1  0
  8  9  1  0
  9 10  1  0
 10 11  1  0
  2 12  1  0
 12 13  1  6
 13 14  1  0
 15 14  1  6
 15 16  1  0
 16 17  1  1
 17 18  1  6
 17 19  1  0
 20 19  1  1
 20 21  1  0
 21 22  1  0
 22 23  1  1
 22 24  1  0
 24 25  1  0
 25 26  1  0
 26 27  1  6
 26 28  1  0
 28 29  1  6
 29 30  1  0
 30 31  1  0
 31 32  1  6
 31 12  1  0
 31 15  1  0
 28 16  1  0
 26 20  1  0
M  END
>  <MS_ID>  (1073) 
MS1116

>  <SMILES>  (1073) 
C[C@H](CCC(=O)CCCCO)[C@H]1CC[C@H]2[C@@H]3[C@@H](O)C[C@@H]4C[C@H](O)CC[C@]4(C)[C@H]3CC[C@]12C

>  <Structure_dimension>  (1073) 
2D

$$$$
MS1117
     RDKit          2D

 37 41  0  0  0  0  0  0  0  0999 V2000
   -0.5062   -4.7663    0.0000 C   0  0  0  0  0  0  0  0  0  0  0  0
    0.0323   -3.3663    0.0000 C   0  0  0  0  0  0  0  0  0  0  0  0
   -0.9109   -2.1999    0.0000 C   0  0  0  0  0  0  0  0  0  0  0  0
   -2.3926   -2.4336    0.0000 C   0  0  0  0  0  0  0  0  0  0  0  0
   -3.3358   -1.2672    0.0000 C   0  0  0  0  0  0  0  0  0  0  0  0
   -2.7973    0.1328    0.0000 O   0  0  0  0  0  0  0  0  0  0  0  0
   -4.8175   -1.5009    0.0000 O   0  0  0  0  0  0  0  0  0  0  0  0
   -5.7607   -0.3345    0.0000 C   0  0  0  0  0  0  0  0  0  0  0  0
   -7.2423   -0.5681    0.0000 C   0  0  0  0  0  0  0  0  0  0  0  0
   -8.1855    0.5982    0.0000 C   0  0  0  0  0  0  0  0  0  0  0  0
   -7.6470    1.9982    0.0000 C   0  0  0  0  0  0  0  0  0  0  0  0
   -8.5902    3.1646    0.0000 C   0  0  0  0  0  0  0  0  0  0  0  0
  -10.0719    2.9309    0.0000 C   0  0  0  0  0  0  0  0  0  0  0  0
  -10.6104    1.5309    0.0000 C   0  0  0  0  0  0  0  0  0  0  0  0
  -12.0921    1.2973    0.0000 O   0  0  0  0  0  0  0  0  0  0  0  0
   -9.6672    0.3646    0.0000 C   0  0  0  0  0  0  0  0  0  0  0  0
    1.5140   -3.1327    0.0000 C   0  0  0  0  0  0  0  0  0  0  0  0
    2.5739   -4.1940    0.0000 C   0  0  0  0  0  0  0  0  0  0  0  0
    3.9109   -3.5140    0.0000 C   0  0  0  0  0  0  0  0  0  0  0  0
    3.6772   -2.0323    0.0000 C   0  0  0  0  0  0  0  0  0  0  0  0
    4.6220   -0.8672    0.0000 C   0  0  0  0  0  0  0  0  0  0  0  0
    6.1034   -1.1028    0.0000 C   0  0  0  0  0  0  0  0  0  0  0  0
    6.6400   -2.5036    0.0000 O   0  0  0  0  0  0  0  0  0  0  0  0
    7.0482    0.0622    0.0000 C   0  0  0  0  0  0  0  0  0  0  0  0
    6.5116    1.4630    0.0000 C   0  0  0  0  0  0  0  0  0  0  0  0
    7.4563    2.6280    0.0000 C   0  0  0  0  0  0  0  0  0  0  0  0
    6.9197    4.0288    0.0000 C   0  0  0  0  0  0  0  0  0  0  0  0
    7.8645    5.1939    0.0000 O   0  0  0  0  0  0  0  0  0  0  0  0
    5.4384    4.2644    0.0000 C   0  0  0  0  0  0  0  0  0  0  0  0
    4.4936    3.0994    0.0000 C   0  0  0  0  0  0  0  0  0  0  0  0
    5.0302    1.6986    0.0000 C   0  0  0  0  0  0  0  0  0  0  0  0
    3.5488    1.9343    0.0000 C   0  0  0  0  0  0  0  0  0  0  0  0
    4.0854    0.5335    0.0000 C   0  0  0  0  0  0  0  0  0  0  0  0
    2.6041    0.7692    0.0000 C   0  0  0  0  0  0  0  0  0  0  0  0
    1.6593   -0.3959    0.0000 C   0  0  0  0  0  0  0  0  0  0  0  0
    2.1959   -1.7966    0.0000 C   0  0  0  0  0  0  0  0  0  0  0  0
    0.6980   -1.7171    0.0000 C   0  0  0  0  0  0  0  0  0  0  0  0
  2  1  1  6
  2  3  1  0
  3  4  1  0
  4  5  1  0
  5  6  2  0
  5  7  1  0
  7  8  1  0
  8  9  1  0
  9 10  1  0
 10 11  2  0
 11 12  1  0
 12 13  2  0
 13 14  1  0
 14 15  1  0
 14 16  2  0
  2 17  1  0
 17 18  1  6
 18 19  1  0
 20 19  1  6
 20 21  1  0
 21 22  1  1
 22 23  1  1
 22 24  1  0
 25 24  1  1
 25 26  1  0
 26 27  1  0
 27 28  1  1
 27 29  1  0
 29 30  1  0
 30 31  1  0
 31 32  1  6
 31 33  1  0
 33 34  1  6
 34 35  1  0
 35 36  1  0
 36 37  1  6
 16 10  1  0
 36 17  1  0
 36 20  1  0
 33 21  1  0
 31 25  1  0
M  END
>  <MS_ID>  (1074) 
MS1117

>  <SMILES>  (1074) 
C[C@H](CCC(=O)OCCc1cccc(O)c1)[C@H]1CC[C@H]2[C@@H]3[C@H](O)C[C@@H]4C[C@H](O)CC[C@]4(C)[C@H]3CC[C@]12C

>  <Structure_dimension>  (1074) 
2D

$$$$
MS1118
     RDKit          2D

 35 38  0  0  0  0  0  0  0  0999 V2000
   -3.2008   -2.8245    0.0000 C   0  0  0  0  0  0  0  0  0  0  0  0
   -2.1661   -1.7385    0.0000 C   0  0  0  0  0  0  0  0  0  0  0  0
   -2.5893   -0.2995    0.0000 C   0  0  0  0  0  0  0  0  0  0  0  0
   -4.0471    0.0536    0.0000 C   0  0  0  0  0  0  0  0  0  0  0  0
   -4.4703    1.4927    0.0000 C   0  0  0  0  0  0  0  0  0  0  0  0
   -3.4356    2.5787    0.0000 O   0  0  0  0  0  0  0  0  0  0  0  0
   -5.9281    1.8458    0.0000 N   0  0  0  0  0  0  0  0  0  0  0  0
   -6.3513    3.2848    0.0000 C   0  0  0  0  0  0  0  0  0  0  0  0
   -6.9628    0.7598    0.0000 C   0  0  0  0  0  0  0  0  0  0  0  0
   -8.4207    1.1128    0.0000 C   0  0  0  0  0  0  0  0  0  0  0  0
   -9.4554    0.0268    0.0000 C   0  0  0  0  0  0  0  0  0  0  0  0
   -9.0322   -1.4122    0.0000 O   0  0  0  0  0  0  0  0  0  0  0  0
  -10.9133    0.3799    0.0000 O   0  0  0  0  0  0  0  0  0  0  0  0
   -0.7083   -2.0916    0.0000 C   0  0  0  0  0  0  0  0  0  0  0  0
   -0.1370   -3.4786    0.0000 C   0  0  0  0  0  0  0  0  0  0  0  0
    1.3586   -3.3639    0.0000 C   0  0  0  0  0  0  0  0  0  0  0  0
    1.7117   -1.9060    0.0000 C   0  0  0  0  0  0  0  0  0  0  0  0
    3.0313   -1.1929    0.0000 C   0  0  0  0  0  0  0  0  0  0  0  0
    4.3087   -1.9792    0.0000 C   0  0  0  0  0  0  0  0  0  0  0  0
    4.2665   -3.4786    0.0000 O   0  0  0  0  0  0  0  0  0  0  0  0
    5.6284   -1.2661    0.0000 C   0  0  0  0  0  0  0  0  0  0  0  0
    6.9058   -2.0524    0.0000 O   0  0  0  0  0  0  0  0  0  0  0  0
    5.6706    0.2333    0.0000 C   0  0  0  0  0  0  0  0  0  0  0  0
    6.9903    0.9464    0.0000 C   0  0  0  0  0  0  0  0  0  0  0  0
    7.0325    2.4458    0.0000 C   0  0  0  0  0  0  0  0  0  0  0  0
    8.3522    3.1589    0.0000 O   0  0  0  0  0  0  0  0  0  0  0  0
    5.7551    3.2321    0.0000 C   0  0  0  0  0  0  0  0  0  0  0  0
    4.4355    2.5190    0.0000 C   0  0  0  0  0  0  0  0  0  0  0  0
    4.3932    1.0196    0.0000 C   0  0  0  0  0  0  0  0  0  0  0  0
    3.1158    1.8059    0.0000 C   0  0  0  0  0  0  0  0  0  0  0  0
    3.0736    0.3065    0.0000 C   0  0  0  0  0  0  0  0  0  0  0  0
    1.7962    1.0928    0.0000 C   0  0  0  0  0  0  0  0  0  0  0  0
    0.4765    0.3797    0.0000 C   0  0  0  0  0  0  0  0  0  0  0  0
    0.4343   -1.1197    0.0000 C   0  0  0  0  0  0  0  0  0  0  0  0
   -0.9183   -0.4713    0.0000 C   0  0  0  0  0  0  0  0  0  0  0  0
  2  1  1  6
  2  3  1  0
  3  4  1  0
  4  5  1  0
  5  6  2  0
  5  7  1  0
  7  8  1  0
  7  9  1  0
  9 10  1  0
 10 11  1  0
 11 12  2  0
 11 13  1  0
  2 14  1  0
 14 15  1  6
 15 16  1  0
 17 16  1  6
 17 18  1  0
 18 19  1  1
 19 20  1  1
 19 21  1  0
 21 22  1  1
 21 23  1  0
 23 24  1  1
 24 25  1  0
 25 26  1  1
 25 27  1  0
 27 28  1  0
 28 29  1  0
 29 30  1  6
 29 31  1  0
 31 32  1  6
 32 33  1  0
 33 34  1  0
 34 35  1  6
 34 14  1  0
 34 17  1  0
 31 18  1  0
 29 23  1  0
M  END
>  <MS_ID>  (1075) 
MS1118

>  <SMILES>  (1075) 
C[C@H](CCC(=O)N(C)CCC(=O)O)[C@H]1CC[C@H]2[C@@H]3[C@H](O)[C@H](O)[C@@H]4C[C@H](O)CC[C@]4(C)[C@H]3CC[C@]12C

>  <Structure_dimension>  (1075) 
2D

$$$$
MS1119
     RDKit          2D

 35 39  0  0  0  0  0  0  0  0999 V2000
   -1.8808   -4.0339    0.0000 C   0  0  0  0  0  0  0  0  0  0  0  0
   -1.1003   -2.7530    0.0000 C   0  0  0  0  0  0  0  0  0  0  0  0
   -1.8193   -1.4366    0.0000 C   0  0  0  0  0  0  0  0  0  0  0  0
   -3.3189   -1.4011    0.0000 C   0  0  0  0  0  0  0  0  0  0  0  0
   -4.0380   -0.0847    0.0000 C   0  0  0  0  0  0  0  0  0  0  0  0
   -3.2575    1.1962    0.0000 O   0  0  0  0  0  0  0  0  0  0  0  0
   -5.5376   -0.0492    0.0000 O   0  0  0  0  0  0  0  0  0  0  0  0
   -6.2567    1.2672    0.0000 C   0  0  0  0  0  0  0  0  0  0  0  0
   -7.7562    1.3026    0.0000 C   0  0  0  0  0  0  0  0  0  0  0  0
   -8.4753    2.6190    0.0000 C   0  0  0  0  0  0  0  0  0  0  0  0
   -9.9749    2.6545    0.0000 C   0  0  0  0  0  0  0  0  0  0  0  0
  -10.7554    1.3735    0.0000 C   0  0  0  0  0  0  0  0  0  0  0  0
  -10.0363    0.0571    0.0000 C   0  0  0  0  0  0  0  0  0  0  0  0
   -8.5367    0.0217    0.0000 C   0  0  0  0  0  0  0  0  0  0  0  0
    0.3993   -2.7884    0.0000 C   0  0  0  0  0  0  0  0  0  0  0  0
    1.2521   -4.0225    0.0000 C   0  0  0  0  0  0  0  0  0  0  0  0
    2.6892   -3.5928    0.0000 C   0  0  0  0  0  0  0  0  0  0  0  0
    2.7247   -2.0932    0.0000 C   0  0  0  0  0  0  0  0  0  0  0  0
    3.8628   -1.1162    0.0000 C   0  0  0  0  0  0  0  0  0  0  0  0
    5.2780   -1.6133    0.0000 C   0  0  0  0  0  0  0  0  0  0  0  0
    5.5551   -3.0875    0.0000 O   0  0  0  0  0  0  0  0  0  0  0  0
    6.4162   -0.6362    0.0000 C   0  0  0  0  0  0  0  0  0  0  0  0
    6.1391    0.8380    0.0000 C   0  0  0  0  0  0  0  0  0  0  0  0
    7.2772    1.8150    0.0000 C   0  0  0  0  0  0  0  0  0  0  0  0
    7.0001    3.2892    0.0000 C   0  0  0  0  0  0  0  0  0  0  0  0
    8.1382    4.2663    0.0000 O   0  0  0  0  0  0  0  0  0  0  0  0
    5.5849    3.7863    0.0000 C   0  0  0  0  0  0  0  0  0  0  0  0
    4.4467    2.8093    0.0000 C   0  0  0  0  0  0  0  0  0  0  0  0
    4.7238    1.3351    0.0000 C   0  0  0  0  0  0  0  0  0  0  0  0
    3.3086    1.8322    0.0000 C   0  0  0  0  0  0  0  0  0  0  0  0
    3.5857    0.3580    0.0000 C   0  0  0  0  0  0  0  0  0  0  0  0
    2.1705    0.8551    0.0000 C   0  0  0  0  0  0  0  0  0  0  0  0
    1.0323   -0.1219    0.0000 C   0  0  0  0  0  0  0  0  0  0  0  0
    1.3094   -1.5961    0.0000 C   0  0  0  0  0  0  0  0  0  0  0  0
   -0.1500   -1.2496    0.0000 C   0  0  0  0  0  0  0  0  0  0  0  0
  2  1  1  6
  2  3  1  0
  3  4  1  0
  4  5  1  0
  5  6  2  0
  5  7  1  0
  7  8  1  0
  8  9  1  0
  9 10  2  0
 10 11  1  0
 11 12  2  0
 12 13  1  0
 13 14  2  0
  2 15  1  0
 15 16  1  6
 16 17  1  0
 18 17  1  6
 18 19  1  0
 19 20  1  1
 20 21  1  1
 20 22  1  0
 23 22  1  1
 23 24  1  0
 24 25  1  0
 25 26  1  1
 25 27  1  0
 27 28  1  0
 28 29  1  0
 29 30  1  6
 29 31  1  0
 31 32  1  6
 32 33  1  0
 33 34  1  0
 34 35  1  6
 14  9  1  0
 34 15  1  0
 34 18  1  0
 31 19  1  0
 29 23  1  0
M  END
>  <MS_ID>  (1076) 
MS1119

>  <SMILES>  (1076) 
C[C@H](CCC(=O)OCc1ccccc1)[C@H]1CC[C@H]2[C@@H]3[C@H](O)C[C@@H]4C[C@H](O)CC[C@]4(C)[C@H]3CC[C@]12C

>  <Structure_dimension>  (1076) 
2D

$$$$
MS1120
     RDKit          2D

 36 39  0  0  0  0  0  0  0  0999 V2000
  -10.5242    2.5709    0.0000 C   0  0  0  0  0  0  0  0  0  0  0  0
   -9.7352    1.2952    0.0000 C   0  0  0  0  0  0  0  0  0  0  0  0
   -8.2359    1.3407    0.0000 C   0  0  0  0  0  0  0  0  0  0  0  0
   -7.4468    0.0650    0.0000 O   0  0  0  0  0  0  0  0  0  0  0  0
   -5.9475    0.1104    0.0000 C   0  0  0  0  0  0  0  0  0  0  0  0
   -5.2373    1.4316    0.0000 O   0  0  0  0  0  0  0  0  0  0  0  0
   -5.1585   -1.1653    0.0000 C   0  0  0  0  0  0  0  0  0  0  0  0
   -3.6592   -1.1198    0.0000 C   0  0  0  0  0  0  0  0  0  0  0  0
   -2.8702   -2.3955    0.0000 C   0  0  0  0  0  0  0  0  0  0  0  0
   -3.5804   -3.7167    0.0000 C   0  0  0  0  0  0  0  0  0  0  0  0
   -1.3708   -2.3501    0.0000 C   0  0  0  0  0  0  0  0  0  0  0  0
   -0.4528   -3.5363    0.0000 C   0  0  0  0  0  0  0  0  0  0  0  0
    0.9591   -3.0297    0.0000 C   0  0  0  0  0  0  0  0  0  0  0  0
    0.9136   -1.5304    0.0000 C   0  0  0  0  0  0  0  0  0  0  0  0
    1.9974   -0.4934    0.0000 C   0  0  0  0  0  0  0  0  0  0  0  0
    3.4374   -0.9135    0.0000 C   0  0  0  0  0  0  0  0  0  0  0  0
    3.7936   -2.3706    0.0000 O   0  0  0  0  0  0  0  0  0  0  0  0
    5.2336   -2.7906    0.0000 S   0  0  0  0  0  0  0  0  0  0  0  0
    5.6536   -1.3507    0.0000 O   0  0  0  0  0  0  0  0  0  0  0  0
    4.8135   -4.2306    0.0000 O   0  0  0  0  0  0  0  0  0  0  0  0
    6.6735   -3.2107    0.0000 O   0  0  0  0  0  0  0  0  0  0  0  0
    4.5212    0.1236    0.0000 C   0  0  0  0  0  0  0  0  0  0  0  0
    4.1650    1.5806    0.0000 C   0  0  0  0  0  0  0  0  0  0  0  0
    5.2487    2.6177    0.0000 C   0  0  0  0  0  0  0  0  0  0  0  0
    4.8925    4.0748    0.0000 C   0  0  0  0  0  0  0  0  0  0  0  0
    5.9763    5.1118    0.0000 O   0  0  0  0  0  0  0  0  0  0  0  0
    3.4526    4.4948    0.0000 C   0  0  0  0  0  0  0  0  0  0  0  0
    2.3688    3.4578    0.0000 C   0  0  0  0  0  0  0  0  0  0  0  0
    2.7250    2.0007    0.0000 C   0  0  0  0  0  0  0  0  0  0  0  0
    1.2850    2.4208    0.0000 C   0  0  0  0  0  0  0  0  0  0  0  0
    1.6412    0.9637    0.0000 C   0  0  0  0  0  0  0  0  0  0  0  0
    0.2012    1.3838    0.0000 C   0  0  0  0  0  0  0  0  0  0  0  0
   -0.8826    0.3467    0.0000 C   0  0  0  0  0  0  0  0  0  0  0  0
   -2.3225    0.7668    0.0000 O   0  0  0  0  0  0  0  0  0  0  0  0
   -0.5264   -1.1104    0.0000 C   0  0  0  0  0  0  0  0  0  0  0  0
   -2.0024   -0.8431    0.0000 C   0  0  0  0  0  0  0  0  0  0  0  0
  1  2  1  0
  2  3  1  0
  3  4  1  0
  4  5  1  0
  5  6  2  0
  5  7  1  0
  7  8  1  0
  8  9  1  0
  9 10  1  6
  9 11  1  0
 11 12  1  6
 12 13  1  0
 14 13  1  6
 14 15  1  0
 15 16  1  1
 16 17  1  1
 17 18  1  0
 18 19  2  0
 18 20  2  0
 18 21  1  0
 16 22  1  0
 23 22  1  1
 23 24  1  0
 24 25  1  0
 25 26  1  1
 25 27  1  0
 27 28  1  0
 28 29  1  0
 29 30  1  6
 29 31  1  0
 31 32  1  6
 32 33  1  0
 33 34  1  1
 33 35  1  0
 35 36  1  6
 35 11  1  0
 35 14  1  0
 31 15  1  0
 29 23  1  0
M  END
>  <MS_ID>  (1077) 
MS1120

>  <SMILES>  (1077) 
CCCOC(=O)CC[C@@H](C)[C@H]1CC[C@H]2[C@@H]3[C@H](OS(=O)(=O)O)C[C@@H]4C[C@H](O)CC[C@]4(C)[C@H]3C[C@H](O)[C@]12C

>  <Structure_dimension>  (1077) 
2D

$$$$
MS1121
     RDKit          2D

 29 32  0  0  0  0  0  0  0  0999 V2000
   -7.4712    3.6525    0.0000 C   0  0  0  0  0  0  0  0  0  0  0  0
   -7.1264    2.1927    0.0000 C   0  0  0  0  0  0  0  0  0  0  0  0
   -5.6897    1.7615    0.0000 C   0  0  0  0  0  0  0  0  0  0  0  0
   -4.5979    2.7900    0.0000 O   0  0  0  0  0  0  0  0  0  0  0  0
   -5.3448    0.3016    0.0000 C   0  0  0  0  0  0  0  0  0  0  0  0
   -3.9081   -0.1296    0.0000 C   0  0  0  0  0  0  0  0  0  0  0  0
   -3.5633   -1.5894    0.0000 C   0  0  0  0  0  0  0  0  0  0  0  0
   -4.6551   -2.6180    0.0000 C   0  0  0  0  0  0  0  0  0  0  0  0
   -2.1266   -2.0207    0.0000 C   0  0  0  0  0  0  0  0  0  0  0  0
   -1.6310   -3.4364    0.0000 C   0  0  0  0  0  0  0  0  0  0  0  0
   -0.1314   -3.4026    0.0000 C   0  0  0  0  0  0  0  0  0  0  0  0
    0.2998   -1.9659    0.0000 C   0  0  0  0  0  0  0  0  0  0  0  0
    1.6561   -1.3251    0.0000 C   0  0  0  0  0  0  0  0  0  0  0  0
    2.8892   -2.1792    0.0000 C   0  0  0  0  0  0  0  0  0  0  0  0
    2.7660   -3.6741    0.0000 O   0  0  0  0  0  0  0  0  0  0  0  0
    4.2454   -1.5383    0.0000 C   0  0  0  0  0  0  0  0  0  0  0  0
    4.3685   -0.0434    0.0000 C   0  0  0  0  0  0  0  0  0  0  0  0
    5.7247    0.5975    0.0000 C   0  0  0  0  0  0  0  0  0  0  0  0
    5.8478    2.0924    0.0000 C   0  0  0  0  0  0  0  0  0  0  0  0
    7.2040    2.7332    0.0000 O   0  0  0  0  0  0  0  0  0  0  0  0
    4.6147    2.9465    0.0000 C   0  0  0  0  0  0  0  0  0  0  0  0
    3.2585    2.3056    0.0000 C   0  0  0  0  0  0  0  0  0  0  0  0
    3.1354    0.8107    0.0000 C   0  0  0  0  0  0  0  0  0  0  0  0
    1.9023    1.6648    0.0000 C   0  0  0  0  0  0  0  0  0  0  0  0
    1.7792    0.1699    0.0000 C   0  0  0  0  0  0  0  0  0  0  0  0
    0.5461    1.0239    0.0000 C   0  0  0  0  0  0  0  0  0  0  0  0
   -0.8101    0.3831    0.0000 C   0  0  0  0  0  0  0  0  0  0  0  0
   -0.9333   -1.1118    0.0000 C   0  0  0  0  0  0  0  0  0  0  0  0
   -2.2489   -0.3913    0.0000 C   0  0  0  0  0  0  0  0  0  0  0  0
  1  2  1  0
  2  3  1  0
  3  4  2  0
  3  5  1  0
  5  6  1  0
  6  7  1  0
  7  8  1  6
  7  9  1  0
  9 10  1  6
 10 11  1  0
 12 11  1  6
 12 13  1  0
 13 14  1  1
 14 15  1  1
 14 16  1  0
 17 16  1  1
 17 18  1  0
 18 19  1  0
 19 20  1  1
 19 21  1  0
 21 22  1  0
 22 23  1  0
 23 24  1  6
 23 25  1  0
 25 26  1  6
 26 27  1  0
 27 28  1  0
 28 29  1  6
 28  9  1  0
 28 12  1  0
 25 13  1  0
 23 17  1  0
M  END
>  <MS_ID>  (1078) 
MS1121

>  <SMILES>  (1078) 
CCC(=O)CC[C@@H](C)[C@H]1CC[C@H]2[C@@H]3[C@H](O)C[C@@H]4C[C@H](O)CC[C@]4(C)[C@H]3CC[C@]12C

>  <Structure_dimension>  (1078) 
2D

$$$$
MS1122
     RDKit          2D

 34 37  0  0  0  0  0  0  0  0999 V2000
   -2.4067   -4.2005    0.0000 C   0  0  0  0  0  0  0  0  0  0  0  0
   -1.6045   -2.9330    0.0000 C   0  0  0  0  0  0  0  0  0  0  0  0
   -2.3010   -1.6046    0.0000 C   0  0  0  0  0  0  0  0  0  0  0  0
   -3.7998   -1.5436    0.0000 C   0  0  0  0  0  0  0  0  0  0  0  0
   -4.4964   -0.2151    0.0000 C   0  0  0  0  0  0  0  0  0  0  0  0
   -3.6942    1.0523    0.0000 O   0  0  0  0  0  0  0  0  0  0  0  0
   -5.9951   -0.1542    0.0000 N   0  0  0  0  0  0  0  0  0  0  0  0
   -6.6917    1.1743    0.0000 S   0  0  0  0  0  0  0  0  0  0  0  0
   -8.0201    0.4777    0.0000 O   0  0  0  0  0  0  0  0  0  0  0  0
   -5.3632    1.8709    0.0000 O   0  0  0  0  0  0  0  0  0  0  0  0
   -7.3883    2.5028    0.0000 N   0  0  0  0  0  0  0  0  0  0  0  0
   -6.5861    3.7702    0.0000 C   0  0  0  0  0  0  0  0  0  0  0  0
   -8.8870    2.5637    0.0000 C   0  0  0  0  0  0  0  0  0  0  0  0
   -0.1057   -2.9940    0.0000 C   0  0  0  0  0  0  0  0  0  0  0  0
    0.7259   -4.2424    0.0000 C   0  0  0  0  0  0  0  0  0  0  0  0
    2.1702   -3.8372    0.0000 C   0  0  0  0  0  0  0  0  0  0  0  0
    2.2311   -2.3385    0.0000 C   0  0  0  0  0  0  0  0  0  0  0  0
    3.3857   -1.3809    0.0000 C   0  0  0  0  0  0  0  0  0  0  0  0
    4.7923   -1.9021    0.0000 C   0  0  0  0  0  0  0  0  0  0  0  0
    5.9469   -0.9445    0.0000 C   0  0  0  0  0  0  0  0  0  0  0  0
    5.6949    0.5342    0.0000 C   0  0  0  0  0  0  0  0  0  0  0  0
    6.8495    1.4917    0.0000 C   0  0  0  0  0  0  0  0  0  0  0  0
    6.5976    2.9704    0.0000 C   0  0  0  0  0  0  0  0  0  0  0  0
    7.7522    3.9279    0.0000 O   0  0  0  0  0  0  0  0  0  0  0  0
    5.1910    3.4915    0.0000 C   0  0  0  0  0  0  0  0  0  0  0  0
    4.0364    2.5340    0.0000 C   0  0  0  0  0  0  0  0  0  0  0  0
    4.2884    1.0553    0.0000 C   0  0  0  0  0  0  0  0  0  0  0  0
    2.8818    1.5764    0.0000 C   0  0  0  0  0  0  0  0  0  0  0  0
    3.1338    0.0978    0.0000 C   0  0  0  0  0  0  0  0  0  0  0  0
    1.7272    0.6189    0.0000 C   0  0  0  0  0  0  0  0  0  0  0  0
    0.5726   -0.3386    0.0000 C   0  0  0  0  0  0  0  0  0  0  0  0
   -0.8339    0.1825    0.0000 O   0  0  0  0  0  0  0  0  0  0  0  0
    0.8246   -1.8173    0.0000 C   0  0  0  0  0  0  0  0  0  0  0  0
   -0.6287   -1.4461    0.0000 C   0  0  0  0  0  0  0  0  0  0  0  0
  2  1  1  6
  2  3  1  0
  3  4  1  0
  4  5  1  0
  5  6  2  0
  5  7  1  0
  7  8  1  0
  8  9  2  0
  8 10  2  0
  8 11  1  0
 11 12  1  0
 11 13  1  0
  2 14  1  0
 14 15  1  6
 15 16  1  0
 17 16  1  6
 17 18  1  0
 18 19  1  1
 19 20  1  0
 21 20  1  1
 21 22  1  0
 22 23  1  0
 23 24  1  1
 23 25  1  0
 25 26  1  0
 26 27  1  0
 27 28  1  6
 27 29  1  0
 29 30  1  6
 30 31  1  0
 31 32  1  1
 31 33  1  0
 33 34  1  6
 33 14  1  0
 33 17  1  0
 29 18  1  0
 27 21  1  0
M  END
>  <MS_ID>  (1079) 
MS1122

>  <SMILES>  (1079) 
C[C@H](CCC(=O)NS(=O)(=O)N(C)C)[C@H]1CC[C@H]2[C@@H]3CC[C@@H]4C[C@H](O)CC[C@]4(C)[C@H]3C[C@H](O)[C@]12C

>  <Structure_dimension>  (1079) 
2D

$$$$
MS1123
     RDKit          2D

 31 34  0  0  0  0  0  0  0  0999 V2000
   -3.4301   -3.6172    0.0000 C   0  0  0  0  0  0  0  0  0  0  0  0
   -2.4973   -2.4425    0.0000 C   0  0  0  0  0  0  0  0  0  0  0  0
   -3.0483   -1.0473    0.0000 C   0  0  0  0  0  0  0  0  0  0  0  0
   -4.5321   -0.8270    0.0000 C   0  0  0  0  0  0  0  0  0  0  0  0
   -5.0831    0.5682    0.0000 C   0  0  0  0  0  0  0  0  0  0  0  0
   -4.1503    1.7429    0.0000 O   0  0  0  0  0  0  0  0  0  0  0  0
   -6.5668    0.7886    0.0000 N   0  0  0  0  0  0  0  0  0  0  0  0
   -7.1178    2.1837    0.0000 C   0  0  0  0  0  0  0  0  0  0  0  0
   -8.6015    2.4041    0.0000 C   0  0  0  0  0  0  0  0  0  0  0  0
   -9.1525    3.7992    0.0000 O   0  0  0  0  0  0  0  0  0  0  0  0
   -1.0136   -2.6629    0.0000 C   0  0  0  0  0  0  0  0  0  0  0  0
   -0.3198   -3.9928    0.0000 C   0  0  0  0  0  0  0  0  0  0  0  0
    1.1594   -3.7439    0.0000 C   0  0  0  0  0  0  0  0  0  0  0  0
    1.3798   -2.2602    0.0000 C   0  0  0  0  0  0  0  0  0  0  0  0
    2.6299   -1.4311    0.0000 C   0  0  0  0  0  0  0  0  0  0  0  0
    3.9729   -2.0992    0.0000 C   0  0  0  0  0  0  0  0  0  0  0  0
    5.2230   -1.2702    0.0000 C   0  0  0  0  0  0  0  0  0  0  0  0
    5.1301    0.2269    0.0000 C   0  0  0  0  0  0  0  0  0  0  0  0
    6.3802    1.0559    0.0000 C   0  0  0  0  0  0  0  0  0  0  0  0
    6.2872    2.5531    0.0000 C   0  0  0  0  0  0  0  0  0  0  0  0
    7.5373    3.3821    0.0000 O   0  0  0  0  0  0  0  0  0  0  0  0
    4.9442    3.2212    0.0000 C   0  0  0  0  0  0  0  0  0  0  0  0
    3.6942    2.3921    0.0000 C   0  0  0  0  0  0  0  0  0  0  0  0
    3.7871    0.8950    0.0000 C   0  0  0  0  0  0  0  0  0  0  0  0
    2.4441    1.5631    0.0000 C   0  0  0  0  0  0  0  0  0  0  0  0
    2.5370    0.0660    0.0000 C   0  0  0  0  0  0  0  0  0  0  0  0
    1.1940    0.7341    0.0000 C   0  0  0  0  0  0  0  0  0  0  0  0
   -0.0561   -0.0949    0.0000 C   0  0  0  0  0  0  0  0  0  0  0  0
   -1.3991    0.5732    0.0000 O   0  0  0  0  0  0  0  0  0  0  0  0
    0.0368   -1.5921    0.0000 C   0  0  0  0  0  0  0  0  0  0  0  0
   -1.3687   -1.0680    0.0000 C   0  0  0  0  0  0  0  0  0  0  0  0
  2  1  1  6
  2  3  1  0
  3  4  1  0
  4  5  1  0
  5  6  2  0
  5  7  1  0
  7  8  1  0
  8  9  1  0
  9 10  1  0
  2 11  1  0
 11 12  1  6
 12 13  1  0
 14 13  1  6
 14 15  1  0
 15 16  1  1
 16 17  1  0
 18 17  1  1
 18 19  1  0
 19 20  1  0
 20 21  1  6
 20 22  1  0
 22 23  1  0
 23 24  1  0
 24 25  1  6
 24 26  1  0
 26 27  1  6
 27 28  1  0
 28 29  1  1
 28 30  1  0
 30 31  1  6
 30 11  1  0
 30 14  1  0
 26 15  1  0
 24 18  1  0
M  END
>  <MS_ID>  (1080) 
MS1123

>  <SMILES>  (1080) 
C[C@H](CCC(=O)NCCO)[C@H]1CC[C@H]2[C@@H]3CC[C@@H]4C[C@@H](O)CC[C@]4(C)[C@H]3C[C@H](O)[C@]12C

>  <Structure_dimension>  (1080) 
2D

$$$$
MS1124
     RDKit          2D

 35 39  0  0  0  0  0  0  0  0999 V2000
   -2.4249   -4.3282    0.0000 C   0  0  0  0  0  0  0  0  0  0  0  0
   -1.7208   -3.0038    0.0000 C   0  0  0  0  0  0  0  0  0  0  0  0
   -2.5157   -1.7317    0.0000 C   0  0  0  0  0  0  0  0  0  0  0  0
   -4.0147   -1.7841    0.0000 C   0  0  0  0  0  0  0  0  0  0  0  0
   -4.8097   -0.5121    0.0000 C   0  0  0  0  0  0  0  0  0  0  0  0
   -4.1055    0.8124    0.0000 O   0  0  0  0  0  0  0  0  0  0  0  0
   -6.3087   -0.5645    0.0000 C   0  0  0  0  0  0  0  0  0  0  0  0
   -7.1037    0.7076    0.0000 C   0  0  0  0  0  0  0  0  0  0  0  0
   -6.3995    2.0320    0.0000 C   0  0  0  0  0  0  0  0  0  0  0  0
   -7.1944    3.3041    0.0000 C   0  0  0  0  0  0  0  0  0  0  0  0
   -8.6935    3.2517    0.0000 C   0  0  0  0  0  0  0  0  0  0  0  0
   -9.3977    1.9272    0.0000 C   0  0  0  0  0  0  0  0  0  0  0  0
   -8.6027    0.6552    0.0000 N   0  0  0  0  0  0  0  0  0  0  0  0
   -0.2217   -2.9514    0.0000 C   0  0  0  0  0  0  0  0  0  0  0  0
    0.7019   -4.1334    0.0000 C   0  0  0  0  0  0  0  0  0  0  0  0
    2.1114   -3.6203    0.0000 C   0  0  0  0  0  0  0  0  0  0  0  0
    2.0590   -2.1213    0.0000 C   0  0  0  0  0  0  0  0  0  0  0  0
    3.1380   -1.0792    0.0000 C   0  0  0  0  0  0  0  0  0  0  0  0
    4.5799   -1.4927    0.0000 C   0  0  0  0  0  0  0  0  0  0  0  0
    4.9428   -2.9481    0.0000 O   0  0  0  0  0  0  0  0  0  0  0  0
    5.6589   -0.4506    0.0000 C   0  0  0  0  0  0  0  0  0  0  0  0
    7.1008   -0.8641    0.0000 O   0  0  0  0  0  0  0  0  0  0  0  0
    5.2959    1.0048    0.0000 C   0  0  0  0  0  0  0  0  0  0  0  0
    6.3749    2.0468    0.0000 C   0  0  0  0  0  0  0  0  0  0  0  0
    6.0120    3.5022    0.0000 C   0  0  0  0  0  0  0  0  0  0  0  0
    7.0910    4.5443    0.0000 O   0  0  0  0  0  0  0  0  0  0  0  0
    4.5701    3.9157    0.0000 C   0  0  0  0  0  0  0  0  0  0  0  0
    3.4911    2.8736    0.0000 C   0  0  0  0  0  0  0  0  0  0  0  0
    3.8540    1.4182    0.0000 C   0  0  0  0  0  0  0  0  0  0  0  0
    2.4121    1.8316    0.0000 C   0  0  0  0  0  0  0  0  0  0  0  0
    2.7751    0.3762    0.0000 C   0  0  0  0  0  0  0  0  0  0  0  0
    1.3332    0.7896    0.0000 C   0  0  0  0  0  0  0  0  0  0  0  0
    0.2542   -0.2524    0.0000 C   0  0  0  0  0  0  0  0  0  0  0  0
    0.6171   -1.7078    0.0000 C   0  0  0  0  0  0  0  0  0  0  0  0
   -0.8601   -1.4474    0.0000 C   0  0  0  0  0  0  0  0  0  0  0  0
  2  1  1  6
  2  3  1  0
  3  4  1  0
  4  5  1  0
  5  6  2  0
  5  7  1  0
  7  8  1  0
  8  9  2  0
  9 10  1  0
 10 11  2  0
 11 12  1  0
 12 13  2  0
  2 14  1  0
 14 15  1  6
 15 16  1  0
 17 16  1  6
 17 18  1  0
 18 19  1  1
 19 20  1  1
 19 21  1  0
 21 22  1  1
 21 23  1  0
 23 24  1  1
 24 25  1  0
 25 26  1  1
 25 27  1  0
 27 28  1  0
 28 29  1  0
 29 30  1  6
 29 31  1  0
 31 32  1  6
 32 33  1  0
 33 34  1  0
 34 35  1  6
 13  8  1  0
 34 14  1  0
 34 17  1  0
 31 18  1  0
 29 23  1  0
M  END
>  <MS_ID>  (1081) 
MS1124

>  <SMILES>  (1081) 
C[C@H](CCC(=O)Cc1ccccn1)[C@H]1CC[C@H]2[C@@H]3[C@H](O)[C@H](O)[C@@H]4C[C@H](O)CC[C@]4(C)[C@H]3CC[C@]12C

>  <Structure_dimension>  (1081) 
2D

$$$$
MS1125
     RDKit          2D

 29 32  0  0  0  0  0  0  0  0999 V2000
   -4.6551   -2.6180    0.0000 C   0  0  0  0  0  0  0  0  0  0  0  0
   -3.5633   -1.5894    0.0000 C   0  0  0  0  0  0  0  0  0  0  0  0
   -3.9081   -0.1296    0.0000 C   0  0  0  0  0  0  0  0  0  0  0  0
   -5.3448    0.3016    0.0000 C   0  0  0  0  0  0  0  0  0  0  0  0
   -5.6897    1.7615    0.0000 C   0  0  0  0  0  0  0  0  0  0  0  0
   -4.5979    2.7900    0.0000 O   0  0  0  0  0  0  0  0  0  0  0  0
   -7.1264    2.1927    0.0000 N   0  0  0  0  0  0  0  0  0  0  0  0
   -7.4712    3.6525    0.0000 O   0  0  0  0  0  0  0  0  0  0  0  0
   -2.1266   -2.0207    0.0000 C   0  0  0  0  0  0  0  0  0  0  0  0
   -1.6310   -3.4364    0.0000 C   0  0  0  0  0  0  0  0  0  0  0  0
   -0.1314   -3.4026    0.0000 C   0  0  0  0  0  0  0  0  0  0  0  0
    0.2998   -1.9659    0.0000 C   0  0  0  0  0  0  0  0  0  0  0  0
    1.6561   -1.3251    0.0000 C   0  0  0  0  0  0  0  0  0  0  0  0
    2.8892   -2.1792    0.0000 C   0  0  0  0  0  0  0  0  0  0  0  0
    2.7660   -3.6741    0.0000 O   0  0  0  0  0  0  0  0  0  0  0  0
    4.2454   -1.5383    0.0000 C   0  0  0  0  0  0  0  0  0  0  0  0
    4.3685   -0.0434    0.0000 C   0  0  0  0  0  0  0  0  0  0  0  0
    5.7247    0.5975    0.0000 C   0  0  0  0  0  0  0  0  0  0  0  0
    5.8478    2.0924    0.0000 C   0  0  0  0  0  0  0  0  0  0  0  0
    7.2040    2.7332    0.0000 O   0  0  0  0  0  0  0  0  0  0  0  0
    4.6147    2.9465    0.0000 C   0  0  0  0  0  0  0  0  0  0  0  0
    3.2585    2.3056    0.0000 C   0  0  0  0  0  0  0  0  0  0  0  0
    3.1354    0.8107    0.0000 C   0  0  0  0  0  0  0  0  0  0  0  0
    1.9023    1.6648    0.0000 C   0  0  0  0  0  0  0  0  0  0  0  0
    1.7792    0.1699    0.0000 C   0  0  0  0  0  0  0  0  0  0  0  0
    0.5461    1.0239    0.0000 C   0  0  0  0  0  0  0  0  0  0  0  0
   -0.8101    0.3831    0.0000 C   0  0  0  0  0  0  0  0  0  0  0  0
   -0.9333   -1.1118    0.0000 C   0  0  0  0  0  0  0  0  0  0  0  0
   -2.2489   -0.3913    0.0000 C   0  0  0  0  0  0  0  0  0  0  0  0
  2  1  1  6
  2  3  1  0
  3  4  1  0
  4  5  1  0
  5  6  2  0
  5  7  1  0
  7  8  1  0
  2  9  1  0
  9 10  1  6
 10 11  1  0
 12 11  1  6
 12 13  1  0
 13 14  1  1
 14 15  1  6
 14 16  1  0
 17 16  1  1
 17 18  1  0
 18 19  1  0
 19 20  1  1
 19 21  1  0
 21 22  1  0
 22 23  1  0
 23 24  1  6
 23 25  1  0
 25 26  1  6
 26 27  1  0
 27 28  1  0
 28 29  1  6
 28  9  1  0
 28 12  1  0
 25 13  1  0
 23 17  1  0
M  END
>  <MS_ID>  (1082) 
MS1125

>  <SMILES>  (1082) 
C[C@H](CCC(=O)NO)[C@H]1CC[C@H]2[C@@H]3[C@@H](O)C[C@@H]4C[C@H](O)CC[C@]4(C)[C@H]3CC[C@]12C

>  <Structure_dimension>  (1082) 
2D

$$$$
MS1126
     RDKit          2D

 30 33  0  0  0  0  0  0  0  0999 V2000
   -3.5909   -3.2894    0.0000 C   0  0  0  0  0  0  0  0  0  0  0  0
   -2.6685   -2.1066    0.0000 C   0  0  0  0  0  0  0  0  0  0  0  0
   -3.2316   -0.7163    0.0000 C   0  0  0  0  0  0  0  0  0  0  0  0
   -4.7172   -0.5088    0.0000 C   0  0  0  0  0  0  0  0  0  0  0  0
   -5.2803    0.8815    0.0000 C   0  0  0  0  0  0  0  0  0  0  0  0
   -4.3578    2.0643    0.0000 O   0  0  0  0  0  0  0  0  0  0  0  0
   -6.7659    1.0889    0.0000 O   0  0  0  0  0  0  0  0  0  0  0  0
   -7.3290    2.4792    0.0000 C   0  0  0  0  0  0  0  0  0  0  0  0
   -8.8146    2.6867    0.0000 O   0  0  0  0  0  0  0  0  0  0  0  0
   -1.1829   -2.3140    0.0000 C   0  0  0  0  0  0  0  0  0  0  0  0
   -0.4775   -3.6378    0.0000 C   0  0  0  0  0  0  0  0  0  0  0  0
    0.9995   -3.3760    0.0000 C   0  0  0  0  0  0  0  0  0  0  0  0
    1.2069   -1.8905    0.0000 C   0  0  0  0  0  0  0  0  0  0  0  0
    2.4498   -1.0506    0.0000 C   0  0  0  0  0  0  0  0  0  0  0  0
    3.7985   -1.7070    0.0000 C   0  0  0  0  0  0  0  0  0  0  0  0
    3.9045   -3.2032    0.0000 O   0  0  0  0  0  0  0  0  0  0  0  0
    5.0414   -0.8671    0.0000 C   0  0  0  0  0  0  0  0  0  0  0  0
    4.9354    0.6292    0.0000 C   0  0  0  0  0  0  0  0  0  0  0  0
    6.1782    1.4691    0.0000 C   0  0  0  0  0  0  0  0  0  0  0  0
    6.0723    2.9653    0.0000 C   0  0  0  0  0  0  0  0  0  0  0  0
    4.7235    3.6217    0.0000 C   0  0  0  0  0  0  0  0  0  0  0  0
    3.4807    2.7818    0.0000 C   0  0  0  0  0  0  0  0  0  0  0  0
    3.5866    1.2856    0.0000 C   0  0  0  0  0  0  0  0  0  0  0  0
    2.2379    1.9419    0.0000 C   0  0  0  0  0  0  0  0  0  0  0  0
    2.3438    0.4457    0.0000 C   0  0  0  0  0  0  0  0  0  0  0  0
    0.9950    1.1020    0.0000 C   0  0  0  0  0  0  0  0  0  0  0  0
   -0.2478    0.2622    0.0000 C   0  0  0  0  0  0  0  0  0  0  0  0
   -1.5965    0.9185    0.0000 O   0  0  0  0  0  0  0  0  0  0  0  0
   -0.1418   -1.2341    0.0000 C   0  0  0  0  0  0  0  0  0  0  0  0
   -1.5518   -0.7223    0.0000 C   0  0  0  0  0  0  0  0  0  0  0  0
  2  1  1  6
  2  3  1  0
  3  4  1  0
  4  5  1  0
  5  6  2  0
  5  7  1  0
  7  8  1  0
  8  9  1  0
  2 10  1  0
 10 11  1  6
 11 12  1  0
 13 12  1  6
 13 14  1  0
 14 15  1  1
 15 16  1  1
 15 17  1  0
 18 17  1  1
 18 19  1  0
 19 20  1  0
 20 21  1  0
 21 22  1  0
 22 23  1  0
 23 24  1  6
 23 25  1  0
 25 26  1  6
 26 27  1  0
 27 28  1  1
 27 29  1  0
 29 30  1  6
 29 10  1  0
 29 13  1  0
 25 14  1  0
 23 18  1  0
M  END
>  <MS_ID>  (1083) 
MS1126

>  <SMILES>  (1083) 
C[C@H](CCC(=O)OCO)[C@H]1CC[C@H]2[C@@H]3[C@H](O)C[C@@H]4CCCC[C@]4(C)[C@H]3C[C@H](O)[C@]12C

>  <Structure_dimension>  (1083) 
2D

$$$$
MS1127
     RDKit          2D

 29 32  0  0  0  0  0  0  0  0999 V2000
   -4.9165   -2.3086    0.0000 C   0  0  0  0  0  0  0  0  0  0  0  0
   -3.7338   -1.3860    0.0000 C   0  0  0  0  0  0  0  0  0  0  0  0
   -3.9415    0.0996    0.0000 C   0  0  0  0  0  0  0  0  0  0  0  0
   -5.3319    0.6625    0.0000 C   0  0  0  0  0  0  0  0  0  0  0  0
   -5.5396    2.1481    0.0000 C   0  0  0  0  0  0  0  0  0  0  0  0
   -4.3569    3.0707    0.0000 O   0  0  0  0  0  0  0  0  0  0  0  0
   -6.9299    2.7110    0.0000 O   0  0  0  0  0  0  0  0  0  0  0  0
   -2.3435   -1.9489    0.0000 C   0  0  0  0  0  0  0  0  0  0  0  0
   -1.9816   -3.4046    0.0000 C   0  0  0  0  0  0  0  0  0  0  0  0
   -0.4854   -3.5103    0.0000 C   0  0  0  0  0  0  0  0  0  0  0  0
    0.0775   -2.1199    0.0000 C   0  0  0  0  0  0  0  0  0  0  0  0
    1.4875   -1.6079    0.0000 C   0  0  0  0  0  0  0  0  0  0  0  0
    2.6358   -2.5730    0.0000 C   0  0  0  0  0  0  0  0  0  0  0  0
    4.0457   -2.0609    0.0000 C   0  0  0  0  0  0  0  0  0  0  0  0
    4.3073   -0.5839    0.0000 C   0  0  0  0  0  0  0  0  0  0  0  0
    5.7172   -0.0719    0.0000 C   0  0  0  0  0  0  0  0  0  0  0  0
    5.9787    1.4051    0.0000 C   0  0  0  0  0  0  0  0  0  0  0  0
    7.3886    1.9171    0.0000 O   0  0  0  0  0  0  0  0  0  0  0  0
    4.8304    2.3701    0.0000 C   0  0  0  0  0  0  0  0  0  0  0  0
    3.4205    1.8581    0.0000 C   0  0  0  0  0  0  0  0  0  0  0  0
    3.1589    0.3811    0.0000 C   0  0  0  0  0  0  0  0  0  0  0  0
    2.0105    1.3461    0.0000 C   0  0  0  0  0  0  0  0  0  0  0  0
    1.7490   -0.1309    0.0000 C   0  0  0  0  0  0  0  0  0  0  0  0
    0.6006    0.8341    0.0000 C   0  0  0  0  0  0  0  0  0  0  0  0
   -0.8093    0.3221    0.0000 C   0  0  0  0  0  0  0  0  0  0  0  0
   -1.9576    1.2871    0.0000 O   0  0  0  0  0  0  0  0  0  0  0  0
   -1.6961    2.7641    0.0000 O   0  0  0  0  0  0  0  0  0  0  0  0
   -1.0708   -1.1549    0.0000 C   0  0  0  0  0  0  0  0  0  0  0  0
   -2.3138   -0.3152    0.0000 C   0  0  0  0  0  0  0  0  0  0  0  0
  2  1  1  6
  2  3  1  0
  3  4  1  0
  4  5  1  0
  5  6  2  0
  5  7  1  0
  2  8  1  0
  8  9  1  6
  9 10  1  0
 11 10  1  6
 11 12  1  0
 12 13  1  1
 13 14  1  0
 15 14  1  1
 15 16  1  0
 16 17  1  0
 17 18  1  1
 17 19  1  0
 19 20  1  0
 20 21  1  0
 21 22  1  6
 21 23  1  0
 23 24  1  6
 24 25  1  0
 25 26  1  1
 26 27  1  0
 25 28  1  0
 28 29  1  6
 28  8  1  0
 28 11  1  0
 23 12  1  0
 21 15  1  0
M  END
>  <MS_ID>  (1084) 
MS1127

>  <SMILES>  (1084) 
C[C@H](CCC(=O)O)[C@H]1CC[C@H]2[C@@H]3CC[C@@H]4C[C@H](O)CC[C@]4(C)[C@H]3C[C@H](OO)[C@]12C

>  <Structure_dimension>  (1084) 
2D

$$$$
MS1128
     RDKit          2D

 29 32  0  0  0  0  0  0  0  0999 V2000
   -5.0303   -2.1373    0.0000 C   0  0  0  0  0  0  0  0  0  0  0  0
   -3.8594   -1.1998    0.0000 C   0  0  0  0  0  0  0  0  0  0  0  0
   -4.0858    0.2830    0.0000 C   0  0  0  0  0  0  0  0  0  0  0  0
   -5.4831    0.8284    0.0000 C   0  0  0  0  0  0  0  0  0  0  0  0
   -5.7095    2.3112    0.0000 C   0  0  0  0  0  0  0  0  0  0  0  0
   -7.1069    2.8565    0.0000 N   0  0  0  0  0  0  0  0  0  0  0  0
   -4.5386    3.2487    0.0000 O   0  0  0  0  0  0  0  0  0  0  0  0
   -2.4620   -1.7451    0.0000 C   0  0  0  0  0  0  0  0  0  0  0  0
   -2.0818   -3.1961    0.0000 C   0  0  0  0  0  0  0  0  0  0  0  0
   -0.5844   -3.2830    0.0000 C   0  0  0  0  0  0  0  0  0  0  0  0
   -0.0390   -1.8856    0.0000 C   0  0  0  0  0  0  0  0  0  0  0  0
    1.3643   -1.3559    0.0000 C   0  0  0  0  0  0  0  0  0  0  0  0
    2.5248   -2.3063    0.0000 C   0  0  0  0  0  0  0  0  0  0  0  0
    2.2819   -3.7865    0.0000 O   0  0  0  0  0  0  0  0  0  0  0  0
    3.9281   -1.7765    0.0000 C   0  0  0  0  0  0  0  0  0  0  0  0
    4.1710   -0.2963    0.0000 C   0  0  0  0  0  0  0  0  0  0  0  0
    5.5743    0.2334    0.0000 C   0  0  0  0  0  0  0  0  0  0  0  0
    5.8172    1.7136    0.0000 C   0  0  0  0  0  0  0  0  0  0  0  0
    7.2205    2.2434    0.0000 O   0  0  0  0  0  0  0  0  0  0  0  0
    4.6568    2.6641    0.0000 C   0  0  0  0  0  0  0  0  0  0  0  0
    3.2534    2.1343    0.0000 C   0  0  0  0  0  0  0  0  0  0  0  0
    3.0105    0.6541    0.0000 C   0  0  0  0  0  0  0  0  0  0  0  0
    1.8501    1.6046    0.0000 C   0  0  0  0  0  0  0  0  0  0  0  0
    1.6072    0.1244    0.0000 C   0  0  0  0  0  0  0  0  0  0  0  0
    0.4467    1.0748    0.0000 C   0  0  0  0  0  0  0  0  0  0  0  0
   -0.9566    0.5450    0.0000 C   0  0  0  0  0  0  0  0  0  0  0  0
   -2.1170    1.4955    0.0000 O   0  0  0  0  0  0  0  0  0  0  0  0
   -1.1995   -0.9352    0.0000 C   0  0  0  0  0  0  0  0  0  0  0  0
   -2.4529   -0.1112    0.0000 C   0  0  0  0  0  0  0  0  0  0  0  0
  2  1  1  6
  2  3  1  0
  3  4  1  0
  4  5  1  0
  5  6  1  0
  5  7  2  0
  2  8  1  0
  8  9  1  6
  9 10  1  0
 11 10  1  6
 11 12  1  0
 12 13  1  1
 13 14  1  1
 13 15  1  0
 16 15  1  1
 16 17  1  0
 17 18  1  0
 18 19  2  0
 18 20  1  0
 20 21  1  0
 21 22  1  0
 22 23  1  6
 22 24  1  0
 24 25  1  6
 25 26  1  0
 26 27  1  1
 26 28  1  0
 28 29  1  6
 28  8  1  0
 28 11  1  0
 24 12  1  0
 22 16  1  0
M  END
>  <MS_ID>  (1085) 
MS1128

>  <SMILES>  (1085) 
C[C@H](CCC(N)=O)[C@H]1CC[C@H]2[C@@H]3[C@H](O)C[C@@H]4CC(=O)CC[C@]4(C)[C@H]3C[C@H](O)[C@]12C

>  <Structure_dimension>  (1085) 
2D

$$$$
MS1129
     RDKit          2D

 27 30  0  0  0  0  0  0  0  0999 V2000
   -4.7316   -2.2462    0.0000 C   0  0  0  0  0  0  0  0  0  0  0  0
   -3.6106   -1.2495    0.0000 C   0  0  0  0  0  0  0  0  0  0  0  0
   -3.9133    0.2196    0.0000 C   0  0  0  0  0  0  0  0  0  0  0  0
   -5.3370    0.6920    0.0000 C   0  0  0  0  0  0  0  0  0  0  0  0
   -5.6397    2.1612    0.0000 C   0  0  0  0  0  0  0  0  0  0  0  0
   -4.5188    3.1579    0.0000 O   0  0  0  0  0  0  0  0  0  0  0  0
   -7.0634    2.6336    0.0000 O   0  0  0  0  0  0  0  0  0  0  0  0
   -2.1870   -1.7219    0.0000 C   0  0  0  0  0  0  0  0  0  0  0  0
   -1.7323   -3.1514    0.0000 C   0  0  0  0  0  0  0  0  0  0  0  0
   -0.2324   -3.1607    0.0000 C   0  0  0  0  0  0  0  0  0  0  0  0
    0.2401   -1.7371    0.0000 C   0  0  0  0  0  0  0  0  0  0  0  0
    1.6141   -1.1355    0.0000 C   0  0  0  0  0  0  0  0  0  0  0  0
    2.8222   -2.0247    0.0000 C   0  0  0  0  0  0  0  0  0  0  0  0
    2.6561   -3.5155    0.0000 N   0  0  0  0  0  0  0  0  0  0  0  0
    4.1962   -1.4232    0.0000 C   0  0  0  0  0  0  0  0  0  0  0  0
    4.3623    0.0676    0.0000 C   0  0  0  0  0  0  0  0  0  0  0  0
    5.7364    0.6691    0.0000 C   0  0  0  0  0  0  0  0  0  0  0  0
    5.9025    2.1599    0.0000 C   0  0  0  0  0  0  0  0  0  0  0  0
    4.6945    3.0491    0.0000 C   0  0  0  0  0  0  0  0  0  0  0  0
    3.3204    2.4476    0.0000 C   0  0  0  0  0  0  0  0  0  0  0  0
    3.1543    0.9568    0.0000 C   0  0  0  0  0  0  0  0  0  0  0  0
    1.9463    1.8460    0.0000 C   0  0  0  0  0  0  0  0  0  0  0  0
    1.7802    0.3553    0.0000 C   0  0  0  0  0  0  0  0  0  0  0  0
    0.5722    1.2445    0.0000 C   0  0  0  0  0  0  0  0  0  0  0  0
   -0.8019    0.6429    0.0000 C   0  0  0  0  0  0  0  0  0  0  0  0
   -0.9680   -0.8478    0.0000 C   0  0  0  0  0  0  0  0  0  0  0  0
   -2.2623   -0.0897    0.0000 C   0  0  0  0  0  0  0  0  0  0  0  0
  2  1  1  6
  2  3  1  0
  3  4  1  0
  4  5  1  0
  5  6  2  0
  5  7  1  0
  2  8  1  0
  8  9  1  6
  9 10  1  0
 11 10  1  6
 11 12  1  0
 12 13  1  1
 13 14  1  1
 13 15  1  0
 16 15  1  1
 16 17  1  0
 17 18  1  0
 18 19  1  0
 19 20  1  0
 20 21  1  0
 21 22  1  6
 21 23  1  0
 23 24  1  6
 24 25  1  0
 25 26  1  0
 26 27  1  6
 26  8  1  0
 26 11  1  0
 23 12  1  0
 21 16  1  0
M  END
>  <MS_ID>  (1086) 
MS1129

>  <SMILES>  (1086) 
C[C@H](CCC(=O)O)[C@H]1CC[C@H]2[C@@H]3[C@H](N)C[C@@H]4CCCC[C@]4(C)[C@H]3CC[C@]12C

>  <Structure_dimension>  (1086) 
2D

$$$$
MS1130
     RDKit          2D

 33 36  0  0  0  0  0  0  0  0999 V2000
  -10.7745    2.9828    0.0000 C   0  0  0  0  0  0  0  0  0  0  0  0
   -9.2765    2.9064    0.0000 N   0  0  0  0  0  0  0  0  0  0  0  0
   -8.5936    1.5708    0.0000 C   0  0  0  0  0  0  0  0  0  0  0  0
   -7.0956    1.4944    0.0000 C   0  0  0  0  0  0  0  0  0  0  0  0
   -6.4128    0.1588    0.0000 N   0  0  0  0  0  0  0  0  0  0  0  0
   -4.9147    0.0823    0.0000 C   0  0  0  0  0  0  0  0  0  0  0  0
   -4.0995    1.3415    0.0000 O   0  0  0  0  0  0  0  0  0  0  0  0
   -4.2319   -1.2532    0.0000 C   0  0  0  0  0  0  0  0  0  0  0  0
   -2.7339   -1.3297    0.0000 C   0  0  0  0  0  0  0  0  0  0  0  0
   -2.0510   -2.6653    0.0000 C   0  0  0  0  0  0  0  0  0  0  0  0
   -2.8663   -3.9244    0.0000 C   0  0  0  0  0  0  0  0  0  0  0  0
   -0.5530   -2.7417    0.0000 C   0  0  0  0  0  0  0  0  0  0  0  0
    0.2657   -3.9986    0.0000 C   0  0  0  0  0  0  0  0  0  0  0  0
    1.7140   -3.6084    0.0000 C   0  0  0  0  0  0  0  0  0  0  0  0
    1.7905   -2.1103    0.0000 C   0  0  0  0  0  0  0  0  0  0  0  0
    2.9549   -1.1648    0.0000 C   0  0  0  0  0  0  0  0  0  0  0  0
    4.3560   -1.7004    0.0000 C   0  0  0  0  0  0  0  0  0  0  0  0
    4.5927   -3.1816    0.0000 O   0  0  0  0  0  0  0  0  0  0  0  0
    5.5204   -0.7548    0.0000 C   0  0  0  0  0  0  0  0  0  0  0  0
    5.2838    0.7264    0.0000 C   0  0  0  0  0  0  0  0  0  0  0  0
    6.4482    1.6720    0.0000 C   0  0  0  0  0  0  0  0  0  0  0  0
    6.2115    3.1532    0.0000 C   0  0  0  0  0  0  0  0  0  0  0  0
    7.3759    4.0988    0.0000 O   0  0  0  0  0  0  0  0  0  0  0  0
    4.8104    3.6888    0.0000 C   0  0  0  0  0  0  0  0  0  0  0  0
    3.6460    2.7432    0.0000 C   0  0  0  0  0  0  0  0  0  0  0  0
    3.8827    1.2620    0.0000 C   0  0  0  0  0  0  0  0  0  0  0  0
    2.4816    1.7977    0.0000 C   0  0  0  0  0  0  0  0  0  0  0  0
    2.7182    0.3165    0.0000 C   0  0  0  0  0  0  0  0  0  0  0  0
    1.3171    0.8521    0.0000 C   0  0  0  0  0  0  0  0  0  0  0  0
    0.1527   -0.0935    0.0000 C   0  0  0  0  0  0  0  0  0  0  0  0
   -1.2484    0.4421    0.0000 O   0  0  0  0  0  0  0  0  0  0  0  0
    0.3894   -1.5747    0.0000 C   0  0  0  0  0  0  0  0  0  0  0  0
   -1.0600   -1.1885    0.0000 C   0  0  0  0  0  0  0  0  0  0  0  0
  1  2  1  0
  2  3  1  0
  3  4  1  0
  4  5  1  0
  5  6  1  0
  6  7  2  0
  6  8  1  0
  8  9  1  0
  9 10  1  0
 10 11  1  6
 10 12  1  0
 12 13  1  6
 13 14  1  0
 15 14  1  6
 15 16  1  0
 16 17  1  1
 17 18  1  1
 17 19  1  0
 20 19  1  1
 20 21  1  0
 21 22  1  0
 22 23  1  1
 22 24  1  0
 24 25  1  0
 25 26  1  0
 26 27  1  6
 26 28  1  0
 28 29  1  6
 29 30  1  0
 30 31  1  1
 30 32  1  0
 32 33  1  6
 32 12  1  0
 32 15  1  0
 28 16  1  0
 26 20  1  0
M  END
>  <MS_ID>  (1087) 
MS1130

>  <SMILES>  (1087) 
CNCCNC(=O)CC[C@@H](C)[C@H]1CC[C@H]2[C@@H]3[C@H](O)C[C@@H]4C[C@H](O)CC[C@]4(C)[C@H]3C[C@H](O)[C@]12C

>  <Structure_dimension>  (1087) 
2D

$$$$
MS1131
     RDKit          2D

 32 35  0  0  0  0  0  0  0  0999 V2000
   -2.8252   -3.9526    0.0000 C   0  0  0  0  0  0  0  0  0  0  0  0
   -1.9779   -2.7148    0.0000 C   0  0  0  0  0  0  0  0  0  0  0  0
   -2.6262   -1.3621    0.0000 C   0  0  0  0  0  0  0  0  0  0  0  0
   -4.1218   -1.2472    0.0000 C   0  0  0  0  0  0  0  0  0  0  0  0
   -4.7701    0.1054    0.0000 C   0  0  0  0  0  0  0  0  0  0  0  0
   -3.9228    1.3432    0.0000 O   0  0  0  0  0  0  0  0  0  0  0  0
   -6.2657    0.2203    0.0000 C   0  0  0  0  0  0  0  0  0  0  0  0
   -6.9140    1.5730    0.0000 O   0  0  0  0  0  0  0  0  0  0  0  0
   -8.4096    1.6879    0.0000 C   0  0  0  0  0  0  0  0  0  0  0  0
   -9.0579    3.0406    0.0000 C   0  0  0  0  0  0  0  0  0  0  0  0
  -10.5534    3.1554    0.0000 O   0  0  0  0  0  0  0  0  0  0  0  0
   -0.4823   -2.8297    0.0000 C   0  0  0  0  0  0  0  0  0  0  0  0
    0.3038   -4.1072    0.0000 C   0  0  0  0  0  0  0  0  0  0  0  0
    1.7617   -3.7543    0.0000 C   0  0  0  0  0  0  0  0  0  0  0  0
    1.8766   -2.2587    0.0000 C   0  0  0  0  0  0  0  0  0  0  0  0
    3.0650   -1.3433    0.0000 C   0  0  0  0  0  0  0  0  0  0  0  0
    4.4518   -1.9148    0.0000 C   0  0  0  0  0  0  0  0  0  0  0  0
    5.6402   -0.9994    0.0000 C   0  0  0  0  0  0  0  0  0  0  0  0
    5.4416    0.4874    0.0000 C   0  0  0  0  0  0  0  0  0  0  0  0
    6.6299    1.4028    0.0000 C   0  0  0  0  0  0  0  0  0  0  0  0
    6.4313    2.8896    0.0000 C   0  0  0  0  0  0  0  0  0  0  0  0
    7.6197    3.8049    0.0000 O   0  0  0  0  0  0  0  0  0  0  0  0
    5.0445    3.4610    0.0000 C   0  0  0  0  0  0  0  0  0  0  0  0
    3.8561    2.5456    0.0000 C   0  0  0  0  0  0  0  0  0  0  0  0
    4.0547    1.0588    0.0000 C   0  0  0  0  0  0  0  0  0  0  0  0
    2.6678    1.6303    0.0000 C   0  0  0  0  0  0  0  0  0  0  0  0
    2.8664    0.1435    0.0000 C   0  0  0  0  0  0  0  0  0  0  0  0
    1.4795    0.7149    0.0000 C   0  0  0  0  0  0  0  0  0  0  0  0
    0.2912   -0.2005    0.0000 C   0  0  0  0  0  0  0  0  0  0  0  0
   -1.0957    0.3710    0.0000 O   0  0  0  0  0  0  0  0  0  0  0  0
    0.4897   -1.6873    0.0000 C   0  0  0  0  0  0  0  0  0  0  0  0
   -0.9493   -1.2639    0.0000 C   0  0  0  0  0  0  0  0  0  0  0  0
  2  1  1  6
  2  3  1  0
  3  4  1  0
  4  5  1  0
  5  6  2  0
  5  7  1  0
  7  8  1  0
  8  9  1  0
  9 10  1  0
 10 11  1  0
  2 12  1  0
 12 13  1  6
 13 14  1  0
 15 14  1  6
 15 16  1  0
 16 17  1  1
 17 18  1  0
 19 18  1  1
 19 20  1  0
 20 21  1  0
 21 22  1  1
 21 23  1  0
 23 24  1  0
 24 25  1  0
 25 26  1  6
 25 27  1  0
 27 28  1  6
 28 29  1  0
 29 30  1  1
 29 31  1  0
 31 32  1  6
 31 12  1  0
 31 15  1  0
 27 16  1  0
 25 19  1  0
M  END
>  <MS_ID>  (1088) 
MS1131

>  <SMILES>  (1088) 
C[C@H](CCC(=O)COCCO)[C@H]1CC[C@H]2[C@@H]3CC[C@@H]4C[C@H](O)CC[C@]4(C)[C@H]3C[C@H](O)[C@]12C

>  <Structure_dimension>  (1088) 
2D

$$$$
MS1132
     RDKit          2D

 31 34  0  0  0  0  0  0  0  0999 V2000
   -3.4301   -3.6172    0.0000 C   0  0  0  0  0  0  0  0  0  0  0  0
   -2.4973   -2.4425    0.0000 C   0  0  0  0  0  0  0  0  0  0  0  0
   -3.0483   -1.0473    0.0000 C   0  0  0  0  0  0  0  0  0  0  0  0
   -4.5321   -0.8270    0.0000 C   0  0  0  0  0  0  0  0  0  0  0  0
   -5.0831    0.5682    0.0000 C   0  0  0  0  0  0  0  0  0  0  0  0
   -4.1503    1.7429    0.0000 O   0  0  0  0  0  0  0  0  0  0  0  0
   -6.5668    0.7886    0.0000 N   0  0  0  0  0  0  0  0  0  0  0  0
   -7.1178    2.1837    0.0000 C   0  0  0  0  0  0  0  0  0  0  0  0
   -8.6015    2.4041    0.0000 C   0  0  0  0  0  0  0  0  0  0  0  0
   -9.1525    3.7992    0.0000 O   0  0  0  0  0  0  0  0  0  0  0  0
   -1.0136   -2.6629    0.0000 C   0  0  0  0  0  0  0  0  0  0  0  0
   -0.3198   -3.9928    0.0000 C   0  0  0  0  0  0  0  0  0  0  0  0
    1.1594   -3.7439    0.0000 C   0  0  0  0  0  0  0  0  0  0  0  0
    1.3798   -2.2602    0.0000 C   0  0  0  0  0  0  0  0  0  0  0  0
    2.6299   -1.4311    0.0000 C   0  0  0  0  0  0  0  0  0  0  0  0
    3.9729   -2.0992    0.0000 C   0  0  0  0  0  0  0  0  0  0  0  0
    5.2230   -1.2702    0.0000 C   0  0  0  0  0  0  0  0  0  0  0  0
    5.1301    0.2269    0.0000 C   0  0  0  0  0  0  0  0  0  0  0  0
    6.3802    1.0559    0.0000 C   0  0  0  0  0  0  0  0  0  0  0  0
    6.2872    2.5531    0.0000 C   0  0  0  0  0  0  0  0  0  0  0  0
    7.5373    3.3821    0.0000 O   0  0  0  0  0  0  0  0  0  0  0  0
    4.9442    3.2212    0.0000 C   0  0  0  0  0  0  0  0  0  0  0  0
    3.6942    2.3921    0.0000 C   0  0  0  0  0  0  0  0  0  0  0  0
    3.7871    0.8950    0.0000 C   0  0  0  0  0  0  0  0  0  0  0  0
    2.4441    1.5631    0.0000 C   0  0  0  0  0  0  0  0  0  0  0  0
    2.5370    0.0660    0.0000 C   0  0  0  0  0  0  0  0  0  0  0  0
    1.1940    0.7341    0.0000 C   0  0  0  0  0  0  0  0  0  0  0  0
   -0.0561   -0.0949    0.0000 C   0  0  0  0  0  0  0  0  0  0  0  0
   -1.3991    0.5732    0.0000 O   0  0  0  0  0  0  0  0  0  0  0  0
    0.0368   -1.5921    0.0000 C   0  0  0  0  0  0  0  0  0  0  0  0
   -1.3687   -1.0680    0.0000 C   0  0  0  0  0  0  0  0  0  0  0  0
  2  1  1  6
  2  3  1  0
  3  4  1  0
  4  5  1  0
  5  6  2  0
  5  7  1  0
  7  8  1  0
  8  9  1  0
  9 10  1  0
  2 11  1  0
 11 12  1  6
 12 13  1  0
 14 13  1  6
 14 15  1  0
 15 16  1  1
 16 17  1  0
 18 17  1  1
 18 19  1  0
 19 20  1  0
 20 21  1  6
 20 22  1  0
 22 23  1  0
 23 24  1  0
 24 25  1  6
 24 26  1  0
 26 27  1  6
 27 28  1  0
 28 29  1  6
 28 30  1  0
 30 31  1  6
 30 11  1  0
 30 14  1  0
 26 15  1  0
 24 18  1  0
M  END
>  <MS_ID>  (1089) 
MS1132

>  <SMILES>  (1089) 
C[C@H](CCC(=O)NCCO)[C@H]1CC[C@H]2[C@@H]3CC[C@@H]4C[C@@H](O)CC[C@]4(C)[C@H]3C[C@@H](O)[C@]12C

>  <Structure_dimension>  (1089) 
2D

$$$$
MS1134
     RDKit          2D

 37 41  0  0  0  0  0  0  0  0999 V2000
   -0.3981   -4.8552    0.0000 C   0  0  0  0  0  0  0  0  0  0  0  0
    0.1005   -3.4405    0.0000 C   0  0  0  0  0  0  0  0  0  0  0  0
   -0.8753   -2.3013    0.0000 C   0  0  0  0  0  0  0  0  0  0  0  0
   -2.3498   -2.5768    0.0000 C   0  0  0  0  0  0  0  0  0  0  0  0
   -3.3256   -1.4375    0.0000 C   0  0  0  0  0  0  0  0  0  0  0  0
   -2.8269   -0.0229    0.0000 O   0  0  0  0  0  0  0  0  0  0  0  0
   -4.8000   -1.7130    0.0000 N   0  0  0  0  0  0  0  0  0  0  0  0
   -5.7758   -0.5738    0.0000 C   0  0  0  0  0  0  0  0  0  0  0  0
   -7.2503   -0.8492    0.0000 C   0  0  0  0  0  0  0  0  0  0  0  0
   -8.2261    0.2900    0.0000 C   0  0  0  0  0  0  0  0  0  0  0  0
   -7.7275    1.7046    0.0000 C   0  0  0  0  0  0  0  0  0  0  0  0
   -8.7033    2.8439    0.0000 C   0  0  0  0  0  0  0  0  0  0  0  0
  -10.1777    2.5684    0.0000 C   0  0  0  0  0  0  0  0  0  0  0  0
  -11.1535    3.7076    0.0000 O   0  0  0  0  0  0  0  0  0  0  0  0
  -10.6764    1.1537    0.0000 C   0  0  0  0  0  0  0  0  0  0  0  0
   -9.7006    0.0145    0.0000 C   0  0  0  0  0  0  0  0  0  0  0  0
    1.5750   -3.1650    0.0000 C   0  0  0  0  0  0  0  0  0  0  0  0
    2.6646   -4.1960    0.0000 C   0  0  0  0  0  0  0  0  0  0  0  0
    3.9818   -3.4784    0.0000 C   0  0  0  0  0  0  0  0  0  0  0  0
    3.7063   -2.0039    0.0000 C   0  0  0  0  0  0  0  0  0  0  0  0
    4.6177   -0.8126    0.0000 C   0  0  0  0  0  0  0  0  0  0  0  0
    6.1052   -1.0062    0.0000 C   0  0  0  0  0  0  0  0  0  0  0  0
    6.6812   -2.3912    0.0000 O   0  0  0  0  0  0  0  0  0  0  0  0
    7.0166    0.1851    0.0000 C   0  0  0  0  0  0  0  0  0  0  0  0
    6.4406    1.5701    0.0000 C   0  0  0  0  0  0  0  0  0  0  0  0
    7.3521    2.7614    0.0000 C   0  0  0  0  0  0  0  0  0  0  0  0
    6.7761    4.1464    0.0000 C   0  0  0  0  0  0  0  0  0  0  0  0
    7.6875    5.3378    0.0000 O   0  0  0  0  0  0  0  0  0  0  0  0
    5.2886    4.3401    0.0000 C   0  0  0  0  0  0  0  0  0  0  0  0
    4.3772    3.1488    0.0000 C   0  0  0  0  0  0  0  0  0  0  0  0
    4.9532    1.7638    0.0000 C   0  0  0  0  0  0  0  0  0  0  0  0
    3.4657    1.9574    0.0000 C   0  0  0  0  0  0  0  0  0  0  0  0
    4.0417    0.5724    0.0000 C   0  0  0  0  0  0  0  0  0  0  0  0
    2.5543    0.7661    0.0000 C   0  0  0  0  0  0  0  0  0  0  0  0
    1.6429   -0.4252    0.0000 C   0  0  0  0  0  0  0  0  0  0  0  0
    2.2189   -1.8102    0.0000 C   0  0  0  0  0  0  0  0  0  0  0  0
    0.7193   -1.7731    0.0000 C   0  0  0  0  0  0  0  0  0  0  0  0
  2  1  1  6
  2  3  1  0
  3  4  1  0
  4  5  1  0
  5  6  2  0
  5  7  1  0
  7  8  1  0
  8  9  1  0
  9 10  1  0
 10 11  2  0
 11 12  1  0
 12 13  2  0
 13 14  1  0
 13 15  1  0
 15 16  2  0
  2 17  1  0
 17 18  1  6
 18 19  1  0
 20 19  1  6
 20 21  1  0
 21 22  1  1
 22 23  1  6
 22 24  1  0
 25 24  1  1
 25 26  1  0
 26 27  1  0
 27 28  1  1
 27 29  1  0
 29 30  1  0
 30 31  1  0
 31 32  1  6
 31 33  1  0
 33 34  1  6
 34 35  1  0
 35 36  1  0
 36 37  1  6
 16 10  1  0
 36 17  1  0
 36 20  1  0
 33 21  1  0
 31 25  1  0
M  END
>  <MS_ID>  (1090) 
MS1134

>  <SMILES>  (1090) 
C[C@H](CCC(=O)NCCc1ccc(O)cc1)[C@H]1CC[C@H]2[C@@H]3[C@@H](O)C[C@@H]4C[C@H](O)CC[C@]4(C)[C@H]3CC[C@]12C

>  <Structure_dimension>  (1090) 
2D

$$$$
MS1135
     RDKit          2D

 28 31  0  0  0  0  0  0  0  0999 V2000
   -5.1275   -2.0302    0.0000 C   0  0  0  0  0  0  0  0  0  0  0  0
   -3.9468   -1.1050    0.0000 C   0  0  0  0  0  0  0  0  0  0  0  0
   -4.1576    0.3801    0.0000 C   0  0  0  0  0  0  0  0  0  0  0  0
   -5.5492    0.9401    0.0000 C   0  0  0  0  0  0  0  0  0  0  0  0
   -5.7600    2.4252    0.0000 C   0  0  0  0  0  0  0  0  0  0  0  0
   -4.5793    3.3503    0.0000 O   0  0  0  0  0  0  0  0  0  0  0  0
   -7.1516    2.9851    0.0000 O   0  0  0  0  0  0  0  0  0  0  0  0
   -2.5552   -1.6650    0.0000 C   0  0  0  0  0  0  0  0  0  0  0  0
   -2.1903   -3.1199    0.0000 C   0  0  0  0  0  0  0  0  0  0  0  0
   -0.6938   -3.2225    0.0000 C   0  0  0  0  0  0  0  0  0  0  0  0
   -0.1339   -1.8309    0.0000 C   0  0  0  0  0  0  0  0  0  0  0  0
    1.2750   -1.3159    0.0000 C   0  0  0  0  0  0  0  0  0  0  0  0
    2.4254   -2.2785    0.0000 C   0  0  0  0  0  0  0  0  0  0  0  0
    2.1670   -3.7560    0.0000 F   0  0  0  0  0  0  0  0  0  0  0  0
    3.8342   -1.7635    0.0000 C   0  0  0  0  0  0  0  0  0  0  0  0
    4.0926   -0.2859    0.0000 C   0  0  0  0  0  0  0  0  0  0  0  0
    5.5014    0.2291    0.0000 C   0  0  0  0  0  0  0  0  0  0  0  0
    5.7598    1.7067    0.0000 C   0  0  0  0  0  0  0  0  0  0  0  0
    7.1687    2.2217    0.0000 O   0  0  0  0  0  0  0  0  0  0  0  0
    4.6094    2.6692    0.0000 C   0  0  0  0  0  0  0  0  0  0  0  0
    3.2006    2.1542    0.0000 C   0  0  0  0  0  0  0  0  0  0  0  0
    2.9422    0.6767    0.0000 C   0  0  0  0  0  0  0  0  0  0  0  0
    1.7918    1.6392    0.0000 C   0  0  0  0  0  0  0  0  0  0  0  0
    1.5334    0.1617    0.0000 C   0  0  0  0  0  0  0  0  0  0  0  0
    0.3830    1.1242    0.0000 C   0  0  0  0  0  0  0  0  0  0  0  0
   -1.0259    0.6093    0.0000 C   0  0  0  0  0  0  0  0  0  0  0  0
   -1.2843   -0.8683    0.0000 C   0  0  0  0  0  0  0  0  0  0  0  0
   -2.5290   -0.0313    0.0000 C   0  0  0  0  0  0  0  0  0  0  0  0
  2  1  1  6
  2  3  1  0
  3  4  1  0
  4  5  1  0
  5  6  2  0
  5  7  1  0
  2  8  1  0
  8  9  1  6
  9 10  1  0
 11 10  1  6
 11 12  1  0
 12 13  1  1
 13 14  1  1
 13 15  1  0
 16 15  1  1
 16 17  1  0
 17 18  1  0
 18 19  1  6
 18 20  1  0
 20 21  1  0
 21 22  1  0
 22 23  1  6
 22 24  1  0
 24 25  1  6
 25 26  1  0
 26 27  1  0
 27 28  1  6
 27  8  1  0
 27 11  1  0
 24 12  1  0
 22 16  1  0
M  END
>  <MS_ID>  (1091) 
MS1135

>  <SMILES>  (1091) 
C[C@H](CCC(=O)O)[C@H]1CC[C@H]2[C@@H]3[C@H](F)C[C@@H]4C[C@@H](O)CC[C@]4(C)[C@H]3CC[C@]12C

>  <Structure_dimension>  (1091) 
2D

$$$$
MS1136
     RDKit          2D

 37 41  0  0  0  0  0  0  0  0999 V2000
   -1.7322   -4.6386    0.0000 C   0  0  0  0  0  0  0  0  0  0  0  0
   -1.1162   -3.2709    0.0000 C   0  0  0  0  0  0  0  0  0  0  0  0
   -1.9927   -2.0536    0.0000 C   0  0  0  0  0  0  0  0  0  0  0  0
   -3.4851   -2.2040    0.0000 C   0  0  0  0  0  0  0  0  0  0  0  0
   -4.3616   -0.9868    0.0000 C   0  0  0  0  0  0  0  0  0  0  0  0
   -3.7456    0.3809    0.0000 O   0  0  0  0  0  0  0  0  0  0  0  0
   -5.8540   -1.1372    0.0000 O   0  0  0  0  0  0  0  0  0  0  0  0
   -6.7305    0.0801    0.0000 C   0  0  0  0  0  0  0  0  0  0  0  0
   -8.2305    0.0865    0.0000 C   0  0  0  0  0  0  0  0  0  0  0  0
   -8.6879    1.5151    0.0000 C   0  0  0  0  0  0  0  0  0  0  0  0
  -10.1125    1.9847    0.0000 O   0  0  0  0  0  0  0  0  0  0  0  0
   -7.4706    2.3916    0.0000 C   0  0  0  0  0  0  0  0  0  0  0  0
   -7.4642    3.8916    0.0000 O   0  0  0  0  0  0  0  0  0  0  0  0
   -6.2609    1.5047    0.0000 C   0  0  0  0  0  0  0  0  0  0  0  0
   -4.8323    1.9621    0.0000 O   0  0  0  0  0  0  0  0  0  0  0  0
    0.3762   -3.1205    0.0000 C   0  0  0  0  0  0  0  0  0  0  0  0
    1.3751   -4.2395    0.0000 C   0  0  0  0  0  0  0  0  0  0  0  0
    2.7481   -3.6353    0.0000 C   0  0  0  0  0  0  0  0  0  0  0  0
    2.5977   -2.1428    0.0000 C   0  0  0  0  0  0  0  0  0  0  0  0
    3.6061   -1.0324    0.0000 C   0  0  0  0  0  0  0  0  0  0  0  0
    5.0720   -1.3506    0.0000 C   0  0  0  0  0  0  0  0  0  0  0  0
    5.5294   -2.7791    0.0000 O   0  0  0  0  0  0  0  0  0  0  0  0
    6.0804   -0.2401    0.0000 C   0  0  0  0  0  0  0  0  0  0  0  0
    7.5463   -0.5583    0.0000 O   0  0  0  0  0  0  0  0  0  0  0  0
    5.6230    1.1884    0.0000 C   0  0  0  0  0  0  0  0  0  0  0  0
    6.6315    2.2988    0.0000 C   0  0  0  0  0  0  0  0  0  0  0  0
    6.1741    3.7274    0.0000 C   0  0  0  0  0  0  0  0  0  0  0  0
    7.1825    4.8378    0.0000 O   0  0  0  0  0  0  0  0  0  0  0  0
    4.7082    4.0455    0.0000 C   0  0  0  0  0  0  0  0  0  0  0  0
    3.6997    2.9351    0.0000 C   0  0  0  0  0  0  0  0  0  0  0  0
    4.1571    1.5066    0.0000 C   0  0  0  0  0  0  0  0  0  0  0  0
    2.6913    1.8247    0.0000 C   0  0  0  0  0  0  0  0  0  0  0  0
    3.1487    0.3961    0.0000 C   0  0  0  0  0  0  0  0  0  0  0  0
    1.6828    0.7143    0.0000 C   0  0  0  0  0  0  0  0  0  0  0  0
    0.6744   -0.3961    0.0000 C   0  0  0  0  0  0  0  0  0  0  0  0
    1.1318   -1.8247    0.0000 C   0  0  0  0  0  0  0  0  0  0  0  0
   -0.3593   -1.6615    0.0000 C   0  0  0  0  0  0  0  0  0  0  0  0
  2  1  1  6
  2  3  1  0
  3  4  1  0
  4  5  1  0
  5  6  2  0
  5  7  1  0
  8  7  1  6
  8  9  1  0
  9 10  1  0
 10 11  1  6
 10 12  1  0
 12 13  1  6
 12 14  1  0
 14 15  1  1
  2 16  1  0
 16 17  1  6
 17 18  1  0
 19 18  1  6
 19 20  1  0
 20 21  1  1
 21 22  1  1
 21 23  1  0
 23 24  1  1
 23 25  1  0
 25 26  1  1
 26 27  1  0
 27 28  1  1
 27 29  1  0
 29 30  1  0
 30 31  1  0
 31 32  1  6
 31 33  1  0
 33 34  1  6
 34 35  1  0
 35 36  1  0
 36 37  1  6
 14  8  1  0
 36 16  1  0
 36 19  1  0
 33 20  1  0
 31 25  1  0
M  END
>  <MS_ID>  (1092) 
MS1136

>  <SMILES>  (1092) 
C[C@H](CCC(=O)O[C@@H]1C[C@H](O)[C@H](O)[C@H]1O)[C@H]1CC[C@H]2[C@@H]3[C@H](O)[C@H](O)[C@@H]4C[C@H](O)CC[C@]4(C)[C@H]3CC[C@]12C

>  <Structure_dimension>  (1092) 
2D

$$$$
MS1138
     RDKit          2D

 30 33  0  0  0  0  0  0  0  0999 V2000
   -4.0233   -3.4523    0.0000 C   0  0  0  0  0  0  0  0  0  0  0  0
   -3.0243   -2.3334    0.0000 C   0  0  0  0  0  0  0  0  0  0  0  0
   -3.4938   -0.9088    0.0000 C   0  0  0  0  0  0  0  0  0  0  0  0
   -4.9623   -0.6031    0.0000 C   0  0  0  0  0  0  0  0  0  0  0  0
   -5.4319    0.8216    0.0000 C   0  0  0  0  0  0  0  0  0  0  0  0
   -6.9004    1.1272    0.0000 O   0  0  0  0  0  0  0  0  0  0  0  0
   -4.4329    1.9405    0.0000 O   0  0  0  0  0  0  0  0  0  0  0  0
   -4.9024    3.3651    0.0000 C   0  0  0  0  0  0  0  0  0  0  0  0
   -3.9034    4.4840    0.0000 N   0  0  0  0  0  0  0  0  0  0  0  0
   -6.3709    3.6708    0.0000 O   0  0  0  0  0  0  0  0  0  0  0  0
   -1.5558   -2.6391    0.0000 C   0  0  0  0  0  0  0  0  0  0  0  0
   -0.9399   -4.0068    0.0000 C   0  0  0  0  0  0  0  0  0  0  0  0
    0.5512   -3.8438    0.0000 C   0  0  0  0  0  0  0  0  0  0  0  0
    0.8569   -2.3752    0.0000 C   0  0  0  0  0  0  0  0  0  0  0  0
    2.1528   -1.6198    0.0000 C   0  0  0  0  0  0  0  0  0  0  0  0
    3.4549   -2.3643    0.0000 C   0  0  0  0  0  0  0  0  0  0  0  0
    4.7508   -1.6088    0.0000 C   0  0  0  0  0  0  0  0  0  0  0  0
    4.7445   -0.1089    0.0000 C   0  0  0  0  0  0  0  0  0  0  0  0
    6.0404    0.6466    0.0000 C   0  0  0  0  0  0  0  0  0  0  0  0
    6.0341    2.1466    0.0000 C   0  0  0  0  0  0  0  0  0  0  0  0
    7.3299    2.9020    0.0000 O   0  0  0  0  0  0  0  0  0  0  0  0
    4.7319    2.8911    0.0000 C   0  0  0  0  0  0  0  0  0  0  0  0
    3.4360    2.1357    0.0000 C   0  0  0  0  0  0  0  0  0  0  0  0
    3.4423    0.6357    0.0000 C   0  0  0  0  0  0  0  0  0  0  0  0
    2.1401    1.3802    0.0000 C   0  0  0  0  0  0  0  0  0  0  0  0
    2.1464   -0.1198    0.0000 C   0  0  0  0  0  0  0  0  0  0  0  0
    0.8443    0.6247    0.0000 C   0  0  0  0  0  0  0  0  0  0  0  0
   -0.4516   -0.1307    0.0000 C   0  0  0  0  0  0  0  0  0  0  0  0
   -0.4453   -1.6307    0.0000 C   0  0  0  0  0  0  0  0  0  0  0  0
   -1.8182   -1.0264    0.0000 C   0  0  0  0  0  0  0  0  0  0  0  0
  2  1  1  6
  2  3  1  0
  3  4  1  0
  4  5  1  0
  5  6  2  0
  5  7  1  0
  7  8  1  0
  8  9  1  0
  8 10  2  0
  2 11  1  0
 11 12  1  6
 12 13  1  0
 14 13  1  6
 14 15  1  0
 15 16  1  1
 16 17  1  0
 18 17  1  1
 18 19  1  0
 19 20  1  0
 20 21  1  1
 20 22  1  0
 22 23  1  0
 23 24  1  0
 24 25  1  6
 24 26  1  0
 26 27  1  6
 27 28  1  0
 28 29  1  0
 29 30  1  6
 29 11  1  0
 29 14  1  0
 26 15  1  0
 24 18  1  0
M  END
>  <MS_ID>  (1093) 
MS1138

>  <SMILES>  (1093) 
C[C@H](CCC(=O)OC(N)=O)[C@H]1CC[C@H]2[C@@H]3CC[C@@H]4C[C@H](O)CC[C@]4(C)[C@H]3CC[C@]12C

>  <Structure_dimension>  (1093) 
2D

$$$$
MS1139
     RDKit          2D

 28 31  0  0  0  0  0  0  0  0999 V2000
   -5.1275   -2.0302    0.0000 C   0  0  0  0  0  0  0  0  0  0  0  0
   -3.9468   -1.1050    0.0000 C   0  0  0  0  0  0  0  0  0  0  0  0
   -4.1576    0.3801    0.0000 C   0  0  0  0  0  0  0  0  0  0  0  0
   -5.5492    0.9401    0.0000 C   0  0  0  0  0  0  0  0  0  0  0  0
   -5.7600    2.4252    0.0000 C   0  0  0  0  0  0  0  0  0  0  0  0
   -4.5793    3.3503    0.0000 O   0  0  0  0  0  0  0  0  0  0  0  0
   -7.1516    2.9851    0.0000 O   0  0  0  0  0  0  0  0  0  0  0  0
   -2.5552   -1.6650    0.0000 C   0  0  0  0  0  0  0  0  0  0  0  0
   -2.1903   -3.1199    0.0000 C   0  0  0  0  0  0  0  0  0  0  0  0
   -0.6938   -3.2225    0.0000 C   0  0  0  0  0  0  0  0  0  0  0  0
   -0.1339   -1.8309    0.0000 C   0  0  0  0  0  0  0  0  0  0  0  0
    1.2750   -1.3159    0.0000 C   0  0  0  0  0  0  0  0  0  0  0  0
    2.4254   -2.2785    0.0000 C   0  0  0  0  0  0  0  0  0  0  0  0
    2.1670   -3.7560    0.0000 N   0  0  0  0  0  0  0  0  0  0  0  0
    3.8342   -1.7635    0.0000 C   0  0  0  0  0  0  0  0  0  0  0  0
    4.0926   -0.2859    0.0000 C   0  0  0  0  0  0  0  0  0  0  0  0
    5.5014    0.2291    0.0000 C   0  0  0  0  0  0  0  0  0  0  0  0
    5.7598    1.7067    0.0000 C   0  0  0  0  0  0  0  0  0  0  0  0
    7.1687    2.2217    0.0000 O   0  0  0  0  0  0  0  0  0  0  0  0
    4.6094    2.6692    0.0000 C   0  0  0  0  0  0  0  0  0  0  0  0
    3.2006    2.1542    0.0000 C   0  0  0  0  0  0  0  0  0  0  0  0
    2.9422    0.6767    0.0000 C   0  0  0  0  0  0  0  0  0  0  0  0
    1.7918    1.6392    0.0000 C   0  0  0  0  0  0  0  0  0  0  0  0
    1.5334    0.1617    0.0000 C   0  0  0  0  0  0  0  0  0  0  0  0
    0.3830    1.1242    0.0000 C   0  0  0  0  0  0  0  0  0  0  0  0
   -1.0259    0.6093    0.0000 C   0  0  0  0  0  0  0  0  0  0  0  0
   -1.2843   -0.8683    0.0000 C   0  0  0  0  0  0  0  0  0  0  0  0
   -2.5290   -0.0313    0.0000 C   0  0  0  0  0  0  0  0  0  0  0  0
  2  1  1  6
  2  3  1  0
  3  4  1  0
  4  5  1  0
  5  6  2  0
  5  7  1  0
  2  8  1  0
  8  9  1  6
  9 10  1  0
 11 10  1  6
 11 12  1  0
 12 13  1  1
 13 14  1  1
 13 15  1  0
 16 15  1  1
 16 17  1  0
 17 18  1  0
 18 19  2  0
 18 20  1  0
 20 21  1  0
 21 22  1  0
 22 23  1  6
 22 24  1  0
 24 25  1  6
 25 26  1  0
 26 27  1  0
 27 28  1  6
 27  8  1  0
 27 11  1  0
 24 12  1  0
 22 16  1  0
M  END
>  <MS_ID>  (1094) 
MS1139

>  <SMILES>  (1094) 
C[C@H](CCC(=O)O)[C@H]1CC[C@H]2[C@@H]3[C@H](N)C[C@@H]4CC(=O)CC[C@]4(C)[C@H]3CC[C@]12C

>  <Structure_dimension>  (1094) 
2D

$$$$
MS1140
     RDKit          2D

 32 35  0  0  0  0  0  0  0  0999 V2000
   -3.3600   -3.6470    0.0000 C   0  0  0  0  0  0  0  0  0  0  0  0
   -2.4640   -2.4440    0.0000 C   0  0  0  0  0  0  0  0  0  0  0  0
   -3.0579   -1.0666    0.0000 C   0  0  0  0  0  0  0  0  0  0  0  0
   -4.5477   -0.8922    0.0000 C   0  0  0  0  0  0  0  0  0  0  0  0
   -5.1416    0.4852    0.0000 C   0  0  0  0  0  0  0  0  0  0  0  0
   -4.2456    1.6883    0.0000 O   0  0  0  0  0  0  0  0  0  0  0  0
   -6.6314    0.6596    0.0000 N   0  0  0  0  0  0  0  0  0  0  0  0
   -7.2253    2.0371    0.0000 S   0  0  0  0  0  0  0  0  0  0  0  0
   -8.6027    1.4432    0.0000 O   0  0  0  0  0  0  0  0  0  0  0  0
   -5.8479    2.6309    0.0000 O   0  0  0  0  0  0  0  0  0  0  0  0
   -7.8192    3.4145    0.0000 O   0  0  0  0  0  0  0  0  0  0  0  0
   -0.9742   -2.6184    0.0000 C   0  0  0  0  0  0  0  0  0  0  0  0
   -0.2396   -3.9262    0.0000 C   0  0  0  0  0  0  0  0  0  0  0  0
    1.2312   -3.6317    0.0000 C   0  0  0  0  0  0  0  0  0  0  0  0
    1.4056   -2.1419    0.0000 C   0  0  0  0  0  0  0  0  0  0  0  0
    2.6295   -1.2746    0.0000 C   0  0  0  0  0  0  0  0  0  0  0  0
    3.9925   -1.9008    0.0000 C   0  0  0  0  0  0  0  0  0  0  0  0
    4.1317   -3.3944    0.0000 O   0  0  0  0  0  0  0  0  0  0  0  0
    5.2163   -1.0336    0.0000 C   0  0  0  0  0  0  0  0  0  0  0  0
    5.0772    0.4600    0.0000 C   0  0  0  0  0  0  0  0  0  0  0  0
    6.3010    1.3273    0.0000 C   0  0  0  0  0  0  0  0  0  0  0  0
    6.1619    2.8208    0.0000 C   0  0  0  0  0  0  0  0  0  0  0  0
    7.3857    3.6881    0.0000 O   0  0  0  0  0  0  0  0  0  0  0  0
    4.7989    3.4470    0.0000 C   0  0  0  0  0  0  0  0  0  0  0  0
    3.5750    2.5798    0.0000 C   0  0  0  0  0  0  0  0  0  0  0  0
    3.7142    1.0862    0.0000 C   0  0  0  0  0  0  0  0  0  0  0  0
    2.3511    1.7125    0.0000 C   0  0  0  0  0  0  0  0  0  0  0  0
    2.4903    0.2189    0.0000 C   0  0  0  0  0  0  0  0  0  0  0  0
    1.1273    0.8452    0.0000 C   0  0  0  0  0  0  0  0  0  0  0  0
   -0.0966   -0.0221    0.0000 C   0  0  0  0  0  0  0  0  0  0  0  0
    0.0426   -1.5156    0.0000 C   0  0  0  0  0  0  0  0  0  0  0  0
   -1.3784   -1.0353    0.0000 C   0  0  0  0  0  0  0  0  0  0  0  0
  2  1  1  6
  2  3  1  0
  3  4  1  0
  4  5  1  0
  5  6  2  0
  5  7  1  0
  7  8  1  0
  8  9  2  0
  8 10  2  0
  8 11  1  0
  2 12  1  0
 12 13  1  6
 13 14  1  0
 15 14  1  6
 15 16  1  0
 16 17  1  1
 17 18  1  1
 17 19  1  0
 20 19  1  1
 20 21  1  0
 21 22  1  0
 22 23  2  0
 22 24  1  0
 24 25  1  0
 25 26  1  0
 26 27  1  6
 26 28  1  0
 28 29  1  6
 29 30  1  0
 30 31  1  0
 31 32  1  6
 31 12  1  0
 31 15  1  0
 28 16  1  0
 26 20  1  0
M  END
>  <MS_ID>  (1095) 
MS1140

>  <SMILES>  (1095) 
C[C@H](CCC(=O)NS(=O)(=O)O)[C@H]1CC[C@H]2[C@@H]3[C@H](O)C[C@@H]4CC(=O)CC[C@]4(C)[C@H]3CC[C@]12C

>  <Structure_dimension>  (1095) 
2D

$$$$
MS1141
     RDKit          2D

 31 34  0  0  0  0  0  0  0  0999 V2000
   -3.9560   -3.4843    0.0000 C   0  0  0  0  0  0  0  0  0  0  0  0
   -2.9605   -2.3623    0.0000 C   0  0  0  0  0  0  0  0  0  0  0  0
   -3.4344   -0.9392    0.0000 C   0  0  0  0  0  0  0  0  0  0  0  0
   -4.9038   -0.6380    0.0000 C   0  0  0  0  0  0  0  0  0  0  0  0
   -5.3777    0.7852    0.0000 C   0  0  0  0  0  0  0  0  0  0  0  0
   -6.8472    1.0863    0.0000 O   0  0  0  0  0  0  0  0  0  0  0  0
   -4.3822    1.9072    0.0000 O   0  0  0  0  0  0  0  0  0  0  0  0
   -4.8561    3.3303    0.0000 C   0  0  0  0  0  0  0  0  0  0  0  0
   -6.3256    3.6315    0.0000 O   0  0  0  0  0  0  0  0  0  0  0  0
   -3.8606    4.4523    0.0000 O   0  0  0  0  0  0  0  0  0  0  0  0
   -1.4910   -2.6635    0.0000 C   0  0  0  0  0  0  0  0  0  0  0  0
   -0.8709   -4.0293    0.0000 C   0  0  0  0  0  0  0  0  0  0  0  0
    0.6197   -3.8617    0.0000 C   0  0  0  0  0  0  0  0  0  0  0  0
    0.9208   -2.3922    0.0000 C   0  0  0  0  0  0  0  0  0  0  0  0
    2.2144   -1.6327    0.0000 C   0  0  0  0  0  0  0  0  0  0  0  0
    3.5189   -2.3733    0.0000 C   0  0  0  0  0  0  0  0  0  0  0  0
    4.8124   -1.6138    0.0000 C   0  0  0  0  0  0  0  0  0  0  0  0
    4.8014   -0.1138    0.0000 C   0  0  0  0  0  0  0  0  0  0  0  0
    6.0950    0.6456    0.0000 C   0  0  0  0  0  0  0  0  0  0  0  0
    6.0840    2.1456    0.0000 C   0  0  0  0  0  0  0  0  0  0  0  0
    7.3776    2.9050    0.0000 O   0  0  0  0  0  0  0  0  0  0  0  0
    4.7796    2.8861    0.0000 C   0  0  0  0  0  0  0  0  0  0  0  0
    3.4860    2.1266    0.0000 C   0  0  0  0  0  0  0  0  0  0  0  0
    3.4970    0.6267    0.0000 C   0  0  0  0  0  0  0  0  0  0  0  0
    2.1925    1.3672    0.0000 C   0  0  0  0  0  0  0  0  0  0  0  0
    2.2034   -0.1328    0.0000 C   0  0  0  0  0  0  0  0  0  0  0  0
    0.8990    0.6077    0.0000 C   0  0  0  0  0  0  0  0  0  0  0  0
   -0.3946   -0.1517    0.0000 C   0  0  0  0  0  0  0  0  0  0  0  0
   -1.6990    0.5888    0.0000 O   0  0  0  0  0  0  0  0  0  0  0  0
   -0.3836   -1.6517    0.0000 C   0  0  0  0  0  0  0  0  0  0  0  0
   -1.7584   -1.0516    0.0000 C   0  0  0  0  0  0  0  0  0  0  0  0
  2  1  1  6
  2  3  1  0
  3  4  1  0
  4  5  1  0
  5  6  2  0
  5  7  1  0
  7  8  1  0
  8  9  2  0
  8 10  1  0
  2 11  1  0
 11 12  1  6
 12 13  1  0
 14 13  1  6
 14 15  1  0
 15 16  1  1
 16 17  1  0
 18 17  1  1
 18 19  1  0
 19 20  1  0
 20 21  2  0
 20 22  1  0
 22 23  1  0
 23 24  1  0
 24 25  1  6
 24 26  1  0
 26 27  1  6
 27 28  1  0
 28 29  1  1
 28 30  1  0
 30 31  1  6
 30 11  1  0
 30 14  1  0
 26 15  1  0
 24 18  1  0
M  END
>  <MS_ID>  (1096) 
MS1141

>  <SMILES>  (1096) 
C[C@H](CCC(=O)OC(=O)O)[C@H]1CC[C@H]2[C@@H]3CC[C@@H]4CC(=O)CC[C@]4(C)[C@H]3C[C@H](O)[C@]12C

>  <Structure_dimension>  (1096) 
2D

$$$$
MS1142
     RDKit          2D

 31 34  0  0  0  0  0  0  0  0999 V2000
   -4.0145   -2.9364    0.0000 C   0  0  0  0  0  0  0  0  0  0  0  0
   -2.9770   -1.8531    0.0000 C   0  0  0  0  0  0  0  0  0  0  0  0
   -3.3964   -0.4129    0.0000 C   0  0  0  0  0  0  0  0  0  0  0  0
   -4.8534   -0.0561    0.0000 C   0  0  0  0  0  0  0  0  0  0  0  0
   -5.2728    1.3841    0.0000 C   0  0  0  0  0  0  0  0  0  0  0  0
   -4.2353    2.4674    0.0000 O   0  0  0  0  0  0  0  0  0  0  0  0
   -6.7297    1.7410    0.0000 C   0  0  0  0  0  0  0  0  0  0  0  0
   -8.1866    2.0978    0.0000 F   0  0  0  0  0  0  0  0  0  0  0  0
   -6.3728    3.1979    0.0000 F   0  0  0  0  0  0  0  0  0  0  0  0
   -7.0866    0.2840    0.0000 F   0  0  0  0  0  0  0  0  0  0  0  0
   -1.5201   -2.2100    0.0000 C   0  0  0  0  0  0  0  0  0  0  0  0
   -0.9524   -3.5984    0.0000 C   0  0  0  0  0  0  0  0  0  0  0  0
    0.5435   -3.4876    0.0000 C   0  0  0  0  0  0  0  0  0  0  0  0
    0.9003   -2.0306    0.0000 C   0  0  0  0  0  0  0  0  0  0  0  0
    2.2218   -1.3210    0.0000 C   0  0  0  0  0  0  0  0  0  0  0  0
    3.4972   -2.1106    0.0000 C   0  0  0  0  0  0  0  0  0  0  0  0
    3.4510   -3.6099    0.0000 O   0  0  0  0  0  0  0  0  0  0  0  0
    4.8187   -1.4009    0.0000 C   0  0  0  0  0  0  0  0  0  0  0  0
    4.8648    0.0984    0.0000 C   0  0  0  0  0  0  0  0  0  0  0  0
    6.1863    0.8081    0.0000 C   0  0  0  0  0  0  0  0  0  0  0  0
    6.2325    2.3074    0.0000 C   0  0  0  0  0  0  0  0  0  0  0  0
    7.5540    3.0170    0.0000 O   0  0  0  0  0  0  0  0  0  0  0  0
    4.9571    3.0970    0.0000 C   0  0  0  0  0  0  0  0  0  0  0  0
    3.6356    2.3873    0.0000 C   0  0  0  0  0  0  0  0  0  0  0  0
    3.5895    0.8880    0.0000 C   0  0  0  0  0  0  0  0  0  0  0  0
    2.3141    1.6776    0.0000 C   0  0  0  0  0  0  0  0  0  0  0  0
    2.2680    0.1783    0.0000 C   0  0  0  0  0  0  0  0  0  0  0  0
    0.9926    0.9679    0.0000 C   0  0  0  0  0  0  0  0  0  0  0  0
   -0.3289    0.2583    0.0000 C   0  0  0  0  0  0  0  0  0  0  0  0
   -0.3750   -1.2410    0.0000 C   0  0  0  0  0  0  0  0  0  0  0  0
   -1.7259   -0.5891    0.0000 C   0  0  0  0  0  0  0  0  0  0  0  0
  2  1  1  6
  2  3  1  0
  3  4  1  0
  4  5  1  0
  5  6  2  0
  5  7  1  0
  7  8  1  0
  7  9  1  0
  7 10  1  0
  2 11  1  0
 11 12  1  6
 12 13  1  0
 14 13  1  6
 14 15  1  0
 15 16  1  1
 16 17  1  1
 16 18  1  0
 19 18  1  1
 19 20  1  0
 20 21  1  0
 21 22  1  1
 21 23  1  0
 23 24  1  0
 24 25  1  0
 25 26  1  6
 25 27  1  0
 27 28  1  6
 28 29  1  0
 29 30  1  0
 30 31  1  6
 30 11  1  0
 30 14  1  0
 27 15  1  0
 25 19  1  0
M  END
>  <MS_ID>  (1097) 
MS1142

>  <SMILES>  (1097) 
C[C@H](CCC(=O)C(F)(F)F)[C@H]1CC[C@H]2[C@@H]3[C@H](O)C[C@@H]4C[C@H](O)CC[C@]4(C)[C@H]3CC[C@]12C

>  <Structure_dimension>  (1097) 
2D

$$$$
MS1143
     RDKit          2D

 35 38  0  0  0  0  0  0  0  0999 V2000
   -2.4612   -4.0834    0.0000 C   0  0  0  0  0  0  0  0  0  0  0  0
   -1.7064   -2.7871    0.0000 C   0  0  0  0  0  0  0  0  0  0  0  0
   -2.4516   -1.4853    0.0000 C   0  0  0  0  0  0  0  0  0  0  0  0
   -3.9516   -1.4797    0.0000 C   0  0  0  0  0  0  0  0  0  0  0  0
   -4.6967   -0.1779    0.0000 C   0  0  0  0  0  0  0  0  0  0  0  0
   -3.9419    1.1183    0.0000 O   0  0  0  0  0  0  0  0  0  0  0  0
   -6.1967   -0.1724    0.0000 C   0  0  0  0  0  0  0  0  0  0  0  0
   -6.9515   -1.4686    0.0000 O   0  0  0  0  0  0  0  0  0  0  0  0
   -6.9419    1.1294    0.0000 N   0  0  0  0  0  0  0  0  0  0  0  0
   -8.4419    1.1350    0.0000 C   0  0  0  0  0  0  0  0  0  0  0  0
   -9.1871    2.4368    0.0000 C   0  0  0  0  0  0  0  0  0  0  0  0
   -8.4323    3.7331    0.0000 O   0  0  0  0  0  0  0  0  0  0  0  0
  -10.6871    2.4424    0.0000 O   0  0  0  0  0  0  0  0  0  0  0  0
   -0.2064   -2.7927    0.0000 C   0  0  0  0  0  0  0  0  0  0  0  0
    0.6708   -4.0094    0.0000 C   0  0  0  0  0  0  0  0  0  0  0  0
    2.0991   -3.5512    0.0000 C   0  0  0  0  0  0  0  0  0  0  0  0
    2.1046   -2.0512    0.0000 C   0  0  0  0  0  0  0  0  0  0  0  0
    3.2231   -1.0517    0.0000 C   0  0  0  0  0  0  0  0  0  0  0  0
    4.6479   -1.5205    0.0000 C   0  0  0  0  0  0  0  0  0  0  0  0
    4.9543   -2.9888    0.0000 O   0  0  0  0  0  0  0  0  0  0  0  0
    5.7663   -0.5209    0.0000 C   0  0  0  0  0  0  0  0  0  0  0  0
    7.1912   -0.9897    0.0000 O   0  0  0  0  0  0  0  0  0  0  0  0
    5.4599    0.9474    0.0000 C   0  0  0  0  0  0  0  0  0  0  0  0
    6.5784    1.9470    0.0000 C   0  0  0  0  0  0  0  0  0  0  0  0
    6.2719    3.4154    0.0000 C   0  0  0  0  0  0  0  0  0  0  0  0
    7.3904    4.4149    0.0000 O   0  0  0  0  0  0  0  0  0  0  0  0
    4.8471    3.8842    0.0000 C   0  0  0  0  0  0  0  0  0  0  0  0
    3.7286    2.8846    0.0000 C   0  0  0  0  0  0  0  0  0  0  0  0
    4.0351    1.4163    0.0000 C   0  0  0  0  0  0  0  0  0  0  0  0
    2.6102    1.8851    0.0000 C   0  0  0  0  0  0  0  0  0  0  0  0
    2.9166    0.4167    0.0000 C   0  0  0  0  0  0  0  0  0  0  0  0
    1.4918    0.8855    0.0000 C   0  0  0  0  0  0  0  0  0  0  0  0
    0.3733   -0.1140    0.0000 C   0  0  0  0  0  0  0  0  0  0  0  0
    0.6798   -1.5824    0.0000 C   0  0  0  0  0  0  0  0  0  0  0  0
   -0.7863   -1.2651    0.0000 C   0  0  0  0  0  0  0  0  0  0  0  0
  2  1  1  6
  2  3  1  0
  3  4  1  0
  4  5  1  0
  5  6  2  0
  5  7  1  0
  7  8  2  0
  7  9  1  0
  9 10  1  0
 10 11  1  0
 11 12  2  0
 11 13  1  0
  2 14  1  0
 14 15  1  6
 15 16  1  0
 17 16  1  6
 17 18  1  0
 18 19  1  1
 19 20  1  1
 19 21  1  0
 21 22  1  1
 21 23  1  0
 23 24  1  1
 24 25  1  0
 25 26  1  1
 25 27  1  0
 27 28  1  0
 28 29  1  0
 29 30  1  6
 29 31  1  0
 31 32  1  6
 32 33  1  0
 33 34  1  0
 34 35  1  6
 34 14  1  0
 34 17  1  0
 31 18  1  0
 29 23  1  0
M  END
>  <MS_ID>  (1098) 
MS1143

>  <SMILES>  (1098) 
C[C@H](CCC(=O)C(=O)NCC(=O)O)[C@H]1CC[C@H]2[C@@H]3[C@H](O)[C@H](O)[C@@H]4C[C@H](O)CC[C@]4(C)[C@H]3CC[C@]12C

>  <Structure_dimension>  (1098) 
2D

$$$$
MS1144
     RDKit          2D

 30 33  0  0  0  0  0  0  0  0999 V2000
   -3.4828   -3.5922    0.0000 C   0  0  0  0  0  0  0  0  0  0  0  0
   -2.5481   -2.4190    0.0000 C   0  0  0  0  0  0  0  0  0  0  0  0
   -3.0967   -1.0230    0.0000 C   0  0  0  0  0  0  0  0  0  0  0  0
   -4.5801   -0.8000    0.0000 C   0  0  0  0  0  0  0  0  0  0  0  0
   -5.1287    0.5960    0.0000 C   0  0  0  0  0  0  0  0  0  0  0  0
   -4.1940    1.7692    0.0000 O   0  0  0  0  0  0  0  0  0  0  0  0
   -6.6120    0.8190    0.0000 O   0  0  0  0  0  0  0  0  0  0  0  0
   -7.1606    2.2150    0.0000 C   0  0  0  0  0  0  0  0  0  0  0  0
   -8.6440    2.4379    0.0000 C   0  0  0  0  0  0  0  0  0  0  0  0
   -9.1926    3.8340    0.0000 N   0  0  0  0  0  0  0  0  0  0  0  0
   -1.0648   -2.6420    0.0000 C   0  0  0  0  0  0  0  0  0  0  0  0
   -0.3732   -3.9730    0.0000 C   0  0  0  0  0  0  0  0  0  0  0  0
    1.1064   -3.7267    0.0000 C   0  0  0  0  0  0  0  0  0  0  0  0
    1.3293   -2.2433    0.0000 C   0  0  0  0  0  0  0  0  0  0  0  0
    2.5808   -1.4164    0.0000 C   0  0  0  0  0  0  0  0  0  0  0  0
    3.9227   -2.0868    0.0000 C   0  0  0  0  0  0  0  0  0  0  0  0
    5.1742   -1.2599    0.0000 C   0  0  0  0  0  0  0  0  0  0  0  0
    5.0838    0.2373    0.0000 C   0  0  0  0  0  0  0  0  0  0  0  0
    6.3353    1.0642    0.0000 C   0  0  0  0  0  0  0  0  0  0  0  0
    6.2450    2.5615    0.0000 C   0  0  0  0  0  0  0  0  0  0  0  0
    7.4965    3.3884    0.0000 O   0  0  0  0  0  0  0  0  0  0  0  0
    4.9031    3.2319    0.0000 C   0  0  0  0  0  0  0  0  0  0  0  0
    3.6516    2.4050    0.0000 C   0  0  0  0  0  0  0  0  0  0  0  0
    3.7420    0.9077    0.0000 C   0  0  0  0  0  0  0  0  0  0  0  0
    2.4001    1.5781    0.0000 C   0  0  0  0  0  0  0  0  0  0  0  0
    2.4905    0.0808    0.0000 C   0  0  0  0  0  0  0  0  0  0  0  0
    1.1486    0.7512    0.0000 C   0  0  0  0  0  0  0  0  0  0  0  0
   -0.1029   -0.0757    0.0000 C   0  0  0  0  0  0  0  0  0  0  0  0
   -0.0125   -1.5729    0.0000 C   0  0  0  0  0  0  0  0  0  0  0  0
   -1.4171   -1.0465    0.0000 C   0  0  0  0  0  0  0  0  0  0  0  0
  2  1  1  6
  2  3  1  0
  3  4  1  0
  4  5  1  0
  5  6  2  0
  5  7  1  0
  7  8  1  0
  8  9  1  0
  9 10  1  0
  2 11  1  0
 11 12  1  6
 12 13  1  0
 14 13  1  6
 14 15  1  0
 15 16  1  1
 16 17  1  0
 18 17  1  1
 18 19  1  0
 19 20  1  0
 20 21  1  1
 20 22  1  0
 22 23  1  0
 23 24  1  0
 24 25  1  6
 24 26  1  0
 26 27  1  6
 27 28  1  0
 28 29  1  0
 29 30  1  6
 29 11  1  0
 29 14  1  0
 26 15  1  0
 24 18  1  0
M  END
>  <MS_ID>  (1099) 
MS1144

>  <SMILES>  (1099) 
C[C@H](CCC(=O)OCCN)[C@H]1CC[C@H]2[C@@H]3CC[C@@H]4C[C@H](O)CC[C@]4(C)[C@H]3CC[C@]12C

>  <Structure_dimension>  (1099) 
2D

$$$$
MS1145
     RDKit          2D

 32 35  0  0  0  0  0  0  0  0999 V2000
  -10.5534    3.1554    0.0000 C   0  0  0  0  0  0  0  0  0  0  0  0
   -9.0579    3.0406    0.0000 C   0  0  0  0  0  0  0  0  0  0  0  0
   -8.4096    1.6879    0.0000 C   0  0  0  0  0  0  0  0  0  0  0  0
   -6.9140    1.5730    0.0000 C   0  0  0  0  0  0  0  0  0  0  0  0
   -6.2657    0.2203    0.0000 C   0  0  0  0  0  0  0  0  0  0  0  0
   -4.7701    0.1054    0.0000 C   0  0  0  0  0  0  0  0  0  0  0  0
   -3.9228    1.3432    0.0000 O   0  0  0  0  0  0  0  0  0  0  0  0
   -4.1218   -1.2472    0.0000 C   0  0  0  0  0  0  0  0  0  0  0  0
   -2.6262   -1.3621    0.0000 C   0  0  0  0  0  0  0  0  0  0  0  0
   -1.9779   -2.7148    0.0000 C   0  0  0  0  0  0  0  0  0  0  0  0
   -2.8252   -3.9526    0.0000 C   0  0  0  0  0  0  0  0  0  0  0  0
   -0.4823   -2.8297    0.0000 C   0  0  0  0  0  0  0  0  0  0  0  0
    0.3038   -4.1072    0.0000 C   0  0  0  0  0  0  0  0  0  0  0  0
    1.7617   -3.7543    0.0000 C   0  0  0  0  0  0  0  0  0  0  0  0
    1.8766   -2.2587    0.0000 C   0  0  0  0  0  0  0  0  0  0  0  0
    3.0650   -1.3433    0.0000 C   0  0  0  0  0  0  0  0  0  0  0  0
    4.4518   -1.9148    0.0000 C   0  0  0  0  0  0  0  0  0  0  0  0
    5.6402   -0.9994    0.0000 C   0  0  0  0  0  0  0  0  0  0  0  0
    5.4416    0.4874    0.0000 C   0  0  0  0  0  0  0  0  0  0  0  0
    6.6299    1.4028    0.0000 C   0  0  0  0  0  0  0  0  0  0  0  0
    6.4313    2.8896    0.0000 C   0  0  0  0  0  0  0  0  0  0  0  0
    7.6197    3.8049    0.0000 O   0  0  0  0  0  0  0  0  0  0  0  0
    5.0445    3.4610    0.0000 C   0  0  0  0  0  0  0  0  0  0  0  0
    3.8561    2.5456    0.0000 C   0  0  0  0  0  0  0  0  0  0  0  0
    4.0547    1.0588    0.0000 C   0  0  0  0  0  0  0  0  0  0  0  0
    2.6678    1.6303    0.0000 C   0  0  0  0  0  0  0  0  0  0  0  0
    2.8664    0.1435    0.0000 C   0  0  0  0  0  0  0  0  0  0  0  0
    1.4795    0.7149    0.0000 C   0  0  0  0  0  0  0  0  0  0  0  0
    0.2912   -0.2005    0.0000 C   0  0  0  0  0  0  0  0  0  0  0  0
   -1.0957    0.3710    0.0000 O   0  0  0  0  0  0  0  0  0  0  0  0
    0.4897   -1.6873    0.0000 C   0  0  0  0  0  0  0  0  0  0  0  0
   -0.9493   -1.2639    0.0000 C   0  0  0  0  0  0  0  0  0  0  0  0
  1  2  1  0
  2  3  1  0
  3  4  1  0
  4  5  1  0
  5  6  1  0
  6  7  2  0
  6  8  1  0
  8  9  1  0
  9 10  1  0
 10 11  1  6
 10 12  1  0
 12 13  1  6
 13 14  1  0
 15 14  1  6
 15 16  1  0
 16 17  1  1
 17 18  1  0
 19 18  1  1
 19 20  1  0
 20 21  1  0
 21 22  1  1
 21 23  1  0
 23 24  1  0
 24 25  1  0
 25 26  1  6
 25 27  1  0
 27 28  1  6
 28 29  1  0
 29 30  1  1
 29 31  1  0
 31 32  1  6
 31 12  1  0
 31 15  1  0
 27 16  1  0
 25 19  1  0
M  END
>  <MS_ID>  (1100) 
MS1145

>  <SMILES>  (1100) 
CCCCCC(=O)CC[C@@H](C)[C@H]1CC[C@H]2[C@@H]3CC[C@@H]4C[C@H](O)CC[C@]4(C)[C@H]3C[C@H](O)[C@]12C

>  <Structure_dimension>  (1100) 
2D

$$$$
MS1146
     RDKit          2D

 30 33  0  0  0  0  0  0  0  0999 V2000
   -4.3209   -2.7536    0.0000 C   0  0  0  0  0  0  0  0  0  0  0  0
   -3.2523   -1.7010    0.0000 C   0  0  0  0  0  0  0  0  0  0  0  0
   -3.6295   -0.2492    0.0000 C   0  0  0  0  0  0  0  0  0  0  0  0
   -5.0755    0.1499    0.0000 C   0  0  0  0  0  0  0  0  0  0  0  0
   -5.4527    1.6017    0.0000 C   0  0  0  0  0  0  0  0  0  0  0  0
   -4.3841    2.6543    0.0000 O   0  0  0  0  0  0  0  0  0  0  0  0
   -6.8987    2.0009    0.0000 C   0  0  0  0  0  0  0  0  0  0  0  0
   -7.2759    3.4526    0.0000 O   0  0  0  0  0  0  0  0  0  0  0  0
   -7.9673    0.9482    0.0000 O   0  0  0  0  0  0  0  0  0  0  0  0
   -1.8064   -2.1002    0.0000 C   0  0  0  0  0  0  0  0  0  0  0  0
   -1.2794   -3.5046    0.0000 C   0  0  0  0  0  0  0  0  0  0  0  0
    0.2191   -3.4374    0.0000 C   0  0  0  0  0  0  0  0  0  0  0  0
    0.6183   -1.9915    0.0000 C   0  0  0  0  0  0  0  0  0  0  0  0
    1.9599   -1.3206    0.0000 C   0  0  0  0  0  0  0  0  0  0  0  0
    3.2117   -2.1470    0.0000 C   0  0  0  0  0  0  0  0  0  0  0  0
    3.1219   -3.6443    0.0000 O   0  0  0  0  0  0  0  0  0  0  0  0
    4.5533   -1.4762    0.0000 C   0  0  0  0  0  0  0  0  0  0  0  0
    4.6431    0.0211    0.0000 C   0  0  0  0  0  0  0  0  0  0  0  0
    5.9847    0.6920    0.0000 C   0  0  0  0  0  0  0  0  0  0  0  0
    6.0745    2.1893    0.0000 C   0  0  0  0  0  0  0  0  0  0  0  0
    7.4161    2.8602    0.0000 O   0  0  0  0  0  0  0  0  0  0  0  0
    4.8227    3.0158    0.0000 C   0  0  0  0  0  0  0  0  0  0  0  0
    3.4811    2.3449    0.0000 C   0  0  0  0  0  0  0  0  0  0  0  0
    3.3913    0.8476    0.0000 C   0  0  0  0  0  0  0  0  0  0  0  0
    2.1395    1.6740    0.0000 C   0  0  0  0  0  0  0  0  0  0  0  0
    2.0497    0.1767    0.0000 C   0  0  0  0  0  0  0  0  0  0  0  0
    0.7979    1.0031    0.0000 C   0  0  0  0  0  0  0  0  0  0  0  0
   -0.5437    0.3323    0.0000 C   0  0  0  0  0  0  0  0  0  0  0  0
   -0.6335   -1.1650    0.0000 C   0  0  0  0  0  0  0  0  0  0  0  0
   -1.9649   -0.4740    0.0000 C   0  0  0  0  0  0  0  0  0  0  0  0
  2  1  1  6
  2  3  1  0
  3  4  1  0
  4  5  1  0
  5  6  2  0
  5  7  1  0
  7  8  1  0
  7  9  1  0
  2 10  1  0
 10 11  1  6
 11 12  1  0
 13 12  1  6
 13 14  1  0
 14 15  1  1
 15 16  1  6
 15 17  1  0
 18 17  1  1
 18 19  1  0
 19 20  1  0
 20 21  1  1
 20 22  1  0
 22 23  1  0
 23 24  1  0
 24 25  1  6
 24 26  1  0
 26 27  1  6
 27 28  1  0
 28 29  1  0
 29 30  1  6
 29 10  1  0
 29 13  1  0
 26 14  1  0
 24 18  1  0
M  END
>  <MS_ID>  (1101) 
MS1146

>  <SMILES>  (1101) 
C[C@H](CCC(=O)C(O)O)[C@H]1CC[C@H]2[C@@H]3[C@@H](O)C[C@@H]4C[C@H](O)CC[C@]4(C)[C@H]3CC[C@]12C

>  <Structure_dimension>  (1101) 
2D

$$$$
MS1147
     RDKit          2D

 36 39  0  0  0  0  0  0  0  0999 V2000
   -0.8730   -4.6562    0.0000 C   0  0  0  0  0  0  0  0  0  0  0  0
   -0.2962   -3.2715    0.0000 C   0  0  0  0  0  0  0  0  0  0  0  0
   -1.2070   -2.0797    0.0000 C   0  0  0  0  0  0  0  0  0  0  0  0
   -2.6946   -2.2726    0.0000 C   0  0  0  0  0  0  0  0  0  0  0  0
   -3.6054   -1.0808    0.0000 C   0  0  0  0  0  0  0  0  0  0  0  0
   -3.0287    0.3039    0.0000 O   0  0  0  0  0  0  0  0  0  0  0  0
   -5.0930   -1.2737    0.0000 N   0  0  0  0  0  0  0  0  0  0  0  0
   -6.0038   -0.0818    0.0000 C   0  0  0  0  0  0  0  0  0  0  0  0
   -7.4913   -0.2747    0.0000 C   0  0  0  0  0  0  0  0  0  0  0  0
   -8.4021    0.9171    0.0000 C   0  0  0  0  0  0  0  0  0  0  0  0
   -7.8254    2.3018    0.0000 O   0  0  0  0  0  0  0  0  0  0  0  0
   -9.8897    0.7242    0.0000 C   0  0  0  0  0  0  0  0  0  0  0  0
  -10.8005    1.9160    0.0000 C   0  0  0  0  0  0  0  0  0  0  0  0
  -10.2238    3.3007    0.0000 O   0  0  0  0  0  0  0  0  0  0  0  0
  -12.2881    1.7231    0.0000 O   0  0  0  0  0  0  0  0  0  0  0  0
    1.1913   -3.0786    0.0000 C   0  0  0  0  0  0  0  0  0  0  0  0
    2.2217   -4.1687    0.0000 C   0  0  0  0  0  0  0  0  0  0  0  0
    3.5769   -3.5255    0.0000 C   0  0  0  0  0  0  0  0  0  0  0  0
    3.3840   -2.0380    0.0000 C   0  0  0  0  0  0  0  0  0  0  0  0
    4.3604   -0.8993    0.0000 C   0  0  0  0  0  0  0  0  0  0  0  0
    5.8347   -1.1755    0.0000 C   0  0  0  0  0  0  0  0  0  0  0  0
    6.3327   -2.5905    0.0000 O   0  0  0  0  0  0  0  0  0  0  0  0
    6.8111   -0.0368    0.0000 C   0  0  0  0  0  0  0  0  0  0  0  0
    6.3132    1.3781    0.0000 C   0  0  0  0  0  0  0  0  0  0  0  0
    7.2895    2.5168    0.0000 C   0  0  0  0  0  0  0  0  0  0  0  0
    6.7916    3.9318    0.0000 C   0  0  0  0  0  0  0  0  0  0  0  0
    7.7680    5.0705    0.0000 O   0  0  0  0  0  0  0  0  0  0  0  0
    5.3172    4.2080    0.0000 C   0  0  0  0  0  0  0  0  0  0  0  0
    4.3409    3.0693    0.0000 C   0  0  0  0  0  0  0  0  0  0  0  0
    4.8388    1.6543    0.0000 C   0  0  0  0  0  0  0  0  0  0  0  0
    3.3645    1.9306    0.0000 C   0  0  0  0  0  0  0  0  0  0  0  0
    3.8624    0.5156    0.0000 C   0  0  0  0  0  0  0  0  0  0  0  0
    2.3881    0.7919    0.0000 C   0  0  0  0  0  0  0  0  0  0  0  0
    1.4117   -0.3468    0.0000 C   0  0  0  0  0  0  0  0  0  0  0  0
    1.9096   -1.7618    0.0000 C   0  0  0  0  0  0  0  0  0  0  0  0
    0.4145   -1.6412    0.0000 C   0  0  0  0  0  0  0  0  0  0  0  0
  2  1  1  6
  2  3  1  0
  3  4  1  0
  4  5  1  0
  5  6  2  0
  5  7  1  0
  7  8  1  0
  8  9  1  0
  9 10  1  0
 10 11  2  0
 10 12  1  0
 12 13  1  0
 13 14  2  0
 13 15  1  0
  2 16  1  0
 16 17  1  6
 17 18  1  0
 19 18  1  6
 19 20  1  0
 20 21  1  1
 21 22  1  6
 21 23  1  0
 24 23  1  1
 24 25  1  0
 25 26  1  0
 26 27  1  1
 26 28  1  0
 28 29  1  0
 29 30  1  0
 30 31  1  6
 30 32  1  0
 32 33  1  6
 33 34  1  0
 34 35  1  0
 35 36  1  6
 35 16  1  0
 35 19  1  0
 32 20  1  0
 30 24  1  0
M  END
>  <MS_ID>  (1102) 
MS1147

>  <SMILES>  (1102) 
C[C@H](CCC(=O)NCCC(=O)CC(=O)O)[C@H]1CC[C@H]2[C@@H]3[C@@H](O)C[C@@H]4C[C@H](O)CC[C@]4(C)[C@H]3CC[C@]12C

>  <Structure_dimension>  (1102) 
2D

$$$$
MS1148
     RDKit          2D

 35 39  0  0  0  0  0  0  0  0999 V2000
   -2.5210   -3.9198    0.0000 C   0  0  0  0  0  0  0  0  0  0  0  0
   -1.6831   -2.6756    0.0000 C   0  0  0  0  0  0  0  0  0  0  0  0
   -2.3416   -1.3279    0.0000 C   0  0  0  0  0  0  0  0  0  0  0  0
   -3.8380   -1.2243    0.0000 C   0  0  0  0  0  0  0  0  0  0  0  0
   -4.4965    0.1234    0.0000 C   0  0  0  0  0  0  0  0  0  0  0  0
   -3.6586    1.3675    0.0000 O   0  0  0  0  0  0  0  0  0  0  0  0
   -5.9929    0.2270    0.0000 N   0  0  0  0  0  0  0  0  0  0  0  0
   -6.9563   -0.9228    0.0000 C   0  0  0  0  0  0  0  0  0  0  0  0
   -8.3475   -0.3618    0.0000 C   0  0  0  0  0  0  0  0  0  0  0  0
   -8.2439    1.1346    0.0000 C   0  0  0  0  0  0  0  0  0  0  0  0
   -6.7887    1.4985    0.0000 C   0  0  0  0  0  0  0  0  0  0  0  0
   -6.2277    2.8897    0.0000 C   0  0  0  0  0  0  0  0  0  0  0  0
   -4.7425    3.0995    0.0000 O   0  0  0  0  0  0  0  0  0  0  0  0
   -7.1521    4.0710    0.0000 O   0  0  0  0  0  0  0  0  0  0  0  0
   -0.1866   -2.7792    0.0000 C   0  0  0  0  0  0  0  0  0  0  0  0
    0.6091   -4.0507    0.0000 C   0  0  0  0  0  0  0  0  0  0  0  0
    2.0643   -3.6868    0.0000 C   0  0  0  0  0  0  0  0  0  0  0  0
    2.1679   -2.1904    0.0000 C   0  0  0  0  0  0  0  0  0  0  0  0
    3.3493   -1.2661    0.0000 C   0  0  0  0  0  0  0  0  0  0  0  0
    4.7404   -1.8270    0.0000 C   0  0  0  0  0  0  0  0  0  0  0  0
    4.9502   -3.3123    0.0000 O   0  0  0  0  0  0  0  0  0  0  0  0
    5.9218   -0.9027    0.0000 C   0  0  0  0  0  0  0  0  0  0  0  0
    5.7120    0.5826    0.0000 C   0  0  0  0  0  0  0  0  0  0  0  0
    6.8934    1.5069    0.0000 C   0  0  0  0  0  0  0  0  0  0  0  0
    6.6836    2.9921    0.0000 C   0  0  0  0  0  0  0  0  0  0  0  0
    7.8649    3.9165    0.0000 O   0  0  0  0  0  0  0  0  0  0  0  0
    5.2924    3.5531    0.0000 C   0  0  0  0  0  0  0  0  0  0  0  0
    4.1110    2.6287    0.0000 C   0  0  0  0  0  0  0  0  0  0  0  0
    4.3208    1.1435    0.0000 C   0  0  0  0  0  0  0  0  0  0  0  0
    2.9297    1.7044    0.0000 C   0  0  0  0  0  0  0  0  0  0  0  0
    3.1395    0.2192    0.0000 C   0  0  0  0  0  0  0  0  0  0  0  0
    1.7483    0.7801    0.0000 C   0  0  0  0  0  0  0  0  0  0  0  0
    0.5669   -0.1442    0.0000 C   0  0  0  0  0  0  0  0  0  0  0  0
    0.7767   -1.6295    0.0000 C   0  0  0  0  0  0  0  0  0  0  0  0
   -0.6655   -1.2170    0.0000 C   0  0  0  0  0  0  0  0  0  0  0  0
  2  1  1  6
  2  3  1  0
  3  4  1  0
  4  5  1  0
  5  6  2  0
  5  7  1  0
  7  8  1  0
  8  9  1  0
  9 10  1  0
 10 11  1  0
 11 12  1  6
 12 13  2  0
 12 14  1  0
  2 15  1  0
 15 16  1  6
 16 17  1  0
 18 17  1  6
 18 19  1  0
 19 20  1  1
 20 21  1  1
 20 22  1  0
 23 22  1  1
 23 24  1  0
 24 25  1  0
 25 26  1  1
 25 27  1  0
 27 28  1  0
 28 29  1  0
 29 30  1  6
 29 31  1  0
 31 32  1  6
 32 33  1  0
 33 34  1  0
 34 35  1  6
 11  7  1  0
 34 15  1  0
 34 18  1  0
 31 19  1  0
 29 23  1  0
M  END
>  <MS_ID>  (1103) 
MS1148

>  <SMILES>  (1103) 
C[C@H](CCC(=O)N1CCC[C@@H]1C(=O)O)[C@H]1CC[C@H]2[C@@H]3[C@H](O)C[C@@H]4C[C@H](O)CC[C@]4(C)[C@H]3CC[C@]12C

>  <Structure_dimension>  (1103) 
2D

$$$$
MS1149
     RDKit          2D

 29 32  0  0  0  0  0  0  0  0999 V2000
   -7.4712    3.6525    0.0000 C   0  0  0  0  0  0  0  0  0  0  0  0
   -7.1264    2.1927    0.0000 O   0  0  0  0  0  0  0  0  0  0  0  0
   -5.6897    1.7615    0.0000 C   0  0  0  0  0  0  0  0  0  0  0  0
   -4.5979    2.7900    0.0000 O   0  0  0  0  0  0  0  0  0  0  0  0
   -5.3448    0.3016    0.0000 C   0  0  0  0  0  0  0  0  0  0  0  0
   -3.9081   -0.1296    0.0000 C   0  0  0  0  0  0  0  0  0  0  0  0
   -3.5633   -1.5894    0.0000 C   0  0  0  0  0  0  0  0  0  0  0  0
   -4.6551   -2.6180    0.0000 C   0  0  0  0  0  0  0  0  0  0  0  0
   -2.1266   -2.0207    0.0000 C   0  0  0  0  0  0  0  0  0  0  0  0
   -1.6310   -3.4364    0.0000 C   0  0  0  0  0  0  0  0  0  0  0  0
   -0.1314   -3.4026    0.0000 C   0  0  0  0  0  0  0  0  0  0  0  0
    0.2998   -1.9659    0.0000 C   0  0  0  0  0  0  0  0  0  0  0  0
    1.6561   -1.3251    0.0000 C   0  0  0  0  0  0  0  0  0  0  0  0
    2.8892   -2.1792    0.0000 C   0  0  0  0  0  0  0  0  0  0  0  0
    2.7660   -3.6741    0.0000 O   0  0  0  0  0  0  0  0  0  0  0  0
    4.2454   -1.5383    0.0000 C   0  0  0  0  0  0  0  0  0  0  0  0
    4.3685   -0.0434    0.0000 C   0  0  0  0  0  0  0  0  0  0  0  0
    5.7247    0.5975    0.0000 C   0  0  0  0  0  0  0  0  0  0  0  0
    5.8478    2.0924    0.0000 C   0  0  0  0  0  0  0  0  0  0  0  0
    7.2040    2.7332    0.0000 O   0  0  0  0  0  0  0  0  0  0  0  0
    4.6147    2.9465    0.0000 C   0  0  0  0  0  0  0  0  0  0  0  0
    3.2585    2.3056    0.0000 C   0  0  0  0  0  0  0  0  0  0  0  0
    3.1354    0.8107    0.0000 C   0  0  0  0  0  0  0  0  0  0  0  0
    1.9023    1.6648    0.0000 C   0  0  0  0  0  0  0  0  0  0  0  0
    1.7792    0.1699    0.0000 C   0  0  0  0  0  0  0  0  0  0  0  0
    0.5461    1.0239    0.0000 C   0  0  0  0  0  0  0  0  0  0  0  0
   -0.8101    0.3831    0.0000 C   0  0  0  0  0  0  0  0  0  0  0  0
   -0.9333   -1.1118    0.0000 C   0  0  0  0  0  0  0  0  0  0  0  0
   -2.2489   -0.3913    0.0000 C   0  0  0  0  0  0  0  0  0  0  0  0
  1  2  1  0
  2  3  1  0
  3  4  2  0
  3  5  1  0
  5  6  1  0
  6  7  1  0
  7  8  1  6
  7  9  1  0
  9 10  1  6
 10 11  1  0
 12 11  1  6
 12 13  1  0
 13 14  1  1
 14 15  1  6
 14 16  1  0
 17 16  1  1
 17 18  1  0
 18 19  1  0
 19 20  1  1
 19 21  1  0
 21 22  1  0
 22 23  1  0
 23 24  1  6
 23 25  1  0
 25 26  1  6
 26 27  1  0
 27 28  1  0
 28 29  1  6
 28  9  1  0
 28 12  1  0
 25 13  1  0
 23 17  1  0
M  END
>  <MS_ID>  (1104) 
MS1149

>  <SMILES>  (1104) 
COC(=O)CC[C@@H](C)[C@H]1CC[C@H]2[C@@H]3[C@@H](O)C[C@@H]4C[C@H](O)CC[C@]4(C)[C@H]3CC[C@]12C

>  <Structure_dimension>  (1104) 
2D

$$$$
MS1150
     RDKit          2D

 34 37  0  0  0  0  0  0  0  0999 V2000
   -1.6851   -4.3936    0.0000 C   0  0  0  0  0  0  0  0  0  0  0  0
   -1.0219   -3.0482    0.0000 C   0  0  0  0  0  0  0  0  0  0  0  0
   -1.8555   -1.8011    0.0000 C   0  0  0  0  0  0  0  0  0  0  0  0
   -3.3523   -1.8996    0.0000 C   0  0  0  0  0  0  0  0  0  0  0  0
   -4.1859   -0.6525    0.0000 C   0  0  0  0  0  0  0  0  0  0  0  0
   -3.5228    0.6929    0.0000 O   0  0  0  0  0  0  0  0  0  0  0  0
   -5.6827   -0.7510    0.0000 O   0  0  0  0  0  0  0  0  0  0  0  0
   -6.5163    0.4961    0.0000 C   0  0  0  0  0  0  0  0  0  0  0  0
   -8.0131    0.3977    0.0000 C   0  0  0  0  0  0  0  0  0  0  0  0
   -8.8467    1.6447    0.0000 O   0  0  0  0  0  0  0  0  0  0  0  0
  -10.3435    1.5463    0.0000 C   0  0  0  0  0  0  0  0  0  0  0  0
  -11.1771    2.7933    0.0000 C   0  0  0  0  0  0  0  0  0  0  0  0
  -12.6738    2.6949    0.0000 O   0  0  0  0  0  0  0  0  0  0  0  0
    0.4748   -2.9498    0.0000 C   0  0  0  0  0  0  0  0  0  0  0  0
    1.4342   -4.1028    0.0000 C   0  0  0  0  0  0  0  0  0  0  0  0
    2.8273   -3.5467    0.0000 C   0  0  0  0  0  0  0  0  0  0  0  0
    2.7289   -2.0499    0.0000 C   0  0  0  0  0  0  0  0  0  0  0  0
    3.7754   -0.9753    0.0000 C   0  0  0  0  0  0  0  0  0  0  0  0
    5.2293   -1.3442    0.0000 C   0  0  0  0  0  0  0  0  0  0  0  0
    5.6368   -2.7878    0.0000 O   0  0  0  0  0  0  0  0  0  0  0  0
    6.2758   -0.2695    0.0000 C   0  0  0  0  0  0  0  0  0  0  0  0
    5.8683    1.1741    0.0000 C   0  0  0  0  0  0  0  0  0  0  0  0
    6.9148    2.2488    0.0000 C   0  0  0  0  0  0  0  0  0  0  0  0
    6.5073    3.6924    0.0000 C   0  0  0  0  0  0  0  0  0  0  0  0
    7.5538    4.7670    0.0000 O   0  0  0  0  0  0  0  0  0  0  0  0
    5.0534    4.0613    0.0000 C   0  0  0  0  0  0  0  0  0  0  0  0
    4.0069    2.9866    0.0000 C   0  0  0  0  0  0  0  0  0  0  0  0
    4.4144    1.5430    0.0000 C   0  0  0  0  0  0  0  0  0  0  0  0
    2.9605    1.9119    0.0000 C   0  0  0  0  0  0  0  0  0  0  0  0
    3.3679    0.4683    0.0000 C   0  0  0  0  0  0  0  0  0  0  0  0
    1.9140    0.8373    0.0000 C   0  0  0  0  0  0  0  0  0  0  0  0
    0.8675   -0.2374    0.0000 C   0  0  0  0  0  0  0  0  0  0  0  0
    1.2750   -1.6810    0.0000 C   0  0  0  0  0  0  0  0  0  0  0  0
   -0.2095   -1.4661    0.0000 C   0  0  0  0  0  0  0  0  0  0  0  0
  2  1  1  6
  2  3  1  0
  3  4  1  0
  4  5  1  0
  5  6  2  0
  5  7  1  0
  7  8  1  0
  8  9  1  0
  9 10  1  0
 10 11  1  0
 11 12  1  0
 12 13  1  0
  2 14  1  0
 14 15  1  6
 15 16  1  0
 17 16  1  6
 17 18  1  0
 18 19  1  1
 19 20  1  6
 19 21  1  0
 22 21  1  1
 22 23  1  0
 23 24  1  0
 24 25  1  1
 24 26  1  0
 26 27  1  0
 27 28  1  0
 28 29  1  6
 28 30  1  0
 30 31  1  6
 31 32  1  0
 32 33  1  0
 33 34  1  6
 33 14  1  0
 33 17  1  0
 30 18  1  0
 28 22  1  0
M  END
>  <MS_ID>  (1105) 
MS1150

>  <SMILES>  (1105) 
C[C@H](CCC(=O)OCCOCCO)[C@H]1CC[C@H]2[C@@H]3[C@@H](O)C[C@@H]4C[C@H](O)CC[C@]4(C)[C@H]3CC[C@]12C

>  <Structure_dimension>  (1105) 
2D

$$$$
MS1151
     RDKit          2D

 32 35  0  0  0  0  0  0  0  0999 V2000
   -3.8307   -3.4888    0.0000 C   0  0  0  0  0  0  0  0  0  0  0  0
   -2.9213   -2.2959    0.0000 C   0  0  0  0  0  0  0  0  0  0  0  0
   -3.4997   -0.9119    0.0000 C   0  0  0  0  0  0  0  0  0  0  0  0
   -4.9875   -0.7208    0.0000 C   0  0  0  0  0  0  0  0  0  0  0  0
   -5.5659    0.6632    0.0000 C   0  0  0  0  0  0  0  0  0  0  0  0
   -4.6565    1.8561    0.0000 O   0  0  0  0  0  0  0  0  0  0  0  0
   -7.0537    0.8543    0.0000 N   0  0  0  0  0  0  0  0  0  0  0  0
   -7.6321    2.2383    0.0000 N   0  0  0  0  0  0  0  0  0  0  0  0
   -9.1199    2.4294    0.0000 C   0  0  0  0  0  0  0  0  0  0  0  0
   -6.7227    3.4312    0.0000 C   0  0  0  0  0  0  0  0  0  0  0  0
   -1.4336   -2.4870    0.0000 C   0  0  0  0  0  0  0  0  0  0  0  0
   -0.7137   -3.8029    0.0000 C   0  0  0  0  0  0  0  0  0  0  0  0
    0.7603   -3.5249    0.0000 C   0  0  0  0  0  0  0  0  0  0  0  0
    0.9514   -2.0372    0.0000 C   0  0  0  0  0  0  0  0  0  0  0  0
    2.1849   -1.1836    0.0000 C   0  0  0  0  0  0  0  0  0  0  0  0
    3.5409   -1.8251    0.0000 C   0  0  0  0  0  0  0  0  0  0  0  0
    3.6633   -3.3201    0.0000 O   0  0  0  0  0  0  0  0  0  0  0  0
    4.7744   -0.9716    0.0000 C   0  0  0  0  0  0  0  0  0  0  0  0
    6.1303   -1.6131    0.0000 O   0  0  0  0  0  0  0  0  0  0  0  0
    4.6520    0.5234    0.0000 C   0  0  0  0  0  0  0  0  0  0  0  0
    5.8855    1.3769    0.0000 C   0  0  0  0  0  0  0  0  0  0  0  0
    5.7630    2.8719    0.0000 C   0  0  0  0  0  0  0  0  0  0  0  0
    6.9966    3.7254    0.0000 O   0  0  0  0  0  0  0  0  0  0  0  0
    4.4071    3.5134    0.0000 C   0  0  0  0  0  0  0  0  0  0  0  0
    3.1736    2.6599    0.0000 C   0  0  0  0  0  0  0  0  0  0  0  0
    3.2960    1.1649    0.0000 C   0  0  0  0  0  0  0  0  0  0  0  0
    1.9401    1.8063    0.0000 C   0  0  0  0  0  0  0  0  0  0  0  0
    2.0625    0.3113    0.0000 C   0  0  0  0  0  0  0  0  0  0  0  0
    0.7066    0.9528    0.0000 C   0  0  0  0  0  0  0  0  0  0  0  0
   -0.5269    0.0993    0.0000 C   0  0  0  0  0  0  0  0  0  0  0  0
   -0.4045   -1.3957    0.0000 C   0  0  0  0  0  0  0  0  0  0  0  0
   -1.8200   -0.8994    0.0000 C   0  0  0  0  0  0  0  0  0  0  0  0
  2  1  1  6
  2  3  1  0
  3  4  1  0
  4  5  1  0
  5  6  2  0
  5  7  1  0
  7  8  1  0
  8  9  1  0
  8 10  1  0
  2 11  1  0
 11 12  1  6
 12 13  1  0
 14 13  1  6
 14 15  1  0
 15 16  1  1
 16 17  1  1
 16 18  1  0
 18 19  1  1
 18 20  1  0
 20 21  1  1
 21 22  1  0
 22 23  1  1
 22 24  1  0
 24 25  1  0
 25 26  1  0
 26 27  1  6
 26 28  1  0
 28 29  1  6
 29 30  1  0
 30 31  1  0
 31 32  1  6
 31 11  1  0
 31 14  1  0
 28 15  1  0
 26 20  1  0
M  END
>  <MS_ID>  (1106) 
MS1151

>  <SMILES>  (1106) 
C[C@H](CCC(=O)NN(C)C)[C@H]1CC[C@H]2[C@@H]3[C@H](O)[C@H](O)[C@@H]4C[C@H](O)CC[C@]4(C)[C@H]3CC[C@]12C

>  <Structure_dimension>  (1106) 
2D

$$$$
MS1152
     RDKit          2D

 37 41  0  0  0  0  0  0  0  0999 V2000
   -1.6283   -3.9909    0.0000 C   0  0  0  0  0  0  0  0  0  0  0  0
   -0.8318   -2.7198    0.0000 C   0  0  0  0  0  0  0  0  0  0  0  0
   -1.5343   -1.3945    0.0000 C   0  0  0  0  0  0  0  0  0  0  0  0
   -3.0333   -1.3402    0.0000 C   0  0  0  0  0  0  0  0  0  0  0  0
   -3.7358   -0.0148    0.0000 C   0  0  0  0  0  0  0  0  0  0  0  0
   -2.9393    1.2562    0.0000 O   0  0  0  0  0  0  0  0  0  0  0  0
   -5.2348    0.0395    0.0000 O   0  0  0  0  0  0  0  0  0  0  0  0
   -5.9373    1.3648    0.0000 C   0  0  0  0  0  0  0  0  0  0  0  0
   -7.4363    1.4191    0.0000 C   0  0  0  0  0  0  0  0  0  0  0  0
   -8.1388    2.7444    0.0000 C   0  0  0  0  0  0  0  0  0  0  0  0
   -9.6378    2.7987    0.0000 C   0  0  0  0  0  0  0  0  0  0  0  0
  -10.4343    1.5277    0.0000 C   0  0  0  0  0  0  0  0  0  0  0  0
   -9.7319    0.2024    0.0000 C   0  0  0  0  0  0  0  0  0  0  0  0
  -10.5284   -1.0687    0.0000 O   0  0  0  0  0  0  0  0  0  0  0  0
   -8.2328    0.1481    0.0000 C   0  0  0  0  0  0  0  0  0  0  0  0
    0.6672   -2.7741    0.0000 C   0  0  0  0  0  0  0  0  0  0  0  0
    1.5044   -4.0188    0.0000 C   0  0  0  0  0  0  0  0  0  0  0  0
    2.9468   -3.6072    0.0000 C   0  0  0  0  0  0  0  0  0  0  0  0
    3.0011   -2.1082    0.0000 C   0  0  0  0  0  0  0  0  0  0  0  0
    4.1514   -1.1455    0.0000 C   0  0  0  0  0  0  0  0  0  0  0  0
    5.5603   -1.6603    0.0000 C   0  0  0  0  0  0  0  0  0  0  0  0
    5.8189   -3.1379    0.0000 O   0  0  0  0  0  0  0  0  0  0  0  0
    6.7106   -0.6977    0.0000 C   0  0  0  0  0  0  0  0  0  0  0  0
    6.4521    0.7799    0.0000 C   0  0  0  0  0  0  0  0  0  0  0  0
    7.6024    1.7426    0.0000 C   0  0  0  0  0  0  0  0  0  0  0  0
    7.3438    3.2201    0.0000 C   0  0  0  0  0  0  0  0  0  0  0  0
    8.4942    4.1828    0.0000 O   0  0  0  0  0  0  0  0  0  0  0  0
    5.9350    3.7350    0.0000 C   0  0  0  0  0  0  0  0  0  0  0  0
    4.7846    2.7723    0.0000 C   0  0  0  0  0  0  0  0  0  0  0  0
    5.0432    1.2948    0.0000 C   0  0  0  0  0  0  0  0  0  0  0  0
    3.6343    1.8096    0.0000 C   0  0  0  0  0  0  0  0  0  0  0  0
    3.8929    0.3321    0.0000 C   0  0  0  0  0  0  0  0  0  0  0  0
    2.4840    0.8469    0.0000 C   0  0  0  0  0  0  0  0  0  0  0  0
    1.3337   -0.1158    0.0000 C   0  0  0  0  0  0  0  0  0  0  0  0
   -0.0752    0.3991    0.0000 O   0  0  0  0  0  0  0  0  0  0  0  0
    1.5922   -1.5933    0.0000 C   0  0  0  0  0  0  0  0  0  0  0  0
    0.1373   -1.2285    0.0000 C   0  0  0  0  0  0  0  0  0  0  0  0
  2  1  1  6
  2  3  1  0
  3  4  1  0
  4  5  1  0
  5  6  2  0
  5  7  1  0
  7  8  1  0
  8  9  1  0
  9 10  2  0
 10 11  1  0
 11 12  2  0
 12 13  1  0
 13 14  1  0
 13 15  2  0
  2 16  1  0
 16 17  1  6
 17 18  1  0
 19 18  1  6
 19 20  1  0
 20 21  1  1
 21 22  1  1
 21 23  1  0
 24 23  1  1
 24 25  1  0
 25 26  1  0
 26 27  1  1
 26 28  1  0
 28 29  1  0
 29 30  1  0
 30 31  1  6
 30 32  1  0
 32 33  1  6
 33 34  1  0
 34 35  1  1
 34 36  1  0
 36 37  1  6
 15  9  1  0
 36 16  1  0
 36 19  1  0
 32 20  1  0
 30 24  1  0
M  END
>  <MS_ID>  (1107) 
MS1152

>  <SMILES>  (1107) 
C[C@H](CCC(=O)OCc1cccc(O)c1)[C@H]1CC[C@H]2[C@@H]3[C@H](O)C[C@@H]4C[C@H](O)CC[C@]4(C)[C@H]3C[C@H](O)[C@]12C

>  <Structure_dimension>  (1107) 
2D

$$$$
MS1153
     RDKit          2D

 29 32  0  0  0  0  0  0  0  0999 V2000
   -4.6212   -2.5003    0.0000 C   0  0  0  0  0  0  0  0  0  0  0  0
   -3.5781   -1.4224    0.0000 C   0  0  0  0  0  0  0  0  0  0  0  0
   -3.9900    0.0199    0.0000 C   0  0  0  0  0  0  0  0  0  0  0  0
   -5.4450    0.3844    0.0000 C   0  0  0  0  0  0  0  0  0  0  0  0
   -5.8569    1.8267    0.0000 C   0  0  0  0  0  0  0  0  0  0  0  0
   -4.8137    2.9046    0.0000 O   0  0  0  0  0  0  0  0  0  0  0  0
   -7.3119    2.1912    0.0000 O   0  0  0  0  0  0  0  0  0  0  0  0
   -2.1230   -1.7869    0.0000 C   0  0  0  0  0  0  0  0  0  0  0  0
   -1.5626   -3.1783    0.0000 C   0  0  0  0  0  0  0  0  0  0  0  0
   -0.0662   -3.0753    0.0000 C   0  0  0  0  0  0  0  0  0  0  0  0
    0.2983   -1.6202    0.0000 C   0  0  0  0  0  0  0  0  0  0  0  0
    1.6235   -0.9174    0.0000 C   0  0  0  0  0  0  0  0  0  0  0  0
    2.8947   -1.7137    0.0000 C   0  0  0  0  0  0  0  0  0  0  0  0
    2.8407   -3.2127    0.0000 C   0  0  0  0  0  0  0  0  0  0  0  0
    4.1119   -4.0090    0.0000 O   0  0  0  0  0  0  0  0  0  0  0  0
    4.2199   -1.0109    0.0000 C   0  0  0  0  0  0  0  0  0  0  0  0
    4.2739    0.4881    0.0000 C   0  0  0  0  0  0  0  0  0  0  0  0
    5.5990    1.1908    0.0000 C   0  0  0  0  0  0  0  0  0  0  0  0
    5.6530    2.6899    0.0000 C   0  0  0  0  0  0  0  0  0  0  0  0
    4.3818    3.4861    0.0000 C   0  0  0  0  0  0  0  0  0  0  0  0
    3.0566    2.7834    0.0000 C   0  0  0  0  0  0  0  0  0  0  0  0
    3.0026    1.2843    0.0000 C   0  0  0  0  0  0  0  0  0  0  0  0
    1.7314    2.0806    0.0000 C   0  0  0  0  0  0  0  0  0  0  0  0
    1.6775    0.5816    0.0000 C   0  0  0  0  0  0  0  0  0  0  0  0
    0.4063    1.3778    0.0000 C   0  0  0  0  0  0  0  0  0  0  0  0
   -0.9189    0.6751    0.0000 C   0  0  0  0  0  0  0  0  0  0  0  0
   -2.1901    1.4713    0.0000 O   0  0  0  0  0  0  0  0  0  0  0  0
   -0.9729   -0.8239    0.0000 C   0  0  0  0  0  0  0  0  0  0  0  0
   -2.3204   -0.1649    0.0000 C   0  0  0  0  0  0  0  0  0  0  0  0
  2  1  1  6
  2  3  1  0
  3  4  1  0
  4  5  1  0
  5  6  2  0
  5  7  1  0
  2  8  1  0
  8  9  1  6
  9 10  1  0
 11 10  1  6
 11 12  1  0
 12 13  1  1
 13 14  1  1
 14 15  1  0
 13 16  1  0
 17 16  1  1
 17 18  1  0
 18 19  1  0
 19 20  1  0
 20 21  1  0
 21 22  1  0
 22 23  1  6
 22 24  1  0
 24 25  1  6
 25 26  1  0
 26 27  1  6
 26 28  1  0
 28 29  1  6
 28  8  1  0
 28 11  1  0
 24 12  1  0
 22 17  1  0
M  END
>  <MS_ID>  (1108) 
MS1153

>  <SMILES>  (1108) 
C[C@H](CCC(=O)O)[C@H]1CC[C@H]2[C@@H]3[C@H](CO)C[C@@H]4CCCC[C@]4(C)[C@H]3C[C@@H](O)[C@]12C

>  <Structure_dimension>  (1108) 
2D

$$$$
MS1154
     RDKit          2D

 33 36  0  0  0  0  0  0  0  0999 V2000
   -2.4343   -4.1694    0.0000 C   0  0  0  0  0  0  0  0  0  0  0  0
   -1.6856   -2.8696    0.0000 C   0  0  0  0  0  0  0  0  0  0  0  0
   -2.4369   -1.5713    0.0000 C   0  0  0  0  0  0  0  0  0  0  0  0
   -3.9369   -1.5728    0.0000 C   0  0  0  0  0  0  0  0  0  0  0  0
   -4.6882   -0.2745    0.0000 C   0  0  0  0  0  0  0  0  0  0  0  0
   -3.9395    1.0253    0.0000 O   0  0  0  0  0  0  0  0  0  0  0  0
   -6.1882   -0.2760    0.0000 O   0  0  0  0  0  0  0  0  0  0  0  0
   -6.9395    1.0223    0.0000 C   0  0  0  0  0  0  0  0  0  0  0  0
   -8.4395    1.0208    0.0000 O   0  0  0  0  0  0  0  0  0  0  0  0
   -9.1908    2.3191    0.0000 C   0  0  0  0  0  0  0  0  0  0  0  0
   -8.4421    3.6189    0.0000 O   0  0  0  0  0  0  0  0  0  0  0  0
  -10.6908    2.3176    0.0000 O   0  0  0  0  0  0  0  0  0  0  0  0
   -0.1856   -2.8681    0.0000 C   0  0  0  0  0  0  0  0  0  0  0  0
    0.6973   -4.0807    0.0000 C   0  0  0  0  0  0  0  0  0  0  0  0
    2.1234   -3.6158    0.0000 C   0  0  0  0  0  0  0  0  0  0  0  0
    2.1219   -2.1158    0.0000 C   0  0  0  0  0  0  0  0  0  0  0  0
    3.2356   -1.1109    0.0000 C   0  0  0  0  0  0  0  0  0  0  0  0
    4.6626   -1.5730    0.0000 C   0  0  0  0  0  0  0  0  0  0  0  0
    4.9760   -3.0399    0.0000 O   0  0  0  0  0  0  0  0  0  0  0  0
    5.7764   -0.5682    0.0000 C   0  0  0  0  0  0  0  0  0  0  0  0
    5.4630    0.8987    0.0000 C   0  0  0  0  0  0  0  0  0  0  0  0
    6.5767    1.9035    0.0000 C   0  0  0  0  0  0  0  0  0  0  0  0
    6.2634    3.3704    0.0000 C   0  0  0  0  0  0  0  0  0  0  0  0
    7.3771    4.3752    0.0000 O   0  0  0  0  0  0  0  0  0  0  0  0
    4.8363    3.8325    0.0000 C   0  0  0  0  0  0  0  0  0  0  0  0
    3.7226    2.8277    0.0000 C   0  0  0  0  0  0  0  0  0  0  0  0
    4.0360    1.3608    0.0000 C   0  0  0  0  0  0  0  0  0  0  0  0
    2.6089    1.8229    0.0000 C   0  0  0  0  0  0  0  0  0  0  0  0
    2.9223    0.3560    0.0000 C   0  0  0  0  0  0  0  0  0  0  0  0
    1.4952    0.8181    0.0000 C   0  0  0  0  0  0  0  0  0  0  0  0
    0.3815   -0.1867    0.0000 C   0  0  0  0  0  0  0  0  0  0  0  0
    0.6948   -1.6537    0.0000 C   0  0  0  0  0  0  0  0  0  0  0  0
   -0.7727   -1.3433    0.0000 C   0  0  0  0  0  0  0  0  0  0  0  0
  2  1  1  6
  2  3  1  0
  3  4  1  0
  4  5  1  0
  5  6  2  0
  5  7  1  0
  7  8  1  0
  8  9  1  0
  9 10  1  0
 10 11  2  0
 10 12  1  0
  2 13  1  0
 13 14  1  6
 14 15  1  0
 16 15  1  6
 16 17  1  0
 17 18  1  1
 18 19  1  6
 18 20  1  0
 21 20  1  1
 21 22  1  0
 22 23  1  0
 23 24  1  1
 23 25  1  0
 25 26  1  0
 26 27  1  0
 27 28  1  6
 27 29  1  0
 29 30  1  6
 30 31  1  0
 31 32  1  0
 32 33  1  6
 32 13  1  0
 32 16  1  0
 29 17  1  0
 27 21  1  0
M  END
>  <MS_ID>  (1109) 
MS1154

>  <SMILES>  (1109) 
C[C@H](CCC(=O)OCOC(=O)O)[C@H]1CC[C@H]2[C@@H]3[C@@H](O)C[C@@H]4C[C@H](O)CC[C@]4(C)[C@H]3CC[C@]12C

>  <Structure_dimension>  (1109) 
2D

$$$$
MS1155
     RDKit          2D

 34 37  0  0  0  0  0  0  0  0999 V2000
   -2.9749   -4.4563    0.0000 C   0  0  0  0  0  0  0  0  0  0  0  0
   -2.2212   -3.1594    0.0000 C   0  0  0  0  0  0  0  0  0  0  0  0
   -2.9676   -1.8583    0.0000 C   0  0  0  0  0  0  0  0  0  0  0  0
   -4.4676   -1.8541    0.0000 C   0  0  0  0  0  0  0  0  0  0  0  0
   -5.2139   -0.5529    0.0000 C   0  0  0  0  0  0  0  0  0  0  0  0
   -6.7139   -0.5487    0.0000 O   0  0  0  0  0  0  0  0  0  0  0  0
   -4.4603    0.7440    0.0000 O   0  0  0  0  0  0  0  0  0  0  0  0
   -5.2067    2.0451    0.0000 C   0  0  0  0  0  0  0  0  0  0  0  0
   -6.7067    2.0493    0.0000 O   0  0  0  0  0  0  0  0  0  0  0  0
   -4.4530    3.3421    0.0000 C   0  0  0  0  0  0  0  0  0  0  0  0
   -3.1561    2.5884    0.0000 C   0  0  0  0  0  0  0  0  0  0  0  0
   -5.7500    4.0957    0.0000 C   0  0  0  0  0  0  0  0  0  0  0  0
   -3.6994    4.6390    0.0000 O   0  0  0  0  0  0  0  0  0  0  0  0
   -0.7212   -3.1636    0.0000 C   0  0  0  0  0  0  0  0  0  0  0  0
    0.1570   -4.3796    0.0000 C   0  0  0  0  0  0  0  0  0  0  0  0
    1.5849   -3.9200    0.0000 C   0  0  0  0  0  0  0  0  0  0  0  0
    1.5891   -2.4201    0.0000 C   0  0  0  0  0  0  0  0  0  0  0  0
    2.7066   -1.4195    0.0000 C   0  0  0  0  0  0  0  0  0  0  0  0
    4.1319   -1.8870    0.0000 C   0  0  0  0  0  0  0  0  0  0  0  0
    4.4397   -3.3551    0.0000 O   0  0  0  0  0  0  0  0  0  0  0  0
    5.2495   -0.8864    0.0000 C   0  0  0  0  0  0  0  0  0  0  0  0
    4.9417    0.5817    0.0000 C   0  0  0  0  0  0  0  0  0  0  0  0
    6.0592    1.5822    0.0000 C   0  0  0  0  0  0  0  0  0  0  0  0
    5.7515    3.0503    0.0000 C   0  0  0  0  0  0  0  0  0  0  0  0
    6.8690    4.0509    0.0000 O   0  0  0  0  0  0  0  0  0  0  0  0
    4.3262    3.5178    0.0000 C   0  0  0  0  0  0  0  0  0  0  0  0
    3.2087    2.5173    0.0000 C   0  0  0  0  0  0  0  0  0  0  0  0
    3.5164    1.0492    0.0000 C   0  0  0  0  0  0  0  0  0  0  0  0
    2.0911    1.5167    0.0000 C   0  0  0  0  0  0  0  0  0  0  0  0
    2.3989    0.0486    0.0000 C   0  0  0  0  0  0  0  0  0  0  0  0
    0.9736    0.5161    0.0000 C   0  0  0  0  0  0  0  0  0  0  0  0
   -0.1439   -0.4844    0.0000 C   0  0  0  0  0  0  0  0  0  0  0  0
    0.1638   -1.9525    0.0000 C   0  0  0  0  0  0  0  0  0  0  0  0
   -1.3025   -1.6366    0.0000 C   0  0  0  0  0  0  0  0  0  0  0  0
  2  1  1  6
  2  3  1  0
  3  4  1  0
  4  5  1  0
  5  6  2  0
  5  7  1  0
  7  8  1  0
  8  9  2  0
  8 10  1  0
 10 11  1  0
 10 12  1  0
 10 13  1  0
  2 14  1  0
 14 15  1  6
 15 16  1  0
 17 16  1  6
 17 18  1  0
 18 19  1  1
 19 20  1  6
 19 21  1  0
 22 21  1  1
 22 23  1  0
 23 24  1  0
 24 25  1  1
 24 26  1  0
 26 27  1  0
 27 28  1  0
 28 29  1  6
 28 30  1  0
 30 31  1  6
 31 32  1  0
 32 33  1  0
 33 34  1  6
 33 14  1  0
 33 17  1  0
 30 18  1  0
 28 22  1  0
M  END
>  <MS_ID>  (1110) 
MS1155

>  <SMILES>  (1110) 
C[C@H](CCC(=O)OC(=O)C(C)(C)O)[C@H]1CC[C@H]2[C@@H]3[C@@H](O)C[C@@H]4C[C@H](O)CC[C@]4(C)[C@H]3CC[C@]12C

>  <Structure_dimension>  (1110) 
2D

$$$$
MS1156
     RDKit          2D

 35 38  0  0  0  0  0  0  0  0999 V2000
   -1.8798   -4.2575    0.0000 C   0  0  0  0  0  0  0  0  0  0  0  0
   -1.1658   -2.9383    0.0000 C   0  0  0  0  0  0  0  0  0  0  0  0
   -1.9512   -1.6604    0.0000 C   0  0  0  0  0  0  0  0  0  0  0  0
   -3.4506   -1.7016    0.0000 C   0  0  0  0  0  0  0  0  0  0  0  0
   -4.2361   -0.4237    0.0000 C   0  0  0  0  0  0  0  0  0  0  0  0
   -3.5221    0.8955    0.0000 O   0  0  0  0  0  0  0  0  0  0  0  0
   -5.7355   -0.4649    0.0000 C   0  0  0  0  0  0  0  0  0  0  0  0
   -6.5209    0.8130    0.0000 S   0  0  0  0  0  0  0  0  0  0  0  0
   -8.0204    0.7717    0.0000 C   0  0  0  0  0  0  0  0  0  0  0  0
   -8.8058    2.0497    0.0000 C   0  0  0  0  0  0  0  0  0  0  0  0
  -10.3052    2.0084    0.0000 C   0  0  0  0  0  0  0  0  0  0  0  0
  -11.0192    0.6893    0.0000 O   0  0  0  0  0  0  0  0  0  0  0  0
  -11.0906    3.2864    0.0000 O   0  0  0  0  0  0  0  0  0  0  0  0
    0.3337   -2.8971    0.0000 C   0  0  0  0  0  0  0  0  0  0  0  0
    1.2484   -4.0859    0.0000 C   0  0  0  0  0  0  0  0  0  0  0  0
    2.6617   -3.5834    0.0000 C   0  0  0  0  0  0  0  0  0  0  0  0
    2.6204   -2.0839    0.0000 C   0  0  0  0  0  0  0  0  0  0  0  0
    3.7071   -1.0500    0.0000 C   0  0  0  0  0  0  0  0  0  0  0  0
    5.1459   -1.4741    0.0000 C   0  0  0  0  0  0  0  0  0  0  0  0
    5.4980   -2.9322    0.0000 O   0  0  0  0  0  0  0  0  0  0  0  0
    6.2326   -0.4401    0.0000 C   0  0  0  0  0  0  0  0  0  0  0  0
    5.8805    1.0180    0.0000 C   0  0  0  0  0  0  0  0  0  0  0  0
    6.9672    2.0519    0.0000 C   0  0  0  0  0  0  0  0  0  0  0  0
    6.6152    3.5100    0.0000 C   0  0  0  0  0  0  0  0  0  0  0  0
    7.7019    4.5440    0.0000 O   0  0  0  0  0  0  0  0  0  0  0  0
    5.1764    3.9341    0.0000 C   0  0  0  0  0  0  0  0  0  0  0  0
    4.0897    2.9002    0.0000 C   0  0  0  0  0  0  0  0  0  0  0  0
    4.4418    1.4421    0.0000 C   0  0  0  0  0  0  0  0  0  0  0  0
    3.0030    1.8662    0.0000 C   0  0  0  0  0  0  0  0  0  0  0  0
    3.3551    0.4081    0.0000 C   0  0  0  0  0  0  0  0  0  0  0  0
    1.9163    0.8323    0.0000 C   0  0  0  0  0  0  0  0  0  0  0  0
    0.8296   -0.2017    0.0000 C   0  0  0  0  0  0  0  0  0  0  0  0
   -0.6092    0.2224    0.0000 O   0  0  0  0  0  0  0  0  0  0  0  0
    1.1816   -1.6598    0.0000 C   0  0  0  0  0  0  0  0  0  0  0  0
   -0.2936   -1.3884    0.0000 C   0  0  0  0  0  0  0  0  0  0  0  0
  2  1  1  6
  2  3  1  0
  3  4  1  0
  4  5  1  0
  5  6  2  0
  5  7  1  0
  7  8  1  0
  8  9  1  0
  9 10  1  0
 10 11  1  0
 11 12  2  0
 11 13  1  0
  2 14  1  0
 14 15  1  6
 15 16  1  0
 17 16  1  6
 17 18  1  0
 18 19  1  1
 19 20  1  1
 19 21  1  0
 22 21  1  1
 22 23  1  0
 23 24  1  0
 24 25  1  1
 24 26  1  0
 26 27  1  0
 27 28  1  0
 28 29  1  6
 28 30  1  0
 30 31  1  6
 31 32  1  0
 32 33  1  1
 32 34  1  0
 34 35  1  6
 34 14  1  0
 34 17  1  0
 30 18  1  0
 28 22  1  0
M  END
>  <MS_ID>  (1111) 
MS1156

>  <SMILES>  (1111) 
C[C@H](CCC(=O)CSCCC(=O)O)[C@H]1CC[C@H]2[C@@H]3[C@H](O)C[C@@H]4C[C@H](O)CC[C@]4(C)[C@H]3C[C@H](O)[C@]12C

>  <Structure_dimension>  (1111) 
2D

$$$$
MS1157
     RDKit          2D

 31 34  0  0  0  0  0  0  0  0999 V2000
   -3.6377   -3.4900    0.0000 C   0  0  0  0  0  0  0  0  0  0  0  0
   -2.6684   -2.3453    0.0000 C   0  0  0  0  0  0  0  0  0  0  0  0
   -3.1751   -0.9335    0.0000 C   0  0  0  0  0  0  0  0  0  0  0  0
   -4.6511   -0.6664    0.0000 C   0  0  0  0  0  0  0  0  0  0  0  0
   -5.1578    0.7454    0.0000 C   0  0  0  0  0  0  0  0  0  0  0  0
   -4.1885    1.8902    0.0000 O   0  0  0  0  0  0  0  0  0  0  0  0
   -6.6339    1.0125    0.0000 C   0  0  0  0  0  0  0  0  0  0  0  0
   -7.1406    2.4243    0.0000 C   0  0  0  0  0  0  0  0  0  0  0  0
   -6.1713    3.5691    0.0000 O   0  0  0  0  0  0  0  0  0  0  0  0
   -8.6166    2.6914    0.0000 O   0  0  0  0  0  0  0  0  0  0  0  0
   -1.1923   -2.6123    0.0000 C   0  0  0  0  0  0  0  0  0  0  0  0
   -0.5408   -3.9635    0.0000 C   0  0  0  0  0  0  0  0  0  0  0  0
    0.9455   -3.7613    0.0000 C   0  0  0  0  0  0  0  0  0  0  0  0
    1.2126   -2.2853    0.0000 C   0  0  0  0  0  0  0  0  0  0  0  0
    2.4882   -1.4961    0.0000 C   0  0  0  0  0  0  0  0  0  0  0  0
    3.8095   -2.2063    0.0000 C   0  0  0  0  0  0  0  0  0  0  0  0
    5.0851   -1.4171    0.0000 C   0  0  0  0  0  0  0  0  0  0  0  0
    5.0394    0.0822    0.0000 C   0  0  0  0  0  0  0  0  0  0  0  0
    6.3151    0.8714    0.0000 C   0  0  0  0  0  0  0  0  0  0  0  0
    6.2694    2.3707    0.0000 C   0  0  0  0  0  0  0  0  0  0  0  0
    7.5450    3.1599    0.0000 O   0  0  0  0  0  0  0  0  0  0  0  0
    4.9481    3.0808    0.0000 C   0  0  0  0  0  0  0  0  0  0  0  0
    3.6725    2.2917    0.0000 C   0  0  0  0  0  0  0  0  0  0  0  0
    3.7182    0.7924    0.0000 C   0  0  0  0  0  0  0  0  0  0  0  0
    2.3969    1.5025    0.0000 C   0  0  0  0  0  0  0  0  0  0  0  0
    2.4426    0.0032    0.0000 C   0  0  0  0  0  0  0  0  0  0  0  0
    1.1213    0.7133    0.0000 C   0  0  0  0  0  0  0  0  0  0  0  0
   -0.1543   -0.0759    0.0000 C   0  0  0  0  0  0  0  0  0  0  0  0
   -1.4756    0.6342    0.0000 O   0  0  0  0  0  0  0  0  0  0  0  0
   -0.1087   -1.5752    0.0000 C   0  0  0  0  0  0  0  0  0  0  0  0
   -1.4969   -1.0071    0.0000 C   0  0  0  0  0  0  0  0  0  0  0  0
  2  1  1  6
  2  3  1  0
  3  4  1  0
  4  5  1  0
  5  6  2  0
  5  7  1  0
  7  8  1  0
  8  9  2  0
  8 10  1  0
  2 11  1  0
 11 12  1  6
 12 13  1  0
 14 13  1  6
 14 15  1  0
 15 16  1  1
 16 17  1  0
 18 17  1  1
 18 19  1  0
 19 20  1  0
 20 21  1  6
 20 22  1  0
 22 23  1  0
 23 24  1  0
 24 25  1  6
 24 26  1  0
 26 27  1  6
 27 28  1  0
 28 29  1  1
 28 30  1  0
 30 31  1  6
 30 11  1  0
 30 14  1  0
 26 15  1  0
 24 18  1  0
M  END
>  <MS_ID>  (1112) 
MS1157

>  <SMILES>  (1112) 
C[C@H](CCC(=O)CC(=O)O)[C@H]1CC[C@H]2[C@@H]3CC[C@@H]4C[C@@H](O)CC[C@]4(C)[C@H]3C[C@H](O)[C@]12C

>  <Structure_dimension>  (1112) 
2D

$$$$
MS1158
     RDKit          2D

 34 38  0  0  0  0  0  0  0  0999 V2000
   -2.8489   -4.1271    0.0000 C   0  0  0  0  0  0  0  0  0  0  0  0
   -2.0902   -2.8331    0.0000 C   0  0  0  0  0  0  0  0  0  0  0  0
   -2.8315   -1.5291    0.0000 C   0  0  0  0  0  0  0  0  0  0  0  0
   -4.3315   -1.5191    0.0000 C   0  0  0  0  0  0  0  0  0  0  0  0
   -5.0728   -0.2151    0.0000 C   0  0  0  0  0  0  0  0  0  0  0  0
   -4.3141    1.0789    0.0000 O   0  0  0  0  0  0  0  0  0  0  0  0
   -6.5727   -0.2050    0.0000 C   0  0  0  0  0  0  0  0  0  0  0  0
   -7.3140    1.0990    0.0000 N   0  0  0  0  0  0  0  0  0  0  0  0
   -8.8047    1.2657    0.0000 C   0  0  0  0  0  0  0  0  0  0  0  0
   -9.1068    2.7350    0.0000 C   0  0  0  0  0  0  0  0  0  0  0  0
   -7.8028    3.4763    0.0000 C   0  0  0  0  0  0  0  0  0  0  0  0
   -6.6948    2.4652    0.0000 N   0  0  0  0  0  0  0  0  0  0  0  0
   -0.5902   -2.8432    0.0000 C   0  0  0  0  0  0  0  0  0  0  0  0
    0.2833   -4.0625    0.0000 C   0  0  0  0  0  0  0  0  0  0  0  0
    1.7130   -3.6086    0.0000 C   0  0  0  0  0  0  0  0  0  0  0  0
    1.7230   -2.1086    0.0000 C   0  0  0  0  0  0  0  0  0  0  0  0
    2.8444   -1.1124    0.0000 C   0  0  0  0  0  0  0  0  0  0  0  0
    4.2678   -1.5854    0.0000 C   0  0  0  0  0  0  0  0  0  0  0  0
    4.5699   -3.0547    0.0000 O   0  0  0  0  0  0  0  0  0  0  0  0
    5.3892   -0.5892    0.0000 C   0  0  0  0  0  0  0  0  0  0  0  0
    6.8127   -1.0622    0.0000 O   0  0  0  0  0  0  0  0  0  0  0  0
    5.0872    0.8801    0.0000 C   0  0  0  0  0  0  0  0  0  0  0  0
    6.2086    1.8763    0.0000 C   0  0  0  0  0  0  0  0  0  0  0  0
    5.9065    3.3456    0.0000 C   0  0  0  0  0  0  0  0  0  0  0  0
    7.0279    4.3418    0.0000 O   0  0  0  0  0  0  0  0  0  0  0  0
    4.4831    3.8186    0.0000 C   0  0  0  0  0  0  0  0  0  0  0  0
    3.3617    2.8224    0.0000 C   0  0  0  0  0  0  0  0  0  0  0  0
    3.6637    1.3531    0.0000 C   0  0  0  0  0  0  0  0  0  0  0  0
    2.2403    1.8262    0.0000 C   0  0  0  0  0  0  0  0  0  0  0  0
    2.5423    0.3569    0.0000 C   0  0  0  0  0  0  0  0  0  0  0  0
    1.1189    0.8299    0.0000 C   0  0  0  0  0  0  0  0  0  0  0  0
   -0.0025   -0.1663    0.0000 C   0  0  0  0  0  0  0  0  0  0  0  0
    0.2995   -1.6355    0.0000 C   0  0  0  0  0  0  0  0  0  0  0  0
   -1.1656   -1.3139    0.0000 C   0  0  0  0  0  0  0  0  0  0  0  0
  2  1  1  6
  2  3  1  0
  3  4  1  0
  4  5  1  0
  5  6  2  0
  5  7  1  0
  7  8  1  0
  8  9  1  0
  9 10  2  0
 10 11  1  0
 11 12  2  0
  2 13  1  0
 13 14  1  6
 14 15  1  0
 16 15  1  6
 16 17  1  0
 17 18  1  1
 18 19  1  1
 18 20  1  0
 20 21  1  1
 20 22  1  0
 22 23  1  1
 23 24  1  0
 24 25  1  1
 24 26  1  0
 26 27  1  0
 27 28  1  0
 28 29  1  6
 28 30  1  0
 30 31  1  6
 31 32  1  0
 32 33  1  0
 33 34  1  6
 12  8  1  0
 33 13  1  0
 33 16  1  0
 30 17  1  0
 28 22  1  0
M  END
>  <MS_ID>  (1113) 
MS1158

>  <SMILES>  (1113) 
C[C@H](CCC(=O)Cn1cccn1)[C@H]1CC[C@H]2[C@@H]3[C@H](O)[C@H](O)[C@@H]4C[C@H](O)CC[C@]4(C)[C@H]3CC[C@]12C

>  <Structure_dimension>  (1113) 
2D

$$$$
MS1159
     RDKit          2D

 36 40  0  0  0  0  0  0  0  0999 V2000
   -2.0095   -4.4332    0.0000 C   0  0  0  0  0  0  0  0  0  0  0  0
   -1.3394   -3.0911    0.0000 C   0  0  0  0  0  0  0  0  0  0  0  0
   -2.1666   -1.8398    0.0000 C   0  0  0  0  0  0  0  0  0  0  0  0
   -3.6639   -1.9306    0.0000 C   0  0  0  0  0  0  0  0  0  0  0  0
   -4.4911   -0.6793    0.0000 C   0  0  0  0  0  0  0  0  0  0  0  0
   -3.8210    0.6628    0.0000 O   0  0  0  0  0  0  0  0  0  0  0  0
   -5.9883   -0.7700    0.0000 N   0  0  0  0  0  0  0  0  0  0  0  0
   -6.8155    0.4813    0.0000 C   0  0  0  0  0  0  0  0  0  0  0  0
   -6.1454    1.8234    0.0000 C   0  0  0  0  0  0  0  0  0  0  0  0
   -6.9726    3.0747    0.0000 C   0  0  0  0  0  0  0  0  0  0  0  0
   -8.4699    2.9840    0.0000 C   0  0  0  0  0  0  0  0  0  0  0  0
   -9.1400    1.6419    0.0000 C   0  0  0  0  0  0  0  0  0  0  0  0
  -10.6372    1.5512    0.0000 O   0  0  0  0  0  0  0  0  0  0  0  0
   -8.3128    0.3906    0.0000 C   0  0  0  0  0  0  0  0  0  0  0  0
    0.1578   -3.0004    0.0000 C   0  0  0  0  0  0  0  0  0  0  0  0
    1.1113   -4.1584    0.0000 C   0  0  0  0  0  0  0  0  0  0  0  0
    2.5072   -3.6095    0.0000 C   0  0  0  0  0  0  0  0  0  0  0  0
    2.4165   -2.1122    0.0000 C   0  0  0  0  0  0  0  0  0  0  0  0
    3.4685   -1.0429    0.0000 C   0  0  0  0  0  0  0  0  0  0  0  0
    4.9205   -1.4194    0.0000 C   0  0  0  0  0  0  0  0  0  0  0  0
    5.3205   -2.8650    0.0000 O   0  0  0  0  0  0  0  0  0  0  0  0
    5.9725   -0.3501    0.0000 C   0  0  0  0  0  0  0  0  0  0  0  0
    7.4245   -0.7265    0.0000 O   0  0  0  0  0  0  0  0  0  0  0  0
    5.5724    1.0956    0.0000 C   0  0  0  0  0  0  0  0  0  0  0  0
    6.6244    2.1649    0.0000 C   0  0  0  0  0  0  0  0  0  0  0  0
    6.2244    3.6105    0.0000 C   0  0  0  0  0  0  0  0  0  0  0  0
    7.2764    4.6798    0.0000 O   0  0  0  0  0  0  0  0  0  0  0  0
    4.7724    3.9869    0.0000 C   0  0  0  0  0  0  0  0  0  0  0  0
    3.7204    2.9177    0.0000 C   0  0  0  0  0  0  0  0  0  0  0  0
    4.1204    1.4720    0.0000 C   0  0  0  0  0  0  0  0  0  0  0  0
    2.6684    1.8484    0.0000 C   0  0  0  0  0  0  0  0  0  0  0  0
    3.0684    0.4027    0.0000 C   0  0  0  0  0  0  0  0  0  0  0  0
    1.6164    0.7791    0.0000 C   0  0  0  0  0  0  0  0  0  0  0  0
    0.5645   -0.2901    0.0000 C   0  0  0  0  0  0  0  0  0  0  0  0
    0.9645   -1.7358    0.0000 C   0  0  0  0  0  0  0  0  0  0  0  0
   -0.5189   -1.5132    0.0000 C   0  0  0  0  0  0  0  0  0  0  0  0
  2  1  1  6
  2  3  1  0
  3  4  1  0
  4  5  1  0
  5  6  2  0
  5  7  1  0
  7  8  1  0
  8  9  2  0
  9 10  1  0
 10 11  2  0
 11 12  1  0
 12 13  1  0
 12 14  2  0
  2 15  1  0
 15 16  1  6
 16 17  1  0
 18 17  1  6
 18 19  1  0
 19 20  1  1
 20 21  1  1
 20 22  1  0
 22 23  1  1
 22 24  1  0
 24 25  1  1
 25 26  1  0
 26 27  1  1
 26 28  1  0
 28 29  1  0
 29 30  1  0
 30 31  1  6
 30 32  1  0
 32 33  1  6
 33 34  1  0
 34 35  1  0
 35 36  1  6
 14  8  1  0
 35 15  1  0
 35 18  1  0
 32 19  1  0
 30 24  1  0
M  END
>  <MS_ID>  (1114) 
MS1159

>  <SMILES>  (1114) 
C[C@H](CCC(=O)Nc1cccc(O)c1)[C@H]1CC[C@H]2[C@@H]3[C@H](O)[C@H](O)[C@@H]4C[C@H](O)CC[C@]4(C)[C@H]3CC[C@]12C

>  <Structure_dimension>  (1114) 
2D

$$$$
MS1160
     RDKit          2D

 38 42  0  0  0  0  0  0  0  0999 V2000
   -7.7878   -1.9555    0.0000 C   0  0  0  0  0  0  0  0  0  0  0  0
   -6.5918   -1.0501    0.0000 C   0  0  0  0  0  0  0  0  0  0  0  0
   -6.7779    0.4383    0.0000 C   0  0  0  0  0  0  0  0  0  0  0  0
   -8.1600    1.0213    0.0000 C   0  0  0  0  0  0  0  0  0  0  0  0
   -8.3461    2.5097    0.0000 C   0  0  0  0  0  0  0  0  0  0  0  0
   -7.1502    3.4151    0.0000 O   0  0  0  0  0  0  0  0  0  0  0  0
   -9.7282    3.0928    0.0000 O   0  0  0  0  0  0  0  0  0  0  0  0
   -5.2098   -1.6331    0.0000 C   0  0  0  0  0  0  0  0  0  0  0  0
   -4.8691   -3.0939    0.0000 C   0  0  0  0  0  0  0  0  0  0  0  0
   -3.3745   -3.2213    0.0000 C   0  0  0  0  0  0  0  0  0  0  0  0
   -2.7915   -1.8392    0.0000 C   0  0  0  0  0  0  0  0  0  0  0  0
   -1.3743   -1.3477    0.0000 C   0  0  0  0  0  0  0  0  0  0  0  0
   -0.2400   -2.3293    0.0000 C   0  0  0  0  0  0  0  0  0  0  0  0
   -0.5230   -3.8024    0.0000 O   0  0  0  0  0  0  0  0  0  0  0  0
    1.1772   -1.8378    0.0000 C   0  0  0  0  0  0  0  0  0  0  0  0
    1.4601   -0.3647    0.0000 C   0  0  0  0  0  0  0  0  0  0  0  0
    2.8773    0.1268    0.0000 C   0  0  0  0  0  0  0  0  0  0  0  0
    3.1602    1.5999    0.0000 C   0  0  0  0  0  0  0  0  0  0  0  0
    4.5774    2.0914    0.0000 O   0  0  0  0  0  0  0  0  0  0  0  0
    5.7116    1.1099    0.0000 C   0  0  0  0  0  0  0  0  0  0  0  0
    5.4287   -0.3632    0.0000 O   0  0  0  0  0  0  0  0  0  0  0  0
    6.5630   -1.3448    0.0000 C   0  0  0  0  0  0  0  0  0  0  0  0
    6.2800   -2.8179    0.0000 C   0  0  0  0  0  0  0  0  0  0  0  0
    7.9802   -0.8533    0.0000 C   0  0  0  0  0  0  0  0  0  0  0  0
    9.1144   -1.8348    0.0000 O   0  0  0  0  0  0  0  0  0  0  0  0
    8.2631    0.6198    0.0000 C   0  0  0  0  0  0  0  0  0  0  0  0
    9.6803    1.1113    0.0000 O   0  0  0  0  0  0  0  0  0  0  0  0
    7.1288    1.6014    0.0000 C   0  0  0  0  0  0  0  0  0  0  0  0
    7.4117    3.0745    0.0000 O   0  0  0  0  0  0  0  0  0  0  0  0
    2.0259    2.5815    0.0000 C   0  0  0  0  0  0  0  0  0  0  0  0
    0.6088    2.0899    0.0000 C   0  0  0  0  0  0  0  0  0  0  0  0
    0.3258    0.6169    0.0000 C   0  0  0  0  0  0  0  0  0  0  0  0
   -0.8084    1.5984    0.0000 C   0  0  0  0  0  0  0  0  0  0  0  0
   -1.0914    0.1254    0.0000 C   0  0  0  0  0  0  0  0  0  0  0  0
   -2.2256    1.1069    0.0000 C   0  0  0  0  0  0  0  0  0  0  0  0
   -3.6428    0.6154    0.0000 C   0  0  0  0  0  0  0  0  0  0  0  0
   -3.9257   -0.8577    0.0000 C   0  0  0  0  0  0  0  0  0  0  0  0
   -5.1564   -0.0001    0.0000 C   0  0  0  0  0  0  0  0  0  0  0  0
  2  1  1  6
  2  3  1  0
  3  4  1  0
  4  5  1  0
  5  6  2  0
  5  7  1  0
  2  8  1  0
  8  9  1  6
  9 10  1  0
 11 10  1  6
 11 12  1  0
 12 13  1  1
 13 14  1  1
 13 15  1  0
 16 15  1  1
 16 17  1  0
 17 18  1  0
 18 19  1  1
 20 19  1  6
 20 21  1  0
 21 22  1  0
 22 23  1  6
 22 24  1  0
 24 25  1  1
 24 26  1  0
 26 27  1  6
 26 28  1  0
 28 29  1  6
 18 30  1  0
 30 31  1  0
 31 32  1  0
 32 33  1  6
 32 34  1  0
 34 35  1  6
 35 36  1  0
 36 37  1  0
 37 38  1  6
 37  8  1  0
 37 11  1  0
 34 12  1  0
 32 16  1  0
 28 20  1  0
M  END
>  <MS_ID>  (1115) 
MS1160

>  <SMILES>  (1115) 
C[C@H](CCC(=O)O)[C@H]1CC[C@H]2[C@@H]3[C@H](O)C[C@@H]4C[C@H](O[C@H]5O[C@@H](C)[C@H](O)[C@@H](O)[C@H]5O)CC[C@]4(C)[C@H]3CC[C@]12C

>  <Structure_dimension>  (1115) 
2D

$$$$
MS1161
     RDKit          2D

 31 34  0  0  0  0  0  0  0  0999 V2000
   -4.3106    3.7862    0.0000 C   0  0  0  0  0  0  0  0  0  0  0  0
   -4.3736    2.2875    0.0000 C   0  0  0  0  0  0  0  0  0  0  0  0
   -5.7030    1.5928    0.0000 C   0  0  0  0  0  0  0  0  0  0  0  0
   -3.1073    1.4835    0.0000 C   0  0  0  0  0  0  0  0  0  0  0  0
   -3.1703   -0.0151    0.0000 C   0  0  0  0  0  0  0  0  0  0  0  0
   -4.4997   -0.7098    0.0000 C   0  0  0  0  0  0  0  0  0  0  0  0
   -5.7661    0.0941    0.0000 C   0  0  0  0  0  0  0  0  0  0  0  0
   -7.0955   -0.6006    0.0000 C   0  0  0  0  0  0  0  0  0  0  0  0
   -7.1586   -2.0993    0.0000 O   0  0  0  0  0  0  0  0  0  0  0  0
   -8.3619    0.2033    0.0000 O   0  0  0  0  0  0  0  0  0  0  0  0
   -1.9040   -0.8191    0.0000 C   0  0  0  0  0  0  0  0  0  0  0  0
   -1.8100   -2.3161    0.0000 C   0  0  0  0  0  0  0  0  0  0  0  0
   -0.3572   -2.6894    0.0000 C   0  0  0  0  0  0  0  0  0  0  0  0
    0.4467   -1.4230    0.0000 C   0  0  0  0  0  0  0  0  0  0  0  0
    1.9258   -1.1731    0.0000 C   0  0  0  0  0  0  0  0  0  0  0  0
    2.8817   -2.3291    0.0000 C   0  0  0  0  0  0  0  0  0  0  0  0
    2.3586   -3.7349    0.0000 O   0  0  0  0  0  0  0  0  0  0  0  0
    4.3608   -2.0792    0.0000 C   0  0  0  0  0  0  0  0  0  0  0  0
    4.8838   -0.6733    0.0000 C   0  0  0  0  0  0  0  0  0  0  0  0
    6.3629   -0.4234    0.0000 C   0  0  0  0  0  0  0  0  0  0  0  0
    6.8860    0.9824    0.0000 C   0  0  0  0  0  0  0  0  0  0  0  0
    8.3650    1.2323    0.0000 O   0  0  0  0  0  0  0  0  0  0  0  0
    5.9300    2.1383    0.0000 C   0  0  0  0  0  0  0  0  0  0  0  0
    4.4510    1.8884    0.0000 C   0  0  0  0  0  0  0  0  0  0  0  0
    3.9279    0.4826    0.0000 C   0  0  0  0  0  0  0  0  0  0  0  0
    2.9720    1.6385    0.0000 C   0  0  0  0  0  0  0  0  0  0  0  0
    2.4489    0.2327    0.0000 C   0  0  0  0  0  0  0  0  0  0  0  0
    1.4929    1.3886    0.0000 C   0  0  0  0  0  0  0  0  0  0  0  0
    0.0139    1.1387    0.0000 C   0  0  0  0  0  0  0  0  0  0  0  0
   -0.5092   -0.2671    0.0000 C   0  0  0  0  0  0  0  0  0  0  0  0
   -1.5807    0.7826    0.0000 C   0  0  0  0  0  0  0  0  0  0  0  0
  1  2  1  0
  2  3  1  0
  2  4  1  0
  5  4  1  1
  5  6  1  0
  6  7  1  0
  7  8  1  0
  8  9  2  0
  8 10  1  0
  5 11  1  0
 11 12  1  6
 12 13  1  0
 14 13  1  6
 14 15  1  0
 15 16  1  1
 16 17  1  6
 16 18  1  0
 19 18  1  1
 19 20  1  0
 20 21  1  0
 21 22  1  1
 21 23  1  0
 23 24  1  0
 24 25  1  0
 25 26  1  6
 25 27  1  0
 27 28  1  6
 28 29  1  0
 29 30  1  0
 30 31  1  6
 30 11  1  0
 30 14  1  0
 27 15  1  0
 25 19  1  0
M  END
>  <MS_ID>  (1116) 
MS1161

>  <SMILES>  (1116) 
CC(C)C[C@H](CCC(=O)O)[C@H]1CC[C@H]2[C@@H]3[C@@H](O)C[C@@H]4C[C@H](O)CC[C@]4(C)[C@H]3CC[C@]12C

>  <Structure_dimension>  (1116) 
2D

$$$$
MS1162
     RDKit          2D

 35 38  0  0  0  0  0  0  0  0999 V2000
   -2.3731   -4.8167    0.0000 C   0  0  0  0  0  0  0  0  0  0  0  0
   -1.7470   -3.4536    0.0000 C   0  0  0  0  0  0  0  0  0  0  0  0
   -2.6145   -2.2299    0.0000 C   0  0  0  0  0  0  0  0  0  0  0  0
   -4.1080   -2.3693    0.0000 C   0  0  0  0  0  0  0  0  0  0  0  0
   -4.9755   -1.1456    0.0000 C   0  0  0  0  0  0  0  0  0  0  0  0
   -6.4690   -1.2849    0.0000 O   0  0  0  0  0  0  0  0  0  0  0  0
   -4.3494    0.2176    0.0000 O   0  0  0  0  0  0  0  0  0  0  0  0
   -5.2169    1.4413    0.0000 C   0  0  0  0  0  0  0  0  0  0  0  0
   -6.7104    1.3019    0.0000 O   0  0  0  0  0  0  0  0  0  0  0  0
   -4.5909    2.8044    0.0000 C   0  0  0  0  0  0  0  0  0  0  0  0
   -5.4583    4.0281    0.0000 C   0  0  0  0  0  0  0  0  0  0  0  0
   -6.9518    3.8887    0.0000 O   0  0  0  0  0  0  0  0  0  0  0  0
   -4.8323    5.3912    0.0000 O   0  0  0  0  0  0  0  0  0  0  0  0
   -0.2535   -3.3142    0.0000 C   0  0  0  0  0  0  0  0  0  0  0  0
    0.7371   -4.4406    0.0000 C   0  0  0  0  0  0  0  0  0  0  0  0
    2.1145   -3.8465    0.0000 C   0  0  0  0  0  0  0  0  0  0  0  0
    1.9751   -2.3530    0.0000 C   0  0  0  0  0  0  0  0  0  0  0  0
    2.9917   -1.2500    0.0000 C   0  0  0  0  0  0  0  0  0  0  0  0
    4.4552   -1.5790    0.0000 C   0  0  0  0  0  0  0  0  0  0  0  0
    4.9020   -3.0109    0.0000 O   0  0  0  0  0  0  0  0  0  0  0  0
    5.4718   -0.4761    0.0000 C   0  0  0  0  0  0  0  0  0  0  0  0
    5.0249    0.9558    0.0000 C   0  0  0  0  0  0  0  0  0  0  0  0
    6.0416    2.0588    0.0000 C   0  0  0  0  0  0  0  0  0  0  0  0
    5.5947    3.4907    0.0000 C   0  0  0  0  0  0  0  0  0  0  0  0
    6.6113    4.5936    0.0000 O   0  0  0  0  0  0  0  0  0  0  0  0
    4.1312    3.8196    0.0000 C   0  0  0  0  0  0  0  0  0  0  0  0
    3.1146    2.7167    0.0000 C   0  0  0  0  0  0  0  0  0  0  0  0
    3.5615    1.2848    0.0000 C   0  0  0  0  0  0  0  0  0  0  0  0
    2.0980    1.6137    0.0000 C   0  0  0  0  0  0  0  0  0  0  0  0
    2.5448    0.1818    0.0000 C   0  0  0  0  0  0  0  0  0  0  0  0
    1.0813    0.5108    0.0000 C   0  0  0  0  0  0  0  0  0  0  0  0
    0.0647   -0.5921    0.0000 C   0  0  0  0  0  0  0  0  0  0  0  0
   -1.3988   -0.2632    0.0000 O   0  0  0  0  0  0  0  0  0  0  0  0
    0.5116   -2.0240    0.0000 C   0  0  0  0  0  0  0  0  0  0  0  0
   -0.9783   -1.8499    0.0000 C   0  0  0  0  0  0  0  0  0  0  0  0
  2  1  1  6
  2  3  1  0
  3  4  1  0
  4  5  1  0
  5  6  2  0
  5  7  1  0
  7  8  1  0
  8  9  2  0
  8 10  1  0
 10 11  1  0
 11 12  2  0
 11 13  1  0
  2 14  1  0
 14 15  1  6
 15 16  1  0
 17 16  1  6
 17 18  1  0
 18 19  1  1
 19 20  1  1
 19 21  1  0
 22 21  1  1
 22 23  1  0
 23 24  1  0
 24 25  1  1
 24 26  1  0
 26 27  1  0
 27 28  1  0
 28 29  1  6
 28 30  1  0
 30 31  1  6
 31 32  1  0
 32 33  1  1
 32 34  1  0
 34 35  1  6
 34 14  1  0
 34 17  1  0
 30 18  1  0
 28 22  1  0
M  END
>  <MS_ID>  (1117) 
MS1162

>  <SMILES>  (1117) 
C[C@H](CCC(=O)OC(=O)CC(=O)O)[C@H]1CC[C@H]2[C@@H]3[C@H](O)C[C@@H]4C[C@H](O)CC[C@]4(C)[C@H]3C[C@H](O)[C@]12C

>  <Structure_dimension>  (1117) 
2D

$$$$
MS1163
     RDKit          2D

 40 44  0  0  0  0  0  0  0  0999 V2000
   -0.7210   -4.8232    0.0000 C   0  0  0  0  0  0  0  0  0  0  0  0
   -0.1495   -3.4364    0.0000 C   0  0  0  0  0  0  0  0  0  0  0  0
   -1.0648   -2.2480    0.0000 C   0  0  0  0  0  0  0  0  0  0  0  0
   -2.5516   -2.4465    0.0000 C   0  0  0  0  0  0  0  0  0  0  0  0
   -3.4669   -1.2581    0.0000 C   0  0  0  0  0  0  0  0  0  0  0  0
   -2.8953    0.1288    0.0000 O   0  0  0  0  0  0  0  0  0  0  0  0
   -4.9537   -1.4566    0.0000 O   0  0  0  0  0  0  0  0  0  0  0  0
   -5.8690   -0.2682    0.0000 C   0  0  0  0  0  0  0  0  0  0  0  0
   -5.2974    1.1187    0.0000 O   0  0  0  0  0  0  0  0  0  0  0  0
   -6.2127    2.3071    0.0000 C   0  0  0  0  0  0  0  0  0  0  0  0
   -5.6412    3.6939    0.0000 C   0  0  0  0  0  0  0  0  0  0  0  0
   -4.1544    3.8924    0.0000 O   0  0  0  0  0  0  0  0  0  0  0  0
   -7.6995    2.1086    0.0000 C   0  0  0  0  0  0  0  0  0  0  0  0
   -8.6148    3.2970    0.0000 O   0  0  0  0  0  0  0  0  0  0  0  0
   -8.2711    0.7217    0.0000 C   0  0  0  0  0  0  0  0  0  0  0  0
   -9.7579    0.5233    0.0000 O   0  0  0  0  0  0  0  0  0  0  0  0
   -7.3558   -0.4666    0.0000 C   0  0  0  0  0  0  0  0  0  0  0  0
   -7.9273   -1.8535    0.0000 O   0  0  0  0  0  0  0  0  0  0  0  0
    1.3373   -3.2379    0.0000 C   0  0  0  0  0  0  0  0  0  0  0  0
    2.3718   -4.3241    0.0000 C   0  0  0  0  0  0  0  0  0  0  0  0
    3.7245   -3.6759    0.0000 C   0  0  0  0  0  0  0  0  0  0  0  0
    3.5261   -2.1891    0.0000 C   0  0  0  0  0  0  0  0  0  0  0  0
    4.4982   -1.0468    0.0000 C   0  0  0  0  0  0  0  0  0  0  0  0
    5.9735   -1.3175    0.0000 C   0  0  0  0  0  0  0  0  0  0  0  0
    6.4768   -2.7305    0.0000 O   0  0  0  0  0  0  0  0  0  0  0  0
    6.9457   -0.1751    0.0000 C   0  0  0  0  0  0  0  0  0  0  0  0
    6.4424    1.2380    0.0000 C   0  0  0  0  0  0  0  0  0  0  0  0
    7.4145    2.3803    0.0000 C   0  0  0  0  0  0  0  0  0  0  0  0
    6.9113    3.7934    0.0000 C   0  0  0  0  0  0  0  0  0  0  0  0
    7.8834    4.9357    0.0000 O   0  0  0  0  0  0  0  0  0  0  0  0
    5.4359    4.0641    0.0000 C   0  0  0  0  0  0  0  0  0  0  0  0
    4.4638    2.9217    0.0000 C   0  0  0  0  0  0  0  0  0  0  0  0
    4.9670    1.5087    0.0000 C   0  0  0  0  0  0  0  0  0  0  0  0
    3.4917    1.7794    0.0000 C   0  0  0  0  0  0  0  0  0  0  0  0
    3.9949    0.3663    0.0000 C   0  0  0  0  0  0  0  0  0  0  0  0
    2.5196    0.6370    0.0000 C   0  0  0  0  0  0  0  0  0  0  0  0
    1.5474   -0.5054    0.0000 C   0  0  0  0  0  0  0  0  0  0  0  0
    0.0721   -0.2347    0.0000 O   0  0  0  0  0  0  0  0  0  0  0  0
    2.0507   -1.9184    0.0000 C   0  0  0  0  0  0  0  0  0  0  0  0
    0.5551   -1.8034    0.0000 C   0  0  0  0  0  0  0  0  0  0  0  0
  2  1  1  6
  2  3  1  0
  3  4  1  0
  4  5  1  0
  5  6  2  0
  5  7  1  0
  8  7  1  6
  8  9  1  0
  9 10  1  0
 10 11  1  1
 11 12  1  0
 10 13  1  0
 13 14  1  6
 13 15  1  0
 15 16  1  1
 15 17  1  0
 17 18  1  1
  2 19  1  0
 19 20  1  6
 20 21  1  0
 22 21  1  6
 22 23  1  0
 23 24  1  1
 24 25  1  1
 24 26  1  0
 27 26  1  1
 27 28  1  0
 28 29  1  0
 29 30  1  1
 29 31  1  0
 31 32  1  0
 32 33  1  0
 33 34  1  6
 33 35  1  0
 35 36  1  6
 36 37  1  0
 37 38  1  1
 37 39  1  0
 39 40  1  6
 17  8  1  0
 39 19  1  0
 39 22  1  0
 35 23  1  0
 33 27  1  0
M  END
>  <MS_ID>  (1118) 
MS1163

>  <SMILES>  (1118) 
C[C@H](CCC(=O)O[C@H]1O[C@H](CO)[C@@H](O)[C@H](O)[C@@H]1O)[C@H]1CC[C@H]2[C@@H]3[C@H](O)C[C@@H]4C[C@H](O)CC[C@]4(C)[C@H]3C[C@H](O)[C@]12C

>  <Structure_dimension>  (1118) 
2D

$$$$
MS1164
     RDKit          2D

 28 31  0  0  0  0  0  0  0  0999 V2000
   -4.7300   -2.3881    0.0000 C   0  0  0  0  0  0  0  0  0  0  0  0
   -3.6733   -1.3235    0.0000 C   0  0  0  0  0  0  0  0  0  0  0  0
   -4.0669    0.1239    0.0000 C   0  0  0  0  0  0  0  0  0  0  0  0
   -5.5173    0.5067    0.0000 C   0  0  0  0  0  0  0  0  0  0  0  0
   -5.9109    1.9542    0.0000 C   0  0  0  0  0  0  0  0  0  0  0  0
   -4.8542    3.0188    0.0000 O   0  0  0  0  0  0  0  0  0  0  0  0
   -7.3612    2.3370    0.0000 O   0  0  0  0  0  0  0  0  0  0  0  0
   -2.2230   -1.7064    0.0000 C   0  0  0  0  0  0  0  0  0  0  0  0
   -1.6802   -3.1047    0.0000 C   0  0  0  0  0  0  0  0  0  0  0  0
   -0.1826   -3.0206    0.0000 C   0  0  0  0  0  0  0  0  0  0  0  0
    0.2002   -1.5703    0.0000 C   0  0  0  0  0  0  0  0  0  0  0  0
    1.5342   -0.8844    0.0000 C   0  0  0  0  0  0  0  0  0  0  0  0
    2.7952   -1.6966    0.0000 C   0  0  0  0  0  0  0  0  0  0  0  0
    2.7223   -3.1949    0.0000 C   0  0  0  0  0  0  0  0  0  0  0  0
    3.9834   -4.0071    0.0000 O   0  0  0  0  0  0  0  0  0  0  0  0
    4.1292   -1.0107    0.0000 C   0  0  0  0  0  0  0  0  0  0  0  0
    4.2021    0.4876    0.0000 C   0  0  0  0  0  0  0  0  0  0  0  0
    5.5361    1.1735    0.0000 C   0  0  0  0  0  0  0  0  0  0  0  0
    5.6090    2.6717    0.0000 C   0  0  0  0  0  0  0  0  0  0  0  0
    4.3480    3.4840    0.0000 C   0  0  0  0  0  0  0  0  0  0  0  0
    3.0140    2.7980    0.0000 C   0  0  0  0  0  0  0  0  0  0  0  0
    2.9411    1.2998    0.0000 C   0  0  0  0  0  0  0  0  0  0  0  0
    1.6801    2.1121    0.0000 C   0  0  0  0  0  0  0  0  0  0  0  0
    1.6071    0.6139    0.0000 C   0  0  0  0  0  0  0  0  0  0  0  0
    0.3461    1.4261    0.0000 C   0  0  0  0  0  0  0  0  0  0  0  0
   -0.9879    0.7402    0.0000 C   0  0  0  0  0  0  0  0  0  0  0  0
   -1.0608   -0.7581    0.0000 C   0  0  0  0  0  0  0  0  0  0  0  0
   -2.3998   -0.0820    0.0000 C   0  0  0  0  0  0  0  0  0  0  0  0
  2  1  1  6
  2  3  1  0
  3  4  1  0
  4  5  1  0
  5  6  2  0
  5  7  1  0
  2  8  1  0
  8  9  1  6
  9 10  1  0
 11 10  1  6
 11 12  1  0
 12 13  1  1
 13 14  1  1
 14 15  1  0
 13 16  1  0
 17 16  1  1
 17 18  1  0
 18 19  1  0
 19 20  1  0
 20 21  1  0
 21 22  1  0
 22 23  1  6
 22 24  1  0
 24 25  1  6
 25 26  1  0
 26 27  1  0
 27 28  1  6
 27  8  1  0
 27 11  1  0
 24 12  1  0
 22 17  1  0
M  END
>  <MS_ID>  (1119) 
MS1164

>  <SMILES>  (1119) 
C[C@H](CCC(=O)O)[C@H]1CC[C@H]2[C@@H]3[C@H](CO)C[C@@H]4CCCC[C@]4(C)[C@H]3CC[C@]12C

>  <Structure_dimension>  (1119) 
2D

$$$$
MS1165
     RDKit          2D

 31 34  0  0  0  0  0  0  0  0999 V2000
   -4.4281   -2.8097    0.0000 C   0  0  0  0  0  0  0  0  0  0  0  0
   -3.3906   -1.7263    0.0000 C   0  0  0  0  0  0  0  0  0  0  0  0
   -3.8101   -0.2862    0.0000 C   0  0  0  0  0  0  0  0  0  0  0  0
   -5.2670    0.0707    0.0000 C   0  0  0  0  0  0  0  0  0  0  0  0
   -5.6865    1.5108    0.0000 C   0  0  0  0  0  0  0  0  0  0  0  0
   -4.6490    2.5942    0.0000 O   0  0  0  0  0  0  0  0  0  0  0  0
   -7.1434    1.8677    0.0000 N   0  0  0  0  0  0  0  0  0  0  0  0
   -7.5628    3.3078    0.0000 C   0  0  0  0  0  0  0  0  0  0  0  0
   -8.1809    0.7843    0.0000 O   0  0  0  0  0  0  0  0  0  0  0  0
   -1.9337   -2.0832    0.0000 C   0  0  0  0  0  0  0  0  0  0  0  0
   -1.3660   -3.4716    0.0000 C   0  0  0  0  0  0  0  0  0  0  0  0
    0.1299   -3.3608    0.0000 C   0  0  0  0  0  0  0  0  0  0  0  0
    0.4867   -1.9038    0.0000 C   0  0  0  0  0  0  0  0  0  0  0  0
    1.8082   -1.1941    0.0000 C   0  0  0  0  0  0  0  0  0  0  0  0
    3.0836   -1.9837    0.0000 C   0  0  0  0  0  0  0  0  0  0  0  0
    3.0374   -3.4830    0.0000 O   0  0  0  0  0  0  0  0  0  0  0  0
    4.4050   -1.2740    0.0000 C   0  0  0  0  0  0  0  0  0  0  0  0
    5.6804   -2.0636    0.0000 O   0  0  0  0  0  0  0  0  0  0  0  0
    4.4512    0.2253    0.0000 C   0  0  0  0  0  0  0  0  0  0  0  0
    5.7727    0.9350    0.0000 C   0  0  0  0  0  0  0  0  0  0  0  0
    5.8188    2.4343    0.0000 C   0  0  0  0  0  0  0  0  0  0  0  0
    7.1403    3.1440    0.0000 O   0  0  0  0  0  0  0  0  0  0  0  0
    4.5434    3.2239    0.0000 C   0  0  0  0  0  0  0  0  0  0  0  0
    3.2219    2.5142    0.0000 C   0  0  0  0  0  0  0  0  0  0  0  0
    3.1758    1.0149    0.0000 C   0  0  0  0  0  0  0  0  0  0  0  0
    1.9004    1.8045    0.0000 C   0  0  0  0  0  0  0  0  0  0  0  0
    1.8543    0.3052    0.0000 C   0  0  0  0  0  0  0  0  0  0  0  0
    0.5790    1.0948    0.0000 C   0  0  0  0  0  0  0  0  0  0  0  0
   -0.7425    0.3851    0.0000 C   0  0  0  0  0  0  0  0  0  0  0  0
   -0.7887   -1.1142    0.0000 C   0  0  0  0  0  0  0  0  0  0  0  0
   -2.1396   -0.4623    0.0000 C   0  0  0  0  0  0  0  0  0  0  0  0
  2  1  1  6
  2  3  1  0
  3  4  1  0
  4  5  1  0
  5  6  2  0
  5  7  1  0
  7  8  1  0
  7  9  1  0
  2 10  1  0
 10 11  1  6
 11 12  1  0
 13 12  1  6
 13 14  1  0
 14 15  1  1
 15 16  1  1
 15 17  1  0
 17 18  1  1
 17 19  1  0
 19 20  1  1
 20 21  1  0
 21 22  1  1
 21 23  1  0
 23 24  1  0
 24 25  1  0
 25 26  1  6
 25 27  1  0
 27 28  1  6
 28 29  1  0
 29 30  1  0
 30 31  1  6
 30 10  1  0
 30 13  1  0
 27 14  1  0
 25 19  1  0
M  END
>  <MS_ID>  (1120) 
MS1165

>  <SMILES>  (1120) 
C[C@H](CCC(=O)N(C)O)[C@H]1CC[C@H]2[C@@H]3[C@H](O)[C@H](O)[C@@H]4C[C@H](O)CC[C@]4(C)[C@H]3CC[C@]12C

>  <Structure_dimension>  (1120) 
2D

$$$$
MS1166
     RDKit          2D

 31 34  0  0  0  0  0  0  0  0999 V2000
   -4.2144   -3.0422    0.0000 C   0  0  0  0  0  0  0  0  0  0  0  0
   -3.1400   -1.9955    0.0000 C   0  0  0  0  0  0  0  0  0  0  0  0
   -3.5093   -0.5416    0.0000 C   0  0  0  0  0  0  0  0  0  0  0  0
   -4.9529   -0.1345    0.0000 C   0  0  0  0  0  0  0  0  0  0  0  0
   -5.3222    1.3193    0.0000 C   0  0  0  0  0  0  0  0  0  0  0  0
   -4.2478    2.3660    0.0000 O   0  0  0  0  0  0  0  0  0  0  0  0
   -6.7659    1.7265    0.0000 O   0  0  0  0  0  0  0  0  0  0  0  0
   -1.6963   -2.4026    0.0000 C   0  0  0  0  0  0  0  0  0  0  0  0
   -1.1771   -3.8099    0.0000 C   0  0  0  0  0  0  0  0  0  0  0  0
    0.3218   -3.7509    0.0000 C   0  0  0  0  0  0  0  0  0  0  0  0
    0.7289   -2.3072    0.0000 C   0  0  0  0  0  0  0  0  0  0  0  0
    2.0742   -1.6438    0.0000 C   0  0  0  0  0  0  0  0  0  0  0  0
    3.3214   -2.4771    0.0000 C   0  0  0  0  0  0  0  0  0  0  0  0
    4.6667   -1.8136    0.0000 C   0  0  0  0  0  0  0  0  0  0  0  0
    4.7648   -0.3168    0.0000 C   0  0  0  0  0  0  0  0  0  0  0  0
    6.1101    0.3466    0.0000 C   0  0  0  0  0  0  0  0  0  0  0  0
    6.2081    1.8434    0.0000 C   0  0  0  0  0  0  0  0  0  0  0  0
    4.9609    2.6767    0.0000 C   0  0  0  0  0  0  0  0  0  0  0  0
    3.6156    2.0133    0.0000 C   0  0  0  0  0  0  0  0  0  0  0  0
    3.5175    0.5165    0.0000 C   0  0  0  0  0  0  0  0  0  0  0  0
    2.2703    1.3498    0.0000 C   0  0  0  0  0  0  0  0  0  0  0  0
    2.1722   -0.1470    0.0000 C   0  0  0  0  0  0  0  0  0  0  0  0
    0.9250    0.6863    0.0000 C   0  0  0  0  0  0  0  0  0  0  0  0
   -0.4203    0.0229    0.0000 C   0  0  0  0  0  0  0  0  0  0  0  0
   -1.6675    0.8562    0.0000 O   0  0  0  0  0  0  0  0  0  0  0  0
   -1.5694    2.3530    0.0000 S   0  0  0  0  0  0  0  0  0  0  0  0
   -0.0726    2.2549    0.0000 O   0  0  0  0  0  0  0  0  0  0  0  0
   -3.0662    2.4511    0.0000 O   0  0  0  0  0  0  0  0  0  0  0  0
   -1.4714    3.8498    0.0000 O   0  0  0  0  0  0  0  0  0  0  0  0
   -0.5183   -1.4739    0.0000 C   0  0  0  0  0  0  0  0  0  0  0  0
   -1.8458   -0.7755    0.0000 C   0  0  0  0  0  0  0  0  0  0  0  0
  2  1  1  6
  2  3  1  0
  3  4  1  0
  4  5  1  0
  5  6  2  0
  5  7  1  0
  2  8  1  0
  8  9  1  6
  9 10  1  0
 11 10  1  6
 11 12  1  0
 12 13  1  1
 13 14  1  0
 15 14  1  1
 15 16  1  0
 16 17  1  0
 17 18  1  0
 18 19  1  0
 19 20  1  0
 20 21  1  6
 20 22  1  0
 22 23  1  6
 23 24  1  0
 24 25  1  1
 25 26  1  0
 26 27  2  0
 26 28  2  0
 26 29  1  0
 24 30  1  0
 30 31  1  6
 30  8  1  0
 30 11  1  0
 22 12  1  0
 20 15  1  0
M  END
>  <MS_ID>  (1121) 
MS1166

>  <SMILES>  (1121) 
C[C@H](CCC(=O)O)[C@H]1CC[C@H]2[C@@H]3CC[C@@H]4CCCC[C@]4(C)[C@H]3C[C@H](OS(=O)(=O)O)[C@]12C

>  <Structure_dimension>  (1121) 
2D

$$$$
MS1167
     RDKit          2D

 28 31  0  0  0  0  0  0  0  0999 V2000
   -5.9917   -1.5014    0.0000 C   0  0  0  0  0  0  0  0  0  0  0  0
   -4.5855   -2.0234    0.0000 C   0  0  0  0  0  0  0  0  0  0  0  0
   -3.4303   -1.0666    0.0000 C   0  0  0  0  0  0  0  0  0  0  0  0
   -3.6813    0.4123    0.0000 C   0  0  0  0  0  0  0  0  0  0  0  0
   -5.0875    0.9343    0.0000 C   0  0  0  0  0  0  0  0  0  0  0  0
   -5.3386    2.4131    0.0000 C   0  0  0  0  0  0  0  0  0  0  0  0
   -4.1834    3.3700    0.0000 O   0  0  0  0  0  0  0  0  0  0  0  0
   -6.7448    2.9352    0.0000 O   0  0  0  0  0  0  0  0  0  0  0  0
   -2.0240   -1.5886    0.0000 C   0  0  0  0  0  0  0  0  0  0  0  0
   -1.6198   -3.0331    0.0000 C   0  0  0  0  0  0  0  0  0  0  0  0
   -0.1211   -3.0950    0.0000 C   0  0  0  0  0  0  0  0  0  0  0  0
    0.4009   -1.6888    0.0000 C   0  0  0  0  0  0  0  0  0  0  0  0
    1.7953   -1.1358    0.0000 C   0  0  0  0  0  0  0  0  0  0  0  0
    2.9714   -2.0668    0.0000 C   0  0  0  0  0  0  0  0  0  0  0  0
    2.7531   -3.5508    0.0000 O   0  0  0  0  0  0  0  0  0  0  0  0
    4.3657   -1.5138    0.0000 C   0  0  0  0  0  0  0  0  0  0  0  0
    4.5839   -0.0298    0.0000 C   0  0  0  0  0  0  0  0  0  0  0  0
    5.9783    0.5233    0.0000 C   0  0  0  0  0  0  0  0  0  0  0  0
    6.1965    2.0073    0.0000 C   0  0  0  0  0  0  0  0  0  0  0  0
    5.0204    2.9383    0.0000 C   0  0  0  0  0  0  0  0  0  0  0  0
    3.6261    2.3853    0.0000 C   0  0  0  0  0  0  0  0  0  0  0  0
    3.4079    0.9013    0.0000 C   0  0  0  0  0  0  0  0  0  0  0  0
    2.2318    1.8323    0.0000 C   0  0  0  0  0  0  0  0  0  0  0  0
    2.0135    0.3483    0.0000 C   0  0  0  0  0  0  0  0  0  0  0  0
    0.8374    1.2793    0.0000 C   0  0  0  0  0  0  0  0  0  0  0  0
   -0.5569    0.7263    0.0000 C   0  0  0  0  0  0  0  0  0  0  0  0
   -0.7752   -0.7578    0.0000 C   0  0  0  0  0  0  0  0  0  0  0  0
   -2.0421    0.0452    0.0000 C   0  0  0  0  0  0  0  0  0  0  0  0
  1  2  1  0
  3  2  1  6
  3  4  1  0
  4  5  1  0
  5  6  1  0
  6  7  2  0
  6  8  1  0
  3  9  1  0
  9 10  1  6
 10 11  1  0
 12 11  1  6
 12 13  1  0
 13 14  1  1
 14 15  1  6
 14 16  1  0
 17 16  1  1
 17 18  1  0
 18 19  1  0
 19 20  1  0
 20 21  1  0
 21 22  1  0
 22 23  1  6
 22 24  1  0
 24 25  1  6
 25 26  1  0
 26 27  1  0
 27 28  1  6
 27  9  1  0
 27 12  1  0
 24 13  1  0
 22 17  1  0
M  END
>  <MS_ID>  (1122) 
MS1167

>  <SMILES>  (1122) 
CC[C@H](CCC(=O)O)[C@H]1CC[C@H]2[C@@H]3[C@@H](O)C[C@@H]4CCCC[C@]4(C)[C@H]3CC[C@]12C

>  <Structure_dimension>  (1122) 
2D

$$$$
MS1168
     RDKit          2D

 31 34  0  0  0  0  0  0  0  0999 V2000
  -10.5865    3.1750    0.0000 C   0  0  0  0  0  0  0  0  0  0  0  0
   -9.0910    3.0590    0.0000 C   0  0  0  0  0  0  0  0  0  0  0  0
   -8.4437    1.7059    0.0000 C   0  0  0  0  0  0  0  0  0  0  0  0
   -6.9482    1.5899    0.0000 C   0  0  0  0  0  0  0  0  0  0  0  0
   -6.3008    0.2368    0.0000 O   0  0  0  0  0  0  0  0  0  0  0  0
   -4.8053    0.1208    0.0000 C   0  0  0  0  0  0  0  0  0  0  0  0
   -3.9572    1.3580    0.0000 O   0  0  0  0  0  0  0  0  0  0  0  0
   -4.1580   -1.2323    0.0000 C   0  0  0  0  0  0  0  0  0  0  0  0
   -2.6625   -1.3483    0.0000 C   0  0  0  0  0  0  0  0  0  0  0  0
   -2.0152   -2.7014    0.0000 C   0  0  0  0  0  0  0  0  0  0  0  0
   -2.8633   -3.9386    0.0000 C   0  0  0  0  0  0  0  0  0  0  0  0
   -0.5197   -2.8173    0.0000 C   0  0  0  0  0  0  0  0  0  0  0  0
    0.2656   -4.0954    0.0000 C   0  0  0  0  0  0  0  0  0  0  0  0
    1.7237   -3.7436    0.0000 C   0  0  0  0  0  0  0  0  0  0  0  0
    1.8397   -2.2480    0.0000 C   0  0  0  0  0  0  0  0  0  0  0  0
    3.0287   -1.3335    0.0000 C   0  0  0  0  0  0  0  0  0  0  0  0
    4.4151   -1.9060    0.0000 C   0  0  0  0  0  0  0  0  0  0  0  0
    5.6041   -0.9914    0.0000 C   0  0  0  0  0  0  0  0  0  0  0  0
    5.4066    0.4955    0.0000 C   0  0  0  0  0  0  0  0  0  0  0  0
    6.5956    1.4100    0.0000 C   0  0  0  0  0  0  0  0  0  0  0  0
    6.3981    2.8970    0.0000 C   0  0  0  0  0  0  0  0  0  0  0  0
    7.5871    3.8115    0.0000 O   0  0  0  0  0  0  0  0  0  0  0  0
    5.0116    3.4694    0.0000 C   0  0  0  0  0  0  0  0  0  0  0  0
    3.8226    2.5549    0.0000 C   0  0  0  0  0  0  0  0  0  0  0  0
    4.0201    1.0679    0.0000 C   0  0  0  0  0  0  0  0  0  0  0  0
    2.6336    1.6404    0.0000 C   0  0  0  0  0  0  0  0  0  0  0  0
    2.8312    0.1534    0.0000 C   0  0  0  0  0  0  0  0  0  0  0  0
    1.4447    0.7258    0.0000 C   0  0  0  0  0  0  0  0  0  0  0  0
    0.2557   -0.1887    0.0000 C   0  0  0  0  0  0  0  0  0  0  0  0
    0.4532   -1.6756    0.0000 C   0  0  0  0  0  0  0  0  0  0  0  0
   -0.9855   -1.2513    0.0000 C   0  0  0  0  0  0  0  0  0  0  0  0
  1  2  1  0
  2  3  1  0
  3  4  1  0
  4  5  1  0
  5  6  1  0
  6  7  2  0
  6  8  1  0
  8  9  1  0
  9 10  1  0
 10 11  1  6
 10 12  1  0
 12 13  1  6
 13 14  1  0
 15 14  1  6
 15 16  1  0
 16 17  1  1
 17 18  1  0
 19 18  1  1
 19 20  1  0
 20 21  1  0
 21 22  2  0
 21 23  1  0
 23 24  1  0
 24 25  1  0
 25 26  1  6
 25 27  1  0
 27 28  1  6
 28 29  1  0
 29 30  1  0
 30 31  1  6
 30 12  1  0
 30 15  1  0
 27 16  1  0
 25 19  1  0
M  END
>  <MS_ID>  (1123) 
MS1168

>  <SMILES>  (1123) 
CCCCOC(=O)CC[C@@H](C)[C@H]1CC[C@H]2[C@@H]3CC[C@@H]4CC(=O)CC[C@]4(C)[C@H]3CC[C@]12C

>  <Structure_dimension>  (1123) 
2D

$$$$
MS1169
     RDKit          2D

 29 32  0  0  0  0  0  0  0  0999 V2000
   -4.0871   -3.1154    0.0000 C   0  0  0  0  0  0  0  0  0  0  0  0
   -3.0536   -2.0283    0.0000 C   0  0  0  0  0  0  0  0  0  0  0  0
   -3.4784   -0.5897    0.0000 C   0  0  0  0  0  0  0  0  0  0  0  0
   -4.9366   -0.2383    0.0000 C   0  0  0  0  0  0  0  0  0  0  0  0
   -5.3614    1.2003    0.0000 C   0  0  0  0  0  0  0  0  0  0  0  0
   -4.3279    2.2875    0.0000 O   0  0  0  0  0  0  0  0  0  0  0  0
   -6.8197    1.5518    0.0000 C   0  0  0  0  0  0  0  0  0  0  0  0
   -7.2445    2.9904    0.0000 C   0  0  0  0  0  0  0  0  0  0  0  0
   -8.7027    3.3418    0.0000 O   0  0  0  0  0  0  0  0  0  0  0  0
   -1.5953   -2.3797    0.0000 C   0  0  0  0  0  0  0  0  0  0  0  0
   -1.0225   -3.7660    0.0000 C   0  0  0  0  0  0  0  0  0  0  0  0
    0.4730   -3.6496    0.0000 C   0  0  0  0  0  0  0  0  0  0  0  0
    0.8244   -2.1914    0.0000 C   0  0  0  0  0  0  0  0  0  0  0  0
    2.1432   -1.4767    0.0000 C   0  0  0  0  0  0  0  0  0  0  0  0
    3.4215   -2.2616    0.0000 C   0  0  0  0  0  0  0  0  0  0  0  0
    4.7404   -1.5470    0.0000 C   0  0  0  0  0  0  0  0  0  0  0  0
    4.7809   -0.0475    0.0000 C   0  0  0  0  0  0  0  0  0  0  0  0
    6.0998    0.6671    0.0000 C   0  0  0  0  0  0  0  0  0  0  0  0
    6.1403    2.1665    0.0000 C   0  0  0  0  0  0  0  0  0  0  0  0
    7.4592    2.8811    0.0000 O   0  0  0  0  0  0  0  0  0  0  0  0
    4.8620    2.9514    0.0000 C   0  0  0  0  0  0  0  0  0  0  0  0
    3.5432    2.2368    0.0000 C   0  0  0  0  0  0  0  0  0  0  0  0
    3.5026    0.7373    0.0000 C   0  0  0  0  0  0  0  0  0  0  0  0
    2.2243    1.5222    0.0000 C   0  0  0  0  0  0  0  0  0  0  0  0
    2.1838    0.0227    0.0000 C   0  0  0  0  0  0  0  0  0  0  0  0
    0.9055    0.8076    0.0000 C   0  0  0  0  0  0  0  0  0  0  0  0
   -0.4133    0.0929    0.0000 C   0  0  0  0  0  0  0  0  0  0  0  0
   -0.4539   -1.4065    0.0000 C   0  0  0  0  0  0  0  0  0  0  0  0
   -1.8072   -0.7596    0.0000 C   0  0  0  0  0  0  0  0  0  0  0  0
  2  1  1  6
  2  3  1  0
  3  4  1  0
  4  5  1  0
  5  6  2  0
  5  7  1  0
  7  8  1  0
  8  9  1  0
  2 10  1  0
 10 11  1  6
 11 12  1  0
 13 12  1  6
 13 14  1  0
 14 15  1  1
 15 16  1  0
 17 16  1  1
 17 18  1  0
 18 19  1  0
 19 20  1  1
 19 21  1  0
 21 22  1  0
 22 23  1  0
 23 24  1  6
 23 25  1  0
 25 26  1  6
 26 27  1  0
 27 28  1  0
 28 29  1  6
 28 10  1  0
 28 13  1  0
 25 14  1  0
 23 17  1  0
M  END
>  <MS_ID>  (1124) 
MS1169

>  <SMILES>  (1124) 
C[C@H](CCC(=O)CCO)[C@H]1CC[C@H]2[C@@H]3CC[C@@H]4C[C@H](O)CC[C@]4(C)[C@H]3CC[C@]12C

>  <Structure_dimension>  (1124) 
2D

$$$$
MS1170
     RDKit          2D

 35 39  0  0  0  0  0  0  0  0999 V2000
   -7.5412   -1.4462    0.0000 C   0  0  0  0  0  0  0  0  0  0  0  0
   -6.2456   -0.6903    0.0000 C   0  0  0  0  0  0  0  0  0  0  0  0
   -6.2524    0.8097    0.0000 C   0  0  0  0  0  0  0  0  0  0  0  0
   -7.5549    1.5538    0.0000 C   0  0  0  0  0  0  0  0  0  0  0  0
   -7.5618    3.0537    0.0000 C   0  0  0  0  0  0  0  0  0  0  0  0
   -6.2662    3.8097    0.0000 O   0  0  0  0  0  0  0  0  0  0  0  0
   -8.8642    3.7978    0.0000 O   0  0  0  0  0  0  0  0  0  0  0  0
   -4.9431   -1.4343    0.0000 C   0  0  0  0  0  0  0  0  0  0  0  0
   -4.7795   -2.9254    0.0000 C   0  0  0  0  0  0  0  0  0  0  0  0
   -3.3109   -3.2305    0.0000 C   0  0  0  0  0  0  0  0  0  0  0  0
   -2.5668   -1.9281    0.0000 C   0  0  0  0  0  0  0  0  0  0  0  0
   -1.1010   -1.6095    0.0000 C   0  0  0  0  0  0  0  0  0  0  0  0
   -0.0922   -2.7196    0.0000 C   0  0  0  0  0  0  0  0  0  0  0  0
   -0.5492   -4.1483    0.0000 O   0  0  0  0  0  0  0  0  0  0  0  0
    1.3735   -2.4010    0.0000 C   0  0  0  0  0  0  0  0  0  0  0  0
    1.8305   -0.9723    0.0000 C   0  0  0  0  0  0  0  0  0  0  0  0
    3.2963   -0.6537    0.0000 C   0  0  0  0  0  0  0  0  0  0  0  0
    3.7533    0.7750    0.0000 C   0  0  0  0  0  0  0  0  0  0  0  0
    5.2191    1.0935    0.0000 O   0  0  0  0  0  0  0  0  0  0  0  0
    6.2279   -0.0166    0.0000 C   0  0  0  0  0  0  0  0  0  0  0  0
    7.6936    0.3020    0.0000 C   0  0  0  0  0  0  0  0  0  0  0  0
    8.7024   -0.8081    0.0000 C   0  0  0  0  0  0  0  0  0  0  0  0
   10.1682   -0.4895    0.0000 C   0  0  0  0  0  0  0  0  0  0  0  0
   10.6252    0.9392    0.0000 C   0  0  0  0  0  0  0  0  0  0  0  0
    9.6164    2.0493    0.0000 C   0  0  0  0  0  0  0  0  0  0  0  0
    8.1506    1.7307    0.0000 C   0  0  0  0  0  0  0  0  0  0  0  0
    2.7445    1.8851    0.0000 C   0  0  0  0  0  0  0  0  0  0  0  0
    1.2787    1.5665    0.0000 C   0  0  0  0  0  0  0  0  0  0  0  0
    0.8217    0.1378    0.0000 C   0  0  0  0  0  0  0  0  0  0  0  0
   -0.1871    1.2479    0.0000 C   0  0  0  0  0  0  0  0  0  0  0  0
   -0.6440   -0.1808    0.0000 C   0  0  0  0  0  0  0  0  0  0  0  0
   -1.6528    0.9293    0.0000 C   0  0  0  0  0  0  0  0  0  0  0  0
   -3.1186    0.6107    0.0000 C   0  0  0  0  0  0  0  0  0  0  0  0
   -3.5756   -0.8180    0.0000 C   0  0  0  0  0  0  0  0  0  0  0  0
   -4.6949    0.1806    0.0000 C   0  0  0  0  0  0  0  0  0  0  0  0
  2  1  1  6
  2  3  1  0
  3  4  1  0
  4  5  1  0
  5  6  2  0
  5  7  1  0
  2  8  1  0
  8  9  1  6
  9 10  1  0
 11 10  1  6
 11 12  1  0
 12 13  1  1
 13 14  1  6
 13 15  1  0
 16 15  1  1
 16 17  1  0
 17 18  1  0
 18 19  1  1
 19 20  1  0
 20 21  1  0
 21 22  2  0
 22 23  1  0
 23 24  2  0
 24 25  1  0
 25 26  2  0
 18 27  1  0
 27 28  1  0
 28 29  1  0
 29 30  1  6
 29 31  1  0
 31 32  1  6
 32 33  1  0
 33 34  1  0
 34 35  1  6
 34  8  1  0
 34 11  1  0
 31 12  1  0
 29 16  1  0
 26 21  1  0
M  END
>  <MS_ID>  (1125) 
MS1170

>  <SMILES>  (1125) 
C[C@H](CCC(=O)O)[C@H]1CC[C@H]2[C@@H]3[C@@H](O)C[C@@H]4C[C@H](OCc5ccccc5)CC[C@]4(C)[C@H]3CC[C@]12C

>  <Structure_dimension>  (1125) 
2D

$$$$
MS1171
     RDKit          2D

 29 32  0  0  0  0  0  0  0  0999 V2000
   -4.6551   -2.6180    0.0000 C   0  0  0  0  0  0  0  0  0  0  0  0
   -3.5633   -1.5894    0.0000 C   0  0  0  0  0  0  0  0  0  0  0  0
   -3.9081   -0.1296    0.0000 C   0  0  0  0  0  0  0  0  0  0  0  0
   -5.3448    0.3016    0.0000 C   0  0  0  0  0  0  0  0  0  0  0  0
   -5.6897    1.7615    0.0000 C   0  0  0  0  0  0  0  0  0  0  0  0
   -4.5979    2.7900    0.0000 O   0  0  0  0  0  0  0  0  0  0  0  0
   -7.1264    2.1927    0.0000 C   0  0  0  0  0  0  0  0  0  0  0  0
   -7.4712    3.6525    0.0000 S   0  0  0  0  0  0  0  0  0  0  0  0
   -2.1266   -2.0207    0.0000 C   0  0  0  0  0  0  0  0  0  0  0  0
   -1.6310   -3.4364    0.0000 C   0  0  0  0  0  0  0  0  0  0  0  0
   -0.1314   -3.4026    0.0000 C   0  0  0  0  0  0  0  0  0  0  0  0
    0.2998   -1.9659    0.0000 C   0  0  0  0  0  0  0  0  0  0  0  0
    1.6561   -1.3251    0.0000 C   0  0  0  0  0  0  0  0  0  0  0  0
    2.8892   -2.1792    0.0000 C   0  0  0  0  0  0  0  0  0  0  0  0
    2.7660   -3.6741    0.0000 O   0  0  0  0  0  0  0  0  0  0  0  0
    4.2454   -1.5383    0.0000 C   0  0  0  0  0  0  0  0  0  0  0  0
    4.3685   -0.0434    0.0000 C   0  0  0  0  0  0  0  0  0  0  0  0
    5.7247    0.5975    0.0000 C   0  0  0  0  0  0  0  0  0  0  0  0
    5.8478    2.0924    0.0000 C   0  0  0  0  0  0  0  0  0  0  0  0
    7.2040    2.7332    0.0000 O   0  0  0  0  0  0  0  0  0  0  0  0
    4.6147    2.9465    0.0000 C   0  0  0  0  0  0  0  0  0  0  0  0
    3.2585    2.3056    0.0000 C   0  0  0  0  0  0  0  0  0  0  0  0
    3.1354    0.8107    0.0000 C   0  0  0  0  0  0  0  0  0  0  0  0
    1.9023    1.6648    0.0000 C   0  0  0  0  0  0  0  0  0  0  0  0
    1.7792    0.1699    0.0000 C   0  0  0  0  0  0  0  0  0  0  0  0
    0.5461    1.0239    0.0000 C   0  0  0  0  0  0  0  0  0  0  0  0
   -0.8101    0.3831    0.0000 C   0  0  0  0  0  0  0  0  0  0  0  0
   -0.9333   -1.1118    0.0000 C   0  0  0  0  0  0  0  0  0  0  0  0
   -2.2489   -0.3913    0.0000 C   0  0  0  0  0  0  0  0  0  0  0  0
  2  1  1  6
  2  3  1  0
  3  4  1  0
  4  5  1  0
  5  6  2  0
  5  7  1  0
  7  8  1  0
  2  9  1  0
  9 10  1  6
 10 11  1  0
 12 11  1  6
 12 13  1  0
 13 14  1  1
 14 15  1  6
 14 16  1  0
 17 16  1  1
 17 18  1  0
 18 19  1  0
 19 20  1  1
 19 21  1  0
 21 22  1  0
 22 23  1  0
 23 24  1  6
 23 25  1  0
 25 26  1  6
 26 27  1  0
 27 28  1  0
 28 29  1  6
 28  9  1  0
 28 12  1  0
 25 13  1  0
 23 17  1  0
M  END
>  <MS_ID>  (1126) 
MS1171

>  <SMILES>  (1126) 
C[C@H](CCC(=O)CS)[C@H]1CC[C@H]2[C@@H]3[C@@H](O)C[C@@H]4C[C@H](O)CC[C@]4(C)[C@H]3CC[C@]12C

>  <Structure_dimension>  (1126) 
2D

$$$$
MS1172
     RDKit          2D

 35 38  0  0  0  0  0  0  0  0999 V2000
   -1.1848   -4.5684    0.0000 C   0  0  0  0  0  0  0  0  0  0  0  0
   -0.5815   -3.1951    0.0000 C   0  0  0  0  0  0  0  0  0  0  0  0
   -1.4692   -1.9860    0.0000 C   0  0  0  0  0  0  0  0  0  0  0  0
   -2.9602   -2.1502    0.0000 C   0  0  0  0  0  0  0  0  0  0  0  0
   -3.8478   -0.9410    0.0000 C   0  0  0  0  0  0  0  0  0  0  0  0
   -3.2445    0.4323    0.0000 O   0  0  0  0  0  0  0  0  0  0  0  0
   -5.3388   -1.1052    0.0000 O   0  0  0  0  0  0  0  0  0  0  0  0
   -6.2265    0.1039    0.0000 C   0  0  0  0  0  0  0  0  0  0  0  0
   -7.7175   -0.0603    0.0000 C   0  0  0  0  0  0  0  0  0  0  0  0
   -8.6052    1.1489    0.0000 C   0  0  0  0  0  0  0  0  0  0  0  0
  -10.0962    0.9847    0.0000 C   0  0  0  0  0  0  0  0  0  0  0  0
  -10.9839    2.1938    0.0000 C   0  0  0  0  0  0  0  0  0  0  0  0
  -10.3806    3.5672    0.0000 O   0  0  0  0  0  0  0  0  0  0  0  0
  -12.4748    2.0297    0.0000 O   0  0  0  0  0  0  0  0  0  0  0  0
    0.9095   -3.0309    0.0000 C   0  0  0  0  0  0  0  0  0  0  0  0
    1.9187   -4.1407    0.0000 C   0  0  0  0  0  0  0  0  0  0  0  0
    3.2860   -3.5238    0.0000 C   0  0  0  0  0  0  0  0  0  0  0  0
    3.1218   -2.0328    0.0000 C   0  0  0  0  0  0  0  0  0  0  0  0
    4.1199   -0.9131    0.0000 C   0  0  0  0  0  0  0  0  0  0  0  0
    5.5887   -1.2177    0.0000 C   0  0  0  0  0  0  0  0  0  0  0  0
    6.0593   -2.6420    0.0000 O   0  0  0  0  0  0  0  0  0  0  0  0
    6.5869   -0.0980    0.0000 C   0  0  0  0  0  0  0  0  0  0  0  0
    6.1163    1.3263    0.0000 C   0  0  0  0  0  0  0  0  0  0  0  0
    7.1144    2.4459    0.0000 C   0  0  0  0  0  0  0  0  0  0  0  0
    6.6438    3.8702    0.0000 C   0  0  0  0  0  0  0  0  0  0  0  0
    7.6420    4.9899    0.0000 O   0  0  0  0  0  0  0  0  0  0  0  0
    5.1751    4.1748    0.0000 C   0  0  0  0  0  0  0  0  0  0  0  0
    4.1769    3.0551    0.0000 C   0  0  0  0  0  0  0  0  0  0  0  0
    4.6475    1.6309    0.0000 C   0  0  0  0  0  0  0  0  0  0  0  0
    3.1788    1.9354    0.0000 C   0  0  0  0  0  0  0  0  0  0  0  0
    3.6494    0.5112    0.0000 C   0  0  0  0  0  0  0  0  0  0  0  0
    2.1806    0.8158    0.0000 C   0  0  0  0  0  0  0  0  0  0  0  0
    1.1825   -0.3039    0.0000 C   0  0  0  0  0  0  0  0  0  0  0  0
    1.6530   -1.7282    0.0000 C   0  0  0  0  0  0  0  0  0  0  0  0
    0.1605   -1.5788    0.0000 C   0  0  0  0  0  0  0  0  0  0  0  0
  2  1  1  6
  2  3  1  0
  3  4  1  0
  4  5  1  0
  5  6  2  0
  5  7  1  0
  7  8  1  0
  8  9  1  0
  9 10  1  0
 10 11  1  0
 11 12  1  0
 12 13  2  0
 12 14  1  0
  2 15  1  0
 15 16  1  6
 16 17  1  0
 18 17  1  6
 18 19  1  0
 19 20  1  1
 20 21  1  1
 20 22  1  0
 23 22  1  1
 23 24  1  0
 24 25  1  0
 25 26  1  1
 25 27  1  0
 27 28  1  0
 28 29  1  0
 29 30  1  6
 29 31  1  0
 31 32  1  6
 32 33  1  0
 33 34  1  0
 34 35  1  6
 34 15  1  0
 34 18  1  0
 31 19  1  0
 29 23  1  0
M  END
>  <MS_ID>  (1127) 
MS1172

>  <SMILES>  (1127) 
C[C@H](CCC(=O)OCCCCC(=O)O)[C@H]1CC[C@H]2[C@@H]3[C@H](O)C[C@@H]4C[C@H](O)CC[C@]4(C)[C@H]3CC[C@]12C

>  <Structure_dimension>  (1127) 
2D

$$$$
MS1173
     RDKit          2D

 31 34  0  0  0  0  0  0  0  0999 V2000
   -5.7355   -1.9117    0.0000 C   0  0  0  0  0  0  0  0  0  0  0  0
   -4.5127   -1.0430    0.0000 C   0  0  0  0  0  0  0  0  0  0  0  0
   -4.6536    0.4504    0.0000 C   0  0  0  0  0  0  0  0  0  0  0  0
   -6.0173    1.0750    0.0000 C   0  0  0  0  0  0  0  0  0  0  0  0
   -6.1582    2.5684    0.0000 C   0  0  0  0  0  0  0  0  0  0  0  0
   -4.9354    3.4371    0.0000 O   0  0  0  0  0  0  0  0  0  0  0  0
   -7.5220    3.1930    0.0000 O   0  0  0  0  0  0  0  0  0  0  0  0
   -3.1489   -1.6676    0.0000 C   0  0  0  0  0  0  0  0  0  0  0  0
   -2.8527   -3.1381    0.0000 C   0  0  0  0  0  0  0  0  0  0  0  0
   -1.3626   -3.3107    0.0000 C   0  0  0  0  0  0  0  0  0  0  0  0
   -0.7380   -1.9470    0.0000 C   0  0  0  0  0  0  0  0  0  0  0  0
    0.6935   -1.4986    0.0000 C   0  0  0  0  0  0  0  0  0  0  0  0
    1.7974   -2.5141    0.0000 C   0  0  0  0  0  0  0  0  0  0  0  0
    1.4700   -3.9780    0.0000 O   0  0  0  0  0  0  0  0  0  0  0  0
    3.2289   -2.0658    0.0000 C   0  0  0  0  0  0  0  0  0  0  0  0
    3.5563   -0.6020    0.0000 C   0  0  0  0  0  0  0  0  0  0  0  0
    4.9878   -0.1536    0.0000 C   0  0  0  0  0  0  0  0  0  0  0  0
    5.3152    1.3102    0.0000 C   0  0  0  0  0  0  0  0  0  0  0  0
    6.7466    1.7585    0.0000 O   0  0  0  0  0  0  0  0  0  0  0  0
    7.8506    0.7430    0.0000 C   0  0  0  0  0  0  0  0  0  0  0  0
    9.2821    1.1913    0.0000 O   0  0  0  0  0  0  0  0  0  0  0  0
    4.2112    2.3257    0.0000 C   0  0  0  0  0  0  0  0  0  0  0  0
    2.7798    1.8773    0.0000 C   0  0  0  0  0  0  0  0  0  0  0  0
    2.4523    0.4135    0.0000 C   0  0  0  0  0  0  0  0  0  0  0  0
    1.3484    1.4290    0.0000 C   0  0  0  0  0  0  0  0  0  0  0  0
    1.0209   -0.0348    0.0000 C   0  0  0  0  0  0  0  0  0  0  0  0
   -0.0831    0.9807    0.0000 C   0  0  0  0  0  0  0  0  0  0  0  0
   -1.5145    0.5323    0.0000 C   0  0  0  0  0  0  0  0  0  0  0  0
   -2.6185    1.5478    0.0000 O   0  0  0  0  0  0  0  0  0  0  0  0
   -1.8420   -0.9315    0.0000 C   0  0  0  0  0  0  0  0  0  0  0  0
   -3.0460   -0.0369    0.0000 C   0  0  0  0  0  0  0  0  0  0  0  0
  2  1  1  6
  2  3  1  0
  3  4  1  0
  4  5  1  0
  5  6  2  0
  5  7  1  0
  2  8  1  0
  8  9  1  6
  9 10  1  0
 11 10  1  6
 11 12  1  0
 12 13  1  1
 13 14  1  1
 13 15  1  0
 16 15  1  1
 16 17  1  0
 17 18  1  0
 18 19  1  1
 19 20  1  0
 20 21  1  0
 18 22  1  0
 22 23  1  0
 23 24  1  0
 24 25  1  6
 24 26  1  0
 26 27  1  6
 27 28  1  0
 28 29  1  1
 28 30  1  0
 30 31  1  6
 30  8  1  0
 30 11  1  0
 26 12  1  0
 24 16  1  0
M  END
>  <MS_ID>  (1128) 
MS1173

>  <SMILES>  (1128) 
C[C@H](CCC(=O)O)[C@H]1CC[C@H]2[C@@H]3[C@H](O)C[C@@H]4C[C@H](OCO)CC[C@]4(C)[C@H]3C[C@H](O)[C@]12C

>  <Structure_dimension>  (1128) 
2D

$$$$
MS1174
     RDKit          2D

 27 30  0  0  0  0  0  0  0  0999 V2000
   -4.7316   -2.2462    0.0000 C   0  0  0  0  0  0  0  0  0  0  0  0
   -3.6106   -1.2495    0.0000 C   0  0  0  0  0  0  0  0  0  0  0  0
   -3.9133    0.2196    0.0000 C   0  0  0  0  0  0  0  0  0  0  0  0
   -5.3370    0.6920    0.0000 C   0  0  0  0  0  0  0  0  0  0  0  0
   -5.6397    2.1612    0.0000 C   0  0  0  0  0  0  0  0  0  0  0  0
   -7.0634    2.6336    0.0000 O   0  0  0  0  0  0  0  0  0  0  0  0
   -4.5188    3.1579    0.0000 F   0  0  0  0  0  0  0  0  0  0  0  0
   -2.1870   -1.7219    0.0000 C   0  0  0  0  0  0  0  0  0  0  0  0
   -1.7323   -3.1514    0.0000 C   0  0  0  0  0  0  0  0  0  0  0  0
   -0.2324   -3.1607    0.0000 C   0  0  0  0  0  0  0  0  0  0  0  0
    0.2401   -1.7371    0.0000 C   0  0  0  0  0  0  0  0  0  0  0  0
    1.6141   -1.1355    0.0000 C   0  0  0  0  0  0  0  0  0  0  0  0
    2.8222   -2.0247    0.0000 C   0  0  0  0  0  0  0  0  0  0  0  0
    2.6561   -3.5155    0.0000 O   0  0  0  0  0  0  0  0  0  0  0  0
    4.1962   -1.4232    0.0000 C   0  0  0  0  0  0  0  0  0  0  0  0
    4.3623    0.0676    0.0000 C   0  0  0  0  0  0  0  0  0  0  0  0
    5.7364    0.6691    0.0000 C   0  0  0  0  0  0  0  0  0  0  0  0
    5.9025    2.1599    0.0000 C   0  0  0  0  0  0  0  0  0  0  0  0
    4.6945    3.0491    0.0000 C   0  0  0  0  0  0  0  0  0  0  0  0
    3.3204    2.4476    0.0000 C   0  0  0  0  0  0  0  0  0  0  0  0
    3.1543    0.9568    0.0000 C   0  0  0  0  0  0  0  0  0  0  0  0
    1.9463    1.8460    0.0000 C   0  0  0  0  0  0  0  0  0  0  0  0
    1.7802    0.3553    0.0000 C   0  0  0  0  0  0  0  0  0  0  0  0
    0.5722    1.2445    0.0000 C   0  0  0  0  0  0  0  0  0  0  0  0
   -0.8019    0.6429    0.0000 C   0  0  0  0  0  0  0  0  0  0  0  0
   -0.9680   -0.8478    0.0000 C   0  0  0  0  0  0  0  0  0  0  0  0
   -2.2623   -0.0897    0.0000 C   0  0  0  0  0  0  0  0  0  0  0  0
  2  1  1  6
  2  3  1  0
  3  4  1  0
  4  5  1  0
  5  6  2  0
  5  7  1  0
  2  8  1  0
  8  9  1  6
  9 10  1  0
 11 10  1  6
 11 12  1  0
 12 13  1  1
 13 14  1  6
 13 15  1  0
 16 15  1  1
 16 17  1  0
 17 18  1  0
 18 19  1  0
 19 20  1  0
 20 21  1  0
 21 22  1  6
 21 23  1  0
 23 24  1  6
 24 25  1  0
 25 26  1  0
 26 27  1  6
 26  8  1  0
 26 11  1  0
 23 12  1  0
 21 16  1  0
M  END
>  <MS_ID>  (1129) 
MS1174

>  <SMILES>  (1129) 
C[C@H](CCC(=O)F)[C@H]1CC[C@H]2[C@@H]3[C@@H](O)C[C@@H]4CCCC[C@]4(C)[C@H]3CC[C@]12C

>  <Structure_dimension>  (1129) 
2D

$$$$
MS1175
     RDKit          2D

 30 33  0  0  0  0  0  0  0  0999 V2000
   -3.5909   -3.2894    0.0000 C   0  0  0  0  0  0  0  0  0  0  0  0
   -2.6685   -2.1066    0.0000 C   0  0  0  0  0  0  0  0  0  0  0  0
   -3.2316   -0.7163    0.0000 C   0  0  0  0  0  0  0  0  0  0  0  0
   -4.7172   -0.5088    0.0000 C   0  0  0  0  0  0  0  0  0  0  0  0
   -5.2803    0.8815    0.0000 C   0  0  0  0  0  0  0  0  0  0  0  0
   -4.3578    2.0643    0.0000 O   0  0  0  0  0  0  0  0  0  0  0  0
   -6.7659    1.0889    0.0000 O   0  0  0  0  0  0  0  0  0  0  0  0
   -7.3290    2.4792    0.0000 C   0  0  0  0  0  0  0  0  0  0  0  0
   -8.8146    2.6867    0.0000 O   0  0  0  0  0  0  0  0  0  0  0  0
   -1.1829   -2.3140    0.0000 C   0  0  0  0  0  0  0  0  0  0  0  0
   -0.4775   -3.6378    0.0000 C   0  0  0  0  0  0  0  0  0  0  0  0
    0.9995   -3.3760    0.0000 C   0  0  0  0  0  0  0  0  0  0  0  0
    1.2069   -1.8905    0.0000 C   0  0  0  0  0  0  0  0  0  0  0  0
    2.4498   -1.0506    0.0000 C   0  0  0  0  0  0  0  0  0  0  0  0
    3.7985   -1.7070    0.0000 C   0  0  0  0  0  0  0  0  0  0  0  0
    3.9045   -3.2032    0.0000 O   0  0  0  0  0  0  0  0  0  0  0  0
    5.0414   -0.8671    0.0000 C   0  0  0  0  0  0  0  0  0  0  0  0
    4.9354    0.6292    0.0000 C   0  0  0  0  0  0  0  0  0  0  0  0
    6.1782    1.4691    0.0000 C   0  0  0  0  0  0  0  0  0  0  0  0
    6.0723    2.9653    0.0000 C   0  0  0  0  0  0  0  0  0  0  0  0
    4.7235    3.6217    0.0000 C   0  0  0  0  0  0  0  0  0  0  0  0
    3.4807    2.7818    0.0000 C   0  0  0  0  0  0  0  0  0  0  0  0
    3.5866    1.2856    0.0000 C   0  0  0  0  0  0  0  0  0  0  0  0
    2.2379    1.9419    0.0000 C   0  0  0  0  0  0  0  0  0  0  0  0
    2.3438    0.4457    0.0000 C   0  0  0  0  0  0  0  0  0  0  0  0
    0.9950    1.1020    0.0000 C   0  0  0  0  0  0  0  0  0  0  0  0
   -0.2478    0.2622    0.0000 C   0  0  0  0  0  0  0  0  0  0  0  0
   -1.5965    0.9185    0.0000 O   0  0  0  0  0  0  0  0  0  0  0  0
   -0.1418   -1.2341    0.0000 C   0  0  0  0  0  0  0  0  0  0  0  0
   -1.5518   -0.7223    0.0000 C   0  0  0  0  0  0  0  0  0  0  0  0
  2  1  1  6
  2  3  1  0
  3  4  1  0
  4  5  1  0
  5  6  2  0
  5  7  1  0
  7  8  1  0
  8  9  1  0
  2 10  1  0
 10 11  1  6
 11 12  1  0
 13 12  1  6
 13 14  1  0
 14 15  1  1
 15 16  1  6
 15 17  1  0
 18 17  1  1
 18 19  1  0
 19 20  1  0
 20 21  1  0
 21 22  1  0
 22 23  1  0
 23 24  1  6
 23 25  1  0
 25 26  1  6
 26 27  1  0
 27 28  1  1
 27 29  1  0
 29 30  1  6
 29 10  1  0
 29 13  1  0
 25 14  1  0
 23 18  1  0
M  END
>  <MS_ID>  (1130) 
MS1175

>  <SMILES>  (1130) 
C[C@H](CCC(=O)OCO)[C@H]1CC[C@H]2[C@@H]3[C@@H](O)C[C@@H]4CCCC[C@]4(C)[C@H]3C[C@H](O)[C@]12C

>  <Structure_dimension>  (1130) 
2D

$$$$
MS1176
     RDKit          2D

 29 32  0  0  0  0  0  0  0  0999 V2000
   -7.2216    3.6536    0.0000 C   0  0  0  0  0  0  0  0  0  0  0  0
   -6.9111    2.1861    0.0000 O   0  0  0  0  0  0  0  0  0  0  0  0
   -5.4850    1.7213    0.0000 C   0  0  0  0  0  0  0  0  0  0  0  0
   -4.3693    2.7239    0.0000 O   0  0  0  0  0  0  0  0  0  0  0  0
   -5.1744    0.2538    0.0000 C   0  0  0  0  0  0  0  0  0  0  0  0
   -3.7483   -0.2111    0.0000 C   0  0  0  0  0  0  0  0  0  0  0  0
   -3.4378   -1.6786    0.0000 C   0  0  0  0  0  0  0  0  0  0  0  0
   -4.5534   -2.6812    0.0000 C   0  0  0  0  0  0  0  0  0  0  0  0
   -2.0116   -2.1434    0.0000 C   0  0  0  0  0  0  0  0  0  0  0  0
   -1.5494   -3.5704    0.0000 C   0  0  0  0  0  0  0  0  0  0  0  0
   -0.0494   -3.5718    0.0000 C   0  0  0  0  0  0  0  0  0  0  0  0
    0.4155   -2.1456    0.0000 C   0  0  0  0  0  0  0  0  0  0  0  0
    1.7863   -1.5368    0.0000 C   0  0  0  0  0  0  0  0  0  0  0  0
    2.9990   -2.4196    0.0000 C   0  0  0  0  0  0  0  0  0  0  0  0
    4.3699   -1.8107    0.0000 C   0  0  0  0  0  0  0  0  0  0  0  0
    4.5281   -0.3191    0.0000 C   0  0  0  0  0  0  0  0  0  0  0  0
    5.8990    0.2898    0.0000 C   0  0  0  0  0  0  0  0  0  0  0  0
    6.0571    1.7814    0.0000 C   0  0  0  0  0  0  0  0  0  0  0  0
    7.4280    2.3902    0.0000 O   0  0  0  0  0  0  0  0  0  0  0  0
    4.8444    2.6642    0.0000 C   0  0  0  0  0  0  0  0  0  0  0  0
    3.4735    2.0553    0.0000 C   0  0  0  0  0  0  0  0  0  0  0  0
    3.3154    0.5637    0.0000 C   0  0  0  0  0  0  0  0  0  0  0  0
    2.1026    1.4465    0.0000 C   0  0  0  0  0  0  0  0  0  0  0  0
    1.9445   -0.0451    0.0000 C   0  0  0  0  0  0  0  0  0  0  0  0
    0.7318    0.8376    0.0000 C   0  0  0  0  0  0  0  0  0  0  0  0
   -0.6391    0.2288    0.0000 C   0  0  0  0  0  0  0  0  0  0  0  0
   -1.8518    1.1116    0.0000 O   0  0  0  0  0  0  0  0  0  0  0  0
   -0.7973   -1.2628    0.0000 C   0  0  0  0  0  0  0  0  0  0  0  0
   -2.0956   -0.5116    0.0000 C   0  0  0  0  0  0  0  0  0  0  0  0
  1  2  1  0
  2  3  1  0
  3  4  2  0
  3  5  1  0
  5  6  1  0
  6  7  1  0
  7  8  1  6
  7  9  1  0
  9 10  1  6
 10 11  1  0
 12 11  1  6
 12 13  1  0
 13 14  1  1
 14 15  1  0
 16 15  1  6
 16 17  1  0
 17 18  1  0
 18 19  1  1
 18 20  1  0
 20 21  1  0
 21 22  1  0
 22 23  1  6
 22 24  1  0
 24 25  1  6
 25 26  1  0
 26 27  1  1
 26 28  1  0
 28 29  1  6
 28  9  1  0
 28 12  1  0
 24 13  1  0
 22 16  1  0
M  END
>  <MS_ID>  (1131) 
MS1176

>  <SMILES>  (1131) 
COC(=O)CC[C@@H](C)[C@H]1CC[C@H]2[C@@H]3CC[C@H]4C[C@H](O)CC[C@]4(C)[C@H]3C[C@H](O)[C@]12C

>  <Structure_dimension>  (1131) 
2D

$$$$
MS1177
     RDKit          2D

 30 33  0  0  0  0  0  0  0  0999 V2000
   -5.0361   -2.2421    0.0000 C   0  0  0  0  0  0  0  0  0  0  0  0
   -3.9151   -1.2454    0.0000 C   0  0  0  0  0  0  0  0  0  0  0  0
   -4.2177    0.2237    0.0000 C   0  0  0  0  0  0  0  0  0  0  0  0
   -5.6413    0.6963    0.0000 C   0  0  0  0  0  0  0  0  0  0  0  0
   -5.9439    2.1654    0.0000 C   0  0  0  0  0  0  0  0  0  0  0  0
   -4.8228    3.1621    0.0000 O   0  0  0  0  0  0  0  0  0  0  0  0
   -7.3675    2.6380    0.0000 O   0  0  0  0  0  0  0  0  0  0  0  0
   -2.4915   -1.7180    0.0000 C   0  0  0  0  0  0  0  0  0  0  0  0
   -2.0370   -3.1475    0.0000 C   0  0  0  0  0  0  0  0  0  0  0  0
   -0.5370   -3.1570    0.0000 C   0  0  0  0  0  0  0  0  0  0  0  0
   -0.0645   -1.7333    0.0000 C   0  0  0  0  0  0  0  0  0  0  0  0
    1.3097   -1.1319    0.0000 C   0  0  0  0  0  0  0  0  0  0  0  0
    2.5176   -2.0213    0.0000 C   0  0  0  0  0  0  0  0  0  0  0  0
    2.3514   -3.5120    0.0000 C   0  0  0  0  0  0  0  0  0  0  0  0
    3.5593   -4.4014    0.0000 O   0  0  0  0  0  0  0  0  0  0  0  0
    3.8918   -1.4198    0.0000 C   0  0  0  0  0  0  0  0  0  0  0  0
    4.0580    0.0709    0.0000 C   0  0  0  0  0  0  0  0  0  0  0  0
    5.4321    0.6723    0.0000 C   0  0  0  0  0  0  0  0  0  0  0  0
    5.5984    2.1631    0.0000 C   0  0  0  0  0  0  0  0  0  0  0  0
    6.9725    2.7645    0.0000 O   0  0  0  0  0  0  0  0  0  0  0  0
    4.3904    3.0524    0.0000 C   0  0  0  0  0  0  0  0  0  0  0  0
    3.0163    2.4510    0.0000 C   0  0  0  0  0  0  0  0  0  0  0  0
    2.8501    0.9603    0.0000 C   0  0  0  0  0  0  0  0  0  0  0  0
    1.6421    1.8496    0.0000 C   0  0  0  0  0  0  0  0  0  0  0  0
    1.4759    0.3588    0.0000 C   0  0  0  0  0  0  0  0  0  0  0  0
    0.2680    1.2482    0.0000 C   0  0  0  0  0  0  0  0  0  0  0  0
   -1.1062    0.6468    0.0000 C   0  0  0  0  0  0  0  0  0  0  0  0
   -2.3141    1.5361    0.0000 O   0  0  0  0  0  0  0  0  0  0  0  0
   -1.2724   -0.8440    0.0000 C   0  0  0  0  0  0  0  0  0  0  0  0
   -2.5667   -0.0858    0.0000 C   0  0  0  0  0  0  0  0  0  0  0  0
  2  1  1  6
  2  3  1  0
  3  4  1  0
  4  5  1  0
  5  6  2  0
  5  7  1  0
  2  8  1  0
  8  9  1  6
  9 10  1  0
 11 10  1  6
 11 12  1  0
 12 13  1  1
 13 14  1  6
 14 15  1  0
 13 16  1  0
 17 16  1  1
 17 18  1  0
 18 19  1  0
 19 20  1  6
 19 21  1  0
 21 22  1  0
 22 23  1  0
 23 24  1  6
 23 25  1  0
 25 26  1  6
 26 27  1  0
 27 28  1  1
 27 29  1  0
 29 30  1  6
 29  8  1  0
 29 11  1  0
 25 12  1  0
 23 17  1  0
M  END
>  <MS_ID>  (1132) 
MS1177

>  <SMILES>  (1132) 
C[C@H](CCC(=O)O)[C@H]1CC[C@H]2[C@@H]3[C@@H](CO)C[C@@H]4C[C@@H](O)CC[C@]4(C)[C@H]3C[C@H](O)[C@]12C

>  <Structure_dimension>  (1132) 
2D

$$$$
MS1178
     RDKit          2D

 32 35  0  0  0  0  0  0  0  0999 V2000
   -2.6627   -3.7242    0.0000 C   0  0  0  0  0  0  0  0  0  0  0  0
   -1.8528   -2.4616    0.0000 C   0  0  0  0  0  0  0  0  0  0  0  0
   -2.5413   -1.1289    0.0000 C   0  0  0  0  0  0  0  0  0  0  0  0
   -4.0396   -1.0588    0.0000 C   0  0  0  0  0  0  0  0  0  0  0  0
   -4.7281    0.2738    0.0000 C   0  0  0  0  0  0  0  0  0  0  0  0
   -3.9182    1.5364    0.0000 O   0  0  0  0  0  0  0  0  0  0  0  0
   -6.2265    0.3439    0.0000 C   0  0  0  0  0  0  0  0  0  0  0  0
   -6.9150    1.6766    0.0000 C   0  0  0  0  0  0  0  0  0  0  0  0
   -8.4133    1.7467    0.0000 C   0  0  0  0  0  0  0  0  0  0  0  0
   -9.2232    0.4841    0.0000 O   0  0  0  0  0  0  0  0  0  0  0  0
   -9.1018    3.0794    0.0000 O   0  0  0  0  0  0  0  0  0  0  0  0
   -0.3544   -2.5317    0.0000 C   0  0  0  0  0  0  0  0  0  0  0  0
    0.4696   -3.7851    0.0000 C   0  0  0  0  0  0  0  0  0  0  0  0
    1.9163   -3.3887    0.0000 C   0  0  0  0  0  0  0  0  0  0  0  0
    1.9864   -1.8904    0.0000 C   0  0  0  0  0  0  0  0  0  0  0  0
    3.1468   -0.9399    0.0000 C   0  0  0  0  0  0  0  0  0  0  0  0
    4.5501   -1.4695    0.0000 C   0  0  0  0  0  0  0  0  0  0  0  0
    4.7931   -2.9497    0.0000 O   0  0  0  0  0  0  0  0  0  0  0  0
    5.7105   -0.5190    0.0000 C   0  0  0  0  0  0  0  0  0  0  0  0
    5.4676    0.9612    0.0000 C   0  0  0  0  0  0  0  0  0  0  0  0
    6.6280    1.9117    0.0000 C   0  0  0  0  0  0  0  0  0  0  0  0
    6.3850    3.3919    0.0000 C   0  0  0  0  0  0  0  0  0  0  0  0
    4.9816    3.9216    0.0000 C   0  0  0  0  0  0  0  0  0  0  0  0
    3.8212    2.9710    0.0000 C   0  0  0  0  0  0  0  0  0  0  0  0
    4.0642    1.4909    0.0000 C   0  0  0  0  0  0  0  0  0  0  0  0
    2.6608    2.0205    0.0000 C   0  0  0  0  0  0  0  0  0  0  0  0
    2.9038    0.5403    0.0000 C   0  0  0  0  0  0  0  0  0  0  0  0
    1.5004    1.0700    0.0000 C   0  0  0  0  0  0  0  0  0  0  0  0
    0.3400    0.1195    0.0000 C   0  0  0  0  0  0  0  0  0  0  0  0
   -1.0633    0.6492    0.0000 O   0  0  0  0  0  0  0  0  0  0  0  0
    0.5830   -1.3607    0.0000 C   0  0  0  0  0  0  0  0  0  0  0  0
   -0.8681   -0.9806    0.0000 C   0  0  0  0  0  0  0  0  0  0  0  0
  2  1  1  6
  2  3  1  0
  3  4  1  0
  4  5  1  0
  5  6  2  0
  5  7  1  0
  7  8  1  0
  8  9  1  0
  9 10  2  0
  9 11  1  0
  2 12  1  0
 12 13  1  6
 13 14  1  0
 15 14  1  6
 15 16  1  0
 16 17  1  1
 17 18  1  6
 17 19  1  0
 20 19  1  1
 20 21  1  0
 21 22  1  0
 22 23  1  0
 23 24  1  0
 24 25  1  0
 25 26  1  6
 25 27  1  0
 27 28  1  6
 28 29  1  0
 29 30  1  6
 29 31  1  0
 31 32  1  6
 31 12  1  0
 31 15  1  0
 27 16  1  0
 25 20  1  0
M  END
>  <MS_ID>  (1133) 
MS1178

>  <SMILES>  (1133) 
C[C@H](CCC(=O)CCC(=O)O)[C@H]1CC[C@H]2[C@@H]3[C@@H](O)C[C@@H]4CCCC[C@]4(C)[C@H]3C[C@@H](O)[C@]12C

>  <Structure_dimension>  (1133) 
2D

$$$$
MS1180
     RDKit          2D

 32 35  0  0  0  0  0  0  0  0999 V2000
   -2.9090   -3.9078    0.0000 C   0  0  0  0  0  0  0  0  0  0  0  0
   -2.0926   -2.6494    0.0000 C   0  0  0  0  0  0  0  0  0  0  0  0
   -2.7741   -1.3132    0.0000 C   0  0  0  0  0  0  0  0  0  0  0  0
   -4.2721   -1.2353    0.0000 C   0  0  0  0  0  0  0  0  0  0  0  0
   -4.9536    0.1009    0.0000 C   0  0  0  0  0  0  0  0  0  0  0  0
   -4.1372    1.3592    0.0000 O   0  0  0  0  0  0  0  0  0  0  0  0
   -6.4516    0.1788    0.0000 O   0  0  0  0  0  0  0  0  0  0  0  0
   -7.1332    1.5150    0.0000 C   0  0  0  0  0  0  0  0  0  0  0  0
   -8.6311    1.5929    0.0000 C   0  0  0  0  0  0  0  0  0  0  0  0
   -9.3127    2.9291    0.0000 C   0  0  0  0  0  0  0  0  0  0  0  0
  -10.8107    3.0070    0.0000 N   0  0  0  0  0  0  0  0  0  0  0  0
   -0.5946   -2.7273    0.0000 C   0  0  0  0  0  0  0  0  0  0  0  0
    0.2229   -3.9850    0.0000 C   0  0  0  0  0  0  0  0  0  0  0  0
    1.6716   -3.5962    0.0000 C   0  0  0  0  0  0  0  0  0  0  0  0
    1.7495   -2.0982    0.0000 C   0  0  0  0  0  0  0  0  0  0  0  0
    2.9148   -1.1537    0.0000 C   0  0  0  0  0  0  0  0  0  0  0  0
    4.3154   -1.6907    0.0000 C   0  0  0  0  0  0  0  0  0  0  0  0
    4.5507   -3.1721    0.0000 O   0  0  0  0  0  0  0  0  0  0  0  0
    5.4807   -0.7462    0.0000 C   0  0  0  0  0  0  0  0  0  0  0  0
    5.2455    0.7352    0.0000 C   0  0  0  0  0  0  0  0  0  0  0  0
    6.4108    1.6797    0.0000 C   0  0  0  0  0  0  0  0  0  0  0  0
    6.1755    3.1611    0.0000 C   0  0  0  0  0  0  0  0  0  0  0  0
    7.3408    4.1056    0.0000 O   0  0  0  0  0  0  0  0  0  0  0  0
    4.7749    3.6981    0.0000 C   0  0  0  0  0  0  0  0  0  0  0  0
    3.6096    2.7536    0.0000 C   0  0  0  0  0  0  0  0  0  0  0  0
    3.8449    1.2722    0.0000 C   0  0  0  0  0  0  0  0  0  0  0  0
    2.4443    1.8091    0.0000 C   0  0  0  0  0  0  0  0  0  0  0  0
    2.6795    0.3277    0.0000 C   0  0  0  0  0  0  0  0  0  0  0  0
    1.2789    0.8647    0.0000 C   0  0  0  0  0  0  0  0  0  0  0  0
    0.1136   -0.0798    0.0000 C   0  0  0  0  0  0  0  0  0  0  0  0
    0.3489   -1.5612    0.0000 C   0  0  0  0  0  0  0  0  0  0  0  0
   -1.1002   -1.1736    0.0000 C   0  0  0  0  0  0  0  0  0  0  0  0
  2  1  1  6
  2  3  1  0
  3  4  1  0
  4  5  1  0
  5  6  2  0
  5  7  1  0
  7  8  1  0
  8  9  1  0
  9 10  1  0
 10 11  1  0
  2 12  1  0
 12 13  1  6
 13 14  1  0
 15 14  1  6
 15 16  1  0
 16 17  1  1
 17 18  1  1
 17 19  1  0
 20 19  1  1
 20 21  1  0
 21 22  1  0
 22 23  1  1
 22 24  1  0
 24 25  1  0
 25 26  1  0
 26 27  1  6
 26 28  1  0
 28 29  1  6
 29 30  1  0
 30 31  1  0
 31 32  1  6
 31 12  1  0
 31 15  1  0
 28 16  1  0
 26 20  1  0
M  END
>  <MS_ID>  (1134) 
MS1180

>  <SMILES>  (1134) 
C[C@H](CCC(=O)OCCCN)[C@H]1CC[C@H]2[C@@H]3[C@H](O)C[C@@H]4C[C@H](O)CC[C@]4(C)[C@H]3CC[C@]12C

>  <Structure_dimension>  (1134) 
2D

$$$$
MS1181
     RDKit          2D

 34 37  0  0  0  0  0  0  0  0999 V2000
   -2.4067   -4.2005    0.0000 C   0  0  0  0  0  0  0  0  0  0  0  0
   -1.6045   -2.9330    0.0000 C   0  0  0  0  0  0  0  0  0  0  0  0
   -2.3010   -1.6046    0.0000 C   0  0  0  0  0  0  0  0  0  0  0  0
   -3.7998   -1.5436    0.0000 C   0  0  0  0  0  0  0  0  0  0  0  0
   -4.4964   -0.2151    0.0000 C   0  0  0  0  0  0  0  0  0  0  0  0
   -3.6942    1.0523    0.0000 O   0  0  0  0  0  0  0  0  0  0  0  0
   -5.9951   -0.1542    0.0000 N   0  0  0  0  0  0  0  0  0  0  0  0
   -6.6917    1.1743    0.0000 C   0  0  0  0  0  0  0  0  0  0  0  0
   -8.0201    0.4777    0.0000 C   0  0  0  0  0  0  0  0  0  0  0  0
   -5.3632    1.8709    0.0000 C   0  0  0  0  0  0  0  0  0  0  0  0
   -7.3883    2.5028    0.0000 C   0  0  0  0  0  0  0  0  0  0  0  0
   -8.8870    2.5637    0.0000 O   0  0  0  0  0  0  0  0  0  0  0  0
   -6.5861    3.7702    0.0000 O   0  0  0  0  0  0  0  0  0  0  0  0
   -0.1057   -2.9940    0.0000 C   0  0  0  0  0  0  0  0  0  0  0  0
    0.7259   -4.2424    0.0000 C   0  0  0  0  0  0  0  0  0  0  0  0
    2.1702   -3.8372    0.0000 C   0  0  0  0  0  0  0  0  0  0  0  0
    2.2311   -2.3385    0.0000 C   0  0  0  0  0  0  0  0  0  0  0  0
    3.3857   -1.3809    0.0000 C   0  0  0  0  0  0  0  0  0  0  0  0
    4.7923   -1.9021    0.0000 C   0  0  0  0  0  0  0  0  0  0  0  0
    5.9469   -0.9445    0.0000 C   0  0  0  0  0  0  0  0  0  0  0  0
    5.6949    0.5342    0.0000 C   0  0  0  0  0  0  0  0  0  0  0  0
    6.8495    1.4917    0.0000 C   0  0  0  0  0  0  0  0  0  0  0  0
    6.5976    2.9704    0.0000 C   0  0  0  0  0  0  0  0  0  0  0  0
    7.7522    3.9279    0.0000 O   0  0  0  0  0  0  0  0  0  0  0  0
    5.1910    3.4915    0.0000 C   0  0  0  0  0  0  0  0  0  0  0  0
    4.0364    2.5340    0.0000 C   0  0  0  0  0  0  0  0  0  0  0  0
    4.2884    1.0553    0.0000 C   0  0  0  0  0  0  0  0  0  0  0  0
    2.8818    1.5764    0.0000 C   0  0  0  0  0  0  0  0  0  0  0  0
    3.1338    0.0978    0.0000 C   0  0  0  0  0  0  0  0  0  0  0  0
    1.7272    0.6189    0.0000 C   0  0  0  0  0  0  0  0  0  0  0  0
    0.5726   -0.3386    0.0000 C   0  0  0  0  0  0  0  0  0  0  0  0
   -0.8339    0.1825    0.0000 O   0  0  0  0  0  0  0  0  0  0  0  0
    0.8246   -1.8173    0.0000 C   0  0  0  0  0  0  0  0  0  0  0  0
   -0.6287   -1.4461    0.0000 C   0  0  0  0  0  0  0  0  0  0  0  0
  2  1  1  6
  2  3  1  0
  3  4  1  0
  4  5  1  0
  5  6  2  0
  5  7  1  0
  7  8  1  0
  8  9  1  0
  8 10  1  0
  8 11  1  0
 11 12  2  0
 11 13  1  0
  2 14  1  0
 14 15  1  6
 15 16  1  0
 17 16  1  6
 17 18  1  0
 18 19  1  1
 19 20  1  0
 21 20  1  1
 21 22  1  0
 22 23  1  0
 23 24  1  1
 23 25  1  0
 25 26  1  0
 26 27  1  0
 27 28  1  6
 27 29  1  0
 29 30  1  6
 30 31  1  0
 31 32  1  1
 31 33  1  0
 33 34  1  6
 33 14  1  0
 33 17  1  0
 29 18  1  0
 27 21  1  0
M  END
>  <MS_ID>  (1135) 
MS1181

>  <SMILES>  (1135) 
C[C@H](CCC(=O)NC(C)(C)C(=O)O)[C@H]1CC[C@H]2[C@@H]3CC[C@@H]4C[C@H](O)CC[C@]4(C)[C@H]3C[C@H](O)[C@]12C

>  <Structure_dimension>  (1135) 
2D

$$$$
MS1182
     RDKit          2D

 34 37  0  0  0  0  0  0  0  0999 V2000
   -1.8984   -4.2506    0.0000 C   0  0  0  0  0  0  0  0  0  0  0  0
   -1.1842   -2.9316    0.0000 C   0  0  0  0  0  0  0  0  0  0  0  0
   -1.9694   -1.6535    0.0000 C   0  0  0  0  0  0  0  0  0  0  0  0
   -3.4688   -1.6945    0.0000 C   0  0  0  0  0  0  0  0  0  0  0  0
   -4.2540   -0.4165    0.0000 C   0  0  0  0  0  0  0  0  0  0  0  0
   -3.5398    0.9026    0.0000 O   0  0  0  0  0  0  0  0  0  0  0  0
   -5.7535   -0.4574    0.0000 C   0  0  0  0  0  0  0  0  0  0  0  0
   -6.5387    0.8206    0.0000 S   0  0  0  0  0  0  0  0  0  0  0  0
   -8.0381    0.7796    0.0000 C   0  0  0  0  0  0  0  0  0  0  0  0
   -8.8234    2.0577    0.0000 C   0  0  0  0  0  0  0  0  0  0  0  0
  -10.3228    2.0167    0.0000 C   0  0  0  0  0  0  0  0  0  0  0  0
  -11.0370    0.6977    0.0000 O   0  0  0  0  0  0  0  0  0  0  0  0
  -11.1080    3.2948    0.0000 O   0  0  0  0  0  0  0  0  0  0  0  0
    0.3153   -2.8906    0.0000 C   0  0  0  0  0  0  0  0  0  0  0  0
    1.2298   -4.0796    0.0000 C   0  0  0  0  0  0  0  0  0  0  0  0
    2.6432   -3.5773    0.0000 C   0  0  0  0  0  0  0  0  0  0  0  0
    2.6022   -2.0778    0.0000 C   0  0  0  0  0  0  0  0  0  0  0  0
    3.6890   -1.0440    0.0000 C   0  0  0  0  0  0  0  0  0  0  0  0
    5.1278   -1.4684    0.0000 C   0  0  0  0  0  0  0  0  0  0  0  0
    5.4796   -2.9266    0.0000 O   0  0  0  0  0  0  0  0  0  0  0  0
    6.2146   -0.4346    0.0000 C   0  0  0  0  0  0  0  0  0  0  0  0
    5.8628    1.0235    0.0000 C   0  0  0  0  0  0  0  0  0  0  0  0
    6.9497    2.0573    0.0000 C   0  0  0  0  0  0  0  0  0  0  0  0
    6.5978    3.5154    0.0000 C   0  0  0  0  0  0  0  0  0  0  0  0
    7.6847    4.5492    0.0000 O   0  0  0  0  0  0  0  0  0  0  0  0
    5.1591    3.9398    0.0000 C   0  0  0  0  0  0  0  0  0  0  0  0
    4.0722    2.9060    0.0000 C   0  0  0  0  0  0  0  0  0  0  0  0
    4.4241    1.4479    0.0000 C   0  0  0  0  0  0  0  0  0  0  0  0
    2.9854    1.8723    0.0000 C   0  0  0  0  0  0  0  0  0  0  0  0
    3.3372    0.4141    0.0000 C   0  0  0  0  0  0  0  0  0  0  0  0
    1.8985    0.8385    0.0000 C   0  0  0  0  0  0  0  0  0  0  0  0
    0.8116   -0.1953    0.0000 C   0  0  0  0  0  0  0  0  0  0  0  0
    1.1635   -1.6534    0.0000 C   0  0  0  0  0  0  0  0  0  0  0  0
   -0.3117   -1.3818    0.0000 C   0  0  0  0  0  0  0  0  0  0  0  0
  2  1  1  6
  2  3  1  0
  3  4  1  0
  4  5  1  0
  5  6  2  0
  5  7  1  0
  7  8  1  0
  8  9  1  0
  9 10  1  0
 10 11  1  0
 11 12  2  0
 11 13  1  0
  2 14  1  0
 14 15  1  6
 15 16  1  0
 17 16  1  6
 17 18  1  0
 18 19  1  1
 19 20  1  6
 19 21  1  0
 22 21  1  1
 22 23  1  0
 23 24  1  0
 24 25  1  1
 24 26  1  0
 26 27  1  0
 27 28  1  0
 28 29  1  6
 28 30  1  0
 30 31  1  6
 31 32  1  0
 32 33  1  0
 33 34  1  6
 33 14  1  0
 33 17  1  0
 30 18  1  0
 28 22  1  0
M  END
>  <MS_ID>  (1136) 
MS1182

>  <SMILES>  (1136) 
C[C@H](CCC(=O)CSCCC(=O)O)[C@H]1CC[C@H]2[C@@H]3[C@@H](O)C[C@@H]4C[C@H](O)CC[C@]4(C)[C@H]3CC[C@]12C

>  <Structure_dimension>  (1136) 
2D

$$$$
MS1183
     RDKit          2D

 32 35  0  0  0  0  0  0  0  0999 V2000
   -4.4447   -3.0659    0.0000 C   0  0  0  0  0  0  0  0  0  0  0  0
   -3.4334   -1.9581    0.0000 C   0  0  0  0  0  0  0  0  0  0  0  0
   -3.8871   -0.5284    0.0000 C   0  0  0  0  0  0  0  0  0  0  0  0
   -5.3522   -0.2064    0.0000 C   0  0  0  0  0  0  0  0  0  0  0  0
   -5.8059    1.2233    0.0000 C   0  0  0  0  0  0  0  0  0  0  0  0
   -7.2710    1.5452    0.0000 O   0  0  0  0  0  0  0  0  0  0  0  0
   -4.7946    2.3311    0.0000 S   0  0  0  0  0  0  0  0  0  0  0  0
   -5.9024    3.3424    0.0000 O   0  0  0  0  0  0  0  0  0  0  0  0
   -3.6868    1.3198    0.0000 O   0  0  0  0  0  0  0  0  0  0  0  0
   -3.7833    3.4389    0.0000 O   0  0  0  0  0  0  0  0  0  0  0  0
   -1.9684   -2.2800    0.0000 C   0  0  0  0  0  0  0  0  0  0  0  0
   -1.3677   -3.6545    0.0000 C   0  0  0  0  0  0  0  0  0  0  0  0
    0.1251   -3.5079    0.0000 C   0  0  0  0  0  0  0  0  0  0  0  0
    0.4471   -2.0429    0.0000 C   0  0  0  0  0  0  0  0  0  0  0  0
    1.7512   -1.3018    0.0000 C   0  0  0  0  0  0  0  0  0  0  0  0
    3.0451   -2.0607    0.0000 C   0  0  0  0  0  0  0  0  0  0  0  0
    3.0348   -3.5607    0.0000 O   0  0  0  0  0  0  0  0  0  0  0  0
    4.3492   -1.3196    0.0000 C   0  0  0  0  0  0  0  0  0  0  0  0
    5.6431   -2.0785    0.0000 O   0  0  0  0  0  0  0  0  0  0  0  0
    4.3595    0.1803    0.0000 C   0  0  0  0  0  0  0  0  0  0  0  0
    5.6637    0.9214    0.0000 C   0  0  0  0  0  0  0  0  0  0  0  0
    5.6740    2.4214    0.0000 C   0  0  0  0  0  0  0  0  0  0  0  0
    6.9781    3.1624    0.0000 O   0  0  0  0  0  0  0  0  0  0  0  0
    4.3801    3.1803    0.0000 C   0  0  0  0  0  0  0  0  0  0  0  0
    3.0760    2.4392    0.0000 C   0  0  0  0  0  0  0  0  0  0  0  0
    3.0657    0.9392    0.0000 C   0  0  0  0  0  0  0  0  0  0  0  0
    1.7718    1.6981    0.0000 C   0  0  0  0  0  0  0  0  0  0  0  0
    1.7615    0.1981    0.0000 C   0  0  0  0  0  0  0  0  0  0  0  0
    0.4677    0.9570    0.0000 C   0  0  0  0  0  0  0  0  0  0  0  0
   -0.8365    0.2160    0.0000 C   0  0  0  0  0  0  0  0  0  0  0  0
   -0.8468   -1.2840    0.0000 C   0  0  0  0  0  0  0  0  0  0  0  0
   -2.2129   -0.6645    0.0000 C   0  0  0  0  0  0  0  0  0  0  0  0
  2  1  1  6
  2  3  1  0
  3  4  1  0
  4  5  1  0
  5  6  2  0
  5  7  1  0
  7  8  2  0
  7  9  2  0
  7 10  1  0
  2 11  1  0
 11 12  1  6
 12 13  1  0
 14 13  1  6
 14 15  1  0
 15 16  1  1
 16 17  1  1
 16 18  1  0
 18 19  1  1
 18 20  1  0
 20 21  1  1
 21 22  1  0
 22 23  1  1
 22 24  1  0
 24 25  1  0
 25 26  1  0
 26 27  1  6
 26 28  1  0
 28 29  1  6
 29 30  1  0
 30 31  1  0
 31 32  1  6
 31 11  1  0
 31 14  1  0
 28 15  1  0
 26 20  1  0
M  END
>  <MS_ID>  (1137) 
MS1183

>  <SMILES>  (1137) 
C[C@H](CCC(=O)S(=O)(=O)O)[C@H]1CC[C@H]2[C@@H]3[C@H](O)[C@H](O)[C@@H]4C[C@H](O)CC[C@]4(C)[C@H]3CC[C@]12C

>  <Structure_dimension>  (1137) 
2D

$$$$
MS1184
     RDKit          2D

 31 34  0  0  0  0  0  0  0  0999 V2000
   -4.3058   -2.9986    0.0000 C   0  0  0  0  0  0  0  0  0  0  0  0
   -3.2228   -1.9608    0.0000 C   0  0  0  0  0  0  0  0  0  0  0  0
   -3.5801   -0.5039    0.0000 C   0  0  0  0  0  0  0  0  0  0  0  0
   -5.0204   -0.0850    0.0000 C   0  0  0  0  0  0  0  0  0  0  0  0
   -5.3777    1.3719    0.0000 C   0  0  0  0  0  0  0  0  0  0  0  0
   -6.8180    1.7908    0.0000 O   0  0  0  0  0  0  0  0  0  0  0  0
   -4.2947    2.4097    0.0000 S   0  0  0  0  0  0  0  0  0  0  0  0
   -5.3326    3.4927    0.0000 O   0  0  0  0  0  0  0  0  0  0  0  0
   -3.2569    1.3267    0.0000 O   0  0  0  0  0  0  0  0  0  0  0  0
   -3.2117    3.4476    0.0000 O   0  0  0  0  0  0  0  0  0  0  0  0
   -1.7825   -2.3797    0.0000 C   0  0  0  0  0  0  0  0  0  0  0  0
   -1.2749   -3.7912    0.0000 C   0  0  0  0  0  0  0  0  0  0  0  0
    0.2244   -3.7446    0.0000 C   0  0  0  0  0  0  0  0  0  0  0  0
    0.6434   -2.3043    0.0000 C   0  0  0  0  0  0  0  0  0  0  0  0
    1.9941   -1.6519    0.0000 C   0  0  0  0  0  0  0  0  0  0  0  0
    3.2344   -2.4955    0.0000 C   0  0  0  0  0  0  0  0  0  0  0  0
    4.5851   -1.8431    0.0000 C   0  0  0  0  0  0  0  0  0  0  0  0
    4.6955   -0.3472    0.0000 C   0  0  0  0  0  0  0  0  0  0  0  0
    6.0462    0.3052    0.0000 C   0  0  0  0  0  0  0  0  0  0  0  0
    6.1565    1.8012    0.0000 C   0  0  0  0  0  0  0  0  0  0  0  0
    7.5072    2.4536    0.0000 O   0  0  0  0  0  0  0  0  0  0  0  0
    4.9162    2.6447    0.0000 C   0  0  0  0  0  0  0  0  0  0  0  0
    3.5655    1.9923    0.0000 C   0  0  0  0  0  0  0  0  0  0  0  0
    3.4551    0.4964    0.0000 C   0  0  0  0  0  0  0  0  0  0  0  0
    2.2148    1.3399    0.0000 C   0  0  0  0  0  0  0  0  0  0  0  0
    2.1044   -0.1560    0.0000 C   0  0  0  0  0  0  0  0  0  0  0  0
    0.8641    0.6875    0.0000 C   0  0  0  0  0  0  0  0  0  0  0  0
   -0.4866    0.0352    0.0000 C   0  0  0  0  0  0  0  0  0  0  0  0
   -1.7269    0.8787    0.0000 O   0  0  0  0  0  0  0  0  0  0  0  0
   -0.5969   -1.4608    0.0000 C   0  0  0  0  0  0  0  0  0  0  0  0
   -1.9187   -0.7515    0.0000 C   0  0  0  0  0  0  0  0  0  0  0  0
  2  1  1  6
  2  3  1  0
  3  4  1  0
  4  5  1  0
  5  6  2  0
  5  7  1  0
  7  8  2  0
  7  9  2  0
  7 10  1  0
  2 11  1  0
 11 12  1  6
 12 13  1  0
 14 13  1  6
 14 15  1  0
 15 16  1  1
 16 17  1  0
 18 17  1  1
 18 19  1  0
 19 20  1  0
 20 21  1  6
 20 22  1  0
 22 23  1  0
 23 24  1  0
 24 25  1  6
 24 26  1  0
 26 27  1  6
 27 28  1  0
 28 29  1  1
 28 30  1  0
 30 31  1  6
 30 11  1  0
 30 14  1  0
 26 15  1  0
 24 18  1  0
M  END
>  <MS_ID>  (1138) 
MS1184

>  <SMILES>  (1138) 
C[C@H](CCC(=O)S(=O)(=O)O)[C@H]1CC[C@H]2[C@@H]3CC[C@@H]4C[C@@H](O)CC[C@]4(C)[C@H]3C[C@H](O)[C@]12C

>  <Structure_dimension>  (1138) 
2D

$$$$
MS1185
     RDKit          2D

 35 38  0  0  0  0  0  0  0  0999 V2000
   -2.0409   -4.1488    0.0000 C   0  0  0  0  0  0  0  0  0  0  0  0
   -1.3361   -2.8247    0.0000 C   0  0  0  0  0  0  0  0  0  0  0  0
   -2.1304   -1.5523    0.0000 C   0  0  0  0  0  0  0  0  0  0  0  0
   -3.6295   -1.6039    0.0000 C   0  0  0  0  0  0  0  0  0  0  0  0
   -4.4237   -0.3314    0.0000 C   0  0  0  0  0  0  0  0  0  0  0  0
   -3.7189    0.9926    0.0000 O   0  0  0  0  0  0  0  0  0  0  0  0
   -5.9229   -0.3831    0.0000 N   0  0  0  0  0  0  0  0  0  0  0  0
   -6.7171    0.8894    0.0000 C   0  0  0  0  0  0  0  0  0  0  0  0
   -8.2162    0.8377    0.0000 C   0  0  0  0  0  0  0  0  0  0  0  0
   -9.0105    2.1102    0.0000 S   0  0  0  0  0  0  0  0  0  0  0  0
  -10.2830    1.3159    0.0000 O   0  0  0  0  0  0  0  0  0  0  0  0
   -7.7381    2.9044    0.0000 O   0  0  0  0  0  0  0  0  0  0  0  0
   -9.8048    3.3826    0.0000 O   0  0  0  0  0  0  0  0  0  0  0  0
    0.1630   -2.7731    0.0000 C   0  0  0  0  0  0  0  0  0  0  0  0
    1.0860   -3.9555    0.0000 C   0  0  0  0  0  0  0  0  0  0  0  0
    0.6718   -5.3972    0.0000 O   0  0  0  0  0  0  0  0  0  0  0  0
    2.4957   -3.4431    0.0000 C   0  0  0  0  0  0  0  0  0  0  0  0
    2.4441   -1.9440    0.0000 C   0  0  0  0  0  0  0  0  0  0  0  0
    3.5236   -0.9026    0.0000 C   0  0  0  0  0  0  0  0  0  0  0  0
    4.9653   -1.3167    0.0000 C   0  0  0  0  0  0  0  0  0  0  0  0
    5.3275   -2.7723    0.0000 O   0  0  0  0  0  0  0  0  0  0  0  0
    6.0448   -0.2752    0.0000 C   0  0  0  0  0  0  0  0  0  0  0  0
    5.6826    1.1804    0.0000 C   0  0  0  0  0  0  0  0  0  0  0  0
    6.7621    2.2219    0.0000 C   0  0  0  0  0  0  0  0  0  0  0  0
    6.3999    3.6775    0.0000 C   0  0  0  0  0  0  0  0  0  0  0  0
    7.4794    4.7190    0.0000 O   0  0  0  0  0  0  0  0  0  0  0  0
    4.9582    4.0916    0.0000 C   0  0  0  0  0  0  0  0  0  0  0  0
    3.8787    3.0502    0.0000 C   0  0  0  0  0  0  0  0  0  0  0  0
    4.2409    1.5945    0.0000 C   0  0  0  0  0  0  0  0  0  0  0  0
    2.7992    2.0087    0.0000 C   0  0  0  0  0  0  0  0  0  0  0  0
    3.1614    0.5531    0.0000 C   0  0  0  0  0  0  0  0  0  0  0  0
    1.7197    0.9672    0.0000 C   0  0  0  0  0  0  0  0  0  0  0  0
    0.6402   -0.0743    0.0000 C   0  0  0  0  0  0  0  0  0  0  0  0
    1.0024   -1.5299    0.0000 C   0  0  0  0  0  0  0  0  0  0  0  0
   -0.4747   -1.2687    0.0000 C   0  0  0  0  0  0  0  0  0  0  0  0
  2  1  1  6
  2  3  1  0
  3  4  1  0
  4  5  1  0
  5  6  2  0
  5  7  1  0
  7  8  1  0
  8  9  1  0
  9 10  1  0
 10 11  2  0
 10 12  2  0
 10 13  1  0
 14  2  1  6
 14 15  1  0
 15 16  1  1
 15 17  1  0
 18 17  1  6
 18 19  1  0
 19 20  1  1
 20 21  1  1
 20 22  1  0
 23 22  1  1
 23 24  1  0
 24 25  1  0
 25 26  1  1
 25 27  1  0
 27 28  1  0
 28 29  1  0
 29 30  1  6
 29 31  1  0
 31 32  1  6
 32 33  1  0
 33 34  1  0
 34 35  1  6
 34 14  1  0
 34 18  1  0
 31 19  1  0
 29 23  1  0
M  END
>  <MS_ID>  (1139) 
MS1185

>  <SMILES>  (1139) 
C[C@H](CCC(=O)NCCS(=O)(=O)O)[C@H]1[C@H](O)C[C@H]2[C@@H]3[C@H](O)C[C@@H]4C[C@H](O)CC[C@]4(C)[C@H]3CC[C@]12C

>  <Structure_dimension>  (1139) 
2D

$$$$
MS1186
     RDKit          2D

 32 35  0  0  0  0  0  0  0  0999 V2000
   -3.7700   -3.9011    0.0000 C   0  0  0  0  0  0  0  0  0  0  0  0
   -2.8799   -2.6938    0.0000 C   0  0  0  0  0  0  0  0  0  0  0  0
   -3.4804   -1.3192    0.0000 C   0  0  0  0  0  0  0  0  0  0  0  0
   -4.9710   -1.1520    0.0000 C   0  0  0  0  0  0  0  0  0  0  0  0
   -5.5715    0.2226    0.0000 C   0  0  0  0  0  0  0  0  0  0  0  0
   -7.0622    0.3898    0.0000 O   0  0  0  0  0  0  0  0  0  0  0  0
   -4.6813    1.4299    0.0000 S   0  0  0  0  0  0  0  0  0  0  0  0
   -5.2818    2.8044    0.0000 C   0  0  0  0  0  0  0  0  0  0  0  0
   -4.3917    4.0118    0.0000 C   0  0  0  0  0  0  0  0  0  0  0  0
   -2.9010    3.8445    0.0000 O   0  0  0  0  0  0  0  0  0  0  0  0
   -4.9922    5.3863    0.0000 O   0  0  0  0  0  0  0  0  0  0  0  0
   -1.3892   -2.8610    0.0000 C   0  0  0  0  0  0  0  0  0  0  0  0
   -0.6484   -4.1653    0.0000 C   0  0  0  0  0  0  0  0  0  0  0  0
    0.8210   -3.8637    0.0000 C   0  0  0  0  0  0  0  0  0  0  0  0
    0.9883   -2.3731    0.0000 C   0  0  0  0  0  0  0  0  0  0  0  0
    2.2079   -1.4999    0.0000 C   0  0  0  0  0  0  0  0  0  0  0  0
    3.5739   -2.1196    0.0000 C   0  0  0  0  0  0  0  0  0  0  0  0
    3.7203   -3.6125    0.0000 O   0  0  0  0  0  0  0  0  0  0  0  0
    4.7936   -1.2465    0.0000 C   0  0  0  0  0  0  0  0  0  0  0  0
    4.6473    0.2464    0.0000 C   0  0  0  0  0  0  0  0  0  0  0  0
    5.8670    1.1195    0.0000 C   0  0  0  0  0  0  0  0  0  0  0  0
    5.7206    2.6124    0.0000 C   0  0  0  0  0  0  0  0  0  0  0  0
    6.9403    3.4855    0.0000 O   0  0  0  0  0  0  0  0  0  0  0  0
    4.3546    3.2321    0.0000 C   0  0  0  0  0  0  0  0  0  0  0  0
    3.1349    2.3589    0.0000 C   0  0  0  0  0  0  0  0  0  0  0  0
    3.2813    0.8661    0.0000 C   0  0  0  0  0  0  0  0  0  0  0  0
    1.9153    1.4858    0.0000 C   0  0  0  0  0  0  0  0  0  0  0  0
    2.0616   -0.0071    0.0000 C   0  0  0  0  0  0  0  0  0  0  0  0
    0.6956    0.6126    0.0000 C   0  0  0  0  0  0  0  0  0  0  0  0
   -0.5241   -0.2605    0.0000 C   0  0  0  0  0  0  0  0  0  0  0  0
   -0.3778   -1.7534    0.0000 C   0  0  0  0  0  0  0  0  0  0  0  0
   -1.8011   -1.2799    0.0000 C   0  0  0  0  0  0  0  0  0  0  0  0
  2  1  1  6
  2  3  1  0
  3  4  1  0
  4  5  1  0
  5  6  2  0
  5  7  1  0
  7  8  1  0
  8  9  1  0
  9 10  2  0
  9 11  1  0
  2 12  1  0
 12 13  1  6
 13 14  1  0
 15 14  1  6
 15 16  1  0
 16 17  1  1
 17 18  1  1
 17 19  1  0
 20 19  1  1
 20 21  1  0
 21 22  1  0
 22 23  1  1
 22 24  1  0
 24 25  1  0
 25 26  1  0
 26 27  1  6
 26 28  1  0
 28 29  1  6
 29 30  1  0
 30 31  1  0
 31 32  1  6
 31 12  1  0
 31 15  1  0
 28 16  1  0
 26 20  1  0
M  END
>  <MS_ID>  (1140) 
MS1186

>  <SMILES>  (1140) 
C[C@H](CCC(=O)SCC(=O)O)[C@H]1CC[C@H]2[C@@H]3[C@H](O)C[C@@H]4C[C@H](O)CC[C@]4(C)[C@H]3CC[C@]12C

>  <Structure_dimension>  (1140) 
2D

$$$$
MS1187
     RDKit          2D

 35 38  0  0  0  0  0  0  0  0999 V2000
   -3.0648   -3.1071    0.0000 C   0  0  0  0  0  0  0  0  0  0  0  0
   -2.0572   -1.9959    0.0000 C   0  0  0  0  0  0  0  0  0  0  0  0
   -2.5157   -0.5677    0.0000 C   0  0  0  0  0  0  0  0  0  0  0  0
   -3.9819   -0.2508    0.0000 C   0  0  0  0  0  0  0  0  0  0  0  0
   -4.4404    1.1774    0.0000 C   0  0  0  0  0  0  0  0  0  0  0  0
   -3.4329    2.2886    0.0000 O   0  0  0  0  0  0  0  0  0  0  0  0
   -5.9066    1.4944    0.0000 C   0  0  0  0  0  0  0  0  0  0  0  0
   -5.5896    2.9605    0.0000 C   0  0  0  0  0  0  0  0  0  0  0  0
   -6.2235    0.0283    0.0000 C   0  0  0  0  0  0  0  0  0  0  0  0
   -7.3727    1.8114    0.0000 C   0  0  0  0  0  0  0  0  0  0  0  0
   -8.3803    0.7001    0.0000 C   0  0  0  0  0  0  0  0  0  0  0  0
   -7.9217   -0.7281    0.0000 O   0  0  0  0  0  0  0  0  0  0  0  0
   -9.8464    1.0171    0.0000 O   0  0  0  0  0  0  0  0  0  0  0  0
   -0.5911   -2.3129    0.0000 C   0  0  0  0  0  0  0  0  0  0  0  0
    0.0143   -3.6853    0.0000 C   0  0  0  0  0  0  0  0  0  0  0  0
    1.5066   -3.5337    0.0000 C   0  0  0  0  0  0  0  0  0  0  0  0
    1.8236   -2.0676    0.0000 C   0  0  0  0  0  0  0  0  0  0  0  0
    3.1252   -1.3221    0.0000 C   0  0  0  0  0  0  0  0  0  0  0  0
    4.4216   -2.0766    0.0000 C   0  0  0  0  0  0  0  0  0  0  0  0
    4.4164   -3.5766    0.0000 O   0  0  0  0  0  0  0  0  0  0  0  0
    5.7233   -1.3312    0.0000 C   0  0  0  0  0  0  0  0  0  0  0  0
    5.7285    0.1688    0.0000 C   0  0  0  0  0  0  0  0  0  0  0  0
    7.0301    0.9143    0.0000 C   0  0  0  0  0  0  0  0  0  0  0  0
    7.0353    2.4143    0.0000 C   0  0  0  0  0  0  0  0  0  0  0  0
    8.3370    3.1598    0.0000 O   0  0  0  0  0  0  0  0  0  0  0  0
    5.7389    3.1688    0.0000 C   0  0  0  0  0  0  0  0  0  0  0  0
    4.4373    2.4233    0.0000 C   0  0  0  0  0  0  0  0  0  0  0  0
    4.4321    0.9233    0.0000 C   0  0  0  0  0  0  0  0  0  0  0  0
    3.1356    1.6779    0.0000 C   0  0  0  0  0  0  0  0  0  0  0  0
    3.1304    0.1779    0.0000 C   0  0  0  0  0  0  0  0  0  0  0  0
    1.8340    0.9324    0.0000 C   0  0  0  0  0  0  0  0  0  0  0  0
    0.5324    0.1869    0.0000 C   0  0  0  0  0  0  0  0  0  0  0  0
   -0.7641    0.9414    0.0000 O   0  0  0  0  0  0  0  0  0  0  0  0
    0.5271   -1.3131    0.0000 C   0  0  0  0  0  0  0  0  0  0  0  0
   -0.8410   -0.6982    0.0000 C   0  0  0  0  0  0  0  0  0  0  0  0
  2  1  1  6
  2  3  1  0
  3  4  1  0
  4  5  1  0
  5  6  2  0
  5  7  1  0
  7  8  1  0
  7  9  1  0
  7 10  1  0
 10 11  1  0
 11 12  2  0
 11 13  1  0
  2 14  1  0
 14 15  1  6
 15 16  1  0
 17 16  1  6
 17 18  1  0
 18 19  1  1
 19 20  1  1
 19 21  1  0
 22 21  1  1
 22 23  1  0
 23 24  1  0
 24 25  1  1
 24 26  1  0
 26 27  1  0
 27 28  1  0
 28 29  1  6
 28 30  1  0
 30 31  1  6
 31 32  1  0
 32 33  1  1
 32 34  1  0
 34 35  1  6
 34 14  1  0
 34 17  1  0
 30 18  1  0
 28 22  1  0
M  END
>  <MS_ID>  (1141) 
MS1187

>  <SMILES>  (1141) 
C[C@H](CCC(=O)C(C)(C)CC(=O)O)[C@H]1CC[C@H]2[C@@H]3[C@H](O)C[C@@H]4C[C@H](O)CC[C@]4(C)[C@H]3C[C@H](O)[C@]12C

>  <Structure_dimension>  (1141) 
2D

$$$$
MS1188
     RDKit          2D

 30 33  0  0  0  0  0  0  0  0999 V2000
   -4.0199   -3.1584    0.0000 C   0  0  0  0  0  0  0  0  0  0  0  0
   -2.9902   -2.0677    0.0000 C   0  0  0  0  0  0  0  0  0  0  0  0
   -3.4199   -0.6306    0.0000 C   0  0  0  0  0  0  0  0  0  0  0  0
   -4.8793   -0.2841    0.0000 C   0  0  0  0  0  0  0  0  0  0  0  0
   -5.3090    1.1530    0.0000 C   0  0  0  0  0  0  0  0  0  0  0  0
   -4.2792    2.2437    0.0000 O   0  0  0  0  0  0  0  0  0  0  0  0
   -6.7684    1.4995    0.0000 O   0  0  0  0  0  0  0  0  0  0  0  0
   -7.1981    2.9366    0.0000 C   0  0  0  0  0  0  0  0  0  0  0  0
   -8.6575    3.2831    0.0000 O   0  0  0  0  0  0  0  0  0  0  0  0
   -1.5307   -2.4142    0.0000 C   0  0  0  0  0  0  0  0  0  0  0  0
   -0.9532   -3.7985    0.0000 C   0  0  0  0  0  0  0  0  0  0  0  0
    0.5419   -3.6770    0.0000 C   0  0  0  0  0  0  0  0  0  0  0  0
    0.8883   -2.2176    0.0000 C   0  0  0  0  0  0  0  0  0  0  0  0
    2.2047   -1.4985    0.0000 C   0  0  0  0  0  0  0  0  0  0  0  0
    3.4857   -2.2790    0.0000 C   0  0  0  0  0  0  0  0  0  0  0  0
    4.8021   -1.5599    0.0000 C   0  0  0  0  0  0  0  0  0  0  0  0
    4.8375   -0.0603    0.0000 C   0  0  0  0  0  0  0  0  0  0  0  0
    6.1539    0.6588    0.0000 C   0  0  0  0  0  0  0  0  0  0  0  0
    6.1894    2.1583    0.0000 C   0  0  0  0  0  0  0  0  0  0  0  0
    7.5058    2.8774    0.0000 O   0  0  0  0  0  0  0  0  0  0  0  0
    4.9084    2.9388    0.0000 C   0  0  0  0  0  0  0  0  0  0  0  0
    3.5920    2.2197    0.0000 C   0  0  0  0  0  0  0  0  0  0  0  0
    3.5566    0.7202    0.0000 C   0  0  0  0  0  0  0  0  0  0  0  0
    2.2756    1.5007    0.0000 C   0  0  0  0  0  0  0  0  0  0  0  0
    2.2402    0.0011    0.0000 C   0  0  0  0  0  0  0  0  0  0  0  0
    0.9592    0.7816    0.0000 C   0  0  0  0  0  0  0  0  0  0  0  0
   -0.3572    0.0625    0.0000 C   0  0  0  0  0  0  0  0  0  0  0  0
   -1.6381    0.8430    0.0000 O   0  0  0  0  0  0  0  0  0  0  0  0
   -0.3926   -1.4371    0.0000 C   0  0  0  0  0  0  0  0  0  0  0  0
   -1.7481   -0.7948    0.0000 C   0  0  0  0  0  0  0  0  0  0  0  0
  2  1  1  6
  2  3  1  0
  3  4  1  0
  4  5  1  0
  5  6  2  0
  5  7  1  0
  7  8  1  0
  8  9  1  0
  2 10  1  0
 10 11  1  6
 11 12  1  0
 13 12  1  6
 13 14  1  0
 14 15  1  1
 15 16  1  0
 17 16  1  1
 17 18  1  0
 18 19  1  0
 19 20  1  6
 19 21  1  0
 21 22  1  0
 22 23  1  0
 23 24  1  6
 23 25  1  0
 25 26  1  6
 26 27  1  0
 27 28  1  6
 27 29  1  0
 29 30  1  6
 29 10  1  0
 29 13  1  0
 25 14  1  0
 23 17  1  0
M  END
>  <MS_ID>  (1142) 
MS1188

>  <SMILES>  (1142) 
C[C@H](CCC(=O)OCO)[C@H]1CC[C@H]2[C@@H]3CC[C@@H]4C[C@@H](O)CC[C@]4(C)[C@H]3C[C@@H](O)[C@]12C

>  <Structure_dimension>  (1142) 
2D

$$$$
MS1189
     RDKit          2D

 37 41  0  0  0  0  0  0  0  0999 V2000
   -0.5062   -4.7663    0.0000 C   0  0  0  0  0  0  0  0  0  0  0  0
    0.0323   -3.3663    0.0000 C   0  0  0  0  0  0  0  0  0  0  0  0
   -0.9109   -2.1999    0.0000 C   0  0  0  0  0  0  0  0  0  0  0  0
   -2.3926   -2.4336    0.0000 C   0  0  0  0  0  0  0  0  0  0  0  0
   -3.3358   -1.2672    0.0000 C   0  0  0  0  0  0  0  0  0  0  0  0
   -2.7973    0.1328    0.0000 O   0  0  0  0  0  0  0  0  0  0  0  0
   -4.8175   -1.5009    0.0000 N   0  0  0  0  0  0  0  0  0  0  0  0
   -5.7607   -0.3345    0.0000 C   0  0  0  0  0  0  0  0  0  0  0  0
   -7.2423   -0.5681    0.0000 C   0  0  0  0  0  0  0  0  0  0  0  0
   -8.1855    0.5982    0.0000 C   0  0  0  0  0  0  0  0  0  0  0  0
   -7.6470    1.9982    0.0000 C   0  0  0  0  0  0  0  0  0  0  0  0
   -8.5902    3.1646    0.0000 C   0  0  0  0  0  0  0  0  0  0  0  0
  -10.0719    2.9309    0.0000 C   0  0  0  0  0  0  0  0  0  0  0  0
  -10.6104    1.5309    0.0000 C   0  0  0  0  0  0  0  0  0  0  0  0
  -12.0921    1.2973    0.0000 O   0  0  0  0  0  0  0  0  0  0  0  0
   -9.6672    0.3646    0.0000 C   0  0  0  0  0  0  0  0  0  0  0  0
    1.5140   -3.1327    0.0000 C   0  0  0  0  0  0  0  0  0  0  0  0
    2.5739   -4.1940    0.0000 C   0  0  0  0  0  0  0  0  0  0  0  0
    3.9109   -3.5140    0.0000 C   0  0  0  0  0  0  0  0  0  0  0  0
    3.6772   -2.0323    0.0000 C   0  0  0  0  0  0  0  0  0  0  0  0
    4.6220   -0.8672    0.0000 C   0  0  0  0  0  0  0  0  0  0  0  0
    6.1034   -1.1028    0.0000 C   0  0  0  0  0  0  0  0  0  0  0  0
    6.6400   -2.5036    0.0000 O   0  0  0  0  0  0  0  0  0  0  0  0
    7.0482    0.0622    0.0000 C   0  0  0  0  0  0  0  0  0  0  0  0
    6.5116    1.4630    0.0000 C   0  0  0  0  0  0  0  0  0  0  0  0
    7.4563    2.6280    0.0000 C   0  0  0  0  0  0  0  0  0  0  0  0
    6.9197    4.0288    0.0000 C   0  0  0  0  0  0  0  0  0  0  0  0
    7.8645    5.1939    0.0000 O   0  0  0  0  0  0  0  0  0  0  0  0
    5.4384    4.2644    0.0000 C   0  0  0  0  0  0  0  0  0  0  0  0
    4.4936    3.0994    0.0000 C   0  0  0  0  0  0  0  0  0  0  0  0
    5.0302    1.6986    0.0000 C   0  0  0  0  0  0  0  0  0  0  0  0
    3.5488    1.9343    0.0000 C   0  0  0  0  0  0  0  0  0  0  0  0
    4.0854    0.5335    0.0000 C   0  0  0  0  0  0  0  0  0  0  0  0
    2.6041    0.7692    0.0000 C   0  0  0  0  0  0  0  0  0  0  0  0
    1.6593   -0.3959    0.0000 C   0  0  0  0  0  0  0  0  0  0  0  0
    2.1959   -1.7966    0.0000 C   0  0  0  0  0  0  0  0  0  0  0  0
    0.6980   -1.7171    0.0000 C   0  0  0  0  0  0  0  0  0  0  0  0
  2  1  1  6
  2  3  1  0
  3  4  1  0
  4  5  1  0
  5  6  2  0
  5  7  1  0
  7  8  1  0
  8  9  1  0
  9 10  1  0
 10 11  2  0
 11 12  1  0
 12 13  2  0
 13 14  1  0
 14 15  1  0
 14 16  2  0
  2 17  1  0
 17 18  1  6
 18 19  1  0
 20 19  1  6
 20 21  1  0
 21 22  1  1
 22 23  1  1
 22 24  1  0
 25 24  1  1
 25 26  1  0
 26 27  1  0
 27 28  1  1
 27 29  1  0
 29 30  1  0
 30 31  1  0
 31 32  1  6
 31 33  1  0
 33 34  1  6
 34 35  1  0
 35 36  1  0
 36 37  1  6
 16 10  1  0
 36 17  1  0
 36 20  1  0
 33 21  1  0
 31 25  1  0
M  END
>  <MS_ID>  (1143) 
MS1189

>  <SMILES>  (1143) 
C[C@H](CCC(=O)NCCc1cccc(O)c1)[C@H]1CC[C@H]2[C@@H]3[C@H](O)C[C@@H]4C[C@H](O)CC[C@]4(C)[C@H]3CC[C@]12C

>  <Structure_dimension>  (1143) 
2D

$$$$
MS1190
     RDKit          2D

 28 31  0  0  0  0  0  0  0  0999 V2000
   -5.1275   -2.0302    0.0000 C   0  0  0  0  0  0  0  0  0  0  0  0
   -3.9468   -1.1050    0.0000 C   0  0  0  0  0  0  0  0  0  0  0  0
   -4.1576    0.3801    0.0000 C   0  0  0  0  0  0  0  0  0  0  0  0
   -5.5492    0.9401    0.0000 C   0  0  0  0  0  0  0  0  0  0  0  0
   -5.7600    2.4252    0.0000 C   0  0  0  0  0  0  0  0  0  0  0  0
   -4.5793    3.3503    0.0000 O   0  0  0  0  0  0  0  0  0  0  0  0
   -7.1516    2.9851    0.0000 O   0  0  0  0  0  0  0  0  0  0  0  0
   -2.5552   -1.6650    0.0000 C   0  0  0  0  0  0  0  0  0  0  0  0
   -2.1903   -3.1199    0.0000 C   0  0  0  0  0  0  0  0  0  0  0  0
   -0.6938   -3.2225    0.0000 C   0  0  0  0  0  0  0  0  0  0  0  0
   -0.1339   -1.8309    0.0000 C   0  0  0  0  0  0  0  0  0  0  0  0
    1.2750   -1.3159    0.0000 C   0  0  0  0  0  0  0  0  0  0  0  0
    2.4254   -2.2785    0.0000 C   0  0  0  0  0  0  0  0  0  0  0  0
    2.1670   -3.7560    0.0000 O   0  0  0  0  0  0  0  0  0  0  0  0
    3.8342   -1.7635    0.0000 C   0  0  0  0  0  0  0  0  0  0  0  0
    4.0926   -0.2859    0.0000 C   0  0  0  0  0  0  0  0  0  0  0  0
    5.5014    0.2291    0.0000 C   0  0  0  0  0  0  0  0  0  0  0  0
    5.7598    1.7067    0.0000 C   0  0  0  0  0  0  0  0  0  0  0  0
    7.1687    2.2217    0.0000 O   0  0  0  0  0  0  0  0  0  0  0  0
    4.6094    2.6692    0.0000 C   0  0  0  0  0  0  0  0  0  0  0  0
    3.2006    2.1542    0.0000 C   0  0  0  0  0  0  0  0  0  0  0  0
    2.9422    0.6767    0.0000 C   0  0  0  0  0  0  0  0  0  0  0  0
    1.7918    1.6392    0.0000 C   0  0  0  0  0  0  0  0  0  0  0  0
    1.5334    0.1617    0.0000 C   0  0  0  0  0  0  0  0  0  0  0  0
    0.3830    1.1242    0.0000 C   0  0  0  0  0  0  0  0  0  0  0  0
   -1.0259    0.6093    0.0000 C   0  0  0  0  0  0  0  0  0  0  0  0
   -1.2843   -0.8683    0.0000 C   0  0  0  0  0  0  0  0  0  0  0  0
   -2.5290   -0.0313    0.0000 C   0  0  0  0  0  0  0  0  0  0  0  0
  2  1  1  6
  2  3  1  0
  3  4  1  0
  4  5  1  0
  5  6  2  0
  5  7  1  0
  2  8  1  0
  8  9  1  6
  9 10  1  0
 11 10  1  6
 11 12  1  0
 12 13  1  1
 13 14  1  1
 13 15  1  0
 16 15  1  1
 16 17  1  0
 17 18  1  0
 18 19  1  1
 18 20  1  0
 20 21  1  0
 21 22  1  0
 22 23  1  6
 22 24  1  0
 24 25  1  1
 25 26  1  0
 26 27  1  0
 27 28  1  6
 27  8  1  0
 27 11  1  0
 24 12  1  0
 22 16  1  0
M  END
>  <MS_ID>  (1144) 
MS1190

>  <SMILES>  (1144) 
C[C@H](CCC(=O)O)[C@H]1CC[C@H]2[C@@H]3[C@H](O)C[C@@H]4C[C@H](O)CC[C@]4(C)[C@@H]3CC[C@]12C

>  <Structure_dimension>  (1144) 
2D

$$$$
MS1191
     RDKit          2D

 34 37  0  0  0  0  0  0  0  0999 V2000
  -10.9521    0.2483    0.0000 C   0  0  0  0  0  0  0  0  0  0  0  0
   -9.4944   -0.1054    0.0000 C   0  0  0  0  0  0  0  0  0  0  0  0
   -8.4593    0.9802    0.0000 C   0  0  0  0  0  0  0  0  0  0  0  0
   -7.0016    0.6265    0.0000 C   0  0  0  0  0  0  0  0  0  0  0  0
   -5.9664    1.7121    0.0000 N   0  0  0  0  0  0  0  0  0  0  0  0
   -6.3890    3.1513    0.0000 C   0  0  0  0  0  0  0  0  0  0  0  0
   -4.5087    1.3584    0.0000 C   0  0  0  0  0  0  0  0  0  0  0  0
   -3.4736    2.4439    0.0000 O   0  0  0  0  0  0  0  0  0  0  0  0
   -4.0862   -0.0809    0.0000 C   0  0  0  0  0  0  0  0  0  0  0  0
   -2.6285   -0.4346    0.0000 C   0  0  0  0  0  0  0  0  0  0  0  0
   -2.2059   -1.8738    0.0000 C   0  0  0  0  0  0  0  0  0  0  0  0
   -3.2411   -2.9594    0.0000 C   0  0  0  0  0  0  0  0  0  0  0  0
   -0.7482   -2.2275    0.0000 C   0  0  0  0  0  0  0  0  0  0  0  0
   -0.1775   -3.6147    0.0000 C   0  0  0  0  0  0  0  0  0  0  0  0
    1.3181   -3.5006    0.0000 C   0  0  0  0  0  0  0  0  0  0  0  0
    1.6718   -2.0429    0.0000 C   0  0  0  0  0  0  0  0  0  0  0  0
    2.9918   -1.3304    0.0000 C   0  0  0  0  0  0  0  0  0  0  0  0
    4.2688   -2.1172    0.0000 C   0  0  0  0  0  0  0  0  0  0  0  0
    4.2260   -3.6166    0.0000 O   0  0  0  0  0  0  0  0  0  0  0  0
    5.5888   -1.4046    0.0000 C   0  0  0  0  0  0  0  0  0  0  0  0
    5.6317    0.0948    0.0000 C   0  0  0  0  0  0  0  0  0  0  0  0
    6.9516    0.8073    0.0000 C   0  0  0  0  0  0  0  0  0  0  0  0
    6.9945    2.3067    0.0000 C   0  0  0  0  0  0  0  0  0  0  0  0
    8.3145    3.0193    0.0000 O   0  0  0  0  0  0  0  0  0  0  0  0
    5.7174    3.0935    0.0000 C   0  0  0  0  0  0  0  0  0  0  0  0
    4.3975    2.3810    0.0000 C   0  0  0  0  0  0  0  0  0  0  0  0
    4.3546    0.8816    0.0000 C   0  0  0  0  0  0  0  0  0  0  0  0
    3.0775    1.6684    0.0000 C   0  0  0  0  0  0  0  0  0  0  0  0
    3.0347    0.1690    0.0000 C   0  0  0  0  0  0  0  0  0  0  0  0
    1.7576    0.9559    0.0000 C   0  0  0  0  0  0  0  0  0  0  0  0
    0.4376    0.2433    0.0000 C   0  0  0  0  0  0  0  0  0  0  0  0
   -0.8394    1.0301    0.0000 O   0  0  0  0  0  0  0  0  0  0  0  0
    0.3948   -1.2561    0.0000 C   0  0  0  0  0  0  0  0  0  0  0  0
   -0.9576   -0.6070    0.0000 C   0  0  0  0  0  0  0  0  0  0  0  0
  1  2  1  0
  2  3  1  0
  3  4  1  0
  4  5  1  0
  5  6  1  0
  5  7  1  0
  7  8  2  0
  7  9  1  0
  9 10  1  0
 10 11  1  0
 11 12  1  6
 11 13  1  0
 13 14  1  6
 14 15  1  0
 16 15  1  6
 16 17  1  0
 17 18  1  1
 18 19  1  1
 18 20  1  0
 21 20  1  1
 21 22  1  0
 22 23  1  0
 23 24  1  1
 23 25  1  0
 25 26  1  0
 26 27  1  0
 27 28  1  6
 27 29  1  0
 29 30  1  6
 30 31  1  0
 31 32  1  1
 31 33  1  0
 33 34  1  6
 33 13  1  0
 33 16  1  0
 29 17  1  0
 27 21  1  0
M  END
>  <MS_ID>  (1145) 
MS1191

>  <SMILES>  (1145) 
CCCCN(C)C(=O)CC[C@@H](C)[C@H]1CC[C@H]2[C@@H]3[C@H](O)C[C@@H]4C[C@H](O)CC[C@]4(C)[C@H]3C[C@H](O)[C@]12C

>  <Structure_dimension>  (1145) 
2D

$$$$
MS1192
     RDKit          2D

 33 36  0  0  0  0  0  0  0  0999 V2000
   -3.6067   -3.7883    0.0000 C   0  0  0  0  0  0  0  0  0  0  0  0
   -2.7102   -2.5857    0.0000 C   0  0  0  0  0  0  0  0  0  0  0  0
   -3.3034   -1.2080    0.0000 C   0  0  0  0  0  0  0  0  0  0  0  0
   -4.7932   -1.0329    0.0000 C   0  0  0  0  0  0  0  0  0  0  0  0
   -5.3864    0.3448    0.0000 C   0  0  0  0  0  0  0  0  0  0  0  0
   -6.8761    0.5199    0.0000 O   0  0  0  0  0  0  0  0  0  0  0  0
   -4.4899    1.5474    0.0000 O   0  0  0  0  0  0  0  0  0  0  0  0
   -5.0831    2.9251    0.0000 C   0  0  0  0  0  0  0  0  0  0  0  0
   -5.6763    4.3028    0.0000 F   0  0  0  0  0  0  0  0  0  0  0  0
   -3.7054    3.5183    0.0000 F   0  0  0  0  0  0  0  0  0  0  0  0
   -6.4608    2.3319    0.0000 F   0  0  0  0  0  0  0  0  0  0  0  0
   -1.2204   -2.7608    0.0000 C   0  0  0  0  0  0  0  0  0  0  0  0
   -0.4864   -4.0690    0.0000 C   0  0  0  0  0  0  0  0  0  0  0  0
    0.9845   -3.7752    0.0000 C   0  0  0  0  0  0  0  0  0  0  0  0
    1.1596   -2.2854    0.0000 C   0  0  0  0  0  0  0  0  0  0  0  0
    2.3839   -1.4187    0.0000 C   0  0  0  0  0  0  0  0  0  0  0  0
    3.7466   -2.0456    0.0000 C   0  0  0  0  0  0  0  0  0  0  0  0
    3.8850   -3.5392    0.0000 O   0  0  0  0  0  0  0  0  0  0  0  0
    4.9708   -1.1789    0.0000 C   0  0  0  0  0  0  0  0  0  0  0  0
    4.8324    0.3147    0.0000 C   0  0  0  0  0  0  0  0  0  0  0  0
    6.0566    1.1814    0.0000 C   0  0  0  0  0  0  0  0  0  0  0  0
    5.9182    2.6750    0.0000 C   0  0  0  0  0  0  0  0  0  0  0  0
    7.1424    3.5417    0.0000 O   0  0  0  0  0  0  0  0  0  0  0  0
    4.5555    3.3019    0.0000 C   0  0  0  0  0  0  0  0  0  0  0  0
    3.3312    2.4352    0.0000 C   0  0  0  0  0  0  0  0  0  0  0  0
    3.4697    0.9416    0.0000 C   0  0  0  0  0  0  0  0  0  0  0  0
    2.1069    1.5685    0.0000 C   0  0  0  0  0  0  0  0  0  0  0  0
    2.2454    0.0749    0.0000 C   0  0  0  0  0  0  0  0  0  0  0  0
    0.8827    0.7018    0.0000 C   0  0  0  0  0  0  0  0  0  0  0  0
   -0.3416   -0.1649    0.0000 C   0  0  0  0  0  0  0  0  0  0  0  0
   -1.7043    0.4620    0.0000 O   0  0  0  0  0  0  0  0  0  0  0  0
   -0.2031   -1.6585    0.0000 C   0  0  0  0  0  0  0  0  0  0  0  0
   -1.6239   -1.1775    0.0000 C   0  0  0  0  0  0  0  0  0  0  0  0
  2  1  1  6
  2  3  1  0
  3  4  1  0
  4  5  1  0
  5  6  2  0
  5  7  1  0
  7  8  1  0
  8  9  1  0
  8 10  1  0
  8 11  1  0
  2 12  1  0
 12 13  1  6
 13 14  1  0
 15 14  1  6
 15 16  1  0
 16 17  1  1
 17 18  1  1
 17 19  1  0
 20 19  1  1
 20 21  1  0
 21 22  1  0
 22 23  1  1
 22 24  1  0
 24 25  1  0
 25 26  1  0
 26 27  1  6
 26 28  1  0
 28 29  1  6
 29 30  1  0
 30 31  1  1
 30 32  1  0
 32 33  1  6
 32 12  1  0
 32 15  1  0
 28 16  1  0
 26 20  1  0
M  END
>  <MS_ID>  (1146) 
MS1192

>  <SMILES>  (1146) 
C[C@H](CCC(=O)OC(F)(F)F)[C@H]1CC[C@H]2[C@@H]3[C@H](O)C[C@@H]4C[C@H](O)CC[C@]4(C)[C@H]3C[C@H](O)[C@]12C

>  <Structure_dimension>  (1146) 
2D

$$$$
MS1193
     RDKit          2D

 29 32  0  0  0  0  0  0  0  0999 V2000
   -5.0303   -2.1373    0.0000 C   0  0  0  0  0  0  0  0  0  0  0  0
   -3.8594   -1.1998    0.0000 C   0  0  0  0  0  0  0  0  0  0  0  0
   -4.0858    0.2830    0.0000 C   0  0  0  0  0  0  0  0  0  0  0  0
   -5.4831    0.8284    0.0000 C   0  0  0  0  0  0  0  0  0  0  0  0
   -5.7095    2.3112    0.0000 C   0  0  0  0  0  0  0  0  0  0  0  0
   -4.5386    3.2487    0.0000 O   0  0  0  0  0  0  0  0  0  0  0  0
   -7.1069    2.8565    0.0000 O   0  0  0  0  0  0  0  0  0  0  0  0
   -2.4620   -1.7451    0.0000 C   0  0  0  0  0  0  0  0  0  0  0  0
   -2.0818   -3.1961    0.0000 C   0  0  0  0  0  0  0  0  0  0  0  0
   -0.5844   -3.2830    0.0000 C   0  0  0  0  0  0  0  0  0  0  0  0
   -0.0390   -1.8856    0.0000 C   0  0  0  0  0  0  0  0  0  0  0  0
    1.3643   -1.3559    0.0000 C   0  0  0  0  0  0  0  0  0  0  0  0
    2.5248   -2.3063    0.0000 C   0  0  0  0  0  0  0  0  0  0  0  0
    2.2819   -3.7865    0.0000 O   0  0  0  0  0  0  0  0  0  0  0  0
    3.9281   -1.7765    0.0000 C   0  0  0  0  0  0  0  0  0  0  0  0
    4.1710   -0.2963    0.0000 C   0  0  0  0  0  0  0  0  0  0  0  0
    5.5743    0.2334    0.0000 C   0  0  0  0  0  0  0  0  0  0  0  0
    5.8172    1.7136    0.0000 C   0  0  0  0  0  0  0  0  0  0  0  0
    7.2205    2.2434    0.0000 N   0  0  0  0  0  0  0  0  0  0  0  0
    4.6568    2.6641    0.0000 C   0  0  0  0  0  0  0  0  0  0  0  0
    3.2534    2.1343    0.0000 C   0  0  0  0  0  0  0  0  0  0  0  0
    3.0105    0.6541    0.0000 C   0  0  0  0  0  0  0  0  0  0  0  0
    1.8501    1.6046    0.0000 C   0  0  0  0  0  0  0  0  0  0  0  0
    1.6072    0.1244    0.0000 C   0  0  0  0  0  0  0  0  0  0  0  0
    0.4467    1.0748    0.0000 C   0  0  0  0  0  0  0  0  0  0  0  0
   -0.9566    0.5450    0.0000 C   0  0  0  0  0  0  0  0  0  0  0  0
   -2.1170    1.4955    0.0000 O   0  0  0  0  0  0  0  0  0  0  0  0
   -1.1995   -0.9352    0.0000 C   0  0  0  0  0  0  0  0  0  0  0  0
   -2.4529   -0.1112    0.0000 C   0  0  0  0  0  0  0  0  0  0  0  0
  2  1  1  6
  2  3  1  0
  3  4  1  0
  4  5  1  0
  5  6  2  0
  5  7  1  0
  2  8  1  0
  8  9  1  6
  9 10  1  0
 11 10  1  6
 11 12  1  0
 12 13  1  1
 13 14  1  6
 13 15  1  0
 16 15  1  1
 16 17  1  0
 17 18  1  0
 18 19  1  6
 18 20  1  0
 20 21  1  0
 21 22  1  0
 22 23  1  6
 22 24  1  0
 24 25  1  6
 25 26  1  0
 26 27  1  1
 26 28  1  0
 28 29  1  6
 28  8  1  0
 28 11  1  0
 24 12  1  0
 22 16  1  0
M  END
>  <MS_ID>  (1147) 
MS1193

>  <SMILES>  (1147) 
C[C@H](CCC(=O)O)[C@H]1CC[C@H]2[C@@H]3[C@@H](O)C[C@@H]4C[C@@H](N)CC[C@]4(C)[C@H]3C[C@H](O)[C@]12C

>  <Structure_dimension>  (1147) 
2D

$$$$
MS1194
     RDKit          2D

 35 38  0  0  0  0  0  0  0  0999 V2000
   -2.9304   -4.4556    0.0000 C   0  0  0  0  0  0  0  0  0  0  0  0
   -2.1766   -3.1587    0.0000 C   0  0  0  0  0  0  0  0  0  0  0  0
   -2.9229   -1.8575    0.0000 C   0  0  0  0  0  0  0  0  0  0  0  0
   -4.4229   -1.8532    0.0000 C   0  0  0  0  0  0  0  0  0  0  0  0
   -5.1691   -0.5520    0.0000 C   0  0  0  0  0  0  0  0  0  0  0  0
   -6.6691   -0.5477    0.0000 O   0  0  0  0  0  0  0  0  0  0  0  0
   -4.4154    0.7448    0.0000 O   0  0  0  0  0  0  0  0  0  0  0  0
   -5.1617    2.0460    0.0000 C   0  0  0  0  0  0  0  0  0  0  0  0
   -6.6617    2.0503    0.0000 O   0  0  0  0  0  0  0  0  0  0  0  0
   -4.4079    3.3429    0.0000 C   0  0  0  0  0  0  0  0  0  0  0  0
   -3.6542    4.6398    0.0000 F   0  0  0  0  0  0  0  0  0  0  0  0
   -5.7048    4.0966    0.0000 F   0  0  0  0  0  0  0  0  0  0  0  0
   -3.1111    2.5892    0.0000 F   0  0  0  0  0  0  0  0  0  0  0  0
   -0.6766   -3.1631    0.0000 C   0  0  0  0  0  0  0  0  0  0  0  0
    0.2015   -4.3791    0.0000 C   0  0  0  0  0  0  0  0  0  0  0  0
    1.6295   -3.9197    0.0000 C   0  0  0  0  0  0  0  0  0  0  0  0
    1.6338   -2.4197    0.0000 C   0  0  0  0  0  0  0  0  0  0  0  0
    2.7514   -1.4192    0.0000 C   0  0  0  0  0  0  0  0  0  0  0  0
    4.1766   -1.8868    0.0000 C   0  0  0  0  0  0  0  0  0  0  0  0
    4.4843   -3.3550    0.0000 O   0  0  0  0  0  0  0  0  0  0  0  0
    5.2942   -0.8864    0.0000 C   0  0  0  0  0  0  0  0  0  0  0  0
    4.9866    0.5818    0.0000 C   0  0  0  0  0  0  0  0  0  0  0  0
    6.1042    1.5822    0.0000 C   0  0  0  0  0  0  0  0  0  0  0  0
    5.7965    3.0503    0.0000 C   0  0  0  0  0  0  0  0  0  0  0  0
    6.9141    4.0508    0.0000 O   0  0  0  0  0  0  0  0  0  0  0  0
    4.3713    3.5180    0.0000 C   0  0  0  0  0  0  0  0  0  0  0  0
    3.2537    2.5175    0.0000 C   0  0  0  0  0  0  0  0  0  0  0  0
    3.5613    1.0494    0.0000 C   0  0  0  0  0  0  0  0  0  0  0  0
    2.1361    1.5170    0.0000 C   0  0  0  0  0  0  0  0  0  0  0  0
    2.4437    0.0489    0.0000 C   0  0  0  0  0  0  0  0  0  0  0  0
    1.0185    0.5165    0.0000 C   0  0  0  0  0  0  0  0  0  0  0  0
   -0.0991   -0.4840    0.0000 C   0  0  0  0  0  0  0  0  0  0  0  0
   -1.5244   -0.0163    0.0000 O   0  0  0  0  0  0  0  0  0  0  0  0
    0.2085   -1.9521    0.0000 C   0  0  0  0  0  0  0  0  0  0  0  0
   -1.2578   -1.6360    0.0000 C   0  0  0  0  0  0  0  0  0  0  0  0
  2  1  1  6
  2  3  1  0
  3  4  1  0
  4  5  1  0
  5  6  2  0
  5  7  1  0
  7  8  1  0
  8  9  2  0
  8 10  1  0
 10 11  1  0
 10 12  1  0
 10 13  1  0
  2 14  1  0
 14 15  1  6
 15 16  1  0
 17 16  1  6
 17 18  1  0
 18 19  1  1
 19 20  1  1
 19 21  1  0
 22 21  1  1
 22 23  1  0
 23 24  1  0
 24 25  1  1
 24 26  1  0
 26 27  1  0
 27 28  1  0
 28 29  1  6
 28 30  1  0
 30 31  1  6
 31 32  1  0
 32 33  1  1
 32 34  1  0
 34 35  1  6
 34 14  1  0
 34 17  1  0
 30 18  1  0
 28 22  1  0
M  END
>  <MS_ID>  (1148) 
MS1194

>  <SMILES>  (1148) 
C[C@H](CCC(=O)OC(=O)C(F)(F)F)[C@H]1CC[C@H]2[C@@H]3[C@H](O)C[C@@H]4C[C@H](O)CC[C@]4(C)[C@H]3C[C@H](O)[C@]12C

>  <Structure_dimension>  (1148) 
2D

$$$$
MS1195
     RDKit          2D

 32 35  0  0  0  0  0  0  0  0999 V2000
   -3.6519   -3.4889    0.0000 C   0  0  0  0  0  0  0  0  0  0  0  0
   -2.7185   -2.3147    0.0000 C   0  0  0  0  0  0  0  0  0  0  0  0
   -3.2687   -0.9192    0.0000 C   0  0  0  0  0  0  0  0  0  0  0  0
   -4.7523   -0.6980    0.0000 C   0  0  0  0  0  0  0  0  0  0  0  0
   -5.3024    0.6975    0.0000 C   0  0  0  0  0  0  0  0  0  0  0  0
   -4.3690    1.8717    0.0000 O   0  0  0  0  0  0  0  0  0  0  0  0
   -6.7860    0.9188    0.0000 C   0  0  0  0  0  0  0  0  0  0  0  0
   -7.3362    2.3142    0.0000 C   0  0  0  0  0  0  0  0  0  0  0  0
   -6.4028    3.4884    0.0000 O   0  0  0  0  0  0  0  0  0  0  0  0
   -8.8198    2.5355    0.0000 O   0  0  0  0  0  0  0  0  0  0  0  0
   -1.2349   -2.5360    0.0000 C   0  0  0  0  0  0  0  0  0  0  0  0
   -0.5419   -3.8663    0.0000 C   0  0  0  0  0  0  0  0  0  0  0  0
    0.9375   -3.6183    0.0000 C   0  0  0  0  0  0  0  0  0  0  0  0
    1.1587   -2.1347    0.0000 C   0  0  0  0  0  0  0  0  0  0  0  0
    2.4093   -1.3064    0.0000 C   0  0  0  0  0  0  0  0  0  0  0  0
    3.7519   -1.9753    0.0000 C   0  0  0  0  0  0  0  0  0  0  0  0
    3.8439   -3.4725    0.0000 O   0  0  0  0  0  0  0  0  0  0  0  0
    5.0025   -1.1470    0.0000 C   0  0  0  0  0  0  0  0  0  0  0  0
    4.9105    0.3502    0.0000 C   0  0  0  0  0  0  0  0  0  0  0  0
    6.1611    1.1784    0.0000 C   0  0  0  0  0  0  0  0  0  0  0  0
    6.0690    2.6756    0.0000 C   0  0  0  0  0  0  0  0  0  0  0  0
    7.3196    3.5039    0.0000 O   0  0  0  0  0  0  0  0  0  0  0  0
    4.7264    3.3445    0.0000 C   0  0  0  0  0  0  0  0  0  0  0  0
    3.4759    2.5162    0.0000 C   0  0  0  0  0  0  0  0  0  0  0  0
    3.5679    1.0191    0.0000 C   0  0  0  0  0  0  0  0  0  0  0  0
    2.2253    1.6879    0.0000 C   0  0  0  0  0  0  0  0  0  0  0  0
    2.3173    0.1908    0.0000 C   0  0  0  0  0  0  0  0  0  0  0  0
    0.9747    0.8597    0.0000 C   0  0  0  0  0  0  0  0  0  0  0  0
   -0.2759    0.0314    0.0000 C   0  0  0  0  0  0  0  0  0  0  0  0
   -1.6185    0.7003    0.0000 O   0  0  0  0  0  0  0  0  0  0  0  0
   -0.1839   -1.4658    0.0000 C   0  0  0  0  0  0  0  0  0  0  0  0
   -1.5890   -0.9409    0.0000 C   0  0  0  0  0  0  0  0  0  0  0  0
  2  1  1  6
  2  3  1  0
  3  4  1  0
  4  5  1  0
  5  6  2  0
  5  7  1  0
  7  8  1  0
  8  9  2  0
  8 10  1  0
  2 11  1  0
 11 12  1  6
 12 13  1  0
 14 13  1  6
 14 15  1  0
 15 16  1  1
 16 17  1  6
 16 18  1  0
 19 18  1  1
 19 20  1  0
 20 21  1  0
 21 22  1  6
 21 23  1  0
 23 24  1  0
 24 25  1  0
 25 26  1  6
 25 27  1  0
 27 28  1  6
 28 29  1  0
 29 30  1  6
 29 31  1  0
 31 32  1  6
 31 11  1  0
 31 14  1  0
 27 15  1  0
 25 19  1  0
M  END
>  <MS_ID>  (1149) 
MS1195

>  <SMILES>  (1149) 
C[C@H](CCC(=O)CC(=O)O)[C@H]1CC[C@H]2[C@@H]3[C@@H](O)C[C@@H]4C[C@@H](O)CC[C@]4(C)[C@H]3C[C@@H](O)[C@]12C

>  <Structure_dimension>  (1149) 
2D

$$$$
MS1196
     RDKit          2D

 32 35  0  0  0  0  0  0  0  0999 V2000
  -10.5534    3.1554    0.0000 C   0  0  0  0  0  0  0  0  0  0  0  0
   -9.0579    3.0406    0.0000 C   0  0  0  0  0  0  0  0  0  0  0  0
   -8.4096    1.6879    0.0000 C   0  0  0  0  0  0  0  0  0  0  0  0
   -6.9140    1.5730    0.0000 C   0  0  0  0  0  0  0  0  0  0  0  0
   -6.2657    0.2203    0.0000 C   0  0  0  0  0  0  0  0  0  0  0  0
   -4.7701    0.1054    0.0000 C   0  0  0  0  0  0  0  0  0  0  0  0
   -3.9228    1.3432    0.0000 O   0  0  0  0  0  0  0  0  0  0  0  0
   -4.1218   -1.2472    0.0000 C   0  0  0  0  0  0  0  0  0  0  0  0
   -2.6262   -1.3621    0.0000 C   0  0  0  0  0  0  0  0  0  0  0  0
   -1.9779   -2.7148    0.0000 C   0  0  0  0  0  0  0  0  0  0  0  0
   -2.8252   -3.9526    0.0000 C   0  0  0  0  0  0  0  0  0  0  0  0
   -0.4823   -2.8297    0.0000 C   0  0  0  0  0  0  0  0  0  0  0  0
    0.3038   -4.1072    0.0000 C   0  0  0  0  0  0  0  0  0  0  0  0
    1.7617   -3.7543    0.0000 C   0  0  0  0  0  0  0  0  0  0  0  0
    1.8766   -2.2587    0.0000 C   0  0  0  0  0  0  0  0  0  0  0  0
    3.0650   -1.3433    0.0000 C   0  0  0  0  0  0  0  0  0  0  0  0
    4.4518   -1.9148    0.0000 C   0  0  0  0  0  0  0  0  0  0  0  0
    5.6402   -0.9994    0.0000 C   0  0  0  0  0  0  0  0  0  0  0  0
    5.4416    0.4874    0.0000 C   0  0  0  0  0  0  0  0  0  0  0  0
    6.6299    1.4028    0.0000 C   0  0  0  0  0  0  0  0  0  0  0  0
    6.4313    2.8896    0.0000 C   0  0  0  0  0  0  0  0  0  0  0  0
    7.6197    3.8049    0.0000 O   0  0  0  0  0  0  0  0  0  0  0  0
    5.0445    3.4610    0.0000 C   0  0  0  0  0  0  0  0  0  0  0  0
    3.8561    2.5456    0.0000 C   0  0  0  0  0  0  0  0  0  0  0  0
    4.0547    1.0588    0.0000 C   0  0  0  0  0  0  0  0  0  0  0  0
    2.6678    1.6303    0.0000 C   0  0  0  0  0  0  0  0  0  0  0  0
    2.8664    0.1435    0.0000 C   0  0  0  0  0  0  0  0  0  0  0  0
    1.4795    0.7149    0.0000 C   0  0  0  0  0  0  0  0  0  0  0  0
    0.2912   -0.2005    0.0000 C   0  0  0  0  0  0  0  0  0  0  0  0
   -1.0957    0.3710    0.0000 O   0  0  0  0  0  0  0  0  0  0  0  0
    0.4897   -1.6873    0.0000 C   0  0  0  0  0  0  0  0  0  0  0  0
   -0.9493   -1.2639    0.0000 C   0  0  0  0  0  0  0  0  0  0  0  0
  1  2  1  0
  2  3  1  0
  3  4  1  0
  4  5  1  0
  5  6  1  0
  6  7  2  0
  6  8  1  0
  8  9  1  0
  9 10  1  0
 10 11  1  6
 10 12  1  0
 12 13  1  6
 13 14  1  0
 15 14  1  6
 15 16  1  0
 16 17  1  1
 17 18  1  0
 19 18  1  1
 19 20  1  0
 20 21  1  0
 21 22  1  6
 21 23  1  0
 23 24  1  0
 24 25  1  0
 25 26  1  6
 25 27  1  0
 27 28  1  6
 28 29  1  0
 29 30  1  6
 29 31  1  0
 31 32  1  6
 31 12  1  0
 31 15  1  0
 27 16  1  0
 25 19  1  0
M  END
>  <MS_ID>  (1150) 
MS1196

>  <SMILES>  (1150) 
CCCCCC(=O)CC[C@@H](C)[C@H]1CC[C@H]2[C@@H]3CC[C@@H]4C[C@@H](O)CC[C@]4(C)[C@H]3C[C@@H](O)[C@]12C

>  <Structure_dimension>  (1150) 
2D

$$$$
MS1197
     RDKit          2D

 29 32  0  0  0  0  0  0  0  0999 V2000
   -4.1361   -2.8778    0.0000 C   0  0  0  0  0  0  0  0  0  0  0  0
   -3.1227   -1.7719    0.0000 C   0  0  0  0  0  0  0  0  0  0  0  0
   -3.5738   -0.3413    0.0000 C   0  0  0  0  0  0  0  0  0  0  0  0
   -5.0383   -0.0167    0.0000 C   0  0  0  0  0  0  0  0  0  0  0  0
   -5.4894    1.4138    0.0000 C   0  0  0  0  0  0  0  0  0  0  0  0
   -4.4761    2.5198    0.0000 O   0  0  0  0  0  0  0  0  0  0  0  0
   -6.9539    1.7384    0.0000 C   0  0  0  0  0  0  0  0  0  0  0  0
   -7.4050    3.1690    0.0000 S   0  0  0  0  0  0  0  0  0  0  0  0
   -1.6583   -2.0965    0.0000 C   0  0  0  0  0  0  0  0  0  0  0  0
   -1.0601   -3.4720    0.0000 C   0  0  0  0  0  0  0  0  0  0  0  0
    0.4330   -3.3282    0.0000 C   0  0  0  0  0  0  0  0  0  0  0  0
    0.7576   -1.8638    0.0000 C   0  0  0  0  0  0  0  0  0  0  0  0
    2.0631   -1.1251    0.0000 C   0  0  0  0  0  0  0  0  0  0  0  0
    3.3556   -1.8863    0.0000 C   0  0  0  0  0  0  0  0  0  0  0  0
    3.3426   -3.3863    0.0000 O   0  0  0  0  0  0  0  0  0  0  0  0
    4.6611   -1.1476    0.0000 C   0  0  0  0  0  0  0  0  0  0  0  0
    4.6741    0.3523    0.0000 C   0  0  0  0  0  0  0  0  0  0  0  0
    5.9796    1.0910    0.0000 C   0  0  0  0  0  0  0  0  0  0  0  0
    5.9926    2.5910    0.0000 C   0  0  0  0  0  0  0  0  0  0  0  0
    4.7002    3.3522    0.0000 C   0  0  0  0  0  0  0  0  0  0  0  0
    3.3947    2.6135    0.0000 C   0  0  0  0  0  0  0  0  0  0  0  0
    3.3816    1.1136    0.0000 C   0  0  0  0  0  0  0  0  0  0  0  0
    2.0891    1.8748    0.0000 C   0  0  0  0  0  0  0  0  0  0  0  0
    2.0761    0.3749    0.0000 C   0  0  0  0  0  0  0  0  0  0  0  0
    0.7836    1.1361    0.0000 C   0  0  0  0  0  0  0  0  0  0  0  0
   -0.5219    0.3974    0.0000 C   0  0  0  0  0  0  0  0  0  0  0  0
   -1.8143    1.1587    0.0000 O   0  0  0  0  0  0  0  0  0  0  0  0
   -0.5349   -1.1025    0.0000 C   0  0  0  0  0  0  0  0  0  0  0  0
   -1.8998   -0.4805    0.0000 C   0  0  0  0  0  0  0  0  0  0  0  0
  2  1  1  6
  2  3  1  0
  3  4  1  0
  4  5  1  0
  5  6  2  0
  5  7  1  0
  7  8  1  0
  2  9  1  0
  9 10  1  6
 10 11  1  0
 12 11  1  6
 12 13  1  0
 13 14  1  1
 14 15  1  1
 14 16  1  0
 17 16  1  1
 17 18  1  0
 18 19  1  0
 19 20  1  0
 20 21  1  0
 21 22  1  0
 22 23  1  6
 22 24  1  0
 24 25  1  6
 25 26  1  0
 26 27  1  6
 26 28  1  0
 28 29  1  6
 28  9  1  0
 28 12  1  0
 24 13  1  0
 22 17  1  0
M  END
>  <MS_ID>  (1151) 
MS1197

>  <SMILES>  (1151) 
C[C@H](CCC(=O)CS)[C@H]1CC[C@H]2[C@@H]3[C@H](O)C[C@@H]4CCCC[C@]4(C)[C@H]3C[C@@H](O)[C@]12C

>  <Structure_dimension>  (1151) 
2D

$$$$
MS1198
     RDKit          2D

 31 34  0  0  0  0  0  0  0  0999 V2000
   -3.5119   -3.5779    0.0000 C   0  0  0  0  0  0  0  0  0  0  0  0
   -2.6109   -2.3787    0.0000 C   0  0  0  0  0  0  0  0  0  0  0  0
   -3.1991   -0.9988    0.0000 C   0  0  0  0  0  0  0  0  0  0  0  0
   -4.6881   -0.8181    0.0000 C   0  0  0  0  0  0  0  0  0  0  0  0
   -5.2762    0.5618    0.0000 C   0  0  0  0  0  0  0  0  0  0  0  0
   -4.3753    1.7610    0.0000 O   0  0  0  0  0  0  0  0  0  0  0  0
   -6.7653    0.7424    0.0000 N   0  0  0  0  0  0  0  0  0  0  0  0
   -7.3534    2.1223    0.0000 C   0  0  0  0  0  0  0  0  0  0  0  0
   -8.8425    2.3029    0.0000 C   0  0  0  0  0  0  0  0  0  0  0  0
   -9.4306    3.6828    0.0000 O   0  0  0  0  0  0  0  0  0  0  0  0
   -1.1219   -2.5593    0.0000 C   0  0  0  0  0  0  0  0  0  0  0  0
   -0.3927   -3.8702    0.0000 C   0  0  0  0  0  0  0  0  0  0  0  0
    1.0793   -3.5818    0.0000 C   0  0  0  0  0  0  0  0  0  0  0  0
    1.2599   -2.0927    0.0000 C   0  0  0  0  0  0  0  0  0  0  0  0
    2.4874   -1.2306    0.0000 C   0  0  0  0  0  0  0  0  0  0  0  0
    3.8478   -1.8625    0.0000 C   0  0  0  0  0  0  0  0  0  0  0  0
    3.9807   -3.3566    0.0000 O   0  0  0  0  0  0  0  0  0  0  0  0
    5.0753   -1.0003    0.0000 C   0  0  0  0  0  0  0  0  0  0  0  0
    4.9423    0.4938    0.0000 C   0  0  0  0  0  0  0  0  0  0  0  0
    6.1698    1.3559    0.0000 C   0  0  0  0  0  0  0  0  0  0  0  0
    6.0369    2.8500    0.0000 C   0  0  0  0  0  0  0  0  0  0  0  0
    7.2644    3.7122    0.0000 O   0  0  0  0  0  0  0  0  0  0  0  0
    4.6765    3.4820    0.0000 C   0  0  0  0  0  0  0  0  0  0  0  0
    3.4490    2.6198    0.0000 C   0  0  0  0  0  0  0  0  0  0  0  0
    3.5820    1.1257    0.0000 C   0  0  0  0  0  0  0  0  0  0  0  0
    2.2216    1.7576    0.0000 C   0  0  0  0  0  0  0  0  0  0  0  0
    2.3545    0.2635    0.0000 C   0  0  0  0  0  0  0  0  0  0  0  0
    0.9941    0.8955    0.0000 C   0  0  0  0  0  0  0  0  0  0  0  0
   -0.2334    0.0333    0.0000 C   0  0  0  0  0  0  0  0  0  0  0  0
   -0.1005   -1.4608    0.0000 C   0  0  0  0  0  0  0  0  0  0  0  0
   -1.5195   -0.9745    0.0000 C   0  0  0  0  0  0  0  0  0  0  0  0
  2  1  1  6
  2  3  1  0
  3  4  1  0
  4  5  1  0
  5  6  2  0
  5  7  1  0
  7  8  1  0
  8  9  1  0
  9 10  1  0
  2 11  1  0
 11 12  1  6
 12 13  1  0
 14 13  1  6
 14 15  1  0
 15 16  1  1
 16 17  1  6
 16 18  1  0
 19 18  1  1
 19 20  1  0
 20 21  1  0
 21 22  1  6
 21 23  1  0
 23 24  1  0
 24 25  1  0
 25 26  1  6
 25 27  1  0
 27 28  1  6
 28 29  1  0
 29 30  1  0
 30 31  1  6
 30 11  1  0
 30 14  1  0
 27 15  1  0
 25 19  1  0
M  END
>  <MS_ID>  (1152) 
MS1198

>  <SMILES>  (1152) 
C[C@H](CCC(=O)NCCO)[C@H]1CC[C@H]2[C@@H]3[C@@H](O)C[C@@H]4C[C@@H](O)CC[C@]4(C)[C@H]3CC[C@]12C

>  <Structure_dimension>  (1152) 
2D

$$$$
MS1199
     RDKit          2D

 34 38  0  0  0  0  0  0  0  0999 V2000
   -2.4831   -3.9515    0.0000 C   0  0  0  0  0  0  0  0  0  0  0  0
   -1.6119   -2.7305    0.0000 C   0  0  0  0  0  0  0  0  0  0  0  0
   -2.2337   -1.3655    0.0000 C   0  0  0  0  0  0  0  0  0  0  0  0
   -3.7268   -1.2215    0.0000 C   0  0  0  0  0  0  0  0  0  0  0  0
   -4.3486    0.1436    0.0000 C   0  0  0  0  0  0  0  0  0  0  0  0
   -3.4774    1.3646    0.0000 O   0  0  0  0  0  0  0  0  0  0  0  0
   -5.8417    0.2876    0.0000 N   0  0  0  0  0  0  0  0  0  0  0  0
   -6.8358   -0.8357    0.0000 C   0  0  0  0  0  0  0  0  0  0  0  0
   -8.2113   -0.2374    0.0000 C   0  0  0  0  0  0  0  0  0  0  0  0
   -8.0673    1.2557    0.0000 C   0  0  0  0  0  0  0  0  0  0  0  0
   -6.6028    1.5801    0.0000 C   0  0  0  0  0  0  0  0  0  0  0  0
   -6.0045    2.9556    0.0000 C   0  0  0  0  0  0  0  0  0  0  0  0
   -4.5141    3.1252    0.0000 O   0  0  0  0  0  0  0  0  0  0  0  0
   -6.8965    4.1615    0.0000 O   0  0  0  0  0  0  0  0  0  0  0  0
   -0.1188   -2.8745    0.0000 C   0  0  0  0  0  0  0  0  0  0  0  0
    0.6423   -4.1670    0.0000 C   0  0  0  0  0  0  0  0  0  0  0  0
    2.1068   -3.8426    0.0000 C   0  0  0  0  0  0  0  0  0  0  0  0
    2.2508   -2.3495    0.0000 C   0  0  0  0  0  0  0  0  0  0  0  0
    3.4567   -1.4575    0.0000 C   0  0  0  0  0  0  0  0  0  0  0  0
    4.8322   -2.0558    0.0000 C   0  0  0  0  0  0  0  0  0  0  0  0
    6.0382   -1.1637    0.0000 C   0  0  0  0  0  0  0  0  0  0  0  0
    5.8686    0.3266    0.0000 C   0  0  0  0  0  0  0  0  0  0  0  0
    7.0745    1.2187    0.0000 C   0  0  0  0  0  0  0  0  0  0  0  0
    6.9049    2.7091    0.0000 C   0  0  0  0  0  0  0  0  0  0  0  0
    8.1108    3.6011    0.0000 O   0  0  0  0  0  0  0  0  0  0  0  0
    5.5294    3.3074    0.0000 C   0  0  0  0  0  0  0  0  0  0  0  0
    4.3235    2.4154    0.0000 C   0  0  0  0  0  0  0  0  0  0  0  0
    4.4931    0.9250    0.0000 C   0  0  0  0  0  0  0  0  0  0  0  0
    3.1176    1.5233    0.0000 C   0  0  0  0  0  0  0  0  0  0  0  0
    3.2871    0.0329    0.0000 C   0  0  0  0  0  0  0  0  0  0  0  0
    1.9116    0.6312    0.0000 C   0  0  0  0  0  0  0  0  0  0  0  0
    0.7057   -0.2608    0.0000 C   0  0  0  0  0  0  0  0  0  0  0  0
    0.8753   -1.7512    0.0000 C   0  0  0  0  0  0  0  0  0  0  0  0
   -0.5552   -1.2999    0.0000 C   0  0  0  0  0  0  0  0  0  0  0  0
  2  1  1  6
  2  3  1  0
  3  4  1  0
  4  5  1  0
  5  6  2  0
  5  7  1  0
  7  8  1  0
  8  9  1  0
  9 10  1  0
 10 11  1  0
 11 12  1  1
 12 13  2  0
 12 14  1  0
  2 15  1  0
 15 16  1  6
 16 17  1  0
 18 17  1  6
 18 19  1  0
 19 20  1  1
 20 21  1  0
 22 21  1  1
 22 23  1  0
 23 24  1  0
 24 25  2  0
 24 26  1  0
 26 27  1  0
 27 28  1  0
 28 29  1  6
 28 30  1  0
 30 31  1  6
 31 32  1  0
 32 33  1  0
 33 34  1  6
 11  7  1  0
 33 15  1  0
 33 18  1  0
 30 19  1  0
 28 22  1  0
M  END
>  <MS_ID>  (1153) 
MS1199

>  <SMILES>  (1153) 
C[C@H](CCC(=O)N1CCC[C@H]1C(=O)O)[C@H]1CC[C@H]2[C@@H]3CC[C@@H]4CC(=O)CC[C@]4(C)[C@H]3CC[C@]12C

>  <Structure_dimension>  (1153) 
2D

$$$$
MS1200
     RDKit          2D

 33 37  0  0  0  0  0  0  0  0999 V2000
   -3.1427   -3.3426    0.0000 C   0  0  0  0  0  0  0  0  0  0  0  0
   -2.1899   -2.1841    0.0000 C   0  0  0  0  0  0  0  0  0  0  0  0
   -2.7167   -0.7797    0.0000 C   0  0  0  0  0  0  0  0  0  0  0  0
   -4.1964   -0.5338    0.0000 C   0  0  0  0  0  0  0  0  0  0  0  0
   -4.7233    0.8707    0.0000 C   0  0  0  0  0  0  0  0  0  0  0  0
   -3.7705    2.0292    0.0000 O   0  0  0  0  0  0  0  0  0  0  0  0
   -6.2030    1.1166    0.0000 C   0  0  0  0  0  0  0  0  0  0  0  0
   -6.7299    2.5210    0.0000 C   0  0  0  0  0  0  0  0  0  0  0  0
   -8.2096    2.7669    0.0000 C   0  0  0  0  0  0  0  0  0  0  0  0
   -9.1624    1.6084    0.0000 C   0  0  0  0  0  0  0  0  0  0  0  0
   -8.6355    0.2040    0.0000 C   0  0  0  0  0  0  0  0  0  0  0  0
   -7.1558   -0.0419    0.0000 C   0  0  0  0  0  0  0  0  0  0  0  0
   -0.7102   -2.4300    0.0000 C   0  0  0  0  0  0  0  0  0  0  0  0
   -0.0394   -3.7717    0.0000 C   0  0  0  0  0  0  0  0  0  0  0  0
    1.4439   -3.5483    0.0000 C   0  0  0  0  0  0  0  0  0  0  0  0
    1.6898   -2.0686    0.0000 C   0  0  0  0  0  0  0  0  0  0  0  0
    2.9540   -1.2613    0.0000 C   0  0  0  0  0  0  0  0  0  0  0  0
    4.2853   -1.9524    0.0000 C   0  0  0  0  0  0  0  0  0  0  0  0
    4.3524   -3.4509    0.0000 O   0  0  0  0  0  0  0  0  0  0  0  0
    5.5495   -1.1451    0.0000 C   0  0  0  0  0  0  0  0  0  0  0  0
    5.4824    0.3534    0.0000 C   0  0  0  0  0  0  0  0  0  0  0  0
    6.7466    1.1608    0.0000 C   0  0  0  0  0  0  0  0  0  0  0  0
    6.6795    2.6593    0.0000 C   0  0  0  0  0  0  0  0  0  0  0  0
    7.9437    3.4666    0.0000 O   0  0  0  0  0  0  0  0  0  0  0  0
    5.3482    3.3504    0.0000 C   0  0  0  0  0  0  0  0  0  0  0  0
    4.0840    2.5431    0.0000 C   0  0  0  0  0  0  0  0  0  0  0  0
    4.1511    1.0446    0.0000 C   0  0  0  0  0  0  0  0  0  0  0  0
    2.8198    1.7357    0.0000 C   0  0  0  0  0  0  0  0  0  0  0  0
    2.8869    0.2372    0.0000 C   0  0  0  0  0  0  0  0  0  0  0  0
    1.5556    0.9284    0.0000 C   0  0  0  0  0  0  0  0  0  0  0  0
    0.2915    0.1210    0.0000 C   0  0  0  0  0  0  0  0  0  0  0  0
    0.3586   -1.3775    0.0000 C   0  0  0  0  0  0  0  0  0  0  0  0
   -1.0377   -0.8293    0.0000 C   0  0  0  0  0  0  0  0  0  0  0  0
  2  1  1  6
  2  3  1  0
  3  4  1  0
  4  5  1  0
  5  6  2  0
  5  7  1  0
  7  8  2  0
  8  9  1  0
  9 10  2  0
 10 11  1  0
 11 12  2  0
  2 13  1  0
 13 14  1  6
 14 15  1  0
 16 15  1  6
 16 17  1  0
 17 18  1  1
 18 19  1  6
 18 20  1  0
 21 20  1  1
 21 22  1  0
 22 23  1  0
 23 24  1  1
 23 25  1  0
 25 26  1  0
 26 27  1  0
 27 28  1  6
 27 29  1  0
 29 30  1  6
 30 31  1  0
 31 32  1  0
 32 33  1  6
 12  7  1  0
 32 13  1  0
 32 16  1  0
 29 17  1  0
 27 21  1  0
M  END
>  <MS_ID>  (1154) 
MS1200

>  <SMILES>  (1154) 
C[C@H](CCC(=O)c1ccccc1)[C@H]1CC[C@H]2[C@@H]3[C@@H](O)C[C@@H]4C[C@H](O)CC[C@]4(C)[C@H]3CC[C@]12C

>  <Structure_dimension>  (1154) 
2D

$$$$
MS1201
     RDKit          2D

 39 43  0  0  0  0  0  0  0  0999 V2000
   -7.7534   -2.1938    0.0000 C   0  0  0  0  0  0  0  0  0  0  0  0
   -6.5793   -1.2603    0.0000 C   0  0  0  0  0  0  0  0  0  0  0  0
   -6.8008    0.2233    0.0000 C   0  0  0  0  0  0  0  0  0  0  0  0
   -8.1963    0.7733    0.0000 C   0  0  0  0  0  0  0  0  0  0  0  0
   -8.4177    2.2569    0.0000 C   0  0  0  0  0  0  0  0  0  0  0  0
   -7.2436    3.1904    0.0000 O   0  0  0  0  0  0  0  0  0  0  0  0
   -9.8132    2.8069    0.0000 O   0  0  0  0  0  0  0  0  0  0  0  0
   -5.1838   -1.8103    0.0000 C   0  0  0  0  0  0  0  0  0  0  0  0
   -4.8085   -3.2626    0.0000 C   0  0  0  0  0  0  0  0  0  0  0  0
   -3.3114   -3.3545    0.0000 C   0  0  0  0  0  0  0  0  0  0  0  0
   -2.7613   -1.9590    0.0000 C   0  0  0  0  0  0  0  0  0  0  0  0
   -1.3562   -1.4339    0.0000 C   0  0  0  0  0  0  0  0  0  0  0  0
   -0.1990   -2.3883    0.0000 C   0  0  0  0  0  0  0  0  0  0  0  0
    1.2061   -1.8632    0.0000 C   0  0  0  0  0  0  0  0  0  0  0  0
    1.4540   -0.3839    0.0000 C   0  0  0  0  0  0  0  0  0  0  0  0
    2.8591    0.1412    0.0000 C   0  0  0  0  0  0  0  0  0  0  0  0
    3.1070    1.6206    0.0000 C   0  0  0  0  0  0  0  0  0  0  0  0
    4.5121    2.1456    0.0000 O   0  0  0  0  0  0  0  0  0  0  0  0
    5.6693    1.1912    0.0000 C   0  0  0  0  0  0  0  0  0  0  0  0
    5.4215   -0.2881    0.0000 O   0  0  0  0  0  0  0  0  0  0  0  0
    6.5787   -1.2425    0.0000 C   0  0  0  0  0  0  0  0  0  0  0  0
    6.3309   -2.7219    0.0000 C   0  0  0  0  0  0  0  0  0  0  0  0
    4.9257   -3.2469    0.0000 O   0  0  0  0  0  0  0  0  0  0  0  0
    7.9838   -0.7174    0.0000 C   0  0  0  0  0  0  0  0  0  0  0  0
    9.1411   -1.6718    0.0000 O   0  0  0  0  0  0  0  0  0  0  0  0
    8.2317    0.7619    0.0000 C   0  0  0  0  0  0  0  0  0  0  0  0
    9.6368    1.2870    0.0000 O   0  0  0  0  0  0  0  0  0  0  0  0
    7.0744    1.7163    0.0000 C   0  0  0  0  0  0  0  0  0  0  0  0
    7.3223    3.1957    0.0000 O   0  0  0  0  0  0  0  0  0  0  0  0
    1.9497    2.5749    0.0000 C   0  0  0  0  0  0  0  0  0  0  0  0
    0.5446    2.0499    0.0000 C   0  0  0  0  0  0  0  0  0  0  0  0
    0.2967    0.5705    0.0000 C   0  0  0  0  0  0  0  0  0  0  0  0
   -0.8605    1.5248    0.0000 C   0  0  0  0  0  0  0  0  0  0  0  0
   -1.1084    0.0455    0.0000 C   0  0  0  0  0  0  0  0  0  0  0  0
   -2.2656    0.9998    0.0000 C   0  0  0  0  0  0  0  0  0  0  0  0
   -3.6707    0.4748    0.0000 C   0  0  0  0  0  0  0  0  0  0  0  0
   -4.8280    1.4291    0.0000 O   0  0  0  0  0  0  0  0  0  0  0  0
   -3.9186   -1.0046    0.0000 C   0  0  0  0  0  0  0  0  0  0  0  0
   -5.1693   -0.1765    0.0000 C   0  0  0  0  0  0  0  0  0  0  0  0
  2  1  1  6
  2  3  1  0
  3  4  1  0
  4  5  1  0
  5  6  2  0
  5  7  1  0
  2  8  1  0
  8  9  1  6
  9 10  1  0
 11 10  1  6
 11 12  1  0
 12 13  1  1
 13 14  1  0
 15 14  1  1
 15 16  1  0
 16 17  1  0
 17 18  1  6
 19 18  1  1
 19 20  1  0
 20 21  1  0
 21 22  1  1
 22 23  1  0
 21 24  1  0
 24 25  1  6
 24 26  1  0
 26 27  1  6
 26 28  1  0
 28 29  1  6
 17 30  1  0
 30 31  1  0
 31 32  1  0
 32 33  1  6
 32 34  1  0
 34 35  1  6
 35 36  1  0
 36 37  1  1
 36 38  1  0
 38 39  1  6
 38  8  1  0
 38 11  1  0
 34 12  1  0
 32 15  1  0
 28 19  1  0
M  END
>  <MS_ID>  (1155) 
MS1201

>  <SMILES>  (1155) 
C[C@H](CCC(=O)O)[C@H]1CC[C@H]2[C@@H]3CC[C@@H]4C[C@@H](O[C@@H]5O[C@H](CO)[C@@H](O)[C@@H](O)[C@H]5O)CC[C@]4(C)[C@H]3C[C@H](O)[C@]12C

>  <Structure_dimension>  (1155) 
2D

$$$$
MS1202
     RDKit          2D

 37 41  0  0  0  0  0  0  0  0999 V2000
   -1.0687   -4.5652    0.0000 C   0  0  0  0  0  0  0  0  0  0  0  0
   -0.4356   -3.2053    0.0000 C   0  0  0  0  0  0  0  0  0  0  0  0
   -1.2968   -1.9772    0.0000 C   0  0  0  0  0  0  0  0  0  0  0  0
   -2.7910   -2.1089    0.0000 C   0  0  0  0  0  0  0  0  0  0  0  0
   -3.6522   -0.8807    0.0000 C   0  0  0  0  0  0  0  0  0  0  0  0
   -3.0192    0.4792    0.0000 O   0  0  0  0  0  0  0  0  0  0  0  0
   -5.1464   -1.0124    0.0000 N   0  0  0  0  0  0  0  0  0  0  0  0
   -6.0076    0.2157    0.0000 C   0  0  0  0  0  0  0  0  0  0  0  0
   -5.3745    1.5756    0.0000 C   0  0  0  0  0  0  0  0  0  0  0  0
   -6.2357    2.8038    0.0000 C   0  0  0  0  0  0  0  0  0  0  0  0
   -7.7299    2.6721    0.0000 C   0  0  0  0  0  0  0  0  0  0  0  0
   -8.3629    1.3122    0.0000 C   0  0  0  0  0  0  0  0  0  0  0  0
   -9.8572    1.1805    0.0000 C   0  0  0  0  0  0  0  0  0  0  0  0
  -10.4902   -0.1794    0.0000 O   0  0  0  0  0  0  0  0  0  0  0  0
  -10.7183    2.4086    0.0000 O   0  0  0  0  0  0  0  0  0  0  0  0
   -7.5018    0.0840    0.0000 C   0  0  0  0  0  0  0  0  0  0  0  0
    1.0586   -3.0736    0.0000 C   0  0  0  0  0  0  0  0  0  0  0  0
    2.0434   -4.2050    0.0000 C   0  0  0  0  0  0  0  0  0  0  0  0
    3.4238   -3.6180    0.0000 C   0  0  0  0  0  0  0  0  0  0  0  0
    3.2921   -2.1238    0.0000 C   0  0  0  0  0  0  0  0  0  0  0  0
    4.3143   -1.0261    0.0000 C   0  0  0  0  0  0  0  0  0  0  0  0
    5.7761   -1.3626    0.0000 C   0  0  0  0  0  0  0  0  0  0  0  0
    6.2156   -2.7968    0.0000 O   0  0  0  0  0  0  0  0  0  0  0  0
    6.7984   -0.2649    0.0000 C   0  0  0  0  0  0  0  0  0  0  0  0
    6.3589    1.1693    0.0000 C   0  0  0  0  0  0  0  0  0  0  0  0
    7.3812    2.2670    0.0000 C   0  0  0  0  0  0  0  0  0  0  0  0
    6.9417    3.7012    0.0000 C   0  0  0  0  0  0  0  0  0  0  0  0
    7.9639    4.7989    0.0000 O   0  0  0  0  0  0  0  0  0  0  0  0
    5.4799    4.0376    0.0000 C   0  0  0  0  0  0  0  0  0  0  0  0
    4.4576    2.9399    0.0000 C   0  0  0  0  0  0  0  0  0  0  0  0
    4.8971    1.5058    0.0000 C   0  0  0  0  0  0  0  0  0  0  0  0
    3.4353    1.8422    0.0000 C   0  0  0  0  0  0  0  0  0  0  0  0
    3.8748    0.4081    0.0000 C   0  0  0  0  0  0  0  0  0  0  0  0
    2.4131    0.7445    0.0000 C   0  0  0  0  0  0  0  0  0  0  0  0
    1.3908   -0.3532    0.0000 C   0  0  0  0  0  0  0  0  0  0  0  0
    1.8303   -1.7874    0.0000 C   0  0  0  0  0  0  0  0  0  0  0  0
    0.3413   -1.6055    0.0000 C   0  0  0  0  0  0  0  0  0  0  0  0
  2  1  1  6
  2  3  1  0
  3  4  1  0
  4  5  1  0
  5  6  2  0
  5  7  1  0
  7  8  1  0
  8  9  2  0
  9 10  1  0
 10 11  2  0
 11 12  1  0
 12 13  1  0
 13 14  2  0
 13 15  1  0
 12 16  2  0
  2 17  1  0
 17 18  1  6
 18 19  1  0
 20 19  1  6
 20 21  1  0
 21 22  1  1
 22 23  1  1
 22 24  1  0
 25 24  1  1
 25 26  1  0
 26 27  1  0
 27 28  1  1
 27 29  1  0
 29 30  1  0
 30 31  1  0
 31 32  1  6
 31 33  1  0
 33 34  1  6
 34 35  1  0
 35 36  1  0
 36 37  1  6
 16  8  1  0
 36 17  1  0
 36 20  1  0
 33 21  1  0
 31 25  1  0
M  END
>  <MS_ID>  (1156) 
MS1202

>  <SMILES>  (1156) 
C[C@H](CCC(=O)Nc1cccc(C(=O)O)c1)[C@H]1CC[C@H]2[C@@H]3[C@H](O)C[C@@H]4C[C@H](O)CC[C@]4(C)[C@H]3CC[C@]12C

>  <Structure_dimension>  (1156) 
2D

$$$$
MS1203
     RDKit          2D

 33 37  0  0  0  0  0  0  0  0999 V2000
   -3.1427   -3.3426    0.0000 C   0  0  0  0  0  0  0  0  0  0  0  0
   -2.1899   -2.1841    0.0000 C   0  0  0  0  0  0  0  0  0  0  0  0
   -2.7167   -0.7797    0.0000 C   0  0  0  0  0  0  0  0  0  0  0  0
   -4.1964   -0.5338    0.0000 C   0  0  0  0  0  0  0  0  0  0  0  0
   -4.7233    0.8707    0.0000 C   0  0  0  0  0  0  0  0  0  0  0  0
   -3.7705    2.0292    0.0000 O   0  0  0  0  0  0  0  0  0  0  0  0
   -6.2030    1.1166    0.0000 C   0  0  0  0  0  0  0  0  0  0  0  0
   -6.7299    2.5210    0.0000 C   0  0  0  0  0  0  0  0  0  0  0  0
   -8.2096    2.7669    0.0000 N   0  0  0  0  0  0  0  0  0  0  0  0
   -9.1624    1.6084    0.0000 C   0  0  0  0  0  0  0  0  0  0  0  0
   -8.6355    0.2040    0.0000 C   0  0  0  0  0  0  0  0  0  0  0  0
   -7.1558   -0.0419    0.0000 N   0  0  0  0  0  0  0  0  0  0  0  0
   -0.7102   -2.4300    0.0000 C   0  0  0  0  0  0  0  0  0  0  0  0
   -0.0394   -3.7717    0.0000 C   0  0  0  0  0  0  0  0  0  0  0  0
    1.4439   -3.5483    0.0000 C   0  0  0  0  0  0  0  0  0  0  0  0
    1.6898   -2.0686    0.0000 C   0  0  0  0  0  0  0  0  0  0  0  0
    2.9540   -1.2613    0.0000 C   0  0  0  0  0  0  0  0  0  0  0  0
    4.2853   -1.9524    0.0000 C   0  0  0  0  0  0  0  0  0  0  0  0
    4.3524   -3.4509    0.0000 O   0  0  0  0  0  0  0  0  0  0  0  0
    5.5495   -1.1451    0.0000 C   0  0  0  0  0  0  0  0  0  0  0  0
    5.4824    0.3534    0.0000 C   0  0  0  0  0  0  0  0  0  0  0  0
    6.7466    1.1608    0.0000 C   0  0  0  0  0  0  0  0  0  0  0  0
    6.6795    2.6593    0.0000 C   0  0  0  0  0  0  0  0  0  0  0  0
    7.9437    3.4666    0.0000 O   0  0  0  0  0  0  0  0  0  0  0  0
    5.3482    3.3504    0.0000 C   0  0  0  0  0  0  0  0  0  0  0  0
    4.0840    2.5431    0.0000 C   0  0  0  0  0  0  0  0  0  0  0  0
    4.1511    1.0446    0.0000 C   0  0  0  0  0  0  0  0  0  0  0  0
    2.8198    1.7357    0.0000 C   0  0  0  0  0  0  0  0  0  0  0  0
    2.8869    0.2372    0.0000 C   0  0  0  0  0  0  0  0  0  0  0  0
    1.5556    0.9284    0.0000 C   0  0  0  0  0  0  0  0  0  0  0  0
    0.2915    0.1210    0.0000 C   0  0  0  0  0  0  0  0  0  0  0  0
    0.3586   -1.3775    0.0000 C   0  0  0  0  0  0  0  0  0  0  0  0
   -1.0377   -0.8293    0.0000 C   0  0  0  0  0  0  0  0  0  0  0  0
  2  1  1  6
  2  3  1  0
  3  4  1  0
  4  5  1  0
  5  6  2  0
  5  7  1  0
  7  8  2  0
  8  9  1  0
  9 10  2  0
 10 11  1  0
 11 12  2  0
  2 13  1  0
 13 14  1  6
 14 15  1  0
 16 15  1  6
 16 17  1  0
 17 18  1  1
 18 19  1  1
 18 20  1  0
 21 20  1  1
 21 22  1  0
 22 23  1  0
 23 24  1  1
 23 25  1  0
 25 26  1  0
 26 27  1  0
 27 28  1  6
 27 29  1  0
 29 30  1  6
 30 31  1  0
 31 32  1  0
 32 33  1  6
 12  7  1  0
 32 13  1  0
 32 16  1  0
 29 17  1  0
 27 21  1  0
M  END
>  <MS_ID>  (1157) 
MS1203

>  <SMILES>  (1157) 
C[C@H](CCC(=O)c1cnccn1)[C@H]1CC[C@H]2[C@@H]3[C@H](O)C[C@@H]4C[C@H](O)CC[C@]4(C)[C@H]3CC[C@]12C

>  <Structure_dimension>  (1157) 
2D

$$$$
MS1204
     RDKit          2D

 29 32  0  0  0  0  0  0  0  0999 V2000
   -4.6551   -2.6180    0.0000 C   0  0  0  0  0  0  0  0  0  0  0  0
   -3.5633   -1.5894    0.0000 C   0  0  0  0  0  0  0  0  0  0  0  0
   -3.9081   -0.1296    0.0000 C   0  0  0  0  0  0  0  0  0  0  0  0
   -5.3448    0.3016    0.0000 C   0  0  0  0  0  0  0  0  0  0  0  0
   -5.6897    1.7615    0.0000 C   0  0  0  0  0  0  0  0  0  0  0  0
   -4.5979    2.7900    0.0000 O   0  0  0  0  0  0  0  0  0  0  0  0
   -7.1264    2.1927    0.0000 N   0  0  0  0  0  0  0  0  0  0  0  0
   -7.4712    3.6525    0.0000 N   0  0  0  0  0  0  0  0  0  0  0  0
   -2.1266   -2.0207    0.0000 C   0  0  0  0  0  0  0  0  0  0  0  0
   -1.6310   -3.4364    0.0000 C   0  0  0  0  0  0  0  0  0  0  0  0
   -0.1314   -3.4026    0.0000 C   0  0  0  0  0  0  0  0  0  0  0  0
    0.2998   -1.9659    0.0000 C   0  0  0  0  0  0  0  0  0  0  0  0
    1.6561   -1.3251    0.0000 C   0  0  0  0  0  0  0  0  0  0  0  0
    2.8892   -2.1792    0.0000 C   0  0  0  0  0  0  0  0  0  0  0  0
    2.7660   -3.6741    0.0000 O   0  0  0  0  0  0  0  0  0  0  0  0
    4.2454   -1.5383    0.0000 C   0  0  0  0  0  0  0  0  0  0  0  0
    4.3685   -0.0434    0.0000 C   0  0  0  0  0  0  0  0  0  0  0  0
    5.7247    0.5975    0.0000 C   0  0  0  0  0  0  0  0  0  0  0  0
    5.8478    2.0924    0.0000 C   0  0  0  0  0  0  0  0  0  0  0  0
    7.2040    2.7332    0.0000 O   0  0  0  0  0  0  0  0  0  0  0  0
    4.6147    2.9465    0.0000 C   0  0  0  0  0  0  0  0  0  0  0  0
    3.2585    2.3056    0.0000 C   0  0  0  0  0  0  0  0  0  0  0  0
    3.1354    0.8107    0.0000 C   0  0  0  0  0  0  0  0  0  0  0  0
    1.9023    1.6648    0.0000 C   0  0  0  0  0  0  0  0  0  0  0  0
    1.7792    0.1699    0.0000 C   0  0  0  0  0  0  0  0  0  0  0  0
    0.5461    1.0239    0.0000 C   0  0  0  0  0  0  0  0  0  0  0  0
   -0.8101    0.3831    0.0000 C   0  0  0  0  0  0  0  0  0  0  0  0
   -0.9333   -1.1118    0.0000 C   0  0  0  0  0  0  0  0  0  0  0  0
   -2.2489   -0.3913    0.0000 C   0  0  0  0  0  0  0  0  0  0  0  0
  2  1  1  6
  2  3  1  0
  3  4  1  0
  4  5  1  0
  5  6  2  0
  5  7  1  0
  7  8  1  0
  2  9  1  0
  9 10  1  6
 10 11  1  0
 12 11  1  6
 12 13  1  0
 13 14  1  1
 14 15  1  1
 14 16  1  0
 17 16  1  1
 17 18  1  0
 18 19  1  0
 19 20  2  0
 19 21  1  0
 21 22  1  0
 22 23  1  0
 23 24  1  6
 23 25  1  0
 25 26  1  6
 26 27  1  0
 27 28  1  0
 28 29  1  6
 28  9  1  0
 28 12  1  0
 25 13  1  0
 23 17  1  0
M  END
>  <MS_ID>  (1158) 
MS1204

>  <SMILES>  (1158) 
C[C@H](CCC(=O)NN)[C@H]1CC[C@H]2[C@@H]3[C@H](O)C[C@@H]4CC(=O)CC[C@]4(C)[C@H]3CC[C@]12C

>  <Structure_dimension>  (1158) 
2D

$$$$
MS1205
     RDKit          2D

 30 33  0  0  0  0  0  0  0  0999 V2000
   -8.9136    3.2062    0.0000 C   0  0  0  0  0  0  0  0  0  0  0  0
   -7.4457    2.8978    0.0000 C   0  0  0  0  0  0  0  0  0  0  0  0
   -6.9787    1.4724    0.0000 N   0  0  0  0  0  0  0  0  0  0  0  0
   -5.5108    1.1640    0.0000 C   0  0  0  0  0  0  0  0  0  0  0  0
   -4.5097    2.2811    0.0000 O   0  0  0  0  0  0  0  0  0  0  0  0
   -5.0438   -0.2615    0.0000 C   0  0  0  0  0  0  0  0  0  0  0  0
   -3.5759   -0.5698    0.0000 C   0  0  0  0  0  0  0  0  0  0  0  0
   -3.1089   -1.9953    0.0000 C   0  0  0  0  0  0  0  0  0  0  0  0
   -4.1099   -3.1124    0.0000 C   0  0  0  0  0  0  0  0  0  0  0  0
   -1.6409   -2.3036    0.0000 C   0  0  0  0  0  0  0  0  0  0  0  0
   -1.0276   -3.6725    0.0000 C   0  0  0  0  0  0  0  0  0  0  0  0
    0.4638   -3.5121    0.0000 C   0  0  0  0  0  0  0  0  0  0  0  0
    0.7722   -2.0441    0.0000 C   0  0  0  0  0  0  0  0  0  0  0  0
    2.0694   -1.2910    0.0000 C   0  0  0  0  0  0  0  0  0  0  0  0
    3.3703   -2.0379    0.0000 C   0  0  0  0  0  0  0  0  0  0  0  0
    3.3739   -3.5379    0.0000 O   0  0  0  0  0  0  0  0  0  0  0  0
    4.6675   -1.2848    0.0000 C   0  0  0  0  0  0  0  0  0  0  0  0
    4.6639    0.2152    0.0000 C   0  0  0  0  0  0  0  0  0  0  0  0
    5.9611    0.9683    0.0000 C   0  0  0  0  0  0  0  0  0  0  0  0
    5.9575    2.4683    0.0000 C   0  0  0  0  0  0  0  0  0  0  0  0
    7.2548    3.2214    0.0000 O   0  0  0  0  0  0  0  0  0  0  0  0
    4.6567    3.2152    0.0000 C   0  0  0  0  0  0  0  0  0  0  0  0
    3.3595    2.4621    0.0000 C   0  0  0  0  0  0  0  0  0  0  0  0
    3.3631    0.9621    0.0000 C   0  0  0  0  0  0  0  0  0  0  0  0
    2.0622    1.7090    0.0000 C   0  0  0  0  0  0  0  0  0  0  0  0
    2.0658    0.2090    0.0000 C   0  0  0  0  0  0  0  0  0  0  0  0
    0.7650    0.9559    0.0000 C   0  0  0  0  0  0  0  0  0  0  0  0
   -0.5322    0.2027    0.0000 C   0  0  0  0  0  0  0  0  0  0  0  0
   -0.5286   -1.2973    0.0000 C   0  0  0  0  0  0  0  0  0  0  0  0
   -1.9004   -0.6904    0.0000 C   0  0  0  0  0  0  0  0  0  0  0  0
  1  2  1  0
  2  3  1  0
  3  4  1  0
  4  5  2  0
  4  6  1  0
  6  7  1  0
  7  8  1  0
  8  9  1  6
  8 10  1  0
 10 11  1  6
 11 12  1  0
 13 12  1  6
 13 14  1  0
 14 15  1  1
 15 16  1  1
 15 17  1  0
 18 17  1  1
 18 19  1  0
 19 20  1  0
 20 21  1  1
 20 22  1  0
 22 23  1  0
 23 24  1  0
 24 25  1  6
 24 26  1  0
 26 27  1  6
 27 28  1  0
 28 29  1  0
 29 30  1  6
 29 10  1  0
 29 13  1  0
 26 14  1  0
 24 18  1  0
M  END
>  <MS_ID>  (1159) 
MS1205

>  <SMILES>  (1159) 
CCNC(=O)CC[C@@H](C)[C@H]1CC[C@H]2[C@@H]3[C@H](O)C[C@@H]4C[C@H](O)CC[C@]4(C)[C@H]3CC[C@]12C

>  <Structure_dimension>  (1159) 
2D

$$$$
MS1206
     RDKit          2D

 33 36  0  0  0  0  0  0  0  0999 V2000
   -2.9718   -4.0164    0.0000 C   0  0  0  0  0  0  0  0  0  0  0  0
   -2.1546   -2.7585    0.0000 C   0  0  0  0  0  0  0  0  0  0  0  0
   -2.8353   -1.4219    0.0000 C   0  0  0  0  0  0  0  0  0  0  0  0
   -4.3332   -1.3431    0.0000 C   0  0  0  0  0  0  0  0  0  0  0  0
   -5.0139   -0.0064    0.0000 C   0  0  0  0  0  0  0  0  0  0  0  0
   -4.1967    1.2514    0.0000 O   0  0  0  0  0  0  0  0  0  0  0  0
   -6.5119    0.0724    0.0000 N   0  0  0  0  0  0  0  0  0  0  0  0
   -7.1926    1.4090    0.0000 C   0  0  0  0  0  0  0  0  0  0  0  0
   -8.6905    1.4878    0.0000 C   0  0  0  0  0  0  0  0  0  0  0  0
   -6.3754    2.6668    0.0000 C   0  0  0  0  0  0  0  0  0  0  0  0
   -4.8775    2.5881    0.0000 O   0  0  0  0  0  0  0  0  0  0  0  0
   -7.0561    4.0035    0.0000 O   0  0  0  0  0  0  0  0  0  0  0  0
   -0.6566   -2.8373    0.0000 C   0  0  0  0  0  0  0  0  0  0  0  0
    0.1601   -4.0955    0.0000 C   0  0  0  0  0  0  0  0  0  0  0  0
    1.6091   -3.7075    0.0000 C   0  0  0  0  0  0  0  0  0  0  0  0
    1.6878   -2.2096    0.0000 C   0  0  0  0  0  0  0  0  0  0  0  0
    2.8537   -1.2658    0.0000 C   0  0  0  0  0  0  0  0  0  0  0  0
    4.2540   -1.8037    0.0000 C   0  0  0  0  0  0  0  0  0  0  0  0
    4.4884   -3.2852    0.0000 O   0  0  0  0  0  0  0  0  0  0  0  0
    5.4199   -0.8599    0.0000 C   0  0  0  0  0  0  0  0  0  0  0  0
    5.1855    0.6217    0.0000 C   0  0  0  0  0  0  0  0  0  0  0  0
    6.3514    1.5654    0.0000 C   0  0  0  0  0  0  0  0  0  0  0  0
    6.1171    3.0470    0.0000 C   0  0  0  0  0  0  0  0  0  0  0  0
    7.2830    3.9908    0.0000 O   0  0  0  0  0  0  0  0  0  0  0  0
    4.7168    3.5848    0.0000 C   0  0  0  0  0  0  0  0  0  0  0  0
    3.5509    2.6411    0.0000 C   0  0  0  0  0  0  0  0  0  0  0  0
    3.7853    1.1595    0.0000 C   0  0  0  0  0  0  0  0  0  0  0  0
    2.3850    1.6973    0.0000 C   0  0  0  0  0  0  0  0  0  0  0  0
    2.6194    0.2157    0.0000 C   0  0  0  0  0  0  0  0  0  0  0  0
    1.2191    0.7536    0.0000 C   0  0  0  0  0  0  0  0  0  0  0  0
    0.0532   -0.1902    0.0000 C   0  0  0  0  0  0  0  0  0  0  0  0
    0.2876   -1.6718    0.0000 C   0  0  0  0  0  0  0  0  0  0  0  0
   -1.1612   -1.2833    0.0000 C   0  0  0  0  0  0  0  0  0  0  0  0
  2  1  1  6
  2  3  1  0
  3  4  1  0
  4  5  1  0
  5  6  2  0
  5  7  1  0
  7  8  1  0
  8  9  1  6
  8 10  1  0
 10 11  2  0
 10 12  1  0
  2 13  1  0
 13 14  1  6
 14 15  1  0
 16 15  1  6
 16 17  1  0
 17 18  1  1
 18 19  1  1
 18 20  1  0
 21 20  1  1
 21 22  1  0
 22 23  1  0
 23 24  1  1
 23 25  1  0
 25 26  1  0
 26 27  1  0
 27 28  1  6
 27 29  1  0
 29 30  1  6
 30 31  1  0
 31 32  1  0
 32 33  1  6
 32 13  1  0
 32 16  1  0
 29 17  1  0
 27 21  1  0
M  END
>  <MS_ID>  (1160) 
MS1206

>  <SMILES>  (1160) 
C[C@H](CCC(=O)N[C@H](C)C(=O)O)[C@H]1CC[C@H]2[C@@H]3[C@H](O)C[C@@H]4C[C@H](O)CC[C@]4(C)[C@H]3CC[C@]12C

>  <Structure_dimension>  (1160) 
2D

$$$$
MS1207
     RDKit          2D

 34 37  0  0  0  0  0  0  0  0999 V2000
   -2.5731   -3.9443    0.0000 C   0  0  0  0  0  0  0  0  0  0  0  0
   -1.7632   -2.6818    0.0000 C   0  0  0  0  0  0  0  0  0  0  0  0
   -2.4515   -1.3491    0.0000 C   0  0  0  0  0  0  0  0  0  0  0  0
   -3.9499   -1.2789    0.0000 C   0  0  0  0  0  0  0  0  0  0  0  0
   -4.6383    0.0539    0.0000 C   0  0  0  0  0  0  0  0  0  0  0  0
   -3.8283    1.3164    0.0000 O   0  0  0  0  0  0  0  0  0  0  0  0
   -6.1366    0.1241    0.0000 O   0  0  0  0  0  0  0  0  0  0  0  0
   -6.8250    1.4568    0.0000 C   0  0  0  0  0  0  0  0  0  0  0  0
   -8.3233    1.5270    0.0000 C   0  0  0  0  0  0  0  0  0  0  0  0
   -9.1333    0.2645    0.0000 O   0  0  0  0  0  0  0  0  0  0  0  0
   -9.0117    2.8597    0.0000 C   0  0  0  0  0  0  0  0  0  0  0  0
  -10.5101    2.9299    0.0000 O   0  0  0  0  0  0  0  0  0  0  0  0
   -0.2648   -2.7520    0.0000 C   0  0  0  0  0  0  0  0  0  0  0  0
    0.5591   -4.0055    0.0000 C   0  0  0  0  0  0  0  0  0  0  0  0
    2.0058   -3.6092    0.0000 C   0  0  0  0  0  0  0  0  0  0  0  0
    2.0760   -2.1109    0.0000 C   0  0  0  0  0  0  0  0  0  0  0  0
    3.2365   -1.1605    0.0000 C   0  0  0  0  0  0  0  0  0  0  0  0
    4.6398   -1.6902    0.0000 C   0  0  0  0  0  0  0  0  0  0  0  0
    4.8827   -3.1705    0.0000 O   0  0  0  0  0  0  0  0  0  0  0  0
    5.8003   -0.7398    0.0000 C   0  0  0  0  0  0  0  0  0  0  0  0
    5.5575    0.7404    0.0000 C   0  0  0  0  0  0  0  0  0  0  0  0
    6.7179    1.6908    0.0000 C   0  0  0  0  0  0  0  0  0  0  0  0
    6.4751    3.1710    0.0000 C   0  0  0  0  0  0  0  0  0  0  0  0
    7.6356    4.1214    0.0000 O   0  0  0  0  0  0  0  0  0  0  0  0
    5.0718    3.7008    0.0000 C   0  0  0  0  0  0  0  0  0  0  0  0
    3.9113    2.7504    0.0000 C   0  0  0  0  0  0  0  0  0  0  0  0
    4.1541    1.2702    0.0000 C   0  0  0  0  0  0  0  0  0  0  0  0
    2.7508    1.8000    0.0000 C   0  0  0  0  0  0  0  0  0  0  0  0
    2.9937    0.3198    0.0000 C   0  0  0  0  0  0  0  0  0  0  0  0
    1.5903    0.8496    0.0000 C   0  0  0  0  0  0  0  0  0  0  0  0
    0.4299   -0.1009    0.0000 C   0  0  0  0  0  0  0  0  0  0  0  0
   -0.9735    0.4289    0.0000 O   0  0  0  0  0  0  0  0  0  0  0  0
    0.6727   -1.5811    0.0000 C   0  0  0  0  0  0  0  0  0  0  0  0
   -0.7783   -1.2009    0.0000 C   0  0  0  0  0  0  0  0  0  0  0  0
  2  1  1  6
  2  3  1  0
  3  4  1  0
  4  5  1  0
  5  6  2  0
  5  7  1  0
  7  8  1  0
  8  9  1  0
  9 10  1  1
  9 11  1  0
 11 12  1  0
  2 13  1  0
 13 14  1  6
 14 15  1  0
 16 15  1  6
 16 17  1  0
 17 18  1  1
 18 19  1  1
 18 20  1  0
 21 20  1  1
 21 22  1  0
 22 23  1  0
 23 24  1  1
 23 25  1  0
 25 26  1  0
 26 27  1  0
 27 28  1  6
 27 29  1  0
 29 30  1  6
 30 31  1  0
 31 32  1  1
 31 33  1  0
 33 34  1  6
 33 13  1  0
 33 16  1  0
 29 17  1  0
 27 21  1  0
M  END
>  <MS_ID>  (1161) 
MS1207

>  <SMILES>  (1161) 
C[C@H](CCC(=O)OC[C@@H](O)CO)[C@H]1CC[C@H]2[C@@H]3[C@H](O)C[C@@H]4C[C@H](O)CC[C@]4(C)[C@H]3C[C@H](O)[C@]12C

>  <Structure_dimension>  (1161) 
2D

$$$$
MS1208
     RDKit          2D

 34 38  0  0  0  0  0  0  0  0999 V2000
   -2.8489   -4.1271    0.0000 C   0  0  0  0  0  0  0  0  0  0  0  0
   -2.0902   -2.8331    0.0000 C   0  0  0  0  0  0  0  0  0  0  0  0
   -2.8315   -1.5291    0.0000 C   0  0  0  0  0  0  0  0  0  0  0  0
   -4.3315   -1.5191    0.0000 C   0  0  0  0  0  0  0  0  0  0  0  0
   -5.0728   -0.2151    0.0000 C   0  0  0  0  0  0  0  0  0  0  0  0
   -4.3141    1.0789    0.0000 O   0  0  0  0  0  0  0  0  0  0  0  0
   -6.5727   -0.2050    0.0000 C   0  0  0  0  0  0  0  0  0  0  0  0
   -7.3140    1.0990    0.0000 N   0  0  0  0  0  0  0  0  0  0  0  0
   -8.8047    1.2657    0.0000 C   0  0  0  0  0  0  0  0  0  0  0  0
   -9.1068    2.7350    0.0000 C   0  0  0  0  0  0  0  0  0  0  0  0
   -7.8028    3.4763    0.0000 N   0  0  0  0  0  0  0  0  0  0  0  0
   -6.6948    2.4652    0.0000 C   0  0  0  0  0  0  0  0  0  0  0  0
   -0.5902   -2.8432    0.0000 C   0  0  0  0  0  0  0  0  0  0  0  0
    0.2833   -4.0625    0.0000 C   0  0  0  0  0  0  0  0  0  0  0  0
    1.7130   -3.6086    0.0000 C   0  0  0  0  0  0  0  0  0  0  0  0
    1.7230   -2.1086    0.0000 C   0  0  0  0  0  0  0  0  0  0  0  0
    2.8444   -1.1124    0.0000 C   0  0  0  0  0  0  0  0  0  0  0  0
    4.2678   -1.5854    0.0000 C   0  0  0  0  0  0  0  0  0  0  0  0
    4.5699   -3.0547    0.0000 O   0  0  0  0  0  0  0  0  0  0  0  0
    5.3892   -0.5892    0.0000 C   0  0  0  0  0  0  0  0  0  0  0  0
    6.8127   -1.0622    0.0000 O   0  0  0  0  0  0  0  0  0  0  0  0
    5.0872    0.8801    0.0000 C   0  0  0  0  0  0  0  0  0  0  0  0
    6.2086    1.8763    0.0000 C   0  0  0  0  0  0  0  0  0  0  0  0
    5.9065    3.3456    0.0000 C   0  0  0  0  0  0  0  0  0  0  0  0
    7.0279    4.3418    0.0000 O   0  0  0  0  0  0  0  0  0  0  0  0
    4.4831    3.8186    0.0000 C   0  0  0  0  0  0  0  0  0  0  0  0
    3.3617    2.8224    0.0000 C   0  0  0  0  0  0  0  0  0  0  0  0
    3.6637    1.3531    0.0000 C   0  0  0  0  0  0  0  0  0  0  0  0
    2.2403    1.8262    0.0000 C   0  0  0  0  0  0  0  0  0  0  0  0
    2.5423    0.3569    0.0000 C   0  0  0  0  0  0  0  0  0  0  0  0
    1.1189    0.8299    0.0000 C   0  0  0  0  0  0  0  0  0  0  0  0
   -0.0025   -0.1663    0.0000 C   0  0  0  0  0  0  0  0  0  0  0  0
    0.2995   -1.6355    0.0000 C   0  0  0  0  0  0  0  0  0  0  0  0
   -1.1656   -1.3139    0.0000 C   0  0  0  0  0  0  0  0  0  0  0  0
  2  1  1  6
  2  3  1  0
  3  4  1  0
  4  5  1  0
  5  6  2  0
  5  7  1  0
  7  8  1  0
  8  9  1  0
  9 10  2  0
 10 11  1  0
 11 12  2  0
  2 13  1  0
 13 14  1  6
 14 15  1  0
 16 15  1  6
 16 17  1  0
 17 18  1  1
 18 19  1  1
 18 20  1  0
 20 21  1  1
 20 22  1  0
 22 23  1  1
 23 24  1  0
 24 25  1  1
 24 26  1  0
 26 27  1  0
 27 28  1  0
 28 29  1  6
 28 30  1  0
 30 31  1  6
 31 32  1  0
 32 33  1  0
 33 34  1  6
 12  8  1  0
 33 13  1  0
 33 16  1  0
 30 17  1  0
 28 22  1  0
M  END
>  <MS_ID>  (1162) 
MS1208

>  <SMILES>  (1162) 
C[C@H](CCC(=O)Cn1ccnc1)[C@H]1CC[C@H]2[C@@H]3[C@H](O)[C@H](O)[C@@H]4C[C@H](O)CC[C@]4(C)[C@H]3CC[C@]12C

>  <Structure_dimension>  (1162) 
2D

$$$$
MS1209
     RDKit          2D

 32 35  0  0  0  0  0  0  0  0999 V2000
   -2.9090   -3.9078    0.0000 C   0  0  0  0  0  0  0  0  0  0  0  0
   -2.0926   -2.6494    0.0000 C   0  0  0  0  0  0  0  0  0  0  0  0
   -2.7741   -1.3132    0.0000 C   0  0  0  0  0  0  0  0  0  0  0  0
   -4.2721   -1.2353    0.0000 C   0  0  0  0  0  0  0  0  0  0  0  0
   -4.9536    0.1009    0.0000 C   0  0  0  0  0  0  0  0  0  0  0  0
   -4.1372    1.3592    0.0000 O   0  0  0  0  0  0  0  0  0  0  0  0
   -6.4516    0.1788    0.0000 N   0  0  0  0  0  0  0  0  0  0  0  0
   -7.1332    1.5150    0.0000 C   0  0  0  0  0  0  0  0  0  0  0  0
   -8.6311    1.5929    0.0000 C   0  0  0  0  0  0  0  0  0  0  0  0
   -9.3127    2.9291    0.0000 C   0  0  0  0  0  0  0  0  0  0  0  0
  -10.8107    3.0070    0.0000 O   0  0  0  0  0  0  0  0  0  0  0  0
   -0.5946   -2.7273    0.0000 C   0  0  0  0  0  0  0  0  0  0  0  0
    0.2229   -3.9850    0.0000 C   0  0  0  0  0  0  0  0  0  0  0  0
    1.6716   -3.5962    0.0000 C   0  0  0  0  0  0  0  0  0  0  0  0
    1.7495   -2.0982    0.0000 C   0  0  0  0  0  0  0  0  0  0  0  0
    2.9148   -1.1537    0.0000 C   0  0  0  0  0  0  0  0  0  0  0  0
    4.3154   -1.6907    0.0000 C   0  0  0  0  0  0  0  0  0  0  0  0
    4.5507   -3.1721    0.0000 O   0  0  0  0  0  0  0  0  0  0  0  0
    5.4807   -0.7462    0.0000 C   0  0  0  0  0  0  0  0  0  0  0  0
    5.2455    0.7352    0.0000 C   0  0  0  0  0  0  0  0  0  0  0  0
    6.4108    1.6797    0.0000 C   0  0  0  0  0  0  0  0  0  0  0  0
    6.1755    3.1611    0.0000 C   0  0  0  0  0  0  0  0  0  0  0  0
    7.3408    4.1056    0.0000 O   0  0  0  0  0  0  0  0  0  0  0  0
    4.7749    3.6981    0.0000 C   0  0  0  0  0  0  0  0  0  0  0  0
    3.6096    2.7536    0.0000 C   0  0  0  0  0  0  0  0  0  0  0  0
    3.8449    1.2722    0.0000 C   0  0  0  0  0  0  0  0  0  0  0  0
    2.4443    1.8091    0.0000 C   0  0  0  0  0  0  0  0  0  0  0  0
    2.6795    0.3277    0.0000 C   0  0  0  0  0  0  0  0  0  0  0  0
    1.2789    0.8647    0.0000 C   0  0  0  0  0  0  0  0  0  0  0  0
    0.1136   -0.0798    0.0000 C   0  0  0  0  0  0  0  0  0  0  0  0
    0.3489   -1.5612    0.0000 C   0  0  0  0  0  0  0  0  0  0  0  0
   -1.1002   -1.1736    0.0000 C   0  0  0  0  0  0  0  0  0  0  0  0
  2  1  1  6
  2  3  1  0
  3  4  1  0
  4  5  1  0
  5  6  2  0
  5  7  1  0
  7  8  1  0
  8  9  1  0
  9 10  1  0
 10 11  1  0
  2 12  1  0
 12 13  1  6
 13 14  1  0
 15 14  1  6
 15 16  1  0
 16 17  1  1
 17 18  1  1
 17 19  1  0
 20 19  1  1
 20 21  1  0
 21 22  1  0
 22 23  1  1
 22 24  1  0
 24 25  1  0
 25 26  1  0
 26 27  1  6
 26 28  1  0
 28 29  1  6
 29 30  1  0
 30 31  1  0
 31 32  1  6
 31 12  1  0
 31 15  1  0
 28 16  1  0
 26 20  1  0
M  END
>  <MS_ID>  (1163) 
MS1209

>  <SMILES>  (1163) 
C[C@H](CCC(=O)NCCCO)[C@H]1CC[C@H]2[C@@H]3[C@H](O)C[C@@H]4C[C@H](O)CC[C@]4(C)[C@H]3CC[C@]12C

>  <Structure_dimension>  (1163) 
2D

$$$$
MS1210
     RDKit          2D

 33 37  0  0  0  0  0  0  0  0999 V2000
   -3.1427   -3.3426    0.0000 C   0  0  0  0  0  0  0  0  0  0  0  0
   -2.1899   -2.1841    0.0000 C   0  0  0  0  0  0  0  0  0  0  0  0
   -2.7167   -0.7797    0.0000 C   0  0  0  0  0  0  0  0  0  0  0  0
   -4.1964   -0.5338    0.0000 C   0  0  0  0  0  0  0  0  0  0  0  0
   -4.7233    0.8707    0.0000 C   0  0  0  0  0  0  0  0  0  0  0  0
   -3.7705    2.0292    0.0000 O   0  0  0  0  0  0  0  0  0  0  0  0
   -6.2030    1.1166    0.0000 C   0  0  0  0  0  0  0  0  0  0  0  0
   -6.7299    2.5210    0.0000 C   0  0  0  0  0  0  0  0  0  0  0  0
   -8.2096    2.7669    0.0000 C   0  0  0  0  0  0  0  0  0  0  0  0
   -9.1624    1.6084    0.0000 N   0  0  0  0  0  0  0  0  0  0  0  0
   -8.6355    0.2040    0.0000 C   0  0  0  0  0  0  0  0  0  0  0  0
   -7.1558   -0.0419    0.0000 C   0  0  0  0  0  0  0  0  0  0  0  0
   -0.7102   -2.4300    0.0000 C   0  0  0  0  0  0  0  0  0  0  0  0
   -0.0394   -3.7717    0.0000 C   0  0  0  0  0  0  0  0  0  0  0  0
    1.4439   -3.5483    0.0000 C   0  0  0  0  0  0  0  0  0  0  0  0
    1.6898   -2.0686    0.0000 C   0  0  0  0  0  0  0  0  0  0  0  0
    2.9540   -1.2613    0.0000 C   0  0  0  0  0  0  0  0  0  0  0  0
    4.2853   -1.9524    0.0000 C   0  0  0  0  0  0  0  0  0  0  0  0
    4.3524   -3.4509    0.0000 O   0  0  0  0  0  0  0  0  0  0  0  0
    5.5495   -1.1451    0.0000 C   0  0  0  0  0  0  0  0  0  0  0  0
    5.4824    0.3534    0.0000 C   0  0  0  0  0  0  0  0  0  0  0  0
    6.7466    1.1608    0.0000 C   0  0  0  0  0  0  0  0  0  0  0  0
    6.6795    2.6593    0.0000 C   0  0  0  0  0  0  0  0  0  0  0  0
    7.9437    3.4666    0.0000 O   0  0  0  0  0  0  0  0  0  0  0  0
    5.3482    3.3504    0.0000 C   0  0  0  0  0  0  0  0  0  0  0  0
    4.0840    2.5431    0.0000 C   0  0  0  0  0  0  0  0  0  0  0  0
    4.1511    1.0446    0.0000 C   0  0  0  0  0  0  0  0  0  0  0  0
    2.8198    1.7357    0.0000 C   0  0  0  0  0  0  0  0  0  0  0  0
    2.8869    0.2372    0.0000 C   0  0  0  0  0  0  0  0  0  0  0  0
    1.5556    0.9284    0.0000 C   0  0  0  0  0  0  0  0  0  0  0  0
    0.2915    0.1210    0.0000 C   0  0  0  0  0  0  0  0  0  0  0  0
    0.3586   -1.3775    0.0000 C   0  0  0  0  0  0  0  0  0  0  0  0
   -1.0377   -0.8293    0.0000 C   0  0  0  0  0  0  0  0  0  0  0  0
  2  1  1  6
  2  3  1  0
  3  4  1  0
  4  5  1  0
  5  6  2  0
  5  7  1  0
  7  8  2  0
  8  9  1  0
  9 10  2  0
 10 11  1  0
 11 12  2  0
  2 13  1  0
 13 14  1  6
 14 15  1  0
 16 15  1  6
 16 17  1  0
 17 18  1  1
 18 19  1  1
 18 20  1  0
 21 20  1  1
 21 22  1  0
 22 23  1  0
 23 24  1  1
 23 25  1  0
 25 26  1  0
 26 27  1  0
 27 28  1  6
 27 29  1  0
 29 30  1  6
 30 31  1  0
 31 32  1  0
 32 33  1  6
 12  7  1  0
 32 13  1  0
 32 16  1  0
 29 17  1  0
 27 21  1  0
M  END
>  <MS_ID>  (1164) 
MS1210

>  <SMILES>  (1164) 
C[C@H](CCC(=O)c1ccncc1)[C@H]1CC[C@H]2[C@@H]3[C@H](O)C[C@@H]4C[C@H](O)CC[C@]4(C)[C@H]3CC[C@]12C

>  <Structure_dimension>  (1164) 
2D

$$$$
MS1211
     RDKit          2D

 30 33  0  0  0  0  0  0  0  0999 V2000
   -4.5685   -2.6908    0.0000 C   0  0  0  0  0  0  0  0  0  0  0  0
   -3.4838   -1.6548    0.0000 C   0  0  0  0  0  0  0  0  0  0  0  0
   -3.8388   -0.1974    0.0000 C   0  0  0  0  0  0  0  0  0  0  0  0
   -5.2784    0.2240    0.0000 C   0  0  0  0  0  0  0  0  0  0  0  0
   -5.6333    1.6814    0.0000 C   0  0  0  0  0  0  0  0  0  0  0  0
   -4.5486    2.7174    0.0000 O   0  0  0  0  0  0  0  0  0  0  0  0
   -7.0729    2.1027    0.0000 N   0  0  0  0  0  0  0  0  0  0  0  0
   -7.4279    3.5601    0.0000 O   0  0  0  0  0  0  0  0  0  0  0  0
   -2.0442   -2.0761    0.0000 C   0  0  0  0  0  0  0  0  0  0  0  0
   -1.5389   -3.4884    0.0000 C   0  0  0  0  0  0  0  0  0  0  0  0
   -0.0395   -3.4442    0.0000 C   0  0  0  0  0  0  0  0  0  0  0  0
    0.3818   -2.0046    0.0000 C   0  0  0  0  0  0  0  0  0  0  0  0
    1.7336   -1.3544    0.0000 C   0  0  0  0  0  0  0  0  0  0  0  0
    2.9725   -2.1999    0.0000 C   0  0  0  0  0  0  0  0  0  0  0  0
    2.8597   -3.6957    0.0000 O   0  0  0  0  0  0  0  0  0  0  0  0
    4.3243   -1.5497    0.0000 C   0  0  0  0  0  0  0  0  0  0  0  0
    4.4371   -0.0540    0.0000 C   0  0  0  0  0  0  0  0  0  0  0  0
    5.7888    0.5962    0.0000 C   0  0  0  0  0  0  0  0  0  0  0  0
    5.9016    2.0920    0.0000 C   0  0  0  0  0  0  0  0  0  0  0  0
    7.2534    2.7422    0.0000 O   0  0  0  0  0  0  0  0  0  0  0  0
    4.6627    2.9375    0.0000 C   0  0  0  0  0  0  0  0  0  0  0  0
    3.3109    2.2873    0.0000 C   0  0  0  0  0  0  0  0  0  0  0  0
    3.1981    0.7916    0.0000 C   0  0  0  0  0  0  0  0  0  0  0  0
    1.9591    1.6371    0.0000 C   0  0  0  0  0  0  0  0  0  0  0  0
    1.8464    0.1414    0.0000 C   0  0  0  0  0  0  0  0  0  0  0  0
    0.6074    0.9869    0.0000 C   0  0  0  0  0  0  0  0  0  0  0  0
   -0.7444    0.3367    0.0000 C   0  0  0  0  0  0  0  0  0  0  0  0
   -1.9833    1.1823    0.0000 O   0  0  0  0  0  0  0  0  0  0  0  0
   -0.8572   -1.1590    0.0000 C   0  0  0  0  0  0  0  0  0  0  0  0
   -2.1777   -0.4476    0.0000 C   0  0  0  0  0  0  0  0  0  0  0  0
  2  1  1  6
  2  3  1  0
  3  4  1  0
  4  5  1  0
  5  6  2  0
  5  7  1  0
  7  8  1  0
  2  9  1  0
  9 10  1  6
 10 11  1  0
 12 11  1  6
 12 13  1  0
 13 14  1  1
 14 15  2  0
 14 16  1  0
 17 16  1  1
 17 18  1  0
 18 19  1  0
 19 20  1  1
 19 21  1  0
 21 22  1  0
 22 23  1  0
 23 24  1  6
 23 25  1  0
 25 26  1  6
 26 27  1  0
 27 28  1  1
 27 29  1  0
 29 30  1  6
 29  9  1  0
 29 12  1  0
 25 13  1  0
 23 17  1  0
M  END
>  <MS_ID>  (1165) 
MS1211

>  <SMILES>  (1165) 
C[C@H](CCC(=O)NO)[C@H]1CC[C@H]2[C@@H]3C(=O)C[C@@H]4C[C@H](O)CC[C@]4(C)[C@H]3C[C@H](O)[C@]12C

>  <Structure_dimension>  (1165) 
2D

$$$$
MS1212
     RDKit          2D

 31 34  0  0  0  0  0  0  0  0999 V2000
   -4.8398   -2.4224    0.0000 C   0  0  0  0  0  0  0  0  0  0  0  0
   -3.6593   -1.4969    0.0000 C   0  0  0  0  0  0  0  0  0  0  0  0
   -3.8704   -0.0119    0.0000 C   0  0  0  0  0  0  0  0  0  0  0  0
   -5.2621    0.5478    0.0000 C   0  0  0  0  0  0  0  0  0  0  0  0
   -5.4733    2.0328    0.0000 C   0  0  0  0  0  0  0  0  0  0  0  0
   -4.2928    2.9582    0.0000 O   0  0  0  0  0  0  0  0  0  0  0  0
   -6.8650    2.5924    0.0000 O   0  0  0  0  0  0  0  0  0  0  0  0
   -2.2676   -2.0566    0.0000 C   0  0  0  0  0  0  0  0  0  0  0  0
   -1.9023   -3.5114    0.0000 C   0  0  0  0  0  0  0  0  0  0  0  0
   -0.4058   -3.6136    0.0000 C   0  0  0  0  0  0  0  0  0  0  0  0
    0.1538   -2.2219    0.0000 C   0  0  0  0  0  0  0  0  0  0  0  0
    1.5625   -1.7066    0.0000 C   0  0  0  0  0  0  0  0  0  0  0  0
    2.7132   -2.6689    0.0000 C   0  0  0  0  0  0  0  0  0  0  0  0
    4.1219   -2.1536    0.0000 C   0  0  0  0  0  0  0  0  0  0  0  0
    4.3799   -0.6759    0.0000 C   0  0  0  0  0  0  0  0  0  0  0  0
    5.7886   -0.1606    0.0000 C   0  0  0  0  0  0  0  0  0  0  0  0
    6.0467    1.3170    0.0000 C   0  0  0  0  0  0  0  0  0  0  0  0
    7.4554    1.8324    0.0000 O   0  0  0  0  0  0  0  0  0  0  0  0
    4.8961    2.2793    0.0000 C   0  0  0  0  0  0  0  0  0  0  0  0
    3.4874    1.7640    0.0000 C   0  0  0  0  0  0  0  0  0  0  0  0
    3.2293    0.2864    0.0000 C   0  0  0  0  0  0  0  0  0  0  0  0
    2.0787    1.2487    0.0000 C   0  0  0  0  0  0  0  0  0  0  0  0
    1.8206   -0.2290    0.0000 C   0  0  0  0  0  0  0  0  0  0  0  0
    0.6700    0.7333    0.0000 C   0  0  0  0  0  0  0  0  0  0  0  0
   -0.7387    0.2180    0.0000 C   0  0  0  0  0  0  0  0  0  0  0  0
   -2.2279    0.3984    0.0000 C   0  0  0  0  0  0  0  0  0  0  0  0
   -1.0016    1.6948    0.0000 C   0  0  0  0  0  0  0  0  0  0  0  0
   -2.4120    2.2055    0.0000 O   0  0  0  0  0  0  0  0  0  0  0  0
    0.1459    2.6608    0.0000 O   0  0  0  0  0  0  0  0  0  0  0  0
   -0.9968   -1.2596    0.0000 C   0  0  0  0  0  0  0  0  0  0  0  0
   -2.3344   -0.5809    0.0000 C   0  0  0  0  0  0  0  0  0  0  0  0
  2  1  1  6
  2  3  1  0
  3  4  1  0
  4  5  1  0
  5  6  2  0
  5  7  1  0
  2  8  1  0
  8  9  1  6
  9 10  1  0
 11 10  1  6
 11 12  1  0
 12 13  1  1
 13 14  1  0
 15 14  1  1
 15 16  1  0
 16 17  1  0
 17 18  1  1
 17 19  1  0
 19 20  1  0
 20 21  1  0
 21 22  1  6
 21 23  1  0
 23 24  1  6
 24 25  1  0
 25 26  1  1
 25 27  1  0
 27 28  2  0
 27 29  1  0
 25 30  1  0
 30 31  1  6
 30  8  1  0
 30 11  1  0
 23 12  1  0
 21 15  1  0
M  END
>  <MS_ID>  (1166) 
MS1212

>  <SMILES>  (1166) 
C[C@H](CCC(=O)O)[C@H]1CC[C@H]2[C@@H]3CC[C@@H]4C[C@H](O)CC[C@]4(C)[C@H]3C[C@@](C)(C(=O)O)[C@]12C

>  <Structure_dimension>  (1166) 
2D

$$$$
MS1213
     RDKit          2D

 38 41  0  0  0  0  0  0  0  0999 V2000
   -2.3046   -4.1104    0.0000 C   0  0  0  0  0  0  0  0  0  0  0  0
   -1.7117   -2.7325    0.0000 C   0  0  0  0  0  0  0  0  0  0  0  0
   -2.6086   -1.5302    0.0000 C   0  0  0  0  0  0  0  0  0  0  0  0
   -4.0983   -1.7057    0.0000 C   0  0  0  0  0  0  0  0  0  0  0  0
   -4.9951   -0.5033    0.0000 C   0  0  0  0  0  0  0  0  0  0  0  0
   -4.4023    0.8745    0.0000 O   0  0  0  0  0  0  0  0  0  0  0  0
   -6.4848   -0.6788    0.0000 N   0  0  0  0  0  0  0  0  0  0  0  0
   -7.3817    0.5235    0.0000 C   0  0  0  0  0  0  0  0  0  0  0  0
   -8.8714    0.3480    0.0000 C   0  0  0  0  0  0  0  0  0  0  0  0
   -9.7682    1.5503    0.0000 C   0  0  0  0  0  0  0  0  0  0  0  0
  -11.2579    1.3748    0.0000 C   0  0  0  0  0  0  0  0  0  0  0  0
  -11.8508   -0.0030    0.0000 O   0  0  0  0  0  0  0  0  0  0  0  0
  -12.1548    2.5772    0.0000 O   0  0  0  0  0  0  0  0  0  0  0  0
   -0.2220   -2.5570    0.0000 C   0  0  0  0  0  0  0  0  0  0  0  0
    0.7956   -3.6590    0.0000 C   0  0  0  0  0  0  0  0  0  0  0  0
    2.1581   -3.0318    0.0000 C   0  0  0  0  0  0  0  0  0  0  0  0
    1.9826   -1.5421    0.0000 C   0  0  0  0  0  0  0  0  0  0  0  0
    2.9722   -0.4148    0.0000 C   0  0  0  0  0  0  0  0  0  0  0  0
    4.4432   -0.7082    0.0000 C   0  0  0  0  0  0  0  0  0  0  0  0
    4.9247   -2.1289    0.0000 O   0  0  0  0  0  0  0  0  0  0  0  0
    6.3957   -2.4223    0.0000 S   0  0  0  0  0  0  0  0  0  0  0  0
    6.6891   -0.9513    0.0000 O   0  0  0  0  0  0  0  0  0  0  0  0
    6.1023   -3.8933    0.0000 O   0  0  0  0  0  0  0  0  0  0  0  0
    7.8667   -2.7157    0.0000 O   0  0  0  0  0  0  0  0  0  0  0  0
    5.4329    0.4190    0.0000 C   0  0  0  0  0  0  0  0  0  0  0  0
    4.9514    1.8397    0.0000 C   0  0  0  0  0  0  0  0  0  0  0  0
    5.9411    2.9669    0.0000 C   0  0  0  0  0  0  0  0  0  0  0  0
    5.4597    4.3875    0.0000 C   0  0  0  0  0  0  0  0  0  0  0  0
    6.4493    5.5148    0.0000 O   0  0  0  0  0  0  0  0  0  0  0  0
    3.9886    4.6810    0.0000 C   0  0  0  0  0  0  0  0  0  0  0  0
    2.9990    3.5537    0.0000 C   0  0  0  0  0  0  0  0  0  0  0  0
    3.4804    2.1331    0.0000 C   0  0  0  0  0  0  0  0  0  0  0  0
    2.0094    2.4265    0.0000 C   0  0  0  0  0  0  0  0  0  0  0  0
    2.4908    1.0058    0.0000 C   0  0  0  0  0  0  0  0  0  0  0  0
    1.0198    1.2992    0.0000 C   0  0  0  0  0  0  0  0  0  0  0  0
    0.0302    0.1720    0.0000 C   0  0  0  0  0  0  0  0  0  0  0  0
    0.5116   -1.2486    0.0000 C   0  0  0  0  0  0  0  0  0  0  0  0
   -0.9821   -1.1106    0.0000 C   0  0  0  0  0  0  0  0  0  0  0  0
  2  1  1  6
  2  3  1  0
  3  4  1  0
  4  5  1  0
  5  6  2  0
  5  7  1  0
  7  8  1  0
  8  9  1  0
  9 10  1  0
 10 11  1  0
 11 12  2  0
 11 13  1  0
  2 14  1  0
 14 15  1  6
 15 16  1  0
 17 16  1  6
 17 18  1  0
 18 19  1  1
 19 20  1  6
 20 21  1  0
 21 22  2  0
 21 23  2  0
 21 24  1  0
 19 25  1  0
 26 25  1  1
 26 27  1  0
 27 28  1  0
 28 29  1  1
 28 30  1  0
 30 31  1  0
 31 32  1  0
 32 33  1  6
 32 34  1  0
 34 35  1  6
 35 36  1  0
 36 37  1  0
 37 38  1  6
 37 14  1  0
 37 17  1  0
 34 18  1  0
 32 26  1  0
M  END
>  <MS_ID>  (1167) 
MS1213

>  <SMILES>  (1167) 
C[C@H](CCC(=O)NCCCC(=O)O)[C@H]1CC[C@H]2[C@@H]3[C@@H](OS(=O)(=O)O)C[C@@H]4C[C@H](O)CC[C@]4(C)[C@H]3CC[C@]12C

>  <Structure_dimension>  (1167) 
2D

$$$$
MS1214
     RDKit          2D

 31 34  0  0  0  0  0  0  0  0999 V2000
   -3.4301   -3.6172    0.0000 C   0  0  0  0  0  0  0  0  0  0  0  0
   -2.4973   -2.4425    0.0000 C   0  0  0  0  0  0  0  0  0  0  0  0
   -3.0483   -1.0473    0.0000 C   0  0  0  0  0  0  0  0  0  0  0  0
   -4.5321   -0.8270    0.0000 C   0  0  0  0  0  0  0  0  0  0  0  0
   -5.0831    0.5682    0.0000 C   0  0  0  0  0  0  0  0  0  0  0  0
   -4.1503    1.7429    0.0000 O   0  0  0  0  0  0  0  0  0  0  0  0
   -6.5668    0.7886    0.0000 C   0  0  0  0  0  0  0  0  0  0  0  0
   -7.1178    2.1837    0.0000 C   0  0  0  0  0  0  0  0  0  0  0  0
   -8.6015    2.4041    0.0000 C   0  0  0  0  0  0  0  0  0  0  0  0
   -9.1525    3.7992    0.0000 O   0  0  0  0  0  0  0  0  0  0  0  0
   -1.0136   -2.6629    0.0000 C   0  0  0  0  0  0  0  0  0  0  0  0
   -0.3198   -3.9928    0.0000 C   0  0  0  0  0  0  0  0  0  0  0  0
    1.1594   -3.7439    0.0000 C   0  0  0  0  0  0  0  0  0  0  0  0
    1.3798   -2.2602    0.0000 C   0  0  0  0  0  0  0  0  0  0  0  0
    2.6299   -1.4311    0.0000 C   0  0  0  0  0  0  0  0  0  0  0  0
    3.9729   -2.0992    0.0000 C   0  0  0  0  0  0  0  0  0  0  0  0
    5.2230   -1.2702    0.0000 C   0  0  0  0  0  0  0  0  0  0  0  0
    5.1301    0.2269    0.0000 C   0  0  0  0  0  0  0  0  0  0  0  0
    6.3802    1.0559    0.0000 C   0  0  0  0  0  0  0  0  0  0  0  0
    6.2872    2.5531    0.0000 C   0  0  0  0  0  0  0  0  0  0  0  0
    7.5373    3.3821    0.0000 O   0  0  0  0  0  0  0  0  0  0  0  0
    4.9442    3.2212    0.0000 C   0  0  0  0  0  0  0  0  0  0  0  0
    3.6942    2.3921    0.0000 C   0  0  0  0  0  0  0  0  0  0  0  0
    3.7871    0.8950    0.0000 C   0  0  0  0  0  0  0  0  0  0  0  0
    2.4441    1.5631    0.0000 C   0  0  0  0  0  0  0  0  0  0  0  0
    2.5370    0.0660    0.0000 C   0  0  0  0  0  0  0  0  0  0  0  0
    1.1940    0.7341    0.0000 C   0  0  0  0  0  0  0  0  0  0  0  0
   -0.0561   -0.0949    0.0000 C   0  0  0  0  0  0  0  0  0  0  0  0
   -1.3991    0.5732    0.0000 O   0  0  0  0  0  0  0  0  0  0  0  0
    0.0368   -1.5921    0.0000 C   0  0  0  0  0  0  0  0  0  0  0  0
   -1.3687   -1.0680    0.0000 C   0  0  0  0  0  0  0  0  0  0  0  0
  2  1  1  6
  2  3  1  0
  3  4  1  0
  4  5  1  0
  5  6  2  0
  5  7  1  0
  7  8  1  0
  8  9  1  0
  9 10  1  0
  2 11  1  0
 11 12  1  6
 12 13  1  0
 14 13  1  6
 14 15  1  0
 15 16  1  1
 16 17  1  0
 18 17  1  1
 18 19  1  0
 19 20  1  0
 20 21  2  0
 20 22  1  0
 22 23  1  0
 23 24  1  0
 24 25  1  6
 24 26  1  0
 26 27  1  6
 27 28  1  0
 28 29  1  1
 28 30  1  0
 30 31  1  6
 30 11  1  0
 30 14  1  0
 26 15  1  0
 24 18  1  0
M  END
>  <MS_ID>  (1168) 
MS1214

>  <SMILES>  (1168) 
C[C@H](CCC(=O)CCCO)[C@H]1CC[C@H]2[C@@H]3CC[C@@H]4CC(=O)CC[C@]4(C)[C@H]3C[C@H](O)[C@]12C

>  <Structure_dimension>  (1168) 
2D

$$$$
MS1215
     RDKit          2D

 28 31  0  0  0  0  0  0  0  0999 V2000
   -5.0096   -2.1352    0.0000 C   0  0  0  0  0  0  0  0  0  0  0  0
   -3.8132   -1.2303    0.0000 C   0  0  0  0  0  0  0  0  0  0  0  0
   -3.9987    0.2582    0.0000 C   0  0  0  0  0  0  0  0  0  0  0  0
   -5.3805    0.8418    0.0000 C   0  0  0  0  0  0  0  0  0  0  0  0
   -5.5659    2.3303    0.0000 C   0  0  0  0  0  0  0  0  0  0  0  0
   -6.9477    2.9140    0.0000 N   0  0  0  0  0  0  0  0  0  0  0  0
   -4.3695    3.2351    0.0000 O   0  0  0  0  0  0  0  0  0  0  0  0
   -2.4315   -1.8140    0.0000 C   0  0  0  0  0  0  0  0  0  0  0  0
   -2.0914   -3.2749    0.0000 C   0  0  0  0  0  0  0  0  0  0  0  0
   -0.5969   -3.4030    0.0000 C   0  0  0  0  0  0  0  0  0  0  0  0
   -0.0133   -2.0212    0.0000 C   0  0  0  0  0  0  0  0  0  0  0  0
    1.4041   -1.5304    0.0000 C   0  0  0  0  0  0  0  0  0  0  0  0
    2.5379   -2.5125    0.0000 C   0  0  0  0  0  0  0  0  0  0  0  0
    3.9554   -2.0216    0.0000 C   0  0  0  0  0  0  0  0  0  0  0  0
    4.2390   -0.5487    0.0000 C   0  0  0  0  0  0  0  0  0  0  0  0
    5.6564   -0.0578    0.0000 C   0  0  0  0  0  0  0  0  0  0  0  0
    5.9400    1.4151    0.0000 C   0  0  0  0  0  0  0  0  0  0  0  0
    7.3574    1.9060    0.0000 O   0  0  0  0  0  0  0  0  0  0  0  0
    4.8062    2.3972    0.0000 C   0  0  0  0  0  0  0  0  0  0  0  0
    3.3888    1.9064    0.0000 C   0  0  0  0  0  0  0  0  0  0  0  0
    3.1052    0.4334    0.0000 C   0  0  0  0  0  0  0  0  0  0  0  0
    1.9714    1.4155    0.0000 C   0  0  0  0  0  0  0  0  0  0  0  0
    1.6878   -0.0574    0.0000 C   0  0  0  0  0  0  0  0  0  0  0  0
    0.5540    0.9246    0.0000 C   0  0  0  0  0  0  0  0  0  0  0  0
   -0.8635    0.4338    0.0000 C   0  0  0  0  0  0  0  0  0  0  0  0
   -1.9973    1.4159    0.0000 O   0  0  0  0  0  0  0  0  0  0  0  0
   -1.1471   -1.0392    0.0000 C   0  0  0  0  0  0  0  0  0  0  0  0
   -2.3773   -0.1810    0.0000 C   0  0  0  0  0  0  0  0  0  0  0  0
  2  1  1  6
  2  3  1  0
  3  4  1  0
  4  5  1  0
  5  6  1  0
  5  7  2  0
  2  8  1  0
  8  9  1  6
  9 10  1  0
 11 10  1  6
 11 12  1  0
 12 13  1  1
 13 14  1  0
 15 14  1  1
 15 16  1  0
 16 17  1  0
 17 18  1  1
 17 19  1  0
 19 20  1  0
 20 21  1  0
 21 22  1  6
 21 23  1  0
 23 24  1  6
 24 25  1  0
 25 26  1  6
 25 27  1  0
 27 28  1  6
 27  8  1  0
 27 11  1  0
 23 12  1  0
 21 15  1  0
M  END
>  <MS_ID>  (1169) 
MS1215

>  <SMILES>  (1169) 
C[C@H](CCC(N)=O)[C@H]1CC[C@H]2[C@@H]3CC[C@@H]4C[C@H](O)CC[C@]4(C)[C@H]3C[C@@H](O)[C@]12C

>  <Structure_dimension>  (1169) 
2D

$$$$
MS1216
     RDKit          2D

 37 41  0  0  0  0  0  0  0  0999 V2000
   -1.4739   -4.1062    0.0000 C   0  0  0  0  0  0  0  0  0  0  0  0
   -0.7139   -2.8129    0.0000 C   0  0  0  0  0  0  0  0  0  0  0  0
   -1.4539   -1.5082    0.0000 C   0  0  0  0  0  0  0  0  0  0  0  0
   -2.9539   -1.4966    0.0000 C   0  0  0  0  0  0  0  0  0  0  0  0
   -3.6939   -0.1919    0.0000 C   0  0  0  0  0  0  0  0  0  0  0  0
   -2.9339    1.1014    0.0000 O   0  0  0  0  0  0  0  0  0  0  0  0
   -5.1938   -0.1803    0.0000 C   0  0  0  0  0  0  0  0  0  0  0  0
   -5.9338    1.1245    0.0000 C   0  0  0  0  0  0  0  0  0  0  0  0
   -7.4337    1.1360    0.0000 C   0  0  0  0  0  0  0  0  0  0  0  0
   -8.1737    2.4408    0.0000 C   0  0  0  0  0  0  0  0  0  0  0  0
   -9.6737    2.4523    0.0000 C   0  0  0  0  0  0  0  0  0  0  0  0
  -10.4336    1.1591    0.0000 C   0  0  0  0  0  0  0  0  0  0  0  0
  -11.9336    1.1707    0.0000 O   0  0  0  0  0  0  0  0  0  0  0  0
   -9.6937   -0.1457    0.0000 C   0  0  0  0  0  0  0  0  0  0  0  0
   -8.1937   -0.1572    0.0000 C   0  0  0  0  0  0  0  0  0  0  0  0
    0.7860   -2.8245    0.0000 C   0  0  0  0  0  0  0  0  0  0  0  0
    1.6583   -4.0448    0.0000 C   0  0  0  0  0  0  0  0  0  0  0  0
    3.0884   -3.5922    0.0000 C   0  0  0  0  0  0  0  0  0  0  0  0
    3.1000   -2.0923    0.0000 C   0  0  0  0  0  0  0  0  0  0  0  0
    4.2224   -1.0972    0.0000 C   0  0  0  0  0  0  0  0  0  0  0  0
    5.6454   -1.5717    0.0000 C   0  0  0  0  0  0  0  0  0  0  0  0
    5.9459   -3.0413    0.0000 O   0  0  0  0  0  0  0  0  0  0  0  0
    6.7678   -0.5766    0.0000 C   0  0  0  0  0  0  0  0  0  0  0  0
    6.4672    0.8930    0.0000 C   0  0  0  0  0  0  0  0  0  0  0  0
    7.5896    1.8880    0.0000 C   0  0  0  0  0  0  0  0  0  0  0  0
    7.2891    3.3576    0.0000 C   0  0  0  0  0  0  0  0  0  0  0  0
    8.4115    4.3527    0.0000 O   0  0  0  0  0  0  0  0  0  0  0  0
    5.8661    3.8321    0.0000 C   0  0  0  0  0  0  0  0  0  0  0  0
    4.7437    2.8370    0.0000 C   0  0  0  0  0  0  0  0  0  0  0  0
    5.0442    1.3675    0.0000 C   0  0  0  0  0  0  0  0  0  0  0  0
    3.6213    1.8420    0.0000 C   0  0  0  0  0  0  0  0  0  0  0  0
    3.9218    0.3724    0.0000 C   0  0  0  0  0  0  0  0  0  0  0  0
    2.4989    0.8469    0.0000 C   0  0  0  0  0  0  0  0  0  0  0  0
    1.3764   -0.1482    0.0000 C   0  0  0  0  0  0  0  0  0  0  0  0
   -0.0465    0.3263    0.0000 O   0  0  0  0  0  0  0  0  0  0  0  0
    1.6770   -1.6178    0.0000 C   0  0  0  0  0  0  0  0  0  0  0  0
    0.2122   -1.2946    0.0000 C   0  0  0  0  0  0  0  0  0  0  0  0
  2  1  1  6
  2  3  1  0
  3  4  1  0
  4  5  1  0
  5  6  2  0
  5  7  1  0
  7  8  2  0
  8  9  1  0
  9 10  2  0
 10 11  1  0
 11 12  2  0
 12 13  1  0
 12 14  1  0
 14 15  2  0
  2 16  1  0
 16 17  1  6
 17 18  1  0
 19 18  1  6
 19 20  1  0
 20 21  1  1
 21 22  1  1
 21 23  1  0
 24 23  1  1
 24 25  1  0
 25 26  1  0
 26 27  1  1
 26 28  1  0
 28 29  1  0
 29 30  1  0
 30 31  1  6
 30 32  1  0
 32 33  1  6
 33 34  1  0
 34 35  1  1
 34 36  1  0
 36 37  1  6
 15  9  1  0
 36 16  1  0
 36 19  1  0
 32 20  1  0
 30 24  1  0
M  END
>  <MS_ID>  (1170) 
MS1216

>  <SMILES>  (1170) 
C[C@H](CCC(=O)/C=C/c1ccc(O)cc1)[C@H]1CC[C@H]2[C@@H]3[C@H](O)C[C@@H]4C[C@H](O)CC[C@]4(C)[C@H]3C[C@H](O)[C@]12C

>  <Structure_dimension>  (1170) 
2D

$$$$
MS1217
     RDKit          2D

 29 32  0  0  0  0  0  0  0  0999 V2000
   -5.4679   -1.9280    0.0000 C   0  0  0  0  0  0  0  0  0  0  0  0
   -4.2629   -1.0348    0.0000 C   0  0  0  0  0  0  0  0  0  0  0  0
   -4.4339    0.4554    0.0000 C   0  0  0  0  0  0  0  0  0  0  0  0
   -5.8100    1.0524    0.0000 C   0  0  0  0  0  0  0  0  0  0  0  0
   -5.9810    2.5426    0.0000 C   0  0  0  0  0  0  0  0  0  0  0  0
   -4.7760    3.4359    0.0000 O   0  0  0  0  0  0  0  0  0  0  0  0
   -7.3571    3.1396    0.0000 O   0  0  0  0  0  0  0  0  0  0  0  0
   -2.8868   -1.6318    0.0000 C   0  0  0  0  0  0  0  0  0  0  0  0
   -2.5609   -3.0959    0.0000 C   0  0  0  0  0  0  0  0  0  0  0  0
   -1.0677   -3.2385    0.0000 C   0  0  0  0  0  0  0  0  0  0  0  0
   -0.4707   -1.8624    0.0000 C   0  0  0  0  0  0  0  0  0  0  0  0
    0.9514   -1.3853    0.0000 C   0  0  0  0  0  0  0  0  0  0  0  0
    2.0756   -2.3783    0.0000 C   0  0  0  0  0  0  0  0  0  0  0  0
    1.7778   -3.8484    0.0000 O   0  0  0  0  0  0  0  0  0  0  0  0
    3.4977   -1.9011    0.0000 C   0  0  0  0  0  0  0  0  0  0  0  0
    3.7956   -0.4310    0.0000 C   0  0  0  0  0  0  0  0  0  0  0  0
    5.2177    0.0461    0.0000 C   0  0  0  0  0  0  0  0  0  0  0  0
    5.5155    1.5163    0.0000 C   0  0  0  0  0  0  0  0  0  0  0  0
    6.9376    1.9934    0.0000 O   0  0  0  0  0  0  0  0  0  0  0  0
    8.0618    1.0004    0.0000 O   0  0  0  0  0  0  0  0  0  0  0  0
    4.3912    2.5093    0.0000 C   0  0  0  0  0  0  0  0  0  0  0  0
    2.9692    2.0321    0.0000 C   0  0  0  0  0  0  0  0  0  0  0  0
    2.6713    0.5620    0.0000 C   0  0  0  0  0  0  0  0  0  0  0  0
    1.5471    1.5550    0.0000 C   0  0  0  0  0  0  0  0  0  0  0  0
    1.2492    0.0849    0.0000 C   0  0  0  0  0  0  0  0  0  0  0  0
    0.1250    1.0779    0.0000 C   0  0  0  0  0  0  0  0  0  0  0  0
   -1.2971    0.6007    0.0000 C   0  0  0  0  0  0  0  0  0  0  0  0
   -1.5950   -0.8694    0.0000 C   0  0  0  0  0  0  0  0  0  0  0  0
   -2.8169    0.0007    0.0000 C   0  0  0  0  0  0  0  0  0  0  0  0
  2  1  1  6
  2  3  1  0
  3  4  1  0
  4  5  1  0
  5  6  2  0
  5  7  1  0
  2  8  1  0
  8  9  1  6
  9 10  1  0
 11 10  1  6
 11 12  1  0
 12 13  1  1
 13 14  1  6
 13 15  1  0
 16 15  1  1
 16 17  1  0
 17 18  1  0
 18 19  1  1
 19 20  1  0
 18 21  1  0
 21 22  1  0
 22 23  1  0
 23 24  1  6
 23 25  1  0
 25 26  1  6
 26 27  1  0
 27 28  1  0
 28 29  1  6
 28  8  1  0
 28 11  1  0
 25 12  1  0
 23 16  1  0
M  END
>  <MS_ID>  (1171) 
MS1217

>  <SMILES>  (1171) 
C[C@H](CCC(=O)O)[C@H]1CC[C@H]2[C@@H]3[C@@H](O)C[C@@H]4C[C@H](OO)CC[C@]4(C)[C@H]3CC[C@]12C

>  <Structure_dimension>  (1171) 
2D

$$$$
MS1218
     RDKit          2D

 35 38  0  0  0  0  0  0  0  0999 V2000
   -5.2147   -2.8053    0.0000 C   0  0  0  0  0  0  0  0  0  0  0  0
   -4.0763   -1.8286    0.0000 C   0  0  0  0  0  0  0  0  0  0  0  0
   -4.3529   -0.3543    0.0000 C   0  0  0  0  0  0  0  0  0  0  0  0
   -5.7680    0.1432    0.0000 C   0  0  0  0  0  0  0  0  0  0  0  0
   -6.0447    1.6175    0.0000 C   0  0  0  0  0  0  0  0  0  0  0  0
   -4.9063    2.5942    0.0000 O   0  0  0  0  0  0  0  0  0  0  0  0
   -7.4598    2.1150    0.0000 C   0  0  0  0  0  0  0  0  0  0  0  0
   -8.8749    2.6125    0.0000 F   0  0  0  0  0  0  0  0  0  0  0  0
   -6.9623    3.5301    0.0000 F   0  0  0  0  0  0  0  0  0  0  0  0
   -7.9573    0.6999    0.0000 F   0  0  0  0  0  0  0  0  0  0  0  0
   -2.6612   -2.3261    0.0000 C   0  0  0  0  0  0  0  0  0  0  0  0
   -2.2319   -3.7634    0.0000 C   0  0  0  0  0  0  0  0  0  0  0  0
   -0.7324   -3.7993    0.0000 C   0  0  0  0  0  0  0  0  0  0  0  0
   -0.2348   -2.3842    0.0000 C   0  0  0  0  0  0  0  0  0  0  0  0
    1.1497   -1.8070    0.0000 C   0  0  0  0  0  0  0  0  0  0  0  0
    2.3418   -2.7175    0.0000 C   0  0  0  0  0  0  0  0  0  0  0  0
    3.7263   -2.1404    0.0000 C   0  0  0  0  0  0  0  0  0  0  0  0
    3.9187   -0.6528    0.0000 C   0  0  0  0  0  0  0  0  0  0  0  0
    5.3033   -0.0756    0.0000 C   0  0  0  0  0  0  0  0  0  0  0  0
    5.4957    1.4120    0.0000 C   0  0  0  0  0  0  0  0  0  0  0  0
    6.8802    1.9891    0.0000 O   0  0  0  0  0  0  0  0  0  0  0  0
    8.0723    1.0787    0.0000 S   0  0  0  0  0  0  0  0  0  0  0  0
    7.1618   -0.1134    0.0000 O   0  0  0  0  0  0  0  0  0  0  0  0
    8.9828    2.2707    0.0000 O   0  0  0  0  0  0  0  0  0  0  0  0
    9.2644    0.1682    0.0000 O   0  0  0  0  0  0  0  0  0  0  0  0
    4.3036    2.3224    0.0000 C   0  0  0  0  0  0  0  0  0  0  0  0
    2.9191    1.7453    0.0000 C   0  0  0  0  0  0  0  0  0  0  0  0
    2.7267    0.2577    0.0000 C   0  0  0  0  0  0  0  0  0  0  0  0
    1.5346    1.1682    0.0000 C   0  0  0  0  0  0  0  0  0  0  0  0
    1.3421   -0.3194    0.0000 C   0  0  0  0  0  0  0  0  0  0  0  0
    0.1500    0.5910    0.0000 C   0  0  0  0  0  0  0  0  0  0  0  0
   -1.2345    0.0139    0.0000 C   0  0  0  0  0  0  0  0  0  0  0  0
   -2.4266    0.9243    0.0000 O   0  0  0  0  0  0  0  0  0  0  0  0
   -1.4269   -1.4737    0.0000 C   0  0  0  0  0  0  0  0  0  0  0  0
   -2.7076   -0.6929    0.0000 C   0  0  0  0  0  0  0  0  0  0  0  0
  2  1  1  6
  2  3  1  0
  3  4  1  0
  4  5  1  0
  5  6  2  0
  5  7  1  0
  7  8  1  0
  7  9  1  0
  7 10  1  0
  2 11  1  0
 11 12  1  6
 12 13  1  0
 14 13  1  6
 14 15  1  0
 15 16  1  1
 16 17  1  0
 18 17  1  1
 18 19  1  0
 19 20  1  0
 20 21  1  1
 21 22  1  0
 22 23  2  0
 22 24  2  0
 22 25  1  0
 20 26  1  0
 26 27  1  0
 27 28  1  0
 28 29  1  6
 28 30  1  0
 30 31  1  6
 31 32  1  0
 32 33  1  1
 32 34  1  0
 34 35  1  6
 34 11  1  0
 34 14  1  0
 30 15  1  0
 28 18  1  0
M  END
>  <MS_ID>  (1172) 
MS1218

>  <SMILES>  (1172) 
C[C@H](CCC(=O)C(F)(F)F)[C@H]1CC[C@H]2[C@@H]3CC[C@@H]4C[C@H](OS(=O)(=O)O)CC[C@]4(C)[C@H]3C[C@H](O)[C@]12C

>  <Structure_dimension>  (1172) 
2D

$$$$
MS1219
     RDKit          2D

 35 38  0  0  0  0  0  0  0  0999 V2000
   -8.8941    3.3141    0.0000 C   0  0  0  0  0  0  0  0  0  0  0  0
   -8.2510    1.9589    0.0000 C   0  0  0  0  0  0  0  0  0  0  0  0
   -6.7558    1.8383    0.0000 C   0  0  0  0  0  0  0  0  0  0  0  0
   -6.1127    0.4832    0.0000 C   0  0  0  0  0  0  0  0  0  0  0  0
   -4.6175    0.3626    0.0000 C   0  0  0  0  0  0  0  0  0  0  0  0
   -3.7655    1.5972    0.0000 O   0  0  0  0  0  0  0  0  0  0  0  0
   -3.9744   -0.9925    0.0000 C   0  0  0  0  0  0  0  0  0  0  0  0
   -2.4793   -1.1131    0.0000 C   0  0  0  0  0  0  0  0  0  0  0  0
   -1.8361   -2.4682    0.0000 C   0  0  0  0  0  0  0  0  0  0  0  0
   -2.6881   -3.7028    0.0000 C   0  0  0  0  0  0  0  0  0  0  0  0
   -0.3410   -2.5888    0.0000 C   0  0  0  0  0  0  0  0  0  0  0  0
    0.4403   -3.8693    0.0000 C   0  0  0  0  0  0  0  0  0  0  0  0
    1.8995   -3.5219    0.0000 C   0  0  0  0  0  0  0  0  0  0  0  0
    2.0201   -2.0268    0.0000 C   0  0  0  0  0  0  0  0  0  0  0  0
    3.2119   -1.1160    0.0000 C   0  0  0  0  0  0  0  0  0  0  0  0
    4.5966   -1.6927    0.0000 C   0  0  0  0  0  0  0  0  0  0  0  0
    4.7895   -3.1802    0.0000 O   0  0  0  0  0  0  0  0  0  0  0  0
    5.7884   -0.7818    0.0000 C   0  0  0  0  0  0  0  0  0  0  0  0
    7.1731   -1.3585    0.0000 O   0  0  0  0  0  0  0  0  0  0  0  0
    5.5955    0.7057    0.0000 C   0  0  0  0  0  0  0  0  0  0  0  0
    6.7873    1.6165    0.0000 C   0  0  0  0  0  0  0  0  0  0  0  0
    6.5944    3.1041    0.0000 C   0  0  0  0  0  0  0  0  0  0  0  0
    7.7862    4.0149    0.0000 O   0  0  0  0  0  0  0  0  0  0  0  0
    5.2097    3.6808    0.0000 C   0  0  0  0  0  0  0  0  0  0  0  0
    4.0179    2.7700    0.0000 C   0  0  0  0  0  0  0  0  0  0  0  0
    4.2108    1.2824    0.0000 C   0  0  0  0  0  0  0  0  0  0  0  0
    2.8261    1.8591    0.0000 C   0  0  0  0  0  0  0  0  0  0  0  0
    3.0190    0.3716    0.0000 C   0  0  0  0  0  0  0  0  0  0  0  0
    1.6343    0.9483    0.0000 C   0  0  0  0  0  0  0  0  0  0  0  0
    0.4425    0.0375    0.0000 C   0  0  0  0  0  0  0  0  0  0  0  0
    0.6354   -1.4501    0.0000 C   0  0  0  0  0  0  0  0  0  0  0  0
   -0.8020   -1.0213    0.0000 C   0  0  0  0  0  0  0  0  0  0  0  0
   -9.1030    0.7244    0.0000 C   0  0  0  0  0  0  0  0  0  0  0  0
   -8.4598   -0.6307    0.0000 O   0  0  0  0  0  0  0  0  0  0  0  0
  -10.5981    0.8450    0.0000 O   0  0  0  0  0  0  0  0  0  0  0  0
  2  1  1  6
  2  3  1  0
  3  4  1  0
  4  5  1  0
  5  6  2  0
  5  7  1  0
  7  8  1  0
  8  9  1  0
  9 10  1  6
  9 11  1  0
 11 12  1  6
 12 13  1  0
 14 13  1  6
 14 15  1  0
 15 16  1  1
 16 17  1  1
 16 18  1  0
 18 19  1  1
 18 20  1  0
 20 21  1  1
 21 22  1  0
 22 23  1  1
 22 24  1  0
 24 25  1  0
 25 26  1  0
 26 27  1  6
 26 28  1  0
 28 29  1  6
 29 30  1  0
 30 31  1  0
 31 32  1  6
  2 33  1  0
 33 34  2  0
 33 35  1  0
 31 11  1  0
 31 14  1  0
 28 15  1  0
 26 20  1  0
M  END
>  <MS_ID>  (1173) 
MS1219

>  <SMILES>  (1173) 
C[C@H](CCC(=O)CC[C@@H](C)[C@H]1CC[C@H]2[C@@H]3[C@H](O)[C@H](O)[C@@H]4C[C@H](O)CC[C@]4(C)[C@H]3CC[C@]12C)C(=O)O

>  <Structure_dimension>  (1173) 
2D

$$$$
MS1220
     RDKit          2D

 31 34  0  0  0  0  0  0  0  0999 V2000
   -3.0989   -3.6972    0.0000 C   0  0  0  0  0  0  0  0  0  0  0  0
   -2.1883   -2.5051    0.0000 C   0  0  0  0  0  0  0  0  0  0  0  0
   -2.7654   -1.1206    0.0000 C   0  0  0  0  0  0  0  0  0  0  0  0
   -4.2530   -0.9280    0.0000 C   0  0  0  0  0  0  0  0  0  0  0  0
   -4.8300    0.4565    0.0000 C   0  0  0  0  0  0  0  0  0  0  0  0
   -3.9195    1.6486    0.0000 O   0  0  0  0  0  0  0  0  0  0  0  0
   -6.3176    0.6491    0.0000 C   0  0  0  0  0  0  0  0  0  0  0  0
   -6.8947    2.0336    0.0000 C   0  0  0  0  0  0  0  0  0  0  0  0
   -8.3823    2.2261    0.0000 C   0  0  0  0  0  0  0  0  0  0  0  0
   -9.2928    1.0341    0.0000 O   0  0  0  0  0  0  0  0  0  0  0  0
   -8.9593    3.6107    0.0000 O   0  0  0  0  0  0  0  0  0  0  0  0
   -0.7007   -2.6977    0.0000 C   0  0  0  0  0  0  0  0  0  0  0  0
    0.0179   -4.0143    0.0000 C   0  0  0  0  0  0  0  0  0  0  0  0
    1.4922   -3.7377    0.0000 C   0  0  0  0  0  0  0  0  0  0  0  0
    1.6847   -2.2501    0.0000 C   0  0  0  0  0  0  0  0  0  0  0  0
    2.9190   -1.3978    0.0000 C   0  0  0  0  0  0  0  0  0  0  0  0
    4.2743   -2.0406    0.0000 C   0  0  0  0  0  0  0  0  0  0  0  0
    5.5086   -1.1883    0.0000 C   0  0  0  0  0  0  0  0  0  0  0  0
    5.3877    0.3068    0.0000 C   0  0  0  0  0  0  0  0  0  0  0  0
    6.6220    1.1591    0.0000 C   0  0  0  0  0  0  0  0  0  0  0  0
    6.5010    2.6542    0.0000 C   0  0  0  0  0  0  0  0  0  0  0  0
    7.7354    3.5066    0.0000 O   0  0  0  0  0  0  0  0  0  0  0  0
    5.1457    3.2970    0.0000 C   0  0  0  0  0  0  0  0  0  0  0  0
    3.9114    2.4447    0.0000 C   0  0  0  0  0  0  0  0  0  0  0  0
    4.0324    0.9496    0.0000 C   0  0  0  0  0  0  0  0  0  0  0  0
    2.6771    1.5924    0.0000 C   0  0  0  0  0  0  0  0  0  0  0  0
    2.7981    0.0973    0.0000 C   0  0  0  0  0  0  0  0  0  0  0  0
    1.4428    0.7401    0.0000 C   0  0  0  0  0  0  0  0  0  0  0  0
    0.2084   -0.1122    0.0000 C   0  0  0  0  0  0  0  0  0  0  0  0
    0.3294   -1.6073    0.0000 C   0  0  0  0  0  0  0  0  0  0  0  0
   -1.0856   -1.1097    0.0000 C   0  0  0  0  0  0  0  0  0  0  0  0
  2  1  1  6
  2  3  1  0
  3  4  1  0
  4  5  1  0
  5  6  2  0
  5  7  1  0
  7  8  1  0
  8  9  1  0
  9 10  2  0
  9 11  1  0
  2 12  1  0
 12 13  1  6
 13 14  1  0
 15 14  1  6
 15 16  1  0
 16 17  1  1
 17 18  1  0
 19 18  1  1
 19 20  1  0
 20 21  1  0
 21 22  2  0
 21 23  1  0
 23 24  1  0
 24 25  1  0
 25 26  1  6
 25 27  1  0
 27 28  1  6
 28 29  1  0
 29 30  1  0
 30 31  1  6
 30 12  1  0
 30 15  1  0
 27 16  1  0
 25 19  1  0
M  END
>  <MS_ID>  (1174) 
MS1220

>  <SMILES>  (1174) 
C[C@H](CCC(=O)CCC(=O)O)[C@H]1CC[C@H]2[C@@H]3CC[C@@H]4CC(=O)CC[C@]4(C)[C@H]3CC[C@]12C

>  <Structure_dimension>  (1174) 
2D

$$$$
MS1221
     RDKit          2D

 39 43  0  0  0  0  0  0  0  0999 V2000
   -7.8836   -1.9888    0.0000 C   0  0  0  0  0  0  0  0  0  0  0  0
   -6.7013   -1.0656    0.0000 C   0  0  0  0  0  0  0  0  0  0  0  0
   -6.9097    0.4199    0.0000 C   0  0  0  0  0  0  0  0  0  0  0  0
   -8.3003    0.9822    0.0000 C   0  0  0  0  0  0  0  0  0  0  0  0
   -8.5087    2.4676    0.0000 C   0  0  0  0  0  0  0  0  0  0  0  0
   -7.3264    3.3908    0.0000 O   0  0  0  0  0  0  0  0  0  0  0  0
   -9.8993    3.0299    0.0000 O   0  0  0  0  0  0  0  0  0  0  0  0
   -5.3107   -1.6279    0.0000 C   0  0  0  0  0  0  0  0  0  0  0  0
   -4.9482   -3.0834    0.0000 C   0  0  0  0  0  0  0  0  0  0  0  0
   -3.4519   -3.1884    0.0000 C   0  0  0  0  0  0  0  0  0  0  0  0
   -2.8896   -1.7978    0.0000 C   0  0  0  0  0  0  0  0  0  0  0  0
   -1.4799   -1.2851    0.0000 C   0  0  0  0  0  0  0  0  0  0  0  0
   -0.3311   -2.2496    0.0000 C   0  0  0  0  0  0  0  0  0  0  0  0
   -0.5920   -3.7268    0.0000 O   0  0  0  0  0  0  0  0  0  0  0  0
    1.0786   -1.7370    0.0000 C   0  0  0  0  0  0  0  0  0  0  0  0
    1.3394   -0.2598    0.0000 C   0  0  0  0  0  0  0  0  0  0  0  0
    2.7491    0.2528    0.0000 C   0  0  0  0  0  0  0  0  0  0  0  0
    3.0100    1.7300    0.0000 C   0  0  0  0  0  0  0  0  0  0  0  0
    4.4196    2.2426    0.0000 O   0  0  0  0  0  0  0  0  0  0  0  0
    5.5685    1.2781    0.0000 C   0  0  0  0  0  0  0  0  0  0  0  0
    5.3076   -0.1990    0.0000 O   0  0  0  0  0  0  0  0  0  0  0  0
    6.4564   -1.1635    0.0000 C   0  0  0  0  0  0  0  0  0  0  0  0
    6.1955   -2.6406    0.0000 C   0  0  0  0  0  0  0  0  0  0  0  0
    4.7859   -3.1533    0.0000 Cl  0  0  0  0  0  0  0  0  0  0  0  0
    7.8661   -0.6508    0.0000 C   0  0  0  0  0  0  0  0  0  0  0  0
    9.0149   -1.6153    0.0000 O   0  0  0  0  0  0  0  0  0  0  0  0
    8.1269    0.8263    0.0000 C   0  0  0  0  0  0  0  0  0  0  0  0
    9.5366    1.3390    0.0000 O   0  0  0  0  0  0  0  0  0  0  0  0
    6.9781    1.7908    0.0000 C   0  0  0  0  0  0  0  0  0  0  0  0
    7.2390    3.2679    0.0000 O   0  0  0  0  0  0  0  0  0  0  0  0
    1.8612    2.6945    0.0000 C   0  0  0  0  0  0  0  0  0  0  0  0
    0.4515    2.1818    0.0000 C   0  0  0  0  0  0  0  0  0  0  0  0
    0.1906    0.7047    0.0000 C   0  0  0  0  0  0  0  0  0  0  0  0
   -0.9582    1.6691    0.0000 C   0  0  0  0  0  0  0  0  0  0  0  0
   -1.2191    0.1920    0.0000 C   0  0  0  0  0  0  0  0  0  0  0  0
   -2.3679    1.1565    0.0000 C   0  0  0  0  0  0  0  0  0  0  0  0
   -3.7775    0.6438    0.0000 C   0  0  0  0  0  0  0  0  0  0  0  0
   -4.0384   -0.8333    0.0000 C   0  0  0  0  0  0  0  0  0  0  0  0
   -5.2817    0.0058    0.0000 C   0  0  0  0  0  0  0  0  0  0  0  0
  2  1  1  6
  2  3  1  0
  3  4  1  0
  4  5  1  0
  5  6  2  0
  5  7  1  0
  2  8  1  0
  8  9  1  6
  9 10  1  0
 11 10  1  6
 11 12  1  0
 12 13  1  1
 13 14  1  6
 13 15  1  0
 16 15  1  1
 16 17  1  0
 17 18  1  0
 18 19  1  1
 20 19  1  1
 20 21  1  0
 21 22  1  0
 22 23  1  1
 23 24  1  0
 22 25  1  0
 25 26  1  6
 25 27  1  0
 27 28  1  1
 27 29  1  0
 29 30  1  6
 18 31  1  0
 31 32  1  0
 32 33  1  0
 33 34  1  6
 33 35  1  0
 35 36  1  6
 36 37  1  0
 37 38  1  0
 38 39  1  6
 38  8  1  0
 38 11  1  0
 35 12  1  0
 33 16  1  0
 29 20  1  0
M  END
>  <MS_ID>  (1175) 
MS1221

>  <SMILES>  (1175) 
C[C@H](CCC(=O)O)[C@H]1CC[C@H]2[C@@H]3[C@@H](O)C[C@@H]4C[C@H](O[C@@H]5O[C@H](CCl)[C@@H](O)[C@H](O)[C@H]5O)CC[C@]4(C)[C@H]3CC[C@]12C

>  <Structure_dimension>  (1175) 
2D

$$$$
MS1222
     RDKit          2D

 32 35  0  0  0  0  0  0  0  0999 V2000
   -3.3600   -3.6470    0.0000 C   0  0  0  0  0  0  0  0  0  0  0  0
   -2.4640   -2.4440    0.0000 C   0  0  0  0  0  0  0  0  0  0  0  0
   -3.0579   -1.0666    0.0000 C   0  0  0  0  0  0  0  0  0  0  0  0
   -4.5477   -0.8922    0.0000 C   0  0  0  0  0  0  0  0  0  0  0  0
   -5.1416    0.4852    0.0000 C   0  0  0  0  0  0  0  0  0  0  0  0
   -4.2456    1.6883    0.0000 O   0  0  0  0  0  0  0  0  0  0  0  0
   -6.6314    0.6596    0.0000 N   0  0  0  0  0  0  0  0  0  0  0  0
   -7.2253    2.0371    0.0000 S   0  0  0  0  0  0  0  0  0  0  0  0
   -8.6027    1.4432    0.0000 O   0  0  0  0  0  0  0  0  0  0  0  0
   -5.8479    2.6309    0.0000 O   0  0  0  0  0  0  0  0  0  0  0  0
   -7.8192    3.4145    0.0000 O   0  0  0  0  0  0  0  0  0  0  0  0
   -0.9742   -2.6184    0.0000 C   0  0  0  0  0  0  0  0  0  0  0  0
   -0.2396   -3.9262    0.0000 C   0  0  0  0  0  0  0  0  0  0  0  0
    1.2312   -3.6317    0.0000 C   0  0  0  0  0  0  0  0  0  0  0  0
    1.4056   -2.1419    0.0000 C   0  0  0  0  0  0  0  0  0  0  0  0
    2.6295   -1.2746    0.0000 C   0  0  0  0  0  0  0  0  0  0  0  0
    3.9925   -1.9008    0.0000 C   0  0  0  0  0  0  0  0  0  0  0  0
    4.1317   -3.3944    0.0000 O   0  0  0  0  0  0  0  0  0  0  0  0
    5.2163   -1.0336    0.0000 C   0  0  0  0  0  0  0  0  0  0  0  0
    5.0772    0.4600    0.0000 C   0  0  0  0  0  0  0  0  0  0  0  0
    6.3010    1.3273    0.0000 C   0  0  0  0  0  0  0  0  0  0  0  0
    6.1619    2.8208    0.0000 C   0  0  0  0  0  0  0  0  0  0  0  0
    7.3857    3.6881    0.0000 O   0  0  0  0  0  0  0  0  0  0  0  0
    4.7989    3.4470    0.0000 C   0  0  0  0  0  0  0  0  0  0  0  0
    3.5750    2.5798    0.0000 C   0  0  0  0  0  0  0  0  0  0  0  0
    3.7142    1.0862    0.0000 C   0  0  0  0  0  0  0  0  0  0  0  0
    2.3511    1.7125    0.0000 C   0  0  0  0  0  0  0  0  0  0  0  0
    2.4903    0.2189    0.0000 C   0  0  0  0  0  0  0  0  0  0  0  0
    1.1273    0.8452    0.0000 C   0  0  0  0  0  0  0  0  0  0  0  0
   -0.0966   -0.0221    0.0000 C   0  0  0  0  0  0  0  0  0  0  0  0
    0.0426   -1.5156    0.0000 C   0  0  0  0  0  0  0  0  0  0  0  0
   -1.3784   -1.0353    0.0000 C   0  0  0  0  0  0  0  0  0  0  0  0
  2  1  1  6
  2  3  1  0
  3  4  1  0
  4  5  1  0
  5  6  2  0
  5  7  1  0
  7  8  1  0
  8  9  2  0
  8 10  2  0
  8 11  1  0
  2 12  1  0
 12 13  1  6
 13 14  1  0
 15 14  1  6
 15 16  1  0
 16 17  1  1
 17 18  1  6
 17 19  1  0
 20 19  1  1
 20 21  1  0
 21 22  1  0
 22 23  1  1
 22 24  1  0
 24 25  1  0
 25 26  1  0
 26 27  1  6
 26 28  1  0
 28 29  1  6
 29 30  1  0
 30 31  1  0
 31 32  1  6
 31 12  1  0
 31 15  1  0
 28 16  1  0
 26 20  1  0
M  END
>  <MS_ID>  (1176) 
MS1222

>  <SMILES>  (1176) 
C[C@H](CCC(=O)NS(=O)(=O)O)[C@H]1CC[C@H]2[C@@H]3[C@@H](O)C[C@@H]4C[C@H](O)CC[C@]4(C)[C@H]3CC[C@]12C

>  <Structure_dimension>  (1176) 
2D

$$$$
MS1223
     RDKit          2D

 34 38  0  0  0  0  0  0  0  0999 V2000
   -2.6599   -4.1335    0.0000 C   0  0  0  0  0  0  0  0  0  0  0  0
   -1.8847   -2.8494    0.0000 C   0  0  0  0  0  0  0  0  0  0  0  0
   -2.6091   -1.5360    0.0000 C   0  0  0  0  0  0  0  0  0  0  0  0
   -4.1089   -1.5067    0.0000 C   0  0  0  0  0  0  0  0  0  0  0  0
   -4.8333   -0.1932    0.0000 C   0  0  0  0  0  0  0  0  0  0  0  0
   -4.0581    1.0909    0.0000 O   0  0  0  0  0  0  0  0  0  0  0  0
   -6.3331   -0.1639    0.0000 C   0  0  0  0  0  0  0  0  0  0  0  0
   -7.0575    1.1495    0.0000 N   0  0  0  0  0  0  0  0  0  0  0  0
   -8.5460    1.3354    0.0000 C   0  0  0  0  0  0  0  0  0  0  0  0
   -8.8291    2.8085    0.0000 C   0  0  0  0  0  0  0  0  0  0  0  0
   -7.5157    3.5330    0.0000 C   0  0  0  0  0  0  0  0  0  0  0  0
   -6.4208    2.5077    0.0000 N   0  0  0  0  0  0  0  0  0  0  0  0
   -0.3850   -2.8787    0.0000 C   0  0  0  0  0  0  0  0  0  0  0  0
    0.4728   -4.1092    0.0000 C   0  0  0  0  0  0  0  0  0  0  0  0
    1.9082   -3.6737    0.0000 C   0  0  0  0  0  0  0  0  0  0  0  0
    1.9375   -2.1740    0.0000 C   0  0  0  0  0  0  0  0  0  0  0  0
    3.0716   -1.1922    0.0000 C   0  0  0  0  0  0  0  0  0  0  0  0
    4.4889   -1.6835    0.0000 C   0  0  0  0  0  0  0  0  0  0  0  0
    4.7720   -3.1566    0.0000 O   0  0  0  0  0  0  0  0  0  0  0  0
    5.6230   -0.7018    0.0000 C   0  0  0  0  0  0  0  0  0  0  0  0
    5.3399    0.7712    0.0000 C   0  0  0  0  0  0  0  0  0  0  0  0
    6.4740    1.7530    0.0000 C   0  0  0  0  0  0  0  0  0  0  0  0
    6.1908    3.2260    0.0000 C   0  0  0  0  0  0  0  0  0  0  0  0
    7.3249    4.2077    0.0000 O   0  0  0  0  0  0  0  0  0  0  0  0
    4.7736    3.7173    0.0000 C   0  0  0  0  0  0  0  0  0  0  0  0
    3.6395    2.7356    0.0000 C   0  0  0  0  0  0  0  0  0  0  0  0
    3.9226    1.2625    0.0000 C   0  0  0  0  0  0  0  0  0  0  0  0
    2.5053    1.7538    0.0000 C   0  0  0  0  0  0  0  0  0  0  0  0
    2.7885    0.2808    0.0000 C   0  0  0  0  0  0  0  0  0  0  0  0
    1.3712    0.7721    0.0000 C   0  0  0  0  0  0  0  0  0  0  0  0
    0.2371   -0.2096    0.0000 C   0  0  0  0  0  0  0  0  0  0  0  0
   -1.1801    0.2817    0.0000 O   0  0  0  0  0  0  0  0  0  0  0  0
    0.5203   -1.6826    0.0000 C   0  0  0  0  0  0  0  0  0  0  0  0
   -0.9406   -1.3422    0.0000 C   0  0  0  0  0  0  0  0  0  0  0  0
  2  1  1  6
  2  3  1  0
  3  4  1  0
  4  5  1  0
  5  6  2  0
  5  7  1  0
  7  8  1  0
  8  9  1  0
  9 10  2  0
 10 11  1  0
 11 12  2  0
  2 13  1  0
 13 14  1  6
 14 15  1  0
 16 15  1  6
 16 17  1  0
 17 18  1  1
 18 19  1  1
 18 20  1  0
 21 20  1  1
 21 22  1  0
 22 23  1  0
 23 24  1  1
 23 25  1  0
 25 26  1  0
 26 27  1  0
 27 28  1  6
 27 29  1  0
 29 30  1  6
 30 31  1  0
 31 32  1  1
 31 33  1  0
 33 34  1  6
 12  8  1  0
 33 13  1  0
 33 16  1  0
 29 17  1  0
 27 21  1  0
M  END
>  <MS_ID>  (1177) 
MS1223

>  <SMILES>  (1177) 
C[C@H](CCC(=O)Cn1cccn1)[C@H]1CC[C@H]2[C@@H]3[C@H](O)C[C@@H]4C[C@H](O)CC[C@]4(C)[C@H]3C[C@H](O)[C@]12C

>  <Structure_dimension>  (1177) 
2D

$$$$
MS1224
     RDKit          2D

 40 44  0  0  0  0  0  0  0  0999 V2000
   -7.9587   -2.0285    0.0000 C   0  0  0  0  0  0  0  0  0  0  0  0
   -6.7946   -1.0824    0.0000 C   0  0  0  0  0  0  0  0  0  0  0  0
   -7.0319    0.3987    0.0000 C   0  0  0  0  0  0  0  0  0  0  0  0
   -8.4332    0.9338    0.0000 C   0  0  0  0  0  0  0  0  0  0  0  0
   -8.6705    2.4149    0.0000 C   0  0  0  0  0  0  0  0  0  0  0  0
   -7.5065    3.3609    0.0000 O   0  0  0  0  0  0  0  0  0  0  0  0
  -10.0718    2.9499    0.0000 O   0  0  0  0  0  0  0  0  0  0  0  0
   -5.3933   -1.6175    0.0000 C   0  0  0  0  0  0  0  0  0  0  0  0
   -5.0025   -3.0657    0.0000 C   0  0  0  0  0  0  0  0  0  0  0  0
   -3.5044   -3.1416    0.0000 C   0  0  0  0  0  0  0  0  0  0  0  0
   -2.9694   -1.7402    0.0000 C   0  0  0  0  0  0  0  0  0  0  0  0
   -1.5700   -1.2002    0.0000 C   0  0  0  0  0  0  0  0  0  0  0  0
   -0.4026   -2.1421    0.0000 C   0  0  0  0  0  0  0  0  0  0  0  0
   -0.6346   -3.6241    0.0000 O   0  0  0  0  0  0  0  0  0  0  0  0
    0.9969   -1.6021    0.0000 C   0  0  0  0  0  0  0  0  0  0  0  0
    1.2289   -0.1201    0.0000 C   0  0  0  0  0  0  0  0  0  0  0  0
    2.6283    0.4199    0.0000 C   0  0  0  0  0  0  0  0  0  0  0  0
    2.8603    1.9018    0.0000 C   0  0  0  0  0  0  0  0  0  0  0  0
    4.2597    2.4419    0.0000 O   0  0  0  0  0  0  0  0  0  0  0  0
    5.4271    1.4999    0.0000 C   0  0  0  0  0  0  0  0  0  0  0  0
    5.1951    0.0180    0.0000 O   0  0  0  0  0  0  0  0  0  0  0  0
    6.3625   -0.9239    0.0000 C   0  0  0  0  0  0  0  0  0  0  0  0
    6.1305   -2.4059    0.0000 C   0  0  0  0  0  0  0  0  0  0  0  0
    4.7310   -2.9459    0.0000 C   0  0  0  0  0  0  0  0  0  0  0  0
    4.4990   -4.4278    0.0000 O   0  0  0  0  0  0  0  0  0  0  0  0
    7.7619   -0.3839    0.0000 C   0  0  0  0  0  0  0  0  0  0  0  0
    8.9293   -1.3258    0.0000 O   0  0  0  0  0  0  0  0  0  0  0  0
    7.9939    1.0981    0.0000 C   0  0  0  0  0  0  0  0  0  0  0  0
    9.3934    1.6381    0.0000 O   0  0  0  0  0  0  0  0  0  0  0  0
    6.8265    2.0400    0.0000 C   0  0  0  0  0  0  0  0  0  0  0  0
    7.0586    3.5219    0.0000 O   0  0  0  0  0  0  0  0  0  0  0  0
    1.6929    2.8437    0.0000 C   0  0  0  0  0  0  0  0  0  0  0  0
    0.2935    2.3037    0.0000 C   0  0  0  0  0  0  0  0  0  0  0  0
    0.0615    0.8218    0.0000 C   0  0  0  0  0  0  0  0  0  0  0  0
   -1.1059    1.7637    0.0000 C   0  0  0  0  0  0  0  0  0  0  0  0
   -1.3379    0.2817    0.0000 C   0  0  0  0  0  0  0  0  0  0  0  0
   -2.5053    1.2237    0.0000 C   0  0  0  0  0  0  0  0  0  0  0  0
   -3.9047    0.6836    0.0000 C   0  0  0  0  0  0  0  0  0  0  0  0
   -4.1368   -0.7983    0.0000 C   0  0  0  0  0  0  0  0  0  0  0  0
   -5.3962    0.0164    0.0000 C   0  0  0  0  0  0  0  0  0  0  0  0
  2  1  1  6
  2  3  1  0
  3  4  1  0
  4  5  1  0
  5  6  2  0
  5  7  1  0
  2  8  1  0
  8  9  1  6
  9 10  1  0
 11 10  1  6
 11 12  1  0
 12 13  1  1
 13 14  1  6
 13 15  1  0
 16 15  1  1
 16 17  1  0
 17 18  1  0
 18 19  1  1
 20 19  1  1
 20 21  1  0
 21 22  1  0
 22 23  1  1
 23 24  1  0
 24 25  1  0
 22 26  1  0
 26 27  1  6
 26 28  1  0
 28 29  1  1
 28 30  1  0
 30 31  1  6
 18 32  1  0
 32 33  1  0
 33 34  1  0
 34 35  1  6
 34 36  1  0
 36 37  1  6
 37 38  1  0
 38 39  1  0
 39 40  1  6
 39  8  1  0
 39 11  1  0
 36 12  1  0
 34 16  1  0
 30 20  1  0
M  END
>  <MS_ID>  (1178) 
MS1224

>  <SMILES>  (1178) 
C[C@H](CCC(=O)O)[C@H]1CC[C@H]2[C@@H]3[C@@H](O)C[C@@H]4C[C@H](O[C@@H]5O[C@H](CCO)[C@@H](O)[C@H](O)[C@H]5O)CC[C@]4(C)[C@H]3CC[C@]12C

>  <Structure_dimension>  (1178) 
2D

$$$$
MS1225
     RDKit          2D

 35 39  0  0  0  0  0  0  0  0999 V2000
   -2.4279   -3.5818    0.0000 C   0  0  0  0  0  0  0  0  0  0  0  0
   -1.4872   -2.4134    0.0000 C   0  0  0  0  0  0  0  0  0  0  0  0
   -2.0286   -1.0146    0.0000 C   0  0  0  0  0  0  0  0  0  0  0  0
   -3.5108   -0.7841    0.0000 C   0  0  0  0  0  0  0  0  0  0  0  0
   -4.0523    0.6148    0.0000 C   0  0  0  0  0  0  0  0  0  0  0  0
   -3.1116    1.7831    0.0000 O   0  0  0  0  0  0  0  0  0  0  0  0
   -5.5345    0.8453    0.0000 C   0  0  0  0  0  0  0  0  0  0  0  0
   -6.0759    2.2442    0.0000 C   0  0  0  0  0  0  0  0  0  0  0  0
   -7.5581    2.4747    0.0000 C   0  0  0  0  0  0  0  0  0  0  0  0
   -8.0996    3.8735    0.0000 O   0  0  0  0  0  0  0  0  0  0  0  0
   -8.4988    1.3063    0.0000 C   0  0  0  0  0  0  0  0  0  0  0  0
   -7.9574   -0.0925    0.0000 C   0  0  0  0  0  0  0  0  0  0  0  0
   -8.8981   -1.2609    0.0000 O   0  0  0  0  0  0  0  0  0  0  0  0
   -6.4752   -0.3230    0.0000 C   0  0  0  0  0  0  0  0  0  0  0  0
   -0.0050   -2.6440    0.0000 C   0  0  0  0  0  0  0  0  0  0  0  0
    0.6797   -3.9786    0.0000 C   0  0  0  0  0  0  0  0  0  0  0  0
    2.1606   -3.7398    0.0000 C   0  0  0  0  0  0  0  0  0  0  0  0
    2.3911   -2.2576    0.0000 C   0  0  0  0  0  0  0  0  0  0  0  0
    3.6468   -1.4371    0.0000 C   0  0  0  0  0  0  0  0  0  0  0  0
    4.9852   -2.1144    0.0000 C   0  0  0  0  0  0  0  0  0  0  0  0
    6.2409   -1.2939    0.0000 C   0  0  0  0  0  0  0  0  0  0  0  0
    6.1582    0.2038    0.0000 C   0  0  0  0  0  0  0  0  0  0  0  0
    7.4140    1.0243    0.0000 C   0  0  0  0  0  0  0  0  0  0  0  0
    7.3313    2.5220    0.0000 C   0  0  0  0  0  0  0  0  0  0  0  0
    8.5870    3.3425    0.0000 O   0  0  0  0  0  0  0  0  0  0  0  0
    5.9929    3.1993    0.0000 C   0  0  0  0  0  0  0  0  0  0  0  0
    4.7372    2.3788    0.0000 C   0  0  0  0  0  0  0  0  0  0  0  0
    4.8198    0.8811    0.0000 C   0  0  0  0  0  0  0  0  0  0  0  0
    3.4814    1.5583    0.0000 C   0  0  0  0  0  0  0  0  0  0  0  0
    3.5641    0.0606    0.0000 C   0  0  0  0  0  0  0  0  0  0  0  0
    2.2257    0.7379    0.0000 C   0  0  0  0  0  0  0  0  0  0  0  0
    0.9700   -0.0826    0.0000 C   0  0  0  0  0  0  0  0  0  0  0  0
   -0.3684    0.5946    0.0000 O   0  0  0  0  0  0  0  0  0  0  0  0
    1.0527   -1.5803    0.0000 C   0  0  0  0  0  0  0  0  0  0  0  0
   -0.3492   -1.0467    0.0000 C   0  0  0  0  0  0  0  0  0  0  0  0
  2  1  1  6
  2  3  1  0
  3  4  1  0
  4  5  1  0
  5  6  2  0
  5  7  1  0
  7  8  2  0
  8  9  1  0
  9 10  1  0
  9 11  2  0
 11 12  1  0
 12 13  1  0
 12 14  2  0
  2 15  1  0
 15 16  1  6
 16 17  1  0
 18 17  1  6
 18 19  1  0
 19 20  1  1
 20 21  1  0
 22 21  1  1
 22 23  1  0
 23 24  1  0
 24 25  1  1
 24 26  1  0
 26 27  1  0
 27 28  1  0
 28 29  1  6
 28 30  1  0
 30 31  1  6
 31 32  1  0
 32 33  1  1
 32 34  1  0
 34 35  1  6
 14  7  1  0
 34 15  1  0
 34 18  1  0
 30 19  1  0
 28 22  1  0
M  END
>  <MS_ID>  (1179) 
MS1225

>  <SMILES>  (1179) 
C[C@H](CCC(=O)c1cc(O)cc(O)c1)[C@H]1CC[C@H]2[C@@H]3CC[C@@H]4C[C@H](O)CC[C@]4(C)[C@H]3C[C@H](O)[C@]12C

>  <Structure_dimension>  (1179) 
2D

$$$$
MS1226
     RDKit          2D

 36 39  0  0  0  0  0  0  0  0999 V2000
   -1.1768   -4.5685    0.0000 C   0  0  0  0  0  0  0  0  0  0  0  0
   -0.5735   -3.1951    0.0000 C   0  0  0  0  0  0  0  0  0  0  0  0
   -1.4612   -1.9860    0.0000 C   0  0  0  0  0  0  0  0  0  0  0  0
   -2.9522   -2.1502    0.0000 C   0  0  0  0  0  0  0  0  0  0  0  0
   -3.8399   -0.9410    0.0000 C   0  0  0  0  0  0  0  0  0  0  0  0
   -3.2366    0.4323    0.0000 O   0  0  0  0  0  0  0  0  0  0  0  0
   -5.3309   -1.1052    0.0000 C   0  0  0  0  0  0  0  0  0  0  0  0
   -6.2186    0.1039    0.0000 C   0  0  0  0  0  0  0  0  0  0  0  0
   -7.7096   -0.0603    0.0000 C   0  0  0  0  0  0  0  0  0  0  0  0
   -8.5972    1.1489    0.0000 C   0  0  0  0  0  0  0  0  0  0  0  0
  -10.0882    0.9847    0.0000 C   0  0  0  0  0  0  0  0  0  0  0  0
  -10.9759    2.1938    0.0000 C   0  0  0  0  0  0  0  0  0  0  0  0
  -10.3726    3.5671    0.0000 O   0  0  0  0  0  0  0  0  0  0  0  0
  -12.4669    2.0296    0.0000 O   0  0  0  0  0  0  0  0  0  0  0  0
    0.9174   -3.0309    0.0000 C   0  0  0  0  0  0  0  0  0  0  0  0
    1.9267   -4.1407    0.0000 C   0  0  0  0  0  0  0  0  0  0  0  0
    3.2939   -3.5238    0.0000 C   0  0  0  0  0  0  0  0  0  0  0  0
    3.1297   -2.0328    0.0000 C   0  0  0  0  0  0  0  0  0  0  0  0
    4.1279   -0.9131    0.0000 C   0  0  0  0  0  0  0  0  0  0  0  0
    5.5967   -1.2177    0.0000 C   0  0  0  0  0  0  0  0  0  0  0  0
    6.0672   -2.6420    0.0000 O   0  0  0  0  0  0  0  0  0  0  0  0
    6.5948   -0.0980    0.0000 C   0  0  0  0  0  0  0  0  0  0  0  0
    6.1242    1.3262    0.0000 C   0  0  0  0  0  0  0  0  0  0  0  0
    7.1224    2.4459    0.0000 C   0  0  0  0  0  0  0  0  0  0  0  0
    6.6518    3.8702    0.0000 C   0  0  0  0  0  0  0  0  0  0  0  0
    7.6499    4.9899    0.0000 O   0  0  0  0  0  0  0  0  0  0  0  0
    5.1830    4.1748    0.0000 C   0  0  0  0  0  0  0  0  0  0  0  0
    4.1849    3.0551    0.0000 C   0  0  0  0  0  0  0  0  0  0  0  0
    4.6555    1.6308    0.0000 C   0  0  0  0  0  0  0  0  0  0  0  0
    3.1867    1.9354    0.0000 C   0  0  0  0  0  0  0  0  0  0  0  0
    3.6573    0.5112    0.0000 C   0  0  0  0  0  0  0  0  0  0  0  0
    2.1886    0.8157    0.0000 C   0  0  0  0  0  0  0  0  0  0  0  0
    1.1904   -0.3039    0.0000 C   0  0  0  0  0  0  0  0  0  0  0  0
   -0.2783    0.0007    0.0000 O   0  0  0  0  0  0  0  0  0  0  0  0
    1.6610   -1.7282    0.0000 C   0  0  0  0  0  0  0  0  0  0  0  0
    0.1685   -1.5788    0.0000 C   0  0  0  0  0  0  0  0  0  0  0  0
  2  1  1  6
  2  3  1  0
  3  4  1  0
  4  5  1  0
  5  6  2  0
  5  7  1  0
  7  8  1  0
  8  9  1  0
  9 10  1  0
 10 11  1  0
 11 12  1  0
 12 13  2  0
 12 14  1  0
  2 15  1  0
 15 16  1  6
 16 17  1  0
 18 17  1  6
 18 19  1  0
 19 20  1  1
 20 21  1  1
 20 22  1  0
 23 22  1  1
 23 24  1  0
 24 25  1  0
 25 26  1  1
 25 27  1  0
 27 28  1  0
 28 29  1  0
 29 30  1  6
 29 31  1  0
 31 32  1  6
 32 33  1  0
 33 34  1  1
 33 35  1  0
 35 36  1  6
 35 15  1  0
 35 18  1  0
 31 19  1  0
 29 23  1  0
M  END
>  <MS_ID>  (1180) 
MS1226

>  <SMILES>  (1180) 
C[C@H](CCC(=O)CCCCCC(=O)O)[C@H]1CC[C@H]2[C@@H]3[C@H](O)C[C@@H]4C[C@H](O)CC[C@]4(C)[C@H]3C[C@H](O)[C@]12C

>  <Structure_dimension>  (1180) 
2D

$$$$
MS1227
     RDKit          2D

 35 39  0  0  0  0  0  0  0  0999 V2000
   -2.2319   -4.3352    0.0000 C   0  0  0  0  0  0  0  0  0  0  0  0
   -1.5144   -3.0180    0.0000 C   0  0  0  0  0  0  0  0  0  0  0  0
   -2.2965   -1.7380    0.0000 C   0  0  0  0  0  0  0  0  0  0  0  0
   -3.7960   -1.7752    0.0000 C   0  0  0  0  0  0  0  0  0  0  0  0
   -4.5781   -0.4952    0.0000 C   0  0  0  0  0  0  0  0  0  0  0  0
   -3.8606    0.8220    0.0000 O   0  0  0  0  0  0  0  0  0  0  0  0
   -6.0776   -0.5325    0.0000 N   0  0  0  0  0  0  0  0  0  0  0  0
   -6.8597    0.7475    0.0000 C   0  0  0  0  0  0  0  0  0  0  0  0
   -6.1422    2.0648    0.0000 C   0  0  0  0  0  0  0  0  0  0  0  0
   -6.9242    3.3448    0.0000 C   0  0  0  0  0  0  0  0  0  0  0  0
   -8.4238    3.3075    0.0000 C   0  0  0  0  0  0  0  0  0  0  0  0
   -9.1412    1.9902    0.0000 C   0  0  0  0  0  0  0  0  0  0  0  0
   -8.3592    0.7102    0.0000 N   0  0  0  0  0  0  0  0  0  0  0  0
   -0.0149   -2.9807    0.0000 C   0  0  0  0  0  0  0  0  0  0  0  0
    0.8967   -4.1719    0.0000 C   0  0  0  0  0  0  0  0  0  0  0  0
    2.3113   -3.6731    0.0000 C   0  0  0  0  0  0  0  0  0  0  0  0
    2.2740   -2.1736    0.0000 C   0  0  0  0  0  0  0  0  0  0  0  0
    3.3634   -1.1425    0.0000 C   0  0  0  0  0  0  0  0  0  0  0  0
    4.8011   -1.5704    0.0000 C   0  0  0  0  0  0  0  0  0  0  0  0
    5.1493   -3.0294    0.0000 O   0  0  0  0  0  0  0  0  0  0  0  0
    5.8905   -0.5393    0.0000 C   0  0  0  0  0  0  0  0  0  0  0  0
    5.5423    0.9197    0.0000 C   0  0  0  0  0  0  0  0  0  0  0  0
    6.6317    1.9508    0.0000 C   0  0  0  0  0  0  0  0  0  0  0  0
    6.2835    3.4098    0.0000 C   0  0  0  0  0  0  0  0  0  0  0  0
    7.3729    4.4409    0.0000 O   0  0  0  0  0  0  0  0  0  0  0  0
    4.8458    3.8377    0.0000 C   0  0  0  0  0  0  0  0  0  0  0  0
    3.7564    2.8066    0.0000 C   0  0  0  0  0  0  0  0  0  0  0  0
    4.1046    1.3476    0.0000 C   0  0  0  0  0  0  0  0  0  0  0  0
    2.6670    1.7755    0.0000 C   0  0  0  0  0  0  0  0  0  0  0  0
    3.0152    0.3165    0.0000 C   0  0  0  0  0  0  0  0  0  0  0  0
    1.5776    0.7445    0.0000 C   0  0  0  0  0  0  0  0  0  0  0  0
    0.4881   -0.2866    0.0000 C   0  0  0  0  0  0  0  0  0  0  0  0
   -0.9495    0.1413    0.0000 O   0  0  0  0  0  0  0  0  0  0  0  0
    0.8363   -1.7456    0.0000 C   0  0  0  0  0  0  0  0  0  0  0  0
   -0.6382   -1.4703    0.0000 C   0  0  0  0  0  0  0  0  0  0  0  0
  2  1  1  6
  2  3  1  0
  3  4  1  0
  4  5  1  0
  5  6  2  0
  5  7  1  0
  7  8  1  0
  8  9  2  0
  9 10  1  0
 10 11  2  0
 11 12  1  0
 12 13  2  0
  2 14  1  0
 14 15  1  6
 15 16  1  0
 17 16  1  6
 17 18  1  0
 18 19  1  1
 19 20  1  1
 19 21  1  0
 22 21  1  1
 22 23  1  0
 23 24  1  0
 24 25  1  1
 24 26  1  0
 26 27  1  0
 27 28  1  0
 28 29  1  6
 28 30  1  0
 30 31  1  6
 31 32  1  0
 32 33  1  1
 32 34  1  0
 34 35  1  6
 13  8  1  0
 34 14  1  0
 34 17  1  0
 30 18  1  0
 28 22  1  0
M  END
>  <MS_ID>  (1181) 
MS1227

>  <SMILES>  (1181) 
C[C@H](CCC(=O)Nc1ccccn1)[C@H]1CC[C@H]2[C@@H]3[C@H](O)C[C@@H]4C[C@H](O)CC[C@]4(C)[C@H]3C[C@H](O)[C@]12C

>  <Structure_dimension>  (1181) 
2D

$$$$
MS1228
     RDKit          2D

 36 40  0  0  0  0  0  0  0  0999 V2000
   -1.8126   -4.4420    0.0000 C   0  0  0  0  0  0  0  0  0  0  0  0
   -1.1323   -3.1052    0.0000 C   0  0  0  0  0  0  0  0  0  0  0  0
   -1.9499   -1.8476    0.0000 C   0  0  0  0  0  0  0  0  0  0  0  0
   -3.4478   -1.9269    0.0000 C   0  0  0  0  0  0  0  0  0  0  0  0
   -4.2654   -0.6693    0.0000 C   0  0  0  0  0  0  0  0  0  0  0  0
   -3.5851    0.6676    0.0000 O   0  0  0  0  0  0  0  0  0  0  0  0
   -5.7633   -0.7486    0.0000 N   0  0  0  0  0  0  0  0  0  0  0  0
   -6.5809    0.5090    0.0000 C   0  0  0  0  0  0  0  0  0  0  0  0
   -5.9006    1.8459    0.0000 C   0  0  0  0  0  0  0  0  0  0  0  0
   -6.7182    3.1035    0.0000 C   0  0  0  0  0  0  0  0  0  0  0  0
   -8.2162    3.0242    0.0000 C   0  0  0  0  0  0  0  0  0  0  0  0
   -8.8964    1.6873    0.0000 C   0  0  0  0  0  0  0  0  0  0  0  0
  -10.3943    1.6080    0.0000 Cl  0  0  0  0  0  0  0  0  0  0  0  0
   -8.0788    0.4297    0.0000 C   0  0  0  0  0  0  0  0  0  0  0  0
    0.3656   -3.0259    0.0000 C   0  0  0  0  0  0  0  0  0  0  0  0
    1.3102   -4.1911    0.0000 C   0  0  0  0  0  0  0  0  0  0  0  0
    2.7103   -3.6528    0.0000 C   0  0  0  0  0  0  0  0  0  0  0  0
    2.6310   -2.1549    0.0000 C   0  0  0  0  0  0  0  0  0  0  0  0
    3.6911   -1.0937    0.0000 C   0  0  0  0  0  0  0  0  0  0  0  0
    5.1402   -1.4812    0.0000 C   0  0  0  0  0  0  0  0  0  0  0  0
    5.5292   -2.9299    0.0000 O   0  0  0  0  0  0  0  0  0  0  0  0
    6.2003   -0.4200    0.0000 C   0  0  0  0  0  0  0  0  0  0  0  0
    5.8113    1.0287    0.0000 C   0  0  0  0  0  0  0  0  0  0  0  0
    6.8714    2.0899    0.0000 C   0  0  0  0  0  0  0  0  0  0  0  0
    6.4825    3.5386    0.0000 C   0  0  0  0  0  0  0  0  0  0  0  0
    7.5426    4.5998    0.0000 O   0  0  0  0  0  0  0  0  0  0  0  0
    5.0334    3.9261    0.0000 C   0  0  0  0  0  0  0  0  0  0  0  0
    3.9733    2.8649    0.0000 C   0  0  0  0  0  0  0  0  0  0  0  0
    4.3622    1.4162    0.0000 C   0  0  0  0  0  0  0  0  0  0  0  0
    2.9132    1.8036    0.0000 C   0  0  0  0  0  0  0  0  0  0  0  0
    3.3021    0.3550    0.0000 C   0  0  0  0  0  0  0  0  0  0  0  0
    1.8530    0.7424    0.0000 C   0  0  0  0  0  0  0  0  0  0  0  0
    0.7929   -0.3188    0.0000 C   0  0  0  0  0  0  0  0  0  0  0  0
   -0.6561    0.0687    0.0000 O   0  0  0  0  0  0  0  0  0  0  0  0
    1.1819   -1.7675    0.0000 C   0  0  0  0  0  0  0  0  0  0  0  0
   -0.2997   -1.5336    0.0000 C   0  0  0  0  0  0  0  0  0  0  0  0
  2  1  1  6
  2  3  1  0
  3  4  1  0
  4  5  1  0
  5  6  2  0
  5  7  1  0
  7  8  1  0
  8  9  2  0
  9 10  1  0
 10 11  2  0
 11 12  1  0
 12 13  1  0
 12 14  2  0
  2 15  1  0
 15 16  1  6
 16 17  1  0
 18 17  1  6
 18 19  1  0
 19 20  1  1
 20 21  1  1
 20 22  1  0
 23 22  1  1
 23 24  1  0
 24 25  1  0
 25 26  1  1
 25 27  1  0
 27 28  1  0
 28 29  1  0
 29 30  1  6
 29 31  1  0
 31 32  1  6
 32 33  1  0
 33 34  1  1
 33 35  1  0
 35 36  1  6
 14  8  1  0
 35 15  1  0
 35 18  1  0
 31 19  1  0
 29 23  1  0
M  END
>  <MS_ID>  (1182) 
MS1228

>  <SMILES>  (1182) 
C[C@H](CCC(=O)Nc1cccc(Cl)c1)[C@H]1CC[C@H]2[C@@H]3[C@H](O)C[C@@H]4C[C@H](O)CC[C@]4(C)[C@H]3C[C@H](O)[C@]12C

>  <Structure_dimension>  (1182) 
2D

$$$$
MS1229
     RDKit          2D

 36 40  0  0  0  0  0  0  0  0999 V2000
   -0.9236   -4.7150    0.0000 C   0  0  0  0  0  0  0  0  0  0  0  0
   -0.3610   -3.3245    0.0000 C   0  0  0  0  0  0  0  0  0  0  0  0
   -1.2839   -2.1421    0.0000 C   0  0  0  0  0  0  0  0  0  0  0  0
   -2.7695   -2.3501    0.0000 C   0  0  0  0  0  0  0  0  0  0  0  0
   -3.6924   -1.1676    0.0000 C   0  0  0  0  0  0  0  0  0  0  0  0
   -3.1298    0.2229    0.0000 O   0  0  0  0  0  0  0  0  0  0  0  0
   -5.1779   -1.3757    0.0000 O   0  0  0  0  0  0  0  0  0  0  0  0
   -6.1008   -0.1932    0.0000 C   0  0  0  0  0  0  0  0  0  0  0  0
   -7.5863   -0.4012    0.0000 C   0  0  0  0  0  0  0  0  0  0  0  0
   -8.5092    0.7812    0.0000 C   0  0  0  0  0  0  0  0  0  0  0  0
   -7.9466    2.1717    0.0000 C   0  0  0  0  0  0  0  0  0  0  0  0
   -8.8695    3.3542    0.0000 C   0  0  0  0  0  0  0  0  0  0  0  0
  -10.3550    3.1461    0.0000 C   0  0  0  0  0  0  0  0  0  0  0  0
  -10.9176    1.7556    0.0000 C   0  0  0  0  0  0  0  0  0  0  0  0
   -9.9947    0.5732    0.0000 C   0  0  0  0  0  0  0  0  0  0  0  0
    1.1245   -3.1165    0.0000 C   0  0  0  0  0  0  0  0  0  0  0  0
    2.1659   -4.1960    0.0000 C   0  0  0  0  0  0  0  0  0  0  0  0
    3.5144   -3.5391    0.0000 C   0  0  0  0  0  0  0  0  0  0  0  0
    3.3064   -2.0536    0.0000 C   0  0  0  0  0  0  0  0  0  0  0  0
    4.2711   -0.9050    0.0000 C   0  0  0  0  0  0  0  0  0  0  0  0
    5.7482   -1.1662    0.0000 C   0  0  0  0  0  0  0  0  0  0  0  0
    6.2606   -2.5760    0.0000 O   0  0  0  0  0  0  0  0  0  0  0  0
    6.7130   -0.0176    0.0000 C   0  0  0  0  0  0  0  0  0  0  0  0
    6.2006    1.3922    0.0000 C   0  0  0  0  0  0  0  0  0  0  0  0
    7.1654    2.5408    0.0000 C   0  0  0  0  0  0  0  0  0  0  0  0
    6.6530    3.9506    0.0000 C   0  0  0  0  0  0  0  0  0  0  0  0
    7.6178    5.0992    0.0000 O   0  0  0  0  0  0  0  0  0  0  0  0
    5.1759    4.2118    0.0000 C   0  0  0  0  0  0  0  0  0  0  0  0
    4.2112    3.0632    0.0000 C   0  0  0  0  0  0  0  0  0  0  0  0
    4.7235    1.6534    0.0000 C   0  0  0  0  0  0  0  0  0  0  0  0
    3.2465    1.9146    0.0000 C   0  0  0  0  0  0  0  0  0  0  0  0
    3.7588    0.5048    0.0000 C   0  0  0  0  0  0  0  0  0  0  0  0
    2.2817    0.7660    0.0000 C   0  0  0  0  0  0  0  0  0  0  0  0
    1.3170   -0.3826    0.0000 C   0  0  0  0  0  0  0  0  0  0  0  0
    1.8293   -1.7924    0.0000 C   0  0  0  0  0  0  0  0  0  0  0  0
    0.3330   -1.6870    0.0000 C   0  0  0  0  0  0  0  0  0  0  0  0
  2  1  1  6
  2  3  1  0
  3  4  1  0
  4  5  1  0
  5  6  2  0
  5  7  1  0
  7  8  1  0
  8  9  1  0
  9 10  1  0
 10 11  2  0
 11 12  1  0
 12 13  2  0
 13 14  1  0
 14 15  2  0
  2 16  1  0
 16 17  1  6
 17 18  1  0
 19 18  1  6
 19 20  1  0
 20 21  1  1
 21 22  1  1
 21 23  1  0
 24 23  1  1
 24 25  1  0
 25 26  1  0
 26 27  1  1
 26 28  1  0
 28 29  1  0
 29 30  1  0
 30 31  1  6
 30 32  1  0
 32 33  1  6
 33 34  1  0
 34 35  1  0
 35 36  1  6
 15 10  1  0
 35 16  1  0
 35 19  1  0
 32 20  1  0
 30 24  1  0
M  END
>  <MS_ID>  (1183) 
MS1229

>  <SMILES>  (1183) 
C[C@H](CCC(=O)OCCc1ccccc1)[C@H]1CC[C@H]2[C@@H]3[C@H](O)C[C@@H]4C[C@H](O)CC[C@]4(C)[C@H]3CC[C@]12C

>  <Structure_dimension>  (1183) 
2D

$$$$
MS1230
     RDKit          2D

 28 31  0  0  0  0  0  0  0  0999 V2000
   -4.6352   -2.6140    0.0000 C   0  0  0  0  0  0  0  0  0  0  0  0
   -3.5136   -1.6180    0.0000 C   0  0  0  0  0  0  0  0  0  0  0  0
   -3.8154   -0.1486    0.0000 C   0  0  0  0  0  0  0  0  0  0  0  0
   -5.2387    0.3247    0.0000 C   0  0  0  0  0  0  0  0  0  0  0  0
   -5.5405    1.7940    0.0000 C   0  0  0  0  0  0  0  0  0  0  0  0
   -4.4189    2.7900    0.0000 O   0  0  0  0  0  0  0  0  0  0  0  0
   -6.9639    2.2673    0.0000 N   0  0  0  0  0  0  0  0  0  0  0  0
   -7.2657    3.7367    0.0000 N   0  0  0  0  0  0  0  0  0  0  0  0
   -2.0902   -2.0913    0.0000 C   0  0  0  0  0  0  0  0  0  0  0  0
   -1.6365   -3.5210    0.0000 C   0  0  0  0  0  0  0  0  0  0  0  0
   -0.1366   -3.5313    0.0000 C   0  0  0  0  0  0  0  0  0  0  0  0
    0.3368   -2.1080    0.0000 C   0  0  0  0  0  0  0  0  0  0  0  0
    1.7112   -1.5073    0.0000 C   0  0  0  0  0  0  0  0  0  0  0  0
    2.9187   -2.3973    0.0000 C   0  0  0  0  0  0  0  0  0  0  0  0
    4.2932   -1.7966    0.0000 C   0  0  0  0  0  0  0  0  0  0  0  0
    4.4602   -0.3060    0.0000 C   0  0  0  0  0  0  0  0  0  0  0  0
    5.8347    0.2947    0.0000 C   0  0  0  0  0  0  0  0  0  0  0  0
    6.0017    1.7854    0.0000 C   0  0  0  0  0  0  0  0  0  0  0  0
    7.3762    2.3861    0.0000 O   0  0  0  0  0  0  0  0  0  0  0  0
    4.7943    2.6754    0.0000 C   0  0  0  0  0  0  0  0  0  0  0  0
    3.4198    2.0747    0.0000 C   0  0  0  0  0  0  0  0  0  0  0  0
    3.2528    0.5840    0.0000 C   0  0  0  0  0  0  0  0  0  0  0  0
    2.0453    1.4740    0.0000 C   0  0  0  0  0  0  0  0  0  0  0  0
    1.8783   -0.0166    0.0000 C   0  0  0  0  0  0  0  0  0  0  0  0
    0.6708    0.8734    0.0000 C   0  0  0  0  0  0  0  0  0  0  0  0
   -0.7036    0.2727    0.0000 C   0  0  0  0  0  0  0  0  0  0  0  0
   -0.8707   -1.2180    0.0000 C   0  0  0  0  0  0  0  0  0  0  0  0
   -2.1645   -0.4591    0.0000 C   0  0  0  0  0  0  0  0  0  0  0  0
  2  1  1  6
  2  3  1  0
  3  4  1  0
  4  5  1  0
  5  6  2  0
  5  7  1  0
  7  8  1  0
  2  9  1  0
  9 10  1  6
 10 11  1  0
 12 11  1  6
 12 13  1  0
 13 14  1  1
 14 15  1  0
 16 15  1  1
 16 17  1  0
 17 18  1  0
 18 19  1  6
 18 20  1  0
 20 21  1  0
 21 22  1  0
 22 23  1  6
 22 24  1  0
 24 25  1  6
 25 26  1  0
 26 27  1  0
 27 28  1  6
 27  9  1  0
 27 12  1  0
 24 13  1  0
 22 16  1  0
M  END
>  <MS_ID>  (1184) 
MS1230

>  <SMILES>  (1184) 
C[C@H](CCC(=O)NN)[C@H]1CC[C@H]2[C@@H]3CC[C@@H]4C[C@@H](O)CC[C@]4(C)[C@H]3CC[C@]12C

>  <Structure_dimension>  (1184) 
2D

$$$$
MS1231
     RDKit          2D

 36 39  0  0  0  0  0  0  0  0999 V2000
   -1.6588   -4.2339    0.0000 C   0  0  0  0  0  0  0  0  0  0  0  0
   -0.9380   -2.9184    0.0000 C   0  0  0  0  0  0  0  0  0  0  0  0
   -1.7169   -1.6365    0.0000 C   0  0  0  0  0  0  0  0  0  0  0  0
   -3.2166   -1.6701    0.0000 C   0  0  0  0  0  0  0  0  0  0  0  0
   -3.9955   -0.3881    0.0000 C   0  0  0  0  0  0  0  0  0  0  0  0
   -3.2747    0.9274    0.0000 O   0  0  0  0  0  0  0  0  0  0  0  0
   -5.4951   -0.4217    0.0000 C   0  0  0  0  0  0  0  0  0  0  0  0
   -6.2740    0.8602    0.0000 C   0  0  0  0  0  0  0  0  0  0  0  0
   -7.7736    0.8266    0.0000 C   0  0  0  0  0  0  0  0  0  0  0  0
   -8.4943   -0.4889    0.0000 O   0  0  0  0  0  0  0  0  0  0  0  0
   -8.5525    2.1085    0.0000 C   0  0  0  0  0  0  0  0  0  0  0  0
  -10.0521    2.0749    0.0000 C   0  0  0  0  0  0  0  0  0  0  0  0
  -10.7729    0.7594    0.0000 O   0  0  0  0  0  0  0  0  0  0  0  0
  -10.8310    3.3568    0.0000 O   0  0  0  0  0  0  0  0  0  0  0  0
    0.5616   -2.8848    0.0000 C   0  0  0  0  0  0  0  0  0  0  0  0
    1.4702   -4.0783    0.0000 C   0  0  0  0  0  0  0  0  0  0  0  0
    2.8861   -3.5829    0.0000 C   0  0  0  0  0  0  0  0  0  0  0  0
    2.8525   -2.0833    0.0000 C   0  0  0  0  0  0  0  0  0  0  0  0
    3.9444   -1.0549    0.0000 C   0  0  0  0  0  0  0  0  0  0  0  0
    5.3810   -1.4864    0.0000 C   0  0  0  0  0  0  0  0  0  0  0  0
    5.7257   -2.9462    0.0000 O   0  0  0  0  0  0  0  0  0  0  0  0
    6.4730   -0.4579    0.0000 C   0  0  0  0  0  0  0  0  0  0  0  0
    6.1284    1.0019    0.0000 C   0  0  0  0  0  0  0  0  0  0  0  0
    7.2203    2.0303    0.0000 C   0  0  0  0  0  0  0  0  0  0  0  0
    6.8757    3.4902    0.0000 C   0  0  0  0  0  0  0  0  0  0  0  0
    7.9676    4.5186    0.0000 O   0  0  0  0  0  0  0  0  0  0  0  0
    5.4391    3.9217    0.0000 C   0  0  0  0  0  0  0  0  0  0  0  0
    4.3471    2.8933    0.0000 C   0  0  0  0  0  0  0  0  0  0  0  0
    4.6917    1.4334    0.0000 C   0  0  0  0  0  0  0  0  0  0  0  0
    3.2551    1.8648    0.0000 C   0  0  0  0  0  0  0  0  0  0  0  0
    3.5998    0.4050    0.0000 C   0  0  0  0  0  0  0  0  0  0  0  0
    2.1632    0.8364    0.0000 C   0  0  0  0  0  0  0  0  0  0  0  0
    1.0712   -0.1920    0.0000 C   0  0  0  0  0  0  0  0  0  0  0  0
   -0.3654    0.2395    0.0000 O   0  0  0  0  0  0  0  0  0  0  0  0
    1.4159   -1.6518    0.0000 C   0  0  0  0  0  0  0  0  0  0  0  0
   -0.0580   -1.3729    0.0000 C   0  0  0  0  0  0  0  0  0  0  0  0
  2  1  1  6
  2  3  1  0
  3  4  1  0
  4  5  1  0
  5  6  2  0
  5  7  1  0
  7  8  1  0
  8  9  1  0
  9 10  2  0
  9 11  1  0
 11 12  1  0
 12 13  2  0
 12 14  1  0
  2 15  1  0
 15 16  1  6
 16 17  1  0
 18 17  1  6
 18 19  1  0
 19 20  1  1
 20 21  1  1
 20 22  1  0
 23 22  1  1
 23 24  1  0
 24 25  1  0
 25 26  1  1
 25 27  1  0
 27 28  1  0
 28 29  1  0
 29 30  1  6
 29 31  1  0
 31 32  1  6
 32 33  1  0
 33 34  1  1
 33 35  1  0
 35 36  1  6
 35 15  1  0
 35 18  1  0
 31 19  1  0
 29 23  1  0
M  END
>  <MS_ID>  (1185) 
MS1231

>  <SMILES>  (1185) 
C[C@H](CCC(=O)CCC(=O)CC(=O)O)[C@H]1CC[C@H]2[C@@H]3[C@H](O)C[C@@H]4C[C@H](O)CC[C@]4(C)[C@H]3C[C@H](O)[C@]12C

>  <Structure_dimension>  (1185) 
2D

$$$$
MS1232
     RDKit          2D

 33 36  0  0  0  0  0  0  0  0999 V2000
   -2.4343   -4.1694    0.0000 C   0  0  0  0  0  0  0  0  0  0  0  0
   -1.6856   -2.8696    0.0000 C   0  0  0  0  0  0  0  0  0  0  0  0
   -2.4369   -1.5713    0.0000 C   0  0  0  0  0  0  0  0  0  0  0  0
   -3.9369   -1.5728    0.0000 C   0  0  0  0  0  0  0  0  0  0  0  0
   -4.6882   -0.2745    0.0000 C   0  0  0  0  0  0  0  0  0  0  0  0
   -3.9395    1.0253    0.0000 O   0  0  0  0  0  0  0  0  0  0  0  0
   -6.1882   -0.2760    0.0000 O   0  0  0  0  0  0  0  0  0  0  0  0
   -6.9395    1.0223    0.0000 C   0  0  0  0  0  0  0  0  0  0  0  0
   -8.4395    1.0208    0.0000 C   0  0  0  0  0  0  0  0  0  0  0  0
   -9.1908    2.3191    0.0000 N   0  0  0  0  0  0  0  0  0  0  0  0
  -10.6908    2.3176    0.0000 C   0  0  0  0  0  0  0  0  0  0  0  0
   -8.4421    3.6189    0.0000 C   0  0  0  0  0  0  0  0  0  0  0  0
   -0.1856   -2.8681    0.0000 C   0  0  0  0  0  0  0  0  0  0  0  0
    0.6973   -4.0807    0.0000 C   0  0  0  0  0  0  0  0  0  0  0  0
    2.1234   -3.6158    0.0000 C   0  0  0  0  0  0  0  0  0  0  0  0
    2.1219   -2.1158    0.0000 C   0  0  0  0  0  0  0  0  0  0  0  0
    3.2356   -1.1109    0.0000 C   0  0  0  0  0  0  0  0  0  0  0  0
    4.6626   -1.5730    0.0000 C   0  0  0  0  0  0  0  0  0  0  0  0
    4.9760   -3.0399    0.0000 O   0  0  0  0  0  0  0  0  0  0  0  0
    5.7764   -0.5682    0.0000 C   0  0  0  0  0  0  0  0  0  0  0  0
    5.4630    0.8987    0.0000 C   0  0  0  0  0  0  0  0  0  0  0  0
    6.5767    1.9035    0.0000 C   0  0  0  0  0  0  0  0  0  0  0  0
    6.2634    3.3704    0.0000 C   0  0  0  0  0  0  0  0  0  0  0  0
    7.3771    4.3752    0.0000 O   0  0  0  0  0  0  0  0  0  0  0  0
    4.8363    3.8325    0.0000 C   0  0  0  0  0  0  0  0  0  0  0  0
    3.7226    2.8277    0.0000 C   0  0  0  0  0  0  0  0  0  0  0  0
    4.0360    1.3608    0.0000 C   0  0  0  0  0  0  0  0  0  0  0  0
    2.6089    1.8229    0.0000 C   0  0  0  0  0  0  0  0  0  0  0  0
    2.9223    0.3560    0.0000 C   0  0  0  0  0  0  0  0  0  0  0  0
    1.4952    0.8181    0.0000 C   0  0  0  0  0  0  0  0  0  0  0  0
    0.3815   -0.1867    0.0000 C   0  0  0  0  0  0  0  0  0  0  0  0
    0.6948   -1.6537    0.0000 C   0  0  0  0  0  0  0  0  0  0  0  0
   -0.7727   -1.3433    0.0000 C   0  0  0  0  0  0  0  0  0  0  0  0
  2  1  1  6
  2  3  1  0
  3  4  1  0
  4  5  1  0
  5  6  2  0
  5  7  1  0
  7  8  1  0
  8  9  1  0
  9 10  1  0
 10 11  1  0
 10 12  1  0
  2 13  1  0
 13 14  1  6
 14 15  1  0
 16 15  1  6
 16 17  1  0
 17 18  1  1
 18 19  1  6
 18 20  1  0
 21 20  1  1
 21 22  1  0
 22 23  1  0
 23 24  1  1
 23 25  1  0
 25 26  1  0
 26 27  1  0
 27 28  1  6
 27 29  1  0
 29 30  1  6
 30 31  1  0
 31 32  1  0
 32 33  1  6
 32 13  1  0
 32 16  1  0
 29 17  1  0
 27 21  1  0
M  END
>  <MS_ID>  (1186) 
MS1232

>  <SMILES>  (1186) 
C[C@H](CCC(=O)OCCN(C)C)[C@H]1CC[C@H]2[C@@H]3[C@@H](O)C[C@@H]4C[C@H](O)CC[C@]4(C)[C@H]3CC[C@]12C

>  <Structure_dimension>  (1186) 
2D

$$$$
MS1233
     RDKit          2D

 35 38  0  0  0  0  0  0  0  0999 V2000
   -2.1397   -4.2885    0.0000 C   0  0  0  0  0  0  0  0  0  0  0  0
   -1.4179   -2.9736    0.0000 C   0  0  0  0  0  0  0  0  0  0  0  0
   -2.1958   -1.6911    0.0000 C   0  0  0  0  0  0  0  0  0  0  0  0
   -3.6955   -1.7235    0.0000 C   0  0  0  0  0  0  0  0  0  0  0  0
   -4.4733   -0.4409    0.0000 C   0  0  0  0  0  0  0  0  0  0  0  0
   -3.7516    0.8740    0.0000 O   0  0  0  0  0  0  0  0  0  0  0  0
   -5.9730   -0.4733    0.0000 C   0  0  0  0  0  0  0  0  0  0  0  0
   -6.7509    0.8092    0.0000 C   0  0  0  0  0  0  0  0  0  0  0  0
   -6.0291    2.1241    0.0000 O   0  0  0  0  0  0  0  0  0  0  0  0
   -8.2505    0.7768    0.0000 C   0  0  0  0  0  0  0  0  0  0  0  0
   -9.0284    2.0594    0.0000 C   0  0  0  0  0  0  0  0  0  0  0  0
   -8.3066    3.3743    0.0000 O   0  0  0  0  0  0  0  0  0  0  0  0
  -10.5281    2.0270    0.0000 O   0  0  0  0  0  0  0  0  0  0  0  0
    0.0817   -2.9412    0.0000 C   0  0  0  0  0  0  0  0  0  0  0  0
    0.9894   -4.1354    0.0000 C   0  0  0  0  0  0  0  0  0  0  0  0
    2.4056   -3.6412    0.0000 C   0  0  0  0  0  0  0  0  0  0  0  0
    2.3732   -2.1415    0.0000 C   0  0  0  0  0  0  0  0  0  0  0  0
    3.4660   -1.1140    0.0000 C   0  0  0  0  0  0  0  0  0  0  0  0
    4.9023   -1.5466    0.0000 C   0  0  0  0  0  0  0  0  0  0  0  0
    5.2458   -3.0068    0.0000 O   0  0  0  0  0  0  0  0  0  0  0  0
    5.9951   -0.5191    0.0000 C   0  0  0  0  0  0  0  0  0  0  0  0
    5.6516    0.9411    0.0000 C   0  0  0  0  0  0  0  0  0  0  0  0
    6.7444    1.9686    0.0000 C   0  0  0  0  0  0  0  0  0  0  0  0
    6.4009    3.4287    0.0000 C   0  0  0  0  0  0  0  0  0  0  0  0
    7.4937    4.4563    0.0000 O   0  0  0  0  0  0  0  0  0  0  0  0
    4.9646    3.8614    0.0000 C   0  0  0  0  0  0  0  0  0  0  0  0
    3.8718    2.8338    0.0000 C   0  0  0  0  0  0  0  0  0  0  0  0
    4.2153    1.3737    0.0000 C   0  0  0  0  0  0  0  0  0  0  0  0
    2.7791    1.8063    0.0000 C   0  0  0  0  0  0  0  0  0  0  0  0
    3.1225    0.3461    0.0000 C   0  0  0  0  0  0  0  0  0  0  0  0
    1.6863    0.7787    0.0000 C   0  0  0  0  0  0  0  0  0  0  0  0
    0.5935   -0.2488    0.0000 C   0  0  0  0  0  0  0  0  0  0  0  0
   -0.8428    0.1838    0.0000 O   0  0  0  0  0  0  0  0  0  0  0  0
    0.9370   -1.7089    0.0000 C   0  0  0  0  0  0  0  0  0  0  0  0
   -0.5366   -1.4288    0.0000 C   0  0  0  0  0  0  0  0  0  0  0  0
  2  1  1  6
  2  3  1  0
  3  4  1  0
  4  5  1  0
  5  6  2  0
  5  7  1  0
  7  8  1  0
  8  9  2  0
  8 10  1  0
 10 11  1  0
 11 12  2  0
 11 13  1  0
  2 14  1  0
 14 15  1  6
 15 16  1  0
 17 16  1  6
 17 18  1  0
 18 19  1  1
 19 20  1  1
 19 21  1  0
 22 21  1  1
 22 23  1  0
 23 24  1  0
 24 25  1  1
 24 26  1  0
 26 27  1  0
 27 28  1  0
 28 29  1  6
 28 30  1  0
 30 31  1  6
 31 32  1  0
 32 33  1  1
 32 34  1  0
 34 35  1  6
 34 14  1  0
 34 17  1  0
 30 18  1  0
 28 22  1  0
M  END
>  <MS_ID>  (1187) 
MS1233

>  <SMILES>  (1187) 
C[C@H](CCC(=O)CC(=O)CC(=O)O)[C@H]1CC[C@H]2[C@@H]3[C@H](O)C[C@@H]4C[C@H](O)CC[C@]4(C)[C@H]3C[C@H](O)[C@]12C

>  <Structure_dimension>  (1187) 
2D

$$$$
MS1234
     RDKit          2D

 29 32  0  0  0  0  0  0  0  0999 V2000
   -5.0303   -2.1373    0.0000 C   0  0  0  0  0  0  0  0  0  0  0  0
   -3.8594   -1.1998    0.0000 C   0  0  0  0  0  0  0  0  0  0  0  0
   -4.0858    0.2830    0.0000 C   0  0  0  0  0  0  0  0  0  0  0  0
   -5.4831    0.8284    0.0000 C   0  0  0  0  0  0  0  0  0  0  0  0
   -5.7095    2.3112    0.0000 C   0  0  0  0  0  0  0  0  0  0  0  0
   -4.5386    3.2487    0.0000 O   0  0  0  0  0  0  0  0  0  0  0  0
   -7.1069    2.8565    0.0000 O   0  0  0  0  0  0  0  0  0  0  0  0
   -2.4620   -1.7451    0.0000 C   0  0  0  0  0  0  0  0  0  0  0  0
   -2.0818   -3.1961    0.0000 C   0  0  0  0  0  0  0  0  0  0  0  0
   -0.5844   -3.2830    0.0000 C   0  0  0  0  0  0  0  0  0  0  0  0
   -0.0390   -1.8856    0.0000 C   0  0  0  0  0  0  0  0  0  0  0  0
    1.3643   -1.3559    0.0000 C   0  0  0  0  0  0  0  0  0  0  0  0
    2.5248   -2.3063    0.0000 C   0  0  0  0  0  0  0  0  0  0  0  0
    2.2819   -3.7865    0.0000 O   0  0  0  0  0  0  0  0  0  0  0  0
    3.9281   -1.7765    0.0000 C   0  0  0  0  0  0  0  0  0  0  0  0
    4.1710   -0.2963    0.0000 C   0  0  0  0  0  0  0  0  0  0  0  0
    5.5743    0.2334    0.0000 C   0  0  0  0  0  0  0  0  0  0  0  0
    5.8172    1.7136    0.0000 C   0  0  0  0  0  0  0  0  0  0  0  0
    7.2205    2.2434    0.0000 O   0  0  0  0  0  0  0  0  0  0  0  0
    4.6568    2.6641    0.0000 C   0  0  0  0  0  0  0  0  0  0  0  0
    3.2534    2.1343    0.0000 C   0  0  0  0  0  0  0  0  0  0  0  0
    3.0105    0.6541    0.0000 C   0  0  0  0  0  0  0  0  0  0  0  0
    1.8501    1.6046    0.0000 C   0  0  0  0  0  0  0  0  0  0  0  0
    1.6072    0.1244    0.0000 C   0  0  0  0  0  0  0  0  0  0  0  0
    0.4467    1.0748    0.0000 C   0  0  0  0  0  0  0  0  0  0  0  0
   -0.9566    0.5450    0.0000 C   0  0  0  0  0  0  0  0  0  0  0  0
   -2.1170    1.4955    0.0000 O   0  0  0  0  0  0  0  0  0  0  0  0
   -1.1995   -0.9352    0.0000 C   0  0  0  0  0  0  0  0  0  0  0  0
   -2.4529   -0.1112    0.0000 C   0  0  0  0  0  0  0  0  0  0  0  0
  2  1  1  6
  2  3  1  0
  3  4  1  0
  4  5  1  0
  5  6  2  0
  5  7  1  0
  2  8  1  0
  8  9  1  6
  9 10  1  0
 11 10  1  6
 11 12  1  0
 12 13  1  1
 13 14  2  0
 13 15  1  0
 16 15  1  1
 16 17  1  0
 17 18  1  0
 18 19  2  0
 18 20  1  0
 20 21  1  0
 21 22  1  0
 22 23  1  6
 22 24  1  0
 24 25  1  6
 25 26  1  0
 26 27  1  1
 26 28  1  0
 28 29  1  6
 28  8  1  0
 28 11  1  0
 24 12  1  0
 22 16  1  0
M  END
>  <MS_ID>  (1188) 
MS1234

>  <SMILES>  (1188) 
C[C@H](CCC(=O)O)[C@H]1CC[C@H]2[C@@H]3C(=O)C[C@@H]4CC(=O)CC[C@]4(C)[C@H]3C[C@H](O)[C@]12C

>  <Structure_dimension>  (1188) 
2D

$$$$
MS1235
     RDKit          2D

 35 39  0  0  0  0  0  0  0  0999 V2000
   -2.2319   -4.3352    0.0000 C   0  0  0  0  0  0  0  0  0  0  0  0
   -1.5144   -3.0180    0.0000 C   0  0  0  0  0  0  0  0  0  0  0  0
   -2.2965   -1.7380    0.0000 C   0  0  0  0  0  0  0  0  0  0  0  0
   -3.7960   -1.7752    0.0000 C   0  0  0  0  0  0  0  0  0  0  0  0
   -4.5781   -0.4952    0.0000 C   0  0  0  0  0  0  0  0  0  0  0  0
   -3.8606    0.8220    0.0000 O   0  0  0  0  0  0  0  0  0  0  0  0
   -6.0776   -0.5325    0.0000 C   0  0  0  0  0  0  0  0  0  0  0  0
   -6.8597    0.7475    0.0000 C   0  0  0  0  0  0  0  0  0  0  0  0
   -6.1422    2.0648    0.0000 C   0  0  0  0  0  0  0  0  0  0  0  0
   -6.9242    3.3448    0.0000 C   0  0  0  0  0  0  0  0  0  0  0  0
   -8.4238    3.3075    0.0000 C   0  0  0  0  0  0  0  0  0  0  0  0
   -9.1412    1.9902    0.0000 C   0  0  0  0  0  0  0  0  0  0  0  0
   -8.3592    0.7102    0.0000 N   0  0  0  0  0  0  0  0  0  0  0  0
   -0.0149   -2.9807    0.0000 C   0  0  0  0  0  0  0  0  0  0  0  0
    0.8967   -4.1719    0.0000 C   0  0  0  0  0  0  0  0  0  0  0  0
    2.3113   -3.6731    0.0000 C   0  0  0  0  0  0  0  0  0  0  0  0
    2.2740   -2.1736    0.0000 C   0  0  0  0  0  0  0  0  0  0  0  0
    3.3634   -1.1425    0.0000 C   0  0  0  0  0  0  0  0  0  0  0  0
    4.8011   -1.5704    0.0000 C   0  0  0  0  0  0  0  0  0  0  0  0
    5.1493   -3.0294    0.0000 O   0  0  0  0  0  0  0  0  0  0  0  0
    5.8905   -0.5393    0.0000 C   0  0  0  0  0  0  0  0  0  0  0  0
    5.5423    0.9197    0.0000 C   0  0  0  0  0  0  0  0  0  0  0  0
    6.6317    1.9508    0.0000 C   0  0  0  0  0  0  0  0  0  0  0  0
    6.2835    3.4098    0.0000 C   0  0  0  0  0  0  0  0  0  0  0  0
    7.3729    4.4409    0.0000 O   0  0  0  0  0  0  0  0  0  0  0  0
    4.8458    3.8377    0.0000 C   0  0  0  0  0  0  0  0  0  0  0  0
    3.7564    2.8066    0.0000 C   0  0  0  0  0  0  0  0  0  0  0  0
    4.1046    1.3476    0.0000 C   0  0  0  0  0  0  0  0  0  0  0  0
    2.6670    1.7755    0.0000 C   0  0  0  0  0  0  0  0  0  0  0  0
    3.0152    0.3165    0.0000 C   0  0  0  0  0  0  0  0  0  0  0  0
    1.5776    0.7445    0.0000 C   0  0  0  0  0  0  0  0  0  0  0  0
    0.4881   -0.2866    0.0000 C   0  0  0  0  0  0  0  0  0  0  0  0
   -0.9495    0.1413    0.0000 O   0  0  0  0  0  0  0  0  0  0  0  0
    0.8363   -1.7456    0.0000 C   0  0  0  0  0  0  0  0  0  0  0  0
   -0.6382   -1.4703    0.0000 C   0  0  0  0  0  0  0  0  0  0  0  0
  2  1  1  6
  2  3  1  0
  3  4  1  0
  4  5  1  0
  5  6  2  0
  5  7  1  0
  7  8  1  0
  8  9  2  0
  9 10  1  0
 10 11  2  0
 11 12  1  0
 12 13  2  0
  2 14  1  0
 14 15  1  6
 15 16  1  0
 17 16  1  6
 17 18  1  0
 18 19  1  1
 19 20  1  1
 19 21  1  0
 22 21  1  1
 22 23  1  0
 23 24  1  0
 24 25  1  1
 24 26  1  0
 26 27  1  0
 27 28  1  0
 28 29  1  6
 28 30  1  0
 30 31  1  6
 31 32  1  0
 32 33  1  1
 32 34  1  0
 34 35  1  6
 13  8  1  0
 34 14  1  0
 34 17  1  0
 30 18  1  0
 28 22  1  0
M  END
>  <MS_ID>  (1189) 
MS1235

>  <SMILES>  (1189) 
C[C@H](CCC(=O)Cc1ccccn1)[C@H]1CC[C@H]2[C@@H]3[C@H](O)C[C@@H]4C[C@H](O)CC[C@]4(C)[C@H]3C[C@H](O)[C@]12C

>  <Structure_dimension>  (1189) 
2D

$$$$
MS1236
     RDKit          2D

 32 35  0  0  0  0  0  0  0  0999 V2000
  -10.5534    3.1554    0.0000 C   0  0  0  0  0  0  0  0  0  0  0  0
   -9.0579    3.0406    0.0000 C   0  0  0  0  0  0  0  0  0  0  0  0
   -8.4096    1.6879    0.0000 C   0  0  0  0  0  0  0  0  0  0  0  0
   -6.9140    1.5730    0.0000 C   0  0  0  0  0  0  0  0  0  0  0  0
   -6.2657    0.2203    0.0000 C   0  0  0  0  0  0  0  0  0  0  0  0
   -4.7701    0.1054    0.0000 C   0  0  0  0  0  0  0  0  0  0  0  0
   -3.9228    1.3432    0.0000 O   0  0  0  0  0  0  0  0  0  0  0  0
   -4.1218   -1.2472    0.0000 C   0  0  0  0  0  0  0  0  0  0  0  0
   -2.6262   -1.3621    0.0000 C   0  0  0  0  0  0  0  0  0  0  0  0
   -1.9779   -2.7148    0.0000 C   0  0  0  0  0  0  0  0  0  0  0  0
   -2.8252   -3.9526    0.0000 C   0  0  0  0  0  0  0  0  0  0  0  0
   -0.4823   -2.8297    0.0000 C   0  0  0  0  0  0  0  0  0  0  0  0
    0.3038   -4.1072    0.0000 C   0  0  0  0  0  0  0  0  0  0  0  0
    1.7617   -3.7543    0.0000 C   0  0  0  0  0  0  0  0  0  0  0  0
    1.8766   -2.2587    0.0000 C   0  0  0  0  0  0  0  0  0  0  0  0
    3.0650   -1.3433    0.0000 C   0  0  0  0  0  0  0  0  0  0  0  0
    4.4518   -1.9148    0.0000 C   0  0  0  0  0  0  0  0  0  0  0  0
    5.6402   -0.9994    0.0000 C   0  0  0  0  0  0  0  0  0  0  0  0
    5.4416    0.4874    0.0000 C   0  0  0  0  0  0  0  0  0  0  0  0
    6.6299    1.4028    0.0000 C   0  0  0  0  0  0  0  0  0  0  0  0
    6.4313    2.8896    0.0000 C   0  0  0  0  0  0  0  0  0  0  0  0
    7.6197    3.8049    0.0000 O   0  0  0  0  0  0  0  0  0  0  0  0
    5.0445    3.4610    0.0000 C   0  0  0  0  0  0  0  0  0  0  0  0
    3.8561    2.5456    0.0000 C   0  0  0  0  0  0  0  0  0  0  0  0
    4.0547    1.0588    0.0000 C   0  0  0  0  0  0  0  0  0  0  0  0
    2.6678    1.6303    0.0000 C   0  0  0  0  0  0  0  0  0  0  0  0
    2.8664    0.1435    0.0000 C   0  0  0  0  0  0  0  0  0  0  0  0
    1.4795    0.7149    0.0000 C   0  0  0  0  0  0  0  0  0  0  0  0
    0.2912   -0.2005    0.0000 C   0  0  0  0  0  0  0  0  0  0  0  0
   -1.0957    0.3710    0.0000 O   0  0  0  0  0  0  0  0  0  0  0  0
    0.4897   -1.6873    0.0000 C   0  0  0  0  0  0  0  0  0  0  0  0
   -0.9493   -1.2639    0.0000 C   0  0  0  0  0  0  0  0  0  0  0  0
  1  2  1  0
  2  3  1  0
  3  4  1  0
  4  5  1  0
  5  6  1  0
  6  7  2  0
  6  8  1  0
  8  9  1  0
  9 10  1  0
 10 11  1  6
 10 12  1  0
 12 13  1  6
 13 14  1  0
 15 14  1  6
 15 16  1  0
 16 17  1  1
 17 18  1  0
 19 18  1  1
 19 20  1  0
 20 21  1  0
 21 22  1  1
 21 23  1  0
 23 24  1  0
 24 25  1  0
 25 26  1  6
 25 27  1  0
 27 28  1  6
 28 29  1  0
 29 30  1  6
 29 31  1  0
 31 32  1  6
 31 12  1  0
 31 15  1  0
 27 16  1  0
 25 19  1  0
M  END
>  <MS_ID>  (1190) 
MS1236

>  <SMILES>  (1190) 
CCCCCC(=O)CC[C@@H](C)[C@H]1CC[C@H]2[C@@H]3CC[C@@H]4C[C@H](O)CC[C@]4(C)[C@H]3C[C@@H](O)[C@]12C

>  <Structure_dimension>  (1190) 
2D

$$$$
MS1237
     RDKit          2D

 35 38  0  0  0  0  0  0  0  0999 V2000
   -1.1848   -4.5684    0.0000 C   0  0  0  0  0  0  0  0  0  0  0  0
   -0.5815   -3.1951    0.0000 C   0  0  0  0  0  0  0  0  0  0  0  0
   -1.4692   -1.9860    0.0000 C   0  0  0  0  0  0  0  0  0  0  0  0
   -2.9602   -2.1502    0.0000 C   0  0  0  0  0  0  0  0  0  0  0  0
   -3.8478   -0.9410    0.0000 C   0  0  0  0  0  0  0  0  0  0  0  0
   -3.2445    0.4323    0.0000 O   0  0  0  0  0  0  0  0  0  0  0  0
   -5.3388   -1.1052    0.0000 C   0  0  0  0  0  0  0  0  0  0  0  0
   -6.2265    0.1039    0.0000 N   0  0  0  0  0  0  0  0  0  0  0  0
   -7.7175   -0.0603    0.0000 C   0  0  0  0  0  0  0  0  0  0  0  0
   -8.6052    1.1489    0.0000 C   0  0  0  0  0  0  0  0  0  0  0  0
  -10.0962    0.9847    0.0000 C   0  0  0  0  0  0  0  0  0  0  0  0
  -10.9839    2.1938    0.0000 C   0  0  0  0  0  0  0  0  0  0  0  0
  -10.3806    3.5672    0.0000 O   0  0  0  0  0  0  0  0  0  0  0  0
  -12.4748    2.0297    0.0000 O   0  0  0  0  0  0  0  0  0  0  0  0
    0.9095   -3.0309    0.0000 C   0  0  0  0  0  0  0  0  0  0  0  0
    1.9187   -4.1407    0.0000 C   0  0  0  0  0  0  0  0  0  0  0  0
    3.2860   -3.5238    0.0000 C   0  0  0  0  0  0  0  0  0  0  0  0
    3.1218   -2.0328    0.0000 C   0  0  0  0  0  0  0  0  0  0  0  0
    4.1199   -0.9131    0.0000 C   0  0  0  0  0  0  0  0  0  0  0  0
    5.5887   -1.2177    0.0000 C   0  0  0  0  0  0  0  0  0  0  0  0
    6.0593   -2.6420    0.0000 O   0  0  0  0  0  0  0  0  0  0  0  0
    6.5869   -0.0980    0.0000 C   0  0  0  0  0  0  0  0  0  0  0  0
    6.1163    1.3263    0.0000 C   0  0  0  0  0  0  0  0  0  0  0  0
    7.1144    2.4459    0.0000 C   0  0  0  0  0  0  0  0  0  0  0  0
    6.6438    3.8702    0.0000 C   0  0  0  0  0  0  0  0  0  0  0  0
    7.6420    4.9899    0.0000 O   0  0  0  0  0  0  0  0  0  0  0  0
    5.1751    4.1748    0.0000 C   0  0  0  0  0  0  0  0  0  0  0  0
    4.1769    3.0551    0.0000 C   0  0  0  0  0  0  0  0  0  0  0  0
    4.6475    1.6309    0.0000 C   0  0  0  0  0  0  0  0  0  0  0  0
    3.1788    1.9354    0.0000 C   0  0  0  0  0  0  0  0  0  0  0  0
    3.6494    0.5112    0.0000 C   0  0  0  0  0  0  0  0  0  0  0  0
    2.1806    0.8158    0.0000 C   0  0  0  0  0  0  0  0  0  0  0  0
    1.1825   -0.3039    0.0000 C   0  0  0  0  0  0  0  0  0  0  0  0
    1.6530   -1.7282    0.0000 C   0  0  0  0  0  0  0  0  0  0  0  0
    0.1605   -1.5788    0.0000 C   0  0  0  0  0  0  0  0  0  0  0  0
  2  1  1  6
  2  3  1  0
  3  4  1  0
  4  5  1  0
  5  6  2  0
  5  7  1  0
  7  8  1  0
  8  9  1  0
  9 10  1  0
 10 11  1  0
 11 12  1  0
 12 13  2  0
 12 14  1  0
  2 15  1  0
 15 16  1  6
 16 17  1  0
 18 17  1  6
 18 19  1  0
 19 20  1  1
 20 21  1  6
 20 22  1  0
 23 22  1  1
 23 24  1  0
 24 25  1  0
 25 26  1  1
 25 27  1  0
 27 28  1  0
 28 29  1  0
 29 30  1  6
 29 31  1  0
 31 32  1  6
 32 33  1  0
 33 34  1  0
 34 35  1  6
 34 15  1  0
 34 18  1  0
 31 19  1  0
 29 23  1  0
M  END
>  <MS_ID>  (1191) 
MS1237

>  <SMILES>  (1191) 
C[C@H](CCC(=O)CNCCCC(=O)O)[C@H]1CC[C@H]2[C@@H]3[C@@H](O)C[C@@H]4C[C@H](O)CC[C@]4(C)[C@H]3CC[C@]12C

>  <Structure_dimension>  (1191) 
2D

$$$$
MS1238
     RDKit          2D

 30 33  0  0  0  0  0  0  0  0999 V2000
   -7.7754    3.4718    0.0000 C   0  0  0  0  0  0  0  0  0  0  0  0
   -7.3815    2.0245    0.0000 O   0  0  0  0  0  0  0  0  0  0  0  0
   -5.9311    1.6420    0.0000 C   0  0  0  0  0  0  0  0  0  0  0  0
   -4.8746    2.7068    0.0000 O   0  0  0  0  0  0  0  0  0  0  0  0
   -5.5371    0.1946    0.0000 C   0  0  0  0  0  0  0  0  0  0  0  0
   -4.0867   -0.1879    0.0000 C   0  0  0  0  0  0  0  0  0  0  0  0
   -3.6928   -1.6352    0.0000 C   0  0  0  0  0  0  0  0  0  0  0  0
   -4.7493   -2.7001    0.0000 C   0  0  0  0  0  0  0  0  0  0  0  0
   -2.2424   -2.0177    0.0000 C   0  0  0  0  0  0  0  0  0  0  0  0
   -1.6993   -3.4160    0.0000 C   0  0  0  0  0  0  0  0  0  0  0  0
   -0.2017   -3.3316    0.0000 C   0  0  0  0  0  0  0  0  0  0  0  0
    0.1808   -1.8812    0.0000 C   0  0  0  0  0  0  0  0  0  0  0  0
    1.5146   -1.1949    0.0000 C   0  0  0  0  0  0  0  0  0  0  0  0
    2.7759   -2.0069    0.0000 C   0  0  0  0  0  0  0  0  0  0  0  0
    2.7033   -3.5051    0.0000 O   0  0  0  0  0  0  0  0  0  0  0  0
    4.1097   -1.3206    0.0000 C   0  0  0  0  0  0  0  0  0  0  0  0
    5.3709   -2.1326    0.0000 O   0  0  0  0  0  0  0  0  0  0  0  0
    4.1823    0.1776    0.0000 C   0  0  0  0  0  0  0  0  0  0  0  0
    5.5161    0.8639    0.0000 C   0  0  0  0  0  0  0  0  0  0  0  0
    5.5887    2.3621    0.0000 C   0  0  0  0  0  0  0  0  0  0  0  0
    6.9225    3.0484    0.0000 O   0  0  0  0  0  0  0  0  0  0  0  0
    4.3274    3.1741    0.0000 C   0  0  0  0  0  0  0  0  0  0  0  0
    2.9936    2.4878    0.0000 C   0  0  0  0  0  0  0  0  0  0  0  0
    2.9210    0.9896    0.0000 C   0  0  0  0  0  0  0  0  0  0  0  0
    1.6598    1.8016    0.0000 C   0  0  0  0  0  0  0  0  0  0  0  0
    1.5872    0.3033    0.0000 C   0  0  0  0  0  0  0  0  0  0  0  0
    0.3260    1.1153    0.0000 C   0  0  0  0  0  0  0  0  0  0  0  0
   -1.0078    0.4291    0.0000 C   0  0  0  0  0  0  0  0  0  0  0  0
   -1.0804   -1.0692    0.0000 C   0  0  0  0  0  0  0  0  0  0  0  0
   -2.4196   -0.3935    0.0000 C   0  0  0  0  0  0  0  0  0  0  0  0
  1  2  1  0
  2  3  1  0
  3  4  2  0
  3  5  1  0
  5  6  1  0
  6  7  1  0
  7  8  1  6
  7  9  1  0
  9 10  1  6
 10 11  1  0
 12 11  1  6
 12 13  1  0
 13 14  1  1
 14 15  1  1
 14 16  1  0
 16 17  1  1
 16 18  1  0
 18 19  1  1
 19 20  1  0
 20 21  1  1
 20 22  1  0
 22 23  1  0
 23 24  1  0
 24 25  1  6
 24 26  1  0
 26 27  1  6
 27 28  1  0
 28 29  1  0
 29 30  1  6
 29  9  1  0
 29 12  1  0
 26 13  1  0
 24 18  1  0
M  END
>  <MS_ID>  (1192) 
MS1238

>  <SMILES>  (1192) 
COC(=O)CC[C@@H](C)[C@H]1CC[C@H]2[C@@H]3[C@H](O)[C@H](O)[C@@H]4C[C@H](O)CC[C@]4(C)[C@H]3CC[C@]12C

>  <Structure_dimension>  (1192) 
2D

$$$$
MS1239
     RDKit          2D

 34 38  0  0  0  0  0  0  0  0999 V2000
   -2.6599   -4.1335    0.0000 C   0  0  0  0  0  0  0  0  0  0  0  0
   -1.8847   -2.8494    0.0000 C   0  0  0  0  0  0  0  0  0  0  0  0
   -2.6091   -1.5360    0.0000 C   0  0  0  0  0  0  0  0  0  0  0  0
   -4.1089   -1.5067    0.0000 C   0  0  0  0  0  0  0  0  0  0  0  0
   -4.8333   -0.1932    0.0000 C   0  0  0  0  0  0  0  0  0  0  0  0
   -4.0581    1.0909    0.0000 O   0  0  0  0  0  0  0  0  0  0  0  0
   -6.3331   -0.1639    0.0000 C   0  0  0  0  0  0  0  0  0  0  0  0
   -7.0575    1.1495    0.0000 C   0  0  0  0  0  0  0  0  0  0  0  0
   -8.5460    1.3354    0.0000 C   0  0  0  0  0  0  0  0  0  0  0  0
   -8.8291    2.8085    0.0000 N   0  0  0  0  0  0  0  0  0  0  0  0
   -7.5157    3.5330    0.0000 C   0  0  0  0  0  0  0  0  0  0  0  0
   -6.4208    2.5077    0.0000 N   0  0  0  0  0  0  0  0  0  0  0  0
   -0.3850   -2.8787    0.0000 C   0  0  0  0  0  0  0  0  0  0  0  0
    0.4728   -4.1092    0.0000 C   0  0  0  0  0  0  0  0  0  0  0  0
    1.9082   -3.6737    0.0000 C   0  0  0  0  0  0  0  0  0  0  0  0
    1.9375   -2.1740    0.0000 C   0  0  0  0  0  0  0  0  0  0  0  0
    3.0716   -1.1922    0.0000 C   0  0  0  0  0  0  0  0  0  0  0  0
    4.4889   -1.6835    0.0000 C   0  0  0  0  0  0  0  0  0  0  0  0
    4.7720   -3.1566    0.0000 O   0  0  0  0  0  0  0  0  0  0  0  0
    5.6230   -0.7018    0.0000 C   0  0  0  0  0  0  0  0  0  0  0  0
    5.3399    0.7712    0.0000 C   0  0  0  0  0  0  0  0  0  0  0  0
    6.4740    1.7530    0.0000 C   0  0  0  0  0  0  0  0  0  0  0  0
    6.1908    3.2260    0.0000 C   0  0  0  0  0  0  0  0  0  0  0  0
    7.3249    4.2077    0.0000 O   0  0  0  0  0  0  0  0  0  0  0  0
    4.7736    3.7173    0.0000 C   0  0  0  0  0  0  0  0  0  0  0  0
    3.6395    2.7356    0.0000 C   0  0  0  0  0  0  0  0  0  0  0  0
    3.9226    1.2625    0.0000 C   0  0  0  0  0  0  0  0  0  0  0  0
    2.5053    1.7538    0.0000 C   0  0  0  0  0  0  0  0  0  0  0  0
    2.7885    0.2808    0.0000 C   0  0  0  0  0  0  0  0  0  0  0  0
    1.3712    0.7721    0.0000 C   0  0  0  0  0  0  0  0  0  0  0  0
    0.2371   -0.2096    0.0000 C   0  0  0  0  0  0  0  0  0  0  0  0
   -1.1801    0.2817    0.0000 O   0  0  0  0  0  0  0  0  0  0  0  0
    0.5203   -1.6826    0.0000 C   0  0  0  0  0  0  0  0  0  0  0  0
   -0.9406   -1.3422    0.0000 C   0  0  0  0  0  0  0  0  0  0  0  0
  2  1  1  6
  2  3  1  0
  3  4  1  0
  4  5  1  0
  5  6  2  0
  5  7  1  0
  7  8  1  0
  8  9  2  0
  9 10  1  0
 10 11  1  0
 11 12  2  0
  2 13  1  0
 13 14  1  6
 14 15  1  0
 16 15  1  6
 16 17  1  0
 17 18  1  1
 18 19  1  1
 18 20  1  0
 21 20  1  1
 21 22  1  0
 22 23  1  0
 23 24  1  1
 23 25  1  0
 25 26  1  0
 26 27  1  0
 27 28  1  6
 27 29  1  0
 29 30  1  6
 30 31  1  0
 31 32  1  1
 31 33  1  0
 33 34  1  6
 12  8  1  0
 33 13  1  0
 33 16  1  0
 29 17  1  0
 27 21  1  0
M  END
>  <MS_ID>  (1193) 
MS1239

>  <SMILES>  (1193) 
C[C@H](CCC(=O)Cc1c[nH]cn1)[C@H]1CC[C@H]2[C@@H]3[C@H](O)C[C@@H]4C[C@H](O)CC[C@]4(C)[C@H]3C[C@H](O)[C@]12C

>  <Structure_dimension>  (1193) 
2D

$$$$
MS1240
     RDKit          2D

 33 37  0  0  0  0  0  0  0  0999 V2000
   -3.1427   -3.3426    0.0000 C   0  0  0  0  0  0  0  0  0  0  0  0
   -2.1899   -2.1841    0.0000 C   0  0  0  0  0  0  0  0  0  0  0  0
   -2.7167   -0.7797    0.0000 C   0  0  0  0  0  0  0  0  0  0  0  0
   -4.1964   -0.5338    0.0000 C   0  0  0  0  0  0  0  0  0  0  0  0
   -4.7233    0.8707    0.0000 C   0  0  0  0  0  0  0  0  0  0  0  0
   -3.7705    2.0292    0.0000 O   0  0  0  0  0  0  0  0  0  0  0  0
   -6.2030    1.1166    0.0000 C   0  0  0  0  0  0  0  0  0  0  0  0
   -6.7299    2.5210    0.0000 C   0  0  0  0  0  0  0  0  0  0  0  0
   -8.2096    2.7669    0.0000 C   0  0  0  0  0  0  0  0  0  0  0  0
   -9.1624    1.6084    0.0000 C   0  0  0  0  0  0  0  0  0  0  0  0
   -8.6355    0.2040    0.0000 N   0  0  0  0  0  0  0  0  0  0  0  0
   -7.1558   -0.0419    0.0000 C   0  0  0  0  0  0  0  0  0  0  0  0
   -0.7102   -2.4300    0.0000 C   0  0  0  0  0  0  0  0  0  0  0  0
   -0.0394   -3.7717    0.0000 C   0  0  0  0  0  0  0  0  0  0  0  0
    1.4439   -3.5483    0.0000 C   0  0  0  0  0  0  0  0  0  0  0  0
    1.6898   -2.0686    0.0000 C   0  0  0  0  0  0  0  0  0  0  0  0
    2.9540   -1.2613    0.0000 C   0  0  0  0  0  0  0  0  0  0  0  0
    4.2853   -1.9524    0.0000 C   0  0  0  0  0  0  0  0  0  0  0  0
    4.3524   -3.4509    0.0000 O   0  0  0  0  0  0  0  0  0  0  0  0
    5.5495   -1.1451    0.0000 C   0  0  0  0  0  0  0  0  0  0  0  0
    5.4824    0.3534    0.0000 C   0  0  0  0  0  0  0  0  0  0  0  0
    6.7466    1.1608    0.0000 C   0  0  0  0  0  0  0  0  0  0  0  0
    6.6795    2.6593    0.0000 C   0  0  0  0  0  0  0  0  0  0  0  0
    7.9437    3.4666    0.0000 O   0  0  0  0  0  0  0  0  0  0  0  0
    5.3482    3.3504    0.0000 C   0  0  0  0  0  0  0  0  0  0  0  0
    4.0840    2.5431    0.0000 C   0  0  0  0  0  0  0  0  0  0  0  0
    4.1511    1.0446    0.0000 C   0  0  0  0  0  0  0  0  0  0  0  0
    2.8198    1.7357    0.0000 C   0  0  0  0  0  0  0  0  0  0  0  0
    2.8869    0.2372    0.0000 C   0  0  0  0  0  0  0  0  0  0  0  0
    1.5556    0.9284    0.0000 C   0  0  0  0  0  0  0  0  0  0  0  0
    0.2915    0.1210    0.0000 C   0  0  0  0  0  0  0  0  0  0  0  0
    0.3586   -1.3775    0.0000 C   0  0  0  0  0  0  0  0  0  0  0  0
   -1.0377   -0.8293    0.0000 C   0  0  0  0  0  0  0  0  0  0  0  0
  2  1  1  6
  2  3  1  0
  3  4  1  0
  4  5  1  0
  5  6  2  0
  5  7  1  0
  7  8  2  0
  8  9  1  0
  9 10  2  0
 10 11  1  0
 11 12  2  0
  2 13  1  0
 13 14  1  6
 14 15  1  0
 16 15  1  6
 16 17  1  0
 17 18  1  1
 18 19  1  6
 18 20  1  0
 21 20  1  1
 21 22  1  0
 22 23  1  0
 23 24  1  1
 23 25  1  0
 25 26  1  0
 26 27  1  0
 27 28  1  6
 27 29  1  0
 29 30  1  6
 30 31  1  0
 31 32  1  0
 32 33  1  6
 12  7  1  0
 32 13  1  0
 32 16  1  0
 29 17  1  0
 27 21  1  0
M  END
>  <MS_ID>  (1194) 
MS1240

>  <SMILES>  (1194) 
C[C@H](CCC(=O)c1cccnc1)[C@H]1CC[C@H]2[C@@H]3[C@@H](O)C[C@@H]4C[C@H](O)CC[C@]4(C)[C@H]3CC[C@]12C

>  <Structure_dimension>  (1194) 
2D

$$$$
MS1241
     RDKit          2D

 33 36  0  0  0  0  0  0  0  0999 V2000
   -3.0978   -3.6919    0.0000 C   0  0  0  0  0  0  0  0  0  0  0  0
   -2.2201   -2.4755    0.0000 C   0  0  0  0  0  0  0  0  0  0  0  0
   -2.8347   -1.1072    0.0000 C   0  0  0  0  0  0  0  0  0  0  0  0
   -4.3270   -0.9552    0.0000 C   0  0  0  0  0  0  0  0  0  0  0  0
   -4.9416    0.4131    0.0000 C   0  0  0  0  0  0  0  0  0  0  0  0
   -4.0639    1.6295    0.0000 O   0  0  0  0  0  0  0  0  0  0  0  0
   -6.4339    0.5650    0.0000 C   0  0  0  0  0  0  0  0  0  0  0  0
   -7.0484    1.9333    0.0000 O   0  0  0  0  0  0  0  0  0  0  0  0
   -8.5407    2.0852    0.0000 C   0  0  0  0  0  0  0  0  0  0  0  0
   -9.1553    3.4535    0.0000 N   0  0  0  0  0  0  0  0  0  0  0  0
   -9.4184    0.8688    0.0000 O   0  0  0  0  0  0  0  0  0  0  0  0
   -0.7278   -2.6274    0.0000 C   0  0  0  0  0  0  0  0  0  0  0  0
    0.0264   -3.9240    0.0000 C   0  0  0  0  0  0  0  0  0  0  0  0
    1.4926   -3.6073    0.0000 C   0  0  0  0  0  0  0  0  0  0  0  0
    1.6445   -2.1150    0.0000 C   0  0  0  0  0  0  0  0  0  0  0  0
    2.8552   -1.2294    0.0000 C   0  0  0  0  0  0  0  0  0  0  0  0
    4.2275   -1.8350    0.0000 C   0  0  0  0  0  0  0  0  0  0  0  0
    4.3891   -3.3263    0.0000 O   0  0  0  0  0  0  0  0  0  0  0  0
    5.4381   -0.9494    0.0000 C   0  0  0  0  0  0  0  0  0  0  0  0
    5.2764    0.5419    0.0000 C   0  0  0  0  0  0  0  0  0  0  0  0
    6.4871    1.4275    0.0000 C   0  0  0  0  0  0  0  0  0  0  0  0
    6.3254    2.9188    0.0000 C   0  0  0  0  0  0  0  0  0  0  0  0
    7.5360    3.8044    0.0000 O   0  0  0  0  0  0  0  0  0  0  0  0
    4.9531    3.5244    0.0000 C   0  0  0  0  0  0  0  0  0  0  0  0
    3.7425    2.6388    0.0000 C   0  0  0  0  0  0  0  0  0  0  0  0
    3.9041    1.1475    0.0000 C   0  0  0  0  0  0  0  0  0  0  0  0
    2.5318    1.7531    0.0000 C   0  0  0  0  0  0  0  0  0  0  0  0
    2.6935    0.2619    0.0000 C   0  0  0  0  0  0  0  0  0  0  0  0
    1.3212    0.8675    0.0000 C   0  0  0  0  0  0  0  0  0  0  0  0
    0.1105   -0.0181    0.0000 C   0  0  0  0  0  0  0  0  0  0  0  0
   -1.2618    0.5875    0.0000 O   0  0  0  0  0  0  0  0  0  0  0  0
    0.2722   -1.5094    0.0000 C   0  0  0  0  0  0  0  0  0  0  0  0
   -1.1559   -1.0505    0.0000 C   0  0  0  0  0  0  0  0  0  0  0  0
  2  1  1  6
  2  3  1  0
  3  4  1  0
  4  5  1  0
  5  6  2  0
  5  7  1  0
  7  8  1  0
  8  9  1  0
  9 10  1  0
  9 11  2  0
  2 12  1  0
 12 13  1  6
 13 14  1  0
 15 14  1  6
 15 16  1  0
 16 17  1  1
 17 18  1  1
 17 19  1  0
 20 19  1  1
 20 21  1  0
 21 22  1  0
 22 23  1  1
 22 24  1  0
 24 25  1  0
 25 26  1  0
 26 27  1  6
 26 28  1  0
 28 29  1  6
 29 30  1  0
 30 31  1  1
 30 32  1  0
 32 33  1  6
 32 12  1  0
 32 15  1  0
 28 16  1  0
 26 20  1  0
M  END
>  <MS_ID>  (1195) 
MS1241

>  <SMILES>  (1195) 
C[C@H](CCC(=O)COC(N)=O)[C@H]1CC[C@H]2[C@@H]3[C@H](O)C[C@@H]4C[C@H](O)CC[C@]4(C)[C@H]3C[C@H](O)[C@]12C

>  <Structure_dimension>  (1195) 
2D

$$$$
MS1242
     RDKit          2D

 28 31  0  0  0  0  0  0  0  0999 V2000
   -4.6352   -2.6140    0.0000 C   0  0  0  0  0  0  0  0  0  0  0  0
   -3.5136   -1.6180    0.0000 C   0  0  0  0  0  0  0  0  0  0  0  0
   -3.8154   -0.1486    0.0000 C   0  0  0  0  0  0  0  0  0  0  0  0
   -5.2387    0.3247    0.0000 C   0  0  0  0  0  0  0  0  0  0  0  0
   -5.5405    1.7940    0.0000 C   0  0  0  0  0  0  0  0  0  0  0  0
   -4.4189    2.7900    0.0000 O   0  0  0  0  0  0  0  0  0  0  0  0
   -6.9639    2.2673    0.0000 N   0  0  0  0  0  0  0  0  0  0  0  0
   -7.2657    3.7367    0.0000 O   0  0  0  0  0  0  0  0  0  0  0  0
   -2.0902   -2.0913    0.0000 C   0  0  0  0  0  0  0  0  0  0  0  0
   -1.6365   -3.5210    0.0000 C   0  0  0  0  0  0  0  0  0  0  0  0
   -0.1366   -3.5313    0.0000 C   0  0  0  0  0  0  0  0  0  0  0  0
    0.3368   -2.1080    0.0000 C   0  0  0  0  0  0  0  0  0  0  0  0
    1.7112   -1.5073    0.0000 C   0  0  0  0  0  0  0  0  0  0  0  0
    2.9187   -2.3973    0.0000 C   0  0  0  0  0  0  0  0  0  0  0  0
    4.2932   -1.7966    0.0000 C   0  0  0  0  0  0  0  0  0  0  0  0
    4.4602   -0.3060    0.0000 C   0  0  0  0  0  0  0  0  0  0  0  0
    5.8347    0.2947    0.0000 C   0  0  0  0  0  0  0  0  0  0  0  0
    6.0017    1.7854    0.0000 C   0  0  0  0  0  0  0  0  0  0  0  0
    7.3762    2.3861    0.0000 O   0  0  0  0  0  0  0  0  0  0  0  0
    4.7943    2.6754    0.0000 C   0  0  0  0  0  0  0  0  0  0  0  0
    3.4198    2.0747    0.0000 C   0  0  0  0  0  0  0  0  0  0  0  0
    3.2528    0.5840    0.0000 C   0  0  0  0  0  0  0  0  0  0  0  0
    2.0453    1.4740    0.0000 C   0  0  0  0  0  0  0  0  0  0  0  0
    1.8783   -0.0166    0.0000 C   0  0  0  0  0  0  0  0  0  0  0  0
    0.6708    0.8734    0.0000 C   0  0  0  0  0  0  0  0  0  0  0  0
   -0.7036    0.2727    0.0000 C   0  0  0  0  0  0  0  0  0  0  0  0
   -0.8707   -1.2180    0.0000 C   0  0  0  0  0  0  0  0  0  0  0  0
   -2.1645   -0.4591    0.0000 C   0  0  0  0  0  0  0  0  0  0  0  0
  2  1  1  6
  2  3  1  0
  3  4  1  0
  4  5  1  0
  5  6  2  0
  5  7  1  0
  7  8  1  0
  2  9  1  0
  9 10  1  6
 10 11  1  0
 12 11  1  6
 12 13  1  0
 13 14  1  1
 14 15  1  0
 16 15  1  1
 16 17  1  0
 17 18  1  0
 18 19  1  1
 18 20  1  0
 20 21  1  0
 21 22  1  0
 22 23  1  6
 22 24  1  0
 24 25  1  6
 25 26  1  0
 26 27  1  0
 27 28  1  6
 27  9  1  0
 27 12  1  0
 24 13  1  0
 22 16  1  0
M  END
>  <MS_ID>  (1196) 
MS1242

>  <SMILES>  (1196) 
C[C@H](CCC(=O)NO)[C@H]1CC[C@H]2[C@@H]3CC[C@@H]4C[C@H](O)CC[C@]4(C)[C@H]3CC[C@]12C

>  <Structure_dimension>  (1196) 
2D

$$$$
MS1243
     RDKit          2D

 28 31  0  0  0  0  0  0  0  0999 V2000
   -4.6340   -2.3524    0.0000 C   0  0  0  0  0  0  0  0  0  0  0  0
   -3.5242   -1.3434    0.0000 C   0  0  0  0  0  0  0  0  0  0  0  0
   -3.8431    0.1223    0.0000 C   0  0  0  0  0  0  0  0  0  0  0  0
   -5.2720    0.5789    0.0000 C   0  0  0  0  0  0  0  0  0  0  0  0
   -5.5909    2.0446    0.0000 C   0  0  0  0  0  0  0  0  0  0  0  0
   -4.4811    3.0537    0.0000 O   0  0  0  0  0  0  0  0  0  0  0  0
   -7.0197    2.5012    0.0000 O   0  0  0  0  0  0  0  0  0  0  0  0
   -2.0954   -1.8000    0.0000 C   0  0  0  0  0  0  0  0  0  0  0  0
   -1.6249   -3.2243    0.0000 C   0  0  0  0  0  0  0  0  0  0  0  0
   -0.1249   -3.2170    0.0000 C   0  0  0  0  0  0  0  0  0  0  0  0
    0.3317   -1.7882    0.0000 C   0  0  0  0  0  0  0  0  0  0  0  0
    1.6990   -1.1715    0.0000 C   0  0  0  0  0  0  0  0  0  0  0  0
    2.9168   -2.0473    0.0000 C   0  0  0  0  0  0  0  0  0  0  0  0
    2.7672   -3.5398    0.0000 F   0  0  0  0  0  0  0  0  0  0  0  0
    4.2841   -1.4305    0.0000 C   0  0  0  0  0  0  0  0  0  0  0  0
    4.4337    0.0620    0.0000 C   0  0  0  0  0  0  0  0  0  0  0  0
    5.8011    0.6787    0.0000 C   0  0  0  0  0  0  0  0  0  0  0  0
    5.9506    2.1713    0.0000 C   0  0  0  0  0  0  0  0  0  0  0  0
    4.7328    3.0471    0.0000 C   0  0  0  0  0  0  0  0  0  0  0  0
    3.3655    2.4303    0.0000 C   0  0  0  0  0  0  0  0  0  0  0  0
    3.2159    0.9378    0.0000 C   0  0  0  0  0  0  0  0  0  0  0  0
    1.9981    1.8136    0.0000 C   0  0  0  0  0  0  0  0  0  0  0  0
    1.8486    0.3211    0.0000 C   0  0  0  0  0  0  0  0  0  0  0  0
    0.6308    1.1968    0.0000 C   0  0  0  0  0  0  0  0  0  0  0  0
   -0.7366    0.5801    0.0000 C   0  0  0  0  0  0  0  0  0  0  0  0
   -1.9543    1.4559    0.0000 O   0  0  0  0  0  0  0  0  0  0  0  0
   -0.8861   -0.9124    0.0000 C   0  0  0  0  0  0  0  0  0  0  0  0
   -2.1888   -0.1687    0.0000 C   0  0  0  0  0  0  0  0  0  0  0  0
  2  1  1  6
  2  3  1  0
  3  4  1  0
  4  5  1  0
  5  6  2  0
  5  7  1  0
  2  8  1  0
  8  9  1  6
  9 10  1  0
 11 10  1  6
 11 12  1  0
 12 13  1  1
 13 14  1  1
 13 15  1  0
 16 15  1  1
 16 17  1  0
 17 18  1  0
 18 19  1  0
 19 20  1  0
 20 21  1  0
 21 22  1  6
 21 23  1  0
 23 24  1  6
 24 25  1  0
 25 26  1  1
 25 27  1  0
 27 28  1  6
 27  8  1  0
 27 11  1  0
 23 12  1  0
 21 16  1  0
M  END
>  <MS_ID>  (1197) 
MS1243

>  <SMILES>  (1197) 
C[C@H](CCC(=O)O)[C@H]1CC[C@H]2[C@@H]3[C@H](F)C[C@@H]4CCCC[C@]4(C)[C@H]3C[C@H](O)[C@]12C

>  <Structure_dimension>  (1197) 
2D

$$$$
MS1244
     RDKit          2D

 29 32  0  0  0  0  0  0  0  0999 V2000
   -5.2182   -2.1453    0.0000 C   0  0  0  0  0  0  0  0  0  0  0  0
   -4.0752   -1.1739    0.0000 C   0  0  0  0  0  0  0  0  0  0  0  0
   -4.3449    0.3016    0.0000 C   0  0  0  0  0  0  0  0  0  0  0  0
   -5.7577    0.8058    0.0000 C   0  0  0  0  0  0  0  0  0  0  0  0
   -6.0274    2.2814    0.0000 C   0  0  0  0  0  0  0  0  0  0  0  0
   -7.4401    2.7856    0.0000 O   0  0  0  0  0  0  0  0  0  0  0  0
   -4.8843    3.2527    0.0000 F   0  0  0  0  0  0  0  0  0  0  0  0
   -2.6625   -1.6782    0.0000 C   0  0  0  0  0  0  0  0  0  0  0  0
   -2.2400   -3.1174    0.0000 C   0  0  0  0  0  0  0  0  0  0  0  0
   -0.7407   -3.1604    0.0000 C   0  0  0  0  0  0  0  0  0  0  0  0
   -0.2364   -1.7477    0.0000 C   0  0  0  0  0  0  0  0  0  0  0  0
    1.1508   -1.1771    0.0000 C   0  0  0  0  0  0  0  0  0  0  0  0
    2.3386   -2.0932    0.0000 C   0  0  0  0  0  0  0  0  0  0  0  0
    2.1391   -3.5798    0.0000 O   0  0  0  0  0  0  0  0  0  0  0  0
    3.7258   -1.5226    0.0000 C   0  0  0  0  0  0  0  0  0  0  0  0
    4.9136   -2.4386    0.0000 O   0  0  0  0  0  0  0  0  0  0  0  0
    3.9253   -0.0359    0.0000 C   0  0  0  0  0  0  0  0  0  0  0  0
    5.3125    0.5347    0.0000 C   0  0  0  0  0  0  0  0  0  0  0  0
    5.5119    2.0214    0.0000 C   0  0  0  0  0  0  0  0  0  0  0  0
    6.8992    2.5920    0.0000 O   0  0  0  0  0  0  0  0  0  0  0  0
    4.3242    2.9375    0.0000 C   0  0  0  0  0  0  0  0  0  0  0  0
    2.9369    2.3669    0.0000 C   0  0  0  0  0  0  0  0  0  0  0  0
    2.7375    0.8802    0.0000 C   0  0  0  0  0  0  0  0  0  0  0  0
    1.5497    1.7963    0.0000 C   0  0  0  0  0  0  0  0  0  0  0  0
    1.3502    0.3096    0.0000 C   0  0  0  0  0  0  0  0  0  0  0  0
    0.1625    1.2257    0.0000 C   0  0  0  0  0  0  0  0  0  0  0  0
   -1.2248    0.6551    0.0000 C   0  0  0  0  0  0  0  0  0  0  0  0
   -1.4242   -0.8316    0.0000 C   0  0  0  0  0  0  0  0  0  0  0  0
   -2.7012   -0.0447    0.0000 C   0  0  0  0  0  0  0  0  0  0  0  0
  2  1  1  6
  2  3  1  0
  3  4  1  0
  4  5  1  0
  5  6  2  0
  5  7  1  0
  2  8  1  0
  8  9  1  6
  9 10  1  0
 11 10  1  6
 11 12  1  0
 12 13  1  1
 13 14  1  1
 13 15  1  0
 15 16  1  1
 15 17  1  0
 17 18  1  1
 18 19  1  0
 19 20  1  1
 19 21  1  0
 21 22  1  0
 22 23  1  0
 23 24  1  6
 23 25  1  0
 25 26  1  6
 26 27  1  0
 27 28  1  0
 28 29  1  6
 28  8  1  0
 28 11  1  0
 25 12  1  0
 23 17  1  0
M  END
>  <MS_ID>  (1198) 
MS1244

>  <SMILES>  (1198) 
C[C@H](CCC(=O)F)[C@H]1CC[C@H]2[C@@H]3[C@H](O)[C@H](O)[C@@H]4C[C@H](O)CC[C@]4(C)[C@H]3CC[C@]12C

>  <Structure_dimension>  (1198) 
2D

$$$$
MS1245
     RDKit          2D

 34 38  0  0  0  0  0  0  0  0999 V2000
   -2.2608   -4.3306    0.0000 C   0  0  0  0  0  0  0  0  0  0  0  0
   -1.5430   -3.0135    0.0000 C   0  0  0  0  0  0  0  0  0  0  0  0
   -2.3248   -1.7333    0.0000 C   0  0  0  0  0  0  0  0  0  0  0  0
   -3.8244   -1.7702    0.0000 C   0  0  0  0  0  0  0  0  0  0  0  0
   -4.6061   -0.4901    0.0000 C   0  0  0  0  0  0  0  0  0  0  0  0
   -3.8883    0.8271    0.0000 O   0  0  0  0  0  0  0  0  0  0  0  0
   -6.1057   -0.5270    0.0000 N   0  0  0  0  0  0  0  0  0  0  0  0
   -6.8874    0.7532    0.0000 C   0  0  0  0  0  0  0  0  0  0  0  0
   -6.1696    2.0703    0.0000 C   0  0  0  0  0  0  0  0  0  0  0  0
   -6.9514    3.3505    0.0000 C   0  0  0  0  0  0  0  0  0  0  0  0
   -8.4509    3.3135    0.0000 C   0  0  0  0  0  0  0  0  0  0  0  0
   -9.1687    1.9964    0.0000 C   0  0  0  0  0  0  0  0  0  0  0  0
   -8.3870    0.7163    0.0000 N   0  0  0  0  0  0  0  0  0  0  0  0
   -0.0435   -2.9765    0.0000 C   0  0  0  0  0  0  0  0  0  0  0  0
    0.8678   -4.1680    0.0000 C   0  0  0  0  0  0  0  0  0  0  0  0
    2.2825   -3.6695    0.0000 C   0  0  0  0  0  0  0  0  0  0  0  0
    2.2456   -2.1699    0.0000 C   0  0  0  0  0  0  0  0  0  0  0  0
    3.3353   -1.1391    0.0000 C   0  0  0  0  0  0  0  0  0  0  0  0
    4.7728   -1.5673    0.0000 C   0  0  0  0  0  0  0  0  0  0  0  0
    5.1207   -3.0264    0.0000 O   0  0  0  0  0  0  0  0  0  0  0  0
    5.8625   -0.5365    0.0000 C   0  0  0  0  0  0  0  0  0  0  0  0
    5.5146    0.9226    0.0000 C   0  0  0  0  0  0  0  0  0  0  0  0
    6.6043    1.9534    0.0000 C   0  0  0  0  0  0  0  0  0  0  0  0
    6.2564    3.4125    0.0000 C   0  0  0  0  0  0  0  0  0  0  0  0
    7.3460    4.4434    0.0000 O   0  0  0  0  0  0  0  0  0  0  0  0
    4.8188    3.8408    0.0000 C   0  0  0  0  0  0  0  0  0  0  0  0
    3.7291    2.8099    0.0000 C   0  0  0  0  0  0  0  0  0  0  0  0
    4.0770    1.3509    0.0000 C   0  0  0  0  0  0  0  0  0  0  0  0
    2.6395    1.7791    0.0000 C   0  0  0  0  0  0  0  0  0  0  0  0
    2.9874    0.3200    0.0000 C   0  0  0  0  0  0  0  0  0  0  0  0
    1.5498    0.7483    0.0000 C   0  0  0  0  0  0  0  0  0  0  0  0
    0.4601   -0.2826    0.0000 C   0  0  0  0  0  0  0  0  0  0  0  0
    0.8080   -1.7417    0.0000 C   0  0  0  0  0  0  0  0  0  0  0  0
   -0.6664   -1.4660    0.0000 C   0  0  0  0  0  0  0  0  0  0  0  0
  2  1  1  6
  2  3  1  0
  3  4  1  0
  4  5  1  0
  5  6  2  0
  5  7  1  0
  7  8  1  0
  8  9  2  0
  9 10  1  0
 10 11  2  0
 11 12  1  0
 12 13  2  0
  2 14  1  0
 14 15  1  6
 15 16  1  0
 17 16  1  6
 17 18  1  0
 18 19  1  1
 19 20  1  1
 19 21  1  0
 22 21  1  1
 22 23  1  0
 23 24  1  0
 24 25  1  1
 24 26  1  0
 26 27  1  0
 27 28  1  0
 28 29  1  6
 28 30  1  0
 30 31  1  6
 31 32  1  0
 32 33  1  0
 33 34  1  6
 13  8  1  0
 33 14  1  0
 33 17  1  0
 30 18  1  0
 28 22  1  0
M  END
>  <MS_ID>  (1199) 
MS1245

>  <SMILES>  (1199) 
C[C@H](CCC(=O)Nc1ccccn1)[C@H]1CC[C@H]2[C@@H]3[C@H](O)C[C@@H]4C[C@H](O)CC[C@]4(C)[C@H]3CC[C@]12C

>  <Structure_dimension>  (1199) 
2D

$$$$
MS1246
     RDKit          2D

 30 33  0  0  0  0  0  0  0  0999 V2000
   -7.4279    3.5601    0.0000 C   0  0  0  0  0  0  0  0  0  0  0  0
   -7.0729    2.1027    0.0000 O   0  0  0  0  0  0  0  0  0  0  0  0
   -5.6333    1.6814    0.0000 C   0  0  0  0  0  0  0  0  0  0  0  0
   -4.5486    2.7174    0.0000 O   0  0  0  0  0  0  0  0  0  0  0  0
   -5.2784    0.2240    0.0000 C   0  0  0  0  0  0  0  0  0  0  0  0
   -3.8388   -0.1974    0.0000 C   0  0  0  0  0  0  0  0  0  0  0  0
   -3.4838   -1.6548    0.0000 C   0  0  0  0  0  0  0  0  0  0  0  0
   -4.5685   -2.6908    0.0000 C   0  0  0  0  0  0  0  0  0  0  0  0
   -2.0442   -2.0761    0.0000 C   0  0  0  0  0  0  0  0  0  0  0  0
   -1.5389   -3.4884    0.0000 C   0  0  0  0  0  0  0  0  0  0  0  0
   -0.0395   -3.4442    0.0000 C   0  0  0  0  0  0  0  0  0  0  0  0
    0.3818   -2.0046    0.0000 C   0  0  0  0  0  0  0  0  0  0  0  0
    1.7336   -1.3544    0.0000 C   0  0  0  0  0  0  0  0  0  0  0  0
    2.9725   -2.1999    0.0000 C   0  0  0  0  0  0  0  0  0  0  0  0
    2.8597   -3.6957    0.0000 O   0  0  0  0  0  0  0  0  0  0  0  0
    4.3243   -1.5497    0.0000 C   0  0  0  0  0  0  0  0  0  0  0  0
    4.4371   -0.0540    0.0000 C   0  0  0  0  0  0  0  0  0  0  0  0
    5.7888    0.5962    0.0000 C   0  0  0  0  0  0  0  0  0  0  0  0
    5.9016    2.0920    0.0000 C   0  0  0  0  0  0  0  0  0  0  0  0
    7.2534    2.7422    0.0000 O   0  0  0  0  0  0  0  0  0  0  0  0
    4.6627    2.9375    0.0000 C   0  0  0  0  0  0  0  0  0  0  0  0
    3.3109    2.2873    0.0000 C   0  0  0  0  0  0  0  0  0  0  0  0
    3.1981    0.7916    0.0000 C   0  0  0  0  0  0  0  0  0  0  0  0
    1.9591    1.6371    0.0000 C   0  0  0  0  0  0  0  0  0  0  0  0
    1.8464    0.1414    0.0000 C   0  0  0  0  0  0  0  0  0  0  0  0
    0.6074    0.9869    0.0000 C   0  0  0  0  0  0  0  0  0  0  0  0
   -0.7444    0.3367    0.0000 C   0  0  0  0  0  0  0  0  0  0  0  0
   -1.9833    1.1823    0.0000 O   0  0  0  0  0  0  0  0  0  0  0  0
   -0.8572   -1.1590    0.0000 C   0  0  0  0  0  0  0  0  0  0  0  0
   -2.1777   -0.4476    0.0000 C   0  0  0  0  0  0  0  0  0  0  0  0
  1  2  1  0
  2  3  1  0
  3  4  2  0
  3  5  1  0
  5  6  1  0
  6  7  1  0
  7  8  1  6
  7  9  1  0
  9 10  1  6
 10 11  1  0
 12 11  1  6
 12 13  1  0
 13 14  1  1
 14 15  1  1
 14 16  1  0
 17 16  1  1
 17 18  1  0
 18 19  1  0
 19 20  1  1
 19 21  1  0
 21 22  1  0
 22 23  1  0
 23 24  1  6
 23 25  1  0
 25 26  1  6
 26 27  1  0
 27 28  1  6
 27 29  1  0
 29 30  1  6
 29  9  1  0
 29 12  1  0
 25 13  1  0
 23 17  1  0
M  END
>  <MS_ID>  (1200) 
MS1246

>  <SMILES>  (1200) 
COC(=O)CC[C@@H](C)[C@H]1CC[C@H]2[C@@H]3[C@H](O)C[C@@H]4C[C@H](O)CC[C@]4(C)[C@H]3C[C@@H](O)[C@]12C

>  <Structure_dimension>  (1200) 
2D

$$$$
MS1247
     RDKit          2D

 34 37  0  0  0  0  0  0  0  0999 V2000
   -2.9284   -4.0293    0.0000 C   0  0  0  0  0  0  0  0  0  0  0  0
   -2.1124   -2.7707    0.0000 C   0  0  0  0  0  0  0  0  0  0  0  0
   -2.7943   -1.4347    0.0000 C   0  0  0  0  0  0  0  0  0  0  0  0
   -4.2923   -1.3573    0.0000 C   0  0  0  0  0  0  0  0  0  0  0  0
   -4.9743   -0.0213    0.0000 C   0  0  0  0  0  0  0  0  0  0  0  0
   -4.1583    1.2374    0.0000 O   0  0  0  0  0  0  0  0  0  0  0  0
   -6.4723    0.0562    0.0000 C   0  0  0  0  0  0  0  0  0  0  0  0
   -7.1543    1.3922    0.0000 C   0  0  0  0  0  0  0  0  0  0  0  0
   -8.6523    1.4696    0.0000 C   0  0  0  0  0  0  0  0  0  0  0  0
   -6.3382    2.6508    0.0000 C   0  0  0  0  0  0  0  0  0  0  0  0
   -4.8402    2.5734    0.0000 O   0  0  0  0  0  0  0  0  0  0  0  0
   -7.0202    3.9868    0.0000 O   0  0  0  0  0  0  0  0  0  0  0  0
   -0.6144   -2.8481    0.0000 C   0  0  0  0  0  0  0  0  0  0  0  0
    0.2035   -4.1055    0.0000 C   0  0  0  0  0  0  0  0  0  0  0  0
    1.6521   -3.7162    0.0000 C   0  0  0  0  0  0  0  0  0  0  0  0
    1.7295   -2.2182    0.0000 C   0  0  0  0  0  0  0  0  0  0  0  0
    2.8945   -1.2734    0.0000 C   0  0  0  0  0  0  0  0  0  0  0  0
    4.2953   -1.8099    0.0000 C   0  0  0  0  0  0  0  0  0  0  0  0
    4.5310   -3.2913    0.0000 O   0  0  0  0  0  0  0  0  0  0  0  0
    5.4603   -0.8651    0.0000 C   0  0  0  0  0  0  0  0  0  0  0  0
    5.2246    0.6163    0.0000 C   0  0  0  0  0  0  0  0  0  0  0  0
    6.3896    1.5611    0.0000 C   0  0  0  0  0  0  0  0  0  0  0  0
    6.1539    3.0425    0.0000 C   0  0  0  0  0  0  0  0  0  0  0  0
    7.3189    3.9873    0.0000 O   0  0  0  0  0  0  0  0  0  0  0  0
    4.7531    3.5790    0.0000 C   0  0  0  0  0  0  0  0  0  0  0  0
    3.5881    2.6342    0.0000 C   0  0  0  0  0  0  0  0  0  0  0  0
    3.8238    1.1528    0.0000 C   0  0  0  0  0  0  0  0  0  0  0  0
    2.4231    1.6893    0.0000 C   0  0  0  0  0  0  0  0  0  0  0  0
    2.6588    0.2080    0.0000 C   0  0  0  0  0  0  0  0  0  0  0  0
    1.2580    0.7445    0.0000 C   0  0  0  0  0  0  0  0  0  0  0  0
    0.0930   -0.2003    0.0000 C   0  0  0  0  0  0  0  0  0  0  0  0
   -1.3077    0.3362    0.0000 O   0  0  0  0  0  0  0  0  0  0  0  0
    0.3287   -1.6817    0.0000 C   0  0  0  0  0  0  0  0  0  0  0  0
   -1.1204   -1.2945    0.0000 C   0  0  0  0  0  0  0  0  0  0  0  0
  2  1  1  6
  2  3  1  0
  3  4  1  0
  4  5  1  0
  5  6  2  0
  5  7  1  0
  7  8  1  0
  8  9  1  6
  8 10  1  0
 10 11  2  0
 10 12  1  0
  2 13  1  0
 13 14  1  6
 14 15  1  0
 16 15  1  6
 16 17  1  0
 17 18  1  1
 18 19  1  1
 18 20  1  0
 21 20  1  1
 21 22  1  0
 22 23  1  0
 23 24  1  1
 23 25  1  0
 25 26  1  0
 26 27  1  0
 27 28  1  6
 27 29  1  0
 29 30  1  6
 30 31  1  0
 31 32  1  1
 31 33  1  0
 33 34  1  6
 33 13  1  0
 33 16  1  0
 29 17  1  0
 27 21  1  0
M  END
>  <MS_ID>  (1201) 
MS1247

>  <SMILES>  (1201) 
C[C@H](CCC(=O)C[C@H](C)C(=O)O)[C@H]1CC[C@H]2[C@@H]3[C@H](O)C[C@@H]4C[C@H](O)CC[C@]4(C)[C@H]3C[C@H](O)[C@]12C

>  <Structure_dimension>  (1201) 
2D

$$$$
MS1248
     RDKit          2D

 35 38  0  0  0  0  0  0  0  0999 V2000
   -2.2222   -4.2903    0.0000 C   0  0  0  0  0  0  0  0  0  0  0  0
   -1.5215   -2.9640    0.0000 C   0  0  0  0  0  0  0  0  0  0  0  0
   -2.3198   -1.6940    0.0000 C   0  0  0  0  0  0  0  0  0  0  0  0
   -3.8187   -1.7503    0.0000 C   0  0  0  0  0  0  0  0  0  0  0  0
   -4.6170   -0.4804    0.0000 C   0  0  0  0  0  0  0  0  0  0  0  0
   -3.9163    0.8459    0.0000 O   0  0  0  0  0  0  0  0  0  0  0  0
   -6.1159   -0.5367    0.0000 C   0  0  0  0  0  0  0  0  0  0  0  0
   -6.9142    0.7333    0.0000 C   0  0  0  0  0  0  0  0  0  0  0  0
   -8.4131    0.6769    0.0000 C   0  0  0  0  0  0  0  0  0  0  0  0
   -9.2114    1.9469    0.0000 S   0  0  0  0  0  0  0  0  0  0  0  0
  -10.4813    1.1486    0.0000 O   0  0  0  0  0  0  0  0  0  0  0  0
   -7.9414    2.7451    0.0000 O   0  0  0  0  0  0  0  0  0  0  0  0
  -10.0096    3.2169    0.0000 O   0  0  0  0  0  0  0  0  0  0  0  0
   -0.0226   -2.9077    0.0000 C   0  0  0  0  0  0  0  0  0  0  0  0
    0.9040   -4.0872    0.0000 C   0  0  0  0  0  0  0  0  0  0  0  0
    2.3122   -3.5705    0.0000 C   0  0  0  0  0  0  0  0  0  0  0  0
    2.2559   -2.0715    0.0000 C   0  0  0  0  0  0  0  0  0  0  0  0
    3.3321   -1.0267    0.0000 C   0  0  0  0  0  0  0  0  0  0  0  0
    4.7751   -1.4363    0.0000 C   0  0  0  0  0  0  0  0  0  0  0  0
    5.1418   -2.8908    0.0000 O   0  0  0  0  0  0  0  0  0  0  0  0
    5.8514   -0.3914    0.0000 C   0  0  0  0  0  0  0  0  0  0  0  0
    7.2943   -0.8011    0.0000 O   0  0  0  0  0  0  0  0  0  0  0  0
    5.4846    1.0630    0.0000 C   0  0  0  0  0  0  0  0  0  0  0  0
    6.5609    2.1079    0.0000 C   0  0  0  0  0  0  0  0  0  0  0  0
    6.1941    3.5623    0.0000 C   0  0  0  0  0  0  0  0  0  0  0  0
    7.2704    4.6072    0.0000 O   0  0  0  0  0  0  0  0  0  0  0  0
    4.7511    3.9720    0.0000 C   0  0  0  0  0  0  0  0  0  0  0  0
    3.6749    2.9271    0.0000 C   0  0  0  0  0  0  0  0  0  0  0  0
    4.0416    1.4727    0.0000 C   0  0  0  0  0  0  0  0  0  0  0  0
    2.5986    1.8823    0.0000 C   0  0  0  0  0  0  0  0  0  0  0  0
    2.9654    0.4278    0.0000 C   0  0  0  0  0  0  0  0  0  0  0  0
    1.5224    0.8374    0.0000 C   0  0  0  0  0  0  0  0  0  0  0  0
    0.4462   -0.2074    0.0000 C   0  0  0  0  0  0  0  0  0  0  0  0
    0.8129   -1.6619    0.0000 C   0  0  0  0  0  0  0  0  0  0  0  0
   -0.6650   -1.4053    0.0000 C   0  0  0  0  0  0  0  0  0  0  0  0
  2  1  1  6
  2  3  1  0
  3  4  1  0
  4  5  1  0
  5  6  2  0
  5  7  1  0
  7  8  1  0
  8  9  1  0
  9 10  1  0
 10 11  2  0
 10 12  2  0
 10 13  1  0
  2 14  1  0
 14 15  1  6
 15 16  1  0
 17 16  1  6
 17 18  1  0
 18 19  1  1
 19 20  1  1
 19 21  1  0
 21 22  1  1
 21 23  1  0
 23 24  1  1
 24 25  1  0
 25 26  1  1
 25 27  1  0
 27 28  1  0
 28 29  1  0
 29 30  1  6
 29 31  1  0
 31 32  1  6
 32 33  1  0
 33 34  1  0
 34 35  1  6
 34 14  1  0
 34 17  1  0
 31 18  1  0
 29 23  1  0
M  END
>  <MS_ID>  (1202) 
MS1248

>  <SMILES>  (1202) 
C[C@H](CCC(=O)CCCS(=O)(=O)O)[C@H]1CC[C@H]2[C@@H]3[C@H](O)[C@H](O)[C@@H]4C[C@H](O)CC[C@]4(C)[C@H]3CC[C@]12C

>  <Structure_dimension>  (1202) 
2D

$$$$
MS1249
     RDKit          2D

 30 33  0  0  0  0  0  0  0  0999 V2000
   -5.0361   -2.2421    0.0000 C   0  0  0  0  0  0  0  0  0  0  0  0
   -3.9151   -1.2454    0.0000 C   0  0  0  0  0  0  0  0  0  0  0  0
   -4.2177    0.2237    0.0000 C   0  0  0  0  0  0  0  0  0  0  0  0
   -5.6413    0.6963    0.0000 C   0  0  0  0  0  0  0  0  0  0  0  0
   -5.9439    2.1654    0.0000 C   0  0  0  0  0  0  0  0  0  0  0  0
   -4.8228    3.1621    0.0000 O   0  0  0  0  0  0  0  0  0  0  0  0
   -7.3675    2.6380    0.0000 O   0  0  0  0  0  0  0  0  0  0  0  0
   -2.4915   -1.7180    0.0000 C   0  0  0  0  0  0  0  0  0  0  0  0
   -2.0370   -3.1475    0.0000 C   0  0  0  0  0  0  0  0  0  0  0  0
   -0.5370   -3.1570    0.0000 C   0  0  0  0  0  0  0  0  0  0  0  0
   -0.0645   -1.7333    0.0000 C   0  0  0  0  0  0  0  0  0  0  0  0
    1.3097   -1.1319    0.0000 C   0  0  0  0  0  0  0  0  0  0  0  0
    2.5176   -2.0213    0.0000 C   0  0  0  0  0  0  0  0  0  0  0  0
    2.3514   -3.5120    0.0000 C   0  0  0  0  0  0  0  0  0  0  0  0
    3.5593   -4.4014    0.0000 O   0  0  0  0  0  0  0  0  0  0  0  0
    3.8918   -1.4198    0.0000 C   0  0  0  0  0  0  0  0  0  0  0  0
    4.0580    0.0709    0.0000 C   0  0  0  0  0  0  0  0  0  0  0  0
    5.4321    0.6723    0.0000 C   0  0  0  0  0  0  0  0  0  0  0  0
    5.5984    2.1631    0.0000 C   0  0  0  0  0  0  0  0  0  0  0  0
    6.9725    2.7645    0.0000 O   0  0  0  0  0  0  0  0  0  0  0  0
    4.3904    3.0524    0.0000 C   0  0  0  0  0  0  0  0  0  0  0  0
    3.0163    2.4510    0.0000 C   0  0  0  0  0  0  0  0  0  0  0  0
    2.8501    0.9603    0.0000 C   0  0  0  0  0  0  0  0  0  0  0  0
    1.6421    1.8496    0.0000 C   0  0  0  0  0  0  0  0  0  0  0  0
    1.4759    0.3588    0.0000 C   0  0  0  0  0  0  0  0  0  0  0  0
    0.2680    1.2482    0.0000 C   0  0  0  0  0  0  0  0  0  0  0  0
   -1.1062    0.6468    0.0000 C   0  0  0  0  0  0  0  0  0  0  0  0
   -2.3141    1.5361    0.0000 O   0  0  0  0  0  0  0  0  0  0  0  0
   -1.2724   -0.8440    0.0000 C   0  0  0  0  0  0  0  0  0  0  0  0
   -2.5667   -0.0858    0.0000 C   0  0  0  0  0  0  0  0  0  0  0  0
  2  1  1  6
  2  3  1  0
  3  4  1  0
  4  5  1  0
  5  6  2  0
  5  7  1  0
  2  8  1  0
  8  9  1  6
  9 10  1  0
 11 10  1  6
 11 12  1  0
 12 13  1  1
 13 14  1  1
 14 15  1  0
 13 16  1  0
 17 16  1  1
 17 18  1  0
 18 19  1  0
 19 20  1  6
 19 21  1  0
 21 22  1  0
 22 23  1  0
 23 24  1  6
 23 25  1  0
 25 26  1  6
 26 27  1  0
 27 28  1  1
 27 29  1  0
 29 30  1  6
 29  8  1  0
 29 11  1  0
 25 12  1  0
 23 17  1  0
M  END
>  <MS_ID>  (1203) 
MS1249

>  <SMILES>  (1203) 
C[C@H](CCC(=O)O)[C@H]1CC[C@H]2[C@@H]3[C@H](CO)C[C@@H]4C[C@@H](O)CC[C@]4(C)[C@H]3C[C@H](O)[C@]12C

>  <Structure_dimension>  (1203) 
2D

$$$$
MS1250
     RDKit          2D

 35 38  0  0  0  0  0  0  0  0999 V2000
   -2.0200   -4.3028    0.0000 C   0  0  0  0  0  0  0  0  0  0  0  0
   -1.3087   -2.9822    0.0000 C   0  0  0  0  0  0  0  0  0  0  0  0
   -2.0967   -1.7059    0.0000 C   0  0  0  0  0  0  0  0  0  0  0  0
   -3.5960   -1.7502    0.0000 C   0  0  0  0  0  0  0  0  0  0  0  0
   -4.3840   -0.4738    0.0000 C   0  0  0  0  0  0  0  0  0  0  0  0
   -3.6727    0.8468    0.0000 O   0  0  0  0  0  0  0  0  0  0  0  0
   -5.8834   -0.5181    0.0000 N   0  0  0  0  0  0  0  0  0  0  0  0
   -6.6714    0.7582    0.0000 C   0  0  0  0  0  0  0  0  0  0  0  0
   -8.1707    0.7140    0.0000 C   0  0  0  0  0  0  0  0  0  0  0  0
   -8.9588    1.9903    0.0000 S   0  0  0  0  0  0  0  0  0  0  0  0
   -9.7468    3.2667    0.0000 C   0  0  0  0  0  0  0  0  0  0  0  0
   -7.6824    2.7783    0.0000 O   0  0  0  0  0  0  0  0  0  0  0  0
  -10.2351    1.2023    0.0000 O   0  0  0  0  0  0  0  0  0  0  0  0
    0.1907   -2.9379    0.0000 C   0  0  0  0  0  0  0  0  0  0  0  0
    1.1078   -4.1249    0.0000 C   0  0  0  0  0  0  0  0  0  0  0  0
    2.5201   -3.6195    0.0000 C   0  0  0  0  0  0  0  0  0  0  0  0
    2.4758   -2.1201    0.0000 C   0  0  0  0  0  0  0  0  0  0  0  0
    3.5604   -1.0840    0.0000 C   0  0  0  0  0  0  0  0  0  0  0  0
    5.0001   -1.5052    0.0000 C   0  0  0  0  0  0  0  0  0  0  0  0
    5.3551   -2.9626    0.0000 O   0  0  0  0  0  0  0  0  0  0  0  0
    6.0847   -0.4691    0.0000 C   0  0  0  0  0  0  0  0  0  0  0  0
    5.7296    0.9883    0.0000 C   0  0  0  0  0  0  0  0  0  0  0  0
    6.8142    2.0245    0.0000 C   0  0  0  0  0  0  0  0  0  0  0  0
    6.4592    3.4819    0.0000 C   0  0  0  0  0  0  0  0  0  0  0  0
    7.5438    4.5180    0.0000 O   0  0  0  0  0  0  0  0  0  0  0  0
    5.0196    3.9031    0.0000 C   0  0  0  0  0  0  0  0  0  0  0  0
    3.9350    2.8669    0.0000 C   0  0  0  0  0  0  0  0  0  0  0  0
    4.2900    1.4095    0.0000 C   0  0  0  0  0  0  0  0  0  0  0  0
    2.8503    1.8308    0.0000 C   0  0  0  0  0  0  0  0  0  0  0  0
    3.2054    0.3734    0.0000 C   0  0  0  0  0  0  0  0  0  0  0  0
    1.7657    0.7946    0.0000 C   0  0  0  0  0  0  0  0  0  0  0  0
    0.6811   -0.2416    0.0000 C   0  0  0  0  0  0  0  0  0  0  0  0
   -0.7585    0.1797    0.0000 O   0  0  0  0  0  0  0  0  0  0  0  0
    1.0362   -1.6989    0.0000 C   0  0  0  0  0  0  0  0  0  0  0  0
   -0.4396   -1.4305    0.0000 C   0  0  0  0  0  0  0  0  0  0  0  0
  2  1  1  6
  2  3  1  0
  3  4  1  0
  4  5  1  0
  5  6  2  0
  5  7  1  0
  7  8  1  0
  8  9  1  0
  9 10  1  0
 10 11  1  0
 10 12  2  0
 10 13  2  0
  2 14  1  0
 14 15  1  6
 15 16  1  0
 17 16  1  6
 17 18  1  0
 18 19  1  1
 19 20  1  1
 19 21  1  0
 22 21  1  1
 22 23  1  0
 23 24  1  0
 24 25  1  1
 24 26  1  0
 26 27  1  0
 27 28  1  0
 28 29  1  6
 28 30  1  0
 30 31  1  6
 31 32  1  0
 32 33  1  1
 32 34  1  0
 34 35  1  6
 34 14  1  0
 34 17  1  0
 30 18  1  0
 28 22  1  0
M  END
>  <MS_ID>  (1204) 
MS1250

>  <SMILES>  (1204) 
C[C@H](CCC(=O)NCCS(C)(=O)=O)[C@H]1CC[C@H]2[C@@H]3[C@H](O)C[C@@H]4C[C@H](O)CC[C@]4(C)[C@H]3C[C@H](O)[C@]12C

>  <Structure_dimension>  (1204) 
2D

$$$$
MS1251
     RDKit          2D

 28 31  0  0  0  0  0  0  0  0999 V2000
   -4.6352   -2.6140    0.0000 C   0  0  0  0  0  0  0  0  0  0  0  0
   -3.5136   -1.6180    0.0000 C   0  0  0  0  0  0  0  0  0  0  0  0
   -3.8154   -0.1486    0.0000 C   0  0  0  0  0  0  0  0  0  0  0  0
   -5.2387    0.3247    0.0000 C   0  0  0  0  0  0  0  0  0  0  0  0
   -5.5405    1.7940    0.0000 C   0  0  0  0  0  0  0  0  0  0  0  0
   -4.4189    2.7900    0.0000 O   0  0  0  0  0  0  0  0  0  0  0  0
   -6.9639    2.2673    0.0000 N   0  0  0  0  0  0  0  0  0  0  0  0
   -7.2657    3.7367    0.0000 N   0  0  0  0  0  0  0  0  0  0  0  0
   -2.0902   -2.0913    0.0000 C   0  0  0  0  0  0  0  0  0  0  0  0
   -1.6365   -3.5210    0.0000 C   0  0  0  0  0  0  0  0  0  0  0  0
   -0.1366   -3.5313    0.0000 C   0  0  0  0  0  0  0  0  0  0  0  0
    0.3368   -2.1080    0.0000 C   0  0  0  0  0  0  0  0  0  0  0  0
    1.7112   -1.5073    0.0000 C   0  0  0  0  0  0  0  0  0  0  0  0
    2.9187   -2.3973    0.0000 C   0  0  0  0  0  0  0  0  0  0  0  0
    4.2932   -1.7966    0.0000 C   0  0  0  0  0  0  0  0  0  0  0  0
    4.4602   -0.3060    0.0000 C   0  0  0  0  0  0  0  0  0  0  0  0
    5.8347    0.2947    0.0000 C   0  0  0  0  0  0  0  0  0  0  0  0
    6.0017    1.7854    0.0000 C   0  0  0  0  0  0  0  0  0  0  0  0
    7.3762    2.3861    0.0000 O   0  0  0  0  0  0  0  0  0  0  0  0
    4.7943    2.6754    0.0000 C   0  0  0  0  0  0  0  0  0  0  0  0
    3.4198    2.0747    0.0000 C   0  0  0  0  0  0  0  0  0  0  0  0
    3.2528    0.5840    0.0000 C   0  0  0  0  0  0  0  0  0  0  0  0
    2.0453    1.4740    0.0000 C   0  0  0  0  0  0  0  0  0  0  0  0
    1.8783   -0.0166    0.0000 C   0  0  0  0  0  0  0  0  0  0  0  0
    0.6708    0.8734    0.0000 C   0  0  0  0  0  0  0  0  0  0  0  0
   -0.7036    0.2727    0.0000 C   0  0  0  0  0  0  0  0  0  0  0  0
   -0.8707   -1.2180    0.0000 C   0  0  0  0  0  0  0  0  0  0  0  0
   -2.1645   -0.4591    0.0000 C   0  0  0  0  0  0  0  0  0  0  0  0
  2  1  1  6
  2  3  1  0
  3  4  1  0
  4  5  1  0
  5  6  2  0
  5  7  1  0
  7  8  1  0
  2  9  1  0
  9 10  1  6
 10 11  1  0
 12 11  1  6
 12 13  1  0
 13 14  1  1
 14 15  1  0
 16 15  1  1
 16 17  1  0
 17 18  1  0
 18 19  1  1
 18 20  1  0
 20 21  1  0
 21 22  1  0
 22 23  1  6
 22 24  1  0
 24 25  1  6
 25 26  1  0
 26 27  1  0
 27 28  1  6
 27  9  1  0
 27 12  1  0
 24 13  1  0
 22 16  1  0
M  END
>  <MS_ID>  (1205) 
MS1251

>  <SMILES>  (1205) 
C[C@H](CCC(=O)NN)[C@H]1CC[C@H]2[C@@H]3CC[C@@H]4C[C@H](O)CC[C@]4(C)[C@H]3CC[C@]12C

>  <Structure_dimension>  (1205) 
2D

$$$$
MS1252
     RDKit          2D

 29 32  0  0  0  0  0  0  0  0999 V2000
   -5.0303   -2.1373    0.0000 C   0  0  0  0  0  0  0  0  0  0  0  0
   -3.8594   -1.1998    0.0000 C   0  0  0  0  0  0  0  0  0  0  0  0
   -4.0858    0.2830    0.0000 C   0  0  0  0  0  0  0  0  0  0  0  0
   -5.4831    0.8284    0.0000 C   0  0  0  0  0  0  0  0  0  0  0  0
   -5.7095    2.3112    0.0000 C   0  0  0  0  0  0  0  0  0  0  0  0
   -7.1069    2.8565    0.0000 O   0  0  0  0  0  0  0  0  0  0  0  0
   -4.5386    3.2487    0.0000 F   0  0  0  0  0  0  0  0  0  0  0  0
   -2.4620   -1.7451    0.0000 C   0  0  0  0  0  0  0  0  0  0  0  0
   -2.0818   -3.1961    0.0000 C   0  0  0  0  0  0  0  0  0  0  0  0
   -0.5844   -3.2830    0.0000 C   0  0  0  0  0  0  0  0  0  0  0  0
   -0.0390   -1.8856    0.0000 C   0  0  0  0  0  0  0  0  0  0  0  0
    1.3643   -1.3559    0.0000 C   0  0  0  0  0  0  0  0  0  0  0  0
    2.5248   -2.3063    0.0000 C   0  0  0  0  0  0  0  0  0  0  0  0
    2.2819   -3.7865    0.0000 O   0  0  0  0  0  0  0  0  0  0  0  0
    3.9281   -1.7765    0.0000 C   0  0  0  0  0  0  0  0  0  0  0  0
    4.1710   -0.2963    0.0000 C   0  0  0  0  0  0  0  0  0  0  0  0
    5.5743    0.2334    0.0000 C   0  0  0  0  0  0  0  0  0  0  0  0
    5.8172    1.7136    0.0000 C   0  0  0  0  0  0  0  0  0  0  0  0
    7.2205    2.2434    0.0000 O   0  0  0  0  0  0  0  0  0  0  0  0
    4.6568    2.6641    0.0000 C   0  0  0  0  0  0  0  0  0  0  0  0
    3.2534    2.1343    0.0000 C   0  0  0  0  0  0  0  0  0  0  0  0
    3.0105    0.6541    0.0000 C   0  0  0  0  0  0  0  0  0  0  0  0
    1.8501    1.6046    0.0000 C   0  0  0  0  0  0  0  0  0  0  0  0
    1.6072    0.1244    0.0000 C   0  0  0  0  0  0  0  0  0  0  0  0
    0.4467    1.0748    0.0000 C   0  0  0  0  0  0  0  0  0  0  0  0
   -0.9566    0.5450    0.0000 C   0  0  0  0  0  0  0  0  0  0  0  0
   -2.1170    1.4955    0.0000 O   0  0  0  0  0  0  0  0  0  0  0  0
   -1.1995   -0.9352    0.0000 C   0  0  0  0  0  0  0  0  0  0  0  0
   -2.4529   -0.1112    0.0000 C   0  0  0  0  0  0  0  0  0  0  0  0
  2  1  1  6
  2  3  1  0
  3  4  1  0
  4  5  1  0
  5  6  2  0
  5  7  1  0
  2  8  1  0
  8  9  1  6
  9 10  1  0
 11 10  1  6
 11 12  1  0
 12 13  1  1
 13 14  1  6
 13 15  1  0
 16 15  1  1
 16 17  1  0
 17 18  1  0
 18 19  1  1
 18 20  1  0
 20 21  1  0
 21 22  1  0
 22 23  1  6
 22 24  1  0
 24 25  1  6
 25 26  1  0
 26 27  2  0
 26 28  1  0
 28 29  1  6
 28  8  1  0
 28 11  1  0
 24 12  1  0
 22 16  1  0
M  END
>  <MS_ID>  (1206) 
MS1252

>  <SMILES>  (1206) 
C[C@H](CCC(=O)F)[C@H]1CC[C@H]2[C@@H]3[C@@H](O)C[C@@H]4C[C@H](O)CC[C@]4(C)[C@H]3CC(=O)[C@]12C

>  <Structure_dimension>  (1206) 
2D

$$$$
MS1253
     RDKit          2D

 32 35  0  0  0  0  0  0  0  0999 V2000
   -3.3600   -3.6470    0.0000 C   0  0  0  0  0  0  0  0  0  0  0  0
   -2.4640   -2.4440    0.0000 C   0  0  0  0  0  0  0  0  0  0  0  0
   -3.0579   -1.0666    0.0000 C   0  0  0  0  0  0  0  0  0  0  0  0
   -4.5477   -0.8922    0.0000 C   0  0  0  0  0  0  0  0  0  0  0  0
   -5.1416    0.4852    0.0000 C   0  0  0  0  0  0  0  0  0  0  0  0
   -4.2456    1.6883    0.0000 O   0  0  0  0  0  0  0  0  0  0  0  0
   -6.6314    0.6596    0.0000 N   0  0  0  0  0  0  0  0  0  0  0  0
   -7.2253    2.0371    0.0000 S   0  0  0  0  0  0  0  0  0  0  0  0
   -8.6027    1.4432    0.0000 O   0  0  0  0  0  0  0  0  0  0  0  0
   -5.8479    2.6309    0.0000 O   0  0  0  0  0  0  0  0  0  0  0  0
   -7.8192    3.4145    0.0000 O   0  0  0  0  0  0  0  0  0  0  0  0
   -0.9742   -2.6184    0.0000 C   0  0  0  0  0  0  0  0  0  0  0  0
   -0.2396   -3.9262    0.0000 C   0  0  0  0  0  0  0  0  0  0  0  0
    1.2312   -3.6317    0.0000 C   0  0  0  0  0  0  0  0  0  0  0  0
    1.4056   -2.1419    0.0000 C   0  0  0  0  0  0  0  0  0  0  0  0
    2.6295   -1.2746    0.0000 C   0  0  0  0  0  0  0  0  0  0  0  0
    3.9925   -1.9008    0.0000 C   0  0  0  0  0  0  0  0  0  0  0  0
    4.1317   -3.3944    0.0000 O   0  0  0  0  0  0  0  0  0  0  0  0
    5.2163   -1.0336    0.0000 C   0  0  0  0  0  0  0  0  0  0  0  0
    5.0772    0.4600    0.0000 C   0  0  0  0  0  0  0  0  0  0  0  0
    6.3010    1.3273    0.0000 C   0  0  0  0  0  0  0  0  0  0  0  0
    6.1619    2.8208    0.0000 C   0  0  0  0  0  0  0  0  0  0  0  0
    7.3857    3.6881    0.0000 O   0  0  0  0  0  0  0  0  0  0  0  0
    4.7989    3.4470    0.0000 C   0  0  0  0  0  0  0  0  0  0  0  0
    3.5750    2.5798    0.0000 C   0  0  0  0  0  0  0  0  0  0  0  0
    3.7142    1.0862    0.0000 C   0  0  0  0  0  0  0  0  0  0  0  0
    2.3511    1.7125    0.0000 C   0  0  0  0  0  0  0  0  0  0  0  0
    2.4903    0.2189    0.0000 C   0  0  0  0  0  0  0  0  0  0  0  0
    1.1273    0.8452    0.0000 C   0  0  0  0  0  0  0  0  0  0  0  0
   -0.0966   -0.0221    0.0000 C   0  0  0  0  0  0  0  0  0  0  0  0
    0.0426   -1.5156    0.0000 C   0  0  0  0  0  0  0  0  0  0  0  0
   -1.3784   -1.0353    0.0000 C   0  0  0  0  0  0  0  0  0  0  0  0
  2  1  1  6
  2  3  1  0
  3  4  1  0
  4  5  1  0
  5  6  2  0
  5  7  1  0
  7  8  1  0
  8  9  2  0
  8 10  2  0
  8 11  1  0
  2 12  1  0
 12 13  1  6
 13 14  1  0
 15 14  1  6
 15 16  1  0
 16 17  1  1
 17 18  2  0
 17 19  1  0
 20 19  1  1
 20 21  1  0
 21 22  1  0
 22 23  1  1
 22 24  1  0
 24 25  1  0
 25 26  1  0
 26 27  1  6
 26 28  1  0
 28 29  1  6
 29 30  1  0
 30 31  1  0
 31 32  1  6
 31 12  1  0
 31 15  1  0
 28 16  1  0
 26 20  1  0
M  END
>  <MS_ID>  (1207) 
MS1253

>  <SMILES>  (1207) 
C[C@H](CCC(=O)NS(=O)(=O)O)[C@H]1CC[C@H]2[C@@H]3C(=O)C[C@@H]4C[C@H](O)CC[C@]4(C)[C@H]3CC[C@]12C

>  <Structure_dimension>  (1207) 
2D

$$$$
MS1255
     RDKit          2D

 32 35  0  0  0  0  0  0  0  0999 V2000
   -3.6687   -3.7654    0.0000 C   0  0  0  0  0  0  0  0  0  0  0  0
   -2.7694   -2.5649    0.0000 C   0  0  0  0  0  0  0  0  0  0  0  0
   -3.3594   -1.1858    0.0000 C   0  0  0  0  0  0  0  0  0  0  0  0
   -4.8488   -1.0072    0.0000 C   0  0  0  0  0  0  0  0  0  0  0  0
   -5.4388    0.3718    0.0000 C   0  0  0  0  0  0  0  0  0  0  0  0
   -6.9281    0.5504    0.0000 O   0  0  0  0  0  0  0  0  0  0  0  0
   -4.5395    1.5724    0.0000 O   0  0  0  0  0  0  0  0  0  0  0  0
   -5.1295    2.9514    0.0000 S   0  0  0  0  0  0  0  0  0  0  0  0
   -6.5086    2.3614    0.0000 O   0  0  0  0  0  0  0  0  0  0  0  0
   -3.7505    3.5415    0.0000 O   0  0  0  0  0  0  0  0  0  0  0  0
   -5.7196    4.3305    0.0000 O   0  0  0  0  0  0  0  0  0  0  0  0
   -1.2801   -2.7434    0.0000 C   0  0  0  0  0  0  0  0  0  0  0  0
   -0.5491   -4.0533    0.0000 C   0  0  0  0  0  0  0  0  0  0  0  0
    0.9225   -3.7629    0.0000 C   0  0  0  0  0  0  0  0  0  0  0  0
    1.1011   -2.2735    0.0000 C   0  0  0  0  0  0  0  0  0  0  0  0
    2.3273   -1.4097    0.0000 C   0  0  0  0  0  0  0  0  0  0  0  0
    3.6886   -2.0397    0.0000 C   0  0  0  0  0  0  0  0  0  0  0  0
    3.8236   -3.5336    0.0000 O   0  0  0  0  0  0  0  0  0  0  0  0
    4.9149   -1.1759    0.0000 C   0  0  0  0  0  0  0  0  0  0  0  0
    4.7799    0.3181    0.0000 C   0  0  0  0  0  0  0  0  0  0  0  0
    6.0061    1.1819    0.0000 C   0  0  0  0  0  0  0  0  0  0  0  0
    5.8711    2.6758    0.0000 C   0  0  0  0  0  0  0  0  0  0  0  0
    7.0974    3.5397    0.0000 O   0  0  0  0  0  0  0  0  0  0  0  0
    4.5099    3.3059    0.0000 C   0  0  0  0  0  0  0  0  0  0  0  0
    3.2836    2.4420    0.0000 C   0  0  0  0  0  0  0  0  0  0  0  0
    3.4186    0.9481    0.0000 C   0  0  0  0  0  0  0  0  0  0  0  0
    2.0573    1.5782    0.0000 C   0  0  0  0  0  0  0  0  0  0  0  0
    2.1923    0.0842    0.0000 C   0  0  0  0  0  0  0  0  0  0  0  0
    0.8311    0.7143    0.0000 C   0  0  0  0  0  0  0  0  0  0  0  0
   -0.3952   -0.1496    0.0000 C   0  0  0  0  0  0  0  0  0  0  0  0
   -0.2602   -1.6435    0.0000 C   0  0  0  0  0  0  0  0  0  0  0  0
   -1.6799   -1.1592    0.0000 C   0  0  0  0  0  0  0  0  0  0  0  0
  2  1  1  6
  2  3  1  0
  3  4  1  0
  4  5  1  0
  5  6  2  0
  5  7  1  0
  7  8  1  0
  8  9  2  0
  8 10  2  0
  8 11  1  0
  2 12  1  0
 12 13  1  6
 13 14  1  0
 15 14  1  6
 15 16  1  0
 16 17  1  1
 17 18  2  0
 17 19  1  0
 20 19  1  1
 20 21  1  0
 21 22  1  0
 22 23  1  1
 22 24  1  0
 24 25  1  0
 25 26  1  0
 26 27  1  6
 26 28  1  0
 28 29  1  6
 29 30  1  0
 30 31  1  0
 31 32  1  6
 31 12  1  0
 31 15  1  0
 28 16  1  0
 26 20  1  0
M  END
>  <MS_ID>  (1208) 
MS1255

>  <SMILES>  (1208) 
C[C@H](CCC(=O)OS(=O)(=O)O)[C@H]1CC[C@H]2[C@@H]3C(=O)C[C@@H]4C[C@H](O)CC[C@]4(C)[C@H]3CC[C@]12C

>  <Structure_dimension>  (1208) 
2D

$$$$
MS1256
     RDKit          2D

 33 36  0  0  0  0  0  0  0  0999 V2000
   -2.8663   -3.9244    0.0000 C   0  0  0  0  0  0  0  0  0  0  0  0
   -2.0510   -2.6653    0.0000 C   0  0  0  0  0  0  0  0  0  0  0  0
   -2.7339   -1.3297    0.0000 C   0  0  0  0  0  0  0  0  0  0  0  0
   -4.2319   -1.2532    0.0000 C   0  0  0  0  0  0  0  0  0  0  0  0
   -4.9147    0.0823    0.0000 C   0  0  0  0  0  0  0  0  0  0  0  0
   -4.0995    1.3415    0.0000 O   0  0  0  0  0  0  0  0  0  0  0  0
   -6.4128    0.1588    0.0000 O   0  0  0  0  0  0  0  0  0  0  0  0
   -7.0956    1.4944    0.0000 C   0  0  0  0  0  0  0  0  0  0  0  0
   -8.5936    1.5708    0.0000 C   0  0  0  0  0  0  0  0  0  0  0  0
   -9.2765    2.9064    0.0000 C   0  0  0  0  0  0  0  0  0  0  0  0
  -10.7745    2.9828    0.0000 O   0  0  0  0  0  0  0  0  0  0  0  0
   -0.5530   -2.7417    0.0000 C   0  0  0  0  0  0  0  0  0  0  0  0
    0.2657   -3.9986    0.0000 C   0  0  0  0  0  0  0  0  0  0  0  0
    1.7140   -3.6084    0.0000 C   0  0  0  0  0  0  0  0  0  0  0  0
    1.7905   -2.1103    0.0000 C   0  0  0  0  0  0  0  0  0  0  0  0
    2.9549   -1.1648    0.0000 C   0  0  0  0  0  0  0  0  0  0  0  0
    4.3560   -1.7004    0.0000 C   0  0  0  0  0  0  0  0  0  0  0  0
    4.5927   -3.1816    0.0000 O   0  0  0  0  0  0  0  0  0  0  0  0
    5.5204   -0.7548    0.0000 C   0  0  0  0  0  0  0  0  0  0  0  0
    5.2838    0.7264    0.0000 C   0  0  0  0  0  0  0  0  0  0  0  0
    6.4482    1.6720    0.0000 C   0  0  0  0  0  0  0  0  0  0  0  0
    6.2115    3.1532    0.0000 C   0  0  0  0  0  0  0  0  0  0  0  0
    7.3759    4.0988    0.0000 O   0  0  0  0  0  0  0  0  0  0  0  0
    4.8104    3.6888    0.0000 C   0  0  0  0  0  0  0  0  0  0  0  0
    3.6460    2.7432    0.0000 C   0  0  0  0  0  0  0  0  0  0  0  0
    3.8827    1.2620    0.0000 C   0  0  0  0  0  0  0  0  0  0  0  0
    2.4816    1.7977    0.0000 C   0  0  0  0  0  0  0  0  0  0  0  0
    2.7182    0.3165    0.0000 C   0  0  0  0  0  0  0  0  0  0  0  0
    1.3171    0.8521    0.0000 C   0  0  0  0  0  0  0  0  0  0  0  0
    0.1527   -0.0935    0.0000 C   0  0  0  0  0  0  0  0  0  0  0  0
   -1.2484    0.4421    0.0000 O   0  0  0  0  0  0  0  0  0  0  0  0
    0.3894   -1.5747    0.0000 C   0  0  0  0  0  0  0  0  0  0  0  0
   -1.0600   -1.1885    0.0000 C   0  0  0  0  0  0  0  0  0  0  0  0
  2  1  1  6
  2  3  1  0
  3  4  1  0
  4  5  1  0
  5  6  2  0
  5  7  1  0
  7  8  1  0
  8  9  1  0
  9 10  1  0
 10 11  1  0
  2 12  1  0
 12 13  1  6
 13 14  1  0
 15 14  1  6
 15 16  1  0
 16 17  1  1
 17 18  1  1
 17 19  1  0
 20 19  1  1
 20 21  1  0
 21 22  1  0
 22 23  2  0
 22 24  1  0
 24 25  1  0
 25 26  1  0
 26 27  1  6
 26 28  1  0
 28 29  1  6
 29 30  1  0
 30 31  1  1
 30 32  1  0
 32 33  1  6
 32 12  1  0
 32 15  1  0
 28 16  1  0
 26 20  1  0
M  END
>  <MS_ID>  (1209) 
MS1256

>  <SMILES>  (1209) 
C[C@H](CCC(=O)OCCCO)[C@H]1CC[C@H]2[C@@H]3[C@H](O)C[C@@H]4CC(=O)CC[C@]4(C)[C@H]3C[C@H](O)[C@]12C

>  <Structure_dimension>  (1209) 
2D

$$$$
MS1257
     RDKit          2D

 36 40  0  0  0  0  0  0  0  0999 V2000
   -2.6771   -3.1242    0.0000 C   0  0  0  0  0  0  0  0  0  0  0  0
   -1.6466   -2.0342    0.0000 C   0  0  0  0  0  0  0  0  0  0  0  0
   -2.0753   -0.5968    0.0000 C   0  0  0  0  0  0  0  0  0  0  0  0
   -3.5345   -0.2493    0.0000 C   0  0  0  0  0  0  0  0  0  0  0  0
   -3.9632    1.1881    0.0000 C   0  0  0  0  0  0  0  0  0  0  0  0
   -2.9327    2.2781    0.0000 O   0  0  0  0  0  0  0  0  0  0  0  0
   -5.4224    1.5356    0.0000 C   0  0  0  0  0  0  0  0  0  0  0  0
   -5.8511    2.9730    0.0000 C   0  0  0  0  0  0  0  0  0  0  0  0
   -7.3103    3.3205    0.0000 C   0  0  0  0  0  0  0  0  0  0  0  0
   -8.3408    2.2305    0.0000 C   0  0  0  0  0  0  0  0  0  0  0  0
   -7.9121    0.7931    0.0000 C   0  0  0  0  0  0  0  0  0  0  0  0
   -6.4529    0.4456    0.0000 C   0  0  0  0  0  0  0  0  0  0  0  0
   -6.0242   -0.9918    0.0000 C   0  0  0  0  0  0  0  0  0  0  0  0
   -4.5650   -1.3393    0.0000 O   0  0  0  0  0  0  0  0  0  0  0  0
   -7.0547   -2.0818    0.0000 O   0  0  0  0  0  0  0  0  0  0  0  0
   -0.1874   -2.3817    0.0000 C   0  0  0  0  0  0  0  0  0  0  0  0
    0.3892   -3.7664    0.0000 C   0  0  0  0  0  0  0  0  0  0  0  0
    1.8843   -3.6460    0.0000 C   0  0  0  0  0  0  0  0  0  0  0  0
    2.2318   -2.1868    0.0000 C   0  0  0  0  0  0  0  0  0  0  0  0
    3.5487   -1.4686    0.0000 C   0  0  0  0  0  0  0  0  0  0  0  0
    4.8291   -2.2499    0.0000 C   0  0  0  0  0  0  0  0  0  0  0  0
    6.1460   -1.5318    0.0000 C   0  0  0  0  0  0  0  0  0  0  0  0
    6.1825   -0.0322    0.0000 C   0  0  0  0  0  0  0  0  0  0  0  0
    7.4994    0.6860    0.0000 C   0  0  0  0  0  0  0  0  0  0  0  0
    7.5359    2.1855    0.0000 C   0  0  0  0  0  0  0  0  0  0  0  0
    8.8528    2.9037    0.0000 O   0  0  0  0  0  0  0  0  0  0  0  0
    6.2555    2.9669    0.0000 C   0  0  0  0  0  0  0  0  0  0  0  0
    4.9386    2.2487    0.0000 C   0  0  0  0  0  0  0  0  0  0  0  0
    4.9021    0.7492    0.0000 C   0  0  0  0  0  0  0  0  0  0  0  0
    3.6217    1.5305    0.0000 C   0  0  0  0  0  0  0  0  0  0  0  0
    3.5852    0.0310    0.0000 C   0  0  0  0  0  0  0  0  0  0  0  0
    2.3048    0.8124    0.0000 C   0  0  0  0  0  0  0  0  0  0  0  0
    0.9879    0.0942    0.0000 C   0  0  0  0  0  0  0  0  0  0  0  0
   -0.2925    0.8755    0.0000 O   0  0  0  0  0  0  0  0  0  0  0  0
    0.9514   -1.4054    0.0000 C   0  0  0  0  0  0  0  0  0  0  0  0
   -0.4037   -0.7621    0.0000 C   0  0  0  0  0  0  0  0  0  0  0  0
  2  1  1  6
  2  3  1  0
  3  4  1  0
  4  5  1  0
  5  6  2  0
  5  7  1  0
  7  8  2  0
  8  9  1  0
  9 10  2  0
 10 11  1  0
 11 12  2  0
 12 13  1  0
 13 14  2  0
 13 15  1  0
  2 16  1  0
 16 17  1  6
 17 18  1  0
 19 18  1  6
 19 20  1  0
 20 21  1  1
 21 22  1  0
 23 22  1  1
 23 24  1  0
 24 25  1  0
 25 26  1  1
 25 27  1  0
 27 28  1  0
 28 29  1  0
 29 30  1  6
 29 31  1  0
 31 32  1  6
 32 33  1  0
 33 34  1  1
 33 35  1  0
 35 36  1  6
 12  7  1  0
 35 16  1  0
 35 19  1  0
 31 20  1  0
 29 23  1  0
M  END
>  <MS_ID>  (1210) 
MS1257

>  <SMILES>  (1210) 
C[C@H](CCC(=O)c1ccccc1C(=O)O)[C@H]1CC[C@H]2[C@@H]3CC[C@@H]4C[C@H](O)CC[C@]4(C)[C@H]3C[C@H](O)[C@]12C

>  <Structure_dimension>  (1210) 
2D

$$$$
MS1258
     RDKit          2D

 34 37  0  0  0  0  0  0  0  0999 V2000
   -2.1782   -4.1538    0.0000 C   0  0  0  0  0  0  0  0  0  0  0  0
   -1.4251   -2.8566    0.0000 C   0  0  0  0  0  0  0  0  0  0  0  0
   -2.1720   -1.5557    0.0000 C   0  0  0  0  0  0  0  0  0  0  0  0
   -3.6720   -1.5522    0.0000 C   0  0  0  0  0  0  0  0  0  0  0  0
   -4.4189   -0.2513    0.0000 C   0  0  0  0  0  0  0  0  0  0  0  0
   -3.6658    1.0459    0.0000 O   0  0  0  0  0  0  0  0  0  0  0  0
   -5.9189   -0.2477    0.0000 N   0  0  0  0  0  0  0  0  0  0  0  0
   -6.6658    1.0531    0.0000 C   0  0  0  0  0  0  0  0  0  0  0  0
   -8.1658    1.0567    0.0000 C   0  0  0  0  0  0  0  0  0  0  0  0
   -8.9189   -0.2406    0.0000 O   0  0  0  0  0  0  0  0  0  0  0  0
   -8.9127    2.3575    0.0000 N   0  0  0  0  0  0  0  0  0  0  0  0
  -10.4127    2.3611    0.0000 C   0  0  0  0  0  0  0  0  0  0  0  0
   -8.1596    3.6547    0.0000 C   0  0  0  0  0  0  0  0  0  0  0  0
    0.0749   -2.8601    0.0000 C   0  0  0  0  0  0  0  0  0  0  0  0
    0.9537   -4.0758    0.0000 C   0  0  0  0  0  0  0  0  0  0  0  0
    2.3814   -3.6156    0.0000 C   0  0  0  0  0  0  0  0  0  0  0  0
    2.3850   -2.1156    0.0000 C   0  0  0  0  0  0  0  0  0  0  0  0
    3.5021   -1.1146    0.0000 C   0  0  0  0  0  0  0  0  0  0  0  0
    4.9276   -1.5815    0.0000 C   0  0  0  0  0  0  0  0  0  0  0  0
    5.2359   -3.0495    0.0000 O   0  0  0  0  0  0  0  0  0  0  0  0
    6.0447   -0.5805    0.0000 C   0  0  0  0  0  0  0  0  0  0  0  0
    5.7363    0.8875    0.0000 C   0  0  0  0  0  0  0  0  0  0  0  0
    6.8534    1.8885    0.0000 C   0  0  0  0  0  0  0  0  0  0  0  0
    6.5450    3.3565    0.0000 C   0  0  0  0  0  0  0  0  0  0  0  0
    7.6621    4.3575    0.0000 O   0  0  0  0  0  0  0  0  0  0  0  0
    5.1196    3.8234    0.0000 C   0  0  0  0  0  0  0  0  0  0  0  0
    4.0025    2.8224    0.0000 C   0  0  0  0  0  0  0  0  0  0  0  0
    4.3108    1.3544    0.0000 C   0  0  0  0  0  0  0  0  0  0  0  0
    2.8853    1.8213    0.0000 C   0  0  0  0  0  0  0  0  0  0  0  0
    3.1937    0.3534    0.0000 C   0  0  0  0  0  0  0  0  0  0  0  0
    1.7682    0.8203    0.0000 C   0  0  0  0  0  0  0  0  0  0  0  0
    0.6511   -0.1807    0.0000 C   0  0  0  0  0  0  0  0  0  0  0  0
    0.9595   -1.6487    0.0000 C   0  0  0  0  0  0  0  0  0  0  0  0
   -0.5070   -1.3333    0.0000 C   0  0  0  0  0  0  0  0  0  0  0  0
  2  1  1  6
  2  3  1  0
  3  4  1  0
  4  5  1  0
  5  6  2  0
  5  7  1  0
  7  8  1  0
  8  9  1  0
  9 10  2  0
  9 11  1  0
 11 12  1  0
 11 13  1  0
  2 14  1  0
 14 15  1  6
 15 16  1  0
 17 16  1  6
 17 18  1  0
 18 19  1  1
 19 20  1  1
 19 21  1  0
 22 21  1  1
 22 23  1  0
 23 24  1  0
 24 25  1  1
 24 26  1  0
 26 27  1  0
 27 28  1  0
 28 29  1  6
 28 30  1  0
 30 31  1  6
 31 32  1  0
 32 33  1  0
 33 34  1  6
 33 14  1  0
 33 17  1  0
 30 18  1  0
 28 22  1  0
M  END
>  <MS_ID>  (1211) 
MS1258

>  <SMILES>  (1211) 
C[C@H](CCC(=O)NCC(=O)N(C)C)[C@H]1CC[C@H]2[C@@H]3[C@H](O)C[C@@H]4C[C@H](O)CC[C@]4(C)[C@H]3CC[C@]12C

>  <Structure_dimension>  (1211) 
2D

$$$$
MS1259
     RDKit          2D

 38 42  0  0  0  0  0  0  0  0999 V2000
   -7.7878   -1.9555    0.0000 C   0  0  0  0  0  0  0  0  0  0  0  0
   -6.5918   -1.0501    0.0000 C   0  0  0  0  0  0  0  0  0  0  0  0
   -6.7779    0.4383    0.0000 C   0  0  0  0  0  0  0  0  0  0  0  0
   -8.1600    1.0213    0.0000 C   0  0  0  0  0  0  0  0  0  0  0  0
   -8.3461    2.5097    0.0000 C   0  0  0  0  0  0  0  0  0  0  0  0
   -7.1502    3.4151    0.0000 O   0  0  0  0  0  0  0  0  0  0  0  0
   -9.7282    3.0928    0.0000 O   0  0  0  0  0  0  0  0  0  0  0  0
   -5.2098   -1.6331    0.0000 C   0  0  0  0  0  0  0  0  0  0  0  0
   -4.8691   -3.0939    0.0000 C   0  0  0  0  0  0  0  0  0  0  0  0
   -3.3745   -3.2213    0.0000 C   0  0  0  0  0  0  0  0  0  0  0  0
   -2.7915   -1.8392    0.0000 C   0  0  0  0  0  0  0  0  0  0  0  0
   -1.3743   -1.3477    0.0000 C   0  0  0  0  0  0  0  0  0  0  0  0
   -0.2400   -2.3293    0.0000 C   0  0  0  0  0  0  0  0  0  0  0  0
   -0.5230   -3.8024    0.0000 O   0  0  0  0  0  0  0  0  0  0  0  0
    1.1772   -1.8378    0.0000 C   0  0  0  0  0  0  0  0  0  0  0  0
    1.4601   -0.3647    0.0000 C   0  0  0  0  0  0  0  0  0  0  0  0
    2.8773    0.1268    0.0000 C   0  0  0  0  0  0  0  0  0  0  0  0
    3.1602    1.5999    0.0000 C   0  0  0  0  0  0  0  0  0  0  0  0
    4.5774    2.0914    0.0000 O   0  0  0  0  0  0  0  0  0  0  0  0
    5.7116    1.1099    0.0000 C   0  0  0  0  0  0  0  0  0  0  0  0
    5.4287   -0.3632    0.0000 O   0  0  0  0  0  0  0  0  0  0  0  0
    6.5630   -1.3448    0.0000 C   0  0  0  0  0  0  0  0  0  0  0  0
    6.2800   -2.8179    0.0000 Cl  0  0  0  0  0  0  0  0  0  0  0  0
    7.9802   -0.8533    0.0000 C   0  0  0  0  0  0  0  0  0  0  0  0
    9.1144   -1.8348    0.0000 O   0  0  0  0  0  0  0  0  0  0  0  0
    8.2631    0.6198    0.0000 C   0  0  0  0  0  0  0  0  0  0  0  0
    9.6803    1.1113    0.0000 O   0  0  0  0  0  0  0  0  0  0  0  0
    7.1288    1.6014    0.0000 C   0  0  0  0  0  0  0  0  0  0  0  0
    7.4117    3.0745    0.0000 O   0  0  0  0  0  0  0  0  0  0  0  0
    2.0259    2.5815    0.0000 C   0  0  0  0  0  0  0  0  0  0  0  0
    0.6088    2.0899    0.0000 C   0  0  0  0  0  0  0  0  0  0  0  0
    0.3258    0.6169    0.0000 C   0  0  0  0  0  0  0  0  0  0  0  0
   -0.8084    1.5984    0.0000 C   0  0  0  0  0  0  0  0  0  0  0  0
   -1.0914    0.1254    0.0000 C   0  0  0  0  0  0  0  0  0  0  0  0
   -2.2256    1.1069    0.0000 C   0  0  0  0  0  0  0  0  0  0  0  0
   -3.6428    0.6154    0.0000 C   0  0  0  0  0  0  0  0  0  0  0  0
   -3.9257   -0.8577    0.0000 C   0  0  0  0  0  0  0  0  0  0  0  0
   -5.1564   -0.0001    0.0000 C   0  0  0  0  0  0  0  0  0  0  0  0
  2  1  1  6
  2  3  1  0
  3  4  1  0
  4  5  1  0
  5  6  2  0
  5  7  1  0
  2  8  1  0
  8  9  1  6
  9 10  1  0
 11 10  1  6
 11 12  1  0
 12 13  1  1
 13 14  1  6
 13 15  1  0
 16 15  1  1
 16 17  1  0
 17 18  1  0
 18 19  1  1
 20 19  1  1
 20 21  1  0
 21 22  1  0
 22 23  1  1
 22 24  1  0
 24 25  1  6
 24 26  1  0
 26 27  1  1
 26 28  1  0
 28 29  1  6
 18 30  1  0
 30 31  1  0
 31 32  1  0
 32 33  1  6
 32 34  1  0
 34 35  1  6
 35 36  1  0
 36 37  1  0
 37 38  1  6
 37  8  1  0
 37 11  1  0
 34 12  1  0
 32 16  1  0
 28 20  1  0
M  END
>  <MS_ID>  (1212) 
MS1259

>  <SMILES>  (1212) 
C[C@H](CCC(=O)O)[C@H]1CC[C@H]2[C@@H]3[C@@H](O)C[C@@H]4C[C@H](O[C@@H]5O[C@H](Cl)[C@@H](O)[C@H](O)[C@H]5O)CC[C@]4(C)[C@H]3CC[C@]12C

>  <Structure_dimension>  (1212) 
2D

$$$$
MS1260
     RDKit          2D

 33 36  0  0  0  0  0  0  0  0999 V2000
   -3.0554   -4.4167    0.0000 C   0  0  0  0  0  0  0  0  0  0  0  0
   -2.2405   -3.1574    0.0000 C   0  0  0  0  0  0  0  0  0  0  0  0
   -2.9237   -1.8220    0.0000 C   0  0  0  0  0  0  0  0  0  0  0  0
   -4.4217   -1.7460    0.0000 C   0  0  0  0  0  0  0  0  0  0  0  0
   -5.1049   -0.4106    0.0000 C   0  0  0  0  0  0  0  0  0  0  0  0
   -6.6030   -0.3345    0.0000 O   0  0  0  0  0  0  0  0  0  0  0  0
   -4.2900    0.8488    0.0000 O   0  0  0  0  0  0  0  0  0  0  0  0
   -4.9732    2.1842    0.0000 C   0  0  0  0  0  0  0  0  0  0  0  0
   -6.4713    2.2602    0.0000 O   0  0  0  0  0  0  0  0  0  0  0  0
   -4.1583    3.4435    0.0000 C   0  0  0  0  0  0  0  0  0  0  0  0
   -2.8990    2.6286    0.0000 C   0  0  0  0  0  0  0  0  0  0  0  0
   -5.4177    4.2584    0.0000 C   0  0  0  0  0  0  0  0  0  0  0  0
   -3.3435    4.7029    0.0000 O   0  0  0  0  0  0  0  0  0  0  0  0
   -0.7424   -3.2334    0.0000 C   0  0  0  0  0  0  0  0  0  0  0  0
    0.0766   -4.4901    0.0000 C   0  0  0  0  0  0  0  0  0  0  0  0
    1.5249   -4.0995    0.0000 C   0  0  0  0  0  0  0  0  0  0  0  0
    1.6009   -2.6014    0.0000 C   0  0  0  0  0  0  0  0  0  0  0  0
    2.7651   -1.6555    0.0000 C   0  0  0  0  0  0  0  0  0  0  0  0
    4.1663   -2.1907    0.0000 C   0  0  0  0  0  0  0  0  0  0  0  0
    5.3305   -1.2448    0.0000 C   0  0  0  0  0  0  0  0  0  0  0  0
    5.0934    0.2363    0.0000 C   0  0  0  0  0  0  0  0  0  0  0  0
    6.2576    1.1822    0.0000 C   0  0  0  0  0  0  0  0  0  0  0  0
    6.0205    2.6634    0.0000 C   0  0  0  0  0  0  0  0  0  0  0  0
    7.1846    3.6093    0.0000 O   0  0  0  0  0  0  0  0  0  0  0  0
    4.6192    3.1986    0.0000 C   0  0  0  0  0  0  0  0  0  0  0  0
    3.4550    2.2527    0.0000 C   0  0  0  0  0  0  0  0  0  0  0  0
    3.6921    0.7716    0.0000 C   0  0  0  0  0  0  0  0  0  0  0  0
    2.2909    1.3068    0.0000 C   0  0  0  0  0  0  0  0  0  0  0  0
    2.5280   -0.1743    0.0000 C   0  0  0  0  0  0  0  0  0  0  0  0
    1.1267    0.3609    0.0000 C   0  0  0  0  0  0  0  0  0  0  0  0
   -0.0374   -0.5850    0.0000 C   0  0  0  0  0  0  0  0  0  0  0  0
    0.1997   -2.0661    0.0000 C   0  0  0  0  0  0  0  0  0  0  0  0
   -1.2499   -1.6803    0.0000 C   0  0  0  0  0  0  0  0  0  0  0  0
  2  1  1  6
  2  3  1  0
  3  4  1  0
  4  5  1  0
  5  6  2  0
  5  7  1  0
  7  8  1  0
  8  9  2  0
  8 10  1  0
 10 11  1  0
 10 12  1  0
 10 13  1  0
  2 14  1  0
 14 15  1  6
 15 16  1  0
 17 16  1  6
 17 18  1  0
 18 19  1  1
 19 20  1  0
 21 20  1  1
 21 22  1  0
 22 23  1  0
 23 24  1  1
 23 25  1  0
 25 26  1  0
 26 27  1  0
 27 28  1  6
 27 29  1  0
 29 30  1  6
 30 31  1  0
 31 32  1  0
 32 33  1  6
 32 14  1  0
 32 17  1  0
 29 18  1  0
 27 21  1  0
M  END
>  <MS_ID>  (1213) 
MS1260

>  <SMILES>  (1213) 
C[C@H](CCC(=O)OC(=O)C(C)(C)O)[C@H]1CC[C@H]2[C@@H]3CC[C@@H]4C[C@H](O)CC[C@]4(C)[C@H]3CC[C@]12C

>  <Structure_dimension>  (1213) 
2D

$$$$
MS1261
     RDKit          2D

 38 41  0  0  0  0  0  0  0  0999 V2000
   -0.7544   -4.6958    0.0000 C   0  0  0  0  0  0  0  0  0  0  0  0
   -0.1816   -3.3095    0.0000 C   0  0  0  0  0  0  0  0  0  0  0  0
   -1.0958   -2.1203    0.0000 C   0  0  0  0  0  0  0  0  0  0  0  0
   -2.5828   -2.3174    0.0000 C   0  0  0  0  0  0  0  0  0  0  0  0
   -3.4969   -1.1281    0.0000 C   0  0  0  0  0  0  0  0  0  0  0  0
   -2.9241    0.2582    0.0000 O   0  0  0  0  0  0  0  0  0  0  0  0
   -4.9839   -1.3252    0.0000 N   0  0  0  0  0  0  0  0  0  0  0  0
   -5.8981   -0.1359    0.0000 C   0  0  0  0  0  0  0  0  0  0  0  0
   -7.3851   -0.3330    0.0000 C   0  0  0  0  0  0  0  0  0  0  0  0
   -8.2993    0.8562    0.0000 S   0  0  0  0  0  0  0  0  0  0  0  0
   -9.4885   -0.0579    0.0000 O   0  0  0  0  0  0  0  0  0  0  0  0
   -7.1100    1.7704    0.0000 O   0  0  0  0  0  0  0  0  0  0  0  0
   -9.2134    2.0455    0.0000 C   0  0  0  0  0  0  0  0  0  0  0  0
   -8.0242    2.9596    0.0000 F   0  0  0  0  0  0  0  0  0  0  0  0
  -10.4027    1.1313    0.0000 F   0  0  0  0  0  0  0  0  0  0  0  0
  -10.1276    3.2347    0.0000 F   0  0  0  0  0  0  0  0  0  0  0  0
    1.3054   -3.1124    0.0000 C   0  0  0  0  0  0  0  0  0  0  0  0
    2.3389   -4.1996    0.0000 C   0  0  0  0  0  0  0  0  0  0  0  0
    3.6922   -3.5527    0.0000 C   0  0  0  0  0  0  0  0  0  0  0  0
    3.4951   -2.0657    0.0000 C   0  0  0  0  0  0  0  0  0  0  0  0
    4.4683   -0.9242    0.0000 C   0  0  0  0  0  0  0  0  0  0  0  0
    5.9434   -1.1963    0.0000 C   0  0  0  0  0  0  0  0  0  0  0  0
    6.4454   -2.6098    0.0000 O   0  0  0  0  0  0  0  0  0  0  0  0
    6.9166   -0.0549    0.0000 C   0  0  0  0  0  0  0  0  0  0  0  0
    6.4147    1.3587    0.0000 C   0  0  0  0  0  0  0  0  0  0  0  0
    7.3879    2.5001    0.0000 C   0  0  0  0  0  0  0  0  0  0  0  0
    6.8859    3.9136    0.0000 C   0  0  0  0  0  0  0  0  0  0  0  0
    7.8591    5.0551    0.0000 O   0  0  0  0  0  0  0  0  0  0  0  0
    5.4108    4.1857    0.0000 C   0  0  0  0  0  0  0  0  0  0  0  0
    4.4376    3.0443    0.0000 C   0  0  0  0  0  0  0  0  0  0  0  0
    4.9396    1.6307    0.0000 C   0  0  0  0  0  0  0  0  0  0  0  0
    3.4644    1.9028    0.0000 C   0  0  0  0  0  0  0  0  0  0  0  0
    3.9664    0.4893    0.0000 C   0  0  0  0  0  0  0  0  0  0  0  0
    2.4913    0.7614    0.0000 C   0  0  0  0  0  0  0  0  0  0  0  0
    1.5181   -0.3801    0.0000 C   0  0  0  0  0  0  0  0  0  0  0  0
    0.0429   -0.1080    0.0000 O   0  0  0  0  0  0  0  0  0  0  0  0
    2.0200   -1.7936    0.0000 C   0  0  0  0  0  0  0  0  0  0  0  0
    0.5245   -1.6772    0.0000 C   0  0  0  0  0  0  0  0  0  0  0  0
  2  1  1  6
  2  3  1  0
  3  4  1  0
  4  5  1  0
  5  6  2  0
  5  7  1  0
  7  8  1  0
  8  9  1  0
  9 10  1  0
 10 11  2  0
 10 12  2  0
 10 13  1  0
 13 14  1  0
 13 15  1  0
 13 16  1  0
  2 17  1  0
 17 18  1  6
 18 19  1  0
 20 19  1  6
 20 21  1  0
 21 22  1  1
 22 23  1  1
 22 24  1  0
 25 24  1  1
 25 26  1  0
 26 27  1  0
 27 28  1  1
 27 29  1  0
 29 30  1  0
 30 31  1  0
 31 32  1  6
 31 33  1  0
 33 34  1  6
 34 35  1  0
 35 36  1  1
 35 37  1  0
 37 38  1  6
 37 17  1  0
 37 20  1  0
 33 21  1  0
 31 25  1  0
M  END
>  <MS_ID>  (1214) 
MS1261

>  <SMILES>  (1214) 
C[C@H](CCC(=O)NCCS(=O)(=O)C(F)(F)F)[C@H]1CC[C@H]2[C@@H]3[C@H](O)C[C@@H]4C[C@H](O)CC[C@]4(C)[C@H]3C[C@H](O)[C@]12C

>  <Structure_dimension>  (1214) 
2D

$$$$
MS1262
     RDKit          2D

 33 36  0  0  0  0  0  0  0  0999 V2000
   -4.9176   -2.6675    0.0000 C   0  0  0  0  0  0  0  0  0  0  0  0
   -3.7668   -1.7053    0.0000 C   0  0  0  0  0  0  0  0  0  0  0  0
   -4.0248   -0.2276    0.0000 C   0  0  0  0  0  0  0  0  0  0  0  0
   -5.4334    0.2878    0.0000 C   0  0  0  0  0  0  0  0  0  0  0  0
   -5.6914    1.7655    0.0000 C   0  0  0  0  0  0  0  0  0  0  0  0
   -4.5406    2.7277    0.0000 O   0  0  0  0  0  0  0  0  0  0  0  0
   -7.1000    2.2809    0.0000 O   0  0  0  0  0  0  0  0  0  0  0  0
   -2.3582   -2.2207    0.0000 C   0  0  0  0  0  0  0  0  0  0  0  0
   -1.9472   -3.6633    0.0000 C   0  0  0  0  0  0  0  0  0  0  0  0
   -0.4482   -3.7183    0.0000 C   0  0  0  0  0  0  0  0  0  0  0  0
    0.0672   -2.3096    0.0000 C   0  0  0  0  0  0  0  0  0  0  0  0
    1.4590   -1.7501    0.0000 C   0  0  0  0  0  0  0  0  0  0  0  0
    2.6394   -2.6756    0.0000 C   0  0  0  0  0  0  0  0  0  0  0  0
    2.4281   -4.1606    0.0000 O   0  0  0  0  0  0  0  0  0  0  0  0
    4.0311   -2.1161    0.0000 C   0  0  0  0  0  0  0  0  0  0  0  0
    4.2425   -0.6310    0.0000 C   0  0  0  0  0  0  0  0  0  0  0  0
    5.6342   -0.0715    0.0000 C   0  0  0  0  0  0  0  0  0  0  0  0
    5.8455    1.4135    0.0000 C   0  0  0  0  0  0  0  0  0  0  0  0
    7.2372    1.9730    0.0000 O   0  0  0  0  0  0  0  0  0  0  0  0
    4.6651    2.3390    0.0000 C   0  0  0  0  0  0  0  0  0  0  0  0
    3.2733    1.7795    0.0000 C   0  0  0  0  0  0  0  0  0  0  0  0
    3.0620    0.2945    0.0000 C   0  0  0  0  0  0  0  0  0  0  0  0
    1.8816    1.2200    0.0000 C   0  0  0  0  0  0  0  0  0  0  0  0
    1.6703   -0.2650    0.0000 C   0  0  0  0  0  0  0  0  0  0  0  0
    0.4899    0.6605    0.0000 C   0  0  0  0  0  0  0  0  0  0  0  0
   -0.9019    0.1010    0.0000 C   0  0  0  0  0  0  0  0  0  0  0  0
   -2.0823    1.0265    0.0000 O   0  0  0  0  0  0  0  0  0  0  0  0
   -1.8710    2.5115    0.0000 C   0  0  0  0  0  0  0  0  0  0  0  0
   -0.4793    3.0710    0.0000 C   0  0  0  0  0  0  0  0  0  0  0  0
    0.7012    2.1455    0.0000 O   0  0  0  0  0  0  0  0  0  0  0  0
   -0.2679    4.5561    0.0000 O   0  0  0  0  0  0  0  0  0  0  0  0
   -1.1132   -1.3841    0.0000 C   0  0  0  0  0  0  0  0  0  0  0  0
   -2.3839   -0.5870    0.0000 C   0  0  0  0  0  0  0  0  0  0  0  0
  2  1  1  6
  2  3  1  0
  3  4  1  0
  4  5  1  0
  5  6  2  0
  5  7  1  0
  2  8  1  0
  8  9  1  6
  9 10  1  0
 11 10  1  6
 11 12  1  0
 12 13  1  1
 13 14  1  1
 13 15  1  0
 16 15  1  1
 16 17  1  0
 17 18  1  0
 18 19  1  1
 18 20  1  0
 20 21  1  0
 21 22  1  0
 22 23  1  6
 22 24  1  0
 24 25  1  6
 25 26  1  0
 26 27  1  1
 27 28  1  0
 28 29  1  0
 29 30  2  0
 29 31  1  0
 26 32  1  0
 32 33  1  6
 32  8  1  0
 32 11  1  0
 24 12  1  0
 22 16  1  0
M  END
>  <MS_ID>  (1215) 
MS1262

>  <SMILES>  (1215) 
C[C@H](CCC(=O)O)[C@H]1CC[C@H]2[C@@H]3[C@H](O)C[C@@H]4C[C@H](O)CC[C@]4(C)[C@H]3C[C@H](OCC(=O)O)[C@]12C

>  <Structure_dimension>  (1215) 
2D

$$$$
MS1263
     RDKit          2D

 33 37  0  0  0  0  0  0  0  0999 V2000
   -3.6298   -3.2263    0.0000 C   0  0  0  0  0  0  0  0  0  0  0  0
   -2.6726   -2.0715    0.0000 C   0  0  0  0  0  0  0  0  0  0  0  0
   -3.1941   -0.6650    0.0000 C   0  0  0  0  0  0  0  0  0  0  0  0
   -4.6728   -0.4135    0.0000 C   0  0  0  0  0  0  0  0  0  0  0  0
   -5.1944    0.9930    0.0000 C   0  0  0  0  0  0  0  0  0  0  0  0
   -4.2371    2.1478    0.0000 O   0  0  0  0  0  0  0  0  0  0  0  0
   -6.6731    1.2445    0.0000 C   0  0  0  0  0  0  0  0  0  0  0  0
   -7.7458    0.1960    0.0000 C   0  0  0  0  0  0  0  0  0  0  0  0
   -9.0745    0.8923    0.0000 C   0  0  0  0  0  0  0  0  0  0  0  0
   -8.8229    2.3710    0.0000 C   0  0  0  0  0  0  0  0  0  0  0  0
   -7.3388    2.5887    0.0000 S   0  0  0  0  0  0  0  0  0  0  0  0
   -1.1938   -2.3230    0.0000 C   0  0  0  0  0  0  0  0  0  0  0  0
   -0.5281   -3.6672    0.0000 C   0  0  0  0  0  0  0  0  0  0  0  0
    0.9560   -3.4495    0.0000 C   0  0  0  0  0  0  0  0  0  0  0  0
    1.2075   -1.9708    0.0000 C   0  0  0  0  0  0  0  0  0  0  0  0
    2.4748   -1.1682    0.0000 C   0  0  0  0  0  0  0  0  0  0  0  0
    3.8034   -1.8644    0.0000 C   0  0  0  0  0  0  0  0  0  0  0  0
    3.8648   -3.3632    0.0000 O   0  0  0  0  0  0  0  0  0  0  0  0
    5.0707   -1.0619    0.0000 C   0  0  0  0  0  0  0  0  0  0  0  0
    6.3993   -1.7581    0.0000 O   0  0  0  0  0  0  0  0  0  0  0  0
    5.0093    0.4368    0.0000 C   0  0  0  0  0  0  0  0  0  0  0  0
    6.2766    1.2394    0.0000 C   0  0  0  0  0  0  0  0  0  0  0  0
    6.2152    2.7381    0.0000 C   0  0  0  0  0  0  0  0  0  0  0  0
    7.4824    3.5407    0.0000 O   0  0  0  0  0  0  0  0  0  0  0  0
    4.8865    3.4343    0.0000 C   0  0  0  0  0  0  0  0  0  0  0  0
    3.6193    2.6318    0.0000 C   0  0  0  0  0  0  0  0  0  0  0  0
    3.6807    1.1331    0.0000 C   0  0  0  0  0  0  0  0  0  0  0  0
    2.3520    1.8293    0.0000 C   0  0  0  0  0  0  0  0  0  0  0  0
    2.4134    0.3305    0.0000 C   0  0  0  0  0  0  0  0  0  0  0  0
    1.0848    1.0267    0.0000 C   0  0  0  0  0  0  0  0  0  0  0  0
   -0.1825    0.2242    0.0000 C   0  0  0  0  0  0  0  0  0  0  0  0
   -0.1211   -1.2745    0.0000 C   0  0  0  0  0  0  0  0  0  0  0  0
   -1.5152   -0.7210    0.0000 C   0  0  0  0  0  0  0  0  0  0  0  0
  2  1  1  6
  2  3  1  0
  3  4  1  0
  4  5  1  0
  5  6  2  0
  5  7  1  0
  7  8  2  0
  8  9  1  0
  9 10  2  0
 10 11  1  0
  2 12  1  0
 12 13  1  6
 13 14  1  0
 15 14  1  6
 15 16  1  0
 16 17  1  1
 17 18  1  1
 17 19  1  0
 19 20  1  1
 19 21  1  0
 21 22  1  1
 22 23  1  0
 23 24  1  1
 23 25  1  0
 25 26  1  0
 26 27  1  0
 27 28  1  6
 27 29  1  0
 29 30  1  6
 30 31  1  0
 31 32  1  0
 32 33  1  6
 11  7  1  0
 32 12  1  0
 32 15  1  0
 29 16  1  0
 27 21  1  0
M  END
>  <MS_ID>  (1216) 
MS1263

>  <SMILES>  (1216) 
C[C@H](CCC(=O)c1cccs1)[C@H]1CC[C@H]2[C@@H]3[C@H](O)[C@H](O)[C@@H]4C[C@H](O)CC[C@]4(C)[C@H]3CC[C@]12C

>  <Structure_dimension>  (1216) 
2D

$$$$
MS1264
     RDKit          2D

 32 35  0  0  0  0  0  0  0  0999 V2000
   -4.5868   -2.9726    0.0000 C   0  0  0  0  0  0  0  0  0  0  0  0
   -3.7544   -1.7248    0.0000 C   0  0  0  0  0  0  0  0  0  0  0  0
   -4.4189   -0.3800    0.0000 C   0  0  0  0  0  0  0  0  0  0  0  0
   -5.9157   -0.2830    0.0000 C   0  0  0  0  0  0  0  0  0  0  0  0
   -6.5802    1.0618    0.0000 C   0  0  0  0  0  0  0  0  0  0  0  0
   -5.7478    2.3096    0.0000 O   0  0  0  0  0  0  0  0  0  0  0  0
   -8.0771    1.1587    0.0000 O   0  0  0  0  0  0  0  0  0  0  0  0
   -2.2575   -1.8217    0.0000 C   0  0  0  0  0  0  0  0  0  0  0  0
   -1.4561   -3.0897    0.0000 C   0  0  0  0  0  0  0  0  0  0  0  0
   -0.0025   -2.7193    0.0000 C   0  0  0  0  0  0  0  0  0  0  0  0
    0.0944   -1.2224    0.0000 C   0  0  0  0  0  0  0  0  0  0  0  0
    1.2716   -0.2929    0.0000 C   0  0  0  0  0  0  0  0  0  0  0  0
    2.6653   -0.8476    0.0000 C   0  0  0  0  0  0  0  0  0  0  0  0
    2.8817   -2.3319    0.0000 O   0  0  0  0  0  0  0  0  0  0  0  0
    4.2753   -2.8867    0.0000 S   0  0  0  0  0  0  0  0  0  0  0  0
    4.8301   -1.4930    0.0000 O   0  0  0  0  0  0  0  0  0  0  0  0
    3.7206   -4.2803    0.0000 O   0  0  0  0  0  0  0  0  0  0  0  0
    5.6690   -3.4414    0.0000 O   0  0  0  0  0  0  0  0  0  0  0  0
    3.8425    0.0819    0.0000 C   0  0  0  0  0  0  0  0  0  0  0  0
    3.6261    1.5663    0.0000 C   0  0  0  0  0  0  0  0  0  0  0  0
    4.8034    2.4958    0.0000 C   0  0  0  0  0  0  0  0  0  0  0  0
    4.5870    3.9801    0.0000 C   0  0  0  0  0  0  0  0  0  0  0  0
    3.1933    4.5349    0.0000 C   0  0  0  0  0  0  0  0  0  0  0  0
    2.0161    3.6053    0.0000 C   0  0  0  0  0  0  0  0  0  0  0  0
    2.2325    2.1210    0.0000 C   0  0  0  0  0  0  0  0  0  0  0  0
    0.8388    2.6757    0.0000 C   0  0  0  0  0  0  0  0  0  0  0  0
    1.0552    1.1914    0.0000 C   0  0  0  0  0  0  0  0  0  0  0  0
   -0.3384    1.7462    0.0000 C   0  0  0  0  0  0  0  0  0  0  0  0
   -1.5157    0.8166    0.0000 C   0  0  0  0  0  0  0  0  0  0  0  0
   -2.9093    1.3714    0.0000 O   0  0  0  0  0  0  0  0  0  0  0  0
   -1.2993   -0.6677    0.0000 C   0  0  0  0  0  0  0  0  0  0  0  0
   -2.7433   -0.2617    0.0000 C   0  0  0  0  0  0  0  0  0  0  0  0
  2  1  1  6
  2  3  1  0
  3  4  1  0
  4  5  1  0
  5  6  2  0
  5  7  1  0
  2  8  1  0
  8  9  1  6
  9 10  1  0
 11 10  1  6
 11 12  1  0
 12 13  1  1
 13 14  1  6
 14 15  1  0
 15 16  2  0
 15 17  2  0
 15 18  1  0
 13 19  1  0
 20 19  1  1
 20 21  1  0
 21 22  1  0
 22 23  1  0
 23 24  1  0
 24 25  1  0
 25 26  1  6
 25 27  1  0
 27 28  1  6
 28 29  1  0
 29 30  1  1
 29 31  1  0
 31 32  1  6
 31  8  1  0
 31 11  1  0
 27 12  1  0
 25 20  1  0
M  END
>  <MS_ID>  (1217) 
MS1264

>  <SMILES>  (1217) 
C[C@H](CCC(=O)O)[C@H]1CC[C@H]2[C@@H]3[C@@H](OS(=O)(=O)O)C[C@@H]4CCCC[C@]4(C)[C@H]3C[C@H](O)[C@]12C

>  <Structure_dimension>  (1217) 
2D

$$$$
MS1265
     RDKit          2D

 30 33  0  0  0  0  0  0  0  0999 V2000
   -5.0361   -2.2421    0.0000 C   0  0  0  0  0  0  0  0  0  0  0  0
   -3.9151   -1.2454    0.0000 C   0  0  0  0  0  0  0  0  0  0  0  0
   -4.2177    0.2237    0.0000 C   0  0  0  0  0  0  0  0  0  0  0  0
   -5.6413    0.6963    0.0000 C   0  0  0  0  0  0  0  0  0  0  0  0
   -5.9439    2.1654    0.0000 C   0  0  0  0  0  0  0  0  0  0  0  0
   -4.8228    3.1621    0.0000 O   0  0  0  0  0  0  0  0  0  0  0  0
   -7.3675    2.6380    0.0000 O   0  0  0  0  0  0  0  0  0  0  0  0
   -2.4915   -1.7180    0.0000 C   0  0  0  0  0  0  0  0  0  0  0  0
   -2.0370   -3.1475    0.0000 C   0  0  0  0  0  0  0  0  0  0  0  0
   -0.5370   -3.1570    0.0000 C   0  0  0  0  0  0  0  0  0  0  0  0
   -0.0645   -1.7333    0.0000 C   0  0  0  0  0  0  0  0  0  0  0  0
    1.3097   -1.1319    0.0000 C   0  0  0  0  0  0  0  0  0  0  0  0
    2.5176   -2.0213    0.0000 C   0  0  0  0  0  0  0  0  0  0  0  0
    2.3514   -3.5120    0.0000 O   0  0  0  0  0  0  0  0  0  0  0  0
    3.5593   -4.4014    0.0000 N   0  0  0  0  0  0  0  0  0  0  0  0
    3.8918   -1.4198    0.0000 C   0  0  0  0  0  0  0  0  0  0  0  0
    4.0580    0.0709    0.0000 C   0  0  0  0  0  0  0  0  0  0  0  0
    5.4321    0.6723    0.0000 C   0  0  0  0  0  0  0  0  0  0  0  0
    5.5984    2.1631    0.0000 C   0  0  0  0  0  0  0  0  0  0  0  0
    6.9725    2.7645    0.0000 O   0  0  0  0  0  0  0  0  0  0  0  0
    4.3904    3.0524    0.0000 C   0  0  0  0  0  0  0  0  0  0  0  0
    3.0163    2.4510    0.0000 C   0  0  0  0  0  0  0  0  0  0  0  0
    2.8501    0.9603    0.0000 C   0  0  0  0  0  0  0  0  0  0  0  0
    1.6421    1.8496    0.0000 C   0  0  0  0  0  0  0  0  0  0  0  0
    1.4759    0.3588    0.0000 C   0  0  0  0  0  0  0  0  0  0  0  0
    0.2680    1.2482    0.0000 C   0  0  0  0  0  0  0  0  0  0  0  0
   -1.1062    0.6468    0.0000 C   0  0  0  0  0  0  0  0  0  0  0  0
   -2.3141    1.5361    0.0000 O   0  0  0  0  0  0  0  0  0  0  0  0
   -1.2724   -0.8440    0.0000 C   0  0  0  0  0  0  0  0  0  0  0  0
   -2.5667   -0.0858    0.0000 C   0  0  0  0  0  0  0  0  0  0  0  0
  2  1  1  6
  2  3  1  0
  3  4  1  0
  4  5  1  0
  5  6  2  0
  5  7  1  0
  2  8  1  0
  8  9  1  6
  9 10  1  0
 11 10  1  6
 11 12  1  0
 12 13  1  1
 13 14  1  1
 14 15  1  0
 13 16  1  0
 17 16  1  1
 17 18  1  0
 18 19  1  0
 19 20  1  1
 19 21  1  0
 21 22  1  0
 22 23  1  0
 23 24  1  6
 23 25  1  0
 25 26  1  6
 26 27  1  0
 27 28  1  1
 27 29  1  0
 29 30  1  6
 29  8  1  0
 29 11  1  0
 25 12  1  0
 23 17  1  0
M  END
>  <MS_ID>  (1218) 
MS1265

>  <SMILES>  (1218) 
C[C@H](CCC(=O)O)[C@H]1CC[C@H]2[C@@H]3[C@H](ON)C[C@@H]4C[C@H](O)CC[C@]4(C)[C@H]3C[C@H](O)[C@]12C

>  <Structure_dimension>  (1218) 
2D

$$$$
MS1266
     RDKit          2D

 29 32  0  0  0  0  0  0  0  0999 V2000
   -4.1361   -2.8778    0.0000 C   0  0  0  0  0  0  0  0  0  0  0  0
   -3.1227   -1.7719    0.0000 C   0  0  0  0  0  0  0  0  0  0  0  0
   -3.5738   -0.3413    0.0000 C   0  0  0  0  0  0  0  0  0  0  0  0
   -5.0383   -0.0167    0.0000 C   0  0  0  0  0  0  0  0  0  0  0  0
   -5.4894    1.4138    0.0000 C   0  0  0  0  0  0  0  0  0  0  0  0
   -4.4761    2.5198    0.0000 O   0  0  0  0  0  0  0  0  0  0  0  0
   -6.9539    1.7384    0.0000 C   0  0  0  0  0  0  0  0  0  0  0  0
   -7.4050    3.1690    0.0000 O   0  0  0  0  0  0  0  0  0  0  0  0
   -1.6583   -2.0965    0.0000 C   0  0  0  0  0  0  0  0  0  0  0  0
   -1.0601   -3.4720    0.0000 C   0  0  0  0  0  0  0  0  0  0  0  0
    0.4330   -3.3282    0.0000 C   0  0  0  0  0  0  0  0  0  0  0  0
    0.7576   -1.8638    0.0000 C   0  0  0  0  0  0  0  0  0  0  0  0
    2.0631   -1.1251    0.0000 C   0  0  0  0  0  0  0  0  0  0  0  0
    3.3556   -1.8863    0.0000 C   0  0  0  0  0  0  0  0  0  0  0  0
    3.3426   -3.3863    0.0000 O   0  0  0  0  0  0  0  0  0  0  0  0
    4.6611   -1.1476    0.0000 C   0  0  0  0  0  0  0  0  0  0  0  0
    4.6741    0.3523    0.0000 C   0  0  0  0  0  0  0  0  0  0  0  0
    5.9796    1.0910    0.0000 C   0  0  0  0  0  0  0  0  0  0  0  0
    5.9926    2.5910    0.0000 C   0  0  0  0  0  0  0  0  0  0  0  0
    4.7002    3.3522    0.0000 C   0  0  0  0  0  0  0  0  0  0  0  0
    3.3947    2.6135    0.0000 C   0  0  0  0  0  0  0  0  0  0  0  0
    3.3816    1.1136    0.0000 C   0  0  0  0  0  0  0  0  0  0  0  0
    2.0891    1.8748    0.0000 C   0  0  0  0  0  0  0  0  0  0  0  0
    2.0761    0.3749    0.0000 C   0  0  0  0  0  0  0  0  0  0  0  0
    0.7836    1.1361    0.0000 C   0  0  0  0  0  0  0  0  0  0  0  0
   -0.5219    0.3974    0.0000 C   0  0  0  0  0  0  0  0  0  0  0  0
   -1.8143    1.1587    0.0000 O   0  0  0  0  0  0  0  0  0  0  0  0
   -0.5349   -1.1025    0.0000 C   0  0  0  0  0  0  0  0  0  0  0  0
   -1.8998   -0.4805    0.0000 C   0  0  0  0  0  0  0  0  0  0  0  0
  2  1  1  6
  2  3  1  0
  3  4  1  0
  4  5  1  0
  5  6  2  0
  5  7  1  0
  7  8  1  0
  2  9  1  0
  9 10  1  6
 10 11  1  0
 12 11  1  6
 12 13  1  0
 13 14  1  1
 14 15  1  1
 14 16  1  0
 17 16  1  1
 17 18  1  0
 18 19  1  0
 19 20  1  0
 20 21  1  0
 21 22  1  0
 22 23  1  6
 22 24  1  0
 24 25  1  6
 25 26  1  0
 26 27  2  0
 26 28  1  0
 28 29  1  6
 28  9  1  0
 28 12  1  0
 24 13  1  0
 22 17  1  0
M  END
>  <MS_ID>  (1219) 
MS1266

>  <SMILES>  (1219) 
C[C@H](CCC(=O)CO)[C@H]1CC[C@H]2[C@@H]3[C@H](O)C[C@@H]4CCCC[C@]4(C)[C@H]3CC(=O)[C@]12C

>  <Structure_dimension>  (1219) 
2D

$$$$
MS1267
     RDKit          2D

 34 38  0  0  0  0  0  0  0  0999 V2000
   -2.6584   -3.5322    0.0000 C   0  0  0  0  0  0  0  0  0  0  0  0
   -1.7097   -2.3702    0.0000 C   0  0  0  0  0  0  0  0  0  0  0  0
   -2.2417   -0.9677    0.0000 C   0  0  0  0  0  0  0  0  0  0  0  0
   -3.7222   -0.7271    0.0000 C   0  0  0  0  0  0  0  0  0  0  0  0
   -4.2542    0.6754    0.0000 C   0  0  0  0  0  0  0  0  0  0  0  0
   -3.3055    1.8373    0.0000 O   0  0  0  0  0  0  0  0  0  0  0  0
   -5.7348    0.9160    0.0000 C   0  0  0  0  0  0  0  0  0  0  0  0
   -6.2667    2.3185    0.0000 C   0  0  0  0  0  0  0  0  0  0  0  0
   -7.7473    2.5591    0.0000 C   0  0  0  0  0  0  0  0  0  0  0  0
   -8.6959    1.3971    0.0000 C   0  0  0  0  0  0  0  0  0  0  0  0
  -10.1765    1.6377    0.0000 O   0  0  0  0  0  0  0  0  0  0  0  0
   -8.1640   -0.0054    0.0000 C   0  0  0  0  0  0  0  0  0  0  0  0
   -6.6834   -0.2460    0.0000 C   0  0  0  0  0  0  0  0  0  0  0  0
   -0.2291   -2.6108    0.0000 C   0  0  0  0  0  0  0  0  0  0  0  0
    0.4465   -3.9500    0.0000 C   0  0  0  0  0  0  0  0  0  0  0  0
    1.9290   -3.7213    0.0000 C   0  0  0  0  0  0  0  0  0  0  0  0
    2.1695   -2.2407    0.0000 C   0  0  0  0  0  0  0  0  0  0  0  0
    3.4308   -1.4288    0.0000 C   0  0  0  0  0  0  0  0  0  0  0  0
    4.7646   -2.1152    0.0000 C   0  0  0  0  0  0  0  0  0  0  0  0
    6.0258   -1.3033    0.0000 C   0  0  0  0  0  0  0  0  0  0  0  0
    5.9533    0.1950    0.0000 C   0  0  0  0  0  0  0  0  0  0  0  0
    7.2146    1.0069    0.0000 C   0  0  0  0  0  0  0  0  0  0  0  0
    7.1421    2.5052    0.0000 C   0  0  0  0  0  0  0  0  0  0  0  0
    8.4034    3.3171    0.0000 O   0  0  0  0  0  0  0  0  0  0  0  0
    5.8083    3.1915    0.0000 C   0  0  0  0  0  0  0  0  0  0  0  0
    4.5471    2.3796    0.0000 C   0  0  0  0  0  0  0  0  0  0  0  0
    4.6196    0.8813    0.0000 C   0  0  0  0  0  0  0  0  0  0  0  0
    3.2858    1.5677    0.0000 C   0  0  0  0  0  0  0  0  0  0  0  0
    3.3583    0.0694    0.0000 C   0  0  0  0  0  0  0  0  0  0  0  0
    2.0245    0.7558    0.0000 C   0  0  0  0  0  0  0  0  0  0  0  0
    0.7633   -0.0562    0.0000 C   0  0  0  0  0  0  0  0  0  0  0  0
   -0.5705    0.6302    0.0000 O   0  0  0  0  0  0  0  0  0  0  0  0
    0.8358   -1.5544    0.0000 C   0  0  0  0  0  0  0  0  0  0  0  0
   -0.5624   -1.0113    0.0000 C   0  0  0  0  0  0  0  0  0  0  0  0
  2  1  1  6
  2  3  1  0
  3  4  1  0
  4  5  1  0
  5  6  2  0
  5  7  1  0
  7  8  2  0
  8  9  1  0
  9 10  2  0
 10 11  1  0
 10 12  1  0
 12 13  2  0
  2 14  1  0
 14 15  1  6
 15 16  1  0
 17 16  1  6
 17 18  1  0
 18 19  1  1
 19 20  1  0
 21 20  1  1
 21 22  1  0
 22 23  1  0
 23 24  1  1
 23 25  1  0
 25 26  1  0
 26 27  1  0
 27 28  1  6
 27 29  1  0
 29 30  1  6
 30 31  1  0
 31 32  1  6
 31 33  1  0
 33 34  1  6
 13  7  1  0
 33 14  1  0
 33 17  1  0
 29 18  1  0
 27 21  1  0
M  END
>  <MS_ID>  (1220) 
MS1267

>  <SMILES>  (1220) 
C[C@H](CCC(=O)c1ccc(O)cc1)[C@H]1CC[C@H]2[C@@H]3CC[C@@H]4C[C@H](O)CC[C@]4(C)[C@H]3C[C@@H](O)[C@]12C

>  <Structure_dimension>  (1220) 
2D

$$$$
MS1268
     RDKit          2D

 40 44  0  0  0  0  0  0  0  0999 V2000
   -1.8731   -3.3694    0.0000 C   0  0  0  0  0  0  0  0  0  0  0  0
   -0.9635   -2.1767    0.0000 C   0  0  0  0  0  0  0  0  0  0  0  0
   -1.5415   -0.7926    0.0000 C   0  0  0  0  0  0  0  0  0  0  0  0
   -3.0293   -0.6011    0.0000 C   0  0  0  0  0  0  0  0  0  0  0  0
   -3.6074    0.7830    0.0000 C   0  0  0  0  0  0  0  0  0  0  0  0
   -2.6977    1.9757    0.0000 O   0  0  0  0  0  0  0  0  0  0  0  0
   -5.0951    0.9745    0.0000 C   0  0  0  0  0  0  0  0  0  0  0  0
   -5.6732    2.3586    0.0000 C   0  0  0  0  0  0  0  0  0  0  0  0
   -7.1609    2.5500    0.0000 C   0  0  0  0  0  0  0  0  0  0  0  0
   -8.0706    1.3573    0.0000 C   0  0  0  0  0  0  0  0  0  0  0  0
   -9.5583    1.5488    0.0000 N   0  0  0  0  0  0  0  0  0  0  0  0
  -10.4679    0.3561    0.0000 O   0  0  0  0  0  0  0  0  0  0  0  0
  -10.1364    2.9329    0.0000 O   0  0  0  0  0  0  0  0  0  0  0  0
   -7.4925   -0.0268    0.0000 C   0  0  0  0  0  0  0  0  0  0  0  0
   -6.0047   -0.2182    0.0000 C   0  0  0  0  0  0  0  0  0  0  0  0
   -5.4267   -1.6024    0.0000 N   0  0  0  0  0  0  0  0  0  0  0  0
   -3.9389   -1.7938    0.0000 O   0  0  0  0  0  0  0  0  0  0  0  0
   -6.3363   -2.7951    0.0000 O   0  0  0  0  0  0  0  0  0  0  0  0
    0.5243   -2.3681    0.0000 C   0  0  0  0  0  0  0  0  0  0  0  0
    1.2439   -3.6843    0.0000 C   0  0  0  0  0  0  0  0  0  0  0  0
    2.7179   -3.4066    0.0000 C   0  0  0  0  0  0  0  0  0  0  0  0
    2.9094   -1.9189    0.0000 C   0  0  0  0  0  0  0  0  0  0  0  0
    4.1431   -1.0656    0.0000 C   0  0  0  0  0  0  0  0  0  0  0  0
    5.4988   -1.7074    0.0000 C   0  0  0  0  0  0  0  0  0  0  0  0
    5.6209   -3.2025    0.0000 O   0  0  0  0  0  0  0  0  0  0  0  0
    6.7325   -0.8542    0.0000 C   0  0  0  0  0  0  0  0  0  0  0  0
    8.0883   -1.4960    0.0000 O   0  0  0  0  0  0  0  0  0  0  0  0
    6.6105    0.6408    0.0000 C   0  0  0  0  0  0  0  0  0  0  0  0
    7.8442    1.4940    0.0000 C   0  0  0  0  0  0  0  0  0  0  0  0
    7.7221    2.9890    0.0000 C   0  0  0  0  0  0  0  0  0  0  0  0
    8.9558    3.8423    0.0000 O   0  0  0  0  0  0  0  0  0  0  0  0
    6.3664    3.6308    0.0000 C   0  0  0  0  0  0  0  0  0  0  0  0
    5.1327    2.7776    0.0000 C   0  0  0  0  0  0  0  0  0  0  0  0
    5.2547    1.2826    0.0000 C   0  0  0  0  0  0  0  0  0  0  0  0
    3.8990    1.9244    0.0000 C   0  0  0  0  0  0  0  0  0  0  0  0
    4.0210    0.4294    0.0000 C   0  0  0  0  0  0  0  0  0  0  0  0
    2.6653    1.0712    0.0000 C   0  0  0  0  0  0  0  0  0  0  0  0
    1.4316    0.2180    0.0000 C   0  0  0  0  0  0  0  0  0  0  0  0
    1.5536   -1.2771    0.0000 C   0  0  0  0  0  0  0  0  0  0  0  0
    0.1382   -0.7805    0.0000 C   0  0  0  0  0  0  0  0  0  0  0  0
  2  1  1  6
  2  3  1  0
  3  4  1  0
  4  5  1  0
  5  6  2  0
  5  7  1  0
  7  8  2  0
  8  9  1  0
  9 10  2  0
 10 11  1  0
 11 12  2  0
 11 13  1  0
 10 14  1  0
 14 15  2  0
 15 16  1  0
 16 17  2  0
 16 18  1  0
  2 19  1  0
 19 20  1  6
 20 21  1  0
 22 21  1  6
 22 23  1  0
 23 24  1  1
 24 25  1  1
 24 26  1  0
 26 27  1  1
 26 28  1  0
 28 29  1  1
 29 30  1  0
 30 31  1  1
 30 32  1  0
 32 33  1  0
 33 34  1  0
 34 35  1  6
 34 36  1  0
 36 37  1  6
 37 38  1  0
 38 39  1  0
 39 40  1  6
 15  7  1  0
 39 19  1  0
 39 22  1  0
 36 23  1  0
 34 28  1  0
M  CHG  4  11   1  13  -1  16   1  18  -1
M  END
>  <MS_ID>  (1221) 
MS1268

>  <SMILES>  (1221) 
C[C@H](CCC(=O)c1ccc([N+](=O)[O-])cc1[N+](=O)[O-])[C@H]1CC[C@H]2[C@@H]3[C@H](O)[C@H](O)[C@@H]4C[C@H](O)CC[C@]4(C)[C@H]3CC[C@]12C

>  <Structure_dimension>  (1221) 
2D

$$$$
MS1269
     RDKit          2D

 32 35  0  0  0  0  0  0  0  0999 V2000
   -3.0592   -3.7169    0.0000 C   0  0  0  0  0  0  0  0  0  0  0  0
   -2.1499   -2.5239    0.0000 C   0  0  0  0  0  0  0  0  0  0  0  0
   -2.7284   -1.1399    0.0000 C   0  0  0  0  0  0  0  0  0  0  0  0
   -4.2162   -0.9489    0.0000 C   0  0  0  0  0  0  0  0  0  0  0  0
   -4.7946    0.4350    0.0000 C   0  0  0  0  0  0  0  0  0  0  0  0
   -3.8853    1.6280    0.0000 O   0  0  0  0  0  0  0  0  0  0  0  0
   -6.2824    0.6260    0.0000 C   0  0  0  0  0  0  0  0  0  0  0  0
   -6.8609    2.0100    0.0000 C   0  0  0  0  0  0  0  0  0  0  0  0
   -8.3487    2.2010    0.0000 C   0  0  0  0  0  0  0  0  0  0  0  0
   -9.2580    1.0080    0.0000 O   0  0  0  0  0  0  0  0  0  0  0  0
   -8.9272    3.5850    0.0000 O   0  0  0  0  0  0  0  0  0  0  0  0
   -0.6621   -2.7149    0.0000 C   0  0  0  0  0  0  0  0  0  0  0  0
    0.0579   -4.0308    0.0000 C   0  0  0  0  0  0  0  0  0  0  0  0
    1.5319   -3.7527    0.0000 C   0  0  0  0  0  0  0  0  0  0  0  0
    1.7229   -2.2649    0.0000 C   0  0  0  0  0  0  0  0  0  0  0  0
    2.9563   -1.4114    0.0000 C   0  0  0  0  0  0  0  0  0  0  0  0
    4.3123   -2.0528    0.0000 C   0  0  0  0  0  0  0  0  0  0  0  0
    5.5457   -1.1992    0.0000 C   0  0  0  0  0  0  0  0  0  0  0  0
    5.4232    0.2958    0.0000 C   0  0  0  0  0  0  0  0  0  0  0  0
    6.6567    1.1494    0.0000 C   0  0  0  0  0  0  0  0  0  0  0  0
    6.5342    2.6444    0.0000 C   0  0  0  0  0  0  0  0  0  0  0  0
    7.7676    3.4980    0.0000 O   0  0  0  0  0  0  0  0  0  0  0  0
    5.1782    3.2858    0.0000 C   0  0  0  0  0  0  0  0  0  0  0  0
    3.9448    2.4322    0.0000 C   0  0  0  0  0  0  0  0  0  0  0  0
    4.0673    0.9372    0.0000 C   0  0  0  0  0  0  0  0  0  0  0  0
    2.7113    1.5786    0.0000 C   0  0  0  0  0  0  0  0  0  0  0  0
    2.8338    0.0836    0.0000 C   0  0  0  0  0  0  0  0  0  0  0  0
    1.4779    0.7250    0.0000 C   0  0  0  0  0  0  0  0  0  0  0  0
    0.2444   -0.1285    0.0000 C   0  0  0  0  0  0  0  0  0  0  0  0
   -1.1115    0.5129    0.0000 O   0  0  0  0  0  0  0  0  0  0  0  0
    0.3669   -1.6235    0.0000 C   0  0  0  0  0  0  0  0  0  0  0  0
   -1.0486   -1.1274    0.0000 C   0  0  0  0  0  0  0  0  0  0  0  0
  2  1  1  6
  2  3  1  0
  3  4  1  0
  4  5  1  0
  5  6  2  0
  5  7  1  0
  7  8  1  0
  8  9  1  0
  9 10  2  0
  9 11  1  0
  2 12  1  0
 12 13  1  6
 13 14  1  0
 15 14  1  6
 15 16  1  0
 16 17  1  1
 17 18  1  0
 19 18  1  1
 19 20  1  0
 20 21  1  0
 21 22  1  6
 21 23  1  0
 23 24  1  0
 24 25  1  0
 25 26  1  6
 25 27  1  0
 27 28  1  6
 28 29  1  0
 29 30  1  6
 29 31  1  0
 31 32  1  6
 31 12  1  0
 31 15  1  0
 27 16  1  0
 25 19  1  0
M  END
>  <MS_ID>  (1222) 
MS1269

>  <SMILES>  (1222) 
C[C@H](CCC(=O)CCC(=O)O)[C@H]1CC[C@H]2[C@@H]3CC[C@@H]4C[C@@H](O)CC[C@]4(C)[C@H]3C[C@@H](O)[C@]12C

>  <Structure_dimension>  (1222) 
2D

$$$$
MS1270
     RDKit          2D

 36 40  0  0  0  0  0  0  0  0999 V2000
   -1.4928   -4.6852    0.0000 C   0  0  0  0  0  0  0  0  0  0  0  0
   -0.8348   -3.3372    0.0000 C   0  0  0  0  0  0  0  0  0  0  0  0
   -1.6731   -2.0933    0.0000 C   0  0  0  0  0  0  0  0  0  0  0  0
   -3.1695   -2.1974    0.0000 C   0  0  0  0  0  0  0  0  0  0  0  0
   -4.0079   -0.9536    0.0000 C   0  0  0  0  0  0  0  0  0  0  0  0
   -3.3498    0.3944    0.0000 O   0  0  0  0  0  0  0  0  0  0  0  0
   -5.5043   -1.0577    0.0000 O   0  0  0  0  0  0  0  0  0  0  0  0
   -6.3426    0.1862    0.0000 C   0  0  0  0  0  0  0  0  0  0  0  0
   -7.8417    0.2391    0.0000 C   0  0  0  0  0  0  0  0  0  0  0  0
   -8.2546    1.6811    0.0000 C   0  0  0  0  0  0  0  0  0  0  0  0
   -9.6640    2.1946    0.0000 O   0  0  0  0  0  0  0  0  0  0  0  0
   -7.0108    2.5194    0.0000 C   0  0  0  0  0  0  0  0  0  0  0  0
   -6.9579    4.0185    0.0000 O   0  0  0  0  0  0  0  0  0  0  0  0
   -5.8291    1.5955    0.0000 C   0  0  0  0  0  0  0  0  0  0  0  0
   -4.3870    2.0085    0.0000 O   0  0  0  0  0  0  0  0  0  0  0  0
    0.6616   -3.2331    0.0000 C   0  0  0  0  0  0  0  0  0  0  0  0
    1.6254   -4.3825    0.0000 C   0  0  0  0  0  0  0  0  0  0  0  0
    3.0163   -3.8211    0.0000 C   0  0  0  0  0  0  0  0  0  0  0  0
    2.9122   -2.3247    0.0000 C   0  0  0  0  0  0  0  0  0  0  0  0
    3.9546   -1.2461    0.0000 C   0  0  0  0  0  0  0  0  0  0  0  0
    5.4099   -1.6095    0.0000 C   0  0  0  0  0  0  0  0  0  0  0  0
    6.4523   -0.5308    0.0000 C   0  0  0  0  0  0  0  0  0  0  0  0
    6.0393    0.9112    0.0000 C   0  0  0  0  0  0  0  0  0  0  0  0
    7.0817    1.9898    0.0000 C   0  0  0  0  0  0  0  0  0  0  0  0
    6.6688    3.4319    0.0000 C   0  0  0  0  0  0  0  0  0  0  0  0
    7.7112    4.5105    0.0000 O   0  0  0  0  0  0  0  0  0  0  0  0
    5.2135    3.7953    0.0000 C   0  0  0  0  0  0  0  0  0  0  0  0
    4.1711    2.7167    0.0000 C   0  0  0  0  0  0  0  0  0  0  0  0
    4.5840    1.2746    0.0000 C   0  0  0  0  0  0  0  0  0  0  0  0
    3.1287    1.6380    0.0000 C   0  0  0  0  0  0  0  0  0  0  0  0
    3.5417    0.1960    0.0000 C   0  0  0  0  0  0  0  0  0  0  0  0
    2.0863    0.5594    0.0000 C   0  0  0  0  0  0  0  0  0  0  0  0
    1.0440   -0.5193    0.0000 C   0  0  0  0  0  0  0  0  0  0  0  0
   -0.4113   -0.1559    0.0000 O   0  0  0  0  0  0  0  0  0  0  0  0
    1.4569   -1.9613    0.0000 C   0  0  0  0  0  0  0  0  0  0  0  0
   -0.0284   -1.7520    0.0000 C   0  0  0  0  0  0  0  0  0  0  0  0
  2  1  1  6
  2  3  1  0
  3  4  1  0
  4  5  1  0
  5  6  2  0
  5  7  1  0
  8  7  1  1
  8  9  1  0
  9 10  1  0
 10 11  1  6
 10 12  1  0
 12 13  1  1
 12 14  1  0
 14 15  1  1
  2 16  1  0
 16 17  1  6
 17 18  1  0
 19 18  1  6
 19 20  1  0
 20 21  1  1
 21 22  1  0
 23 22  1  1
 23 24  1  0
 24 25  1  0
 25 26  1  1
 25 27  1  0
 27 28  1  0
 28 29  1  0
 29 30  1  6
 29 31  1  0
 31 32  1  6
 32 33  1  0
 33 34  1  1
 33 35  1  0
 35 36  1  6
 14  8  1  0
 35 16  1  0
 35 19  1  0
 31 20  1  0
 29 23  1  0
M  END
>  <MS_ID>  (1223) 
MS1270

>  <SMILES>  (1223) 
C[C@H](CCC(=O)O[C@H]1C[C@H](O)[C@@H](O)[C@H]1O)[C@H]1CC[C@H]2[C@@H]3CC[C@@H]4C[C@H](O)CC[C@]4(C)[C@H]3C[C@H](O)[C@]12C

>  <Structure_dimension>  (1223) 
2D

$$$$
MS1271
     RDKit          2D

 38 42  0  0  0  0  0  0  0  0999 V2000
   -2.1069   -3.2730    0.0000 C   0  0  0  0  0  0  0  0  0  0  0  0
   -1.1353   -2.1302    0.0000 C   0  0  0  0  0  0  0  0  0  0  0  0
   -1.6392   -0.7174    0.0000 C   0  0  0  0  0  0  0  0  0  0  0  0
   -3.1147   -0.4473    0.0000 C   0  0  0  0  0  0  0  0  0  0  0  0
   -3.6186    0.9655    0.0000 C   0  0  0  0  0  0  0  0  0  0  0  0
   -2.6469    2.1083    0.0000 O   0  0  0  0  0  0  0  0  0  0  0  0
   -5.0940    1.2356    0.0000 C   0  0  0  0  0  0  0  0  0  0  0  0
   -5.5979    2.6484    0.0000 C   0  0  0  0  0  0  0  0  0  0  0  0
   -7.0734    2.9185    0.0000 C   0  0  0  0  0  0  0  0  0  0  0  0
   -8.0450    1.7757    0.0000 C   0  0  0  0  0  0  0  0  0  0  0  0
   -9.5205    2.0457    0.0000 O   0  0  0  0  0  0  0  0  0  0  0  0
   -7.5412    0.3629    0.0000 C   0  0  0  0  0  0  0  0  0  0  0  0
   -8.5128   -0.7799    0.0000 C   0  0  0  0  0  0  0  0  0  0  0  0
   -9.9883   -0.5099    0.0000 O   0  0  0  0  0  0  0  0  0  0  0  0
   -8.0089   -2.1928    0.0000 O   0  0  0  0  0  0  0  0  0  0  0  0
   -6.0657    0.0928    0.0000 C   0  0  0  0  0  0  0  0  0  0  0  0
    0.3402   -2.4002    0.0000 C   0  0  0  0  0  0  0  0  0  0  0  0
    0.9890   -3.7527    0.0000 C   0  0  0  0  0  0  0  0  0  0  0  0
    2.4757   -3.5536    0.0000 C   0  0  0  0  0  0  0  0  0  0  0  0
    2.7457   -2.0781    0.0000 C   0  0  0  0  0  0  0  0  0  0  0  0
    4.0229   -1.2915    0.0000 C   0  0  0  0  0  0  0  0  0  0  0  0
    5.3428   -2.0043    0.0000 C   0  0  0  0  0  0  0  0  0  0  0  0
    5.3854   -3.5036    0.0000 O   0  0  0  0  0  0  0  0  0  0  0  0
    6.6200   -1.2176    0.0000 C   0  0  0  0  0  0  0  0  0  0  0  0
    6.5774    0.2818    0.0000 C   0  0  0  0  0  0  0  0  0  0  0  0
    7.8546    1.0684    0.0000 C   0  0  0  0  0  0  0  0  0  0  0  0
    7.8119    2.5678    0.0000 C   0  0  0  0  0  0  0  0  0  0  0  0
    9.0891    3.3544    0.0000 O   0  0  0  0  0  0  0  0  0  0  0  0
    6.4921    3.2805    0.0000 C   0  0  0  0  0  0  0  0  0  0  0  0
    5.2149    2.4939    0.0000 C   0  0  0  0  0  0  0  0  0  0  0  0
    5.2575    0.9945    0.0000 C   0  0  0  0  0  0  0  0  0  0  0  0
    3.9377    1.7073    0.0000 C   0  0  0  0  0  0  0  0  0  0  0  0
    3.9803    0.2079    0.0000 C   0  0  0  0  0  0  0  0  0  0  0  0
    2.6605    0.9207    0.0000 C   0  0  0  0  0  0  0  0  0  0  0  0
    1.3833    0.1341    0.0000 C   0  0  0  0  0  0  0  0  0  0  0  0
    0.0635    0.8469    0.0000 O   0  0  0  0  0  0  0  0  0  0  0  0
    1.4259   -1.3653    0.0000 C   0  0  0  0  0  0  0  0  0  0  0  0
    0.0388   -0.7944    0.0000 C   0  0  0  0  0  0  0  0  0  0  0  0
  2  1  1  6
  2  3  1  0
  3  4  1  0
  4  5  1  0
  5  6  2  0
  5  7  1  0
  7  8  2  0
  8  9  1  0
  9 10  2  0
 10 11  1  0
 10 12  1  0
 12 13  1  0
 13 14  2  0
 13 15  1  0
 12 16  2  0
  2 17  1  0
 17 18  1  6
 18 19  1  0
 20 19  1  6
 20 21  1  0
 21 22  1  1
 22 23  1  1
 22 24  1  0
 25 24  1  1
 25 26  1  0
 26 27  1  0
 27 28  1  1
 27 29  1  0
 29 30  1  0
 30 31  1  0
 31 32  1  6
 31 33  1  0
 33 34  1  6
 34 35  1  0
 35 36  1  1
 35 37  1  0
 37 38  1  6
 16  7  1  0
 37 17  1  0
 37 20  1  0
 33 21  1  0
 31 25  1  0
M  END
>  <MS_ID>  (1224) 
MS1271

>  <SMILES>  (1224) 
C[C@H](CCC(=O)c1ccc(O)c(C(=O)O)c1)[C@H]1CC[C@H]2[C@@H]3[C@H](O)C[C@@H]4C[C@H](O)CC[C@]4(C)[C@H]3C[C@H](O)[C@]12C

>  <Structure_dimension>  (1224) 
2D

$$$$
MS1272
     RDKit          2D

 30 33  0  0  0  0  0  0  0  0999 V2000
   -3.5909   -3.2894    0.0000 C   0  0  0  0  0  0  0  0  0  0  0  0
   -2.6685   -2.1066    0.0000 C   0  0  0  0  0  0  0  0  0  0  0  0
   -3.2316   -0.7163    0.0000 C   0  0  0  0  0  0  0  0  0  0  0  0
   -4.7172   -0.5088    0.0000 C   0  0  0  0  0  0  0  0  0  0  0  0
   -5.2803    0.8815    0.0000 C   0  0  0  0  0  0  0  0  0  0  0  0
   -4.3578    2.0643    0.0000 O   0  0  0  0  0  0  0  0  0  0  0  0
   -6.7659    1.0889    0.0000 O   0  0  0  0  0  0  0  0  0  0  0  0
   -7.3290    2.4792    0.0000 C   0  0  0  0  0  0  0  0  0  0  0  0
   -8.8146    2.6867    0.0000 O   0  0  0  0  0  0  0  0  0  0  0  0
   -1.1829   -2.3140    0.0000 C   0  0  0  0  0  0  0  0  0  0  0  0
   -0.4775   -3.6378    0.0000 C   0  0  0  0  0  0  0  0  0  0  0  0
    0.9995   -3.3760    0.0000 C   0  0  0  0  0  0  0  0  0  0  0  0
    1.2069   -1.8905    0.0000 C   0  0  0  0  0  0  0  0  0  0  0  0
    2.4498   -1.0506    0.0000 C   0  0  0  0  0  0  0  0  0  0  0  0
    3.7985   -1.7070    0.0000 C   0  0  0  0  0  0  0  0  0  0  0  0
    3.9045   -3.2032    0.0000 O   0  0  0  0  0  0  0  0  0  0  0  0
    5.0414   -0.8671    0.0000 C   0  0  0  0  0  0  0  0  0  0  0  0
    4.9354    0.6292    0.0000 C   0  0  0  0  0  0  0  0  0  0  0  0
    6.1782    1.4691    0.0000 C   0  0  0  0  0  0  0  0  0  0  0  0
    6.0723    2.9653    0.0000 C   0  0  0  0  0  0  0  0  0  0  0  0
    4.7235    3.6217    0.0000 C   0  0  0  0  0  0  0  0  0  0  0  0
    3.4807    2.7818    0.0000 C   0  0  0  0  0  0  0  0  0  0  0  0
    3.5866    1.2856    0.0000 C   0  0  0  0  0  0  0  0  0  0  0  0
    2.2379    1.9419    0.0000 C   0  0  0  0  0  0  0  0  0  0  0  0
    2.3438    0.4457    0.0000 C   0  0  0  0  0  0  0  0  0  0  0  0
    0.9950    1.1020    0.0000 C   0  0  0  0  0  0  0  0  0  0  0  0
   -0.2478    0.2622    0.0000 C   0  0  0  0  0  0  0  0  0  0  0  0
   -1.5965    0.9185    0.0000 O   0  0  0  0  0  0  0  0  0  0  0  0
   -0.1418   -1.2341    0.0000 C   0  0  0  0  0  0  0  0  0  0  0  0
   -1.5518   -0.7223    0.0000 C   0  0  0  0  0  0  0  0  0  0  0  0
  2  1  1  6
  2  3  1  0
  3  4  1  0
  4  5  1  0
  5  6  2  0
  5  7  1  0
  7  8  1  0
  8  9  1  0
  2 10  1  0
 10 11  1  6
 11 12  1  0
 13 12  1  6
 13 14  1  0
 14 15  1  1
 15 16  1  1
 15 17  1  0
 18 17  1  1
 18 19  1  0
 19 20  1  0
 20 21  1  0
 21 22  1  0
 22 23  1  0
 23 24  1  6
 23 25  1  0
 25 26  1  6
 26 27  1  0
 27 28  1  6
 27 29  1  0
 29 30  1  6
 29 10  1  0
 29 13  1  0
 25 14  1  0
 23 18  1  0
M  END
>  <MS_ID>  (1225) 
MS1272

>  <SMILES>  (1225) 
C[C@H](CCC(=O)OCO)[C@H]1CC[C@H]2[C@@H]3[C@H](O)C[C@@H]4CCCC[C@]4(C)[C@H]3C[C@@H](O)[C@]12C

>  <Structure_dimension>  (1225) 
2D

$$$$
MS1273
     RDKit          2D

 29 32  0  0  0  0  0  0  0  0999 V2000
   -4.6551   -2.6180    0.0000 C   0  0  0  0  0  0  0  0  0  0  0  0
   -3.5633   -1.5894    0.0000 C   0  0  0  0  0  0  0  0  0  0  0  0
   -3.9081   -0.1296    0.0000 C   0  0  0  0  0  0  0  0  0  0  0  0
   -5.3448    0.3016    0.0000 C   0  0  0  0  0  0  0  0  0  0  0  0
   -5.6897    1.7615    0.0000 C   0  0  0  0  0  0  0  0  0  0  0  0
   -4.5979    2.7900    0.0000 O   0  0  0  0  0  0  0  0  0  0  0  0
   -7.1264    2.1927    0.0000 C   0  0  0  0  0  0  0  0  0  0  0  0
   -7.4712    3.6525    0.0000 O   0  0  0  0  0  0  0  0  0  0  0  0
   -2.1266   -2.0207    0.0000 C   0  0  0  0  0  0  0  0  0  0  0  0
   -1.6310   -3.4364    0.0000 C   0  0  0  0  0  0  0  0  0  0  0  0
   -0.1314   -3.4026    0.0000 C   0  0  0  0  0  0  0  0  0  0  0  0
    0.2998   -1.9659    0.0000 C   0  0  0  0  0  0  0  0  0  0  0  0
    1.6561   -1.3251    0.0000 C   0  0  0  0  0  0  0  0  0  0  0  0
    2.8892   -2.1792    0.0000 C   0  0  0  0  0  0  0  0  0  0  0  0
    2.7660   -3.6741    0.0000 O   0  0  0  0  0  0  0  0  0  0  0  0
    4.2454   -1.5383    0.0000 C   0  0  0  0  0  0  0  0  0  0  0  0
    4.3685   -0.0434    0.0000 C   0  0  0  0  0  0  0  0  0  0  0  0
    5.7247    0.5975    0.0000 C   0  0  0  0  0  0  0  0  0  0  0  0
    5.8478    2.0924    0.0000 C   0  0  0  0  0  0  0  0  0  0  0  0
    7.2040    2.7332    0.0000 O   0  0  0  0  0  0  0  0  0  0  0  0
    4.6147    2.9465    0.0000 C   0  0  0  0  0  0  0  0  0  0  0  0
    3.2585    2.3056    0.0000 C   0  0  0  0  0  0  0  0  0  0  0  0
    3.1354    0.8107    0.0000 C   0  0  0  0  0  0  0  0  0  0  0  0
    1.9023    1.6648    0.0000 C   0  0  0  0  0  0  0  0  0  0  0  0
    1.7792    0.1699    0.0000 C   0  0  0  0  0  0  0  0  0  0  0  0
    0.5461    1.0239    0.0000 C   0  0  0  0  0  0  0  0  0  0  0  0
   -0.8101    0.3831    0.0000 C   0  0  0  0  0  0  0  0  0  0  0  0
   -0.9333   -1.1118    0.0000 C   0  0  0  0  0  0  0  0  0  0  0  0
   -2.2489   -0.3913    0.0000 C   0  0  0  0  0  0  0  0  0  0  0  0
  2  1  1  6
  2  3  1  0
  3  4  1  0
  4  5  1  0
  5  6  2  0
  5  7  1  0
  7  8  1  0
  2  9  1  0
  9 10  1  6
 10 11  1  0
 12 11  1  6
 12 13  1  0
 13 14  1  1
 14 15  1  6
 14 16  1  0
 17 16  1  1
 17 18  1  0
 18 19  1  0
 19 20  2  0
 19 21  1  0
 21 22  1  0
 22 23  1  0
 23 24  1  6
 23 25  1  0
 25 26  1  6
 26 27  1  0
 27 28  1  0
 28 29  1  6
 28  9  1  0
 28 12  1  0
 25 13  1  0
 23 17  1  0
M  END
>  <MS_ID>  (1226) 
MS1273

>  <SMILES>  (1226) 
C[C@H](CCC(=O)CO)[C@H]1CC[C@H]2[C@@H]3[C@@H](O)C[C@@H]4CC(=O)CC[C@]4(C)[C@H]3CC[C@]12C

>  <Structure_dimension>  (1226) 
2D

$$$$
MS1274
     RDKit          2D

 36 40  0  0  0  0  0  0  0  0999 V2000
   -2.3606   -3.2160    0.0000 C   0  0  0  0  0  0  0  0  0  0  0  0
   -1.3413   -2.1156    0.0000 C   0  0  0  0  0  0  0  0  0  0  0  0
   -1.7847   -0.6826    0.0000 C   0  0  0  0  0  0  0  0  0  0  0  0
   -3.2474   -0.3501    0.0000 C   0  0  0  0  0  0  0  0  0  0  0  0
   -3.6907    1.0829    0.0000 C   0  0  0  0  0  0  0  0  0  0  0  0
   -2.6714    2.1833    0.0000 O   0  0  0  0  0  0  0  0  0  0  0  0
   -5.1534    1.4154    0.0000 C   0  0  0  0  0  0  0  0  0  0  0  0
   -5.5968    2.8484    0.0000 C   0  0  0  0  0  0  0  0  0  0  0  0
   -7.0594    3.1809    0.0000 C   0  0  0  0  0  0  0  0  0  0  0  0
   -8.0788    2.0805    0.0000 C   0  0  0  0  0  0  0  0  0  0  0  0
   -7.6354    0.6475    0.0000 C   0  0  0  0  0  0  0  0  0  0  0  0
   -8.6547   -0.4530    0.0000 C   0  0  0  0  0  0  0  0  0  0  0  0
   -8.2113   -1.8859    0.0000 O   0  0  0  0  0  0  0  0  0  0  0  0
  -10.1174   -0.1204    0.0000 O   0  0  0  0  0  0  0  0  0  0  0  0
   -6.1727    0.3150    0.0000 C   0  0  0  0  0  0  0  0  0  0  0  0
    0.1214   -2.4481    0.0000 C   0  0  0  0  0  0  0  0  0  0  0  0
    0.7121   -3.8269    0.0000 C   0  0  0  0  0  0  0  0  0  0  0  0
    2.2059   -3.6912    0.0000 C   0  0  0  0  0  0  0  0  0  0  0  0
    2.5385   -2.2285    0.0000 C   0  0  0  0  0  0  0  0  0  0  0  0
    3.8479   -1.4969    0.0000 C   0  0  0  0  0  0  0  0  0  0  0  0
    5.1363   -2.2651    0.0000 C   0  0  0  0  0  0  0  0  0  0  0  0
    6.4458   -1.5335    0.0000 C   0  0  0  0  0  0  0  0  0  0  0  0
    6.4669   -0.0337    0.0000 C   0  0  0  0  0  0  0  0  0  0  0  0
    7.7764    0.6980    0.0000 C   0  0  0  0  0  0  0  0  0  0  0  0
    7.7975    2.1978    0.0000 C   0  0  0  0  0  0  0  0  0  0  0  0
    9.1070    2.9294    0.0000 O   0  0  0  0  0  0  0  0  0  0  0  0
    6.5092    2.9660    0.0000 C   0  0  0  0  0  0  0  0  0  0  0  0
    5.1997    2.2344    0.0000 C   0  0  0  0  0  0  0  0  0  0  0  0
    5.1786    0.7346    0.0000 C   0  0  0  0  0  0  0  0  0  0  0  0
    3.8902    1.5028    0.0000 C   0  0  0  0  0  0  0  0  0  0  0  0
    3.8691    0.0030    0.0000 C   0  0  0  0  0  0  0  0  0  0  0  0
    2.5808    0.7712    0.0000 C   0  0  0  0  0  0  0  0  0  0  0  0
    1.2713    0.0396    0.0000 C   0  0  0  0  0  0  0  0  0  0  0  0
   -0.0171    0.8079    0.0000 O   0  0  0  0  0  0  0  0  0  0  0  0
    1.2501   -1.4602    0.0000 C   0  0  0  0  0  0  0  0  0  0  0  0
   -0.1115   -0.8309    0.0000 C   0  0  0  0  0  0  0  0  0  0  0  0
  2  1  1  6
  2  3  1  0
  3  4  1  0
  4  5  1  0
  5  6  2  0
  5  7  1  0
  7  8  2  0
  8  9  1  0
  9 10  2  0
 10 11  1  0
 11 12  1  0
 12 13  2  0
 12 14  1  0
 11 15  2  0
  2 16  1  0
 16 17  1  6
 17 18  1  0
 19 18  1  6
 19 20  1  0
 20 21  1  1
 21 22  1  0
 23 22  1  1
 23 24  1  0
 24 25  1  0
 25 26  1  1
 25 27  1  0
 27 28  1  0
 28 29  1  0
 29 30  1  6
 29 31  1  0
 31 32  1  6
 32 33  1  0
 33 34  1  1
 33 35  1  0
 35 36  1  6
 15  7  1  0
 35 16  1  0
 35 19  1  0
 31 20  1  0
 29 23  1  0
M  END
>  <MS_ID>  (1227) 
MS1274

>  <SMILES>  (1227) 
C[C@H](CCC(=O)c1cccc(C(=O)O)c1)[C@H]1CC[C@H]2[C@@H]3CC[C@@H]4C[C@H](O)CC[C@]4(C)[C@H]3C[C@H](O)[C@]12C

>  <Structure_dimension>  (1227) 
2D

$$$$
MS1275
     RDKit          2D

 33 37  0  0  0  0  0  0  0  0999 V2000
   -2.6982   -4.1233    0.0000 C   0  0  0  0  0  0  0  0  0  0  0  0
   -1.9222   -2.8397    0.0000 C   0  0  0  0  0  0  0  0  0  0  0  0
   -2.6459   -1.5258    0.0000 C   0  0  0  0  0  0  0  0  0  0  0  0
   -4.1456   -1.4956    0.0000 C   0  0  0  0  0  0  0  0  0  0  0  0
   -4.8692   -0.1817    0.0000 C   0  0  0  0  0  0  0  0  0  0  0  0
   -4.0932    1.1020    0.0000 O   0  0  0  0  0  0  0  0  0  0  0  0
   -6.3689   -0.1514    0.0000 C   0  0  0  0  0  0  0  0  0  0  0  0
   -7.0926    1.1625    0.0000 N   0  0  0  0  0  0  0  0  0  0  0  0
   -8.5809    1.3493    0.0000 C   0  0  0  0  0  0  0  0  0  0  0  0
   -8.8631    2.8225    0.0000 N   0  0  0  0  0  0  0  0  0  0  0  0
   -7.5492    3.5462    0.0000 N   0  0  0  0  0  0  0  0  0  0  0  0
   -6.4550    2.5202    0.0000 N   0  0  0  0  0  0  0  0  0  0  0  0
   -0.4225   -2.8699    0.0000 C   0  0  0  0  0  0  0  0  0  0  0  0
    0.4345   -4.1010    0.0000 C   0  0  0  0  0  0  0  0  0  0  0  0
    1.8702   -3.6663    0.0000 C   0  0  0  0  0  0  0  0  0  0  0  0
    1.9004   -2.1666    0.0000 C   0  0  0  0  0  0  0  0  0  0  0  0
    3.0351   -1.1856    0.0000 C   0  0  0  0  0  0  0  0  0  0  0  0
    4.4521   -1.6778    0.0000 C   0  0  0  0  0  0  0  0  0  0  0  0
    4.7343   -3.1510    0.0000 O   0  0  0  0  0  0  0  0  0  0  0  0
    5.5868   -0.6967    0.0000 C   0  0  0  0  0  0  0  0  0  0  0  0
    5.3046    0.7765    0.0000 C   0  0  0  0  0  0  0  0  0  0  0  0
    6.4393    1.7575    0.0000 C   0  0  0  0  0  0  0  0  0  0  0  0
    6.1571    3.2307    0.0000 C   0  0  0  0  0  0  0  0  0  0  0  0
    7.2918    4.2117    0.0000 O   0  0  0  0  0  0  0  0  0  0  0  0
    4.7401    3.7229    0.0000 C   0  0  0  0  0  0  0  0  0  0  0  0
    3.6054    2.7419    0.0000 C   0  0  0  0  0  0  0  0  0  0  0  0
    3.8876    1.2687    0.0000 C   0  0  0  0  0  0  0  0  0  0  0  0
    2.4707    1.7609    0.0000 C   0  0  0  0  0  0  0  0  0  0  0  0
    2.7529    0.2876    0.0000 C   0  0  0  0  0  0  0  0  0  0  0  0
    1.3360    0.7798    0.0000 C   0  0  0  0  0  0  0  0  0  0  0  0
    0.2012   -0.2012    0.0000 C   0  0  0  0  0  0  0  0  0  0  0  0
    0.4835   -1.6744    0.0000 C   0  0  0  0  0  0  0  0  0  0  0  0
   -0.9772   -1.3330    0.0000 C   0  0  0  0  0  0  0  0  0  0  0  0
  2  1  1  6
  2  3  1  0
  3  4  1  0
  4  5  1  0
  5  6  2  0
  5  7  1  0
  7  8  1  0
  8  9  1  0
  9 10  2  0
 10 11  1  0
 11 12  2  0
  2 13  1  0
 13 14  1  6
 14 15  1  0
 16 15  1  6
 16 17  1  0
 17 18  1  1
 18 19  1  1
 18 20  1  0
 21 20  1  1
 21 22  1  0
 22 23  1  0
 23 24  1  1
 23 25  1  0
 25 26  1  0
 26 27  1  0
 27 28  1  6
 27 29  1  0
 29 30  1  6
 30 31  1  0
 31 32  1  0
 32 33  1  6
 12  8  1  0
 32 13  1  0
 32 16  1  0
 29 17  1  0
 27 21  1  0
M  END
>  <MS_ID>  (1228) 
MS1275

>  <SMILES>  (1228) 
C[C@H](CCC(=O)Cn1cnnn1)[C@H]1CC[C@H]2[C@@H]3[C@H](O)C[C@@H]4C[C@H](O)CC[C@]4(C)[C@H]3CC[C@]12C

>  <Structure_dimension>  (1228) 
2D

$$$$
MS1276
     RDKit          2D

 33 36  0  0  0  0  0  0  0  0999 V2000
   -9.8267   -0.0520    0.0000 C   0  0  0  0  0  0  0  0  0  0  0  0
   -8.7865    1.0287    0.0000 O   0  0  0  0  0  0  0  0  0  0  0  0
   -7.3304    0.6682    0.0000 C   0  0  0  0  0  0  0  0  0  0  0  0
   -6.2902    1.7489    0.0000 C   0  0  0  0  0  0  0  0  0  0  0  0
   -6.7061    3.1901    0.0000 C   0  0  0  0  0  0  0  0  0  0  0  0
   -4.8342    1.3885    0.0000 C   0  0  0  0  0  0  0  0  0  0  0  0
   -3.7940    2.4692    0.0000 O   0  0  0  0  0  0  0  0  0  0  0  0
   -4.4183   -0.0527    0.0000 C   0  0  0  0  0  0  0  0  0  0  0  0
   -2.9623   -0.4132    0.0000 C   0  0  0  0  0  0  0  0  0  0  0  0
   -2.5465   -1.8544    0.0000 C   0  0  0  0  0  0  0  0  0  0  0  0
   -3.5867   -2.9352    0.0000 C   0  0  0  0  0  0  0  0  0  0  0  0
   -1.0904   -2.2149    0.0000 C   0  0  0  0  0  0  0  0  0  0  0  0
   -0.5262   -3.6048    0.0000 C   0  0  0  0  0  0  0  0  0  0  0  0
    0.9700   -3.4977    0.0000 C   0  0  0  0  0  0  0  0  0  0  0  0
    1.3304   -2.0416    0.0000 C   0  0  0  0  0  0  0  0  0  0  0  0
    2.6537   -1.3352    0.0000 C   0  0  0  0  0  0  0  0  0  0  0  0
    3.9271   -2.1280    0.0000 C   0  0  0  0  0  0  0  0  0  0  0  0
    3.8772   -3.6272    0.0000 O   0  0  0  0  0  0  0  0  0  0  0  0
    5.2503   -1.4216    0.0000 C   0  0  0  0  0  0  0  0  0  0  0  0
    5.3002    0.0776    0.0000 C   0  0  0  0  0  0  0  0  0  0  0  0
    6.6235    0.7840    0.0000 C   0  0  0  0  0  0  0  0  0  0  0  0
    6.6733    2.2831    0.0000 C   0  0  0  0  0  0  0  0  0  0  0  0
    7.9966    2.9895    0.0000 O   0  0  0  0  0  0  0  0  0  0  0  0
    5.4000    3.0759    0.0000 C   0  0  0  0  0  0  0  0  0  0  0  0
    4.0767    2.3695    0.0000 C   0  0  0  0  0  0  0  0  0  0  0  0
    4.0268    0.8703    0.0000 C   0  0  0  0  0  0  0  0  0  0  0  0
    2.7534    1.6631    0.0000 C   0  0  0  0  0  0  0  0  0  0  0  0
    2.7036    0.1640    0.0000 C   0  0  0  0  0  0  0  0  0  0  0  0
    1.4302    0.9567    0.0000 C   0  0  0  0  0  0  0  0  0  0  0  0
    0.1069    0.2503    0.0000 C   0  0  0  0  0  0  0  0  0  0  0  0
   -1.1665    1.0431    0.0000 O   0  0  0  0  0  0  0  0  0  0  0  0
    0.0571   -1.2488    0.0000 C   0  0  0  0  0  0  0  0  0  0  0  0
   -1.2922   -0.5935    0.0000 C   0  0  0  0  0  0  0  0  0  0  0  0
  1  2  1  0
  2  3  1  0
  3  4  1  0
  4  5  1  1
  4  6  1  0
  6  7  2  0
  6  8  1  0
  8  9  1  0
  9 10  1  0
 10 11  1  6
 10 12  1  0
 12 13  1  6
 13 14  1  0
 15 14  1  6
 15 16  1  0
 16 17  1  1
 17 18  1  1
 17 19  1  0
 20 19  1  1
 20 21  1  0
 21 22  1  0
 22 23  1  1
 22 24  1  0
 24 25  1  0
 25 26  1  0
 26 27  1  6
 26 28  1  0
 28 29  1  6
 29 30  1  0
 30 31  1  1
 30 32  1  0
 32 33  1  6
 32 12  1  0
 32 15  1  0
 28 16  1  0
 26 20  1  0
M  END
>  <MS_ID>  (1229) 
MS1276

>  <SMILES>  (1229) 
COC[C@@H](C)C(=O)CC[C@@H](C)[C@H]1CC[C@H]2[C@@H]3[C@H](O)C[C@@H]4C[C@H](O)CC[C@]4(C)[C@H]3C[C@H](O)[C@]12C

>  <Structure_dimension>  (1229) 
2D

$$$$
MS1277
     RDKit          2D

 31 34  0  0  0  0  0  0  0  0999 V2000
   -4.2495   -2.8115    0.0000 C   0  0  0  0  0  0  0  0  0  0  0  0
   -3.1859   -1.7538    0.0000 C   0  0  0  0  0  0  0  0  0  0  0  0
   -3.5702   -0.3038    0.0000 C   0  0  0  0  0  0  0  0  0  0  0  0
   -5.0180    0.0883    0.0000 C   0  0  0  0  0  0  0  0  0  0  0  0
   -5.4023    1.5383    0.0000 C   0  0  0  0  0  0  0  0  0  0  0  0
   -4.3387    2.5960    0.0000 O   0  0  0  0  0  0  0  0  0  0  0  0
   -6.8501    1.9305    0.0000 C   0  0  0  0  0  0  0  0  0  0  0  0
   -7.9137    0.8727    0.0000 O   0  0  0  0  0  0  0  0  0  0  0  0
   -7.2344    3.3804    0.0000 O   0  0  0  0  0  0  0  0  0  0  0  0
   -1.7381   -2.1460    0.0000 C   0  0  0  0  0  0  0  0  0  0  0  0
   -1.2044   -3.5478    0.0000 C   0  0  0  0  0  0  0  0  0  0  0  0
    0.2938   -3.4734    0.0000 C   0  0  0  0  0  0  0  0  0  0  0  0
    0.6860   -2.0256    0.0000 C   0  0  0  0  0  0  0  0  0  0  0  0
    2.0243   -1.3482    0.0000 C   0  0  0  0  0  0  0  0  0  0  0  0
    3.2801   -2.1686    0.0000 C   0  0  0  0  0  0  0  0  0  0  0  0
    3.1975   -3.6663    0.0000 O   0  0  0  0  0  0  0  0  0  0  0  0
    4.6185   -1.4913    0.0000 C   0  0  0  0  0  0  0  0  0  0  0  0
    4.7010    0.0064    0.0000 C   0  0  0  0  0  0  0  0  0  0  0  0
    6.0394    0.6838    0.0000 C   0  0  0  0  0  0  0  0  0  0  0  0
    6.1220    2.1815    0.0000 C   0  0  0  0  0  0  0  0  0  0  0  0
    7.4604    2.8588    0.0000 O   0  0  0  0  0  0  0  0  0  0  0  0
    4.8662    3.0019    0.0000 C   0  0  0  0  0  0  0  0  0  0  0  0
    3.5279    2.3246    0.0000 C   0  0  0  0  0  0  0  0  0  0  0  0
    3.4453    0.8268    0.0000 C   0  0  0  0  0  0  0  0  0  0  0  0
    2.1895    1.6472    0.0000 C   0  0  0  0  0  0  0  0  0  0  0  0
    2.1069    0.1495    0.0000 C   0  0  0  0  0  0  0  0  0  0  0  0
    0.8511    0.9699    0.0000 C   0  0  0  0  0  0  0  0  0  0  0  0
   -0.4872    0.2925    0.0000 C   0  0  0  0  0  0  0  0  0  0  0  0
   -1.7430    1.1129    0.0000 O   0  0  0  0  0  0  0  0  0  0  0  0
   -0.5698   -1.2052    0.0000 C   0  0  0  0  0  0  0  0  0  0  0  0
   -1.9045   -0.5205    0.0000 C   0  0  0  0  0  0  0  0  0  0  0  0
  2  1  1  6
  2  3  1  0
  3  4  1  0
  4  5  1  0
  5  6  2  0
  5  7  1  0
  7  8  2  0
  7  9  1  0
  2 10  1  0
 10 11  1  6
 11 12  1  0
 13 12  1  6
 13 14  1  0
 14 15  1  1
 15 16  1  1
 15 17  1  0
 18 17  1  1
 18 19  1  0
 19 20  1  0
 20 21  1  1
 20 22  1  0
 22 23  1  0
 23 24  1  0
 24 25  1  6
 24 26  1  0
 26 27  1  6
 27 28  1  0
 28 29  1  6
 28 30  1  0
 30 31  1  6
 30 10  1  0
 30 13  1  0
 26 14  1  0
 24 18  1  0
M  END
>  <MS_ID>  (1230) 
MS1277

>  <SMILES>  (1230) 
C[C@H](CCC(=O)C(=O)O)[C@H]1CC[C@H]2[C@@H]3[C@H](O)C[C@@H]4C[C@H](O)CC[C@]4(C)[C@H]3C[C@@H](O)[C@]12C

>  <Structure_dimension>  (1230) 
2D

$$$$
MS1278
     RDKit          2D

 35 38  0  0  0  0  0  0  0  0999 V2000
   -7.4270   -1.7094    0.0000 C   0  0  0  0  0  0  0  0  0  0  0  0
   -6.1801   -0.8755    0.0000 C   0  0  0  0  0  0  0  0  0  0  0  0
   -6.2789    0.6212    0.0000 C   0  0  0  0  0  0  0  0  0  0  0  0
   -7.6245    1.2841    0.0000 C   0  0  0  0  0  0  0  0  0  0  0  0
   -7.7232    2.7809    0.0000 C   0  0  0  0  0  0  0  0  0  0  0  0
   -6.4764    3.6147    0.0000 O   0  0  0  0  0  0  0  0  0  0  0  0
   -9.0688    3.4437    0.0000 O   0  0  0  0  0  0  0  0  0  0  0  0
   -4.8346   -1.5384    0.0000 C   0  0  0  0  0  0  0  0  0  0  0  0
   -4.5799   -3.0166    0.0000 C   0  0  0  0  0  0  0  0  0  0  0  0
   -3.0953   -3.2312    0.0000 C   0  0  0  0  0  0  0  0  0  0  0  0
   -2.4325   -1.8856    0.0000 C   0  0  0  0  0  0  0  0  0  0  0  0
   -0.9890   -1.4778    0.0000 C   0  0  0  0  0  0  0  0  0  0  0  0
    0.0859   -2.5241    0.0000 C   0  0  0  0  0  0  0  0  0  0  0  0
   -0.2827   -3.9781    0.0000 O   0  0  0  0  0  0  0  0  0  0  0  0
    1.5294   -2.1163    0.0000 C   0  0  0  0  0  0  0  0  0  0  0  0
    1.8981   -0.6623    0.0000 C   0  0  0  0  0  0  0  0  0  0  0  0
    3.3416   -0.2545    0.0000 C   0  0  0  0  0  0  0  0  0  0  0  0
    3.7102    1.1995    0.0000 C   0  0  0  0  0  0  0  0  0  0  0  0
    5.1537    1.6072    0.0000 N   0  0  0  0  0  0  0  0  0  0  0  0
    6.2286    0.5610    0.0000 C   0  0  0  0  0  0  0  0  0  0  0  0
    5.8600   -0.8930    0.0000 O   0  0  0  0  0  0  0  0  0  0  0  0
    7.6721    0.9688    0.0000 C   0  0  0  0  0  0  0  0  0  0  0  0
    8.7470   -0.0775    0.0000 C   0  0  0  0  0  0  0  0  0  0  0  0
   10.1905    0.3303    0.0000 C   0  0  0  0  0  0  0  0  0  0  0  0
   10.5591    1.7843    0.0000 O   0  0  0  0  0  0  0  0  0  0  0  0
   11.2654   -0.7159    0.0000 O   0  0  0  0  0  0  0  0  0  0  0  0
    2.6353    2.2457    0.0000 C   0  0  0  0  0  0  0  0  0  0  0  0
    1.1918    1.8379    0.0000 C   0  0  0  0  0  0  0  0  0  0  0  0
    0.8232    0.3839    0.0000 C   0  0  0  0  0  0  0  0  0  0  0  0
   -0.2517    1.4302    0.0000 C   0  0  0  0  0  0  0  0  0  0  0  0
   -0.6203   -0.0238    0.0000 C   0  0  0  0  0  0  0  0  0  0  0  0
   -1.6952    1.0224    0.0000 C   0  0  0  0  0  0  0  0  0  0  0  0
   -3.1387    0.6146    0.0000 C   0  0  0  0  0  0  0  0  0  0  0  0
   -3.5074   -0.8394    0.0000 C   0  0  0  0  0  0  0  0  0  0  0  0
   -4.6857    0.0888    0.0000 C   0  0  0  0  0  0  0  0  0  0  0  0
  2  1  1  6
  2  3  1  0
  3  4  1  0
  4  5  1  0
  5  6  2  0
  5  7  1  0
  2  8  1  0
  8  9  1  6
  9 10  1  0
 11 10  1  6
 11 12  1  0
 12 13  1  1
 13 14  1  6
 13 15  1  0
 16 15  1  1
 16 17  1  0
 17 18  1  0
 18 19  1  1
 19 20  1  0
 20 21  2  0
 20 22  1  0
 22 23  1  0
 23 24  1  0
 24 25  2  0
 24 26  1  0
 18 27  1  0
 27 28  1  0
 28 29  1  0
 29 30  1  6
 29 31  1  0
 31 32  1  6
 32 33  1  0
 33 34  1  0
 34 35  1  6
 34  8  1  0
 34 11  1  0
 31 12  1  0
 29 16  1  0
M  END
>  <MS_ID>  (1231) 
MS1278

>  <SMILES>  (1231) 
C[C@H](CCC(=O)O)[C@H]1CC[C@H]2[C@@H]3[C@@H](O)C[C@@H]4C[C@H](NC(=O)CCC(=O)O)CC[C@]4(C)[C@H]3CC[C@]12C

>  <Structure_dimension>  (1231) 
2D

$$$$
MS1279
     RDKit          2D

 29 32  0  0  0  0  0  0  0  0999 V2000
   -4.5534   -2.6812    0.0000 C   0  0  0  0  0  0  0  0  0  0  0  0
   -3.4378   -1.6786    0.0000 C   0  0  0  0  0  0  0  0  0  0  0  0
   -3.7483   -0.2111    0.0000 C   0  0  0  0  0  0  0  0  0  0  0  0
   -5.1744    0.2538    0.0000 C   0  0  0  0  0  0  0  0  0  0  0  0
   -5.4850    1.7213    0.0000 C   0  0  0  0  0  0  0  0  0  0  0  0
   -4.3693    2.7239    0.0000 O   0  0  0  0  0  0  0  0  0  0  0  0
   -6.9111    2.1861    0.0000 C   0  0  0  0  0  0  0  0  0  0  0  0
   -7.2216    3.6536    0.0000 S   0  0  0  0  0  0  0  0  0  0  0  0
   -2.0116   -2.1434    0.0000 C   0  0  0  0  0  0  0  0  0  0  0  0
   -1.5494   -3.5704    0.0000 C   0  0  0  0  0  0  0  0  0  0  0  0
   -0.0494   -3.5718    0.0000 C   0  0  0  0  0  0  0  0  0  0  0  0
    0.4155   -2.1456    0.0000 C   0  0  0  0  0  0  0  0  0  0  0  0
    1.7863   -1.5368    0.0000 C   0  0  0  0  0  0  0  0  0  0  0  0
    2.9990   -2.4196    0.0000 C   0  0  0  0  0  0  0  0  0  0  0  0
    4.3699   -1.8107    0.0000 C   0  0  0  0  0  0  0  0  0  0  0  0
    4.5281   -0.3191    0.0000 C   0  0  0  0  0  0  0  0  0  0  0  0
    5.8990    0.2898    0.0000 C   0  0  0  0  0  0  0  0  0  0  0  0
    6.0571    1.7814    0.0000 C   0  0  0  0  0  0  0  0  0  0  0  0
    7.4280    2.3902    0.0000 O   0  0  0  0  0  0  0  0  0  0  0  0
    4.8444    2.6642    0.0000 C   0  0  0  0  0  0  0  0  0  0  0  0
    3.4735    2.0553    0.0000 C   0  0  0  0  0  0  0  0  0  0  0  0
    3.3154    0.5637    0.0000 C   0  0  0  0  0  0  0  0  0  0  0  0
    2.1026    1.4465    0.0000 C   0  0  0  0  0  0  0  0  0  0  0  0
    1.9445   -0.0451    0.0000 C   0  0  0  0  0  0  0  0  0  0  0  0
    0.7318    0.8376    0.0000 C   0  0  0  0  0  0  0  0  0  0  0  0
   -0.6391    0.2288    0.0000 C   0  0  0  0  0  0  0  0  0  0  0  0
   -1.8518    1.1116    0.0000 O   0  0  0  0  0  0  0  0  0  0  0  0
   -0.7973   -1.2628    0.0000 C   0  0  0  0  0  0  0  0  0  0  0  0
   -2.0956   -0.5116    0.0000 C   0  0  0  0  0  0  0  0  0  0  0  0
  2  1  1  6
  2  3  1  0
  3  4  1  0
  4  5  1  0
  5  6  2  0
  5  7  1  0
  7  8  1  0
  2  9  1  0
  9 10  1  6
 10 11  1  0
 12 11  1  6
 12 13  1  0
 13 14  1  1
 14 15  1  0
 16 15  1  1
 16 17  1  0
 17 18  1  0
 18 19  1  1
 18 20  1  0
 20 21  1  0
 21 22  1  0
 22 23  1  6
 22 24  1  0
 24 25  1  6
 25 26  1  0
 26 27  1  1
 26 28  1  0
 28 29  1  6
 28  9  1  0
 28 12  1  0
 24 13  1  0
 22 16  1  0
M  END
>  <MS_ID>  (1232) 
MS1279

>  <SMILES>  (1232) 
C[C@H](CCC(=O)CS)[C@H]1CC[C@H]2[C@@H]3CC[C@@H]4C[C@H](O)CC[C@]4(C)[C@H]3C[C@H](O)[C@]12C

>  <Structure_dimension>  (1232) 
2D

$$$$
MS1280
     RDKit          2D

 30 33  0  0  0  0  0  0  0  0999 V2000
   -4.1099   -3.1124    0.0000 C   0  0  0  0  0  0  0  0  0  0  0  0
   -3.1089   -1.9953    0.0000 C   0  0  0  0  0  0  0  0  0  0  0  0
   -3.5759   -0.5698    0.0000 C   0  0  0  0  0  0  0  0  0  0  0  0
   -5.0438   -0.2615    0.0000 C   0  0  0  0  0  0  0  0  0  0  0  0
   -5.5108    1.1640    0.0000 C   0  0  0  0  0  0  0  0  0  0  0  0
   -4.5097    2.2811    0.0000 O   0  0  0  0  0  0  0  0  0  0  0  0
   -6.9787    1.4724    0.0000 O   0  0  0  0  0  0  0  0  0  0  0  0
   -7.4457    2.8978    0.0000 C   0  0  0  0  0  0  0  0  0  0  0  0
   -8.9136    3.2062    0.0000 O   0  0  0  0  0  0  0  0  0  0  0  0
   -1.6409   -2.3036    0.0000 C   0  0  0  0  0  0  0  0  0  0  0  0
   -1.0276   -3.6725    0.0000 C   0  0  0  0  0  0  0  0  0  0  0  0
    0.4638   -3.5121    0.0000 C   0  0  0  0  0  0  0  0  0  0  0  0
    0.7722   -2.0441    0.0000 C   0  0  0  0  0  0  0  0  0  0  0  0
    2.0694   -1.2910    0.0000 C   0  0  0  0  0  0  0  0  0  0  0  0
    3.3703   -2.0379    0.0000 C   0  0  0  0  0  0  0  0  0  0  0  0
    3.3739   -3.5379    0.0000 O   0  0  0  0  0  0  0  0  0  0  0  0
    4.6675   -1.2848    0.0000 C   0  0  0  0  0  0  0  0  0  0  0  0
    4.6639    0.2152    0.0000 C   0  0  0  0  0  0  0  0  0  0  0  0
    5.9611    0.9683    0.0000 C   0  0  0  0  0  0  0  0  0  0  0  0
    5.9575    2.4683    0.0000 C   0  0  0  0  0  0  0  0  0  0  0  0
    7.2548    3.2214    0.0000 O   0  0  0  0  0  0  0  0  0  0  0  0
    4.6567    3.2152    0.0000 C   0  0  0  0  0  0  0  0  0  0  0  0
    3.3595    2.4621    0.0000 C   0  0  0  0  0  0  0  0  0  0  0  0
    3.3631    0.9621    0.0000 C   0  0  0  0  0  0  0  0  0  0  0  0
    2.0622    1.7090    0.0000 C   0  0  0  0  0  0  0  0  0  0  0  0
    2.0658    0.2090    0.0000 C   0  0  0  0  0  0  0  0  0  0  0  0
    0.7650    0.9559    0.0000 C   0  0  0  0  0  0  0  0  0  0  0  0
   -0.5322    0.2027    0.0000 C   0  0  0  0  0  0  0  0  0  0  0  0
   -0.5286   -1.2973    0.0000 C   0  0  0  0  0  0  0  0  0  0  0  0
   -1.9004   -0.6904    0.0000 C   0  0  0  0  0  0  0  0  0  0  0  0
  2  1  1  6
  2  3  1  0
  3  4  1  0
  4  5  1  0
  5  6  2  0
  5  7  1  0
  7  8  1  0
  8  9  1  0
  2 10  1  0
 10 11  1  6
 11 12  1  0
 13 12  1  6
 13 14  1  0
 14 15  1  1
 15 16  1  1
 15 17  1  0
 18 17  1  1
 18 19  1  0
 19 20  1  0
 20 21  2  0
 20 22  1  0
 22 23  1  0
 23 24  1  0
 24 25  1  6
 24 26  1  0
 26 27  1  6
 27 28  1  0
 28 29  1  0
 29 30  1  6
 29 10  1  0
 29 13  1  0
 26 14  1  0
 24 18  1  0
M  END
>  <MS_ID>  (1233) 
MS1280

>  <SMILES>  (1233) 
C[C@H](CCC(=O)OCO)[C@H]1CC[C@H]2[C@@H]3[C@H](O)C[C@@H]4CC(=O)CC[C@]4(C)[C@H]3CC[C@]12C

>  <Structure_dimension>  (1233) 
2D

$$$$
MS1281
     RDKit          2D

 29 32  0  0  0  0  0  0  0  0999 V2000
    5.2401    2.0328    0.0000 C   0  0  0  0  0  0  0  0  0  0  0  0
    4.0410    1.1316    0.0000 C   0  0  0  0  0  0  0  0  0  0  0  0
    4.2220   -0.3575    0.0000 C   0  0  0  0  0  0  0  0  0  0  0  0
    5.6020   -0.9453    0.0000 C   0  0  0  0  0  0  0  0  0  0  0  0
    5.7830   -2.4343    0.0000 C   0  0  0  0  0  0  0  0  0  0  0  0
    4.5839   -3.3355    0.0000 O   0  0  0  0  0  0  0  0  0  0  0  0
    7.1630   -3.0221    0.0000 O   0  0  0  0  0  0  0  0  0  0  0  0
    2.6610    1.7194    0.0000 C   0  0  0  0  0  0  0  0  0  0  0  0
    2.3254    3.1813    0.0000 C   0  0  0  0  0  0  0  0  0  0  0  0
    0.8312    3.3139    0.0000 C   0  0  0  0  0  0  0  0  0  0  0  0
    0.2434    1.9339    0.0000 C   0  0  0  0  0  0  0  0  0  0  0  0
   -1.1754    1.4473    0.0000 C   0  0  0  0  0  0  0  0  0  0  0  0
   -2.3063    2.4327    0.0000 C   0  0  0  0  0  0  0  0  0  0  0  0
   -2.0183    3.9048    0.0000 O   0  0  0  0  0  0  0  0  0  0  0  0
   -3.7252    1.9461    0.0000 C   0  0  0  0  0  0  0  0  0  0  0  0
   -4.0132    0.4740    0.0000 C   0  0  0  0  0  0  0  0  0  0  0  0
   -5.4321   -0.0126    0.0000 C   0  0  0  0  0  0  0  0  0  0  0  0
   -5.7201   -1.4846    0.0000 C   0  0  0  0  0  0  0  0  0  0  0  0
   -7.1390   -1.9713    0.0000 O   0  0  0  0  0  0  0  0  0  0  0  0
   -4.5892   -2.4701    0.0000 C   0  0  0  0  0  0  0  0  0  0  0  0
   -3.1704   -1.9835    0.0000 C   0  0  0  0  0  0  0  0  0  0  0  0
   -2.0395   -2.9690    0.0000 O   0  0  0  0  0  0  0  0  0  0  0  0
   -2.8823   -0.5114    0.0000 C   0  0  0  0  0  0  0  0  0  0  0  0
   -1.7515   -1.4969    0.0000 C   0  0  0  0  0  0  0  0  0  0  0  0
   -1.4635   -0.0248    0.0000 C   0  0  0  0  0  0  0  0  0  0  0  0
   -0.3326   -1.0103    0.0000 C   0  0  0  0  0  0  0  0  0  0  0  0
    1.0863   -0.5237    0.0000 C   0  0  0  0  0  0  0  0  0  0  0  0
    1.3743    0.9484    0.0000 C   0  0  0  0  0  0  0  0  0  0  0  0
    2.6020    0.0865    0.0000 C   0  0  0  0  0  0  0  0  0  0  0  0
  2  1  1  6
  2  3  1  0
  3  4  1  0
  4  5  1  0
  5  6  2  0
  5  7  1  0
  2  8  1  0
  8  9  1  6
  9 10  1  0
 11 10  1  6
 11 12  1  0
 12 13  1  1
 13 14  1  6
 13 15  1  0
 16 15  1  1
 16 17  1  0
 17 18  1  0
 18 19  1  1
 18 20  1  0
 20 21  1  0
 21 22  1  1
 21 23  1  0
 23 24  1  6
 23 25  1  0
 25 26  1  6
 26 27  1  0
 27 28  1  0
 28 29  1  6
 28  8  1  0
 28 11  1  0
 25 12  1  0
 23 16  1  0
M  END
>  <MS_ID>  (1234) 
MS1281

>  <SMILES>  (1234) 
C[C@H](CCC(=O)O)[C@H]1CC[C@H]2[C@@H]3[C@@H](O)C[C@@H]4C[C@H](O)C[C@H](O)[C@]4(C)[C@H]3CC[C@]12C

>  <Structure_dimension>  (1234) 
2D

$$$$
MS1283
     RDKit          2D

 39 43  0  0  0  0  0  0  0  0999 V2000
   -7.8836   -1.9888    0.0000 C   0  0  0  0  0  0  0  0  0  0  0  0
   -6.7013   -1.0656    0.0000 C   0  0  0  0  0  0  0  0  0  0  0  0
   -6.9097    0.4199    0.0000 C   0  0  0  0  0  0  0  0  0  0  0  0
   -8.3003    0.9822    0.0000 C   0  0  0  0  0  0  0  0  0  0  0  0
   -8.5087    2.4676    0.0000 C   0  0  0  0  0  0  0  0  0  0  0  0
   -7.3264    3.3908    0.0000 O   0  0  0  0  0  0  0  0  0  0  0  0
   -9.8993    3.0299    0.0000 O   0  0  0  0  0  0  0  0  0  0  0  0
   -5.3107   -1.6279    0.0000 C   0  0  0  0  0  0  0  0  0  0  0  0
   -4.9482   -3.0834    0.0000 C   0  0  0  0  0  0  0  0  0  0  0  0
   -3.4519   -3.1884    0.0000 C   0  0  0  0  0  0  0  0  0  0  0  0
   -2.8896   -1.7978    0.0000 C   0  0  0  0  0  0  0  0  0  0  0  0
   -1.4799   -1.2851    0.0000 C   0  0  0  0  0  0  0  0  0  0  0  0
   -0.3311   -2.2496    0.0000 C   0  0  0  0  0  0  0  0  0  0  0  0
   -0.5920   -3.7268    0.0000 S   0  0  0  0  0  0  0  0  0  0  0  0
    1.0786   -1.7370    0.0000 C   0  0  0  0  0  0  0  0  0  0  0  0
    1.3394   -0.2598    0.0000 C   0  0  0  0  0  0  0  0  0  0  0  0
    2.7491    0.2528    0.0000 C   0  0  0  0  0  0  0  0  0  0  0  0
    3.0100    1.7300    0.0000 C   0  0  0  0  0  0  0  0  0  0  0  0
    4.4196    2.2426    0.0000 O   0  0  0  0  0  0  0  0  0  0  0  0
    5.5685    1.2781    0.0000 C   0  0  0  0  0  0  0  0  0  0  0  0
    5.3076   -0.1990    0.0000 O   0  0  0  0  0  0  0  0  0  0  0  0
    6.4564   -1.1635    0.0000 C   0  0  0  0  0  0  0  0  0  0  0  0
    6.1955   -2.6406    0.0000 C   0  0  0  0  0  0  0  0  0  0  0  0
    4.7859   -3.1533    0.0000 O   0  0  0  0  0  0  0  0  0  0  0  0
    7.8661   -0.6508    0.0000 C   0  0  0  0  0  0  0  0  0  0  0  0
    9.0149   -1.6153    0.0000 O   0  0  0  0  0  0  0  0  0  0  0  0
    8.1269    0.8263    0.0000 C   0  0  0  0  0  0  0  0  0  0  0  0
    9.5366    1.3390    0.0000 O   0  0  0  0  0  0  0  0  0  0  0  0
    6.9781    1.7908    0.0000 C   0  0  0  0  0  0  0  0  0  0  0  0
    7.2390    3.2679    0.0000 O   0  0  0  0  0  0  0  0  0  0  0  0
    1.8612    2.6945    0.0000 C   0  0  0  0  0  0  0  0  0  0  0  0
    0.4515    2.1818    0.0000 C   0  0  0  0  0  0  0  0  0  0  0  0
    0.1906    0.7047    0.0000 C   0  0  0  0  0  0  0  0  0  0  0  0
   -0.9582    1.6691    0.0000 C   0  0  0  0  0  0  0  0  0  0  0  0
   -1.2191    0.1920    0.0000 C   0  0  0  0  0  0  0  0  0  0  0  0
   -2.3679    1.1565    0.0000 C   0  0  0  0  0  0  0  0  0  0  0  0
   -3.7775    0.6438    0.0000 C   0  0  0  0  0  0  0  0  0  0  0  0
   -4.0384   -0.8333    0.0000 C   0  0  0  0  0  0  0  0  0  0  0  0
   -5.2817    0.0058    0.0000 C   0  0  0  0  0  0  0  0  0  0  0  0
  2  1  1  6
  2  3  1  0
  3  4  1  0
  4  5  1  0
  5  6  2  0
  5  7  1  0
  2  8  1  0
  8  9  1  6
  9 10  1  0
 11 10  1  6
 11 12  1  0
 12 13  1  1
 13 14  1  1
 13 15  1  0
 16 15  1  1
 16 17  1  0
 17 18  1  0
 18 19  1  1
 20 19  1  1
 20 21  1  0
 21 22  1  0
 22 23  1  1
 23 24  1  0
 22 25  1  0
 25 26  1  6
 25 27  1  0
 27 28  1  1
 27 29  1  0
 29 30  1  6
 18 31  1  0
 31 32  1  0
 32 33  1  0
 33 34  1  6
 33 35  1  0
 35 36  1  6
 36 37  1  0
 37 38  1  0
 38 39  1  6
 38  8  1  0
 38 11  1  0
 35 12  1  0
 33 16  1  0
 29 20  1  0
M  END
>  <MS_ID>  (1235) 
MS1283

>  <SMILES>  (1235) 
C[C@H](CCC(=O)O)[C@H]1CC[C@H]2[C@@H]3[C@H](S)C[C@@H]4C[C@H](O[C@@H]5O[C@H](CO)[C@@H](O)[C@H](O)[C@H]5O)CC[C@]4(C)[C@H]3CC[C@]12C

>  <Structure_dimension>  (1235) 
2D

$$$$
MS1284
     RDKit          2D

 33 36  0  0  0  0  0  0  0  0999 V2000
   -6.7655    3.2722    0.0000 C   0  0  0  0  0  0  0  0  0  0  0  0
   -6.3625    1.8274    0.0000 C   0  0  0  0  0  0  0  0  0  0  0  0
   -7.4122    0.7559    0.0000 C   0  0  0  0  0  0  0  0  0  0  0  0
   -7.0092   -0.6889    0.0000 O   0  0  0  0  0  0  0  0  0  0  0  0
   -8.8650    1.1293    0.0000 O   0  0  0  0  0  0  0  0  0  0  0  0
   -4.9097    1.4540    0.0000 C   0  0  0  0  0  0  0  0  0  0  0  0
   -3.8599    2.5254    0.0000 O   0  0  0  0  0  0  0  0  0  0  0  0
   -4.5067    0.0091    0.0000 C   0  0  0  0  0  0  0  0  0  0  0  0
   -3.0539   -0.3643    0.0000 C   0  0  0  0  0  0  0  0  0  0  0  0
   -2.6509   -1.8091    0.0000 C   0  0  0  0  0  0  0  0  0  0  0  0
   -3.7006   -2.8806    0.0000 C   0  0  0  0  0  0  0  0  0  0  0  0
   -1.1981   -2.1825    0.0000 C   0  0  0  0  0  0  0  0  0  0  0  0
   -0.6462   -3.5773    0.0000 C   0  0  0  0  0  0  0  0  0  0  0  0
    0.8508   -3.4835    0.0000 C   0  0  0  0  0  0  0  0  0  0  0  0
    1.2242   -2.0307    0.0000 C   0  0  0  0  0  0  0  0  0  0  0  0
    2.5537   -1.3361    0.0000 C   0  0  0  0  0  0  0  0  0  0  0  0
    3.8200   -2.1402    0.0000 C   0  0  0  0  0  0  0  0  0  0  0  0
    3.7568   -3.6388    0.0000 O   0  0  0  0  0  0  0  0  0  0  0  0
    5.1495   -1.4455    0.0000 C   0  0  0  0  0  0  0  0  0  0  0  0
    5.2126    0.0531    0.0000 C   0  0  0  0  0  0  0  0  0  0  0  0
    6.5421    0.7477    0.0000 C   0  0  0  0  0  0  0  0  0  0  0  0
    6.6053    2.2464    0.0000 C   0  0  0  0  0  0  0  0  0  0  0  0
    7.9348    2.9410    0.0000 O   0  0  0  0  0  0  0  0  0  0  0  0
    5.3390    3.0505    0.0000 C   0  0  0  0  0  0  0  0  0  0  0  0
    4.0095    2.3559    0.0000 C   0  0  0  0  0  0  0  0  0  0  0  0
    3.9463    0.8572    0.0000 C   0  0  0  0  0  0  0  0  0  0  0  0
    2.6801    1.6612    0.0000 C   0  0  0  0  0  0  0  0  0  0  0  0
    2.6169    0.1626    0.0000 C   0  0  0  0  0  0  0  0  0  0  0  0
    1.3506    0.9666    0.0000 C   0  0  0  0  0  0  0  0  0  0  0  0
    0.0211    0.2720    0.0000 C   0  0  0  0  0  0  0  0  0  0  0  0
   -1.2452    1.0761    0.0000 O   0  0  0  0  0  0  0  0  0  0  0  0
   -0.0421   -1.2267    0.0000 C   0  0  0  0  0  0  0  0  0  0  0  0
   -1.3855   -0.5594    0.0000 C   0  0  0  0  0  0  0  0  0  0  0  0
  2  1  1  6
  2  3  1  0
  3  4  2  0
  3  5  1  0
  2  6  1  0
  6  7  2  0
  6  8  1  0
  8  9  1  0
  9 10  1  0
 10 11  1  6
 10 12  1  0
 12 13  1  6
 13 14  1  0
 15 14  1  6
 15 16  1  0
 16 17  1  1
 17 18  1  1
 17 19  1  0
 20 19  1  1
 20 21  1  0
 21 22  1  0
 22 23  1  1
 22 24  1  0
 24 25  1  0
 25 26  1  0
 26 27  1  6
 26 28  1  0
 28 29  1  6
 29 30  1  0
 30 31  1  1
 30 32  1  0
 32 33  1  6
 32 12  1  0
 32 15  1  0
 28 16  1  0
 26 20  1  0
M  END
>  <MS_ID>  (1236) 
MS1284

>  <SMILES>  (1236) 
C[C@@H](C(=O)O)C(=O)CC[C@@H](C)[C@H]1CC[C@H]2[C@@H]3[C@H](O)C[C@@H]4C[C@H](O)CC[C@]4(C)[C@H]3C[C@H](O)[C@]12C

>  <Structure_dimension>  (1236) 
2D

$$$$
MS1285
     RDKit          2D

 39 43  0  0  0  0  0  0  0  0999 V2000
   -7.8836   -1.9888    0.0000 C   0  0  0  0  0  0  0  0  0  0  0  0
   -6.7013   -1.0656    0.0000 C   0  0  0  0  0  0  0  0  0  0  0  0
   -6.9097    0.4199    0.0000 C   0  0  0  0  0  0  0  0  0  0  0  0
   -8.3003    0.9822    0.0000 C   0  0  0  0  0  0  0  0  0  0  0  0
   -8.5087    2.4676    0.0000 C   0  0  0  0  0  0  0  0  0  0  0  0
   -7.3264    3.3908    0.0000 O   0  0  0  0  0  0  0  0  0  0  0  0
   -9.8993    3.0299    0.0000 O   0  0  0  0  0  0  0  0  0  0  0  0
   -5.3107   -1.6279    0.0000 C   0  0  0  0  0  0  0  0  0  0  0  0
   -4.9482   -3.0834    0.0000 C   0  0  0  0  0  0  0  0  0  0  0  0
   -3.4519   -3.1884    0.0000 C   0  0  0  0  0  0  0  0  0  0  0  0
   -2.8896   -1.7978    0.0000 C   0  0  0  0  0  0  0  0  0  0  0  0
   -1.4799   -1.2851    0.0000 C   0  0  0  0  0  0  0  0  0  0  0  0
   -0.3311   -2.2496    0.0000 C   0  0  0  0  0  0  0  0  0  0  0  0
   -0.5920   -3.7268    0.0000 O   0  0  0  0  0  0  0  0  0  0  0  0
    1.0786   -1.7370    0.0000 C   0  0  0  0  0  0  0  0  0  0  0  0
    1.3394   -0.2598    0.0000 C   0  0  0  0  0  0  0  0  0  0  0  0
    2.7491    0.2528    0.0000 C   0  0  0  0  0  0  0  0  0  0  0  0
    3.0100    1.7300    0.0000 C   0  0  0  0  0  0  0  0  0  0  0  0
    4.4196    2.2426    0.0000 O   0  0  0  0  0  0  0  0  0  0  0  0
    5.5685    1.2781    0.0000 C   0  0  0  0  0  0  0  0  0  0  0  0
    5.3076   -0.1990    0.0000 O   0  0  0  0  0  0  0  0  0  0  0  0
    6.4564   -1.1635    0.0000 C   0  0  0  0  0  0  0  0  0  0  0  0
    6.1955   -2.6406    0.0000 C   0  0  0  0  0  0  0  0  0  0  0  0
    4.7859   -3.1533    0.0000 F   0  0  0  0  0  0  0  0  0  0  0  0
    7.8661   -0.6508    0.0000 C   0  0  0  0  0  0  0  0  0  0  0  0
    9.0149   -1.6153    0.0000 O   0  0  0  0  0  0  0  0  0  0  0  0
    8.1269    0.8263    0.0000 C   0  0  0  0  0  0  0  0  0  0  0  0
    9.5366    1.3390    0.0000 O   0  0  0  0  0  0  0  0  0  0  0  0
    6.9781    1.7908    0.0000 C   0  0  0  0  0  0  0  0  0  0  0  0
    7.2390    3.2679    0.0000 O   0  0  0  0  0  0  0  0  0  0  0  0
    1.8612    2.6945    0.0000 C   0  0  0  0  0  0  0  0  0  0  0  0
    0.4515    2.1818    0.0000 C   0  0  0  0  0  0  0  0  0  0  0  0
    0.1906    0.7047    0.0000 C   0  0  0  0  0  0  0  0  0  0  0  0
   -0.9582    1.6691    0.0000 C   0  0  0  0  0  0  0  0  0  0  0  0
   -1.2191    0.1920    0.0000 C   0  0  0  0  0  0  0  0  0  0  0  0
   -2.3679    1.1565    0.0000 C   0  0  0  0  0  0  0  0  0  0  0  0
   -3.7775    0.6438    0.0000 C   0  0  0  0  0  0  0  0  0  0  0  0
   -4.0384   -0.8333    0.0000 C   0  0  0  0  0  0  0  0  0  0  0  0
   -5.2817    0.0058    0.0000 C   0  0  0  0  0  0  0  0  0  0  0  0
  2  1  1  6
  2  3  1  0
  3  4  1  0
  4  5  1  0
  5  6  2  0
  5  7  1  0
  2  8  1  0
  8  9  1  6
  9 10  1  0
 11 10  1  6
 11 12  1  0
 12 13  1  1
 13 14  1  6
 13 15  1  0
 16 15  1  1
 16 17  1  0
 17 18  1  0
 18 19  1  1
 20 19  1  1
 20 21  1  0
 21 22  1  0
 22 23  1  1
 23 24  1  0
 22 25  1  0
 25 26  1  6
 25 27  1  0
 27 28  1  1
 27 29  1  0
 29 30  1  6
 18 31  1  0
 31 32  1  0
 32 33  1  0
 33 34  1  6
 33 35  1  0
 35 36  1  6
 36 37  1  0
 37 38  1  0
 38 39  1  6
 38  8  1  0
 38 11  1  0
 35 12  1  0
 33 16  1  0
 29 20  1  0
M  END
>  <MS_ID>  (1237) 
MS1285

>  <SMILES>  (1237) 
C[C@H](CCC(=O)O)[C@H]1CC[C@H]2[C@@H]3[C@@H](O)C[C@@H]4C[C@H](O[C@@H]5O[C@H](CF)[C@@H](O)[C@H](O)[C@H]5O)CC[C@]4(C)[C@H]3CC[C@]12C

>  <Structure_dimension>  (1237) 
2D

$$$$
MS1286
     RDKit          2D

 37 41  0  0  0  0  0  0  0  0999 V2000
   -0.9887   -4.6220    0.0000 C   0  0  0  0  0  0  0  0  0  0  0  0
   -0.3294   -3.2747    0.0000 C   0  0  0  0  0  0  0  0  0  0  0  0
   -1.1665   -2.0300    0.0000 C   0  0  0  0  0  0  0  0  0  0  0  0
   -2.6630   -2.1327    0.0000 C   0  0  0  0  0  0  0  0  0  0  0  0
   -3.5002   -0.8881    0.0000 C   0  0  0  0  0  0  0  0  0  0  0  0
   -2.8409    0.4593    0.0000 O   0  0  0  0  0  0  0  0  0  0  0  0
   -4.9967   -0.9907    0.0000 N   0  0  0  0  0  0  0  0  0  0  0  0
   -5.8338    0.2539    0.0000 C   0  0  0  0  0  0  0  0  0  0  0  0
   -5.1745    1.6013    0.0000 C   0  0  0  0  0  0  0  0  0  0  0  0
   -6.0117    2.8459    0.0000 C   0  0  0  0  0  0  0  0  0  0  0  0
   -7.5082    2.7432    0.0000 C   0  0  0  0  0  0  0  0  0  0  0  0
   -8.1675    1.3959    0.0000 C   0  0  0  0  0  0  0  0  0  0  0  0
   -9.6640    1.2932    0.0000 C   0  0  0  0  0  0  0  0  0  0  0  0
  -10.3233   -0.0541    0.0000 O   0  0  0  0  0  0  0  0  0  0  0  0
  -10.5011    2.5379    0.0000 O   0  0  0  0  0  0  0  0  0  0  0  0
   -7.3303    0.1512    0.0000 C   0  0  0  0  0  0  0  0  0  0  0  0
    1.1671   -3.1720    0.0000 C   0  0  0  0  0  0  0  0  0  0  0  0
    2.1298   -4.3223    0.0000 C   0  0  0  0  0  0  0  0  0  0  0  0
    3.5213   -3.7622    0.0000 C   0  0  0  0  0  0  0  0  0  0  0  0
    3.4186   -2.2658    0.0000 C   0  0  0  0  0  0  0  0  0  0  0  0
    4.4620   -1.1881    0.0000 C   0  0  0  0  0  0  0  0  0  0  0  0
    5.9170   -1.5529    0.0000 C   0  0  0  0  0  0  0  0  0  0  0  0
    6.9604   -0.4753    0.0000 C   0  0  0  0  0  0  0  0  0  0  0  0
    6.5488    0.9672    0.0000 C   0  0  0  0  0  0  0  0  0  0  0  0
    7.5922    2.0448    0.0000 C   0  0  0  0  0  0  0  0  0  0  0  0
    7.1806    3.4873    0.0000 C   0  0  0  0  0  0  0  0  0  0  0  0
    8.2240    4.5649    0.0000 O   0  0  0  0  0  0  0  0  0  0  0  0
    5.7257    3.8520    0.0000 C   0  0  0  0  0  0  0  0  0  0  0  0
    4.6823    2.7744    0.0000 C   0  0  0  0  0  0  0  0  0  0  0  0
    5.0938    1.3320    0.0000 C   0  0  0  0  0  0  0  0  0  0  0  0
    3.6389    1.6967    0.0000 C   0  0  0  0  0  0  0  0  0  0  0  0
    4.0504    0.2543    0.0000 C   0  0  0  0  0  0  0  0  0  0  0  0
    2.5955    0.6191    0.0000 C   0  0  0  0  0  0  0  0  0  0  0  0
    1.5521   -0.4585    0.0000 C   0  0  0  0  0  0  0  0  0  0  0  0
    0.0971   -0.0938    0.0000 O   0  0  0  0  0  0  0  0  0  0  0  0
    1.9636   -1.9010    0.0000 C   0  0  0  0  0  0  0  0  0  0  0  0
    0.4785   -1.6903    0.0000 C   0  0  0  0  0  0  0  0  0  0  0  0
  2  1  1  6
  2  3  1  0
  3  4  1  0
  4  5  1  0
  5  6  2  0
  5  7  1  0
  7  8  1  0
  8  9  2  0
  9 10  1  0
 10 11  2  0
 11 12  1  0
 12 13  1  0
 13 14  2  0
 13 15  1  0
 12 16  2  0
  2 17  1  0
 17 18  1  6
 18 19  1  0
 20 19  1  6
 20 21  1  0
 21 22  1  1
 22 23  1  0
 24 23  1  1
 24 25  1  0
 25 26  1  0
 26 27  1  1
 26 28  1  0
 28 29  1  0
 29 30  1  0
 30 31  1  6
 30 32  1  0
 32 33  1  6
 33 34  1  0
 34 35  1  1
 34 36  1  0
 36 37  1  6
 16  8  1  0
 36 17  1  0
 36 20  1  0
 32 21  1  0
 30 24  1  0
M  END
>  <MS_ID>  (1238) 
MS1286

>  <SMILES>  (1238) 
C[C@H](CCC(=O)Nc1cccc(C(=O)O)c1)[C@H]1CC[C@H]2[C@@H]3CC[C@@H]4C[C@H](O)CC[C@]4(C)[C@H]3C[C@H](O)[C@]12C

>  <Structure_dimension>  (1238) 
2D

$$$$
MS1287
     RDKit          2D

 32 35  0  0  0  0  0  0  0  0999 V2000
   -3.2905   -3.6805    0.0000 C   0  0  0  0  0  0  0  0  0  0  0  0
   -2.3609   -2.5033    0.0000 C   0  0  0  0  0  0  0  0  0  0  0  0
   -2.9157   -1.1096    0.0000 C   0  0  0  0  0  0  0  0  0  0  0  0
   -4.4000   -0.8932    0.0000 C   0  0  0  0  0  0  0  0  0  0  0  0
   -4.9547    0.5004    0.0000 C   0  0  0  0  0  0  0  0  0  0  0  0
   -4.0251    1.6776    0.0000 O   0  0  0  0  0  0  0  0  0  0  0  0
   -6.4390    0.7168    0.0000 N   0  0  0  0  0  0  0  0  0  0  0  0
   -6.9938    2.1105    0.0000 C   0  0  0  0  0  0  0  0  0  0  0  0
   -5.6001    2.6652    0.0000 C   0  0  0  0  0  0  0  0  0  0  0  0
   -8.3874    1.5557    0.0000 C   0  0  0  0  0  0  0  0  0  0  0  0
   -7.5485    3.5041    0.0000 O   0  0  0  0  0  0  0  0  0  0  0  0
   -0.8766   -2.7197    0.0000 C   0  0  0  0  0  0  0  0  0  0  0  0
   -0.1792   -4.0477    0.0000 C   0  0  0  0  0  0  0  0  0  0  0  0
    1.2993   -3.7949    0.0000 C   0  0  0  0  0  0  0  0  0  0  0  0
    1.5157   -2.3106    0.0000 C   0  0  0  0  0  0  0  0  0  0  0  0
    2.7636   -1.4782    0.0000 C   0  0  0  0  0  0  0  0  0  0  0  0
    4.1084   -2.1427    0.0000 C   0  0  0  0  0  0  0  0  0  0  0  0
    5.3562   -1.3103    0.0000 C   0  0  0  0  0  0  0  0  0  0  0  0
    5.2593    0.1866    0.0000 C   0  0  0  0  0  0  0  0  0  0  0  0
    6.5071    1.0189    0.0000 C   0  0  0  0  0  0  0  0  0  0  0  0
    6.4102    2.5158    0.0000 C   0  0  0  0  0  0  0  0  0  0  0  0
    7.6581    3.3482    0.0000 O   0  0  0  0  0  0  0  0  0  0  0  0
    5.0654    3.1803    0.0000 C   0  0  0  0  0  0  0  0  0  0  0  0
    3.8176    2.3479    0.0000 C   0  0  0  0  0  0  0  0  0  0  0  0
    3.9145    0.8511    0.0000 C   0  0  0  0  0  0  0  0  0  0  0  0
    2.5697    1.5155    0.0000 C   0  0  0  0  0  0  0  0  0  0  0  0
    2.6666    0.0187    0.0000 C   0  0  0  0  0  0  0  0  0  0  0  0
    1.3218    0.6832    0.0000 C   0  0  0  0  0  0  0  0  0  0  0  0
    0.0740   -0.1492    0.0000 C   0  0  0  0  0  0  0  0  0  0  0  0
   -1.2708    0.5153    0.0000 O   0  0  0  0  0  0  0  0  0  0  0  0
    0.1709   -1.6461    0.0000 C   0  0  0  0  0  0  0  0  0  0  0  0
   -1.2360   -1.1258    0.0000 C   0  0  0  0  0  0  0  0  0  0  0  0
  2  1  1  6
  2  3  1  0
  3  4  1  0
  4  5  1  0
  5  6  2  0
  5  7  1  0
  7  8  1  0
  8  9  1  0
  8 10  1  0
  8 11  1  0
  2 12  1  0
 12 13  1  6
 13 14  1  0
 15 14  1  6
 15 16  1  0
 16 17  1  1
 17 18  1  0
 19 18  1  1
 19 20  1  0
 20 21  1  0
 21 22  1  1
 21 23  1  0
 23 24  1  0
 24 25  1  0
 25 26  1  6
 25 27  1  0
 27 28  1  6
 28 29  1  0
 29 30  1  1
 29 31  1  0
 31 32  1  6
 31 12  1  0
 31 15  1  0
 27 16  1  0
 25 19  1  0
M  END
>  <MS_ID>  (1239) 
MS1287

>  <SMILES>  (1239) 
C[C@H](CCC(=O)NC(C)(C)O)[C@H]1CC[C@H]2[C@@H]3CC[C@@H]4C[C@H](O)CC[C@]4(C)[C@H]3C[C@H](O)[C@]12C

>  <Structure_dimension>  (1239) 
2D

$$$$
MS1288
     RDKit          2D

 32 35  0  0  0  0  0  0  0  0999 V2000
   -2.9090   -3.9078    0.0000 C   0  0  0  0  0  0  0  0  0  0  0  0
   -2.0926   -2.6494    0.0000 C   0  0  0  0  0  0  0  0  0  0  0  0
   -2.7741   -1.3132    0.0000 C   0  0  0  0  0  0  0  0  0  0  0  0
   -4.2721   -1.2353    0.0000 C   0  0  0  0  0  0  0  0  0  0  0  0
   -4.9536    0.1009    0.0000 C   0  0  0  0  0  0  0  0  0  0  0  0
   -4.1372    1.3592    0.0000 O   0  0  0  0  0  0  0  0  0  0  0  0
   -6.4516    0.1788    0.0000 C   0  0  0  0  0  0  0  0  0  0  0  0
   -7.1332    1.5150    0.0000 C   0  0  0  0  0  0  0  0  0  0  0  0
   -8.6311    1.5929    0.0000 C   0  0  0  0  0  0  0  0  0  0  0  0
   -9.3127    2.9291    0.0000 C   0  0  0  0  0  0  0  0  0  0  0  0
  -10.8107    3.0070    0.0000 N   0  0  0  0  0  0  0  0  0  0  0  0
   -0.5946   -2.7273    0.0000 C   0  0  0  0  0  0  0  0  0  0  0  0
    0.2229   -3.9850    0.0000 C   0  0  0  0  0  0  0  0  0  0  0  0
    1.6716   -3.5962    0.0000 C   0  0  0  0  0  0  0  0  0  0  0  0
    1.7495   -2.0982    0.0000 C   0  0  0  0  0  0  0  0  0  0  0  0
    2.9148   -1.1537    0.0000 C   0  0  0  0  0  0  0  0  0  0  0  0
    4.3154   -1.6907    0.0000 C   0  0  0  0  0  0  0  0  0  0  0  0
    4.5507   -3.1721    0.0000 O   0  0  0  0  0  0  0  0  0  0  0  0
    5.4807   -0.7462    0.0000 C   0  0  0  0  0  0  0  0  0  0  0  0
    5.2455    0.7352    0.0000 C   0  0  0  0  0  0  0  0  0  0  0  0
    6.4108    1.6797    0.0000 C   0  0  0  0  0  0  0  0  0  0  0  0
    6.1755    3.1611    0.0000 C   0  0  0  0  0  0  0  0  0  0  0  0
    7.3408    4.1056    0.0000 O   0  0  0  0  0  0  0  0  0  0  0  0
    4.7749    3.6981    0.0000 C   0  0  0  0  0  0  0  0  0  0  0  0
    3.6096    2.7536    0.0000 C   0  0  0  0  0  0  0  0  0  0  0  0
    3.8449    1.2722    0.0000 C   0  0  0  0  0  0  0  0  0  0  0  0
    2.4443    1.8091    0.0000 C   0  0  0  0  0  0  0  0  0  0  0  0
    2.6795    0.3277    0.0000 C   0  0  0  0  0  0  0  0  0  0  0  0
    1.2789    0.8647    0.0000 C   0  0  0  0  0  0  0  0  0  0  0  0
    0.1136   -0.0798    0.0000 C   0  0  0  0  0  0  0  0  0  0  0  0
    0.3489   -1.5612    0.0000 C   0  0  0  0  0  0  0  0  0  0  0  0
   -1.1002   -1.1736    0.0000 C   0  0  0  0  0  0  0  0  0  0  0  0
  2  1  1  6
  2  3  1  0
  3  4  1  0
  4  5  1  0
  5  6  2  0
  5  7  1  0
  7  8  1  0
  8  9  1  0
  9 10  1  0
 10 11  1  0
  2 12  1  0
 12 13  1  6
 13 14  1  0
 15 14  1  6
 15 16  1  0
 16 17  1  1
 17 18  1  1
 17 19  1  0
 20 19  1  1
 20 21  1  0
 21 22  1  0
 22 23  1  1
 22 24  1  0
 24 25  1  0
 25 26  1  0
 26 27  1  6
 26 28  1  0
 28 29  1  6
 29 30  1  0
 30 31  1  0
 31 32  1  6
 31 12  1  0
 31 15  1  0
 28 16  1  0
 26 20  1  0
M  END
>  <MS_ID>  (1240) 
MS1288

>  <SMILES>  (1240) 
C[C@H](CCC(=O)CCCCN)[C@H]1CC[C@H]2[C@@H]3[C@H](O)C[C@@H]4C[C@H](O)CC[C@]4(C)[C@H]3CC[C@]12C

>  <Structure_dimension>  (1240) 
2D

$$$$
MS1289
     RDKit          2D

 33 36  0  0  0  0  0  0  0  0999 V2000
   -8.6905    1.4878    0.0000 C   0  0  0  0  0  0  0  0  0  0  0  0
   -7.1926    1.4090    0.0000 C   0  0  0  0  0  0  0  0  0  0  0  0
   -6.5119    0.0724    0.0000 O   0  0  0  0  0  0  0  0  0  0  0  0
   -5.0139   -0.0064    0.0000 C   0  0  0  0  0  0  0  0  0  0  0  0
   -4.1967    1.2514    0.0000 O   0  0  0  0  0  0  0  0  0  0  0  0
   -4.3332   -1.3431    0.0000 C   0  0  0  0  0  0  0  0  0  0  0  0
   -2.8353   -1.4219    0.0000 C   0  0  0  0  0  0  0  0  0  0  0  0
   -2.1546   -2.7585    0.0000 C   0  0  0  0  0  0  0  0  0  0  0  0
   -2.9718   -4.0164    0.0000 C   0  0  0  0  0  0  0  0  0  0  0  0
   -0.6566   -2.8373    0.0000 C   0  0  0  0  0  0  0  0  0  0  0  0
    0.1601   -4.0955    0.0000 C   0  0  0  0  0  0  0  0  0  0  0  0
    1.6091   -3.7075    0.0000 C   0  0  0  0  0  0  0  0  0  0  0  0
    1.6878   -2.2096    0.0000 C   0  0  0  0  0  0  0  0  0  0  0  0
    2.8537   -1.2658    0.0000 C   0  0  0  0  0  0  0  0  0  0  0  0
    4.2540   -1.8037    0.0000 C   0  0  0  0  0  0  0  0  0  0  0  0
    4.4884   -3.2852    0.0000 O   0  0  0  0  0  0  0  0  0  0  0  0
    5.4199   -0.8599    0.0000 C   0  0  0  0  0  0  0  0  0  0  0  0
    5.1855    0.6217    0.0000 C   0  0  0  0  0  0  0  0  0  0  0  0
    6.3514    1.5654    0.0000 C   0  0  0  0  0  0  0  0  0  0  0  0
    6.1171    3.0470    0.0000 C   0  0  0  0  0  0  0  0  0  0  0  0
    7.2830    3.9908    0.0000 O   0  0  0  0  0  0  0  0  0  0  0  0
    4.7168    3.5848    0.0000 C   0  0  0  0  0  0  0  0  0  0  0  0
    3.5509    2.6411    0.0000 C   0  0  0  0  0  0  0  0  0  0  0  0
    3.7853    1.1595    0.0000 C   0  0  0  0  0  0  0  0  0  0  0  0
    2.3850    1.6973    0.0000 C   0  0  0  0  0  0  0  0  0  0  0  0
    2.6194    0.2157    0.0000 C   0  0  0  0  0  0  0  0  0  0  0  0
    1.2191    0.7536    0.0000 C   0  0  0  0  0  0  0  0  0  0  0  0
    0.0532   -0.1902    0.0000 C   0  0  0  0  0  0  0  0  0  0  0  0
    0.2876   -1.6718    0.0000 C   0  0  0  0  0  0  0  0  0  0  0  0
   -1.1612   -1.2833    0.0000 C   0  0  0  0  0  0  0  0  0  0  0  0
   -6.3754    2.6668    0.0000 C   0  0  0  0  0  0  0  0  0  0  0  0
   -4.8775    2.5881    0.0000 O   0  0  0  0  0  0  0  0  0  0  0  0
   -7.0561    4.0035    0.0000 O   0  0  0  0  0  0  0  0  0  0  0  0
  2  1  1  1
  2  3  1  0
  3  4  1  0
  4  5  2  0
  4  6  1  0
  6  7  1  0
  7  8  1  0
  8  9  1  6
  8 10  1  0
 10 11  1  6
 11 12  1  0
 13 12  1  6
 13 14  1  0
 14 15  1  1
 15 16  1  1
 15 17  1  0
 18 17  1  1
 18 19  1  0
 19 20  1  0
 20 21  1  1
 20 22  1  0
 22 23  1  0
 23 24  1  0
 24 25  1  6
 24 26  1  0
 26 27  1  6
 27 28  1  0
 28 29  1  0
 29 30  1  6
  2 31  1  0
 31 32  2  0
 31 33  1  0
 29 10  1  0
 29 13  1  0
 26 14  1  0
 24 18  1  0
M  END
>  <MS_ID>  (1241) 
MS1289

>  <SMILES>  (1241) 
C[C@H](OC(=O)CC[C@@H](C)[C@H]1CC[C@H]2[C@@H]3[C@H](O)C[C@@H]4C[C@H](O)CC[C@]4(C)[C@H]3CC[C@]12C)C(=O)O

>  <Structure_dimension>  (1241) 
2D

$$$$
MS1290
     RDKit          2D

 31 34  0  0  0  0  0  0  0  0999 V2000
   -3.1892   -3.5907    0.0000 C   0  0  0  0  0  0  0  0  0  0  0  0
   -2.3340   -2.3584    0.0000 C   0  0  0  0  0  0  0  0  0  0  0  0
   -2.9737   -1.0016    0.0000 C   0  0  0  0  0  0  0  0  0  0  0  0
   -4.4686   -0.8772    0.0000 C   0  0  0  0  0  0  0  0  0  0  0  0
   -5.1083    0.4795    0.0000 C   0  0  0  0  0  0  0  0  0  0  0  0
   -4.2531    1.7119    0.0000 O   0  0  0  0  0  0  0  0  0  0  0  0
   -6.6031    0.6039    0.0000 C   0  0  0  0  0  0  0  0  0  0  0  0
   -7.2428    1.9607    0.0000 C   0  0  0  0  0  0  0  0  0  0  0  0
   -6.3877    3.1931    0.0000 O   0  0  0  0  0  0  0  0  0  0  0  0
   -8.7376    2.0851    0.0000 O   0  0  0  0  0  0  0  0  0  0  0  0
   -0.8392   -2.4827    0.0000 C   0  0  0  0  0  0  0  0  0  0  0  0
   -0.0612   -3.7652    0.0000 C   0  0  0  0  0  0  0  0  0  0  0  0
    1.3989   -3.4216    0.0000 C   0  0  0  0  0  0  0  0  0  0  0  0
    1.5233   -1.9267    0.0000 C   0  0  0  0  0  0  0  0  0  0  0  0
    2.7174   -1.0189    0.0000 C   0  0  0  0  0  0  0  0  0  0  0  0
    4.1006   -1.5992    0.0000 C   0  0  0  0  0  0  0  0  0  0  0  0
    4.2898   -3.0872    0.0000 O   0  0  0  0  0  0  0  0  0  0  0  0
    5.2947   -0.6914    0.0000 C   0  0  0  0  0  0  0  0  0  0  0  0
    5.1056    0.7967    0.0000 C   0  0  0  0  0  0  0  0  0  0  0  0
    6.2997    1.7045    0.0000 C   0  0  0  0  0  0  0  0  0  0  0  0
    6.1106    3.1925    0.0000 C   0  0  0  0  0  0  0  0  0  0  0  0
    4.7274    3.7727    0.0000 C   0  0  0  0  0  0  0  0  0  0  0  0
    3.5333    2.8649    0.0000 C   0  0  0  0  0  0  0  0  0  0  0  0
    3.7224    1.3769    0.0000 C   0  0  0  0  0  0  0  0  0  0  0  0
    2.3391    1.9571    0.0000 C   0  0  0  0  0  0  0  0  0  0  0  0
    2.5283    0.4691    0.0000 C   0  0  0  0  0  0  0  0  0  0  0  0
    1.1450    1.0493    0.0000 C   0  0  0  0  0  0  0  0  0  0  0  0
   -0.0491    0.1415    0.0000 C   0  0  0  0  0  0  0  0  0  0  0  0
   -1.4323    0.7218    0.0000 O   0  0  0  0  0  0  0  0  0  0  0  0
    0.1401   -1.3465    0.0000 C   0  0  0  0  0  0  0  0  0  0  0  0
   -1.2962   -0.9140    0.0000 C   0  0  0  0  0  0  0  0  0  0  0  0
  2  1  1  6
  2  3  1  0
  3  4  1  0
  4  5  1  0
  5  6  2  0
  5  7  1  0
  7  8  1  0
  8  9  2  0
  8 10  1  0
  2 11  1  0
 11 12  1  6
 12 13  1  0
 14 13  1  6
 14 15  1  0
 15 16  1  1
 16 17  1  1
 16 18  1  0
 19 18  1  1
 19 20  1  0
 20 21  1  0
 21 22  1  0
 22 23  1  0
 23 24  1  0
 24 25  1  6
 24 26  1  0
 26 27  1  6
 27 28  1  0
 28 29  1  6
 28 30  1  0
 30 31  1  6
 30 11  1  0
 30 14  1  0
 26 15  1  0
 24 19  1  0
M  END
>  <MS_ID>  (1242) 
MS1290

>  <SMILES>  (1242) 
C[C@H](CCC(=O)CC(=O)O)[C@H]1CC[C@H]2[C@@H]3[C@H](O)C[C@@H]4CCCC[C@]4(C)[C@H]3C[C@@H](O)[C@]12C

>  <Structure_dimension>  (1242) 
2D

$$$$
MS1291
     RDKit          2D

 29 32  0  0  0  0  0  0  0  0999 V2000
   -4.6551   -2.6180    0.0000 C   0  0  0  0  0  0  0  0  0  0  0  0
   -3.5633   -1.5894    0.0000 C   0  0  0  0  0  0  0  0  0  0  0  0
   -3.9081   -0.1296    0.0000 C   0  0  0  0  0  0  0  0  0  0  0  0
   -5.3448    0.3016    0.0000 C   0  0  0  0  0  0  0  0  0  0  0  0
   -5.6897    1.7615    0.0000 C   0  0  0  0  0  0  0  0  0  0  0  0
   -4.5979    2.7900    0.0000 O   0  0  0  0  0  0  0  0  0  0  0  0
   -7.1264    2.1927    0.0000 N   0  0  0  0  0  0  0  0  0  0  0  0
   -7.4712    3.6525    0.0000 N   0  0  0  0  0  0  0  0  0  0  0  0
   -2.1266   -2.0207    0.0000 C   0  0  0  0  0  0  0  0  0  0  0  0
   -1.6310   -3.4364    0.0000 C   0  0  0  0  0  0  0  0  0  0  0  0
   -0.1314   -3.4026    0.0000 C   0  0  0  0  0  0  0  0  0  0  0  0
    0.2998   -1.9659    0.0000 C   0  0  0  0  0  0  0  0  0  0  0  0
    1.6561   -1.3251    0.0000 C   0  0  0  0  0  0  0  0  0  0  0  0
    2.8892   -2.1792    0.0000 C   0  0  0  0  0  0  0  0  0  0  0  0
    2.7660   -3.6741    0.0000 O   0  0  0  0  0  0  0  0  0  0  0  0
    4.2454   -1.5383    0.0000 C   0  0  0  0  0  0  0  0  0  0  0  0
    4.3685   -0.0434    0.0000 C   0  0  0  0  0  0  0  0  0  0  0  0
    5.7247    0.5975    0.0000 C   0  0  0  0  0  0  0  0  0  0  0  0
    5.8478    2.0924    0.0000 C   0  0  0  0  0  0  0  0  0  0  0  0
    7.2040    2.7332    0.0000 O   0  0  0  0  0  0  0  0  0  0  0  0
    4.6147    2.9465    0.0000 C   0  0  0  0  0  0  0  0  0  0  0  0
    3.2585    2.3056    0.0000 C   0  0  0  0  0  0  0  0  0  0  0  0
    3.1354    0.8107    0.0000 C   0  0  0  0  0  0  0  0  0  0  0  0
    1.9023    1.6648    0.0000 C   0  0  0  0  0  0  0  0  0  0  0  0
    1.7792    0.1699    0.0000 C   0  0  0  0  0  0  0  0  0  0  0  0
    0.5461    1.0239    0.0000 C   0  0  0  0  0  0  0  0  0  0  0  0
   -0.8101    0.3831    0.0000 C   0  0  0  0  0  0  0  0  0  0  0  0
   -0.9333   -1.1118    0.0000 C   0  0  0  0  0  0  0  0  0  0  0  0
   -2.2489   -0.3913    0.0000 C   0  0  0  0  0  0  0  0  0  0  0  0
  2  1  1  6
  2  3  1  0
  3  4  1  0
  4  5  1  0
  5  6  2  0
  5  7  1  0
  7  8  1  0
  2  9  1  0
  9 10  1  6
 10 11  1  0
 12 11  1  6
 12 13  1  0
 13 14  1  1
 14 15  1  6
 14 16  1  0
 17 16  1  1
 17 18  1  0
 18 19  1  0
 19 20  1  6
 19 21  1  0
 21 22  1  0
 22 23  1  0
 23 24  1  6
 23 25  1  0
 25 26  1  6
 26 27  1  0
 27 28  1  0
 28 29  1  6
 28  9  1  0
 28 12  1  0
 25 13  1  0
 23 17  1  0
M  END
>  <MS_ID>  (1243) 
MS1291

>  <SMILES>  (1243) 
C[C@H](CCC(=O)NN)[C@H]1CC[C@H]2[C@@H]3[C@@H](O)C[C@@H]4C[C@@H](O)CC[C@]4(C)[C@H]3CC[C@]12C

>  <Structure_dimension>  (1243) 
2D

$$$$
MS1292
     RDKit          2D

 31 34  0  0  0  0  0  0  0  0999 V2000
   -3.6979   -3.7343    0.0000 C   0  0  0  0  0  0  0  0  0  0  0  0
   -2.7512   -2.5708    0.0000 C   0  0  0  0  0  0  0  0  0  0  0  0
   -3.2855   -1.1692    0.0000 C   0  0  0  0  0  0  0  0  0  0  0  0
   -4.7665   -0.9311    0.0000 C   0  0  0  0  0  0  0  0  0  0  0  0
   -5.3009    0.4705    0.0000 C   0  0  0  0  0  0  0  0  0  0  0  0
   -6.7819    0.7085    0.0000 O   0  0  0  0  0  0  0  0  0  0  0  0
   -4.3542    1.6340    0.0000 O   0  0  0  0  0  0  0  0  0  0  0  0
   -4.8886    3.0356    0.0000 S   0  0  0  0  0  0  0  0  0  0  0  0
   -6.2902    2.5013    0.0000 O   0  0  0  0  0  0  0  0  0  0  0  0
   -3.4870    3.5700    0.0000 O   0  0  0  0  0  0  0  0  0  0  0  0
   -5.4229    4.4372    0.0000 O   0  0  0  0  0  0  0  0  0  0  0  0
   -1.2702   -2.8088    0.0000 C   0  0  0  0  0  0  0  0  0  0  0  0
   -0.5923   -4.1469    0.0000 C   0  0  0  0  0  0  0  0  0  0  0  0
    0.8898   -3.9156    0.0000 C   0  0  0  0  0  0  0  0  0  0  0  0
    1.1278   -2.4346    0.0000 C   0  0  0  0  0  0  0  0  0  0  0  0
    2.3877   -1.6206    0.0000 C   0  0  0  0  0  0  0  0  0  0  0  0
    3.7226   -2.3046    0.0000 C   0  0  0  0  0  0  0  0  0  0  0  0
    4.9825   -1.4905    0.0000 C   0  0  0  0  0  0  0  0  0  0  0  0
    4.9074    0.0076    0.0000 C   0  0  0  0  0  0  0  0  0  0  0  0
    6.1673    0.8217    0.0000 C   0  0  0  0  0  0  0  0  0  0  0  0
    6.0923    2.3198    0.0000 C   0  0  0  0  0  0  0  0  0  0  0  0
    7.3521    3.1338    0.0000 O   0  0  0  0  0  0  0  0  0  0  0  0
    4.7573    3.0038    0.0000 C   0  0  0  0  0  0  0  0  0  0  0  0
    3.4974    2.1897    0.0000 C   0  0  0  0  0  0  0  0  0  0  0  0
    3.5725    0.6916    0.0000 C   0  0  0  0  0  0  0  0  0  0  0  0
    2.2376    1.3757    0.0000 C   0  0  0  0  0  0  0  0  0  0  0  0
    2.3126   -0.1224    0.0000 C   0  0  0  0  0  0  0  0  0  0  0  0
    0.9777    0.5616    0.0000 C   0  0  0  0  0  0  0  0  0  0  0  0
   -0.2822   -0.2525    0.0000 C   0  0  0  0  0  0  0  0  0  0  0  0
   -0.2071   -1.7506    0.0000 C   0  0  0  0  0  0  0  0  0  0  0  0
   -1.6063   -1.2098    0.0000 C   0  0  0  0  0  0  0  0  0  0  0  0
  2  1  1  6
  2  3  1  0
  3  4  1  0
  4  5  1  0
  5  6  2  0
  5  7  1  0
  7  8  1  0
  8  9  2  0
  8 10  2  0
  8 11  1  0
  2 12  1  0
 12 13  1  6
 13 14  1  0
 15 14  1  6
 15 16  1  0
 16 17  1  1
 17 18  1  0
 19 18  1  1
 19 20  1  0
 20 21  1  0
 21 22  1  6
 21 23  1  0
 23 24  1  0
 24 25  1  0
 25 26  1  6
 25 27  1  0
 27 28  1  6
 28 29  1  0
 29 30  1  0
 30 31  1  6
 30 12  1  0
 30 15  1  0
 27 16  1  0
 25 19  1  0
M  END
>  <MS_ID>  (1244) 
MS1292

>  <SMILES>  (1244) 
C[C@H](CCC(=O)OS(=O)(=O)O)[C@H]1CC[C@H]2[C@@H]3CC[C@@H]4C[C@@H](O)CC[C@]4(C)[C@H]3CC[C@]12C

>  <Structure_dimension>  (1244) 
2D

$$$$
MS1294
     RDKit          2D

 41 45  0  0  0  0  0  0  0  0999 V2000
   -8.0057   -2.0238    0.0000 C   0  0  0  0  0  0  0  0  0  0  0  0
   -6.8555   -1.0610    0.0000 C   0  0  0  0  0  0  0  0  0  0  0  0
   -7.1143    0.4165    0.0000 C   0  0  0  0  0  0  0  0  0  0  0  0
   -8.5233    0.9312    0.0000 C   0  0  0  0  0  0  0  0  0  0  0  0
   -8.7820    2.4087    0.0000 C   0  0  0  0  0  0  0  0  0  0  0  0
   -7.6318    3.3716    0.0000 O   0  0  0  0  0  0  0  0  0  0  0  0
  -10.1910    2.9234    0.0000 O   0  0  0  0  0  0  0  0  0  0  0  0
   -5.4466   -1.5756    0.0000 C   0  0  0  0  0  0  0  0  0  0  0  0
   -5.0348   -3.0180    0.0000 C   0  0  0  0  0  0  0  0  0  0  0  0
   -3.5358   -3.0721    0.0000 C   0  0  0  0  0  0  0  0  0  0  0  0
   -3.0211   -1.6631    0.0000 C   0  0  0  0  0  0  0  0  0  0  0  0
   -1.6297   -1.1028    0.0000 C   0  0  0  0  0  0  0  0  0  0  0  0
   -0.4488   -2.0277    0.0000 C   0  0  0  0  0  0  0  0  0  0  0  0
   -0.6592   -3.5128    0.0000 O   0  0  0  0  0  0  0  0  0  0  0  0
    0.9427   -1.4674    0.0000 C   0  0  0  0  0  0  0  0  0  0  0  0
    1.1531    0.0178    0.0000 C   0  0  0  0  0  0  0  0  0  0  0  0
    2.5446    0.5781    0.0000 C   0  0  0  0  0  0  0  0  0  0  0  0
    2.7550    2.0632    0.0000 C   0  0  0  0  0  0  0  0  0  0  0  0
    4.1465    2.6235    0.0000 O   0  0  0  0  0  0  0  0  0  0  0  0
    5.3274    1.6987    0.0000 C   0  0  0  0  0  0  0  0  0  0  0  0
    5.1169    0.2135    0.0000 O   0  0  0  0  0  0  0  0  0  0  0  0
    6.2979   -0.7113    0.0000 C   0  0  0  0  0  0  0  0  0  0  0  0
    6.0874   -2.1965    0.0000 C   0  0  0  0  0  0  0  0  0  0  0  0
    4.6960   -2.7568    0.0000 C   0  0  0  0  0  0  0  0  0  0  0  0
    4.4855   -4.2420    0.0000 C   0  0  0  0  0  0  0  0  0  0  0  0
    3.0941   -4.8023    0.0000 O   0  0  0  0  0  0  0  0  0  0  0  0
    7.6893   -0.1510    0.0000 C   0  0  0  0  0  0  0  0  0  0  0  0
    8.8703   -1.0759    0.0000 O   0  0  0  0  0  0  0  0  0  0  0  0
    7.8998    1.3341    0.0000 C   0  0  0  0  0  0  0  0  0  0  0  0
    9.2912    1.8944    0.0000 O   0  0  0  0  0  0  0  0  0  0  0  0
    6.7188    2.2590    0.0000 C   0  0  0  0  0  0  0  0  0  0  0  0
    6.9293    3.7442    0.0000 O   0  0  0  0  0  0  0  0  0  0  0  0
    1.5741    2.9881    0.0000 C   0  0  0  0  0  0  0  0  0  0  0  0
    0.1827    2.4278    0.0000 C   0  0  0  0  0  0  0  0  0  0  0  0
   -0.0278    0.9426    0.0000 C   0  0  0  0  0  0  0  0  0  0  0  0
   -1.2088    1.8675    0.0000 C   0  0  0  0  0  0  0  0  0  0  0  0
   -1.4192    0.3823    0.0000 C   0  0  0  0  0  0  0  0  0  0  0  0
   -2.6002    1.3072    0.0000 C   0  0  0  0  0  0  0  0  0  0  0  0
   -3.9916    0.7469    0.0000 C   0  0  0  0  0  0  0  0  0  0  0  0
   -4.2021   -0.7383    0.0000 C   0  0  0  0  0  0  0  0  0  0  0  0
   -5.4732    0.0581    0.0000 C   0  0  0  0  0  0  0  0  0  0  0  0
  2  1  1  6
  2  3  1  0
  3  4  1  0
  4  5  1  0
  5  6  2  0
  5  7  1  0
  2  8  1  0
  8  9  1  6
  9 10  1  0
 11 10  1  6
 11 12  1  0
 12 13  1  1
 13 14  1  6
 13 15  1  0
 16 15  1  1
 16 17  1  0
 17 18  1  0
 18 19  1  1
 20 19  1  1
 20 21  1  0
 21 22  1  0
 22 23  1  1
 23 24  1  0
 24 25  1  0
 25 26  1  0
 22 27  1  0
 27 28  1  6
 27 29  1  0
 29 30  1  1
 29 31  1  0
 31 32  1  6
 18 33  1  0
 33 34  1  0
 34 35  1  0
 35 36  1  6
 35 37  1  0
 37 38  1  6
 38 39  1  0
 39 40  1  0
 40 41  1  6
 40  8  1  0
 40 11  1  0
 37 12  1  0
 35 16  1  0
 31 20  1  0
M  END
>  <MS_ID>  (1245) 
MS1294

>  <SMILES>  (1245) 
C[C@H](CCC(=O)O)[C@H]1CC[C@H]2[C@@H]3[C@@H](O)C[C@@H]4C[C@H](O[C@@H]5O[C@H](CCCO)[C@@H](O)[C@H](O)[C@H]5O)CC[C@]4(C)[C@H]3CC[C@]12C

>  <Structure_dimension>  (1245) 
2D

$$$$
MS1295
     RDKit          2D

 33 37  0  0  0  0  0  0  0  0999 V2000
   -3.6298   -3.2263    0.0000 C   0  0  0  0  0  0  0  0  0  0  0  0
   -2.6726   -2.0715    0.0000 C   0  0  0  0  0  0  0  0  0  0  0  0
   -3.1941   -0.6650    0.0000 C   0  0  0  0  0  0  0  0  0  0  0  0
   -4.6728   -0.4135    0.0000 C   0  0  0  0  0  0  0  0  0  0  0  0
   -5.1944    0.9930    0.0000 C   0  0  0  0  0  0  0  0  0  0  0  0
   -4.2371    2.1478    0.0000 O   0  0  0  0  0  0  0  0  0  0  0  0
   -6.6731    1.2445    0.0000 C   0  0  0  0  0  0  0  0  0  0  0  0
   -7.7458    0.1960    0.0000 C   0  0  0  0  0  0  0  0  0  0  0  0
   -9.0745    0.8923    0.0000 C   0  0  0  0  0  0  0  0  0  0  0  0
   -8.8229    2.3710    0.0000 O   0  0  0  0  0  0  0  0  0  0  0  0
   -7.3388    2.5887    0.0000 C   0  0  0  0  0  0  0  0  0  0  0  0
   -1.1938   -2.3230    0.0000 C   0  0  0  0  0  0  0  0  0  0  0  0
   -0.5281   -3.6672    0.0000 C   0  0  0  0  0  0  0  0  0  0  0  0
    0.9560   -3.4495    0.0000 C   0  0  0  0  0  0  0  0  0  0  0  0
    1.2075   -1.9708    0.0000 C   0  0  0  0  0  0  0  0  0  0  0  0
    2.4748   -1.1682    0.0000 C   0  0  0  0  0  0  0  0  0  0  0  0
    3.8034   -1.8644    0.0000 C   0  0  0  0  0  0  0  0  0  0  0  0
    3.8648   -3.3632    0.0000 O   0  0  0  0  0  0  0  0  0  0  0  0
    5.0707   -1.0619    0.0000 C   0  0  0  0  0  0  0  0  0  0  0  0
    6.3993   -1.7581    0.0000 O   0  0  0  0  0  0  0  0  0  0  0  0
    5.0093    0.4368    0.0000 C   0  0  0  0  0  0  0  0  0  0  0  0
    6.2766    1.2394    0.0000 C   0  0  0  0  0  0  0  0  0  0  0  0
    6.2152    2.7381    0.0000 C   0  0  0  0  0  0  0  0  0  0  0  0
    7.4824    3.5407    0.0000 O   0  0  0  0  0  0  0  0  0  0  0  0
    4.8865    3.4343    0.0000 C   0  0  0  0  0  0  0  0  0  0  0  0
    3.6193    2.6318    0.0000 C   0  0  0  0  0  0  0  0  0  0  0  0
    3.6807    1.1331    0.0000 C   0  0  0  0  0  0  0  0  0  0  0  0
    2.3520    1.8293    0.0000 C   0  0  0  0  0  0  0  0  0  0  0  0
    2.4134    0.3305    0.0000 C   0  0  0  0  0  0  0  0  0  0  0  0
    1.0848    1.0267    0.0000 C   0  0  0  0  0  0  0  0  0  0  0  0
   -0.1825    0.2242    0.0000 C   0  0  0  0  0  0  0  0  0  0  0  0
   -0.1211   -1.2745    0.0000 C   0  0  0  0  0  0  0  0  0  0  0  0
   -1.5152   -0.7210    0.0000 C   0  0  0  0  0  0  0  0  0  0  0  0
  2  1  1  6
  2  3  1  0
  3  4  1  0
  4  5  1  0
  5  6  2  0
  5  7  1  0
  7  8  1  0
  8  9  2  0
  9 10  1  0
 10 11  1  0
  2 12  1  0
 12 13  1  6
 13 14  1  0
 15 14  1  6
 15 16  1  0
 16 17  1  1
 17 18  1  1
 17 19  1  0
 19 20  1  1
 19 21  1  0
 21 22  1  1
 22 23  1  0
 23 24  1  1
 23 25  1  0
 25 26  1  0
 26 27  1  0
 27 28  1  6
 27 29  1  0
 29 30  1  6
 30 31  1  0
 31 32  1  0
 32 33  1  6
 11  7  2  0
 32 12  1  0
 32 15  1  0
 29 16  1  0
 27 21  1  0
M  END
>  <MS_ID>  (1246) 
MS1295

>  <SMILES>  (1246) 
C[C@H](CCC(=O)c1ccoc1)[C@H]1CC[C@H]2[C@@H]3[C@H](O)[C@H](O)[C@@H]4C[C@H](O)CC[C@]4(C)[C@H]3CC[C@]12C

>  <Structure_dimension>  (1246) 
2D

$$$$
MS1296
     RDKit          2D

 32 35  0  0  0  0  0  0  0  0999 V2000
   -5.0236   -2.5641    0.0000 C   0  0  0  0  0  0  0  0  0  0  0  0
   -4.0310   -1.4395    0.0000 C   0  0  0  0  0  0  0  0  0  0  0  0
   -4.5087   -0.0176    0.0000 C   0  0  0  0  0  0  0  0  0  0  0  0
   -5.9789    0.2797    0.0000 C   0  0  0  0  0  0  0  0  0  0  0  0
   -6.4566    1.7016    0.0000 C   0  0  0  0  0  0  0  0  0  0  0  0
   -5.4640    2.8262    0.0000 O   0  0  0  0  0  0  0  0  0  0  0  0
   -7.9268    1.9989    0.0000 O   0  0  0  0  0  0  0  0  0  0  0  0
   -2.5608   -1.7368    0.0000 C   0  0  0  0  0  0  0  0  0  0  0  0
   -1.9371   -3.1010    0.0000 C   0  0  0  0  0  0  0  0  0  0  0  0
   -0.4470   -2.9294    0.0000 C   0  0  0  0  0  0  0  0  0  0  0  0
   -0.1497   -1.4592    0.0000 C   0  0  0  0  0  0  0  0  0  0  0  0
    1.1419   -0.6963    0.0000 C   0  0  0  0  0  0  0  0  0  0  0  0
    2.4483   -1.4334    0.0000 C   0  0  0  0  0  0  0  0  0  0  0  0
    2.4631   -2.9334    0.0000 O   0  0  0  0  0  0  0  0  0  0  0  0
    3.7696   -3.6704    0.0000 C   0  0  0  0  0  0  0  0  0  0  0  0
    5.0611   -2.9076    0.0000 O   0  0  0  0  0  0  0  0  0  0  0  0
    3.7844   -5.1704    0.0000 O   0  0  0  0  0  0  0  0  0  0  0  0
    3.7398   -0.6706    0.0000 C   0  0  0  0  0  0  0  0  0  0  0  0
    3.7249    0.8293    0.0000 C   0  0  0  0  0  0  0  0  0  0  0  0
    5.0165    1.5922    0.0000 C   0  0  0  0  0  0  0  0  0  0  0  0
    5.0016    3.0921    0.0000 C   0  0  0  0  0  0  0  0  0  0  0  0
    6.2931    3.8550    0.0000 O   0  0  0  0  0  0  0  0  0  0  0  0
    3.6952    3.8292    0.0000 C   0  0  0  0  0  0  0  0  0  0  0  0
    2.4036    3.0664    0.0000 C   0  0  0  0  0  0  0  0  0  0  0  0
    2.4185    1.5664    0.0000 C   0  0  0  0  0  0  0  0  0  0  0  0
    1.1121    2.3035    0.0000 C   0  0  0  0  0  0  0  0  0  0  0  0
    1.1270    0.8036    0.0000 C   0  0  0  0  0  0  0  0  0  0  0  0
   -0.1794    1.5407    0.0000 C   0  0  0  0  0  0  0  0  0  0  0  0
   -1.4710    0.7778    0.0000 C   0  0  0  0  0  0  0  0  0  0  0  0
   -2.7774    1.5149    0.0000 O   0  0  0  0  0  0  0  0  0  0  0  0
   -1.4561   -0.7221    0.0000 C   0  0  0  0  0  0  0  0  0  0  0  0
   -2.8324   -0.1256    0.0000 C   0  0  0  0  0  0  0  0  0  0  0  0
  2  1  1  6
  2  3  1  0
  3  4  1  0
  4  5  1  0
  5  6  2  0
  5  7  1  0
  2  8  1  0
  8  9  1  6
  9 10  1  0
 11 10  1  6
 11 12  1  0
 12 13  1  1
 13 14  1  1
 14 15  1  0
 15 16  2  0
 15 17  1  0
 13 18  1  0
 19 18  1  1
 19 20  1  0
 20 21  1  0
 21 22  1  1
 21 23  1  0
 23 24  1  0
 24 25  1  0
 25 26  1  6
 25 27  1  0
 27 28  1  6
 28 29  1  0
 29 30  1  1
 29 31  1  0
 31 32  1  6
 31  8  1  0
 31 11  1  0
 27 12  1  0
 25 19  1  0
M  END
>  <MS_ID>  (1247) 
MS1296

>  <SMILES>  (1247) 
C[C@H](CCC(=O)O)[C@H]1CC[C@H]2[C@@H]3[C@H](OC(=O)O)C[C@@H]4C[C@H](O)CC[C@]4(C)[C@H]3C[C@H](O)[C@]12C

>  <Structure_dimension>  (1247) 
2D

$$$$
MS1297
     RDKit          2D

 27 30  0  0  0  0  0  0  0  0999 V2000
   -6.9944    3.0301    0.0000 C   0  0  0  0  0  0  0  0  0  0  0  0
   -5.6180    2.4339    0.0000 C   0  0  0  0  0  0  0  0  0  0  0  0
   -4.4135    3.3278    0.0000 O   0  0  0  0  0  0  0  0  0  0  0  0
   -5.4461    0.9438    0.0000 C   0  0  0  0  0  0  0  0  0  0  0  0
   -4.0697    0.3476    0.0000 C   0  0  0  0  0  0  0  0  0  0  0  0
   -3.8978   -1.1425    0.0000 C   0  0  0  0  0  0  0  0  0  0  0  0
   -5.1023   -2.0364    0.0000 C   0  0  0  0  0  0  0  0  0  0  0  0
   -2.5213   -1.7387    0.0000 C   0  0  0  0  0  0  0  0  0  0  0  0
   -2.1946   -3.2027    0.0000 C   0  0  0  0  0  0  0  0  0  0  0  0
   -0.7013   -3.3444    0.0000 C   0  0  0  0  0  0  0  0  0  0  0  0
   -0.1051   -1.9679    0.0000 C   0  0  0  0  0  0  0  0  0  0  0  0
    1.3167   -1.4900    0.0000 C   0  0  0  0  0  0  0  0  0  0  0  0
    2.4415   -2.4823    0.0000 C   0  0  0  0  0  0  0  0  0  0  0  0
    3.8633   -2.0044    0.0000 C   0  0  0  0  0  0  0  0  0  0  0  0
    4.1603   -0.5341    0.0000 C   0  0  0  0  0  0  0  0  0  0  0  0
    5.5821   -0.0561    0.0000 C   0  0  0  0  0  0  0  0  0  0  0  0
    5.8791    1.4142    0.0000 C   0  0  0  0  0  0  0  0  0  0  0  0
    7.3009    1.8921    0.0000 O   0  0  0  0  0  0  0  0  0  0  0  0
    4.7543    2.4065    0.0000 C   0  0  0  0  0  0  0  0  0  0  0  0
    3.3325    1.9286    0.0000 C   0  0  0  0  0  0  0  0  0  0  0  0
    3.0355    0.4583    0.0000 C   0  0  0  0  0  0  0  0  0  0  0  0
    1.9107    1.4506    0.0000 C   0  0  0  0  0  0  0  0  0  0  0  0
    1.6137   -0.0197    0.0000 C   0  0  0  0  0  0  0  0  0  0  0  0
    0.4888    0.9727    0.0000 C   0  0  0  0  0  0  0  0  0  0  0  0
   -0.9330    0.4947    0.0000 C   0  0  0  0  0  0  0  0  0  0  0  0
   -1.2300   -0.9756    0.0000 C   0  0  0  0  0  0  0  0  0  0  0  0
   -2.4524   -0.1062    0.0000 C   0  0  0  0  0  0  0  0  0  0  0  0
  1  2  1  0
  2  3  2  0
  2  4  1  0
  4  5  1  0
  5  6  1  0
  6  7  1  6
  6  8  1  0
  8  9  1  6
  9 10  1  0
 11 10  1  6
 11 12  1  0
 12 13  1  1
 13 14  1  0
 15 14  1  1
 15 16  1  0
 16 17  1  0
 17 18  1  6
 17 19  1  0
 19 20  1  0
 20 21  1  0
 21 22  1  6
 21 23  1  0
 23 24  1  6
 24 25  1  0
 25 26  1  0
 26 27  1  6
 26  8  1  0
 26 11  1  0
 23 12  1  0
 21 15  1  0
M  END
>  <MS_ID>  (1248) 
MS1297

>  <SMILES>  (1248) 
CC(=O)CC[C@@H](C)[C@H]1CC[C@H]2[C@@H]3CC[C@@H]4C[C@@H](O)CC[C@]4(C)[C@H]3CC[C@]12C

>  <Structure_dimension>  (1248) 
2D

$$$$
MS1298
     RDKit          2D

 31 34  0  0  0  0  0  0  0  0999 V2000
   -3.9274   -2.9894    0.0000 C   0  0  0  0  0  0  0  0  0  0  0  0
   -2.8631   -1.9324    0.0000 C   0  0  0  0  0  0  0  0  0  0  0  0
   -3.2464   -0.4822    0.0000 C   0  0  0  0  0  0  0  0  0  0  0  0
   -4.6940   -0.0890    0.0000 C   0  0  0  0  0  0  0  0  0  0  0  0
   -5.0773    1.3612    0.0000 C   0  0  0  0  0  0  0  0  0  0  0  0
   -4.0130    2.4182    0.0000 O   0  0  0  0  0  0  0  0  0  0  0  0
   -6.5248    1.7544    0.0000 C   0  0  0  0  0  0  0  0  0  0  0  0
   -7.9724    2.1475    0.0000 F   0  0  0  0  0  0  0  0  0  0  0  0
   -6.1316    3.2019    0.0000 F   0  0  0  0  0  0  0  0  0  0  0  0
   -6.9180    0.3068    0.0000 F   0  0  0  0  0  0  0  0  0  0  0  0
   -1.4156   -2.3256    0.0000 C   0  0  0  0  0  0  0  0  0  0  0  0
   -0.8828   -3.7277    0.0000 C   0  0  0  0  0  0  0  0  0  0  0  0
    0.6154   -3.6544    0.0000 C   0  0  0  0  0  0  0  0  0  0  0  0
    1.0086   -2.2068    0.0000 C   0  0  0  0  0  0  0  0  0  0  0  0
    2.3474   -1.5304    0.0000 C   0  0  0  0  0  0  0  0  0  0  0  0
    3.6026   -2.3516    0.0000 C   0  0  0  0  0  0  0  0  0  0  0  0
    4.9414   -1.6752    0.0000 C   0  0  0  0  0  0  0  0  0  0  0  0
    5.0250   -0.1775    0.0000 C   0  0  0  0  0  0  0  0  0  0  0  0
    6.3639    0.4989    0.0000 C   0  0  0  0  0  0  0  0  0  0  0  0
    6.4475    1.9966    0.0000 C   0  0  0  0  0  0  0  0  0  0  0  0
    7.7863    2.6730    0.0000 O   0  0  0  0  0  0  0  0  0  0  0  0
    5.1923    2.8178    0.0000 C   0  0  0  0  0  0  0  0  0  0  0  0
    3.8534    2.1414    0.0000 C   0  0  0  0  0  0  0  0  0  0  0  0
    3.7698    0.6437    0.0000 C   0  0  0  0  0  0  0  0  0  0  0  0
    2.5146    1.4650    0.0000 C   0  0  0  0  0  0  0  0  0  0  0  0
    2.4310   -0.0327    0.0000 C   0  0  0  0  0  0  0  0  0  0  0  0
    1.1758    0.7885    0.0000 C   0  0  0  0  0  0  0  0  0  0  0  0
   -0.1630    0.1121    0.0000 C   0  0  0  0  0  0  0  0  0  0  0  0
   -1.4182    0.9334    0.0000 O   0  0  0  0  0  0  0  0  0  0  0  0
   -0.2466   -1.3856    0.0000 C   0  0  0  0  0  0  0  0  0  0  0  0
   -1.5808   -0.7000    0.0000 C   0  0  0  0  0  0  0  0  0  0  0  0
  2  1  1  6
  2  3  1  0
  3  4  1  0
  4  5  1  0
  5  6  2  0
  5  7  1  0
  7  8  1  0
  7  9  1  0
  7 10  1  0
  2 11  1  0
 11 12  1  6
 12 13  1  0
 14 13  1  6
 14 15  1  0
 15 16  1  1
 16 17  1  0
 18 17  1  1
 18 19  1  0
 19 20  1  0
 20 21  1  1
 20 22  1  0
 22 23  1  0
 23 24  1  0
 24 25  1  6
 24 26  1  0
 26 27  1  6
 27 28  1  0
 28 29  1  1
 28 30  1  0
 30 31  1  6
 30 11  1  0
 30 14  1  0
 26 15  1  0
 24 18  1  0
M  END
>  <MS_ID>  (1249) 
MS1298

>  <SMILES>  (1249) 
C[C@H](CCC(=O)C(F)(F)F)[C@H]1CC[C@H]2[C@@H]3CC[C@@H]4C[C@H](O)CC[C@]4(C)[C@H]3C[C@H](O)[C@]12C

>  <Structure_dimension>  (1249) 
2D

$$$$
MS1299
     RDKit          2D

 29 32  0  0  0  0  0  0  0  0999 V2000
   -4.5534   -2.6812    0.0000 C   0  0  0  0  0  0  0  0  0  0  0  0
   -3.4378   -1.6786    0.0000 C   0  0  0  0  0  0  0  0  0  0  0  0
   -3.7483   -0.2111    0.0000 C   0  0  0  0  0  0  0  0  0  0  0  0
   -5.1744    0.2538    0.0000 C   0  0  0  0  0  0  0  0  0  0  0  0
   -5.4850    1.7213    0.0000 C   0  0  0  0  0  0  0  0  0  0  0  0
   -4.3693    2.7239    0.0000 O   0  0  0  0  0  0  0  0  0  0  0  0
   -6.9111    2.1861    0.0000 C   0  0  0  0  0  0  0  0  0  0  0  0
   -7.2216    3.6536    0.0000 S   0  0  0  0  0  0  0  0  0  0  0  0
   -2.0116   -2.1434    0.0000 C   0  0  0  0  0  0  0  0  0  0  0  0
   -1.5494   -3.5704    0.0000 C   0  0  0  0  0  0  0  0  0  0  0  0
   -0.0494   -3.5718    0.0000 C   0  0  0  0  0  0  0  0  0  0  0  0
    0.4155   -2.1456    0.0000 C   0  0  0  0  0  0  0  0  0  0  0  0
    1.7863   -1.5368    0.0000 C   0  0  0  0  0  0  0  0  0  0  0  0
    2.9990   -2.4196    0.0000 C   0  0  0  0  0  0  0  0  0  0  0  0
    4.3699   -1.8107    0.0000 C   0  0  0  0  0  0  0  0  0  0  0  0
    4.5281   -0.3191    0.0000 C   0  0  0  0  0  0  0  0  0  0  0  0
    5.8990    0.2898    0.0000 C   0  0  0  0  0  0  0  0  0  0  0  0
    6.0571    1.7814    0.0000 C   0  0  0  0  0  0  0  0  0  0  0  0
    7.4280    2.3902    0.0000 O   0  0  0  0  0  0  0  0  0  0  0  0
    4.8444    2.6642    0.0000 C   0  0  0  0  0  0  0  0  0  0  0  0
    3.4735    2.0553    0.0000 C   0  0  0  0  0  0  0  0  0  0  0  0
    3.3154    0.5637    0.0000 C   0  0  0  0  0  0  0  0  0  0  0  0
    2.1026    1.4465    0.0000 C   0  0  0  0  0  0  0  0  0  0  0  0
    1.9445   -0.0451    0.0000 C   0  0  0  0  0  0  0  0  0  0  0  0
    0.7318    0.8376    0.0000 C   0  0  0  0  0  0  0  0  0  0  0  0
   -0.6391    0.2288    0.0000 C   0  0  0  0  0  0  0  0  0  0  0  0
   -1.8518    1.1116    0.0000 O   0  0  0  0  0  0  0  0  0  0  0  0
   -0.7973   -1.2628    0.0000 C   0  0  0  0  0  0  0  0  0  0  0  0
   -2.0956   -0.5116    0.0000 C   0  0  0  0  0  0  0  0  0  0  0  0
  2  1  1  6
  2  3  1  0
  3  4  1  0
  4  5  1  0
  5  6  2  0
  5  7  1  0
  7  8  1  0
  2  9  1  0
  9 10  1  6
 10 11  1  0
 12 11  1  6
 12 13  1  0
 13 14  1  1
 14 15  1  0
 16 15  1  1
 16 17  1  0
 17 18  1  0
 18 19  1  6
 18 20  1  0
 20 21  1  0
 21 22  1  0
 22 23  1  6
 22 24  1  0
 24 25  1  6
 25 26  1  0
 26 27  1  6
 26 28  1  0
 28 29  1  6
 28  9  1  0
 28 12  1  0
 24 13  1  0
 22 16  1  0
M  END
>  <MS_ID>  (1250) 
MS1299

>  <SMILES>  (1250) 
C[C@H](CCC(=O)CS)[C@H]1CC[C@H]2[C@@H]3CC[C@@H]4C[C@@H](O)CC[C@]4(C)[C@H]3C[C@@H](O)[C@]12C

>  <Structure_dimension>  (1250) 
2D

$$$$
MS1300
     RDKit          2D

 34 38  0  0  0  0  0  0  0  0999 V2000
   -2.6599   -4.1335    0.0000 C   0  0  0  0  0  0  0  0  0  0  0  0
   -1.8847   -2.8494    0.0000 C   0  0  0  0  0  0  0  0  0  0  0  0
   -2.6091   -1.5360    0.0000 C   0  0  0  0  0  0  0  0  0  0  0  0
   -4.1089   -1.5067    0.0000 C   0  0  0  0  0  0  0  0  0  0  0  0
   -4.8333   -0.1932    0.0000 C   0  0  0  0  0  0  0  0  0  0  0  0
   -4.0581    1.0909    0.0000 O   0  0  0  0  0  0  0  0  0  0  0  0
   -6.3331   -0.1639    0.0000 C   0  0  0  0  0  0  0  0  0  0  0  0
   -7.0575    1.1495    0.0000 N   0  0  0  0  0  0  0  0  0  0  0  0
   -8.5460    1.3354    0.0000 C   0  0  0  0  0  0  0  0  0  0  0  0
   -8.8291    2.8085    0.0000 N   0  0  0  0  0  0  0  0  0  0  0  0
   -7.5157    3.5330    0.0000 N   0  0  0  0  0  0  0  0  0  0  0  0
   -6.4208    2.5077    0.0000 N   0  0  0  0  0  0  0  0  0  0  0  0
   -0.3850   -2.8787    0.0000 C   0  0  0  0  0  0  0  0  0  0  0  0
    0.4728   -4.1092    0.0000 C   0  0  0  0  0  0  0  0  0  0  0  0
    1.9082   -3.6737    0.0000 C   0  0  0  0  0  0  0  0  0  0  0  0
    1.9375   -2.1740    0.0000 C   0  0  0  0  0  0  0  0  0  0  0  0
    3.0716   -1.1922    0.0000 C   0  0  0  0  0  0  0  0  0  0  0  0
    4.4889   -1.6835    0.0000 C   0  0  0  0  0  0  0  0  0  0  0  0
    4.7720   -3.1566    0.0000 O   0  0  0  0  0  0  0  0  0  0  0  0
    5.6230   -0.7018    0.0000 C   0  0  0  0  0  0  0  0  0  0  0  0
    5.3399    0.7712    0.0000 C   0  0  0  0  0  0  0  0  0  0  0  0
    6.4740    1.7530    0.0000 C   0  0  0  0  0  0  0  0  0  0  0  0
    6.1908    3.2260    0.0000 C   0  0  0  0  0  0  0  0  0  0  0  0
    7.3249    4.2077    0.0000 O   0  0  0  0  0  0  0  0  0  0  0  0
    4.7736    3.7173    0.0000 C   0  0  0  0  0  0  0  0  0  0  0  0
    3.6395    2.7356    0.0000 C   0  0  0  0  0  0  0  0  0  0  0  0
    3.9226    1.2625    0.0000 C   0  0  0  0  0  0  0  0  0  0  0  0
    2.5053    1.7538    0.0000 C   0  0  0  0  0  0  0  0  0  0  0  0
    2.7885    0.2808    0.0000 C   0  0  0  0  0  0  0  0  0  0  0  0
    1.3712    0.7721    0.0000 C   0  0  0  0  0  0  0  0  0  0  0  0
    0.2371   -0.2096    0.0000 C   0  0  0  0  0  0  0  0  0  0  0  0
   -1.1801    0.2817    0.0000 O   0  0  0  0  0  0  0  0  0  0  0  0
    0.5203   -1.6826    0.0000 C   0  0  0  0  0  0  0  0  0  0  0  0
   -0.9406   -1.3422    0.0000 C   0  0  0  0  0  0  0  0  0  0  0  0
  2  1  1  6
  2  3  1  0
  3  4  1  0
  4  5  1  0
  5  6  2  0
  5  7  1  0
  7  8  1  0
  8  9  1  0
  9 10  2  0
 10 11  1  0
 11 12  2  0
  2 13  1  0
 13 14  1  6
 14 15  1  0
 16 15  1  6
 16 17  1  0
 17 18  1  1
 18 19  1  1
 18 20  1  0
 21 20  1  1
 21 22  1  0
 22 23  1  0
 23 24  1  1
 23 25  1  0
 25 26  1  0
 26 27  1  0
 27 28  1  6
 27 29  1  0
 29 30  1  6
 30 31  1  0
 31 32  1  1
 31 33  1  0
 33 34  1  6
 12  8  1  0
 33 13  1  0
 33 16  1  0
 29 17  1  0
 27 21  1  0
M  END
>  <MS_ID>  (1251) 
MS1300

>  <SMILES>  (1251) 
C[C@H](CCC(=O)Cn1cnnn1)[C@H]1CC[C@H]2[C@@H]3[C@H](O)C[C@@H]4C[C@H](O)CC[C@]4(C)[C@H]3C[C@H](O)[C@]12C

>  <Structure_dimension>  (1251) 
2D

$$$$
MS1301
     RDKit          2D

 29 32  0  0  0  0  0  0  0  0999 V2000
   -5.0303   -2.1373    0.0000 C   0  0  0  0  0  0  0  0  0  0  0  0
   -3.8594   -1.1998    0.0000 C   0  0  0  0  0  0  0  0  0  0  0  0
   -4.0858    0.2830    0.0000 C   0  0  0  0  0  0  0  0  0  0  0  0
   -5.4831    0.8284    0.0000 C   0  0  0  0  0  0  0  0  0  0  0  0
   -5.7095    2.3112    0.0000 C   0  0  0  0  0  0  0  0  0  0  0  0
   -4.5386    3.2487    0.0000 O   0  0  0  0  0  0  0  0  0  0  0  0
   -7.1069    2.8565    0.0000 O   0  0  0  0  0  0  0  0  0  0  0  0
   -2.4620   -1.7451    0.0000 C   0  0  0  0  0  0  0  0  0  0  0  0
   -2.0818   -3.1961    0.0000 C   0  0  0  0  0  0  0  0  0  0  0  0
   -0.5844   -3.2830    0.0000 C   0  0  0  0  0  0  0  0  0  0  0  0
   -0.0390   -1.8856    0.0000 C   0  0  0  0  0  0  0  0  0  0  0  0
    1.3643   -1.3559    0.0000 C   0  0  0  0  0  0  0  0  0  0  0  0
    2.5248   -2.3063    0.0000 C   0  0  0  0  0  0  0  0  0  0  0  0
    2.2819   -3.7865    0.0000 O   0  0  0  0  0  0  0  0  0  0  0  0
    3.9281   -1.7765    0.0000 C   0  0  0  0  0  0  0  0  0  0  0  0
    4.1710   -0.2963    0.0000 C   0  0  0  0  0  0  0  0  0  0  0  0
    5.5743    0.2334    0.0000 C   0  0  0  0  0  0  0  0  0  0  0  0
    5.8172    1.7136    0.0000 C   0  0  0  0  0  0  0  0  0  0  0  0
    7.2205    2.2434    0.0000 F   0  0  0  0  0  0  0  0  0  0  0  0
    4.6568    2.6641    0.0000 C   0  0  0  0  0  0  0  0  0  0  0  0
    3.2534    2.1343    0.0000 C   0  0  0  0  0  0  0  0  0  0  0  0
    3.0105    0.6541    0.0000 C   0  0  0  0  0  0  0  0  0  0  0  0
    1.8501    1.6046    0.0000 C   0  0  0  0  0  0  0  0  0  0  0  0
    1.6072    0.1244    0.0000 C   0  0  0  0  0  0  0  0  0  0  0  0
    0.4467    1.0748    0.0000 C   0  0  0  0  0  0  0  0  0  0  0  0
   -0.9566    0.5450    0.0000 C   0  0  0  0  0  0  0  0  0  0  0  0
   -2.1170    1.4955    0.0000 O   0  0  0  0  0  0  0  0  0  0  0  0
   -1.1995   -0.9352    0.0000 C   0  0  0  0  0  0  0  0  0  0  0  0
   -2.4529   -0.1112    0.0000 C   0  0  0  0  0  0  0  0  0  0  0  0
  2  1  1  6
  2  3  1  0
  3  4  1  0
  4  5  1  0
  5  6  2  0
  5  7  1  0
  2  8  1  0
  8  9  1  6
  9 10  1  0
 11 10  1  6
 11 12  1  0
 12 13  1  1
 13 14  1  6
 13 15  1  0
 16 15  1  1
 16 17  1  0
 17 18  1  0
 18 19  1  1
 18 20  1  0
 20 21  1  0
 21 22  1  0
 22 23  1  6
 22 24  1  0
 24 25  1  6
 25 26  1  0
 26 27  2  0
 26 28  1  0
 28 29  1  6
 28  8  1  0
 28 11  1  0
 24 12  1  0
 22 16  1  0
M  END
>  <MS_ID>  (1252) 
MS1301

>  <SMILES>  (1252) 
C[C@H](CCC(=O)O)[C@H]1CC[C@H]2[C@@H]3[C@@H](O)C[C@@H]4C[C@H](F)CC[C@]4(C)[C@H]3CC(=O)[C@]12C

>  <Structure_dimension>  (1252) 
2D

$$$$
MS1302
     RDKit          2D

 31 34  0  0  0  0  0  0  0  0999 V2000
   -4.2495   -2.8115    0.0000 C   0  0  0  0  0  0  0  0  0  0  0  0
   -3.1859   -1.7538    0.0000 C   0  0  0  0  0  0  0  0  0  0  0  0
   -3.5702   -0.3038    0.0000 C   0  0  0  0  0  0  0  0  0  0  0  0
   -5.0180    0.0883    0.0000 C   0  0  0  0  0  0  0  0  0  0  0  0
   -5.4023    1.5383    0.0000 C   0  0  0  0  0  0  0  0  0  0  0  0
   -4.3387    2.5960    0.0000 O   0  0  0  0  0  0  0  0  0  0  0  0
   -6.8501    1.9305    0.0000 C   0  0  0  0  0  0  0  0  0  0  0  0
   -7.9137    0.8727    0.0000 O   0  0  0  0  0  0  0  0  0  0  0  0
   -7.2344    3.3804    0.0000 O   0  0  0  0  0  0  0  0  0  0  0  0
   -1.7381   -2.1460    0.0000 C   0  0  0  0  0  0  0  0  0  0  0  0
   -1.2044   -3.5478    0.0000 C   0  0  0  0  0  0  0  0  0  0  0  0
    0.2938   -3.4734    0.0000 C   0  0  0  0  0  0  0  0  0  0  0  0
    0.6860   -2.0256    0.0000 C   0  0  0  0  0  0  0  0  0  0  0  0
    2.0243   -1.3482    0.0000 C   0  0  0  0  0  0  0  0  0  0  0  0
    3.2801   -2.1686    0.0000 C   0  0  0  0  0  0  0  0  0  0  0  0
    3.1975   -3.6663    0.0000 O   0  0  0  0  0  0  0  0  0  0  0  0
    4.6185   -1.4913    0.0000 C   0  0  0  0  0  0  0  0  0  0  0  0
    4.7010    0.0064    0.0000 C   0  0  0  0  0  0  0  0  0  0  0  0
    6.0394    0.6838    0.0000 C   0  0  0  0  0  0  0  0  0  0  0  0
    6.1220    2.1815    0.0000 C   0  0  0  0  0  0  0  0  0  0  0  0
    7.4604    2.8588    0.0000 O   0  0  0  0  0  0  0  0  0  0  0  0
    4.8662    3.0019    0.0000 C   0  0  0  0  0  0  0  0  0  0  0  0
    3.5279    2.3246    0.0000 C   0  0  0  0  0  0  0  0  0  0  0  0
    3.4453    0.8268    0.0000 C   0  0  0  0  0  0  0  0  0  0  0  0
    2.1895    1.6472    0.0000 C   0  0  0  0  0  0  0  0  0  0  0  0
    2.1069    0.1495    0.0000 C   0  0  0  0  0  0  0  0  0  0  0  0
    0.8511    0.9699    0.0000 C   0  0  0  0  0  0  0  0  0  0  0  0
   -0.4872    0.2925    0.0000 C   0  0  0  0  0  0  0  0  0  0  0  0
   -1.7430    1.1129    0.0000 O   0  0  0  0  0  0  0  0  0  0  0  0
   -0.5698   -1.2052    0.0000 C   0  0  0  0  0  0  0  0  0  0  0  0
   -1.9045   -0.5205    0.0000 C   0  0  0  0  0  0  0  0  0  0  0  0
  2  1  1  6
  2  3  1  0
  3  4  1  0
  4  5  1  0
  5  6  2  0
  5  7  1  0
  7  8  2  0
  7  9  1  0
  2 10  1  0
 10 11  1  6
 11 12  1  0
 13 12  1  6
 13 14  1  0
 14 15  1  1
 15 16  1  1
 15 17  1  0
 18 17  1  1
 18 19  1  0
 19 20  1  0
 20 21  1  6
 20 22  1  0
 22 23  1  0
 23 24  1  0
 24 25  1  6
 24 26  1  0
 26 27  1  6
 27 28  1  0
 28 29  1  1
 28 30  1  0
 30 31  1  6
 30 10  1  0
 30 13  1  0
 26 14  1  0
 24 18  1  0
M  END
>  <MS_ID>  (1253) 
MS1302

>  <SMILES>  (1253) 
C[C@H](CCC(=O)C(=O)O)[C@H]1CC[C@H]2[C@@H]3[C@H](O)C[C@@H]4C[C@@H](O)CC[C@]4(C)[C@H]3C[C@H](O)[C@]12C

>  <Structure_dimension>  (1253) 
2D

$$$$
MS1303
     RDKit          2D

 31 34  0  0  0  0  0  0  0  0999 V2000
   -3.3365   -3.6593    0.0000 C   0  0  0  0  0  0  0  0  0  0  0  0
   -2.4053   -2.4834    0.0000 C   0  0  0  0  0  0  0  0  0  0  0  0
   -2.9582   -1.0889    0.0000 C   0  0  0  0  0  0  0  0  0  0  0  0
   -4.4422   -0.8705    0.0000 C   0  0  0  0  0  0  0  0  0  0  0  0
   -4.9950    0.5239    0.0000 C   0  0  0  0  0  0  0  0  0  0  0  0
   -4.0638    1.6999    0.0000 O   0  0  0  0  0  0  0  0  0  0  0  0
   -6.4790    0.7424    0.0000 O   0  0  0  0  0  0  0  0  0  0  0  0
   -7.0318    2.1368    0.0000 C   0  0  0  0  0  0  0  0  0  0  0  0
   -8.4262    1.5840    0.0000 C   0  0  0  0  0  0  0  0  0  0  0  0
   -5.6374    2.6896    0.0000 C   0  0  0  0  0  0  0  0  0  0  0  0
   -7.5846    3.5312    0.0000 O   0  0  0  0  0  0  0  0  0  0  0  0
   -0.9213   -2.7018    0.0000 C   0  0  0  0  0  0  0  0  0  0  0  0
   -0.2258   -4.0308    0.0000 C   0  0  0  0  0  0  0  0  0  0  0  0
    1.2531   -3.7800    0.0000 C   0  0  0  0  0  0  0  0  0  0  0  0
    1.4715   -2.2960    0.0000 C   0  0  0  0  0  0  0  0  0  0  0  0
    2.7205   -1.4653    0.0000 C   0  0  0  0  0  0  0  0  0  0  0  0
    4.0644   -2.1317    0.0000 C   0  0  0  0  0  0  0  0  0  0  0  0
    5.3134   -1.3010    0.0000 C   0  0  0  0  0  0  0  0  0  0  0  0
    5.2186    0.1960    0.0000 C   0  0  0  0  0  0  0  0  0  0  0  0
    6.4676    1.0266    0.0000 C   0  0  0  0  0  0  0  0  0  0  0  0
    6.3727    2.5236    0.0000 C   0  0  0  0  0  0  0  0  0  0  0  0
    7.6217    3.3543    0.0000 O   0  0  0  0  0  0  0  0  0  0  0  0
    5.0288    3.1900    0.0000 C   0  0  0  0  0  0  0  0  0  0  0  0
    3.7798    2.3593    0.0000 C   0  0  0  0  0  0  0  0  0  0  0  0
    3.8747    0.8623    0.0000 C   0  0  0  0  0  0  0  0  0  0  0  0
    2.5308    1.5287    0.0000 C   0  0  0  0  0  0  0  0  0  0  0  0
    2.6257    0.0317    0.0000 C   0  0  0  0  0  0  0  0  0  0  0  0
    1.2818    0.6980    0.0000 C   0  0  0  0  0  0  0  0  0  0  0  0
    0.0328   -0.1326    0.0000 C   0  0  0  0  0  0  0  0  0  0  0  0
    0.1277   -1.6296    0.0000 C   0  0  0  0  0  0  0  0  0  0  0  0
   -1.2785   -1.1074    0.0000 C   0  0  0  0  0  0  0  0  0  0  0  0
  2  1  1  6
  2  3  1  0
  3  4  1  0
  4  5  1  0
  5  6  2  0
  5  7  1  0
  7  8  1  0
  8  9  1  0
  8 10  1  0
  8 11  1  0
  2 12  1  0
 12 13  1  6
 13 14  1  0
 15 14  1  6
 15 16  1  0
 16 17  1  1
 17 18  1  0
 19 18  1  1
 19 20  1  0
 20 21  1  0
 21 22  1  1
 21 23  1  0
 23 24  1  0
 24 25  1  0
 25 26  1  6
 25 27  1  0
 27 28  1  6
 28 29  1  0
 29 30  1  0
 30 31  1  6
 30 12  1  0
 30 15  1  0
 27 16  1  0
 25 19  1  0
M  END
>  <MS_ID>  (1254) 
MS1303

>  <SMILES>  (1254) 
C[C@H](CCC(=O)OC(C)(C)O)[C@H]1CC[C@H]2[C@@H]3CC[C@@H]4C[C@H](O)CC[C@]4(C)[C@H]3CC[C@]12C

>  <Structure_dimension>  (1254) 
2D

$$$$
MS1304
     RDKit          2D

 34 37  0  0  0  0  0  0  0  0999 V2000
   -8.6395    3.3875    0.0000 C   0  0  0  0  0  0  0  0  0  0  0  0
   -8.0142    2.0241    0.0000 C   0  0  0  0  0  0  0  0  0  0  0  0
   -6.5207    1.8839    0.0000 C   0  0  0  0  0  0  0  0  0  0  0  0
   -5.8954    0.5205    0.0000 C   0  0  0  0  0  0  0  0  0  0  0  0
   -4.4020    0.3804    0.0000 C   0  0  0  0  0  0  0  0  0  0  0  0
   -3.5339    1.6036    0.0000 O   0  0  0  0  0  0  0  0  0  0  0  0
   -3.7766   -0.9831    0.0000 C   0  0  0  0  0  0  0  0  0  0  0  0
   -2.2832   -1.1232    0.0000 C   0  0  0  0  0  0  0  0  0  0  0  0
   -1.6579   -2.4867    0.0000 C   0  0  0  0  0  0  0  0  0  0  0  0
   -2.5260   -3.7099    0.0000 C   0  0  0  0  0  0  0  0  0  0  0  0
   -0.1644   -2.6268    0.0000 C   0  0  0  0  0  0  0  0  0  0  0  0
    0.6000   -3.9174    0.0000 C   0  0  0  0  0  0  0  0  0  0  0  0
    2.0637   -3.5892    0.0000 C   0  0  0  0  0  0  0  0  0  0  0  0
    2.2038   -2.0958    0.0000 C   0  0  0  0  0  0  0  0  0  0  0  0
    3.4074   -1.2006    0.0000 C   0  0  0  0  0  0  0  0  0  0  0  0
    4.7845   -1.7954    0.0000 C   0  0  0  0  0  0  0  0  0  0  0  0
    4.9579   -3.2854    0.0000 O   0  0  0  0  0  0  0  0  0  0  0  0
    5.9881   -0.9003    0.0000 C   0  0  0  0  0  0  0  0  0  0  0  0
    5.8147    0.5897    0.0000 C   0  0  0  0  0  0  0  0  0  0  0  0
    7.0183    1.4848    0.0000 C   0  0  0  0  0  0  0  0  0  0  0  0
    6.8449    2.9747    0.0000 C   0  0  0  0  0  0  0  0  0  0  0  0
    8.0485    3.8699    0.0000 O   0  0  0  0  0  0  0  0  0  0  0  0
    5.4679    3.5695    0.0000 C   0  0  0  0  0  0  0  0  0  0  0  0
    4.2643    2.6744    0.0000 C   0  0  0  0  0  0  0  0  0  0  0  0
    4.4377    1.1844    0.0000 C   0  0  0  0  0  0  0  0  0  0  0  0
    3.0606    1.7792    0.0000 C   0  0  0  0  0  0  0  0  0  0  0  0
    3.2340    0.2893    0.0000 C   0  0  0  0  0  0  0  0  0  0  0  0
    1.8570    0.8841    0.0000 C   0  0  0  0  0  0  0  0  0  0  0  0
    0.6534   -0.0111    0.0000 C   0  0  0  0  0  0  0  0  0  0  0  0
    0.8268   -1.5010    0.0000 C   0  0  0  0  0  0  0  0  0  0  0  0
   -0.6049   -1.0534    0.0000 C   0  0  0  0  0  0  0  0  0  0  0  0
   -8.8823    0.8008    0.0000 C   0  0  0  0  0  0  0  0  0  0  0  0
   -8.2569   -0.5626    0.0000 O   0  0  0  0  0  0  0  0  0  0  0  0
  -10.3757    0.9410    0.0000 O   0  0  0  0  0  0  0  0  0  0  0  0
  2  1  1  6
  2  3  1  0
  3  4  1  0
  4  5  1  0
  5  6  2  0
  5  7  1  0
  7  8  1  0
  8  9  1  0
  9 10  1  6
  9 11  1  0
 11 12  1  6
 12 13  1  0
 14 13  1  6
 14 15  1  0
 15 16  1  1
 16 17  1  1
 16 18  1  0
 19 18  1  1
 19 20  1  0
 20 21  1  0
 21 22  1  1
 21 23  1  0
 23 24  1  0
 24 25  1  0
 25 26  1  6
 25 27  1  0
 27 28  1  6
 28 29  1  0
 29 30  1  0
 30 31  1  6
  2 32  1  0
 32 33  2  0
 32 34  1  0
 30 11  1  0
 30 14  1  0
 27 15  1  0
 25 19  1  0
M  END
>  <MS_ID>  (1255) 
MS1304

>  <SMILES>  (1255) 
C[C@H](CCC(=O)CC[C@@H](C)[C@H]1CC[C@H]2[C@@H]3[C@H](O)C[C@@H]4C[C@H](O)CC[C@]4(C)[C@H]3CC[C@]12C)C(=O)O

>  <Structure_dimension>  (1255) 
2D

$$$$
MS1306
     RDKit          2D

 30 33  0  0  0  0  0  0  0  0999 V2000
   -6.0391   -1.9234    0.0000 C   0  0  0  0  0  0  0  0  0  0  0  0
   -4.8098   -1.0639    0.0000 C   0  0  0  0  0  0  0  0  0  0  0  0
   -4.9395    0.4305    0.0000 C   0  0  0  0  0  0  0  0  0  0  0  0
   -6.2986    1.0653    0.0000 C   0  0  0  0  0  0  0  0  0  0  0  0
   -6.4283    2.5597    0.0000 C   0  0  0  0  0  0  0  0  0  0  0  0
   -5.1990    3.4192    0.0000 O   0  0  0  0  0  0  0  0  0  0  0  0
   -7.7873    3.1945    0.0000 O   0  0  0  0  0  0  0  0  0  0  0  0
   -3.4508   -1.6988    0.0000 C   0  0  0  0  0  0  0  0  0  0  0  0
   -3.1656   -3.1714    0.0000 C   0  0  0  0  0  0  0  0  0  0  0  0
   -1.6769   -3.3552    0.0000 C   0  0  0  0  0  0  0  0  0  0  0  0
   -1.0420   -1.9962    0.0000 C   0  0  0  0  0  0  0  0  0  0  0  0
    0.3927   -1.5586    0.0000 C   0  0  0  0  0  0  0  0  0  0  0  0
    1.4891   -2.5823    0.0000 C   0  0  0  0  0  0  0  0  0  0  0  0
    2.9238   -2.1448    0.0000 C   0  0  0  0  0  0  0  0  0  0  0  0
    3.2622   -0.6834    0.0000 C   0  0  0  0  0  0  0  0  0  0  0  0
    4.6970   -0.2458    0.0000 C   0  0  0  0  0  0  0  0  0  0  0  0
    5.0354    1.2155    0.0000 C   0  0  0  0  0  0  0  0  0  0  0  0
    6.4702    1.6531    0.0000 C   0  0  0  0  0  0  0  0  0  0  0  0
    7.5665    0.6293    0.0000 C   0  0  0  0  0  0  0  0  0  0  0  0
    7.2281   -0.8320    0.0000 O   0  0  0  0  0  0  0  0  0  0  0  0
    9.0012    1.0669    0.0000 O   0  0  0  0  0  0  0  0  0  0  0  0
    3.9391    2.2392    0.0000 C   0  0  0  0  0  0  0  0  0  0  0  0
    2.5043    1.8016    0.0000 C   0  0  0  0  0  0  0  0  0  0  0  0
    2.1659    0.3403    0.0000 C   0  0  0  0  0  0  0  0  0  0  0  0
    1.0696    1.3641    0.0000 C   0  0  0  0  0  0  0  0  0  0  0  0
    0.7311   -0.0973    0.0000 C   0  0  0  0  0  0  0  0  0  0  0  0
   -0.3652    0.9265    0.0000 C   0  0  0  0  0  0  0  0  0  0  0  0
   -1.7999    0.4889    0.0000 C   0  0  0  0  0  0  0  0  0  0  0  0
   -2.1384   -0.9724    0.0000 C   0  0  0  0  0  0  0  0  0  0  0  0
   -3.3357   -0.0689    0.0000 C   0  0  0  0  0  0  0  0  0  0  0  0
  2  1  1  6
  2  3  1  0
  3  4  1  0
  4  5  1  0
  5  6  2  0
  5  7  1  0
  2  8  1  0
  8  9  1  6
  9 10  1  0
 11 10  1  6
 11 12  1  0
 12 13  1  1
 13 14  1  0
 15 14  1  1
 15 16  1  0
 16 17  1  0
 17 18  1  1
 18 19  1  0
 19 20  2  0
 19 21  1  0
 17 22  1  0
 22 23  1  0
 23 24  1  0
 24 25  1  6
 24 26  1  0
 26 27  1  6
 27 28  1  0
 28 29  1  0
 29 30  1  6
 29  8  1  0
 29 11  1  0
 26 12  1  0
 24 15  1  0
M  END
>  <MS_ID>  (1256) 
MS1306

>  <SMILES>  (1256) 
C[C@H](CCC(=O)O)[C@H]1CC[C@H]2[C@@H]3CC[C@@H]4C[C@H](CC(=O)O)CC[C@]4(C)[C@H]3CC[C@]12C

>  <Structure_dimension>  (1256) 
2D

$$$$
MS1307
     RDKit          2D

 31 34  0  0  0  0  0  0  0  0999 V2000
   -8.8672    3.1400    0.0000 C   0  0  0  0  0  0  0  0  0  0  0  0
   -7.3980    2.8376    0.0000 C   0  0  0  0  0  0  0  0  0  0  0  0
   -6.9253    1.4140    0.0000 O   0  0  0  0  0  0  0  0  0  0  0  0
   -5.4561    1.1115    0.0000 C   0  0  0  0  0  0  0  0  0  0  0  0
   -4.4596    2.2326    0.0000 O   0  0  0  0  0  0  0  0  0  0  0  0
   -4.9835   -0.3121    0.0000 C   0  0  0  0  0  0  0  0  0  0  0  0
   -3.5143   -0.6145    0.0000 C   0  0  0  0  0  0  0  0  0  0  0  0
   -3.0416   -2.0381    0.0000 C   0  0  0  0  0  0  0  0  0  0  0  0
   -4.0382   -3.1592    0.0000 C   0  0  0  0  0  0  0  0  0  0  0  0
   -1.5724   -2.3406    0.0000 C   0  0  0  0  0  0  0  0  0  0  0  0
   -0.9536   -3.7070    0.0000 C   0  0  0  0  0  0  0  0  0  0  0  0
    0.5372   -3.5406    0.0000 C   0  0  0  0  0  0  0  0  0  0  0  0
    0.8396   -2.0714    0.0000 C   0  0  0  0  0  0  0  0  0  0  0  0
    2.1338   -1.3131    0.0000 C   0  0  0  0  0  0  0  0  0  0  0  0
    3.4377   -2.0548    0.0000 C   0  0  0  0  0  0  0  0  0  0  0  0
    3.4473   -3.5547    0.0000 O   0  0  0  0  0  0  0  0  0  0  0  0
    4.7319   -1.2965    0.0000 C   0  0  0  0  0  0  0  0  0  0  0  0
    4.7223    0.2035    0.0000 C   0  0  0  0  0  0  0  0  0  0  0  0
    6.0165    0.9618    0.0000 C   0  0  0  0  0  0  0  0  0  0  0  0
    6.0069    2.4618    0.0000 C   0  0  0  0  0  0  0  0  0  0  0  0
    7.3011    3.2201    0.0000 O   0  0  0  0  0  0  0  0  0  0  0  0
    4.7030    3.2034    0.0000 C   0  0  0  0  0  0  0  0  0  0  0  0
    3.4088    2.4451    0.0000 C   0  0  0  0  0  0  0  0  0  0  0  0
    3.4184    0.9452    0.0000 C   0  0  0  0  0  0  0  0  0  0  0  0
    2.1146    1.6868    0.0000 C   0  0  0  0  0  0  0  0  0  0  0  0
    2.1242    0.1869    0.0000 C   0  0  0  0  0  0  0  0  0  0  0  0
    0.8204    0.9285    0.0000 C   0  0  0  0  0  0  0  0  0  0  0  0
   -0.4738    0.1702    0.0000 C   0  0  0  0  0  0  0  0  0  0  0  0
   -1.7776    0.9119    0.0000 O   0  0  0  0  0  0  0  0  0  0  0  0
   -0.4642   -1.3298    0.0000 C   0  0  0  0  0  0  0  0  0  0  0  0
   -1.8384   -0.7284    0.0000 C   0  0  0  0  0  0  0  0  0  0  0  0
  1  2  1  0
  2  3  1  0
  3  4  1  0
  4  5  2  0
  4  6  1  0
  6  7  1  0
  7  8  1  0
  8  9  1  6
  8 10  1  0
 10 11  1  6
 11 12  1  0
 13 12  1  6
 13 14  1  0
 14 15  1  1
 15 16  1  1
 15 17  1  0
 18 17  1  1
 18 19  1  0
 19 20  1  0
 20 21  1  1
 20 22  1  0
 22 23  1  0
 23 24  1  0
 24 25  1  6
 24 26  1  0
 26 27  1  6
 27 28  1  0
 28 29  1  6
 28 30  1  0
 30 31  1  6
 30 10  1  0
 30 13  1  0
 26 14  1  0
 24 18  1  0
M  END
>  <MS_ID>  (1257) 
MS1307

>  <SMILES>  (1257) 
CCOC(=O)CC[C@@H](C)[C@H]1CC[C@H]2[C@@H]3[C@H](O)C[C@@H]4C[C@H](O)CC[C@]4(C)[C@H]3C[C@@H](O)[C@]12C

>  <Structure_dimension>  (1257) 
2D

$$$$
MS1308
     RDKit          2D

 33 37  0  0  0  0  0  0  0  0999 V2000
   -6.7891   -1.3490    0.0000 C   0  0  0  0  0  0  0  0  0  0  0  0
   -5.4709   -0.6333    0.0000 C   0  0  0  0  0  0  0  0  0  0  0  0
   -5.4315    0.8662    0.0000 C   0  0  0  0  0  0  0  0  0  0  0  0
   -6.7105    1.6500    0.0000 C   0  0  0  0  0  0  0  0  0  0  0  0
   -6.6711    3.1495    0.0000 C   0  0  0  0  0  0  0  0  0  0  0  0
   -5.3528    3.8651    0.0000 O   0  0  0  0  0  0  0  0  0  0  0  0
   -7.9500    3.9333    0.0000 O   0  0  0  0  0  0  0  0  0  0  0  0
   -4.1920   -1.4171    0.0000 C   0  0  0  0  0  0  0  0  0  0  0  0
   -4.0743   -2.9125    0.0000 C   0  0  0  0  0  0  0  0  0  0  0  0
   -2.6158   -3.2628    0.0000 C   0  0  0  0  0  0  0  0  0  0  0  0
   -1.8320   -1.9839    0.0000 C   0  0  0  0  0  0  0  0  0  0  0  0
   -0.3571   -1.7106    0.0000 C   0  0  0  0  0  0  0  0  0  0  0  0
    0.6170   -2.8512    0.0000 C   0  0  0  0  0  0  0  0  0  0  0  0
    0.1162   -4.2652    0.0000 O   0  0  0  0  0  0  0  0  0  0  0  0
    2.0919   -2.5780    0.0000 C   0  0  0  0  0  0  0  0  0  0  0  0
    2.5927   -1.1640    0.0000 C   0  0  0  0  0  0  0  0  0  0  0  0
    4.0676   -0.8907    0.0000 C   0  0  0  0  0  0  0  0  0  0  0  0
    4.5684    0.5232    0.0000 C   0  0  0  0  0  0  0  0  0  0  0  0
    6.0433    0.7965    0.0000 C   0  0  0  0  0  0  0  0  0  0  0  0
    7.0174   -0.3442    0.0000 C   0  0  0  0  0  0  0  0  0  0  0  0
    8.4923   -0.0709    0.0000 C   0  0  0  0  0  0  0  0  0  0  0  0
    8.9931    1.3430    0.0000 C   0  0  0  0  0  0  0  0  0  0  0  0
    8.0190    2.4837    0.0000 C   0  0  0  0  0  0  0  0  0  0  0  0
    6.5441    2.2104    0.0000 C   0  0  0  0  0  0  0  0  0  0  0  0
    3.5943    1.6639    0.0000 C   0  0  0  0  0  0  0  0  0  0  0  0
    2.1194    1.3906    0.0000 C   0  0  0  0  0  0  0  0  0  0  0  0
    1.6186   -0.0234    0.0000 C   0  0  0  0  0  0  0  0  0  0  0  0
    0.6445    1.1173    0.0000 C   0  0  0  0  0  0  0  0  0  0  0  0
    0.1437   -0.2966    0.0000 C   0  0  0  0  0  0  0  0  0  0  0  0
   -0.8304    0.8440    0.0000 C   0  0  0  0  0  0  0  0  0  0  0  0
   -2.3053    0.5707    0.0000 C   0  0  0  0  0  0  0  0  0  0  0  0
   -2.8061   -0.8432    0.0000 C   0  0  0  0  0  0  0  0  0  0  0  0
   -3.8941    0.1894    0.0000 C   0  0  0  0  0  0  0  0  0  0  0  0
  2  1  1  6
  2  3  1  0
  3  4  1  0
  4  5  1  0
  5  6  2  0
  5  7  1  0
  2  8  1  0
  8  9  1  6
  9 10  1  0
 11 10  1  6
 11 12  1  0
 12 13  1  1
 13 14  1  6
 13 15  1  0
 16 15  1  1
 16 17  1  0
 17 18  1  0
 18 19  1  1
 19 20  2  0
 20 21  1  0
 21 22  2  0
 22 23  1  0
 23 24  2  0
 18 25  1  0
 25 26  1  0
 26 27  1  0
 27 28  1  6
 27 29  1  0
 29 30  1  6
 30 31  1  0
 31 32  1  0
 32 33  1  6
 32  8  1  0
 32 11  1  0
 29 12  1  0
 27 16  1  0
 24 19  1  0
M  END
>  <MS_ID>  (1258) 
MS1308

>  <SMILES>  (1258) 
C[C@H](CCC(=O)O)[C@H]1CC[C@H]2[C@@H]3[C@@H](O)C[C@@H]4C[C@H](c5ccccc5)CC[C@]4(C)[C@H]3CC[C@]12C

>  <Structure_dimension>  (1258) 
2D

$$$$
MS1309
     RDKit          2D

 35 39  0  0  0  0  0  0  0  0999 V2000
   -2.4249   -4.3282    0.0000 C   0  0  0  0  0  0  0  0  0  0  0  0
   -1.7208   -3.0038    0.0000 C   0  0  0  0  0  0  0  0  0  0  0  0
   -2.5157   -1.7317    0.0000 C   0  0  0  0  0  0  0  0  0  0  0  0
   -4.0147   -1.7841    0.0000 C   0  0  0  0  0  0  0  0  0  0  0  0
   -4.8097   -0.5121    0.0000 C   0  0  0  0  0  0  0  0  0  0  0  0
   -4.1055    0.8124    0.0000 O   0  0  0  0  0  0  0  0  0  0  0  0
   -6.3087   -0.5645    0.0000 C   0  0  0  0  0  0  0  0  0  0  0  0
   -7.1037    0.7076    0.0000 C   0  0  0  0  0  0  0  0  0  0  0  0
   -6.3995    2.0320    0.0000 C   0  0  0  0  0  0  0  0  0  0  0  0
   -7.1944    3.3041    0.0000 C   0  0  0  0  0  0  0  0  0  0  0  0
   -8.6935    3.2517    0.0000 C   0  0  0  0  0  0  0  0  0  0  0  0
   -9.3977    1.9272    0.0000 C   0  0  0  0  0  0  0  0  0  0  0  0
   -8.6027    0.6552    0.0000 C   0  0  0  0  0  0  0  0  0  0  0  0
   -0.2217   -2.9514    0.0000 C   0  0  0  0  0  0  0  0  0  0  0  0
    0.7019   -4.1334    0.0000 C   0  0  0  0  0  0  0  0  0  0  0  0
    2.1114   -3.6203    0.0000 C   0  0  0  0  0  0  0  0  0  0  0  0
    2.0590   -2.1213    0.0000 C   0  0  0  0  0  0  0  0  0  0  0  0
    3.1380   -1.0792    0.0000 C   0  0  0  0  0  0  0  0  0  0  0  0
    4.5799   -1.4927    0.0000 C   0  0  0  0  0  0  0  0  0  0  0  0
    4.9428   -2.9481    0.0000 O   0  0  0  0  0  0  0  0  0  0  0  0
    5.6589   -0.4506    0.0000 C   0  0  0  0  0  0  0  0  0  0  0  0
    7.1008   -0.8641    0.0000 O   0  0  0  0  0  0  0  0  0  0  0  0
    5.2959    1.0048    0.0000 C   0  0  0  0  0  0  0  0  0  0  0  0
    6.3749    2.0468    0.0000 C   0  0  0  0  0  0  0  0  0  0  0  0
    6.0120    3.5022    0.0000 C   0  0  0  0  0  0  0  0  0  0  0  0
    7.0910    4.5443    0.0000 O   0  0  0  0  0  0  0  0  0  0  0  0
    4.5701    3.9157    0.0000 C   0  0  0  0  0  0  0  0  0  0  0  0
    3.4911    2.8736    0.0000 C   0  0  0  0  0  0  0  0  0  0  0  0
    3.8540    1.4182    0.0000 C   0  0  0  0  0  0  0  0  0  0  0  0
    2.4121    1.8316    0.0000 C   0  0  0  0  0  0  0  0  0  0  0  0
    2.7751    0.3762    0.0000 C   0  0  0  0  0  0  0  0  0  0  0  0
    1.3332    0.7896    0.0000 C   0  0  0  0  0  0  0  0  0  0  0  0
    0.2542   -0.2524    0.0000 C   0  0  0  0  0  0  0  0  0  0  0  0
    0.6171   -1.7078    0.0000 C   0  0  0  0  0  0  0  0  0  0  0  0
   -0.8601   -1.4474    0.0000 C   0  0  0  0  0  0  0  0  0  0  0  0
  2  1  1  6
  2  3  1  0
  3  4  1  0
  4  5  1  0
  5  6  2  0
  5  7  1  0
  7  8  1  0
  8  9  2  0
  9 10  1  0
 10 11  2  0
 11 12  1  0
 12 13  2  0
  2 14  1  0
 14 15  1  6
 15 16  1  0
 17 16  1  6
 17 18  1  0
 18 19  1  1
 19 20  1  1
 19 21  1  0
 21 22  1  1
 21 23  1  0
 23 24  1  1
 24 25  1  0
 25 26  1  1
 25 27  1  0
 27 28  1  0
 28 29  1  0
 29 30  1  6
 29 31  1  0
 31 32  1  6
 32 33  1  0
 33 34  1  0
 34 35  1  6
 13  8  1  0
 34 14  1  0
 34 17  1  0
 31 18  1  0
 29 23  1  0
M  END
>  <MS_ID>  (1259) 
MS1309

>  <SMILES>  (1259) 
C[C@H](CCC(=O)Cc1ccccc1)[C@H]1CC[C@H]2[C@@H]3[C@H](O)[C@H](O)[C@@H]4C[C@H](O)CC[C@]4(C)[C@H]3CC[C@]12C

>  <Structure_dimension>  (1259) 
2D

$$$$
MS1310
     RDKit          2D

 29 32  0  0  0  0  0  0  0  0999 V2000
   -4.5534   -2.6812    0.0000 C   0  0  0  0  0  0  0  0  0  0  0  0
   -3.4378   -1.6786    0.0000 C   0  0  0  0  0  0  0  0  0  0  0  0
   -3.7483   -0.2111    0.0000 C   0  0  0  0  0  0  0  0  0  0  0  0
   -5.1744    0.2538    0.0000 C   0  0  0  0  0  0  0  0  0  0  0  0
   -5.4850    1.7213    0.0000 C   0  0  0  0  0  0  0  0  0  0  0  0
   -4.3693    2.7239    0.0000 O   0  0  0  0  0  0  0  0  0  0  0  0
   -6.9111    2.1861    0.0000 C   0  0  0  0  0  0  0  0  0  0  0  0
   -7.2216    3.6536    0.0000 S   0  0  0  0  0  0  0  0  0  0  0  0
   -2.0116   -2.1434    0.0000 C   0  0  0  0  0  0  0  0  0  0  0  0
   -1.5494   -3.5704    0.0000 C   0  0  0  0  0  0  0  0  0  0  0  0
   -0.0494   -3.5718    0.0000 C   0  0  0  0  0  0  0  0  0  0  0  0
    0.4155   -2.1456    0.0000 C   0  0  0  0  0  0  0  0  0  0  0  0
    1.7863   -1.5368    0.0000 C   0  0  0  0  0  0  0  0  0  0  0  0
    2.9990   -2.4196    0.0000 C   0  0  0  0  0  0  0  0  0  0  0  0
    4.3699   -1.8107    0.0000 C   0  0  0  0  0  0  0  0  0  0  0  0
    4.5281   -0.3191    0.0000 C   0  0  0  0  0  0  0  0  0  0  0  0
    5.8990    0.2898    0.0000 C   0  0  0  0  0  0  0  0  0  0  0  0
    6.0571    1.7814    0.0000 C   0  0  0  0  0  0  0  0  0  0  0  0
    7.4280    2.3902    0.0000 O   0  0  0  0  0  0  0  0  0  0  0  0
    4.8444    2.6642    0.0000 C   0  0  0  0  0  0  0  0  0  0  0  0
    3.4735    2.0553    0.0000 C   0  0  0  0  0  0  0  0  0  0  0  0
    3.3154    0.5637    0.0000 C   0  0  0  0  0  0  0  0  0  0  0  0
    2.1026    1.4465    0.0000 C   0  0  0  0  0  0  0  0  0  0  0  0
    1.9445   -0.0451    0.0000 C   0  0  0  0  0  0  0  0  0  0  0  0
    0.7318    0.8376    0.0000 C   0  0  0  0  0  0  0  0  0  0  0  0
   -0.6391    0.2288    0.0000 C   0  0  0  0  0  0  0  0  0  0  0  0
   -1.8518    1.1116    0.0000 O   0  0  0  0  0  0  0  0  0  0  0  0
   -0.7973   -1.2628    0.0000 C   0  0  0  0  0  0  0  0  0  0  0  0
   -2.0956   -0.5116    0.0000 C   0  0  0  0  0  0  0  0  0  0  0  0
  2  1  1  6
  2  3  1  0
  3  4  1  0
  4  5  1  0
  5  6  2  0
  5  7  1  0
  7  8  1  0
  2  9  1  0
  9 10  1  6
 10 11  1  0
 12 11  1  6
 12 13  1  0
 13 14  1  1
 14 15  1  0
 16 15  1  1
 16 17  1  0
 17 18  1  0
 18 19  1  1
 18 20  1  0
 20 21  1  0
 21 22  1  0
 22 23  1  6
 22 24  1  0
 24 25  1  6
 25 26  1  0
 26 27  1  6
 26 28  1  0
 28 29  1  6
 28  9  1  0
 28 12  1  0
 24 13  1  0
 22 16  1  0
M  END
>  <MS_ID>  (1260) 
MS1310

>  <SMILES>  (1260) 
C[C@H](CCC(=O)CS)[C@H]1CC[C@H]2[C@@H]3CC[C@@H]4C[C@H](O)CC[C@]4(C)[C@H]3C[C@@H](O)[C@]12C

>  <Structure_dimension>  (1260) 
2D

$$$$
MS1311
     RDKit          2D

 30 33  0  0  0  0  0  0  0  0999 V2000
   -7.4279    3.5601    0.0000 C   0  0  0  0  0  0  0  0  0  0  0  0
   -7.0729    2.1027    0.0000 N   0  0  0  0  0  0  0  0  0  0  0  0
   -5.6333    1.6814    0.0000 C   0  0  0  0  0  0  0  0  0  0  0  0
   -4.5486    2.7174    0.0000 O   0  0  0  0  0  0  0  0  0  0  0  0
   -5.2784    0.2240    0.0000 C   0  0  0  0  0  0  0  0  0  0  0  0
   -3.8388   -0.1974    0.0000 C   0  0  0  0  0  0  0  0  0  0  0  0
   -3.4838   -1.6548    0.0000 C   0  0  0  0  0  0  0  0  0  0  0  0
   -4.5685   -2.6908    0.0000 C   0  0  0  0  0  0  0  0  0  0  0  0
   -2.0442   -2.0761    0.0000 C   0  0  0  0  0  0  0  0  0  0  0  0
   -1.5389   -3.4884    0.0000 C   0  0  0  0  0  0  0  0  0  0  0  0
   -0.0395   -3.4442    0.0000 C   0  0  0  0  0  0  0  0  0  0  0  0
    0.3818   -2.0046    0.0000 C   0  0  0  0  0  0  0  0  0  0  0  0
    1.7336   -1.3544    0.0000 C   0  0  0  0  0  0  0  0  0  0  0  0
    2.9725   -2.1999    0.0000 C   0  0  0  0  0  0  0  0  0  0  0  0
    2.8597   -3.6957    0.0000 O   0  0  0  0  0  0  0  0  0  0  0  0
    4.3243   -1.5497    0.0000 C   0  0  0  0  0  0  0  0  0  0  0  0
    4.4371   -0.0540    0.0000 C   0  0  0  0  0  0  0  0  0  0  0  0
    5.7888    0.5962    0.0000 C   0  0  0  0  0  0  0  0  0  0  0  0
    5.9016    2.0920    0.0000 C   0  0  0  0  0  0  0  0  0  0  0  0
    7.2534    2.7422    0.0000 O   0  0  0  0  0  0  0  0  0  0  0  0
    4.6627    2.9375    0.0000 C   0  0  0  0  0  0  0  0  0  0  0  0
    3.3109    2.2873    0.0000 C   0  0  0  0  0  0  0  0  0  0  0  0
    3.1981    0.7916    0.0000 C   0  0  0  0  0  0  0  0  0  0  0  0
    1.9591    1.6371    0.0000 C   0  0  0  0  0  0  0  0  0  0  0  0
    1.8464    0.1414    0.0000 C   0  0  0  0  0  0  0  0  0  0  0  0
    0.6074    0.9869    0.0000 C   0  0  0  0  0  0  0  0  0  0  0  0
   -0.7444    0.3367    0.0000 C   0  0  0  0  0  0  0  0  0  0  0  0
   -1.9833    1.1823    0.0000 O   0  0  0  0  0  0  0  0  0  0  0  0
   -0.8572   -1.1590    0.0000 C   0  0  0  0  0  0  0  0  0  0  0  0
   -2.1777   -0.4476    0.0000 C   0  0  0  0  0  0  0  0  0  0  0  0
  1  2  1  0
  2  3  1  0
  3  4  2  0
  3  5  1  0
  5  6  1  0
  6  7  1  0
  7  8  1  6
  7  9  1  0
  9 10  1  6
 10 11  1  0
 12 11  1  6
 12 13  1  0
 13 14  1  1
 14 15  1  1
 14 16  1  0
 17 16  1  1
 17 18  1  0
 18 19  1  0
 19 20  1  1
 19 21  1  0
 21 22  1  0
 22 23  1  0
 23 24  1  6
 23 25  1  0
 25 26  1  6
 26 27  1  0
 27 28  1  1
 27 29  1  0
 29 30  1  6
 29  9  1  0
 29 12  1  0
 25 13  1  0
 23 17  1  0
M  END
>  <MS_ID>  (1261) 
MS1311

>  <SMILES>  (1261) 
CNC(=O)CC[C@@H](C)[C@H]1CC[C@H]2[C@@H]3[C@H](O)C[C@@H]4C[C@H](O)CC[C@]4(C)[C@H]3C[C@H](O)[C@]12C

>  <Structure_dimension>  (1261) 
2D

$$$$
MS1312
     RDKit          2D

 30 33  0  0  0  0  0  0  0  0999 V2000
   -4.3209   -2.7536    0.0000 C   0  0  0  0  0  0  0  0  0  0  0  0
   -3.2523   -1.7010    0.0000 C   0  0  0  0  0  0  0  0  0  0  0  0
   -3.6295   -0.2492    0.0000 C   0  0  0  0  0  0  0  0  0  0  0  0
   -5.0755    0.1499    0.0000 C   0  0  0  0  0  0  0  0  0  0  0  0
   -5.4527    1.6017    0.0000 C   0  0  0  0  0  0  0  0  0  0  0  0
   -4.3841    2.6543    0.0000 O   0  0  0  0  0  0  0  0  0  0  0  0
   -6.8987    2.0009    0.0000 C   0  0  0  0  0  0  0  0  0  0  0  0
   -7.9673    0.9482    0.0000 O   0  0  0  0  0  0  0  0  0  0  0  0
   -7.2759    3.4526    0.0000 O   0  0  0  0  0  0  0  0  0  0  0  0
   -1.8064   -2.1002    0.0000 C   0  0  0  0  0  0  0  0  0  0  0  0
   -1.2794   -3.5046    0.0000 C   0  0  0  0  0  0  0  0  0  0  0  0
    0.2191   -3.4374    0.0000 C   0  0  0  0  0  0  0  0  0  0  0  0
    0.6183   -1.9915    0.0000 C   0  0  0  0  0  0  0  0  0  0  0  0
    1.9599   -1.3206    0.0000 C   0  0  0  0  0  0  0  0  0  0  0  0
    3.2117   -2.1470    0.0000 C   0  0  0  0  0  0  0  0  0  0  0  0
    3.1219   -3.6443    0.0000 O   0  0  0  0  0  0  0  0  0  0  0  0
    4.5533   -1.4762    0.0000 C   0  0  0  0  0  0  0  0  0  0  0  0
    4.6431    0.0211    0.0000 C   0  0  0  0  0  0  0  0  0  0  0  0
    5.9847    0.6920    0.0000 C   0  0  0  0  0  0  0  0  0  0  0  0
    6.0745    2.1893    0.0000 C   0  0  0  0  0  0  0  0  0  0  0  0
    7.4161    2.8602    0.0000 O   0  0  0  0  0  0  0  0  0  0  0  0
    4.8227    3.0158    0.0000 C   0  0  0  0  0  0  0  0  0  0  0  0
    3.4811    2.3449    0.0000 C   0  0  0  0  0  0  0  0  0  0  0  0
    3.3913    0.8476    0.0000 C   0  0  0  0  0  0  0  0  0  0  0  0
    2.1395    1.6740    0.0000 C   0  0  0  0  0  0  0  0  0  0  0  0
    2.0497    0.1767    0.0000 C   0  0  0  0  0  0  0  0  0  0  0  0
    0.7979    1.0031    0.0000 C   0  0  0  0  0  0  0  0  0  0  0  0
   -0.5437    0.3323    0.0000 C   0  0  0  0  0  0  0  0  0  0  0  0
   -0.6335   -1.1650    0.0000 C   0  0  0  0  0  0  0  0  0  0  0  0
   -1.9649   -0.4740    0.0000 C   0  0  0  0  0  0  0  0  0  0  0  0
  2  1  1  6
  2  3  1  0
  3  4  1  0
  4  5  1  0
  5  6  2  0
  5  7  1  0
  7  8  2  0
  7  9  1  0
  2 10  1  0
 10 11  1  6
 11 12  1  0
 13 12  1  6
 13 14  1  0
 14 15  1  1
 15 16  1  6
 15 17  1  0
 18 17  1  1
 18 19  1  0
 19 20  1  0
 20 21  1  6
 20 22  1  0
 22 23  1  0
 23 24  1  0
 24 25  1  6
 24 26  1  0
 26 27  1  6
 27 28  1  0
 28 29  1  0
 29 30  1  6
 29 10  1  0
 29 13  1  0
 26 14  1  0
 24 18  1  0
M  END
>  <MS_ID>  (1262) 
MS1312

>  <SMILES>  (1262) 
C[C@H](CCC(=O)C(=O)O)[C@H]1CC[C@H]2[C@@H]3[C@@H](O)C[C@@H]4C[C@@H](O)CC[C@]4(C)[C@H]3CC[C@]12C

>  <Structure_dimension>  (1262) 
2D

$$$$
MS1313
     RDKit          2D

 28 31  0  0  0  0  0  0  0  0999 V2000
   -5.1275   -2.0302    0.0000 C   0  0  0  0  0  0  0  0  0  0  0  0
   -3.9468   -1.1050    0.0000 C   0  0  0  0  0  0  0  0  0  0  0  0
   -4.1576    0.3801    0.0000 C   0  0  0  0  0  0  0  0  0  0  0  0
   -5.5492    0.9401    0.0000 C   0  0  0  0  0  0  0  0  0  0  0  0
   -5.7600    2.4252    0.0000 C   0  0  0  0  0  0  0  0  0  0  0  0
   -4.5793    3.3503    0.0000 O   0  0  0  0  0  0  0  0  0  0  0  0
   -7.1516    2.9851    0.0000 O   0  0  0  0  0  0  0  0  0  0  0  0
   -2.5552   -1.6650    0.0000 C   0  0  0  0  0  0  0  0  0  0  0  0
   -2.1903   -3.1199    0.0000 C   0  0  0  0  0  0  0  0  0  0  0  0
   -0.6938   -3.2225    0.0000 C   0  0  0  0  0  0  0  0  0  0  0  0
   -0.1339   -1.8309    0.0000 C   0  0  0  0  0  0  0  0  0  0  0  0
    1.2750   -1.3159    0.0000 C   0  0  0  0  0  0  0  0  0  0  0  0
    2.4254   -2.2785    0.0000 C   0  0  0  0  0  0  0  0  0  0  0  0
    2.1670   -3.7560    0.0000 F   0  0  0  0  0  0  0  0  0  0  0  0
    3.8342   -1.7635    0.0000 C   0  0  0  0  0  0  0  0  0  0  0  0
    4.0926   -0.2859    0.0000 C   0  0  0  0  0  0  0  0  0  0  0  0
    5.5014    0.2291    0.0000 C   0  0  0  0  0  0  0  0  0  0  0  0
    5.7598    1.7067    0.0000 C   0  0  0  0  0  0  0  0  0  0  0  0
    7.1687    2.2217    0.0000 O   0  0  0  0  0  0  0  0  0  0  0  0
    4.6094    2.6692    0.0000 C   0  0  0  0  0  0  0  0  0  0  0  0
    3.2006    2.1542    0.0000 C   0  0  0  0  0  0  0  0  0  0  0  0
    2.9422    0.6767    0.0000 C   0  0  0  0  0  0  0  0  0  0  0  0
    1.7918    1.6392    0.0000 C   0  0  0  0  0  0  0  0  0  0  0  0
    1.5334    0.1617    0.0000 C   0  0  0  0  0  0  0  0  0  0  0  0
    0.3830    1.1242    0.0000 C   0  0  0  0  0  0  0  0  0  0  0  0
   -1.0259    0.6093    0.0000 C   0  0  0  0  0  0  0  0  0  0  0  0
   -1.2843   -0.8683    0.0000 C   0  0  0  0  0  0  0  0  0  0  0  0
   -2.5290   -0.0313    0.0000 C   0  0  0  0  0  0  0  0  0  0  0  0
  2  1  1  6
  2  3  1  0
  3  4  1  0
  4  5  1  0
  5  6  2  0
  5  7  1  0
  2  8  1  0
  8  9  1  6
  9 10  1  0
 11 10  1  6
 11 12  1  0
 12 13  1  1
 13 14  1  1
 13 15  1  0
 16 15  1  1
 16 17  1  0
 17 18  1  0
 18 19  1  1
 18 20  1  0
 20 21  1  0
 21 22  1  0
 22 23  1  6
 22 24  1  0
 24 25  1  6
 25 26  1  0
 26 27  1  0
 27 28  1  6
 27  8  1  0
 27 11  1  0
 24 12  1  0
 22 16  1  0
M  END
>  <MS_ID>  (1263) 
MS1313

>  <SMILES>  (1263) 
C[C@H](CCC(=O)O)[C@H]1CC[C@H]2[C@@H]3[C@H](F)C[C@@H]4C[C@H](O)CC[C@]4(C)[C@H]3CC[C@]12C

>  <Structure_dimension>  (1263) 
2D

$$$$
MS1314
     RDKit          2D

 32 35  0  0  0  0  0  0  0  0999 V2000
   -3.4885   -3.5079    0.0000 C   0  0  0  0  0  0  0  0  0  0  0  0
   -2.5691   -2.3226    0.0000 C   0  0  0  0  0  0  0  0  0  0  0  0
   -3.1359   -0.9338    0.0000 C   0  0  0  0  0  0  0  0  0  0  0  0
   -4.6220   -0.7302    0.0000 C   0  0  0  0  0  0  0  0  0  0  0  0
   -5.1887    0.6586    0.0000 C   0  0  0  0  0  0  0  0  0  0  0  0
   -4.2694    1.8438    0.0000 O   0  0  0  0  0  0  0  0  0  0  0  0
   -6.6749    0.8621    0.0000 N   0  0  0  0  0  0  0  0  0  0  0  0
   -7.2416    2.2510    0.0000 C   0  0  0  0  0  0  0  0  0  0  0  0
   -8.7277    2.4545    0.0000 C   0  0  0  0  0  0  0  0  0  0  0  0
  -10.2139    2.6581    0.0000 N   0  0  0  0  0  0  0  0  0  0  0  0
   -1.0830   -2.5262    0.0000 C   0  0  0  0  0  0  0  0  0  0  0  0
   -0.3742   -3.8482    0.0000 C   0  0  0  0  0  0  0  0  0  0  0  0
    1.1021   -3.5825    0.0000 C   0  0  0  0  0  0  0  0  0  0  0  0
    1.3057   -2.0964    0.0000 C   0  0  0  0  0  0  0  0  0  0  0  0
    2.5463   -1.2533    0.0000 C   0  0  0  0  0  0  0  0  0  0  0  0
    3.8968   -1.9061    0.0000 C   0  0  0  0  0  0  0  0  0  0  0  0
    4.0067   -3.4021    0.0000 O   0  0  0  0  0  0  0  0  0  0  0  0
    5.1374   -1.0630    0.0000 C   0  0  0  0  0  0  0  0  0  0  0  0
    5.0276    0.4330    0.0000 C   0  0  0  0  0  0  0  0  0  0  0  0
    6.2682    1.2761    0.0000 C   0  0  0  0  0  0  0  0  0  0  0  0
    6.1583    2.7720    0.0000 C   0  0  0  0  0  0  0  0  0  0  0  0
    7.3990    3.6152    0.0000 O   0  0  0  0  0  0  0  0  0  0  0  0
    4.8079    3.4249    0.0000 C   0  0  0  0  0  0  0  0  0  0  0  0
    3.5672    2.5818    0.0000 C   0  0  0  0  0  0  0  0  0  0  0  0
    3.6771    1.0858    0.0000 C   0  0  0  0  0  0  0  0  0  0  0  0
    2.3266    1.7387    0.0000 C   0  0  0  0  0  0  0  0  0  0  0  0
    2.4365    0.2427    0.0000 C   0  0  0  0  0  0  0  0  0  0  0  0
    1.0860    0.8955    0.0000 C   0  0  0  0  0  0  0  0  0  0  0  0
   -0.1546    0.0524    0.0000 C   0  0  0  0  0  0  0  0  0  0  0  0
   -1.5051    0.7053    0.0000 O   0  0  0  0  0  0  0  0  0  0  0  0
   -0.0448   -1.4436    0.0000 C   0  0  0  0  0  0  0  0  0  0  0  0
   -1.4561   -0.9355    0.0000 C   0  0  0  0  0  0  0  0  0  0  0  0
  2  1  1  6
  2  3  1  0
  3  4  1  0
  4  5  1  0
  5  6  2  0
  5  7  1  0
  7  8  1  0
  8  9  1  0
  9 10  3  0
  2 11  1  0
 11 12  1  6
 12 13  1  0
 14 13  1  6
 14 15  1  0
 15 16  1  1
 16 17  1  1
 16 18  1  0
 19 18  1  1
 19 20  1  0
 20 21  1  0
 21 22  1  1
 21 23  1  0
 23 24  1  0
 24 25  1  0
 25 26  1  6
 25 27  1  0
 27 28  1  6
 28 29  1  0
 29 30  1  1
 29 31  1  0
 31 32  1  6
 31 11  1  0
 31 14  1  0
 27 15  1  0
 25 19  1  0
M  END
>  <MS_ID>  (1264) 
MS1314

>  <SMILES>  (1264) 
C[C@H](CCC(=O)NCC#N)[C@H]1CC[C@H]2[C@@H]3[C@H](O)C[C@@H]4C[C@H](O)CC[C@]4(C)[C@H]3C[C@H](O)[C@]12C

>  <Structure_dimension>  (1264) 
2D

$$$$
MS1315
     RDKit          2D

 36 39  0  0  0  0  0  0  0  0999 V2000
   -2.2954   -4.2884    0.0000 C   0  0  0  0  0  0  0  0  0  0  0  0
   -1.5772   -2.9715    0.0000 C   0  0  0  0  0  0  0  0  0  0  0  0
   -2.3585   -1.6911    0.0000 C   0  0  0  0  0  0  0  0  0  0  0  0
   -3.8581   -1.7275    0.0000 C   0  0  0  0  0  0  0  0  0  0  0  0
   -4.6394   -0.4471    0.0000 C   0  0  0  0  0  0  0  0  0  0  0  0
   -3.9212    0.8698    0.0000 O   0  0  0  0  0  0  0  0  0  0  0  0
   -6.1390   -0.4836    0.0000 N   0  0  0  0  0  0  0  0  0  0  0  0
   -6.9203    0.7969    0.0000 S   0  0  0  0  0  0  0  0  0  0  0  0
   -5.6399    1.5782    0.0000 O   0  0  0  0  0  0  0  0  0  0  0  0
   -8.2008    0.0155    0.0000 O   0  0  0  0  0  0  0  0  0  0  0  0
   -7.7017    2.0773    0.0000 C   0  0  0  0  0  0  0  0  0  0  0  0
   -6.4213    2.8586    0.0000 F   0  0  0  0  0  0  0  0  0  0  0  0
   -8.9821    1.2959    0.0000 F   0  0  0  0  0  0  0  0  0  0  0  0
   -8.4830    3.3577    0.0000 F   0  0  0  0  0  0  0  0  0  0  0  0
   -0.0776   -2.9351    0.0000 C   0  0  0  0  0  0  0  0  0  0  0  0
    0.8333   -4.1268    0.0000 C   0  0  0  0  0  0  0  0  0  0  0  0
    2.2482   -3.6288    0.0000 C   0  0  0  0  0  0  0  0  0  0  0  0
    2.2117   -2.1292    0.0000 C   0  0  0  0  0  0  0  0  0  0  0  0
    3.3017   -1.0987    0.0000 C   0  0  0  0  0  0  0  0  0  0  0  0
    4.7392   -1.5274    0.0000 C   0  0  0  0  0  0  0  0  0  0  0  0
    5.0866   -2.9866    0.0000 O   0  0  0  0  0  0  0  0  0  0  0  0
    5.8292   -0.4969    0.0000 C   0  0  0  0  0  0  0  0  0  0  0  0
    7.2666   -0.9257    0.0000 O   0  0  0  0  0  0  0  0  0  0  0  0
    5.4817    0.9623    0.0000 C   0  0  0  0  0  0  0  0  0  0  0  0
    6.5717    1.9928    0.0000 C   0  0  0  0  0  0  0  0  0  0  0  0
    6.2243    3.4520    0.0000 C   0  0  0  0  0  0  0  0  0  0  0  0
    7.3143    4.4825    0.0000 O   0  0  0  0  0  0  0  0  0  0  0  0
    4.7869    3.8807    0.0000 C   0  0  0  0  0  0  0  0  0  0  0  0
    3.6969    2.8502    0.0000 C   0  0  0  0  0  0  0  0  0  0  0  0
    4.0443    1.3910    0.0000 C   0  0  0  0  0  0  0  0  0  0  0  0
    2.6069    1.8197    0.0000 C   0  0  0  0  0  0  0  0  0  0  0  0
    2.9543    0.3605    0.0000 C   0  0  0  0  0  0  0  0  0  0  0  0
    1.5169    0.7892    0.0000 C   0  0  0  0  0  0  0  0  0  0  0  0
    0.4269   -0.2413    0.0000 C   0  0  0  0  0  0  0  0  0  0  0  0
    0.7743   -1.7005    0.0000 C   0  0  0  0  0  0  0  0  0  0  0  0
   -0.7001   -1.4244    0.0000 C   0  0  0  0  0  0  0  0  0  0  0  0
  2  1  1  6
  2  3  1  0
  3  4  1  0
  4  5  1  0
  5  6  2  0
  5  7  1  0
  7  8  1  0
  8  9  2  0
  8 10  2  0
  8 11  1  0
 11 12  1  0
 11 13  1  0
 11 14  1  0
  2 15  1  0
 15 16  1  6
 16 17  1  0
 18 17  1  6
 18 19  1  0
 19 20  1  1
 20 21  1  1
 20 22  1  0
 22 23  1  1
 22 24  1  0
 24 25  1  1
 25 26  1  0
 26 27  1  1
 26 28  1  0
 28 29  1  0
 29 30  1  0
 30 31  1  6
 30 32  1  0
 32 33  1  6
 33 34  1  0
 34 35  1  0
 35 36  1  6
 35 15  1  0
 35 18  1  0
 32 19  1  0
 30 24  1  0
M  END
>  <MS_ID>  (1265) 
MS1315

>  <SMILES>  (1265) 
C[C@H](CCC(=O)NS(=O)(=O)C(F)(F)F)[C@H]1CC[C@H]2[C@@H]3[C@H](O)[C@H](O)[C@@H]4C[C@H](O)CC[C@]4(C)[C@H]3CC[C@]12C

>  <Structure_dimension>  (1265) 
2D

$$$$
MS1316
     RDKit          2D

 33 37  0  0  0  0  0  0  0  0999 V2000
   -3.4505   -3.2444    0.0000 C   0  0  0  0  0  0  0  0  0  0  0  0
   -2.4721   -2.1074    0.0000 C   0  0  0  0  0  0  0  0  0  0  0  0
   -2.9676   -0.6916    0.0000 C   0  0  0  0  0  0  0  0  0  0  0  0
   -4.4415   -0.4128    0.0000 C   0  0  0  0  0  0  0  0  0  0  0  0
   -4.9370    1.0030    0.0000 C   0  0  0  0  0  0  0  0  0  0  0  0
   -3.9586    2.1400    0.0000 O   0  0  0  0  0  0  0  0  0  0  0  0
   -6.4109    1.2817    0.0000 C   0  0  0  0  0  0  0  0  0  0  0  0
   -7.5027    0.2532    0.0000 C   0  0  0  0  0  0  0  0  0  0  0  0
   -8.8183    0.9738    0.0000 N   0  0  0  0  0  0  0  0  0  0  0  0
   -8.5395    2.4477    0.0000 C   0  0  0  0  0  0  0  0  0  0  0  0
   -7.0517    2.6380    0.0000 N   0  0  0  0  0  0  0  0  0  0  0  0
   -0.9983   -2.3862    0.0000 C   0  0  0  0  0  0  0  0  0  0  0  0
   -0.3575   -3.7424    0.0000 C   0  0  0  0  0  0  0  0  0  0  0  0
    1.1304   -3.5521    0.0000 C   0  0  0  0  0  0  0  0  0  0  0  0
    1.4092   -2.0783    0.0000 C   0  0  0  0  0  0  0  0  0  0  0  0
    2.6910   -1.2992    0.0000 C   0  0  0  0  0  0  0  0  0  0  0  0
    4.0066   -2.0198    0.0000 C   0  0  0  0  0  0  0  0  0  0  0  0
    4.0403   -3.5194    0.0000 O   0  0  0  0  0  0  0  0  0  0  0  0
    5.2884   -1.2408    0.0000 C   0  0  0  0  0  0  0  0  0  0  0  0
    5.2547    0.2589    0.0000 C   0  0  0  0  0  0  0  0  0  0  0  0
    6.5365    1.0379    0.0000 C   0  0  0  0  0  0  0  0  0  0  0  0
    6.5028    2.5375    0.0000 C   0  0  0  0  0  0  0  0  0  0  0  0
    7.7846    3.3166    0.0000 O   0  0  0  0  0  0  0  0  0  0  0  0
    5.1872    3.2581    0.0000 C   0  0  0  0  0  0  0  0  0  0  0  0
    3.9054    2.4791    0.0000 C   0  0  0  0  0  0  0  0  0  0  0  0
    3.9391    0.9794    0.0000 C   0  0  0  0  0  0  0  0  0  0  0  0
    2.6235    1.7000    0.0000 C   0  0  0  0  0  0  0  0  0  0  0  0
    2.6573    0.2004    0.0000 C   0  0  0  0  0  0  0  0  0  0  0  0
    1.3417    0.9210    0.0000 C   0  0  0  0  0  0  0  0  0  0  0  0
    0.0598    0.1420    0.0000 C   0  0  0  0  0  0  0  0  0  0  0  0
   -1.2557    0.8625    0.0000 O   0  0  0  0  0  0  0  0  0  0  0  0
    0.0936   -1.3577    0.0000 C   0  0  0  0  0  0  0  0  0  0  0  0
   -1.2901   -0.7785    0.0000 C   0  0  0  0  0  0  0  0  0  0  0  0
  2  1  1  6
  2  3  1  0
  3  4  1  0
  4  5  1  0
  5  6  2  0
  5  7  1  0
  7  8  2  0
  8  9  1  0
  9 10  2  0
 10 11  1  0
  2 12  1  0
 12 13  1  6
 13 14  1  0
 15 14  1  6
 15 16  1  0
 16 17  1  1
 17 18  1  1
 17 19  1  0
 20 19  1  1
 20 21  1  0
 21 22  1  0
 22 23  1  1
 22 24  1  0
 24 25  1  0
 25 26  1  0
 26 27  1  6
 26 28  1  0
 28 29  1  6
 29 30  1  0
 30 31  1  1
 30 32  1  0
 32 33  1  6
 11  7  1  0
 32 12  1  0
 32 15  1  0
 28 16  1  0
 26 20  1  0
M  END
>  <MS_ID>  (1266) 
MS1316

>  <SMILES>  (1266) 
C[C@H](CCC(=O)c1cnc[nH]1)[C@H]1CC[C@H]2[C@@H]3[C@H](O)C[C@@H]4C[C@H](O)CC[C@]4(C)[C@H]3C[C@H](O)[C@]12C

>  <Structure_dimension>  (1266) 
2D

$$$$
MS1317
     RDKit          2D

 34 38  0  0  0  0  0  0  0  0999 V2000
   -6.8357   -1.9573    0.0000 C   0  0  0  0  0  0  0  0  0  0  0  0
   -5.6382   -1.0540    0.0000 C   0  0  0  0  0  0  0  0  0  0  0  0
   -5.8217    0.4348    0.0000 C   0  0  0  0  0  0  0  0  0  0  0  0
   -7.2027    1.0202    0.0000 C   0  0  0  0  0  0  0  0  0  0  0  0
   -7.3863    2.5089    0.0000 C   0  0  0  0  0  0  0  0  0  0  0  0
   -6.1888    3.4122    0.0000 O   0  0  0  0  0  0  0  0  0  0  0  0
   -8.7673    3.0943    0.0000 O   0  0  0  0  0  0  0  0  0  0  0  0
   -4.2571   -1.6394    0.0000 C   0  0  0  0  0  0  0  0  0  0  0  0
   -3.9190   -3.1008    0.0000 C   0  0  0  0  0  0  0  0  0  0  0  0
   -2.4247   -3.2308    0.0000 C   0  0  0  0  0  0  0  0  0  0  0  0
   -1.8392   -1.8498    0.0000 C   0  0  0  0  0  0  0  0  0  0  0  0
   -0.4212   -1.3607    0.0000 C   0  0  0  0  0  0  0  0  0  0  0  0
    0.7114   -2.3443    0.0000 C   0  0  0  0  0  0  0  0  0  0  0  0
    0.4259   -3.8168    0.0000 O   0  0  0  0  0  0  0  0  0  0  0  0
    2.1294   -1.8552    0.0000 C   0  0  0  0  0  0  0  0  0  0  0  0
    2.4149   -0.3826    0.0000 C   0  0  0  0  0  0  0  0  0  0  0  0
    3.8329    0.1064    0.0000 C   0  0  0  0  0  0  0  0  0  0  0  0
    4.1184    1.5790    0.0000 C   0  0  0  0  0  0  0  0  0  0  0  0
    5.5365    2.0680    0.0000 S   0  0  0  0  0  0  0  0  0  0  0  0
    6.6690    1.0845    0.0000 C   0  0  0  0  0  0  0  0  0  0  0  0
    6.3835   -0.3881    0.0000 C   0  0  0  0  0  0  0  0  0  0  0  0
    7.5161   -1.3716    0.0000 C   0  0  0  0  0  0  0  0  0  0  0  0
    8.9341   -0.8826    0.0000 C   0  0  0  0  0  0  0  0  0  0  0  0
    9.2196    0.5900    0.0000 C   0  0  0  0  0  0  0  0  0  0  0  0
    8.0871    1.5735    0.0000 C   0  0  0  0  0  0  0  0  0  0  0  0
    2.9859    2.5625    0.0000 C   0  0  0  0  0  0  0  0  0  0  0  0
    1.5679    2.0735    0.0000 C   0  0  0  0  0  0  0  0  0  0  0  0
    1.2824    0.6009    0.0000 C   0  0  0  0  0  0  0  0  0  0  0  0
    0.1498    1.5844    0.0000 C   0  0  0  0  0  0  0  0  0  0  0  0
   -0.1357    0.1119    0.0000 C   0  0  0  0  0  0  0  0  0  0  0  0
   -1.2682    1.0954    0.0000 C   0  0  0  0  0  0  0  0  0  0  0  0
   -2.6863    0.6064    0.0000 C   0  0  0  0  0  0  0  0  0  0  0  0
   -2.9718   -0.8662    0.0000 C   0  0  0  0  0  0  0  0  0  0  0  0
   -4.2009   -0.0064    0.0000 C   0  0  0  0  0  0  0  0  0  0  0  0
  2  1  1  6
  2  3  1  0
  3  4  1  0
  4  5  1  0
  5  6  2  0
  5  7  1  0
  2  8  1  0
  8  9  1  6
  9 10  1  0
 11 10  1  6
 11 12  1  0
 12 13  1  1
 13 14  1  6
 13 15  1  0
 16 15  1  1
 16 17  1  0
 17 18  1  0
 18 19  1  1
 19 20  1  0
 20 21  2  0
 21 22  1  0
 22 23  2  0
 23 24  1  0
 24 25  2  0
 18 26  1  0
 26 27  1  0
 27 28  1  0
 28 29  1  6
 28 30  1  0
 30 31  1  6
 31 32  1  0
 32 33  1  0
 33 34  1  6
 33  8  1  0
 33 11  1  0
 30 12  1  0
 28 16  1  0
 25 20  1  0
M  END
>  <MS_ID>  (1267) 
MS1317

>  <SMILES>  (1267) 
C[C@H](CCC(=O)O)[C@H]1CC[C@H]2[C@@H]3[C@@H](O)C[C@@H]4C[C@H](Sc5ccccc5)CC[C@]4(C)[C@H]3CC[C@]12C

>  <Structure_dimension>  (1267) 
2D

$$$$
MS1318
     RDKit          2D

 31 34  0  0  0  0  0  0  0  0999 V2000
   -5.0390   -2.1770    0.0000 C   0  0  0  0  0  0  0  0  0  0  0  0
   -3.9314   -1.1655    0.0000 C   0  0  0  0  0  0  0  0  0  0  0  0
   -4.2536    0.2995    0.0000 C   0  0  0  0  0  0  0  0  0  0  0  0
   -5.6834    0.7530    0.0000 C   0  0  0  0  0  0  0  0  0  0  0  0
   -6.0056    2.2180    0.0000 C   0  0  0  0  0  0  0  0  0  0  0  0
   -4.8980    3.2295    0.0000 O   0  0  0  0  0  0  0  0  0  0  0  0
   -7.4354    2.6714    0.0000 O   0  0  0  0  0  0  0  0  0  0  0  0
   -2.5016   -1.6189    0.0000 C   0  0  0  0  0  0  0  0  0  0  0  0
   -2.0280   -3.0422    0.0000 C   0  0  0  0  0  0  0  0  0  0  0  0
   -0.5280   -3.0316    0.0000 C   0  0  0  0  0  0  0  0  0  0  0  0
   -0.0746   -1.6018    0.0000 C   0  0  0  0  0  0  0  0  0  0  0  0
    1.2914   -0.9820    0.0000 C   0  0  0  0  0  0  0  0  0  0  0  0
    2.5111   -1.8551    0.0000 C   0  0  0  0  0  0  0  0  0  0  0  0
    2.3649   -3.3480    0.0000 C   0  0  0  0  0  0  0  0  0  0  0  0
    0.9989   -3.9677    0.0000 O   0  0  0  0  0  0  0  0  0  0  0  0
    3.5846   -4.2211    0.0000 O   0  0  0  0  0  0  0  0  0  0  0  0
    3.8771   -1.2354    0.0000 C   0  0  0  0  0  0  0  0  0  0  0  0
    4.0234    0.2575    0.0000 C   0  0  0  0  0  0  0  0  0  0  0  0
    5.3894    0.8772    0.0000 C   0  0  0  0  0  0  0  0  0  0  0  0
    5.5356    2.3701    0.0000 C   0  0  0  0  0  0  0  0  0  0  0  0
    6.9016    2.9898    0.0000 O   0  0  0  0  0  0  0  0  0  0  0  0
    4.3159    3.2432    0.0000 C   0  0  0  0  0  0  0  0  0  0  0  0
    2.9499    2.6234    0.0000 C   0  0  0  0  0  0  0  0  0  0  0  0
    2.8037    1.1306    0.0000 C   0  0  0  0  0  0  0  0  0  0  0  0
    1.5839    2.0037    0.0000 C   0  0  0  0  0  0  0  0  0  0  0  0
    1.4377    0.5108    0.0000 C   0  0  0  0  0  0  0  0  0  0  0  0
    0.2180    1.3839    0.0000 C   0  0  0  0  0  0  0  0  0  0  0  0
   -1.1480    0.7642    0.0000 C   0  0  0  0  0  0  0  0  0  0  0  0
   -2.3677    1.6372    0.0000 O   0  0  0  0  0  0  0  0  0  0  0  0
   -1.2943   -0.7287    0.0000 C   0  0  0  0  0  0  0  0  0  0  0  0
   -2.5986    0.0121    0.0000 C   0  0  0  0  0  0  0  0  0  0  0  0
  2  1  1  6
  2  3  1  0
  3  4  1  0
  4  5  1  0
  5  6  2  0
  5  7  1  0
  2  8  1  0
  8  9  1  6
  9 10  1  0
 11 10  1  6
 11 12  1  0
 12 13  1  1
 13 14  1  1
 14 15  2  0
 14 16  1  0
 13 17  1  0
 18 17  1  1
 18 19  1  0
 19 20  1  0
 20 21  1  1
 20 22  1  0
 22 23  1  0
 23 24  1  0
 24 25  1  6
 24 26  1  0
 26 27  1  6
 27 28  1  0
 28 29  1  1
 28 30  1  0
 30 31  1  6
 30  8  1  0
 30 11  1  0
 26 12  1  0
 24 18  1  0
M  END
>  <MS_ID>  (1268) 
MS1318

>  <SMILES>  (1268) 
C[C@H](CCC(=O)O)[C@H]1CC[C@H]2[C@@H]3[C@H](C(=O)O)C[C@@H]4C[C@H](O)CC[C@]4(C)[C@H]3C[C@H](O)[C@]12C

>  <Structure_dimension>  (1268) 
2D

$$$$
MS1319
     RDKit          2D

 31 34  0  0  0  0  0  0  0  0999 V2000
   -5.7175   -1.8176    0.0000 C   0  0  0  0  0  0  0  0  0  0  0  0
   -4.4708   -0.9835    0.0000 C   0  0  0  0  0  0  0  0  0  0  0  0
   -4.5698    0.5132    0.0000 C   0  0  0  0  0  0  0  0  0  0  0  0
   -5.9155    1.1758    0.0000 C   0  0  0  0  0  0  0  0  0  0  0  0
   -6.0145    2.6726    0.0000 C   0  0  0  0  0  0  0  0  0  0  0  0
   -4.7678    3.5067    0.0000 O   0  0  0  0  0  0  0  0  0  0  0  0
   -7.3602    3.3352    0.0000 O   0  0  0  0  0  0  0  0  0  0  0  0
   -3.1251   -1.6462    0.0000 C   0  0  0  0  0  0  0  0  0  0  0  0
   -2.8701   -3.1243    0.0000 C   0  0  0  0  0  0  0  0  0  0  0  0
   -1.3855   -3.3387    0.0000 C   0  0  0  0  0  0  0  0  0  0  0  0
   -0.7229   -1.9930    0.0000 C   0  0  0  0  0  0  0  0  0  0  0  0
    0.7205   -1.5850    0.0000 C   0  0  0  0  0  0  0  0  0  0  0  0
    1.7956   -2.6310    0.0000 C   0  0  0  0  0  0  0  0  0  0  0  0
    1.4272   -4.0851    0.0000 O   0  0  0  0  0  0  0  0  0  0  0  0
    3.2390   -2.2230    0.0000 C   0  0  0  0  0  0  0  0  0  0  0  0
    3.6074   -0.7689    0.0000 C   0  0  0  0  0  0  0  0  0  0  0  0
    5.0508   -0.3609    0.0000 C   0  0  0  0  0  0  0  0  0  0  0  0
    5.4192    1.0932    0.0000 C   0  0  0  0  0  0  0  0  0  0  0  0
    6.8626    1.5012    0.0000 N   0  0  0  0  0  0  0  0  0  0  0  0
    7.9377    0.4551    0.0000 C   0  0  0  0  0  0  0  0  0  0  0  0
    7.2310    2.9552    0.0000 C   0  0  0  0  0  0  0  0  0  0  0  0
    4.3441    2.1392    0.0000 C   0  0  0  0  0  0  0  0  0  0  0  0
    2.9007    1.7312    0.0000 C   0  0  0  0  0  0  0  0  0  0  0  0
    2.5323    0.2771    0.0000 C   0  0  0  0  0  0  0  0  0  0  0  0
    1.4572    1.3232    0.0000 C   0  0  0  0  0  0  0  0  0  0  0  0
    1.0889   -0.1309    0.0000 C   0  0  0  0  0  0  0  0  0  0  0  0
    0.0138    0.9151    0.0000 C   0  0  0  0  0  0  0  0  0  0  0  0
   -1.4296    0.5071    0.0000 C   0  0  0  0  0  0  0  0  0  0  0  0
   -2.5047    1.5532    0.0000 O   0  0  0  0  0  0  0  0  0  0  0  0
   -1.7980   -0.9470    0.0000 C   0  0  0  0  0  0  0  0  0  0  0  0
   -2.9765   -0.0190    0.0000 C   0  0  0  0  0  0  0  0  0  0  0  0
  2  1  1  6
  2  3  1  0
  3  4  1  0
  4  5  1  0
  5  6  2  0
  5  7  1  0
  2  8  1  0
  8  9  1  6
  9 10  1  0
 11 10  1  6
 11 12  1  0
 12 13  1  1
 13 14  1  1
 13 15  1  0
 16 15  1  1
 16 17  1  0
 17 18  1  0
 18 19  1  1
 19 20  1  0
 19 21  1  0
 18 22  1  0
 22 23  1  0
 23 24  1  0
 24 25  1  6
 24 26  1  0
 26 27  1  6
 27 28  1  0
 28 29  1  1
 28 30  1  0
 30 31  1  6
 30  8  1  0
 30 11  1  0
 26 12  1  0
 24 16  1  0
M  END
>  <MS_ID>  (1269) 
MS1319

>  <SMILES>  (1269) 
C[C@H](CCC(=O)O)[C@H]1CC[C@H]2[C@@H]3[C@H](O)C[C@@H]4C[C@H](N(C)C)CC[C@]4(C)[C@H]3C[C@H](O)[C@]12C

>  <Structure_dimension>  (1269) 
2D

$$$$
MS1321
     RDKit          2D

 29 32  0  0  0  0  0  0  0  0999 V2000
   -4.9557    3.9951    0.0000 C   0  0  0  0  0  0  0  0  0  0  0  0
   -4.5252    2.5582    0.0000 S   0  0  0  0  0  0  0  0  0  0  0  0
   -5.5544    1.4669    0.0000 C   0  0  0  0  0  0  0  0  0  0  0  0
   -7.0140    1.8125    0.0000 O   0  0  0  0  0  0  0  0  0  0  0  0
   -5.1238    0.0300    0.0000 C   0  0  0  0  0  0  0  0  0  0  0  0
   -3.6642   -0.3156    0.0000 C   0  0  0  0  0  0  0  0  0  0  0  0
   -3.2337   -1.7525    0.0000 C   0  0  0  0  0  0  0  0  0  0  0  0
   -4.2628   -2.8438    0.0000 C   0  0  0  0  0  0  0  0  0  0  0  0
   -1.7741   -2.0981    0.0000 C   0  0  0  0  0  0  0  0  0  0  0  0
   -1.1957   -3.4822    0.0000 C   0  0  0  0  0  0  0  0  0  0  0  0
    0.2993   -3.3598    0.0000 C   0  0  0  0  0  0  0  0  0  0  0  0
    0.6449   -1.9002    0.0000 C   0  0  0  0  0  0  0  0  0  0  0  0
    1.9609   -1.1803    0.0000 C   0  0  0  0  0  0  0  0  0  0  0  0
    3.2423   -1.9601    0.0000 C   0  0  0  0  0  0  0  0  0  0  0  0
    3.2077   -3.4597    0.0000 O   0  0  0  0  0  0  0  0  0  0  0  0
    4.5583   -1.2402    0.0000 C   0  0  0  0  0  0  0  0  0  0  0  0
    4.5929    0.2594    0.0000 C   0  0  0  0  0  0  0  0  0  0  0  0
    5.9089    0.9792    0.0000 C   0  0  0  0  0  0  0  0  0  0  0  0
    5.9434    2.4788    0.0000 C   0  0  0  0  0  0  0  0  0  0  0  0
    4.6620    3.2586    0.0000 C   0  0  0  0  0  0  0  0  0  0  0  0
    3.3461    2.5387    0.0000 C   0  0  0  0  0  0  0  0  0  0  0  0
    3.3115    1.0391    0.0000 C   0  0  0  0  0  0  0  0  0  0  0  0
    2.0301    1.8189    0.0000 C   0  0  0  0  0  0  0  0  0  0  0  0
    1.9955    0.3193    0.0000 C   0  0  0  0  0  0  0  0  0  0  0  0
    0.7141    1.0990    0.0000 C   0  0  0  0  0  0  0  0  0  0  0  0
   -0.6019    0.3792    0.0000 C   0  0  0  0  0  0  0  0  0  0  0  0
   -1.8833    1.1589    0.0000 O   0  0  0  0  0  0  0  0  0  0  0  0
   -0.6365   -1.1204    0.0000 C   0  0  0  0  0  0  0  0  0  0  0  0
   -1.9924   -0.4789    0.0000 C   0  0  0  0  0  0  0  0  0  0  0  0
  1  2  1  0
  2  3  1  0
  3  4  2  0
  3  5  1  0
  5  6  1  0
  6  7  1  0
  7  8  1  6
  7  9  1  0
  9 10  1  6
 10 11  1  0
 12 11  1  6
 12 13  1  0
 13 14  1  1
 14 15  1  1
 14 16  1  0
 17 16  1  1
 17 18  1  0
 18 19  1  0
 19 20  1  0
 20 21  1  0
 21 22  1  0
 22 23  1  6
 22 24  1  0
 24 25  1  6
 25 26  1  0
 26 27  1  1
 26 28  1  0
 28 29  1  6
 28  9  1  0
 28 12  1  0
 24 13  1  0
 22 17  1  0
M  END
>  <MS_ID>  (1270) 
MS1321

>  <SMILES>  (1270) 
CSC(=O)CC[C@@H](C)[C@H]1CC[C@H]2[C@@H]3[C@H](O)C[C@@H]4CCCC[C@]4(C)[C@H]3C[C@H](O)[C@]12C

>  <Structure_dimension>  (1270) 
2D

$$$$
MS1322
     RDKit          2D

 32 35  0  0  0  0  0  0  0  0999 V2000
   -6.5274   -1.6443    0.0000 C   0  0  0  0  0  0  0  0  0  0  0  0
   -5.2648   -0.8345    0.0000 C   0  0  0  0  0  0  0  0  0  0  0  0
   -5.3348    0.6639    0.0000 C   0  0  0  0  0  0  0  0  0  0  0  0
   -6.6674    1.3524    0.0000 C   0  0  0  0  0  0  0  0  0  0  0  0
   -6.7374    2.8508    0.0000 C   0  0  0  0  0  0  0  0  0  0  0  0
   -5.4748    3.6606    0.0000 O   0  0  0  0  0  0  0  0  0  0  0  0
   -8.0700    3.5394    0.0000 O   0  0  0  0  0  0  0  0  0  0  0  0
   -3.9322   -1.5231    0.0000 C   0  0  0  0  0  0  0  0  0  0  0  0
   -3.7060   -3.0059    0.0000 C   0  0  0  0  0  0  0  0  0  0  0  0
   -2.2258   -3.2490    0.0000 C   0  0  0  0  0  0  0  0  0  0  0  0
   -1.5372   -1.9164    0.0000 C   0  0  0  0  0  0  0  0  0  0  0  0
   -0.0861   -1.5364    0.0000 C   0  0  0  0  0  0  0  0  0  0  0  0
    0.9685   -2.6030    0.0000 C   0  0  0  0  0  0  0  0  0  0  0  0
    0.5720   -4.0497    0.0000 O   0  0  0  0  0  0  0  0  0  0  0  0
    2.4195   -2.2231    0.0000 C   0  0  0  0  0  0  0  0  0  0  0  0
    2.8160   -0.7764    0.0000 C   0  0  0  0  0  0  0  0  0  0  0  0
    4.2671   -0.3964    0.0000 C   0  0  0  0  0  0  0  0  0  0  0  0
    4.6635    1.0502    0.0000 C   0  0  0  0  0  0  0  0  0  0  0  0
    6.1146    1.4302    0.0000 O   0  0  0  0  0  0  0  0  0  0  0  0
    7.1692    0.3636    0.0000 C   0  0  0  0  0  0  0  0  0  0  0  0
    8.6203    0.7436    0.0000 C   0  0  0  0  0  0  0  0  0  0  0  0
    9.0167    2.1902    0.0000 O   0  0  0  0  0  0  0  0  0  0  0  0
    9.6749   -0.3231    0.0000 O   0  0  0  0  0  0  0  0  0  0  0  0
    3.6089    2.1169    0.0000 C   0  0  0  0  0  0  0  0  0  0  0  0
    2.1578    1.7369    0.0000 C   0  0  0  0  0  0  0  0  0  0  0  0
    1.7614    0.2903    0.0000 C   0  0  0  0  0  0  0  0  0  0  0  0
    0.7068    1.3569    0.0000 C   0  0  0  0  0  0  0  0  0  0  0  0
    0.3103   -0.0897    0.0000 C   0  0  0  0  0  0  0  0  0  0  0  0
   -0.7443    0.9770    0.0000 C   0  0  0  0  0  0  0  0  0  0  0  0
   -2.1954    0.5970    0.0000 C   0  0  0  0  0  0  0  0  0  0  0  0
   -2.5918   -0.8497    0.0000 C   0  0  0  0  0  0  0  0  0  0  0  0
   -3.7522    0.1009    0.0000 C   0  0  0  0  0  0  0  0  0  0  0  0
  2  1  1  6
  2  3  1  0
  3  4  1  0
  4  5  1  0
  5  6  2  0
  5  7  1  0
  2  8  1  0
  8  9  1  6
  9 10  1  0
 11 10  1  6
 11 12  1  0
 12 13  1  1
 13 14  1  6
 13 15  1  0
 16 15  1  1
 16 17  1  0
 17 18  1  0
 18 19  1  1
 19 20  1  0
 20 21  1  0
 21 22  2  0
 21 23  1  0
 18 24  1  0
 24 25  1  0
 25 26  1  0
 26 27  1  6
 26 28  1  0
 28 29  1  6
 29 30  1  0
 30 31  1  0
 31 32  1  6
 31  8  1  0
 31 11  1  0
 28 12  1  0
 26 16  1  0
M  END
>  <MS_ID>  (1271) 
MS1322

>  <SMILES>  (1271) 
C[C@H](CCC(=O)O)[C@H]1CC[C@H]2[C@@H]3[C@@H](O)C[C@@H]4C[C@H](OCC(=O)O)CC[C@]4(C)[C@H]3CC[C@]12C

>  <Structure_dimension>  (1271) 
2D

$$$$
MS1323
     RDKit          2D

 32 35  0  0  0  0  0  0  0  0999 V2000
   -9.3885    3.6424    0.0000 C   0  0  0  0  0  0  0  0  0  0  0  0
   -8.7975    2.2638    0.0000 C   0  0  0  0  0  0  0  0  0  0  0  0
   -7.3080    2.0863    0.0000 O   0  0  0  0  0  0  0  0  0  0  0  0
   -6.7170    0.7076    0.0000 N   0  0  0  0  0  0  0  0  0  0  0  0
   -5.2276    0.5301    0.0000 C   0  0  0  0  0  0  0  0  0  0  0  0
   -4.3291    1.7312    0.0000 O   0  0  0  0  0  0  0  0  0  0  0  0
   -4.6366   -0.8486    0.0000 C   0  0  0  0  0  0  0  0  0  0  0  0
   -3.1471   -1.0261    0.0000 C   0  0  0  0  0  0  0  0  0  0  0  0
   -2.5561   -2.4048    0.0000 C   0  0  0  0  0  0  0  0  0  0  0  0
   -3.4546   -3.6059    0.0000 C   0  0  0  0  0  0  0  0  0  0  0  0
   -1.0667   -2.5823    0.0000 C   0  0  0  0  0  0  0  0  0  0  0  0
   -0.3348   -3.8917    0.0000 C   0  0  0  0  0  0  0  0  0  0  0  0
    1.1366   -3.6002    0.0000 C   0  0  0  0  0  0  0  0  0  0  0  0
    1.3141   -2.1108    0.0000 C   0  0  0  0  0  0  0  0  0  0  0  0
    2.5398   -1.2460    0.0000 C   0  0  0  0  0  0  0  0  0  0  0  0
    3.9015   -1.8751    0.0000 C   0  0  0  0  0  0  0  0  0  0  0  0
    4.0375   -3.3690    0.0000 O   0  0  0  0  0  0  0  0  0  0  0  0
    5.1272   -1.0104    0.0000 C   0  0  0  0  0  0  0  0  0  0  0  0
    4.9911    0.4834    0.0000 C   0  0  0  0  0  0  0  0  0  0  0  0
    6.2168    1.3481    0.0000 C   0  0  0  0  0  0  0  0  0  0  0  0
    6.0808    2.8419    0.0000 C   0  0  0  0  0  0  0  0  0  0  0  0
    7.3064    3.7067    0.0000 O   0  0  0  0  0  0  0  0  0  0  0  0
    4.7191    3.4710    0.0000 C   0  0  0  0  0  0  0  0  0  0  0  0
    3.4934    2.6063    0.0000 C   0  0  0  0  0  0  0  0  0  0  0  0
    3.6294    1.1125    0.0000 C   0  0  0  0  0  0  0  0  0  0  0  0
    2.2677    1.7416    0.0000 C   0  0  0  0  0  0  0  0  0  0  0  0
    2.4038    0.2478    0.0000 C   0  0  0  0  0  0  0  0  0  0  0  0
    1.0421    0.8769    0.0000 C   0  0  0  0  0  0  0  0  0  0  0  0
   -0.1836    0.0122    0.0000 C   0  0  0  0  0  0  0  0  0  0  0  0
   -1.5453    0.6413    0.0000 O   0  0  0  0  0  0  0  0  0  0  0  0
   -0.0476   -1.4817    0.0000 C   0  0  0  0  0  0  0  0  0  0  0  0
   -1.4676   -0.9983    0.0000 C   0  0  0  0  0  0  0  0  0  0  0  0
  1  2  1  0
  2  3  1  0
  3  4  1  0
  4  5  1  0
  5  6  2  0
  5  7  1  0
  7  8  1  0
  8  9  1  0
  9 10  1  6
  9 11  1  0
 11 12  1  6
 12 13  1  0
 14 13  1  6
 14 15  1  0
 15 16  1  1
 16 17  1  1
 16 18  1  0
 19 18  1  1
 19 20  1  0
 20 21  1  0
 21 22  1  1
 21 23  1  0
 23 24  1  0
 24 25  1  0
 25 26  1  6
 25 27  1  0
 27 28  1  6
 28 29  1  0
 29 30  1  1
 29 31  1  0
 31 32  1  6
 31 11  1  0
 31 14  1  0
 27 15  1  0
 25 19  1  0
M  END
>  <MS_ID>  (1272) 
MS1323

>  <SMILES>  (1272) 
CCONC(=O)CC[C@@H](C)[C@H]1CC[C@H]2[C@@H]3[C@H](O)C[C@@H]4C[C@H](O)CC[C@]4(C)[C@H]3C[C@H](O)[C@]12C

>  <Structure_dimension>  (1272) 
2D

$$$$
MS1324
     RDKit          2D

 35 38  0  0  0  0  0  0  0  0999 V2000
   -5.6954   -2.5195    0.0000 C   0  0  0  0  0  0  0  0  0  0  0  0
   -4.5584   -1.5411    0.0000 C   0  0  0  0  0  0  0  0  0  0  0  0
   -4.8373   -0.0672    0.0000 C   0  0  0  0  0  0  0  0  0  0  0  0
   -6.2531    0.4282    0.0000 C   0  0  0  0  0  0  0  0  0  0  0  0
   -6.5319    1.9021    0.0000 C   0  0  0  0  0  0  0  0  0  0  0  0
   -5.3949    2.8805    0.0000 O   0  0  0  0  0  0  0  0  0  0  0  0
   -7.9477    2.3975    0.0000 C   0  0  0  0  0  0  0  0  0  0  0  0
   -9.0847    1.4192    0.0000 O   0  0  0  0  0  0  0  0  0  0  0  0
   -8.2265    3.8714    0.0000 O   0  0  0  0  0  0  0  0  0  0  0  0
   -3.1426   -2.0366    0.0000 C   0  0  0  0  0  0  0  0  0  0  0  0
   -2.7113   -3.4732    0.0000 C   0  0  0  0  0  0  0  0  0  0  0  0
   -1.2116   -3.5069    0.0000 C   0  0  0  0  0  0  0  0  0  0  0  0
   -0.7162   -2.0911    0.0000 C   0  0  0  0  0  0  0  0  0  0  0  0
    0.6675   -1.5119    0.0000 C   0  0  0  0  0  0  0  0  0  0  0  0
    1.8609   -2.4206    0.0000 C   0  0  0  0  0  0  0  0  0  0  0  0
    1.6706   -3.9085    0.0000 O   0  0  0  0  0  0  0  0  0  0  0  0
    3.2446   -1.8415    0.0000 C   0  0  0  0  0  0  0  0  0  0  0  0
    4.4380   -2.7502    0.0000 O   0  0  0  0  0  0  0  0  0  0  0  0
    3.4349   -0.3536    0.0000 C   0  0  0  0  0  0  0  0  0  0  0  0
    4.8185    0.2256    0.0000 C   0  0  0  0  0  0  0  0  0  0  0  0
    5.0088    1.7134    0.0000 C   0  0  0  0  0  0  0  0  0  0  0  0
    6.3925    2.2926    0.0000 O   0  0  0  0  0  0  0  0  0  0  0  0
    7.5859    1.3839    0.0000 S   0  0  0  0  0  0  0  0  0  0  0  0
    6.6772    0.1905    0.0000 O   0  0  0  0  0  0  0  0  0  0  0  0
    8.4946    2.5773    0.0000 O   0  0  0  0  0  0  0  0  0  0  0  0
    8.7793    0.4752    0.0000 O   0  0  0  0  0  0  0  0  0  0  0  0
    3.8154    2.6222    0.0000 C   0  0  0  0  0  0  0  0  0  0  0  0
    2.4317    2.0430    0.0000 C   0  0  0  0  0  0  0  0  0  0  0  0
    2.2414    0.5551    0.0000 C   0  0  0  0  0  0  0  0  0  0  0  0
    1.0480    1.4638    0.0000 C   0  0  0  0  0  0  0  0  0  0  0  0
    0.8578   -0.0240    0.0000 C   0  0  0  0  0  0  0  0  0  0  0  0
   -0.3356    0.8847    0.0000 C   0  0  0  0  0  0  0  0  0  0  0  0
   -1.7193    0.3055    0.0000 C   0  0  0  0  0  0  0  0  0  0  0  0
   -1.9096   -1.1824    0.0000 C   0  0  0  0  0  0  0  0  0  0  0  0
   -3.1915   -0.4034    0.0000 C   0  0  0  0  0  0  0  0  0  0  0  0
  2  1  1  6
  2  3  1  0
  3  4  1  0
  4  5  1  0
  5  6  2  0
  5  7  1  0
  7  8  2  0
  7  9  1  0
  2 10  1  0
 10 11  1  6
 11 12  1  0
 13 12  1  6
 13 14  1  0
 14 15  1  1
 15 16  1  1
 15 17  1  0
 17 18  1  1
 17 19  1  0
 19 20  1  1
 20 21  1  0
 21 22  1  1
 22 23  1  0
 23 24  2  0
 23 25  2  0
 23 26  1  0
 21 27  1  0
 27 28  1  0
 28 29  1  0
 29 30  1  6
 29 31  1  0
 31 32  1  6
 32 33  1  0
 33 34  1  0
 34 35  1  6
 34 10  1  0
 34 13  1  0
 31 14  1  0
 29 19  1  0
M  END
>  <MS_ID>  (1273) 
MS1324

>  <SMILES>  (1273) 
C[C@H](CCC(=O)C(=O)O)[C@H]1CC[C@H]2[C@@H]3[C@H](O)[C@H](O)[C@@H]4C[C@H](OS(=O)(=O)O)CC[C@]4(C)[C@H]3CC[C@]12C

>  <Structure_dimension>  (1273) 
2D

$$$$
MS1325
     RDKit          2D

 31 34  0  0  0  0  0  0  0  0999 V2000
   -4.9948   -2.3959    0.0000 C   0  0  0  0  0  0  0  0  0  0  0  0
   -3.9438   -1.3256    0.0000 C   0  0  0  0  0  0  0  0  0  0  0  0
   -4.3452    0.1197    0.0000 C   0  0  0  0  0  0  0  0  0  0  0  0
   -5.7976    0.4947    0.0000 C   0  0  0  0  0  0  0  0  0  0  0  0
   -6.1990    1.9400    0.0000 C   0  0  0  0  0  0  0  0  0  0  0  0
   -5.1480    3.0103    0.0000 O   0  0  0  0  0  0  0  0  0  0  0  0
   -7.6514    2.3150    0.0000 O   0  0  0  0  0  0  0  0  0  0  0  0
   -2.4914   -1.7006    0.0000 C   0  0  0  0  0  0  0  0  0  0  0  0
   -1.9412   -3.0960    0.0000 C   0  0  0  0  0  0  0  0  0  0  0  0
   -0.4440   -3.0039    0.0000 C   0  0  0  0  0  0  0  0  0  0  0  0
   -0.0690   -1.5515    0.0000 C   0  0  0  0  0  0  0  0  0  0  0  0
    1.2613   -0.8584    0.0000 C   0  0  0  0  0  0  0  0  0  0  0  0
    2.5267   -1.6638    0.0000 C   0  0  0  0  0  0  0  0  0  0  0  0
    2.4618   -3.1624    0.0000 O   0  0  0  0  0  0  0  0  0  0  0  0
    3.7272   -3.9679    0.0000 C   0  0  0  0  0  0  0  0  0  0  0  0
    3.6624   -5.4665    0.0000 O   0  0  0  0  0  0  0  0  0  0  0  0
    3.8569   -0.9707    0.0000 C   0  0  0  0  0  0  0  0  0  0  0  0
    3.9218    0.5279    0.0000 C   0  0  0  0  0  0  0  0  0  0  0  0
    5.2520    1.2210    0.0000 C   0  0  0  0  0  0  0  0  0  0  0  0
    5.3169    2.7196    0.0000 C   0  0  0  0  0  0  0  0  0  0  0  0
    6.6471    3.4128    0.0000 O   0  0  0  0  0  0  0  0  0  0  0  0
    4.0515    3.5251    0.0000 C   0  0  0  0  0  0  0  0  0  0  0  0
    2.7212    2.8319    0.0000 C   0  0  0  0  0  0  0  0  0  0  0  0
    2.6564    1.3334    0.0000 C   0  0  0  0  0  0  0  0  0  0  0  0
    1.3910    2.1388    0.0000 C   0  0  0  0  0  0  0  0  0  0  0  0
    1.3261    0.6402    0.0000 C   0  0  0  0  0  0  0  0  0  0  0  0
    0.0607    1.4457    0.0000 C   0  0  0  0  0  0  0  0  0  0  0  0
   -1.2695    0.7525    0.0000 C   0  0  0  0  0  0  0  0  0  0  0  0
   -2.5349    1.5580    0.0000 O   0  0  0  0  0  0  0  0  0  0  0  0
   -1.3344   -0.7460    0.0000 C   0  0  0  0  0  0  0  0  0  0  0  0
   -2.6770   -0.0773    0.0000 C   0  0  0  0  0  0  0  0  0  0  0  0
  2  1  1  6
  2  3  1  0
  3  4  1  0
  4  5  1  0
  5  6  2  0
  5  7  1  0
  2  8  1  0
  8  9  1  6
  9 10  1  0
 11 10  1  6
 11 12  1  0
 12 13  1  1
 13 14  1  1
 14 15  1  0
 15 16  1  0
 13 17  1  0
 18 17  1  1
 18 19  1  0
 19 20  1  0
 20 21  1  1
 20 22  1  0
 22 23  1  0
 23 24  1  0
 24 25  1  6
 24 26  1  0
 26 27  1  6
 27 28  1  0
 28 29  1  1
 28 30  1  0
 30 31  1  6
 30  8  1  0
 30 11  1  0
 26 12  1  0
 24 18  1  0
M  END
>  <MS_ID>  (1274) 
MS1325

>  <SMILES>  (1274) 
C[C@H](CCC(=O)O)[C@H]1CC[C@H]2[C@@H]3[C@H](OCO)C[C@@H]4C[C@H](O)CC[C@]4(C)[C@H]3C[C@H](O)[C@]12C

>  <Structure_dimension>  (1274) 
2D

$$$$
MS1326
     RDKit          2D

 30 33  0  0  0  0  0  0  0  0999 V2000
   -4.9095    4.2465    0.0000 C   0  0  0  0  0  0  0  0  0  0  0  0
   -4.5818    2.7827    0.0000 S   0  0  0  0  0  0  0  0  0  0  0  0
   -5.6855    1.7670    0.0000 C   0  0  0  0  0  0  0  0  0  0  0  0
   -7.1171    2.2151    0.0000 O   0  0  0  0  0  0  0  0  0  0  0  0
   -5.3578    0.3033    0.0000 C   0  0  0  0  0  0  0  0  0  0  0  0
   -3.9263   -0.1448    0.0000 C   0  0  0  0  0  0  0  0  0  0  0  0
   -3.5985   -1.6085    0.0000 C   0  0  0  0  0  0  0  0  0  0  0  0
   -4.7023   -2.6242    0.0000 C   0  0  0  0  0  0  0  0  0  0  0  0
   -2.1670   -2.0566    0.0000 C   0  0  0  0  0  0  0  0  0  0  0  0
   -1.6881   -3.4780    0.0000 C   0  0  0  0  0  0  0  0  0  0  0  0
   -0.1881   -3.4618    0.0000 C   0  0  0  0  0  0  0  0  0  0  0  0
    0.2599   -2.0303    0.0000 C   0  0  0  0  0  0  0  0  0  0  0  0
    1.6235   -1.4054    0.0000 C   0  0  0  0  0  0  0  0  0  0  0  0
    2.8465   -2.2738    0.0000 C   0  0  0  0  0  0  0  0  0  0  0  0
    2.7059   -3.7672    0.0000 O   0  0  0  0  0  0  0  0  0  0  0  0
    4.2102   -1.6489    0.0000 C   0  0  0  0  0  0  0  0  0  0  0  0
    4.3508   -0.1555    0.0000 C   0  0  0  0  0  0  0  0  0  0  0  0
    5.7144    0.4694    0.0000 C   0  0  0  0  0  0  0  0  0  0  0  0
    5.8550    1.9628    0.0000 C   0  0  0  0  0  0  0  0  0  0  0  0
    7.2187    2.5877    0.0000 O   0  0  0  0  0  0  0  0  0  0  0  0
    4.6320    2.8313    0.0000 C   0  0  0  0  0  0  0  0  0  0  0  0
    3.2684    2.2063    0.0000 C   0  0  0  0  0  0  0  0  0  0  0  0
    3.1278    0.7130    0.0000 C   0  0  0  0  0  0  0  0  0  0  0  0
    1.9048    1.5814    0.0000 C   0  0  0  0  0  0  0  0  0  0  0  0
    1.7642    0.0880    0.0000 C   0  0  0  0  0  0  0  0  0  0  0  0
    0.5411    0.9565    0.0000 C   0  0  0  0  0  0  0  0  0  0  0  0
   -0.8225    0.3316    0.0000 C   0  0  0  0  0  0  0  0  0  0  0  0
   -2.0455    1.2001    0.0000 O   0  0  0  0  0  0  0  0  0  0  0  0
   -0.9631   -1.1618    0.0000 C   0  0  0  0  0  0  0  0  0  0  0  0
   -2.2702   -0.4259    0.0000 C   0  0  0  0  0  0  0  0  0  0  0  0
  1  2  1  0
  2  3  1  0
  3  4  2  0
  3  5  1  0
  5  6  1  0
  6  7  1  0
  7  8  1  6
  7  9  1  0
  9 10  1  6
 10 11  1  0
 12 11  1  6
 12 13  1  0
 13 14  1  1
 14 15  1  1
 14 16  1  0
 17 16  1  1
 17 18  1  0
 18 19  1  0
 19 20  2  0
 19 21  1  0
 21 22  1  0
 22 23  1  0
 23 24  1  6
 23 25  1  0
 25 26  1  6
 26 27  1  0
 27 28  1  1
 27 29  1  0
 29 30  1  6
 29  9  1  0
 29 12  1  0
 25 13  1  0
 23 17  1  0
M  END
>  <MS_ID>  (1275) 
MS1326

>  <SMILES>  (1275) 
CSC(=O)CC[C@@H](C)[C@H]1CC[C@H]2[C@@H]3[C@H](O)C[C@@H]4CC(=O)CC[C@]4(C)[C@H]3C[C@H](O)[C@]12C

>  <Structure_dimension>  (1275) 
2D

$$$$
MS1327
     RDKit          2D

 30 33  0  0  0  0  0  0  0  0999 V2000
   -4.5685   -2.6908    0.0000 C   0  0  0  0  0  0  0  0  0  0  0  0
   -3.4838   -1.6548    0.0000 C   0  0  0  0  0  0  0  0  0  0  0  0
   -3.8388   -0.1974    0.0000 C   0  0  0  0  0  0  0  0  0  0  0  0
   -5.2784    0.2240    0.0000 C   0  0  0  0  0  0  0  0  0  0  0  0
   -5.6333    1.6814    0.0000 C   0  0  0  0  0  0  0  0  0  0  0  0
   -4.5486    2.7174    0.0000 O   0  0  0  0  0  0  0  0  0  0  0  0
   -7.0729    2.1027    0.0000 N   0  0  0  0  0  0  0  0  0  0  0  0
   -7.4279    3.5601    0.0000 O   0  0  0  0  0  0  0  0  0  0  0  0
   -2.0442   -2.0761    0.0000 C   0  0  0  0  0  0  0  0  0  0  0  0
   -1.5389   -3.4884    0.0000 C   0  0  0  0  0  0  0  0  0  0  0  0
   -0.0395   -3.4442    0.0000 C   0  0  0  0  0  0  0  0  0  0  0  0
    0.3818   -2.0046    0.0000 C   0  0  0  0  0  0  0  0  0  0  0  0
    1.7336   -1.3544    0.0000 C   0  0  0  0  0  0  0  0  0  0  0  0
    2.9725   -2.1999    0.0000 C   0  0  0  0  0  0  0  0  0  0  0  0
    2.8597   -3.6957    0.0000 O   0  0  0  0  0  0  0  0  0  0  0  0
    4.3243   -1.5497    0.0000 C   0  0  0  0  0  0  0  0  0  0  0  0
    4.4371   -0.0540    0.0000 C   0  0  0  0  0  0  0  0  0  0  0  0
    5.7888    0.5962    0.0000 C   0  0  0  0  0  0  0  0  0  0  0  0
    5.9016    2.0920    0.0000 C   0  0  0  0  0  0  0  0  0  0  0  0
    7.2534    2.7422    0.0000 O   0  0  0  0  0  0  0  0  0  0  0  0
    4.6627    2.9375    0.0000 C   0  0  0  0  0  0  0  0  0  0  0  0
    3.3109    2.2873    0.0000 C   0  0  0  0  0  0  0  0  0  0  0  0
    3.1981    0.7916    0.0000 C   0  0  0  0  0  0  0  0  0  0  0  0
    1.9591    1.6371    0.0000 C   0  0  0  0  0  0  0  0  0  0  0  0
    1.8464    0.1414    0.0000 C   0  0  0  0  0  0  0  0  0  0  0  0
    0.6074    0.9869    0.0000 C   0  0  0  0  0  0  0  0  0  0  0  0
   -0.7444    0.3367    0.0000 C   0  0  0  0  0  0  0  0  0  0  0  0
   -1.9833    1.1823    0.0000 O   0  0  0  0  0  0  0  0  0  0  0  0
   -0.8572   -1.1590    0.0000 C   0  0  0  0  0  0  0  0  0  0  0  0
   -2.1777   -0.4476    0.0000 C   0  0  0  0  0  0  0  0  0  0  0  0
  2  1  1  6
  2  3  1  0
  3  4  1  0
  4  5  1  0
  5  6  2  0
  5  7  1  0
  7  8  1  0
  2  9  1  0
  9 10  1  6
 10 11  1  0
 12 11  1  6
 12 13  1  0
 13 14  1  1
 14 15  1  6
 14 16  1  0
 17 16  1  1
 17 18  1  0
 18 19  1  0
 19 20  1  6
 19 21  1  0
 21 22  1  0
 22 23  1  0
 23 24  1  6
 23 25  1  0
 25 26  1  6
 26 27  1  0
 27 28  1  1
 27 29  1  0
 29 30  1  6
 29  9  1  0
 29 12  1  0
 25 13  1  0
 23 17  1  0
M  END
>  <MS_ID>  (1276) 
MS1327

>  <SMILES>  (1276) 
C[C@H](CCC(=O)NO)[C@H]1CC[C@H]2[C@@H]3[C@@H](O)C[C@@H]4C[C@@H](O)CC[C@]4(C)[C@H]3C[C@H](O)[C@]12C

>  <Structure_dimension>  (1276) 
2D

$$$$
MS1328
     RDKit          2D

 39 43  0  0  0  0  0  0  0  0999 V2000
   -1.4197   -4.1953    0.0000 C   0  0  0  0  0  0  0  0  0  0  0  0
   -0.6598   -2.9020    0.0000 C   0  0  0  0  0  0  0  0  0  0  0  0
   -1.3998   -1.5973    0.0000 C   0  0  0  0  0  0  0  0  0  0  0  0
   -2.8997   -1.5858    0.0000 C   0  0  0  0  0  0  0  0  0  0  0  0
   -3.6398   -0.2811    0.0000 C   0  0  0  0  0  0  0  0  0  0  0  0
   -2.8799    1.0122    0.0000 O   0  0  0  0  0  0  0  0  0  0  0  0
   -5.1397   -0.2696    0.0000 N   0  0  0  0  0  0  0  0  0  0  0  0
   -5.8798    1.0351    0.0000 C   0  0  0  0  0  0  0  0  0  0  0  0
   -5.1199    2.3284    0.0000 C   0  0  0  0  0  0  0  0  0  0  0  0
   -5.8599    3.6331    0.0000 C   0  0  0  0  0  0  0  0  0  0  0  0
   -7.3599    3.6446    0.0000 C   0  0  0  0  0  0  0  0  0  0  0  0
   -8.1198    2.3513    0.0000 C   0  0  0  0  0  0  0  0  0  0  0  0
   -7.3797    1.0466    0.0000 C   0  0  0  0  0  0  0  0  0  0  0  0
   -8.1397   -0.2467    0.0000 S   0  0  0  0  0  0  0  0  0  0  0  0
   -9.4329    0.5133    0.0000 O   0  0  0  0  0  0  0  0  0  0  0  0
   -6.8464   -1.0066    0.0000 O   0  0  0  0  0  0  0  0  0  0  0  0
   -8.8996   -1.5399    0.0000 O   0  0  0  0  0  0  0  0  0  0  0  0
    0.8402   -2.9135    0.0000 C   0  0  0  0  0  0  0  0  0  0  0  0
    1.7126   -4.1337    0.0000 C   0  0  0  0  0  0  0  0  0  0  0  0
    3.1427   -3.6811    0.0000 C   0  0  0  0  0  0  0  0  0  0  0  0
    3.1541   -2.1812    0.0000 C   0  0  0  0  0  0  0  0  0  0  0  0
    4.2765   -1.1860    0.0000 C   0  0  0  0  0  0  0  0  0  0  0  0
    5.6995   -1.6605    0.0000 C   0  0  0  0  0  0  0  0  0  0  0  0
    6.0001   -3.1300    0.0000 O   0  0  0  0  0  0  0  0  0  0  0  0
    6.8219   -0.6653    0.0000 C   0  0  0  0  0  0  0  0  0  0  0  0
    6.5212    0.8042    0.0000 C   0  0  0  0  0  0  0  0  0  0  0  0
    7.6436    1.7994    0.0000 C   0  0  0  0  0  0  0  0  0  0  0  0
    7.3430    3.2689    0.0000 C   0  0  0  0  0  0  0  0  0  0  0  0
    8.4653    4.2641    0.0000 O   0  0  0  0  0  0  0  0  0  0  0  0
    5.9200    3.7434    0.0000 C   0  0  0  0  0  0  0  0  0  0  0  0
    4.7976    2.7482    0.0000 C   0  0  0  0  0  0  0  0  0  0  0  0
    5.0982    1.2787    0.0000 C   0  0  0  0  0  0  0  0  0  0  0  0
    3.6752    1.7531    0.0000 C   0  0  0  0  0  0  0  0  0  0  0  0
    3.9759    0.2835    0.0000 C   0  0  0  0  0  0  0  0  0  0  0  0
    2.5529    0.7579    0.0000 C   0  0  0  0  0  0  0  0  0  0  0  0
    1.4305   -0.2372    0.0000 C   0  0  0  0  0  0  0  0  0  0  0  0
    0.0075    0.2372    0.0000 O   0  0  0  0  0  0  0  0  0  0  0  0
    1.7311   -1.7068    0.0000 C   0  0  0  0  0  0  0  0  0  0  0  0
    0.2663   -1.3837    0.0000 C   0  0  0  0  0  0  0  0  0  0  0  0
  2  1  1  6
  2  3  1  0
  3  4  1  0
  4  5  1  0
  5  6  2  0
  5  7  1  0
  7  8  1  0
  8  9  2  0
  9 10  1  0
 10 11  2  0
 11 12  1  0
 12 13  2  0
 13 14  1  0
 14 15  2  0
 14 16  2  0
 14 17  1  0
  2 18  1  0
 18 19  1  6
 19 20  1  0
 21 20  1  6
 21 22  1  0
 22 23  1  1
 23 24  1  1
 23 25  1  0
 26 25  1  1
 26 27  1  0
 27 28  1  0
 28 29  1  1
 28 30  1  0
 30 31  1  0
 31 32  1  0
 32 33  1  6
 32 34  1  0
 34 35  1  6
 35 36  1  0
 36 37  1  1
 36 38  1  0
 38 39  1  6
 13  8  1  0
 38 18  1  0
 38 21  1  0
 34 22  1  0
 32 26  1  0
M  END
>  <MS_ID>  (1277) 
MS1328

>  <SMILES>  (1277) 
C[C@H](CCC(=O)Nc1ccccc1S(=O)(=O)O)[C@H]1CC[C@H]2[C@@H]3[C@H](O)C[C@@H]4C[C@H](O)CC[C@]4(C)[C@H]3C[C@H](O)[C@]12C

>  <Structure_dimension>  (1277) 
2D

$$$$
MS1329
     RDKit          2D

 29 32  0  0  0  0  0  0  0  0999 V2000
   -4.5229   -2.5430    0.0000 C   0  0  0  0  0  0  0  0  0  0  0  0
   -3.4330   -1.5124    0.0000 C   0  0  0  0  0  0  0  0  0  0  0  0
   -3.7806   -0.0532    0.0000 C   0  0  0  0  0  0  0  0  0  0  0  0
   -5.2181    0.3754    0.0000 C   0  0  0  0  0  0  0  0  0  0  0  0
   -5.5656    1.8346    0.0000 C   0  0  0  0  0  0  0  0  0  0  0  0
   -4.4757    2.8651    0.0000 O   0  0  0  0  0  0  0  0  0  0  0  0
   -7.0031    2.2631    0.0000 O   0  0  0  0  0  0  0  0  0  0  0  0
   -1.9956   -1.9410    0.0000 C   0  0  0  0  0  0  0  0  0  0  0  0
   -1.4974   -3.3559    0.0000 C   0  0  0  0  0  0  0  0  0  0  0  0
    0.0022   -3.3193    0.0000 C   0  0  0  0  0  0  0  0  0  0  0  0
    0.4308   -1.8818    0.0000 C   0  0  0  0  0  0  0  0  0  0  0  0
    1.7858   -1.2385    0.0000 C   0  0  0  0  0  0  0  0  0  0  0  0
    3.0205   -2.0903    0.0000 C   0  0  0  0  0  0  0  0  0  0  0  0
    2.9001   -3.5855    0.0000 O   0  0  0  0  0  0  0  0  0  0  0  0
    4.3755   -1.4470    0.0000 C   0  0  0  0  0  0  0  0  0  0  0  0
    4.4959    0.0482    0.0000 C   0  0  0  0  0  0  0  0  0  0  0  0
    5.8509    0.6915    0.0000 C   0  0  0  0  0  0  0  0  0  0  0  0
    5.9713    2.1867    0.0000 C   0  0  0  0  0  0  0  0  0  0  0  0
    4.7366    3.0385    0.0000 C   0  0  0  0  0  0  0  0  0  0  0  0
    3.3816    2.3952    0.0000 C   0  0  0  0  0  0  0  0  0  0  0  0
    3.2612    0.9000    0.0000 C   0  0  0  0  0  0  0  0  0  0  0  0
    2.0265    1.7518    0.0000 C   0  0  0  0  0  0  0  0  0  0  0  0
    1.9062    0.2567    0.0000 C   0  0  0  0  0  0  0  0  0  0  0  0
    0.6715    1.1085    0.0000 C   0  0  0  0  0  0  0  0  0  0  0  0
   -0.6835    0.4652    0.0000 C   0  0  0  0  0  0  0  0  0  0  0  0
   -1.9182    1.3170    0.0000 O   0  0  0  0  0  0  0  0  0  0  0  0
   -1.7978    2.8121    0.0000 O   0  0  0  0  0  0  0  0  0  0  0  0
   -0.8039   -1.0300    0.0000 C   0  0  0  0  0  0  0  0  0  0  0  0
   -2.1208   -0.3119    0.0000 C   0  0  0  0  0  0  0  0  0  0  0  0
  2  1  1  6
  2  3  1  0
  3  4  1  0
  4  5  1  0
  5  6  2  0
  5  7  1  0
  2  8  1  0
  8  9  1  6
  9 10  1  0
 11 10  1  6
 11 12  1  0
 12 13  1  1
 13 14  1  1
 13 15  1  0
 16 15  1  1
 16 17  1  0
 17 18  1  0
 18 19  1  0
 19 20  1  0
 20 21  1  0
 21 22  1  6
 21 23  1  0
 23 24  1  6
 24 25  1  0
 25 26  1  1
 26 27  1  0
 25 28  1  0
 28 29  1  6
 28  8  1  0
 28 11  1  0
 23 12  1  0
 21 16  1  0
M  END
>  <MS_ID>  (1278) 
MS1329

>  <SMILES>  (1278) 
C[C@H](CCC(=O)O)[C@H]1CC[C@H]2[C@@H]3[C@H](O)C[C@@H]4CCCC[C@]4(C)[C@H]3C[C@H](OO)[C@]12C

>  <Structure_dimension>  (1278) 
2D

$$$$
MS1330
     RDKit          2D

 31 34  0  0  0  0  0  0  0  0999 V2000
   -9.4306    3.6828    0.0000 C   0  0  0  0  0  0  0  0  0  0  0  0
   -8.8425    2.3029    0.0000 C   0  0  0  0  0  0  0  0  0  0  0  0
   -7.3534    2.1223    0.0000 C   0  0  0  0  0  0  0  0  0  0  0  0
   -6.7653    0.7424    0.0000 N   0  0  0  0  0  0  0  0  0  0  0  0
   -5.2762    0.5618    0.0000 C   0  0  0  0  0  0  0  0  0  0  0  0
   -4.3753    1.7610    0.0000 O   0  0  0  0  0  0  0  0  0  0  0  0
   -4.6881   -0.8181    0.0000 C   0  0  0  0  0  0  0  0  0  0  0  0
   -3.1991   -0.9988    0.0000 C   0  0  0  0  0  0  0  0  0  0  0  0
   -2.6109   -2.3787    0.0000 C   0  0  0  0  0  0  0  0  0  0  0  0
   -3.5119   -3.5779    0.0000 C   0  0  0  0  0  0  0  0  0  0  0  0
   -1.1219   -2.5593    0.0000 C   0  0  0  0  0  0  0  0  0  0  0  0
   -0.3927   -3.8702    0.0000 C   0  0  0  0  0  0  0  0  0  0  0  0
    1.0793   -3.5818    0.0000 C   0  0  0  0  0  0  0  0  0  0  0  0
    1.2599   -2.0927    0.0000 C   0  0  0  0  0  0  0  0  0  0  0  0
    2.4874   -1.2306    0.0000 C   0  0  0  0  0  0  0  0  0  0  0  0
    3.8478   -1.8625    0.0000 C   0  0  0  0  0  0  0  0  0  0  0  0
    3.9807   -3.3566    0.0000 O   0  0  0  0  0  0  0  0  0  0  0  0
    5.0753   -1.0003    0.0000 C   0  0  0  0  0  0  0  0  0  0  0  0
    4.9423    0.4938    0.0000 C   0  0  0  0  0  0  0  0  0  0  0  0
    6.1698    1.3559    0.0000 C   0  0  0  0  0  0  0  0  0  0  0  0
    6.0369    2.8500    0.0000 C   0  0  0  0  0  0  0  0  0  0  0  0
    7.2644    3.7122    0.0000 O   0  0  0  0  0  0  0  0  0  0  0  0
    4.6765    3.4820    0.0000 C   0  0  0  0  0  0  0  0  0  0  0  0
    3.4490    2.6198    0.0000 C   0  0  0  0  0  0  0  0  0  0  0  0
    3.5820    1.1257    0.0000 C   0  0  0  0  0  0  0  0  0  0  0  0
    2.2216    1.7576    0.0000 C   0  0  0  0  0  0  0  0  0  0  0  0
    2.3545    0.2635    0.0000 C   0  0  0  0  0  0  0  0  0  0  0  0
    0.9941    0.8955    0.0000 C   0  0  0  0  0  0  0  0  0  0  0  0
   -0.2334    0.0333    0.0000 C   0  0  0  0  0  0  0  0  0  0  0  0
   -0.1005   -1.4608    0.0000 C   0  0  0  0  0  0  0  0  0  0  0  0
   -1.5195   -0.9745    0.0000 C   0  0  0  0  0  0  0  0  0  0  0  0
  1  2  1  0
  2  3  1  0
  3  4  1  0
  4  5  1  0
  5  6  2  0
  5  7  1  0
  7  8  1  0
  8  9  1  0
  9 10  1  6
  9 11  1  0
 11 12  1  6
 12 13  1  0
 14 13  1  6
 14 15  1  0
 15 16  1  1
 16 17  1  1
 16 18  1  0
 19 18  1  1
 19 20  1  0
 20 21  1  0
 21 22  1  1
 21 23  1  0
 23 24  1  0
 24 25  1  0
 25 26  1  6
 25 27  1  0
 27 28  1  6
 28 29  1  0
 29 30  1  0
 30 31  1  6
 30 11  1  0
 30 14  1  0
 27 15  1  0
 25 19  1  0
M  END
>  <MS_ID>  (1279) 
MS1330

>  <SMILES>  (1279) 
CCCNC(=O)CC[C@@H](C)[C@H]1CC[C@H]2[C@@H]3[C@H](O)C[C@@H]4C[C@H](O)CC[C@]4(C)[C@H]3CC[C@]12C

>  <Structure_dimension>  (1279) 
2D

$$$$
MS1331
     RDKit          2D

 36 40  0  0  0  0  0  0  0  0999 V2000
   -1.7029   -4.5740    0.0000 C   0  0  0  0  0  0  0  0  0  0  0  0
   -1.0663   -3.2157    0.0000 C   0  0  0  0  0  0  0  0  0  0  0  0
   -1.9243   -1.9853    0.0000 C   0  0  0  0  0  0  0  0  0  0  0  0
   -3.4188   -2.1132    0.0000 C   0  0  0  0  0  0  0  0  0  0  0  0
   -4.2768   -0.8828    0.0000 C   0  0  0  0  0  0  0  0  0  0  0  0
   -3.6403    0.4755    0.0000 O   0  0  0  0  0  0  0  0  0  0  0  0
   -5.7714   -1.0106    0.0000 N   0  0  0  0  0  0  0  0  0  0  0  0
   -6.6293    0.2198    0.0000 C   0  0  0  0  0  0  0  0  0  0  0  0
   -5.9928    1.5780    0.0000 C   0  0  0  0  0  0  0  0  0  0  0  0
   -6.8507    2.8084    0.0000 C   0  0  0  0  0  0  0  0  0  0  0  0
   -8.3453    2.6806    0.0000 C   0  0  0  0  0  0  0  0  0  0  0  0
   -9.2033    3.9110    0.0000 Cl  0  0  0  0  0  0  0  0  0  0  0  0
   -8.9819    1.3224    0.0000 C   0  0  0  0  0  0  0  0  0  0  0  0
   -8.1239    0.0920    0.0000 C   0  0  0  0  0  0  0  0  0  0  0  0
    0.4282   -3.0879    0.0000 C   0  0  0  0  0  0  0  0  0  0  0  0
    1.4101   -4.2219    0.0000 C   0  0  0  0  0  0  0  0  0  0  0  0
    2.7920   -3.6385    0.0000 C   0  0  0  0  0  0  0  0  0  0  0  0
    2.6642   -2.1439    0.0000 C   0  0  0  0  0  0  0  0  0  0  0  0
    3.6893   -1.0489    0.0000 C   0  0  0  0  0  0  0  0  0  0  0  0
    5.1502   -1.3891    0.0000 C   0  0  0  0  0  0  0  0  0  0  0  0
    5.5860   -2.8244    0.0000 O   0  0  0  0  0  0  0  0  0  0  0  0
    6.1753   -0.2941    0.0000 C   0  0  0  0  0  0  0  0  0  0  0  0
    5.7395    1.1412    0.0000 C   0  0  0  0  0  0  0  0  0  0  0  0
    6.7647    2.2362    0.0000 C   0  0  0  0  0  0  0  0  0  0  0  0
    6.3289    3.6716    0.0000 C   0  0  0  0  0  0  0  0  0  0  0  0
    7.3540    4.7666    0.0000 O   0  0  0  0  0  0  0  0  0  0  0  0
    4.8680    4.0118    0.0000 C   0  0  0  0  0  0  0  0  0  0  0  0
    3.8429    2.9168    0.0000 C   0  0  0  0  0  0  0  0  0  0  0  0
    4.2787    1.4815    0.0000 C   0  0  0  0  0  0  0  0  0  0  0  0
    2.8178    1.8217    0.0000 C   0  0  0  0  0  0  0  0  0  0  0  0
    3.2535    0.3864    0.0000 C   0  0  0  0  0  0  0  0  0  0  0  0
    1.7926    0.7267    0.0000 C   0  0  0  0  0  0  0  0  0  0  0  0
    0.7675   -0.3683    0.0000 C   0  0  0  0  0  0  0  0  0  0  0  0
   -0.6934   -0.0281    0.0000 O   0  0  0  0  0  0  0  0  0  0  0  0
    1.2033   -1.8036    0.0000 C   0  0  0  0  0  0  0  0  0  0  0  0
   -0.2852   -1.6180    0.0000 C   0  0  0  0  0  0  0  0  0  0  0  0
  2  1  1  6
  2  3  1  0
  3  4  1  0
  4  5  1  0
  5  6  2  0
  5  7  1  0
  7  8  1  0
  8  9  2  0
  9 10  1  0
 10 11  2  0
 11 12  1  0
 11 13  1  0
 13 14  2  0
  2 15  1  0
 15 16  1  6
 16 17  1  0
 18 17  1  6
 18 19  1  0
 19 20  1  1
 20 21  1  1
 20 22  1  0
 23 22  1  1
 23 24  1  0
 24 25  1  0
 25 26  1  1
 25 27  1  0
 27 28  1  0
 28 29  1  0
 29 30  1  6
 29 31  1  0
 31 32  1  6
 32 33  1  0
 33 34  1  1
 33 35  1  0
 35 36  1  6
 14  8  1  0
 35 15  1  0
 35 18  1  0
 31 19  1  0
 29 23  1  0
M  END
>  <MS_ID>  (1280) 
MS1331

>  <SMILES>  (1280) 
C[C@H](CCC(=O)Nc1ccc(Cl)cc1)[C@H]1CC[C@H]2[C@@H]3[C@H](O)C[C@@H]4C[C@H](O)CC[C@]4(C)[C@H]3C[C@H](O)[C@]12C

>  <Structure_dimension>  (1280) 
2D

$$$$
MS1332
     RDKit          2D

 32 35  0  0  0  0  0  0  0  0999 V2000
   -3.1421   -3.6694    0.0000 C   0  0  0  0  0  0  0  0  0  0  0  0
   -2.2628   -2.4541    0.0000 C   0  0  0  0  0  0  0  0  0  0  0  0
   -2.8756   -1.0850    0.0000 C   0  0  0  0  0  0  0  0  0  0  0  0
   -4.3676   -0.9311    0.0000 C   0  0  0  0  0  0  0  0  0  0  0  0
   -4.9804    0.4380    0.0000 C   0  0  0  0  0  0  0  0  0  0  0  0
   -4.1011    1.6532    0.0000 O   0  0  0  0  0  0  0  0  0  0  0  0
   -6.4725    0.5919    0.0000 C   0  0  0  0  0  0  0  0  0  0  0  0
   -7.0853    1.9610    0.0000 C   0  0  0  0  0  0  0  0  0  0  0  0
   -8.5774    2.1149    0.0000 C   0  0  0  0  0  0  0  0  0  0  0  0
   -9.4567    0.8996    0.0000 O   0  0  0  0  0  0  0  0  0  0  0  0
   -9.1901    3.4840    0.0000 O   0  0  0  0  0  0  0  0  0  0  0  0
   -0.7707   -2.6080    0.0000 C   0  0  0  0  0  0  0  0  0  0  0  0
   -0.0182   -3.9056    0.0000 C   0  0  0  0  0  0  0  0  0  0  0  0
    1.4484   -3.5909    0.0000 C   0  0  0  0  0  0  0  0  0  0  0  0
    1.6023   -2.0988    0.0000 C   0  0  0  0  0  0  0  0  0  0  0  0
    2.8141   -1.2147    0.0000 C   0  0  0  0  0  0  0  0  0  0  0  0
    4.1856   -1.8222    0.0000 C   0  0  0  0  0  0  0  0  0  0  0  0
    4.3453   -3.3136    0.0000 O   0  0  0  0  0  0  0  0  0  0  0  0
    5.3974   -0.9381    0.0000 C   0  0  0  0  0  0  0  0  0  0  0  0
    5.2377    0.5533    0.0000 C   0  0  0  0  0  0  0  0  0  0  0  0
    6.4495    1.4374    0.0000 C   0  0  0  0  0  0  0  0  0  0  0  0
    6.2898    2.9289    0.0000 C   0  0  0  0  0  0  0  0  0  0  0  0
    7.5016    3.8129    0.0000 O   0  0  0  0  0  0  0  0  0  0  0  0
    4.9183    3.5363    0.0000 C   0  0  0  0  0  0  0  0  0  0  0  0
    3.7065    2.6522    0.0000 C   0  0  0  0  0  0  0  0  0  0  0  0
    3.8662    1.1608    0.0000 C   0  0  0  0  0  0  0  0  0  0  0  0
    2.4947    1.7682    0.0000 C   0  0  0  0  0  0  0  0  0  0  0  0
    2.6544    0.2767    0.0000 C   0  0  0  0  0  0  0  0  0  0  0  0
    1.2829    0.8842    0.0000 C   0  0  0  0  0  0  0  0  0  0  0  0
    0.0711    0.0001    0.0000 C   0  0  0  0  0  0  0  0  0  0  0  0
    0.2308   -1.4914    0.0000 C   0  0  0  0  0  0  0  0  0  0  0  0
   -1.1967   -1.0306    0.0000 C   0  0  0  0  0  0  0  0  0  0  0  0
  2  1  1  6
  2  3  1  0
  3  4  1  0
  4  5  1  0
  5  6  2  0
  5  7  1  0
  7  8  1  0
  8  9  1  0
  9 10  2  0
  9 11  1  0
  2 12  1  0
 12 13  1  6
 13 14  1  0
 15 14  1  6
 15 16  1  0
 16 17  1  1
 17 18  1  6
 17 19  1  0
 20 19  1  1
 20 21  1  0
 21 22  1  0
 22 23  2  0
 22 24  1  0
 24 25  1  0
 25 26  1  0
 26 27  1  6
 26 28  1  0
 28 29  1  6
 29 30  1  0
 30 31  1  0
 31 32  1  6
 31 12  1  0
 31 15  1  0
 28 16  1  0
 26 20  1  0
M  END
>  <MS_ID>  (1281) 
MS1332

>  <SMILES>  (1281) 
C[C@H](CCC(=O)CCC(=O)O)[C@H]1CC[C@H]2[C@@H]3[C@@H](O)C[C@@H]4CC(=O)CC[C@]4(C)[C@H]3CC[C@]12C

>  <Structure_dimension>  (1281) 
2D

$$$$
MS1333
     RDKit          2D

 27 30  0  0  0  0  0  0  0  0999 V2000
   -4.7316   -2.2462    0.0000 C   0  0  0  0  0  0  0  0  0  0  0  0
   -3.6106   -1.2495    0.0000 C   0  0  0  0  0  0  0  0  0  0  0  0
   -3.9133    0.2196    0.0000 C   0  0  0  0  0  0  0  0  0  0  0  0
   -5.3370    0.6920    0.0000 C   0  0  0  0  0  0  0  0  0  0  0  0
   -5.6397    2.1612    0.0000 C   0  0  0  0  0  0  0  0  0  0  0  0
   -7.0634    2.6336    0.0000 O   0  0  0  0  0  0  0  0  0  0  0  0
   -4.5188    3.1579    0.0000 Cl  0  0  0  0  0  0  0  0  0  0  0  0
   -2.1870   -1.7219    0.0000 C   0  0  0  0  0  0  0  0  0  0  0  0
   -1.7323   -3.1514    0.0000 C   0  0  0  0  0  0  0  0  0  0  0  0
   -0.2324   -3.1607    0.0000 C   0  0  0  0  0  0  0  0  0  0  0  0
    0.2401   -1.7371    0.0000 C   0  0  0  0  0  0  0  0  0  0  0  0
    1.6141   -1.1355    0.0000 C   0  0  0  0  0  0  0  0  0  0  0  0
    2.8222   -2.0247    0.0000 C   0  0  0  0  0  0  0  0  0  0  0  0
    2.6561   -3.5155    0.0000 O   0  0  0  0  0  0  0  0  0  0  0  0
    4.1962   -1.4232    0.0000 C   0  0  0  0  0  0  0  0  0  0  0  0
    4.3623    0.0676    0.0000 C   0  0  0  0  0  0  0  0  0  0  0  0
    5.7364    0.6691    0.0000 C   0  0  0  0  0  0  0  0  0  0  0  0
    5.9025    2.1599    0.0000 C   0  0  0  0  0  0  0  0  0  0  0  0
    4.6945    3.0491    0.0000 C   0  0  0  0  0  0  0  0  0  0  0  0
    3.3204    2.4476    0.0000 C   0  0  0  0  0  0  0  0  0  0  0  0
    3.1543    0.9568    0.0000 C   0  0  0  0  0  0  0  0  0  0  0  0
    1.9463    1.8460    0.0000 C   0  0  0  0  0  0  0  0  0  0  0  0
    1.7802    0.3553    0.0000 C   0  0  0  0  0  0  0  0  0  0  0  0
    0.5722    1.2445    0.0000 C   0  0  0  0  0  0  0  0  0  0  0  0
   -0.8019    0.6429    0.0000 C   0  0  0  0  0  0  0  0  0  0  0  0
   -0.9680   -0.8478    0.0000 C   0  0  0  0  0  0  0  0  0  0  0  0
   -2.2623   -0.0897    0.0000 C   0  0  0  0  0  0  0  0  0  0  0  0
  2  1  1  6
  2  3  1  0
  3  4  1  0
  4  5  1  0
  5  6  2  0
  5  7  1  0
  2  8  1  0
  8  9  1  6
  9 10  1  0
 11 10  1  6
 11 12  1  0
 12 13  1  1
 13 14  1  6
 13 15  1  0
 16 15  1  1
 16 17  1  0
 17 18  1  0
 18 19  1  0
 19 20  1  0
 20 21  1  0
 21 22  1  6
 21 23  1  0
 23 24  1  6
 24 25  1  0
 25 26  1  0
 26 27  1  6
 26  8  1  0
 26 11  1  0
 23 12  1  0
 21 16  1  0
M  END
>  <MS_ID>  (1282) 
MS1333

>  <SMILES>  (1282) 
C[C@H](CCC(=O)Cl)[C@H]1CC[C@H]2[C@@H]3[C@@H](O)C[C@@H]4CCCC[C@]4(C)[C@H]3CC[C@]12C

>  <Structure_dimension>  (1282) 
2D

$$$$
MS1334
     RDKit          2D

 31 34  0  0  0  0  0  0  0  0999 V2000
   -6.1759   -1.7972    0.0000 C   0  0  0  0  0  0  0  0  0  0  0  0
   -4.9432   -0.9425    0.0000 C   0  0  0  0  0  0  0  0  0  0  0  0
   -5.0671    0.5524    0.0000 C   0  0  0  0  0  0  0  0  0  0  0  0
   -6.4237    1.1926    0.0000 C   0  0  0  0  0  0  0  0  0  0  0  0
   -6.5476    2.6874    0.0000 C   0  0  0  0  0  0  0  0  0  0  0  0
   -5.3149    3.5422    0.0000 O   0  0  0  0  0  0  0  0  0  0  0  0
   -7.9041    3.3276    0.0000 O   0  0  0  0  0  0  0  0  0  0  0  0
   -3.5867   -1.5826    0.0000 C   0  0  0  0  0  0  0  0  0  0  0  0
   -3.3072   -3.0563    0.0000 C   0  0  0  0  0  0  0  0  0  0  0  0
   -1.8192   -3.2459    0.0000 C   0  0  0  0  0  0  0  0  0  0  0  0
   -1.1791   -1.8894    0.0000 C   0  0  0  0  0  0  0  0  0  0  0  0
    0.2574   -1.4574    0.0000 C   0  0  0  0  0  0  0  0  0  0  0  0
    1.3497   -2.4854    0.0000 C   0  0  0  0  0  0  0  0  0  0  0  0
    1.0056   -3.9454    0.0000 O   0  0  0  0  0  0  0  0  0  0  0  0
    2.7862   -2.0534    0.0000 C   0  0  0  0  0  0  0  0  0  0  0  0
    3.1303   -0.5934    0.0000 C   0  0  0  0  0  0  0  0  0  0  0  0
    4.5667   -0.1614    0.0000 C   0  0  0  0  0  0  0  0  0  0  0  0
    4.9108    1.2986    0.0000 C   0  0  0  0  0  0  0  0  0  0  0  0
    6.3473    1.7305    0.0000 N   0  0  0  0  0  0  0  0  0  0  0  0
    7.4396    0.7025    0.0000 C   0  0  0  0  0  0  0  0  0  0  0  0
    8.8761    1.1345    0.0000 C   0  0  0  0  0  0  0  0  0  0  0  0
    9.9684    0.1065    0.0000 N   0  0  0  0  0  0  0  0  0  0  0  0
    3.8185    2.3266    0.0000 C   0  0  0  0  0  0  0  0  0  0  0  0
    2.3820    1.8946    0.0000 C   0  0  0  0  0  0  0  0  0  0  0  0
    2.0379    0.4346    0.0000 C   0  0  0  0  0  0  0  0  0  0  0  0
    0.9456    1.4626    0.0000 C   0  0  0  0  0  0  0  0  0  0  0  0
    0.6015    0.0026    0.0000 C   0  0  0  0  0  0  0  0  0  0  0  0
   -0.4909    1.0306    0.0000 C   0  0  0  0  0  0  0  0  0  0  0  0
   -1.9273    0.5986    0.0000 C   0  0  0  0  0  0  0  0  0  0  0  0
   -2.2714   -0.8614    0.0000 C   0  0  0  0  0  0  0  0  0  0  0  0
   -3.4652    0.0468    0.0000 C   0  0  0  0  0  0  0  0  0  0  0  0
  2  1  1  6
  2  3  1  0
  3  4  1  0
  4  5  1  0
  5  6  2  0
  5  7  1  0
  2  8  1  0
  8  9  1  6
  9 10  1  0
 11 10  1  6
 11 12  1  0
 12 13  1  1
 13 14  1  6
 13 15  1  0
 16 15  1  1
 16 17  1  0
 17 18  1  0
 18 19  1  1
 19 20  1  0
 20 21  1  0
 21 22  1  0
 18 23  1  0
 23 24  1  0
 24 25  1  0
 25 26  1  6
 25 27  1  0
 27 28  1  6
 28 29  1  0
 29 30  1  0
 30 31  1  6
 30  8  1  0
 30 11  1  0
 27 12  1  0
 25 16  1  0
M  END
>  <MS_ID>  (1283) 
MS1334

>  <SMILES>  (1283) 
C[C@H](CCC(=O)O)[C@H]1CC[C@H]2[C@@H]3[C@@H](O)C[C@@H]4C[C@H](NCCN)CC[C@]4(C)[C@H]3CC[C@]12C

>  <Structure_dimension>  (1283) 
2D

$$$$
MS1335
     RDKit          2D

 29 32  0  0  0  0  0  0  0  0999 V2000
   -4.6551   -2.6180    0.0000 C   0  0  0  0  0  0  0  0  0  0  0  0
   -3.5633   -1.5894    0.0000 C   0  0  0  0  0  0  0  0  0  0  0  0
   -3.9081   -0.1296    0.0000 C   0  0  0  0  0  0  0  0  0  0  0  0
   -5.3448    0.3016    0.0000 C   0  0  0  0  0  0  0  0  0  0  0  0
   -5.6897    1.7615    0.0000 C   0  0  0  0  0  0  0  0  0  0  0  0
   -4.5979    2.7900    0.0000 O   0  0  0  0  0  0  0  0  0  0  0  0
   -7.1264    2.1927    0.0000 C   0  0  0  0  0  0  0  0  0  0  0  0
   -7.4712    3.6525    0.0000 S   0  0  0  0  0  0  0  0  0  0  0  0
   -2.1266   -2.0207    0.0000 C   0  0  0  0  0  0  0  0  0  0  0  0
   -1.6310   -3.4364    0.0000 C   0  0  0  0  0  0  0  0  0  0  0  0
   -0.1314   -3.4026    0.0000 C   0  0  0  0  0  0  0  0  0  0  0  0
    0.2998   -1.9659    0.0000 C   0  0  0  0  0  0  0  0  0  0  0  0
    1.6561   -1.3251    0.0000 C   0  0  0  0  0  0  0  0  0  0  0  0
    2.8892   -2.1792    0.0000 C   0  0  0  0  0  0  0  0  0  0  0  0
    2.7660   -3.6741    0.0000 O   0  0  0  0  0  0  0  0  0  0  0  0
    4.2454   -1.5383    0.0000 C   0  0  0  0  0  0  0  0  0  0  0  0
    4.3685   -0.0434    0.0000 C   0  0  0  0  0  0  0  0  0  0  0  0
    5.7247    0.5975    0.0000 C   0  0  0  0  0  0  0  0  0  0  0  0
    5.8478    2.0924    0.0000 C   0  0  0  0  0  0  0  0  0  0  0  0
    7.2040    2.7332    0.0000 O   0  0  0  0  0  0  0  0  0  0  0  0
    4.6147    2.9465    0.0000 C   0  0  0  0  0  0  0  0  0  0  0  0
    3.2585    2.3056    0.0000 C   0  0  0  0  0  0  0  0  0  0  0  0
    3.1354    0.8107    0.0000 C   0  0  0  0  0  0  0  0  0  0  0  0
    1.9023    1.6648    0.0000 C   0  0  0  0  0  0  0  0  0  0  0  0
    1.7792    0.1699    0.0000 C   0  0  0  0  0  0  0  0  0  0  0  0
    0.5461    1.0239    0.0000 C   0  0  0  0  0  0  0  0  0  0  0  0
   -0.8101    0.3831    0.0000 C   0  0  0  0  0  0  0  0  0  0  0  0
   -0.9333   -1.1118    0.0000 C   0  0  0  0  0  0  0  0  0  0  0  0
   -2.2489   -0.3913    0.0000 C   0  0  0  0  0  0  0  0  0  0  0  0
  2  1  1  6
  2  3  1  0
  3  4  1  0
  4  5  1  0
  5  6  2  0
  5  7  1  0
  7  8  1  0
  2  9  1  0
  9 10  1  6
 10 11  1  0
 12 11  1  6
 12 13  1  0
 13 14  1  1
 14 15  1  6
 14 16  1  0
 17 16  1  1
 17 18  1  0
 18 19  1  0
 19 20  1  6
 19 21  1  0
 21 22  1  0
 22 23  1  0
 23 24  1  6
 23 25  1  0
 25 26  1  6
 26 27  1  0
 27 28  1  0
 28 29  1  6
 28  9  1  0
 28 12  1  0
 25 13  1  0
 23 17  1  0
M  END
>  <MS_ID>  (1284) 
MS1335

>  <SMILES>  (1284) 
C[C@H](CCC(=O)CS)[C@H]1CC[C@H]2[C@@H]3[C@@H](O)C[C@@H]4C[C@@H](O)CC[C@]4(C)[C@H]3CC[C@]12C

>  <Structure_dimension>  (1284) 
2D

$$$$
MS1336
     RDKit          2D

 31 34  0  0  0  0  0  0  0  0999 V2000
   -4.0382   -3.1592    0.0000 C   0  0  0  0  0  0  0  0  0  0  0  0
   -3.0416   -2.0381    0.0000 C   0  0  0  0  0  0  0  0  0  0  0  0
   -3.5143   -0.6145    0.0000 C   0  0  0  0  0  0  0  0  0  0  0  0
   -4.9835   -0.3121    0.0000 C   0  0  0  0  0  0  0  0  0  0  0  0
   -5.4561    1.1115    0.0000 C   0  0  0  0  0  0  0  0  0  0  0  0
   -4.4596    2.2326    0.0000 O   0  0  0  0  0  0  0  0  0  0  0  0
   -6.9253    1.4140    0.0000 C   0  0  0  0  0  0  0  0  0  0  0  0
   -7.3980    2.8376    0.0000 C   0  0  0  0  0  0  0  0  0  0  0  0
   -8.8672    3.1400    0.0000 O   0  0  0  0  0  0  0  0  0  0  0  0
   -1.5724   -2.3406    0.0000 C   0  0  0  0  0  0  0  0  0  0  0  0
   -0.9536   -3.7070    0.0000 C   0  0  0  0  0  0  0  0  0  0  0  0
    0.5372   -3.5406    0.0000 C   0  0  0  0  0  0  0  0  0  0  0  0
    0.8396   -2.0714    0.0000 C   0  0  0  0  0  0  0  0  0  0  0  0
    2.1338   -1.3131    0.0000 C   0  0  0  0  0  0  0  0  0  0  0  0
    3.4377   -2.0548    0.0000 C   0  0  0  0  0  0  0  0  0  0  0  0
    3.4473   -3.5547    0.0000 O   0  0  0  0  0  0  0  0  0  0  0  0
    4.7319   -1.2965    0.0000 C   0  0  0  0  0  0  0  0  0  0  0  0
    4.7223    0.2035    0.0000 C   0  0  0  0  0  0  0  0  0  0  0  0
    6.0165    0.9618    0.0000 C   0  0  0  0  0  0  0  0  0  0  0  0
    6.0069    2.4618    0.0000 C   0  0  0  0  0  0  0  0  0  0  0  0
    7.3011    3.2201    0.0000 O   0  0  0  0  0  0  0  0  0  0  0  0
    4.7030    3.2034    0.0000 C   0  0  0  0  0  0  0  0  0  0  0  0
    3.4088    2.4451    0.0000 C   0  0  0  0  0  0  0  0  0  0  0  0
    3.4184    0.9452    0.0000 C   0  0  0  0  0  0  0  0  0  0  0  0
    2.1146    1.6868    0.0000 C   0  0  0  0  0  0  0  0  0  0  0  0
    2.1242    0.1869    0.0000 C   0  0  0  0  0  0  0  0  0  0  0  0
    0.8204    0.9285    0.0000 C   0  0  0  0  0  0  0  0  0  0  0  0
   -0.4738    0.1702    0.0000 C   0  0  0  0  0  0  0  0  0  0  0  0
   -1.7776    0.9119    0.0000 O   0  0  0  0  0  0  0  0  0  0  0  0
   -0.4642   -1.3298    0.0000 C   0  0  0  0  0  0  0  0  0  0  0  0
   -1.8384   -0.7284    0.0000 C   0  0  0  0  0  0  0  0  0  0  0  0
  2  1  1  6
  2  3  1  0
  3  4  1  0
  4  5  1  0
  5  6  2  0
  5  7  1  0
  7  8  1  0
  8  9  1  0
  2 10  1  0
 10 11  1  6
 11 12  1  0
 13 12  1  6
 13 14  1  0
 14 15  1  1
 15 16  1  6
 15 17  1  0
 18 17  1  1
 18 19  1  0
 19 20  1  0
 20 21  1  1
 20 22  1  0
 22 23  1  0
 23 24  1  0
 24 25  1  6
 24 26  1  0
 26 27  1  6
 27 28  1  0
 28 29  2  0
 28 30  1  0
 30 31  1  6
 30 10  1  0
 30 13  1  0
 26 14  1  0
 24 18  1  0
M  END
>  <MS_ID>  (1285) 
MS1336

>  <SMILES>  (1285) 
C[C@H](CCC(=O)CCO)[C@H]1CC[C@H]2[C@@H]3[C@@H](O)C[C@@H]4C[C@H](O)CC[C@]4(C)[C@H]3CC(=O)[C@]12C

>  <Structure_dimension>  (1285) 
2D

$$$$
MS1337
     RDKit          2D

 34 37  0  0  0  0  0  0  0  0999 V2000
   -2.4018   -4.1785    0.0000 C   0  0  0  0  0  0  0  0  0  0  0  0
   -1.6536   -2.8784    0.0000 C   0  0  0  0  0  0  0  0  0  0  0  0
   -2.4055   -1.5804    0.0000 C   0  0  0  0  0  0  0  0  0  0  0  0
   -3.9055   -1.5826    0.0000 C   0  0  0  0  0  0  0  0  0  0  0  0
   -4.6574   -0.2846    0.0000 C   0  0  0  0  0  0  0  0  0  0  0  0
   -3.9092    1.0155    0.0000 O   0  0  0  0  0  0  0  0  0  0  0  0
   -6.1574   -0.2867    0.0000 O   0  0  0  0  0  0  0  0  0  0  0  0
   -6.9092    1.0112    0.0000 C   0  0  0  0  0  0  0  0  0  0  0  0
   -8.4092    1.0091    0.0000 C   0  0  0  0  0  0  0  0  0  0  0  0
   -9.1611    2.3071    0.0000 C   0  0  0  0  0  0  0  0  0  0  0  0
   -8.4129    3.6072    0.0000 O   0  0  0  0  0  0  0  0  0  0  0  0
  -10.6611    2.3049    0.0000 O   0  0  0  0  0  0  0  0  0  0  0  0
   -0.1536   -2.8762    0.0000 C   0  0  0  0  0  0  0  0  0  0  0  0
    0.7298   -4.0885    0.0000 C   0  0  0  0  0  0  0  0  0  0  0  0
    2.1557   -3.6229    0.0000 C   0  0  0  0  0  0  0  0  0  0  0  0
    2.1535   -2.1229    0.0000 C   0  0  0  0  0  0  0  0  0  0  0  0
    3.2668   -1.1176    0.0000 C   0  0  0  0  0  0  0  0  0  0  0  0
    4.6941   -1.5791    0.0000 C   0  0  0  0  0  0  0  0  0  0  0  0
    5.0080   -3.0459    0.0000 O   0  0  0  0  0  0  0  0  0  0  0  0
    5.8073   -0.5738    0.0000 C   0  0  0  0  0  0  0  0  0  0  0  0
    5.4934    0.8929    0.0000 C   0  0  0  0  0  0  0  0  0  0  0  0
    6.6067    1.8982    0.0000 C   0  0  0  0  0  0  0  0  0  0  0  0
    6.2927    3.3650    0.0000 C   0  0  0  0  0  0  0  0  0  0  0  0
    7.4060    4.3703    0.0000 O   0  0  0  0  0  0  0  0  0  0  0  0
    4.8655    3.8265    0.0000 C   0  0  0  0  0  0  0  0  0  0  0  0
    3.7522    2.8212    0.0000 C   0  0  0  0  0  0  0  0  0  0  0  0
    4.0661    1.3544    0.0000 C   0  0  0  0  0  0  0  0  0  0  0  0
    2.6389    1.8159    0.0000 C   0  0  0  0  0  0  0  0  0  0  0  0
    2.9529    0.3491    0.0000 C   0  0  0  0  0  0  0  0  0  0  0  0
    1.5256    0.8106    0.0000 C   0  0  0  0  0  0  0  0  0  0  0  0
    0.4123   -0.1947    0.0000 C   0  0  0  0  0  0  0  0  0  0  0  0
   -1.0149    0.2668    0.0000 O   0  0  0  0  0  0  0  0  0  0  0  0
    0.7263   -1.6614    0.0000 C   0  0  0  0  0  0  0  0  0  0  0  0
   -0.7414   -1.3517    0.0000 C   0  0  0  0  0  0  0  0  0  0  0  0
  2  1  1  6
  2  3  1  0
  3  4  1  0
  4  5  1  0
  5  6  2  0
  5  7  1  0
  7  8  1  0
  8  9  1  0
  9 10  1  0
 10 11  2  0
 10 12  1  0
  2 13  1  0
 13 14  1  6
 14 15  1  0
 16 15  1  6
 16 17  1  0
 17 18  1  1
 18 19  2  0
 18 20  1  0
 21 20  1  1
 21 22  1  0
 22 23  1  0
 23 24  1  1
 23 25  1  0
 25 26  1  0
 26 27  1  0
 27 28  1  6
 27 29  1  0
 29 30  1  6
 30 31  1  0
 31 32  1  1
 31 33  1  0
 33 34  1  6
 33 13  1  0
 33 16  1  0
 29 17  1  0
 27 21  1  0
M  END
>  <MS_ID>  (1286) 
MS1337

>  <SMILES>  (1286) 
C[C@H](CCC(=O)OCCC(=O)O)[C@H]1CC[C@H]2[C@@H]3C(=O)C[C@@H]4C[C@H](O)CC[C@]4(C)[C@H]3C[C@H](O)[C@]12C

>  <Structure_dimension>  (1286) 
2D

$$$$
MS1338
     RDKit          2D

 36 40  0  0  0  0  0  0  0  0999 V2000
   -1.5642   -4.2521    0.0000 C   0  0  0  0  0  0  0  0  0  0  0  0
   -0.7786   -2.9743    0.0000 C   0  0  0  0  0  0  0  0  0  0  0  0
   -1.4924   -1.6550    0.0000 C   0  0  0  0  0  0  0  0  0  0  0  0
   -2.9918   -1.6136    0.0000 C   0  0  0  0  0  0  0  0  0  0  0  0
   -3.7056   -0.2943    0.0000 C   0  0  0  0  0  0  0  0  0  0  0  0
   -2.9200    0.9835    0.0000 O   0  0  0  0  0  0  0  0  0  0  0  0
   -5.2051   -0.2528    0.0000 N   0  0  0  0  0  0  0  0  0  0  0  0
   -5.9189    1.0664    0.0000 C   0  0  0  0  0  0  0  0  0  0  0  0
   -5.1333    2.3442    0.0000 C   0  0  0  0  0  0  0  0  0  0  0  0
   -5.8471    3.6635    0.0000 C   0  0  0  0  0  0  0  0  0  0  0  0
   -7.3465    3.7050    0.0000 C   0  0  0  0  0  0  0  0  0  0  0  0
   -8.1321    2.4271    0.0000 C   0  0  0  0  0  0  0  0  0  0  0  0
   -7.4183    1.1079    0.0000 C   0  0  0  0  0  0  0  0  0  0  0  0
   -8.2039   -0.1699    0.0000 C   0  0  0  0  0  0  0  0  0  0  0  0
   -7.4901   -1.4892    0.0000 O   0  0  0  0  0  0  0  0  0  0  0  0
   -9.7033   -0.1285    0.0000 O   0  0  0  0  0  0  0  0  0  0  0  0
    0.7209   -3.0157    0.0000 C   0  0  0  0  0  0  0  0  0  0  0  0
    1.5687   -4.2531    0.0000 C   0  0  0  0  0  0  0  0  0  0  0  0
    3.0075   -3.8292    0.0000 C   0  0  0  0  0  0  0  0  0  0  0  0
    3.0490   -2.3298    0.0000 C   0  0  0  0  0  0  0  0  0  0  0  0
    4.1910   -1.3573    0.0000 C   0  0  0  0  0  0  0  0  0  0  0  0
    5.6042   -1.8600    0.0000 C   0  0  0  0  0  0  0  0  0  0  0  0
    6.7462   -0.8875    0.0000 C   0  0  0  0  0  0  0  0  0  0  0  0
    6.4750    0.5877    0.0000 C   0  0  0  0  0  0  0  0  0  0  0  0
    7.6171    1.5603    0.0000 C   0  0  0  0  0  0  0  0  0  0  0  0
    7.3459    3.0355    0.0000 C   0  0  0  0  0  0  0  0  0  0  0  0
    8.4879    4.0080    0.0000 O   0  0  0  0  0  0  0  0  0  0  0  0
    5.9326    3.5383    0.0000 C   0  0  0  0  0  0  0  0  0  0  0  0
    4.7906    2.5658    0.0000 C   0  0  0  0  0  0  0  0  0  0  0  0
    5.0618    1.0905    0.0000 C   0  0  0  0  0  0  0  0  0  0  0  0
    3.6486    1.5933    0.0000 C   0  0  0  0  0  0  0  0  0  0  0  0
    3.9198    0.1180    0.0000 C   0  0  0  0  0  0  0  0  0  0  0  0
    2.5066    0.6208    0.0000 C   0  0  0  0  0  0  0  0  0  0  0  0
    1.3645   -0.3517    0.0000 C   0  0  0  0  0  0  0  0  0  0  0  0
    1.6357   -1.8270    0.0000 C   0  0  0  0  0  0  0  0  0  0  0  0
    0.1777   -1.4747    0.0000 C   0  0  0  0  0  0  0  0  0  0  0  0
  2  1  1  6
  2  3  1  0
  3  4  1  0
  4  5  1  0
  5  6  2  0
  5  7  1  0
  7  8  1  0
  8  9  2  0
  9 10  1  0
 10 11  2  0
 11 12  1  0
 12 13  2  0
 13 14  1  0
 14 15  2  0
 14 16  1  0
  2 17  1  0
 17 18  1  6
 18 19  1  0
 20 19  1  6
 20 21  1  0
 21 22  1  1
 22 23  1  0
 24 23  1  1
 24 25  1  0
 25 26  1  0
 26 27  1  1
 26 28  1  0
 28 29  1  0
 29 30  1  0
 30 31  1  6
 30 32  1  0
 32 33  1  6
 33 34  1  0
 34 35  1  0
 35 36  1  6
 13  8  1  0
 35 17  1  0
 35 20  1  0
 32 21  1  0
 30 24  1  0
M  END
>  <MS_ID>  (1287) 
MS1338

>  <SMILES>  (1287) 
C[C@H](CCC(=O)Nc1ccccc1C(=O)O)[C@H]1CC[C@H]2[C@@H]3CC[C@@H]4C[C@H](O)CC[C@]4(C)[C@H]3CC[C@]12C

>  <Structure_dimension>  (1287) 
2D

$$$$
MS1339
     RDKit          2D

 31 34  0  0  0  0  0  0  0  0999 V2000
   -8.8672    3.1400    0.0000 C   0  0  0  0  0  0  0  0  0  0  0  0
   -7.3980    2.8376    0.0000 C   0  0  0  0  0  0  0  0  0  0  0  0
   -6.9253    1.4140    0.0000 O   0  0  0  0  0  0  0  0  0  0  0  0
   -5.4561    1.1115    0.0000 C   0  0  0  0  0  0  0  0  0  0  0  0
   -4.4596    2.2326    0.0000 O   0  0  0  0  0  0  0  0  0  0  0  0
   -4.9835   -0.3121    0.0000 C   0  0  0  0  0  0  0  0  0  0  0  0
   -3.5143   -0.6145    0.0000 C   0  0  0  0  0  0  0  0  0  0  0  0
   -3.0416   -2.0381    0.0000 C   0  0  0  0  0  0  0  0  0  0  0  0
   -4.0382   -3.1592    0.0000 C   0  0  0  0  0  0  0  0  0  0  0  0
   -1.5724   -2.3406    0.0000 C   0  0  0  0  0  0  0  0  0  0  0  0
   -0.9536   -3.7070    0.0000 C   0  0  0  0  0  0  0  0  0  0  0  0
    0.5372   -3.5406    0.0000 C   0  0  0  0  0  0  0  0  0  0  0  0
    0.8396   -2.0714    0.0000 C   0  0  0  0  0  0  0  0  0  0  0  0
    2.1338   -1.3131    0.0000 C   0  0  0  0  0  0  0  0  0  0  0  0
    3.4377   -2.0548    0.0000 C   0  0  0  0  0  0  0  0  0  0  0  0
    3.4473   -3.5547    0.0000 O   0  0  0  0  0  0  0  0  0  0  0  0
    4.7319   -1.2965    0.0000 C   0  0  0  0  0  0  0  0  0  0  0  0
    4.7223    0.2035    0.0000 C   0  0  0  0  0  0  0  0  0  0  0  0
    6.0165    0.9618    0.0000 C   0  0  0  0  0  0  0  0  0  0  0  0
    6.0069    2.4618    0.0000 C   0  0  0  0  0  0  0  0  0  0  0  0
    7.3011    3.2201    0.0000 O   0  0  0  0  0  0  0  0  0  0  0  0
    4.7030    3.2034    0.0000 C   0  0  0  0  0  0  0  0  0  0  0  0
    3.4088    2.4451    0.0000 C   0  0  0  0  0  0  0  0  0  0  0  0
    3.4184    0.9452    0.0000 C   0  0  0  0  0  0  0  0  0  0  0  0
    2.1146    1.6868    0.0000 C   0  0  0  0  0  0  0  0  0  0  0  0
    2.1242    0.1869    0.0000 C   0  0  0  0  0  0  0  0  0  0  0  0
    0.8204    0.9285    0.0000 C   0  0  0  0  0  0  0  0  0  0  0  0
   -0.4738    0.1702    0.0000 C   0  0  0  0  0  0  0  0  0  0  0  0
   -1.7776    0.9119    0.0000 O   0  0  0  0  0  0  0  0  0  0  0  0
   -0.4642   -1.3298    0.0000 C   0  0  0  0  0  0  0  0  0  0  0  0
   -1.8384   -0.7284    0.0000 C   0  0  0  0  0  0  0  0  0  0  0  0
  1  2  1  0
  2  3  1  0
  3  4  1  0
  4  5  2  0
  4  6  1  0
  6  7  1  0
  7  8  1  0
  8  9  1  6
  8 10  1  0
 10 11  1  6
 11 12  1  0
 13 12  1  6
 13 14  1  0
 14 15  1  1
 15 16  1  1
 15 17  1  0
 18 17  1  1
 18 19  1  0
 19 20  1  0
 20 21  2  0
 20 22  1  0
 22 23  1  0
 23 24  1  0
 24 25  1  6
 24 26  1  0
 26 27  1  6
 27 28  1  0
 28 29  1  1
 28 30  1  0
 30 31  1  6
 30 10  1  0
 30 13  1  0
 26 14  1  0
 24 18  1  0
M  END
>  <MS_ID>  (1288) 
MS1339

>  <SMILES>  (1288) 
CCOC(=O)CC[C@@H](C)[C@H]1CC[C@H]2[C@@H]3[C@H](O)C[C@@H]4CC(=O)CC[C@]4(C)[C@H]3C[C@H](O)[C@]12C

>  <Structure_dimension>  (1288) 
2D

$$$$
MS1340
     RDKit          2D

 33 36  0  0  0  0  0  0  0  0999 V2000
   -3.3094   -3.6711    0.0000 C   0  0  0  0  0  0  0  0  0  0  0  0
   -2.4155   -2.4665    0.0000 C   0  0  0  0  0  0  0  0  0  0  0  0
   -3.0118   -1.0901    0.0000 C   0  0  0  0  0  0  0  0  0  0  0  0
   -4.5019   -0.9183    0.0000 C   0  0  0  0  0  0  0  0  0  0  0  0
   -5.0982    0.4581    0.0000 C   0  0  0  0  0  0  0  0  0  0  0  0
   -4.2043    1.6627    0.0000 O   0  0  0  0  0  0  0  0  0  0  0  0
   -6.5883    0.6300    0.0000 N   0  0  0  0  0  0  0  0  0  0  0  0
   -7.1845    2.0064    0.0000 S   0  0  0  0  0  0  0  0  0  0  0  0
   -8.5609    1.4101    0.0000 O   0  0  0  0  0  0  0  0  0  0  0  0
   -5.8081    2.6026    0.0000 O   0  0  0  0  0  0  0  0  0  0  0  0
   -7.7808    3.3828    0.0000 O   0  0  0  0  0  0  0  0  0  0  0  0
   -0.9254   -2.6383    0.0000 C   0  0  0  0  0  0  0  0  0  0  0  0
   -0.1885   -3.9449    0.0000 C   0  0  0  0  0  0  0  0  0  0  0  0
    1.2818   -3.6478    0.0000 C   0  0  0  0  0  0  0  0  0  0  0  0
    1.4536   -2.1577    0.0000 C   0  0  0  0  0  0  0  0  0  0  0  0
    2.6759   -1.2883    0.0000 C   0  0  0  0  0  0  0  0  0  0  0  0
    4.0400   -1.9122    0.0000 C   0  0  0  0  0  0  0  0  0  0  0  0
    4.1818   -3.4055    0.0000 O   0  0  0  0  0  0  0  0  0  0  0  0
    5.2624   -1.0428    0.0000 C   0  0  0  0  0  0  0  0  0  0  0  0
    5.1206    0.4505    0.0000 C   0  0  0  0  0  0  0  0  0  0  0  0
    6.3430    1.3199    0.0000 C   0  0  0  0  0  0  0  0  0  0  0  0
    6.2013    2.8132    0.0000 C   0  0  0  0  0  0  0  0  0  0  0  0
    7.4236    3.6826    0.0000 O   0  0  0  0  0  0  0  0  0  0  0  0
    4.8372    3.4371    0.0000 C   0  0  0  0  0  0  0  0  0  0  0  0
    3.6148    2.5677    0.0000 C   0  0  0  0  0  0  0  0  0  0  0  0
    3.7565    1.0744    0.0000 C   0  0  0  0  0  0  0  0  0  0  0  0
    2.3925    1.6983    0.0000 C   0  0  0  0  0  0  0  0  0  0  0  0
    2.5342    0.2050    0.0000 C   0  0  0  0  0  0  0  0  0  0  0  0
    1.1701    0.8289    0.0000 C   0  0  0  0  0  0  0  0  0  0  0  0
   -0.0523   -0.0405    0.0000 C   0  0  0  0  0  0  0  0  0  0  0  0
   -1.4164    0.5834    0.0000 O   0  0  0  0  0  0  0  0  0  0  0  0
    0.0895   -1.5338    0.0000 C   0  0  0  0  0  0  0  0  0  0  0  0
   -1.3324   -1.0559    0.0000 C   0  0  0  0  0  0  0  0  0  0  0  0
  2  1  1  6
  2  3  1  0
  3  4  1  0
  4  5  1  0
  5  6  2  0
  5  7  1  0
  7  8  1  0
  8  9  2  0
  8 10  2  0
  8 11  1  0
  2 12  1  0
 12 13  1  6
 13 14  1  0
 15 14  1  6
 15 16  1  0
 16 17  1  1
 17 18  1  1
 17 19  1  0
 20 19  1  1
 20 21  1  0
 21 22  1  0
 22 23  1  1
 22 24  1  0
 24 25  1  0
 25 26  1  0
 26 27  1  6
 26 28  1  0
 28 29  1  6
 29 30  1  0
 30 31  2  0
 30 32  1  0
 32 33  1  6
 32 12  1  0
 32 15  1  0
 28 16  1  0
 26 20  1  0
M  END
>  <MS_ID>  (1289) 
MS1340

>  <SMILES>  (1289) 
C[C@H](CCC(=O)NS(=O)(=O)O)[C@H]1CC[C@H]2[C@@H]3[C@H](O)C[C@@H]4C[C@H](O)CC[C@]4(C)[C@H]3CC(=O)[C@]12C

>  <Structure_dimension>  (1289) 
2D

$$$$
MS1341
     RDKit          2D

 32 35  0  0  0  0  0  0  0  0999 V2000
   -2.8252   -3.9526    0.0000 C   0  0  0  0  0  0  0  0  0  0  0  0
   -1.9779   -2.7148    0.0000 C   0  0  0  0  0  0  0  0  0  0  0  0
   -2.6262   -1.3621    0.0000 C   0  0  0  0  0  0  0  0  0  0  0  0
   -4.1218   -1.2472    0.0000 C   0  0  0  0  0  0  0  0  0  0  0  0
   -4.7701    0.1054    0.0000 C   0  0  0  0  0  0  0  0  0  0  0  0
   -3.9228    1.3432    0.0000 O   0  0  0  0  0  0  0  0  0  0  0  0
   -6.2657    0.2203    0.0000 O   0  0  0  0  0  0  0  0  0  0  0  0
   -6.9140    1.5730    0.0000 C   0  0  0  0  0  0  0  0  0  0  0  0
   -8.4096    1.6879    0.0000 C   0  0  0  0  0  0  0  0  0  0  0  0
   -9.0579    3.0406    0.0000 C   0  0  0  0  0  0  0  0  0  0  0  0
  -10.5534    3.1554    0.0000 O   0  0  0  0  0  0  0  0  0  0  0  0
   -0.4823   -2.8297    0.0000 C   0  0  0  0  0  0  0  0  0  0  0  0
    0.3038   -4.1072    0.0000 C   0  0  0  0  0  0  0  0  0  0  0  0
    1.7617   -3.7543    0.0000 C   0  0  0  0  0  0  0  0  0  0  0  0
    1.8766   -2.2587    0.0000 C   0  0  0  0  0  0  0  0  0  0  0  0
    3.0650   -1.3433    0.0000 C   0  0  0  0  0  0  0  0  0  0  0  0
    4.4518   -1.9148    0.0000 C   0  0  0  0  0  0  0  0  0  0  0  0
    5.6402   -0.9994    0.0000 C   0  0  0  0  0  0  0  0  0  0  0  0
    5.4416    0.4874    0.0000 C   0  0  0  0  0  0  0  0  0  0  0  0
    6.6299    1.4028    0.0000 C   0  0  0  0  0  0  0  0  0  0  0  0
    6.4313    2.8896    0.0000 C   0  0  0  0  0  0  0  0  0  0  0  0
    7.6197    3.8049    0.0000 O   0  0  0  0  0  0  0  0  0  0  0  0
    5.0445    3.4610    0.0000 C   0  0  0  0  0  0  0  0  0  0  0  0
    3.8561    2.5456    0.0000 C   0  0  0  0  0  0  0  0  0  0  0  0
    4.0547    1.0588    0.0000 C   0  0  0  0  0  0  0  0  0  0  0  0
    2.6678    1.6303    0.0000 C   0  0  0  0  0  0  0  0  0  0  0  0
    2.8664    0.1435    0.0000 C   0  0  0  0  0  0  0  0  0  0  0  0
    1.4795    0.7149    0.0000 C   0  0  0  0  0  0  0  0  0  0  0  0
    0.2912   -0.2005    0.0000 C   0  0  0  0  0  0  0  0  0  0  0  0
   -1.0957    0.3710    0.0000 O   0  0  0  0  0  0  0  0  0  0  0  0
    0.4897   -1.6873    0.0000 C   0  0  0  0  0  0  0  0  0  0  0  0
   -0.9493   -1.2639    0.0000 C   0  0  0  0  0  0  0  0  0  0  0  0
  2  1  1  6
  2  3  1  0
  3  4  1  0
  4  5  1  0
  5  6  2  0
  5  7  1  0
  7  8  1  0
  8  9  1  0
  9 10  1  0
 10 11  1  0
  2 12  1  0
 12 13  1  6
 13 14  1  0
 15 14  1  6
 15 16  1  0
 16 17  1  1
 17 18  1  0
 19 18  1  1
 19 20  1  0
 20 21  1  0
 21 22  1  1
 21 23  1  0
 23 24  1  0
 24 25  1  0
 25 26  1  6
 25 27  1  0
 27 28  1  6
 28 29  1  0
 29 30  1  1
 29 31  1  0
 31 32  1  6
 31 12  1  0
 31 15  1  0
 27 16  1  0
 25 19  1  0
M  END
>  <MS_ID>  (1290) 
MS1341

>  <SMILES>  (1290) 
C[C@H](CCC(=O)OCCCO)[C@H]1CC[C@H]2[C@@H]3CC[C@@H]4C[C@H](O)CC[C@]4(C)[C@H]3C[C@H](O)[C@]12C

>  <Structure_dimension>  (1290) 
2D

$$$$
MS1342
     RDKit          2D

 30 33  0  0  0  0  0  0  0  0999 V2000
   -4.7023   -2.6242    0.0000 C   0  0  0  0  0  0  0  0  0  0  0  0
   -3.5985   -1.6085    0.0000 C   0  0  0  0  0  0  0  0  0  0  0  0
   -3.9263   -0.1448    0.0000 C   0  0  0  0  0  0  0  0  0  0  0  0
   -5.3578    0.3033    0.0000 C   0  0  0  0  0  0  0  0  0  0  0  0
   -5.6855    1.7670    0.0000 C   0  0  0  0  0  0  0  0  0  0  0  0
   -7.1171    2.2151    0.0000 O   0  0  0  0  0  0  0  0  0  0  0  0
   -4.5818    2.7827    0.0000 S   0  0  0  0  0  0  0  0  0  0  0  0
   -4.9095    4.2465    0.0000 O   0  0  0  0  0  0  0  0  0  0  0  0
   -2.1670   -2.0566    0.0000 C   0  0  0  0  0  0  0  0  0  0  0  0
   -1.6881   -3.4780    0.0000 C   0  0  0  0  0  0  0  0  0  0  0  0
   -0.1881   -3.4618    0.0000 C   0  0  0  0  0  0  0  0  0  0  0  0
    0.2599   -2.0303    0.0000 C   0  0  0  0  0  0  0  0  0  0  0  0
    1.6235   -1.4054    0.0000 C   0  0  0  0  0  0  0  0  0  0  0  0
    2.8465   -2.2738    0.0000 C   0  0  0  0  0  0  0  0  0  0  0  0
    2.7059   -3.7672    0.0000 O   0  0  0  0  0  0  0  0  0  0  0  0
    4.2102   -1.6489    0.0000 C   0  0  0  0  0  0  0  0  0  0  0  0
    4.3508   -0.1555    0.0000 C   0  0  0  0  0  0  0  0  0  0  0  0
    5.7144    0.4694    0.0000 C   0  0  0  0  0  0  0  0  0  0  0  0
    5.8550    1.9628    0.0000 C   0  0  0  0  0  0  0  0  0  0  0  0
    7.2187    2.5877    0.0000 O   0  0  0  0  0  0  0  0  0  0  0  0
    4.6320    2.8313    0.0000 C   0  0  0  0  0  0  0  0  0  0  0  0
    3.2684    2.2063    0.0000 C   0  0  0  0  0  0  0  0  0  0  0  0
    3.1278    0.7130    0.0000 C   0  0  0  0  0  0  0  0  0  0  0  0
    1.9048    1.5814    0.0000 C   0  0  0  0  0  0  0  0  0  0  0  0
    1.7642    0.0880    0.0000 C   0  0  0  0  0  0  0  0  0  0  0  0
    0.5411    0.9565    0.0000 C   0  0  0  0  0  0  0  0  0  0  0  0
   -0.8225    0.3316    0.0000 C   0  0  0  0  0  0  0  0  0  0  0  0
   -2.0455    1.2001    0.0000 O   0  0  0  0  0  0  0  0  0  0  0  0
   -0.9631   -1.1618    0.0000 C   0  0  0  0  0  0  0  0  0  0  0  0
   -2.2702   -0.4259    0.0000 C   0  0  0  0  0  0  0  0  0  0  0  0
  2  1  1  6
  2  3  1  0
  3  4  1  0
  4  5  1  0
  5  6  2  0
  5  7  1  0
  7  8  1  0
  2  9  1  0
  9 10  1  6
 10 11  1  0
 12 11  1  6
 12 13  1  0
 13 14  1  1
 14 15  1  1
 14 16  1  0
 17 16  1  1
 17 18  1  0
 18 19  1  0
 19 20  1  1
 19 21  1  0
 21 22  1  0
 22 23  1  0
 23 24  1  6
 23 25  1  0
 25 26  1  6
 26 27  1  0
 27 28  1  1
 27 29  1  0
 29 30  1  6
 29  9  1  0
 29 12  1  0
 25 13  1  0
 23 17  1  0
M  END
>  <MS_ID>  (1291) 
MS1342

>  <SMILES>  (1291) 
C[C@H](CCC(=O)SO)[C@H]1CC[C@H]2[C@@H]3[C@H](O)C[C@@H]4C[C@H](O)CC[C@]4(C)[C@H]3C[C@H](O)[C@]12C

>  <Structure_dimension>  (1291) 
2D

$$$$
MS1343
     RDKit          2D

 34 37  0  0  0  0  0  0  0  0999 V2000
   -2.4540   -4.2478    0.0000 C   0  0  0  0  0  0  0  0  0  0  0  0
   -1.6579   -2.9765    0.0000 C   0  0  0  0  0  0  0  0  0  0  0  0
   -2.3608   -1.6514    0.0000 C   0  0  0  0  0  0  0  0  0  0  0  0
   -3.8598   -1.5976    0.0000 C   0  0  0  0  0  0  0  0  0  0  0  0
   -4.5628   -0.2725    0.0000 C   0  0  0  0  0  0  0  0  0  0  0  0
   -3.7667    0.9988    0.0000 O   0  0  0  0  0  0  0  0  0  0  0  0
   -6.0618   -0.2187    0.0000 N   0  0  0  0  0  0  0  0  0  0  0  0
   -6.7647    1.1064    0.0000 C   0  0  0  0  0  0  0  0  0  0  0  0
   -8.2638    1.1601    0.0000 C   0  0  0  0  0  0  0  0  0  0  0  0
   -8.9667    2.4852    0.0000 O   0  0  0  0  0  0  0  0  0  0  0  0
   -5.9686    2.3777    0.0000 C   0  0  0  0  0  0  0  0  0  0  0  0
   -4.4696    2.3239    0.0000 O   0  0  0  0  0  0  0  0  0  0  0  0
   -6.6716    3.7028    0.0000 O   0  0  0  0  0  0  0  0  0  0  0  0
   -0.1588   -3.0303    0.0000 C   0  0  0  0  0  0  0  0  0  0  0  0
    0.6788   -4.2747    0.0000 C   0  0  0  0  0  0  0  0  0  0  0  0
    2.1211   -3.8626    0.0000 C   0  0  0  0  0  0  0  0  0  0  0  0
    2.1748   -2.3635    0.0000 C   0  0  0  0  0  0  0  0  0  0  0  0
    3.3248   -1.4005    0.0000 C   0  0  0  0  0  0  0  0  0  0  0  0
    4.7339   -1.9149    0.0000 C   0  0  0  0  0  0  0  0  0  0  0  0
    5.8839   -0.9518    0.0000 C   0  0  0  0  0  0  0  0  0  0  0  0
    5.6248    0.5257    0.0000 C   0  0  0  0  0  0  0  0  0  0  0  0
    6.7748    1.4888    0.0000 C   0  0  0  0  0  0  0  0  0  0  0  0
    6.5157    2.9662    0.0000 C   0  0  0  0  0  0  0  0  0  0  0  0
    7.6657    3.9293    0.0000 O   0  0  0  0  0  0  0  0  0  0  0  0
    5.1067    3.4806    0.0000 C   0  0  0  0  0  0  0  0  0  0  0  0
    3.9567    2.5175    0.0000 C   0  0  0  0  0  0  0  0  0  0  0  0
    4.2158    1.0401    0.0000 C   0  0  0  0  0  0  0  0  0  0  0  0
    2.8067    1.5545    0.0000 C   0  0  0  0  0  0  0  0  0  0  0  0
    3.0658    0.0770    0.0000 C   0  0  0  0  0  0  0  0  0  0  0  0
    1.6567    0.5914    0.0000 C   0  0  0  0  0  0  0  0  0  0  0  0
    0.5067   -0.3717    0.0000 C   0  0  0  0  0  0  0  0  0  0  0  0
   -0.9023    0.1427    0.0000 O   0  0  0  0  0  0  0  0  0  0  0  0
    0.7658   -1.8492    0.0000 C   0  0  0  0  0  0  0  0  0  0  0  0
   -0.6893   -1.4849    0.0000 C   0  0  0  0  0  0  0  0  0  0  0  0
  2  1  1  6
  2  3  1  0
  3  4  1  0
  4  5  1  0
  5  6  2  0
  5  7  1  0
  7  8  1  0
  8  9  1  1
  9 10  1  0
  8 11  1  0
 11 12  2  0
 11 13  1  0
  2 14  1  0
 14 15  1  6
 15 16  1  0
 17 16  1  6
 17 18  1  0
 18 19  1  1
 19 20  1  0
 21 20  1  1
 21 22  1  0
 22 23  1  0
 23 24  1  1
 23 25  1  0
 25 26  1  0
 26 27  1  0
 27 28  1  6
 27 29  1  0
 29 30  1  6
 30 31  1  0
 31 32  2  0
 31 33  1  0
 33 34  1  6
 33 14  1  0
 33 17  1  0
 29 18  1  0
 27 21  1  0
M  END
>  <MS_ID>  (1292) 
MS1343

>  <SMILES>  (1292) 
C[C@H](CCC(=O)N[C@@H](CO)C(=O)O)[C@H]1CC[C@H]2[C@@H]3CC[C@@H]4C[C@H](O)CC[C@]4(C)[C@H]3CC(=O)[C@]12C

>  <Structure_dimension>  (1292) 
2D

$$$$
MS1344
     RDKit          2D

 31 34  0  0  0  0  0  0  0  0999 V2000
   -3.4301   -3.6172    0.0000 C   0  0  0  0  0  0  0  0  0  0  0  0
   -2.4973   -2.4425    0.0000 C   0  0  0  0  0  0  0  0  0  0  0  0
   -3.0483   -1.0473    0.0000 C   0  0  0  0  0  0  0  0  0  0  0  0
   -4.5321   -0.8270    0.0000 C   0  0  0  0  0  0  0  0  0  0  0  0
   -5.0831    0.5682    0.0000 C   0  0  0  0  0  0  0  0  0  0  0  0
   -4.1503    1.7429    0.0000 O   0  0  0  0  0  0  0  0  0  0  0  0
   -6.5668    0.7886    0.0000 N   0  0  0  0  0  0  0  0  0  0  0  0
   -7.1178    2.1837    0.0000 C   0  0  0  0  0  0  0  0  0  0  0  0
   -8.6015    2.4041    0.0000 C   0  0  0  0  0  0  0  0  0  0  0  0
   -9.1525    3.7992    0.0000 Cl  0  0  0  0  0  0  0  0  0  0  0  0
   -1.0136   -2.6629    0.0000 C   0  0  0  0  0  0  0  0  0  0  0  0
   -0.3198   -3.9928    0.0000 C   0  0  0  0  0  0  0  0  0  0  0  0
    1.1594   -3.7439    0.0000 C   0  0  0  0  0  0  0  0  0  0  0  0
    1.3798   -2.2602    0.0000 C   0  0  0  0  0  0  0  0  0  0  0  0
    2.6299   -1.4311    0.0000 C   0  0  0  0  0  0  0  0  0  0  0  0
    3.9729   -2.0992    0.0000 C   0  0  0  0  0  0  0  0  0  0  0  0
    5.2230   -1.2702    0.0000 C   0  0  0  0  0  0  0  0  0  0  0  0
    5.1301    0.2269    0.0000 C   0  0  0  0  0  0  0  0  0  0  0  0
    6.3802    1.0559    0.0000 C   0  0  0  0  0  0  0  0  0  0  0  0
    6.2872    2.5531    0.0000 C   0  0  0  0  0  0  0  0  0  0  0  0
    7.5373    3.3821    0.0000 O   0  0  0  0  0  0  0  0  0  0  0  0
    4.9442    3.2212    0.0000 C   0  0  0  0  0  0  0  0  0  0  0  0
    3.6942    2.3921    0.0000 C   0  0  0  0  0  0  0  0  0  0  0  0
    3.7871    0.8950    0.0000 C   0  0  0  0  0  0  0  0  0  0  0  0
    2.4441    1.5631    0.0000 C   0  0  0  0  0  0  0  0  0  0  0  0
    2.5370    0.0660    0.0000 C   0  0  0  0  0  0  0  0  0  0  0  0
    1.1940    0.7341    0.0000 C   0  0  0  0  0  0  0  0  0  0  0  0
   -0.0561   -0.0949    0.0000 C   0  0  0  0  0  0  0  0  0  0  0  0
   -1.3991    0.5732    0.0000 O   0  0  0  0  0  0  0  0  0  0  0  0
    0.0368   -1.5921    0.0000 C   0  0  0  0  0  0  0  0  0  0  0  0
   -1.3687   -1.0680    0.0000 C   0  0  0  0  0  0  0  0  0  0  0  0
  2  1  1  6
  2  3  1  0
  3  4  1  0
  4  5  1  0
  5  6  2  0
  5  7  1  0
  7  8  1  0
  8  9  1  0
  9 10  1  0
  2 11  1  0
 11 12  1  6
 12 13  1  0
 14 13  1  6
 14 15  1  0
 15 16  1  1
 16 17  1  0
 18 17  1  1
 18 19  1  0
 19 20  1  0
 20 21  1  1
 20 22  1  0
 22 23  1  0
 23 24  1  0
 24 25  1  6
 24 26  1  0
 26 27  1  6
 27 28  1  0
 28 29  1  1
 28 30  1  0
 30 31  1  6
 30 11  1  0
 30 14  1  0
 26 15  1  0
 24 18  1  0
M  END
>  <MS_ID>  (1293) 
MS1344

>  <SMILES>  (1293) 
C[C@H](CCC(=O)NCCCl)[C@H]1CC[C@H]2[C@@H]3CC[C@@H]4C[C@H](O)CC[C@]4(C)[C@H]3C[C@H](O)[C@]12C

>  <Structure_dimension>  (1293) 
2D

$$$$
MS1345
     RDKit          2D

 32 35  0  0  0  0  0  0  0  0999 V2000
   -9.3885    3.6424    0.0000 C   0  0  0  0  0  0  0  0  0  0  0  0
   -8.7975    2.2638    0.0000 C   0  0  0  0  0  0  0  0  0  0  0  0
   -7.3080    2.0863    0.0000 C   0  0  0  0  0  0  0  0  0  0  0  0
   -6.7170    0.7076    0.0000 O   0  0  0  0  0  0  0  0  0  0  0  0
   -5.2276    0.5301    0.0000 C   0  0  0  0  0  0  0  0  0  0  0  0
   -4.3291    1.7312    0.0000 O   0  0  0  0  0  0  0  0  0  0  0  0
   -4.6366   -0.8486    0.0000 C   0  0  0  0  0  0  0  0  0  0  0  0
   -3.1471   -1.0261    0.0000 C   0  0  0  0  0  0  0  0  0  0  0  0
   -2.5561   -2.4048    0.0000 C   0  0  0  0  0  0  0  0  0  0  0  0
   -3.4546   -3.6059    0.0000 C   0  0  0  0  0  0  0  0  0  0  0  0
   -1.0667   -2.5823    0.0000 C   0  0  0  0  0  0  0  0  0  0  0  0
   -0.3348   -3.8917    0.0000 C   0  0  0  0  0  0  0  0  0  0  0  0
    1.1366   -3.6002    0.0000 C   0  0  0  0  0  0  0  0  0  0  0  0
    1.3141   -2.1108    0.0000 C   0  0  0  0  0  0  0  0  0  0  0  0
    2.5398   -1.2460    0.0000 C   0  0  0  0  0  0  0  0  0  0  0  0
    3.9015   -1.8751    0.0000 C   0  0  0  0  0  0  0  0  0  0  0  0
    4.0375   -3.3690    0.0000 O   0  0  0  0  0  0  0  0  0  0  0  0
    5.1272   -1.0104    0.0000 C   0  0  0  0  0  0  0  0  0  0  0  0
    4.9911    0.4834    0.0000 C   0  0  0  0  0  0  0  0  0  0  0  0
    6.2168    1.3481    0.0000 C   0  0  0  0  0  0  0  0  0  0  0  0
    6.0808    2.8419    0.0000 C   0  0  0  0  0  0  0  0  0  0  0  0
    7.3064    3.7067    0.0000 O   0  0  0  0  0  0  0  0  0  0  0  0
    4.7191    3.4710    0.0000 C   0  0  0  0  0  0  0  0  0  0  0  0
    3.4934    2.6063    0.0000 C   0  0  0  0  0  0  0  0  0  0  0  0
    3.6294    1.1125    0.0000 C   0  0  0  0  0  0  0  0  0  0  0  0
    2.2677    1.7416    0.0000 C   0  0  0  0  0  0  0  0  0  0  0  0
    2.4038    0.2478    0.0000 C   0  0  0  0  0  0  0  0  0  0  0  0
    1.0421    0.8769    0.0000 C   0  0  0  0  0  0  0  0  0  0  0  0
   -0.1836    0.0122    0.0000 C   0  0  0  0  0  0  0  0  0  0  0  0
   -1.5453    0.6413    0.0000 O   0  0  0  0  0  0  0  0  0  0  0  0
   -0.0476   -1.4817    0.0000 C   0  0  0  0  0  0  0  0  0  0  0  0
   -1.4676   -0.9983    0.0000 C   0  0  0  0  0  0  0  0  0  0  0  0
  1  2  1  0
  2  3  1  0
  3  4  1  0
  4  5  1  0
  5  6  2  0
  5  7  1  0
  7  8  1  0
  8  9  1  0
  9 10  1  6
  9 11  1  0
 11 12  1  6
 12 13  1  0
 14 13  1  6
 14 15  1  0
 15 16  1  1
 16 17  1  1
 16 18  1  0
 19 18  1  1
 19 20  1  0
 20 21  1  0
 21 22  1  1
 21 23  1  0
 23 24  1  0
 24 25  1  0
 25 26  1  6
 25 27  1  0
 27 28  1  6
 28 29  1  0
 29 30  1  6
 29 31  1  0
 31 32  1  6
 31 11  1  0
 31 14  1  0
 27 15  1  0
 25 19  1  0
M  END
>  <MS_ID>  (1294) 
MS1345

>  <SMILES>  (1294) 
CCCOC(=O)CC[C@@H](C)[C@H]1CC[C@H]2[C@@H]3[C@H](O)C[C@@H]4C[C@H](O)CC[C@]4(C)[C@H]3C[C@@H](O)[C@]12C

>  <Structure_dimension>  (1294) 
2D

$$$$
MS1346
     RDKit          2D

 36 39  0  0  0  0  0  0  0  0999 V2000
   -1.0047   -4.5176    0.0000 C   0  0  0  0  0  0  0  0  0  0  0  0
   -0.3860   -3.1511    0.0000 C   0  0  0  0  0  0  0  0  0  0  0  0
   -1.2599   -1.9320    0.0000 C   0  0  0  0  0  0  0  0  0  0  0  0
   -2.7527   -2.0794    0.0000 C   0  0  0  0  0  0  0  0  0  0  0  0
   -3.6267   -0.8603    0.0000 C   0  0  0  0  0  0  0  0  0  0  0  0
   -3.0079    0.5061    0.0000 O   0  0  0  0  0  0  0  0  0  0  0  0
   -5.1194   -1.0076    0.0000 C   0  0  0  0  0  0  0  0  0  0  0  0
   -5.9934    0.2114    0.0000 O   0  0  0  0  0  0  0  0  0  0  0  0
   -7.4861    0.0641    0.0000 C   0  0  0  0  0  0  0  0  0  0  0  0
   -8.1049   -1.3023    0.0000 O   0  0  0  0  0  0  0  0  0  0  0  0
   -8.3601    1.2832    0.0000 N   0  0  0  0  0  0  0  0  0  0  0  0
   -9.8528    1.1359    0.0000 C   0  0  0  0  0  0  0  0  0  0  0  0
  -10.7268    2.3549    0.0000 C   0  0  0  0  0  0  0  0  0  0  0  0
  -10.1080    3.7214    0.0000 O   0  0  0  0  0  0  0  0  0  0  0  0
  -12.2196    2.2076    0.0000 O   0  0  0  0  0  0  0  0  0  0  0  0
    1.1068   -3.0038    0.0000 C   0  0  0  0  0  0  0  0  0  0  0  0
    2.1034   -4.1248    0.0000 C   0  0  0  0  0  0  0  0  0  0  0  0
    3.4775   -3.5234    0.0000 C   0  0  0  0  0  0  0  0  0  0  0  0
    3.3302   -2.0307    0.0000 C   0  0  0  0  0  0  0  0  0  0  0  0
    4.3409   -0.9224    0.0000 C   0  0  0  0  0  0  0  0  0  0  0  0
    5.8062   -1.2435    0.0000 C   0  0  0  0  0  0  0  0  0  0  0  0
    6.2606   -2.6730    0.0000 O   0  0  0  0  0  0  0  0  0  0  0  0
    6.8169   -0.1352    0.0000 C   0  0  0  0  0  0  0  0  0  0  0  0
    6.3624    1.2943    0.0000 C   0  0  0  0  0  0  0  0  0  0  0  0
    7.3732    2.4027    0.0000 C   0  0  0  0  0  0  0  0  0  0  0  0
    6.9187    3.8322    0.0000 C   0  0  0  0  0  0  0  0  0  0  0  0
    7.9294    4.9405    0.0000 O   0  0  0  0  0  0  0  0  0  0  0  0
    5.4535    4.1533    0.0000 C   0  0  0  0  0  0  0  0  0  0  0  0
    4.4427    3.0450    0.0000 C   0  0  0  0  0  0  0  0  0  0  0  0
    4.8972    1.6155    0.0000 C   0  0  0  0  0  0  0  0  0  0  0  0
    3.4320    1.9366    0.0000 C   0  0  0  0  0  0  0  0  0  0  0  0
    3.8865    0.5071    0.0000 C   0  0  0  0  0  0  0  0  0  0  0  0
    2.4212    0.8283    0.0000 C   0  0  0  0  0  0  0  0  0  0  0  0
    1.4105   -0.2800    0.0000 C   0  0  0  0  0  0  0  0  0  0  0  0
    1.8650   -1.7095    0.0000 C   0  0  0  0  0  0  0  0  0  0  0  0
    0.3742   -1.5433    0.0000 C   0  0  0  0  0  0  0  0  0  0  0  0
  2  1  1  6
  2  3  1  0
  3  4  1  0
  4  5  1  0
  5  6  2  0
  5  7  1  0
  7  8  1  0
  8  9  1  0
  9 10  2  0
  9 11  1  0
 11 12  1  0
 12 13  1  0
 13 14  2  0
 13 15  1  0
  2 16  1  0
 16 17  1  6
 17 18  1  0
 19 18  1  6
 19 20  1  0
 20 21  1  1
 21 22  1  1
 21 23  1  0
 24 23  1  1
 24 25  1  0
 25 26  1  0
 26 27  1  1
 26 28  1  0
 28 29  1  0
 29 30  1  0
 30 31  1  6
 30 32  1  0
 32 33  1  6
 33 34  1  0
 34 35  1  0
 35 36  1  6
 35 16  1  0
 35 19  1  0
 32 20  1  0
 30 24  1  0
M  END
>  <MS_ID>  (1295) 
MS1346

>  <SMILES>  (1295) 
C[C@H](CCC(=O)COC(=O)NCC(=O)O)[C@H]1CC[C@H]2[C@@H]3[C@H](O)C[C@@H]4C[C@H](O)CC[C@]4(C)[C@H]3CC[C@]12C

>  <Structure_dimension>  (1295) 
2D

$$$$
MS1347
     RDKit          2D

 33 36  0  0  0  0  0  0  0  0999 V2000
   -3.3094   -3.6711    0.0000 C   0  0  0  0  0  0  0  0  0  0  0  0
   -2.4155   -2.4665    0.0000 C   0  0  0  0  0  0  0  0  0  0  0  0
   -3.0118   -1.0901    0.0000 C   0  0  0  0  0  0  0  0  0  0  0  0
   -4.5019   -0.9183    0.0000 C   0  0  0  0  0  0  0  0  0  0  0  0
   -5.0982    0.4581    0.0000 C   0  0  0  0  0  0  0  0  0  0  0  0
   -4.2043    1.6627    0.0000 O   0  0  0  0  0  0  0  0  0  0  0  0
   -6.5883    0.6300    0.0000 N   0  0  0  0  0  0  0  0  0  0  0  0
   -7.1845    2.0064    0.0000 S   0  0  0  0  0  0  0  0  0  0  0  0
   -8.5609    1.4101    0.0000 O   0  0  0  0  0  0  0  0  0  0  0  0
   -5.8081    2.6026    0.0000 O   0  0  0  0  0  0  0  0  0  0  0  0
   -7.7808    3.3828    0.0000 O   0  0  0  0  0  0  0  0  0  0  0  0
   -0.9254   -2.6383    0.0000 C   0  0  0  0  0  0  0  0  0  0  0  0
   -0.1885   -3.9449    0.0000 C   0  0  0  0  0  0  0  0  0  0  0  0
    1.2818   -3.6478    0.0000 C   0  0  0  0  0  0  0  0  0  0  0  0
    1.4536   -2.1577    0.0000 C   0  0  0  0  0  0  0  0  0  0  0  0
    2.6759   -1.2883    0.0000 C   0  0  0  0  0  0  0  0  0  0  0  0
    4.0400   -1.9122    0.0000 C   0  0  0  0  0  0  0  0  0  0  0  0
    4.1818   -3.4055    0.0000 O   0  0  0  0  0  0  0  0  0  0  0  0
    5.2624   -1.0428    0.0000 C   0  0  0  0  0  0  0  0  0  0  0  0
    5.1206    0.4505    0.0000 C   0  0  0  0  0  0  0  0  0  0  0  0
    6.3430    1.3199    0.0000 C   0  0  0  0  0  0  0  0  0  0  0  0
    6.2013    2.8132    0.0000 C   0  0  0  0  0  0  0  0  0  0  0  0
    7.4236    3.6826    0.0000 O   0  0  0  0  0  0  0  0  0  0  0  0
    4.8372    3.4371    0.0000 C   0  0  0  0  0  0  0  0  0  0  0  0
    3.6148    2.5677    0.0000 C   0  0  0  0  0  0  0  0  0  0  0  0
    3.7565    1.0744    0.0000 C   0  0  0  0  0  0  0  0  0  0  0  0
    2.3925    1.6983    0.0000 C   0  0  0  0  0  0  0  0  0  0  0  0
    2.5342    0.2050    0.0000 C   0  0  0  0  0  0  0  0  0  0  0  0
    1.1701    0.8289    0.0000 C   0  0  0  0  0  0  0  0  0  0  0  0
   -0.0523   -0.0405    0.0000 C   0  0  0  0  0  0  0  0  0  0  0  0
   -1.4164    0.5834    0.0000 O   0  0  0  0  0  0  0  0  0  0  0  0
    0.0895   -1.5338    0.0000 C   0  0  0  0  0  0  0  0  0  0  0  0
   -1.3324   -1.0559    0.0000 C   0  0  0  0  0  0  0  0  0  0  0  0
  2  1  1  6
  2  3  1  0
  3  4  1  0
  4  5  1  0
  5  6  2  0
  5  7  1  0
  7  8  1  0
  8  9  2  0
  8 10  2  0
  8 11  1  0
  2 12  1  0
 12 13  1  6
 13 14  1  0
 15 14  1  6
 15 16  1  0
 16 17  1  1
 17 18  1  1
 17 19  1  0
 20 19  1  1
 20 21  1  0
 21 22  1  0
 22 23  1  1
 22 24  1  0
 24 25  1  0
 25 26  1  0
 26 27  1  6
 26 28  1  0
 28 29  1  6
 29 30  1  0
 30 31  1  6
 30 32  1  0
 32 33  1  6
 32 12  1  0
 32 15  1  0
 28 16  1  0
 26 20  1  0
M  END
>  <MS_ID>  (1296) 
MS1347

>  <SMILES>  (1296) 
C[C@H](CCC(=O)NS(=O)(=O)O)[C@H]1CC[C@H]2[C@@H]3[C@H](O)C[C@@H]4C[C@H](O)CC[C@]4(C)[C@H]3C[C@@H](O)[C@]12C

>  <Structure_dimension>  (1296) 
2D

$$$$
MS1348
     RDKit          2D

 33 37  0  0  0  0  0  0  0  0999 V2000
   -3.4505   -3.2444    0.0000 C   0  0  0  0  0  0  0  0  0  0  0  0
   -2.4721   -2.1074    0.0000 C   0  0  0  0  0  0  0  0  0  0  0  0
   -2.9676   -0.6916    0.0000 C   0  0  0  0  0  0  0  0  0  0  0  0
   -4.4415   -0.4128    0.0000 C   0  0  0  0  0  0  0  0  0  0  0  0
   -4.9370    1.0030    0.0000 C   0  0  0  0  0  0  0  0  0  0  0  0
   -3.9586    2.1400    0.0000 O   0  0  0  0  0  0  0  0  0  0  0  0
   -6.4109    1.2817    0.0000 C   0  0  0  0  0  0  0  0  0  0  0  0
   -7.5027    0.2532    0.0000 C   0  0  0  0  0  0  0  0  0  0  0  0
   -8.8183    0.9738    0.0000 C   0  0  0  0  0  0  0  0  0  0  0  0
   -8.5395    2.4477    0.0000 O   0  0  0  0  0  0  0  0  0  0  0  0
   -7.0517    2.6380    0.0000 C   0  0  0  0  0  0  0  0  0  0  0  0
   -0.9983   -2.3862    0.0000 C   0  0  0  0  0  0  0  0  0  0  0  0
   -0.3575   -3.7424    0.0000 C   0  0  0  0  0  0  0  0  0  0  0  0
    1.1304   -3.5521    0.0000 C   0  0  0  0  0  0  0  0  0  0  0  0
    1.4092   -2.0783    0.0000 C   0  0  0  0  0  0  0  0  0  0  0  0
    2.6910   -1.2992    0.0000 C   0  0  0  0  0  0  0  0  0  0  0  0
    4.0066   -2.0198    0.0000 C   0  0  0  0  0  0  0  0  0  0  0  0
    4.0403   -3.5194    0.0000 O   0  0  0  0  0  0  0  0  0  0  0  0
    5.2884   -1.2408    0.0000 C   0  0  0  0  0  0  0  0  0  0  0  0
    5.2547    0.2589    0.0000 C   0  0  0  0  0  0  0  0  0  0  0  0
    6.5365    1.0379    0.0000 C   0  0  0  0  0  0  0  0  0  0  0  0
    6.5028    2.5375    0.0000 C   0  0  0  0  0  0  0  0  0  0  0  0
    7.7846    3.3166    0.0000 O   0  0  0  0  0  0  0  0  0  0  0  0
    5.1872    3.2581    0.0000 C   0  0  0  0  0  0  0  0  0  0  0  0
    3.9054    2.4791    0.0000 C   0  0  0  0  0  0  0  0  0  0  0  0
    3.9391    0.9794    0.0000 C   0  0  0  0  0  0  0  0  0  0  0  0
    2.6235    1.7000    0.0000 C   0  0  0  0  0  0  0  0  0  0  0  0
    2.6573    0.2004    0.0000 C   0  0  0  0  0  0  0  0  0  0  0  0
    1.3417    0.9210    0.0000 C   0  0  0  0  0  0  0  0  0  0  0  0
    0.0598    0.1420    0.0000 C   0  0  0  0  0  0  0  0  0  0  0  0
   -1.2557    0.8625    0.0000 O   0  0  0  0  0  0  0  0  0  0  0  0
    0.0936   -1.3577    0.0000 C   0  0  0  0  0  0  0  0  0  0  0  0
   -1.2901   -0.7785    0.0000 C   0  0  0  0  0  0  0  0  0  0  0  0
  2  1  1  6
  2  3  1  0
  3  4  1  0
  4  5  1  0
  5  6  2  0
  5  7  1  0
  7  8  1  0
  8  9  2  0
  9 10  1  0
 10 11  1  0
  2 12  1  0
 12 13  1  6
 13 14  1  0
 15 14  1  6
 15 16  1  0
 16 17  1  1
 17 18  1  1
 17 19  1  0
 20 19  1  1
 20 21  1  0
 21 22  1  0
 22 23  1  1
 22 24  1  0
 24 25  1  0
 25 26  1  0
 26 27  1  6
 26 28  1  0
 28 29  1  6
 29 30  1  0
 30 31  1  1
 30 32  1  0
 32 33  1  6
 11  7  2  0
 32 12  1  0
 32 15  1  0
 28 16  1  0
 26 20  1  0
M  END
>  <MS_ID>  (1297) 
MS1348

>  <SMILES>  (1297) 
C[C@H](CCC(=O)c1ccoc1)[C@H]1CC[C@H]2[C@@H]3[C@H](O)C[C@@H]4C[C@H](O)CC[C@]4(C)[C@H]3C[C@H](O)[C@]12C

>  <Structure_dimension>  (1297) 
2D

$$$$
MS1349
     RDKit          2D

 35 38  0  0  0  0  0  0  0  0999 V2000
   -1.1848   -4.5684    0.0000 C   0  0  0  0  0  0  0  0  0  0  0  0
   -0.5815   -3.1951    0.0000 C   0  0  0  0  0  0  0  0  0  0  0  0
   -1.4692   -1.9860    0.0000 C   0  0  0  0  0  0  0  0  0  0  0  0
   -2.9602   -2.1502    0.0000 C   0  0  0  0  0  0  0  0  0  0  0  0
   -3.8478   -0.9410    0.0000 C   0  0  0  0  0  0  0  0  0  0  0  0
   -3.2445    0.4323    0.0000 O   0  0  0  0  0  0  0  0  0  0  0  0
   -5.3388   -1.1052    0.0000 C   0  0  0  0  0  0  0  0  0  0  0  0
   -6.2265    0.1039    0.0000 C   0  0  0  0  0  0  0  0  0  0  0  0
   -7.7175   -0.0603    0.0000 C   0  0  0  0  0  0  0  0  0  0  0  0
   -8.6052    1.1489    0.0000 C   0  0  0  0  0  0  0  0  0  0  0  0
  -10.0962    0.9847    0.0000 C   0  0  0  0  0  0  0  0  0  0  0  0
  -10.9839    2.1938    0.0000 C   0  0  0  0  0  0  0  0  0  0  0  0
  -10.3806    3.5672    0.0000 O   0  0  0  0  0  0  0  0  0  0  0  0
  -12.4748    2.0297    0.0000 O   0  0  0  0  0  0  0  0  0  0  0  0
    0.9095   -3.0309    0.0000 C   0  0  0  0  0  0  0  0  0  0  0  0
    1.9187   -4.1407    0.0000 C   0  0  0  0  0  0  0  0  0  0  0  0
    3.2860   -3.5238    0.0000 C   0  0  0  0  0  0  0  0  0  0  0  0
    3.1218   -2.0328    0.0000 C   0  0  0  0  0  0  0  0  0  0  0  0
    4.1199   -0.9131    0.0000 C   0  0  0  0  0  0  0  0  0  0  0  0
    5.5887   -1.2177    0.0000 C   0  0  0  0  0  0  0  0  0  0  0  0
    6.0593   -2.6420    0.0000 O   0  0  0  0  0  0  0  0  0  0  0  0
    6.5869   -0.0980    0.0000 C   0  0  0  0  0  0  0  0  0  0  0  0
    6.1163    1.3263    0.0000 C   0  0  0  0  0  0  0  0  0  0  0  0
    7.1144    2.4459    0.0000 C   0  0  0  0  0  0  0  0  0  0  0  0
    6.6438    3.8702    0.0000 C   0  0  0  0  0  0  0  0  0  0  0  0
    7.6420    4.9899    0.0000 O   0  0  0  0  0  0  0  0  0  0  0  0
    5.1751    4.1748    0.0000 C   0  0  0  0  0  0  0  0  0  0  0  0
    4.1769    3.0551    0.0000 C   0  0  0  0  0  0  0  0  0  0  0  0
    4.6475    1.6309    0.0000 C   0  0  0  0  0  0  0  0  0  0  0  0
    3.1788    1.9354    0.0000 C   0  0  0  0  0  0  0  0  0  0  0  0
    3.6494    0.5112    0.0000 C   0  0  0  0  0  0  0  0  0  0  0  0
    2.1806    0.8158    0.0000 C   0  0  0  0  0  0  0  0  0  0  0  0
    1.1825   -0.3039    0.0000 C   0  0  0  0  0  0  0  0  0  0  0  0
    1.6530   -1.7282    0.0000 C   0  0  0  0  0  0  0  0  0  0  0  0
    0.1605   -1.5788    0.0000 C   0  0  0  0  0  0  0  0  0  0  0  0
  2  1  1  6
  2  3  1  0
  3  4  1  0
  4  5  1  0
  5  6  2  0
  5  7  1  0
  7  8  1  0
  8  9  1  0
  9 10  1  0
 10 11  1  0
 11 12  1  0
 12 13  2  0
 12 14  1  0
  2 15  1  0
 15 16  1  6
 16 17  1  0
 18 17  1  6
 18 19  1  0
 19 20  1  1
 20 21  1  6
 20 22  1  0
 23 22  1  1
 23 24  1  0
 24 25  1  0
 25 26  1  1
 25 27  1  0
 27 28  1  0
 28 29  1  0
 29 30  1  6
 29 31  1  0
 31 32  1  6
 32 33  1  0
 33 34  1  0
 34 35  1  6
 34 15  1  0
 34 18  1  0
 31 19  1  0
 29 23  1  0
M  END
>  <MS_ID>  (1298) 
MS1349

>  <SMILES>  (1298) 
C[C@H](CCC(=O)CCCCCC(=O)O)[C@H]1CC[C@H]2[C@@H]3[C@@H](O)C[C@@H]4C[C@H](O)CC[C@]4(C)[C@H]3CC[C@]12C

>  <Structure_dimension>  (1298) 
2D

$$$$
MS1350
     RDKit          2D

 32 35  0  0  0  0  0  0  0  0999 V2000
   -2.9090   -3.9078    0.0000 C   0  0  0  0  0  0  0  0  0  0  0  0
   -2.0926   -2.6494    0.0000 C   0  0  0  0  0  0  0  0  0  0  0  0
   -2.7741   -1.3132    0.0000 C   0  0  0  0  0  0  0  0  0  0  0  0
   -4.2721   -1.2353    0.0000 C   0  0  0  0  0  0  0  0  0  0  0  0
   -4.9536    0.1009    0.0000 C   0  0  0  0  0  0  0  0  0  0  0  0
   -4.1372    1.3592    0.0000 O   0  0  0  0  0  0  0  0  0  0  0  0
   -6.4516    0.1788    0.0000 O   0  0  0  0  0  0  0  0  0  0  0  0
   -7.1332    1.5150    0.0000 C   0  0  0  0  0  0  0  0  0  0  0  0
   -8.6311    1.5929    0.0000 C   0  0  0  0  0  0  0  0  0  0  0  0
   -9.3127    2.9291    0.0000 C   0  0  0  0  0  0  0  0  0  0  0  0
  -10.8107    3.0070    0.0000 O   0  0  0  0  0  0  0  0  0  0  0  0
   -0.5946   -2.7273    0.0000 C   0  0  0  0  0  0  0  0  0  0  0  0
    0.2229   -3.9850    0.0000 C   0  0  0  0  0  0  0  0  0  0  0  0
    1.6716   -3.5962    0.0000 C   0  0  0  0  0  0  0  0  0  0  0  0
    1.7495   -2.0982    0.0000 C   0  0  0  0  0  0  0  0  0  0  0  0
    2.9148   -1.1537    0.0000 C   0  0  0  0  0  0  0  0  0  0  0  0
    4.3154   -1.6907    0.0000 C   0  0  0  0  0  0  0  0  0  0  0  0
    4.5507   -3.1721    0.0000 O   0  0  0  0  0  0  0  0  0  0  0  0
    5.4807   -0.7462    0.0000 C   0  0  0  0  0  0  0  0  0  0  0  0
    5.2455    0.7352    0.0000 C   0  0  0  0  0  0  0  0  0  0  0  0
    6.4108    1.6797    0.0000 C   0  0  0  0  0  0  0  0  0  0  0  0
    6.1755    3.1611    0.0000 C   0  0  0  0  0  0  0  0  0  0  0  0
    7.3408    4.1056    0.0000 O   0  0  0  0  0  0  0  0  0  0  0  0
    4.7749    3.6981    0.0000 C   0  0  0  0  0  0  0  0  0  0  0  0
    3.6096    2.7536    0.0000 C   0  0  0  0  0  0  0  0  0  0  0  0
    3.8449    1.2722    0.0000 C   0  0  0  0  0  0  0  0  0  0  0  0
    2.4443    1.8091    0.0000 C   0  0  0  0  0  0  0  0  0  0  0  0
    2.6795    0.3277    0.0000 C   0  0  0  0  0  0  0  0  0  0  0  0
    1.2789    0.8647    0.0000 C   0  0  0  0  0  0  0  0  0  0  0  0
    0.1136   -0.0798    0.0000 C   0  0  0  0  0  0  0  0  0  0  0  0
    0.3489   -1.5612    0.0000 C   0  0  0  0  0  0  0  0  0  0  0  0
   -1.1002   -1.1736    0.0000 C   0  0  0  0  0  0  0  0  0  0  0  0
  2  1  1  6
  2  3  1  0
  3  4  1  0
  4  5  1  0
  5  6  2  0
  5  7  1  0
  7  8  1  0
  8  9  1  0
  9 10  1  0
 10 11  1  0
  2 12  1  0
 12 13  1  6
 13 14  1  0
 15 14  1  6
 15 16  1  0
 16 17  1  1
 17 18  1  1
 17 19  1  0
 20 19  1  1
 20 21  1  0
 21 22  1  0
 22 23  1  1
 22 24  1  0
 24 25  1  0
 25 26  1  0
 26 27  1  6
 26 28  1  0
 28 29  1  6
 29 30  1  0
 30 31  1  0
 31 32  1  6
 31 12  1  0
 31 15  1  0
 28 16  1  0
 26 20  1  0
M  END
>  <MS_ID>  (1299) 
MS1350

>  <SMILES>  (1299) 
C[C@H](CCC(=O)OCCCO)[C@H]1CC[C@H]2[C@@H]3[C@H](O)C[C@@H]4C[C@H](O)CC[C@]4(C)[C@H]3CC[C@]12C

>  <Structure_dimension>  (1299) 
2D

$$$$
MS1352
     RDKit          2D

 37 41  0  0  0  0  0  0  0  0999 V2000
   -1.1345   -4.7100    0.0000 C   0  0  0  0  0  0  0  0  0  0  0  0
   -0.5750   -3.3183    0.0000 C   0  0  0  0  0  0  0  0  0  0  0  0
   -1.5006   -2.1379    0.0000 C   0  0  0  0  0  0  0  0  0  0  0  0
   -2.9856   -2.3492    0.0000 C   0  0  0  0  0  0  0  0  0  0  0  0
   -3.9111   -1.1688    0.0000 C   0  0  0  0  0  0  0  0  0  0  0  0
   -3.3516    0.2230    0.0000 O   0  0  0  0  0  0  0  0  0  0  0  0
   -5.3962   -1.3801    0.0000 O   0  0  0  0  0  0  0  0  0  0  0  0
   -6.3217   -0.1997    0.0000 C   0  0  0  0  0  0  0  0  0  0  0  0
   -7.8068   -0.4111    0.0000 C   0  0  0  0  0  0  0  0  0  0  0  0
   -8.7323    0.7693    0.0000 C   0  0  0  0  0  0  0  0  0  0  0  0
   -8.1728    2.1611    0.0000 C   0  0  0  0  0  0  0  0  0  0  0  0
   -9.0983    3.3415    0.0000 C   0  0  0  0  0  0  0  0  0  0  0  0
  -10.5834    3.1302    0.0000 C   0  0  0  0  0  0  0  0  0  0  0  0
  -11.1429    1.7384    0.0000 C   0  0  0  0  0  0  0  0  0  0  0  0
  -10.2173    0.5580    0.0000 C   0  0  0  0  0  0  0  0  0  0  0  0
    0.9100   -3.1069    0.0000 C   0  0  0  0  0  0  0  0  0  0  0  0
    1.9539   -4.1841    0.0000 C   0  0  0  0  0  0  0  0  0  0  0  0
    3.3009   -3.5242    0.0000 C   0  0  0  0  0  0  0  0  0  0  0  0
    3.0896   -2.0392    0.0000 C   0  0  0  0  0  0  0  0  0  0  0  0
    4.0518   -0.8885    0.0000 C   0  0  0  0  0  0  0  0  0  0  0  0
    5.5294   -1.1464    0.0000 C   0  0  0  0  0  0  0  0  0  0  0  0
    6.0449   -2.5550    0.0000 O   0  0  0  0  0  0  0  0  0  0  0  0
    6.4916    0.0044    0.0000 C   0  0  0  0  0  0  0  0  0  0  0  0
    7.9693   -0.2535    0.0000 O   0  0  0  0  0  0  0  0  0  0  0  0
    5.9761    1.4130    0.0000 C   0  0  0  0  0  0  0  0  0  0  0  0
    6.9383    2.5638    0.0000 C   0  0  0  0  0  0  0  0  0  0  0  0
    6.4229    3.9724    0.0000 C   0  0  0  0  0  0  0  0  0  0  0  0
    7.3850    5.1231    0.0000 O   0  0  0  0  0  0  0  0  0  0  0  0
    4.9452    4.2303    0.0000 C   0  0  0  0  0  0  0  0  0  0  0  0
    3.9830    3.0796    0.0000 C   0  0  0  0  0  0  0  0  0  0  0  0
    4.4985    1.6709    0.0000 C   0  0  0  0  0  0  0  0  0  0  0  0
    3.0208    1.9288    0.0000 C   0  0  0  0  0  0  0  0  0  0  0  0
    3.5363    0.5202    0.0000 C   0  0  0  0  0  0  0  0  0  0  0  0
    2.0586    0.7781    0.0000 C   0  0  0  0  0  0  0  0  0  0  0  0
    1.0965   -0.3726    0.0000 C   0  0  0  0  0  0  0  0  0  0  0  0
    1.6119   -1.7813    0.0000 C   0  0  0  0  0  0  0  0  0  0  0  0
    0.1154   -1.6793    0.0000 C   0  0  0  0  0  0  0  0  0  0  0  0
  2  1  1  6
  2  3  1  0
  3  4  1  0
  4  5  1  0
  5  6  2  0
  5  7  1  0
  7  8  1  0
  8  9  1  0
  9 10  1  0
 10 11  2  0
 11 12  1  0
 12 13  2  0
 13 14  1  0
 14 15  2  0
  2 16  1  0
 16 17  1  6
 17 18  1  0
 19 18  1  6
 19 20  1  0
 20 21  1  1
 21 22  1  1
 21 23  1  0
 23 24  1  1
 23 25  1  0
 25 26  1  1
 26 27  1  0
 27 28  1  1
 27 29  1  0
 29 30  1  0
 30 31  1  0
 31 32  1  6
 31 33  1  0
 33 34  1  6
 34 35  1  0
 35 36  1  0
 36 37  1  6
 15 10  1  0
 36 16  1  0
 36 19  1  0
 33 20  1  0
 31 25  1  0
M  END
>  <MS_ID>  (1300) 
MS1352

>  <SMILES>  (1300) 
C[C@H](CCC(=O)OCCc1ccccc1)[C@H]1CC[C@H]2[C@@H]3[C@H](O)[C@H](O)[C@@H]4C[C@H](O)CC[C@]4(C)[C@H]3CC[C@]12C

>  <Structure_dimension>  (1300) 
2D

$$$$
MS1353
     RDKit          2D

 35 39  0  0  0  0  0  0  0  0999 V2000
   -2.2319   -4.3352    0.0000 C   0  0  0  0  0  0  0  0  0  0  0  0
   -1.5144   -3.0180    0.0000 C   0  0  0  0  0  0  0  0  0  0  0  0
   -2.2965   -1.7380    0.0000 C   0  0  0  0  0  0  0  0  0  0  0  0
   -3.7960   -1.7752    0.0000 C   0  0  0  0  0  0  0  0  0  0  0  0
   -4.5781   -0.4952    0.0000 C   0  0  0  0  0  0  0  0  0  0  0  0
   -3.8606    0.8220    0.0000 O   0  0  0  0  0  0  0  0  0  0  0  0
   -6.0776   -0.5325    0.0000 C   0  0  0  0  0  0  0  0  0  0  0  0
   -6.8597    0.7475    0.0000 C   0  0  0  0  0  0  0  0  0  0  0  0
   -6.1422    2.0648    0.0000 C   0  0  0  0  0  0  0  0  0  0  0  0
   -6.9242    3.3448    0.0000 C   0  0  0  0  0  0  0  0  0  0  0  0
   -8.4238    3.3075    0.0000 C   0  0  0  0  0  0  0  0  0  0  0  0
   -9.1412    1.9902    0.0000 C   0  0  0  0  0  0  0  0  0  0  0  0
   -8.3592    0.7102    0.0000 C   0  0  0  0  0  0  0  0  0  0  0  0
   -0.0149   -2.9807    0.0000 C   0  0  0  0  0  0  0  0  0  0  0  0
    0.8967   -4.1719    0.0000 C   0  0  0  0  0  0  0  0  0  0  0  0
    2.3113   -3.6731    0.0000 C   0  0  0  0  0  0  0  0  0  0  0  0
    2.2740   -2.1736    0.0000 C   0  0  0  0  0  0  0  0  0  0  0  0
    3.3634   -1.1425    0.0000 C   0  0  0  0  0  0  0  0  0  0  0  0
    4.8011   -1.5704    0.0000 C   0  0  0  0  0  0  0  0  0  0  0  0
    5.1493   -3.0294    0.0000 O   0  0  0  0  0  0  0  0  0  0  0  0
    5.8905   -0.5393    0.0000 C   0  0  0  0  0  0  0  0  0  0  0  0
    5.5423    0.9197    0.0000 C   0  0  0  0  0  0  0  0  0  0  0  0
    6.6317    1.9508    0.0000 C   0  0  0  0  0  0  0  0  0  0  0  0
    6.2835    3.4098    0.0000 C   0  0  0  0  0  0  0  0  0  0  0  0
    7.3729    4.4409    0.0000 O   0  0  0  0  0  0  0  0  0  0  0  0
    4.8458    3.8377    0.0000 C   0  0  0  0  0  0  0  0  0  0  0  0
    3.7564    2.8066    0.0000 C   0  0  0  0  0  0  0  0  0  0  0  0
    4.1046    1.3476    0.0000 C   0  0  0  0  0  0  0  0  0  0  0  0
    2.6670    1.7755    0.0000 C   0  0  0  0  0  0  0  0  0  0  0  0
    3.0152    0.3165    0.0000 C   0  0  0  0  0  0  0  0  0  0  0  0
    1.5776    0.7445    0.0000 C   0  0  0  0  0  0  0  0  0  0  0  0
    0.4881   -0.2866    0.0000 C   0  0  0  0  0  0  0  0  0  0  0  0
   -0.9495    0.1413    0.0000 O   0  0  0  0  0  0  0  0  0  0  0  0
    0.8363   -1.7456    0.0000 C   0  0  0  0  0  0  0  0  0  0  0  0
   -0.6382   -1.4703    0.0000 C   0  0  0  0  0  0  0  0  0  0  0  0
  2  1  1  6
  2  3  1  0
  3  4  1  0
  4  5  1  0
  5  6  2  0
  5  7  1  0
  7  8  1  0
  8  9  2  0
  9 10  1  0
 10 11  2  0
 11 12  1  0
 12 13  2  0
  2 14  1  0
 14 15  1  6
 15 16  1  0
 17 16  1  6
 17 18  1  0
 18 19  1  1
 19 20  1  1
 19 21  1  0
 22 21  1  1
 22 23  1  0
 23 24  1  0
 24 25  1  1
 24 26  1  0
 26 27  1  0
 27 28  1  0
 28 29  1  6
 28 30  1  0
 30 31  1  6
 31 32  1  0
 32 33  1  1
 32 34  1  0
 34 35  1  6
 13  8  1  0
 34 14  1  0
 34 17  1  0
 30 18  1  0
 28 22  1  0
M  END
>  <MS_ID>  (1301) 
MS1353

>  <SMILES>  (1301) 
C[C@H](CCC(=O)Cc1ccccc1)[C@H]1CC[C@H]2[C@@H]3[C@H](O)C[C@@H]4C[C@H](O)CC[C@]4(C)[C@H]3C[C@H](O)[C@]12C

>  <Structure_dimension>  (1301) 
2D

$$$$
MS1354
     RDKit          2D

 31 34  0  0  0  0  0  0  0  0999 V2000
   -5.9524   -1.8125    0.0000 C   0  0  0  0  0  0  0  0  0  0  0  0
   -4.6802   -1.0178    0.0000 C   0  0  0  0  0  0  0  0  0  0  0  0
   -4.7324    0.4813    0.0000 C   0  0  0  0  0  0  0  0  0  0  0  0
   -6.0567    1.1857    0.0000 C   0  0  0  0  0  0  0  0  0  0  0  0
   -6.1088    2.6848    0.0000 C   0  0  0  0  0  0  0  0  0  0  0  0
   -4.8366    3.4795    0.0000 O   0  0  0  0  0  0  0  0  0  0  0  0
   -7.4331    3.3892    0.0000 O   0  0  0  0  0  0  0  0  0  0  0  0
   -3.3559   -1.7222    0.0000 C   0  0  0  0  0  0  0  0  0  0  0  0
   -3.1474   -3.2076    0.0000 C   0  0  0  0  0  0  0  0  0  0  0  0
   -1.6702   -3.4683    0.0000 C   0  0  0  0  0  0  0  0  0  0  0  0
   -0.9658   -2.1440    0.0000 C   0  0  0  0  0  0  0  0  0  0  0  0
    0.4897   -1.7814    0.0000 C   0  0  0  0  0  0  0  0  0  0  0  0
    1.5315   -2.8605    0.0000 C   0  0  0  0  0  0  0  0  0  0  0  0
    2.9870   -2.4979    0.0000 C   0  0  0  0  0  0  0  0  0  0  0  0
    3.4007   -1.0561    0.0000 C   0  0  0  0  0  0  0  0  0  0  0  0
    4.8562   -0.6934    0.0000 C   0  0  0  0  0  0  0  0  0  0  0  0
    5.2699    0.7484    0.0000 C   0  0  0  0  0  0  0  0  0  0  0  0
    6.7254    1.1111    0.0000 S   0  0  0  0  0  0  0  0  0  0  0  0
    7.0880   -0.3444    0.0000 O   0  0  0  0  0  0  0  0  0  0  0  0
    6.3627    2.5666    0.0000 O   0  0  0  0  0  0  0  0  0  0  0  0
    8.1809    1.4737    0.0000 O   0  0  0  0  0  0  0  0  0  0  0  0
    4.2281    1.8276    0.0000 C   0  0  0  0  0  0  0  0  0  0  0  0
    2.7726    1.4649    0.0000 C   0  0  0  0  0  0  0  0  0  0  0  0
    2.3589    0.0231    0.0000 C   0  0  0  0  0  0  0  0  0  0  0  0
    1.3171    1.1023    0.0000 C   0  0  0  0  0  0  0  0  0  0  0  0
    0.9034   -0.3395    0.0000 C   0  0  0  0  0  0  0  0  0  0  0  0
   -0.1384    0.7396    0.0000 C   0  0  0  0  0  0  0  0  0  0  0  0
   -1.5939    0.3770    0.0000 C   0  0  0  0  0  0  0  0  0  0  0  0
   -2.6358    1.4561    0.0000 O   0  0  0  0  0  0  0  0  0  0  0  0
   -2.0076   -1.0649    0.0000 C   0  0  0  0  0  0  0  0  0  0  0  0
   -3.1565   -0.1005    0.0000 C   0  0  0  0  0  0  0  0  0  0  0  0
  2  1  1  6
  2  3  1  0
  3  4  1  0
  4  5  1  0
  5  6  2  0
  5  7  1  0
  2  8  1  0
  8  9  1  6
  9 10  1  0
 11 10  1  6
 11 12  1  0
 12 13  1  1
 13 14  1  0
 15 14  1  1
 15 16  1  0
 16 17  1  0
 17 18  1  1
 18 19  2  0
 18 20  2  0
 18 21  1  0
 17 22  1  0
 22 23  1  0
 23 24  1  0
 24 25  1  6
 24 26  1  0
 26 27  1  6
 27 28  1  0
 28 29  1  1
 28 30  1  0
 30 31  1  6
 30  8  1  0
 30 11  1  0
 26 12  1  0
 24 15  1  0
M  END
>  <MS_ID>  (1302) 
MS1354

>  <SMILES>  (1302) 
C[C@H](CCC(=O)O)[C@H]1CC[C@H]2[C@@H]3CC[C@@H]4C[C@H](S(=O)(=O)O)CC[C@]4(C)[C@H]3C[C@H](O)[C@]12C

>  <Structure_dimension>  (1302) 
2D

$$$$
MS1355
     RDKit          2D

 29 32  0  0  0  0  0  0  0  0999 V2000
   -8.7027    3.3418    0.0000 C   0  0  0  0  0  0  0  0  0  0  0  0
   -7.2445    2.9904    0.0000 C   0  0  0  0  0  0  0  0  0  0  0  0
   -6.8197    1.5518    0.0000 O   0  0  0  0  0  0  0  0  0  0  0  0
   -5.3614    1.2003    0.0000 C   0  0  0  0  0  0  0  0  0  0  0  0
   -4.3279    2.2875    0.0000 O   0  0  0  0  0  0  0  0  0  0  0  0
   -4.9366   -0.2383    0.0000 C   0  0  0  0  0  0  0  0  0  0  0  0
   -3.4784   -0.5897    0.0000 C   0  0  0  0  0  0  0  0  0  0  0  0
   -3.0536   -2.0283    0.0000 C   0  0  0  0  0  0  0  0  0  0  0  0
   -4.0871   -3.1154    0.0000 C   0  0  0  0  0  0  0  0  0  0  0  0
   -1.5953   -2.3797    0.0000 C   0  0  0  0  0  0  0  0  0  0  0  0
   -1.0225   -3.7660    0.0000 C   0  0  0  0  0  0  0  0  0  0  0  0
    0.4730   -3.6496    0.0000 C   0  0  0  0  0  0  0  0  0  0  0  0
    0.8244   -2.1914    0.0000 C   0  0  0  0  0  0  0  0  0  0  0  0
    2.1432   -1.4767    0.0000 C   0  0  0  0  0  0  0  0  0  0  0  0
    3.4215   -2.2616    0.0000 C   0  0  0  0  0  0  0  0  0  0  0  0
    4.7404   -1.5470    0.0000 C   0  0  0  0  0  0  0  0  0  0  0  0
    4.7809   -0.0475    0.0000 C   0  0  0  0  0  0  0  0  0  0  0  0
    6.0998    0.6671    0.0000 C   0  0  0  0  0  0  0  0  0  0  0  0
    6.1403    2.1665    0.0000 C   0  0  0  0  0  0  0  0  0  0  0  0
    7.4592    2.8811    0.0000 O   0  0  0  0  0  0  0  0  0  0  0  0
    4.8620    2.9514    0.0000 C   0  0  0  0  0  0  0  0  0  0  0  0
    3.5432    2.2368    0.0000 C   0  0  0  0  0  0  0  0  0  0  0  0
    3.5026    0.7373    0.0000 C   0  0  0  0  0  0  0  0  0  0  0  0
    2.2243    1.5222    0.0000 C   0  0  0  0  0  0  0  0  0  0  0  0
    2.1838    0.0227    0.0000 C   0  0  0  0  0  0  0  0  0  0  0  0
    0.9055    0.8076    0.0000 C   0  0  0  0  0  0  0  0  0  0  0  0
   -0.4133    0.0929    0.0000 C   0  0  0  0  0  0  0  0  0  0  0  0
   -0.4539   -1.4065    0.0000 C   0  0  0  0  0  0  0  0  0  0  0  0
   -1.8072   -0.7596    0.0000 C   0  0  0  0  0  0  0  0  0  0  0  0
  1  2  1  0
  2  3  1  0
  3  4  1  0
  4  5  2  0
  4  6  1  0
  6  7  1  0
  7  8  1  0
  8  9  1  6
  8 10  1  0
 10 11  1  6
 11 12  1  0
 13 12  1  6
 13 14  1  0
 14 15  1  1
 15 16  1  0
 17 16  1  1
 17 18  1  0
 18 19  1  0
 19 20  1  1
 19 21  1  0
 21 22  1  0
 22 23  1  0
 23 24  1  6
 23 25  1  0
 25 26  1  6
 26 27  1  0
 27 28  1  0
 28 29  1  6
 28 10  1  0
 28 13  1  0
 25 14  1  0
 23 17  1  0
M  END
>  <MS_ID>  (1303) 
MS1355

>  <SMILES>  (1303) 
CCOC(=O)CC[C@@H](C)[C@H]1CC[C@H]2[C@@H]3CC[C@@H]4C[C@H](O)CC[C@]4(C)[C@H]3CC[C@]12C

>  <Structure_dimension>  (1303) 
2D

$$$$
MS1356
     RDKit          2D

 35 39  0  0  0  0  0  0  0  0999 V2000
   -2.2371   -3.9665    0.0000 C   0  0  0  0  0  0  0  0  0  0  0  0
   -1.4340   -2.6997    0.0000 C   0  0  0  0  0  0  0  0  0  0  0  0
   -2.1295   -1.3707    0.0000 C   0  0  0  0  0  0  0  0  0  0  0  0
   -3.6283   -1.3086    0.0000 C   0  0  0  0  0  0  0  0  0  0  0  0
   -4.3238    0.0204    0.0000 C   0  0  0  0  0  0  0  0  0  0  0  0
   -3.5207    1.2873    0.0000 O   0  0  0  0  0  0  0  0  0  0  0  0
   -5.8225    0.0825    0.0000 C   0  0  0  0  0  0  0  0  0  0  0  0
   -6.5181    1.4115    0.0000 C   0  0  0  0  0  0  0  0  0  0  0  0
   -8.0168    1.4736    0.0000 N   0  0  0  0  0  0  0  0  0  0  0  0
   -8.9480    0.2976    0.0000 C   0  0  0  0  0  0  0  0  0  0  0  0
  -10.3542    0.8198    0.0000 C   0  0  0  0  0  0  0  0  0  0  0  0
  -10.2921    2.3185    0.0000 N   0  0  0  0  0  0  0  0  0  0  0  0
   -8.8475    2.7225    0.0000 C   0  0  0  0  0  0  0  0  0  0  0  0
    0.0648   -2.7618    0.0000 C   0  0  0  0  0  0  0  0  0  0  0  0
    0.8954   -4.0108    0.0000 C   0  0  0  0  0  0  0  0  0  0  0  0
    2.3400   -3.6067    0.0000 C   0  0  0  0  0  0  0  0  0  0  0  0
    2.4021   -2.1080    0.0000 C   0  0  0  0  0  0  0  0  0  0  0  0
    3.5574   -1.1513    0.0000 C   0  0  0  0  0  0  0  0  0  0  0  0
    4.9636   -1.6735    0.0000 C   0  0  0  0  0  0  0  0  0  0  0  0
    5.2144   -3.1523    0.0000 O   0  0  0  0  0  0  0  0  0  0  0  0
    6.1189   -0.7168    0.0000 C   0  0  0  0  0  0  0  0  0  0  0  0
    5.8680    0.7621    0.0000 C   0  0  0  0  0  0  0  0  0  0  0  0
    7.0233    1.7188    0.0000 C   0  0  0  0  0  0  0  0  0  0  0  0
    6.7725    3.1976    0.0000 C   0  0  0  0  0  0  0  0  0  0  0  0
    7.9278    4.1543    0.0000 O   0  0  0  0  0  0  0  0  0  0  0  0
    5.3663    3.7198    0.0000 C   0  0  0  0  0  0  0  0  0  0  0  0
    4.2110    2.7632    0.0000 C   0  0  0  0  0  0  0  0  0  0  0  0
    4.4619    1.2843    0.0000 C   0  0  0  0  0  0  0  0  0  0  0  0
    3.0557    1.8065    0.0000 C   0  0  0  0  0  0  0  0  0  0  0  0
    3.3065    0.3276    0.0000 C   0  0  0  0  0  0  0  0  0  0  0  0
    1.9004    0.8498    0.0000 C   0  0  0  0  0  0  0  0  0  0  0  0
    0.7451   -0.1069    0.0000 C   0  0  0  0  0  0  0  0  0  0  0  0
   -0.6611    0.4153    0.0000 O   0  0  0  0  0  0  0  0  0  0  0  0
    0.9959   -1.5858    0.0000 C   0  0  0  0  0  0  0  0  0  0  0  0
   -0.4571   -1.2134    0.0000 C   0  0  0  0  0  0  0  0  0  0  0  0
  2  1  1  6
  2  3  1  0
  3  4  1  0
  4  5  1  0
  5  6  2  0
  5  7  1  0
  7  8  1  0
  8  9  1  0
  9 10  1  0
 10 11  2  0
 11 12  1  0
 12 13  2  0
  2 14  1  0
 14 15  1  6
 15 16  1  0
 17 16  1  6
 17 18  1  0
 18 19  1  1
 19 20  1  1
 19 21  1  0
 22 21  1  1
 22 23  1  0
 23 24  1  0
 24 25  1  1
 24 26  1  0
 26 27  1  0
 27 28  1  0
 28 29  1  6
 28 30  1  0
 30 31  1  6
 31 32  1  0
 32 33  1  1
 32 34  1  0
 34 35  1  6
 13  9  1  0
 34 14  1  0
 34 17  1  0
 30 18  1  0
 28 22  1  0
M  END
>  <MS_ID>  (1304) 
MS1356

>  <SMILES>  (1304) 
C[C@H](CCC(=O)CCn1ccnc1)[C@H]1CC[C@H]2[C@@H]3[C@H](O)C[C@@H]4C[C@H](O)CC[C@]4(C)[C@H]3C[C@H](O)[C@]12C

>  <Structure_dimension>  (1304) 
2D

$$$$
MS1357
     RDKit          2D

 30 33  0  0  0  0  0  0  0  0999 V2000
   -3.5909   -3.2894    0.0000 C   0  0  0  0  0  0  0  0  0  0  0  0
   -2.6685   -2.1066    0.0000 C   0  0  0  0  0  0  0  0  0  0  0  0
   -3.2316   -0.7163    0.0000 C   0  0  0  0  0  0  0  0  0  0  0  0
   -4.7172   -0.5088    0.0000 C   0  0  0  0  0  0  0  0  0  0  0  0
   -5.2803    0.8815    0.0000 C   0  0  0  0  0  0  0  0  0  0  0  0
   -4.3578    2.0643    0.0000 O   0  0  0  0  0  0  0  0  0  0  0  0
   -6.7659    1.0889    0.0000 C   0  0  0  0  0  0  0  0  0  0  0  0
   -7.3290    2.4792    0.0000 C   0  0  0  0  0  0  0  0  0  0  0  0
   -8.8146    2.6867    0.0000 O   0  0  0  0  0  0  0  0  0  0  0  0
   -1.1829   -2.3140    0.0000 C   0  0  0  0  0  0  0  0  0  0  0  0
   -0.4775   -3.6378    0.0000 C   0  0  0  0  0  0  0  0  0  0  0  0
    0.9995   -3.3760    0.0000 C   0  0  0  0  0  0  0  0  0  0  0  0
    1.2069   -1.8905    0.0000 C   0  0  0  0  0  0  0  0  0  0  0  0
    2.4498   -1.0506    0.0000 C   0  0  0  0  0  0  0  0  0  0  0  0
    3.7985   -1.7070    0.0000 C   0  0  0  0  0  0  0  0  0  0  0  0
    3.9045   -3.2032    0.0000 O   0  0  0  0  0  0  0  0  0  0  0  0
    5.0414   -0.8671    0.0000 C   0  0  0  0  0  0  0  0  0  0  0  0
    4.9354    0.6292    0.0000 C   0  0  0  0  0  0  0  0  0  0  0  0
    6.1782    1.4691    0.0000 C   0  0  0  0  0  0  0  0  0  0  0  0
    6.0723    2.9653    0.0000 C   0  0  0  0  0  0  0  0  0  0  0  0
    4.7235    3.6217    0.0000 C   0  0  0  0  0  0  0  0  0  0  0  0
    3.4807    2.7818    0.0000 C   0  0  0  0  0  0  0  0  0  0  0  0
    3.5866    1.2856    0.0000 C   0  0  0  0  0  0  0  0  0  0  0  0
    2.2379    1.9419    0.0000 C   0  0  0  0  0  0  0  0  0  0  0  0
    2.3438    0.4457    0.0000 C   0  0  0  0  0  0  0  0  0  0  0  0
    0.9950    1.1020    0.0000 C   0  0  0  0  0  0  0  0  0  0  0  0
   -0.2478    0.2622    0.0000 C   0  0  0  0  0  0  0  0  0  0  0  0
   -1.5965    0.9185    0.0000 O   0  0  0  0  0  0  0  0  0  0  0  0
   -0.1418   -1.2341    0.0000 C   0  0  0  0  0  0  0  0  0  0  0  0
   -1.5518   -0.7223    0.0000 C   0  0  0  0  0  0  0  0  0  0  0  0
  2  1  1  6
  2  3  1  0
  3  4  1  0
  4  5  1  0
  5  6  2  0
  5  7  1  0
  7  8  1  0
  8  9  1  0
  2 10  1  0
 10 11  1  6
 11 12  1  0
 13 12  1  6
 13 14  1  0
 14 15  1  1
 15 16  1  6
 15 17  1  0
 18 17  1  1
 18 19  1  0
 19 20  1  0
 20 21  1  0
 21 22  1  0
 22 23  1  0
 23 24  1  6
 23 25  1  0
 25 26  1  6
 26 27  1  0
 27 28  1  6
 27 29  1  0
 29 30  1  6
 29 10  1  0
 29 13  1  0
 25 14  1  0
 23 18  1  0
M  END
>  <MS_ID>  (1305) 
MS1357

>  <SMILES>  (1305) 
C[C@H](CCC(=O)CCO)[C@H]1CC[C@H]2[C@@H]3[C@@H](O)C[C@@H]4CCCC[C@]4(C)[C@H]3C[C@@H](O)[C@]12C

>  <Structure_dimension>  (1305) 
2D

$$$$
MS1358
     RDKit          2D

 34 38  0  0  0  0  0  0  0  0999 V2000
   -2.6599   -4.1335    0.0000 C   0  0  0  0  0  0  0  0  0  0  0  0
   -1.8847   -2.8494    0.0000 C   0  0  0  0  0  0  0  0  0  0  0  0
   -2.6091   -1.5360    0.0000 C   0  0  0  0  0  0  0  0  0  0  0  0
   -4.1089   -1.5067    0.0000 C   0  0  0  0  0  0  0  0  0  0  0  0
   -4.8333   -0.1932    0.0000 C   0  0  0  0  0  0  0  0  0  0  0  0
   -4.0581    1.0909    0.0000 O   0  0  0  0  0  0  0  0  0  0  0  0
   -6.3331   -0.1639    0.0000 C   0  0  0  0  0  0  0  0  0  0  0  0
   -7.0575    1.1495    0.0000 N   0  0  0  0  0  0  0  0  0  0  0  0
   -8.5460    1.3354    0.0000 C   0  0  0  0  0  0  0  0  0  0  0  0
   -8.8291    2.8085    0.0000 C   0  0  0  0  0  0  0  0  0  0  0  0
   -7.5157    3.5330    0.0000 N   0  0  0  0  0  0  0  0  0  0  0  0
   -6.4208    2.5077    0.0000 C   0  0  0  0  0  0  0  0  0  0  0  0
   -0.3850   -2.8787    0.0000 C   0  0  0  0  0  0  0  0  0  0  0  0
    0.4728   -4.1092    0.0000 C   0  0  0  0  0  0  0  0  0  0  0  0
    1.9082   -3.6737    0.0000 C   0  0  0  0  0  0  0  0  0  0  0  0
    1.9375   -2.1740    0.0000 C   0  0  0  0  0  0  0  0  0  0  0  0
    3.0716   -1.1922    0.0000 C   0  0  0  0  0  0  0  0  0  0  0  0
    4.4889   -1.6835    0.0000 C   0  0  0  0  0  0  0  0  0  0  0  0
    4.7720   -3.1566    0.0000 O   0  0  0  0  0  0  0  0  0  0  0  0
    5.6230   -0.7018    0.0000 C   0  0  0  0  0  0  0  0  0  0  0  0
    5.3399    0.7712    0.0000 C   0  0  0  0  0  0  0  0  0  0  0  0
    6.4740    1.7530    0.0000 C   0  0  0  0  0  0  0  0  0  0  0  0
    6.1908    3.2260    0.0000 C   0  0  0  0  0  0  0  0  0  0  0  0
    7.3249    4.2077    0.0000 O   0  0  0  0  0  0  0  0  0  0  0  0
    4.7736    3.7173    0.0000 C   0  0  0  0  0  0  0  0  0  0  0  0
    3.6395    2.7356    0.0000 C   0  0  0  0  0  0  0  0  0  0  0  0
    3.9226    1.2625    0.0000 C   0  0  0  0  0  0  0  0  0  0  0  0
    2.5053    1.7538    0.0000 C   0  0  0  0  0  0  0  0  0  0  0  0
    2.7885    0.2808    0.0000 C   0  0  0  0  0  0  0  0  0  0  0  0
    1.3712    0.7721    0.0000 C   0  0  0  0  0  0  0  0  0  0  0  0
    0.2371   -0.2096    0.0000 C   0  0  0  0  0  0  0  0  0  0  0  0
   -1.1801    0.2817    0.0000 O   0  0  0  0  0  0  0  0  0  0  0  0
    0.5203   -1.6826    0.0000 C   0  0  0  0  0  0  0  0  0  0  0  0
   -0.9406   -1.3422    0.0000 C   0  0  0  0  0  0  0  0  0  0  0  0
  2  1  1  6
  2  3  1  0
  3  4  1  0
  4  5  1  0
  5  6  2  0
  5  7  1  0
  7  8  1  0
  8  9  1  0
  9 10  2  0
 10 11  1  0
 11 12  2  0
  2 13  1  0
 13 14  1  6
 14 15  1  0
 16 15  1  6
 16 17  1  0
 17 18  1  1
 18 19  1  1
 18 20  1  0
 21 20  1  1
 21 22  1  0
 22 23  1  0
 23 24  1  1
 23 25  1  0
 25 26  1  0
 26 27  1  0
 27 28  1  6
 27 29  1  0
 29 30  1  6
 30 31  1  0
 31 32  1  1
 31 33  1  0
 33 34  1  6
 12  8  1  0
 33 13  1  0
 33 16  1  0
 29 17  1  0
 27 21  1  0
M  END
>  <MS_ID>  (1306) 
MS1358

>  <SMILES>  (1306) 
C[C@H](CCC(=O)Cn1ccnc1)[C@H]1CC[C@H]2[C@@H]3[C@H](O)C[C@@H]4C[C@H](O)CC[C@]4(C)[C@H]3C[C@H](O)[C@]12C

>  <Structure_dimension>  (1306) 
2D

$$$$
MS1359
     RDKit          2D

 35 38  0  0  0  0  0  0  0  0999 V2000
   -9.0141    4.0088    0.0000 C   0  0  0  0  0  0  0  0  0  0  0  0
   -9.6575    2.6538    0.0000 C   0  0  0  0  0  0  0  0  0  0  0  0
   -8.8057    1.4191    0.0000 S   0  0  0  0  0  0  0  0  0  0  0  0
   -7.5710    2.2709    0.0000 O   0  0  0  0  0  0  0  0  0  0  0  0
  -10.0404    0.5673    0.0000 O   0  0  0  0  0  0  0  0  0  0  0  0
   -7.9539    0.1844    0.0000 C   0  0  0  0  0  0  0  0  0  0  0  0
   -6.4587    0.3047    0.0000 C   0  0  0  0  0  0  0  0  0  0  0  0
   -5.6069   -0.9299    0.0000 N   0  0  0  0  0  0  0  0  0  0  0  0
   -4.1117   -0.8096    0.0000 C   0  0  0  0  0  0  0  0  0  0  0  0
   -3.4684    0.5454    0.0000 O   0  0  0  0  0  0  0  0  0  0  0  0
   -3.2599   -2.0443    0.0000 C   0  0  0  0  0  0  0  0  0  0  0  0
   -1.7648   -1.9239    0.0000 C   0  0  0  0  0  0  0  0  0  0  0  0
   -0.9130   -3.1586    0.0000 C   0  0  0  0  0  0  0  0  0  0  0  0
   -1.5563   -4.5136    0.0000 C   0  0  0  0  0  0  0  0  0  0  0  0
    0.5822   -3.0382    0.0000 C   0  0  0  0  0  0  0  0  0  0  0  0
    1.5584   -4.1771    0.0000 C   0  0  0  0  0  0  0  0  0  0  0  0
    2.9432   -3.6006    0.0000 C   0  0  0  0  0  0  0  0  0  0  0  0
    2.8228   -2.1055    0.0000 C   0  0  0  0  0  0  0  0  0  0  0  0
    3.8534   -1.0156    0.0000 C   0  0  0  0  0  0  0  0  0  0  0  0
    5.3126   -1.3631    0.0000 C   0  0  0  0  0  0  0  0  0  0  0  0
    5.7412   -2.8006    0.0000 O   0  0  0  0  0  0  0  0  0  0  0  0
    6.3432   -0.2732    0.0000 C   0  0  0  0  0  0  0  0  0  0  0  0
    5.9146    1.1642    0.0000 C   0  0  0  0  0  0  0  0  0  0  0  0
    6.9452    2.2541    0.0000 C   0  0  0  0  0  0  0  0  0  0  0  0
    6.5166    3.6916    0.0000 C   0  0  0  0  0  0  0  0  0  0  0  0
    7.5472    4.7815    0.0000 O   0  0  0  0  0  0  0  0  0  0  0  0
    5.0575    4.0392    0.0000 C   0  0  0  0  0  0  0  0  0  0  0  0
    4.0269    2.9493    0.0000 C   0  0  0  0  0  0  0  0  0  0  0  0
    4.4555    1.5118    0.0000 C   0  0  0  0  0  0  0  0  0  0  0  0
    2.9963    1.8594    0.0000 C   0  0  0  0  0  0  0  0  0  0  0  0
    3.4249    0.4219    0.0000 C   0  0  0  0  0  0  0  0  0  0  0  0
    1.9657    0.7695    0.0000 C   0  0  0  0  0  0  0  0  0  0  0  0
    0.9351   -0.3204    0.0000 C   0  0  0  0  0  0  0  0  0  0  0  0
    1.3637   -1.7579    0.0000 C   0  0  0  0  0  0  0  0  0  0  0  0
   -0.1238   -1.5647    0.0000 C   0  0  0  0  0  0  0  0  0  0  0  0
  1  2  1  0
  2  3  1  0
  3  4  2  0
  3  5  2  0
  3  6  1  0
  6  7  1  0
  7  8  1  0
  8  9  1  0
  9 10  2  0
  9 11  1  0
 11 12  1  0
 12 13  1  0
 13 14  1  6
 13 15  1  0
 15 16  1  6
 16 17  1  0
 18 17  1  6
 18 19  1  0
 19 20  1  1
 20 21  1  1
 20 22  1  0
 23 22  1  1
 23 24  1  0
 24 25  1  0
 25 26  1  1
 25 27  1  0
 27 28  1  0
 28 29  1  0
 29 30  1  6
 29 31  1  0
 31 32  1  6
 32 33  1  0
 33 34  1  0
 34 35  1  6
 34 15  1  0
 34 18  1  0
 31 19  1  0
 29 23  1  0
M  END
>  <MS_ID>  (1307) 
MS1359

>  <SMILES>  (1307) 
CCS(=O)(=O)CCNC(=O)CC[C@@H](C)[C@H]1CC[C@H]2[C@@H]3[C@H](O)C[C@@H]4C[C@H](O)CC[C@]4(C)[C@H]3CC[C@]12C

>  <Structure_dimension>  (1307) 
2D

$$$$
MS1360
     RDKit          2D

 40 44  0  0  0  0  0  0  0  0999 V2000
   -7.7456   -2.0849    0.0000 C   0  0  0  0  0  0  0  0  0  0  0  0
   -6.5700   -1.1533    0.0000 C   0  0  0  0  0  0  0  0  0  0  0  0
   -6.7891    0.3307    0.0000 C   0  0  0  0  0  0  0  0  0  0  0  0
   -8.1837    0.8829    0.0000 C   0  0  0  0  0  0  0  0  0  0  0  0
   -8.4028    2.3668    0.0000 C   0  0  0  0  0  0  0  0  0  0  0  0
   -7.2273    3.2985    0.0000 O   0  0  0  0  0  0  0  0  0  0  0  0
   -9.7975    2.9190    0.0000 O   0  0  0  0  0  0  0  0  0  0  0  0
   -5.1754   -1.7055    0.0000 C   0  0  0  0  0  0  0  0  0  0  0  0
   -4.8024   -3.1584    0.0000 C   0  0  0  0  0  0  0  0  0  0  0  0
   -3.3053   -3.2526    0.0000 C   0  0  0  0  0  0  0  0  0  0  0  0
   -2.7531   -1.8579    0.0000 C   0  0  0  0  0  0  0  0  0  0  0  0
   -1.3472   -1.3351    0.0000 C   0  0  0  0  0  0  0  0  0  0  0  0
   -0.1914   -2.2913    0.0000 C   0  0  0  0  0  0  0  0  0  0  0  0
   -0.4416   -3.7703    0.0000 O   0  0  0  0  0  0  0  0  0  0  0  0
    1.2145   -1.7685    0.0000 C   0  0  0  0  0  0  0  0  0  0  0  0
    1.4647   -0.2895    0.0000 C   0  0  0  0  0  0  0  0  0  0  0  0
    2.8707    0.2333    0.0000 C   0  0  0  0  0  0  0  0  0  0  0  0
    3.1208    1.7123    0.0000 C   0  0  0  0  0  0  0  0  0  0  0  0
    4.5268    2.2352    0.0000 O   0  0  0  0  0  0  0  0  0  0  0  0
    5.6825    1.2790    0.0000 C   0  0  0  0  0  0  0  0  0  0  0  0
    5.4323   -0.2000    0.0000 O   0  0  0  0  0  0  0  0  0  0  0  0
    6.5881   -1.1562    0.0000 C   0  0  0  0  0  0  0  0  0  0  0  0
    6.3379   -2.6351    0.0000 C   0  0  0  0  0  0  0  0  0  0  0  0
    4.9320   -3.1580    0.0000 O   0  0  0  0  0  0  0  0  0  0  0  0
    7.9940   -0.6333    0.0000 C   0  0  0  0  0  0  0  0  0  0  0  0
    9.1498   -1.5895    0.0000 O   0  0  0  0  0  0  0  0  0  0  0  0
    8.2442    0.8456    0.0000 C   0  0  0  0  0  0  0  0  0  0  0  0
    9.6501    1.3685    0.0000 O   0  0  0  0  0  0  0  0  0  0  0  0
    7.0885    1.8018    0.0000 C   0  0  0  0  0  0  0  0  0  0  0  0
    7.3387    3.2808    0.0000 O   0  0  0  0  0  0  0  0  0  0  0  0
    1.9651    2.6685    0.0000 C   0  0  0  0  0  0  0  0  0  0  0  0
    0.5592    2.1457    0.0000 C   0  0  0  0  0  0  0  0  0  0  0  0
    0.3090    0.6667    0.0000 C   0  0  0  0  0  0  0  0  0  0  0  0
   -0.8468    1.6229    0.0000 C   0  0  0  0  0  0  0  0  0  0  0  0
   -1.0970    0.1439    0.0000 C   0  0  0  0  0  0  0  0  0  0  0  0
   -2.2527    1.1000    0.0000 C   0  0  0  0  0  0  0  0  0  0  0  0
   -3.6586    0.5772    0.0000 C   0  0  0  0  0  0  0  0  0  0  0  0
   -4.8144    1.5334    0.0000 O   0  0  0  0  0  0  0  0  0  0  0  0
   -3.9088   -0.9018    0.0000 C   0  0  0  0  0  0  0  0  0  0  0  0
   -5.1582   -0.0716    0.0000 C   0  0  0  0  0  0  0  0  0  0  0  0
  2  1  1  6
  2  3  1  0
  3  4  1  0
  4  5  1  0
  5  6  2  0
  5  7  1  0
  2  8  1  0
  8  9  1  6
  9 10  1  0
 11 10  1  6
 11 12  1  0
 12 13  1  1
 13 14  1  1
 13 15  1  0
 16 15  1  1
 16 17  1  0
 17 18  1  0
 18 19  1  1
 20 19  1  1
 20 21  1  0
 21 22  1  0
 22 23  1  1
 23 24  1  0
 22 25  1  0
 25 26  1  6
 25 27  1  0
 27 28  1  1
 27 29  1  0
 29 30  1  1
 18 31  1  0
 31 32  1  0
 32 33  1  0
 33 34  1  6
 33 35  1  0
 35 36  1  6
 36 37  1  0
 37 38  1  1
 37 39  1  0
 39 40  1  6
 39  8  1  0
 39 11  1  0
 35 12  1  0
 33 16  1  0
 29 20  1  0
M  END
>  <MS_ID>  (1308) 
MS1360

>  <SMILES>  (1308) 
C[C@H](CCC(=O)O)[C@H]1CC[C@H]2[C@@H]3[C@H](O)C[C@@H]4C[C@H](O[C@@H]5O[C@H](CO)[C@@H](O)[C@H](O)[C@@H]5O)CC[C@]4(C)[C@H]3C[C@H](O)[C@]12C

>  <Structure_dimension>  (1308) 
2D

$$$$
MS1361
     RDKit          2D

 31 34  0  0  0  0  0  0  0  0999 V2000
   -5.0146   -2.6187    0.0000 C   0  0  0  0  0  0  0  0  0  0  0  0
   -4.0672   -1.4557    0.0000 C   0  0  0  0  0  0  0  0  0  0  0  0
   -4.6007   -0.0538    0.0000 C   0  0  0  0  0  0  0  0  0  0  0  0
   -6.0816    0.1851    0.0000 C   0  0  0  0  0  0  0  0  0  0  0  0
   -6.6150    1.5871    0.0000 C   0  0  0  0  0  0  0  0  0  0  0  0
   -5.6677    2.7500    0.0000 O   0  0  0  0  0  0  0  0  0  0  0  0
   -8.0959    1.8260    0.0000 O   0  0  0  0  0  0  0  0  0  0  0  0
   -2.5864   -1.6947    0.0000 C   0  0  0  0  0  0  0  0  0  0  0  0
   -1.9093   -3.0332    0.0000 C   0  0  0  0  0  0  0  0  0  0  0  0
   -0.4271   -2.8029    0.0000 C   0  0  0  0  0  0  0  0  0  0  0  0
   -0.1881   -1.3220    0.0000 C   0  0  0  0  0  0  0  0  0  0  0  0
    1.0722   -0.5087    0.0000 C   0  0  0  0  0  0  0  0  0  0  0  0
    2.4068   -1.1936    0.0000 C   0  0  0  0  0  0  0  0  0  0  0  0
    2.4809   -2.6918    0.0000 O   0  0  0  0  0  0  0  0  0  0  0  0
    3.8154   -3.3767    0.0000 C   0  0  0  0  0  0  0  0  0  0  0  0
    3.8896   -4.8748    0.0000 C   0  0  0  0  0  0  0  0  0  0  0  0
    5.2241   -5.5597    0.0000 O   0  0  0  0  0  0  0  0  0  0  0  0
    3.6671   -0.3803    0.0000 C   0  0  0  0  0  0  0  0  0  0  0  0
    3.5930    1.1178    0.0000 C   0  0  0  0  0  0  0  0  0  0  0  0
    4.8534    1.9311    0.0000 C   0  0  0  0  0  0  0  0  0  0  0  0
    4.7792    3.4293    0.0000 C   0  0  0  0  0  0  0  0  0  0  0  0
    6.0396    4.2426    0.0000 O   0  0  0  0  0  0  0  0  0  0  0  0
    3.4447    4.1142    0.0000 C   0  0  0  0  0  0  0  0  0  0  0  0
    2.1843    3.3009    0.0000 C   0  0  0  0  0  0  0  0  0  0  0  0
    2.2585    1.8027    0.0000 C   0  0  0  0  0  0  0  0  0  0  0  0
    0.9240    2.4876    0.0000 C   0  0  0  0  0  0  0  0  0  0  0  0
    0.9981    0.9894    0.0000 C   0  0  0  0  0  0  0  0  0  0  0  0
   -0.3364    1.6743    0.0000 C   0  0  0  0  0  0  0  0  0  0  0  0
   -1.5968    0.8610    0.0000 C   0  0  0  0  0  0  0  0  0  0  0  0
   -1.5227   -0.6371    0.0000 C   0  0  0  0  0  0  0  0  0  0  0  0
   -2.9215   -0.0955    0.0000 C   0  0  0  0  0  0  0  0  0  0  0  0
  2  1  1  6
  2  3  1  0
  3  4  1  0
  4  5  1  0
  5  6  2  0
  5  7  1  0
  2  8  1  0
  8  9  1  6
  9 10  1  0
 11 10  1  6
 11 12  1  0
 12 13  1  1
 13 14  1  1
 14 15  1  0
 15 16  1  0
 16 17  1  0
 13 18  1  0
 19 18  1  1
 19 20  1  0
 20 21  1  0
 21 22  2  0
 21 23  1  0
 23 24  1  0
 24 25  1  0
 25 26  1  6
 25 27  1  0
 27 28  1  6
 28 29  1  0
 29 30  1  0
 30 31  1  6
 30  8  1  0
 30 11  1  0
 27 12  1  0
 25 19  1  0
M  END
>  <MS_ID>  (1309) 
MS1361

>  <SMILES>  (1309) 
C[C@H](CCC(=O)O)[C@H]1CC[C@H]2[C@@H]3[C@H](OCCO)C[C@@H]4CC(=O)CC[C@]4(C)[C@H]3CC[C@]12C

>  <Structure_dimension>  (1309) 
2D

$$$$
MS1362
     RDKit          2D

 33 36  0  0  0  0  0  0  0  0999 V2000
   -2.1911   -4.2543    0.0000 C   0  0  0  0  0  0  0  0  0  0  0  0
   -1.4332   -2.9599    0.0000 C   0  0  0  0  0  0  0  0  0  0  0  0
   -2.1753   -1.6563    0.0000 C   0  0  0  0  0  0  0  0  0  0  0  0
   -3.6753   -1.6472    0.0000 C   0  0  0  0  0  0  0  0  0  0  0  0
   -4.4174   -0.3436    0.0000 C   0  0  0  0  0  0  0  0  0  0  0  0
   -3.6595    0.9508    0.0000 O   0  0  0  0  0  0  0  0  0  0  0  0
   -5.9174   -0.3345    0.0000 O   0  0  0  0  0  0  0  0  0  0  0  0
   -6.6595    0.9690    0.0000 C   0  0  0  0  0  0  0  0  0  0  0  0
   -8.1594    0.9781    0.0000 C   0  0  0  0  0  0  0  0  0  0  0  0
   -8.9015    2.2817    0.0000 C   0  0  0  0  0  0  0  0  0  0  0  0
  -10.4015    2.2908    0.0000 C   0  0  0  0  0  0  0  0  0  0  0  0
  -11.1436    3.5944    0.0000 O   0  0  0  0  0  0  0  0  0  0  0  0
    0.0668   -2.9690    0.0000 C   0  0  0  0  0  0  0  0  0  0  0  0
    0.9410   -4.1878    0.0000 C   0  0  0  0  0  0  0  0  0  0  0  0
    2.3704   -3.7330    0.0000 C   0  0  0  0  0  0  0  0  0  0  0  0
    2.3795   -2.2330    0.0000 C   0  0  0  0  0  0  0  0  0  0  0  0
    3.5003   -1.2361    0.0000 C   0  0  0  0  0  0  0  0  0  0  0  0
    4.9241   -1.7083    0.0000 C   0  0  0  0  0  0  0  0  0  0  0  0
    6.0449   -0.7114    0.0000 C   0  0  0  0  0  0  0  0  0  0  0  0
    5.7419    0.7577    0.0000 C   0  0  0  0  0  0  0  0  0  0  0  0
    6.8627    1.7546    0.0000 C   0  0  0  0  0  0  0  0  0  0  0  0
    6.5597    3.2237    0.0000 C   0  0  0  0  0  0  0  0  0  0  0  0
    7.6805    4.2206    0.0000 O   0  0  0  0  0  0  0  0  0  0  0  0
    5.1360    3.6959    0.0000 C   0  0  0  0  0  0  0  0  0  0  0  0
    4.0152    2.6990    0.0000 C   0  0  0  0  0  0  0  0  0  0  0  0
    4.3182    1.2299    0.0000 C   0  0  0  0  0  0  0  0  0  0  0  0
    2.8944    1.7021    0.0000 C   0  0  0  0  0  0  0  0  0  0  0  0
    3.1974    0.2330    0.0000 C   0  0  0  0  0  0  0  0  0  0  0  0
    1.7736    0.7052    0.0000 C   0  0  0  0  0  0  0  0  0  0  0  0
    0.6528   -0.2917    0.0000 C   0  0  0  0  0  0  0  0  0  0  0  0
   -0.7709    0.1804    0.0000 O   0  0  0  0  0  0  0  0  0  0  0  0
    0.9558   -1.7608    0.0000 C   0  0  0  0  0  0  0  0  0  0  0  0
   -0.5095   -1.4401    0.0000 C   0  0  0  0  0  0  0  0  0  0  0  0
  2  1  1  6
  2  3  1  0
  3  4  1  0
  4  5  1  0
  5  6  2  0
  5  7  1  0
  7  8  1  0
  8  9  1  0
  9 10  1  0
 10 11  1  0
 11 12  1  0
  2 13  1  0
 13 14  1  6
 14 15  1  0
 16 15  1  6
 16 17  1  0
 17 18  1  1
 18 19  1  0
 20 19  1  1
 20 21  1  0
 21 22  1  0
 22 23  1  1
 22 24  1  0
 24 25  1  0
 25 26  1  0
 26 27  1  6
 26 28  1  0
 28 29  1  6
 29 30  1  0
 30 31  1  1
 30 32  1  0
 32 33  1  6
 32 13  1  0
 32 16  1  0
 28 17  1  0
 26 20  1  0
M  END
>  <MS_ID>  (1310) 
MS1362

>  <SMILES>  (1310) 
C[C@H](CCC(=O)OCCCCO)[C@H]1CC[C@H]2[C@@H]3CC[C@@H]4C[C@H](O)CC[C@]4(C)[C@H]3C[C@H](O)[C@]12C

>  <Structure_dimension>  (1310) 
2D

$$$$
MS1363
     RDKit          2D

 31 34  0  0  0  0  0  0  0  0999 V2000
   -4.3735   -2.9763    0.0000 C   0  0  0  0  0  0  0  0  0  0  0  0
   -3.3227   -1.9059    0.0000 C   0  0  0  0  0  0  0  0  0  0  0  0
   -3.7243   -0.4607    0.0000 C   0  0  0  0  0  0  0  0  0  0  0  0
   -5.1767   -0.0858    0.0000 C   0  0  0  0  0  0  0  0  0  0  0  0
   -5.5783    1.3594    0.0000 C   0  0  0  0  0  0  0  0  0  0  0  0
   -7.0307    1.7342    0.0000 O   0  0  0  0  0  0  0  0  0  0  0  0
   -4.5274    2.4298    0.0000 S   0  0  0  0  0  0  0  0  0  0  0  0
   -5.5978    3.4806    0.0000 O   0  0  0  0  0  0  0  0  0  0  0  0
   -3.4570    1.3790    0.0000 O   0  0  0  0  0  0  0  0  0  0  0  0
   -3.4766    3.5002    0.0000 O   0  0  0  0  0  0  0  0  0  0  0  0
   -1.8703   -2.2808    0.0000 C   0  0  0  0  0  0  0  0  0  0  0  0
   -1.3198   -3.6761    0.0000 C   0  0  0  0  0  0  0  0  0  0  0  0
    0.1774   -3.5838    0.0000 C   0  0  0  0  0  0  0  0  0  0  0  0
    0.5522   -2.1314    0.0000 C   0  0  0  0  0  0  0  0  0  0  0  0
    1.8824   -1.4381    0.0000 C   0  0  0  0  0  0  0  0  0  0  0  0
    3.1478   -2.2434    0.0000 C   0  0  0  0  0  0  0  0  0  0  0  0
    3.0832   -3.7420    0.0000 O   0  0  0  0  0  0  0  0  0  0  0  0
    4.4780   -1.5501    0.0000 C   0  0  0  0  0  0  0  0  0  0  0  0
    4.5427   -0.0515    0.0000 C   0  0  0  0  0  0  0  0  0  0  0  0
    5.8729    0.6418    0.0000 C   0  0  0  0  0  0  0  0  0  0  0  0
    5.9375    2.1404    0.0000 C   0  0  0  0  0  0  0  0  0  0  0  0
    7.2677    2.8337    0.0000 O   0  0  0  0  0  0  0  0  0  0  0  0
    4.6720    2.9457    0.0000 C   0  0  0  0  0  0  0  0  0  0  0  0
    3.3419    2.2524    0.0000 C   0  0  0  0  0  0  0  0  0  0  0  0
    3.2772    0.7538    0.0000 C   0  0  0  0  0  0  0  0  0  0  0  0
    2.0117    1.5591    0.0000 C   0  0  0  0  0  0  0  0  0  0  0  0
    1.9470    0.0605    0.0000 C   0  0  0  0  0  0  0  0  0  0  0  0
    0.6815    0.8658    0.0000 C   0  0  0  0  0  0  0  0  0  0  0  0
   -0.6486    0.1725    0.0000 C   0  0  0  0  0  0  0  0  0  0  0  0
   -0.7133   -1.3261    0.0000 C   0  0  0  0  0  0  0  0  0  0  0  0
   -2.0560   -0.6574    0.0000 C   0  0  0  0  0  0  0  0  0  0  0  0
  2  1  1  6
  2  3  1  0
  3  4  1  0
  4  5  1  0
  5  6  2  0
  5  7  1  0
  7  8  2  0
  7  9  2  0
  7 10  1  0
  2 11  1  0
 11 12  1  6
 12 13  1  0
 14 13  1  6
 14 15  1  0
 15 16  1  1
 16 17  1  6
 16 18  1  0
 19 18  1  1
 19 20  1  0
 20 21  1  0
 21 22  1  1
 21 23  1  0
 23 24  1  0
 24 25  1  0
 25 26  1  6
 25 27  1  0
 27 28  1  6
 28 29  1  0
 29 30  1  0
 30 31  1  6
 30 11  1  0
 30 14  1  0
 27 15  1  0
 25 19  1  0
M  END
>  <MS_ID>  (1311) 
MS1363

>  <SMILES>  (1311) 
C[C@H](CCC(=O)S(=O)(=O)O)[C@H]1CC[C@H]2[C@@H]3[C@@H](O)C[C@@H]4C[C@H](O)CC[C@]4(C)[C@H]3CC[C@]12C

>  <Structure_dimension>  (1311) 
2D

$$$$
MS1364
     RDKit          2D

 31 34  0  0  0  0  0  0  0  0999 V2000
   -4.2495   -2.8115    0.0000 C   0  0  0  0  0  0  0  0  0  0  0  0
   -3.1859   -1.7538    0.0000 C   0  0  0  0  0  0  0  0  0  0  0  0
   -3.5702   -0.3038    0.0000 C   0  0  0  0  0  0  0  0  0  0  0  0
   -5.0180    0.0883    0.0000 C   0  0  0  0  0  0  0  0  0  0  0  0
   -5.4023    1.5383    0.0000 C   0  0  0  0  0  0  0  0  0  0  0  0
   -4.3387    2.5960    0.0000 O   0  0  0  0  0  0  0  0  0  0  0  0
   -6.8501    1.9305    0.0000 N   0  0  0  0  0  0  0  0  0  0  0  0
   -7.2344    3.3804    0.0000 C   0  0  0  0  0  0  0  0  0  0  0  0
   -7.9137    0.8727    0.0000 C   0  0  0  0  0  0  0  0  0  0  0  0
   -1.7381   -2.1460    0.0000 C   0  0  0  0  0  0  0  0  0  0  0  0
   -1.2044   -3.5478    0.0000 C   0  0  0  0  0  0  0  0  0  0  0  0
    0.2938   -3.4734    0.0000 C   0  0  0  0  0  0  0  0  0  0  0  0
    0.6860   -2.0256    0.0000 C   0  0  0  0  0  0  0  0  0  0  0  0
    2.0243   -1.3482    0.0000 C   0  0  0  0  0  0  0  0  0  0  0  0
    3.2801   -2.1686    0.0000 C   0  0  0  0  0  0  0  0  0  0  0  0
    3.1975   -3.6663    0.0000 O   0  0  0  0  0  0  0  0  0  0  0  0
    4.6185   -1.4913    0.0000 C   0  0  0  0  0  0  0  0  0  0  0  0
    4.7010    0.0064    0.0000 C   0  0  0  0  0  0  0  0  0  0  0  0
    6.0394    0.6838    0.0000 C   0  0  0  0  0  0  0  0  0  0  0  0
    6.1220    2.1815    0.0000 C   0  0  0  0  0  0  0  0  0  0  0  0
    7.4604    2.8588    0.0000 O   0  0  0  0  0  0  0  0  0  0  0  0
    4.8662    3.0019    0.0000 C   0  0  0  0  0  0  0  0  0  0  0  0
    3.5279    2.3246    0.0000 C   0  0  0  0  0  0  0  0  0  0  0  0
    3.4453    0.8268    0.0000 C   0  0  0  0  0  0  0  0  0  0  0  0
    2.1895    1.6472    0.0000 C   0  0  0  0  0  0  0  0  0  0  0  0
    2.1069    0.1495    0.0000 C   0  0  0  0  0  0  0  0  0  0  0  0
    0.8511    0.9699    0.0000 C   0  0  0  0  0  0  0  0  0  0  0  0
   -0.4872    0.2925    0.0000 C   0  0  0  0  0  0  0  0  0  0  0  0
   -1.7430    1.1129    0.0000 O   0  0  0  0  0  0  0  0  0  0  0  0
   -0.5698   -1.2052    0.0000 C   0  0  0  0  0  0  0  0  0  0  0  0
   -1.9045   -0.5205    0.0000 C   0  0  0  0  0  0  0  0  0  0  0  0
  2  1  1  6
  2  3  1  0
  3  4  1  0
  4  5  1  0
  5  6  2  0
  5  7  1  0
  7  8  1  0
  7  9  1  0
  2 10  1  0
 10 11  1  6
 11 12  1  0
 13 12  1  6
 13 14  1  0
 14 15  1  1
 15 16  1  1
 15 17  1  0
 18 17  1  1
 18 19  1  0
 19 20  1  0
 20 21  2  0
 20 22  1  0
 22 23  1  0
 23 24  1  0
 24 25  1  6
 24 26  1  0
 26 27  1  6
 27 28  1  0
 28 29  1  1
 28 30  1  0
 30 31  1  6
 30 10  1  0
 30 13  1  0
 26 14  1  0
 24 18  1  0
M  END
>  <MS_ID>  (1312) 
MS1364

>  <SMILES>  (1312) 
C[C@H](CCC(=O)N(C)C)[C@H]1CC[C@H]2[C@@H]3[C@H](O)C[C@@H]4CC(=O)CC[C@]4(C)[C@H]3C[C@H](O)[C@]12C

>  <Structure_dimension>  (1312) 
2D

$$$$
MS1365
     RDKit          2D

 29 32  0  0  0  0  0  0  0  0999 V2000
   -5.0303   -2.1373    0.0000 C   0  0  0  0  0  0  0  0  0  0  0  0
   -3.8594   -1.1998    0.0000 C   0  0  0  0  0  0  0  0  0  0  0  0
   -4.0858    0.2830    0.0000 C   0  0  0  0  0  0  0  0  0  0  0  0
   -5.4831    0.8284    0.0000 C   0  0  0  0  0  0  0  0  0  0  0  0
   -5.7095    2.3112    0.0000 C   0  0  0  0  0  0  0  0  0  0  0  0
   -7.1069    2.8565    0.0000 N   0  0  0  0  0  0  0  0  0  0  0  0
   -4.5386    3.2487    0.0000 O   0  0  0  0  0  0  0  0  0  0  0  0
   -2.4620   -1.7451    0.0000 C   0  0  0  0  0  0  0  0  0  0  0  0
   -2.0818   -3.1961    0.0000 C   0  0  0  0  0  0  0  0  0  0  0  0
   -0.5844   -3.2830    0.0000 C   0  0  0  0  0  0  0  0  0  0  0  0
   -0.0390   -1.8856    0.0000 C   0  0  0  0  0  0  0  0  0  0  0  0
    1.3643   -1.3559    0.0000 C   0  0  0  0  0  0  0  0  0  0  0  0
    2.5248   -2.3063    0.0000 C   0  0  0  0  0  0  0  0  0  0  0  0
    2.2819   -3.7865    0.0000 O   0  0  0  0  0  0  0  0  0  0  0  0
    3.9281   -1.7765    0.0000 C   0  0  0  0  0  0  0  0  0  0  0  0
    4.1710   -0.2963    0.0000 C   0  0  0  0  0  0  0  0  0  0  0  0
    5.5743    0.2334    0.0000 C   0  0  0  0  0  0  0  0  0  0  0  0
    5.8172    1.7136    0.0000 C   0  0  0  0  0  0  0  0  0  0  0  0
    7.2205    2.2434    0.0000 O   0  0  0  0  0  0  0  0  0  0  0  0
    4.6568    2.6641    0.0000 C   0  0  0  0  0  0  0  0  0  0  0  0
    3.2534    2.1343    0.0000 C   0  0  0  0  0  0  0  0  0  0  0  0
    3.0105    0.6541    0.0000 C   0  0  0  0  0  0  0  0  0  0  0  0
    1.8501    1.6046    0.0000 C   0  0  0  0  0  0  0  0  0  0  0  0
    1.6072    0.1244    0.0000 C   0  0  0  0  0  0  0  0  0  0  0  0
    0.4467    1.0748    0.0000 C   0  0  0  0  0  0  0  0  0  0  0  0
   -0.9566    0.5450    0.0000 C   0  0  0  0  0  0  0  0  0  0  0  0
   -2.1170    1.4955    0.0000 O   0  0  0  0  0  0  0  0  0  0  0  0
   -1.1995   -0.9352    0.0000 C   0  0  0  0  0  0  0  0  0  0  0  0
   -2.4529   -0.1112    0.0000 C   0  0  0  0  0  0  0  0  0  0  0  0
  2  1  1  6
  2  3  1  0
  3  4  1  0
  4  5  1  0
  5  6  1  0
  5  7  2  0
  2  8  1  0
  8  9  1  6
  9 10  1  0
 11 10  1  6
 11 12  1  0
 12 13  1  1
 13 14  1  1
 13 15  1  0
 16 15  1  1
 16 17  1  0
 17 18  1  0
 18 19  1  1
 18 20  1  0
 20 21  1  0
 21 22  1  0
 22 23  1  6
 22 24  1  0
 24 25  1  6
 25 26  1  0
 26 27  2  0
 26 28  1  0
 28 29  1  6
 28  8  1  0
 28 11  1  0
 24 12  1  0
 22 16  1  0
M  END
>  <MS_ID>  (1313) 
MS1365

>  <SMILES>  (1313) 
C[C@H](CCC(N)=O)[C@H]1CC[C@H]2[C@@H]3[C@H](O)C[C@@H]4C[C@H](O)CC[C@]4(C)[C@H]3CC(=O)[C@]12C

>  <Structure_dimension>  (1313) 
2D

$$$$
MS1366
     RDKit          2D

 31 34  0  0  0  0  0  0  0  0999 V2000
   -4.2495   -2.8115    0.0000 C   0  0  0  0  0  0  0  0  0  0  0  0
   -3.1859   -1.7538    0.0000 C   0  0  0  0  0  0  0  0  0  0  0  0
   -3.5702   -0.3038    0.0000 C   0  0  0  0  0  0  0  0  0  0  0  0
   -5.0180    0.0883    0.0000 C   0  0  0  0  0  0  0  0  0  0  0  0
   -5.4023    1.5383    0.0000 C   0  0  0  0  0  0  0  0  0  0  0  0
   -4.3387    2.5960    0.0000 O   0  0  0  0  0  0  0  0  0  0  0  0
   -6.8501    1.9305    0.0000 N   0  0  0  0  0  0  0  0  0  0  0  0
   -7.2344    3.3804    0.0000 C   0  0  0  0  0  0  0  0  0  0  0  0
   -7.9137    0.8727    0.0000 C   0  0  0  0  0  0  0  0  0  0  0  0
   -1.7381   -2.1460    0.0000 C   0  0  0  0  0  0  0  0  0  0  0  0
   -1.2044   -3.5478    0.0000 C   0  0  0  0  0  0  0  0  0  0  0  0
    0.2938   -3.4734    0.0000 C   0  0  0  0  0  0  0  0  0  0  0  0
    0.6860   -2.0256    0.0000 C   0  0  0  0  0  0  0  0  0  0  0  0
    2.0243   -1.3482    0.0000 C   0  0  0  0  0  0  0  0  0  0  0  0
    3.2801   -2.1686    0.0000 C   0  0  0  0  0  0  0  0  0  0  0  0
    3.1975   -3.6663    0.0000 O   0  0  0  0  0  0  0  0  0  0  0  0
    4.6185   -1.4913    0.0000 C   0  0  0  0  0  0  0  0  0  0  0  0
    4.7010    0.0064    0.0000 C   0  0  0  0  0  0  0  0  0  0  0  0
    6.0394    0.6838    0.0000 C   0  0  0  0  0  0  0  0  0  0  0  0
    6.1220    2.1815    0.0000 C   0  0  0  0  0  0  0  0  0  0  0  0
    7.4604    2.8588    0.0000 O   0  0  0  0  0  0  0  0  0  0  0  0
    4.8662    3.0019    0.0000 C   0  0  0  0  0  0  0  0  0  0  0  0
    3.5279    2.3246    0.0000 C   0  0  0  0  0  0  0  0  0  0  0  0
    3.4453    0.8268    0.0000 C   0  0  0  0  0  0  0  0  0  0  0  0
    2.1895    1.6472    0.0000 C   0  0  0  0  0  0  0  0  0  0  0  0
    2.1069    0.1495    0.0000 C   0  0  0  0  0  0  0  0  0  0  0  0
    0.8511    0.9699    0.0000 C   0  0  0  0  0  0  0  0  0  0  0  0
   -0.4872    0.2925    0.0000 C   0  0  0  0  0  0  0  0  0  0  0  0
   -1.7430    1.1129    0.0000 O   0  0  0  0  0  0  0  0  0  0  0  0
   -0.5698   -1.2052    0.0000 C   0  0  0  0  0  0  0  0  0  0  0  0
   -1.9045   -0.5205    0.0000 C   0  0  0  0  0  0  0  0  0  0  0  0
  2  1  1  6
  2  3  1  0
  3  4  1  0
  4  5  1  0
  5  6  2  0
  5  7  1  0
  7  8  1  0
  7  9  1  0
  2 10  1  0
 10 11  1  6
 11 12  1  0
 13 12  1  6
 13 14  1  0
 14 15  1  1
 15 16  2  0
 15 17  1  0
 18 17  1  1
 18 19  1  0
 19 20  1  0
 20 21  1  1
 20 22  1  0
 22 23  1  0
 23 24  1  0
 24 25  1  6
 24 26  1  0
 26 27  1  6
 27 28  1  0
 28 29  1  1
 28 30  1  0
 30 31  1  6
 30 10  1  0
 30 13  1  0
 26 14  1  0
 24 18  1  0
M  END
>  <MS_ID>  (1314) 
MS1366

>  <SMILES>  (1314) 
C[C@H](CCC(=O)N(C)C)[C@H]1CC[C@H]2[C@@H]3C(=O)C[C@@H]4C[C@H](O)CC[C@]4(C)[C@H]3C[C@H](O)[C@]12C

>  <Structure_dimension>  (1314) 
2D

$$$$
MS1367
     RDKit          2D

 33 36  0  0  0  0  0  0  0  0999 V2000
   -5.9347   -2.3224    0.0000 C   0  0  0  0  0  0  0  0  0  0  0  0
   -4.7592   -1.3907    0.0000 C   0  0  0  0  0  0  0  0  0  0  0  0
   -4.9784    0.0932    0.0000 C   0  0  0  0  0  0  0  0  0  0  0  0
   -6.3730    0.6454    0.0000 C   0  0  0  0  0  0  0  0  0  0  0  0
   -6.5922    2.1293    0.0000 C   0  0  0  0  0  0  0  0  0  0  0  0
   -5.4167    3.0610    0.0000 O   0  0  0  0  0  0  0  0  0  0  0  0
   -7.9869    2.6814    0.0000 N   0  0  0  0  0  0  0  0  0  0  0  0
   -8.2061    4.1653    0.0000 O   0  0  0  0  0  0  0  0  0  0  0  0
   -3.3645   -1.9428    0.0000 C   0  0  0  0  0  0  0  0  0  0  0  0
   -2.9914   -3.3957    0.0000 C   0  0  0  0  0  0  0  0  0  0  0  0
   -1.4944   -3.4898    0.0000 C   0  0  0  0  0  0  0  0  0  0  0  0
   -0.9422   -2.0951    0.0000 C   0  0  0  0  0  0  0  0  0  0  0  0
    0.4637   -1.5722    0.0000 C   0  0  0  0  0  0  0  0  0  0  0  0
    1.6195   -2.5283    0.0000 C   0  0  0  0  0  0  0  0  0  0  0  0
    1.3694   -4.0073    0.0000 O   0  0  0  0  0  0  0  0  0  0  0  0
    3.0254   -2.0054    0.0000 C   0  0  0  0  0  0  0  0  0  0  0  0
    3.2755   -0.5264    0.0000 C   0  0  0  0  0  0  0  0  0  0  0  0
    4.6814   -0.0035    0.0000 C   0  0  0  0  0  0  0  0  0  0  0  0
    4.9315    1.4755    0.0000 C   0  0  0  0  0  0  0  0  0  0  0  0
    6.3374    1.9984    0.0000 O   0  0  0  0  0  0  0  0  0  0  0  0
    7.4932    1.0423    0.0000 S   0  0  0  0  0  0  0  0  0  0  0  0
    6.5371   -0.1135    0.0000 O   0  0  0  0  0  0  0  0  0  0  0  0
    8.4493    2.1981    0.0000 O   0  0  0  0  0  0  0  0  0  0  0  0
    8.6490    0.0862    0.0000 O   0  0  0  0  0  0  0  0  0  0  0  0
    3.7757    2.4316    0.0000 C   0  0  0  0  0  0  0  0  0  0  0  0
    2.3698    1.9087    0.0000 C   0  0  0  0  0  0  0  0  0  0  0  0
    2.1197    0.4297    0.0000 C   0  0  0  0  0  0  0  0  0  0  0  0
    0.9639    1.3858    0.0000 C   0  0  0  0  0  0  0  0  0  0  0  0
    0.7138   -0.0932    0.0000 C   0  0  0  0  0  0  0  0  0  0  0  0
   -0.4420    0.8629    0.0000 C   0  0  0  0  0  0  0  0  0  0  0  0
   -1.8479    0.3400    0.0000 C   0  0  0  0  0  0  0  0  0  0  0  0
   -2.0980   -1.1390    0.0000 C   0  0  0  0  0  0  0  0  0  0  0  0
   -3.3474   -0.3090    0.0000 C   0  0  0  0  0  0  0  0  0  0  0  0
  2  1  1  6
  2  3  1  0
  3  4  1  0
  4  5  1  0
  5  6  2  0
  5  7  1  0
  7  8  1  0
  2  9  1  0
  9 10  1  6
 10 11  1  0
 12 11  1  6
 12 13  1  0
 13 14  1  1
 14 15  1  6
 14 16  1  0
 17 16  1  1
 17 18  1  0
 18 19  1  0
 19 20  1  1
 20 21  1  0
 21 22  2  0
 21 23  2  0
 21 24  1  0
 19 25  1  0
 25 26  1  0
 26 27  1  0
 27 28  1  6
 27 29  1  0
 29 30  1  6
 30 31  1  0
 31 32  1  0
 32 33  1  6
 32  9  1  0
 32 12  1  0
 29 13  1  0
 27 17  1  0
M  END
>  <MS_ID>  (1315) 
MS1367

>  <SMILES>  (1315) 
C[C@H](CCC(=O)NO)[C@H]1CC[C@H]2[C@@H]3[C@@H](O)C[C@@H]4C[C@H](OS(=O)(=O)O)CC[C@]4(C)[C@H]3CC[C@]12C

>  <Structure_dimension>  (1315) 
2D

$$$$
MS1368
     RDKit          2D

 37 40  0  0  0  0  0  0  0  0999 V2000
   -4.9096   -3.4157    0.0000 C   0  0  0  0  0  0  0  0  0  0  0  0
   -3.8914   -2.3143    0.0000 C   0  0  0  0  0  0  0  0  0  0  0  0
   -4.3361   -0.8817    0.0000 C   0  0  0  0  0  0  0  0  0  0  0  0
   -5.7991   -0.5506    0.0000 C   0  0  0  0  0  0  0  0  0  0  0  0
   -6.2438    0.8820    0.0000 C   0  0  0  0  0  0  0  0  0  0  0  0
   -5.2255    1.9834    0.0000 O   0  0  0  0  0  0  0  0  0  0  0  0
   -7.7068    1.2131    0.0000 N   0  0  0  0  0  0  0  0  0  0  0  0
   -8.1515    2.6457    0.0000 S   0  0  0  0  0  0  0  0  0  0  0  0
   -9.5841    2.2010    0.0000 O   0  0  0  0  0  0  0  0  0  0  0  0
   -6.7189    3.0904    0.0000 O   0  0  0  0  0  0  0  0  0  0  0  0
   -8.5962    4.0782    0.0000 O   0  0  0  0  0  0  0  0  0  0  0  0
   -2.4284   -2.6454    0.0000 C   0  0  0  0  0  0  0  0  0  0  0  0
   -1.8363   -4.0237    0.0000 C   0  0  0  0  0  0  0  0  0  0  0  0
   -0.3426   -3.8865    0.0000 C   0  0  0  0  0  0  0  0  0  0  0  0
   -0.0115   -2.4235    0.0000 C   0  0  0  0  0  0  0  0  0  0  0  0
    1.2973   -1.6907    0.0000 C   0  0  0  0  0  0  0  0  0  0  0  0
    2.5864   -2.4577    0.0000 C   0  0  0  0  0  0  0  0  0  0  0  0
    2.5666   -3.9576    0.0000 O   0  0  0  0  0  0  0  0  0  0  0  0
    3.8952   -1.7248    0.0000 C   0  0  0  0  0  0  0  0  0  0  0  0
    5.1842   -2.4919    0.0000 O   0  0  0  0  0  0  0  0  0  0  0  0
    3.9149   -0.2250    0.0000 C   0  0  0  0  0  0  0  0  0  0  0  0
    5.2237    0.5079    0.0000 C   0  0  0  0  0  0  0  0  0  0  0  0
    5.2434    2.0077    0.0000 C   0  0  0  0  0  0  0  0  0  0  0  0
    6.5522    2.7406    0.0000 O   0  0  0  0  0  0  0  0  0  0  0  0
    7.8413    1.9736    0.0000 S   0  0  0  0  0  0  0  0  0  0  0  0
    7.0743    0.6845    0.0000 O   0  0  0  0  0  0  0  0  0  0  0  0
    8.6083    3.2626    0.0000 O   0  0  0  0  0  0  0  0  0  0  0  0
    9.1303    1.2065    0.0000 O   0  0  0  0  0  0  0  0  0  0  0  0
    3.9544    2.7748    0.0000 C   0  0  0  0  0  0  0  0  0  0  0  0
    2.6456    2.0419    0.0000 C   0  0  0  0  0  0  0  0  0  0  0  0
    2.6258    0.5421    0.0000 C   0  0  0  0  0  0  0  0  0  0  0  0
    1.3368    1.3091    0.0000 C   0  0  0  0  0  0  0  0  0  0  0  0
    1.3170   -0.1908    0.0000 C   0  0  0  0  0  0  0  0  0  0  0  0
    0.0280    0.5762    0.0000 C   0  0  0  0  0  0  0  0  0  0  0  0
   -1.2808   -0.1566    0.0000 C   0  0  0  0  0  0  0  0  0  0  0  0
   -1.3005   -1.6565    0.0000 C   0  0  0  0  0  0  0  0  0  0  0  0
   -2.6627   -1.0284    0.0000 C   0  0  0  0  0  0  0  0  0  0  0  0
  2  1  1  6
  2  3  1  0
  3  4  1  0
  4  5  1  0
  5  6  2  0
  5  7  1  0
  7  8  1  0
  8  9  2  0
  8 10  2  0
  8 11  1  0
  2 12  1  0
 12 13  1  6
 13 14  1  0
 15 14  1  6
 15 16  1  0
 16 17  1  1
 17 18  1  1
 17 19  1  0
 19 20  1  1
 19 21  1  0
 21 22  1  1
 22 23  1  0
 23 24  1  1
 24 25  1  0
 25 26  2  0
 25 27  2  0
 25 28  1  0
 23 29  1  0
 29 30  1  0
 30 31  1  0
 31 32  1  6
 31 33  1  0
 33 34  1  6
 34 35  1  0
 35 36  1  0
 36 37  1  6
 36 12  1  0
 36 15  1  0
 33 16  1  0
 31 21  1  0
M  END
>  <MS_ID>  (1316) 
MS1368

>  <SMILES>  (1316) 
C[C@H](CCC(=O)NS(=O)(=O)O)[C@H]1CC[C@H]2[C@@H]3[C@H](O)[C@H](O)[C@@H]4C[C@H](OS(=O)(=O)O)CC[C@]4(C)[C@H]3CC[C@]12C

>  <Structure_dimension>  (1316) 
2D

$$$$
MS1369
     RDKit          2D

 29 32  0  0  0  0  0  0  0  0999 V2000
   -4.6551   -2.6180    0.0000 C   0  0  0  0  0  0  0  0  0  0  0  0
   -3.5633   -1.5894    0.0000 C   0  0  0  0  0  0  0  0  0  0  0  0
   -3.9081   -0.1296    0.0000 C   0  0  0  0  0  0  0  0  0  0  0  0
   -5.3448    0.3016    0.0000 C   0  0  0  0  0  0  0  0  0  0  0  0
   -5.6897    1.7615    0.0000 C   0  0  0  0  0  0  0  0  0  0  0  0
   -4.5979    2.7900    0.0000 O   0  0  0  0  0  0  0  0  0  0  0  0
   -7.1264    2.1927    0.0000 C   0  0  0  0  0  0  0  0  0  0  0  0
   -7.4712    3.6525    0.0000 S   0  0  0  0  0  0  0  0  0  0  0  0
   -2.1266   -2.0207    0.0000 C   0  0  0  0  0  0  0  0  0  0  0  0
   -1.6310   -3.4364    0.0000 C   0  0  0  0  0  0  0  0  0  0  0  0
   -0.1314   -3.4026    0.0000 C   0  0  0  0  0  0  0  0  0  0  0  0
    0.2998   -1.9659    0.0000 C   0  0  0  0  0  0  0  0  0  0  0  0
    1.6561   -1.3251    0.0000 C   0  0  0  0  0  0  0  0  0  0  0  0
    2.8892   -2.1792    0.0000 C   0  0  0  0  0  0  0  0  0  0  0  0
    2.7660   -3.6741    0.0000 O   0  0  0  0  0  0  0  0  0  0  0  0
    4.2454   -1.5383    0.0000 C   0  0  0  0  0  0  0  0  0  0  0  0
    4.3685   -0.0434    0.0000 C   0  0  0  0  0  0  0  0  0  0  0  0
    5.7247    0.5975    0.0000 C   0  0  0  0  0  0  0  0  0  0  0  0
    5.8478    2.0924    0.0000 C   0  0  0  0  0  0  0  0  0  0  0  0
    7.2040    2.7332    0.0000 O   0  0  0  0  0  0  0  0  0  0  0  0
    4.6147    2.9465    0.0000 C   0  0  0  0  0  0  0  0  0  0  0  0
    3.2585    2.3056    0.0000 C   0  0  0  0  0  0  0  0  0  0  0  0
    3.1354    0.8107    0.0000 C   0  0  0  0  0  0  0  0  0  0  0  0
    1.9023    1.6648    0.0000 C   0  0  0  0  0  0  0  0  0  0  0  0
    1.7792    0.1699    0.0000 C   0  0  0  0  0  0  0  0  0  0  0  0
    0.5461    1.0239    0.0000 C   0  0  0  0  0  0  0  0  0  0  0  0
   -0.8101    0.3831    0.0000 C   0  0  0  0  0  0  0  0  0  0  0  0
   -0.9333   -1.1118    0.0000 C   0  0  0  0  0  0  0  0  0  0  0  0
   -2.2489   -0.3913    0.0000 C   0  0  0  0  0  0  0  0  0  0  0  0
  2  1  1  6
  2  3  1  0
  3  4  1  0
  4  5  1  0
  5  6  2  0
  5  7  1  0
  7  8  1  0
  2  9  1  0
  9 10  1  6
 10 11  1  0
 12 11  1  6
 12 13  1  0
 13 14  1  1
 14 15  1  1
 14 16  1  0
 17 16  1  1
 17 18  1  0
 18 19  1  0
 19 20  2  0
 19 21  1  0
 21 22  1  0
 22 23  1  0
 23 24  1  6
 23 25  1  0
 25 26  1  6
 26 27  1  0
 27 28  1  0
 28 29  1  6
 28  9  1  0
 28 12  1  0
 25 13  1  0
 23 17  1  0
M  END
>  <MS_ID>  (1317) 
MS1369

>  <SMILES>  (1317) 
C[C@H](CCC(=O)CS)[C@H]1CC[C@H]2[C@@H]3[C@H](O)C[C@@H]4CC(=O)CC[C@]4(C)[C@H]3CC[C@]12C

>  <Structure_dimension>  (1317) 
2D

$$$$
MS1370
     RDKit          2D

 31 34  0  0  0  0  0  0  0  0999 V2000
   -6.0604   -1.8459    0.0000 C   0  0  0  0  0  0  0  0  0  0  0  0
   -4.8386   -0.9757    0.0000 C   0  0  0  0  0  0  0  0  0  0  0  0
   -4.9814    0.5175    0.0000 C   0  0  0  0  0  0  0  0  0  0  0  0
   -6.3459    1.1405    0.0000 C   0  0  0  0  0  0  0  0  0  0  0  0
   -6.4886    2.6337    0.0000 C   0  0  0  0  0  0  0  0  0  0  0  0
   -5.2668    3.5039    0.0000 O   0  0  0  0  0  0  0  0  0  0  0  0
   -7.8531    3.2567    0.0000 O   0  0  0  0  0  0  0  0  0  0  0  0
   -3.4741   -1.5987    0.0000 C   0  0  0  0  0  0  0  0  0  0  0  0
   -3.1761   -3.0687    0.0000 C   0  0  0  0  0  0  0  0  0  0  0  0
   -1.6858   -3.2396    0.0000 C   0  0  0  0  0  0  0  0  0  0  0  0
   -1.0629   -1.8751    0.0000 C   0  0  0  0  0  0  0  0  0  0  0  0
    0.3680   -1.4250    0.0000 C   0  0  0  0  0  0  0  0  0  0  0  0
    1.4732   -2.4392    0.0000 C   0  0  0  0  0  0  0  0  0  0  0  0
    1.1476   -3.9034    0.0000 O   0  0  0  0  0  0  0  0  0  0  0  0
    2.9041   -1.9891    0.0000 C   0  0  0  0  0  0  0  0  0  0  0  0
    3.2298   -0.5249    0.0000 C   0  0  0  0  0  0  0  0  0  0  0  0
    4.6607   -0.0748    0.0000 C   0  0  0  0  0  0  0  0  0  0  0  0
    4.9864    1.3894    0.0000 C   0  0  0  0  0  0  0  0  0  0  0  0
    6.4173    1.8395    0.0000 C   0  0  0  0  0  0  0  0  0  0  0  0
    7.5225    0.8253    0.0000 C   0  0  0  0  0  0  0  0  0  0  0  0
    7.1968   -0.6389    0.0000 O   0  0  0  0  0  0  0  0  0  0  0  0
    8.9534    1.2754    0.0000 O   0  0  0  0  0  0  0  0  0  0  0  0
    3.8812    2.4036    0.0000 C   0  0  0  0  0  0  0  0  0  0  0  0
    2.4503    1.9535    0.0000 C   0  0  0  0  0  0  0  0  0  0  0  0
    2.1246    0.4893    0.0000 C   0  0  0  0  0  0  0  0  0  0  0  0
    1.0194    1.5034    0.0000 C   0  0  0  0  0  0  0  0  0  0  0  0
    0.6937    0.0392    0.0000 C   0  0  0  0  0  0  0  0  0  0  0  0
   -0.4115    1.0534    0.0000 C   0  0  0  0  0  0  0  0  0  0  0  0
   -1.8424    0.6033    0.0000 C   0  0  0  0  0  0  0  0  0  0  0  0
   -2.1681   -0.8609    0.0000 C   0  0  0  0  0  0  0  0  0  0  0  0
   -3.3732    0.0321    0.0000 C   0  0  0  0  0  0  0  0  0  0  0  0
  2  1  1  6
  2  3  1  0
  3  4  1  0
  4  5  1  0
  5  6  2  0
  5  7  1  0
  2  8  1  0
  8  9  1  6
  9 10  1  0
 11 10  1  6
 11 12  1  0
 12 13  1  1
 13 14  1  6
 13 15  1  0
 16 15  1  1
 16 17  1  0
 17 18  1  0
 18 19  1  1
 19 20  1  0
 20 21  2  0
 20 22  1  0
 18 23  1  0
 23 24  1  0
 24 25  1  0
 25 26  1  6
 25 27  1  0
 27 28  1  6
 28 29  1  0
 29 30  1  0
 30 31  1  6
 30  8  1  0
 30 11  1  0
 27 12  1  0
 25 16  1  0
M  END
>  <MS_ID>  (1318) 
MS1370

>  <SMILES>  (1318) 
C[C@H](CCC(=O)O)[C@H]1CC[C@H]2[C@@H]3[C@@H](O)C[C@@H]4C[C@H](CC(=O)O)CC[C@]4(C)[C@H]3CC[C@]12C

>  <Structure_dimension>  (1318) 
2D

$$$$
MS1371
     RDKit          2D

 32 35  0  0  0  0  0  0  0  0999 V2000
   -2.8513   -3.7397    0.0000 C   0  0  0  0  0  0  0  0  0  0  0  0
   -2.0337   -2.4821    0.0000 C   0  0  0  0  0  0  0  0  0  0  0  0
   -2.7141   -1.1453    0.0000 C   0  0  0  0  0  0  0  0  0  0  0  0
   -4.2120   -1.0661    0.0000 C   0  0  0  0  0  0  0  0  0  0  0  0
   -4.8923    0.2708    0.0000 C   0  0  0  0  0  0  0  0  0  0  0  0
   -4.0748    1.5284    0.0000 O   0  0  0  0  0  0  0  0  0  0  0  0
   -6.3902    0.3500    0.0000 N   0  0  0  0  0  0  0  0  0  0  0  0
   -7.0706    1.6869    0.0000 S   0  0  0  0  0  0  0  0  0  0  0  0
   -8.4074    1.0065    0.0000 O   0  0  0  0  0  0  0  0  0  0  0  0
   -5.7337    2.3672    0.0000 O   0  0  0  0  0  0  0  0  0  0  0  0
   -7.7509    3.0237    0.0000 O   0  0  0  0  0  0  0  0  0  0  0  0
   -0.5358   -2.5613    0.0000 C   0  0  0  0  0  0  0  0  0  0  0  0
    0.2805   -3.8197    0.0000 C   0  0  0  0  0  0  0  0  0  0  0  0
    1.7296   -3.4322    0.0000 C   0  0  0  0  0  0  0  0  0  0  0  0
    1.8088   -1.9343    0.0000 C   0  0  0  0  0  0  0  0  0  0  0  0
    2.9750   -0.9909    0.0000 C   0  0  0  0  0  0  0  0  0  0  0  0
    4.3751   -1.5291    0.0000 C   0  0  0  0  0  0  0  0  0  0  0  0
    4.6090   -3.0108    0.0000 O   0  0  0  0  0  0  0  0  0  0  0  0
    5.5413   -0.5857    0.0000 C   0  0  0  0  0  0  0  0  0  0  0  0
    5.3073    0.8959    0.0000 C   0  0  0  0  0  0  0  0  0  0  0  0
    6.4735    1.8394    0.0000 C   0  0  0  0  0  0  0  0  0  0  0  0
    6.2396    3.3210    0.0000 C   0  0  0  0  0  0  0  0  0  0  0  0
    4.8395    3.8592    0.0000 C   0  0  0  0  0  0  0  0  0  0  0  0
    3.6733    2.9158    0.0000 C   0  0  0  0  0  0  0  0  0  0  0  0
    3.9072    1.4342    0.0000 C   0  0  0  0  0  0  0  0  0  0  0  0
    2.5071    1.9724    0.0000 C   0  0  0  0  0  0  0  0  0  0  0  0
    2.7411    0.4908    0.0000 C   0  0  0  0  0  0  0  0  0  0  0  0
    1.3409    1.0290    0.0000 C   0  0  0  0  0  0  0  0  0  0  0  0
    0.1748    0.0856    0.0000 C   0  0  0  0  0  0  0  0  0  0  0  0
   -1.2253    0.6238    0.0000 O   0  0  0  0  0  0  0  0  0  0  0  0
    0.4087   -1.3961    0.0000 C   0  0  0  0  0  0  0  0  0  0  0  0
   -1.0400   -1.0072    0.0000 C   0  0  0  0  0  0  0  0  0  0  0  0
  2  1  1  6
  2  3  1  0
  3  4  1  0
  4  5  1  0
  5  6  2  0
  5  7  1  0
  7  8  1  0
  8  9  2  0
  8 10  2  0
  8 11  1  0
  2 12  1  0
 12 13  1  6
 13 14  1  0
 15 14  1  6
 15 16  1  0
 16 17  1  1
 17 18  1  1
 17 19  1  0
 20 19  1  1
 20 21  1  0
 21 22  1  0
 22 23  1  0
 23 24  1  0
 24 25  1  0
 25 26  1  6
 25 27  1  0
 27 28  1  6
 28 29  1  0
 29 30  1  1
 29 31  1  0
 31 32  1  6
 31 12  1  0
 31 15  1  0
 27 16  1  0
 25 20  1  0
M  END
>  <MS_ID>  (1319) 
MS1371

>  <SMILES>  (1319) 
C[C@H](CCC(=O)NS(=O)(=O)O)[C@H]1CC[C@H]2[C@@H]3[C@H](O)C[C@@H]4CCCC[C@]4(C)[C@H]3C[C@H](O)[C@]12C

>  <Structure_dimension>  (1319) 
2D

$$$$
MS1372
     RDKit          2D

 33 36  0  0  0  0  0  0  0  0999 V2000
   -3.0978   -3.6919    0.0000 C   0  0  0  0  0  0  0  0  0  0  0  0
   -2.2201   -2.4755    0.0000 C   0  0  0  0  0  0  0  0  0  0  0  0
   -2.8347   -1.1072    0.0000 C   0  0  0  0  0  0  0  0  0  0  0  0
   -4.3270   -0.9552    0.0000 C   0  0  0  0  0  0  0  0  0  0  0  0
   -4.9416    0.4131    0.0000 C   0  0  0  0  0  0  0  0  0  0  0  0
   -4.0639    1.6295    0.0000 O   0  0  0  0  0  0  0  0  0  0  0  0
   -6.4339    0.5650    0.0000 C   0  0  0  0  0  0  0  0  0  0  0  0
   -7.0484    1.9333    0.0000 C   0  0  0  0  0  0  0  0  0  0  0  0
   -8.5407    2.0852    0.0000 C   0  0  0  0  0  0  0  0  0  0  0  0
   -9.4184    0.8688    0.0000 O   0  0  0  0  0  0  0  0  0  0  0  0
   -9.1553    3.4535    0.0000 O   0  0  0  0  0  0  0  0  0  0  0  0
   -0.7278   -2.6274    0.0000 C   0  0  0  0  0  0  0  0  0  0  0  0
    0.0264   -3.9240    0.0000 C   0  0  0  0  0  0  0  0  0  0  0  0
    1.4926   -3.6073    0.0000 C   0  0  0  0  0  0  0  0  0  0  0  0
    1.6445   -2.1150    0.0000 C   0  0  0  0  0  0  0  0  0  0  0  0
    2.8552   -1.2294    0.0000 C   0  0  0  0  0  0  0  0  0  0  0  0
    4.2275   -1.8350    0.0000 C   0  0  0  0  0  0  0  0  0  0  0  0
    4.3891   -3.3263    0.0000 O   0  0  0  0  0  0  0  0  0  0  0  0
    5.4381   -0.9494    0.0000 C   0  0  0  0  0  0  0  0  0  0  0  0
    5.2764    0.5419    0.0000 C   0  0  0  0  0  0  0  0  0  0  0  0
    6.4871    1.4275    0.0000 C   0  0  0  0  0  0  0  0  0  0  0  0
    6.3254    2.9188    0.0000 C   0  0  0  0  0  0  0  0  0  0  0  0
    7.5360    3.8044    0.0000 O   0  0  0  0  0  0  0  0  0  0  0  0
    4.9531    3.5244    0.0000 C   0  0  0  0  0  0  0  0  0  0  0  0
    3.7425    2.6388    0.0000 C   0  0  0  0  0  0  0  0  0  0  0  0
    3.9041    1.1475    0.0000 C   0  0  0  0  0  0  0  0  0  0  0  0
    2.5318    1.7531    0.0000 C   0  0  0  0  0  0  0  0  0  0  0  0
    2.6935    0.2619    0.0000 C   0  0  0  0  0  0  0  0  0  0  0  0
    1.3212    0.8675    0.0000 C   0  0  0  0  0  0  0  0  0  0  0  0
    0.1105   -0.0181    0.0000 C   0  0  0  0  0  0  0  0  0  0  0  0
   -1.2618    0.5875    0.0000 O   0  0  0  0  0  0  0  0  0  0  0  0
    0.2722   -1.5094    0.0000 C   0  0  0  0  0  0  0  0  0  0  0  0
   -1.1559   -1.0505    0.0000 C   0  0  0  0  0  0  0  0  0  0  0  0
  2  1  1  6
  2  3  1  0
  3  4  1  0
  4  5  1  0
  5  6  2  0
  5  7  1  0
  7  8  1  0
  8  9  1  0
  9 10  2  0
  9 11  1  0
  2 12  1  0
 12 13  1  6
 13 14  1  0
 15 14  1  6
 15 16  1  0
 16 17  1  1
 17 18  1  1
 17 19  1  0
 20 19  1  1
 20 21  1  0
 21 22  1  0
 22 23  2  0
 22 24  1  0
 24 25  1  0
 25 26  1  0
 26 27  1  6
 26 28  1  0
 28 29  1  6
 29 30  1  0
 30 31  2  0
 30 32  1  0
 32 33  1  6
 32 12  1  0
 32 15  1  0
 28 16  1  0
 26 20  1  0
M  END
>  <MS_ID>  (1320) 
MS1372

>  <SMILES>  (1320) 
C[C@H](CCC(=O)CCC(=O)O)[C@H]1CC[C@H]2[C@@H]3[C@H](O)C[C@@H]4CC(=O)CC[C@]4(C)[C@H]3CC(=O)[C@]12C

>  <Structure_dimension>  (1320) 
2D

$$$$
MS1373
     RDKit          2D

 30 33  0  0  0  0  0  0  0  0999 V2000
   -5.0361   -2.2421    0.0000 C   0  0  0  0  0  0  0  0  0  0  0  0
   -3.9151   -1.2454    0.0000 C   0  0  0  0  0  0  0  0  0  0  0  0
   -4.2177    0.2237    0.0000 C   0  0  0  0  0  0  0  0  0  0  0  0
   -5.6413    0.6963    0.0000 C   0  0  0  0  0  0  0  0  0  0  0  0
   -5.9439    2.1654    0.0000 C   0  0  0  0  0  0  0  0  0  0  0  0
   -4.8228    3.1621    0.0000 O   0  0  0  0  0  0  0  0  0  0  0  0
   -7.3675    2.6380    0.0000 O   0  0  0  0  0  0  0  0  0  0  0  0
   -2.4915   -1.7180    0.0000 C   0  0  0  0  0  0  0  0  0  0  0  0
   -2.0370   -3.1475    0.0000 C   0  0  0  0  0  0  0  0  0  0  0  0
   -0.5370   -3.1570    0.0000 C   0  0  0  0  0  0  0  0  0  0  0  0
   -0.0645   -1.7333    0.0000 C   0  0  0  0  0  0  0  0  0  0  0  0
    1.3097   -1.1319    0.0000 C   0  0  0  0  0  0  0  0  0  0  0  0
    2.5176   -2.0213    0.0000 C   0  0  0  0  0  0  0  0  0  0  0  0
    2.3514   -3.5120    0.0000 N   0  0  0  0  0  0  0  0  0  0  0  0
    3.5593   -4.4014    0.0000 O   0  0  0  0  0  0  0  0  0  0  0  0
    3.8918   -1.4198    0.0000 C   0  0  0  0  0  0  0  0  0  0  0  0
    4.0580    0.0709    0.0000 C   0  0  0  0  0  0  0  0  0  0  0  0
    5.4321    0.6723    0.0000 C   0  0  0  0  0  0  0  0  0  0  0  0
    5.5984    2.1631    0.0000 C   0  0  0  0  0  0  0  0  0  0  0  0
    6.9725    2.7645    0.0000 O   0  0  0  0  0  0  0  0  0  0  0  0
    4.3904    3.0524    0.0000 C   0  0  0  0  0  0  0  0  0  0  0  0
    3.0163    2.4510    0.0000 C   0  0  0  0  0  0  0  0  0  0  0  0
    2.8501    0.9603    0.0000 C   0  0  0  0  0  0  0  0  0  0  0  0
    1.6421    1.8496    0.0000 C   0  0  0  0  0  0  0  0  0  0  0  0
    1.4759    0.3588    0.0000 C   0  0  0  0  0  0  0  0  0  0  0  0
    0.2680    1.2482    0.0000 C   0  0  0  0  0  0  0  0  0  0  0  0
   -1.1062    0.6468    0.0000 C   0  0  0  0  0  0  0  0  0  0  0  0
   -2.3141    1.5361    0.0000 O   0  0  0  0  0  0  0  0  0  0  0  0
   -1.2724   -0.8440    0.0000 C   0  0  0  0  0  0  0  0  0  0  0  0
   -2.5667   -0.0858    0.0000 C   0  0  0  0  0  0  0  0  0  0  0  0
  2  1  1  6
  2  3  1  0
  3  4  1  0
  4  5  1  0
  5  6  2  0
  5  7  1  0
  2  8  1  0
  8  9  1  6
  9 10  1  0
 11 10  1  6
 11 12  1  0
 12 13  1  1
 13 14  1  6
 14 15  1  0
 13 16  1  0
 17 16  1  1
 17 18  1  0
 18 19  1  0
 19 20  1  1
 19 21  1  0
 21 22  1  0
 22 23  1  0
 23 24  1  6
 23 25  1  0
 25 26  1  6
 26 27  1  0
 27 28  1  1
 27 29  1  0
 29 30  1  6
 29  8  1  0
 29 11  1  0
 25 12  1  0
 23 17  1  0
M  END
>  <MS_ID>  (1321) 
MS1373

>  <SMILES>  (1321) 
C[C@H](CCC(=O)O)[C@H]1CC[C@H]2[C@@H]3[C@@H](NO)C[C@@H]4C[C@H](O)CC[C@]4(C)[C@H]3C[C@H](O)[C@]12C

>  <Structure_dimension>  (1321) 
2D

$$$$
MS1374
     RDKit          2D

 30 33  0  0  0  0  0  0  0  0999 V2000
   -2.9646   -3.6874    0.0000 C   0  0  0  0  0  0  0  0  0  0  0  0
   -2.1035   -2.4593    0.0000 C   0  0  0  0  0  0  0  0  0  0  0  0
   -2.7365   -1.0994    0.0000 C   0  0  0  0  0  0  0  0  0  0  0  0
   -4.2307   -0.9677    0.0000 C   0  0  0  0  0  0  0  0  0  0  0  0
   -4.8638    0.3922    0.0000 C   0  0  0  0  0  0  0  0  0  0  0  0
   -4.0026    1.6204    0.0000 O   0  0  0  0  0  0  0  0  0  0  0  0
   -6.3580    0.5239    0.0000 C   0  0  0  0  0  0  0  0  0  0  0  0
   -6.9910    1.8838    0.0000 C   0  0  0  0  0  0  0  0  0  0  0  0
   -8.4852    2.0155    0.0000 C   0  0  0  0  0  0  0  0  0  0  0  0
   -9.1182    3.3754    0.0000 O   0  0  0  0  0  0  0  0  0  0  0  0
   -0.6093   -2.5910    0.0000 C   0  0  0  0  0  0  0  0  0  0  0  0
    0.1624   -3.8772    0.0000 C   0  0  0  0  0  0  0  0  0  0  0  0
    1.6242   -3.5408    0.0000 C   0  0  0  0  0  0  0  0  0  0  0  0
    1.7559   -2.0466    0.0000 C   0  0  0  0  0  0  0  0  0  0  0  0
    2.9545   -1.1446    0.0000 C   0  0  0  0  0  0  0  0  0  0  0  0
    4.3348   -1.7316    0.0000 C   0  0  0  0  0  0  0  0  0  0  0  0
    5.5334   -0.8297    0.0000 C   0  0  0  0  0  0  0  0  0  0  0  0
    5.3516    0.6593    0.0000 C   0  0  0  0  0  0  0  0  0  0  0  0
    6.5501    1.5612    0.0000 C   0  0  0  0  0  0  0  0  0  0  0  0
    6.3683    3.0501    0.0000 C   0  0  0  0  0  0  0  0  0  0  0  0
    4.9879    3.6371    0.0000 C   0  0  0  0  0  0  0  0  0  0  0  0
    3.7894    2.7352    0.0000 C   0  0  0  0  0  0  0  0  0  0  0  0
    3.9712    1.2463    0.0000 C   0  0  0  0  0  0  0  0  0  0  0  0
    2.5908    1.8333    0.0000 C   0  0  0  0  0  0  0  0  0  0  0  0
    2.7726    0.3443    0.0000 C   0  0  0  0  0  0  0  0  0  0  0  0
    1.3923    0.9313    0.0000 C   0  0  0  0  0  0  0  0  0  0  0  0
    0.1937    0.0294    0.0000 C   0  0  0  0  0  0  0  0  0  0  0  0
   -1.1866    0.6164    0.0000 O   0  0  0  0  0  0  0  0  0  0  0  0
    0.3756   -1.4596    0.0000 C   0  0  0  0  0  0  0  0  0  0  0  0
   -1.0586   -1.0201    0.0000 C   0  0  0  0  0  0  0  0  0  0  0  0
  2  1  1  6
  2  3  1  0
  3  4  1  0
  4  5  1  0
  5  6  2  0
  5  7  1  0
  7  8  1  0
  8  9  1  0
  9 10  1  0
  2 11  1  0
 11 12  1  6
 12 13  1  0
 14 13  1  6
 14 15  1  0
 15 16  1  1
 16 17  1  0
 18 17  1  1
 18 19  1  0
 19 20  1  0
 20 21  1  0
 21 22  1  0
 22 23  1  0
 23 24  1  6
 23 25  1  0
 25 26  1  6
 26 27  1  0
 27 28  1  6
 27 29  1  0
 29 30  1  6
 29 11  1  0
 29 14  1  0
 25 15  1  0
 23 18  1  0
M  END
>  <MS_ID>  (1322) 
MS1374

>  <SMILES>  (1322) 
C[C@H](CCC(=O)CCCO)[C@H]1CC[C@H]2[C@@H]3CC[C@@H]4CCCC[C@]4(C)[C@H]3C[C@@H](O)[C@]12C

>  <Structure_dimension>  (1322) 
2D

$$$$
MS1375
     RDKit          2D

 34 38  0  0  0  0  0  0  0  0999 V2000
   -2.2608   -4.3306    0.0000 C   0  0  0  0  0  0  0  0  0  0  0  0
   -1.5430   -3.0135    0.0000 C   0  0  0  0  0  0  0  0  0  0  0  0
   -2.3248   -1.7333    0.0000 C   0  0  0  0  0  0  0  0  0  0  0  0
   -3.8244   -1.7702    0.0000 C   0  0  0  0  0  0  0  0  0  0  0  0
   -4.6061   -0.4901    0.0000 C   0  0  0  0  0  0  0  0  0  0  0  0
   -3.8883    0.8271    0.0000 O   0  0  0  0  0  0  0  0  0  0  0  0
   -6.1057   -0.5270    0.0000 C   0  0  0  0  0  0  0  0  0  0  0  0
   -6.8874    0.7532    0.0000 C   0  0  0  0  0  0  0  0  0  0  0  0
   -6.1696    2.0703    0.0000 C   0  0  0  0  0  0  0  0  0  0  0  0
   -6.9514    3.3505    0.0000 C   0  0  0  0  0  0  0  0  0  0  0  0
   -8.4509    3.3135    0.0000 C   0  0  0  0  0  0  0  0  0  0  0  0
   -9.1687    1.9964    0.0000 C   0  0  0  0  0  0  0  0  0  0  0  0
   -8.3870    0.7163    0.0000 N   0  0  0  0  0  0  0  0  0  0  0  0
   -0.0435   -2.9765    0.0000 C   0  0  0  0  0  0  0  0  0  0  0  0
    0.8678   -4.1680    0.0000 C   0  0  0  0  0  0  0  0  0  0  0  0
    2.2825   -3.6695    0.0000 C   0  0  0  0  0  0  0  0  0  0  0  0
    2.2456   -2.1699    0.0000 C   0  0  0  0  0  0  0  0  0  0  0  0
    3.3353   -1.1391    0.0000 C   0  0  0  0  0  0  0  0  0  0  0  0
    4.7728   -1.5673    0.0000 C   0  0  0  0  0  0  0  0  0  0  0  0
    5.1207   -3.0264    0.0000 O   0  0  0  0  0  0  0  0  0  0  0  0
    5.8625   -0.5365    0.0000 C   0  0  0  0  0  0  0  0  0  0  0  0
    5.5146    0.9226    0.0000 C   0  0  0  0  0  0  0  0  0  0  0  0
    6.6043    1.9534    0.0000 C   0  0  0  0  0  0  0  0  0  0  0  0
    6.2564    3.4125    0.0000 C   0  0  0  0  0  0  0  0  0  0  0  0
    7.3460    4.4434    0.0000 O   0  0  0  0  0  0  0  0  0  0  0  0
    4.8188    3.8408    0.0000 C   0  0  0  0  0  0  0  0  0  0  0  0
    3.7291    2.8099    0.0000 C   0  0  0  0  0  0  0  0  0  0  0  0
    4.0770    1.3509    0.0000 C   0  0  0  0  0  0  0  0  0  0  0  0
    2.6395    1.7791    0.0000 C   0  0  0  0  0  0  0  0  0  0  0  0
    2.9874    0.3200    0.0000 C   0  0  0  0  0  0  0  0  0  0  0  0
    1.5498    0.7483    0.0000 C   0  0  0  0  0  0  0  0  0  0  0  0
    0.4601   -0.2826    0.0000 C   0  0  0  0  0  0  0  0  0  0  0  0
    0.8080   -1.7417    0.0000 C   0  0  0  0  0  0  0  0  0  0  0  0
   -0.6664   -1.4660    0.0000 C   0  0  0  0  0  0  0  0  0  0  0  0
  2  1  1  6
  2  3  1  0
  3  4  1  0
  4  5  1  0
  5  6  2  0
  5  7  1  0
  7  8  1  0
  8  9  2  0
  9 10  1  0
 10 11  2  0
 11 12  1  0
 12 13  2  0
  2 14  1  0
 14 15  1  6
 15 16  1  0
 17 16  1  6
 17 18  1  0
 18 19  1  1
 19 20  1  1
 19 21  1  0
 22 21  1  1
 22 23  1  0
 23 24  1  0
 24 25  1  1
 24 26  1  0
 26 27  1  0
 27 28  1  0
 28 29  1  6
 28 30  1  0
 30 31  1  6
 31 32  1  0
 32 33  1  0
 33 34  1  6
 13  8  1  0
 33 14  1  0
 33 17  1  0
 30 18  1  0
 28 22  1  0
M  END
>  <MS_ID>  (1323) 
MS1375

>  <SMILES>  (1323) 
C[C@H](CCC(=O)Cc1ccccn1)[C@H]1CC[C@H]2[C@@H]3[C@H](O)C[C@@H]4C[C@H](O)CC[C@]4(C)[C@H]3CC[C@]12C

>  <Structure_dimension>  (1323) 
2D

$$$$
MS1376
     RDKit          2D

 28 31  0  0  0  0  0  0  0  0999 V2000
   -5.1936   -2.1523    0.0000 C   0  0  0  0  0  0  0  0  0  0  0  0
   -4.0282   -1.2079    0.0000 C   0  0  0  0  0  0  0  0  0  0  0  0
   -4.2633    0.2735    0.0000 C   0  0  0  0  0  0  0  0  0  0  0  0
   -5.6638    0.8107    0.0000 C   0  0  0  0  0  0  0  0  0  0  0  0
   -5.8990    2.2921    0.0000 C   0  0  0  0  0  0  0  0  0  0  0  0
   -4.7335    3.2365    0.0000 O   0  0  0  0  0  0  0  0  0  0  0  0
   -7.2995    2.8292    0.0000 O   0  0  0  0  0  0  0  0  0  0  0  0
   -2.6276   -1.7450    0.0000 C   0  0  0  0  0  0  0  0  0  0  0  0
   -2.2390   -3.1938    0.0000 C   0  0  0  0  0  0  0  0  0  0  0  0
   -0.7410   -3.2718    0.0000 C   0  0  0  0  0  0  0  0  0  0  0  0
   -0.2039   -1.8713    0.0000 C   0  0  0  0  0  0  0  0  0  0  0  0
    1.1963   -1.3333    0.0000 C   0  0  0  0  0  0  0  0  0  0  0  0
    2.3623   -2.2769    0.0000 C   0  0  0  0  0  0  0  0  0  0  0  0
    3.7625   -1.7389    0.0000 C   0  0  0  0  0  0  0  0  0  0  0  0
    4.9286   -2.6825    0.0000 O   0  0  0  0  0  0  0  0  0  0  0  0
    3.9967   -0.2573    0.0000 C   0  0  0  0  0  0  0  0  0  0  0  0
    5.3969    0.2807    0.0000 C   0  0  0  0  0  0  0  0  0  0  0  0
    5.6311    1.7623    0.0000 C   0  0  0  0  0  0  0  0  0  0  0  0
    7.0313    2.3003    0.0000 O   0  0  0  0  0  0  0  0  0  0  0  0
    4.4651    2.7059    0.0000 C   0  0  0  0  0  0  0  0  0  0  0  0
    3.0649    2.1679    0.0000 C   0  0  0  0  0  0  0  0  0  0  0  0
    2.8307    0.6863    0.0000 C   0  0  0  0  0  0  0  0  0  0  0  0
    1.6647    1.6299    0.0000 C   0  0  0  0  0  0  0  0  0  0  0  0
    1.4305    0.1483    0.0000 C   0  0  0  0  0  0  0  0  0  0  0  0
    0.2645    1.0919    0.0000 C   0  0  0  0  0  0  0  0  0  0  0  0
   -1.1357    0.5539    0.0000 C   0  0  0  0  0  0  0  0  0  0  0  0
   -1.3699   -0.9277    0.0000 C   0  0  0  0  0  0  0  0  0  0  0  0
   -2.6282   -0.1111    0.0000 C   0  0  0  0  0  0  0  0  0  0  0  0
  2  1  1  6
  2  3  1  0
  3  4  1  0
  4  5  1  0
  5  6  2  0
  5  7  1  0
  2  8  1  0
  8  9  1  6
  9 10  1  0
 11 10  1  6
 11 12  1  0
 12 13  1  1
 13 14  1  0
 14 15  2  0
 14 16  1  0
 16 17  1  1
 17 18  1  0
 18 19  1  1
 18 20  1  0
 20 21  1  0
 21 22  1  0
 22 23  1  6
 22 24  1  0
 24 25  1  6
 25 26  1  0
 26 27  1  0
 27 28  1  6
 27  8  1  0
 27 11  1  0
 24 12  1  0
 22 16  1  0
M  END
>  <MS_ID>  (1324) 
MS1376

>  <SMILES>  (1324) 
C[C@H](CCC(=O)O)[C@H]1CC[C@H]2[C@@H]3CC(=O)[C@@H]4C[C@H](O)CC[C@]4(C)[C@H]3CC[C@]12C

>  <Structure_dimension>  (1324) 
2D

$$$$
MS1377
     RDKit          2D

 32 35  0  0  0  0  0  0  0  0999 V2000
   -3.5311   -3.9474    0.0000 C   0  0  0  0  0  0  0  0  0  0  0  0
   -2.6236   -2.7530    0.0000 C   0  0  0  0  0  0  0  0  0  0  0  0
   -3.2042   -1.3699    0.0000 C   0  0  0  0  0  0  0  0  0  0  0  0
   -4.6923   -1.1812    0.0000 C   0  0  0  0  0  0  0  0  0  0  0  0
   -5.2728    0.2019    0.0000 C   0  0  0  0  0  0  0  0  0  0  0  0
   -6.7609    0.3906    0.0000 O   0  0  0  0  0  0  0  0  0  0  0  0
   -4.3653    1.3962    0.0000 O   0  0  0  0  0  0  0  0  0  0  0  0
   -4.9459    2.7793    0.0000 C   0  0  0  0  0  0  0  0  0  0  0  0
   -6.4340    2.9681    0.0000 O   0  0  0  0  0  0  0  0  0  0  0  0
   -4.0384    3.9737    0.0000 C   0  0  0  0  0  0  0  0  0  0  0  0
   -4.6190    5.3567    0.0000 O   0  0  0  0  0  0  0  0  0  0  0  0
   -1.1355   -2.9418    0.0000 C   0  0  0  0  0  0  0  0  0  0  0  0
   -0.4136   -4.2566    0.0000 C   0  0  0  0  0  0  0  0  0  0  0  0
    1.0600   -3.9763    0.0000 C   0  0  0  0  0  0  0  0  0  0  0  0
    1.2488   -2.4882    0.0000 C   0  0  0  0  0  0  0  0  0  0  0  0
    2.4809   -1.6328    0.0000 C   0  0  0  0  0  0  0  0  0  0  0  0
    3.8378   -2.2721    0.0000 C   0  0  0  0  0  0  0  0  0  0  0  0
    5.0700   -1.4167    0.0000 C   0  0  0  0  0  0  0  0  0  0  0  0
    4.9452    0.0781    0.0000 C   0  0  0  0  0  0  0  0  0  0  0  0
    6.1774    0.9336    0.0000 C   0  0  0  0  0  0  0  0  0  0  0  0
    6.0526    2.4284    0.0000 C   0  0  0  0  0  0  0  0  0  0  0  0
    7.2848    3.2838    0.0000 O   0  0  0  0  0  0  0  0  0  0  0  0
    4.6957    3.0678    0.0000 C   0  0  0  0  0  0  0  0  0  0  0  0
    3.4635    2.2123    0.0000 C   0  0  0  0  0  0  0  0  0  0  0  0
    3.5883    0.7175    0.0000 C   0  0  0  0  0  0  0  0  0  0  0  0
    2.2314    1.3569    0.0000 C   0  0  0  0  0  0  0  0  0  0  0  0
    2.3562   -0.1379    0.0000 C   0  0  0  0  0  0  0  0  0  0  0  0
    0.9992    0.5014    0.0000 C   0  0  0  0  0  0  0  0  0  0  0  0
   -0.2329   -0.3540    0.0000 C   0  0  0  0  0  0  0  0  0  0  0  0
   -1.5898    0.2853    0.0000 O   0  0  0  0  0  0  0  0  0  0  0  0
   -0.1082   -1.8488    0.0000 C   0  0  0  0  0  0  0  0  0  0  0  0
   -1.5245   -1.3548    0.0000 C   0  0  0  0  0  0  0  0  0  0  0  0
  2  1  1  6
  2  3  1  0
  3  4  1  0
  4  5  1  0
  5  6  2  0
  5  7  1  0
  7  8  1  0
  8  9  2  0
  8 10  1  0
 10 11  1  0
  2 12  1  0
 12 13  1  6
 13 14  1  0
 15 14  1  6
 15 16  1  0
 16 17  1  1
 17 18  1  0
 19 18  1  1
 19 20  1  0
 20 21  1  0
 21 22  1  1
 21 23  1  0
 23 24  1  0
 24 25  1  0
 25 26  1  6
 25 27  1  0
 27 28  1  6
 28 29  1  0
 29 30  1  1
 29 31  1  0
 31 32  1  6
 31 12  1  0
 31 15  1  0
 27 16  1  0
 25 19  1  0
M  END
>  <MS_ID>  (1325) 
MS1377

>  <SMILES>  (1325) 
C[C@H](CCC(=O)OC(=O)CO)[C@H]1CC[C@H]2[C@@H]3CC[C@@H]4C[C@H](O)CC[C@]4(C)[C@H]3C[C@H](O)[C@]12C

>  <Structure_dimension>  (1325) 
2D

$$$$
MS1378
     RDKit          2D

 36 40  0  0  0  0  0  0  0  0999 V2000
   -1.4753   -4.0971    0.0000 C   0  0  0  0  0  0  0  0  0  0  0  0
   -0.7153   -2.8039    0.0000 C   0  0  0  0  0  0  0  0  0  0  0  0
   -1.4552   -1.4991    0.0000 C   0  0  0  0  0  0  0  0  0  0  0  0
   -2.9552   -1.4875    0.0000 C   0  0  0  0  0  0  0  0  0  0  0  0
   -3.6951   -0.1827    0.0000 C   0  0  0  0  0  0  0  0  0  0  0  0
   -2.9351    1.1105    0.0000 O   0  0  0  0  0  0  0  0  0  0  0  0
   -5.1951   -0.1712    0.0000 C   0  0  0  0  0  0  0  0  0  0  0  0
   -5.9351    1.1336    0.0000 O   0  0  0  0  0  0  0  0  0  0  0  0
   -7.4350    1.1452    0.0000 C   0  0  0  0  0  0  0  0  0  0  0  0
   -8.1750    2.4500    0.0000 C   0  0  0  0  0  0  0  0  0  0  0  0
   -9.6749    2.4615    0.0000 C   0  0  0  0  0  0  0  0  0  0  0  0
  -10.4349    1.1683    0.0000 C   0  0  0  0  0  0  0  0  0  0  0  0
  -11.9349    1.1799    0.0000 F   0  0  0  0  0  0  0  0  0  0  0  0
   -9.6950   -0.1365    0.0000 C   0  0  0  0  0  0  0  0  0  0  0  0
   -8.1950   -0.1480    0.0000 C   0  0  0  0  0  0  0  0  0  0  0  0
    0.7847   -2.8154    0.0000 C   0  0  0  0  0  0  0  0  0  0  0  0
    1.6570   -4.0357    0.0000 C   0  0  0  0  0  0  0  0  0  0  0  0
    3.0871   -3.5832    0.0000 C   0  0  0  0  0  0  0  0  0  0  0  0
    3.0987   -2.0833    0.0000 C   0  0  0  0  0  0  0  0  0  0  0  0
    4.2211   -1.0882    0.0000 C   0  0  0  0  0  0  0  0  0  0  0  0
    5.6441   -1.5627    0.0000 C   0  0  0  0  0  0  0  0  0  0  0  0
    5.9446   -3.0323    0.0000 O   0  0  0  0  0  0  0  0  0  0  0  0
    6.7665   -0.5677    0.0000 C   0  0  0  0  0  0  0  0  0  0  0  0
    6.4659    0.9019    0.0000 C   0  0  0  0  0  0  0  0  0  0  0  0
    7.5884    1.8970    0.0000 C   0  0  0  0  0  0  0  0  0  0  0  0
    7.2878    3.3666    0.0000 C   0  0  0  0  0  0  0  0  0  0  0  0
    8.4103    4.3616    0.0000 O   0  0  0  0  0  0  0  0  0  0  0  0
    5.8649    3.8411    0.0000 C   0  0  0  0  0  0  0  0  0  0  0  0
    4.7424    2.8460    0.0000 C   0  0  0  0  0  0  0  0  0  0  0  0
    5.0430    1.3764    0.0000 C   0  0  0  0  0  0  0  0  0  0  0  0
    3.6200    1.8510    0.0000 C   0  0  0  0  0  0  0  0  0  0  0  0
    3.9205    0.3814    0.0000 C   0  0  0  0  0  0  0  0  0  0  0  0
    2.4976    0.8559    0.0000 C   0  0  0  0  0  0  0  0  0  0  0  0
    1.3752   -0.1392    0.0000 C   0  0  0  0  0  0  0  0  0  0  0  0
    1.6757   -1.6088    0.0000 C   0  0  0  0  0  0  0  0  0  0  0  0
    0.2109   -1.2856    0.0000 C   0  0  0  0  0  0  0  0  0  0  0  0
  2  1  1  6
  2  3  1  0
  3  4  1  0
  4  5  1  0
  5  6  2  0
  5  7  1  0
  7  8  1  0
  8  9  1  0
  9 10  2  0
 10 11  1  0
 11 12  2  0
 12 13  1  0
 12 14  1  0
 14 15  2  0
  2 16  1  0
 16 17  1  6
 17 18  1  0
 19 18  1  6
 19 20  1  0
 20 21  1  1
 21 22  1  1
 21 23  1  0
 24 23  1  1
 24 25  1  0
 25 26  1  0
 26 27  1  1
 26 28  1  0
 28 29  1  0
 29 30  1  0
 30 31  1  6
 30 32  1  0
 32 33  1  6
 33 34  1  0
 34 35  1  0
 35 36  1  6
 15  9  1  0
 35 16  1  0
 35 19  1  0
 32 20  1  0
 30 24  1  0
M  END
>  <MS_ID>  (1326) 
MS1378

>  <SMILES>  (1326) 
C[C@H](CCC(=O)COc1ccc(F)cc1)[C@H]1CC[C@H]2[C@@H]3[C@H](O)C[C@@H]4C[C@H](O)CC[C@]4(C)[C@H]3CC[C@]12C

>  <Structure_dimension>  (1326) 
2D

$$$$
MS1379
     RDKit          2D

 33 37  0  0  0  0  0  0  0  0999 V2000
   -3.6298   -3.2263    0.0000 C   0  0  0  0  0  0  0  0  0  0  0  0
   -2.6726   -2.0715    0.0000 C   0  0  0  0  0  0  0  0  0  0  0  0
   -3.1941   -0.6650    0.0000 C   0  0  0  0  0  0  0  0  0  0  0  0
   -4.6728   -0.4135    0.0000 C   0  0  0  0  0  0  0  0  0  0  0  0
   -5.1944    0.9930    0.0000 C   0  0  0  0  0  0  0  0  0  0  0  0
   -4.2371    2.1478    0.0000 O   0  0  0  0  0  0  0  0  0  0  0  0
   -6.6731    1.2445    0.0000 C   0  0  0  0  0  0  0  0  0  0  0  0
   -7.7458    0.1960    0.0000 C   0  0  0  0  0  0  0  0  0  0  0  0
   -9.0745    0.8923    0.0000 C   0  0  0  0  0  0  0  0  0  0  0  0
   -8.8229    2.3710    0.0000 C   0  0  0  0  0  0  0  0  0  0  0  0
   -7.3388    2.5887    0.0000 O   0  0  0  0  0  0  0  0  0  0  0  0
   -1.1938   -2.3230    0.0000 C   0  0  0  0  0  0  0  0  0  0  0  0
   -0.5281   -3.6672    0.0000 C   0  0  0  0  0  0  0  0  0  0  0  0
    0.9560   -3.4495    0.0000 C   0  0  0  0  0  0  0  0  0  0  0  0
    1.2075   -1.9708    0.0000 C   0  0  0  0  0  0  0  0  0  0  0  0
    2.4748   -1.1682    0.0000 C   0  0  0  0  0  0  0  0  0  0  0  0
    3.8034   -1.8644    0.0000 C   0  0  0  0  0  0  0  0  0  0  0  0
    3.8648   -3.3632    0.0000 O   0  0  0  0  0  0  0  0  0  0  0  0
    5.0707   -1.0619    0.0000 C   0  0  0  0  0  0  0  0  0  0  0  0
    6.3993   -1.7581    0.0000 O   0  0  0  0  0  0  0  0  0  0  0  0
    5.0093    0.4368    0.0000 C   0  0  0  0  0  0  0  0  0  0  0  0
    6.2766    1.2394    0.0000 C   0  0  0  0  0  0  0  0  0  0  0  0
    6.2152    2.7381    0.0000 C   0  0  0  0  0  0  0  0  0  0  0  0
    7.4824    3.5407    0.0000 O   0  0  0  0  0  0  0  0  0  0  0  0
    4.8865    3.4343    0.0000 C   0  0  0  0  0  0  0  0  0  0  0  0
    3.6193    2.6318    0.0000 C   0  0  0  0  0  0  0  0  0  0  0  0
    3.6807    1.1331    0.0000 C   0  0  0  0  0  0  0  0  0  0  0  0
    2.3520    1.8293    0.0000 C   0  0  0  0  0  0  0  0  0  0  0  0
    2.4134    0.3305    0.0000 C   0  0  0  0  0  0  0  0  0  0  0  0
    1.0848    1.0267    0.0000 C   0  0  0  0  0  0  0  0  0  0  0  0
   -0.1825    0.2242    0.0000 C   0  0  0  0  0  0  0  0  0  0  0  0
   -0.1211   -1.2745    0.0000 C   0  0  0  0  0  0  0  0  0  0  0  0
   -1.5152   -0.7210    0.0000 C   0  0  0  0  0  0  0  0  0  0  0  0
  2  1  1  6
  2  3  1  0
  3  4  1  0
  4  5  1  0
  5  6  2  0
  5  7  1  0
  7  8  2  0
  8  9  1  0
  9 10  2  0
 10 11  1  0
  2 12  1  0
 12 13  1  6
 13 14  1  0
 15 14  1  6
 15 16  1  0
 16 17  1  1
 17 18  1  1
 17 19  1  0
 19 20  1  1
 19 21  1  0
 21 22  1  1
 22 23  1  0
 23 24  1  1
 23 25  1  0
 25 26  1  0
 26 27  1  0
 27 28  1  6
 27 29  1  0
 29 30  1  6
 30 31  1  0
 31 32  1  0
 32 33  1  6
 11  7  1  0
 32 12  1  0
 32 15  1  0
 29 16  1  0
 27 21  1  0
M  END
>  <MS_ID>  (1327) 
MS1379

>  <SMILES>  (1327) 
C[C@H](CCC(=O)c1ccco1)[C@H]1CC[C@H]2[C@@H]3[C@H](O)[C@H](O)[C@@H]4C[C@H](O)CC[C@]4(C)[C@H]3CC[C@]12C

>  <Structure_dimension>  (1327) 
2D

$$$$
MS1380
     RDKit          2D

 33 36  0  0  0  0  0  0  0  0999 V2000
   -3.3094   -3.6711    0.0000 C   0  0  0  0  0  0  0  0  0  0  0  0
   -2.4155   -2.4665    0.0000 C   0  0  0  0  0  0  0  0  0  0  0  0
   -3.0118   -1.0901    0.0000 C   0  0  0  0  0  0  0  0  0  0  0  0
   -4.5019   -0.9183    0.0000 C   0  0  0  0  0  0  0  0  0  0  0  0
   -5.0982    0.4581    0.0000 C   0  0  0  0  0  0  0  0  0  0  0  0
   -4.2043    1.6627    0.0000 O   0  0  0  0  0  0  0  0  0  0  0  0
   -6.5883    0.6300    0.0000 N   0  0  0  0  0  0  0  0  0  0  0  0
   -7.1845    2.0064    0.0000 S   0  0  0  0  0  0  0  0  0  0  0  0
   -7.7808    3.3828    0.0000 O   0  0  0  0  0  0  0  0  0  0  0  0
   -8.5609    1.4101    0.0000 O   0  0  0  0  0  0  0  0  0  0  0  0
   -5.8081    2.6026    0.0000 F   0  0  0  0  0  0  0  0  0  0  0  0
   -0.9254   -2.6383    0.0000 C   0  0  0  0  0  0  0  0  0  0  0  0
   -0.1885   -3.9449    0.0000 C   0  0  0  0  0  0  0  0  0  0  0  0
    1.2818   -3.6478    0.0000 C   0  0  0  0  0  0  0  0  0  0  0  0
    1.4536   -2.1577    0.0000 C   0  0  0  0  0  0  0  0  0  0  0  0
    2.6759   -1.2883    0.0000 C   0  0  0  0  0  0  0  0  0  0  0  0
    4.0400   -1.9122    0.0000 C   0  0  0  0  0  0  0  0  0  0  0  0
    4.1818   -3.4055    0.0000 O   0  0  0  0  0  0  0  0  0  0  0  0
    5.2624   -1.0428    0.0000 C   0  0  0  0  0  0  0  0  0  0  0  0
    5.1206    0.4505    0.0000 C   0  0  0  0  0  0  0  0  0  0  0  0
    6.3430    1.3199    0.0000 C   0  0  0  0  0  0  0  0  0  0  0  0
    6.2013    2.8132    0.0000 C   0  0  0  0  0  0  0  0  0  0  0  0
    7.4236    3.6826    0.0000 O   0  0  0  0  0  0  0  0  0  0  0  0
    4.8372    3.4371    0.0000 C   0  0  0  0  0  0  0  0  0  0  0  0
    3.6148    2.5677    0.0000 C   0  0  0  0  0  0  0  0  0  0  0  0
    3.7565    1.0744    0.0000 C   0  0  0  0  0  0  0  0  0  0  0  0
    2.3925    1.6983    0.0000 C   0  0  0  0  0  0  0  0  0  0  0  0
    2.5342    0.2050    0.0000 C   0  0  0  0  0  0  0  0  0  0  0  0
    1.1701    0.8289    0.0000 C   0  0  0  0  0  0  0  0  0  0  0  0
   -0.0523   -0.0405    0.0000 C   0  0  0  0  0  0  0  0  0  0  0  0
   -1.4164    0.5834    0.0000 O   0  0  0  0  0  0  0  0  0  0  0  0
    0.0895   -1.5338    0.0000 C   0  0  0  0  0  0  0  0  0  0  0  0
   -1.3324   -1.0559    0.0000 C   0  0  0  0  0  0  0  0  0  0  0  0
  2  1  1  6
  2  3  1  0
  3  4  1  0
  4  5  1  0
  5  6  2  0
  5  7  1  0
  7  8  1  0
  8  9  2  0
  8 10  2  0
  8 11  1  0
  2 12  1  0
 12 13  1  6
 13 14  1  0
 15 14  1  6
 15 16  1  0
 16 17  1  1
 17 18  1  1
 17 19  1  0
 20 19  1  1
 20 21  1  0
 21 22  1  0
 22 23  1  1
 22 24  1  0
 24 25  1  0
 25 26  1  0
 26 27  1  6
 26 28  1  0
 28 29  1  6
 29 30  1  0
 30 31  1  1
 30 32  1  0
 32 33  1  6
 32 12  1  0
 32 15  1  0
 28 16  1  0
 26 20  1  0
M  END
>  <MS_ID>  (1328) 
MS1380

>  <SMILES>  (1328) 
C[C@H](CCC(=O)NS(=O)(=O)F)[C@H]1CC[C@H]2[C@@H]3[C@H](O)C[C@@H]4C[C@H](O)CC[C@]4(C)[C@H]3C[C@H](O)[C@]12C

>  <Structure_dimension>  (1328) 
2D

$$$$
MS1381
     RDKit          2D

 32 35  0  0  0  0  0  0  0  0999 V2000
   -8.8198    2.5355    0.0000 C   0  0  0  0  0  0  0  0  0  0  0  0
   -7.3362    2.3142    0.0000 C   0  0  0  0  0  0  0  0  0  0  0  0
   -6.4028    3.4884    0.0000 C   0  0  0  0  0  0  0  0  0  0  0  0
   -6.7860    0.9188    0.0000 O   0  0  0  0  0  0  0  0  0  0  0  0
   -5.3024    0.6975    0.0000 C   0  0  0  0  0  0  0  0  0  0  0  0
   -4.3690    1.8717    0.0000 O   0  0  0  0  0  0  0  0  0  0  0  0
   -4.7523   -0.6980    0.0000 C   0  0  0  0  0  0  0  0  0  0  0  0
   -3.2687   -0.9192    0.0000 C   0  0  0  0  0  0  0  0  0  0  0  0
   -2.7185   -2.3147    0.0000 C   0  0  0  0  0  0  0  0  0  0  0  0
   -3.6519   -3.4889    0.0000 C   0  0  0  0  0  0  0  0  0  0  0  0
   -1.2349   -2.5360    0.0000 C   0  0  0  0  0  0  0  0  0  0  0  0
   -0.5419   -3.8663    0.0000 C   0  0  0  0  0  0  0  0  0  0  0  0
    0.9375   -3.6183    0.0000 C   0  0  0  0  0  0  0  0  0  0  0  0
    1.1587   -2.1347    0.0000 C   0  0  0  0  0  0  0  0  0  0  0  0
    2.4093   -1.3064    0.0000 C   0  0  0  0  0  0  0  0  0  0  0  0
    3.7519   -1.9753    0.0000 C   0  0  0  0  0  0  0  0  0  0  0  0
    3.8439   -3.4725    0.0000 O   0  0  0  0  0  0  0  0  0  0  0  0
    5.0025   -1.1470    0.0000 C   0  0  0  0  0  0  0  0  0  0  0  0
    4.9105    0.3502    0.0000 C   0  0  0  0  0  0  0  0  0  0  0  0
    6.1611    1.1784    0.0000 C   0  0  0  0  0  0  0  0  0  0  0  0
    6.0690    2.6756    0.0000 C   0  0  0  0  0  0  0  0  0  0  0  0
    7.3196    3.5039    0.0000 O   0  0  0  0  0  0  0  0  0  0  0  0
    4.7264    3.3445    0.0000 C   0  0  0  0  0  0  0  0  0  0  0  0
    3.4759    2.5162    0.0000 C   0  0  0  0  0  0  0  0  0  0  0  0
    3.5679    1.0191    0.0000 C   0  0  0  0  0  0  0  0  0  0  0  0
    2.2253    1.6879    0.0000 C   0  0  0  0  0  0  0  0  0  0  0  0
    2.3173    0.1908    0.0000 C   0  0  0  0  0  0  0  0  0  0  0  0
    0.9747    0.8597    0.0000 C   0  0  0  0  0  0  0  0  0  0  0  0
   -0.2759    0.0314    0.0000 C   0  0  0  0  0  0  0  0  0  0  0  0
   -1.6185    0.7003    0.0000 O   0  0  0  0  0  0  0  0  0  0  0  0
   -0.1839   -1.4658    0.0000 C   0  0  0  0  0  0  0  0  0  0  0  0
   -1.5890   -0.9409    0.0000 C   0  0  0  0  0  0  0  0  0  0  0  0
  1  2  1  0
  2  3  1  0
  2  4  1  0
  4  5  1  0
  5  6  2  0
  5  7  1  0
  7  8  1  0
  8  9  1  0
  9 10  1  6
  9 11  1  0
 11 12  1  6
 12 13  1  0
 14 13  1  6
 14 15  1  0
 15 16  1  1
 16 17  1  1
 16 18  1  0
 19 18  1  1
 19 20  1  0
 20 21  1  0
 21 22  1  1
 21 23  1  0
 23 24  1  0
 24 25  1  0
 25 26  1  6
 25 27  1  0
 27 28  1  6
 28 29  1  0
 29 30  1  1
 29 31  1  0
 31 32  1  6
 31 11  1  0
 31 14  1  0
 27 15  1  0
 25 19  1  0
M  END
>  <MS_ID>  (1329) 
MS1381

>  <SMILES>  (1329) 
CC(C)OC(=O)CC[C@@H](C)[C@H]1CC[C@H]2[C@@H]3[C@H](O)C[C@@H]4C[C@H](O)CC[C@]4(C)[C@H]3C[C@H](O)[C@]12C

>  <Structure_dimension>  (1329) 
2D

$$$$
MS1382
     RDKit          2D

 28 31  0  0  0  0  0  0  0  0999 V2000
   -8.6270    2.9347    0.0000 C   0  0  0  0  0  0  0  0  0  0  0  0
   -7.1503    2.6710    0.0000 C   0  0  0  0  0  0  0  0  0  0  0  0
   -6.6404    1.2603    0.0000 O   0  0  0  0  0  0  0  0  0  0  0  0
   -5.1638    0.9966    0.0000 C   0  0  0  0  0  0  0  0  0  0  0  0
   -4.1971    2.1436    0.0000 O   0  0  0  0  0  0  0  0  0  0  0  0
   -4.6538   -0.4140    0.0000 C   0  0  0  0  0  0  0  0  0  0  0  0
   -3.1772   -0.6777    0.0000 C   0  0  0  0  0  0  0  0  0  0  0  0
   -2.6672   -2.0884    0.0000 C   0  0  0  0  0  0  0  0  0  0  0  0
   -3.6339   -3.2354    0.0000 C   0  0  0  0  0  0  0  0  0  0  0  0
   -1.1906   -2.3521    0.0000 C   0  0  0  0  0  0  0  0  0  0  0  0
   -0.5360   -3.7017    0.0000 C   0  0  0  0  0  0  0  0  0  0  0  0
    0.9499   -3.4962    0.0000 C   0  0  0  0  0  0  0  0  0  0  0  0
    1.2136   -2.0196    0.0000 C   0  0  0  0  0  0  0  0  0  0  0  0
    2.4874   -1.2275    0.0000 C   0  0  0  0  0  0  0  0  0  0  0  0
    3.8103   -1.9346    0.0000 C   0  0  0  0  0  0  0  0  0  0  0  0
    5.0841   -1.1425    0.0000 C   0  0  0  0  0  0  0  0  0  0  0  0
    5.0350    0.3567    0.0000 C   0  0  0  0  0  0  0  0  0  0  0  0
    6.3088    1.1488    0.0000 C   0  0  0  0  0  0  0  0  0  0  0  0
    6.2597    2.6480    0.0000 C   0  0  0  0  0  0  0  0  0  0  0  0
    4.9369    3.3551    0.0000 C   0  0  0  0  0  0  0  0  0  0  0  0
    3.6630    2.5630    0.0000 C   0  0  0  0  0  0  0  0  0  0  0  0
    3.7121    1.0638    0.0000 C   0  0  0  0  0  0  0  0  0  0  0  0
    2.3892    1.7709    0.0000 C   0  0  0  0  0  0  0  0  0  0  0  0
    2.4383    0.2717    0.0000 C   0  0  0  0  0  0  0  0  0  0  0  0
    1.1154    0.9788    0.0000 C   0  0  0  0  0  0  0  0  0  0  0  0
   -0.1584    0.1867    0.0000 C   0  0  0  0  0  0  0  0  0  0  0  0
   -0.1093   -1.3125    0.0000 C   0  0  0  0  0  0  0  0  0  0  0  0
   -1.4988   -0.7475    0.0000 C   0  0  0  0  0  0  0  0  0  0  0  0
  1  2  1  0
  2  3  1  0
  3  4  1  0
  4  5  2  0
  4  6  1  0
  6  7  1  0
  7  8  1  0
  8  9  1  6
  8 10  1  0
 10 11  1  6
 11 12  1  0
 13 12  1  6
 13 14  1  0
 14 15  1  1
 15 16  1  0
 17 16  1  1
 17 18  1  0
 18 19  1  0
 19 20  1  0
 20 21  1  0
 21 22  1  0
 22 23  1  6
 22 24  1  0
 24 25  1  6
 25 26  1  0
 26 27  1  0
 27 28  1  6
 27 10  1  0
 27 13  1  0
 24 14  1  0
 22 17  1  0
M  END
>  <MS_ID>  (1330) 
MS1382

>  <SMILES>  (1330) 
CCOC(=O)CC[C@@H](C)[C@H]1CC[C@H]2[C@@H]3CC[C@@H]4CCCC[C@]4(C)[C@H]3CC[C@]12C

>  <Structure_dimension>  (1330) 
2D

$$$$
MS1383
     RDKit          2D

 28 31  0  0  0  0  0  0  0  0999 V2000
   -4.6340   -2.3524    0.0000 C   0  0  0  0  0  0  0  0  0  0  0  0
   -3.5242   -1.3434    0.0000 C   0  0  0  0  0  0  0  0  0  0  0  0
   -3.8431    0.1223    0.0000 C   0  0  0  0  0  0  0  0  0  0  0  0
   -5.2720    0.5789    0.0000 C   0  0  0  0  0  0  0  0  0  0  0  0
   -5.5909    2.0446    0.0000 C   0  0  0  0  0  0  0  0  0  0  0  0
   -4.4811    3.0537    0.0000 O   0  0  0  0  0  0  0  0  0  0  0  0
   -7.0197    2.5012    0.0000 O   0  0  0  0  0  0  0  0  0  0  0  0
   -2.0954   -1.8000    0.0000 C   0  0  0  0  0  0  0  0  0  0  0  0
   -1.6249   -3.2243    0.0000 C   0  0  0  0  0  0  0  0  0  0  0  0
   -0.1249   -3.2170    0.0000 C   0  0  0  0  0  0  0  0  0  0  0  0
    0.3317   -1.7882    0.0000 C   0  0  0  0  0  0  0  0  0  0  0  0
    1.6990   -1.1715    0.0000 C   0  0  0  0  0  0  0  0  0  0  0  0
    2.9168   -2.0473    0.0000 C   0  0  0  0  0  0  0  0  0  0  0  0
    2.7672   -3.5398    0.0000 F   0  0  0  0  0  0  0  0  0  0  0  0
    4.2841   -1.4305    0.0000 C   0  0  0  0  0  0  0  0  0  0  0  0
    4.4337    0.0620    0.0000 C   0  0  0  0  0  0  0  0  0  0  0  0
    5.8011    0.6787    0.0000 C   0  0  0  0  0  0  0  0  0  0  0  0
    5.9506    2.1713    0.0000 C   0  0  0  0  0  0  0  0  0  0  0  0
    4.7328    3.0471    0.0000 C   0  0  0  0  0  0  0  0  0  0  0  0
    3.3655    2.4303    0.0000 C   0  0  0  0  0  0  0  0  0  0  0  0
    3.2159    0.9378    0.0000 C   0  0  0  0  0  0  0  0  0  0  0  0
    1.9981    1.8136    0.0000 C   0  0  0  0  0  0  0  0  0  0  0  0
    1.8486    0.3211    0.0000 C   0  0  0  0  0  0  0  0  0  0  0  0
    0.6308    1.1968    0.0000 C   0  0  0  0  0  0  0  0  0  0  0  0
   -0.7366    0.5801    0.0000 C   0  0  0  0  0  0  0  0  0  0  0  0
   -1.9543    1.4559    0.0000 O   0  0  0  0  0  0  0  0  0  0  0  0
   -0.8861   -0.9124    0.0000 C   0  0  0  0  0  0  0  0  0  0  0  0
   -2.1888   -0.1687    0.0000 C   0  0  0  0  0  0  0  0  0  0  0  0
  2  1  1  6
  2  3  1  0
  3  4  1  0
  4  5  1  0
  5  6  2  0
  5  7  1  0
  2  8  1  0
  8  9  1  6
  9 10  1  0
 11 10  1  6
 11 12  1  0
 12 13  1  1
 13 14  1  1
 13 15  1  0
 16 15  1  1
 16 17  1  0
 17 18  1  0
 18 19  1  0
 19 20  1  0
 20 21  1  0
 21 22  1  6
 21 23  1  0
 23 24  1  6
 24 25  1  0
 25 26  1  6
 25 27  1  0
 27 28  1  6
 27  8  1  0
 27 11  1  0
 23 12  1  0
 21 16  1  0
M  END
>  <MS_ID>  (1331) 
MS1383

>  <SMILES>  (1331) 
C[C@H](CCC(=O)O)[C@H]1CC[C@H]2[C@@H]3[C@H](F)C[C@@H]4CCCC[C@]4(C)[C@H]3C[C@@H](O)[C@]12C

>  <Structure_dimension>  (1331) 
2D

$$$$
MS1384
     RDKit          2D

 29 32  0  0  0  0  0  0  0  0999 V2000
   -5.0303   -2.1373    0.0000 C   0  0  0  0  0  0  0  0  0  0  0  0
   -3.8594   -1.1998    0.0000 C   0  0  0  0  0  0  0  0  0  0  0  0
   -4.0858    0.2830    0.0000 C   0  0  0  0  0  0  0  0  0  0  0  0
   -5.4831    0.8284    0.0000 C   0  0  0  0  0  0  0  0  0  0  0  0
   -5.7095    2.3112    0.0000 C   0  0  0  0  0  0  0  0  0  0  0  0
   -4.5386    3.2487    0.0000 O   0  0  0  0  0  0  0  0  0  0  0  0
   -7.1069    2.8565    0.0000 O   0  0  0  0  0  0  0  0  0  0  0  0
   -2.4620   -1.7451    0.0000 C   0  0  0  0  0  0  0  0  0  0  0  0
   -2.0818   -3.1961    0.0000 C   0  0  0  0  0  0  0  0  0  0  0  0
   -0.5844   -3.2830    0.0000 C   0  0  0  0  0  0  0  0  0  0  0  0
   -0.0390   -1.8856    0.0000 C   0  0  0  0  0  0  0  0  0  0  0  0
    1.3643   -1.3559    0.0000 C   0  0  0  0  0  0  0  0  0  0  0  0
    2.5248   -2.3063    0.0000 C   0  0  0  0  0  0  0  0  0  0  0  0
    2.2819   -3.7865    0.0000 O   0  0  0  0  0  0  0  0  0  0  0  0
    3.9281   -1.7765    0.0000 C   0  0  0  0  0  0  0  0  0  0  0  0
    4.1710   -0.2963    0.0000 C   0  0  0  0  0  0  0  0  0  0  0  0
    5.5743    0.2334    0.0000 C   0  0  0  0  0  0  0  0  0  0  0  0
    5.8172    1.7136    0.0000 C   0  0  0  0  0  0  0  0  0  0  0  0
    7.2205    2.2434    0.0000 O   0  0  0  0  0  0  0  0  0  0  0  0
    4.6568    2.6641    0.0000 C   0  0  0  0  0  0  0  0  0  0  0  0
    3.2534    2.1343    0.0000 C   0  0  0  0  0  0  0  0  0  0  0  0
    3.0105    0.6541    0.0000 C   0  0  0  0  0  0  0  0  0  0  0  0
    1.8501    1.6046    0.0000 C   0  0  0  0  0  0  0  0  0  0  0  0
    1.6072    0.1244    0.0000 C   0  0  0  0  0  0  0  0  0  0  0  0
    0.4467    1.0748    0.0000 C   0  0  0  0  0  0  0  0  0  0  0  0
   -0.9566    0.5450    0.0000 C   0  0  0  0  0  0  0  0  0  0  0  0
   -2.1170    1.4955    0.0000 F   0  0  0  0  0  0  0  0  0  0  0  0
   -1.1995   -0.9352    0.0000 C   0  0  0  0  0  0  0  0  0  0  0  0
   -2.4529   -0.1112    0.0000 C   0  0  0  0  0  0  0  0  0  0  0  0
  2  1  1  6
  2  3  1  0
  3  4  1  0
  4  5  1  0
  5  6  2  0
  5  7  1  0
  2  8  1  0
  8  9  1  6
  9 10  1  0
 11 10  1  6
 11 12  1  0
 12 13  1  1
 13 14  1  1
 13 15  1  0
 16 15  1  1
 16 17  1  0
 17 18  1  0
 18 19  1  1
 18 20  1  0
 20 21  1  0
 21 22  1  0
 22 23  1  6
 22 24  1  0
 24 25  1  6
 25 26  1  0
 26 27  1  1
 26 28  1  0
 28 29  1  6
 28  8  1  0
 28 11  1  0
 24 12  1  0
 22 16  1  0
M  END
>  <MS_ID>  (1332) 
MS1384

>  <SMILES>  (1332) 
C[C@H](CCC(=O)O)[C@H]1CC[C@H]2[C@@H]3[C@H](O)C[C@@H]4C[C@H](O)CC[C@]4(C)[C@H]3C[C@H](F)[C@]12C

>  <Structure_dimension>  (1332) 
2D

$$$$
MS1386
     RDKit          2D

 29 32  0  0  0  0  0  0  0  0999 V2000
   -4.5534   -2.6812    0.0000 C   0  0  0  0  0  0  0  0  0  0  0  0
   -3.4378   -1.6786    0.0000 C   0  0  0  0  0  0  0  0  0  0  0  0
   -3.7483   -0.2111    0.0000 C   0  0  0  0  0  0  0  0  0  0  0  0
   -5.1744    0.2538    0.0000 C   0  0  0  0  0  0  0  0  0  0  0  0
   -5.4850    1.7213    0.0000 C   0  0  0  0  0  0  0  0  0  0  0  0
   -4.3693    2.7239    0.0000 O   0  0  0  0  0  0  0  0  0  0  0  0
   -6.9111    2.1861    0.0000 C   0  0  0  0  0  0  0  0  0  0  0  0
   -7.2216    3.6536    0.0000 S   0  0  0  0  0  0  0  0  0  0  0  0
   -2.0116   -2.1434    0.0000 C   0  0  0  0  0  0  0  0  0  0  0  0
   -1.5494   -3.5704    0.0000 C   0  0  0  0  0  0  0  0  0  0  0  0
   -0.0494   -3.5718    0.0000 C   0  0  0  0  0  0  0  0  0  0  0  0
    0.4155   -2.1456    0.0000 C   0  0  0  0  0  0  0  0  0  0  0  0
    1.7863   -1.5368    0.0000 C   0  0  0  0  0  0  0  0  0  0  0  0
    2.9990   -2.4196    0.0000 C   0  0  0  0  0  0  0  0  0  0  0  0
    4.3699   -1.8107    0.0000 C   0  0  0  0  0  0  0  0  0  0  0  0
    4.5281   -0.3191    0.0000 C   0  0  0  0  0  0  0  0  0  0  0  0
    5.8990    0.2898    0.0000 C   0  0  0  0  0  0  0  0  0  0  0  0
    6.0571    1.7814    0.0000 C   0  0  0  0  0  0  0  0  0  0  0  0
    7.4280    2.3902    0.0000 O   0  0  0  0  0  0  0  0  0  0  0  0
    4.8444    2.6642    0.0000 C   0  0  0  0  0  0  0  0  0  0  0  0
    3.4735    2.0553    0.0000 C   0  0  0  0  0  0  0  0  0  0  0  0
    3.3154    0.5637    0.0000 C   0  0  0  0  0  0  0  0  0  0  0  0
    2.1026    1.4465    0.0000 C   0  0  0  0  0  0  0  0  0  0  0  0
    1.9445   -0.0451    0.0000 C   0  0  0  0  0  0  0  0  0  0  0  0
    0.7318    0.8376    0.0000 C   0  0  0  0  0  0  0  0  0  0  0  0
   -0.6391    0.2288    0.0000 C   0  0  0  0  0  0  0  0  0  0  0  0
   -1.8518    1.1116    0.0000 O   0  0  0  0  0  0  0  0  0  0  0  0
   -0.7973   -1.2628    0.0000 C   0  0  0  0  0  0  0  0  0  0  0  0
   -2.0956   -0.5116    0.0000 C   0  0  0  0  0  0  0  0  0  0  0  0
  2  1  1  6
  2  3  1  0
  3  4  1  0
  4  5  1  0
  5  6  2  0
  5  7  1  0
  7  8  1  0
  2  9  1  0
  9 10  1  6
 10 11  1  0
 12 11  1  6
 12 13  1  0
 13 14  1  1
 14 15  1  0
 16 15  1  1
 16 17  1  0
 17 18  1  0
 18 19  1  6
 18 20  1  0
 20 21  1  0
 21 22  1  0
 22 23  1  6
 22 24  1  0
 24 25  1  6
 25 26  1  0
 26 27  1  1
 26 28  1  0
 28 29  1  6
 28  9  1  0
 28 12  1  0
 24 13  1  0
 22 16  1  0
M  END
>  <MS_ID>  (1333) 
MS1386

>  <SMILES>  (1333) 
C[C@H](CCC(=O)CS)[C@H]1CC[C@H]2[C@@H]3CC[C@@H]4C[C@@H](O)CC[C@]4(C)[C@H]3C[C@H](O)[C@]12C

>  <Structure_dimension>  (1333) 
2D

$$$$
MS1387
     RDKit          2D

 30 33  0  0  0  0  0  0  0  0999 V2000
   -4.1099   -3.1124    0.0000 C   0  0  0  0  0  0  0  0  0  0  0  0
   -3.1089   -1.9953    0.0000 C   0  0  0  0  0  0  0  0  0  0  0  0
   -3.5759   -0.5698    0.0000 C   0  0  0  0  0  0  0  0  0  0  0  0
   -5.0438   -0.2615    0.0000 C   0  0  0  0  0  0  0  0  0  0  0  0
   -5.5108    1.1640    0.0000 C   0  0  0  0  0  0  0  0  0  0  0  0
   -4.5097    2.2811    0.0000 O   0  0  0  0  0  0  0  0  0  0  0  0
   -6.9787    1.4724    0.0000 N   0  0  0  0  0  0  0  0  0  0  0  0
   -7.4457    2.8978    0.0000 C   0  0  0  0  0  0  0  0  0  0  0  0
   -8.9136    3.2062    0.0000 N   0  0  0  0  0  0  0  0  0  0  0  0
   -1.6409   -2.3036    0.0000 C   0  0  0  0  0  0  0  0  0  0  0  0
   -1.0276   -3.6725    0.0000 C   0  0  0  0  0  0  0  0  0  0  0  0
    0.4638   -3.5121    0.0000 C   0  0  0  0  0  0  0  0  0  0  0  0
    0.7722   -2.0441    0.0000 C   0  0  0  0  0  0  0  0  0  0  0  0
    2.0694   -1.2910    0.0000 C   0  0  0  0  0  0  0  0  0  0  0  0
    3.3703   -2.0379    0.0000 C   0  0  0  0  0  0  0  0  0  0  0  0
    3.3739   -3.5379    0.0000 O   0  0  0  0  0  0  0  0  0  0  0  0
    4.6675   -1.2848    0.0000 C   0  0  0  0  0  0  0  0  0  0  0  0
    4.6639    0.2152    0.0000 C   0  0  0  0  0  0  0  0  0  0  0  0
    5.9611    0.9683    0.0000 C   0  0  0  0  0  0  0  0  0  0  0  0
    5.9575    2.4683    0.0000 C   0  0  0  0  0  0  0  0  0  0  0  0
    7.2548    3.2214    0.0000 O   0  0  0  0  0  0  0  0  0  0  0  0
    4.6567    3.2152    0.0000 C   0  0  0  0  0  0  0  0  0  0  0  0
    3.3595    2.4621    0.0000 C   0  0  0  0  0  0  0  0  0  0  0  0
    3.3631    0.9621    0.0000 C   0  0  0  0  0  0  0  0  0  0  0  0
    2.0622    1.7090    0.0000 C   0  0  0  0  0  0  0  0  0  0  0  0
    2.0658    0.2090    0.0000 C   0  0  0  0  0  0  0  0  0  0  0  0
    0.7650    0.9559    0.0000 C   0  0  0  0  0  0  0  0  0  0  0  0
   -0.5322    0.2027    0.0000 C   0  0  0  0  0  0  0  0  0  0  0  0
   -0.5286   -1.2973    0.0000 C   0  0  0  0  0  0  0  0  0  0  0  0
   -1.9004   -0.6904    0.0000 C   0  0  0  0  0  0  0  0  0  0  0  0
  2  1  1  6
  2  3  1  0
  3  4  1  0
  4  5  1  0
  5  6  2  0
  5  7  1  0
  7  8  1  0
  8  9  1  0
  2 10  1  0
 10 11  1  6
 11 12  1  0
 13 12  1  6
 13 14  1  0
 14 15  1  1
 15 16  1  6
 15 17  1  0
 18 17  1  1
 18 19  1  0
 19 20  1  0
 20 21  1  1
 20 22  1  0
 22 23  1  0
 23 24  1  0
 24 25  1  6
 24 26  1  0
 26 27  1  6
 27 28  1  0
 28 29  1  0
 29 30  1  6
 29 10  1  0
 29 13  1  0
 26 14  1  0
 24 18  1  0
M  END
>  <MS_ID>  (1334) 
MS1387

>  <SMILES>  (1334) 
C[C@H](CCC(=O)NCN)[C@H]1CC[C@H]2[C@@H]3[C@@H](O)C[C@@H]4C[C@H](O)CC[C@]4(C)[C@H]3CC[C@]12C

>  <Structure_dimension>  (1334) 
2D

$$$$
MS1388
     RDKit          2D

 33 36  0  0  0  0  0  0  0  0999 V2000
   -4.7442   -3.3851    0.0000 C   0  0  0  0  0  0  0  0  0  0  0  0
   -4.0753   -2.0426    0.0000 C   0  0  0  0  0  0  0  0  0  0  0  0
   -4.9035   -0.7919    0.0000 C   0  0  0  0  0  0  0  0  0  0  0  0
   -6.4007   -0.8839    0.0000 C   0  0  0  0  0  0  0  0  0  0  0  0
   -7.2289    0.3667    0.0000 C   0  0  0  0  0  0  0  0  0  0  0  0
   -6.5600    1.7093    0.0000 O   0  0  0  0  0  0  0  0  0  0  0  0
   -8.7261    0.2747    0.0000 O   0  0  0  0  0  0  0  0  0  0  0  0
   -2.5781   -1.9506    0.0000 C   0  0  0  0  0  0  0  0  0  0  0  0
   -1.6237   -3.1078    0.0000 C   0  0  0  0  0  0  0  0  0  0  0  0
   -0.2282   -2.5577    0.0000 C   0  0  0  0  0  0  0  0  0  0  0  0
   -0.3202   -1.0605    0.0000 C   0  0  0  0  0  0  0  0  0  0  0  0
    0.7309    0.0097    0.0000 C   0  0  0  0  0  0  0  0  0  0  0  0
    2.1832   -0.3655    0.0000 C   0  0  0  0  0  0  0  0  0  0  0  0
    2.5845   -1.8109    0.0000 C   0  0  0  0  0  0  0  0  0  0  0  0
    4.0368   -2.1861    0.0000 C   0  0  0  0  0  0  0  0  0  0  0  0
    4.4380   -3.6314    0.0000 C   0  0  0  0  0  0  0  0  0  0  0  0
    5.8903   -4.0066    0.0000 C   0  0  0  0  0  0  0  0  0  0  0  0
    6.9414   -2.9364    0.0000 O   0  0  0  0  0  0  0  0  0  0  0  0
    6.2916   -5.4519    0.0000 O   0  0  0  0  0  0  0  0  0  0  0  0
    3.2343    0.7046    0.0000 C   0  0  0  0  0  0  0  0  0  0  0  0
    2.8331    2.1500    0.0000 C   0  0  0  0  0  0  0  0  0  0  0  0
    3.8842    3.2201    0.0000 C   0  0  0  0  0  0  0  0  0  0  0  0
    3.4829    4.6655    0.0000 C   0  0  0  0  0  0  0  0  0  0  0  0
    4.5340    5.7356    0.0000 O   0  0  0  0  0  0  0  0  0  0  0  0
    2.0306    5.0407    0.0000 C   0  0  0  0  0  0  0  0  0  0  0  0
    0.9795    3.9705    0.0000 C   0  0  0  0  0  0  0  0  0  0  0  0
    1.3807    2.5252    0.0000 C   0  0  0  0  0  0  0  0  0  0  0  0
   -0.0716    2.9003    0.0000 C   0  0  0  0  0  0  0  0  0  0  0  0
    0.3297    1.4550    0.0000 C   0  0  0  0  0  0  0  0  0  0  0  0
   -1.1227    1.8302    0.0000 C   0  0  0  0  0  0  0  0  0  0  0  0
   -2.1737    0.7600    0.0000 C   0  0  0  0  0  0  0  0  0  0  0  0
   -1.7725   -0.6853    0.0000 C   0  0  0  0  0  0  0  0  0  0  0  0
   -3.2561   -0.4640    0.0000 C   0  0  0  0  0  0  0  0  0  0  0  0
  2  1  1  6
  2  3  1  0
  3  4  1  0
  4  5  1  0
  5  6  2  0
  5  7  1  0
  2  8  1  0
  8  9  1  6
  9 10  1  0
 11 10  1  6
 11 12  1  0
 12 13  1  1
 13 14  1  1
 14 15  1  0
 15 16  2  0
 16 17  1  0
 17 18  2  0
 17 19  1  0
 13 20  1  0
 21 20  1  1
 21 22  1  0
 22 23  1  0
 23 24  1  1
 23 25  1  0
 25 26  1  0
 26 27  1  0
 27 28  1  6
 27 29  1  0
 29 30  1  6
 30 31  1  0
 31 32  1  0
 32 33  1  6
 32  8  1  0
 32 11  1  0
 29 12  1  0
 27 21  1  0
M  END
>  <MS_ID>  (1335) 
MS1388

>  <SMILES>  (1335) 
C[C@H](CCC(=O)O)[C@H]1CC[C@H]2[C@@H]3[C@H](C/C=C/C(=O)O)C[C@@H]4C[C@H](O)CC[C@]4(C)[C@H]3CC[C@]12C

>  <Structure_dimension>  (1335) 
2D

$$$$
MS1389
     RDKit          2D

 35 38  0  0  0  0  0  0  0  0999 V2000
   -1.5102   -4.3418    0.0000 C   0  0  0  0  0  0  0  0  0  0  0  0
   -0.8246   -3.0077    0.0000 C   0  0  0  0  0  0  0  0  0  0  0  0
   -1.6372   -1.7469    0.0000 C   0  0  0  0  0  0  0  0  0  0  0  0
   -3.1354   -1.8202    0.0000 C   0  0  0  0  0  0  0  0  0  0  0  0
   -3.9480   -0.5594    0.0000 C   0  0  0  0  0  0  0  0  0  0  0  0
   -3.2624    0.7748    0.0000 O   0  0  0  0  0  0  0  0  0  0  0  0
   -5.4462   -0.6327    0.0000 N   0  0  0  0  0  0  0  0  0  0  0  0
   -6.2588    0.6281    0.0000 C   0  0  0  0  0  0  0  0  0  0  0  0
   -7.7570    0.5548    0.0000 C   0  0  0  0  0  0  0  0  0  0  0  0
   -8.5696    1.8156    0.0000 N   0  0  0  0  0  0  0  0  0  0  0  0
  -10.0678    1.7423    0.0000 S   0  0  0  0  0  0  0  0  0  0  0  0
  -10.1411    3.2405    0.0000 O   0  0  0  0  0  0  0  0  0  0  0  0
   -9.9945    0.2441    0.0000 O   0  0  0  0  0  0  0  0  0  0  0  0
  -11.5660    1.6690    0.0000 O   0  0  0  0  0  0  0  0  0  0  0  0
    0.6736   -2.9344    0.0000 C   0  0  0  0  0  0  0  0  0  0  0  0
    1.6136   -4.1034    0.0000 C   0  0  0  0  0  0  0  0  0  0  0  0
    3.0158   -3.5707    0.0000 C   0  0  0  0  0  0  0  0  0  0  0  0
    2.9425   -2.0725    0.0000 C   0  0  0  0  0  0  0  0  0  0  0  0
    4.0068   -1.0155    0.0000 C   0  0  0  0  0  0  0  0  0  0  0  0
    5.4544   -1.4087    0.0000 C   0  0  0  0  0  0  0  0  0  0  0  0
    5.8376   -2.8589    0.0000 O   0  0  0  0  0  0  0  0  0  0  0  0
    6.5187   -0.3517    0.0000 C   0  0  0  0  0  0  0  0  0  0  0  0
    6.1355    1.0985    0.0000 C   0  0  0  0  0  0  0  0  0  0  0  0
    7.1998    2.1555    0.0000 C   0  0  0  0  0  0  0  0  0  0  0  0
    6.8166    3.6057    0.0000 C   0  0  0  0  0  0  0  0  0  0  0  0
    7.8809    4.6627    0.0000 O   0  0  0  0  0  0  0  0  0  0  0  0
    5.3690    3.9989    0.0000 C   0  0  0  0  0  0  0  0  0  0  0  0
    4.3047    2.9420    0.0000 C   0  0  0  0  0  0  0  0  0  0  0  0
    4.6879    1.4917    0.0000 C   0  0  0  0  0  0  0  0  0  0  0  0
    3.2404    1.8850    0.0000 C   0  0  0  0  0  0  0  0  0  0  0  0
    3.6236    0.4347    0.0000 C   0  0  0  0  0  0  0  0  0  0  0  0
    2.1761    0.8280    0.0000 C   0  0  0  0  0  0  0  0  0  0  0  0
    1.1117   -0.2290    0.0000 C   0  0  0  0  0  0  0  0  0  0  0  0
    1.4950   -1.6792    0.0000 C   0  0  0  0  0  0  0  0  0  0  0  0
    0.0142   -1.4394    0.0000 C   0  0  0  0  0  0  0  0  0  0  0  0
  2  1  1  6
  2  3  1  0
  3  4  1  0
  4  5  1  0
  5  6  2  0
  5  7  1  0
  7  8  1  0
  8  9  1  0
  9 10  1  0
 10 11  1  0
 11 12  2  0
 11 13  2  0
 11 14  1  0
  2 15  1  0
 15 16  1  6
 16 17  1  0
 18 17  1  6
 18 19  1  0
 19 20  1  1
 20 21  1  1
 20 22  1  0
 23 22  1  1
 23 24  1  0
 24 25  1  0
 25 26  1  1
 25 27  1  0
 27 28  1  0
 28 29  1  0
 29 30  1  6
 29 31  1  0
 31 32  1  6
 32 33  1  0
 33 34  1  0
 34 35  1  6
 34 15  1  0
 34 18  1  0
 31 19  1  0
 29 23  1  0
M  END
>  <MS_ID>  (1336) 
MS1389

>  <SMILES>  (1336) 
C[C@H](CCC(=O)NCCNS(=O)(=O)O)[C@H]1CC[C@H]2[C@@H]3[C@H](O)C[C@@H]4C[C@H](O)CC[C@]4(C)[C@H]3CC[C@]12C

>  <Structure_dimension>  (1336) 
2D

$$$$
MS1391
     RDKit          2D

 33 37  0  0  0  0  0  0  0  0999 V2000
   -3.4505   -3.2444    0.0000 C   0  0  0  0  0  0  0  0  0  0  0  0
   -2.4721   -2.1074    0.0000 C   0  0  0  0  0  0  0  0  0  0  0  0
   -2.9676   -0.6916    0.0000 C   0  0  0  0  0  0  0  0  0  0  0  0
   -4.4415   -0.4128    0.0000 C   0  0  0  0  0  0  0  0  0  0  0  0
   -4.9370    1.0030    0.0000 C   0  0  0  0  0  0  0  0  0  0  0  0
   -3.9586    2.1400    0.0000 O   0  0  0  0  0  0  0  0  0  0  0  0
   -6.4109    1.2817    0.0000 C   0  0  0  0  0  0  0  0  0  0  0  0
   -7.5027    0.2532    0.0000 C   0  0  0  0  0  0  0  0  0  0  0  0
   -8.8183    0.9738    0.0000 C   0  0  0  0  0  0  0  0  0  0  0  0
   -8.5395    2.4477    0.0000 C   0  0  0  0  0  0  0  0  0  0  0  0
   -7.0517    2.6380    0.0000 S   0  0  0  0  0  0  0  0  0  0  0  0
   -0.9983   -2.3862    0.0000 C   0  0  0  0  0  0  0  0  0  0  0  0
   -0.3575   -3.7424    0.0000 C   0  0  0  0  0  0  0  0  0  0  0  0
    1.1304   -3.5521    0.0000 C   0  0  0  0  0  0  0  0  0  0  0  0
    1.4092   -2.0783    0.0000 C   0  0  0  0  0  0  0  0  0  0  0  0
    2.6910   -1.2992    0.0000 C   0  0  0  0  0  0  0  0  0  0  0  0
    4.0066   -2.0198    0.0000 C   0  0  0  0  0  0  0  0  0  0  0  0
    4.0403   -3.5194    0.0000 O   0  0  0  0  0  0  0  0  0  0  0  0
    5.2884   -1.2408    0.0000 C   0  0  0  0  0  0  0  0  0  0  0  0
    5.2547    0.2589    0.0000 C   0  0  0  0  0  0  0  0  0  0  0  0
    6.5365    1.0379    0.0000 C   0  0  0  0  0  0  0  0  0  0  0  0
    6.5028    2.5375    0.0000 C   0  0  0  0  0  0  0  0  0  0  0  0
    7.7846    3.3166    0.0000 O   0  0  0  0  0  0  0  0  0  0  0  0
    5.1872    3.2581    0.0000 C   0  0  0  0  0  0  0  0  0  0  0  0
    3.9054    2.4791    0.0000 C   0  0  0  0  0  0  0  0  0  0  0  0
    3.9391    0.9794    0.0000 C   0  0  0  0  0  0  0  0  0  0  0  0
    2.6235    1.7000    0.0000 C   0  0  0  0  0  0  0  0  0  0  0  0
    2.6573    0.2004    0.0000 C   0  0  0  0  0  0  0  0  0  0  0  0
    1.3417    0.9210    0.0000 C   0  0  0  0  0  0  0  0  0  0  0  0
    0.0598    0.1420    0.0000 C   0  0  0  0  0  0  0  0  0  0  0  0
   -1.2557    0.8625    0.0000 O   0  0  0  0  0  0  0  0  0  0  0  0
    0.0936   -1.3577    0.0000 C   0  0  0  0  0  0  0  0  0  0  0  0
   -1.2901   -0.7785    0.0000 C   0  0  0  0  0  0  0  0  0  0  0  0
  2  1  1  6
  2  3  1  0
  3  4  1  0
  4  5  1  0
  5  6  2  0
  5  7  1  0
  7  8  2  0
  8  9  1  0
  9 10  2  0
 10 11  1  0
  2 12  1  0
 12 13  1  6
 13 14  1  0
 15 14  1  6
 15 16  1  0
 16 17  1  1
 17 18  1  1
 17 19  1  0
 20 19  1  1
 20 21  1  0
 21 22  1  0
 22 23  1  1
 22 24  1  0
 24 25  1  0
 25 26  1  0
 26 27  1  6
 26 28  1  0
 28 29  1  6
 29 30  1  0
 30 31  1  1
 30 32  1  0
 32 33  1  6
 11  7  1  0
 32 12  1  0
 32 15  1  0
 28 16  1  0
 26 20  1  0
M  END
>  <MS_ID>  (1337) 
MS1391

>  <SMILES>  (1337) 
C[C@H](CCC(=O)c1cccs1)[C@H]1CC[C@H]2[C@@H]3[C@H](O)C[C@@H]4C[C@H](O)CC[C@]4(C)[C@H]3C[C@H](O)[C@]12C

>  <Structure_dimension>  (1337) 
2D

$$$$
MS1392
     RDKit          2D

 29 32  0  0  0  0  0  0  0  0999 V2000
   -4.5534   -2.6812    0.0000 C   0  0  0  0  0  0  0  0  0  0  0  0
   -3.4378   -1.6786    0.0000 C   0  0  0  0  0  0  0  0  0  0  0  0
   -3.7483   -0.2111    0.0000 C   0  0  0  0  0  0  0  0  0  0  0  0
   -5.1744    0.2538    0.0000 C   0  0  0  0  0  0  0  0  0  0  0  0
   -5.4850    1.7213    0.0000 C   0  0  0  0  0  0  0  0  0  0  0  0
   -4.3693    2.7239    0.0000 O   0  0  0  0  0  0  0  0  0  0  0  0
   -6.9111    2.1861    0.0000 C   0  0  0  0  0  0  0  0  0  0  0  0
   -7.2216    3.6536    0.0000 N   0  0  0  0  0  0  0  0  0  0  0  0
   -2.0116   -2.1434    0.0000 C   0  0  0  0  0  0  0  0  0  0  0  0
   -1.5494   -3.5704    0.0000 C   0  0  0  0  0  0  0  0  0  0  0  0
   -0.0494   -3.5718    0.0000 C   0  0  0  0  0  0  0  0  0  0  0  0
    0.4155   -2.1456    0.0000 C   0  0  0  0  0  0  0  0  0  0  0  0
    1.7863   -1.5368    0.0000 C   0  0  0  0  0  0  0  0  0  0  0  0
    2.9990   -2.4196    0.0000 C   0  0  0  0  0  0  0  0  0  0  0  0
    4.3699   -1.8107    0.0000 C   0  0  0  0  0  0  0  0  0  0  0  0
    4.5281   -0.3191    0.0000 C   0  0  0  0  0  0  0  0  0  0  0  0
    5.8990    0.2898    0.0000 C   0  0  0  0  0  0  0  0  0  0  0  0
    6.0571    1.7814    0.0000 C   0  0  0  0  0  0  0  0  0  0  0  0
    7.4280    2.3902    0.0000 O   0  0  0  0  0  0  0  0  0  0  0  0
    4.8444    2.6642    0.0000 C   0  0  0  0  0  0  0  0  0  0  0  0
    3.4735    2.0553    0.0000 C   0  0  0  0  0  0  0  0  0  0  0  0
    3.3154    0.5637    0.0000 C   0  0  0  0  0  0  0  0  0  0  0  0
    2.1026    1.4465    0.0000 C   0  0  0  0  0  0  0  0  0  0  0  0
    1.9445   -0.0451    0.0000 C   0  0  0  0  0  0  0  0  0  0  0  0
    0.7318    0.8376    0.0000 C   0  0  0  0  0  0  0  0  0  0  0  0
   -0.6391    0.2288    0.0000 C   0  0  0  0  0  0  0  0  0  0  0  0
   -1.8518    1.1116    0.0000 O   0  0  0  0  0  0  0  0  0  0  0  0
   -0.7973   -1.2628    0.0000 C   0  0  0  0  0  0  0  0  0  0  0  0
   -2.0956   -0.5116    0.0000 C   0  0  0  0  0  0  0  0  0  0  0  0
  2  1  1  6
  2  3  1  0
  3  4  1  0
  4  5  1  0
  5  6  2  0
  5  7  1  0
  7  8  1  0
  2  9  1  0
  9 10  1  6
 10 11  1  0
 12 11  1  6
 12 13  1  0
 13 14  1  1
 14 15  1  0
 16 15  1  1
 16 17  1  0
 17 18  1  0
 18 19  2  0
 18 20  1  0
 20 21  1  0
 21 22  1  0
 22 23  1  6
 22 24  1  0
 24 25  1  6
 25 26  1  0
 26 27  1  1
 26 28  1  0
 28 29  1  6
 28  9  1  0
 28 12  1  0
 24 13  1  0
 22 16  1  0
M  END
>  <MS_ID>  (1338) 
MS1392

>  <SMILES>  (1338) 
C[C@H](CCC(=O)CN)[C@H]1CC[C@H]2[C@@H]3CC[C@@H]4CC(=O)CC[C@]4(C)[C@H]3C[C@H](O)[C@]12C

>  <Structure_dimension>  (1338) 
2D

$$$$
MS1393
     RDKit          2D

 34 37  0  0  0  0  0  0  0  0999 V2000
   -2.1655   -4.2826    0.0000 C   0  0  0  0  0  0  0  0  0  0  0  0
   -1.4434   -2.9679    0.0000 C   0  0  0  0  0  0  0  0  0  0  0  0
   -2.2210   -1.6852    0.0000 C   0  0  0  0  0  0  0  0  0  0  0  0
   -3.7206   -1.7172    0.0000 C   0  0  0  0  0  0  0  0  0  0  0  0
   -4.4982   -0.4345    0.0000 C   0  0  0  0  0  0  0  0  0  0  0  0
   -3.7762    0.8803    0.0000 O   0  0  0  0  0  0  0  0  0  0  0  0
   -5.9979   -0.4665    0.0000 C   0  0  0  0  0  0  0  0  0  0  0  0
   -6.7755    0.8162    0.0000 C   0  0  0  0  0  0  0  0  0  0  0  0
   -6.0534    2.1310    0.0000 O   0  0  0  0  0  0  0  0  0  0  0  0
   -8.2751    0.7841    0.0000 C   0  0  0  0  0  0  0  0  0  0  0  0
   -9.0527    2.0669    0.0000 C   0  0  0  0  0  0  0  0  0  0  0  0
   -8.3306    3.3816    0.0000 O   0  0  0  0  0  0  0  0  0  0  0  0
  -10.5524    2.0348    0.0000 O   0  0  0  0  0  0  0  0  0  0  0  0
    0.0562   -2.9358    0.0000 C   0  0  0  0  0  0  0  0  0  0  0  0
    0.9637   -4.1302    0.0000 C   0  0  0  0  0  0  0  0  0  0  0  0
    2.3800   -3.6363    0.0000 C   0  0  0  0  0  0  0  0  0  0  0  0
    2.3480   -2.1367    0.0000 C   0  0  0  0  0  0  0  0  0  0  0  0
    3.4410   -1.1094    0.0000 C   0  0  0  0  0  0  0  0  0  0  0  0
    4.8771   -1.5423    0.0000 C   0  0  0  0  0  0  0  0  0  0  0  0
    5.2203   -3.0026    0.0000 O   0  0  0  0  0  0  0  0  0  0  0  0
    5.9702   -0.5151    0.0000 C   0  0  0  0  0  0  0  0  0  0  0  0
    5.6270    0.9452    0.0000 C   0  0  0  0  0  0  0  0  0  0  0  0
    6.7200    1.9724    0.0000 C   0  0  0  0  0  0  0  0  0  0  0  0
    6.3769    3.4327    0.0000 C   0  0  0  0  0  0  0  0  0  0  0  0
    7.4699    4.4600    0.0000 O   0  0  0  0  0  0  0  0  0  0  0  0
    4.9407    3.8656    0.0000 C   0  0  0  0  0  0  0  0  0  0  0  0
    3.8477    2.8383    0.0000 C   0  0  0  0  0  0  0  0  0  0  0  0
    4.1909    1.3781    0.0000 C   0  0  0  0  0  0  0  0  0  0  0  0
    2.7547    1.8110    0.0000 C   0  0  0  0  0  0  0  0  0  0  0  0
    3.0978    0.3508    0.0000 C   0  0  0  0  0  0  0  0  0  0  0  0
    1.6617    0.7838    0.0000 C   0  0  0  0  0  0  0  0  0  0  0  0
    0.5687   -0.2435    0.0000 C   0  0  0  0  0  0  0  0  0  0  0  0
    0.9118   -1.7037    0.0000 C   0  0  0  0  0  0  0  0  0  0  0  0
   -0.5618   -1.4233    0.0000 C   0  0  0  0  0  0  0  0  0  0  0  0
  2  1  1  6
  2  3  1  0
  3  4  1  0
  4  5  1  0
  5  6  2  0
  5  7  1  0
  7  8  1  0
  8  9  2  0
  8 10  1  0
 10 11  1  0
 11 12  2  0
 11 13  1  0
  2 14  1  0
 14 15  1  6
 15 16  1  0
 17 16  1  6
 17 18  1  0
 18 19  1  1
 19 20  1  6
 19 21  1  0
 22 21  1  1
 22 23  1  0
 23 24  1  0
 24 25  1  1
 24 26  1  0
 26 27  1  0
 27 28  1  0
 28 29  1  6
 28 30  1  0
 30 31  1  6
 31 32  1  0
 32 33  1  0
 33 34  1  6
 33 14  1  0
 33 17  1  0
 30 18  1  0
 28 22  1  0
M  END
>  <MS_ID>  (1339) 
MS1393

>  <SMILES>  (1339) 
C[C@H](CCC(=O)CC(=O)CC(=O)O)[C@H]1CC[C@H]2[C@@H]3[C@@H](O)C[C@@H]4C[C@H](O)CC[C@]4(C)[C@H]3CC[C@]12C

>  <Structure_dimension>  (1339) 
2D

$$$$
MS1395
     RDKit          2D

 32 35  0  0  0  0  0  0  0  0999 V2000
   -3.6519   -3.4889    0.0000 C   0  0  0  0  0  0  0  0  0  0  0  0
   -2.7185   -2.3147    0.0000 C   0  0  0  0  0  0  0  0  0  0  0  0
   -3.2687   -0.9192    0.0000 C   0  0  0  0  0  0  0  0  0  0  0  0
   -4.7523   -0.6980    0.0000 C   0  0  0  0  0  0  0  0  0  0  0  0
   -5.3024    0.6975    0.0000 C   0  0  0  0  0  0  0  0  0  0  0  0
   -4.3690    1.8717    0.0000 O   0  0  0  0  0  0  0  0  0  0  0  0
   -6.7860    0.9188    0.0000 C   0  0  0  0  0  0  0  0  0  0  0  0
   -7.3362    2.3142    0.0000 N   0  0  0  0  0  0  0  0  0  0  0  0
   -8.8198    2.5355    0.0000 C   0  0  0  0  0  0  0  0  0  0  0  0
   -6.4028    3.4884    0.0000 C   0  0  0  0  0  0  0  0  0  0  0  0
   -1.2349   -2.5360    0.0000 C   0  0  0  0  0  0  0  0  0  0  0  0
   -0.5419   -3.8663    0.0000 C   0  0  0  0  0  0  0  0  0  0  0  0
    0.9375   -3.6183    0.0000 C   0  0  0  0  0  0  0  0  0  0  0  0
    1.1587   -2.1347    0.0000 C   0  0  0  0  0  0  0  0  0  0  0  0
    2.4093   -1.3064    0.0000 C   0  0  0  0  0  0  0  0  0  0  0  0
    3.7519   -1.9753    0.0000 C   0  0  0  0  0  0  0  0  0  0  0  0
    3.8439   -3.4725    0.0000 O   0  0  0  0  0  0  0  0  0  0  0  0
    5.0025   -1.1470    0.0000 C   0  0  0  0  0  0  0  0  0  0  0  0
    4.9105    0.3502    0.0000 C   0  0  0  0  0  0  0  0  0  0  0  0
    6.1611    1.1784    0.0000 C   0  0  0  0  0  0  0  0  0  0  0  0
    6.0690    2.6756    0.0000 C   0  0  0  0  0  0  0  0  0  0  0  0
    7.3196    3.5039    0.0000 O   0  0  0  0  0  0  0  0  0  0  0  0
    4.7264    3.3445    0.0000 C   0  0  0  0  0  0  0  0  0  0  0  0
    3.4759    2.5162    0.0000 C   0  0  0  0  0  0  0  0  0  0  0  0
    3.5679    1.0191    0.0000 C   0  0  0  0  0  0  0  0  0  0  0  0
    2.2253    1.6879    0.0000 C   0  0  0  0  0  0  0  0  0  0  0  0
    2.3173    0.1908    0.0000 C   0  0  0  0  0  0  0  0  0  0  0  0
    0.9747    0.8597    0.0000 C   0  0  0  0  0  0  0  0  0  0  0  0
   -0.2759    0.0314    0.0000 C   0  0  0  0  0  0  0  0  0  0  0  0
   -1.6185    0.7003    0.0000 O   0  0  0  0  0  0  0  0  0  0  0  0
   -0.1839   -1.4658    0.0000 C   0  0  0  0  0  0  0  0  0  0  0  0
   -1.5890   -0.9409    0.0000 C   0  0  0  0  0  0  0  0  0  0  0  0
  2  1  1  6
  2  3  1  0
  3  4  1  0
  4  5  1  0
  5  6  2  0
  5  7  1  0
  7  8  1  0
  8  9  1  0
  8 10  1  0
  2 11  1  0
 11 12  1  6
 12 13  1  0
 14 13  1  6
 14 15  1  0
 15 16  1  1
 16 17  1  1
 16 18  1  0
 19 18  1  1
 19 20  1  0
 20 21  1  0
 21 22  1  1
 21 23  1  0
 23 24  1  0
 24 25  1  0
 25 26  1  6
 25 27  1  0
 27 28  1  6
 28 29  1  0
 29 30  1  1
 29 31  1  0
 31 32  1  6
 31 11  1  0
 31 14  1  0
 27 15  1  0
 25 19  1  0
M  END
>  <MS_ID>  (1340) 
MS1395

>  <SMILES>  (1340) 
C[C@H](CCC(=O)CN(C)C)[C@H]1CC[C@H]2[C@@H]3[C@H](O)C[C@@H]4C[C@H](O)CC[C@]4(C)[C@H]3C[C@H](O)[C@]12C

>  <Structure_dimension>  (1340) 
2D

$$$$
MS1396
     RDKit          2D

 33 36  0  0  0  0  0  0  0  0999 V2000
   -2.9210   -4.0382    0.0000 C   0  0  0  0  0  0  0  0  0  0  0  0
   -2.0654   -2.8062    0.0000 C   0  0  0  0  0  0  0  0  0  0  0  0
   -2.7045   -1.4491    0.0000 C   0  0  0  0  0  0  0  0  0  0  0  0
   -4.1993   -1.3241    0.0000 C   0  0  0  0  0  0  0  0  0  0  0  0
   -4.8384    0.0329    0.0000 C   0  0  0  0  0  0  0  0  0  0  0  0
   -3.9827    1.2649    0.0000 O   0  0  0  0  0  0  0  0  0  0  0  0
   -6.3332    0.1579    0.0000 N   0  0  0  0  0  0  0  0  0  0  0  0
   -6.9723    1.5149    0.0000 C   0  0  0  0  0  0  0  0  0  0  0  0
   -8.4671    1.6400    0.0000 C   0  0  0  0  0  0  0  0  0  0  0  0
   -6.1167    2.7470    0.0000 C   0  0  0  0  0  0  0  0  0  0  0  0
   -4.6219    2.6219    0.0000 O   0  0  0  0  0  0  0  0  0  0  0  0
   -6.7558    4.1040    0.0000 O   0  0  0  0  0  0  0  0  0  0  0  0
   -0.5706   -2.9312    0.0000 C   0  0  0  0  0  0  0  0  0  0  0  0
    0.2069   -4.2139    0.0000 C   0  0  0  0  0  0  0  0  0  0  0  0
    1.6671   -3.8709    0.0000 C   0  0  0  0  0  0  0  0  0  0  0  0
    1.7922   -2.3761    0.0000 C   0  0  0  0  0  0  0  0  0  0  0  0
    2.9866   -1.4688    0.0000 C   0  0  0  0  0  0  0  0  0  0  0  0
    4.3696   -2.0497    0.0000 C   0  0  0  0  0  0  0  0  0  0  0  0
    5.5641   -1.1424    0.0000 C   0  0  0  0  0  0  0  0  0  0  0  0
    5.3756    0.3458    0.0000 C   0  0  0  0  0  0  0  0  0  0  0  0
    6.5701    1.2531    0.0000 C   0  0  0  0  0  0  0  0  0  0  0  0
    6.3816    2.7412    0.0000 C   0  0  0  0  0  0  0  0  0  0  0  0
    7.5761    3.6485    0.0000 O   0  0  0  0  0  0  0  0  0  0  0  0
    4.9986    3.3220    0.0000 C   0  0  0  0  0  0  0  0  0  0  0  0
    3.8041    2.4147    0.0000 C   0  0  0  0  0  0  0  0  0  0  0  0
    3.9926    0.9266    0.0000 C   0  0  0  0  0  0  0  0  0  0  0  0
    2.6096    1.5074    0.0000 C   0  0  0  0  0  0  0  0  0  0  0  0
    2.7981    0.0193    0.0000 C   0  0  0  0  0  0  0  0  0  0  0  0
    1.4151    0.6001    0.0000 C   0  0  0  0  0  0  0  0  0  0  0  0
    0.2207   -0.3072    0.0000 C   0  0  0  0  0  0  0  0  0  0  0  0
   -1.1623    0.2736    0.0000 O   0  0  0  0  0  0  0  0  0  0  0  0
    0.4092   -1.7953    0.0000 C   0  0  0  0  0  0  0  0  0  0  0  0
   -1.0270   -1.3623    0.0000 C   0  0  0  0  0  0  0  0  0  0  0  0
  2  1  1  6
  2  3  1  0
  3  4  1  0
  4  5  1  0
  5  6  2  0
  5  7  1  0
  7  8  1  0
  8  9  1  6
  8 10  1  0
 10 11  2  0
 10 12  1  0
  2 13  1  0
 13 14  1  6
 14 15  1  0
 16 15  1  6
 16 17  1  0
 17 18  1  1
 18 19  1  0
 20 19  1  1
 20 21  1  0
 21 22  1  0
 22 23  1  1
 22 24  1  0
 24 25  1  0
 25 26  1  0
 26 27  1  6
 26 28  1  0
 28 29  1  6
 29 30  1  0
 30 31  1  1
 30 32  1  0
 32 33  1  6
 32 13  1  0
 32 16  1  0
 28 17  1  0
 26 20  1  0
M  END
>  <MS_ID>  (1341) 
MS1396

>  <SMILES>  (1341) 
C[C@H](CCC(=O)N[C@H](C)C(=O)O)[C@H]1CC[C@H]2[C@@H]3CC[C@@H]4C[C@H](O)CC[C@]4(C)[C@H]3C[C@H](O)[C@]12C

>  <Structure_dimension>  (1341) 
2D

$$$$
MS1398
     RDKit          2D

 30 33  0  0  0  0  0  0  0  0999 V2000
   -5.0361   -2.2421    0.0000 C   0  0  0  0  0  0  0  0  0  0  0  0
   -3.9151   -1.2454    0.0000 C   0  0  0  0  0  0  0  0  0  0  0  0
   -4.2177    0.2237    0.0000 C   0  0  0  0  0  0  0  0  0  0  0  0
   -5.6413    0.6963    0.0000 C   0  0  0  0  0  0  0  0  0  0  0  0
   -5.9439    2.1654    0.0000 C   0  0  0  0  0  0  0  0  0  0  0  0
   -4.8228    3.1621    0.0000 O   0  0  0  0  0  0  0  0  0  0  0  0
   -7.3675    2.6380    0.0000 O   0  0  0  0  0  0  0  0  0  0  0  0
   -2.4915   -1.7180    0.0000 C   0  0  0  0  0  0  0  0  0  0  0  0
   -2.0370   -3.1475    0.0000 C   0  0  0  0  0  0  0  0  0  0  0  0
   -0.5370   -3.1570    0.0000 C   0  0  0  0  0  0  0  0  0  0  0  0
   -0.0645   -1.7333    0.0000 C   0  0  0  0  0  0  0  0  0  0  0  0
    1.3097   -1.1319    0.0000 C   0  0  0  0  0  0  0  0  0  0  0  0
    2.5176   -2.0213    0.0000 C   0  0  0  0  0  0  0  0  0  0  0  0
    2.3514   -3.5120    0.0000 O   0  0  0  0  0  0  0  0  0  0  0  0
    3.5593   -4.4014    0.0000 Br  0  0  0  0  0  0  0  0  0  0  0  0
    3.8918   -1.4198    0.0000 C   0  0  0  0  0  0  0  0  0  0  0  0
    4.0580    0.0709    0.0000 C   0  0  0  0  0  0  0  0  0  0  0  0
    5.4321    0.6723    0.0000 C   0  0  0  0  0  0  0  0  0  0  0  0
    5.5984    2.1631    0.0000 C   0  0  0  0  0  0  0  0  0  0  0  0
    6.9725    2.7645    0.0000 O   0  0  0  0  0  0  0  0  0  0  0  0
    4.3904    3.0524    0.0000 C   0  0  0  0  0  0  0  0  0  0  0  0
    3.0163    2.4510    0.0000 C   0  0  0  0  0  0  0  0  0  0  0  0
    2.8501    0.9603    0.0000 C   0  0  0  0  0  0  0  0  0  0  0  0
    1.6421    1.8496    0.0000 C   0  0  0  0  0  0  0  0  0  0  0  0
    1.4759    0.3588    0.0000 C   0  0  0  0  0  0  0  0  0  0  0  0
    0.2680    1.2482    0.0000 C   0  0  0  0  0  0  0  0  0  0  0  0
   -1.1062    0.6468    0.0000 C   0  0  0  0  0  0  0  0  0  0  0  0
   -2.3141    1.5361    0.0000 O   0  0  0  0  0  0  0  0  0  0  0  0
   -1.2724   -0.8440    0.0000 C   0  0  0  0  0  0  0  0  0  0  0  0
   -2.5667   -0.0858    0.0000 C   0  0  0  0  0  0  0  0  0  0  0  0
  2  1  1  6
  2  3  1  0
  3  4  1  0
  4  5  1  0
  5  6  2  0
  5  7  1  0
  2  8  1  0
  8  9  1  6
  9 10  1  0
 11 10  1  6
 11 12  1  0
 12 13  1  1
 13 14  1  1
 14 15  1  0
 13 16  1  0
 17 16  1  1
 17 18  1  0
 18 19  1  0
 19 20  1  1
 19 21  1  0
 21 22  1  0
 22 23  1  0
 23 24  1  6
 23 25  1  0
 25 26  1  6
 26 27  1  0
 27 28  1  1
 27 29  1  0
 29 30  1  6
 29  8  1  0
 29 11  1  0
 25 12  1  0
 23 17  1  0
M  END
>  <MS_ID>  (1342) 
MS1398

>  <SMILES>  (1342) 
C[C@H](CCC(=O)O)[C@H]1CC[C@H]2[C@@H]3[C@H](OBr)C[C@@H]4C[C@H](O)CC[C@]4(C)[C@H]3C[C@H](O)[C@]12C

>  <Structure_dimension>  (1342) 
2D

$$$$
MS1399
     RDKit          2D

 31 34  0  0  0  0  0  0  0  0999 V2000
   -3.7132   -3.4566    0.0000 C   0  0  0  0  0  0  0  0  0  0  0  0
   -2.7767   -2.2848    0.0000 C   0  0  0  0  0  0  0  0  0  0  0  0
   -3.3232   -0.8879    0.0000 C   0  0  0  0  0  0  0  0  0  0  0  0
   -4.8062   -0.6628    0.0000 C   0  0  0  0  0  0  0  0  0  0  0  0
   -5.3527    0.7341    0.0000 C   0  0  0  0  0  0  0  0  0  0  0  0
   -4.4162    1.9059    0.0000 O   0  0  0  0  0  0  0  0  0  0  0  0
   -6.8357    0.9593    0.0000 O   0  0  0  0  0  0  0  0  0  0  0  0
   -7.3822    2.3562    0.0000 C   0  0  0  0  0  0  0  0  0  0  0  0
   -8.8652    2.5814    0.0000 C   0  0  0  0  0  0  0  0  0  0  0  0
   -6.4457    3.5279    0.0000 O   0  0  0  0  0  0  0  0  0  0  0  0
   -1.2937   -2.5100    0.0000 C   0  0  0  0  0  0  0  0  0  0  0  0
   -0.6042   -3.8421    0.0000 C   0  0  0  0  0  0  0  0  0  0  0  0
    0.8758   -3.5980    0.0000 C   0  0  0  0  0  0  0  0  0  0  0  0
    1.1010   -2.1150    0.0000 C   0  0  0  0  0  0  0  0  0  0  0  0
    2.3537   -1.2900    0.0000 C   0  0  0  0  0  0  0  0  0  0  0  0
    3.6946   -1.9624    0.0000 C   0  0  0  0  0  0  0  0  0  0  0  0
    3.7827   -3.4598    0.0000 O   0  0  0  0  0  0  0  0  0  0  0  0
    4.9473   -1.1374    0.0000 C   0  0  0  0  0  0  0  0  0  0  0  0
    4.8592    0.3600    0.0000 C   0  0  0  0  0  0  0  0  0  0  0  0
    6.1120    1.1850    0.0000 C   0  0  0  0  0  0  0  0  0  0  0  0
    6.0239    2.6824    0.0000 C   0  0  0  0  0  0  0  0  0  0  0  0
    7.2767    3.5074    0.0000 O   0  0  0  0  0  0  0  0  0  0  0  0
    4.6831    3.3548    0.0000 C   0  0  0  0  0  0  0  0  0  0  0  0
    3.4303    2.5298    0.0000 C   0  0  0  0  0  0  0  0  0  0  0  0
    3.5184    1.0324    0.0000 C   0  0  0  0  0  0  0  0  0  0  0  0
    2.1776    1.7048    0.0000 C   0  0  0  0  0  0  0  0  0  0  0  0
    2.2656    0.2074    0.0000 C   0  0  0  0  0  0  0  0  0  0  0  0
    0.9248    0.8798    0.0000 C   0  0  0  0  0  0  0  0  0  0  0  0
   -0.3279    0.0548    0.0000 C   0  0  0  0  0  0  0  0  0  0  0  0
   -0.2399   -1.4426    0.0000 C   0  0  0  0  0  0  0  0  0  0  0  0
   -1.6436   -0.9140    0.0000 C   0  0  0  0  0  0  0  0  0  0  0  0
  2  1  1  6
  2  3  1  0
  3  4  1  0
  4  5  1  0
  5  6  2  0
  5  7  1  0
  7  8  1  0
  8  9  1  1
  8 10  1  0
  2 11  1  0
 11 12  1  6
 12 13  1  0
 14 13  1  6
 14 15  1  0
 15 16  1  1
 16 17  1  1
 16 18  1  0
 19 18  1  1
 19 20  1  0
 20 21  1  0
 21 22  1  1
 21 23  1  0
 23 24  1  0
 24 25  1  0
 25 26  1  6
 25 27  1  0
 27 28  1  6
 28 29  1  0
 29 30  1  0
 30 31  1  6
 30 11  1  0
 30 14  1  0
 27 15  1  0
 25 19  1  0
M  END
>  <MS_ID>  (1343) 
MS1399

>  <SMILES>  (1343) 
C[C@H](CCC(=O)O[C@@H](C)O)[C@H]1CC[C@H]2[C@@H]3[C@H](O)C[C@@H]4C[C@H](O)CC[C@]4(C)[C@H]3CC[C@]12C

>  <Structure_dimension>  (1343) 
2D

$$$$
MS1400
     RDKit          2D

 31 34  0  0  0  0  0  0  0  0999 V2000
   -4.0024   -3.4860    0.0000 C   0  0  0  0  0  0  0  0  0  0  0  0
   -3.0477   -2.3291    0.0000 C   0  0  0  0  0  0  0  0  0  0  0  0
   -3.5723   -0.9238    0.0000 C   0  0  0  0  0  0  0  0  0  0  0  0
   -5.0516   -0.6754    0.0000 C   0  0  0  0  0  0  0  0  0  0  0  0
   -5.5761    0.7298    0.0000 C   0  0  0  0  0  0  0  0  0  0  0  0
   -7.0554    0.9782    0.0000 O   0  0  0  0  0  0  0  0  0  0  0  0
   -4.6214    1.8868    0.0000 O   0  0  0  0  0  0  0  0  0  0  0  0
   -5.1460    3.2921    0.0000 C   0  0  0  0  0  0  0  0  0  0  0  0
   -4.1913    4.4490    0.0000 O   0  0  0  0  0  0  0  0  0  0  0  0
   -6.6253    3.5404    0.0000 Cl  0  0  0  0  0  0  0  0  0  0  0  0
   -1.5684   -2.5774    0.0000 C   0  0  0  0  0  0  0  0  0  0  0  0
   -0.8998   -3.9201    0.0000 C   0  0  0  0  0  0  0  0  0  0  0  0
    0.5839   -3.6992    0.0000 C   0  0  0  0  0  0  0  0  0  0  0  0
    0.8322   -2.2199    0.0000 C   0  0  0  0  0  0  0  0  0  0  0  0
    2.0977   -1.4146    0.0000 C   0  0  0  0  0  0  0  0  0  0  0  0
    3.4279   -2.1079    0.0000 C   0  0  0  0  0  0  0  0  0  0  0  0
    3.4925   -3.6065    0.0000 O   0  0  0  0  0  0  0  0  0  0  0  0
    4.6934   -1.3026    0.0000 C   0  0  0  0  0  0  0  0  0  0  0  0
    4.6287    0.1960    0.0000 C   0  0  0  0  0  0  0  0  0  0  0  0
    5.8942    1.0013    0.0000 C   0  0  0  0  0  0  0  0  0  0  0  0
    5.8296    2.4999    0.0000 C   0  0  0  0  0  0  0  0  0  0  0  0
    7.0951    3.3052    0.0000 O   0  0  0  0  0  0  0  0  0  0  0  0
    4.4994    3.1932    0.0000 C   0  0  0  0  0  0  0  0  0  0  0  0
    3.2339    2.3879    0.0000 C   0  0  0  0  0  0  0  0  0  0  0  0
    3.2986    0.8893    0.0000 C   0  0  0  0  0  0  0  0  0  0  0  0
    1.9684    1.5826    0.0000 C   0  0  0  0  0  0  0  0  0  0  0  0
    2.0331    0.0840    0.0000 C   0  0  0  0  0  0  0  0  0  0  0  0
    0.7029    0.7773    0.0000 C   0  0  0  0  0  0  0  0  0  0  0  0
   -0.5626   -0.0280    0.0000 C   0  0  0  0  0  0  0  0  0  0  0  0
   -0.4979   -1.5266    0.0000 C   0  0  0  0  0  0  0  0  0  0  0  0
   -1.8933   -0.9761    0.0000 C   0  0  0  0  0  0  0  0  0  0  0  0
  2  1  1  6
  2  3  1  0
  3  4  1  0
  4  5  1  0
  5  6  2  0
  5  7  1  0
  7  8  1  0
  8  9  2  0
  8 10  1  0
  2 11  1  0
 11 12  1  6
 12 13  1  0
 14 13  1  6
 14 15  1  0
 15 16  1  1
 16 17  1  6
 16 18  1  0
 19 18  1  1
 19 20  1  0
 20 21  1  0
 21 22  1  1
 21 23  1  0
 23 24  1  0
 24 25  1  0
 25 26  1  6
 25 27  1  0
 27 28  1  6
 28 29  1  0
 29 30  1  0
 30 31  1  6
 30 11  1  0
 30 14  1  0
 27 15  1  0
 25 19  1  0
M  END
>  <MS_ID>  (1344) 
MS1400

>  <SMILES>  (1344) 
C[C@H](CCC(=O)OC(=O)Cl)[C@H]1CC[C@H]2[C@@H]3[C@@H](O)C[C@@H]4C[C@H](O)CC[C@]4(C)[C@H]3CC[C@]12C

>  <Structure_dimension>  (1344) 
2D

$$$$
MS1401
     RDKit          2D

 33 37  0  0  0  0  0  0  0  0999 V2000
   -2.6982   -4.1233    0.0000 C   0  0  0  0  0  0  0  0  0  0  0  0
   -1.9222   -2.8397    0.0000 C   0  0  0  0  0  0  0  0  0  0  0  0
   -2.6459   -1.5258    0.0000 C   0  0  0  0  0  0  0  0  0  0  0  0
   -4.1456   -1.4956    0.0000 C   0  0  0  0  0  0  0  0  0  0  0  0
   -4.8692   -0.1817    0.0000 C   0  0  0  0  0  0  0  0  0  0  0  0
   -4.0932    1.1020    0.0000 O   0  0  0  0  0  0  0  0  0  0  0  0
   -6.3689   -0.1514    0.0000 C   0  0  0  0  0  0  0  0  0  0  0  0
   -7.0926    1.1625    0.0000 N   0  0  0  0  0  0  0  0  0  0  0  0
   -8.5809    1.3493    0.0000 C   0  0  0  0  0  0  0  0  0  0  0  0
   -8.8631    2.8225    0.0000 C   0  0  0  0  0  0  0  0  0  0  0  0
   -7.5492    3.5462    0.0000 N   0  0  0  0  0  0  0  0  0  0  0  0
   -6.4550    2.5202    0.0000 C   0  0  0  0  0  0  0  0  0  0  0  0
   -0.4225   -2.8699    0.0000 C   0  0  0  0  0  0  0  0  0  0  0  0
    0.4345   -4.1010    0.0000 C   0  0  0  0  0  0  0  0  0  0  0  0
    1.8702   -3.6663    0.0000 C   0  0  0  0  0  0  0  0  0  0  0  0
    1.9004   -2.1666    0.0000 C   0  0  0  0  0  0  0  0  0  0  0  0
    3.0351   -1.1856    0.0000 C   0  0  0  0  0  0  0  0  0  0  0  0
    4.4521   -1.6778    0.0000 C   0  0  0  0  0  0  0  0  0  0  0  0
    4.7343   -3.1510    0.0000 O   0  0  0  0  0  0  0  0  0  0  0  0
    5.5868   -0.6967    0.0000 C   0  0  0  0  0  0  0  0  0  0  0  0
    5.3046    0.7765    0.0000 C   0  0  0  0  0  0  0  0  0  0  0  0
    6.4393    1.7575    0.0000 C   0  0  0  0  0  0  0  0  0  0  0  0
    6.1571    3.2307    0.0000 C   0  0  0  0  0  0  0  0  0  0  0  0
    7.2918    4.2117    0.0000 O   0  0  0  0  0  0  0  0  0  0  0  0
    4.7401    3.7229    0.0000 C   0  0  0  0  0  0  0  0  0  0  0  0
    3.6054    2.7419    0.0000 C   0  0  0  0  0  0  0  0  0  0  0  0
    3.8876    1.2687    0.0000 C   0  0  0  0  0  0  0  0  0  0  0  0
    2.4707    1.7609    0.0000 C   0  0  0  0  0  0  0  0  0  0  0  0
    2.7529    0.2876    0.0000 C   0  0  0  0  0  0  0  0  0  0  0  0
    1.3360    0.7798    0.0000 C   0  0  0  0  0  0  0  0  0  0  0  0
    0.2012   -0.2012    0.0000 C   0  0  0  0  0  0  0  0  0  0  0  0
    0.4835   -1.6744    0.0000 C   0  0  0  0  0  0  0  0  0  0  0  0
   -0.9772   -1.3330    0.0000 C   0  0  0  0  0  0  0  0  0  0  0  0
  2  1  1  6
  2  3  1  0
  3  4  1  0
  4  5  1  0
  5  6  2  0
  5  7  1  0
  7  8  1  0
  8  9  1  0
  9 10  2  0
 10 11  1  0
 11 12  2  0
  2 13  1  0
 13 14  1  6
 14 15  1  0
 16 15  1  6
 16 17  1  0
 17 18  1  1
 18 19  1  1
 18 20  1  0
 21 20  1  1
 21 22  1  0
 22 23  1  0
 23 24  1  1
 23 25  1  0
 25 26  1  0
 26 27  1  0
 27 28  1  6
 27 29  1  0
 29 30  1  6
 30 31  1  0
 31 32  1  0
 32 33  1  6
 12  8  1  0
 32 13  1  0
 32 16  1  0
 29 17  1  0
 27 21  1  0
M  END
>  <MS_ID>  (1345) 
MS1401

>  <SMILES>  (1345) 
C[C@H](CCC(=O)Cn1ccnc1)[C@H]1CC[C@H]2[C@@H]3[C@H](O)C[C@@H]4C[C@H](O)CC[C@]4(C)[C@H]3CC[C@]12C

>  <Structure_dimension>  (1345) 
2D

$$$$
MS1403
     RDKit          2D

 29 32  0  0  0  0  0  0  0  0999 V2000
   -5.0303   -2.1373    0.0000 C   0  0  0  0  0  0  0  0  0  0  0  0
   -3.8594   -1.1998    0.0000 C   0  0  0  0  0  0  0  0  0  0  0  0
   -4.0858    0.2830    0.0000 C   0  0  0  0  0  0  0  0  0  0  0  0
   -5.4831    0.8284    0.0000 C   0  0  0  0  0  0  0  0  0  0  0  0
   -5.7095    2.3112    0.0000 C   0  0  0  0  0  0  0  0  0  0  0  0
   -4.5386    3.2487    0.0000 O   0  0  0  0  0  0  0  0  0  0  0  0
   -7.1069    2.8565    0.0000 O   0  0  0  0  0  0  0  0  0  0  0  0
   -2.4620   -1.7451    0.0000 C   0  0  0  0  0  0  0  0  0  0  0  0
   -2.0818   -3.1961    0.0000 C   0  0  0  0  0  0  0  0  0  0  0  0
   -0.5844   -3.2830    0.0000 C   0  0  0  0  0  0  0  0  0  0  0  0
   -0.0390   -1.8856    0.0000 C   0  0  0  0  0  0  0  0  0  0  0  0
    1.3643   -1.3559    0.0000 C   0  0  0  0  0  0  0  0  0  0  0  0
    2.5248   -2.3063    0.0000 C   0  0  0  0  0  0  0  0  0  0  0  0
    2.2819   -3.7865    0.0000 O   0  0  0  0  0  0  0  0  0  0  0  0
    3.9281   -1.7765    0.0000 C   0  0  0  0  0  0  0  0  0  0  0  0
    4.1710   -0.2963    0.0000 C   0  0  0  0  0  0  0  0  0  0  0  0
    5.5743    0.2334    0.0000 C   0  0  0  0  0  0  0  0  0  0  0  0
    5.8172    1.7136    0.0000 C   0  0  0  0  0  0  0  0  0  0  0  0
    7.2205    2.2434    0.0000 O   0  0  0  0  0  0  0  0  0  0  0  0
    4.6568    2.6641    0.0000 C   0  0  0  0  0  0  0  0  0  0  0  0
    3.2534    2.1343    0.0000 C   0  0  0  0  0  0  0  0  0  0  0  0
    3.0105    0.6541    0.0000 C   0  0  0  0  0  0  0  0  0  0  0  0
    1.8501    1.6046    0.0000 C   0  0  0  0  0  0  0  0  0  0  0  0
    1.6072    0.1244    0.0000 C   0  0  0  0  0  0  0  0  0  0  0  0
    0.4467    1.0748    0.0000 C   0  0  0  0  0  0  0  0  0  0  0  0
   -0.9566    0.5450    0.0000 C   0  0  0  0  0  0  0  0  0  0  0  0
   -2.1170    1.4955    0.0000 C   0  0  0  0  0  0  0  0  0  0  0  0
   -1.1995   -0.9352    0.0000 C   0  0  0  0  0  0  0  0  0  0  0  0
   -2.4529   -0.1112    0.0000 C   0  0  0  0  0  0  0  0  0  0  0  0
  2  1  1  6
  2  3  1  0
  3  4  1  0
  4  5  1  0
  5  6  2  0
  5  7  1  0
  2  8  1  0
  8  9  1  6
  9 10  1  0
 11 10  1  6
 11 12  1  0
 12 13  1  1
 13 14  1  1
 13 15  1  0
 16 15  1  1
 16 17  1  0
 17 18  1  0
 18 19  1  1
 18 20  1  0
 20 21  1  0
 21 22  1  0
 22 23  1  6
 22 24  1  0
 24 25  1  6
 25 26  1  0
 26 27  1  1
 26 28  1  0
 28 29  1  6
 28  8  1  0
 28 11  1  0
 24 12  1  0
 22 16  1  0
M  END
>  <MS_ID>  (1346) 
MS1403

>  <SMILES>  (1346) 
C[C@H](CCC(=O)O)[C@H]1CC[C@H]2[C@@H]3[C@H](O)C[C@@H]4C[C@H](O)CC[C@]4(C)[C@H]3C[C@H](C)[C@]12C

>  <Structure_dimension>  (1346) 
2D

$$$$
MS1404
     RDKit          2D

 35 38  0  0  0  0  0  0  0  0999 V2000
   -2.1548   -4.1626    0.0000 C   0  0  0  0  0  0  0  0  0  0  0  0
   -1.4021   -2.8651    0.0000 C   0  0  0  0  0  0  0  0  0  0  0  0
   -2.1494   -1.5645    0.0000 C   0  0  0  0  0  0  0  0  0  0  0  0
   -3.6494   -1.5614    0.0000 C   0  0  0  0  0  0  0  0  0  0  0  0
   -4.3967   -0.2608    0.0000 C   0  0  0  0  0  0  0  0  0  0  0  0
   -3.6439    1.0367    0.0000 O   0  0  0  0  0  0  0  0  0  0  0  0
   -5.8967   -0.2577    0.0000 N   0  0  0  0  0  0  0  0  0  0  0  0
   -6.6439    1.0430    0.0000 C   0  0  0  0  0  0  0  0  0  0  0  0
   -8.1439    1.0461    0.0000 C   0  0  0  0  0  0  0  0  0  0  0  0
   -8.8967   -0.2514    0.0000 O   0  0  0  0  0  0  0  0  0  0  0  0
   -8.8912    2.3467    0.0000 C   0  0  0  0  0  0  0  0  0  0  0  0
   -8.1385    3.6442    0.0000 O   0  0  0  0  0  0  0  0  0  0  0  0
  -10.3912    2.3498    0.0000 O   0  0  0  0  0  0  0  0  0  0  0  0
    0.0979   -2.8683    0.0000 C   0  0  0  0  0  0  0  0  0  0  0  0
    0.9770   -4.0836    0.0000 C   0  0  0  0  0  0  0  0  0  0  0  0
    2.4046   -3.6231    0.0000 C   0  0  0  0  0  0  0  0  0  0  0  0
    2.4077   -2.1231    0.0000 C   0  0  0  0  0  0  0  0  0  0  0  0
    3.5245   -1.1217    0.0000 C   0  0  0  0  0  0  0  0  0  0  0  0
    4.9501   -1.5883    0.0000 C   0  0  0  0  0  0  0  0  0  0  0  0
    5.2589   -3.0561    0.0000 O   0  0  0  0  0  0  0  0  0  0  0  0
    6.0670   -0.5869    0.0000 C   0  0  0  0  0  0  0  0  0  0  0  0
    5.7582    0.8810    0.0000 C   0  0  0  0  0  0  0  0  0  0  0  0
    6.8750    1.8823    0.0000 C   0  0  0  0  0  0  0  0  0  0  0  0
    6.5662    3.3502    0.0000 C   0  0  0  0  0  0  0  0  0  0  0  0
    7.6830    4.3516    0.0000 O   0  0  0  0  0  0  0  0  0  0  0  0
    5.1406    3.8167    0.0000 C   0  0  0  0  0  0  0  0  0  0  0  0
    4.0238    2.8154    0.0000 C   0  0  0  0  0  0  0  0  0  0  0  0
    4.3326    1.3475    0.0000 C   0  0  0  0  0  0  0  0  0  0  0  0
    2.9069    1.8140    0.0000 C   0  0  0  0  0  0  0  0  0  0  0  0
    3.2157    0.3461    0.0000 C   0  0  0  0  0  0  0  0  0  0  0  0
    1.7901    0.8126    0.0000 C   0  0  0  0  0  0  0  0  0  0  0  0
    0.6733   -0.1887    0.0000 C   0  0  0  0  0  0  0  0  0  0  0  0
   -0.7523    0.2778    0.0000 O   0  0  0  0  0  0  0  0  0  0  0  0
    0.9821   -1.6566    0.0000 C   0  0  0  0  0  0  0  0  0  0  0  0
   -0.4845   -1.3417    0.0000 C   0  0  0  0  0  0  0  0  0  0  0  0
  2  1  1  6
  2  3  1  0
  3  4  1  0
  4  5  1  0
  5  6  2  0
  5  7  1  0
  7  8  1  0
  8  9  1  0
  9 10  1  6
  9 11  1  0
 11 12  2  0
 11 13  1  0
  2 14  1  0
 14 15  1  6
 15 16  1  0
 17 16  1  6
 17 18  1  0
 18 19  1  1
 19 20  1  1
 19 21  1  0
 22 21  1  1
 22 23  1  0
 23 24  1  0
 24 25  1  1
 24 26  1  0
 26 27  1  0
 27 28  1  0
 28 29  1  6
 28 30  1  0
 30 31  1  6
 31 32  1  0
 32 33  1  1
 32 34  1  0
 34 35  1  6
 34 14  1  0
 34 17  1  0
 30 18  1  0
 28 22  1  0
M  END
>  <MS_ID>  (1347) 
MS1404

>  <SMILES>  (1347) 
C[C@H](CCC(=O)NC[C@H](O)C(=O)O)[C@H]1CC[C@H]2[C@@H]3[C@H](O)C[C@@H]4C[C@H](O)CC[C@]4(C)[C@H]3C[C@H](O)[C@]12C

>  <Structure_dimension>  (1347) 
2D

$$$$
MS1405
     RDKit          2D

 28 31  0  0  0  0  0  0  0  0999 V2000
   -5.2870   -1.7591    0.0000 C   0  0  0  0  0  0  0  0  0  0  0  0
   -4.0706   -0.8813    0.0000 C   0  0  0  0  0  0  0  0  0  0  0  0
   -4.2226    0.6109    0.0000 C   0  0  0  0  0  0  0  0  0  0  0  0
   -5.5910    1.2255    0.0000 C   0  0  0  0  0  0  0  0  0  0  0  0
   -5.7429    2.7177    0.0000 C   0  0  0  0  0  0  0  0  0  0  0  0
   -7.1113    3.3322    0.0000 O   0  0  0  0  0  0  0  0  0  0  0  0
   -2.7023   -1.4959    0.0000 C   0  0  0  0  0  0  0  0  0  0  0  0
   -2.3951   -2.9641    0.0000 C   0  0  0  0  0  0  0  0  0  0  0  0
   -0.9039   -3.1257    0.0000 C   0  0  0  0  0  0  0  0  0  0  0  0
   -0.2893   -1.7573    0.0000 C   0  0  0  0  0  0  0  0  0  0  0  0
    1.1387   -1.2984    0.0000 C   0  0  0  0  0  0  0  0  0  0  0  0
    2.2502   -2.3057    0.0000 C   0  0  0  0  0  0  0  0  0  0  0  0
    1.9336   -3.7719    0.0000 O   0  0  0  0  0  0  0  0  0  0  0  0
    3.6783   -1.8467    0.0000 C   0  0  0  0  0  0  0  0  0  0  0  0
    3.9949   -0.3805    0.0000 C   0  0  0  0  0  0  0  0  0  0  0  0
    5.4229    0.0784    0.0000 C   0  0  0  0  0  0  0  0  0  0  0  0
    5.7395    1.5446    0.0000 C   0  0  0  0  0  0  0  0  0  0  0  0
    7.1676    2.0035    0.0000 O   0  0  0  0  0  0  0  0  0  0  0  0
    4.6280    2.5519    0.0000 C   0  0  0  0  0  0  0  0  0  0  0  0
    3.2000    2.0930    0.0000 C   0  0  0  0  0  0  0  0  0  0  0  0
    2.8834    0.6267    0.0000 C   0  0  0  0  0  0  0  0  0  0  0  0
    1.7719    1.6340    0.0000 C   0  0  0  0  0  0  0  0  0  0  0  0
    1.4553    0.1678    0.0000 C   0  0  0  0  0  0  0  0  0  0  0  0
    0.3438    1.1751    0.0000 C   0  0  0  0  0  0  0  0  0  0  0  0
   -1.0842    0.7162    0.0000 C   0  0  0  0  0  0  0  0  0  0  0  0
   -2.1957    1.7234    0.0000 O   0  0  0  0  0  0  0  0  0  0  0  0
   -1.4008   -0.7500    0.0000 C   0  0  0  0  0  0  0  0  0  0  0  0
   -2.6115    0.1355    0.0000 C   0  0  0  0  0  0  0  0  0  0  0  0
  2  1  1  6
  2  3  1  0
  3  4  1  0
  4  5  1  0
  5  6  2  0
  2  7  1  0
  7  8  1  6
  8  9  1  0
 10  9  1  6
 10 11  1  0
 11 12  1  1
 12 13  1  6
 12 14  1  0
 15 14  1  1
 15 16  1  0
 16 17  1  0
 17 18  1  6
 17 19  1  0
 19 20  1  0
 20 21  1  0
 21 22  1  6
 21 23  1  0
 23 24  1  6
 24 25  1  0
 25 26  1  1
 25 27  1  0
 27 28  1  6
 27  7  1  0
 27 10  1  0
 23 11  1  0
 21 15  1  0
M  END
>  <MS_ID>  (1348) 
MS1405

>  <SMILES>  (1348) 
C[C@H](CCC=O)[C@H]1CC[C@H]2[C@@H]3[C@@H](O)C[C@@H]4C[C@@H](O)CC[C@]4(C)[C@H]3C[C@H](O)[C@]12C

>  <Structure_dimension>  (1348) 
2D

$$$$
MS1406
     RDKit          2D

 37 41  0  0  0  0  0  0  0  0999 V2000
   -1.3483   -4.6277    0.0000 C   0  0  0  0  0  0  0  0  0  0  0  0
   -0.7328   -3.2597    0.0000 C   0  0  0  0  0  0  0  0  0  0  0  0
   -1.6097   -2.0428    0.0000 C   0  0  0  0  0  0  0  0  0  0  0  0
   -3.1021   -2.1937    0.0000 C   0  0  0  0  0  0  0  0  0  0  0  0
   -3.9790   -0.9768    0.0000 C   0  0  0  0  0  0  0  0  0  0  0  0
   -3.3636    0.3911    0.0000 O   0  0  0  0  0  0  0  0  0  0  0  0
   -5.4714   -1.1277    0.0000 N   0  0  0  0  0  0  0  0  0  0  0  0
   -6.3483    0.0892    0.0000 C   0  0  0  0  0  0  0  0  0  0  0  0
   -5.7329    1.4572    0.0000 C   0  0  0  0  0  0  0  0  0  0  0  0
   -6.6098    2.6741    0.0000 C   0  0  0  0  0  0  0  0  0  0  0  0
   -8.1022    2.5232    0.0000 C   0  0  0  0  0  0  0  0  0  0  0  0
   -8.9791    3.7401    0.0000 F   0  0  0  0  0  0  0  0  0  0  0  0
   -8.7176    1.1552    0.0000 C   0  0  0  0  0  0  0  0  0  0  0  0
  -10.2100    1.0043    0.0000 F   0  0  0  0  0  0  0  0  0  0  0  0
   -7.8407   -0.0617    0.0000 C   0  0  0  0  0  0  0  0  0  0  0  0
    0.7596   -3.1088    0.0000 C   0  0  0  0  0  0  0  0  0  0  0  0
    1.7589   -4.2274    0.0000 C   0  0  0  0  0  0  0  0  0  0  0  0
    3.1316   -3.6227    0.0000 C   0  0  0  0  0  0  0  0  0  0  0  0
    2.9807   -2.1303    0.0000 C   0  0  0  0  0  0  0  0  0  0  0  0
    3.9887   -1.0195    0.0000 C   0  0  0  0  0  0  0  0  0  0  0  0
    5.4547   -1.3371    0.0000 C   0  0  0  0  0  0  0  0  0  0  0  0
    5.9126   -2.7655    0.0000 O   0  0  0  0  0  0  0  0  0  0  0  0
    6.4627   -0.2263    0.0000 C   0  0  0  0  0  0  0  0  0  0  0  0
    6.0048    1.2021    0.0000 C   0  0  0  0  0  0  0  0  0  0  0  0
    7.0128    2.3128    0.0000 C   0  0  0  0  0  0  0  0  0  0  0  0
    6.5549    3.7412    0.0000 C   0  0  0  0  0  0  0  0  0  0  0  0
    7.5630    4.8520    0.0000 O   0  0  0  0  0  0  0  0  0  0  0  0
    5.0889    4.0588    0.0000 C   0  0  0  0  0  0  0  0  0  0  0  0
    4.0809    2.9480    0.0000 C   0  0  0  0  0  0  0  0  0  0  0  0
    4.5388    1.5197    0.0000 C   0  0  0  0  0  0  0  0  0  0  0  0
    3.0728    1.8373    0.0000 C   0  0  0  0  0  0  0  0  0  0  0  0
    3.5308    0.4089    0.0000 C   0  0  0  0  0  0  0  0  0  0  0  0
    2.0648    0.7265    0.0000 C   0  0  0  0  0  0  0  0  0  0  0  0
    1.0567   -0.3843    0.0000 C   0  0  0  0  0  0  0  0  0  0  0  0
   -0.4093   -0.0667    0.0000 O   0  0  0  0  0  0  0  0  0  0  0  0
    1.5147   -1.8127    0.0000 C   0  0  0  0  0  0  0  0  0  0  0  0
    0.0235   -1.6501    0.0000 C   0  0  0  0  0  0  0  0  0  0  0  0
  2  1  1  6
  2  3  1  0
  3  4  1  0
  4  5  1  0
  5  6  2  0
  5  7  1  0
  7  8  1  0
  8  9  2  0
  9 10  1  0
 10 11  2  0
 11 12  1  0
 11 13  1  0
 13 14  1  0
 13 15  2  0
  2 16  1  0
 16 17  1  6
 17 18  1  0
 19 18  1  6
 19 20  1  0
 20 21  1  1
 21 22  1  1
 21 23  1  0
 24 23  1  1
 24 25  1  0
 25 26  1  0
 26 27  1  1
 26 28  1  0
 28 29  1  0
 29 30  1  0
 30 31  1  6
 30 32  1  0
 32 33  1  6
 33 34  1  0
 34 35  1  1
 34 36  1  0
 36 37  1  6
 15  8  1  0
 36 16  1  0
 36 19  1  0
 32 20  1  0
 30 24  1  0
M  END
>  <MS_ID>  (1349) 
MS1406

>  <SMILES>  (1349) 
C[C@H](CCC(=O)Nc1ccc(F)c(F)c1)[C@H]1CC[C@H]2[C@@H]3[C@H](O)C[C@@H]4C[C@H](O)CC[C@]4(C)[C@H]3C[C@H](O)[C@]12C

>  <Structure_dimension>  (1349) 
2D

$$$$
MS1407
     RDKit          2D

 38 43  0  0  0  0  0  0  0  0999 V2000
   -1.5680   -3.9479    0.0000 C   0  0  0  0  0  0  0  0  0  0  0  0
   -0.7652   -2.6808    0.0000 C   0  0  0  0  0  0  0  0  0  0  0  0
   -1.4611   -1.3520    0.0000 C   0  0  0  0  0  0  0  0  0  0  0  0
   -2.9599   -1.2904    0.0000 C   0  0  0  0  0  0  0  0  0  0  0  0
   -3.6558    0.0384    0.0000 C   0  0  0  0  0  0  0  0  0  0  0  0
   -2.8530    1.3055    0.0000 O   0  0  0  0  0  0  0  0  0  0  0  0
   -5.1546    0.1001    0.0000 N   0  0  0  0  0  0  0  0  0  0  0  0
   -5.9573   -1.1670    0.0000 C   0  0  0  0  0  0  0  0  0  0  0  0
   -7.4561   -1.1053    0.0000 C   0  0  0  0  0  0  0  0  0  0  0  0
   -8.1520    0.2235    0.0000 C   0  0  0  0  0  0  0  0  0  0  0  0
   -9.6507    0.2851    0.0000 C   0  0  0  0  0  0  0  0  0  0  0  0
  -10.3467    1.6139    0.0000 C   0  0  0  0  0  0  0  0  0  0  0  0
   -9.5439    2.8810    0.0000 C   0  0  0  0  0  0  0  0  0  0  0  0
   -8.0452    2.8193    0.0000 C   0  0  0  0  0  0  0  0  0  0  0  0
   -7.3492    1.4906    0.0000 C   0  0  0  0  0  0  0  0  0  0  0  0
   -5.8505    1.4289    0.0000 C   0  0  0  0  0  0  0  0  0  0  0  0
    0.7335   -2.7425    0.0000 C   0  0  0  0  0  0  0  0  0  0  0  0
    1.5646   -3.9912    0.0000 C   0  0  0  0  0  0  0  0  0  0  0  0
    3.0090   -3.5868    0.0000 C   0  0  0  0  0  0  0  0  0  0  0  0
    3.0707   -2.0880    0.0000 C   0  0  0  0  0  0  0  0  0  0  0  0
    4.2257   -1.1310    0.0000 C   0  0  0  0  0  0  0  0  0  0  0  0
    5.6321   -1.6528    0.0000 C   0  0  0  0  0  0  0  0  0  0  0  0
    5.8833   -3.1316    0.0000 O   0  0  0  0  0  0  0  0  0  0  0  0
    6.7871   -0.6958    0.0000 C   0  0  0  0  0  0  0  0  0  0  0  0
    6.5358    0.7830    0.0000 C   0  0  0  0  0  0  0  0  0  0  0  0
    7.6909    1.7400    0.0000 C   0  0  0  0  0  0  0  0  0  0  0  0
    7.4396    3.2188    0.0000 C   0  0  0  0  0  0  0  0  0  0  0  0
    8.5946    4.1758    0.0000 O   0  0  0  0  0  0  0  0  0  0  0  0
    6.0333    3.7406    0.0000 C   0  0  0  0  0  0  0  0  0  0  0  0
    4.8782    2.7836    0.0000 C   0  0  0  0  0  0  0  0  0  0  0  0
    5.1295    1.3048    0.0000 C   0  0  0  0  0  0  0  0  0  0  0  0
    3.7232    1.8266    0.0000 C   0  0  0  0  0  0  0  0  0  0  0  0
    3.9745    0.3478    0.0000 C   0  0  0  0  0  0  0  0  0  0  0  0
    2.5681    0.8696    0.0000 C   0  0  0  0  0  0  0  0  0  0  0  0
    1.4131   -0.0874    0.0000 C   0  0  0  0  0  0  0  0  0  0  0  0
    0.0068    0.4344    0.0000 O   0  0  0  0  0  0  0  0  0  0  0  0
    1.6644   -1.5662    0.0000 C   0  0  0  0  0  0  0  0  0  0  0  0
    0.2112   -1.1943    0.0000 C   0  0  0  0  0  0  0  0  0  0  0  0
  2  1  1  6
  2  3  1  0
  3  4  1  0
  4  5  1  0
  5  6  2  0
  5  7  1  0
  7  8  1  0
  8  9  1  0
  9 10  1  0
 10 11  2  0
 11 12  1  0
 12 13  2  0
 13 14  1  0
 14 15  2  0
 15 16  1  0
  2 17  1  0
 17 18  1  6
 18 19  1  0
 20 19  1  6
 20 21  1  0
 21 22  1  1
 22 23  1  1
 22 24  1  0
 25 24  1  1
 25 26  1  0
 26 27  1  0
 27 28  1  1
 27 29  1  0
 29 30  1  0
 30 31  1  0
 31 32  1  6
 31 33  1  0
 33 34  1  6
 34 35  1  0
 35 36  1  1
 35 37  1  0
 37 38  1  6
 16  7  1  0
 37 17  1  0
 15 10  1  0
 37 20  1  0
 33 21  1  0
 31 25  1  0
M  END
>  <MS_ID>  (1350) 
MS1407

>  <SMILES>  (1350) 
C[C@H](CCC(=O)N1CCc2ccccc2C1)[C@H]1CC[C@H]2[C@@H]3[C@H](O)C[C@@H]4C[C@H](O)CC[C@]4(C)[C@H]3C[C@H](O)[C@]12C

>  <Structure_dimension>  (1350) 
2D

$$$$
MS1408
     RDKit          2D

 41 45  0  0  0  0  0  0  0  0999 V2000
   -8.0922   -2.1242    0.0000 C   0  0  0  0  0  0  0  0  0  0  0  0
   -6.9491   -1.1530    0.0000 C   0  0  0  0  0  0  0  0  0  0  0  0
   -7.2187    0.3226    0.0000 C   0  0  0  0  0  0  0  0  0  0  0  0
   -8.6314    0.8269    0.0000 C   0  0  0  0  0  0  0  0  0  0  0  0
   -8.9010    2.3025    0.0000 C   0  0  0  0  0  0  0  0  0  0  0  0
   -7.7579    3.2737    0.0000 O   0  0  0  0  0  0  0  0  0  0  0  0
  -10.3137    2.8068    0.0000 O   0  0  0  0  0  0  0  0  0  0  0  0
   -5.5364   -1.6573    0.0000 C   0  0  0  0  0  0  0  0  0  0  0  0
   -5.1140   -3.0966    0.0000 C   0  0  0  0  0  0  0  0  0  0  0  0
   -3.6147   -3.1397    0.0000 C   0  0  0  0  0  0  0  0  0  0  0  0
   -3.1104   -1.7270    0.0000 C   0  0  0  0  0  0  0  0  0  0  0  0
   -1.7231   -1.1565    0.0000 C   0  0  0  0  0  0  0  0  0  0  0  0
   -0.5354   -2.0727    0.0000 C   0  0  0  0  0  0  0  0  0  0  0  0
   -0.7350   -3.5593    0.0000 O   0  0  0  0  0  0  0  0  0  0  0  0
    0.8519   -1.5022    0.0000 C   0  0  0  0  0  0  0  0  0  0  0  0
    1.0515   -0.0155    0.0000 C   0  0  0  0  0  0  0  0  0  0  0  0
    2.4387    0.5550    0.0000 C   0  0  0  0  0  0  0  0  0  0  0  0
    2.6383    2.0417    0.0000 C   0  0  0  0  0  0  0  0  0  0  0  0
    4.0256    2.6121    0.0000 O   0  0  0  0  0  0  0  0  0  0  0  0
    5.2133    1.6960    0.0000 C   0  0  0  0  0  0  0  0  0  0  0  0
    5.0137    0.2093    0.0000 O   0  0  0  0  0  0  0  0  0  0  0  0
    6.2014   -0.7069    0.0000 C   0  0  0  0  0  0  0  0  0  0  0  0
    6.0019   -2.1935    0.0000 C   0  0  0  0  0  0  0  0  0  0  0  0
    7.1896   -3.1097    0.0000 O   0  0  0  0  0  0  0  0  0  0  0  0
    4.6146   -2.7640    0.0000 C   0  0  0  0  0  0  0  0  0  0  0  0
    4.4150   -4.2507    0.0000 O   0  0  0  0  0  0  0  0  0  0  0  0
    7.5887   -0.1364    0.0000 C   0  0  0  0  0  0  0  0  0  0  0  0
    8.7764   -1.0525    0.0000 O   0  0  0  0  0  0  0  0  0  0  0  0
    7.7883    1.3503    0.0000 C   0  0  0  0  0  0  0  0  0  0  0  0
    9.1756    1.9208    0.0000 O   0  0  0  0  0  0  0  0  0  0  0  0
    6.6006    2.2665    0.0000 C   0  0  0  0  0  0  0  0  0  0  0  0
    6.8002    3.7531    0.0000 O   0  0  0  0  0  0  0  0  0  0  0  0
    1.4506    2.9578    0.0000 C   0  0  0  0  0  0  0  0  0  0  0  0
    0.0633    2.3873    0.0000 C   0  0  0  0  0  0  0  0  0  0  0  0
   -0.1362    0.9007    0.0000 C   0  0  0  0  0  0  0  0  0  0  0  0
   -1.3239    1.8168    0.0000 C   0  0  0  0  0  0  0  0  0  0  0  0
   -1.5235    0.3302    0.0000 C   0  0  0  0  0  0  0  0  0  0  0  0
   -2.7112    1.2463    0.0000 C   0  0  0  0  0  0  0  0  0  0  0  0
   -4.0985    0.6758    0.0000 C   0  0  0  0  0  0  0  0  0  0  0  0
   -4.2981   -0.8108    0.0000 C   0  0  0  0  0  0  0  0  0  0  0  0
   -5.5750   -0.0238    0.0000 C   0  0  0  0  0  0  0  0  0  0  0  0
  2  1  1  6
  2  3  1  0
  3  4  1  0
  4  5  1  0
  5  6  2  0
  5  7  1  0
  2  8  1  0
  8  9  1  6
  9 10  1  0
 11 10  1  6
 11 12  1  0
 12 13  1  1
 13 14  1  6
 13 15  1  0
 16 15  1  1
 16 17  1  0
 17 18  1  0
 18 19  1  1
 20 19  1  1
 20 21  1  0
 21 22  1  0
 22 23  1  1
 23 24  2  0
 23 25  1  0
 25 26  1  0
 22 27  1  0
 27 28  1  6
 27 29  1  0
 29 30  1  1
 29 31  1  0
 31 32  1  6
 18 33  1  0
 33 34  1  0
 34 35  1  0
 35 36  1  6
 35 37  1  0
 37 38  1  6
 38 39  1  0
 39 40  1  0
 40 41  1  6
 40  8  1  0
 40 11  1  0
 37 12  1  0
 35 16  1  0
 31 20  1  0
M  END
>  <MS_ID>  (1351) 
MS1408

>  <SMILES>  (1351) 
C[C@H](CCC(=O)O)[C@H]1CC[C@H]2[C@@H]3[C@@H](O)C[C@@H]4C[C@H](O[C@@H]5O[C@H](C(=O)CO)[C@@H](O)[C@H](O)[C@H]5O)CC[C@]4(C)[C@H]3CC[C@]12C

>  <Structure_dimension>  (1351) 
2D

$$$$
MS1409
     RDKit          2D

 31 34  0  0  0  0  0  0  0  0999 V2000
   -2.9977   -3.6783    0.0000 C   0  0  0  0  0  0  0  0  0  0  0  0
   -2.1750   -2.4240    0.0000 C   0  0  0  0  0  0  0  0  0  0  0  0
   -2.8500   -1.0844    0.0000 C   0  0  0  0  0  0  0  0  0  0  0  0
   -4.3475   -0.9991    0.0000 C   0  0  0  0  0  0  0  0  0  0  0  0
   -5.0224    0.3405    0.0000 C   0  0  0  0  0  0  0  0  0  0  0  0
   -4.1998    1.5947    0.0000 O   0  0  0  0  0  0  0  0  0  0  0  0
   -6.5200    0.4258    0.0000 O   0  0  0  0  0  0  0  0  0  0  0  0
   -7.1949    1.7653    0.0000 C   0  0  0  0  0  0  0  0  0  0  0  0
   -8.6925    1.8506    0.0000 C   0  0  0  0  0  0  0  0  0  0  0  0
   -9.3674    3.1902    0.0000 O   0  0  0  0  0  0  0  0  0  0  0  0
   -0.6775   -2.5093    0.0000 C   0  0  0  0  0  0  0  0  0  0  0  0
    0.1338   -3.7710    0.0000 C   0  0  0  0  0  0  0  0  0  0  0  0
    1.5844   -3.3894    0.0000 C   0  0  0  0  0  0  0  0  0  0  0  0
    1.6697   -1.8918    0.0000 C   0  0  0  0  0  0  0  0  0  0  0  0
    2.8397   -0.9531    0.0000 C   0  0  0  0  0  0  0  0  0  0  0  0
    4.2376   -1.4970    0.0000 C   0  0  0  0  0  0  0  0  0  0  0  0
    4.4655   -2.9796    0.0000 O   0  0  0  0  0  0  0  0  0  0  0  0
    5.4076   -0.5583    0.0000 C   0  0  0  0  0  0  0  0  0  0  0  0
    5.1797    0.9243    0.0000 C   0  0  0  0  0  0  0  0  0  0  0  0
    6.3497    1.8629    0.0000 C   0  0  0  0  0  0  0  0  0  0  0  0
    6.1217    3.3455    0.0000 C   0  0  0  0  0  0  0  0  0  0  0  0
    4.7238    3.8894    0.0000 C   0  0  0  0  0  0  0  0  0  0  0  0
    3.5538    2.9507    0.0000 C   0  0  0  0  0  0  0  0  0  0  0  0
    3.7818    1.4682    0.0000 C   0  0  0  0  0  0  0  0  0  0  0  0
    2.3839    2.0121    0.0000 C   0  0  0  0  0  0  0  0  0  0  0  0
    2.6118    0.5295    0.0000 C   0  0  0  0  0  0  0  0  0  0  0  0
    1.2139    1.0734    0.0000 C   0  0  0  0  0  0  0  0  0  0  0  0
    0.0439    0.1347    0.0000 C   0  0  0  0  0  0  0  0  0  0  0  0
   -1.3540    0.6786    0.0000 O   0  0  0  0  0  0  0  0  0  0  0  0
    0.2718   -1.3479    0.0000 C   0  0  0  0  0  0  0  0  0  0  0  0
   -1.1753   -0.9531    0.0000 C   0  0  0  0  0  0  0  0  0  0  0  0
  2  1  1  6
  2  3  1  0
  3  4  1  0
  4  5  1  0
  5  6  2  0
  5  7  1  0
  7  8  1  0
  8  9  1  0
  9 10  1  0
  2 11  1  0
 11 12  1  6
 12 13  1  0
 14 13  1  6
 14 15  1  0
 15 16  1  1
 16 17  1  6
 16 18  1  0
 19 18  1  1
 19 20  1  0
 20 21  1  0
 21 22  1  0
 22 23  1  0
 23 24  1  0
 24 25  1  6
 24 26  1  0
 26 27  1  6
 27 28  1  0
 28 29  1  6
 28 30  1  0
 30 31  1  6
 30 11  1  0
 30 14  1  0
 26 15  1  0
 24 19  1  0
M  END
>  <MS_ID>  (1352) 
MS1409

>  <SMILES>  (1352) 
C[C@H](CCC(=O)OCCO)[C@H]1CC[C@H]2[C@@H]3[C@@H](O)C[C@@H]4CCCC[C@]4(C)[C@H]3C[C@@H](O)[C@]12C

>  <Structure_dimension>  (1352) 
2D

$$$$
MS1410
     RDKit          2D

 32 35  0  0  0  0  0  0  0  0999 V2000
   -2.8252   -3.9526    0.0000 C   0  0  0  0  0  0  0  0  0  0  0  0
   -1.9779   -2.7148    0.0000 C   0  0  0  0  0  0  0  0  0  0  0  0
   -2.6262   -1.3621    0.0000 C   0  0  0  0  0  0  0  0  0  0  0  0
   -4.1218   -1.2472    0.0000 C   0  0  0  0  0  0  0  0  0  0  0  0
   -4.7701    0.1054    0.0000 C   0  0  0  0  0  0  0  0  0  0  0  0
   -3.9228    1.3432    0.0000 O   0  0  0  0  0  0  0  0  0  0  0  0
   -6.2657    0.2203    0.0000 N   0  0  0  0  0  0  0  0  0  0  0  0
   -6.9140    1.5730    0.0000 C   0  0  0  0  0  0  0  0  0  0  0  0
   -8.4096    1.6879    0.0000 C   0  0  0  0  0  0  0  0  0  0  0  0
   -9.0579    3.0406    0.0000 C   0  0  0  0  0  0  0  0  0  0  0  0
  -10.5534    3.1554    0.0000 O   0  0  0  0  0  0  0  0  0  0  0  0
   -0.4823   -2.8297    0.0000 C   0  0  0  0  0  0  0  0  0  0  0  0
    0.3038   -4.1072    0.0000 C   0  0  0  0  0  0  0  0  0  0  0  0
    1.7617   -3.7543    0.0000 C   0  0  0  0  0  0  0  0  0  0  0  0
    1.8766   -2.2587    0.0000 C   0  0  0  0  0  0  0  0  0  0  0  0
    3.0650   -1.3433    0.0000 C   0  0  0  0  0  0  0  0  0  0  0  0
    4.4518   -1.9148    0.0000 C   0  0  0  0  0  0  0  0  0  0  0  0
    5.6402   -0.9994    0.0000 C   0  0  0  0  0  0  0  0  0  0  0  0
    5.4416    0.4874    0.0000 C   0  0  0  0  0  0  0  0  0  0  0  0
    6.6299    1.4028    0.0000 C   0  0  0  0  0  0  0  0  0  0  0  0
    6.4313    2.8896    0.0000 C   0  0  0  0  0  0  0  0  0  0  0  0
    7.6197    3.8049    0.0000 O   0  0  0  0  0  0  0  0  0  0  0  0
    5.0445    3.4610    0.0000 C   0  0  0  0  0  0  0  0  0  0  0  0
    3.8561    2.5456    0.0000 C   0  0  0  0  0  0  0  0  0  0  0  0
    4.0547    1.0588    0.0000 C   0  0  0  0  0  0  0  0  0  0  0  0
    2.6678    1.6303    0.0000 C   0  0  0  0  0  0  0  0  0  0  0  0
    2.8664    0.1435    0.0000 C   0  0  0  0  0  0  0  0  0  0  0  0
    1.4795    0.7149    0.0000 C   0  0  0  0  0  0  0  0  0  0  0  0
    0.2912   -0.2005    0.0000 C   0  0  0  0  0  0  0  0  0  0  0  0
   -1.0957    0.3710    0.0000 O   0  0  0  0  0  0  0  0  0  0  0  0
    0.4897   -1.6873    0.0000 C   0  0  0  0  0  0  0  0  0  0  0  0
   -0.9493   -1.2639    0.0000 C   0  0  0  0  0  0  0  0  0  0  0  0
  2  1  1  6
  2  3  1  0
  3  4  1  0
  4  5  1  0
  5  6  2  0
  5  7  1  0
  7  8  1  0
  8  9  1  0
  9 10  1  0
 10 11  1  0
  2 12  1  0
 12 13  1  6
 13 14  1  0
 15 14  1  6
 15 16  1  0
 16 17  1  1
 17 18  1  0
 19 18  1  1
 19 20  1  0
 20 21  1  0
 21 22  1  1
 21 23  1  0
 23 24  1  0
 24 25  1  0
 25 26  1  6
 25 27  1  0
 27 28  1  6
 28 29  1  0
 29 30  1  1
 29 31  1  0
 31 32  1  6
 31 12  1  0
 31 15  1  0
 27 16  1  0
 25 19  1  0
M  END
>  <MS_ID>  (1353) 
MS1410

>  <SMILES>  (1353) 
C[C@H](CCC(=O)NCCCO)[C@H]1CC[C@H]2[C@@H]3CC[C@@H]4C[C@H](O)CC[C@]4(C)[C@H]3C[C@H](O)[C@]12C

>  <Structure_dimension>  (1353) 
2D

$$$$
MS1411
     RDKit          2D

 34 37  0  0  0  0  0  0  0  0999 V2000
   -3.4488   -4.2928    0.0000 C   0  0  0  0  0  0  0  0  0  0  0  0
   -2.6712   -3.0102    0.0000 C   0  0  0  0  0  0  0  0  0  0  0  0
   -3.3933   -1.6954    0.0000 C   0  0  0  0  0  0  0  0  0  0  0  0
   -4.8929   -1.6633    0.0000 C   0  0  0  0  0  0  0  0  0  0  0  0
   -5.6150   -0.3485    0.0000 C   0  0  0  0  0  0  0  0  0  0  0  0
   -7.1146   -0.3164    0.0000 O   0  0  0  0  0  0  0  0  0  0  0  0
   -4.8373    0.9342    0.0000 O   0  0  0  0  0  0  0  0  0  0  0  0
   -5.5594    2.2490    0.0000 C   0  0  0  0  0  0  0  0  0  0  0  0
   -4.7818    3.5317    0.0000 S   0  0  0  0  0  0  0  0  0  0  0  0
   -6.0645    4.3093    0.0000 O   0  0  0  0  0  0  0  0  0  0  0  0
   -3.4991    2.7541    0.0000 O   0  0  0  0  0  0  0  0  0  0  0  0
   -4.0041    4.8144    0.0000 O   0  0  0  0  0  0  0  0  0  0  0  0
   -1.1716   -3.0422    0.0000 C   0  0  0  0  0  0  0  0  0  0  0  0
   -0.3160   -4.2743    0.0000 C   0  0  0  0  0  0  0  0  0  0  0  0
    1.1201   -3.8414    0.0000 C   0  0  0  0  0  0  0  0  0  0  0  0
    1.1522   -2.3418    0.0000 C   0  0  0  0  0  0  0  0  0  0  0  0
    2.2881   -1.3622    0.0000 C   0  0  0  0  0  0  0  0  0  0  0  0
    3.7045   -1.8561    0.0000 C   0  0  0  0  0  0  0  0  0  0  0  0
    3.9849   -3.3297    0.0000 O   0  0  0  0  0  0  0  0  0  0  0  0
    4.8404   -0.8765    0.0000 C   0  0  0  0  0  0  0  0  0  0  0  0
    6.2568   -1.3704    0.0000 O   0  0  0  0  0  0  0  0  0  0  0  0
    4.5600    0.5971    0.0000 C   0  0  0  0  0  0  0  0  0  0  0  0
    5.6959    1.5767    0.0000 C   0  0  0  0  0  0  0  0  0  0  0  0
    5.4155    3.0503    0.0000 C   0  0  0  0  0  0  0  0  0  0  0  0
    6.5515    4.0299    0.0000 O   0  0  0  0  0  0  0  0  0  0  0  0
    3.9992    3.5442    0.0000 C   0  0  0  0  0  0  0  0  0  0  0  0
    2.8633    2.5646    0.0000 C   0  0  0  0  0  0  0  0  0  0  0  0
    3.1437    1.0910    0.0000 C   0  0  0  0  0  0  0  0  0  0  0  0
    1.7273    1.5849    0.0000 C   0  0  0  0  0  0  0  0  0  0  0  0
    2.0077    0.1114    0.0000 C   0  0  0  0  0  0  0  0  0  0  0  0
    0.5914    0.6053    0.0000 C   0  0  0  0  0  0  0  0  0  0  0  0
   -0.5445   -0.3743    0.0000 C   0  0  0  0  0  0  0  0  0  0  0  0
   -0.2641   -1.8478    0.0000 C   0  0  0  0  0  0  0  0  0  0  0  0
   -1.7243   -1.5047    0.0000 C   0  0  0  0  0  0  0  0  0  0  0  0
  2  1  1  6
  2  3  1  0
  3  4  1  0
  4  5  1  0
  5  6  2  0
  5  7  1  0
  7  8  1  0
  8  9  1  0
  9 10  2  0
  9 11  2  0
  9 12  1  0
  2 13  1  0
 13 14  1  6
 14 15  1  0
 16 15  1  6
 16 17  1  0
 17 18  1  1
 18 19  1  1
 18 20  1  0
 20 21  1  1
 20 22  1  0
 22 23  1  1
 23 24  1  0
 24 25  1  1
 24 26  1  0
 26 27  1  0
 27 28  1  0
 28 29  1  6
 28 30  1  0
 30 31  1  6
 31 32  1  0
 32 33  1  0
 33 34  1  6
 33 13  1  0
 33 16  1  0
 30 17  1  0
 28 22  1  0
M  END
>  <MS_ID>  (1354) 
MS1411

>  <SMILES>  (1354) 
C[C@H](CCC(=O)OCS(=O)(=O)O)[C@H]1CC[C@H]2[C@@H]3[C@H](O)[C@H](O)[C@@H]4C[C@H](O)CC[C@]4(C)[C@H]3CC[C@]12C

>  <Structure_dimension>  (1354) 
2D

$$$$
MS1412
     RDKit          2D

 34 38  0  0  0  0  0  0  0  0999 V2000
   -2.2608   -4.3306    0.0000 C   0  0  0  0  0  0  0  0  0  0  0  0
   -1.5430   -3.0135    0.0000 C   0  0  0  0  0  0  0  0  0  0  0  0
   -2.3248   -1.7333    0.0000 C   0  0  0  0  0  0  0  0  0  0  0  0
   -3.8244   -1.7702    0.0000 C   0  0  0  0  0  0  0  0  0  0  0  0
   -4.6061   -0.4901    0.0000 C   0  0  0  0  0  0  0  0  0  0  0  0
   -3.8883    0.8271    0.0000 O   0  0  0  0  0  0  0  0  0  0  0  0
   -6.1057   -0.5270    0.0000 N   0  0  0  0  0  0  0  0  0  0  0  0
   -6.8874    0.7532    0.0000 C   0  0  0  0  0  0  0  0  0  0  0  0
   -6.1696    2.0703    0.0000 C   0  0  0  0  0  0  0  0  0  0  0  0
   -6.9514    3.3505    0.0000 C   0  0  0  0  0  0  0  0  0  0  0  0
   -8.4509    3.3135    0.0000 C   0  0  0  0  0  0  0  0  0  0  0  0
   -9.1687    1.9964    0.0000 C   0  0  0  0  0  0  0  0  0  0  0  0
   -8.3870    0.7163    0.0000 C   0  0  0  0  0  0  0  0  0  0  0  0
   -0.0435   -2.9765    0.0000 C   0  0  0  0  0  0  0  0  0  0  0  0
    0.8678   -4.1680    0.0000 C   0  0  0  0  0  0  0  0  0  0  0  0
    2.2825   -3.6695    0.0000 C   0  0  0  0  0  0  0  0  0  0  0  0
    2.2456   -2.1699    0.0000 C   0  0  0  0  0  0  0  0  0  0  0  0
    3.3353   -1.1391    0.0000 C   0  0  0  0  0  0  0  0  0  0  0  0
    4.7728   -1.5673    0.0000 C   0  0  0  0  0  0  0  0  0  0  0  0
    5.1207   -3.0264    0.0000 O   0  0  0  0  0  0  0  0  0  0  0  0
    5.8625   -0.5365    0.0000 C   0  0  0  0  0  0  0  0  0  0  0  0
    5.5146    0.9226    0.0000 C   0  0  0  0  0  0  0  0  0  0  0  0
    6.6043    1.9534    0.0000 C   0  0  0  0  0  0  0  0  0  0  0  0
    6.2564    3.4125    0.0000 C   0  0  0  0  0  0  0  0  0  0  0  0
    7.3460    4.4434    0.0000 O   0  0  0  0  0  0  0  0  0  0  0  0
    4.8188    3.8408    0.0000 C   0  0  0  0  0  0  0  0  0  0  0  0
    3.7291    2.8099    0.0000 C   0  0  0  0  0  0  0  0  0  0  0  0
    4.0770    1.3509    0.0000 C   0  0  0  0  0  0  0  0  0  0  0  0
    2.6395    1.7791    0.0000 C   0  0  0  0  0  0  0  0  0  0  0  0
    2.9874    0.3200    0.0000 C   0  0  0  0  0  0  0  0  0  0  0  0
    1.5498    0.7483    0.0000 C   0  0  0  0  0  0  0  0  0  0  0  0
    0.4601   -0.2826    0.0000 C   0  0  0  0  0  0  0  0  0  0  0  0
    0.8080   -1.7417    0.0000 C   0  0  0  0  0  0  0  0  0  0  0  0
   -0.6664   -1.4660    0.0000 C   0  0  0  0  0  0  0  0  0  0  0  0
  2  1  1  6
  2  3  1  0
  3  4  1  0
  4  5  1  0
  5  6  2  0
  5  7  1  0
  7  8  1  0
  8  9  2  0
  9 10  1  0
 10 11  2  0
 11 12  1  0
 12 13  2  0
  2 14  1  0
 14 15  1  6
 15 16  1  0
 17 16  1  6
 17 18  1  0
 18 19  1  1
 19 20  1  6
 19 21  1  0
 22 21  1  1
 22 23  1  0
 23 24  1  0
 24 25  1  1
 24 26  1  0
 26 27  1  0
 27 28  1  0
 28 29  1  6
 28 30  1  0
 30 31  1  6
 31 32  1  0
 32 33  1  0
 33 34  1  6
 13  8  1  0
 33 14  1  0
 33 17  1  0
 30 18  1  0
 28 22  1  0
M  END
>  <MS_ID>  (1355) 
MS1412

>  <SMILES>  (1355) 
C[C@H](CCC(=O)Nc1ccccc1)[C@H]1CC[C@H]2[C@@H]3[C@@H](O)C[C@@H]4C[C@H](O)CC[C@]4(C)[C@H]3CC[C@]12C

>  <Structure_dimension>  (1355) 
2D

$$$$
MS1413
     RDKit          2D

 30 33  0  0  0  0  0  0  0  0999 V2000
   -3.4828   -3.5922    0.0000 C   0  0  0  0  0  0  0  0  0  0  0  0
   -2.5481   -2.4190    0.0000 C   0  0  0  0  0  0  0  0  0  0  0  0
   -3.0967   -1.0230    0.0000 C   0  0  0  0  0  0  0  0  0  0  0  0
   -4.5801   -0.8000    0.0000 C   0  0  0  0  0  0  0  0  0  0  0  0
   -5.1287    0.5960    0.0000 C   0  0  0  0  0  0  0  0  0  0  0  0
   -4.1940    1.7692    0.0000 O   0  0  0  0  0  0  0  0  0  0  0  0
   -6.6120    0.8190    0.0000 C   0  0  0  0  0  0  0  0  0  0  0  0
   -7.1606    2.2150    0.0000 C   0  0  0  0  0  0  0  0  0  0  0  0
   -8.6440    2.4379    0.0000 C   0  0  0  0  0  0  0  0  0  0  0  0
   -9.1926    3.8340    0.0000 O   0  0  0  0  0  0  0  0  0  0  0  0
   -1.0648   -2.6420    0.0000 C   0  0  0  0  0  0  0  0  0  0  0  0
   -0.3732   -3.9730    0.0000 C   0  0  0  0  0  0  0  0  0  0  0  0
    1.1064   -3.7267    0.0000 C   0  0  0  0  0  0  0  0  0  0  0  0
    1.3293   -2.2433    0.0000 C   0  0  0  0  0  0  0  0  0  0  0  0
    2.5808   -1.4164    0.0000 C   0  0  0  0  0  0  0  0  0  0  0  0
    3.9227   -2.0868    0.0000 C   0  0  0  0  0  0  0  0  0  0  0  0
    5.1742   -1.2599    0.0000 C   0  0  0  0  0  0  0  0  0  0  0  0
    5.0838    0.2373    0.0000 C   0  0  0  0  0  0  0  0  0  0  0  0
    6.3353    1.0642    0.0000 C   0  0  0  0  0  0  0  0  0  0  0  0
    6.2450    2.5615    0.0000 C   0  0  0  0  0  0  0  0  0  0  0  0
    7.4965    3.3884    0.0000 O   0  0  0  0  0  0  0  0  0  0  0  0
    4.9031    3.2319    0.0000 C   0  0  0  0  0  0  0  0  0  0  0  0
    3.6516    2.4050    0.0000 C   0  0  0  0  0  0  0  0  0  0  0  0
    3.7420    0.9077    0.0000 C   0  0  0  0  0  0  0  0  0  0  0  0
    2.4001    1.5781    0.0000 C   0  0  0  0  0  0  0  0  0  0  0  0
    2.4905    0.0808    0.0000 C   0  0  0  0  0  0  0  0  0  0  0  0
    1.1486    0.7512    0.0000 C   0  0  0  0  0  0  0  0  0  0  0  0
   -0.1029   -0.0757    0.0000 C   0  0  0  0  0  0  0  0  0  0  0  0
   -0.0125   -1.5729    0.0000 C   0  0  0  0  0  0  0  0  0  0  0  0
   -1.4171   -1.0465    0.0000 C   0  0  0  0  0  0  0  0  0  0  0  0
  2  1  1  6
  2  3  1  0
  3  4  1  0
  4  5  1  0
  5  6  2  0
  5  7  1  0
  7  8  1  0
  8  9  1  0
  9 10  1  0
  2 11  1  0
 11 12  1  6
 12 13  1  0
 14 13  1  6
 14 15  1  0
 15 16  1  1
 16 17  1  0
 18 17  1  1
 18 19  1  0
 19 20  1  0
 20 21  1  6
 20 22  1  0
 22 23  1  0
 23 24  1  0
 24 25  1  6
 24 26  1  0
 26 27  1  6
 27 28  1  0
 28 29  1  0
 29 30  1  6
 29 11  1  0
 29 14  1  0
 26 15  1  0
 24 18  1  0
M  END
>  <MS_ID>  (1356) 
MS1413

>  <SMILES>  (1356) 
C[C@H](CCC(=O)CCCO)[C@H]1CC[C@H]2[C@@H]3CC[C@@H]4C[C@@H](O)CC[C@]4(C)[C@H]3CC[C@]12C

>  <Structure_dimension>  (1356) 
2D

$$$$
MS1414
     RDKit          2D

 28 31  0  0  0  0  0  0  0  0999 V2000
   -5.1275   -2.0302    0.0000 C   0  0  0  0  0  0  0  0  0  0  0  0
   -3.9468   -1.1050    0.0000 C   0  0  0  0  0  0  0  0  0  0  0  0
   -4.1576    0.3801    0.0000 C   0  0  0  0  0  0  0  0  0  0  0  0
   -5.5492    0.9401    0.0000 C   0  0  0  0  0  0  0  0  0  0  0  0
   -5.7600    2.4252    0.0000 C   0  0  0  0  0  0  0  0  0  0  0  0
   -7.1516    2.9851    0.0000 O   0  0  0  0  0  0  0  0  0  0  0  0
   -4.5793    3.3503    0.0000 Br  0  0  0  0  0  0  0  0  0  0  0  0
   -2.5552   -1.6650    0.0000 C   0  0  0  0  0  0  0  0  0  0  0  0
   -2.1903   -3.1199    0.0000 C   0  0  0  0  0  0  0  0  0  0  0  0
   -0.6938   -3.2225    0.0000 C   0  0  0  0  0  0  0  0  0  0  0  0
   -0.1339   -1.8309    0.0000 C   0  0  0  0  0  0  0  0  0  0  0  0
    1.2750   -1.3159    0.0000 C   0  0  0  0  0  0  0  0  0  0  0  0
    2.4254   -2.2785    0.0000 C   0  0  0  0  0  0  0  0  0  0  0  0
    2.1670   -3.7560    0.0000 O   0  0  0  0  0  0  0  0  0  0  0  0
    3.8342   -1.7635    0.0000 C   0  0  0  0  0  0  0  0  0  0  0  0
    4.0926   -0.2859    0.0000 C   0  0  0  0  0  0  0  0  0  0  0  0
    5.5014    0.2291    0.0000 C   0  0  0  0  0  0  0  0  0  0  0  0
    5.7598    1.7067    0.0000 C   0  0  0  0  0  0  0  0  0  0  0  0
    7.1687    2.2217    0.0000 O   0  0  0  0  0  0  0  0  0  0  0  0
    4.6094    2.6692    0.0000 C   0  0  0  0  0  0  0  0  0  0  0  0
    3.2006    2.1542    0.0000 C   0  0  0  0  0  0  0  0  0  0  0  0
    2.9422    0.6767    0.0000 C   0  0  0  0  0  0  0  0  0  0  0  0
    1.7918    1.6392    0.0000 C   0  0  0  0  0  0  0  0  0  0  0  0
    1.5334    0.1617    0.0000 C   0  0  0  0  0  0  0  0  0  0  0  0
    0.3830    1.1242    0.0000 C   0  0  0  0  0  0  0  0  0  0  0  0
   -1.0259    0.6093    0.0000 C   0  0  0  0  0  0  0  0  0  0  0  0
   -1.2843   -0.8683    0.0000 C   0  0  0  0  0  0  0  0  0  0  0  0
   -2.5290   -0.0313    0.0000 C   0  0  0  0  0  0  0  0  0  0  0  0
  2  1  1  6
  2  3  1  0
  3  4  1  0
  4  5  1  0
  5  6  2  0
  5  7  1  0
  2  8  1  0
  8  9  1  6
  9 10  1  0
 11 10  1  6
 11 12  1  0
 12 13  1  1
 13 14  1  1
 13 15  1  0
 16 15  1  1
 16 17  1  0
 17 18  1  0
 18 19  1  1
 18 20  1  0
 20 21  1  0
 21 22  1  0
 22 23  1  6
 22 24  1  0
 24 25  1  6
 25 26  1  0
 26 27  1  0
 27 28  1  6
 27  8  1  0
 27 11  1  0
 24 12  1  0
 22 16  1  0
M  END
>  <MS_ID>  (1357) 
MS1414

>  <SMILES>  (1357) 
C[C@H](CCC(=O)Br)[C@H]1CC[C@H]2[C@@H]3[C@H](O)C[C@@H]4C[C@H](O)CC[C@]4(C)[C@H]3CC[C@]12C

>  <Structure_dimension>  (1357) 
2D

$$$$
MS1416
     RDKit          2D

 31 34  0  0  0  0  0  0  0  0999 V2000
   -8.8672    3.1400    0.0000 C   0  0  0  0  0  0  0  0  0  0  0  0
   -7.3980    2.8376    0.0000 C   0  0  0  0  0  0  0  0  0  0  0  0
   -6.9253    1.4140    0.0000 O   0  0  0  0  0  0  0  0  0  0  0  0
   -5.4561    1.1115    0.0000 C   0  0  0  0  0  0  0  0  0  0  0  0
   -4.4596    2.2326    0.0000 O   0  0  0  0  0  0  0  0  0  0  0  0
   -4.9835   -0.3121    0.0000 C   0  0  0  0  0  0  0  0  0  0  0  0
   -3.5143   -0.6145    0.0000 C   0  0  0  0  0  0  0  0  0  0  0  0
   -3.0416   -2.0381    0.0000 C   0  0  0  0  0  0  0  0  0  0  0  0
   -4.0382   -3.1592    0.0000 C   0  0  0  0  0  0  0  0  0  0  0  0
   -1.5724   -2.3406    0.0000 C   0  0  0  0  0  0  0  0  0  0  0  0
   -0.9536   -3.7070    0.0000 C   0  0  0  0  0  0  0  0  0  0  0  0
    0.5372   -3.5406    0.0000 C   0  0  0  0  0  0  0  0  0  0  0  0
    0.8396   -2.0714    0.0000 C   0  0  0  0  0  0  0  0  0  0  0  0
    2.1338   -1.3131    0.0000 C   0  0  0  0  0  0  0  0  0  0  0  0
    3.4377   -2.0548    0.0000 C   0  0  0  0  0  0  0  0  0  0  0  0
    3.4473   -3.5547    0.0000 O   0  0  0  0  0  0  0  0  0  0  0  0
    4.7319   -1.2965    0.0000 C   0  0  0  0  0  0  0  0  0  0  0  0
    4.7223    0.2035    0.0000 C   0  0  0  0  0  0  0  0  0  0  0  0
    6.0165    0.9618    0.0000 C   0  0  0  0  0  0  0  0  0  0  0  0
    6.0069    2.4618    0.0000 C   0  0  0  0  0  0  0  0  0  0  0  0
    7.3011    3.2201    0.0000 O   0  0  0  0  0  0  0  0  0  0  0  0
    4.7030    3.2034    0.0000 C   0  0  0  0  0  0  0  0  0  0  0  0
    3.4088    2.4451    0.0000 C   0  0  0  0  0  0  0  0  0  0  0  0
    3.4184    0.9452    0.0000 C   0  0  0  0  0  0  0  0  0  0  0  0
    2.1146    1.6868    0.0000 C   0  0  0  0  0  0  0  0  0  0  0  0
    2.1242    0.1869    0.0000 C   0  0  0  0  0  0  0  0  0  0  0  0
    0.8204    0.9285    0.0000 C   0  0  0  0  0  0  0  0  0  0  0  0
   -0.4738    0.1702    0.0000 C   0  0  0  0  0  0  0  0  0  0  0  0
   -1.7776    0.9119    0.0000 O   0  0  0  0  0  0  0  0  0  0  0  0
   -0.4642   -1.3298    0.0000 C   0  0  0  0  0  0  0  0  0  0  0  0
   -1.8384   -0.7284    0.0000 C   0  0  0  0  0  0  0  0  0  0  0  0
  1  2  2  0
  2  3  1  0
  3  4  1  0
  4  5  2  0
  4  6  1  0
  6  7  1  0
  7  8  1  0
  8  9  1  6
  8 10  1  0
 10 11  1  6
 11 12  1  0
 13 12  1  6
 13 14  1  0
 14 15  1  1
 15 16  1  1
 15 17  1  0
 18 17  1  1
 18 19  1  0
 19 20  1  0
 20 21  1  1
 20 22  1  0
 22 23  1  0
 23 24  1  0
 24 25  1  6
 24 26  1  0
 26 27  1  6
 27 28  1  0
 28 29  1  1
 28 30  1  0
 30 31  1  6
 30 10  1  0
 30 13  1  0
 26 14  1  0
 24 18  1  0
M  END
>  <MS_ID>  (1358) 
MS1416

>  <SMILES>  (1358) 
C=COC(=O)CC[C@@H](C)[C@H]1CC[C@H]2[C@@H]3[C@H](O)C[C@@H]4C[C@H](O)CC[C@]4(C)[C@H]3C[C@H](O)[C@]12C

>  <Structure_dimension>  (1358) 
2D

$$$$
MS1417
     RDKit          2D

 33 36  0  0  0  0  0  0  0  0999 V2000
   -9.1553    3.4535    0.0000 C   0  0  0  0  0  0  0  0  0  0  0  0
   -8.5407    2.0852    0.0000 C   0  0  0  0  0  0  0  0  0  0  0  0
   -9.4184    0.8688    0.0000 C   0  0  0  0  0  0  0  0  0  0  0  0
   -7.0484    1.9333    0.0000 C   0  0  0  0  0  0  0  0  0  0  0  0
   -6.4339    0.5650    0.0000 O   0  0  0  0  0  0  0  0  0  0  0  0
   -4.9416    0.4131    0.0000 C   0  0  0  0  0  0  0  0  0  0  0  0
   -4.0639    1.6295    0.0000 O   0  0  0  0  0  0  0  0  0  0  0  0
   -4.3270   -0.9552    0.0000 C   0  0  0  0  0  0  0  0  0  0  0  0
   -2.8347   -1.1072    0.0000 C   0  0  0  0  0  0  0  0  0  0  0  0
   -2.2201   -2.4755    0.0000 C   0  0  0  0  0  0  0  0  0  0  0  0
   -3.0978   -3.6919    0.0000 C   0  0  0  0  0  0  0  0  0  0  0  0
   -0.7278   -2.6274    0.0000 C   0  0  0  0  0  0  0  0  0  0  0  0
    0.0264   -3.9240    0.0000 C   0  0  0  0  0  0  0  0  0  0  0  0
    1.4926   -3.6073    0.0000 C   0  0  0  0  0  0  0  0  0  0  0  0
    1.6445   -2.1150    0.0000 C   0  0  0  0  0  0  0  0  0  0  0  0
    2.8552   -1.2294    0.0000 C   0  0  0  0  0  0  0  0  0  0  0  0
    4.2275   -1.8350    0.0000 C   0  0  0  0  0  0  0  0  0  0  0  0
    4.3891   -3.3263    0.0000 O   0  0  0  0  0  0  0  0  0  0  0  0
    5.4381   -0.9494    0.0000 C   0  0  0  0  0  0  0  0  0  0  0  0
    5.2764    0.5419    0.0000 C   0  0  0  0  0  0  0  0  0  0  0  0
    6.4871    1.4275    0.0000 C   0  0  0  0  0  0  0  0  0  0  0  0
    6.3254    2.9188    0.0000 C   0  0  0  0  0  0  0  0  0  0  0  0
    7.5360    3.8044    0.0000 O   0  0  0  0  0  0  0  0  0  0  0  0
    4.9531    3.5244    0.0000 C   0  0  0  0  0  0  0  0  0  0  0  0
    3.7425    2.6388    0.0000 C   0  0  0  0  0  0  0  0  0  0  0  0
    3.9041    1.1475    0.0000 C   0  0  0  0  0  0  0  0  0  0  0  0
    2.5318    1.7531    0.0000 C   0  0  0  0  0  0  0  0  0  0  0  0
    2.6935    0.2619    0.0000 C   0  0  0  0  0  0  0  0  0  0  0  0
    1.3212    0.8675    0.0000 C   0  0  0  0  0  0  0  0  0  0  0  0
    0.1105   -0.0181    0.0000 C   0  0  0  0  0  0  0  0  0  0  0  0
   -1.2618    0.5875    0.0000 O   0  0  0  0  0  0  0  0  0  0  0  0
    0.2722   -1.5094    0.0000 C   0  0  0  0  0  0  0  0  0  0  0  0
   -1.1559   -1.0505    0.0000 C   0  0  0  0  0  0  0  0  0  0  0  0
  1  2  1  0
  2  3  1  0
  2  4  1  0
  4  5  1  0
  5  6  1  0
  6  7  2  0
  6  8  1  0
  8  9  1  0
  9 10  1  0
 10 11  1  6
 10 12  1  0
 12 13  1  6
 13 14  1  0
 15 14  1  6
 15 16  1  0
 16 17  1  1
 17 18  1  1
 17 19  1  0
 20 19  1  1
 20 21  1  0
 21 22  1  0
 22 23  1  1
 22 24  1  0
 24 25  1  0
 25 26  1  0
 26 27  1  6
 26 28  1  0
 28 29  1  6
 29 30  1  0
 30 31  1  1
 30 32  1  0
 32 33  1  6
 32 12  1  0
 32 15  1  0
 28 16  1  0
 26 20  1  0
M  END
>  <MS_ID>  (1359) 
MS1417

>  <SMILES>  (1359) 
CC(C)COC(=O)CC[C@@H](C)[C@H]1CC[C@H]2[C@@H]3[C@H](O)C[C@@H]4C[C@H](O)CC[C@]4(C)[C@H]3C[C@H](O)[C@]12C

>  <Structure_dimension>  (1359) 
2D

$$$$
MS1418
     RDKit          2D

 33 37  0  0  0  0  0  0  0  0999 V2000
   -3.1427   -3.3426    0.0000 C   0  0  0  0  0  0  0  0  0  0  0  0
   -2.1899   -2.1841    0.0000 C   0  0  0  0  0  0  0  0  0  0  0  0
   -2.7167   -0.7797    0.0000 C   0  0  0  0  0  0  0  0  0  0  0  0
   -4.1964   -0.5338    0.0000 C   0  0  0  0  0  0  0  0  0  0  0  0
   -4.7233    0.8707    0.0000 C   0  0  0  0  0  0  0  0  0  0  0  0
   -3.7705    2.0292    0.0000 O   0  0  0  0  0  0  0  0  0  0  0  0
   -6.2030    1.1166    0.0000 C   0  0  0  0  0  0  0  0  0  0  0  0
   -6.7299    2.5210    0.0000 C   0  0  0  0  0  0  0  0  0  0  0  0
   -8.2096    2.7669    0.0000 C   0  0  0  0  0  0  0  0  0  0  0  0
   -9.1624    1.6084    0.0000 C   0  0  0  0  0  0  0  0  0  0  0  0
   -8.6355    0.2040    0.0000 C   0  0  0  0  0  0  0  0  0  0  0  0
   -7.1558   -0.0419    0.0000 N   0  0  0  0  0  0  0  0  0  0  0  0
   -0.7102   -2.4300    0.0000 C   0  0  0  0  0  0  0  0  0  0  0  0
   -0.0394   -3.7717    0.0000 C   0  0  0  0  0  0  0  0  0  0  0  0
    1.4439   -3.5483    0.0000 C   0  0  0  0  0  0  0  0  0  0  0  0
    1.6898   -2.0686    0.0000 C   0  0  0  0  0  0  0  0  0  0  0  0
    2.9540   -1.2613    0.0000 C   0  0  0  0  0  0  0  0  0  0  0  0
    4.2853   -1.9524    0.0000 C   0  0  0  0  0  0  0  0  0  0  0  0
    4.3524   -3.4509    0.0000 O   0  0  0  0  0  0  0  0  0  0  0  0
    5.5495   -1.1451    0.0000 C   0  0  0  0  0  0  0  0  0  0  0  0
    5.4824    0.3534    0.0000 C   0  0  0  0  0  0  0  0  0  0  0  0
    6.7466    1.1608    0.0000 C   0  0  0  0  0  0  0  0  0  0  0  0
    6.6795    2.6593    0.0000 C   0  0  0  0  0  0  0  0  0  0  0  0
    7.9437    3.4666    0.0000 O   0  0  0  0  0  0  0  0  0  0  0  0
    5.3482    3.3504    0.0000 C   0  0  0  0  0  0  0  0  0  0  0  0
    4.0840    2.5431    0.0000 C   0  0  0  0  0  0  0  0  0  0  0  0
    4.1511    1.0446    0.0000 C   0  0  0  0  0  0  0  0  0  0  0  0
    2.8198    1.7357    0.0000 C   0  0  0  0  0  0  0  0  0  0  0  0
    2.8869    0.2372    0.0000 C   0  0  0  0  0  0  0  0  0  0  0  0
    1.5556    0.9284    0.0000 C   0  0  0  0  0  0  0  0  0  0  0  0
    0.2915    0.1210    0.0000 C   0  0  0  0  0  0  0  0  0  0  0  0
    0.3586   -1.3775    0.0000 C   0  0  0  0  0  0  0  0  0  0  0  0
   -1.0377   -0.8293    0.0000 C   0  0  0  0  0  0  0  0  0  0  0  0
  2  1  1  6
  2  3  1  0
  3  4  1  0
  4  5  1  0
  5  6  2  0
  5  7  1  0
  7  8  2  0
  8  9  1  0
  9 10  2  0
 10 11  1  0
 11 12  2  0
  2 13  1  0
 13 14  1  6
 14 15  1  0
 16 15  1  6
 16 17  1  0
 17 18  1  1
 18 19  1  6
 18 20  1  0
 21 20  1  1
 21 22  1  0
 22 23  1  0
 23 24  1  1
 23 25  1  0
 25 26  1  0
 26 27  1  0
 27 28  1  6
 27 29  1  0
 29 30  1  6
 30 31  1  0
 31 32  1  0
 32 33  1  6
 12  7  1  0
 32 13  1  0
 32 16  1  0
 29 17  1  0
 27 21  1  0
M  END
>  <MS_ID>  (1360) 
MS1418

>  <SMILES>  (1360) 
C[C@H](CCC(=O)c1ccccn1)[C@H]1CC[C@H]2[C@@H]3[C@@H](O)C[C@@H]4C[C@H](O)CC[C@]4(C)[C@H]3CC[C@]12C

>  <Structure_dimension>  (1360) 
2D

$$$$
MS1419
     RDKit          2D

 32 35  0  0  0  0  0  0  0  0999 V2000
   -3.2905   -3.6805    0.0000 C   0  0  0  0  0  0  0  0  0  0  0  0
   -2.3609   -2.5033    0.0000 C   0  0  0  0  0  0  0  0  0  0  0  0
   -2.9157   -1.1096    0.0000 C   0  0  0  0  0  0  0  0  0  0  0  0
   -4.4000   -0.8932    0.0000 C   0  0  0  0  0  0  0  0  0  0  0  0
   -4.9547    0.5004    0.0000 C   0  0  0  0  0  0  0  0  0  0  0  0
   -4.0251    1.6776    0.0000 O   0  0  0  0  0  0  0  0  0  0  0  0
   -6.4390    0.7168    0.0000 O   0  0  0  0  0  0  0  0  0  0  0  0
   -6.9938    2.1105    0.0000 C   0  0  0  0  0  0  0  0  0  0  0  0
   -8.3874    1.5557    0.0000 C   0  0  0  0  0  0  0  0  0  0  0  0
   -5.6001    2.6652    0.0000 C   0  0  0  0  0  0  0  0  0  0  0  0
   -7.5485    3.5041    0.0000 C   0  0  0  0  0  0  0  0  0  0  0  0
   -0.8766   -2.7197    0.0000 C   0  0  0  0  0  0  0  0  0  0  0  0
   -0.1792   -4.0477    0.0000 C   0  0  0  0  0  0  0  0  0  0  0  0
    1.2993   -3.7949    0.0000 C   0  0  0  0  0  0  0  0  0  0  0  0
    1.5157   -2.3106    0.0000 C   0  0  0  0  0  0  0  0  0  0  0  0
    2.7636   -1.4782    0.0000 C   0  0  0  0  0  0  0  0  0  0  0  0
    4.1084   -2.1427    0.0000 C   0  0  0  0  0  0  0  0  0  0  0  0
    5.3562   -1.3103    0.0000 C   0  0  0  0  0  0  0  0  0  0  0  0
    5.2593    0.1866    0.0000 C   0  0  0  0  0  0  0  0  0  0  0  0
    6.5071    1.0189    0.0000 C   0  0  0  0  0  0  0  0  0  0  0  0
    6.4102    2.5158    0.0000 C   0  0  0  0  0  0  0  0  0  0  0  0
    7.6581    3.3482    0.0000 O   0  0  0  0  0  0  0  0  0  0  0  0
    5.0654    3.1803    0.0000 C   0  0  0  0  0  0  0  0  0  0  0  0
    3.8176    2.3479    0.0000 C   0  0  0  0  0  0  0  0  0  0  0  0
    3.9145    0.8511    0.0000 C   0  0  0  0  0  0  0  0  0  0  0  0
    2.5697    1.5155    0.0000 C   0  0  0  0  0  0  0  0  0  0  0  0
    2.6666    0.0187    0.0000 C   0  0  0  0  0  0  0  0  0  0  0  0
    1.3218    0.6832    0.0000 C   0  0  0  0  0  0  0  0  0  0  0  0
    0.0740   -0.1492    0.0000 C   0  0  0  0  0  0  0  0  0  0  0  0
   -1.2708    0.5153    0.0000 O   0  0  0  0  0  0  0  0  0  0  0  0
    0.1709   -1.6461    0.0000 C   0  0  0  0  0  0  0  0  0  0  0  0
   -1.2360   -1.1258    0.0000 C   0  0  0  0  0  0  0  0  0  0  0  0
  2  1  1  6
  2  3  1  0
  3  4  1  0
  4  5  1  0
  5  6  2  0
  5  7  1  0
  7  8  1  0
  8  9  1  0
  8 10  1  0
  8 11  1  0
  2 12  1  0
 12 13  1  6
 13 14  1  0
 15 14  1  6
 15 16  1  0
 16 17  1  1
 17 18  1  0
 19 18  1  1
 19 20  1  0
 20 21  1  0
 21 22  1  1
 21 23  1  0
 23 24  1  0
 24 25  1  0
 25 26  1  6
 25 27  1  0
 27 28  1  6
 28 29  1  0
 29 30  1  1
 29 31  1  0
 31 32  1  6
 31 12  1  0
 31 15  1  0
 27 16  1  0
 25 19  1  0
M  END
>  <MS_ID>  (1361) 
MS1419

>  <SMILES>  (1361) 
C[C@H](CCC(=O)OC(C)(C)C)[C@H]1CC[C@H]2[C@@H]3CC[C@@H]4C[C@H](O)CC[C@]4(C)[C@H]3C[C@H](O)[C@]12C

>  <Structure_dimension>  (1361) 
2D

$$$$
MS1420
     RDKit          2D

 33 36  0  0  0  0  0  0  0  0999 V2000
   -3.5680   -3.6181    0.0000 C   0  0  0  0  0  0  0  0  0  0  0  0
   -2.6378   -2.4414    0.0000 C   0  0  0  0  0  0  0  0  0  0  0  0
   -3.1919   -1.0474    0.0000 C   0  0  0  0  0  0  0  0  0  0  0  0
   -4.6761   -0.8302    0.0000 C   0  0  0  0  0  0  0  0  0  0  0  0
   -5.2301    0.5637    0.0000 C   0  0  0  0  0  0  0  0  0  0  0  0
   -4.2999    1.7405    0.0000 O   0  0  0  0  0  0  0  0  0  0  0  0
   -6.7143    0.7809    0.0000 N   0  0  0  0  0  0  0  0  0  0  0  0
   -7.2683    2.1748    0.0000 C   0  0  0  0  0  0  0  0  0  0  0  0
   -8.7525    2.3920    0.0000 C   0  0  0  0  0  0  0  0  0  0  0  0
   -9.6827    1.2152    0.0000 O   0  0  0  0  0  0  0  0  0  0  0  0
   -9.3065    3.7859    0.0000 O   0  0  0  0  0  0  0  0  0  0  0  0
   -1.1536   -2.6585    0.0000 C   0  0  0  0  0  0  0  0  0  0  0  0
   -0.4570   -3.9869    0.0000 C   0  0  0  0  0  0  0  0  0  0  0  0
    1.0217   -3.7348    0.0000 C   0  0  0  0  0  0  0  0  0  0  0  0
    1.2389   -2.2506    0.0000 C   0  0  0  0  0  0  0  0  0  0  0  0
    2.4872   -1.4189    0.0000 C   0  0  0  0  0  0  0  0  0  0  0  0
    3.8316   -2.0841    0.0000 C   0  0  0  0  0  0  0  0  0  0  0  0
    3.9278   -3.5810    0.0000 O   0  0  0  0  0  0  0  0  0  0  0  0
    5.0799   -1.2524    0.0000 C   0  0  0  0  0  0  0  0  0  0  0  0
    4.9838    0.2446    0.0000 C   0  0  0  0  0  0  0  0  0  0  0  0
    6.2320    1.0763    0.0000 C   0  0  0  0  0  0  0  0  0  0  0  0
    6.1359    2.5732    0.0000 C   0  0  0  0  0  0  0  0  0  0  0  0
    7.3842    3.4049    0.0000 C   0  0  0  0  0  0  0  0  0  0  0  0
    8.7286    2.7398    0.0000 O   0  0  0  0  0  0  0  0  0  0  0  0
    4.7914    3.2384    0.0000 C   0  0  0  0  0  0  0  0  0  0  0  0
    3.5432    2.4067    0.0000 C   0  0  0  0  0  0  0  0  0  0  0  0
    3.6393    0.9098    0.0000 C   0  0  0  0  0  0  0  0  0  0  0  0
    2.2949    1.5749    0.0000 C   0  0  0  0  0  0  0  0  0  0  0  0
    2.3910    0.0780    0.0000 C   0  0  0  0  0  0  0  0  0  0  0  0
    1.0466    0.7432    0.0000 C   0  0  0  0  0  0  0  0  0  0  0  0
   -0.2017   -0.0885    0.0000 C   0  0  0  0  0  0  0  0  0  0  0  0
   -0.1056   -1.5854    0.0000 C   0  0  0  0  0  0  0  0  0  0  0  0
   -1.5122   -1.0644    0.0000 C   0  0  0  0  0  0  0  0  0  0  0  0
  2  1  1  6
  2  3  1  0
  3  4  1  0
  4  5  1  0
  5  6  2  0
  5  7  1  0
  7  8  1  0
  8  9  1  0
  9 10  2  0
  9 11  1  0
  2 12  1  0
 12 13  1  6
 13 14  1  0
 15 14  1  6
 15 16  1  0
 16 17  1  1
 17 18  1  6
 17 19  1  0
 20 19  1  1
 20 21  1  0
 21 22  1  0
 22 23  1  1
 23 24  2  0
 22 25  1  0
 25 26  1  0
 26 27  1  0
 27 28  1  6
 27 29  1  0
 29 30  1  6
 30 31  1  0
 31 32  1  0
 32 33  1  6
 32 12  1  0
 32 15  1  0
 29 16  1  0
 27 20  1  0
M  END
>  <MS_ID>  (1362) 
MS1420

>  <SMILES>  (1362) 
C[C@H](CCC(=O)NCC(=O)O)[C@H]1CC[C@H]2[C@@H]3[C@@H](O)C[C@@H]4C[C@H](C=O)CC[C@]4(C)[C@H]3CC[C@]12C

>  <Structure_dimension>  (1362) 
2D

$$$$
MS1421
     RDKit          2D

 33 36  0  0  0  0  0  0  0  0999 V2000
   -2.7798   -3.8103    0.0000 C   0  0  0  0  0  0  0  0  0  0  0  0
   -1.9338   -2.5716    0.0000 C   0  0  0  0  0  0  0  0  0  0  0  0
   -2.5835   -1.2196    0.0000 C   0  0  0  0  0  0  0  0  0  0  0  0
   -4.0792   -1.1063    0.0000 C   0  0  0  0  0  0  0  0  0  0  0  0
   -4.7289    0.2457    0.0000 C   0  0  0  0  0  0  0  0  0  0  0  0
   -3.8829    1.4843    0.0000 O   0  0  0  0  0  0  0  0  0  0  0  0
   -6.2246    0.3590    0.0000 C   0  0  0  0  0  0  0  0  0  0  0  0
   -6.8743    1.7110    0.0000 O   0  0  0  0  0  0  0  0  0  0  0  0
   -8.3700    1.8244    0.0000 S   0  0  0  0  0  0  0  0  0  0  0  0
   -8.4834    0.3287    0.0000 O   0  0  0  0  0  0  0  0  0  0  0  0
   -8.2567    3.3201    0.0000 O   0  0  0  0  0  0  0  0  0  0  0  0
   -9.8657    1.9377    0.0000 O   0  0  0  0  0  0  0  0  0  0  0  0
   -0.4381   -2.6850    0.0000 C   0  0  0  0  0  0  0  0  0  0  0  0
    0.3494   -3.9617    0.0000 C   0  0  0  0  0  0  0  0  0  0  0  0
    1.8069   -3.6073    0.0000 C   0  0  0  0  0  0  0  0  0  0  0  0
    1.9202   -2.1116    0.0000 C   0  0  0  0  0  0  0  0  0  0  0  0
    3.1076   -1.1950    0.0000 C   0  0  0  0  0  0  0  0  0  0  0  0
    4.4951   -1.7650    0.0000 C   0  0  0  0  0  0  0  0  0  0  0  0
    4.6952   -3.2515    0.0000 O   0  0  0  0  0  0  0  0  0  0  0  0
    5.6825   -0.8484    0.0000 C   0  0  0  0  0  0  0  0  0  0  0  0
    5.4824    0.6382    0.0000 C   0  0  0  0  0  0  0  0  0  0  0  0
    6.6697    1.5548    0.0000 C   0  0  0  0  0  0  0  0  0  0  0  0
    6.4696    3.0414    0.0000 C   0  0  0  0  0  0  0  0  0  0  0  0
    7.6570    3.9580    0.0000 O   0  0  0  0  0  0  0  0  0  0  0  0
    5.0821    3.6114    0.0000 C   0  0  0  0  0  0  0  0  0  0  0  0
    3.8948    2.6948    0.0000 C   0  0  0  0  0  0  0  0  0  0  0  0
    4.0949    1.2082    0.0000 C   0  0  0  0  0  0  0  0  0  0  0  0
    2.7074    1.7782    0.0000 C   0  0  0  0  0  0  0  0  0  0  0  0
    2.9075    0.2916    0.0000 C   0  0  0  0  0  0  0  0  0  0  0  0
    1.5200    0.8616    0.0000 C   0  0  0  0  0  0  0  0  0  0  0  0
    0.3327   -0.0550    0.0000 C   0  0  0  0  0  0  0  0  0  0  0  0
    0.5328   -1.5416    0.0000 C   0  0  0  0  0  0  0  0  0  0  0  0
   -0.9067   -1.1197    0.0000 C   0  0  0  0  0  0  0  0  0  0  0  0
  2  1  1  6
  2  3  1  0
  3  4  1  0
  4  5  1  0
  5  6  2  0
  5  7  1  0
  7  8  1  0
  8  9  1  0
  9 10  2  0
  9 11  2  0
  9 12  1  0
  2 13  1  0
 13 14  1  6
 14 15  1  0
 16 15  1  6
 16 17  1  0
 17 18  1  1
 18 19  1  1
 18 20  1  0
 21 20  1  1
 21 22  1  0
 22 23  1  0
 23 24  2  0
 23 25  1  0
 25 26  1  0
 26 27  1  0
 27 28  1  6
 27 29  1  0
 29 30  1  6
 30 31  1  0
 31 32  1  0
 32 33  1  6
 32 13  1  0
 32 16  1  0
 29 17  1  0
 27 21  1  0
M  END
>  <MS_ID>  (1363) 
MS1421

>  <SMILES>  (1363) 
C[C@H](CCC(=O)COS(=O)(=O)O)[C@H]1CC[C@H]2[C@@H]3[C@H](O)C[C@@H]4CC(=O)CC[C@]4(C)[C@H]3CC[C@]12C

>  <Structure_dimension>  (1363) 
2D

$$$$
MS1422
     RDKit          2D

 41 45  0  0  0  0  0  0  0  0999 V2000
   -8.0057   -2.0238    0.0000 C   0  0  0  0  0  0  0  0  0  0  0  0
   -6.8555   -1.0610    0.0000 C   0  0  0  0  0  0  0  0  0  0  0  0
   -7.1143    0.4165    0.0000 C   0  0  0  0  0  0  0  0  0  0  0  0
   -8.5233    0.9312    0.0000 C   0  0  0  0  0  0  0  0  0  0  0  0
   -8.7820    2.4087    0.0000 C   0  0  0  0  0  0  0  0  0  0  0  0
   -7.6318    3.3716    0.0000 O   0  0  0  0  0  0  0  0  0  0  0  0
  -10.1910    2.9234    0.0000 O   0  0  0  0  0  0  0  0  0  0  0  0
   -5.4466   -1.5756    0.0000 C   0  0  0  0  0  0  0  0  0  0  0  0
   -5.0348   -3.0180    0.0000 C   0  0  0  0  0  0  0  0  0  0  0  0
   -3.5358   -3.0721    0.0000 C   0  0  0  0  0  0  0  0  0  0  0  0
   -3.0211   -1.6631    0.0000 C   0  0  0  0  0  0  0  0  0  0  0  0
   -1.6297   -1.1028    0.0000 C   0  0  0  0  0  0  0  0  0  0  0  0
   -0.4488   -2.0277    0.0000 C   0  0  0  0  0  0  0  0  0  0  0  0
   -0.6592   -3.5128    0.0000 O   0  0  0  0  0  0  0  0  0  0  0  0
    0.9427   -1.4674    0.0000 C   0  0  0  0  0  0  0  0  0  0  0  0
    1.1531    0.0178    0.0000 C   0  0  0  0  0  0  0  0  0  0  0  0
    2.5446    0.5781    0.0000 C   0  0  0  0  0  0  0  0  0  0  0  0
    2.7550    2.0632    0.0000 C   0  0  0  0  0  0  0  0  0  0  0  0
    4.1465    2.6235    0.0000 O   0  0  0  0  0  0  0  0  0  0  0  0
    5.3274    1.6987    0.0000 C   0  0  0  0  0  0  0  0  0  0  0  0
    5.1169    0.2135    0.0000 O   0  0  0  0  0  0  0  0  0  0  0  0
    6.2979   -0.7113    0.0000 C   0  0  0  0  0  0  0  0  0  0  0  0
    6.0874   -2.1965    0.0000 C   0  0  0  0  0  0  0  0  0  0  0  0
    4.6960   -2.7568    0.0000 S   0  0  0  0  0  0  0  0  0  0  0  0
    4.4855   -4.2420    0.0000 N   0  0  0  0  0  0  0  0  0  0  0  0
    3.0941   -4.8023    0.0000 O   0  0  0  0  0  0  0  0  0  0  0  0
    7.6893   -0.1510    0.0000 C   0  0  0  0  0  0  0  0  0  0  0  0
    8.8703   -1.0759    0.0000 O   0  0  0  0  0  0  0  0  0  0  0  0
    7.8998    1.3341    0.0000 C   0  0  0  0  0  0  0  0  0  0  0  0
    9.2912    1.8944    0.0000 O   0  0  0  0  0  0  0  0  0  0  0  0
    6.7188    2.2590    0.0000 C   0  0  0  0  0  0  0  0  0  0  0  0
    6.9293    3.7442    0.0000 O   0  0  0  0  0  0  0  0  0  0  0  0
    1.5741    2.9881    0.0000 C   0  0  0  0  0  0  0  0  0  0  0  0
    0.1827    2.4278    0.0000 C   0  0  0  0  0  0  0  0  0  0  0  0
   -0.0278    0.9426    0.0000 C   0  0  0  0  0  0  0  0  0  0  0  0
   -1.2088    1.8675    0.0000 C   0  0  0  0  0  0  0  0  0  0  0  0
   -1.4192    0.3823    0.0000 C   0  0  0  0  0  0  0  0  0  0  0  0
   -2.6002    1.3072    0.0000 C   0  0  0  0  0  0  0  0  0  0  0  0
   -3.9916    0.7469    0.0000 C   0  0  0  0  0  0  0  0  0  0  0  0
   -4.2021   -0.7383    0.0000 C   0  0  0  0  0  0  0  0  0  0  0  0
   -5.4732    0.0581    0.0000 C   0  0  0  0  0  0  0  0  0  0  0  0
  2  1  1  6
  2  3  1  0
  3  4  1  0
  4  5  1  0
  5  6  2  0
  5  7  1  0
  2  8  1  0
  8  9  1  6
  9 10  1  0
 11 10  1  6
 11 12  1  0
 12 13  1  1
 13 14  1  6
 13 15  1  0
 16 15  1  1
 16 17  1  0
 17 18  1  0
 18 19  1  1
 20 19  1  1
 20 21  1  0
 21 22  1  0
 22 23  1  1
 23 24  1  0
 24 25  1  0
 25 26  2  0
 22 27  1  0
 27 28  1  6
 27 29  1  0
 29 30  1  1
 29 31  1  0
 31 32  1  6
 18 33  1  0
 33 34  1  0
 34 35  1  0
 35 36  1  6
 35 37  1  0
 37 38  1  6
 38 39  1  0
 39 40  1  0
 40 41  1  6
 40  8  1  0
 40 11  1  0
 37 12  1  0
 35 16  1  0
 31 20  1  0
M  END
>  <MS_ID>  (1364) 
MS1422

>  <SMILES>  (1364) 
C[C@H](CCC(=O)O)[C@H]1CC[C@H]2[C@@H]3[C@@H](O)C[C@@H]4C[C@H](O[C@@H]5O[C@H](CSN=O)[C@@H](O)[C@H](O)[C@H]5O)CC[C@]4(C)[C@H]3CC[C@]12C

>  <Structure_dimension>  (1364) 
2D

$$$$
MS1424
     RDKit          2D

 29 32  0  0  0  0  0  0  0  0999 V2000
   -5.0303   -2.1373    0.0000 C   0  0  0  0  0  0  0  0  0  0  0  0
   -3.8594   -1.1998    0.0000 C   0  0  0  0  0  0  0  0  0  0  0  0
   -4.0858    0.2830    0.0000 C   0  0  0  0  0  0  0  0  0  0  0  0
   -5.4831    0.8284    0.0000 C   0  0  0  0  0  0  0  0  0  0  0  0
   -5.7095    2.3112    0.0000 C   0  0  0  0  0  0  0  0  0  0  0  0
   -4.5386    3.2487    0.0000 O   0  0  0  0  0  0  0  0  0  0  0  0
   -7.1069    2.8565    0.0000 O   0  0  0  0  0  0  0  0  0  0  0  0
   -2.4620   -1.7451    0.0000 C   0  0  0  0  0  0  0  0  0  0  0  0
   -2.0818   -3.1961    0.0000 C   0  0  0  0  0  0  0  0  0  0  0  0
   -0.5844   -3.2830    0.0000 C   0  0  0  0  0  0  0  0  0  0  0  0
   -0.0390   -1.8856    0.0000 C   0  0  0  0  0  0  0  0  0  0  0  0
    1.3643   -1.3559    0.0000 C   0  0  0  0  0  0  0  0  0  0  0  0
    2.5248   -2.3063    0.0000 C   0  0  0  0  0  0  0  0  0  0  0  0
    2.2819   -3.7865    0.0000 S   0  0  0  0  0  0  0  0  0  0  0  0
    3.9281   -1.7765    0.0000 C   0  0  0  0  0  0  0  0  0  0  0  0
    4.1710   -0.2963    0.0000 C   0  0  0  0  0  0  0  0  0  0  0  0
    5.5743    0.2334    0.0000 C   0  0  0  0  0  0  0  0  0  0  0  0
    5.8172    1.7136    0.0000 C   0  0  0  0  0  0  0  0  0  0  0  0
    7.2205    2.2434    0.0000 O   0  0  0  0  0  0  0  0  0  0  0  0
    4.6568    2.6641    0.0000 C   0  0  0  0  0  0  0  0  0  0  0  0
    3.2534    2.1343    0.0000 C   0  0  0  0  0  0  0  0  0  0  0  0
    3.0105    0.6541    0.0000 C   0  0  0  0  0  0  0  0  0  0  0  0
    1.8501    1.6046    0.0000 C   0  0  0  0  0  0  0  0  0  0  0  0
    1.6072    0.1244    0.0000 C   0  0  0  0  0  0  0  0  0  0  0  0
    0.4467    1.0748    0.0000 C   0  0  0  0  0  0  0  0  0  0  0  0
   -0.9566    0.5450    0.0000 C   0  0  0  0  0  0  0  0  0  0  0  0
   -2.1170    1.4955    0.0000 O   0  0  0  0  0  0  0  0  0  0  0  0
   -1.1995   -0.9352    0.0000 C   0  0  0  0  0  0  0  0  0  0  0  0
   -2.4529   -0.1112    0.0000 C   0  0  0  0  0  0  0  0  0  0  0  0
  2  1  1  6
  2  3  1  0
  3  4  1  0
  4  5  1  0
  5  6  2  0
  5  7  1  0
  2  8  1  0
  8  9  1  6
  9 10  1  0
 11 10  1  6
 11 12  1  0
 12 13  1  1
 13 14  2  0
 13 15  1  0
 16 15  1  1
 16 17  1  0
 17 18  1  0
 18 19  1  1
 18 20  1  0
 20 21  1  0
 21 22  1  0
 22 23  1  6
 22 24  1  0
 24 25  1  6
 25 26  1  0
 26 27  1  1
 26 28  1  0
 28 29  1  6
 28  8  1  0
 28 11  1  0
 24 12  1  0
 22 16  1  0
M  END
>  <MS_ID>  (1365) 
MS1424

>  <SMILES>  (1365) 
C[C@H](CCC(=O)O)[C@H]1CC[C@H]2[C@@H]3C(=S)C[C@@H]4C[C@H](O)CC[C@]4(C)[C@H]3C[C@H](O)[C@]12C

>  <Structure_dimension>  (1365) 
2D

$$$$
MS1425
     RDKit          2D

 34 37  0  0  0  0  0  0  0  0999 V2000
   -2.4568   -4.7952    0.0000 C   0  0  0  0  0  0  0  0  0  0  0  0
   -1.7674   -3.4630    0.0000 C   0  0  0  0  0  0  0  0  0  0  0  0
   -2.5765   -2.1999    0.0000 C   0  0  0  0  0  0  0  0  0  0  0  0
   -4.0749   -2.2690    0.0000 C   0  0  0  0  0  0  0  0  0  0  0  0
   -4.8839   -1.0059    0.0000 C   0  0  0  0  0  0  0  0  0  0  0  0
   -6.3823   -1.0749    0.0000 O   0  0  0  0  0  0  0  0  0  0  0  0
   -4.1946    0.3264    0.0000 O   0  0  0  0  0  0  0  0  0  0  0  0
   -5.0036    1.5895    0.0000 C   0  0  0  0  0  0  0  0  0  0  0  0
   -6.5020    1.5204    0.0000 O   0  0  0  0  0  0  0  0  0  0  0  0
   -4.3142    2.9217    0.0000 C   0  0  0  0  0  0  0  0  0  0  0  0
   -5.1233    4.1848    0.0000 C   0  0  0  0  0  0  0  0  0  0  0  0
   -6.6217    4.1157    0.0000 O   0  0  0  0  0  0  0  0  0  0  0  0
   -4.4339    5.5170    0.0000 O   0  0  0  0  0  0  0  0  0  0  0  0
   -0.2690   -3.3939    0.0000 C   0  0  0  0  0  0  0  0  0  0  0  0
    0.6676   -4.5655    0.0000 C   0  0  0  0  0  0  0  0  0  0  0  0
    2.0713   -4.0368    0.0000 C   0  0  0  0  0  0  0  0  0  0  0  0
    2.0022   -2.5384    0.0000 C   0  0  0  0  0  0  0  0  0  0  0  0
    3.0695   -1.4844    0.0000 C   0  0  0  0  0  0  0  0  0  0  0  0
    4.5160   -1.8817    0.0000 C   0  0  0  0  0  0  0  0  0  0  0  0
    5.5833   -0.8277    0.0000 C   0  0  0  0  0  0  0  0  0  0  0  0
    5.2041    0.6236    0.0000 C   0  0  0  0  0  0  0  0  0  0  0  0
    6.2715    1.6775    0.0000 C   0  0  0  0  0  0  0  0  0  0  0  0
    5.8923    3.1288    0.0000 C   0  0  0  0  0  0  0  0  0  0  0  0
    6.9596    4.1828    0.0000 O   0  0  0  0  0  0  0  0  0  0  0  0
    4.4459    3.5262    0.0000 C   0  0  0  0  0  0  0  0  0  0  0  0
    3.3786    2.4722    0.0000 C   0  0  0  0  0  0  0  0  0  0  0  0
    3.7577    1.0209    0.0000 C   0  0  0  0  0  0  0  0  0  0  0  0
    2.3113    1.4182    0.0000 C   0  0  0  0  0  0  0  0  0  0  0  0
    2.6904   -0.0331    0.0000 C   0  0  0  0  0  0  0  0  0  0  0  0
    1.2440    0.3642    0.0000 C   0  0  0  0  0  0  0  0  0  0  0  0
    0.1767   -0.6897    0.0000 C   0  0  0  0  0  0  0  0  0  0  0  0
   -1.2697   -0.2924    0.0000 O   0  0  0  0  0  0  0  0  0  0  0  0
    0.5558   -2.1410    0.0000 C   0  0  0  0  0  0  0  0  0  0  0  0
   -0.9242   -1.8971    0.0000 C   0  0  0  0  0  0  0  0  0  0  0  0
  2  1  1  6
  2  3  1  0
  3  4  1  0
  4  5  1  0
  5  6  2  0
  5  7  1  0
  7  8  1  0
  8  9  2  0
  8 10  1  0
 10 11  1  0
 11 12  2  0
 11 13  1  0
  2 14  1  0
 14 15  1  6
 15 16  1  0
 17 16  1  6
 17 18  1  0
 18 19  1  1
 19 20  1  0
 21 20  1  1
 21 22  1  0
 22 23  1  0
 23 24  1  1
 23 25  1  0
 25 26  1  0
 26 27  1  0
 27 28  1  6
 27 29  1  0
 29 30  1  6
 30 31  1  0
 31 32  1  1
 31 33  1  0
 33 34  1  6
 33 14  1  0
 33 17  1  0
 29 18  1  0
 27 21  1  0
M  END
>  <MS_ID>  (1366) 
MS1425

>  <SMILES>  (1366) 
C[C@H](CCC(=O)OC(=O)CC(=O)O)[C@H]1CC[C@H]2[C@@H]3CC[C@@H]4C[C@H](O)CC[C@]4(C)[C@H]3C[C@H](O)[C@]12C

>  <Structure_dimension>  (1366) 
2D

$$$$
MS1426
     RDKit          2D

 34 37  0  0  0  0  0  0  0  0999 V2000
   -3.5177   -3.6398    0.0000 C   0  0  0  0  0  0  0  0  0  0  0  0
   -2.5891   -2.4618    0.0000 C   0  0  0  0  0  0  0  0  0  0  0  0
   -3.1450   -1.0686    0.0000 C   0  0  0  0  0  0  0  0  0  0  0  0
   -4.6294   -0.8534    0.0000 C   0  0  0  0  0  0  0  0  0  0  0  0
   -5.1853    0.5398    0.0000 C   0  0  0  0  0  0  0  0  0  0  0  0
   -4.2567    1.7178    0.0000 O   0  0  0  0  0  0  0  0  0  0  0  0
   -6.6698    0.7551    0.0000 C   0  0  0  0  0  0  0  0  0  0  0  0
   -7.2257    2.1483    0.0000 C   0  0  0  0  0  0  0  0  0  0  0  0
   -8.7102    2.3635    0.0000 C   0  0  0  0  0  0  0  0  0  0  0  0
   -9.6388    1.1855    0.0000 O   0  0  0  0  0  0  0  0  0  0  0  0
   -9.2660    3.7567    0.0000 O   0  0  0  0  0  0  0  0  0  0  0  0
   -1.1046   -2.6770    0.0000 C   0  0  0  0  0  0  0  0  0  0  0  0
   -0.4062   -4.0044    0.0000 C   0  0  0  0  0  0  0  0  0  0  0  0
    1.0722   -3.7504    0.0000 C   0  0  0  0  0  0  0  0  0  0  0  0
    1.2874   -2.2659    0.0000 C   0  0  0  0  0  0  0  0  0  0  0  0
    2.5346   -1.4325    0.0000 C   0  0  0  0  0  0  0  0  0  0  0  0
    3.8799   -2.0959    0.0000 C   0  0  0  0  0  0  0  0  0  0  0  0
    3.9780   -3.5927    0.0000 O   0  0  0  0  0  0  0  0  0  0  0  0
    5.1271   -1.2625    0.0000 C   0  0  0  0  0  0  0  0  0  0  0  0
    5.0289    0.2343    0.0000 C   0  0  0  0  0  0  0  0  0  0  0  0
    6.2761    1.0677    0.0000 C   0  0  0  0  0  0  0  0  0  0  0  0
    6.1780    2.5645    0.0000 C   0  0  0  0  0  0  0  0  0  0  0  0
    7.4251    3.3978    0.0000 C   0  0  0  0  0  0  0  0  0  0  0  0
    8.7705    2.7344    0.0000 O   0  0  0  0  0  0  0  0  0  0  0  0
    4.8326    3.2279    0.0000 C   0  0  0  0  0  0  0  0  0  0  0  0
    3.5855    2.3945    0.0000 C   0  0  0  0  0  0  0  0  0  0  0  0
    3.6836    0.8977    0.0000 C   0  0  0  0  0  0  0  0  0  0  0  0
    2.3383    1.5611    0.0000 C   0  0  0  0  0  0  0  0  0  0  0  0
    2.4364    0.0643    0.0000 C   0  0  0  0  0  0  0  0  0  0  0  0
    1.0911    0.7277    0.0000 C   0  0  0  0  0  0  0  0  0  0  0  0
   -0.1561   -0.1057    0.0000 C   0  0  0  0  0  0  0  0  0  0  0  0
   -1.5014    0.5577    0.0000 O   0  0  0  0  0  0  0  0  0  0  0  0
   -0.0580   -1.6025    0.0000 C   0  0  0  0  0  0  0  0  0  0  0  0
   -1.4653   -1.0833    0.0000 C   0  0  0  0  0  0  0  0  0  0  0  0
  2  1  1  6
  2  3  1  0
  3  4  1  0
  4  5  1  0
  5  6  2  0
  5  7  1  0
  7  8  1  0
  8  9  1  0
  9 10  2  0
  9 11  1  0
  2 12  1  0
 12 13  1  6
 13 14  1  0
 15 14  1  6
 15 16  1  0
 16 17  1  1
 17 18  1  6
 17 19  1  0
 20 19  1  1
 20 21  1  0
 21 22  1  0
 22 23  1  1
 23 24  1  0
 22 25  1  0
 25 26  1  0
 26 27  1  0
 27 28  1  6
 27 29  1  0
 29 30  1  6
 30 31  1  0
 31 32  1  1
 31 33  1  0
 33 34  1  6
 33 12  1  0
 33 15  1  0
 29 16  1  0
 27 20  1  0
M  END
>  <MS_ID>  (1367) 
MS1426

>  <SMILES>  (1367) 
C[C@H](CCC(=O)CCC(=O)O)[C@H]1CC[C@H]2[C@@H]3[C@@H](O)C[C@@H]4C[C@H](CO)CC[C@]4(C)[C@H]3C[C@H](O)[C@]12C

>  <Structure_dimension>  (1367) 
2D

$$$$
MS1427
     RDKit          2D

 29 32  0  0  0  0  0  0  0  0999 V2000
   -4.1361   -2.8778    0.0000 C   0  0  0  0  0  0  0  0  0  0  0  0
   -3.1227   -1.7719    0.0000 C   0  0  0  0  0  0  0  0  0  0  0  0
   -3.5738   -0.3413    0.0000 C   0  0  0  0  0  0  0  0  0  0  0  0
   -5.0383   -0.0167    0.0000 C   0  0  0  0  0  0  0  0  0  0  0  0
   -5.4894    1.4138    0.0000 C   0  0  0  0  0  0  0  0  0  0  0  0
   -4.4761    2.5198    0.0000 O   0  0  0  0  0  0  0  0  0  0  0  0
   -6.9539    1.7384    0.0000 C   0  0  0  0  0  0  0  0  0  0  0  0
   -7.4050    3.1690    0.0000 S   0  0  0  0  0  0  0  0  0  0  0  0
   -1.6583   -2.0965    0.0000 C   0  0  0  0  0  0  0  0  0  0  0  0
   -1.0601   -3.4720    0.0000 C   0  0  0  0  0  0  0  0  0  0  0  0
    0.4330   -3.3282    0.0000 C   0  0  0  0  0  0  0  0  0  0  0  0
    0.7576   -1.8638    0.0000 C   0  0  0  0  0  0  0  0  0  0  0  0
    2.0631   -1.1251    0.0000 C   0  0  0  0  0  0  0  0  0  0  0  0
    3.3556   -1.8863    0.0000 C   0  0  0  0  0  0  0  0  0  0  0  0
    3.3426   -3.3863    0.0000 O   0  0  0  0  0  0  0  0  0  0  0  0
    4.6611   -1.1476    0.0000 C   0  0  0  0  0  0  0  0  0  0  0  0
    4.6741    0.3523    0.0000 C   0  0  0  0  0  0  0  0  0  0  0  0
    5.9796    1.0910    0.0000 C   0  0  0  0  0  0  0  0  0  0  0  0
    5.9926    2.5910    0.0000 C   0  0  0  0  0  0  0  0  0  0  0  0
    4.7002    3.3522    0.0000 C   0  0  0  0  0  0  0  0  0  0  0  0
    3.3947    2.6135    0.0000 C   0  0  0  0  0  0  0  0  0  0  0  0
    3.3816    1.1136    0.0000 C   0  0  0  0  0  0  0  0  0  0  0  0
    2.0891    1.8748    0.0000 C   0  0  0  0  0  0  0  0  0  0  0  0
    2.0761    0.3749    0.0000 C   0  0  0  0  0  0  0  0  0  0  0  0
    0.7836    1.1361    0.0000 C   0  0  0  0  0  0  0  0  0  0  0  0
   -0.5219    0.3974    0.0000 C   0  0  0  0  0  0  0  0  0  0  0  0
   -1.8143    1.1587    0.0000 O   0  0  0  0  0  0  0  0  0  0  0  0
   -0.5349   -1.1025    0.0000 C   0  0  0  0  0  0  0  0  0  0  0  0
   -1.8998   -0.4805    0.0000 C   0  0  0  0  0  0  0  0  0  0  0  0
  2  1  1  6
  2  3  1  0
  3  4  1  0
  4  5  1  0
  5  6  2  0
  5  7  1  0
  7  8  1  0
  2  9  1  0
  9 10  1  6
 10 11  1  0
 12 11  1  6
 12 13  1  0
 13 14  1  1
 14 15  1  6
 14 16  1  0
 17 16  1  1
 17 18  1  0
 18 19  1  0
 19 20  1  0
 20 21  1  0
 21 22  1  0
 22 23  1  6
 22 24  1  0
 24 25  1  6
 25 26  1  0
 26 27  1  1
 26 28  1  0
 28 29  1  6
 28  9  1  0
 28 12  1  0
 24 13  1  0
 22 17  1  0
M  END
>  <MS_ID>  (1368) 
MS1427

>  <SMILES>  (1368) 
C[C@H](CCC(=O)CS)[C@H]1CC[C@H]2[C@@H]3[C@@H](O)C[C@@H]4CCCC[C@]4(C)[C@H]3C[C@H](O)[C@]12C

>  <Structure_dimension>  (1368) 
2D

$$$$
MS1428
     RDKit          2D

 30 33  0  0  0  0  0  0  0  0999 V2000
   -4.1099   -3.1124    0.0000 C   0  0  0  0  0  0  0  0  0  0  0  0
   -3.1089   -1.9953    0.0000 C   0  0  0  0  0  0  0  0  0  0  0  0
   -3.5759   -0.5698    0.0000 C   0  0  0  0  0  0  0  0  0  0  0  0
   -5.0438   -0.2615    0.0000 C   0  0  0  0  0  0  0  0  0  0  0  0
   -5.5108    1.1640    0.0000 C   0  0  0  0  0  0  0  0  0  0  0  0
   -4.5097    2.2811    0.0000 O   0  0  0  0  0  0  0  0  0  0  0  0
   -6.9787    1.4724    0.0000 O   0  0  0  0  0  0  0  0  0  0  0  0
   -7.4457    2.8978    0.0000 C   0  0  0  0  0  0  0  0  0  0  0  0
   -8.9136    3.2062    0.0000 N   0  0  0  0  0  0  0  0  0  0  0  0
   -1.6409   -2.3036    0.0000 C   0  0  0  0  0  0  0  0  0  0  0  0
   -1.0276   -3.6725    0.0000 C   0  0  0  0  0  0  0  0  0  0  0  0
    0.4638   -3.5121    0.0000 C   0  0  0  0  0  0  0  0  0  0  0  0
    0.7722   -2.0441    0.0000 C   0  0  0  0  0  0  0  0  0  0  0  0
    2.0694   -1.2910    0.0000 C   0  0  0  0  0  0  0  0  0  0  0  0
    3.3703   -2.0379    0.0000 C   0  0  0  0  0  0  0  0  0  0  0  0
    3.3739   -3.5379    0.0000 O   0  0  0  0  0  0  0  0  0  0  0  0
    4.6675   -1.2848    0.0000 C   0  0  0  0  0  0  0  0  0  0  0  0
    4.6639    0.2152    0.0000 C   0  0  0  0  0  0  0  0  0  0  0  0
    5.9611    0.9683    0.0000 C   0  0  0  0  0  0  0  0  0  0  0  0
    5.9575    2.4683    0.0000 C   0  0  0  0  0  0  0  0  0  0  0  0
    7.2548    3.2214    0.0000 O   0  0  0  0  0  0  0  0  0  0  0  0
    4.6567    3.2152    0.0000 C   0  0  0  0  0  0  0  0  0  0  0  0
    3.3595    2.4621    0.0000 C   0  0  0  0  0  0  0  0  0  0  0  0
    3.3631    0.9621    0.0000 C   0  0  0  0  0  0  0  0  0  0  0  0
    2.0622    1.7090    0.0000 C   0  0  0  0  0  0  0  0  0  0  0  0
    2.0658    0.2090    0.0000 C   0  0  0  0  0  0  0  0  0  0  0  0
    0.7650    0.9559    0.0000 C   0  0  0  0  0  0  0  0  0  0  0  0
   -0.5322    0.2027    0.0000 C   0  0  0  0  0  0  0  0  0  0  0  0
   -0.5286   -1.2973    0.0000 C   0  0  0  0  0  0  0  0  0  0  0  0
   -1.9004   -0.6904    0.0000 C   0  0  0  0  0  0  0  0  0  0  0  0
  2  1  1  6
  2  3  1  0
  3  4  1  0
  4  5  1  0
  5  6  2  0
  5  7  1  0
  7  8  1  0
  8  9  1  0
  2 10  1  0
 10 11  1  6
 11 12  1  0
 13 12  1  6
 13 14  1  0
 14 15  1  1
 15 16  1  1
 15 17  1  0
 18 17  1  1
 18 19  1  0
 19 20  1  0
 20 21  1  1
 20 22  1  0
 22 23  1  0
 23 24  1  0
 24 25  1  6
 24 26  1  0
 26 27  1  6
 27 28  1  0
 28 29  1  0
 29 30  1  6
 29 10  1  0
 29 13  1  0
 26 14  1  0
 24 18  1  0
M  END
>  <MS_ID>  (1369) 
MS1428

>  <SMILES>  (1369) 
C[C@H](CCC(=O)OCN)[C@H]1CC[C@H]2[C@@H]3[C@H](O)C[C@@H]4C[C@H](O)CC[C@]4(C)[C@H]3CC[C@]12C

>  <Structure_dimension>  (1369) 
2D

$$$$
MS1429
     RDKit          2D

 34 37  0  0  0  0  0  0  0  0999 V2000
   -2.5731   -3.9443    0.0000 C   0  0  0  0  0  0  0  0  0  0  0  0
   -1.7632   -2.6818    0.0000 C   0  0  0  0  0  0  0  0  0  0  0  0
   -2.4515   -1.3491    0.0000 C   0  0  0  0  0  0  0  0  0  0  0  0
   -3.9499   -1.2789    0.0000 C   0  0  0  0  0  0  0  0  0  0  0  0
   -4.6383    0.0539    0.0000 C   0  0  0  0  0  0  0  0  0  0  0  0
   -3.8283    1.3164    0.0000 O   0  0  0  0  0  0  0  0  0  0  0  0
   -6.1366    0.1241    0.0000 C   0  0  0  0  0  0  0  0  0  0  0  0
   -6.8250    1.4568    0.0000 O   0  0  0  0  0  0  0  0  0  0  0  0
   -8.3233    1.5270    0.0000 C   0  0  0  0  0  0  0  0  0  0  0  0
   -9.1333    0.2645    0.0000 O   0  0  0  0  0  0  0  0  0  0  0  0
   -9.0117    2.8597    0.0000 C   0  0  0  0  0  0  0  0  0  0  0  0
  -10.5101    2.9299    0.0000 O   0  0  0  0  0  0  0  0  0  0  0  0
   -0.2648   -2.7520    0.0000 C   0  0  0  0  0  0  0  0  0  0  0  0
    0.5591   -4.0055    0.0000 C   0  0  0  0  0  0  0  0  0  0  0  0
    2.0058   -3.6092    0.0000 C   0  0  0  0  0  0  0  0  0  0  0  0
    2.0760   -2.1109    0.0000 C   0  0  0  0  0  0  0  0  0  0  0  0
    3.2365   -1.1605    0.0000 C   0  0  0  0  0  0  0  0  0  0  0  0
    4.6398   -1.6902    0.0000 C   0  0  0  0  0  0  0  0  0  0  0  0
    4.8827   -3.1705    0.0000 O   0  0  0  0  0  0  0  0  0  0  0  0
    5.8003   -0.7398    0.0000 C   0  0  0  0  0  0  0  0  0  0  0  0
    5.5575    0.7404    0.0000 C   0  0  0  0  0  0  0  0  0  0  0  0
    6.7179    1.6908    0.0000 C   0  0  0  0  0  0  0  0  0  0  0  0
    6.4751    3.1710    0.0000 C   0  0  0  0  0  0  0  0  0  0  0  0
    7.6356    4.1214    0.0000 O   0  0  0  0  0  0  0  0  0  0  0  0
    5.0718    3.7008    0.0000 C   0  0  0  0  0  0  0  0  0  0  0  0
    3.9113    2.7504    0.0000 C   0  0  0  0  0  0  0  0  0  0  0  0
    4.1541    1.2702    0.0000 C   0  0  0  0  0  0  0  0  0  0  0  0
    2.7508    1.8000    0.0000 C   0  0  0  0  0  0  0  0  0  0  0  0
    2.9937    0.3198    0.0000 C   0  0  0  0  0  0  0  0  0  0  0  0
    1.5903    0.8496    0.0000 C   0  0  0  0  0  0  0  0  0  0  0  0
    0.4299   -0.1009    0.0000 C   0  0  0  0  0  0  0  0  0  0  0  0
   -0.9735    0.4289    0.0000 O   0  0  0  0  0  0  0  0  0  0  0  0
    0.6727   -1.5811    0.0000 C   0  0  0  0  0  0  0  0  0  0  0  0
   -0.7783   -1.2009    0.0000 C   0  0  0  0  0  0  0  0  0  0  0  0
  2  1  1  6
  2  3  1  0
  3  4  1  0
  4  5  1  0
  5  6  2  0
  5  7  1  0
  7  8  1  0
  8  9  1  0
  9 10  2  0
  9 11  1  0
 11 12  1  0
  2 13  1  0
 13 14  1  6
 14 15  1  0
 16 15  1  6
 16 17  1  0
 17 18  1  1
 18 19  1  1
 18 20  1  0
 21 20  1  1
 21 22  1  0
 22 23  1  0
 23 24  1  1
 23 25  1  0
 25 26  1  0
 26 27  1  0
 27 28  1  6
 27 29  1  0
 29 30  1  6
 30 31  1  0
 31 32  1  1
 31 33  1  0
 33 34  1  6
 33 13  1  0
 33 16  1  0
 29 17  1  0
 27 21  1  0
M  END
>  <MS_ID>  (1370) 
MS1429

>  <SMILES>  (1370) 
C[C@H](CCC(=O)COC(=O)CO)[C@H]1CC[C@H]2[C@@H]3[C@H](O)C[C@@H]4C[C@H](O)CC[C@]4(C)[C@H]3C[C@H](O)[C@]12C

>  <Structure_dimension>  (1370) 
2D

$$$$
MS1430
     RDKit          2D

 33 36  0  0  0  0  0  0  0  0999 V2000
   -2.3545   -4.2141    0.0000 C   0  0  0  0  0  0  0  0  0  0  0  0
   -1.5746   -2.9328    0.0000 C   0  0  0  0  0  0  0  0  0  0  0  0
   -2.2943   -1.6167    0.0000 C   0  0  0  0  0  0  0  0  0  0  0  0
   -3.7939   -1.5819    0.0000 C   0  0  0  0  0  0  0  0  0  0  0  0
   -4.5135   -0.2658    0.0000 C   0  0  0  0  0  0  0  0  0  0  0  0
   -3.7336    1.0155    0.0000 O   0  0  0  0  0  0  0  0  0  0  0  0
   -6.0131   -0.2310    0.0000 O   0  0  0  0  0  0  0  0  0  0  0  0
   -6.7328    1.0851    0.0000 C   0  0  0  0  0  0  0  0  0  0  0  0
   -8.2324    1.1199    0.0000 C   0  0  0  0  0  0  0  0  0  0  0  0
   -8.9520    2.4360    0.0000 N   0  0  0  0  0  0  0  0  0  0  0  0
  -10.4516    2.4708    0.0000 C   0  0  0  0  0  0  0  0  0  0  0  0
   -8.1721    3.7173    0.0000 C   0  0  0  0  0  0  0  0  0  0  0  0
   -0.0750   -2.9676    0.0000 C   0  0  0  0  0  0  0  0  0  0  0  0
    0.7783   -4.2012    0.0000 C   0  0  0  0  0  0  0  0  0  0  0  0
    2.2152   -3.7709    0.0000 C   0  0  0  0  0  0  0  0  0  0  0  0
    2.2500   -2.2713    0.0000 C   0  0  0  0  0  0  0  0  0  0  0  0
    3.3877   -1.2938    0.0000 C   0  0  0  0  0  0  0  0  0  0  0  0
    4.8032   -1.7903    0.0000 C   0  0  0  0  0  0  0  0  0  0  0  0
    5.9409   -0.8127    0.0000 C   0  0  0  0  0  0  0  0  0  0  0  0
    5.6632    0.6614    0.0000 C   0  0  0  0  0  0  0  0  0  0  0  0
    6.8009    1.6389    0.0000 C   0  0  0  0  0  0  0  0  0  0  0  0
    6.5231    3.1130    0.0000 C   0  0  0  0  0  0  0  0  0  0  0  0
    7.6608    4.0905    0.0000 O   0  0  0  0  0  0  0  0  0  0  0  0
    5.1077    3.6095    0.0000 C   0  0  0  0  0  0  0  0  0  0  0  0
    3.9700    2.6319    0.0000 C   0  0  0  0  0  0  0  0  0  0  0  0
    4.2477    1.1579    0.0000 C   0  0  0  0  0  0  0  0  0  0  0  0
    2.8323    1.6544    0.0000 C   0  0  0  0  0  0  0  0  0  0  0  0
    3.1100    0.1803    0.0000 C   0  0  0  0  0  0  0  0  0  0  0  0
    1.6946    0.6768    0.0000 C   0  0  0  0  0  0  0  0  0  0  0  0
    0.5569   -0.3008    0.0000 C   0  0  0  0  0  0  0  0  0  0  0  0
   -0.8586    0.1957    0.0000 O   0  0  0  0  0  0  0  0  0  0  0  0
    0.8346   -1.7748    0.0000 C   0  0  0  0  0  0  0  0  0  0  0  0
   -0.6250   -1.4290    0.0000 C   0  0  0  0  0  0  0  0  0  0  0  0
  2  1  1  6
  2  3  1  0
  3  4  1  0
  4  5  1  0
  5  6  2  0
  5  7  1  0
  7  8  1  0
  8  9  1  0
  9 10  1  0
 10 11  1  0
 10 12  1  0
  2 13  1  0
 13 14  1  6
 14 15  1  0
 16 15  1  6
 16 17  1  0
 17 18  1  1
 18 19  1  0
 20 19  1  1
 20 21  1  0
 21 22  1  0
 22 23  1  1
 22 24  1  0
 24 25  1  0
 25 26  1  0
 26 27  1  6
 26 28  1  0
 28 29  1  6
 29 30  1  0
 30 31  1  1
 30 32  1  0
 32 33  1  6
 32 13  1  0
 32 16  1  0
 28 17  1  0
 26 20  1  0
M  END
>  <MS_ID>  (1371) 
MS1430

>  <SMILES>  (1371) 
C[C@H](CCC(=O)OCCN(C)C)[C@H]1CC[C@H]2[C@@H]3CC[C@@H]4C[C@H](O)CC[C@]4(C)[C@H]3C[C@H](O)[C@]12C

>  <Structure_dimension>  (1371) 
2D

$$$$
MS1431
     RDKit          2D

 35 38  0  0  0  0  0  0  0  0999 V2000
   -2.0200   -4.3028    0.0000 C   0  0  0  0  0  0  0  0  0  0  0  0
   -1.3087   -2.9822    0.0000 C   0  0  0  0  0  0  0  0  0  0  0  0
   -2.0967   -1.7059    0.0000 C   0  0  0  0  0  0  0  0  0  0  0  0
   -3.5960   -1.7502    0.0000 C   0  0  0  0  0  0  0  0  0  0  0  0
   -4.3840   -0.4738    0.0000 C   0  0  0  0  0  0  0  0  0  0  0  0
   -3.6727    0.8468    0.0000 O   0  0  0  0  0  0  0  0  0  0  0  0
   -5.8834   -0.5181    0.0000 N   0  0  0  0  0  0  0  0  0  0  0  0
   -6.6714    0.7582    0.0000 C   0  0  0  0  0  0  0  0  0  0  0  0
   -8.1707    0.7140    0.0000 C   0  0  0  0  0  0  0  0  0  0  0  0
   -8.9588    1.9903    0.0000 S   0  0  0  0  0  0  0  0  0  0  0  0
  -10.2351    1.2023    0.0000 O   0  0  0  0  0  0  0  0  0  0  0  0
   -7.6824    2.7783    0.0000 O   0  0  0  0  0  0  0  0  0  0  0  0
   -9.7468    3.2667    0.0000 O   0  0  0  0  0  0  0  0  0  0  0  0
    0.1907   -2.9379    0.0000 C   0  0  0  0  0  0  0  0  0  0  0  0
    1.1078   -4.1249    0.0000 C   0  0  0  0  0  0  0  0  0  0  0  0
    2.5201   -3.6195    0.0000 C   0  0  0  0  0  0  0  0  0  0  0  0
    2.4758   -2.1201    0.0000 C   0  0  0  0  0  0  0  0  0  0  0  0
    3.5604   -1.0840    0.0000 C   0  0  0  0  0  0  0  0  0  0  0  0
    5.0001   -1.5052    0.0000 C   0  0  0  0  0  0  0  0  0  0  0  0
    5.3551   -2.9626    0.0000 O   0  0  0  0  0  0  0  0  0  0  0  0
    6.0847   -0.4691    0.0000 C   0  0  0  0  0  0  0  0  0  0  0  0
    5.7296    0.9883    0.0000 C   0  0  0  0  0  0  0  0  0  0  0  0
    6.8142    2.0245    0.0000 C   0  0  0  0  0  0  0  0  0  0  0  0
    6.4592    3.4819    0.0000 C   0  0  0  0  0  0  0  0  0  0  0  0
    7.5438    4.5180    0.0000 O   0  0  0  0  0  0  0  0  0  0  0  0
    5.0196    3.9031    0.0000 C   0  0  0  0  0  0  0  0  0  0  0  0
    3.9350    2.8669    0.0000 C   0  0  0  0  0  0  0  0  0  0  0  0
    4.2900    1.4095    0.0000 C   0  0  0  0  0  0  0  0  0  0  0  0
    2.8503    1.8308    0.0000 C   0  0  0  0  0  0  0  0  0  0  0  0
    3.2054    0.3734    0.0000 C   0  0  0  0  0  0  0  0  0  0  0  0
    1.7657    0.7946    0.0000 C   0  0  0  0  0  0  0  0  0  0  0  0
    0.6811   -0.2416    0.0000 C   0  0  0  0  0  0  0  0  0  0  0  0
   -0.7585    0.1797    0.0000 O   0  0  0  0  0  0  0  0  0  0  0  0
    1.0362   -1.6989    0.0000 C   0  0  0  0  0  0  0  0  0  0  0  0
   -0.4396   -1.4305    0.0000 C   0  0  0  0  0  0  0  0  0  0  0  0
  2  1  1  6
  2  3  1  0
  3  4  1  0
  4  5  1  0
  5  6  2  0
  5  7  1  0
  7  8  1  0
  8  9  1  0
  9 10  1  0
 10 11  2  0
 10 12  2  0
 10 13  1  0
  2 14  1  0
 14 15  1  6
 15 16  1  0
 17 16  1  6
 17 18  1  0
 18 19  1  1
 19 20  1  1
 19 21  1  0
 22 21  1  1
 22 23  1  0
 23 24  1  0
 24 25  1  1
 24 26  1  0
 26 27  1  0
 27 28  1  0
 28 29  1  6
 28 30  1  0
 30 31  1  1
 31 32  1  0
 32 33  1  1
 32 34  1  0
 34 35  1  6
 34 14  1  0
 34 17  1  0
 30 18  1  0
 28 22  1  0
M  END
>  <MS_ID>  (1372) 
MS1431

>  <SMILES>  (1372) 
C[C@H](CCC(=O)NCCS(=O)(=O)O)[C@H]1CC[C@H]2[C@@H]3[C@H](O)C[C@@H]4C[C@H](O)CC[C@]4(C)[C@@H]3C[C@H](O)[C@]12C

>  <Structure_dimension>  (1372) 
2D

$$$$
MS1432
     RDKit          2D

 43 47  0  0  0  0  0  0  0  0999 V2000
   -8.0709   -1.9862    0.0000 C   0  0  0  0  0  0  0  0  0  0  0  0
   -6.9448   -0.9954    0.0000 C   0  0  0  0  0  0  0  0  0  0  0  0
   -7.2397    0.4753    0.0000 C   0  0  0  0  0  0  0  0  0  0  0  0
   -8.6609    0.9552    0.0000 C   0  0  0  0  0  0  0  0  0  0  0  0
   -8.9558    2.4259    0.0000 C   0  0  0  0  0  0  0  0  0  0  0  0
   -7.8297    3.4167    0.0000 O   0  0  0  0  0  0  0  0  0  0  0  0
  -10.3770    2.9058    0.0000 O   0  0  0  0  0  0  0  0  0  0  0  0
   -5.5236   -1.4753    0.0000 C   0  0  0  0  0  0  0  0  0  0  0  0
   -5.0765   -2.9071    0.0000 C   0  0  0  0  0  0  0  0  0  0  0  0
   -3.5766   -2.9244    0.0000 C   0  0  0  0  0  0  0  0  0  0  0  0
   -3.0967   -1.5032    0.0000 C   0  0  0  0  0  0  0  0  0  0  0  0
   -1.7195   -0.9089    0.0000 C   0  0  0  0  0  0  0  0  0  0  0  0
   -0.5162   -1.8045    0.0000 C   0  0  0  0  0  0  0  0  0  0  0  0
   -0.6901   -3.2944    0.0000 O   0  0  0  0  0  0  0  0  0  0  0  0
    0.8611   -1.2102    0.0000 C   0  0  0  0  0  0  0  0  0  0  0  0
    1.0350    0.2797    0.0000 C   0  0  0  0  0  0  0  0  0  0  0  0
    2.4123    0.8740    0.0000 C   0  0  0  0  0  0  0  0  0  0  0  0
    2.5862    2.3638    0.0000 C   0  0  0  0  0  0  0  0  0  0  0  0
    3.9635    2.9581    0.0000 O   0  0  0  0  0  0  0  0  0  0  0  0
    5.1668    2.0626    0.0000 C   0  0  0  0  0  0  0  0  0  0  0  0
    4.9928    0.5727    0.0000 O   0  0  0  0  0  0  0  0  0  0  0  0
    6.1961   -0.3229    0.0000 C   0  0  0  0  0  0  0  0  0  0  0  0
    6.0222   -1.8128    0.0000 C   0  0  0  0  0  0  0  0  0  0  0  0
    4.6449   -2.4071    0.0000 O   0  0  0  0  0  0  0  0  0  0  0  0
    4.4710   -3.8970    0.0000 C   0  0  0  0  0  0  0  0  0  0  0  0
    3.0937   -4.4913    0.0000 C   0  0  0  0  0  0  0  0  0  0  0  0
    1.8904   -3.5957    0.0000 O   0  0  0  0  0  0  0  0  0  0  0  0
    2.9198   -5.9811    0.0000 O   0  0  0  0  0  0  0  0  0  0  0  0
    7.5734    0.2714    0.0000 C   0  0  0  0  0  0  0  0  0  0  0  0
    8.7767   -0.6242    0.0000 O   0  0  0  0  0  0  0  0  0  0  0  0
    7.7473    1.7613    0.0000 C   0  0  0  0  0  0  0  0  0  0  0  0
    9.1246    2.3556    0.0000 O   0  0  0  0  0  0  0  0  0  0  0  0
    6.5440    2.6569    0.0000 C   0  0  0  0  0  0  0  0  0  0  0  0
    6.7180    4.1467    0.0000 O   0  0  0  0  0  0  0  0  0  0  0  0
    1.3829    3.2594    0.0000 C   0  0  0  0  0  0  0  0  0  0  0  0
    0.0057    2.6651    0.0000 C   0  0  0  0  0  0  0  0  0  0  0  0
   -0.1683    1.1752    0.0000 C   0  0  0  0  0  0  0  0  0  0  0  0
   -1.3716    2.0708    0.0000 C   0  0  0  0  0  0  0  0  0  0  0  0
   -1.5455    0.5809    0.0000 C   0  0  0  0  0  0  0  0  0  0  0  0
   -2.7488    1.4765    0.0000 C   0  0  0  0  0  0  0  0  0  0  0  0
   -4.1261    0.8822    0.0000 C   0  0  0  0  0  0  0  0  0  0  0  0
   -4.3000   -0.6076    0.0000 C   0  0  0  0  0  0  0  0  0  0  0  0
   -5.5903    0.1572    0.0000 C   0  0  0  0  0  0  0  0  0  0  0  0
  2  1  1  6
  2  3  1  0
  3  4  1  0
  4  5  1  0
  5  6  2  0
  5  7  1  0
  2  8  1  0
  8  9  1  6
  9 10  1  0
 11 10  1  6
 11 12  1  0
 12 13  1  1
 13 14  1  6
 13 15  1  0
 16 15  1  1
 16 17  1  0
 17 18  1  0
 18 19  1  1
 20 19  1  1
 20 21  1  0
 21 22  1  0
 22 23  1  1
 23 24  1  0
 24 25  1  0
 25 26  1  0
 26 27  2  0
 26 28  1  0
 22 29  1  0
 29 30  1  6
 29 31  1  0
 31 32  1  1
 31 33  1  0
 33 34  1  6
 18 35  1  0
 35 36  1  0
 36 37  1  0
 37 38  1  6
 37 39  1  0
 39 40  1  6
 40 41  1  0
 41 42  1  0
 42 43  1  6
 42  8  1  0
 42 11  1  0
 39 12  1  0
 37 16  1  0
 33 20  1  0
M  END
>  <MS_ID>  (1373) 
MS1432

>  <SMILES>  (1373) 
C[C@H](CCC(=O)O)[C@H]1CC[C@H]2[C@@H]3[C@@H](O)C[C@@H]4C[C@H](O[C@@H]5O[C@H](COCC(=O)O)[C@@H](O)[C@H](O)[C@H]5O)CC[C@]4(C)[C@H]3CC[C@]12C

>  <Structure_dimension>  (1373) 
2D

$$$$
MS1433
     RDKit          2D

 34 38  0  0  0  0  0  0  0  0999 V2000
   -3.1078   -3.3705    0.0000 C   0  0  0  0  0  0  0  0  0  0  0  0
   -2.1565   -2.2107    0.0000 C   0  0  0  0  0  0  0  0  0  0  0  0
   -2.6851   -0.8070    0.0000 C   0  0  0  0  0  0  0  0  0  0  0  0
   -4.1651   -0.5630    0.0000 C   0  0  0  0  0  0  0  0  0  0  0  0
   -4.6938    0.8408    0.0000 C   0  0  0  0  0  0  0  0  0  0  0  0
   -3.7424    2.0005    0.0000 O   0  0  0  0  0  0  0  0  0  0  0  0
   -6.1738    1.0848    0.0000 C   0  0  0  0  0  0  0  0  0  0  0  0
   -6.7025    2.4886    0.0000 C   0  0  0  0  0  0  0  0  0  0  0  0
   -8.1825    2.7326    0.0000 N   0  0  0  0  0  0  0  0  0  0  0  0
   -9.1338    1.5729    0.0000 C   0  0  0  0  0  0  0  0  0  0  0  0
   -8.6052    0.1692    0.0000 C   0  0  0  0  0  0  0  0  0  0  0  0
   -7.1252   -0.0749    0.0000 N   0  0  0  0  0  0  0  0  0  0  0  0
   -0.6765   -2.4548    0.0000 C   0  0  0  0  0  0  0  0  0  0  0  0
   -0.0040   -3.7956    0.0000 C   0  0  0  0  0  0  0  0  0  0  0  0
    1.4790   -3.5703    0.0000 C   0  0  0  0  0  0  0  0  0  0  0  0
    1.7231   -2.0903    0.0000 C   0  0  0  0  0  0  0  0  0  0  0  0
    2.9862   -1.2814    0.0000 C   0  0  0  0  0  0  0  0  0  0  0  0
    4.3184   -1.9708    0.0000 C   0  0  0  0  0  0  0  0  0  0  0  0
    4.3874   -3.4692    0.0000 O   0  0  0  0  0  0  0  0  0  0  0  0
    5.5816   -1.1619    0.0000 C   0  0  0  0  0  0  0  0  0  0  0  0
    5.5126    0.3366    0.0000 C   0  0  0  0  0  0  0  0  0  0  0  0
    6.7757    1.1455    0.0000 C   0  0  0  0  0  0  0  0  0  0  0  0
    6.7067    2.6439    0.0000 C   0  0  0  0  0  0  0  0  0  0  0  0
    7.9699    3.4529    0.0000 O   0  0  0  0  0  0  0  0  0  0  0  0
    5.3746    3.3334    0.0000 C   0  0  0  0  0  0  0  0  0  0  0  0
    4.1114    2.5244    0.0000 C   0  0  0  0  0  0  0  0  0  0  0  0
    4.1804    1.0260    0.0000 C   0  0  0  0  0  0  0  0  0  0  0  0
    2.8482    1.7155    0.0000 C   0  0  0  0  0  0  0  0  0  0  0  0
    2.9172    0.2170    0.0000 C   0  0  0  0  0  0  0  0  0  0  0  0
    1.5851    0.9065    0.0000 C   0  0  0  0  0  0  0  0  0  0  0  0
    0.3219    0.0975    0.0000 C   0  0  0  0  0  0  0  0  0  0  0  0
   -1.0102    0.7870    0.0000 O   0  0  0  0  0  0  0  0  0  0  0  0
    0.3909   -1.4009    0.0000 C   0  0  0  0  0  0  0  0  0  0  0  0
   -1.0060   -0.8545    0.0000 C   0  0  0  0  0  0  0  0  0  0  0  0
  2  1  1  6
  2  3  1  0
  3  4  1  0
  4  5  1  0
  5  6  2  0
  5  7  1  0
  7  8  2  0
  8  9  1  0
  9 10  2  0
 10 11  1  0
 11 12  2  0
  2 13  1  0
 13 14  1  6
 14 15  1  0
 16 15  1  6
 16 17  1  0
 17 18  1  1
 18 19  1  1
 18 20  1  0
 21 20  1  1
 21 22  1  0
 22 23  1  0
 23 24  1  1
 23 25  1  0
 25 26  1  0
 26 27  1  0
 27 28  1  6
 27 29  1  0
 29 30  1  6
 30 31  1  0
 31 32  1  1
 31 33  1  0
 33 34  1  6
 12  7  1  0
 33 13  1  0
 33 16  1  0
 29 17  1  0
 27 21  1  0
M  END
>  <MS_ID>  (1374) 
MS1433

>  <SMILES>  (1374) 
C[C@H](CCC(=O)c1cnccn1)[C@H]1CC[C@H]2[C@@H]3[C@H](O)C[C@@H]4C[C@H](O)CC[C@]4(C)[C@H]3C[C@H](O)[C@]12C

>  <Structure_dimension>  (1374) 
2D

$$$$
MS1434
     RDKit          2D

 29 32  0  0  0  0  0  0  0  0999 V2000
   -4.6212   -2.5003    0.0000 C   0  0  0  0  0  0  0  0  0  0  0  0
   -3.5781   -1.4224    0.0000 C   0  0  0  0  0  0  0  0  0  0  0  0
   -3.9900    0.0199    0.0000 C   0  0  0  0  0  0  0  0  0  0  0  0
   -5.4450    0.3844    0.0000 C   0  0  0  0  0  0  0  0  0  0  0  0
   -5.8569    1.8267    0.0000 C   0  0  0  0  0  0  0  0  0  0  0  0
   -4.8137    2.9046    0.0000 O   0  0  0  0  0  0  0  0  0  0  0  0
   -7.3119    2.1912    0.0000 O   0  0  0  0  0  0  0  0  0  0  0  0
   -2.1230   -1.7869    0.0000 C   0  0  0  0  0  0  0  0  0  0  0  0
   -1.5626   -3.1783    0.0000 C   0  0  0  0  0  0  0  0  0  0  0  0
   -0.0662   -3.0753    0.0000 C   0  0  0  0  0  0  0  0  0  0  0  0
    0.2983   -1.6202    0.0000 C   0  0  0  0  0  0  0  0  0  0  0  0
    1.6235   -0.9174    0.0000 C   0  0  0  0  0  0  0  0  0  0  0  0
    2.8947   -1.7137    0.0000 C   0  0  0  0  0  0  0  0  0  0  0  0
    2.8407   -3.2127    0.0000 C   0  0  0  0  0  0  0  0  0  0  0  0
    4.1119   -4.0090    0.0000 O   0  0  0  0  0  0  0  0  0  0  0  0
    4.2199   -1.0109    0.0000 C   0  0  0  0  0  0  0  0  0  0  0  0
    4.2739    0.4881    0.0000 C   0  0  0  0  0  0  0  0  0  0  0  0
    5.5990    1.1908    0.0000 C   0  0  0  0  0  0  0  0  0  0  0  0
    5.6530    2.6899    0.0000 C   0  0  0  0  0  0  0  0  0  0  0  0
    4.3818    3.4861    0.0000 C   0  0  0  0  0  0  0  0  0  0  0  0
    3.0566    2.7834    0.0000 C   0  0  0  0  0  0  0  0  0  0  0  0
    3.0026    1.2843    0.0000 C   0  0  0  0  0  0  0  0  0  0  0  0
    1.7314    2.0806    0.0000 C   0  0  0  0  0  0  0  0  0  0  0  0
    1.6775    0.5816    0.0000 C   0  0  0  0  0  0  0  0  0  0  0  0
    0.4063    1.3778    0.0000 C   0  0  0  0  0  0  0  0  0  0  0  0
   -0.9189    0.6751    0.0000 C   0  0  0  0  0  0  0  0  0  0  0  0
   -2.1901    1.4713    0.0000 O   0  0  0  0  0  0  0  0  0  0  0  0
   -0.9729   -0.8239    0.0000 C   0  0  0  0  0  0  0  0  0  0  0  0
   -2.3204   -0.1649    0.0000 C   0  0  0  0  0  0  0  0  0  0  0  0
  2  1  1  6
  2  3  1  0
  3  4  1  0
  4  5  1  0
  5  6  2  0
  5  7  1  0
  2  8  1  0
  8  9  1  6
  9 10  1  0
 11 10  1  6
 11 12  1  0
 12 13  1  1
 13 14  1  6
 14 15  1  0
 13 16  1  0
 17 16  1  1
 17 18  1  0
 18 19  1  0
 19 20  1  0
 20 21  1  0
 21 22  1  0
 22 23  1  6
 22 24  1  0
 24 25  1  6
 25 26  1  0
 26 27  1  1
 26 28  1  0
 28 29  1  6
 28  8  1  0
 28 11  1  0
 24 12  1  0
 22 17  1  0
M  END
>  <MS_ID>  (1375) 
MS1434

>  <SMILES>  (1375) 
C[C@H](CCC(=O)O)[C@H]1CC[C@H]2[C@@H]3[C@@H](CO)C[C@@H]4CCCC[C@]4(C)[C@H]3C[C@H](O)[C@]12C

>  <Structure_dimension>  (1375) 
2D

$$$$
MS1435
     RDKit          2D

 30 33  0  0  0  0  0  0  0  0999 V2000
   -4.0333    4.9048    0.0000 C   0  0  0  0  0  0  0  0  0  0  0  0
   -5.0774    3.8278    0.0000 C   0  0  0  0  0  0  0  0  0  0  0  0
   -4.6667    2.3851    0.0000 S   0  0  0  0  0  0  0  0  0  0  0  0
   -5.7108    1.3081    0.0000 C   0  0  0  0  0  0  0  0  0  0  0  0
   -7.1655    1.6738    0.0000 O   0  0  0  0  0  0  0  0  0  0  0  0
   -5.3001   -0.1346    0.0000 C   0  0  0  0  0  0  0  0  0  0  0  0
   -3.8453   -0.5003    0.0000 C   0  0  0  0  0  0  0  0  0  0  0  0
   -3.4346   -1.9429    0.0000 C   0  0  0  0  0  0  0  0  0  0  0  0
   -4.4787   -3.0199    0.0000 C   0  0  0  0  0  0  0  0  0  0  0  0
   -1.9799   -2.3086    0.0000 C   0  0  0  0  0  0  0  0  0  0  0  0
   -1.4207   -3.7005    0.0000 C   0  0  0  0  0  0  0  0  0  0  0  0
    0.0759   -3.5987    0.0000 C   0  0  0  0  0  0  0  0  0  0  0  0
    0.4416   -2.1440    0.0000 C   0  0  0  0  0  0  0  0  0  0  0  0
    1.7673   -1.4423    0.0000 C   0  0  0  0  0  0  0  0  0  0  0  0
    3.0379   -2.2397    0.0000 C   0  0  0  0  0  0  0  0  0  0  0  0
    2.9826   -3.7386    0.0000 O   0  0  0  0  0  0  0  0  0  0  0  0
    4.3636   -1.5380    0.0000 C   0  0  0  0  0  0  0  0  0  0  0  0
    4.4189   -0.0390    0.0000 C   0  0  0  0  0  0  0  0  0  0  0  0
    5.7447    0.6626    0.0000 C   0  0  0  0  0  0  0  0  0  0  0  0
    5.7999    2.1616    0.0000 C   0  0  0  0  0  0  0  0  0  0  0  0
    7.1257    2.8633    0.0000 O   0  0  0  0  0  0  0  0  0  0  0  0
    4.5293    2.9590    0.0000 C   0  0  0  0  0  0  0  0  0  0  0  0
    3.2036    2.2573    0.0000 C   0  0  0  0  0  0  0  0  0  0  0  0
    3.1483    0.7583    0.0000 C   0  0  0  0  0  0  0  0  0  0  0  0
    1.8778    1.5556    0.0000 C   0  0  0  0  0  0  0  0  0  0  0  0
    1.8226    0.0567    0.0000 C   0  0  0  0  0  0  0  0  0  0  0  0
    0.5520    0.8540    0.0000 C   0  0  0  0  0  0  0  0  0  0  0  0
   -0.7738    0.1523    0.0000 C   0  0  0  0  0  0  0  0  0  0  0  0
   -0.8290   -1.3467    0.0000 C   0  0  0  0  0  0  0  0  0  0  0  0
   -2.1759   -0.6865    0.0000 C   0  0  0  0  0  0  0  0  0  0  0  0
  1  2  1  0
  2  3  1  0
  3  4  1  0
  4  5  2  0
  4  6  1  0
  6  7  1  0
  7  8  1  0
  8  9  1  6
  8 10  1  0
 10 11  1  6
 11 12  1  0
 13 12  1  6
 13 14  1  0
 14 15  1  1
 15 16  1  1
 15 17  1  0
 18 17  1  1
 18 19  1  0
 19 20  1  0
 20 21  1  1
 20 22  1  0
 22 23  1  0
 23 24  1  0
 24 25  1  6
 24 26  1  0
 26 27  1  6
 27 28  1  0
 28 29  1  0
 29 30  1  6
 29 10  1  0
 29 13  1  0
 26 14  1  0
 24 18  1  0
M  END
>  <MS_ID>  (1376) 
MS1435

>  <SMILES>  (1376) 
CCSC(=O)CC[C@@H](C)[C@H]1CC[C@H]2[C@@H]3[C@H](O)C[C@@H]4C[C@H](O)CC[C@]4(C)[C@H]3CC[C@]12C

>  <Structure_dimension>  (1376) 
2D

$$$$
MS1436
     RDKit          2D

 28 31  0  0  0  0  0  0  0  0999 V2000
   -4.1269   -2.8452    0.0000 C   0  0  0  0  0  0  0  0  0  0  0  0
   -3.0726   -1.7782    0.0000 C   0  0  0  0  0  0  0  0  0  0  0  0
   -3.4694   -0.3317    0.0000 C   0  0  0  0  0  0  0  0  0  0  0  0
   -4.9206    0.0479    0.0000 C   0  0  0  0  0  0  0  0  0  0  0  0
   -5.3175    1.4944    0.0000 C   0  0  0  0  0  0  0  0  0  0  0  0
   -4.2632    2.5614    0.0000 O   0  0  0  0  0  0  0  0  0  0  0  0
   -6.7687    1.8740    0.0000 N   0  0  0  0  0  0  0  0  0  0  0  0
   -7.1655    3.3206    0.0000 O   0  0  0  0  0  0  0  0  0  0  0  0
   -1.6214   -2.1578    0.0000 C   0  0  0  0  0  0  0  0  0  0  0  0
   -1.0755   -3.5550    0.0000 C   0  0  0  0  0  0  0  0  0  0  0  0
    0.4219   -3.4675    0.0000 C   0  0  0  0  0  0  0  0  0  0  0  0
    0.8015   -2.0163    0.0000 C   0  0  0  0  0  0  0  0  0  0  0  0
    2.1339   -1.3274    0.0000 C   0  0  0  0  0  0  0  0  0  0  0  0
    3.3968   -2.1368    0.0000 C   0  0  0  0  0  0  0  0  0  0  0  0
    4.7292   -1.4479    0.0000 C   0  0  0  0  0  0  0  0  0  0  0  0
    4.7988    0.0505    0.0000 C   0  0  0  0  0  0  0  0  0  0  0  0
    6.1312    0.7394    0.0000 C   0  0  0  0  0  0  0  0  0  0  0  0
    6.2008    2.2378    0.0000 C   0  0  0  0  0  0  0  0  0  0  0  0
    4.9379    3.0473    0.0000 C   0  0  0  0  0  0  0  0  0  0  0  0
    3.6055    2.3583    0.0000 C   0  0  0  0  0  0  0  0  0  0  0  0
    3.5359    0.8599    0.0000 C   0  0  0  0  0  0  0  0  0  0  0  0
    2.2731    1.6694    0.0000 C   0  0  0  0  0  0  0  0  0  0  0  0
    2.2035    0.1710    0.0000 C   0  0  0  0  0  0  0  0  0  0  0  0
    0.9407    0.9804    0.0000 C   0  0  0  0  0  0  0  0  0  0  0  0
   -0.3918    0.2915    0.0000 C   0  0  0  0  0  0  0  0  0  0  0  0
   -1.6546    1.1009    0.0000 O   0  0  0  0  0  0  0  0  0  0  0  0
   -0.4613   -1.2069    0.0000 C   0  0  0  0  0  0  0  0  0  0  0  0
   -1.8019   -0.5339    0.0000 C   0  0  0  0  0  0  0  0  0  0  0  0
  2  1  1  6
  2  3  1  0
  3  4  1  0
  4  5  1  0
  5  6  2  0
  5  7  1  0
  7  8  1  0
  2  9  1  0
  9 10  1  6
 10 11  1  0
 12 11  1  6
 12 13  1  0
 13 14  1  1
 14 15  1  0
 16 15  1  1
 16 17  1  0
 17 18  1  0
 18 19  1  0
 19 20  1  0
 20 21  1  0
 21 22  1  6
 21 23  1  0
 23 24  1  6
 24 25  1  0
 25 26  1  6
 25 27  1  0
 27 28  1  6
 27  9  1  0
 27 12  1  0
 23 13  1  0
 21 16  1  0
M  END
>  <MS_ID>  (1377) 
MS1436

>  <SMILES>  (1377) 
C[C@H](CCC(=O)NO)[C@H]1CC[C@H]2[C@@H]3CC[C@@H]4CCCC[C@]4(C)[C@H]3C[C@@H](O)[C@]12C

>  <Structure_dimension>  (1377) 
2D

$$$$
MS1437
     RDKit          2D

 33 36  0  0  0  0  0  0  0  0999 V2000
    3.2609    3.7267    0.0000 C   0  0  0  0  0  0  0  0  0  0  0  0
    2.3661    2.5228    0.0000 C   0  0  0  0  0  0  0  0  0  0  0  0
    2.9613    1.1459    0.0000 C   0  0  0  0  0  0  0  0  0  0  0  0
    4.4512    0.9729    0.0000 C   0  0  0  0  0  0  0  0  0  0  0  0
    5.0464   -0.4039    0.0000 C   0  0  0  0  0  0  0  0  0  0  0  0
    4.1516   -1.6078    0.0000 O   0  0  0  0  0  0  0  0  0  0  0  0
    6.5364   -0.5769    0.0000 C   0  0  0  0  0  0  0  0  0  0  0  0
    7.1316   -1.9538    0.0000 C   0  0  0  0  0  0  0  0  0  0  0  0
    8.6216   -2.1268    0.0000 C   0  0  0  0  0  0  0  0  0  0  0  0
    9.5164   -0.9229    0.0000 O   0  0  0  0  0  0  0  0  0  0  0  0
    9.2168   -3.5037    0.0000 O   0  0  0  0  0  0  0  0  0  0  0  0
    0.8761    2.6958    0.0000 C   0  0  0  0  0  0  0  0  0  0  0  0
    0.1403    4.0029    0.0000 C   0  0  0  0  0  0  0  0  0  0  0  0
   -1.3303    3.7070    0.0000 C   0  0  0  0  0  0  0  0  0  0  0  0
   -1.5033    2.2170    0.0000 C   0  0  0  0  0  0  0  0  0  0  0  0
   -2.7263    1.3486    0.0000 C   0  0  0  0  0  0  0  0  0  0  0  0
   -4.0899    1.9735    0.0000 C   0  0  0  0  0  0  0  0  0  0  0  0
   -4.2305    3.4669    0.0000 O   0  0  0  0  0  0  0  0  0  0  0  0
   -5.3130    1.1051    0.0000 C   0  0  0  0  0  0  0  0  0  0  0  0
   -5.1724   -0.3883    0.0000 C   0  0  0  0  0  0  0  0  0  0  0  0
   -6.3954   -1.2567    0.0000 C   0  0  0  0  0  0  0  0  0  0  0  0
   -6.2548   -2.7501    0.0000 C   0  0  0  0  0  0  0  0  0  0  0  0
   -7.4779   -3.6186    0.0000 O   0  0  0  0  0  0  0  0  0  0  0  0
   -4.8912   -3.3751    0.0000 C   0  0  0  0  0  0  0  0  0  0  0  0
   -3.6682   -2.5067    0.0000 C   0  0  0  0  0  0  0  0  0  0  0  0
   -2.3046   -3.1316    0.0000 O   0  0  0  0  0  0  0  0  0  0  0  0
   -3.8088   -1.0133    0.0000 C   0  0  0  0  0  0  0  0  0  0  0  0
   -2.4452   -1.6382    0.0000 C   0  0  0  0  0  0  0  0  0  0  0  0
   -2.5857   -0.1448    0.0000 C   0  0  0  0  0  0  0  0  0  0  0  0
   -1.2221   -0.7698    0.0000 C   0  0  0  0  0  0  0  0  0  0  0  0
    0.0009    0.0987    0.0000 C   0  0  0  0  0  0  0  0  0  0  0  0
   -0.1397    1.5921    0.0000 C   0  0  0  0  0  0  0  0  0  0  0  0
    1.2818    1.1131    0.0000 C   0  0  0  0  0  0  0  0  0  0  0  0
  2  1  1  6
  2  3  1  0
  3  4  1  0
  4  5  1  0
  5  6  2  0
  5  7  1  0
  7  8  1  0
  8  9  1  0
  9 10  2  0
  9 11  1  0
  2 12  1  0
 12 13  1  6
 13 14  1  0
 15 14  1  6
 15 16  1  0
 16 17  1  1
 17 18  1  1
 17 19  1  0
 20 19  1  1
 20 21  1  0
 21 22  1  0
 22 23  1  1
 22 24  1  0
 24 25  1  0
 25 26  1  1
 25 27  1  0
 27 28  1  6
 27 29  1  0
 29 30  1  6
 30 31  1  0
 31 32  1  0
 32 33  1  6
 32 12  1  0
 32 15  1  0
 29 16  1  0
 27 20  1  0
M  END
>  <MS_ID>  (1378) 
MS1437

>  <SMILES>  (1378) 
C[C@H](CCC(=O)CCC(=O)O)[C@H]1CC[C@H]2[C@@H]3[C@H](O)C[C@@H]4C[C@H](O)C[C@H](O)[C@]4(C)[C@H]3CC[C@]12C

>  <Structure_dimension>  (1378) 
2D

$$$$
MS1438
     RDKit          2D

 33 36  0  0  0  0  0  0  0  0999 V2000
   -3.0978   -3.6919    0.0000 C   0  0  0  0  0  0  0  0  0  0  0  0
   -2.2201   -2.4755    0.0000 C   0  0  0  0  0  0  0  0  0  0  0  0
   -2.8347   -1.1072    0.0000 C   0  0  0  0  0  0  0  0  0  0  0  0
   -4.3270   -0.9552    0.0000 C   0  0  0  0  0  0  0  0  0  0  0  0
   -4.9416    0.4131    0.0000 C   0  0  0  0  0  0  0  0  0  0  0  0
   -4.0639    1.6295    0.0000 O   0  0  0  0  0  0  0  0  0  0  0  0
   -6.4339    0.5650    0.0000 O   0  0  0  0  0  0  0  0  0  0  0  0
   -7.0484    1.9333    0.0000 C   0  0  0  0  0  0  0  0  0  0  0  0
   -8.5407    2.0852    0.0000 C   0  0  0  0  0  0  0  0  0  0  0  0
   -9.4184    0.8688    0.0000 O   0  0  0  0  0  0  0  0  0  0  0  0
   -9.1553    3.4535    0.0000 O   0  0  0  0  0  0  0  0  0  0  0  0
   -0.7278   -2.6274    0.0000 C   0  0  0  0  0  0  0  0  0  0  0  0
    0.0264   -3.9240    0.0000 C   0  0  0  0  0  0  0  0  0  0  0  0
    1.4926   -3.6073    0.0000 C   0  0  0  0  0  0  0  0  0  0  0  0
    1.6445   -2.1150    0.0000 C   0  0  0  0  0  0  0  0  0  0  0  0
    2.8552   -1.2294    0.0000 C   0  0  0  0  0  0  0  0  0  0  0  0
    4.2275   -1.8350    0.0000 C   0  0  0  0  0  0  0  0  0  0  0  0
    4.3891   -3.3263    0.0000 O   0  0  0  0  0  0  0  0  0  0  0  0
    5.4381   -0.9494    0.0000 C   0  0  0  0  0  0  0  0  0  0  0  0
    5.2764    0.5419    0.0000 C   0  0  0  0  0  0  0  0  0  0  0  0
    6.4871    1.4275    0.0000 C   0  0  0  0  0  0  0  0  0  0  0  0
    6.3254    2.9188    0.0000 C   0  0  0  0  0  0  0  0  0  0  0  0
    7.5360    3.8044    0.0000 O   0  0  0  0  0  0  0  0  0  0  0  0
    4.9531    3.5244    0.0000 C   0  0  0  0  0  0  0  0  0  0  0  0
    3.7425    2.6388    0.0000 C   0  0  0  0  0  0  0  0  0  0  0  0
    3.9041    1.1475    0.0000 C   0  0  0  0  0  0  0  0  0  0  0  0
    2.5318    1.7531    0.0000 C   0  0  0  0  0  0  0  0  0  0  0  0
    2.6935    0.2619    0.0000 C   0  0  0  0  0  0  0  0  0  0  0  0
    1.3212    0.8675    0.0000 C   0  0  0  0  0  0  0  0  0  0  0  0
    0.1105   -0.0181    0.0000 C   0  0  0  0  0  0  0  0  0  0  0  0
   -1.2618    0.5875    0.0000 O   0  0  0  0  0  0  0  0  0  0  0  0
    0.2722   -1.5094    0.0000 C   0  0  0  0  0  0  0  0  0  0  0  0
   -1.1559   -1.0505    0.0000 C   0  0  0  0  0  0  0  0  0  0  0  0
  2  1  1  6
  2  3  1  0
  3  4  1  0
  4  5  1  0
  5  6  2  0
  5  7  1  0
  7  8  1  0
  8  9  1  0
  9 10  2  0
  9 11  1  0
  2 12  1  0
 12 13  1  6
 13 14  1  0
 15 14  1  6
 15 16  1  0
 16 17  1  1
 17 18  2  0
 17 19  1  0
 20 19  1  1
 20 21  1  0
 21 22  1  0
 22 23  1  1
 22 24  1  0
 24 25  1  0
 25 26  1  0
 26 27  1  6
 26 28  1  0
 28 29  1  6
 29 30  1  0
 30 31  1  1
 30 32  1  0
 32 33  1  6
 32 12  1  0
 32 15  1  0
 28 16  1  0
 26 20  1  0
M  END
>  <MS_ID>  (1379) 
MS1438

>  <SMILES>  (1379) 
C[C@H](CCC(=O)OCC(=O)O)[C@H]1CC[C@H]2[C@@H]3C(=O)C[C@@H]4C[C@H](O)CC[C@]4(C)[C@H]3C[C@H](O)[C@]12C

>  <Structure_dimension>  (1379) 
2D

$$$$
MS1439
     RDKit          2D

 39 43  0  0  0  0  0  0  0  0999 V2000
   -0.9174   -4.7068    0.0000 C   0  0  0  0  0  0  0  0  0  0  0  0
   -0.3195   -3.3311    0.0000 C   0  0  0  0  0  0  0  0  0  0  0  0
   -1.2120   -2.1255    0.0000 C   0  0  0  0  0  0  0  0  0  0  0  0
   -2.7023   -2.2956    0.0000 C   0  0  0  0  0  0  0  0  0  0  0  0
   -3.5948   -1.0900    0.0000 C   0  0  0  0  0  0  0  0  0  0  0  0
   -2.9970    0.2857    0.0000 O   0  0  0  0  0  0  0  0  0  0  0  0
   -5.0851   -1.2601    0.0000 O   0  0  0  0  0  0  0  0  0  0  0  0
   -5.9776   -0.0545    0.0000 C   0  0  0  0  0  0  0  0  0  0  0  0
   -5.3798    1.3212    0.0000 O   0  0  0  0  0  0  0  0  0  0  0  0
   -6.2722    2.5268    0.0000 C   0  0  0  0  0  0  0  0  0  0  0  0
   -5.6744    3.9025    0.0000 C   0  0  0  0  0  0  0  0  0  0  0  0
   -7.7625    2.3567    0.0000 C   0  0  0  0  0  0  0  0  0  0  0  0
   -8.6550    3.5624    0.0000 O   0  0  0  0  0  0  0  0  0  0  0  0
   -8.3604    0.9810    0.0000 C   0  0  0  0  0  0  0  0  0  0  0  0
   -9.8507    0.8109    0.0000 O   0  0  0  0  0  0  0  0  0  0  0  0
   -7.4679   -0.2246    0.0000 C   0  0  0  0  0  0  0  0  0  0  0  0
   -8.0658   -1.6003    0.0000 O   0  0  0  0  0  0  0  0  0  0  0  0
    1.1708   -3.1610    0.0000 C   0  0  0  0  0  0  0  0  0  0  0  0
    2.1844   -4.2667    0.0000 C   0  0  0  0  0  0  0  0  0  0  0  0
    3.5492   -3.6444    0.0000 C   0  0  0  0  0  0  0  0  0  0  0  0
    3.3791   -2.1541    0.0000 C   0  0  0  0  0  0  0  0  0  0  0  0
    4.3728   -1.0305    0.0000 C   0  0  0  0  0  0  0  0  0  0  0  0
    5.8428   -1.3292    0.0000 C   0  0  0  0  0  0  0  0  0  0  0  0
    6.3190   -2.7516    0.0000 O   0  0  0  0  0  0  0  0  0  0  0  0
    6.8365   -0.2056    0.0000 C   0  0  0  0  0  0  0  0  0  0  0  0
    6.3602    1.2168    0.0000 C   0  0  0  0  0  0  0  0  0  0  0  0
    7.3539    2.3404    0.0000 C   0  0  0  0  0  0  0  0  0  0  0  0
    6.8777    3.7628    0.0000 C   0  0  0  0  0  0  0  0  0  0  0  0
    7.8714    4.8864    0.0000 O   0  0  0  0  0  0  0  0  0  0  0  0
    5.4078    4.0616    0.0000 C   0  0  0  0  0  0  0  0  0  0  0  0
    4.4140    2.9379    0.0000 C   0  0  0  0  0  0  0  0  0  0  0  0
    4.8903    1.5156    0.0000 C   0  0  0  0  0  0  0  0  0  0  0  0
    3.4203    1.8143    0.0000 C   0  0  0  0  0  0  0  0  0  0  0  0
    3.8966    0.3919    0.0000 C   0  0  0  0  0  0  0  0  0  0  0  0
    2.4266    0.6907    0.0000 C   0  0  0  0  0  0  0  0  0  0  0  0
    1.4329   -0.4329    0.0000 C   0  0  0  0  0  0  0  0  0  0  0  0
   -0.0370   -0.1342    0.0000 O   0  0  0  0  0  0  0  0  0  0  0  0
    1.9092   -1.8553    0.0000 C   0  0  0  0  0  0  0  0  0  0  0  0
    0.4160   -1.7119    0.0000 C   0  0  0  0  0  0  0  0  0  0  0  0
  2  1  1  6
  2  3  1  0
  3  4  1  0
  4  5  1  0
  5  6  2  0
  5  7  1  0
  8  7  1  1
  8  9  1  0
  9 10  1  0
 10 11  1  1
 10 12  1  0
 12 13  1  1
 12 14  1  0
 14 15  1  6
 14 16  1  0
 16 17  1  6
  2 18  1  0
 18 19  1  6
 19 20  1  0
 21 20  1  6
 21 22  1  0
 22 23  1  1
 23 24  1  1
 23 25  1  0
 26 25  1  1
 26 27  1  0
 27 28  1  0
 28 29  1  1
 28 30  1  0
 30 31  1  0
 31 32  1  0
 32 33  1  6
 32 34  1  0
 34 35  1  6
 35 36  1  0
 36 37  1  1
 36 38  1  0
 38 39  1  6
 16  8  1  0
 38 18  1  0
 38 21  1  0
 34 22  1  0
 32 26  1  0
M  END
>  <MS_ID>  (1380) 
MS1439

>  <SMILES>  (1380) 
C[C@H](CCC(=O)O[C@@H]1O[C@H](C)[C@H](O)[C@@H](O)[C@H]1O)[C@H]1CC[C@H]2[C@@H]3[C@H](O)C[C@@H]4C[C@H](O)CC[C@]4(C)[C@H]3C[C@H](O)[C@]12C

>  <Structure_dimension>  (1380) 
2D

$$$$
MS1440
     RDKit          2D

 32 35  0  0  0  0  0  0  0  0999 V2000
   -3.1887   -3.1196    0.0000 C   0  0  0  0  0  0  0  0  0  0  0  0
   -2.1575   -2.0303    0.0000 C   0  0  0  0  0  0  0  0  0  0  0  0
   -2.5852   -0.5925    0.0000 C   0  0  0  0  0  0  0  0  0  0  0  0
   -4.0442   -0.2441    0.0000 C   0  0  0  0  0  0  0  0  0  0  0  0
   -4.4719    1.1936    0.0000 C   0  0  0  0  0  0  0  0  0  0  0  0
   -3.4407    2.2829    0.0000 O   0  0  0  0  0  0  0  0  0  0  0  0
   -5.9309    1.5420    0.0000 N   0  0  0  0  0  0  0  0  0  0  0  0
   -6.3586    2.9798    0.0000 C   0  0  0  0  0  0  0  0  0  0  0  0
   -6.9621    0.4528    0.0000 C   0  0  0  0  0  0  0  0  0  0  0  0
   -8.4211    0.8012    0.0000 C   0  0  0  0  0  0  0  0  0  0  0  0
   -8.8488    2.2389    0.0000 O   0  0  0  0  0  0  0  0  0  0  0  0
   -9.4523   -0.2881    0.0000 O   0  0  0  0  0  0  0  0  0  0  0  0
   -0.6985   -2.3787    0.0000 C   0  0  0  0  0  0  0  0  0  0  0  0
   -0.1228   -3.7638    0.0000 C   0  0  0  0  0  0  0  0  0  0  0  0
    1.3724   -3.6444    0.0000 C   0  0  0  0  0  0  0  0  0  0  0  0
    1.7208   -2.1854    0.0000 C   0  0  0  0  0  0  0  0  0  0  0  0
    3.0382   -1.4681    0.0000 C   0  0  0  0  0  0  0  0  0  0  0  0
    4.3181   -2.2503    0.0000 C   0  0  0  0  0  0  0  0  0  0  0  0
    5.6355   -1.5330    0.0000 C   0  0  0  0  0  0  0  0  0  0  0  0
    5.6730   -0.0335    0.0000 C   0  0  0  0  0  0  0  0  0  0  0  0
    6.9903    0.6838    0.0000 C   0  0  0  0  0  0  0  0  0  0  0  0
    7.0278    2.1833    0.0000 C   0  0  0  0  0  0  0  0  0  0  0  0
    8.3452    2.9006    0.0000 O   0  0  0  0  0  0  0  0  0  0  0  0
    5.7479    2.9656    0.0000 C   0  0  0  0  0  0  0  0  0  0  0  0
    4.4306    2.2483    0.0000 C   0  0  0  0  0  0  0  0  0  0  0  0
    4.3931    0.7487    0.0000 C   0  0  0  0  0  0  0  0  0  0  0  0
    3.1132    1.5310    0.0000 C   0  0  0  0  0  0  0  0  0  0  0  0
    3.0757    0.0314    0.0000 C   0  0  0  0  0  0  0  0  0  0  0  0
    1.7958    0.8137    0.0000 C   0  0  0  0  0  0  0  0  0  0  0  0
    0.4784    0.0964    0.0000 C   0  0  0  0  0  0  0  0  0  0  0  0
    0.4409   -1.4032    0.0000 C   0  0  0  0  0  0  0  0  0  0  0  0
   -0.9137   -0.7590    0.0000 C   0  0  0  0  0  0  0  0  0  0  0  0
  2  1  1  6
  2  3  1  0
  3  4  1  0
  4  5  1  0
  5  6  2  0
  5  7  1  0
  7  8  1  0
  7  9  1  0
  9 10  1  0
 10 11  2  0
 10 12  1  0
  2 13  1  0
 13 14  1  6
 14 15  1  0
 16 15  1  6
 16 17  1  0
 17 18  1  1
 18 19  1  0
 20 19  1  1
 20 21  1  0
 21 22  1  0
 22 23  1  1
 22 24  1  0
 24 25  1  0
 25 26  1  0
 26 27  1  6
 26 28  1  0
 28 29  1  6
 29 30  1  0
 30 31  1  0
 31 32  1  6
 31 13  1  0
 31 16  1  0
 28 17  1  0
 26 20  1  0
M  END
>  <MS_ID>  (1381) 
MS1440

>  <SMILES>  (1381) 
C[C@H](CCC(=O)N(C)CC(=O)O)[C@H]1CC[C@H]2[C@@H]3CC[C@@H]4C[C@H](O)CC[C@]4(C)[C@H]3CC[C@]12C

>  <Structure_dimension>  (1381) 
2D

$$$$
MS1441
     RDKit          2D

 35 39  0  0  0  0  0  0  0  0999 V2000
   -2.7184   -3.4912    0.0000 C   0  0  0  0  0  0  0  0  0  0  0  0
   -1.7962   -2.3082    0.0000 C   0  0  0  0  0  0  0  0  0  0  0  0
   -2.3597   -0.9180    0.0000 C   0  0  0  0  0  0  0  0  0  0  0  0
   -3.8454   -0.7110    0.0000 C   0  0  0  0  0  0  0  0  0  0  0  0
   -4.4088    0.6792    0.0000 C   0  0  0  0  0  0  0  0  0  0  0  0
   -3.4867    1.8622    0.0000 O   0  0  0  0  0  0  0  0  0  0  0  0
   -5.8945    0.8862    0.0000 C   0  0  0  0  0  0  0  0  0  0  0  0
   -6.4580    2.2764    0.0000 C   0  0  0  0  0  0  0  0  0  0  0  0
   -7.9436    2.4834    0.0000 C   0  0  0  0  0  0  0  0  0  0  0  0
   -8.8658    1.3004    0.0000 C   0  0  0  0  0  0  0  0  0  0  0  0
  -10.3514    1.5075    0.0000 F   0  0  0  0  0  0  0  0  0  0  0  0
   -8.3023   -0.0898    0.0000 C   0  0  0  0  0  0  0  0  0  0  0  0
   -6.8166   -0.2968    0.0000 C   0  0  0  0  0  0  0  0  0  0  0  0
   -0.3106   -2.5152    0.0000 C   0  0  0  0  0  0  0  0  0  0  0  0
    0.3951   -3.8389    0.0000 C   0  0  0  0  0  0  0  0  0  0  0  0
    1.8720   -3.5767    0.0000 C   0  0  0  0  0  0  0  0  0  0  0  0
    2.0791   -2.0911    0.0000 C   0  0  0  0  0  0  0  0  0  0  0  0
    3.3217   -1.2509    0.0000 C   0  0  0  0  0  0  0  0  0  0  0  0
    4.6707   -1.9069    0.0000 C   0  0  0  0  0  0  0  0  0  0  0  0
    4.7770   -3.4031    0.0000 O   0  0  0  0  0  0  0  0  0  0  0  0
    5.9133   -1.0667    0.0000 C   0  0  0  0  0  0  0  0  0  0  0  0
    5.8069    0.4296    0.0000 C   0  0  0  0  0  0  0  0  0  0  0  0
    7.0495    1.2698    0.0000 C   0  0  0  0  0  0  0  0  0  0  0  0
    6.9432    2.7660    0.0000 C   0  0  0  0  0  0  0  0  0  0  0  0
    8.1858    3.6062    0.0000 O   0  0  0  0  0  0  0  0  0  0  0  0
    5.5942    3.4220    0.0000 C   0  0  0  0  0  0  0  0  0  0  0  0
    4.3516    2.5818    0.0000 C   0  0  0  0  0  0  0  0  0  0  0  0
    4.4580    1.0856    0.0000 C   0  0  0  0  0  0  0  0  0  0  0  0
    3.1090    1.7416    0.0000 C   0  0  0  0  0  0  0  0  0  0  0  0
    3.2154    0.2454    0.0000 C   0  0  0  0  0  0  0  0  0  0  0  0
    1.8664    0.9014    0.0000 C   0  0  0  0  0  0  0  0  0  0  0  0
    0.6238    0.0612    0.0000 C   0  0  0  0  0  0  0  0  0  0  0  0
   -0.7251    0.7172    0.0000 O   0  0  0  0  0  0  0  0  0  0  0  0
    0.7302   -1.4350    0.0000 C   0  0  0  0  0  0  0  0  0  0  0  0
   -0.6799   -0.9236    0.0000 C   0  0  0  0  0  0  0  0  0  0  0  0
  2  1  1  6
  2  3  1  0
  3  4  1  0
  4  5  1  0
  5  6  2  0
  5  7  1  0
  7  8  2  0
  8  9  1  0
  9 10  2  0
 10 11  1  0
 10 12  1  0
 12 13  2  0
  2 14  1  0
 14 15  1  6
 15 16  1  0
 17 16  1  6
 17 18  1  0
 18 19  1  1
 19 20  1  1
 19 21  1  0
 22 21  1  1
 22 23  1  0
 23 24  1  0
 24 25  1  1
 24 26  1  0
 26 27  1  0
 27 28  1  0
 28 29  1  6
 28 30  1  0
 30 31  1  6
 31 32  1  0
 32 33  1  1
 32 34  1  0
 34 35  1  6
 13  7  1  0
 34 14  1  0
 34 17  1  0
 30 18  1  0
 28 22  1  0
M  END
>  <MS_ID>  (1382) 
MS1441

>  <SMILES>  (1382) 
C[C@H](CCC(=O)c1ccc(F)cc1)[C@H]1CC[C@H]2[C@@H]3[C@H](O)C[C@@H]4C[C@H](O)CC[C@]4(C)[C@H]3C[C@H](O)[C@]12C

>  <Structure_dimension>  (1382) 
2D

$$$$
MS1442
     RDKit          2D

 32 35  0  0  0  0  0  0  0  0999 V2000
   -3.2905   -3.6805    0.0000 C   0  0  0  0  0  0  0  0  0  0  0  0
   -2.3609   -2.5033    0.0000 C   0  0  0  0  0  0  0  0  0  0  0  0
   -2.9157   -1.1096    0.0000 C   0  0  0  0  0  0  0  0  0  0  0  0
   -4.4000   -0.8932    0.0000 C   0  0  0  0  0  0  0  0  0  0  0  0
   -4.9547    0.5004    0.0000 C   0  0  0  0  0  0  0  0  0  0  0  0
   -4.0251    1.6776    0.0000 O   0  0  0  0  0  0  0  0  0  0  0  0
   -6.4390    0.7168    0.0000 O   0  0  0  0  0  0  0  0  0  0  0  0
   -6.9938    2.1105    0.0000 C   0  0  0  0  0  0  0  0  0  0  0  0
   -8.3874    1.5557    0.0000 C   0  0  0  0  0  0  0  0  0  0  0  0
   -5.6001    2.6652    0.0000 C   0  0  0  0  0  0  0  0  0  0  0  0
   -7.5485    3.5041    0.0000 O   0  0  0  0  0  0  0  0  0  0  0  0
   -0.8766   -2.7197    0.0000 C   0  0  0  0  0  0  0  0  0  0  0  0
   -0.1792   -4.0477    0.0000 C   0  0  0  0  0  0  0  0  0  0  0  0
    1.2993   -3.7949    0.0000 C   0  0  0  0  0  0  0  0  0  0  0  0
    1.5157   -2.3106    0.0000 C   0  0  0  0  0  0  0  0  0  0  0  0
    2.7636   -1.4782    0.0000 C   0  0  0  0  0  0  0  0  0  0  0  0
    4.1084   -2.1427    0.0000 C   0  0  0  0  0  0  0  0  0  0  0  0
    5.3562   -1.3103    0.0000 C   0  0  0  0  0  0  0  0  0  0  0  0
    5.2593    0.1866    0.0000 C   0  0  0  0  0  0  0  0  0  0  0  0
    6.5071    1.0189    0.0000 C   0  0  0  0  0  0  0  0  0  0  0  0
    6.4102    2.5158    0.0000 C   0  0  0  0  0  0  0  0  0  0  0  0
    7.6581    3.3482    0.0000 O   0  0  0  0  0  0  0  0  0  0  0  0
    5.0654    3.1803    0.0000 C   0  0  0  0  0  0  0  0  0  0  0  0
    3.8176    2.3479    0.0000 C   0  0  0  0  0  0  0  0  0  0  0  0
    3.9145    0.8511    0.0000 C   0  0  0  0  0  0  0  0  0  0  0  0
    2.5697    1.5155    0.0000 C   0  0  0  0  0  0  0  0  0  0  0  0
    2.6666    0.0187    0.0000 C   0  0  0  0  0  0  0  0  0  0  0  0
    1.3218    0.6832    0.0000 C   0  0  0  0  0  0  0  0  0  0  0  0
    0.0740   -0.1492    0.0000 C   0  0  0  0  0  0  0  0  0  0  0  0
   -1.2708    0.5153    0.0000 O   0  0  0  0  0  0  0  0  0  0  0  0
    0.1709   -1.6461    0.0000 C   0  0  0  0  0  0  0  0  0  0  0  0
   -1.2360   -1.1258    0.0000 C   0  0  0  0  0  0  0  0  0  0  0  0
  2  1  1  6
  2  3  1  0
  3  4  1  0
  4  5  1  0
  5  6  2  0
  5  7  1  0
  7  8  1  0
  8  9  1  0
  8 10  1  0
  8 11  1  0
  2 12  1  0
 12 13  1  6
 13 14  1  0
 15 14  1  6
 15 16  1  0
 16 17  1  1
 17 18  1  0
 19 18  1  1
 19 20  1  0
 20 21  1  0
 21 22  1  6
 21 23  1  0
 23 24  1  0
 24 25  1  0
 25 26  1  6
 25 27  1  0
 27 28  1  6
 28 29  1  0
 29 30  1  1
 29 31  1  0
 31 32  1  6
 31 12  1  0
 31 15  1  0
 27 16  1  0
 25 19  1  0
M  END
>  <MS_ID>  (1383) 
MS1442

>  <SMILES>  (1383) 
C[C@H](CCC(=O)OC(C)(C)O)[C@H]1CC[C@H]2[C@@H]3CC[C@@H]4C[C@@H](O)CC[C@]4(C)[C@H]3C[C@H](O)[C@]12C

>  <Structure_dimension>  (1383) 
2D

$$$$
MS1443
     RDKit          2D

 37 41  0  0  0  0  0  0  0  0999 V2000
   -1.1345   -4.7100    0.0000 C   0  0  0  0  0  0  0  0  0  0  0  0
   -0.5750   -3.3183    0.0000 C   0  0  0  0  0  0  0  0  0  0  0  0
   -1.5006   -2.1379    0.0000 C   0  0  0  0  0  0  0  0  0  0  0  0
   -2.9856   -2.3492    0.0000 C   0  0  0  0  0  0  0  0  0  0  0  0
   -3.9111   -1.1688    0.0000 C   0  0  0  0  0  0  0  0  0  0  0  0
   -3.3516    0.2230    0.0000 O   0  0  0  0  0  0  0  0  0  0  0  0
   -5.3962   -1.3801    0.0000 C   0  0  0  0  0  0  0  0  0  0  0  0
   -6.3217   -0.1997    0.0000 C   0  0  0  0  0  0  0  0  0  0  0  0
   -7.8068   -0.4111    0.0000 C   0  0  0  0  0  0  0  0  0  0  0  0
   -8.7323    0.7693    0.0000 C   0  0  0  0  0  0  0  0  0  0  0  0
   -8.1728    2.1611    0.0000 C   0  0  0  0  0  0  0  0  0  0  0  0
   -9.0983    3.3415    0.0000 C   0  0  0  0  0  0  0  0  0  0  0  0
  -10.5834    3.1302    0.0000 C   0  0  0  0  0  0  0  0  0  0  0  0
  -11.1429    1.7384    0.0000 C   0  0  0  0  0  0  0  0  0  0  0  0
  -10.2173    0.5580    0.0000 C   0  0  0  0  0  0  0  0  0  0  0  0
    0.9100   -3.1069    0.0000 C   0  0  0  0  0  0  0  0  0  0  0  0
    1.9539   -4.1841    0.0000 C   0  0  0  0  0  0  0  0  0  0  0  0
    3.3009   -3.5242    0.0000 C   0  0  0  0  0  0  0  0  0  0  0  0
    3.0896   -2.0392    0.0000 C   0  0  0  0  0  0  0  0  0  0  0  0
    4.0518   -0.8885    0.0000 C   0  0  0  0  0  0  0  0  0  0  0  0
    5.5294   -1.1464    0.0000 C   0  0  0  0  0  0  0  0  0  0  0  0
    6.0449   -2.5550    0.0000 O   0  0  0  0  0  0  0  0  0  0  0  0
    6.4916    0.0044    0.0000 C   0  0  0  0  0  0  0  0  0  0  0  0
    7.9693   -0.2535    0.0000 O   0  0  0  0  0  0  0  0  0  0  0  0
    5.9761    1.4130    0.0000 C   0  0  0  0  0  0  0  0  0  0  0  0
    6.9383    2.5638    0.0000 C   0  0  0  0  0  0  0  0  0  0  0  0
    6.4229    3.9724    0.0000 C   0  0  0  0  0  0  0  0  0  0  0  0
    7.3850    5.1231    0.0000 O   0  0  0  0  0  0  0  0  0  0  0  0
    4.9452    4.2303    0.0000 C   0  0  0  0  0  0  0  0  0  0  0  0
    3.9830    3.0796    0.0000 C   0  0  0  0  0  0  0  0  0  0  0  0
    4.4985    1.6709    0.0000 C   0  0  0  0  0  0  0  0  0  0  0  0
    3.0208    1.9288    0.0000 C   0  0  0  0  0  0  0  0  0  0  0  0
    3.5363    0.5202    0.0000 C   0  0  0  0  0  0  0  0  0  0  0  0
    2.0586    0.7781    0.0000 C   0  0  0  0  0  0  0  0  0  0  0  0
    1.0965   -0.3726    0.0000 C   0  0  0  0  0  0  0  0  0  0  0  0
    1.6119   -1.7813    0.0000 C   0  0  0  0  0  0  0  0  0  0  0  0
    0.1154   -1.6793    0.0000 C   0  0  0  0  0  0  0  0  0  0  0  0
  2  1  1  6
  2  3  1  0
  3  4  1  0
  4  5  1  0
  5  6  2  0
  5  7  1  0
  7  8  1  0
  8  9  1  0
  9 10  1  0
 10 11  2  0
 11 12  1  0
 12 13  2  0
 13 14  1  0
 14 15  2  0
  2 16  1  0
 16 17  1  6
 17 18  1  0
 19 18  1  6
 19 20  1  0
 20 21  1  1
 21 22  1  1
 21 23  1  0
 23 24  1  1
 23 25  1  0
 25 26  1  1
 26 27  1  0
 27 28  1  1
 27 29  1  0
 29 30  1  0
 30 31  1  0
 31 32  1  6
 31 33  1  0
 33 34  1  6
 34 35  1  0
 35 36  1  0
 36 37  1  6
 15 10  1  0
 36 16  1  0
 36 19  1  0
 33 20  1  0
 31 25  1  0
M  END
>  <MS_ID>  (1384) 
MS1443

>  <SMILES>  (1384) 
C[C@H](CCC(=O)CCCc1ccccc1)[C@H]1CC[C@H]2[C@@H]3[C@H](O)[C@H](O)[C@@H]4C[C@H](O)CC[C@]4(C)[C@H]3CC[C@]12C

>  <Structure_dimension>  (1384) 
2D

$$$$
MS1444
     RDKit          2D

 37 41  0  0  0  0  0  0  0  0999 V2000
   -2.5978   -3.1256    0.0000 C   0  0  0  0  0  0  0  0  0  0  0  0
   -1.6186   -1.9892    0.0000 C   0  0  0  0  0  0  0  0  0  0  0  0
   -2.1132   -0.5731    0.0000 C   0  0  0  0  0  0  0  0  0  0  0  0
   -3.5869   -0.2933    0.0000 C   0  0  0  0  0  0  0  0  0  0  0  0
   -4.0814    1.1228    0.0000 C   0  0  0  0  0  0  0  0  0  0  0  0
   -3.1023    2.2592    0.0000 O   0  0  0  0  0  0  0  0  0  0  0  0
   -5.5551    1.4026    0.0000 C   0  0  0  0  0  0  0  0  0  0  0  0
   -6.0497    2.8187    0.0000 C   0  0  0  0  0  0  0  0  0  0  0  0
   -7.5233    3.0985    0.0000 C   0  0  0  0  0  0  0  0  0  0  0  0
   -8.5025    1.9621    0.0000 C   0  0  0  0  0  0  0  0  0  0  0  0
   -8.0079    0.5460    0.0000 C   0  0  0  0  0  0  0  0  0  0  0  0
   -8.9870   -0.5904    0.0000 C   0  0  0  0  0  0  0  0  0  0  0  0
   -8.4925   -2.0065    0.0000 O   0  0  0  0  0  0  0  0  0  0  0  0
  -10.4607   -0.3106    0.0000 O   0  0  0  0  0  0  0  0  0  0  0  0
   -6.5342    0.2662    0.0000 C   0  0  0  0  0  0  0  0  0  0  0  0
   -0.1450   -2.2690    0.0000 C   0  0  0  0  0  0  0  0  0  0  0  0
    0.4949   -3.6257    0.0000 C   0  0  0  0  0  0  0  0  0  0  0  0
    1.9829   -3.4364    0.0000 C   0  0  0  0  0  0  0  0  0  0  0  0
    2.2627   -1.9627    0.0000 C   0  0  0  0  0  0  0  0  0  0  0  0
    3.5450   -1.1845    0.0000 C   0  0  0  0  0  0  0  0  0  0  0  0
    4.8601   -1.9060    0.0000 C   0  0  0  0  0  0  0  0  0  0  0  0
    4.8929   -3.4056    0.0000 O   0  0  0  0  0  0  0  0  0  0  0  0
    6.1425   -1.1278    0.0000 C   0  0  0  0  0  0  0  0  0  0  0  0
    7.4576   -1.8493    0.0000 O   0  0  0  0  0  0  0  0  0  0  0  0
    6.1098    0.3718    0.0000 C   0  0  0  0  0  0  0  0  0  0  0  0
    7.3921    1.1500    0.0000 C   0  0  0  0  0  0  0  0  0  0  0  0
    7.3594    2.6497    0.0000 C   0  0  0  0  0  0  0  0  0  0  0  0
    8.6417    3.4278    0.0000 O   0  0  0  0  0  0  0  0  0  0  0  0
    6.0443    3.3711    0.0000 C   0  0  0  0  0  0  0  0  0  0  0  0
    4.7619    2.5930    0.0000 C   0  0  0  0  0  0  0  0  0  0  0  0
    4.7947    1.0933    0.0000 C   0  0  0  0  0  0  0  0  0  0  0  0
    3.4796    1.8148    0.0000 C   0  0  0  0  0  0  0  0  0  0  0  0
    3.5123    0.3151    0.0000 C   0  0  0  0  0  0  0  0  0  0  0  0
    2.1972    1.0366    0.0000 C   0  0  0  0  0  0  0  0  0  0  0  0
    0.9148    0.2584    0.0000 C   0  0  0  0  0  0  0  0  0  0  0  0
    0.9476   -1.2412    0.0000 C   0  0  0  0  0  0  0  0  0  0  0  0
   -0.4357   -0.6612    0.0000 C   0  0  0  0  0  0  0  0  0  0  0  0
  2  1  1  6
  2  3  1  0
  3  4  1  0
  4  5  1  0
  5  6  2  0
  5  7  1  0
  7  8  2  0
  8  9  1  0
  9 10  2  0
 10 11  1  0
 11 12  1  0
 12 13  2  0
 12 14  1  0
 11 15  2  0
  2 16  1  0
 16 17  1  6
 17 18  1  0
 19 18  1  6
 19 20  1  0
 20 21  1  1
 21 22  1  1
 21 23  1  0
 23 24  1  1
 23 25  1  0
 25 26  1  1
 26 27  1  0
 27 28  1  1
 27 29  1  0
 29 30  1  0
 30 31  1  0
 31 32  1  6
 31 33  1  0
 33 34  1  6
 34 35  1  0
 35 36  1  0
 36 37  1  6
 15  7  1  0
 36 16  1  0
 36 19  1  0
 33 20  1  0
 31 25  1  0
M  END
>  <MS_ID>  (1385) 
MS1444

>  <SMILES>  (1385) 
C[C@H](CCC(=O)c1cccc(C(=O)O)c1)[C@H]1CC[C@H]2[C@@H]3[C@H](O)[C@H](O)[C@@H]4C[C@H](O)CC[C@]4(C)[C@H]3CC[C@]12C

>  <Structure_dimension>  (1385) 
2D

$$$$
MS1445
     RDKit          2D

 32 35  0  0  0  0  0  0  0  0999 V2000
   -4.2974   -3.0301    0.0000 C   0  0  0  0  0  0  0  0  0  0  0  0
   -3.2524   -1.9540    0.0000 C   0  0  0  0  0  0  0  0  0  0  0  0
   -3.6617   -0.5110    0.0000 C   0  0  0  0  0  0  0  0  0  0  0  0
   -5.1162   -0.1440    0.0000 C   0  0  0  0  0  0  0  0  0  0  0  0
   -5.5255    1.2991    0.0000 C   0  0  0  0  0  0  0  0  0  0  0  0
   -6.9799    1.6661    0.0000 O   0  0  0  0  0  0  0  0  0  0  0  0
   -4.4805    2.3752    0.0000 S   0  0  0  0  0  0  0  0  0  0  0  0
   -3.4354    3.4512    0.0000 C   0  0  0  0  0  0  0  0  0  0  0  0
   -3.4044    1.3301    0.0000 O   0  0  0  0  0  0  0  0  0  0  0  0
   -5.5565    3.4202    0.0000 O   0  0  0  0  0  0  0  0  0  0  0  0
   -1.7980   -2.3210    0.0000 C   0  0  0  0  0  0  0  0  0  0  0  0
   -1.2400   -3.7134    0.0000 C   0  0  0  0  0  0  0  0  0  0  0  0
    0.2566   -3.6130    0.0000 C   0  0  0  0  0  0  0  0  0  0  0  0
    0.6236   -2.1586    0.0000 C   0  0  0  0  0  0  0  0  0  0  0  0
    1.9500   -1.4581    0.0000 C   0  0  0  0  0  0  0  0  0  0  0  0
    3.2199   -2.2566    0.0000 C   0  0  0  0  0  0  0  0  0  0  0  0
    3.1633   -3.7556    0.0000 O   0  0  0  0  0  0  0  0  0  0  0  0
    4.5463   -1.5562    0.0000 C   0  0  0  0  0  0  0  0  0  0  0  0
    4.6029   -0.0573    0.0000 C   0  0  0  0  0  0  0  0  0  0  0  0
    5.9293    0.6432    0.0000 C   0  0  0  0  0  0  0  0  0  0  0  0
    5.9859    2.1421    0.0000 C   0  0  0  0  0  0  0  0  0  0  0  0
    7.3123    2.8426    0.0000 O   0  0  0  0  0  0  0  0  0  0  0  0
    4.7161    2.9406    0.0000 C   0  0  0  0  0  0  0  0  0  0  0  0
    3.3897    2.2402    0.0000 C   0  0  0  0  0  0  0  0  0  0  0  0
    3.3331    0.7412    0.0000 C   0  0  0  0  0  0  0  0  0  0  0  0
    2.0633    1.5397    0.0000 C   0  0  0  0  0  0  0  0  0  0  0  0
    2.0067    0.0408    0.0000 C   0  0  0  0  0  0  0  0  0  0  0  0
    0.7368    0.8393    0.0000 C   0  0  0  0  0  0  0  0  0  0  0  0
   -0.5896    0.1388    0.0000 C   0  0  0  0  0  0  0  0  0  0  0  0
   -1.8594    0.9373    0.0000 O   0  0  0  0  0  0  0  0  0  0  0  0
   -0.6462   -1.3601    0.0000 C   0  0  0  0  0  0  0  0  0  0  0  0
   -1.9925   -0.6987    0.0000 C   0  0  0  0  0  0  0  0  0  0  0  0
  2  1  1  6
  2  3  1  0
  3  4  1  0
  4  5  1  0
  5  6  2  0
  5  7  1  0
  7  8  1  0
  7  9  2  0
  7 10  2  0
  2 11  1  0
 11 12  1  6
 12 13  1  0
 14 13  1  6
 14 15  1  0
 15 16  1  1
 16 17  1  1
 16 18  1  0
 19 18  1  1
 19 20  1  0
 20 21  1  0
 21 22  1  1
 21 23  1  0
 23 24  1  0
 24 25  1  0
 25 26  1  6
 25 27  1  0
 27 28  1  6
 28 29  1  0
 29 30  1  1
 29 31  1  0
 31 32  1  6
 31 11  1  0
 31 14  1  0
 27 15  1  0
 25 19  1  0
M  END
>  <MS_ID>  (1386) 
MS1445

>  <SMILES>  (1386) 
C[C@H](CCC(=O)S(C)(=O)=O)[C@H]1CC[C@H]2[C@@H]3[C@H](O)C[C@@H]4C[C@H](O)CC[C@]4(C)[C@H]3C[C@H](O)[C@]12C

>  <Structure_dimension>  (1386) 
2D

$$$$
MS1446
     RDKit          2D

 35 39  0  0  0  0  0  0  0  0999 V2000
   -2.6067   -3.3875    0.0000 C   0  0  0  0  0  0  0  0  0  0  0  0
   -1.6685   -2.2170    0.0000 C   0  0  0  0  0  0  0  0  0  0  0  0
   -2.2131   -0.8194    0.0000 C   0  0  0  0  0  0  0  0  0  0  0  0
   -3.6958   -0.5922    0.0000 C   0  0  0  0  0  0  0  0  0  0  0  0
   -4.2404    0.8055    0.0000 C   0  0  0  0  0  0  0  0  0  0  0  0
   -3.3022    1.9759    0.0000 O   0  0  0  0  0  0  0  0  0  0  0  0
   -5.7230    1.0327    0.0000 C   0  0  0  0  0  0  0  0  0  0  0  0
   -6.2676    2.4304    0.0000 C   0  0  0  0  0  0  0  0  0  0  0  0
   -7.7503    2.6576    0.0000 C   0  0  0  0  0  0  0  0  0  0  0  0
   -8.6884    1.4872    0.0000 C   0  0  0  0  0  0  0  0  0  0  0  0
  -10.1711    1.7144    0.0000 O   0  0  0  0  0  0  0  0  0  0  0  0
   -8.1439    0.0895    0.0000 C   0  0  0  0  0  0  0  0  0  0  0  0
   -6.6612   -0.1377    0.0000 C   0  0  0  0  0  0  0  0  0  0  0  0
   -6.1166   -1.5354    0.0000 O   0  0  0  0  0  0  0  0  0  0  0  0
   -0.1858   -2.4442    0.0000 C   0  0  0  0  0  0  0  0  0  0  0  0
    0.5018   -3.7773    0.0000 C   0  0  0  0  0  0  0  0  0  0  0  0
    1.9822   -3.5352    0.0000 C   0  0  0  0  0  0  0  0  0  0  0  0
    2.2094   -2.0526    0.0000 C   0  0  0  0  0  0  0  0  0  0  0  0
    3.4633   -1.2293    0.0000 C   0  0  0  0  0  0  0  0  0  0  0  0
    4.8032   -1.9036    0.0000 C   0  0  0  0  0  0  0  0  0  0  0  0
    4.8892   -3.4011    0.0000 O   0  0  0  0  0  0  0  0  0  0  0  0
    6.0571   -1.0803    0.0000 C   0  0  0  0  0  0  0  0  0  0  0  0
    5.9711    0.4172    0.0000 C   0  0  0  0  0  0  0  0  0  0  0  0
    7.2250    1.2405    0.0000 C   0  0  0  0  0  0  0  0  0  0  0  0
    7.1389    2.7380    0.0000 C   0  0  0  0  0  0  0  0  0  0  0  0
    8.3928    3.5613    0.0000 O   0  0  0  0  0  0  0  0  0  0  0  0
    5.7990    3.4123    0.0000 C   0  0  0  0  0  0  0  0  0  0  0  0
    4.5451    2.5890    0.0000 C   0  0  0  0  0  0  0  0  0  0  0  0
    4.6312    1.0915    0.0000 C   0  0  0  0  0  0  0  0  0  0  0  0
    3.2913    1.7658    0.0000 C   0  0  0  0  0  0  0  0  0  0  0  0
    3.3773    0.2682    0.0000 C   0  0  0  0  0  0  0  0  0  0  0  0
    2.0374    0.9425    0.0000 C   0  0  0  0  0  0  0  0  0  0  0  0
    0.7835    0.1193    0.0000 C   0  0  0  0  0  0  0  0  0  0  0  0
    0.8695   -1.3783    0.0000 C   0  0  0  0  0  0  0  0  0  0  0  0
   -0.5336   -0.8478    0.0000 C   0  0  0  0  0  0  0  0  0  0  0  0
  2  1  1  6
  2  3  1  0
  3  4  1  0
  4  5  1  0
  5  6  2  0
  5  7  1  0
  7  8  2  0
  8  9  1  0
  9 10  2  0
 10 11  1  0
 10 12  1  0
 12 13  2  0
 13 14  1  0
  2 15  1  0
 15 16  1  6
 16 17  1  0
 18 17  1  6
 18 19  1  0
 19 20  1  1
 20 21  1  1
 20 22  1  0
 23 22  1  1
 23 24  1  0
 24 25  1  0
 25 26  1  1
 25 27  1  0
 27 28  1  0
 28 29  1  0
 29 30  1  6
 29 31  1  0
 31 32  1  6
 32 33  1  0
 33 34  1  0
 34 35  1  6
 13  7  1  0
 34 15  1  0
 34 18  1  0
 31 19  1  0
 29 23  1  0
M  END
>  <MS_ID>  (1387) 
MS1446

>  <SMILES>  (1387) 
C[C@H](CCC(=O)c1ccc(O)cc1O)[C@H]1CC[C@H]2[C@@H]3[C@H](O)C[C@@H]4C[C@H](O)CC[C@]4(C)[C@H]3CC[C@]12C

>  <Structure_dimension>  (1387) 
2D

$$$$
MS1447
     RDKit          2D

 29 32  0  0  0  0  0  0  0  0999 V2000
   -4.6551   -2.6180    0.0000 C   0  0  0  0  0  0  0  0  0  0  0  0
   -3.5633   -1.5894    0.0000 C   0  0  0  0  0  0  0  0  0  0  0  0
   -3.9081   -0.1296    0.0000 C   0  0  0  0  0  0  0  0  0  0  0  0
   -5.3448    0.3016    0.0000 C   0  0  0  0  0  0  0  0  0  0  0  0
   -5.6897    1.7615    0.0000 C   0  0  0  0  0  0  0  0  0  0  0  0
   -4.5979    2.7900    0.0000 O   0  0  0  0  0  0  0  0  0  0  0  0
   -7.1264    2.1927    0.0000 C   0  0  0  0  0  0  0  0  0  0  0  0
   -7.4712    3.6525    0.0000 N   0  0  0  0  0  0  0  0  0  0  0  0
   -2.1266   -2.0207    0.0000 C   0  0  0  0  0  0  0  0  0  0  0  0
   -1.6310   -3.4364    0.0000 C   0  0  0  0  0  0  0  0  0  0  0  0
   -0.1314   -3.4026    0.0000 C   0  0  0  0  0  0  0  0  0  0  0  0
    0.2998   -1.9659    0.0000 C   0  0  0  0  0  0  0  0  0  0  0  0
    1.6561   -1.3251    0.0000 C   0  0  0  0  0  0  0  0  0  0  0  0
    2.8892   -2.1792    0.0000 C   0  0  0  0  0  0  0  0  0  0  0  0
    2.7660   -3.6741    0.0000 O   0  0  0  0  0  0  0  0  0  0  0  0
    4.2454   -1.5383    0.0000 C   0  0  0  0  0  0  0  0  0  0  0  0
    4.3685   -0.0434    0.0000 C   0  0  0  0  0  0  0  0  0  0  0  0
    5.7247    0.5975    0.0000 C   0  0  0  0  0  0  0  0  0  0  0  0
    5.8478    2.0924    0.0000 C   0  0  0  0  0  0  0  0  0  0  0  0
    7.2040    2.7332    0.0000 O   0  0  0  0  0  0  0  0  0  0  0  0
    4.6147    2.9465    0.0000 C   0  0  0  0  0  0  0  0  0  0  0  0
    3.2585    2.3056    0.0000 C   0  0  0  0  0  0  0  0  0  0  0  0
    3.1354    0.8107    0.0000 C   0  0  0  0  0  0  0  0  0  0  0  0
    1.9023    1.6648    0.0000 C   0  0  0  0  0  0  0  0  0  0  0  0
    1.7792    0.1699    0.0000 C   0  0  0  0  0  0  0  0  0  0  0  0
    0.5461    1.0239    0.0000 C   0  0  0  0  0  0  0  0  0  0  0  0
   -0.8101    0.3831    0.0000 C   0  0  0  0  0  0  0  0  0  0  0  0
   -0.9333   -1.1118    0.0000 C   0  0  0  0  0  0  0  0  0  0  0  0
   -2.2489   -0.3913    0.0000 C   0  0  0  0  0  0  0  0  0  0  0  0
  2  1  1  6
  2  3  1  0
  3  4  1  0
  4  5  1  0
  5  6  2  0
  5  7  1  0
  7  8  1  0
  2  9  1  0
  9 10  1  6
 10 11  1  0
 12 11  1  6
 12 13  1  0
 13 14  1  1
 14 15  1  1
 14 16  1  0
 17 16  1  1
 17 18  1  0
 18 19  1  0
 19 20  2  0
 19 21  1  0
 21 22  1  0
 22 23  1  0
 23 24  1  6
 23 25  1  0
 25 26  1  6
 26 27  1  0
 27 28  1  0
 28 29  1  6
 28  9  1  0
 28 12  1  0
 25 13  1  0
 23 17  1  0
M  END
>  <MS_ID>  (1388) 
MS1447

>  <SMILES>  (1388) 
C[C@H](CCC(=O)CN)[C@H]1CC[C@H]2[C@@H]3[C@H](O)C[C@@H]4CC(=O)CC[C@]4(C)[C@H]3CC[C@]12C

>  <Structure_dimension>  (1388) 
2D

$$$$
MS1448
     RDKit          2D

 32 35  0  0  0  0  0  0  0  0999 V2000
   -3.2905   -3.6805    0.0000 C   0  0  0  0  0  0  0  0  0  0  0  0
   -2.3609   -2.5033    0.0000 C   0  0  0  0  0  0  0  0  0  0  0  0
   -2.9157   -1.1096    0.0000 C   0  0  0  0  0  0  0  0  0  0  0  0
   -4.4000   -0.8932    0.0000 C   0  0  0  0  0  0  0  0  0  0  0  0
   -4.9547    0.5004    0.0000 C   0  0  0  0  0  0  0  0  0  0  0  0
   -4.0251    1.6776    0.0000 O   0  0  0  0  0  0  0  0  0  0  0  0
   -6.4390    0.7168    0.0000 O   0  0  0  0  0  0  0  0  0  0  0  0
   -6.9938    2.1105    0.0000 C   0  0  0  0  0  0  0  0  0  0  0  0
   -8.3874    1.5557    0.0000 C   0  0  0  0  0  0  0  0  0  0  0  0
   -5.6001    2.6652    0.0000 C   0  0  0  0  0  0  0  0  0  0  0  0
   -7.5485    3.5041    0.0000 O   0  0  0  0  0  0  0  0  0  0  0  0
   -0.8766   -2.7197    0.0000 C   0  0  0  0  0  0  0  0  0  0  0  0
   -0.1792   -4.0477    0.0000 C   0  0  0  0  0  0  0  0  0  0  0  0
    1.2993   -3.7949    0.0000 C   0  0  0  0  0  0  0  0  0  0  0  0
    1.5157   -2.3106    0.0000 C   0  0  0  0  0  0  0  0  0  0  0  0
    2.7636   -1.4782    0.0000 C   0  0  0  0  0  0  0  0  0  0  0  0
    4.1084   -2.1427    0.0000 C   0  0  0  0  0  0  0  0  0  0  0  0
    5.3562   -1.3103    0.0000 C   0  0  0  0  0  0  0  0  0  0  0  0
    5.2593    0.1866    0.0000 C   0  0  0  0  0  0  0  0  0  0  0  0
    6.5071    1.0189    0.0000 C   0  0  0  0  0  0  0  0  0  0  0  0
    6.4102    2.5158    0.0000 C   0  0  0  0  0  0  0  0  0  0  0  0
    7.6581    3.3482    0.0000 O   0  0  0  0  0  0  0  0  0  0  0  0
    5.0654    3.1803    0.0000 C   0  0  0  0  0  0  0  0  0  0  0  0
    3.8176    2.3479    0.0000 C   0  0  0  0  0  0  0  0  0  0  0  0
    3.9145    0.8511    0.0000 C   0  0  0  0  0  0  0  0  0  0  0  0
    2.5697    1.5155    0.0000 C   0  0  0  0  0  0  0  0  0  0  0  0
    2.6666    0.0187    0.0000 C   0  0  0  0  0  0  0  0  0  0  0  0
    1.3218    0.6832    0.0000 C   0  0  0  0  0  0  0  0  0  0  0  0
    0.0740   -0.1492    0.0000 C   0  0  0  0  0  0  0  0  0  0  0  0
   -1.2708    0.5153    0.0000 O   0  0  0  0  0  0  0  0  0  0  0  0
    0.1709   -1.6461    0.0000 C   0  0  0  0  0  0  0  0  0  0  0  0
   -1.2360   -1.1258    0.0000 C   0  0  0  0  0  0  0  0  0  0  0  0
  2  1  1  6
  2  3  1  0
  3  4  1  0
  4  5  1  0
  5  6  2  0
  5  7  1  0
  7  8  1  0
  8  9  1  0
  8 10  1  0
  8 11  1  0
  2 12  1  0
 12 13  1  6
 13 14  1  0
 15 14  1  6
 15 16  1  0
 16 17  1  1
 17 18  1  0
 19 18  1  1
 19 20  1  0
 20 21  1  0
 21 22  1  1
 21 23  1  0
 23 24  1  0
 24 25  1  0
 25 26  1  6
 25 27  1  0
 27 28  1  6
 28 29  1  0
 29 30  1  6
 29 31  1  0
 31 32  1  6
 31 12  1  0
 31 15  1  0
 27 16  1  0
 25 19  1  0
M  END
>  <MS_ID>  (1389) 
MS1448

>  <SMILES>  (1389) 
C[C@H](CCC(=O)OC(C)(C)O)[C@H]1CC[C@H]2[C@@H]3CC[C@@H]4C[C@H](O)CC[C@]4(C)[C@H]3C[C@@H](O)[C@]12C

>  <Structure_dimension>  (1389) 
2D

$$$$
MS1449
     RDKit          2D

 31 34  0  0  0  0  0  0  0  0999 V2000
   -6.2983   -1.8943    0.0000 C   0  0  0  0  0  0  0  0  0  0  0  0
   -5.0623   -1.0445    0.0000 C   0  0  0  0  0  0  0  0  0  0  0  0
   -5.1802    0.4509    0.0000 C   0  0  0  0  0  0  0  0  0  0  0  0
   -6.5342    1.0964    0.0000 C   0  0  0  0  0  0  0  0  0  0  0  0
   -6.6522    2.5917    0.0000 C   0  0  0  0  0  0  0  0  0  0  0  0
   -5.4162    3.4416    0.0000 O   0  0  0  0  0  0  0  0  0  0  0  0
   -8.0062    3.2373    0.0000 O   0  0  0  0  0  0  0  0  0  0  0  0
   -3.7083   -1.6900    0.0000 C   0  0  0  0  0  0  0  0  0  0  0  0
   -3.4346   -3.1648    0.0000 C   0  0  0  0  0  0  0  0  0  0  0  0
   -1.9474   -3.3603    0.0000 C   0  0  0  0  0  0  0  0  0  0  0  0
   -1.3019   -2.0063    0.0000 C   0  0  0  0  0  0  0  0  0  0  0  0
    0.1362   -1.5800    0.0000 C   0  0  0  0  0  0  0  0  0  0  0  0
    1.2245   -2.6123    0.0000 C   0  0  0  0  0  0  0  0  0  0  0  0
    2.6626   -2.1860    0.0000 C   0  0  0  0  0  0  0  0  0  0  0  0
    3.0125   -0.7274    0.0000 C   0  0  0  0  0  0  0  0  0  0  0  0
    4.4507   -0.3011    0.0000 C   0  0  0  0  0  0  0  0  0  0  0  0
    4.8006    1.1575    0.0000 C   0  0  0  0  0  0  0  0  0  0  0  0
    6.2387    1.5838    0.0000 C   0  0  0  0  0  0  0  0  0  0  0  0
    7.3270    0.5515    0.0000 S   0  0  0  0  0  0  0  0  0  0  0  0
    8.3593    1.6397    0.0000 O   0  0  0  0  0  0  0  0  0  0  0  0
    6.2946   -0.5368    0.0000 O   0  0  0  0  0  0  0  0  0  0  0  0
    8.4152   -0.4809    0.0000 O   0  0  0  0  0  0  0  0  0  0  0  0
    3.7123    2.1898    0.0000 C   0  0  0  0  0  0  0  0  0  0  0  0
    2.2742    1.7635    0.0000 C   0  0  0  0  0  0  0  0  0  0  0  0
    1.9243    0.3049    0.0000 C   0  0  0  0  0  0  0  0  0  0  0  0
    0.8360    1.3372    0.0000 C   0  0  0  0  0  0  0  0  0  0  0  0
    0.4861   -0.1214    0.0000 C   0  0  0  0  0  0  0  0  0  0  0  0
   -0.6021    0.9109    0.0000 C   0  0  0  0  0  0  0  0  0  0  0  0
   -2.0403    0.4846    0.0000 C   0  0  0  0  0  0  0  0  0  0  0  0
   -2.3902   -0.9740    0.0000 C   0  0  0  0  0  0  0  0  0  0  0  0
   -3.5804   -0.0611    0.0000 C   0  0  0  0  0  0  0  0  0  0  0  0
  2  1  1  6
  2  3  1  0
  3  4  1  0
  4  5  1  0
  5  6  2  0
  5  7  1  0
  2  8  1  0
  8  9  1  6
  9 10  1  0
 11 10  1  6
 11 12  1  0
 12 13  1  1
 13 14  1  0
 15 14  1  1
 15 16  1  0
 16 17  1  0
 17 18  1  1
 18 19  1  0
 19 20  2  0
 19 21  2  0
 19 22  1  0
 17 23  1  0
 23 24  1  0
 24 25  1  0
 25 26  1  6
 25 27  1  0
 27 28  1  6
 28 29  1  0
 29 30  1  0
 30 31  1  6
 30  8  1  0
 30 11  1  0
 27 12  1  0
 25 15  1  0
M  END
>  <MS_ID>  (1390) 
MS1449

>  <SMILES>  (1390) 
C[C@H](CCC(=O)O)[C@H]1CC[C@H]2[C@@H]3CC[C@@H]4C[C@H](CS(=O)(=O)O)CC[C@]4(C)[C@H]3CC[C@]12C

>  <Structure_dimension>  (1390) 
2D

$$$$
MS1450
     RDKit          2D

 34 37  0  0  0  0  0  0  0  0999 V2000
   -2.4088   -4.8272    0.0000 C   0  0  0  0  0  0  0  0  0  0  0  0
   -1.7843   -3.4634    0.0000 C   0  0  0  0  0  0  0  0  0  0  0  0
   -2.6531   -2.2406    0.0000 C   0  0  0  0  0  0  0  0  0  0  0  0
   -4.1465   -2.3817    0.0000 C   0  0  0  0  0  0  0  0  0  0  0  0
   -5.0153   -1.1590    0.0000 C   0  0  0  0  0  0  0  0  0  0  0  0
   -6.5087   -1.3000    0.0000 O   0  0  0  0  0  0  0  0  0  0  0  0
   -4.3908    0.2049    0.0000 O   0  0  0  0  0  0  0  0  0  0  0  0
   -5.2597    1.4276    0.0000 C   0  0  0  0  0  0  0  0  0  0  0  0
   -6.7530    1.2865    0.0000 O   0  0  0  0  0  0  0  0  0  0  0  0
   -4.6351    2.7914    0.0000 C   0  0  0  0  0  0  0  0  0  0  0  0
   -5.5040    4.0142    0.0000 C   0  0  0  0  0  0  0  0  0  0  0  0
   -6.9973    3.8731    0.0000 O   0  0  0  0  0  0  0  0  0  0  0  0
   -4.8795    5.3780    0.0000 O   0  0  0  0  0  0  0  0  0  0  0  0
   -0.2909   -3.3223    0.0000 C   0  0  0  0  0  0  0  0  0  0  0  0
    0.7010   -4.4475    0.0000 C   0  0  0  0  0  0  0  0  0  0  0  0
    2.0777   -3.8519    0.0000 C   0  0  0  0  0  0  0  0  0  0  0  0
    1.9366   -2.3585    0.0000 C   0  0  0  0  0  0  0  0  0  0  0  0
    2.9520   -1.2545    0.0000 C   0  0  0  0  0  0  0  0  0  0  0  0
    4.4158   -1.5818    0.0000 C   0  0  0  0  0  0  0  0  0  0  0  0
    4.8643   -3.0131    0.0000 O   0  0  0  0  0  0  0  0  0  0  0  0
    5.4312   -0.4777    0.0000 C   0  0  0  0  0  0  0  0  0  0  0  0
    4.9827    0.9537    0.0000 C   0  0  0  0  0  0  0  0  0  0  0  0
    5.9981    2.0578    0.0000 C   0  0  0  0  0  0  0  0  0  0  0  0
    5.5496    3.4892    0.0000 C   0  0  0  0  0  0  0  0  0  0  0  0
    6.5650    4.5933    0.0000 O   0  0  0  0  0  0  0  0  0  0  0  0
    4.0858    3.8165    0.0000 C   0  0  0  0  0  0  0  0  0  0  0  0
    3.0704    2.7124    0.0000 C   0  0  0  0  0  0  0  0  0  0  0  0
    3.5189    1.2810    0.0000 C   0  0  0  0  0  0  0  0  0  0  0  0
    2.0550    1.6083    0.0000 C   0  0  0  0  0  0  0  0  0  0  0  0
    2.5035    0.1769    0.0000 C   0  0  0  0  0  0  0  0  0  0  0  0
    1.0396    0.5042    0.0000 C   0  0  0  0  0  0  0  0  0  0  0  0
    0.0243   -0.5998    0.0000 C   0  0  0  0  0  0  0  0  0  0  0  0
    0.4727   -2.0312    0.0000 C   0  0  0  0  0  0  0  0  0  0  0  0
   -1.0173   -1.8587    0.0000 C   0  0  0  0  0  0  0  0  0  0  0  0
  2  1  1  6
  2  3  1  0
  3  4  1  0
  4  5  1  0
  5  6  2  0
  5  7  1  0
  7  8  1  0
  8  9  2  0
  8 10  1  0
 10 11  1  0
 11 12  2  0
 11 13  1  0
  2 14  1  0
 14 15  1  6
 15 16  1  0
 17 16  1  6
 17 18  1  0
 18 19  1  1
 19 20  1  1
 19 21  1  0
 22 21  1  1
 22 23  1  0
 23 24  1  0
 24 25  1  1
 24 26  1  0
 26 27  1  0
 27 28  1  0
 28 29  1  6
 28 30  1  0
 30 31  1  6
 31 32  1  0
 32 33  1  0
 33 34  1  6
 33 14  1  0
 33 17  1  0
 30 18  1  0
 28 22  1  0
M  END
>  <MS_ID>  (1391) 
MS1450

>  <SMILES>  (1391) 
C[C@H](CCC(=O)OC(=O)CC(=O)O)[C@H]1CC[C@H]2[C@@H]3[C@H](O)C[C@@H]4C[C@H](O)CC[C@]4(C)[C@H]3CC[C@]12C

>  <Structure_dimension>  (1391) 
2D

$$$$
MS1451
     RDKit          2D

 31 34  0  0  0  0  0  0  0  0999 V2000
   -5.0390   -2.1770    0.0000 C   0  0  0  0  0  0  0  0  0  0  0  0
   -3.9314   -1.1655    0.0000 C   0  0  0  0  0  0  0  0  0  0  0  0
   -4.2536    0.2995    0.0000 C   0  0  0  0  0  0  0  0  0  0  0  0
   -5.6834    0.7530    0.0000 C   0  0  0  0  0  0  0  0  0  0  0  0
   -6.0056    2.2180    0.0000 C   0  0  0  0  0  0  0  0  0  0  0  0
   -4.8980    3.2295    0.0000 O   0  0  0  0  0  0  0  0  0  0  0  0
   -7.4354    2.6714    0.0000 O   0  0  0  0  0  0  0  0  0  0  0  0
   -2.5016   -1.6189    0.0000 C   0  0  0  0  0  0  0  0  0  0  0  0
   -2.0280   -3.0422    0.0000 C   0  0  0  0  0  0  0  0  0  0  0  0
   -0.5280   -3.0316    0.0000 C   0  0  0  0  0  0  0  0  0  0  0  0
   -0.0746   -1.6018    0.0000 C   0  0  0  0  0  0  0  0  0  0  0  0
    1.2914   -0.9820    0.0000 C   0  0  0  0  0  0  0  0  0  0  0  0
    2.5111   -1.8551    0.0000 C   0  0  0  0  0  0  0  0  0  0  0  0
    2.3649   -3.3480    0.0000 C   0  0  0  0  0  0  0  0  0  0  0  0
    0.9989   -3.9677    0.0000 O   0  0  0  0  0  0  0  0  0  0  0  0
    3.5846   -4.2211    0.0000 O   0  0  0  0  0  0  0  0  0  0  0  0
    3.8771   -1.2354    0.0000 C   0  0  0  0  0  0  0  0  0  0  0  0
    4.0234    0.2575    0.0000 C   0  0  0  0  0  0  0  0  0  0  0  0
    5.3894    0.8772    0.0000 C   0  0  0  0  0  0  0  0  0  0  0  0
    5.5356    2.3701    0.0000 C   0  0  0  0  0  0  0  0  0  0  0  0
    6.9016    2.9898    0.0000 O   0  0  0  0  0  0  0  0  0  0  0  0
    4.3159    3.2432    0.0000 C   0  0  0  0  0  0  0  0  0  0  0  0
    2.9499    2.6234    0.0000 C   0  0  0  0  0  0  0  0  0  0  0  0
    2.8037    1.1306    0.0000 C   0  0  0  0  0  0  0  0  0  0  0  0
    1.5839    2.0037    0.0000 C   0  0  0  0  0  0  0  0  0  0  0  0
    1.4377    0.5108    0.0000 C   0  0  0  0  0  0  0  0  0  0  0  0
    0.2180    1.3839    0.0000 C   0  0  0  0  0  0  0  0  0  0  0  0
   -1.1480    0.7642    0.0000 C   0  0  0  0  0  0  0  0  0  0  0  0
   -2.3677    1.6372    0.0000 O   0  0  0  0  0  0  0  0  0  0  0  0
   -1.2943   -0.7287    0.0000 C   0  0  0  0  0  0  0  0  0  0  0  0
   -2.5986    0.0121    0.0000 C   0  0  0  0  0  0  0  0  0  0  0  0
  2  1  1  6
  2  3  1  0
  3  4  1  0
  4  5  1  0
  5  6  2  0
  5  7  1  0
  2  8  1  0
  8  9  1  6
  9 10  1  0
 11 10  1  6
 11 12  1  0
 12 13  1  1
 13 14  1  6
 14 15  2  0
 14 16  1  0
 13 17  1  0
 18 17  1  1
 18 19  1  0
 19 20  1  0
 20 21  1  1
 20 22  1  0
 22 23  1  0
 23 24  1  0
 24 25  1  6
 24 26  1  0
 26 27  1  6
 27 28  1  0
 28 29  1  1
 28 30  1  0
 30 31  1  6
 30  8  1  0
 30 11  1  0
 26 12  1  0
 24 18  1  0
M  END
>  <MS_ID>  (1392) 
MS1451

>  <SMILES>  (1392) 
C[C@H](CCC(=O)O)[C@H]1CC[C@H]2[C@@H]3[C@@H](C(=O)O)C[C@@H]4C[C@H](O)CC[C@]4(C)[C@H]3C[C@H](O)[C@]12C

>  <Structure_dimension>  (1392) 
2D

$$$$
MS1452
     RDKit          2D

 31 34  0  0  0  0  0  0  0  0999 V2000
   -5.7175   -1.8176    0.0000 C   0  0  0  0  0  0  0  0  0  0  0  0
   -4.4708   -0.9835    0.0000 C   0  0  0  0  0  0  0  0  0  0  0  0
   -4.5698    0.5132    0.0000 C   0  0  0  0  0  0  0  0  0  0  0  0
   -5.9155    1.1758    0.0000 C   0  0  0  0  0  0  0  0  0  0  0  0
   -6.0145    2.6726    0.0000 C   0  0  0  0  0  0  0  0  0  0  0  0
   -4.7678    3.5067    0.0000 O   0  0  0  0  0  0  0  0  0  0  0  0
   -7.3602    3.3352    0.0000 O   0  0  0  0  0  0  0  0  0  0  0  0
   -3.1251   -1.6462    0.0000 C   0  0  0  0  0  0  0  0  0  0  0  0
   -2.8701   -3.1243    0.0000 C   0  0  0  0  0  0  0  0  0  0  0  0
   -1.3855   -3.3387    0.0000 C   0  0  0  0  0  0  0  0  0  0  0  0
   -0.7229   -1.9930    0.0000 C   0  0  0  0  0  0  0  0  0  0  0  0
    0.7205   -1.5850    0.0000 C   0  0  0  0  0  0  0  0  0  0  0  0
    1.7956   -2.6310    0.0000 C   0  0  0  0  0  0  0  0  0  0  0  0
    1.4272   -4.0851    0.0000 O   0  0  0  0  0  0  0  0  0  0  0  0
    3.2390   -2.2230    0.0000 C   0  0  0  0  0  0  0  0  0  0  0  0
    3.6074   -0.7689    0.0000 C   0  0  0  0  0  0  0  0  0  0  0  0
    5.0508   -0.3609    0.0000 C   0  0  0  0  0  0  0  0  0  0  0  0
    5.4192    1.0932    0.0000 C   0  0  0  0  0  0  0  0  0  0  0  0
    6.8626    1.5012    0.0000 N   0  0  0  0  0  0  0  0  0  0  0  0
    7.9377    0.4551    0.0000 C   0  0  0  0  0  0  0  0  0  0  0  0
    7.2310    2.9552    0.0000 C   0  0  0  0  0  0  0  0  0  0  0  0
    4.3441    2.1392    0.0000 C   0  0  0  0  0  0  0  0  0  0  0  0
    2.9007    1.7312    0.0000 C   0  0  0  0  0  0  0  0  0  0  0  0
    2.5323    0.2771    0.0000 C   0  0  0  0  0  0  0  0  0  0  0  0
    1.4572    1.3232    0.0000 C   0  0  0  0  0  0  0  0  0  0  0  0
    1.0889   -0.1309    0.0000 C   0  0  0  0  0  0  0  0  0  0  0  0
    0.0138    0.9151    0.0000 C   0  0  0  0  0  0  0  0  0  0  0  0
   -1.4296    0.5071    0.0000 C   0  0  0  0  0  0  0  0  0  0  0  0
   -2.5047    1.5532    0.0000 O   0  0  0  0  0  0  0  0  0  0  0  0
   -1.7980   -0.9470    0.0000 C   0  0  0  0  0  0  0  0  0  0  0  0
   -2.9765   -0.0190    0.0000 C   0  0  0  0  0  0  0  0  0  0  0  0
  2  1  1  6
  2  3  1  0
  3  4  1  0
  4  5  1  0
  5  6  2  0
  5  7  1  0
  2  8  1  0
  8  9  1  6
  9 10  1  0
 11 10  1  6
 11 12  1  0
 12 13  1  1
 13 14  1  1
 13 15  1  0
 16 15  1  1
 16 17  1  0
 17 18  1  0
 18 19  1  1
 19 20  1  0
 19 21  1  0
 18 22  1  0
 22 23  1  0
 23 24  1  0
 24 25  1  6
 24 26  1  0
 26 27  1  6
 27 28  1  0
 28 29  1  6
 28 30  1  0
 30 31  1  6
 30  8  1  0
 30 11  1  0
 26 12  1  0
 24 16  1  0
M  END
>  <MS_ID>  (1393) 
MS1452

>  <SMILES>  (1393) 
C[C@H](CCC(=O)O)[C@H]1CC[C@H]2[C@@H]3[C@H](O)C[C@@H]4C[C@H](N(C)C)CC[C@]4(C)[C@H]3C[C@@H](O)[C@]12C

>  <Structure_dimension>  (1393) 
2D

$$$$
MS1453
     RDKit          2D

 28 31  0  0  0  0  0  0  0  0999 V2000
   -5.0096   -2.1352    0.0000 C   0  0  0  0  0  0  0  0  0  0  0  0
   -3.8132   -1.2303    0.0000 C   0  0  0  0  0  0  0  0  0  0  0  0
   -3.9987    0.2582    0.0000 C   0  0  0  0  0  0  0  0  0  0  0  0
   -5.3805    0.8418    0.0000 C   0  0  0  0  0  0  0  0  0  0  0  0
   -5.5659    2.3303    0.0000 C   0  0  0  0  0  0  0  0  0  0  0  0
   -6.9477    2.9140    0.0000 O   0  0  0  0  0  0  0  0  0  0  0  0
   -4.3695    3.2351    0.0000 Br  0  0  0  0  0  0  0  0  0  0  0  0
   -2.4315   -1.8140    0.0000 C   0  0  0  0  0  0  0  0  0  0  0  0
   -2.0914   -3.2749    0.0000 C   0  0  0  0  0  0  0  0  0  0  0  0
   -0.5969   -3.4030    0.0000 C   0  0  0  0  0  0  0  0  0  0  0  0
   -0.0133   -2.0212    0.0000 C   0  0  0  0  0  0  0  0  0  0  0  0
    1.4041   -1.5304    0.0000 C   0  0  0  0  0  0  0  0  0  0  0  0
    2.5379   -2.5125    0.0000 C   0  0  0  0  0  0  0  0  0  0  0  0
    3.9554   -2.0216    0.0000 C   0  0  0  0  0  0  0  0  0  0  0  0
    4.2390   -0.5487    0.0000 C   0  0  0  0  0  0  0  0  0  0  0  0
    5.6564   -0.0578    0.0000 C   0  0  0  0  0  0  0  0  0  0  0  0
    5.9400    1.4151    0.0000 C   0  0  0  0  0  0  0  0  0  0  0  0
    7.3574    1.9060    0.0000 O   0  0  0  0  0  0  0  0  0  0  0  0
    4.8062    2.3972    0.0000 C   0  0  0  0  0  0  0  0  0  0  0  0
    3.3888    1.9064    0.0000 C   0  0  0  0  0  0  0  0  0  0  0  0
    3.1052    0.4334    0.0000 C   0  0  0  0  0  0  0  0  0  0  0  0
    1.9714    1.4155    0.0000 C   0  0  0  0  0  0  0  0  0  0  0  0
    1.6878   -0.0574    0.0000 C   0  0  0  0  0  0  0  0  0  0  0  0
    0.5540    0.9246    0.0000 C   0  0  0  0  0  0  0  0  0  0  0  0
   -0.8635    0.4338    0.0000 C   0  0  0  0  0  0  0  0  0  0  0  0
   -1.9973    1.4159    0.0000 O   0  0  0  0  0  0  0  0  0  0  0  0
   -1.1471   -1.0392    0.0000 C   0  0  0  0  0  0  0  0  0  0  0  0
   -2.3773   -0.1810    0.0000 C   0  0  0  0  0  0  0  0  0  0  0  0
  2  1  1  6
  2  3  1  0
  3  4  1  0
  4  5  1  0
  5  6  2  0
  5  7  1  0
  2  8  1  0
  8  9  1  6
  9 10  1  0
 11 10  1  6
 11 12  1  0
 12 13  1  1
 13 14  1  0
 15 14  1  1
 15 16  1  0
 16 17  1  0
 17 18  1  1
 17 19  1  0
 19 20  1  0
 20 21  1  0
 21 22  1  6
 21 23  1  0
 23 24  1  6
 24 25  1  0
 25 26  1  1
 25 27  1  0
 27 28  1  6
 27  8  1  0
 27 11  1  0
 23 12  1  0
 21 15  1  0
M  END
>  <MS_ID>  (1394) 
MS1453

>  <SMILES>  (1394) 
C[C@H](CCC(=O)Br)[C@H]1CC[C@H]2[C@@H]3CC[C@@H]4C[C@H](O)CC[C@]4(C)[C@H]3C[C@H](O)[C@]12C

>  <Structure_dimension>  (1394) 
2D

$$$$
MS1454
     RDKit          2D

 30 33  0  0  0  0  0  0  0  0999 V2000
   -3.4828   -3.5922    0.0000 C   0  0  0  0  0  0  0  0  0  0  0  0
   -2.5481   -2.4190    0.0000 C   0  0  0  0  0  0  0  0  0  0  0  0
   -3.0967   -1.0230    0.0000 C   0  0  0  0  0  0  0  0  0  0  0  0
   -4.5801   -0.8000    0.0000 C   0  0  0  0  0  0  0  0  0  0  0  0
   -5.1287    0.5960    0.0000 C   0  0  0  0  0  0  0  0  0  0  0  0
   -4.1940    1.7692    0.0000 O   0  0  0  0  0  0  0  0  0  0  0  0
   -6.6120    0.8190    0.0000 N   0  0  0  0  0  0  0  0  0  0  0  0
   -7.1606    2.2150    0.0000 C   0  0  0  0  0  0  0  0  0  0  0  0
   -8.6440    2.4379    0.0000 C   0  0  0  0  0  0  0  0  0  0  0  0
   -9.1926    3.8340    0.0000 O   0  0  0  0  0  0  0  0  0  0  0  0
   -1.0648   -2.6420    0.0000 C   0  0  0  0  0  0  0  0  0  0  0  0
   -0.3732   -3.9730    0.0000 C   0  0  0  0  0  0  0  0  0  0  0  0
    1.1064   -3.7267    0.0000 C   0  0  0  0  0  0  0  0  0  0  0  0
    1.3293   -2.2433    0.0000 C   0  0  0  0  0  0  0  0  0  0  0  0
    2.5808   -1.4164    0.0000 C   0  0  0  0  0  0  0  0  0  0  0  0
    3.9227   -2.0868    0.0000 C   0  0  0  0  0  0  0  0  0  0  0  0
    5.1742   -1.2599    0.0000 C   0  0  0  0  0  0  0  0  0  0  0  0
    5.0838    0.2373    0.0000 C   0  0  0  0  0  0  0  0  0  0  0  0
    6.3353    1.0642    0.0000 C   0  0  0  0  0  0  0  0  0  0  0  0
    6.2450    2.5615    0.0000 C   0  0  0  0  0  0  0  0  0  0  0  0
    7.4965    3.3884    0.0000 O   0  0  0  0  0  0  0  0  0  0  0  0
    4.9031    3.2319    0.0000 C   0  0  0  0  0  0  0  0  0  0  0  0
    3.6516    2.4050    0.0000 C   0  0  0  0  0  0  0  0  0  0  0  0
    3.7420    0.9077    0.0000 C   0  0  0  0  0  0  0  0  0  0  0  0
    2.4001    1.5781    0.0000 C   0  0  0  0  0  0  0  0  0  0  0  0
    2.4905    0.0808    0.0000 C   0  0  0  0  0  0  0  0  0  0  0  0
    1.1486    0.7512    0.0000 C   0  0  0  0  0  0  0  0  0  0  0  0
   -0.1029   -0.0757    0.0000 C   0  0  0  0  0  0  0  0  0  0  0  0
   -0.0125   -1.5729    0.0000 C   0  0  0  0  0  0  0  0  0  0  0  0
   -1.4171   -1.0465    0.0000 C   0  0  0  0  0  0  0  0  0  0  0  0
  2  1  1  6
  2  3  1  0
  3  4  1  0
  4  5  1  0
  5  6  2  0
  5  7  1  0
  7  8  1  0
  8  9  1  0
  9 10  1  0
  2 11  1  0
 11 12  1  6
 12 13  1  0
 14 13  1  6
 14 15  1  0
 15 16  1  1
 16 17  1  0
 18 17  1  1
 18 19  1  0
 19 20  1  0
 20 21  1  6
 20 22  1  0
 22 23  1  0
 23 24  1  0
 24 25  1  6
 24 26  1  0
 26 27  1  6
 27 28  1  0
 28 29  1  0
 29 30  1  6
 29 11  1  0
 29 14  1  0
 26 15  1  0
 24 18  1  0
M  END
>  <MS_ID>  (1395) 
MS1454

>  <SMILES>  (1395) 
C[C@H](CCC(=O)NCCO)[C@H]1CC[C@H]2[C@@H]3CC[C@@H]4C[C@@H](O)CC[C@]4(C)[C@H]3CC[C@]12C

>  <Structure_dimension>  (1395) 
2D

$$$$
MS1455
     RDKit          2D

 34 37  0  0  0  0  0  0  0  0999 V2000
   -2.0913   -4.3274    0.0000 C   0  0  0  0  0  0  0  0  0  0  0  0
   -1.3377   -3.0304    0.0000 C   0  0  0  0  0  0  0  0  0  0  0  0
   -2.0842   -1.7293    0.0000 C   0  0  0  0  0  0  0  0  0  0  0  0
   -3.5842   -1.7252    0.0000 C   0  0  0  0  0  0  0  0  0  0  0  0
   -4.3307   -0.4242    0.0000 C   0  0  0  0  0  0  0  0  0  0  0  0
   -3.5771    0.8728    0.0000 O   0  0  0  0  0  0  0  0  0  0  0  0
   -5.8306   -0.4201    0.0000 C   0  0  0  0  0  0  0  0  0  0  0  0
   -6.5771    0.8810    0.0000 C   0  0  0  0  0  0  0  0  0  0  0  0
   -5.8236    2.1780    0.0000 O   0  0  0  0  0  0  0  0  0  0  0  0
   -8.0771    0.8851    0.0000 C   0  0  0  0  0  0  0  0  0  0  0  0
   -8.8236    2.1862    0.0000 C   0  0  0  0  0  0  0  0  0  0  0  0
   -8.0700    3.4831    0.0000 O   0  0  0  0  0  0  0  0  0  0  0  0
  -10.3236    2.1902    0.0000 O   0  0  0  0  0  0  0  0  0  0  0  0
    0.1623   -3.0345    0.0000 C   0  0  0  0  0  0  0  0  0  0  0  0
    1.0406   -4.2504    0.0000 C   0  0  0  0  0  0  0  0  0  0  0  0
    2.4685   -3.7908    0.0000 C   0  0  0  0  0  0  0  0  0  0  0  0
    2.4726   -2.2908    0.0000 C   0  0  0  0  0  0  0  0  0  0  0  0
    3.5900   -1.2901    0.0000 C   0  0  0  0  0  0  0  0  0  0  0  0
    5.0153   -1.7575    0.0000 C   0  0  0  0  0  0  0  0  0  0  0  0
    6.1328   -0.7569    0.0000 C   0  0  0  0  0  0  0  0  0  0  0  0
    5.8249    0.7112    0.0000 C   0  0  0  0  0  0  0  0  0  0  0  0
    6.9423    1.7118    0.0000 C   0  0  0  0  0  0  0  0  0  0  0  0
    6.6345    3.1799    0.0000 C   0  0  0  0  0  0  0  0  0  0  0  0
    7.7519    4.1806    0.0000 O   0  0  0  0  0  0  0  0  0  0  0  0
    5.2092    3.6473    0.0000 C   0  0  0  0  0  0  0  0  0  0  0  0
    4.0917    2.6467    0.0000 C   0  0  0  0  0  0  0  0  0  0  0  0
    4.3996    1.1786    0.0000 C   0  0  0  0  0  0  0  0  0  0  0  0
    2.9743    1.6460    0.0000 C   0  0  0  0  0  0  0  0  0  0  0  0
    3.2821    0.1779    0.0000 C   0  0  0  0  0  0  0  0  0  0  0  0
    1.8568    0.6453    0.0000 C   0  0  0  0  0  0  0  0  0  0  0  0
    0.7394   -0.3553    0.0000 C   0  0  0  0  0  0  0  0  0  0  0  0
   -0.6860    0.1121    0.0000 O   0  0  0  0  0  0  0  0  0  0  0  0
    1.0472   -1.8234    0.0000 C   0  0  0  0  0  0  0  0  0  0  0  0
   -0.4191   -1.5075    0.0000 C   0  0  0  0  0  0  0  0  0  0  0  0
  2  1  1  6
  2  3  1  0
  3  4  1  0
  4  5  1  0
  5  6  2  0
  5  7  1  0
  7  8  1  0
  8  9  2  0
  8 10  1  0
 10 11  1  0
 11 12  2  0
 11 13  1  0
  2 14  1  0
 14 15  1  6
 15 16  1  0
 17 16  1  6
 17 18  1  0
 18 19  1  1
 19 20  1  0
 21 20  1  1
 21 22  1  0
 22 23  1  0
 23 24  1  1
 23 25  1  0
 25 26  1  0
 26 27  1  0
 27 28  1  6
 27 29  1  0
 29 30  1  6
 30 31  1  0
 31 32  1  1
 31 33  1  0
 33 34  1  6
 33 14  1  0
 33 17  1  0
 29 18  1  0
 27 21  1  0
M  END
>  <MS_ID>  (1396) 
MS1455

>  <SMILES>  (1396) 
C[C@H](CCC(=O)CC(=O)CC(=O)O)[C@H]1CC[C@H]2[C@@H]3CC[C@@H]4C[C@H](O)CC[C@]4(C)[C@H]3C[C@H](O)[C@]12C

>  <Structure_dimension>  (1396) 
2D

$$$$
MS1456
     RDKit          2D

 33 36  0  0  0  0  0  0  0  0999 V2000
   -2.8663   -3.9244    0.0000 C   0  0  0  0  0  0  0  0  0  0  0  0
   -2.0510   -2.6653    0.0000 C   0  0  0  0  0  0  0  0  0  0  0  0
   -2.7339   -1.3297    0.0000 C   0  0  0  0  0  0  0  0  0  0  0  0
   -4.2319   -1.2532    0.0000 C   0  0  0  0  0  0  0  0  0  0  0  0
   -4.9147    0.0823    0.0000 C   0  0  0  0  0  0  0  0  0  0  0  0
   -4.0995    1.3415    0.0000 O   0  0  0  0  0  0  0  0  0  0  0  0
   -6.4128    0.1588    0.0000 C   0  0  0  0  0  0  0  0  0  0  0  0
   -7.0956    1.4944    0.0000 C   0  0  0  0  0  0  0  0  0  0  0  0
   -8.5936    1.5708    0.0000 C   0  0  0  0  0  0  0  0  0  0  0  0
   -9.2765    2.9064    0.0000 C   0  0  0  0  0  0  0  0  0  0  0  0
  -10.7745    2.9828    0.0000 O   0  0  0  0  0  0  0  0  0  0  0  0
   -0.5530   -2.7417    0.0000 C   0  0  0  0  0  0  0  0  0  0  0  0
    0.2657   -3.9986    0.0000 C   0  0  0  0  0  0  0  0  0  0  0  0
    1.7140   -3.6084    0.0000 C   0  0  0  0  0  0  0  0  0  0  0  0
    1.7905   -2.1103    0.0000 C   0  0  0  0  0  0  0  0  0  0  0  0
    2.9549   -1.1648    0.0000 C   0  0  0  0  0  0  0  0  0  0  0  0
    4.3560   -1.7004    0.0000 C   0  0  0  0  0  0  0  0  0  0  0  0
    4.5927   -3.1816    0.0000 O   0  0  0  0  0  0  0  0  0  0  0  0
    5.5204   -0.7548    0.0000 C   0  0  0  0  0  0  0  0  0  0  0  0
    5.2838    0.7264    0.0000 C   0  0  0  0  0  0  0  0  0  0  0  0
    6.4482    1.6720    0.0000 C   0  0  0  0  0  0  0  0  0  0  0  0
    6.2115    3.1532    0.0000 C   0  0  0  0  0  0  0  0  0  0  0  0
    7.3759    4.0988    0.0000 O   0  0  0  0  0  0  0  0  0  0  0  0
    4.8104    3.6888    0.0000 C   0  0  0  0  0  0  0  0  0  0  0  0
    3.6460    2.7432    0.0000 C   0  0  0  0  0  0  0  0  0  0  0  0
    3.8827    1.2620    0.0000 C   0  0  0  0  0  0  0  0  0  0  0  0
    2.4816    1.7977    0.0000 C   0  0  0  0  0  0  0  0  0  0  0  0
    2.7182    0.3165    0.0000 C   0  0  0  0  0  0  0  0  0  0  0  0
    1.3171    0.8521    0.0000 C   0  0  0  0  0  0  0  0  0  0  0  0
    0.1527   -0.0935    0.0000 C   0  0  0  0  0  0  0  0  0  0  0  0
   -1.2484    0.4421    0.0000 O   0  0  0  0  0  0  0  0  0  0  0  0
    0.3894   -1.5747    0.0000 C   0  0  0  0  0  0  0  0  0  0  0  0
   -1.0600   -1.1885    0.0000 C   0  0  0  0  0  0  0  0  0  0  0  0
  2  1  1  6
  2  3  1  0
  3  4  1  0
  4  5  1  0
  5  6  2  0
  5  7  1  0
  7  8  2  0
  8  9  1  0
  9 10  2  0
 10 11  1  0
  2 12  1  0
 12 13  1  6
 13 14  1  0
 15 14  1  6
 15 16  1  0
 16 17  1  1
 17 18  1  1
 17 19  1  0
 20 19  1  1
 20 21  1  0
 21 22  1  0
 22 23  1  1
 22 24  1  0
 24 25  1  0
 25 26  1  0
 26 27  1  6
 26 28  1  0
 28 29  1  6
 29 30  1  0
 30 31  1  1
 30 32  1  0
 32 33  1  6
 32 12  1  0
 32 15  1  0
 28 16  1  0
 26 20  1  0
M  END
>  <MS_ID>  (1397) 
MS1456

>  <SMILES>  (1397) 
C[C@H](CCC(=O)/C=C/C=C/O)[C@H]1CC[C@H]2[C@@H]3[C@H](O)C[C@@H]4C[C@H](O)CC[C@]4(C)[C@H]3C[C@H](O)[C@]12C

>  <Structure_dimension>  (1397) 
2D

$$$$
MS1457
     RDKit          2D

 40 44  0  0  0  0  0  0  0  0999 V2000
   -0.3987   -4.6892    0.0000 C   0  0  0  0  0  0  0  0  0  0  0  0
    0.1890   -3.3092    0.0000 C   0  0  0  0  0  0  0  0  0  0  0  0
   -0.7123   -2.1102    0.0000 C   0  0  0  0  0  0  0  0  0  0  0  0
   -2.2013   -2.2912    0.0000 C   0  0  0  0  0  0  0  0  0  0  0  0
   -3.1026   -1.0922    0.0000 C   0  0  0  0  0  0  0  0  0  0  0  0
   -2.5149    0.2879    0.0000 O   0  0  0  0  0  0  0  0  0  0  0  0
   -4.5917   -1.2732    0.0000 N   0  0  0  0  0  0  0  0  0  0  0  0
   -5.4930   -0.0742    0.0000 C   0  0  0  0  0  0  0  0  0  0  0  0
   -4.9052    1.3059    0.0000 C   0  0  0  0  0  0  0  0  0  0  0  0
   -5.8065    2.5049    0.0000 C   0  0  0  0  0  0  0  0  0  0  0  0
   -7.2956    2.3239    0.0000 C   0  0  0  0  0  0  0  0  0  0  0  0
   -8.1969    3.5229    0.0000 N   0  0  0  0  0  0  0  0  0  0  0  0
   -9.6859    3.3419    0.0000 O   0  0  0  0  0  0  0  0  0  0  0  0
   -7.6091    4.9029    0.0000 O   0  0  0  0  0  0  0  0  0  0  0  0
   -7.8833    0.9438    0.0000 C   0  0  0  0  0  0  0  0  0  0  0  0
   -6.9820   -0.2552    0.0000 C   0  0  0  0  0  0  0  0  0  0  0  0
   -7.5697   -1.6353    0.0000 C   0  0  0  0  0  0  0  0  0  0  0  0
   -6.6684   -2.8343    0.0000 O   0  0  0  0  0  0  0  0  0  0  0  0
   -9.0588   -1.8163    0.0000 O   0  0  0  0  0  0  0  0  0  0  0  0
    1.6780   -3.1281    0.0000 C   0  0  0  0  0  0  0  0  0  0  0  0
    2.6997   -4.2264    0.0000 C   0  0  0  0  0  0  0  0  0  0  0  0
    4.0600   -3.5941    0.0000 C   0  0  0  0  0  0  0  0  0  0  0  0
    3.8789   -2.1050    0.0000 C   0  0  0  0  0  0  0  0  0  0  0  0
    4.8643   -0.9741    0.0000 C   0  0  0  0  0  0  0  0  0  0  0  0
    6.3364   -1.2621    0.0000 C   0  0  0  0  0  0  0  0  0  0  0  0
    6.8231   -2.6810    0.0000 O   0  0  0  0  0  0  0  0  0  0  0  0
    7.3219   -0.1312    0.0000 C   0  0  0  0  0  0  0  0  0  0  0  0
    6.8352    1.2877    0.0000 C   0  0  0  0  0  0  0  0  0  0  0  0
    7.8206    2.4185    0.0000 C   0  0  0  0  0  0  0  0  0  0  0  0
    7.3340    3.8374    0.0000 C   0  0  0  0  0  0  0  0  0  0  0  0
    8.3194    4.9683    0.0000 O   0  0  0  0  0  0  0  0  0  0  0  0
    5.8619    4.1254    0.0000 C   0  0  0  0  0  0  0  0  0  0  0  0
    4.8764    2.9945    0.0000 C   0  0  0  0  0  0  0  0  0  0  0  0
    5.3631    1.5756    0.0000 C   0  0  0  0  0  0  0  0  0  0  0  0
    3.8910    1.8636    0.0000 C   0  0  0  0  0  0  0  0  0  0  0  0
    4.3777    0.4447    0.0000 C   0  0  0  0  0  0  0  0  0  0  0  0
    2.9056    0.7327    0.0000 C   0  0  0  0  0  0  0  0  0  0  0  0
    1.9201   -0.3982    0.0000 C   0  0  0  0  0  0  0  0  0  0  0  0
    2.4068   -1.8171    0.0000 C   0  0  0  0  0  0  0  0  0  0  0  0
    0.9127   -1.6846    0.0000 C   0  0  0  0  0  0  0  0  0  0  0  0
  2  1  1  6
  2  3  1  0
  3  4  1  0
  4  5  1  0
  5  6  2  0
  5  7  1  0
  7  8  1  0
  8  9  2  0
  9 10  1  0
 10 11  2  0
 11 12  1  0
 12 13  2  0
 12 14  1  0
 11 15  1  0
 15 16  2  0
 16 17  1  0
 17 18  2  0
 17 19  1  0
  2 20  1  0
 20 21  1  6
 21 22  1  0
 23 22  1  6
 23 24  1  0
 24 25  1  1
 25 26  1  1
 25 27  1  0
 28 27  1  1
 28 29  1  0
 29 30  1  0
 30 31  1  1
 30 32  1  0
 32 33  1  0
 33 34  1  0
 34 35  1  6
 34 36  1  0
 36 37  1  6
 37 38  1  0
 38 39  1  0
 39 40  1  6
 16  8  1  0
 39 20  1  0
 39 23  1  0
 36 24  1  0
 34 28  1  0
M  CHG  2  12   1  14  -1
M  END
>  <MS_ID>  (1398) 
MS1457

>  <SMILES>  (1398) 
C[C@H](CCC(=O)Nc1ccc([N+](=O)[O-])cc1C(=O)O)[C@H]1CC[C@H]2[C@@H]3[C@H](O)C[C@@H]4C[C@H](O)CC[C@]4(C)[C@H]3CC[C@]12C

>  <Structure_dimension>  (1398) 
2D

$$$$
MS1458
     RDKit          2D

 31 34  0  0  0  0  0  0  0  0999 V2000
   -6.1759   -1.7972    0.0000 C   0  0  0  0  0  0  0  0  0  0  0  0
   -4.9432   -0.9425    0.0000 C   0  0  0  0  0  0  0  0  0  0  0  0
   -5.0671    0.5524    0.0000 C   0  0  0  0  0  0  0  0  0  0  0  0
   -6.4237    1.1926    0.0000 C   0  0  0  0  0  0  0  0  0  0  0  0
   -6.5476    2.6874    0.0000 C   0  0  0  0  0  0  0  0  0  0  0  0
   -5.3149    3.5422    0.0000 O   0  0  0  0  0  0  0  0  0  0  0  0
   -7.9041    3.3276    0.0000 O   0  0  0  0  0  0  0  0  0  0  0  0
   -3.5867   -1.5826    0.0000 C   0  0  0  0  0  0  0  0  0  0  0  0
   -3.3072   -3.0563    0.0000 C   0  0  0  0  0  0  0  0  0  0  0  0
   -1.8192   -3.2459    0.0000 C   0  0  0  0  0  0  0  0  0  0  0  0
   -1.1791   -1.8894    0.0000 C   0  0  0  0  0  0  0  0  0  0  0  0
    0.2574   -1.4574    0.0000 C   0  0  0  0  0  0  0  0  0  0  0  0
    1.3497   -2.4854    0.0000 C   0  0  0  0  0  0  0  0  0  0  0  0
    1.0056   -3.9454    0.0000 O   0  0  0  0  0  0  0  0  0  0  0  0
    2.7862   -2.0534    0.0000 C   0  0  0  0  0  0  0  0  0  0  0  0
    3.1303   -0.5934    0.0000 C   0  0  0  0  0  0  0  0  0  0  0  0
    4.5667   -0.1614    0.0000 C   0  0  0  0  0  0  0  0  0  0  0  0
    4.9108    1.2986    0.0000 C   0  0  0  0  0  0  0  0  0  0  0  0
    6.3473    1.7305    0.0000 C   0  0  0  0  0  0  0  0  0  0  0  0
    7.4396    0.7025    0.0000 C   0  0  0  0  0  0  0  0  0  0  0  0
    8.8761    1.1345    0.0000 C   0  0  0  0  0  0  0  0  0  0  0  0
    9.9684    0.1065    0.0000 O   0  0  0  0  0  0  0  0  0  0  0  0
    3.8185    2.3266    0.0000 C   0  0  0  0  0  0  0  0  0  0  0  0
    2.3820    1.8946    0.0000 C   0  0  0  0  0  0  0  0  0  0  0  0
    2.0379    0.4346    0.0000 C   0  0  0  0  0  0  0  0  0  0  0  0
    0.9456    1.4626    0.0000 C   0  0  0  0  0  0  0  0  0  0  0  0
    0.6015    0.0026    0.0000 C   0  0  0  0  0  0  0  0  0  0  0  0
   -0.4909    1.0306    0.0000 C   0  0  0  0  0  0  0  0  0  0  0  0
   -1.9273    0.5986    0.0000 C   0  0  0  0  0  0  0  0  0  0  0  0
   -2.2714   -0.8614    0.0000 C   0  0  0  0  0  0  0  0  0  0  0  0
   -3.4652    0.0468    0.0000 C   0  0  0  0  0  0  0  0  0  0  0  0
  2  1  1  6
  2  3  1  0
  3  4  1  0
  4  5  1  0
  5  6  2  0
  5  7  1  0
  2  8  1  0
  8  9  1  6
  9 10  1  0
 11 10  1  6
 11 12  1  0
 12 13  1  1
 13 14  1  6
 13 15  1  0
 16 15  1  1
 16 17  1  0
 17 18  1  0
 18 19  1  1
 19 20  1  0
 20 21  1  0
 21 22  1  0
 18 23  1  0
 23 24  1  0
 24 25  1  0
 25 26  1  6
 25 27  1  0
 27 28  1  6
 28 29  1  0
 29 30  1  0
 30 31  1  6
 30  8  1  0
 30 11  1  0
 27 12  1  0
 25 16  1  0
M  END
>  <MS_ID>  (1399) 
MS1458

>  <SMILES>  (1399) 
C[C@H](CCC(=O)O)[C@H]1CC[C@H]2[C@@H]3[C@@H](O)C[C@@H]4C[C@H](CCCO)CC[C@]4(C)[C@H]3CC[C@]12C

>  <Structure_dimension>  (1399) 
2D

$$$$
MS1459
     RDKit          2D

 37 40  0  0  0  0  0  0  0  0999 V2000
   -1.2134   -4.5093    0.0000 C   0  0  0  0  0  0  0  0  0  0  0  0
   -0.5993   -3.1408    0.0000 C   0  0  0  0  0  0  0  0  0  0  0  0
   -1.4773   -1.9247    0.0000 C   0  0  0  0  0  0  0  0  0  0  0  0
   -2.9696   -2.0771    0.0000 C   0  0  0  0  0  0  0  0  0  0  0  0
   -3.8476   -0.8609    0.0000 C   0  0  0  0  0  0  0  0  0  0  0  0
   -3.2335    0.5076    0.0000 O   0  0  0  0  0  0  0  0  0  0  0  0
   -5.3399   -1.0133    0.0000 C   0  0  0  0  0  0  0  0  0  0  0  0
   -6.2179    0.2029    0.0000 O   0  0  0  0  0  0  0  0  0  0  0  0
   -7.7102    0.0505    0.0000 C   0  0  0  0  0  0  0  0  0  0  0  0
   -8.3244   -1.3180    0.0000 O   0  0  0  0  0  0  0  0  0  0  0  0
   -8.5882    1.2667    0.0000 C   0  0  0  0  0  0  0  0  0  0  0  0
  -10.0805    1.1143    0.0000 C   0  0  0  0  0  0  0  0  0  0  0  0
  -10.9586    2.3304    0.0000 C   0  0  0  0  0  0  0  0  0  0  0  0
  -10.3444    3.6989    0.0000 O   0  0  0  0  0  0  0  0  0  0  0  0
  -12.4508    2.1781    0.0000 O   0  0  0  0  0  0  0  0  0  0  0  0
    0.8930   -2.9885    0.0000 C   0  0  0  0  0  0  0  0  0  0  0  0
    1.8934   -4.1062    0.0000 C   0  0  0  0  0  0  0  0  0  0  0  0
    3.2655   -3.5001    0.0000 C   0  0  0  0  0  0  0  0  0  0  0  0
    3.1131   -2.0079    0.0000 C   0  0  0  0  0  0  0  0  0  0  0  0
    4.1201   -0.8962    0.0000 C   0  0  0  0  0  0  0  0  0  0  0  0
    5.5864   -1.2124    0.0000 C   0  0  0  0  0  0  0  0  0  0  0  0
    6.0457   -2.6404    0.0000 O   0  0  0  0  0  0  0  0  0  0  0  0
    6.5934   -0.1007    0.0000 C   0  0  0  0  0  0  0  0  0  0  0  0
    8.0597   -0.4169    0.0000 O   0  0  0  0  0  0  0  0  0  0  0  0
    6.1342    1.3273    0.0000 C   0  0  0  0  0  0  0  0  0  0  0  0
    7.1412    2.4390    0.0000 C   0  0  0  0  0  0  0  0  0  0  0  0
    6.6819    3.8670    0.0000 C   0  0  0  0  0  0  0  0  0  0  0  0
    7.6889    4.9787    0.0000 O   0  0  0  0  0  0  0  0  0  0  0  0
    5.2156    4.1832    0.0000 C   0  0  0  0  0  0  0  0  0  0  0  0
    4.2086    3.0715    0.0000 C   0  0  0  0  0  0  0  0  0  0  0  0
    4.6679    1.6435    0.0000 C   0  0  0  0  0  0  0  0  0  0  0  0
    3.2016    1.9597    0.0000 C   0  0  0  0  0  0  0  0  0  0  0  0
    3.6609    0.5318    0.0000 C   0  0  0  0  0  0  0  0  0  0  0  0
    2.1946    0.8480    0.0000 C   0  0  0  0  0  0  0  0  0  0  0  0
    1.1876   -0.2637    0.0000 C   0  0  0  0  0  0  0  0  0  0  0  0
    1.6468   -1.6917    0.0000 C   0  0  0  0  0  0  0  0  0  0  0  0
    0.1555   -1.5304    0.0000 C   0  0  0  0  0  0  0  0  0  0  0  0
  2  1  1  6
  2  3  1  0
  3  4  1  0
  4  5  1  0
  5  6  2  0
  5  7  1  0
  7  8  1  0
  8  9  1  0
  9 10  2  0
  9 11  1  0
 11 12  1  0
 12 13  1  0
 13 14  2  0
 13 15  1  0
  2 16  1  0
 16 17  1  6
 17 18  1  0
 19 18  1  6
 19 20  1  0
 20 21  1  1
 21 22  1  1
 21 23  1  0
 23 24  1  1
 23 25  1  0
 25 26  1  1
 26 27  1  0
 27 28  1  1
 27 29  1  0
 29 30  1  0
 30 31  1  0
 31 32  1  6
 31 33  1  0
 33 34  1  6
 34 35  1  0
 35 36  1  0
 36 37  1  6
 36 16  1  0
 36 19  1  0
 33 20  1  0
 31 25  1  0
M  END
>  <MS_ID>  (1400) 
MS1459

>  <SMILES>  (1400) 
C[C@H](CCC(=O)COC(=O)CCC(=O)O)[C@H]1CC[C@H]2[C@@H]3[C@H](O)[C@H](O)[C@@H]4C[C@H](O)CC[C@]4(C)[C@H]3CC[C@]12C

>  <Structure_dimension>  (1400) 
2D

$$$$
MS1460
     RDKit          2D

 29 32  0  0  0  0  0  0  0  0999 V2000
   -5.2182   -2.1453    0.0000 C   0  0  0  0  0  0  0  0  0  0  0  0
   -4.0752   -1.1739    0.0000 C   0  0  0  0  0  0  0  0  0  0  0  0
   -4.3449    0.3016    0.0000 C   0  0  0  0  0  0  0  0  0  0  0  0
   -5.7577    0.8058    0.0000 C   0  0  0  0  0  0  0  0  0  0  0  0
   -6.0274    2.2814    0.0000 C   0  0  0  0  0  0  0  0  0  0  0  0
   -4.8843    3.2527    0.0000 O   0  0  0  0  0  0  0  0  0  0  0  0
   -7.4401    2.7856    0.0000 O   0  0  0  0  0  0  0  0  0  0  0  0
   -2.6625   -1.6782    0.0000 C   0  0  0  0  0  0  0  0  0  0  0  0
   -2.2400   -3.1174    0.0000 C   0  0  0  0  0  0  0  0  0  0  0  0
   -0.7407   -3.1604    0.0000 C   0  0  0  0  0  0  0  0  0  0  0  0
   -0.2364   -1.7477    0.0000 C   0  0  0  0  0  0  0  0  0  0  0  0
    1.1508   -1.1771    0.0000 C   0  0  0  0  0  0  0  0  0  0  0  0
    2.3386   -2.0932    0.0000 C   0  0  0  0  0  0  0  0  0  0  0  0
    2.1391   -3.5798    0.0000 O   0  0  0  0  0  0  0  0  0  0  0  0
    3.7258   -1.5226    0.0000 C   0  0  0  0  0  0  0  0  0  0  0  0
    4.9136   -2.4386    0.0000 O   0  0  0  0  0  0  0  0  0  0  0  0
    3.9253   -0.0359    0.0000 C   0  0  0  0  0  0  0  0  0  0  0  0
    5.3125    0.5347    0.0000 C   0  0  0  0  0  0  0  0  0  0  0  0
    5.5119    2.0214    0.0000 C   0  0  0  0  0  0  0  0  0  0  0  0
    6.8992    2.5920    0.0000 O   0  0  0  0  0  0  0  0  0  0  0  0
    4.3242    2.9375    0.0000 C   0  0  0  0  0  0  0  0  0  0  0  0
    2.9369    2.3669    0.0000 C   0  0  0  0  0  0  0  0  0  0  0  0
    2.7375    0.8802    0.0000 C   0  0  0  0  0  0  0  0  0  0  0  0
    1.5497    1.7963    0.0000 C   0  0  0  0  0  0  0  0  0  0  0  0
    1.3502    0.3096    0.0000 C   0  0  0  0  0  0  0  0  0  0  0  0
    0.1625    1.2257    0.0000 C   0  0  0  0  0  0  0  0  0  0  0  0
   -1.2248    0.6551    0.0000 C   0  0  0  0  0  0  0  0  0  0  0  0
   -1.4242   -0.8316    0.0000 C   0  0  0  0  0  0  0  0  0  0  0  0
   -2.7012   -0.0447    0.0000 C   0  0  0  0  0  0  0  0  0  0  0  0
  2  1  1  1
  2  3  1  0
  3  4  1  0
  4  5  1  0
  5  6  2  0
  5  7  1  0
  2  8  1  0
  8  9  1  6
  9 10  1  0
 11 10  1  6
 11 12  1  0
 12 13  1  1
 13 14  1  1
 13 15  1  0
 15 16  1  6
 15 17  1  0
 17 18  1  1
 18 19  1  0
 19 20  1  1
 19 21  1  0
 21 22  1  0
 22 23  1  0
 23 24  1  6
 23 25  1  0
 25 26  1  6
 26 27  1  0
 27 28  1  0
 28 29  1  6
 28  8  1  0
 28 11  1  0
 25 12  1  0
 23 17  1  0
M  END
>  <MS_ID>  (1401) 
MS1460

>  <SMILES>  (1401) 
C[C@@H](CCC(=O)O)[C@H]1CC[C@H]2[C@@H]3[C@H](O)[C@@H](O)[C@@H]4C[C@H](O)CC[C@]4(C)[C@H]3CC[C@]12C

>  <Structure_dimension>  (1401) 
2D

$$$$
MS1461
     RDKit          2D

 32 35  0  0  0  0  0  0  0  0999 V2000
   -6.1853   -1.9897    0.0000 C   0  0  0  0  0  0  0  0  0  0  0  0
   -4.9559   -1.1303    0.0000 C   0  0  0  0  0  0  0  0  0  0  0  0
   -5.0854    0.3641    0.0000 C   0  0  0  0  0  0  0  0  0  0  0  0
   -6.4444    0.9991    0.0000 C   0  0  0  0  0  0  0  0  0  0  0  0
   -6.5740    2.4935    0.0000 C   0  0  0  0  0  0  0  0  0  0  0  0
   -5.3445    3.3529    0.0000 O   0  0  0  0  0  0  0  0  0  0  0  0
   -7.9329    3.1285    0.0000 O   0  0  0  0  0  0  0  0  0  0  0  0
   -3.5969   -1.7653    0.0000 C   0  0  0  0  0  0  0  0  0  0  0  0
   -3.3119   -3.2380    0.0000 C   0  0  0  0  0  0  0  0  0  0  0  0
   -1.8232   -3.4219    0.0000 C   0  0  0  0  0  0  0  0  0  0  0  0
   -1.1882   -2.0630    0.0000 C   0  0  0  0  0  0  0  0  0  0  0  0
    0.2466   -1.6256    0.0000 C   0  0  0  0  0  0  0  0  0  0  0  0
    1.3428   -2.6494    0.0000 C   0  0  0  0  0  0  0  0  0  0  0  0
    2.7776   -2.2120    0.0000 C   0  0  0  0  0  0  0  0  0  0  0  0
    3.1162   -0.7507    0.0000 C   0  0  0  0  0  0  0  0  0  0  0  0
    4.5510   -0.3133    0.0000 C   0  0  0  0  0  0  0  0  0  0  0  0
    4.8896    1.1480    0.0000 C   0  0  0  0  0  0  0  0  0  0  0  0
    6.3244    1.5854    0.0000 O   0  0  0  0  0  0  0  0  0  0  0  0
    7.4206    0.5615    0.0000 S   0  0  0  0  0  0  0  0  0  0  0  0
    6.3967   -0.5347    0.0000 O   0  0  0  0  0  0  0  0  0  0  0  0
    8.4445    1.6578    0.0000 O   0  0  0  0  0  0  0  0  0  0  0  0
    8.5168   -0.4623    0.0000 O   0  0  0  0  0  0  0  0  0  0  0  0
    3.7934    2.1718    0.0000 C   0  0  0  0  0  0  0  0  0  0  0  0
    2.3586    1.7344    0.0000 C   0  0  0  0  0  0  0  0  0  0  0  0
    2.0200    0.2731    0.0000 C   0  0  0  0  0  0  0  0  0  0  0  0
    0.9238    1.2970    0.0000 C   0  0  0  0  0  0  0  0  0  0  0  0
    0.5852   -0.1643    0.0000 C   0  0  0  0  0  0  0  0  0  0  0  0
   -0.5110    0.8596    0.0000 C   0  0  0  0  0  0  0  0  0  0  0  0
   -1.9458    0.4222    0.0000 C   0  0  0  0  0  0  0  0  0  0  0  0
   -3.0421    1.4460    0.0000 O   0  0  0  0  0  0  0  0  0  0  0  0
   -2.2844   -1.0391    0.0000 C   0  0  0  0  0  0  0  0  0  0  0  0
   -3.4817   -0.1354    0.0000 C   0  0  0  0  0  0  0  0  0  0  0  0
  2  1  1  6
  2  3  1  0
  3  4  1  0
  4  5  1  0
  5  6  2  0
  5  7  1  0
  2  8  1  0
  8  9  1  6
  9 10  1  0
 11 10  1  6
 11 12  1  0
 12 13  1  1
 13 14  1  0
 15 14  1  1
 15 16  1  0
 16 17  1  0
 17 18  1  6
 18 19  1  0
 19 20  2  0
 19 21  2  0
 19 22  1  0
 17 23  1  0
 23 24  1  0
 24 25  1  0
 25 26  1  6
 25 27  1  0
 27 28  1  6
 28 29  1  0
 29 30  1  1
 29 31  1  0
 31 32  1  6
 31  8  1  0
 31 11  1  0
 27 12  1  0
 25 15  1  0
M  END
>  <MS_ID>  (1402) 
MS1461

>  <SMILES>  (1402) 
C[C@H](CCC(=O)O)[C@H]1CC[C@H]2[C@@H]3CC[C@@H]4C[C@@H](OS(=O)(=O)O)CC[C@]4(C)[C@H]3C[C@H](O)[C@]12C

>  <Structure_dimension>  (1402) 
2D

$$$$
MS1462
     RDKit          2D

 34 37  0  0  0  0  0  0  0  0999 V2000
   -2.1655   -4.2826    0.0000 C   0  0  0  0  0  0  0  0  0  0  0  0
   -1.4434   -2.9679    0.0000 C   0  0  0  0  0  0  0  0  0  0  0  0
   -2.2210   -1.6852    0.0000 C   0  0  0  0  0  0  0  0  0  0  0  0
   -3.7206   -1.7172    0.0000 C   0  0  0  0  0  0  0  0  0  0  0  0
   -4.4982   -0.4345    0.0000 C   0  0  0  0  0  0  0  0  0  0  0  0
   -3.7762    0.8803    0.0000 O   0  0  0  0  0  0  0  0  0  0  0  0
   -5.9979   -0.4665    0.0000 C   0  0  0  0  0  0  0  0  0  0  0  0
   -6.7755    0.8162    0.0000 C   0  0  0  0  0  0  0  0  0  0  0  0
   -6.0534    2.1310    0.0000 O   0  0  0  0  0  0  0  0  0  0  0  0
   -8.2751    0.7841    0.0000 C   0  0  0  0  0  0  0  0  0  0  0  0
   -9.0527    2.0669    0.0000 C   0  0  0  0  0  0  0  0  0  0  0  0
   -8.3306    3.3816    0.0000 O   0  0  0  0  0  0  0  0  0  0  0  0
  -10.5524    2.0348    0.0000 O   0  0  0  0  0  0  0  0  0  0  0  0
    0.0562   -2.9358    0.0000 C   0  0  0  0  0  0  0  0  0  0  0  0
    0.9637   -4.1302    0.0000 C   0  0  0  0  0  0  0  0  0  0  0  0
    2.3800   -3.6363    0.0000 C   0  0  0  0  0  0  0  0  0  0  0  0
    2.3480   -2.1367    0.0000 C   0  0  0  0  0  0  0  0  0  0  0  0
    3.4410   -1.1094    0.0000 C   0  0  0  0  0  0  0  0  0  0  0  0
    4.8771   -1.5423    0.0000 C   0  0  0  0  0  0  0  0  0  0  0  0
    5.2203   -3.0026    0.0000 O   0  0  0  0  0  0  0  0  0  0  0  0
    5.9702   -0.5151    0.0000 C   0  0  0  0  0  0  0  0  0  0  0  0
    5.6270    0.9452    0.0000 C   0  0  0  0  0  0  0  0  0  0  0  0
    6.7200    1.9724    0.0000 C   0  0  0  0  0  0  0  0  0  0  0  0
    6.3769    3.4327    0.0000 C   0  0  0  0  0  0  0  0  0  0  0  0
    7.4699    4.4600    0.0000 O   0  0  0  0  0  0  0  0  0  0  0  0
    4.9407    3.8656    0.0000 C   0  0  0  0  0  0  0  0  0  0  0  0
    3.8477    2.8383    0.0000 C   0  0  0  0  0  0  0  0  0  0  0  0
    4.1909    1.3781    0.0000 C   0  0  0  0  0  0  0  0  0  0  0  0
    2.7547    1.8110    0.0000 C   0  0  0  0  0  0  0  0  0  0  0  0
    3.0978    0.3508    0.0000 C   0  0  0  0  0  0  0  0  0  0  0  0
    1.6617    0.7838    0.0000 C   0  0  0  0  0  0  0  0  0  0  0  0
    0.5687   -0.2435    0.0000 C   0  0  0  0  0  0  0  0  0  0  0  0
    0.9118   -1.7037    0.0000 C   0  0  0  0  0  0  0  0  0  0  0  0
   -0.5618   -1.4233    0.0000 C   0  0  0  0  0  0  0  0  0  0  0  0
  2  1  1  6
  2  3  1  0
  3  4  1  0
  4  5  1  0
  5  6  2  0
  5  7  1  0
  7  8  1  0
  8  9  2  0
  8 10  1  0
 10 11  1  0
 11 12  2  0
 11 13  1  0
  2 14  1  0
 14 15  1  6
 15 16  1  0
 17 16  1  6
 17 18  1  0
 18 19  1  1
 19 20  1  1
 19 21  1  0
 22 21  1  1
 22 23  1  0
 23 24  1  0
 24 25  1  1
 24 26  1  0
 26 27  1  0
 27 28  1  0
 28 29  1  6
 28 30  1  0
 30 31  1  6
 31 32  1  0
 32 33  1  0
 33 34  1  6
 33 14  1  0
 33 17  1  0
 30 18  1  0
 28 22  1  0
M  END
>  <MS_ID>  (1403) 
MS1462

>  <SMILES>  (1403) 
C[C@H](CCC(=O)CC(=O)CC(=O)O)[C@H]1CC[C@H]2[C@@H]3[C@H](O)C[C@@H]4C[C@H](O)CC[C@]4(C)[C@H]3CC[C@]12C

>  <Structure_dimension>  (1403) 
2D

$$$$
MS1463
     RDKit          2D

 31 34  0  0  0  0  0  0  0  0999 V2000
   -3.5119   -3.5779    0.0000 C   0  0  0  0  0  0  0  0  0  0  0  0
   -2.6109   -2.3787    0.0000 C   0  0  0  0  0  0  0  0  0  0  0  0
   -3.1991   -0.9988    0.0000 C   0  0  0  0  0  0  0  0  0  0  0  0
   -4.6881   -0.8181    0.0000 C   0  0  0  0  0  0  0  0  0  0  0  0
   -5.2762    0.5618    0.0000 C   0  0  0  0  0  0  0  0  0  0  0  0
   -4.3753    1.7610    0.0000 O   0  0  0  0  0  0  0  0  0  0  0  0
   -6.7653    0.7424    0.0000 N   0  0  0  0  0  0  0  0  0  0  0  0
   -7.3534    2.1223    0.0000 C   0  0  0  0  0  0  0  0  0  0  0  0
   -8.8425    2.3029    0.0000 C   0  0  0  0  0  0  0  0  0  0  0  0
   -9.4306    3.6828    0.0000 S   0  0  0  0  0  0  0  0  0  0  0  0
   -1.1219   -2.5593    0.0000 C   0  0  0  0  0  0  0  0  0  0  0  0
   -0.3927   -3.8702    0.0000 C   0  0  0  0  0  0  0  0  0  0  0  0
    1.0793   -3.5818    0.0000 C   0  0  0  0  0  0  0  0  0  0  0  0
    1.2599   -2.0927    0.0000 C   0  0  0  0  0  0  0  0  0  0  0  0
    2.4874   -1.2306    0.0000 C   0  0  0  0  0  0  0  0  0  0  0  0
    3.8478   -1.8625    0.0000 C   0  0  0  0  0  0  0  0  0  0  0  0
    3.9807   -3.3566    0.0000 O   0  0  0  0  0  0  0  0  0  0  0  0
    5.0753   -1.0003    0.0000 C   0  0  0  0  0  0  0  0  0  0  0  0
    4.9423    0.4938    0.0000 C   0  0  0  0  0  0  0  0  0  0  0  0
    6.1698    1.3559    0.0000 C   0  0  0  0  0  0  0  0  0  0  0  0
    6.0369    2.8500    0.0000 C   0  0  0  0  0  0  0  0  0  0  0  0
    7.2644    3.7122    0.0000 O   0  0  0  0  0  0  0  0  0  0  0  0
    4.6765    3.4820    0.0000 C   0  0  0  0  0  0  0  0  0  0  0  0
    3.4490    2.6198    0.0000 C   0  0  0  0  0  0  0  0  0  0  0  0
    3.5820    1.1257    0.0000 C   0  0  0  0  0  0  0  0  0  0  0  0
    2.2216    1.7576    0.0000 C   0  0  0  0  0  0  0  0  0  0  0  0
    2.3545    0.2635    0.0000 C   0  0  0  0  0  0  0  0  0  0  0  0
    0.9941    0.8955    0.0000 C   0  0  0  0  0  0  0  0  0  0  0  0
   -0.2334    0.0333    0.0000 C   0  0  0  0  0  0  0  0  0  0  0  0
   -0.1005   -1.4608    0.0000 C   0  0  0  0  0  0  0  0  0  0  0  0
   -1.5195   -0.9745    0.0000 C   0  0  0  0  0  0  0  0  0  0  0  0
  2  1  1  6
  2  3  1  0
  3  4  1  0
  4  5  1  0
  5  6  2  0
  5  7  1  0
  7  8  1  0
  8  9  1  0
  9 10  1  0
  2 11  1  0
 11 12  1  6
 12 13  1  0
 14 13  1  6
 14 15  1  0
 15 16  1  1
 16 17  1  1
 16 18  1  0
 19 18  1  1
 19 20  1  0
 20 21  1  0
 21 22  1  1
 21 23  1  0
 23 24  1  0
 24 25  1  0
 25 26  1  6
 25 27  1  0
 27 28  1  6
 28 29  1  0
 29 30  1  0
 30 31  1  6
 30 11  1  0
 30 14  1  0
 27 15  1  0
 25 19  1  0
M  END
>  <MS_ID>  (1404) 
MS1463

>  <SMILES>  (1404) 
C[C@H](CCC(=O)NCCS)[C@H]1CC[C@H]2[C@@H]3[C@H](O)C[C@@H]4C[C@H](O)CC[C@]4(C)[C@H]3CC[C@]12C

>  <Structure_dimension>  (1404) 
2D

$$$$
MS1464
     RDKit          2D

 32 35  0  0  0  0  0  0  0  0999 V2000
   -3.1421   -3.6694    0.0000 C   0  0  0  0  0  0  0  0  0  0  0  0
   -2.2628   -2.4541    0.0000 C   0  0  0  0  0  0  0  0  0  0  0  0
   -2.8756   -1.0850    0.0000 C   0  0  0  0  0  0  0  0  0  0  0  0
   -4.3676   -0.9311    0.0000 C   0  0  0  0  0  0  0  0  0  0  0  0
   -4.9804    0.4380    0.0000 C   0  0  0  0  0  0  0  0  0  0  0  0
   -4.1011    1.6532    0.0000 O   0  0  0  0  0  0  0  0  0  0  0  0
   -6.4725    0.5919    0.0000 C   0  0  0  0  0  0  0  0  0  0  0  0
   -7.0853    1.9610    0.0000 C   0  0  0  0  0  0  0  0  0  0  0  0
   -8.5774    2.1149    0.0000 C   0  0  0  0  0  0  0  0  0  0  0  0
   -9.4567    0.8996    0.0000 O   0  0  0  0  0  0  0  0  0  0  0  0
   -9.1901    3.4840    0.0000 O   0  0  0  0  0  0  0  0  0  0  0  0
   -0.7707   -2.6080    0.0000 C   0  0  0  0  0  0  0  0  0  0  0  0
   -0.0182   -3.9056    0.0000 C   0  0  0  0  0  0  0  0  0  0  0  0
    1.4484   -3.5909    0.0000 C   0  0  0  0  0  0  0  0  0  0  0  0
    1.6023   -2.0988    0.0000 C   0  0  0  0  0  0  0  0  0  0  0  0
    2.8141   -1.2147    0.0000 C   0  0  0  0  0  0  0  0  0  0  0  0
    4.1856   -1.8222    0.0000 C   0  0  0  0  0  0  0  0  0  0  0  0
    4.3453   -3.3136    0.0000 O   0  0  0  0  0  0  0  0  0  0  0  0
    5.3974   -0.9381    0.0000 C   0  0  0  0  0  0  0  0  0  0  0  0
    5.2377    0.5533    0.0000 C   0  0  0  0  0  0  0  0  0  0  0  0
    6.4495    1.4374    0.0000 C   0  0  0  0  0  0  0  0  0  0  0  0
    6.2898    2.9289    0.0000 C   0  0  0  0  0  0  0  0  0  0  0  0
    7.5016    3.8129    0.0000 O   0  0  0  0  0  0  0  0  0  0  0  0
    4.9183    3.5363    0.0000 C   0  0  0  0  0  0  0  0  0  0  0  0
    3.7065    2.6522    0.0000 C   0  0  0  0  0  0  0  0  0  0  0  0
    3.8662    1.1608    0.0000 C   0  0  0  0  0  0  0  0  0  0  0  0
    2.4947    1.7682    0.0000 C   0  0  0  0  0  0  0  0  0  0  0  0
    2.6544    0.2767    0.0000 C   0  0  0  0  0  0  0  0  0  0  0  0
    1.2829    0.8842    0.0000 C   0  0  0  0  0  0  0  0  0  0  0  0
    0.0711    0.0001    0.0000 C   0  0  0  0  0  0  0  0  0  0  0  0
    0.2308   -1.4914    0.0000 C   0  0  0  0  0  0  0  0  0  0  0  0
   -1.1967   -1.0306    0.0000 C   0  0  0  0  0  0  0  0  0  0  0  0
  2  1  1  6
  2  3  1  0
  3  4  1  0
  4  5  1  0
  5  6  2  0
  5  7  1  0
  7  8  1  0
  8  9  1  0
  9 10  2  0
  9 11  1  0
  2 12  1  0
 12 13  1  6
 13 14  1  0
 15 14  1  6
 15 16  1  0
 16 17  1  1
 17 18  2  0
 17 19  1  0
 20 19  1  1
 20 21  1  0
 21 22  1  0
 22 23  1  1
 22 24  1  0
 24 25  1  0
 25 26  1  0
 26 27  1  6
 26 28  1  0
 28 29  1  6
 29 30  1  0
 30 31  1  0
 31 32  1  6
 31 12  1  0
 31 15  1  0
 28 16  1  0
 26 20  1  0
M  END
>  <MS_ID>  (1405) 
MS1464

>  <SMILES>  (1405) 
C[C@H](CCC(=O)CCC(=O)O)[C@H]1CC[C@H]2[C@@H]3C(=O)C[C@@H]4C[C@H](O)CC[C@]4(C)[C@H]3CC[C@]12C

>  <Structure_dimension>  (1405) 
2D

$$$$
MS1466
     RDKit          2D

 34 38  0  0  0  0  0  0  0  0999 V2000
   -2.8489   -4.1271    0.0000 C   0  0  0  0  0  0  0  0  0  0  0  0
   -2.0902   -2.8331    0.0000 C   0  0  0  0  0  0  0  0  0  0  0  0
   -2.8315   -1.5291    0.0000 C   0  0  0  0  0  0  0  0  0  0  0  0
   -4.3315   -1.5191    0.0000 C   0  0  0  0  0  0  0  0  0  0  0  0
   -5.0728   -0.2151    0.0000 C   0  0  0  0  0  0  0  0  0  0  0  0
   -4.3141    1.0789    0.0000 O   0  0  0  0  0  0  0  0  0  0  0  0
   -6.5727   -0.2050    0.0000 N   0  0  0  0  0  0  0  0  0  0  0  0
   -7.3140    1.0990    0.0000 C   0  0  0  0  0  0  0  0  0  0  0  0
   -8.8047    1.2657    0.0000 N   0  0  0  0  0  0  0  0  0  0  0  0
   -9.1068    2.7350    0.0000 C   0  0  0  0  0  0  0  0  0  0  0  0
   -7.8028    3.4763    0.0000 C   0  0  0  0  0  0  0  0  0  0  0  0
   -6.6948    2.4652    0.0000 S   0  0  0  0  0  0  0  0  0  0  0  0
   -0.5902   -2.8432    0.0000 C   0  0  0  0  0  0  0  0  0  0  0  0
    0.2833   -4.0625    0.0000 C   0  0  0  0  0  0  0  0  0  0  0  0
    1.7130   -3.6086    0.0000 C   0  0  0  0  0  0  0  0  0  0  0  0
    1.7230   -2.1086    0.0000 C   0  0  0  0  0  0  0  0  0  0  0  0
    2.8444   -1.1124    0.0000 C   0  0  0  0  0  0  0  0  0  0  0  0
    4.2678   -1.5854    0.0000 C   0  0  0  0  0  0  0  0  0  0  0  0
    4.5699   -3.0547    0.0000 O   0  0  0  0  0  0  0  0  0  0  0  0
    5.3892   -0.5892    0.0000 C   0  0  0  0  0  0  0  0  0  0  0  0
    6.8127   -1.0622    0.0000 O   0  0  0  0  0  0  0  0  0  0  0  0
    5.0872    0.8801    0.0000 C   0  0  0  0  0  0  0  0  0  0  0  0
    6.2086    1.8763    0.0000 C   0  0  0  0  0  0  0  0  0  0  0  0
    5.9065    3.3456    0.0000 C   0  0  0  0  0  0  0  0  0  0  0  0
    7.0279    4.3418    0.0000 O   0  0  0  0  0  0  0  0  0  0  0  0
    4.4831    3.8186    0.0000 C   0  0  0  0  0  0  0  0  0  0  0  0
    3.3617    2.8224    0.0000 C   0  0  0  0  0  0  0  0  0  0  0  0
    3.6637    1.3531    0.0000 C   0  0  0  0  0  0  0  0  0  0  0  0
    2.2403    1.8262    0.0000 C   0  0  0  0  0  0  0  0  0  0  0  0
    2.5423    0.3569    0.0000 C   0  0  0  0  0  0  0  0  0  0  0  0
    1.1189    0.8299    0.0000 C   0  0  0  0  0  0  0  0  0  0  0  0
   -0.0025   -0.1663    0.0000 C   0  0  0  0  0  0  0  0  0  0  0  0
    0.2995   -1.6355    0.0000 C   0  0  0  0  0  0  0  0  0  0  0  0
   -1.1656   -1.3139    0.0000 C   0  0  0  0  0  0  0  0  0  0  0  0
  2  1  1  6
  2  3  1  0
  3  4  1  0
  4  5  1  0
  5  6  2  0
  5  7  1  0
  7  8  1  0
  8  9  2  0
  9 10  1  0
 10 11  2  0
 11 12  1  0
  2 13  1  0
 13 14  1  6
 14 15  1  0
 16 15  1  6
 16 17  1  0
 17 18  1  1
 18 19  1  1
 18 20  1  0
 20 21  1  1
 20 22  1  0
 22 23  1  1
 23 24  1  0
 24 25  1  1
 24 26  1  0
 26 27  1  0
 27 28  1  0
 28 29  1  6
 28 30  1  0
 30 31  1  6
 31 32  1  0
 32 33  1  0
 33 34  1  6
 12  8  1  0
 33 13  1  0
 33 16  1  0
 30 17  1  0
 28 22  1  0
M  END
>  <MS_ID>  (1406) 
MS1466

>  <SMILES>  (1406) 
C[C@H](CCC(=O)Nc1nccs1)[C@H]1CC[C@H]2[C@@H]3[C@H](O)[C@H](O)[C@@H]4C[C@H](O)CC[C@]4(C)[C@H]3CC[C@]12C

>  <Structure_dimension>  (1406) 
2D

$$$$
MS1467
     RDKit          2D

 30 33  0  0  0  0  0  0  0  0999 V2000
   -3.6944   -3.4608    0.0000 C   0  0  0  0  0  0  0  0  0  0  0  0
   -2.7226   -2.3182    0.0000 C   0  0  0  0  0  0  0  0  0  0  0  0
   -3.2262   -0.9053    0.0000 C   0  0  0  0  0  0  0  0  0  0  0  0
   -4.7017   -0.6350    0.0000 C   0  0  0  0  0  0  0  0  0  0  0  0
   -5.2053    0.7779    0.0000 C   0  0  0  0  0  0  0  0  0  0  0  0
   -4.2335    1.9206    0.0000 O   0  0  0  0  0  0  0  0  0  0  0  0
   -6.6808    1.0482    0.0000 C   0  0  0  0  0  0  0  0  0  0  0  0
   -7.1844    2.4611    0.0000 C   0  0  0  0  0  0  0  0  0  0  0  0
   -6.2126    3.6038    0.0000 O   0  0  0  0  0  0  0  0  0  0  0  0
   -8.6599    2.7314    0.0000 O   0  0  0  0  0  0  0  0  0  0  0  0
   -1.2471   -2.5885    0.0000 C   0  0  0  0  0  0  0  0  0  0  0  0
   -0.5986   -3.9410    0.0000 C   0  0  0  0  0  0  0  0  0  0  0  0
    0.8882   -3.7422    0.0000 C   0  0  0  0  0  0  0  0  0  0  0  0
    1.1585   -2.2667    0.0000 C   0  0  0  0  0  0  0  0  0  0  0  0
    2.4358   -1.4803    0.0000 C   0  0  0  0  0  0  0  0  0  0  0  0
    3.7555   -2.1933    0.0000 C   0  0  0  0  0  0  0  0  0  0  0  0
    5.0328   -1.4069    0.0000 C   0  0  0  0  0  0  0  0  0  0  0  0
    4.9905    0.0925    0.0000 C   0  0  0  0  0  0  0  0  0  0  0  0
    6.2678    0.8789    0.0000 C   0  0  0  0  0  0  0  0  0  0  0  0
    6.2254    2.3783    0.0000 C   0  0  0  0  0  0  0  0  0  0  0  0
    7.5027    3.1647    0.0000 O   0  0  0  0  0  0  0  0  0  0  0  0
    4.9057    3.0913    0.0000 C   0  0  0  0  0  0  0  0  0  0  0  0
    3.6284    2.3049    0.0000 C   0  0  0  0  0  0  0  0  0  0  0  0
    3.6708    0.8055    0.0000 C   0  0  0  0  0  0  0  0  0  0  0  0
    2.3510    1.5185    0.0000 C   0  0  0  0  0  0  0  0  0  0  0  0
    2.3934    0.0191    0.0000 C   0  0  0  0  0  0  0  0  0  0  0  0
    1.0737    0.7321    0.0000 C   0  0  0  0  0  0  0  0  0  0  0  0
   -0.2036   -0.0543    0.0000 C   0  0  0  0  0  0  0  0  0  0  0  0
   -0.1612   -1.5537    0.0000 C   0  0  0  0  0  0  0  0  0  0  0  0
   -1.5482   -0.9826    0.0000 C   0  0  0  0  0  0  0  0  0  0  0  0
  2  1  1  6
  2  3  1  0
  3  4  1  0
  4  5  1  0
  5  6  2  0
  5  7  1  0
  7  8  1  0
  8  9  2  0
  8 10  1  0
  2 11  1  0
 11 12  1  6
 12 13  1  0
 14 13  1  6
 14 15  1  0
 15 16  1  1
 16 17  1  0
 18 17  1  1
 18 19  1  0
 19 20  1  0
 20 21  1  6
 20 22  1  0
 22 23  1  0
 23 24  1  0
 24 25  1  6
 24 26  1  0
 26 27  1  6
 27 28  1  0
 28 29  1  0
 29 30  1  6
 29 11  1  0
 29 14  1  0
 26 15  1  0
 24 18  1  0
M  END
>  <MS_ID>  (1407) 
MS1467

>  <SMILES>  (1407) 
C[C@H](CCC(=O)CC(=O)O)[C@H]1CC[C@H]2[C@@H]3CC[C@@H]4C[C@@H](O)CC[C@]4(C)[C@H]3CC[C@]12C

>  <Structure_dimension>  (1407) 
2D

$$$$
MS1468
     RDKit          2D

 31 34  0  0  0  0  0  0  0  0999 V2000
   -3.5444   -3.4776    0.0000 C   0  0  0  0  0  0  0  0  0  0  0  0
   -2.6225   -2.2943    0.0000 C   0  0  0  0  0  0  0  0  0  0  0  0
   -3.1864   -0.9043    0.0000 C   0  0  0  0  0  0  0  0  0  0  0  0
   -4.6720   -0.6975    0.0000 C   0  0  0  0  0  0  0  0  0  0  0  0
   -5.2358    0.6925    0.0000 C   0  0  0  0  0  0  0  0  0  0  0  0
   -4.3140    1.8757    0.0000 O   0  0  0  0  0  0  0  0  0  0  0  0
   -6.7215    0.8992    0.0000 C   0  0  0  0  0  0  0  0  0  0  0  0
   -7.2853    2.2892    0.0000 C   0  0  0  0  0  0  0  0  0  0  0  0
   -8.7710    2.4959    0.0000 C   0  0  0  0  0  0  0  0  0  0  0  0
  -10.2567    2.7027    0.0000 N   0  0  0  0  0  0  0  0  0  0  0  0
   -1.1369   -2.5010    0.0000 C   0  0  0  0  0  0  0  0  0  0  0  0
   -0.4309   -3.8245    0.0000 C   0  0  0  0  0  0  0  0  0  0  0  0
    1.0460   -3.5620    0.0000 C   0  0  0  0  0  0  0  0  0  0  0  0
    1.2527   -2.0763    0.0000 C   0  0  0  0  0  0  0  0  0  0  0  0
    2.4952   -1.2358    0.0000 C   0  0  0  0  0  0  0  0  0  0  0  0
    3.8442   -1.8916    0.0000 C   0  0  0  0  0  0  0  0  0  0  0  0
    3.9509   -3.3878    0.0000 O   0  0  0  0  0  0  0  0  0  0  0  0
    5.0867   -1.0511    0.0000 C   0  0  0  0  0  0  0  0  0  0  0  0
    4.9800    0.4451    0.0000 C   0  0  0  0  0  0  0  0  0  0  0  0
    6.2224    1.2856    0.0000 C   0  0  0  0  0  0  0  0  0  0  0  0
    6.1157    2.7818    0.0000 C   0  0  0  0  0  0  0  0  0  0  0  0
    7.3581    3.6223    0.0000 O   0  0  0  0  0  0  0  0  0  0  0  0
    4.7666    3.4375    0.0000 C   0  0  0  0  0  0  0  0  0  0  0  0
    3.5242    2.5970    0.0000 C   0  0  0  0  0  0  0  0  0  0  0  0
    3.6309    1.1008    0.0000 C   0  0  0  0  0  0  0  0  0  0  0  0
    2.2818    1.7566    0.0000 C   0  0  0  0  0  0  0  0  0  0  0  0
    2.3885    0.2604    0.0000 C   0  0  0  0  0  0  0  0  0  0  0  0
    1.0394    0.9161    0.0000 C   0  0  0  0  0  0  0  0  0  0  0  0
   -0.2030    0.0756    0.0000 C   0  0  0  0  0  0  0  0  0  0  0  0
   -0.0963   -1.4206    0.0000 C   0  0  0  0  0  0  0  0  0  0  0  0
   -1.5066   -0.9095    0.0000 C   0  0  0  0  0  0  0  0  0  0  0  0
  2  1  1  6
  2  3  1  0
  3  4  1  0
  4  5  1  0
  5  6  2  0
  5  7  1  0
  7  8  1  0
  8  9  1  0
  9 10  3  0
  2 11  1  0
 11 12  1  6
 12 13  1  0
 14 13  1  6
 14 15  1  0
 15 16  1  1
 16 17  1  1
 16 18  1  0
 19 18  1  1
 19 20  1  0
 20 21  1  0
 21 22  1  1
 21 23  1  0
 23 24  1  0
 24 25  1  0
 25 26  1  6
 25 27  1  0
 27 28  1  6
 28 29  1  0
 29 30  1  0
 30 31  1  6
 30 11  1  0
 30 14  1  0
 27 15  1  0
 25 19  1  0
M  END
>  <MS_ID>  (1408) 
MS1468

>  <SMILES>  (1408) 
C[C@H](CCC(=O)CCC#N)[C@H]1CC[C@H]2[C@@H]3[C@H](O)C[C@@H]4C[C@H](O)CC[C@]4(C)[C@H]3CC[C@]12C

>  <Structure_dimension>  (1408) 
2D

$$$$
MS1469
     RDKit          2D

 33 36  0  0  0  0  0  0  0  0999 V2000
   -3.0978   -3.6919    0.0000 C   0  0  0  0  0  0  0  0  0  0  0  0
   -2.2201   -2.4755    0.0000 C   0  0  0  0  0  0  0  0  0  0  0  0
   -2.8347   -1.1072    0.0000 C   0  0  0  0  0  0  0  0  0  0  0  0
   -4.3270   -0.9552    0.0000 C   0  0  0  0  0  0  0  0  0  0  0  0
   -4.9416    0.4131    0.0000 C   0  0  0  0  0  0  0  0  0  0  0  0
   -4.0639    1.6295    0.0000 O   0  0  0  0  0  0  0  0  0  0  0  0
   -6.4339    0.5650    0.0000 O   0  0  0  0  0  0  0  0  0  0  0  0
   -7.0484    1.9333    0.0000 C   0  0  0  0  0  0  0  0  0  0  0  0
   -8.5407    2.0852    0.0000 C   0  0  0  0  0  0  0  0  0  0  0  0
   -9.4184    0.8688    0.0000 O   0  0  0  0  0  0  0  0  0  0  0  0
   -9.1553    3.4535    0.0000 O   0  0  0  0  0  0  0  0  0  0  0  0
   -0.7278   -2.6274    0.0000 C   0  0  0  0  0  0  0  0  0  0  0  0
    0.0264   -3.9240    0.0000 C   0  0  0  0  0  0  0  0  0  0  0  0
    1.4926   -3.6073    0.0000 C   0  0  0  0  0  0  0  0  0  0  0  0
    1.6445   -2.1150    0.0000 C   0  0  0  0  0  0  0  0  0  0  0  0
    2.8552   -1.2294    0.0000 C   0  0  0  0  0  0  0  0  0  0  0  0
    4.2275   -1.8350    0.0000 C   0  0  0  0  0  0  0  0  0  0  0  0
    4.3891   -3.3263    0.0000 O   0  0  0  0  0  0  0  0  0  0  0  0
    5.4381   -0.9494    0.0000 C   0  0  0  0  0  0  0  0  0  0  0  0
    5.2764    0.5419    0.0000 C   0  0  0  0  0  0  0  0  0  0  0  0
    6.4871    1.4275    0.0000 C   0  0  0  0  0  0  0  0  0  0  0  0
    6.3254    2.9188    0.0000 C   0  0  0  0  0  0  0  0  0  0  0  0
    7.5360    3.8044    0.0000 O   0  0  0  0  0  0  0  0  0  0  0  0
    4.9531    3.5244    0.0000 C   0  0  0  0  0  0  0  0  0  0  0  0
    3.7425    2.6388    0.0000 C   0  0  0  0  0  0  0  0  0  0  0  0
    3.9041    1.1475    0.0000 C   0  0  0  0  0  0  0  0  0  0  0  0
    2.5318    1.7531    0.0000 C   0  0  0  0  0  0  0  0  0  0  0  0
    2.6935    0.2619    0.0000 C   0  0  0  0  0  0  0  0  0  0  0  0
    1.3212    0.8675    0.0000 C   0  0  0  0  0  0  0  0  0  0  0  0
    0.1105   -0.0181    0.0000 C   0  0  0  0  0  0  0  0  0  0  0  0
   -1.2618    0.5875    0.0000 O   0  0  0  0  0  0  0  0  0  0  0  0
    0.2722   -1.5094    0.0000 C   0  0  0  0  0  0  0  0  0  0  0  0
   -1.1559   -1.0505    0.0000 C   0  0  0  0  0  0  0  0  0  0  0  0
  2  1  1  6
  2  3  1  0
  3  4  1  0
  4  5  1  0
  5  6  2  0
  5  7  1  0
  7  8  1  0
  8  9  1  0
  9 10  2  0
  9 11  1  0
  2 12  1  0
 12 13  1  6
 13 14  1  0
 15 14  1  6
 15 16  1  0
 16 17  1  1
 17 18  1  1
 17 19  1  0
 20 19  1  1
 20 21  1  0
 21 22  1  0
 22 23  2  0
 22 24  1  0
 24 25  1  0
 25 26  1  0
 26 27  1  6
 26 28  1  0
 28 29  1  6
 29 30  1  0
 30 31  1  1
 30 32  1  0
 32 33  1  6
 32 12  1  0
 32 15  1  0
 28 16  1  0
 26 20  1  0
M  END
>  <MS_ID>  (1409) 
MS1469

>  <SMILES>  (1409) 
C[C@H](CCC(=O)OCC(=O)O)[C@H]1CC[C@H]2[C@@H]3[C@H](O)C[C@@H]4CC(=O)CC[C@]4(C)[C@H]3C[C@H](O)[C@]12C

>  <Structure_dimension>  (1409) 
2D

$$$$
MS1470
     RDKit          2D

 34 37  0  0  0  0  0  0  0  0999 V2000
   -4.8469   -2.9909    0.0000 C   0  0  0  0  0  0  0  0  0  0  0  0
   -4.0376   -1.7279    0.0000 C   0  0  0  0  0  0  0  0  0  0  0  0
   -4.7268   -0.3956    0.0000 C   0  0  0  0  0  0  0  0  0  0  0  0
   -6.2252   -0.3263    0.0000 C   0  0  0  0  0  0  0  0  0  0  0  0
   -6.9143    1.0061    0.0000 C   0  0  0  0  0  0  0  0  0  0  0  0
   -6.1050    2.2690    0.0000 O   0  0  0  0  0  0  0  0  0  0  0  0
   -8.4127    1.0754    0.0000 O   0  0  0  0  0  0  0  0  0  0  0  0
   -2.5392   -1.7973    0.0000 C   0  0  0  0  0  0  0  0  0  0  0  0
   -1.7146   -3.0503    0.0000 C   0  0  0  0  0  0  0  0  0  0  0  0
   -0.2681   -2.6532    0.0000 C   0  0  0  0  0  0  0  0  0  0  0  0
   -0.1988   -1.1548    0.0000 C   0  0  0  0  0  0  0  0  0  0  0  0
    0.9612   -0.2037    0.0000 C   0  0  0  0  0  0  0  0  0  0  0  0
    2.3648   -0.7327    0.0000 C   0  0  0  0  0  0  0  0  0  0  0  0
    2.6085   -2.2128    0.0000 O   0  0  0  0  0  0  0  0  0  0  0  0
    4.0121   -2.7418    0.0000 C   0  0  0  0  0  0  0  0  0  0  0  0
    5.1721   -1.7907    0.0000 O   0  0  0  0  0  0  0  0  0  0  0  0
    4.2558   -4.2219    0.0000 C   0  0  0  0  0  0  0  0  0  0  0  0
    5.6594   -4.7509    0.0000 C   0  0  0  0  0  0  0  0  0  0  0  0
    3.0959   -5.1729    0.0000 O   0  0  0  0  0  0  0  0  0  0  0  0
    3.5247    0.2184    0.0000 C   0  0  0  0  0  0  0  0  0  0  0  0
    3.2810    1.6984    0.0000 C   0  0  0  0  0  0  0  0  0  0  0  0
    4.4410    2.6495    0.0000 C   0  0  0  0  0  0  0  0  0  0  0  0
    4.1973    4.1296    0.0000 C   0  0  0  0  0  0  0  0  0  0  0  0
    5.3572    5.0807    0.0000 O   0  0  0  0  0  0  0  0  0  0  0  0
    2.7936    4.6586    0.0000 C   0  0  0  0  0  0  0  0  0  0  0  0
    1.6337    3.7075    0.0000 C   0  0  0  0  0  0  0  0  0  0  0  0
    1.8774    2.2274    0.0000 C   0  0  0  0  0  0  0  0  0  0  0  0
    0.4738    2.7564    0.0000 C   0  0  0  0  0  0  0  0  0  0  0  0
    0.7175    1.2763    0.0000 C   0  0  0  0  0  0  0  0  0  0  0  0
   -0.6861    1.8053    0.0000 C   0  0  0  0  0  0  0  0  0  0  0  0
   -1.8461    0.8542    0.0000 C   0  0  0  0  0  0  0  0  0  0  0  0
   -3.2497    1.3832    0.0000 O   0  0  0  0  0  0  0  0  0  0  0  0
   -1.6024   -0.6258    0.0000 C   0  0  0  0  0  0  0  0  0  0  0  0
   -3.0536   -0.2465    0.0000 C   0  0  0  0  0  0  0  0  0  0  0  0
  2  1  1  6
  2  3  1  0
  3  4  1  0
  4  5  1  0
  5  6  2  0
  5  7  1  0
  2  8  1  0
  8  9  1  6
  9 10  1  0
 11 10  1  6
 11 12  1  0
 12 13  1  1
 13 14  1  1
 14 15  1  0
 15 16  2  0
 15 17  1  0
 17 18  1  1
 17 19  1  0
 13 20  1  0
 21 20  1  1
 21 22  1  0
 22 23  1  0
 23 24  1  1
 23 25  1  0
 25 26  1  0
 26 27  1  0
 27 28  1  6
 27 29  1  0
 29 30  1  6
 30 31  1  0
 31 32  1  1
 31 33  1  0
 33 34  1  6
 33  8  1  0
 33 11  1  0
 29 12  1  0
 27 21  1  0
M  END
>  <MS_ID>  (1410) 
MS1470

>  <SMILES>  (1410) 
C[C@H](CCC(=O)O)[C@H]1CC[C@H]2[C@@H]3[C@H](OC(=O)[C@@H](C)O)C[C@@H]4C[C@H](O)CC[C@]4(C)[C@H]3C[C@H](O)[C@]12C

>  <Structure_dimension>  (1410) 
2D

$$$$
MS1471
     RDKit          2D

 31 34  0  0  0  0  0  0  0  0999 V2000
   -4.2495   -2.8115    0.0000 C   0  0  0  0  0  0  0  0  0  0  0  0
   -3.1859   -1.7538    0.0000 C   0  0  0  0  0  0  0  0  0  0  0  0
   -3.5702   -0.3038    0.0000 C   0  0  0  0  0  0  0  0  0  0  0  0
   -5.0180    0.0883    0.0000 C   0  0  0  0  0  0  0  0  0  0  0  0
   -5.4023    1.5383    0.0000 C   0  0  0  0  0  0  0  0  0  0  0  0
   -4.3387    2.5960    0.0000 O   0  0  0  0  0  0  0  0  0  0  0  0
   -6.8501    1.9305    0.0000 C   0  0  0  0  0  0  0  0  0  0  0  0
   -7.9137    0.8727    0.0000 O   0  0  0  0  0  0  0  0  0  0  0  0
   -7.2344    3.3804    0.0000 O   0  0  0  0  0  0  0  0  0  0  0  0
   -1.7381   -2.1460    0.0000 C   0  0  0  0  0  0  0  0  0  0  0  0
   -1.2044   -3.5478    0.0000 C   0  0  0  0  0  0  0  0  0  0  0  0
    0.2938   -3.4734    0.0000 C   0  0  0  0  0  0  0  0  0  0  0  0
    0.6860   -2.0256    0.0000 C   0  0  0  0  0  0  0  0  0  0  0  0
    2.0243   -1.3482    0.0000 C   0  0  0  0  0  0  0  0  0  0  0  0
    3.2801   -2.1686    0.0000 C   0  0  0  0  0  0  0  0  0  0  0  0
    3.1975   -3.6663    0.0000 O   0  0  0  0  0  0  0  0  0  0  0  0
    4.6185   -1.4913    0.0000 C   0  0  0  0  0  0  0  0  0  0  0  0
    4.7010    0.0064    0.0000 C   0  0  0  0  0  0  0  0  0  0  0  0
    6.0394    0.6838    0.0000 C   0  0  0  0  0  0  0  0  0  0  0  0
    6.1220    2.1815    0.0000 C   0  0  0  0  0  0  0  0  0  0  0  0
    7.4604    2.8588    0.0000 O   0  0  0  0  0  0  0  0  0  0  0  0
    4.8662    3.0019    0.0000 C   0  0  0  0  0  0  0  0  0  0  0  0
    3.5279    2.3246    0.0000 C   0  0  0  0  0  0  0  0  0  0  0  0
    3.4453    0.8268    0.0000 C   0  0  0  0  0  0  0  0  0  0  0  0
    2.1895    1.6472    0.0000 C   0  0  0  0  0  0  0  0  0  0  0  0
    2.1069    0.1495    0.0000 C   0  0  0  0  0  0  0  0  0  0  0  0
    0.8511    0.9699    0.0000 C   0  0  0  0  0  0  0  0  0  0  0  0
   -0.4872    0.2925    0.0000 C   0  0  0  0  0  0  0  0  0  0  0  0
   -1.7430    1.1129    0.0000 O   0  0  0  0  0  0  0  0  0  0  0  0
   -0.5698   -1.2052    0.0000 C   0  0  0  0  0  0  0  0  0  0  0  0
   -1.9045   -0.5205    0.0000 C   0  0  0  0  0  0  0  0  0  0  0  0
  2  1  1  6
  2  3  1  0
  3  4  1  0
  4  5  1  0
  5  6  2  0
  5  7  1  0
  7  8  2  0
  7  9  1  0
  2 10  1  0
 10 11  1  6
 11 12  1  0
 13 12  1  6
 13 14  1  0
 14 15  1  1
 15 16  1  1
 15 17  1  0
 18 17  1  1
 18 19  1  0
 19 20  1  0
 20 21  1  1
 20 22  1  0
 22 23  1  0
 23 24  1  0
 24 25  1  6
 24 26  1  0
 26 27  1  6
 27 28  1  0
 28 29  2  0
 28 30  1  0
 30 31  1  6
 30 10  1  0
 30 13  1  0
 26 14  1  0
 24 18  1  0
M  END
>  <MS_ID>  (1411) 
MS1471

>  <SMILES>  (1411) 
C[C@H](CCC(=O)C(=O)O)[C@H]1CC[C@H]2[C@@H]3[C@H](O)C[C@@H]4C[C@H](O)CC[C@]4(C)[C@H]3CC(=O)[C@]12C

>  <Structure_dimension>  (1411) 
2D

$$$$
MS1472
     RDKit          2D

 36 40  0  0  0  0  0  0  0  0999 V2000
   -1.8126   -4.4420    0.0000 C   0  0  0  0  0  0  0  0  0  0  0  0
   -1.1323   -3.1052    0.0000 C   0  0  0  0  0  0  0  0  0  0  0  0
   -1.9499   -1.8476    0.0000 C   0  0  0  0  0  0  0  0  0  0  0  0
   -3.4478   -1.9269    0.0000 C   0  0  0  0  0  0  0  0  0  0  0  0
   -4.2654   -0.6693    0.0000 C   0  0  0  0  0  0  0  0  0  0  0  0
   -3.5851    0.6676    0.0000 O   0  0  0  0  0  0  0  0  0  0  0  0
   -5.7633   -0.7486    0.0000 N   0  0  0  0  0  0  0  0  0  0  0  0
   -6.5809    0.5090    0.0000 C   0  0  0  0  0  0  0  0  0  0  0  0
   -5.9006    1.8459    0.0000 C   0  0  0  0  0  0  0  0  0  0  0  0
   -6.7182    3.1035    0.0000 C   0  0  0  0  0  0  0  0  0  0  0  0
   -8.2162    3.0242    0.0000 C   0  0  0  0  0  0  0  0  0  0  0  0
   -8.8964    1.6873    0.0000 C   0  0  0  0  0  0  0  0  0  0  0  0
  -10.3943    1.6080    0.0000 N   0  0  0  0  0  0  0  0  0  0  0  0
   -8.0788    0.4297    0.0000 C   0  0  0  0  0  0  0  0  0  0  0  0
    0.3656   -3.0259    0.0000 C   0  0  0  0  0  0  0  0  0  0  0  0
    1.3102   -4.1911    0.0000 C   0  0  0  0  0  0  0  0  0  0  0  0
    2.7103   -3.6528    0.0000 C   0  0  0  0  0  0  0  0  0  0  0  0
    2.6310   -2.1549    0.0000 C   0  0  0  0  0  0  0  0  0  0  0  0
    3.6911   -1.0937    0.0000 C   0  0  0  0  0  0  0  0  0  0  0  0
    5.1402   -1.4812    0.0000 C   0  0  0  0  0  0  0  0  0  0  0  0
    5.5292   -2.9299    0.0000 O   0  0  0  0  0  0  0  0  0  0  0  0
    6.2003   -0.4200    0.0000 C   0  0  0  0  0  0  0  0  0  0  0  0
    5.8113    1.0287    0.0000 C   0  0  0  0  0  0  0  0  0  0  0  0
    6.8714    2.0899    0.0000 C   0  0  0  0  0  0  0  0  0  0  0  0
    6.4825    3.5386    0.0000 C   0  0  0  0  0  0  0  0  0  0  0  0
    7.5426    4.5998    0.0000 O   0  0  0  0  0  0  0  0  0  0  0  0
    5.0334    3.9261    0.0000 C   0  0  0  0  0  0  0  0  0  0  0  0
    3.9733    2.8649    0.0000 C   0  0  0  0  0  0  0  0  0  0  0  0
    4.3622    1.4162    0.0000 C   0  0  0  0  0  0  0  0  0  0  0  0
    2.9132    1.8036    0.0000 C   0  0  0  0  0  0  0  0  0  0  0  0
    3.3021    0.3550    0.0000 C   0  0  0  0  0  0  0  0  0  0  0  0
    1.8530    0.7424    0.0000 C   0  0  0  0  0  0  0  0  0  0  0  0
    0.7929   -0.3188    0.0000 C   0  0  0  0  0  0  0  0  0  0  0  0
   -0.6561    0.0687    0.0000 O   0  0  0  0  0  0  0  0  0  0  0  0
    1.1819   -1.7675    0.0000 C   0  0  0  0  0  0  0  0  0  0  0  0
   -0.2997   -1.5336    0.0000 C   0  0  0  0  0  0  0  0  0  0  0  0
  2  1  1  6
  2  3  1  0
  3  4  1  0
  4  5  1  0
  5  6  2  0
  5  7  1  0
  7  8  1  0
  8  9  2  0
  9 10  1  0
 10 11  2  0
 11 12  1  0
 12 13  1  0
 12 14  2  0
  2 15  1  0
 15 16  1  6
 16 17  1  0
 18 17  1  6
 18 19  1  0
 19 20  1  1
 20 21  1  1
 20 22  1  0
 23 22  1  1
 23 24  1  0
 24 25  1  0
 25 26  1  1
 25 27  1  0
 27 28  1  0
 28 29  1  0
 29 30  1  6
 29 31  1  0
 31 32  1  6
 32 33  1  0
 33 34  1  1
 33 35  1  0
 35 36  1  6
 14  8  1  0
 35 15  1  0
 35 18  1  0
 31 19  1  0
 29 23  1  0
M  END
>  <MS_ID>  (1412) 
MS1472

>  <SMILES>  (1412) 
C[C@H](CCC(=O)Nc1cccc(N)c1)[C@H]1CC[C@H]2[C@@H]3[C@H](O)C[C@@H]4C[C@H](O)CC[C@]4(C)[C@H]3C[C@H](O)[C@]12C

>  <Structure_dimension>  (1412) 
2D

$$$$
MS1473
     RDKit          2D

 28 31  0  0  0  0  0  0  0  0999 V2000
   -5.2870   -1.7591    0.0000 C   0  0  0  0  0  0  0  0  0  0  0  0
   -4.0706   -0.8813    0.0000 C   0  0  0  0  0  0  0  0  0  0  0  0
   -4.2226    0.6109    0.0000 C   0  0  0  0  0  0  0  0  0  0  0  0
   -5.5910    1.2255    0.0000 C   0  0  0  0  0  0  0  0  0  0  0  0
   -5.7429    2.7177    0.0000 C   0  0  0  0  0  0  0  0  0  0  0  0
   -7.1113    3.3322    0.0000 O   0  0  0  0  0  0  0  0  0  0  0  0
   -2.7023   -1.4959    0.0000 C   0  0  0  0  0  0  0  0  0  0  0  0
   -2.3951   -2.9641    0.0000 C   0  0  0  0  0  0  0  0  0  0  0  0
   -0.9039   -3.1257    0.0000 C   0  0  0  0  0  0  0  0  0  0  0  0
   -0.2893   -1.7573    0.0000 C   0  0  0  0  0  0  0  0  0  0  0  0
    1.1387   -1.2984    0.0000 C   0  0  0  0  0  0  0  0  0  0  0  0
    2.2502   -2.3057    0.0000 C   0  0  0  0  0  0  0  0  0  0  0  0
    1.9336   -3.7719    0.0000 O   0  0  0  0  0  0  0  0  0  0  0  0
    3.6783   -1.8467    0.0000 C   0  0  0  0  0  0  0  0  0  0  0  0
    3.9949   -0.3805    0.0000 C   0  0  0  0  0  0  0  0  0  0  0  0
    5.4229    0.0784    0.0000 C   0  0  0  0  0  0  0  0  0  0  0  0
    5.7395    1.5446    0.0000 C   0  0  0  0  0  0  0  0  0  0  0  0
    7.1676    2.0035    0.0000 O   0  0  0  0  0  0  0  0  0  0  0  0
    4.6280    2.5519    0.0000 C   0  0  0  0  0  0  0  0  0  0  0  0
    3.2000    2.0930    0.0000 C   0  0  0  0  0  0  0  0  0  0  0  0
    2.8834    0.6267    0.0000 C   0  0  0  0  0  0  0  0  0  0  0  0
    1.7719    1.6340    0.0000 C   0  0  0  0  0  0  0  0  0  0  0  0
    1.4553    0.1678    0.0000 C   0  0  0  0  0  0  0  0  0  0  0  0
    0.3438    1.1751    0.0000 C   0  0  0  0  0  0  0  0  0  0  0  0
   -1.0842    0.7162    0.0000 C   0  0  0  0  0  0  0  0  0  0  0  0
   -2.1957    1.7234    0.0000 O   0  0  0  0  0  0  0  0  0  0  0  0
   -1.4008   -0.7500    0.0000 C   0  0  0  0  0  0  0  0  0  0  0  0
   -2.6115    0.1355    0.0000 C   0  0  0  0  0  0  0  0  0  0  0  0
  2  1  1  6
  2  3  1  0
  3  4  1  0
  4  5  1  0
  5  6  2  0
  2  7  1  0
  7  8  1  6
  8  9  1  0
 10  9  1  6
 10 11  1  0
 11 12  1  1
 12 13  1  1
 12 14  1  0
 15 14  1  1
 15 16  1  0
 16 17  1  0
 17 18  1  6
 17 19  1  0
 19 20  1  0
 20 21  1  0
 21 22  1  6
 21 23  1  0
 23 24  1  6
 24 25  1  0
 25 26  1  1
 25 27  1  0
 27 28  1  6
 27  7  1  0
 27 10  1  0
 23 11  1  0
 21 15  1  0
M  END
>  <MS_ID>  (1413) 
MS1473

>  <SMILES>  (1413) 
C[C@H](CCC=O)[C@H]1CC[C@H]2[C@@H]3[C@H](O)C[C@@H]4C[C@@H](O)CC[C@]4(C)[C@H]3C[C@H](O)[C@]12C

>  <Structure_dimension>  (1413) 
2D

$$$$
MS1474
     RDKit          2D

 27 30  0  0  0  0  0  0  0  0999 V2000
   -4.6206   -2.3136    0.0000 C   0  0  0  0  0  0  0  0  0  0  0  0
   -3.4741   -1.3464    0.0000 C   0  0  0  0  0  0  0  0  0  0  0  0
   -3.7384    0.1301    0.0000 C   0  0  0  0  0  0  0  0  0  0  0  0
   -5.1493    0.6394    0.0000 C   0  0  0  0  0  0  0  0  0  0  0  0
   -5.4136    2.1160    0.0000 C   0  0  0  0  0  0  0  0  0  0  0  0
   -4.2671    3.0832    0.0000 O   0  0  0  0  0  0  0  0  0  0  0  0
   -6.8245    2.6253    0.0000 O   0  0  0  0  0  0  0  0  0  0  0  0
   -2.0632   -1.8558    0.0000 C   0  0  0  0  0  0  0  0  0  0  0  0
   -1.6459   -3.2966    0.0000 C   0  0  0  0  0  0  0  0  0  0  0  0
   -0.1467   -3.3450    0.0000 C   0  0  0  0  0  0  0  0  0  0  0  0
    0.3626   -1.9341    0.0000 C   0  0  0  0  0  0  0  0  0  0  0  0
    1.7519   -1.3686    0.0000 C   0  0  0  0  0  0  0  0  0  0  0  0
    2.9363   -2.2890    0.0000 C   0  0  0  0  0  0  0  0  0  0  0  0
    4.3256   -1.7234    0.0000 C   0  0  0  0  0  0  0  0  0  0  0  0
    4.5305   -0.2375    0.0000 C   0  0  0  0  0  0  0  0  0  0  0  0
    5.9198    0.3281    0.0000 C   0  0  0  0  0  0  0  0  0  0  0  0
    6.1247    1.8140    0.0000 C   0  0  0  0  0  0  0  0  0  0  0  0
    4.9402    2.7344    0.0000 C   0  0  0  0  0  0  0  0  0  0  0  0
    3.5509    2.1689    0.0000 C   0  0  0  0  0  0  0  0  0  0  0  0
    3.3461    0.6829    0.0000 C   0  0  0  0  0  0  0  0  0  0  0  0
    2.1616    1.6033    0.0000 C   0  0  0  0  0  0  0  0  0  0  0  0
    1.9568    0.1174    0.0000 C   0  0  0  0  0  0  0  0  0  0  0  0
    0.7723    1.0378    0.0000 C   0  0  0  0  0  0  0  0  0  0  0  0
   -0.6170    0.4722    0.0000 C   0  0  0  0  0  0  0  0  0  0  0  0
   -1.8014    1.3926    0.0000 O   0  0  0  0  0  0  0  0  0  0  0  0
   -0.8218   -1.0137    0.0000 C   0  0  0  0  0  0  0  0  0  0  0  0
   -2.0960   -0.2222    0.0000 C   0  0  0  0  0  0  0  0  0  0  0  0
  2  1  1  6
  2  3  1  0
  3  4  1  0
  4  5  1  0
  5  6  2  0
  5  7  1  0
  2  8  1  0
  8  9  1  6
  9 10  1  0
 11 10  1  6
 11 12  1  0
 12 13  1  1
 13 14  1  0
 15 14  1  1
 15 16  1  0
 16 17  1  0
 17 18  1  0
 18 19  1  0
 19 20  1  0
 20 21  1  6
 20 22  1  0
 22 23  1  6
 23 24  1  0
 24 25  2  0
 24 26  1  0
 26 27  1  6
 26  8  1  0
 26 11  1  0
 22 12  1  0
 20 15  1  0
M  END
>  <MS_ID>  (1414) 
MS1474

>  <SMILES>  (1414) 
C[C@H](CCC(=O)O)[C@H]1CC[C@H]2[C@@H]3CC[C@@H]4CCCC[C@]4(C)[C@H]3CC(=O)[C@]12C

>  <Structure_dimension>  (1414) 
2D

$$$$
MS1475
     RDKit          2D

 32 36  0  0  0  0  0  0  0  0999 V2000
   -3.4960   -3.2106    0.0000 C   0  0  0  0  0  0  0  0  0  0  0  0
   -2.5154   -2.0755    0.0000 C   0  0  0  0  0  0  0  0  0  0  0  0
   -3.0082   -0.6588    0.0000 C   0  0  0  0  0  0  0  0  0  0  0  0
   -4.4815   -0.3771    0.0000 C   0  0  0  0  0  0  0  0  0  0  0  0
   -4.9742    1.0397    0.0000 C   0  0  0  0  0  0  0  0  0  0  0  0
   -3.9936    2.1748    0.0000 O   0  0  0  0  0  0  0  0  0  0  0  0
   -6.4475    1.3214    0.0000 C   0  0  0  0  0  0  0  0  0  0  0  0
   -7.5414    0.2950    0.0000 C   0  0  0  0  0  0  0  0  0  0  0  0
   -8.8556    1.0181    0.0000 C   0  0  0  0  0  0  0  0  0  0  0  0
   -8.5739    2.4915    0.0000 O   0  0  0  0  0  0  0  0  0  0  0  0
   -7.0856    2.6789    0.0000 C   0  0  0  0  0  0  0  0  0  0  0  0
   -1.0421   -2.3572    0.0000 C   0  0  0  0  0  0  0  0  0  0  0  0
   -0.4040   -3.7147    0.0000 C   0  0  0  0  0  0  0  0  0  0  0  0
    1.0842   -3.5273    0.0000 C   0  0  0  0  0  0  0  0  0  0  0  0
    1.3659   -2.0540    0.0000 C   0  0  0  0  0  0  0  0  0  0  0  0
    2.6493   -1.2775    0.0000 C   0  0  0  0  0  0  0  0  0  0  0  0
    3.9634   -2.0006    0.0000 C   0  0  0  0  0  0  0  0  0  0  0  0
    3.9942   -3.5003    0.0000 O   0  0  0  0  0  0  0  0  0  0  0  0
    5.2468   -1.2241    0.0000 C   0  0  0  0  0  0  0  0  0  0  0  0
    5.2160    0.2756    0.0000 C   0  0  0  0  0  0  0  0  0  0  0  0
    6.4994    1.0521    0.0000 C   0  0  0  0  0  0  0  0  0  0  0  0
    6.4685    2.5518    0.0000 C   0  0  0  0  0  0  0  0  0  0  0  0
    7.7519    3.3283    0.0000 O   0  0  0  0  0  0  0  0  0  0  0  0
    5.1544    3.2749    0.0000 C   0  0  0  0  0  0  0  0  0  0  0  0
    3.8710    2.4984    0.0000 C   0  0  0  0  0  0  0  0  0  0  0  0
    3.9018    0.9987    0.0000 C   0  0  0  0  0  0  0  0  0  0  0  0
    2.5877    1.7219    0.0000 C   0  0  0  0  0  0  0  0  0  0  0  0
    2.6185    0.2222    0.0000 C   0  0  0  0  0  0  0  0  0  0  0  0
    1.3043    0.9454    0.0000 C   0  0  0  0  0  0  0  0  0  0  0  0
    0.0209    0.1689    0.0000 C   0  0  0  0  0  0  0  0  0  0  0  0
    0.0517   -1.3308    0.0000 C   0  0  0  0  0  0  0  0  0  0  0  0
   -1.3308   -0.7490    0.0000 C   0  0  0  0  0  0  0  0  0  0  0  0
  2  1  1  6
  2  3  1  0
  3  4  1  0
  4  5  1  0
  5  6  2  0
  5  7  1  0
  7  8  1  0
  8  9  2  0
  9 10  1  0
 10 11  1  0
  2 12  1  0
 12 13  1  6
 13 14  1  0
 15 14  1  6
 15 16  1  0
 16 17  1  1
 17 18  1  1
 17 19  1  0
 20 19  1  1
 20 21  1  0
 21 22  1  0
 22 23  1  1
 22 24  1  0
 24 25  1  0
 25 26  1  0
 26 27  1  6
 26 28  1  0
 28 29  1  6
 29 30  1  0
 30 31  1  0
 31 32  1  6
 11  7  2  0
 31 12  1  0
 31 15  1  0
 28 16  1  0
 26 20  1  0
M  END
>  <MS_ID>  (1415) 
MS1475

>  <SMILES>  (1415) 
C[C@H](CCC(=O)c1ccoc1)[C@H]1CC[C@H]2[C@@H]3[C@H](O)C[C@@H]4C[C@H](O)CC[C@]4(C)[C@H]3CC[C@]12C

>  <Structure_dimension>  (1415) 
2D

$$$$
MS1476
     RDKit          2D

 34 37  0  0  0  0  0  0  0  0999 V2000
   -4.1322   -3.5243    0.0000 C   0  0  0  0  0  0  0  0  0  0  0  0
   -3.0947   -2.4410    0.0000 C   0  0  0  0  0  0  0  0  0  0  0  0
   -3.5142   -1.0009    0.0000 C   0  0  0  0  0  0  0  0  0  0  0  0
   -4.9711   -0.6440    0.0000 C   0  0  0  0  0  0  0  0  0  0  0  0
   -5.3906    0.7961    0.0000 C   0  0  0  0  0  0  0  0  0  0  0  0
   -4.3531    1.8795    0.0000 O   0  0  0  0  0  0  0  0  0  0  0  0
   -6.8475    1.1530    0.0000 N   0  0  0  0  0  0  0  0  0  0  0  0
   -7.2670    2.5931    0.0000 S   0  0  0  0  0  0  0  0  0  0  0  0
   -8.7071    2.1737    0.0000 O   0  0  0  0  0  0  0  0  0  0  0  0
   -5.8268    3.0126    0.0000 O   0  0  0  0  0  0  0  0  0  0  0  0
   -7.6864    4.0333    0.0000 O   0  0  0  0  0  0  0  0  0  0  0  0
   -1.6378   -2.7978    0.0000 C   0  0  0  0  0  0  0  0  0  0  0  0
   -1.0701   -4.1863    0.0000 C   0  0  0  0  0  0  0  0  0  0  0  0
    0.4258   -4.0754    0.0000 C   0  0  0  0  0  0  0  0  0  0  0  0
    0.7826   -2.6185    0.0000 C   0  0  0  0  0  0  0  0  0  0  0  0
    2.1041   -1.9088    0.0000 C   0  0  0  0  0  0  0  0  0  0  0  0
    3.3795   -2.6983    0.0000 C   0  0  0  0  0  0  0  0  0  0  0  0
    4.7010   -1.9886    0.0000 C   0  0  0  0  0  0  0  0  0  0  0  0
    4.7471   -0.4893    0.0000 C   0  0  0  0  0  0  0  0  0  0  0  0
    6.0686    0.2204    0.0000 C   0  0  0  0  0  0  0  0  0  0  0  0
    6.1147    1.7197    0.0000 C   0  0  0  0  0  0  0  0  0  0  0  0
    7.4361    2.4294    0.0000 C   0  0  0  0  0  0  0  0  0  0  0  0
    7.4823    3.9287    0.0000 O   0  0  0  0  0  0  0  0  0  0  0  0
    8.7115    1.6398    0.0000 O   0  0  0  0  0  0  0  0  0  0  0  0
    4.8393    2.5093    0.0000 C   0  0  0  0  0  0  0  0  0  0  0  0
    3.5178    1.7995    0.0000 C   0  0  0  0  0  0  0  0  0  0  0  0
    3.4717    0.3003    0.0000 C   0  0  0  0  0  0  0  0  0  0  0  0
    2.1963    1.0898    0.0000 C   0  0  0  0  0  0  0  0  0  0  0  0
    2.1502   -0.4095    0.0000 C   0  0  0  0  0  0  0  0  0  0  0  0
    0.8749    0.3801    0.0000 C   0  0  0  0  0  0  0  0  0  0  0  0
   -0.4466   -0.3296    0.0000 C   0  0  0  0  0  0  0  0  0  0  0  0
   -1.7220    0.4600    0.0000 O   0  0  0  0  0  0  0  0  0  0  0  0
   -0.4927   -1.8289    0.0000 C   0  0  0  0  0  0  0  0  0  0  0  0
   -1.8436   -1.1769    0.0000 C   0  0  0  0  0  0  0  0  0  0  0  0
  2  1  1  6
  2  3  1  0
  3  4  1  0
  4  5  1  0
  5  6  2  0
  5  7  1  0
  7  8  1  0
  8  9  2  0
  8 10  2  0
  8 11  1  0
  2 12  1  0
 12 13  1  6
 13 14  1  0
 15 14  1  6
 15 16  1  0
 16 17  1  1
 17 18  1  0
 19 18  1  1
 19 20  1  0
 20 21  1  0
 21 22  1  1
 22 23  2  0
 22 24  1  0
 21 25  1  0
 25 26  1  0
 26 27  1  0
 27 28  1  6
 27 29  1  0
 29 30  1  6
 30 31  1  0
 31 32  1  1
 31 33  1  0
 33 34  1  6
 33 12  1  0
 33 15  1  0
 29 16  1  0
 27 19  1  0
M  END
>  <MS_ID>  (1416) 
MS1476

>  <SMILES>  (1416) 
C[C@H](CCC(=O)NS(=O)(=O)O)[C@H]1CC[C@H]2[C@@H]3CC[C@@H]4C[C@H](C(=O)O)CC[C@]4(C)[C@H]3C[C@H](O)[C@]12C

>  <Structure_dimension>  (1416) 
2D

$$$$
MS1477
     RDKit          2D

 30 33  0  0  0  0  0  0  0  0999 V2000
   -4.3971   -2.8191    0.0000 C   0  0  0  0  0  0  0  0  0  0  0  0
   -3.3334   -1.7615    0.0000 C   0  0  0  0  0  0  0  0  0  0  0  0
   -3.7176   -0.3115    0.0000 C   0  0  0  0  0  0  0  0  0  0  0  0
   -5.1653    0.0808    0.0000 C   0  0  0  0  0  0  0  0  0  0  0  0
   -5.5495    1.5308    0.0000 C   0  0  0  0  0  0  0  0  0  0  0  0
   -4.4858    2.5885    0.0000 O   0  0  0  0  0  0  0  0  0  0  0  0
   -6.9972    1.9232    0.0000 N   0  0  0  0  0  0  0  0  0  0  0  0
   -7.3814    3.3731    0.0000 C   0  0  0  0  0  0  0  0  0  0  0  0
   -8.0609    0.8655    0.0000 C   0  0  0  0  0  0  0  0  0  0  0  0
   -1.8857   -2.1538    0.0000 C   0  0  0  0  0  0  0  0  0  0  0  0
   -1.3521   -3.5557    0.0000 C   0  0  0  0  0  0  0  0  0  0  0  0
    0.1461   -3.4815    0.0000 C   0  0  0  0  0  0  0  0  0  0  0  0
    0.5384   -2.0337    0.0000 C   0  0  0  0  0  0  0  0  0  0  0  0
    1.8768   -1.3565    0.0000 C   0  0  0  0  0  0  0  0  0  0  0  0
    3.1325   -2.1770    0.0000 C   0  0  0  0  0  0  0  0  0  0  0  0
    4.4710   -1.4998    0.0000 C   0  0  0  0  0  0  0  0  0  0  0  0
    5.7267   -2.3204    0.0000 O   0  0  0  0  0  0  0  0  0  0  0  0
    4.5537   -0.0021    0.0000 C   0  0  0  0  0  0  0  0  0  0  0  0
    5.8922    0.6751    0.0000 C   0  0  0  0  0  0  0  0  0  0  0  0
    5.9749    2.1728    0.0000 C   0  0  0  0  0  0  0  0  0  0  0  0
    7.3134    2.8500    0.0000 O   0  0  0  0  0  0  0  0  0  0  0  0
    4.7192    2.9933    0.0000 C   0  0  0  0  0  0  0  0  0  0  0  0
    3.3808    2.3161    0.0000 C   0  0  0  0  0  0  0  0  0  0  0  0
    3.2980    0.8184    0.0000 C   0  0  0  0  0  0  0  0  0  0  0  0
    2.0424    1.6389    0.0000 C   0  0  0  0  0  0  0  0  0  0  0  0
    1.9596    0.1412    0.0000 C   0  0  0  0  0  0  0  0  0  0  0  0
    0.7039    0.9617    0.0000 C   0  0  0  0  0  0  0  0  0  0  0  0
   -0.6345    0.2846    0.0000 C   0  0  0  0  0  0  0  0  0  0  0  0
   -0.7173   -1.2132    0.0000 C   0  0  0  0  0  0  0  0  0  0  0  0
   -2.0518   -0.5284    0.0000 C   0  0  0  0  0  0  0  0  0  0  0  0
  2  1  1  6
  2  3  1  0
  3  4  1  0
  4  5  1  0
  5  6  2  0
  5  7  1  0
  7  8  1  0
  7  9  1  0
  2 10  1  0
 10 11  1  6
 11 12  1  0
 13 12  1  6
 13 14  1  0
 14 15  1  1
 15 16  1  0
 16 17  1  1
 16 18  1  0
 18 19  1  1
 19 20  1  0
 20 21  1  1
 20 22  1  0
 22 23  1  0
 23 24  1  0
 24 25  1  6
 24 26  1  0
 26 27  1  6
 27 28  1  0
 28 29  1  0
 29 30  1  6
 29 10  1  0
 29 13  1  0
 26 14  1  0
 24 18  1  0
M  END
>  <MS_ID>  (1417) 
MS1477

>  <SMILES>  (1417) 
C[C@H](CCC(=O)N(C)C)[C@H]1CC[C@H]2[C@@H]3C[C@H](O)[C@@H]4C[C@H](O)CC[C@]4(C)[C@H]3CC[C@]12C

>  <Structure_dimension>  (1417) 
2D

$$$$
MS1478
     RDKit          2D

 33 37  0  0  0  0  0  0  0  0999 V2000
   -3.4505   -3.2444    0.0000 C   0  0  0  0  0  0  0  0  0  0  0  0
   -2.4721   -2.1074    0.0000 C   0  0  0  0  0  0  0  0  0  0  0  0
   -2.9676   -0.6916    0.0000 C   0  0  0  0  0  0  0  0  0  0  0  0
   -4.4415   -0.4128    0.0000 C   0  0  0  0  0  0  0  0  0  0  0  0
   -4.9370    1.0030    0.0000 C   0  0  0  0  0  0  0  0  0  0  0  0
   -3.9586    2.1400    0.0000 O   0  0  0  0  0  0  0  0  0  0  0  0
   -6.4109    1.2817    0.0000 C   0  0  0  0  0  0  0  0  0  0  0  0
   -7.5027    0.2532    0.0000 C   0  0  0  0  0  0  0  0  0  0  0  0
   -8.8183    0.9738    0.0000 C   0  0  0  0  0  0  0  0  0  0  0  0
   -8.5395    2.4477    0.0000 C   0  0  0  0  0  0  0  0  0  0  0  0
   -7.0517    2.6380    0.0000 O   0  0  0  0  0  0  0  0  0  0  0  0
   -0.9983   -2.3862    0.0000 C   0  0  0  0  0  0  0  0  0  0  0  0
   -0.3575   -3.7424    0.0000 C   0  0  0  0  0  0  0  0  0  0  0  0
    1.1304   -3.5521    0.0000 C   0  0  0  0  0  0  0  0  0  0  0  0
    1.4092   -2.0783    0.0000 C   0  0  0  0  0  0  0  0  0  0  0  0
    2.6910   -1.2992    0.0000 C   0  0  0  0  0  0  0  0  0  0  0  0
    4.0066   -2.0198    0.0000 C   0  0  0  0  0  0  0  0  0  0  0  0
    4.0403   -3.5194    0.0000 O   0  0  0  0  0  0  0  0  0  0  0  0
    5.2884   -1.2408    0.0000 C   0  0  0  0  0  0  0  0  0  0  0  0
    5.2547    0.2589    0.0000 C   0  0  0  0  0  0  0  0  0  0  0  0
    6.5365    1.0379    0.0000 C   0  0  0  0  0  0  0  0  0  0  0  0
    6.5028    2.5375    0.0000 C   0  0  0  0  0  0  0  0  0  0  0  0
    7.7846    3.3166    0.0000 O   0  0  0  0  0  0  0  0  0  0  0  0
    5.1872    3.2581    0.0000 C   0  0  0  0  0  0  0  0  0  0  0  0
    3.9054    2.4791    0.0000 C   0  0  0  0  0  0  0  0  0  0  0  0
    3.9391    0.9794    0.0000 C   0  0  0  0  0  0  0  0  0  0  0  0
    2.6235    1.7000    0.0000 C   0  0  0  0  0  0  0  0  0  0  0  0
    2.6573    0.2004    0.0000 C   0  0  0  0  0  0  0  0  0  0  0  0
    1.3417    0.9210    0.0000 C   0  0  0  0  0  0  0  0  0  0  0  0
    0.0598    0.1420    0.0000 C   0  0  0  0  0  0  0  0  0  0  0  0
   -1.2557    0.8625    0.0000 O   0  0  0  0  0  0  0  0  0  0  0  0
    0.0936   -1.3577    0.0000 C   0  0  0  0  0  0  0  0  0  0  0  0
   -1.2901   -0.7785    0.0000 C   0  0  0  0  0  0  0  0  0  0  0  0
  2  1  1  6
  2  3  1  0
  3  4  1  0
  4  5  1  0
  5  6  2  0
  5  7  1  0
  7  8  2  0
  8  9  1  0
  9 10  2  0
 10 11  1  0
  2 12  1  0
 12 13  1  6
 13 14  1  0
 15 14  1  6
 15 16  1  0
 16 17  1  1
 17 18  1  1
 17 19  1  0
 20 19  1  1
 20 21  1  0
 21 22  1  0
 22 23  1  1
 22 24  1  0
 24 25  1  0
 25 26  1  0
 26 27  1  6
 26 28  1  0
 28 29  1  6
 29 30  1  0
 30 31  1  1
 30 32  1  0
 32 33  1  6
 11  7  1  0
 32 12  1  0
 32 15  1  0
 28 16  1  0
 26 20  1  0
M  END
>  <MS_ID>  (1418) 
MS1478

>  <SMILES>  (1418) 
C[C@H](CCC(=O)c1ccco1)[C@H]1CC[C@H]2[C@@H]3[C@H](O)C[C@@H]4C[C@H](O)CC[C@]4(C)[C@H]3C[C@H](O)[C@]12C

>  <Structure_dimension>  (1418) 
2D

$$$$
MS1479
     RDKit          2D

 30 33  0  0  0  0  0  0  0  0999 V2000
   -4.3209   -2.7536    0.0000 C   0  0  0  0  0  0  0  0  0  0  0  0
   -3.2523   -1.7010    0.0000 C   0  0  0  0  0  0  0  0  0  0  0  0
   -3.6295   -0.2492    0.0000 C   0  0  0  0  0  0  0  0  0  0  0  0
   -5.0755    0.1499    0.0000 C   0  0  0  0  0  0  0  0  0  0  0  0
   -5.4527    1.6017    0.0000 C   0  0  0  0  0  0  0  0  0  0  0  0
   -4.3841    2.6543    0.0000 O   0  0  0  0  0  0  0  0  0  0  0  0
   -6.8987    2.0009    0.0000 C   0  0  0  0  0  0  0  0  0  0  0  0
   -7.2759    3.4526    0.0000 Cl  0  0  0  0  0  0  0  0  0  0  0  0
   -7.9673    0.9482    0.0000 Cl  0  0  0  0  0  0  0  0  0  0  0  0
   -1.8064   -2.1002    0.0000 C   0  0  0  0  0  0  0  0  0  0  0  0
   -1.2794   -3.5046    0.0000 C   0  0  0  0  0  0  0  0  0  0  0  0
    0.2191   -3.4374    0.0000 C   0  0  0  0  0  0  0  0  0  0  0  0
    0.6183   -1.9915    0.0000 C   0  0  0  0  0  0  0  0  0  0  0  0
    1.9599   -1.3206    0.0000 C   0  0  0  0  0  0  0  0  0  0  0  0
    3.2117   -2.1470    0.0000 C   0  0  0  0  0  0  0  0  0  0  0  0
    3.1219   -3.6443    0.0000 O   0  0  0  0  0  0  0  0  0  0  0  0
    4.5533   -1.4762    0.0000 C   0  0  0  0  0  0  0  0  0  0  0  0
    4.6431    0.0211    0.0000 C   0  0  0  0  0  0  0  0  0  0  0  0
    5.9847    0.6920    0.0000 C   0  0  0  0  0  0  0  0  0  0  0  0
    6.0745    2.1893    0.0000 C   0  0  0  0  0  0  0  0  0  0  0  0
    7.4161    2.8602    0.0000 O   0  0  0  0  0  0  0  0  0  0  0  0
    4.8227    3.0158    0.0000 C   0  0  0  0  0  0  0  0  0  0  0  0
    3.4811    2.3449    0.0000 C   0  0  0  0  0  0  0  0  0  0  0  0
    3.3913    0.8476    0.0000 C   0  0  0  0  0  0  0  0  0  0  0  0
    2.1395    1.6740    0.0000 C   0  0  0  0  0  0  0  0  0  0  0  0
    2.0497    0.1767    0.0000 C   0  0  0  0  0  0  0  0  0  0  0  0
    0.7979    1.0031    0.0000 C   0  0  0  0  0  0  0  0  0  0  0  0
   -0.5437    0.3323    0.0000 C   0  0  0  0  0  0  0  0  0  0  0  0
   -0.6335   -1.1650    0.0000 C   0  0  0  0  0  0  0  0  0  0  0  0
   -1.9649   -0.4740    0.0000 C   0  0  0  0  0  0  0  0  0  0  0  0
  2  1  1  6
  2  3  1  0
  3  4  1  0
  4  5  1  0
  5  6  2  0
  5  7  1  0
  7  8  1  0
  7  9  1  0
  2 10  1  0
 10 11  1  6
 11 12  1  0
 13 12  1  6
 13 14  1  0
 14 15  1  1
 15 16  1  1
 15 17  1  0
 18 17  1  1
 18 19  1  0
 19 20  1  0
 20 21  1  1
 20 22  1  0
 22 23  1  0
 23 24  1  0
 24 25  1  6
 24 26  1  0
 26 27  1  6
 27 28  1  0
 28 29  1  0
 29 30  1  6
 29 10  1  0
 29 13  1  0
 26 14  1  0
 24 18  1  0
M  END
>  <MS_ID>  (1419) 
MS1479

>  <SMILES>  (1419) 
C[C@H](CCC(=O)C(Cl)Cl)[C@H]1CC[C@H]2[C@@H]3[C@H](O)C[C@@H]4C[C@H](O)CC[C@]4(C)[C@H]3CC[C@]12C

>  <Structure_dimension>  (1419) 
2D

$$$$
MS1480
     RDKit          2D

 34 37  0  0  0  0  0  0  0  0999 V2000
   -2.7692   -3.9261    0.0000 C   0  0  0  0  0  0  0  0  0  0  0  0
   -1.9736   -2.6545    0.0000 C   0  0  0  0  0  0  0  0  0  0  0  0
   -2.6771   -1.3297    0.0000 C   0  0  0  0  0  0  0  0  0  0  0  0
   -4.1761   -1.2765    0.0000 C   0  0  0  0  0  0  0  0  0  0  0  0
   -4.8796    0.0483    0.0000 C   0  0  0  0  0  0  0  0  0  0  0  0
   -4.0841    1.3199    0.0000 O   0  0  0  0  0  0  0  0  0  0  0  0
   -6.3787    0.1014    0.0000 C   0  0  0  0  0  0  0  0  0  0  0  0
   -7.0822    1.4263    0.0000 O   0  0  0  0  0  0  0  0  0  0  0  0
   -8.5812    1.4794    0.0000 C   0  0  0  0  0  0  0  0  0  0  0  0
   -9.3768    0.2078    0.0000 O   0  0  0  0  0  0  0  0  0  0  0  0
   -9.2847    2.8042    0.0000 C   0  0  0  0  0  0  0  0  0  0  0  0
  -10.7838    2.8574    0.0000 O   0  0  0  0  0  0  0  0  0  0  0  0
   -0.4745   -2.7076    0.0000 C   0  0  0  0  0  0  0  0  0  0  0  0
    0.3636   -3.9516    0.0000 C   0  0  0  0  0  0  0  0  0  0  0  0
    1.8057   -3.5390    0.0000 C   0  0  0  0  0  0  0  0  0  0  0  0
    1.8589   -2.0399    0.0000 C   0  0  0  0  0  0  0  0  0  0  0  0
    3.0084   -1.0763    0.0000 C   0  0  0  0  0  0  0  0  0  0  0  0
    4.4177   -1.5901    0.0000 C   0  0  0  0  0  0  0  0  0  0  0  0
    4.6774   -3.0675    0.0000 O   0  0  0  0  0  0  0  0  0  0  0  0
    5.5673   -0.6266    0.0000 C   0  0  0  0  0  0  0  0  0  0  0  0
    6.9766   -1.1404    0.0000 O   0  0  0  0  0  0  0  0  0  0  0  0
    5.3076    0.8508    0.0000 C   0  0  0  0  0  0  0  0  0  0  0  0
    6.4572    1.8144    0.0000 C   0  0  0  0  0  0  0  0  0  0  0  0
    6.1975    3.2917    0.0000 C   0  0  0  0  0  0  0  0  0  0  0  0
    7.3471    4.2553    0.0000 O   0  0  0  0  0  0  0  0  0  0  0  0
    4.7883    3.8055    0.0000 C   0  0  0  0  0  0  0  0  0  0  0  0
    3.6387    2.8419    0.0000 C   0  0  0  0  0  0  0  0  0  0  0  0
    3.8984    1.3646    0.0000 C   0  0  0  0  0  0  0  0  0  0  0  0
    2.4891    1.8784    0.0000 C   0  0  0  0  0  0  0  0  0  0  0  0
    2.7488    0.4010    0.0000 C   0  0  0  0  0  0  0  0  0  0  0  0
    1.3395    0.9148    0.0000 C   0  0  0  0  0  0  0  0  0  0  0  0
    0.1899   -0.0488    0.0000 C   0  0  0  0  0  0  0  0  0  0  0  0
    0.4496   -1.5261    0.0000 C   0  0  0  0  0  0  0  0  0  0  0  0
   -1.0056   -1.1624    0.0000 C   0  0  0  0  0  0  0  0  0  0  0  0
  2  1  1  6
  2  3  1  0
  3  4  1  0
  4  5  1  0
  5  6  2  0
  5  7  1  0
  7  8  1  0
  8  9  1  0
  9 10  2  0
  9 11  1  0
 11 12  1  0
  2 13  1  0
 13 14  1  6
 14 15  1  0
 16 15  1  6
 16 17  1  0
 17 18  1  1
 18 19  1  1
 18 20  1  0
 20 21  1  1
 20 22  1  0
 22 23  1  1
 23 24  1  0
 24 25  1  1
 24 26  1  0
 26 27  1  0
 27 28  1  0
 28 29  1  6
 28 30  1  0
 30 31  1  6
 31 32  1  0
 32 33  1  0
 33 34  1  6
 33 13  1  0
 33 16  1  0
 30 17  1  0
 28 22  1  0
M  END
>  <MS_ID>  (1420) 
MS1480

>  <SMILES>  (1420) 
C[C@H](CCC(=O)COC(=O)CO)[C@H]1CC[C@H]2[C@@H]3[C@H](O)[C@H](O)[C@@H]4C[C@H](O)CC[C@]4(C)[C@H]3CC[C@]12C

>  <Structure_dimension>  (1420) 
2D

$$$$
MS1481
     RDKit          2D

 30 33  0  0  0  0  0  0  0  0999 V2000
   -8.6575    3.2831    0.0000 C   0  0  0  0  0  0  0  0  0  0  0  0
   -7.1981    2.9366    0.0000 C   0  0  0  0  0  0  0  0  0  0  0  0
   -6.7684    1.4995    0.0000 O   0  0  0  0  0  0  0  0  0  0  0  0
   -5.3090    1.1530    0.0000 C   0  0  0  0  0  0  0  0  0  0  0  0
   -4.2792    2.2437    0.0000 O   0  0  0  0  0  0  0  0  0  0  0  0
   -4.8793   -0.2841    0.0000 C   0  0  0  0  0  0  0  0  0  0  0  0
   -3.4199   -0.6306    0.0000 C   0  0  0  0  0  0  0  0  0  0  0  0
   -2.9902   -2.0677    0.0000 C   0  0  0  0  0  0  0  0  0  0  0  0
   -4.0199   -3.1584    0.0000 C   0  0  0  0  0  0  0  0  0  0  0  0
   -1.5307   -2.4142    0.0000 C   0  0  0  0  0  0  0  0  0  0  0  0
   -0.9532   -3.7985    0.0000 C   0  0  0  0  0  0  0  0  0  0  0  0
    0.5419   -3.6770    0.0000 C   0  0  0  0  0  0  0  0  0  0  0  0
    0.8883   -2.2176    0.0000 C   0  0  0  0  0  0  0  0  0  0  0  0
    2.2047   -1.4985    0.0000 C   0  0  0  0  0  0  0  0  0  0  0  0
    3.4857   -2.2790    0.0000 C   0  0  0  0  0  0  0  0  0  0  0  0
    4.8021   -1.5599    0.0000 C   0  0  0  0  0  0  0  0  0  0  0  0
    4.8375   -0.0603    0.0000 C   0  0  0  0  0  0  0  0  0  0  0  0
    6.1539    0.6588    0.0000 C   0  0  0  0  0  0  0  0  0  0  0  0
    6.1894    2.1583    0.0000 C   0  0  0  0  0  0  0  0  0  0  0  0
    7.5058    2.8774    0.0000 O   0  0  0  0  0  0  0  0  0  0  0  0
    4.9084    2.9388    0.0000 C   0  0  0  0  0  0  0  0  0  0  0  0
    3.5920    2.2197    0.0000 C   0  0  0  0  0  0  0  0  0  0  0  0
    3.5566    0.7202    0.0000 C   0  0  0  0  0  0  0  0  0  0  0  0
    2.2756    1.5007    0.0000 C   0  0  0  0  0  0  0  0  0  0  0  0
    2.2402    0.0011    0.0000 C   0  0  0  0  0  0  0  0  0  0  0  0
    0.9592    0.7816    0.0000 C   0  0  0  0  0  0  0  0  0  0  0  0
   -0.3572    0.0625    0.0000 C   0  0  0  0  0  0  0  0  0  0  0  0
   -1.6381    0.8430    0.0000 O   0  0  0  0  0  0  0  0  0  0  0  0
   -0.3926   -1.4371    0.0000 C   0  0  0  0  0  0  0  0  0  0  0  0
   -1.7481   -0.7948    0.0000 C   0  0  0  0  0  0  0  0  0  0  0  0
  1  2  1  0
  2  3  1  0
  3  4  1  0
  4  5  2  0
  4  6  1  0
  6  7  1  0
  7  8  1  0
  8  9  1  6
  8 10  1  0
 10 11  1  6
 11 12  1  0
 13 12  1  6
 13 14  1  0
 14 15  1  1
 15 16  1  0
 17 16  1  1
 17 18  1  0
 18 19  1  0
 19 20  1  1
 19 21  1  0
 21 22  1  0
 22 23  1  0
 23 24  1  6
 23 25  1  0
 25 26  1  6
 26 27  1  0
 27 28  1  1
 27 29  1  0
 29 30  1  6
 29 10  1  0
 29 13  1  0
 25 14  1  0
 23 17  1  0
M  END
>  <MS_ID>  (1421) 
MS1481

>  <SMILES>  (1421) 
CCOC(=O)CC[C@@H](C)[C@H]1CC[C@H]2[C@@H]3CC[C@@H]4C[C@H](O)CC[C@]4(C)[C@H]3C[C@H](O)[C@]12C

>  <Structure_dimension>  (1421) 
2D

$$$$
MS1482
     RDKit          2D

 30 33  0  0  0  0  0  0  0  0999 V2000
   -4.0199   -3.1584    0.0000 C   0  0  0  0  0  0  0  0  0  0  0  0
   -2.9902   -2.0677    0.0000 C   0  0  0  0  0  0  0  0  0  0  0  0
   -3.4199   -0.6306    0.0000 C   0  0  0  0  0  0  0  0  0  0  0  0
   -4.8793   -0.2841    0.0000 C   0  0  0  0  0  0  0  0  0  0  0  0
   -5.3090    1.1530    0.0000 C   0  0  0  0  0  0  0  0  0  0  0  0
   -4.2792    2.2437    0.0000 O   0  0  0  0  0  0  0  0  0  0  0  0
   -6.7684    1.4995    0.0000 C   0  0  0  0  0  0  0  0  0  0  0  0
   -7.1981    2.9366    0.0000 C   0  0  0  0  0  0  0  0  0  0  0  0
   -8.6575    3.2831    0.0000 N   0  0  0  0  0  0  0  0  0  0  0  0
   -1.5307   -2.4142    0.0000 C   0  0  0  0  0  0  0  0  0  0  0  0
   -0.9532   -3.7985    0.0000 C   0  0  0  0  0  0  0  0  0  0  0  0
    0.5419   -3.6770    0.0000 C   0  0  0  0  0  0  0  0  0  0  0  0
    0.8883   -2.2176    0.0000 C   0  0  0  0  0  0  0  0  0  0  0  0
    2.2047   -1.4985    0.0000 C   0  0  0  0  0  0  0  0  0  0  0  0
    3.4857   -2.2790    0.0000 C   0  0  0  0  0  0  0  0  0  0  0  0
    4.8021   -1.5599    0.0000 C   0  0  0  0  0  0  0  0  0  0  0  0
    4.8375   -0.0603    0.0000 C   0  0  0  0  0  0  0  0  0  0  0  0
    6.1539    0.6588    0.0000 C   0  0  0  0  0  0  0  0  0  0  0  0
    6.1894    2.1583    0.0000 C   0  0  0  0  0  0  0  0  0  0  0  0
    7.5058    2.8774    0.0000 O   0  0  0  0  0  0  0  0  0  0  0  0
    4.9084    2.9388    0.0000 C   0  0  0  0  0  0  0  0  0  0  0  0
    3.5920    2.2197    0.0000 C   0  0  0  0  0  0  0  0  0  0  0  0
    3.5566    0.7202    0.0000 C   0  0  0  0  0  0  0  0  0  0  0  0
    2.2756    1.5007    0.0000 C   0  0  0  0  0  0  0  0  0  0  0  0
    2.2402    0.0011    0.0000 C   0  0  0  0  0  0  0  0  0  0  0  0
    0.9592    0.7816    0.0000 C   0  0  0  0  0  0  0  0  0  0  0  0
   -0.3572    0.0625    0.0000 C   0  0  0  0  0  0  0  0  0  0  0  0
   -1.6381    0.8430    0.0000 O   0  0  0  0  0  0  0  0  0  0  0  0
   -0.3926   -1.4371    0.0000 C   0  0  0  0  0  0  0  0  0  0  0  0
   -1.7481   -0.7948    0.0000 C   0  0  0  0  0  0  0  0  0  0  0  0
  2  1  1  6
  2  3  1  0
  3  4  1  0
  4  5  1  0
  5  6  2  0
  5  7  1  0
  7  8  1  0
  8  9  1  0
  2 10  1  0
 10 11  1  6
 11 12  1  0
 13 12  1  6
 13 14  1  0
 14 15  1  1
 15 16  1  0
 17 16  1  1
 17 18  1  0
 18 19  1  0
 19 20  1  1
 19 21  1  0
 21 22  1  0
 22 23  1  0
 23 24  1  6
 23 25  1  0
 25 26  1  6
 26 27  1  0
 27 28  1  1
 27 29  1  0
 29 30  1  6
 29 10  1  0
 29 13  1  0
 25 14  1  0
 23 17  1  0
M  END
>  <MS_ID>  (1422) 
MS1482

>  <SMILES>  (1422) 
C[C@H](CCC(=O)CCN)[C@H]1CC[C@H]2[C@@H]3CC[C@@H]4C[C@H](O)CC[C@]4(C)[C@H]3C[C@H](O)[C@]12C

>  <Structure_dimension>  (1422) 
2D

$$$$
MS1483
     RDKit          2D

 30 33  0  0  0  0  0  0  0  0999 V2000
   -5.8393   -1.8075    0.0000 C   0  0  0  0  0  0  0  0  0  0  0  0
   -4.6087   -0.9498    0.0000 C   0  0  0  0  0  0  0  0  0  0  0  0
   -4.7361    0.5448    0.0000 C   0  0  0  0  0  0  0  0  0  0  0  0
   -6.0942    1.1817    0.0000 C   0  0  0  0  0  0  0  0  0  0  0  0
   -6.2216    2.6763    0.0000 C   0  0  0  0  0  0  0  0  0  0  0  0
   -4.9910    3.5339    0.0000 O   0  0  0  0  0  0  0  0  0  0  0  0
   -7.5797    3.3132    0.0000 O   0  0  0  0  0  0  0  0  0  0  0  0
   -3.2506   -1.5867    0.0000 C   0  0  0  0  0  0  0  0  0  0  0  0
   -2.9677   -3.0598    0.0000 C   0  0  0  0  0  0  0  0  0  0  0  0
   -1.4793   -3.2459    0.0000 C   0  0  0  0  0  0  0  0  0  0  0  0
   -0.8423   -1.8878    0.0000 C   0  0  0  0  0  0  0  0  0  0  0  0
    0.5931   -1.4525    0.0000 C   0  0  0  0  0  0  0  0  0  0  0  0
    1.6878   -2.4779    0.0000 C   0  0  0  0  0  0  0  0  0  0  0  0
    1.3472   -3.9387    0.0000 O   0  0  0  0  0  0  0  0  0  0  0  0
    3.1233   -2.0425    0.0000 C   0  0  0  0  0  0  0  0  0  0  0  0
    3.4639   -0.5817    0.0000 C   0  0  0  0  0  0  0  0  0  0  0  0
    4.8993   -0.1463    0.0000 C   0  0  0  0  0  0  0  0  0  0  0  0
    5.2400    1.3145    0.0000 C   0  0  0  0  0  0  0  0  0  0  0  0
    6.6754    1.7499    0.0000 O   0  0  0  0  0  0  0  0  0  0  0  0
    7.7702    0.7245    0.0000 C   0  0  0  0  0  0  0  0  0  0  0  0
    9.2056    1.1599    0.0000 O   0  0  0  0  0  0  0  0  0  0  0  0
    4.1452    2.3399    0.0000 C   0  0  0  0  0  0  0  0  0  0  0  0
    2.7098    1.9045    0.0000 C   0  0  0  0  0  0  0  0  0  0  0  0
    2.3692    0.4437    0.0000 C   0  0  0  0  0  0  0  0  0  0  0  0
    1.2744    1.4692    0.0000 C   0  0  0  0  0  0  0  0  0  0  0  0
    0.9337    0.0084    0.0000 C   0  0  0  0  0  0  0  0  0  0  0  0
   -0.1610    1.0338    0.0000 C   0  0  0  0  0  0  0  0  0  0  0  0
   -1.5965    0.5984    0.0000 C   0  0  0  0  0  0  0  0  0  0  0  0
   -1.9371   -0.8624    0.0000 C   0  0  0  0  0  0  0  0  0  0  0  0
   -3.1331    0.0429    0.0000 C   0  0  0  0  0  0  0  0  0  0  0  0
  2  1  1  6
  2  3  1  0
  3  4  1  0
  4  5  1  0
  5  6  2  0
  5  7  1  0
  2  8  1  0
  8  9  1  6
  9 10  1  0
 11 10  1  6
 11 12  1  0
 12 13  1  1
 13 14  1  1
 13 15  1  0
 16 15  1  1
 16 17  1  0
 17 18  1  0
 18 19  1  1
 19 20  1  0
 20 21  1  0
 18 22  1  0
 22 23  1  0
 23 24  1  0
 24 25  1  6
 24 26  1  0
 26 27  1  6
 27 28  1  0
 28 29  1  0
 29 30  1  6
 29  8  1  0
 29 11  1  0
 26 12  1  0
 24 16  1  0
M  END
>  <MS_ID>  (1423) 
MS1483

>  <SMILES>  (1423) 
C[C@H](CCC(=O)O)[C@H]1CC[C@H]2[C@@H]3[C@H](O)C[C@@H]4C[C@H](OCO)CC[C@]4(C)[C@H]3CC[C@]12C

>  <Structure_dimension>  (1423) 
2D

$$$$
MS1484
     RDKit          2D

 32 35  0  0  0  0  0  0  0  0999 V2000
   -3.6519   -3.4889    0.0000 C   0  0  0  0  0  0  0  0  0  0  0  0
   -2.7185   -2.3147    0.0000 C   0  0  0  0  0  0  0  0  0  0  0  0
   -3.2687   -0.9192    0.0000 C   0  0  0  0  0  0  0  0  0  0  0  0
   -4.7523   -0.6980    0.0000 C   0  0  0  0  0  0  0  0  0  0  0  0
   -5.3024    0.6975    0.0000 C   0  0  0  0  0  0  0  0  0  0  0  0
   -4.3690    1.8717    0.0000 O   0  0  0  0  0  0  0  0  0  0  0  0
   -6.7860    0.9188    0.0000 C   0  0  0  0  0  0  0  0  0  0  0  0
   -7.3362    2.3142    0.0000 C   0  0  0  0  0  0  0  0  0  0  0  0
   -6.4028    3.4884    0.0000 O   0  0  0  0  0  0  0  0  0  0  0  0
   -8.8198    2.5355    0.0000 O   0  0  0  0  0  0  0  0  0  0  0  0
   -1.2349   -2.5360    0.0000 C   0  0  0  0  0  0  0  0  0  0  0  0
   -0.5419   -3.8663    0.0000 C   0  0  0  0  0  0  0  0  0  0  0  0
    0.9375   -3.6183    0.0000 C   0  0  0  0  0  0  0  0  0  0  0  0
    1.1587   -2.1347    0.0000 C   0  0  0  0  0  0  0  0  0  0  0  0
    2.4093   -1.3064    0.0000 C   0  0  0  0  0  0  0  0  0  0  0  0
    3.7519   -1.9753    0.0000 C   0  0  0  0  0  0  0  0  0  0  0  0
    3.8439   -3.4725    0.0000 O   0  0  0  0  0  0  0  0  0  0  0  0
    5.0025   -1.1470    0.0000 C   0  0  0  0  0  0  0  0  0  0  0  0
    4.9105    0.3502    0.0000 C   0  0  0  0  0  0  0  0  0  0  0  0
    6.1611    1.1784    0.0000 C   0  0  0  0  0  0  0  0  0  0  0  0
    6.0690    2.6756    0.0000 C   0  0  0  0  0  0  0  0  0  0  0  0
    7.3196    3.5039    0.0000 O   0  0  0  0  0  0  0  0  0  0  0  0
    4.7264    3.3445    0.0000 C   0  0  0  0  0  0  0  0  0  0  0  0
    3.4759    2.5162    0.0000 C   0  0  0  0  0  0  0  0  0  0  0  0
    3.5679    1.0191    0.0000 C   0  0  0  0  0  0  0  0  0  0  0  0
    2.2253    1.6879    0.0000 C   0  0  0  0  0  0  0  0  0  0  0  0
    2.3173    0.1908    0.0000 C   0  0  0  0  0  0  0  0  0  0  0  0
    0.9747    0.8597    0.0000 C   0  0  0  0  0  0  0  0  0  0  0  0
   -0.2759    0.0314    0.0000 C   0  0  0  0  0  0  0  0  0  0  0  0
   -1.6185    0.7003    0.0000 O   0  0  0  0  0  0  0  0  0  0  0  0
   -0.1839   -1.4658    0.0000 C   0  0  0  0  0  0  0  0  0  0  0  0
   -1.5890   -0.9409    0.0000 C   0  0  0  0  0  0  0  0  0  0  0  0
  2  1  1  6
  2  3  1  0
  3  4  1  0
  4  5  1  0
  5  6  2  0
  5  7  1  0
  7  8  1  0
  8  9  2  0
  8 10  1  0
  2 11  1  0
 11 12  1  6
 12 13  1  0
 14 13  1  6
 14 15  1  0
 15 16  1  1
 16 17  1  1
 16 18  1  0
 19 18  1  1
 19 20  1  0
 20 21  1  0
 21 22  2  0
 21 23  1  0
 23 24  1  0
 24 25  1  0
 25 26  1  6
 25 27  1  0
 27 28  1  6
 28 29  1  0
 29 30  2  0
 29 31  1  0
 31 32  1  6
 31 11  1  0
 31 14  1  0
 27 15  1  0
 25 19  1  0
M  END
>  <MS_ID>  (1424) 
MS1484

>  <SMILES>  (1424) 
C[C@H](CCC(=O)CC(=O)O)[C@H]1CC[C@H]2[C@@H]3[C@H](O)C[C@@H]4CC(=O)CC[C@]4(C)[C@H]3CC(=O)[C@]12C

>  <Structure_dimension>  (1424) 
2D

$$$$
MS1485
     RDKit          2D

 29 32  0  0  0  0  0  0  0  0999 V2000
   -4.1361   -2.8778    0.0000 C   0  0  0  0  0  0  0  0  0  0  0  0
   -3.1227   -1.7719    0.0000 C   0  0  0  0  0  0  0  0  0  0  0  0
   -3.5738   -0.3413    0.0000 C   0  0  0  0  0  0  0  0  0  0  0  0
   -5.0383   -0.0167    0.0000 C   0  0  0  0  0  0  0  0  0  0  0  0
   -5.4894    1.4138    0.0000 C   0  0  0  0  0  0  0  0  0  0  0  0
   -4.4761    2.5198    0.0000 O   0  0  0  0  0  0  0  0  0  0  0  0
   -6.9539    1.7384    0.0000 N   0  0  0  0  0  0  0  0  0  0  0  0
   -7.4050    3.1690    0.0000 O   0  0  0  0  0  0  0  0  0  0  0  0
   -1.6583   -2.0965    0.0000 C   0  0  0  0  0  0  0  0  0  0  0  0
   -1.0601   -3.4720    0.0000 C   0  0  0  0  0  0  0  0  0  0  0  0
    0.4330   -3.3282    0.0000 C   0  0  0  0  0  0  0  0  0  0  0  0
    0.7576   -1.8638    0.0000 C   0  0  0  0  0  0  0  0  0  0  0  0
    2.0631   -1.1251    0.0000 C   0  0  0  0  0  0  0  0  0  0  0  0
    3.3556   -1.8863    0.0000 C   0  0  0  0  0  0  0  0  0  0  0  0
    3.3426   -3.3863    0.0000 O   0  0  0  0  0  0  0  0  0  0  0  0
    4.6611   -1.1476    0.0000 C   0  0  0  0  0  0  0  0  0  0  0  0
    4.6741    0.3523    0.0000 C   0  0  0  0  0  0  0  0  0  0  0  0
    5.9796    1.0910    0.0000 C   0  0  0  0  0  0  0  0  0  0  0  0
    5.9926    2.5910    0.0000 C   0  0  0  0  0  0  0  0  0  0  0  0
    4.7002    3.3522    0.0000 C   0  0  0  0  0  0  0  0  0  0  0  0
    3.3947    2.6135    0.0000 C   0  0  0  0  0  0  0  0  0  0  0  0
    3.3816    1.1136    0.0000 C   0  0  0  0  0  0  0  0  0  0  0  0
    2.0891    1.8748    0.0000 C   0  0  0  0  0  0  0  0  0  0  0  0
    2.0761    0.3749    0.0000 C   0  0  0  0  0  0  0  0  0  0  0  0
    0.7836    1.1361    0.0000 C   0  0  0  0  0  0  0  0  0  0  0  0
   -0.5219    0.3974    0.0000 C   0  0  0  0  0  0  0  0  0  0  0  0
   -1.8143    1.1587    0.0000 O   0  0  0  0  0  0  0  0  0  0  0  0
   -0.5349   -1.1025    0.0000 C   0  0  0  0  0  0  0  0  0  0  0  0
   -1.8998   -0.4805    0.0000 C   0  0  0  0  0  0  0  0  0  0  0  0
  2  1  1  6
  2  3  1  0
  3  4  1  0
  4  5  1  0
  5  6  2  0
  5  7  1  0
  7  8  1  0
  2  9  1  0
  9 10  1  6
 10 11  1  0
 12 11  1  6
 12 13  1  0
 13 14  1  1
 14 15  1  6
 14 16  1  0
 17 16  1  1
 17 18  1  0
 18 19  1  0
 19 20  1  0
 20 21  1  0
 21 22  1  0
 22 23  1  6
 22 24  1  0
 24 25  1  6
 25 26  1  0
 26 27  1  1
 26 28  1  0
 28 29  1  6
 28  9  1  0
 28 12  1  0
 24 13  1  0
 22 17  1  0
M  END
>  <MS_ID>  (1425) 
MS1485

>  <SMILES>  (1425) 
C[C@H](CCC(=O)NO)[C@H]1CC[C@H]2[C@@H]3[C@@H](O)C[C@@H]4CCCC[C@]4(C)[C@H]3C[C@H](O)[C@]12C

>  <Structure_dimension>  (1425) 
2D

$$$$
MS1486
     RDKit          2D

 33 36  0  0  0  0  0  0  0  0999 V2000
   -3.4872   -3.6667    0.0000 C   0  0  0  0  0  0  0  0  0  0  0  0
   -2.6153   -2.4461    0.0000 C   0  0  0  0  0  0  0  0  0  0  0  0
   -3.2364   -1.0808    0.0000 C   0  0  0  0  0  0  0  0  0  0  0  0
   -4.7294   -0.9360    0.0000 C   0  0  0  0  0  0  0  0  0  0  0  0
   -5.3505    0.4294    0.0000 C   0  0  0  0  0  0  0  0  0  0  0  0
   -4.4787    1.6500    0.0000 O   0  0  0  0  0  0  0  0  0  0  0  0
   -6.8435    0.5742    0.0000 C   0  0  0  0  0  0  0  0  0  0  0  0
   -7.4647    1.9396    0.0000 S   0  0  0  0  0  0  0  0  0  0  0  0
   -8.8300    1.3184    0.0000 O   0  0  0  0  0  0  0  0  0  0  0  0
   -6.0993    2.5607    0.0000 O   0  0  0  0  0  0  0  0  0  0  0  0
   -8.0858    3.3049    0.0000 O   0  0  0  0  0  0  0  0  0  0  0  0
   -1.1223   -2.5909    0.0000 C   0  0  0  0  0  0  0  0  0  0  0  0
   -0.3619   -3.8839    0.0000 C   0  0  0  0  0  0  0  0  0  0  0  0
    1.1027   -3.5602    0.0000 C   0  0  0  0  0  0  0  0  0  0  0  0
    1.2475   -2.0672    0.0000 C   0  0  0  0  0  0  0  0  0  0  0  0
    2.4539   -1.1758    0.0000 C   0  0  0  0  0  0  0  0  0  0  0  0
    3.8291   -1.7749    0.0000 C   0  0  0  0  0  0  0  0  0  0  0  0
    3.9979   -3.2654    0.0000 O   0  0  0  0  0  0  0  0  0  0  0  0
    5.0355   -0.8835    0.0000 C   0  0  0  0  0  0  0  0  0  0  0  0
    6.4107   -1.4825    0.0000 O   0  0  0  0  0  0  0  0  0  0  0  0
    4.8667    0.6070    0.0000 C   0  0  0  0  0  0  0  0  0  0  0  0
    6.0731    1.4984    0.0000 C   0  0  0  0  0  0  0  0  0  0  0  0
    5.9043    2.9889    0.0000 C   0  0  0  0  0  0  0  0  0  0  0  0
    7.1107    3.8803    0.0000 O   0  0  0  0  0  0  0  0  0  0  0  0
    4.5291    3.5880    0.0000 C   0  0  0  0  0  0  0  0  0  0  0  0
    3.3228    2.6965    0.0000 C   0  0  0  0  0  0  0  0  0  0  0  0
    3.4915    1.2061    0.0000 C   0  0  0  0  0  0  0  0  0  0  0  0
    2.1164    1.8051    0.0000 C   0  0  0  0  0  0  0  0  0  0  0  0
    2.2851    0.3147    0.0000 C   0  0  0  0  0  0  0  0  0  0  0  0
    0.9100    0.9137    0.0000 C   0  0  0  0  0  0  0  0  0  0  0  0
   -0.2964    0.0223    0.0000 C   0  0  0  0  0  0  0  0  0  0  0  0
   -0.1276   -1.4682    0.0000 C   0  0  0  0  0  0  0  0  0  0  0  0
   -1.5579   -1.0161    0.0000 C   0  0  0  0  0  0  0  0  0  0  0  0
  2  1  1  6
  2  3  1  0
  3  4  1  0
  4  5  1  0
  5  6  2  0
  5  7  1  0
  7  8  1  0
  8  9  2  0
  8 10  2  0
  8 11  1  0
  2 12  1  0
 12 13  1  6
 13 14  1  0
 15 14  1  6
 15 16  1  0
 16 17  1  1
 17 18  1  1
 17 19  1  0
 19 20  1  1
 19 21  1  0
 21 22  1  1
 22 23  1  0
 23 24  1  1
 23 25  1  0
 25 26  1  0
 26 27  1  0
 27 28  1  6
 27 29  1  0
 29 30  1  6
 30 31  1  0
 31 32  1  0
 32 33  1  6
 32 12  1  0
 32 15  1  0
 29 16  1  0
 27 21  1  0
M  END
>  <MS_ID>  (1426) 
MS1486

>  <SMILES>  (1426) 
C[C@H](CCC(=O)CS(=O)(=O)O)[C@H]1CC[C@H]2[C@@H]3[C@H](O)[C@H](O)[C@@H]4C[C@H](O)CC[C@]4(C)[C@H]3CC[C@]12C

>  <Structure_dimension>  (1426) 
2D

$$$$
MS1487
     RDKit          2D

 37 41  0  0  0  0  0  0  0  0999 V2000
   -7.7979   -2.0734    0.0000 C   0  0  0  0  0  0  0  0  0  0  0  0
   -6.6037   -1.1657    0.0000 C   0  0  0  0  0  0  0  0  0  0  0  0
   -6.7927    0.3223    0.0000 C   0  0  0  0  0  0  0  0  0  0  0  0
   -8.1759    0.9027    0.0000 C   0  0  0  0  0  0  0  0  0  0  0  0
   -8.3649    2.3907    0.0000 C   0  0  0  0  0  0  0  0  0  0  0  0
   -7.1708    3.2984    0.0000 O   0  0  0  0  0  0  0  0  0  0  0  0
   -9.7481    2.9710    0.0000 O   0  0  0  0  0  0  0  0  0  0  0  0
   -5.2205   -1.7460    0.0000 C   0  0  0  0  0  0  0  0  0  0  0  0
   -4.8770   -3.2062    0.0000 C   0  0  0  0  0  0  0  0  0  0  0  0
   -3.3821   -3.3306    0.0000 C   0  0  0  0  0  0  0  0  0  0  0  0
   -2.8018   -1.9475    0.0000 C   0  0  0  0  0  0  0  0  0  0  0  0
   -1.3856   -1.4532    0.0000 C   0  0  0  0  0  0  0  0  0  0  0  0
   -0.2494   -2.4325    0.0000 C   0  0  0  0  0  0  0  0  0  0  0  0
    1.1668   -1.9383    0.0000 C   0  0  0  0  0  0  0  0  0  0  0  0
    1.4469   -0.4646    0.0000 C   0  0  0  0  0  0  0  0  0  0  0  0
    2.8631    0.0296    0.0000 C   0  0  0  0  0  0  0  0  0  0  0  0
    3.1431    1.5032    0.0000 C   0  0  0  0  0  0  0  0  0  0  0  0
    4.5594    1.9975    0.0000 O   0  0  0  0  0  0  0  0  0  0  0  0
    5.6955    1.0182    0.0000 C   0  0  0  0  0  0  0  0  0  0  0  0
    5.4155   -0.4555    0.0000 O   0  0  0  0  0  0  0  0  0  0  0  0
    6.5516   -1.4348    0.0000 C   0  0  0  0  0  0  0  0  0  0  0  0
    6.2716   -2.9084    0.0000 O   0  0  0  0  0  0  0  0  0  0  0  0
    7.9679   -0.9405    0.0000 C   0  0  0  0  0  0  0  0  0  0  0  0
    9.1040   -1.9199    0.0000 O   0  0  0  0  0  0  0  0  0  0  0  0
    8.2479    0.5331    0.0000 C   0  0  0  0  0  0  0  0  0  0  0  0
    9.6641    1.0274    0.0000 O   0  0  0  0  0  0  0  0  0  0  0  0
    7.1118    1.5124    0.0000 C   0  0  0  0  0  0  0  0  0  0  0  0
    7.3918    2.9861    0.0000 O   0  0  0  0  0  0  0  0  0  0  0  0
    2.0070    2.4826    0.0000 C   0  0  0  0  0  0  0  0  0  0  0  0
    0.5908    1.9883    0.0000 C   0  0  0  0  0  0  0  0  0  0  0  0
    0.3107    0.5147    0.0000 C   0  0  0  0  0  0  0  0  0  0  0  0
   -0.8255    1.4941    0.0000 C   0  0  0  0  0  0  0  0  0  0  0  0
   -1.1055    0.0204    0.0000 C   0  0  0  0  0  0  0  0  0  0  0  0
   -2.2417    0.9998    0.0000 C   0  0  0  0  0  0  0  0  0  0  0  0
   -3.6579    0.5055    0.0000 C   0  0  0  0  0  0  0  0  0  0  0  0
   -3.9380   -0.9681    0.0000 C   0  0  0  0  0  0  0  0  0  0  0  0
   -5.1703   -0.1129    0.0000 C   0  0  0  0  0  0  0  0  0  0  0  0
  2  1  1  6
  2  3  1  0
  3  4  1  0
  4  5  1  0
  5  6  2  0
  5  7  1  0
  2  8  1  0
  8  9  1  6
  9 10  1  0
 11 10  1  6
 11 12  1  0
 12 13  1  1
 13 14  1  0
 15 14  1  1
 15 16  1  0
 16 17  1  0
 17 18  1  1
 19 18  1  1
 19 20  1  0
 20 21  1  0
 21 22  1  1
 21 23  1  0
 23 24  1  1
 23 25  1  0
 25 26  1  6
 25 27  1  0
 27 28  1  6
 17 29  1  0
 29 30  1  0
 30 31  1  0
 31 32  1  6
 31 33  1  0
 33 34  1  6
 34 35  1  0
 35 36  1  0
 36 37  1  6
 36  8  1  0
 36 11  1  0
 33 12  1  0
 31 15  1  0
 27 19  1  0
M  END
>  <MS_ID>  (1427) 
MS1487

>  <SMILES>  (1427) 
C[C@H](CCC(=O)O)[C@H]1CC[C@H]2[C@@H]3CC[C@@H]4C[C@H](O[C@@H]5O[C@H](O)[C@H](O)[C@@H](O)[C@H]5O)CC[C@]4(C)[C@H]3CC[C@]12C

>  <Structure_dimension>  (1427) 
2D

$$$$
MS1488
     RDKit          2D

 39 43  0  0  0  0  0  0  0  0999 V2000
   -0.7193   -4.8292    0.0000 C   0  0  0  0  0  0  0  0  0  0  0  0
   -0.1477   -3.4424    0.0000 C   0  0  0  0  0  0  0  0  0  0  0  0
   -1.0630   -2.2540    0.0000 C   0  0  0  0  0  0  0  0  0  0  0  0
   -2.5498   -2.4524    0.0000 C   0  0  0  0  0  0  0  0  0  0  0  0
   -3.4650   -1.2640    0.0000 C   0  0  0  0  0  0  0  0  0  0  0  0
   -2.8935    0.1228    0.0000 O   0  0  0  0  0  0  0  0  0  0  0  0
   -4.9519   -1.4625    0.0000 O   0  0  0  0  0  0  0  0  0  0  0  0
   -5.8671   -0.2741    0.0000 C   0  0  0  0  0  0  0  0  0  0  0  0
   -5.2956    1.1128    0.0000 O   0  0  0  0  0  0  0  0  0  0  0  0
   -6.2108    2.3012    0.0000 C   0  0  0  0  0  0  0  0  0  0  0  0
   -5.6393    3.6880    0.0000 C   0  0  0  0  0  0  0  0  0  0  0  0
   -4.1524    3.8864    0.0000 O   0  0  0  0  0  0  0  0  0  0  0  0
   -7.6976    2.1027    0.0000 C   0  0  0  0  0  0  0  0  0  0  0  0
   -8.6129    3.2911    0.0000 O   0  0  0  0  0  0  0  0  0  0  0  0
   -8.2692    0.7159    0.0000 C   0  0  0  0  0  0  0  0  0  0  0  0
   -9.7560    0.5175    0.0000 O   0  0  0  0  0  0  0  0  0  0  0  0
   -7.3539   -0.4725    0.0000 C   0  0  0  0  0  0  0  0  0  0  0  0
   -7.9255   -1.8593    0.0000 O   0  0  0  0  0  0  0  0  0  0  0  0
    1.3391   -3.2440    0.0000 C   0  0  0  0  0  0  0  0  0  0  0  0
    2.3736   -4.3302    0.0000 C   0  0  0  0  0  0  0  0  0  0  0  0
    3.7263   -3.6820    0.0000 C   0  0  0  0  0  0  0  0  0  0  0  0
    3.5279   -2.1952    0.0000 C   0  0  0  0  0  0  0  0  0  0  0  0
    4.5000   -1.0529    0.0000 C   0  0  0  0  0  0  0  0  0  0  0  0
    5.9754   -1.3236    0.0000 C   0  0  0  0  0  0  0  0  0  0  0  0
    6.4786   -2.7367    0.0000 O   0  0  0  0  0  0  0  0  0  0  0  0
    6.9475   -0.1813    0.0000 C   0  0  0  0  0  0  0  0  0  0  0  0
    6.4443    1.2318    0.0000 C   0  0  0  0  0  0  0  0  0  0  0  0
    7.4164    2.3742    0.0000 C   0  0  0  0  0  0  0  0  0  0  0  0
    6.9132    3.7872    0.0000 C   0  0  0  0  0  0  0  0  0  0  0  0
    7.8853    4.9296    0.0000 O   0  0  0  0  0  0  0  0  0  0  0  0
    5.4378    4.0580    0.0000 C   0  0  0  0  0  0  0  0  0  0  0  0
    4.4657    2.9156    0.0000 C   0  0  0  0  0  0  0  0  0  0  0  0
    4.9689    1.5025    0.0000 C   0  0  0  0  0  0  0  0  0  0  0  0
    3.4936    1.7733    0.0000 C   0  0  0  0  0  0  0  0  0  0  0  0
    3.9968    0.3602    0.0000 C   0  0  0  0  0  0  0  0  0  0  0  0
    2.5214    0.6309    0.0000 C   0  0  0  0  0  0  0  0  0  0  0  0
    1.5493   -0.5114    0.0000 C   0  0  0  0  0  0  0  0  0  0  0  0
    2.0525   -1.9245    0.0000 C   0  0  0  0  0  0  0  0  0  0  0  0
    0.5569   -1.8095    0.0000 C   0  0  0  0  0  0  0  0  0  0  0  0
  2  1  1  6
  2  3  1  0
  3  4  1  0
  4  5  1  0
  5  6  2  0
  5  7  1  0
  8  7  1  6
  8  9  1  0
  9 10  1  0
 10 11  1  1
 11 12  1  0
 10 13  1  0
 13 14  1  6
 13 15  1  0
 15 16  1  1
 15 17  1  0
 17 18  1  1
  2 19  1  0
 19 20  1  6
 20 21  1  0
 22 21  1  6
 22 23  1  0
 23 24  1  1
 24 25  1  1
 24 26  1  0
 27 26  1  1
 27 28  1  0
 28 29  1  0
 29 30  1  1
 29 31  1  0
 31 32  1  0
 32 33  1  0
 33 34  1  6
 33 35  1  0
 35 36  1  6
 36 37  1  0
 37 38  1  0
 38 39  1  6
 17  8  1  0
 38 19  1  0
 38 22  1  0
 35 23  1  0
 33 27  1  0
M  END
>  <MS_ID>  (1428) 
MS1488

>  <SMILES>  (1428) 
C[C@H](CCC(=O)O[C@H]1O[C@H](CO)[C@@H](O)[C@H](O)[C@@H]1O)[C@H]1CC[C@H]2[C@@H]3[C@H](O)C[C@@H]4C[C@H](O)CC[C@]4(C)[C@H]3CC[C@]12C

>  <Structure_dimension>  (1428) 
2D

$$$$
MS1489
     RDKit          2D

 34 37  0  0  0  0  0  0  0  0999 V2000
   -2.4088   -4.8272    0.0000 C   0  0  0  0  0  0  0  0  0  0  0  0
   -1.7843   -3.4634    0.0000 C   0  0  0  0  0  0  0  0  0  0  0  0
   -2.6531   -2.2406    0.0000 C   0  0  0  0  0  0  0  0  0  0  0  0
   -4.1465   -2.3817    0.0000 C   0  0  0  0  0  0  0  0  0  0  0  0
   -5.0153   -1.1590    0.0000 C   0  0  0  0  0  0  0  0  0  0  0  0
   -6.5087   -1.3000    0.0000 O   0  0  0  0  0  0  0  0  0  0  0  0
   -4.3908    0.2049    0.0000 O   0  0  0  0  0  0  0  0  0  0  0  0
   -5.2597    1.4276    0.0000 C   0  0  0  0  0  0  0  0  0  0  0  0
   -6.7530    1.2865    0.0000 O   0  0  0  0  0  0  0  0  0  0  0  0
   -4.6351    2.7914    0.0000 C   0  0  0  0  0  0  0  0  0  0  0  0
   -5.5040    4.0142    0.0000 C   0  0  0  0  0  0  0  0  0  0  0  0
   -6.9973    3.8731    0.0000 O   0  0  0  0  0  0  0  0  0  0  0  0
   -4.8795    5.3780    0.0000 O   0  0  0  0  0  0  0  0  0  0  0  0
   -0.2909   -3.3223    0.0000 C   0  0  0  0  0  0  0  0  0  0  0  0
    0.7010   -4.4475    0.0000 C   0  0  0  0  0  0  0  0  0  0  0  0
    2.0777   -3.8519    0.0000 C   0  0  0  0  0  0  0  0  0  0  0  0
    1.9366   -2.3585    0.0000 C   0  0  0  0  0  0  0  0  0  0  0  0
    2.9520   -1.2545    0.0000 C   0  0  0  0  0  0  0  0  0  0  0  0
    4.4158   -1.5818    0.0000 C   0  0  0  0  0  0  0  0  0  0  0  0
    4.8643   -3.0131    0.0000 O   0  0  0  0  0  0  0  0  0  0  0  0
    5.4312   -0.4777    0.0000 C   0  0  0  0  0  0  0  0  0  0  0  0
    4.9827    0.9537    0.0000 C   0  0  0  0  0  0  0  0  0  0  0  0
    5.9981    2.0578    0.0000 C   0  0  0  0  0  0  0  0  0  0  0  0
    5.5496    3.4892    0.0000 C   0  0  0  0  0  0  0  0  0  0  0  0
    6.5650    4.5933    0.0000 O   0  0  0  0  0  0  0  0  0  0  0  0
    4.0858    3.8165    0.0000 C   0  0  0  0  0  0  0  0  0  0  0  0
    3.0704    2.7124    0.0000 C   0  0  0  0  0  0  0  0  0  0  0  0
    3.5189    1.2810    0.0000 C   0  0  0  0  0  0  0  0  0  0  0  0
    2.0550    1.6083    0.0000 C   0  0  0  0  0  0  0  0  0  0  0  0
    2.5035    0.1769    0.0000 C   0  0  0  0  0  0  0  0  0  0  0  0
    1.0396    0.5042    0.0000 C   0  0  0  0  0  0  0  0  0  0  0  0
    0.0243   -0.5998    0.0000 C   0  0  0  0  0  0  0  0  0  0  0  0
    0.4727   -2.0312    0.0000 C   0  0  0  0  0  0  0  0  0  0  0  0
   -1.0173   -1.8587    0.0000 C   0  0  0  0  0  0  0  0  0  0  0  0
  2  1  1  6
  2  3  1  0
  3  4  1  0
  4  5  1  0
  5  6  2  0
  5  7  1  0
  7  8  1  0
  8  9  2  0
  8 10  1  0
 10 11  1  0
 11 12  2  0
 11 13  1  0
  2 14  1  0
 14 15  1  6
 15 16  1  0
 17 16  1  6
 17 18  1  0
 18 19  1  1
 19 20  1  6
 19 21  1  0
 22 21  1  1
 22 23  1  0
 23 24  1  0
 24 25  1  1
 24 26  1  0
 26 27  1  0
 27 28  1  0
 28 29  1  6
 28 30  1  0
 30 31  1  6
 31 32  1  0
 32 33  1  0
 33 34  1  6
 33 14  1  0
 33 17  1  0
 30 18  1  0
 28 22  1  0
M  END
>  <MS_ID>  (1429) 
MS1489

>  <SMILES>  (1429) 
C[C@H](CCC(=O)OC(=O)CC(=O)O)[C@H]1CC[C@H]2[C@@H]3[C@@H](O)C[C@@H]4C[C@H](O)CC[C@]4(C)[C@H]3CC[C@]12C

>  <Structure_dimension>  (1429) 
2D

$$$$
MS1490
     RDKit          2D

 34 37  0  0  0  0  0  0  0  0999 V2000
   -2.7457   -3.8277    0.0000 C   0  0  0  0  0  0  0  0  0  0  0  0
   -1.9007   -2.5883    0.0000 C   0  0  0  0  0  0  0  0  0  0  0  0
   -2.5515   -1.2369    0.0000 C   0  0  0  0  0  0  0  0  0  0  0  0
   -4.0473   -1.1247    0.0000 C   0  0  0  0  0  0  0  0  0  0  0  0
   -4.6981    0.2267    0.0000 C   0  0  0  0  0  0  0  0  0  0  0  0
   -3.8531    1.4661    0.0000 O   0  0  0  0  0  0  0  0  0  0  0  0
   -6.1939    0.3389    0.0000 C   0  0  0  0  0  0  0  0  0  0  0  0
   -6.8447    1.6903    0.0000 C   0  0  0  0  0  0  0  0  0  0  0  0
   -8.3405    1.8025    0.0000 C   0  0  0  0  0  0  0  0  0  0  0  0
   -8.4526    0.3067    0.0000 C   0  0  0  0  0  0  0  0  0  0  0  0
   -8.2283    3.2983    0.0000 C   0  0  0  0  0  0  0  0  0  0  0  0
   -9.8363    1.9146    0.0000 O   0  0  0  0  0  0  0  0  0  0  0  0
   -0.4049   -2.7005    0.0000 C   0  0  0  0  0  0  0  0  0  0  0  0
    0.3836   -3.9765    0.0000 C   0  0  0  0  0  0  0  0  0  0  0  0
    1.8409   -3.6209    0.0000 C   0  0  0  0  0  0  0  0  0  0  0  0
    1.9530   -2.1251    0.0000 C   0  0  0  0  0  0  0  0  0  0  0  0
    3.1396   -1.2076    0.0000 C   0  0  0  0  0  0  0  0  0  0  0  0
    4.5276   -1.7764    0.0000 C   0  0  0  0  0  0  0  0  0  0  0  0
    4.7289   -3.2629    0.0000 O   0  0  0  0  0  0  0  0  0  0  0  0
    5.7142   -0.8589    0.0000 C   0  0  0  0  0  0  0  0  0  0  0  0
    5.5129    0.6276    0.0000 C   0  0  0  0  0  0  0  0  0  0  0  0
    6.6995    1.5451    0.0000 C   0  0  0  0  0  0  0  0  0  0  0  0
    6.4982    3.0315    0.0000 C   0  0  0  0  0  0  0  0  0  0  0  0
    7.6848    3.9491    0.0000 O   0  0  0  0  0  0  0  0  0  0  0  0
    5.1102    3.6004    0.0000 C   0  0  0  0  0  0  0  0  0  0  0  0
    3.9236    2.6829    0.0000 C   0  0  0  0  0  0  0  0  0  0  0  0
    4.1249    1.1964    0.0000 C   0  0  0  0  0  0  0  0  0  0  0  0
    2.7370    1.7653    0.0000 C   0  0  0  0  0  0  0  0  0  0  0  0
    2.9383    0.2789    0.0000 C   0  0  0  0  0  0  0  0  0  0  0  0
    1.5504    0.8477    0.0000 C   0  0  0  0  0  0  0  0  0  0  0  0
    0.3637   -0.0698    0.0000 C   0  0  0  0  0  0  0  0  0  0  0  0
   -1.0242    0.4991    0.0000 O   0  0  0  0  0  0  0  0  0  0  0  0
    0.5650   -1.5562    0.0000 C   0  0  0  0  0  0  0  0  0  0  0  0
   -0.8748   -1.1356    0.0000 C   0  0  0  0  0  0  0  0  0  0  0  0
  2  1  1  6
  2  3  1  0
  3  4  1  0
  4  5  1  0
  5  6  2  0
  5  7  1  0
  7  8  1  0
  8  9  1  0
  9 10  1  0
  9 11  1  0
  9 12  1  0
  2 13  1  0
 13 14  1  6
 14 15  1  0
 16 15  1  6
 16 17  1  0
 17 18  1  1
 18 19  1  1
 18 20  1  0
 21 20  1  1
 21 22  1  0
 22 23  1  0
 23 24  1  1
 23 25  1  0
 25 26  1  0
 26 27  1  0
 27 28  1  6
 27 29  1  0
 29 30  1  6
 30 31  1  0
 31 32  1  1
 31 33  1  0
 33 34  1  6
 33 13  1  0
 33 16  1  0
 29 17  1  0
 27 21  1  0
M  END
>  <MS_ID>  (1430) 
MS1490

>  <SMILES>  (1430) 
C[C@H](CCC(=O)CCC(C)(C)O)[C@H]1CC[C@H]2[C@@H]3[C@H](O)C[C@@H]4C[C@H](O)CC[C@]4(C)[C@H]3C[C@H](O)[C@]12C

>  <Structure_dimension>  (1430) 
2D

$$$$
MS1491
     RDKit          2D

 37 40  0  0  0  0  0  0  0  0999 V2000
   -1.0033   -4.5187    0.0000 C   0  0  0  0  0  0  0  0  0  0  0  0
   -0.3845   -3.1522    0.0000 C   0  0  0  0  0  0  0  0  0  0  0  0
   -1.2585   -1.9332    0.0000 C   0  0  0  0  0  0  0  0  0  0  0  0
   -2.7512   -2.0805    0.0000 C   0  0  0  0  0  0  0  0  0  0  0  0
   -3.6252   -0.8614    0.0000 C   0  0  0  0  0  0  0  0  0  0  0  0
   -3.0064    0.5050    0.0000 O   0  0  0  0  0  0  0  0  0  0  0  0
   -5.1179   -1.0088    0.0000 O   0  0  0  0  0  0  0  0  0  0  0  0
   -5.9919    0.2103    0.0000 C   0  0  0  0  0  0  0  0  0  0  0  0
   -7.4846    0.0630    0.0000 C   0  0  0  0  0  0  0  0  0  0  0  0
   -8.1034   -1.3035    0.0000 O   0  0  0  0  0  0  0  0  0  0  0  0
   -8.3586    1.2821    0.0000 N   0  0  0  0  0  0  0  0  0  0  0  0
   -9.8514    1.1347    0.0000 C   0  0  0  0  0  0  0  0  0  0  0  0
  -10.7253    2.3538    0.0000 C   0  0  0  0  0  0  0  0  0  0  0  0
  -10.1066    3.7202    0.0000 O   0  0  0  0  0  0  0  0  0  0  0  0
  -12.2181    2.2065    0.0000 O   0  0  0  0  0  0  0  0  0  0  0  0
    1.1083   -3.0049    0.0000 C   0  0  0  0  0  0  0  0  0  0  0  0
    2.1049   -4.1260    0.0000 C   0  0  0  0  0  0  0  0  0  0  0  0
    3.4790   -3.5245    0.0000 C   0  0  0  0  0  0  0  0  0  0  0  0
    3.3317   -2.0318    0.0000 C   0  0  0  0  0  0  0  0  0  0  0  0
    4.3424   -0.9235    0.0000 C   0  0  0  0  0  0  0  0  0  0  0  0
    5.8076   -1.2446    0.0000 C   0  0  0  0  0  0  0  0  0  0  0  0
    6.2621   -2.6741    0.0000 O   0  0  0  0  0  0  0  0  0  0  0  0
    6.8184   -0.1363    0.0000 C   0  0  0  0  0  0  0  0  0  0  0  0
    6.3639    1.2932    0.0000 C   0  0  0  0  0  0  0  0  0  0  0  0
    7.3746    2.4016    0.0000 C   0  0  0  0  0  0  0  0  0  0  0  0
    6.9201    3.8311    0.0000 C   0  0  0  0  0  0  0  0  0  0  0  0
    7.9309    4.9394    0.0000 O   0  0  0  0  0  0  0  0  0  0  0  0
    5.4549    4.1522    0.0000 C   0  0  0  0  0  0  0  0  0  0  0  0
    4.4442    3.0439    0.0000 C   0  0  0  0  0  0  0  0  0  0  0  0
    4.8987    1.6144    0.0000 C   0  0  0  0  0  0  0  0  0  0  0  0
    3.4335    1.9355    0.0000 C   0  0  0  0  0  0  0  0  0  0  0  0
    3.8879    0.5060    0.0000 C   0  0  0  0  0  0  0  0  0  0  0  0
    2.4227    0.8272    0.0000 C   0  0  0  0  0  0  0  0  0  0  0  0
    1.4120   -0.2811    0.0000 C   0  0  0  0  0  0  0  0  0  0  0  0
   -0.0532    0.0400    0.0000 O   0  0  0  0  0  0  0  0  0  0  0  0
    1.8665   -1.7106    0.0000 C   0  0  0  0  0  0  0  0  0  0  0  0
    0.3757   -1.5444    0.0000 C   0  0  0  0  0  0  0  0  0  0  0  0
  2  1  1  6
  2  3  1  0
  3  4  1  0
  4  5  1  0
  5  6  2  0
  5  7  1  0
  7  8  1  0
  8  9  1  0
  9 10  2  0
  9 11  1  0
 11 12  1  0
 12 13  1  0
 13 14  2  0
 13 15  1  0
  2 16  1  0
 16 17  1  6
 17 18  1  0
 19 18  1  6
 19 20  1  0
 20 21  1  1
 21 22  1  1
 21 23  1  0
 24 23  1  1
 24 25  1  0
 25 26  1  0
 26 27  1  1
 26 28  1  0
 28 29  1  0
 29 30  1  0
 30 31  1  6
 30 32  1  0
 32 33  1  6
 33 34  1  0
 34 35  1  1
 34 36  1  0
 36 37  1  6
 36 16  1  0
 36 19  1  0
 32 20  1  0
 30 24  1  0
M  END
>  <MS_ID>  (1431) 
MS1491

>  <SMILES>  (1431) 
C[C@H](CCC(=O)OCC(=O)NCC(=O)O)[C@H]1CC[C@H]2[C@@H]3[C@H](O)C[C@@H]4C[C@H](O)CC[C@]4(C)[C@H]3C[C@H](O)[C@]12C

>  <Structure_dimension>  (1431) 
2D

$$$$
MS1492
     RDKit          2D

 33 36  0  0  0  0  0  0  0  0999 V2000
   -2.9718   -4.0164    0.0000 C   0  0  0  0  0  0  0  0  0  0  0  0
   -2.1546   -2.7585    0.0000 C   0  0  0  0  0  0  0  0  0  0  0  0
   -2.8353   -1.4219    0.0000 C   0  0  0  0  0  0  0  0  0  0  0  0
   -4.3332   -1.3431    0.0000 C   0  0  0  0  0  0  0  0  0  0  0  0
   -5.0139   -0.0064    0.0000 C   0  0  0  0  0  0  0  0  0  0  0  0
   -4.1967    1.2514    0.0000 O   0  0  0  0  0  0  0  0  0  0  0  0
   -6.5119    0.0724    0.0000 C   0  0  0  0  0  0  0  0  0  0  0  0
   -7.1926    1.4090    0.0000 C   0  0  0  0  0  0  0  0  0  0  0  0
   -8.6905    1.4878    0.0000 C   0  0  0  0  0  0  0  0  0  0  0  0
   -6.3754    2.6668    0.0000 C   0  0  0  0  0  0  0  0  0  0  0  0
   -4.8775    2.5881    0.0000 O   0  0  0  0  0  0  0  0  0  0  0  0
   -7.0561    4.0035    0.0000 O   0  0  0  0  0  0  0  0  0  0  0  0
   -0.6566   -2.8373    0.0000 C   0  0  0  0  0  0  0  0  0  0  0  0
    0.1601   -4.0955    0.0000 C   0  0  0  0  0  0  0  0  0  0  0  0
    1.6091   -3.7075    0.0000 C   0  0  0  0  0  0  0  0  0  0  0  0
    1.6878   -2.2096    0.0000 C   0  0  0  0  0  0  0  0  0  0  0  0
    2.8537   -1.2658    0.0000 C   0  0  0  0  0  0  0  0  0  0  0  0
    4.2540   -1.8037    0.0000 C   0  0  0  0  0  0  0  0  0  0  0  0
    4.4884   -3.2852    0.0000 O   0  0  0  0  0  0  0  0  0  0  0  0
    5.4199   -0.8599    0.0000 C   0  0  0  0  0  0  0  0  0  0  0  0
    5.1855    0.6217    0.0000 C   0  0  0  0  0  0  0  0  0  0  0  0
    6.3514    1.5654    0.0000 C   0  0  0  0  0  0  0  0  0  0  0  0
    6.1171    3.0470    0.0000 C   0  0  0  0  0  0  0  0  0  0  0  0
    7.2830    3.9908    0.0000 O   0  0  0  0  0  0  0  0  0  0  0  0
    4.7168    3.5848    0.0000 C   0  0  0  0  0  0  0  0  0  0  0  0
    3.5509    2.6411    0.0000 C   0  0  0  0  0  0  0  0  0  0  0  0
    3.7853    1.1595    0.0000 C   0  0  0  0  0  0  0  0  0  0  0  0
    2.3850    1.6973    0.0000 C   0  0  0  0  0  0  0  0  0  0  0  0
    2.6194    0.2157    0.0000 C   0  0  0  0  0  0  0  0  0  0  0  0
    1.2191    0.7536    0.0000 C   0  0  0  0  0  0  0  0  0  0  0  0
    0.0532   -0.1902    0.0000 C   0  0  0  0  0  0  0  0  0  0  0  0
    0.2876   -1.6718    0.0000 C   0  0  0  0  0  0  0  0  0  0  0  0
   -1.1612   -1.2833    0.0000 C   0  0  0  0  0  0  0  0  0  0  0  0
  2  1  1  6
  2  3  1  0
  3  4  1  0
  4  5  1  0
  5  6  2  0
  5  7  1  0
  7  8  1  0
  8  9  1  6
  8 10  1  0
 10 11  2  0
 10 12  1  0
  2 13  1  0
 13 14  1  6
 14 15  1  0
 16 15  1  6
 16 17  1  0
 17 18  1  1
 18 19  1  1
 18 20  1  0
 21 20  1  1
 21 22  1  0
 22 23  1  0
 23 24  1  1
 23 25  1  0
 25 26  1  0
 26 27  1  0
 27 28  1  6
 27 29  1  0
 29 30  1  6
 30 31  1  0
 31 32  1  0
 32 33  1  6
 32 13  1  0
 32 16  1  0
 29 17  1  0
 27 21  1  0
M  END
>  <MS_ID>  (1432) 
MS1492

>  <SMILES>  (1432) 
C[C@H](CCC(=O)C[C@H](C)C(=O)O)[C@H]1CC[C@H]2[C@@H]3[C@H](O)C[C@@H]4C[C@H](O)CC[C@]4(C)[C@H]3CC[C@]12C

>  <Structure_dimension>  (1432) 
2D

$$$$
MS1493
     RDKit          2D

 34 37  0  0  0  0  0  0  0  0999 V2000
   -4.6703   -3.6118    0.0000 C   0  0  0  0  0  0  0  0  0  0  0  0
   -4.0995   -2.2247    0.0000 C   0  0  0  0  0  0  0  0  0  0  0  0
   -5.0153   -1.0367    0.0000 C   0  0  0  0  0  0  0  0  0  0  0  0
   -6.5020   -1.2359    0.0000 C   0  0  0  0  0  0  0  0  0  0  0  0
   -7.4179   -0.0479    0.0000 C   0  0  0  0  0  0  0  0  0  0  0  0
   -6.8470    1.3392    0.0000 O   0  0  0  0  0  0  0  0  0  0  0  0
   -8.9046   -0.2471    0.0000 O   0  0  0  0  0  0  0  0  0  0  0  0
   -2.6127   -2.0255    0.0000 C   0  0  0  0  0  0  0  0  0  0  0  0
   -1.5777   -3.1112    0.0000 C   0  0  0  0  0  0  0  0  0  0  0  0
   -0.2253   -2.4623    0.0000 C   0  0  0  0  0  0  0  0  0  0  0  0
   -0.4245   -0.9756    0.0000 C   0  0  0  0  0  0  0  0  0  0  0  0
    0.5471    0.1672    0.0000 C   0  0  0  0  0  0  0  0  0  0  0  0
    2.0226   -0.1028    0.0000 C   0  0  0  0  0  0  0  0  0  0  0  0
    2.5265   -1.5156    0.0000 O   0  0  0  0  0  0  0  0  0  0  0  0
    4.0020   -1.7856    0.0000 C   0  0  0  0  0  0  0  0  0  0  0  0
    4.5059   -3.1984    0.0000 O   0  0  0  0  0  0  0  0  0  0  0  0
    5.9814   -3.4684    0.0000 P   0  0  0  0  0  0  0  0  0  0  0  0
    5.7114   -4.9439    0.0000 O   0  0  0  0  0  0  0  0  0  0  0  0
    6.2514   -1.9929    0.0000 O   0  0  0  0  0  0  0  0  0  0  0  0
    7.4569   -3.7384    0.0000 O   0  0  0  0  0  0  0  0  0  0  0  0
    2.9941    1.0400    0.0000 C   0  0  0  0  0  0  0  0  0  0  0  0
    2.4902    2.4528    0.0000 C   0  0  0  0  0  0  0  0  0  0  0  0
    3.4618    3.5957    0.0000 C   0  0  0  0  0  0  0  0  0  0  0  0
    2.9579    5.0085    0.0000 C   0  0  0  0  0  0  0  0  0  0  0  0
    3.9294    6.1513    0.0000 O   0  0  0  0  0  0  0  0  0  0  0  0
    1.4824    5.2785    0.0000 C   0  0  0  0  0  0  0  0  0  0  0  0
    0.5108    4.1357    0.0000 C   0  0  0  0  0  0  0  0  0  0  0  0
    1.0147    2.7228    0.0000 C   0  0  0  0  0  0  0  0  0  0  0  0
   -0.4608    2.9928    0.0000 C   0  0  0  0  0  0  0  0  0  0  0  0
    0.0431    1.5800    0.0000 C   0  0  0  0  0  0  0  0  0  0  0  0
   -1.4324    1.8500    0.0000 C   0  0  0  0  0  0  0  0  0  0  0  0
   -2.4039    0.7072    0.0000 C   0  0  0  0  0  0  0  0  0  0  0  0
   -1.9000   -0.7056    0.0000 C   0  0  0  0  0  0  0  0  0  0  0  0
   -3.3956   -0.5913    0.0000 C   0  0  0  0  0  0  0  0  0  0  0  0
  2  1  1  6
  2  3  1  0
  3  4  1  0
  4  5  1  0
  5  6  2  0
  5  7  1  0
  2  8  1  0
  8  9  1  6
  9 10  1  0
 11 10  1  6
 11 12  1  0
 12 13  1  1
 13 14  1  6
 14 15  1  0
 15 16  1  0
 16 17  1  0
 17 18  2  0
 17 19  1  0
 17 20  1  0
 13 21  1  0
 22 21  1  1
 22 23  1  0
 23 24  1  0
 24 25  1  1
 24 26  1  0
 26 27  1  0
 27 28  1  0
 28 29  1  6
 28 30  1  0
 30 31  1  6
 31 32  1  0
 32 33  1  0
 33 34  1  6
 33  8  1  0
 33 11  1  0
 30 12  1  0
 28 22  1  0
M  END
>  <MS_ID>  (1433) 
MS1493

>  <SMILES>  (1433) 
C[C@H](CCC(=O)O)[C@H]1CC[C@H]2[C@@H]3[C@@H](OCOP(=O)(O)O)C[C@@H]4C[C@H](O)CC[C@]4(C)[C@H]3CC[C@]12C

>  <Structure_dimension>  (1433) 
2D

$$$$
MS1494
     RDKit          2D

 33 37  0  0  0  0  0  0  0  0999 V2000
   -3.6298   -3.2263    0.0000 C   0  0  0  0  0  0  0  0  0  0  0  0
   -2.6726   -2.0715    0.0000 C   0  0  0  0  0  0  0  0  0  0  0  0
   -3.1941   -0.6650    0.0000 C   0  0  0  0  0  0  0  0  0  0  0  0
   -4.6728   -0.4135    0.0000 C   0  0  0  0  0  0  0  0  0  0  0  0
   -5.1944    0.9930    0.0000 C   0  0  0  0  0  0  0  0  0  0  0  0
   -4.2371    2.1478    0.0000 O   0  0  0  0  0  0  0  0  0  0  0  0
   -6.6731    1.2445    0.0000 N   0  0  0  0  0  0  0  0  0  0  0  0
   -7.7458    0.1960    0.0000 C   0  0  0  0  0  0  0  0  0  0  0  0
   -9.0745    0.8923    0.0000 C   0  0  0  0  0  0  0  0  0  0  0  0
   -8.8229    2.3710    0.0000 C   0  0  0  0  0  0  0  0  0  0  0  0
   -7.3388    2.5887    0.0000 N   0  0  0  0  0  0  0  0  0  0  0  0
   -1.1938   -2.3230    0.0000 C   0  0  0  0  0  0  0  0  0  0  0  0
   -0.5281   -3.6672    0.0000 C   0  0  0  0  0  0  0  0  0  0  0  0
    0.9560   -3.4495    0.0000 C   0  0  0  0  0  0  0  0  0  0  0  0
    1.2075   -1.9708    0.0000 C   0  0  0  0  0  0  0  0  0  0  0  0
    2.4748   -1.1682    0.0000 C   0  0  0  0  0  0  0  0  0  0  0  0
    3.8034   -1.8644    0.0000 C   0  0  0  0  0  0  0  0  0  0  0  0
    3.8648   -3.3632    0.0000 O   0  0  0  0  0  0  0  0  0  0  0  0
    5.0707   -1.0619    0.0000 C   0  0  0  0  0  0  0  0  0  0  0  0
    6.3993   -1.7581    0.0000 O   0  0  0  0  0  0  0  0  0  0  0  0
    5.0093    0.4368    0.0000 C   0  0  0  0  0  0  0  0  0  0  0  0
    6.2766    1.2394    0.0000 C   0  0  0  0  0  0  0  0  0  0  0  0
    6.2152    2.7381    0.0000 C   0  0  0  0  0  0  0  0  0  0  0  0
    7.4824    3.5407    0.0000 O   0  0  0  0  0  0  0  0  0  0  0  0
    4.8865    3.4343    0.0000 C   0  0  0  0  0  0  0  0  0  0  0  0
    3.6193    2.6318    0.0000 C   0  0  0  0  0  0  0  0  0  0  0  0
    3.6807    1.1331    0.0000 C   0  0  0  0  0  0  0  0  0  0  0  0
    2.3520    1.8293    0.0000 C   0  0  0  0  0  0  0  0  0  0  0  0
    2.4134    0.3305    0.0000 C   0  0  0  0  0  0  0  0  0  0  0  0
    1.0848    1.0267    0.0000 C   0  0  0  0  0  0  0  0  0  0  0  0
   -0.1825    0.2242    0.0000 C   0  0  0  0  0  0  0  0  0  0  0  0
   -0.1211   -1.2745    0.0000 C   0  0  0  0  0  0  0  0  0  0  0  0
   -1.5152   -0.7210    0.0000 C   0  0  0  0  0  0  0  0  0  0  0  0
  2  1  1  6
  2  3  1  0
  3  4  1  0
  4  5  1  0
  5  6  2  0
  5  7  1  0
  7  8  1  0
  8  9  2  0
  9 10  1  0
 10 11  2  0
  2 12  1  0
 12 13  1  6
 13 14  1  0
 15 14  1  6
 15 16  1  0
 16 17  1  1
 17 18  1  1
 17 19  1  0
 19 20  1  1
 19 21  1  0
 21 22  1  1
 22 23  1  0
 23 24  1  1
 23 25  1  0
 25 26  1  0
 26 27  1  0
 27 28  1  6
 27 29  1  0
 29 30  1  6
 30 31  1  0
 31 32  1  0
 32 33  1  6
 11  7  1  0
 32 12  1  0
 32 15  1  0
 29 16  1  0
 27 21  1  0
M  END
>  <MS_ID>  (1434) 
MS1494

>  <SMILES>  (1434) 
C[C@H](CCC(=O)n1cccn1)[C@H]1CC[C@H]2[C@@H]3[C@H](O)[C@H](O)[C@@H]4C[C@H](O)CC[C@]4(C)[C@H]3CC[C@]12C

>  <Structure_dimension>  (1434) 
2D

$$$$
MS1495
     RDKit          2D

 33 36  0  0  0  0  0  0  0  0999 V2000
   -3.0978   -3.6919    0.0000 C   0  0  0  0  0  0  0  0  0  0  0  0
   -2.2201   -2.4755    0.0000 C   0  0  0  0  0  0  0  0  0  0  0  0
   -2.8347   -1.1072    0.0000 C   0  0  0  0  0  0  0  0  0  0  0  0
   -4.3270   -0.9552    0.0000 C   0  0  0  0  0  0  0  0  0  0  0  0
   -4.9416    0.4131    0.0000 C   0  0  0  0  0  0  0  0  0  0  0  0
   -4.0639    1.6295    0.0000 O   0  0  0  0  0  0  0  0  0  0  0  0
   -6.4339    0.5650    0.0000 C   0  0  0  0  0  0  0  0  0  0  0  0
   -7.0484    1.9333    0.0000 C   0  0  0  0  0  0  0  0  0  0  0  0
   -8.5407    2.0852    0.0000 C   0  0  0  0  0  0  0  0  0  0  0  0
   -9.4184    0.8688    0.0000 O   0  0  0  0  0  0  0  0  0  0  0  0
   -9.1553    3.4535    0.0000 O   0  0  0  0  0  0  0  0  0  0  0  0
   -0.7278   -2.6274    0.0000 C   0  0  0  0  0  0  0  0  0  0  0  0
    0.0264   -3.9240    0.0000 C   0  0  0  0  0  0  0  0  0  0  0  0
    1.4926   -3.6073    0.0000 C   0  0  0  0  0  0  0  0  0  0  0  0
    1.6445   -2.1150    0.0000 C   0  0  0  0  0  0  0  0  0  0  0  0
    2.8552   -1.2294    0.0000 C   0  0  0  0  0  0  0  0  0  0  0  0
    4.2275   -1.8350    0.0000 C   0  0  0  0  0  0  0  0  0  0  0  0
    4.3891   -3.3263    0.0000 O   0  0  0  0  0  0  0  0  0  0  0  0
    5.4381   -0.9494    0.0000 C   0  0  0  0  0  0  0  0  0  0  0  0
    5.2764    0.5419    0.0000 C   0  0  0  0  0  0  0  0  0  0  0  0
    6.4871    1.4275    0.0000 C   0  0  0  0  0  0  0  0  0  0  0  0
    6.3254    2.9188    0.0000 C   0  0  0  0  0  0  0  0  0  0  0  0
    7.5360    3.8044    0.0000 O   0  0  0  0  0  0  0  0  0  0  0  0
    4.9531    3.5244    0.0000 C   0  0  0  0  0  0  0  0  0  0  0  0
    3.7425    2.6388    0.0000 C   0  0  0  0  0  0  0  0  0  0  0  0
    3.9041    1.1475    0.0000 C   0  0  0  0  0  0  0  0  0  0  0  0
    2.5318    1.7531    0.0000 C   0  0  0  0  0  0  0  0  0  0  0  0
    2.6935    0.2619    0.0000 C   0  0  0  0  0  0  0  0  0  0  0  0
    1.3212    0.8675    0.0000 C   0  0  0  0  0  0  0  0  0  0  0  0
    0.1105   -0.0181    0.0000 C   0  0  0  0  0  0  0  0  0  0  0  0
   -1.2618    0.5875    0.0000 O   0  0  0  0  0  0  0  0  0  0  0  0
    0.2722   -1.5094    0.0000 C   0  0  0  0  0  0  0  0  0  0  0  0
   -1.1559   -1.0505    0.0000 C   0  0  0  0  0  0  0  0  0  0  0  0
  2  1  1  6
  2  3  1  0
  3  4  1  0
  4  5  1  0
  5  6  2  0
  5  7  1  0
  7  8  1  0
  8  9  1  0
  9 10  2  0
  9 11  1  0
  2 12  1  0
 12 13  1  6
 13 14  1  0
 15 14  1  6
 15 16  1  0
 16 17  1  1
 17 18  1  1
 17 19  1  0
 20 19  1  1
 20 21  1  0
 21 22  1  0
 22 23  1  6
 22 24  1  0
 24 25  1  0
 25 26  1  0
 26 27  1  6
 26 28  1  0
 28 29  1  6
 29 30  1  0
 30 31  1  6
 30 32  1  0
 32 33  1  6
 32 12  1  0
 32 15  1  0
 28 16  1  0
 26 20  1  0
M  END
>  <MS_ID>  (1435) 
MS1495

>  <SMILES>  (1435) 
C[C@H](CCC(=O)CCC(=O)O)[C@H]1CC[C@H]2[C@@H]3[C@H](O)C[C@@H]4C[C@@H](O)CC[C@]4(C)[C@H]3C[C@@H](O)[C@]12C

>  <Structure_dimension>  (1435) 
2D

$$$$
MS1496
     RDKit          2D

 40 44  0  0  0  0  0  0  0  0999 V2000
   -7.7456   -2.0849    0.0000 C   0  0  0  0  0  0  0  0  0  0  0  0
   -6.5700   -1.1533    0.0000 C   0  0  0  0  0  0  0  0  0  0  0  0
   -6.7891    0.3307    0.0000 C   0  0  0  0  0  0  0  0  0  0  0  0
   -8.1837    0.8829    0.0000 C   0  0  0  0  0  0  0  0  0  0  0  0
   -8.4028    2.3668    0.0000 C   0  0  0  0  0  0  0  0  0  0  0  0
   -7.2273    3.2985    0.0000 O   0  0  0  0  0  0  0  0  0  0  0  0
   -9.7975    2.9190    0.0000 O   0  0  0  0  0  0  0  0  0  0  0  0
   -5.1754   -1.7055    0.0000 C   0  0  0  0  0  0  0  0  0  0  0  0
   -4.8024   -3.1584    0.0000 C   0  0  0  0  0  0  0  0  0  0  0  0
   -3.3053   -3.2526    0.0000 C   0  0  0  0  0  0  0  0  0  0  0  0
   -2.7531   -1.8579    0.0000 C   0  0  0  0  0  0  0  0  0  0  0  0
   -1.3472   -1.3351    0.0000 C   0  0  0  0  0  0  0  0  0  0  0  0
   -0.1914   -2.2913    0.0000 C   0  0  0  0  0  0  0  0  0  0  0  0
   -0.4416   -3.7703    0.0000 O   0  0  0  0  0  0  0  0  0  0  0  0
    1.2145   -1.7685    0.0000 C   0  0  0  0  0  0  0  0  0  0  0  0
    1.4647   -0.2895    0.0000 C   0  0  0  0  0  0  0  0  0  0  0  0
    2.8707    0.2333    0.0000 C   0  0  0  0  0  0  0  0  0  0  0  0
    3.1208    1.7123    0.0000 C   0  0  0  0  0  0  0  0  0  0  0  0
    4.5268    2.2352    0.0000 O   0  0  0  0  0  0  0  0  0  0  0  0
    5.6825    1.2790    0.0000 C   0  0  0  0  0  0  0  0  0  0  0  0
    5.4323   -0.2000    0.0000 O   0  0  0  0  0  0  0  0  0  0  0  0
    6.5881   -1.1562    0.0000 C   0  0  0  0  0  0  0  0  0  0  0  0
    6.3379   -2.6351    0.0000 C   0  0  0  0  0  0  0  0  0  0  0  0
    4.9320   -3.1580    0.0000 O   0  0  0  0  0  0  0  0  0  0  0  0
    7.9940   -0.6333    0.0000 C   0  0  0  0  0  0  0  0  0  0  0  0
    9.1498   -1.5895    0.0000 O   0  0  0  0  0  0  0  0  0  0  0  0
    8.2442    0.8456    0.0000 C   0  0  0  0  0  0  0  0  0  0  0  0
    9.6501    1.3685    0.0000 O   0  0  0  0  0  0  0  0  0  0  0  0
    7.0885    1.8018    0.0000 C   0  0  0  0  0  0  0  0  0  0  0  0
    7.3387    3.2808    0.0000 O   0  0  0  0  0  0  0  0  0  0  0  0
    1.9651    2.6685    0.0000 C   0  0  0  0  0  0  0  0  0  0  0  0
    0.5592    2.1457    0.0000 C   0  0  0  0  0  0  0  0  0  0  0  0
    0.3090    0.6667    0.0000 C   0  0  0  0  0  0  0  0  0  0  0  0
   -0.8468    1.6229    0.0000 C   0  0  0  0  0  0  0  0  0  0  0  0
   -1.0970    0.1439    0.0000 C   0  0  0  0  0  0  0  0  0  0  0  0
   -2.2527    1.1000    0.0000 C   0  0  0  0  0  0  0  0  0  0  0  0
   -3.6586    0.5772    0.0000 C   0  0  0  0  0  0  0  0  0  0  0  0
   -4.8144    1.5334    0.0000 O   0  0  0  0  0  0  0  0  0  0  0  0
   -3.9088   -0.9018    0.0000 C   0  0  0  0  0  0  0  0  0  0  0  0
   -5.1582   -0.0716    0.0000 C   0  0  0  0  0  0  0  0  0  0  0  0
  2  1  1  6
  2  3  1  0
  3  4  1  0
  4  5  1  0
  5  6  2  0
  5  7  1  0
  2  8  1  0
  8  9  1  6
  9 10  1  0
 11 10  1  6
 11 12  1  0
 12 13  1  1
 13 14  1  1
 13 15  1  0
 16 15  1  1
 16 17  1  0
 17 18  1  0
 18 19  1  1
 20 19  1  1
 20 21  1  0
 21 22  1  0
 22 23  1  6
 23 24  1  0
 22 25  1  0
 25 26  1  6
 25 27  1  0
 27 28  1  1
 27 29  1  0
 29 30  1  6
 18 31  1  0
 31 32  1  0
 32 33  1  0
 33 34  1  6
 33 35  1  0
 35 36  1  6
 36 37  1  0
 37 38  1  1
 37 39  1  0
 39 40  1  6
 39  8  1  0
 39 11  1  0
 35 12  1  0
 33 16  1  0
 29 20  1  0
M  END
>  <MS_ID>  (1436) 
MS1496

>  <SMILES>  (1436) 
C[C@H](CCC(=O)O)[C@H]1CC[C@H]2[C@@H]3[C@H](O)C[C@@H]4C[C@H](O[C@@H]5O[C@@H](CO)[C@@H](O)[C@H](O)[C@H]5O)CC[C@]4(C)[C@H]3C[C@H](O)[C@]12C

>  <Structure_dimension>  (1436) 
2D

$$$$
MS1497
     RDKit          2D

 32 35  0  0  0  0  0  0  0  0999 V2000
  -10.8107    3.0070    0.0000 C   0  0  0  0  0  0  0  0  0  0  0  0
   -9.3127    2.9291    0.0000 C   0  0  0  0  0  0  0  0  0  0  0  0
   -8.6311    1.5929    0.0000 C   0  0  0  0  0  0  0  0  0  0  0  0
   -7.1332    1.5150    0.0000 C   0  0  0  0  0  0  0  0  0  0  0  0
   -6.4516    0.1788    0.0000 N   0  0  0  0  0  0  0  0  0  0  0  0
   -4.9536    0.1009    0.0000 C   0  0  0  0  0  0  0  0  0  0  0  0
   -4.1372    1.3592    0.0000 O   0  0  0  0  0  0  0  0  0  0  0  0
   -4.2721   -1.2353    0.0000 C   0  0  0  0  0  0  0  0  0  0  0  0
   -2.7741   -1.3132    0.0000 C   0  0  0  0  0  0  0  0  0  0  0  0
   -2.0926   -2.6494    0.0000 C   0  0  0  0  0  0  0  0  0  0  0  0
   -2.9090   -3.9078    0.0000 C   0  0  0  0  0  0  0  0  0  0  0  0
   -0.5946   -2.7273    0.0000 C   0  0  0  0  0  0  0  0  0  0  0  0
    0.2229   -3.9850    0.0000 C   0  0  0  0  0  0  0  0  0  0  0  0
    1.6716   -3.5962    0.0000 C   0  0  0  0  0  0  0  0  0  0  0  0
    1.7495   -2.0982    0.0000 C   0  0  0  0  0  0  0  0  0  0  0  0
    2.9148   -1.1537    0.0000 C   0  0  0  0  0  0  0  0  0  0  0  0
    4.3154   -1.6907    0.0000 C   0  0  0  0  0  0  0  0  0  0  0  0
    4.5507   -3.1721    0.0000 O   0  0  0  0  0  0  0  0  0  0  0  0
    5.4807   -0.7462    0.0000 C   0  0  0  0  0  0  0  0  0  0  0  0
    5.2455    0.7352    0.0000 C   0  0  0  0  0  0  0  0  0  0  0  0
    6.4108    1.6797    0.0000 C   0  0  0  0  0  0  0  0  0  0  0  0
    6.1755    3.1611    0.0000 C   0  0  0  0  0  0  0  0  0  0  0  0
    7.3408    4.1056    0.0000 O   0  0  0  0  0  0  0  0  0  0  0  0
    4.7749    3.6981    0.0000 C   0  0  0  0  0  0  0  0  0  0  0  0
    3.6096    2.7536    0.0000 C   0  0  0  0  0  0  0  0  0  0  0  0
    3.8449    1.2722    0.0000 C   0  0  0  0  0  0  0  0  0  0  0  0
    2.4443    1.8091    0.0000 C   0  0  0  0  0  0  0  0  0  0  0  0
    2.6795    0.3277    0.0000 C   0  0  0  0  0  0  0  0  0  0  0  0
    1.2789    0.8647    0.0000 C   0  0  0  0  0  0  0  0  0  0  0  0
    0.1136   -0.0798    0.0000 C   0  0  0  0  0  0  0  0  0  0  0  0
    0.3489   -1.5612    0.0000 C   0  0  0  0  0  0  0  0  0  0  0  0
   -1.1002   -1.1736    0.0000 C   0  0  0  0  0  0  0  0  0  0  0  0
  1  2  1  0
  2  3  1  0
  3  4  1  0
  4  5  1  0
  5  6  1  0
  6  7  2  0
  6  8  1  0
  8  9  1  0
  9 10  1  0
 10 11  1  6
 10 12  1  0
 12 13  1  6
 13 14  1  0
 15 14  1  6
 15 16  1  0
 16 17  1  1
 17 18  1  1
 17 19  1  0
 20 19  1  1
 20 21  1  0
 21 22  1  0
 22 23  1  1
 22 24  1  0
 24 25  1  0
 25 26  1  0
 26 27  1  6
 26 28  1  0
 28 29  1  6
 29 30  1  0
 30 31  1  0
 31 32  1  6
 31 12  1  0
 31 15  1  0
 28 16  1  0
 26 20  1  0
M  END
>  <MS_ID>  (1437) 
MS1497

>  <SMILES>  (1437) 
CCCCNC(=O)CC[C@@H](C)[C@H]1CC[C@H]2[C@@H]3[C@H](O)C[C@@H]4C[C@H](O)CC[C@]4(C)[C@H]3CC[C@]12C

>  <Structure_dimension>  (1437) 
2D

$$$$
MS1498
     RDKit          2D

 30 33  0  0  0  0  0  0  0  0999 V2000
   -4.3937   -2.5998    0.0000 C   0  0  0  0  0  0  0  0  0  0  0  0
   -3.3118   -1.5608    0.0000 C   0  0  0  0  0  0  0  0  0  0  0  0
   -3.6708   -0.1044    0.0000 C   0  0  0  0  0  0  0  0  0  0  0  0
   -5.1115    0.3130    0.0000 C   0  0  0  0  0  0  0  0  0  0  0  0
   -5.4705    1.7694    0.0000 C   0  0  0  0  0  0  0  0  0  0  0  0
   -4.3887    2.8085    0.0000 O   0  0  0  0  0  0  0  0  0  0  0  0
   -6.9113    2.1868    0.0000 O   0  0  0  0  0  0  0  0  0  0  0  0
   -1.8711   -1.9781    0.0000 C   0  0  0  0  0  0  0  0  0  0  0  0
   -1.3619   -3.3891    0.0000 C   0  0  0  0  0  0  0  0  0  0  0  0
    0.1374   -3.3408    0.0000 C   0  0  0  0  0  0  0  0  0  0  0  0
    0.5547   -1.9000    0.0000 C   0  0  0  0  0  0  0  0  0  0  0  0
    1.9047   -1.2461    0.0000 C   0  0  0  0  0  0  0  0  0  0  0  0
    3.1460   -2.0882    0.0000 C   0  0  0  0  0  0  0  0  0  0  0  0
    3.0373   -3.5843    0.0000 O   0  0  0  0  0  0  0  0  0  0  0  0
    4.4959   -1.4343    0.0000 C   0  0  0  0  0  0  0  0  0  0  0  0
    4.6046    0.0617    0.0000 C   0  0  0  0  0  0  0  0  0  0  0  0
    5.9546    0.7156    0.0000 C   0  0  0  0  0  0  0  0  0  0  0  0
    6.0633    2.2117    0.0000 C   0  0  0  0  0  0  0  0  0  0  0  0
    4.8220    3.0538    0.0000 C   0  0  0  0  0  0  0  0  0  0  0  0
    3.4720    2.3999    0.0000 C   0  0  0  0  0  0  0  0  0  0  0  0
    3.3633    0.9039    0.0000 C   0  0  0  0  0  0  0  0  0  0  0  0
    2.1221    1.7460    0.0000 C   0  0  0  0  0  0  0  0  0  0  0  0
    2.0134    0.2500    0.0000 C   0  0  0  0  0  0  0  0  0  0  0  0
    0.7721    1.0921    0.0000 C   0  0  0  0  0  0  0  0  0  0  0  0
   -0.5779    0.4382    0.0000 C   0  0  0  0  0  0  0  0  0  0  0  0
   -1.8192    1.2804    0.0000 C   0  0  0  0  0  0  0  0  0  0  0  0
   -3.1691    0.6265    0.0000 O   0  0  0  0  0  0  0  0  0  0  0  0
   -1.7105    2.7764    0.0000 O   0  0  0  0  0  0  0  0  0  0  0  0
   -0.6866   -1.0578    0.0000 C   0  0  0  0  0  0  0  0  0  0  0  0
   -2.0091   -0.3501    0.0000 C   0  0  0  0  0  0  0  0  0  0  0  0
  2  1  1  6
  2  3  1  0
  3  4  1  0
  4  5  1  0
  5  6  2  0
  5  7  1  0
  2  8  1  0
  8  9  1  6
  9 10  1  0
 11 10  1  6
 11 12  1  0
 12 13  1  1
 13 14  1  1
 13 15  1  0
 16 15  1  1
 16 17  1  0
 17 18  1  0
 18 19  1  0
 19 20  1  0
 20 21  1  0
 21 22  1  6
 21 23  1  0
 23 24  1  6
 24 25  1  0
 25 26  1  1
 26 27  2  0
 26 28  1  0
 25 29  1  0
 29 30  1  6
 29  8  1  0
 29 11  1  0
 23 12  1  0
 21 16  1  0
M  END
>  <MS_ID>  (1438) 
MS1498

>  <SMILES>  (1438) 
C[C@H](CCC(=O)O)[C@H]1CC[C@H]2[C@@H]3[C@H](O)C[C@@H]4CCCC[C@]4(C)[C@H]3C[C@H](C(=O)O)[C@]12C

>  <Structure_dimension>  (1438) 
2D

$$$$
MS1499
     RDKit          2D

 34 38  0  0  0  0  0  0  0  0999 V2000
   -2.2608   -4.3306    0.0000 C   0  0  0  0  0  0  0  0  0  0  0  0
   -1.5430   -3.0135    0.0000 C   0  0  0  0  0  0  0  0  0  0  0  0
   -2.3248   -1.7333    0.0000 C   0  0  0  0  0  0  0  0  0  0  0  0
   -3.8244   -1.7702    0.0000 C   0  0  0  0  0  0  0  0  0  0  0  0
   -4.6061   -0.4901    0.0000 C   0  0  0  0  0  0  0  0  0  0  0  0
   -3.8883    0.8271    0.0000 O   0  0  0  0  0  0  0  0  0  0  0  0
   -6.1057   -0.5270    0.0000 C   0  0  0  0  0  0  0  0  0  0  0  0
   -6.8874    0.7532    0.0000 C   0  0  0  0  0  0  0  0  0  0  0  0
   -6.1696    2.0703    0.0000 C   0  0  0  0  0  0  0  0  0  0  0  0
   -6.9514    3.3505    0.0000 C   0  0  0  0  0  0  0  0  0  0  0  0
   -8.4509    3.3135    0.0000 C   0  0  0  0  0  0  0  0  0  0  0  0
   -9.1687    1.9964    0.0000 C   0  0  0  0  0  0  0  0  0  0  0  0
   -8.3870    0.7163    0.0000 C   0  0  0  0  0  0  0  0  0  0  0  0
   -0.0435   -2.9765    0.0000 C   0  0  0  0  0  0  0  0  0  0  0  0
    0.8678   -4.1680    0.0000 C   0  0  0  0  0  0  0  0  0  0  0  0
    2.2825   -3.6695    0.0000 C   0  0  0  0  0  0  0  0  0  0  0  0
    2.2456   -2.1699    0.0000 C   0  0  0  0  0  0  0  0  0  0  0  0
    3.3353   -1.1391    0.0000 C   0  0  0  0  0  0  0  0  0  0  0  0
    4.7728   -1.5673    0.0000 C   0  0  0  0  0  0  0  0  0  0  0  0
    5.1207   -3.0264    0.0000 O   0  0  0  0  0  0  0  0  0  0  0  0
    5.8625   -0.5365    0.0000 C   0  0  0  0  0  0  0  0  0  0  0  0
    5.5146    0.9226    0.0000 C   0  0  0  0  0  0  0  0  0  0  0  0
    6.6043    1.9534    0.0000 C   0  0  0  0  0  0  0  0  0  0  0  0
    6.2564    3.4125    0.0000 C   0  0  0  0  0  0  0  0  0  0  0  0
    7.3460    4.4434    0.0000 O   0  0  0  0  0  0  0  0  0  0  0  0
    4.8188    3.8408    0.0000 C   0  0  0  0  0  0  0  0  0  0  0  0
    3.7291    2.8099    0.0000 C   0  0  0  0  0  0  0  0  0  0  0  0
    4.0770    1.3509    0.0000 C   0  0  0  0  0  0  0  0  0  0  0  0
    2.6395    1.7791    0.0000 C   0  0  0  0  0  0  0  0  0  0  0  0
    2.9874    0.3200    0.0000 C   0  0  0  0  0  0  0  0  0  0  0  0
    1.5498    0.7483    0.0000 C   0  0  0  0  0  0  0  0  0  0  0  0
    0.4601   -0.2826    0.0000 C   0  0  0  0  0  0  0  0  0  0  0  0
    0.8080   -1.7417    0.0000 C   0  0  0  0  0  0  0  0  0  0  0  0
   -0.6664   -1.4660    0.0000 C   0  0  0  0  0  0  0  0  0  0  0  0
  2  1  1  6
  2  3  1  0
  3  4  1  0
  4  5  1  0
  5  6  2  0
  5  7  1  0
  7  8  1  0
  8  9  2  0
  9 10  1  0
 10 11  2  0
 11 12  1  0
 12 13  2  0
  2 14  1  0
 14 15  1  6
 15 16  1  0
 17 16  1  6
 17 18  1  0
 18 19  1  1
 19 20  1  1
 19 21  1  0
 22 21  1  1
 22 23  1  0
 23 24  1  0
 24 25  1  1
 24 26  1  0
 26 27  1  0
 27 28  1  0
 28 29  1  6
 28 30  1  0
 30 31  1  6
 31 32  1  0
 32 33  1  0
 33 34  1  6
 13  8  1  0
 33 14  1  0
 33 17  1  0
 30 18  1  0
 28 22  1  0
M  END
>  <MS_ID>  (1439) 
MS1499

>  <SMILES>  (1439) 
C[C@H](CCC(=O)Cc1ccccc1)[C@H]1CC[C@H]2[C@@H]3[C@H](O)C[C@@H]4C[C@H](O)CC[C@]4(C)[C@H]3CC[C@]12C

>  <Structure_dimension>  (1439) 
2D

$$$$
MS1500
     RDKit          2D

 28 31  0  0  0  0  0  0  0  0999 V2000
   -4.6352   -2.6140    0.0000 C   0  0  0  0  0  0  0  0  0  0  0  0
   -3.5136   -1.6180    0.0000 C   0  0  0  0  0  0  0  0  0  0  0  0
   -3.8154   -0.1486    0.0000 C   0  0  0  0  0  0  0  0  0  0  0  0
   -5.2387    0.3247    0.0000 C   0  0  0  0  0  0  0  0  0  0  0  0
   -5.5405    1.7940    0.0000 C   0  0  0  0  0  0  0  0  0  0  0  0
   -4.4189    2.7900    0.0000 O   0  0  0  0  0  0  0  0  0  0  0  0
   -6.9639    2.2673    0.0000 C   0  0  0  0  0  0  0  0  0  0  0  0
   -7.2657    3.7367    0.0000 N   0  0  0  0  0  0  0  0  0  0  0  0
   -2.0902   -2.0913    0.0000 C   0  0  0  0  0  0  0  0  0  0  0  0
   -1.6365   -3.5210    0.0000 C   0  0  0  0  0  0  0  0  0  0  0  0
   -0.1366   -3.5313    0.0000 C   0  0  0  0  0  0  0  0  0  0  0  0
    0.3368   -2.1080    0.0000 C   0  0  0  0  0  0  0  0  0  0  0  0
    1.7112   -1.5073    0.0000 C   0  0  0  0  0  0  0  0  0  0  0  0
    2.9187   -2.3973    0.0000 C   0  0  0  0  0  0  0  0  0  0  0  0
    4.2932   -1.7966    0.0000 C   0  0  0  0  0  0  0  0  0  0  0  0
    4.4602   -0.3060    0.0000 C   0  0  0  0  0  0  0  0  0  0  0  0
    5.8347    0.2947    0.0000 C   0  0  0  0  0  0  0  0  0  0  0  0
    6.0017    1.7854    0.0000 C   0  0  0  0  0  0  0  0  0  0  0  0
    7.3762    2.3861    0.0000 O   0  0  0  0  0  0  0  0  0  0  0  0
    4.7943    2.6754    0.0000 C   0  0  0  0  0  0  0  0  0  0  0  0
    3.4198    2.0747    0.0000 C   0  0  0  0  0  0  0  0  0  0  0  0
    3.2528    0.5840    0.0000 C   0  0  0  0  0  0  0  0  0  0  0  0
    2.0453    1.4740    0.0000 C   0  0  0  0  0  0  0  0  0  0  0  0
    1.8783   -0.0166    0.0000 C   0  0  0  0  0  0  0  0  0  0  0  0
    0.6708    0.8734    0.0000 C   0  0  0  0  0  0  0  0  0  0  0  0
   -0.7036    0.2727    0.0000 C   0  0  0  0  0  0  0  0  0  0  0  0
   -0.8707   -1.2180    0.0000 C   0  0  0  0  0  0  0  0  0  0  0  0
   -2.1645   -0.4591    0.0000 C   0  0  0  0  0  0  0  0  0  0  0  0
  2  1  1  6
  2  3  1  0
  3  4  1  0
  4  5  1  0
  5  6  2  0
  5  7  1  0
  7  8  1  0
  2  9  1  0
  9 10  1  6
 10 11  1  0
 12 11  1  6
 12 13  1  0
 13 14  1  1
 14 15  1  0
 16 15  1  1
 16 17  1  0
 17 18  1  0
 18 19  1  6
 18 20  1  0
 20 21  1  0
 21 22  1  0
 22 23  1  6
 22 24  1  0
 24 25  1  6
 25 26  1  0
 26 27  1  0
 27 28  1  6
 27  9  1  0
 27 12  1  0
 24 13  1  0
 22 16  1  0
M  END
>  <MS_ID>  (1440) 
MS1500

>  <SMILES>  (1440) 
C[C@H](CCC(=O)CN)[C@H]1CC[C@H]2[C@@H]3CC[C@@H]4C[C@@H](O)CC[C@]4(C)[C@H]3CC[C@]12C

>  <Structure_dimension>  (1440) 
2D

$$$$
MS1501
     RDKit          2D

 30 33  0  0  0  0  0  0  0  0999 V2000
   -5.3211   -2.0238    0.0000 C   0  0  0  0  0  0  0  0  0  0  0  0
   -4.1189   -1.1267    0.0000 C   0  0  0  0  0  0  0  0  0  0  0  0
   -4.2947    0.3629    0.0000 C   0  0  0  0  0  0  0  0  0  0  0  0
   -5.6727    0.9555    0.0000 C   0  0  0  0  0  0  0  0  0  0  0  0
   -5.8485    2.4452    0.0000 C   0  0  0  0  0  0  0  0  0  0  0  0
   -4.6463    3.3422    0.0000 O   0  0  0  0  0  0  0  0  0  0  0  0
   -7.2265    3.0377    0.0000 O   0  0  0  0  0  0  0  0  0  0  0  0
   -2.7409   -1.7193    0.0000 C   0  0  0  0  0  0  0  0  0  0  0  0
   -2.4104   -3.1825    0.0000 C   0  0  0  0  0  0  0  0  0  0  0  0
   -0.9167   -3.3202    0.0000 C   0  0  0  0  0  0  0  0  0  0  0  0
   -0.3241   -1.9422    0.0000 C   0  0  0  0  0  0  0  0  0  0  0  0
    1.0964   -1.4605    0.0000 C   0  0  0  0  0  0  0  0  0  0  0  0
    2.2239   -2.4499    0.0000 C   0  0  0  0  0  0  0  0  0  0  0  0
    1.9307   -3.9210    0.0000 O   0  0  0  0  0  0  0  0  0  0  0  0
    3.6444   -1.9683    0.0000 C   0  0  0  0  0  0  0  0  0  0  0  0
    3.9375   -0.4972    0.0000 C   0  0  0  0  0  0  0  0  0  0  0  0
    5.3581   -0.0155    0.0000 C   0  0  0  0  0  0  0  0  0  0  0  0
    5.6512    1.4556    0.0000 C   0  0  0  0  0  0  0  0  0  0  0  0
    6.4298    2.7377    0.0000 C   0  0  0  0  0  0  0  0  0  0  0  0
    7.0491    0.9114    0.0000 O   0  0  0  0  0  0  0  0  0  0  0  0
    4.5238    2.4450    0.0000 C   0  0  0  0  0  0  0  0  0  0  0  0
    3.1033    1.9633    0.0000 C   0  0  0  0  0  0  0  0  0  0  0  0
    2.8101    0.4922    0.0000 C   0  0  0  0  0  0  0  0  0  0  0  0
    1.6827    1.4816    0.0000 C   0  0  0  0  0  0  0  0  0  0  0  0
    1.3896    0.0105    0.0000 C   0  0  0  0  0  0  0  0  0  0  0  0
    0.2621    0.9999    0.0000 C   0  0  0  0  0  0  0  0  0  0  0  0
   -1.1584    0.5183    0.0000 C   0  0  0  0  0  0  0  0  0  0  0  0
   -2.2858    1.5077    0.0000 O   0  0  0  0  0  0  0  0  0  0  0  0
   -1.4515   -0.9528    0.0000 C   0  0  0  0  0  0  0  0  0  0  0  0
   -2.6762   -0.0867    0.0000 C   0  0  0  0  0  0  0  0  0  0  0  0
  2  1  1  6
  2  3  1  0
  3  4  1  0
  4  5  1  0
  5  6  2  0
  5  7  1  0
  2  8  1  0
  8  9  1  6
  9 10  1  0
 11 10  1  6
 11 12  1  0
 12 13  1  1
 13 14  1  1
 13 15  1  0
 16 15  1  1
 16 17  1  0
 17 18  1  0
 18 19  1  1
 18 20  1  0
 18 21  1  0
 21 22  1  0
 22 23  1  0
 23 24  1  6
 23 25  1  0
 25 26  1  6
 26 27  1  0
 27 28  1  6
 27 29  1  0
 29 30  1  6
 29  8  1  0
 29 11  1  0
 25 12  1  0
 23 16  1  0
M  END
>  <MS_ID>  (1441) 
MS1501

>  <SMILES>  (1441) 
C[C@H](CCC(=O)O)[C@H]1CC[C@H]2[C@@H]3[C@H](O)C[C@@H]4C[C@@](C)(O)CC[C@]4(C)[C@H]3C[C@@H](O)[C@]12C

>  <Structure_dimension>  (1441) 
2D

$$$$
MS1502
     RDKit          2D

 30 33  0  0  0  0  0  0  0  0999 V2000
   -4.1099   -3.1124    0.0000 C   0  0  0  0  0  0  0  0  0  0  0  0
   -3.1089   -1.9953    0.0000 C   0  0  0  0  0  0  0  0  0  0  0  0
   -3.5759   -0.5698    0.0000 C   0  0  0  0  0  0  0  0  0  0  0  0
   -5.0438   -0.2615    0.0000 C   0  0  0  0  0  0  0  0  0  0  0  0
   -5.5108    1.1640    0.0000 C   0  0  0  0  0  0  0  0  0  0  0  0
   -4.5097    2.2811    0.0000 O   0  0  0  0  0  0  0  0  0  0  0  0
   -6.9787    1.4724    0.0000 C   0  0  0  0  0  0  0  0  0  0  0  0
   -7.4457    2.8978    0.0000 C   0  0  0  0  0  0  0  0  0  0  0  0
   -8.9136    3.2062    0.0000 Cl  0  0  0  0  0  0  0  0  0  0  0  0
   -1.6409   -2.3036    0.0000 C   0  0  0  0  0  0  0  0  0  0  0  0
   -1.0276   -3.6725    0.0000 C   0  0  0  0  0  0  0  0  0  0  0  0
    0.4638   -3.5121    0.0000 C   0  0  0  0  0  0  0  0  0  0  0  0
    0.7722   -2.0441    0.0000 C   0  0  0  0  0  0  0  0  0  0  0  0
    2.0694   -1.2910    0.0000 C   0  0  0  0  0  0  0  0  0  0  0  0
    3.3703   -2.0379    0.0000 C   0  0  0  0  0  0  0  0  0  0  0  0
    3.3739   -3.5379    0.0000 O   0  0  0  0  0  0  0  0  0  0  0  0
    4.6675   -1.2848    0.0000 C   0  0  0  0  0  0  0  0  0  0  0  0
    4.6639    0.2152    0.0000 C   0  0  0  0  0  0  0  0  0  0  0  0
    5.9611    0.9683    0.0000 C   0  0  0  0  0  0  0  0  0  0  0  0
    5.9575    2.4683    0.0000 C   0  0  0  0  0  0  0  0  0  0  0  0
    7.2548    3.2214    0.0000 O   0  0  0  0  0  0  0  0  0  0  0  0
    4.6567    3.2152    0.0000 C   0  0  0  0  0  0  0  0  0  0  0  0
    3.3595    2.4621    0.0000 C   0  0  0  0  0  0  0  0  0  0  0  0
    3.3631    0.9621    0.0000 C   0  0  0  0  0  0  0  0  0  0  0  0
    2.0622    1.7090    0.0000 C   0  0  0  0  0  0  0  0  0  0  0  0
    2.0658    0.2090    0.0000 C   0  0  0  0  0  0  0  0  0  0  0  0
    0.7650    0.9559    0.0000 C   0  0  0  0  0  0  0  0  0  0  0  0
   -0.5322    0.2027    0.0000 C   0  0  0  0  0  0  0  0  0  0  0  0
   -0.5286   -1.2973    0.0000 C   0  0  0  0  0  0  0  0  0  0  0  0
   -1.9004   -0.6904    0.0000 C   0  0  0  0  0  0  0  0  0  0  0  0
  2  1  1  6
  2  3  1  0
  3  4  1  0
  4  5  1  0
  5  6  2  0
  5  7  1  0
  7  8  1  0
  8  9  1  0
  2 10  1  0
 10 11  1  6
 11 12  1  0
 13 12  1  6
 13 14  1  0
 14 15  1  1
 15 16  1  6
 15 17  1  0
 18 17  1  1
 18 19  1  0
 19 20  1  0
 20 21  1  1
 20 22  1  0
 22 23  1  0
 23 24  1  0
 24 25  1  6
 24 26  1  0
 26 27  1  6
 27 28  1  0
 28 29  1  0
 29 30  1  6
 29 10  1  0
 29 13  1  0
 26 14  1  0
 24 18  1  0
M  END
>  <MS_ID>  (1442) 
MS1502

>  <SMILES>  (1442) 
C[C@H](CCC(=O)CCCl)[C@H]1CC[C@H]2[C@@H]3[C@@H](O)C[C@@H]4C[C@H](O)CC[C@]4(C)[C@H]3CC[C@]12C

>  <Structure_dimension>  (1442) 
2D

$$$$
MS1503
     RDKit          2D

 31 34  0  0  0  0  0  0  0  0999 V2000
   -4.3058   -2.9986    0.0000 C   0  0  0  0  0  0  0  0  0  0  0  0
   -3.2228   -1.9608    0.0000 C   0  0  0  0  0  0  0  0  0  0  0  0
   -3.5801   -0.5039    0.0000 C   0  0  0  0  0  0  0  0  0  0  0  0
   -5.0204   -0.0850    0.0000 C   0  0  0  0  0  0  0  0  0  0  0  0
   -5.3777    1.3719    0.0000 C   0  0  0  0  0  0  0  0  0  0  0  0
   -6.8180    1.7908    0.0000 O   0  0  0  0  0  0  0  0  0  0  0  0
   -4.2947    2.4097    0.0000 S   0  0  0  0  0  0  0  0  0  0  0  0
   -5.3326    3.4927    0.0000 O   0  0  0  0  0  0  0  0  0  0  0  0
   -3.2569    1.3267    0.0000 O   0  0  0  0  0  0  0  0  0  0  0  0
   -3.2117    3.4476    0.0000 O   0  0  0  0  0  0  0  0  0  0  0  0
   -1.7825   -2.3797    0.0000 C   0  0  0  0  0  0  0  0  0  0  0  0
   -1.2749   -3.7912    0.0000 C   0  0  0  0  0  0  0  0  0  0  0  0
    0.2244   -3.7446    0.0000 C   0  0  0  0  0  0  0  0  0  0  0  0
    0.6434   -2.3043    0.0000 C   0  0  0  0  0  0  0  0  0  0  0  0
    1.9941   -1.6519    0.0000 C   0  0  0  0  0  0  0  0  0  0  0  0
    3.2344   -2.4955    0.0000 C   0  0  0  0  0  0  0  0  0  0  0  0
    4.5851   -1.8431    0.0000 C   0  0  0  0  0  0  0  0  0  0  0  0
    4.6955   -0.3472    0.0000 C   0  0  0  0  0  0  0  0  0  0  0  0
    6.0462    0.3052    0.0000 C   0  0  0  0  0  0  0  0  0  0  0  0
    6.1565    1.8012    0.0000 C   0  0  0  0  0  0  0  0  0  0  0  0
    7.5072    2.4536    0.0000 O   0  0  0  0  0  0  0  0  0  0  0  0
    4.9162    2.6447    0.0000 C   0  0  0  0  0  0  0  0  0  0  0  0
    3.5655    1.9923    0.0000 C   0  0  0  0  0  0  0  0  0  0  0  0
    3.4551    0.4964    0.0000 C   0  0  0  0  0  0  0  0  0  0  0  0
    2.2148    1.3399    0.0000 C   0  0  0  0  0  0  0  0  0  0  0  0
    2.1044   -0.1560    0.0000 C   0  0  0  0  0  0  0  0  0  0  0  0
    0.8641    0.6875    0.0000 C   0  0  0  0  0  0  0  0  0  0  0  0
   -0.4866    0.0352    0.0000 C   0  0  0  0  0  0  0  0  0  0  0  0
   -1.7269    0.8787    0.0000 O   0  0  0  0  0  0  0  0  0  0  0  0
   -0.5969   -1.4608    0.0000 C   0  0  0  0  0  0  0  0  0  0  0  0
   -1.9187   -0.7515    0.0000 C   0  0  0  0  0  0  0  0  0  0  0  0
  2  1  1  6
  2  3  1  0
  3  4  1  0
  4  5  1  0
  5  6  2  0
  5  7  1  0
  7  8  2  0
  7  9  2  0
  7 10  1  0
  2 11  1  0
 11 12  1  6
 12 13  1  0
 14 13  1  6
 14 15  1  0
 15 16  1  1
 16 17  1  0
 18 17  1  1
 18 19  1  0
 19 20  1  0
 20 21  1  1
 20 22  1  0
 22 23  1  0
 23 24  1  0
 24 25  1  6
 24 26  1  0
 26 27  1  6
 27 28  1  0
 28 29  1  6
 28 30  1  0
 30 31  1  6
 30 11  1  0
 30 14  1  0
 26 15  1  0
 24 18  1  0
M  END
>  <MS_ID>  (1443) 
MS1503

>  <SMILES>  (1443) 
C[C@H](CCC(=O)S(=O)(=O)O)[C@H]1CC[C@H]2[C@@H]3CC[C@@H]4C[C@H](O)CC[C@]4(C)[C@H]3C[C@@H](O)[C@]12C

>  <Structure_dimension>  (1443) 
2D

$$$$
MS1504
     RDKit          2D

 33 36  0  0  0  0  0  0  0  0999 V2000
   -4.7442   -3.3851    0.0000 C   0  0  0  0  0  0  0  0  0  0  0  0
   -4.0753   -2.0426    0.0000 C   0  0  0  0  0  0  0  0  0  0  0  0
   -4.9035   -0.7919    0.0000 C   0  0  0  0  0  0  0  0  0  0  0  0
   -6.4007   -0.8839    0.0000 C   0  0  0  0  0  0  0  0  0  0  0  0
   -7.2289    0.3667    0.0000 C   0  0  0  0  0  0  0  0  0  0  0  0
   -6.5600    1.7093    0.0000 O   0  0  0  0  0  0  0  0  0  0  0  0
   -8.7261    0.2747    0.0000 O   0  0  0  0  0  0  0  0  0  0  0  0
   -2.5781   -1.9506    0.0000 C   0  0  0  0  0  0  0  0  0  0  0  0
   -1.6237   -3.1078    0.0000 C   0  0  0  0  0  0  0  0  0  0  0  0
   -0.2282   -2.5577    0.0000 C   0  0  0  0  0  0  0  0  0  0  0  0
   -0.3202   -1.0605    0.0000 C   0  0  0  0  0  0  0  0  0  0  0  0
    0.7309    0.0097    0.0000 C   0  0  0  0  0  0  0  0  0  0  0  0
    2.1832   -0.3655    0.0000 C   0  0  0  0  0  0  0  0  0  0  0  0
    2.5845   -1.8109    0.0000 C   0  0  0  0  0  0  0  0  0  0  0  0
    4.0368   -2.1861    0.0000 C   0  0  0  0  0  0  0  0  0  0  0  0
    4.4380   -3.6314    0.0000 C   0  0  0  0  0  0  0  0  0  0  0  0
    5.8903   -4.0066    0.0000 C   0  0  0  0  0  0  0  0  0  0  0  0
    6.9414   -2.9364    0.0000 O   0  0  0  0  0  0  0  0  0  0  0  0
    6.2916   -5.4519    0.0000 O   0  0  0  0  0  0  0  0  0  0  0  0
    3.2343    0.7046    0.0000 C   0  0  0  0  0  0  0  0  0  0  0  0
    2.8331    2.1500    0.0000 C   0  0  0  0  0  0  0  0  0  0  0  0
    3.8842    3.2201    0.0000 C   0  0  0  0  0  0  0  0  0  0  0  0
    3.4829    4.6655    0.0000 C   0  0  0  0  0  0  0  0  0  0  0  0
    4.5340    5.7356    0.0000 O   0  0  0  0  0  0  0  0  0  0  0  0
    2.0306    5.0407    0.0000 C   0  0  0  0  0  0  0  0  0  0  0  0
    0.9795    3.9705    0.0000 C   0  0  0  0  0  0  0  0  0  0  0  0
    1.3807    2.5252    0.0000 C   0  0  0  0  0  0  0  0  0  0  0  0
   -0.0716    2.9003    0.0000 C   0  0  0  0  0  0  0  0  0  0  0  0
    0.3297    1.4550    0.0000 C   0  0  0  0  0  0  0  0  0  0  0  0
   -1.1227    1.8302    0.0000 C   0  0  0  0  0  0  0  0  0  0  0  0
   -2.1737    0.7600    0.0000 C   0  0  0  0  0  0  0  0  0  0  0  0
   -1.7725   -0.6853    0.0000 C   0  0  0  0  0  0  0  0  0  0  0  0
   -3.2561   -0.4640    0.0000 C   0  0  0  0  0  0  0  0  0  0  0  0
  2  1  1  6
  2  3  1  0
  3  4  1  0
  4  5  1  0
  5  6  2  0
  5  7  1  0
  2  8  1  0
  8  9  1  6
  9 10  1  0
 11 10  1  6
 11 12  1  0
 12 13  1  1
 13 14  1  6
 14 15  1  0
 15 16  1  0
 16 17  1  0
 17 18  2  0
 17 19  1  0
 13 20  1  0
 21 20  1  1
 21 22  1  0
 22 23  1  0
 23 24  1  1
 23 25  1  0
 25 26  1  0
 26 27  1  0
 27 28  1  6
 27 29  1  0
 29 30  1  6
 30 31  1  0
 31 32  1  0
 32 33  1  6
 32  8  1  0
 32 11  1  0
 29 12  1  0
 27 21  1  0
M  END
>  <MS_ID>  (1444) 
MS1504

>  <SMILES>  (1444) 
C[C@H](CCC(=O)O)[C@H]1CC[C@H]2[C@@H]3[C@@H](CCCC(=O)O)C[C@@H]4C[C@H](O)CC[C@]4(C)[C@H]3CC[C@]12C

>  <Structure_dimension>  (1444) 
2D

$$$$
MS1505
     RDKit          2D

 29 32  0  0  0  0  0  0  0  0999 V2000
   -5.4192   -1.9418    0.0000 C   0  0  0  0  0  0  0  0  0  0  0  0
   -4.1779   -1.0997    0.0000 C   0  0  0  0  0  0  0  0  0  0  0  0
   -4.2866    0.3964    0.0000 C   0  0  0  0  0  0  0  0  0  0  0  0
   -5.6365    1.0503    0.0000 C   0  0  0  0  0  0  0  0  0  0  0  0
   -5.7452    2.5464    0.0000 C   0  0  0  0  0  0  0  0  0  0  0  0
   -4.5039    3.3885    0.0000 O   0  0  0  0  0  0  0  0  0  0  0  0
   -7.0951    3.2003    0.0000 O   0  0  0  0  0  0  0  0  0  0  0  0
   -2.8279   -1.7536    0.0000 C   0  0  0  0  0  0  0  0  0  0  0  0
   -2.5635   -3.2301    0.0000 C   0  0  0  0  0  0  0  0  0  0  0  0
   -1.0775   -3.4348    0.0000 C   0  0  0  0  0  0  0  0  0  0  0  0
   -0.4236   -2.0849    0.0000 C   0  0  0  0  0  0  0  0  0  0  0  0
    1.0172   -1.6675    0.0000 C   0  0  0  0  0  0  0  0  0  0  0  0
    2.0990   -2.7066    0.0000 C   0  0  0  0  0  0  0  0  0  0  0  0
    3.5398   -2.2893    0.0000 C   0  0  0  0  0  0  0  0  0  0  0  0
    3.8987   -0.8329    0.0000 C   0  0  0  0  0  0  0  0  0  0  0  0
    5.3395   -0.4155    0.0000 C   0  0  0  0  0  0  0  0  0  0  0  0
    5.6985    1.0409    0.0000 C   0  0  0  0  0  0  0  0  0  0  0  0
    7.1392    1.4582    0.0000 C   0  0  0  0  0  0  0  0  0  0  0  0
    8.5800    1.8756    0.0000 N   0  0  0  0  0  0  0  0  0  0  0  0
    4.6166    2.0800    0.0000 C   0  0  0  0  0  0  0  0  0  0  0  0
    3.1759    1.6626    0.0000 C   0  0  0  0  0  0  0  0  0  0  0  0
    2.8169    0.2062    0.0000 C   0  0  0  0  0  0  0  0  0  0  0  0
    1.7351    1.2453    0.0000 C   0  0  0  0  0  0  0  0  0  0  0  0
    1.3761   -0.2111    0.0000 C   0  0  0  0  0  0  0  0  0  0  0  0
    0.2943    0.8280    0.0000 C   0  0  0  0  0  0  0  0  0  0  0  0
   -1.1464    0.4106    0.0000 C   0  0  0  0  0  0  0  0  0  0  0  0
   -2.2283    1.4497    0.0000 O   0  0  0  0  0  0  0  0  0  0  0  0
   -1.5054   -1.0458    0.0000 C   0  0  0  0  0  0  0  0  0  0  0  0
   -2.6899   -0.1255    0.0000 C   0  0  0  0  0  0  0  0  0  0  0  0
  2  1  1  6
  2  3  1  0
  3  4  1  0
  4  5  1  0
  5  6  2  0
  5  7  1  0
  2  8  1  0
  8  9  1  6
  9 10  1  0
 11 10  1  6
 11 12  1  0
 12 13  1  1
 13 14  1  0
 15 14  1  1
 15 16  1  0
 16 17  1  0
 17 18  1  1
 18 19  3  0
 17 20  1  0
 20 21  1  0
 21 22  1  0
 22 23  1  6
 22 24  1  0
 24 25  1  6
 25 26  1  0
 26 27  1  1
 26 28  1  0
 28 29  1  6
 28  8  1  0
 28 11  1  0
 24 12  1  0
 22 15  1  0
M  END
>  <MS_ID>  (1445) 
MS1505

>  <SMILES>  (1445) 
C[C@H](CCC(=O)O)[C@H]1CC[C@H]2[C@@H]3CC[C@@H]4C[C@H](C#N)CC[C@]4(C)[C@H]3C[C@H](O)[C@]12C

>  <Structure_dimension>  (1445) 
2D

$$$$
MS1506
     RDKit          2D

 28 31  0  0  0  0  0  0  0  0999 V2000
   -4.2208   -2.8067    0.0000 C   0  0  0  0  0  0  0  0  0  0  0  0
   -3.1997   -1.7079    0.0000 C   0  0  0  0  0  0  0  0  0  0  0  0
   -3.6407   -0.2742    0.0000 C   0  0  0  0  0  0  0  0  0  0  0  0
   -5.1028    0.0607    0.0000 C   0  0  0  0  0  0  0  0  0  0  0  0
   -5.5438    1.4944    0.0000 C   0  0  0  0  0  0  0  0  0  0  0  0
   -4.5227    2.5932    0.0000 O   0  0  0  0  0  0  0  0  0  0  0  0
   -7.0059    1.8294    0.0000 C   0  0  0  0  0  0  0  0  0  0  0  0
   -7.4469    3.2631    0.0000 S   0  0  0  0  0  0  0  0  0  0  0  0
   -1.7376   -2.0429    0.0000 C   0  0  0  0  0  0  0  0  0  0  0  0
   -1.1491   -3.4226    0.0000 C   0  0  0  0  0  0  0  0  0  0  0  0
    0.3450   -3.2894    0.0000 C   0  0  0  0  0  0  0  0  0  0  0  0
    0.6799   -1.8272    0.0000 C   0  0  0  0  0  0  0  0  0  0  0  0
    1.9906   -1.0978    0.0000 C   0  0  0  0  0  0  0  0  0  0  0  0
    3.2777   -1.8682    0.0000 C   0  0  0  0  0  0  0  0  0  0  0  0
    3.2540   -3.3680    0.0000 O   0  0  0  0  0  0  0  0  0  0  0  0
    4.5883   -1.1387    0.0000 C   0  0  0  0  0  0  0  0  0  0  0  0
    4.6120    0.3611    0.0000 C   0  0  0  0  0  0  0  0  0  0  0  0
    5.9227    1.0905    0.0000 C   0  0  0  0  0  0  0  0  0  0  0  0
    5.9463    2.5904    0.0000 C   0  0  0  0  0  0  0  0  0  0  0  0
    4.6592    3.3607    0.0000 C   0  0  0  0  0  0  0  0  0  0  0  0
    3.3485    2.6313    0.0000 C   0  0  0  0  0  0  0  0  0  0  0  0
    3.3249    1.1315    0.0000 C   0  0  0  0  0  0  0  0  0  0  0  0
    2.0379    1.9018    0.0000 C   0  0  0  0  0  0  0  0  0  0  0  0
    2.0142    0.4020    0.0000 C   0  0  0  0  0  0  0  0  0  0  0  0
    0.7272    1.1724    0.0000 C   0  0  0  0  0  0  0  0  0  0  0  0
   -0.5835    0.4430    0.0000 C   0  0  0  0  0  0  0  0  0  0  0  0
   -0.6072   -1.0569    0.0000 C   0  0  0  0  0  0  0  0  0  0  0  0
   -1.9677   -0.4252    0.0000 C   0  0  0  0  0  0  0  0  0  0  0  0
  2  1  1  6
  2  3  1  0
  3  4  1  0
  4  5  1  0
  5  6  2  0
  5  7  1  0
  7  8  1  0
  2  9  1  0
  9 10  1  6
 10 11  1  0
 12 11  1  6
 12 13  1  0
 13 14  1  1
 14 15  1  1
 14 16  1  0
 17 16  1  1
 17 18  1  0
 18 19  1  0
 19 20  1  0
 20 21  1  0
 21 22  1  0
 22 23  1  6
 22 24  1  0
 24 25  1  6
 25 26  1  0
 26 27  1  0
 27 28  1  6
 27  9  1  0
 27 12  1  0
 24 13  1  0
 22 17  1  0
M  END
>  <MS_ID>  (1446) 
MS1506

>  <SMILES>  (1446) 
C[C@H](CCC(=O)CS)[C@H]1CC[C@H]2[C@@H]3[C@H](O)C[C@@H]4CCCC[C@]4(C)[C@H]3CC[C@]12C

>  <Structure_dimension>  (1446) 
2D

$$$$
MS1507
     RDKit          2D

 37 42  0  0  0  0  0  0  0  0999 V2000
   -1.9323   -3.8404    0.0000 C   0  0  0  0  0  0  0  0  0  0  0  0
   -1.0987   -2.5934    0.0000 C   0  0  0  0  0  0  0  0  0  0  0  0
   -1.7619   -1.2479    0.0000 C   0  0  0  0  0  0  0  0  0  0  0  0
   -3.2586   -1.1495    0.0000 C   0  0  0  0  0  0  0  0  0  0  0  0
   -3.9218    0.1959    0.0000 C   0  0  0  0  0  0  0  0  0  0  0  0
   -3.0882    1.4430    0.0000 O   0  0  0  0  0  0  0  0  0  0  0  0
   -5.4185    0.2944    0.0000 C   0  0  0  0  0  0  0  0  0  0  0  0
   -6.2522   -0.9527    0.0000 C   0  0  0  0  0  0  0  0  0  0  0  0
   -7.7489   -0.8542    0.0000 C   0  0  0  0  0  0  0  0  0  0  0  0
   -8.4121    0.4912    0.0000 C   0  0  0  0  0  0  0  0  0  0  0  0
   -9.8557    0.8987    0.0000 N   0  0  0  0  0  0  0  0  0  0  0  0
   -9.9142    2.3975    0.0000 C   0  0  0  0  0  0  0  0  0  0  0  0
   -8.5069    2.9164    0.0000 C   0  0  0  0  0  0  0  0  0  0  0  0
   -7.5785    1.7382    0.0000 C   0  0  0  0  0  0  0  0  0  0  0  0
   -6.0817    1.6398    0.0000 C   0  0  0  0  0  0  0  0  0  0  0  0
    0.3980   -2.6918    0.0000 C   0  0  0  0  0  0  0  0  0  0  0  0
    1.1982   -3.9606    0.0000 C   0  0  0  0  0  0  0  0  0  0  0  0
    2.6521   -3.5917    0.0000 C   0  0  0  0  0  0  0  0  0  0  0  0
    2.7505   -2.0949    0.0000 C   0  0  0  0  0  0  0  0  0  0  0  0
    3.9287   -1.1665    0.0000 C   0  0  0  0  0  0  0  0  0  0  0  0
    5.3218   -1.7226    0.0000 C   0  0  0  0  0  0  0  0  0  0  0  0
    5.5367   -3.2072    0.0000 O   0  0  0  0  0  0  0  0  0  0  0  0
    6.5000   -0.7942    0.0000 C   0  0  0  0  0  0  0  0  0  0  0  0
    6.2851    0.6903    0.0000 C   0  0  0  0  0  0  0  0  0  0  0  0
    7.4632    1.6187    0.0000 C   0  0  0  0  0  0  0  0  0  0  0  0
    7.2483    3.1032    0.0000 C   0  0  0  0  0  0  0  0  0  0  0  0
    8.4265    4.0316    0.0000 O   0  0  0  0  0  0  0  0  0  0  0  0
    5.8552    3.6593    0.0000 C   0  0  0  0  0  0  0  0  0  0  0  0
    4.6770    2.7309    0.0000 C   0  0  0  0  0  0  0  0  0  0  0  0
    4.8920    1.2464    0.0000 C   0  0  0  0  0  0  0  0  0  0  0  0
    3.4989    1.8025    0.0000 C   0  0  0  0  0  0  0  0  0  0  0  0
    3.7138    0.3180    0.0000 C   0  0  0  0  0  0  0  0  0  0  0  0
    2.3207    0.8742    0.0000 C   0  0  0  0  0  0  0  0  0  0  0  0
    1.1425   -0.0542    0.0000 C   0  0  0  0  0  0  0  0  0  0  0  0
   -0.2506    0.5019    0.0000 O   0  0  0  0  0  0  0  0  0  0  0  0
    1.3575   -1.5388    0.0000 C   0  0  0  0  0  0  0  0  0  0  0  0
   -0.0861   -1.1313    0.0000 C   0  0  0  0  0  0  0  0  0  0  0  0
  2  1  1  6
  2  3  1  0
  3  4  1  0
  4  5  1  0
  5  6  2  0
  5  7  1  0
  7  8  2  0
  8  9  1  0
  9 10  2  0
 10 11  1  0
 11 12  1  0
 12 13  2  0
 13 14  1  0
 14 15  2  0
  2 16  1  0
 16 17  1  6
 17 18  1  0
 19 18  1  6
 19 20  1  0
 20 21  1  1
 21 22  1  1
 21 23  1  0
 24 23  1  1
 24 25  1  0
 25 26  1  0
 26 27  1  1
 26 28  1  0
 28 29  1  0
 29 30  1  0
 30 31  1  6
 30 32  1  0
 32 33  1  6
 33 34  1  0
 34 35  1  1
 34 36  1  0
 36 37  1  6
 15  7  1  0
 36 16  1  0
 14 10  1  0
 36 19  1  0
 32 20  1  0
 30 24  1  0
M  END
>  <MS_ID>  (1447) 
MS1507

>  <SMILES>  (1447) 
C[C@H](CCC(=O)c1ccc2[nH]ccc2c1)[C@H]1CC[C@H]2[C@@H]3[C@H](O)C[C@@H]4C[C@H](O)CC[C@]4(C)[C@H]3C[C@H](O)[C@]12C

>  <Structure_dimension>  (1447) 
2D

$$$$
MS1508
     RDKit          2D

 29 32  0  0  0  0  0  0  0  0999 V2000
   -3.2223   -3.5573    0.0000 C   0  0  0  0  0  0  0  0  0  0  0  0
   -2.3229   -2.3569    0.0000 C   0  0  0  0  0  0  0  0  0  0  0  0
   -2.9127   -0.9778    0.0000 C   0  0  0  0  0  0  0  0  0  0  0  0
   -4.4021   -0.7990    0.0000 C   0  0  0  0  0  0  0  0  0  0  0  0
   -4.9919    0.5801    0.0000 C   0  0  0  0  0  0  0  0  0  0  0  0
   -4.0925    1.7805    0.0000 O   0  0  0  0  0  0  0  0  0  0  0  0
   -6.4812    0.7588    0.0000 C   0  0  0  0  0  0  0  0  0  0  0  0
   -7.0711    2.1380    0.0000 C   0  0  0  0  0  0  0  0  0  0  0  0
   -6.1717    3.3384    0.0000 O   0  0  0  0  0  0  0  0  0  0  0  0
   -8.5604    2.3167    0.0000 O   0  0  0  0  0  0  0  0  0  0  0  0
   -0.8336   -2.5356    0.0000 C   0  0  0  0  0  0  0  0  0  0  0  0
   -0.1027   -3.8456    0.0000 C   0  0  0  0  0  0  0  0  0  0  0  0
    1.3689   -3.5553    0.0000 C   0  0  0  0  0  0  0  0  0  0  0  0
    1.5476   -2.0660    0.0000 C   0  0  0  0  0  0  0  0  0  0  0  0
    2.7740   -1.2023    0.0000 C   0  0  0  0  0  0  0  0  0  0  0  0
    4.1352   -1.8325    0.0000 C   0  0  0  0  0  0  0  0  0  0  0  0
    5.3616   -0.9688    0.0000 C   0  0  0  0  0  0  0  0  0  0  0  0
    5.2267    0.5252    0.0000 C   0  0  0  0  0  0  0  0  0  0  0  0
    6.4531    1.3889    0.0000 C   0  0  0  0  0  0  0  0  0  0  0  0
    6.3183    2.8828    0.0000 C   0  0  0  0  0  0  0  0  0  0  0  0
    4.9571    3.5130    0.0000 C   0  0  0  0  0  0  0  0  0  0  0  0
    3.7307    2.6493    0.0000 C   0  0  0  0  0  0  0  0  0  0  0  0
    3.8655    1.1554    0.0000 C   0  0  0  0  0  0  0  0  0  0  0  0
    2.5044    1.7856    0.0000 C   0  0  0  0  0  0  0  0  0  0  0  0
    2.6392    0.2916    0.0000 C   0  0  0  0  0  0  0  0  0  0  0  0
    1.2780    0.9218    0.0000 C   0  0  0  0  0  0  0  0  0  0  0  0
    0.0516    0.0581    0.0000 C   0  0  0  0  0  0  0  0  0  0  0  0
    0.1864   -1.4358    0.0000 C   0  0  0  0  0  0  0  0  0  0  0  0
   -1.2332   -0.9513    0.0000 C   0  0  0  0  0  0  0  0  0  0  0  0
  2  1  1  6
  2  3  1  0
  3  4  1  0
  4  5  1  0
  5  6  2  0
  5  7  1  0
  7  8  1  0
  8  9  2  0
  8 10  1  0
  2 11  1  0
 11 12  1  6
 12 13  1  0
 14 13  1  6
 14 15  1  0
 15 16  1  1
 16 17  1  0
 18 17  1  1
 18 19  1  0
 19 20  1  0
 20 21  1  0
 21 22  1  0
 22 23  1  0
 23 24  1  6
 23 25  1  0
 25 26  1  6
 26 27  1  0
 27 28  1  0
 28 29  1  6
 28 11  1  0
 28 14  1  0
 25 15  1  0
 23 18  1  0
M  END
>  <MS_ID>  (1448) 
MS1508

>  <SMILES>  (1448) 
C[C@H](CCC(=O)CC(=O)O)[C@H]1CC[C@H]2[C@@H]3CC[C@@H]4CCCC[C@]4(C)[C@H]3CC[C@]12C

>  <Structure_dimension>  (1448) 
2D

$$$$
MS1509
     RDKit          2D

 29 32  0  0  0  0  0  0  0  0999 V2000
   -4.6551   -2.6180    0.0000 C   0  0  0  0  0  0  0  0  0  0  0  0
   -3.5633   -1.5894    0.0000 C   0  0  0  0  0  0  0  0  0  0  0  0
   -3.9081   -0.1296    0.0000 C   0  0  0  0  0  0  0  0  0  0  0  0
   -5.3448    0.3016    0.0000 C   0  0  0  0  0  0  0  0  0  0  0  0
   -5.6897    1.7615    0.0000 C   0  0  0  0  0  0  0  0  0  0  0  0
   -4.5979    2.7900    0.0000 O   0  0  0  0  0  0  0  0  0  0  0  0
   -7.1264    2.1927    0.0000 C   0  0  0  0  0  0  0  0  0  0  0  0
   -7.4712    3.6525    0.0000 F   0  0  0  0  0  0  0  0  0  0  0  0
   -2.1266   -2.0207    0.0000 C   0  0  0  0  0  0  0  0  0  0  0  0
   -1.6310   -3.4364    0.0000 C   0  0  0  0  0  0  0  0  0  0  0  0
   -0.1314   -3.4026    0.0000 C   0  0  0  0  0  0  0  0  0  0  0  0
    0.2998   -1.9659    0.0000 C   0  0  0  0  0  0  0  0  0  0  0  0
    1.6561   -1.3251    0.0000 C   0  0  0  0  0  0  0  0  0  0  0  0
    2.8892   -2.1792    0.0000 C   0  0  0  0  0  0  0  0  0  0  0  0
    2.7660   -3.6741    0.0000 O   0  0  0  0  0  0  0  0  0  0  0  0
    4.2454   -1.5383    0.0000 C   0  0  0  0  0  0  0  0  0  0  0  0
    4.3685   -0.0434    0.0000 C   0  0  0  0  0  0  0  0  0  0  0  0
    5.7247    0.5975    0.0000 C   0  0  0  0  0  0  0  0  0  0  0  0
    5.8478    2.0924    0.0000 C   0  0  0  0  0  0  0  0  0  0  0  0
    7.2040    2.7332    0.0000 O   0  0  0  0  0  0  0  0  0  0  0  0
    4.6147    2.9465    0.0000 C   0  0  0  0  0  0  0  0  0  0  0  0
    3.2585    2.3056    0.0000 C   0  0  0  0  0  0  0  0  0  0  0  0
    3.1354    0.8107    0.0000 C   0  0  0  0  0  0  0  0  0  0  0  0
    1.9023    1.6648    0.0000 C   0  0  0  0  0  0  0  0  0  0  0  0
    1.7792    0.1699    0.0000 C   0  0  0  0  0  0  0  0  0  0  0  0
    0.5461    1.0239    0.0000 C   0  0  0  0  0  0  0  0  0  0  0  0
   -0.8101    0.3831    0.0000 C   0  0  0  0  0  0  0  0  0  0  0  0
   -0.9333   -1.1118    0.0000 C   0  0  0  0  0  0  0  0  0  0  0  0
   -2.2489   -0.3913    0.0000 C   0  0  0  0  0  0  0  0  0  0  0  0
  2  1  1  6
  2  3  1  0
  3  4  1  0
  4  5  1  0
  5  6  2  0
  5  7  1  0
  7  8  1  0
  2  9  1  0
  9 10  1  6
 10 11  1  0
 12 11  1  6
 12 13  1  0
 13 14  1  1
 14 15  1  6
 14 16  1  0
 17 16  1  1
 17 18  1  0
 18 19  1  0
 19 20  1  1
 19 21  1  0
 21 22  1  0
 22 23  1  0
 23 24  1  6
 23 25  1  0
 25 26  1  6
 26 27  1  0
 27 28  1  0
 28 29  1  6
 28  9  1  0
 28 12  1  0
 25 13  1  0
 23 17  1  0
M  END
>  <MS_ID>  (1449) 
MS1509

>  <SMILES>  (1449) 
C[C@H](CCC(=O)CF)[C@H]1CC[C@H]2[C@@H]3[C@@H](O)C[C@@H]4C[C@H](O)CC[C@]4(C)[C@H]3CC[C@]12C

>  <Structure_dimension>  (1449) 
2D

$$$$
MS1510
     RDKit          2D

 35 39  0  0  0  0  0  0  0  0999 V2000
   -6.7110   -2.0543    0.0000 C   0  0  0  0  0  0  0  0  0  0  0  0
   -5.5205   -1.1419    0.0000 C   0  0  0  0  0  0  0  0  0  0  0  0
   -5.7154    0.3454    0.0000 C   0  0  0  0  0  0  0  0  0  0  0  0
   -7.1009    0.9202    0.0000 C   0  0  0  0  0  0  0  0  0  0  0  0
   -7.2959    2.4075    0.0000 C   0  0  0  0  0  0  0  0  0  0  0  0
   -6.1053    3.3200    0.0000 O   0  0  0  0  0  0  0  0  0  0  0  0
   -8.6814    2.9823    0.0000 O   0  0  0  0  0  0  0  0  0  0  0  0
   -4.1350   -1.7167    0.0000 C   0  0  0  0  0  0  0  0  0  0  0  0
   -3.7856   -3.1754    0.0000 C   0  0  0  0  0  0  0  0  0  0  0  0
   -2.2903   -3.2939    0.0000 C   0  0  0  0  0  0  0  0  0  0  0  0
   -1.7155   -1.9084    0.0000 C   0  0  0  0  0  0  0  0  0  0  0  0
   -0.3013   -1.4085    0.0000 C   0  0  0  0  0  0  0  0  0  0  0  0
    0.8388   -2.3833    0.0000 C   0  0  0  0  0  0  0  0  0  0  0  0
    0.5646   -3.8580    0.0000 O   0  0  0  0  0  0  0  0  0  0  0  0
    2.2531   -1.8834    0.0000 C   0  0  0  0  0  0  0  0  0  0  0  0
    2.5272   -0.4087    0.0000 C   0  0  0  0  0  0  0  0  0  0  0  0
    3.9415    0.0913    0.0000 C   0  0  0  0  0  0  0  0  0  0  0  0
    4.2156    1.5660    0.0000 C   0  0  0  0  0  0  0  0  0  0  0  0
    5.6299    2.0659    0.0000 O   0  0  0  0  0  0  0  0  0  0  0  0
    6.7699    1.0911    0.0000 C   0  0  0  0  0  0  0  0  0  0  0  0
    6.4958   -0.3836    0.0000 C   0  0  0  0  0  0  0  0  0  0  0  0
    7.6358   -1.3584    0.0000 C   0  0  0  0  0  0  0  0  0  0  0  0
    9.0501   -0.8585    0.0000 C   0  0  0  0  0  0  0  0  0  0  0  0
    9.3243    0.6162    0.0000 N   0  0  0  0  0  0  0  0  0  0  0  0
    8.1842    1.5910    0.0000 C   0  0  0  0  0  0  0  0  0  0  0  0
    3.0756    2.5408    0.0000 C   0  0  0  0  0  0  0  0  0  0  0  0
    1.6613    2.0409    0.0000 C   0  0  0  0  0  0  0  0  0  0  0  0
    1.3872    0.5661    0.0000 C   0  0  0  0  0  0  0  0  0  0  0  0
    0.2471    1.5410    0.0000 C   0  0  0  0  0  0  0  0  0  0  0  0
   -0.0271    0.0662    0.0000 C   0  0  0  0  0  0  0  0  0  0  0  0
   -1.1671    1.0410    0.0000 C   0  0  0  0  0  0  0  0  0  0  0  0
   -2.5814    0.5411    0.0000 C   0  0  0  0  0  0  0  0  0  0  0  0
   -3.7215    1.5159    0.0000 O   0  0  0  0  0  0  0  0  0  0  0  0
   -2.8556   -0.9336    0.0000 C   0  0  0  0  0  0  0  0  0  0  0  0
   -4.0913   -0.0833    0.0000 C   0  0  0  0  0  0  0  0  0  0  0  0
  2  1  1  6
  2  3  1  0
  3  4  1  0
  4  5  1  0
  5  6  2  0
  5  7  1  0
  2  8  1  0
  8  9  1  6
  9 10  1  0
 11 10  1  6
 11 12  1  0
 12 13  1  1
 13 14  1  1
 13 15  1  0
 16 15  1  1
 16 17  1  0
 17 18  1  0
 18 19  1  1
 19 20  1  0
 20 21  2  0
 21 22  1  0
 22 23  2  0
 23 24  1  0
 24 25  2  0
 18 26  1  0
 26 27  1  0
 27 28  1  0
 28 29  1  6
 28 30  1  0
 30 31  1  6
 31 32  1  0
 32 33  1  1
 32 34  1  0
 34 35  1  6
 34  8  1  0
 34 11  1  0
 30 12  1  0
 28 16  1  0
 25 20  1  0
M  END
>  <MS_ID>  (1450) 
MS1510

>  <SMILES>  (1450) 
C[C@H](CCC(=O)O)[C@H]1CC[C@H]2[C@@H]3[C@H](O)C[C@@H]4C[C@H](Oc5cccnc5)CC[C@]4(C)[C@H]3C[C@H](O)[C@]12C

>  <Structure_dimension>  (1450) 
2D

$$$$
MS1511
     RDKit          2D

 33 36  0  0  0  0  0  0  0  0999 V2000
   -8.1264    1.7531    0.0000 C   0  0  0  0  0  0  0  0  0  0  0  0
   -6.6444    1.5210    0.0000 C   0  0  0  0  0  0  0  0  0  0  0  0
   -5.7025    2.6884    0.0000 O   0  0  0  0  0  0  0  0  0  0  0  0
   -6.1045    0.1216    0.0000 C   0  0  0  0  0  0  0  0  0  0  0  0
   -4.6226   -0.1105    0.0000 C   0  0  0  0  0  0  0  0  0  0  0  0
   -4.0826   -1.5100    0.0000 C   0  0  0  0  0  0  0  0  0  0  0  0
   -5.0246   -2.6773    0.0000 C   0  0  0  0  0  0  0  0  0  0  0  0
   -2.6007   -1.7421    0.0000 C   0  0  0  0  0  0  0  0  0  0  0  0
   -1.9174   -3.0774    0.0000 C   0  0  0  0  0  0  0  0  0  0  0  0
   -0.4363   -2.8402    0.0000 C   0  0  0  0  0  0  0  0  0  0  0  0
   -0.2042   -1.3583    0.0000 C   0  0  0  0  0  0  0  0  0  0  0  0
    1.0525   -0.5392    0.0000 C   0  0  0  0  0  0  0  0  0  0  0  0
    2.3901   -1.2179    0.0000 C   0  0  0  0  0  0  0  0  0  0  0  0
    2.4712   -2.7157    0.0000 O   0  0  0  0  0  0  0  0  0  0  0  0
    3.8089   -3.3944    0.0000 S   0  0  0  0  0  0  0  0  0  0  0  0
    4.4876   -2.0567    0.0000 O   0  0  0  0  0  0  0  0  0  0  0  0
    3.1302   -4.7321    0.0000 O   0  0  0  0  0  0  0  0  0  0  0  0
    5.1465   -4.0731    0.0000 O   0  0  0  0  0  0  0  0  0  0  0  0
    3.6467   -0.3988    0.0000 C   0  0  0  0  0  0  0  0  0  0  0  0
    3.5657    1.0990    0.0000 C   0  0  0  0  0  0  0  0  0  0  0  0
    4.8223    1.9182    0.0000 C   0  0  0  0  0  0  0  0  0  0  0  0
    4.7412    3.4160    0.0000 C   0  0  0  0  0  0  0  0  0  0  0  0
    5.9978    4.2351    0.0000 O   0  0  0  0  0  0  0  0  0  0  0  0
    3.4035    4.0947    0.0000 C   0  0  0  0  0  0  0  0  0  0  0  0
    2.1469    3.2755    0.0000 C   0  0  0  0  0  0  0  0  0  0  0  0
    2.2280    1.7777    0.0000 C   0  0  0  0  0  0  0  0  0  0  0  0
    0.8903    2.4564    0.0000 C   0  0  0  0  0  0  0  0  0  0  0  0
    0.9714    0.9586    0.0000 C   0  0  0  0  0  0  0  0  0  0  0  0
   -0.3663    1.6373    0.0000 C   0  0  0  0  0  0  0  0  0  0  0  0
   -1.6229    0.8182    0.0000 C   0  0  0  0  0  0  0  0  0  0  0  0
   -2.9606    1.4969    0.0000 O   0  0  0  0  0  0  0  0  0  0  0  0
   -1.5418   -0.6796    0.0000 C   0  0  0  0  0  0  0  0  0  0  0  0
   -2.9431   -0.1445    0.0000 C   0  0  0  0  0  0  0  0  0  0  0  0
  1  2  1  0
  2  3  2  0
  2  4  1  0
  4  5  1  0
  5  6  1  0
  6  7  1  6
  6  8  1  0
  8  9  1  6
  9 10  1  0
 11 10  1  6
 11 12  1  0
 12 13  1  1
 13 14  1  1
 14 15  1  0
 15 16  2  0
 15 17  2  0
 15 18  1  0
 13 19  1  0
 20 19  1  1
 20 21  1  0
 21 22  1  0
 22 23  1  1
 22 24  1  0
 24 25  1  0
 25 26  1  0
 26 27  1  6
 26 28  1  0
 28 29  1  6
 29 30  1  0
 30 31  1  1
 30 32  1  0
 32 33  1  6
 32  8  1  0
 32 11  1  0
 28 12  1  0
 26 20  1  0
M  END
>  <MS_ID>  (1451) 
MS1511

>  <SMILES>  (1451) 
CC(=O)CC[C@@H](C)[C@H]1CC[C@H]2[C@@H]3[C@H](OS(=O)(=O)O)C[C@@H]4C[C@H](O)CC[C@]4(C)[C@H]3C[C@H](O)[C@]12C

>  <Structure_dimension>  (1451) 
2D

$$$$
MS1512
     RDKit          2D

 30 33  0  0  0  0  0  0  0  0999 V2000
   -6.0208   -1.6345    0.0000 C   0  0  0  0  0  0  0  0  0  0  0  0
   -4.7217   -0.8847    0.0000 C   0  0  0  0  0  0  0  0  0  0  0  0
   -4.7216    0.6153    0.0000 C   0  0  0  0  0  0  0  0  0  0  0  0
   -6.0205    1.3655    0.0000 C   0  0  0  0  0  0  0  0  0  0  0  0
   -6.0204    2.8655    0.0000 C   0  0  0  0  0  0  0  0  0  0  0  0
   -4.7212    3.6153    0.0000 O   0  0  0  0  0  0  0  0  0  0  0  0
   -7.3193    3.6156    0.0000 O   0  0  0  0  0  0  0  0  0  0  0  0
   -3.4228   -1.6348    0.0000 C   0  0  0  0  0  0  0  0  0  0  0  0
   -3.2661   -3.1266    0.0000 C   0  0  0  0  0  0  0  0  0  0  0  0
   -1.7989   -3.4386    0.0000 C   0  0  0  0  0  0  0  0  0  0  0  0
   -1.0488   -2.1397    0.0000 C   0  0  0  0  0  0  0  0  0  0  0  0
    0.4184   -1.8279    0.0000 C   0  0  0  0  0  0  0  0  0  0  0  0
    1.4220   -2.9428    0.0000 C   0  0  0  0  0  0  0  0  0  0  0  0
    2.8893   -2.6311    0.0000 C   0  0  0  0  0  0  0  0  0  0  0  0
    3.3530   -1.2045    0.0000 C   0  0  0  0  0  0  0  0  0  0  0  0
    4.8202   -0.8928    0.0000 C   0  0  0  0  0  0  0  0  0  0  0  0
    5.2839    0.5337    0.0000 C   0  0  0  0  0  0  0  0  0  0  0  0
    6.6082   -0.1706    0.0000 O   0  0  0  0  0  0  0  0  0  0  0  0
    6.2075    1.7156    0.0000 C   0  0  0  0  0  0  0  0  0  0  0  0
    5.6457    3.1065    0.0000 O   0  0  0  0  0  0  0  0  0  0  0  0
    7.6929    1.5067    0.0000 O   0  0  0  0  0  0  0  0  0  0  0  0
    4.2803    1.6485    0.0000 C   0  0  0  0  0  0  0  0  0  0  0  0
    2.8131    1.3368    0.0000 C   0  0  0  0  0  0  0  0  0  0  0  0
    2.3494   -0.0897    0.0000 C   0  0  0  0  0  0  0  0  0  0  0  0
    1.3458    1.0251    0.0000 C   0  0  0  0  0  0  0  0  0  0  0  0
    0.8821   -0.4014    0.0000 C   0  0  0  0  0  0  0  0  0  0  0  0
   -0.1215    0.7134    0.0000 C   0  0  0  0  0  0  0  0  0  0  0  0
   -1.5887    0.4017    0.0000 C   0  0  0  0  0  0  0  0  0  0  0  0
   -2.0524   -1.0248    0.0000 C   0  0  0  0  0  0  0  0  0  0  0  0
   -3.1670   -0.0210    0.0000 C   0  0  0  0  0  0  0  0  0  0  0  0
  2  1  1  6
  2  3  1  0
  3  4  1  0
  4  5  1  0
  5  6  2  0
  5  7  1  0
  2  8  1  0
  8  9  1  6
  9 10  1  0
 11 10  1  6
 11 12  1  0
 12 13  1  1
 13 14  1  0
 15 14  1  1
 15 16  1  0
 16 17  1  0
 17 18  1  1
 17 19  1  0
 19 20  2  0
 19 21  1  0
 17 22  1  0
 22 23  1  0
 23 24  1  0
 24 25  1  6
 24 26  1  0
 26 27  1  6
 27 28  1  0
 28 29  1  0
 29 30  1  6
 29  8  1  0
 29 11  1  0
 26 12  1  0
 24 15  1  0
M  END
>  <MS_ID>  (1452) 
MS1512

>  <SMILES>  (1452) 
C[C@H](CCC(=O)O)[C@H]1CC[C@H]2[C@@H]3CC[C@@H]4C[C@@](O)(C(=O)O)CC[C@]4(C)[C@H]3CC[C@]12C

>  <Structure_dimension>  (1452) 
2D

$$$$
MS1513
     RDKit          2D

 35 39  0  0  0  0  0  0  0  0999 V2000
   -2.4249   -4.3282    0.0000 C   0  0  0  0  0  0  0  0  0  0  0  0
   -1.7208   -3.0038    0.0000 C   0  0  0  0  0  0  0  0  0  0  0  0
   -2.5157   -1.7317    0.0000 C   0  0  0  0  0  0  0  0  0  0  0  0
   -4.0147   -1.7841    0.0000 C   0  0  0  0  0  0  0  0  0  0  0  0
   -4.8097   -0.5121    0.0000 C   0  0  0  0  0  0  0  0  0  0  0  0
   -4.1055    0.8124    0.0000 O   0  0  0  0  0  0  0  0  0  0  0  0
   -6.3087   -0.5645    0.0000 N   0  0  0  0  0  0  0  0  0  0  0  0
   -7.1037    0.7076    0.0000 C   0  0  0  0  0  0  0  0  0  0  0  0
   -6.3995    2.0320    0.0000 N   0  0  0  0  0  0  0  0  0  0  0  0
   -7.1944    3.3041    0.0000 C   0  0  0  0  0  0  0  0  0  0  0  0
   -8.6935    3.2517    0.0000 C   0  0  0  0  0  0  0  0  0  0  0  0
   -9.3977    1.9272    0.0000 C   0  0  0  0  0  0  0  0  0  0  0  0
   -8.6027    0.6552    0.0000 N   0  0  0  0  0  0  0  0  0  0  0  0
   -0.2217   -2.9514    0.0000 C   0  0  0  0  0  0  0  0  0  0  0  0
    0.7019   -4.1334    0.0000 C   0  0  0  0  0  0  0  0  0  0  0  0
    2.1114   -3.6203    0.0000 C   0  0  0  0  0  0  0  0  0  0  0  0
    2.0590   -2.1213    0.0000 C   0  0  0  0  0  0  0  0  0  0  0  0
    3.1380   -1.0792    0.0000 C   0  0  0  0  0  0  0  0  0  0  0  0
    4.5799   -1.4927    0.0000 C   0  0  0  0  0  0  0  0  0  0  0  0
    4.9428   -2.9481    0.0000 O   0  0  0  0  0  0  0  0  0  0  0  0
    5.6589   -0.4506    0.0000 C   0  0  0  0  0  0  0  0  0  0  0  0
    7.1008   -0.8641    0.0000 O   0  0  0  0  0  0  0  0  0  0  0  0
    5.2959    1.0048    0.0000 C   0  0  0  0  0  0  0  0  0  0  0  0
    6.3749    2.0468    0.0000 C   0  0  0  0  0  0  0  0  0  0  0  0
    6.0120    3.5022    0.0000 C   0  0  0  0  0  0  0  0  0  0  0  0
    7.0910    4.5443    0.0000 O   0  0  0  0  0  0  0  0  0  0  0  0
    4.5701    3.9157    0.0000 C   0  0  0  0  0  0  0  0  0  0  0  0
    3.4911    2.8736    0.0000 C   0  0  0  0  0  0  0  0  0  0  0  0
    3.8540    1.4182    0.0000 C   0  0  0  0  0  0  0  0  0  0  0  0
    2.4121    1.8316    0.0000 C   0  0  0  0  0  0  0  0  0  0  0  0
    2.7751    0.3762    0.0000 C   0  0  0  0  0  0  0  0  0  0  0  0
    1.3332    0.7896    0.0000 C   0  0  0  0  0  0  0  0  0  0  0  0
    0.2542   -0.2524    0.0000 C   0  0  0  0  0  0  0  0  0  0  0  0
    0.6171   -1.7078    0.0000 C   0  0  0  0  0  0  0  0  0  0  0  0
   -0.8601   -1.4474    0.0000 C   0  0  0  0  0  0  0  0  0  0  0  0
  2  1  1  6
  2  3  1  0
  3  4  1  0
  4  5  1  0
  5  6  2  0
  5  7  1  0
  7  8  1  0
  8  9  2  0
  9 10  1  0
 10 11  2  0
 11 12  1  0
 12 13  2  0
  2 14  1  0
 14 15  1  6
 15 16  1  0
 17 16  1  6
 17 18  1  0
 18 19  1  1
 19 20  1  1
 19 21  1  0
 21 22  1  1
 21 23  1  0
 23 24  1  1
 24 25  1  0
 25 26  1  1
 25 27  1  0
 27 28  1  0
 28 29  1  0
 29 30  1  6
 29 31  1  0
 31 32  1  6
 32 33  1  0
 33 34  1  0
 34 35  1  6
 13  8  1  0
 34 14  1  0
 34 17  1  0
 31 18  1  0
 29 23  1  0
M  END
>  <MS_ID>  (1453) 
MS1513

>  <SMILES>  (1453) 
C[C@H](CCC(=O)Nc1ncccn1)[C@H]1CC[C@H]2[C@@H]3[C@H](O)[C@H](O)[C@@H]4C[C@H](O)CC[C@]4(C)[C@H]3CC[C@]12C

>  <Structure_dimension>  (1453) 
2D

$$$$
MS1514
     RDKit          2D

 41 46  0  0  0  0  0  0  0  0999 V2000
    0.7064   -5.2030    0.0000 C   0  0  0  0  0  0  0  0  0  0  0  0
    1.0287   -3.7380    0.0000 C   0  0  0  0  0  0  0  0  0  0  0  0
   -0.0788   -2.7264    0.0000 C   0  0  0  0  0  0  0  0  0  0  0  0
   -1.5087   -3.1797    0.0000 C   0  0  0  0  0  0  0  0  0  0  0  0
   -2.6162   -2.1681    0.0000 C   0  0  0  0  0  0  0  0  0  0  0  0
   -2.2939   -0.7032    0.0000 O   0  0  0  0  0  0  0  0  0  0  0  0
   -4.0460   -2.6215    0.0000 N   0  0  0  0  0  0  0  0  0  0  0  0
   -5.1536   -1.6098    0.0000 C   0  0  0  0  0  0  0  0  0  0  0  0
   -4.8313   -0.1449    0.0000 C   0  0  0  0  0  0  0  0  0  0  0  0
   -5.9388    0.8667    0.0000 C   0  0  0  0  0  0  0  0  0  0  0  0
   -7.3686    0.4134    0.0000 C   0  0  0  0  0  0  0  0  0  0  0  0
   -8.4762    1.4250    0.0000 N   0  0  0  0  0  0  0  0  0  0  0  0
   -8.1539    2.8900    0.0000 C   0  0  0  0  0  0  0  0  0  0  0  0
   -9.2614    3.9016    0.0000 C   0  0  0  0  0  0  0  0  0  0  0  0
  -10.6912    3.4482    0.0000 O   0  0  0  0  0  0  0  0  0  0  0  0
  -11.0136    1.9833    0.0000 C   0  0  0  0  0  0  0  0  0  0  0  0
   -9.9060    0.9717    0.0000 C   0  0  0  0  0  0  0  0  0  0  0  0
   -7.6910   -1.0516    0.0000 C   0  0  0  0  0  0  0  0  0  0  0  0
   -6.5834   -2.0632    0.0000 C   0  0  0  0  0  0  0  0  0  0  0  0
    2.4586   -3.2847    0.0000 C   0  0  0  0  0  0  0  0  0  0  0  0
    3.6658   -4.1750    0.0000 C   0  0  0  0  0  0  0  0  0  0  0  0
    4.8856   -3.3020    0.0000 C   0  0  0  0  0  0  0  0  0  0  0  0
    4.4322   -1.8721    0.0000 C   0  0  0  0  0  0  0  0  0  0  0  0
    5.1915   -0.5785    0.0000 C   0  0  0  0  0  0  0  0  0  0  0  0
    6.6914   -0.5892    0.0000 C   0  0  0  0  0  0  0  0  0  0  0  0
    7.4321   -1.8935    0.0000 O   0  0  0  0  0  0  0  0  0  0  0  0
    7.4507    0.7045    0.0000 C   0  0  0  0  0  0  0  0  0  0  0  0
    6.7100    2.0088    0.0000 C   0  0  0  0  0  0  0  0  0  0  0  0
    7.4692    3.3025    0.0000 C   0  0  0  0  0  0  0  0  0  0  0  0
    6.7285    4.6069    0.0000 C   0  0  0  0  0  0  0  0  0  0  0  0
    7.4877    5.9005    0.0000 O   0  0  0  0  0  0  0  0  0  0  0  0
    5.2285    4.6175    0.0000 C   0  0  0  0  0  0  0  0  0  0  0  0
    4.4693    3.3239    0.0000 C   0  0  0  0  0  0  0  0  0  0  0  0
    5.2100    2.0195    0.0000 C   0  0  0  0  0  0  0  0  0  0  0  0
    3.7100    2.0302    0.0000 C   0  0  0  0  0  0  0  0  0  0  0  0
    4.4508    0.7259    0.0000 C   0  0  0  0  0  0  0  0  0  0  0  0
    2.9508    0.7366    0.0000 C   0  0  0  0  0  0  0  0  0  0  0  0
    2.1915   -0.5571    0.0000 C   0  0  0  0  0  0  0  0  0  0  0  0
    0.6916   -0.5464    0.0000 O   0  0  0  0  0  0  0  0  0  0  0  0
    2.9323   -1.8614    0.0000 C   0  0  0  0  0  0  0  0  0  0  0  0
    1.4394   -2.0076    0.0000 C   0  0  0  0  0  0  0  0  0  0  0  0
  2  1  1  6
  2  3  1  0
  3  4  1  0
  4  5  1  0
  5  6  2  0
  5  7  1  0
  7  8  1  0
  8  9  2  0
  9 10  1  0
 10 11  2  0
 11 12  1  0
 12 13  1  0
 13 14  1  0
 14 15  1  0
 15 16  1  0
 16 17  1  0
 11 18  1  0
 18 19  2  0
  2 20  1  0
 20 21  1  6
 21 22  1  0
 23 22  1  6
 23 24  1  0
 24 25  1  1
 25 26  1  1
 25 27  1  0
 28 27  1  1
 28 29  1  0
 29 30  1  0
 30 31  1  1
 30 32  1  0
 32 33  1  0
 33 34  1  0
 34 35  1  6
 34 36  1  0
 36 37  1  6
 37 38  1  0
 38 39  1  1
 38 40  1  0
 40 41  1  6
 19  8  1  0
 40 20  1  0
 17 12  1  0
 40 23  1  0
 36 24  1  0
 34 28  1  0
M  END
>  <MS_ID>  (1454) 
MS1514

>  <SMILES>  (1454) 
C[C@H](CCC(=O)Nc1ccc(N2CCOCC2)cc1)[C@H]1CC[C@H]2[C@@H]3[C@H](O)C[C@@H]4C[C@H](O)CC[C@]4(C)[C@H]3C[C@H](O)[C@]12C

>  <Structure_dimension>  (1454) 
2D

$$$$
MS1515
     RDKit          2D

 31 34  0  0  0  0  0  0  0  0999 V2000
   -5.7175   -1.8176    0.0000 C   0  0  0  0  0  0  0  0  0  0  0  0
   -4.4708   -0.9835    0.0000 C   0  0  0  0  0  0  0  0  0  0  0  0
   -4.5698    0.5132    0.0000 C   0  0  0  0  0  0  0  0  0  0  0  0
   -5.9155    1.1758    0.0000 C   0  0  0  0  0  0  0  0  0  0  0  0
   -6.0145    2.6726    0.0000 C   0  0  0  0  0  0  0  0  0  0  0  0
   -4.7678    3.5067    0.0000 O   0  0  0  0  0  0  0  0  0  0  0  0
   -7.3602    3.3352    0.0000 O   0  0  0  0  0  0  0  0  0  0  0  0
   -3.1251   -1.6462    0.0000 C   0  0  0  0  0  0  0  0  0  0  0  0
   -2.8701   -3.1243    0.0000 C   0  0  0  0  0  0  0  0  0  0  0  0
   -1.3855   -3.3387    0.0000 C   0  0  0  0  0  0  0  0  0  0  0  0
   -0.7229   -1.9930    0.0000 C   0  0  0  0  0  0  0  0  0  0  0  0
    0.7205   -1.5850    0.0000 C   0  0  0  0  0  0  0  0  0  0  0  0
    1.7956   -2.6310    0.0000 C   0  0  0  0  0  0  0  0  0  0  0  0
    1.4272   -4.0851    0.0000 O   0  0  0  0  0  0  0  0  0  0  0  0
    3.2390   -2.2230    0.0000 C   0  0  0  0  0  0  0  0  0  0  0  0
    3.6074   -0.7689    0.0000 C   0  0  0  0  0  0  0  0  0  0  0  0
    5.0508   -0.3609    0.0000 C   0  0  0  0  0  0  0  0  0  0  0  0
    5.4192    1.0932    0.0000 C   0  0  0  0  0  0  0  0  0  0  0  0
    6.8626    1.5012    0.0000 C   0  0  0  0  0  0  0  0  0  0  0  0
    7.2310    2.9552    0.0000 O   0  0  0  0  0  0  0  0  0  0  0  0
    7.9377    0.4551    0.0000 O   0  0  0  0  0  0  0  0  0  0  0  0
    4.3441    2.1392    0.0000 C   0  0  0  0  0  0  0  0  0  0  0  0
    2.9007    1.7312    0.0000 C   0  0  0  0  0  0  0  0  0  0  0  0
    2.5323    0.2771    0.0000 C   0  0  0  0  0  0  0  0  0  0  0  0
    1.4572    1.3232    0.0000 C   0  0  0  0  0  0  0  0  0  0  0  0
    1.0889   -0.1309    0.0000 C   0  0  0  0  0  0  0  0  0  0  0  0
    0.0138    0.9151    0.0000 C   0  0  0  0  0  0  0  0  0  0  0  0
   -1.4296    0.5071    0.0000 C   0  0  0  0  0  0  0  0  0  0  0  0
   -2.5047    1.5532    0.0000 O   0  0  0  0  0  0  0  0  0  0  0  0
   -1.7980   -0.9470    0.0000 C   0  0  0  0  0  0  0  0  0  0  0  0
   -2.9765   -0.0190    0.0000 C   0  0  0  0  0  0  0  0  0  0  0  0
  2  1  1  6
  2  3  1  0
  3  4  1  0
  4  5  1  0
  5  6  2  0
  5  7  1  0
  2  8  1  0
  8  9  1  6
  9 10  1  0
 11 10  1  6
 11 12  1  0
 12 13  1  1
 13 14  1  6
 13 15  1  0
 16 15  1  1
 16 17  1  0
 17 18  1  0
 18 19  1  6
 19 20  2  0
 19 21  1  0
 18 22  1  0
 22 23  1  0
 23 24  1  0
 24 25  1  6
 24 26  1  0
 26 27  1  6
 27 28  1  0
 28 29  1  1
 28 30  1  0
 30 31  1  6
 30  8  1  0
 30 11  1  0
 26 12  1  0
 24 16  1  0
M  END
>  <MS_ID>  (1455) 
MS1515

>  <SMILES>  (1455) 
C[C@H](CCC(=O)O)[C@H]1CC[C@H]2[C@@H]3[C@@H](O)C[C@@H]4C[C@@H](C(=O)O)CC[C@]4(C)[C@H]3C[C@H](O)[C@]12C

>  <Structure_dimension>  (1455) 
2D

$$$$
MS1516
     RDKit          2D

 33 37  0  0  0  0  0  0  0  0999 V2000
   -2.6982   -4.1233    0.0000 C   0  0  0  0  0  0  0  0  0  0  0  0
   -1.9222   -2.8397    0.0000 C   0  0  0  0  0  0  0  0  0  0  0  0
   -2.6459   -1.5258    0.0000 C   0  0  0  0  0  0  0  0  0  0  0  0
   -4.1456   -1.4956    0.0000 C   0  0  0  0  0  0  0  0  0  0  0  0
   -4.8692   -0.1817    0.0000 C   0  0  0  0  0  0  0  0  0  0  0  0
   -4.0932    1.1020    0.0000 O   0  0  0  0  0  0  0  0  0  0  0  0
   -6.3689   -0.1514    0.0000 C   0  0  0  0  0  0  0  0  0  0  0  0
   -7.0926    1.1625    0.0000 C   0  0  0  0  0  0  0  0  0  0  0  0
   -8.5809    1.3493    0.0000 C   0  0  0  0  0  0  0  0  0  0  0  0
   -8.8631    2.8225    0.0000 N   0  0  0  0  0  0  0  0  0  0  0  0
   -7.5492    3.5462    0.0000 C   0  0  0  0  0  0  0  0  0  0  0  0
   -6.4550    2.5202    0.0000 N   0  0  0  0  0  0  0  0  0  0  0  0
   -0.4225   -2.8699    0.0000 C   0  0  0  0  0  0  0  0  0  0  0  0
    0.4345   -4.1010    0.0000 C   0  0  0  0  0  0  0  0  0  0  0  0
    1.8702   -3.6663    0.0000 C   0  0  0  0  0  0  0  0  0  0  0  0
    1.9004   -2.1666    0.0000 C   0  0  0  0  0  0  0  0  0  0  0  0
    3.0351   -1.1856    0.0000 C   0  0  0  0  0  0  0  0  0  0  0  0
    4.4521   -1.6778    0.0000 C   0  0  0  0  0  0  0  0  0  0  0  0
    4.7343   -3.1510    0.0000 O   0  0  0  0  0  0  0  0  0  0  0  0
    5.5868   -0.6967    0.0000 C   0  0  0  0  0  0  0  0  0  0  0  0
    5.3046    0.7765    0.0000 C   0  0  0  0  0  0  0  0  0  0  0  0
    6.4393    1.7575    0.0000 C   0  0  0  0  0  0  0  0  0  0  0  0
    6.1571    3.2307    0.0000 C   0  0  0  0  0  0  0  0  0  0  0  0
    7.2918    4.2117    0.0000 O   0  0  0  0  0  0  0  0  0  0  0  0
    4.7401    3.7229    0.0000 C   0  0  0  0  0  0  0  0  0  0  0  0
    3.6054    2.7419    0.0000 C   0  0  0  0  0  0  0  0  0  0  0  0
    3.8876    1.2687    0.0000 C   0  0  0  0  0  0  0  0  0  0  0  0
    2.4707    1.7609    0.0000 C   0  0  0  0  0  0  0  0  0  0  0  0
    2.7529    0.2876    0.0000 C   0  0  0  0  0  0  0  0  0  0  0  0
    1.3360    0.7798    0.0000 C   0  0  0  0  0  0  0  0  0  0  0  0
    0.2012   -0.2012    0.0000 C   0  0  0  0  0  0  0  0  0  0  0  0
    0.4835   -1.6744    0.0000 C   0  0  0  0  0  0  0  0  0  0  0  0
   -0.9772   -1.3330    0.0000 C   0  0  0  0  0  0  0  0  0  0  0  0
  2  1  1  6
  2  3  1  0
  3  4  1  0
  4  5  1  0
  5  6  2  0
  5  7  1  0
  7  8  1  0
  8  9  2  0
  9 10  1  0
 10 11  1  0
 11 12  2  0
  2 13  1  0
 13 14  1  6
 14 15  1  0
 16 15  1  6
 16 17  1  0
 17 18  1  1
 18 19  1  1
 18 20  1  0
 21 20  1  1
 21 22  1  0
 22 23  1  0
 23 24  1  1
 23 25  1  0
 25 26  1  0
 26 27  1  0
 27 28  1  6
 27 29  1  0
 29 30  1  6
 30 31  1  0
 31 32  1  0
 32 33  1  6
 12  8  1  0
 32 13  1  0
 32 16  1  0
 29 17  1  0
 27 21  1  0
M  END
>  <MS_ID>  (1456) 
MS1516

>  <SMILES>  (1456) 
C[C@H](CCC(=O)Cc1c[nH]cn1)[C@H]1CC[C@H]2[C@@H]3[C@H](O)C[C@@H]4C[C@H](O)CC[C@]4(C)[C@H]3CC[C@]12C

>  <Structure_dimension>  (1456) 
2D

$$$$
MS1517
     RDKit          2D

 33 37  0  0  0  0  0  0  0  0999 V2000
   -3.0595   -3.4014    0.0000 C   0  0  0  0  0  0  0  0  0  0  0  0
   -2.0799   -2.2654    0.0000 C   0  0  0  0  0  0  0  0  0  0  0  0
   -2.5738   -0.8491    0.0000 C   0  0  0  0  0  0  0  0  0  0  0  0
   -4.0474   -0.5687    0.0000 C   0  0  0  0  0  0  0  0  0  0  0  0
   -4.5414    0.8476    0.0000 C   0  0  0  0  0  0  0  0  0  0  0  0
   -3.5618    1.9836    0.0000 O   0  0  0  0  0  0  0  0  0  0  0  0
   -6.0149    1.1280    0.0000 C   0  0  0  0  0  0  0  0  0  0  0  0
   -6.5089    2.5443    0.0000 C   0  0  0  0  0  0  0  0  0  0  0  0
   -7.9825    2.8247    0.0000 C   0  0  0  0  0  0  0  0  0  0  0  0
   -8.9621    1.6887    0.0000 C   0  0  0  0  0  0  0  0  0  0  0  0
   -8.4681    0.2724    0.0000 C   0  0  0  0  0  0  0  0  0  0  0  0
   -6.9945   -0.0080    0.0000 C   0  0  0  0  0  0  0  0  0  0  0  0
   -0.6063   -2.5458    0.0000 C   0  0  0  0  0  0  0  0  0  0  0  0
    0.0330   -3.9027    0.0000 C   0  0  0  0  0  0  0  0  0  0  0  0
    1.5211   -3.7140    0.0000 C   0  0  0  0  0  0  0  0  0  0  0  0
    1.8015   -2.2404    0.0000 C   0  0  0  0  0  0  0  0  0  0  0  0
    3.0841   -1.4628    0.0000 C   0  0  0  0  0  0  0  0  0  0  0  0
    4.3990   -2.1848    0.0000 C   0  0  0  0  0  0  0  0  0  0  0  0
    5.6816   -1.4072    0.0000 C   0  0  0  0  0  0  0  0  0  0  0  0
    5.6495    0.0925    0.0000 C   0  0  0  0  0  0  0  0  0  0  0  0
    6.9322    0.8702    0.0000 C   0  0  0  0  0  0  0  0  0  0  0  0
    6.9001    2.3698    0.0000 C   0  0  0  0  0  0  0  0  0  0  0  0
    8.1827    3.1475    0.0000 O   0  0  0  0  0  0  0  0  0  0  0  0
    5.5852    3.0918    0.0000 C   0  0  0  0  0  0  0  0  0  0  0  0
    4.3026    2.3142    0.0000 C   0  0  0  0  0  0  0  0  0  0  0  0
    4.3347    0.8145    0.0000 C   0  0  0  0  0  0  0  0  0  0  0  0
    3.0199    1.5365    0.0000 C   0  0  0  0  0  0  0  0  0  0  0  0
    3.0520    0.0369    0.0000 C   0  0  0  0  0  0  0  0  0  0  0  0
    1.7372    0.7589    0.0000 C   0  0  0  0  0  0  0  0  0  0  0  0
    0.4545   -0.0188    0.0000 C   0  0  0  0  0  0  0  0  0  0  0  0
   -0.8603    0.7032    0.0000 O   0  0  0  0  0  0  0  0  0  0  0  0
    0.4867   -1.5184    0.0000 C   0  0  0  0  0  0  0  0  0  0  0  0
   -0.8964   -0.9378    0.0000 C   0  0  0  0  0  0  0  0  0  0  0  0
  2  1  1  6
  2  3  1  0
  3  4  1  0
  4  5  1  0
  5  6  2  0
  5  7  1  0
  7  8  2  0
  8  9  1  0
  9 10  2  0
 10 11  1  0
 11 12  2  0
  2 13  1  0
 13 14  1  6
 14 15  1  0
 16 15  1  6
 16 17  1  0
 17 18  1  1
 18 19  1  0
 20 19  1  1
 20 21  1  0
 21 22  1  0
 22 23  1  1
 22 24  1  0
 24 25  1  0
 25 26  1  0
 26 27  1  6
 26 28  1  0
 28 29  1  6
 29 30  1  0
 30 31  1  1
 30 32  1  0
 32 33  1  6
 12  7  1  0
 32 13  1  0
 32 16  1  0
 28 17  1  0
 26 20  1  0
M  END
>  <MS_ID>  (1457) 
MS1517

>  <SMILES>  (1457) 
C[C@H](CCC(=O)c1ccccc1)[C@H]1CC[C@H]2[C@@H]3CC[C@@H]4C[C@H](O)CC[C@]4(C)[C@H]3C[C@H](O)[C@]12C

>  <Structure_dimension>  (1457) 
2D

$$$$
MS1518
     RDKit          2D

 35 38  0  0  0  0  0  0  0  0999 V2000
   -4.0754   -3.6743    0.0000 C   0  0  0  0  0  0  0  0  0  0  0  0
   -3.0821   -2.5504    0.0000 C   0  0  0  0  0  0  0  0  0  0  0  0
   -3.5588   -1.1281    0.0000 C   0  0  0  0  0  0  0  0  0  0  0  0
   -5.0289   -0.8299    0.0000 C   0  0  0  0  0  0  0  0  0  0  0  0
   -5.5056    0.5923    0.0000 C   0  0  0  0  0  0  0  0  0  0  0  0
   -6.9756    0.8906    0.0000 O   0  0  0  0  0  0  0  0  0  0  0  0
   -4.5123    1.7163    0.0000 S   0  0  0  0  0  0  0  0  0  0  0  0
   -5.6363    2.7096    0.0000 O   0  0  0  0  0  0  0  0  0  0  0  0
   -3.3883    0.7230    0.0000 O   0  0  0  0  0  0  0  0  0  0  0  0
   -3.5190    2.8403    0.0000 N   0  0  0  0  0  0  0  0  0  0  0  0
   -2.0489    2.5420    0.0000 C   0  0  0  0  0  0  0  0  0  0  0  0
   -1.0556    3.6660    0.0000 C   0  0  0  0  0  0  0  0  0  0  0  0
   -1.5323    5.0882    0.0000 O   0  0  0  0  0  0  0  0  0  0  0  0
    0.4145    3.3678    0.0000 O   0  0  0  0  0  0  0  0  0  0  0  0
   -1.6120   -2.8486    0.0000 C   0  0  0  0  0  0  0  0  0  0  0  0
   -0.9892   -4.2132    0.0000 C   0  0  0  0  0  0  0  0  0  0  0  0
    0.5010   -4.0426    0.0000 C   0  0  0  0  0  0  0  0  0  0  0  0
    0.7993   -2.5726    0.0000 C   0  0  0  0  0  0  0  0  0  0  0  0
    2.0913   -1.8105    0.0000 C   0  0  0  0  0  0  0  0  0  0  0  0
    3.3972   -2.5485    0.0000 C   0  0  0  0  0  0  0  0  0  0  0  0
    3.4111   -4.0484    0.0000 O   0  0  0  0  0  0  0  0  0  0  0  0
    4.6893   -1.7865    0.0000 C   0  0  0  0  0  0  0  0  0  0  0  0
    4.6754   -0.2865    0.0000 C   0  0  0  0  0  0  0  0  0  0  0  0
    5.9674    0.4755    0.0000 C   0  0  0  0  0  0  0  0  0  0  0  0
    5.9535    1.9754    0.0000 C   0  0  0  0  0  0  0  0  0  0  0  0
    7.2455    2.7374    0.0000 O   0  0  0  0  0  0  0  0  0  0  0  0
    4.6475    2.7134    0.0000 C   0  0  0  0  0  0  0  0  0  0  0  0
    3.3555    1.9513    0.0000 C   0  0  0  0  0  0  0  0  0  0  0  0
    3.3694    0.4514    0.0000 C   0  0  0  0  0  0  0  0  0  0  0  0
    2.0635    1.1893    0.0000 C   0  0  0  0  0  0  0  0  0  0  0  0
    2.0774   -0.3106    0.0000 C   0  0  0  0  0  0  0  0  0  0  0  0
    0.7715    0.4273    0.0000 C   0  0  0  0  0  0  0  0  0  0  0  0
   -0.5206   -0.3347    0.0000 C   0  0  0  0  0  0  0  0  0  0  0  0
   -0.5067   -1.8346    0.0000 C   0  0  0  0  0  0  0  0  0  0  0  0
   -1.8826   -1.2373    0.0000 C   0  0  0  0  0  0  0  0  0  0  0  0
  2  1  1  6
  2  3  1  0
  3  4  1  0
  4  5  1  0
  5  6  2  0
  5  7  1  0
  7  8  2  0
  7  9  2  0
  7 10  1  0
 10 11  1  0
 11 12  1  0
 12 13  2  0
 12 14  1  0
  2 15  1  0
 15 16  1  6
 16 17  1  0
 18 17  1  6
 18 19  1  0
 19 20  1  1
 20 21  1  6
 20 22  1  0
 23 22  1  1
 23 24  1  0
 24 25  1  0
 25 26  1  1
 25 27  1  0
 27 28  1  0
 28 29  1  0
 29 30  1  6
 29 31  1  0
 31 32  1  6
 32 33  1  0
 33 34  1  0
 34 35  1  6
 34 15  1  0
 34 18  1  0
 31 19  1  0
 29 23  1  0
M  END
>  <MS_ID>  (1458) 
MS1518

>  <SMILES>  (1458) 
C[C@H](CCC(=O)S(=O)(=O)NCC(=O)O)[C@H]1CC[C@H]2[C@@H]3[C@@H](O)C[C@@H]4C[C@H](O)CC[C@]4(C)[C@H]3CC[C@]12C

>  <Structure_dimension>  (1458) 
2D

$$$$
MS1519
     RDKit          2D

 38 42  0  0  0  0  0  0  0  0999 V2000
   -1.3837   -4.5660    0.0000 C   0  0  0  0  0  0  0  0  0  0  0  0
   -0.7567   -3.2033    0.0000 C   0  0  0  0  0  0  0  0  0  0  0  0
   -1.6234   -1.9790    0.0000 C   0  0  0  0  0  0  0  0  0  0  0  0
   -3.1170   -2.1174    0.0000 C   0  0  0  0  0  0  0  0  0  0  0  0
   -3.9836   -0.8930    0.0000 C   0  0  0  0  0  0  0  0  0  0  0  0
   -3.3566    0.4696    0.0000 O   0  0  0  0  0  0  0  0  0  0  0  0
   -5.4772   -1.0314    0.0000 O   0  0  0  0  0  0  0  0  0  0  0  0
   -6.3438    0.1929    0.0000 C   0  0  0  0  0  0  0  0  0  0  0  0
   -5.7169    1.5556    0.0000 O   0  0  0  0  0  0  0  0  0  0  0  0
   -6.5835    2.7799    0.0000 C   0  0  0  0  0  0  0  0  0  0  0  0
   -8.0771    2.6415    0.0000 C   0  0  0  0  0  0  0  0  0  0  0  0
   -8.9437    3.8658    0.0000 O   0  0  0  0  0  0  0  0  0  0  0  0
   -8.7041    1.2788    0.0000 C   0  0  0  0  0  0  0  0  0  0  0  0
  -10.1977    1.1405    0.0000 O   0  0  0  0  0  0  0  0  0  0  0  0
   -7.8374    0.0545    0.0000 C   0  0  0  0  0  0  0  0  0  0  0  0
   -8.4644   -1.3082    0.0000 O   0  0  0  0  0  0  0  0  0  0  0  0
    0.7369   -3.0649    0.0000 C   0  0  0  0  0  0  0  0  0  0  0  0
    1.7267   -4.1920    0.0000 C   0  0  0  0  0  0  0  0  0  0  0  0
    3.1045   -3.5988    0.0000 C   0  0  0  0  0  0  0  0  0  0  0  0
    2.9661   -2.1052    0.0000 C   0  0  0  0  0  0  0  0  0  0  0  0
    3.9835   -1.0030    0.0000 C   0  0  0  0  0  0  0  0  0  0  0  0
    5.4468   -1.3329    0.0000 C   0  0  0  0  0  0  0  0  0  0  0  0
    5.8926   -2.7651    0.0000 O   0  0  0  0  0  0  0  0  0  0  0  0
    6.4641   -0.2307    0.0000 C   0  0  0  0  0  0  0  0  0  0  0  0
    7.9274   -0.5606    0.0000 O   0  0  0  0  0  0  0  0  0  0  0  0
    6.0183    1.2015    0.0000 C   0  0  0  0  0  0  0  0  0  0  0  0
    7.0356    2.3038    0.0000 C   0  0  0  0  0  0  0  0  0  0  0  0
    6.5897    3.7360    0.0000 C   0  0  0  0  0  0  0  0  0  0  0  0
    7.6071    4.8382    0.0000 O   0  0  0  0  0  0  0  0  0  0  0  0
    5.1265    4.0659    0.0000 C   0  0  0  0  0  0  0  0  0  0  0  0
    4.1091    2.9637    0.0000 C   0  0  0  0  0  0  0  0  0  0  0  0
    4.5550    1.5315    0.0000 C   0  0  0  0  0  0  0  0  0  0  0  0
    3.0917    1.8614    0.0000 C   0  0  0  0  0  0  0  0  0  0  0  0
    3.5376    0.4292    0.0000 C   0  0  0  0  0  0  0  0  0  0  0  0
    2.0744    0.7592    0.0000 C   0  0  0  0  0  0  0  0  0  0  0  0
    1.0570   -0.3431    0.0000 C   0  0  0  0  0  0  0  0  0  0  0  0
    1.5029   -1.7752    0.0000 C   0  0  0  0  0  0  0  0  0  0  0  0
    0.0131   -1.6001    0.0000 C   0  0  0  0  0  0  0  0  0  0  0  0
  2  1  1  6
  2  3  1  0
  3  4  1  0
  4  5  1  0
  5  6  2  0
  5  7  1  0
  8  7  1  6
  8  9  1  0
  9 10  1  0
 10 11  1  0
 11 12  1  1
 11 13  1  0
 13 14  1  1
 13 15  1  0
 15 16  1  6
  2 17  1  0
 17 18  1  6
 18 19  1  0
 20 19  1  6
 20 21  1  0
 21 22  1  1
 22 23  1  1
 22 24  1  0
 24 25  1  1
 24 26  1  0
 26 27  1  1
 27 28  1  0
 28 29  1  1
 28 30  1  0
 30 31  1  0
 31 32  1  0
 32 33  1  6
 32 34  1  0
 34 35  1  6
 35 36  1  0
 36 37  1  0
 37 38  1  6
 15  8  1  0
 37 17  1  0
 37 20  1  0
 34 21  1  0
 32 26  1  0
M  END
>  <MS_ID>  (1459) 
MS1519

>  <SMILES>  (1459) 
C[C@H](CCC(=O)O[C@H]1OC[C@H](O)[C@H](O)[C@H]1O)[C@H]1CC[C@H]2[C@@H]3[C@H](O)[C@H](O)[C@@H]4C[C@H](O)CC[C@]4(C)[C@H]3CC[C@]12C

>  <Structure_dimension>  (1459) 
2D

$$$$
MS1520
     RDKit          2D

 34 37  0  0  0  0  0  0  0  0999 V2000
   -7.2644   -1.6945    0.0000 C   0  0  0  0  0  0  0  0  0  0  0  0
   -6.0128   -0.8677    0.0000 C   0  0  0  0  0  0  0  0  0  0  0  0
   -6.1031    0.6296    0.0000 C   0  0  0  0  0  0  0  0  0  0  0  0
   -7.4449    1.3001    0.0000 C   0  0  0  0  0  0  0  0  0  0  0  0
   -7.5351    2.7974    0.0000 C   0  0  0  0  0  0  0  0  0  0  0  0
   -6.2835    3.6242    0.0000 O   0  0  0  0  0  0  0  0  0  0  0  0
   -8.8769    3.4679    0.0000 O   0  0  0  0  0  0  0  0  0  0  0  0
   -4.6710   -1.5382    0.0000 C   0  0  0  0  0  0  0  0  0  0  0  0
   -4.4247   -3.0178    0.0000 C   0  0  0  0  0  0  0  0  0  0  0  0
   -2.9414   -3.2408    0.0000 C   0  0  0  0  0  0  0  0  0  0  0  0
   -2.2709   -1.8990    0.0000 C   0  0  0  0  0  0  0  0  0  0  0  0
   -0.8251   -1.4995    0.0000 C   0  0  0  0  0  0  0  0  0  0  0  0
    0.2438   -2.5518    0.0000 C   0  0  0  0  0  0  0  0  0  0  0  0
   -0.1330   -4.0037    0.0000 O   0  0  0  0  0  0  0  0  0  0  0  0
    1.6896   -2.1522    0.0000 C   0  0  0  0  0  0  0  0  0  0  0  0
    2.0665   -0.7003    0.0000 C   0  0  0  0  0  0  0  0  0  0  0  0
    3.5123   -0.3007    0.0000 C   0  0  0  0  0  0  0  0  0  0  0  0
    3.8891    1.1512    0.0000 C   0  0  0  0  0  0  0  0  0  0  0  0
    5.3349    1.5508    0.0000 C   0  0  0  0  0  0  0  0  0  0  0  0
    6.4039    0.4984    0.0000 S   0  0  0  0  0  0  0  0  0  0  0  0
    7.8497    0.8980    0.0000 C   0  0  0  0  0  0  0  0  0  0  0  0
    8.9186   -0.1543    0.0000 C   0  0  0  0  0  0  0  0  0  0  0  0
   10.3644    0.2453    0.0000 C   0  0  0  0  0  0  0  0  0  0  0  0
   10.7413    1.6972    0.0000 O   0  0  0  0  0  0  0  0  0  0  0  0
   11.4334   -0.8070    0.0000 O   0  0  0  0  0  0  0  0  0  0  0  0
    2.8202    2.2035    0.0000 C   0  0  0  0  0  0  0  0  0  0  0  0
    1.3744    1.8039    0.0000 C   0  0  0  0  0  0  0  0  0  0  0  0
    0.9975    0.3520    0.0000 C   0  0  0  0  0  0  0  0  0  0  0  0
   -0.0714    1.4043    0.0000 C   0  0  0  0  0  0  0  0  0  0  0  0
   -0.4483   -0.0476    0.0000 C   0  0  0  0  0  0  0  0  0  0  0  0
   -1.5172    1.0047    0.0000 C   0  0  0  0  0  0  0  0  0  0  0  0
   -2.9630    0.6052    0.0000 C   0  0  0  0  0  0  0  0  0  0  0  0
   -3.3399   -0.8467    0.0000 C   0  0  0  0  0  0  0  0  0  0  0  0
   -4.5130    0.0881    0.0000 C   0  0  0  0  0  0  0  0  0  0  0  0
  2  1  1  6
  2  3  1  0
  3  4  1  0
  4  5  1  0
  5  6  2  0
  5  7  1  0
  2  8  1  0
  8  9  1  6
  9 10  1  0
 11 10  1  6
 11 12  1  0
 12 13  1  1
 13 14  1  6
 13 15  1  0
 16 15  1  1
 16 17  1  0
 17 18  1  0
 18 19  1  1
 19 20  1  0
 20 21  1  0
 21 22  1  0
 22 23  1  0
 23 24  2  0
 23 25  1  0
 18 26  1  0
 26 27  1  0
 27 28  1  0
 28 29  1  6
 28 30  1  0
 30 31  1  6
 31 32  1  0
 32 33  1  0
 33 34  1  6
 33  8  1  0
 33 11  1  0
 30 12  1  0
 28 16  1  0
M  END
>  <MS_ID>  (1460) 
MS1520

>  <SMILES>  (1460) 
C[C@H](CCC(=O)O)[C@H]1CC[C@H]2[C@@H]3[C@@H](O)C[C@@H]4C[C@H](CSCCC(=O)O)CC[C@]4(C)[C@H]3CC[C@]12C

>  <Structure_dimension>  (1460) 
2D

$$$$
MS1521
     RDKit          2D

 29 32  0  0  0  0  0  0  0  0999 V2000
   -4.0871   -3.1154    0.0000 C   0  0  0  0  0  0  0  0  0  0  0  0
   -3.0536   -2.0283    0.0000 C   0  0  0  0  0  0  0  0  0  0  0  0
   -3.4784   -0.5897    0.0000 C   0  0  0  0  0  0  0  0  0  0  0  0
   -4.9366   -0.2383    0.0000 C   0  0  0  0  0  0  0  0  0  0  0  0
   -5.3614    1.2003    0.0000 C   0  0  0  0  0  0  0  0  0  0  0  0
   -4.3279    2.2875    0.0000 O   0  0  0  0  0  0  0  0  0  0  0  0
   -6.8197    1.5518    0.0000 O   0  0  0  0  0  0  0  0  0  0  0  0
   -7.2445    2.9904    0.0000 C   0  0  0  0  0  0  0  0  0  0  0  0
   -8.7027    3.3418    0.0000 O   0  0  0  0  0  0  0  0  0  0  0  0
   -1.5953   -2.3797    0.0000 C   0  0  0  0  0  0  0  0  0  0  0  0
   -1.0225   -3.7660    0.0000 C   0  0  0  0  0  0  0  0  0  0  0  0
    0.4730   -3.6496    0.0000 C   0  0  0  0  0  0  0  0  0  0  0  0
    0.8244   -2.1914    0.0000 C   0  0  0  0  0  0  0  0  0  0  0  0
    2.1432   -1.4767    0.0000 C   0  0  0  0  0  0  0  0  0  0  0  0
    3.4215   -2.2616    0.0000 C   0  0  0  0  0  0  0  0  0  0  0  0
    4.7404   -1.5470    0.0000 C   0  0  0  0  0  0  0  0  0  0  0  0
    4.7809   -0.0475    0.0000 C   0  0  0  0  0  0  0  0  0  0  0  0
    6.0998    0.6671    0.0000 C   0  0  0  0  0  0  0  0  0  0  0  0
    6.1403    2.1665    0.0000 C   0  0  0  0  0  0  0  0  0  0  0  0
    7.4592    2.8811    0.0000 O   0  0  0  0  0  0  0  0  0  0  0  0
    4.8620    2.9514    0.0000 C   0  0  0  0  0  0  0  0  0  0  0  0
    3.5432    2.2368    0.0000 C   0  0  0  0  0  0  0  0  0  0  0  0
    3.5026    0.7373    0.0000 C   0  0  0  0  0  0  0  0  0  0  0  0
    2.2243    1.5222    0.0000 C   0  0  0  0  0  0  0  0  0  0  0  0
    2.1838    0.0227    0.0000 C   0  0  0  0  0  0  0  0  0  0  0  0
    0.9055    0.8076    0.0000 C   0  0  0  0  0  0  0  0  0  0  0  0
   -0.4133    0.0929    0.0000 C   0  0  0  0  0  0  0  0  0  0  0  0
   -0.4539   -1.4065    0.0000 C   0  0  0  0  0  0  0  0  0  0  0  0
   -1.8072   -0.7596    0.0000 C   0  0  0  0  0  0  0  0  0  0  0  0
  2  1  1  6
  2  3  1  0
  3  4  1  0
  4  5  1  0
  5  6  2  0
  5  7  1  0
  7  8  1  0
  8  9  1  0
  2 10  1  0
 10 11  1  6
 11 12  1  0
 13 12  1  6
 13 14  1  0
 14 15  1  1
 15 16  1  0
 17 16  1  1
 17 18  1  0
 18 19  1  0
 19 20  1  6
 19 21  1  0
 21 22  1  0
 22 23  1  0
 23 24  1  6
 23 25  1  0
 25 26  1  6
 26 27  1  0
 27 28  1  0
 28 29  1  6
 28 10  1  0
 28 13  1  0
 25 14  1  0
 23 17  1  0
M  END
>  <MS_ID>  (1461) 
MS1521

>  <SMILES>  (1461) 
C[C@H](CCC(=O)OCO)[C@H]1CC[C@H]2[C@@H]3CC[C@@H]4C[C@@H](O)CC[C@]4(C)[C@H]3CC[C@]12C

>  <Structure_dimension>  (1461) 
2D

$$$$
MS1522
     RDKit          2D

 31 34  0  0  0  0  0  0  0  0999 V2000
   -6.0200   -1.8327    0.0000 C   0  0  0  0  0  0  0  0  0  0  0  0
   -4.7535   -1.0289    0.0000 C   0  0  0  0  0  0  0  0  0  0  0  0
   -4.8164    0.4698    0.0000 C   0  0  0  0  0  0  0  0  0  0  0  0
   -6.1458    1.1647    0.0000 C   0  0  0  0  0  0  0  0  0  0  0  0
   -6.2086    2.6634    0.0000 C   0  0  0  0  0  0  0  0  0  0  0  0
   -4.9422    3.4672    0.0000 O   0  0  0  0  0  0  0  0  0  0  0  0
   -7.5380    3.3582    0.0000 O   0  0  0  0  0  0  0  0  0  0  0  0
   -3.4242   -1.7237    0.0000 C   0  0  0  0  0  0  0  0  0  0  0  0
   -3.2050   -3.2076    0.0000 C   0  0  0  0  0  0  0  0  0  0  0  0
   -1.7260   -3.4577    0.0000 C   0  0  0  0  0  0  0  0  0  0  0  0
   -1.0311   -2.1284    0.0000 C   0  0  0  0  0  0  0  0  0  0  0  0
    0.4218   -1.7553    0.0000 C   0  0  0  0  0  0  0  0  0  0  0  0
    1.4713   -2.8269    0.0000 C   0  0  0  0  0  0  0  0  0  0  0  0
    2.9242   -2.4538    0.0000 C   0  0  0  0  0  0  0  0  0  0  0  0
    3.3275   -1.0091    0.0000 C   0  0  0  0  0  0  0  0  0  0  0  0
    4.7803   -0.6359    0.0000 C   0  0  0  0  0  0  0  0  0  0  0  0
    5.1836    0.8088    0.0000 C   0  0  0  0  0  0  0  0  0  0  0  0
    6.6365    1.1819    0.0000 C   0  0  0  0  0  0  0  0  0  0  0  0
    7.0398    2.6267    0.0000 O   0  0  0  0  0  0  0  0  0  0  0  0
    7.6860    0.1103    0.0000 C   0  0  0  0  0  0  0  0  0  0  0  0
    9.1389    0.4834    0.0000 O   0  0  0  0  0  0  0  0  0  0  0  0
    4.1341    1.8805    0.0000 C   0  0  0  0  0  0  0  0  0  0  0  0
    2.6812    1.5074    0.0000 C   0  0  0  0  0  0  0  0  0  0  0  0
    2.2779    0.0626    0.0000 C   0  0  0  0  0  0  0  0  0  0  0  0
    1.2284    1.1343    0.0000 C   0  0  0  0  0  0  0  0  0  0  0  0
    0.8251   -0.3105    0.0000 C   0  0  0  0  0  0  0  0  0  0  0  0
   -0.2245    0.7611    0.0000 C   0  0  0  0  0  0  0  0  0  0  0  0
   -1.6773    0.3880    0.0000 C   0  0  0  0  0  0  0  0  0  0  0  0
   -2.7269    1.4597    0.0000 O   0  0  0  0  0  0  0  0  0  0  0  0
   -2.0806   -1.0567    0.0000 C   0  0  0  0  0  0  0  0  0  0  0  0
   -3.2365   -0.1006    0.0000 C   0  0  0  0  0  0  0  0  0  0  0  0
  2  1  1  6
  2  3  1  0
  3  4  1  0
  4  5  1  0
  5  6  2  0
  5  7  1  0
  2  8  1  0
  8  9  1  6
  9 10  1  0
 11 10  1  6
 11 12  1  0
 12 13  1  1
 13 14  1  0
 15 14  1  1
 15 16  1  0
 16 17  1  0
 17 18  1  1
 18 19  2  0
 18 20  1  0
 20 21  1  0
 17 22  1  0
 22 23  1  0
 23 24  1  0
 24 25  1  6
 24 26  1  0
 26 27  1  6
 27 28  1  0
 28 29  1  6
 28 30  1  0
 30 31  1  6
 30  8  1  0
 30 11  1  0
 26 12  1  0
 24 15  1  0
M  END
>  <MS_ID>  (1462) 
MS1522

>  <SMILES>  (1462) 
C[C@H](CCC(=O)O)[C@H]1CC[C@H]2[C@@H]3CC[C@@H]4C[C@H](C(=O)CO)CC[C@]4(C)[C@H]3C[C@@H](O)[C@]12C

>  <Structure_dimension>  (1462) 
2D

$$$$
MS1523
     RDKit          2D

 29 32  0  0  0  0  0  0  0  0999 V2000
   -5.0303   -2.1373    0.0000 C   0  0  0  0  0  0  0  0  0  0  0  0
   -3.8594   -1.1998    0.0000 C   0  0  0  0  0  0  0  0  0  0  0  0
   -4.0858    0.2830    0.0000 C   0  0  0  0  0  0  0  0  0  0  0  0
   -5.4831    0.8284    0.0000 C   0  0  0  0  0  0  0  0  0  0  0  0
   -5.7095    2.3112    0.0000 C   0  0  0  0  0  0  0  0  0  0  0  0
   -4.5386    3.2487    0.0000 O   0  0  0  0  0  0  0  0  0  0  0  0
   -7.1069    2.8565    0.0000 O   0  0  0  0  0  0  0  0  0  0  0  0
   -2.4620   -1.7451    0.0000 C   0  0  0  0  0  0  0  0  0  0  0  0
   -2.0818   -3.1961    0.0000 C   0  0  0  0  0  0  0  0  0  0  0  0
   -0.5844   -3.2830    0.0000 C   0  0  0  0  0  0  0  0  0  0  0  0
   -0.0390   -1.8856    0.0000 C   0  0  0  0  0  0  0  0  0  0  0  0
    1.3643   -1.3559    0.0000 C   0  0  0  0  0  0  0  0  0  0  0  0
    2.5248   -2.3063    0.0000 C   0  0  0  0  0  0  0  0  0  0  0  0
    2.2819   -3.7865    0.0000 O   0  0  0  0  0  0  0  0  0  0  0  0
    3.9281   -1.7765    0.0000 C   0  0  0  0  0  0  0  0  0  0  0  0
    4.1710   -0.2963    0.0000 C   0  0  0  0  0  0  0  0  0  0  0  0
    5.5743    0.2334    0.0000 C   0  0  0  0  0  0  0  0  0  0  0  0
    5.8172    1.7136    0.0000 C   0  0  0  0  0  0  0  0  0  0  0  0
    7.2205    2.2434    0.0000 S   0  0  0  0  0  0  0  0  0  0  0  0
    4.6568    2.6641    0.0000 C   0  0  0  0  0  0  0  0  0  0  0  0
    3.2534    2.1343    0.0000 C   0  0  0  0  0  0  0  0  0  0  0  0
    3.0105    0.6541    0.0000 C   0  0  0  0  0  0  0  0  0  0  0  0
    1.8501    1.6046    0.0000 C   0  0  0  0  0  0  0  0  0  0  0  0
    1.6072    0.1244    0.0000 C   0  0  0  0  0  0  0  0  0  0  0  0
    0.4467    1.0748    0.0000 C   0  0  0  0  0  0  0  0  0  0  0  0
   -0.9566    0.5450    0.0000 C   0  0  0  0  0  0  0  0  0  0  0  0
   -2.1170    1.4955    0.0000 O   0  0  0  0  0  0  0  0  0  0  0  0
   -1.1995   -0.9352    0.0000 C   0  0  0  0  0  0  0  0  0  0  0  0
   -2.4529   -0.1112    0.0000 C   0  0  0  0  0  0  0  0  0  0  0  0
  2  1  1  6
  2  3  1  0
  3  4  1  0
  4  5  1  0
  5  6  2  0
  5  7  1  0
  2  8  1  0
  8  9  1  6
  9 10  1  0
 11 10  1  6
 11 12  1  0
 12 13  1  1
 13 14  1  6
 13 15  1  0
 16 15  1  1
 16 17  1  0
 17 18  1  0
 18 19  1  6
 18 20  1  0
 20 21  1  0
 21 22  1  0
 22 23  1  6
 22 24  1  0
 24 25  1  6
 25 26  1  0
 26 27  1  1
 26 28  1  0
 28 29  1  6
 28  8  1  0
 28 11  1  0
 24 12  1  0
 22 16  1  0
M  END
>  <MS_ID>  (1463) 
MS1523

>  <SMILES>  (1463) 
C[C@H](CCC(=O)O)[C@H]1CC[C@H]2[C@@H]3[C@@H](O)C[C@@H]4C[C@@H](S)CC[C@]4(C)[C@H]3C[C@H](O)[C@]12C

>  <Structure_dimension>  (1463) 
2D

$$$$
MS1524
     RDKit          2D

 32 35  0  0  0  0  0  0  0  0999 V2000
    3.8305    3.5005    0.0000 C   0  0  0  0  0  0  0  0  0  0  0  0
    2.8769    2.3427    0.0000 C   0  0  0  0  0  0  0  0  0  0  0  0
    3.4027    0.9379    0.0000 C   0  0  0  0  0  0  0  0  0  0  0  0
    4.8822    0.6909    0.0000 C   0  0  0  0  0  0  0  0  0  0  0  0
    5.4081   -0.7139    0.0000 C   0  0  0  0  0  0  0  0  0  0  0  0
    4.4544   -1.8717    0.0000 O   0  0  0  0  0  0  0  0  0  0  0  0
    6.8876   -0.9609    0.0000 C   0  0  0  0  0  0  0  0  0  0  0  0
    7.4135   -2.3657    0.0000 C   0  0  0  0  0  0  0  0  0  0  0  0
    6.4598   -3.5235    0.0000 O   0  0  0  0  0  0  0  0  0  0  0  0
    8.8930   -2.6127    0.0000 O   0  0  0  0  0  0  0  0  0  0  0  0
    1.3973    2.5898    0.0000 C   0  0  0  0  0  0  0  0  0  0  0  0
    0.7275    3.9319    0.0000 C   0  0  0  0  0  0  0  0  0  0  0  0
   -0.7559    3.7096    0.0000 C   0  0  0  0  0  0  0  0  0  0  0  0
   -1.0029    2.2301    0.0000 C   0  0  0  0  0  0  0  0  0  0  0  0
   -2.2677    1.4237    0.0000 C   0  0  0  0  0  0  0  0  0  0  0  0
   -3.5985    2.1158    0.0000 C   0  0  0  0  0  0  0  0  0  0  0  0
   -3.6645    3.6143    0.0000 O   0  0  0  0  0  0  0  0  0  0  0  0
   -4.8633    1.3093    0.0000 C   0  0  0  0  0  0  0  0  0  0  0  0
   -4.7972   -0.1892    0.0000 C   0  0  0  0  0  0  0  0  0  0  0  0
   -6.0620   -0.9956    0.0000 C   0  0  0  0  0  0  0  0  0  0  0  0
   -5.9960   -2.4942    0.0000 C   0  0  0  0  0  0  0  0  0  0  0  0
   -7.2608   -3.3006    0.0000 O   0  0  0  0  0  0  0  0  0  0  0  0
   -4.6652   -3.1863    0.0000 C   0  0  0  0  0  0  0  0  0  0  0  0
   -3.4005   -2.3799    0.0000 C   0  0  0  0  0  0  0  0  0  0  0  0
   -2.0697   -3.0720    0.0000 O   0  0  0  0  0  0  0  0  0  0  0  0
   -3.4665   -0.8813    0.0000 C   0  0  0  0  0  0  0  0  0  0  0  0
   -2.1357   -1.5734    0.0000 C   0  0  0  0  0  0  0  0  0  0  0  0
   -2.2017   -0.0749    0.0000 C   0  0  0  0  0  0  0  0  0  0  0  0
   -0.8709   -0.7670    0.0000 C   0  0  0  0  0  0  0  0  0  0  0  0
    0.3939    0.0394    0.0000 C   0  0  0  0  0  0  0  0  0  0  0  0
    0.3279    1.5380    0.0000 C   0  0  0  0  0  0  0  0  0  0  0  0
    1.7237    0.9888    0.0000 C   0  0  0  0  0  0  0  0  0  0  0  0
  2  1  1  6
  2  3  1  0
  3  4  1  0
  4  5  1  0
  5  6  2  0
  5  7  1  0
  7  8  1  0
  8  9  2  0
  8 10  1  0
  2 11  1  0
 11 12  1  6
 12 13  1  0
 14 13  1  6
 14 15  1  0
 15 16  1  1
 16 17  1  1
 16 18  1  0
 19 18  1  1
 19 20  1  0
 20 21  1  0
 21 22  1  1
 21 23  1  0
 23 24  1  0
 24 25  1  1
 24 26  1  0
 26 27  1  6
 26 28  1  0
 28 29  1  6
 29 30  1  0
 30 31  1  0
 31 32  1  6
 31 11  1  0
 31 14  1  0
 28 15  1  0
 26 19  1  0
M  END
>  <MS_ID>  (1464) 
MS1524

>  <SMILES>  (1464) 
C[C@H](CCC(=O)CC(=O)O)[C@H]1CC[C@H]2[C@@H]3[C@H](O)C[C@@H]4C[C@H](O)C[C@H](O)[C@]4(C)[C@H]3CC[C@]12C

>  <Structure_dimension>  (1464) 
2D

$$$$
MS1525
     RDKit          2D

 31 34  0  0  0  0  0  0  0  0999 V2000
   -2.9977   -3.6783    0.0000 C   0  0  0  0  0  0  0  0  0  0  0  0
   -2.1750   -2.4240    0.0000 C   0  0  0  0  0  0  0  0  0  0  0  0
   -2.8500   -1.0844    0.0000 C   0  0  0  0  0  0  0  0  0  0  0  0
   -4.3475   -0.9991    0.0000 C   0  0  0  0  0  0  0  0  0  0  0  0
   -5.0224    0.3405    0.0000 C   0  0  0  0  0  0  0  0  0  0  0  0
   -4.1998    1.5947    0.0000 O   0  0  0  0  0  0  0  0  0  0  0  0
   -6.5200    0.4258    0.0000 O   0  0  0  0  0  0  0  0  0  0  0  0
   -7.1949    1.7653    0.0000 C   0  0  0  0  0  0  0  0  0  0  0  0
   -8.6925    1.8506    0.0000 C   0  0  0  0  0  0  0  0  0  0  0  0
   -9.3674    3.1902    0.0000 N   0  0  0  0  0  0  0  0  0  0  0  0
   -0.6775   -2.5093    0.0000 C   0  0  0  0  0  0  0  0  0  0  0  0
    0.1338   -3.7710    0.0000 C   0  0  0  0  0  0  0  0  0  0  0  0
    1.5844   -3.3894    0.0000 C   0  0  0  0  0  0  0  0  0  0  0  0
    1.6697   -1.8918    0.0000 C   0  0  0  0  0  0  0  0  0  0  0  0
    2.8397   -0.9531    0.0000 C   0  0  0  0  0  0  0  0  0  0  0  0
    4.2376   -1.4970    0.0000 C   0  0  0  0  0  0  0  0  0  0  0  0
    4.4655   -2.9796    0.0000 O   0  0  0  0  0  0  0  0  0  0  0  0
    5.4076   -0.5583    0.0000 C   0  0  0  0  0  0  0  0  0  0  0  0
    5.1797    0.9243    0.0000 C   0  0  0  0  0  0  0  0  0  0  0  0
    6.3497    1.8629    0.0000 C   0  0  0  0  0  0  0  0  0  0  0  0
    6.1217    3.3455    0.0000 C   0  0  0  0  0  0  0  0  0  0  0  0
    4.7238    3.8894    0.0000 C   0  0  0  0  0  0  0  0  0  0  0  0
    3.5538    2.9507    0.0000 C   0  0  0  0  0  0  0  0  0  0  0  0
    3.7818    1.4682    0.0000 C   0  0  0  0  0  0  0  0  0  0  0  0
    2.3839    2.0121    0.0000 C   0  0  0  0  0  0  0  0  0  0  0  0
    2.6118    0.5295    0.0000 C   0  0  0  0  0  0  0  0  0  0  0  0
    1.2139    1.0734    0.0000 C   0  0  0  0  0  0  0  0  0  0  0  0
    0.0439    0.1347    0.0000 C   0  0  0  0  0  0  0  0  0  0  0  0
   -1.3540    0.6786    0.0000 O   0  0  0  0  0  0  0  0  0  0  0  0
    0.2718   -1.3479    0.0000 C   0  0  0  0  0  0  0  0  0  0  0  0
   -1.1753   -0.9531    0.0000 C   0  0  0  0  0  0  0  0  0  0  0  0
  2  1  1  6
  2  3  1  0
  3  4  1  0
  4  5  1  0
  5  6  2  0
  5  7  1  0
  7  8  1  0
  8  9  1  0
  9 10  1  0
  2 11  1  0
 11 12  1  6
 12 13  1  0
 14 13  1  6
 14 15  1  0
 15 16  1  1
 16 17  1  6
 16 18  1  0
 19 18  1  1
 19 20  1  0
 20 21  1  0
 21 22  1  0
 22 23  1  0
 23 24  1  0
 24 25  1  6
 24 26  1  0
 26 27  1  6
 27 28  1  0
 28 29  1  6
 28 30  1  0
 30 31  1  6
 30 11  1  0
 30 14  1  0
 26 15  1  0
 24 19  1  0
M  END
>  <MS_ID>  (1465) 
MS1525

>  <SMILES>  (1465) 
C[C@H](CCC(=O)OCCN)[C@H]1CC[C@H]2[C@@H]3[C@@H](O)C[C@@H]4CCCC[C@]4(C)[C@H]3C[C@@H](O)[C@]12C

>  <Structure_dimension>  (1465) 
2D

$$$$
MS1526
     RDKit          2D

 33 36  0  0  0  0  0  0  0  0999 V2000
   -2.7798   -3.8103    0.0000 C   0  0  0  0  0  0  0  0  0  0  0  0
   -1.9338   -2.5716    0.0000 C   0  0  0  0  0  0  0  0  0  0  0  0
   -2.5835   -1.2196    0.0000 C   0  0  0  0  0  0  0  0  0  0  0  0
   -4.0792   -1.1063    0.0000 C   0  0  0  0  0  0  0  0  0  0  0  0
   -4.7289    0.2457    0.0000 C   0  0  0  0  0  0  0  0  0  0  0  0
   -3.8829    1.4843    0.0000 O   0  0  0  0  0  0  0  0  0  0  0  0
   -6.2246    0.3590    0.0000 N   0  0  0  0  0  0  0  0  0  0  0  0
   -6.8743    1.7110    0.0000 C   0  0  0  0  0  0  0  0  0  0  0  0
   -8.3700    1.8244    0.0000 C   0  0  0  0  0  0  0  0  0  0  0  0
   -8.4834    0.3287    0.0000 C   0  0  0  0  0  0  0  0  0  0  0  0
   -8.2567    3.3201    0.0000 C   0  0  0  0  0  0  0  0  0  0  0  0
   -9.8657    1.9377    0.0000 O   0  0  0  0  0  0  0  0  0  0  0  0
   -0.4381   -2.6850    0.0000 C   0  0  0  0  0  0  0  0  0  0  0  0
    0.3494   -3.9617    0.0000 C   0  0  0  0  0  0  0  0  0  0  0  0
    1.8069   -3.6073    0.0000 C   0  0  0  0  0  0  0  0  0  0  0  0
    1.9202   -2.1116    0.0000 C   0  0  0  0  0  0  0  0  0  0  0  0
    3.1076   -1.1950    0.0000 C   0  0  0  0  0  0  0  0  0  0  0  0
    4.4951   -1.7650    0.0000 C   0  0  0  0  0  0  0  0  0  0  0  0
    4.6952   -3.2515    0.0000 O   0  0  0  0  0  0  0  0  0  0  0  0
    5.6825   -0.8484    0.0000 C   0  0  0  0  0  0  0  0  0  0  0  0
    5.4824    0.6382    0.0000 C   0  0  0  0  0  0  0  0  0  0  0  0
    6.6697    1.5548    0.0000 C   0  0  0  0  0  0  0  0  0  0  0  0
    6.4696    3.0414    0.0000 C   0  0  0  0  0  0  0  0  0  0  0  0
    7.6570    3.9580    0.0000 O   0  0  0  0  0  0  0  0  0  0  0  0
    5.0821    3.6114    0.0000 C   0  0  0  0  0  0  0  0  0  0  0  0
    3.8948    2.6948    0.0000 C   0  0  0  0  0  0  0  0  0  0  0  0
    4.0949    1.2082    0.0000 C   0  0  0  0  0  0  0  0  0  0  0  0
    2.7074    1.7782    0.0000 C   0  0  0  0  0  0  0  0  0  0  0  0
    2.9075    0.2916    0.0000 C   0  0  0  0  0  0  0  0  0  0  0  0
    1.5200    0.8616    0.0000 C   0  0  0  0  0  0  0  0  0  0  0  0
    0.3327   -0.0550    0.0000 C   0  0  0  0  0  0  0  0  0  0  0  0
    0.5328   -1.5416    0.0000 C   0  0  0  0  0  0  0  0  0  0  0  0
   -0.9067   -1.1197    0.0000 C   0  0  0  0  0  0  0  0  0  0  0  0
  2  1  1  6
  2  3  1  0
  3  4  1  0
  4  5  1  0
  5  6  2  0
  5  7  1  0
  7  8  1  0
  8  9  1  0
  9 10  1  0
  9 11  1  0
  9 12  1  0
  2 13  1  0
 13 14  1  6
 14 15  1  0
 16 15  1  6
 16 17  1  0
 17 18  1  1
 18 19  1  1
 18 20  1  0
 21 20  1  1
 21 22  1  0
 22 23  1  0
 23 24  1  1
 23 25  1  0
 25 26  1  0
 26 27  1  0
 27 28  1  6
 27 29  1  0
 29 30  1  6
 30 31  1  0
 31 32  1  0
 32 33  1  6
 32 13  1  0
 32 16  1  0
 29 17  1  0
 27 21  1  0
M  END
>  <MS_ID>  (1466) 
MS1526

>  <SMILES>  (1466) 
C[C@H](CCC(=O)NCC(C)(C)O)[C@H]1CC[C@H]2[C@@H]3[C@H](O)C[C@@H]4C[C@H](O)CC[C@]4(C)[C@H]3CC[C@]12C

>  <Structure_dimension>  (1466) 
2D

$$$$
MS1527
     RDKit          2D

 29 32  0  0  0  0  0  0  0  0999 V2000
   -4.5534   -2.6812    0.0000 C   0  0  0  0  0  0  0  0  0  0  0  0
   -3.4378   -1.6786    0.0000 C   0  0  0  0  0  0  0  0  0  0  0  0
   -3.7483   -0.2111    0.0000 C   0  0  0  0  0  0  0  0  0  0  0  0
   -5.1744    0.2538    0.0000 C   0  0  0  0  0  0  0  0  0  0  0  0
   -5.4850    1.7213    0.0000 C   0  0  0  0  0  0  0  0  0  0  0  0
   -4.3693    2.7239    0.0000 O   0  0  0  0  0  0  0  0  0  0  0  0
   -6.9111    2.1861    0.0000 C   0  0  0  0  0  0  0  0  0  0  0  0
   -7.2216    3.6536    0.0000 S   0  0  0  0  0  0  0  0  0  0  0  0
   -2.0116   -2.1434    0.0000 C   0  0  0  0  0  0  0  0  0  0  0  0
   -1.5494   -3.5704    0.0000 C   0  0  0  0  0  0  0  0  0  0  0  0
   -0.0494   -3.5718    0.0000 C   0  0  0  0  0  0  0  0  0  0  0  0
    0.4155   -2.1456    0.0000 C   0  0  0  0  0  0  0  0  0  0  0  0
    1.7863   -1.5368    0.0000 C   0  0  0  0  0  0  0  0  0  0  0  0
    2.9990   -2.4196    0.0000 C   0  0  0  0  0  0  0  0  0  0  0  0
    4.3699   -1.8107    0.0000 C   0  0  0  0  0  0  0  0  0  0  0  0
    4.5281   -0.3191    0.0000 C   0  0  0  0  0  0  0  0  0  0  0  0
    5.8990    0.2898    0.0000 C   0  0  0  0  0  0  0  0  0  0  0  0
    6.0571    1.7814    0.0000 C   0  0  0  0  0  0  0  0  0  0  0  0
    7.4280    2.3902    0.0000 O   0  0  0  0  0  0  0  0  0  0  0  0
    4.8444    2.6642    0.0000 C   0  0  0  0  0  0  0  0  0  0  0  0
    3.4735    2.0553    0.0000 C   0  0  0  0  0  0  0  0  0  0  0  0
    3.3154    0.5637    0.0000 C   0  0  0  0  0  0  0  0  0  0  0  0
    2.1026    1.4465    0.0000 C   0  0  0  0  0  0  0  0  0  0  0  0
    1.9445   -0.0451    0.0000 C   0  0  0  0  0  0  0  0  0  0  0  0
    0.7318    0.8376    0.0000 C   0  0  0  0  0  0  0  0  0  0  0  0
   -0.6391    0.2288    0.0000 C   0  0  0  0  0  0  0  0  0  0  0  0
   -1.8518    1.1116    0.0000 O   0  0  0  0  0  0  0  0  0  0  0  0
   -0.7973   -1.2628    0.0000 C   0  0  0  0  0  0  0  0  0  0  0  0
   -2.0956   -0.5116    0.0000 C   0  0  0  0  0  0  0  0  0  0  0  0
  2  1  1  6
  2  3  1  0
  3  4  1  0
  4  5  1  0
  5  6  2  0
  5  7  1  0
  7  8  1  0
  2  9  1  0
  9 10  1  6
 10 11  1  0
 12 11  1  6
 12 13  1  0
 13 14  1  1
 14 15  1  0
 16 15  1  1
 16 17  1  0
 17 18  1  0
 18 19  2  0
 18 20  1  0
 20 21  1  0
 21 22  1  0
 22 23  1  6
 22 24  1  0
 24 25  1  6
 25 26  1  0
 26 27  1  1
 26 28  1  0
 28 29  1  6
 28  9  1  0
 28 12  1  0
 24 13  1  0
 22 16  1  0
M  END
>  <MS_ID>  (1467) 
MS1527

>  <SMILES>  (1467) 
C[C@H](CCC(=O)CS)[C@H]1CC[C@H]2[C@@H]3CC[C@@H]4CC(=O)CC[C@]4(C)[C@H]3C[C@H](O)[C@]12C

>  <Structure_dimension>  (1467) 
2D

$$$$
MS1528
     RDKit          2D

 30 33  0  0  0  0  0  0  0  0999 V2000
   -4.3209   -2.7536    0.0000 C   0  0  0  0  0  0  0  0  0  0  0  0
   -3.2523   -1.7010    0.0000 C   0  0  0  0  0  0  0  0  0  0  0  0
   -3.6295   -0.2492    0.0000 C   0  0  0  0  0  0  0  0  0  0  0  0
   -5.0755    0.1499    0.0000 C   0  0  0  0  0  0  0  0  0  0  0  0
   -5.4527    1.6017    0.0000 C   0  0  0  0  0  0  0  0  0  0  0  0
   -4.3841    2.6543    0.0000 O   0  0  0  0  0  0  0  0  0  0  0  0
   -6.8987    2.0009    0.0000 C   0  0  0  0  0  0  0  0  0  0  0  0
   -7.9673    0.9482    0.0000 O   0  0  0  0  0  0  0  0  0  0  0  0
   -7.2759    3.4526    0.0000 O   0  0  0  0  0  0  0  0  0  0  0  0
   -1.8064   -2.1002    0.0000 C   0  0  0  0  0  0  0  0  0  0  0  0
   -1.2794   -3.5046    0.0000 C   0  0  0  0  0  0  0  0  0  0  0  0
    0.2191   -3.4374    0.0000 C   0  0  0  0  0  0  0  0  0  0  0  0
    0.6183   -1.9915    0.0000 C   0  0  0  0  0  0  0  0  0  0  0  0
    1.9599   -1.3206    0.0000 C   0  0  0  0  0  0  0  0  0  0  0  0
    3.2117   -2.1470    0.0000 C   0  0  0  0  0  0  0  0  0  0  0  0
    3.1219   -3.6443    0.0000 O   0  0  0  0  0  0  0  0  0  0  0  0
    4.5533   -1.4762    0.0000 C   0  0  0  0  0  0  0  0  0  0  0  0
    4.6431    0.0211    0.0000 C   0  0  0  0  0  0  0  0  0  0  0  0
    5.9847    0.6920    0.0000 C   0  0  0  0  0  0  0  0  0  0  0  0
    6.0745    2.1893    0.0000 C   0  0  0  0  0  0  0  0  0  0  0  0
    7.4161    2.8602    0.0000 O   0  0  0  0  0  0  0  0  0  0  0  0
    4.8227    3.0158    0.0000 C   0  0  0  0  0  0  0  0  0  0  0  0
    3.4811    2.3449    0.0000 C   0  0  0  0  0  0  0  0  0  0  0  0
    3.3913    0.8476    0.0000 C   0  0  0  0  0  0  0  0  0  0  0  0
    2.1395    1.6740    0.0000 C   0  0  0  0  0  0  0  0  0  0  0  0
    2.0497    0.1767    0.0000 C   0  0  0  0  0  0  0  0  0  0  0  0
    0.7979    1.0031    0.0000 C   0  0  0  0  0  0  0  0  0  0  0  0
   -0.5437    0.3323    0.0000 C   0  0  0  0  0  0  0  0  0  0  0  0
   -0.6335   -1.1650    0.0000 C   0  0  0  0  0  0  0  0  0  0  0  0
   -1.9649   -0.4740    0.0000 C   0  0  0  0  0  0  0  0  0  0  0  0
  2  1  1  6
  2  3  1  0
  3  4  1  0
  4  5  1  0
  5  6  2  0
  5  7  1  0
  7  8  2  0
  7  9  1  0
  2 10  1  0
 10 11  1  6
 11 12  1  0
 13 12  1  6
 13 14  1  0
 14 15  1  1
 15 16  1  1
 15 17  1  0
 18 17  1  1
 18 19  1  0
 19 20  1  0
 20 21  1  6
 20 22  1  0
 22 23  1  0
 23 24  1  0
 24 25  1  6
 24 26  1  0
 26 27  1  6
 27 28  1  0
 28 29  1  0
 29 30  1  6
 29 10  1  0
 29 13  1  0
 26 14  1  0
 24 18  1  0
M  END
>  <MS_ID>  (1468) 
MS1528

>  <SMILES>  (1468) 
C[C@H](CCC(=O)C(=O)O)[C@H]1CC[C@H]2[C@@H]3[C@H](O)C[C@@H]4C[C@@H](O)CC[C@]4(C)[C@H]3CC[C@]12C

>  <Structure_dimension>  (1468) 
2D

$$$$
MS1529
     RDKit          2D

 29 32  0  0  0  0  0  0  0  0999 V2000
   -8.7027    3.3418    0.0000 C   0  0  0  0  0  0  0  0  0  0  0  0
   -7.2445    2.9904    0.0000 C   0  0  0  0  0  0  0  0  0  0  0  0
   -6.8197    1.5518    0.0000 O   0  0  0  0  0  0  0  0  0  0  0  0
   -5.3614    1.2003    0.0000 C   0  0  0  0  0  0  0  0  0  0  0  0
   -4.3279    2.2875    0.0000 O   0  0  0  0  0  0  0  0  0  0  0  0
   -4.9366   -0.2383    0.0000 C   0  0  0  0  0  0  0  0  0  0  0  0
   -3.4784   -0.5897    0.0000 C   0  0  0  0  0  0  0  0  0  0  0  0
   -3.0536   -2.0283    0.0000 C   0  0  0  0  0  0  0  0  0  0  0  0
   -4.0871   -3.1154    0.0000 C   0  0  0  0  0  0  0  0  0  0  0  0
   -1.5953   -2.3797    0.0000 C   0  0  0  0  0  0  0  0  0  0  0  0
   -1.0225   -3.7660    0.0000 C   0  0  0  0  0  0  0  0  0  0  0  0
    0.4730   -3.6496    0.0000 C   0  0  0  0  0  0  0  0  0  0  0  0
    0.8244   -2.1914    0.0000 C   0  0  0  0  0  0  0  0  0  0  0  0
    2.1432   -1.4767    0.0000 C   0  0  0  0  0  0  0  0  0  0  0  0
    3.4215   -2.2616    0.0000 C   0  0  0  0  0  0  0  0  0  0  0  0
    4.7404   -1.5470    0.0000 C   0  0  0  0  0  0  0  0  0  0  0  0
    4.7809   -0.0475    0.0000 C   0  0  0  0  0  0  0  0  0  0  0  0
    6.0998    0.6671    0.0000 C   0  0  0  0  0  0  0  0  0  0  0  0
    6.1403    2.1665    0.0000 C   0  0  0  0  0  0  0  0  0  0  0  0
    7.4592    2.8811    0.0000 O   0  0  0  0  0  0  0  0  0  0  0  0
    4.8620    2.9514    0.0000 C   0  0  0  0  0  0  0  0  0  0  0  0
    3.5432    2.2368    0.0000 C   0  0  0  0  0  0  0  0  0  0  0  0
    3.5026    0.7373    0.0000 C   0  0  0  0  0  0  0  0  0  0  0  0
    2.2243    1.5222    0.0000 C   0  0  0  0  0  0  0  0  0  0  0  0
    2.1838    0.0227    0.0000 C   0  0  0  0  0  0  0  0  0  0  0  0
    0.9055    0.8076    0.0000 C   0  0  0  0  0  0  0  0  0  0  0  0
   -0.4133    0.0929    0.0000 C   0  0  0  0  0  0  0  0  0  0  0  0
   -0.4539   -1.4065    0.0000 C   0  0  0  0  0  0  0  0  0  0  0  0
   -1.8072   -0.7596    0.0000 C   0  0  0  0  0  0  0  0  0  0  0  0
  1  2  1  0
  2  3  1  0
  3  4  1  0
  4  5  2  0
  4  6  1  0
  6  7  1  0
  7  8  1  0
  8  9  1  6
  8 10  1  0
 10 11  1  6
 11 12  1  0
 13 12  1  6
 13 14  1  0
 14 15  1  1
 15 16  1  0
 17 16  1  1
 17 18  1  0
 18 19  1  0
 19 20  2  0
 19 21  1  0
 21 22  1  0
 22 23  1  0
 23 24  1  6
 23 25  1  0
 25 26  1  6
 26 27  1  0
 27 28  1  0
 28 29  1  6
 28 10  1  0
 28 13  1  0
 25 14  1  0
 23 17  1  0
M  END
>  <MS_ID>  (1469) 
MS1529

>  <SMILES>  (1469) 
CCOC(=O)CC[C@@H](C)[C@H]1CC[C@H]2[C@@H]3CC[C@@H]4CC(=O)CC[C@]4(C)[C@H]3CC[C@]12C

>  <Structure_dimension>  (1469) 
2D

$$$$
MS1530
     RDKit          2D

 30 33  0  0  0  0  0  0  0  0999 V2000
   -8.9136    3.2062    0.0000 C   0  0  0  0  0  0  0  0  0  0  0  0
   -7.4457    2.8978    0.0000 S   0  0  0  0  0  0  0  0  0  0  0  0
   -6.9787    1.4724    0.0000 C   0  0  0  0  0  0  0  0  0  0  0  0
   -5.5108    1.1640    0.0000 C   0  0  0  0  0  0  0  0  0  0  0  0
   -4.5097    2.2811    0.0000 O   0  0  0  0  0  0  0  0  0  0  0  0
   -5.0438   -0.2615    0.0000 C   0  0  0  0  0  0  0  0  0  0  0  0
   -3.5759   -0.5698    0.0000 C   0  0  0  0  0  0  0  0  0  0  0  0
   -3.1089   -1.9953    0.0000 C   0  0  0  0  0  0  0  0  0  0  0  0
   -4.1099   -3.1124    0.0000 C   0  0  0  0  0  0  0  0  0  0  0  0
   -1.6409   -2.3036    0.0000 C   0  0  0  0  0  0  0  0  0  0  0  0
   -1.0276   -3.6725    0.0000 C   0  0  0  0  0  0  0  0  0  0  0  0
    0.4638   -3.5121    0.0000 C   0  0  0  0  0  0  0  0  0  0  0  0
    0.7722   -2.0441    0.0000 C   0  0  0  0  0  0  0  0  0  0  0  0
    2.0694   -1.2910    0.0000 C   0  0  0  0  0  0  0  0  0  0  0  0
    3.3703   -2.0379    0.0000 C   0  0  0  0  0  0  0  0  0  0  0  0
    3.3739   -3.5379    0.0000 O   0  0  0  0  0  0  0  0  0  0  0  0
    4.6675   -1.2848    0.0000 C   0  0  0  0  0  0  0  0  0  0  0  0
    4.6639    0.2152    0.0000 C   0  0  0  0  0  0  0  0  0  0  0  0
    5.9611    0.9683    0.0000 C   0  0  0  0  0  0  0  0  0  0  0  0
    5.9575    2.4683    0.0000 C   0  0  0  0  0  0  0  0  0  0  0  0
    7.2548    3.2214    0.0000 O   0  0  0  0  0  0  0  0  0  0  0  0
    4.6567    3.2152    0.0000 C   0  0  0  0  0  0  0  0  0  0  0  0
    3.3595    2.4621    0.0000 C   0  0  0  0  0  0  0  0  0  0  0  0
    3.3631    0.9621    0.0000 C   0  0  0  0  0  0  0  0  0  0  0  0
    2.0622    1.7090    0.0000 C   0  0  0  0  0  0  0  0  0  0  0  0
    2.0658    0.2090    0.0000 C   0  0  0  0  0  0  0  0  0  0  0  0
    0.7650    0.9559    0.0000 C   0  0  0  0  0  0  0  0  0  0  0  0
   -0.5322    0.2027    0.0000 C   0  0  0  0  0  0  0  0  0  0  0  0
   -0.5286   -1.2973    0.0000 C   0  0  0  0  0  0  0  0  0  0  0  0
   -1.9004   -0.6904    0.0000 C   0  0  0  0  0  0  0  0  0  0  0  0
  1  2  1  0
  2  3  1  0
  3  4  1  0
  4  5  2  0
  4  6  1  0
  6  7  1  0
  7  8  1  0
  8  9  1  6
  8 10  1  0
 10 11  1  6
 11 12  1  0
 13 12  1  6
 13 14  1  0
 14 15  1  1
 15 16  1  1
 15 17  1  0
 18 17  1  1
 18 19  1  0
 19 20  1  0
 20 21  1  1
 20 22  1  0
 22 23  1  0
 23 24  1  0
 24 25  1  6
 24 26  1  0
 26 27  1  6
 27 28  1  0
 28 29  1  0
 29 30  1  6
 29 10  1  0
 29 13  1  0
 26 14  1  0
 24 18  1  0
M  END
>  <MS_ID>  (1470) 
MS1530

>  <SMILES>  (1470) 
CSCC(=O)CC[C@@H](C)[C@H]1CC[C@H]2[C@@H]3[C@H](O)C[C@@H]4C[C@H](O)CC[C@]4(C)[C@H]3CC[C@]12C

>  <Structure_dimension>  (1470) 
2D

$$$$
MS1531
     RDKit          2D

 36 39  0  0  0  0  0  0  0  0999 V2000
   -4.5074   -3.5654    0.0000 C   0  0  0  0  0  0  0  0  0  0  0  0
   -3.4785   -2.4739    0.0000 C   0  0  0  0  0  0  0  0  0  0  0  0
   -3.9094   -1.0371    0.0000 C   0  0  0  0  0  0  0  0  0  0  0  0
   -5.3691   -0.6918    0.0000 C   0  0  0  0  0  0  0  0  0  0  0  0
   -5.8000    0.7449    0.0000 C   0  0  0  0  0  0  0  0  0  0  0  0
   -4.7711    1.8365    0.0000 O   0  0  0  0  0  0  0  0  0  0  0  0
   -7.2597    1.0902    0.0000 C   0  0  0  0  0  0  0  0  0  0  0  0
   -7.6905    2.5270    0.0000 C   0  0  0  0  0  0  0  0  0  0  0  0
   -9.1503    2.8723    0.0000 C   0  0  0  0  0  0  0  0  0  0  0  0
  -10.1791    1.7807    0.0000 O   0  0  0  0  0  0  0  0  0  0  0  0
   -9.5811    4.3090    0.0000 O   0  0  0  0  0  0  0  0  0  0  0  0
   -2.0188   -2.8192    0.0000 C   0  0  0  0  0  0  0  0  0  0  0  0
   -1.4401   -4.2030    0.0000 C   0  0  0  0  0  0  0  0  0  0  0  0
    0.0548   -4.0803    0.0000 C   0  0  0  0  0  0  0  0  0  0  0  0
    0.4001   -2.6206    0.0000 C   0  0  0  0  0  0  0  0  0  0  0  0
    1.7159   -1.9004    0.0000 C   0  0  0  0  0  0  0  0  0  0  0  0
    2.9975   -2.6799    0.0000 C   0  0  0  0  0  0  0  0  0  0  0  0
    4.3133   -1.9597    0.0000 C   0  0  0  0  0  0  0  0  0  0  0  0
    4.3475   -0.4601    0.0000 C   0  0  0  0  0  0  0  0  0  0  0  0
    5.6634    0.2601    0.0000 C   0  0  0  0  0  0  0  0  0  0  0  0
    5.6976    1.7597    0.0000 C   0  0  0  0  0  0  0  0  0  0  0  0
    7.0134    2.4798    0.0000 O   0  0  0  0  0  0  0  0  0  0  0  0
    8.2950    1.7004    0.0000 S   0  0  0  0  0  0  0  0  0  0  0  0
    7.5155    0.4188    0.0000 O   0  0  0  0  0  0  0  0  0  0  0  0
    9.0744    2.9820    0.0000 O   0  0  0  0  0  0  0  0  0  0  0  0
    9.5766    0.9209    0.0000 O   0  0  0  0  0  0  0  0  0  0  0  0
    4.4160    2.5391    0.0000 C   0  0  0  0  0  0  0  0  0  0  0  0
    3.1002    1.8189    0.0000 C   0  0  0  0  0  0  0  0  0  0  0  0
    3.0660    0.3193    0.0000 C   0  0  0  0  0  0  0  0  0  0  0  0
    1.7844    1.0988    0.0000 C   0  0  0  0  0  0  0  0  0  0  0  0
    1.7501   -0.4008    0.0000 C   0  0  0  0  0  0  0  0  0  0  0  0
    0.4686    0.3786    0.0000 C   0  0  0  0  0  0  0  0  0  0  0  0
   -0.8473   -0.3415    0.0000 C   0  0  0  0  0  0  0  0  0  0  0  0
   -2.1288    0.4379    0.0000 O   0  0  0  0  0  0  0  0  0  0  0  0
   -0.8815   -1.8412    0.0000 C   0  0  0  0  0  0  0  0  0  0  0  0
   -2.2375   -1.1999    0.0000 C   0  0  0  0  0  0  0  0  0  0  0  0
  2  1  1  6
  2  3  1  0
  3  4  1  0
  4  5  1  0
  5  6  2  0
  5  7  1  0
  7  8  1  0
  8  9  1  0
  9 10  2  0
  9 11  1  0
  2 12  1  0
 12 13  1  6
 13 14  1  0
 15 14  1  6
 15 16  1  0
 16 17  1  1
 17 18  1  0
 19 18  1  1
 19 20  1  0
 20 21  1  0
 21 22  1  1
 22 23  1  0
 23 24  2  0
 23 25  2  0
 23 26  1  0
 21 27  1  0
 27 28  1  0
 28 29  1  0
 29 30  1  6
 29 31  1  0
 31 32  1  6
 32 33  1  0
 33 34  1  1
 33 35  1  0
 35 36  1  6
 35 12  1  0
 35 15  1  0
 31 16  1  0
 29 19  1  0
M  END
>  <MS_ID>  (1471) 
MS1531

>  <SMILES>  (1471) 
C[C@H](CCC(=O)CCC(=O)O)[C@H]1CC[C@H]2[C@@H]3CC[C@@H]4C[C@H](OS(=O)(=O)O)CC[C@]4(C)[C@H]3C[C@H](O)[C@]12C

>  <Structure_dimension>  (1471) 
2D

$$$$
MS1532
     RDKit          2D

 38 41  0  0  0  0  0  0  0  0999 V2000
   -0.7320   -4.5325    0.0000 C   0  0  0  0  0  0  0  0  0  0  0  0
   -0.1358   -3.1562    0.0000 C   0  0  0  0  0  0  0  0  0  0  0  0
   -1.0296   -1.9516    0.0000 C   0  0  0  0  0  0  0  0  0  0  0  0
   -2.5197   -2.1234    0.0000 C   0  0  0  0  0  0  0  0  0  0  0  0
   -3.4136   -0.9188    0.0000 C   0  0  0  0  0  0  0  0  0  0  0  0
   -2.8173    0.4576    0.0000 O   0  0  0  0  0  0  0  0  0  0  0  0
   -4.9037   -1.0906    0.0000 C   0  0  0  0  0  0  0  0  0  0  0  0
   -5.7976    0.1140    0.0000 C   0  0  0  0  0  0  0  0  0  0  0  0
   -7.2877   -0.0578    0.0000 C   0  0  0  0  0  0  0  0  0  0  0  0
   -7.8840   -1.4342    0.0000 O   0  0  0  0  0  0  0  0  0  0  0  0
   -8.1815    1.1468    0.0000 N   0  0  0  0  0  0  0  0  0  0  0  0
   -9.6717    0.9750    0.0000 C   0  0  0  0  0  0  0  0  0  0  0  0
  -10.5655    2.1796    0.0000 C   0  0  0  0  0  0  0  0  0  0  0  0
  -12.0556    2.0078    0.0000 C   0  0  0  0  0  0  0  0  0  0  0  0
  -12.6519    0.6314    0.0000 O   0  0  0  0  0  0  0  0  0  0  0  0
  -12.9495    3.2124    0.0000 O   0  0  0  0  0  0  0  0  0  0  0  0
    1.3544   -2.9844    0.0000 C   0  0  0  0  0  0  0  0  0  0  0  0
    2.3692   -4.0889    0.0000 C   0  0  0  0  0  0  0  0  0  0  0  0
    3.7333   -3.4650    0.0000 C   0  0  0  0  0  0  0  0  0  0  0  0
    3.5615   -1.9749    0.0000 C   0  0  0  0  0  0  0  0  0  0  0  0
    4.5540   -0.8502    0.0000 C   0  0  0  0  0  0  0  0  0  0  0  0
    6.0243   -1.1472    0.0000 C   0  0  0  0  0  0  0  0  0  0  0  0
    6.5021   -2.5691    0.0000 O   0  0  0  0  0  0  0  0  0  0  0  0
    7.0167   -0.0225    0.0000 C   0  0  0  0  0  0  0  0  0  0  0  0
    8.4870   -0.3196    0.0000 O   0  0  0  0  0  0  0  0  0  0  0  0
    6.5388    1.3994    0.0000 C   0  0  0  0  0  0  0  0  0  0  0  0
    7.5312    2.5241    0.0000 C   0  0  0  0  0  0  0  0  0  0  0  0
    7.0534    3.9460    0.0000 C   0  0  0  0  0  0  0  0  0  0  0  0
    8.0458    5.0707    0.0000 O   0  0  0  0  0  0  0  0  0  0  0  0
    5.5831    4.2431    0.0000 C   0  0  0  0  0  0  0  0  0  0  0  0
    4.5907    3.1183    0.0000 C   0  0  0  0  0  0  0  0  0  0  0  0
    5.0685    1.6965    0.0000 C   0  0  0  0  0  0  0  0  0  0  0  0
    3.5982    1.9935    0.0000 C   0  0  0  0  0  0  0  0  0  0  0  0
    4.0761    0.5717    0.0000 C   0  0  0  0  0  0  0  0  0  0  0  0
    2.6058    0.8688    0.0000 C   0  0  0  0  0  0  0  0  0  0  0  0
    1.6134   -0.2560    0.0000 C   0  0  0  0  0  0  0  0  0  0  0  0
    2.0913   -1.6778    0.0000 C   0  0  0  0  0  0  0  0  0  0  0  0
    0.5980   -1.5361    0.0000 C   0  0  0  0  0  0  0  0  0  0  0  0
  2  1  1  6
  2  3  1  0
  3  4  1  0
  4  5  1  0
  5  6  2  0
  5  7  1  0
  7  8  1  0
  8  9  1  0
  9 10  2  0
  9 11  1  0
 11 12  1  0
 12 13  1  0
 13 14  1  0
 14 15  2  0
 14 16  1  0
  2 17  1  0
 17 18  1  6
 18 19  1  0
 20 19  1  6
 20 21  1  0
 21 22  1  1
 22 23  1  1
 22 24  1  0
 24 25  1  1
 24 26  1  0
 26 27  1  1
 27 28  1  0
 28 29  1  1
 28 30  1  0
 30 31  1  0
 31 32  1  0
 32 33  1  6
 32 34  1  0
 34 35  1  6
 35 36  1  0
 36 37  1  0
 37 38  1  6
 37 17  1  0
 37 20  1  0
 34 21  1  0
 32 26  1  0
M  END
>  <MS_ID>  (1472) 
MS1532

>  <SMILES>  (1472) 
C[C@H](CCC(=O)CCC(=O)NCCC(=O)O)[C@H]1CC[C@H]2[C@@H]3[C@H](O)[C@H](O)[C@@H]4C[C@H](O)CC[C@]4(C)[C@H]3CC[C@]12C

>  <Structure_dimension>  (1472) 
2D

$$$$
MS1533
     RDKit          2D

 31 34  0  0  0  0  0  0  0  0999 V2000
   -4.7961   -2.3892    0.0000 C   0  0  0  0  0  0  0  0  0  0  0  0
   -3.6498   -1.4218    0.0000 C   0  0  0  0  0  0  0  0  0  0  0  0
   -3.9145    0.0547    0.0000 C   0  0  0  0  0  0  0  0  0  0  0  0
   -5.3255    0.5637    0.0000 C   0  0  0  0  0  0  0  0  0  0  0  0
   -5.5901    2.0402    0.0000 C   0  0  0  0  0  0  0  0  0  0  0  0
   -4.4438    3.0076    0.0000 O   0  0  0  0  0  0  0  0  0  0  0  0
   -7.0011    2.5492    0.0000 O   0  0  0  0  0  0  0  0  0  0  0  0
   -2.2388   -1.9308    0.0000 C   0  0  0  0  0  0  0  0  0  0  0  0
   -1.8213   -3.3715    0.0000 C   0  0  0  0  0  0  0  0  0  0  0  0
   -0.3220   -3.4196    0.0000 C   0  0  0  0  0  0  0  0  0  0  0  0
    0.1870   -2.0086    0.0000 C   0  0  0  0  0  0  0  0  0  0  0  0
    1.5762   -1.4427    0.0000 C   0  0  0  0  0  0  0  0  0  0  0  0
    2.7608   -2.3629    0.0000 C   0  0  0  0  0  0  0  0  0  0  0  0
    2.5563   -3.8488    0.0000 O   0  0  0  0  0  0  0  0  0  0  0  0
    4.1500   -1.7970    0.0000 C   0  0  0  0  0  0  0  0  0  0  0  0
    4.3545   -0.3110    0.0000 C   0  0  0  0  0  0  0  0  0  0  0  0
    5.7437    0.2549    0.0000 C   0  0  0  0  0  0  0  0  0  0  0  0
    5.9482    1.7408    0.0000 C   0  0  0  0  0  0  0  0  0  0  0  0
    7.3374    2.3067    0.0000 O   0  0  0  0  0  0  0  0  0  0  0  0
    4.7636    2.6610    0.0000 C   0  0  0  0  0  0  0  0  0  0  0  0
    3.3744    2.0951    0.0000 C   0  0  0  0  0  0  0  0  0  0  0  0
    3.1699    0.6091    0.0000 C   0  0  0  0  0  0  0  0  0  0  0  0
    1.9852    1.5292    0.0000 C   0  0  0  0  0  0  0  0  0  0  0  0
    1.7807    0.0433    0.0000 C   0  0  0  0  0  0  0  0  0  0  0  0
    0.5961    0.9634    0.0000 C   0  0  0  0  0  0  0  0  0  0  0  0
   -0.7931    0.3975    0.0000 C   0  0  0  0  0  0  0  0  0  0  0  0
   -1.9778    1.3177    0.0000 C   0  0  0  0  0  0  0  0  0  0  0  0
   -3.3669    0.7518    0.0000 O   0  0  0  0  0  0  0  0  0  0  0  0
   -1.7732    2.8036    0.0000 O   0  0  0  0  0  0  0  0  0  0  0  0
   -0.9977   -1.0885    0.0000 C   0  0  0  0  0  0  0  0  0  0  0  0
   -2.2720   -0.2972    0.0000 C   0  0  0  0  0  0  0  0  0  0  0  0
  2  1  1  6
  2  3  1  0
  3  4  1  0
  4  5  1  0
  5  6  2  0
  5  7  1  0
  2  8  1  0
  8  9  1  6
  9 10  1  0
 11 10  1  6
 11 12  1  0
 12 13  1  1
 13 14  1  1
 13 15  1  0
 16 15  1  1
 16 17  1  0
 17 18  1  0
 18 19  1  1
 18 20  1  0
 20 21  1  0
 21 22  1  0
 22 23  1  6
 22 24  1  0
 24 25  1  6
 25 26  1  0
 26 27  1  1
 27 28  2  0
 27 29  1  0
 26 30  1  0
 30 31  1  6
 30  8  1  0
 30 11  1  0
 24 12  1  0
 22 16  1  0
M  END
>  <MS_ID>  (1473) 
MS1533

>  <SMILES>  (1473) 
C[C@H](CCC(=O)O)[C@H]1CC[C@H]2[C@@H]3[C@H](O)C[C@@H]4C[C@H](O)CC[C@]4(C)[C@H]3C[C@H](C(=O)O)[C@]12C

>  <Structure_dimension>  (1473) 
2D

$$$$
MS1534
     RDKit          2D

 33 37  0  0  0  0  0  0  0  0999 V2000
   -2.6774   -3.5117    0.0000 C   0  0  0  0  0  0  0  0  0  0  0  0
   -1.7282   -2.3503    0.0000 C   0  0  0  0  0  0  0  0  0  0  0  0
   -2.2594   -0.9475    0.0000 C   0  0  0  0  0  0  0  0  0  0  0  0
   -3.7399   -0.7062    0.0000 C   0  0  0  0  0  0  0  0  0  0  0  0
   -4.2711    0.6966    0.0000 C   0  0  0  0  0  0  0  0  0  0  0  0
   -3.3219    1.8581    0.0000 O   0  0  0  0  0  0  0  0  0  0  0  0
   -5.7516    0.9379    0.0000 C   0  0  0  0  0  0  0  0  0  0  0  0
   -6.2828    2.3407    0.0000 C   0  0  0  0  0  0  0  0  0  0  0  0
   -7.7633    2.5820    0.0000 C   0  0  0  0  0  0  0  0  0  0  0  0
   -8.7125    1.4206    0.0000 C   0  0  0  0  0  0  0  0  0  0  0  0
  -10.1930    1.6619    0.0000 O   0  0  0  0  0  0  0  0  0  0  0  0
   -8.1813    0.0178    0.0000 C   0  0  0  0  0  0  0  0  0  0  0  0
   -6.7008   -0.2235    0.0000 C   0  0  0  0  0  0  0  0  0  0  0  0
   -0.2477   -2.5916    0.0000 C   0  0  0  0  0  0  0  0  0  0  0  0
    0.4272   -3.9312    0.0000 C   0  0  0  0  0  0  0  0  0  0  0  0
    1.9098   -3.7032    0.0000 C   0  0  0  0  0  0  0  0  0  0  0  0
    2.1511   -2.2227    0.0000 C   0  0  0  0  0  0  0  0  0  0  0  0
    3.4128   -1.4114    0.0000 C   0  0  0  0  0  0  0  0  0  0  0  0
    4.7462   -2.0984    0.0000 C   0  0  0  0  0  0  0  0  0  0  0  0
    6.0079   -1.2872    0.0000 C   0  0  0  0  0  0  0  0  0  0  0  0
    5.9362    0.2111    0.0000 C   0  0  0  0  0  0  0  0  0  0  0  0
    7.1978    1.0224    0.0000 C   0  0  0  0  0  0  0  0  0  0  0  0
    7.1261    2.5207    0.0000 C   0  0  0  0  0  0  0  0  0  0  0  0
    8.3878    3.3320    0.0000 O   0  0  0  0  0  0  0  0  0  0  0  0
    5.7927    3.2077    0.0000 C   0  0  0  0  0  0  0  0  0  0  0  0
    4.5310    2.3964    0.0000 C   0  0  0  0  0  0  0  0  0  0  0  0
    4.6027    0.8981    0.0000 C   0  0  0  0  0  0  0  0  0  0  0  0
    3.2693    1.5851    0.0000 C   0  0  0  0  0  0  0  0  0  0  0  0
    3.3411    0.0868    0.0000 C   0  0  0  0  0  0  0  0  0  0  0  0
    2.0076    0.7738    0.0000 C   0  0  0  0  0  0  0  0  0  0  0  0
    0.7460   -0.0374    0.0000 C   0  0  0  0  0  0  0  0  0  0  0  0
    0.8177   -1.5357    0.0000 C   0  0  0  0  0  0  0  0  0  0  0  0
   -0.5802   -0.9919    0.0000 C   0  0  0  0  0  0  0  0  0  0  0  0
  2  1  1  6
  2  3  1  0
  3  4  1  0
  4  5  1  0
  5  6  2  0
  5  7  1  0
  7  8  2  0
  8  9  1  0
  9 10  2  0
 10 11  1  0
 10 12  1  0
 12 13  2  0
  2 14  1  0
 14 15  1  6
 15 16  1  0
 17 16  1  6
 17 18  1  0
 18 19  1  1
 19 20  1  0
 21 20  1  1
 21 22  1  0
 22 23  1  0
 23 24  1  1
 23 25  1  0
 25 26  1  0
 26 27  1  0
 27 28  1  6
 27 29  1  0
 29 30  1  6
 30 31  1  0
 31 32  1  0
 32 33  1  6
 13  7  1  0
 32 14  1  0
 32 17  1  0
 29 18  1  0
 27 21  1  0
M  END
>  <MS_ID>  (1474) 
MS1534

>  <SMILES>  (1474) 
C[C@H](CCC(=O)c1ccc(O)cc1)[C@H]1CC[C@H]2[C@@H]3CC[C@@H]4C[C@H](O)CC[C@]4(C)[C@H]3CC[C@]12C

>  <Structure_dimension>  (1474) 
2D

$$$$
MS1535
     RDKit          2D

 38 42  0  0  0  0  0  0  0  0999 V2000
   -0.6216   -4.8550    0.0000 C   0  0  0  0  0  0  0  0  0  0  0  0
   -0.1230   -3.4403    0.0000 C   0  0  0  0  0  0  0  0  0  0  0  0
   -1.0989   -2.3011    0.0000 C   0  0  0  0  0  0  0  0  0  0  0  0
   -2.5734   -2.5767    0.0000 C   0  0  0  0  0  0  0  0  0  0  0  0
   -3.5493   -1.4375    0.0000 C   0  0  0  0  0  0  0  0  0  0  0  0
   -3.0507   -0.0228    0.0000 O   0  0  0  0  0  0  0  0  0  0  0  0
   -5.0237   -1.7131    0.0000 N   0  0  0  0  0  0  0  0  0  0  0  0
   -5.9996   -0.5739    0.0000 C   0  0  0  0  0  0  0  0  0  0  0  0
   -7.4741   -0.8495    0.0000 C   0  0  0  0  0  0  0  0  0  0  0  0
   -8.4499    0.2897    0.0000 C   0  0  0  0  0  0  0  0  0  0  0  0
   -7.9514    1.7044    0.0000 C   0  0  0  0  0  0  0  0  0  0  0  0
   -8.9272    2.8435    0.0000 C   0  0  0  0  0  0  0  0  0  0  0  0
  -10.4017    2.5680    0.0000 C   0  0  0  0  0  0  0  0  0  0  0  0
  -11.3776    3.7071    0.0000 O   0  0  0  0  0  0  0  0  0  0  0  0
  -10.9003    1.1533    0.0000 C   0  0  0  0  0  0  0  0  0  0  0  0
   -9.9244    0.0141    0.0000 C   0  0  0  0  0  0  0  0  0  0  0  0
    1.3514   -3.1647    0.0000 C   0  0  0  0  0  0  0  0  0  0  0  0
    2.4410   -4.1956    0.0000 C   0  0  0  0  0  0  0  0  0  0  0  0
    3.7582   -3.4779    0.0000 C   0  0  0  0  0  0  0  0  0  0  0  0
    3.4826   -2.0035    0.0000 C   0  0  0  0  0  0  0  0  0  0  0  0
    4.3940   -0.8121    0.0000 C   0  0  0  0  0  0  0  0  0  0  0  0
    5.8815   -1.0056    0.0000 C   0  0  0  0  0  0  0  0  0  0  0  0
    6.4576   -2.3906    0.0000 O   0  0  0  0  0  0  0  0  0  0  0  0
    6.7928    0.1858    0.0000 C   0  0  0  0  0  0  0  0  0  0  0  0
    8.2803   -0.0078    0.0000 O   0  0  0  0  0  0  0  0  0  0  0  0
    6.2167    1.5707    0.0000 C   0  0  0  0  0  0  0  0  0  0  0  0
    7.1281    2.7621    0.0000 C   0  0  0  0  0  0  0  0  0  0  0  0
    6.5520    4.1471    0.0000 C   0  0  0  0  0  0  0  0  0  0  0  0
    7.4634    5.3385    0.0000 O   0  0  0  0  0  0  0  0  0  0  0  0
    5.0645    4.3406    0.0000 C   0  0  0  0  0  0  0  0  0  0  0  0
    4.1532    3.1493    0.0000 C   0  0  0  0  0  0  0  0  0  0  0  0
    4.7293    1.7643    0.0000 C   0  0  0  0  0  0  0  0  0  0  0  0
    3.2418    1.9579    0.0000 C   0  0  0  0  0  0  0  0  0  0  0  0
    3.8179    0.5729    0.0000 C   0  0  0  0  0  0  0  0  0  0  0  0
    2.3305    0.7665    0.0000 C   0  0  0  0  0  0  0  0  0  0  0  0
    1.4191   -0.4249    0.0000 C   0  0  0  0  0  0  0  0  0  0  0  0
    1.9952   -1.8099    0.0000 C   0  0  0  0  0  0  0  0  0  0  0  0
    0.4956   -1.7729    0.0000 C   0  0  0  0  0  0  0  0  0  0  0  0
  2  1  1  6
  2  3  1  0
  3  4  1  0
  4  5  1  0
  5  6  2  0
  5  7  1  0
  7  8  1  0
  8  9  1  0
  9 10  1  0
 10 11  2  0
 11 12  1  0
 12 13  2  0
 13 14  1  0
 13 15  1  0
 15 16  2  0
  2 17  1  0
 17 18  1  6
 18 19  1  0
 20 19  1  6
 20 21  1  0
 21 22  1  1
 22 23  1  1
 22 24  1  0
 24 25  1  1
 24 26  1  0
 26 27  1  1
 27 28  1  0
 28 29  1  1
 28 30  1  0
 30 31  1  0
 31 32  1  0
 32 33  1  6
 32 34  1  0
 34 35  1  6
 35 36  1  0
 36 37  1  0
 37 38  1  6
 16 10  1  0
 37 17  1  0
 37 20  1  0
 34 21  1  0
 32 26  1  0
M  END
>  <MS_ID>  (1475) 
MS1535

>  <SMILES>  (1475) 
C[C@H](CCC(=O)NCCc1ccc(O)cc1)[C@H]1CC[C@H]2[C@@H]3[C@H](O)[C@H](O)[C@@H]4C[C@H](O)CC[C@]4(C)[C@H]3CC[C@]12C

>  <Structure_dimension>  (1475) 
2D

$$$$
MS1536
     RDKit          2D

 31 34  0  0  0  0  0  0  0  0999 V2000
   -5.0146   -2.6187    0.0000 C   0  0  0  0  0  0  0  0  0  0  0  0
   -4.0672   -1.4557    0.0000 C   0  0  0  0  0  0  0  0  0  0  0  0
   -4.6007   -0.0538    0.0000 C   0  0  0  0  0  0  0  0  0  0  0  0
   -6.0816    0.1851    0.0000 C   0  0  0  0  0  0  0  0  0  0  0  0
   -6.6150    1.5871    0.0000 C   0  0  0  0  0  0  0  0  0  0  0  0
   -5.6677    2.7500    0.0000 O   0  0  0  0  0  0  0  0  0  0  0  0
   -8.0959    1.8260    0.0000 O   0  0  0  0  0  0  0  0  0  0  0  0
   -2.5864   -1.6947    0.0000 C   0  0  0  0  0  0  0  0  0  0  0  0
   -1.9093   -3.0332    0.0000 C   0  0  0  0  0  0  0  0  0  0  0  0
   -0.4271   -2.8029    0.0000 C   0  0  0  0  0  0  0  0  0  0  0  0
   -0.1881   -1.3220    0.0000 C   0  0  0  0  0  0  0  0  0  0  0  0
    1.0722   -0.5087    0.0000 C   0  0  0  0  0  0  0  0  0  0  0  0
    2.4068   -1.1936    0.0000 C   0  0  0  0  0  0  0  0  0  0  0  0
    2.4809   -2.6918    0.0000 O   0  0  0  0  0  0  0  0  0  0  0  0
    3.8154   -3.3767    0.0000 C   0  0  0  0  0  0  0  0  0  0  0  0
    3.8896   -4.8748    0.0000 C   0  0  0  0  0  0  0  0  0  0  0  0
    5.2241   -5.5597    0.0000 O   0  0  0  0  0  0  0  0  0  0  0  0
    3.6671   -0.3803    0.0000 C   0  0  0  0  0  0  0  0  0  0  0  0
    3.5930    1.1178    0.0000 C   0  0  0  0  0  0  0  0  0  0  0  0
    4.8534    1.9311    0.0000 C   0  0  0  0  0  0  0  0  0  0  0  0
    4.7792    3.4293    0.0000 C   0  0  0  0  0  0  0  0  0  0  0  0
    6.0396    4.2426    0.0000 O   0  0  0  0  0  0  0  0  0  0  0  0
    3.4447    4.1142    0.0000 C   0  0  0  0  0  0  0  0  0  0  0  0
    2.1843    3.3009    0.0000 C   0  0  0  0  0  0  0  0  0  0  0  0
    2.2585    1.8027    0.0000 C   0  0  0  0  0  0  0  0  0  0  0  0
    0.9240    2.4876    0.0000 C   0  0  0  0  0  0  0  0  0  0  0  0
    0.9981    0.9894    0.0000 C   0  0  0  0  0  0  0  0  0  0  0  0
   -0.3364    1.6743    0.0000 C   0  0  0  0  0  0  0  0  0  0  0  0
   -1.5968    0.8610    0.0000 C   0  0  0  0  0  0  0  0  0  0  0  0
   -1.5227   -0.6371    0.0000 C   0  0  0  0  0  0  0  0  0  0  0  0
   -2.9215   -0.0955    0.0000 C   0  0  0  0  0  0  0  0  0  0  0  0
  2  1  1  6
  2  3  1  0
  3  4  1  0
  4  5  1  0
  5  6  2  0
  5  7  1  0
  2  8  1  0
  8  9  1  6
  9 10  1  0
 11 10  1  6
 11 12  1  0
 12 13  1  1
 13 14  1  6
 14 15  1  0
 15 16  1  0
 16 17  1  0
 13 18  1  0
 19 18  1  1
 19 20  1  0
 20 21  1  0
 21 22  1  1
 21 23  1  0
 23 24  1  0
 24 25  1  0
 25 26  1  6
 25 27  1  0
 27 28  1  6
 28 29  1  0
 29 30  1  0
 30 31  1  6
 30  8  1  0
 30 11  1  0
 27 12  1  0
 25 19  1  0
M  END
>  <MS_ID>  (1476) 
MS1536

>  <SMILES>  (1476) 
C[C@H](CCC(=O)O)[C@H]1CC[C@H]2[C@@H]3[C@@H](OCCO)C[C@@H]4C[C@H](O)CC[C@]4(C)[C@H]3CC[C@]12C

>  <Structure_dimension>  (1476) 
2D

$$$$
MS1537
     RDKit          2D

 29 32  0  0  0  0  0  0  0  0999 V2000
   -4.7935   -2.5443    0.0000 C   0  0  0  0  0  0  0  0  0  0  0  0
   -3.6816   -1.5375    0.0000 C   0  0  0  0  0  0  0  0  0  0  0  0
   -3.9975   -0.0712    0.0000 C   0  0  0  0  0  0  0  0  0  0  0  0
   -5.4254    0.3884    0.0000 C   0  0  0  0  0  0  0  0  0  0  0  0
   -5.7413    1.8547    0.0000 C   0  0  0  0  0  0  0  0  0  0  0  0
   -7.1692    2.3143    0.0000 O   0  0  0  0  0  0  0  0  0  0  0  0
   -4.6294    2.8615    0.0000 O   0  0  0  0  0  0  0  0  0  0  0  0
   -4.9453    4.3279    0.0000 N   0  0  0  0  0  0  0  0  0  0  0  0
   -2.2537   -1.9971    0.0000 C   0  0  0  0  0  0  0  0  0  0  0  0
   -1.7862   -3.4224    0.0000 C   0  0  0  0  0  0  0  0  0  0  0  0
   -0.2862   -3.4182    0.0000 C   0  0  0  0  0  0  0  0  0  0  0  0
    0.1733   -1.9903    0.0000 C   0  0  0  0  0  0  0  0  0  0  0  0
    1.5420   -1.3764    0.0000 C   0  0  0  0  0  0  0  0  0  0  0  0
    2.7579   -2.2547    0.0000 C   0  0  0  0  0  0  0  0  0  0  0  0
    2.6053   -3.7470    0.0000 O   0  0  0  0  0  0  0  0  0  0  0  0
    4.1265   -1.6408    0.0000 C   0  0  0  0  0  0  0  0  0  0  0  0
    4.2792   -0.1486    0.0000 C   0  0  0  0  0  0  0  0  0  0  0  0
    5.6478    0.4653    0.0000 C   0  0  0  0  0  0  0  0  0  0  0  0
    5.8005    1.9575    0.0000 C   0  0  0  0  0  0  0  0  0  0  0  0
    7.1691    2.5714    0.0000 O   0  0  0  0  0  0  0  0  0  0  0  0
    4.5845    2.8358    0.0000 C   0  0  0  0  0  0  0  0  0  0  0  0
    3.2159    2.2219    0.0000 C   0  0  0  0  0  0  0  0  0  0  0  0
    3.0632    0.7297    0.0000 C   0  0  0  0  0  0  0  0  0  0  0  0
    1.8473    1.6080    0.0000 C   0  0  0  0  0  0  0  0  0  0  0  0
    1.6946    0.1158    0.0000 C   0  0  0  0  0  0  0  0  0  0  0  0
    0.4786    0.9941    0.0000 C   0  0  0  0  0  0  0  0  0  0  0  0
   -0.8900    0.3802    0.0000 C   0  0  0  0  0  0  0  0  0  0  0  0
   -1.0426   -1.1120    0.0000 C   0  0  0  0  0  0  0  0  0  0  0  0
   -2.3437   -0.3657    0.0000 C   0  0  0  0  0  0  0  0  0  0  0  0
  2  1  1  6
  2  3  1  0
  3  4  1  0
  4  5  1  0
  5  6  2  0
  5  7  1  0
  7  8  1  0
  2  9  1  0
  9 10  1  6
 10 11  1  0
 12 11  1  6
 12 13  1  0
 13 14  1  1
 14 15  1  6
 14 16  1  0
 17 16  1  1
 17 18  1  0
 18 19  1  0
 19 20  1  1
 19 21  1  0
 21 22  1  0
 22 23  1  0
 23 24  1  6
 23 25  1  0
 25 26  1  6
 26 27  1  0
 27 28  1  0
 28 29  1  6
 28  9  1  0
 28 12  1  0
 25 13  1  0
 23 17  1  0
M  END
>  <MS_ID>  (1477) 
MS1537

>  <SMILES>  (1477) 
C[C@H](CCC(=O)ON)[C@H]1CC[C@H]2[C@@H]3[C@@H](O)C[C@@H]4C[C@H](O)CC[C@]4(C)[C@H]3CC[C@]12C

>  <Structure_dimension>  (1477) 
2D

$$$$
MS1539
     RDKit          2D

 32 35  0  0  0  0  0  0  0  0999 V2000
   -4.0792   -3.5557    0.0000 C   0  0  0  0  0  0  0  0  0  0  0  0
   -3.1619   -2.3688    0.0000 C   0  0  0  0  0  0  0  0  0  0  0  0
   -3.7311   -0.9810    0.0000 C   0  0  0  0  0  0  0  0  0  0  0  0
   -5.2175   -0.7800    0.0000 C   0  0  0  0  0  0  0  0  0  0  0  0
   -5.7867    0.6078    0.0000 C   0  0  0  0  0  0  0  0  0  0  0  0
   -7.2732    0.8088    0.0000 O   0  0  0  0  0  0  0  0  0  0  0  0
   -4.8694    1.7946    0.0000 O   0  0  0  0  0  0  0  0  0  0  0  0
   -5.4386    3.1824    0.0000 C   0  0  0  0  0  0  0  0  0  0  0  0
   -4.5213    4.3693    0.0000 O   0  0  0  0  0  0  0  0  0  0  0  0
   -6.9251    3.3834    0.0000 F   0  0  0  0  0  0  0  0  0  0  0  0
   -1.6754   -2.5698    0.0000 C   0  0  0  0  0  0  0  0  0  0  0  0
   -0.9643   -3.8905    0.0000 C   0  0  0  0  0  0  0  0  0  0  0  0
    0.5115   -3.6223    0.0000 C   0  0  0  0  0  0  0  0  0  0  0  0
    0.7125   -2.1359    0.0000 C   0  0  0  0  0  0  0  0  0  0  0  0
    1.9517   -1.2906    0.0000 C   0  0  0  0  0  0  0  0  0  0  0  0
    3.3033   -1.9411    0.0000 C   0  0  0  0  0  0  0  0  0  0  0  0
    3.4158   -3.4368    0.0000 O   0  0  0  0  0  0  0  0  0  0  0  0
    4.5424   -1.0958    0.0000 C   0  0  0  0  0  0  0  0  0  0  0  0
    5.8941   -1.7463    0.0000 O   0  0  0  0  0  0  0  0  0  0  0  0
    4.4300    0.4000    0.0000 C   0  0  0  0  0  0  0  0  0  0  0  0
    5.6691    1.2453    0.0000 C   0  0  0  0  0  0  0  0  0  0  0  0
    5.5567    2.7411    0.0000 C   0  0  0  0  0  0  0  0  0  0  0  0
    6.7958    3.5863    0.0000 O   0  0  0  0  0  0  0  0  0  0  0  0
    4.2050    3.3916    0.0000 C   0  0  0  0  0  0  0  0  0  0  0  0
    2.9659    2.5463    0.0000 C   0  0  0  0  0  0  0  0  0  0  0  0
    3.0784    1.0505    0.0000 C   0  0  0  0  0  0  0  0  0  0  0  0
    1.7267    1.7010    0.0000 C   0  0  0  0  0  0  0  0  0  0  0  0
    1.8392    0.2052    0.0000 C   0  0  0  0  0  0  0  0  0  0  0  0
    0.4876    0.8557    0.0000 C   0  0  0  0  0  0  0  0  0  0  0  0
   -0.7516    0.0104    0.0000 C   0  0  0  0  0  0  0  0  0  0  0  0
   -0.6391   -1.4854    0.0000 C   0  0  0  0  0  0  0  0  0  0  0  0
   -2.0513   -0.9797    0.0000 C   0  0  0  0  0  0  0  0  0  0  0  0
  2  1  1  6
  2  3  1  0
  3  4  1  0
  4  5  1  0
  5  6  2  0
  5  7  1  0
  7  8  1  0
  8  9  2  0
  8 10  1  0
  2 11  1  0
 11 12  1  6
 12 13  1  0
 14 13  1  6
 14 15  1  0
 15 16  1  1
 16 17  1  1
 16 18  1  0
 18 19  1  1
 18 20  1  0
 20 21  1  1
 21 22  1  0
 22 23  1  1
 22 24  1  0
 24 25  1  0
 25 26  1  0
 26 27  1  6
 26 28  1  0
 28 29  1  6
 29 30  1  0
 30 31  1  0
 31 32  1  6
 31 11  1  0
 31 14  1  0
 28 15  1  0
 26 20  1  0
M  END
>  <MS_ID>  (1478) 
MS1539

>  <SMILES>  (1478) 
C[C@H](CCC(=O)OC(=O)F)[C@H]1CC[C@H]2[C@@H]3[C@H](O)[C@H](O)[C@@H]4C[C@H](O)CC[C@]4(C)[C@H]3CC[C@]12C

>  <Structure_dimension>  (1478) 
2D

$$$$
MS1540
     RDKit          2D

 31 34  0  0  0  0  0  0  0  0999 V2000
   -9.3674    3.1902    0.0000 C   0  0  0  0  0  0  0  0  0  0  0  0
   -8.6925    1.8506    0.0000 C   0  0  0  0  0  0  0  0  0  0  0  0
   -7.1949    1.7653    0.0000 C   0  0  0  0  0  0  0  0  0  0  0  0
   -6.5200    0.4258    0.0000 O   0  0  0  0  0  0  0  0  0  0  0  0
   -5.0224    0.3405    0.0000 C   0  0  0  0  0  0  0  0  0  0  0  0
   -4.1998    1.5947    0.0000 O   0  0  0  0  0  0  0  0  0  0  0  0
   -4.3475   -0.9991    0.0000 C   0  0  0  0  0  0  0  0  0  0  0  0
   -2.8500   -1.0844    0.0000 C   0  0  0  0  0  0  0  0  0  0  0  0
   -2.1750   -2.4240    0.0000 C   0  0  0  0  0  0  0  0  0  0  0  0
   -2.9977   -3.6783    0.0000 C   0  0  0  0  0  0  0  0  0  0  0  0
   -0.6775   -2.5093    0.0000 C   0  0  0  0  0  0  0  0  0  0  0  0
    0.1338   -3.7710    0.0000 C   0  0  0  0  0  0  0  0  0  0  0  0
    1.5844   -3.3894    0.0000 C   0  0  0  0  0  0  0  0  0  0  0  0
    1.6697   -1.8918    0.0000 C   0  0  0  0  0  0  0  0  0  0  0  0
    2.8397   -0.9531    0.0000 C   0  0  0  0  0  0  0  0  0  0  0  0
    4.2376   -1.4970    0.0000 C   0  0  0  0  0  0  0  0  0  0  0  0
    4.4655   -2.9796    0.0000 O   0  0  0  0  0  0  0  0  0  0  0  0
    5.4076   -0.5583    0.0000 C   0  0  0  0  0  0  0  0  0  0  0  0
    5.1797    0.9243    0.0000 C   0  0  0  0  0  0  0  0  0  0  0  0
    6.3497    1.8629    0.0000 C   0  0  0  0  0  0  0  0  0  0  0  0
    6.1217    3.3455    0.0000 C   0  0  0  0  0  0  0  0  0  0  0  0
    4.7238    3.8894    0.0000 C   0  0  0  0  0  0  0  0  0  0  0  0
    3.5538    2.9507    0.0000 C   0  0  0  0  0  0  0  0  0  0  0  0
    3.7818    1.4682    0.0000 C   0  0  0  0  0  0  0  0  0  0  0  0
    2.3839    2.0121    0.0000 C   0  0  0  0  0  0  0  0  0  0  0  0
    2.6118    0.5295    0.0000 C   0  0  0  0  0  0  0  0  0  0  0  0
    1.2139    1.0734    0.0000 C   0  0  0  0  0  0  0  0  0  0  0  0
    0.0439    0.1347    0.0000 C   0  0  0  0  0  0  0  0  0  0  0  0
   -1.3540    0.6786    0.0000 O   0  0  0  0  0  0  0  0  0  0  0  0
    0.2718   -1.3479    0.0000 C   0  0  0  0  0  0  0  0  0  0  0  0
   -1.1753   -0.9531    0.0000 C   0  0  0  0  0  0  0  0  0  0  0  0
  1  2  1  0
  2  3  1  0
  3  4  1  0
  4  5  1  0
  5  6  2  0
  5  7  1  0
  7  8  1  0
  8  9  1  0
  9 10  1  6
  9 11  1  0
 11 12  1  6
 12 13  1  0
 14 13  1  6
 14 15  1  0
 15 16  1  1
 16 17  1  1
 16 18  1  0
 19 18  1  1
 19 20  1  0
 20 21  1  0
 21 22  1  0
 22 23  1  0
 23 24  1  0
 24 25  1  6
 24 26  1  0
 26 27  1  6
 27 28  1  0
 28 29  1  1
 28 30  1  0
 30 31  1  6
 30 11  1  0
 30 14  1  0
 26 15  1  0
 24 19  1  0
M  END
>  <MS_ID>  (1479) 
MS1540

>  <SMILES>  (1479) 
CCCOC(=O)CC[C@@H](C)[C@H]1CC[C@H]2[C@@H]3[C@H](O)C[C@@H]4CCCC[C@]4(C)[C@H]3C[C@H](O)[C@]12C

>  <Structure_dimension>  (1479) 
2D

$$$$
MS1541
     RDKit          2D

 33 36  0  0  0  0  0  0  0  0999 V2000
   -4.1892   -3.5047    0.0000 C   0  0  0  0  0  0  0  0  0  0  0  0
   -3.1502   -2.4228    0.0000 C   0  0  0  0  0  0  0  0  0  0  0  0
   -3.5677   -0.9821    0.0000 C   0  0  0  0  0  0  0  0  0  0  0  0
   -5.0241   -0.6233    0.0000 C   0  0  0  0  0  0  0  0  0  0  0  0
   -5.4416    0.8175    0.0000 C   0  0  0  0  0  0  0  0  0  0  0  0
   -4.4027    1.8994    0.0000 O   0  0  0  0  0  0  0  0  0  0  0  0
   -6.8981    1.1763    0.0000 N   0  0  0  0  0  0  0  0  0  0  0  0
   -7.3156    2.6170    0.0000 S   0  0  0  0  0  0  0  0  0  0  0  0
   -8.7563    2.1995    0.0000 O   0  0  0  0  0  0  0  0  0  0  0  0
   -5.8749    3.0345    0.0000 O   0  0  0  0  0  0  0  0  0  0  0  0
   -7.7331    4.0577    0.0000 O   0  0  0  0  0  0  0  0  0  0  0  0
   -1.6937   -2.7816    0.0000 C   0  0  0  0  0  0  0  0  0  0  0  0
   -1.1279   -4.1708    0.0000 C   0  0  0  0  0  0  0  0  0  0  0  0
    0.3681   -4.0620    0.0000 C   0  0  0  0  0  0  0  0  0  0  0  0
    0.7269   -2.6055    0.0000 C   0  0  0  0  0  0  0  0  0  0  0  0
    2.0494   -1.8976    0.0000 C   0  0  0  0  0  0  0  0  0  0  0  0
    3.3236   -2.6889    0.0000 C   0  0  0  0  0  0  0  0  0  0  0  0
    4.6461   -1.9810    0.0000 C   0  0  0  0  0  0  0  0  0  0  0  0
    4.6942   -0.4818    0.0000 C   0  0  0  0  0  0  0  0  0  0  0  0
    6.0167    0.2261    0.0000 C   0  0  0  0  0  0  0  0  0  0  0  0
    6.0648    1.7254    0.0000 C   0  0  0  0  0  0  0  0  0  0  0  0
    7.3873    2.4333    0.0000 C   0  0  0  0  0  0  0  0  0  0  0  0
    7.4354    3.9325    0.0000 O   0  0  0  0  0  0  0  0  0  0  0  0
    8.6616    1.6420    0.0000 O   0  0  0  0  0  0  0  0  0  0  0  0
    4.7905    2.5167    0.0000 C   0  0  0  0  0  0  0  0  0  0  0  0
    3.4681    1.8088    0.0000 C   0  0  0  0  0  0  0  0  0  0  0  0
    3.4200    0.3095    0.0000 C   0  0  0  0  0  0  0  0  0  0  0  0
    2.1457    1.1009    0.0000 C   0  0  0  0  0  0  0  0  0  0  0  0
    2.0975   -0.3984    0.0000 C   0  0  0  0  0  0  0  0  0  0  0  0
    0.8232    0.3929    0.0000 C   0  0  0  0  0  0  0  0  0  0  0  0
   -0.4992   -0.3150    0.0000 C   0  0  0  0  0  0  0  0  0  0  0  0
   -0.5474   -1.8142    0.0000 C   0  0  0  0  0  0  0  0  0  0  0  0
   -1.8974   -1.1604    0.0000 C   0  0  0  0  0  0  0  0  0  0  0  0
  2  1  1  6
  2  3  1  0
  3  4  1  0
  4  5  1  0
  5  6  2  0
  5  7  1  0
  7  8  1  0
  8  9  2  0
  8 10  2  0
  8 11  1  0
  2 12  1  0
 12 13  1  6
 13 14  1  0
 15 14  1  6
 15 16  1  0
 16 17  1  1
 17 18  1  0
 19 18  1  1
 19 20  1  0
 20 21  1  0
 21 22  1  1
 22 23  2  0
 22 24  1  0
 21 25  1  0
 25 26  1  0
 26 27  1  0
 27 28  1  6
 27 29  1  0
 29 30  1  6
 30 31  1  0
 31 32  1  0
 32 33  1  6
 32 12  1  0
 32 15  1  0
 29 16  1  0
 27 19  1  0
M  END
>  <MS_ID>  (1480) 
MS1541

>  <SMILES>  (1480) 
C[C@H](CCC(=O)NS(=O)(=O)O)[C@H]1CC[C@H]2[C@@H]3CC[C@@H]4C[C@H](C(=O)O)CC[C@]4(C)[C@H]3CC[C@]12C

>  <Structure_dimension>  (1480) 
2D

$$$$
MS1542
     RDKit          2D

 29 32  0  0  0  0  0  0  0  0999 V2000
   -5.2401   -2.0328    0.0000 C   0  0  0  0  0  0  0  0  0  0  0  0
   -4.0410   -1.1316    0.0000 C   0  0  0  0  0  0  0  0  0  0  0  0
   -4.2220    0.3575    0.0000 C   0  0  0  0  0  0  0  0  0  0  0  0
   -5.6020    0.9453    0.0000 C   0  0  0  0  0  0  0  0  0  0  0  0
   -5.7830    2.4343    0.0000 C   0  0  0  0  0  0  0  0  0  0  0  0
   -4.5839    3.3355    0.0000 O   0  0  0  0  0  0  0  0  0  0  0  0
   -7.1630    3.0221    0.0000 O   0  0  0  0  0  0  0  0  0  0  0  0
   -2.6610   -1.7194    0.0000 C   0  0  0  0  0  0  0  0  0  0  0  0
   -2.3254   -3.1813    0.0000 C   0  0  0  0  0  0  0  0  0  0  0  0
   -0.8312   -3.3139    0.0000 C   0  0  0  0  0  0  0  0  0  0  0  0
   -0.2434   -1.9339    0.0000 C   0  0  0  0  0  0  0  0  0  0  0  0
    1.1754   -1.4473    0.0000 C   0  0  0  0  0  0  0  0  0  0  0  0
    2.3063   -2.4327    0.0000 C   0  0  0  0  0  0  0  0  0  0  0  0
    2.0183   -3.9048    0.0000 O   0  0  0  0  0  0  0  0  0  0  0  0
    3.7252   -1.9461    0.0000 C   0  0  0  0  0  0  0  0  0  0  0  0
    4.0132   -0.4740    0.0000 C   0  0  0  0  0  0  0  0  0  0  0  0
    5.4321    0.0126    0.0000 C   0  0  0  0  0  0  0  0  0  0  0  0
    5.7201    1.4846    0.0000 C   0  0  0  0  0  0  0  0  0  0  0  0
    7.1390    1.9713    0.0000 O   0  0  0  0  0  0  0  0  0  0  0  0
    4.5892    2.4701    0.0000 C   0  0  0  0  0  0  0  0  0  0  0  0
    3.1704    1.9835    0.0000 C   0  0  0  0  0  0  0  0  0  0  0  0
    2.8823    0.5114    0.0000 C   0  0  0  0  0  0  0  0  0  0  0  0
    1.7515    1.4969    0.0000 C   0  0  0  0  0  0  0  0  0  0  0  0
    2.0395    2.9690    0.0000 F   0  0  0  0  0  0  0  0  0  0  0  0
    1.4635    0.0248    0.0000 C   0  0  0  0  0  0  0  0  0  0  0  0
    0.3326    1.0103    0.0000 C   0  0  0  0  0  0  0  0  0  0  0  0
   -1.0863    0.5237    0.0000 C   0  0  0  0  0  0  0  0  0  0  0  0
   -1.3743   -0.9484    0.0000 C   0  0  0  0  0  0  0  0  0  0  0  0
   -2.6020   -0.0865    0.0000 C   0  0  0  0  0  0  0  0  0  0  0  0
  2  1  1  6
  2  3  1  0
  3  4  1  0
  4  5  1  0
  5  6  2  0
  5  7  1  0
  2  8  1  0
  8  9  1  6
  9 10  1  0
 11 10  1  6
 11 12  1  0
 12 13  1  1
 13 14  1  6
 13 15  1  0
 16 15  1  1
 16 17  1  0
 17 18  1  0
 18 19  1  1
 18 20  1  0
 20 21  1  0
 21 22  1  0
 22 23  1  6
 23 24  1  0
 22 25  1  0
 25 26  1  6
 26 27  1  0
 27 28  1  0
 28 29  1  6
 28  8  1  0
 28 11  1  0
 25 12  1  0
 22 16  1  0
M  END
>  <MS_ID>  (1481) 
MS1542

>  <SMILES>  (1481) 
C[C@H](CCC(=O)O)[C@H]1CC[C@H]2[C@@H]3[C@@H](O)C[C@@H]4C[C@H](O)CC[C@]4(CF)[C@H]3CC[C@]12C

>  <Structure_dimension>  (1481) 
2D

$$$$
MS1543
     RDKit          2D

 30 33  0  0  0  0  0  0  0  0999 V2000
   -4.7023   -2.6242    0.0000 C   0  0  0  0  0  0  0  0  0  0  0  0
   -3.5985   -1.6085    0.0000 C   0  0  0  0  0  0  0  0  0  0  0  0
   -3.9263   -0.1448    0.0000 C   0  0  0  0  0  0  0  0  0  0  0  0
   -5.3578    0.3033    0.0000 C   0  0  0  0  0  0  0  0  0  0  0  0
   -5.6855    1.7670    0.0000 C   0  0  0  0  0  0  0  0  0  0  0  0
   -7.1171    2.2151    0.0000 O   0  0  0  0  0  0  0  0  0  0  0  0
   -4.5818    2.7827    0.0000 O   0  0  0  0  0  0  0  0  0  0  0  0
   -4.9095    4.2465    0.0000 O   0  0  0  0  0  0  0  0  0  0  0  0
   -2.1670   -2.0566    0.0000 C   0  0  0  0  0  0  0  0  0  0  0  0
   -1.6881   -3.4780    0.0000 C   0  0  0  0  0  0  0  0  0  0  0  0
   -0.1881   -3.4618    0.0000 C   0  0  0  0  0  0  0  0  0  0  0  0
    0.2599   -2.0303    0.0000 C   0  0  0  0  0  0  0  0  0  0  0  0
    1.6235   -1.4054    0.0000 C   0  0  0  0  0  0  0  0  0  0  0  0
    2.8465   -2.2738    0.0000 C   0  0  0  0  0  0  0  0  0  0  0  0
    2.7059   -3.7672    0.0000 O   0  0  0  0  0  0  0  0  0  0  0  0
    4.2102   -1.6489    0.0000 C   0  0  0  0  0  0  0  0  0  0  0  0
    4.3508   -0.1555    0.0000 C   0  0  0  0  0  0  0  0  0  0  0  0
    5.7144    0.4694    0.0000 C   0  0  0  0  0  0  0  0  0  0  0  0
    5.8550    1.9628    0.0000 C   0  0  0  0  0  0  0  0  0  0  0  0
    7.2187    2.5877    0.0000 O   0  0  0  0  0  0  0  0  0  0  0  0
    4.6320    2.8313    0.0000 C   0  0  0  0  0  0  0  0  0  0  0  0
    3.2684    2.2063    0.0000 C   0  0  0  0  0  0  0  0  0  0  0  0
    3.1278    0.7130    0.0000 C   0  0  0  0  0  0  0  0  0  0  0  0
    1.9048    1.5814    0.0000 C   0  0  0  0  0  0  0  0  0  0  0  0
    1.7642    0.0880    0.0000 C   0  0  0  0  0  0  0  0  0  0  0  0
    0.5411    0.9565    0.0000 C   0  0  0  0  0  0  0  0  0  0  0  0
   -0.8225    0.3316    0.0000 C   0  0  0  0  0  0  0  0  0  0  0  0
   -2.0455    1.2001    0.0000 O   0  0  0  0  0  0  0  0  0  0  0  0
   -0.9631   -1.1618    0.0000 C   0  0  0  0  0  0  0  0  0  0  0  0
   -2.2702   -0.4259    0.0000 C   0  0  0  0  0  0  0  0  0  0  0  0
  2  1  1  6
  2  3  1  0
  3  4  1  0
  4  5  1  0
  5  6  2  0
  5  7  1  0
  7  8  1  0
  2  9  1  0
  9 10  1  6
 10 11  1  0
 12 11  1  6
 12 13  1  0
 13 14  1  1
 14 15  1  6
 14 16  1  0
 17 16  1  1
 17 18  1  0
 18 19  1  0
 19 20  2  0
 19 21  1  0
 21 22  1  0
 22 23  1  0
 23 24  1  6
 23 25  1  0
 25 26  1  6
 26 27  1  0
 27 28  1  1
 27 29  1  0
 29 30  1  6
 29  9  1  0
 29 12  1  0
 25 13  1  0
 23 17  1  0
M  END
>  <MS_ID>  (1482) 
MS1543

>  <SMILES>  (1482) 
C[C@H](CCC(=O)OO)[C@H]1CC[C@H]2[C@@H]3[C@@H](O)C[C@@H]4CC(=O)CC[C@]4(C)[C@H]3C[C@H](O)[C@]12C

>  <Structure_dimension>  (1482) 
2D

$$$$
MS1544
     RDKit          2D

 29 32  0  0  0  0  0  0  0  0999 V2000
   -4.5534   -2.6812    0.0000 C   0  0  0  0  0  0  0  0  0  0  0  0
   -3.4378   -1.6786    0.0000 C   0  0  0  0  0  0  0  0  0  0  0  0
   -3.7483   -0.2111    0.0000 C   0  0  0  0  0  0  0  0  0  0  0  0
   -5.1744    0.2538    0.0000 C   0  0  0  0  0  0  0  0  0  0  0  0
   -5.4850    1.7213    0.0000 C   0  0  0  0  0  0  0  0  0  0  0  0
   -4.3693    2.7239    0.0000 O   0  0  0  0  0  0  0  0  0  0  0  0
   -6.9111    2.1861    0.0000 C   0  0  0  0  0  0  0  0  0  0  0  0
   -7.2216    3.6536    0.0000 S   0  0  0  0  0  0  0  0  0  0  0  0
   -2.0116   -2.1434    0.0000 C   0  0  0  0  0  0  0  0  0  0  0  0
   -1.5494   -3.5704    0.0000 C   0  0  0  0  0  0  0  0  0  0  0  0
   -0.0494   -3.5718    0.0000 C   0  0  0  0  0  0  0  0  0  0  0  0
    0.4155   -2.1456    0.0000 C   0  0  0  0  0  0  0  0  0  0  0  0
    1.7863   -1.5368    0.0000 C   0  0  0  0  0  0  0  0  0  0  0  0
    2.9990   -2.4196    0.0000 C   0  0  0  0  0  0  0  0  0  0  0  0
    4.3699   -1.8107    0.0000 C   0  0  0  0  0  0  0  0  0  0  0  0
    4.5281   -0.3191    0.0000 C   0  0  0  0  0  0  0  0  0  0  0  0
    5.8990    0.2898    0.0000 C   0  0  0  0  0  0  0  0  0  0  0  0
    6.0571    1.7814    0.0000 C   0  0  0  0  0  0  0  0  0  0  0  0
    7.4280    2.3902    0.0000 O   0  0  0  0  0  0  0  0  0  0  0  0
    4.8444    2.6642    0.0000 C   0  0  0  0  0  0  0  0  0  0  0  0
    3.4735    2.0553    0.0000 C   0  0  0  0  0  0  0  0  0  0  0  0
    3.3154    0.5637    0.0000 C   0  0  0  0  0  0  0  0  0  0  0  0
    2.1026    1.4465    0.0000 C   0  0  0  0  0  0  0  0  0  0  0  0
    1.9445   -0.0451    0.0000 C   0  0  0  0  0  0  0  0  0  0  0  0
    0.7318    0.8376    0.0000 C   0  0  0  0  0  0  0  0  0  0  0  0
   -0.6391    0.2288    0.0000 C   0  0  0  0  0  0  0  0  0  0  0  0
   -1.8518    1.1116    0.0000 O   0  0  0  0  0  0  0  0  0  0  0  0
   -0.7973   -1.2628    0.0000 C   0  0  0  0  0  0  0  0  0  0  0  0
   -2.0956   -0.5116    0.0000 C   0  0  0  0  0  0  0  0  0  0  0  0
  2  1  1  6
  2  3  1  0
  3  4  1  0
  4  5  1  0
  5  6  2  0
  5  7  1  0
  7  8  1  0
  2  9  1  0
  9 10  1  6
 10 11  1  0
 12 11  1  6
 12 13  1  0
 13 14  1  1
 14 15  1  0
 16 15  1  1
 16 17  1  0
 17 18  1  0
 18 19  1  1
 18 20  1  0
 20 21  1  0
 21 22  1  0
 22 23  1  6
 22 24  1  0
 24 25  1  6
 25 26  1  0
 26 27  2  0
 26 28  1  0
 28 29  1  6
 28  9  1  0
 28 12  1  0
 24 13  1  0
 22 16  1  0
M  END
>  <MS_ID>  (1483) 
MS1544

>  <SMILES>  (1483) 
C[C@H](CCC(=O)CS)[C@H]1CC[C@H]2[C@@H]3CC[C@@H]4C[C@H](O)CC[C@]4(C)[C@H]3CC(=O)[C@]12C

>  <Structure_dimension>  (1483) 
2D

$$$$
MS1545
     RDKit          2D

 30 33  0  0  0  0  0  0  0  0999 V2000
   -5.3211   -2.0238    0.0000 C   0  0  0  0  0  0  0  0  0  0  0  0
   -4.1189   -1.1267    0.0000 C   0  0  0  0  0  0  0  0  0  0  0  0
   -4.2947    0.3629    0.0000 C   0  0  0  0  0  0  0  0  0  0  0  0
   -5.6727    0.9555    0.0000 C   0  0  0  0  0  0  0  0  0  0  0  0
   -5.8485    2.4452    0.0000 C   0  0  0  0  0  0  0  0  0  0  0  0
   -4.6463    3.3422    0.0000 O   0  0  0  0  0  0  0  0  0  0  0  0
   -7.2265    3.0377    0.0000 O   0  0  0  0  0  0  0  0  0  0  0  0
   -2.7409   -1.7193    0.0000 C   0  0  0  0  0  0  0  0  0  0  0  0
   -2.4104   -3.1825    0.0000 C   0  0  0  0  0  0  0  0  0  0  0  0
   -0.9167   -3.3202    0.0000 C   0  0  0  0  0  0  0  0  0  0  0  0
   -0.3241   -1.9422    0.0000 C   0  0  0  0  0  0  0  0  0  0  0  0
    1.0964   -1.4605    0.0000 C   0  0  0  0  0  0  0  0  0  0  0  0
    2.2239   -2.4499    0.0000 C   0  0  0  0  0  0  0  0  0  0  0  0
    1.9307   -3.9210    0.0000 O   0  0  0  0  0  0  0  0  0  0  0  0
    3.6444   -1.9683    0.0000 C   0  0  0  0  0  0  0  0  0  0  0  0
    3.9375   -0.4972    0.0000 C   0  0  0  0  0  0  0  0  0  0  0  0
    5.3581   -0.0155    0.0000 C   0  0  0  0  0  0  0  0  0  0  0  0
    5.6512    1.4556    0.0000 C   0  0  0  0  0  0  0  0  0  0  0  0
    6.4298    2.7377    0.0000 C   0  0  0  0  0  0  0  0  0  0  0  0
    7.0491    0.9114    0.0000 O   0  0  0  0  0  0  0  0  0  0  0  0
    4.5238    2.4450    0.0000 C   0  0  0  0  0  0  0  0  0  0  0  0
    3.1033    1.9633    0.0000 C   0  0  0  0  0  0  0  0  0  0  0  0
    2.8101    0.4922    0.0000 C   0  0  0  0  0  0  0  0  0  0  0  0
    1.6827    1.4816    0.0000 C   0  0  0  0  0  0  0  0  0  0  0  0
    1.3896    0.0105    0.0000 C   0  0  0  0  0  0  0  0  0  0  0  0
    0.2621    0.9999    0.0000 C   0  0  0  0  0  0  0  0  0  0  0  0
   -1.1584    0.5183    0.0000 C   0  0  0  0  0  0  0  0  0  0  0  0
   -2.2858    1.5077    0.0000 O   0  0  0  0  0  0  0  0  0  0  0  0
   -1.4515   -0.9528    0.0000 C   0  0  0  0  0  0  0  0  0  0  0  0
   -2.6762   -0.0867    0.0000 C   0  0  0  0  0  0  0  0  0  0  0  0
  2  1  1  6
  2  3  1  0
  3  4  1  0
  4  5  1  0
  5  6  2  0
  5  7  1  0
  2  8  1  0
  8  9  1  6
  9 10  1  0
 11 10  1  6
 11 12  1  0
 12 13  1  1
 13 14  1  1
 13 15  1  0
 16 15  1  1
 16 17  1  0
 17 18  1  0
 18 19  1  1
 18 20  1  0
 18 21  1  0
 21 22  1  0
 22 23  1  0
 23 24  1  6
 23 25  1  0
 25 26  1  6
 26 27  1  0
 27 28  1  1
 27 29  1  0
 29 30  1  6
 29  8  1  0
 29 11  1  0
 25 12  1  0
 23 16  1  0
M  END
>  <MS_ID>  (1484) 
MS1545

>  <SMILES>  (1484) 
C[C@H](CCC(=O)O)[C@H]1CC[C@H]2[C@@H]3[C@H](O)C[C@@H]4C[C@@](C)(O)CC[C@]4(C)[C@H]3C[C@H](O)[C@]12C

>  <Structure_dimension>  (1484) 
2D

$$$$
MS1546
     RDKit          2D

 35 39  0  0  0  0  0  0  0  0999 V2000
   -2.4312   -3.9441    0.0000 C   0  0  0  0  0  0  0  0  0  0  0  0
   -1.6409   -2.6691    0.0000 C   0  0  0  0  0  0  0  0  0  0  0  0
   -2.3499   -1.3473    0.0000 C   0  0  0  0  0  0  0  0  0  0  0  0
   -3.8492   -1.3003    0.0000 C   0  0  0  0  0  0  0  0  0  0  0  0
   -4.5582    0.0215    0.0000 C   0  0  0  0  0  0  0  0  0  0  0  0
   -3.7679    1.2965    0.0000 O   0  0  0  0  0  0  0  0  0  0  0  0
   -6.0574    0.0684    0.0000 O   0  0  0  0  0  0  0  0  0  0  0  0
   -6.7664    1.3903    0.0000 C   0  0  0  0  0  0  0  0  0  0  0  0
   -8.2657    1.4372    0.0000 C   0  0  0  0  0  0  0  0  0  0  0  0
   -9.1849    0.2519    0.0000 C   0  0  0  0  0  0  0  0  0  0  0  0
  -10.5963    0.7598    0.0000 C   0  0  0  0  0  0  0  0  0  0  0  0
  -10.5494    2.2591    0.0000 C   0  0  0  0  0  0  0  0  0  0  0  0
   -9.1090    2.6778    0.0000 O   0  0  0  0  0  0  0  0  0  0  0  0
   -0.1417   -2.7161    0.0000 C   0  0  0  0  0  0  0  0  0  0  0  0
    0.7016   -3.9566    0.0000 C   0  0  0  0  0  0  0  0  0  0  0  0
    2.1420   -3.5379    0.0000 C   0  0  0  0  0  0  0  0  0  0  0  0
    2.1889   -2.0387    0.0000 C   0  0  0  0  0  0  0  0  0  0  0  0
    3.3345   -1.0703    0.0000 C   0  0  0  0  0  0  0  0  0  0  0  0
    4.7459   -1.5783    0.0000 C   0  0  0  0  0  0  0  0  0  0  0  0
    5.0117   -3.0545    0.0000 O   0  0  0  0  0  0  0  0  0  0  0  0
    5.8915   -0.6099    0.0000 C   0  0  0  0  0  0  0  0  0  0  0  0
    7.3029   -1.1179    0.0000 O   0  0  0  0  0  0  0  0  0  0  0  0
    5.6257    0.8663    0.0000 C   0  0  0  0  0  0  0  0  0  0  0  0
    6.7712    1.8347    0.0000 C   0  0  0  0  0  0  0  0  0  0  0  0
    6.5054    3.3109    0.0000 C   0  0  0  0  0  0  0  0  0  0  0  0
    7.6510    4.2792    0.0000 O   0  0  0  0  0  0  0  0  0  0  0  0
    5.0940    3.8188    0.0000 C   0  0  0  0  0  0  0  0  0  0  0  0
    3.9485    2.8505    0.0000 C   0  0  0  0  0  0  0  0  0  0  0  0
    4.2143    1.3743    0.0000 C   0  0  0  0  0  0  0  0  0  0  0  0
    2.8029    1.8822    0.0000 C   0  0  0  0  0  0  0  0  0  0  0  0
    3.0687    0.4059    0.0000 C   0  0  0  0  0  0  0  0  0  0  0  0
    1.6573    0.9139    0.0000 C   0  0  0  0  0  0  0  0  0  0  0  0
    0.5117   -0.0545    0.0000 C   0  0  0  0  0  0  0  0  0  0  0  0
    0.7776   -1.5307    0.0000 C   0  0  0  0  0  0  0  0  0  0  0  0
   -0.6792   -1.1731    0.0000 C   0  0  0  0  0  0  0  0  0  0  0  0
  2  1  1  6
  2  3  1  0
  3  4  1  0
  4  5  1  0
  5  6  2  0
  5  7  1  0
  7  8  1  0
  8  9  1  0
  9 10  2  0
 10 11  1  0
 11 12  2  0
 12 13  1  0
  2 14  1  0
 14 15  1  6
 15 16  1  0
 17 16  1  6
 17 18  1  0
 18 19  1  1
 19 20  1  1
 19 21  1  0
 21 22  1  1
 21 23  1  0
 23 24  1  1
 24 25  1  0
 25 26  1  1
 25 27  1  0
 27 28  1  0
 28 29  1  0
 29 30  1  6
 29 31  1  0
 31 32  1  6
 32 33  1  0
 33 34  1  0
 34 35  1  6
 13  9  1  0
 34 14  1  0
 34 17  1  0
 31 18  1  0
 29 23  1  0
M  END
>  <MS_ID>  (1485) 
MS1546

>  <SMILES>  (1485) 
C[C@H](CCC(=O)OCc1ccco1)[C@H]1CC[C@H]2[C@@H]3[C@H](O)[C@H](O)[C@@H]4C[C@H](O)CC[C@]4(C)[C@H]3CC[C@]12C

>  <Structure_dimension>  (1485) 
2D

$$$$
MS1547
     RDKit          2D

 39 44  0  0  0  0  0  0  0  0999 V2000
    0.0922   -4.7203    0.0000 C   0  0  0  0  0  0  0  0  0  0  0  0
    0.6445   -3.3257    0.0000 C   0  0  0  0  0  0  0  0  0  0  0  0
   -0.2871   -2.1501    0.0000 C   0  0  0  0  0  0  0  0  0  0  0  0
   -1.7710   -2.3691    0.0000 C   0  0  0  0  0  0  0  0  0  0  0  0
   -2.7026   -1.1934    0.0000 C   0  0  0  0  0  0  0  0  0  0  0  0
   -2.1502    0.2012    0.0000 O   0  0  0  0  0  0  0  0  0  0  0  0
   -4.1865   -1.4124    0.0000 N   0  0  0  0  0  0  0  0  0  0  0  0
   -5.1181   -0.2367    0.0000 C   0  0  0  0  0  0  0  0  0  0  0  0
   -6.6020   -0.4557    0.0000 C   0  0  0  0  0  0  0  0  0  0  0  0
   -7.5336    0.7200    0.0000 C   0  0  0  0  0  0  0  0  0  0  0  0
   -7.1301    2.1647    0.0000 C   0  0  0  0  0  0  0  0  0  0  0  0
   -8.3794    2.9949    0.0000 N   0  0  0  0  0  0  0  0  0  0  0  0
   -9.5550    2.0633    0.0000 C   0  0  0  0  0  0  0  0  0  0  0  0
  -11.0340    2.3136    0.0000 C   0  0  0  0  0  0  0  0  0  0  0  0
  -11.9903    1.1580    0.0000 C   0  0  0  0  0  0  0  0  0  0  0  0
  -11.4676   -0.2480    0.0000 C   0  0  0  0  0  0  0  0  0  0  0  0
   -9.9886   -0.4983    0.0000 C   0  0  0  0  0  0  0  0  0  0  0  0
   -9.0323    0.6573    0.0000 C   0  0  0  0  0  0  0  0  0  0  0  0
    2.1285   -3.1068    0.0000 C   0  0  0  0  0  0  0  0  0  0  0  0
    3.1778   -4.1786    0.0000 C   0  0  0  0  0  0  0  0  0  0  0  0
    4.5215   -3.5118    0.0000 C   0  0  0  0  0  0  0  0  0  0  0  0
    4.3025   -2.0279    0.0000 C   0  0  0  0  0  0  0  0  0  0  0  0
    5.2588   -0.8722    0.0000 C   0  0  0  0  0  0  0  0  0  0  0  0
    6.7377   -1.1226    0.0000 C   0  0  0  0  0  0  0  0  0  0  0  0
    7.2604   -2.5285    0.0000 O   0  0  0  0  0  0  0  0  0  0  0  0
    7.6940    0.0331    0.0000 C   0  0  0  0  0  0  0  0  0  0  0  0
    7.1713    1.4391    0.0000 C   0  0  0  0  0  0  0  0  0  0  0  0
    8.1276    2.5947    0.0000 C   0  0  0  0  0  0  0  0  0  0  0  0
    7.6049    4.0007    0.0000 C   0  0  0  0  0  0  0  0  0  0  0  0
    8.5612    5.1564    0.0000 O   0  0  0  0  0  0  0  0  0  0  0  0
    6.1259    4.2511    0.0000 C   0  0  0  0  0  0  0  0  0  0  0  0
    5.1697    3.0954    0.0000 C   0  0  0  0  0  0  0  0  0  0  0  0
    5.6924    1.6894    0.0000 C   0  0  0  0  0  0  0  0  0  0  0  0
    4.2134    1.9397    0.0000 C   0  0  0  0  0  0  0  0  0  0  0  0
    4.7361    0.5338    0.0000 C   0  0  0  0  0  0  0  0  0  0  0  0
    3.2571    0.7841    0.0000 C   0  0  0  0  0  0  0  0  0  0  0  0
    2.3009   -0.3716    0.0000 C   0  0  0  0  0  0  0  0  0  0  0  0
    2.8235   -1.7776    0.0000 C   0  0  0  0  0  0  0  0  0  0  0  0
    1.3265   -1.6832    0.0000 C   0  0  0  0  0  0  0  0  0  0  0  0
  2  1  1  6
  2  3  1  0
  3  4  1  0
  4  5  1  0
  5  6  2  0
  5  7  1  0
  7  8  1  0
  8  9  1  0
  9 10  1  0
 10 11  2  0
 11 12  1  0
 12 13  1  0
 13 14  2  0
 14 15  1  0
 15 16  2  0
 16 17  1  0
 17 18  2  0
  2 19  1  0
 19 20  1  6
 20 21  1  0
 22 21  1  6
 22 23  1  0
 23 24  1  1
 24 25  1  1
 24 26  1  0
 27 26  1  1
 27 28  1  0
 28 29  1  0
 29 30  1  1
 29 31  1  0
 31 32  1  0
 32 33  1  0
 33 34  1  6
 33 35  1  0
 35 36  1  6
 36 37  1  0
 37 38  1  0
 38 39  1  6
 18 10  1  0
 38 19  1  0
 18 13  1  0
 38 22  1  0
 35 23  1  0
 33 27  1  0
M  END
>  <MS_ID>  (1486) 
MS1547

>  <SMILES>  (1486) 
C[C@H](CCC(=O)NCCc1c[nH]c2ccccc12)[C@H]1CC[C@H]2[C@@H]3[C@H](O)C[C@@H]4C[C@H](O)CC[C@]4(C)[C@H]3CC[C@]12C

>  <Structure_dimension>  (1486) 
2D

$$$$
MS1548
     RDKit          2D

 33 36  0  0  0  0  0  0  0  0999 V2000
   -3.5867   -2.9352    0.0000 C   0  0  0  0  0  0  0  0  0  0  0  0
   -2.5465   -1.8544    0.0000 C   0  0  0  0  0  0  0  0  0  0  0  0
   -2.9623   -0.4132    0.0000 C   0  0  0  0  0  0  0  0  0  0  0  0
   -4.4183   -0.0527    0.0000 C   0  0  0  0  0  0  0  0  0  0  0  0
   -4.8342    1.3885    0.0000 C   0  0  0  0  0  0  0  0  0  0  0  0
   -3.7940    2.4692    0.0000 O   0  0  0  0  0  0  0  0  0  0  0  0
   -6.2902    1.7489    0.0000 N   0  0  0  0  0  0  0  0  0  0  0  0
   -6.7061    3.1901    0.0000 C   0  0  0  0  0  0  0  0  0  0  0  0
   -7.3304    0.6682    0.0000 C   0  0  0  0  0  0  0  0  0  0  0  0
   -8.7865    1.0287    0.0000 C   0  0  0  0  0  0  0  0  0  0  0  0
   -9.8267   -0.0520    0.0000 O   0  0  0  0  0  0  0  0  0  0  0  0
   -1.0904   -2.2149    0.0000 C   0  0  0  0  0  0  0  0  0  0  0  0
   -0.5262   -3.6048    0.0000 C   0  0  0  0  0  0  0  0  0  0  0  0
    0.9700   -3.4977    0.0000 C   0  0  0  0  0  0  0  0  0  0  0  0
    1.3304   -2.0416    0.0000 C   0  0  0  0  0  0  0  0  0  0  0  0
    2.6537   -1.3352    0.0000 C   0  0  0  0  0  0  0  0  0  0  0  0
    3.9271   -2.1280    0.0000 C   0  0  0  0  0  0  0  0  0  0  0  0
    3.8772   -3.6272    0.0000 O   0  0  0  0  0  0  0  0  0  0  0  0
    5.2503   -1.4216    0.0000 C   0  0  0  0  0  0  0  0  0  0  0  0
    5.3002    0.0776    0.0000 C   0  0  0  0  0  0  0  0  0  0  0  0
    6.6235    0.7840    0.0000 C   0  0  0  0  0  0  0  0  0  0  0  0
    6.6733    2.2831    0.0000 C   0  0  0  0  0  0  0  0  0  0  0  0
    7.9966    2.9895    0.0000 O   0  0  0  0  0  0  0  0  0  0  0  0
    5.4000    3.0759    0.0000 C   0  0  0  0  0  0  0  0  0  0  0  0
    4.0767    2.3695    0.0000 C   0  0  0  0  0  0  0  0  0  0  0  0
    4.0268    0.8703    0.0000 C   0  0  0  0  0  0  0  0  0  0  0  0
    2.7534    1.6631    0.0000 C   0  0  0  0  0  0  0  0  0  0  0  0
    2.7036    0.1640    0.0000 C   0  0  0  0  0  0  0  0  0  0  0  0
    1.4302    0.9567    0.0000 C   0  0  0  0  0  0  0  0  0  0  0  0
    0.1069    0.2503    0.0000 C   0  0  0  0  0  0  0  0  0  0  0  0
   -1.1665    1.0431    0.0000 O   0  0  0  0  0  0  0  0  0  0  0  0
    0.0571   -1.2488    0.0000 C   0  0  0  0  0  0  0  0  0  0  0  0
   -1.2922   -0.5935    0.0000 C   0  0  0  0  0  0  0  0  0  0  0  0
  2  1  1  6
  2  3  1  0
  3  4  1  0
  4  5  1  0
  5  6  2  0
  5  7  1  0
  7  8  1  0
  7  9  1  0
  9 10  1  0
 10 11  1  0
  2 12  1  0
 12 13  1  6
 13 14  1  0
 15 14  1  6
 15 16  1  0
 16 17  1  1
 17 18  1  1
 17 19  1  0
 20 19  1  1
 20 21  1  0
 21 22  1  0
 22 23  1  1
 22 24  1  0
 24 25  1  0
 25 26  1  0
 26 27  1  6
 26 28  1  0
 28 29  1  6
 29 30  1  0
 30 31  1  1
 30 32  1  0
 32 33  1  6
 32 12  1  0
 32 15  1  0
 28 16  1  0
 26 20  1  0
M  END
>  <MS_ID>  (1487) 
MS1548

>  <SMILES>  (1487) 
C[C@H](CCC(=O)N(C)CCO)[C@H]1CC[C@H]2[C@@H]3[C@H](O)C[C@@H]4C[C@H](O)CC[C@]4(C)[C@H]3C[C@H](O)[C@]12C

>  <Structure_dimension>  (1487) 
2D

$$$$
MS1549
     RDKit          2D

 32 35  0  0  0  0  0  0  0  0999 V2000
   -3.6443   -3.5979    0.0000 C   0  0  0  0  0  0  0  0  0  0  0  0
   -2.7666   -2.3815    0.0000 C   0  0  0  0  0  0  0  0  0  0  0  0
   -3.3812   -1.0132    0.0000 C   0  0  0  0  0  0  0  0  0  0  0  0
   -4.8735   -0.8613    0.0000 C   0  0  0  0  0  0  0  0  0  0  0  0
   -5.4882    0.5070    0.0000 C   0  0  0  0  0  0  0  0  0  0  0  0
   -4.6105    1.7234    0.0000 O   0  0  0  0  0  0  0  0  0  0  0  0
   -6.9805    0.6588    0.0000 C   0  0  0  0  0  0  0  0  0  0  0  0
   -7.5951    2.0271    0.0000 C   0  0  0  0  0  0  0  0  0  0  0  0
   -9.0874    2.1790    0.0000 C   0  0  0  0  0  0  0  0  0  0  0  0
   -9.7020    3.5473    0.0000 N   0  0  0  0  0  0  0  0  0  0  0  0
   -1.2743   -2.5333    0.0000 C   0  0  0  0  0  0  0  0  0  0  0  0
   -0.5200   -3.8299    0.0000 C   0  0  0  0  0  0  0  0  0  0  0  0
    0.9462   -3.5132    0.0000 C   0  0  0  0  0  0  0  0  0  0  0  0
    1.0980   -2.0209    0.0000 C   0  0  0  0  0  0  0  0  0  0  0  0
    2.3086   -1.1352    0.0000 C   0  0  0  0  0  0  0  0  0  0  0  0
    3.6809   -1.7408    0.0000 C   0  0  0  0  0  0  0  0  0  0  0  0
    3.8427   -3.2320    0.0000 O   0  0  0  0  0  0  0  0  0  0  0  0
    4.8916   -0.8551    0.0000 C   0  0  0  0  0  0  0  0  0  0  0  0
    6.2639   -1.4607    0.0000 O   0  0  0  0  0  0  0  0  0  0  0  0
    4.7298    0.6362    0.0000 C   0  0  0  0  0  0  0  0  0  0  0  0
    5.9404    1.5218    0.0000 C   0  0  0  0  0  0  0  0  0  0  0  0
    5.7787    3.0131    0.0000 C   0  0  0  0  0  0  0  0  0  0  0  0
    6.9893    3.8988    0.0000 O   0  0  0  0  0  0  0  0  0  0  0  0
    4.4064    3.6187    0.0000 C   0  0  0  0  0  0  0  0  0  0  0  0
    3.1958    2.7330    0.0000 C   0  0  0  0  0  0  0  0  0  0  0  0
    3.3575    1.2417    0.0000 C   0  0  0  0  0  0  0  0  0  0  0  0
    1.9852    1.8473    0.0000 C   0  0  0  0  0  0  0  0  0  0  0  0
    2.1469    0.3561    0.0000 C   0  0  0  0  0  0  0  0  0  0  0  0
    0.7746    0.9616    0.0000 C   0  0  0  0  0  0  0  0  0  0  0  0
   -0.4360    0.0759    0.0000 C   0  0  0  0  0  0  0  0  0  0  0  0
   -0.2743   -1.4153    0.0000 C   0  0  0  0  0  0  0  0  0  0  0  0
   -1.7024   -0.9565    0.0000 C   0  0  0  0  0  0  0  0  0  0  0  0
  2  1  1  6
  2  3  1  0
  3  4  1  0
  4  5  1  0
  5  6  2  0
  5  7  1  0
  7  8  1  0
  8  9  1  0
  9 10  1  0
  2 11  1  0
 11 12  1  6
 12 13  1  0
 14 13  1  6
 14 15  1  0
 15 16  1  1
 16 17  1  1
 16 18  1  0
 18 19  1  1
 18 20  1  0
 20 21  1  1
 21 22  1  0
 22 23  1  1
 22 24  1  0
 24 25  1  0
 25 26  1  0
 26 27  1  6
 26 28  1  0
 28 29  1  6
 29 30  1  0
 30 31  1  0
 31 32  1  6
 31 11  1  0
 31 14  1  0
 28 15  1  0
 26 20  1  0
M  END
>  <MS_ID>  (1488) 
MS1549

>  <SMILES>  (1488) 
C[C@H](CCC(=O)CCCN)[C@H]1CC[C@H]2[C@@H]3[C@H](O)[C@H](O)[C@@H]4C[C@H](O)CC[C@]4(C)[C@H]3CC[C@]12C

>  <Structure_dimension>  (1488) 
2D

$$$$
MS1550
     RDKit          2D

 34 37  0  0  0  0  0  0  0  0999 V2000
   -4.1116   -3.3995    0.0000 C   0  0  0  0  0  0  0  0  0  0  0  0
   -3.1021   -2.2900    0.0000 C   0  0  0  0  0  0  0  0  0  0  0  0
   -3.5583   -0.8610    0.0000 C   0  0  0  0  0  0  0  0  0  0  0  0
   -5.0239   -0.5416    0.0000 C   0  0  0  0  0  0  0  0  0  0  0  0
   -5.4800    0.8874    0.0000 C   0  0  0  0  0  0  0  0  0  0  0  0
   -6.9456    1.2069    0.0000 O   0  0  0  0  0  0  0  0  0  0  0  0
   -4.4705    1.9969    0.0000 S   0  0  0  0  0  0  0  0  0  0  0  0
   -3.3610    0.9874    0.0000 O   0  0  0  0  0  0  0  0  0  0  0  0
   -5.5800    3.0064    0.0000 O   0  0  0  0  0  0  0  0  0  0  0  0
   -3.4611    3.1064    0.0000 C   0  0  0  0  0  0  0  0  0  0  0  0
   -1.9955    2.7869    0.0000 C   0  0  0  0  0  0  0  0  0  0  0  0
   -1.5393    1.3580    0.0000 O   0  0  0  0  0  0  0  0  0  0  0  0
   -0.9860    3.8964    0.0000 O   0  0  0  0  0  0  0  0  0  0  0  0
   -1.6366   -2.6095    0.0000 C   0  0  0  0  0  0  0  0  0  0  0  0
   -1.0336   -3.9829    0.0000 C   0  0  0  0  0  0  0  0  0  0  0  0
    0.4590   -3.8339    0.0000 C   0  0  0  0  0  0  0  0  0  0  0  0
    0.7785   -2.3683    0.0000 C   0  0  0  0  0  0  0  0  0  0  0  0
    2.0814   -1.6250    0.0000 C   0  0  0  0  0  0  0  0  0  0  0  0
    3.3765   -2.3818    0.0000 C   0  0  0  0  0  0  0  0  0  0  0  0
    3.3687   -3.8817    0.0000 O   0  0  0  0  0  0  0  0  0  0  0  0
    4.6794   -1.6385    0.0000 C   0  0  0  0  0  0  0  0  0  0  0  0
    4.6872   -0.1385    0.0000 C   0  0  0  0  0  0  0  0  0  0  0  0
    5.9901    0.6047    0.0000 C   0  0  0  0  0  0  0  0  0  0  0  0
    5.9979    2.1047    0.0000 C   0  0  0  0  0  0  0  0  0  0  0  0
    7.3008    2.8480    0.0000 O   0  0  0  0  0  0  0  0  0  0  0  0
    4.7028    2.8614    0.0000 C   0  0  0  0  0  0  0  0  0  0  0  0
    3.3998    2.1182    0.0000 C   0  0  0  0  0  0  0  0  0  0  0  0
    3.3921    0.6182    0.0000 C   0  0  0  0  0  0  0  0  0  0  0  0
    2.0969    1.3749    0.0000 C   0  0  0  0  0  0  0  0  0  0  0  0
    2.0892   -0.1250    0.0000 C   0  0  0  0  0  0  0  0  0  0  0  0
    0.7940    0.6317    0.0000 C   0  0  0  0  0  0  0  0  0  0  0  0
   -0.5089   -0.1116    0.0000 C   0  0  0  0  0  0  0  0  0  0  0  0
   -0.5167   -1.6116    0.0000 C   0  0  0  0  0  0  0  0  0  0  0  0
   -1.8838   -0.9944    0.0000 C   0  0  0  0  0  0  0  0  0  0  0  0
  2  1  1  6
  2  3  1  0
  3  4  1  0
  4  5  1  0
  5  6  2  0
  5  7  1  0
  7  8  2  0
  7  9  2  0
  7 10  1  0
 10 11  1  0
 11 12  2  0
 11 13  1  0
  2 14  1  0
 14 15  1  6
 15 16  1  0
 17 16  1  6
 17 18  1  0
 18 19  1  1
 19 20  1  6
 19 21  1  0
 22 21  1  1
 22 23  1  0
 23 24  1  0
 24 25  1  1
 24 26  1  0
 26 27  1  0
 27 28  1  0
 28 29  1  6
 28 30  1  0
 30 31  1  6
 31 32  1  0
 32 33  1  0
 33 34  1  6
 33 14  1  0
 33 17  1  0
 30 18  1  0
 28 22  1  0
M  END
>  <MS_ID>  (1489) 
MS1550

>  <SMILES>  (1489) 
C[C@H](CCC(=O)S(=O)(=O)CC(=O)O)[C@H]1CC[C@H]2[C@@H]3[C@@H](O)C[C@@H]4C[C@H](O)CC[C@]4(C)[C@H]3CC[C@]12C

>  <Structure_dimension>  (1489) 
2D

$$$$
MS1551
     RDKit          2D

 28 31  0  0  0  0  0  0  0  0999 V2000
   -4.6352   -2.6140    0.0000 C   0  0  0  0  0  0  0  0  0  0  0  0
   -3.5136   -1.6180    0.0000 C   0  0  0  0  0  0  0  0  0  0  0  0
   -3.8154   -0.1486    0.0000 C   0  0  0  0  0  0  0  0  0  0  0  0
   -5.2387    0.3247    0.0000 C   0  0  0  0  0  0  0  0  0  0  0  0
   -5.5405    1.7940    0.0000 C   0  0  0  0  0  0  0  0  0  0  0  0
   -4.4189    2.7900    0.0000 O   0  0  0  0  0  0  0  0  0  0  0  0
   -6.9639    2.2673    0.0000 C   0  0  0  0  0  0  0  0  0  0  0  0
   -7.2657    3.7367    0.0000 N   0  0  0  0  0  0  0  0  0  0  0  0
   -2.0902   -2.0913    0.0000 C   0  0  0  0  0  0  0  0  0  0  0  0
   -1.6365   -3.5210    0.0000 C   0  0  0  0  0  0  0  0  0  0  0  0
   -0.1366   -3.5313    0.0000 C   0  0  0  0  0  0  0  0  0  0  0  0
    0.3368   -2.1080    0.0000 C   0  0  0  0  0  0  0  0  0  0  0  0
    1.7112   -1.5073    0.0000 C   0  0  0  0  0  0  0  0  0  0  0  0
    2.9187   -2.3973    0.0000 C   0  0  0  0  0  0  0  0  0  0  0  0
    4.2932   -1.7966    0.0000 C   0  0  0  0  0  0  0  0  0  0  0  0
    4.4602   -0.3060    0.0000 C   0  0  0  0  0  0  0  0  0  0  0  0
    5.8347    0.2947    0.0000 C   0  0  0  0  0  0  0  0  0  0  0  0
    6.0017    1.7854    0.0000 C   0  0  0  0  0  0  0  0  0  0  0  0
    7.3762    2.3861    0.0000 O   0  0  0  0  0  0  0  0  0  0  0  0
    4.7943    2.6754    0.0000 C   0  0  0  0  0  0  0  0  0  0  0  0
    3.4198    2.0747    0.0000 C   0  0  0  0  0  0  0  0  0  0  0  0
    3.2528    0.5840    0.0000 C   0  0  0  0  0  0  0  0  0  0  0  0
    2.0453    1.4740    0.0000 C   0  0  0  0  0  0  0  0  0  0  0  0
    1.8783   -0.0166    0.0000 C   0  0  0  0  0  0  0  0  0  0  0  0
    0.6708    0.8734    0.0000 C   0  0  0  0  0  0  0  0  0  0  0  0
   -0.7036    0.2727    0.0000 C   0  0  0  0  0  0  0  0  0  0  0  0
   -0.8707   -1.2180    0.0000 C   0  0  0  0  0  0  0  0  0  0  0  0
   -2.1645   -0.4591    0.0000 C   0  0  0  0  0  0  0  0  0  0  0  0
  2  1  1  6
  2  3  1  0
  3  4  1  0
  4  5  1  0
  5  6  2  0
  5  7  1  0
  7  8  1  0
  2  9  1  0
  9 10  1  6
 10 11  1  0
 12 11  1  6
 12 13  1  0
 13 14  1  1
 14 15  1  0
 16 15  1  1
 16 17  1  0
 17 18  1  0
 18 19  1  1
 18 20  1  0
 20 21  1  0
 21 22  1  0
 22 23  1  6
 22 24  1  0
 24 25  1  6
 25 26  1  0
 26 27  1  0
 27 28  1  6
 27  9  1  0
 27 12  1  0
 24 13  1  0
 22 16  1  0
M  END
>  <MS_ID>  (1490) 
MS1551

>  <SMILES>  (1490) 
C[C@H](CCC(=O)CN)[C@H]1CC[C@H]2[C@@H]3CC[C@@H]4C[C@H](O)CC[C@]4(C)[C@H]3CC[C@]12C

>  <Structure_dimension>  (1490) 
2D

$$$$
MS1552
     RDKit          2D

 31 34  0  0  0  0  0  0  0  0999 V2000
   -8.8672    3.1400    0.0000 C   0  0  0  0  0  0  0  0  0  0  0  0
   -7.3980    2.8376    0.0000 C   0  0  0  0  0  0  0  0  0  0  0  0
   -6.9253    1.4140    0.0000 O   0  0  0  0  0  0  0  0  0  0  0  0
   -5.4561    1.1115    0.0000 C   0  0  0  0  0  0  0  0  0  0  0  0
   -4.4596    2.2326    0.0000 O   0  0  0  0  0  0  0  0  0  0  0  0
   -4.9835   -0.3121    0.0000 C   0  0  0  0  0  0  0  0  0  0  0  0
   -3.5143   -0.6145    0.0000 C   0  0  0  0  0  0  0  0  0  0  0  0
   -3.0416   -2.0381    0.0000 C   0  0  0  0  0  0  0  0  0  0  0  0
   -4.0382   -3.1592    0.0000 C   0  0  0  0  0  0  0  0  0  0  0  0
   -1.5724   -2.3406    0.0000 C   0  0  0  0  0  0  0  0  0  0  0  0
   -0.9536   -3.7070    0.0000 C   0  0  0  0  0  0  0  0  0  0  0  0
    0.5372   -3.5406    0.0000 C   0  0  0  0  0  0  0  0  0  0  0  0
    0.8396   -2.0714    0.0000 C   0  0  0  0  0  0  0  0  0  0  0  0
    2.1338   -1.3131    0.0000 C   0  0  0  0  0  0  0  0  0  0  0  0
    3.4377   -2.0548    0.0000 C   0  0  0  0  0  0  0  0  0  0  0  0
    3.4473   -3.5547    0.0000 O   0  0  0  0  0  0  0  0  0  0  0  0
    4.7319   -1.2965    0.0000 C   0  0  0  0  0  0  0  0  0  0  0  0
    4.7223    0.2035    0.0000 C   0  0  0  0  0  0  0  0  0  0  0  0
    6.0165    0.9618    0.0000 C   0  0  0  0  0  0  0  0  0  0  0  0
    6.0069    2.4618    0.0000 C   0  0  0  0  0  0  0  0  0  0  0  0
    7.3011    3.2201    0.0000 O   0  0  0  0  0  0  0  0  0  0  0  0
    4.7030    3.2034    0.0000 C   0  0  0  0  0  0  0  0  0  0  0  0
    3.4088    2.4451    0.0000 C   0  0  0  0  0  0  0  0  0  0  0  0
    3.4184    0.9452    0.0000 C   0  0  0  0  0  0  0  0  0  0  0  0
    2.1146    1.6868    0.0000 C   0  0  0  0  0  0  0  0  0  0  0  0
    2.1242    0.1869    0.0000 C   0  0  0  0  0  0  0  0  0  0  0  0
    0.8204    0.9285    0.0000 C   0  0  0  0  0  0  0  0  0  0  0  0
   -0.4738    0.1702    0.0000 C   0  0  0  0  0  0  0  0  0  0  0  0
   -1.7776    0.9119    0.0000 O   0  0  0  0  0  0  0  0  0  0  0  0
   -0.4642   -1.3298    0.0000 C   0  0  0  0  0  0  0  0  0  0  0  0
   -1.8384   -0.7284    0.0000 C   0  0  0  0  0  0  0  0  0  0  0  0
  1  2  1  0
  2  3  1  0
  3  4  1  0
  4  5  2  0
  4  6  1  0
  6  7  1  0
  7  8  1  0
  8  9  1  6
  8 10  1  0
 10 11  1  6
 11 12  1  0
 13 12  1  6
 13 14  1  0
 14 15  1  1
 15 16  1  1
 15 17  1  0
 18 17  1  1
 18 19  1  0
 19 20  1  0
 20 21  1  6
 20 22  1  0
 22 23  1  0
 23 24  1  0
 24 25  1  6
 24 26  1  0
 26 27  1  6
 27 28  1  0
 28 29  1  1
 28 30  1  0
 30 31  1  6
 30 10  1  0
 30 13  1  0
 26 14  1  0
 24 18  1  0
M  END
>  <MS_ID>  (1491) 
MS1552

>  <SMILES>  (1491) 
CCOC(=O)CC[C@@H](C)[C@H]1CC[C@H]2[C@@H]3[C@H](O)C[C@@H]4C[C@@H](O)CC[C@]4(C)[C@H]3C[C@H](O)[C@]12C

>  <Structure_dimension>  (1491) 
2D

$$$$
MS1553
     RDKit          2D

 37 41  0  0  0  0  0  0  0  0999 V2000
   -0.7699   -4.6561    0.0000 C   0  0  0  0  0  0  0  0  0  0  0  0
   -0.1875   -3.2738    0.0000 C   0  0  0  0  0  0  0  0  0  0  0  0
   -1.0935   -2.0783    0.0000 C   0  0  0  0  0  0  0  0  0  0  0  0
   -2.5818   -2.2651    0.0000 C   0  0  0  0  0  0  0  0  0  0  0  0
   -3.4877   -1.0696    0.0000 C   0  0  0  0  0  0  0  0  0  0  0  0
   -2.9054    0.3128    0.0000 O   0  0  0  0  0  0  0  0  0  0  0  0
   -4.9761   -1.2564    0.0000 C   0  0  0  0  0  0  0  0  0  0  0  0
   -5.8820   -0.0609    0.0000 O   0  0  0  0  0  0  0  0  0  0  0  0
   -7.3703   -0.2477    0.0000 C   0  0  0  0  0  0  0  0  0  0  0  0
   -7.9527   -1.6301    0.0000 O   0  0  0  0  0  0  0  0  0  0  0  0
   -8.2763    0.9478    0.0000 C   0  0  0  0  0  0  0  0  0  0  0  0
   -7.6939    2.3301    0.0000 C   0  0  0  0  0  0  0  0  0  0  0  0
   -8.5999    3.5256    0.0000 C   0  0  0  0  0  0  0  0  0  0  0  0
  -10.0882    3.3388    0.0000 C   0  0  0  0  0  0  0  0  0  0  0  0
  -10.6706    1.9564    0.0000 N   0  0  0  0  0  0  0  0  0  0  0  0
   -9.7646    0.7609    0.0000 C   0  0  0  0  0  0  0  0  0  0  0  0
    1.3008   -3.0869    0.0000 C   0  0  0  0  0  0  0  0  0  0  0  0
    2.3268   -4.1812    0.0000 C   0  0  0  0  0  0  0  0  0  0  0  0
    3.6845   -3.5436    0.0000 C   0  0  0  0  0  0  0  0  0  0  0  0
    3.4977   -2.0553    0.0000 C   0  0  0  0  0  0  0  0  0  0  0  0
    4.4787   -0.9205    0.0000 C   0  0  0  0  0  0  0  0  0  0  0  0
    5.9519   -1.2028    0.0000 C   0  0  0  0  0  0  0  0  0  0  0  0
    6.4441   -2.6197    0.0000 O   0  0  0  0  0  0  0  0  0  0  0  0
    6.9329   -0.0680    0.0000 C   0  0  0  0  0  0  0  0  0  0  0  0
    6.4408    1.3489    0.0000 C   0  0  0  0  0  0  0  0  0  0  0  0
    7.4218    2.4836    0.0000 C   0  0  0  0  0  0  0  0  0  0  0  0
    6.9296    3.9006    0.0000 C   0  0  0  0  0  0  0  0  0  0  0  0
    7.9106    5.0353    0.0000 O   0  0  0  0  0  0  0  0  0  0  0  0
    5.4564    4.1828    0.0000 C   0  0  0  0  0  0  0  0  0  0  0  0
    4.4754    3.0481    0.0000 C   0  0  0  0  0  0  0  0  0  0  0  0
    4.9675    1.6311    0.0000 C   0  0  0  0  0  0  0  0  0  0  0  0
    3.4943    1.9134    0.0000 C   0  0  0  0  0  0  0  0  0  0  0  0
    3.9865    0.4964    0.0000 C   0  0  0  0  0  0  0  0  0  0  0  0
    2.5133    0.7786    0.0000 C   0  0  0  0  0  0  0  0  0  0  0  0
    1.5323   -0.3561    0.0000 C   0  0  0  0  0  0  0  0  0  0  0  0
    2.0245   -1.7730    0.0000 C   0  0  0  0  0  0  0  0  0  0  0  0
    0.5298   -1.6463    0.0000 C   0  0  0  0  0  0  0  0  0  0  0  0
  2  1  1  6
  2  3  1  0
  3  4  1  0
  4  5  1  0
  5  6  2  0
  5  7  1  0
  7  8  1  0
  8  9  1  0
  9 10  2  0
  9 11  1  0
 11 12  2  0
 12 13  1  0
 13 14  2  0
 14 15  1  0
 15 16  2  0
  2 17  1  0
 17 18  1  6
 18 19  1  0
 20 19  1  6
 20 21  1  0
 21 22  1  1
 22 23  1  1
 22 24  1  0
 25 24  1  1
 25 26  1  0
 26 27  1  0
 27 28  1  1
 27 29  1  0
 29 30  1  0
 30 31  1  0
 31 32  1  6
 31 33  1  0
 33 34  1  6
 34 35  1  0
 35 36  1  0
 36 37  1  6
 16 11  1  0
 36 17  1  0
 36 20  1  0
 33 21  1  0
 31 25  1  0
M  END
>  <MS_ID>  (1492) 
MS1553

>  <SMILES>  (1492) 
C[C@H](CCC(=O)COC(=O)c1cccnc1)[C@H]1CC[C@H]2[C@@H]3[C@H](O)C[C@@H]4C[C@H](O)CC[C@]4(C)[C@H]3CC[C@]12C

>  <Structure_dimension>  (1492) 
2D

$$$$
MS1554
     RDKit          2D

 28 31  0  0  0  0  0  0  0  0999 V2000
   -4.7187    4.3438    0.0000 C   0  0  0  0  0  0  0  0  0  0  0  0
   -4.4488    2.8683    0.0000 S   0  0  0  0  0  0  0  0  0  0  0  0
   -5.5917    1.8968    0.0000 C   0  0  0  0  0  0  0  0  0  0  0  0
   -7.0045    2.4008    0.0000 O   0  0  0  0  0  0  0  0  0  0  0  0
   -5.3218    0.4213    0.0000 C   0  0  0  0  0  0  0  0  0  0  0  0
   -3.9090   -0.0827    0.0000 C   0  0  0  0  0  0  0  0  0  0  0  0
   -3.6391   -1.5583    0.0000 C   0  0  0  0  0  0  0  0  0  0  0  0
   -4.7819   -2.5298    0.0000 C   0  0  0  0  0  0  0  0  0  0  0  0
   -2.2263   -2.0623    0.0000 C   0  0  0  0  0  0  0  0  0  0  0  0
   -1.8036   -3.5015    0.0000 C   0  0  0  0  0  0  0  0  0  0  0  0
   -0.3042   -3.5443    0.0000 C   0  0  0  0  0  0  0  0  0  0  0  0
    0.1998   -2.1315    0.0000 C   0  0  0  0  0  0  0  0  0  0  0  0
    1.5870   -1.5607    0.0000 C   0  0  0  0  0  0  0  0  0  0  0  0
    2.7749   -2.4766    0.0000 C   0  0  0  0  0  0  0  0  0  0  0  0
    4.1620   -1.9058    0.0000 C   0  0  0  0  0  0  0  0  0  0  0  0
    4.3613   -0.4191    0.0000 C   0  0  0  0  0  0  0  0  0  0  0  0
    5.7484    0.1517    0.0000 C   0  0  0  0  0  0  0  0  0  0  0  0
    5.9477    1.6384    0.0000 C   0  0  0  0  0  0  0  0  0  0  0  0
    7.3348    2.2092    0.0000 O   0  0  0  0  0  0  0  0  0  0  0  0
    4.7598    2.5543    0.0000 C   0  0  0  0  0  0  0  0  0  0  0  0
    3.3726    1.9835    0.0000 C   0  0  0  0  0  0  0  0  0  0  0  0
    3.1734    0.4968    0.0000 C   0  0  0  0  0  0  0  0  0  0  0  0
    1.9855    1.4127    0.0000 C   0  0  0  0  0  0  0  0  0  0  0  0
    1.7862   -0.0740    0.0000 C   0  0  0  0  0  0  0  0  0  0  0  0
    0.5983    0.8419    0.0000 C   0  0  0  0  0  0  0  0  0  0  0  0
   -0.7888    0.2712    0.0000 C   0  0  0  0  0  0  0  0  0  0  0  0
   -0.9881   -1.2155    0.0000 C   0  0  0  0  0  0  0  0  0  0  0  0
   -2.2652   -0.4288    0.0000 C   0  0  0  0  0  0  0  0  0  0  0  0
  1  2  1  0
  2  3  1  0
  3  4  2  0
  3  5  1  0
  5  6  1  0
  6  7  1  0
  7  8  1  6
  7  9  1  0
  9 10  1  6
 10 11  1  0
 12 11  1  6
 12 13  1  0
 13 14  1  1
 14 15  1  0
 16 15  1  1
 16 17  1  0
 17 18  1  0
 18 19  1  6
 18 20  1  0
 20 21  1  0
 21 22  1  0
 22 23  1  6
 22 24  1  0
 24 25  1  6
 25 26  1  0
 26 27  1  0
 27 28  1  6
 27  9  1  0
 27 12  1  0
 24 13  1  0
 22 16  1  0
M  END
>  <MS_ID>  (1493) 
MS1554

>  <SMILES>  (1493) 
CSC(=O)CC[C@@H](C)[C@H]1CC[C@H]2[C@@H]3CC[C@@H]4C[C@@H](O)CC[C@]4(C)[C@H]3CC[C@]12C

>  <Structure_dimension>  (1493) 
2D

$$$$
MS1555
     RDKit          2D

 30 33  0  0  0  0  0  0  0  0999 V2000
   -8.9136    3.2062    0.0000 C   0  0  0  0  0  0  0  0  0  0  0  0
   -7.4457    2.8978    0.0000 C   0  0  0  0  0  0  0  0  0  0  0  0
   -6.9787    1.4724    0.0000 C   0  0  0  0  0  0  0  0  0  0  0  0
   -5.5108    1.1640    0.0000 C   0  0  0  0  0  0  0  0  0  0  0  0
   -4.5097    2.2811    0.0000 O   0  0  0  0  0  0  0  0  0  0  0  0
   -5.0438   -0.2615    0.0000 C   0  0  0  0  0  0  0  0  0  0  0  0
   -3.5759   -0.5698    0.0000 C   0  0  0  0  0  0  0  0  0  0  0  0
   -3.1089   -1.9953    0.0000 C   0  0  0  0  0  0  0  0  0  0  0  0
   -4.1099   -3.1124    0.0000 C   0  0  0  0  0  0  0  0  0  0  0  0
   -1.6409   -2.3036    0.0000 C   0  0  0  0  0  0  0  0  0  0  0  0
   -1.0276   -3.6725    0.0000 C   0  0  0  0  0  0  0  0  0  0  0  0
    0.4638   -3.5121    0.0000 C   0  0  0  0  0  0  0  0  0  0  0  0
    0.7722   -2.0441    0.0000 C   0  0  0  0  0  0  0  0  0  0  0  0
    2.0694   -1.2910    0.0000 C   0  0  0  0  0  0  0  0  0  0  0  0
    3.3703   -2.0379    0.0000 C   0  0  0  0  0  0  0  0  0  0  0  0
    3.3739   -3.5379    0.0000 O   0  0  0  0  0  0  0  0  0  0  0  0
    4.6675   -1.2848    0.0000 C   0  0  0  0  0  0  0  0  0  0  0  0
    4.6639    0.2152    0.0000 C   0  0  0  0  0  0  0  0  0  0  0  0
    5.9611    0.9683    0.0000 C   0  0  0  0  0  0  0  0  0  0  0  0
    5.9575    2.4683    0.0000 C   0  0  0  0  0  0  0  0  0  0  0  0
    7.2548    3.2214    0.0000 O   0  0  0  0  0  0  0  0  0  0  0  0
    4.6567    3.2152    0.0000 C   0  0  0  0  0  0  0  0  0  0  0  0
    3.3595    2.4621    0.0000 C   0  0  0  0  0  0  0  0  0  0  0  0
    3.3631    0.9621    0.0000 C   0  0  0  0  0  0  0  0  0  0  0  0
    2.0622    1.7090    0.0000 C   0  0  0  0  0  0  0  0  0  0  0  0
    2.0658    0.2090    0.0000 C   0  0  0  0  0  0  0  0  0  0  0  0
    0.7650    0.9559    0.0000 C   0  0  0  0  0  0  0  0  0  0  0  0
   -0.5322    0.2027    0.0000 C   0  0  0  0  0  0  0  0  0  0  0  0
   -0.5286   -1.2973    0.0000 C   0  0  0  0  0  0  0  0  0  0  0  0
   -1.9004   -0.6904    0.0000 C   0  0  0  0  0  0  0  0  0  0  0  0
  1  2  1  0
  2  3  1  0
  3  4  1  0
  4  5  2  0
  4  6  1  0
  6  7  1  0
  7  8  1  0
  8  9  1  6
  8 10  1  0
 10 11  1  6
 11 12  1  0
 13 12  1  6
 13 14  1  0
 14 15  1  1
 15 16  1  1
 15 17  1  0
 18 17  1  1
 18 19  1  0
 19 20  1  0
 20 21  1  1
 20 22  1  0
 22 23  1  0
 23 24  1  0
 24 25  1  6
 24 26  1  0
 26 27  1  6
 27 28  1  0
 28 29  1  0
 29 30  1  6
 29 10  1  0
 29 13  1  0
 26 14  1  0
 24 18  1  0
M  END
>  <MS_ID>  (1494) 
MS1555

>  <SMILES>  (1494) 
CCCC(=O)CC[C@@H](C)[C@H]1CC[C@H]2[C@@H]3[C@H](O)C[C@@H]4C[C@H](O)CC[C@]4(C)[C@H]3CC[C@]12C

>  <Structure_dimension>  (1494) 
2D

$$$$
MS1556
     RDKit          2D

 29 32  0  0  0  0  0  0  0  0999 V2000
   -3.6590   -3.2430    0.0000 C   0  0  0  0  0  0  0  0  0  0  0  0
   -2.7318   -2.0639    0.0000 C   0  0  0  0  0  0  0  0  0  0  0  0
   -3.2894   -0.6714    0.0000 C   0  0  0  0  0  0  0  0  0  0  0  0
   -4.7741   -0.4579    0.0000 C   0  0  0  0  0  0  0  0  0  0  0  0
   -5.3316    0.9346    0.0000 C   0  0  0  0  0  0  0  0  0  0  0  0
   -4.4044    2.1137    0.0000 O   0  0  0  0  0  0  0  0  0  0  0  0
   -6.8164    1.1480    0.0000 O   0  0  0  0  0  0  0  0  0  0  0  0
   -7.3739    2.5406    0.0000 C   0  0  0  0  0  0  0  0  0  0  0  0
   -8.8586    2.7540    0.0000 O   0  0  0  0  0  0  0  0  0  0  0  0
   -1.2471   -2.2773    0.0000 C   0  0  0  0  0  0  0  0  0  0  0  0
   -0.5471   -3.6040    0.0000 C   0  0  0  0  0  0  0  0  0  0  0  0
    0.9310   -3.3481    0.0000 C   0  0  0  0  0  0  0  0  0  0  0  0
    1.1444   -1.8634    0.0000 C   0  0  0  0  0  0  0  0  0  0  0  0
    2.3906   -1.0285    0.0000 C   0  0  0  0  0  0  0  0  0  0  0  0
    3.7367   -1.6903    0.0000 C   0  0  0  0  0  0  0  0  0  0  0  0
    3.8366   -3.1870    0.0000 O   0  0  0  0  0  0  0  0  0  0  0  0
    4.9829   -0.8554    0.0000 C   0  0  0  0  0  0  0  0  0  0  0  0
    4.8830    0.6412    0.0000 C   0  0  0  0  0  0  0  0  0  0  0  0
    6.1292    1.4761    0.0000 C   0  0  0  0  0  0  0  0  0  0  0  0
    6.0292    2.9728    0.0000 C   0  0  0  0  0  0  0  0  0  0  0  0
    4.6831    3.6346    0.0000 C   0  0  0  0  0  0  0  0  0  0  0  0
    3.4369    2.7997    0.0000 C   0  0  0  0  0  0  0  0  0  0  0  0
    3.5369    1.3030    0.0000 C   0  0  0  0  0  0  0  0  0  0  0  0
    2.1907    1.9648    0.0000 C   0  0  0  0  0  0  0  0  0  0  0  0
    2.2907    0.4681    0.0000 C   0  0  0  0  0  0  0  0  0  0  0  0
    0.9445    1.1299    0.0000 C   0  0  0  0  0  0  0  0  0  0  0  0
   -0.3016    0.2951    0.0000 C   0  0  0  0  0  0  0  0  0  0  0  0
   -0.2017   -1.2016    0.0000 C   0  0  0  0  0  0  0  0  0  0  0  0
   -1.6096   -0.6841    0.0000 C   0  0  0  0  0  0  0  0  0  0  0  0
  2  1  1  6
  2  3  1  0
  3  4  1  0
  4  5  1  0
  5  6  2  0
  5  7  1  0
  7  8  1  0
  8  9  1  0
  2 10  1  0
 10 11  1  6
 11 12  1  0
 13 12  1  6
 13 14  1  0
 14 15  1  1
 15 16  1  1
 15 17  1  0
 18 17  1  1
 18 19  1  0
 19 20  1  0
 20 21  1  0
 21 22  1  0
 22 23  1  0
 23 24  1  6
 23 25  1  0
 25 26  1  6
 26 27  1  0
 27 28  1  0
 28 29  1  6
 28 10  1  0
 28 13  1  0
 25 14  1  0
 23 18  1  0
M  END
>  <MS_ID>  (1495) 
MS1556

>  <SMILES>  (1495) 
C[C@H](CCC(=O)OCO)[C@H]1CC[C@H]2[C@@H]3[C@H](O)C[C@@H]4CCCC[C@]4(C)[C@H]3CC[C@]12C

>  <Structure_dimension>  (1495) 
2D

$$$$
MS1557
     RDKit          2D

 29 32  0  0  0  0  0  0  0  0999 V2000
   -5.4679   -1.9280    0.0000 C   0  0  0  0  0  0  0  0  0  0  0  0
   -4.2629   -1.0348    0.0000 C   0  0  0  0  0  0  0  0  0  0  0  0
   -4.4339    0.4554    0.0000 C   0  0  0  0  0  0  0  0  0  0  0  0
   -5.8100    1.0524    0.0000 C   0  0  0  0  0  0  0  0  0  0  0  0
   -5.9810    2.5426    0.0000 C   0  0  0  0  0  0  0  0  0  0  0  0
   -4.7760    3.4359    0.0000 O   0  0  0  0  0  0  0  0  0  0  0  0
   -7.3571    3.1396    0.0000 O   0  0  0  0  0  0  0  0  0  0  0  0
   -2.8868   -1.6318    0.0000 C   0  0  0  0  0  0  0  0  0  0  0  0
   -2.5609   -3.0959    0.0000 C   0  0  0  0  0  0  0  0  0  0  0  0
   -1.0677   -3.2385    0.0000 C   0  0  0  0  0  0  0  0  0  0  0  0
   -0.4707   -1.8624    0.0000 C   0  0  0  0  0  0  0  0  0  0  0  0
    0.9514   -1.3853    0.0000 C   0  0  0  0  0  0  0  0  0  0  0  0
    2.0756   -2.3783    0.0000 C   0  0  0  0  0  0  0  0  0  0  0  0
    1.7778   -3.8484    0.0000 O   0  0  0  0  0  0  0  0  0  0  0  0
    3.4977   -1.9011    0.0000 C   0  0  0  0  0  0  0  0  0  0  0  0
    3.7956   -0.4310    0.0000 C   0  0  0  0  0  0  0  0  0  0  0  0
    5.2177    0.0461    0.0000 C   0  0  0  0  0  0  0  0  0  0  0  0
    5.5155    1.5163    0.0000 C   0  0  0  0  0  0  0  0  0  0  0  0
    6.9376    1.9934    0.0000 N   0  0  0  0  0  0  0  0  0  0  0  0
    8.0618    1.0004    0.0000 O   0  0  0  0  0  0  0  0  0  0  0  0
    4.3912    2.5093    0.0000 C   0  0  0  0  0  0  0  0  0  0  0  0
    2.9692    2.0321    0.0000 C   0  0  0  0  0  0  0  0  0  0  0  0
    2.6713    0.5620    0.0000 C   0  0  0  0  0  0  0  0  0  0  0  0
    1.5471    1.5550    0.0000 C   0  0  0  0  0  0  0  0  0  0  0  0
    1.2492    0.0849    0.0000 C   0  0  0  0  0  0  0  0  0  0  0  0
    0.1250    1.0779    0.0000 C   0  0  0  0  0  0  0  0  0  0  0  0
   -1.2971    0.6007    0.0000 C   0  0  0  0  0  0  0  0  0  0  0  0
   -1.5950   -0.8694    0.0000 C   0  0  0  0  0  0  0  0  0  0  0  0
   -2.8169    0.0007    0.0000 C   0  0  0  0  0  0  0  0  0  0  0  0
  2  1  1  6
  2  3  1  0
  3  4  1  0
  4  5  1  0
  5  6  2  0
  5  7  1  0
  2  8  1  0
  8  9  1  6
  9 10  1  0
 11 10  1  6
 11 12  1  0
 12 13  1  1
 13 14  1  6
 13 15  1  0
 16 15  1  1
 16 17  1  0
 17 18  1  0
 18 19  1  1
 19 20  1  0
 18 21  1  0
 21 22  1  0
 22 23  1  0
 23 24  1  6
 23 25  1  0
 25 26  1  6
 26 27  1  0
 27 28  1  0
 28 29  1  6
 28  8  1  0
 28 11  1  0
 25 12  1  0
 23 16  1  0
M  END
>  <MS_ID>  (1496) 
MS1557

>  <SMILES>  (1496) 
C[C@H](CCC(=O)O)[C@H]1CC[C@H]2[C@@H]3[C@@H](O)C[C@@H]4C[C@H](NO)CC[C@]4(C)[C@H]3CC[C@]12C

>  <Structure_dimension>  (1496) 
2D

$$$$
MS1558
     RDKit          2D

 36 40  0  0  0  0  0  0  0  0999 V2000
   -2.0625   -4.0210    0.0000 C   0  0  0  0  0  0  0  0  0  0  0  0
   -1.2935   -2.7331    0.0000 C   0  0  0  0  0  0  0  0  0  0  0  0
   -2.0243   -1.4232    0.0000 C   0  0  0  0  0  0  0  0  0  0  0  0
   -3.5241   -1.4011    0.0000 C   0  0  0  0  0  0  0  0  0  0  0  0
   -4.2549   -0.0912    0.0000 C   0  0  0  0  0  0  0  0  0  0  0  0
   -3.4858    1.1967    0.0000 O   0  0  0  0  0  0  0  0  0  0  0  0
   -5.7547   -0.0691    0.0000 N   0  0  0  0  0  0  0  0  0  0  0  0
   -6.4855    1.2409    0.0000 C   0  0  0  0  0  0  0  0  0  0  0  0
   -7.9854    1.2630    0.0000 C   0  0  0  0  0  0  0  0  0  0  0  0
   -8.7161    2.5729    0.0000 C   0  0  0  0  0  0  0  0  0  0  0  0
  -10.2160    2.5950    0.0000 C   0  0  0  0  0  0  0  0  0  0  0  0
  -10.9850    1.3071    0.0000 C   0  0  0  0  0  0  0  0  0  0  0  0
  -10.2542   -0.0028    0.0000 C   0  0  0  0  0  0  0  0  0  0  0  0
   -8.7544   -0.0249    0.0000 C   0  0  0  0  0  0  0  0  0  0  0  0
    0.2063   -2.7552    0.0000 C   0  0  0  0  0  0  0  0  0  0  0  0
    1.0701   -3.9816    0.0000 C   0  0  0  0  0  0  0  0  0  0  0  0
    2.5033   -3.5392    0.0000 C   0  0  0  0  0  0  0  0  0  0  0  0
    2.5254   -2.0393    0.0000 C   0  0  0  0  0  0  0  0  0  0  0  0
    3.6548   -1.0521    0.0000 C   0  0  0  0  0  0  0  0  0  0  0  0
    5.0744   -1.5366    0.0000 C   0  0  0  0  0  0  0  0  0  0  0  0
    5.3646   -3.0083    0.0000 O   0  0  0  0  0  0  0  0  0  0  0  0
    6.2038   -0.5495    0.0000 C   0  0  0  0  0  0  0  0  0  0  0  0
    7.6234   -1.0339    0.0000 O   0  0  0  0  0  0  0  0  0  0  0  0
    5.9135    0.9222    0.0000 C   0  0  0  0  0  0  0  0  0  0  0  0
    7.0429    1.9094    0.0000 C   0  0  0  0  0  0  0  0  0  0  0  0
    6.7527    3.3810    0.0000 C   0  0  0  0  0  0  0  0  0  0  0  0
    7.8821    4.3682    0.0000 O   0  0  0  0  0  0  0  0  0  0  0  0
    5.3331    3.8655    0.0000 C   0  0  0  0  0  0  0  0  0  0  0  0
    4.2037    2.8783    0.0000 C   0  0  0  0  0  0  0  0  0  0  0  0
    4.4939    1.4067    0.0000 C   0  0  0  0  0  0  0  0  0  0  0  0
    3.0743    1.8912    0.0000 C   0  0  0  0  0  0  0  0  0  0  0  0
    3.3646    0.4195    0.0000 C   0  0  0  0  0  0  0  0  0  0  0  0
    1.9450    0.9040    0.0000 C   0  0  0  0  0  0  0  0  0  0  0  0
    0.8156   -0.0832    0.0000 C   0  0  0  0  0  0  0  0  0  0  0  0
    1.1058   -1.5548    0.0000 C   0  0  0  0  0  0  0  0  0  0  0  0
   -0.3567   -1.2214    0.0000 C   0  0  0  0  0  0  0  0  0  0  0  0
  2  1  1  6
  2  3  1  0
  3  4  1  0
  4  5  1  0
  5  6  2  0
  5  7  1  0
  7  8  1  0
  8  9  1  0
  9 10  2  0
 10 11  1  0
 11 12  2  0
 12 13  1  0
 13 14  2  0
  2 15  1  0
 15 16  1  6
 16 17  1  0
 18 17  1  6
 18 19  1  0
 19 20  1  1
 20 21  1  1
 20 22  1  0
 22 23  1  1
 22 24  1  0
 24 25  1  1
 25 26  1  0
 26 27  1  1
 26 28  1  0
 28 29  1  0
 29 30  1  0
 30 31  1  6
 30 32  1  0
 32 33  1  6
 33 34  1  0
 34 35  1  0
 35 36  1  6
 14  9  1  0
 35 15  1  0
 35 18  1  0
 32 19  1  0
 30 24  1  0
M  END
>  <MS_ID>  (1497) 
MS1558

>  <SMILES>  (1497) 
C[C@H](CCC(=O)NCc1ccccc1)[C@H]1CC[C@H]2[C@@H]3[C@H](O)[C@H](O)[C@@H]4C[C@H](O)CC[C@]4(C)[C@H]3CC[C@]12C

>  <Structure_dimension>  (1497) 
2D

$$$$
MS1559
     RDKit          2D

 31 34  0  0  0  0  0  0  0  0999 V2000
   -4.9948   -2.3959    0.0000 C   0  0  0  0  0  0  0  0  0  0  0  0
   -3.9438   -1.3256    0.0000 C   0  0  0  0  0  0  0  0  0  0  0  0
   -4.3452    0.1197    0.0000 C   0  0  0  0  0  0  0  0  0  0  0  0
   -5.7976    0.4947    0.0000 C   0  0  0  0  0  0  0  0  0  0  0  0
   -6.1990    1.9400    0.0000 C   0  0  0  0  0  0  0  0  0  0  0  0
   -5.1480    3.0103    0.0000 O   0  0  0  0  0  0  0  0  0  0  0  0
   -7.6514    2.3150    0.0000 O   0  0  0  0  0  0  0  0  0  0  0  0
   -2.4914   -1.7006    0.0000 C   0  0  0  0  0  0  0  0  0  0  0  0
   -1.9412   -3.0960    0.0000 C   0  0  0  0  0  0  0  0  0  0  0  0
   -0.4440   -3.0039    0.0000 C   0  0  0  0  0  0  0  0  0  0  0  0
   -0.0690   -1.5515    0.0000 C   0  0  0  0  0  0  0  0  0  0  0  0
    1.2613   -0.8584    0.0000 C   0  0  0  0  0  0  0  0  0  0  0  0
    2.5267   -1.6638    0.0000 C   0  0  0  0  0  0  0  0  0  0  0  0
    2.4618   -3.1624    0.0000 C   0  0  0  0  0  0  0  0  0  0  0  0
    3.7272   -3.9679    0.0000 C   0  0  0  0  0  0  0  0  0  0  0  0
    3.6624   -5.4665    0.0000 O   0  0  0  0  0  0  0  0  0  0  0  0
    3.8569   -0.9707    0.0000 C   0  0  0  0  0  0  0  0  0  0  0  0
    3.9218    0.5279    0.0000 C   0  0  0  0  0  0  0  0  0  0  0  0
    5.2520    1.2210    0.0000 C   0  0  0  0  0  0  0  0  0  0  0  0
    5.3169    2.7196    0.0000 C   0  0  0  0  0  0  0  0  0  0  0  0
    6.6471    3.4128    0.0000 O   0  0  0  0  0  0  0  0  0  0  0  0
    4.0515    3.5251    0.0000 C   0  0  0  0  0  0  0  0  0  0  0  0
    2.7212    2.8319    0.0000 C   0  0  0  0  0  0  0  0  0  0  0  0
    2.6564    1.3334    0.0000 C   0  0  0  0  0  0  0  0  0  0  0  0
    1.3910    2.1388    0.0000 C   0  0  0  0  0  0  0  0  0  0  0  0
    1.3261    0.6402    0.0000 C   0  0  0  0  0  0  0  0  0  0  0  0
    0.0607    1.4457    0.0000 C   0  0  0  0  0  0  0  0  0  0  0  0
   -1.2695    0.7525    0.0000 C   0  0  0  0  0  0  0  0  0  0  0  0
   -2.5349    1.5580    0.0000 O   0  0  0  0  0  0  0  0  0  0  0  0
   -1.3344   -0.7460    0.0000 C   0  0  0  0  0  0  0  0  0  0  0  0
   -2.6770   -0.0773    0.0000 C   0  0  0  0  0  0  0  0  0  0  0  0
  2  1  1  6
  2  3  1  0
  3  4  1  0
  4  5  1  0
  5  6  2  0
  5  7  1  0
  2  8  1  0
  8  9  1  6
  9 10  1  0
 11 10  1  6
 11 12  1  0
 12 13  1  1
 13 14  1  6
 14 15  2  0
 15 16  1  0
 13 17  1  0
 18 17  1  1
 18 19  1  0
 19 20  1  0
 20 21  1  1
 20 22  1  0
 22 23  1  0
 23 24  1  0
 24 25  1  6
 24 26  1  0
 26 27  1  6
 27 28  1  0
 28 29  1  1
 28 30  1  0
 30 31  1  6
 30  8  1  0
 30 11  1  0
 26 12  1  0
 24 18  1  0
M  END
>  <MS_ID>  (1498) 
MS1559

>  <SMILES>  (1498) 
C[C@H](CCC(=O)O)[C@H]1CC[C@H]2[C@@H]3[C@@H](/C=C/O)C[C@@H]4C[C@H](O)CC[C@]4(C)[C@H]3C[C@H](O)[C@]12C

>  <Structure_dimension>  (1498) 
2D

$$$$
MS1560
     RDKit          2D

 35 38  0  0  0  0  0  0  0  0999 V2000
   -1.0855   -4.6255    0.0000 C   0  0  0  0  0  0  0  0  0  0  0  0
   -0.4580   -3.2630    0.0000 C   0  0  0  0  0  0  0  0  0  0  0  0
   -1.3242   -2.0384    0.0000 C   0  0  0  0  0  0  0  0  0  0  0  0
   -2.8178   -2.1761    0.0000 C   0  0  0  0  0  0  0  0  0  0  0  0
   -3.6840   -0.9515    0.0000 C   0  0  0  0  0  0  0  0  0  0  0  0
   -3.0564    0.4110    0.0000 O   0  0  0  0  0  0  0  0  0  0  0  0
   -5.1776   -1.0892    0.0000 O   0  0  0  0  0  0  0  0  0  0  0  0
   -6.0438    0.1354    0.0000 C   0  0  0  0  0  0  0  0  0  0  0  0
   -7.5374   -0.0023    0.0000 C   0  0  0  0  0  0  0  0  0  0  0  0
   -8.4036    1.2223    0.0000 C   0  0  0  0  0  0  0  0  0  0  0  0
   -9.8972    1.0846    0.0000 C   0  0  0  0  0  0  0  0  0  0  0  0
  -10.7634    2.3092    0.0000 C   0  0  0  0  0  0  0  0  0  0  0  0
  -10.1358    3.6717    0.0000 O   0  0  0  0  0  0  0  0  0  0  0  0
  -12.2570    2.1715    0.0000 O   0  0  0  0  0  0  0  0  0  0  0  0
    1.0356   -3.1253    0.0000 C   0  0  0  0  0  0  0  0  0  0  0  0
    2.0250   -4.2527    0.0000 C   0  0  0  0  0  0  0  0  0  0  0  0
    3.4030   -3.6601    0.0000 C   0  0  0  0  0  0  0  0  0  0  0  0
    3.2653   -2.1664    0.0000 C   0  0  0  0  0  0  0  0  0  0  0  0
    4.2831   -1.0646    0.0000 C   0  0  0  0  0  0  0  0  0  0  0  0
    5.7462   -1.3951    0.0000 C   0  0  0  0  0  0  0  0  0  0  0  0
    6.7640   -0.2933    0.0000 C   0  0  0  0  0  0  0  0  0  0  0  0
    6.3187    1.1391    0.0000 C   0  0  0  0  0  0  0  0  0  0  0  0
    7.3365    2.2409    0.0000 C   0  0  0  0  0  0  0  0  0  0  0  0
    6.8912    3.6733    0.0000 C   0  0  0  0  0  0  0  0  0  0  0  0
    7.9091    4.7751    0.0000 O   0  0  0  0  0  0  0  0  0  0  0  0
    5.4281    4.0038    0.0000 C   0  0  0  0  0  0  0  0  0  0  0  0
    4.4103    2.9020    0.0000 C   0  0  0  0  0  0  0  0  0  0  0  0
    4.8556    1.4696    0.0000 C   0  0  0  0  0  0  0  0  0  0  0  0
    3.3925    1.8002    0.0000 C   0  0  0  0  0  0  0  0  0  0  0  0
    3.8378    0.3678    0.0000 C   0  0  0  0  0  0  0  0  0  0  0  0
    2.3746    0.6983    0.0000 C   0  0  0  0  0  0  0  0  0  0  0  0
    1.3568   -0.4035    0.0000 C   0  0  0  0  0  0  0  0  0  0  0  0
   -0.1063   -0.0730    0.0000 O   0  0  0  0  0  0  0  0  0  0  0  0
    1.8021   -1.8359    0.0000 C   0  0  0  0  0  0  0  0  0  0  0  0
    0.3125   -1.6601    0.0000 C   0  0  0  0  0  0  0  0  0  0  0  0
  2  1  1  6
  2  3  1  0
  3  4  1  0
  4  5  1  0
  5  6  2  0
  5  7  1  0
  7  8  1  0
  8  9  1  0
  9 10  1  0
 10 11  1  0
 11 12  1  0
 12 13  2  0
 12 14  1  0
  2 15  1  0
 15 16  1  6
 16 17  1  0
 18 17  1  6
 18 19  1  0
 19 20  1  1
 20 21  1  0
 22 21  1  1
 22 23  1  0
 23 24  1  0
 24 25  1  1
 24 26  1  0
 26 27  1  0
 27 28  1  0
 28 29  1  6
 28 30  1  0
 30 31  1  6
 31 32  1  0
 32 33  1  1
 32 34  1  0
 34 35  1  6
 34 15  1  0
 34 18  1  0
 30 19  1  0
 28 22  1  0
M  END
>  <MS_ID>  (1499) 
MS1560

>  <SMILES>  (1499) 
C[C@H](CCC(=O)OCCCCC(=O)O)[C@H]1CC[C@H]2[C@@H]3CC[C@@H]4C[C@H](O)CC[C@]4(C)[C@H]3C[C@H](O)[C@]12C

>  <Structure_dimension>  (1499) 
2D

$$$$
MS1562
     RDKit          2D

 35 39  0  0  0  0  0  0  0  0999 V2000
   -2.8974   -3.4633    0.0000 C   0  0  0  0  0  0  0  0  0  0  0  0
   -1.9922   -2.2672    0.0000 C   0  0  0  0  0  0  0  0  0  0  0  0
   -2.5755   -0.8852    0.0000 C   0  0  0  0  0  0  0  0  0  0  0  0
   -4.0640   -0.6994    0.0000 C   0  0  0  0  0  0  0  0  0  0  0  0
   -4.6473    0.6825    0.0000 C   0  0  0  0  0  0  0  0  0  0  0  0
   -3.7421    1.8787    0.0000 O   0  0  0  0  0  0  0  0  0  0  0  0
   -6.1357    0.8684    0.0000 C   0  0  0  0  0  0  0  0  0  0  0  0
   -6.7190    2.2503    0.0000 C   0  0  0  0  0  0  0  0  0  0  0  0
   -8.2075    2.4361    0.0000 C   0  0  0  0  0  0  0  0  0  0  0  0
   -9.1126    1.2400    0.0000 C   0  0  0  0  0  0  0  0  0  0  0  0
  -10.6011    1.4258    0.0000 O   0  0  0  0  0  0  0  0  0  0  0  0
   -8.5293   -0.1420    0.0000 O   0  0  0  0  0  0  0  0  0  0  0  0
   -7.0409   -0.3278    0.0000 C   0  0  0  0  0  0  0  0  0  0  0  0
   -0.5038   -2.4530    0.0000 C   0  0  0  0  0  0  0  0  0  0  0  0
    0.2208   -3.7664    0.0000 C   0  0  0  0  0  0  0  0  0  0  0  0
    1.6938   -3.4831    0.0000 C   0  0  0  0  0  0  0  0  0  0  0  0
    1.8796   -1.9947    0.0000 C   0  0  0  0  0  0  0  0  0  0  0  0
    3.1101   -1.1368    0.0000 C   0  0  0  0  0  0  0  0  0  0  0  0
    4.4682   -1.7735    0.0000 C   0  0  0  0  0  0  0  0  0  0  0  0
    4.5960   -3.2680    0.0000 O   0  0  0  0  0  0  0  0  0  0  0  0
    5.6987   -0.9156    0.0000 C   0  0  0  0  0  0  0  0  0  0  0  0
    7.0569   -1.5523    0.0000 O   0  0  0  0  0  0  0  0  0  0  0  0
    5.5710    0.5789    0.0000 C   0  0  0  0  0  0  0  0  0  0  0  0
    6.8015    1.4368    0.0000 C   0  0  0  0  0  0  0  0  0  0  0  0
    6.6738    2.9314    0.0000 C   0  0  0  0  0  0  0  0  0  0  0  0
    7.9042    3.7893    0.0000 O   0  0  0  0  0  0  0  0  0  0  0  0
    5.3156    3.5681    0.0000 C   0  0  0  0  0  0  0  0  0  0  0  0
    4.0851    2.7102    0.0000 C   0  0  0  0  0  0  0  0  0  0  0  0
    4.2128    1.2156    0.0000 C   0  0  0  0  0  0  0  0  0  0  0  0
    2.8546    1.8523    0.0000 C   0  0  0  0  0  0  0  0  0  0  0  0
    2.9824    0.3577    0.0000 C   0  0  0  0  0  0  0  0  0  0  0  0
    1.6242    0.9944    0.0000 C   0  0  0  0  0  0  0  0  0  0  0  0
    0.3937    0.1365    0.0000 C   0  0  0  0  0  0  0  0  0  0  0  0
    0.5214   -1.3580    0.0000 C   0  0  0  0  0  0  0  0  0  0  0  0
   -0.8959   -0.8668    0.0000 C   0  0  0  0  0  0  0  0  0  0  0  0
  2  1  1  6
  2  3  1  0
  3  4  1  0
  4  5  1  0
  5  6  2  0
  5  7  1  0
  7  8  1  0
  8  9  2  0
  9 10  1  0
 10 11  2  0
 10 12  1  0
 12 13  1  0
  2 14  1  0
 14 15  1  6
 15 16  1  0
 17 16  1  6
 17 18  1  0
 18 19  1  1
 19 20  1  1
 19 21  1  0
 21 22  1  1
 21 23  1  0
 23 24  1  1
 24 25  1  0
 25 26  1  1
 25 27  1  0
 27 28  1  0
 28 29  1  0
 29 30  1  6
 29 31  1  0
 31 32  1  6
 32 33  1  0
 33 34  1  0
 34 35  1  6
 13  7  2  0
 34 14  1  0
 34 17  1  0
 31 18  1  0
 29 23  1  0
M  END
>  <MS_ID>  (1500) 
MS1562

>  <SMILES>  (1500) 
C[C@H](CCC(=O)c1ccc(=O)oc1)[C@H]1CC[C@H]2[C@@H]3[C@H](O)[C@H](O)[C@@H]4C[C@H](O)CC[C@]4(C)[C@H]3CC[C@]12C

>  <Structure_dimension>  (1500) 
2D

$$$$
MS1563
     RDKit          2D

 29 32  0  0  0  0  0  0  0  0999 V2000
   -8.8586    2.7540    0.0000 C   0  0  0  0  0  0  0  0  0  0  0  0
   -7.3739    2.5406    0.0000 C   0  0  0  0  0  0  0  0  0  0  0  0
   -6.8164    1.1480    0.0000 O   0  0  0  0  0  0  0  0  0  0  0  0
   -5.3316    0.9346    0.0000 C   0  0  0  0  0  0  0  0  0  0  0  0
   -4.4044    2.1137    0.0000 O   0  0  0  0  0  0  0  0  0  0  0  0
   -4.7741   -0.4579    0.0000 C   0  0  0  0  0  0  0  0  0  0  0  0
   -3.2894   -0.6714    0.0000 C   0  0  0  0  0  0  0  0  0  0  0  0
   -2.7318   -2.0639    0.0000 C   0  0  0  0  0  0  0  0  0  0  0  0
   -3.6590   -3.2430    0.0000 C   0  0  0  0  0  0  0  0  0  0  0  0
   -1.2471   -2.2773    0.0000 C   0  0  0  0  0  0  0  0  0  0  0  0
   -0.5471   -3.6040    0.0000 C   0  0  0  0  0  0  0  0  0  0  0  0
    0.9310   -3.3481    0.0000 C   0  0  0  0  0  0  0  0  0  0  0  0
    1.1444   -1.8634    0.0000 C   0  0  0  0  0  0  0  0  0  0  0  0
    2.3906   -1.0285    0.0000 C   0  0  0  0  0  0  0  0  0  0  0  0
    3.7367   -1.6903    0.0000 C   0  0  0  0  0  0  0  0  0  0  0  0
    3.8366   -3.1870    0.0000 O   0  0  0  0  0  0  0  0  0  0  0  0
    4.9829   -0.8554    0.0000 C   0  0  0  0  0  0  0  0  0  0  0  0
    4.8830    0.6412    0.0000 C   0  0  0  0  0  0  0  0  0  0  0  0
    6.1292    1.4761    0.0000 C   0  0  0  0  0  0  0  0  0  0  0  0
    6.0292    2.9728    0.0000 C   0  0  0  0  0  0  0  0  0  0  0  0
    4.6831    3.6346    0.0000 C   0  0  0  0  0  0  0  0  0  0  0  0
    3.4369    2.7997    0.0000 C   0  0  0  0  0  0  0  0  0  0  0  0
    3.5369    1.3030    0.0000 C   0  0  0  0  0  0  0  0  0  0  0  0
    2.1907    1.9648    0.0000 C   0  0  0  0  0  0  0  0  0  0  0  0
    2.2907    0.4681    0.0000 C   0  0  0  0  0  0  0  0  0  0  0  0
    0.9445    1.1299    0.0000 C   0  0  0  0  0  0  0  0  0  0  0  0
   -0.3016    0.2951    0.0000 C   0  0  0  0  0  0  0  0  0  0  0  0
   -0.2017   -1.2016    0.0000 C   0  0  0  0  0  0  0  0  0  0  0  0
   -1.6096   -0.6841    0.0000 C   0  0  0  0  0  0  0  0  0  0  0  0
  1  2  1  0
  2  3  1  0
  3  4  1  0
  4  5  2  0
  4  6  1  0
  6  7  1  0
  7  8  1  0
  8  9  1  6
  8 10  1  0
 10 11  1  6
 11 12  1  0
 13 12  1  6
 13 14  1  0
 14 15  1  1
 15 16  1  1
 15 17  1  0
 18 17  1  1
 18 19  1  0
 19 20  1  0
 20 21  1  0
 21 22  1  0
 22 23  1  0
 23 24  1  6
 23 25  1  0
 25 26  1  6
 26 27  1  0
 27 28  1  0
 28 29  1  6
 28 10  1  0
 28 13  1  0
 25 14  1  0
 23 18  1  0
M  END
>  <MS_ID>  (1501) 
MS1563

>  <SMILES>  (1501) 
CCOC(=O)CC[C@@H](C)[C@H]1CC[C@H]2[C@@H]3[C@H](O)C[C@@H]4CCCC[C@]4(C)[C@H]3CC[C@]12C

>  <Structure_dimension>  (1501) 
2D

$$$$
MS1564
     RDKit          2D

 33 36  0  0  0  0  0  0  0  0999 V2000
   -2.6051   -3.9297    0.0000 C   0  0  0  0  0  0  0  0  0  0  0  0
   -1.7943   -2.6677    0.0000 C   0  0  0  0  0  0  0  0  0  0  0  0
   -2.4819   -1.3345    0.0000 C   0  0  0  0  0  0  0  0  0  0  0  0
   -3.9802   -1.2634    0.0000 C   0  0  0  0  0  0  0  0  0  0  0  0
   -4.6677    0.0698    0.0000 C   0  0  0  0  0  0  0  0  0  0  0  0
   -3.8569    1.3318    0.0000 O   0  0  0  0  0  0  0  0  0  0  0  0
   -6.1660    0.1409    0.0000 C   0  0  0  0  0  0  0  0  0  0  0  0
   -6.8536    1.4741    0.0000 O   0  0  0  0  0  0  0  0  0  0  0  0
   -8.3519    1.5453    0.0000 C   0  0  0  0  0  0  0  0  0  0  0  0
   -9.1627    0.2833    0.0000 O   0  0  0  0  0  0  0  0  0  0  0  0
   -9.0394    2.8784    0.0000 C   0  0  0  0  0  0  0  0  0  0  0  0
  -10.5377    2.9496    0.0000 O   0  0  0  0  0  0  0  0  0  0  0  0
   -0.2960   -2.7388    0.0000 C   0  0  0  0  0  0  0  0  0  0  0  0
    0.5271   -3.9928    0.0000 C   0  0  0  0  0  0  0  0  0  0  0  0
    1.9741   -3.5975    0.0000 C   0  0  0  0  0  0  0  0  0  0  0  0
    2.0452   -2.0992    0.0000 C   0  0  0  0  0  0  0  0  0  0  0  0
    3.2063   -1.1495    0.0000 C   0  0  0  0  0  0  0  0  0  0  0  0
    4.6093   -1.6802    0.0000 C   0  0  0  0  0  0  0  0  0  0  0  0
    4.8512   -3.1605    0.0000 O   0  0  0  0  0  0  0  0  0  0  0  0
    5.7704   -0.7305    0.0000 C   0  0  0  0  0  0  0  0  0  0  0  0
    5.5284    0.7499    0.0000 C   0  0  0  0  0  0  0  0  0  0  0  0
    6.6895    1.6996    0.0000 C   0  0  0  0  0  0  0  0  0  0  0  0
    6.4476    3.1800    0.0000 C   0  0  0  0  0  0  0  0  0  0  0  0
    7.6087    4.1296    0.0000 O   0  0  0  0  0  0  0  0  0  0  0  0
    5.0446    3.7106    0.0000 C   0  0  0  0  0  0  0  0  0  0  0  0
    3.8835    2.7609    0.0000 C   0  0  0  0  0  0  0  0  0  0  0  0
    4.1254    1.2806    0.0000 C   0  0  0  0  0  0  0  0  0  0  0  0
    2.7225    1.8113    0.0000 C   0  0  0  0  0  0  0  0  0  0  0  0
    2.9644    0.3309    0.0000 C   0  0  0  0  0  0  0  0  0  0  0  0
    1.5614    0.8616    0.0000 C   0  0  0  0  0  0  0  0  0  0  0  0
    0.4003   -0.0881    0.0000 C   0  0  0  0  0  0  0  0  0  0  0  0
    0.6422   -1.5685    0.0000 C   0  0  0  0  0  0  0  0  0  0  0  0
   -0.8086   -1.1874    0.0000 C   0  0  0  0  0  0  0  0  0  0  0  0
  2  1  1  6
  2  3  1  0
  3  4  1  0
  4  5  1  0
  5  6  2  0
  5  7  1  0
  7  8  1  0
  8  9  1  0
  9 10  2  0
  9 11  1  0
 11 12  1  0
  2 13  1  0
 13 14  1  6
 14 15  1  0
 16 15  1  6
 16 17  1  0
 17 18  1  1
 18 19  1  1
 18 20  1  0
 21 20  1  1
 21 22  1  0
 22 23  1  0
 23 24  1  1
 23 25  1  0
 25 26  1  0
 26 27  1  0
 27 28  1  6
 27 29  1  0
 29 30  1  6
 30 31  1  0
 31 32  1  0
 32 33  1  6
 32 13  1  0
 32 16  1  0
 29 17  1  0
 27 21  1  0
M  END
>  <MS_ID>  (1502) 
MS1564

>  <SMILES>  (1502) 
C[C@H](CCC(=O)COC(=O)CO)[C@H]1CC[C@H]2[C@@H]3[C@H](O)C[C@@H]4C[C@H](O)CC[C@]4(C)[C@H]3CC[C@]12C

>  <Structure_dimension>  (1502) 
2D

$$$$
MS1565
     RDKit          2D

 39 44  0  0  0  0  0  0  0  0999 V2000
   -0.5109   -4.8154    0.0000 C   0  0  0  0  0  0  0  0  0  0  0  0
    0.0224   -3.4134    0.0000 C   0  0  0  0  0  0  0  0  0  0  0  0
   -0.9252   -2.2506    0.0000 C   0  0  0  0  0  0  0  0  0  0  0  0
   -2.4060   -2.4897    0.0000 C   0  0  0  0  0  0  0  0  0  0  0  0
   -3.3535   -1.3269    0.0000 C   0  0  0  0  0  0  0  0  0  0  0  0
   -2.8202    0.0751    0.0000 O   0  0  0  0  0  0  0  0  0  0  0  0
   -4.8343   -1.5660    0.0000 O   0  0  0  0  0  0  0  0  0  0  0  0
   -5.7818   -0.4032    0.0000 C   0  0  0  0  0  0  0  0  0  0  0  0
   -5.2485    0.9988    0.0000 C   0  0  0  0  0  0  0  0  0  0  0  0
   -6.1960    2.1617    0.0000 C   0  0  0  0  0  0  0  0  0  0  0  0
   -7.6769    1.9225    0.0000 C   0  0  0  0  0  0  0  0  0  0  0  0
   -8.6244    3.0854    0.0000 C   0  0  0  0  0  0  0  0  0  0  0  0
  -10.1052    2.8462    0.0000 C   0  0  0  0  0  0  0  0  0  0  0  0
  -10.6385    1.4442    0.0000 C   0  0  0  0  0  0  0  0  0  0  0  0
   -9.6910    0.2814    0.0000 C   0  0  0  0  0  0  0  0  0  0  0  0
   -8.2102    0.5205    0.0000 C   0  0  0  0  0  0  0  0  0  0  0  0
   -7.2626   -0.6423    0.0000 C   0  0  0  0  0  0  0  0  0  0  0  0
    1.5032   -3.1743    0.0000 C   0  0  0  0  0  0  0  0  0  0  0  0
    2.5670   -4.2317    0.0000 C   0  0  0  0  0  0  0  0  0  0  0  0
    3.9015   -3.5466    0.0000 C   0  0  0  0  0  0  0  0  0  0  0  0
    3.6623   -2.0658    0.0000 C   0  0  0  0  0  0  0  0  0  0  0  0
    4.6028   -0.8973    0.0000 C   0  0  0  0  0  0  0  0  0  0  0  0
    6.0850   -1.1274    0.0000 C   0  0  0  0  0  0  0  0  0  0  0  0
    6.6268   -2.5261    0.0000 O   0  0  0  0  0  0  0  0  0  0  0  0
    7.0254    0.0412    0.0000 C   0  0  0  0  0  0  0  0  0  0  0  0
    6.4836    1.4399    0.0000 C   0  0  0  0  0  0  0  0  0  0  0  0
    7.4241    2.6085    0.0000 C   0  0  0  0  0  0  0  0  0  0  0  0
    6.8823    4.0072    0.0000 C   0  0  0  0  0  0  0  0  0  0  0  0
    7.8227    5.1758    0.0000 O   0  0  0  0  0  0  0  0  0  0  0  0
    5.4000    4.2374    0.0000 C   0  0  0  0  0  0  0  0  0  0  0  0
    4.4596    3.0688    0.0000 C   0  0  0  0  0  0  0  0  0  0  0  0
    5.0014    1.6701    0.0000 C   0  0  0  0  0  0  0  0  0  0  0  0
    3.5192    1.9002    0.0000 C   0  0  0  0  0  0  0  0  0  0  0  0
    4.0610    0.5015    0.0000 C   0  0  0  0  0  0  0  0  0  0  0  0
    2.5787    0.7316    0.0000 C   0  0  0  0  0  0  0  0  0  0  0  0
    1.6383   -0.4370    0.0000 C   0  0  0  0  0  0  0  0  0  0  0  0
    0.1560   -0.2068    0.0000 O   0  0  0  0  0  0  0  0  0  0  0  0
    2.1801   -1.8357    0.0000 C   0  0  0  0  0  0  0  0  0  0  0  0
    0.6819   -1.7617    0.0000 C   0  0  0  0  0  0  0  0  0  0  0  0
  2  1  1  6
  2  3  1  0
  3  4  1  0
  4  5  1  0
  5  6  2  0
  5  7  1  0
  7  8  1  0
  8  9  2  0
  9 10  1  0
 10 11  2  0
 11 12  1  0
 12 13  2  0
 13 14  1  0
 14 15  2  0
 15 16  1  0
 16 17  2  0
  2 18  1  0
 18 19  1  6
 19 20  1  0
 21 20  1  6
 21 22  1  0
 22 23  1  1
 23 24  1  1
 23 25  1  0
 26 25  1  1
 26 27  1  0
 27 28  1  0
 28 29  1  1
 28 30  1  0
 30 31  1  0
 31 32  1  0
 32 33  1  6
 32 34  1  0
 34 35  1  6
 35 36  1  0
 36 37  1  1
 36 38  1  0
 38 39  1  6
 17  8  1  0
 38 18  1  0
 16 11  1  0
 38 21  1  0
 34 22  1  0
 32 26  1  0
M  END
>  <MS_ID>  (1503) 
MS1565

>  <SMILES>  (1503) 
C[C@H](CCC(=O)Oc1ccc2ccccc2c1)[C@H]1CC[C@H]2[C@@H]3[C@H](O)C[C@@H]4C[C@H](O)CC[C@]4(C)[C@H]3C[C@H](O)[C@]12C

>  <Structure_dimension>  (1503) 
2D

$$$$
MS1566
     RDKit          2D

 37 41  0  0  0  0  0  0  0  0999 V2000
   -1.6664   -4.0814    0.0000 C   0  0  0  0  0  0  0  0  0  0  0  0
   -0.9160   -2.7826    0.0000 C   0  0  0  0  0  0  0  0  0  0  0  0
   -1.6656   -1.4833    0.0000 C   0  0  0  0  0  0  0  0  0  0  0  0
   -3.1656   -1.4829    0.0000 C   0  0  0  0  0  0  0  0  0  0  0  0
   -3.9152   -0.1836    0.0000 C   0  0  0  0  0  0  0  0  0  0  0  0
   -3.1649    1.1152    0.0000 O   0  0  0  0  0  0  0  0  0  0  0  0
   -5.4152   -0.1832    0.0000 C   0  0  0  0  0  0  0  0  0  0  0  0
   -6.1649    1.1160    0.0000 C   0  0  0  0  0  0  0  0  0  0  0  0
   -7.6649    1.1165    0.0000 C   0  0  0  0  0  0  0  0  0  0  0  0
   -8.4145    2.4157    0.0000 C   0  0  0  0  0  0  0  0  0  0  0  0
   -9.9145    2.4162    0.0000 C   0  0  0  0  0  0  0  0  0  0  0  0
  -10.6649    1.1173    0.0000 C   0  0  0  0  0  0  0  0  0  0  0  0
  -12.1649    1.1178    0.0000 O   0  0  0  0  0  0  0  0  0  0  0  0
   -9.9152   -0.1819    0.0000 C   0  0  0  0  0  0  0  0  0  0  0  0
   -8.4152   -0.1823    0.0000 C   0  0  0  0  0  0  0  0  0  0  0  0
    0.5840   -2.7830    0.0000 C   0  0  0  0  0  0  0  0  0  0  0  0
    1.4654   -3.9968    0.0000 C   0  0  0  0  0  0  0  0  0  0  0  0
    2.8921   -3.5337    0.0000 C   0  0  0  0  0  0  0  0  0  0  0  0
    2.8925   -2.0337    0.0000 C   0  0  0  0  0  0  0  0  0  0  0  0
    4.0075   -1.0303    0.0000 C   0  0  0  0  0  0  0  0  0  0  0  0
    5.4340   -1.4942    0.0000 C   0  0  0  0  0  0  0  0  0  0  0  0
    5.7454   -2.9616    0.0000 O   0  0  0  0  0  0  0  0  0  0  0  0
    6.5490   -0.4909    0.0000 C   0  0  0  0  0  0  0  0  0  0  0  0
    7.9754   -0.9548    0.0000 O   0  0  0  0  0  0  0  0  0  0  0  0
    6.2375    0.9764    0.0000 C   0  0  0  0  0  0  0  0  0  0  0  0
    7.3525    1.9798    0.0000 C   0  0  0  0  0  0  0  0  0  0  0  0
    7.0411    3.4471    0.0000 C   0  0  0  0  0  0  0  0  0  0  0  0
    8.1561    4.4505    0.0000 O   0  0  0  0  0  0  0  0  0  0  0  0
    5.6146    3.9111    0.0000 C   0  0  0  0  0  0  0  0  0  0  0  0
    4.4996    2.9077    0.0000 C   0  0  0  0  0  0  0  0  0  0  0  0
    4.8111    1.4404    0.0000 C   0  0  0  0  0  0  0  0  0  0  0  0
    3.3846    1.9043    0.0000 C   0  0  0  0  0  0  0  0  0  0  0  0
    3.6961    0.4370    0.0000 C   0  0  0  0  0  0  0  0  0  0  0  0
    2.2696    0.9009    0.0000 C   0  0  0  0  0  0  0  0  0  0  0  0
    1.1546   -0.1024    0.0000 C   0  0  0  0  0  0  0  0  0  0  0  0
    1.4661   -1.5697    0.0000 C   0  0  0  0  0  0  0  0  0  0  0  0
   -0.0011   -1.2575    0.0000 C   0  0  0  0  0  0  0  0  0  0  0  0
  2  1  1  6
  2  3  1  0
  3  4  1  0
  4  5  1  0
  5  6  2  0
  5  7  1  0
  7  8  1  0
  8  9  1  0
  9 10  2  0
 10 11  1  0
 11 12  2  0
 12 13  1  0
 12 14  1  0
 14 15  2  0
  2 16  1  0
 16 17  1  6
 17 18  1  0
 19 18  1  6
 19 20  1  0
 20 21  1  1
 21 22  1  1
 21 23  1  0
 23 24  1  1
 23 25  1  0
 25 26  1  1
 26 27  1  0
 27 28  1  1
 27 29  1  0
 29 30  1  0
 30 31  1  0
 31 32  1  6
 31 33  1  0
 33 34  1  6
 34 35  1  0
 35 36  1  0
 36 37  1  6
 15  9  1  0
 36 16  1  0
 36 19  1  0
 33 20  1  0
 31 25  1  0
M  END
>  <MS_ID>  (1504) 
MS1566

>  <SMILES>  (1504) 
C[C@H](CCC(=O)CCc1ccc(O)cc1)[C@H]1CC[C@H]2[C@@H]3[C@H](O)[C@H](O)[C@@H]4C[C@H](O)CC[C@]4(C)[C@H]3CC[C@]12C

>  <Structure_dimension>  (1504) 
2D

$$$$
MS1567
     RDKit          2D

 33 37  0  0  0  0  0  0  0  0999 V2000
   -3.4505   -3.2444    0.0000 C   0  0  0  0  0  0  0  0  0  0  0  0
   -2.4721   -2.1074    0.0000 C   0  0  0  0  0  0  0  0  0  0  0  0
   -2.9676   -0.6916    0.0000 C   0  0  0  0  0  0  0  0  0  0  0  0
   -4.4415   -0.4128    0.0000 C   0  0  0  0  0  0  0  0  0  0  0  0
   -4.9370    1.0030    0.0000 C   0  0  0  0  0  0  0  0  0  0  0  0
   -3.9586    2.1400    0.0000 O   0  0  0  0  0  0  0  0  0  0  0  0
   -6.4109    1.2817    0.0000 N   0  0  0  0  0  0  0  0  0  0  0  0
   -7.5027    0.2532    0.0000 C   0  0  0  0  0  0  0  0  0  0  0  0
   -8.8183    0.9738    0.0000 C   0  0  0  0  0  0  0  0  0  0  0  0
   -8.5395    2.4477    0.0000 C   0  0  0  0  0  0  0  0  0  0  0  0
   -7.0517    2.6380    0.0000 N   0  0  0  0  0  0  0  0  0  0  0  0
   -0.9983   -2.3862    0.0000 C   0  0  0  0  0  0  0  0  0  0  0  0
   -0.3575   -3.7424    0.0000 C   0  0  0  0  0  0  0  0  0  0  0  0
    1.1304   -3.5521    0.0000 C   0  0  0  0  0  0  0  0  0  0  0  0
    1.4092   -2.0783    0.0000 C   0  0  0  0  0  0  0  0  0  0  0  0
    2.6910   -1.2992    0.0000 C   0  0  0  0  0  0  0  0  0  0  0  0
    4.0066   -2.0198    0.0000 C   0  0  0  0  0  0  0  0  0  0  0  0
    4.0403   -3.5194    0.0000 O   0  0  0  0  0  0  0  0  0  0  0  0
    5.2884   -1.2408    0.0000 C   0  0  0  0  0  0  0  0  0  0  0  0
    5.2547    0.2589    0.0000 C   0  0  0  0  0  0  0  0  0  0  0  0
    6.5365    1.0379    0.0000 C   0  0  0  0  0  0  0  0  0  0  0  0
    6.5028    2.5375    0.0000 C   0  0  0  0  0  0  0  0  0  0  0  0
    7.7846    3.3166    0.0000 O   0  0  0  0  0  0  0  0  0  0  0  0
    5.1872    3.2581    0.0000 C   0  0  0  0  0  0  0  0  0  0  0  0
    3.9054    2.4791    0.0000 C   0  0  0  0  0  0  0  0  0  0  0  0
    3.9391    0.9794    0.0000 C   0  0  0  0  0  0  0  0  0  0  0  0
    2.6235    1.7000    0.0000 C   0  0  0  0  0  0  0  0  0  0  0  0
    2.6573    0.2004    0.0000 C   0  0  0  0  0  0  0  0  0  0  0  0
    1.3417    0.9210    0.0000 C   0  0  0  0  0  0  0  0  0  0  0  0
    0.0598    0.1420    0.0000 C   0  0  0  0  0  0  0  0  0  0  0  0
   -1.2557    0.8625    0.0000 O   0  0  0  0  0  0  0  0  0  0  0  0
    0.0936   -1.3577    0.0000 C   0  0  0  0  0  0  0  0  0  0  0  0
   -1.2901   -0.7785    0.0000 C   0  0  0  0  0  0  0  0  0  0  0  0
  2  1  1  6
  2  3  1  0
  3  4  1  0
  4  5  1  0
  5  6  2  0
  5  7  1  0
  7  8  1  0
  8  9  2  0
  9 10  1  0
 10 11  2  0
  2 12  1  0
 12 13  1  6
 13 14  1  0
 15 14  1  6
 15 16  1  0
 16 17  1  1
 17 18  1  1
 17 19  1  0
 20 19  1  1
 20 21  1  0
 21 22  1  0
 22 23  1  1
 22 24  1  0
 24 25  1  0
 25 26  1  0
 26 27  1  6
 26 28  1  0
 28 29  1  6
 29 30  1  0
 30 31  1  1
 30 32  1  0
 32 33  1  6
 11  7  1  0
 32 12  1  0
 32 15  1  0
 28 16  1  0
 26 20  1  0
M  END
>  <MS_ID>  (1505) 
MS1567

>  <SMILES>  (1505) 
C[C@H](CCC(=O)n1cccn1)[C@H]1CC[C@H]2[C@@H]3[C@H](O)C[C@@H]4C[C@H](O)CC[C@]4(C)[C@H]3C[C@H](O)[C@]12C

>  <Structure_dimension>  (1505) 
2D

$$$$
MS1568
     RDKit          2D

 34 37  0  0  0  0  0  0  0  0999 V2000
   -2.6957   -4.1040    0.0000 C   0  0  0  0  0  0  0  0  0  0  0  0
   -1.9110   -2.8256    0.0000 C   0  0  0  0  0  0  0  0  0  0  0  0
   -2.6258   -1.5068    0.0000 C   0  0  0  0  0  0  0  0  0  0  0  0
   -4.1252   -1.4664    0.0000 C   0  0  0  0  0  0  0  0  0  0  0  0
   -4.8400   -0.1477    0.0000 C   0  0  0  0  0  0  0  0  0  0  0  0
   -4.0553    1.1307    0.0000 O   0  0  0  0  0  0  0  0  0  0  0  0
   -6.3394   -0.1073    0.0000 O   0  0  0  0  0  0  0  0  0  0  0  0
   -7.0542    1.2115    0.0000 C   0  0  0  0  0  0  0  0  0  0  0  0
   -8.5536    1.2519    0.0000 C   0  0  0  0  0  0  0  0  0  0  0  0
   -9.2684    2.5706    0.0000 O   0  0  0  0  0  0  0  0  0  0  0  0
   -6.2695    2.4898    0.0000 C   0  0  0  0  0  0  0  0  0  0  0  0
   -6.9842    3.8086    0.0000 O   0  0  0  0  0  0  0  0  0  0  0  0
   -0.4115   -2.8660    0.0000 C   0  0  0  0  0  0  0  0  0  0  0  0
    0.4371   -4.1028    0.0000 C   0  0  0  0  0  0  0  0  0  0  0  0
    1.8757   -3.6778    0.0000 C   0  0  0  0  0  0  0  0  0  0  0  0
    1.9161   -2.1784    0.0000 C   0  0  0  0  0  0  0  0  0  0  0  0
    3.0574   -1.2051    0.0000 C   0  0  0  0  0  0  0  0  0  0  0  0
    4.4710   -1.7068    0.0000 C   0  0  0  0  0  0  0  0  0  0  0  0
    4.7433   -3.1819    0.0000 O   0  0  0  0  0  0  0  0  0  0  0  0
    5.6123   -0.7335    0.0000 C   0  0  0  0  0  0  0  0  0  0  0  0
    5.3401    0.7416    0.0000 C   0  0  0  0  0  0  0  0  0  0  0  0
    6.4814    1.7149    0.0000 C   0  0  0  0  0  0  0  0  0  0  0  0
    6.2092    3.1900    0.0000 C   0  0  0  0  0  0  0  0  0  0  0  0
    7.3505    4.1633    0.0000 O   0  0  0  0  0  0  0  0  0  0  0  0
    4.7956    3.6917    0.0000 C   0  0  0  0  0  0  0  0  0  0  0  0
    3.6542    2.7184    0.0000 C   0  0  0  0  0  0  0  0  0  0  0  0
    3.9265    1.2433    0.0000 C   0  0  0  0  0  0  0  0  0  0  0  0
    2.5129    1.7451    0.0000 C   0  0  0  0  0  0  0  0  0  0  0  0
    2.7852    0.2700    0.0000 C   0  0  0  0  0  0  0  0  0  0  0  0
    1.3716    0.7718    0.0000 C   0  0  0  0  0  0  0  0  0  0  0  0
    0.2302   -0.2015    0.0000 C   0  0  0  0  0  0  0  0  0  0  0  0
   -1.1833    0.3002    0.0000 O   0  0  0  0  0  0  0  0  0  0  0  0
    0.5025   -1.6766    0.0000 C   0  0  0  0  0  0  0  0  0  0  0  0
   -0.9558   -1.3254    0.0000 C   0  0  0  0  0  0  0  0  0  0  0  0
  2  1  1  6
  2  3  1  0
  3  4  1  0
  4  5  1  0
  5  6  2  0
  5  7  1  0
  7  8  1  0
  8  9  1  0
  9 10  1  0
  8 11  1  0
 11 12  1  0
  2 13  1  0
 13 14  1  6
 14 15  1  0
 16 15  1  6
 16 17  1  0
 17 18  1  1
 18 19  1  1
 18 20  1  0
 21 20  1  1
 21 22  1  0
 22 23  1  0
 23 24  1  1
 23 25  1  0
 25 26  1  0
 26 27  1  0
 27 28  1  6
 27 29  1  0
 29 30  1  6
 30 31  1  0
 31 32  1  1
 31 33  1  0
 33 34  1  6
 33 13  1  0
 33 16  1  0
 29 17  1  0
 27 21  1  0
M  END
>  <MS_ID>  (1506) 
MS1568

>  <SMILES>  (1506) 
C[C@H](CCC(=O)OC(CO)CO)[C@H]1CC[C@H]2[C@@H]3[C@H](O)C[C@@H]4C[C@H](O)CC[C@]4(C)[C@H]3C[C@H](O)[C@]12C

>  <Structure_dimension>  (1506) 
2D

$$$$
MS1569
     RDKit          2D

 35 38  0  0  0  0  0  0  0  0999 V2000
   -1.5793   -4.2880    0.0000 C   0  0  0  0  0  0  0  0  0  0  0  0
   -0.8330   -2.9868    0.0000 C   0  0  0  0  0  0  0  0  0  0  0  0
   -1.5867   -1.6899    0.0000 C   0  0  0  0  0  0  0  0  0  0  0  0
   -3.0867   -1.6942    0.0000 C   0  0  0  0  0  0  0  0  0  0  0  0
   -3.8404   -0.3973    0.0000 C   0  0  0  0  0  0  0  0  0  0  0  0
   -3.0941    0.9039    0.0000 O   0  0  0  0  0  0  0  0  0  0  0  0
   -5.3404   -0.4016    0.0000 C   0  0  0  0  0  0  0  0  0  0  0  0
   -6.0941    0.8953    0.0000 C   0  0  0  0  0  0  0  0  0  0  0  0
   -7.5941    0.8911    0.0000 C   0  0  0  0  0  0  0  0  0  0  0  0
   -8.3404   -0.4101    0.0000 O   0  0  0  0  0  0  0  0  0  0  0  0
   -8.3477    2.1880    0.0000 C   0  0  0  0  0  0  0  0  0  0  0  0
   -9.8477    2.1837    0.0000 C   0  0  0  0  0  0  0  0  0  0  0  0
  -10.5940    0.8826    0.0000 O   0  0  0  0  0  0  0  0  0  0  0  0
  -10.6014    3.4806    0.0000 O   0  0  0  0  0  0  0  0  0  0  0  0
    0.6670   -2.9826    0.0000 C   0  0  0  0  0  0  0  0  0  0  0  0
    1.5521   -4.1936    0.0000 C   0  0  0  0  0  0  0  0  0  0  0  0
    2.9774   -3.7260    0.0000 C   0  0  0  0  0  0  0  0  0  0  0  0
    2.9731   -2.2260    0.0000 C   0  0  0  0  0  0  0  0  0  0  0  0
    4.0850   -1.2192    0.0000 C   0  0  0  0  0  0  0  0  0  0  0  0
    5.5129   -1.6787    0.0000 C   0  0  0  0  0  0  0  0  0  0  0  0
    6.6247   -0.6718    0.0000 C   0  0  0  0  0  0  0  0  0  0  0  0
    6.3087    0.7945    0.0000 C   0  0  0  0  0  0  0  0  0  0  0  0
    7.4206    1.8014    0.0000 C   0  0  0  0  0  0  0  0  0  0  0  0
    7.1045    3.2677    0.0000 C   0  0  0  0  0  0  0  0  0  0  0  0
    8.2164    4.2746    0.0000 O   0  0  0  0  0  0  0  0  0  0  0  0
    5.6766    3.7272    0.0000 C   0  0  0  0  0  0  0  0  0  0  0  0
    4.5648    2.7203    0.0000 C   0  0  0  0  0  0  0  0  0  0  0  0
    4.8808    1.2540    0.0000 C   0  0  0  0  0  0  0  0  0  0  0  0
    3.4529    1.7135    0.0000 C   0  0  0  0  0  0  0  0  0  0  0  0
    3.7689    0.2472    0.0000 C   0  0  0  0  0  0  0  0  0  0  0  0
    2.3410    0.7066    0.0000 C   0  0  0  0  0  0  0  0  0  0  0  0
    1.2292   -0.3002    0.0000 C   0  0  0  0  0  0  0  0  0  0  0  0
   -0.1987    0.1592    0.0000 O   0  0  0  0  0  0  0  0  0  0  0  0
    1.5452   -1.7666    0.0000 C   0  0  0  0  0  0  0  0  0  0  0  0
    0.0771   -1.4589    0.0000 C   0  0  0  0  0  0  0  0  0  0  0  0
  2  1  1  6
  2  3  1  0
  3  4  1  0
  4  5  1  0
  5  6  2  0
  5  7  1  0
  7  8  1  0
  8  9  1  0
  9 10  2  0
  9 11  1  0
 11 12  1  0
 12 13  2  0
 12 14  1  0
  2 15  1  0
 15 16  1  6
 16 17  1  0
 18 17  1  6
 18 19  1  0
 19 20  1  1
 20 21  1  0
 22 21  1  1
 22 23  1  0
 23 24  1  0
 24 25  1  1
 24 26  1  0
 26 27  1  0
 27 28  1  0
 28 29  1  6
 28 30  1  0
 30 31  1  6
 31 32  1  0
 32 33  1  1
 32 34  1  0
 34 35  1  6
 34 15  1  0
 34 18  1  0
 30 19  1  0
 28 22  1  0
M  END
>  <MS_ID>  (1507) 
MS1569

>  <SMILES>  (1507) 
C[C@H](CCC(=O)CCC(=O)CC(=O)O)[C@H]1CC[C@H]2[C@@H]3CC[C@@H]4C[C@H](O)CC[C@]4(C)[C@H]3C[C@H](O)[C@]12C

>  <Structure_dimension>  (1507) 
2D

$$$$
MS1570
     RDKit          2D

 31 34  0  0  0  0  0  0  0  0999 V2000
   -4.2495   -2.8115    0.0000 C   0  0  0  0  0  0  0  0  0  0  0  0
   -3.1859   -1.7538    0.0000 C   0  0  0  0  0  0  0  0  0  0  0  0
   -3.5702   -0.3038    0.0000 C   0  0  0  0  0  0  0  0  0  0  0  0
   -5.0180    0.0883    0.0000 C   0  0  0  0  0  0  0  0  0  0  0  0
   -5.4023    1.5383    0.0000 C   0  0  0  0  0  0  0  0  0  0  0  0
   -4.3387    2.5960    0.0000 O   0  0  0  0  0  0  0  0  0  0  0  0
   -6.8501    1.9305    0.0000 N   0  0  0  0  0  0  0  0  0  0  0  0
   -7.2344    3.3804    0.0000 C   0  0  0  0  0  0  0  0  0  0  0  0
   -7.9137    0.8727    0.0000 C   0  0  0  0  0  0  0  0  0  0  0  0
   -1.7381   -2.1460    0.0000 C   0  0  0  0  0  0  0  0  0  0  0  0
   -1.2044   -3.5478    0.0000 C   0  0  0  0  0  0  0  0  0  0  0  0
    0.2938   -3.4734    0.0000 C   0  0  0  0  0  0  0  0  0  0  0  0
    0.6860   -2.0256    0.0000 C   0  0  0  0  0  0  0  0  0  0  0  0
    2.0243   -1.3482    0.0000 C   0  0  0  0  0  0  0  0  0  0  0  0
    3.2801   -2.1686    0.0000 C   0  0  0  0  0  0  0  0  0  0  0  0
    3.1975   -3.6663    0.0000 O   0  0  0  0  0  0  0  0  0  0  0  0
    4.6185   -1.4913    0.0000 C   0  0  0  0  0  0  0  0  0  0  0  0
    4.7010    0.0064    0.0000 C   0  0  0  0  0  0  0  0  0  0  0  0
    6.0394    0.6838    0.0000 C   0  0  0  0  0  0  0  0  0  0  0  0
    6.1220    2.1815    0.0000 C   0  0  0  0  0  0  0  0  0  0  0  0
    7.4604    2.8588    0.0000 O   0  0  0  0  0  0  0  0  0  0  0  0
    4.8662    3.0019    0.0000 C   0  0  0  0  0  0  0  0  0  0  0  0
    3.5279    2.3246    0.0000 C   0  0  0  0  0  0  0  0  0  0  0  0
    3.4453    0.8268    0.0000 C   0  0  0  0  0  0  0  0  0  0  0  0
    2.1895    1.6472    0.0000 C   0  0  0  0  0  0  0  0  0  0  0  0
    2.1069    0.1495    0.0000 C   0  0  0  0  0  0  0  0  0  0  0  0
    0.8511    0.9699    0.0000 C   0  0  0  0  0  0  0  0  0  0  0  0
   -0.4872    0.2925    0.0000 C   0  0  0  0  0  0  0  0  0  0  0  0
   -1.7430    1.1129    0.0000 O   0  0  0  0  0  0  0  0  0  0  0  0
   -0.5698   -1.2052    0.0000 C   0  0  0  0  0  0  0  0  0  0  0  0
   -1.9045   -0.5205    0.0000 C   0  0  0  0  0  0  0  0  0  0  0  0
  2  1  1  6
  2  3  1  0
  3  4  1  0
  4  5  1  0
  5  6  2  0
  5  7  1  0
  7  8  1  0
  7  9  1  0
  2 10  1  0
 10 11  1  6
 11 12  1  0
 13 12  1  6
 13 14  1  0
 14 15  1  1
 15 16  1  1
 15 17  1  0
 18 17  1  1
 18 19  1  0
 19 20  1  0
 20 21  1  1
 20 22  1  0
 22 23  1  0
 23 24  1  0
 24 25  1  6
 24 26  1  0
 26 27  1  6
 27 28  1  0
 28 29  1  6
 28 30  1  0
 30 31  1  6
 30 10  1  0
 30 13  1  0
 26 14  1  0
 24 18  1  0
M  END
>  <MS_ID>  (1508) 
MS1570

>  <SMILES>  (1508) 
C[C@H](CCC(=O)N(C)C)[C@H]1CC[C@H]2[C@@H]3[C@H](O)C[C@@H]4C[C@H](O)CC[C@]4(C)[C@H]3C[C@@H](O)[C@]12C

>  <Structure_dimension>  (1508) 
2D

$$$$
MS1571
     RDKit          2D

 31 34  0  0  0  0  0  0  0  0999 V2000
   -7.2344    3.3804    0.0000 C   0  0  0  0  0  0  0  0  0  0  0  0
   -6.8501    1.9305    0.0000 C   0  0  0  0  0  0  0  0  0  0  0  0
   -7.9137    0.8727    0.0000 C   0  0  0  0  0  0  0  0  0  0  0  0
   -5.4023    1.5383    0.0000 C   0  0  0  0  0  0  0  0  0  0  0  0
   -4.3387    2.5960    0.0000 O   0  0  0  0  0  0  0  0  0  0  0  0
   -5.0180    0.0883    0.0000 C   0  0  0  0  0  0  0  0  0  0  0  0
   -3.5702   -0.3038    0.0000 C   0  0  0  0  0  0  0  0  0  0  0  0
   -3.1859   -1.7538    0.0000 C   0  0  0  0  0  0  0  0  0  0  0  0
   -4.2495   -2.8115    0.0000 C   0  0  0  0  0  0  0  0  0  0  0  0
   -1.7381   -2.1460    0.0000 C   0  0  0  0  0  0  0  0  0  0  0  0
   -1.2044   -3.5478    0.0000 C   0  0  0  0  0  0  0  0  0  0  0  0
    0.2938   -3.4734    0.0000 C   0  0  0  0  0  0  0  0  0  0  0  0
    0.6860   -2.0256    0.0000 C   0  0  0  0  0  0  0  0  0  0  0  0
    2.0243   -1.3482    0.0000 C   0  0  0  0  0  0  0  0  0  0  0  0
    3.2801   -2.1686    0.0000 C   0  0  0  0  0  0  0  0  0  0  0  0
    3.1975   -3.6663    0.0000 O   0  0  0  0  0  0  0  0  0  0  0  0
    4.6185   -1.4913    0.0000 C   0  0  0  0  0  0  0  0  0  0  0  0
    4.7010    0.0064    0.0000 C   0  0  0  0  0  0  0  0  0  0  0  0
    6.0394    0.6838    0.0000 C   0  0  0  0  0  0  0  0  0  0  0  0
    6.1220    2.1815    0.0000 C   0  0  0  0  0  0  0  0  0  0  0  0
    7.4604    2.8588    0.0000 O   0  0  0  0  0  0  0  0  0  0  0  0
    4.8662    3.0019    0.0000 C   0  0  0  0  0  0  0  0  0  0  0  0
    3.5279    2.3246    0.0000 C   0  0  0  0  0  0  0  0  0  0  0  0
    3.4453    0.8268    0.0000 C   0  0  0  0  0  0  0  0  0  0  0  0
    2.1895    1.6472    0.0000 C   0  0  0  0  0  0  0  0  0  0  0  0
    2.1069    0.1495    0.0000 C   0  0  0  0  0  0  0  0  0  0  0  0
    0.8511    0.9699    0.0000 C   0  0  0  0  0  0  0  0  0  0  0  0
   -0.4872    0.2925    0.0000 C   0  0  0  0  0  0  0  0  0  0  0  0
   -1.7430    1.1129    0.0000 O   0  0  0  0  0  0  0  0  0  0  0  0
   -0.5698   -1.2052    0.0000 C   0  0  0  0  0  0  0  0  0  0  0  0
   -1.9045   -0.5205    0.0000 C   0  0  0  0  0  0  0  0  0  0  0  0
  1  2  1  0
  2  3  1  0
  2  4  1  0
  4  5  2  0
  4  6  1  0
  6  7  1  0
  7  8  1  0
  8  9  1  6
  8 10  1  0
 10 11  1  6
 11 12  1  0
 13 12  1  6
 13 14  1  0
 14 15  1  1
 15 16  1  1
 15 17  1  0
 18 17  1  1
 18 19  1  0
 19 20  1  0
 20 21  2  0
 20 22  1  0
 22 23  1  0
 23 24  1  0
 24 25  1  6
 24 26  1  0
 26 27  1  6
 27 28  1  0
 28 29  1  1
 28 30  1  0
 30 31  1  6
 30 10  1  0
 30 13  1  0
 26 14  1  0
 24 18  1  0
M  END
>  <MS_ID>  (1509) 
MS1571

>  <SMILES>  (1509) 
CC(C)C(=O)CC[C@@H](C)[C@H]1CC[C@H]2[C@@H]3[C@H](O)C[C@@H]4CC(=O)CC[C@]4(C)[C@H]3C[C@H](O)[C@]12C

>  <Structure_dimension>  (1509) 
2D

$$$$
MS1572
     RDKit          2D

 31 34  0  0  0  0  0  0  0  0999 V2000
   -5.7175   -1.8176    0.0000 C   0  0  0  0  0  0  0  0  0  0  0  0
   -4.4708   -0.9835    0.0000 C   0  0  0  0  0  0  0  0  0  0  0  0
   -4.5698    0.5132    0.0000 C   0  0  0  0  0  0  0  0  0  0  0  0
   -5.9155    1.1758    0.0000 C   0  0  0  0  0  0  0  0  0  0  0  0
   -6.0145    2.6726    0.0000 C   0  0  0  0  0  0  0  0  0  0  0  0
   -4.7678    3.5067    0.0000 O   0  0  0  0  0  0  0  0  0  0  0  0
   -7.3602    3.3352    0.0000 O   0  0  0  0  0  0  0  0  0  0  0  0
   -3.1251   -1.6462    0.0000 C   0  0  0  0  0  0  0  0  0  0  0  0
   -2.8701   -3.1243    0.0000 C   0  0  0  0  0  0  0  0  0  0  0  0
   -1.3855   -3.3387    0.0000 C   0  0  0  0  0  0  0  0  0  0  0  0
   -0.7229   -1.9930    0.0000 C   0  0  0  0  0  0  0  0  0  0  0  0
    0.7205   -1.5850    0.0000 C   0  0  0  0  0  0  0  0  0  0  0  0
    1.7956   -2.6310    0.0000 C   0  0  0  0  0  0  0  0  0  0  0  0
    1.4272   -4.0851    0.0000 O   0  0  0  0  0  0  0  0  0  0  0  0
    3.2390   -2.2230    0.0000 C   0  0  0  0  0  0  0  0  0  0  0  0
    3.6074   -0.7689    0.0000 C   0  0  0  0  0  0  0  0  0  0  0  0
    5.0508   -0.3609    0.0000 C   0  0  0  0  0  0  0  0  0  0  0  0
    5.4192    1.0932    0.0000 C   0  0  0  0  0  0  0  0  0  0  0  0
    6.8626    1.5012    0.0000 N   0  0  0  0  0  0  0  0  0  0  0  0
    7.9377    0.4551    0.0000 C   0  0  0  0  0  0  0  0  0  0  0  0
    7.2310    2.9552    0.0000 C   0  0  0  0  0  0  0  0  0  0  0  0
    4.3441    2.1392    0.0000 C   0  0  0  0  0  0  0  0  0  0  0  0
    2.9007    1.7312    0.0000 C   0  0  0  0  0  0  0  0  0  0  0  0
    2.5323    0.2771    0.0000 C   0  0  0  0  0  0  0  0  0  0  0  0
    1.4572    1.3232    0.0000 C   0  0  0  0  0  0  0  0  0  0  0  0
    1.0889   -0.1309    0.0000 C   0  0  0  0  0  0  0  0  0  0  0  0
    0.0138    0.9151    0.0000 C   0  0  0  0  0  0  0  0  0  0  0  0
   -1.4296    0.5071    0.0000 C   0  0  0  0  0  0  0  0  0  0  0  0
   -2.5047    1.5532    0.0000 O   0  0  0  0  0  0  0  0  0  0  0  0
   -1.7980   -0.9470    0.0000 C   0  0  0  0  0  0  0  0  0  0  0  0
   -2.9765   -0.0190    0.0000 C   0  0  0  0  0  0  0  0  0  0  0  0
  2  1  1  6
  2  3  1  0
  3  4  1  0
  4  5  1  0
  5  6  2  0
  5  7  1  0
  2  8  1  0
  8  9  1  6
  9 10  1  0
 11 10  1  6
 11 12  1  0
 12 13  1  1
 13 14  1  6
 13 15  1  0
 16 15  1  1
 16 17  1  0
 17 18  1  0
 18 19  1  6
 19 20  1  0
 19 21  1  0
 18 22  1  0
 22 23  1  0
 23 24  1  0
 24 25  1  6
 24 26  1  0
 26 27  1  6
 27 28  1  0
 28 29  1  1
 28 30  1  0
 30 31  1  6
 30  8  1  0
 30 11  1  0
 26 12  1  0
 24 16  1  0
M  END
>  <MS_ID>  (1510) 
MS1572

>  <SMILES>  (1510) 
C[C@H](CCC(=O)O)[C@H]1CC[C@H]2[C@@H]3[C@@H](O)C[C@@H]4C[C@@H](N(C)C)CC[C@]4(C)[C@H]3C[C@H](O)[C@]12C

>  <Structure_dimension>  (1510) 
2D

$$$$
MS1573
     RDKit          2D

 33 36  0  0  0  0  0  0  0  0999 V2000
   -2.8344   -3.8565    0.0000 C   0  0  0  0  0  0  0  0  0  0  0  0
   -1.9937   -2.6142    0.0000 C   0  0  0  0  0  0  0  0  0  0  0  0
   -2.6491   -1.2650    0.0000 C   0  0  0  0  0  0  0  0  0  0  0  0
   -4.1453   -1.1580    0.0000 C   0  0  0  0  0  0  0  0  0  0  0  0
   -4.8007    0.1912    0.0000 C   0  0  0  0  0  0  0  0  0  0  0  0
   -3.9600    1.4334    0.0000 O   0  0  0  0  0  0  0  0  0  0  0  0
   -6.2969    0.2982    0.0000 N   0  0  0  0  0  0  0  0  0  0  0  0
   -6.9523    1.6474    0.0000 C   0  0  0  0  0  0  0  0  0  0  0  0
   -6.1116    2.8896    0.0000 N   0  0  0  0  0  0  0  0  0  0  0  0
   -8.4485    1.7544    0.0000 C   0  0  0  0  0  0  0  0  0  0  0  0
   -9.2893    0.5121    0.0000 O   0  0  0  0  0  0  0  0  0  0  0  0
   -9.1040    3.1036    0.0000 O   0  0  0  0  0  0  0  0  0  0  0  0
   -0.4975   -2.7212    0.0000 C   0  0  0  0  0  0  0  0  0  0  0  0
    0.2954   -3.9945    0.0000 C   0  0  0  0  0  0  0  0  0  0  0  0
    1.7514   -3.6340    0.0000 C   0  0  0  0  0  0  0  0  0  0  0  0
    1.8584   -2.1378    0.0000 C   0  0  0  0  0  0  0  0  0  0  0  0
    3.0419   -1.2161    0.0000 C   0  0  0  0  0  0  0  0  0  0  0  0
    4.4317   -1.7802    0.0000 C   0  0  0  0  0  0  0  0  0  0  0  0
    4.6382   -3.2660    0.0000 O   0  0  0  0  0  0  0  0  0  0  0  0
    5.6152   -0.8586    0.0000 C   0  0  0  0  0  0  0  0  0  0  0  0
    5.4088    0.6271    0.0000 C   0  0  0  0  0  0  0  0  0  0  0  0
    6.5922    1.5488    0.0000 C   0  0  0  0  0  0  0  0  0  0  0  0
    6.3858    3.0345    0.0000 C   0  0  0  0  0  0  0  0  0  0  0  0
    7.5693    3.9561    0.0000 O   0  0  0  0  0  0  0  0  0  0  0  0
    4.9959    3.5986    0.0000 C   0  0  0  0  0  0  0  0  0  0  0  0
    3.8125    2.6770    0.0000 C   0  0  0  0  0  0  0  0  0  0  0  0
    4.0189    1.1912    0.0000 C   0  0  0  0  0  0  0  0  0  0  0  0
    2.6290    1.7553    0.0000 C   0  0  0  0  0  0  0  0  0  0  0  0
    2.8354    0.2696    0.0000 C   0  0  0  0  0  0  0  0  0  0  0  0
    1.4455    0.8337    0.0000 C   0  0  0  0  0  0  0  0  0  0  0  0
    0.2621   -0.0879    0.0000 C   0  0  0  0  0  0  0  0  0  0  0  0
    0.4685   -1.5737    0.0000 C   0  0  0  0  0  0  0  0  0  0  0  0
   -0.9727   -1.1580    0.0000 C   0  0  0  0  0  0  0  0  0  0  0  0
  2  1  1  6
  2  3  1  0
  3  4  1  0
  4  5  1  0
  5  6  2  0
  5  7  1  0
  7  8  1  0
  8  9  1  6
  8 10  1  0
 10 11  2  0
 10 12  1  0
  2 13  1  0
 13 14  1  6
 14 15  1  0
 16 15  1  6
 16 17  1  0
 17 18  1  1
 18 19  1  6
 18 20  1  0
 21 20  1  1
 21 22  1  0
 22 23  1  0
 23 24  1  1
 23 25  1  0
 25 26  1  0
 26 27  1  0
 27 28  1  6
 27 29  1  0
 29 30  1  6
 30 31  1  0
 31 32  1  0
 32 33  1  6
 32 13  1  0
 32 16  1  0
 29 17  1  0
 27 21  1  0
M  END
>  <MS_ID>  (1511) 
MS1573

>  <SMILES>  (1511) 
C[C@H](CCC(=O)N[C@@H](N)C(=O)O)[C@H]1CC[C@H]2[C@@H]3[C@@H](O)C[C@@H]4C[C@H](O)CC[C@]4(C)[C@H]3CC[C@]12C

>  <Structure_dimension>  (1511) 
2D

$$$$
MS1574
     RDKit          2D

 31 34  0  0  0  0  0  0  0  0999 V2000
   -6.2983   -1.8943    0.0000 C   0  0  0  0  0  0  0  0  0  0  0  0
   -5.0623   -1.0445    0.0000 C   0  0  0  0  0  0  0  0  0  0  0  0
   -5.1802    0.4509    0.0000 C   0  0  0  0  0  0  0  0  0  0  0  0
   -6.5342    1.0964    0.0000 C   0  0  0  0  0  0  0  0  0  0  0  0
   -6.6522    2.5917    0.0000 C   0  0  0  0  0  0  0  0  0  0  0  0
   -5.4162    3.4416    0.0000 O   0  0  0  0  0  0  0  0  0  0  0  0
   -8.0062    3.2373    0.0000 O   0  0  0  0  0  0  0  0  0  0  0  0
   -3.7083   -1.6900    0.0000 C   0  0  0  0  0  0  0  0  0  0  0  0
   -3.4346   -3.1648    0.0000 C   0  0  0  0  0  0  0  0  0  0  0  0
   -1.9474   -3.3603    0.0000 C   0  0  0  0  0  0  0  0  0  0  0  0
   -1.3019   -2.0063    0.0000 C   0  0  0  0  0  0  0  0  0  0  0  0
    0.1362   -1.5800    0.0000 C   0  0  0  0  0  0  0  0  0  0  0  0
    1.2245   -2.6123    0.0000 C   0  0  0  0  0  0  0  0  0  0  0  0
    2.6626   -2.1860    0.0000 C   0  0  0  0  0  0  0  0  0  0  0  0
    3.0125   -0.7274    0.0000 C   0  0  0  0  0  0  0  0  0  0  0  0
    4.4507   -0.3011    0.0000 C   0  0  0  0  0  0  0  0  0  0  0  0
    4.8006    1.1575    0.0000 C   0  0  0  0  0  0  0  0  0  0  0  0
    6.2387    1.5838    0.0000 N   0  0  0  0  0  0  0  0  0  0  0  0
    7.3270    0.5515    0.0000 S   0  0  0  0  0  0  0  0  0  0  0  0
    8.3593    1.6397    0.0000 O   0  0  0  0  0  0  0  0  0  0  0  0
    6.2946   -0.5368    0.0000 O   0  0  0  0  0  0  0  0  0  0  0  0
    8.4152   -0.4809    0.0000 O   0  0  0  0  0  0  0  0  0  0  0  0
    3.7123    2.1898    0.0000 C   0  0  0  0  0  0  0  0  0  0  0  0
    2.2742    1.7635    0.0000 C   0  0  0  0  0  0  0  0  0  0  0  0
    1.9243    0.3049    0.0000 C   0  0  0  0  0  0  0  0  0  0  0  0
    0.8360    1.3372    0.0000 C   0  0  0  0  0  0  0  0  0  0  0  0
    0.4861   -0.1214    0.0000 C   0  0  0  0  0  0  0  0  0  0  0  0
   -0.6021    0.9109    0.0000 C   0  0  0  0  0  0  0  0  0  0  0  0
   -2.0403    0.4846    0.0000 C   0  0  0  0  0  0  0  0  0  0  0  0
   -2.3902   -0.9740    0.0000 C   0  0  0  0  0  0  0  0  0  0  0  0
   -3.5804   -0.0611    0.0000 C   0  0  0  0  0  0  0  0  0  0  0  0
  2  1  1  6
  2  3  1  0
  3  4  1  0
  4  5  1  0
  5  6  2  0
  5  7  1  0
  2  8  1  0
  8  9  1  6
  9 10  1  0
 11 10  1  6
 11 12  1  0
 12 13  1  1
 13 14  1  0
 15 14  1  1
 15 16  1  0
 16 17  1  0
 17 18  1  1
 18 19  1  0
 19 20  2  0
 19 21  2  0
 19 22  1  0
 17 23  1  0
 23 24  1  0
 24 25  1  0
 25 26  1  6
 25 27  1  0
 27 28  1  6
 28 29  1  0
 29 30  1  0
 30 31  1  6
 30  8  1  0
 30 11  1  0
 27 12  1  0
 25 15  1  0
M  END
>  <MS_ID>  (1512) 
MS1574

>  <SMILES>  (1512) 
C[C@H](CCC(=O)O)[C@H]1CC[C@H]2[C@@H]3CC[C@@H]4C[C@H](NS(=O)(=O)O)CC[C@]4(C)[C@H]3CC[C@]12C

>  <Structure_dimension>  (1512) 
2D

$$$$
MS1575
     RDKit          2D

 33 36  0  0  0  0  0  0  0  0999 V2000
   -8.4671    1.6400    0.0000 C   0  0  0  0  0  0  0  0  0  0  0  0
   -6.9723    1.5149    0.0000 C   0  0  0  0  0  0  0  0  0  0  0  0
   -6.3332    0.1579    0.0000 O   0  0  0  0  0  0  0  0  0  0  0  0
   -4.8384    0.0329    0.0000 C   0  0  0  0  0  0  0  0  0  0  0  0
   -3.9827    1.2649    0.0000 O   0  0  0  0  0  0  0  0  0  0  0  0
   -4.1993   -1.3241    0.0000 C   0  0  0  0  0  0  0  0  0  0  0  0
   -2.7045   -1.4491    0.0000 C   0  0  0  0  0  0  0  0  0  0  0  0
   -2.0654   -2.8062    0.0000 C   0  0  0  0  0  0  0  0  0  0  0  0
   -2.9210   -4.0382    0.0000 C   0  0  0  0  0  0  0  0  0  0  0  0
   -0.5706   -2.9312    0.0000 C   0  0  0  0  0  0  0  0  0  0  0  0
    0.2069   -4.2139    0.0000 C   0  0  0  0  0  0  0  0  0  0  0  0
    1.6671   -3.8709    0.0000 C   0  0  0  0  0  0  0  0  0  0  0  0
    1.7922   -2.3761    0.0000 C   0  0  0  0  0  0  0  0  0  0  0  0
    2.9866   -1.4688    0.0000 C   0  0  0  0  0  0  0  0  0  0  0  0
    4.3696   -2.0497    0.0000 C   0  0  0  0  0  0  0  0  0  0  0  0
    5.5641   -1.1424    0.0000 C   0  0  0  0  0  0  0  0  0  0  0  0
    5.3756    0.3458    0.0000 C   0  0  0  0  0  0  0  0  0  0  0  0
    6.5701    1.2531    0.0000 C   0  0  0  0  0  0  0  0  0  0  0  0
    6.3816    2.7412    0.0000 C   0  0  0  0  0  0  0  0  0  0  0  0
    7.5761    3.6485    0.0000 O   0  0  0  0  0  0  0  0  0  0  0  0
    4.9986    3.3220    0.0000 C   0  0  0  0  0  0  0  0  0  0  0  0
    3.8041    2.4147    0.0000 C   0  0  0  0  0  0  0  0  0  0  0  0
    3.9926    0.9266    0.0000 C   0  0  0  0  0  0  0  0  0  0  0  0
    2.6096    1.5074    0.0000 C   0  0  0  0  0  0  0  0  0  0  0  0
    2.7981    0.0193    0.0000 C   0  0  0  0  0  0  0  0  0  0  0  0
    1.4151    0.6001    0.0000 C   0  0  0  0  0  0  0  0  0  0  0  0
    0.2207   -0.3072    0.0000 C   0  0  0  0  0  0  0  0  0  0  0  0
   -1.1623    0.2736    0.0000 O   0  0  0  0  0  0  0  0  0  0  0  0
    0.4092   -1.7953    0.0000 C   0  0  0  0  0  0  0  0  0  0  0  0
   -1.0270   -1.3623    0.0000 C   0  0  0  0  0  0  0  0  0  0  0  0
   -6.1167    2.7470    0.0000 C   0  0  0  0  0  0  0  0  0  0  0  0
   -4.6219    2.6219    0.0000 O   0  0  0  0  0  0  0  0  0  0  0  0
   -6.7558    4.1040    0.0000 O   0  0  0  0  0  0  0  0  0  0  0  0
  2  1  1  1
  2  3  1  0
  3  4  1  0
  4  5  2  0
  4  6  1  0
  6  7  1  0
  7  8  1  0
  8  9  1  6
  8 10  1  0
 10 11  1  6
 11 12  1  0
 13 12  1  6
 13 14  1  0
 14 15  1  1
 15 16  1  0
 17 16  1  1
 17 18  1  0
 18 19  1  0
 19 20  1  1
 19 21  1  0
 21 22  1  0
 22 23  1  0
 23 24  1  6
 23 25  1  0
 25 26  1  6
 26 27  1  0
 27 28  1  1
 27 29  1  0
 29 30  1  6
  2 31  1  0
 31 32  2  0
 31 33  1  0
 29 10  1  0
 29 13  1  0
 25 14  1  0
 23 17  1  0
M  END
>  <MS_ID>  (1513) 
MS1575

>  <SMILES>  (1513) 
C[C@H](OC(=O)CC[C@@H](C)[C@H]1CC[C@H]2[C@@H]3CC[C@@H]4C[C@H](O)CC[C@]4(C)[C@H]3C[C@H](O)[C@]12C)C(=O)O

>  <Structure_dimension>  (1513) 
2D

$$$$
MS1576
     RDKit          2D

 37 41  0  0  0  0  0  0  0  0999 V2000
   -1.1969   -4.1392    0.0000 C   0  0  0  0  0  0  0  0  0  0  0  0
   -0.4485   -2.8392    0.0000 C   0  0  0  0  0  0  0  0  0  0  0  0
   -1.2001   -1.5411    0.0000 C   0  0  0  0  0  0  0  0  0  0  0  0
   -2.7001   -1.5429    0.0000 C   0  0  0  0  0  0  0  0  0  0  0  0
   -3.4516   -0.2448    0.0000 C   0  0  0  0  0  0  0  0  0  0  0  0
   -2.7032    1.0552    0.0000 O   0  0  0  0  0  0  0  0  0  0  0  0
   -4.9516   -0.2466    0.0000 O   0  0  0  0  0  0  0  0  0  0  0  0
   -5.7032    1.0516    0.0000 C   0  0  0  0  0  0  0  0  0  0  0  0
   -7.2032    1.0498    0.0000 C   0  0  0  0  0  0  0  0  0  0  0  0
   -7.9547    2.3479    0.0000 C   0  0  0  0  0  0  0  0  0  0  0  0
   -9.4547    2.3461    0.0000 C   0  0  0  0  0  0  0  0  0  0  0  0
  -10.2063    3.6442    0.0000 O   0  0  0  0  0  0  0  0  0  0  0  0
  -10.2032    1.0462    0.0000 C   0  0  0  0  0  0  0  0  0  0  0  0
   -9.4516   -0.2520    0.0000 C   0  0  0  0  0  0  0  0  0  0  0  0
  -10.2001   -1.5519    0.0000 O   0  0  0  0  0  0  0  0  0  0  0  0
   -7.9516   -0.2502    0.0000 C   0  0  0  0  0  0  0  0  0  0  0  0
    1.0515   -2.8374    0.0000 C   0  0  0  0  0  0  0  0  0  0  0  0
    1.9346   -4.0499    0.0000 C   0  0  0  0  0  0  0  0  0  0  0  0
    3.3607   -3.5847    0.0000 C   0  0  0  0  0  0  0  0  0  0  0  0
    3.3589   -2.0847    0.0000 C   0  0  0  0  0  0  0  0  0  0  0  0
    4.4724   -1.0796    0.0000 C   0  0  0  0  0  0  0  0  0  0  0  0
    5.8995   -1.5415    0.0000 C   0  0  0  0  0  0  0  0  0  0  0  0
    6.2131   -3.0083    0.0000 O   0  0  0  0  0  0  0  0  0  0  0  0
    7.0130   -0.5364    0.0000 C   0  0  0  0  0  0  0  0  0  0  0  0
    6.6994    0.9304    0.0000 C   0  0  0  0  0  0  0  0  0  0  0  0
    7.8129    1.9355    0.0000 C   0  0  0  0  0  0  0  0  0  0  0  0
    7.4993    3.4023    0.0000 C   0  0  0  0  0  0  0  0  0  0  0  0
    8.6128    4.4073    0.0000 O   0  0  0  0  0  0  0  0  0  0  0  0
    6.0721    3.8641    0.0000 C   0  0  0  0  0  0  0  0  0  0  0  0
    4.9586    2.8591    0.0000 C   0  0  0  0  0  0  0  0  0  0  0  0
    5.2723    1.3922    0.0000 C   0  0  0  0  0  0  0  0  0  0  0  0
    3.8451    1.8540    0.0000 C   0  0  0  0  0  0  0  0  0  0  0  0
    4.1587    0.3872    0.0000 C   0  0  0  0  0  0  0  0  0  0  0  0
    2.7316    0.8490    0.0000 C   0  0  0  0  0  0  0  0  0  0  0  0
    1.6181   -0.1560    0.0000 C   0  0  0  0  0  0  0  0  0  0  0  0
    1.9317   -1.6229    0.0000 C   0  0  0  0  0  0  0  0  0  0  0  0
    0.4641   -1.3128    0.0000 C   0  0  0  0  0  0  0  0  0  0  0  0
  2  1  1  6
  2  3  1  0
  3  4  1  0
  4  5  1  0
  5  6  2  0
  5  7  1  0
  7  8  1  0
  8  9  1  0
  9 10  2  0
 10 11  1  0
 11 12  1  0
 11 13  2  0
 13 14  1  0
 14 15  1  0
 14 16  2  0
  2 17  1  0
 17 18  1  6
 18 19  1  0
 20 19  1  6
 20 21  1  0
 21 22  1  1
 22 23  1  1
 22 24  1  0
 25 24  1  1
 25 26  1  0
 26 27  1  0
 27 28  1  1
 27 29  1  0
 29 30  1  0
 30 31  1  0
 31 32  1  6
 31 33  1  0
 33 34  1  6
 34 35  1  0
 35 36  1  0
 36 37  1  6
 16  9  1  0
 36 17  1  0
 36 20  1  0
 33 21  1  0
 31 25  1  0
M  END
>  <MS_ID>  (1514) 
MS1576

>  <SMILES>  (1514) 
C[C@H](CCC(=O)OCc1cc(O)cc(O)c1)[C@H]1CC[C@H]2[C@@H]3[C@H](O)C[C@@H]4C[C@H](O)CC[C@]4(C)[C@H]3CC[C@]12C

>  <Structure_dimension>  (1514) 
2D

$$$$
MS1577
     RDKit          2D

 36 40  0  0  0  0  0  0  0  0999 V2000
   -1.4753   -4.0971    0.0000 C   0  0  0  0  0  0  0  0  0  0  0  0
   -0.7153   -2.8039    0.0000 C   0  0  0  0  0  0  0  0  0  0  0  0
   -1.4552   -1.4991    0.0000 C   0  0  0  0  0  0  0  0  0  0  0  0
   -2.9552   -1.4875    0.0000 C   0  0  0  0  0  0  0  0  0  0  0  0
   -3.6951   -0.1827    0.0000 C   0  0  0  0  0  0  0  0  0  0  0  0
   -2.9351    1.1105    0.0000 O   0  0  0  0  0  0  0  0  0  0  0  0
   -5.1951   -0.1712    0.0000 C   0  0  0  0  0  0  0  0  0  0  0  0
   -5.9351    1.1336    0.0000 C   0  0  0  0  0  0  0  0  0  0  0  0
   -7.4350    1.1452    0.0000 C   0  0  0  0  0  0  0  0  0  0  0  0
   -8.1750    2.4500    0.0000 C   0  0  0  0  0  0  0  0  0  0  0  0
   -9.6749    2.4615    0.0000 C   0  0  0  0  0  0  0  0  0  0  0  0
  -10.4349    1.1683    0.0000 C   0  0  0  0  0  0  0  0  0  0  0  0
  -11.9349    1.1799    0.0000 O   0  0  0  0  0  0  0  0  0  0  0  0
   -9.6950   -0.1365    0.0000 C   0  0  0  0  0  0  0  0  0  0  0  0
   -8.1950   -0.1480    0.0000 C   0  0  0  0  0  0  0  0  0  0  0  0
    0.7847   -2.8154    0.0000 C   0  0  0  0  0  0  0  0  0  0  0  0
    1.6570   -4.0357    0.0000 C   0  0  0  0  0  0  0  0  0  0  0  0
    3.0871   -3.5832    0.0000 C   0  0  0  0  0  0  0  0  0  0  0  0
    3.0987   -2.0833    0.0000 C   0  0  0  0  0  0  0  0  0  0  0  0
    4.2211   -1.0882    0.0000 C   0  0  0  0  0  0  0  0  0  0  0  0
    5.6441   -1.5627    0.0000 C   0  0  0  0  0  0  0  0  0  0  0  0
    5.9446   -3.0323    0.0000 O   0  0  0  0  0  0  0  0  0  0  0  0
    6.7665   -0.5677    0.0000 C   0  0  0  0  0  0  0  0  0  0  0  0
    6.4659    0.9019    0.0000 C   0  0  0  0  0  0  0  0  0  0  0  0
    7.5884    1.8970    0.0000 C   0  0  0  0  0  0  0  0  0  0  0  0
    7.2878    3.3666    0.0000 C   0  0  0  0  0  0  0  0  0  0  0  0
    8.4103    4.3616    0.0000 O   0  0  0  0  0  0  0  0  0  0  0  0
    5.8649    3.8411    0.0000 C   0  0  0  0  0  0  0  0  0  0  0  0
    4.7424    2.8460    0.0000 C   0  0  0  0  0  0  0  0  0  0  0  0
    5.0430    1.3764    0.0000 C   0  0  0  0  0  0  0  0  0  0  0  0
    3.6200    1.8510    0.0000 C   0  0  0  0  0  0  0  0  0  0  0  0
    3.9205    0.3814    0.0000 C   0  0  0  0  0  0  0  0  0  0  0  0
    2.4976    0.8559    0.0000 C   0  0  0  0  0  0  0  0  0  0  0  0
    1.3752   -0.1392    0.0000 C   0  0  0  0  0  0  0  0  0  0  0  0
    1.6757   -1.6088    0.0000 C   0  0  0  0  0  0  0  0  0  0  0  0
    0.2109   -1.2856    0.0000 C   0  0  0  0  0  0  0  0  0  0  0  0
  2  1  1  6
  2  3  1  0
  3  4  1  0
  4  5  1  0
  5  6  2  0
  5  7  1  0
  7  8  2  0
  8  9  1  0
  9 10  2  0
 10 11  1  0
 11 12  2  0
 12 13  1  0
 12 14  1  0
 14 15  2  0
  2 16  1  0
 16 17  1  6
 17 18  1  0
 19 18  1  6
 19 20  1  0
 20 21  1  1
 21 22  1  1
 21 23  1  0
 24 23  1  1
 24 25  1  0
 25 26  1  0
 26 27  1  1
 26 28  1  0
 28 29  1  0
 29 30  1  0
 30 31  1  6
 30 32  1  0
 32 33  1  6
 33 34  1  0
 34 35  1  0
 35 36  1  6
 15  9  1  0
 35 16  1  0
 35 19  1  0
 32 20  1  0
 30 24  1  0
M  END
>  <MS_ID>  (1515) 
MS1577

>  <SMILES>  (1515) 
C[C@H](CCC(=O)/C=C/c1ccc(O)cc1)[C@H]1CC[C@H]2[C@@H]3[C@H](O)C[C@@H]4C[C@H](O)CC[C@]4(C)[C@H]3CC[C@]12C

>  <Structure_dimension>  (1515) 
2D

$$$$
MS1578
     RDKit          2D

 40 45  0  0  0  0  0  0  0  0999 V2000
    0.0720   -4.7173    0.0000 C   0  0  0  0  0  0  0  0  0  0  0  0
    0.6242   -3.3227    0.0000 C   0  0  0  0  0  0  0  0  0  0  0  0
   -0.3075   -2.1471    0.0000 C   0  0  0  0  0  0  0  0  0  0  0  0
   -1.7914   -2.3661    0.0000 C   0  0  0  0  0  0  0  0  0  0  0  0
   -2.7231   -1.1906    0.0000 C   0  0  0  0  0  0  0  0  0  0  0  0
   -2.1708    0.2041    0.0000 O   0  0  0  0  0  0  0  0  0  0  0  0
   -4.2070   -1.4096    0.0000 N   0  0  0  0  0  0  0  0  0  0  0  0
   -5.1386   -0.2340    0.0000 C   0  0  0  0  0  0  0  0  0  0  0  0
   -6.6226   -0.4531    0.0000 C   0  0  0  0  0  0  0  0  0  0  0  0
   -7.5542    0.7225    0.0000 C   0  0  0  0  0  0  0  0  0  0  0  0
   -7.1508    2.1672    0.0000 C   0  0  0  0  0  0  0  0  0  0  0  0
   -8.4001    2.9973    0.0000 N   0  0  0  0  0  0  0  0  0  0  0  0
   -9.5757    2.0657    0.0000 C   0  0  0  0  0  0  0  0  0  0  0  0
  -11.0547    2.3159    0.0000 C   0  0  0  0  0  0  0  0  0  0  0  0
  -12.0109    1.1602    0.0000 C   0  0  0  0  0  0  0  0  0  0  0  0
  -11.4881   -0.2458    0.0000 C   0  0  0  0  0  0  0  0  0  0  0  0
  -10.0091   -0.4960    0.0000 C   0  0  0  0  0  0  0  0  0  0  0  0
   -9.0529    0.6597    0.0000 C   0  0  0  0  0  0  0  0  0  0  0  0
    2.1081   -3.1036    0.0000 C   0  0  0  0  0  0  0  0  0  0  0  0
    3.1576   -4.1754    0.0000 C   0  0  0  0  0  0  0  0  0  0  0  0
    4.5012   -3.5085    0.0000 C   0  0  0  0  0  0  0  0  0  0  0  0
    4.2821   -2.0246    0.0000 C   0  0  0  0  0  0  0  0  0  0  0  0
    5.2383   -0.8688    0.0000 C   0  0  0  0  0  0  0  0  0  0  0  0
    6.7173   -1.1191    0.0000 C   0  0  0  0  0  0  0  0  0  0  0  0
    7.2401   -2.5250    0.0000 O   0  0  0  0  0  0  0  0  0  0  0  0
    7.6735    0.0367    0.0000 C   0  0  0  0  0  0  0  0  0  0  0  0
    7.1507    1.4426    0.0000 C   0  0  0  0  0  0  0  0  0  0  0  0
    8.1069    2.5984    0.0000 C   0  0  0  0  0  0  0  0  0  0  0  0
    7.5841    4.0043    0.0000 C   0  0  0  0  0  0  0  0  0  0  0  0
    8.5403    5.1600    0.0000 O   0  0  0  0  0  0  0  0  0  0  0  0
    6.1051    4.2545    0.0000 C   0  0  0  0  0  0  0  0  0  0  0  0
    5.1489    3.0988    0.0000 C   0  0  0  0  0  0  0  0  0  0  0  0
    5.6717    1.6928    0.0000 C   0  0  0  0  0  0  0  0  0  0  0  0
    4.1927    1.9431    0.0000 C   0  0  0  0  0  0  0  0  0  0  0  0
    4.7155    0.5371    0.0000 C   0  0  0  0  0  0  0  0  0  0  0  0
    3.2365    0.7873    0.0000 C   0  0  0  0  0  0  0  0  0  0  0  0
    2.2803   -0.3684    0.0000 C   0  0  0  0  0  0  0  0  0  0  0  0
    0.8013   -0.1182    0.0000 O   0  0  0  0  0  0  0  0  0  0  0  0
    2.8031   -1.7743    0.0000 C   0  0  0  0  0  0  0  0  0  0  0  0
    1.3061   -1.6801    0.0000 C   0  0  0  0  0  0  0  0  0  0  0  0
  2  1  1  6
  2  3  1  0
  3  4  1  0
  4  5  1  0
  5  6  2  0
  5  7  1  0
  7  8  1  0
  8  9  1  0
  9 10  1  0
 10 11  2  0
 11 12  1  0
 12 13  1  0
 13 14  2  0
 14 15  1  0
 15 16  2  0
 16 17  1  0
 17 18  2  0
  2 19  1  0
 19 20  1  6
 20 21  1  0
 22 21  1  6
 22 23  1  0
 23 24  1  1
 24 25  1  1
 24 26  1  0
 27 26  1  1
 27 28  1  0
 28 29  1  0
 29 30  1  1
 29 31  1  0
 31 32  1  0
 32 33  1  0
 33 34  1  6
 33 35  1  0
 35 36  1  6
 36 37  1  0
 37 38  1  1
 37 39  1  0
 39 40  1  6
 18 10  1  0
 39 19  1  0
 18 13  1  0
 39 22  1  0
 35 23  1  0
 33 27  1  0
M  END
>  <MS_ID>  (1516) 
MS1578

>  <SMILES>  (1516) 
C[C@H](CCC(=O)NCCc1c[nH]c2ccccc12)[C@H]1CC[C@H]2[C@@H]3[C@H](O)C[C@@H]4C[C@H](O)CC[C@]4(C)[C@H]3C[C@H](O)[C@]12C

>  <Structure_dimension>  (1516) 
2D

$$$$
MS1579
     RDKit          2D

 34 37  0  0  0  0  0  0  0  0999 V2000
   -7.0767   -1.8191    0.0000 C   0  0  0  0  0  0  0  0  0  0  0  0
   -5.8492   -0.9569    0.0000 C   0  0  0  0  0  0  0  0  0  0  0  0
   -5.9822    0.5372    0.0000 C   0  0  0  0  0  0  0  0  0  0  0  0
   -7.3425    1.1691    0.0000 C   0  0  0  0  0  0  0  0  0  0  0  0
   -7.4754    2.6632    0.0000 C   0  0  0  0  0  0  0  0  0  0  0  0
   -6.2480    3.5254    0.0000 O   0  0  0  0  0  0  0  0  0  0  0  0
   -8.8358    3.2952    0.0000 O   0  0  0  0  0  0  0  0  0  0  0  0
   -4.4889   -1.5889    0.0000 C   0  0  0  0  0  0  0  0  0  0  0  0
   -4.2005   -3.0609    0.0000 C   0  0  0  0  0  0  0  0  0  0  0  0
   -2.7114   -3.2415    0.0000 C   0  0  0  0  0  0  0  0  0  0  0  0
   -2.0795   -1.8811    0.0000 C   0  0  0  0  0  0  0  0  0  0  0  0
   -0.6457   -1.4405    0.0000 C   0  0  0  0  0  0  0  0  0  0  0  0
    0.4529   -2.4619    0.0000 C   0  0  0  0  0  0  0  0  0  0  0  0
    0.1176   -3.9239    0.0000 O   0  0  0  0  0  0  0  0  0  0  0  0
    1.8867   -2.0212    0.0000 C   0  0  0  0  0  0  0  0  0  0  0  0
    2.2220   -0.5592    0.0000 C   0  0  0  0  0  0  0  0  0  0  0  0
    3.6558   -0.1186    0.0000 C   0  0  0  0  0  0  0  0  0  0  0  0
    3.9911    1.3435    0.0000 C   0  0  0  0  0  0  0  0  0  0  0  0
    5.4249    1.7841    0.0000 O   0  0  0  0  0  0  0  0  0  0  0  0
    6.5234    0.7627    0.0000 C   0  0  0  0  0  0  0  0  0  0  0  0
    7.9572    1.2034    0.0000 O   0  0  0  0  0  0  0  0  0  0  0  0
    9.0558    0.1820    0.0000 P   0  0  0  0  0  0  0  0  0  0  0  0
   10.0772    1.2805    0.0000 O   0  0  0  0  0  0  0  0  0  0  0  0
    8.0344   -0.9165    0.0000 O   0  0  0  0  0  0  0  0  0  0  0  0
   10.1543   -0.8394    0.0000 O   0  0  0  0  0  0  0  0  0  0  0  0
    2.8926    2.3649    0.0000 C   0  0  0  0  0  0  0  0  0  0  0  0
    1.4588    1.9242    0.0000 C   0  0  0  0  0  0  0  0  0  0  0  0
    1.1235    0.4622    0.0000 C   0  0  0  0  0  0  0  0  0  0  0  0
    0.0249    1.4836    0.0000 C   0  0  0  0  0  0  0  0  0  0  0  0
   -0.3104    0.0216    0.0000 C   0  0  0  0  0  0  0  0  0  0  0  0
   -1.4089    1.0430    0.0000 C   0  0  0  0  0  0  0  0  0  0  0  0
   -2.8427    0.6023    0.0000 C   0  0  0  0  0  0  0  0  0  0  0  0
   -3.1780   -0.8597    0.0000 C   0  0  0  0  0  0  0  0  0  0  0  0
   -4.3773    0.0412    0.0000 C   0  0  0  0  0  0  0  0  0  0  0  0
  2  1  1  6
  2  3  1  0
  3  4  1  0
  4  5  1  0
  5  6  2  0
  5  7  1  0
  2  8  1  0
  8  9  1  6
  9 10  1  0
 11 10  1  6
 11 12  1  0
 12 13  1  1
 13 14  1  6
 13 15  1  0
 16 15  1  1
 16 17  1  0
 17 18  1  0
 18 19  1  1
 19 20  1  0
 20 21  1  0
 21 22  1  0
 22 23  2  0
 22 24  1  0
 22 25  1  0
 18 26  1  0
 26 27  1  0
 27 28  1  0
 28 29  1  6
 28 30  1  0
 30 31  1  6
 31 32  1  0
 32 33  1  0
 33 34  1  6
 33  8  1  0
 33 11  1  0
 30 12  1  0
 28 16  1  0
M  END
>  <MS_ID>  (1517) 
MS1579

>  <SMILES>  (1517) 
C[C@H](CCC(=O)O)[C@H]1CC[C@H]2[C@@H]3[C@@H](O)C[C@@H]4C[C@H](OCOP(=O)(O)O)CC[C@]4(C)[C@H]3CC[C@]12C

>  <Structure_dimension>  (1517) 
2D

$$$$
MS1580
     RDKit          2D

 39 43  0  0  0  0  0  0  0  0999 V2000
   -9.8993    3.0299    0.0000 C   0  0  0  0  0  0  0  0  0  0  0  0
   -8.5087    2.4676    0.0000 C   0  0  0  0  0  0  0  0  0  0  0  0
   -7.3264    3.3908    0.0000 O   0  0  0  0  0  0  0  0  0  0  0  0
   -8.3003    0.9822    0.0000 C   0  0  0  0  0  0  0  0  0  0  0  0
   -6.9097    0.4199    0.0000 C   0  0  0  0  0  0  0  0  0  0  0  0
   -6.7013   -1.0656    0.0000 C   0  0  0  0  0  0  0  0  0  0  0  0
   -7.8836   -1.9888    0.0000 C   0  0  0  0  0  0  0  0  0  0  0  0
   -5.3107   -1.6279    0.0000 C   0  0  0  0  0  0  0  0  0  0  0  0
   -4.9482   -3.0834    0.0000 C   0  0  0  0  0  0  0  0  0  0  0  0
   -3.4519   -3.1884    0.0000 C   0  0  0  0  0  0  0  0  0  0  0  0
   -2.8896   -1.7978    0.0000 C   0  0  0  0  0  0  0  0  0  0  0  0
   -1.4799   -1.2851    0.0000 C   0  0  0  0  0  0  0  0  0  0  0  0
   -0.3311   -2.2496    0.0000 C   0  0  0  0  0  0  0  0  0  0  0  0
   -0.5920   -3.7268    0.0000 O   0  0  0  0  0  0  0  0  0  0  0  0
    1.0786   -1.7370    0.0000 C   0  0  0  0  0  0  0  0  0  0  0  0
    1.3394   -0.2598    0.0000 C   0  0  0  0  0  0  0  0  0  0  0  0
    2.7491    0.2528    0.0000 C   0  0  0  0  0  0  0  0  0  0  0  0
    3.0100    1.7300    0.0000 C   0  0  0  0  0  0  0  0  0  0  0  0
    4.4196    2.2426    0.0000 O   0  0  0  0  0  0  0  0  0  0  0  0
    5.5685    1.2781    0.0000 C   0  0  0  0  0  0  0  0  0  0  0  0
    5.3076   -0.1990    0.0000 O   0  0  0  0  0  0  0  0  0  0  0  0
    6.4564   -1.1635    0.0000 C   0  0  0  0  0  0  0  0  0  0  0  0
    6.1955   -2.6406    0.0000 C   0  0  0  0  0  0  0  0  0  0  0  0
    4.7859   -3.1533    0.0000 O   0  0  0  0  0  0  0  0  0  0  0  0
    7.8661   -0.6508    0.0000 C   0  0  0  0  0  0  0  0  0  0  0  0
    9.0149   -1.6153    0.0000 O   0  0  0  0  0  0  0  0  0  0  0  0
    8.1269    0.8263    0.0000 C   0  0  0  0  0  0  0  0  0  0  0  0
    9.5366    1.3390    0.0000 O   0  0  0  0  0  0  0  0  0  0  0  0
    6.9781    1.7908    0.0000 C   0  0  0  0  0  0  0  0  0  0  0  0
    7.2390    3.2679    0.0000 O   0  0  0  0  0  0  0  0  0  0  0  0
    1.8612    2.6945    0.0000 C   0  0  0  0  0  0  0  0  0  0  0  0
    0.4515    2.1818    0.0000 C   0  0  0  0  0  0  0  0  0  0  0  0
    0.1906    0.7047    0.0000 C   0  0  0  0  0  0  0  0  0  0  0  0
   -0.9582    1.6691    0.0000 C   0  0  0  0  0  0  0  0  0  0  0  0
   -1.2191    0.1920    0.0000 C   0  0  0  0  0  0  0  0  0  0  0  0
   -2.3679    1.1565    0.0000 C   0  0  0  0  0  0  0  0  0  0  0  0
   -3.7775    0.6438    0.0000 C   0  0  0  0  0  0  0  0  0  0  0  0
   -4.0384   -0.8333    0.0000 C   0  0  0  0  0  0  0  0  0  0  0  0
   -5.2817    0.0058    0.0000 C   0  0  0  0  0  0  0  0  0  0  0  0
  1  2  1  0
  2  3  2  0
  2  4  1  0
  4  5  1  0
  5  6  1  0
  6  7  1  6
  6  8  1  0
  8  9  1  6
  9 10  1  0
 11 10  1  6
 11 12  1  0
 12 13  1  1
 13 14  1  1
 13 15  1  0
 16 15  1  1
 16 17  1  0
 17 18  1  0
 18 19  1  1
 20 19  1  1
 20 21  1  0
 21 22  1  0
 22 23  1  1
 23 24  1  0
 22 25  1  0
 25 26  1  6
 25 27  1  0
 27 28  1  1
 27 29  1  0
 29 30  1  6
 18 31  1  0
 31 32  1  0
 32 33  1  0
 33 34  1  6
 33 35  1  0
 35 36  1  6
 36 37  1  0
 37 38  1  0
 38 39  1  6
 38  8  1  0
 38 11  1  0
 35 12  1  0
 33 16  1  0
 29 20  1  0
M  END
>  <MS_ID>  (1518) 
MS1580

>  <SMILES>  (1518) 
CC(=O)CC[C@@H](C)[C@H]1CC[C@H]2[C@@H]3[C@H](O)C[C@@H]4C[C@H](O[C@@H]5O[C@H](CO)[C@@H](O)[C@H](O)[C@H]5O)CC[C@]4(C)[C@H]3CC[C@]12C

>  <Structure_dimension>  (1518) 
2D

$$$$
MS1581
     RDKit          2D

 37 41  0  0  0  0  0  0  0  0999 V2000
   -1.6283   -3.9909    0.0000 C   0  0  0  0  0  0  0  0  0  0  0  0
   -0.8318   -2.7198    0.0000 C   0  0  0  0  0  0  0  0  0  0  0  0
   -1.5343   -1.3945    0.0000 C   0  0  0  0  0  0  0  0  0  0  0  0
   -3.0333   -1.3402    0.0000 C   0  0  0  0  0  0  0  0  0  0  0  0
   -3.7358   -0.0148    0.0000 C   0  0  0  0  0  0  0  0  0  0  0  0
   -2.9393    1.2562    0.0000 O   0  0  0  0  0  0  0  0  0  0  0  0
   -5.2348    0.0395    0.0000 C   0  0  0  0  0  0  0  0  0  0  0  0
   -5.9373    1.3648    0.0000 C   0  0  0  0  0  0  0  0  0  0  0  0
   -7.4363    1.4191    0.0000 C   0  0  0  0  0  0  0  0  0  0  0  0
   -8.1388    2.7444    0.0000 C   0  0  0  0  0  0  0  0  0  0  0  0
   -9.6378    2.7987    0.0000 C   0  0  0  0  0  0  0  0  0  0  0  0
  -10.4343    1.5277    0.0000 C   0  0  0  0  0  0  0  0  0  0  0  0
   -9.7319    0.2024    0.0000 C   0  0  0  0  0  0  0  0  0  0  0  0
  -10.5284   -1.0687    0.0000 O   0  0  0  0  0  0  0  0  0  0  0  0
   -8.2328    0.1481    0.0000 C   0  0  0  0  0  0  0  0  0  0  0  0
    0.6672   -2.7741    0.0000 C   0  0  0  0  0  0  0  0  0  0  0  0
    1.5044   -4.0188    0.0000 C   0  0  0  0  0  0  0  0  0  0  0  0
    2.9468   -3.6072    0.0000 C   0  0  0  0  0  0  0  0  0  0  0  0
    3.0011   -2.1082    0.0000 C   0  0  0  0  0  0  0  0  0  0  0  0
    4.1514   -1.1455    0.0000 C   0  0  0  0  0  0  0  0  0  0  0  0
    5.5603   -1.6603    0.0000 C   0  0  0  0  0  0  0  0  0  0  0  0
    5.8189   -3.1379    0.0000 O   0  0  0  0  0  0  0  0  0  0  0  0
    6.7106   -0.6977    0.0000 C   0  0  0  0  0  0  0  0  0  0  0  0
    6.4521    0.7799    0.0000 C   0  0  0  0  0  0  0  0  0  0  0  0
    7.6024    1.7426    0.0000 C   0  0  0  0  0  0  0  0  0  0  0  0
    7.3438    3.2201    0.0000 C   0  0  0  0  0  0  0  0  0  0  0  0
    8.4942    4.1828    0.0000 O   0  0  0  0  0  0  0  0  0  0  0  0
    5.9350    3.7350    0.0000 C   0  0  0  0  0  0  0  0  0  0  0  0
    4.7846    2.7723    0.0000 C   0  0  0  0  0  0  0  0  0  0  0  0
    5.0432    1.2948    0.0000 C   0  0  0  0  0  0  0  0  0  0  0  0
    3.6343    1.8096    0.0000 C   0  0  0  0  0  0  0  0  0  0  0  0
    3.8929    0.3321    0.0000 C   0  0  0  0  0  0  0  0  0  0  0  0
    2.4840    0.8469    0.0000 C   0  0  0  0  0  0  0  0  0  0  0  0
    1.3337   -0.1158    0.0000 C   0  0  0  0  0  0  0  0  0  0  0  0
   -0.0752    0.3991    0.0000 O   0  0  0  0  0  0  0  0  0  0  0  0
    1.5922   -1.5933    0.0000 C   0  0  0  0  0  0  0  0  0  0  0  0
    0.1373   -1.2285    0.0000 C   0  0  0  0  0  0  0  0  0  0  0  0
  2  1  1  6
  2  3  1  0
  3  4  1  0
  4  5  1  0
  5  6  2  0
  5  7  1  0
  7  8  1  0
  8  9  1  0
  9 10  2  0
 10 11  1  0
 11 12  2  0
 12 13  1  0
 13 14  1  0
 13 15  2  0
  2 16  1  0
 16 17  1  6
 17 18  1  0
 19 18  1  6
 19 20  1  0
 20 21  1  1
 21 22  1  1
 21 23  1  0
 24 23  1  1
 24 25  1  0
 25 26  1  0
 26 27  1  1
 26 28  1  0
 28 29  1  0
 29 30  1  0
 30 31  1  6
 30 32  1  0
 32 33  1  6
 33 34  1  0
 34 35  1  1
 34 36  1  0
 36 37  1  6
 15  9  1  0
 36 16  1  0
 36 19  1  0
 32 20  1  0
 30 24  1  0
M  END
>  <MS_ID>  (1519) 
MS1581

>  <SMILES>  (1519) 
C[C@H](CCC(=O)CCc1cccc(O)c1)[C@H]1CC[C@H]2[C@@H]3[C@H](O)C[C@@H]4C[C@H](O)CC[C@]4(C)[C@H]3C[C@H](O)[C@]12C

>  <Structure_dimension>  (1519) 
2D

$$$$
MS1582
     RDKit          2D

 32 36  0  0  0  0  0  0  0  0999 V2000
   -3.4960   -3.2106    0.0000 C   0  0  0  0  0  0  0  0  0  0  0  0
   -2.5154   -2.0755    0.0000 C   0  0  0  0  0  0  0  0  0  0  0  0
   -3.0082   -0.6588    0.0000 C   0  0  0  0  0  0  0  0  0  0  0  0
   -4.4815   -0.3771    0.0000 C   0  0  0  0  0  0  0  0  0  0  0  0
   -4.9742    1.0397    0.0000 C   0  0  0  0  0  0  0  0  0  0  0  0
   -3.9936    2.1748    0.0000 O   0  0  0  0  0  0  0  0  0  0  0  0
   -6.4475    1.3214    0.0000 C   0  0  0  0  0  0  0  0  0  0  0  0
   -7.5414    0.2950    0.0000 C   0  0  0  0  0  0  0  0  0  0  0  0
   -8.8556    1.0181    0.0000 C   0  0  0  0  0  0  0  0  0  0  0  0
   -8.5739    2.4915    0.0000 C   0  0  0  0  0  0  0  0  0  0  0  0
   -7.0856    2.6789    0.0000 S   0  0  0  0  0  0  0  0  0  0  0  0
   -1.0421   -2.3572    0.0000 C   0  0  0  0  0  0  0  0  0  0  0  0
   -0.4040   -3.7147    0.0000 C   0  0  0  0  0  0  0  0  0  0  0  0
    1.0842   -3.5273    0.0000 C   0  0  0  0  0  0  0  0  0  0  0  0
    1.3659   -2.0540    0.0000 C   0  0  0  0  0  0  0  0  0  0  0  0
    2.6493   -1.2775    0.0000 C   0  0  0  0  0  0  0  0  0  0  0  0
    3.9634   -2.0006    0.0000 C   0  0  0  0  0  0  0  0  0  0  0  0
    3.9942   -3.5003    0.0000 O   0  0  0  0  0  0  0  0  0  0  0  0
    5.2468   -1.2241    0.0000 C   0  0  0  0  0  0  0  0  0  0  0  0
    5.2160    0.2756    0.0000 C   0  0  0  0  0  0  0  0  0  0  0  0
    6.4994    1.0521    0.0000 C   0  0  0  0  0  0  0  0  0  0  0  0
    6.4685    2.5518    0.0000 C   0  0  0  0  0  0  0  0  0  0  0  0
    7.7519    3.3283    0.0000 O   0  0  0  0  0  0  0  0  0  0  0  0
    5.1544    3.2749    0.0000 C   0  0  0  0  0  0  0  0  0  0  0  0
    3.8710    2.4984    0.0000 C   0  0  0  0  0  0  0  0  0  0  0  0
    3.9018    0.9987    0.0000 C   0  0  0  0  0  0  0  0  0  0  0  0
    2.5877    1.7219    0.0000 C   0  0  0  0  0  0  0  0  0  0  0  0
    2.6185    0.2222    0.0000 C   0  0  0  0  0  0  0  0  0  0  0  0
    1.3043    0.9454    0.0000 C   0  0  0  0  0  0  0  0  0  0  0  0
    0.0209    0.1689    0.0000 C   0  0  0  0  0  0  0  0  0  0  0  0
    0.0517   -1.3308    0.0000 C   0  0  0  0  0  0  0  0  0  0  0  0
   -1.3308   -0.7490    0.0000 C   0  0  0  0  0  0  0  0  0  0  0  0
  2  1  1  6
  2  3  1  0
  3  4  1  0
  4  5  1  0
  5  6  2  0
  5  7  1  0
  7  8  2  0
  8  9  1  0
  9 10  2  0
 10 11  1  0
  2 12  1  0
 12 13  1  6
 13 14  1  0
 15 14  1  6
 15 16  1  0
 16 17  1  1
 17 18  1  1
 17 19  1  0
 20 19  1  1
 20 21  1  0
 21 22  1  0
 22 23  1  1
 22 24  1  0
 24 25  1  0
 25 26  1  0
 26 27  1  6
 26 28  1  0
 28 29  1  6
 29 30  1  0
 30 31  1  0
 31 32  1  6
 11  7  1  0
 31 12  1  0
 31 15  1  0
 28 16  1  0
 26 20  1  0
M  END
>  <MS_ID>  (1520) 
MS1582

>  <SMILES>  (1520) 
C[C@H](CCC(=O)c1cccs1)[C@H]1CC[C@H]2[C@@H]3[C@H](O)C[C@@H]4C[C@H](O)CC[C@]4(C)[C@H]3CC[C@]12C

>  <Structure_dimension>  (1520) 
2D

$$$$
MS1583
     RDKit          2D

 40 44  0  0  0  0  0  0  0  0999 V2000
   -7.7456   -2.0849    0.0000 C   0  0  0  0  0  0  0  0  0  0  0  0
   -6.5700   -1.1533    0.0000 C   0  0  0  0  0  0  0  0  0  0  0  0
   -6.7891    0.3307    0.0000 C   0  0  0  0  0  0  0  0  0  0  0  0
   -8.1837    0.8829    0.0000 C   0  0  0  0  0  0  0  0  0  0  0  0
   -8.4028    2.3668    0.0000 C   0  0  0  0  0  0  0  0  0  0  0  0
   -7.2273    3.2985    0.0000 O   0  0  0  0  0  0  0  0  0  0  0  0
   -9.7975    2.9190    0.0000 O   0  0  0  0  0  0  0  0  0  0  0  0
   -5.1754   -1.7055    0.0000 C   0  0  0  0  0  0  0  0  0  0  0  0
   -4.8024   -3.1584    0.0000 C   0  0  0  0  0  0  0  0  0  0  0  0
   -3.3053   -3.2526    0.0000 C   0  0  0  0  0  0  0  0  0  0  0  0
   -2.7531   -1.8579    0.0000 C   0  0  0  0  0  0  0  0  0  0  0  0
   -1.3472   -1.3351    0.0000 C   0  0  0  0  0  0  0  0  0  0  0  0
   -0.1914   -2.2913    0.0000 C   0  0  0  0  0  0  0  0  0  0  0  0
   -0.4416   -3.7703    0.0000 O   0  0  0  0  0  0  0  0  0  0  0  0
    1.2145   -1.7685    0.0000 C   0  0  0  0  0  0  0  0  0  0  0  0
    1.4647   -0.2895    0.0000 C   0  0  0  0  0  0  0  0  0  0  0  0
    2.8707    0.2333    0.0000 C   0  0  0  0  0  0  0  0  0  0  0  0
    3.1208    1.7123    0.0000 C   0  0  0  0  0  0  0  0  0  0  0  0
    4.5268    2.2352    0.0000 O   0  0  0  0  0  0  0  0  0  0  0  0
    5.6825    1.2790    0.0000 C   0  0  0  0  0  0  0  0  0  0  0  0
    5.4323   -0.2000    0.0000 O   0  0  0  0  0  0  0  0  0  0  0  0
    6.5881   -1.1562    0.0000 C   0  0  0  0  0  0  0  0  0  0  0  0
    6.3379   -2.6351    0.0000 C   0  0  0  0  0  0  0  0  0  0  0  0
    4.9320   -3.1580    0.0000 O   0  0  0  0  0  0  0  0  0  0  0  0
    7.9940   -0.6333    0.0000 C   0  0  0  0  0  0  0  0  0  0  0  0
    9.1498   -1.5895    0.0000 O   0  0  0  0  0  0  0  0  0  0  0  0
    8.2442    0.8456    0.0000 C   0  0  0  0  0  0  0  0  0  0  0  0
    9.6501    1.3685    0.0000 O   0  0  0  0  0  0  0  0  0  0  0  0
    7.0885    1.8018    0.0000 C   0  0  0  0  0  0  0  0  0  0  0  0
    7.3387    3.2808    0.0000 O   0  0  0  0  0  0  0  0  0  0  0  0
    1.9651    2.6685    0.0000 C   0  0  0  0  0  0  0  0  0  0  0  0
    0.5592    2.1457    0.0000 C   0  0  0  0  0  0  0  0  0  0  0  0
    0.3090    0.6667    0.0000 C   0  0  0  0  0  0  0  0  0  0  0  0
   -0.8468    1.6229    0.0000 C   0  0  0  0  0  0  0  0  0  0  0  0
   -1.0970    0.1439    0.0000 C   0  0  0  0  0  0  0  0  0  0  0  0
   -2.2527    1.1000    0.0000 C   0  0  0  0  0  0  0  0  0  0  0  0
   -3.6586    0.5772    0.0000 C   0  0  0  0  0  0  0  0  0  0  0  0
   -4.8144    1.5334    0.0000 O   0  0  0  0  0  0  0  0  0  0  0  0
   -3.9088   -0.9018    0.0000 C   0  0  0  0  0  0  0  0  0  0  0  0
   -5.1582   -0.0716    0.0000 C   0  0  0  0  0  0  0  0  0  0  0  0
  2  1  1  6
  2  3  1  0
  3  4  1  0
  4  5  1  0
  5  6  2  0
  5  7  1  0
  2  8  1  0
  8  9  1  6
  9 10  1  0
 11 10  1  6
 11 12  1  0
 12 13  1  1
 13 14  1  1
 13 15  1  0
 16 15  1  1
 16 17  1  0
 17 18  1  0
 18 19  1  1
 20 19  1  6
 20 21  1  0
 21 22  1  0
 22 23  1  6
 23 24  1  0
 22 25  1  0
 25 26  1  6
 25 27  1  0
 27 28  1  1
 27 29  1  0
 29 30  1  6
 18 31  1  0
 31 32  1  0
 32 33  1  0
 33 34  1  6
 33 35  1  0
 35 36  1  6
 36 37  1  0
 37 38  1  1
 37 39  1  0
 39 40  1  6
 39  8  1  0
 39 11  1  0
 35 12  1  0
 33 16  1  0
 29 20  1  0
M  END
>  <MS_ID>  (1521) 
MS1583

>  <SMILES>  (1521) 
C[C@H](CCC(=O)O)[C@H]1CC[C@H]2[C@@H]3[C@H](O)C[C@@H]4C[C@H](O[C@H]5O[C@@H](CO)[C@@H](O)[C@H](O)[C@H]5O)CC[C@]4(C)[C@H]3C[C@H](O)[C@]12C

>  <Structure_dimension>  (1521) 
2D

$$$$
MS1584
     RDKit          2D

 32 35  0  0  0  0  0  0  0  0999 V2000
   -3.4546   -3.6059    0.0000 C   0  0  0  0  0  0  0  0  0  0  0  0
   -2.5561   -2.4048    0.0000 C   0  0  0  0  0  0  0  0  0  0  0  0
   -3.1471   -1.0261    0.0000 C   0  0  0  0  0  0  0  0  0  0  0  0
   -4.6366   -0.8486    0.0000 C   0  0  0  0  0  0  0  0  0  0  0  0
   -5.2276    0.5301    0.0000 C   0  0  0  0  0  0  0  0  0  0  0  0
   -4.3291    1.7312    0.0000 O   0  0  0  0  0  0  0  0  0  0  0  0
   -6.7170    0.7076    0.0000 O   0  0  0  0  0  0  0  0  0  0  0  0
   -7.3080    2.0863    0.0000 C   0  0  0  0  0  0  0  0  0  0  0  0
   -8.7975    2.2638    0.0000 C   0  0  0  0  0  0  0  0  0  0  0  0
   -9.3885    3.6424    0.0000 O   0  0  0  0  0  0  0  0  0  0  0  0
   -1.0667   -2.5823    0.0000 C   0  0  0  0  0  0  0  0  0  0  0  0
   -0.3348   -3.8917    0.0000 C   0  0  0  0  0  0  0  0  0  0  0  0
    1.1366   -3.6002    0.0000 C   0  0  0  0  0  0  0  0  0  0  0  0
    1.3141   -2.1108    0.0000 C   0  0  0  0  0  0  0  0  0  0  0  0
    2.5398   -1.2460    0.0000 C   0  0  0  0  0  0  0  0  0  0  0  0
    3.9015   -1.8751    0.0000 C   0  0  0  0  0  0  0  0  0  0  0  0
    4.0375   -3.3690    0.0000 O   0  0  0  0  0  0  0  0  0  0  0  0
    5.1272   -1.0104    0.0000 C   0  0  0  0  0  0  0  0  0  0  0  0
    4.9911    0.4834    0.0000 C   0  0  0  0  0  0  0  0  0  0  0  0
    6.2168    1.3481    0.0000 C   0  0  0  0  0  0  0  0  0  0  0  0
    6.0808    2.8419    0.0000 C   0  0  0  0  0  0  0  0  0  0  0  0
    7.3064    3.7067    0.0000 O   0  0  0  0  0  0  0  0  0  0  0  0
    4.7191    3.4710    0.0000 C   0  0  0  0  0  0  0  0  0  0  0  0
    3.4934    2.6063    0.0000 C   0  0  0  0  0  0  0  0  0  0  0  0
    3.6294    1.1125    0.0000 C   0  0  0  0  0  0  0  0  0  0  0  0
    2.2677    1.7416    0.0000 C   0  0  0  0  0  0  0  0  0  0  0  0
    2.4038    0.2478    0.0000 C   0  0  0  0  0  0  0  0  0  0  0  0
    1.0421    0.8769    0.0000 C   0  0  0  0  0  0  0  0  0  0  0  0
   -0.1836    0.0122    0.0000 C   0  0  0  0  0  0  0  0  0  0  0  0
   -1.5453    0.6413    0.0000 O   0  0  0  0  0  0  0  0  0  0  0  0
   -0.0476   -1.4817    0.0000 C   0  0  0  0  0  0  0  0  0  0  0  0
   -1.4676   -0.9983    0.0000 C   0  0  0  0  0  0  0  0  0  0  0  0
  2  1  1  6
  2  3  1  0
  3  4  1  0
  4  5  1  0
  5  6  2  0
  5  7  1  0
  7  8  1  0
  8  9  1  0
  9 10  1  0
  2 11  1  0
 11 12  1  6
 12 13  1  0
 14 13  1  6
 14 15  1  0
 15 16  1  1
 16 17  1  6
 16 18  1  0
 19 18  1  1
 19 20  1  0
 20 21  1  0
 21 22  1  1
 21 23  1  0
 23 24  1  0
 24 25  1  0
 25 26  1  6
 25 27  1  0
 27 28  1  6
 28 29  1  0
 29 30  2  0
 29 31  1  0
 31 32  1  6
 31 11  1  0
 31 14  1  0
 27 15  1  0
 25 19  1  0
M  END
>  <MS_ID>  (1522) 
MS1584

>  <SMILES>  (1522) 
C[C@H](CCC(=O)OCCO)[C@H]1CC[C@H]2[C@@H]3[C@@H](O)C[C@@H]4C[C@H](O)CC[C@]4(C)[C@H]3CC(=O)[C@]12C

>  <Structure_dimension>  (1522) 
2D

$$$$
MS1585
     RDKit          2D

 31 34  0  0  0  0  0  0  0  0999 V2000
   -4.9948   -2.3959    0.0000 C   0  0  0  0  0  0  0  0  0  0  0  0
   -3.9438   -1.3256    0.0000 C   0  0  0  0  0  0  0  0  0  0  0  0
   -4.3452    0.1197    0.0000 C   0  0  0  0  0  0  0  0  0  0  0  0
   -5.7976    0.4947    0.0000 C   0  0  0  0  0  0  0  0  0  0  0  0
   -6.1990    1.9400    0.0000 C   0  0  0  0  0  0  0  0  0  0  0  0
   -5.1480    3.0103    0.0000 O   0  0  0  0  0  0  0  0  0  0  0  0
   -7.6514    2.3150    0.0000 O   0  0  0  0  0  0  0  0  0  0  0  0
   -2.4914   -1.7006    0.0000 C   0  0  0  0  0  0  0  0  0  0  0  0
   -1.9412   -3.0960    0.0000 C   0  0  0  0  0  0  0  0  0  0  0  0
   -0.4440   -3.0039    0.0000 C   0  0  0  0  0  0  0  0  0  0  0  0
   -0.0690   -1.5515    0.0000 C   0  0  0  0  0  0  0  0  0  0  0  0
    1.2613   -0.8584    0.0000 C   0  0  0  0  0  0  0  0  0  0  0  0
    2.5267   -1.6638    0.0000 C   0  0  0  0  0  0  0  0  0  0  0  0
    2.4618   -3.1624    0.0000 C   0  0  0  0  0  0  0  0  0  0  0  0
    3.7272   -3.9679    0.0000 C   0  0  0  0  0  0  0  0  0  0  0  0
    3.6624   -5.4665    0.0000 O   0  0  0  0  0  0  0  0  0  0  0  0
    3.8569   -0.9707    0.0000 C   0  0  0  0  0  0  0  0  0  0  0  0
    3.9218    0.5279    0.0000 C   0  0  0  0  0  0  0  0  0  0  0  0
    5.2520    1.2210    0.0000 C   0  0  0  0  0  0  0  0  0  0  0  0
    5.3169    2.7196    0.0000 C   0  0  0  0  0  0  0  0  0  0  0  0
    6.6471    3.4128    0.0000 O   0  0  0  0  0  0  0  0  0  0  0  0
    4.0515    3.5251    0.0000 C   0  0  0  0  0  0  0  0  0  0  0  0
    2.7212    2.8319    0.0000 C   0  0  0  0  0  0  0  0  0  0  0  0
    2.6564    1.3334    0.0000 C   0  0  0  0  0  0  0  0  0  0  0  0
    1.3910    2.1388    0.0000 C   0  0  0  0  0  0  0  0  0  0  0  0
    1.3261    0.6402    0.0000 C   0  0  0  0  0  0  0  0  0  0  0  0
    0.0607    1.4457    0.0000 C   0  0  0  0  0  0  0  0  0  0  0  0
   -1.2695    0.7525    0.0000 C   0  0  0  0  0  0  0  0  0  0  0  0
   -2.5349    1.5580    0.0000 O   0  0  0  0  0  0  0  0  0  0  0  0
   -1.3344   -0.7460    0.0000 C   0  0  0  0  0  0  0  0  0  0  0  0
   -2.6770   -0.0773    0.0000 C   0  0  0  0  0  0  0  0  0  0  0  0
  2  1  1  6
  2  3  1  0
  3  4  1  0
  4  5  1  0
  5  6  2  0
  5  7  1  0
  2  8  1  0
  8  9  1  6
  9 10  1  0
 11 10  1  6
 11 12  1  0
 12 13  1  1
 13 14  1  6
 14 15  1  0
 15 16  1  0
 13 17  1  0
 18 17  1  1
 18 19  1  0
 19 20  1  0
 20 21  1  1
 20 22  1  0
 22 23  1  0
 23 24  1  0
 24 25  1  6
 24 26  1  0
 26 27  1  6
 27 28  1  0
 28 29  1  1
 28 30  1  0
 30 31  1  6
 30  8  1  0
 30 11  1  0
 26 12  1  0
 24 18  1  0
M  END
>  <MS_ID>  (1523) 
MS1585

>  <SMILES>  (1523) 
C[C@H](CCC(=O)O)[C@H]1CC[C@H]2[C@@H]3[C@@H](CCO)C[C@@H]4C[C@H](O)CC[C@]4(C)[C@H]3C[C@H](O)[C@]12C

>  <Structure_dimension>  (1523) 
2D

$$$$
MS1586
     RDKit          2D

 28 31  0  0  0  0  0  0  0  0999 V2000
   -5.0096   -2.1352    0.0000 C   0  0  0  0  0  0  0  0  0  0  0  0
   -3.8132   -1.2303    0.0000 C   0  0  0  0  0  0  0  0  0  0  0  0
   -3.9987    0.2582    0.0000 C   0  0  0  0  0  0  0  0  0  0  0  0
   -5.3805    0.8418    0.0000 C   0  0  0  0  0  0  0  0  0  0  0  0
   -5.5659    2.3303    0.0000 C   0  0  0  0  0  0  0  0  0  0  0  0
   -6.9477    2.9140    0.0000 N   0  0  0  0  0  0  0  0  0  0  0  0
   -4.3695    3.2351    0.0000 O   0  0  0  0  0  0  0  0  0  0  0  0
   -2.4315   -1.8140    0.0000 C   0  0  0  0  0  0  0  0  0  0  0  0
   -2.0914   -3.2749    0.0000 C   0  0  0  0  0  0  0  0  0  0  0  0
   -0.5969   -3.4030    0.0000 C   0  0  0  0  0  0  0  0  0  0  0  0
   -0.0133   -2.0212    0.0000 C   0  0  0  0  0  0  0  0  0  0  0  0
    1.4041   -1.5304    0.0000 C   0  0  0  0  0  0  0  0  0  0  0  0
    2.5379   -2.5125    0.0000 C   0  0  0  0  0  0  0  0  0  0  0  0
    3.9554   -2.0216    0.0000 C   0  0  0  0  0  0  0  0  0  0  0  0
    4.2390   -0.5487    0.0000 C   0  0  0  0  0  0  0  0  0  0  0  0
    5.6564   -0.0578    0.0000 C   0  0  0  0  0  0  0  0  0  0  0  0
    5.9400    1.4151    0.0000 C   0  0  0  0  0  0  0  0  0  0  0  0
    7.3574    1.9060    0.0000 O   0  0  0  0  0  0  0  0  0  0  0  0
    4.8062    2.3972    0.0000 C   0  0  0  0  0  0  0  0  0  0  0  0
    3.3888    1.9064    0.0000 C   0  0  0  0  0  0  0  0  0  0  0  0
    3.1052    0.4334    0.0000 C   0  0  0  0  0  0  0  0  0  0  0  0
    1.9714    1.4155    0.0000 C   0  0  0  0  0  0  0  0  0  0  0  0
    1.6878   -0.0574    0.0000 C   0  0  0  0  0  0  0  0  0  0  0  0
    0.5540    0.9246    0.0000 C   0  0  0  0  0  0  0  0  0  0  0  0
   -0.8635    0.4338    0.0000 C   0  0  0  0  0  0  0  0  0  0  0  0
   -1.9973    1.4159    0.0000 O   0  0  0  0  0  0  0  0  0  0  0  0
   -1.1471   -1.0392    0.0000 C   0  0  0  0  0  0  0  0  0  0  0  0
   -2.3773   -0.1810    0.0000 C   0  0  0  0  0  0  0  0  0  0  0  0
  2  1  1  6
  2  3  1  0
  3  4  1  0
  4  5  1  0
  5  6  1  0
  5  7  2  0
  2  8  1  0
  8  9  1  6
  9 10  1  0
 11 10  1  6
 11 12  1  0
 12 13  1  1
 13 14  1  0
 15 14  1  1
 15 16  1  0
 16 17  1  0
 17 18  1  6
 17 19  1  0
 19 20  1  0
 20 21  1  0
 21 22  1  6
 21 23  1  0
 23 24  1  6
 24 25  1  0
 25 26  1  6
 25 27  1  0
 27 28  1  6
 27  8  1  0
 27 11  1  0
 23 12  1  0
 21 15  1  0
M  END
>  <MS_ID>  (1524) 
MS1586

>  <SMILES>  (1524) 
C[C@H](CCC(N)=O)[C@H]1CC[C@H]2[C@@H]3CC[C@@H]4C[C@@H](O)CC[C@]4(C)[C@H]3C[C@@H](O)[C@]12C

>  <Structure_dimension>  (1524) 
2D

$$$$
MS1587
     RDKit          2D

 36 40  0  0  0  0  0  0  0  0999 V2000
   -1.6305   -3.9797    0.0000 C   0  0  0  0  0  0  0  0  0  0  0  0
   -0.8340   -2.7087    0.0000 C   0  0  0  0  0  0  0  0  0  0  0  0
   -1.5364   -1.3833    0.0000 C   0  0  0  0  0  0  0  0  0  0  0  0
   -3.0354   -1.3290    0.0000 C   0  0  0  0  0  0  0  0  0  0  0  0
   -3.7379   -0.0036    0.0000 C   0  0  0  0  0  0  0  0  0  0  0  0
   -2.9413    1.2674    0.0000 O   0  0  0  0  0  0  0  0  0  0  0  0
   -5.2369    0.0507    0.0000 O   0  0  0  0  0  0  0  0  0  0  0  0
   -5.9393    1.3761    0.0000 C   0  0  0  0  0  0  0  0  0  0  0  0
   -7.4384    1.4304    0.0000 C   0  0  0  0  0  0  0  0  0  0  0  0
   -8.1408    2.7558    0.0000 C   0  0  0  0  0  0  0  0  0  0  0  0
   -9.6398    2.8101    0.0000 C   0  0  0  0  0  0  0  0  0  0  0  0
  -10.4364    1.5391    0.0000 C   0  0  0  0  0  0  0  0  0  0  0  0
   -9.7339    0.2137    0.0000 C   0  0  0  0  0  0  0  0  0  0  0  0
  -10.5305   -1.0573    0.0000 O   0  0  0  0  0  0  0  0  0  0  0  0
   -8.2349    0.1594    0.0000 C   0  0  0  0  0  0  0  0  0  0  0  0
    0.6650   -2.7630    0.0000 C   0  0  0  0  0  0  0  0  0  0  0  0
    1.5022   -4.0077    0.0000 C   0  0  0  0  0  0  0  0  0  0  0  0
    2.9446   -3.5962    0.0000 C   0  0  0  0  0  0  0  0  0  0  0  0
    2.9990   -2.0972    0.0000 C   0  0  0  0  0  0  0  0  0  0  0  0
    4.1493   -1.1345    0.0000 C   0  0  0  0  0  0  0  0  0  0  0  0
    5.5582   -1.6494    0.0000 C   0  0  0  0  0  0  0  0  0  0  0  0
    5.8167   -3.1270    0.0000 O   0  0  0  0  0  0  0  0  0  0  0  0
    6.7085   -0.6868    0.0000 C   0  0  0  0  0  0  0  0  0  0  0  0
    6.4500    0.7908    0.0000 C   0  0  0  0  0  0  0  0  0  0  0  0
    7.6004    1.7534    0.0000 C   0  0  0  0  0  0  0  0  0  0  0  0
    7.3418    3.2310    0.0000 C   0  0  0  0  0  0  0  0  0  0  0  0
    8.4922    4.1936    0.0000 O   0  0  0  0  0  0  0  0  0  0  0  0
    5.9330    3.7459    0.0000 C   0  0  0  0  0  0  0  0  0  0  0  0
    4.7826    2.7832    0.0000 C   0  0  0  0  0  0  0  0  0  0  0  0
    5.0412    1.3057    0.0000 C   0  0  0  0  0  0  0  0  0  0  0  0
    3.6323    1.8206    0.0000 C   0  0  0  0  0  0  0  0  0  0  0  0
    3.8908    0.3430    0.0000 C   0  0  0  0  0  0  0  0  0  0  0  0
    2.4819    0.8579    0.0000 C   0  0  0  0  0  0  0  0  0  0  0  0
    1.3316   -0.1047    0.0000 C   0  0  0  0  0  0  0  0  0  0  0  0
    1.5901   -1.5823    0.0000 C   0  0  0  0  0  0  0  0  0  0  0  0
    0.1351   -1.2174    0.0000 C   0  0  0  0  0  0  0  0  0  0  0  0
  2  1  1  6
  2  3  1  0
  3  4  1  0
  4  5  1  0
  5  6  2  0
  5  7  1  0
  7  8  1  0
  8  9  1  0
  9 10  2  0
 10 11  1  0
 11 12  2  0
 12 13  1  0
 13 14  1  0
 13 15  2  0
  2 16  1  0
 16 17  1  6
 17 18  1  0
 19 18  1  6
 19 20  1  0
 20 21  1  1
 21 22  1  1
 21 23  1  0
 24 23  1  1
 24 25  1  0
 25 26  1  0
 26 27  1  1
 26 28  1  0
 28 29  1  0
 29 30  1  0
 30 31  1  6
 30 32  1  0
 32 33  1  6
 33 34  1  0
 34 35  1  0
 35 36  1  6
 15  9  1  0
 35 16  1  0
 35 19  1  0
 32 20  1  0
 30 24  1  0
M  END
>  <MS_ID>  (1525) 
MS1587

>  <SMILES>  (1525) 
C[C@H](CCC(=O)OCc1cccc(O)c1)[C@H]1CC[C@H]2[C@@H]3[C@H](O)C[C@@H]4C[C@H](O)CC[C@]4(C)[C@H]3CC[C@]12C

>  <Structure_dimension>  (1525) 
2D

$$$$
MS1588
     RDKit          2D

 31 34  0  0  0  0  0  0  0  0999 V2000
   -4.9948   -2.3959    0.0000 C   0  0  0  0  0  0  0  0  0  0  0  0
   -3.9438   -1.3256    0.0000 C   0  0  0  0  0  0  0  0  0  0  0  0
   -4.3452    0.1197    0.0000 C   0  0  0  0  0  0  0  0  0  0  0  0
   -5.7976    0.4947    0.0000 C   0  0  0  0  0  0  0  0  0  0  0  0
   -6.1990    1.9400    0.0000 C   0  0  0  0  0  0  0  0  0  0  0  0
   -5.1480    3.0103    0.0000 O   0  0  0  0  0  0  0  0  0  0  0  0
   -7.6514    2.3150    0.0000 O   0  0  0  0  0  0  0  0  0  0  0  0
   -2.4914   -1.7006    0.0000 C   0  0  0  0  0  0  0  0  0  0  0  0
   -1.9412   -3.0960    0.0000 C   0  0  0  0  0  0  0  0  0  0  0  0
   -0.4440   -3.0039    0.0000 C   0  0  0  0  0  0  0  0  0  0  0  0
   -0.0690   -1.5515    0.0000 C   0  0  0  0  0  0  0  0  0  0  0  0
    1.2613   -0.8584    0.0000 C   0  0  0  0  0  0  0  0  0  0  0  0
    2.5267   -1.6638    0.0000 C   0  0  0  0  0  0  0  0  0  0  0  0
    2.4618   -3.1624    0.0000 C   0  0  0  0  0  0  0  0  0  0  0  0
    3.7272   -3.9679    0.0000 C   0  0  0  0  0  0  0  0  0  0  0  0
    3.6624   -5.4665    0.0000 O   0  0  0  0  0  0  0  0  0  0  0  0
    3.8569   -0.9707    0.0000 C   0  0  0  0  0  0  0  0  0  0  0  0
    3.9218    0.5279    0.0000 C   0  0  0  0  0  0  0  0  0  0  0  0
    5.2520    1.2210    0.0000 C   0  0  0  0  0  0  0  0  0  0  0  0
    5.3169    2.7196    0.0000 C   0  0  0  0  0  0  0  0  0  0  0  0
    6.6471    3.4128    0.0000 O   0  0  0  0  0  0  0  0  0  0  0  0
    4.0515    3.5251    0.0000 C   0  0  0  0  0  0  0  0  0  0  0  0
    2.7212    2.8319    0.0000 C   0  0  0  0  0  0  0  0  0  0  0  0
    2.6564    1.3334    0.0000 C   0  0  0  0  0  0  0  0  0  0  0  0
    1.3910    2.1388    0.0000 C   0  0  0  0  0  0  0  0  0  0  0  0
    1.3261    0.6402    0.0000 C   0  0  0  0  0  0  0  0  0  0  0  0
    0.0607    1.4457    0.0000 C   0  0  0  0  0  0  0  0  0  0  0  0
   -1.2695    0.7525    0.0000 C   0  0  0  0  0  0  0  0  0  0  0  0
   -2.5349    1.5580    0.0000 O   0  0  0  0  0  0  0  0  0  0  0  0
   -1.3344   -0.7460    0.0000 C   0  0  0  0  0  0  0  0  0  0  0  0
   -2.6770   -0.0773    0.0000 C   0  0  0  0  0  0  0  0  0  0  0  0
  2  1  1  6
  2  3  1  0
  3  4  1  0
  4  5  1  0
  5  6  2  0
  5  7  1  0
  2  8  1  0
  8  9  1  6
  9 10  1  0
 11 10  1  6
 11 12  1  0
 12 13  1  1
 13 14  1  1
 14 15  1  0
 15 16  1  0
 13 17  1  0
 18 17  1  1
 18 19  1  0
 19 20  1  0
 20 21  1  6
 20 22  1  0
 22 23  1  0
 23 24  1  0
 24 25  1  6
 24 26  1  0
 26 27  1  6
 27 28  1  0
 28 29  1  1
 28 30  1  0
 30 31  1  6
 30  8  1  0
 30 11  1  0
 26 12  1  0
 24 18  1  0
M  END
>  <MS_ID>  (1526) 
MS1588

>  <SMILES>  (1526) 
C[C@H](CCC(=O)O)[C@H]1CC[C@H]2[C@@H]3[C@H](CCO)C[C@@H]4C[C@@H](O)CC[C@]4(C)[C@H]3C[C@H](O)[C@]12C

>  <Structure_dimension>  (1526) 
2D

$$$$
MS1589
     RDKit          2D

 30 33  0  0  0  0  0  0  0  0999 V2000
   -4.3209   -2.7536    0.0000 C   0  0  0  0  0  0  0  0  0  0  0  0
   -3.2523   -1.7010    0.0000 C   0  0  0  0  0  0  0  0  0  0  0  0
   -3.6295   -0.2492    0.0000 C   0  0  0  0  0  0  0  0  0  0  0  0
   -5.0755    0.1499    0.0000 C   0  0  0  0  0  0  0  0  0  0  0  0
   -5.4527    1.6017    0.0000 C   0  0  0  0  0  0  0  0  0  0  0  0
   -4.3841    2.6543    0.0000 O   0  0  0  0  0  0  0  0  0  0  0  0
   -6.8987    2.0009    0.0000 N   0  0  0  0  0  0  0  0  0  0  0  0
   -7.2759    3.4526    0.0000 C   0  0  0  0  0  0  0  0  0  0  0  0
   -7.9673    0.9482    0.0000 O   0  0  0  0  0  0  0  0  0  0  0  0
   -1.8064   -2.1002    0.0000 C   0  0  0  0  0  0  0  0  0  0  0  0
   -1.2794   -3.5046    0.0000 C   0  0  0  0  0  0  0  0  0  0  0  0
    0.2191   -3.4374    0.0000 C   0  0  0  0  0  0  0  0  0  0  0  0
    0.6183   -1.9915    0.0000 C   0  0  0  0  0  0  0  0  0  0  0  0
    1.9599   -1.3206    0.0000 C   0  0  0  0  0  0  0  0  0  0  0  0
    3.2117   -2.1470    0.0000 C   0  0  0  0  0  0  0  0  0  0  0  0
    3.1219   -3.6443    0.0000 O   0  0  0  0  0  0  0  0  0  0  0  0
    4.5533   -1.4762    0.0000 C   0  0  0  0  0  0  0  0  0  0  0  0
    4.6431    0.0211    0.0000 C   0  0  0  0  0  0  0  0  0  0  0  0
    5.9847    0.6920    0.0000 C   0  0  0  0  0  0  0  0  0  0  0  0
    6.0745    2.1893    0.0000 C   0  0  0  0  0  0  0  0  0  0  0  0
    7.4161    2.8602    0.0000 O   0  0  0  0  0  0  0  0  0  0  0  0
    4.8227    3.0158    0.0000 C   0  0  0  0  0  0  0  0  0  0  0  0
    3.4811    2.3449    0.0000 C   0  0  0  0  0  0  0  0  0  0  0  0
    3.3913    0.8476    0.0000 C   0  0  0  0  0  0  0  0  0  0  0  0
    2.1395    1.6740    0.0000 C   0  0  0  0  0  0  0  0  0  0  0  0
    2.0497    0.1767    0.0000 C   0  0  0  0  0  0  0  0  0  0  0  0
    0.7979    1.0031    0.0000 C   0  0  0  0  0  0  0  0  0  0  0  0
   -0.5437    0.3323    0.0000 C   0  0  0  0  0  0  0  0  0  0  0  0
   -0.6335   -1.1650    0.0000 C   0  0  0  0  0  0  0  0  0  0  0  0
   -1.9649   -0.4740    0.0000 C   0  0  0  0  0  0  0  0  0  0  0  0
  2  1  1  6
  2  3  1  0
  3  4  1  0
  4  5  1  0
  5  6  2  0
  5  7  1  0
  7  8  1  0
  7  9  1  0
  2 10  1  0
 10 11  1  6
 11 12  1  0
 13 12  1  6
 13 14  1  0
 14 15  1  1
 15 16  1  1
 15 17  1  0
 18 17  1  1
 18 19  1  0
 19 20  1  0
 20 21  1  1
 20 22  1  0
 22 23  1  0
 23 24  1  0
 24 25  1  6
 24 26  1  0
 26 27  1  6
 27 28  1  0
 28 29  1  0
 29 30  1  6
 29 10  1  0
 29 13  1  0
 26 14  1  0
 24 18  1  0
M  END
>  <MS_ID>  (1527) 
MS1589

>  <SMILES>  (1527) 
C[C@H](CCC(=O)N(C)O)[C@H]1CC[C@H]2[C@@H]3[C@H](O)C[C@@H]4C[C@H](O)CC[C@]4(C)[C@H]3CC[C@]12C

>  <Structure_dimension>  (1527) 
2D

$$$$
MS1590
     RDKit          2D

 32 35  0  0  0  0  0  0  0  0999 V2000
   -6.1853   -1.9897    0.0000 C   0  0  0  0  0  0  0  0  0  0  0  0
   -4.9559   -1.1303    0.0000 C   0  0  0  0  0  0  0  0  0  0  0  0
   -5.0854    0.3641    0.0000 C   0  0  0  0  0  0  0  0  0  0  0  0
   -6.4444    0.9991    0.0000 C   0  0  0  0  0  0  0  0  0  0  0  0
   -6.5740    2.4935    0.0000 C   0  0  0  0  0  0  0  0  0  0  0  0
   -5.3445    3.3529    0.0000 O   0  0  0  0  0  0  0  0  0  0  0  0
   -7.9329    3.1285    0.0000 O   0  0  0  0  0  0  0  0  0  0  0  0
   -3.5969   -1.7653    0.0000 C   0  0  0  0  0  0  0  0  0  0  0  0
   -3.3119   -3.2380    0.0000 C   0  0  0  0  0  0  0  0  0  0  0  0
   -1.8232   -3.4219    0.0000 C   0  0  0  0  0  0  0  0  0  0  0  0
   -1.1882   -2.0630    0.0000 C   0  0  0  0  0  0  0  0  0  0  0  0
    0.2466   -1.6256    0.0000 C   0  0  0  0  0  0  0  0  0  0  0  0
    1.3428   -2.6494    0.0000 C   0  0  0  0  0  0  0  0  0  0  0  0
    2.7776   -2.2120    0.0000 C   0  0  0  0  0  0  0  0  0  0  0  0
    3.1162   -0.7507    0.0000 C   0  0  0  0  0  0  0  0  0  0  0  0
    4.5510   -0.3133    0.0000 C   0  0  0  0  0  0  0  0  0  0  0  0
    4.8896    1.1480    0.0000 C   0  0  0  0  0  0  0  0  0  0  0  0
    6.3244    1.5854    0.0000 O   0  0  0  0  0  0  0  0  0  0  0  0
    7.4206    0.5615    0.0000 S   0  0  0  0  0  0  0  0  0  0  0  0
    6.3967   -0.5347    0.0000 O   0  0  0  0  0  0  0  0  0  0  0  0
    8.4445    1.6578    0.0000 O   0  0  0  0  0  0  0  0  0  0  0  0
    8.5168   -0.4623    0.0000 O   0  0  0  0  0  0  0  0  0  0  0  0
    3.7934    2.1718    0.0000 C   0  0  0  0  0  0  0  0  0  0  0  0
    2.3586    1.7344    0.0000 C   0  0  0  0  0  0  0  0  0  0  0  0
    2.0200    0.2731    0.0000 C   0  0  0  0  0  0  0  0  0  0  0  0
    0.9238    1.2970    0.0000 C   0  0  0  0  0  0  0  0  0  0  0  0
    0.5852   -0.1643    0.0000 C   0  0  0  0  0  0  0  0  0  0  0  0
   -0.5110    0.8596    0.0000 C   0  0  0  0  0  0  0  0  0  0  0  0
   -1.9458    0.4222    0.0000 C   0  0  0  0  0  0  0  0  0  0  0  0
   -3.0421    1.4460    0.0000 O   0  0  0  0  0  0  0  0  0  0  0  0
   -2.2844   -1.0391    0.0000 C   0  0  0  0  0  0  0  0  0  0  0  0
   -3.4817   -0.1354    0.0000 C   0  0  0  0  0  0  0  0  0  0  0  0
  2  1  1  6
  2  3  1  0
  3  4  1  0
  4  5  1  0
  5  6  2  0
  5  7  1  0
  2  8  1  0
  8  9  1  6
  9 10  1  0
 11 10  1  6
 11 12  1  0
 12 13  1  1
 13 14  1  0
 15 14  1  1
 15 16  1  0
 16 17  1  0
 17 18  1  6
 18 19  1  0
 19 20  2  0
 19 21  2  0
 19 22  1  0
 17 23  1  0
 23 24  1  0
 24 25  1  0
 25 26  1  6
 25 27  1  0
 27 28  1  6
 28 29  1  0
 29 30  1  6
 29 31  1  0
 31 32  1  6
 31  8  1  0
 31 11  1  0
 27 12  1  0
 25 15  1  0
M  END
>  <MS_ID>  (1528) 
MS1590

>  <SMILES>  (1528) 
C[C@H](CCC(=O)O)[C@H]1CC[C@H]2[C@@H]3CC[C@@H]4C[C@@H](OS(=O)(=O)O)CC[C@]4(C)[C@H]3C[C@@H](O)[C@]12C

>  <Structure_dimension>  (1528) 
2D

$$$$
MS1591
     RDKit          2D

 36 40  0  0  0  0  0  0  0  0999 V2000
   -2.2012   -4.2920    0.0000 C   0  0  0  0  0  0  0  0  0  0  0  0
   -1.4864   -2.9733    0.0000 C   0  0  0  0  0  0  0  0  0  0  0  0
   -2.2709   -1.6948    0.0000 C   0  0  0  0  0  0  0  0  0  0  0  0
   -3.7704   -1.7351    0.0000 C   0  0  0  0  0  0  0  0  0  0  0  0
   -4.5550   -0.4566    0.0000 C   0  0  0  0  0  0  0  0  0  0  0  0
   -3.8401    0.8621    0.0000 O   0  0  0  0  0  0  0  0  0  0  0  0
   -6.0544   -0.4969    0.0000 N   0  0  0  0  0  0  0  0  0  0  0  0
   -6.8390    0.7816    0.0000 C   0  0  0  0  0  0  0  0  0  0  0  0
   -6.1242    2.1003    0.0000 C   0  0  0  0  0  0  0  0  0  0  0  0
   -6.9087    3.3787    0.0000 C   0  0  0  0  0  0  0  0  0  0  0  0
   -8.4082    3.3385    0.0000 C   0  0  0  0  0  0  0  0  0  0  0  0
   -9.1231    2.0198    0.0000 C   0  0  0  0  0  0  0  0  0  0  0  0
   -8.3385    0.7413    0.0000 C   0  0  0  0  0  0  0  0  0  0  0  0
   -9.0534   -0.5774    0.0000 O   0  0  0  0  0  0  0  0  0  0  0  0
    0.0131   -2.9330    0.0000 C   0  0  0  0  0  0  0  0  0  0  0  0
    0.9270   -4.1225    0.0000 C   0  0  0  0  0  0  0  0  0  0  0  0
    2.3407   -3.6208    0.0000 C   0  0  0  0  0  0  0  0  0  0  0  0
    2.3004   -2.1214    0.0000 C   0  0  0  0  0  0  0  0  0  0  0  0
    3.3878   -1.0881    0.0000 C   0  0  0  0  0  0  0  0  0  0  0  0
    4.8263   -1.5132    0.0000 C   0  0  0  0  0  0  0  0  0  0  0  0
    5.1774   -2.9715    0.0000 O   0  0  0  0  0  0  0  0  0  0  0  0
    5.9137   -0.4800    0.0000 C   0  0  0  0  0  0  0  0  0  0  0  0
    7.3522   -0.9050    0.0000 O   0  0  0  0  0  0  0  0  0  0  0  0
    5.5626    0.9784    0.0000 C   0  0  0  0  0  0  0  0  0  0  0  0
    6.6500    2.0116    0.0000 C   0  0  0  0  0  0  0  0  0  0  0  0
    6.2988    3.4699    0.0000 C   0  0  0  0  0  0  0  0  0  0  0  0
    7.3862    4.5032    0.0000 O   0  0  0  0  0  0  0  0  0  0  0  0
    4.8603    3.8950    0.0000 C   0  0  0  0  0  0  0  0  0  0  0  0
    3.7729    2.8618    0.0000 C   0  0  0  0  0  0  0  0  0  0  0  0
    4.1241    1.4034    0.0000 C   0  0  0  0  0  0  0  0  0  0  0  0
    2.6856    1.8285    0.0000 C   0  0  0  0  0  0  0  0  0  0  0  0
    3.0367    0.3702    0.0000 C   0  0  0  0  0  0  0  0  0  0  0  0
    1.5982    0.7953    0.0000 C   0  0  0  0  0  0  0  0  0  0  0  0
    0.5108   -0.2380    0.0000 C   0  0  0  0  0  0  0  0  0  0  0  0
    0.8619   -1.6963    0.0000 C   0  0  0  0  0  0  0  0  0  0  0  0
   -0.6132   -1.4239    0.0000 C   0  0  0  0  0  0  0  0  0  0  0  0
  2  1  1  6
  2  3  1  0
  3  4  1  0
  4  5  1  0
  5  6  2  0
  5  7  1  0
  7  8  1  0
  8  9  2  0
  9 10  1  0
 10 11  2  0
 11 12  1  0
 12 13  2  0
 13 14  1  0
  2 15  1  0
 15 16  1  6
 16 17  1  0
 18 17  1  6
 18 19  1  0
 19 20  1  1
 20 21  1  1
 20 22  1  0
 22 23  1  1
 22 24  1  0
 24 25  1  1
 25 26  1  0
 26 27  1  1
 26 28  1  0
 28 29  1  0
 29 30  1  0
 30 31  1  6
 30 32  1  0
 32 33  1  6
 33 34  1  0
 34 35  1  0
 35 36  1  6
 13  8  1  0
 35 15  1  0
 35 18  1  0
 32 19  1  0
 30 24  1  0
M  END
>  <MS_ID>  (1529) 
MS1591

>  <SMILES>  (1529) 
C[C@H](CCC(=O)Nc1ccccc1O)[C@H]1CC[C@H]2[C@@H]3[C@H](O)[C@H](O)[C@@H]4C[C@H](O)CC[C@]4(C)[C@H]3CC[C@]12C

>  <Structure_dimension>  (1529) 
2D

$$$$
MS1592
     RDKit          2D

 31 34  0  0  0  0  0  0  0  0999 V2000
   -8.8672    3.1400    0.0000 C   0  0  0  0  0  0  0  0  0  0  0  0
   -7.3980    2.8376    0.0000 C   0  0  0  0  0  0  0  0  0  0  0  0
   -6.9253    1.4140    0.0000 C   0  0  0  0  0  0  0  0  0  0  0  0
   -5.4561    1.1115    0.0000 C   0  0  0  0  0  0  0  0  0  0  0  0
   -4.4596    2.2326    0.0000 O   0  0  0  0  0  0  0  0  0  0  0  0
   -4.9835   -0.3121    0.0000 C   0  0  0  0  0  0  0  0  0  0  0  0
   -3.5143   -0.6145    0.0000 C   0  0  0  0  0  0  0  0  0  0  0  0
   -3.0416   -2.0381    0.0000 C   0  0  0  0  0  0  0  0  0  0  0  0
   -4.0382   -3.1592    0.0000 C   0  0  0  0  0  0  0  0  0  0  0  0
   -1.5724   -2.3406    0.0000 C   0  0  0  0  0  0  0  0  0  0  0  0
   -0.9536   -3.7070    0.0000 C   0  0  0  0  0  0  0  0  0  0  0  0
    0.5372   -3.5406    0.0000 C   0  0  0  0  0  0  0  0  0  0  0  0
    0.8396   -2.0714    0.0000 C   0  0  0  0  0  0  0  0  0  0  0  0
    2.1338   -1.3131    0.0000 C   0  0  0  0  0  0  0  0  0  0  0  0
    3.4377   -2.0548    0.0000 C   0  0  0  0  0  0  0  0  0  0  0  0
    3.4473   -3.5547    0.0000 O   0  0  0  0  0  0  0  0  0  0  0  0
    4.7319   -1.2965    0.0000 C   0  0  0  0  0  0  0  0  0  0  0  0
    4.7223    0.2035    0.0000 C   0  0  0  0  0  0  0  0  0  0  0  0
    6.0165    0.9618    0.0000 C   0  0  0  0  0  0  0  0  0  0  0  0
    6.0069    2.4618    0.0000 C   0  0  0  0  0  0  0  0  0  0  0  0
    7.3011    3.2201    0.0000 O   0  0  0  0  0  0  0  0  0  0  0  0
    4.7030    3.2034    0.0000 C   0  0  0  0  0  0  0  0  0  0  0  0
    3.4088    2.4451    0.0000 C   0  0  0  0  0  0  0  0  0  0  0  0
    3.4184    0.9452    0.0000 C   0  0  0  0  0  0  0  0  0  0  0  0
    2.1146    1.6868    0.0000 C   0  0  0  0  0  0  0  0  0  0  0  0
    2.1242    0.1869    0.0000 C   0  0  0  0  0  0  0  0  0  0  0  0
    0.8204    0.9285    0.0000 C   0  0  0  0  0  0  0  0  0  0  0  0
   -0.4738    0.1702    0.0000 C   0  0  0  0  0  0  0  0  0  0  0  0
   -1.7776    0.9119    0.0000 O   0  0  0  0  0  0  0  0  0  0  0  0
   -0.4642   -1.3298    0.0000 C   0  0  0  0  0  0  0  0  0  0  0  0
   -1.8384   -0.7284    0.0000 C   0  0  0  0  0  0  0  0  0  0  0  0
  1  2  1  0
  2  3  2  0
  3  4  1  0
  4  5  2  0
  4  6  1  0
  6  7  1  0
  7  8  1  0
  8  9  1  6
  8 10  1  0
 10 11  1  6
 11 12  1  0
 13 12  1  6
 13 14  1  0
 14 15  1  1
 15 16  1  1
 15 17  1  0
 18 17  1  1
 18 19  1  0
 19 20  1  0
 20 21  1  1
 20 22  1  0
 22 23  1  0
 23 24  1  0
 24 25  1  6
 24 26  1  0
 26 27  1  6
 27 28  1  0
 28 29  1  1
 28 30  1  0
 30 31  1  6
 30 10  1  0
 30 13  1  0
 26 14  1  0
 24 18  1  0
M  END
>  <MS_ID>  (1530) 
MS1592

>  <SMILES>  (1530) 
C/C=C/C(=O)CC[C@@H](C)[C@H]1CC[C@H]2[C@@H]3[C@H](O)C[C@@H]4C[C@H](O)CC[C@]4(C)[C@H]3C[C@H](O)[C@]12C

>  <Structure_dimension>  (1530) 
2D

$$$$
MS1593
     RDKit          2D

 33 37  0  0  0  0  0  0  0  0999 V2000
   -3.0595   -3.4014    0.0000 C   0  0  0  0  0  0  0  0  0  0  0  0
   -2.0799   -2.2654    0.0000 C   0  0  0  0  0  0  0  0  0  0  0  0
   -2.5738   -0.8491    0.0000 C   0  0  0  0  0  0  0  0  0  0  0  0
   -4.0474   -0.5687    0.0000 C   0  0  0  0  0  0  0  0  0  0  0  0
   -4.5414    0.8476    0.0000 C   0  0  0  0  0  0  0  0  0  0  0  0
   -3.5618    1.9836    0.0000 O   0  0  0  0  0  0  0  0  0  0  0  0
   -6.0149    1.1280    0.0000 C   0  0  0  0  0  0  0  0  0  0  0  0
   -6.5089    2.5443    0.0000 C   0  0  0  0  0  0  0  0  0  0  0  0
   -7.9825    2.8247    0.0000 C   0  0  0  0  0  0  0  0  0  0  0  0
   -8.9621    1.6887    0.0000 C   0  0  0  0  0  0  0  0  0  0  0  0
   -8.4681    0.2724    0.0000 N   0  0  0  0  0  0  0  0  0  0  0  0
   -6.9945   -0.0080    0.0000 C   0  0  0  0  0  0  0  0  0  0  0  0
   -0.6063   -2.5458    0.0000 C   0  0  0  0  0  0  0  0  0  0  0  0
    0.0330   -3.9027    0.0000 C   0  0  0  0  0  0  0  0  0  0  0  0
    1.5211   -3.7140    0.0000 C   0  0  0  0  0  0  0  0  0  0  0  0
    1.8015   -2.2404    0.0000 C   0  0  0  0  0  0  0  0  0  0  0  0
    3.0841   -1.4628    0.0000 C   0  0  0  0  0  0  0  0  0  0  0  0
    4.3990   -2.1848    0.0000 C   0  0  0  0  0  0  0  0  0  0  0  0
    5.6816   -1.4072    0.0000 C   0  0  0  0  0  0  0  0  0  0  0  0
    5.6495    0.0925    0.0000 C   0  0  0  0  0  0  0  0  0  0  0  0
    6.9322    0.8702    0.0000 C   0  0  0  0  0  0  0  0  0  0  0  0
    6.9001    2.3698    0.0000 C   0  0  0  0  0  0  0  0  0  0  0  0
    8.1827    3.1475    0.0000 O   0  0  0  0  0  0  0  0  0  0  0  0
    5.5852    3.0918    0.0000 C   0  0  0  0  0  0  0  0  0  0  0  0
    4.3026    2.3142    0.0000 C   0  0  0  0  0  0  0  0  0  0  0  0
    4.3347    0.8145    0.0000 C   0  0  0  0  0  0  0  0  0  0  0  0
    3.0199    1.5365    0.0000 C   0  0  0  0  0  0  0  0  0  0  0  0
    3.0520    0.0369    0.0000 C   0  0  0  0  0  0  0  0  0  0  0  0
    1.7372    0.7589    0.0000 C   0  0  0  0  0  0  0  0  0  0  0  0
    0.4545   -0.0188    0.0000 C   0  0  0  0  0  0  0  0  0  0  0  0
   -0.8603    0.7032    0.0000 O   0  0  0  0  0  0  0  0  0  0  0  0
    0.4867   -1.5184    0.0000 C   0  0  0  0  0  0  0  0  0  0  0  0
   -0.8964   -0.9378    0.0000 C   0  0  0  0  0  0  0  0  0  0  0  0
  2  1  1  6
  2  3  1  0
  3  4  1  0
  4  5  1  0
  5  6  2  0
  5  7  1  0
  7  8  2  0
  8  9  1  0
  9 10  2  0
 10 11  1  0
 11 12  2  0
  2 13  1  0
 13 14  1  6
 14 15  1  0
 16 15  1  6
 16 17  1  0
 17 18  1  1
 18 19  1  0
 20 19  1  1
 20 21  1  0
 21 22  1  0
 22 23  1  1
 22 24  1  0
 24 25  1  0
 25 26  1  0
 26 27  1  6
 26 28  1  0
 28 29  1  6
 29 30  1  0
 30 31  1  1
 30 32  1  0
 32 33  1  6
 12  7  1  0
 32 13  1  0
 32 16  1  0
 28 17  1  0
 26 20  1  0
M  END
>  <MS_ID>  (1531) 
MS1593

>  <SMILES>  (1531) 
C[C@H](CCC(=O)c1cccnc1)[C@H]1CC[C@H]2[C@@H]3CC[C@@H]4C[C@H](O)CC[C@]4(C)[C@H]3C[C@H](O)[C@]12C

>  <Structure_dimension>  (1531) 
2D

$$$$
MS1594
     RDKit          2D

 36 39  0  0  0  0  0  0  0  0999 V2000
   -4.0640   -3.8037    0.0000 C   0  0  0  0  0  0  0  0  0  0  0  0
   -3.1258   -2.6334    0.0000 C   0  0  0  0  0  0  0  0  0  0  0  0
   -3.6703   -1.2357    0.0000 C   0  0  0  0  0  0  0  0  0  0  0  0
   -5.1529   -1.0083    0.0000 C   0  0  0  0  0  0  0  0  0  0  0  0
   -5.6974    0.3894    0.0000 C   0  0  0  0  0  0  0  0  0  0  0  0
   -7.1801    0.6167    0.0000 O   0  0  0  0  0  0  0  0  0  0  0  0
   -4.7592    1.5597    0.0000 S   0  0  0  0  0  0  0  0  0  0  0  0
   -5.9296    2.4979    0.0000 O   0  0  0  0  0  0  0  0  0  0  0  0
   -3.5888    0.6215    0.0000 O   0  0  0  0  0  0  0  0  0  0  0  0
   -3.8210    2.7301    0.0000 N   0  0  0  0  0  0  0  0  0  0  0  0
   -2.3383    2.5028    0.0000 C   0  0  0  0  0  0  0  0  0  0  0  0
   -1.4001    3.6731    0.0000 C   0  0  0  0  0  0  0  0  0  0  0  0
   -1.9446    5.0708    0.0000 O   0  0  0  0  0  0  0  0  0  0  0  0
    0.0826    3.4458    0.0000 O   0  0  0  0  0  0  0  0  0  0  0  0
   -1.6431   -2.8607    0.0000 C   0  0  0  0  0  0  0  0  0  0  0  0
   -0.9555   -4.1938    0.0000 C   0  0  0  0  0  0  0  0  0  0  0  0
    0.5248   -3.9518    0.0000 C   0  0  0  0  0  0  0  0  0  0  0  0
    0.7522   -2.4692    0.0000 C   0  0  0  0  0  0  0  0  0  0  0  0
    2.0061   -1.6460    0.0000 C   0  0  0  0  0  0  0  0  0  0  0  0
    3.3460   -2.3204    0.0000 C   0  0  0  0  0  0  0  0  0  0  0  0
    3.4319   -3.8179    0.0000 O   0  0  0  0  0  0  0  0  0  0  0  0
    4.5999   -1.4972    0.0000 C   0  0  0  0  0  0  0  0  0  0  0  0
    5.9398   -2.1716    0.0000 O   0  0  0  0  0  0  0  0  0  0  0  0
    4.5140    0.0003    0.0000 C   0  0  0  0  0  0  0  0  0  0  0  0
    5.7680    0.8235    0.0000 C   0  0  0  0  0  0  0  0  0  0  0  0
    5.6821    2.3210    0.0000 C   0  0  0  0  0  0  0  0  0  0  0  0
    6.9360    3.1442    0.0000 O   0  0  0  0  0  0  0  0  0  0  0  0
    4.3422    2.9954    0.0000 C   0  0  0  0  0  0  0  0  0  0  0  0
    3.0882    2.1722    0.0000 C   0  0  0  0  0  0  0  0  0  0  0  0
    3.1741    0.6747    0.0000 C   0  0  0  0  0  0  0  0  0  0  0  0
    1.8343    1.3491    0.0000 C   0  0  0  0  0  0  0  0  0  0  0  0
    1.9202   -0.1485    0.0000 C   0  0  0  0  0  0  0  0  0  0  0  0
    0.5803    0.5259    0.0000 C   0  0  0  0  0  0  0  0  0  0  0  0
   -0.6736   -0.2973    0.0000 C   0  0  0  0  0  0  0  0  0  0  0  0
   -0.5877   -1.7948    0.0000 C   0  0  0  0  0  0  0  0  0  0  0  0
   -1.9907   -1.2642    0.0000 C   0  0  0  0  0  0  0  0  0  0  0  0
  2  1  1  6
  2  3  1  0
  3  4  1  0
  4  5  1  0
  5  6  2  0
  5  7  1  0
  7  8  2  0
  7  9  2  0
  7 10  1  0
 10 11  1  0
 11 12  1  0
 12 13  2  0
 12 14  1  0
  2 15  1  0
 15 16  1  6
 16 17  1  0
 18 17  1  6
 18 19  1  0
 19 20  1  1
 20 21  1  1
 20 22  1  0
 22 23  1  1
 22 24  1  0
 24 25  1  1
 25 26  1  0
 26 27  1  1
 26 28  1  0
 28 29  1  0
 29 30  1  0
 30 31  1  6
 30 32  1  0
 32 33  1  6
 33 34  1  0
 34 35  1  0
 35 36  1  6
 35 15  1  0
 35 18  1  0
 32 19  1  0
 30 24  1  0
M  END
>  <MS_ID>  (1532) 
MS1594

>  <SMILES>  (1532) 
C[C@H](CCC(=O)S(=O)(=O)NCC(=O)O)[C@H]1CC[C@H]2[C@@H]3[C@H](O)[C@H](O)[C@@H]4C[C@H](O)CC[C@]4(C)[C@H]3CC[C@]12C

>  <Structure_dimension>  (1532) 
2D

$$$$
MS1595
     RDKit          2D

 36 39  0  0  0  0  0  0  0  0999 V2000
   -0.7786   -4.6475    0.0000 C   0  0  0  0  0  0  0  0  0  0  0  0
   -0.2054   -3.2613    0.0000 C   0  0  0  0  0  0  0  0  0  0  0  0
   -1.1192   -2.0718    0.0000 C   0  0  0  0  0  0  0  0  0  0  0  0
   -2.6062   -2.2684    0.0000 C   0  0  0  0  0  0  0  0  0  0  0  0
   -3.5201   -1.0789    0.0000 C   0  0  0  0  0  0  0  0  0  0  0  0
   -2.9468    0.3072    0.0000 O   0  0  0  0  0  0  0  0  0  0  0  0
   -5.0071   -1.2756    0.0000 N   0  0  0  0  0  0  0  0  0  0  0  0
   -5.9209   -0.0861    0.0000 C   0  0  0  0  0  0  0  0  0  0  0  0
   -7.4080   -0.2827    0.0000 C   0  0  0  0  0  0  0  0  0  0  0  0
   -8.3218    0.9068    0.0000 C   0  0  0  0  0  0  0  0  0  0  0  0
   -9.8089    0.7102    0.0000 O   0  0  0  0  0  0  0  0  0  0  0  0
  -10.7227    1.8997    0.0000 S   0  0  0  0  0  0  0  0  0  0  0  0
   -9.5332    2.8135    0.0000 O   0  0  0  0  0  0  0  0  0  0  0  0
  -11.9122    0.9858    0.0000 O   0  0  0  0  0  0  0  0  0  0  0  0
  -11.6365    3.0892    0.0000 O   0  0  0  0  0  0  0  0  0  0  0  0
    1.2817   -3.0647    0.0000 C   0  0  0  0  0  0  0  0  0  0  0  0
    2.3149   -4.1521    0.0000 C   0  0  0  0  0  0  0  0  0  0  0  0
    3.6684   -3.5056    0.0000 C   0  0  0  0  0  0  0  0  0  0  0  0
    3.4717   -2.0185    0.0000 C   0  0  0  0  0  0  0  0  0  0  0  0
    4.4452   -0.8774    0.0000 C   0  0  0  0  0  0  0  0  0  0  0  0
    5.9203   -1.1499    0.0000 C   0  0  0  0  0  0  0  0  0  0  0  0
    6.4218   -2.5635    0.0000 O   0  0  0  0  0  0  0  0  0  0  0  0
    6.8938   -0.0087    0.0000 C   0  0  0  0  0  0  0  0  0  0  0  0
    6.3923    1.4050    0.0000 C   0  0  0  0  0  0  0  0  0  0  0  0
    7.3658    2.5461    0.0000 C   0  0  0  0  0  0  0  0  0  0  0  0
    6.8643    3.9598    0.0000 C   0  0  0  0  0  0  0  0  0  0  0  0
    7.8378    5.1010    0.0000 O   0  0  0  0  0  0  0  0  0  0  0  0
    5.3892    4.2323    0.0000 C   0  0  0  0  0  0  0  0  0  0  0  0
    4.4157    3.0912    0.0000 C   0  0  0  0  0  0  0  0  0  0  0  0
    4.9172    1.6775    0.0000 C   0  0  0  0  0  0  0  0  0  0  0  0
    3.4422    1.9500    0.0000 C   0  0  0  0  0  0  0  0  0  0  0  0
    3.9437    0.5363    0.0000 C   0  0  0  0  0  0  0  0  0  0  0  0
    2.4687    0.8088    0.0000 C   0  0  0  0  0  0  0  0  0  0  0  0
    1.4952   -0.3324    0.0000 C   0  0  0  0  0  0  0  0  0  0  0  0
    1.9967   -1.7460    0.0000 C   0  0  0  0  0  0  0  0  0  0  0  0
    0.5012   -1.6292    0.0000 C   0  0  0  0  0  0  0  0  0  0  0  0
  2  1  1  6
  2  3  1  0
  3  4  1  0
  4  5  1  0
  5  6  2  0
  5  7  1  0
  7  8  1  0
  8  9  1  0
  9 10  1  0
 10 11  1  0
 11 12  1  0
 12 13  2  0
 12 14  2  0
 12 15  1  0
  2 16  1  0
 16 17  1  6
 17 18  1  0
 19 18  1  6
 19 20  1  0
 20 21  1  1
 21 22  1  1
 21 23  1  0
 24 23  1  1
 24 25  1  0
 25 26  1  0
 26 27  1  1
 26 28  1  0
 28 29  1  0
 29 30  1  0
 30 31  1  6
 30 32  1  0
 32 33  1  6
 33 34  1  0
 34 35  1  0
 35 36  1  6
 35 16  1  0
 35 19  1  0
 32 20  1  0
 30 24  1  0
M  END
>  <MS_ID>  (1533) 
MS1595

>  <SMILES>  (1533) 
C[C@H](CCC(=O)NCCCOS(=O)(=O)O)[C@H]1CC[C@H]2[C@@H]3[C@H](O)C[C@@H]4C[C@H](O)CC[C@]4(C)[C@H]3CC[C@]12C

>  <Structure_dimension>  (1533) 
2D

$$$$
MS1596
     RDKit          2D

 29 32  0  0  0  0  0  0  0  0999 V2000
   -5.1421   -2.1269    0.0000 C   0  0  0  0  0  0  0  0  0  0  0  0
   -4.0091   -1.1439    0.0000 C   0  0  0  0  0  0  0  0  0  0  0  0
   -4.2938    0.3288    0.0000 C   0  0  0  0  0  0  0  0  0  0  0  0
   -5.7116    0.8186    0.0000 C   0  0  0  0  0  0  0  0  0  0  0  0
   -5.9963    2.2913    0.0000 C   0  0  0  0  0  0  0  0  0  0  0  0
   -4.8632    3.2743    0.0000 O   0  0  0  0  0  0  0  0  0  0  0  0
   -7.4141    2.7811    0.0000 O   0  0  0  0  0  0  0  0  0  0  0  0
   -2.5913   -1.6337    0.0000 C   0  0  0  0  0  0  0  0  0  0  0  0
   -2.1542   -3.0686    0.0000 C   0  0  0  0  0  0  0  0  0  0  0  0
   -0.6544   -3.0963    0.0000 C   0  0  0  0  0  0  0  0  0  0  0  0
   -0.1646   -1.6785    0.0000 C   0  0  0  0  0  0  0  0  0  0  0  0
    1.2167   -1.0938    0.0000 C   0  0  0  0  0  0  0  0  0  0  0  0
    2.4137   -1.9977    0.0000 C   0  0  0  0  0  0  0  0  0  0  0  0
    2.2294   -3.4864    0.0000 N   0  0  0  0  0  0  0  0  0  0  0  0
    3.4265   -4.3903    0.0000 O   0  0  0  0  0  0  0  0  0  0  0  0
    3.7951   -1.4130    0.0000 C   0  0  0  0  0  0  0  0  0  0  0  0
    3.9794    0.0756    0.0000 C   0  0  0  0  0  0  0  0  0  0  0  0
    5.3607    0.6603    0.0000 C   0  0  0  0  0  0  0  0  0  0  0  0
    5.5451    2.1489    0.0000 C   0  0  0  0  0  0  0  0  0  0  0  0
    6.9264    2.7336    0.0000 O   0  0  0  0  0  0  0  0  0  0  0  0
    4.3480    3.0529    0.0000 C   0  0  0  0  0  0  0  0  0  0  0  0
    2.9667    2.4682    0.0000 C   0  0  0  0  0  0  0  0  0  0  0  0
    2.7824    0.9795    0.0000 C   0  0  0  0  0  0  0  0  0  0  0  0
    1.5853    1.8835    0.0000 C   0  0  0  0  0  0  0  0  0  0  0  0
    1.4010    0.3948    0.0000 C   0  0  0  0  0  0  0  0  0  0  0  0
    0.2040    1.2988    0.0000 C   0  0  0  0  0  0  0  0  0  0  0  0
   -1.1774    0.7141    0.0000 C   0  0  0  0  0  0  0  0  0  0  0  0
   -1.3617   -0.7746    0.0000 C   0  0  0  0  0  0  0  0  0  0  0  0
   -2.6467   -0.0007    0.0000 C   0  0  0  0  0  0  0  0  0  0  0  0
  2  1  1  6
  2  3  1  0
  3  4  1  0
  4  5  1  0
  5  6  2  0
  5  7  1  0
  2  8  1  0
  8  9  1  6
  9 10  1  0
 11 10  1  6
 11 12  1  0
 12 13  1  1
 13 14  1  1
 14 15  1  0
 13 16  1  0
 17 16  1  1
 17 18  1  0
 18 19  1  0
 19 20  1  1
 19 21  1  0
 21 22  1  0
 22 23  1  0
 23 24  1  6
 23 25  1  0
 25 26  1  6
 26 27  1  0
 27 28  1  0
 28 29  1  6
 28  8  1  0
 28 11  1  0
 25 12  1  0
 23 17  1  0
M  END
>  <MS_ID>  (1534) 
MS1596

>  <SMILES>  (1534) 
C[C@H](CCC(=O)O)[C@H]1CC[C@H]2[C@@H]3[C@H](NO)C[C@@H]4C[C@H](O)CC[C@]4(C)[C@H]3CC[C@]12C

>  <Structure_dimension>  (1534) 
2D

$$$$
MS1597
     RDKit          2D

 31 34  0  0  0  0  0  0  0  0999 V2000
  -10.5865    3.1750    0.0000 C   0  0  0  0  0  0  0  0  0  0  0  0
   -9.0910    3.0590    0.0000 C   0  0  0  0  0  0  0  0  0  0  0  0
   -8.4437    1.7059    0.0000 C   0  0  0  0  0  0  0  0  0  0  0  0
   -6.9482    1.5899    0.0000 C   0  0  0  0  0  0  0  0  0  0  0  0
   -6.3008    0.2368    0.0000 O   0  0  0  0  0  0  0  0  0  0  0  0
   -4.8053    0.1208    0.0000 C   0  0  0  0  0  0  0  0  0  0  0  0
   -3.9572    1.3580    0.0000 O   0  0  0  0  0  0  0  0  0  0  0  0
   -4.1580   -1.2323    0.0000 C   0  0  0  0  0  0  0  0  0  0  0  0
   -2.6625   -1.3483    0.0000 C   0  0  0  0  0  0  0  0  0  0  0  0
   -2.0152   -2.7014    0.0000 C   0  0  0  0  0  0  0  0  0  0  0  0
   -2.8633   -3.9386    0.0000 C   0  0  0  0  0  0  0  0  0  0  0  0
   -0.5197   -2.8173    0.0000 C   0  0  0  0  0  0  0  0  0  0  0  0
    0.2656   -4.0954    0.0000 C   0  0  0  0  0  0  0  0  0  0  0  0
    1.7237   -3.7436    0.0000 C   0  0  0  0  0  0  0  0  0  0  0  0
    1.8397   -2.2480    0.0000 C   0  0  0  0  0  0  0  0  0  0  0  0
    3.0287   -1.3335    0.0000 C   0  0  0  0  0  0  0  0  0  0  0  0
    4.4151   -1.9060    0.0000 C   0  0  0  0  0  0  0  0  0  0  0  0
    5.6041   -0.9914    0.0000 C   0  0  0  0  0  0  0  0  0  0  0  0
    5.4066    0.4955    0.0000 C   0  0  0  0  0  0  0  0  0  0  0  0
    6.5956    1.4100    0.0000 C   0  0  0  0  0  0  0  0  0  0  0  0
    6.3981    2.8970    0.0000 C   0  0  0  0  0  0  0  0  0  0  0  0
    7.5871    3.8115    0.0000 O   0  0  0  0  0  0  0  0  0  0  0  0
    5.0116    3.4694    0.0000 C   0  0  0  0  0  0  0  0  0  0  0  0
    3.8226    2.5549    0.0000 C   0  0  0  0  0  0  0  0  0  0  0  0
    4.0201    1.0679    0.0000 C   0  0  0  0  0  0  0  0  0  0  0  0
    2.6336    1.6404    0.0000 C   0  0  0  0  0  0  0  0  0  0  0  0
    2.8312    0.1534    0.0000 C   0  0  0  0  0  0  0  0  0  0  0  0
    1.4447    0.7258    0.0000 C   0  0  0  0  0  0  0  0  0  0  0  0
    0.2557   -0.1887    0.0000 C   0  0  0  0  0  0  0  0  0  0  0  0
    0.4532   -1.6756    0.0000 C   0  0  0  0  0  0  0  0  0  0  0  0
   -0.9855   -1.2513    0.0000 C   0  0  0  0  0  0  0  0  0  0  0  0
  1  2  1  0
  2  3  1  0
  3  4  1  0
  4  5  1  0
  5  6  1  0
  6  7  2  0
  6  8  1  0
  8  9  1  0
  9 10  1  0
 10 11  1  6
 10 12  1  0
 12 13  1  6
 13 14  1  0
 15 14  1  6
 15 16  1  0
 16 17  1  1
 17 18  1  0
 19 18  1  1
 19 20  1  0
 20 21  1  0
 21 22  1  1
 21 23  1  0
 23 24  1  0
 24 25  1  0
 25 26  1  6
 25 27  1  0
 27 28  1  6
 28 29  1  0
 29 30  1  0
 30 31  1  6
 30 12  1  0
 30 15  1  0
 27 16  1  0
 25 19  1  0
M  END
>  <MS_ID>  (1535) 
MS1597

>  <SMILES>  (1535) 
CCCCOC(=O)CC[C@@H](C)[C@H]1CC[C@H]2[C@@H]3CC[C@@H]4C[C@H](O)CC[C@]4(C)[C@H]3CC[C@]12C

>  <Structure_dimension>  (1535) 
2D

$$$$
MS1598
     RDKit          2D

 30 33  0  0  0  0  0  0  0  0999 V2000
    4.7706    2.6384    0.0000 C   0  0  0  0  0  0  0  0  0  0  0  0
    3.6605    1.6295    0.0000 C   0  0  0  0  0  0  0  0  0  0  0  0
    3.9792    0.1638    0.0000 C   0  0  0  0  0  0  0  0  0  0  0  0
    5.4079   -0.2931    0.0000 C   0  0  0  0  0  0  0  0  0  0  0  0
    5.7266   -1.7589    0.0000 C   0  0  0  0  0  0  0  0  0  0  0  0
    4.6166   -2.7678    0.0000 O   0  0  0  0  0  0  0  0  0  0  0  0
    7.1554   -2.2158    0.0000 C   0  0  0  0  0  0  0  0  0  0  0  0
    7.4741   -3.6815    0.0000 O   0  0  0  0  0  0  0  0  0  0  0  0
    2.2318    2.0864    0.0000 C   0  0  0  0  0  0  0  0  0  0  0  0
    1.7616    3.5108    0.0000 C   0  0  0  0  0  0  0  0  0  0  0  0
    0.2616    3.5038    0.0000 C   0  0  0  0  0  0  0  0  0  0  0  0
   -0.1952    2.0751    0.0000 C   0  0  0  0  0  0  0  0  0  0  0  0
   -1.5627    1.4586    0.0000 C   0  0  0  0  0  0  0  0  0  0  0  0
   -2.7803    2.3346    0.0000 C   0  0  0  0  0  0  0  0  0  0  0  0
   -2.6305    3.8271    0.0000 O   0  0  0  0  0  0  0  0  0  0  0  0
   -4.1478    1.7181    0.0000 C   0  0  0  0  0  0  0  0  0  0  0  0
   -4.2976    0.2256    0.0000 C   0  0  0  0  0  0  0  0  0  0  0  0
   -5.6651   -0.3908    0.0000 C   0  0  0  0  0  0  0  0  0  0  0  0
   -5.8149   -1.8833    0.0000 C   0  0  0  0  0  0  0  0  0  0  0  0
   -7.1824   -2.4998    0.0000 O   0  0  0  0  0  0  0  0  0  0  0  0
   -4.5973   -2.7593    0.0000 C   0  0  0  0  0  0  0  0  0  0  0  0
   -3.2299   -2.1429    0.0000 C   0  0  0  0  0  0  0  0  0  0  0  0
   -2.0122   -3.0189    0.0000 O   0  0  0  0  0  0  0  0  0  0  0  0
   -3.0800   -0.6504    0.0000 C   0  0  0  0  0  0  0  0  0  0  0  0
   -1.8624   -1.5264    0.0000 C   0  0  0  0  0  0  0  0  0  0  0  0
   -1.7125   -0.0339    0.0000 C   0  0  0  0  0  0  0  0  0  0  0  0
   -0.4949   -0.9099    0.0000 C   0  0  0  0  0  0  0  0  0  0  0  0
    0.8725   -0.2934    0.0000 C   0  0  0  0  0  0  0  0  0  0  0  0
    1.0224    1.1991    0.0000 C   0  0  0  0  0  0  0  0  0  0  0  0
    2.3249    0.4551    0.0000 C   0  0  0  0  0  0  0  0  0  0  0  0
  2  1  1  6
  2  3  1  0
  3  4  1  0
  4  5  1  0
  5  6  2  0
  5  7  1  0
  7  8  1  0
  2  9  1  0
  9 10  1  6
 10 11  1  0
 12 11  1  6
 12 13  1  0
 13 14  1  1
 14 15  1  1
 14 16  1  0
 17 16  1  1
 17 18  1  0
 18 19  1  0
 19 20  1  1
 19 21  1  0
 21 22  1  0
 22 23  1  1
 22 24  1  0
 24 25  1  6
 24 26  1  0
 26 27  1  6
 27 28  1  0
 28 29  1  0
 29 30  1  6
 29  9  1  0
 29 12  1  0
 26 13  1  0
 24 17  1  0
M  END
>  <MS_ID>  (1536) 
MS1598

>  <SMILES>  (1536) 
C[C@H](CCC(=O)CO)[C@H]1CC[C@H]2[C@@H]3[C@H](O)C[C@@H]4C[C@H](O)C[C@H](O)[C@]4(C)[C@H]3CC[C@]12C

>  <Structure_dimension>  (1536) 
2D

$$$$
MS1599
     RDKit          2D

 33 36  0  0  0  0  0  0  0  0999 V2000
   -2.3185   -3.8325    0.0000 C   0  0  0  0  0  0  0  0  0  0  0  0
   -1.5384   -2.5513    0.0000 C   0  0  0  0  0  0  0  0  0  0  0  0
   -2.2580   -1.2351    0.0000 C   0  0  0  0  0  0  0  0  0  0  0  0
   -3.7576   -1.2002    0.0000 C   0  0  0  0  0  0  0  0  0  0  0  0
   -4.4771    0.1160    0.0000 C   0  0  0  0  0  0  0  0  0  0  0  0
   -3.6971    1.3972    0.0000 O   0  0  0  0  0  0  0  0  0  0  0  0
   -5.9767    0.1509    0.0000 C   0  0  0  0  0  0  0  0  0  0  0  0
   -6.6962    1.4671    0.0000 O   0  0  0  0  0  0  0  0  0  0  0  0
   -8.1958    1.5020    0.0000 S   0  0  0  0  0  0  0  0  0  0  0  0
   -8.2308    0.0024    0.0000 O   0  0  0  0  0  0  0  0  0  0  0  0
   -8.1609    3.0016    0.0000 O   0  0  0  0  0  0  0  0  0  0  0  0
   -9.6954    1.5369    0.0000 O   0  0  0  0  0  0  0  0  0  0  0  0
   -0.0389   -2.5862    0.0000 C   0  0  0  0  0  0  0  0  0  0  0  0
    0.8143   -3.8200    0.0000 C   0  0  0  0  0  0  0  0  0  0  0  0
    2.2513   -3.3898    0.0000 C   0  0  0  0  0  0  0  0  0  0  0  0
    2.2863   -1.8902    0.0000 C   0  0  0  0  0  0  0  0  0  0  0  0
    3.4240   -0.9127    0.0000 C   0  0  0  0  0  0  0  0  0  0  0  0
    4.8394   -1.4094    0.0000 C   0  0  0  0  0  0  0  0  0  0  0  0
    5.1171   -2.8835    0.0000 O   0  0  0  0  0  0  0  0  0  0  0  0
    5.9772   -0.4319    0.0000 C   0  0  0  0  0  0  0  0  0  0  0  0
    5.6996    1.0422    0.0000 C   0  0  0  0  0  0  0  0  0  0  0  0
    6.8374    2.0196    0.0000 C   0  0  0  0  0  0  0  0  0  0  0  0
    6.5598    3.4937    0.0000 C   0  0  0  0  0  0  0  0  0  0  0  0
    5.1444    3.9904    0.0000 C   0  0  0  0  0  0  0  0  0  0  0  0
    4.0066    3.0129    0.0000 C   0  0  0  0  0  0  0  0  0  0  0  0
    4.2842    1.5388    0.0000 C   0  0  0  0  0  0  0  0  0  0  0  0
    2.8688    2.0354    0.0000 C   0  0  0  0  0  0  0  0  0  0  0  0
    3.1464    0.5613    0.0000 C   0  0  0  0  0  0  0  0  0  0  0  0
    1.7310    1.0580    0.0000 C   0  0  0  0  0  0  0  0  0  0  0  0
    0.5932    0.0805    0.0000 C   0  0  0  0  0  0  0  0  0  0  0  0
   -0.8222    0.5771    0.0000 O   0  0  0  0  0  0  0  0  0  0  0  0
    0.8709   -1.3936    0.0000 C   0  0  0  0  0  0  0  0  0  0  0  0
   -0.5887   -1.0476    0.0000 C   0  0  0  0  0  0  0  0  0  0  0  0
  2  1  1  6
  2  3  1  0
  3  4  1  0
  4  5  1  0
  5  6  2  0
  5  7  1  0
  7  8  1  0
  8  9  1  0
  9 10  2  0
  9 11  2  0
  9 12  1  0
  2 13  1  0
 13 14  1  6
 14 15  1  0
 16 15  1  6
 16 17  1  0
 17 18  1  1
 18 19  1  1
 18 20  1  0
 21 20  1  1
 21 22  1  0
 22 23  1  0
 23 24  1  0
 24 25  1  0
 25 26  1  0
 26 27  1  6
 26 28  1  0
 28 29  1  6
 29 30  1  0
 30 31  1  1
 30 32  1  0
 32 33  1  6
 32 13  1  0
 32 16  1  0
 28 17  1  0
 26 21  1  0
M  END
>  <MS_ID>  (1537) 
MS1599

>  <SMILES>  (1537) 
C[C@H](CCC(=O)COS(=O)(=O)O)[C@H]1CC[C@H]2[C@@H]3[C@H](O)C[C@@H]4CCCC[C@]4(C)[C@H]3C[C@H](O)[C@]12C

>  <Structure_dimension>  (1537) 
2D

$$$$
MS1600
     RDKit          2D

 35 38  0  0  0  0  0  0  0  0999 V2000
   -2.9304   -4.4556    0.0000 C   0  0  0  0  0  0  0  0  0  0  0  0
   -2.1766   -3.1587    0.0000 C   0  0  0  0  0  0  0  0  0  0  0  0
   -2.9229   -1.8575    0.0000 C   0  0  0  0  0  0  0  0  0  0  0  0
   -4.4229   -1.8532    0.0000 C   0  0  0  0  0  0  0  0  0  0  0  0
   -5.1691   -0.5520    0.0000 C   0  0  0  0  0  0  0  0  0  0  0  0
   -6.6691   -0.5477    0.0000 O   0  0  0  0  0  0  0  0  0  0  0  0
   -4.4154    0.7448    0.0000 O   0  0  0  0  0  0  0  0  0  0  0  0
   -5.1617    2.0460    0.0000 C   0  0  0  0  0  0  0  0  0  0  0  0
   -6.6617    2.0503    0.0000 O   0  0  0  0  0  0  0  0  0  0  0  0
   -4.4079    3.3429    0.0000 C   0  0  0  0  0  0  0  0  0  0  0  0
   -5.7048    4.0966    0.0000 C   0  0  0  0  0  0  0  0  0  0  0  0
   -3.1111    2.5892    0.0000 C   0  0  0  0  0  0  0  0  0  0  0  0
   -3.6542    4.6398    0.0000 C   0  0  0  0  0  0  0  0  0  0  0  0
   -0.6766   -3.1631    0.0000 C   0  0  0  0  0  0  0  0  0  0  0  0
    0.2015   -4.3791    0.0000 C   0  0  0  0  0  0  0  0  0  0  0  0
    1.6295   -3.9197    0.0000 C   0  0  0  0  0  0  0  0  0  0  0  0
    1.6338   -2.4197    0.0000 C   0  0  0  0  0  0  0  0  0  0  0  0
    2.7514   -1.4192    0.0000 C   0  0  0  0  0  0  0  0  0  0  0  0
    4.1766   -1.8868    0.0000 C   0  0  0  0  0  0  0  0  0  0  0  0
    4.4843   -3.3550    0.0000 O   0  0  0  0  0  0  0  0  0  0  0  0
    5.2942   -0.8864    0.0000 C   0  0  0  0  0  0  0  0  0  0  0  0
    4.9866    0.5818    0.0000 C   0  0  0  0  0  0  0  0  0  0  0  0
    6.1042    1.5822    0.0000 C   0  0  0  0  0  0  0  0  0  0  0  0
    5.7965    3.0503    0.0000 C   0  0  0  0  0  0  0  0  0  0  0  0
    6.9141    4.0508    0.0000 O   0  0  0  0  0  0  0  0  0  0  0  0
    4.3713    3.5180    0.0000 C   0  0  0  0  0  0  0  0  0  0  0  0
    3.2537    2.5175    0.0000 C   0  0  0  0  0  0  0  0  0  0  0  0
    3.5613    1.0494    0.0000 C   0  0  0  0  0  0  0  0  0  0  0  0
    2.1361    1.5170    0.0000 C   0  0  0  0  0  0  0  0  0  0  0  0
    2.4437    0.0489    0.0000 C   0  0  0  0  0  0  0  0  0  0  0  0
    1.0185    0.5165    0.0000 C   0  0  0  0  0  0  0  0  0  0  0  0
   -0.0991   -0.4840    0.0000 C   0  0  0  0  0  0  0  0  0  0  0  0
   -1.5244   -0.0163    0.0000 O   0  0  0  0  0  0  0  0  0  0  0  0
    0.2085   -1.9521    0.0000 C   0  0  0  0  0  0  0  0  0  0  0  0
   -1.2578   -1.6360    0.0000 C   0  0  0  0  0  0  0  0  0  0  0  0
  2  1  1  6
  2  3  1  0
  3  4  1  0
  4  5  1  0
  5  6  2  0
  5  7  1  0
  7  8  1  0
  8  9  2  0
  8 10  1  0
 10 11  1  0
 10 12  1  0
 10 13  1  0
  2 14  1  0
 14 15  1  6
 15 16  1  0
 17 16  1  6
 17 18  1  0
 18 19  1  1
 19 20  1  1
 19 21  1  0
 22 21  1  1
 22 23  1  0
 23 24  1  0
 24 25  1  1
 24 26  1  0
 26 27  1  0
 27 28  1  0
 28 29  1  6
 28 30  1  0
 30 31  1  6
 31 32  1  0
 32 33  1  1
 32 34  1  0
 34 35  1  6
 34 14  1  0
 34 17  1  0
 30 18  1  0
 28 22  1  0
M  END
>  <MS_ID>  (1538) 
MS1600

>  <SMILES>  (1538) 
C[C@H](CCC(=O)OC(=O)C(C)(C)C)[C@H]1CC[C@H]2[C@@H]3[C@H](O)C[C@@H]4C[C@H](O)CC[C@]4(C)[C@H]3C[C@H](O)[C@]12C

>  <Structure_dimension>  (1538) 
2D

$$$$
MS1601
     RDKit          2D

 30 33  0  0  0  0  0  0  0  0999 V2000
   -3.4828   -3.5922    0.0000 C   0  0  0  0  0  0  0  0  0  0  0  0
   -2.5481   -2.4190    0.0000 C   0  0  0  0  0  0  0  0  0  0  0  0
   -3.0967   -1.0230    0.0000 C   0  0  0  0  0  0  0  0  0  0  0  0
   -4.5801   -0.8000    0.0000 C   0  0  0  0  0  0  0  0  0  0  0  0
   -5.1287    0.5960    0.0000 C   0  0  0  0  0  0  0  0  0  0  0  0
   -4.1940    1.7692    0.0000 O   0  0  0  0  0  0  0  0  0  0  0  0
   -6.6120    0.8190    0.0000 C   0  0  0  0  0  0  0  0  0  0  0  0
   -7.1606    2.2150    0.0000 C   0  0  0  0  0  0  0  0  0  0  0  0
   -8.6440    2.4379    0.0000 C   0  0  0  0  0  0  0  0  0  0  0  0
   -9.1926    3.8340    0.0000 O   0  0  0  0  0  0  0  0  0  0  0  0
   -1.0648   -2.6420    0.0000 C   0  0  0  0  0  0  0  0  0  0  0  0
   -0.3732   -3.9730    0.0000 C   0  0  0  0  0  0  0  0  0  0  0  0
    1.1064   -3.7267    0.0000 C   0  0  0  0  0  0  0  0  0  0  0  0
    1.3293   -2.2433    0.0000 C   0  0  0  0  0  0  0  0  0  0  0  0
    2.5808   -1.4164    0.0000 C   0  0  0  0  0  0  0  0  0  0  0  0
    3.9227   -2.0868    0.0000 C   0  0  0  0  0  0  0  0  0  0  0  0
    5.1742   -1.2599    0.0000 C   0  0  0  0  0  0  0  0  0  0  0  0
    5.0838    0.2373    0.0000 C   0  0  0  0  0  0  0  0  0  0  0  0
    6.3353    1.0642    0.0000 C   0  0  0  0  0  0  0  0  0  0  0  0
    6.2450    2.5615    0.0000 C   0  0  0  0  0  0  0  0  0  0  0  0
    7.4965    3.3884    0.0000 O   0  0  0  0  0  0  0  0  0  0  0  0
    4.9031    3.2319    0.0000 C   0  0  0  0  0  0  0  0  0  0  0  0
    3.6516    2.4050    0.0000 C   0  0  0  0  0  0  0  0  0  0  0  0
    3.7420    0.9077    0.0000 C   0  0  0  0  0  0  0  0  0  0  0  0
    2.4001    1.5781    0.0000 C   0  0  0  0  0  0  0  0  0  0  0  0
    2.4905    0.0808    0.0000 C   0  0  0  0  0  0  0  0  0  0  0  0
    1.1486    0.7512    0.0000 C   0  0  0  0  0  0  0  0  0  0  0  0
   -0.1029   -0.0757    0.0000 C   0  0  0  0  0  0  0  0  0  0  0  0
   -0.0125   -1.5729    0.0000 C   0  0  0  0  0  0  0  0  0  0  0  0
   -1.4171   -1.0465    0.0000 C   0  0  0  0  0  0  0  0  0  0  0  0
  2  1  1  6
  2  3  1  0
  3  4  1  0
  4  5  1  0
  5  6  2  0
  5  7  1  0
  7  8  1  0
  8  9  1  0
  9 10  1  0
  2 11  1  0
 11 12  1  6
 12 13  1  0
 14 13  1  6
 14 15  1  0
 15 16  1  1
 16 17  1  0
 18 17  1  1
 18 19  1  0
 19 20  1  0
 20 21  1  1
 20 22  1  0
 22 23  1  0
 23 24  1  0
 24 25  1  6
 24 26  1  0
 26 27  1  6
 27 28  1  0
 28 29  1  0
 29 30  1  6
 29 11  1  0
 29 14  1  0
 26 15  1  0
 24 18  1  0
M  END
>  <MS_ID>  (1539) 
MS1601

>  <SMILES>  (1539) 
C[C@H](CCC(=O)CCCO)[C@H]1CC[C@H]2[C@@H]3CC[C@@H]4C[C@H](O)CC[C@]4(C)[C@H]3CC[C@]12C

>  <Structure_dimension>  (1539) 
2D

$$$$
MS1602
     RDKit          2D

 29 32  0  0  0  0  0  0  0  0999 V2000
   -3.6590   -3.2430    0.0000 C   0  0  0  0  0  0  0  0  0  0  0  0
   -2.7318   -2.0639    0.0000 C   0  0  0  0  0  0  0  0  0  0  0  0
   -3.2894   -0.6714    0.0000 C   0  0  0  0  0  0  0  0  0  0  0  0
   -4.7741   -0.4579    0.0000 C   0  0  0  0  0  0  0  0  0  0  0  0
   -5.3316    0.9346    0.0000 C   0  0  0  0  0  0  0  0  0  0  0  0
   -4.4044    2.1137    0.0000 O   0  0  0  0  0  0  0  0  0  0  0  0
   -6.8164    1.1480    0.0000 C   0  0  0  0  0  0  0  0  0  0  0  0
   -7.3739    2.5406    0.0000 C   0  0  0  0  0  0  0  0  0  0  0  0
   -8.8586    2.7540    0.0000 O   0  0  0  0  0  0  0  0  0  0  0  0
   -1.2471   -2.2773    0.0000 C   0  0  0  0  0  0  0  0  0  0  0  0
   -0.5471   -3.6040    0.0000 C   0  0  0  0  0  0  0  0  0  0  0  0
    0.9310   -3.3481    0.0000 C   0  0  0  0  0  0  0  0  0  0  0  0
    1.1444   -1.8634    0.0000 C   0  0  0  0  0  0  0  0  0  0  0  0
    2.3906   -1.0285    0.0000 C   0  0  0  0  0  0  0  0  0  0  0  0
    3.7367   -1.6903    0.0000 C   0  0  0  0  0  0  0  0  0  0  0  0
    3.8366   -3.1870    0.0000 O   0  0  0  0  0  0  0  0  0  0  0  0
    4.9829   -0.8554    0.0000 C   0  0  0  0  0  0  0  0  0  0  0  0
    4.8830    0.6412    0.0000 C   0  0  0  0  0  0  0  0  0  0  0  0
    6.1292    1.4761    0.0000 C   0  0  0  0  0  0  0  0  0  0  0  0
    6.0292    2.9728    0.0000 C   0  0  0  0  0  0  0  0  0  0  0  0
    4.6831    3.6346    0.0000 C   0  0  0  0  0  0  0  0  0  0  0  0
    3.4369    2.7997    0.0000 C   0  0  0  0  0  0  0  0  0  0  0  0
    3.5369    1.3030    0.0000 C   0  0  0  0  0  0  0  0  0  0  0  0
    2.1907    1.9648    0.0000 C   0  0  0  0  0  0  0  0  0  0  0  0
    2.2907    0.4681    0.0000 C   0  0  0  0  0  0  0  0  0  0  0  0
    0.9445    1.1299    0.0000 C   0  0  0  0  0  0  0  0  0  0  0  0
   -0.3016    0.2951    0.0000 C   0  0  0  0  0  0  0  0  0  0  0  0
   -0.2017   -1.2016    0.0000 C   0  0  0  0  0  0  0  0  0  0  0  0
   -1.6096   -0.6841    0.0000 C   0  0  0  0  0  0  0  0  0  0  0  0
  2  1  1  6
  2  3  1  0
  3  4  1  0
  4  5  1  0
  5  6  2  0
  5  7  1  0
  7  8  1  0
  8  9  1  0
  2 10  1  0
 10 11  1  6
 11 12  1  0
 13 12  1  6
 13 14  1  0
 14 15  1  1
 15 16  1  6
 15 17  1  0
 18 17  1  1
 18 19  1  0
 19 20  1  0
 20 21  1  0
 21 22  1  0
 22 23  1  0
 23 24  1  6
 23 25  1  0
 25 26  1  6
 26 27  1  0
 27 28  1  0
 28 29  1  6
 28 10  1  0
 28 13  1  0
 25 14  1  0
 23 18  1  0
M  END
>  <MS_ID>  (1540) 
MS1602

>  <SMILES>  (1540) 
C[C@H](CCC(=O)CCO)[C@H]1CC[C@H]2[C@@H]3[C@@H](O)C[C@@H]4CCCC[C@]4(C)[C@H]3CC[C@]12C

>  <Structure_dimension>  (1540) 
2D

$$$$
MS1603
     RDKit          2D

 33 36  0  0  0  0  0  0  0  0999 V2000
   -3.3910   -4.2321    0.0000 C   0  0  0  0  0  0  0  0  0  0  0  0
   -2.5743   -2.9739    0.0000 C   0  0  0  0  0  0  0  0  0  0  0  0
   -3.2556   -1.6376    0.0000 C   0  0  0  0  0  0  0  0  0  0  0  0
   -4.7535   -1.5594    0.0000 C   0  0  0  0  0  0  0  0  0  0  0  0
   -5.4348   -0.2230    0.0000 C   0  0  0  0  0  0  0  0  0  0  0  0
   -6.9327   -0.1448    0.0000 O   0  0  0  0  0  0  0  0  0  0  0  0
   -4.6181    1.0352    0.0000 O   0  0  0  0  0  0  0  0  0  0  0  0
   -5.2994    2.3715    0.0000 C   0  0  0  0  0  0  0  0  0  0  0  0
   -4.4827    3.6297    0.0000 S   0  0  0  0  0  0  0  0  0  0  0  0
   -5.7409    4.4464    0.0000 O   0  0  0  0  0  0  0  0  0  0  0  0
   -3.2245    2.8130    0.0000 O   0  0  0  0  0  0  0  0  0  0  0  0
   -3.6660    4.8879    0.0000 O   0  0  0  0  0  0  0  0  0  0  0  0
   -1.0763   -3.0521    0.0000 C   0  0  0  0  0  0  0  0  0  0  0  0
   -0.2591   -4.3099    0.0000 C   0  0  0  0  0  0  0  0  0  0  0  0
    1.1897   -3.9214    0.0000 C   0  0  0  0  0  0  0  0  0  0  0  0
    1.2679   -2.4234    0.0000 C   0  0  0  0  0  0  0  0  0  0  0  0
    2.4334   -1.4792    0.0000 C   0  0  0  0  0  0  0  0  0  0  0  0
    3.8339   -2.0165    0.0000 C   0  0  0  0  0  0  0  0  0  0  0  0
    4.0689   -3.4980    0.0000 O   0  0  0  0  0  0  0  0  0  0  0  0
    4.9994   -1.0722    0.0000 C   0  0  0  0  0  0  0  0  0  0  0  0
    4.7644    0.4092    0.0000 C   0  0  0  0  0  0  0  0  0  0  0  0
    5.9300    1.3535    0.0000 C   0  0  0  0  0  0  0  0  0  0  0  0
    5.6950    2.8349    0.0000 C   0  0  0  0  0  0  0  0  0  0  0  0
    6.8605    3.7792    0.0000 O   0  0  0  0  0  0  0  0  0  0  0  0
    4.2945    3.3722    0.0000 C   0  0  0  0  0  0  0  0  0  0  0  0
    3.1290    2.4280    0.0000 C   0  0  0  0  0  0  0  0  0  0  0  0
    3.3640    0.9465    0.0000 C   0  0  0  0  0  0  0  0  0  0  0  0
    1.9635    1.4837    0.0000 C   0  0  0  0  0  0  0  0  0  0  0  0
    2.1984    0.0023    0.0000 C   0  0  0  0  0  0  0  0  0  0  0  0
    0.7980    0.5395    0.0000 C   0  0  0  0  0  0  0  0  0  0  0  0
   -0.3676   -0.4047    0.0000 C   0  0  0  0  0  0  0  0  0  0  0  0
   -0.1326   -1.8862    0.0000 C   0  0  0  0  0  0  0  0  0  0  0  0
   -1.5816   -1.4983    0.0000 C   0  0  0  0  0  0  0  0  0  0  0  0
  2  1  1  6
  2  3  1  0
  3  4  1  0
  4  5  1  0
  5  6  2  0
  5  7  1  0
  7  8  1  0
  8  9  1  0
  9 10  2  0
  9 11  2  0
  9 12  1  0
  2 13  1  0
 13 14  1  6
 14 15  1  0
 16 15  1  6
 16 17  1  0
 17 18  1  1
 18 19  1  6
 18 20  1  0
 21 20  1  1
 21 22  1  0
 22 23  1  0
 23 24  1  1
 23 25  1  0
 25 26  1  0
 26 27  1  0
 27 28  1  6
 27 29  1  0
 29 30  1  6
 30 31  1  0
 31 32  1  0
 32 33  1  6
 32 13  1  0
 32 16  1  0
 29 17  1  0
 27 21  1  0
M  END
>  <MS_ID>  (1541) 
MS1603

>  <SMILES>  (1541) 
C[C@H](CCC(=O)OCS(=O)(=O)O)[C@H]1CC[C@H]2[C@@H]3[C@@H](O)C[C@@H]4C[C@H](O)CC[C@]4(C)[C@H]3CC[C@]12C

>  <Structure_dimension>  (1541) 
2D

$$$$
MS1604
     RDKit          2D

 29 32  0  0  0  0  0  0  0  0999 V2000
   -5.4192   -1.9418    0.0000 C   0  0  0  0  0  0  0  0  0  0  0  0
   -4.1779   -1.0997    0.0000 C   0  0  0  0  0  0  0  0  0  0  0  0
   -4.2866    0.3964    0.0000 C   0  0  0  0  0  0  0  0  0  0  0  0
   -5.6365    1.0503    0.0000 C   0  0  0  0  0  0  0  0  0  0  0  0
   -5.7452    2.5464    0.0000 C   0  0  0  0  0  0  0  0  0  0  0  0
   -4.5039    3.3885    0.0000 O   0  0  0  0  0  0  0  0  0  0  0  0
   -7.0951    3.2003    0.0000 O   0  0  0  0  0  0  0  0  0  0  0  0
   -2.8279   -1.7536    0.0000 C   0  0  0  0  0  0  0  0  0  0  0  0
   -2.5635   -3.2301    0.0000 C   0  0  0  0  0  0  0  0  0  0  0  0
   -1.0775   -3.4348    0.0000 C   0  0  0  0  0  0  0  0  0  0  0  0
   -0.4236   -2.0849    0.0000 C   0  0  0  0  0  0  0  0  0  0  0  0
    1.0172   -1.6675    0.0000 C   0  0  0  0  0  0  0  0  0  0  0  0
    2.0990   -2.7066    0.0000 C   0  0  0  0  0  0  0  0  0  0  0  0
    3.5398   -2.2893    0.0000 C   0  0  0  0  0  0  0  0  0  0  0  0
    3.8987   -0.8329    0.0000 C   0  0  0  0  0  0  0  0  0  0  0  0
    5.3395   -0.4155    0.0000 C   0  0  0  0  0  0  0  0  0  0  0  0
    5.6985    1.0409    0.0000 C   0  0  0  0  0  0  0  0  0  0  0  0
    7.1392    1.4582    0.0000 C   0  0  0  0  0  0  0  0  0  0  0  0
    8.5800    1.8756    0.0000 N   0  0  0  0  0  0  0  0  0  0  0  0
    4.6166    2.0800    0.0000 C   0  0  0  0  0  0  0  0  0  0  0  0
    3.1759    1.6626    0.0000 C   0  0  0  0  0  0  0  0  0  0  0  0
    2.8169    0.2062    0.0000 C   0  0  0  0  0  0  0  0  0  0  0  0
    1.7351    1.2453    0.0000 C   0  0  0  0  0  0  0  0  0  0  0  0
    1.3761   -0.2111    0.0000 C   0  0  0  0  0  0  0  0  0  0  0  0
    0.2943    0.8280    0.0000 C   0  0  0  0  0  0  0  0  0  0  0  0
   -1.1464    0.4106    0.0000 C   0  0  0  0  0  0  0  0  0  0  0  0
   -2.2283    1.4497    0.0000 O   0  0  0  0  0  0  0  0  0  0  0  0
   -1.5054   -1.0458    0.0000 C   0  0  0  0  0  0  0  0  0  0  0  0
   -2.6899   -0.1255    0.0000 C   0  0  0  0  0  0  0  0  0  0  0  0
  2  1  1  6
  2  3  1  0
  3  4  1  0
  4  5  1  0
  5  6  2  0
  5  7  1  0
  2  8  1  0
  8  9  1  6
  9 10  1  0
 11 10  1  6
 11 12  1  0
 12 13  1  1
 13 14  1  0
 15 14  1  1
 15 16  1  0
 16 17  1  0
 17 18  1  1
 18 19  3  0
 17 20  1  0
 20 21  1  0
 21 22  1  0
 22 23  1  6
 22 24  1  0
 24 25  1  6
 25 26  1  0
 26 27  1  6
 26 28  1  0
 28 29  1  6
 28  8  1  0
 28 11  1  0
 24 12  1  0
 22 15  1  0
M  END
>  <MS_ID>  (1542) 
MS1604

>  <SMILES>  (1542) 
C[C@H](CCC(=O)O)[C@H]1CC[C@H]2[C@@H]3CC[C@@H]4C[C@H](C#N)CC[C@]4(C)[C@H]3C[C@@H](O)[C@]12C

>  <Structure_dimension>  (1542) 
2D

$$$$
MS1605
     RDKit          2D

 32 35  0  0  0  0  0  0  0  0999 V2000
   -8.6341    3.0906    0.0000 C   0  0  0  0  0  0  0  0  0  0  0  0
   -7.1636    2.7950    0.0000 O   0  0  0  0  0  0  0  0  0  0  0  0
   -6.6843    1.3736    0.0000 C   0  0  0  0  0  0  0  0  0  0  0  0
   -7.6755    0.2478    0.0000 O   0  0  0  0  0  0  0  0  0  0  0  0
   -5.2137    1.0780    0.0000 C   0  0  0  0  0  0  0  0  0  0  0  0
   -4.2224    2.2038    0.0000 O   0  0  0  0  0  0  0  0  0  0  0  0
   -4.7344   -0.3434    0.0000 C   0  0  0  0  0  0  0  0  0  0  0  0
   -3.2638   -0.6389    0.0000 C   0  0  0  0  0  0  0  0  0  0  0  0
   -2.7845   -2.0603    0.0000 C   0  0  0  0  0  0  0  0  0  0  0  0
   -3.7758   -3.1861    0.0000 C   0  0  0  0  0  0  0  0  0  0  0  0
   -1.3139   -2.3559    0.0000 C   0  0  0  0  0  0  0  0  0  0  0  0
   -0.6886   -3.7194    0.0000 C   0  0  0  0  0  0  0  0  0  0  0  0
    0.8013   -3.5461    0.0000 C   0  0  0  0  0  0  0  0  0  0  0  0
    1.0969   -2.0755    0.0000 C   0  0  0  0  0  0  0  0  0  0  0  0
    2.3876   -1.3111    0.0000 C   0  0  0  0  0  0  0  0  0  0  0  0
    3.6948   -2.0467    0.0000 C   0  0  0  0  0  0  0  0  0  0  0  0
    3.7114   -3.5466    0.0000 O   0  0  0  0  0  0  0  0  0  0  0  0
    4.9855   -1.2823    0.0000 C   0  0  0  0  0  0  0  0  0  0  0  0
    4.9689    0.2176    0.0000 C   0  0  0  0  0  0  0  0  0  0  0  0
    6.2595    0.9819    0.0000 C   0  0  0  0  0  0  0  0  0  0  0  0
    6.2429    2.4818    0.0000 C   0  0  0  0  0  0  0  0  0  0  0  0
    7.5335    3.2462    0.0000 O   0  0  0  0  0  0  0  0  0  0  0  0
    4.9356    3.2174    0.0000 C   0  0  0  0  0  0  0  0  0  0  0  0
    3.6450    2.4530    0.0000 C   0  0  0  0  0  0  0  0  0  0  0  0
    3.6616    0.9531    0.0000 C   0  0  0  0  0  0  0  0  0  0  0  0
    2.3543    1.6887    0.0000 C   0  0  0  0  0  0  0  0  0  0  0  0
    2.3709    0.1888    0.0000 C   0  0  0  0  0  0  0  0  0  0  0  0
    1.0637    0.9243    0.0000 C   0  0  0  0  0  0  0  0  0  0  0  0
   -0.2270    0.1600    0.0000 C   0  0  0  0  0  0  0  0  0  0  0  0
   -1.5342    0.8956    0.0000 O   0  0  0  0  0  0  0  0  0  0  0  0
   -0.2104   -1.3399    0.0000 C   0  0  0  0  0  0  0  0  0  0  0  0
   -1.5874   -0.7450    0.0000 C   0  0  0  0  0  0  0  0  0  0  0  0
  1  2  1  0
  2  3  1  0
  3  4  2  0
  3  5  1  0
  5  6  2  0
  5  7  1  0
  7  8  1  0
  8  9  1  0
  9 10  1  6
  9 11  1  0
 11 12  1  6
 12 13  1  0
 14 13  1  6
 14 15  1  0
 15 16  1  1
 16 17  1  1
 16 18  1  0
 19 18  1  1
 19 20  1  0
 20 21  1  0
 21 22  1  1
 21 23  1  0
 23 24  1  0
 24 25  1  0
 25 26  1  6
 25 27  1  0
 27 28  1  6
 28 29  1  0
 29 30  1  1
 29 31  1  0
 31 32  1  6
 31 11  1  0
 31 14  1  0
 27 15  1  0
 25 19  1  0
M  END
>  <MS_ID>  (1543) 
MS1605

>  <SMILES>  (1543) 
COC(=O)C(=O)CC[C@@H](C)[C@H]1CC[C@H]2[C@@H]3[C@H](O)C[C@@H]4C[C@H](O)CC[C@]4(C)[C@H]3C[C@H](O)[C@]12C

>  <Structure_dimension>  (1543) 
2D

$$$$
MS1606
     RDKit          2D

 30 33  0  0  0  0  0  0  0  0999 V2000
   -5.0361   -2.2421    0.0000 C   0  0  0  0  0  0  0  0  0  0  0  0
   -3.9151   -1.2454    0.0000 C   0  0  0  0  0  0  0  0  0  0  0  0
   -4.2177    0.2237    0.0000 C   0  0  0  0  0  0  0  0  0  0  0  0
   -5.6413    0.6963    0.0000 C   0  0  0  0  0  0  0  0  0  0  0  0
   -5.9439    2.1654    0.0000 C   0  0  0  0  0  0  0  0  0  0  0  0
   -4.8228    3.1621    0.0000 O   0  0  0  0  0  0  0  0  0  0  0  0
   -7.3675    2.6380    0.0000 O   0  0  0  0  0  0  0  0  0  0  0  0
   -2.4915   -1.7180    0.0000 C   0  0  0  0  0  0  0  0  0  0  0  0
   -2.0370   -3.1475    0.0000 C   0  0  0  0  0  0  0  0  0  0  0  0
   -0.5370   -3.1570    0.0000 C   0  0  0  0  0  0  0  0  0  0  0  0
   -0.0645   -1.7333    0.0000 C   0  0  0  0  0  0  0  0  0  0  0  0
    1.3097   -1.1319    0.0000 C   0  0  0  0  0  0  0  0  0  0  0  0
    2.5176   -2.0213    0.0000 C   0  0  0  0  0  0  0  0  0  0  0  0
    2.3514   -3.5120    0.0000 C   0  0  0  0  0  0  0  0  0  0  0  0
    3.5593   -4.4014    0.0000 N   0  0  0  0  0  0  0  0  0  0  0  0
    3.8918   -1.4198    0.0000 C   0  0  0  0  0  0  0  0  0  0  0  0
    4.0580    0.0709    0.0000 C   0  0  0  0  0  0  0  0  0  0  0  0
    5.4321    0.6723    0.0000 C   0  0  0  0  0  0  0  0  0  0  0  0
    5.5984    2.1631    0.0000 C   0  0  0  0  0  0  0  0  0  0  0  0
    6.9725    2.7645    0.0000 O   0  0  0  0  0  0  0  0  0  0  0  0
    4.3904    3.0524    0.0000 C   0  0  0  0  0  0  0  0  0  0  0  0
    3.0163    2.4510    0.0000 C   0  0  0  0  0  0  0  0  0  0  0  0
    2.8501    0.9603    0.0000 C   0  0  0  0  0  0  0  0  0  0  0  0
    1.6421    1.8496    0.0000 C   0  0  0  0  0  0  0  0  0  0  0  0
    1.4759    0.3588    0.0000 C   0  0  0  0  0  0  0  0  0  0  0  0
    0.2680    1.2482    0.0000 C   0  0  0  0  0  0  0  0  0  0  0  0
   -1.1062    0.6468    0.0000 C   0  0  0  0  0  0  0  0  0  0  0  0
   -2.3141    1.5361    0.0000 O   0  0  0  0  0  0  0  0  0  0  0  0
   -1.2724   -0.8440    0.0000 C   0  0  0  0  0  0  0  0  0  0  0  0
   -2.5667   -0.0858    0.0000 C   0  0  0  0  0  0  0  0  0  0  0  0
  2  1  1  6
  2  3  1  0
  3  4  1  0
  4  5  1  0
  5  6  2  0
  5  7  1  0
  2  8  1  0
  8  9  1  6
  9 10  1  0
 11 10  1  6
 11 12  1  0
 12 13  1  1
 13 14  1  1
 14 15  1  0
 13 16  1  0
 17 16  1  1
 17 18  1  0
 18 19  1  0
 19 20  1  1
 19 21  1  0
 21 22  1  0
 22 23  1  0
 23 24  1  6
 23 25  1  0
 25 26  1  6
 26 27  1  0
 27 28  1  1
 27 29  1  0
 29 30  1  6
 29  8  1  0
 29 11  1  0
 25 12  1  0
 23 17  1  0
M  END
>  <MS_ID>  (1544) 
MS1606

>  <SMILES>  (1544) 
C[C@H](CCC(=O)O)[C@H]1CC[C@H]2[C@@H]3[C@H](CN)C[C@@H]4C[C@H](O)CC[C@]4(C)[C@H]3C[C@H](O)[C@]12C

>  <Structure_dimension>  (1544) 
2D

$$$$
MS1607
     RDKit          2D

 28 31  0  0  0  0  0  0  0  0999 V2000
   -5.0096   -2.1352    0.0000 C   0  0  0  0  0  0  0  0  0  0  0  0
   -3.8132   -1.2303    0.0000 C   0  0  0  0  0  0  0  0  0  0  0  0
   -3.9987    0.2582    0.0000 C   0  0  0  0  0  0  0  0  0  0  0  0
   -5.3805    0.8418    0.0000 C   0  0  0  0  0  0  0  0  0  0  0  0
   -5.5659    2.3303    0.0000 C   0  0  0  0  0  0  0  0  0  0  0  0
   -4.3695    3.2351    0.0000 O   0  0  0  0  0  0  0  0  0  0  0  0
   -6.9477    2.9140    0.0000 O   0  0  0  0  0  0  0  0  0  0  0  0
   -2.4315   -1.8140    0.0000 C   0  0  0  0  0  0  0  0  0  0  0  0
   -2.0914   -3.2749    0.0000 C   0  0  0  0  0  0  0  0  0  0  0  0
   -0.5969   -3.4030    0.0000 C   0  0  0  0  0  0  0  0  0  0  0  0
   -0.0133   -2.0212    0.0000 C   0  0  0  0  0  0  0  0  0  0  0  0
    1.4041   -1.5304    0.0000 C   0  0  0  0  0  0  0  0  0  0  0  0
    2.5379   -2.5125    0.0000 C   0  0  0  0  0  0  0  0  0  0  0  0
    3.9554   -2.0216    0.0000 C   0  0  0  0  0  0  0  0  0  0  0  0
    4.2390   -0.5487    0.0000 C   0  0  0  0  0  0  0  0  0  0  0  0
    5.6564   -0.0578    0.0000 C   0  0  0  0  0  0  0  0  0  0  0  0
    5.9400    1.4151    0.0000 C   0  0  0  0  0  0  0  0  0  0  0  0
    7.3574    1.9060    0.0000 S   0  0  0  0  0  0  0  0  0  0  0  0
    4.8062    2.3972    0.0000 C   0  0  0  0  0  0  0  0  0  0  0  0
    3.3888    1.9064    0.0000 C   0  0  0  0  0  0  0  0  0  0  0  0
    3.1052    0.4334    0.0000 C   0  0  0  0  0  0  0  0  0  0  0  0
    1.9714    1.4155    0.0000 C   0  0  0  0  0  0  0  0  0  0  0  0
    1.6878   -0.0574    0.0000 C   0  0  0  0  0  0  0  0  0  0  0  0
    0.5540    0.9246    0.0000 C   0  0  0  0  0  0  0  0  0  0  0  0
   -0.8635    0.4338    0.0000 C   0  0  0  0  0  0  0  0  0  0  0  0
   -1.9973    1.4159    0.0000 O   0  0  0  0  0  0  0  0  0  0  0  0
   -1.1471   -1.0392    0.0000 C   0  0  0  0  0  0  0  0  0  0  0  0
   -2.3773   -0.1810    0.0000 C   0  0  0  0  0  0  0  0  0  0  0  0
  2  1  1  6
  2  3  1  0
  3  4  1  0
  4  5  1  0
  5  6  2  0
  5  7  1  0
  2  8  1  0
  8  9  1  6
  9 10  1  0
 11 10  1  6
 11 12  1  0
 12 13  1  1
 13 14  1  0
 15 14  1  1
 15 16  1  0
 16 17  1  0
 17 18  1  1
 17 19  1  0
 19 20  1  0
 20 21  1  0
 21 22  1  6
 21 23  1  0
 23 24  1  6
 24 25  1  0
 25 26  1  1
 25 27  1  0
 27 28  1  6
 27  8  1  0
 27 11  1  0
 23 12  1  0
 21 15  1  0
M  END
>  <MS_ID>  (1545) 
MS1607

>  <SMILES>  (1545) 
C[C@H](CCC(=O)O)[C@H]1CC[C@H]2[C@@H]3CC[C@@H]4C[C@H](S)CC[C@]4(C)[C@H]3C[C@H](O)[C@]12C

>  <Structure_dimension>  (1545) 
2D

$$$$
MS1608
     RDKit          2D

 33 36  0  0  0  0  0  0  0  0999 V2000
   -2.4343   -4.1694    0.0000 C   0  0  0  0  0  0  0  0  0  0  0  0
   -1.6856   -2.8696    0.0000 C   0  0  0  0  0  0  0  0  0  0  0  0
   -2.4369   -1.5713    0.0000 C   0  0  0  0  0  0  0  0  0  0  0  0
   -3.9369   -1.5728    0.0000 C   0  0  0  0  0  0  0  0  0  0  0  0
   -4.6882   -0.2745    0.0000 C   0  0  0  0  0  0  0  0  0  0  0  0
   -3.9395    1.0253    0.0000 O   0  0  0  0  0  0  0  0  0  0  0  0
   -6.1882   -0.2760    0.0000 C   0  0  0  0  0  0  0  0  0  0  0  0
   -6.9395    1.0223    0.0000 C   0  0  0  0  0  0  0  0  0  0  0  0
   -8.4395    1.0208    0.0000 O   0  0  0  0  0  0  0  0  0  0  0  0
   -9.1908    2.3191    0.0000 C   0  0  0  0  0  0  0  0  0  0  0  0
   -8.4421    3.6189    0.0000 O   0  0  0  0  0  0  0  0  0  0  0  0
  -10.6908    2.3176    0.0000 O   0  0  0  0  0  0  0  0  0  0  0  0
   -0.1856   -2.8681    0.0000 C   0  0  0  0  0  0  0  0  0  0  0  0
    0.6973   -4.0807    0.0000 C   0  0  0  0  0  0  0  0  0  0  0  0
    2.1234   -3.6158    0.0000 C   0  0  0  0  0  0  0  0  0  0  0  0
    2.1219   -2.1158    0.0000 C   0  0  0  0  0  0  0  0  0  0  0  0
    3.2356   -1.1109    0.0000 C   0  0  0  0  0  0  0  0  0  0  0  0
    4.6626   -1.5730    0.0000 C   0  0  0  0  0  0  0  0  0  0  0  0
    4.9760   -3.0399    0.0000 O   0  0  0  0  0  0  0  0  0  0  0  0
    5.7764   -0.5682    0.0000 C   0  0  0  0  0  0  0  0  0  0  0  0
    5.4630    0.8987    0.0000 C   0  0  0  0  0  0  0  0  0  0  0  0
    6.5767    1.9035    0.0000 C   0  0  0  0  0  0  0  0  0  0  0  0
    6.2634    3.3704    0.0000 C   0  0  0  0  0  0  0  0  0  0  0  0
    7.3771    4.3752    0.0000 O   0  0  0  0  0  0  0  0  0  0  0  0
    4.8363    3.8325    0.0000 C   0  0  0  0  0  0  0  0  0  0  0  0
    3.7226    2.8277    0.0000 C   0  0  0  0  0  0  0  0  0  0  0  0
    4.0360    1.3608    0.0000 C   0  0  0  0  0  0  0  0  0  0  0  0
    2.6089    1.8229    0.0000 C   0  0  0  0  0  0  0  0  0  0  0  0
    2.9223    0.3560    0.0000 C   0  0  0  0  0  0  0  0  0  0  0  0
    1.4952    0.8181    0.0000 C   0  0  0  0  0  0  0  0  0  0  0  0
    0.3815   -0.1867    0.0000 C   0  0  0  0  0  0  0  0  0  0  0  0
    0.6948   -1.6537    0.0000 C   0  0  0  0  0  0  0  0  0  0  0  0
   -0.7727   -1.3433    0.0000 C   0  0  0  0  0  0  0  0  0  0  0  0
  2  1  1  6
  2  3  1  0
  3  4  1  0
  4  5  1  0
  5  6  2  0
  5  7  1  0
  7  8  1  0
  8  9  1  0
  9 10  1  0
 10 11  2  0
 10 12  1  0
  2 13  1  0
 13 14  1  6
 14 15  1  0
 16 15  1  6
 16 17  1  0
 17 18  1  1
 18 19  1  1
 18 20  1  0
 21 20  1  1
 21 22  1  0
 22 23  1  0
 23 24  1  1
 23 25  1  0
 25 26  1  0
 26 27  1  0
 27 28  1  6
 27 29  1  0
 29 30  1  6
 30 31  1  0
 31 32  1  0
 32 33  1  6
 32 13  1  0
 32 16  1  0
 29 17  1  0
 27 21  1  0
M  END
>  <MS_ID>  (1546) 
MS1608

>  <SMILES>  (1546) 
C[C@H](CCC(=O)CCOC(=O)O)[C@H]1CC[C@H]2[C@@H]3[C@H](O)C[C@@H]4C[C@H](O)CC[C@]4(C)[C@H]3CC[C@]12C

>  <Structure_dimension>  (1546) 
2D

$$$$
MS1609
     RDKit          2D

 30 33  0  0  0  0  0  0  0  0999 V2000
   -4.1099   -3.1124    0.0000 C   0  0  0  0  0  0  0  0  0  0  0  0
   -3.1089   -1.9953    0.0000 C   0  0  0  0  0  0  0  0  0  0  0  0
   -3.5759   -0.5698    0.0000 C   0  0  0  0  0  0  0  0  0  0  0  0
   -5.0438   -0.2615    0.0000 C   0  0  0  0  0  0  0  0  0  0  0  0
   -5.5108    1.1640    0.0000 C   0  0  0  0  0  0  0  0  0  0  0  0
   -4.5097    2.2811    0.0000 O   0  0  0  0  0  0  0  0  0  0  0  0
   -6.9787    1.4724    0.0000 C   0  0  0  0  0  0  0  0  0  0  0  0
   -7.4457    2.8978    0.0000 C   0  0  0  0  0  0  0  0  0  0  0  0
   -8.9136    3.2062    0.0000 N   0  0  0  0  0  0  0  0  0  0  0  0
   -1.6409   -2.3036    0.0000 C   0  0  0  0  0  0  0  0  0  0  0  0
   -1.0276   -3.6725    0.0000 C   0  0  0  0  0  0  0  0  0  0  0  0
    0.4638   -3.5121    0.0000 C   0  0  0  0  0  0  0  0  0  0  0  0
    0.7722   -2.0441    0.0000 C   0  0  0  0  0  0  0  0  0  0  0  0
    2.0694   -1.2910    0.0000 C   0  0  0  0  0  0  0  0  0  0  0  0
    3.3703   -2.0379    0.0000 C   0  0  0  0  0  0  0  0  0  0  0  0
    3.3739   -3.5379    0.0000 O   0  0  0  0  0  0  0  0  0  0  0  0
    4.6675   -1.2848    0.0000 C   0  0  0  0  0  0  0  0  0  0  0  0
    4.6639    0.2152    0.0000 C   0  0  0  0  0  0  0  0  0  0  0  0
    5.9611    0.9683    0.0000 C   0  0  0  0  0  0  0  0  0  0  0  0
    5.9575    2.4683    0.0000 C   0  0  0  0  0  0  0  0  0  0  0  0
    7.2548    3.2214    0.0000 O   0  0  0  0  0  0  0  0  0  0  0  0
    4.6567    3.2152    0.0000 C   0  0  0  0  0  0  0  0  0  0  0  0
    3.3595    2.4621    0.0000 C   0  0  0  0  0  0  0  0  0  0  0  0
    3.3631    0.9621    0.0000 C   0  0  0  0  0  0  0  0  0  0  0  0
    2.0622    1.7090    0.0000 C   0  0  0  0  0  0  0  0  0  0  0  0
    2.0658    0.2090    0.0000 C   0  0  0  0  0  0  0  0  0  0  0  0
    0.7650    0.9559    0.0000 C   0  0  0  0  0  0  0  0  0  0  0  0
   -0.5322    0.2027    0.0000 C   0  0  0  0  0  0  0  0  0  0  0  0
   -0.5286   -1.2973    0.0000 C   0  0  0  0  0  0  0  0  0  0  0  0
   -1.9004   -0.6904    0.0000 C   0  0  0  0  0  0  0  0  0  0  0  0
  2  1  1  6
  2  3  1  0
  3  4  1  0
  4  5  1  0
  5  6  2  0
  5  7  1  0
  7  8  1  0
  8  9  1  0
  2 10  1  0
 10 11  1  6
 11 12  1  0
 13 12  1  6
 13 14  1  0
 14 15  1  1
 15 16  1  1
 15 17  1  0
 18 17  1  1
 18 19  1  0
 19 20  1  0
 20 21  1  1
 20 22  1  0
 22 23  1  0
 23 24  1  0
 24 25  1  6
 24 26  1  0
 26 27  1  6
 27 28  1  0
 28 29  1  0
 29 30  1  6
 29 10  1  0
 29 13  1  0
 26 14  1  0
 24 18  1  0
M  END
>  <MS_ID>  (1547) 
MS1609

>  <SMILES>  (1547) 
C[C@H](CCC(=O)CCN)[C@H]1CC[C@H]2[C@@H]3[C@H](O)C[C@@H]4C[C@H](O)CC[C@]4(C)[C@H]3CC[C@]12C

>  <Structure_dimension>  (1547) 
2D

$$$$
MS1610
     RDKit          2D

 37 41  0  0  0  0  0  0  0  0999 V2000
   -1.0105   -4.4077    0.0000 C   0  0  0  0  0  0  0  0  0  0  0  0
   -0.3513   -3.0603    0.0000 C   0  0  0  0  0  0  0  0  0  0  0  0
   -1.1887   -1.8158    0.0000 C   0  0  0  0  0  0  0  0  0  0  0  0
   -2.6851   -1.9186    0.0000 C   0  0  0  0  0  0  0  0  0  0  0  0
   -3.5224   -0.6741    0.0000 C   0  0  0  0  0  0  0  0  0  0  0  0
   -2.8633    0.6733    0.0000 O   0  0  0  0  0  0  0  0  0  0  0  0
   -5.0189   -0.7769    0.0000 C   0  0  0  0  0  0  0  0  0  0  0  0
   -5.8562    0.4676    0.0000 C   0  0  0  0  0  0  0  0  0  0  0  0
   -7.3527    0.3647    0.0000 C   0  0  0  0  0  0  0  0  0  0  0  0
   -8.1900    1.6093    0.0000 C   0  0  0  0  0  0  0  0  0  0  0  0
   -9.6865    1.5064    0.0000 N   0  0  0  0  0  0  0  0  0  0  0  0
  -10.4829    0.2353    0.0000 C   0  0  0  0  0  0  0  0  0  0  0  0
  -11.9379    0.5999    0.0000 C   0  0  0  0  0  0  0  0  0  0  0  0
  -12.0407    2.0964    0.0000 N   0  0  0  0  0  0  0  0  0  0  0  0
  -10.6493    2.6566    0.0000 C   0  0  0  0  0  0  0  0  0  0  0  0
    1.1451   -2.9575    0.0000 C   0  0  0  0  0  0  0  0  0  0  0  0
    2.1079   -4.1077    0.0000 C   0  0  0  0  0  0  0  0  0  0  0  0
    3.4994   -3.5474    0.0000 C   0  0  0  0  0  0  0  0  0  0  0  0
    3.3965   -2.0509    0.0000 C   0  0  0  0  0  0  0  0  0  0  0  0
    4.4398   -0.9732    0.0000 C   0  0  0  0  0  0  0  0  0  0  0  0
    5.8948   -1.3378    0.0000 C   0  0  0  0  0  0  0  0  0  0  0  0
    6.3066   -2.7801    0.0000 O   0  0  0  0  0  0  0  0  0  0  0  0
    6.9381   -0.2600    0.0000 C   0  0  0  0  0  0  0  0  0  0  0  0
    6.5263    1.1824    0.0000 C   0  0  0  0  0  0  0  0  0  0  0  0
    7.5696    2.2602    0.0000 C   0  0  0  0  0  0  0  0  0  0  0  0
    7.1578    3.7026    0.0000 C   0  0  0  0  0  0  0  0  0  0  0  0
    8.2011    4.7803    0.0000 O   0  0  0  0  0  0  0  0  0  0  0  0
    5.7028    4.0672    0.0000 C   0  0  0  0  0  0  0  0  0  0  0  0
    4.6596    2.9894    0.0000 C   0  0  0  0  0  0  0  0  0  0  0  0
    5.0713    1.5470    0.0000 C   0  0  0  0  0  0  0  0  0  0  0  0
    3.6163    1.9116    0.0000 C   0  0  0  0  0  0  0  0  0  0  0  0
    4.0280    0.4692    0.0000 C   0  0  0  0  0  0  0  0  0  0  0  0
    2.5730    0.8338    0.0000 C   0  0  0  0  0  0  0  0  0  0  0  0
    1.5298   -0.2439    0.0000 C   0  0  0  0  0  0  0  0  0  0  0  0
    0.0748    0.1207    0.0000 O   0  0  0  0  0  0  0  0  0  0  0  0
    1.9415   -1.6863    0.0000 C   0  0  0  0  0  0  0  0  0  0  0  0
    0.4564   -1.4758    0.0000 C   0  0  0  0  0  0  0  0  0  0  0  0
  2  1  1  6
  2  3  1  0
  3  4  1  0
  4  5  1  0
  5  6  2  0
  5  7  1  0
  7  8  1  0
  8  9  1  0
  9 10  1  0
 10 11  1  0
 11 12  1  0
 12 13  2  0
 13 14  1  0
 14 15  2  0
  2 16  1  0
 16 17  1  6
 17 18  1  0
 19 18  1  6
 19 20  1  0
 20 21  1  1
 21 22  1  1
 21 23  1  0
 24 23  1  1
 24 25  1  0
 25 26  1  0
 26 27  1  1
 26 28  1  0
 28 29  1  0
 29 30  1  0
 30 31  1  6
 30 32  1  0
 32 33  1  6
 33 34  1  0
 34 35  1  1
 34 36  1  0
 36 37  1  6
 15 11  1  0
 36 16  1  0
 36 19  1  0
 32 20  1  0
 30 24  1  0
M  END
>  <MS_ID>  (1548) 
MS1610

>  <SMILES>  (1548) 
C[C@H](CCC(=O)CCCCn1ccnc1)[C@H]1CC[C@H]2[C@@H]3[C@H](O)C[C@@H]4C[C@H](O)CC[C@]4(C)[C@H]3C[C@H](O)[C@]12C

>  <Structure_dimension>  (1548) 
2D

$$$$
MS1611
     RDKit          2D

 30 33  0  0  0  0  0  0  0  0999 V2000
   -4.8730   -2.6502    0.0000 C   0  0  0  0  0  0  0  0  0  0  0  0
   -3.8007   -1.6013    0.0000 C   0  0  0  0  0  0  0  0  0  0  0  0
   -4.1730   -0.1482    0.0000 C   0  0  0  0  0  0  0  0  0  0  0  0
   -5.6175    0.2559    0.0000 C   0  0  0  0  0  0  0  0  0  0  0  0
   -5.9898    1.7090    0.0000 C   0  0  0  0  0  0  0  0  0  0  0  0
   -7.4343    2.1132    0.0000 O   0  0  0  0  0  0  0  0  0  0  0  0
   -4.9175    2.7579    0.0000 O   0  0  0  0  0  0  0  0  0  0  0  0
   -5.2897    4.2110    0.0000 N   0  0  0  0  0  0  0  0  0  0  0  0
   -2.3562   -2.0055    0.0000 C   0  0  0  0  0  0  0  0  0  0  0  0
   -1.8341   -3.4117    0.0000 C   0  0  0  0  0  0  0  0  0  0  0  0
   -0.3354   -3.3497    0.0000 C   0  0  0  0  0  0  0  0  0  0  0  0
    0.0688   -1.9051    0.0000 C   0  0  0  0  0  0  0  0  0  0  0  0
    1.4127   -1.2389    0.0000 C   0  0  0  0  0  0  0  0  0  0  0  0
    2.6616   -2.0697    0.0000 C   0  0  0  0  0  0  0  0  0  0  0  0
    2.5666   -3.5667    0.0000 O   0  0  0  0  0  0  0  0  0  0  0  0
    4.0056   -1.4035    0.0000 C   0  0  0  0  0  0  0  0  0  0  0  0
    5.2545   -2.2342    0.0000 O   0  0  0  0  0  0  0  0  0  0  0  0
    4.1006    0.0935    0.0000 C   0  0  0  0  0  0  0  0  0  0  0  0
    5.4445    0.7598    0.0000 C   0  0  0  0  0  0  0  0  0  0  0  0
    5.5395    2.2567    0.0000 C   0  0  0  0  0  0  0  0  0  0  0  0
    6.8834    2.9230    0.0000 O   0  0  0  0  0  0  0  0  0  0  0  0
    4.2905    3.0875    0.0000 C   0  0  0  0  0  0  0  0  0  0  0  0
    2.9466    2.4213    0.0000 C   0  0  0  0  0  0  0  0  0  0  0  0
    2.8516    0.9243    0.0000 C   0  0  0  0  0  0  0  0  0  0  0  0
    1.6027    1.7551    0.0000 C   0  0  0  0  0  0  0  0  0  0  0  0
    1.5077    0.2581    0.0000 C   0  0  0  0  0  0  0  0  0  0  0  0
    0.2588    1.0888    0.0000 C   0  0  0  0  0  0  0  0  0  0  0  0
   -1.0852    0.4226    0.0000 C   0  0  0  0  0  0  0  0  0  0  0  0
   -1.1802   -1.0744    0.0000 C   0  0  0  0  0  0  0  0  0  0  0  0
   -2.5091   -0.3787    0.0000 C   0  0  0  0  0  0  0  0  0  0  0  0
  2  1  1  6
  2  3  1  0
  3  4  1  0
  4  5  1  0
  5  6  2  0
  5  7  1  0
  7  8  1  0
  2  9  1  0
  9 10  1  6
 10 11  1  0
 12 11  1  6
 12 13  1  0
 13 14  1  1
 14 15  1  1
 14 16  1  0
 16 17  1  1
 16 18  1  0
 18 19  1  1
 19 20  1  0
 20 21  1  1
 20 22  1  0
 22 23  1  0
 23 24  1  0
 24 25  1  6
 24 26  1  0
 26 27  1  6
 27 28  1  0
 28 29  1  0
 29 30  1  6
 29  9  1  0
 29 12  1  0
 26 13  1  0
 24 18  1  0
M  END
>  <MS_ID>  (1549) 
MS1611

>  <SMILES>  (1549) 
C[C@H](CCC(=O)ON)[C@H]1CC[C@H]2[C@@H]3[C@H](O)[C@H](O)[C@@H]4C[C@H](O)CC[C@]4(C)[C@H]3CC[C@]12C

>  <Structure_dimension>  (1549) 
2D

$$$$
MS1612
     RDKit          2D

 37 40  0  0  0  0  0  0  0  0999 V2000
   -1.1999   -4.6110    0.0000 C   0  0  0  0  0  0  0  0  0  0  0  0
   -0.6117   -3.2311    0.0000 C   0  0  0  0  0  0  0  0  0  0  0  0
   -1.5126   -2.0318    0.0000 C   0  0  0  0  0  0  0  0  0  0  0  0
   -3.0017   -2.2124    0.0000 C   0  0  0  0  0  0  0  0  0  0  0  0
   -3.9027   -1.0131    0.0000 C   0  0  0  0  0  0  0  0  0  0  0  0
   -3.3145    0.3668    0.0000 O   0  0  0  0  0  0  0  0  0  0  0  0
   -5.3918   -1.1937    0.0000 C   0  0  0  0  0  0  0  0  0  0  0  0
   -6.2927    0.0056    0.0000 C   0  0  0  0  0  0  0  0  0  0  0  0
   -5.7046    1.3855    0.0000 O   0  0  0  0  0  0  0  0  0  0  0  0
   -7.7818   -0.1750    0.0000 N   0  0  0  0  0  0  0  0  0  0  0  0
   -8.6827    1.0243    0.0000 C   0  0  0  0  0  0  0  0  0  0  0  0
  -10.1718    0.8437    0.0000 C   0  0  0  0  0  0  0  0  0  0  0  0
  -11.0728    2.0430    0.0000 C   0  0  0  0  0  0  0  0  0  0  0  0
  -10.4846    3.4229    0.0000 O   0  0  0  0  0  0  0  0  0  0  0  0
  -12.5618    1.8625    0.0000 O   0  0  0  0  0  0  0  0  0  0  0  0
    0.8774   -3.0505    0.0000 C   0  0  0  0  0  0  0  0  0  0  0  0
    1.8987   -4.1491    0.0000 C   0  0  0  0  0  0  0  0  0  0  0  0
    3.2591   -3.5171    0.0000 C   0  0  0  0  0  0  0  0  0  0  0  0
    3.0786   -2.0281    0.0000 C   0  0  0  0  0  0  0  0  0  0  0  0
    4.0643   -0.8975    0.0000 C   0  0  0  0  0  0  0  0  0  0  0  0
    5.5363   -1.1859    0.0000 C   0  0  0  0  0  0  0  0  0  0  0  0
    6.0226   -2.6049    0.0000 O   0  0  0  0  0  0  0  0  0  0  0  0
    6.5221   -0.0553    0.0000 C   0  0  0  0  0  0  0  0  0  0  0  0
    7.9941   -0.3437    0.0000 O   0  0  0  0  0  0  0  0  0  0  0  0
    6.0359    1.3637    0.0000 C   0  0  0  0  0  0  0  0  0  0  0  0
    7.0217    2.4943    0.0000 C   0  0  0  0  0  0  0  0  0  0  0  0
    6.5354    3.9133    0.0000 C   0  0  0  0  0  0  0  0  0  0  0  0
    7.5212    5.0439    0.0000 O   0  0  0  0  0  0  0  0  0  0  0  0
    5.0634    4.2017    0.0000 C   0  0  0  0  0  0  0  0  0  0  0  0
    4.0776    3.0711    0.0000 C   0  0  0  0  0  0  0  0  0  0  0  0
    4.5639    1.6521    0.0000 C   0  0  0  0  0  0  0  0  0  0  0  0
    3.0919    1.9405    0.0000 C   0  0  0  0  0  0  0  0  0  0  0  0
    3.5781    0.5215    0.0000 C   0  0  0  0  0  0  0  0  0  0  0  0
    2.1061    0.8099    0.0000 C   0  0  0  0  0  0  0  0  0  0  0  0
    1.1203   -0.3207    0.0000 C   0  0  0  0  0  0  0  0  0  0  0  0
    1.6065   -1.7397    0.0000 C   0  0  0  0  0  0  0  0  0  0  0  0
    0.1125   -1.6067    0.0000 C   0  0  0  0  0  0  0  0  0  0  0  0
  2  1  1  6
  2  3  1  0
  3  4  1  0
  4  5  1  0
  5  6  2  0
  5  7  1  0
  7  8  1  0
  8  9  2  0
  8 10  1  0
 10 11  1  0
 11 12  1  0
 12 13  1  0
 13 14  2  0
 13 15  1  0
  2 16  1  0
 16 17  1  6
 17 18  1  0
 19 18  1  6
 19 20  1  0
 20 21  1  1
 21 22  1  1
 21 23  1  0
 23 24  1  1
 23 25  1  0
 25 26  1  1
 26 27  1  0
 27 28  1  1
 27 29  1  0
 29 30  1  0
 30 31  1  0
 31 32  1  6
 31 33  1  0
 33 34  1  6
 34 35  1  0
 35 36  1  0
 36 37  1  6
 36 16  1  0
 36 19  1  0
 33 20  1  0
 31 25  1  0
M  END
>  <MS_ID>  (1550) 
MS1612

>  <SMILES>  (1550) 
C[C@H](CCC(=O)CC(=O)NCCC(=O)O)[C@H]1CC[C@H]2[C@@H]3[C@H](O)[C@H](O)[C@@H]4C[C@H](O)CC[C@]4(C)[C@H]3CC[C@]12C

>  <Structure_dimension>  (1550) 
2D

$$$$
MS1613
     RDKit          2D

 34 37  0  0  0  0  0  0  0  0999 V2000
   -7.3886    2.7669    0.0000 C   0  0  0  0  0  0  0  0  0  0  0  0
   -6.9477    1.3331    0.0000 O   0  0  0  0  0  0  0  0  0  0  0  0
   -5.4856    0.9981    0.0000 C   0  0  0  0  0  0  0  0  0  0  0  0
   -4.4644    2.0968    0.0000 O   0  0  0  0  0  0  0  0  0  0  0  0
   -5.0447   -0.4356    0.0000 C   0  0  0  0  0  0  0  0  0  0  0  0
   -3.5825   -0.7706    0.0000 C   0  0  0  0  0  0  0  0  0  0  0  0
   -3.1416   -2.2044    0.0000 C   0  0  0  0  0  0  0  0  0  0  0  0
   -4.1628   -3.3031    0.0000 C   0  0  0  0  0  0  0  0  0  0  0  0
   -1.6795   -2.5394    0.0000 C   0  0  0  0  0  0  0  0  0  0  0  0
   -1.0912   -3.9192    0.0000 C   0  0  0  0  0  0  0  0  0  0  0  0
    0.4029   -3.7860    0.0000 C   0  0  0  0  0  0  0  0  0  0  0  0
    0.7379   -2.3239    0.0000 C   0  0  0  0  0  0  0  0  0  0  0  0
    2.0487   -1.5945    0.0000 C   0  0  0  0  0  0  0  0  0  0  0  0
    3.3357   -2.3650    0.0000 C   0  0  0  0  0  0  0  0  0  0  0  0
    3.3120   -3.8648    0.0000 O   0  0  0  0  0  0  0  0  0  0  0  0
    4.6464   -1.6356    0.0000 C   0  0  0  0  0  0  0  0  0  0  0  0
    4.6701   -0.1358    0.0000 C   0  0  0  0  0  0  0  0  0  0  0  0
    5.9809    0.5936    0.0000 C   0  0  0  0  0  0  0  0  0  0  0  0
    6.0046    2.0934    0.0000 C   0  0  0  0  0  0  0  0  0  0  0  0
    7.3153    2.8228    0.0000 O   0  0  0  0  0  0  0  0  0  0  0  0
    4.7176    2.8638    0.0000 C   0  0  0  0  0  0  0  0  0  0  0  0
    3.4068    2.1345    0.0000 C   0  0  0  0  0  0  0  0  0  0  0  0
    3.3831    0.6347    0.0000 C   0  0  0  0  0  0  0  0  0  0  0  0
    2.0961    1.4051    0.0000 C   0  0  0  0  0  0  0  0  0  0  0  0
    2.0724   -0.0947    0.0000 C   0  0  0  0  0  0  0  0  0  0  0  0
    0.7854    0.6757    0.0000 C   0  0  0  0  0  0  0  0  0  0  0  0
   -0.5254   -0.0536    0.0000 C   0  0  0  0  0  0  0  0  0  0  0  0
   -1.8124    0.7168    0.0000 O   0  0  0  0  0  0  0  0  0  0  0  0
   -1.7887    2.2166    0.0000 S   0  0  0  0  0  0  0  0  0  0  0  0
   -0.2889    2.1929    0.0000 O   0  0  0  0  0  0  0  0  0  0  0  0
   -3.2885    2.2403    0.0000 O   0  0  0  0  0  0  0  0  0  0  0  0
   -1.7650    3.7164    0.0000 O   0  0  0  0  0  0  0  0  0  0  0  0
   -0.5491   -1.5535    0.0000 C   0  0  0  0  0  0  0  0  0  0  0  0
   -1.9096   -0.9218    0.0000 C   0  0  0  0  0  0  0  0  0  0  0  0
  1  2  1  0
  2  3  1  0
  3  4  2  0
  3  5  1  0
  5  6  1  0
  6  7  1  0
  7  8  1  6
  7  9  1  0
  9 10  1  6
 10 11  1  0
 12 11  1  6
 12 13  1  0
 13 14  1  1
 14 15  1  1
 14 16  1  0
 17 16  1  1
 17 18  1  0
 18 19  1  0
 19 20  1  1
 19 21  1  0
 21 22  1  0
 22 23  1  0
 23 24  1  6
 23 25  1  0
 25 26  1  6
 26 27  1  0
 27 28  1  1
 28 29  1  0
 29 30  2  0
 29 31  2  0
 29 32  1  0
 27 33  1  0
 33 34  1  6
 33  9  1  0
 33 12  1  0
 25 13  1  0
 23 17  1  0
M  END
>  <MS_ID>  (1551) 
MS1613

>  <SMILES>  (1551) 
COC(=O)CC[C@@H](C)[C@H]1CC[C@H]2[C@@H]3[C@H](O)C[C@@H]4C[C@H](O)CC[C@]4(C)[C@H]3C[C@H](OS(=O)(=O)O)[C@]12C

>  <Structure_dimension>  (1551) 
2D

$$$$
MS1614
     RDKit          2D

 33 36  0  0  0  0  0  0  0  0999 V2000
   -1.8199   -4.3034    0.0000 C   0  0  0  0  0  0  0  0  0  0  0  0
   -1.0791   -2.9990    0.0000 C   0  0  0  0  0  0  0  0  0  0  0  0
   -1.8383   -1.7053    0.0000 C   0  0  0  0  0  0  0  0  0  0  0  0
   -3.3382   -1.7159    0.0000 C   0  0  0  0  0  0  0  0  0  0  0  0
   -4.0974   -0.4222    0.0000 C   0  0  0  0  0  0  0  0  0  0  0  0
   -3.3566    0.8821    0.0000 O   0  0  0  0  0  0  0  0  0  0  0  0
   -5.5974   -0.4329    0.0000 C   0  0  0  0  0  0  0  0  0  0  0  0
   -6.3565    0.8608    0.0000 C   0  0  0  0  0  0  0  0  0  0  0  0
   -7.8565    0.8502    0.0000 C   0  0  0  0  0  0  0  0  0  0  0  0
   -8.6157    2.1439    0.0000 C   0  0  0  0  0  0  0  0  0  0  0  0
  -10.1156    2.1333    0.0000 C   0  0  0  0  0  0  0  0  0  0  0  0
  -10.8564    0.8290    0.0000 O   0  0  0  0  0  0  0  0  0  0  0  0
  -10.8748    3.4270    0.0000 O   0  0  0  0  0  0  0  0  0  0  0  0
    0.4209   -2.9884    0.0000 C   0  0  0  0  0  0  0  0  0  0  0  0
    1.3111   -4.1957    0.0000 C   0  0  0  0  0  0  0  0  0  0  0  0
    2.7344   -3.7221    0.0000 C   0  0  0  0  0  0  0  0  0  0  0  0
    2.7238   -2.2221    0.0000 C   0  0  0  0  0  0  0  0  0  0  0  0
    3.8314   -1.2106    0.0000 C   0  0  0  0  0  0  0  0  0  0  0  0
    5.2612   -1.6640    0.0000 C   0  0  0  0  0  0  0  0  0  0  0  0
    6.3688   -0.6524    0.0000 C   0  0  0  0  0  0  0  0  0  0  0  0
    6.0465    0.8125    0.0000 C   0  0  0  0  0  0  0  0  0  0  0  0
    7.1541    1.8241    0.0000 C   0  0  0  0  0  0  0  0  0  0  0  0
    6.8319    3.2891    0.0000 C   0  0  0  0  0  0  0  0  0  0  0  0
    7.9395    4.3006    0.0000 O   0  0  0  0  0  0  0  0  0  0  0  0
    5.4021    3.7425    0.0000 C   0  0  0  0  0  0  0  0  0  0  0  0
    4.2945    2.7309    0.0000 C   0  0  0  0  0  0  0  0  0  0  0  0
    4.6167    1.2660    0.0000 C   0  0  0  0  0  0  0  0  0  0  0  0
    3.1869    1.7194    0.0000 C   0  0  0  0  0  0  0  0  0  0  0  0
    3.5091    0.2544    0.0000 C   0  0  0  0  0  0  0  0  0  0  0  0
    2.0793    0.7078    0.0000 C   0  0  0  0  0  0  0  0  0  0  0  0
    0.9717   -0.3037    0.0000 C   0  0  0  0  0  0  0  0  0  0  0  0
    1.2939   -1.7687    0.0000 C   0  0  0  0  0  0  0  0  0  0  0  0
   -0.1754   -1.4672    0.0000 C   0  0  0  0  0  0  0  0  0  0  0  0
  2  1  1  6
  2  3  1  0
  3  4  1  0
  4  5  1  0
  5  6  2  0
  5  7  1  0
  7  8  1  0
  8  9  1  0
  9 10  1  0
 10 11  1  0
 11 12  2  0
 11 13  1  0
  2 14  1  0
 14 15  1  6
 15 16  1  0
 17 16  1  6
 17 18  1  0
 18 19  1  1
 19 20  1  0
 21 20  1  1
 21 22  1  0
 22 23  1  0
 23 24  2  0
 23 25  1  0
 25 26  1  0
 26 27  1  0
 27 28  1  6
 27 29  1  0
 29 30  1  6
 30 31  1  0
 31 32  1  0
 32 33  1  6
 32 14  1  0
 32 17  1  0
 29 18  1  0
 27 21  1  0
M  END
>  <MS_ID>  (1552) 
MS1614

>  <SMILES>  (1552) 
C[C@H](CCC(=O)CCCCC(=O)O)[C@H]1CC[C@H]2[C@@H]3CC[C@@H]4CC(=O)CC[C@]4(C)[C@H]3CC[C@]12C

>  <Structure_dimension>  (1552) 
2D

$$$$
MS1615
     RDKit          2D

 35 38  0  0  0  0  0  0  0  0999 V2000
   -2.3377   -4.2773    0.0000 C   0  0  0  0  0  0  0  0  0  0  0  0
   -1.6278   -2.9560    0.0000 C   0  0  0  0  0  0  0  0  0  0  0  0
   -2.4172   -1.6805    0.0000 C   0  0  0  0  0  0  0  0  0  0  0  0
   -3.9165   -1.7264    0.0000 C   0  0  0  0  0  0  0  0  0  0  0  0
   -4.7059   -0.4509    0.0000 C   0  0  0  0  0  0  0  0  0  0  0  0
   -3.9960    0.8705    0.0000 O   0  0  0  0  0  0  0  0  0  0  0  0
   -6.2052   -0.4968    0.0000 C   0  0  0  0  0  0  0  0  0  0  0  0
   -6.9946    0.7787    0.0000 C   0  0  0  0  0  0  0  0  0  0  0  0
   -6.2847    2.1000    0.0000 O   0  0  0  0  0  0  0  0  0  0  0  0
   -8.4939    0.7327    0.0000 C   0  0  0  0  0  0  0  0  0  0  0  0
   -9.2833    2.0082    0.0000 C   0  0  0  0  0  0  0  0  0  0  0  0
   -8.5734    3.3296    0.0000 O   0  0  0  0  0  0  0  0  0  0  0  0
  -10.7826    1.9623    0.0000 O   0  0  0  0  0  0  0  0  0  0  0  0
   -0.1285   -2.9100    0.0000 C   0  0  0  0  0  0  0  0  0  0  0  0
    0.7899   -4.0960    0.0000 C   0  0  0  0  0  0  0  0  0  0  0  0
    2.2017   -3.5891    0.0000 C   0  0  0  0  0  0  0  0  0  0  0  0
    2.1558   -2.0898    0.0000 C   0  0  0  0  0  0  0  0  0  0  0  0
    3.2392   -1.0524    0.0000 C   0  0  0  0  0  0  0  0  0  0  0  0
    4.6793   -1.4721    0.0000 C   0  0  0  0  0  0  0  0  0  0  0  0
    5.0360   -2.9291    0.0000 O   0  0  0  0  0  0  0  0  0  0  0  0
    5.7628   -0.4347    0.0000 C   0  0  0  0  0  0  0  0  0  0  0  0
    7.2029   -0.8544    0.0000 O   0  0  0  0  0  0  0  0  0  0  0  0
    5.4062    1.0223    0.0000 C   0  0  0  0  0  0  0  0  0  0  0  0
    6.4897    2.0596    0.0000 C   0  0  0  0  0  0  0  0  0  0  0  0
    6.1330    3.5166    0.0000 C   0  0  0  0  0  0  0  0  0  0  0  0
    7.2165    4.5539    0.0000 O   0  0  0  0  0  0  0  0  0  0  0  0
    4.6929    3.9362    0.0000 C   0  0  0  0  0  0  0  0  0  0  0  0
    3.6095    2.8989    0.0000 C   0  0  0  0  0  0  0  0  0  0  0  0
    3.9661    1.4419    0.0000 C   0  0  0  0  0  0  0  0  0  0  0  0
    2.5260    1.8616    0.0000 C   0  0  0  0  0  0  0  0  0  0  0  0
    2.8826    0.4046    0.0000 C   0  0  0  0  0  0  0  0  0  0  0  0
    1.4425    0.8242    0.0000 C   0  0  0  0  0  0  0  0  0  0  0  0
    0.3590   -0.2131    0.0000 C   0  0  0  0  0  0  0  0  0  0  0  0
    0.7157   -1.6701    0.0000 C   0  0  0  0  0  0  0  0  0  0  0  0
   -0.7604   -1.4033    0.0000 C   0  0  0  0  0  0  0  0  0  0  0  0
  2  1  1  6
  2  3  1  0
  3  4  1  0
  4  5  1  0
  5  6  2  0
  5  7  1  0
  7  8  1  0
  8  9  2  0
  8 10  1  0
 10 11  1  0
 11 12  2  0
 11 13  1  0
  2 14  1  0
 14 15  1  6
 15 16  1  0
 17 16  1  6
 17 18  1  0
 18 19  1  1
 19 20  1  1
 19 21  1  0
 21 22  1  1
 21 23  1  0
 23 24  1  1
 24 25  1  0
 25 26  1  1
 25 27  1  0
 27 28  1  0
 28 29  1  0
 29 30  1  6
 29 31  1  0
 31 32  1  6
 32 33  1  0
 33 34  1  0
 34 35  1  6
 34 14  1  0
 34 17  1  0
 31 18  1  0
 29 23  1  0
M  END
>  <MS_ID>  (1553) 
MS1615

>  <SMILES>  (1553) 
C[C@H](CCC(=O)CC(=O)CC(=O)O)[C@H]1CC[C@H]2[C@@H]3[C@H](O)[C@H](O)[C@@H]4C[C@H](O)CC[C@]4(C)[C@H]3CC[C@]12C

>  <Structure_dimension>  (1553) 
2D

$$$$
MS1616
     RDKit          2D

 33 36  0  0  0  0  0  0  0  0999 V2000
   -3.6492   -3.2153    0.0000 C   0  0  0  0  0  0  0  0  0  0  0  0
   -2.6891   -2.0628    0.0000 C   0  0  0  0  0  0  0  0  0  0  0  0
   -3.2071   -0.6551    0.0000 C   0  0  0  0  0  0  0  0  0  0  0  0
   -4.6852   -0.3999    0.0000 C   0  0  0  0  0  0  0  0  0  0  0  0
   -5.2032    1.0079    0.0000 C   0  0  0  0  0  0  0  0  0  0  0  0
   -4.2431    2.1603    0.0000 O   0  0  0  0  0  0  0  0  0  0  0  0
   -6.6813    1.2631    0.0000 C   0  0  0  0  0  0  0  0  0  0  0  0
   -7.1993    2.6708    0.0000 C   0  0  0  0  0  0  0  0  0  0  0  0
   -8.6775    2.9261    0.0000 O   0  0  0  0  0  0  0  0  0  0  0  0
   -7.6415    0.1106    0.0000 C   0  0  0  0  0  0  0  0  0  0  0  0
   -9.1196    0.3659    0.0000 O   0  0  0  0  0  0  0  0  0  0  0  0
   -1.2109   -2.3181    0.0000 C   0  0  0  0  0  0  0  0  0  0  0  0
   -0.5486   -3.6639    0.0000 C   0  0  0  0  0  0  0  0  0  0  0  0
    0.9360   -3.4499    0.0000 C   0  0  0  0  0  0  0  0  0  0  0  0
    1.1913   -1.9718    0.0000 C   0  0  0  0  0  0  0  0  0  0  0  0
    2.4605   -1.1724    0.0000 C   0  0  0  0  0  0  0  0  0  0  0  0
    3.7874   -1.8719    0.0000 C   0  0  0  0  0  0  0  0  0  0  0  0
    3.8451   -3.3708    0.0000 O   0  0  0  0  0  0  0  0  0  0  0  0
    5.0567   -1.0726    0.0000 C   0  0  0  0  0  0  0  0  0  0  0  0
    6.3836   -1.7721    0.0000 O   0  0  0  0  0  0  0  0  0  0  0  0
    4.9990    0.4263    0.0000 C   0  0  0  0  0  0  0  0  0  0  0  0
    6.2683    1.2257    0.0000 C   0  0  0  0  0  0  0  0  0  0  0  0
    6.2106    2.7246    0.0000 C   0  0  0  0  0  0  0  0  0  0  0  0
    7.4799    3.5239    0.0000 O   0  0  0  0  0  0  0  0  0  0  0  0
    4.8837    3.4241    0.0000 C   0  0  0  0  0  0  0  0  0  0  0  0
    3.6145    2.6247    0.0000 C   0  0  0  0  0  0  0  0  0  0  0  0
    3.6721    1.1258    0.0000 C   0  0  0  0  0  0  0  0  0  0  0  0
    2.3452    1.8254    0.0000 C   0  0  0  0  0  0  0  0  0  0  0  0
    2.4029    0.3265    0.0000 C   0  0  0  0  0  0  0  0  0  0  0  0
    1.0760    1.0260    0.0000 C   0  0  0  0  0  0  0  0  0  0  0  0
   -0.1933    0.2266    0.0000 C   0  0  0  0  0  0  0  0  0  0  0  0
   -0.1356   -1.2723    0.0000 C   0  0  0  0  0  0  0  0  0  0  0  0
   -1.5284   -0.7153    0.0000 C   0  0  0  0  0  0  0  0  0  0  0  0
  2  1  1  6
  2  3  1  0
  3  4  1  0
  4  5  1  0
  5  6  2  0
  5  7  1  0
  7  8  1  0
  8  9  1  0
  7 10  1  0
 10 11  1  0
  2 12  1  0
 12 13  1  6
 13 14  1  0
 15 14  1  6
 15 16  1  0
 16 17  1  1
 17 18  1  1
 17 19  1  0
 19 20  1  1
 19 21  1  0
 21 22  1  1
 22 23  1  0
 23 24  1  1
 23 25  1  0
 25 26  1  0
 26 27  1  0
 27 28  1  6
 27 29  1  0
 29 30  1  6
 30 31  1  0
 31 32  1  0
 32 33  1  6
 32 12  1  0
 32 15  1  0
 29 16  1  0
 27 21  1  0
M  END
>  <MS_ID>  (1554) 
MS1616

>  <SMILES>  (1554) 
C[C@H](CCC(=O)C(CO)CO)[C@H]1CC[C@H]2[C@@H]3[C@H](O)[C@H](O)[C@@H]4C[C@H](O)CC[C@]4(C)[C@H]3CC[C@]12C

>  <Structure_dimension>  (1554) 
2D

$$$$
MS1617
     RDKit          2D

 31 34  0  0  0  0  0  0  0  0999 V2000
   -5.7175   -1.8176    0.0000 C   0  0  0  0  0  0  0  0  0  0  0  0
   -4.4708   -0.9835    0.0000 C   0  0  0  0  0  0  0  0  0  0  0  0
   -4.5698    0.5132    0.0000 C   0  0  0  0  0  0  0  0  0  0  0  0
   -5.9155    1.1758    0.0000 C   0  0  0  0  0  0  0  0  0  0  0  0
   -6.0145    2.6726    0.0000 C   0  0  0  0  0  0  0  0  0  0  0  0
   -4.7678    3.5067    0.0000 O   0  0  0  0  0  0  0  0  0  0  0  0
   -7.3602    3.3352    0.0000 O   0  0  0  0  0  0  0  0  0  0  0  0
   -3.1251   -1.6462    0.0000 C   0  0  0  0  0  0  0  0  0  0  0  0
   -2.8701   -3.1243    0.0000 C   0  0  0  0  0  0  0  0  0  0  0  0
   -1.3855   -3.3387    0.0000 C   0  0  0  0  0  0  0  0  0  0  0  0
   -0.7229   -1.9930    0.0000 C   0  0  0  0  0  0  0  0  0  0  0  0
    0.7205   -1.5850    0.0000 C   0  0  0  0  0  0  0  0  0  0  0  0
    1.7956   -2.6310    0.0000 C   0  0  0  0  0  0  0  0  0  0  0  0
    1.4272   -4.0851    0.0000 O   0  0  0  0  0  0  0  0  0  0  0  0
    3.2390   -2.2230    0.0000 C   0  0  0  0  0  0  0  0  0  0  0  0
    3.6074   -0.7689    0.0000 C   0  0  0  0  0  0  0  0  0  0  0  0
    5.0508   -0.3609    0.0000 C   0  0  0  0  0  0  0  0  0  0  0  0
    5.4192    1.0932    0.0000 C   0  0  0  0  0  0  0  0  0  0  0  0
    6.8626    1.5012    0.0000 C   0  0  0  0  0  0  0  0  0  0  0  0
    7.2310    2.9552    0.0000 O   0  0  0  0  0  0  0  0  0  0  0  0
    7.9377    0.4551    0.0000 O   0  0  0  0  0  0  0  0  0  0  0  0
    4.3441    2.1392    0.0000 C   0  0  0  0  0  0  0  0  0  0  0  0
    2.9007    1.7312    0.0000 C   0  0  0  0  0  0  0  0  0  0  0  0
    2.5323    0.2771    0.0000 C   0  0  0  0  0  0  0  0  0  0  0  0
    1.4572    1.3232    0.0000 C   0  0  0  0  0  0  0  0  0  0  0  0
    1.0889   -0.1309    0.0000 C   0  0  0  0  0  0  0  0  0  0  0  0
    0.0138    0.9151    0.0000 C   0  0  0  0  0  0  0  0  0  0  0  0
   -1.4296    0.5071    0.0000 C   0  0  0  0  0  0  0  0  0  0  0  0
   -2.5047    1.5532    0.0000 O   0  0  0  0  0  0  0  0  0  0  0  0
   -1.7980   -0.9470    0.0000 C   0  0  0  0  0  0  0  0  0  0  0  0
   -2.9765   -0.0190    0.0000 C   0  0  0  0  0  0  0  0  0  0  0  0
  2  1  1  6
  2  3  1  0
  3  4  1  0
  4  5  1  0
  5  6  2  0
  5  7  1  0
  2  8  1  0
  8  9  1  6
  9 10  1  0
 11 10  1  6
 11 12  1  0
 12 13  1  1
 13 14  1  1
 13 15  1  0
 16 15  1  1
 16 17  1  0
 17 18  1  0
 18 19  1  6
 19 20  2  0
 19 21  1  0
 18 22  1  0
 22 23  1  0
 23 24  1  0
 24 25  1  6
 24 26  1  0
 26 27  1  6
 27 28  1  0
 28 29  1  1
 28 30  1  0
 30 31  1  6
 30  8  1  0
 30 11  1  0
 26 12  1  0
 24 16  1  0
M  END
>  <MS_ID>  (1555) 
MS1617

>  <SMILES>  (1555) 
C[C@H](CCC(=O)O)[C@H]1CC[C@H]2[C@@H]3[C@H](O)C[C@@H]4C[C@@H](C(=O)O)CC[C@]4(C)[C@H]3C[C@H](O)[C@]12C

>  <Structure_dimension>  (1555) 
2D

$$$$
MS1618
     RDKit          2D

 32 35  0  0  0  0  0  0  0  0999 V2000
   -3.0592   -3.7169    0.0000 C   0  0  0  0  0  0  0  0  0  0  0  0
   -2.1499   -2.5239    0.0000 C   0  0  0  0  0  0  0  0  0  0  0  0
   -2.7284   -1.1399    0.0000 C   0  0  0  0  0  0  0  0  0  0  0  0
   -4.2162   -0.9489    0.0000 C   0  0  0  0  0  0  0  0  0  0  0  0
   -4.7946    0.4350    0.0000 C   0  0  0  0  0  0  0  0  0  0  0  0
   -3.8853    1.6280    0.0000 O   0  0  0  0  0  0  0  0  0  0  0  0
   -6.2824    0.6260    0.0000 O   0  0  0  0  0  0  0  0  0  0  0  0
   -6.8609    2.0100    0.0000 C   0  0  0  0  0  0  0  0  0  0  0  0
   -8.3487    2.2010    0.0000 C   0  0  0  0  0  0  0  0  0  0  0  0
   -9.2580    1.0080    0.0000 O   0  0  0  0  0  0  0  0  0  0  0  0
   -8.9272    3.5850    0.0000 O   0  0  0  0  0  0  0  0  0  0  0  0
   -0.6621   -2.7149    0.0000 C   0  0  0  0  0  0  0  0  0  0  0  0
    0.0579   -4.0308    0.0000 C   0  0  0  0  0  0  0  0  0  0  0  0
    1.5319   -3.7527    0.0000 C   0  0  0  0  0  0  0  0  0  0  0  0
    1.7229   -2.2649    0.0000 C   0  0  0  0  0  0  0  0  0  0  0  0
    2.9563   -1.4114    0.0000 C   0  0  0  0  0  0  0  0  0  0  0  0
    4.3123   -2.0528    0.0000 C   0  0  0  0  0  0  0  0  0  0  0  0
    5.5457   -1.1992    0.0000 C   0  0  0  0  0  0  0  0  0  0  0  0
    5.4232    0.2958    0.0000 C   0  0  0  0  0  0  0  0  0  0  0  0
    6.6567    1.1494    0.0000 C   0  0  0  0  0  0  0  0  0  0  0  0
    6.5342    2.6444    0.0000 C   0  0  0  0  0  0  0  0  0  0  0  0
    7.7676    3.4980    0.0000 O   0  0  0  0  0  0  0  0  0  0  0  0
    5.1782    3.2858    0.0000 C   0  0  0  0  0  0  0  0  0  0  0  0
    3.9448    2.4322    0.0000 C   0  0  0  0  0  0  0  0  0  0  0  0
    4.0673    0.9372    0.0000 C   0  0  0  0  0  0  0  0  0  0  0  0
    2.7113    1.5786    0.0000 C   0  0  0  0  0  0  0  0  0  0  0  0
    2.8338    0.0836    0.0000 C   0  0  0  0  0  0  0  0  0  0  0  0
    1.4779    0.7250    0.0000 C   0  0  0  0  0  0  0  0  0  0  0  0
    0.2444   -0.1285    0.0000 C   0  0  0  0  0  0  0  0  0  0  0  0
   -1.1115    0.5129    0.0000 O   0  0  0  0  0  0  0  0  0  0  0  0
    0.3669   -1.6235    0.0000 C   0  0  0  0  0  0  0  0  0  0  0  0
   -1.0486   -1.1274    0.0000 C   0  0  0  0  0  0  0  0  0  0  0  0
  2  1  1  6
  2  3  1  0
  3  4  1  0
  4  5  1  0
  5  6  2  0
  5  7  1  0
  7  8  1  0
  8  9  1  0
  9 10  2  0
  9 11  1  0
  2 12  1  0
 12 13  1  6
 13 14  1  0
 15 14  1  6
 15 16  1  0
 16 17  1  1
 17 18  1  0
 19 18  1  1
 19 20  1  0
 20 21  1  0
 21 22  1  1
 21 23  1  0
 23 24  1  0
 24 25  1  0
 25 26  1  6
 25 27  1  0
 27 28  1  6
 28 29  1  0
 29 30  1  6
 29 31  1  0
 31 32  1  6
 31 12  1  0
 31 15  1  0
 27 16  1  0
 25 19  1  0
M  END
>  <MS_ID>  (1556) 
MS1618

>  <SMILES>  (1556) 
C[C@H](CCC(=O)OCC(=O)O)[C@H]1CC[C@H]2[C@@H]3CC[C@@H]4C[C@H](O)CC[C@]4(C)[C@H]3C[C@@H](O)[C@]12C

>  <Structure_dimension>  (1556) 
2D

$$$$
MS1619
     RDKit          2D

 36 40  0  0  0  0  0  0  0  0999 V2000
   -1.8695   -4.0446    0.0000 C   0  0  0  0  0  0  0  0  0  0  0  0
   -1.0892   -2.7636    0.0000 C   0  0  0  0  0  0  0  0  0  0  0  0
   -1.8085   -1.4473    0.0000 C   0  0  0  0  0  0  0  0  0  0  0  0
   -3.3081   -1.4120    0.0000 C   0  0  0  0  0  0  0  0  0  0  0  0
   -4.0274   -0.0958    0.0000 C   0  0  0  0  0  0  0  0  0  0  0  0
   -3.2470    1.1853    0.0000 O   0  0  0  0  0  0  0  0  0  0  0  0
   -5.5269   -0.0605    0.0000 N   0  0  0  0  0  0  0  0  0  0  0  0
   -6.2462    1.2558    0.0000 C   0  0  0  0  0  0  0  0  0  0  0  0
   -7.7458    1.2910    0.0000 C   0  0  0  0  0  0  0  0  0  0  0  0
   -8.4651    2.6073    0.0000 C   0  0  0  0  0  0  0  0  0  0  0  0
   -9.9647    2.6425    0.0000 C   0  0  0  0  0  0  0  0  0  0  0  0
  -10.7450    1.3615    0.0000 C   0  0  0  0  0  0  0  0  0  0  0  0
  -10.0257    0.0452    0.0000 C   0  0  0  0  0  0  0  0  0  0  0  0
   -8.5261    0.0099    0.0000 C   0  0  0  0  0  0  0  0  0  0  0  0
    0.4104   -2.7988    0.0000 C   0  0  0  0  0  0  0  0  0  0  0  0
    1.2633   -4.0327    0.0000 C   0  0  0  0  0  0  0  0  0  0  0  0
    2.7004   -3.6028    0.0000 C   0  0  0  0  0  0  0  0  0  0  0  0
    2.7356   -2.1032    0.0000 C   0  0  0  0  0  0  0  0  0  0  0  0
    3.8736   -1.1260    0.0000 C   0  0  0  0  0  0  0  0  0  0  0  0
    5.2889   -1.6229    0.0000 C   0  0  0  0  0  0  0  0  0  0  0  0
    5.5662   -3.0970    0.0000 O   0  0  0  0  0  0  0  0  0  0  0  0
    6.4269   -0.6457    0.0000 C   0  0  0  0  0  0  0  0  0  0  0  0
    6.1496    0.8285    0.0000 C   0  0  0  0  0  0  0  0  0  0  0  0
    7.2876    1.8057    0.0000 C   0  0  0  0  0  0  0  0  0  0  0  0
    7.0102    3.2799    0.0000 C   0  0  0  0  0  0  0  0  0  0  0  0
    8.1482    4.2571    0.0000 O   0  0  0  0  0  0  0  0  0  0  0  0
    5.5949    3.7768    0.0000 C   0  0  0  0  0  0  0  0  0  0  0  0
    4.4570    2.7995    0.0000 C   0  0  0  0  0  0  0  0  0  0  0  0
    4.7343    1.3254    0.0000 C   0  0  0  0  0  0  0  0  0  0  0  0
    3.3190    1.8223    0.0000 C   0  0  0  0  0  0  0  0  0  0  0  0
    3.5963    0.3481    0.0000 C   0  0  0  0  0  0  0  0  0  0  0  0
    2.1810    0.8451    0.0000 C   0  0  0  0  0  0  0  0  0  0  0  0
    1.0430   -0.1322    0.0000 C   0  0  0  0  0  0  0  0  0  0  0  0
   -0.3723    0.3647    0.0000 O   0  0  0  0  0  0  0  0  0  0  0  0
    1.3203   -1.6063    0.0000 C   0  0  0  0  0  0  0  0  0  0  0  0
   -0.1392   -1.2601    0.0000 C   0  0  0  0  0  0  0  0  0  0  0  0
  2  1  1  6
  2  3  1  0
  3  4  1  0
  4  5  1  0
  5  6  2  0
  5  7  1  0
  7  8  1  0
  8  9  1  0
  9 10  2  0
 10 11  1  0
 11 12  2  0
 12 13  1  0
 13 14  2  0
  2 15  1  0
 15 16  1  6
 16 17  1  0
 18 17  1  6
 18 19  1  0
 19 20  1  1
 20 21  1  1
 20 22  1  0
 23 22  1  1
 23 24  1  0
 24 25  1  0
 25 26  1  1
 25 27  1  0
 27 28  1  0
 28 29  1  0
 29 30  1  6
 29 31  1  0
 31 32  1  6
 32 33  1  0
 33 34  1  1
 33 35  1  0
 35 36  1  6
 14  9  1  0
 35 15  1  0
 35 18  1  0
 31 19  1  0
 29 23  1  0
M  END
>  <MS_ID>  (1557) 
MS1619

>  <SMILES>  (1557) 
C[C@H](CCC(=O)NCc1ccccc1)[C@H]1CC[C@H]2[C@@H]3[C@H](O)C[C@@H]4C[C@H](O)CC[C@]4(C)[C@H]3C[C@H](O)[C@]12C

>  <Structure_dimension>  (1557) 
2D

$$$$
MS1620
     RDKit          2D

 34 37  0  0  0  0  0  0  0  0999 V2000
   -3.2613   -4.2088    0.0000 C   0  0  0  0  0  0  0  0  0  0  0  0
   -2.4475   -2.9487    0.0000 C   0  0  0  0  0  0  0  0  0  0  0  0
   -3.1318   -1.6139    0.0000 C   0  0  0  0  0  0  0  0  0  0  0  0
   -4.6299   -1.5392    0.0000 C   0  0  0  0  0  0  0  0  0  0  0  0
   -5.3143   -0.2044    0.0000 C   0  0  0  0  0  0  0  0  0  0  0  0
   -6.8124   -0.1296    0.0000 O   0  0  0  0  0  0  0  0  0  0  0  0
   -4.5004    1.0557    0.0000 O   0  0  0  0  0  0  0  0  0  0  0  0
   -5.1848    2.3905    0.0000 C   0  0  0  0  0  0  0  0  0  0  0  0
   -6.6829    2.4652    0.0000 O   0  0  0  0  0  0  0  0  0  0  0  0
   -4.3710    3.6505    0.0000 C   0  0  0  0  0  0  0  0  0  0  0  0
   -2.8728    3.5758    0.0000 O   0  0  0  0  0  0  0  0  0  0  0  0
   -5.0553    4.9853    0.0000 O   0  0  0  0  0  0  0  0  0  0  0  0
   -0.9493   -3.0235    0.0000 C   0  0  0  0  0  0  0  0  0  0  0  0
   -0.1292   -4.2794    0.0000 C   0  0  0  0  0  0  0  0  0  0  0  0
    1.3187   -3.8876    0.0000 C   0  0  0  0  0  0  0  0  0  0  0  0
    1.3934   -2.3895    0.0000 C   0  0  0  0  0  0  0  0  0  0  0  0
    2.5568   -1.4426    0.0000 C   0  0  0  0  0  0  0  0  0  0  0  0
    3.9585   -1.9766    0.0000 C   0  0  0  0  0  0  0  0  0  0  0  0
    4.1969   -3.4575    0.0000 O   0  0  0  0  0  0  0  0  0  0  0  0
    5.1219   -1.0297    0.0000 C   0  0  0  0  0  0  0  0  0  0  0  0
    4.8835    0.4512    0.0000 C   0  0  0  0  0  0  0  0  0  0  0  0
    6.0469    1.3981    0.0000 C   0  0  0  0  0  0  0  0  0  0  0  0
    5.8085    2.8791    0.0000 C   0  0  0  0  0  0  0  0  0  0  0  0
    6.9719    3.8260    0.0000 O   0  0  0  0  0  0  0  0  0  0  0  0
    4.4068    3.4131    0.0000 C   0  0  0  0  0  0  0  0  0  0  0  0
    3.2434    2.4662    0.0000 C   0  0  0  0  0  0  0  0  0  0  0  0
    3.4818    0.9853    0.0000 C   0  0  0  0  0  0  0  0  0  0  0  0
    2.0801    1.5193    0.0000 C   0  0  0  0  0  0  0  0  0  0  0  0
    2.3184    0.0384    0.0000 C   0  0  0  0  0  0  0  0  0  0  0  0
    0.9167    0.5724    0.0000 C   0  0  0  0  0  0  0  0  0  0  0  0
   -0.2466   -0.3745    0.0000 C   0  0  0  0  0  0  0  0  0  0  0  0
   -1.6483    0.1596    0.0000 O   0  0  0  0  0  0  0  0  0  0  0  0
   -0.0083   -1.8554    0.0000 C   0  0  0  0  0  0  0  0  0  0  0  0
   -1.4581   -1.4708    0.0000 C   0  0  0  0  0  0  0  0  0  0  0  0
  2  1  1  6
  2  3  1  0
  3  4  1  0
  4  5  1  0
  5  6  2  0
  5  7  1  0
  7  8  1  0
  8  9  2  0
  8 10  1  0
 10 11  2  0
 10 12  1  0
  2 13  1  0
 13 14  1  6
 14 15  1  0
 16 15  1  6
 16 17  1  0
 17 18  1  1
 18 19  1  1
 18 20  1  0
 21 20  1  1
 21 22  1  0
 22 23  1  0
 23 24  1  1
 23 25  1  0
 25 26  1  0
 26 27  1  0
 27 28  1  6
 27 29  1  0
 29 30  1  6
 30 31  1  0
 31 32  1  1
 31 33  1  0
 33 34  1  6
 33 13  1  0
 33 16  1  0
 29 17  1  0
 27 21  1  0
M  END
>  <MS_ID>  (1558) 
MS1620

>  <SMILES>  (1558) 
C[C@H](CCC(=O)OC(=O)C(=O)O)[C@H]1CC[C@H]2[C@@H]3[C@H](O)C[C@@H]4C[C@H](O)CC[C@]4(C)[C@H]3C[C@H](O)[C@]12C

>  <Structure_dimension>  (1558) 
2D

$$$$
MS1621
     RDKit          2D

 30 33  0  0  0  0  0  0  0  0999 V2000
   -4.4787   -3.0199    0.0000 C   0  0  0  0  0  0  0  0  0  0  0  0
   -3.4346   -1.9429    0.0000 C   0  0  0  0  0  0  0  0  0  0  0  0
   -3.8453   -0.5003    0.0000 C   0  0  0  0  0  0  0  0  0  0  0  0
   -5.3001   -0.1346    0.0000 C   0  0  0  0  0  0  0  0  0  0  0  0
   -5.7108    1.3081    0.0000 C   0  0  0  0  0  0  0  0  0  0  0  0
   -7.1655    1.6738    0.0000 O   0  0  0  0  0  0  0  0  0  0  0  0
   -4.6667    2.3851    0.0000 O   0  0  0  0  0  0  0  0  0  0  0  0
   -5.0774    3.8278    0.0000 C   0  0  0  0  0  0  0  0  0  0  0  0
   -4.0333    4.9048    0.0000 Cl  0  0  0  0  0  0  0  0  0  0  0  0
   -1.9799   -2.3086    0.0000 C   0  0  0  0  0  0  0  0  0  0  0  0
   -1.4207   -3.7005    0.0000 C   0  0  0  0  0  0  0  0  0  0  0  0
    0.0759   -3.5987    0.0000 C   0  0  0  0  0  0  0  0  0  0  0  0
    0.4416   -2.1440    0.0000 C   0  0  0  0  0  0  0  0  0  0  0  0
    1.7673   -1.4423    0.0000 C   0  0  0  0  0  0  0  0  0  0  0  0
    3.0379   -2.2397    0.0000 C   0  0  0  0  0  0  0  0  0  0  0  0
    2.9826   -3.7386    0.0000 O   0  0  0  0  0  0  0  0  0  0  0  0
    4.3636   -1.5380    0.0000 C   0  0  0  0  0  0  0  0  0  0  0  0
    4.4189   -0.0390    0.0000 C   0  0  0  0  0  0  0  0  0  0  0  0
    5.7447    0.6626    0.0000 C   0  0  0  0  0  0  0  0  0  0  0  0
    5.7999    2.1616    0.0000 C   0  0  0  0  0  0  0  0  0  0  0  0
    7.1257    2.8633    0.0000 O   0  0  0  0  0  0  0  0  0  0  0  0
    4.5293    2.9590    0.0000 C   0  0  0  0  0  0  0  0  0  0  0  0
    3.2036    2.2573    0.0000 C   0  0  0  0  0  0  0  0  0  0  0  0
    3.1483    0.7583    0.0000 C   0  0  0  0  0  0  0  0  0  0  0  0
    1.8778    1.5556    0.0000 C   0  0  0  0  0  0  0  0  0  0  0  0
    1.8226    0.0567    0.0000 C   0  0  0  0  0  0  0  0  0  0  0  0
    0.5520    0.8540    0.0000 C   0  0  0  0  0  0  0  0  0  0  0  0
   -0.7738    0.1523    0.0000 C   0  0  0  0  0  0  0  0  0  0  0  0
   -0.8290   -1.3467    0.0000 C   0  0  0  0  0  0  0  0  0  0  0  0
   -2.1759   -0.6865    0.0000 C   0  0  0  0  0  0  0  0  0  0  0  0
  2  1  1  6
  2  3  1  0
  3  4  1  0
  4  5  1  0
  5  6  2  0
  5  7  1  0
  7  8  1  0
  8  9  1  0
  2 10  1  0
 10 11  1  6
 11 12  1  0
 13 12  1  6
 13 14  1  0
 14 15  1  1
 15 16  1  6
 15 17  1  0
 18 17  1  1
 18 19  1  0
 19 20  1  0
 20 21  1  1
 20 22  1  0
 22 23  1  0
 23 24  1  0
 24 25  1  6
 24 26  1  0
 26 27  1  6
 27 28  1  0
 28 29  1  0
 29 30  1  6
 29 10  1  0
 29 13  1  0
 26 14  1  0
 24 18  1  0
M  END
>  <MS_ID>  (1559) 
MS1621

>  <SMILES>  (1559) 
C[C@H](CCC(=O)OCCl)[C@H]1CC[C@H]2[C@@H]3[C@@H](O)C[C@@H]4C[C@H](O)CC[C@]4(C)[C@H]3CC[C@]12C

>  <Structure_dimension>  (1559) 
2D

$$$$
MS1623
     RDKit          2D

 41 44  0  0  0  0  0  0  0  0999 V2000
   -3.9069    5.4401    0.0000 C   0  0  0  0  0  0  0  0  0  0  0  0
   -3.2801    4.0773    0.0000 C   0  0  0  0  0  0  0  0  0  0  0  0
   -1.7865    3.9387    0.0000 C   0  0  0  0  0  0  0  0  0  0  0  0
   -0.9197    5.1629    0.0000 C   0  0  0  0  0  0  0  0  0  0  0  0
    0.5739    5.0244    0.0000 C   0  0  0  0  0  0  0  0  0  0  0  0
    1.4407    6.2486    0.0000 O   0  0  0  0  0  0  0  0  0  0  0  0
    1.2007    3.6616    0.0000 O   0  0  0  0  0  0  0  0  0  0  0  0
    2.6943    3.5231    0.0000 C   0  0  0  0  0  0  0  0  0  0  0  0
    3.5611    4.7473    0.0000 O   0  0  0  0  0  0  0  0  0  0  0  0
    3.3211    2.1603    0.0000 C   0  0  0  0  0  0  0  0  0  0  0  0
    4.8146    2.0217    0.0000 C   0  0  0  0  0  0  0  0  0  0  0  0
    5.4414    0.6590    0.0000 C   0  0  0  0  0  0  0  0  0  0  0  0
    4.5747   -0.5652    0.0000 O   0  0  0  0  0  0  0  0  0  0  0  0
    6.9350    0.5204    0.0000 N   0  0  0  0  0  0  0  0  0  0  0  0
    7.5618   -0.8423    0.0000 C   0  0  0  0  0  0  0  0  0  0  0  0
    9.0554   -0.9809    0.0000 C   0  0  0  0  0  0  0  0  0  0  0  0
    9.6822   -2.3437    0.0000 S   0  0  0  0  0  0  0  0  0  0  0  0
   11.0450   -1.7169    0.0000 O   0  0  0  0  0  0  0  0  0  0  0  0
    8.3195   -2.9705    0.0000 O   0  0  0  0  0  0  0  0  0  0  0  0
   10.3090   -3.7064    0.0000 O   0  0  0  0  0  0  0  0  0  0  0  0
   -4.1469    2.8531    0.0000 C   0  0  0  0  0  0  0  0  0  0  0  0
   -5.6468    2.8348    0.0000 C   0  0  0  0  0  0  0  0  0  0  0  0
   -6.0928    1.4026    0.0000 C   0  0  0  0  0  0  0  0  0  0  0  0
   -4.8686    0.5358    0.0000 C   0  0  0  0  0  0  0  0  0  0  0  0
   -4.6936   -0.9539    0.0000 C   0  0  0  0  0  0  0  0  0  0  0  0
   -5.8963   -1.8503    0.0000 C   0  0  0  0  0  0  0  0  0  0  0  0
   -7.2740   -1.2570    0.0000 O   0  0  0  0  0  0  0  0  0  0  0  0
   -5.7213   -3.3401    0.0000 C   0  0  0  0  0  0  0  0  0  0  0  0
   -4.3436   -3.9334    0.0000 C   0  0  0  0  0  0  0  0  0  0  0  0
   -4.1686   -5.4232    0.0000 C   0  0  0  0  0  0  0  0  0  0  0  0
   -2.7909   -6.0165    0.0000 C   0  0  0  0  0  0  0  0  0  0  0  0
   -2.6159   -7.5063    0.0000 O   0  0  0  0  0  0  0  0  0  0  0  0
   -1.5883   -5.1201    0.0000 C   0  0  0  0  0  0  0  0  0  0  0  0
   -1.7633   -3.6303    0.0000 C   0  0  0  0  0  0  0  0  0  0  0  0
   -3.1409   -3.0370    0.0000 C   0  0  0  0  0  0  0  0  0  0  0  0
   -1.9383   -2.1406    0.0000 C   0  0  0  0  0  0  0  0  0  0  0  0
   -3.3159   -1.5472    0.0000 C   0  0  0  0  0  0  0  0  0  0  0  0
   -2.1133   -0.6508    0.0000 C   0  0  0  0  0  0  0  0  0  0  0  0
   -2.2883    0.8390    0.0000 C   0  0  0  0  0  0  0  0  0  0  0  0
   -3.6660    1.4323    0.0000 C   0  0  0  0  0  0  0  0  0  0  0  0
   -2.5636    2.4495    0.0000 C   0  0  0  0  0  0  0  0  0  0  0  0
  2  1  1  6
  2  3  1  0
  3  4  1  0
  4  5  1  0
  5  6  2  0
  5  7  1  0
  7  8  1  0
  8  9  2  0
  8 10  1  0
 10 11  1  0
 11 12  1  0
 12 13  2  0
 12 14  1  0
 14 15  1  0
 15 16  1  0
 16 17  1  0
 17 18  2  0
 17 19  2  0
 17 20  1  0
  2 21  1  0
 21 22  1  6
 22 23  1  0
 24 23  1  6
 24 25  1  0
 25 26  1  1
 26 27  1  6
 26 28  1  0
 29 28  1  1
 29 30  1  0
 30 31  1  0
 31 32  1  1
 31 33  1  0
 33 34  1  0
 34 35  1  0
 35 36  1  6
 35 37  1  0
 37 38  1  6
 38 39  1  0
 39 40  1  0
 40 41  1  6
 40 21  1  0
 40 24  1  0
 37 25  1  0
 35 29  1  0
M  END
>  <MS_ID>  (1560) 
MS1623

>  <SMILES>  (1560) 
C[C@H](CCC(=O)OC(=O)CCC(=O)NCCS(=O)(=O)O)[C@H]1CC[C@H]2[C@@H]3[C@@H](O)C[C@@H]4C[C@H](O)CC[C@]4(C)[C@H]3CC[C@]12C

>  <Structure_dimension>  (1560) 
2D

$$$$
MS1624
     RDKit          2D

 39 43  0  0  0  0  0  0  0  0999 V2000
   -7.6510   -2.0504    0.0000 C   0  0  0  0  0  0  0  0  0  0  0  0
   -6.4615   -1.1366    0.0000 C   0  0  0  0  0  0  0  0  0  0  0  0
   -6.6581    0.3505    0.0000 C   0  0  0  0  0  0  0  0  0  0  0  0
   -8.0442    0.9238    0.0000 C   0  0  0  0  0  0  0  0  0  0  0  0
   -8.2408    2.4108    0.0000 C   0  0  0  0  0  0  0  0  0  0  0  0
   -7.0513    3.3246    0.0000 O   0  0  0  0  0  0  0  0  0  0  0  0
   -9.6270    2.9841    0.0000 O   0  0  0  0  0  0  0  0  0  0  0  0
   -5.0754   -1.7098    0.0000 C   0  0  0  0  0  0  0  0  0  0  0  0
   -4.7244   -3.1682    0.0000 C   0  0  0  0  0  0  0  0  0  0  0  0
   -3.2289   -3.2851    0.0000 C   0  0  0  0  0  0  0  0  0  0  0  0
   -2.6557   -1.8989    0.0000 C   0  0  0  0  0  0  0  0  0  0  0  0
   -1.2420   -1.3975    0.0000 C   0  0  0  0  0  0  0  0  0  0  0  0
   -0.1008   -2.3710    0.0000 C   0  0  0  0  0  0  0  0  0  0  0  0
   -0.3734   -3.8460    0.0000 O   0  0  0  0  0  0  0  0  0  0  0  0
    1.3128   -1.8695    0.0000 C   0  0  0  0  0  0  0  0  0  0  0  0
    1.5854   -0.3945    0.0000 C   0  0  0  0  0  0  0  0  0  0  0  0
    2.9991    0.1070    0.0000 C   0  0  0  0  0  0  0  0  0  0  0  0
    3.2716    1.5820    0.0000 C   0  0  0  0  0  0  0  0  0  0  0  0
    4.6853    2.0835    0.0000 O   0  0  0  0  0  0  0  0  0  0  0  0
    5.8265    1.1100    0.0000 C   0  0  0  0  0  0  0  0  0  0  0  0
    5.5539   -0.3651    0.0000 O   0  0  0  0  0  0  0  0  0  0  0  0
    6.6950   -1.3386    0.0000 C   0  0  0  0  0  0  0  0  0  0  0  0
    6.4225   -2.8136    0.0000 C   0  0  0  0  0  0  0  0  0  0  0  0
    8.1087   -0.8371    0.0000 C   0  0  0  0  0  0  0  0  0  0  0  0
    9.2499   -1.8107    0.0000 O   0  0  0  0  0  0  0  0  0  0  0  0
    8.3813    0.6379    0.0000 C   0  0  0  0  0  0  0  0  0  0  0  0
    9.7950    1.1394    0.0000 O   0  0  0  0  0  0  0  0  0  0  0  0
    7.2401    1.6114    0.0000 C   0  0  0  0  0  0  0  0  0  0  0  0
    7.5127    3.0865    0.0000 O   0  0  0  0  0  0  0  0  0  0  0  0
    2.1305    2.5556    0.0000 C   0  0  0  0  0  0  0  0  0  0  0  0
    0.7168    2.0541    0.0000 C   0  0  0  0  0  0  0  0  0  0  0  0
    0.4442    0.5791    0.0000 C   0  0  0  0  0  0  0  0  0  0  0  0
   -0.6969    1.5526    0.0000 C   0  0  0  0  0  0  0  0  0  0  0  0
   -0.9694    0.0776    0.0000 C   0  0  0  0  0  0  0  0  0  0  0  0
   -2.1106    1.0511    0.0000 C   0  0  0  0  0  0  0  0  0  0  0  0
   -3.5243    0.5496    0.0000 C   0  0  0  0  0  0  0  0  0  0  0  0
   -4.6654    1.5232    0.0000 O   0  0  0  0  0  0  0  0  0  0  0  0
   -3.7968   -0.9254    0.0000 C   0  0  0  0  0  0  0  0  0  0  0  0
   -5.0335   -0.0765    0.0000 C   0  0  0  0  0  0  0  0  0  0  0  0
  2  1  1  6
  2  3  1  0
  3  4  1  0
  4  5  1  0
  5  6  2  0
  5  7  1  0
  2  8  1  0
  8  9  1  6
  9 10  1  0
 11 10  1  6
 11 12  1  0
 12 13  1  1
 13 14  1  1
 13 15  1  0
 16 15  1  1
 16 17  1  0
 17 18  1  0
 18 19  1  1
 20 19  1  1
 20 21  1  0
 21 22  1  0
 22 23  1  6
 22 24  1  0
 24 25  1  6
 24 26  1  0
 26 27  1  6
 26 28  1  0
 28 29  1  1
 18 30  1  0
 30 31  1  0
 31 32  1  0
 32 33  1  6
 32 34  1  0
 34 35  1  6
 35 36  1  0
 36 37  1  1
 36 38  1  0
 38 39  1  6
 38  8  1  0
 38 11  1  0
 34 12  1  0
 32 16  1  0
 28 20  1  0
M  END
>  <MS_ID>  (1561) 
MS1624

>  <SMILES>  (1561) 
C[C@H](CCC(=O)O)[C@H]1CC[C@H]2[C@@H]3[C@H](O)C[C@@H]4C[C@H](O[C@@H]5O[C@@H](C)[C@@H](O)[C@@H](O)[C@@H]5O)CC[C@]4(C)[C@H]3C[C@H](O)[C@]12C

>  <Structure_dimension>  (1561) 
2D

$$$$
MS1625
     RDKit          2D

 39 43  0  0  0  0  0  0  0  0999 V2000
   -0.7642   -4.6036    0.0000 C   0  0  0  0  0  0  0  0  0  0  0  0
   -0.1459   -3.2369    0.0000 C   0  0  0  0  0  0  0  0  0  0  0  0
   -1.0204   -2.0182    0.0000 C   0  0  0  0  0  0  0  0  0  0  0  0
   -2.5131   -2.1661    0.0000 C   0  0  0  0  0  0  0  0  0  0  0  0
   -3.3875   -0.9474    0.0000 C   0  0  0  0  0  0  0  0  0  0  0  0
   -2.7693    0.4193    0.0000 O   0  0  0  0  0  0  0  0  0  0  0  0
   -4.8802   -1.0953    0.0000 N   0  0  0  0  0  0  0  0  0  0  0  0
   -5.7547    0.1234    0.0000 C   0  0  0  0  0  0  0  0  0  0  0  0
   -5.1364    1.4901    0.0000 C   0  0  0  0  0  0  0  0  0  0  0  0
   -6.0109    2.7088    0.0000 C   0  0  0  0  0  0  0  0  0  0  0  0
   -7.5036    2.5609    0.0000 C   0  0  0  0  0  0  0  0  0  0  0  0
   -8.1218    1.1942    0.0000 C   0  0  0  0  0  0  0  0  0  0  0  0
   -9.6145    1.0463    0.0000 S   0  0  0  0  0  0  0  0  0  0  0  0
   -9.7624    2.5390    0.0000 O   0  0  0  0  0  0  0  0  0  0  0  0
   -9.4666   -0.4464    0.0000 O   0  0  0  0  0  0  0  0  0  0  0  0
  -11.1072    0.8984    0.0000 O   0  0  0  0  0  0  0  0  0  0  0  0
   -7.2474   -0.0245    0.0000 C   0  0  0  0  0  0  0  0  0  0  0  0
    1.3467   -3.0890    0.0000 C   0  0  0  0  0  0  0  0  0  0  0  0
    2.3438   -4.2097    0.0000 C   0  0  0  0  0  0  0  0  0  0  0  0
    3.7177   -3.6077    0.0000 C   0  0  0  0  0  0  0  0  0  0  0  0
    3.5698   -2.1150    0.0000 C   0  0  0  0  0  0  0  0  0  0  0  0
    4.5801   -1.0063    0.0000 C   0  0  0  0  0  0  0  0  0  0  0  0
    6.0454   -1.3269    0.0000 C   0  0  0  0  0  0  0  0  0  0  0  0
    6.5005   -2.7562    0.0000 O   0  0  0  0  0  0  0  0  0  0  0  0
    7.0557   -0.2181    0.0000 C   0  0  0  0  0  0  0  0  0  0  0  0
    6.6007    1.2112    0.0000 C   0  0  0  0  0  0  0  0  0  0  0  0
    7.6110    2.3199    0.0000 C   0  0  0  0  0  0  0  0  0  0  0  0
    7.1559    3.7492    0.0000 C   0  0  0  0  0  0  0  0  0  0  0  0
    8.1662    4.8580    0.0000 O   0  0  0  0  0  0  0  0  0  0  0  0
    5.6906    4.0698    0.0000 C   0  0  0  0  0  0  0  0  0  0  0  0
    4.6803    2.9611    0.0000 C   0  0  0  0  0  0  0  0  0  0  0  0
    5.1353    1.5318    0.0000 C   0  0  0  0  0  0  0  0  0  0  0  0
    3.6700    1.8523    0.0000 C   0  0  0  0  0  0  0  0  0  0  0  0
    4.1250    0.4230    0.0000 C   0  0  0  0  0  0  0  0  0  0  0  0
    2.6597    0.7436    0.0000 C   0  0  0  0  0  0  0  0  0  0  0  0
    1.6494   -0.3651    0.0000 C   0  0  0  0  0  0  0  0  0  0  0  0
    0.1841   -0.0446    0.0000 O   0  0  0  0  0  0  0  0  0  0  0  0
    2.1045   -1.7944    0.0000 C   0  0  0  0  0  0  0  0  0  0  0  0
    0.6136   -1.6288    0.0000 C   0  0  0  0  0  0  0  0  0  0  0  0
  2  1  1  6
  2  3  1  0
  3  4  1  0
  4  5  1  0
  5  6  2  0
  5  7  1  0
  7  8  1  0
  8  9  2  0
  9 10  1  0
 10 11  2  0
 11 12  1  0
 12 13  1  0
 13 14  2  0
 13 15  2  0
 13 16  1  0
 12 17  2  0
  2 18  1  0
 18 19  1  6
 19 20  1  0
 21 20  1  6
 21 22  1  0
 22 23  1  1
 23 24  1  1
 23 25  1  0
 26 25  1  1
 26 27  1  0
 27 28  1  0
 28 29  1  1
 28 30  1  0
 30 31  1  0
 31 32  1  0
 32 33  1  6
 32 34  1  0
 34 35  1  6
 35 36  1  0
 36 37  1  1
 36 38  1  0
 38 39  1  6
 17  8  1  0
 38 18  1  0
 38 21  1  0
 34 22  1  0
 32 26  1  0
M  END
>  <MS_ID>  (1562) 
MS1625

>  <SMILES>  (1562) 
C[C@H](CCC(=O)Nc1cccc(S(=O)(=O)O)c1)[C@H]1CC[C@H]2[C@@H]3[C@H](O)C[C@@H]4C[C@H](O)CC[C@]4(C)[C@H]3C[C@H](O)[C@]12C

>  <Structure_dimension>  (1562) 
2D

$$$$
MS1626
     RDKit          2D

 30 33  0  0  0  0  0  0  0  0999 V2000
   -5.0361   -2.2421    0.0000 C   0  0  0  0  0  0  0  0  0  0  0  0
   -3.9151   -1.2454    0.0000 C   0  0  0  0  0  0  0  0  0  0  0  0
   -4.2177    0.2237    0.0000 C   0  0  0  0  0  0  0  0  0  0  0  0
   -5.6413    0.6963    0.0000 C   0  0  0  0  0  0  0  0  0  0  0  0
   -5.9439    2.1654    0.0000 C   0  0  0  0  0  0  0  0  0  0  0  0
   -4.8228    3.1621    0.0000 O   0  0  0  0  0  0  0  0  0  0  0  0
   -7.3675    2.6380    0.0000 O   0  0  0  0  0  0  0  0  0  0  0  0
   -2.4915   -1.7180    0.0000 C   0  0  0  0  0  0  0  0  0  0  0  0
   -2.0370   -3.1475    0.0000 C   0  0  0  0  0  0  0  0  0  0  0  0
   -0.5370   -3.1570    0.0000 C   0  0  0  0  0  0  0  0  0  0  0  0
   -0.0645   -1.7333    0.0000 C   0  0  0  0  0  0  0  0  0  0  0  0
    1.3097   -1.1319    0.0000 C   0  0  0  0  0  0  0  0  0  0  0  0
    2.5176   -2.0213    0.0000 C   0  0  0  0  0  0  0  0  0  0  0  0
    2.3514   -3.5120    0.0000 C   0  0  0  0  0  0  0  0  0  0  0  0
    3.5593   -4.4014    0.0000 O   0  0  0  0  0  0  0  0  0  0  0  0
    3.8918   -1.4198    0.0000 C   0  0  0  0  0  0  0  0  0  0  0  0
    4.0580    0.0709    0.0000 C   0  0  0  0  0  0  0  0  0  0  0  0
    5.4321    0.6723    0.0000 C   0  0  0  0  0  0  0  0  0  0  0  0
    5.5984    2.1631    0.0000 C   0  0  0  0  0  0  0  0  0  0  0  0
    6.9725    2.7645    0.0000 O   0  0  0  0  0  0  0  0  0  0  0  0
    4.3904    3.0524    0.0000 C   0  0  0  0  0  0  0  0  0  0  0  0
    3.0163    2.4510    0.0000 C   0  0  0  0  0  0  0  0  0  0  0  0
    2.8501    0.9603    0.0000 C   0  0  0  0  0  0  0  0  0  0  0  0
    1.6421    1.8496    0.0000 C   0  0  0  0  0  0  0  0  0  0  0  0
    1.4759    0.3588    0.0000 C   0  0  0  0  0  0  0  0  0  0  0  0
    0.2680    1.2482    0.0000 C   0  0  0  0  0  0  0  0  0  0  0  0
   -1.1062    0.6468    0.0000 C   0  0  0  0  0  0  0  0  0  0  0  0
   -2.3141    1.5361    0.0000 O   0  0  0  0  0  0  0  0  0  0  0  0
   -1.2724   -0.8440    0.0000 C   0  0  0  0  0  0  0  0  0  0  0  0
   -2.5667   -0.0858    0.0000 C   0  0  0  0  0  0  0  0  0  0  0  0
  2  1  1  6
  2  3  1  0
  3  4  1  0
  4  5  1  0
  5  6  2  0
  5  7  1  0
  2  8  1  0
  8  9  1  6
  9 10  1  0
 11 10  1  6
 11 12  1  0
 12 13  1  1
 13 14  1  6
 14 15  1  0
 13 16  1  0
 17 16  1  1
 17 18  1  0
 18 19  1  0
 19 20  2  0
 19 21  1  0
 21 22  1  0
 22 23  1  0
 23 24  1  6
 23 25  1  0
 25 26  1  6
 26 27  1  0
 27 28  1  1
 27 29  1  0
 29 30  1  6
 29  8  1  0
 29 11  1  0
 25 12  1  0
 23 17  1  0
M  END
>  <MS_ID>  (1563) 
MS1626

>  <SMILES>  (1563) 
C[C@H](CCC(=O)O)[C@H]1CC[C@H]2[C@@H]3[C@@H](CO)C[C@@H]4CC(=O)CC[C@]4(C)[C@H]3C[C@H](O)[C@]12C

>  <Structure_dimension>  (1563) 
2D

$$$$
MS1627
     RDKit          2D

 31 34  0  0  0  0  0  0  0  0999 V2000
   -8.8652    2.5814    0.0000 C   0  0  0  0  0  0  0  0  0  0  0  0
   -7.3822    2.3562    0.0000 C   0  0  0  0  0  0  0  0  0  0  0  0
   -6.4457    3.5279    0.0000 C   0  0  0  0  0  0  0  0  0  0  0  0
   -6.8357    0.9593    0.0000 C   0  0  0  0  0  0  0  0  0  0  0  0
   -5.3527    0.7341    0.0000 C   0  0  0  0  0  0  0  0  0  0  0  0
   -4.4162    1.9059    0.0000 O   0  0  0  0  0  0  0  0  0  0  0  0
   -4.8062   -0.6628    0.0000 C   0  0  0  0  0  0  0  0  0  0  0  0
   -3.3232   -0.8879    0.0000 C   0  0  0  0  0  0  0  0  0  0  0  0
   -2.7767   -2.2848    0.0000 C   0  0  0  0  0  0  0  0  0  0  0  0
   -3.7132   -3.4566    0.0000 C   0  0  0  0  0  0  0  0  0  0  0  0
   -1.2937   -2.5100    0.0000 C   0  0  0  0  0  0  0  0  0  0  0  0
   -0.6042   -3.8421    0.0000 C   0  0  0  0  0  0  0  0  0  0  0  0
    0.8758   -3.5980    0.0000 C   0  0  0  0  0  0  0  0  0  0  0  0
    1.1010   -2.1150    0.0000 C   0  0  0  0  0  0  0  0  0  0  0  0
    2.3537   -1.2900    0.0000 C   0  0  0  0  0  0  0  0  0  0  0  0
    3.6946   -1.9624    0.0000 C   0  0  0  0  0  0  0  0  0  0  0  0
    3.7827   -3.4598    0.0000 O   0  0  0  0  0  0  0  0  0  0  0  0
    4.9473   -1.1374    0.0000 C   0  0  0  0  0  0  0  0  0  0  0  0
    4.8592    0.3600    0.0000 C   0  0  0  0  0  0  0  0  0  0  0  0
    6.1120    1.1850    0.0000 C   0  0  0  0  0  0  0  0  0  0  0  0
    6.0239    2.6824    0.0000 C   0  0  0  0  0  0  0  0  0  0  0  0
    7.2767    3.5074    0.0000 O   0  0  0  0  0  0  0  0  0  0  0  0
    4.6831    3.3548    0.0000 C   0  0  0  0  0  0  0  0  0  0  0  0
    3.4303    2.5298    0.0000 C   0  0  0  0  0  0  0  0  0  0  0  0
    3.5184    1.0324    0.0000 C   0  0  0  0  0  0  0  0  0  0  0  0
    2.1776    1.7048    0.0000 C   0  0  0  0  0  0  0  0  0  0  0  0
    2.2656    0.2074    0.0000 C   0  0  0  0  0  0  0  0  0  0  0  0
    0.9248    0.8798    0.0000 C   0  0  0  0  0  0  0  0  0  0  0  0
   -0.3279    0.0548    0.0000 C   0  0  0  0  0  0  0  0  0  0  0  0
   -0.2399   -1.4426    0.0000 C   0  0  0  0  0  0  0  0  0  0  0  0
   -1.6436   -0.9140    0.0000 C   0  0  0  0  0  0  0  0  0  0  0  0
  1  2  1  0
  2  3  1  0
  2  4  2  0
  4  5  1  0
  5  6  2  0
  5  7  1  0
  7  8  1  0
  8  9  1  0
  9 10  1  6
  9 11  1  0
 11 12  1  6
 12 13  1  0
 14 13  1  6
 14 15  1  0
 15 16  1  1
 16 17  1  1
 16 18  1  0
 19 18  1  1
 19 20  1  0
 20 21  1  0
 21 22  1  1
 21 23  1  0
 23 24  1  0
 24 25  1  0
 25 26  1  6
 25 27  1  0
 27 28  1  6
 28 29  1  0
 29 30  1  0
 30 31  1  6
 30 11  1  0
 30 14  1  0
 27 15  1  0
 25 19  1  0
M  END
>  <MS_ID>  (1564) 
MS1627

>  <SMILES>  (1564) 
CC(C)=CC(=O)CC[C@@H](C)[C@H]1CC[C@H]2[C@@H]3[C@H](O)C[C@@H]4C[C@H](O)CC[C@]4(C)[C@H]3CC[C@]12C

>  <Structure_dimension>  (1564) 
2D

$$$$
MS1628
     RDKit          2D

 31 34  0  0  0  0  0  0  0  0999 V2000
   -3.0989   -3.6972    0.0000 C   0  0  0  0  0  0  0  0  0  0  0  0
   -2.1883   -2.5051    0.0000 C   0  0  0  0  0  0  0  0  0  0  0  0
   -2.7654   -1.1206    0.0000 C   0  0  0  0  0  0  0  0  0  0  0  0
   -4.2530   -0.9280    0.0000 C   0  0  0  0  0  0  0  0  0  0  0  0
   -4.8300    0.4565    0.0000 C   0  0  0  0  0  0  0  0  0  0  0  0
   -3.9195    1.6486    0.0000 O   0  0  0  0  0  0  0  0  0  0  0  0
   -6.3176    0.6491    0.0000 C   0  0  0  0  0  0  0  0  0  0  0  0
   -6.8947    2.0336    0.0000 C   0  0  0  0  0  0  0  0  0  0  0  0
   -8.3823    2.2261    0.0000 C   0  0  0  0  0  0  0  0  0  0  0  0
   -9.2928    1.0341    0.0000 O   0  0  0  0  0  0  0  0  0  0  0  0
   -8.9593    3.6107    0.0000 O   0  0  0  0  0  0  0  0  0  0  0  0
   -0.7007   -2.6977    0.0000 C   0  0  0  0  0  0  0  0  0  0  0  0
    0.0179   -4.0143    0.0000 C   0  0  0  0  0  0  0  0  0  0  0  0
    1.4922   -3.7377    0.0000 C   0  0  0  0  0  0  0  0  0  0  0  0
    1.6847   -2.2501    0.0000 C   0  0  0  0  0  0  0  0  0  0  0  0
    2.9190   -1.3978    0.0000 C   0  0  0  0  0  0  0  0  0  0  0  0
    4.2743   -2.0406    0.0000 C   0  0  0  0  0  0  0  0  0  0  0  0
    5.5086   -1.1883    0.0000 C   0  0  0  0  0  0  0  0  0  0  0  0
    5.3877    0.3068    0.0000 C   0  0  0  0  0  0  0  0  0  0  0  0
    6.6220    1.1591    0.0000 C   0  0  0  0  0  0  0  0  0  0  0  0
    6.5010    2.6542    0.0000 C   0  0  0  0  0  0  0  0  0  0  0  0
    7.7354    3.5066    0.0000 O   0  0  0  0  0  0  0  0  0  0  0  0
    5.1457    3.2970    0.0000 C   0  0  0  0  0  0  0  0  0  0  0  0
    3.9114    2.4447    0.0000 C   0  0  0  0  0  0  0  0  0  0  0  0
    4.0324    0.9496    0.0000 C   0  0  0  0  0  0  0  0  0  0  0  0
    2.6771    1.5924    0.0000 C   0  0  0  0  0  0  0  0  0  0  0  0
    2.7981    0.0973    0.0000 C   0  0  0  0  0  0  0  0  0  0  0  0
    1.4428    0.7401    0.0000 C   0  0  0  0  0  0  0  0  0  0  0  0
    0.2084   -0.1122    0.0000 C   0  0  0  0  0  0  0  0  0  0  0  0
    0.3294   -1.6073    0.0000 C   0  0  0  0  0  0  0  0  0  0  0  0
   -1.0856   -1.1097    0.0000 C   0  0  0  0  0  0  0  0  0  0  0  0
  2  1  1  6
  2  3  1  0
  3  4  1  0
  4  5  1  0
  5  6  2  0
  5  7  1  0
  7  8  1  0
  8  9  1  0
  9 10  2  0
  9 11  1  0
  2 12  1  0
 12 13  1  6
 13 14  1  0
 15 14  1  6
 15 16  1  0
 16 17  1  1
 17 18  1  0
 19 18  1  1
 19 20  1  0
 20 21  1  0
 21 22  1  6
 21 23  1  0
 23 24  1  0
 24 25  1  0
 25 26  1  6
 25 27  1  0
 27 28  1  6
 28 29  1  0
 29 30  1  0
 30 31  1  6
 30 12  1  0
 30 15  1  0
 27 16  1  0
 25 19  1  0
M  END
>  <MS_ID>  (1565) 
MS1628

>  <SMILES>  (1565) 
C[C@H](CCC(=O)CCC(=O)O)[C@H]1CC[C@H]2[C@@H]3CC[C@@H]4C[C@@H](O)CC[C@]4(C)[C@H]3CC[C@]12C

>  <Structure_dimension>  (1565) 
2D

$$$$
MS1629
     RDKit          2D

 34 37  0  0  0  0  0  0  0  0999 V2000
   -7.0226   -1.2614    0.0000 C   0  0  0  0  0  0  0  0  0  0  0  0
   -5.6607   -0.6328    0.0000 C   0  0  0  0  0  0  0  0  0  0  0  0
   -5.5241    0.8609    0.0000 C   0  0  0  0  0  0  0  0  0  0  0  0
   -6.7494    1.7261    0.0000 C   0  0  0  0  0  0  0  0  0  0  0  0
   -6.6129    3.2199    0.0000 C   0  0  0  0  0  0  0  0  0  0  0  0
   -5.2509    3.8485    0.0000 O   0  0  0  0  0  0  0  0  0  0  0  0
   -7.8382    4.0850    0.0000 O   0  0  0  0  0  0  0  0  0  0  0  0
   -4.4353   -1.4980    0.0000 C   0  0  0  0  0  0  0  0  0  0  0  0
   -4.4150   -2.9979    0.0000 C   0  0  0  0  0  0  0  0  0  0  0  0
   -2.9823   -3.4420    0.0000 C   0  0  0  0  0  0  0  0  0  0  0  0
   -2.1171   -2.2167    0.0000 C   0  0  0  0  0  0  0  0  0  0  0  0
   -0.6276   -2.0397    0.0000 C   0  0  0  0  0  0  0  0  0  0  0  0
    0.2704   -3.2412    0.0000 C   0  0  0  0  0  0  0  0  0  0  0  0
    1.7600   -3.0642    0.0000 C   0  0  0  0  0  0  0  0  0  0  0  0
    2.3515   -1.6857    0.0000 C   0  0  0  0  0  0  0  0  0  0  0  0
    3.8410   -1.5088    0.0000 C   0  0  0  0  0  0  0  0  0  0  0  0
    4.4325   -0.1303    0.0000 C   0  0  0  0  0  0  0  0  0  0  0  0
    5.9220    0.0467    0.0000 C   0  0  0  0  0  0  0  0  0  0  0  0
    6.8200   -1.1548    0.0000 O   0  0  0  0  0  0  0  0  0  0  0  0
    6.5135    1.4251    0.0000 O   0  0  0  0  0  0  0  0  0  0  0  0
    8.0030    1.6021    0.0000 S   0  0  0  0  0  0  0  0  0  0  0  0
    8.1800    0.1126    0.0000 O   0  0  0  0  0  0  0  0  0  0  0  0
    7.8260    3.0916    0.0000 O   0  0  0  0  0  0  0  0  0  0  0  0
    9.4925    1.7791    0.0000 O   0  0  0  0  0  0  0  0  0  0  0  0
    3.5344    1.0712    0.0000 C   0  0  0  0  0  0  0  0  0  0  0  0
    2.0449    0.8942    0.0000 C   0  0  0  0  0  0  0  0  0  0  0  0
    1.4534   -0.4843    0.0000 C   0  0  0  0  0  0  0  0  0  0  0  0
    0.5554    0.7172    0.0000 C   0  0  0  0  0  0  0  0  0  0  0  0
   -0.0361   -0.6612    0.0000 C   0  0  0  0  0  0  0  0  0  0  0  0
   -0.9341    0.5402    0.0000 C   0  0  0  0  0  0  0  0  0  0  0  0
   -2.4236    0.3633    0.0000 C   0  0  0  0  0  0  0  0  0  0  0  0
   -3.3217    1.5647    0.0000 O   0  0  0  0  0  0  0  0  0  0  0  0
   -3.0151   -1.0152    0.0000 C   0  0  0  0  0  0  0  0  0  0  0  0
   -4.0338    0.0858    0.0000 C   0  0  0  0  0  0  0  0  0  0  0  0
  2  1  1  6
  2  3  1  0
  3  4  1  0
  4  5  1  0
  5  6  2  0
  5  7  1  0
  2  8  1  0
  8  9  1  6
  9 10  1  0
 11 10  1  6
 11 12  1  0
 12 13  1  1
 13 14  1  0
 15 14  1  1
 15 16  1  0
 16 17  1  0
 17 18  1  1
 18 19  2  0
 18 20  1  0
 20 21  1  0
 21 22  2  0
 21 23  2  0
 21 24  1  0
 17 25  1  0
 25 26  1  0
 26 27  1  0
 27 28  1  6
 27 29  1  0
 29 30  1  6
 30 31  1  0
 31 32  1  1
 31 33  1  0
 33 34  1  6
 33  8  1  0
 33 11  1  0
 29 12  1  0
 27 15  1  0
M  END
>  <MS_ID>  (1566) 
MS1629

>  <SMILES>  (1566) 
C[C@H](CCC(=O)O)[C@H]1CC[C@H]2[C@@H]3CC[C@@H]4C[C@H](C(=O)OS(=O)(=O)O)CC[C@]4(C)[C@H]3C[C@H](O)[C@]12C

>  <Structure_dimension>  (1566) 
2D

$$$$
MS1630
     RDKit          2D

 34 38  0  0  0  0  0  0  0  0999 V2000
   -2.2608   -4.3306    0.0000 C   0  0  0  0  0  0  0  0  0  0  0  0
   -1.5430   -3.0135    0.0000 C   0  0  0  0  0  0  0  0  0  0  0  0
   -2.3248   -1.7333    0.0000 C   0  0  0  0  0  0  0  0  0  0  0  0
   -3.8244   -1.7702    0.0000 C   0  0  0  0  0  0  0  0  0  0  0  0
   -4.6061   -0.4901    0.0000 C   0  0  0  0  0  0  0  0  0  0  0  0
   -3.8883    0.8271    0.0000 O   0  0  0  0  0  0  0  0  0  0  0  0
   -6.1057   -0.5270    0.0000 C   0  0  0  0  0  0  0  0  0  0  0  0
   -6.8874    0.7532    0.0000 C   0  0  0  0  0  0  0  0  0  0  0  0
   -6.1696    2.0703    0.0000 C   0  0  0  0  0  0  0  0  0  0  0  0
   -6.9514    3.3505    0.0000 C   0  0  0  0  0  0  0  0  0  0  0  0
   -8.4509    3.3135    0.0000 C   0  0  0  0  0  0  0  0  0  0  0  0
   -9.1687    1.9964    0.0000 C   0  0  0  0  0  0  0  0  0  0  0  0
   -8.3870    0.7163    0.0000 N   0  0  0  0  0  0  0  0  0  0  0  0
   -0.0435   -2.9765    0.0000 C   0  0  0  0  0  0  0  0  0  0  0  0
    0.8678   -4.1680    0.0000 C   0  0  0  0  0  0  0  0  0  0  0  0
    2.2825   -3.6695    0.0000 C   0  0  0  0  0  0  0  0  0  0  0  0
    2.2456   -2.1699    0.0000 C   0  0  0  0  0  0  0  0  0  0  0  0
    3.3353   -1.1391    0.0000 C   0  0  0  0  0  0  0  0  0  0  0  0
    4.7728   -1.5673    0.0000 C   0  0  0  0  0  0  0  0  0  0  0  0
    5.1207   -3.0264    0.0000 O   0  0  0  0  0  0  0  0  0  0  0  0
    5.8625   -0.5365    0.0000 C   0  0  0  0  0  0  0  0  0  0  0  0
    5.5146    0.9226    0.0000 C   0  0  0  0  0  0  0  0  0  0  0  0
    6.6043    1.9534    0.0000 C   0  0  0  0  0  0  0  0  0  0  0  0
    6.2564    3.4125    0.0000 C   0  0  0  0  0  0  0  0  0  0  0  0
    7.3460    4.4434    0.0000 O   0  0  0  0  0  0  0  0  0  0  0  0
    4.8188    3.8408    0.0000 C   0  0  0  0  0  0  0  0  0  0  0  0
    3.7291    2.8099    0.0000 C   0  0  0  0  0  0  0  0  0  0  0  0
    4.0770    1.3509    0.0000 C   0  0  0  0  0  0  0  0  0  0  0  0
    2.6395    1.7791    0.0000 C   0  0  0  0  0  0  0  0  0  0  0  0
    2.9874    0.3200    0.0000 C   0  0  0  0  0  0  0  0  0  0  0  0
    1.5498    0.7483    0.0000 C   0  0  0  0  0  0  0  0  0  0  0  0
    0.4601   -0.2826    0.0000 C   0  0  0  0  0  0  0  0  0  0  0  0
    0.8080   -1.7417    0.0000 C   0  0  0  0  0  0  0  0  0  0  0  0
   -0.6664   -1.4660    0.0000 C   0  0  0  0  0  0  0  0  0  0  0  0
  2  1  1  6
  2  3  1  0
  3  4  1  0
  4  5  1  0
  5  6  2  0
  5  7  1  0
  7  8  1  0
  8  9  2  0
  9 10  1  0
 10 11  2  0
 11 12  1  0
 12 13  2  0
  2 14  1  0
 14 15  1  6
 15 16  1  0
 17 16  1  6
 17 18  1  0
 18 19  1  1
 19 20  1  6
 19 21  1  0
 22 21  1  1
 22 23  1  0
 23 24  1  0
 24 25  1  1
 24 26  1  0
 26 27  1  0
 27 28  1  0
 28 29  1  6
 28 30  1  0
 30 31  1  6
 31 32  1  0
 32 33  1  0
 33 34  1  6
 13  8  1  0
 33 14  1  0
 33 17  1  0
 30 18  1  0
 28 22  1  0
M  END
>  <MS_ID>  (1567) 
MS1630

>  <SMILES>  (1567) 
C[C@H](CCC(=O)Cc1ccccn1)[C@H]1CC[C@H]2[C@@H]3[C@@H](O)C[C@@H]4C[C@H](O)CC[C@]4(C)[C@H]3CC[C@]12C

>  <Structure_dimension>  (1567) 
2D

$$$$
MS1631
     RDKit          2D

 34 37  0  0  0  0  0  0  0  0999 V2000
   -8.6395    3.3875    0.0000 C   0  0  0  0  0  0  0  0  0  0  0  0
   -8.0142    2.0241    0.0000 C   0  0  0  0  0  0  0  0  0  0  0  0
   -6.5207    1.8839    0.0000 C   0  0  0  0  0  0  0  0  0  0  0  0
   -5.8954    0.5205    0.0000 C   0  0  0  0  0  0  0  0  0  0  0  0
   -4.4020    0.3804    0.0000 C   0  0  0  0  0  0  0  0  0  0  0  0
   -3.5339    1.6036    0.0000 O   0  0  0  0  0  0  0  0  0  0  0  0
   -3.7766   -0.9831    0.0000 C   0  0  0  0  0  0  0  0  0  0  0  0
   -2.2832   -1.1232    0.0000 C   0  0  0  0  0  0  0  0  0  0  0  0
   -1.6579   -2.4867    0.0000 C   0  0  0  0  0  0  0  0  0  0  0  0
   -2.5260   -3.7099    0.0000 C   0  0  0  0  0  0  0  0  0  0  0  0
   -0.1644   -2.6268    0.0000 C   0  0  0  0  0  0  0  0  0  0  0  0
    0.6000   -3.9174    0.0000 C   0  0  0  0  0  0  0  0  0  0  0  0
    2.0637   -3.5892    0.0000 C   0  0  0  0  0  0  0  0  0  0  0  0
    2.2038   -2.0958    0.0000 C   0  0  0  0  0  0  0  0  0  0  0  0
    3.4074   -1.2006    0.0000 C   0  0  0  0  0  0  0  0  0  0  0  0
    4.7845   -1.7954    0.0000 C   0  0  0  0  0  0  0  0  0  0  0  0
    4.9579   -3.2854    0.0000 O   0  0  0  0  0  0  0  0  0  0  0  0
    5.9881   -0.9003    0.0000 C   0  0  0  0  0  0  0  0  0  0  0  0
    5.8147    0.5897    0.0000 C   0  0  0  0  0  0  0  0  0  0  0  0
    7.0183    1.4848    0.0000 C   0  0  0  0  0  0  0  0  0  0  0  0
    6.8449    2.9747    0.0000 C   0  0  0  0  0  0  0  0  0  0  0  0
    8.0485    3.8699    0.0000 O   0  0  0  0  0  0  0  0  0  0  0  0
    5.4679    3.5695    0.0000 C   0  0  0  0  0  0  0  0  0  0  0  0
    4.2643    2.6744    0.0000 C   0  0  0  0  0  0  0  0  0  0  0  0
    4.4377    1.1844    0.0000 C   0  0  0  0  0  0  0  0  0  0  0  0
    3.0606    1.7792    0.0000 C   0  0  0  0  0  0  0  0  0  0  0  0
    3.2340    0.2893    0.0000 C   0  0  0  0  0  0  0  0  0  0  0  0
    1.8570    0.8841    0.0000 C   0  0  0  0  0  0  0  0  0  0  0  0
    0.6534   -0.0111    0.0000 C   0  0  0  0  0  0  0  0  0  0  0  0
    0.8268   -1.5010    0.0000 C   0  0  0  0  0  0  0  0  0  0  0  0
   -0.6049   -1.0534    0.0000 C   0  0  0  0  0  0  0  0  0  0  0  0
   -8.8823    0.8008    0.0000 C   0  0  0  0  0  0  0  0  0  0  0  0
   -8.2569   -0.5626    0.0000 O   0  0  0  0  0  0  0  0  0  0  0  0
  -10.3757    0.9410    0.0000 O   0  0  0  0  0  0  0  0  0  0  0  0
  2  1  1  6
  2  3  1  0
  3  4  1  0
  4  5  1  0
  5  6  2  0
  5  7  1  0
  7  8  1  0
  8  9  1  0
  9 10  1  6
  9 11  1  0
 11 12  1  6
 12 13  1  0
 14 13  1  6
 14 15  1  0
 15 16  1  1
 16 17  1  6
 16 18  1  0
 19 18  1  1
 19 20  1  0
 20 21  1  0
 21 22  1  1
 21 23  1  0
 23 24  1  0
 24 25  1  0
 25 26  1  6
 25 27  1  0
 27 28  1  6
 28 29  1  0
 29 30  1  0
 30 31  1  6
  2 32  1  0
 32 33  2  0
 32 34  1  0
 30 11  1  0
 30 14  1  0
 27 15  1  0
 25 19  1  0
M  END
>  <MS_ID>  (1568) 
MS1631

>  <SMILES>  (1568) 
C[C@H](CCC(=O)CC[C@@H](C)[C@H]1CC[C@H]2[C@@H]3[C@@H](O)C[C@@H]4C[C@H](O)CC[C@]4(C)[C@H]3CC[C@]12C)C(=O)O

>  <Structure_dimension>  (1568) 
2D

$$$$
MS1632
     RDKit          2D

 29 32  0  0  0  0  0  0  0  0999 V2000
   -4.5534   -2.6812    0.0000 C   0  0  0  0  0  0  0  0  0  0  0  0
   -3.4378   -1.6786    0.0000 C   0  0  0  0  0  0  0  0  0  0  0  0
   -3.7483   -0.2111    0.0000 C   0  0  0  0  0  0  0  0  0  0  0  0
   -5.1744    0.2538    0.0000 C   0  0  0  0  0  0  0  0  0  0  0  0
   -5.4850    1.7213    0.0000 C   0  0  0  0  0  0  0  0  0  0  0  0
   -4.3693    2.7239    0.0000 O   0  0  0  0  0  0  0  0  0  0  0  0
   -6.9111    2.1861    0.0000 N   0  0  0  0  0  0  0  0  0  0  0  0
   -7.2216    3.6536    0.0000 O   0  0  0  0  0  0  0  0  0  0  0  0
   -2.0116   -2.1434    0.0000 C   0  0  0  0  0  0  0  0  0  0  0  0
   -1.5494   -3.5704    0.0000 C   0  0  0  0  0  0  0  0  0  0  0  0
   -0.0494   -3.5718    0.0000 C   0  0  0  0  0  0  0  0  0  0  0  0
    0.4155   -2.1456    0.0000 C   0  0  0  0  0  0  0  0  0  0  0  0
    1.7863   -1.5368    0.0000 C   0  0  0  0  0  0  0  0  0  0  0  0
    2.9990   -2.4196    0.0000 C   0  0  0  0  0  0  0  0  0  0  0  0
    4.3699   -1.8107    0.0000 C   0  0  0  0  0  0  0  0  0  0  0  0
    4.5281   -0.3191    0.0000 C   0  0  0  0  0  0  0  0  0  0  0  0
    5.8990    0.2898    0.0000 C   0  0  0  0  0  0  0  0  0  0  0  0
    6.0571    1.7814    0.0000 C   0  0  0  0  0  0  0  0  0  0  0  0
    7.4280    2.3902    0.0000 O   0  0  0  0  0  0  0  0  0  0  0  0
    4.8444    2.6642    0.0000 C   0  0  0  0  0  0  0  0  0  0  0  0
    3.4735    2.0553    0.0000 C   0  0  0  0  0  0  0  0  0  0  0  0
    3.3154    0.5637    0.0000 C   0  0  0  0  0  0  0  0  0  0  0  0
    2.1026    1.4465    0.0000 C   0  0  0  0  0  0  0  0  0  0  0  0
    1.9445   -0.0451    0.0000 C   0  0  0  0  0  0  0  0  0  0  0  0
    0.7318    0.8376    0.0000 C   0  0  0  0  0  0  0  0  0  0  0  0
   -0.6391    0.2288    0.0000 C   0  0  0  0  0  0  0  0  0  0  0  0
   -1.8518    1.1116    0.0000 O   0  0  0  0  0  0  0  0  0  0  0  0
   -0.7973   -1.2628    0.0000 C   0  0  0  0  0  0  0  0  0  0  0  0
   -2.0956   -0.5116    0.0000 C   0  0  0  0  0  0  0  0  0  0  0  0
  2  1  1  6
  2  3  1  0
  3  4  1  0
  4  5  1  0
  5  6  2  0
  5  7  1  0
  7  8  1  0
  2  9  1  0
  9 10  1  6
 10 11  1  0
 12 11  1  6
 12 13  1  0
 13 14  1  1
 14 15  1  0
 16 15  1  1
 16 17  1  0
 17 18  1  0
 18 19  1  6
 18 20  1  0
 20 21  1  0
 21 22  1  0
 22 23  1  6
 22 24  1  0
 24 25  1  6
 25 26  1  0
 26 27  1  1
 26 28  1  0
 28 29  1  6
 28  9  1  0
 28 12  1  0
 24 13  1  0
 22 16  1  0
M  END
>  <MS_ID>  (1569) 
MS1632

>  <SMILES>  (1569) 
C[C@H](CCC(=O)NO)[C@H]1CC[C@H]2[C@@H]3CC[C@@H]4C[C@@H](O)CC[C@]4(C)[C@H]3C[C@H](O)[C@]12C

>  <Structure_dimension>  (1569) 
2D

$$$$
MS1633
     RDKit          2D

 30 33  0  0  0  0  0  0  0  0999 V2000
   -3.0505   -3.6493    0.0000 C   0  0  0  0  0  0  0  0  0  0  0  0
   -2.2252   -2.3967    0.0000 C   0  0  0  0  0  0  0  0  0  0  0  0
   -2.8973   -1.0557    0.0000 C   0  0  0  0  0  0  0  0  0  0  0  0
   -4.3947   -0.9673    0.0000 C   0  0  0  0  0  0  0  0  0  0  0  0
   -5.0668    0.3737    0.0000 C   0  0  0  0  0  0  0  0  0  0  0  0
   -4.2415    1.6263    0.0000 O   0  0  0  0  0  0  0  0  0  0  0  0
   -6.5642    0.4622    0.0000 O   0  0  0  0  0  0  0  0  0  0  0  0
   -7.2363    1.8032    0.0000 C   0  0  0  0  0  0  0  0  0  0  0  0
   -8.7337    1.8916    0.0000 C   0  0  0  0  0  0  0  0  0  0  0  0
   -9.4058    3.2326    0.0000 O   0  0  0  0  0  0  0  0  0  0  0  0
   -0.7278   -2.4852    0.0000 C   0  0  0  0  0  0  0  0  0  0  0  0
    0.0808   -3.7486    0.0000 C   0  0  0  0  0  0  0  0  0  0  0  0
    1.5322   -3.3700    0.0000 C   0  0  0  0  0  0  0  0  0  0  0  0
    1.6207   -1.8726    0.0000 C   0  0  0  0  0  0  0  0  0  0  0  0
    2.7926   -0.9364    0.0000 C   0  0  0  0  0  0  0  0  0  0  0  0
    4.1894   -1.4832    0.0000 C   0  0  0  0  0  0  0  0  0  0  0  0
    4.4142   -2.9662    0.0000 O   0  0  0  0  0  0  0  0  0  0  0  0
    5.3613   -0.5470    0.0000 C   0  0  0  0  0  0  0  0  0  0  0  0
    5.1365    0.9361    0.0000 C   0  0  0  0  0  0  0  0  0  0  0  0
    6.3085    1.8723    0.0000 C   0  0  0  0  0  0  0  0  0  0  0  0
    6.0837    3.3554    0.0000 C   0  0  0  0  0  0  0  0  0  0  0  0
    4.6869    3.9022    0.0000 C   0  0  0  0  0  0  0  0  0  0  0  0
    3.5149    2.9660    0.0000 C   0  0  0  0  0  0  0  0  0  0  0  0
    3.7398    1.4829    0.0000 C   0  0  0  0  0  0  0  0  0  0  0  0
    2.3430    2.0298    0.0000 C   0  0  0  0  0  0  0  0  0  0  0  0
    2.5678    0.5467    0.0000 C   0  0  0  0  0  0  0  0  0  0  0  0
    1.1710    1.0935    0.0000 C   0  0  0  0  0  0  0  0  0  0  0  0
   -0.0009    0.1573    0.0000 C   0  0  0  0  0  0  0  0  0  0  0  0
    0.2239   -1.3257    0.0000 C   0  0  0  0  0  0  0  0  0  0  0  0
   -1.2224   -0.9279    0.0000 C   0  0  0  0  0  0  0  0  0  0  0  0
  2  1  1  6
  2  3  1  0
  3  4  1  0
  4  5  1  0
  5  6  2  0
  5  7  1  0
  7  8  1  0
  8  9  1  0
  9 10  1  0
  2 11  1  0
 11 12  1  6
 12 13  1  0
 14 13  1  6
 14 15  1  0
 15 16  1  1
 16 17  1  6
 16 18  1  0
 19 18  1  1
 19 20  1  0
 20 21  1  0
 21 22  1  0
 22 23  1  0
 23 24  1  0
 24 25  1  6
 24 26  1  0
 26 27  1  6
 27 28  1  0
 28 29  1  0
 29 30  1  6
 29 11  1  0
 29 14  1  0
 26 15  1  0
 24 19  1  0
M  END
>  <MS_ID>  (1570) 
MS1633

>  <SMILES>  (1570) 
C[C@H](CCC(=O)OCCO)[C@H]1CC[C@H]2[C@@H]3[C@@H](O)C[C@@H]4CCCC[C@]4(C)[C@H]3CC[C@]12C

>  <Structure_dimension>  (1570) 
2D

$$$$
MS1634
     RDKit          2D

 32 35  0  0  0  0  0  0  0  0999 V2000
   -2.8252   -3.9526    0.0000 C   0  0  0  0  0  0  0  0  0  0  0  0
   -1.9779   -2.7148    0.0000 C   0  0  0  0  0  0  0  0  0  0  0  0
   -2.6262   -1.3621    0.0000 C   0  0  0  0  0  0  0  0  0  0  0  0
   -4.1218   -1.2472    0.0000 C   0  0  0  0  0  0  0  0  0  0  0  0
   -4.7701    0.1054    0.0000 C   0  0  0  0  0  0  0  0  0  0  0  0
   -3.9228    1.3432    0.0000 O   0  0  0  0  0  0  0  0  0  0  0  0
   -6.2657    0.2203    0.0000 O   0  0  0  0  0  0  0  0  0  0  0  0
   -6.9140    1.5730    0.0000 C   0  0  0  0  0  0  0  0  0  0  0  0
   -8.4096    1.6879    0.0000 C   0  0  0  0  0  0  0  0  0  0  0  0
   -9.0579    3.0406    0.0000 C   0  0  0  0  0  0  0  0  0  0  0  0
  -10.5534    3.1554    0.0000 O   0  0  0  0  0  0  0  0  0  0  0  0
   -0.4823   -2.8297    0.0000 C   0  0  0  0  0  0  0  0  0  0  0  0
    0.3038   -4.1072    0.0000 C   0  0  0  0  0  0  0  0  0  0  0  0
    1.7617   -3.7543    0.0000 C   0  0  0  0  0  0  0  0  0  0  0  0
    1.8766   -2.2587    0.0000 C   0  0  0  0  0  0  0  0  0  0  0  0
    3.0650   -1.3433    0.0000 C   0  0  0  0  0  0  0  0  0  0  0  0
    4.4518   -1.9148    0.0000 C   0  0  0  0  0  0  0  0  0  0  0  0
    5.6402   -0.9994    0.0000 C   0  0  0  0  0  0  0  0  0  0  0  0
    5.4416    0.4874    0.0000 C   0  0  0  0  0  0  0  0  0  0  0  0
    6.6299    1.4028    0.0000 C   0  0  0  0  0  0  0  0  0  0  0  0
    6.4313    2.8896    0.0000 C   0  0  0  0  0  0  0  0  0  0  0  0
    7.6197    3.8049    0.0000 O   0  0  0  0  0  0  0  0  0  0  0  0
    5.0445    3.4610    0.0000 C   0  0  0  0  0  0  0  0  0  0  0  0
    3.8561    2.5456    0.0000 C   0  0  0  0  0  0  0  0  0  0  0  0
    4.0547    1.0588    0.0000 C   0  0  0  0  0  0  0  0  0  0  0  0
    2.6678    1.6303    0.0000 C   0  0  0  0  0  0  0  0  0  0  0  0
    2.8664    0.1435    0.0000 C   0  0  0  0  0  0  0  0  0  0  0  0
    1.4795    0.7149    0.0000 C   0  0  0  0  0  0  0  0  0  0  0  0
    0.2912   -0.2005    0.0000 C   0  0  0  0  0  0  0  0  0  0  0  0
   -1.0957    0.3710    0.0000 O   0  0  0  0  0  0  0  0  0  0  0  0
    0.4897   -1.6873    0.0000 C   0  0  0  0  0  0  0  0  0  0  0  0
   -0.9493   -1.2639    0.0000 C   0  0  0  0  0  0  0  0  0  0  0  0
  2  1  1  6
  2  3  1  0
  3  4  1  0
  4  5  1  0
  5  6  2  0
  5  7  1  0
  7  8  1  0
  8  9  1  0
  9 10  1  0
 10 11  1  0
  2 12  1  0
 12 13  1  6
 13 14  1  0
 15 14  1  6
 15 16  1  0
 16 17  1  1
 17 18  1  0
 19 18  1  1
 19 20  1  0
 20 21  1  0
 21 22  1  1
 21 23  1  0
 23 24  1  0
 24 25  1  0
 25 26  1  6
 25 27  1  0
 27 28  1  6
 28 29  1  0
 29 30  2  0
 29 31  1  0
 31 32  1  6
 31 12  1  0
 31 15  1  0
 27 16  1  0
 25 19  1  0
M  END
>  <MS_ID>  (1571) 
MS1634

>  <SMILES>  (1571) 
C[C@H](CCC(=O)OCCCO)[C@H]1CC[C@H]2[C@@H]3CC[C@@H]4C[C@H](O)CC[C@]4(C)[C@H]3CC(=O)[C@]12C

>  <Structure_dimension>  (1571) 
2D

$$$$
MS1635
     RDKit          2D

 35 38  0  0  0  0  0  0  0  0999 V2000
   -8.6207    3.3662    0.0000 C   0  0  0  0  0  0  0  0  0  0  0  0
   -7.9946    2.0031    0.0000 C   0  0  0  0  0  0  0  0  0  0  0  0
   -6.5011    1.8638    0.0000 C   0  0  0  0  0  0  0  0  0  0  0  0
   -5.8750    0.5007    0.0000 C   0  0  0  0  0  0  0  0  0  0  0  0
   -4.3815    0.3613    0.0000 C   0  0  0  0  0  0  0  0  0  0  0  0
   -3.5140    1.5851    0.0000 O   0  0  0  0  0  0  0  0  0  0  0  0
   -3.7554   -1.0018    0.0000 C   0  0  0  0  0  0  0  0  0  0  0  0
   -2.2619   -1.1411    0.0000 C   0  0  0  0  0  0  0  0  0  0  0  0
   -1.6358   -2.5042    0.0000 C   0  0  0  0  0  0  0  0  0  0  0  0
   -2.5033   -3.7280    0.0000 C   0  0  0  0  0  0  0  0  0  0  0  0
   -0.1423   -2.6436    0.0000 C   0  0  0  0  0  0  0  0  0  0  0  0
    0.6228   -3.9338    0.0000 C   0  0  0  0  0  0  0  0  0  0  0  0
    2.0863   -3.6048    0.0000 C   0  0  0  0  0  0  0  0  0  0  0  0
    2.2256   -2.1113    0.0000 C   0  0  0  0  0  0  0  0  0  0  0  0
    3.4288   -1.2155    0.0000 C   0  0  0  0  0  0  0  0  0  0  0  0
    4.8061   -1.8095    0.0000 C   0  0  0  0  0  0  0  0  0  0  0  0
    4.9803   -3.2994    0.0000 O   0  0  0  0  0  0  0  0  0  0  0  0
    6.0093   -0.9138    0.0000 C   0  0  0  0  0  0  0  0  0  0  0  0
    5.8351    0.5761    0.0000 C   0  0  0  0  0  0  0  0  0  0  0  0
    7.0382    1.4719    0.0000 C   0  0  0  0  0  0  0  0  0  0  0  0
    6.8640    2.9617    0.0000 C   0  0  0  0  0  0  0  0  0  0  0  0
    8.0671    3.8575    0.0000 O   0  0  0  0  0  0  0  0  0  0  0  0
    5.4867    3.5558    0.0000 C   0  0  0  0  0  0  0  0  0  0  0  0
    4.2835    2.6600    0.0000 C   0  0  0  0  0  0  0  0  0  0  0  0
    4.4577    1.1702    0.0000 C   0  0  0  0  0  0  0  0  0  0  0  0
    3.0804    1.7642    0.0000 C   0  0  0  0  0  0  0  0  0  0  0  0
    3.2546    0.2744    0.0000 C   0  0  0  0  0  0  0  0  0  0  0  0
    1.8772    0.8684    0.0000 C   0  0  0  0  0  0  0  0  0  0  0  0
    0.6741   -0.0274    0.0000 C   0  0  0  0  0  0  0  0  0  0  0  0
   -0.7033    0.5667    0.0000 O   0  0  0  0  0  0  0  0  0  0  0  0
    0.8483   -1.5172    0.0000 C   0  0  0  0  0  0  0  0  0  0  0  0
   -0.5836   -1.0704    0.0000 C   0  0  0  0  0  0  0  0  0  0  0  0
   -8.8620    0.7794    0.0000 C   0  0  0  0  0  0  0  0  0  0  0  0
   -8.2360   -0.5837    0.0000 O   0  0  0  0  0  0  0  0  0  0  0  0
  -10.3555    0.9188    0.0000 O   0  0  0  0  0  0  0  0  0  0  0  0
  2  1  1  6
  2  3  1  0
  3  4  1  0
  4  5  1  0
  5  6  2  0
  5  7  1  0
  7  8  1  0
  8  9  1  0
  9 10  1  6
  9 11  1  0
 11 12  1  6
 12 13  1  0
 14 13  1  6
 14 15  1  0
 15 16  1  1
 16 17  1  1
 16 18  1  0
 19 18  1  1
 19 20  1  0
 20 21  1  0
 21 22  1  1
 21 23  1  0
 23 24  1  0
 24 25  1  0
 25 26  1  6
 25 27  1  0
 27 28  1  6
 28 29  1  0
 29 30  1  1
 29 31  1  0
 31 32  1  6
  2 33  1  0
 33 34  2  0
 33 35  1  0
 31 11  1  0
 31 14  1  0
 27 15  1  0
 25 19  1  0
M  END
>  <MS_ID>  (1572) 
MS1635

>  <SMILES>  (1572) 
C[C@H](CCC(=O)CC[C@@H](C)[C@H]1CC[C@H]2[C@@H]3[C@H](O)C[C@@H]4C[C@H](O)CC[C@]4(C)[C@H]3C[C@H](O)[C@]12C)C(=O)O

>  <Structure_dimension>  (1572) 
2D

$$$$
MS1636
     RDKit          2D

 33 36  0  0  0  0  0  0  0  0999 V2000
   -1.9813   -4.3426    0.0000 C   0  0  0  0  0  0  0  0  0  0  0  0
   -1.2397   -3.0388    0.0000 C   0  0  0  0  0  0  0  0  0  0  0  0
   -1.9981   -1.7446    0.0000 C   0  0  0  0  0  0  0  0  0  0  0  0
   -3.4981   -1.7543    0.0000 C   0  0  0  0  0  0  0  0  0  0  0  0
   -4.2565   -0.4602    0.0000 C   0  0  0  0  0  0  0  0  0  0  0  0
   -3.5149    0.8437    0.0000 O   0  0  0  0  0  0  0  0  0  0  0  0
   -5.7564   -0.4699    0.0000 N   0  0  0  0  0  0  0  0  0  0  0  0
   -6.5148    0.8243    0.0000 C   0  0  0  0  0  0  0  0  0  0  0  0
   -8.0148    0.8146    0.0000 C   0  0  0  0  0  0  0  0  0  0  0  0
   -8.7732    2.1088    0.0000 S   0  0  0  0  0  0  0  0  0  0  0  0
  -10.0673    1.3504    0.0000 O   0  0  0  0  0  0  0  0  0  0  0  0
   -7.4790    2.8671    0.0000 O   0  0  0  0  0  0  0  0  0  0  0  0
   -9.5316    3.4029    0.0000 O   0  0  0  0  0  0  0  0  0  0  0  0
    0.2602   -3.0291    0.0000 C   0  0  0  0  0  0  0  0  0  0  0  0
    1.1497   -4.2369    0.0000 C   0  0  0  0  0  0  0  0  0  0  0  0
    2.5733   -3.7641    0.0000 C   0  0  0  0  0  0  0  0  0  0  0  0
    2.5636   -2.2642    0.0000 C   0  0  0  0  0  0  0  0  0  0  0  0
    3.6718   -1.2533    0.0000 C   0  0  0  0  0  0  0  0  0  0  0  0
    5.1013   -1.7076    0.0000 C   0  0  0  0  0  0  0  0  0  0  0  0
    6.2095   -0.6967    0.0000 C   0  0  0  0  0  0  0  0  0  0  0  0
    5.8882    0.7685    0.0000 C   0  0  0  0  0  0  0  0  0  0  0  0
    6.9964    1.7794    0.0000 C   0  0  0  0  0  0  0  0  0  0  0  0
    6.6751    3.2445    0.0000 C   0  0  0  0  0  0  0  0  0  0  0  0
    7.7833    4.2554    0.0000 O   0  0  0  0  0  0  0  0  0  0  0  0
    5.2455    3.6988    0.0000 C   0  0  0  0  0  0  0  0  0  0  0  0
    4.1373    2.6879    0.0000 C   0  0  0  0  0  0  0  0  0  0  0  0
    4.4586    1.2228    0.0000 C   0  0  0  0  0  0  0  0  0  0  0  0
    3.0291    1.6771    0.0000 C   0  0  0  0  0  0  0  0  0  0  0  0
    3.3504    0.2119    0.0000 C   0  0  0  0  0  0  0  0  0  0  0  0
    1.9209    0.6662    0.0000 C   0  0  0  0  0  0  0  0  0  0  0  0
    0.8127   -0.3447    0.0000 C   0  0  0  0  0  0  0  0  0  0  0  0
    1.1340   -1.8099    0.0000 C   0  0  0  0  0  0  0  0  0  0  0  0
   -0.3352   -1.5075    0.0000 C   0  0  0  0  0  0  0  0  0  0  0  0
  2  1  1  1
  2  3  1  0
  3  4  1  0
  4  5  1  0
  5  6  2  0
  5  7  1  0
  7  8  1  0
  8  9  1  0
  9 10  1  0
 10 11  2  0
 10 12  2  0
 10 13  1  0
  2 14  1  0
 14 15  1  6
 15 16  1  0
 17 16  1  6
 17 18  1  0
 18 19  1  1
 19 20  1  0
 21 20  1  6
 21 22  1  0
 22 23  1  0
 23 24  1  1
 23 25  1  0
 25 26  1  0
 26 27  1  0
 27 28  1  6
 27 29  1  0
 29 30  1  6
 30 31  1  0
 31 32  1  0
 32 33  1  6
 32 14  1  0
 32 17  1  0
 29 18  1  0
 27 21  1  0
M  END
>  <MS_ID>  (1573) 
MS1636

>  <SMILES>  (1573) 
C[C@@H](CCC(=O)NCCS(=O)(=O)O)[C@H]1CC[C@H]2[C@@H]3CC[C@H]4C[C@H](O)CC[C@]4(C)[C@H]3CC[C@]12C

>  <Structure_dimension>  (1573) 
2D

$$$$
MS1637
     RDKit          2D

 29 32  0  0  0  0  0  0  0  0999 V2000
   -5.1282   -1.8830    0.0000 C   0  0  0  0  0  0  0  0  0  0  0  0
   -3.9489   -0.9561    0.0000 C   0  0  0  0  0  0  0  0  0  0  0  0
   -4.1620    0.5287    0.0000 C   0  0  0  0  0  0  0  0  0  0  0  0
   -5.5544    1.0865    0.0000 C   0  0  0  0  0  0  0  0  0  0  0  0
   -5.7675    2.5713    0.0000 C   0  0  0  0  0  0  0  0  0  0  0  0
   -4.5882    3.4983    0.0000 O   0  0  0  0  0  0  0  0  0  0  0  0
   -7.1599    3.1292    0.0000 O   0  0  0  0  0  0  0  0  0  0  0  0
   -2.5565   -1.5139    0.0000 C   0  0  0  0  0  0  0  0  0  0  0  0
   -2.1893   -2.9683    0.0000 C   0  0  0  0  0  0  0  0  0  0  0  0
   -0.6927   -3.0686    0.0000 C   0  0  0  0  0  0  0  0  0  0  0  0
    0.1059   -4.3383    0.0000 O   0  0  0  0  0  0  0  0  0  0  0  0
   -0.1348   -1.6762    0.0000 C   0  0  0  0  0  0  0  0  0  0  0  0
    1.2732   -1.1590    0.0000 C   0  0  0  0  0  0  0  0  0  0  0  0
    2.4251   -2.1198    0.0000 C   0  0  0  0  0  0  0  0  0  0  0  0
    2.1689   -3.5978    0.0000 O   0  0  0  0  0  0  0  0  0  0  0  0
    3.8331   -1.6027    0.0000 C   0  0  0  0  0  0  0  0  0  0  0  0
    4.0893   -0.1247    0.0000 C   0  0  0  0  0  0  0  0  0  0  0  0
    5.4973    0.3924    0.0000 C   0  0  0  0  0  0  0  0  0  0  0  0
    5.7534    1.8704    0.0000 C   0  0  0  0  0  0  0  0  0  0  0  0
    7.1615    2.3875    0.0000 O   0  0  0  0  0  0  0  0  0  0  0  0
    4.6016    2.8312    0.0000 C   0  0  0  0  0  0  0  0  0  0  0  0
    3.1935    2.3141    0.0000 C   0  0  0  0  0  0  0  0  0  0  0  0
    2.9374    0.8361    0.0000 C   0  0  0  0  0  0  0  0  0  0  0  0
    1.7855    1.7969    0.0000 C   0  0  0  0  0  0  0  0  0  0  0  0
    1.5293    0.3190    0.0000 C   0  0  0  0  0  0  0  0  0  0  0  0
    0.3775    1.2798    0.0000 C   0  0  0  0  0  0  0  0  0  0  0  0
   -1.0306    0.7626    0.0000 C   0  0  0  0  0  0  0  0  0  0  0  0
   -1.2867   -0.7153    0.0000 C   0  0  0  0  0  0  0  0  0  0  0  0
   -2.5327    0.1198    0.0000 C   0  0  0  0  0  0  0  0  0  0  0  0
  2  1  1  6
  2  3  1  0
  3  4  1  0
  4  5  1  0
  5  6  2  0
  5  7  1  0
  2  8  1  0
  8  9  1  6
  9 10  1  0
 10 11  2  0
 12 10  1  6
 12 13  1  0
 13 14  1  1
 14 15  1  6
 14 16  1  0
 17 16  1  1
 17 18  1  0
 18 19  1  0
 19 20  1  1
 19 21  1  0
 21 22  1  0
 22 23  1  0
 23 24  1  6
 23 25  1  0
 25 26  1  6
 26 27  1  0
 27 28  1  0
 28 29  1  6
 28  8  1  0
 28 12  1  0
 25 13  1  0
 23 17  1  0
M  END
>  <MS_ID>  (1574) 
MS1637

>  <SMILES>  (1574) 
C[C@H](CCC(=O)O)[C@H]1CC(=O)[C@H]2[C@@H]3[C@@H](O)C[C@@H]4C[C@H](O)CC[C@]4(C)[C@H]3CC[C@]12C

>  <Structure_dimension>  (1574) 
2D

$$$$
MS1638
     RDKit          2D

 36 41  0  0  0  0  0  0  0  0999 V2000
   -7.5724   -0.7485    0.0000 C   0  0  0  0  0  0  0  0  0  0  0  0
   -6.1701   -0.2159    0.0000 C   0  0  0  0  0  0  0  0  0  0  0  0
   -5.9302    1.2648    0.0000 C   0  0  0  0  0  0  0  0  0  0  0  0
   -7.0926    2.2129    0.0000 C   0  0  0  0  0  0  0  0  0  0  0  0
   -6.8527    3.6936    0.0000 C   0  0  0  0  0  0  0  0  0  0  0  0
   -5.4504    4.2262    0.0000 O   0  0  0  0  0  0  0  0  0  0  0  0
   -8.0151    4.6417    0.0000 O   0  0  0  0  0  0  0  0  0  0  0  0
   -5.0078   -1.1640    0.0000 C   0  0  0  0  0  0  0  0  0  0  0  0
   -5.0916   -2.6616    0.0000 C   0  0  0  0  0  0  0  0  0  0  0  0
   -3.6931   -3.2042    0.0000 C   0  0  0  0  0  0  0  0  0  0  0  0
   -2.7450   -2.0418    0.0000 C   0  0  0  0  0  0  0  0  0  0  0  0
   -1.2468   -1.9686    0.0000 C   0  0  0  0  0  0  0  0  0  0  0  0
   -0.4343   -3.2295    0.0000 C   0  0  0  0  0  0  0  0  0  0  0  0
   -1.1200   -4.5636    0.0000 O   0  0  0  0  0  0  0  0  0  0  0  0
    1.0639   -3.1563    0.0000 C   0  0  0  0  0  0  0  0  0  0  0  0
    1.7496   -1.8222    0.0000 C   0  0  0  0  0  0  0  0  0  0  0  0
    3.2478   -1.7490    0.0000 C   0  0  0  0  0  0  0  0  0  0  0  0
    3.9336   -0.4149    0.0000 C   0  0  0  0  0  0  0  0  0  0  0  0
    5.4318   -0.3417    0.0000 C   0  0  0  0  0  0  0  0  0  0  0  0
    6.3716   -1.5107    0.0000 C   0  0  0  0  0  0  0  0  0  0  0  0
    7.7739   -0.9782    0.0000 N   0  0  0  0  0  0  0  0  0  0  0  0
    7.7007    0.5201    0.0000 C   0  0  0  0  0  0  0  0  0  0  0  0
    8.7651    1.5770    0.0000 C   0  0  0  0  0  0  0  0  0  0  0  0
    8.3820    3.0272    0.0000 C   0  0  0  0  0  0  0  0  0  0  0  0
    6.9345    3.4206    0.0000 C   0  0  0  0  0  0  0  0  0  0  0  0
    5.8701    2.3637    0.0000 C   0  0  0  0  0  0  0  0  0  0  0  0
    6.2532    0.9134    0.0000 C   0  0  0  0  0  0  0  0  0  0  0  0
    3.1211    0.8460    0.0000 C   0  0  0  0  0  0  0  0  0  0  0  0
    1.6228    0.7728    0.0000 C   0  0  0  0  0  0  0  0  0  0  0  0
    0.9371   -0.5613    0.0000 C   0  0  0  0  0  0  0  0  0  0  0  0
    0.1246    0.6996    0.0000 C   0  0  0  0  0  0  0  0  0  0  0  0
   -0.5611   -0.6345    0.0000 C   0  0  0  0  0  0  0  0  0  0  0  0
   -1.3736    0.6264    0.0000 C   0  0  0  0  0  0  0  0  0  0  0  0
   -2.8718    0.5532    0.0000 C   0  0  0  0  0  0  0  0  0  0  0  0
   -3.5575   -0.7809    0.0000 C   0  0  0  0  0  0  0  0  0  0  0  0
   -4.4974    0.3882    0.0000 C   0  0  0  0  0  0  0  0  0  0  0  0
  2  1  1  6
  2  3  1  0
  3  4  1  0
  4  5  1  0
  5  6  2  0
  5  7  1  0
  2  8  1  0
  8  9  1  6
  9 10  1  0
 11 10  1  6
 11 12  1  0
 12 13  1  1
 13 14  1  6
 13 15  1  0
 16 15  1  1
 16 17  1  0
 17 18  1  0
 18 19  1  1
 19 20  2  0
 20 21  1  0
 21 22  1  0
 22 23  2  0
 23 24  1  0
 24 25  2  0
 25 26  1  0
 26 27  2  0
 18 28  1  0
 28 29  1  0
 29 30  1  0
 30 31  1  6
 30 32  1  0
 32 33  1  6
 33 34  1  0
 34 35  1  0
 35 36  1  6
 35  8  1  0
 35 11  1  0
 32 12  1  0
 30 16  1  0
 27 19  1  0
 27 22  1  0
M  END
>  <MS_ID>  (1575) 
MS1638

>  <SMILES>  (1575) 
C[C@H](CCC(=O)O)[C@H]1CC[C@H]2[C@@H]3[C@@H](O)C[C@@H]4C[C@H](c5c[nH]c6ccccc56)CC[C@]4(C)[C@H]3CC[C@]12C

>  <Structure_dimension>  (1575) 
2D

$$$$
MS1639
     RDKit          2D

 32 35  0  0  0  0  0  0  0  0999 V2000
   -3.9305   -3.5211    0.0000 C   0  0  0  0  0  0  0  0  0  0  0  0
   -2.9800   -2.3607    0.0000 C   0  0  0  0  0  0  0  0  0  0  0  0
   -3.5096   -0.9573    0.0000 C   0  0  0  0  0  0  0  0  0  0  0  0
   -4.9898   -0.7144    0.0000 C   0  0  0  0  0  0  0  0  0  0  0  0
   -5.5195    0.6890    0.0000 C   0  0  0  0  0  0  0  0  0  0  0  0
   -6.9997    0.9320    0.0000 O   0  0  0  0  0  0  0  0  0  0  0  0
   -4.5690    1.8494    0.0000 O   0  0  0  0  0  0  0  0  0  0  0  0
   -5.0987    3.2528    0.0000 C   0  0  0  0  0  0  0  0  0  0  0  0
   -4.1482    4.4132    0.0000 N   0  0  0  0  0  0  0  0  0  0  0  0
   -6.5789    3.4957    0.0000 O   0  0  0  0  0  0  0  0  0  0  0  0
   -1.4998   -2.6036    0.0000 C   0  0  0  0  0  0  0  0  0  0  0  0
   -0.8263   -3.9440    0.0000 C   0  0  0  0  0  0  0  0  0  0  0  0
    0.6565   -3.7176    0.0000 C   0  0  0  0  0  0  0  0  0  0  0  0
    0.8995   -2.2374    0.0000 C   0  0  0  0  0  0  0  0  0  0  0  0
    2.1621   -1.4275    0.0000 C   0  0  0  0  0  0  0  0  0  0  0  0
    3.4947   -2.1160    0.0000 C   0  0  0  0  0  0  0  0  0  0  0  0
    3.5648   -3.6144    0.0000 O   0  0  0  0  0  0  0  0  0  0  0  0
    4.7573   -1.3061    0.0000 C   0  0  0  0  0  0  0  0  0  0  0  0
    4.6872    0.1922    0.0000 C   0  0  0  0  0  0  0  0  0  0  0  0
    5.9498    1.0021    0.0000 C   0  0  0  0  0  0  0  0  0  0  0  0
    5.8797    2.5005    0.0000 C   0  0  0  0  0  0  0  0  0  0  0  0
    7.1422    3.3104    0.0000 O   0  0  0  0  0  0  0  0  0  0  0  0
    4.5470    3.1890    0.0000 C   0  0  0  0  0  0  0  0  0  0  0  0
    3.2844    2.3791    0.0000 C   0  0  0  0  0  0  0  0  0  0  0  0
    3.3545    0.8807    0.0000 C   0  0  0  0  0  0  0  0  0  0  0  0
    2.0219    1.5692    0.0000 C   0  0  0  0  0  0  0  0  0  0  0  0
    2.0920    0.0708    0.0000 C   0  0  0  0  0  0  0  0  0  0  0  0
    0.7593    0.7593    0.0000 C   0  0  0  0  0  0  0  0  0  0  0  0
   -0.5033   -0.0506    0.0000 C   0  0  0  0  0  0  0  0  0  0  0  0
   -1.8359    0.6379    0.0000 O   0  0  0  0  0  0  0  0  0  0  0  0
   -0.4332   -1.5490    0.0000 C   0  0  0  0  0  0  0  0  0  0  0  0
   -1.8305   -1.0035    0.0000 C   0  0  0  0  0  0  0  0  0  0  0  0
  2  1  1  6
  2  3  1  0
  3  4  1  0
  4  5  1  0
  5  6  2  0
  5  7  1  0
  7  8  1  0
  8  9  1  0
  8 10  2  0
  2 11  1  0
 11 12  1  6
 12 13  1  0
 14 13  1  6
 14 15  1  0
 15 16  1  1
 16 17  1  1
 16 18  1  0
 19 18  1  1
 19 20  1  0
 20 21  1  0
 21 22  2  0
 21 23  1  0
 23 24  1  0
 24 25  1  0
 25 26  1  6
 25 27  1  0
 27 28  1  6
 28 29  1  0
 29 30  1  1
 29 31  1  0
 31 32  1  6
 31 11  1  0
 31 14  1  0
 27 15  1  0
 25 19  1  0
M  END
>  <MS_ID>  (1576) 
MS1639

>  <SMILES>  (1576) 
C[C@H](CCC(=O)OC(N)=O)[C@H]1CC[C@H]2[C@@H]3[C@H](O)C[C@@H]4CC(=O)CC[C@]4(C)[C@H]3C[C@H](O)[C@]12C

>  <Structure_dimension>  (1576) 
2D

$$$$
MS1640
     RDKit          2D

 33 36  0  0  0  0  0  0  0  0999 V2000
   -4.9937   -2.5658    0.0000 C   0  0  0  0  0  0  0  0  0  0  0  0
   -3.8392   -1.6082    0.0000 C   0  0  0  0  0  0  0  0  0  0  0  0
   -4.0912   -0.1295    0.0000 C   0  0  0  0  0  0  0  0  0  0  0  0
   -5.4978    0.3915    0.0000 C   0  0  0  0  0  0  0  0  0  0  0  0
   -5.7499    1.8702    0.0000 C   0  0  0  0  0  0  0  0  0  0  0  0
   -4.5953    2.8278    0.0000 O   0  0  0  0  0  0  0  0  0  0  0  0
   -7.1565    2.3913    0.0000 C   0  0  0  0  0  0  0  0  0  0  0  0
   -8.3110    1.4336    0.0000 O   0  0  0  0  0  0  0  0  0  0  0  0
   -7.4085    3.8699    0.0000 O   0  0  0  0  0  0  0  0  0  0  0  0
   -2.4326   -2.1292    0.0000 C   0  0  0  0  0  0  0  0  0  0  0  0
   -2.0273   -3.5734    0.0000 C   0  0  0  0  0  0  0  0  0  0  0  0
   -0.5286   -3.6343    0.0000 C   0  0  0  0  0  0  0  0  0  0  0  0
   -0.0075   -2.2277    0.0000 C   0  0  0  0  0  0  0  0  0  0  0  0
    1.3864   -1.6738    0.0000 C   0  0  0  0  0  0  0  0  0  0  0  0
    2.5632   -2.6040    0.0000 C   0  0  0  0  0  0  0  0  0  0  0  0
    2.3460   -4.0882    0.0000 O   0  0  0  0  0  0  0  0  0  0  0  0
    3.9571   -2.0500    0.0000 C   0  0  0  0  0  0  0  0  0  0  0  0
    4.1743   -0.5658    0.0000 C   0  0  0  0  0  0  0  0  0  0  0  0
    5.5683   -0.0118    0.0000 C   0  0  0  0  0  0  0  0  0  0  0  0
    5.7855    1.4724    0.0000 C   0  0  0  0  0  0  0  0  0  0  0  0
    7.1795    2.0263    0.0000 C   0  0  0  0  0  0  0  0  0  0  0  0
    7.3967    3.5105    0.0000 O   0  0  0  0  0  0  0  0  0  0  0  0
    8.3562    1.0961    0.0000 O   0  0  0  0  0  0  0  0  0  0  0  0
    4.6088    2.4026    0.0000 C   0  0  0  0  0  0  0  0  0  0  0  0
    3.2148    1.8486    0.0000 C   0  0  0  0  0  0  0  0  0  0  0  0
    2.9976    0.3644    0.0000 C   0  0  0  0  0  0  0  0  0  0  0  0
    1.8209    1.2946    0.0000 C   0  0  0  0  0  0  0  0  0  0  0  0
    1.6037   -0.1896    0.0000 C   0  0  0  0  0  0  0  0  0  0  0  0
    0.4269    0.7406    0.0000 C   0  0  0  0  0  0  0  0  0  0  0  0
   -0.9670    0.1867    0.0000 C   0  0  0  0  0  0  0  0  0  0  0  0
   -2.1438    1.1169    0.0000 O   0  0  0  0  0  0  0  0  0  0  0  0
   -1.1843   -1.2975    0.0000 C   0  0  0  0  0  0  0  0  0  0  0  0
   -2.4518   -0.4954    0.0000 C   0  0  0  0  0  0  0  0  0  0  0  0
  2  1  1  6
  2  3  1  0
  3  4  1  0
  4  5  1  0
  5  6  2  0
  5  7  1  0
  7  8  2  0
  7  9  1  0
  2 10  1  0
 10 11  1  6
 11 12  1  0
 13 12  1  6
 13 14  1  0
 14 15  1  1
 15 16  1  6
 15 17  1  0
 18 17  1  1
 18 19  1  0
 19 20  1  0
 20 21  1  1
 21 22  2  0
 21 23  1  0
 20 24  1  0
 24 25  1  0
 25 26  1  0
 26 27  1  6
 26 28  1  0
 28 29  1  6
 29 30  1  0
 30 31  1  1
 30 32  1  0
 32 33  1  6
 32 10  1  0
 32 13  1  0
 28 14  1  0
 26 18  1  0
M  END
>  <MS_ID>  (1577) 
MS1640

>  <SMILES>  (1577) 
C[C@H](CCC(=O)C(=O)O)[C@H]1CC[C@H]2[C@@H]3[C@@H](O)C[C@@H]4C[C@H](C(=O)O)CC[C@]4(C)[C@H]3C[C@H](O)[C@]12C

>  <Structure_dimension>  (1577) 
2D

$$$$
MS1641
     RDKit          2D

 39 43  0  0  0  0  0  0  0  0999 V2000
   -0.6608   -4.8801    0.0000 C   0  0  0  0  0  0  0  0  0  0  0  0
   -0.0594   -3.5059    0.0000 C   0  0  0  0  0  0  0  0  0  0  0  0
   -0.9487   -2.2980    0.0000 C   0  0  0  0  0  0  0  0  0  0  0  0
   -2.4395   -2.4642    0.0000 C   0  0  0  0  0  0  0  0  0  0  0  0
   -3.3288   -1.2563    0.0000 C   0  0  0  0  0  0  0  0  0  0  0  0
   -2.7274    0.1179    0.0000 O   0  0  0  0  0  0  0  0  0  0  0  0
   -4.8196   -1.4225    0.0000 O   0  0  0  0  0  0  0  0  0  0  0  0
   -5.7089   -0.2146    0.0000 C   0  0  0  0  0  0  0  0  0  0  0  0
   -5.1074    1.1596    0.0000 O   0  0  0  0  0  0  0  0  0  0  0  0
   -5.9968    2.3675    0.0000 C   0  0  0  0  0  0  0  0  0  0  0  0
   -5.3953    3.7417    0.0000 C   0  0  0  0  0  0  0  0  0  0  0  0
   -3.9046    3.9079    0.0000 O   0  0  0  0  0  0  0  0  0  0  0  0
   -7.4875    2.2013    0.0000 C   0  0  0  0  0  0  0  0  0  0  0  0
   -8.3768    3.4092    0.0000 O   0  0  0  0  0  0  0  0  0  0  0  0
   -8.0890    0.8272    0.0000 C   0  0  0  0  0  0  0  0  0  0  0  0
   -9.5797    0.6610    0.0000 O   0  0  0  0  0  0  0  0  0  0  0  0
   -7.1996   -0.3808    0.0000 C   0  0  0  0  0  0  0  0  0  0  0  0
   -7.8011   -1.7549    0.0000 O   0  0  0  0  0  0  0  0  0  0  0  0
    1.4314   -3.3397    0.0000 C   0  0  0  0  0  0  0  0  0  0  0  0
    2.4421   -4.4481    0.0000 C   0  0  0  0  0  0  0  0  0  0  0  0
    3.8085   -3.8293    0.0000 C   0  0  0  0  0  0  0  0  0  0  0  0
    3.6423   -2.3386    0.0000 C   0  0  0  0  0  0  0  0  0  0  0  0
    4.6390   -1.2176    0.0000 C   0  0  0  0  0  0  0  0  0  0  0  0
    6.1081   -1.5201    0.0000 C   0  0  0  0  0  0  0  0  0  0  0  0
    7.1048   -0.3991    0.0000 C   0  0  0  0  0  0  0  0  0  0  0  0
    6.6322    1.0245    0.0000 C   0  0  0  0  0  0  0  0  0  0  0  0
    7.6289    2.1455    0.0000 C   0  0  0  0  0  0  0  0  0  0  0  0
    7.1563    3.5692    0.0000 C   0  0  0  0  0  0  0  0  0  0  0  0
    8.1530    4.6902    0.0000 O   0  0  0  0  0  0  0  0  0  0  0  0
    5.6872    3.8718    0.0000 C   0  0  0  0  0  0  0  0  0  0  0  0
    4.6906    2.7507    0.0000 C   0  0  0  0  0  0  0  0  0  0  0  0
    5.1631    1.3271    0.0000 C   0  0  0  0  0  0  0  0  0  0  0  0
    3.6939    1.6297    0.0000 C   0  0  0  0  0  0  0  0  0  0  0  0
    4.1664    0.2061    0.0000 C   0  0  0  0  0  0  0  0  0  0  0  0
    2.6973    0.5087    0.0000 C   0  0  0  0  0  0  0  0  0  0  0  0
    1.7006   -0.6124    0.0000 C   0  0  0  0  0  0  0  0  0  0  0  0
    0.2315   -0.3098    0.0000 O   0  0  0  0  0  0  0  0  0  0  0  0
    2.1732   -2.0360    0.0000 C   0  0  0  0  0  0  0  0  0  0  0  0
    0.6804   -1.8886    0.0000 C   0  0  0  0  0  0  0  0  0  0  0  0
  2  1  1  6
  2  3  1  0
  3  4  1  0
  4  5  1  0
  5  6  2  0
  5  7  1  0
  8  7  1  6
  8  9  1  0
  9 10  1  0
 10 11  1  1
 11 12  1  0
 10 13  1  0
 13 14  1  6
 13 15  1  0
 15 16  1  1
 15 17  1  0
 17 18  1  1
  2 19  1  0
 19 20  1  6
 20 21  1  0
 22 21  1  6
 22 23  1  0
 23 24  1  1
 24 25  1  0
 26 25  1  1
 26 27  1  0
 27 28  1  0
 28 29  1  1
 28 30  1  0
 30 31  1  0
 31 32  1  0
 32 33  1  6
 32 34  1  0
 34 35  1  6
 35 36  1  0
 36 37  1  1
 36 38  1  0
 38 39  1  6
 17  8  1  0
 38 19  1  0
 38 22  1  0
 34 23  1  0
 32 26  1  0
M  END
>  <MS_ID>  (1578) 
MS1641

>  <SMILES>  (1578) 
C[C@H](CCC(=O)O[C@H]1O[C@H](CO)[C@@H](O)[C@H](O)[C@@H]1O)[C@H]1CC[C@H]2[C@@H]3CC[C@@H]4C[C@H](O)CC[C@]4(C)[C@H]3C[C@H](O)[C@]12C

>  <Structure_dimension>  (1578) 
2D

$$$$
MS1642
     RDKit          2D

 30 33  0  0  0  0  0  0  0  0999 V2000
   -3.4761   -3.6735    0.0000 C   0  0  0  0  0  0  0  0  0  0  0  0
   -2.6196   -2.4421    0.0000 C   0  0  0  0  0  0  0  0  0  0  0  0
   -3.2577   -1.0846    0.0000 C   0  0  0  0  0  0  0  0  0  0  0  0
   -4.7524   -0.9585    0.0000 C   0  0  0  0  0  0  0  0  0  0  0  0
   -5.3906    0.3989    0.0000 C   0  0  0  0  0  0  0  0  0  0  0  0
   -6.8853    0.5250    0.0000 O   0  0  0  0  0  0  0  0  0  0  0  0
   -4.5340    1.6303    0.0000 O   0  0  0  0  0  0  0  0  0  0  0  0
   -5.1722    2.9878    0.0000 C   0  0  0  0  0  0  0  0  0  0  0  0
   -6.6669    3.1139    0.0000 O   0  0  0  0  0  0  0  0  0  0  0  0
   -4.3156    4.2192    0.0000 O   0  0  0  0  0  0  0  0  0  0  0  0
   -1.1249   -2.5682    0.0000 C   0  0  0  0  0  0  0  0  0  0  0  0
   -0.3483   -3.8515    0.0000 C   0  0  0  0  0  0  0  0  0  0  0  0
    1.1122   -3.5096    0.0000 C   0  0  0  0  0  0  0  0  0  0  0  0
    1.2383   -2.0149    0.0000 C   0  0  0  0  0  0  0  0  0  0  0  0
    2.4334   -1.1084    0.0000 C   0  0  0  0  0  0  0  0  0  0  0  0
    3.8160   -1.6902    0.0000 C   0  0  0  0  0  0  0  0  0  0  0  0
    4.0034   -3.1785    0.0000 O   0  0  0  0  0  0  0  0  0  0  0  0
    5.0111   -0.7838    0.0000 C   0  0  0  0  0  0  0  0  0  0  0  0
    4.8237    0.7045    0.0000 C   0  0  0  0  0  0  0  0  0  0  0  0
    6.0188    1.6109    0.0000 C   0  0  0  0  0  0  0  0  0  0  0  0
    5.8314    3.0991    0.0000 C   0  0  0  0  0  0  0  0  0  0  0  0
    4.4488    3.6809    0.0000 C   0  0  0  0  0  0  0  0  0  0  0  0
    3.2537    2.7745    0.0000 C   0  0  0  0  0  0  0  0  0  0  0  0
    3.4411    1.2863    0.0000 C   0  0  0  0  0  0  0  0  0  0  0  0
    2.0585    1.8681    0.0000 C   0  0  0  0  0  0  0  0  0  0  0  0
    2.2460    0.3798    0.0000 C   0  0  0  0  0  0  0  0  0  0  0  0
    0.8634    0.9616    0.0000 C   0  0  0  0  0  0  0  0  0  0  0  0
   -0.3317    0.0552    0.0000 C   0  0  0  0  0  0  0  0  0  0  0  0
   -0.1443   -1.4331    0.0000 C   0  0  0  0  0  0  0  0  0  0  0  0
   -1.5801   -0.9990    0.0000 C   0  0  0  0  0  0  0  0  0  0  0  0
  2  1  1  6
  2  3  1  0
  3  4  1  0
  4  5  1  0
  5  6  2  0
  5  7  1  0
  7  8  1  0
  8  9  2  0
  8 10  1  0
  2 11  1  0
 11 12  1  6
 12 13  1  0
 14 13  1  6
 14 15  1  0
 15 16  1  1
 16 17  1  6
 16 18  1  0
 19 18  1  1
 19 20  1  0
 20 21  1  0
 21 22  1  0
 22 23  1  0
 23 24  1  0
 24 25  1  6
 24 26  1  0
 26 27  1  6
 27 28  1  0
 28 29  1  0
 29 30  1  6
 29 11  1  0
 29 14  1  0
 26 15  1  0
 24 19  1  0
M  END
>  <MS_ID>  (1579) 
MS1642

>  <SMILES>  (1579) 
C[C@H](CCC(=O)OC(=O)O)[C@H]1CC[C@H]2[C@@H]3[C@@H](O)C[C@@H]4CCCC[C@]4(C)[C@H]3CC[C@]12C

>  <Structure_dimension>  (1579) 
2D

$$$$
MS1643
     RDKit          2D

 30 33  0  0  0  0  0  0  0  0999 V2000
   -4.5685   -2.6908    0.0000 C   0  0  0  0  0  0  0  0  0  0  0  0
   -3.4838   -1.6548    0.0000 C   0  0  0  0  0  0  0  0  0  0  0  0
   -3.8388   -0.1974    0.0000 C   0  0  0  0  0  0  0  0  0  0  0  0
   -5.2784    0.2240    0.0000 C   0  0  0  0  0  0  0  0  0  0  0  0
   -5.6333    1.6814    0.0000 C   0  0  0  0  0  0  0  0  0  0  0  0
   -4.5486    2.7174    0.0000 O   0  0  0  0  0  0  0  0  0  0  0  0
   -7.0729    2.1027    0.0000 C   0  0  0  0  0  0  0  0  0  0  0  0
   -7.4279    3.5601    0.0000 O   0  0  0  0  0  0  0  0  0  0  0  0
   -2.0442   -2.0761    0.0000 C   0  0  0  0  0  0  0  0  0  0  0  0
   -1.5389   -3.4884    0.0000 C   0  0  0  0  0  0  0  0  0  0  0  0
   -0.0395   -3.4442    0.0000 C   0  0  0  0  0  0  0  0  0  0  0  0
    0.3818   -2.0046    0.0000 C   0  0  0  0  0  0  0  0  0  0  0  0
    1.7336   -1.3544    0.0000 C   0  0  0  0  0  0  0  0  0  0  0  0
    2.9725   -2.1999    0.0000 C   0  0  0  0  0  0  0  0  0  0  0  0
    2.8597   -3.6957    0.0000 O   0  0  0  0  0  0  0  0  0  0  0  0
    4.3243   -1.5497    0.0000 C   0  0  0  0  0  0  0  0  0  0  0  0
    4.4371   -0.0540    0.0000 C   0  0  0  0  0  0  0  0  0  0  0  0
    5.7888    0.5962    0.0000 C   0  0  0  0  0  0  0  0  0  0  0  0
    5.9016    2.0920    0.0000 C   0  0  0  0  0  0  0  0  0  0  0  0
    7.2534    2.7422    0.0000 O   0  0  0  0  0  0  0  0  0  0  0  0
    4.6627    2.9375    0.0000 C   0  0  0  0  0  0  0  0  0  0  0  0
    3.3109    2.2873    0.0000 C   0  0  0  0  0  0  0  0  0  0  0  0
    3.1981    0.7916    0.0000 C   0  0  0  0  0  0  0  0  0  0  0  0
    1.9591    1.6371    0.0000 C   0  0  0  0  0  0  0  0  0  0  0  0
    1.8464    0.1414    0.0000 C   0  0  0  0  0  0  0  0  0  0  0  0
    0.6074    0.9869    0.0000 C   0  0  0  0  0  0  0  0  0  0  0  0
   -0.7444    0.3367    0.0000 C   0  0  0  0  0  0  0  0  0  0  0  0
   -1.9833    1.1823    0.0000 O   0  0  0  0  0  0  0  0  0  0  0  0
   -0.8572   -1.1590    0.0000 C   0  0  0  0  0  0  0  0  0  0  0  0
   -2.1777   -0.4476    0.0000 C   0  0  0  0  0  0  0  0  0  0  0  0
  2  1  1  6
  2  3  1  0
  3  4  1  0
  4  5  1  0
  5  6  2  0
  5  7  1  0
  7  8  1  0
  2  9  1  0
  9 10  1  6
 10 11  1  0
 12 11  1  6
 12 13  1  0
 13 14  1  1
 14 15  1  6
 14 16  1  0
 17 16  1  1
 17 18  1  0
 18 19  1  0
 19 20  1  6
 19 21  1  0
 21 22  1  0
 22 23  1  0
 23 24  1  6
 23 25  1  0
 25 26  1  6
 26 27  1  0
 27 28  1  6
 27 29  1  0
 29 30  1  6
 29  9  1  0
 29 12  1  0
 25 13  1  0
 23 17  1  0
M  END
>  <MS_ID>  (1580) 
MS1643

>  <SMILES>  (1580) 
C[C@H](CCC(=O)CO)[C@H]1CC[C@H]2[C@@H]3[C@@H](O)C[C@@H]4C[C@@H](O)CC[C@]4(C)[C@H]3C[C@@H](O)[C@]12C

>  <Structure_dimension>  (1580) 
2D

$$$$
MS1644
     RDKit          2D

 30 33  0  0  0  0  0  0  0  0999 V2000
   -5.0361   -2.2421    0.0000 C   0  0  0  0  0  0  0  0  0  0  0  0
   -3.9151   -1.2454    0.0000 C   0  0  0  0  0  0  0  0  0  0  0  0
   -4.2177    0.2237    0.0000 C   0  0  0  0  0  0  0  0  0  0  0  0
   -5.6413    0.6963    0.0000 C   0  0  0  0  0  0  0  0  0  0  0  0
   -5.9439    2.1654    0.0000 C   0  0  0  0  0  0  0  0  0  0  0  0
   -4.8228    3.1621    0.0000 O   0  0  0  0  0  0  0  0  0  0  0  0
   -7.3675    2.6380    0.0000 O   0  0  0  0  0  0  0  0  0  0  0  0
   -2.4915   -1.7180    0.0000 C   0  0  0  0  0  0  0  0  0  0  0  0
   -2.0370   -3.1475    0.0000 C   0  0  0  0  0  0  0  0  0  0  0  0
   -0.5370   -3.1570    0.0000 C   0  0  0  0  0  0  0  0  0  0  0  0
   -0.0645   -1.7333    0.0000 C   0  0  0  0  0  0  0  0  0  0  0  0
    1.3097   -1.1319    0.0000 C   0  0  0  0  0  0  0  0  0  0  0  0
    2.5176   -2.0213    0.0000 C   0  0  0  0  0  0  0  0  0  0  0  0
    2.3514   -3.5120    0.0000 O   0  0  0  0  0  0  0  0  0  0  0  0
    3.5593   -4.4014    0.0000 S   0  0  0  0  0  0  0  0  0  0  0  0
    3.8918   -1.4198    0.0000 C   0  0  0  0  0  0  0  0  0  0  0  0
    4.0580    0.0709    0.0000 C   0  0  0  0  0  0  0  0  0  0  0  0
    5.4321    0.6723    0.0000 C   0  0  0  0  0  0  0  0  0  0  0  0
    5.5984    2.1631    0.0000 C   0  0  0  0  0  0  0  0  0  0  0  0
    6.9725    2.7645    0.0000 O   0  0  0  0  0  0  0  0  0  0  0  0
    4.3904    3.0524    0.0000 C   0  0  0  0  0  0  0  0  0  0  0  0
    3.0163    2.4510    0.0000 C   0  0  0  0  0  0  0  0  0  0  0  0
    2.8501    0.9603    0.0000 C   0  0  0  0  0  0  0  0  0  0  0  0
    1.6421    1.8496    0.0000 C   0  0  0  0  0  0  0  0  0  0  0  0
    1.4759    0.3588    0.0000 C   0  0  0  0  0  0  0  0  0  0  0  0
    0.2680    1.2482    0.0000 C   0  0  0  0  0  0  0  0  0  0  0  0
   -1.1062    0.6468    0.0000 C   0  0  0  0  0  0  0  0  0  0  0  0
   -2.3141    1.5361    0.0000 O   0  0  0  0  0  0  0  0  0  0  0  0
   -1.2724   -0.8440    0.0000 C   0  0  0  0  0  0  0  0  0  0  0  0
   -2.5667   -0.0858    0.0000 C   0  0  0  0  0  0  0  0  0  0  0  0
  2  1  1  6
  2  3  1  0
  3  4  1  0
  4  5  1  0
  5  6  2  0
  5  7  1  0
  2  8  1  0
  8  9  1  6
  9 10  1  0
 11 10  1  6
 11 12  1  0
 12 13  1  1
 13 14  1  1
 14 15  1  0
 13 16  1  0
 17 16  1  1
 17 18  1  0
 18 19  1  0
 19 20  1  1
 19 21  1  0
 21 22  1  0
 22 23  1  0
 23 24  1  6
 23 25  1  0
 25 26  1  6
 26 27  1  0
 27 28  1  1
 27 29  1  0
 29 30  1  6
 29  8  1  0
 29 11  1  0
 25 12  1  0
 23 17  1  0
M  END
>  <MS_ID>  (1581) 
MS1644

>  <SMILES>  (1581) 
C[C@H](CCC(=O)O)[C@H]1CC[C@H]2[C@@H]3[C@H](OS)C[C@@H]4C[C@H](O)CC[C@]4(C)[C@H]3C[C@H](O)[C@]12C

>  <Structure_dimension>  (1581) 
2D

$$$$
MS1645
     RDKit          2D

 37 41  0  0  0  0  0  0  0  0999 V2000
   -2.2101   -3.2919    0.0000 C   0  0  0  0  0  0  0  0  0  0  0  0
   -1.2458   -2.1430    0.0000 C   0  0  0  0  0  0  0  0  0  0  0  0
   -1.7586   -0.7334    0.0000 C   0  0  0  0  0  0  0  0  0  0  0  0
   -3.2358   -0.4727    0.0000 C   0  0  0  0  0  0  0  0  0  0  0  0
   -3.7487    0.9369    0.0000 C   0  0  0  0  0  0  0  0  0  0  0  0
   -2.7843    2.0858    0.0000 O   0  0  0  0  0  0  0  0  0  0  0  0
   -5.2258    1.1975    0.0000 N   0  0  0  0  0  0  0  0  0  0  0  0
   -5.7387    2.6071    0.0000 C   0  0  0  0  0  0  0  0  0  0  0  0
   -6.1902    0.0486    0.0000 C   0  0  0  0  0  0  0  0  0  0  0  0
   -7.6673    0.3092    0.0000 C   0  0  0  0  0  0  0  0  0  0  0  0
   -8.1802    1.7188    0.0000 C   0  0  0  0  0  0  0  0  0  0  0  0
   -9.6574    1.9795    0.0000 C   0  0  0  0  0  0  0  0  0  0  0  0
  -10.6217    0.8305    0.0000 C   0  0  0  0  0  0  0  0  0  0  0  0
  -10.1088   -0.5791    0.0000 C   0  0  0  0  0  0  0  0  0  0  0  0
   -8.6317   -0.8397    0.0000 C   0  0  0  0  0  0  0  0  0  0  0  0
    0.2314   -2.4036    0.0000 C   0  0  0  0  0  0  0  0  0  0  0  0
    0.8888   -3.7519    0.0000 C   0  0  0  0  0  0  0  0  0  0  0  0
    2.3742   -3.5433    0.0000 C   0  0  0  0  0  0  0  0  0  0  0  0
    2.6349   -2.0661    0.0000 C   0  0  0  0  0  0  0  0  0  0  0  0
    3.9071   -1.2714    0.0000 C   0  0  0  0  0  0  0  0  0  0  0  0
    5.2314   -1.9758    0.0000 C   0  0  0  0  0  0  0  0  0  0  0  0
    5.2836   -3.4749    0.0000 O   0  0  0  0  0  0  0  0  0  0  0  0
    6.5036   -1.1810    0.0000 C   0  0  0  0  0  0  0  0  0  0  0  0
    6.4514    0.3180    0.0000 C   0  0  0  0  0  0  0  0  0  0  0  0
    7.7236    1.1128    0.0000 C   0  0  0  0  0  0  0  0  0  0  0  0
    7.6714    2.6119    0.0000 C   0  0  0  0  0  0  0  0  0  0  0  0
    8.9436    3.4066    0.0000 O   0  0  0  0  0  0  0  0  0  0  0  0
    6.3471    3.3162    0.0000 C   0  0  0  0  0  0  0  0  0  0  0  0
    5.0749    2.5215    0.0000 C   0  0  0  0  0  0  0  0  0  0  0  0
    5.1271    1.0224    0.0000 C   0  0  0  0  0  0  0  0  0  0  0  0
    3.8027    1.7268    0.0000 C   0  0  0  0  0  0  0  0  0  0  0  0
    3.8549    0.2277    0.0000 C   0  0  0  0  0  0  0  0  0  0  0  0
    2.5306    0.9321    0.0000 C   0  0  0  0  0  0  0  0  0  0  0  0
    1.2584    0.1373    0.0000 C   0  0  0  0  0  0  0  0  0  0  0  0
   -0.0659    0.8417    0.0000 O   0  0  0  0  0  0  0  0  0  0  0  0
    1.3106   -1.3618    0.0000 C   0  0  0  0  0  0  0  0  0  0  0  0
   -0.0801   -0.7997    0.0000 C   0  0  0  0  0  0  0  0  0  0  0  0
  2  1  1  6
  2  3  1  0
  3  4  1  0
  4  5  1  0
  5  6  2  0
  5  7  1  0
  7  8  1  0
  7  9  1  0
  9 10  1  0
 10 11  2  0
 11 12  1  0
 12 13  2  0
 13 14  1  0
 14 15  2  0
  2 16  1  0
 16 17  1  6
 17 18  1  0
 19 18  1  6
 19 20  1  0
 20 21  1  1
 21 22  1  1
 21 23  1  0
 24 23  1  1
 24 25  1  0
 25 26  1  0
 26 27  1  1
 26 28  1  0
 28 29  1  0
 29 30  1  0
 30 31  1  6
 30 32  1  0
 32 33  1  6
 33 34  1  0
 34 35  1  1
 34 36  1  0
 36 37  1  6
 15 10  1  0
 36 16  1  0
 36 19  1  0
 32 20  1  0
 30 24  1  0
M  END
>  <MS_ID>  (1582) 
MS1645

>  <SMILES>  (1582) 
C[C@H](CCC(=O)N(C)Cc1ccccc1)[C@H]1CC[C@H]2[C@@H]3[C@H](O)C[C@@H]4C[C@H](O)CC[C@]4(C)[C@H]3C[C@H](O)[C@]12C

>  <Structure_dimension>  (1582) 
2D

$$$$
MS1646
     RDKit          2D

 34 38  0  0  0  0  0  0  0  0999 V2000
   -2.1707   -4.0134    0.0000 C   0  0  0  0  0  0  0  0  0  0  0  0
   -1.3404   -2.7642    0.0000 C   0  0  0  0  0  0  0  0  0  0  0  0
   -2.0072   -1.4205    0.0000 C   0  0  0  0  0  0  0  0  0  0  0  0
   -3.5043   -1.3261    0.0000 C   0  0  0  0  0  0  0  0  0  0  0  0
   -4.1711    0.0175    0.0000 C   0  0  0  0  0  0  0  0  0  0  0  0
   -3.3408    1.2668    0.0000 O   0  0  0  0  0  0  0  0  0  0  0  0
   -5.6681    0.1119    0.0000 C   0  0  0  0  0  0  0  0  0  0  0  0
   -6.3349    1.4555    0.0000 C   0  0  0  0  0  0  0  0  0  0  0  0
   -7.8319    1.5499    0.0000 N   0  0  0  0  0  0  0  0  0  0  0  0
   -8.7882    0.3942    0.0000 C   0  0  0  0  0  0  0  0  0  0  0  0
  -10.1828    0.9466    0.0000 C   0  0  0  0  0  0  0  0  0  0  0  0
  -10.0884    2.4436    0.0000 N   0  0  0  0  0  0  0  0  0  0  0  0
   -8.6355    2.8165    0.0000 C   0  0  0  0  0  0  0  0  0  0  0  0
    0.1566   -2.8585    0.0000 C   0  0  0  0  0  0  0  0  0  0  0  0
    0.9602   -4.1251    0.0000 C   0  0  0  0  0  0  0  0  0  0  0  0
    2.4131   -3.7522    0.0000 C   0  0  0  0  0  0  0  0  0  0  0  0
    2.5075   -2.2552    0.0000 C   0  0  0  0  0  0  0  0  0  0  0  0
    3.6831   -1.3236    0.0000 C   0  0  0  0  0  0  0  0  0  0  0  0
    5.0777   -1.8760    0.0000 C   0  0  0  0  0  0  0  0  0  0  0  0
    6.2534   -0.9444    0.0000 C   0  0  0  0  0  0  0  0  0  0  0  0
    6.0344    0.5395    0.0000 C   0  0  0  0  0  0  0  0  0  0  0  0
    7.2101    1.4711    0.0000 C   0  0  0  0  0  0  0  0  0  0  0  0
    6.9911    2.9550    0.0000 C   0  0  0  0  0  0  0  0  0  0  0  0
    8.1668    3.8866    0.0000 O   0  0  0  0  0  0  0  0  0  0  0  0
    5.5965    3.5074    0.0000 C   0  0  0  0  0  0  0  0  0  0  0  0
    4.4209    2.5758    0.0000 C   0  0  0  0  0  0  0  0  0  0  0  0
    4.6398    1.0919    0.0000 C   0  0  0  0  0  0  0  0  0  0  0  0
    3.2452    1.6442    0.0000 C   0  0  0  0  0  0  0  0  0  0  0  0
    3.4642    0.1603    0.0000 C   0  0  0  0  0  0  0  0  0  0  0  0
    2.0696    0.7127    0.0000 C   0  0  0  0  0  0  0  0  0  0  0  0
    0.8939   -0.2189    0.0000 C   0  0  0  0  0  0  0  0  0  0  0  0
   -0.5007    0.3334    0.0000 O   0  0  0  0  0  0  0  0  0  0  0  0
    1.1129   -1.7029    0.0000 C   0  0  0  0  0  0  0  0  0  0  0  0
   -0.3318   -1.2993    0.0000 C   0  0  0  0  0  0  0  0  0  0  0  0
  2  1  1  6
  2  3  1  0
  3  4  1  0
  4  5  1  0
  5  6  2  0
  5  7  1  0
  7  8  1  0
  8  9  1  0
  9 10  1  0
 10 11  2  0
 11 12  1  0
 12 13  2  0
  2 14  1  0
 14 15  1  6
 15 16  1  0
 17 16  1  6
 17 18  1  0
 18 19  1  1
 19 20  1  0
 21 20  1  1
 21 22  1  0
 22 23  1  0
 23 24  1  1
 23 25  1  0
 25 26  1  0
 26 27  1  0
 27 28  1  6
 27 29  1  0
 29 30  1  6
 30 31  1  0
 31 32  1  1
 31 33  1  0
 33 34  1  6
 13  9  1  0
 33 14  1  0
 33 17  1  0
 29 18  1  0
 27 21  1  0
M  END
>  <MS_ID>  (1583) 
MS1646

>  <SMILES>  (1583) 
C[C@H](CCC(=O)CCn1ccnc1)[C@H]1CC[C@H]2[C@@H]3CC[C@@H]4C[C@H](O)CC[C@]4(C)[C@H]3C[C@H](O)[C@]12C

>  <Structure_dimension>  (1583) 
2D

$$$$
MS1647
     RDKit          2D

 28 31  0  0  0  0  0  0  0  0999 V2000
   -5.0096   -2.1352    0.0000 C   0  0  0  0  0  0  0  0  0  0  0  0
   -3.8132   -1.2303    0.0000 C   0  0  0  0  0  0  0  0  0  0  0  0
   -3.9987    0.2582    0.0000 C   0  0  0  0  0  0  0  0  0  0  0  0
   -5.3805    0.8418    0.0000 C   0  0  0  0  0  0  0  0  0  0  0  0
   -5.5659    2.3303    0.0000 C   0  0  0  0  0  0  0  0  0  0  0  0
   -4.3695    3.2351    0.0000 O   0  0  0  0  0  0  0  0  0  0  0  0
   -6.9477    2.9140    0.0000 O   0  0  0  0  0  0  0  0  0  0  0  0
   -2.4315   -1.8140    0.0000 C   0  0  0  0  0  0  0  0  0  0  0  0
   -2.0914   -3.2749    0.0000 C   0  0  0  0  0  0  0  0  0  0  0  0
   -0.5969   -3.4030    0.0000 C   0  0  0  0  0  0  0  0  0  0  0  0
   -0.0133   -2.0212    0.0000 C   0  0  0  0  0  0  0  0  0  0  0  0
    1.4041   -1.5304    0.0000 C   0  0  0  0  0  0  0  0  0  0  0  0
    2.5379   -2.5125    0.0000 C   0  0  0  0  0  0  0  0  0  0  0  0
    3.9554   -2.0216    0.0000 C   0  0  0  0  0  0  0  0  0  0  0  0
    4.2390   -0.5487    0.0000 C   0  0  0  0  0  0  0  0  0  0  0  0
    5.6564   -0.0578    0.0000 C   0  0  0  0  0  0  0  0  0  0  0  0
    5.9400    1.4151    0.0000 C   0  0  0  0  0  0  0  0  0  0  0  0
    7.3574    1.9060    0.0000 S   0  0  0  0  0  0  0  0  0  0  0  0
    4.8062    2.3972    0.0000 C   0  0  0  0  0  0  0  0  0  0  0  0
    3.3888    1.9064    0.0000 C   0  0  0  0  0  0  0  0  0  0  0  0
    3.1052    0.4334    0.0000 C   0  0  0  0  0  0  0  0  0  0  0  0
    1.9714    1.4155    0.0000 C   0  0  0  0  0  0  0  0  0  0  0  0
    1.6878   -0.0574    0.0000 C   0  0  0  0  0  0  0  0  0  0  0  0
    0.5540    0.9246    0.0000 C   0  0  0  0  0  0  0  0  0  0  0  0
   -0.8635    0.4338    0.0000 C   0  0  0  0  0  0  0  0  0  0  0  0
   -1.9973    1.4159    0.0000 O   0  0  0  0  0  0  0  0  0  0  0  0
   -1.1471   -1.0392    0.0000 C   0  0  0  0  0  0  0  0  0  0  0  0
   -2.3773   -0.1810    0.0000 C   0  0  0  0  0  0  0  0  0  0  0  0
  2  1  1  6
  2  3  1  0
  3  4  1  0
  4  5  1  0
  5  6  2  0
  5  7  1  0
  2  8  1  0
  8  9  1  6
  9 10  1  0
 11 10  1  6
 11 12  1  0
 12 13  1  1
 13 14  1  0
 15 14  1  1
 15 16  1  0
 16 17  1  0
 17 18  1  1
 17 19  1  0
 19 20  1  0
 20 21  1  0
 21 22  1  6
 21 23  1  0
 23 24  1  6
 24 25  1  0
 25 26  1  6
 25 27  1  0
 27 28  1  6
 27  8  1  0
 27 11  1  0
 23 12  1  0
 21 15  1  0
M  END
>  <MS_ID>  (1584) 
MS1647

>  <SMILES>  (1584) 
C[C@H](CCC(=O)O)[C@H]1CC[C@H]2[C@@H]3CC[C@@H]4C[C@H](S)CC[C@]4(C)[C@H]3C[C@@H](O)[C@]12C

>  <Structure_dimension>  (1584) 
2D

$$$$
MS1648
     RDKit          2D

 35 38  0  0  0  0  0  0  0  0999 V2000
   -1.1848   -4.5684    0.0000 C   0  0  0  0  0  0  0  0  0  0  0  0
   -0.5815   -3.1951    0.0000 C   0  0  0  0  0  0  0  0  0  0  0  0
   -1.4692   -1.9860    0.0000 C   0  0  0  0  0  0  0  0  0  0  0  0
   -2.9602   -2.1502    0.0000 C   0  0  0  0  0  0  0  0  0  0  0  0
   -3.8478   -0.9410    0.0000 C   0  0  0  0  0  0  0  0  0  0  0  0
   -3.2445    0.4323    0.0000 O   0  0  0  0  0  0  0  0  0  0  0  0
   -5.3388   -1.1052    0.0000 O   0  0  0  0  0  0  0  0  0  0  0  0
   -6.2265    0.1039    0.0000 C   0  0  0  0  0  0  0  0  0  0  0  0
   -7.7175   -0.0603    0.0000 C   0  0  0  0  0  0  0  0  0  0  0  0
   -8.6052    1.1489    0.0000 O   0  0  0  0  0  0  0  0  0  0  0  0
  -10.0962    0.9847    0.0000 C   0  0  0  0  0  0  0  0  0  0  0  0
  -10.9839    2.1938    0.0000 C   0  0  0  0  0  0  0  0  0  0  0  0
  -10.3806    3.5672    0.0000 O   0  0  0  0  0  0  0  0  0  0  0  0
  -12.4748    2.0297    0.0000 O   0  0  0  0  0  0  0  0  0  0  0  0
    0.9095   -3.0309    0.0000 C   0  0  0  0  0  0  0  0  0  0  0  0
    1.9187   -4.1407    0.0000 C   0  0  0  0  0  0  0  0  0  0  0  0
    3.2860   -3.5238    0.0000 C   0  0  0  0  0  0  0  0  0  0  0  0
    3.1218   -2.0328    0.0000 C   0  0  0  0  0  0  0  0  0  0  0  0
    4.1199   -0.9131    0.0000 C   0  0  0  0  0  0  0  0  0  0  0  0
    5.5887   -1.2177    0.0000 C   0  0  0  0  0  0  0  0  0  0  0  0
    6.0593   -2.6420    0.0000 O   0  0  0  0  0  0  0  0  0  0  0  0
    6.5869   -0.0980    0.0000 C   0  0  0  0  0  0  0  0  0  0  0  0
    6.1163    1.3263    0.0000 C   0  0  0  0  0  0  0  0  0  0  0  0
    7.1144    2.4459    0.0000 C   0  0  0  0  0  0  0  0  0  0  0  0
    6.6438    3.8702    0.0000 C   0  0  0  0  0  0  0  0  0  0  0  0
    7.6420    4.9899    0.0000 O   0  0  0  0  0  0  0  0  0  0  0  0
    5.1751    4.1748    0.0000 C   0  0  0  0  0  0  0  0  0  0  0  0
    4.1769    3.0551    0.0000 C   0  0  0  0  0  0  0  0  0  0  0  0
    4.6475    1.6309    0.0000 C   0  0  0  0  0  0  0  0  0  0  0  0
    3.1788    1.9354    0.0000 C   0  0  0  0  0  0  0  0  0  0  0  0
    3.6494    0.5112    0.0000 C   0  0  0  0  0  0  0  0  0  0  0  0
    2.1806    0.8158    0.0000 C   0  0  0  0  0  0  0  0  0  0  0  0
    1.1825   -0.3039    0.0000 C   0  0  0  0  0  0  0  0  0  0  0  0
    1.6530   -1.7282    0.0000 C   0  0  0  0  0  0  0  0  0  0  0  0
    0.1605   -1.5788    0.0000 C   0  0  0  0  0  0  0  0  0  0  0  0
  2  1  1  6
  2  3  1  0
  3  4  1  0
  4  5  1  0
  5  6  2  0
  5  7  1  0
  7  8  1  0
  8  9  1  0
  9 10  1  0
 10 11  1  0
 11 12  1  0
 12 13  2  0
 12 14  1  0
  2 15  1  0
 15 16  1  6
 16 17  1  0
 18 17  1  6
 18 19  1  0
 19 20  1  1
 20 21  1  6
 20 22  1  0
 23 22  1  1
 23 24  1  0
 24 25  1  0
 25 26  1  1
 25 27  1  0
 27 28  1  0
 28 29  1  0
 29 30  1  6
 29 31  1  0
 31 32  1  6
 32 33  1  0
 33 34  1  0
 34 35  1  6
 34 15  1  0
 34 18  1  0
 31 19  1  0
 29 23  1  0
M  END
>  <MS_ID>  (1585) 
MS1648

>  <SMILES>  (1585) 
C[C@H](CCC(=O)OCCOCC(=O)O)[C@H]1CC[C@H]2[C@@H]3[C@@H](O)C[C@@H]4C[C@H](O)CC[C@]4(C)[C@H]3CC[C@]12C

>  <Structure_dimension>  (1585) 
2D

$$$$
MS1649
     RDKit          2D

 32 35  0  0  0  0  0  0  0  0999 V2000
   -6.3148   -1.8053    0.0000 C   0  0  0  0  0  0  0  0  0  0  0  0
   -5.0840   -0.9480    0.0000 C   0  0  0  0  0  0  0  0  0  0  0  0
   -5.2110    0.5466    0.0000 C   0  0  0  0  0  0  0  0  0  0  0  0
   -6.5688    1.1840    0.0000 C   0  0  0  0  0  0  0  0  0  0  0  0
   -6.6958    2.6786    0.0000 C   0  0  0  0  0  0  0  0  0  0  0  0
   -5.4650    3.5359    0.0000 O   0  0  0  0  0  0  0  0  0  0  0  0
   -8.0537    3.3159    0.0000 O   0  0  0  0  0  0  0  0  0  0  0  0
   -3.7261   -1.5853    0.0000 C   0  0  0  0  0  0  0  0  0  0  0  0
   -3.4436   -3.0584    0.0000 C   0  0  0  0  0  0  0  0  0  0  0  0
   -1.9552   -3.2450    0.0000 C   0  0  0  0  0  0  0  0  0  0  0  0
   -1.3179   -1.8871    0.0000 C   0  0  0  0  0  0  0  0  0  0  0  0
    0.1177   -1.4521    0.0000 C   0  0  0  0  0  0  0  0  0  0  0  0
    1.2121   -2.4779    0.0000 C   0  0  0  0  0  0  0  0  0  0  0  0
    0.8711   -3.9386    0.0000 O   0  0  0  0  0  0  0  0  0  0  0  0
    2.6477   -2.0429    0.0000 C   0  0  0  0  0  0  0  0  0  0  0  0
    2.9888   -0.5822    0.0000 C   0  0  0  0  0  0  0  0  0  0  0  0
    4.4243   -0.1472    0.0000 C   0  0  0  0  0  0  0  0  0  0  0  0
    4.7654    1.3135    0.0000 C   0  0  0  0  0  0  0  0  0  0  0  0
    6.2009    1.7485    0.0000 O   0  0  0  0  0  0  0  0  0  0  0  0
    7.2954    0.7227    0.0000 S   0  0  0  0  0  0  0  0  0  0  0  0
    8.3899   -0.3030    0.0000 O   0  0  0  0  0  0  0  0  0  0  0  0
    8.3211    1.8172    0.0000 O   0  0  0  0  0  0  0  0  0  0  0  0
    6.2697   -0.3717    0.0000 Cl  0  0  0  0  0  0  0  0  0  0  0  0
    3.6709    2.3392    0.0000 C   0  0  0  0  0  0  0  0  0  0  0  0
    2.2354    1.9043    0.0000 C   0  0  0  0  0  0  0  0  0  0  0  0
    1.8943    0.4436    0.0000 C   0  0  0  0  0  0  0  0  0  0  0  0
    0.7998    1.4693    0.0000 C   0  0  0  0  0  0  0  0  0  0  0  0
    0.4587    0.0086    0.0000 C   0  0  0  0  0  0  0  0  0  0  0  0
   -0.6357    1.0343    0.0000 C   0  0  0  0  0  0  0  0  0  0  0  0
   -2.0713    0.5993    0.0000 C   0  0  0  0  0  0  0  0  0  0  0  0
   -2.4123   -0.8614    0.0000 C   0  0  0  0  0  0  0  0  0  0  0  0
   -3.6080    0.0444    0.0000 C   0  0  0  0  0  0  0  0  0  0  0  0
  2  1  1  6
  2  3  1  0
  3  4  1  0
  4  5  1  0
  5  6  2  0
  5  7  1  0
  2  8  1  0
  8  9  1  6
  9 10  1  0
 11 10  1  6
 11 12  1  0
 12 13  1  1
 13 14  1  1
 13 15  1  0
 16 15  1  1
 16 17  1  0
 17 18  1  0
 18 19  1  1
 19 20  1  0
 20 21  2  0
 20 22  2  0
 20 23  1  0
 18 24  1  0
 24 25  1  0
 25 26  1  0
 26 27  1  6
 26 28  1  0
 28 29  1  6
 29 30  1  0
 30 31  1  0
 31 32  1  6
 31  8  1  0
 31 11  1  0
 28 12  1  0
 26 16  1  0
M  END
>  <MS_ID>  (1586) 
MS1649

>  <SMILES>  (1586) 
C[C@H](CCC(=O)O)[C@H]1CC[C@H]2[C@@H]3[C@H](O)C[C@@H]4C[C@H](OS(=O)(=O)Cl)CC[C@]4(C)[C@H]3CC[C@]12C

>  <Structure_dimension>  (1586) 
2D

$$$$
MS1650
     RDKit          2D

 29 32  0  0  0  0  0  0  0  0999 V2000
   -5.2401   -2.0328    0.0000 C   0  0  0  0  0  0  0  0  0  0  0  0
   -4.0410   -1.1316    0.0000 C   0  0  0  0  0  0  0  0  0  0  0  0
   -4.2220    0.3575    0.0000 C   0  0  0  0  0  0  0  0  0  0  0  0
   -5.6020    0.9453    0.0000 C   0  0  0  0  0  0  0  0  0  0  0  0
   -5.7830    2.4343    0.0000 C   0  0  0  0  0  0  0  0  0  0  0  0
   -4.5839    3.3355    0.0000 O   0  0  0  0  0  0  0  0  0  0  0  0
   -7.1630    3.0221    0.0000 O   0  0  0  0  0  0  0  0  0  0  0  0
   -2.6610   -1.7194    0.0000 C   0  0  0  0  0  0  0  0  0  0  0  0
   -2.3254   -3.1813    0.0000 C   0  0  0  0  0  0  0  0  0  0  0  0
   -0.8312   -3.3139    0.0000 C   0  0  0  0  0  0  0  0  0  0  0  0
   -0.2434   -1.9339    0.0000 C   0  0  0  0  0  0  0  0  0  0  0  0
    1.1754   -1.4473    0.0000 C   0  0  0  0  0  0  0  0  0  0  0  0
    2.3063   -2.4327    0.0000 C   0  0  0  0  0  0  0  0  0  0  0  0
    2.0183   -3.9048    0.0000 O   0  0  0  0  0  0  0  0  0  0  0  0
    3.7252   -1.9461    0.0000 C   0  0  0  0  0  0  0  0  0  0  0  0
    4.0132   -0.4740    0.0000 C   0  0  0  0  0  0  0  0  0  0  0  0
    5.4321    0.0126    0.0000 C   0  0  0  0  0  0  0  0  0  0  0  0
    5.7201    1.4846    0.0000 C   0  0  0  0  0  0  0  0  0  0  0  0
    7.1390    1.9713    0.0000 O   0  0  0  0  0  0  0  0  0  0  0  0
    4.5892    2.4701    0.0000 C   0  0  0  0  0  0  0  0  0  0  0  0
    3.1704    1.9835    0.0000 C   0  0  0  0  0  0  0  0  0  0  0  0
    2.8823    0.5114    0.0000 C   0  0  0  0  0  0  0  0  0  0  0  0
    1.7515    1.4969    0.0000 C   0  0  0  0  0  0  0  0  0  0  0  0
    2.0395    2.9690    0.0000 N   0  0  0  0  0  0  0  0  0  0  0  0
    1.4635    0.0248    0.0000 C   0  0  0  0  0  0  0  0  0  0  0  0
    0.3326    1.0103    0.0000 C   0  0  0  0  0  0  0  0  0  0  0  0
   -1.0863    0.5237    0.0000 C   0  0  0  0  0  0  0  0  0  0  0  0
   -1.3743   -0.9484    0.0000 C   0  0  0  0  0  0  0  0  0  0  0  0
   -2.6020   -0.0865    0.0000 C   0  0  0  0  0  0  0  0  0  0  0  0
  2  1  1  6
  2  3  1  0
  3  4  1  0
  4  5  1  0
  5  6  2  0
  5  7  1  0
  2  8  1  0
  8  9  1  6
  9 10  1  0
 11 10  1  6
 11 12  1  0
 12 13  1  1
 13 14  1  6
 13 15  1  0
 16 15  1  1
 16 17  1  0
 17 18  1  0
 18 19  1  1
 18 20  1  0
 20 21  1  0
 21 22  1  0
 22 23  1  6
 23 24  1  0
 22 25  1  0
 25 26  1  6
 26 27  1  0
 27 28  1  0
 28 29  1  6
 28  8  1  0
 28 11  1  0
 25 12  1  0
 22 16  1  0
M  END
>  <MS_ID>  (1587) 
MS1650

>  <SMILES>  (1587) 
C[C@H](CCC(=O)O)[C@H]1CC[C@H]2[C@@H]3[C@@H](O)C[C@@H]4C[C@H](O)CC[C@]4(CN)[C@H]3CC[C@]12C

>  <Structure_dimension>  (1587) 
2D

$$$$
MS1651
     RDKit          2D

 30 33  0  0  0  0  0  0  0  0999 V2000
   -4.7023   -2.6242    0.0000 C   0  0  0  0  0  0  0  0  0  0  0  0
   -3.5985   -1.6085    0.0000 C   0  0  0  0  0  0  0  0  0  0  0  0
   -3.9263   -0.1448    0.0000 C   0  0  0  0  0  0  0  0  0  0  0  0
   -5.3578    0.3033    0.0000 C   0  0  0  0  0  0  0  0  0  0  0  0
   -5.6855    1.7670    0.0000 C   0  0  0  0  0  0  0  0  0  0  0  0
   -7.1171    2.2151    0.0000 O   0  0  0  0  0  0  0  0  0  0  0  0
   -4.5818    2.7827    0.0000 O   0  0  0  0  0  0  0  0  0  0  0  0
   -4.9095    4.2465    0.0000 S   0  0  0  0  0  0  0  0  0  0  0  0
   -2.1670   -2.0566    0.0000 C   0  0  0  0  0  0  0  0  0  0  0  0
   -1.6881   -3.4780    0.0000 C   0  0  0  0  0  0  0  0  0  0  0  0
   -0.1881   -3.4618    0.0000 C   0  0  0  0  0  0  0  0  0  0  0  0
    0.2599   -2.0303    0.0000 C   0  0  0  0  0  0  0  0  0  0  0  0
    1.6235   -1.4054    0.0000 C   0  0  0  0  0  0  0  0  0  0  0  0
    2.8465   -2.2738    0.0000 C   0  0  0  0  0  0  0  0  0  0  0  0
    2.7059   -3.7672    0.0000 O   0  0  0  0  0  0  0  0  0  0  0  0
    4.2102   -1.6489    0.0000 C   0  0  0  0  0  0  0  0  0  0  0  0
    4.3508   -0.1555    0.0000 C   0  0  0  0  0  0  0  0  0  0  0  0
    5.7144    0.4694    0.0000 C   0  0  0  0  0  0  0  0  0  0  0  0
    5.8550    1.9628    0.0000 C   0  0  0  0  0  0  0  0  0  0  0  0
    7.2187    2.5877    0.0000 O   0  0  0  0  0  0  0  0  0  0  0  0
    4.6320    2.8313    0.0000 C   0  0  0  0  0  0  0  0  0  0  0  0
    3.2684    2.2063    0.0000 C   0  0  0  0  0  0  0  0  0  0  0  0
    3.1278    0.7130    0.0000 C   0  0  0  0  0  0  0  0  0  0  0  0
    1.9048    1.5814    0.0000 C   0  0  0  0  0  0  0  0  0  0  0  0
    1.7642    0.0880    0.0000 C   0  0  0  0  0  0  0  0  0  0  0  0
    0.5411    0.9565    0.0000 C   0  0  0  0  0  0  0  0  0  0  0  0
   -0.8225    0.3316    0.0000 C   0  0  0  0  0  0  0  0  0  0  0  0
   -2.0455    1.2001    0.0000 O   0  0  0  0  0  0  0  0  0  0  0  0
   -0.9631   -1.1618    0.0000 C   0  0  0  0  0  0  0  0  0  0  0  0
   -2.2702   -0.4259    0.0000 C   0  0  0  0  0  0  0  0  0  0  0  0
  2  1  1  6
  2  3  1  0
  3  4  1  0
  4  5  1  0
  5  6  2  0
  5  7  1  0
  7  8  1  0
  2  9  1  0
  9 10  1  6
 10 11  1  0
 12 11  1  6
 12 13  1  0
 13 14  1  1
 14 15  1  1
 14 16  1  0
 17 16  1  1
 17 18  1  0
 18 19  1  0
 19 20  1  1
 19 21  1  0
 21 22  1  0
 22 23  1  0
 23 24  1  6
 23 25  1  0
 25 26  1  6
 26 27  1  0
 27 28  1  1
 27 29  1  0
 29 30  1  6
 29  9  1  0
 29 12  1  0
 25 13  1  0
 23 17  1  0
M  END
>  <MS_ID>  (1588) 
MS1651

>  <SMILES>  (1588) 
C[C@H](CCC(=O)OS)[C@H]1CC[C@H]2[C@@H]3[C@H](O)C[C@@H]4C[C@H](O)CC[C@]4(C)[C@H]3C[C@H](O)[C@]12C

>  <Structure_dimension>  (1588) 
2D

$$$$
MS1652
     RDKit          2D

 29 32  0  0  0  0  0  0  0  0999 V2000
   -7.4712    3.6525    0.0000 C   0  0  0  0  0  0  0  0  0  0  0  0
   -7.1264    2.1927    0.0000 O   0  0  0  0  0  0  0  0  0  0  0  0
   -5.6897    1.7615    0.0000 C   0  0  0  0  0  0  0  0  0  0  0  0
   -4.5979    2.7900    0.0000 O   0  0  0  0  0  0  0  0  0  0  0  0
   -5.3448    0.3016    0.0000 C   0  0  0  0  0  0  0  0  0  0  0  0
   -3.9081   -0.1296    0.0000 C   0  0  0  0  0  0  0  0  0  0  0  0
   -3.5633   -1.5894    0.0000 C   0  0  0  0  0  0  0  0  0  0  0  0
   -4.6551   -2.6180    0.0000 C   0  0  0  0  0  0  0  0  0  0  0  0
   -2.1266   -2.0207    0.0000 C   0  0  0  0  0  0  0  0  0  0  0  0
   -1.6310   -3.4364    0.0000 C   0  0  0  0  0  0  0  0  0  0  0  0
   -0.1314   -3.4026    0.0000 C   0  0  0  0  0  0  0  0  0  0  0  0
    0.2998   -1.9659    0.0000 C   0  0  0  0  0  0  0  0  0  0  0  0
    1.6561   -1.3251    0.0000 C   0  0  0  0  0  0  0  0  0  0  0  0
    2.8892   -2.1792    0.0000 C   0  0  0  0  0  0  0  0  0  0  0  0
    2.7660   -3.6741    0.0000 O   0  0  0  0  0  0  0  0  0  0  0  0
    4.2454   -1.5383    0.0000 C   0  0  0  0  0  0  0  0  0  0  0  0
    4.3685   -0.0434    0.0000 C   0  0  0  0  0  0  0  0  0  0  0  0
    5.7247    0.5975    0.0000 C   0  0  0  0  0  0  0  0  0  0  0  0
    5.8478    2.0924    0.0000 C   0  0  0  0  0  0  0  0  0  0  0  0
    7.2040    2.7332    0.0000 O   0  0  0  0  0  0  0  0  0  0  0  0
    4.6147    2.9465    0.0000 C   0  0  0  0  0  0  0  0  0  0  0  0
    3.2585    2.3056    0.0000 C   0  0  0  0  0  0  0  0  0  0  0  0
    3.1354    0.8107    0.0000 C   0  0  0  0  0  0  0  0  0  0  0  0
    1.9023    1.6648    0.0000 C   0  0  0  0  0  0  0  0  0  0  0  0
    1.7792    0.1699    0.0000 C   0  0  0  0  0  0  0  0  0  0  0  0
    0.5461    1.0239    0.0000 C   0  0  0  0  0  0  0  0  0  0  0  0
   -0.8101    0.3831    0.0000 C   0  0  0  0  0  0  0  0  0  0  0  0
   -0.9333   -1.1118    0.0000 C   0  0  0  0  0  0  0  0  0  0  0  0
   -2.2489   -0.3913    0.0000 C   0  0  0  0  0  0  0  0  0  0  0  0
  1  2  1  0
  2  3  1  0
  3  4  2  0
  3  5  1  0
  5  6  1  0
  6  7  1  0
  7  8  1  6
  7  9  1  0
  9 10  1  6
 10 11  1  0
 12 11  1  6
 12 13  1  0
 13 14  1  1
 14 15  2  0
 14 16  1  0
 17 16  1  1
 17 18  1  0
 18 19  1  0
 19 20  1  1
 19 21  1  0
 21 22  1  0
 22 23  1  0
 23 24  1  6
 23 25  1  0
 25 26  1  6
 26 27  1  0
 27 28  1  0
 28 29  1  6
 28  9  1  0
 28 12  1  0
 25 13  1  0
 23 17  1  0
M  END
>  <MS_ID>  (1589) 
MS1652

>  <SMILES>  (1589) 
COC(=O)CC[C@@H](C)[C@H]1CC[C@H]2[C@@H]3C(=O)C[C@@H]4C[C@H](O)CC[C@]4(C)[C@H]3CC[C@]12C

>  <Structure_dimension>  (1589) 
2D

$$$$
MS1653
     RDKit          2D

 30 33  0  0  0  0  0  0  0  0999 V2000
   -3.8321   -2.9495    0.0000 C   0  0  0  0  0  0  0  0  0  0  0  0
   -2.8334   -1.8303    0.0000 C   0  0  0  0  0  0  0  0  0  0  0  0
   -3.3032   -0.4058    0.0000 C   0  0  0  0  0  0  0  0  0  0  0  0
   -4.7718   -0.1005    0.0000 C   0  0  0  0  0  0  0  0  0  0  0  0
   -5.2417    1.3240    0.0000 C   0  0  0  0  0  0  0  0  0  0  0  0
   -4.2430    2.4432    0.0000 O   0  0  0  0  0  0  0  0  0  0  0  0
   -6.7103    1.6294    0.0000 N   0  0  0  0  0  0  0  0  0  0  0  0
   -7.1801    3.0539    0.0000 C   0  0  0  0  0  0  0  0  0  0  0  0
   -7.7090    0.5102    0.0000 C   0  0  0  0  0  0  0  0  0  0  0  0
   -1.3648   -2.1357    0.0000 C   0  0  0  0  0  0  0  0  0  0  0  0
   -0.7486   -3.5033    0.0000 C   0  0  0  0  0  0  0  0  0  0  0  0
    0.7425   -3.3398    0.0000 C   0  0  0  0  0  0  0  0  0  0  0  0
    1.0478   -1.8712    0.0000 C   0  0  0  0  0  0  0  0  0  0  0  0
    2.3435   -1.1155    0.0000 C   0  0  0  0  0  0  0  0  0  0  0  0
    3.6459   -1.8597    0.0000 C   0  0  0  0  0  0  0  0  0  0  0  0
    3.6525   -3.3597    0.0000 O   0  0  0  0  0  0  0  0  0  0  0  0
    4.9416   -1.1039    0.0000 C   0  0  0  0  0  0  0  0  0  0  0  0
    4.9349    0.3961    0.0000 C   0  0  0  0  0  0  0  0  0  0  0  0
    6.2306    1.1518    0.0000 C   0  0  0  0  0  0  0  0  0  0  0  0
    6.2239    2.6518    0.0000 C   0  0  0  0  0  0  0  0  0  0  0  0
    4.9216    3.3960    0.0000 C   0  0  0  0  0  0  0  0  0  0  0  0
    3.6259    2.6403    0.0000 C   0  0  0  0  0  0  0  0  0  0  0  0
    3.6325    1.1403    0.0000 C   0  0  0  0  0  0  0  0  0  0  0  0
    2.3302    1.8845    0.0000 C   0  0  0  0  0  0  0  0  0  0  0  0
    2.3369    0.3845    0.0000 C   0  0  0  0  0  0  0  0  0  0  0  0
    1.0345    1.1287    0.0000 C   0  0  0  0  0  0  0  0  0  0  0  0
   -0.2612    0.3730    0.0000 C   0  0  0  0  0  0  0  0  0  0  0  0
   -1.5636    1.1172    0.0000 O   0  0  0  0  0  0  0  0  0  0  0  0
   -0.2545   -1.1270    0.0000 C   0  0  0  0  0  0  0  0  0  0  0  0
   -1.6275   -0.5230    0.0000 C   0  0  0  0  0  0  0  0  0  0  0  0
  2  1  1  6
  2  3  1  0
  3  4  1  0
  4  5  1  0
  5  6  2  0
  5  7  1  0
  7  8  1  0
  7  9  1  0
  2 10  1  0
 10 11  1  6
 11 12  1  0
 13 12  1  6
 13 14  1  0
 14 15  1  1
 15 16  1  1
 15 17  1  0
 18 17  1  1
 18 19  1  0
 19 20  1  0
 20 21  1  0
 21 22  1  0
 22 23  1  0
 23 24  1  6
 23 25  1  0
 25 26  1  6
 26 27  1  0
 27 28  1  1
 27 29  1  0
 29 30  1  6
 29 10  1  0
 29 13  1  0
 25 14  1  0
 23 18  1  0
M  END
>  <MS_ID>  (1590) 
MS1653

>  <SMILES>  (1590) 
C[C@H](CCC(=O)N(C)C)[C@H]1CC[C@H]2[C@@H]3[C@H](O)C[C@@H]4CCCC[C@]4(C)[C@H]3C[C@H](O)[C@]12C

>  <Structure_dimension>  (1590) 
2D

$$$$
MS1654
     RDKit          2D

 31 34  0  0  0  0  0  0  0  0999 V2000
   -4.3735   -2.9763    0.0000 C   0  0  0  0  0  0  0  0  0  0  0  0
   -3.3227   -1.9059    0.0000 C   0  0  0  0  0  0  0  0  0  0  0  0
   -3.7243   -0.4607    0.0000 C   0  0  0  0  0  0  0  0  0  0  0  0
   -5.1767   -0.0858    0.0000 C   0  0  0  0  0  0  0  0  0  0  0  0
   -5.5783    1.3594    0.0000 C   0  0  0  0  0  0  0  0  0  0  0  0
   -7.0307    1.7342    0.0000 O   0  0  0  0  0  0  0  0  0  0  0  0
   -4.5274    2.4298    0.0000 P   0  0  0  0  0  0  0  0  0  0  0  0
   -3.4766    3.5002    0.0000 O   0  0  0  0  0  0  0  0  0  0  0  0
   -5.5978    3.4806    0.0000 O   0  0  0  0  0  0  0  0  0  0  0  0
   -3.4570    1.3790    0.0000 O   0  0  0  0  0  0  0  0  0  0  0  0
   -1.8703   -2.2808    0.0000 C   0  0  0  0  0  0  0  0  0  0  0  0
   -1.3198   -3.6761    0.0000 C   0  0  0  0  0  0  0  0  0  0  0  0
    0.1774   -3.5838    0.0000 C   0  0  0  0  0  0  0  0  0  0  0  0
    0.5522   -2.1314    0.0000 C   0  0  0  0  0  0  0  0  0  0  0  0
    1.8824   -1.4381    0.0000 C   0  0  0  0  0  0  0  0  0  0  0  0
    3.1478   -2.2434    0.0000 C   0  0  0  0  0  0  0  0  0  0  0  0
    3.0832   -3.7420    0.0000 O   0  0  0  0  0  0  0  0  0  0  0  0
    4.4780   -1.5501    0.0000 C   0  0  0  0  0  0  0  0  0  0  0  0
    4.5427   -0.0515    0.0000 C   0  0  0  0  0  0  0  0  0  0  0  0
    5.8729    0.6418    0.0000 C   0  0  0  0  0  0  0  0  0  0  0  0
    5.9375    2.1404    0.0000 C   0  0  0  0  0  0  0  0  0  0  0  0
    7.2677    2.8337    0.0000 O   0  0  0  0  0  0  0  0  0  0  0  0
    4.6720    2.9457    0.0000 C   0  0  0  0  0  0  0  0  0  0  0  0
    3.3419    2.2524    0.0000 C   0  0  0  0  0  0  0  0  0  0  0  0
    3.2772    0.7538    0.0000 C   0  0  0  0  0  0  0  0  0  0  0  0
    2.0117    1.5591    0.0000 C   0  0  0  0  0  0  0  0  0  0  0  0
    1.9470    0.0605    0.0000 C   0  0  0  0  0  0  0  0  0  0  0  0
    0.6815    0.8658    0.0000 C   0  0  0  0  0  0  0  0  0  0  0  0
   -0.6486    0.1725    0.0000 C   0  0  0  0  0  0  0  0  0  0  0  0
   -0.7133   -1.3261    0.0000 C   0  0  0  0  0  0  0  0  0  0  0  0
   -2.0560   -0.6574    0.0000 C   0  0  0  0  0  0  0  0  0  0  0  0
  2  1  1  6
  2  3  1  0
  3  4  1  0
  4  5  1  0
  5  6  2  0
  5  7  1  0
  7  8  2  0
  7  9  1  0
  7 10  1  0
  2 11  1  0
 11 12  1  6
 12 13  1  0
 14 13  1  6
 14 15  1  0
 15 16  1  1
 16 17  1  6
 16 18  1  0
 19 18  1  1
 19 20  1  0
 20 21  1  0
 21 22  1  1
 21 23  1  0
 23 24  1  0
 24 25  1  0
 25 26  1  6
 25 27  1  0
 27 28  1  6
 28 29  1  0
 29 30  1  0
 30 31  1  6
 30 11  1  0
 30 14  1  0
 27 15  1  0
 25 19  1  0
M  END
>  <MS_ID>  (1591) 
MS1654

>  <SMILES>  (1591) 
C[C@H](CCC(=O)P(=O)(O)O)[C@H]1CC[C@H]2[C@@H]3[C@@H](O)C[C@@H]4C[C@H](O)CC[C@]4(C)[C@H]3CC[C@]12C

>  <Structure_dimension>  (1591) 
2D

$$$$
MS1655
     RDKit          2D

 37 42  0  0  0  0  0  0  0  0999 V2000
   -1.9216   -4.1072    0.0000 C   0  0  0  0  0  0  0  0  0  0  0  0
   -1.1470   -2.8227    0.0000 C   0  0  0  0  0  0  0  0  0  0  0  0
   -1.8722   -1.5096    0.0000 C   0  0  0  0  0  0  0  0  0  0  0  0
   -3.3719   -1.4811    0.0000 C   0  0  0  0  0  0  0  0  0  0  0  0
   -4.0971   -0.1680    0.0000 C   0  0  0  0  0  0  0  0  0  0  0  0
   -3.3225    1.1165    0.0000 O   0  0  0  0  0  0  0  0  0  0  0  0
   -5.5968   -0.1395    0.0000 C   0  0  0  0  0  0  0  0  0  0  0  0
   -6.5014   -1.3360    0.0000 C   0  0  0  0  0  0  0  0  0  0  0  0
   -7.9189   -0.8455    0.0000 N   0  0  0  0  0  0  0  0  0  0  0  0
   -7.8904    0.6543    0.0000 C   0  0  0  0  0  0  0  0  0  0  0  0
   -8.9858    1.6790    0.0000 C   0  0  0  0  0  0  0  0  0  0  0  0
   -8.6461    3.1400    0.0000 C   0  0  0  0  0  0  0  0  0  0  0  0
   -7.2109    3.5763    0.0000 C   0  0  0  0  0  0  0  0  0  0  0  0
   -6.1155    2.5516    0.0000 C   0  0  0  0  0  0  0  0  0  0  0  0
   -6.4552    1.0906    0.0000 C   0  0  0  0  0  0  0  0  0  0  0  0
    0.3527   -2.8512    0.0000 C   0  0  0  0  0  0  0  0  0  0  0  0
    1.2112   -4.0813    0.0000 C   0  0  0  0  0  0  0  0  0  0  0  0
    2.6463   -3.6450    0.0000 C   0  0  0  0  0  0  0  0  0  0  0  0
    2.6748   -2.1452    0.0000 C   0  0  0  0  0  0  0  0  0  0  0  0
    3.8084   -1.1629    0.0000 C   0  0  0  0  0  0  0  0  0  0  0  0
    5.2259   -1.6535    0.0000 C   0  0  0  0  0  0  0  0  0  0  0  0
    5.5099   -3.1264    0.0000 O   0  0  0  0  0  0  0  0  0  0  0  0
    6.3595   -0.6712    0.0000 C   0  0  0  0  0  0  0  0  0  0  0  0
    6.0756    0.8017    0.0000 C   0  0  0  0  0  0  0  0  0  0  0  0
    7.2092    1.7840    0.0000 C   0  0  0  0  0  0  0  0  0  0  0  0
    6.9253    3.2569    0.0000 C   0  0  0  0  0  0  0  0  0  0  0  0
    8.0589    4.2392    0.0000 O   0  0  0  0  0  0  0  0  0  0  0  0
    5.5078    3.7475    0.0000 C   0  0  0  0  0  0  0  0  0  0  0  0
    4.3742    2.7652    0.0000 C   0  0  0  0  0  0  0  0  0  0  0  0
    4.6581    1.2923    0.0000 C   0  0  0  0  0  0  0  0  0  0  0  0
    3.2406    1.7829    0.0000 C   0  0  0  0  0  0  0  0  0  0  0  0
    3.5245    0.3100    0.0000 C   0  0  0  0  0  0  0  0  0  0  0  0
    2.1070    0.8005    0.0000 C   0  0  0  0  0  0  0  0  0  0  0  0
    0.9734   -0.1818    0.0000 C   0  0  0  0  0  0  0  0  0  0  0  0
   -0.4441    0.3088    0.0000 O   0  0  0  0  0  0  0  0  0  0  0  0
    1.2573   -1.6547    0.0000 C   0  0  0  0  0  0  0  0  0  0  0  0
   -0.2037   -1.3149    0.0000 C   0  0  0  0  0  0  0  0  0  0  0  0
  2  1  1  6
  2  3  1  0
  3  4  1  0
  4  5  1  0
  5  6  2  0
  5  7  1  0
  7  8  2  0
  8  9  1  0
  9 10  1  0
 10 11  2  0
 11 12  1  0
 12 13  2  0
 13 14  1  0
 14 15  2  0
  2 16  1  0
 16 17  1  6
 17 18  1  0
 19 18  1  6
 19 20  1  0
 20 21  1  1
 21 22  1  1
 21 23  1  0
 24 23  1  1
 24 25  1  0
 25 26  1  0
 26 27  1  1
 26 28  1  0
 28 29  1  0
 29 30  1  0
 30 31  1  6
 30 32  1  0
 32 33  1  6
 33 34  1  0
 34 35  1  1
 34 36  1  0
 36 37  1  6
 15  7  1  0
 36 16  1  0
 15 10  1  0
 36 19  1  0
 32 20  1  0
 30 24  1  0
M  END
>  <MS_ID>  (1592) 
MS1655

>  <SMILES>  (1592) 
C[C@H](CCC(=O)c1c[nH]c2ccccc12)[C@H]1CC[C@H]2[C@@H]3[C@H](O)C[C@@H]4C[C@H](O)CC[C@]4(C)[C@H]3C[C@H](O)[C@]12C

>  <Structure_dimension>  (1592) 
2D

$$$$
MS1656
     RDKit          2D

 33 36  0  0  0  0  0  0  0  0999 V2000
   -3.7635   -2.9107    0.0000 C   0  0  0  0  0  0  0  0  0  0  0  0
   -2.7446   -1.8098    0.0000 C   0  0  0  0  0  0  0  0  0  0  0  0
   -3.1886   -0.3770    0.0000 C   0  0  0  0  0  0  0  0  0  0  0  0
   -4.6514   -0.0451    0.0000 C   0  0  0  0  0  0  0  0  0  0  0  0
   -5.0953    1.3877    0.0000 C   0  0  0  0  0  0  0  0  0  0  0  0
   -4.0765    2.4886    0.0000 O   0  0  0  0  0  0  0  0  0  0  0  0
   -6.5582    1.7196    0.0000 N   0  0  0  0  0  0  0  0  0  0  0  0
   -7.0021    3.1524    0.0000 C   0  0  0  0  0  0  0  0  0  0  0  0
   -7.5770    0.6188    0.0000 C   0  0  0  0  0  0  0  0  0  0  0  0
   -9.0398    0.9507    0.0000 C   0  0  0  0  0  0  0  0  0  0  0  0
  -10.0587   -0.1502    0.0000 O   0  0  0  0  0  0  0  0  0  0  0  0
   -1.2818   -2.1417    0.0000 C   0  0  0  0  0  0  0  0  0  0  0  0
   -0.6905   -3.5202    0.0000 C   0  0  0  0  0  0  0  0  0  0  0  0
    0.8033   -3.3839    0.0000 C   0  0  0  0  0  0  0  0  0  0  0  0
    1.1352   -1.9211    0.0000 C   0  0  0  0  0  0  0  0  0  0  0  0
    2.4444   -1.1889    0.0000 C   0  0  0  0  0  0  0  0  0  0  0  0
    3.7330   -1.9566    0.0000 C   0  0  0  0  0  0  0  0  0  0  0  0
    3.7125   -3.4565    0.0000 O   0  0  0  0  0  0  0  0  0  0  0  0
    5.0422   -1.2244    0.0000 C   0  0  0  0  0  0  0  0  0  0  0  0
    6.3309   -1.9922    0.0000 O   0  0  0  0  0  0  0  0  0  0  0  0
    5.0628    0.2754    0.0000 C   0  0  0  0  0  0  0  0  0  0  0  0
    6.3719    1.0076    0.0000 C   0  0  0  0  0  0  0  0  0  0  0  0
    6.3925    2.5074    0.0000 C   0  0  0  0  0  0  0  0  0  0  0  0
    7.7016    3.2396    0.0000 O   0  0  0  0  0  0  0  0  0  0  0  0
    5.1038    3.2751    0.0000 C   0  0  0  0  0  0  0  0  0  0  0  0
    3.7946    2.5430    0.0000 C   0  0  0  0  0  0  0  0  0  0  0  0
    3.7741    1.0431    0.0000 C   0  0  0  0  0  0  0  0  0  0  0  0
    2.4854    1.8108    0.0000 C   0  0  0  0  0  0  0  0  0  0  0  0
    2.4649    0.3110    0.0000 C   0  0  0  0  0  0  0  0  0  0  0  0
    1.1763    1.0787    0.0000 C   0  0  0  0  0  0  0  0  0  0  0  0
   -0.1329    0.3465    0.0000 C   0  0  0  0  0  0  0  0  0  0  0  0
   -0.1534   -1.1533    0.0000 C   0  0  0  0  0  0  0  0  0  0  0  0
   -1.5153   -0.5245    0.0000 C   0  0  0  0  0  0  0  0  0  0  0  0
  2  1  1  6
  2  3  1  0
  3  4  1  0
  4  5  1  0
  5  6  2  0
  5  7  1  0
  7  8  1  0
  7  9  1  0
  9 10  1  0
 10 11  1  0
  2 12  1  0
 12 13  1  6
 13 14  1  0
 15 14  1  6
 15 16  1  0
 16 17  1  1
 17 18  1  1
 17 19  1  0
 19 20  1  1
 19 21  1  0
 21 22  1  1
 22 23  1  0
 23 24  1  1
 23 25  1  0
 25 26  1  0
 26 27  1  0
 27 28  1  6
 27 29  1  0
 29 30  1  6
 30 31  1  0
 31 32  1  0
 32 33  1  6
 32 12  1  0
 32 15  1  0
 29 16  1  0
 27 21  1  0
M  END
>  <MS_ID>  (1593) 
MS1656

>  <SMILES>  (1593) 
C[C@H](CCC(=O)N(C)CCO)[C@H]1CC[C@H]2[C@@H]3[C@H](O)[C@H](O)[C@@H]4C[C@H](O)CC[C@]4(C)[C@H]3CC[C@]12C

>  <Structure_dimension>  (1593) 
2D

$$$$
MS1657
     RDKit          2D

 33 37  0  0  0  0  0  0  0  0999 V2000
   -2.6353   -4.1555    0.0000 C   0  0  0  0  0  0  0  0  0  0  0  0
   -1.8237   -2.8940    0.0000 C   0  0  0  0  0  0  0  0  0  0  0  0
   -2.5102   -1.5604    0.0000 C   0  0  0  0  0  0  0  0  0  0  0  0
   -4.0085   -1.4882    0.0000 C   0  0  0  0  0  0  0  0  0  0  0  0
   -4.6951   -0.1545    0.0000 C   0  0  0  0  0  0  0  0  0  0  0  0
   -3.8834    1.1069    0.0000 O   0  0  0  0  0  0  0  0  0  0  0  0
   -6.1933   -0.0823    0.0000 C   0  0  0  0  0  0  0  0  0  0  0  0
   -6.8799    1.2513    0.0000 N   0  0  0  0  0  0  0  0  0  0  0  0
   -8.3624    1.4798    0.0000 C   0  0  0  0  0  0  0  0  0  0  0  0
   -8.6033    2.9603    0.0000 N   0  0  0  0  0  0  0  0  0  0  0  0
   -7.2696    3.6469    0.0000 C   0  0  0  0  0  0  0  0  0  0  0  0
   -6.2046    2.5907    0.0000 N   0  0  0  0  0  0  0  0  0  0  0  0
   -0.3254   -2.9663    0.0000 C   0  0  0  0  0  0  0  0  0  0  0  0
    0.4968   -4.2208    0.0000 C   0  0  0  0  0  0  0  0  0  0  0  0
    1.9441   -3.8265    0.0000 C   0  0  0  0  0  0  0  0  0  0  0  0
    2.0163   -2.3283    0.0000 C   0  0  0  0  0  0  0  0  0  0  0  0
    3.1781   -1.3794    0.0000 C   0  0  0  0  0  0  0  0  0  0  0  0
    4.5807   -1.9111    0.0000 C   0  0  0  0  0  0  0  0  0  0  0  0
    5.7424   -0.9622    0.0000 C   0  0  0  0  0  0  0  0  0  0  0  0
    5.5016    0.5183    0.0000 C   0  0  0  0  0  0  0  0  0  0  0  0
    6.6633    1.4672    0.0000 C   0  0  0  0  0  0  0  0  0  0  0  0
    6.4224    2.9477    0.0000 C   0  0  0  0  0  0  0  0  0  0  0  0
    7.5842    3.8966    0.0000 O   0  0  0  0  0  0  0  0  0  0  0  0
    5.0198    3.4794    0.0000 C   0  0  0  0  0  0  0  0  0  0  0  0
    3.8581    2.5305    0.0000 C   0  0  0  0  0  0  0  0  0  0  0  0
    4.0989    1.0500    0.0000 C   0  0  0  0  0  0  0  0  0  0  0  0
    2.6963    1.5817    0.0000 C   0  0  0  0  0  0  0  0  0  0  0  0
    2.9372    0.1011    0.0000 C   0  0  0  0  0  0  0  0  0  0  0  0
    1.5346    0.6328    0.0000 C   0  0  0  0  0  0  0  0  0  0  0  0
    0.3728   -0.3161    0.0000 C   0  0  0  0  0  0  0  0  0  0  0  0
   -1.0298    0.2156    0.0000 O   0  0  0  0  0  0  0  0  0  0  0  0
    0.6137   -1.7966    0.0000 C   0  0  0  0  0  0  0  0  0  0  0  0
   -0.8368   -1.4144    0.0000 C   0  0  0  0  0  0  0  0  0  0  0  0
  2  1  1  6
  2  3  1  0
  3  4  1  0
  4  5  1  0
  5  6  2  0
  5  7  1  0
  7  8  1  0
  8  9  1  0
  9 10  2  0
 10 11  1  0
 11 12  2  0
  2 13  1  0
 13 14  1  6
 14 15  1  0
 16 15  1  6
 16 17  1  0
 17 18  1  1
 18 19  1  0
 20 19  1  1
 20 21  1  0
 21 22  1  0
 22 23  1  1
 22 24  1  0
 24 25  1  0
 25 26  1  0
 26 27  1  6
 26 28  1  0
 28 29  1  6
 29 30  1  0
 30 31  1  1
 30 32  1  0
 32 33  1  6
 12  8  1  0
 32 13  1  0
 32 16  1  0
 28 17  1  0
 26 20  1  0
M  END
>  <MS_ID>  (1594) 
MS1657

>  <SMILES>  (1594) 
C[C@H](CCC(=O)Cn1cncn1)[C@H]1CC[C@H]2[C@@H]3CC[C@@H]4C[C@H](O)CC[C@]4(C)[C@H]3C[C@H](O)[C@]12C

>  <Structure_dimension>  (1594) 
2D

$$$$
MS1658
     RDKit          2D

 36 39  0  0  0  0  0  0  0  0999 V2000
   -1.0047   -4.5176    0.0000 C   0  0  0  0  0  0  0  0  0  0  0  0
   -0.3860   -3.1511    0.0000 C   0  0  0  0  0  0  0  0  0  0  0  0
   -1.2599   -1.9320    0.0000 C   0  0  0  0  0  0  0  0  0  0  0  0
   -2.7527   -2.0794    0.0000 C   0  0  0  0  0  0  0  0  0  0  0  0
   -3.6267   -0.8603    0.0000 C   0  0  0  0  0  0  0  0  0  0  0  0
   -3.0079    0.5061    0.0000 O   0  0  0  0  0  0  0  0  0  0  0  0
   -5.1194   -1.0076    0.0000 O   0  0  0  0  0  0  0  0  0  0  0  0
   -5.9934    0.2114    0.0000 C   0  0  0  0  0  0  0  0  0  0  0  0
   -7.4861    0.0641    0.0000 C   0  0  0  0  0  0  0  0  0  0  0  0
   -8.1049   -1.3023    0.0000 O   0  0  0  0  0  0  0  0  0  0  0  0
   -8.3601    1.2832    0.0000 N   0  0  0  0  0  0  0  0  0  0  0  0
   -9.8528    1.1359    0.0000 C   0  0  0  0  0  0  0  0  0  0  0  0
  -10.7268    2.3549    0.0000 C   0  0  0  0  0  0  0  0  0  0  0  0
  -10.1080    3.7214    0.0000 O   0  0  0  0  0  0  0  0  0  0  0  0
  -12.2196    2.2076    0.0000 O   0  0  0  0  0  0  0  0  0  0  0  0
    1.1068   -3.0038    0.0000 C   0  0  0  0  0  0  0  0  0  0  0  0
    2.1034   -4.1248    0.0000 C   0  0  0  0  0  0  0  0  0  0  0  0
    3.4775   -3.5234    0.0000 C   0  0  0  0  0  0  0  0  0  0  0  0
    3.3302   -2.0307    0.0000 C   0  0  0  0  0  0  0  0  0  0  0  0
    4.3409   -0.9224    0.0000 C   0  0  0  0  0  0  0  0  0  0  0  0
    5.8062   -1.2435    0.0000 C   0  0  0  0  0  0  0  0  0  0  0  0
    6.2606   -2.6730    0.0000 O   0  0  0  0  0  0  0  0  0  0  0  0
    6.8169   -0.1352    0.0000 C   0  0  0  0  0  0  0  0  0  0  0  0
    6.3624    1.2943    0.0000 C   0  0  0  0  0  0  0  0  0  0  0  0
    7.3732    2.4027    0.0000 C   0  0  0  0  0  0  0  0  0  0  0  0
    6.9187    3.8322    0.0000 C   0  0  0  0  0  0  0  0  0  0  0  0
    7.9294    4.9405    0.0000 O   0  0  0  0  0  0  0  0  0  0  0  0
    5.4535    4.1533    0.0000 C   0  0  0  0  0  0  0  0  0  0  0  0
    4.4427    3.0450    0.0000 C   0  0  0  0  0  0  0  0  0  0  0  0
    4.8972    1.6155    0.0000 C   0  0  0  0  0  0  0  0  0  0  0  0
    3.4320    1.9366    0.0000 C   0  0  0  0  0  0  0  0  0  0  0  0
    3.8865    0.5071    0.0000 C   0  0  0  0  0  0  0  0  0  0  0  0
    2.4212    0.8283    0.0000 C   0  0  0  0  0  0  0  0  0  0  0  0
    1.4105   -0.2800    0.0000 C   0  0  0  0  0  0  0  0  0  0  0  0
    1.8650   -1.7095    0.0000 C   0  0  0  0  0  0  0  0  0  0  0  0
    0.3742   -1.5433    0.0000 C   0  0  0  0  0  0  0  0  0  0  0  0
  2  1  1  6
  2  3  1  0
  3  4  1  0
  4  5  1  0
  5  6  2  0
  5  7  1  0
  7  8  1  0
  8  9  1  0
  9 10  2  0
  9 11  1  0
 11 12  1  0
 12 13  1  0
 13 14  2  0
 13 15  1  0
  2 16  1  0
 16 17  1  6
 17 18  1  0
 19 18  1  6
 19 20  1  0
 20 21  1  1
 21 22  1  6
 21 23  1  0
 24 23  1  1
 24 25  1  0
 25 26  1  0
 26 27  1  1
 26 28  1  0
 28 29  1  0
 29 30  1  0
 30 31  1  6
 30 32  1  0
 32 33  1  6
 33 34  1  0
 34 35  1  0
 35 36  1  6
 35 16  1  0
 35 19  1  0
 32 20  1  0
 30 24  1  0
M  END
>  <MS_ID>  (1595) 
MS1658

>  <SMILES>  (1595) 
C[C@H](CCC(=O)OCC(=O)NCC(=O)O)[C@H]1CC[C@H]2[C@@H]3[C@@H](O)C[C@@H]4C[C@H](O)CC[C@]4(C)[C@H]3CC[C@]12C

>  <Structure_dimension>  (1595) 
2D

$$$$
MS1659
     RDKit          2D

 33 36  0  0  0  0  0  0  0  0999 V2000
   -6.2027   -1.9081    0.0000 C   0  0  0  0  0  0  0  0  0  0  0  0
   -4.9792   -1.0402    0.0000 C   0  0  0  0  0  0  0  0  0  0  0  0
   -5.1191    0.4533    0.0000 C   0  0  0  0  0  0  0  0  0  0  0  0
   -6.4825    1.0788    0.0000 C   0  0  0  0  0  0  0  0  0  0  0  0
   -6.6223    2.5723    0.0000 C   0  0  0  0  0  0  0  0  0  0  0  0
   -5.3989    3.4402    0.0000 O   0  0  0  0  0  0  0  0  0  0  0  0
   -7.9857    3.1979    0.0000 O   0  0  0  0  0  0  0  0  0  0  0  0
   -3.6159   -1.6658    0.0000 C   0  0  0  0  0  0  0  0  0  0  0  0
   -3.3207   -3.1364    0.0000 C   0  0  0  0  0  0  0  0  0  0  0  0
   -1.8308   -3.3101    0.0000 C   0  0  0  0  0  0  0  0  0  0  0  0
   -1.2052   -1.9468    0.0000 C   0  0  0  0  0  0  0  0  0  0  0  0
    0.2265   -1.4995    0.0000 C   0  0  0  0  0  0  0  0  0  0  0  0
    1.3298   -2.5157    0.0000 C   0  0  0  0  0  0  0  0  0  0  0  0
    1.0014   -3.9793    0.0000 O   0  0  0  0  0  0  0  0  0  0  0  0
    2.7616   -2.0684    0.0000 C   0  0  0  0  0  0  0  0  0  0  0  0
    3.0900   -0.6048    0.0000 C   0  0  0  0  0  0  0  0  0  0  0  0
    4.5218   -0.1574    0.0000 C   0  0  0  0  0  0  0  0  0  0  0  0
    4.8502    1.3061    0.0000 C   0  0  0  0  0  0  0  0  0  0  0  0
    6.2820    1.7535    0.0000 O   0  0  0  0  0  0  0  0  0  0  0  0
    7.3853    0.7372    0.0000 S   0  0  0  0  0  0  0  0  0  0  0  0
    6.3690   -0.3660    0.0000 O   0  0  0  0  0  0  0  0  0  0  0  0
    8.4015    1.8405    0.0000 O   0  0  0  0  0  0  0  0  0  0  0  0
    8.4885   -0.2790    0.0000 O   0  0  0  0  0  0  0  0  0  0  0  0
    3.7470    2.3224    0.0000 C   0  0  0  0  0  0  0  0  0  0  0  0
    2.3152    1.8751    0.0000 C   0  0  0  0  0  0  0  0  0  0  0  0
    1.9868    0.4115    0.0000 C   0  0  0  0  0  0  0  0  0  0  0  0
    0.8835    1.4277    0.0000 C   0  0  0  0  0  0  0  0  0  0  0  0
    0.5550   -0.0359    0.0000 C   0  0  0  0  0  0  0  0  0  0  0  0
   -0.5483    0.9804    0.0000 C   0  0  0  0  0  0  0  0  0  0  0  0
   -1.9800    0.5330    0.0000 C   0  0  0  0  0  0  0  0  0  0  0  0
   -3.0833    1.5493    0.0000 O   0  0  0  0  0  0  0  0  0  0  0  0
   -2.3085   -0.9305    0.0000 C   0  0  0  0  0  0  0  0  0  0  0  0
   -3.5119   -0.0352    0.0000 C   0  0  0  0  0  0  0  0  0  0  0  0
  2  1  1  6
  2  3  1  0
  3  4  1  0
  4  5  1  0
  5  6  2  0
  5  7  1  0
  2  8  1  0
  8  9  1  6
  9 10  1  0
 11 10  1  6
 11 12  1  0
 12 13  1  1
 13 14  1  6
 13 15  1  0
 16 15  1  1
 16 17  1  0
 17 18  1  0
 18 19  1  1
 19 20  1  0
 20 21  2  0
 20 22  2  0
 20 23  1  0
 18 24  1  0
 24 25  1  0
 25 26  1  0
 26 27  1  6
 26 28  1  0
 28 29  1  6
 29 30  1  0
 30 31  2  0
 30 32  1  0
 32 33  1  6
 32  8  1  0
 32 11  1  0
 28 12  1  0
 26 16  1  0
M  END
>  <MS_ID>  (1596) 
MS1659

>  <SMILES>  (1596) 
C[C@H](CCC(=O)O)[C@H]1CC[C@H]2[C@@H]3[C@@H](O)C[C@@H]4C[C@H](OS(=O)(=O)O)CC[C@]4(C)[C@H]3CC(=O)[C@]12C

>  <Structure_dimension>  (1596) 
2D

$$$$
MS1660
     RDKit          2D

 33 36  0  0  0  0  0  0  0  0999 V2000
  -11.1436    3.5944    0.0000 C   0  0  0  0  0  0  0  0  0  0  0  0
  -10.4015    2.2908    0.0000 C   0  0  0  0  0  0  0  0  0  0  0  0
   -8.9015    2.2817    0.0000 C   0  0  0  0  0  0  0  0  0  0  0  0
   -8.1594    0.9781    0.0000 C   0  0  0  0  0  0  0  0  0  0  0  0
   -6.6595    0.9690    0.0000 C   0  0  0  0  0  0  0  0  0  0  0  0
   -5.9174   -0.3345    0.0000 C   0  0  0  0  0  0  0  0  0  0  0  0
   -4.4174   -0.3436    0.0000 C   0  0  0  0  0  0  0  0  0  0  0  0
   -3.6595    0.9508    0.0000 O   0  0  0  0  0  0  0  0  0  0  0  0
   -3.6753   -1.6472    0.0000 C   0  0  0  0  0  0  0  0  0  0  0  0
   -2.1753   -1.6563    0.0000 C   0  0  0  0  0  0  0  0  0  0  0  0
   -1.4332   -2.9599    0.0000 C   0  0  0  0  0  0  0  0  0  0  0  0
   -2.1911   -4.2543    0.0000 C   0  0  0  0  0  0  0  0  0  0  0  0
    0.0668   -2.9690    0.0000 C   0  0  0  0  0  0  0  0  0  0  0  0
    0.9410   -4.1878    0.0000 C   0  0  0  0  0  0  0  0  0  0  0  0
    2.3704   -3.7330    0.0000 C   0  0  0  0  0  0  0  0  0  0  0  0
    2.3795   -2.2330    0.0000 C   0  0  0  0  0  0  0  0  0  0  0  0
    3.5003   -1.2361    0.0000 C   0  0  0  0  0  0  0  0  0  0  0  0
    4.9241   -1.7083    0.0000 C   0  0  0  0  0  0  0  0  0  0  0  0
    6.0449   -0.7114    0.0000 C   0  0  0  0  0  0  0  0  0  0  0  0
    5.7419    0.7577    0.0000 C   0  0  0  0  0  0  0  0  0  0  0  0
    6.8627    1.7546    0.0000 C   0  0  0  0  0  0  0  0  0  0  0  0
    6.5597    3.2237    0.0000 C   0  0  0  0  0  0  0  0  0  0  0  0
    7.6805    4.2206    0.0000 O   0  0  0  0  0  0  0  0  0  0  0  0
    5.1360    3.6959    0.0000 C   0  0  0  0  0  0  0  0  0  0  0  0
    4.0152    2.6990    0.0000 C   0  0  0  0  0  0  0  0  0  0  0  0
    4.3182    1.2299    0.0000 C   0  0  0  0  0  0  0  0  0  0  0  0
    2.8944    1.7021    0.0000 C   0  0  0  0  0  0  0  0  0  0  0  0
    3.1974    0.2330    0.0000 C   0  0  0  0  0  0  0  0  0  0  0  0
    1.7736    0.7052    0.0000 C   0  0  0  0  0  0  0  0  0  0  0  0
    0.6528   -0.2917    0.0000 C   0  0  0  0  0  0  0  0  0  0  0  0
   -0.7709    0.1804    0.0000 O   0  0  0  0  0  0  0  0  0  0  0  0
    0.9558   -1.7608    0.0000 C   0  0  0  0  0  0  0  0  0  0  0  0
   -0.5095   -1.4401    0.0000 C   0  0  0  0  0  0  0  0  0  0  0  0
  1  2  1  0
  2  3  1  0
  3  4  1  0
  4  5  1  0
  5  6  1  0
  6  7  1  0
  7  8  2  0
  7  9  1  0
  9 10  1  0
 10 11  1  0
 11 12  1  6
 11 13  1  0
 13 14  1  6
 14 15  1  0
 16 15  1  6
 16 17  1  0
 17 18  1  1
 18 19  1  0
 20 19  1  1
 20 21  1  0
 21 22  1  0
 22 23  1  1
 22 24  1  0
 24 25  1  0
 25 26  1  0
 26 27  1  6
 26 28  1  0
 28 29  1  6
 29 30  1  0
 30 31  1  1
 30 32  1  0
 32 33  1  6
 32 13  1  0
 32 16  1  0
 28 17  1  0
 26 20  1  0
M  END
>  <MS_ID>  (1597) 
MS1660

>  <SMILES>  (1597) 
CCCCCCC(=O)CC[C@@H](C)[C@H]1CC[C@H]2[C@@H]3CC[C@@H]4C[C@H](O)CC[C@]4(C)[C@H]3C[C@H](O)[C@]12C

>  <Structure_dimension>  (1597) 
2D

$$$$
MS1661
     RDKit          2D

 35 38  0  0  0  0  0  0  0  0999 V2000
   -9.5263    3.9118    0.0000 C   0  0  0  0  0  0  0  0  0  0  0  0
   -8.0975    3.4550    0.0000 C   0  0  0  0  0  0  0  0  0  0  0  0
   -7.7787    1.9893    0.0000 O   0  0  0  0  0  0  0  0  0  0  0  0
   -6.3500    1.5325    0.0000 C   0  0  0  0  0  0  0  0  0  0  0  0
   -5.2400    2.5415    0.0000 O   0  0  0  0  0  0  0  0  0  0  0  0
   -6.0312    0.0668    0.0000 C   0  0  0  0  0  0  0  0  0  0  0  0
   -4.6024   -0.3900    0.0000 C   0  0  0  0  0  0  0  0  0  0  0  0
   -4.2836   -1.8557    0.0000 C   0  0  0  0  0  0  0  0  0  0  0  0
   -5.3936   -2.8647    0.0000 C   0  0  0  0  0  0  0  0  0  0  0  0
   -2.8549   -2.3125    0.0000 C   0  0  0  0  0  0  0  0  0  0  0  0
   -2.3846   -3.7369    0.0000 C   0  0  0  0  0  0  0  0  0  0  0  0
   -0.8846   -3.7298    0.0000 C   0  0  0  0  0  0  0  0  0  0  0  0
   -0.4278   -2.3011    0.0000 C   0  0  0  0  0  0  0  0  0  0  0  0
    0.9396   -1.6845    0.0000 C   0  0  0  0  0  0  0  0  0  0  0  0
    2.1573   -2.5604    0.0000 C   0  0  0  0  0  0  0  0  0  0  0  0
    2.0075   -4.0529    0.0000 O   0  0  0  0  0  0  0  0  0  0  0  0
    3.5247   -1.9439    0.0000 C   0  0  0  0  0  0  0  0  0  0  0  0
    3.6744   -0.4514    0.0000 C   0  0  0  0  0  0  0  0  0  0  0  0
    5.0419    0.1652    0.0000 C   0  0  0  0  0  0  0  0  0  0  0  0
    5.1916    1.6577    0.0000 C   0  0  0  0  0  0  0  0  0  0  0  0
    6.5590    2.2743    0.0000 O   0  0  0  0  0  0  0  0  0  0  0  0
    7.7767    1.3984    0.0000 S   0  0  0  0  0  0  0  0  0  0  0  0
    6.9008    0.1807    0.0000 O   0  0  0  0  0  0  0  0  0  0  0  0
    8.6526    2.6160    0.0000 O   0  0  0  0  0  0  0  0  0  0  0  0
    8.9944    0.5224    0.0000 O   0  0  0  0  0  0  0  0  0  0  0  0
    3.9739    2.5337    0.0000 C   0  0  0  0  0  0  0  0  0  0  0  0
    2.6065    1.9171    0.0000 C   0  0  0  0  0  0  0  0  0  0  0  0
    2.4568    0.4246    0.0000 C   0  0  0  0  0  0  0  0  0  0  0  0
    1.2391    1.3005    0.0000 C   0  0  0  0  0  0  0  0  0  0  0  0
    1.0893   -0.1920    0.0000 C   0  0  0  0  0  0  0  0  0  0  0  0
   -0.1283    0.6840    0.0000 C   0  0  0  0  0  0  0  0  0  0  0  0
   -1.4958    0.0674    0.0000 C   0  0  0  0  0  0  0  0  0  0  0  0
   -2.7134    0.9433    0.0000 O   0  0  0  0  0  0  0  0  0  0  0  0
   -1.6455   -1.4251    0.0000 C   0  0  0  0  0  0  0  0  0  0  0  0
   -2.9481   -0.6813    0.0000 C   0  0  0  0  0  0  0  0  0  0  0  0
  1  2  1  0
  2  3  1  0
  3  4  1  0
  4  5  2  0
  4  6  1  0
  6  7  1  0
  7  8  1  0
  8  9  1  6
  8 10  1  0
 10 11  1  6
 11 12  1  0
 13 12  1  6
 13 14  1  0
 14 15  1  1
 15 16  1  1
 15 17  1  0
 18 17  1  1
 18 19  1  0
 19 20  1  0
 20 21  1  1
 21 22  1  0
 22 23  2  0
 22 24  2  0
 22 25  1  0
 20 26  1  0
 26 27  1  0
 27 28  1  0
 28 29  1  6
 28 30  1  0
 30 31  1  6
 31 32  1  0
 32 33  1  1
 32 34  1  0
 34 35  1  6
 34 10  1  0
 34 13  1  0
 30 14  1  0
 28 18  1  0
M  END
>  <MS_ID>  (1598) 
MS1661

>  <SMILES>  (1598) 
CCOC(=O)CC[C@@H](C)[C@H]1CC[C@H]2[C@@H]3[C@H](O)C[C@@H]4C[C@H](OS(=O)(=O)O)CC[C@]4(C)[C@H]3C[C@H](O)[C@]12C

>  <Structure_dimension>  (1598) 
2D

$$$$
MS1662
     RDKit          2D

 36 40  0  0  0  0  0  0  0  0999 V2000
   -1.7029   -4.5740    0.0000 C   0  0  0  0  0  0  0  0  0  0  0  0
   -1.0663   -3.2157    0.0000 C   0  0  0  0  0  0  0  0  0  0  0  0
   -1.9243   -1.9853    0.0000 C   0  0  0  0  0  0  0  0  0  0  0  0
   -3.4188   -2.1132    0.0000 C   0  0  0  0  0  0  0  0  0  0  0  0
   -4.2768   -0.8828    0.0000 C   0  0  0  0  0  0  0  0  0  0  0  0
   -3.6403    0.4755    0.0000 O   0  0  0  0  0  0  0  0  0  0  0  0
   -5.7714   -1.0106    0.0000 N   0  0  0  0  0  0  0  0  0  0  0  0
   -6.6293    0.2198    0.0000 C   0  0  0  0  0  0  0  0  0  0  0  0
   -5.9928    1.5780    0.0000 C   0  0  0  0  0  0  0  0  0  0  0  0
   -6.8507    2.8084    0.0000 C   0  0  0  0  0  0  0  0  0  0  0  0
   -8.3453    2.6806    0.0000 C   0  0  0  0  0  0  0  0  0  0  0  0
   -9.2033    3.9110    0.0000 N   0  0  0  0  0  0  0  0  0  0  0  0
   -8.9819    1.3224    0.0000 C   0  0  0  0  0  0  0  0  0  0  0  0
   -8.1239    0.0920    0.0000 C   0  0  0  0  0  0  0  0  0  0  0  0
    0.4282   -3.0879    0.0000 C   0  0  0  0  0  0  0  0  0  0  0  0
    1.4101   -4.2219    0.0000 C   0  0  0  0  0  0  0  0  0  0  0  0
    2.7920   -3.6385    0.0000 C   0  0  0  0  0  0  0  0  0  0  0  0
    2.6642   -2.1439    0.0000 C   0  0  0  0  0  0  0  0  0  0  0  0
    3.6893   -1.0489    0.0000 C   0  0  0  0  0  0  0  0  0  0  0  0
    5.1502   -1.3891    0.0000 C   0  0  0  0  0  0  0  0  0  0  0  0
    5.5860   -2.8244    0.0000 O   0  0  0  0  0  0  0  0  0  0  0  0
    6.1753   -0.2941    0.0000 C   0  0  0  0  0  0  0  0  0  0  0  0
    5.7395    1.1412    0.0000 C   0  0  0  0  0  0  0  0  0  0  0  0
    6.7647    2.2362    0.0000 C   0  0  0  0  0  0  0  0  0  0  0  0
    6.3289    3.6716    0.0000 C   0  0  0  0  0  0  0  0  0  0  0  0
    7.3540    4.7666    0.0000 O   0  0  0  0  0  0  0  0  0  0  0  0
    4.8680    4.0118    0.0000 C   0  0  0  0  0  0  0  0  0  0  0  0
    3.8429    2.9168    0.0000 C   0  0  0  0  0  0  0  0  0  0  0  0
    4.2787    1.4815    0.0000 C   0  0  0  0  0  0  0  0  0  0  0  0
    2.8178    1.8217    0.0000 C   0  0  0  0  0  0  0  0  0  0  0  0
    3.2535    0.3864    0.0000 C   0  0  0  0  0  0  0  0  0  0  0  0
    1.7926    0.7267    0.0000 C   0  0  0  0  0  0  0  0  0  0  0  0
    0.7675   -0.3683    0.0000 C   0  0  0  0  0  0  0  0  0  0  0  0
   -0.6934   -0.0281    0.0000 O   0  0  0  0  0  0  0  0  0  0  0  0
    1.2033   -1.8036    0.0000 C   0  0  0  0  0  0  0  0  0  0  0  0
   -0.2852   -1.6180    0.0000 C   0  0  0  0  0  0  0  0  0  0  0  0
  2  1  1  6
  2  3  1  0
  3  4  1  0
  4  5  1  0
  5  6  2  0
  5  7  1  0
  7  8  1  0
  8  9  2  0
  9 10  1  0
 10 11  2  0
 11 12  1  0
 11 13  1  0
 13 14  2  0
  2 15  1  0
 15 16  1  6
 16 17  1  0
 18 17  1  6
 18 19  1  0
 19 20  1  1
 20 21  1  1
 20 22  1  0
 23 22  1  1
 23 24  1  0
 24 25  1  0
 25 26  1  1
 25 27  1  0
 27 28  1  0
 28 29  1  0
 29 30  1  6
 29 31  1  0
 31 32  1  6
 32 33  1  0
 33 34  1  1
 33 35  1  0
 35 36  1  6
 14  8  1  0
 35 15  1  0
 35 18  1  0
 31 19  1  0
 29 23  1  0
M  END
>  <MS_ID>  (1599) 
MS1662

>  <SMILES>  (1599) 
C[C@H](CCC(=O)Nc1ccc(N)cc1)[C@H]1CC[C@H]2[C@@H]3[C@H](O)C[C@@H]4C[C@H](O)CC[C@]4(C)[C@H]3C[C@H](O)[C@]12C

>  <Structure_dimension>  (1599) 
2D

$$$$
MS1663
     RDKit          2D

 33 36  0  0  0  0  0  0  0  0999 V2000
   -4.6075   -2.8945    0.0000 C   0  0  0  0  0  0  0  0  0  0  0  0
   -3.5097   -1.8723    0.0000 C   0  0  0  0  0  0  0  0  0  0  0  0
   -3.8461   -0.4105    0.0000 C   0  0  0  0  0  0  0  0  0  0  0  0
   -5.2802    0.0291    0.0000 C   0  0  0  0  0  0  0  0  0  0  0  0
   -5.6166    1.4909    0.0000 C   0  0  0  0  0  0  0  0  0  0  0  0
   -4.5188    2.5131    0.0000 O   0  0  0  0  0  0  0  0  0  0  0  0
   -7.0507    1.9305    0.0000 O   0  0  0  0  0  0  0  0  0  0  0  0
   -2.0756   -2.3119    0.0000 C   0  0  0  0  0  0  0  0  0  0  0  0
   -1.5882   -3.7305    0.0000 C   0  0  0  0  0  0  0  0  0  0  0  0
   -0.0884   -3.7054    0.0000 C   0  0  0  0  0  0  0  0  0  0  0  0
    0.3512   -2.2713    0.0000 C   0  0  0  0  0  0  0  0  0  0  0  0
    1.7111   -1.6384    0.0000 C   0  0  0  0  0  0  0  0  0  0  0  0
    2.9392   -2.4996    0.0000 C   0  0  0  0  0  0  0  0  0  0  0  0
    2.8074   -3.9938    0.0000 O   0  0  0  0  0  0  0  0  0  0  0  0
    4.2991   -1.8667    0.0000 C   0  0  0  0  0  0  0  0  0  0  0  0
    4.4309   -0.3725    0.0000 C   0  0  0  0  0  0  0  0  0  0  0  0
    5.7908    0.2605    0.0000 C   0  0  0  0  0  0  0  0  0  0  0  0
    5.9227    1.7547    0.0000 C   0  0  0  0  0  0  0  0  0  0  0  0
    7.2826    2.3876    0.0000 O   0  0  0  0  0  0  0  0  0  0  0  0
    4.6946    2.6159    0.0000 C   0  0  0  0  0  0  0  0  0  0  0  0
    3.3346    1.9830    0.0000 C   0  0  0  0  0  0  0  0  0  0  0  0
    3.2028    0.4888    0.0000 C   0  0  0  0  0  0  0  0  0  0  0  0
    1.9747    1.3500    0.0000 C   0  0  0  0  0  0  0  0  0  0  0  0
    1.8429   -0.1442    0.0000 C   0  0  0  0  0  0  0  0  0  0  0  0
    0.6148    0.7171    0.0000 C   0  0  0  0  0  0  0  0  0  0  0  0
   -0.7451    0.0842    0.0000 C   0  0  0  0  0  0  0  0  0  0  0  0
   -1.9732    0.9454    0.0000 O   0  0  0  0  0  0  0  0  0  0  0  0
   -1.8414    2.4396    0.0000 S   0  0  0  0  0  0  0  0  0  0  0  0
   -0.3472    2.3078    0.0000 O   0  0  0  0  0  0  0  0  0  0  0  0
   -3.3356    2.5714    0.0000 O   0  0  0  0  0  0  0  0  0  0  0  0
   -1.7096    3.9338    0.0000 O   0  0  0  0  0  0  0  0  0  0  0  0
   -0.8769   -1.4100    0.0000 C   0  0  0  0  0  0  0  0  0  0  0  0
   -2.1884   -0.6819    0.0000 C   0  0  0  0  0  0  0  0  0  0  0  0
  2  1  1  6
  2  3  1  0
  3  4  1  0
  4  5  1  0
  5  6  2  0
  5  7  1  0
  2  8  1  0
  8  9  1  6
  9 10  1  0
 11 10  1  6
 11 12  1  0
 12 13  1  1
 13 14  1  6
 13 15  1  0
 16 15  1  1
 16 17  1  0
 17 18  1  0
 18 19  2  0
 18 20  1  0
 20 21  1  0
 21 22  1  0
 22 23  1  6
 22 24  1  0
 24 25  1  6
 25 26  1  0
 26 27  1  1
 27 28  1  0
 28 29  2  0
 28 30  2  0
 28 31  1  0
 26 32  1  0
 32 33  1  6
 32  8  1  0
 32 11  1  0
 24 12  1  0
 22 16  1  0
M  END
>  <MS_ID>  (1600) 
MS1663

>  <SMILES>  (1600) 
C[C@H](CCC(=O)O)[C@H]1CC[C@H]2[C@@H]3[C@@H](O)C[C@@H]4CC(=O)CC[C@]4(C)[C@H]3C[C@H](OS(=O)(=O)O)[C@]12C

>  <Structure_dimension>  (1600) 
2D

$$$$
MS1664
     RDKit          2D

 34 37  0  0  0  0  0  0  0  0999 V2000
   -4.4119   -3.0214    0.0000 C   0  0  0  0  0  0  0  0  0  0  0  0
   -3.5438   -1.7981    0.0000 C   0  0  0  0  0  0  0  0  0  0  0  0
   -4.1691   -0.4347    0.0000 C   0  0  0  0  0  0  0  0  0  0  0  0
   -5.6626   -0.2945    0.0000 C   0  0  0  0  0  0  0  0  0  0  0  0
   -6.2879    1.0689    0.0000 C   0  0  0  0  0  0  0  0  0  0  0  0
   -5.4198    2.2922    0.0000 O   0  0  0  0  0  0  0  0  0  0  0  0
   -7.7813    1.2091    0.0000 C   0  0  0  0  0  0  0  0  0  0  0  0
   -8.6494   -0.0141    0.0000 O   0  0  0  0  0  0  0  0  0  0  0  0
   -8.4066    2.5726    0.0000 O   0  0  0  0  0  0  0  0  0  0  0  0
   -2.0504   -1.9383    0.0000 C   0  0  0  0  0  0  0  0  0  0  0  0
   -1.2860   -3.2289    0.0000 C   0  0  0  0  0  0  0  0  0  0  0  0
    0.1777   -2.9007    0.0000 C   0  0  0  0  0  0  0  0  0  0  0  0
    0.3179   -1.4073    0.0000 C   0  0  0  0  0  0  0  0  0  0  0  0
    1.5215   -0.5122    0.0000 C   0  0  0  0  0  0  0  0  0  0  0  0
    2.8985   -1.1070    0.0000 C   0  0  0  0  0  0  0  0  0  0  0  0
    3.0719   -2.5969    0.0000 O   0  0  0  0  0  0  0  0  0  0  0  0
    4.4489   -3.1917    0.0000 S   0  0  0  0  0  0  0  0  0  0  0  0
    5.0438   -1.8147    0.0000 O   0  0  0  0  0  0  0  0  0  0  0  0
    3.8541   -4.5688    0.0000 O   0  0  0  0  0  0  0  0  0  0  0  0
    5.8260   -3.7866    0.0000 O   0  0  0  0  0  0  0  0  0  0  0  0
    4.1022   -0.2118    0.0000 C   0  0  0  0  0  0  0  0  0  0  0  0
    3.9288    1.2781    0.0000 C   0  0  0  0  0  0  0  0  0  0  0  0
    5.1324    2.1732    0.0000 C   0  0  0  0  0  0  0  0  0  0  0  0
    4.9590    3.6632    0.0000 C   0  0  0  0  0  0  0  0  0  0  0  0
    6.1627    4.5583    0.0000 O   0  0  0  0  0  0  0  0  0  0  0  0
    3.5820    4.2580    0.0000 C   0  0  0  0  0  0  0  0  0  0  0  0
    2.3784    3.3629    0.0000 C   0  0  0  0  0  0  0  0  0  0  0  0
    2.5518    1.8729    0.0000 C   0  0  0  0  0  0  0  0  0  0  0  0
    1.1747    2.4677    0.0000 C   0  0  0  0  0  0  0  0  0  0  0  0
    1.3481    0.9778    0.0000 C   0  0  0  0  0  0  0  0  0  0  0  0
   -0.0289    1.5726    0.0000 C   0  0  0  0  0  0  0  0  0  0  0  0
   -1.2325    0.6775    0.0000 C   0  0  0  0  0  0  0  0  0  0  0  0
   -1.0592   -0.8125    0.0000 C   0  0  0  0  0  0  0  0  0  0  0  0
   -2.4908   -0.3649    0.0000 C   0  0  0  0  0  0  0  0  0  0  0  0
  2  1  1  6
  2  3  1  0
  3  4  1  0
  4  5  1  0
  5  6  2  0
  5  7  1  0
  7  8  2  0
  7  9  1  0
  2 10  1  0
 10 11  1  6
 11 12  1  0
 13 12  1  6
 13 14  1  0
 14 15  1  1
 15 16  1  6
 16 17  1  0
 17 18  2  0
 17 19  2  0
 17 20  1  0
 15 21  1  0
 22 21  1  1
 22 23  1  0
 23 24  1  0
 24 25  1  1
 24 26  1  0
 26 27  1  0
 27 28  1  0
 28 29  1  6
 28 30  1  0
 30 31  1  6
 31 32  1  0
 32 33  1  0
 33 34  1  6
 33 10  1  0
 33 13  1  0
 30 14  1  0
 28 22  1  0
M  END
>  <MS_ID>  (1601) 
MS1664

>  <SMILES>  (1601) 
C[C@H](CCC(=O)C(=O)O)[C@H]1CC[C@H]2[C@@H]3[C@@H](OS(=O)(=O)O)C[C@@H]4C[C@H](O)CC[C@]4(C)[C@H]3CC[C@]12C

>  <Structure_dimension>  (1601) 
2D

$$$$
MS1665
     RDKit          2D

 32 35  0  0  0  0  0  0  0  0999 V2000
   -9.1901    3.4840    0.0000 C   0  0  0  0  0  0  0  0  0  0  0  0
   -8.5774    2.1149    0.0000 C   0  0  0  0  0  0  0  0  0  0  0  0
   -9.4567    0.8996    0.0000 C   0  0  0  0  0  0  0  0  0  0  0  0
   -7.0853    1.9610    0.0000 C   0  0  0  0  0  0  0  0  0  0  0  0
   -6.4725    0.5919    0.0000 O   0  0  0  0  0  0  0  0  0  0  0  0
   -4.9804    0.4380    0.0000 C   0  0  0  0  0  0  0  0  0  0  0  0
   -4.1011    1.6532    0.0000 O   0  0  0  0  0  0  0  0  0  0  0  0
   -4.3676   -0.9311    0.0000 C   0  0  0  0  0  0  0  0  0  0  0  0
   -2.8756   -1.0850    0.0000 C   0  0  0  0  0  0  0  0  0  0  0  0
   -2.2628   -2.4541    0.0000 C   0  0  0  0  0  0  0  0  0  0  0  0
   -3.1421   -3.6694    0.0000 C   0  0  0  0  0  0  0  0  0  0  0  0
   -0.7707   -2.6080    0.0000 C   0  0  0  0  0  0  0  0  0  0  0  0
   -0.0182   -3.9056    0.0000 C   0  0  0  0  0  0  0  0  0  0  0  0
    1.4484   -3.5909    0.0000 C   0  0  0  0  0  0  0  0  0  0  0  0
    1.6023   -2.0988    0.0000 C   0  0  0  0  0  0  0  0  0  0  0  0
    2.8141   -1.2147    0.0000 C   0  0  0  0  0  0  0  0  0  0  0  0
    4.1856   -1.8222    0.0000 C   0  0  0  0  0  0  0  0  0  0  0  0
    4.3453   -3.3136    0.0000 O   0  0  0  0  0  0  0  0  0  0  0  0
    5.3974   -0.9381    0.0000 C   0  0  0  0  0  0  0  0  0  0  0  0
    5.2377    0.5533    0.0000 C   0  0  0  0  0  0  0  0  0  0  0  0
    6.4495    1.4374    0.0000 C   0  0  0  0  0  0  0  0  0  0  0  0
    6.2898    2.9289    0.0000 C   0  0  0  0  0  0  0  0  0  0  0  0
    7.5016    3.8129    0.0000 O   0  0  0  0  0  0  0  0  0  0  0  0
    4.9183    3.5363    0.0000 C   0  0  0  0  0  0  0  0  0  0  0  0
    3.7065    2.6522    0.0000 C   0  0  0  0  0  0  0  0  0  0  0  0
    3.8662    1.1608    0.0000 C   0  0  0  0  0  0  0  0  0  0  0  0
    2.4947    1.7682    0.0000 C   0  0  0  0  0  0  0  0  0  0  0  0
    2.6544    0.2767    0.0000 C   0  0  0  0  0  0  0  0  0  0  0  0
    1.2829    0.8842    0.0000 C   0  0  0  0  0  0  0  0  0  0  0  0
    0.0711    0.0001    0.0000 C   0  0  0  0  0  0  0  0  0  0  0  0
    0.2308   -1.4914    0.0000 C   0  0  0  0  0  0  0  0  0  0  0  0
   -1.1967   -1.0306    0.0000 C   0  0  0  0  0  0  0  0  0  0  0  0
  1  2  1  0
  2  3  1  0
  2  4  1  0
  4  5  1  0
  5  6  1  0
  6  7  2  0
  6  8  1  0
  8  9  1  0
  9 10  1  0
 10 11  1  6
 10 12  1  0
 12 13  1  6
 13 14  1  0
 15 14  1  6
 15 16  1  0
 16 17  1  1
 17 18  1  1
 17 19  1  0
 20 19  1  1
 20 21  1  0
 21 22  1  0
 22 23  1  1
 22 24  1  0
 24 25  1  0
 25 26  1  0
 26 27  1  6
 26 28  1  0
 28 29  1  6
 29 30  1  0
 30 31  1  0
 31 32  1  6
 31 12  1  0
 31 15  1  0
 28 16  1  0
 26 20  1  0
M  END
>  <MS_ID>  (1602) 
MS1665

>  <SMILES>  (1602) 
CC(C)COC(=O)CC[C@@H](C)[C@H]1CC[C@H]2[C@@H]3[C@H](O)C[C@@H]4C[C@H](O)CC[C@]4(C)[C@H]3CC[C@]12C

>  <Structure_dimension>  (1602) 
2D

$$$$
MS1666
     RDKit          2D

 38 41  0  0  0  0  0  0  0  0999 V2000
   -4.3848   -4.4002    0.0000 C   0  0  0  0  0  0  0  0  0  0  0  0
   -3.4717   -3.2101    0.0000 C   0  0  0  0  0  0  0  0  0  0  0  0
   -4.0458   -1.8243    0.0000 C   0  0  0  0  0  0  0  0  0  0  0  0
   -5.5330   -1.6287    0.0000 C   0  0  0  0  0  0  0  0  0  0  0  0
   -6.1071   -0.2429    0.0000 C   0  0  0  0  0  0  0  0  0  0  0  0
   -7.5943   -0.0472    0.0000 O   0  0  0  0  0  0  0  0  0  0  0  0
   -5.1941    0.9472    0.0000 O   0  0  0  0  0  0  0  0  0  0  0  0
   -5.7682    2.3330    0.0000 C   0  0  0  0  0  0  0  0  0  0  0  0
   -7.2554    2.5287    0.0000 O   0  0  0  0  0  0  0  0  0  0  0  0
   -4.8551    3.5231    0.0000 C   0  0  0  0  0  0  0  0  0  0  0  0
   -5.4293    4.9089    0.0000 C   0  0  0  0  0  0  0  0  0  0  0  0
   -6.9164    5.1045    0.0000 O   0  0  0  0  0  0  0  0  0  0  0  0
   -4.5162    6.0990    0.0000 O   0  0  0  0  0  0  0  0  0  0  0  0
   -1.9845   -3.4058    0.0000 C   0  0  0  0  0  0  0  0  0  0  0  0
   -1.2687   -4.7240    0.0000 C   0  0  0  0  0  0  0  0  0  0  0  0
    0.2062   -4.4505    0.0000 C   0  0  0  0  0  0  0  0  0  0  0  0
    0.4019   -2.9633    0.0000 C   0  0  0  0  0  0  0  0  0  0  0  0
    1.6380   -2.1136    0.0000 C   0  0  0  0  0  0  0  0  0  0  0  0
    2.9919   -2.7593    0.0000 C   0  0  0  0  0  0  0  0  0  0  0  0
    3.1097   -4.2547    0.0000 O   0  0  0  0  0  0  0  0  0  0  0  0
    4.2280   -1.9096    0.0000 C   0  0  0  0  0  0  0  0  0  0  0  0
    4.1103   -0.4143    0.0000 C   0  0  0  0  0  0  0  0  0  0  0  0
    5.3464    0.4354    0.0000 C   0  0  0  0  0  0  0  0  0  0  0  0
    5.2286    1.9308    0.0000 C   0  0  0  0  0  0  0  0  0  0  0  0
    6.4647    2.7805    0.0000 O   0  0  0  0  0  0  0  0  0  0  0  0
    7.8186    2.1348    0.0000 S   0  0  0  0  0  0  0  0  0  0  0  0
    7.1730    0.7809    0.0000 O   0  0  0  0  0  0  0  0  0  0  0  0
    8.4643    3.4888    0.0000 O   0  0  0  0  0  0  0  0  0  0  0  0
    9.1726    1.4892    0.0000 O   0  0  0  0  0  0  0  0  0  0  0  0
    3.8747    2.5765    0.0000 C   0  0  0  0  0  0  0  0  0  0  0  0
    2.6385    1.7268    0.0000 C   0  0  0  0  0  0  0  0  0  0  0  0
    2.7563    0.2314    0.0000 C   0  0  0  0  0  0  0  0  0  0  0  0
    1.4024    0.8771    0.0000 C   0  0  0  0  0  0  0  0  0  0  0  0
    1.5202   -0.6183    0.0000 C   0  0  0  0  0  0  0  0  0  0  0  0
    0.1663    0.0274    0.0000 C   0  0  0  0  0  0  0  0  0  0  0  0
   -1.0699   -0.8223    0.0000 C   0  0  0  0  0  0  0  0  0  0  0  0
   -0.9521   -2.3177    0.0000 C   0  0  0  0  0  0  0  0  0  0  0  0
   -2.3661   -1.8171    0.0000 C   0  0  0  0  0  0  0  0  0  0  0  0
  2  1  1  6
  2  3  1  0
  3  4  1  0
  4  5  1  0
  5  6  2  0
  5  7  1  0
  7  8  1  0
  8  9  2  0
  8 10  1  0
 10 11  1  0
 11 12  2  0
 11 13  1  0
  2 14  1  0
 14 15  1  6
 15 16  1  0
 17 16  1  6
 17 18  1  0
 18 19  1  1
 19 20  1  6
 19 21  1  0
 22 21  1  1
 22 23  1  0
 23 24  1  0
 24 25  1  1
 25 26  1  0
 26 27  2  0
 26 28  2  0
 26 29  1  0
 24 30  1  0
 30 31  1  0
 31 32  1  0
 32 33  1  6
 32 34  1  0
 34 35  1  6
 35 36  1  0
 36 37  1  0
 37 38  1  6
 37 14  1  0
 37 17  1  0
 34 18  1  0
 32 22  1  0
M  END
>  <MS_ID>  (1603) 
MS1666

>  <SMILES>  (1603) 
C[C@H](CCC(=O)OC(=O)CC(=O)O)[C@H]1CC[C@H]2[C@@H]3[C@@H](O)C[C@@H]4C[C@H](OS(=O)(=O)O)CC[C@]4(C)[C@H]3CC[C@]12C

>  <Structure_dimension>  (1603) 
2D

$$$$
MS1667
     RDKit          2D

 28 31  0  0  0  0  0  0  0  0999 V2000
   -5.1275   -2.0302    0.0000 C   0  0  0  0  0  0  0  0  0  0  0  0
   -3.9468   -1.1050    0.0000 C   0  0  0  0  0  0  0  0  0  0  0  0
   -4.1576    0.3801    0.0000 C   0  0  0  0  0  0  0  0  0  0  0  0
   -5.5492    0.9401    0.0000 C   0  0  0  0  0  0  0  0  0  0  0  0
   -5.7600    2.4252    0.0000 C   0  0  0  0  0  0  0  0  0  0  0  0
   -7.1516    2.9851    0.0000 O   0  0  0  0  0  0  0  0  0  0  0  0
   -4.5793    3.3503    0.0000 S   0  0  0  0  0  0  0  0  0  0  0  0
   -2.5552   -1.6650    0.0000 C   0  0  0  0  0  0  0  0  0  0  0  0
   -2.1903   -3.1199    0.0000 C   0  0  0  0  0  0  0  0  0  0  0  0
   -0.6938   -3.2225    0.0000 C   0  0  0  0  0  0  0  0  0  0  0  0
   -0.1339   -1.8309    0.0000 C   0  0  0  0  0  0  0  0  0  0  0  0
    1.2750   -1.3159    0.0000 C   0  0  0  0  0  0  0  0  0  0  0  0
    2.4254   -2.2785    0.0000 C   0  0  0  0  0  0  0  0  0  0  0  0
    2.1670   -3.7560    0.0000 O   0  0  0  0  0  0  0  0  0  0  0  0
    3.8342   -1.7635    0.0000 C   0  0  0  0  0  0  0  0  0  0  0  0
    4.0926   -0.2859    0.0000 C   0  0  0  0  0  0  0  0  0  0  0  0
    5.5014    0.2291    0.0000 C   0  0  0  0  0  0  0  0  0  0  0  0
    5.7598    1.7067    0.0000 C   0  0  0  0  0  0  0  0  0  0  0  0
    7.1687    2.2217    0.0000 O   0  0  0  0  0  0  0  0  0  0  0  0
    4.6094    2.6692    0.0000 C   0  0  0  0  0  0  0  0  0  0  0  0
    3.2006    2.1542    0.0000 C   0  0  0  0  0  0  0  0  0  0  0  0
    2.9422    0.6767    0.0000 C   0  0  0  0  0  0  0  0  0  0  0  0
    1.7918    1.6392    0.0000 C   0  0  0  0  0  0  0  0  0  0  0  0
    1.5334    0.1617    0.0000 C   0  0  0  0  0  0  0  0  0  0  0  0
    0.3830    1.1242    0.0000 C   0  0  0  0  0  0  0  0  0  0  0  0
   -1.0259    0.6093    0.0000 C   0  0  0  0  0  0  0  0  0  0  0  0
   -1.2843   -0.8683    0.0000 C   0  0  0  0  0  0  0  0  0  0  0  0
   -2.5290   -0.0313    0.0000 C   0  0  0  0  0  0  0  0  0  0  0  0
  2  1  1  6
  2  3  1  0
  3  4  1  0
  4  5  1  0
  5  6  2  0
  5  7  1  0
  2  8  1  0
  8  9  1  6
  9 10  1  0
 11 10  1  6
 11 12  1  0
 12 13  1  1
 13 14  1  6
 13 15  1  0
 16 15  1  1
 16 17  1  0
 17 18  1  0
 18 19  2  0
 18 20  1  0
 20 21  1  0
 21 22  1  0
 22 23  1  6
 22 24  1  0
 24 25  1  6
 25 26  1  0
 26 27  1  0
 27 28  1  6
 27  8  1  0
 27 11  1  0
 24 12  1  0
 22 16  1  0
M  END
>  <MS_ID>  (1604) 
MS1667

>  <SMILES>  (1604) 
C[C@H](CCC(=O)S)[C@H]1CC[C@H]2[C@@H]3[C@@H](O)C[C@@H]4CC(=O)CC[C@]4(C)[C@H]3CC[C@]12C

>  <Structure_dimension>  (1604) 
2D

$$$$
MS1668
     RDKit          2D

 30 33  0  0  0  0  0  0  0  0999 V2000
   -9.1926    3.8340    0.0000 C   0  0  0  0  0  0  0  0  0  0  0  0
   -8.6440    2.4379    0.0000 C   0  0  0  0  0  0  0  0  0  0  0  0
   -7.1606    2.2150    0.0000 C   0  0  0  0  0  0  0  0  0  0  0  0
   -6.6120    0.8190    0.0000 O   0  0  0  0  0  0  0  0  0  0  0  0
   -5.1287    0.5960    0.0000 C   0  0  0  0  0  0  0  0  0  0  0  0
   -4.1940    1.7692    0.0000 O   0  0  0  0  0  0  0  0  0  0  0  0
   -4.5801   -0.8000    0.0000 C   0  0  0  0  0  0  0  0  0  0  0  0
   -3.0967   -1.0230    0.0000 C   0  0  0  0  0  0  0  0  0  0  0  0
   -2.5481   -2.4190    0.0000 C   0  0  0  0  0  0  0  0  0  0  0  0
   -3.4828   -3.5922    0.0000 C   0  0  0  0  0  0  0  0  0  0  0  0
   -1.0648   -2.6420    0.0000 C   0  0  0  0  0  0  0  0  0  0  0  0
   -0.3732   -3.9730    0.0000 C   0  0  0  0  0  0  0  0  0  0  0  0
    1.1064   -3.7267    0.0000 C   0  0  0  0  0  0  0  0  0  0  0  0
    1.3293   -2.2433    0.0000 C   0  0  0  0  0  0  0  0  0  0  0  0
    2.5808   -1.4164    0.0000 C   0  0  0  0  0  0  0  0  0  0  0  0
    3.9227   -2.0868    0.0000 C   0  0  0  0  0  0  0  0  0  0  0  0
    5.1742   -1.2599    0.0000 C   0  0  0  0  0  0  0  0  0  0  0  0
    5.0838    0.2373    0.0000 C   0  0  0  0  0  0  0  0  0  0  0  0
    6.3353    1.0642    0.0000 C   0  0  0  0  0  0  0  0  0  0  0  0
    6.2450    2.5615    0.0000 C   0  0  0  0  0  0  0  0  0  0  0  0
    7.4965    3.3884    0.0000 O   0  0  0  0  0  0  0  0  0  0  0  0
    4.9031    3.2319    0.0000 C   0  0  0  0  0  0  0  0  0  0  0  0
    3.6516    2.4050    0.0000 C   0  0  0  0  0  0  0  0  0  0  0  0
    3.7420    0.9077    0.0000 C   0  0  0  0  0  0  0  0  0  0  0  0
    2.4001    1.5781    0.0000 C   0  0  0  0  0  0  0  0  0  0  0  0
    2.4905    0.0808    0.0000 C   0  0  0  0  0  0  0  0  0  0  0  0
    1.1486    0.7512    0.0000 C   0  0  0  0  0  0  0  0  0  0  0  0
   -0.1029   -0.0757    0.0000 C   0  0  0  0  0  0  0  0  0  0  0  0
   -0.0125   -1.5729    0.0000 C   0  0  0  0  0  0  0  0  0  0  0  0
   -1.4171   -1.0465    0.0000 C   0  0  0  0  0  0  0  0  0  0  0  0
  1  2  1  0
  2  3  1  0
  3  4  1  0
  4  5  1  0
  5  6  2  0
  5  7  1  0
  7  8  1  0
  8  9  1  0
  9 10  1  6
  9 11  1  0
 11 12  1  6
 12 13  1  0
 14 13  1  6
 14 15  1  0
 15 16  1  1
 16 17  1  0
 18 17  1  1
 18 19  1  0
 19 20  1  0
 20 21  1  6
 20 22  1  0
 22 23  1  0
 23 24  1  0
 24 25  1  6
 24 26  1  0
 26 27  1  6
 27 28  1  0
 28 29  1  0
 29 30  1  6
 29 11  1  0
 29 14  1  0
 26 15  1  0
 24 18  1  0
M  END
>  <MS_ID>  (1605) 
MS1668

>  <SMILES>  (1605) 
CCCOC(=O)CC[C@@H](C)[C@H]1CC[C@H]2[C@@H]3CC[C@@H]4C[C@@H](O)CC[C@]4(C)[C@H]3CC[C@]12C

>  <Structure_dimension>  (1605) 
2D

$$$$
MS1669
     RDKit          2D

 42 46  0  0  0  0  0  0  0  0999 V2000
   -8.1370   -2.1173    0.0000 C   0  0  0  0  0  0  0  0  0  0  0  0
   -7.0068   -1.1310    0.0000 C   0  0  0  0  0  0  0  0  0  0  0  0
   -7.2959    0.3409    0.0000 C   0  0  0  0  0  0  0  0  0  0  0  0
   -8.7152    0.8265    0.0000 C   0  0  0  0  0  0  0  0  0  0  0  0
   -9.0043    2.2983    0.0000 C   0  0  0  0  0  0  0  0  0  0  0  0
   -7.8741    3.2846    0.0000 O   0  0  0  0  0  0  0  0  0  0  0  0
  -10.4235    2.7839    0.0000 O   0  0  0  0  0  0  0  0  0  0  0  0
   -5.5876   -1.6166    0.0000 C   0  0  0  0  0  0  0  0  0  0  0  0
   -5.1462   -3.0502    0.0000 C   0  0  0  0  0  0  0  0  0  0  0  0
   -3.6464   -3.0734    0.0000 C   0  0  0  0  0  0  0  0  0  0  0  0
   -3.1608   -1.6542    0.0000 C   0  0  0  0  0  0  0  0  0  0  0  0
   -1.7812   -1.0654    0.0000 C   0  0  0  0  0  0  0  0  0  0  0  0
   -0.5815   -1.9657    0.0000 C   0  0  0  0  0  0  0  0  0  0  0  0
   -0.7614   -3.4549    0.0000 O   0  0  0  0  0  0  0  0  0  0  0  0
    0.7981   -1.3769    0.0000 C   0  0  0  0  0  0  0  0  0  0  0  0
    0.9780    0.1122    0.0000 C   0  0  0  0  0  0  0  0  0  0  0  0
    2.3576    0.7010    0.0000 C   0  0  0  0  0  0  0  0  0  0  0  0
    2.5375    2.1902    0.0000 C   0  0  0  0  0  0  0  0  0  0  0  0
    3.9171    2.7790    0.0000 O   0  0  0  0  0  0  0  0  0  0  0  0
    5.1168    1.8786    0.0000 C   0  0  0  0  0  0  0  0  0  0  0  0
    4.9369    0.3895    0.0000 O   0  0  0  0  0  0  0  0  0  0  0  0
    6.1366   -0.5109    0.0000 C   0  0  0  0  0  0  0  0  0  0  0  0
    5.9567   -2.0001    0.0000 C   0  0  0  0  0  0  0  0  0  0  0  0
    7.1565   -2.9005    0.0000 O   0  0  0  0  0  0  0  0  0  0  0  0
    4.5771   -2.5889    0.0000 O   0  0  0  0  0  0  0  0  0  0  0  0
    4.3973   -4.0781    0.0000 C   0  0  0  0  0  0  0  0  0  0  0  0
    3.0176   -4.6669    0.0000 O   0  0  0  0  0  0  0  0  0  0  0  0
    7.5162    0.0779    0.0000 C   0  0  0  0  0  0  0  0  0  0  0  0
    8.7160   -0.8225    0.0000 O   0  0  0  0  0  0  0  0  0  0  0  0
    7.6961    1.5671    0.0000 C   0  0  0  0  0  0  0  0  0  0  0  0
    9.0757    2.1559    0.0000 O   0  0  0  0  0  0  0  0  0  0  0  0
    6.4964    2.4674    0.0000 C   0  0  0  0  0  0  0  0  0  0  0  0
    6.6763    3.9566    0.0000 O   0  0  0  0  0  0  0  0  0  0  0  0
    1.3378    3.0906    0.0000 C   0  0  0  0  0  0  0  0  0  0  0  0
   -0.0418    2.5018    0.0000 C   0  0  0  0  0  0  0  0  0  0  0  0
   -0.2217    1.0126    0.0000 C   0  0  0  0  0  0  0  0  0  0  0  0
   -1.4215    1.9130    0.0000 C   0  0  0  0  0  0  0  0  0  0  0  0
   -1.6013    0.4238    0.0000 C   0  0  0  0  0  0  0  0  0  0  0  0
   -2.8011    1.3242    0.0000 C   0  0  0  0  0  0  0  0  0  0  0  0
   -4.1807    0.7354    0.0000 C   0  0  0  0  0  0  0  0  0  0  0  0
   -4.3606   -0.7538    0.0000 C   0  0  0  0  0  0  0  0  0  0  0  0
   -5.6478    0.0162    0.0000 C   0  0  0  0  0  0  0  0  0  0  0  0
  2  1  1  6
  2  3  1  0
  3  4  1  0
  4  5  1  0
  5  6  2  0
  5  7  1  0
  2  8  1  0
  8  9  1  6
  9 10  1  0
 11 10  1  6
 11 12  1  0
 12 13  1  1
 13 14  1  6
 13 15  1  0
 16 15  1  1
 16 17  1  0
 17 18  1  0
 18 19  1  1
 20 19  1  1
 20 21  1  0
 21 22  1  0
 22 23  1  1
 23 24  2  0
 23 25  1  0
 25 26  1  0
 26 27  1  0
 22 28  1  0
 28 29  1  6
 28 30  1  0
 30 31  1  1
 30 32  1  0
 32 33  1  6
 18 34  1  0
 34 35  1  0
 35 36  1  0
 36 37  1  6
 36 38  1  0
 38 39  1  6
 39 40  1  0
 40 41  1  0
 41 42  1  6
 41  8  1  0
 41 11  1  0
 38 12  1  0
 36 16  1  0
 32 20  1  0
M  END
>  <MS_ID>  (1606) 
MS1669

>  <SMILES>  (1606) 
C[C@H](CCC(=O)O)[C@H]1CC[C@H]2[C@@H]3[C@@H](O)C[C@@H]4C[C@H](O[C@@H]5O[C@H](C(=O)OCO)[C@@H](O)[C@H](O)[C@H]5O)CC[C@]4(C)[C@H]3CC[C@]12C

>  <Structure_dimension>  (1606) 
2D

$$$$
MS1671
     RDKit          2D

 30 33  0  0  0  0  0  0  0  0999 V2000
   -8.9136    3.2062    0.0000 C   0  0  0  0  0  0  0  0  0  0  0  0
   -7.4457    2.8978    0.0000 O   0  0  0  0  0  0  0  0  0  0  0  0
   -6.9787    1.4724    0.0000 N   0  0  0  0  0  0  0  0  0  0  0  0
   -5.5108    1.1640    0.0000 C   0  0  0  0  0  0  0  0  0  0  0  0
   -4.5097    2.2811    0.0000 O   0  0  0  0  0  0  0  0  0  0  0  0
   -5.0438   -0.2615    0.0000 C   0  0  0  0  0  0  0  0  0  0  0  0
   -3.5759   -0.5698    0.0000 C   0  0  0  0  0  0  0  0  0  0  0  0
   -3.1089   -1.9953    0.0000 C   0  0  0  0  0  0  0  0  0  0  0  0
   -4.1099   -3.1124    0.0000 C   0  0  0  0  0  0  0  0  0  0  0  0
   -1.6409   -2.3036    0.0000 C   0  0  0  0  0  0  0  0  0  0  0  0
   -1.0276   -3.6725    0.0000 C   0  0  0  0  0  0  0  0  0  0  0  0
    0.4638   -3.5121    0.0000 C   0  0  0  0  0  0  0  0  0  0  0  0
    0.7722   -2.0441    0.0000 C   0  0  0  0  0  0  0  0  0  0  0  0
    2.0694   -1.2910    0.0000 C   0  0  0  0  0  0  0  0  0  0  0  0
    3.3703   -2.0379    0.0000 C   0  0  0  0  0  0  0  0  0  0  0  0
    3.3739   -3.5379    0.0000 O   0  0  0  0  0  0  0  0  0  0  0  0
    4.6675   -1.2848    0.0000 C   0  0  0  0  0  0  0  0  0  0  0  0
    4.6639    0.2152    0.0000 C   0  0  0  0  0  0  0  0  0  0  0  0
    5.9611    0.9683    0.0000 C   0  0  0  0  0  0  0  0  0  0  0  0
    5.9575    2.4683    0.0000 C   0  0  0  0  0  0  0  0  0  0  0  0
    7.2548    3.2214    0.0000 O   0  0  0  0  0  0  0  0  0  0  0  0
    4.6567    3.2152    0.0000 C   0  0  0  0  0  0  0  0  0  0  0  0
    3.3595    2.4621    0.0000 C   0  0  0  0  0  0  0  0  0  0  0  0
    3.3631    0.9621    0.0000 C   0  0  0  0  0  0  0  0  0  0  0  0
    2.0622    1.7090    0.0000 C   0  0  0  0  0  0  0  0  0  0  0  0
    2.0658    0.2090    0.0000 C   0  0  0  0  0  0  0  0  0  0  0  0
    0.7650    0.9559    0.0000 C   0  0  0  0  0  0  0  0  0  0  0  0
   -0.5322    0.2027    0.0000 C   0  0  0  0  0  0  0  0  0  0  0  0
   -0.5286   -1.2973    0.0000 C   0  0  0  0  0  0  0  0  0  0  0  0
   -1.9004   -0.6904    0.0000 C   0  0  0  0  0  0  0  0  0  0  0  0
  1  2  1  0
  2  3  1  0
  3  4  1  0
  4  5  2  0
  4  6  1  0
  6  7  1  0
  7  8  1  0
  8  9  1  6
  8 10  1  0
 10 11  1  6
 11 12  1  0
 13 12  1  6
 13 14  1  0
 14 15  1  1
 15 16  1  1
 15 17  1  0
 18 17  1  1
 18 19  1  0
 19 20  1  0
 20 21  1  1
 20 22  1  0
 22 23  1  0
 23 24  1  0
 24 25  1  6
 24 26  1  0
 26 27  1  6
 27 28  1  0
 28 29  1  0
 29 30  1  6
 29 10  1  0
 29 13  1  0
 26 14  1  0
 24 18  1  0
M  END
>  <MS_ID>  (1607) 
MS1671

>  <SMILES>  (1607) 
CONC(=O)CC[C@@H](C)[C@H]1CC[C@H]2[C@@H]3[C@H](O)C[C@@H]4C[C@H](O)CC[C@]4(C)[C@H]3CC[C@]12C

>  <Structure_dimension>  (1607) 
2D

$$$$
MS1672
     RDKit          2D

 32 35  0  0  0  0  0  0  0  0999 V2000
   -6.0659   -1.8985    0.0000 C   0  0  0  0  0  0  0  0  0  0  0  0
   -4.8404   -1.0335    0.0000 C   0  0  0  0  0  0  0  0  0  0  0  0
   -4.9767    0.4603    0.0000 C   0  0  0  0  0  0  0  0  0  0  0  0
   -6.3386    1.0891    0.0000 C   0  0  0  0  0  0  0  0  0  0  0  0
   -6.4749    2.5829    0.0000 C   0  0  0  0  0  0  0  0  0  0  0  0
   -5.2494    3.4479    0.0000 O   0  0  0  0  0  0  0  0  0  0  0  0
   -7.8367    3.2118    0.0000 O   0  0  0  0  0  0  0  0  0  0  0  0
   -3.4786   -1.6624    0.0000 C   0  0  0  0  0  0  0  0  0  0  0  0
   -3.1869   -3.1337    0.0000 C   0  0  0  0  0  0  0  0  0  0  0  0
   -1.6974   -3.3110    0.0000 C   0  0  0  0  0  0  0  0  0  0  0  0
   -1.0686   -1.9492    0.0000 C   0  0  0  0  0  0  0  0  0  0  0  0
    0.3642   -1.5053    0.0000 C   0  0  0  0  0  0  0  0  0  0  0  0
    1.4651   -2.5242    0.0000 C   0  0  0  0  0  0  0  0  0  0  0  0
    1.1331   -3.9870    0.0000 O   0  0  0  0  0  0  0  0  0  0  0  0
    2.8979   -2.0803    0.0000 C   0  0  0  0  0  0  0  0  0  0  0  0
    3.2299   -0.6175    0.0000 C   0  0  0  0  0  0  0  0  0  0  0  0
    4.6627   -0.1735    0.0000 C   0  0  0  0  0  0  0  0  0  0  0  0
    4.9946    1.2893    0.0000 C   0  0  0  0  0  0  0  0  0  0  0  0
    6.4275    1.7332    0.0000 O   0  0  0  0  0  0  0  0  0  0  0  0
    7.5283    0.7143    0.0000 C   0  0  0  0  0  0  0  0  0  0  0  0
    8.9611    1.1582    0.0000 C   0  0  0  0  0  0  0  0  0  0  0  0
   10.0619    0.1393    0.0000 O   0  0  0  0  0  0  0  0  0  0  0  0
    3.8938    2.3082    0.0000 C   0  0  0  0  0  0  0  0  0  0  0  0
    2.4610    1.8643    0.0000 C   0  0  0  0  0  0  0  0  0  0  0  0
    2.1290    0.4014    0.0000 C   0  0  0  0  0  0  0  0  0  0  0  0
    1.0282    1.4203    0.0000 C   0  0  0  0  0  0  0  0  0  0  0  0
    0.6962   -0.0425    0.0000 C   0  0  0  0  0  0  0  0  0  0  0  0
   -0.4046    0.9764    0.0000 C   0  0  0  0  0  0  0  0  0  0  0  0
   -1.8374    0.5325    0.0000 C   0  0  0  0  0  0  0  0  0  0  0  0
   -2.9383    1.5514    0.0000 O   0  0  0  0  0  0  0  0  0  0  0  0
   -2.1694   -0.9303    0.0000 C   0  0  0  0  0  0  0  0  0  0  0  0
   -3.3707   -0.0320    0.0000 C   0  0  0  0  0  0  0  0  0  0  0  0
  2  1  1  6
  2  3  1  0
  3  4  1  0
  4  5  1  0
  5  6  2  0
  5  7  1  0
  2  8  1  0
  8  9  1  6
  9 10  1  0
 11 10  1  6
 11 12  1  0
 12 13  1  1
 13 14  1  6
 13 15  1  0
 16 15  1  1
 16 17  1  0
 17 18  1  0
 18 19  1  1
 19 20  1  0
 20 21  1  0
 21 22  1  0
 18 23  1  0
 23 24  1  0
 24 25  1  0
 25 26  1  6
 25 27  1  0
 27 28  1  6
 28 29  1  0
 29 30  2  0
 29 31  1  0
 31 32  1  6
 31  8  1  0
 31 11  1  0
 27 12  1  0
 25 16  1  0
M  END
>  <MS_ID>  (1608) 
MS1672

>  <SMILES>  (1608) 
C[C@H](CCC(=O)O)[C@H]1CC[C@H]2[C@@H]3[C@@H](O)C[C@@H]4C[C@H](OCCO)CC[C@]4(C)[C@H]3CC(=O)[C@]12C

>  <Structure_dimension>  (1608) 
2D

$$$$
MS1673
     RDKit          2D

 29 32  0  0  0  0  0  0  0  0999 V2000
   -5.1421   -2.1269    0.0000 C   0  0  0  0  0  0  0  0  0  0  0  0
   -4.0091   -1.1439    0.0000 C   0  0  0  0  0  0  0  0  0  0  0  0
   -4.2938    0.3288    0.0000 C   0  0  0  0  0  0  0  0  0  0  0  0
   -5.7116    0.8186    0.0000 C   0  0  0  0  0  0  0  0  0  0  0  0
   -5.9963    2.2913    0.0000 C   0  0  0  0  0  0  0  0  0  0  0  0
   -4.8632    3.2743    0.0000 O   0  0  0  0  0  0  0  0  0  0  0  0
   -7.4141    2.7811    0.0000 O   0  0  0  0  0  0  0  0  0  0  0  0
   -2.5913   -1.6337    0.0000 C   0  0  0  0  0  0  0  0  0  0  0  0
   -2.1542   -3.0686    0.0000 C   0  0  0  0  0  0  0  0  0  0  0  0
   -0.6544   -3.0963    0.0000 C   0  0  0  0  0  0  0  0  0  0  0  0
   -0.1646   -1.6785    0.0000 C   0  0  0  0  0  0  0  0  0  0  0  0
    1.2167   -1.0938    0.0000 C   0  0  0  0  0  0  0  0  0  0  0  0
    2.4137   -1.9977    0.0000 C   0  0  0  0  0  0  0  0  0  0  0  0
    2.2294   -3.4864    0.0000 C   0  0  0  0  0  0  0  0  0  0  0  0
    3.4265   -4.3903    0.0000 O   0  0  0  0  0  0  0  0  0  0  0  0
    3.7951   -1.4130    0.0000 C   0  0  0  0  0  0  0  0  0  0  0  0
    3.9794    0.0756    0.0000 C   0  0  0  0  0  0  0  0  0  0  0  0
    5.3607    0.6603    0.0000 C   0  0  0  0  0  0  0  0  0  0  0  0
    5.5451    2.1489    0.0000 C   0  0  0  0  0  0  0  0  0  0  0  0
    6.9264    2.7336    0.0000 O   0  0  0  0  0  0  0  0  0  0  0  0
    4.3480    3.0529    0.0000 C   0  0  0  0  0  0  0  0  0  0  0  0
    2.9667    2.4682    0.0000 C   0  0  0  0  0  0  0  0  0  0  0  0
    2.7824    0.9795    0.0000 C   0  0  0  0  0  0  0  0  0  0  0  0
    1.5853    1.8835    0.0000 C   0  0  0  0  0  0  0  0  0  0  0  0
    1.4010    0.3948    0.0000 C   0  0  0  0  0  0  0  0  0  0  0  0
    0.2040    1.2988    0.0000 C   0  0  0  0  0  0  0  0  0  0  0  0
   -1.1774    0.7141    0.0000 C   0  0  0  0  0  0  0  0  0  0  0  0
   -1.3617   -0.7746    0.0000 C   0  0  0  0  0  0  0  0  0  0  0  0
   -2.6467   -0.0007    0.0000 C   0  0  0  0  0  0  0  0  0  0  0  0
  2  1  1  6
  2  3  1  0
  3  4  1  0
  4  5  1  0
  5  6  2  0
  5  7  1  0
  2  8  1  0
  8  9  1  6
  9 10  1  0
 11 10  1  6
 11 12  1  0
 12 13  1  1
 13 14  1  6
 14 15  2  0
 13 16  1  0
 17 16  1  1
 17 18  1  0
 18 19  1  0
 19 20  1  1
 19 21  1  0
 21 22  1  0
 22 23  1  0
 23 24  1  6
 23 25  1  0
 25 26  1  6
 26 27  1  0
 27 28  1  0
 28 29  1  6
 28  8  1  0
 28 11  1  0
 25 12  1  0
 23 17  1  0
M  END
>  <MS_ID>  (1609) 
MS1673

>  <SMILES>  (1609) 
C[C@H](CCC(=O)O)[C@H]1CC[C@H]2[C@@H]3[C@@H](C=O)C[C@@H]4C[C@H](O)CC[C@]4(C)[C@H]3CC[C@]12C

>  <Structure_dimension>  (1609) 
2D

$$$$
MS1674
     RDKit          2D

 30 33  0  0  0  0  0  0  0  0999 V2000
   -5.8176   -1.7103    0.0000 C   0  0  0  0  0  0  0  0  0  0  0  0
   -4.5630   -0.8881    0.0000 C   0  0  0  0  0  0  0  0  0  0  0  0
   -4.6476    0.6095    0.0000 C   0  0  0  0  0  0  0  0  0  0  0  0
   -5.9869    1.2849    0.0000 C   0  0  0  0  0  0  0  0  0  0  0  0
   -6.0716    2.7826    0.0000 C   0  0  0  0  0  0  0  0  0  0  0  0
   -4.8170    3.6047    0.0000 O   0  0  0  0  0  0  0  0  0  0  0  0
   -7.4109    3.4580    0.0000 O   0  0  0  0  0  0  0  0  0  0  0  0
   -3.2237   -1.5636    0.0000 C   0  0  0  0  0  0  0  0  0  0  0  0
   -2.9829   -3.0442    0.0000 C   0  0  0  0  0  0  0  0  0  0  0  0
   -1.5004   -3.2727    0.0000 C   0  0  0  0  0  0  0  0  0  0  0  0
   -0.8249   -1.9334    0.0000 C   0  0  0  0  0  0  0  0  0  0  0  0
    0.6223   -1.5392    0.0000 C   0  0  0  0  0  0  0  0  0  0  0  0
    1.6874   -2.5955    0.0000 C   0  0  0  0  0  0  0  0  0  0  0  0
    1.3051   -4.0460    0.0000 O   0  0  0  0  0  0  0  0  0  0  0  0
    3.1346   -2.2013    0.0000 C   0  0  0  0  0  0  0  0  0  0  0  0
    3.5169   -0.7508    0.0000 C   0  0  0  0  0  0  0  0  0  0  0  0
    4.9642   -0.3567    0.0000 C   0  0  0  0  0  0  0  0  0  0  0  0
    5.3464    1.0938    0.0000 C   0  0  0  0  0  0  0  0  0  0  0  0
    6.7937    1.4880    0.0000 N   0  0  0  0  0  0  0  0  0  0  0  0
    7.8587    0.4317    0.0000 C   0  0  0  0  0  0  0  0  0  0  0  0
    7.1760    2.9385    0.0000 C   0  0  0  0  0  0  0  0  0  0  0  0
    4.2814    2.1501    0.0000 C   0  0  0  0  0  0  0  0  0  0  0  0
    2.8341    1.7559    0.0000 C   0  0  0  0  0  0  0  0  0  0  0  0
    2.4519    0.3054    0.0000 C   0  0  0  0  0  0  0  0  0  0  0  0
    1.3869    1.3617    0.0000 C   0  0  0  0  0  0  0  0  0  0  0  0
    1.0046   -0.0888    0.0000 C   0  0  0  0  0  0  0  0  0  0  0  0
   -0.0604    0.9675    0.0000 C   0  0  0  0  0  0  0  0  0  0  0  0
   -1.5077    0.5733    0.0000 C   0  0  0  0  0  0  0  0  0  0  0  0
   -1.8900   -0.8771    0.0000 C   0  0  0  0  0  0  0  0  0  0  0  0
   -3.0596    0.0620    0.0000 C   0  0  0  0  0  0  0  0  0  0  0  0
  2  1  1  6
  2  3  1  0
  3  4  1  0
  4  5  1  0
  5  6  2  0
  5  7  1  0
  2  8  1  0
  8  9  1  6
  9 10  1  0
 11 10  1  6
 11 12  1  0
 12 13  1  1
 13 14  1  1
 13 15  1  0
 16 15  1  1
 16 17  1  0
 17 18  1  0
 18 19  1  1
 19 20  1  0
 19 21  1  0
 18 22  1  0
 22 23  1  0
 23 24  1  0
 24 25  1  6
 24 26  1  0
 26 27  1  6
 27 28  1  0
 28 29  1  0
 29 30  1  6
 29  8  1  0
 29 11  1  0
 26 12  1  0
 24 16  1  0
M  END
>  <MS_ID>  (1610) 
MS1674

>  <SMILES>  (1610) 
C[C@H](CCC(=O)O)[C@H]1CC[C@H]2[C@@H]3[C@H](O)C[C@@H]4C[C@H](N(C)C)CC[C@]4(C)[C@H]3CC[C@]12C

>  <Structure_dimension>  (1610) 
2D

$$$$
MS1675
     RDKit          2D

 31 34  0  0  0  0  0  0  0  0999 V2000
   -5.1495   -2.4402    0.0000 C   0  0  0  0  0  0  0  0  0  0  0  0
   -4.1405   -1.3302    0.0000 C   0  0  0  0  0  0  0  0  0  0  0  0
   -4.5973    0.0985    0.0000 C   0  0  0  0  0  0  0  0  0  0  0  0
   -6.0631    0.4173    0.0000 C   0  0  0  0  0  0  0  0  0  0  0  0
   -6.5199    1.8461    0.0000 C   0  0  0  0  0  0  0  0  0  0  0  0
   -5.5109    2.9561    0.0000 O   0  0  0  0  0  0  0  0  0  0  0  0
   -7.9856    2.1649    0.0000 O   0  0  0  0  0  0  0  0  0  0  0  0
   -2.6748   -1.6490    0.0000 C   0  0  0  0  0  0  0  0  0  0  0  0
   -2.0712   -3.0222    0.0000 C   0  0  0  0  0  0  0  0  0  0  0  0
   -0.5787   -2.8724    0.0000 C   0  0  0  0  0  0  0  0  0  0  0  0
   -0.2599   -1.4067    0.0000 C   0  0  0  0  0  0  0  0  0  0  0  0
    1.0427   -0.6628    0.0000 C   0  0  0  0  0  0  0  0  0  0  0  0
    2.3382   -1.4189    0.0000 C   0  0  0  0  0  0  0  0  0  0  0  0
    2.3311   -2.9189    0.0000 N   0  0  0  0  0  0  0  0  0  0  0  0
    3.6266   -3.6750    0.0000 C   0  0  0  0  0  0  0  0  0  0  0  0
    3.6195   -5.1750    0.0000 N   0  0  0  0  0  0  0  0  0  0  0  0
    4.9291   -2.9312    0.0000 O   0  0  0  0  0  0  0  0  0  0  0  0
    3.6407   -0.6751    0.0000 C   0  0  0  0  0  0  0  0  0  0  0  0
    3.6478    0.8249    0.0000 C   0  0  0  0  0  0  0  0  0  0  0  0
    4.9504    1.5688    0.0000 C   0  0  0  0  0  0  0  0  0  0  0  0
    4.9574    3.0688    0.0000 C   0  0  0  0  0  0  0  0  0  0  0  0
    6.2600    3.8127    0.0000 O   0  0  0  0  0  0  0  0  0  0  0  0
    3.6619    3.8249    0.0000 C   0  0  0  0  0  0  0  0  0  0  0  0
    2.3594    3.0810    0.0000 C   0  0  0  0  0  0  0  0  0  0  0  0
    2.3523    1.5810    0.0000 C   0  0  0  0  0  0  0  0  0  0  0  0
    1.0568    2.3372    0.0000 C   0  0  0  0  0  0  0  0  0  0  0  0
    1.0497    0.8372    0.0000 C   0  0  0  0  0  0  0  0  0  0  0  0
   -0.2457    1.5933    0.0000 C   0  0  0  0  0  0  0  0  0  0  0  0
   -1.5483    0.8494    0.0000 C   0  0  0  0  0  0  0  0  0  0  0  0
   -1.5554   -0.6506    0.0000 C   0  0  0  0  0  0  0  0  0  0  0  0
   -2.9228   -0.0340    0.0000 C   0  0  0  0  0  0  0  0  0  0  0  0
  2  1  1  6
  2  3  1  0
  3  4  1  0
  4  5  1  0
  5  6  2  0
  5  7  1  0
  2  8  1  0
  8  9  1  6
  9 10  1  0
 11 10  1  6
 11 12  1  0
 12 13  1  1
 13 14  1  1
 14 15  1  0
 15 16  1  0
 15 17  2  0
 13 18  1  0
 19 18  1  1
 19 20  1  0
 20 21  1  0
 21 22  1  1
 21 23  1  0
 23 24  1  0
 24 25  1  0
 25 26  1  6
 25 27  1  0
 27 28  1  6
 28 29  1  0
 29 30  1  0
 30 31  1  6
 30  8  1  0
 30 11  1  0
 27 12  1  0
 25 19  1  0
M  END
>  <MS_ID>  (1611) 
MS1675

>  <SMILES>  (1611) 
C[C@H](CCC(=O)O)[C@H]1CC[C@H]2[C@@H]3[C@H](NC(N)=O)C[C@@H]4C[C@H](O)CC[C@]4(C)[C@H]3CC[C@]12C

>  <Structure_dimension>  (1611) 
2D

$$$$
MS1676
     RDKit          2D

 32 35  0  0  0  0  0  0  0  0999 V2000
   -4.8803   -2.7444    0.0000 C   0  0  0  0  0  0  0  0  0  0  0  0
   -3.9514   -1.5666    0.0000 C   0  0  0  0  0  0  0  0  0  0  0  0
   -4.5069   -0.1733    0.0000 C   0  0  0  0  0  0  0  0  0  0  0  0
   -5.9914    0.0423    0.0000 C   0  0  0  0  0  0  0  0  0  0  0  0
   -6.5469    1.4356    0.0000 C   0  0  0  0  0  0  0  0  0  0  0  0
   -5.6180    2.6134    0.0000 O   0  0  0  0  0  0  0  0  0  0  0  0
   -8.0313    1.6512    0.0000 O   0  0  0  0  0  0  0  0  0  0  0  0
   -2.4670   -1.7822    0.0000 C   0  0  0  0  0  0  0  0  0  0  0  0
   -1.7688   -3.1098    0.0000 C   0  0  0  0  0  0  0  0  0  0  0  0
   -0.2905   -2.8561    0.0000 C   0  0  0  0  0  0  0  0  0  0  0  0
   -0.0749   -1.3717    0.0000 C   0  0  0  0  0  0  0  0  0  0  0  0
    1.1725   -0.5386    0.0000 C   0  0  0  0  0  0  0  0  0  0  0  0
    2.5177   -1.2023    0.0000 C   0  0  0  0  0  0  0  0  0  0  0  0
    2.6154   -2.6991    0.0000 C   0  0  0  0  0  0  0  0  0  0  0  0
    3.9606   -3.3629    0.0000 C   0  0  0  0  0  0  0  0  0  0  0  0
    4.0584   -4.8597    0.0000 C   0  0  0  0  0  0  0  0  0  0  0  0
    5.4035   -5.5234    0.0000 O   0  0  0  0  0  0  0  0  0  0  0  0
    3.7650   -0.3693    0.0000 C   0  0  0  0  0  0  0  0  0  0  0  0
    3.6673    1.1276    0.0000 C   0  0  0  0  0  0  0  0  0  0  0  0
    4.9147    1.9606    0.0000 C   0  0  0  0  0  0  0  0  0  0  0  0
    4.8169    3.4574    0.0000 C   0  0  0  0  0  0  0  0  0  0  0  0
    6.0643    4.2905    0.0000 O   0  0  0  0  0  0  0  0  0  0  0  0
    3.4717    4.1212    0.0000 C   0  0  0  0  0  0  0  0  0  0  0  0
    2.2243    3.2881    0.0000 C   0  0  0  0  0  0  0  0  0  0  0  0
    2.3221    1.7913    0.0000 C   0  0  0  0  0  0  0  0  0  0  0  0
    0.9769    2.4550    0.0000 C   0  0  0  0  0  0  0  0  0  0  0  0
    1.0747    0.9582    0.0000 C   0  0  0  0  0  0  0  0  0  0  0  0
   -0.2704    1.6219    0.0000 C   0  0  0  0  0  0  0  0  0  0  0  0
   -1.5178    0.7889    0.0000 C   0  0  0  0  0  0  0  0  0  0  0  0
   -2.8630    1.4526    0.0000 O   0  0  0  0  0  0  0  0  0  0  0  0
   -1.4201   -0.7080    0.0000 C   0  0  0  0  0  0  0  0  0  0  0  0
   -2.8272   -0.1885    0.0000 C   0  0  0  0  0  0  0  0  0  0  0  0
  2  1  1  6
  2  3  1  0
  3  4  1  0
  4  5  1  0
  5  6  2  0
  5  7  1  0
  2  8  1  0
  8  9  1  6
  9 10  1  0
 11 10  1  6
 11 12  1  0
 12 13  1  1
 13 14  1  1
 14 15  1  0
 15 16  1  0
 16 17  1  0
 13 18  1  0
 19 18  1  1
 19 20  1  0
 20 21  1  0
 21 22  1  1
 21 23  1  0
 23 24  1  0
 24 25  1  0
 25 26  1  6
 25 27  1  0
 27 28  1  6
 28 29  1  0
 29 30  2  0
 29 31  1  0
 31 32  1  6
 31  8  1  0
 31 11  1  0
 27 12  1  0
 25 19  1  0
M  END
>  <MS_ID>  (1612) 
MS1676

>  <SMILES>  (1612) 
C[C@H](CCC(=O)O)[C@H]1CC[C@H]2[C@@H]3[C@H](CCCO)C[C@@H]4C[C@H](O)CC[C@]4(C)[C@H]3CC(=O)[C@]12C

>  <Structure_dimension>  (1612) 
2D

$$$$
MS1677
     RDKit          2D

 29 32  0  0  0  0  0  0  0  0999 V2000
   -4.9165   -2.3086    0.0000 C   0  0  0  0  0  0  0  0  0  0  0  0
   -3.7338   -1.3860    0.0000 C   0  0  0  0  0  0  0  0  0  0  0  0
   -3.9415    0.0996    0.0000 C   0  0  0  0  0  0  0  0  0  0  0  0
   -5.3319    0.6625    0.0000 C   0  0  0  0  0  0  0  0  0  0  0  0
   -5.5396    2.1481    0.0000 C   0  0  0  0  0  0  0  0  0  0  0  0
   -4.3569    3.0707    0.0000 O   0  0  0  0  0  0  0  0  0  0  0  0
   -6.9299    2.7110    0.0000 O   0  0  0  0  0  0  0  0  0  0  0  0
   -2.3435   -1.9489    0.0000 C   0  0  0  0  0  0  0  0  0  0  0  0
   -1.9816   -3.4046    0.0000 C   0  0  0  0  0  0  0  0  0  0  0  0
   -0.4854   -3.5103    0.0000 C   0  0  0  0  0  0  0  0  0  0  0  0
    0.0775   -2.1199    0.0000 C   0  0  0  0  0  0  0  0  0  0  0  0
    1.4875   -1.6079    0.0000 C   0  0  0  0  0  0  0  0  0  0  0  0
    2.6358   -2.5730    0.0000 C   0  0  0  0  0  0  0  0  0  0  0  0
    4.0457   -2.0609    0.0000 C   0  0  0  0  0  0  0  0  0  0  0  0
    4.3073   -0.5839    0.0000 C   0  0  0  0  0  0  0  0  0  0  0  0
    5.7172   -0.0719    0.0000 C   0  0  0  0  0  0  0  0  0  0  0  0
    5.9787    1.4051    0.0000 C   0  0  0  0  0  0  0  0  0  0  0  0
    7.3886    1.9171    0.0000 O   0  0  0  0  0  0  0  0  0  0  0  0
    4.8304    2.3701    0.0000 C   0  0  0  0  0  0  0  0  0  0  0  0
    3.4205    1.8581    0.0000 C   0  0  0  0  0  0  0  0  0  0  0  0
    3.1589    0.3811    0.0000 C   0  0  0  0  0  0  0  0  0  0  0  0
    2.0105    1.3461    0.0000 C   0  0  0  0  0  0  0  0  0  0  0  0
    1.7490   -0.1309    0.0000 C   0  0  0  0  0  0  0  0  0  0  0  0
    0.6006    0.8341    0.0000 C   0  0  0  0  0  0  0  0  0  0  0  0
   -0.8093    0.3221    0.0000 C   0  0  0  0  0  0  0  0  0  0  0  0
   -1.9576    1.2871    0.0000 O   0  0  0  0  0  0  0  0  0  0  0  0
   -1.6961    2.7641    0.0000 O   0  0  0  0  0  0  0  0  0  0  0  0
   -1.0708   -1.1549    0.0000 C   0  0  0  0  0  0  0  0  0  0  0  0
   -2.3138   -0.3152    0.0000 C   0  0  0  0  0  0  0  0  0  0  0  0
  2  1  1  6
  2  3  1  0
  3  4  1  0
  4  5  1  0
  5  6  2  0
  5  7  1  0
  2  8  1  0
  8  9  1  6
  9 10  1  0
 11 10  1  6
 11 12  1  0
 12 13  1  1
 13 14  1  0
 15 14  1  1
 15 16  1  0
 16 17  1  0
 17 18  1  1
 17 19  1  0
 19 20  1  0
 20 21  1  0
 21 22  1  6
 21 23  1  0
 23 24  1  6
 24 25  1  0
 25 26  1  6
 26 27  1  0
 25 28  1  0
 28 29  1  6
 28  8  1  0
 28 11  1  0
 23 12  1  0
 21 15  1  0
M  END
>  <MS_ID>  (1613) 
MS1677

>  <SMILES>  (1613) 
C[C@H](CCC(=O)O)[C@H]1CC[C@H]2[C@@H]3CC[C@@H]4C[C@H](O)CC[C@]4(C)[C@H]3C[C@@H](OO)[C@]12C

>  <Structure_dimension>  (1613) 
2D

$$$$
MS1678
     RDKit          2D

 30 33  0  0  0  0  0  0  0  0999 V2000
   -5.3211   -2.0238    0.0000 C   0  0  0  0  0  0  0  0  0  0  0  0
   -4.1189   -1.1267    0.0000 C   0  0  0  0  0  0  0  0  0  0  0  0
   -4.2947    0.3629    0.0000 C   0  0  0  0  0  0  0  0  0  0  0  0
   -5.6727    0.9555    0.0000 C   0  0  0  0  0  0  0  0  0  0  0  0
   -5.8485    2.4452    0.0000 C   0  0  0  0  0  0  0  0  0  0  0  0
   -4.6463    3.3422    0.0000 O   0  0  0  0  0  0  0  0  0  0  0  0
   -7.2265    3.0377    0.0000 O   0  0  0  0  0  0  0  0  0  0  0  0
   -2.7409   -1.7193    0.0000 C   0  0  0  0  0  0  0  0  0  0  0  0
   -2.4104   -3.1825    0.0000 C   0  0  0  0  0  0  0  0  0  0  0  0
   -0.9167   -3.3202    0.0000 C   0  0  0  0  0  0  0  0  0  0  0  0
   -0.3241   -1.9422    0.0000 C   0  0  0  0  0  0  0  0  0  0  0  0
    1.0964   -1.4605    0.0000 C   0  0  0  0  0  0  0  0  0  0  0  0
    2.2239   -2.4499    0.0000 C   0  0  0  0  0  0  0  0  0  0  0  0
    1.9307   -3.9210    0.0000 O   0  0  0  0  0  0  0  0  0  0  0  0
    3.6444   -1.9683    0.0000 C   0  0  0  0  0  0  0  0  0  0  0  0
    3.9375   -0.4972    0.0000 C   0  0  0  0  0  0  0  0  0  0  0  0
    5.3581   -0.0155    0.0000 C   0  0  0  0  0  0  0  0  0  0  0  0
    5.6512    1.4556    0.0000 C   0  0  0  0  0  0  0  0  0  0  0  0
    6.4298    2.7377    0.0000 C   0  0  0  0  0  0  0  0  0  0  0  0
    7.0491    0.9114    0.0000 O   0  0  0  0  0  0  0  0  0  0  0  0
    4.5238    2.4450    0.0000 C   0  0  0  0  0  0  0  0  0  0  0  0
    3.1033    1.9633    0.0000 C   0  0  0  0  0  0  0  0  0  0  0  0
    2.8101    0.4922    0.0000 C   0  0  0  0  0  0  0  0  0  0  0  0
    1.6827    1.4816    0.0000 C   0  0  0  0  0  0  0  0  0  0  0  0
    1.3896    0.0105    0.0000 C   0  0  0  0  0  0  0  0  0  0  0  0
    0.2621    0.9999    0.0000 C   0  0  0  0  0  0  0  0  0  0  0  0
   -1.1584    0.5183    0.0000 C   0  0  0  0  0  0  0  0  0  0  0  0
   -2.2858    1.5077    0.0000 O   0  0  0  0  0  0  0  0  0  0  0  0
   -1.4515   -0.9528    0.0000 C   0  0  0  0  0  0  0  0  0  0  0  0
   -2.6762   -0.0867    0.0000 C   0  0  0  0  0  0  0  0  0  0  0  0
  2  1  1  6
  2  3  1  0
  3  4  1  0
  4  5  1  0
  5  6  2  0
  5  7  1  0
  2  8  1  0
  8  9  1  6
  9 10  1  0
 11 10  1  6
 11 12  1  0
 12 13  1  1
 13 14  1  6
 13 15  1  0
 16 15  1  1
 16 17  1  0
 17 18  1  0
 18 19  1  1
 18 20  1  0
 18 21  1  0
 21 22  1  0
 22 23  1  0
 23 24  1  6
 23 25  1  0
 25 26  1  6
 26 27  1  0
 27 28  1  1
 27 29  1  0
 29 30  1  6
 29  8  1  0
 29 11  1  0
 25 12  1  0
 23 16  1  0
M  END
>  <MS_ID>  (1614) 
MS1678

>  <SMILES>  (1614) 
C[C@H](CCC(=O)O)[C@H]1CC[C@H]2[C@@H]3[C@@H](O)C[C@@H]4C[C@@](C)(O)CC[C@]4(C)[C@H]3C[C@H](O)[C@]12C

>  <Structure_dimension>  (1614) 
2D

$$$$
MS1679
     RDKit          2D

 35 39  0  0  0  0  0  0  0  0999 V2000
   -2.8765   -3.3063    0.0000 C   0  0  0  0  0  0  0  0  0  0  0  0
   -1.9107   -2.1586    0.0000 C   0  0  0  0  0  0  0  0  0  0  0  0
   -2.4217   -0.7484    0.0000 C   0  0  0  0  0  0  0  0  0  0  0  0
   -3.8985   -0.4857    0.0000 C   0  0  0  0  0  0  0  0  0  0  0  0
   -4.4095    0.9245    0.0000 C   0  0  0  0  0  0  0  0  0  0  0  0
   -3.4437    2.0722    0.0000 O   0  0  0  0  0  0  0  0  0  0  0  0
   -5.8863    1.1871    0.0000 C   0  0  0  0  0  0  0  0  0  0  0  0
   -6.3973    2.5974    0.0000 C   0  0  0  0  0  0  0  0  0  0  0  0
   -7.8742    2.8600    0.0000 C   0  0  0  0  0  0  0  0  0  0  0  0
   -8.8400    1.7124    0.0000 C   0  0  0  0  0  0  0  0  0  0  0  0
   -8.3290    0.3021    0.0000 C   0  0  0  0  0  0  0  0  0  0  0  0
   -9.2948   -0.8456    0.0000 F   0  0  0  0  0  0  0  0  0  0  0  0
   -6.8522    0.0395    0.0000 C   0  0  0  0  0  0  0  0  0  0  0  0
   -0.4338   -2.4212    0.0000 C   0  0  0  0  0  0  0  0  0  0  0  0
    0.2218   -3.7704    0.0000 C   0  0  0  0  0  0  0  0  0  0  0  0
    1.7075   -3.5638    0.0000 C   0  0  0  0  0  0  0  0  0  0  0  0
    1.9701   -2.0869    0.0000 C   0  0  0  0  0  0  0  0  0  0  0  0
    3.2433   -1.2939    0.0000 C   0  0  0  0  0  0  0  0  0  0  0  0
    4.5667   -2.0000    0.0000 C   0  0  0  0  0  0  0  0  0  0  0  0
    4.6169   -3.4992    0.0000 O   0  0  0  0  0  0  0  0  0  0  0  0
    5.8399   -1.2070    0.0000 C   0  0  0  0  0  0  0  0  0  0  0  0
    5.7897    0.2922    0.0000 C   0  0  0  0  0  0  0  0  0  0  0  0
    7.0630    1.0852    0.0000 C   0  0  0  0  0  0  0  0  0  0  0  0
    7.0128    2.5844    0.0000 C   0  0  0  0  0  0  0  0  0  0  0  0
    8.2860    3.3774    0.0000 O   0  0  0  0  0  0  0  0  0  0  0  0
    5.6894    3.2905    0.0000 C   0  0  0  0  0  0  0  0  0  0  0  0
    4.4162    2.4975    0.0000 C   0  0  0  0  0  0  0  0  0  0  0  0
    4.4663    0.9983    0.0000 C   0  0  0  0  0  0  0  0  0  0  0  0
    3.1429    1.7044    0.0000 C   0  0  0  0  0  0  0  0  0  0  0  0
    3.1931    0.2053    0.0000 C   0  0  0  0  0  0  0  0  0  0  0  0
    1.8697    0.9114    0.0000 C   0  0  0  0  0  0  0  0  0  0  0  0
    0.5965    0.1184    0.0000 C   0  0  0  0  0  0  0  0  0  0  0  0
   -0.7269    0.8245    0.0000 O   0  0  0  0  0  0  0  0  0  0  0  0
    0.6467   -1.3808    0.0000 C   0  0  0  0  0  0  0  0  0  0  0  0
   -0.7433   -0.8169    0.0000 C   0  0  0  0  0  0  0  0  0  0  0  0
  2  1  1  6
  2  3  1  0
  3  4  1  0
  4  5  1  0
  5  6  2  0
  5  7  1  0
  7  8  2  0
  8  9  1  0
  9 10  2  0
 10 11  1  0
 11 12  1  0
 11 13  2  0
  2 14  1  0
 14 15  1  6
 15 16  1  0
 17 16  1  6
 17 18  1  0
 18 19  1  1
 19 20  1  1
 19 21  1  0
 22 21  1  1
 22 23  1  0
 23 24  1  0
 24 25  1  1
 24 26  1  0
 26 27  1  0
 27 28  1  0
 28 29  1  6
 28 30  1  0
 30 31  1  6
 31 32  1  0
 32 33  1  1
 32 34  1  0
 34 35  1  6
 13  7  1  0
 34 14  1  0
 34 17  1  0
 30 18  1  0
 28 22  1  0
M  END
>  <MS_ID>  (1615) 
MS1679

>  <SMILES>  (1615) 
C[C@H](CCC(=O)c1cccc(F)c1)[C@H]1CC[C@H]2[C@@H]3[C@H](O)C[C@@H]4C[C@H](O)CC[C@]4(C)[C@H]3C[C@H](O)[C@]12C

>  <Structure_dimension>  (1615) 
2D

$$$$
MS1680
     RDKit          2D

 29 32  0  0  0  0  0  0  0  0999 V2000
   -5.0303   -2.1373    0.0000 C   0  0  0  0  0  0  0  0  0  0  0  0
   -3.8594   -1.1998    0.0000 C   0  0  0  0  0  0  0  0  0  0  0  0
   -4.0858    0.2830    0.0000 C   0  0  0  0  0  0  0  0  0  0  0  0
   -5.4831    0.8284    0.0000 C   0  0  0  0  0  0  0  0  0  0  0  0
   -5.7095    2.3112    0.0000 C   0  0  0  0  0  0  0  0  0  0  0  0
   -4.5386    3.2487    0.0000 O   0  0  0  0  0  0  0  0  0  0  0  0
   -7.1069    2.8565    0.0000 O   0  0  0  0  0  0  0  0  0  0  0  0
   -2.4620   -1.7451    0.0000 C   0  0  0  0  0  0  0  0  0  0  0  0
   -2.0818   -3.1961    0.0000 C   0  0  0  0  0  0  0  0  0  0  0  0
   -0.5844   -3.2830    0.0000 C   0  0  0  0  0  0  0  0  0  0  0  0
   -0.0390   -1.8856    0.0000 C   0  0  0  0  0  0  0  0  0  0  0  0
    1.3643   -1.3559    0.0000 C   0  0  0  0  0  0  0  0  0  0  0  0
    2.5248   -2.3063    0.0000 C   0  0  0  0  0  0  0  0  0  0  0  0
    2.2819   -3.7865    0.0000 N   0  0  0  0  0  0  0  0  0  0  0  0
    3.9281   -1.7765    0.0000 C   0  0  0  0  0  0  0  0  0  0  0  0
    4.1710   -0.2963    0.0000 C   0  0  0  0  0  0  0  0  0  0  0  0
    5.5743    0.2334    0.0000 C   0  0  0  0  0  0  0  0  0  0  0  0
    5.8172    1.7136    0.0000 C   0  0  0  0  0  0  0  0  0  0  0  0
    7.2205    2.2434    0.0000 O   0  0  0  0  0  0  0  0  0  0  0  0
    4.6568    2.6641    0.0000 C   0  0  0  0  0  0  0  0  0  0  0  0
    3.2534    2.1343    0.0000 C   0  0  0  0  0  0  0  0  0  0  0  0
    3.0105    0.6541    0.0000 C   0  0  0  0  0  0  0  0  0  0  0  0
    1.8501    1.6046    0.0000 C   0  0  0  0  0  0  0  0  0  0  0  0
    1.6072    0.1244    0.0000 C   0  0  0  0  0  0  0  0  0  0  0  0
    0.4467    1.0748    0.0000 C   0  0  0  0  0  0  0  0  0  0  0  0
   -0.9566    0.5450    0.0000 C   0  0  0  0  0  0  0  0  0  0  0  0
   -2.1170    1.4955    0.0000 O   0  0  0  0  0  0  0  0  0  0  0  0
   -1.1995   -0.9352    0.0000 C   0  0  0  0  0  0  0  0  0  0  0  0
   -2.4529   -0.1112    0.0000 C   0  0  0  0  0  0  0  0  0  0  0  0
  2  1  1  6
  2  3  1  0
  3  4  1  0
  4  5  1  0
  5  6  2  0
  5  7  1  0
  2  8  1  0
  8  9  1  6
  9 10  1  0
 11 10  1  6
 11 12  1  0
 12 13  1  1
 13 14  1  6
 13 15  1  0
 16 15  1  1
 16 17  1  0
 17 18  1  0
 18 19  1  1
 18 20  1  0
 20 21  1  0
 21 22  1  0
 22 23  1  6
 22 24  1  0
 24 25  1  6
 25 26  1  0
 26 27  1  1
 26 28  1  0
 28 29  1  6
 28  8  1  0
 28 11  1  0
 24 12  1  0
 22 16  1  0
M  END
>  <MS_ID>  (1616) 
MS1680

>  <SMILES>  (1616) 
C[C@H](CCC(=O)O)[C@H]1CC[C@H]2[C@@H]3[C@@H](N)C[C@@H]4C[C@H](O)CC[C@]4(C)[C@H]3C[C@H](O)[C@]12C

>  <Structure_dimension>  (1616) 
2D

$$$$
MS1681
     RDKit          2D

 31 34  0  0  0  0  0  0  0  0999 V2000
   -3.4301   -3.6172    0.0000 C   0  0  0  0  0  0  0  0  0  0  0  0
   -2.4973   -2.4425    0.0000 C   0  0  0  0  0  0  0  0  0  0  0  0
   -3.0483   -1.0473    0.0000 C   0  0  0  0  0  0  0  0  0  0  0  0
   -4.5321   -0.8270    0.0000 C   0  0  0  0  0  0  0  0  0  0  0  0
   -5.0831    0.5682    0.0000 C   0  0  0  0  0  0  0  0  0  0  0  0
   -4.1503    1.7429    0.0000 O   0  0  0  0  0  0  0  0  0  0  0  0
   -6.5668    0.7886    0.0000 N   0  0  0  0  0  0  0  0  0  0  0  0
   -7.1178    2.1837    0.0000 C   0  0  0  0  0  0  0  0  0  0  0  0
   -8.6015    2.4041    0.0000 C   0  0  0  0  0  0  0  0  0  0  0  0
   -9.1525    3.7992    0.0000 S   0  0  0  0  0  0  0  0  0  0  0  0
   -1.0136   -2.6629    0.0000 C   0  0  0  0  0  0  0  0  0  0  0  0
   -0.3198   -3.9928    0.0000 C   0  0  0  0  0  0  0  0  0  0  0  0
    1.1594   -3.7439    0.0000 C   0  0  0  0  0  0  0  0  0  0  0  0
    1.3798   -2.2602    0.0000 C   0  0  0  0  0  0  0  0  0  0  0  0
    2.6299   -1.4311    0.0000 C   0  0  0  0  0  0  0  0  0  0  0  0
    3.9729   -2.0992    0.0000 C   0  0  0  0  0  0  0  0  0  0  0  0
    5.2230   -1.2702    0.0000 C   0  0  0  0  0  0  0  0  0  0  0  0
    5.1301    0.2269    0.0000 C   0  0  0  0  0  0  0  0  0  0  0  0
    6.3802    1.0559    0.0000 C   0  0  0  0  0  0  0  0  0  0  0  0
    6.2872    2.5531    0.0000 C   0  0  0  0  0  0  0  0  0  0  0  0
    7.5373    3.3821    0.0000 O   0  0  0  0  0  0  0  0  0  0  0  0
    4.9442    3.2212    0.0000 C   0  0  0  0  0  0  0  0  0  0  0  0
    3.6942    2.3921    0.0000 C   0  0  0  0  0  0  0  0  0  0  0  0
    3.7871    0.8950    0.0000 C   0  0  0  0  0  0  0  0  0  0  0  0
    2.4441    1.5631    0.0000 C   0  0  0  0  0  0  0  0  0  0  0  0
    2.5370    0.0660    0.0000 C   0  0  0  0  0  0  0  0  0  0  0  0
    1.1940    0.7341    0.0000 C   0  0  0  0  0  0  0  0  0  0  0  0
   -0.0561   -0.0949    0.0000 C   0  0  0  0  0  0  0  0  0  0  0  0
   -1.3991    0.5732    0.0000 O   0  0  0  0  0  0  0  0  0  0  0  0
    0.0368   -1.5921    0.0000 C   0  0  0  0  0  0  0  0  0  0  0  0
   -1.3687   -1.0680    0.0000 C   0  0  0  0  0  0  0  0  0  0  0  0
  2  1  1  6
  2  3  1  0
  3  4  1  0
  4  5  1  0
  5  6  2  0
  5  7  1  0
  7  8  1  0
  8  9  1  0
  9 10  1  0
  2 11  1  0
 11 12  1  6
 12 13  1  0
 14 13  1  6
 14 15  1  0
 15 16  1  1
 16 17  1  0
 18 17  1  1
 18 19  1  0
 19 20  1  0
 20 21  1  1
 20 22  1  0
 22 23  1  0
 23 24  1  0
 24 25  1  6
 24 26  1  0
 26 27  1  6
 27 28  1  0
 28 29  1  1
 28 30  1  0
 30 31  1  6
 30 11  1  0
 30 14  1  0
 26 15  1  0
 24 18  1  0
M  END
>  <MS_ID>  (1617) 
MS1681

>  <SMILES>  (1617) 
C[C@H](CCC(=O)NCCS)[C@H]1CC[C@H]2[C@@H]3CC[C@@H]4C[C@H](O)CC[C@]4(C)[C@H]3C[C@H](O)[C@]12C

>  <Structure_dimension>  (1617) 
2D

$$$$
MS1682
     RDKit          2D

 42 46  0  0  0  0  0  0  0  0999 V2000
   -8.0401   -2.0161    0.0000 C   0  0  0  0  0  0  0  0  0  0  0  0
   -6.9071   -1.0332    0.0000 C   0  0  0  0  0  0  0  0  0  0  0  0
   -7.1918    0.4396    0.0000 C   0  0  0  0  0  0  0  0  0  0  0  0
   -8.6096    0.9293    0.0000 C   0  0  0  0  0  0  0  0  0  0  0  0
   -8.8944    2.4020    0.0000 C   0  0  0  0  0  0  0  0  0  0  0  0
   -7.7614    3.3850    0.0000 O   0  0  0  0  0  0  0  0  0  0  0  0
  -10.3122    2.8918    0.0000 O   0  0  0  0  0  0  0  0  0  0  0  0
   -5.4893   -1.5229    0.0000 C   0  0  0  0  0  0  0  0  0  0  0  0
   -5.0521   -2.9578    0.0000 C   0  0  0  0  0  0  0  0  0  0  0  0
   -3.5524   -2.9855    0.0000 C   0  0  0  0  0  0  0  0  0  0  0  0
   -3.0626   -1.5677    0.0000 C   0  0  0  0  0  0  0  0  0  0  0  0
   -1.6813   -0.9829    0.0000 C   0  0  0  0  0  0  0  0  0  0  0  0
   -0.4842   -1.8868    0.0000 C   0  0  0  0  0  0  0  0  0  0  0  0
   -0.6685   -3.3755    0.0000 O   0  0  0  0  0  0  0  0  0  0  0  0
    0.8971   -1.3021    0.0000 C   0  0  0  0  0  0  0  0  0  0  0  0
    1.0814    0.1866    0.0000 C   0  0  0  0  0  0  0  0  0  0  0  0
    2.4627    0.7713    0.0000 C   0  0  0  0  0  0  0  0  0  0  0  0
    2.6470    2.2599    0.0000 C   0  0  0  0  0  0  0  0  0  0  0  0
    4.0283    2.8447    0.0000 O   0  0  0  0  0  0  0  0  0  0  0  0
    5.2254    1.9408    0.0000 C   0  0  0  0  0  0  0  0  0  0  0  0
    5.0411    0.4521    0.0000 O   0  0  0  0  0  0  0  0  0  0  0  0
    6.2382   -0.4518    0.0000 C   0  0  0  0  0  0  0  0  0  0  0  0
    6.0539   -1.9404    0.0000 C   0  0  0  0  0  0  0  0  0  0  0  0
    4.6726   -2.5251    0.0000 O   0  0  0  0  0  0  0  0  0  0  0  0
    4.4883   -4.0138    0.0000 C   0  0  0  0  0  0  0  0  0  0  0  0
    3.1070   -4.5985    0.0000 C   0  0  0  0  0  0  0  0  0  0  0  0
    2.9227   -6.0871    0.0000 O   0  0  0  0  0  0  0  0  0  0  0  0
    7.6195    0.1330    0.0000 C   0  0  0  0  0  0  0  0  0  0  0  0
    8.8166   -0.7709    0.0000 O   0  0  0  0  0  0  0  0  0  0  0  0
    7.8038    1.6216    0.0000 C   0  0  0  0  0  0  0  0  0  0  0  0
    9.1851    2.2064    0.0000 O   0  0  0  0  0  0  0  0  0  0  0  0
    6.6067    2.5255    0.0000 C   0  0  0  0  0  0  0  0  0  0  0  0
    6.7910    4.0142    0.0000 O   0  0  0  0  0  0  0  0  0  0  0  0
    1.4499    3.1638    0.0000 C   0  0  0  0  0  0  0  0  0  0  0  0
    0.0686    2.5791    0.0000 C   0  0  0  0  0  0  0  0  0  0  0  0
   -0.1157    1.0905    0.0000 C   0  0  0  0  0  0  0  0  0  0  0  0
   -1.3128    1.9944    0.0000 C   0  0  0  0  0  0  0  0  0  0  0  0
   -1.4970    0.5057    0.0000 C   0  0  0  0  0  0  0  0  0  0  0  0
   -2.6941    1.4096    0.0000 C   0  0  0  0  0  0  0  0  0  0  0  0
   -4.0754    0.8249    0.0000 C   0  0  0  0  0  0  0  0  0  0  0  0
   -4.2597   -0.6638    0.0000 C   0  0  0  0  0  0  0  0  0  0  0  0
   -5.5447    0.1101    0.0000 C   0  0  0  0  0  0  0  0  0  0  0  0
  2  1  1  6
  2  3  1  0
  3  4  1  0
  4  5  1  0
  5  6  2  0
  5  7  1  0
  2  8  1  0
  8  9  1  6
  9 10  1  0
 11 10  1  6
 11 12  1  0
 12 13  1  1
 13 14  1  6
 13 15  1  0
 16 15  1  1
 16 17  1  0
 17 18  1  0
 18 19  1  1
 20 19  1  1
 20 21  1  0
 21 22  1  0
 22 23  1  1
 23 24  1  0
 24 25  1  0
 25 26  1  0
 26 27  1  0
 22 28  1  0
 28 29  1  6
 28 30  1  0
 30 31  1  1
 30 32  1  0
 32 33  1  6
 18 34  1  0
 34 35  1  0
 35 36  1  0
 36 37  1  6
 36 38  1  0
 38 39  1  6
 39 40  1  0
 40 41  1  0
 41 42  1  6
 41  8  1  0
 41 11  1  0
 38 12  1  0
 36 16  1  0
 32 20  1  0
M  END
>  <MS_ID>  (1618) 
MS1682

>  <SMILES>  (1618) 
C[C@H](CCC(=O)O)[C@H]1CC[C@H]2[C@@H]3[C@@H](O)C[C@@H]4C[C@H](O[C@@H]5O[C@H](COCCO)[C@@H](O)[C@H](O)[C@H]5O)CC[C@]4(C)[C@H]3CC[C@]12C

>  <Structure_dimension>  (1618) 
2D

$$$$
MS1683
     RDKit          2D

 28 31  0  0  0  0  0  0  0  0999 V2000
   -5.1275   -2.0302    0.0000 C   0  0  0  0  0  0  0  0  0  0  0  0
   -3.9468   -1.1050    0.0000 C   0  0  0  0  0  0  0  0  0  0  0  0
   -4.1576    0.3801    0.0000 C   0  0  0  0  0  0  0  0  0  0  0  0
   -5.5492    0.9401    0.0000 C   0  0  0  0  0  0  0  0  0  0  0  0
   -5.7600    2.4252    0.0000 C   0  0  0  0  0  0  0  0  0  0  0  0
   -4.5793    3.3503    0.0000 O   0  0  0  0  0  0  0  0  0  0  0  0
   -7.1516    2.9851    0.0000 O   0  0  0  0  0  0  0  0  0  0  0  0
   -2.5552   -1.6650    0.0000 C   0  0  0  0  0  0  0  0  0  0  0  0
   -2.1903   -3.1199    0.0000 C   0  0  0  0  0  0  0  0  0  0  0  0
   -0.6938   -3.2225    0.0000 C   0  0  0  0  0  0  0  0  0  0  0  0
   -0.1339   -1.8309    0.0000 C   0  0  0  0  0  0  0  0  0  0  0  0
    1.2750   -1.3159    0.0000 C   0  0  0  0  0  0  0  0  0  0  0  0
    2.4254   -2.2785    0.0000 C   0  0  0  0  0  0  0  0  0  0  0  0
    2.1670   -3.7560    0.0000 Cl  0  0  0  0  0  0  0  0  0  0  0  0
    3.8342   -1.7635    0.0000 C   0  0  0  0  0  0  0  0  0  0  0  0
    4.0926   -0.2859    0.0000 C   0  0  0  0  0  0  0  0  0  0  0  0
    5.5014    0.2291    0.0000 C   0  0  0  0  0  0  0  0  0  0  0  0
    5.7598    1.7067    0.0000 C   0  0  0  0  0  0  0  0  0  0  0  0
    7.1687    2.2217    0.0000 O   0  0  0  0  0  0  0  0  0  0  0  0
    4.6094    2.6692    0.0000 C   0  0  0  0  0  0  0  0  0  0  0  0
    3.2006    2.1542    0.0000 C   0  0  0  0  0  0  0  0  0  0  0  0
    2.9422    0.6767    0.0000 C   0  0  0  0  0  0  0  0  0  0  0  0
    1.7918    1.6392    0.0000 C   0  0  0  0  0  0  0  0  0  0  0  0
    1.5334    0.1617    0.0000 C   0  0  0  0  0  0  0  0  0  0  0  0
    0.3830    1.1242    0.0000 C   0  0  0  0  0  0  0  0  0  0  0  0
   -1.0259    0.6093    0.0000 C   0  0  0  0  0  0  0  0  0  0  0  0
   -1.2843   -0.8683    0.0000 C   0  0  0  0  0  0  0  0  0  0  0  0
   -2.5290   -0.0313    0.0000 C   0  0  0  0  0  0  0  0  0  0  0  0
  2  1  1  6
  2  3  1  0
  3  4  1  0
  4  5  1  0
  5  6  2  0
  5  7  1  0
  2  8  1  0
  8  9  1  6
  9 10  1  0
 11 10  1  6
 11 12  1  0
 12 13  1  1
 13 14  1  6
 13 15  1  0
 16 15  1  1
 16 17  1  0
 17 18  1  0
 18 19  1  1
 18 20  1  0
 20 21  1  0
 21 22  1  0
 22 23  1  6
 22 24  1  0
 24 25  1  6
 25 26  1  0
 26 27  1  0
 27 28  1  6
 27  8  1  0
 27 11  1  0
 24 12  1  0
 22 16  1  0
M  END
>  <MS_ID>  (1619) 
MS1683

>  <SMILES>  (1619) 
C[C@H](CCC(=O)O)[C@H]1CC[C@H]2[C@@H]3[C@@H](Cl)C[C@@H]4C[C@H](O)CC[C@]4(C)[C@H]3CC[C@]12C

>  <Structure_dimension>  (1619) 
2D

$$$$
MS1684
     RDKit          2D

 36 39  0  0  0  0  0  0  0  0999 V2000
   -3.3651   -3.6853    0.0000 C   0  0  0  0  0  0  0  0  0  0  0  0
   -2.6511   -2.3661    0.0000 C   0  0  0  0  0  0  0  0  0  0  0  0
   -3.4366   -1.0882    0.0000 C   0  0  0  0  0  0  0  0  0  0  0  0
   -4.9360   -1.1295    0.0000 C   0  0  0  0  0  0  0  0  0  0  0  0
   -5.7215    0.1484    0.0000 C   0  0  0  0  0  0  0  0  0  0  0  0
   -5.0076    1.4676    0.0000 O   0  0  0  0  0  0  0  0  0  0  0  0
   -7.2209    0.1071    0.0000 O   0  0  0  0  0  0  0  0  0  0  0  0
   -8.0064    1.3850    0.0000 C   0  0  0  0  0  0  0  0  0  0  0  0
   -9.5059    1.3437    0.0000 C   0  0  0  0  0  0  0  0  0  0  0  0
  -10.2198    0.0245    0.0000 O   0  0  0  0  0  0  0  0  0  0  0  0
  -10.2913    2.6216    0.0000 O   0  0  0  0  0  0  0  0  0  0  0  0
   -1.1517   -2.3248    0.0000 C   0  0  0  0  0  0  0  0  0  0  0  0
   -0.2369   -3.5136    0.0000 C   0  0  0  0  0  0  0  0  0  0  0  0
    1.1763   -3.0110    0.0000 C   0  0  0  0  0  0  0  0  0  0  0  0
    1.1351   -1.5116    0.0000 C   0  0  0  0  0  0  0  0  0  0  0  0
    2.2217   -0.4776    0.0000 C   0  0  0  0  0  0  0  0  0  0  0  0
    3.6605   -0.9016    0.0000 C   0  0  0  0  0  0  0  0  0  0  0  0
    4.0127   -2.3597    0.0000 O   0  0  0  0  0  0  0  0  0  0  0  0
    5.4515   -2.7838    0.0000 S   0  0  0  0  0  0  0  0  0  0  0  0
    5.8755   -1.3450    0.0000 O   0  0  0  0  0  0  0  0  0  0  0  0
    5.0274   -4.2226    0.0000 O   0  0  0  0  0  0  0  0  0  0  0  0
    6.8903   -3.2079    0.0000 O   0  0  0  0  0  0  0  0  0  0  0  0
    4.7472    0.1324    0.0000 C   0  0  0  0  0  0  0  0  0  0  0  0
    4.3950    1.5904    0.0000 C   0  0  0  0  0  0  0  0  0  0  0  0
    5.4817    2.6244    0.0000 C   0  0  0  0  0  0  0  0  0  0  0  0
    5.1296    4.0825    0.0000 C   0  0  0  0  0  0  0  0  0  0  0  0
    6.2162    5.1165    0.0000 O   0  0  0  0  0  0  0  0  0  0  0  0
    3.6908    4.5066    0.0000 C   0  0  0  0  0  0  0  0  0  0  0  0
    2.6041    3.4726    0.0000 C   0  0  0  0  0  0  0  0  0  0  0  0
    2.9562    2.0145    0.0000 C   0  0  0  0  0  0  0  0  0  0  0  0
    1.5174    2.4386    0.0000 C   0  0  0  0  0  0  0  0  0  0  0  0
    1.8696    0.9805    0.0000 C   0  0  0  0  0  0  0  0  0  0  0  0
    0.4308    1.4046    0.0000 C   0  0  0  0  0  0  0  0  0  0  0  0
   -0.6559    0.3706    0.0000 C   0  0  0  0  0  0  0  0  0  0  0  0
   -0.3038   -1.0875    0.0000 C   0  0  0  0  0  0  0  0  0  0  0  0
   -1.7790   -0.8161    0.0000 C   0  0  0  0  0  0  0  0  0  0  0  0
  2  1  1  6
  2  3  1  0
  3  4  1  0
  4  5  1  0
  5  6  2  0
  5  7  1  0
  7  8  1  0
  8  9  1  0
  9 10  2  0
  9 11  1  0
  2 12  1  0
 12 13  1  6
 13 14  1  0
 15 14  1  6
 15 16  1  0
 16 17  1  1
 17 18  1  6
 18 19  1  0
 19 20  2  0
 19 21  2  0
 19 22  1  0
 17 23  1  0
 24 23  1  1
 24 25  1  0
 25 26  1  0
 26 27  1  1
 26 28  1  0
 28 29  1  0
 29 30  1  0
 30 31  1  6
 30 32  1  0
 32 33  1  6
 33 34  1  0
 34 35  1  0
 35 36  1  6
 35 12  1  0
 35 15  1  0
 32 16  1  0
 30 24  1  0
M  END
>  <MS_ID>  (1620) 
MS1684

>  <SMILES>  (1620) 
C[C@H](CCC(=O)OCC(=O)O)[C@H]1CC[C@H]2[C@@H]3[C@@H](OS(=O)(=O)O)C[C@@H]4C[C@H](O)CC[C@]4(C)[C@H]3CC[C@]12C

>  <Structure_dimension>  (1620) 
2D

$$$$
MS1686
     RDKit          2D

 35 38  0  0  0  0  0  0  0  0999 V2000
   -2.5376   -4.8405    0.0000 C   0  0  0  0  0  0  0  0  0  0  0  0
   -1.9325   -3.4680    0.0000 C   0  0  0  0  0  0  0  0  0  0  0  0
   -2.8185   -2.2577    0.0000 C   0  0  0  0  0  0  0  0  0  0  0  0
   -4.3097   -2.4198    0.0000 C   0  0  0  0  0  0  0  0  0  0  0  0
   -5.1957   -1.2095    0.0000 C   0  0  0  0  0  0  0  0  0  0  0  0
   -6.6869   -1.3717    0.0000 O   0  0  0  0  0  0  0  0  0  0  0  0
   -4.5906    0.1630    0.0000 O   0  0  0  0  0  0  0  0  0  0  0  0
   -5.4766    1.3734    0.0000 C   0  0  0  0  0  0  0  0  0  0  0  0
   -6.9678    1.2112    0.0000 O   0  0  0  0  0  0  0  0  0  0  0  0
   -4.8714    2.7459    0.0000 C   0  0  0  0  0  0  0  0  0  0  0  0
   -5.7575    3.9562    0.0000 C   0  0  0  0  0  0  0  0  0  0  0  0
   -7.2487    3.7940    0.0000 O   0  0  0  0  0  0  0  0  0  0  0  0
   -5.1523    5.3287    0.0000 O   0  0  0  0  0  0  0  0  0  0  0  0
   -0.4412   -3.3059    0.0000 C   0  0  0  0  0  0  0  0  0  0  0  0
    0.5665   -4.4170    0.0000 C   0  0  0  0  0  0  0  0  0  0  0  0
    1.9346   -3.8019    0.0000 C   0  0  0  0  0  0  0  0  0  0  0  0
    1.7724   -2.3107    0.0000 C   0  0  0  0  0  0  0  0  0  0  0  0
    2.7721   -1.1924    0.0000 C   0  0  0  0  0  0  0  0  0  0  0  0
    4.2404   -1.4990    0.0000 C   0  0  0  0  0  0  0  0  0  0  0  0
    4.7091   -2.9239    0.0000 O   0  0  0  0  0  0  0  0  0  0  0  0
    5.2401   -0.3807    0.0000 C   0  0  0  0  0  0  0  0  0  0  0  0
    6.7084   -0.6873    0.0000 O   0  0  0  0  0  0  0  0  0  0  0  0
    4.7714    1.0442    0.0000 C   0  0  0  0  0  0  0  0  0  0  0  0
    5.7711    2.1626    0.0000 C   0  0  0  0  0  0  0  0  0  0  0  0
    5.3025    3.5875    0.0000 C   0  0  0  0  0  0  0  0  0  0  0  0
    6.3021    4.7058    0.0000 O   0  0  0  0  0  0  0  0  0  0  0  0
    3.8341    3.8941    0.0000 C   0  0  0  0  0  0  0  0  0  0  0  0
    2.8345    2.7757    0.0000 C   0  0  0  0  0  0  0  0  0  0  0  0
    3.3031    1.3508    0.0000 C   0  0  0  0  0  0  0  0  0  0  0  0
    1.8348    1.6574    0.0000 C   0  0  0  0  0  0  0  0  0  0  0  0
    2.3034    0.2325    0.0000 C   0  0  0  0  0  0  0  0  0  0  0  0
    0.8351    0.5391    0.0000 C   0  0  0  0  0  0  0  0  0  0  0  0
   -0.1646   -0.5792    0.0000 C   0  0  0  0  0  0  0  0  0  0  0  0
    0.3041   -2.0041    0.0000 C   0  0  0  0  0  0  0  0  0  0  0  0
   -1.1883   -1.8527    0.0000 C   0  0  0  0  0  0  0  0  0  0  0  0
  2  1  1  6
  2  3  1  0
  3  4  1  0
  4  5  1  0
  5  6  2  0
  5  7  1  0
  7  8  1  0
  8  9  2  0
  8 10  1  0
 10 11  1  0
 11 12  2  0
 11 13  1  0
  2 14  1  0
 14 15  1  6
 15 16  1  0
 17 16  1  6
 17 18  1  0
 18 19  1  1
 19 20  1  1
 19 21  1  0
 21 22  1  1
 21 23  1  0
 23 24  1  1
 24 25  1  0
 25 26  1  1
 25 27  1  0
 27 28  1  0
 28 29  1  0
 29 30  1  6
 29 31  1  0
 31 32  1  6
 32 33  1  0
 33 34  1  0
 34 35  1  6
 34 14  1  0
 34 17  1  0
 31 18  1  0
 29 23  1  0
M  END
>  <MS_ID>  (1621) 
MS1686

>  <SMILES>  (1621) 
C[C@H](CCC(=O)OC(=O)CC(=O)O)[C@H]1CC[C@H]2[C@@H]3[C@H](O)[C@H](O)[C@@H]4C[C@H](O)CC[C@]4(C)[C@H]3CC[C@]12C

>  <Structure_dimension>  (1621) 
2D

$$$$
MS1687
     RDKit          2D

 33 36  0  0  0  0  0  0  0  0999 V2000
   -3.0978   -3.6919    0.0000 C   0  0  0  0  0  0  0  0  0  0  0  0
   -2.2201   -2.4755    0.0000 C   0  0  0  0  0  0  0  0  0  0  0  0
   -2.8347   -1.1072    0.0000 C   0  0  0  0  0  0  0  0  0  0  0  0
   -4.3270   -0.9552    0.0000 C   0  0  0  0  0  0  0  0  0  0  0  0
   -4.9416    0.4131    0.0000 C   0  0  0  0  0  0  0  0  0  0  0  0
   -4.0639    1.6295    0.0000 O   0  0  0  0  0  0  0  0  0  0  0  0
   -6.4339    0.5650    0.0000 N   0  0  0  0  0  0  0  0  0  0  0  0
   -7.0484    1.9333    0.0000 C   0  0  0  0  0  0  0  0  0  0  0  0
   -8.5407    2.0852    0.0000 C   0  0  0  0  0  0  0  0  0  0  0  0
   -9.4184    0.8688    0.0000 O   0  0  0  0  0  0  0  0  0  0  0  0
   -9.1553    3.4535    0.0000 O   0  0  0  0  0  0  0  0  0  0  0  0
   -0.7278   -2.6274    0.0000 C   0  0  0  0  0  0  0  0  0  0  0  0
    0.0264   -3.9240    0.0000 C   0  0  0  0  0  0  0  0  0  0  0  0
    1.4926   -3.6073    0.0000 C   0  0  0  0  0  0  0  0  0  0  0  0
    1.6445   -2.1150    0.0000 C   0  0  0  0  0  0  0  0  0  0  0  0
    2.8552   -1.2294    0.0000 C   0  0  0  0  0  0  0  0  0  0  0  0
    4.2275   -1.8350    0.0000 C   0  0  0  0  0  0  0  0  0  0  0  0
    4.3891   -3.3263    0.0000 O   0  0  0  0  0  0  0  0  0  0  0  0
    5.4381   -0.9494    0.0000 C   0  0  0  0  0  0  0  0  0  0  0  0
    5.2764    0.5419    0.0000 C   0  0  0  0  0  0  0  0  0  0  0  0
    6.4871    1.4275    0.0000 C   0  0  0  0  0  0  0  0  0  0  0  0
    6.3254    2.9188    0.0000 C   0  0  0  0  0  0  0  0  0  0  0  0
    7.5360    3.8044    0.0000 O   0  0  0  0  0  0  0  0  0  0  0  0
    4.9531    3.5244    0.0000 C   0  0  0  0  0  0  0  0  0  0  0  0
    3.7425    2.6388    0.0000 C   0  0  0  0  0  0  0  0  0  0  0  0
    3.9041    1.1475    0.0000 C   0  0  0  0  0  0  0  0  0  0  0  0
    2.5318    1.7531    0.0000 C   0  0  0  0  0  0  0  0  0  0  0  0
    2.6935    0.2619    0.0000 C   0  0  0  0  0  0  0  0  0  0  0  0
    1.3212    0.8675    0.0000 C   0  0  0  0  0  0  0  0  0  0  0  0
    0.1105   -0.0181    0.0000 C   0  0  0  0  0  0  0  0  0  0  0  0
   -1.2618    0.5875    0.0000 O   0  0  0  0  0  0  0  0  0  0  0  0
    0.2722   -1.5094    0.0000 C   0  0  0  0  0  0  0  0  0  0  0  0
   -1.1559   -1.0505    0.0000 C   0  0  0  0  0  0  0  0  0  0  0  0
  2  1  1  6
  2  3  1  0
  3  4  1  0
  4  5  1  0
  5  6  2  0
  5  7  1  0
  7  8  1  0
  8  9  1  0
  9 10  2  0
  9 11  1  0
  2 12  1  0
 12 13  1  6
 13 14  1  0
 15 14  1  6
 15 16  1  0
 16 17  1  1
 17 18  1  6
 17 19  1  0
 20 19  1  1
 20 21  1  0
 21 22  1  0
 22 23  1  1
 22 24  1  0
 24 25  1  0
 25 26  1  0
 26 27  1  6
 26 28  1  0
 28 29  1  6
 29 30  1  0
 30 31  2  0
 30 32  1  0
 32 33  1  6
 32 12  1  0
 32 15  1  0
 28 16  1  0
 26 20  1  0
M  END
>  <MS_ID>  (1622) 
MS1687

>  <SMILES>  (1622) 
C[C@H](CCC(=O)NCC(=O)O)[C@H]1CC[C@H]2[C@@H]3[C@@H](O)C[C@@H]4C[C@H](O)CC[C@]4(C)[C@H]3CC(=O)[C@]12C

>  <Structure_dimension>  (1622) 
2D

$$$$
MS1688
     RDKit          2D

 29 32  0  0  0  0  0  0  0  0999 V2000
   -4.0871   -3.1154    0.0000 C   0  0  0  0  0  0  0  0  0  0  0  0
   -3.0536   -2.0283    0.0000 C   0  0  0  0  0  0  0  0  0  0  0  0
   -3.4784   -0.5897    0.0000 C   0  0  0  0  0  0  0  0  0  0  0  0
   -4.9366   -0.2383    0.0000 C   0  0  0  0  0  0  0  0  0  0  0  0
   -5.3614    1.2003    0.0000 C   0  0  0  0  0  0  0  0  0  0  0  0
   -4.3279    2.2875    0.0000 O   0  0  0  0  0  0  0  0  0  0  0  0
   -6.8197    1.5518    0.0000 O   0  0  0  0  0  0  0  0  0  0  0  0
   -7.2445    2.9904    0.0000 C   0  0  0  0  0  0  0  0  0  0  0  0
   -8.7027    3.3418    0.0000 O   0  0  0  0  0  0  0  0  0  0  0  0
   -1.5953   -2.3797    0.0000 C   0  0  0  0  0  0  0  0  0  0  0  0
   -1.0225   -3.7660    0.0000 C   0  0  0  0  0  0  0  0  0  0  0  0
    0.4730   -3.6496    0.0000 C   0  0  0  0  0  0  0  0  0  0  0  0
    0.8244   -2.1914    0.0000 C   0  0  0  0  0  0  0  0  0  0  0  0
    2.1432   -1.4767    0.0000 C   0  0  0  0  0  0  0  0  0  0  0  0
    3.4215   -2.2616    0.0000 C   0  0  0  0  0  0  0  0  0  0  0  0
    4.7404   -1.5470    0.0000 C   0  0  0  0  0  0  0  0  0  0  0  0
    4.7809   -0.0475    0.0000 C   0  0  0  0  0  0  0  0  0  0  0  0
    6.0998    0.6671    0.0000 C   0  0  0  0  0  0  0  0  0  0  0  0
    6.1403    2.1665    0.0000 C   0  0  0  0  0  0  0  0  0  0  0  0
    7.4592    2.8811    0.0000 O   0  0  0  0  0  0  0  0  0  0  0  0
    4.8620    2.9514    0.0000 C   0  0  0  0  0  0  0  0  0  0  0  0
    3.5432    2.2368    0.0000 C   0  0  0  0  0  0  0  0  0  0  0  0
    3.5026    0.7373    0.0000 C   0  0  0  0  0  0  0  0  0  0  0  0
    2.2243    1.5222    0.0000 C   0  0  0  0  0  0  0  0  0  0  0  0
    2.1838    0.0227    0.0000 C   0  0  0  0  0  0  0  0  0  0  0  0
    0.9055    0.8076    0.0000 C   0  0  0  0  0  0  0  0  0  0  0  0
   -0.4133    0.0929    0.0000 C   0  0  0  0  0  0  0  0  0  0  0  0
   -0.4539   -1.4065    0.0000 C   0  0  0  0  0  0  0  0  0  0  0  0
   -1.8072   -0.7596    0.0000 C   0  0  0  0  0  0  0  0  0  0  0  0
  2  1  1  6
  2  3  1  0
  3  4  1  0
  4  5  1  0
  5  6  2  0
  5  7  1  0
  7  8  1  0
  8  9  1  0
  2 10  1  0
 10 11  1  6
 11 12  1  0
 13 12  1  6
 13 14  1  0
 14 15  1  1
 15 16  1  0
 17 16  1  1
 17 18  1  0
 18 19  1  0
 19 20  1  1
 19 21  1  0
 21 22  1  0
 22 23  1  0
 23 24  1  6
 23 25  1  0
 25 26  1  6
 26 27  1  0
 27 28  1  0
 28 29  1  6
 28 10  1  0
 28 13  1  0
 25 14  1  0
 23 17  1  0
M  END
>  <MS_ID>  (1623) 
MS1688

>  <SMILES>  (1623) 
C[C@H](CCC(=O)OCO)[C@H]1CC[C@H]2[C@@H]3CC[C@@H]4C[C@H](O)CC[C@]4(C)[C@H]3CC[C@]12C

>  <Structure_dimension>  (1623) 
2D

$$$$
MS1689
     RDKit          2D

 29 32  0  0  0  0  0  0  0  0999 V2000
   -5.1421   -2.1269    0.0000 C   0  0  0  0  0  0  0  0  0  0  0  0
   -4.0091   -1.1439    0.0000 C   0  0  0  0  0  0  0  0  0  0  0  0
   -4.2938    0.3288    0.0000 C   0  0  0  0  0  0  0  0  0  0  0  0
   -5.7116    0.8186    0.0000 C   0  0  0  0  0  0  0  0  0  0  0  0
   -5.9963    2.2913    0.0000 C   0  0  0  0  0  0  0  0  0  0  0  0
   -4.8632    3.2743    0.0000 O   0  0  0  0  0  0  0  0  0  0  0  0
   -7.4141    2.7811    0.0000 O   0  0  0  0  0  0  0  0  0  0  0  0
   -2.5913   -1.6337    0.0000 C   0  0  0  0  0  0  0  0  0  0  0  0
   -2.1542   -3.0686    0.0000 C   0  0  0  0  0  0  0  0  0  0  0  0
   -0.6544   -3.0963    0.0000 C   0  0  0  0  0  0  0  0  0  0  0  0
   -0.1646   -1.6785    0.0000 C   0  0  0  0  0  0  0  0  0  0  0  0
    1.2167   -1.0938    0.0000 C   0  0  0  0  0  0  0  0  0  0  0  0
    2.4137   -1.9977    0.0000 C   0  0  0  0  0  0  0  0  0  0  0  0
    2.2294   -3.4864    0.0000 O   0  0  0  0  0  0  0  0  0  0  0  0
    3.4265   -4.3903    0.0000 O   0  0  0  0  0  0  0  0  0  0  0  0
    3.7951   -1.4130    0.0000 C   0  0  0  0  0  0  0  0  0  0  0  0
    3.9794    0.0756    0.0000 C   0  0  0  0  0  0  0  0  0  0  0  0
    5.3607    0.6603    0.0000 C   0  0  0  0  0  0  0  0  0  0  0  0
    5.5451    2.1489    0.0000 C   0  0  0  0  0  0  0  0  0  0  0  0
    6.9264    2.7336    0.0000 O   0  0  0  0  0  0  0  0  0  0  0  0
    4.3480    3.0529    0.0000 C   0  0  0  0  0  0  0  0  0  0  0  0
    2.9667    2.4682    0.0000 C   0  0  0  0  0  0  0  0  0  0  0  0
    2.7824    0.9795    0.0000 C   0  0  0  0  0  0  0  0  0  0  0  0
    1.5853    1.8835    0.0000 C   0  0  0  0  0  0  0  0  0  0  0  0
    1.4010    0.3948    0.0000 C   0  0  0  0  0  0  0  0  0  0  0  0
    0.2040    1.2988    0.0000 C   0  0  0  0  0  0  0  0  0  0  0  0
   -1.1774    0.7141    0.0000 C   0  0  0  0  0  0  0  0  0  0  0  0
   -1.3617   -0.7746    0.0000 C   0  0  0  0  0  0  0  0  0  0  0  0
   -2.6467   -0.0007    0.0000 C   0  0  0  0  0  0  0  0  0  0  0  0
  2  1  1  6
  2  3  1  0
  3  4  1  0
  4  5  1  0
  5  6  2  0
  5  7  1  0
  2  8  1  0
  8  9  1  6
  9 10  1  0
 11 10  1  6
 11 12  1  0
 12 13  1  1
 13 14  1  6
 14 15  1  0
 13 16  1  0
 17 16  1  1
 17 18  1  0
 18 19  1  0
 19 20  1  1
 19 21  1  0
 21 22  1  0
 22 23  1  0
 23 24  1  6
 23 25  1  0
 25 26  1  6
 26 27  1  0
 27 28  1  0
 28 29  1  6
 28  8  1  0
 28 11  1  0
 25 12  1  0
 23 17  1  0
M  END
>  <MS_ID>  (1624) 
MS1689

>  <SMILES>  (1624) 
C[C@H](CCC(=O)O)[C@H]1CC[C@H]2[C@@H]3[C@@H](OO)C[C@@H]4C[C@H](O)CC[C@]4(C)[C@H]3CC[C@]12C

>  <Structure_dimension>  (1624) 
2D

$$$$
MS1690
     RDKit          2D

 39 44  0  0  0  0  0  0  0  0999 V2000
   -1.1016   -4.3857    0.0000 C   0  0  0  0  0  0  0  0  0  0  0  0
   -0.4030   -3.0583    0.0000 C   0  0  0  0  0  0  0  0  0  0  0  0
   -1.2031   -1.7896    0.0000 C   0  0  0  0  0  0  0  0  0  0  0  0
   -2.7020   -1.8482    0.0000 C   0  0  0  0  0  0  0  0  0  0  0  0
   -3.5022   -0.5794    0.0000 C   0  0  0  0  0  0  0  0  0  0  0  0
   -2.8035    0.7479    0.0000 O   0  0  0  0  0  0  0  0  0  0  0  0
   -5.0010   -0.6380    0.0000 N   0  0  0  0  0  0  0  0  0  0  0  0
   -5.8012    0.6307    0.0000 C   0  0  0  0  0  0  0  0  0  0  0  0
   -5.1026    1.9580    0.0000 C   0  0  0  0  0  0  0  0  0  0  0  0
   -5.9027    3.2268    0.0000 C   0  0  0  0  0  0  0  0  0  0  0  0
   -7.4016    3.1682    0.0000 N   0  0  0  0  0  0  0  0  0  0  0  0
   -8.1003    1.8408    0.0000 C   0  0  0  0  0  0  0  0  0  0  0  0
   -9.5991    1.7822    0.0000 C   0  0  0  0  0  0  0  0  0  0  0  0
  -10.2978    0.4549    0.0000 C   0  0  0  0  0  0  0  0  0  0  0  0
   -9.4976   -0.8139    0.0000 C   0  0  0  0  0  0  0  0  0  0  0  0
   -7.9987   -0.7553    0.0000 C   0  0  0  0  0  0  0  0  0  0  0  0
   -7.3001    0.5721    0.0000 C   0  0  0  0  0  0  0  0  0  0  0  0
    1.0959   -2.9997    0.0000 C   0  0  0  0  0  0  0  0  0  0  0  0
    2.0243   -4.1778    0.0000 C   0  0  0  0  0  0  0  0  0  0  0  0
    3.4317   -3.6589    0.0000 C   0  0  0  0  0  0  0  0  0  0  0  0
    3.3731   -2.1601    0.0000 C   0  0  0  0  0  0  0  0  0  0  0  0
    4.4477   -1.1136    0.0000 C   0  0  0  0  0  0  0  0  0  0  0  0
    5.8913   -1.5210    0.0000 C   0  0  0  0  0  0  0  0  0  0  0  0
    6.2603   -2.9749    0.0000 O   0  0  0  0  0  0  0  0  0  0  0  0
    6.9660   -0.4745    0.0000 C   0  0  0  0  0  0  0  0  0  0  0  0
    6.5970    0.9794    0.0000 C   0  0  0  0  0  0  0  0  0  0  0  0
    7.6717    2.0259    0.0000 C   0  0  0  0  0  0  0  0  0  0  0  0
    7.3027    3.4798    0.0000 C   0  0  0  0  0  0  0  0  0  0  0  0
    8.3774    4.5263    0.0000 O   0  0  0  0  0  0  0  0  0  0  0  0
    5.8591    3.8872    0.0000 C   0  0  0  0  0  0  0  0  0  0  0  0
    4.7845    2.8407    0.0000 C   0  0  0  0  0  0  0  0  0  0  0  0
    5.1534    1.3868    0.0000 C   0  0  0  0  0  0  0  0  0  0  0  0
    3.7098    1.7942    0.0000 C   0  0  0  0  0  0  0  0  0  0  0  0
    4.0788    0.3403    0.0000 C   0  0  0  0  0  0  0  0  0  0  0  0
    2.6352    0.7478    0.0000 C   0  0  0  0  0  0  0  0  0  0  0  0
    1.5605   -0.2987    0.0000 C   0  0  0  0  0  0  0  0  0  0  0  0
    0.1169    0.1087    0.0000 O   0  0  0  0  0  0  0  0  0  0  0  0
    1.9295   -1.7526    0.0000 C   0  0  0  0  0  0  0  0  0  0  0  0
    0.4512   -1.4983    0.0000 C   0  0  0  0  0  0  0  0  0  0  0  0
  2  1  1  6
  2  3  1  0
  3  4  1  0
  4  5  1  0
  5  6  2  0
  5  7  1  0
  7  8  1  0
  8  9  2  0
  9 10  1  0
 10 11  2  0
 11 12  1  0
 12 13  2  0
 13 14  1  0
 14 15  2  0
 15 16  1  0
 16 17  2  0
  2 18  1  0
 18 19  1  6
 19 20  1  0
 21 20  1  6
 21 22  1  0
 22 23  1  1
 23 24  1  1
 23 25  1  0
 26 25  1  1
 26 27  1  0
 27 28  1  0
 28 29  1  1
 28 30  1  0
 30 31  1  0
 31 32  1  0
 32 33  1  6
 32 34  1  0
 34 35  1  6
 35 36  1  0
 36 37  1  1
 36 38  1  0
 38 39  1  6
 17  8  1  0
 38 18  1  0
 17 12  1  0
 38 21  1  0
 34 22  1  0
 32 26  1  0
M  END
>  <MS_ID>  (1625) 
MS1690

>  <SMILES>  (1625) 
C[C@H](CCC(=O)Nc1ccnc2ccccc12)[C@H]1CC[C@H]2[C@@H]3[C@H](O)C[C@@H]4C[C@H](O)CC[C@]4(C)[C@H]3C[C@H](O)[C@]12C

>  <Structure_dimension>  (1625) 
2D

$$$$
MS1691
     RDKit          2D

 29 32  0  0  0  0  0  0  0  0999 V2000
   -5.0303   -2.1373    0.0000 C   0  0  0  0  0  0  0  0  0  0  0  0
   -3.8594   -1.1998    0.0000 C   0  0  0  0  0  0  0  0  0  0  0  0
   -4.0858    0.2830    0.0000 C   0  0  0  0  0  0  0  0  0  0  0  0
   -5.4831    0.8284    0.0000 C   0  0  0  0  0  0  0  0  0  0  0  0
   -5.7095    2.3112    0.0000 C   0  0  0  0  0  0  0  0  0  0  0  0
   -4.5386    3.2487    0.0000 O   0  0  0  0  0  0  0  0  0  0  0  0
   -7.1069    2.8565    0.0000 O   0  0  0  0  0  0  0  0  0  0  0  0
   -2.4620   -1.7451    0.0000 C   0  0  0  0  0  0  0  0  0  0  0  0
   -2.0818   -3.1961    0.0000 C   0  0  0  0  0  0  0  0  0  0  0  0
   -0.5844   -3.2830    0.0000 C   0  0  0  0  0  0  0  0  0  0  0  0
   -0.0390   -1.8856    0.0000 C   0  0  0  0  0  0  0  0  0  0  0  0
    1.3643   -1.3559    0.0000 C   0  0  0  0  0  0  0  0  0  0  0  0
    2.5248   -2.3063    0.0000 C   0  0  0  0  0  0  0  0  0  0  0  0
    2.2819   -3.7865    0.0000 O   0  0  0  0  0  0  0  0  0  0  0  0
    3.9281   -1.7765    0.0000 C   0  0  0  0  0  0  0  0  0  0  0  0
    4.1710   -0.2963    0.0000 C   0  0  0  0  0  0  0  0  0  0  0  0
    5.5743    0.2334    0.0000 C   0  0  0  0  0  0  0  0  0  0  0  0
    5.8172    1.7136    0.0000 C   0  0  0  0  0  0  0  0  0  0  0  0
    7.2205    2.2434    0.0000 S   0  0  0  0  0  0  0  0  0  0  0  0
    4.6568    2.6641    0.0000 C   0  0  0  0  0  0  0  0  0  0  0  0
    3.2534    2.1343    0.0000 C   0  0  0  0  0  0  0  0  0  0  0  0
    3.0105    0.6541    0.0000 C   0  0  0  0  0  0  0  0  0  0  0  0
    1.8501    1.6046    0.0000 C   0  0  0  0  0  0  0  0  0  0  0  0
    1.6072    0.1244    0.0000 C   0  0  0  0  0  0  0  0  0  0  0  0
    0.4467    1.0748    0.0000 C   0  0  0  0  0  0  0  0  0  0  0  0
   -0.9566    0.5450    0.0000 C   0  0  0  0  0  0  0  0  0  0  0  0
   -2.1170    1.4955    0.0000 O   0  0  0  0  0  0  0  0  0  0  0  0
   -1.1995   -0.9352    0.0000 C   0  0  0  0  0  0  0  0  0  0  0  0
   -2.4529   -0.1112    0.0000 C   0  0  0  0  0  0  0  0  0  0  0  0
  2  1  1  6
  2  3  1  0
  3  4  1  0
  4  5  1  0
  5  6  2  0
  5  7  1  0
  2  8  1  0
  8  9  1  6
  9 10  1  0
 11 10  1  6
 11 12  1  0
 12 13  1  1
 13 14  1  1
 13 15  1  0
 16 15  1  1
 16 17  1  0
 17 18  1  0
 18 19  1  6
 18 20  1  0
 20 21  1  0
 21 22  1  0
 22 23  1  6
 22 24  1  0
 24 25  1  6
 25 26  1  0
 26 27  1  1
 26 28  1  0
 28 29  1  6
 28  8  1  0
 28 11  1  0
 24 12  1  0
 22 16  1  0
M  END
>  <MS_ID>  (1626) 
MS1691

>  <SMILES>  (1626) 
C[C@H](CCC(=O)O)[C@H]1CC[C@H]2[C@@H]3[C@H](O)C[C@@H]4C[C@@H](S)CC[C@]4(C)[C@H]3C[C@H](O)[C@]12C

>  <Structure_dimension>  (1626) 
2D

$$$$
MS1692
     RDKit          2D

 31 34  0  0  0  0  0  0  0  0999 V2000
   -3.1892   -3.5907    0.0000 C   0  0  0  0  0  0  0  0  0  0  0  0
   -2.3340   -2.3584    0.0000 C   0  0  0  0  0  0  0  0  0  0  0  0
   -2.9737   -1.0016    0.0000 C   0  0  0  0  0  0  0  0  0  0  0  0
   -4.4686   -0.8772    0.0000 C   0  0  0  0  0  0  0  0  0  0  0  0
   -5.1083    0.4795    0.0000 C   0  0  0  0  0  0  0  0  0  0  0  0
   -4.2531    1.7119    0.0000 O   0  0  0  0  0  0  0  0  0  0  0  0
   -6.6031    0.6039    0.0000 C   0  0  0  0  0  0  0  0  0  0  0  0
   -7.2428    1.9607    0.0000 C   0  0  0  0  0  0  0  0  0  0  0  0
   -6.3877    3.1931    0.0000 O   0  0  0  0  0  0  0  0  0  0  0  0
   -8.7376    2.0851    0.0000 O   0  0  0  0  0  0  0  0  0  0  0  0
   -0.8392   -2.4827    0.0000 C   0  0  0  0  0  0  0  0  0  0  0  0
   -0.0612   -3.7652    0.0000 C   0  0  0  0  0  0  0  0  0  0  0  0
    1.3989   -3.4216    0.0000 C   0  0  0  0  0  0  0  0  0  0  0  0
    1.5233   -1.9267    0.0000 C   0  0  0  0  0  0  0  0  0  0  0  0
    2.7174   -1.0189    0.0000 C   0  0  0  0  0  0  0  0  0  0  0  0
    4.1006   -1.5992    0.0000 C   0  0  0  0  0  0  0  0  0  0  0  0
    4.2898   -3.0872    0.0000 O   0  0  0  0  0  0  0  0  0  0  0  0
    5.2947   -0.6914    0.0000 C   0  0  0  0  0  0  0  0  0  0  0  0
    5.1056    0.7967    0.0000 C   0  0  0  0  0  0  0  0  0  0  0  0
    6.2997    1.7045    0.0000 C   0  0  0  0  0  0  0  0  0  0  0  0
    6.1106    3.1925    0.0000 C   0  0  0  0  0  0  0  0  0  0  0  0
    4.7274    3.7727    0.0000 C   0  0  0  0  0  0  0  0  0  0  0  0
    3.5333    2.8649    0.0000 C   0  0  0  0  0  0  0  0  0  0  0  0
    3.7224    1.3769    0.0000 C   0  0  0  0  0  0  0  0  0  0  0  0
    2.3391    1.9571    0.0000 C   0  0  0  0  0  0  0  0  0  0  0  0
    2.5283    0.4691    0.0000 C   0  0  0  0  0  0  0  0  0  0  0  0
    1.1450    1.0493    0.0000 C   0  0  0  0  0  0  0  0  0  0  0  0
   -0.0491    0.1415    0.0000 C   0  0  0  0  0  0  0  0  0  0  0  0
   -1.4323    0.7218    0.0000 O   0  0  0  0  0  0  0  0  0  0  0  0
    0.1401   -1.3465    0.0000 C   0  0  0  0  0  0  0  0  0  0  0  0
   -1.2962   -0.9140    0.0000 C   0  0  0  0  0  0  0  0  0  0  0  0
  2  1  1  6
  2  3  1  0
  3  4  1  0
  4  5  1  0
  5  6  2  0
  5  7  1  0
  7  8  1  0
  8  9  2  0
  8 10  1  0
  2 11  1  0
 11 12  1  6
 12 13  1  0
 14 13  1  6
 14 15  1  0
 15 16  1  1
 16 17  1  6
 16 18  1  0
 19 18  1  1
 19 20  1  0
 20 21  1  0
 21 22  1  0
 22 23  1  0
 23 24  1  0
 24 25  1  6
 24 26  1  0
 26 27  1  6
 27 28  1  0
 28 29  1  6
 28 30  1  0
 30 31  1  6
 30 11  1  0
 30 14  1  0
 26 15  1  0
 24 19  1  0
M  END
>  <MS_ID>  (1627) 
MS1692

>  <SMILES>  (1627) 
C[C@H](CCC(=O)CC(=O)O)[C@H]1CC[C@H]2[C@@H]3[C@@H](O)C[C@@H]4CCCC[C@]4(C)[C@H]3C[C@@H](O)[C@]12C

>  <Structure_dimension>  (1627) 
2D

$$$$
MS1693
     RDKit          2D

 30 33  0  0  0  0  0  0  0  0999 V2000
   -4.5666   -2.5970    0.0000 C   0  0  0  0  0  0  0  0  0  0  0  0
   -3.4685   -1.5751    0.0000 C   0  0  0  0  0  0  0  0  0  0  0  0
   -3.8044   -0.1132    0.0000 C   0  0  0  0  0  0  0  0  0  0  0  0
   -5.2384    0.3268    0.0000 C   0  0  0  0  0  0  0  0  0  0  0  0
   -5.5743    1.7887    0.0000 C   0  0  0  0  0  0  0  0  0  0  0  0
   -4.4762    2.8106    0.0000 O   0  0  0  0  0  0  0  0  0  0  0  0
   -7.0083    2.2287    0.0000 C   0  0  0  0  0  0  0  0  0  0  0  0
   -8.4423    2.6688    0.0000 N   0  0  0  0  0  0  0  0  0  0  0  0
   -2.0345   -2.0152    0.0000 C   0  0  0  0  0  0  0  0  0  0  0  0
   -1.5476   -3.4340    0.0000 C   0  0  0  0  0  0  0  0  0  0  0  0
   -0.0478   -3.4093    0.0000 C   0  0  0  0  0  0  0  0  0  0  0  0
    0.3922   -1.9753    0.0000 C   0  0  0  0  0  0  0  0  0  0  0  0
    1.7524   -1.3428    0.0000 C   0  0  0  0  0  0  0  0  0  0  0  0
    2.9802   -2.2044    0.0000 C   0  0  0  0  0  0  0  0  0  0  0  0
    2.8479   -3.6986    0.0000 O   0  0  0  0  0  0  0  0  0  0  0  0
    4.3403   -1.5719    0.0000 C   0  0  0  0  0  0  0  0  0  0  0  0
    4.4726   -0.0778    0.0000 C   0  0  0  0  0  0  0  0  0  0  0  0
    5.8327    0.5548    0.0000 C   0  0  0  0  0  0  0  0  0  0  0  0
    5.9650    2.0489    0.0000 C   0  0  0  0  0  0  0  0  0  0  0  0
    7.3251    2.6814    0.0000 O   0  0  0  0  0  0  0  0  0  0  0  0
    4.7371    2.9106    0.0000 C   0  0  0  0  0  0  0  0  0  0  0  0
    3.3770    2.2780    0.0000 C   0  0  0  0  0  0  0  0  0  0  0  0
    3.2448    0.7839    0.0000 C   0  0  0  0  0  0  0  0  0  0  0  0
    2.0169    1.6455    0.0000 C   0  0  0  0  0  0  0  0  0  0  0  0
    1.8846    0.1514    0.0000 C   0  0  0  0  0  0  0  0  0  0  0  0
    0.6568    1.0130    0.0000 C   0  0  0  0  0  0  0  0  0  0  0  0
   -0.7033    0.3805    0.0000 C   0  0  0  0  0  0  0  0  0  0  0  0
   -1.9312    1.2421    0.0000 O   0  0  0  0  0  0  0  0  0  0  0  0
   -0.8356   -1.1137    0.0000 C   0  0  0  0  0  0  0  0  0  0  0  0
   -2.1468   -0.3851    0.0000 C   0  0  0  0  0  0  0  0  0  0  0  0
  2  1  1  6
  2  3  1  0
  3  4  1  0
  4  5  1  0
  5  6  2  0
  5  7  1  0
  7  8  3  0
  2  9  1  0
  9 10  1  6
 10 11  1  0
 12 11  1  6
 12 13  1  0
 13 14  1  1
 14 15  1  1
 14 16  1  0
 17 16  1  1
 17 18  1  0
 18 19  1  0
 19 20  1  1
 19 21  1  0
 21 22  1  0
 22 23  1  0
 23 24  1  6
 23 25  1  0
 25 26  1  6
 26 27  1  0
 27 28  1  1
 27 29  1  0
 29 30  1  6
 29  9  1  0
 29 12  1  0
 25 13  1  0
 23 17  1  0
M  END
>  <MS_ID>  (1628) 
MS1693

>  <SMILES>  (1628) 
C[C@H](CCC(=O)C#N)[C@H]1CC[C@H]2[C@@H]3[C@H](O)C[C@@H]4C[C@H](O)CC[C@]4(C)[C@H]3C[C@H](O)[C@]12C

>  <Structure_dimension>  (1628) 
2D

$$$$
MS1694
     RDKit          2D

 37 41  0  0  0  0  0  0  0  0999 V2000
   -7.7979   -2.0734    0.0000 C   0  0  0  0  0  0  0  0  0  0  0  0
   -6.6037   -1.1657    0.0000 C   0  0  0  0  0  0  0  0  0  0  0  0
   -6.7927    0.3223    0.0000 C   0  0  0  0  0  0  0  0  0  0  0  0
   -8.1759    0.9027    0.0000 C   0  0  0  0  0  0  0  0  0  0  0  0
   -8.3649    2.3907    0.0000 C   0  0  0  0  0  0  0  0  0  0  0  0
   -7.1708    3.2984    0.0000 O   0  0  0  0  0  0  0  0  0  0  0  0
   -9.7481    2.9710    0.0000 O   0  0  0  0  0  0  0  0  0  0  0  0
   -5.2205   -1.7460    0.0000 C   0  0  0  0  0  0  0  0  0  0  0  0
   -4.8770   -3.2062    0.0000 C   0  0  0  0  0  0  0  0  0  0  0  0
   -3.3821   -3.3306    0.0000 C   0  0  0  0  0  0  0  0  0  0  0  0
   -2.8018   -1.9475    0.0000 C   0  0  0  0  0  0  0  0  0  0  0  0
   -1.3856   -1.4532    0.0000 C   0  0  0  0  0  0  0  0  0  0  0  0
   -0.2494   -2.4325    0.0000 C   0  0  0  0  0  0  0  0  0  0  0  0
    1.1668   -1.9383    0.0000 C   0  0  0  0  0  0  0  0  0  0  0  0
    1.4469   -0.4646    0.0000 C   0  0  0  0  0  0  0  0  0  0  0  0
    2.8631    0.0296    0.0000 C   0  0  0  0  0  0  0  0  0  0  0  0
    3.1431    1.5032    0.0000 C   0  0  0  0  0  0  0  0  0  0  0  0
    4.5594    1.9975    0.0000 O   0  0  0  0  0  0  0  0  0  0  0  0
    5.6955    1.0182    0.0000 C   0  0  0  0  0  0  0  0  0  0  0  0
    5.4155   -0.4555    0.0000 O   0  0  0  0  0  0  0  0  0  0  0  0
    6.5516   -1.4348    0.0000 C   0  0  0  0  0  0  0  0  0  0  0  0
    6.2716   -2.9084    0.0000 O   0  0  0  0  0  0  0  0  0  0  0  0
    7.9679   -0.9405    0.0000 C   0  0  0  0  0  0  0  0  0  0  0  0
    9.1040   -1.9199    0.0000 O   0  0  0  0  0  0  0  0  0  0  0  0
    8.2479    0.5331    0.0000 C   0  0  0  0  0  0  0  0  0  0  0  0
    9.6641    1.0274    0.0000 O   0  0  0  0  0  0  0  0  0  0  0  0
    7.1118    1.5124    0.0000 C   0  0  0  0  0  0  0  0  0  0  0  0
    7.3918    2.9861    0.0000 O   0  0  0  0  0  0  0  0  0  0  0  0
    2.0070    2.4826    0.0000 C   0  0  0  0  0  0  0  0  0  0  0  0
    0.5908    1.9883    0.0000 C   0  0  0  0  0  0  0  0  0  0  0  0
    0.3107    0.5147    0.0000 C   0  0  0  0  0  0  0  0  0  0  0  0
   -0.8255    1.4941    0.0000 C   0  0  0  0  0  0  0  0  0  0  0  0
   -1.1055    0.0204    0.0000 C   0  0  0  0  0  0  0  0  0  0  0  0
   -2.2417    0.9998    0.0000 C   0  0  0  0  0  0  0  0  0  0  0  0
   -3.6579    0.5055    0.0000 C   0  0  0  0  0  0  0  0  0  0  0  0
   -3.9380   -0.9681    0.0000 C   0  0  0  0  0  0  0  0  0  0  0  0
   -5.1703   -0.1129    0.0000 C   0  0  0  0  0  0  0  0  0  0  0  0
  2  1  1  6
  2  3  1  0
  3  4  1  0
  4  5  1  0
  5  6  2  0
  5  7  1  0
  2  8  1  0
  8  9  1  6
  9 10  1  0
 11 10  1  6
 11 12  1  0
 12 13  1  1
 13 14  1  0
 15 14  1  1
 15 16  1  0
 16 17  1  0
 17 18  1  1
 19 18  1  1
 19 20  1  0
 20 21  1  0
 21 22  1  1
 21 23  1  0
 23 24  1  6
 23 25  1  0
 25 26  1  1
 25 27  1  0
 27 28  1  1
 17 29  1  0
 29 30  1  0
 30 31  1  0
 31 32  1  6
 31 33  1  0
 33 34  1  6
 34 35  1  0
 35 36  1  0
 36 37  1  6
 36  8  1  0
 36 11  1  0
 33 12  1  0
 31 15  1  0
 27 19  1  0
M  END
>  <MS_ID>  (1629) 
MS1694

>  <SMILES>  (1629) 
C[C@H](CCC(=O)O)[C@H]1CC[C@H]2[C@@H]3CC[C@@H]4C[C@H](O[C@@H]5O[C@H](O)[C@@H](O)[C@H](O)[C@@H]5O)CC[C@]4(C)[C@H]3CC[C@]12C

>  <Structure_dimension>  (1629) 
2D

$$$$
MS1695
     RDKit          2D

 28 31  0  0  0  0  0  0  0  0999 V2000
   -7.1516    2.9851    0.0000 C   0  0  0  0  0  0  0  0  0  0  0  0
   -5.7600    2.4252    0.0000 C   0  0  0  0  0  0  0  0  0  0  0  0
   -4.5793    3.3503    0.0000 O   0  0  0  0  0  0  0  0  0  0  0  0
   -5.5492    0.9401    0.0000 C   0  0  0  0  0  0  0  0  0  0  0  0
   -4.1576    0.3801    0.0000 C   0  0  0  0  0  0  0  0  0  0  0  0
   -3.9468   -1.1050    0.0000 C   0  0  0  0  0  0  0  0  0  0  0  0
   -5.1275   -2.0302    0.0000 C   0  0  0  0  0  0  0  0  0  0  0  0
   -2.5552   -1.6650    0.0000 C   0  0  0  0  0  0  0  0  0  0  0  0
   -2.1903   -3.1199    0.0000 C   0  0  0  0  0  0  0  0  0  0  0  0
   -0.6938   -3.2225    0.0000 C   0  0  0  0  0  0  0  0  0  0  0  0
   -0.1339   -1.8309    0.0000 C   0  0  0  0  0  0  0  0  0  0  0  0
    1.2750   -1.3159    0.0000 C   0  0  0  0  0  0  0  0  0  0  0  0
    2.4254   -2.2785    0.0000 C   0  0  0  0  0  0  0  0  0  0  0  0
    2.1670   -3.7560    0.0000 O   0  0  0  0  0  0  0  0  0  0  0  0
    3.8342   -1.7635    0.0000 C   0  0  0  0  0  0  0  0  0  0  0  0
    4.0926   -0.2859    0.0000 C   0  0  0  0  0  0  0  0  0  0  0  0
    5.5014    0.2291    0.0000 C   0  0  0  0  0  0  0  0  0  0  0  0
    5.7598    1.7067    0.0000 C   0  0  0  0  0  0  0  0  0  0  0  0
    7.1687    2.2217    0.0000 O   0  0  0  0  0  0  0  0  0  0  0  0
    4.6094    2.6692    0.0000 C   0  0  0  0  0  0  0  0  0  0  0  0
    3.2006    2.1542    0.0000 C   0  0  0  0  0  0  0  0  0  0  0  0
    2.9422    0.6767    0.0000 C   0  0  0  0  0  0  0  0  0  0  0  0
    1.7918    1.6392    0.0000 C   0  0  0  0  0  0  0  0  0  0  0  0
    1.5334    0.1617    0.0000 C   0  0  0  0  0  0  0  0  0  0  0  0
    0.3830    1.1242    0.0000 C   0  0  0  0  0  0  0  0  0  0  0  0
   -1.0259    0.6093    0.0000 C   0  0  0  0  0  0  0  0  0  0  0  0
   -1.2843   -0.8683    0.0000 C   0  0  0  0  0  0  0  0  0  0  0  0
   -2.5290   -0.0313    0.0000 C   0  0  0  0  0  0  0  0  0  0  0  0
  1  2  1  0
  2  3  2  0
  2  4  1  0
  4  5  1  0
  5  6  1  0
  6  7  1  6
  6  8  1  0
  8  9  1  6
  9 10  1  0
 11 10  1  6
 11 12  1  0
 12 13  1  1
 13 14  1  1
 13 15  1  0
 16 15  1  1
 16 17  1  0
 17 18  1  0
 18 19  2  0
 18 20  1  0
 20 21  1  0
 21 22  1  0
 22 23  1  6
 22 24  1  0
 24 25  1  6
 25 26  1  0
 26 27  1  0
 27 28  1  6
 27  8  1  0
 27 11  1  0
 24 12  1  0
 22 16  1  0
M  END
>  <MS_ID>  (1630) 
MS1695

>  <SMILES>  (1630) 
CC(=O)CC[C@@H](C)[C@H]1CC[C@H]2[C@@H]3[C@H](O)C[C@@H]4CC(=O)CC[C@]4(C)[C@H]3CC[C@]12C

>  <Structure_dimension>  (1630) 
2D

$$$$
MS1696
     RDKit          2D

 36 40  0  0  0  0  0  0  0  0999 V2000
   -2.0625   -4.0210    0.0000 C   0  0  0  0  0  0  0  0  0  0  0  0
   -1.2935   -2.7331    0.0000 C   0  0  0  0  0  0  0  0  0  0  0  0
   -2.0243   -1.4232    0.0000 C   0  0  0  0  0  0  0  0  0  0  0  0
   -3.5241   -1.4011    0.0000 C   0  0  0  0  0  0  0  0  0  0  0  0
   -4.2549   -0.0912    0.0000 C   0  0  0  0  0  0  0  0  0  0  0  0
   -3.4858    1.1967    0.0000 O   0  0  0  0  0  0  0  0  0  0  0  0
   -5.7547   -0.0691    0.0000 O   0  0  0  0  0  0  0  0  0  0  0  0
   -6.4855    1.2409    0.0000 C   0  0  0  0  0  0  0  0  0  0  0  0
   -7.9854    1.2630    0.0000 C   0  0  0  0  0  0  0  0  0  0  0  0
   -8.7161    2.5729    0.0000 C   0  0  0  0  0  0  0  0  0  0  0  0
  -10.2160    2.5950    0.0000 N   0  0  0  0  0  0  0  0  0  0  0  0
  -10.9850    1.3071    0.0000 C   0  0  0  0  0  0  0  0  0  0  0  0
  -10.2542   -0.0028    0.0000 C   0  0  0  0  0  0  0  0  0  0  0  0
   -8.7544   -0.0249    0.0000 N   0  0  0  0  0  0  0  0  0  0  0  0
    0.2063   -2.7552    0.0000 C   0  0  0  0  0  0  0  0  0  0  0  0
    1.0701   -3.9816    0.0000 C   0  0  0  0  0  0  0  0  0  0  0  0
    2.5033   -3.5392    0.0000 C   0  0  0  0  0  0  0  0  0  0  0  0
    2.5254   -2.0393    0.0000 C   0  0  0  0  0  0  0  0  0  0  0  0
    3.6548   -1.0521    0.0000 C   0  0  0  0  0  0  0  0  0  0  0  0
    5.0744   -1.5366    0.0000 C   0  0  0  0  0  0  0  0  0  0  0  0
    5.3646   -3.0083    0.0000 O   0  0  0  0  0  0  0  0  0  0  0  0
    6.2038   -0.5495    0.0000 C   0  0  0  0  0  0  0  0  0  0  0  0
    7.6234   -1.0339    0.0000 O   0  0  0  0  0  0  0  0  0  0  0  0
    5.9135    0.9222    0.0000 C   0  0  0  0  0  0  0  0  0  0  0  0
    7.0429    1.9094    0.0000 C   0  0  0  0  0  0  0  0  0  0  0  0
    6.7527    3.3810    0.0000 C   0  0  0  0  0  0  0  0  0  0  0  0
    7.8821    4.3682    0.0000 O   0  0  0  0  0  0  0  0  0  0  0  0
    5.3331    3.8655    0.0000 C   0  0  0  0  0  0  0  0  0  0  0  0
    4.2037    2.8783    0.0000 C   0  0  0  0  0  0  0  0  0  0  0  0
    4.4939    1.4067    0.0000 C   0  0  0  0  0  0  0  0  0  0  0  0
    3.0743    1.8912    0.0000 C   0  0  0  0  0  0  0  0  0  0  0  0
    3.3646    0.4195    0.0000 C   0  0  0  0  0  0  0  0  0  0  0  0
    1.9450    0.9040    0.0000 C   0  0  0  0  0  0  0  0  0  0  0  0
    0.8156   -0.0832    0.0000 C   0  0  0  0  0  0  0  0  0  0  0  0
    1.1058   -1.5548    0.0000 C   0  0  0  0  0  0  0  0  0  0  0  0
   -0.3567   -1.2214    0.0000 C   0  0  0  0  0  0  0  0  0  0  0  0
  2  1  1  6
  2  3  1  0
  3  4  1  0
  4  5  1  0
  5  6  2  0
  5  7  1  0
  7  8  1  0
  8  9  1  0
  9 10  2  0
 10 11  1  0
 11 12  2  0
 12 13  1  0
 13 14  2  0
  2 15  1  0
 15 16  1  6
 16 17  1  0
 18 17  1  6
 18 19  1  0
 19 20  1  1
 20 21  1  1
 20 22  1  0
 22 23  1  1
 22 24  1  0
 24 25  1  1
 25 26  1  0
 26 27  1  1
 26 28  1  0
 28 29  1  0
 29 30  1  0
 30 31  1  6
 30 32  1  0
 32 33  1  6
 33 34  1  0
 34 35  1  0
 35 36  1  6
 14  9  1  0
 35 15  1  0
 35 18  1  0
 32 19  1  0
 30 24  1  0
M  END
>  <MS_ID>  (1631) 
MS1696

>  <SMILES>  (1631) 
C[C@H](CCC(=O)OCc1cnccn1)[C@H]1CC[C@H]2[C@@H]3[C@H](O)[C@H](O)[C@@H]4C[C@H](O)CC[C@]4(C)[C@H]3CC[C@]12C

>  <Structure_dimension>  (1631) 
2D

$$$$
MS1697
     RDKit          2D

 29 32  0  0  0  0  0  0  0  0999 V2000
   -4.5534   -2.6812    0.0000 C   0  0  0  0  0  0  0  0  0  0  0  0
   -3.4378   -1.6786    0.0000 C   0  0  0  0  0  0  0  0  0  0  0  0
   -3.7483   -0.2111    0.0000 C   0  0  0  0  0  0  0  0  0  0  0  0
   -5.1744    0.2538    0.0000 C   0  0  0  0  0  0  0  0  0  0  0  0
   -5.4850    1.7213    0.0000 C   0  0  0  0  0  0  0  0  0  0  0  0
   -4.3693    2.7239    0.0000 O   0  0  0  0  0  0  0  0  0  0  0  0
   -6.9111    2.1861    0.0000 N   0  0  0  0  0  0  0  0  0  0  0  0
   -7.2216    3.6536    0.0000 O   0  0  0  0  0  0  0  0  0  0  0  0
   -2.0116   -2.1434    0.0000 C   0  0  0  0  0  0  0  0  0  0  0  0
   -1.5494   -3.5704    0.0000 C   0  0  0  0  0  0  0  0  0  0  0  0
   -0.0494   -3.5718    0.0000 C   0  0  0  0  0  0  0  0  0  0  0  0
    0.4155   -2.1456    0.0000 C   0  0  0  0  0  0  0  0  0  0  0  0
    1.7863   -1.5368    0.0000 C   0  0  0  0  0  0  0  0  0  0  0  0
    2.9990   -2.4196    0.0000 C   0  0  0  0  0  0  0  0  0  0  0  0
    4.3699   -1.8107    0.0000 C   0  0  0  0  0  0  0  0  0  0  0  0
    4.5281   -0.3191    0.0000 C   0  0  0  0  0  0  0  0  0  0  0  0
    5.8990    0.2898    0.0000 C   0  0  0  0  0  0  0  0  0  0  0  0
    6.0571    1.7814    0.0000 C   0  0  0  0  0  0  0  0  0  0  0  0
    7.4280    2.3902    0.0000 O   0  0  0  0  0  0  0  0  0  0  0  0
    4.8444    2.6642    0.0000 C   0  0  0  0  0  0  0  0  0  0  0  0
    3.4735    2.0553    0.0000 C   0  0  0  0  0  0  0  0  0  0  0  0
    3.3154    0.5637    0.0000 C   0  0  0  0  0  0  0  0  0  0  0  0
    2.1026    1.4465    0.0000 C   0  0  0  0  0  0  0  0  0  0  0  0
    1.9445   -0.0451    0.0000 C   0  0  0  0  0  0  0  0  0  0  0  0
    0.7318    0.8376    0.0000 C   0  0  0  0  0  0  0  0  0  0  0  0
   -0.6391    0.2288    0.0000 C   0  0  0  0  0  0  0  0  0  0  0  0
   -1.8518    1.1116    0.0000 O   0  0  0  0  0  0  0  0  0  0  0  0
   -0.7973   -1.2628    0.0000 C   0  0  0  0  0  0  0  0  0  0  0  0
   -2.0956   -0.5116    0.0000 C   0  0  0  0  0  0  0  0  0  0  0  0
  2  1  1  6
  2  3  1  0
  3  4  1  0
  4  5  1  0
  5  6  2  0
  5  7  1  0
  7  8  1  0
  2  9  1  0
  9 10  1  6
 10 11  1  0
 12 11  1  6
 12 13  1  0
 13 14  1  1
 14 15  1  0
 16 15  1  1
 16 17  1  0
 17 18  1  0
 18 19  1  6
 18 20  1  0
 20 21  1  0
 21 22  1  0
 22 23  1  6
 22 24  1  0
 24 25  1  6
 25 26  1  0
 26 27  1  6
 26 28  1  0
 28 29  1  6
 28  9  1  0
 28 12  1  0
 24 13  1  0
 22 16  1  0
M  END
>  <MS_ID>  (1632) 
MS1697

>  <SMILES>  (1632) 
C[C@H](CCC(=O)NO)[C@H]1CC[C@H]2[C@@H]3CC[C@@H]4C[C@@H](O)CC[C@]4(C)[C@H]3C[C@@H](O)[C@]12C

>  <Structure_dimension>  (1632) 
2D

$$$$
MS1698
     RDKit          2D

 32 35  0  0  0  0  0  0  0  0999 V2000
   -2.9090   -3.9078    0.0000 C   0  0  0  0  0  0  0  0  0  0  0  0
   -2.0926   -2.6494    0.0000 C   0  0  0  0  0  0  0  0  0  0  0  0
   -2.7741   -1.3132    0.0000 C   0  0  0  0  0  0  0  0  0  0  0  0
   -4.2721   -1.2353    0.0000 C   0  0  0  0  0  0  0  0  0  0  0  0
   -4.9536    0.1009    0.0000 C   0  0  0  0  0  0  0  0  0  0  0  0
   -4.1372    1.3592    0.0000 O   0  0  0  0  0  0  0  0  0  0  0  0
   -6.4516    0.1788    0.0000 N   0  0  0  0  0  0  0  0  0  0  0  0
   -7.1332    1.5150    0.0000 C   0  0  0  0  0  0  0  0  0  0  0  0
   -8.6311    1.5929    0.0000 C   0  0  0  0  0  0  0  0  0  0  0  0
   -9.3127    2.9291    0.0000 C   0  0  0  0  0  0  0  0  0  0  0  0
  -10.8107    3.0070    0.0000 O   0  0  0  0  0  0  0  0  0  0  0  0
   -0.5946   -2.7273    0.0000 C   0  0  0  0  0  0  0  0  0  0  0  0
    0.2229   -3.9850    0.0000 C   0  0  0  0  0  0  0  0  0  0  0  0
    1.6716   -3.5962    0.0000 C   0  0  0  0  0  0  0  0  0  0  0  0
    1.7495   -2.0982    0.0000 C   0  0  0  0  0  0  0  0  0  0  0  0
    2.9148   -1.1537    0.0000 C   0  0  0  0  0  0  0  0  0  0  0  0
    4.3154   -1.6907    0.0000 C   0  0  0  0  0  0  0  0  0  0  0  0
    4.5507   -3.1721    0.0000 O   0  0  0  0  0  0  0  0  0  0  0  0
    5.4807   -0.7462    0.0000 C   0  0  0  0  0  0  0  0  0  0  0  0
    5.2455    0.7352    0.0000 C   0  0  0  0  0  0  0  0  0  0  0  0
    6.4108    1.6797    0.0000 C   0  0  0  0  0  0  0  0  0  0  0  0
    6.1755    3.1611    0.0000 C   0  0  0  0  0  0  0  0  0  0  0  0
    7.3408    4.1056    0.0000 O   0  0  0  0  0  0  0  0  0  0  0  0
    4.7749    3.6981    0.0000 C   0  0  0  0  0  0  0  0  0  0  0  0
    3.6096    2.7536    0.0000 C   0  0  0  0  0  0  0  0  0  0  0  0
    3.8449    1.2722    0.0000 C   0  0  0  0  0  0  0  0  0  0  0  0
    2.4443    1.8091    0.0000 C   0  0  0  0  0  0  0  0  0  0  0  0
    2.6795    0.3277    0.0000 C   0  0  0  0  0  0  0  0  0  0  0  0
    1.2789    0.8647    0.0000 C   0  0  0  0  0  0  0  0  0  0  0  0
    0.1136   -0.0798    0.0000 C   0  0  0  0  0  0  0  0  0  0  0  0
    0.3489   -1.5612    0.0000 C   0  0  0  0  0  0  0  0  0  0  0  0
   -1.1002   -1.1736    0.0000 C   0  0  0  0  0  0  0  0  0  0  0  0
  2  1  1  6
  2  3  1  0
  3  4  1  0
  4  5  1  0
  5  6  2  0
  5  7  1  0
  7  8  1  0
  8  9  1  0
  9 10  1  0
 10 11  1  0
  2 12  1  0
 12 13  1  6
 13 14  1  0
 15 14  1  6
 15 16  1  0
 16 17  1  1
 17 18  1  1
 17 19  1  0
 20 19  1  1
 20 21  1  0
 21 22  1  0
 22 23  2  0
 22 24  1  0
 24 25  1  0
 25 26  1  0
 26 27  1  6
 26 28  1  0
 28 29  1  6
 29 30  1  0
 30 31  1  0
 31 32  1  6
 31 12  1  0
 31 15  1  0
 28 16  1  0
 26 20  1  0
M  END
>  <MS_ID>  (1633) 
MS1698

>  <SMILES>  (1633) 
C[C@H](CCC(=O)NCCCO)[C@H]1CC[C@H]2[C@@H]3[C@H](O)C[C@@H]4CC(=O)CC[C@]4(C)[C@H]3CC[C@]12C

>  <Structure_dimension>  (1633) 
2D

$$$$
MS1699
     RDKit          2D

 29 32  0  0  0  0  0  0  0  0999 V2000
    5.2401    2.0328    0.0000 C   0  0  0  0  0  0  0  0  0  0  0  0
    4.0410    1.1316    0.0000 C   0  0  0  0  0  0  0  0  0  0  0  0
    4.2220   -0.3575    0.0000 C   0  0  0  0  0  0  0  0  0  0  0  0
    5.6020   -0.9453    0.0000 C   0  0  0  0  0  0  0  0  0  0  0  0
    5.7830   -2.4343    0.0000 C   0  0  0  0  0  0  0  0  0  0  0  0
    4.5839   -3.3355    0.0000 O   0  0  0  0  0  0  0  0  0  0  0  0
    7.1630   -3.0221    0.0000 O   0  0  0  0  0  0  0  0  0  0  0  0
    2.6610    1.7194    0.0000 C   0  0  0  0  0  0  0  0  0  0  0  0
    2.3254    3.1813    0.0000 C   0  0  0  0  0  0  0  0  0  0  0  0
    0.8312    3.3139    0.0000 C   0  0  0  0  0  0  0  0  0  0  0  0
    0.2434    1.9339    0.0000 C   0  0  0  0  0  0  0  0  0  0  0  0
   -1.1754    1.4473    0.0000 C   0  0  0  0  0  0  0  0  0  0  0  0
   -2.3063    2.4327    0.0000 C   0  0  0  0  0  0  0  0  0  0  0  0
   -2.0183    3.9048    0.0000 O   0  0  0  0  0  0  0  0  0  0  0  0
   -3.7252    1.9461    0.0000 C   0  0  0  0  0  0  0  0  0  0  0  0
   -4.0132    0.4740    0.0000 C   0  0  0  0  0  0  0  0  0  0  0  0
   -5.4321   -0.0126    0.0000 C   0  0  0  0  0  0  0  0  0  0  0  0
   -5.7201   -1.4846    0.0000 C   0  0  0  0  0  0  0  0  0  0  0  0
   -7.1390   -1.9713    0.0000 O   0  0  0  0  0  0  0  0  0  0  0  0
   -4.5892   -2.4701    0.0000 C   0  0  0  0  0  0  0  0  0  0  0  0
   -3.1704   -1.9835    0.0000 C   0  0  0  0  0  0  0  0  0  0  0  0
   -2.0395   -2.9690    0.0000 O   0  0  0  0  0  0  0  0  0  0  0  0
   -2.8823   -0.5114    0.0000 C   0  0  0  0  0  0  0  0  0  0  0  0
   -1.7515   -1.4969    0.0000 C   0  0  0  0  0  0  0  0  0  0  0  0
   -1.4635   -0.0248    0.0000 C   0  0  0  0  0  0  0  0  0  0  0  0
   -0.3326   -1.0103    0.0000 C   0  0  0  0  0  0  0  0  0  0  0  0
    1.0863   -0.5237    0.0000 C   0  0  0  0  0  0  0  0  0  0  0  0
    1.3743    0.9484    0.0000 C   0  0  0  0  0  0  0  0  0  0  0  0
    2.6020    0.0865    0.0000 C   0  0  0  0  0  0  0  0  0  0  0  0
  2  1  1  6
  2  3  1  0
  3  4  1  0
  4  5  1  0
  5  6  2  0
  5  7  1  0
  2  8  1  0
  8  9  1  6
  9 10  1  0
 11 10  1  6
 11 12  1  0
 12 13  1  1
 13 14  1  1
 13 15  1  0
 16 15  1  1
 16 17  1  0
 17 18  1  0
 18 19  1  1
 18 20  1  0
 20 21  1  0
 21 22  1  6
 21 23  1  0
 23 24  1  6
 23 25  1  0
 25 26  1  1
 26 27  1  0
 27 28  1  0
 28 29  1  6
 28  8  1  0
 28 11  1  0
 25 12  1  0
 23 16  1  0
M  END
>  <MS_ID>  (1634) 
MS1699

>  <SMILES>  (1634) 
C[C@H](CCC(=O)O)[C@H]1CC[C@H]2[C@@H]3[C@H](O)C[C@@H]4C[C@H](O)C[C@@H](O)[C@]4(C)[C@@H]3CC[C@]12C

>  <Structure_dimension>  (1634) 
2D

$$$$
MS1700
     RDKit          2D

 27 30  0  0  0  0  0  0  0  0999 V2000
   -5.2592   -1.7738    0.0000 C   0  0  0  0  0  0  0  0  0  0  0  0
   -4.0222   -0.9253    0.0000 C   0  0  0  0  0  0  0  0  0  0  0  0
   -4.1386    0.5702    0.0000 C   0  0  0  0  0  0  0  0  0  0  0  0
   -5.4919    1.2172    0.0000 C   0  0  0  0  0  0  0  0  0  0  0  0
   -5.6082    2.7126    0.0000 C   0  0  0  0  0  0  0  0  0  0  0  0
   -6.9615    3.3596    0.0000 O   0  0  0  0  0  0  0  0  0  0  0  0
   -2.6689   -1.5723    0.0000 C   0  0  0  0  0  0  0  0  0  0  0  0
   -2.3969   -3.0474    0.0000 C   0  0  0  0  0  0  0  0  0  0  0  0
   -0.9099   -3.2446    0.0000 C   0  0  0  0  0  0  0  0  0  0  0  0
   -0.2629   -1.8913    0.0000 C   0  0  0  0  0  0  0  0  0  0  0  0
    1.1757   -1.4666    0.0000 C   0  0  0  0  0  0  0  0  0  0  0  0
    2.2628   -2.5001    0.0000 C   0  0  0  0  0  0  0  0  0  0  0  0
    3.7014   -2.0754    0.0000 C   0  0  0  0  0  0  0  0  0  0  0  0
    4.0529   -0.6171    0.0000 C   0  0  0  0  0  0  0  0  0  0  0  0
    5.4915   -0.1924    0.0000 C   0  0  0  0  0  0  0  0  0  0  0  0
    5.8430    1.2658    0.0000 C   0  0  0  0  0  0  0  0  0  0  0  0
    7.2816    1.6906    0.0000 O   0  0  0  0  0  0  0  0  0  0  0  0
    4.7559    2.2994    0.0000 C   0  0  0  0  0  0  0  0  0  0  0  0
    3.3173    1.8746    0.0000 C   0  0  0  0  0  0  0  0  0  0  0  0
    2.9658    0.4164    0.0000 C   0  0  0  0  0  0  0  0  0  0  0  0
    1.8787    1.4499    0.0000 C   0  0  0  0  0  0  0  0  0  0  0  0
    1.5272   -0.0083    0.0000 C   0  0  0  0  0  0  0  0  0  0  0  0
    0.4400    1.0252    0.0000 C   0  0  0  0  0  0  0  0  0  0  0  0
   -0.9986    0.6005    0.0000 C   0  0  0  0  0  0  0  0  0  0  0  0
   -2.0857    1.6340    0.0000 O   0  0  0  0  0  0  0  0  0  0  0  0
   -1.3501   -0.8578    0.0000 C   0  0  0  0  0  0  0  0  0  0  0  0
   -2.5393    0.0565    0.0000 C   0  0  0  0  0  0  0  0  0  0  0  0
  2  1  1  6
  2  3  1  0
  3  4  1  0
  4  5  1  0
  5  6  2  0
  2  7  1  0
  7  8  1  6
  8  9  1  0
 10  9  1  6
 10 11  1  0
 11 12  1  1
 12 13  1  0
 14 13  1  1
 14 15  1  0
 15 16  1  0
 16 17  1  1
 16 18  1  0
 18 19  1  0
 19 20  1  0
 20 21  1  6
 20 22  1  0
 22 23  1  6
 23 24  1  0
 24 25  1  6
 24 26  1  0
 26 27  1  6
 26  7  1  0
 26 10  1  0
 22 11  1  0
 20 14  1  0
M  END
>  <MS_ID>  (1635) 
MS1700

>  <SMILES>  (1635) 
C[C@H](CCC=O)[C@H]1CC[C@H]2[C@@H]3CC[C@@H]4C[C@H](O)CC[C@]4(C)[C@H]3C[C@@H](O)[C@]12C

>  <Structure_dimension>  (1635) 
2D

$$$$
MS1701
     RDKit          2D

 33 36  0  0  0  0  0  0  0  0999 V2000
   -8.3831    3.0023    0.0000 C   0  0  0  0  0  0  0  0  0  0  0  0
   -6.9100    2.7193    0.0000 C   0  0  0  0  0  0  0  0  0  0  0  0
   -6.4185    1.3021    0.0000 N   0  0  0  0  0  0  0  0  0  0  0  0
   -7.4001    0.1679    0.0000 C   0  0  0  0  0  0  0  0  0  0  0  0
   -8.8732    0.4509    0.0000 C   0  0  0  0  0  0  0  0  0  0  0  0
   -4.9454    1.0192    0.0000 C   0  0  0  0  0  0  0  0  0  0  0  0
   -3.9638    2.1534    0.0000 O   0  0  0  0  0  0  0  0  0  0  0  0
   -4.4540   -0.3980    0.0000 C   0  0  0  0  0  0  0  0  0  0  0  0
   -2.9809   -0.6810    0.0000 C   0  0  0  0  0  0  0  0  0  0  0  0
   -2.4894   -2.0982    0.0000 C   0  0  0  0  0  0  0  0  0  0  0  0
   -3.4710   -3.2324    0.0000 C   0  0  0  0  0  0  0  0  0  0  0  0
   -1.0163   -2.3812    0.0000 C   0  0  0  0  0  0  0  0  0  0  0  0
   -0.3794   -3.7392    0.0000 C   0  0  0  0  0  0  0  0  0  0  0  0
    1.1090   -3.5531    0.0000 C   0  0  0  0  0  0  0  0  0  0  0  0
    1.3920   -2.0801    0.0000 C   0  0  0  0  0  0  0  0  0  0  0  0
    2.6760   -1.3047    0.0000 C   0  0  0  0  0  0  0  0  0  0  0  0
    3.9895   -2.0290    0.0000 C   0  0  0  0  0  0  0  0  0  0  0  0
    4.0190   -3.5287    0.0000 O   0  0  0  0  0  0  0  0  0  0  0  0
    5.2736   -1.2536    0.0000 C   0  0  0  0  0  0  0  0  0  0  0  0
    5.2441    0.2461    0.0000 C   0  0  0  0  0  0  0  0  0  0  0  0
    6.5281    1.0215    0.0000 C   0  0  0  0  0  0  0  0  0  0  0  0
    6.4986    2.5212    0.0000 C   0  0  0  0  0  0  0  0  0  0  0  0
    7.7827    3.2966    0.0000 O   0  0  0  0  0  0  0  0  0  0  0  0
    5.1851    3.2455    0.0000 C   0  0  0  0  0  0  0  0  0  0  0  0
    3.9011    2.4701    0.0000 C   0  0  0  0  0  0  0  0  0  0  0  0
    3.9306    0.9704    0.0000 C   0  0  0  0  0  0  0  0  0  0  0  0
    2.6170    1.6947    0.0000 C   0  0  0  0  0  0  0  0  0  0  0  0
    2.6465    0.1950    0.0000 C   0  0  0  0  0  0  0  0  0  0  0  0
    1.3330    0.9193    0.0000 C   0  0  0  0  0  0  0  0  0  0  0  0
    0.0489    0.1440    0.0000 C   0  0  0  0  0  0  0  0  0  0  0  0
   -1.2646    0.8683    0.0000 O   0  0  0  0  0  0  0  0  0  0  0  0
    0.0784   -1.3558    0.0000 C   0  0  0  0  0  0  0  0  0  0  0  0
   -1.3036   -0.7727    0.0000 C   0  0  0  0  0  0  0  0  0  0  0  0
  1  2  1  0
  2  3  1  0
  3  4  1  0
  4  5  1  0
  3  6  1  0
  6  7  2  0
  6  8  1  0
  8  9  1  0
  9 10  1  0
 10 11  1  6
 10 12  1  0
 12 13  1  6
 13 14  1  0
 15 14  1  6
 15 16  1  0
 16 17  1  1
 17 18  1  1
 17 19  1  0
 20 19  1  1
 20 21  1  0
 21 22  1  0
 22 23  1  1
 22 24  1  0
 24 25  1  0
 25 26  1  0
 26 27  1  6
 26 28  1  0
 28 29  1  6
 29 30  1  0
 30 31  1  1
 30 32  1  0
 32 33  1  6
 32 12  1  0
 32 15  1  0
 28 16  1  0
 26 20  1  0
M  END
>  <MS_ID>  (1636) 
MS1701

>  <SMILES>  (1636) 
CCN(CC)C(=O)CC[C@@H](C)[C@H]1CC[C@H]2[C@@H]3[C@H](O)C[C@@H]4C[C@H](O)CC[C@]4(C)[C@H]3C[C@H](O)[C@]12C

>  <Structure_dimension>  (1636) 
2D

$$$$
MS1702
     RDKit          2D

 30 33  0  0  0  0  0  0  0  0999 V2000
   -4.4787   -3.0199    0.0000 C   0  0  0  0  0  0  0  0  0  0  0  0
   -3.4346   -1.9429    0.0000 C   0  0  0  0  0  0  0  0  0  0  0  0
   -3.8453   -0.5003    0.0000 C   0  0  0  0  0  0  0  0  0  0  0  0
   -5.3001   -0.1346    0.0000 C   0  0  0  0  0  0  0  0  0  0  0  0
   -5.7108    1.3081    0.0000 C   0  0  0  0  0  0  0  0  0  0  0  0
   -7.1655    1.6738    0.0000 O   0  0  0  0  0  0  0  0  0  0  0  0
   -4.6667    2.3851    0.0000 O   0  0  0  0  0  0  0  0  0  0  0  0
   -5.0774    3.8278    0.0000 C   0  0  0  0  0  0  0  0  0  0  0  0
   -4.0333    4.9048    0.0000 F   0  0  0  0  0  0  0  0  0  0  0  0
   -1.9799   -2.3086    0.0000 C   0  0  0  0  0  0  0  0  0  0  0  0
   -1.4207   -3.7005    0.0000 C   0  0  0  0  0  0  0  0  0  0  0  0
    0.0759   -3.5987    0.0000 C   0  0  0  0  0  0  0  0  0  0  0  0
    0.4416   -2.1440    0.0000 C   0  0  0  0  0  0  0  0  0  0  0  0
    1.7673   -1.4423    0.0000 C   0  0  0  0  0  0  0  0  0  0  0  0
    3.0379   -2.2397    0.0000 C   0  0  0  0  0  0  0  0  0  0  0  0
    2.9826   -3.7386    0.0000 O   0  0  0  0  0  0  0  0  0  0  0  0
    4.3636   -1.5380    0.0000 C   0  0  0  0  0  0  0  0  0  0  0  0
    4.4189   -0.0390    0.0000 C   0  0  0  0  0  0  0  0  0  0  0  0
    5.7447    0.6626    0.0000 C   0  0  0  0  0  0  0  0  0  0  0  0
    5.7999    2.1616    0.0000 C   0  0  0  0  0  0  0  0  0  0  0  0
    7.1257    2.8633    0.0000 O   0  0  0  0  0  0  0  0  0  0  0  0
    4.5293    2.9590    0.0000 C   0  0  0  0  0  0  0  0  0  0  0  0
    3.2036    2.2573    0.0000 C   0  0  0  0  0  0  0  0  0  0  0  0
    3.1483    0.7583    0.0000 C   0  0  0  0  0  0  0  0  0  0  0  0
    1.8778    1.5556    0.0000 C   0  0  0  0  0  0  0  0  0  0  0  0
    1.8226    0.0567    0.0000 C   0  0  0  0  0  0  0  0  0  0  0  0
    0.5520    0.8540    0.0000 C   0  0  0  0  0  0  0  0  0  0  0  0
   -0.7738    0.1523    0.0000 C   0  0  0  0  0  0  0  0  0  0  0  0
   -0.8290   -1.3467    0.0000 C   0  0  0  0  0  0  0  0  0  0  0  0
   -2.1759   -0.6865    0.0000 C   0  0  0  0  0  0  0  0  0  0  0  0
  2  1  1  6
  2  3  1  0
  3  4  1  0
  4  5  1  0
  5  6  2  0
  5  7  1  0
  7  8  1  0
  8  9  1  0
  2 10  1  0
 10 11  1  6
 11 12  1  0
 13 12  1  6
 13 14  1  0
 14 15  1  1
 15 16  1  6
 15 17  1  0
 18 17  1  1
 18 19  1  0
 19 20  1  0
 20 21  1  1
 20 22  1  0
 22 23  1  0
 23 24  1  0
 24 25  1  6
 24 26  1  0
 26 27  1  6
 27 28  1  0
 28 29  1  0
 29 30  1  6
 29 10  1  0
 29 13  1  0
 26 14  1  0
 24 18  1  0
M  END
>  <MS_ID>  (1637) 
MS1702

>  <SMILES>  (1637) 
C[C@H](CCC(=O)OCF)[C@H]1CC[C@H]2[C@@H]3[C@@H](O)C[C@@H]4C[C@H](O)CC[C@]4(C)[C@H]3CC[C@]12C

>  <Structure_dimension>  (1637) 
2D

$$$$
MS1703
     RDKit          2D

 35 39  0  0  0  0  0  0  0  0999 V2000
   -2.2319   -4.3352    0.0000 C   0  0  0  0  0  0  0  0  0  0  0  0
   -1.5144   -3.0180    0.0000 C   0  0  0  0  0  0  0  0  0  0  0  0
   -2.2965   -1.7380    0.0000 C   0  0  0  0  0  0  0  0  0  0  0  0
   -3.7960   -1.7752    0.0000 C   0  0  0  0  0  0  0  0  0  0  0  0
   -4.5781   -0.4952    0.0000 C   0  0  0  0  0  0  0  0  0  0  0  0
   -3.8606    0.8220    0.0000 O   0  0  0  0  0  0  0  0  0  0  0  0
   -6.0776   -0.5325    0.0000 N   0  0  0  0  0  0  0  0  0  0  0  0
   -6.8597    0.7475    0.0000 C   0  0  0  0  0  0  0  0  0  0  0  0
   -6.1422    2.0648    0.0000 C   0  0  0  0  0  0  0  0  0  0  0  0
   -6.9242    3.3448    0.0000 C   0  0  0  0  0  0  0  0  0  0  0  0
   -8.4238    3.3075    0.0000 C   0  0  0  0  0  0  0  0  0  0  0  0
   -9.1412    1.9902    0.0000 N   0  0  0  0  0  0  0  0  0  0  0  0
   -8.3592    0.7102    0.0000 C   0  0  0  0  0  0  0  0  0  0  0  0
   -0.0149   -2.9807    0.0000 C   0  0  0  0  0  0  0  0  0  0  0  0
    0.8967   -4.1719    0.0000 C   0  0  0  0  0  0  0  0  0  0  0  0
    2.3113   -3.6731    0.0000 C   0  0  0  0  0  0  0  0  0  0  0  0
    2.2740   -2.1736    0.0000 C   0  0  0  0  0  0  0  0  0  0  0  0
    3.3634   -1.1425    0.0000 C   0  0  0  0  0  0  0  0  0  0  0  0
    4.8011   -1.5704    0.0000 C   0  0  0  0  0  0  0  0  0  0  0  0
    5.1493   -3.0294    0.0000 O   0  0  0  0  0  0  0  0  0  0  0  0
    5.8905   -0.5393    0.0000 C   0  0  0  0  0  0  0  0  0  0  0  0
    5.5423    0.9197    0.0000 C   0  0  0  0  0  0  0  0  0  0  0  0
    6.6317    1.9508    0.0000 C   0  0  0  0  0  0  0  0  0  0  0  0
    6.2835    3.4098    0.0000 C   0  0  0  0  0  0  0  0  0  0  0  0
    7.3729    4.4409    0.0000 O   0  0  0  0  0  0  0  0  0  0  0  0
    4.8458    3.8377    0.0000 C   0  0  0  0  0  0  0  0  0  0  0  0
    3.7564    2.8066    0.0000 C   0  0  0  0  0  0  0  0  0  0  0  0
    4.1046    1.3476    0.0000 C   0  0  0  0  0  0  0  0  0  0  0  0
    2.6670    1.7755    0.0000 C   0  0  0  0  0  0  0  0  0  0  0  0
    3.0152    0.3165    0.0000 C   0  0  0  0  0  0  0  0  0  0  0  0
    1.5776    0.7445    0.0000 C   0  0  0  0  0  0  0  0  0  0  0  0
    0.4881   -0.2866    0.0000 C   0  0  0  0  0  0  0  0  0  0  0  0
   -0.9495    0.1413    0.0000 O   0  0  0  0  0  0  0  0  0  0  0  0
    0.8363   -1.7456    0.0000 C   0  0  0  0  0  0  0  0  0  0  0  0
   -0.6382   -1.4703    0.0000 C   0  0  0  0  0  0  0  0  0  0  0  0
  2  1  1  6
  2  3  1  0
  3  4  1  0
  4  5  1  0
  5  6  2  0
  5  7  1  0
  7  8  1  0
  8  9  2  0
  9 10  1  0
 10 11  2  0
 11 12  1  0
 12 13  2  0
  2 14  1  0
 14 15  1  6
 15 16  1  0
 17 16  1  6
 17 18  1  0
 18 19  1  1
 19 20  1  1
 19 21  1  0
 22 21  1  1
 22 23  1  0
 23 24  1  0
 24 25  1  1
 24 26  1  0
 26 27  1  0
 27 28  1  0
 28 29  1  6
 28 30  1  0
 30 31  1  6
 31 32  1  0
 32 33  1  1
 32 34  1  0
 34 35  1  6
 13  8  1  0
 34 14  1  0
 34 17  1  0
 30 18  1  0
 28 22  1  0
M  END
>  <MS_ID>  (1638) 
MS1703

>  <SMILES>  (1638) 
C[C@H](CCC(=O)Nc1cccnc1)[C@H]1CC[C@H]2[C@@H]3[C@H](O)C[C@@H]4C[C@H](O)CC[C@]4(C)[C@H]3C[C@H](O)[C@]12C

>  <Structure_dimension>  (1638) 
2D

$$$$
MS1704
     RDKit          2D

 31 34  0  0  0  0  0  0  0  0999 V2000
   -3.6377   -3.4900    0.0000 C   0  0  0  0  0  0  0  0  0  0  0  0
   -2.6684   -2.3453    0.0000 C   0  0  0  0  0  0  0  0  0  0  0  0
   -3.1751   -0.9335    0.0000 C   0  0  0  0  0  0  0  0  0  0  0  0
   -4.6511   -0.6664    0.0000 C   0  0  0  0  0  0  0  0  0  0  0  0
   -5.1578    0.7454    0.0000 C   0  0  0  0  0  0  0  0  0  0  0  0
   -4.1885    1.8902    0.0000 O   0  0  0  0  0  0  0  0  0  0  0  0
   -6.6339    1.0125    0.0000 O   0  0  0  0  0  0  0  0  0  0  0  0
   -7.1406    2.4243    0.0000 C   0  0  0  0  0  0  0  0  0  0  0  0
   -8.6166    2.6914    0.0000 C   0  0  0  0  0  0  0  0  0  0  0  0
   -6.1713    3.5691    0.0000 O   0  0  0  0  0  0  0  0  0  0  0  0
   -1.1923   -2.6123    0.0000 C   0  0  0  0  0  0  0  0  0  0  0  0
   -0.5408   -3.9635    0.0000 C   0  0  0  0  0  0  0  0  0  0  0  0
    0.9455   -3.7613    0.0000 C   0  0  0  0  0  0  0  0  0  0  0  0
    1.2126   -2.2853    0.0000 C   0  0  0  0  0  0  0  0  0  0  0  0
    2.4882   -1.4961    0.0000 C   0  0  0  0  0  0  0  0  0  0  0  0
    3.8095   -2.2063    0.0000 C   0  0  0  0  0  0  0  0  0  0  0  0
    5.0851   -1.4171    0.0000 C   0  0  0  0  0  0  0  0  0  0  0  0
    5.0394    0.0822    0.0000 C   0  0  0  0  0  0  0  0  0  0  0  0
    6.3151    0.8714    0.0000 C   0  0  0  0  0  0  0  0  0  0  0  0
    6.2694    2.3707    0.0000 C   0  0  0  0  0  0  0  0  0  0  0  0
    7.5450    3.1599    0.0000 O   0  0  0  0  0  0  0  0  0  0  0  0
    4.9481    3.0808    0.0000 C   0  0  0  0  0  0  0  0  0  0  0  0
    3.6725    2.2917    0.0000 C   0  0  0  0  0  0  0  0  0  0  0  0
    3.7182    0.7924    0.0000 C   0  0  0  0  0  0  0  0  0  0  0  0
    2.3969    1.5025    0.0000 C   0  0  0  0  0  0  0  0  0  0  0  0
    2.4426    0.0032    0.0000 C   0  0  0  0  0  0  0  0  0  0  0  0
    1.1213    0.7133    0.0000 C   0  0  0  0  0  0  0  0  0  0  0  0
   -0.1543   -0.0759    0.0000 C   0  0  0  0  0  0  0  0  0  0  0  0
   -1.4756    0.6342    0.0000 O   0  0  0  0  0  0  0  0  0  0  0  0
   -0.1087   -1.5752    0.0000 C   0  0  0  0  0  0  0  0  0  0  0  0
   -1.4969   -1.0071    0.0000 C   0  0  0  0  0  0  0  0  0  0  0  0
  2  1  1  6
  2  3  1  0
  3  4  1  0
  4  5  1  0
  5  6  2  0
  5  7  1  0
  7  8  1  0
  8  9  1  1
  8 10  1  0
  2 11  1  0
 11 12  1  6
 12 13  1  0
 14 13  1  6
 14 15  1  0
 15 16  1  1
 16 17  1  0
 18 17  1  1
 18 19  1  0
 19 20  1  0
 20 21  1  1
 20 22  1  0
 22 23  1  0
 23 24  1  0
 24 25  1  6
 24 26  1  0
 26 27  1  6
 27 28  1  0
 28 29  1  1
 28 30  1  0
 30 31  1  6
 30 11  1  0
 30 14  1  0
 26 15  1  0
 24 18  1  0
M  END
>  <MS_ID>  (1639) 
MS1704

>  <SMILES>  (1639) 
C[C@H](CCC(=O)O[C@@H](C)O)[C@H]1CC[C@H]2[C@@H]3CC[C@@H]4C[C@H](O)CC[C@]4(C)[C@H]3C[C@H](O)[C@]12C

>  <Structure_dimension>  (1639) 
2D

$$$$
MS1705
     RDKit          2D

 33 37  0  0  0  0  0  0  0  0999 V2000
   -2.6353   -4.1555    0.0000 C   0  0  0  0  0  0  0  0  0  0  0  0
   -1.8237   -2.8940    0.0000 C   0  0  0  0  0  0  0  0  0  0  0  0
   -2.5102   -1.5604    0.0000 C   0  0  0  0  0  0  0  0  0  0  0  0
   -4.0085   -1.4882    0.0000 C   0  0  0  0  0  0  0  0  0  0  0  0
   -4.6951   -0.1545    0.0000 C   0  0  0  0  0  0  0  0  0  0  0  0
   -3.8834    1.1069    0.0000 O   0  0  0  0  0  0  0  0  0  0  0  0
   -6.1933   -0.0823    0.0000 C   0  0  0  0  0  0  0  0  0  0  0  0
   -6.8799    1.2513    0.0000 N   0  0  0  0  0  0  0  0  0  0  0  0
   -8.3624    1.4798    0.0000 C   0  0  0  0  0  0  0  0  0  0  0  0
   -8.6033    2.9603    0.0000 C   0  0  0  0  0  0  0  0  0  0  0  0
   -7.2696    3.6469    0.0000 N   0  0  0  0  0  0  0  0  0  0  0  0
   -6.2046    2.5907    0.0000 C   0  0  0  0  0  0  0  0  0  0  0  0
   -0.3254   -2.9663    0.0000 C   0  0  0  0  0  0  0  0  0  0  0  0
    0.4968   -4.2208    0.0000 C   0  0  0  0  0  0  0  0  0  0  0  0
    1.9441   -3.8265    0.0000 C   0  0  0  0  0  0  0  0  0  0  0  0
    2.0163   -2.3283    0.0000 C   0  0  0  0  0  0  0  0  0  0  0  0
    3.1781   -1.3794    0.0000 C   0  0  0  0  0  0  0  0  0  0  0  0
    4.5807   -1.9111    0.0000 C   0  0  0  0  0  0  0  0  0  0  0  0
    5.7424   -0.9622    0.0000 C   0  0  0  0  0  0  0  0  0  0  0  0
    5.5016    0.5183    0.0000 C   0  0  0  0  0  0  0  0  0  0  0  0
    6.6633    1.4672    0.0000 C   0  0  0  0  0  0  0  0  0  0  0  0
    6.4224    2.9477    0.0000 C   0  0  0  0  0  0  0  0  0  0  0  0
    7.5842    3.8966    0.0000 O   0  0  0  0  0  0  0  0  0  0  0  0
    5.0198    3.4794    0.0000 C   0  0  0  0  0  0  0  0  0  0  0  0
    3.8581    2.5305    0.0000 C   0  0  0  0  0  0  0  0  0  0  0  0
    4.0989    1.0500    0.0000 C   0  0  0  0  0  0  0  0  0  0  0  0
    2.6963    1.5817    0.0000 C   0  0  0  0  0  0  0  0  0  0  0  0
    2.9372    0.1011    0.0000 C   0  0  0  0  0  0  0  0  0  0  0  0
    1.5346    0.6328    0.0000 C   0  0  0  0  0  0  0  0  0  0  0  0
    0.3728   -0.3161    0.0000 C   0  0  0  0  0  0  0  0  0  0  0  0
   -1.0298    0.2156    0.0000 O   0  0  0  0  0  0  0  0  0  0  0  0
    0.6137   -1.7966    0.0000 C   0  0  0  0  0  0  0  0  0  0  0  0
   -0.8368   -1.4144    0.0000 C   0  0  0  0  0  0  0  0  0  0  0  0
  2  1  1  6
  2  3  1  0
  3  4  1  0
  4  5  1  0
  5  6  2  0
  5  7  1  0
  7  8  1  0
  8  9  1  0
  9 10  2  0
 10 11  1  0
 11 12  2  0
  2 13  1  0
 13 14  1  6
 14 15  1  0
 16 15  1  6
 16 17  1  0
 17 18  1  1
 18 19  1  0
 20 19  1  1
 20 21  1  0
 21 22  1  0
 22 23  1  1
 22 24  1  0
 24 25  1  0
 25 26  1  0
 26 27  1  6
 26 28  1  0
 28 29  1  6
 29 30  1  0
 30 31  1  1
 30 32  1  0
 32 33  1  6
 12  8  1  0
 32 13  1  0
 32 16  1  0
 28 17  1  0
 26 20  1  0
M  END
>  <MS_ID>  (1640) 
MS1705

>  <SMILES>  (1640) 
C[C@H](CCC(=O)Cn1ccnc1)[C@H]1CC[C@H]2[C@@H]3CC[C@@H]4C[C@H](O)CC[C@]4(C)[C@H]3C[C@H](O)[C@]12C

>  <Structure_dimension>  (1640) 
2D

$$$$
MS1706
     RDKit          2D

 42 47  0  0  0  0  0  0  0  0999 V2000
    0.5409   -5.0361    0.0000 C   0  0  0  0  0  0  0  0  0  0  0  0
    0.9579   -3.5952    0.0000 C   0  0  0  0  0  0  0  0  0  0  0  0
   -0.0815   -2.5137    0.0000 C   0  0  0  0  0  0  0  0  0  0  0  0
   -1.5378   -2.8730    0.0000 C   0  0  0  0  0  0  0  0  0  0  0  0
   -2.5771   -1.7915    0.0000 C   0  0  0  0  0  0  0  0  0  0  0  0
   -2.1602   -0.3506    0.0000 O   0  0  0  0  0  0  0  0  0  0  0  0
   -4.0335   -2.1508    0.0000 N   0  0  0  0  0  0  0  0  0  0  0  0
   -5.0728   -1.0693    0.0000 S   0  0  0  0  0  0  0  0  0  0  0  0
   -3.9913   -0.0299    0.0000 O   0  0  0  0  0  0  0  0  0  0  0  0
   -6.1544   -2.1087    0.0000 O   0  0  0  0  0  0  0  0  0  0  0  0
   -6.1122    0.0122    0.0000 C   0  0  0  0  0  0  0  0  0  0  0  0
   -5.6952    1.4531    0.0000 C   0  0  0  0  0  0  0  0  0  0  0  0
   -6.7346    2.5347    0.0000 C   0  0  0  0  0  0  0  0  0  0  0  0
   -8.1909    2.1753    0.0000 C   0  0  0  0  0  0  0  0  0  0  0  0
   -9.2303    3.2569    0.0000 C   0  0  0  0  0  0  0  0  0  0  0  0
  -10.6866    2.8975    0.0000 C   0  0  0  0  0  0  0  0  0  0  0  0
  -11.1036    1.4566    0.0000 C   0  0  0  0  0  0  0  0  0  0  0  0
  -10.0642    0.3751    0.0000 C   0  0  0  0  0  0  0  0  0  0  0  0
   -8.6079    0.7344    0.0000 C   0  0  0  0  0  0  0  0  0  0  0  0
   -7.5685   -0.3471    0.0000 C   0  0  0  0  0  0  0  0  0  0  0  0
    2.4142   -3.2359    0.0000 C   0  0  0  0  0  0  0  0  0  0  0  0
    3.5609   -4.2029    0.0000 C   0  0  0  0  0  0  0  0  0  0  0  0
    4.8349   -3.4111    0.0000 C   0  0  0  0  0  0  0  0  0  0  0  0
    4.4756   -1.9548    0.0000 C   0  0  0  0  0  0  0  0  0  0  0  0
    5.3174   -0.7132    0.0000 C   0  0  0  0  0  0  0  0  0  0  0  0
    6.8135   -0.8215    0.0000 C   0  0  0  0  0  0  0  0  0  0  0  0
    7.4678   -2.1713    0.0000 O   0  0  0  0  0  0  0  0  0  0  0  0
    7.6553    0.4200    0.0000 C   0  0  0  0  0  0  0  0  0  0  0  0
    7.0010    1.7698    0.0000 C   0  0  0  0  0  0  0  0  0  0  0  0
    7.8428    3.0113    0.0000 C   0  0  0  0  0  0  0  0  0  0  0  0
    7.1886    4.3611    0.0000 C   0  0  0  0  0  0  0  0  0  0  0  0
    8.0304    5.6026    0.0000 O   0  0  0  0  0  0  0  0  0  0  0  0
    5.6925    4.4694    0.0000 C   0  0  0  0  0  0  0  0  0  0  0  0
    4.8507    3.2278    0.0000 C   0  0  0  0  0  0  0  0  0  0  0  0
    5.5049    1.8781    0.0000 C   0  0  0  0  0  0  0  0  0  0  0  0
    4.0088    1.9863    0.0000 C   0  0  0  0  0  0  0  0  0  0  0  0
    4.6631    0.6365    0.0000 C   0  0  0  0  0  0  0  0  0  0  0  0
    3.1670    0.7448    0.0000 C   0  0  0  0  0  0  0  0  0  0  0  0
    2.3252   -0.4967    0.0000 C   0  0  0  0  0  0  0  0  0  0  0  0
    0.8291   -0.3884    0.0000 O   0  0  0  0  0  0  0  0  0  0  0  0
    2.9795   -1.8465    0.0000 C   0  0  0  0  0  0  0  0  0  0  0  0
    1.4803   -1.8952    0.0000 C   0  0  0  0  0  0  0  0  0  0  0  0
  2  1  1  6
  2  3  1  0
  3  4  1  0
  4  5  1  0
  5  6  2  0
  5  7  1  0
  7  8  1  0
  8  9  2  0
  8 10  2  0
  8 11  1  0
 11 12  2  0
 12 13  1  0
 13 14  2  0
 14 15  1  0
 15 16  2  0
 16 17  1  0
 17 18  2  0
 18 19  1  0
 19 20  2  0
  2 21  1  0
 21 22  1  6
 22 23  1  0
 24 23  1  6
 24 25  1  0
 25 26  1  1
 26 27  1  1
 26 28  1  0
 29 28  1  1
 29 30  1  0
 30 31  1  0
 31 32  1  1
 31 33  1  0
 33 34  1  0
 34 35  1  0
 35 36  1  6
 35 37  1  0
 37 38  1  6
 38 39  1  0
 39 40  1  1
 39 41  1  0
 41 42  1  6
 20 11  1  0
 41 21  1  0
 19 14  1  0
 41 24  1  0
 37 25  1  0
 35 29  1  0
M  END
>  <MS_ID>  (1641) 
MS1706

>  <SMILES>  (1641) 
C[C@H](CCC(=O)NS(=O)(=O)c1ccc2ccccc2c1)[C@H]1CC[C@H]2[C@@H]3[C@H](O)C[C@@H]4C[C@H](O)CC[C@]4(C)[C@H]3C[C@H](O)[C@]12C

>  <Structure_dimension>  (1641) 
2D

$$$$
MS1707
     RDKit          2D

 32 35  0  0  0  0  0  0  0  0999 V2000
   -5.1569   -2.5516    0.0000 C   0  0  0  0  0  0  0  0  0  0  0  0
   -4.1971   -1.3989    0.0000 C   0  0  0  0  0  0  0  0  0  0  0  0
   -4.7155    0.0087    0.0000 C   0  0  0  0  0  0  0  0  0  0  0  0
   -6.1937    0.2635    0.0000 C   0  0  0  0  0  0  0  0  0  0  0  0
   -6.7121    1.6711    0.0000 C   0  0  0  0  0  0  0  0  0  0  0  0
   -5.7523    2.8238    0.0000 O   0  0  0  0  0  0  0  0  0  0  0  0
   -8.1903    1.9259    0.0000 O   0  0  0  0  0  0  0  0  0  0  0  0
   -2.7189   -1.6538    0.0000 C   0  0  0  0  0  0  0  0  0  0  0  0
   -2.0562   -2.9994    0.0000 C   0  0  0  0  0  0  0  0  0  0  0  0
   -0.5716   -2.7850    0.0000 C   0  0  0  0  0  0  0  0  0  0  0  0
   -0.3168   -1.3068    0.0000 C   0  0  0  0  0  0  0  0  0  0  0  0
    0.9523   -0.5071    0.0000 C   0  0  0  0  0  0  0  0  0  0  0  0
    2.2794   -1.2062    0.0000 C   0  0  0  0  0  0  0  0  0  0  0  0
    2.3374   -2.7051    0.0000 O   0  0  0  0  0  0  0  0  0  0  0  0
    3.6645   -3.4043    0.0000 S   0  0  0  0  0  0  0  0  0  0  0  0
    4.3637   -2.0772    0.0000 O   0  0  0  0  0  0  0  0  0  0  0  0
    2.9654   -4.7314    0.0000 O   0  0  0  0  0  0  0  0  0  0  0  0
    4.9916   -4.1034    0.0000 O   0  0  0  0  0  0  0  0  0  0  0  0
    3.5484   -0.4065    0.0000 C   0  0  0  0  0  0  0  0  0  0  0  0
    3.4903    1.0923    0.0000 C   0  0  0  0  0  0  0  0  0  0  0  0
    4.7594    1.8921    0.0000 C   0  0  0  0  0  0  0  0  0  0  0  0
    4.7013    3.3909    0.0000 C   0  0  0  0  0  0  0  0  0  0  0  0
    5.9703    4.1907    0.0000 O   0  0  0  0  0  0  0  0  0  0  0  0
    3.3742    4.0901    0.0000 C   0  0  0  0  0  0  0  0  0  0  0  0
    2.1052    3.2904    0.0000 C   0  0  0  0  0  0  0  0  0  0  0  0
    2.1632    1.7915    0.0000 C   0  0  0  0  0  0  0  0  0  0  0  0
    0.8361    2.4907    0.0000 C   0  0  0  0  0  0  0  0  0  0  0  0
    0.8942    0.9918    0.0000 C   0  0  0  0  0  0  0  0  0  0  0  0
   -0.4329    1.6909    0.0000 C   0  0  0  0  0  0  0  0  0  0  0  0
   -1.7019    0.8912    0.0000 C   0  0  0  0  0  0  0  0  0  0  0  0
   -1.6439   -0.6077    0.0000 C   0  0  0  0  0  0  0  0  0  0  0  0
   -3.0368   -0.0511    0.0000 C   0  0  0  0  0  0  0  0  0  0  0  0
  2  1  1  6
  2  3  1  0
  3  4  1  0
  4  5  1  0
  5  6  2  0
  5  7  1  0
  2  8  1  0
  8  9  1  6
  9 10  1  0
 11 10  1  6
 11 12  1  0
 12 13  1  1
 13 14  1  6
 14 15  1  0
 15 16  2  0
 15 17  2  0
 15 18  1  0
 13 19  1  0
 20 19  1  1
 20 21  1  0
 21 22  1  0
 22 23  2  0
 22 24  1  0
 24 25  1  0
 25 26  1  0
 26 27  1  6
 26 28  1  0
 28 29  1  6
 29 30  1  0
 30 31  1  0
 31 32  1  6
 31  8  1  0
 31 11  1  0
 28 12  1  0
 26 20  1  0
M  END
>  <MS_ID>  (1642) 
MS1707

>  <SMILES>  (1642) 
C[C@H](CCC(=O)O)[C@H]1CC[C@H]2[C@@H]3[C@@H](OS(=O)(=O)O)C[C@@H]4CC(=O)CC[C@]4(C)[C@H]3CC[C@]12C

>  <Structure_dimension>  (1642) 
2D

$$$$
MS1708
     RDKit          2D

 32 35  0  0  0  0  0  0  0  0999 V2000
   -3.9539   -2.9832    0.0000 C   0  0  0  0  0  0  0  0  0  0  0  0
   -2.9202   -1.8962    0.0000 C   0  0  0  0  0  0  0  0  0  0  0  0
   -3.3447   -0.4575    0.0000 C   0  0  0  0  0  0  0  0  0  0  0  0
   -4.8029   -0.1058    0.0000 C   0  0  0  0  0  0  0  0  0  0  0  0
   -5.2274    1.3329    0.0000 C   0  0  0  0  0  0  0  0  0  0  0  0
   -4.1937    2.4198    0.0000 O   0  0  0  0  0  0  0  0  0  0  0  0
   -6.6856    1.6846    0.0000 C   0  0  0  0  0  0  0  0  0  0  0  0
   -6.3339    3.1427    0.0000 C   0  0  0  0  0  0  0  0  0  0  0  0
   -7.0373    0.2264    0.0000 C   0  0  0  0  0  0  0  0  0  0  0  0
   -8.1438    2.0363    0.0000 C   0  0  0  0  0  0  0  0  0  0  0  0
   -1.4620   -2.2479    0.0000 C   0  0  0  0  0  0  0  0  0  0  0  0
   -0.8894   -3.6343    0.0000 C   0  0  0  0  0  0  0  0  0  0  0  0
    0.6061   -3.5182    0.0000 C   0  0  0  0  0  0  0  0  0  0  0  0
    0.9578   -2.0600    0.0000 C   0  0  0  0  0  0  0  0  0  0  0  0
    2.2768   -1.3457    0.0000 C   0  0  0  0  0  0  0  0  0  0  0  0
    3.5549   -2.1307    0.0000 C   0  0  0  0  0  0  0  0  0  0  0  0
    3.5141   -3.6302    0.0000 O   0  0  0  0  0  0  0  0  0  0  0  0
    4.8739   -1.4164    0.0000 C   0  0  0  0  0  0  0  0  0  0  0  0
    4.9147    0.0830    0.0000 C   0  0  0  0  0  0  0  0  0  0  0  0
    6.2337    0.7974    0.0000 C   0  0  0  0  0  0  0  0  0  0  0  0
    6.2745    2.2968    0.0000 C   0  0  0  0  0  0  0  0  0  0  0  0
    7.5935    3.0112    0.0000 O   0  0  0  0  0  0  0  0  0  0  0  0
    4.9964    3.0819    0.0000 C   0  0  0  0  0  0  0  0  0  0  0  0
    3.6774    2.3676    0.0000 C   0  0  0  0  0  0  0  0  0  0  0  0
    3.6366    0.8681    0.0000 C   0  0  0  0  0  0  0  0  0  0  0  0
    2.3584    1.6532    0.0000 C   0  0  0  0  0  0  0  0  0  0  0  0
    2.3176    0.1538    0.0000 C   0  0  0  0  0  0  0  0  0  0  0  0
    1.0395    0.9389    0.0000 C   0  0  0  0  0  0  0  0  0  0  0  0
   -0.2795    0.2245    0.0000 C   0  0  0  0  0  0  0  0  0  0  0  0
   -1.5577    1.0096    0.0000 O   0  0  0  0  0  0  0  0  0  0  0  0
   -0.3204   -1.2749    0.0000 C   0  0  0  0  0  0  0  0  0  0  0  0
   -1.6736   -0.6277    0.0000 C   0  0  0  0  0  0  0  0  0  0  0  0
  2  1  1  6
  2  3  1  0
  3  4  1  0
  4  5  1  0
  5  6  2  0
  5  7  1  0
  7  8  1  0
  7  9  1  0
  7 10  1  0
  2 11  1  0
 11 12  1  6
 12 13  1  0
 14 13  1  6
 14 15  1  0
 15 16  1  1
 16 17  1  1
 16 18  1  0
 19 18  1  1
 19 20  1  0
 20 21  1  0
 21 22  1  1
 21 23  1  0
 23 24  1  0
 24 25  1  0
 25 26  1  6
 25 27  1  0
 27 28  1  6
 28 29  1  0
 29 30  1  1
 29 31  1  0
 31 32  1  6
 31 11  1  0
 31 14  1  0
 27 15  1  0
 25 19  1  0
M  END
>  <MS_ID>  (1643) 
MS1708

>  <SMILES>  (1643) 
C[C@H](CCC(=O)C(C)(C)C)[C@H]1CC[C@H]2[C@@H]3[C@H](O)C[C@@H]4C[C@H](O)CC[C@]4(C)[C@H]3C[C@H](O)[C@]12C

>  <Structure_dimension>  (1643) 
2D

$$$$
MS1709
     RDKit          2D

 37 41  0  0  0  0  0  0  0  0999 V2000
   -1.1969   -4.1392    0.0000 C   0  0  0  0  0  0  0  0  0  0  0  0
   -0.4485   -2.8392    0.0000 C   0  0  0  0  0  0  0  0  0  0  0  0
   -1.2001   -1.5411    0.0000 C   0  0  0  0  0  0  0  0  0  0  0  0
   -2.7001   -1.5429    0.0000 C   0  0  0  0  0  0  0  0  0  0  0  0
   -3.4516   -0.2448    0.0000 C   0  0  0  0  0  0  0  0  0  0  0  0
   -2.7032    1.0552    0.0000 O   0  0  0  0  0  0  0  0  0  0  0  0
   -4.9516   -0.2466    0.0000 N   0  0  0  0  0  0  0  0  0  0  0  0
   -5.7032    1.0516    0.0000 C   0  0  0  0  0  0  0  0  0  0  0  0
   -7.2032    1.0498    0.0000 C   0  0  0  0  0  0  0  0  0  0  0  0
   -7.9547    2.3479    0.0000 C   0  0  0  0  0  0  0  0  0  0  0  0
   -9.4547    2.3461    0.0000 C   0  0  0  0  0  0  0  0  0  0  0  0
  -10.2063    3.6442    0.0000 O   0  0  0  0  0  0  0  0  0  0  0  0
  -10.2032    1.0462    0.0000 C   0  0  0  0  0  0  0  0  0  0  0  0
   -9.4516   -0.2520    0.0000 C   0  0  0  0  0  0  0  0  0  0  0  0
  -10.2001   -1.5519    0.0000 O   0  0  0  0  0  0  0  0  0  0  0  0
   -7.9516   -0.2502    0.0000 C   0  0  0  0  0  0  0  0  0  0  0  0
    1.0515   -2.8374    0.0000 C   0  0  0  0  0  0  0  0  0  0  0  0
    1.9346   -4.0499    0.0000 C   0  0  0  0  0  0  0  0  0  0  0  0
    3.3607   -3.5847    0.0000 C   0  0  0  0  0  0  0  0  0  0  0  0
    3.3589   -2.0847    0.0000 C   0  0  0  0  0  0  0  0  0  0  0  0
    4.4724   -1.0796    0.0000 C   0  0  0  0  0  0  0  0  0  0  0  0
    5.8995   -1.5415    0.0000 C   0  0  0  0  0  0  0  0  0  0  0  0
    6.2131   -3.0083    0.0000 O   0  0  0  0  0  0  0  0  0  0  0  0
    7.0130   -0.5364    0.0000 C   0  0  0  0  0  0  0  0  0  0  0  0
    6.6994    0.9304    0.0000 C   0  0  0  0  0  0  0  0  0  0  0  0
    7.8129    1.9355    0.0000 C   0  0  0  0  0  0  0  0  0  0  0  0
    7.4993    3.4023    0.0000 C   0  0  0  0  0  0  0  0  0  0  0  0
    8.6128    4.4073    0.0000 O   0  0  0  0  0  0  0  0  0  0  0  0
    6.0721    3.8641    0.0000 C   0  0  0  0  0  0  0  0  0  0  0  0
    4.9586    2.8591    0.0000 C   0  0  0  0  0  0  0  0  0  0  0  0
    5.2723    1.3922    0.0000 C   0  0  0  0  0  0  0  0  0  0  0  0
    3.8451    1.8540    0.0000 C   0  0  0  0  0  0  0  0  0  0  0  0
    4.1587    0.3872    0.0000 C   0  0  0  0  0  0  0  0  0  0  0  0
    2.7316    0.8490    0.0000 C   0  0  0  0  0  0  0  0  0  0  0  0
    1.6181   -0.1560    0.0000 C   0  0  0  0  0  0  0  0  0  0  0  0
    1.9317   -1.6229    0.0000 C   0  0  0  0  0  0  0  0  0  0  0  0
    0.4641   -1.3128    0.0000 C   0  0  0  0  0  0  0  0  0  0  0  0
  2  1  1  6
  2  3  1  0
  3  4  1  0
  4  5  1  0
  5  6  2  0
  5  7  1  0
  7  8  1  0
  8  9  1  0
  9 10  2  0
 10 11  1  0
 11 12  1  0
 11 13  2  0
 13 14  1  0
 14 15  1  0
 14 16  2  0
  2 17  1  0
 17 18  1  6
 18 19  1  0
 20 19  1  6
 20 21  1  0
 21 22  1  1
 22 23  1  6
 22 24  1  0
 25 24  1  1
 25 26  1  0
 26 27  1  0
 27 28  1  1
 27 29  1  0
 29 30  1  0
 30 31  1  0
 31 32  1  6
 31 33  1  0
 33 34  1  6
 34 35  1  0
 35 36  1  0
 36 37  1  6
 16  9  1  0
 36 17  1  0
 36 20  1  0
 33 21  1  0
 31 25  1  0
M  END
>  <MS_ID>  (1644) 
MS1709

>  <SMILES>  (1644) 
C[C@H](CCC(=O)NCc1cc(O)cc(O)c1)[C@H]1CC[C@H]2[C@@H]3[C@@H](O)C[C@@H]4C[C@H](O)CC[C@]4(C)[C@H]3CC[C@]12C

>  <Structure_dimension>  (1644) 
2D

$$$$
MS1710
     RDKit          2D

 33 36  0  0  0  0  0  0  0  0999 V2000
   -3.2878   -3.6766    0.0000 C   0  0  0  0  0  0  0  0  0  0  0  0
   -2.4284   -2.4472    0.0000 C   0  0  0  0  0  0  0  0  0  0  0  0
   -3.0634   -1.0882    0.0000 C   0  0  0  0  0  0  0  0  0  0  0  0
   -4.5578   -0.9586    0.0000 C   0  0  0  0  0  0  0  0  0  0  0  0
   -5.1928    0.4003    0.0000 C   0  0  0  0  0  0  0  0  0  0  0  0
   -4.3333    1.6297    0.0000 O   0  0  0  0  0  0  0  0  0  0  0  0
   -6.6871    0.5299    0.0000 C   0  0  0  0  0  0  0  0  0  0  0  0
   -7.3221    1.8889    0.0000 O   0  0  0  0  0  0  0  0  0  0  0  0
   -8.8165    2.0184    0.0000 C   0  0  0  0  0  0  0  0  0  0  0  0
   -9.4515    3.3774    0.0000 N   0  0  0  0  0  0  0  0  0  0  0  0
   -9.6759    0.7890    0.0000 O   0  0  0  0  0  0  0  0  0  0  0  0
   -0.9340   -2.5767    0.0000 C   0  0  0  0  0  0  0  0  0  0  0  0
   -0.1604   -3.8619    0.0000 C   0  0  0  0  0  0  0  0  0  0  0  0
    1.3009   -3.5233    0.0000 C   0  0  0  0  0  0  0  0  0  0  0  0
    1.4304   -2.0289    0.0000 C   0  0  0  0  0  0  0  0  0  0  0  0
    2.6277   -1.1253    0.0000 C   0  0  0  0  0  0  0  0  0  0  0  0
    4.0089   -1.7103    0.0000 C   0  0  0  0  0  0  0  0  0  0  0  0
    4.1929   -3.1990    0.0000 O   0  0  0  0  0  0  0  0  0  0  0  0
    5.2061   -0.8066    0.0000 C   0  0  0  0  0  0  0  0  0  0  0  0
    6.5874   -1.3916    0.0000 O   0  0  0  0  0  0  0  0  0  0  0  0
    5.0222    0.6820    0.0000 C   0  0  0  0  0  0  0  0  0  0  0  0
    6.2194    1.5857    0.0000 C   0  0  0  0  0  0  0  0  0  0  0  0
    6.0355    3.0744    0.0000 C   0  0  0  0  0  0  0  0  0  0  0  0
    7.2327    3.9780    0.0000 O   0  0  0  0  0  0  0  0  0  0  0  0
    4.6542    3.6594    0.0000 C   0  0  0  0  0  0  0  0  0  0  0  0
    3.4570    2.7557    0.0000 C   0  0  0  0  0  0  0  0  0  0  0  0
    3.6410    1.2671    0.0000 C   0  0  0  0  0  0  0  0  0  0  0  0
    2.2597    1.8521    0.0000 C   0  0  0  0  0  0  0  0  0  0  0  0
    2.4437    0.3634    0.0000 C   0  0  0  0  0  0  0  0  0  0  0  0
    1.0625    0.9484    0.0000 C   0  0  0  0  0  0  0  0  0  0  0  0
   -0.1347    0.0448    0.0000 C   0  0  0  0  0  0  0  0  0  0  0  0
    0.0492   -1.4439    0.0000 C   0  0  0  0  0  0  0  0  0  0  0  0
   -1.3856   -1.0065    0.0000 C   0  0  0  0  0  0  0  0  0  0  0  0
  2  1  1  6
  2  3  1  0
  3  4  1  0
  4  5  1  0
  5  6  2  0
  5  7  1  0
  7  8  1  0
  8  9  1  0
  9 10  1  0
  9 11  2  0
  2 12  1  0
 12 13  1  6
 13 14  1  0
 15 14  1  6
 15 16  1  0
 16 17  1  1
 17 18  1  1
 17 19  1  0
 19 20  1  1
 19 21  1  0
 21 22  1  1
 22 23  1  0
 23 24  1  1
 23 25  1  0
 25 26  1  0
 26 27  1  0
 27 28  1  6
 27 29  1  0
 29 30  1  6
 30 31  1  0
 31 32  1  0
 32 33  1  6
 32 12  1  0
 32 15  1  0
 29 16  1  0
 27 21  1  0
M  END
>  <MS_ID>  (1645) 
MS1710

>  <SMILES>  (1645) 
C[C@H](CCC(=O)COC(N)=O)[C@H]1CC[C@H]2[C@@H]3[C@H](O)[C@H](O)[C@@H]4C[C@H](O)CC[C@]4(C)[C@H]3CC[C@]12C

>  <Structure_dimension>  (1645) 
2D

$$$$
MS1711
     RDKit          2D

 30 33  0  0  0  0  0  0  0  0999 V2000
   -6.4343   -1.2264    0.0000 C   0  0  0  0  0  0  0  0  0  0  0  0
   -5.0704   -1.8506    0.0000 C   0  0  0  0  0  0  0  0  0  0  0  0
   -3.8478   -0.9815    0.0000 C   0  0  0  0  0  0  0  0  0  0  0  0
   -3.9891    0.5118    0.0000 C   0  0  0  0  0  0  0  0  0  0  0  0
   -5.3531    1.1360    0.0000 C   0  0  0  0  0  0  0  0  0  0  0  0
   -5.4944    2.6294    0.0000 C   0  0  0  0  0  0  0  0  0  0  0  0
   -4.2718    3.4984    0.0000 O   0  0  0  0  0  0  0  0  0  0  0  0
   -6.8583    3.2536    0.0000 O   0  0  0  0  0  0  0  0  0  0  0  0
   -2.4839   -1.6058    0.0000 C   0  0  0  0  0  0  0  0  0  0  0  0
   -2.1872   -3.0762    0.0000 C   0  0  0  0  0  0  0  0  0  0  0  0
   -0.6971   -3.2484    0.0000 C   0  0  0  0  0  0  0  0  0  0  0  0
   -0.0729   -1.8844    0.0000 C   0  0  0  0  0  0  0  0  0  0  0  0
    1.3585   -1.4357    0.0000 C   0  0  0  0  0  0  0  0  0  0  0  0
    2.4627   -2.4509    0.0000 C   0  0  0  0  0  0  0  0  0  0  0  0
    2.1357   -3.9148    0.0000 O   0  0  0  0  0  0  0  0  0  0  0  0
    3.8940   -2.0021    0.0000 C   0  0  0  0  0  0  0  0  0  0  0  0
    4.2211   -0.5382    0.0000 C   0  0  0  0  0  0  0  0  0  0  0  0
    5.6524   -0.0895    0.0000 C   0  0  0  0  0  0  0  0  0  0  0  0
    5.9794    1.3744    0.0000 C   0  0  0  0  0  0  0  0  0  0  0  0
    7.4107    1.8232    0.0000 O   0  0  0  0  0  0  0  0  0  0  0  0
    4.8751    2.3896    0.0000 C   0  0  0  0  0  0  0  0  0  0  0  0
    3.4438    1.9409    0.0000 C   0  0  0  0  0  0  0  0  0  0  0  0
    3.1168    0.4770    0.0000 C   0  0  0  0  0  0  0  0  0  0  0  0
    2.0125    1.4921    0.0000 C   0  0  0  0  0  0  0  0  0  0  0  0
    2.3395    2.9561    0.0000 O   0  0  0  0  0  0  0  0  0  0  0  0
    1.6855    0.0282    0.0000 C   0  0  0  0  0  0  0  0  0  0  0  0
    0.5812    1.0434    0.0000 C   0  0  0  0  0  0  0  0  0  0  0  0
   -0.8501    0.5947    0.0000 C   0  0  0  0  0  0  0  0  0  0  0  0
   -1.1771   -0.8693    0.0000 C   0  0  0  0  0  0  0  0  0  0  0  0
   -2.3815    0.0249    0.0000 C   0  0  0  0  0  0  0  0  0  0  0  0
  1  2  1  0
  3  2  1  6
  3  4  1  0
  4  5  1  0
  5  6  1  0
  6  7  2  0
  6  8  1  0
  3  9  1  0
  9 10  1  6
 10 11  1  0
 12 11  1  6
 12 13  1  0
 13 14  1  1
 14 15  1  6
 14 16  1  0
 17 16  1  1
 17 18  1  0
 18 19  1  0
 19 20  1  1
 19 21  1  0
 21 22  1  0
 22 23  1  0
 23 24  1  6
 24 25  1  0
 23 26  1  0
 26 27  1  6
 27 28  1  0
 28 29  1  0
 29 30  1  6
 29  9  1  0
 29 12  1  0
 26 13  1  0
 23 17  1  0
M  END
>  <MS_ID>  (1646) 
MS1711

>  <SMILES>  (1646) 
CC[C@H](CCC(=O)O)[C@H]1CC[C@H]2[C@@H]3[C@@H](O)C[C@@H]4C[C@H](O)CC[C@]4(CO)[C@H]3CC[C@]12C

>  <Structure_dimension>  (1646) 
2D

$$$$
MS1712
     RDKit          2D

 35 39  0  0  0  0  0  0  0  0999 V2000
   -2.4249   -4.3282    0.0000 C   0  0  0  0  0  0  0  0  0  0  0  0
   -1.7208   -3.0038    0.0000 C   0  0  0  0  0  0  0  0  0  0  0  0
   -2.5157   -1.7317    0.0000 C   0  0  0  0  0  0  0  0  0  0  0  0
   -4.0147   -1.7841    0.0000 C   0  0  0  0  0  0  0  0  0  0  0  0
   -4.8097   -0.5121    0.0000 C   0  0  0  0  0  0  0  0  0  0  0  0
   -4.1055    0.8124    0.0000 O   0  0  0  0  0  0  0  0  0  0  0  0
   -6.3087   -0.5645    0.0000 N   0  0  0  0  0  0  0  0  0  0  0  0
   -7.1037    0.7076    0.0000 C   0  0  0  0  0  0  0  0  0  0  0  0
   -6.3995    2.0320    0.0000 C   0  0  0  0  0  0  0  0  0  0  0  0
   -7.1944    3.3041    0.0000 C   0  0  0  0  0  0  0  0  0  0  0  0
   -8.6935    3.2517    0.0000 C   0  0  0  0  0  0  0  0  0  0  0  0
   -9.3977    1.9272    0.0000 N   0  0  0  0  0  0  0  0  0  0  0  0
   -8.6027    0.6552    0.0000 C   0  0  0  0  0  0  0  0  0  0  0  0
   -0.2217   -2.9514    0.0000 C   0  0  0  0  0  0  0  0  0  0  0  0
    0.7019   -4.1334    0.0000 C   0  0  0  0  0  0  0  0  0  0  0  0
    2.1114   -3.6203    0.0000 C   0  0  0  0  0  0  0  0  0  0  0  0
    2.0590   -2.1213    0.0000 C   0  0  0  0  0  0  0  0  0  0  0  0
    3.1380   -1.0792    0.0000 C   0  0  0  0  0  0  0  0  0  0  0  0
    4.5799   -1.4927    0.0000 C   0  0  0  0  0  0  0  0  0  0  0  0
    4.9428   -2.9481    0.0000 O   0  0  0  0  0  0  0  0  0  0  0  0
    5.6589   -0.4506    0.0000 C   0  0  0  0  0  0  0  0  0  0  0  0
    7.1008   -0.8641    0.0000 O   0  0  0  0  0  0  0  0  0  0  0  0
    5.2959    1.0048    0.0000 C   0  0  0  0  0  0  0  0  0  0  0  0
    6.3749    2.0468    0.0000 C   0  0  0  0  0  0  0  0  0  0  0  0
    6.0120    3.5022    0.0000 C   0  0  0  0  0  0  0  0  0  0  0  0
    7.0910    4.5443    0.0000 O   0  0  0  0  0  0  0  0  0  0  0  0
    4.5701    3.9157    0.0000 C   0  0  0  0  0  0  0  0  0  0  0  0
    3.4911    2.8736    0.0000 C   0  0  0  0  0  0  0  0  0  0  0  0
    3.8540    1.4182    0.0000 C   0  0  0  0  0  0  0  0  0  0  0  0
    2.4121    1.8316    0.0000 C   0  0  0  0  0  0  0  0  0  0  0  0
    2.7751    0.3762    0.0000 C   0  0  0  0  0  0  0  0  0  0  0  0
    1.3332    0.7896    0.0000 C   0  0  0  0  0  0  0  0  0  0  0  0
    0.2542   -0.2524    0.0000 C   0  0  0  0  0  0  0  0  0  0  0  0
    0.6171   -1.7078    0.0000 C   0  0  0  0  0  0  0  0  0  0  0  0
   -0.8601   -1.4474    0.0000 C   0  0  0  0  0  0  0  0  0  0  0  0
  2  1  1  6
  2  3  1  0
  3  4  1  0
  4  5  1  0
  5  6  2  0
  5  7  1  0
  7  8  1  0
  8  9  2  0
  9 10  1  0
 10 11  2  0
 11 12  1  0
 12 13  2  0
  2 14  1  0
 14 15  1  6
 15 16  1  0
 17 16  1  6
 17 18  1  0
 18 19  1  1
 19 20  1  1
 19 21  1  0
 21 22  1  1
 21 23  1  0
 23 24  1  1
 24 25  1  0
 25 26  1  1
 25 27  1  0
 27 28  1  0
 28 29  1  0
 29 30  1  6
 29 31  1  0
 31 32  1  6
 32 33  1  0
 33 34  1  0
 34 35  1  6
 13  8  1  0
 34 14  1  0
 34 17  1  0
 31 18  1  0
 29 23  1  0
M  END
>  <MS_ID>  (1647) 
MS1712

>  <SMILES>  (1647) 
C[C@H](CCC(=O)Nc1cccnc1)[C@H]1CC[C@H]2[C@@H]3[C@H](O)[C@H](O)[C@@H]4C[C@H](O)CC[C@]4(C)[C@H]3CC[C@]12C

>  <Structure_dimension>  (1647) 
2D

$$$$
MS1713
     RDKit          2D

 38 42  0  0  0  0  0  0  0  0999 V2000
   -0.9183   -4.7104    0.0000 C   0  0  0  0  0  0  0  0  0  0  0  0
   -0.3205   -3.3346    0.0000 C   0  0  0  0  0  0  0  0  0  0  0  0
   -1.2130   -2.1290    0.0000 C   0  0  0  0  0  0  0  0  0  0  0  0
   -2.7033   -2.2991    0.0000 C   0  0  0  0  0  0  0  0  0  0  0  0
   -3.5958   -1.0935    0.0000 C   0  0  0  0  0  0  0  0  0  0  0  0
   -2.9979    0.2822    0.0000 O   0  0  0  0  0  0  0  0  0  0  0  0
   -5.0861   -1.2636    0.0000 O   0  0  0  0  0  0  0  0  0  0  0  0
   -5.9786   -0.0580    0.0000 C   0  0  0  0  0  0  0  0  0  0  0  0
   -5.3807    1.3177    0.0000 C   0  0  0  0  0  0  0  0  0  0  0  0
   -6.2732    2.5233    0.0000 C   0  0  0  0  0  0  0  0  0  0  0  0
   -5.6754    3.8990    0.0000 O   0  0  0  0  0  0  0  0  0  0  0  0
   -7.7635    2.3532    0.0000 C   0  0  0  0  0  0  0  0  0  0  0  0
   -8.6560    3.5588    0.0000 O   0  0  0  0  0  0  0  0  0  0  0  0
   -8.3614    0.9775    0.0000 C   0  0  0  0  0  0  0  0  0  0  0  0
   -9.8517    0.8073    0.0000 O   0  0  0  0  0  0  0  0  0  0  0  0
   -7.4689   -0.2282    0.0000 C   0  0  0  0  0  0  0  0  0  0  0  0
   -8.0667   -1.6039    0.0000 O   0  0  0  0  0  0  0  0  0  0  0  0
    1.1698   -3.1645    0.0000 C   0  0  0  0  0  0  0  0  0  0  0  0
    2.1834   -4.2702    0.0000 C   0  0  0  0  0  0  0  0  0  0  0  0
    3.5483   -3.6479    0.0000 C   0  0  0  0  0  0  0  0  0  0  0  0
    3.3781   -2.1576    0.0000 C   0  0  0  0  0  0  0  0  0  0  0  0
    4.3718   -1.0340    0.0000 C   0  0  0  0  0  0  0  0  0  0  0  0
    5.8418   -1.3327    0.0000 C   0  0  0  0  0  0  0  0  0  0  0  0
    6.3180   -2.7551    0.0000 O   0  0  0  0  0  0  0  0  0  0  0  0
    6.8355   -0.2091    0.0000 C   0  0  0  0  0  0  0  0  0  0  0  0
    6.3593    1.2133    0.0000 C   0  0  0  0  0  0  0  0  0  0  0  0
    7.3530    2.3369    0.0000 C   0  0  0  0  0  0  0  0  0  0  0  0
    6.8767    3.7593    0.0000 C   0  0  0  0  0  0  0  0  0  0  0  0
    7.8704    4.8830    0.0000 O   0  0  0  0  0  0  0  0  0  0  0  0
    5.4068    4.0581    0.0000 C   0  0  0  0  0  0  0  0  0  0  0  0
    4.4131    2.9344    0.0000 C   0  0  0  0  0  0  0  0  0  0  0  0
    4.8893    1.5121    0.0000 C   0  0  0  0  0  0  0  0  0  0  0  0
    3.4194    1.8108    0.0000 C   0  0  0  0  0  0  0  0  0  0  0  0
    3.8956    0.3884    0.0000 C   0  0  0  0  0  0  0  0  0  0  0  0
    2.4257    0.6872    0.0000 C   0  0  0  0  0  0  0  0  0  0  0  0
    1.4320   -0.4365    0.0000 C   0  0  0  0  0  0  0  0  0  0  0  0
    1.9082   -1.8589    0.0000 C   0  0  0  0  0  0  0  0  0  0  0  0
    0.4151   -1.7154    0.0000 C   0  0  0  0  0  0  0  0  0  0  0  0
  2  1  1  6
  2  3  1  0
  3  4  1  0
  4  5  1  0
  5  6  2  0
  5  7  1  0
  8  7  1  6
  8  9  1  0
  9 10  1  0
 10 11  1  1
 10 12  1  0
 12 13  1  6
 12 14  1  0
 14 15  1  1
 14 16  1  0
 16 17  1  6
  2 18  1  0
 18 19  1  6
 19 20  1  0
 21 20  1  6
 21 22  1  0
 22 23  1  1
 23 24  1  1
 23 25  1  0
 26 25  1  1
 26 27  1  0
 27 28  1  0
 28 29  1  1
 28 30  1  0
 30 31  1  0
 31 32  1  0
 32 33  1  6
 32 34  1  0
 34 35  1  6
 35 36  1  0
 36 37  1  0
 37 38  1  6
 16  8  1  0
 37 18  1  0
 37 21  1  0
 34 22  1  0
 32 26  1  0
M  END
>  <MS_ID>  (1648) 
MS1713

>  <SMILES>  (1648) 
C[C@H](CCC(=O)O[C@H]1C[C@H](O)[C@@H](O)[C@H](O)[C@H]1O)[C@H]1CC[C@H]2[C@@H]3[C@H](O)C[C@@H]4C[C@H](O)CC[C@]4(C)[C@H]3CC[C@]12C

>  <Structure_dimension>  (1648) 
2D

$$$$
MS1714
     RDKit          2D

 33 36  0  0  0  0  0  0  0  0999 V2000
   -3.1128   -3.8303    0.0000 C   0  0  0  0  0  0  0  0  0  0  0  0
   -2.2621   -2.5949    0.0000 C   0  0  0  0  0  0  0  0  0  0  0  0
   -2.9066   -1.2404    0.0000 C   0  0  0  0  0  0  0  0  0  0  0  0
   -4.4018   -1.1214    0.0000 C   0  0  0  0  0  0  0  0  0  0  0  0
   -5.0463    0.2331    0.0000 C   0  0  0  0  0  0  0  0  0  0  0  0
   -4.1956    1.4685    0.0000 O   0  0  0  0  0  0  0  0  0  0  0  0
   -6.5416    0.3522    0.0000 O   0  0  0  0  0  0  0  0  0  0  0  0
   -7.1861    1.7067    0.0000 C   0  0  0  0  0  0  0  0  0  0  0  0
   -6.3353    2.9421    0.0000 O   0  0  0  0  0  0  0  0  0  0  0  0
   -8.6813    1.8258    0.0000 C   0  0  0  0  0  0  0  0  0  0  0  0
   -9.3258    3.1803    0.0000 O   0  0  0  0  0  0  0  0  0  0  0  0
   -0.7668   -2.7140    0.0000 C   0  0  0  0  0  0  0  0  0  0  0  0
    0.0157   -3.9937    0.0000 C   0  0  0  0  0  0  0  0  0  0  0  0
    1.4746   -3.6449    0.0000 C   0  0  0  0  0  0  0  0  0  0  0  0
    1.5937   -2.1497    0.0000 C   0  0  0  0  0  0  0  0  0  0  0  0
    2.7846   -1.2376    0.0000 C   0  0  0  0  0  0  0  0  0  0  0  0
    4.1699   -1.8130    0.0000 C   0  0  0  0  0  0  0  0  0  0  0  0
    4.3643   -3.3003    0.0000 O   0  0  0  0  0  0  0  0  0  0  0  0
    5.3608   -0.9009    0.0000 C   0  0  0  0  0  0  0  0  0  0  0  0
    5.1664    0.5864    0.0000 C   0  0  0  0  0  0  0  0  0  0  0  0
    6.3573    1.4984    0.0000 C   0  0  0  0  0  0  0  0  0  0  0  0
    6.1629    2.9858    0.0000 C   0  0  0  0  0  0  0  0  0  0  0  0
    7.3538    3.8978    0.0000 O   0  0  0  0  0  0  0  0  0  0  0  0
    4.7776    3.5611    0.0000 C   0  0  0  0  0  0  0  0  0  0  0  0
    3.5867    2.6491    0.0000 C   0  0  0  0  0  0  0  0  0  0  0  0
    3.7811    1.1617    0.0000 C   0  0  0  0  0  0  0  0  0  0  0  0
    2.3958    1.7371    0.0000 C   0  0  0  0  0  0  0  0  0  0  0  0
    2.5902    0.2497    0.0000 C   0  0  0  0  0  0  0  0  0  0  0  0
    1.2049    0.8250    0.0000 C   0  0  0  0  0  0  0  0  0  0  0  0
    0.0140   -0.0870    0.0000 C   0  0  0  0  0  0  0  0  0  0  0  0
   -1.3712    0.4883    0.0000 O   0  0  0  0  0  0  0  0  0  0  0  0
    0.2084   -1.5743    0.0000 C   0  0  0  0  0  0  0  0  0  0  0  0
   -1.2294   -1.1470    0.0000 C   0  0  0  0  0  0  0  0  0  0  0  0
  2  1  1  6
  2  3  1  0
  3  4  1  0
  4  5  1  0
  5  6  2  0
  5  7  1  0
  7  8  1  0
  8  9  1  6
  8 10  1  0
 10 11  1  0
  2 12  1  0
 12 13  1  6
 13 14  1  0
 15 14  1  6
 15 16  1  0
 16 17  1  1
 17 18  1  1
 17 19  1  0
 20 19  1  1
 20 21  1  0
 21 22  1  0
 22 23  1  1
 22 24  1  0
 24 25  1  0
 25 26  1  0
 26 27  1  6
 26 28  1  0
 28 29  1  6
 29 30  1  0
 30 31  1  1
 30 32  1  0
 32 33  1  6
 32 12  1  0
 32 15  1  0
 28 16  1  0
 26 20  1  0
M  END
>  <MS_ID>  (1649) 
MS1714

>  <SMILES>  (1649) 
C[C@H](CCC(=O)O[C@@H](O)CO)[C@H]1CC[C@H]2[C@@H]3[C@H](O)C[C@@H]4C[C@H](O)CC[C@]4(C)[C@H]3C[C@H](O)[C@]12C

>  <Structure_dimension>  (1649) 
2D

$$$$
MS1715
     RDKit          2D

 38 42  0  0  0  0  0  0  0  0999 V2000
   -1.1597   -3.8608    0.0000 C   0  0  0  0  0  0  0  0  0  0  0  0
   -0.3292   -2.6117    0.0000 C   0  0  0  0  0  0  0  0  0  0  0  0
   -0.9957   -1.2679    0.0000 C   0  0  0  0  0  0  0  0  0  0  0  0
   -2.4927   -1.1732    0.0000 C   0  0  0  0  0  0  0  0  0  0  0  0
   -3.1592    0.1706    0.0000 C   0  0  0  0  0  0  0  0  0  0  0  0
   -2.3287    1.4197    0.0000 O   0  0  0  0  0  0  0  0  0  0  0  0
   -4.6562    0.2652    0.0000 O   0  0  0  0  0  0  0  0  0  0  0  0
   -5.3228    1.6090    0.0000 C   0  0  0  0  0  0  0  0  0  0  0  0
   -6.8198    1.7037    0.0000 C   0  0  0  0  0  0  0  0  0  0  0  0
   -7.4863    3.0475    0.0000 C   0  0  0  0  0  0  0  0  0  0  0  0
   -8.9833    3.1422    0.0000 C   0  0  0  0  0  0  0  0  0  0  0  0
   -9.8138    1.8930    0.0000 C   0  0  0  0  0  0  0  0  0  0  0  0
   -9.1473    0.5493    0.0000 C   0  0  0  0  0  0  0  0  0  0  0  0
   -9.9778   -0.6998    0.0000 C   0  0  0  0  0  0  0  0  0  0  0  0
   -9.3113   -2.0436    0.0000 O   0  0  0  0  0  0  0  0  0  0  0  0
  -11.4748   -0.6052    0.0000 O   0  0  0  0  0  0  0  0  0  0  0  0
   -7.6503    0.4546    0.0000 C   0  0  0  0  0  0  0  0  0  0  0  0
    1.1678   -2.7064    0.0000 C   0  0  0  0  0  0  0  0  0  0  0  0
    1.9711   -3.9731    0.0000 C   0  0  0  0  0  0  0  0  0  0  0  0
    3.4241   -3.6006    0.0000 C   0  0  0  0  0  0  0  0  0  0  0  0
    3.5188   -2.1036    0.0000 C   0  0  0  0  0  0  0  0  0  0  0  0
    4.6947   -1.1722    0.0000 C   0  0  0  0  0  0  0  0  0  0  0  0
    6.0891   -1.7249    0.0000 C   0  0  0  0  0  0  0  0  0  0  0  0
    6.3078   -3.2088    0.0000 O   0  0  0  0  0  0  0  0  0  0  0  0
    7.2650   -0.7935    0.0000 C   0  0  0  0  0  0  0  0  0  0  0  0
    7.0463    0.6905    0.0000 C   0  0  0  0  0  0  0  0  0  0  0  0
    8.2222    1.6218    0.0000 C   0  0  0  0  0  0  0  0  0  0  0  0
    8.0036    3.1058    0.0000 C   0  0  0  0  0  0  0  0  0  0  0  0
    9.1794    4.0371    0.0000 O   0  0  0  0  0  0  0  0  0  0  0  0
    6.6091    3.6584    0.0000 C   0  0  0  0  0  0  0  0  0  0  0  0
    5.4332    2.7271    0.0000 C   0  0  0  0  0  0  0  0  0  0  0  0
    5.6519    1.2431    0.0000 C   0  0  0  0  0  0  0  0  0  0  0  0
    4.2574    1.7957    0.0000 C   0  0  0  0  0  0  0  0  0  0  0  0
    4.4760    0.3118    0.0000 C   0  0  0  0  0  0  0  0  0  0  0  0
    3.0815    0.8644    0.0000 C   0  0  0  0  0  0  0  0  0  0  0  0
    1.9057   -0.0669    0.0000 C   0  0  0  0  0  0  0  0  0  0  0  0
    2.1243   -1.5509    0.0000 C   0  0  0  0  0  0  0  0  0  0  0  0
    0.6797   -1.1471    0.0000 C   0  0  0  0  0  0  0  0  0  0  0  0
  2  1  1  6
  2  3  1  0
  3  4  1  0
  4  5  1  0
  5  6  2  0
  5  7  1  0
  7  8  1  0
  8  9  1  0
  9 10  2  0
 10 11  1  0
 11 12  2  0
 12 13  1  0
 13 14  1  0
 14 15  2  0
 14 16  1  0
 13 17  2  0
  2 18  1  0
 18 19  1  6
 19 20  1  0
 21 20  1  6
 21 22  1  0
 22 23  1  1
 23 24  1  1
 23 25  1  0
 26 25  1  1
 26 27  1  0
 27 28  1  0
 28 29  1  1
 28 30  1  0
 30 31  1  0
 31 32  1  0
 32 33  1  6
 32 34  1  0
 34 35  1  6
 35 36  1  0
 36 37  1  0
 37 38  1  6
 17  9  1  0
 37 18  1  0
 37 21  1  0
 34 22  1  0
 32 26  1  0
M  END
>  <MS_ID>  (1650) 
MS1715

>  <SMILES>  (1650) 
C[C@H](CCC(=O)OCc1cccc(C(=O)O)c1)[C@H]1CC[C@H]2[C@@H]3[C@H](O)C[C@@H]4C[C@H](O)CC[C@]4(C)[C@H]3CC[C@]12C

>  <Structure_dimension>  (1650) 
2D

$$$$
MS1716
     RDKit          2D

 37 42  0  0  0  0  0  0  0  0999 V2000
   -1.5678   -3.9362    0.0000 C   0  0  0  0  0  0  0  0  0  0  0  0
   -0.7650   -2.6691    0.0000 C   0  0  0  0  0  0  0  0  0  0  0  0
   -1.4610   -1.3403    0.0000 C   0  0  0  0  0  0  0  0  0  0  0  0
   -2.9597   -1.2786    0.0000 C   0  0  0  0  0  0  0  0  0  0  0  0
   -3.6556    0.0502    0.0000 C   0  0  0  0  0  0  0  0  0  0  0  0
   -2.8529    1.3173    0.0000 O   0  0  0  0  0  0  0  0  0  0  0  0
   -5.1544    0.1118    0.0000 C   0  0  0  0  0  0  0  0  0  0  0  0
   -5.9571   -1.1553    0.0000 C   0  0  0  0  0  0  0  0  0  0  0  0
   -7.4559   -1.0936    0.0000 C   0  0  0  0  0  0  0  0  0  0  0  0
   -8.1518    0.2352    0.0000 C   0  0  0  0  0  0  0  0  0  0  0  0
   -9.6506    0.2969    0.0000 C   0  0  0  0  0  0  0  0  0  0  0  0
  -10.3465    1.6256    0.0000 C   0  0  0  0  0  0  0  0  0  0  0  0
   -9.5437    2.8927    0.0000 C   0  0  0  0  0  0  0  0  0  0  0  0
   -8.0450    2.8311    0.0000 C   0  0  0  0  0  0  0  0  0  0  0  0
   -7.3491    1.5023    0.0000 C   0  0  0  0  0  0  0  0  0  0  0  0
   -5.8503    1.4406    0.0000 C   0  0  0  0  0  0  0  0  0  0  0  0
    0.7337   -2.7307    0.0000 C   0  0  0  0  0  0  0  0  0  0  0  0
    1.5648   -3.9795    0.0000 C   0  0  0  0  0  0  0  0  0  0  0  0
    3.0092   -3.5750    0.0000 C   0  0  0  0  0  0  0  0  0  0  0  0
    3.0709   -2.0763    0.0000 C   0  0  0  0  0  0  0  0  0  0  0  0
    4.2259   -1.1193    0.0000 C   0  0  0  0  0  0  0  0  0  0  0  0
    5.6322   -1.6411    0.0000 C   0  0  0  0  0  0  0  0  0  0  0  0
    5.8835   -3.1199    0.0000 O   0  0  0  0  0  0  0  0  0  0  0  0
    6.7873   -0.6841    0.0000 C   0  0  0  0  0  0  0  0  0  0  0  0
    6.5360    0.7947    0.0000 C   0  0  0  0  0  0  0  0  0  0  0  0
    7.6911    1.7518    0.0000 C   0  0  0  0  0  0  0  0  0  0  0  0
    7.4398    3.2306    0.0000 C   0  0  0  0  0  0  0  0  0  0  0  0
    8.5948    4.1876    0.0000 O   0  0  0  0  0  0  0  0  0  0  0  0
    6.0335    3.7524    0.0000 C   0  0  0  0  0  0  0  0  0  0  0  0
    4.8784    2.7953    0.0000 C   0  0  0  0  0  0  0  0  0  0  0  0
    5.1297    1.3165    0.0000 C   0  0  0  0  0  0  0  0  0  0  0  0
    3.7234    1.8383    0.0000 C   0  0  0  0  0  0  0  0  0  0  0  0
    3.9746    0.3595    0.0000 C   0  0  0  0  0  0  0  0  0  0  0  0
    2.5683    0.8813    0.0000 C   0  0  0  0  0  0  0  0  0  0  0  0
    1.4133   -0.0757    0.0000 C   0  0  0  0  0  0  0  0  0  0  0  0
    1.6646   -1.5545    0.0000 C   0  0  0  0  0  0  0  0  0  0  0  0
    0.2114   -1.1826    0.0000 C   0  0  0  0  0  0  0  0  0  0  0  0
  2  1  1  6
  2  3  1  0
  3  4  1  0
  4  5  1  0
  5  6  2  0
  5  7  1  0
  7  8  2  0
  8  9  1  0
  9 10  2  0
 10 11  1  0
 11 12  2  0
 12 13  1  0
 13 14  2  0
 14 15  1  0
 15 16  2  0
  2 17  1  0
 17 18  1  6
 18 19  1  0
 20 19  1  6
 20 21  1  0
 21 22  1  1
 22 23  1  6
 22 24  1  0
 25 24  1  1
 25 26  1  0
 26 27  1  0
 27 28  1  1
 27 29  1  0
 29 30  1  0
 30 31  1  0
 31 32  1  6
 31 33  1  0
 33 34  1  6
 34 35  1  0
 35 36  1  0
 36 37  1  6
 16  7  1  0
 36 17  1  0
 15 10  1  0
 36 20  1  0
 33 21  1  0
 31 25  1  0
M  END
>  <MS_ID>  (1651) 
MS1716

>  <SMILES>  (1651) 
C[C@H](CCC(=O)c1ccc2ccccc2c1)[C@H]1CC[C@H]2[C@@H]3[C@@H](O)C[C@@H]4C[C@H](O)CC[C@]4(C)[C@H]3CC[C@]12C

>  <Structure_dimension>  (1651) 
2D

$$$$
MS1717
     RDKit          2D

 33 36  0  0  0  0  0  0  0  0999 V2000
   -3.2994   -3.8229    0.0000 C   0  0  0  0  0  0  0  0  0  0  0  0
   -2.4680   -2.5743    0.0000 C   0  0  0  0  0  0  0  0  0  0  0  0
   -3.1337   -1.2301    0.0000 C   0  0  0  0  0  0  0  0  0  0  0  0
   -4.6306   -1.1345    0.0000 C   0  0  0  0  0  0  0  0  0  0  0  0
   -5.2962    0.2098    0.0000 C   0  0  0  0  0  0  0  0  0  0  0  0
   -4.4649    1.4583    0.0000 O   0  0  0  0  0  0  0  0  0  0  0  0
   -6.7932    0.3054    0.0000 C   0  0  0  0  0  0  0  0  0  0  0  0
   -7.4588    1.6497    0.0000 C   0  0  0  0  0  0  0  0  0  0  0  0
   -6.6275    2.8982    0.0000 O   0  0  0  0  0  0  0  0  0  0  0  0
   -8.9557    1.7453    0.0000 C   0  0  0  0  0  0  0  0  0  0  0  0
   -9.6214    3.0896    0.0000 O   0  0  0  0  0  0  0  0  0  0  0  0
   -0.9711   -2.6700    0.0000 C   0  0  0  0  0  0  0  0  0  0  0  0
   -0.1686   -3.9373    0.0000 C   0  0  0  0  0  0  0  0  0  0  0  0
    1.2846   -3.5657    0.0000 C   0  0  0  0  0  0  0  0  0  0  0  0
    1.3803   -2.0688    0.0000 C   0  0  0  0  0  0  0  0  0  0  0  0
    2.5568   -1.1382    0.0000 C   0  0  0  0  0  0  0  0  0  0  0  0
    3.9509   -1.6918    0.0000 C   0  0  0  0  0  0  0  0  0  0  0  0
    4.1685   -3.1759    0.0000 O   0  0  0  0  0  0  0  0  0  0  0  0
    5.1273   -0.7612    0.0000 C   0  0  0  0  0  0  0  0  0  0  0  0
    6.5215   -1.3148    0.0000 O   0  0  0  0  0  0  0  0  0  0  0  0
    4.9097    0.7229    0.0000 C   0  0  0  0  0  0  0  0  0  0  0  0
    6.0861    1.6535    0.0000 C   0  0  0  0  0  0  0  0  0  0  0  0
    5.8685    3.1376    0.0000 C   0  0  0  0  0  0  0  0  0  0  0  0
    7.0450    4.0681    0.0000 O   0  0  0  0  0  0  0  0  0  0  0  0
    4.4744    3.6912    0.0000 C   0  0  0  0  0  0  0  0  0  0  0  0
    3.2979    2.7606    0.0000 C   0  0  0  0  0  0  0  0  0  0  0  0
    3.5156    1.2765    0.0000 C   0  0  0  0  0  0  0  0  0  0  0  0
    2.1215    1.8300    0.0000 C   0  0  0  0  0  0  0  0  0  0  0  0
    2.3391    0.3459    0.0000 C   0  0  0  0  0  0  0  0  0  0  0  0
    0.9450    0.8995    0.0000 C   0  0  0  0  0  0  0  0  0  0  0  0
   -0.2315   -0.0311    0.0000 C   0  0  0  0  0  0  0  0  0  0  0  0
   -0.0138   -1.5152    0.0000 C   0  0  0  0  0  0  0  0  0  0  0  0
   -1.4582   -1.1104    0.0000 C   0  0  0  0  0  0  0  0  0  0  0  0
  2  1  1  6
  2  3  1  0
  3  4  1  0
  4  5  1  0
  5  6  2  0
  5  7  1  0
  7  8  1  0
  8  9  2  0
  8 10  1  0
 10 11  1  0
  2 12  1  0
 12 13  1  6
 13 14  1  0
 15 14  1  6
 15 16  1  0
 16 17  1  1
 17 18  1  1
 17 19  1  0
 19 20  1  1
 19 21  1  0
 21 22  1  1
 22 23  1  0
 23 24  1  1
 23 25  1  0
 25 26  1  0
 26 27  1  0
 27 28  1  6
 27 29  1  0
 29 30  1  6
 30 31  1  0
 31 32  1  0
 32 33  1  6
 32 12  1  0
 32 15  1  0
 29 16  1  0
 27 21  1  0
M  END
>  <MS_ID>  (1652) 
MS1717

>  <SMILES>  (1652) 
C[C@H](CCC(=O)CC(=O)CO)[C@H]1CC[C@H]2[C@@H]3[C@H](O)[C@H](O)[C@@H]4C[C@H](O)CC[C@]4(C)[C@H]3CC[C@]12C

>  <Structure_dimension>  (1652) 
2D

$$$$
MS1718
     RDKit          2D

 34 38  0  0  0  0  0  0  0  0999 V2000
   -2.8489   -4.1271    0.0000 C   0  0  0  0  0  0  0  0  0  0  0  0
   -2.0902   -2.8331    0.0000 C   0  0  0  0  0  0  0  0  0  0  0  0
   -2.8315   -1.5291    0.0000 C   0  0  0  0  0  0  0  0  0  0  0  0
   -4.3315   -1.5191    0.0000 C   0  0  0  0  0  0  0  0  0  0  0  0
   -5.0728   -0.2151    0.0000 C   0  0  0  0  0  0  0  0  0  0  0  0
   -4.3141    1.0789    0.0000 O   0  0  0  0  0  0  0  0  0  0  0  0
   -6.5727   -0.2050    0.0000 C   0  0  0  0  0  0  0  0  0  0  0  0
   -7.3140    1.0990    0.0000 C   0  0  0  0  0  0  0  0  0  0  0  0
   -8.8047    1.2657    0.0000 C   0  0  0  0  0  0  0  0  0  0  0  0
   -9.1068    2.7350    0.0000 C   0  0  0  0  0  0  0  0  0  0  0  0
   -7.8028    3.4763    0.0000 C   0  0  0  0  0  0  0  0  0  0  0  0
   -6.6948    2.4652    0.0000 O   0  0  0  0  0  0  0  0  0  0  0  0
   -0.5902   -2.8432    0.0000 C   0  0  0  0  0  0  0  0  0  0  0  0
    0.2833   -4.0625    0.0000 C   0  0  0  0  0  0  0  0  0  0  0  0
    1.7130   -3.6086    0.0000 C   0  0  0  0  0  0  0  0  0  0  0  0
    1.7230   -2.1086    0.0000 C   0  0  0  0  0  0  0  0  0  0  0  0
    2.8444   -1.1124    0.0000 C   0  0  0  0  0  0  0  0  0  0  0  0
    4.2678   -1.5854    0.0000 C   0  0  0  0  0  0  0  0  0  0  0  0
    4.5699   -3.0547    0.0000 O   0  0  0  0  0  0  0  0  0  0  0  0
    5.3892   -0.5892    0.0000 C   0  0  0  0  0  0  0  0  0  0  0  0
    6.8127   -1.0622    0.0000 O   0  0  0  0  0  0  0  0  0  0  0  0
    5.0872    0.8801    0.0000 C   0  0  0  0  0  0  0  0  0  0  0  0
    6.2086    1.8763    0.0000 C   0  0  0  0  0  0  0  0  0  0  0  0
    5.9065    3.3456    0.0000 C   0  0  0  0  0  0  0  0  0  0  0  0
    7.0279    4.3418    0.0000 O   0  0  0  0  0  0  0  0  0  0  0  0
    4.4831    3.8186    0.0000 C   0  0  0  0  0  0  0  0  0  0  0  0
    3.3617    2.8224    0.0000 C   0  0  0  0  0  0  0  0  0  0  0  0
    3.6637    1.3531    0.0000 C   0  0  0  0  0  0  0  0  0  0  0  0
    2.2403    1.8262    0.0000 C   0  0  0  0  0  0  0  0  0  0  0  0
    2.5423    0.3569    0.0000 C   0  0  0  0  0  0  0  0  0  0  0  0
    1.1189    0.8299    0.0000 C   0  0  0  0  0  0  0  0  0  0  0  0
   -0.0025   -0.1663    0.0000 C   0  0  0  0  0  0  0  0  0  0  0  0
    0.2995   -1.6355    0.0000 C   0  0  0  0  0  0  0  0  0  0  0  0
   -1.1656   -1.3139    0.0000 C   0  0  0  0  0  0  0  0  0  0  0  0
  2  1  1  6
  2  3  1  0
  3  4  1  0
  4  5  1  0
  5  6  2  0
  5  7  1  0
  7  8  1  0
  8  9  2  0
  9 10  1  0
 10 11  2  0
 11 12  1  0
  2 13  1  0
 13 14  1  6
 14 15  1  0
 16 15  1  6
 16 17  1  0
 17 18  1  1
 18 19  1  1
 18 20  1  0
 20 21  1  1
 20 22  1  0
 22 23  1  1
 23 24  1  0
 24 25  1  1
 24 26  1  0
 26 27  1  0
 27 28  1  0
 28 29  1  6
 28 30  1  0
 30 31  1  6
 31 32  1  0
 32 33  1  0
 33 34  1  6
 12  8  1  0
 33 13  1  0
 33 16  1  0
 30 17  1  0
 28 22  1  0
M  END
>  <MS_ID>  (1653) 
MS1718

>  <SMILES>  (1653) 
C[C@H](CCC(=O)Cc1ccco1)[C@H]1CC[C@H]2[C@@H]3[C@H](O)[C@H](O)[C@@H]4C[C@H](O)CC[C@]4(C)[C@H]3CC[C@]12C

>  <Structure_dimension>  (1653) 
2D

$$$$
MS1719
     RDKit          2D

 31 34  0  0  0  0  0  0  0  0999 V2000
   -4.7372   -2.2415    0.0000 C   0  0  0  0  0  0  0  0  0  0  0  0
   -3.5492   -1.3257    0.0000 C   0  0  0  0  0  0  0  0  0  0  0  0
   -3.7483    0.1610    0.0000 C   0  0  0  0  0  0  0  0  0  0  0  0
   -5.1354    0.7319    0.0000 C   0  0  0  0  0  0  0  0  0  0  0  0
   -5.3345    2.2187    0.0000 C   0  0  0  0  0  0  0  0  0  0  0  0
   -4.1465    3.1345    0.0000 O   0  0  0  0  0  0  0  0  0  0  0  0
   -6.7216    2.7896    0.0000 O   0  0  0  0  0  0  0  0  0  0  0  0
   -2.1621   -1.8967    0.0000 C   0  0  0  0  0  0  0  0  0  0  0  0
   -1.8087   -3.3544    0.0000 C   0  0  0  0  0  0  0  0  0  0  0  0
   -0.3131   -3.4688    0.0000 C   0  0  0  0  0  0  0  0  0  0  0  0
    0.2579   -2.0817    0.0000 C   0  0  0  0  0  0  0  0  0  0  0  0
    1.6707   -1.5778    0.0000 C   0  0  0  0  0  0  0  0  0  0  0  0
    2.8135   -2.5495    0.0000 C   0  0  0  0  0  0  0  0  0  0  0  0
    4.2263   -2.0456    0.0000 C   0  0  0  0  0  0  0  0  0  0  0  0
    4.4964   -0.5701    0.0000 C   0  0  0  0  0  0  0  0  0  0  0  0
    5.9092   -0.0662    0.0000 C   0  0  0  0  0  0  0  0  0  0  0  0
    6.1793    1.4092    0.0000 C   0  0  0  0  0  0  0  0  0  0  0  0
    7.5921    1.9131    0.0000 O   0  0  0  0  0  0  0  0  0  0  0  0
    5.0365    2.3809    0.0000 C   0  0  0  0  0  0  0  0  0  0  0  0
    3.6237    1.8770    0.0000 C   0  0  0  0  0  0  0  0  0  0  0  0
    3.3536    0.4015    0.0000 C   0  0  0  0  0  0  0  0  0  0  0  0
    2.2108    1.3732    0.0000 C   0  0  0  0  0  0  0  0  0  0  0  0
    1.9408   -0.1023    0.0000 C   0  0  0  0  0  0  0  0  0  0  0  0
    0.7980    0.8693    0.0000 C   0  0  0  0  0  0  0  0  0  0  0  0
   -0.6149    0.3654    0.0000 C   0  0  0  0  0  0  0  0  0  0  0  0
   -0.8657    1.8443    0.0000 O   0  0  0  0  0  0  0  0  0  0  0  0
   -2.1148    0.3752    0.0000 C   0  0  0  0  0  0  0  0  0  0  0  0
   -2.9645   -0.4933    0.0000 O   0  0  0  0  0  0  0  0  0  0  0  0
   -2.8564    1.6791    0.0000 O   0  0  0  0  0  0  0  0  0  0  0  0
   -0.8849   -1.1101    0.0000 C   0  0  0  0  0  0  0  0  0  0  0  0
   -2.1505   -0.6402    0.0000 C   0  0  0  0  0  0  0  0  0  0  0  0
  2  1  1  6
  2  3  1  0
  3  4  1  0
  4  5  1  0
  5  6  2  0
  5  7  1  0
  2  8  1  0
  8  9  1  6
  9 10  1  0
 11 10  1  6
 11 12  1  0
 12 13  1  1
 13 14  1  0
 15 14  1  1
 15 16  1  0
 16 17  1  0
 17 18  1  6
 17 19  1  0
 19 20  1  0
 20 21  1  0
 21 22  1  6
 21 23  1  0
 23 24  1  6
 24 25  1  0
 25 26  1  6
 25 27  1  0
 27 28  2  0
 27 29  1  0
 25 30  1  0
 30 31  1  6
 30  8  1  0
 30 11  1  0
 23 12  1  0
 21 15  1  0
M  END
>  <MS_ID>  (1654) 
MS1719

>  <SMILES>  (1654) 
C[C@H](CCC(=O)O)[C@H]1CC[C@H]2[C@@H]3CC[C@@H]4C[C@@H](O)CC[C@]4(C)[C@H]3C[C@](O)(C(=O)O)[C@]12C

>  <Structure_dimension>  (1654) 
2D

$$$$
MS1720
     RDKit          2D

 32 35  0  0  0  0  0  0  0  0999 V2000
   -3.4838   -4.1670    0.0000 C   0  0  0  0  0  0  0  0  0  0  0  0
   -2.6032   -2.9527    0.0000 C   0  0  0  0  0  0  0  0  0  0  0  0
   -3.2145   -1.5829    0.0000 C   0  0  0  0  0  0  0  0  0  0  0  0
   -4.7064   -1.4275    0.0000 C   0  0  0  0  0  0  0  0  0  0  0  0
   -5.3177   -0.0577    0.0000 C   0  0  0  0  0  0  0  0  0  0  0  0
   -6.8096    0.0978    0.0000 O   0  0  0  0  0  0  0  0  0  0  0  0
   -4.4371    1.1566    0.0000 O   0  0  0  0  0  0  0  0  0  0  0  0
   -5.0484    2.5264    0.0000 C   0  0  0  0  0  0  0  0  0  0  0  0
   -4.1678    3.7407    0.0000 S   0  0  0  0  0  0  0  0  0  0  0  0
   -5.3821    4.6213    0.0000 O   0  0  0  0  0  0  0  0  0  0  0  0
   -2.9535    2.8601    0.0000 O   0  0  0  0  0  0  0  0  0  0  0  0
   -3.2872    4.9550    0.0000 O   0  0  0  0  0  0  0  0  0  0  0  0
   -1.1112   -3.1082    0.0000 C   0  0  0  0  0  0  0  0  0  0  0  0
   -0.3601   -4.4065    0.0000 C   0  0  0  0  0  0  0  0  0  0  0  0
    1.1069   -4.0934    0.0000 C   0  0  0  0  0  0  0  0  0  0  0  0
    1.2623   -2.6014    0.0000 C   0  0  0  0  0  0  0  0  0  0  0  0
    2.4751   -1.7187    0.0000 C   0  0  0  0  0  0  0  0  0  0  0  0
    3.8459   -2.3276    0.0000 C   0  0  0  0  0  0  0  0  0  0  0  0
    5.0587   -1.4448    0.0000 C   0  0  0  0  0  0  0  0  0  0  0  0
    4.9006    0.0468    0.0000 C   0  0  0  0  0  0  0  0  0  0  0  0
    6.1133    0.9296    0.0000 C   0  0  0  0  0  0  0  0  0  0  0  0
    5.9552    2.4212    0.0000 C   0  0  0  0  0  0  0  0  0  0  0  0
    7.1679    3.3040    0.0000 O   0  0  0  0  0  0  0  0  0  0  0  0
    4.5843    3.0301    0.0000 C   0  0  0  0  0  0  0  0  0  0  0  0
    3.3716    2.1473    0.0000 C   0  0  0  0  0  0  0  0  0  0  0  0
    3.5297    0.6557    0.0000 C   0  0  0  0  0  0  0  0  0  0  0  0
    2.1588    1.2646    0.0000 C   0  0  0  0  0  0  0  0  0  0  0  0
    2.3170   -0.2270    0.0000 C   0  0  0  0  0  0  0  0  0  0  0  0
    0.9461    0.3818    0.0000 C   0  0  0  0  0  0  0  0  0  0  0  0
   -0.2666   -0.5009    0.0000 C   0  0  0  0  0  0  0  0  0  0  0  0
   -0.1085   -1.9926    0.0000 C   0  0  0  0  0  0  0  0  0  0  0  0
   -1.5355   -1.5303    0.0000 C   0  0  0  0  0  0  0  0  0  0  0  0
  2  1  1  6
  2  3  1  0
  3  4  1  0
  4  5  1  0
  5  6  2  0
  5  7  1  0
  7  8  1  0
  8  9  1  0
  9 10  2  0
  9 11  2  0
  9 12  1  0
  2 13  1  0
 13 14  1  6
 14 15  1  0
 16 15  1  6
 16 17  1  0
 17 18  1  1
 18 19  1  0
 20 19  1  1
 20 21  1  0
 21 22  1  0
 22 23  1  1
 22 24  1  0
 24 25  1  0
 25 26  1  0
 26 27  1  6
 26 28  1  0
 28 29  1  6
 29 30  1  0
 30 31  1  0
 31 32  1  6
 31 13  1  0
 31 16  1  0
 28 17  1  0
 26 20  1  0
M  END
>  <MS_ID>  (1655) 
MS1720

>  <SMILES>  (1655) 
C[C@H](CCC(=O)OCS(=O)(=O)O)[C@H]1CC[C@H]2[C@@H]3CC[C@@H]4C[C@H](O)CC[C@]4(C)[C@H]3CC[C@]12C

>  <Structure_dimension>  (1655) 
2D

$$$$
MS1721
     RDKit          2D

 36 39  0  0  0  0  0  0  0  0999 V2000
   -4.6059   -3.4945    0.0000 C   0  0  0  0  0  0  0  0  0  0  0  0
   -3.5906   -2.3903    0.0000 C   0  0  0  0  0  0  0  0  0  0  0  0
   -4.0393   -0.9590    0.0000 C   0  0  0  0  0  0  0  0  0  0  0  0
   -5.5031   -0.6318    0.0000 C   0  0  0  0  0  0  0  0  0  0  0  0
   -5.9518    0.7995    0.0000 C   0  0  0  0  0  0  0  0  0  0  0  0
   -4.9365    1.9037    0.0000 O   0  0  0  0  0  0  0  0  0  0  0  0
   -7.4157    1.1266    0.0000 C   0  0  0  0  0  0  0  0  0  0  0  0
   -7.8643    2.5580    0.0000 O   0  0  0  0  0  0  0  0  0  0  0  0
   -9.3282    2.8851    0.0000 C   0  0  0  0  0  0  0  0  0  0  0  0
   -9.7768    4.3165    0.0000 N   0  0  0  0  0  0  0  0  0  0  0  0
  -10.3435    1.7809    0.0000 O   0  0  0  0  0  0  0  0  0  0  0  0
   -2.1267   -2.7175    0.0000 C   0  0  0  0  0  0  0  0  0  0  0  0
   -1.5309   -4.0941    0.0000 C   0  0  0  0  0  0  0  0  0  0  0  0
   -0.0376   -3.9528    0.0000 C   0  0  0  0  0  0  0  0  0  0  0  0
    0.2895   -2.4889    0.0000 C   0  0  0  0  0  0  0  0  0  0  0  0
    1.5963   -1.7525    0.0000 C   0  0  0  0  0  0  0  0  0  0  0  0
    2.8875   -2.5160    0.0000 C   0  0  0  0  0  0  0  0  0  0  0  0
    2.8718   -4.0159    0.0000 O   0  0  0  0  0  0  0  0  0  0  0  0
    4.1943   -1.7796    0.0000 C   0  0  0  0  0  0  0  0  0  0  0  0
    4.2099   -0.2797    0.0000 C   0  0  0  0  0  0  0  0  0  0  0  0
    5.5167    0.4567    0.0000 C   0  0  0  0  0  0  0  0  0  0  0  0
    5.5323    1.9567    0.0000 C   0  0  0  0  0  0  0  0  0  0  0  0
    6.8391    2.6931    0.0000 O   0  0  0  0  0  0  0  0  0  0  0  0
    8.1302    1.9296    0.0000 S   0  0  0  0  0  0  0  0  0  0  0  0
    7.3667    0.6384    0.0000 O   0  0  0  0  0  0  0  0  0  0  0  0
    8.8937    3.2207    0.0000 O   0  0  0  0  0  0  0  0  0  0  0  0
    9.4214    1.1661    0.0000 O   0  0  0  0  0  0  0  0  0  0  0  0
    4.2412    2.7202    0.0000 C   0  0  0  0  0  0  0  0  0  0  0  0
    2.9344    1.9837    0.0000 C   0  0  0  0  0  0  0  0  0  0  0  0
    2.9187    0.4838    0.0000 C   0  0  0  0  0  0  0  0  0  0  0  0
    1.6276    1.2473    0.0000 C   0  0  0  0  0  0  0  0  0  0  0  0
    1.6120   -0.2526    0.0000 C   0  0  0  0  0  0  0  0  0  0  0  0
    0.3208    0.5109    0.0000 C   0  0  0  0  0  0  0  0  0  0  0  0
   -0.9860   -0.2255    0.0000 C   0  0  0  0  0  0  0  0  0  0  0  0
   -1.0016   -1.7254    0.0000 C   0  0  0  0  0  0  0  0  0  0  0  0
   -2.3655   -1.1011    0.0000 C   0  0  0  0  0  0  0  0  0  0  0  0
  2  1  1  6
  2  3  1  0
  3  4  1  0
  4  5  1  0
  5  6  2  0
  5  7  1  0
  7  8  1  0
  8  9  1  0
  9 10  1  0
  9 11  2  0
  2 12  1  0
 12 13  1  6
 13 14  1  0
 15 14  1  6
 15 16  1  0
 16 17  1  1
 17 18  1  1
 17 19  1  0
 20 19  1  1
 20 21  1  0
 21 22  1  0
 22 23  1  1
 23 24  1  0
 24 25  2  0
 24 26  2  0
 24 27  1  0
 22 28  1  0
 28 29  1  0
 29 30  1  0
 30 31  1  6
 30 32  1  0
 32 33  1  6
 33 34  1  0
 34 35  1  0
 35 36  1  6
 35 12  1  0
 35 15  1  0
 32 16  1  0
 30 20  1  0
M  END
>  <MS_ID>  (1656) 
MS1721

>  <SMILES>  (1656) 
C[C@H](CCC(=O)COC(N)=O)[C@H]1CC[C@H]2[C@@H]3[C@H](O)C[C@@H]4C[C@H](OS(=O)(=O)O)CC[C@]4(C)[C@H]3CC[C@]12C

>  <Structure_dimension>  (1656) 
2D

$$$$
MS1722
     RDKit          2D

 29 32  0  0  0  0  0  0  0  0999 V2000
   -5.0303   -2.1373    0.0000 C   0  0  0  0  0  0  0  0  0  0  0  0
   -3.8594   -1.1998    0.0000 C   0  0  0  0  0  0  0  0  0  0  0  0
   -4.0858    0.2830    0.0000 C   0  0  0  0  0  0  0  0  0  0  0  0
   -5.4831    0.8284    0.0000 C   0  0  0  0  0  0  0  0  0  0  0  0
   -5.7095    2.3112    0.0000 C   0  0  0  0  0  0  0  0  0  0  0  0
   -4.5386    3.2487    0.0000 O   0  0  0  0  0  0  0  0  0  0  0  0
   -7.1069    2.8565    0.0000 O   0  0  0  0  0  0  0  0  0  0  0  0
   -2.4620   -1.7451    0.0000 C   0  0  0  0  0  0  0  0  0  0  0  0
   -2.0818   -3.1961    0.0000 C   0  0  0  0  0  0  0  0  0  0  0  0
   -0.5844   -3.2830    0.0000 C   0  0  0  0  0  0  0  0  0  0  0  0
   -0.0390   -1.8856    0.0000 C   0  0  0  0  0  0  0  0  0  0  0  0
    1.3643   -1.3559    0.0000 C   0  0  0  0  0  0  0  0  0  0  0  0
    2.5248   -2.3063    0.0000 C   0  0  0  0  0  0  0  0  0  0  0  0
    2.2819   -3.7865    0.0000 O   0  0  0  0  0  0  0  0  0  0  0  0
    3.9281   -1.7765    0.0000 C   0  0  0  0  0  0  0  0  0  0  0  0
    4.1710   -0.2963    0.0000 C   0  0  0  0  0  0  0  0  0  0  0  0
    5.5743    0.2334    0.0000 C   0  0  0  0  0  0  0  0  0  0  0  0
    5.8172    1.7136    0.0000 C   0  0  0  0  0  0  0  0  0  0  0  0
    7.2205    2.2434    0.0000 O   0  0  0  0  0  0  0  0  0  0  0  0
    4.6568    2.6641    0.0000 C   0  0  0  0  0  0  0  0  0  0  0  0
    3.2534    2.1343    0.0000 C   0  0  0  0  0  0  0  0  0  0  0  0
    3.0105    0.6541    0.0000 C   0  0  0  0  0  0  0  0  0  0  0  0
    1.8501    1.6046    0.0000 C   0  0  0  0  0  0  0  0  0  0  0  0
    1.6072    0.1244    0.0000 C   0  0  0  0  0  0  0  0  0  0  0  0
    0.4467    1.0748    0.0000 C   0  0  0  0  0  0  0  0  0  0  0  0
   -0.9566    0.5450    0.0000 C   0  0  0  0  0  0  0  0  0  0  0  0
   -2.1170    1.4955    0.0000 Cl  0  0  0  0  0  0  0  0  0  0  0  0
   -1.1995   -0.9352    0.0000 C   0  0  0  0  0  0  0  0  0  0  0  0
   -2.4529   -0.1112    0.0000 C   0  0  0  0  0  0  0  0  0  0  0  0
  2  1  1  6
  2  3  1  0
  3  4  1  0
  4  5  1  0
  5  6  2  0
  5  7  1  0
  2  8  1  0
  8  9  1  6
  9 10  1  0
 11 10  1  6
 11 12  1  0
 12 13  1  1
 13 14  1  6
 13 15  1  0
 16 15  1  1
 16 17  1  0
 17 18  1  0
 18 19  1  1
 18 20  1  0
 20 21  1  0
 21 22  1  0
 22 23  1  6
 22 24  1  0
 24 25  1  6
 25 26  1  0
 26 27  1  1
 26 28  1  0
 28 29  1  6
 28  8  1  0
 28 11  1  0
 24 12  1  0
 22 16  1  0
M  END
>  <MS_ID>  (1657) 
MS1722

>  <SMILES>  (1657) 
C[C@H](CCC(=O)O)[C@H]1CC[C@H]2[C@@H]3[C@@H](O)C[C@@H]4C[C@H](O)CC[C@]4(C)[C@H]3C[C@H](Cl)[C@]12C

>  <Structure_dimension>  (1657) 
2D

$$$$
MS1723
     RDKit          2D

 32 35  0  0  0  0  0  0  0  0999 V2000
   -8.0537    3.3159    0.0000 C   0  0  0  0  0  0  0  0  0  0  0  0
   -6.6958    2.6786    0.0000 C   0  0  0  0  0  0  0  0  0  0  0  0
   -5.4650    3.5359    0.0000 O   0  0  0  0  0  0  0  0  0  0  0  0
   -6.5688    1.1840    0.0000 C   0  0  0  0  0  0  0  0  0  0  0  0
   -5.2110    0.5466    0.0000 C   0  0  0  0  0  0  0  0  0  0  0  0
   -5.0840   -0.9480    0.0000 C   0  0  0  0  0  0  0  0  0  0  0  0
   -6.3148   -1.8053    0.0000 C   0  0  0  0  0  0  0  0  0  0  0  0
   -3.7261   -1.5853    0.0000 C   0  0  0  0  0  0  0  0  0  0  0  0
   -3.4436   -3.0584    0.0000 C   0  0  0  0  0  0  0  0  0  0  0  0
   -1.9552   -3.2450    0.0000 C   0  0  0  0  0  0  0  0  0  0  0  0
   -1.3179   -1.8871    0.0000 C   0  0  0  0  0  0  0  0  0  0  0  0
    0.1177   -1.4521    0.0000 C   0  0  0  0  0  0  0  0  0  0  0  0
    1.2121   -2.4779    0.0000 C   0  0  0  0  0  0  0  0  0  0  0  0
    0.8711   -3.9386    0.0000 O   0  0  0  0  0  0  0  0  0  0  0  0
    2.6477   -2.0429    0.0000 C   0  0  0  0  0  0  0  0  0  0  0  0
    2.9888   -0.5822    0.0000 C   0  0  0  0  0  0  0  0  0  0  0  0
    4.4243   -0.1472    0.0000 C   0  0  0  0  0  0  0  0  0  0  0  0
    4.7654    1.3135    0.0000 C   0  0  0  0  0  0  0  0  0  0  0  0
    6.2009    1.7485    0.0000 O   0  0  0  0  0  0  0  0  0  0  0  0
    7.2954    0.7227    0.0000 S   0  0  0  0  0  0  0  0  0  0  0  0
    6.2697   -0.3717    0.0000 O   0  0  0  0  0  0  0  0  0  0  0  0
    8.3211    1.8172    0.0000 O   0  0  0  0  0  0  0  0  0  0  0  0
    8.3899   -0.3030    0.0000 O   0  0  0  0  0  0  0  0  0  0  0  0
    3.6709    2.3392    0.0000 C   0  0  0  0  0  0  0  0  0  0  0  0
    2.2354    1.9043    0.0000 C   0  0  0  0  0  0  0  0  0  0  0  0
    1.8943    0.4436    0.0000 C   0  0  0  0  0  0  0  0  0  0  0  0
    0.7998    1.4693    0.0000 C   0  0  0  0  0  0  0  0  0  0  0  0
    0.4587    0.0086    0.0000 C   0  0  0  0  0  0  0  0  0  0  0  0
   -0.6357    1.0343    0.0000 C   0  0  0  0  0  0  0  0  0  0  0  0
   -2.0713    0.5993    0.0000 C   0  0  0  0  0  0  0  0  0  0  0  0
   -2.4123   -0.8614    0.0000 C   0  0  0  0  0  0  0  0  0  0  0  0
   -3.6080    0.0444    0.0000 C   0  0  0  0  0  0  0  0  0  0  0  0
  1  2  1  0
  2  3  2  0
  2  4  1  0
  4  5  1  0
  5  6  1  0
  6  7  1  6
  6  8  1  0
  8  9  1  6
  9 10  1  0
 11 10  1  6
 11 12  1  0
 12 13  1  1
 13 14  1  1
 13 15  1  0
 16 15  1  1
 16 17  1  0
 17 18  1  0
 18 19  1  1
 19 20  1  0
 20 21  2  0
 20 22  2  0
 20 23  1  0
 18 24  1  0
 24 25  1  0
 25 26  1  0
 26 27  1  6
 26 28  1  0
 28 29  1  6
 29 30  1  0
 30 31  1  0
 31 32  1  6
 31  8  1  0
 31 11  1  0
 28 12  1  0
 26 16  1  0
M  END
>  <MS_ID>  (1658) 
MS1723

>  <SMILES>  (1658) 
CC(=O)CC[C@@H](C)[C@H]1CC[C@H]2[C@@H]3[C@H](O)C[C@@H]4C[C@H](OS(=O)(=O)O)CC[C@]4(C)[C@H]3CC[C@]12C

>  <Structure_dimension>  (1658) 
2D

$$$$
MS1724
     RDKit          2D

 40 44  0  0  0  0  0  0  0  0999 V2000
   -7.9587   -2.0285    0.0000 C   0  0  0  0  0  0  0  0  0  0  0  0
   -6.7946   -1.0824    0.0000 C   0  0  0  0  0  0  0  0  0  0  0  0
   -7.0319    0.3987    0.0000 C   0  0  0  0  0  0  0  0  0  0  0  0
   -8.4332    0.9338    0.0000 C   0  0  0  0  0  0  0  0  0  0  0  0
   -8.6705    2.4149    0.0000 C   0  0  0  0  0  0  0  0  0  0  0  0
   -7.5065    3.3609    0.0000 O   0  0  0  0  0  0  0  0  0  0  0  0
  -10.0718    2.9499    0.0000 O   0  0  0  0  0  0  0  0  0  0  0  0
   -5.3933   -1.6175    0.0000 C   0  0  0  0  0  0  0  0  0  0  0  0
   -5.0025   -3.0657    0.0000 C   0  0  0  0  0  0  0  0  0  0  0  0
   -3.5044   -3.1416    0.0000 C   0  0  0  0  0  0  0  0  0  0  0  0
   -2.9694   -1.7402    0.0000 C   0  0  0  0  0  0  0  0  0  0  0  0
   -1.5700   -1.2002    0.0000 C   0  0  0  0  0  0  0  0  0  0  0  0
   -0.4026   -2.1421    0.0000 C   0  0  0  0  0  0  0  0  0  0  0  0
   -0.6346   -3.6241    0.0000 O   0  0  0  0  0  0  0  0  0  0  0  0
    0.9969   -1.6021    0.0000 C   0  0  0  0  0  0  0  0  0  0  0  0
    1.2289   -0.1201    0.0000 C   0  0  0  0  0  0  0  0  0  0  0  0
    2.6283    0.4199    0.0000 C   0  0  0  0  0  0  0  0  0  0  0  0
    2.8603    1.9018    0.0000 C   0  0  0  0  0  0  0  0  0  0  0  0
    4.2597    2.4419    0.0000 O   0  0  0  0  0  0  0  0  0  0  0  0
    5.4271    1.4999    0.0000 C   0  0  0  0  0  0  0  0  0  0  0  0
    5.1951    0.0180    0.0000 O   0  0  0  0  0  0  0  0  0  0  0  0
    6.3625   -0.9239    0.0000 C   0  0  0  0  0  0  0  0  0  0  0  0
    6.1305   -2.4059    0.0000 O   0  0  0  0  0  0  0  0  0  0  0  0
    4.7310   -2.9459    0.0000 C   0  0  0  0  0  0  0  0  0  0  0  0
    4.4990   -4.4278    0.0000 O   0  0  0  0  0  0  0  0  0  0  0  0
    7.7619   -0.3839    0.0000 C   0  0  0  0  0  0  0  0  0  0  0  0
    8.9293   -1.3258    0.0000 O   0  0  0  0  0  0  0  0  0  0  0  0
    7.9939    1.0981    0.0000 C   0  0  0  0  0  0  0  0  0  0  0  0
    9.3934    1.6381    0.0000 O   0  0  0  0  0  0  0  0  0  0  0  0
    6.8265    2.0400    0.0000 C   0  0  0  0  0  0  0  0  0  0  0  0
    7.0586    3.5219    0.0000 O   0  0  0  0  0  0  0  0  0  0  0  0
    1.6929    2.8437    0.0000 C   0  0  0  0  0  0  0  0  0  0  0  0
    0.2935    2.3037    0.0000 C   0  0  0  0  0  0  0  0  0  0  0  0
    0.0615    0.8218    0.0000 C   0  0  0  0  0  0  0  0  0  0  0  0
   -1.1059    1.7637    0.0000 C   0  0  0  0  0  0  0  0  0  0  0  0
   -1.3379    0.2817    0.0000 C   0  0  0  0  0  0  0  0  0  0  0  0
   -2.5053    1.2237    0.0000 C   0  0  0  0  0  0  0  0  0  0  0  0
   -3.9047    0.6836    0.0000 C   0  0  0  0  0  0  0  0  0  0  0  0
   -4.1368   -0.7983    0.0000 C   0  0  0  0  0  0  0  0  0  0  0  0
   -5.3962    0.0164    0.0000 C   0  0  0  0  0  0  0  0  0  0  0  0
  2  1  1  6
  2  3  1  0
  3  4  1  0
  4  5  1  0
  5  6  2  0
  5  7  1  0
  2  8  1  0
  8  9  1  6
  9 10  1  0
 11 10  1  6
 11 12  1  0
 12 13  1  1
 13 14  1  6
 13 15  1  0
 16 15  1  1
 16 17  1  0
 17 18  1  0
 18 19  1  1
 20 19  1  1
 20 21  1  0
 21 22  1  0
 22 23  1  1
 23 24  1  0
 24 25  1  0
 22 26  1  0
 26 27  1  6
 26 28  1  0
 28 29  1  1
 28 30  1  0
 30 31  1  6
 18 32  1  0
 32 33  1  0
 33 34  1  0
 34 35  1  6
 34 36  1  0
 36 37  1  6
 37 38  1  0
 38 39  1  0
 39 40  1  6
 39  8  1  0
 39 11  1  0
 36 12  1  0
 34 16  1  0
 30 20  1  0
M  END
>  <MS_ID>  (1659) 
MS1724

>  <SMILES>  (1659) 
C[C@H](CCC(=O)O)[C@H]1CC[C@H]2[C@@H]3[C@@H](O)C[C@@H]4C[C@H](O[C@@H]5O[C@H](OCO)[C@@H](O)[C@H](O)[C@H]5O)CC[C@]4(C)[C@H]3CC[C@]12C

>  <Structure_dimension>  (1659) 
2D

$$$$
MS1725
     RDKit          2D

 33 36  0  0  0  0  0  0  0  0999 V2000
   -2.6051   -3.9297    0.0000 C   0  0  0  0  0  0  0  0  0  0  0  0
   -1.7943   -2.6677    0.0000 C   0  0  0  0  0  0  0  0  0  0  0  0
   -2.4819   -1.3345    0.0000 C   0  0  0  0  0  0  0  0  0  0  0  0
   -3.9802   -1.2634    0.0000 C   0  0  0  0  0  0  0  0  0  0  0  0
   -4.6677    0.0698    0.0000 C   0  0  0  0  0  0  0  0  0  0  0  0
   -3.8569    1.3318    0.0000 O   0  0  0  0  0  0  0  0  0  0  0  0
   -6.1660    0.1409    0.0000 O   0  0  0  0  0  0  0  0  0  0  0  0
   -6.8536    1.4741    0.0000 C   0  0  0  0  0  0  0  0  0  0  0  0
   -8.3519    1.5453    0.0000 C   0  0  0  0  0  0  0  0  0  0  0  0
   -9.1627    0.2833    0.0000 O   0  0  0  0  0  0  0  0  0  0  0  0
   -9.0394    2.8784    0.0000 C   0  0  0  0  0  0  0  0  0  0  0  0
  -10.5377    2.9496    0.0000 O   0  0  0  0  0  0  0  0  0  0  0  0
   -0.2960   -2.7388    0.0000 C   0  0  0  0  0  0  0  0  0  0  0  0
    0.5271   -3.9928    0.0000 C   0  0  0  0  0  0  0  0  0  0  0  0
    1.9741   -3.5975    0.0000 C   0  0  0  0  0  0  0  0  0  0  0  0
    2.0452   -2.0992    0.0000 C   0  0  0  0  0  0  0  0  0  0  0  0
    3.2063   -1.1495    0.0000 C   0  0  0  0  0  0  0  0  0  0  0  0
    4.6093   -1.6802    0.0000 C   0  0  0  0  0  0  0  0  0  0  0  0
    4.8512   -3.1605    0.0000 O   0  0  0  0  0  0  0  0  0  0  0  0
    5.7704   -0.7305    0.0000 C   0  0  0  0  0  0  0  0  0  0  0  0
    5.5284    0.7499    0.0000 C   0  0  0  0  0  0  0  0  0  0  0  0
    6.6895    1.6996    0.0000 C   0  0  0  0  0  0  0  0  0  0  0  0
    6.4476    3.1800    0.0000 C   0  0  0  0  0  0  0  0  0  0  0  0
    7.6087    4.1296    0.0000 O   0  0  0  0  0  0  0  0  0  0  0  0
    5.0446    3.7106    0.0000 C   0  0  0  0  0  0  0  0  0  0  0  0
    3.8835    2.7609    0.0000 C   0  0  0  0  0  0  0  0  0  0  0  0
    4.1254    1.2806    0.0000 C   0  0  0  0  0  0  0  0  0  0  0  0
    2.7225    1.8113    0.0000 C   0  0  0  0  0  0  0  0  0  0  0  0
    2.9644    0.3309    0.0000 C   0  0  0  0  0  0  0  0  0  0  0  0
    1.5614    0.8616    0.0000 C   0  0  0  0  0  0  0  0  0  0  0  0
    0.4003   -0.0881    0.0000 C   0  0  0  0  0  0  0  0  0  0  0  0
    0.6422   -1.5685    0.0000 C   0  0  0  0  0  0  0  0  0  0  0  0
   -0.8086   -1.1874    0.0000 C   0  0  0  0  0  0  0  0  0  0  0  0
  2  1  1  6
  2  3  1  0
  3  4  1  0
  4  5  1  0
  5  6  2  0
  5  7  1  0
  7  8  1  0
  8  9  1  0
  9 10  1  1
  9 11  1  0
 11 12  1  0
  2 13  1  0
 13 14  1  6
 14 15  1  0
 16 15  1  6
 16 17  1  0
 17 18  1  1
 18 19  1  1
 18 20  1  0
 21 20  1  1
 21 22  1  0
 22 23  1  0
 23 24  1  1
 23 25  1  0
 25 26  1  0
 26 27  1  0
 27 28  1  6
 27 29  1  0
 29 30  1  6
 30 31  1  0
 31 32  1  0
 32 33  1  6
 32 13  1  0
 32 16  1  0
 29 17  1  0
 27 21  1  0
M  END
>  <MS_ID>  (1660) 
MS1725

>  <SMILES>  (1660) 
C[C@H](CCC(=O)OC[C@@H](O)CO)[C@H]1CC[C@H]2[C@@H]3[C@H](O)C[C@@H]4C[C@H](O)CC[C@]4(C)[C@H]3CC[C@]12C

>  <Structure_dimension>  (1660) 
2D

$$$$
MS1726
     RDKit          2D

 32 35  0  0  0  0  0  0  0  0999 V2000
   -3.4546   -3.6059    0.0000 C   0  0  0  0  0  0  0  0  0  0  0  0
   -2.5561   -2.4048    0.0000 C   0  0  0  0  0  0  0  0  0  0  0  0
   -3.1471   -1.0261    0.0000 C   0  0  0  0  0  0  0  0  0  0  0  0
   -4.6366   -0.8486    0.0000 C   0  0  0  0  0  0  0  0  0  0  0  0
   -5.2276    0.5301    0.0000 C   0  0  0  0  0  0  0  0  0  0  0  0
   -4.3291    1.7312    0.0000 O   0  0  0  0  0  0  0  0  0  0  0  0
   -6.7170    0.7076    0.0000 O   0  0  0  0  0  0  0  0  0  0  0  0
   -7.3080    2.0863    0.0000 C   0  0  0  0  0  0  0  0  0  0  0  0
   -8.7975    2.2638    0.0000 C   0  0  0  0  0  0  0  0  0  0  0  0
   -9.3885    3.6424    0.0000 O   0  0  0  0  0  0  0  0  0  0  0  0
   -1.0667   -2.5823    0.0000 C   0  0  0  0  0  0  0  0  0  0  0  0
   -0.3348   -3.8917    0.0000 C   0  0  0  0  0  0  0  0  0  0  0  0
    1.1366   -3.6002    0.0000 C   0  0  0  0  0  0  0  0  0  0  0  0
    1.3141   -2.1108    0.0000 C   0  0  0  0  0  0  0  0  0  0  0  0
    2.5398   -1.2460    0.0000 C   0  0  0  0  0  0  0  0  0  0  0  0
    3.9015   -1.8751    0.0000 C   0  0  0  0  0  0  0  0  0  0  0  0
    4.0375   -3.3690    0.0000 O   0  0  0  0  0  0  0  0  0  0  0  0
    5.1272   -1.0104    0.0000 C   0  0  0  0  0  0  0  0  0  0  0  0
    4.9911    0.4834    0.0000 C   0  0  0  0  0  0  0  0  0  0  0  0
    6.2168    1.3481    0.0000 C   0  0  0  0  0  0  0  0  0  0  0  0
    6.0808    2.8419    0.0000 C   0  0  0  0  0  0  0  0  0  0  0  0
    7.3064    3.7067    0.0000 O   0  0  0  0  0  0  0  0  0  0  0  0
    4.7191    3.4710    0.0000 C   0  0  0  0  0  0  0  0  0  0  0  0
    3.4934    2.6063    0.0000 C   0  0  0  0  0  0  0  0  0  0  0  0
    3.6294    1.1125    0.0000 C   0  0  0  0  0  0  0  0  0  0  0  0
    2.2677    1.7416    0.0000 C   0  0  0  0  0  0  0  0  0  0  0  0
    2.4038    0.2478    0.0000 C   0  0  0  0  0  0  0  0  0  0  0  0
    1.0421    0.8769    0.0000 C   0  0  0  0  0  0  0  0  0  0  0  0
   -0.1836    0.0122    0.0000 C   0  0  0  0  0  0  0  0  0  0  0  0
   -1.5453    0.6413    0.0000 O   0  0  0  0  0  0  0  0  0  0  0  0
   -0.0476   -1.4817    0.0000 C   0  0  0  0  0  0  0  0  0  0  0  0
   -1.4676   -0.9983    0.0000 C   0  0  0  0  0  0  0  0  0  0  0  0
  2  1  1  6
  2  3  1  0
  3  4  1  0
  4  5  1  0
  5  6  2  0
  5  7  1  0
  7  8  1  0
  8  9  1  0
  9 10  1  0
  2 11  1  0
 11 12  1  6
 12 13  1  0
 14 13  1  6
 14 15  1  0
 15 16  1  1
 16 17  1  6
 16 18  1  0
 19 18  1  1
 19 20  1  0
 20 21  1  0
 21 22  2  0
 21 23  1  0
 23 24  1  0
 24 25  1  0
 25 26  1  6
 25 27  1  0
 27 28  1  6
 28 29  1  0
 29 30  1  1
 29 31  1  0
 31 32  1  6
 31 11  1  0
 31 14  1  0
 27 15  1  0
 25 19  1  0
M  END
>  <MS_ID>  (1661) 
MS1726

>  <SMILES>  (1661) 
C[C@H](CCC(=O)OCCO)[C@H]1CC[C@H]2[C@@H]3[C@@H](O)C[C@@H]4CC(=O)CC[C@]4(C)[C@H]3C[C@H](O)[C@]12C

>  <Structure_dimension>  (1661) 
2D

$$$$
MS1727
     RDKit          2D

 31 34  0  0  0  0  0  0  0  0999 V2000
   -5.9226   -1.7341    0.0000 C   0  0  0  0  0  0  0  0  0  0  0  0
   -4.6300   -0.9732    0.0000 C   0  0  0  0  0  0  0  0  0  0  0  0
   -4.6426    0.5267    0.0000 C   0  0  0  0  0  0  0  0  0  0  0  0
   -5.9479    1.2657    0.0000 C   0  0  0  0  0  0  0  0  0  0  0  0
   -5.9606    2.7657    0.0000 C   0  0  0  0  0  0  0  0  0  0  0  0
   -4.6680    3.5266    0.0000 O   0  0  0  0  0  0  0  0  0  0  0  0
   -7.2659    3.5047    0.0000 O   0  0  0  0  0  0  0  0  0  0  0  0
   -3.3246   -1.7122    0.0000 C   0  0  0  0  0  0  0  0  0  0  0  0
   -3.1552   -3.2026    0.0000 C   0  0  0  0  0  0  0  0  0  0  0  0
   -1.6854   -3.5021    0.0000 C   0  0  0  0  0  0  0  0  0  0  0  0
   -0.9464   -2.1967    0.0000 C   0  0  0  0  0  0  0  0  0  0  0  0
    0.5181   -1.8725    0.0000 C   0  0  0  0  0  0  0  0  0  0  0  0
    1.5312   -2.9787    0.0000 C   0  0  0  0  0  0  0  0  0  0  0  0
    2.9957   -2.6545    0.0000 C   0  0  0  0  0  0  0  0  0  0  0  0
    3.4472   -1.2240    0.0000 C   0  0  0  0  0  0  0  0  0  0  0  0
    4.9117   -0.8998    0.0000 C   0  0  0  0  0  0  0  0  0  0  0  0
    5.3632    0.5307    0.0000 C   0  0  0  0  0  0  0  0  0  0  0  0
    6.6935   -0.1623    0.0000 O   0  0  0  0  0  0  0  0  0  0  0  0
    6.2766    1.7205    0.0000 C   0  0  0  0  0  0  0  0  0  0  0  0
    5.7030    3.1064    0.0000 O   0  0  0  0  0  0  0  0  0  0  0  0
    7.7638    1.5243    0.0000 O   0  0  0  0  0  0  0  0  0  0  0  0
    4.3501    1.6369    0.0000 C   0  0  0  0  0  0  0  0  0  0  0  0
    2.8856    1.3126    0.0000 C   0  0  0  0  0  0  0  0  0  0  0  0
    2.4341   -0.1178    0.0000 C   0  0  0  0  0  0  0  0  0  0  0  0
    1.4210    0.9884    0.0000 C   0  0  0  0  0  0  0  0  0  0  0  0
    0.9696   -0.4421    0.0000 C   0  0  0  0  0  0  0  0  0  0  0  0
   -0.0435    0.6641    0.0000 C   0  0  0  0  0  0  0  0  0  0  0  0
   -1.5080    0.3399    0.0000 C   0  0  0  0  0  0  0  0  0  0  0  0
   -2.5211    1.4461    0.0000 O   0  0  0  0  0  0  0  0  0  0  0  0
   -1.9595   -1.0905    0.0000 C   0  0  0  0  0  0  0  0  0  0  0  0
   -3.0827   -0.0963    0.0000 C   0  0  0  0  0  0  0  0  0  0  0  0
  2  1  1  6
  2  3  1  0
  3  4  1  0
  4  5  1  0
  5  6  2  0
  5  7  1  0
  2  8  1  0
  8  9  1  6
  9 10  1  0
 11 10  1  6
 11 12  1  0
 12 13  1  1
 13 14  1  0
 15 14  1  1
 15 16  1  0
 16 17  1  0
 17 18  1  6
 17 19  1  0
 19 20  2  0
 19 21  1  0
 17 22  1  0
 22 23  1  0
 23 24  1  0
 24 25  1  6
 24 26  1  0
 26 27  1  6
 27 28  1  0
 28 29  1  6
 28 30  1  0
 30 31  1  6
 30  8  1  0
 30 11  1  0
 26 12  1  0
 24 15  1  0
M  END
>  <MS_ID>  (1662) 
MS1727

>  <SMILES>  (1662) 
C[C@H](CCC(=O)O)[C@H]1CC[C@H]2[C@@H]3CC[C@@H]4C[C@](O)(C(=O)O)CC[C@]4(C)[C@H]3C[C@@H](O)[C@]12C

>  <Structure_dimension>  (1662) 
2D

$$$$
MS1728
     RDKit          2D

 32 35  0  0  0  0  0  0  0  0999 V2000
   -6.3148   -1.8053    0.0000 C   0  0  0  0  0  0  0  0  0  0  0  0
   -5.0840   -0.9480    0.0000 C   0  0  0  0  0  0  0  0  0  0  0  0
   -5.2110    0.5466    0.0000 C   0  0  0  0  0  0  0  0  0  0  0  0
   -6.5688    1.1840    0.0000 C   0  0  0  0  0  0  0  0  0  0  0  0
   -6.6958    2.6786    0.0000 C   0  0  0  0  0  0  0  0  0  0  0  0
   -5.4650    3.5359    0.0000 O   0  0  0  0  0  0  0  0  0  0  0  0
   -8.0537    3.3159    0.0000 O   0  0  0  0  0  0  0  0  0  0  0  0
   -3.7261   -1.5853    0.0000 C   0  0  0  0  0  0  0  0  0  0  0  0
   -3.4436   -3.0584    0.0000 C   0  0  0  0  0  0  0  0  0  0  0  0
   -1.9552   -3.2450    0.0000 C   0  0  0  0  0  0  0  0  0  0  0  0
   -1.3179   -1.8871    0.0000 C   0  0  0  0  0  0  0  0  0  0  0  0
    0.1177   -1.4521    0.0000 C   0  0  0  0  0  0  0  0  0  0  0  0
    1.2121   -2.4779    0.0000 C   0  0  0  0  0  0  0  0  0  0  0  0
    0.8711   -3.9386    0.0000 O   0  0  0  0  0  0  0  0  0  0  0  0
    2.6477   -2.0429    0.0000 C   0  0  0  0  0  0  0  0  0  0  0  0
    2.9888   -0.5822    0.0000 C   0  0  0  0  0  0  0  0  0  0  0  0
    4.4243   -0.1472    0.0000 C   0  0  0  0  0  0  0  0  0  0  0  0
    4.7654    1.3135    0.0000 C   0  0  0  0  0  0  0  0  0  0  0  0
    6.2009    1.7485    0.0000 N   0  0  0  0  0  0  0  0  0  0  0  0
    7.2954    0.7227    0.0000 S   0  0  0  0  0  0  0  0  0  0  0  0
    8.3211    1.8172    0.0000 O   0  0  0  0  0  0  0  0  0  0  0  0
    6.2697   -0.3717    0.0000 O   0  0  0  0  0  0  0  0  0  0  0  0
    8.3899   -0.3030    0.0000 O   0  0  0  0  0  0  0  0  0  0  0  0
    3.6709    2.3392    0.0000 C   0  0  0  0  0  0  0  0  0  0  0  0
    2.2354    1.9043    0.0000 C   0  0  0  0  0  0  0  0  0  0  0  0
    1.8943    0.4436    0.0000 C   0  0  0  0  0  0  0  0  0  0  0  0
    0.7998    1.4693    0.0000 C   0  0  0  0  0  0  0  0  0  0  0  0
    0.4587    0.0086    0.0000 C   0  0  0  0  0  0  0  0  0  0  0  0
   -0.6357    1.0343    0.0000 C   0  0  0  0  0  0  0  0  0  0  0  0
   -2.0713    0.5993    0.0000 C   0  0  0  0  0  0  0  0  0  0  0  0
   -2.4123   -0.8614    0.0000 C   0  0  0  0  0  0  0  0  0  0  0  0
   -3.6080    0.0444    0.0000 C   0  0  0  0  0  0  0  0  0  0  0  0
  2  1  1  6
  2  3  1  0
  3  4  1  0
  4  5  1  0
  5  6  2  0
  5  7  1  0
  2  8  1  0
  8  9  1  6
  9 10  1  0
 11 10  1  6
 11 12  1  0
 12 13  1  1
 13 14  1  6
 13 15  1  0
 16 15  1  1
 16 17  1  0
 17 18  1  0
 18 19  1  6
 19 20  1  0
 20 21  2  0
 20 22  2  0
 20 23  1  0
 18 24  1  0
 24 25  1  0
 25 26  1  0
 26 27  1  6
 26 28  1  0
 28 29  1  6
 29 30  1  0
 30 31  1  0
 31 32  1  6
 31  8  1  0
 31 11  1  0
 28 12  1  0
 26 16  1  0
M  END
>  <MS_ID>  (1663) 
MS1728

>  <SMILES>  (1663) 
C[C@H](CCC(=O)O)[C@H]1CC[C@H]2[C@@H]3[C@@H](O)C[C@@H]4C[C@@H](NS(=O)(=O)O)CC[C@]4(C)[C@H]3CC[C@]12C

>  <Structure_dimension>  (1663) 
2D

$$$$
MS1729
     RDKit          2D

 32 35  0  0  0  0  0  0  0  0999 V2000
   -3.0684   -3.9444    0.0000 C   0  0  0  0  0  0  0  0  0  0  0  0
   -2.2742   -2.6719    0.0000 C   0  0  0  0  0  0  0  0  0  0  0  0
   -2.9791   -1.3479    0.0000 C   0  0  0  0  0  0  0  0  0  0  0  0
   -4.4782   -1.2963    0.0000 C   0  0  0  0  0  0  0  0  0  0  0  0
   -5.1832    0.0277    0.0000 C   0  0  0  0  0  0  0  0  0  0  0  0
   -6.6823    0.0792    0.0000 O   0  0  0  0  0  0  0  0  0  0  0  0
   -4.3890    1.3002    0.0000 O   0  0  0  0  0  0  0  0  0  0  0  0
   -5.0939    2.6242    0.0000 S   0  0  0  0  0  0  0  0  0  0  0  0
   -6.4180    1.9193    0.0000 O   0  0  0  0  0  0  0  0  0  0  0  0
   -3.7699    3.3292    0.0000 O   0  0  0  0  0  0  0  0  0  0  0  0
   -5.7989    3.9483    0.0000 O   0  0  0  0  0  0  0  0  0  0  0  0
   -0.7751   -2.7234    0.0000 C   0  0  0  0  0  0  0  0  0  0  0  0
    0.0644   -3.9665    0.0000 C   0  0  0  0  0  0  0  0  0  0  0  0
    1.5061   -3.5523    0.0000 C   0  0  0  0  0  0  0  0  0  0  0  0
    1.5576   -2.0532    0.0000 C   0  0  0  0  0  0  0  0  0  0  0  0
    2.7061   -1.0884    0.0000 C   0  0  0  0  0  0  0  0  0  0  0  0
    4.1160   -1.6006    0.0000 C   0  0  0  0  0  0  0  0  0  0  0  0
    4.3772   -3.0777    0.0000 O   0  0  0  0  0  0  0  0  0  0  0  0
    5.2645   -0.6358    0.0000 C   0  0  0  0  0  0  0  0  0  0  0  0
    5.0032    0.8413    0.0000 C   0  0  0  0  0  0  0  0  0  0  0  0
    6.1517    1.8061    0.0000 C   0  0  0  0  0  0  0  0  0  0  0  0
    5.8905    3.2832    0.0000 C   0  0  0  0  0  0  0  0  0  0  0  0
    4.4806    3.7954    0.0000 C   0  0  0  0  0  0  0  0  0  0  0  0
    3.3321    2.8306    0.0000 C   0  0  0  0  0  0  0  0  0  0  0  0
    3.5934    1.3535    0.0000 C   0  0  0  0  0  0  0  0  0  0  0  0
    2.1836    1.8658    0.0000 C   0  0  0  0  0  0  0  0  0  0  0  0
    2.4449    0.3887    0.0000 C   0  0  0  0  0  0  0  0  0  0  0  0
    1.0350    0.9010    0.0000 C   0  0  0  0  0  0  0  0  0  0  0  0
   -0.1135   -0.0638    0.0000 C   0  0  0  0  0  0  0  0  0  0  0  0
   -1.5233    0.4484    0.0000 O   0  0  0  0  0  0  0  0  0  0  0  0
    0.1478   -1.5409    0.0000 C   0  0  0  0  0  0  0  0  0  0  0  0
   -1.3079   -1.1788    0.0000 C   0  0  0  0  0  0  0  0  0  0  0  0
  2  1  1  6
  2  3  1  0
  3  4  1  0
  4  5  1  0
  5  6  2  0
  5  7  1  0
  7  8  1  0
  8  9  2  0
  8 10  2  0
  8 11  1  0
  2 12  1  0
 12 13  1  6
 13 14  1  0
 15 14  1  6
 15 16  1  0
 16 17  1  1
 17 18  1  6
 17 19  1  0
 20 19  1  1
 20 21  1  0
 21 22  1  0
 22 23  1  0
 23 24  1  0
 24 25  1  0
 25 26  1  6
 25 27  1  0
 27 28  1  6
 28 29  1  0
 29 30  1  1
 29 31  1  0
 31 32  1  6
 31 12  1  0
 31 15  1  0
 27 16  1  0
 25 20  1  0
M  END
>  <MS_ID>  (1664) 
MS1729

>  <SMILES>  (1664) 
C[C@H](CCC(=O)OS(=O)(=O)O)[C@H]1CC[C@H]2[C@@H]3[C@@H](O)C[C@@H]4CCCC[C@]4(C)[C@H]3C[C@H](O)[C@]12C

>  <Structure_dimension>  (1664) 
2D

$$$$
MS1730
     RDKit          2D

 33 37  0  0  0  0  0  0  0  0999 V2000
   -3.0595   -3.4014    0.0000 C   0  0  0  0  0  0  0  0  0  0  0  0
   -2.0799   -2.2654    0.0000 C   0  0  0  0  0  0  0  0  0  0  0  0
   -2.5738   -0.8491    0.0000 C   0  0  0  0  0  0  0  0  0  0  0  0
   -4.0474   -0.5687    0.0000 C   0  0  0  0  0  0  0  0  0  0  0  0
   -4.5414    0.8476    0.0000 C   0  0  0  0  0  0  0  0  0  0  0  0
   -3.5618    1.9836    0.0000 O   0  0  0  0  0  0  0  0  0  0  0  0
   -6.0149    1.1280    0.0000 C   0  0  0  0  0  0  0  0  0  0  0  0
   -6.5089    2.5443    0.0000 C   0  0  0  0  0  0  0  0  0  0  0  0
   -7.9825    2.8247    0.0000 C   0  0  0  0  0  0  0  0  0  0  0  0
   -8.9621    1.6887    0.0000 C   0  0  0  0  0  0  0  0  0  0  0  0
   -8.4681    0.2724    0.0000 C   0  0  0  0  0  0  0  0  0  0  0  0
   -6.9945   -0.0080    0.0000 N   0  0  0  0  0  0  0  0  0  0  0  0
   -0.6063   -2.5458    0.0000 C   0  0  0  0  0  0  0  0  0  0  0  0
    0.0330   -3.9027    0.0000 C   0  0  0  0  0  0  0  0  0  0  0  0
    1.5211   -3.7140    0.0000 C   0  0  0  0  0  0  0  0  0  0  0  0
    1.8015   -2.2404    0.0000 C   0  0  0  0  0  0  0  0  0  0  0  0
    3.0841   -1.4628    0.0000 C   0  0  0  0  0  0  0  0  0  0  0  0
    4.3990   -2.1848    0.0000 C   0  0  0  0  0  0  0  0  0  0  0  0
    5.6816   -1.4072    0.0000 C   0  0  0  0  0  0  0  0  0  0  0  0
    5.6495    0.0925    0.0000 C   0  0  0  0  0  0  0  0  0  0  0  0
    6.9322    0.8702    0.0000 C   0  0  0  0  0  0  0  0  0  0  0  0
    6.9001    2.3698    0.0000 C   0  0  0  0  0  0  0  0  0  0  0  0
    8.1827    3.1475    0.0000 O   0  0  0  0  0  0  0  0  0  0  0  0
    5.5852    3.0918    0.0000 C   0  0  0  0  0  0  0  0  0  0  0  0
    4.3026    2.3142    0.0000 C   0  0  0  0  0  0  0  0  0  0  0  0
    4.3347    0.8145    0.0000 C   0  0  0  0  0  0  0  0  0  0  0  0
    3.0199    1.5365    0.0000 C   0  0  0  0  0  0  0  0  0  0  0  0
    3.0520    0.0369    0.0000 C   0  0  0  0  0  0  0  0  0  0  0  0
    1.7372    0.7589    0.0000 C   0  0  0  0  0  0  0  0  0  0  0  0
    0.4545   -0.0188    0.0000 C   0  0  0  0  0  0  0  0  0  0  0  0
   -0.8603    0.7032    0.0000 O   0  0  0  0  0  0  0  0  0  0  0  0
    0.4867   -1.5184    0.0000 C   0  0  0  0  0  0  0  0  0  0  0  0
   -0.8964   -0.9378    0.0000 C   0  0  0  0  0  0  0  0  0  0  0  0
  2  1  1  6
  2  3  1  0
  3  4  1  0
  4  5  1  0
  5  6  2  0
  5  7  1  0
  7  8  2  0
  8  9  1  0
  9 10  2  0
 10 11  1  0
 11 12  2  0
  2 13  1  0
 13 14  1  6
 14 15  1  0
 16 15  1  6
 16 17  1  0
 17 18  1  1
 18 19  1  0
 20 19  1  1
 20 21  1  0
 21 22  1  0
 22 23  1  1
 22 24  1  0
 24 25  1  0
 25 26  1  0
 26 27  1  6
 26 28  1  0
 28 29  1  6
 29 30  1  0
 30 31  1  1
 30 32  1  0
 32 33  1  6
 12  7  1  0
 32 13  1  0
 32 16  1  0
 28 17  1  0
 26 20  1  0
M  END
>  <MS_ID>  (1665) 
MS1730

>  <SMILES>  (1665) 
C[C@H](CCC(=O)c1ccccn1)[C@H]1CC[C@H]2[C@@H]3CC[C@@H]4C[C@H](O)CC[C@]4(C)[C@H]3C[C@H](O)[C@]12C

>  <Structure_dimension>  (1665) 
2D

$$$$
MS1731
     RDKit          2D

 37 41  0  0  0  0  0  0  0  0999 V2000
   -4.5038   -3.2145    0.0000 C   0  0  0  0  0  0  0  0  0  0  0  0
   -3.4462   -2.1508    0.0000 C   0  0  0  0  0  0  0  0  0  0  0  0
   -3.8386   -0.7030    0.0000 C   0  0  0  0  0  0  0  0  0  0  0  0
   -5.2886   -0.3190    0.0000 C   0  0  0  0  0  0  0  0  0  0  0  0
   -5.6810    1.1288    0.0000 C   0  0  0  0  0  0  0  0  0  0  0  0
   -4.6234    2.1925    0.0000 O   0  0  0  0  0  0  0  0  0  0  0  0
   -7.1310    1.5129    0.0000 C   0  0  0  0  0  0  0  0  0  0  0  0
   -7.5234    2.9606    0.0000 C   0  0  0  0  0  0  0  0  0  0  0  0
   -8.9734    3.3447    0.0000 C   0  0  0  0  0  0  0  0  0  0  0  0
  -10.0310    2.2810    0.0000 C   0  0  0  0  0  0  0  0  0  0  0  0
   -9.6386    0.8332    0.0000 N   0  0  0  0  0  0  0  0  0  0  0  0
   -8.1886    0.4492    0.0000 C   0  0  0  0  0  0  0  0  0  0  0  0
   -1.9962   -2.5348    0.0000 C   0  0  0  0  0  0  0  0  0  0  0  0
   -1.4546   -3.9337    0.0000 C   0  0  0  0  0  0  0  0  0  0  0  0
    0.0431   -3.8508    0.0000 C   0  0  0  0  0  0  0  0  0  0  0  0
    0.4272   -2.4009    0.0000 C   0  0  0  0  0  0  0  0  0  0  0  0
    1.7617   -1.7160    0.0000 C   0  0  0  0  0  0  0  0  0  0  0  0
    3.0221   -2.5294    0.0000 C   0  0  0  0  0  0  0  0  0  0  0  0
    2.9479   -4.0275    0.0000 O   0  0  0  0  0  0  0  0  0  0  0  0
    4.3566   -1.8445    0.0000 C   0  0  0  0  0  0  0  0  0  0  0  0
    4.4308   -0.3464    0.0000 C   0  0  0  0  0  0  0  0  0  0  0  0
    5.7653    0.3385    0.0000 C   0  0  0  0  0  0  0  0  0  0  0  0
    5.8395    1.8366    0.0000 C   0  0  0  0  0  0  0  0  0  0  0  0
    7.1741    2.5215    0.0000 O   0  0  0  0  0  0  0  0  0  0  0  0
    8.4344    1.7081    0.0000 S   0  0  0  0  0  0  0  0  0  0  0  0
    7.6211    0.4478    0.0000 O   0  0  0  0  0  0  0  0  0  0  0  0
    9.2478    2.9685    0.0000 O   0  0  0  0  0  0  0  0  0  0  0  0
    9.6948    0.8948    0.0000 O   0  0  0  0  0  0  0  0  0  0  0  0
    4.5792    2.6500    0.0000 C   0  0  0  0  0  0  0  0  0  0  0  0
    3.2446    1.9651    0.0000 C   0  0  0  0  0  0  0  0  0  0  0  0
    3.1704    0.4670    0.0000 C   0  0  0  0  0  0  0  0  0  0  0  0
    1.9101    1.2803    0.0000 C   0  0  0  0  0  0  0  0  0  0  0  0
    1.8359   -0.2179    0.0000 C   0  0  0  0  0  0  0  0  0  0  0  0
    0.5755    0.5955    0.0000 C   0  0  0  0  0  0  0  0  0  0  0  0
   -0.7590   -0.0894    0.0000 C   0  0  0  0  0  0  0  0  0  0  0  0
   -0.8332   -1.5875    0.0000 C   0  0  0  0  0  0  0  0  0  0  0  0
   -2.1717   -0.9104    0.0000 C   0  0  0  0  0  0  0  0  0  0  0  0
  2  1  1  6
  2  3  1  0
  3  4  1  0
  4  5  1  0
  5  6  2  0
  5  7  1  0
  7  8  2  0
  8  9  1  0
  9 10  2  0
 10 11  1  0
 11 12  2  0
  2 13  1  0
 13 14  1  6
 14 15  1  0
 16 15  1  6
 16 17  1  0
 17 18  1  1
 18 19  1  6
 18 20  1  0
 21 20  1  1
 21 22  1  0
 22 23  1  0
 23 24  1  1
 24 25  1  0
 25 26  2  0
 25 27  2  0
 25 28  1  0
 23 29  1  0
 29 30  1  0
 30 31  1  0
 31 32  1  6
 31 33  1  0
 33 34  1  6
 34 35  1  0
 35 36  1  0
 36 37  1  6
 12  7  1  0
 36 13  1  0
 36 16  1  0
 33 17  1  0
 31 21  1  0
M  END
>  <MS_ID>  (1666) 
MS1731

>  <SMILES>  (1666) 
C[C@H](CCC(=O)c1cccnc1)[C@H]1CC[C@H]2[C@@H]3[C@@H](O)C[C@@H]4C[C@H](OS(=O)(=O)O)CC[C@]4(C)[C@H]3CC[C@]12C

>  <Structure_dimension>  (1666) 
2D

$$$$
MS1732
     RDKit          2D

 32 35  0  0  0  0  0  0  0  0999 V2000
   -3.2905   -3.6805    0.0000 C   0  0  0  0  0  0  0  0  0  0  0  0
   -2.3609   -2.5033    0.0000 C   0  0  0  0  0  0  0  0  0  0  0  0
   -2.9157   -1.1096    0.0000 C   0  0  0  0  0  0  0  0  0  0  0  0
   -4.4000   -0.8932    0.0000 C   0  0  0  0  0  0  0  0  0  0  0  0
   -4.9547    0.5004    0.0000 C   0  0  0  0  0  0  0  0  0  0  0  0
   -4.0251    1.6776    0.0000 O   0  0  0  0  0  0  0  0  0  0  0  0
   -6.4390    0.7168    0.0000 N   0  0  0  0  0  0  0  0  0  0  0  0
   -6.9938    2.1105    0.0000 S   0  0  0  0  0  0  0  0  0  0  0  0
   -8.3874    1.5557    0.0000 O   0  0  0  0  0  0  0  0  0  0  0  0
   -5.6001    2.6652    0.0000 O   0  0  0  0  0  0  0  0  0  0  0  0
   -7.5485    3.5041    0.0000 O   0  0  0  0  0  0  0  0  0  0  0  0
   -0.8766   -2.7197    0.0000 C   0  0  0  0  0  0  0  0  0  0  0  0
   -0.1792   -4.0477    0.0000 C   0  0  0  0  0  0  0  0  0  0  0  0
    1.2993   -3.7949    0.0000 C   0  0  0  0  0  0  0  0  0  0  0  0
    1.5157   -2.3106    0.0000 C   0  0  0  0  0  0  0  0  0  0  0  0
    2.7636   -1.4782    0.0000 C   0  0  0  0  0  0  0  0  0  0  0  0
    4.1084   -2.1427    0.0000 C   0  0  0  0  0  0  0  0  0  0  0  0
    5.3562   -1.3103    0.0000 C   0  0  0  0  0  0  0  0  0  0  0  0
    5.2593    0.1866    0.0000 C   0  0  0  0  0  0  0  0  0  0  0  0
    6.5071    1.0189    0.0000 C   0  0  0  0  0  0  0  0  0  0  0  0
    6.4102    2.5158    0.0000 C   0  0  0  0  0  0  0  0  0  0  0  0
    7.6581    3.3482    0.0000 O   0  0  0  0  0  0  0  0  0  0  0  0
    5.0654    3.1803    0.0000 C   0  0  0  0  0  0  0  0  0  0  0  0
    3.8176    2.3479    0.0000 C   0  0  0  0  0  0  0  0  0  0  0  0
    3.9145    0.8511    0.0000 C   0  0  0  0  0  0  0  0  0  0  0  0
    2.5697    1.5155    0.0000 C   0  0  0  0  0  0  0  0  0  0  0  0
    2.6666    0.0187    0.0000 C   0  0  0  0  0  0  0  0  0  0  0  0
    1.3218    0.6832    0.0000 C   0  0  0  0  0  0  0  0  0  0  0  0
    0.0740   -0.1492    0.0000 C   0  0  0  0  0  0  0  0  0  0  0  0
   -1.2708    0.5153    0.0000 O   0  0  0  0  0  0  0  0  0  0  0  0
    0.1709   -1.6461    0.0000 C   0  0  0  0  0  0  0  0  0  0  0  0
   -1.2360   -1.1258    0.0000 C   0  0  0  0  0  0  0  0  0  0  0  0
  2  1  1  6
  2  3  1  0
  3  4  1  0
  4  5  1  0
  5  6  2  0
  5  7  1  0
  7  8  1  0
  8  9  2  0
  8 10  2  0
  8 11  1  0
  2 12  1  0
 12 13  1  6
 13 14  1  0
 15 14  1  6
 15 16  1  0
 16 17  1  1
 17 18  1  0
 19 18  1  1
 19 20  1  0
 20 21  1  0
 21 22  1  1
 21 23  1  0
 23 24  1  0
 24 25  1  0
 25 26  1  6
 25 27  1  0
 27 28  1  6
 28 29  1  0
 29 30  2  0
 29 31  1  0
 31 32  1  6
 31 12  1  0
 31 15  1  0
 27 16  1  0
 25 19  1  0
M  END
>  <MS_ID>  (1667) 
MS1732

>  <SMILES>  (1667) 
C[C@H](CCC(=O)NS(=O)(=O)O)[C@H]1CC[C@H]2[C@@H]3CC[C@@H]4C[C@H](O)CC[C@]4(C)[C@H]3CC(=O)[C@]12C

>  <Structure_dimension>  (1667) 
2D

$$$$
MS1733
     RDKit          2D

 35 39  0  0  0  0  0  0  0  0999 V2000
   -3.1364   -3.2618    0.0000 C   0  0  0  0  0  0  0  0  0  0  0  0
   -2.1884   -2.0994    0.0000 C   0  0  0  0  0  0  0  0  0  0  0  0
   -2.7211   -0.6972    0.0000 C   0  0  0  0  0  0  0  0  0  0  0  0
   -4.2018   -0.4574    0.0000 C   0  0  0  0  0  0  0  0  0  0  0  0
   -4.7345    0.9448    0.0000 C   0  0  0  0  0  0  0  0  0  0  0  0
   -3.7864    2.1073    0.0000 O   0  0  0  0  0  0  0  0  0  0  0  0
   -6.2152    1.1846    0.0000 C   0  0  0  0  0  0  0  0  0  0  0  0
   -6.7478    2.5869    0.0000 C   0  0  0  0  0  0  0  0  0  0  0  0
   -8.2286    2.8267    0.0000 C   0  0  0  0  0  0  0  0  0  0  0  0
   -9.1766    1.6642    0.0000 C   0  0  0  0  0  0  0  0  0  0  0  0
   -8.6439    0.2620    0.0000 C   0  0  0  0  0  0  0  0  0  0  0  0
   -7.1632    0.0222    0.0000 C   0  0  0  0  0  0  0  0  0  0  0  0
   -6.6305   -1.3800    0.0000 Cl  0  0  0  0  0  0  0  0  0  0  0  0
   -0.7077   -2.3392    0.0000 C   0  0  0  0  0  0  0  0  0  0  0  0
   -0.0313   -3.6781    0.0000 C   0  0  0  0  0  0  0  0  0  0  0  0
    1.4510   -3.4486    0.0000 C   0  0  0  0  0  0  0  0  0  0  0  0
    1.6908   -1.9679    0.0000 C   0  0  0  0  0  0  0  0  0  0  0  0
    2.9516   -1.1553    0.0000 C   0  0  0  0  0  0  0  0  0  0  0  0
    4.2858   -1.8409    0.0000 C   0  0  0  0  0  0  0  0  0  0  0  0
    4.3591   -3.3391    0.0000 O   0  0  0  0  0  0  0  0  0  0  0  0
    5.5466   -1.0283    0.0000 C   0  0  0  0  0  0  0  0  0  0  0  0
    6.8807   -1.7140    0.0000 O   0  0  0  0  0  0  0  0  0  0  0  0
    5.4733    0.4699    0.0000 C   0  0  0  0  0  0  0  0  0  0  0  0
    6.7342    1.2825    0.0000 C   0  0  0  0  0  0  0  0  0  0  0  0
    6.6609    2.7807    0.0000 C   0  0  0  0  0  0  0  0  0  0  0  0
    7.9217    3.5933    0.0000 O   0  0  0  0  0  0  0  0  0  0  0  0
    5.3267    3.4663    0.0000 C   0  0  0  0  0  0  0  0  0  0  0  0
    4.0659    2.6537    0.0000 C   0  0  0  0  0  0  0  0  0  0  0  0
    4.1392    1.1555    0.0000 C   0  0  0  0  0  0  0  0  0  0  0  0
    2.8050    1.8411    0.0000 C   0  0  0  0  0  0  0  0  0  0  0  0
    2.8783    0.3429    0.0000 C   0  0  0  0  0  0  0  0  0  0  0  0
    1.5442    1.0286    0.0000 C   0  0  0  0  0  0  0  0  0  0  0  0
    0.2834    0.2160    0.0000 C   0  0  0  0  0  0  0  0  0  0  0  0
    0.3567   -1.2822    0.0000 C   0  0  0  0  0  0  0  0  0  0  0  0
   -1.0418   -0.7398    0.0000 C   0  0  0  0  0  0  0  0  0  0  0  0
  2  1  1  6
  2  3  1  0
  3  4  1  0
  4  5  1  0
  5  6  2  0
  5  7  1  0
  7  8  2  0
  8  9  1  0
  9 10  2  0
 10 11  1  0
 11 12  2  0
 12 13  1  0
  2 14  1  0
 14 15  1  6
 15 16  1  0
 17 16  1  6
 17 18  1  0
 18 19  1  1
 19 20  1  1
 19 21  1  0
 21 22  1  1
 21 23  1  0
 23 24  1  1
 24 25  1  0
 25 26  1  1
 25 27  1  0
 27 28  1  0
 28 29  1  0
 29 30  1  6
 29 31  1  0
 31 32  1  6
 32 33  1  0
 33 34  1  0
 34 35  1  6
 12  7  1  0
 34 14  1  0
 34 17  1  0
 31 18  1  0
 29 23  1  0
M  END
>  <MS_ID>  (1668) 
MS1733

>  <SMILES>  (1668) 
C[C@H](CCC(=O)c1ccccc1Cl)[C@H]1CC[C@H]2[C@@H]3[C@H](O)[C@H](O)[C@@H]4C[C@H](O)CC[C@]4(C)[C@H]3CC[C@]12C

>  <Structure_dimension>  (1668) 
2D

$$$$
MS1734
     RDKit          2D

 32 35  0  0  0  0  0  0  0  0999 V2000
   -6.3148   -1.8053    0.0000 C   0  0  0  0  0  0  0  0  0  0  0  0
   -5.0840   -0.9480    0.0000 C   0  0  0  0  0  0  0  0  0  0  0  0
   -5.2110    0.5466    0.0000 C   0  0  0  0  0  0  0  0  0  0  0  0
   -6.5688    1.1840    0.0000 C   0  0  0  0  0  0  0  0  0  0  0  0
   -6.6958    2.6786    0.0000 C   0  0  0  0  0  0  0  0  0  0  0  0
   -5.4650    3.5359    0.0000 O   0  0  0  0  0  0  0  0  0  0  0  0
   -8.0537    3.3159    0.0000 O   0  0  0  0  0  0  0  0  0  0  0  0
   -3.7261   -1.5853    0.0000 C   0  0  0  0  0  0  0  0  0  0  0  0
   -3.4436   -3.0584    0.0000 C   0  0  0  0  0  0  0  0  0  0  0  0
   -1.9552   -3.2450    0.0000 C   0  0  0  0  0  0  0  0  0  0  0  0
   -1.3179   -1.8871    0.0000 C   0  0  0  0  0  0  0  0  0  0  0  0
    0.1177   -1.4521    0.0000 C   0  0  0  0  0  0  0  0  0  0  0  0
    1.2121   -2.4779    0.0000 C   0  0  0  0  0  0  0  0  0  0  0  0
    0.8711   -3.9386    0.0000 O   0  0  0  0  0  0  0  0  0  0  0  0
    2.6477   -2.0429    0.0000 C   0  0  0  0  0  0  0  0  0  0  0  0
    2.9888   -0.5822    0.0000 C   0  0  0  0  0  0  0  0  0  0  0  0
    4.4243   -0.1472    0.0000 C   0  0  0  0  0  0  0  0  0  0  0  0
    4.7654    1.3135    0.0000 C   0  0  0  0  0  0  0  0  0  0  0  0
    6.2009    1.7485    0.0000 N   0  0  0  0  0  0  0  0  0  0  0  0
    7.2954    0.7227    0.0000 S   0  0  0  0  0  0  0  0  0  0  0  0
    8.3211    1.8172    0.0000 O   0  0  0  0  0  0  0  0  0  0  0  0
    6.2697   -0.3717    0.0000 O   0  0  0  0  0  0  0  0  0  0  0  0
    8.3899   -0.3030    0.0000 O   0  0  0  0  0  0  0  0  0  0  0  0
    3.6709    2.3392    0.0000 C   0  0  0  0  0  0  0  0  0  0  0  0
    2.2354    1.9043    0.0000 C   0  0  0  0  0  0  0  0  0  0  0  0
    1.8943    0.4436    0.0000 C   0  0  0  0  0  0  0  0  0  0  0  0
    0.7998    1.4693    0.0000 C   0  0  0  0  0  0  0  0  0  0  0  0
    0.4587    0.0086    0.0000 C   0  0  0  0  0  0  0  0  0  0  0  0
   -0.6357    1.0343    0.0000 C   0  0  0  0  0  0  0  0  0  0  0  0
   -2.0713    0.5993    0.0000 C   0  0  0  0  0  0  0  0  0  0  0  0
   -2.4123   -0.8614    0.0000 C   0  0  0  0  0  0  0  0  0  0  0  0
   -3.6080    0.0444    0.0000 C   0  0  0  0  0  0  0  0  0  0  0  0
  2  1  1  6
  2  3  1  0
  3  4  1  0
  4  5  1  0
  5  6  2  0
  5  7  1  0
  2  8  1  0
  8  9  1  6
  9 10  1  0
 11 10  1  6
 11 12  1  0
 12 13  1  1
 13 14  1  1
 13 15  1  0
 16 15  1  1
 16 17  1  0
 17 18  1  0
 18 19  1  6
 19 20  1  0
 20 21  2  0
 20 22  2  0
 20 23  1  0
 18 24  1  0
 24 25  1  0
 25 26  1  0
 26 27  1  6
 26 28  1  0
 28 29  1  6
 29 30  1  0
 30 31  1  0
 31 32  1  6
 31  8  1  0
 31 11  1  0
 28 12  1  0
 26 16  1  0
M  END
>  <MS_ID>  (1669) 
MS1734

>  <SMILES>  (1669) 
C[C@H](CCC(=O)O)[C@H]1CC[C@H]2[C@@H]3[C@H](O)C[C@@H]4C[C@@H](NS(=O)(=O)O)CC[C@]4(C)[C@H]3CC[C@]12C

>  <Structure_dimension>  (1669) 
2D

$$$$
MS1735
     RDKit          2D

 35 39  0  0  0  0  0  0  0  0999 V2000
   -2.2371   -3.9665    0.0000 C   0  0  0  0  0  0  0  0  0  0  0  0
   -1.4340   -2.6997    0.0000 C   0  0  0  0  0  0  0  0  0  0  0  0
   -2.1295   -1.3707    0.0000 C   0  0  0  0  0  0  0  0  0  0  0  0
   -3.6283   -1.3086    0.0000 C   0  0  0  0  0  0  0  0  0  0  0  0
   -4.3238    0.0204    0.0000 C   0  0  0  0  0  0  0  0  0  0  0  0
   -3.5207    1.2873    0.0000 O   0  0  0  0  0  0  0  0  0  0  0  0
   -5.8225    0.0825    0.0000 O   0  0  0  0  0  0  0  0  0  0  0  0
   -6.5181    1.4115    0.0000 C   0  0  0  0  0  0  0  0  0  0  0  0
   -8.0168    1.4736    0.0000 C   0  0  0  0  0  0  0  0  0  0  0  0
   -8.9480    0.2976    0.0000 C   0  0  0  0  0  0  0  0  0  0  0  0
  -10.3542    0.8198    0.0000 C   0  0  0  0  0  0  0  0  0  0  0  0
  -10.2921    2.3185    0.0000 C   0  0  0  0  0  0  0  0  0  0  0  0
   -8.8475    2.7225    0.0000 O   0  0  0  0  0  0  0  0  0  0  0  0
    0.0648   -2.7618    0.0000 C   0  0  0  0  0  0  0  0  0  0  0  0
    0.8954   -4.0108    0.0000 C   0  0  0  0  0  0  0  0  0  0  0  0
    2.3400   -3.6067    0.0000 C   0  0  0  0  0  0  0  0  0  0  0  0
    2.4021   -2.1080    0.0000 C   0  0  0  0  0  0  0  0  0  0  0  0
    3.5574   -1.1513    0.0000 C   0  0  0  0  0  0  0  0  0  0  0  0
    4.9636   -1.6735    0.0000 C   0  0  0  0  0  0  0  0  0  0  0  0
    5.2144   -3.1523    0.0000 O   0  0  0  0  0  0  0  0  0  0  0  0
    6.1189   -0.7168    0.0000 C   0  0  0  0  0  0  0  0  0  0  0  0
    5.8680    0.7621    0.0000 C   0  0  0  0  0  0  0  0  0  0  0  0
    7.0233    1.7188    0.0000 C   0  0  0  0  0  0  0  0  0  0  0  0
    6.7725    3.1976    0.0000 C   0  0  0  0  0  0  0  0  0  0  0  0
    7.9278    4.1543    0.0000 O   0  0  0  0  0  0  0  0  0  0  0  0
    5.3663    3.7198    0.0000 C   0  0  0  0  0  0  0  0  0  0  0  0
    4.2110    2.7632    0.0000 C   0  0  0  0  0  0  0  0  0  0  0  0
    4.4619    1.2843    0.0000 C   0  0  0  0  0  0  0  0  0  0  0  0
    3.0557    1.8065    0.0000 C   0  0  0  0  0  0  0  0  0  0  0  0
    3.3065    0.3276    0.0000 C   0  0  0  0  0  0  0  0  0  0  0  0
    1.9004    0.8498    0.0000 C   0  0  0  0  0  0  0  0  0  0  0  0
    0.7451   -0.1069    0.0000 C   0  0  0  0  0  0  0  0  0  0  0  0
   -0.6611    0.4153    0.0000 O   0  0  0  0  0  0  0  0  0  0  0  0
    0.9959   -1.5858    0.0000 C   0  0  0  0  0  0  0  0  0  0  0  0
   -0.4571   -1.2134    0.0000 C   0  0  0  0  0  0  0  0  0  0  0  0
  2  1  1  6
  2  3  1  0
  3  4  1  0
  4  5  1  0
  5  6  2  0
  5  7  1  0
  7  8  1  0
  8  9  1  0
  9 10  2  0
 10 11  1  0
 11 12  2  0
 12 13  1  0
  2 14  1  0
 14 15  1  6
 15 16  1  0
 17 16  1  6
 17 18  1  0
 18 19  1  1
 19 20  1  1
 19 21  1  0
 22 21  1  1
 22 23  1  0
 23 24  1  0
 24 25  1  1
 24 26  1  0
 26 27  1  0
 27 28  1  0
 28 29  1  6
 28 30  1  0
 30 31  1  6
 31 32  1  0
 32 33  1  1
 32 34  1  0
 34 35  1  6
 13  9  1  0
 34 14  1  0
 34 17  1  0
 30 18  1  0
 28 22  1  0
M  END
>  <MS_ID>  (1670) 
MS1735

>  <SMILES>  (1670) 
C[C@H](CCC(=O)OCc1ccco1)[C@H]1CC[C@H]2[C@@H]3[C@H](O)C[C@@H]4C[C@H](O)CC[C@]4(C)[C@H]3C[C@H](O)[C@]12C

>  <Structure_dimension>  (1670) 
2D

$$$$
MS1736
     RDKit          2D

 32 35  0  0  0  0  0  0  0  0999 V2000
   -9.0946    1.0175    0.0000 C   0  0  0  0  0  0  0  0  0  0  0  0
   -7.6382    0.6585    0.0000 C   0  0  0  0  0  0  0  0  0  0  0  0
   -6.5991    1.7404    0.0000 C   0  0  0  0  0  0  0  0  0  0  0  0
   -7.0165    3.1811    0.0000 C   0  0  0  0  0  0  0  0  0  0  0  0
   -5.1427    1.3814    0.0000 C   0  0  0  0  0  0  0  0  0  0  0  0
   -4.1036    2.4632    0.0000 O   0  0  0  0  0  0  0  0  0  0  0  0
   -4.7254   -0.0593    0.0000 C   0  0  0  0  0  0  0  0  0  0  0  0
   -3.2689   -0.4183    0.0000 C   0  0  0  0  0  0  0  0  0  0  0  0
   -2.8516   -1.8591    0.0000 C   0  0  0  0  0  0  0  0  0  0  0  0
   -3.8907   -2.9409    0.0000 C   0  0  0  0  0  0  0  0  0  0  0  0
   -1.3952   -2.2180    0.0000 C   0  0  0  0  0  0  0  0  0  0  0  0
   -0.8295   -3.6073    0.0000 C   0  0  0  0  0  0  0  0  0  0  0  0
    0.6666   -3.4986    0.0000 C   0  0  0  0  0  0  0  0  0  0  0  0
    1.0255   -2.0422    0.0000 C   0  0  0  0  0  0  0  0  0  0  0  0
    2.3480   -1.3344    0.0000 C   0  0  0  0  0  0  0  0  0  0  0  0
    3.6222   -2.1258    0.0000 C   0  0  0  0  0  0  0  0  0  0  0  0
    3.5739   -3.6250    0.0000 O   0  0  0  0  0  0  0  0  0  0  0  0
    4.9447   -1.4180    0.0000 C   0  0  0  0  0  0  0  0  0  0  0  0
    4.9930    0.0812    0.0000 C   0  0  0  0  0  0  0  0  0  0  0  0
    6.3156    0.7890    0.0000 C   0  0  0  0  0  0  0  0  0  0  0  0
    6.3639    2.2882    0.0000 C   0  0  0  0  0  0  0  0  0  0  0  0
    7.6864    2.9960    0.0000 O   0  0  0  0  0  0  0  0  0  0  0  0
    5.0896    3.0796    0.0000 C   0  0  0  0  0  0  0  0  0  0  0  0
    3.7671    2.3719    0.0000 C   0  0  0  0  0  0  0  0  0  0  0  0
    3.7188    0.8726    0.0000 C   0  0  0  0  0  0  0  0  0  0  0  0
    2.4446    1.6641    0.0000 C   0  0  0  0  0  0  0  0  0  0  0  0
    2.3963    0.1648    0.0000 C   0  0  0  0  0  0  0  0  0  0  0  0
    1.1221    0.9563    0.0000 C   0  0  0  0  0  0  0  0  0  0  0  0
   -0.2004    0.2485    0.0000 C   0  0  0  0  0  0  0  0  0  0  0  0
   -1.4746    1.0399    0.0000 O   0  0  0  0  0  0  0  0  0  0  0  0
   -0.2487   -1.2507    0.0000 C   0  0  0  0  0  0  0  0  0  0  0  0
   -1.5987   -0.5968    0.0000 C   0  0  0  0  0  0  0  0  0  0  0  0
  1  2  1  0
  2  3  1  0
  3  4  1  6
  3  5  1  0
  5  6  2  0
  5  7  1  0
  7  8  1  0
  8  9  1  0
  9 10  1  6
  9 11  1  0
 11 12  1  6
 12 13  1  0
 14 13  1  6
 14 15  1  0
 15 16  1  1
 16 17  1  1
 16 18  1  0
 19 18  1  1
 19 20  1  0
 20 21  1  0
 21 22  1  1
 21 23  1  0
 23 24  1  0
 24 25  1  0
 25 26  1  6
 25 27  1  0
 27 28  1  6
 28 29  1  0
 29 30  1  1
 29 31  1  0
 31 32  1  6
 31 11  1  0
 31 14  1  0
 27 15  1  0
 25 19  1  0
M  END
>  <MS_ID>  (1671) 
MS1736

>  <SMILES>  (1671) 
CC[C@H](C)C(=O)CC[C@@H](C)[C@H]1CC[C@H]2[C@@H]3[C@H](O)C[C@@H]4C[C@H](O)CC[C@]4(C)[C@H]3C[C@H](O)[C@]12C

>  <Structure_dimension>  (1671) 
2D

$$$$
MS1737
     RDKit          2D

 38 42  0  0  0  0  0  0  0  0999 V2000
   -0.7209   -4.9059    0.0000 C   0  0  0  0  0  0  0  0  0  0  0  0
   -0.2198   -3.4920    0.0000 C   0  0  0  0  0  0  0  0  0  0  0  0
   -1.1937   -2.3512    0.0000 C   0  0  0  0  0  0  0  0  0  0  0  0
   -2.6687   -2.6242    0.0000 C   0  0  0  0  0  0  0  0  0  0  0  0
   -3.6425   -1.4833    0.0000 C   0  0  0  0  0  0  0  0  0  0  0  0
   -3.1415   -0.0695    0.0000 O   0  0  0  0  0  0  0  0  0  0  0  0
   -5.1175   -1.7563    0.0000 N   0  0  0  0  0  0  0  0  0  0  0  0
   -6.0914   -0.6155    0.0000 C   0  0  0  0  0  0  0  0  0  0  0  0
   -5.5903    0.7983    0.0000 C   0  0  0  0  0  0  0  0  0  0  0  0
   -6.5642    1.9392    0.0000 C   0  0  0  0  0  0  0  0  0  0  0  0
   -8.0392    1.6662    0.0000 C   0  0  0  0  0  0  0  0  0  0  0  0
   -9.0131    2.8070    0.0000 C   0  0  0  0  0  0  0  0  0  0  0  0
  -10.4880    2.5340    0.0000 O   0  0  0  0  0  0  0  0  0  0  0  0
   -8.5120    4.2209    0.0000 O   0  0  0  0  0  0  0  0  0  0  0  0
   -8.5402    0.2524    0.0000 C   0  0  0  0  0  0  0  0  0  0  0  0
   -7.5663   -0.8885    0.0000 C   0  0  0  0  0  0  0  0  0  0  0  0
    1.2551   -3.2190    0.0000 C   0  0  0  0  0  0  0  0  0  0  0  0
    2.3429   -4.2518    0.0000 C   0  0  0  0  0  0  0  0  0  0  0  0
    3.6613   -3.5364    0.0000 C   0  0  0  0  0  0  0  0  0  0  0  0
    3.3884   -2.0615    0.0000 C   0  0  0  0  0  0  0  0  0  0  0  0
    4.3018   -0.8717    0.0000 C   0  0  0  0  0  0  0  0  0  0  0  0
    5.7889   -1.0678    0.0000 C   0  0  0  0  0  0  0  0  0  0  0  0
    6.3626   -2.4538    0.0000 O   0  0  0  0  0  0  0  0  0  0  0  0
    6.7023    0.1220    0.0000 C   0  0  0  0  0  0  0  0  0  0  0  0
    6.1286    1.5080    0.0000 C   0  0  0  0  0  0  0  0  0  0  0  0
    7.0421    2.6978    0.0000 C   0  0  0  0  0  0  0  0  0  0  0  0
    6.4684    4.0837    0.0000 C   0  0  0  0  0  0  0  0  0  0  0  0
    7.3818    5.2735    0.0000 O   0  0  0  0  0  0  0  0  0  0  0  0
    4.9813    4.2799    0.0000 C   0  0  0  0  0  0  0  0  0  0  0  0
    4.0678    3.0901    0.0000 C   0  0  0  0  0  0  0  0  0  0  0  0
    4.6415    1.7041    0.0000 C   0  0  0  0  0  0  0  0  0  0  0  0
    3.1544    1.9003    0.0000 C   0  0  0  0  0  0  0  0  0  0  0  0
    3.7281    0.5143    0.0000 C   0  0  0  0  0  0  0  0  0  0  0  0
    2.2410    0.7104    0.0000 C   0  0  0  0  0  0  0  0  0  0  0  0
    1.3275   -0.4794    0.0000 C   0  0  0  0  0  0  0  0  0  0  0  0
   -0.1596   -0.2832    0.0000 O   0  0  0  0  0  0  0  0  0  0  0  0
    1.9012   -1.8653    0.0000 C   0  0  0  0  0  0  0  0  0  0  0  0
    0.4018   -1.8257    0.0000 C   0  0  0  0  0  0  0  0  0  0  0  0
  2  1  1  6
  2  3  1  0
  3  4  1  0
  4  5  1  0
  5  6  2  0
  5  7  1  0
  7  8  1  0
  8  9  2  0
  9 10  1  0
 10 11  2  0
 11 12  1  0
 12 13  2  0
 12 14  1  0
 11 15  1  0
 15 16  2  0
  2 17  1  0
 17 18  1  6
 18 19  1  0
 20 19  1  6
 20 21  1  0
 21 22  1  1
 22 23  1  1
 22 24  1  0
 25 24  1  1
 25 26  1  0
 26 27  1  0
 27 28  1  1
 27 29  1  0
 29 30  1  0
 30 31  1  0
 31 32  1  6
 31 33  1  0
 33 34  1  6
 34 35  1  0
 35 36  1  1
 35 37  1  0
 37 38  1  6
 16  8  1  0
 37 17  1  0
 37 20  1  0
 33 21  1  0
 31 25  1  0
M  END
>  <MS_ID>  (1672) 
MS1737

>  <SMILES>  (1672) 
C[C@H](CCC(=O)Nc1ccc(C(=O)O)cc1)[C@H]1CC[C@H]2[C@@H]3[C@H](O)C[C@@H]4C[C@H](O)CC[C@]4(C)[C@H]3C[C@H](O)[C@]12C

>  <Structure_dimension>  (1672) 
2D

$$$$
MS1738
     RDKit          2D

 35 39  0  0  0  0  0  0  0  0999 V2000
   -2.5210   -3.9198    0.0000 C   0  0  0  0  0  0  0  0  0  0  0  0
   -1.6831   -2.6756    0.0000 C   0  0  0  0  0  0  0  0  0  0  0  0
   -2.3416   -1.3279    0.0000 C   0  0  0  0  0  0  0  0  0  0  0  0
   -3.8380   -1.2243    0.0000 C   0  0  0  0  0  0  0  0  0  0  0  0
   -4.4965    0.1234    0.0000 C   0  0  0  0  0  0  0  0  0  0  0  0
   -3.6586    1.3675    0.0000 O   0  0  0  0  0  0  0  0  0  0  0  0
   -5.9929    0.2270    0.0000 N   0  0  0  0  0  0  0  0  0  0  0  0
   -6.9563   -0.9228    0.0000 C   0  0  0  0  0  0  0  0  0  0  0  0
   -8.3475   -0.3618    0.0000 C   0  0  0  0  0  0  0  0  0  0  0  0
   -8.2439    1.1346    0.0000 C   0  0  0  0  0  0  0  0  0  0  0  0
   -6.7887    1.4985    0.0000 C   0  0  0  0  0  0  0  0  0  0  0  0
   -6.2277    2.8897    0.0000 C   0  0  0  0  0  0  0  0  0  0  0  0
   -4.7425    3.0995    0.0000 O   0  0  0  0  0  0  0  0  0  0  0  0
   -7.1521    4.0710    0.0000 O   0  0  0  0  0  0  0  0  0  0  0  0
   -0.1866   -2.7792    0.0000 C   0  0  0  0  0  0  0  0  0  0  0  0
    0.6091   -4.0507    0.0000 C   0  0  0  0  0  0  0  0  0  0  0  0
    2.0643   -3.6868    0.0000 C   0  0  0  0  0  0  0  0  0  0  0  0
    2.1679   -2.1904    0.0000 C   0  0  0  0  0  0  0  0  0  0  0  0
    3.3493   -1.2661    0.0000 C   0  0  0  0  0  0  0  0  0  0  0  0
    4.7404   -1.8270    0.0000 C   0  0  0  0  0  0  0  0  0  0  0  0
    4.9502   -3.3123    0.0000 O   0  0  0  0  0  0  0  0  0  0  0  0
    5.9218   -0.9027    0.0000 C   0  0  0  0  0  0  0  0  0  0  0  0
    5.7120    0.5826    0.0000 C   0  0  0  0  0  0  0  0  0  0  0  0
    6.8934    1.5069    0.0000 C   0  0  0  0  0  0  0  0  0  0  0  0
    6.6836    2.9921    0.0000 C   0  0  0  0  0  0  0  0  0  0  0  0
    7.8649    3.9165    0.0000 O   0  0  0  0  0  0  0  0  0  0  0  0
    5.2924    3.5531    0.0000 C   0  0  0  0  0  0  0  0  0  0  0  0
    4.1110    2.6287    0.0000 C   0  0  0  0  0  0  0  0  0  0  0  0
    4.3208    1.1435    0.0000 C   0  0  0  0  0  0  0  0  0  0  0  0
    2.9297    1.7044    0.0000 C   0  0  0  0  0  0  0  0  0  0  0  0
    3.1395    0.2192    0.0000 C   0  0  0  0  0  0  0  0  0  0  0  0
    1.7483    0.7801    0.0000 C   0  0  0  0  0  0  0  0  0  0  0  0
    0.5669   -0.1442    0.0000 C   0  0  0  0  0  0  0  0  0  0  0  0
    0.7767   -1.6295    0.0000 C   0  0  0  0  0  0  0  0  0  0  0  0
   -0.6655   -1.2170    0.0000 C   0  0  0  0  0  0  0  0  0  0  0  0
  2  1  1  6
  2  3  1  0
  3  4  1  0
  4  5  1  0
  5  6  2  0
  5  7  1  0
  7  8  1  0
  8  9  1  0
  9 10  1  0
 10 11  1  0
 11 12  1  1
 12 13  2  0
 12 14  1  0
  2 15  1  0
 15 16  1  6
 16 17  1  0
 18 17  1  6
 18 19  1  0
 19 20  1  1
 20 21  1  1
 20 22  1  0
 23 22  1  1
 23 24  1  0
 24 25  1  0
 25 26  2  0
 25 27  1  0
 27 28  1  0
 28 29  1  0
 29 30  1  6
 29 31  1  0
 31 32  1  6
 32 33  1  0
 33 34  1  0
 34 35  1  6
 11  7  1  0
 34 15  1  0
 34 18  1  0
 31 19  1  0
 29 23  1  0
M  END
>  <MS_ID>  (1673) 
MS1738

>  <SMILES>  (1673) 
C[C@H](CCC(=O)N1CCC[C@H]1C(=O)O)[C@H]1CC[C@H]2[C@@H]3[C@H](O)C[C@@H]4CC(=O)CC[C@]4(C)[C@H]3CC[C@]12C

>  <Structure_dimension>  (1673) 
2D

$$$$
MS1739
     RDKit          2D

 30 33  0  0  0  0  0  0  0  0999 V2000
   -5.0361   -2.2421    0.0000 C   0  0  0  0  0  0  0  0  0  0  0  0
   -3.9151   -1.2454    0.0000 C   0  0  0  0  0  0  0  0  0  0  0  0
   -4.2177    0.2237    0.0000 C   0  0  0  0  0  0  0  0  0  0  0  0
   -5.6413    0.6963    0.0000 C   0  0  0  0  0  0  0  0  0  0  0  0
   -5.9439    2.1654    0.0000 C   0  0  0  0  0  0  0  0  0  0  0  0
   -4.8228    3.1621    0.0000 O   0  0  0  0  0  0  0  0  0  0  0  0
   -7.3675    2.6380    0.0000 O   0  0  0  0  0  0  0  0  0  0  0  0
   -2.4915   -1.7180    0.0000 C   0  0  0  0  0  0  0  0  0  0  0  0
   -2.0370   -3.1475    0.0000 C   0  0  0  0  0  0  0  0  0  0  0  0
   -0.5370   -3.1570    0.0000 C   0  0  0  0  0  0  0  0  0  0  0  0
   -0.0645   -1.7333    0.0000 C   0  0  0  0  0  0  0  0  0  0  0  0
    1.3097   -1.1319    0.0000 C   0  0  0  0  0  0  0  0  0  0  0  0
    2.5176   -2.0213    0.0000 C   0  0  0  0  0  0  0  0  0  0  0  0
    2.3514   -3.5120    0.0000 C   0  0  0  0  0  0  0  0  0  0  0  0
    3.5593   -4.4014    0.0000 O   0  0  0  0  0  0  0  0  0  0  0  0
    3.8918   -1.4198    0.0000 C   0  0  0  0  0  0  0  0  0  0  0  0
    4.0580    0.0709    0.0000 C   0  0  0  0  0  0  0  0  0  0  0  0
    5.4321    0.6723    0.0000 C   0  0  0  0  0  0  0  0  0  0  0  0
    5.5984    2.1631    0.0000 C   0  0  0  0  0  0  0  0  0  0  0  0
    6.9725    2.7645    0.0000 O   0  0  0  0  0  0  0  0  0  0  0  0
    4.3904    3.0524    0.0000 C   0  0  0  0  0  0  0  0  0  0  0  0
    3.0163    2.4510    0.0000 C   0  0  0  0  0  0  0  0  0  0  0  0
    2.8501    0.9603    0.0000 C   0  0  0  0  0  0  0  0  0  0  0  0
    1.6421    1.8496    0.0000 C   0  0  0  0  0  0  0  0  0  0  0  0
    1.4759    0.3588    0.0000 C   0  0  0  0  0  0  0  0  0  0  0  0
    0.2680    1.2482    0.0000 C   0  0  0  0  0  0  0  0  0  0  0  0
   -1.1062    0.6468    0.0000 C   0  0  0  0  0  0  0  0  0  0  0  0
   -2.3141    1.5361    0.0000 O   0  0  0  0  0  0  0  0  0  0  0  0
   -1.2724   -0.8440    0.0000 C   0  0  0  0  0  0  0  0  0  0  0  0
   -2.5667   -0.0858    0.0000 C   0  0  0  0  0  0  0  0  0  0  0  0
  2  1  1  6
  2  3  1  0
  3  4  1  0
  4  5  1  0
  5  6  2  0
  5  7  1  0
  2  8  1  0
  8  9  1  6
  9 10  1  0
 11 10  1  6
 11 12  1  0
 12 13  1  1
 13 14  2  0
 14 15  1  0
 13 16  1  0
 17 16  1  1
 17 18  1  0
 18 19  1  0
 19 20  1  1
 19 21  1  0
 21 22  1  0
 22 23  1  0
 23 24  1  6
 23 25  1  0
 25 26  1  6
 26 27  1  0
 27 28  1  1
 27 29  1  0
 29 30  1  6
 29  8  1  0
 29 11  1  0
 25 12  1  0
 23 17  1  0
M  END
>  <MS_ID>  (1674) 
MS1739

>  <SMILES>  (1674) 
C[C@H](CCC(=O)O)[C@H]1CC[C@H]2[C@@H]3/C(=C/O)C[C@@H]4C[C@H](O)CC[C@]4(C)[C@H]3C[C@H](O)[C@]12C

>  <Structure_dimension>  (1674) 
2D

$$$$
MS1740
     RDKit          2D

 35 39  0  0  0  0  0  0  0  0999 V2000
   -2.4249   -4.3282    0.0000 C   0  0  0  0  0  0  0  0  0  0  0  0
   -1.7208   -3.0038    0.0000 C   0  0  0  0  0  0  0  0  0  0  0  0
   -2.5157   -1.7317    0.0000 C   0  0  0  0  0  0  0  0  0  0  0  0
   -4.0147   -1.7841    0.0000 C   0  0  0  0  0  0  0  0  0  0  0  0
   -4.8097   -0.5121    0.0000 C   0  0  0  0  0  0  0  0  0  0  0  0
   -4.1055    0.8124    0.0000 O   0  0  0  0  0  0  0  0  0  0  0  0
   -6.3087   -0.5645    0.0000 O   0  0  0  0  0  0  0  0  0  0  0  0
   -7.1037    0.7076    0.0000 C   0  0  0  0  0  0  0  0  0  0  0  0
   -6.3995    2.0320    0.0000 C   0  0  0  0  0  0  0  0  0  0  0  0
   -7.1944    3.3041    0.0000 C   0  0  0  0  0  0  0  0  0  0  0  0
   -8.6935    3.2517    0.0000 C   0  0  0  0  0  0  0  0  0  0  0  0
   -9.3977    1.9272    0.0000 C   0  0  0  0  0  0  0  0  0  0  0  0
   -8.6027    0.6552    0.0000 C   0  0  0  0  0  0  0  0  0  0  0  0
   -0.2217   -2.9514    0.0000 C   0  0  0  0  0  0  0  0  0  0  0  0
    0.7019   -4.1334    0.0000 C   0  0  0  0  0  0  0  0  0  0  0  0
    2.1114   -3.6203    0.0000 C   0  0  0  0  0  0  0  0  0  0  0  0
    2.0590   -2.1213    0.0000 C   0  0  0  0  0  0  0  0  0  0  0  0
    3.1380   -1.0792    0.0000 C   0  0  0  0  0  0  0  0  0  0  0  0
    4.5799   -1.4927    0.0000 C   0  0  0  0  0  0  0  0  0  0  0  0
    4.9428   -2.9481    0.0000 O   0  0  0  0  0  0  0  0  0  0  0  0
    5.6589   -0.4506    0.0000 C   0  0  0  0  0  0  0  0  0  0  0  0
    7.1008   -0.8641    0.0000 O   0  0  0  0  0  0  0  0  0  0  0  0
    5.2959    1.0048    0.0000 C   0  0  0  0  0  0  0  0  0  0  0  0
    6.3749    2.0468    0.0000 C   0  0  0  0  0  0  0  0  0  0  0  0
    6.0120    3.5022    0.0000 C   0  0  0  0  0  0  0  0  0  0  0  0
    7.0910    4.5443    0.0000 O   0  0  0  0  0  0  0  0  0  0  0  0
    4.5701    3.9157    0.0000 C   0  0  0  0  0  0  0  0  0  0  0  0
    3.4911    2.8736    0.0000 C   0  0  0  0  0  0  0  0  0  0  0  0
    3.8540    1.4182    0.0000 C   0  0  0  0  0  0  0  0  0  0  0  0
    2.4121    1.8316    0.0000 C   0  0  0  0  0  0  0  0  0  0  0  0
    2.7751    0.3762    0.0000 C   0  0  0  0  0  0  0  0  0  0  0  0
    1.3332    0.7896    0.0000 C   0  0  0  0  0  0  0  0  0  0  0  0
    0.2542   -0.2524    0.0000 C   0  0  0  0  0  0  0  0  0  0  0  0
    0.6171   -1.7078    0.0000 C   0  0  0  0  0  0  0  0  0  0  0  0
   -0.8601   -1.4474    0.0000 C   0  0  0  0  0  0  0  0  0  0  0  0
  2  1  1  6
  2  3  1  0
  3  4  1  0
  4  5  1  0
  5  6  2  0
  5  7  1  0
  7  8  1  0
  8  9  1  0
  9 10  1  0
 10 11  1  0
 11 12  1  0
 12 13  1  0
  2 14  1  0
 14 15  1  6
 15 16  1  0
 17 16  1  6
 17 18  1  0
 18 19  1  1
 19 20  1  1
 19 21  1  0
 21 22  1  1
 21 23  1  0
 23 24  1  1
 24 25  1  0
 25 26  1  1
 25 27  1  0
 27 28  1  0
 28 29  1  0
 29 30  1  6
 29 31  1  0
 31 32  1  6
 32 33  1  0
 33 34  1  0
 34 35  1  6
 13  8  1  0
 34 14  1  0
 34 17  1  0
 31 18  1  0
 29 23  1  0
M  END
>  <MS_ID>  (1675) 
MS1740

>  <SMILES>  (1675) 
C[C@H](CCC(=O)OC1CCCCC1)[C@H]1CC[C@H]2[C@@H]3[C@H](O)[C@H](O)[C@@H]4C[C@H](O)CC[C@]4(C)[C@H]3CC[C@]12C

>  <Structure_dimension>  (1675) 
2D

$$$$
MS1741
     RDKit          2D

 31 34  0  0  0  0  0  0  0  0999 V2000
   -3.0989   -3.6972    0.0000 C   0  0  0  0  0  0  0  0  0  0  0  0
   -2.1883   -2.5051    0.0000 C   0  0  0  0  0  0  0  0  0  0  0  0
   -2.7654   -1.1206    0.0000 C   0  0  0  0  0  0  0  0  0  0  0  0
   -4.2530   -0.9280    0.0000 C   0  0  0  0  0  0  0  0  0  0  0  0
   -4.8300    0.4565    0.0000 C   0  0  0  0  0  0  0  0  0  0  0  0
   -3.9195    1.6486    0.0000 O   0  0  0  0  0  0  0  0  0  0  0  0
   -6.3176    0.6491    0.0000 O   0  0  0  0  0  0  0  0  0  0  0  0
   -6.8947    2.0336    0.0000 C   0  0  0  0  0  0  0  0  0  0  0  0
   -8.3823    2.2261    0.0000 C   0  0  0  0  0  0  0  0  0  0  0  0
   -9.2928    1.0341    0.0000 O   0  0  0  0  0  0  0  0  0  0  0  0
   -8.9593    3.6107    0.0000 O   0  0  0  0  0  0  0  0  0  0  0  0
   -0.7007   -2.6977    0.0000 C   0  0  0  0  0  0  0  0  0  0  0  0
    0.0179   -4.0143    0.0000 C   0  0  0  0  0  0  0  0  0  0  0  0
    1.4922   -3.7377    0.0000 C   0  0  0  0  0  0  0  0  0  0  0  0
    1.6847   -2.2501    0.0000 C   0  0  0  0  0  0  0  0  0  0  0  0
    2.9190   -1.3978    0.0000 C   0  0  0  0  0  0  0  0  0  0  0  0
    4.2743   -2.0406    0.0000 C   0  0  0  0  0  0  0  0  0  0  0  0
    5.5086   -1.1883    0.0000 C   0  0  0  0  0  0  0  0  0  0  0  0
    5.3877    0.3068    0.0000 C   0  0  0  0  0  0  0  0  0  0  0  0
    6.6220    1.1591    0.0000 C   0  0  0  0  0  0  0  0  0  0  0  0
    6.5010    2.6542    0.0000 C   0  0  0  0  0  0  0  0  0  0  0  0
    7.7354    3.5066    0.0000 O   0  0  0  0  0  0  0  0  0  0  0  0
    5.1457    3.2970    0.0000 C   0  0  0  0  0  0  0  0  0  0  0  0
    3.9114    2.4447    0.0000 C   0  0  0  0  0  0  0  0  0  0  0  0
    4.0324    0.9496    0.0000 C   0  0  0  0  0  0  0  0  0  0  0  0
    2.6771    1.5924    0.0000 C   0  0  0  0  0  0  0  0  0  0  0  0
    2.7981    0.0973    0.0000 C   0  0  0  0  0  0  0  0  0  0  0  0
    1.4428    0.7401    0.0000 C   0  0  0  0  0  0  0  0  0  0  0  0
    0.2084   -0.1122    0.0000 C   0  0  0  0  0  0  0  0  0  0  0  0
    0.3294   -1.6073    0.0000 C   0  0  0  0  0  0  0  0  0  0  0  0
   -1.0856   -1.1097    0.0000 C   0  0  0  0  0  0  0  0  0  0  0  0
  2  1  1  6
  2  3  1  0
  3  4  1  0
  4  5  1  0
  5  6  2  0
  5  7  1  0
  7  8  1  0
  8  9  1  0
  9 10  2  0
  9 11  1  0
  2 12  1  0
 12 13  1  6
 13 14  1  0
 15 14  1  6
 15 16  1  0
 16 17  1  1
 17 18  1  0
 19 18  1  1
 19 20  1  0
 20 21  1  0
 21 22  1  1
 21 23  1  0
 23 24  1  0
 24 25  1  0
 25 26  1  6
 25 27  1  0
 27 28  1  6
 28 29  1  0
 29 30  1  0
 30 31  1  6
 30 12  1  0
 30 15  1  0
 27 16  1  0
 25 19  1  0
M  END
>  <MS_ID>  (1676) 
MS1741

>  <SMILES>  (1676) 
C[C@H](CCC(=O)OCC(=O)O)[C@H]1CC[C@H]2[C@@H]3CC[C@@H]4C[C@H](O)CC[C@]4(C)[C@H]3CC[C@]12C

>  <Structure_dimension>  (1676) 
2D

$$$$
MS1742
     RDKit          2D

 33 36  0  0  0  0  0  0  0  0999 V2000
   -2.4330   -4.1943    0.0000 C   0  0  0  0  0  0  0  0  0  0  0  0
   -1.6305   -2.9271    0.0000 C   0  0  0  0  0  0  0  0  0  0  0  0
   -2.3267   -1.5984    0.0000 C   0  0  0  0  0  0  0  0  0  0  0  0
   -3.8255   -1.5370    0.0000 C   0  0  0  0  0  0  0  0  0  0  0  0
   -4.5217   -0.2084    0.0000 C   0  0  0  0  0  0  0  0  0  0  0  0
   -3.7192    1.0589    0.0000 O   0  0  0  0  0  0  0  0  0  0  0  0
   -6.0204   -0.1470    0.0000 N   0  0  0  0  0  0  0  0  0  0  0  0
   -6.7166    1.1816    0.0000 S   0  0  0  0  0  0  0  0  0  0  0  0
   -8.0453    0.4854    0.0000 O   0  0  0  0  0  0  0  0  0  0  0  0
   -5.3880    1.8778    0.0000 O   0  0  0  0  0  0  0  0  0  0  0  0
   -7.4129    2.5103    0.0000 N   0  0  0  0  0  0  0  0  0  0  0  0
   -6.6103    3.7775    0.0000 C   0  0  0  0  0  0  0  0  0  0  0  0
   -8.9116    2.5717    0.0000 C   0  0  0  0  0  0  0  0  0  0  0  0
   -0.1318   -2.9884    0.0000 C   0  0  0  0  0  0  0  0  0  0  0  0
    0.6995   -4.2370    0.0000 C   0  0  0  0  0  0  0  0  0  0  0  0
    2.1439   -3.8323    0.0000 C   0  0  0  0  0  0  0  0  0  0  0  0
    2.2052   -2.3335    0.0000 C   0  0  0  0  0  0  0  0  0  0  0  0
    3.3601   -1.3763    0.0000 C   0  0  0  0  0  0  0  0  0  0  0  0
    4.7665   -1.8978    0.0000 C   0  0  0  0  0  0  0  0  0  0  0  0
    5.9214   -0.9406    0.0000 C   0  0  0  0  0  0  0  0  0  0  0  0
    5.6698    0.5382    0.0000 C   0  0  0  0  0  0  0  0  0  0  0  0
    6.8247    1.4954    0.0000 C   0  0  0  0  0  0  0  0  0  0  0  0
    6.5731    2.9742    0.0000 C   0  0  0  0  0  0  0  0  0  0  0  0
    7.7280    3.9314    0.0000 O   0  0  0  0  0  0  0  0  0  0  0  0
    5.1667    3.4957    0.0000 C   0  0  0  0  0  0  0  0  0  0  0  0
    4.0118    2.5385    0.0000 C   0  0  0  0  0  0  0  0  0  0  0  0
    4.2634    1.0597    0.0000 C   0  0  0  0  0  0  0  0  0  0  0  0
    2.8570    1.5812    0.0000 C   0  0  0  0  0  0  0  0  0  0  0  0
    3.1085    0.1025    0.0000 C   0  0  0  0  0  0  0  0  0  0  0  0
    1.7021    0.6240    0.0000 C   0  0  0  0  0  0  0  0  0  0  0  0
    0.5473   -0.3333    0.0000 C   0  0  0  0  0  0  0  0  0  0  0  0
    0.7988   -1.8120    0.0000 C   0  0  0  0  0  0  0  0  0  0  0  0
   -0.6544   -1.4404    0.0000 C   0  0  0  0  0  0  0  0  0  0  0  0
  2  1  1  6
  2  3  1  0
  3  4  1  0
  4  5  1  0
  5  6  2  0
  5  7  1  0
  7  8  1  0
  8  9  2  0
  8 10  2  0
  8 11  1  0
 11 12  1  0
 11 13  1  0
  2 14  1  0
 14 15  1  6
 15 16  1  0
 17 16  1  6
 17 18  1  0
 18 19  1  1
 19 20  1  0
 21 20  1  1
 21 22  1  0
 22 23  1  0
 23 24  1  1
 23 25  1  0
 25 26  1  0
 26 27  1  0
 27 28  1  6
 27 29  1  0
 29 30  1  6
 30 31  1  0
 31 32  1  0
 32 33  1  6
 32 14  1  0
 32 17  1  0
 29 18  1  0
 27 21  1  0
M  END
>  <MS_ID>  (1677) 
MS1742

>  <SMILES>  (1677) 
C[C@H](CCC(=O)NS(=O)(=O)N(C)C)[C@H]1CC[C@H]2[C@@H]3CC[C@@H]4C[C@H](O)CC[C@]4(C)[C@H]3CC[C@]12C

>  <Structure_dimension>  (1677) 
2D

$$$$
MS1743
     RDKit          2D

 32 35  0  0  0  0  0  0  0  0999 V2000
  -10.5534    3.1554    0.0000 C   0  0  0  0  0  0  0  0  0  0  0  0
   -9.0579    3.0406    0.0000 C   0  0  0  0  0  0  0  0  0  0  0  0
   -8.4096    1.6879    0.0000 C   0  0  0  0  0  0  0  0  0  0  0  0
   -6.9140    1.5730    0.0000 C   0  0  0  0  0  0  0  0  0  0  0  0
   -6.2657    0.2203    0.0000 O   0  0  0  0  0  0  0  0  0  0  0  0
   -4.7701    0.1054    0.0000 C   0  0  0  0  0  0  0  0  0  0  0  0
   -3.9228    1.3432    0.0000 O   0  0  0  0  0  0  0  0  0  0  0  0
   -4.1218   -1.2472    0.0000 C   0  0  0  0  0  0  0  0  0  0  0  0
   -2.6262   -1.3621    0.0000 C   0  0  0  0  0  0  0  0  0  0  0  0
   -1.9779   -2.7148    0.0000 C   0  0  0  0  0  0  0  0  0  0  0  0
   -2.8252   -3.9526    0.0000 C   0  0  0  0  0  0  0  0  0  0  0  0
   -0.4823   -2.8297    0.0000 C   0  0  0  0  0  0  0  0  0  0  0  0
    0.3038   -4.1072    0.0000 C   0  0  0  0  0  0  0  0  0  0  0  0
    1.7617   -3.7543    0.0000 C   0  0  0  0  0  0  0  0  0  0  0  0
    1.8766   -2.2587    0.0000 C   0  0  0  0  0  0  0  0  0  0  0  0
    3.0650   -1.3433    0.0000 C   0  0  0  0  0  0  0  0  0  0  0  0
    4.4518   -1.9148    0.0000 C   0  0  0  0  0  0  0  0  0  0  0  0
    5.6402   -0.9994    0.0000 C   0  0  0  0  0  0  0  0  0  0  0  0
    5.4416    0.4874    0.0000 C   0  0  0  0  0  0  0  0  0  0  0  0
    6.6299    1.4028    0.0000 C   0  0  0  0  0  0  0  0  0  0  0  0
    6.4313    2.8896    0.0000 C   0  0  0  0  0  0  0  0  0  0  0  0
    7.6197    3.8049    0.0000 O   0  0  0  0  0  0  0  0  0  0  0  0
    5.0445    3.4610    0.0000 C   0  0  0  0  0  0  0  0  0  0  0  0
    3.8561    2.5456    0.0000 C   0  0  0  0  0  0  0  0  0  0  0  0
    4.0547    1.0588    0.0000 C   0  0  0  0  0  0  0  0  0  0  0  0
    2.6678    1.6303    0.0000 C   0  0  0  0  0  0  0  0  0  0  0  0
    2.8664    0.1435    0.0000 C   0  0  0  0  0  0  0  0  0  0  0  0
    1.4795    0.7149    0.0000 C   0  0  0  0  0  0  0  0  0  0  0  0
    0.2912   -0.2005    0.0000 C   0  0  0  0  0  0  0  0  0  0  0  0
   -1.0957    0.3710    0.0000 O   0  0  0  0  0  0  0  0  0  0  0  0
    0.4897   -1.6873    0.0000 C   0  0  0  0  0  0  0  0  0  0  0  0
   -0.9493   -1.2639    0.0000 C   0  0  0  0  0  0  0  0  0  0  0  0
  1  2  1  0
  2  3  1  0
  3  4  1  0
  4  5  1  0
  5  6  1  0
  6  7  2  0
  6  8  1  0
  8  9  1  0
  9 10  1  0
 10 11  1  6
 10 12  1  0
 12 13  1  6
 13 14  1  0
 15 14  1  6
 15 16  1  0
 16 17  1  1
 17 18  1  0
 19 18  1  1
 19 20  1  0
 20 21  1  0
 21 22  1  6
 21 23  1  0
 23 24  1  0
 24 25  1  0
 25 26  1  6
 25 27  1  0
 27 28  1  6
 28 29  1  0
 29 30  1  6
 29 31  1  0
 31 32  1  6
 31 12  1  0
 31 15  1  0
 27 16  1  0
 25 19  1  0
M  END
>  <MS_ID>  (1678) 
MS1743

>  <SMILES>  (1678) 
CCCCOC(=O)CC[C@@H](C)[C@H]1CC[C@H]2[C@@H]3CC[C@@H]4C[C@@H](O)CC[C@]4(C)[C@H]3C[C@@H](O)[C@]12C

>  <Structure_dimension>  (1678) 
2D

$$$$
MS1744
     RDKit          2D

 30 33  0  0  0  0  0  0  0  0999 V2000
   -5.0361   -2.2421    0.0000 C   0  0  0  0  0  0  0  0  0  0  0  0
   -3.9151   -1.2454    0.0000 C   0  0  0  0  0  0  0  0  0  0  0  0
   -4.2177    0.2237    0.0000 C   0  0  0  0  0  0  0  0  0  0  0  0
   -5.6413    0.6963    0.0000 C   0  0  0  0  0  0  0  0  0  0  0  0
   -5.9439    2.1654    0.0000 C   0  0  0  0  0  0  0  0  0  0  0  0
   -4.8228    3.1621    0.0000 O   0  0  0  0  0  0  0  0  0  0  0  0
   -7.3675    2.6380    0.0000 O   0  0  0  0  0  0  0  0  0  0  0  0
   -2.4915   -1.7180    0.0000 C   0  0  0  0  0  0  0  0  0  0  0  0
   -2.0370   -3.1475    0.0000 C   0  0  0  0  0  0  0  0  0  0  0  0
   -0.5370   -3.1570    0.0000 C   0  0  0  0  0  0  0  0  0  0  0  0
   -0.0645   -1.7333    0.0000 C   0  0  0  0  0  0  0  0  0  0  0  0
    1.3097   -1.1319    0.0000 C   0  0  0  0  0  0  0  0  0  0  0  0
    2.5176   -2.0213    0.0000 C   0  0  0  0  0  0  0  0  0  0  0  0
    2.3514   -3.5120    0.0000 S   0  0  0  0  0  0  0  0  0  0  0  0
    3.5593   -4.4014    0.0000 O   0  0  0  0  0  0  0  0  0  0  0  0
    3.8918   -1.4198    0.0000 C   0  0  0  0  0  0  0  0  0  0  0  0
    4.0580    0.0709    0.0000 C   0  0  0  0  0  0  0  0  0  0  0  0
    5.4321    0.6723    0.0000 C   0  0  0  0  0  0  0  0  0  0  0  0
    5.5984    2.1631    0.0000 C   0  0  0  0  0  0  0  0  0  0  0  0
    6.9725    2.7645    0.0000 O   0  0  0  0  0  0  0  0  0  0  0  0
    4.3904    3.0524    0.0000 C   0  0  0  0  0  0  0  0  0  0  0  0
    3.0163    2.4510    0.0000 C   0  0  0  0  0  0  0  0  0  0  0  0
    2.8501    0.9603    0.0000 C   0  0  0  0  0  0  0  0  0  0  0  0
    1.6421    1.8496    0.0000 C   0  0  0  0  0  0  0  0  0  0  0  0
    1.4759    0.3588    0.0000 C   0  0  0  0  0  0  0  0  0  0  0  0
    0.2680    1.2482    0.0000 C   0  0  0  0  0  0  0  0  0  0  0  0
   -1.1062    0.6468    0.0000 C   0  0  0  0  0  0  0  0  0  0  0  0
   -2.3141    1.5361    0.0000 O   0  0  0  0  0  0  0  0  0  0  0  0
   -1.2724   -0.8440    0.0000 C   0  0  0  0  0  0  0  0  0  0  0  0
   -2.5667   -0.0858    0.0000 C   0  0  0  0  0  0  0  0  0  0  0  0
  2  1  1  6
  2  3  1  0
  3  4  1  0
  4  5  1  0
  5  6  2  0
  5  7  1  0
  2  8  1  0
  8  9  1  6
  9 10  1  0
 11 10  1  6
 11 12  1  0
 12 13  1  1
 13 14  1  6
 14 15  1  0
 13 16  1  0
 17 16  1  1
 17 18  1  0
 18 19  1  0
 19 20  1  1
 19 21  1  0
 21 22  1  0
 22 23  1  0
 23 24  1  6
 23 25  1  0
 25 26  1  6
 26 27  1  0
 27 28  1  1
 27 29  1  0
 29 30  1  6
 29  8  1  0
 29 11  1  0
 25 12  1  0
 23 17  1  0
M  END
>  <MS_ID>  (1679) 
MS1744

>  <SMILES>  (1679) 
C[C@H](CCC(=O)O)[C@H]1CC[C@H]2[C@@H]3[C@@H](SO)C[C@@H]4C[C@H](O)CC[C@]4(C)[C@H]3C[C@H](O)[C@]12C

>  <Structure_dimension>  (1679) 
2D

$$$$
MS1745
     RDKit          2D

 29 32  0  0  0  0  0  0  0  0999 V2000
   -5.0303   -2.1373    0.0000 C   0  0  0  0  0  0  0  0  0  0  0  0
   -3.8594   -1.1998    0.0000 C   0  0  0  0  0  0  0  0  0  0  0  0
   -4.0858    0.2830    0.0000 C   0  0  0  0  0  0  0  0  0  0  0  0
   -5.4831    0.8284    0.0000 C   0  0  0  0  0  0  0  0  0  0  0  0
   -5.7095    2.3112    0.0000 C   0  0  0  0  0  0  0  0  0  0  0  0
   -4.5386    3.2487    0.0000 O   0  0  0  0  0  0  0  0  0  0  0  0
   -7.1069    2.8565    0.0000 O   0  0  0  0  0  0  0  0  0  0  0  0
   -2.4620   -1.7451    0.0000 C   0  0  0  0  0  0  0  0  0  0  0  0
   -2.0818   -3.1961    0.0000 C   0  0  0  0  0  0  0  0  0  0  0  0
   -0.5844   -3.2830    0.0000 C   0  0  0  0  0  0  0  0  0  0  0  0
   -0.0390   -1.8856    0.0000 C   0  0  0  0  0  0  0  0  0  0  0  0
    1.3643   -1.3559    0.0000 C   0  0  0  0  0  0  0  0  0  0  0  0
    2.5248   -2.3063    0.0000 C   0  0  0  0  0  0  0  0  0  0  0  0
    2.2819   -3.7865    0.0000 O   0  0  0  0  0  0  0  0  0  0  0  0
    3.9281   -1.7765    0.0000 C   0  0  0  0  0  0  0  0  0  0  0  0
    4.1710   -0.2963    0.0000 C   0  0  0  0  0  0  0  0  0  0  0  0
    5.5743    0.2334    0.0000 C   0  0  0  0  0  0  0  0  0  0  0  0
    5.8172    1.7136    0.0000 C   0  0  0  0  0  0  0  0  0  0  0  0
    7.2205    2.2434    0.0000 F   0  0  0  0  0  0  0  0  0  0  0  0
    4.6568    2.6641    0.0000 C   0  0  0  0  0  0  0  0  0  0  0  0
    3.2534    2.1343    0.0000 C   0  0  0  0  0  0  0  0  0  0  0  0
    3.0105    0.6541    0.0000 C   0  0  0  0  0  0  0  0  0  0  0  0
    1.8501    1.6046    0.0000 C   0  0  0  0  0  0  0  0  0  0  0  0
    1.6072    0.1244    0.0000 C   0  0  0  0  0  0  0  0  0  0  0  0
    0.4467    1.0748    0.0000 C   0  0  0  0  0  0  0  0  0  0  0  0
   -0.9566    0.5450    0.0000 C   0  0  0  0  0  0  0  0  0  0  0  0
   -2.1170    1.4955    0.0000 O   0  0  0  0  0  0  0  0  0  0  0  0
   -1.1995   -0.9352    0.0000 C   0  0  0  0  0  0  0  0  0  0  0  0
   -2.4529   -0.1112    0.0000 C   0  0  0  0  0  0  0  0  0  0  0  0
  2  1  1  6
  2  3  1  0
  3  4  1  0
  4  5  1  0
  5  6  2  0
  5  7  1  0
  2  8  1  0
  8  9  1  6
  9 10  1  0
 11 10  1  6
 11 12  1  0
 12 13  1  1
 13 14  2  0
 13 15  1  0
 16 15  1  1
 16 17  1  0
 17 18  1  0
 18 19  1  1
 18 20  1  0
 20 21  1  0
 21 22  1  0
 22 23  1  6
 22 24  1  0
 24 25  1  6
 25 26  1  0
 26 27  1  1
 26 28  1  0
 28 29  1  6
 28  8  1  0
 28 11  1  0
 24 12  1  0
 22 16  1  0
M  END
>  <MS_ID>  (1680) 
MS1745

>  <SMILES>  (1680) 
C[C@H](CCC(=O)O)[C@H]1CC[C@H]2[C@@H]3C(=O)C[C@@H]4C[C@H](F)CC[C@]4(C)[C@H]3C[C@H](O)[C@]12C

>  <Structure_dimension>  (1680) 
2D

$$$$
MS1746
     RDKit          2D

 28 31  0  0  0  0  0  0  0  0999 V2000
   -5.1275   -2.0302    0.0000 C   0  0  0  0  0  0  0  0  0  0  0  0
   -3.9468   -1.1050    0.0000 C   0  0  0  0  0  0  0  0  0  0  0  0
   -4.1576    0.3801    0.0000 C   0  0  0  0  0  0  0  0  0  0  0  0
   -5.5492    0.9401    0.0000 C   0  0  0  0  0  0  0  0  0  0  0  0
   -5.7600    2.4252    0.0000 C   0  0  0  0  0  0  0  0  0  0  0  0
   -7.1516    2.9851    0.0000 O   0  0  0  0  0  0  0  0  0  0  0  0
   -4.5793    3.3503    0.0000 Br  0  0  0  0  0  0  0  0  0  0  0  0
   -2.5552   -1.6650    0.0000 C   0  0  0  0  0  0  0  0  0  0  0  0
   -2.1903   -3.1199    0.0000 C   0  0  0  0  0  0  0  0  0  0  0  0
   -0.6938   -3.2225    0.0000 C   0  0  0  0  0  0  0  0  0  0  0  0
   -0.1339   -1.8309    0.0000 C   0  0  0  0  0  0  0  0  0  0  0  0
    1.2750   -1.3159    0.0000 C   0  0  0  0  0  0  0  0  0  0  0  0
    2.4254   -2.2785    0.0000 C   0  0  0  0  0  0  0  0  0  0  0  0
    2.1670   -3.7560    0.0000 O   0  0  0  0  0  0  0  0  0  0  0  0
    3.8342   -1.7635    0.0000 C   0  0  0  0  0  0  0  0  0  0  0  0
    4.0926   -0.2859    0.0000 C   0  0  0  0  0  0  0  0  0  0  0  0
    5.5014    0.2291    0.0000 C   0  0  0  0  0  0  0  0  0  0  0  0
    5.7598    1.7067    0.0000 C   0  0  0  0  0  0  0  0  0  0  0  0
    7.1687    2.2217    0.0000 O   0  0  0  0  0  0  0  0  0  0  0  0
    4.6094    2.6692    0.0000 C   0  0  0  0  0  0  0  0  0  0  0  0
    3.2006    2.1542    0.0000 C   0  0  0  0  0  0  0  0  0  0  0  0
    2.9422    0.6767    0.0000 C   0  0  0  0  0  0  0  0  0  0  0  0
    1.7918    1.6392    0.0000 C   0  0  0  0  0  0  0  0  0  0  0  0
    1.5334    0.1617    0.0000 C   0  0  0  0  0  0  0  0  0  0  0  0
    0.3830    1.1242    0.0000 C   0  0  0  0  0  0  0  0  0  0  0  0
   -1.0259    0.6093    0.0000 C   0  0  0  0  0  0  0  0  0  0  0  0
   -1.2843   -0.8683    0.0000 C   0  0  0  0  0  0  0  0  0  0  0  0
   -2.5290   -0.0313    0.0000 C   0  0  0  0  0  0  0  0  0  0  0  0
  2  1  1  6
  2  3  1  0
  3  4  1  0
  4  5  1  0
  5  6  2  0
  5  7  1  0
  2  8  1  0
  8  9  1  6
  9 10  1  0
 11 10  1  6
 11 12  1  0
 12 13  1  1
 13 14  1  1
 13 15  1  0
 16 15  1  1
 16 17  1  0
 17 18  1  0
 18 19  2  0
 18 20  1  0
 20 21  1  0
 21 22  1  0
 22 23  1  6
 22 24  1  0
 24 25  1  6
 25 26  1  0
 26 27  1  0
 27 28  1  6
 27  8  1  0
 27 11  1  0
 24 12  1  0
 22 16  1  0
M  END
>  <MS_ID>  (1681) 
MS1746

>  <SMILES>  (1681) 
C[C@H](CCC(=O)Br)[C@H]1CC[C@H]2[C@@H]3[C@H](O)C[C@@H]4CC(=O)CC[C@]4(C)[C@H]3CC[C@]12C

>  <Structure_dimension>  (1681) 
2D

$$$$
MS1747
     RDKit          2D

 35 38  0  0  0  0  0  0  0  0999 V2000
   -1.1848   -4.5684    0.0000 C   0  0  0  0  0  0  0  0  0  0  0  0
   -0.5815   -3.1951    0.0000 C   0  0  0  0  0  0  0  0  0  0  0  0
   -1.4692   -1.9860    0.0000 C   0  0  0  0  0  0  0  0  0  0  0  0
   -2.9602   -2.1502    0.0000 C   0  0  0  0  0  0  0  0  0  0  0  0
   -3.8478   -0.9410    0.0000 C   0  0  0  0  0  0  0  0  0  0  0  0
   -3.2445    0.4323    0.0000 O   0  0  0  0  0  0  0  0  0  0  0  0
   -5.3388   -1.1052    0.0000 N   0  0  0  0  0  0  0  0  0  0  0  0
   -6.2265    0.1039    0.0000 C   0  0  0  0  0  0  0  0  0  0  0  0
   -7.7175   -0.0603    0.0000 C   0  0  0  0  0  0  0  0  0  0  0  0
   -8.6052    1.1489    0.0000 O   0  0  0  0  0  0  0  0  0  0  0  0
  -10.0962    0.9847    0.0000 C   0  0  0  0  0  0  0  0  0  0  0  0
  -10.9839    2.1938    0.0000 C   0  0  0  0  0  0  0  0  0  0  0  0
  -10.3806    3.5672    0.0000 O   0  0  0  0  0  0  0  0  0  0  0  0
  -12.4748    2.0297    0.0000 O   0  0  0  0  0  0  0  0  0  0  0  0
    0.9095   -3.0309    0.0000 C   0  0  0  0  0  0  0  0  0  0  0  0
    1.9187   -4.1407    0.0000 C   0  0  0  0  0  0  0  0  0  0  0  0
    3.2860   -3.5238    0.0000 C   0  0  0  0  0  0  0  0  0  0  0  0
    3.1218   -2.0328    0.0000 C   0  0  0  0  0  0  0  0  0  0  0  0
    4.1199   -0.9131    0.0000 C   0  0  0  0  0  0  0  0  0  0  0  0
    5.5887   -1.2177    0.0000 C   0  0  0  0  0  0  0  0  0  0  0  0
    6.0593   -2.6420    0.0000 O   0  0  0  0  0  0  0  0  0  0  0  0
    6.5869   -0.0980    0.0000 C   0  0  0  0  0  0  0  0  0  0  0  0
    6.1163    1.3263    0.0000 C   0  0  0  0  0  0  0  0  0  0  0  0
    7.1144    2.4459    0.0000 C   0  0  0  0  0  0  0  0  0  0  0  0
    6.6438    3.8702    0.0000 C   0  0  0  0  0  0  0  0  0  0  0  0
    7.6420    4.9899    0.0000 O   0  0  0  0  0  0  0  0  0  0  0  0
    5.1751    4.1748    0.0000 C   0  0  0  0  0  0  0  0  0  0  0  0
    4.1769    3.0551    0.0000 C   0  0  0  0  0  0  0  0  0  0  0  0
    4.6475    1.6309    0.0000 C   0  0  0  0  0  0  0  0  0  0  0  0
    3.1788    1.9354    0.0000 C   0  0  0  0  0  0  0  0  0  0  0  0
    3.6494    0.5112    0.0000 C   0  0  0  0  0  0  0  0  0  0  0  0
    2.1806    0.8158    0.0000 C   0  0  0  0  0  0  0  0  0  0  0  0
    1.1825   -0.3039    0.0000 C   0  0  0  0  0  0  0  0  0  0  0  0
    1.6530   -1.7282    0.0000 C   0  0  0  0  0  0  0  0  0  0  0  0
    0.1605   -1.5788    0.0000 C   0  0  0  0  0  0  0  0  0  0  0  0
  2  1  1  6
  2  3  1  0
  3  4  1  0
  4  5  1  0
  5  6  2  0
  5  7  1  0
  7  8  1  0
  8  9  1  0
  9 10  1  0
 10 11  1  0
 11 12  1  0
 12 13  2  0
 12 14  1  0
  2 15  1  0
 15 16  1  6
 16 17  1  0
 18 17  1  6
 18 19  1  0
 19 20  1  1
 20 21  1  6
 20 22  1  0
 23 22  1  1
 23 24  1  0
 24 25  1  0
 25 26  1  1
 25 27  1  0
 27 28  1  0
 28 29  1  0
 29 30  1  6
 29 31  1  0
 31 32  1  6
 32 33  1  0
 33 34  1  0
 34 35  1  6
 34 15  1  0
 34 18  1  0
 31 19  1  0
 29 23  1  0
M  END
>  <MS_ID>  (1682) 
MS1747

>  <SMILES>  (1682) 
C[C@H](CCC(=O)NCCOCC(=O)O)[C@H]1CC[C@H]2[C@@H]3[C@@H](O)C[C@@H]4C[C@H](O)CC[C@]4(C)[C@H]3CC[C@]12C

>  <Structure_dimension>  (1682) 
2D

$$$$
MS1748
     RDKit          2D

 34 38  0  0  0  0  0  0  0  0999 V2000
   -2.9126   -3.3211    0.0000 C   0  0  0  0  0  0  0  0  0  0  0  0
   -1.9180   -2.1983    0.0000 C   0  0  0  0  0  0  0  0  0  0  0  0
   -2.3931   -0.7755    0.0000 C   0  0  0  0  0  0  0  0  0  0  0  0
   -3.8629   -0.4756    0.0000 C   0  0  0  0  0  0  0  0  0  0  0  0
   -4.3380    0.9472    0.0000 C   0  0  0  0  0  0  0  0  0  0  0  0
   -3.3434    2.0700    0.0000 O   0  0  0  0  0  0  0  0  0  0  0  0
   -5.8077    1.2471    0.0000 C   0  0  0  0  0  0  0  0  0  0  0  0
   -6.2828    2.6698    0.0000 C   0  0  0  0  0  0  0  0  0  0  0  0
   -7.7525    2.9697    0.0000 C   0  0  0  0  0  0  0  0  0  0  0  0
   -8.7471    1.8469    0.0000 C   0  0  0  0  0  0  0  0  0  0  0  0
   -8.2720    0.4241    0.0000 C   0  0  0  0  0  0  0  0  0  0  0  0
   -6.8023    0.1242    0.0000 C   0  0  0  0  0  0  0  0  0  0  0  0
   -6.3272   -1.2985    0.0000 O   0  0  0  0  0  0  0  0  0  0  0  0
   -0.4483   -2.4982    0.0000 C   0  0  0  0  0  0  0  0  0  0  0  0
    0.1729   -3.8635    0.0000 C   0  0  0  0  0  0  0  0  0  0  0  0
    1.6634   -3.6945    0.0000 C   0  0  0  0  0  0  0  0  0  0  0  0
    1.9633   -2.2248    0.0000 C   0  0  0  0  0  0  0  0  0  0  0  0
    3.2562   -1.4643    0.0000 C   0  0  0  0  0  0  0  0  0  0  0  0
    4.5613   -2.2036    0.0000 C   0  0  0  0  0  0  0  0  0  0  0  0
    5.8542   -1.4431    0.0000 C   0  0  0  0  0  0  0  0  0  0  0  0
    5.8420    0.0569    0.0000 C   0  0  0  0  0  0  0  0  0  0  0  0
    7.1349    0.8174    0.0000 C   0  0  0  0  0  0  0  0  0  0  0  0
    7.1226    2.3174    0.0000 C   0  0  0  0  0  0  0  0  0  0  0  0
    8.4155    3.0779    0.0000 O   0  0  0  0  0  0  0  0  0  0  0  0
    5.8175    3.0568    0.0000 C   0  0  0  0  0  0  0  0  0  0  0  0
    4.5246    2.2962    0.0000 C   0  0  0  0  0  0  0  0  0  0  0  0
    4.5369    0.7963    0.0000 C   0  0  0  0  0  0  0  0  0  0  0  0
    3.2318    1.5356    0.0000 C   0  0  0  0  0  0  0  0  0  0  0  0
    3.2440    0.0357    0.0000 C   0  0  0  0  0  0  0  0  0  0  0  0
    1.9389    0.7751    0.0000 C   0  0  0  0  0  0  0  0  0  0  0  0
    0.6460    0.0145    0.0000 C   0  0  0  0  0  0  0  0  0  0  0  0
   -0.6591    0.7539    0.0000 O   0  0  0  0  0  0  0  0  0  0  0  0
    0.6582   -1.4854    0.0000 C   0  0  0  0  0  0  0  0  0  0  0  0
   -0.7170   -0.8865    0.0000 C   0  0  0  0  0  0  0  0  0  0  0  0
  2  1  1  6
  2  3  1  0
  3  4  1  0
  4  5  1  0
  5  6  2  0
  5  7  1  0
  7  8  2  0
  8  9  1  0
  9 10  2  0
 10 11  1  0
 11 12  2  0
 12 13  1  0
  2 14  1  0
 14 15  1  6
 15 16  1  0
 17 16  1  6
 17 18  1  0
 18 19  1  1
 19 20  1  0
 21 20  1  1
 21 22  1  0
 22 23  1  0
 23 24  1  1
 23 25  1  0
 25 26  1  0
 26 27  1  0
 27 28  1  6
 27 29  1  0
 29 30  1  6
 30 31  1  0
 31 32  1  1
 31 33  1  0
 33 34  1  6
 12  7  1  0
 33 14  1  0
 33 17  1  0
 29 18  1  0
 27 21  1  0
M  END
>  <MS_ID>  (1683) 
MS1748

>  <SMILES>  (1683) 
C[C@H](CCC(=O)c1ccccc1O)[C@H]1CC[C@H]2[C@@H]3CC[C@@H]4C[C@H](O)CC[C@]4(C)[C@H]3C[C@H](O)[C@]12C

>  <Structure_dimension>  (1683) 
2D

$$$$
MS1749
     RDKit          2D

 32 36  0  0  0  0  0  0  0  0999 V2000
   -7.6161   -3.5406    0.0000 C   0  0  0  0  0  0  0  0  0  0  0  0
   -7.2604   -2.0834    0.0000 C   0  0  0  0  0  0  0  0  0  0  0  0
   -8.3446   -1.0468    0.0000 C   0  0  0  0  0  0  0  0  0  0  0  0
   -5.8206   -1.6628    0.0000 C   0  0  0  0  0  0  0  0  0  0  0  0
   -4.7365   -2.6994    0.0000 O   0  0  0  0  0  0  0  0  0  0  0  0
   -5.4650   -0.2056    0.0000 C   0  0  0  0  0  0  0  0  0  0  0  0
   -4.0251    0.2150    0.0000 C   0  0  0  0  0  0  0  0  0  0  0  0
   -3.6695    1.6722    0.0000 C   0  0  0  0  0  0  0  0  0  0  0  0
   -4.7536    2.7089    0.0000 C   0  0  0  0  0  0  0  0  0  0  0  0
   -2.2296    2.0928    0.0000 C   0  0  0  0  0  0  0  0  0  0  0  0
   -1.7236    3.5049    0.0000 C   0  0  0  0  0  0  0  0  0  0  0  0
   -0.2243    3.4600    0.0000 C   0  0  0  0  0  0  0  0  0  0  0  0
    0.1963    2.0202    0.0000 C   0  0  0  0  0  0  0  0  0  0  0  0
    1.3406    2.9900    0.0000 C   0  0  0  0  0  0  0  0  0  0  0  0
    1.5478    1.3693    0.0000 C   0  0  0  0  0  0  0  0  0  0  0  0
    2.7871    2.2143    0.0000 C   0  0  0  0  0  0  0  0  0  0  0  0
    4.1386    1.5634    0.0000 C   0  0  0  0  0  0  0  0  0  0  0  0
    4.2506    0.0676    0.0000 C   0  0  0  0  0  0  0  0  0  0  0  0
    5.6021   -0.5833    0.0000 C   0  0  0  0  0  0  0  0  0  0  0  0
    7.0946   -0.7327    0.0000 C   0  0  0  0  0  0  0  0  0  0  0  0
    6.0084    0.8606    0.0000 C   0  0  0  0  0  0  0  0  0  0  0  0
    5.7141   -2.0791    0.0000 C   0  0  0  0  0  0  0  0  0  0  0  0
    7.0655   -2.7299    0.0000 O   0  0  0  0  0  0  0  0  0  0  0  0
    4.4747   -2.9240    0.0000 C   0  0  0  0  0  0  0  0  0  0  0  0
    3.1233   -2.2732    0.0000 C   0  0  0  0  0  0  0  0  0  0  0  0
    3.0112   -0.7774    0.0000 C   0  0  0  0  0  0  0  0  0  0  0  0
    1.7719   -1.6223    0.0000 C   0  0  0  0  0  0  0  0  0  0  0  0
    1.6598   -0.1265    0.0000 C   0  0  0  0  0  0  0  0  0  0  0  0
    0.4204   -0.9714    0.0000 C   0  0  0  0  0  0  0  0  0  0  0  0
   -0.9310   -0.3206    0.0000 C   0  0  0  0  0  0  0  0  0  0  0  0
   -1.0431    1.1752    0.0000 C   0  0  0  0  0  0  0  0  0  0  0  0
   -2.3640    0.4645    0.0000 C   0  0  0  0  0  0  0  0  0  0  0  0
  1  2  1  0
  2  3  1  0
  2  4  1  0
  4  5  2  0
  4  6  1  0
  6  7  1  0
  7  8  1  0
  8  9  1  1
  8 10  1  0
 10 11  1  1
 11 12  1  0
 12 13  1  0
 13 14  1  6
 13 15  1  0
 15 16  1  6
 16 17  1  0
 18 17  1  1
 18 19  1  0
 19 20  1  0
 19 21  1  0
 19 22  1  0
 22 23  1  1
 22 24  1  0
 24 25  1  0
 26 25  1  6
 26 27  1  0
 28 27  1  1
 28 29  1  0
 29 30  1  0
 30 31  1  0
 31 32  1  1
 31 10  1  0
 31 13  1  0
 28 15  1  0
 26 18  1  0
 28 26  1  0
M  END
>  <MS_ID>  (1684) 
MS1749

>  <SMILES>  (1684) 
CC(C)C(=O)CC[C@@H](C)[C@H]1CC[C@@]2(C)[C@@H]3CC[C@H]4C(C)(C)[C@@H](O)CC[C@@]45C[C@@]35CC[C@]12C

>  <Structure_dimension>  (1684) 
2D

$$$$
MS1750
     RDKit          2D

 31 34  0  0  0  0  0  0  0  0999 V2000
   -4.2495   -2.8115    0.0000 C   0  0  0  0  0  0  0  0  0  0  0  0
   -3.1859   -1.7538    0.0000 C   0  0  0  0  0  0  0  0  0  0  0  0
   -3.5702   -0.3038    0.0000 C   0  0  0  0  0  0  0  0  0  0  0  0
   -5.0180    0.0883    0.0000 C   0  0  0  0  0  0  0  0  0  0  0  0
   -5.4023    1.5383    0.0000 C   0  0  0  0  0  0  0  0  0  0  0  0
   -4.3387    2.5960    0.0000 O   0  0  0  0  0  0  0  0  0  0  0  0
   -6.8501    1.9305    0.0000 C   0  0  0  0  0  0  0  0  0  0  0  0
   -7.2344    3.3804    0.0000 N   0  0  0  0  0  0  0  0  0  0  0  0
   -7.9137    0.8727    0.0000 O   0  0  0  0  0  0  0  0  0  0  0  0
   -1.7381   -2.1460    0.0000 C   0  0  0  0  0  0  0  0  0  0  0  0
   -1.2044   -3.5478    0.0000 C   0  0  0  0  0  0  0  0  0  0  0  0
    0.2938   -3.4734    0.0000 C   0  0  0  0  0  0  0  0  0  0  0  0
    0.6860   -2.0256    0.0000 C   0  0  0  0  0  0  0  0  0  0  0  0
    2.0243   -1.3482    0.0000 C   0  0  0  0  0  0  0  0  0  0  0  0
    3.2801   -2.1686    0.0000 C   0  0  0  0  0  0  0  0  0  0  0  0
    3.1975   -3.6663    0.0000 O   0  0  0  0  0  0  0  0  0  0  0  0
    4.6185   -1.4913    0.0000 C   0  0  0  0  0  0  0  0  0  0  0  0
    4.7010    0.0064    0.0000 C   0  0  0  0  0  0  0  0  0  0  0  0
    6.0394    0.6838    0.0000 C   0  0  0  0  0  0  0  0  0  0  0  0
    6.1220    2.1815    0.0000 C   0  0  0  0  0  0  0  0  0  0  0  0
    7.4604    2.8588    0.0000 O   0  0  0  0  0  0  0  0  0  0  0  0
    4.8662    3.0019    0.0000 C   0  0  0  0  0  0  0  0  0  0  0  0
    3.5279    2.3246    0.0000 C   0  0  0  0  0  0  0  0  0  0  0  0
    3.4453    0.8268    0.0000 C   0  0  0  0  0  0  0  0  0  0  0  0
    2.1895    1.6472    0.0000 C   0  0  0  0  0  0  0  0  0  0  0  0
    2.1069    0.1495    0.0000 C   0  0  0  0  0  0  0  0  0  0  0  0
    0.8511    0.9699    0.0000 C   0  0  0  0  0  0  0  0  0  0  0  0
   -0.4872    0.2925    0.0000 C   0  0  0  0  0  0  0  0  0  0  0  0
   -1.7430    1.1129    0.0000 O   0  0  0  0  0  0  0  0  0  0  0  0
   -0.5698   -1.2052    0.0000 C   0  0  0  0  0  0  0  0  0  0  0  0
   -1.9045   -0.5205    0.0000 C   0  0  0  0  0  0  0  0  0  0  0  0
  2  1  1  6
  2  3  1  0
  3  4  1  0
  4  5  1  0
  5  6  2  0
  5  7  1  0
  7  8  1  0
  7  9  2  0
  2 10  1  0
 10 11  1  6
 11 12  1  0
 13 12  1  6
 13 14  1  0
 14 15  1  1
 15 16  1  1
 15 17  1  0
 18 17  1  1
 18 19  1  0
 19 20  1  0
 20 21  1  1
 20 22  1  0
 22 23  1  0
 23 24  1  0
 24 25  1  6
 24 26  1  0
 26 27  1  6
 27 28  1  0
 28 29  1  1
 28 30  1  0
 30 31  1  6
 30 10  1  0
 30 13  1  0
 26 14  1  0
 24 18  1  0
M  END
>  <MS_ID>  (1685) 
MS1750

>  <SMILES>  (1685) 
C[C@H](CCC(=O)C(N)=O)[C@H]1CC[C@H]2[C@@H]3[C@H](O)C[C@@H]4C[C@H](O)CC[C@]4(C)[C@H]3C[C@H](O)[C@]12C

>  <Structure_dimension>  (1685) 
2D

$$$$
MS1751
     RDKit          2D

 32 35  0  0  0  0  0  0  0  0999 V2000
   -9.3885    3.6424    0.0000 C   0  0  0  0  0  0  0  0  0  0  0  0
   -8.7975    2.2638    0.0000 O   0  0  0  0  0  0  0  0  0  0  0  0
   -7.3080    2.0863    0.0000 C   0  0  0  0  0  0  0  0  0  0  0  0
   -6.7170    0.7076    0.0000 O   0  0  0  0  0  0  0  0  0  0  0  0
   -5.2276    0.5301    0.0000 C   0  0  0  0  0  0  0  0  0  0  0  0
   -4.3291    1.7312    0.0000 O   0  0  0  0  0  0  0  0  0  0  0  0
   -4.6366   -0.8486    0.0000 C   0  0  0  0  0  0  0  0  0  0  0  0
   -3.1471   -1.0261    0.0000 C   0  0  0  0  0  0  0  0  0  0  0  0
   -2.5561   -2.4048    0.0000 C   0  0  0  0  0  0  0  0  0  0  0  0
   -3.4546   -3.6059    0.0000 C   0  0  0  0  0  0  0  0  0  0  0  0
   -1.0667   -2.5823    0.0000 C   0  0  0  0  0  0  0  0  0  0  0  0
   -0.3348   -3.8917    0.0000 C   0  0  0  0  0  0  0  0  0  0  0  0
    1.1366   -3.6002    0.0000 C   0  0  0  0  0  0  0  0  0  0  0  0
    1.3141   -2.1108    0.0000 C   0  0  0  0  0  0  0  0  0  0  0  0
    2.5398   -1.2460    0.0000 C   0  0  0  0  0  0  0  0  0  0  0  0
    3.9015   -1.8751    0.0000 C   0  0  0  0  0  0  0  0  0  0  0  0
    4.0375   -3.3690    0.0000 O   0  0  0  0  0  0  0  0  0  0  0  0
    5.1272   -1.0104    0.0000 C   0  0  0  0  0  0  0  0  0  0  0  0
    4.9911    0.4834    0.0000 C   0  0  0  0  0  0  0  0  0  0  0  0
    6.2168    1.3481    0.0000 C   0  0  0  0  0  0  0  0  0  0  0  0
    6.0808    2.8419    0.0000 C   0  0  0  0  0  0  0  0  0  0  0  0
    7.3064    3.7067    0.0000 O   0  0  0  0  0  0  0  0  0  0  0  0
    4.7191    3.4710    0.0000 C   0  0  0  0  0  0  0  0  0  0  0  0
    3.4934    2.6063    0.0000 C   0  0  0  0  0  0  0  0  0  0  0  0
    3.6294    1.1125    0.0000 C   0  0  0  0  0  0  0  0  0  0  0  0
    2.2677    1.7416    0.0000 C   0  0  0  0  0  0  0  0  0  0  0  0
    2.4038    0.2478    0.0000 C   0  0  0  0  0  0  0  0  0  0  0  0
    1.0421    0.8769    0.0000 C   0  0  0  0  0  0  0  0  0  0  0  0
   -0.1836    0.0122    0.0000 C   0  0  0  0  0  0  0  0  0  0  0  0
   -1.5453    0.6413    0.0000 O   0  0  0  0  0  0  0  0  0  0  0  0
   -0.0476   -1.4817    0.0000 C   0  0  0  0  0  0  0  0  0  0  0  0
   -1.4676   -0.9983    0.0000 C   0  0  0  0  0  0  0  0  0  0  0  0
  1  2  1  0
  2  3  1  0
  3  4  1  0
  4  5  1  0
  5  6  2  0
  5  7  1  0
  7  8  1  0
  8  9  1  0
  9 10  1  6
  9 11  1  0
 11 12  1  6
 12 13  1  0
 14 13  1  6
 14 15  1  0
 15 16  1  1
 16 17  1  1
 16 18  1  0
 19 18  1  1
 19 20  1  0
 20 21  1  0
 21 22  1  1
 21 23  1  0
 23 24  1  0
 24 25  1  0
 25 26  1  6
 25 27  1  0
 27 28  1  6
 28 29  1  0
 29 30  1  1
 29 31  1  0
 31 32  1  6
 31 11  1  0
 31 14  1  0
 27 15  1  0
 25 19  1  0
M  END
>  <MS_ID>  (1686) 
MS1751

>  <SMILES>  (1686) 
COCOC(=O)CC[C@@H](C)[C@H]1CC[C@H]2[C@@H]3[C@H](O)C[C@@H]4C[C@H](O)CC[C@]4(C)[C@H]3C[C@H](O)[C@]12C

>  <Structure_dimension>  (1686) 
2D

$$$$
MS1752
     RDKit          2D

 37 41  0  0  0  0  0  0  0  0999 V2000
   -0.6485   -4.9602    0.0000 C   0  0  0  0  0  0  0  0  0  0  0  0
   -0.1192   -3.5567    0.0000 C   0  0  0  0  0  0  0  0  0  0  0  0
   -1.0700   -2.3965    0.0000 C   0  0  0  0  0  0  0  0  0  0  0  0
   -2.5501   -2.6399    0.0000 C   0  0  0  0  0  0  0  0  0  0  0  0
   -3.5010   -1.4798    0.0000 C   0  0  0  0  0  0  0  0  0  0  0  0
   -2.9717   -0.0763    0.0000 O   0  0  0  0  0  0  0  0  0  0  0  0
   -4.9811   -1.7231    0.0000 O   0  0  0  0  0  0  0  0  0  0  0  0
   -5.9319   -0.5630    0.0000 C   0  0  0  0  0  0  0  0  0  0  0  0
   -5.4026    0.8405    0.0000 C   0  0  0  0  0  0  0  0  0  0  0  0
   -6.3534    2.0007    0.0000 C   0  0  0  0  0  0  0  0  0  0  0  0
   -7.8336    1.7573    0.0000 C   0  0  0  0  0  0  0  0  0  0  0  0
   -8.7844    2.9174    0.0000 N   0  0  0  0  0  0  0  0  0  0  0  0
  -10.2645    2.6741    0.0000 O   0  0  0  0  0  0  0  0  0  0  0  0
   -8.2551    4.3209    0.0000 O   0  0  0  0  0  0  0  0  0  0  0  0
   -8.3629    0.3538    0.0000 C   0  0  0  0  0  0  0  0  0  0  0  0
   -7.4120   -0.8064    0.0000 C   0  0  0  0  0  0  0  0  0  0  0  0
    1.3609   -3.3133    0.0000 C   0  0  0  0  0  0  0  0  0  0  0  0
    2.4278   -4.3677    0.0000 C   0  0  0  0  0  0  0  0  0  0  0  0
    3.7603   -3.6789    0.0000 C   0  0  0  0  0  0  0  0  0  0  0  0
    3.5169   -2.1987    0.0000 C   0  0  0  0  0  0  0  0  0  0  0  0
    4.4540   -1.0275    0.0000 C   0  0  0  0  0  0  0  0  0  0  0  0
    5.9369   -1.2534    0.0000 C   0  0  0  0  0  0  0  0  0  0  0  0
    6.8740   -0.0822    0.0000 C   0  0  0  0  0  0  0  0  0  0  0  0
    6.3282    1.3150    0.0000 C   0  0  0  0  0  0  0  0  0  0  0  0
    7.2653    2.4863    0.0000 C   0  0  0  0  0  0  0  0  0  0  0  0
    6.7196    3.8835    0.0000 C   0  0  0  0  0  0  0  0  0  0  0  0
    7.6567    5.0547    0.0000 O   0  0  0  0  0  0  0  0  0  0  0  0
    5.2367    4.1094    0.0000 C   0  0  0  0  0  0  0  0  0  0  0  0
    4.2996    2.9381    0.0000 C   0  0  0  0  0  0  0  0  0  0  0  0
    4.8454    1.5409    0.0000 C   0  0  0  0  0  0  0  0  0  0  0  0
    3.3625    1.7669    0.0000 C   0  0  0  0  0  0  0  0  0  0  0  0
    3.9083    0.3697    0.0000 C   0  0  0  0  0  0  0  0  0  0  0  0
    2.4254    0.5956    0.0000 C   0  0  0  0  0  0  0  0  0  0  0  0
    1.4883   -0.5756    0.0000 C   0  0  0  0  0  0  0  0  0  0  0  0
    0.0054   -0.3497    0.0000 O   0  0  0  0  0  0  0  0  0  0  0  0
    2.0341   -1.9728    0.0000 C   0  0  0  0  0  0  0  0  0  0  0  0
    0.5357   -1.9031    0.0000 C   0  0  0  0  0  0  0  0  0  0  0  0
  2  1  1  6
  2  3  1  0
  3  4  1  0
  4  5  1  0
  5  6  2  0
  5  7  1  0
  7  8  1  0
  8  9  2  0
  9 10  1  0
 10 11  2  0
 11 12  1  0
 12 13  2  0
 12 14  1  0
 11 15  1  0
 15 16  2  0
  2 17  1  0
 17 18  1  6
 18 19  1  0
 20 19  1  6
 20 21  1  0
 21 22  1  1
 22 23  1  0
 24 23  1  1
 24 25  1  0
 25 26  1  0
 26 27  1  1
 26 28  1  0
 28 29  1  0
 29 30  1  0
 30 31  1  6
 30 32  1  0
 32 33  1  6
 33 34  1  0
 34 35  1  1
 34 36  1  0
 36 37  1  6
 16  8  1  0
 36 17  1  0
 36 20  1  0
 32 21  1  0
 30 24  1  0
M  CHG  2  12   1  14  -1
M  END
>  <MS_ID>  (1687) 
MS1752

>  <SMILES>  (1687) 
C[C@H](CCC(=O)Oc1ccc([N+](=O)[O-])cc1)[C@H]1CC[C@H]2[C@@H]3CC[C@@H]4C[C@H](O)CC[C@]4(C)[C@H]3C[C@H](O)[C@]12C

>  <Structure_dimension>  (1687) 
2D

$$$$
MS1753
     RDKit          2D

 35 39  0  0  0  0  0  0  0  0999 V2000
   -7.5412   -1.4462    0.0000 C   0  0  0  0  0  0  0  0  0  0  0  0
   -6.2456   -0.6903    0.0000 C   0  0  0  0  0  0  0  0  0  0  0  0
   -6.2524    0.8097    0.0000 C   0  0  0  0  0  0  0  0  0  0  0  0
   -7.5549    1.5538    0.0000 C   0  0  0  0  0  0  0  0  0  0  0  0
   -7.5618    3.0537    0.0000 C   0  0  0  0  0  0  0  0  0  0  0  0
   -6.2662    3.8097    0.0000 O   0  0  0  0  0  0  0  0  0  0  0  0
   -8.8642    3.7978    0.0000 O   0  0  0  0  0  0  0  0  0  0  0  0
   -4.9431   -1.4343    0.0000 C   0  0  0  0  0  0  0  0  0  0  0  0
   -4.7795   -2.9254    0.0000 C   0  0  0  0  0  0  0  0  0  0  0  0
   -3.3109   -3.2305    0.0000 C   0  0  0  0  0  0  0  0  0  0  0  0
   -2.5668   -1.9281    0.0000 C   0  0  0  0  0  0  0  0  0  0  0  0
   -1.1010   -1.6095    0.0000 C   0  0  0  0  0  0  0  0  0  0  0  0
   -0.0922   -2.7196    0.0000 C   0  0  0  0  0  0  0  0  0  0  0  0
   -0.5492   -4.1483    0.0000 O   0  0  0  0  0  0  0  0  0  0  0  0
    1.3735   -2.4010    0.0000 C   0  0  0  0  0  0  0  0  0  0  0  0
    1.8305   -0.9723    0.0000 C   0  0  0  0  0  0  0  0  0  0  0  0
    3.2963   -0.6537    0.0000 C   0  0  0  0  0  0  0  0  0  0  0  0
    3.7533    0.7750    0.0000 C   0  0  0  0  0  0  0  0  0  0  0  0
    5.2191    1.0935    0.0000 C   0  0  0  0  0  0  0  0  0  0  0  0
    6.2279   -0.0166    0.0000 O   0  0  0  0  0  0  0  0  0  0  0  0
    7.6936    0.3020    0.0000 C   0  0  0  0  0  0  0  0  0  0  0  0
    8.7024   -0.8081    0.0000 C   0  0  0  0  0  0  0  0  0  0  0  0
   10.1682   -0.4895    0.0000 C   0  0  0  0  0  0  0  0  0  0  0  0
   10.6252    0.9392    0.0000 C   0  0  0  0  0  0  0  0  0  0  0  0
    9.6164    2.0493    0.0000 C   0  0  0  0  0  0  0  0  0  0  0  0
    8.1506    1.7307    0.0000 C   0  0  0  0  0  0  0  0  0  0  0  0
    2.7445    1.8851    0.0000 C   0  0  0  0  0  0  0  0  0  0  0  0
    1.2787    1.5665    0.0000 C   0  0  0  0  0  0  0  0  0  0  0  0
    0.8217    0.1378    0.0000 C   0  0  0  0  0  0  0  0  0  0  0  0
   -0.1871    1.2479    0.0000 C   0  0  0  0  0  0  0  0  0  0  0  0
   -0.6440   -0.1808    0.0000 C   0  0  0  0  0  0  0  0  0  0  0  0
   -1.6528    0.9293    0.0000 C   0  0  0  0  0  0  0  0  0  0  0  0
   -3.1186    0.6107    0.0000 C   0  0  0  0  0  0  0  0  0  0  0  0
   -3.5756   -0.8180    0.0000 C   0  0  0  0  0  0  0  0  0  0  0  0
   -4.6949    0.1806    0.0000 C   0  0  0  0  0  0  0  0  0  0  0  0
  2  1  1  6
  2  3  1  0
  3  4  1  0
  4  5  1  0
  5  6  2  0
  5  7  1  0
  2  8  1  0
  8  9  1  6
  9 10  1  0
 11 10  1  6
 11 12  1  0
 12 13  1  1
 13 14  1  6
 13 15  1  0
 16 15  1  1
 16 17  1  0
 17 18  1  0
 18 19  1  1
 19 20  1  0
 20 21  1  0
 21 22  2  0
 22 23  1  0
 23 24  2  0
 24 25  1  0
 25 26  2  0
 18 27  1  0
 27 28  1  0
 28 29  1  0
 29 30  1  6
 29 31  1  0
 31 32  1  6
 32 33  1  0
 33 34  1  0
 34 35  1  6
 34  8  1  0
 34 11  1  0
 31 12  1  0
 29 16  1  0
 26 21  1  0
M  END
>  <MS_ID>  (1688) 
MS1753

>  <SMILES>  (1688) 
C[C@H](CCC(=O)O)[C@H]1CC[C@H]2[C@@H]3[C@@H](O)C[C@@H]4C[C@H](COc5ccccc5)CC[C@]4(C)[C@H]3CC[C@]12C

>  <Structure_dimension>  (1688) 
2D

$$$$
MS1755
     RDKit          2D

 32 35  0  0  0  0  0  0  0  0999 V2000
   -2.8252   -3.9526    0.0000 C   0  0  0  0  0  0  0  0  0  0  0  0
   -1.9779   -2.7148    0.0000 C   0  0  0  0  0  0  0  0  0  0  0  0
   -2.6262   -1.3621    0.0000 C   0  0  0  0  0  0  0  0  0  0  0  0
   -4.1218   -1.2472    0.0000 C   0  0  0  0  0  0  0  0  0  0  0  0
   -4.7701    0.1054    0.0000 C   0  0  0  0  0  0  0  0  0  0  0  0
   -3.9228    1.3432    0.0000 O   0  0  0  0  0  0  0  0  0  0  0  0
   -6.2657    0.2203    0.0000 O   0  0  0  0  0  0  0  0  0  0  0  0
   -6.9140    1.5730    0.0000 C   0  0  0  0  0  0  0  0  0  0  0  0
   -8.4096    1.6879    0.0000 C   0  0  0  0  0  0  0  0  0  0  0  0
   -9.0579    3.0406    0.0000 C   0  0  0  0  0  0  0  0  0  0  0  0
  -10.5534    3.1554    0.0000 O   0  0  0  0  0  0  0  0  0  0  0  0
   -0.4823   -2.8297    0.0000 C   0  0  0  0  0  0  0  0  0  0  0  0
    0.3038   -4.1072    0.0000 C   0  0  0  0  0  0  0  0  0  0  0  0
    1.7617   -3.7543    0.0000 C   0  0  0  0  0  0  0  0  0  0  0  0
    1.8766   -2.2587    0.0000 C   0  0  0  0  0  0  0  0  0  0  0  0
    3.0650   -1.3433    0.0000 C   0  0  0  0  0  0  0  0  0  0  0  0
    4.4518   -1.9148    0.0000 C   0  0  0  0  0  0  0  0  0  0  0  0
    5.6402   -0.9994    0.0000 C   0  0  0  0  0  0  0  0  0  0  0  0
    5.4416    0.4874    0.0000 C   0  0  0  0  0  0  0  0  0  0  0  0
    6.6299    1.4028    0.0000 C   0  0  0  0  0  0  0  0  0  0  0  0
    6.4313    2.8896    0.0000 C   0  0  0  0  0  0  0  0  0  0  0  0
    7.6197    3.8049    0.0000 O   0  0  0  0  0  0  0  0  0  0  0  0
    5.0445    3.4610    0.0000 C   0  0  0  0  0  0  0  0  0  0  0  0
    3.8561    2.5456    0.0000 C   0  0  0  0  0  0  0  0  0  0  0  0
    4.0547    1.0588    0.0000 C   0  0  0  0  0  0  0  0  0  0  0  0
    2.6678    1.6303    0.0000 C   0  0  0  0  0  0  0  0  0  0  0  0
    2.8664    0.1435    0.0000 C   0  0  0  0  0  0  0  0  0  0  0  0
    1.4795    0.7149    0.0000 C   0  0  0  0  0  0  0  0  0  0  0  0
    0.2912   -0.2005    0.0000 C   0  0  0  0  0  0  0  0  0  0  0  0
   -1.0957    0.3710    0.0000 O   0  0  0  0  0  0  0  0  0  0  0  0
    0.4897   -1.6873    0.0000 C   0  0  0  0  0  0  0  0  0  0  0  0
   -0.9493   -1.2639    0.0000 C   0  0  0  0  0  0  0  0  0  0  0  0
  2  1  1  6
  2  3  1  0
  3  4  1  0
  4  5  1  0
  5  6  2  0
  5  7  1  0
  7  8  1  0
  8  9  1  0
  9 10  1  0
 10 11  1  0
  2 12  1  0
 12 13  1  6
 13 14  1  0
 15 14  1  6
 15 16  1  0
 16 17  1  1
 17 18  1  0
 19 18  1  1
 19 20  1  0
 20 21  1  0
 21 22  2  0
 21 23  1  0
 23 24  1  0
 24 25  1  0
 25 26  1  6
 25 27  1  0
 27 28  1  6
 28 29  1  0
 29 30  1  1
 29 31  1  0
 31 32  1  6
 31 12  1  0
 31 15  1  0
 27 16  1  0
 25 19  1  0
M  END
>  <MS_ID>  (1689) 
MS1755

>  <SMILES>  (1689) 
C[C@H](CCC(=O)OCCCO)[C@H]1CC[C@H]2[C@@H]3CC[C@@H]4CC(=O)CC[C@]4(C)[C@H]3C[C@H](O)[C@]12C

>  <Structure_dimension>  (1689) 
2D

$$$$
MS1756
     RDKit          2D

 28 31  0  0  0  0  0  0  0  0999 V2000
   -5.0096   -2.1352    0.0000 C   0  0  0  0  0  0  0  0  0  0  0  0
   -3.8132   -1.2303    0.0000 C   0  0  0  0  0  0  0  0  0  0  0  0
   -3.9987    0.2582    0.0000 C   0  0  0  0  0  0  0  0  0  0  0  0
   -5.3805    0.8418    0.0000 C   0  0  0  0  0  0  0  0  0  0  0  0
   -5.5659    2.3303    0.0000 C   0  0  0  0  0  0  0  0  0  0  0  0
   -4.3695    3.2351    0.0000 O   0  0  0  0  0  0  0  0  0  0  0  0
   -6.9477    2.9140    0.0000 O   0  0  0  0  0  0  0  0  0  0  0  0
   -2.4315   -1.8140    0.0000 C   0  0  0  0  0  0  0  0  0  0  0  0
   -2.0914   -3.2749    0.0000 C   0  0  0  0  0  0  0  0  0  0  0  0
   -0.5969   -3.4030    0.0000 C   0  0  0  0  0  0  0  0  0  0  0  0
   -0.0133   -2.0212    0.0000 C   0  0  0  0  0  0  0  0  0  0  0  0
    1.4041   -1.5304    0.0000 C   0  0  0  0  0  0  0  0  0  0  0  0
    2.5379   -2.5125    0.0000 C   0  0  0  0  0  0  0  0  0  0  0  0
    3.9554   -2.0216    0.0000 C   0  0  0  0  0  0  0  0  0  0  0  0
    4.2390   -0.5487    0.0000 C   0  0  0  0  0  0  0  0  0  0  0  0
    5.6564   -0.0578    0.0000 C   0  0  0  0  0  0  0  0  0  0  0  0
    5.9400    1.4151    0.0000 C   0  0  0  0  0  0  0  0  0  0  0  0
    7.3574    1.9060    0.0000 O   0  0  0  0  0  0  0  0  0  0  0  0
    4.8062    2.3972    0.0000 C   0  0  0  0  0  0  0  0  0  0  0  0
    3.3888    1.9064    0.0000 C   0  0  0  0  0  0  0  0  0  0  0  0
    3.1052    0.4334    0.0000 C   0  0  0  0  0  0  0  0  0  0  0  0
    1.9714    1.4155    0.0000 C   0  0  0  0  0  0  0  0  0  0  0  0
    1.6878   -0.0574    0.0000 C   0  0  0  0  0  0  0  0  0  0  0  0
    0.5540    0.9246    0.0000 C   0  0  0  0  0  0  0  0  0  0  0  0
   -0.8635    0.4338    0.0000 C   0  0  0  0  0  0  0  0  0  0  0  0
   -1.9973    1.4159    0.0000 O   0  0  0  0  0  0  0  0  0  0  0  0
   -1.1471   -1.0392    0.0000 C   0  0  0  0  0  0  0  0  0  0  0  0
   -2.3773   -0.1810    0.0000 C   0  0  0  0  0  0  0  0  0  0  0  0
  2  1  1  6
  2  3  1  0
  3  4  1  0
  4  5  1  0
  5  6  2  0
  5  7  1  0
  2  8  1  0
  8  9  1  6
  9 10  1  0
 11 10  1  6
 11 12  1  0
 12 13  1  1
 13 14  1  0
 15 14  1  1
 15 16  1  0
 16 17  1  0
 17 18  1  6
 17 19  1  0
 19 20  1  0
 20 21  1  0
 21 22  1  6
 21 23  1  0
 23 24  1  1
 24 25  1  0
 25 26  1  1
 25 27  1  0
 27 28  1  6
 27  8  1  0
 27 11  1  0
 23 12  1  0
 21 15  1  0
M  END
>  <MS_ID>  (1690) 
MS1756

>  <SMILES>  (1690) 
C[C@H](CCC(=O)O)[C@H]1CC[C@H]2[C@@H]3CC[C@@H]4C[C@@H](O)CC[C@]4(C)[C@@H]3C[C@H](O)[C@]12C

>  <Structure_dimension>  (1690) 
2D

$$$$
MS1757
     RDKit          2D

 35 39  0  0  0  0  0  0  0  0999 V2000
   -1.3718   -4.5891    0.0000 C   0  0  0  0  0  0  0  0  0  0  0  0
   -0.7616   -3.2188    0.0000 C   0  0  0  0  0  0  0  0  0  0  0  0
   -1.6432   -2.0053    0.0000 C   0  0  0  0  0  0  0  0  0  0  0  0
   -3.1350   -2.1620    0.0000 C   0  0  0  0  0  0  0  0  0  0  0  0
   -4.0166   -0.9484    0.0000 C   0  0  0  0  0  0  0  0  0  0  0  0
   -3.4064    0.4219    0.0000 O   0  0  0  0  0  0  0  0  0  0  0  0
   -5.5084   -1.1051    0.0000 O   0  0  0  0  0  0  0  0  0  0  0  0
   -6.3900    0.1085    0.0000 C   0  0  0  0  0  0  0  0  0  0  0  0
   -7.8818   -0.0482    0.0000 C   0  0  0  0  0  0  0  0  0  0  0  0
   -8.7634    1.1653    0.0000 N   0  0  0  0  0  0  0  0  0  0  0  0
  -10.2634    1.1654    0.0000 C   0  0  0  0  0  0  0  0  0  0  0  0
  -10.7269    2.5920    0.0000 C   0  0  0  0  0  0  0  0  0  0  0  0
   -9.5133    3.4737    0.0000 C   0  0  0  0  0  0  0  0  0  0  0  0
   -8.2998    2.5919    0.0000 N   0  0  0  0  0  0  0  0  0  0  0  0
    0.7302   -3.0621    0.0000 C   0  0  0  0  0  0  0  0  0  0  0  0
    1.7338   -4.1769    0.0000 C   0  0  0  0  0  0  0  0  0  0  0  0
    3.1042   -3.5669    0.0000 C   0  0  0  0  0  0  0  0  0  0  0  0
    2.9474   -2.0751    0.0000 C   0  0  0  0  0  0  0  0  0  0  0  0
    3.9512   -0.9604    0.0000 C   0  0  0  0  0  0  0  0  0  0  0  0
    5.4184   -1.2724    0.0000 C   0  0  0  0  0  0  0  0  0  0  0  0
    5.8819   -2.6990    0.0000 O   0  0  0  0  0  0  0  0  0  0  0  0
    6.4222   -0.1577    0.0000 C   0  0  0  0  0  0  0  0  0  0  0  0
    5.9587    1.2689    0.0000 C   0  0  0  0  0  0  0  0  0  0  0  0
    6.9625    2.3835    0.0000 C   0  0  0  0  0  0  0  0  0  0  0  0
    6.4990    3.8101    0.0000 C   0  0  0  0  0  0  0  0  0  0  0  0
    7.5028    4.9248    0.0000 O   0  0  0  0  0  0  0  0  0  0  0  0
    5.0318    4.1221    0.0000 C   0  0  0  0  0  0  0  0  0  0  0  0
    4.0281    3.0074    0.0000 C   0  0  0  0  0  0  0  0  0  0  0  0
    4.4915    1.5808    0.0000 C   0  0  0  0  0  0  0  0  0  0  0  0
    3.0243    1.8928    0.0000 C   0  0  0  0  0  0  0  0  0  0  0  0
    3.4878    0.4662    0.0000 C   0  0  0  0  0  0  0  0  0  0  0  0
    2.0206    0.7781    0.0000 C   0  0  0  0  0  0  0  0  0  0  0  0
    1.0168   -0.3365    0.0000 C   0  0  0  0  0  0  0  0  0  0  0  0
    1.4802   -1.7631    0.0000 C   0  0  0  0  0  0  0  0  0  0  0  0
   -0.0115   -1.6063    0.0000 C   0  0  0  0  0  0  0  0  0  0  0  0
  2  1  1  6
  2  3  1  0
  3  4  1  0
  4  5  1  0
  5  6  2  0
  5  7  1  0
  7  8  1  0
  8  9  1  0
  9 10  1  0
 10 11  1  0
 11 12  2  0
 12 13  1  0
 13 14  2  0
  2 15  1  0
 15 16  1  6
 16 17  1  0
 18 17  1  6
 18 19  1  0
 19 20  1  1
 20 21  1  1
 20 22  1  0
 23 22  1  1
 23 24  1  0
 24 25  1  0
 25 26  1  1
 25 27  1  0
 27 28  1  0
 28 29  1  0
 29 30  1  6
 29 31  1  0
 31 32  1  6
 32 33  1  0
 33 34  1  0
 34 35  1  6
 14 10  1  0
 34 15  1  0
 34 18  1  0
 31 19  1  0
 29 23  1  0
M  END
>  <MS_ID>  (1691) 
MS1757

>  <SMILES>  (1691) 
C[C@H](CCC(=O)OCCn1cccn1)[C@H]1CC[C@H]2[C@@H]3[C@H](O)C[C@@H]4C[C@H](O)CC[C@]4(C)[C@H]3CC[C@]12C

>  <Structure_dimension>  (1691) 
2D

$$$$
MS1758
     RDKit          2D

 28 31  0  0  0  0  0  0  0  0999 V2000
   -5.1275   -2.0302    0.0000 C   0  0  0  0  0  0  0  0  0  0  0  0
   -3.9468   -1.1050    0.0000 C   0  0  0  0  0  0  0  0  0  0  0  0
   -4.1576    0.3801    0.0000 C   0  0  0  0  0  0  0  0  0  0  0  0
   -5.5492    0.9401    0.0000 C   0  0  0  0  0  0  0  0  0  0  0  0
   -5.7600    2.4252    0.0000 C   0  0  0  0  0  0  0  0  0  0  0  0
   -4.5793    3.3503    0.0000 O   0  0  0  0  0  0  0  0  0  0  0  0
   -7.1516    2.9851    0.0000 O   0  0  0  0  0  0  0  0  0  0  0  0
   -2.5552   -1.6650    0.0000 C   0  0  0  0  0  0  0  0  0  0  0  0
   -2.1903   -3.1199    0.0000 C   0  0  0  0  0  0  0  0  0  0  0  0
   -0.6938   -3.2225    0.0000 C   0  0  0  0  0  0  0  0  0  0  0  0
   -0.1339   -1.8309    0.0000 C   0  0  0  0  0  0  0  0  0  0  0  0
    1.2750   -1.3159    0.0000 C   0  0  0  0  0  0  0  0  0  0  0  0
    2.4254   -2.2785    0.0000 C   0  0  0  0  0  0  0  0  0  0  0  0
    2.1670   -3.7560    0.0000 F   0  0  0  0  0  0  0  0  0  0  0  0
    3.8342   -1.7635    0.0000 C   0  0  0  0  0  0  0  0  0  0  0  0
    4.0926   -0.2859    0.0000 C   0  0  0  0  0  0  0  0  0  0  0  0
    5.5014    0.2291    0.0000 C   0  0  0  0  0  0  0  0  0  0  0  0
    5.7598    1.7067    0.0000 C   0  0  0  0  0  0  0  0  0  0  0  0
    7.1687    2.2217    0.0000 O   0  0  0  0  0  0  0  0  0  0  0  0
    4.6094    2.6692    0.0000 C   0  0  0  0  0  0  0  0  0  0  0  0
    3.2006    2.1542    0.0000 C   0  0  0  0  0  0  0  0  0  0  0  0
    2.9422    0.6767    0.0000 C   0  0  0  0  0  0  0  0  0  0  0  0
    1.7918    1.6392    0.0000 C   0  0  0  0  0  0  0  0  0  0  0  0
    1.5334    0.1617    0.0000 C   0  0  0  0  0  0  0  0  0  0  0  0
    0.3830    1.1242    0.0000 C   0  0  0  0  0  0  0  0  0  0  0  0
   -1.0259    0.6093    0.0000 C   0  0  0  0  0  0  0  0  0  0  0  0
   -1.2843   -0.8683    0.0000 C   0  0  0  0  0  0  0  0  0  0  0  0
   -2.5290   -0.0313    0.0000 C   0  0  0  0  0  0  0  0  0  0  0  0
  2  1  1  6
  2  3  1  0
  3  4  1  0
  4  5  1  0
  5  6  2  0
  5  7  1  0
  2  8  1  0
  8  9  1  6
  9 10  1  0
 11 10  1  6
 11 12  1  0
 12 13  1  1
 13 14  1  1
 13 15  1  0
 16 15  1  1
 16 17  1  0
 17 18  1  0
 18 19  2  0
 18 20  1  0
 20 21  1  0
 21 22  1  0
 22 23  1  6
 22 24  1  0
 24 25  1  6
 25 26  1  0
 26 27  1  0
 27 28  1  6
 27  8  1  0
 27 11  1  0
 24 12  1  0
 22 16  1  0
M  END
>  <MS_ID>  (1692) 
MS1758

>  <SMILES>  (1692) 
C[C@H](CCC(=O)O)[C@H]1CC[C@H]2[C@@H]3[C@H](F)C[C@@H]4CC(=O)CC[C@]4(C)[C@H]3CC[C@]12C

>  <Structure_dimension>  (1692) 
2D

$$$$
MS1759
     RDKit          2D

 34 37  0  0  0  0  0  0  0  0999 V2000
   -2.9095   -3.6516    0.0000 C   0  0  0  0  0  0  0  0  0  0  0  0
   -2.0229   -2.4416    0.0000 C   0  0  0  0  0  0  0  0  0  0  0  0
   -2.6275   -1.0689    0.0000 C   0  0  0  0  0  0  0  0  0  0  0  0
   -4.1187   -0.9061    0.0000 C   0  0  0  0  0  0  0  0  0  0  0  0
   -4.7232    0.4667    0.0000 C   0  0  0  0  0  0  0  0  0  0  0  0
   -3.8367    1.6767    0.0000 O   0  0  0  0  0  0  0  0  0  0  0  0
   -6.2144    0.6295    0.0000 C   0  0  0  0  0  0  0  0  0  0  0  0
   -7.1009   -0.5804    0.0000 O   0  0  0  0  0  0  0  0  0  0  0  0
   -6.8190    2.0023    0.0000 C   0  0  0  0  0  0  0  0  0  0  0  0
   -8.3101    2.1651    0.0000 C   0  0  0  0  0  0  0  0  0  0  0  0
   -9.1967    0.9551    0.0000 O   0  0  0  0  0  0  0  0  0  0  0  0
   -8.9147    3.5379    0.0000 O   0  0  0  0  0  0  0  0  0  0  0  0
   -0.5318   -2.6044    0.0000 C   0  0  0  0  0  0  0  0  0  0  0  0
    0.2129   -3.9065    0.0000 C   0  0  0  0  0  0  0  0  0  0  0  0
    1.6814   -3.6005    0.0000 C   0  0  0  0  0  0  0  0  0  0  0  0
    1.8442   -2.1094    0.0000 C   0  0  0  0  0  0  0  0  0  0  0  0
    3.0613   -1.2326    0.0000 C   0  0  0  0  0  0  0  0  0  0  0  0
    4.4291   -1.8482    0.0000 C   0  0  0  0  0  0  0  0  0  0  0  0
    4.5799   -3.3406    0.0000 O   0  0  0  0  0  0  0  0  0  0  0  0
    5.6462   -0.9715    0.0000 C   0  0  0  0  0  0  0  0  0  0  0  0
    5.4954    0.5209    0.0000 C   0  0  0  0  0  0  0  0  0  0  0  0
    6.7125    1.3977    0.0000 C   0  0  0  0  0  0  0  0  0  0  0  0
    6.5617    2.8901    0.0000 C   0  0  0  0  0  0  0  0  0  0  0  0
    7.7788    3.7669    0.0000 O   0  0  0  0  0  0  0  0  0  0  0  0
    5.1939    3.5058    0.0000 C   0  0  0  0  0  0  0  0  0  0  0  0
    3.9768    2.6290    0.0000 C   0  0  0  0  0  0  0  0  0  0  0  0
    4.1276    1.1366    0.0000 C   0  0  0  0  0  0  0  0  0  0  0  0
    2.7597    1.7522    0.0000 C   0  0  0  0  0  0  0  0  0  0  0  0
    2.9105    0.2598    0.0000 C   0  0  0  0  0  0  0  0  0  0  0  0
    1.5427    0.8754    0.0000 C   0  0  0  0  0  0  0  0  0  0  0  0
    0.3256   -0.0014    0.0000 C   0  0  0  0  0  0  0  0  0  0  0  0
   -1.0423    0.6143    0.0000 O   0  0  0  0  0  0  0  0  0  0  0  0
    0.4764   -1.4938    0.0000 C   0  0  0  0  0  0  0  0  0  0  0  0
   -0.9483   -1.0245    0.0000 C   0  0  0  0  0  0  0  0  0  0  0  0
  2  1  1  6
  2  3  1  0
  3  4  1  0
  4  5  1  0
  5  6  2  0
  5  7  1  0
  7  8  2  0
  7  9  1  0
  9 10  1  0
 10 11  2  0
 10 12  1  0
  2 13  1  0
 13 14  1  6
 14 15  1  0
 16 15  1  6
 16 17  1  0
 17 18  1  1
 18 19  1  1
 18 20  1  0
 21 20  1  1
 21 22  1  0
 22 23  1  0
 23 24  1  1
 23 25  1  0
 25 26  1  0
 26 27  1  0
 27 28  1  6
 27 29  1  0
 29 30  1  6
 30 31  1  0
 31 32  1  1
 31 33  1  0
 33 34  1  6
 33 13  1  0
 33 16  1  0
 29 17  1  0
 27 21  1  0
M  END
>  <MS_ID>  (1693) 
MS1759

>  <SMILES>  (1693) 
C[C@H](CCC(=O)C(=O)CC(=O)O)[C@H]1CC[C@H]2[C@@H]3[C@H](O)C[C@@H]4C[C@H](O)CC[C@]4(C)[C@H]3C[C@H](O)[C@]12C

>  <Structure_dimension>  (1693) 
2D

$$$$
MS1760
     RDKit          2D

 33 36  0  0  0  0  0  0  0  0999 V2000
   -3.6194   -4.0272    0.0000 C   0  0  0  0  0  0  0  0  0  0  0  0
   -2.7983   -2.7719    0.0000 C   0  0  0  0  0  0  0  0  0  0  0  0
   -3.4749   -1.4332    0.0000 C   0  0  0  0  0  0  0  0  0  0  0  0
   -4.9725   -1.3497    0.0000 C   0  0  0  0  0  0  0  0  0  0  0  0
   -5.6491   -0.0109    0.0000 C   0  0  0  0  0  0  0  0  0  0  0  0
   -7.1468    0.0725    0.0000 O   0  0  0  0  0  0  0  0  0  0  0  0
   -4.8280    1.2443    0.0000 O   0  0  0  0  0  0  0  0  0  0  0  0
   -5.5045    2.5831    0.0000 C   0  0  0  0  0  0  0  0  0  0  0  0
   -7.0022    2.6666    0.0000 O   0  0  0  0  0  0  0  0  0  0  0  0
   -4.6834    3.8384    0.0000 C   0  0  0  0  0  0  0  0  0  0  0  0
   -5.3600    5.1772    0.0000 N   0  0  0  0  0  0  0  0  0  0  0  0
   -1.3006   -2.8554    0.0000 C   0  0  0  0  0  0  0  0  0  0  0  0
   -0.4878   -4.1161    0.0000 C   0  0  0  0  0  0  0  0  0  0  0  0
    0.9623   -3.7327    0.0000 C   0  0  0  0  0  0  0  0  0  0  0  0
    1.0458   -2.2350    0.0000 C   0  0  0  0  0  0  0  0  0  0  0  0
    2.2146   -1.2949    0.0000 C   0  0  0  0  0  0  0  0  0  0  0  0
    3.6132   -1.8371    0.0000 C   0  0  0  0  0  0  0  0  0  0  0  0
    3.8429   -3.3194    0.0000 O   0  0  0  0  0  0  0  0  0  0  0  0
    4.7820   -0.8970    0.0000 C   0  0  0  0  0  0  0  0  0  0  0  0
    6.1806   -1.4391    0.0000 O   0  0  0  0  0  0  0  0  0  0  0  0
    4.5523    0.5854    0.0000 C   0  0  0  0  0  0  0  0  0  0  0  0
    5.7211    1.5255    0.0000 C   0  0  0  0  0  0  0  0  0  0  0  0
    5.4914    3.0078    0.0000 C   0  0  0  0  0  0  0  0  0  0  0  0
    6.6602    3.9479    0.0000 O   0  0  0  0  0  0  0  0  0  0  0  0
    4.0928    3.5500    0.0000 C   0  0  0  0  0  0  0  0  0  0  0  0
    2.9240    2.6098    0.0000 C   0  0  0  0  0  0  0  0  0  0  0  0
    3.1537    1.1275    0.0000 C   0  0  0  0  0  0  0  0  0  0  0  0
    1.7551    1.6697    0.0000 C   0  0  0  0  0  0  0  0  0  0  0  0
    1.9849    0.1874    0.0000 C   0  0  0  0  0  0  0  0  0  0  0  0
    0.5863    0.7296    0.0000 C   0  0  0  0  0  0  0  0  0  0  0  0
   -0.5825   -0.2105    0.0000 C   0  0  0  0  0  0  0  0  0  0  0  0
   -0.3528   -1.6928    0.0000 C   0  0  0  0  0  0  0  0  0  0  0  0
   -1.8004   -1.2998    0.0000 C   0  0  0  0  0  0  0  0  0  0  0  0
  2  1  1  6
  2  3  1  0
  3  4  1  0
  4  5  1  0
  5  6  2  0
  5  7  1  0
  7  8  1  0
  8  9  2  0
  8 10  1  0
 10 11  1  0
  2 12  1  0
 12 13  1  6
 13 14  1  0
 15 14  1  6
 15 16  1  0
 16 17  1  1
 17 18  1  1
 17 19  1  0
 19 20  1  1
 19 21  1  0
 21 22  1  1
 22 23  1  0
 23 24  1  1
 23 25  1  0
 25 26  1  0
 26 27  1  0
 27 28  1  6
 27 29  1  0
 29 30  1  6
 30 31  1  0
 31 32  1  0
 32 33  1  6
 32 12  1  0
 32 15  1  0
 29 16  1  0
 27 21  1  0
M  END
>  <MS_ID>  (1694) 
MS1760

>  <SMILES>  (1694) 
C[C@H](CCC(=O)OC(=O)CN)[C@H]1CC[C@H]2[C@@H]3[C@H](O)[C@H](O)[C@@H]4C[C@H](O)CC[C@]4(C)[C@H]3CC[C@]12C

>  <Structure_dimension>  (1694) 
2D

$$$$
MS1761
     RDKit          2D

 29 32  0  0  0  0  0  0  0  0999 V2000
   -5.0303   -2.1373    0.0000 C   0  0  0  0  0  0  0  0  0  0  0  0
   -3.8594   -1.1998    0.0000 C   0  0  0  0  0  0  0  0  0  0  0  0
   -4.0858    0.2830    0.0000 C   0  0  0  0  0  0  0  0  0  0  0  0
   -5.4831    0.8284    0.0000 C   0  0  0  0  0  0  0  0  0  0  0  0
   -5.7095    2.3112    0.0000 C   0  0  0  0  0  0  0  0  0  0  0  0
   -4.5386    3.2487    0.0000 O   0  0  0  0  0  0  0  0  0  0  0  0
   -7.1069    2.8565    0.0000 O   0  0  0  0  0  0  0  0  0  0  0  0
   -2.4620   -1.7451    0.0000 C   0  0  0  0  0  0  0  0  0  0  0  0
   -2.0818   -3.1961    0.0000 C   0  0  0  0  0  0  0  0  0  0  0  0
   -0.5844   -3.2830    0.0000 C   0  0  0  0  0  0  0  0  0  0  0  0
   -0.0390   -1.8856    0.0000 C   0  0  0  0  0  0  0  0  0  0  0  0
    1.3643   -1.3559    0.0000 C   0  0  0  0  0  0  0  0  0  0  0  0
    2.5248   -2.3063    0.0000 C   0  0  0  0  0  0  0  0  0  0  0  0
    2.2819   -3.7865    0.0000 N   0  0  0  0  0  0  0  0  0  0  0  0
    3.9281   -1.7765    0.0000 C   0  0  0  0  0  0  0  0  0  0  0  0
    4.1710   -0.2963    0.0000 C   0  0  0  0  0  0  0  0  0  0  0  0
    5.5743    0.2334    0.0000 C   0  0  0  0  0  0  0  0  0  0  0  0
    5.8172    1.7136    0.0000 C   0  0  0  0  0  0  0  0  0  0  0  0
    7.2205    2.2434    0.0000 O   0  0  0  0  0  0  0  0  0  0  0  0
    4.6568    2.6641    0.0000 C   0  0  0  0  0  0  0  0  0  0  0  0
    3.2534    2.1343    0.0000 C   0  0  0  0  0  0  0  0  0  0  0  0
    3.0105    0.6541    0.0000 C   0  0  0  0  0  0  0  0  0  0  0  0
    1.8501    1.6046    0.0000 C   0  0  0  0  0  0  0  0  0  0  0  0
    1.6072    0.1244    0.0000 C   0  0  0  0  0  0  0  0  0  0  0  0
    0.4467    1.0748    0.0000 C   0  0  0  0  0  0  0  0  0  0  0  0
   -0.9566    0.5450    0.0000 C   0  0  0  0  0  0  0  0  0  0  0  0
   -2.1170    1.4955    0.0000 O   0  0  0  0  0  0  0  0  0  0  0  0
   -1.1995   -0.9352    0.0000 C   0  0  0  0  0  0  0  0  0  0  0  0
   -2.4529   -0.1112    0.0000 C   0  0  0  0  0  0  0  0  0  0  0  0
  2  1  1  6
  2  3  1  0
  3  4  1  0
  4  5  1  0
  5  6  2  0
  5  7  1  0
  2  8  1  0
  8  9  1  6
  9 10  1  0
 11 10  1  6
 11 12  1  0
 12 13  1  1
 13 14  1  6
 13 15  1  0
 16 15  1  1
 16 17  1  0
 17 18  1  0
 18 19  1  1
 18 20  1  0
 20 21  1  0
 21 22  1  0
 22 23  1  6
 22 24  1  0
 24 25  1  6
 25 26  1  0
 26 27  1  6
 26 28  1  0
 28 29  1  6
 28  8  1  0
 28 11  1  0
 24 12  1  0
 22 16  1  0
M  END
>  <MS_ID>  (1695) 
MS1761

>  <SMILES>  (1695) 
C[C@H](CCC(=O)O)[C@H]1CC[C@H]2[C@@H]3[C@@H](N)C[C@@H]4C[C@H](O)CC[C@]4(C)[C@H]3C[C@@H](O)[C@]12C

>  <Structure_dimension>  (1695) 
2D

$$$$
MS1763
     RDKit          2D

 35 39  0  0  0  0  0  0  0  0999 V2000
   -2.2319   -4.3352    0.0000 C   0  0  0  0  0  0  0  0  0  0  0  0
   -1.5144   -3.0180    0.0000 C   0  0  0  0  0  0  0  0  0  0  0  0
   -2.2965   -1.7380    0.0000 C   0  0  0  0  0  0  0  0  0  0  0  0
   -3.7960   -1.7752    0.0000 C   0  0  0  0  0  0  0  0  0  0  0  0
   -4.5781   -0.4952    0.0000 C   0  0  0  0  0  0  0  0  0  0  0  0
   -3.8606    0.8220    0.0000 O   0  0  0  0  0  0  0  0  0  0  0  0
   -6.0776   -0.5325    0.0000 O   0  0  0  0  0  0  0  0  0  0  0  0
   -6.8597    0.7475    0.0000 C   0  0  0  0  0  0  0  0  0  0  0  0
   -6.1422    2.0648    0.0000 C   0  0  0  0  0  0  0  0  0  0  0  0
   -6.9242    3.3448    0.0000 C   0  0  0  0  0  0  0  0  0  0  0  0
   -8.4238    3.3075    0.0000 C   0  0  0  0  0  0  0  0  0  0  0  0
   -9.1412    1.9902    0.0000 C   0  0  0  0  0  0  0  0  0  0  0  0
   -8.3592    0.7102    0.0000 C   0  0  0  0  0  0  0  0  0  0  0  0
   -0.0149   -2.9807    0.0000 C   0  0  0  0  0  0  0  0  0  0  0  0
    0.8967   -4.1719    0.0000 C   0  0  0  0  0  0  0  0  0  0  0  0
    2.3113   -3.6731    0.0000 C   0  0  0  0  0  0  0  0  0  0  0  0
    2.2740   -2.1736    0.0000 C   0  0  0  0  0  0  0  0  0  0  0  0
    3.3634   -1.1425    0.0000 C   0  0  0  0  0  0  0  0  0  0  0  0
    4.8011   -1.5704    0.0000 C   0  0  0  0  0  0  0  0  0  0  0  0
    5.1493   -3.0294    0.0000 O   0  0  0  0  0  0  0  0  0  0  0  0
    5.8905   -0.5393    0.0000 C   0  0  0  0  0  0  0  0  0  0  0  0
    5.5423    0.9197    0.0000 C   0  0  0  0  0  0  0  0  0  0  0  0
    6.6317    1.9508    0.0000 C   0  0  0  0  0  0  0  0  0  0  0  0
    6.2835    3.4098    0.0000 C   0  0  0  0  0  0  0  0  0  0  0  0
    7.3729    4.4409    0.0000 O   0  0  0  0  0  0  0  0  0  0  0  0
    4.8458    3.8377    0.0000 C   0  0  0  0  0  0  0  0  0  0  0  0
    3.7564    2.8066    0.0000 C   0  0  0  0  0  0  0  0  0  0  0  0
    4.1046    1.3476    0.0000 C   0  0  0  0  0  0  0  0  0  0  0  0
    2.6670    1.7755    0.0000 C   0  0  0  0  0  0  0  0  0  0  0  0
    3.0152    0.3165    0.0000 C   0  0  0  0  0  0  0  0  0  0  0  0
    1.5776    0.7445    0.0000 C   0  0  0  0  0  0  0  0  0  0  0  0
    0.4881   -0.2866    0.0000 C   0  0  0  0  0  0  0  0  0  0  0  0
   -0.9495    0.1413    0.0000 O   0  0  0  0  0  0  0  0  0  0  0  0
    0.8363   -1.7456    0.0000 C   0  0  0  0  0  0  0  0  0  0  0  0
   -0.6382   -1.4703    0.0000 C   0  0  0  0  0  0  0  0  0  0  0  0
  2  1  1  6
  2  3  1  0
  3  4  1  0
  4  5  1  0
  5  6  2  0
  5  7  1  0
  7  8  1  0
  8  9  1  0
  9 10  1  0
 10 11  1  0
 11 12  1  0
 12 13  1  0
  2 14  1  0
 14 15  1  6
 15 16  1  0
 17 16  1  6
 17 18  1  0
 18 19  1  1
 19 20  1  1
 19 21  1  0
 22 21  1  1
 22 23  1  0
 23 24  1  0
 24 25  1  1
 24 26  1  0
 26 27  1  0
 27 28  1  0
 28 29  1  6
 28 30  1  0
 30 31  1  6
 31 32  1  0
 32 33  1  1
 32 34  1  0
 34 35  1  6
 13  8  1  0
 34 14  1  0
 34 17  1  0
 30 18  1  0
 28 22  1  0
M  END
>  <MS_ID>  (1696) 
MS1763

>  <SMILES>  (1696) 
C[C@H](CCC(=O)OC1CCCCC1)[C@H]1CC[C@H]2[C@@H]3[C@H](O)C[C@@H]4C[C@H](O)CC[C@]4(C)[C@H]3C[C@H](O)[C@]12C

>  <Structure_dimension>  (1696) 
2D

$$$$
MS1764
     RDKit          2D

 32 36  0  0  0  0  0  0  0  0999 V2000
   -3.4960   -3.2106    0.0000 C   0  0  0  0  0  0  0  0  0  0  0  0
   -2.5154   -2.0755    0.0000 C   0  0  0  0  0  0  0  0  0  0  0  0
   -3.0082   -0.6588    0.0000 C   0  0  0  0  0  0  0  0  0  0  0  0
   -4.4815   -0.3771    0.0000 C   0  0  0  0  0  0  0  0  0  0  0  0
   -4.9742    1.0397    0.0000 C   0  0  0  0  0  0  0  0  0  0  0  0
   -3.9936    2.1748    0.0000 O   0  0  0  0  0  0  0  0  0  0  0  0
   -6.4475    1.3214    0.0000 C   0  0  0  0  0  0  0  0  0  0  0  0
   -7.5414    0.2950    0.0000 C   0  0  0  0  0  0  0  0  0  0  0  0
   -8.8556    1.0181    0.0000 N   0  0  0  0  0  0  0  0  0  0  0  0
   -8.5739    2.4915    0.0000 C   0  0  0  0  0  0  0  0  0  0  0  0
   -7.0856    2.6789    0.0000 N   0  0  0  0  0  0  0  0  0  0  0  0
   -1.0421   -2.3572    0.0000 C   0  0  0  0  0  0  0  0  0  0  0  0
   -0.4040   -3.7147    0.0000 C   0  0  0  0  0  0  0  0  0  0  0  0
    1.0842   -3.5273    0.0000 C   0  0  0  0  0  0  0  0  0  0  0  0
    1.3659   -2.0540    0.0000 C   0  0  0  0  0  0  0  0  0  0  0  0
    2.6493   -1.2775    0.0000 C   0  0  0  0  0  0  0  0  0  0  0  0
    3.9634   -2.0006    0.0000 C   0  0  0  0  0  0  0  0  0  0  0  0
    3.9942   -3.5003    0.0000 O   0  0  0  0  0  0  0  0  0  0  0  0
    5.2468   -1.2241    0.0000 C   0  0  0  0  0  0  0  0  0  0  0  0
    5.2160    0.2756    0.0000 C   0  0  0  0  0  0  0  0  0  0  0  0
    6.4994    1.0521    0.0000 C   0  0  0  0  0  0  0  0  0  0  0  0
    6.4685    2.5518    0.0000 C   0  0  0  0  0  0  0  0  0  0  0  0
    7.7519    3.3283    0.0000 O   0  0  0  0  0  0  0  0  0  0  0  0
    5.1544    3.2749    0.0000 C   0  0  0  0  0  0  0  0  0  0  0  0
    3.8710    2.4984    0.0000 C   0  0  0  0  0  0  0  0  0  0  0  0
    3.9018    0.9987    0.0000 C   0  0  0  0  0  0  0  0  0  0  0  0
    2.5877    1.7219    0.0000 C   0  0  0  0  0  0  0  0  0  0  0  0
    2.6185    0.2222    0.0000 C   0  0  0  0  0  0  0  0  0  0  0  0
    1.3043    0.9454    0.0000 C   0  0  0  0  0  0  0  0  0  0  0  0
    0.0209    0.1689    0.0000 C   0  0  0  0  0  0  0  0  0  0  0  0
    0.0517   -1.3308    0.0000 C   0  0  0  0  0  0  0  0  0  0  0  0
   -1.3308   -0.7490    0.0000 C   0  0  0  0  0  0  0  0  0  0  0  0
  2  1  1  6
  2  3  1  0
  3  4  1  0
  4  5  1  0
  5  6  2  0
  5  7  1  0
  7  8  2  0
  8  9  1  0
  9 10  2  0
 10 11  1  0
  2 12  1  0
 12 13  1  6
 13 14  1  0
 15 14  1  6
 15 16  1  0
 16 17  1  1
 17 18  1  1
 17 19  1  0
 20 19  1  1
 20 21  1  0
 21 22  1  0
 22 23  1  1
 22 24  1  0
 24 25  1  0
 25 26  1  0
 26 27  1  6
 26 28  1  0
 28 29  1  6
 29 30  1  0
 30 31  1  0
 31 32  1  6
 11  7  1  0
 31 12  1  0
 31 15  1  0
 28 16  1  0
 26 20  1  0
M  END
>  <MS_ID>  (1697) 
MS1764

>  <SMILES>  (1697) 
C[C@H](CCC(=O)c1cnc[nH]1)[C@H]1CC[C@H]2[C@@H]3[C@H](O)C[C@@H]4C[C@H](O)CC[C@]4(C)[C@H]3CC[C@]12C

>  <Structure_dimension>  (1697) 
2D

$$$$
MS1765
     RDKit          2D

 36 40  0  0  0  0  0  0  0  0999 V2000
   -1.8695   -4.0446    0.0000 C   0  0  0  0  0  0  0  0  0  0  0  0
   -1.0892   -2.7636    0.0000 C   0  0  0  0  0  0  0  0  0  0  0  0
   -1.8085   -1.4473    0.0000 C   0  0  0  0  0  0  0  0  0  0  0  0
   -3.3081   -1.4120    0.0000 C   0  0  0  0  0  0  0  0  0  0  0  0
   -4.0274   -0.0958    0.0000 C   0  0  0  0  0  0  0  0  0  0  0  0
   -3.2470    1.1853    0.0000 O   0  0  0  0  0  0  0  0  0  0  0  0
   -5.5269   -0.0605    0.0000 C   0  0  0  0  0  0  0  0  0  0  0  0
   -6.2462    1.2558    0.0000 O   0  0  0  0  0  0  0  0  0  0  0  0
   -7.7458    1.2910    0.0000 C   0  0  0  0  0  0  0  0  0  0  0  0
   -8.4651    2.6073    0.0000 C   0  0  0  0  0  0  0  0  0  0  0  0
   -9.9647    2.6425    0.0000 C   0  0  0  0  0  0  0  0  0  0  0  0
  -10.7450    1.3615    0.0000 C   0  0  0  0  0  0  0  0  0  0  0  0
  -10.0257    0.0452    0.0000 C   0  0  0  0  0  0  0  0  0  0  0  0
   -8.5261    0.0099    0.0000 C   0  0  0  0  0  0  0  0  0  0  0  0
    0.4104   -2.7988    0.0000 C   0  0  0  0  0  0  0  0  0  0  0  0
    1.2633   -4.0327    0.0000 C   0  0  0  0  0  0  0  0  0  0  0  0
    2.7004   -3.6028    0.0000 C   0  0  0  0  0  0  0  0  0  0  0  0
    2.7356   -2.1032    0.0000 C   0  0  0  0  0  0  0  0  0  0  0  0
    3.8736   -1.1260    0.0000 C   0  0  0  0  0  0  0  0  0  0  0  0
    5.2889   -1.6229    0.0000 C   0  0  0  0  0  0  0  0  0  0  0  0
    5.5662   -3.0970    0.0000 O   0  0  0  0  0  0  0  0  0  0  0  0
    6.4269   -0.6457    0.0000 C   0  0  0  0  0  0  0  0  0  0  0  0
    6.1496    0.8285    0.0000 C   0  0  0  0  0  0  0  0  0  0  0  0
    7.2876    1.8057    0.0000 C   0  0  0  0  0  0  0  0  0  0  0  0
    7.0102    3.2799    0.0000 C   0  0  0  0  0  0  0  0  0  0  0  0
    8.1482    4.2571    0.0000 O   0  0  0  0  0  0  0  0  0  0  0  0
    5.5949    3.7768    0.0000 C   0  0  0  0  0  0  0  0  0  0  0  0
    4.4570    2.7995    0.0000 C   0  0  0  0  0  0  0  0  0  0  0  0
    4.7343    1.3254    0.0000 C   0  0  0  0  0  0  0  0  0  0  0  0
    3.3190    1.8223    0.0000 C   0  0  0  0  0  0  0  0  0  0  0  0
    3.5963    0.3481    0.0000 C   0  0  0  0  0  0  0  0  0  0  0  0
    2.1810    0.8451    0.0000 C   0  0  0  0  0  0  0  0  0  0  0  0
    1.0430   -0.1322    0.0000 C   0  0  0  0  0  0  0  0  0  0  0  0
   -0.3723    0.3647    0.0000 O   0  0  0  0  0  0  0  0  0  0  0  0
    1.3203   -1.6063    0.0000 C   0  0  0  0  0  0  0  0  0  0  0  0
   -0.1392   -1.2601    0.0000 C   0  0  0  0  0  0  0  0  0  0  0  0
  2  1  1  6
  2  3  1  0
  3  4  1  0
  4  5  1  0
  5  6  2  0
  5  7  1  0
  7  8  1  0
  8  9  1  0
  9 10  2  0
 10 11  1  0
 11 12  2  0
 12 13  1  0
 13 14  2  0
  2 15  1  0
 15 16  1  6
 16 17  1  0
 18 17  1  6
 18 19  1  0
 19 20  1  1
 20 21  1  1
 20 22  1  0
 23 22  1  1
 23 24  1  0
 24 25  1  0
 25 26  1  1
 25 27  1  0
 27 28  1  0
 28 29  1  0
 29 30  1  6
 29 31  1  0
 31 32  1  6
 32 33  1  0
 33 34  1  1
 33 35  1  0
 35 36  1  6
 14  9  1  0
 35 15  1  0
 35 18  1  0
 31 19  1  0
 29 23  1  0
M  END
>  <MS_ID>  (1698) 
MS1765

>  <SMILES>  (1698) 
C[C@H](CCC(=O)COc1ccccc1)[C@H]1CC[C@H]2[C@@H]3[C@H](O)C[C@@H]4C[C@H](O)CC[C@]4(C)[C@H]3C[C@H](O)[C@]12C

>  <Structure_dimension>  (1698) 
2D

$$$$
MS1766
     RDKit          2D

 29 32  0  0  0  0  0  0  0  0999 V2000
   -4.9165   -2.3086    0.0000 C   0  0  0  0  0  0  0  0  0  0  0  0
   -3.7338   -1.3860    0.0000 C   0  0  0  0  0  0  0  0  0  0  0  0
   -3.9415    0.0996    0.0000 C   0  0  0  0  0  0  0  0  0  0  0  0
   -5.3319    0.6625    0.0000 C   0  0  0  0  0  0  0  0  0  0  0  0
   -5.5396    2.1481    0.0000 C   0  0  0  0  0  0  0  0  0  0  0  0
   -4.3569    3.0707    0.0000 O   0  0  0  0  0  0  0  0  0  0  0  0
   -6.9299    2.7110    0.0000 O   0  0  0  0  0  0  0  0  0  0  0  0
   -2.3435   -1.9489    0.0000 C   0  0  0  0  0  0  0  0  0  0  0  0
   -1.9816   -3.4046    0.0000 C   0  0  0  0  0  0  0  0  0  0  0  0
   -0.4854   -3.5103    0.0000 C   0  0  0  0  0  0  0  0  0  0  0  0
    0.0775   -2.1199    0.0000 C   0  0  0  0  0  0  0  0  0  0  0  0
    1.4875   -1.6079    0.0000 C   0  0  0  0  0  0  0  0  0  0  0  0
    2.6358   -2.5730    0.0000 C   0  0  0  0  0  0  0  0  0  0  0  0
    4.0457   -2.0609    0.0000 C   0  0  0  0  0  0  0  0  0  0  0  0
    4.3073   -0.5839    0.0000 C   0  0  0  0  0  0  0  0  0  0  0  0
    5.7172   -0.0719    0.0000 C   0  0  0  0  0  0  0  0  0  0  0  0
    5.9787    1.4051    0.0000 C   0  0  0  0  0  0  0  0  0  0  0  0
    7.3886    1.9171    0.0000 O   0  0  0  0  0  0  0  0  0  0  0  0
    4.8304    2.3701    0.0000 C   0  0  0  0  0  0  0  0  0  0  0  0
    3.4205    1.8581    0.0000 C   0  0  0  0  0  0  0  0  0  0  0  0
    3.1589    0.3811    0.0000 C   0  0  0  0  0  0  0  0  0  0  0  0
    2.0105    1.3461    0.0000 C   0  0  0  0  0  0  0  0  0  0  0  0
    1.7490   -0.1309    0.0000 C   0  0  0  0  0  0  0  0  0  0  0  0
    0.6006    0.8341    0.0000 C   0  0  0  0  0  0  0  0  0  0  0  0
   -0.8093    0.3221    0.0000 C   0  0  0  0  0  0  0  0  0  0  0  0
   -1.9576    1.2871    0.0000 O   0  0  0  0  0  0  0  0  0  0  0  0
   -1.6961    2.7641    0.0000 O   0  0  0  0  0  0  0  0  0  0  0  0
   -1.0708   -1.1549    0.0000 C   0  0  0  0  0  0  0  0  0  0  0  0
   -2.3138   -0.3152    0.0000 C   0  0  0  0  0  0  0  0  0  0  0  0
  2  1  1  6
  2  3  1  0
  3  4  1  0
  4  5  1  0
  5  6  2  0
  5  7  1  0
  2  8  1  0
  8  9  1  6
  9 10  1  0
 11 10  1  6
 11 12  1  0
 12 13  1  1
 13 14  1  0
 15 14  1  1
 15 16  1  0
 16 17  1  0
 17 18  1  6
 17 19  1  0
 19 20  1  0
 20 21  1  0
 21 22  1  6
 21 23  1  0
 23 24  1  6
 24 25  1  0
 25 26  1  1
 26 27  1  0
 25 28  1  0
 28 29  1  6
 28  8  1  0
 28 11  1  0
 23 12  1  0
 21 15  1  0
M  END
>  <MS_ID>  (1699) 
MS1766

>  <SMILES>  (1699) 
C[C@H](CCC(=O)O)[C@H]1CC[C@H]2[C@@H]3CC[C@@H]4C[C@@H](O)CC[C@]4(C)[C@H]3C[C@H](OO)[C@]12C

>  <Structure_dimension>  (1699) 
2D

$$$$
MS1767
     RDKit          2D

 30 33  0  0  0  0  0  0  0  0999 V2000
   -4.5685   -2.6908    0.0000 C   0  0  0  0  0  0  0  0  0  0  0  0
   -3.4838   -1.6548    0.0000 C   0  0  0  0  0  0  0  0  0  0  0  0
   -3.8388   -0.1974    0.0000 C   0  0  0  0  0  0  0  0  0  0  0  0
   -5.2784    0.2240    0.0000 C   0  0  0  0  0  0  0  0  0  0  0  0
   -5.6333    1.6814    0.0000 C   0  0  0  0  0  0  0  0  0  0  0  0
   -4.5486    2.7174    0.0000 O   0  0  0  0  0  0  0  0  0  0  0  0
   -7.0729    2.1027    0.0000 C   0  0  0  0  0  0  0  0  0  0  0  0
   -7.4279    3.5601    0.0000 O   0  0  0  0  0  0  0  0  0  0  0  0
   -2.0442   -2.0761    0.0000 C   0  0  0  0  0  0  0  0  0  0  0  0
   -1.5389   -3.4884    0.0000 C   0  0  0  0  0  0  0  0  0  0  0  0
   -0.0395   -3.4442    0.0000 C   0  0  0  0  0  0  0  0  0  0  0  0
    0.3818   -2.0046    0.0000 C   0  0  0  0  0  0  0  0  0  0  0  0
    1.7336   -1.3544    0.0000 C   0  0  0  0  0  0  0  0  0  0  0  0
    2.9725   -2.1999    0.0000 C   0  0  0  0  0  0  0  0  0  0  0  0
    2.8597   -3.6957    0.0000 O   0  0  0  0  0  0  0  0  0  0  0  0
    4.3243   -1.5497    0.0000 C   0  0  0  0  0  0  0  0  0  0  0  0
    4.4371   -0.0540    0.0000 C   0  0  0  0  0  0  0  0  0  0  0  0
    5.7888    0.5962    0.0000 C   0  0  0  0  0  0  0  0  0  0  0  0
    5.9016    2.0920    0.0000 C   0  0  0  0  0  0  0  0  0  0  0  0
    7.2534    2.7422    0.0000 O   0  0  0  0  0  0  0  0  0  0  0  0
    4.6627    2.9375    0.0000 C   0  0  0  0  0  0  0  0  0  0  0  0
    3.3109    2.2873    0.0000 C   0  0  0  0  0  0  0  0  0  0  0  0
    3.1981    0.7916    0.0000 C   0  0  0  0  0  0  0  0  0  0  0  0
    1.9591    1.6371    0.0000 C   0  0  0  0  0  0  0  0  0  0  0  0
    1.8464    0.1414    0.0000 C   0  0  0  0  0  0  0  0  0  0  0  0
    0.6074    0.9869    0.0000 C   0  0  0  0  0  0  0  0  0  0  0  0
   -0.7444    0.3367    0.0000 C   0  0  0  0  0  0  0  0  0  0  0  0
   -1.9833    1.1823    0.0000 O   0  0  0  0  0  0  0  0  0  0  0  0
   -0.8572   -1.1590    0.0000 C   0  0  0  0  0  0  0  0  0  0  0  0
   -2.1777   -0.4476    0.0000 C   0  0  0  0  0  0  0  0  0  0  0  0
  2  1  1  6
  2  3  1  0
  3  4  1  0
  4  5  1  0
  5  6  2  0
  5  7  1  0
  7  8  1  0
  2  9  1  0
  9 10  1  6
 10 11  1  0
 12 11  1  6
 12 13  1  0
 13 14  1  1
 14 15  1  1
 14 16  1  0
 17 16  1  1
 17 18  1  0
 18 19  1  0
 19 20  2  0
 19 21  1  0
 21 22  1  0
 22 23  1  0
 23 24  1  6
 23 25  1  0
 25 26  1  6
 26 27  1  0
 27 28  1  6
 27 29  1  0
 29 30  1  6
 29  9  1  0
 29 12  1  0
 25 13  1  0
 23 17  1  0
M  END
>  <MS_ID>  (1700) 
MS1767

>  <SMILES>  (1700) 
C[C@H](CCC(=O)CO)[C@H]1CC[C@H]2[C@@H]3[C@H](O)C[C@@H]4CC(=O)CC[C@]4(C)[C@H]3C[C@@H](O)[C@]12C

>  <Structure_dimension>  (1700) 
2D

$$$$
MS1768
     RDKit          2D

 29 32  0  0  0  0  0  0  0  0999 V2000
   -5.0303   -2.1373    0.0000 C   0  0  0  0  0  0  0  0  0  0  0  0
   -3.8594   -1.1998    0.0000 C   0  0  0  0  0  0  0  0  0  0  0  0
   -4.0858    0.2830    0.0000 C   0  0  0  0  0  0  0  0  0  0  0  0
   -5.4831    0.8284    0.0000 C   0  0  0  0  0  0  0  0  0  0  0  0
   -5.7095    2.3112    0.0000 C   0  0  0  0  0  0  0  0  0  0  0  0
   -4.5386    3.2487    0.0000 O   0  0  0  0  0  0  0  0  0  0  0  0
   -7.1069    2.8565    0.0000 O   0  0  0  0  0  0  0  0  0  0  0  0
   -2.4620   -1.7451    0.0000 C   0  0  0  0  0  0  0  0  0  0  0  0
   -2.0818   -3.1961    0.0000 C   0  0  0  0  0  0  0  0  0  0  0  0
   -0.5844   -3.2830    0.0000 C   0  0  0  0  0  0  0  0  0  0  0  0
   -0.0390   -1.8856    0.0000 C   0  0  0  0  0  0  0  0  0  0  0  0
    1.3643   -1.3559    0.0000 C   0  0  0  0  0  0  0  0  0  0  0  0
    2.5248   -2.3063    0.0000 C   0  0  0  0  0  0  0  0  0  0  0  0
    2.2819   -3.7865    0.0000 N   0  0  0  0  0  0  0  0  0  0  0  0
    3.9281   -1.7765    0.0000 C   0  0  0  0  0  0  0  0  0  0  0  0
    4.1710   -0.2963    0.0000 C   0  0  0  0  0  0  0  0  0  0  0  0
    5.5743    0.2334    0.0000 C   0  0  0  0  0  0  0  0  0  0  0  0
    5.8172    1.7136    0.0000 C   0  0  0  0  0  0  0  0  0  0  0  0
    7.2205    2.2434    0.0000 O   0  0  0  0  0  0  0  0  0  0  0  0
    4.6568    2.6641    0.0000 C   0  0  0  0  0  0  0  0  0  0  0  0
    3.2534    2.1343    0.0000 C   0  0  0  0  0  0  0  0  0  0  0  0
    3.0105    0.6541    0.0000 C   0  0  0  0  0  0  0  0  0  0  0  0
    1.8501    1.6046    0.0000 C   0  0  0  0  0  0  0  0  0  0  0  0
    1.6072    0.1244    0.0000 C   0  0  0  0  0  0  0  0  0  0  0  0
    0.4467    1.0748    0.0000 C   0  0  0  0  0  0  0  0  0  0  0  0
   -0.9566    0.5450    0.0000 C   0  0  0  0  0  0  0  0  0  0  0  0
   -2.1170    1.4955    0.0000 O   0  0  0  0  0  0  0  0  0  0  0  0
   -1.1995   -0.9352    0.0000 C   0  0  0  0  0  0  0  0  0  0  0  0
   -2.4529   -0.1112    0.0000 C   0  0  0  0  0  0  0  0  0  0  0  0
  2  1  1  6
  2  3  1  0
  3  4  1  0
  4  5  1  0
  5  6  2  0
  5  7  1  0
  2  8  1  0
  8  9  1  6
  9 10  1  0
 11 10  1  6
 11 12  1  0
 12 13  1  1
 13 14  1  6
 13 15  1  0
 16 15  1  1
 16 17  1  0
 17 18  1  0
 18 19  1  6
 18 20  1  0
 20 21  1  0
 21 22  1  0
 22 23  1  6
 22 24  1  0
 24 25  1  6
 25 26  1  0
 26 27  1  1
 26 28  1  0
 28 29  1  6
 28  8  1  0
 28 11  1  0
 24 12  1  0
 22 16  1  0
M  END
>  <MS_ID>  (1701) 
MS1768

>  <SMILES>  (1701) 
C[C@H](CCC(=O)O)[C@H]1CC[C@H]2[C@@H]3[C@@H](N)C[C@@H]4C[C@@H](O)CC[C@]4(C)[C@H]3C[C@H](O)[C@]12C

>  <Structure_dimension>  (1701) 
2D

$$$$
MS1769
     RDKit          2D

 28 31  0  0  0  0  0  0  0  0999 V2000
   -5.0096   -2.1352    0.0000 C   0  0  0  0  0  0  0  0  0  0  0  0
   -3.8132   -1.2303    0.0000 C   0  0  0  0  0  0  0  0  0  0  0  0
   -3.9987    0.2582    0.0000 C   0  0  0  0  0  0  0  0  0  0  0  0
   -5.3805    0.8418    0.0000 C   0  0  0  0  0  0  0  0  0  0  0  0
   -5.5659    2.3303    0.0000 C   0  0  0  0  0  0  0  0  0  0  0  0
   -4.3695    3.2351    0.0000 O   0  0  0  0  0  0  0  0  0  0  0  0
   -6.9477    2.9140    0.0000 O   0  0  0  0  0  0  0  0  0  0  0  0
   -2.4315   -1.8140    0.0000 C   0  0  0  0  0  0  0  0  0  0  0  0
   -2.0914   -3.2749    0.0000 C   0  0  0  0  0  0  0  0  0  0  0  0
   -0.5969   -3.4030    0.0000 C   0  0  0  0  0  0  0  0  0  0  0  0
   -0.0133   -2.0212    0.0000 C   0  0  0  0  0  0  0  0  0  0  0  0
    1.4041   -1.5304    0.0000 C   0  0  0  0  0  0  0  0  0  0  0  0
    2.5379   -2.5125    0.0000 C   0  0  0  0  0  0  0  0  0  0  0  0
    3.9554   -2.0216    0.0000 C   0  0  0  0  0  0  0  0  0  0  0  0
    4.2390   -0.5487    0.0000 C   0  0  0  0  0  0  0  0  0  0  0  0
    5.6564   -0.0578    0.0000 C   0  0  0  0  0  0  0  0  0  0  0  0
    5.9400    1.4151    0.0000 C   0  0  0  0  0  0  0  0  0  0  0  0
    7.3574    1.9060    0.0000 O   0  0  0  0  0  0  0  0  0  0  0  0
    4.8062    2.3972    0.0000 C   0  0  0  0  0  0  0  0  0  0  0  0
    3.3888    1.9064    0.0000 C   0  0  0  0  0  0  0  0  0  0  0  0
    3.1052    0.4334    0.0000 C   0  0  0  0  0  0  0  0  0  0  0  0
    1.9714    1.4155    0.0000 C   0  0  0  0  0  0  0  0  0  0  0  0
    1.6878   -0.0574    0.0000 C   0  0  0  0  0  0  0  0  0  0  0  0
    0.5540    0.9246    0.0000 C   0  0  0  0  0  0  0  0  0  0  0  0
   -0.8635    0.4338    0.0000 C   0  0  0  0  0  0  0  0  0  0  0  0
   -1.9973    1.4159    0.0000 O   0  0  0  0  0  0  0  0  0  0  0  0
   -1.1471   -1.0392    0.0000 C   0  0  0  0  0  0  0  0  0  0  0  0
   -2.3773   -0.1810    0.0000 C   0  0  0  0  0  0  0  0  0  0  0  0
  2  1  1  1
  2  3  1  0
  3  4  1  0
  4  5  1  0
  5  6  2  0
  5  7  1  0
  2  8  1  0
  8  9  1  6
  9 10  1  0
 11 10  1  6
 11 12  1  0
 12 13  1  1
 13 14  1  0
 15 14  1  1
 15 16  1  0
 16 17  1  0
 17 18  1  6
 17 19  1  0
 19 20  1  0
 20 21  1  0
 21 22  1  6
 21 23  1  0
 23 24  1  6
 24 25  1  0
 25 26  1  1
 25 27  1  0
 27 28  1  6
 27  8  1  0
 27 11  1  0
 23 12  1  0
 21 15  1  0
M  END
>  <MS_ID>  (1702) 
MS1769

>  <SMILES>  (1702) 
C[C@@H](CCC(=O)O)[C@H]1CC[C@H]2[C@@H]3CC[C@@H]4C[C@@H](O)CC[C@]4(C)[C@H]3C[C@H](O)[C@]12C

>  <Structure_dimension>  (1702) 
2D

$$$$
MS1770
     RDKit          2D

 39 43  0  0  0  0  0  0  0  0999 V2000
   -0.7363   -4.1828    0.0000 C   0  0  0  0  0  0  0  0  0  0  0  0
   -0.0035   -2.8740    0.0000 C   0  0  0  0  0  0  0  0  0  0  0  0
   -0.7705   -1.5849    0.0000 C   0  0  0  0  0  0  0  0  0  0  0  0
   -2.2704   -1.6047    0.0000 C   0  0  0  0  0  0  0  0  0  0  0  0
   -3.0375   -0.3157    0.0000 C   0  0  0  0  0  0  0  0  0  0  0  0
   -2.3047    0.9931    0.0000 O   0  0  0  0  0  0  0  0  0  0  0  0
   -4.5373   -0.3355    0.0000 N   0  0  0  0  0  0  0  0  0  0  0  0
   -5.3044    0.9535    0.0000 C   0  0  0  0  0  0  0  0  0  0  0  0
   -6.8043    0.9338    0.0000 C   0  0  0  0  0  0  0  0  0  0  0  0
   -7.5714    2.2228    0.0000 C   0  0  0  0  0  0  0  0  0  0  0  0
   -9.0712    2.2030    0.0000 C   0  0  0  0  0  0  0  0  0  0  0  0
   -9.8040    0.8942    0.0000 C   0  0  0  0  0  0  0  0  0  0  0  0
  -11.3039    0.8744    0.0000 C   0  0  0  0  0  0  0  0  0  0  0  0
  -12.0367   -0.4344    0.0000 O   0  0  0  0  0  0  0  0  0  0  0  0
  -12.0710    2.1634    0.0000 O   0  0  0  0  0  0  0  0  0  0  0  0
   -9.0370   -0.3949    0.0000 C   0  0  0  0  0  0  0  0  0  0  0  0
   -7.5371   -0.3751    0.0000 C   0  0  0  0  0  0  0  0  0  0  0  0
    1.4964   -2.8542    0.0000 C   0  0  0  0  0  0  0  0  0  0  0  0
    2.3940   -4.0560    0.0000 C   0  0  0  0  0  0  0  0  0  0  0  0
    3.8144   -3.5737    0.0000 C   0  0  0  0  0  0  0  0  0  0  0  0
    3.7946   -2.0738    0.0000 C   0  0  0  0  0  0  0  0  0  0  0  0
    4.8960   -1.0555    0.0000 C   0  0  0  0  0  0  0  0  0  0  0  0
    6.3285   -1.5002    0.0000 C   0  0  0  0  0  0  0  0  0  0  0  0
    6.6597   -2.9631    0.0000 O   0  0  0  0  0  0  0  0  0  0  0  0
    7.4299   -0.4818    0.0000 C   0  0  0  0  0  0  0  0  0  0  0  0
    7.0987    0.9811    0.0000 C   0  0  0  0  0  0  0  0  0  0  0  0
    8.2001    1.9995    0.0000 C   0  0  0  0  0  0  0  0  0  0  0  0
    7.8689    3.4624    0.0000 C   0  0  0  0  0  0  0  0  0  0  0  0
    8.9703    4.4807    0.0000 O   0  0  0  0  0  0  0  0  0  0  0  0
    6.4363    3.9071    0.0000 C   0  0  0  0  0  0  0  0  0  0  0  0
    5.3349    2.8888    0.0000 C   0  0  0  0  0  0  0  0  0  0  0  0
    5.6661    1.4258    0.0000 C   0  0  0  0  0  0  0  0  0  0  0  0
    4.2336    1.8705    0.0000 C   0  0  0  0  0  0  0  0  0  0  0  0
    4.5648    0.4075    0.0000 C   0  0  0  0  0  0  0  0  0  0  0  0
    3.1322    0.8522    0.0000 C   0  0  0  0  0  0  0  0  0  0  0  0
    2.0308   -0.1662    0.0000 C   0  0  0  0  0  0  0  0  0  0  0  0
    0.5982    0.2785    0.0000 O   0  0  0  0  0  0  0  0  0  0  0  0
    2.3620   -1.6291    0.0000 C   0  0  0  0  0  0  0  0  0  0  0  0
    0.8908   -1.3367    0.0000 C   0  0  0  0  0  0  0  0  0  0  0  0
  2  1  1  6
  2  3  1  0
  3  4  1  0
  4  5  1  0
  5  6  2  0
  5  7  1  0
  7  8  1  0
  8  9  1  0
  9 10  2  0
 10 11  1  0
 11 12  2  0
 12 13  1  0
 13 14  2  0
 13 15  1  0
 12 16  1  0
 16 17  2  0
  2 18  1  0
 18 19  1  6
 19 20  1  0
 21 20  1  6
 21 22  1  0
 22 23  1  1
 23 24  1  1
 23 25  1  0
 26 25  1  1
 26 27  1  0
 27 28  1  0
 28 29  1  1
 28 30  1  0
 30 31  1  0
 31 32  1  0
 32 33  1  6
 32 34  1  0
 34 35  1  6
 35 36  1  0
 36 37  1  1
 36 38  1  0
 38 39  1  6
 17  9  1  0
 38 18  1  0
 38 21  1  0
 34 22  1  0
 32 26  1  0
M  END
>  <MS_ID>  (1703) 
MS1770

>  <SMILES>  (1703) 
C[C@H](CCC(=O)NCc1ccc(C(=O)O)cc1)[C@H]1CC[C@H]2[C@@H]3[C@H](O)C[C@@H]4C[C@H](O)CC[C@]4(C)[C@H]3C[C@H](O)[C@]12C

>  <Structure_dimension>  (1703) 
2D

$$$$
MS1771
     RDKit          2D

 30 33  0  0  0  0  0  0  0  0999 V2000
   -8.9136    3.2062    0.0000 C   0  0  0  0  0  0  0  0  0  0  0  0
   -7.4457    2.8978    0.0000 S   0  0  0  0  0  0  0  0  0  0  0  0
   -6.9787    1.4724    0.0000 N   0  0  0  0  0  0  0  0  0  0  0  0
   -5.5108    1.1640    0.0000 C   0  0  0  0  0  0  0  0  0  0  0  0
   -4.5097    2.2811    0.0000 O   0  0  0  0  0  0  0  0  0  0  0  0
   -5.0438   -0.2615    0.0000 C   0  0  0  0  0  0  0  0  0  0  0  0
   -3.5759   -0.5698    0.0000 C   0  0  0  0  0  0  0  0  0  0  0  0
   -3.1089   -1.9953    0.0000 C   0  0  0  0  0  0  0  0  0  0  0  0
   -4.1099   -3.1124    0.0000 C   0  0  0  0  0  0  0  0  0  0  0  0
   -1.6409   -2.3036    0.0000 C   0  0  0  0  0  0  0  0  0  0  0  0
   -1.0276   -3.6725    0.0000 C   0  0  0  0  0  0  0  0  0  0  0  0
    0.4638   -3.5121    0.0000 C   0  0  0  0  0  0  0  0  0  0  0  0
    0.7722   -2.0441    0.0000 C   0  0  0  0  0  0  0  0  0  0  0  0
    2.0694   -1.2910    0.0000 C   0  0  0  0  0  0  0  0  0  0  0  0
    3.3703   -2.0379    0.0000 C   0  0  0  0  0  0  0  0  0  0  0  0
    3.3739   -3.5379    0.0000 O   0  0  0  0  0  0  0  0  0  0  0  0
    4.6675   -1.2848    0.0000 C   0  0  0  0  0  0  0  0  0  0  0  0
    4.6639    0.2152    0.0000 C   0  0  0  0  0  0  0  0  0  0  0  0
    5.9611    0.9683    0.0000 C   0  0  0  0  0  0  0  0  0  0  0  0
    5.9575    2.4683    0.0000 C   0  0  0  0  0  0  0  0  0  0  0  0
    7.2548    3.2214    0.0000 O   0  0  0  0  0  0  0  0  0  0  0  0
    4.6567    3.2152    0.0000 C   0  0  0  0  0  0  0  0  0  0  0  0
    3.3595    2.4621    0.0000 C   0  0  0  0  0  0  0  0  0  0  0  0
    3.3631    0.9621    0.0000 C   0  0  0  0  0  0  0  0  0  0  0  0
    2.0622    1.7090    0.0000 C   0  0  0  0  0  0  0  0  0  0  0  0
    2.0658    0.2090    0.0000 C   0  0  0  0  0  0  0  0  0  0  0  0
    0.7650    0.9559    0.0000 C   0  0  0  0  0  0  0  0  0  0  0  0
   -0.5322    0.2027    0.0000 C   0  0  0  0  0  0  0  0  0  0  0  0
   -0.5286   -1.2973    0.0000 C   0  0  0  0  0  0  0  0  0  0  0  0
   -1.9004   -0.6904    0.0000 C   0  0  0  0  0  0  0  0  0  0  0  0
  1  2  1  0
  2  3  1  0
  3  4  1  0
  4  5  2  0
  4  6  1  0
  6  7  1  0
  7  8  1  0
  8  9  1  6
  8 10  1  0
 10 11  1  6
 11 12  1  0
 13 12  1  6
 13 14  1  0
 14 15  1  1
 15 16  1  1
 15 17  1  0
 18 17  1  1
 18 19  1  0
 19 20  1  0
 20 21  1  1
 20 22  1  0
 22 23  1  0
 23 24  1  0
 24 25  1  6
 24 26  1  0
 26 27  1  6
 27 28  1  0
 28 29  1  0
 29 30  1  6
 29 10  1  0
 29 13  1  0
 26 14  1  0
 24 18  1  0
M  END
>  <MS_ID>  (1704) 
MS1771

>  <SMILES>  (1704) 
CSNC(=O)CC[C@@H](C)[C@H]1CC[C@H]2[C@@H]3[C@H](O)C[C@@H]4C[C@H](O)CC[C@]4(C)[C@H]3CC[C@]12C

>  <Structure_dimension>  (1704) 
2D

$$$$
MS1772
     RDKit          2D

 32 36  0  0  0  0  0  0  0  0999 V2000
   -3.4960   -3.2106    0.0000 C   0  0  0  0  0  0  0  0  0  0  0  0
   -2.5154   -2.0755    0.0000 C   0  0  0  0  0  0  0  0  0  0  0  0
   -3.0082   -0.6588    0.0000 C   0  0  0  0  0  0  0  0  0  0  0  0
   -4.4815   -0.3771    0.0000 C   0  0  0  0  0  0  0  0  0  0  0  0
   -4.9742    1.0397    0.0000 C   0  0  0  0  0  0  0  0  0  0  0  0
   -3.9936    2.1748    0.0000 O   0  0  0  0  0  0  0  0  0  0  0  0
   -6.4475    1.3214    0.0000 C   0  0  0  0  0  0  0  0  0  0  0  0
   -7.5414    0.2950    0.0000 C   0  0  0  0  0  0  0  0  0  0  0  0
   -8.8556    1.0181    0.0000 C   0  0  0  0  0  0  0  0  0  0  0  0
   -8.5739    2.4915    0.0000 C   0  0  0  0  0  0  0  0  0  0  0  0
   -7.0856    2.6789    0.0000 O   0  0  0  0  0  0  0  0  0  0  0  0
   -1.0421   -2.3572    0.0000 C   0  0  0  0  0  0  0  0  0  0  0  0
   -0.4040   -3.7147    0.0000 C   0  0  0  0  0  0  0  0  0  0  0  0
    1.0842   -3.5273    0.0000 C   0  0  0  0  0  0  0  0  0  0  0  0
    1.3659   -2.0540    0.0000 C   0  0  0  0  0  0  0  0  0  0  0  0
    2.6493   -1.2775    0.0000 C   0  0  0  0  0  0  0  0  0  0  0  0
    3.9634   -2.0006    0.0000 C   0  0  0  0  0  0  0  0  0  0  0  0
    3.9942   -3.5003    0.0000 O   0  0  0  0  0  0  0  0  0  0  0  0
    5.2468   -1.2241    0.0000 C   0  0  0  0  0  0  0  0  0  0  0  0
    5.2160    0.2756    0.0000 C   0  0  0  0  0  0  0  0  0  0  0  0
    6.4994    1.0521    0.0000 C   0  0  0  0  0  0  0  0  0  0  0  0
    6.4685    2.5518    0.0000 C   0  0  0  0  0  0  0  0  0  0  0  0
    7.7519    3.3283    0.0000 O   0  0  0  0  0  0  0  0  0  0  0  0
    5.1544    3.2749    0.0000 C   0  0  0  0  0  0  0  0  0  0  0  0
    3.8710    2.4984    0.0000 C   0  0  0  0  0  0  0  0  0  0  0  0
    3.9018    0.9987    0.0000 C   0  0  0  0  0  0  0  0  0  0  0  0
    2.5877    1.7219    0.0000 C   0  0  0  0  0  0  0  0  0  0  0  0
    2.6185    0.2222    0.0000 C   0  0  0  0  0  0  0  0  0  0  0  0
    1.3043    0.9454    0.0000 C   0  0  0  0  0  0  0  0  0  0  0  0
    0.0209    0.1689    0.0000 C   0  0  0  0  0  0  0  0  0  0  0  0
    0.0517   -1.3308    0.0000 C   0  0  0  0  0  0  0  0  0  0  0  0
   -1.3308   -0.7490    0.0000 C   0  0  0  0  0  0  0  0  0  0  0  0
  2  1  1  6
  2  3  1  0
  3  4  1  0
  4  5  1  0
  5  6  2  0
  5  7  1  0
  7  8  2  0
  8  9  1  0
  9 10  2  0
 10 11  1  0
  2 12  1  0
 12 13  1  6
 13 14  1  0
 15 14  1  6
 15 16  1  0
 16 17  1  1
 17 18  1  1
 17 19  1  0
 20 19  1  1
 20 21  1  0
 21 22  1  0
 22 23  1  1
 22 24  1  0
 24 25  1  0
 25 26  1  0
 26 27  1  6
 26 28  1  0
 28 29  1  6
 29 30  1  0
 30 31  1  0
 31 32  1  6
 11  7  1  0
 31 12  1  0
 31 15  1  0
 28 16  1  0
 26 20  1  0
M  END
>  <MS_ID>  (1705) 
MS1772

>  <SMILES>  (1705) 
C[C@H](CCC(=O)c1ccco1)[C@H]1CC[C@H]2[C@@H]3[C@H](O)C[C@@H]4C[C@H](O)CC[C@]4(C)[C@H]3CC[C@]12C

>  <Structure_dimension>  (1705) 
2D

$$$$
MS1773
     RDKit          2D

 30 33  0  0  0  0  0  0  0  0999 V2000
   -8.6575    3.2831    0.0000 C   0  0  0  0  0  0  0  0  0  0  0  0
   -7.1981    2.9366    0.0000 C   0  0  0  0  0  0  0  0  0  0  0  0
   -6.7684    1.4995    0.0000 O   0  0  0  0  0  0  0  0  0  0  0  0
   -5.3090    1.1530    0.0000 C   0  0  0  0  0  0  0  0  0  0  0  0
   -4.2792    2.2437    0.0000 O   0  0  0  0  0  0  0  0  0  0  0  0
   -4.8793   -0.2841    0.0000 C   0  0  0  0  0  0  0  0  0  0  0  0
   -3.4199   -0.6306    0.0000 C   0  0  0  0  0  0  0  0  0  0  0  0
   -2.9902   -2.0677    0.0000 C   0  0  0  0  0  0  0  0  0  0  0  0
   -4.0199   -3.1584    0.0000 C   0  0  0  0  0  0  0  0  0  0  0  0
   -1.5307   -2.4142    0.0000 C   0  0  0  0  0  0  0  0  0  0  0  0
   -0.9532   -3.7985    0.0000 C   0  0  0  0  0  0  0  0  0  0  0  0
    0.5419   -3.6770    0.0000 C   0  0  0  0  0  0  0  0  0  0  0  0
    0.8883   -2.2176    0.0000 C   0  0  0  0  0  0  0  0  0  0  0  0
    2.2047   -1.4985    0.0000 C   0  0  0  0  0  0  0  0  0  0  0  0
    3.4857   -2.2790    0.0000 C   0  0  0  0  0  0  0  0  0  0  0  0
    4.8021   -1.5599    0.0000 C   0  0  0  0  0  0  0  0  0  0  0  0
    4.8375   -0.0603    0.0000 C   0  0  0  0  0  0  0  0  0  0  0  0
    6.1539    0.6588    0.0000 C   0  0  0  0  0  0  0  0  0  0  0  0
    6.1894    2.1583    0.0000 C   0  0  0  0  0  0  0  0  0  0  0  0
    7.5058    2.8774    0.0000 O   0  0  0  0  0  0  0  0  0  0  0  0
    4.9084    2.9388    0.0000 C   0  0  0  0  0  0  0  0  0  0  0  0
    3.5920    2.2197    0.0000 C   0  0  0  0  0  0  0  0  0  0  0  0
    3.5566    0.7202    0.0000 C   0  0  0  0  0  0  0  0  0  0  0  0
    2.2756    1.5007    0.0000 C   0  0  0  0  0  0  0  0  0  0  0  0
    2.2402    0.0011    0.0000 C   0  0  0  0  0  0  0  0  0  0  0  0
    0.9592    0.7816    0.0000 C   0  0  0  0  0  0  0  0  0  0  0  0
   -0.3572    0.0625    0.0000 C   0  0  0  0  0  0  0  0  0  0  0  0
   -1.6381    0.8430    0.0000 O   0  0  0  0  0  0  0  0  0  0  0  0
   -0.3926   -1.4371    0.0000 C   0  0  0  0  0  0  0  0  0  0  0  0
   -1.7481   -0.7948    0.0000 C   0  0  0  0  0  0  0  0  0  0  0  0
  1  2  1  0
  2  3  1  0
  3  4  1  0
  4  5  2  0
  4  6  1  0
  6  7  1  0
  7  8  1  0
  8  9  1  6
  8 10  1  0
 10 11  1  6
 11 12  1  0
 13 12  1  6
 13 14  1  0
 14 15  1  1
 15 16  1  0
 17 16  1  1
 17 18  1  0
 18 19  1  0
 19 20  1  6
 19 21  1  0
 21 22  1  0
 22 23  1  0
 23 24  1  6
 23 25  1  0
 25 26  1  6
 26 27  1  0
 27 28  1  1
 27 29  1  0
 29 30  1  6
 29 10  1  0
 29 13  1  0
 25 14  1  0
 23 17  1  0
M  END
>  <MS_ID>  (1706) 
MS1773

>  <SMILES>  (1706) 
CCOC(=O)CC[C@@H](C)[C@H]1CC[C@H]2[C@@H]3CC[C@@H]4C[C@@H](O)CC[C@]4(C)[C@H]3C[C@H](O)[C@]12C

>  <Structure_dimension>  (1706) 
2D

$$$$
MS1774
     RDKit          2D

 34 38  0  0  0  0  0  0  0  0999 V2000
   -2.2608   -4.3306    0.0000 C   0  0  0  0  0  0  0  0  0  0  0  0
   -1.5430   -3.0135    0.0000 C   0  0  0  0  0  0  0  0  0  0  0  0
   -2.3248   -1.7333    0.0000 C   0  0  0  0  0  0  0  0  0  0  0  0
   -3.8244   -1.7702    0.0000 C   0  0  0  0  0  0  0  0  0  0  0  0
   -4.6061   -0.4901    0.0000 C   0  0  0  0  0  0  0  0  0  0  0  0
   -3.8883    0.8271    0.0000 O   0  0  0  0  0  0  0  0  0  0  0  0
   -6.1057   -0.5270    0.0000 N   0  0  0  0  0  0  0  0  0  0  0  0
   -6.8874    0.7532    0.0000 C   0  0  0  0  0  0  0  0  0  0  0  0
   -6.1696    2.0703    0.0000 N   0  0  0  0  0  0  0  0  0  0  0  0
   -6.9514    3.3505    0.0000 C   0  0  0  0  0  0  0  0  0  0  0  0
   -8.4509    3.3135    0.0000 C   0  0  0  0  0  0  0  0  0  0  0  0
   -9.1687    1.9964    0.0000 C   0  0  0  0  0  0  0  0  0  0  0  0
   -8.3870    0.7163    0.0000 N   0  0  0  0  0  0  0  0  0  0  0  0
   -0.0435   -2.9765    0.0000 C   0  0  0  0  0  0  0  0  0  0  0  0
    0.8678   -4.1680    0.0000 C   0  0  0  0  0  0  0  0  0  0  0  0
    2.2825   -3.6695    0.0000 C   0  0  0  0  0  0  0  0  0  0  0  0
    2.2456   -2.1699    0.0000 C   0  0  0  0  0  0  0  0  0  0  0  0
    3.3353   -1.1391    0.0000 C   0  0  0  0  0  0  0  0  0  0  0  0
    4.7728   -1.5673    0.0000 C   0  0  0  0  0  0  0  0  0  0  0  0
    5.1207   -3.0264    0.0000 O   0  0  0  0  0  0  0  0  0  0  0  0
    5.8625   -0.5365    0.0000 C   0  0  0  0  0  0  0  0  0  0  0  0
    5.5146    0.9226    0.0000 C   0  0  0  0  0  0  0  0  0  0  0  0
    6.6043    1.9534    0.0000 C   0  0  0  0  0  0  0  0  0  0  0  0
    6.2564    3.4125    0.0000 C   0  0  0  0  0  0  0  0  0  0  0  0
    7.3460    4.4434    0.0000 O   0  0  0  0  0  0  0  0  0  0  0  0
    4.8188    3.8408    0.0000 C   0  0  0  0  0  0  0  0  0  0  0  0
    3.7291    2.8099    0.0000 C   0  0  0  0  0  0  0  0  0  0  0  0
    4.0770    1.3509    0.0000 C   0  0  0  0  0  0  0  0  0  0  0  0
    2.6395    1.7791    0.0000 C   0  0  0  0  0  0  0  0  0  0  0  0
    2.9874    0.3200    0.0000 C   0  0  0  0  0  0  0  0  0  0  0  0
    1.5498    0.7483    0.0000 C   0  0  0  0  0  0  0  0  0  0  0  0
    0.4601   -0.2826    0.0000 C   0  0  0  0  0  0  0  0  0  0  0  0
    0.8080   -1.7417    0.0000 C   0  0  0  0  0  0  0  0  0  0  0  0
   -0.6664   -1.4660    0.0000 C   0  0  0  0  0  0  0  0  0  0  0  0
  2  1  1  6
  2  3  1  0
  3  4  1  0
  4  5  1  0
  5  6  2  0
  5  7  1  0
  7  8  1  0
  8  9  2  0
  9 10  1  0
 10 11  2  0
 11 12  1  0
 12 13  2  0
  2 14  1  0
 14 15  1  6
 15 16  1  0
 17 16  1  6
 17 18  1  0
 18 19  1  1
 19 20  1  1
 19 21  1  0
 22 21  1  1
 22 23  1  0
 23 24  1  0
 24 25  1  1
 24 26  1  0
 26 27  1  0
 27 28  1  0
 28 29  1  6
 28 30  1  0
 30 31  1  6
 31 32  1  0
 32 33  1  0
 33 34  1  6
 13  8  1  0
 33 14  1  0
 33 17  1  0
 30 18  1  0
 28 22  1  0
M  END
>  <MS_ID>  (1707) 
MS1774

>  <SMILES>  (1707) 
C[C@H](CCC(=O)Nc1ncccn1)[C@H]1CC[C@H]2[C@@H]3[C@H](O)C[C@@H]4C[C@H](O)CC[C@]4(C)[C@H]3CC[C@]12C

>  <Structure_dimension>  (1707) 
2D

$$$$
MS1775
     RDKit          2D

 34 37  0  0  0  0  0  0  0  0999 V2000
   -2.0977   -4.2052    0.0000 C   0  0  0  0  0  0  0  0  0  0  0  0
   -1.3153   -2.9254    0.0000 C   0  0  0  0  0  0  0  0  0  0  0  0
   -2.0324   -1.6079    0.0000 C   0  0  0  0  0  0  0  0  0  0  0  0
   -3.5319   -1.5702    0.0000 C   0  0  0  0  0  0  0  0  0  0  0  0
   -4.2490   -0.2527    0.0000 C   0  0  0  0  0  0  0  0  0  0  0  0
   -3.4665    1.0271    0.0000 O   0  0  0  0  0  0  0  0  0  0  0  0
   -5.7485   -0.2149    0.0000 C   0  0  0  0  0  0  0  0  0  0  0  0
   -6.4655    1.1026    0.0000 C   0  0  0  0  0  0  0  0  0  0  0  0
   -7.9651    1.1403    0.0000 C   0  0  0  0  0  0  0  0  0  0  0  0
   -8.7475   -0.1394    0.0000 N   0  0  0  0  0  0  0  0  0  0  0  0
   -8.6821    2.4578    0.0000 C   0  0  0  0  0  0  0  0  0  0  0  0
   -7.8997    3.7376    0.0000 O   0  0  0  0  0  0  0  0  0  0  0  0
  -10.1817    2.4956    0.0000 O   0  0  0  0  0  0  0  0  0  0  0  0
    0.1842   -2.9632    0.0000 C   0  0  0  0  0  0  0  0  0  0  0  0
    1.0351   -4.1985    0.0000 C   0  0  0  0  0  0  0  0  0  0  0  0
    2.4729   -3.7711    0.0000 C   0  0  0  0  0  0  0  0  0  0  0  0
    2.5106   -2.2715    0.0000 C   0  0  0  0  0  0  0  0  0  0  0  0
    3.6503   -1.2962    0.0000 C   0  0  0  0  0  0  0  0  0  0  0  0
    5.0647   -1.7955    0.0000 C   0  0  0  0  0  0  0  0  0  0  0  0
    6.2044   -0.8202    0.0000 C   0  0  0  0  0  0  0  0  0  0  0  0
    5.9295    0.6544    0.0000 C   0  0  0  0  0  0  0  0  0  0  0  0
    7.0691    1.6298    0.0000 C   0  0  0  0  0  0  0  0  0  0  0  0
    6.7943    3.1044    0.0000 C   0  0  0  0  0  0  0  0  0  0  0  0
    7.9339    4.0797    0.0000 O   0  0  0  0  0  0  0  0  0  0  0  0
    5.3798    3.6036    0.0000 C   0  0  0  0  0  0  0  0  0  0  0  0
    4.2402    2.6283    0.0000 C   0  0  0  0  0  0  0  0  0  0  0  0
    4.5151    1.1537    0.0000 C   0  0  0  0  0  0  0  0  0  0  0  0
    3.1006    1.6530    0.0000 C   0  0  0  0  0  0  0  0  0  0  0  0
    3.3754    0.1784    0.0000 C   0  0  0  0  0  0  0  0  0  0  0  0
    1.9610    0.6777    0.0000 C   0  0  0  0  0  0  0  0  0  0  0  0
    0.8213   -0.2976    0.0000 C   0  0  0  0  0  0  0  0  0  0  0  0
   -0.5931    0.2016    0.0000 O   0  0  0  0  0  0  0  0  0  0  0  0
    1.0962   -1.7723    0.0000 C   0  0  0  0  0  0  0  0  0  0  0  0
   -0.3627   -1.4236    0.0000 C   0  0  0  0  0  0  0  0  0  0  0  0
  2  1  1  6
  2  3  1  0
  3  4  1  0
  4  5  1  0
  5  6  2  0
  5  7  1  0
  7  8  1  0
  8  9  1  0
  9 10  1  6
  9 11  1  0
 11 12  2  0
 11 13  1  0
  2 14  1  0
 14 15  1  6
 15 16  1  0
 17 16  1  6
 17 18  1  0
 18 19  1  1
 19 20  1  0
 21 20  1  1
 21 22  1  0
 22 23  1  0
 23 24  1  1
 23 25  1  0
 25 26  1  0
 26 27  1  0
 27 28  1  6
 27 29  1  0
 29 30  1  6
 30 31  1  0
 31 32  1  1
 31 33  1  0
 33 34  1  6
 33 14  1  0
 33 17  1  0
 29 18  1  0
 27 21  1  0
M  END
>  <MS_ID>  (1708) 
MS1775

>  <SMILES>  (1708) 
C[C@H](CCC(=O)CC[C@H](N)C(=O)O)[C@H]1CC[C@H]2[C@@H]3CC[C@@H]4C[C@H](O)CC[C@]4(C)[C@H]3C[C@H](O)[C@]12C

>  <Structure_dimension>  (1708) 
2D

$$$$
MS1776
     RDKit          2D

 38 42  0  0  0  0  0  0  0  0999 V2000
   -0.6552   -4.8882    0.0000 C   0  0  0  0  0  0  0  0  0  0  0  0
   -0.0536   -3.5141    0.0000 C   0  0  0  0  0  0  0  0  0  0  0  0
   -0.9428   -2.3061    0.0000 C   0  0  0  0  0  0  0  0  0  0  0  0
   -2.4336   -2.4722    0.0000 C   0  0  0  0  0  0  0  0  0  0  0  0
   -3.3228   -1.2641    0.0000 C   0  0  0  0  0  0  0  0  0  0  0  0
   -2.7212    0.1099    0.0000 O   0  0  0  0  0  0  0  0  0  0  0  0
   -4.8136   -1.4302    0.0000 O   0  0  0  0  0  0  0  0  0  0  0  0
   -5.7028   -0.2222    0.0000 C   0  0  0  0  0  0  0  0  0  0  0  0
   -5.1012    1.1519    0.0000 O   0  0  0  0  0  0  0  0  0  0  0  0
   -5.9905    2.3599    0.0000 C   0  0  0  0  0  0  0  0  0  0  0  0
   -5.3889    3.7340    0.0000 C   0  0  0  0  0  0  0  0  0  0  0  0
   -3.8981    3.9001    0.0000 O   0  0  0  0  0  0  0  0  0  0  0  0
   -7.4812    2.1938    0.0000 C   0  0  0  0  0  0  0  0  0  0  0  0
   -8.3705    3.4018    0.0000 O   0  0  0  0  0  0  0  0  0  0  0  0
   -8.0828    0.8197    0.0000 C   0  0  0  0  0  0  0  0  0  0  0  0
   -9.5736    0.6536    0.0000 O   0  0  0  0  0  0  0  0  0  0  0  0
   -7.1936   -0.3883    0.0000 C   0  0  0  0  0  0  0  0  0  0  0  0
   -7.7951   -1.7624    0.0000 O   0  0  0  0  0  0  0  0  0  0  0  0
    1.4372   -3.3480    0.0000 C   0  0  0  0  0  0  0  0  0  0  0  0
    2.4478   -4.4565    0.0000 C   0  0  0  0  0  0  0  0  0  0  0  0
    3.8143   -3.8378    0.0000 C   0  0  0  0  0  0  0  0  0  0  0  0
    3.6482   -2.3471    0.0000 C   0  0  0  0  0  0  0  0  0  0  0  0
    4.6449   -1.2261    0.0000 C   0  0  0  0  0  0  0  0  0  0  0  0
    6.1141   -1.5288    0.0000 C   0  0  0  0  0  0  0  0  0  0  0  0
    7.1108   -0.4079    0.0000 C   0  0  0  0  0  0  0  0  0  0  0  0
    6.6384    1.0158    0.0000 C   0  0  0  0  0  0  0  0  0  0  0  0
    7.6352    2.1367    0.0000 C   0  0  0  0  0  0  0  0  0  0  0  0
    7.1628    3.5604    0.0000 C   0  0  0  0  0  0  0  0  0  0  0  0
    8.1595    4.6813    0.0000 O   0  0  0  0  0  0  0  0  0  0  0  0
    5.6936    3.8631    0.0000 C   0  0  0  0  0  0  0  0  0  0  0  0
    4.6969    2.7422    0.0000 C   0  0  0  0  0  0  0  0  0  0  0  0
    5.1693    1.3185    0.0000 C   0  0  0  0  0  0  0  0  0  0  0  0
    3.7001    1.6212    0.0000 C   0  0  0  0  0  0  0  0  0  0  0  0
    4.1725    0.1976    0.0000 C   0  0  0  0  0  0  0  0  0  0  0  0
    2.7034    0.5003    0.0000 C   0  0  0  0  0  0  0  0  0  0  0  0
    1.7067   -0.6207    0.0000 C   0  0  0  0  0  0  0  0  0  0  0  0
    2.1791   -2.0443    0.0000 C   0  0  0  0  0  0  0  0  0  0  0  0
    0.6863   -1.8968    0.0000 C   0  0  0  0  0  0  0  0  0  0  0  0
  2  1  1  6
  2  3  1  0
  3  4  1  0
  4  5  1  0
  5  6  2  0
  5  7  1  0
  8  7  1  6
  8  9  1  0
  9 10  1  0
 10 11  1  1
 11 12  1  0
 10 13  1  0
 13 14  1  6
 13 15  1  0
 15 16  1  1
 15 17  1  0
 17 18  1  6
  2 19  1  0
 19 20  1  6
 20 21  1  0
 22 21  1  6
 22 23  1  0
 23 24  1  1
 24 25  1  0
 26 25  1  1
 26 27  1  0
 27 28  1  0
 28 29  1  1
 28 30  1  0
 30 31  1  0
 31 32  1  0
 32 33  1  6
 32 34  1  0
 34 35  1  6
 35 36  1  0
 36 37  1  0
 37 38  1  6
 17  8  1  0
 37 19  1  0
 37 22  1  0
 34 23  1  0
 32 26  1  0
M  END
>  <MS_ID>  (1709) 
MS1776

>  <SMILES>  (1709) 
C[C@H](CCC(=O)O[C@H]1O[C@H](CO)[C@@H](O)[C@H](O)[C@H]1O)[C@H]1CC[C@H]2[C@@H]3CC[C@@H]4C[C@H](O)CC[C@]4(C)[C@H]3CC[C@]12C

>  <Structure_dimension>  (1709) 
2D

$$$$
MS1777
     RDKit          2D

 29 32  0  0  0  0  0  0  0  0999 V2000
   -5.2182   -2.1453    0.0000 C   0  0  0  0  0  0  0  0  0  0  0  0
   -4.0752   -1.1739    0.0000 C   0  0  0  0  0  0  0  0  0  0  0  0
   -4.3449    0.3016    0.0000 C   0  0  0  0  0  0  0  0  0  0  0  0
   -5.7577    0.8058    0.0000 C   0  0  0  0  0  0  0  0  0  0  0  0
   -6.0274    2.2814    0.0000 C   0  0  0  0  0  0  0  0  0  0  0  0
   -7.4401    2.7856    0.0000 O   0  0  0  0  0  0  0  0  0  0  0  0
   -4.8843    3.2527    0.0000 Cl  0  0  0  0  0  0  0  0  0  0  0  0
   -2.6625   -1.6782    0.0000 C   0  0  0  0  0  0  0  0  0  0  0  0
   -2.2400   -3.1174    0.0000 C   0  0  0  0  0  0  0  0  0  0  0  0
   -0.7407   -3.1604    0.0000 C   0  0  0  0  0  0  0  0  0  0  0  0
   -0.2364   -1.7477    0.0000 C   0  0  0  0  0  0  0  0  0  0  0  0
    1.1508   -1.1771    0.0000 C   0  0  0  0  0  0  0  0  0  0  0  0
    2.3386   -2.0932    0.0000 C   0  0  0  0  0  0  0  0  0  0  0  0
    2.1391   -3.5798    0.0000 O   0  0  0  0  0  0  0  0  0  0  0  0
    3.7258   -1.5226    0.0000 C   0  0  0  0  0  0  0  0  0  0  0  0
    4.9136   -2.4386    0.0000 O   0  0  0  0  0  0  0  0  0  0  0  0
    3.9253   -0.0359    0.0000 C   0  0  0  0  0  0  0  0  0  0  0  0
    5.3125    0.5347    0.0000 C   0  0  0  0  0  0  0  0  0  0  0  0
    5.5119    2.0214    0.0000 C   0  0  0  0  0  0  0  0  0  0  0  0
    6.8992    2.5920    0.0000 O   0  0  0  0  0  0  0  0  0  0  0  0
    4.3242    2.9375    0.0000 C   0  0  0  0  0  0  0  0  0  0  0  0
    2.9369    2.3669    0.0000 C   0  0  0  0  0  0  0  0  0  0  0  0
    2.7375    0.8802    0.0000 C   0  0  0  0  0  0  0  0  0  0  0  0
    1.5497    1.7963    0.0000 C   0  0  0  0  0  0  0  0  0  0  0  0
    1.3502    0.3096    0.0000 C   0  0  0  0  0  0  0  0  0  0  0  0
    0.1625    1.2257    0.0000 C   0  0  0  0  0  0  0  0  0  0  0  0
   -1.2248    0.6551    0.0000 C   0  0  0  0  0  0  0  0  0  0  0  0
   -1.4242   -0.8316    0.0000 C   0  0  0  0  0  0  0  0  0  0  0  0
   -2.7012   -0.0447    0.0000 C   0  0  0  0  0  0  0  0  0  0  0  0
  2  1  1  6
  2  3  1  0
  3  4  1  0
  4  5  1  0
  5  6  2  0
  5  7  1  0
  2  8  1  0
  8  9  1  6
  9 10  1  0
 11 10  1  6
 11 12  1  0
 12 13  1  1
 13 14  1  1
 13 15  1  0
 15 16  1  1
 15 17  1  0
 17 18  1  1
 18 19  1  0
 19 20  1  1
 19 21  1  0
 21 22  1  0
 22 23  1  0
 23 24  1  6
 23 25  1  0
 25 26  1  6
 26 27  1  0
 27 28  1  0
 28 29  1  6
 28  8  1  0
 28 11  1  0
 25 12  1  0
 23 17  1  0
M  END
>  <MS_ID>  (1710) 
MS1777

>  <SMILES>  (1710) 
C[C@H](CCC(=O)Cl)[C@H]1CC[C@H]2[C@@H]3[C@H](O)[C@H](O)[C@@H]4C[C@H](O)CC[C@]4(C)[C@H]3CC[C@]12C

>  <Structure_dimension>  (1710) 
2D

$$$$
MS1778
     RDKit          2D

 33 36  0  0  0  0  0  0  0  0999 V2000
   -3.3094   -3.6711    0.0000 C   0  0  0  0  0  0  0  0  0  0  0  0
   -2.4155   -2.4665    0.0000 C   0  0  0  0  0  0  0  0  0  0  0  0
   -3.0118   -1.0901    0.0000 C   0  0  0  0  0  0  0  0  0  0  0  0
   -4.5019   -0.9183    0.0000 C   0  0  0  0  0  0  0  0  0  0  0  0
   -5.0982    0.4581    0.0000 C   0  0  0  0  0  0  0  0  0  0  0  0
   -4.2043    1.6627    0.0000 O   0  0  0  0  0  0  0  0  0  0  0  0
   -6.5883    0.6300    0.0000 N   0  0  0  0  0  0  0  0  0  0  0  0
   -7.1845    2.0064    0.0000 C   0  0  0  0  0  0  0  0  0  0  0  0
   -8.5609    1.4101    0.0000 C   0  0  0  0  0  0  0  0  0  0  0  0
   -5.8081    2.6026    0.0000 C   0  0  0  0  0  0  0  0  0  0  0  0
   -7.7808    3.3828    0.0000 C   0  0  0  0  0  0  0  0  0  0  0  0
   -0.9254   -2.6383    0.0000 C   0  0  0  0  0  0  0  0  0  0  0  0
   -0.1885   -3.9449    0.0000 C   0  0  0  0  0  0  0  0  0  0  0  0
    1.2818   -3.6478    0.0000 C   0  0  0  0  0  0  0  0  0  0  0  0
    1.4536   -2.1577    0.0000 C   0  0  0  0  0  0  0  0  0  0  0  0
    2.6759   -1.2883    0.0000 C   0  0  0  0  0  0  0  0  0  0  0  0
    4.0400   -1.9122    0.0000 C   0  0  0  0  0  0  0  0  0  0  0  0
    4.1818   -3.4055    0.0000 O   0  0  0  0  0  0  0  0  0  0  0  0
    5.2624   -1.0428    0.0000 C   0  0  0  0  0  0  0  0  0  0  0  0
    5.1206    0.4505    0.0000 C   0  0  0  0  0  0  0  0  0  0  0  0
    6.3430    1.3199    0.0000 C   0  0  0  0  0  0  0  0  0  0  0  0
    6.2013    2.8132    0.0000 C   0  0  0  0  0  0  0  0  0  0  0  0
    7.4236    3.6826    0.0000 O   0  0  0  0  0  0  0  0  0  0  0  0
    4.8372    3.4371    0.0000 C   0  0  0  0  0  0  0  0  0  0  0  0
    3.6148    2.5677    0.0000 C   0  0  0  0  0  0  0  0  0  0  0  0
    3.7565    1.0744    0.0000 C   0  0  0  0  0  0  0  0  0  0  0  0
    2.3925    1.6983    0.0000 C   0  0  0  0  0  0  0  0  0  0  0  0
    2.5342    0.2050    0.0000 C   0  0  0  0  0  0  0  0  0  0  0  0
    1.1701    0.8289    0.0000 C   0  0  0  0  0  0  0  0  0  0  0  0
   -0.0523   -0.0405    0.0000 C   0  0  0  0  0  0  0  0  0  0  0  0
   -1.4164    0.5834    0.0000 O   0  0  0  0  0  0  0  0  0  0  0  0
    0.0895   -1.5338    0.0000 C   0  0  0  0  0  0  0  0  0  0  0  0
   -1.3324   -1.0559    0.0000 C   0  0  0  0  0  0  0  0  0  0  0  0
  2  1  1  6
  2  3  1  0
  3  4  1  0
  4  5  1  0
  5  6  2  0
  5  7  1  0
  7  8  1  0
  8  9  1  0
  8 10  1  0
  8 11  1  0
  2 12  1  0
 12 13  1  6
 13 14  1  0
 15 14  1  6
 15 16  1  0
 16 17  1  1
 17 18  1  1
 17 19  1  0
 20 19  1  1
 20 21  1  0
 21 22  1  0
 22 23  1  1
 22 24  1  0
 24 25  1  0
 25 26  1  0
 26 27  1  6
 26 28  1  0
 28 29  1  6
 29 30  1  0
 30 31  1  1
 30 32  1  0
 32 33  1  6
 32 12  1  0
 32 15  1  0
 28 16  1  0
 26 20  1  0
M  END
>  <MS_ID>  (1711) 
MS1778

>  <SMILES>  (1711) 
C[C@H](CCC(=O)NC(C)(C)C)[C@H]1CC[C@H]2[C@@H]3[C@H](O)C[C@@H]4C[C@H](O)CC[C@]4(C)[C@H]3C[C@H](O)[C@]12C

>  <Structure_dimension>  (1711) 
2D

$$$$
MS1779
     RDKit          2D

 34 38  0  0  0  0  0  0  0  0999 V2000
   -2.6599   -4.1335    0.0000 C   0  0  0  0  0  0  0  0  0  0  0  0
   -1.8847   -2.8494    0.0000 C   0  0  0  0  0  0  0  0  0  0  0  0
   -2.6091   -1.5360    0.0000 C   0  0  0  0  0  0  0  0  0  0  0  0
   -4.1089   -1.5067    0.0000 C   0  0  0  0  0  0  0  0  0  0  0  0
   -4.8333   -0.1932    0.0000 C   0  0  0  0  0  0  0  0  0  0  0  0
   -4.0581    1.0909    0.0000 O   0  0  0  0  0  0  0  0  0  0  0  0
   -6.3331   -0.1639    0.0000 C   0  0  0  0  0  0  0  0  0  0  0  0
   -7.0575    1.1495    0.0000 C   0  0  0  0  0  0  0  0  0  0  0  0
   -8.5460    1.3354    0.0000 C   0  0  0  0  0  0  0  0  0  0  0  0
   -8.8291    2.8085    0.0000 C   0  0  0  0  0  0  0  0  0  0  0  0
   -7.5157    3.5330    0.0000 C   0  0  0  0  0  0  0  0  0  0  0  0
   -6.4208    2.5077    0.0000 O   0  0  0  0  0  0  0  0  0  0  0  0
   -0.3850   -2.8787    0.0000 C   0  0  0  0  0  0  0  0  0  0  0  0
    0.4728   -4.1092    0.0000 C   0  0  0  0  0  0  0  0  0  0  0  0
    1.9082   -3.6737    0.0000 C   0  0  0  0  0  0  0  0  0  0  0  0
    1.9375   -2.1740    0.0000 C   0  0  0  0  0  0  0  0  0  0  0  0
    3.0716   -1.1922    0.0000 C   0  0  0  0  0  0  0  0  0  0  0  0
    4.4889   -1.6835    0.0000 C   0  0  0  0  0  0  0  0  0  0  0  0
    4.7720   -3.1566    0.0000 O   0  0  0  0  0  0  0  0  0  0  0  0
    5.6230   -0.7018    0.0000 C   0  0  0  0  0  0  0  0  0  0  0  0
    5.3399    0.7712    0.0000 C   0  0  0  0  0  0  0  0  0  0  0  0
    6.4740    1.7530    0.0000 C   0  0  0  0  0  0  0  0  0  0  0  0
    6.1908    3.2260    0.0000 C   0  0  0  0  0  0  0  0  0  0  0  0
    7.3249    4.2077    0.0000 O   0  0  0  0  0  0  0  0  0  0  0  0
    4.7736    3.7173    0.0000 C   0  0  0  0  0  0  0  0  0  0  0  0
    3.6395    2.7356    0.0000 C   0  0  0  0  0  0  0  0  0  0  0  0
    3.9226    1.2625    0.0000 C   0  0  0  0  0  0  0  0  0  0  0  0
    2.5053    1.7538    0.0000 C   0  0  0  0  0  0  0  0  0  0  0  0
    2.7885    0.2808    0.0000 C   0  0  0  0  0  0  0  0  0  0  0  0
    1.3712    0.7721    0.0000 C   0  0  0  0  0  0  0  0  0  0  0  0
    0.2371   -0.2096    0.0000 C   0  0  0  0  0  0  0  0  0  0  0  0
   -1.1801    0.2817    0.0000 O   0  0  0  0  0  0  0  0  0  0  0  0
    0.5203   -1.6826    0.0000 C   0  0  0  0  0  0  0  0  0  0  0  0
   -0.9406   -1.3422    0.0000 C   0  0  0  0  0  0  0  0  0  0  0  0
  2  1  1  6
  2  3  1  0
  3  4  1  0
  4  5  1  0
  5  6  2  0
  5  7  1  0
  7  8  1  0
  8  9  2  0
  9 10  1  0
 10 11  2  0
 11 12  1  0
  2 13  1  0
 13 14  1  6
 14 15  1  0
 16 15  1  6
 16 17  1  0
 17 18  1  1
 18 19  1  1
 18 20  1  0
 21 20  1  1
 21 22  1  0
 22 23  1  0
 23 24  1  1
 23 25  1  0
 25 26  1  0
 26 27  1  0
 27 28  1  6
 27 29  1  0
 29 30  1  6
 30 31  1  0
 31 32  1  1
 31 33  1  0
 33 34  1  6
 12  8  1  0
 33 13  1  0
 33 16  1  0
 29 17  1  0
 27 21  1  0
M  END
>  <MS_ID>  (1712) 
MS1779

>  <SMILES>  (1712) 
C[C@H](CCC(=O)Cc1ccco1)[C@H]1CC[C@H]2[C@@H]3[C@H](O)C[C@@H]4C[C@H](O)CC[C@]4(C)[C@H]3C[C@H](O)[C@]12C

>  <Structure_dimension>  (1712) 
2D

$$$$
MS1780
     RDKit          2D

 39 43  0  0  0  0  0  0  0  0999 V2000
   -0.9174   -4.7068    0.0000 C   0  0  0  0  0  0  0  0  0  0  0  0
   -0.3195   -3.3311    0.0000 C   0  0  0  0  0  0  0  0  0  0  0  0
   -1.2120   -2.1255    0.0000 C   0  0  0  0  0  0  0  0  0  0  0  0
   -2.7023   -2.2956    0.0000 C   0  0  0  0  0  0  0  0  0  0  0  0
   -3.5948   -1.0900    0.0000 C   0  0  0  0  0  0  0  0  0  0  0  0
   -2.9970    0.2857    0.0000 O   0  0  0  0  0  0  0  0  0  0  0  0
   -5.0851   -1.2601    0.0000 O   0  0  0  0  0  0  0  0  0  0  0  0
   -5.9776   -0.0545    0.0000 C   0  0  0  0  0  0  0  0  0  0  0  0
   -5.3798    1.3212    0.0000 O   0  0  0  0  0  0  0  0  0  0  0  0
   -6.2722    2.5268    0.0000 C   0  0  0  0  0  0  0  0  0  0  0  0
   -5.6744    3.9025    0.0000 C   0  0  0  0  0  0  0  0  0  0  0  0
   -7.7625    2.3567    0.0000 C   0  0  0  0  0  0  0  0  0  0  0  0
   -8.6550    3.5624    0.0000 O   0  0  0  0  0  0  0  0  0  0  0  0
   -8.3604    0.9810    0.0000 C   0  0  0  0  0  0  0  0  0  0  0  0
   -9.8507    0.8109    0.0000 O   0  0  0  0  0  0  0  0  0  0  0  0
   -7.4679   -0.2246    0.0000 C   0  0  0  0  0  0  0  0  0  0  0  0
   -8.0658   -1.6003    0.0000 O   0  0  0  0  0  0  0  0  0  0  0  0
    1.1708   -3.1610    0.0000 C   0  0  0  0  0  0  0  0  0  0  0  0
    2.1844   -4.2667    0.0000 C   0  0  0  0  0  0  0  0  0  0  0  0
    3.5492   -3.6444    0.0000 C   0  0  0  0  0  0  0  0  0  0  0  0
    3.3791   -2.1541    0.0000 C   0  0  0  0  0  0  0  0  0  0  0  0
    4.3728   -1.0305    0.0000 C   0  0  0  0  0  0  0  0  0  0  0  0
    5.8428   -1.3292    0.0000 C   0  0  0  0  0  0  0  0  0  0  0  0
    6.3190   -2.7516    0.0000 O   0  0  0  0  0  0  0  0  0  0  0  0
    6.8365   -0.2056    0.0000 C   0  0  0  0  0  0  0  0  0  0  0  0
    6.3602    1.2168    0.0000 C   0  0  0  0  0  0  0  0  0  0  0  0
    7.3539    2.3404    0.0000 C   0  0  0  0  0  0  0  0  0  0  0  0
    6.8777    3.7628    0.0000 C   0  0  0  0  0  0  0  0  0  0  0  0
    7.8714    4.8864    0.0000 O   0  0  0  0  0  0  0  0  0  0  0  0
    5.4078    4.0616    0.0000 C   0  0  0  0  0  0  0  0  0  0  0  0
    4.4140    2.9379    0.0000 C   0  0  0  0  0  0  0  0  0  0  0  0
    4.8903    1.5156    0.0000 C   0  0  0  0  0  0  0  0  0  0  0  0
    3.4203    1.8143    0.0000 C   0  0  0  0  0  0  0  0  0  0  0  0
    3.8966    0.3919    0.0000 C   0  0  0  0  0  0  0  0  0  0  0  0
    2.4266    0.6907    0.0000 C   0  0  0  0  0  0  0  0  0  0  0  0
    1.4329   -0.4329    0.0000 C   0  0  0  0  0  0  0  0  0  0  0  0
   -0.0370   -0.1342    0.0000 O   0  0  0  0  0  0  0  0  0  0  0  0
    1.9092   -1.8553    0.0000 C   0  0  0  0  0  0  0  0  0  0  0  0
    0.4160   -1.7119    0.0000 C   0  0  0  0  0  0  0  0  0  0  0  0
  2  1  1  6
  2  3  1  0
  3  4  1  0
  4  5  1  0
  5  6  2  0
  5  7  1  0
  8  7  1  6
  8  9  1  0
  9 10  1  0
 10 11  1  1
 10 12  1  0
 12 13  1  1
 12 14  1  0
 14 15  1  6
 14 16  1  0
 16 17  1  6
  2 18  1  0
 18 19  1  6
 19 20  1  0
 21 20  1  6
 21 22  1  0
 22 23  1  1
 23 24  1  1
 23 25  1  0
 26 25  1  1
 26 27  1  0
 27 28  1  0
 28 29  1  1
 28 30  1  0
 30 31  1  0
 31 32  1  0
 32 33  1  6
 32 34  1  0
 34 35  1  6
 35 36  1  0
 36 37  1  1
 36 38  1  0
 38 39  1  6
 16  8  1  0
 38 18  1  0
 38 21  1  0
 34 22  1  0
 32 26  1  0
M  END
>  <MS_ID>  (1713) 
MS1780

>  <SMILES>  (1713) 
C[C@H](CCC(=O)O[C@H]1O[C@H](C)[C@H](O)[C@@H](O)[C@H]1O)[C@H]1CC[C@H]2[C@@H]3[C@H](O)C[C@@H]4C[C@H](O)CC[C@]4(C)[C@H]3C[C@H](O)[C@]12C

>  <Structure_dimension>  (1713) 
2D

$$$$
MS1781
     RDKit          2D

 34 38  0  0  0  0  0  0  0  0999 V2000
   -2.6584   -3.5322    0.0000 C   0  0  0  0  0  0  0  0  0  0  0  0
   -1.7097   -2.3702    0.0000 C   0  0  0  0  0  0  0  0  0  0  0  0
   -2.2417   -0.9677    0.0000 C   0  0  0  0  0  0  0  0  0  0  0  0
   -3.7222   -0.7271    0.0000 C   0  0  0  0  0  0  0  0  0  0  0  0
   -4.2542    0.6754    0.0000 C   0  0  0  0  0  0  0  0  0  0  0  0
   -3.3055    1.8373    0.0000 O   0  0  0  0  0  0  0  0  0  0  0  0
   -5.7348    0.9160    0.0000 C   0  0  0  0  0  0  0  0  0  0  0  0
   -6.2667    2.3185    0.0000 C   0  0  0  0  0  0  0  0  0  0  0  0
   -7.7473    2.5591    0.0000 C   0  0  0  0  0  0  0  0  0  0  0  0
   -8.6959    1.3971    0.0000 C   0  0  0  0  0  0  0  0  0  0  0  0
  -10.1765    1.6377    0.0000 O   0  0  0  0  0  0  0  0  0  0  0  0
   -8.1640   -0.0054    0.0000 C   0  0  0  0  0  0  0  0  0  0  0  0
   -6.6834   -0.2460    0.0000 C   0  0  0  0  0  0  0  0  0  0  0  0
   -0.2291   -2.6108    0.0000 C   0  0  0  0  0  0  0  0  0  0  0  0
    0.4465   -3.9500    0.0000 C   0  0  0  0  0  0  0  0  0  0  0  0
    1.9290   -3.7213    0.0000 C   0  0  0  0  0  0  0  0  0  0  0  0
    2.1695   -2.2407    0.0000 C   0  0  0  0  0  0  0  0  0  0  0  0
    3.4308   -1.4288    0.0000 C   0  0  0  0  0  0  0  0  0  0  0  0
    4.7646   -2.1152    0.0000 C   0  0  0  0  0  0  0  0  0  0  0  0
    6.0258   -1.3033    0.0000 C   0  0  0  0  0  0  0  0  0  0  0  0
    5.9533    0.1950    0.0000 C   0  0  0  0  0  0  0  0  0  0  0  0
    7.2146    1.0069    0.0000 C   0  0  0  0  0  0  0  0  0  0  0  0
    7.1421    2.5052    0.0000 C   0  0  0  0  0  0  0  0  0  0  0  0
    8.4034    3.3171    0.0000 O   0  0  0  0  0  0  0  0  0  0  0  0
    5.8083    3.1915    0.0000 C   0  0  0  0  0  0  0  0  0  0  0  0
    4.5471    2.3796    0.0000 C   0  0  0  0  0  0  0  0  0  0  0  0
    4.6196    0.8813    0.0000 C   0  0  0  0  0  0  0  0  0  0  0  0
    3.2858    1.5677    0.0000 C   0  0  0  0  0  0  0  0  0  0  0  0
    3.3583    0.0694    0.0000 C   0  0  0  0  0  0  0  0  0  0  0  0
    2.0245    0.7558    0.0000 C   0  0  0  0  0  0  0  0  0  0  0  0
    0.7633   -0.0562    0.0000 C   0  0  0  0  0  0  0  0  0  0  0  0
   -0.5705    0.6302    0.0000 O   0  0  0  0  0  0  0  0  0  0  0  0
    0.8358   -1.5544    0.0000 C   0  0  0  0  0  0  0  0  0  0  0  0
   -0.5624   -1.0113    0.0000 C   0  0  0  0  0  0  0  0  0  0  0  0
  2  1  1  6
  2  3  1  0
  3  4  1  0
  4  5  1  0
  5  6  2  0
  5  7  1  0
  7  8  2  0
  8  9  1  0
  9 10  2  0
 10 11  1  0
 10 12  1  0
 12 13  2  0
  2 14  1  0
 14 15  1  6
 15 16  1  0
 17 16  1  6
 17 18  1  0
 18 19  1  1
 19 20  1  0
 21 20  1  1
 21 22  1  0
 22 23  1  0
 23 24  1  6
 23 25  1  0
 25 26  1  0
 26 27  1  0
 27 28  1  6
 27 29  1  0
 29 30  1  6
 30 31  1  0
 31 32  1  1
 31 33  1  0
 33 34  1  6
 13  7  1  0
 33 14  1  0
 33 17  1  0
 29 18  1  0
 27 21  1  0
M  END
>  <MS_ID>  (1714) 
MS1781

>  <SMILES>  (1714) 
C[C@H](CCC(=O)c1ccc(O)cc1)[C@H]1CC[C@H]2[C@@H]3CC[C@@H]4C[C@@H](O)CC[C@]4(C)[C@H]3C[C@H](O)[C@]12C

>  <Structure_dimension>  (1714) 
2D

$$$$
MS1782
     RDKit          2D

 30 33  0  0  0  0  0  0  0  0999 V2000
   -3.8321   -2.9495    0.0000 C   0  0  0  0  0  0  0  0  0  0  0  0
   -2.8334   -1.8303    0.0000 C   0  0  0  0  0  0  0  0  0  0  0  0
   -3.3032   -0.4058    0.0000 C   0  0  0  0  0  0  0  0  0  0  0  0
   -4.7718   -0.1005    0.0000 C   0  0  0  0  0  0  0  0  0  0  0  0
   -5.2417    1.3240    0.0000 C   0  0  0  0  0  0  0  0  0  0  0  0
   -4.2430    2.4432    0.0000 O   0  0  0  0  0  0  0  0  0  0  0  0
   -6.7103    1.6294    0.0000 C   0  0  0  0  0  0  0  0  0  0  0  0
   -7.7090    0.5102    0.0000 O   0  0  0  0  0  0  0  0  0  0  0  0
   -7.1801    3.0539    0.0000 O   0  0  0  0  0  0  0  0  0  0  0  0
   -1.3648   -2.1357    0.0000 C   0  0  0  0  0  0  0  0  0  0  0  0
   -0.7486   -3.5033    0.0000 C   0  0  0  0  0  0  0  0  0  0  0  0
    0.7425   -3.3398    0.0000 C   0  0  0  0  0  0  0  0  0  0  0  0
    1.0478   -1.8712    0.0000 C   0  0  0  0  0  0  0  0  0  0  0  0
    2.3435   -1.1155    0.0000 C   0  0  0  0  0  0  0  0  0  0  0  0
    3.6459   -1.8597    0.0000 C   0  0  0  0  0  0  0  0  0  0  0  0
    3.6525   -3.3597    0.0000 O   0  0  0  0  0  0  0  0  0  0  0  0
    4.9416   -1.1039    0.0000 C   0  0  0  0  0  0  0  0  0  0  0  0
    4.9349    0.3961    0.0000 C   0  0  0  0  0  0  0  0  0  0  0  0
    6.2306    1.1518    0.0000 C   0  0  0  0  0  0  0  0  0  0  0  0
    6.2239    2.6518    0.0000 C   0  0  0  0  0  0  0  0  0  0  0  0
    4.9216    3.3960    0.0000 C   0  0  0  0  0  0  0  0  0  0  0  0
    3.6259    2.6403    0.0000 C   0  0  0  0  0  0  0  0  0  0  0  0
    3.6325    1.1403    0.0000 C   0  0  0  0  0  0  0  0  0  0  0  0
    2.3302    1.8845    0.0000 C   0  0  0  0  0  0  0  0  0  0  0  0
    2.3369    0.3845    0.0000 C   0  0  0  0  0  0  0  0  0  0  0  0
    1.0345    1.1287    0.0000 C   0  0  0  0  0  0  0  0  0  0  0  0
   -0.2612    0.3730    0.0000 C   0  0  0  0  0  0  0  0  0  0  0  0
   -1.5636    1.1172    0.0000 O   0  0  0  0  0  0  0  0  0  0  0  0
   -0.2545   -1.1270    0.0000 C   0  0  0  0  0  0  0  0  0  0  0  0
   -1.6275   -0.5230    0.0000 C   0  0  0  0  0  0  0  0  0  0  0  0
  2  1  1  6
  2  3  1  0
  3  4  1  0
  4  5  1  0
  5  6  2  0
  5  7  1  0
  7  8  2  0
  7  9  1  0
  2 10  1  0
 10 11  1  6
 11 12  1  0
 13 12  1  6
 13 14  1  0
 14 15  1  1
 15 16  1  1
 15 17  1  0
 18 17  1  1
 18 19  1  0
 19 20  1  0
 20 21  1  0
 21 22  1  0
 22 23  1  0
 23 24  1  6
 23 25  1  0
 25 26  1  6
 26 27  1  0
 27 28  1  1
 27 29  1  0
 29 30  1  6
 29 10  1  0
 29 13  1  0
 25 14  1  0
 23 18  1  0
M  END
>  <MS_ID>  (1715) 
MS1782

>  <SMILES>  (1715) 
C[C@H](CCC(=O)C(=O)O)[C@H]1CC[C@H]2[C@@H]3[C@H](O)C[C@@H]4CCCC[C@]4(C)[C@H]3C[C@H](O)[C@]12C

>  <Structure_dimension>  (1715) 
2D

$$$$
MS1783
     RDKit          2D

 29 32  0  0  0  0  0  0  0  0999 V2000
   -5.0303   -2.1373    0.0000 C   0  0  0  0  0  0  0  0  0  0  0  0
   -3.8594   -1.1998    0.0000 C   0  0  0  0  0  0  0  0  0  0  0  0
   -4.0858    0.2830    0.0000 C   0  0  0  0  0  0  0  0  0  0  0  0
   -5.4831    0.8284    0.0000 C   0  0  0  0  0  0  0  0  0  0  0  0
   -5.7095    2.3112    0.0000 C   0  0  0  0  0  0  0  0  0  0  0  0
   -4.5386    3.2487    0.0000 O   0  0  0  0  0  0  0  0  0  0  0  0
   -7.1069    2.8565    0.0000 O   0  0  0  0  0  0  0  0  0  0  0  0
   -2.4620   -1.7451    0.0000 C   0  0  0  0  0  0  0  0  0  0  0  0
   -2.0818   -3.1961    0.0000 C   0  0  0  0  0  0  0  0  0  0  0  0
   -0.5844   -3.2830    0.0000 C   0  0  0  0  0  0  0  0  0  0  0  0
   -0.0390   -1.8856    0.0000 C   0  0  0  0  0  0  0  0  0  0  0  0
    1.3643   -1.3559    0.0000 C   0  0  0  0  0  0  0  0  0  0  0  0
    2.5248   -2.3063    0.0000 C   0  0  0  0  0  0  0  0  0  0  0  0
    2.2819   -3.7865    0.0000 F   0  0  0  0  0  0  0  0  0  0  0  0
    3.9281   -1.7765    0.0000 C   0  0  0  0  0  0  0  0  0  0  0  0
    4.1710   -0.2963    0.0000 C   0  0  0  0  0  0  0  0  0  0  0  0
    5.5743    0.2334    0.0000 C   0  0  0  0  0  0  0  0  0  0  0  0
    5.8172    1.7136    0.0000 C   0  0  0  0  0  0  0  0  0  0  0  0
    7.2205    2.2434    0.0000 O   0  0  0  0  0  0  0  0  0  0  0  0
    4.6568    2.6641    0.0000 C   0  0  0  0  0  0  0  0  0  0  0  0
    3.2534    2.1343    0.0000 C   0  0  0  0  0  0  0  0  0  0  0  0
    3.0105    0.6541    0.0000 C   0  0  0  0  0  0  0  0  0  0  0  0
    1.8501    1.6046    0.0000 C   0  0  0  0  0  0  0  0  0  0  0  0
    1.6072    0.1244    0.0000 C   0  0  0  0  0  0  0  0  0  0  0  0
    0.4467    1.0748    0.0000 C   0  0  0  0  0  0  0  0  0  0  0  0
   -0.9566    0.5450    0.0000 C   0  0  0  0  0  0  0  0  0  0  0  0
   -2.1170    1.4955    0.0000 O   0  0  0  0  0  0  0  0  0  0  0  0
   -1.1995   -0.9352    0.0000 C   0  0  0  0  0  0  0  0  0  0  0  0
   -2.4529   -0.1112    0.0000 C   0  0  0  0  0  0  0  0  0  0  0  0
  2  1  1  6
  2  3  1  0
  3  4  1  0
  4  5  1  0
  5  6  2  0
  5  7  1  0
  2  8  1  0
  8  9  1  6
  9 10  1  0
 11 10  1  6
 11 12  1  0
 12 13  1  1
 13 14  1  6
 13 15  1  0
 16 15  1  1
 16 17  1  0
 17 18  1  0
 18 19  1  6
 18 20  1  0
 20 21  1  0
 21 22  1  0
 22 23  1  6
 22 24  1  0
 24 25  1  6
 25 26  1  0
 26 27  1  1
 26 28  1  0
 28 29  1  6
 28  8  1  0
 28 11  1  0
 24 12  1  0
 22 16  1  0
M  END
>  <MS_ID>  (1716) 
MS1783

>  <SMILES>  (1716) 
C[C@H](CCC(=O)O)[C@H]1CC[C@H]2[C@@H]3[C@@H](F)C[C@@H]4C[C@@H](O)CC[C@]4(C)[C@H]3C[C@H](O)[C@]12C

>  <Structure_dimension>  (1716) 
2D

$$$$
MS1784
     RDKit          2D

 32 35  0  0  0  0  0  0  0  0999 V2000
   -3.8307   -3.4888    0.0000 C   0  0  0  0  0  0  0  0  0  0  0  0
   -2.9213   -2.2959    0.0000 C   0  0  0  0  0  0  0  0  0  0  0  0
   -3.4997   -0.9119    0.0000 C   0  0  0  0  0  0  0  0  0  0  0  0
   -4.9875   -0.7208    0.0000 C   0  0  0  0  0  0  0  0  0  0  0  0
   -5.5659    0.6632    0.0000 C   0  0  0  0  0  0  0  0  0  0  0  0
   -4.6565    1.8561    0.0000 O   0  0  0  0  0  0  0  0  0  0  0  0
   -7.0537    0.8543    0.0000 C   0  0  0  0  0  0  0  0  0  0  0  0
   -7.6321    2.2383    0.0000 N   0  0  0  0  0  0  0  0  0  0  0  0
   -9.1199    2.4294    0.0000 C   0  0  0  0  0  0  0  0  0  0  0  0
   -6.7227    3.4312    0.0000 C   0  0  0  0  0  0  0  0  0  0  0  0
   -1.4336   -2.4870    0.0000 C   0  0  0  0  0  0  0  0  0  0  0  0
   -0.7137   -3.8029    0.0000 C   0  0  0  0  0  0  0  0  0  0  0  0
    0.7603   -3.5249    0.0000 C   0  0  0  0  0  0  0  0  0  0  0  0
    0.9514   -2.0372    0.0000 C   0  0  0  0  0  0  0  0  0  0  0  0
    2.1849   -1.1836    0.0000 C   0  0  0  0  0  0  0  0  0  0  0  0
    3.5409   -1.8251    0.0000 C   0  0  0  0  0  0  0  0  0  0  0  0
    3.6633   -3.3201    0.0000 O   0  0  0  0  0  0  0  0  0  0  0  0
    4.7744   -0.9716    0.0000 C   0  0  0  0  0  0  0  0  0  0  0  0
    6.1303   -1.6131    0.0000 O   0  0  0  0  0  0  0  0  0  0  0  0
    4.6520    0.5234    0.0000 C   0  0  0  0  0  0  0  0  0  0  0  0
    5.8855    1.3769    0.0000 C   0  0  0  0  0  0  0  0  0  0  0  0
    5.7630    2.8719    0.0000 C   0  0  0  0  0  0  0  0  0  0  0  0
    6.9966    3.7254    0.0000 O   0  0  0  0  0  0  0  0  0  0  0  0
    4.4071    3.5134    0.0000 C   0  0  0  0  0  0  0  0  0  0  0  0
    3.1736    2.6599    0.0000 C   0  0  0  0  0  0  0  0  0  0  0  0
    3.2960    1.1649    0.0000 C   0  0  0  0  0  0  0  0  0  0  0  0
    1.9401    1.8063    0.0000 C   0  0  0  0  0  0  0  0  0  0  0  0
    2.0625    0.3113    0.0000 C   0  0  0  0  0  0  0  0  0  0  0  0
    0.7066    0.9528    0.0000 C   0  0  0  0  0  0  0  0  0  0  0  0
   -0.5269    0.0993    0.0000 C   0  0  0  0  0  0  0  0  0  0  0  0
   -0.4045   -1.3957    0.0000 C   0  0  0  0  0  0  0  0  0  0  0  0
   -1.8200   -0.8994    0.0000 C   0  0  0  0  0  0  0  0  0  0  0  0
  2  1  1  6
  2  3  1  0
  3  4  1  0
  4  5  1  0
  5  6  2  0
  5  7  1  0
  7  8  1  0
  8  9  1  0
  8 10  1  0
  2 11  1  0
 11 12  1  6
 12 13  1  0
 14 13  1  6
 14 15  1  0
 15 16  1  1
 16 17  1  1
 16 18  1  0
 18 19  1  1
 18 20  1  0
 20 21  1  1
 21 22  1  0
 22 23  1  1
 22 24  1  0
 24 25  1  0
 25 26  1  0
 26 27  1  6
 26 28  1  0
 28 29  1  6
 29 30  1  0
 30 31  1  0
 31 32  1  6
 31 11  1  0
 31 14  1  0
 28 15  1  0
 26 20  1  0
M  END
>  <MS_ID>  (1717) 
MS1784

>  <SMILES>  (1717) 
C[C@H](CCC(=O)CN(C)C)[C@H]1CC[C@H]2[C@@H]3[C@H](O)[C@H](O)[C@@H]4C[C@H](O)CC[C@]4(C)[C@H]3CC[C@]12C

>  <Structure_dimension>  (1717) 
2D

$$$$
MS1785
     RDKit          2D

 35 38  0  0  0  0  0  0  0  0999 V2000
   -2.1548   -4.1626    0.0000 C   0  0  0  0  0  0  0  0  0  0  0  0
   -1.4021   -2.8651    0.0000 C   0  0  0  0  0  0  0  0  0  0  0  0
   -2.1494   -1.5645    0.0000 C   0  0  0  0  0  0  0  0  0  0  0  0
   -3.6494   -1.5614    0.0000 C   0  0  0  0  0  0  0  0  0  0  0  0
   -4.3967   -0.2608    0.0000 C   0  0  0  0  0  0  0  0  0  0  0  0
   -3.6439    1.0367    0.0000 O   0  0  0  0  0  0  0  0  0  0  0  0
   -5.8967   -0.2577    0.0000 C   0  0  0  0  0  0  0  0  0  0  0  0
   -6.6439    1.0430    0.0000 C   0  0  0  0  0  0  0  0  0  0  0  0
   -8.1439    1.0461    0.0000 C   0  0  0  0  0  0  0  0  0  0  0  0
   -8.8967   -0.2514    0.0000 O   0  0  0  0  0  0  0  0  0  0  0  0
   -8.8912    2.3467    0.0000 C   0  0  0  0  0  0  0  0  0  0  0  0
   -8.1385    3.6442    0.0000 O   0  0  0  0  0  0  0  0  0  0  0  0
  -10.3912    2.3498    0.0000 O   0  0  0  0  0  0  0  0  0  0  0  0
    0.0979   -2.8683    0.0000 C   0  0  0  0  0  0  0  0  0  0  0  0
    0.9770   -4.0836    0.0000 C   0  0  0  0  0  0  0  0  0  0  0  0
    2.4046   -3.6231    0.0000 C   0  0  0  0  0  0  0  0  0  0  0  0
    2.4077   -2.1231    0.0000 C   0  0  0  0  0  0  0  0  0  0  0  0
    3.5245   -1.1217    0.0000 C   0  0  0  0  0  0  0  0  0  0  0  0
    4.9501   -1.5883    0.0000 C   0  0  0  0  0  0  0  0  0  0  0  0
    5.2589   -3.0561    0.0000 O   0  0  0  0  0  0  0  0  0  0  0  0
    6.0670   -0.5869    0.0000 C   0  0  0  0  0  0  0  0  0  0  0  0
    5.7582    0.8810    0.0000 C   0  0  0  0  0  0  0  0  0  0  0  0
    6.8750    1.8823    0.0000 C   0  0  0  0  0  0  0  0  0  0  0  0
    6.5662    3.3502    0.0000 C   0  0  0  0  0  0  0  0  0  0  0  0
    7.6830    4.3516    0.0000 O   0  0  0  0  0  0  0  0  0  0  0  0
    5.1406    3.8167    0.0000 C   0  0  0  0  0  0  0  0  0  0  0  0
    4.0238    2.8154    0.0000 C   0  0  0  0  0  0  0  0  0  0  0  0
    4.3326    1.3475    0.0000 C   0  0  0  0  0  0  0  0  0  0  0  0
    2.9069    1.8140    0.0000 C   0  0  0  0  0  0  0  0  0  0  0  0
    3.2157    0.3461    0.0000 C   0  0  0  0  0  0  0  0  0  0  0  0
    1.7901    0.8126    0.0000 C   0  0  0  0  0  0  0  0  0  0  0  0
    0.6733   -0.1887    0.0000 C   0  0  0  0  0  0  0  0  0  0  0  0
   -0.7523    0.2778    0.0000 O   0  0  0  0  0  0  0  0  0  0  0  0
    0.9821   -1.6566    0.0000 C   0  0  0  0  0  0  0  0  0  0  0  0
   -0.4845   -1.3417    0.0000 C   0  0  0  0  0  0  0  0  0  0  0  0
  2  1  1  6
  2  3  1  0
  3  4  1  0
  4  5  1  0
  5  6  2  0
  5  7  1  0
  7  8  1  0
  8  9  1  0
  9 10  1  6
  9 11  1  0
 11 12  2  0
 11 13  1  0
  2 14  1  0
 14 15  1  6
 15 16  1  0
 17 16  1  6
 17 18  1  0
 18 19  1  1
 19 20  1  1
 19 21  1  0
 22 21  1  1
 22 23  1  0
 23 24  1  0
 24 25  1  1
 24 26  1  0
 26 27  1  0
 27 28  1  0
 28 29  1  6
 28 30  1  0
 30 31  1  6
 31 32  1  0
 32 33  1  1
 32 34  1  0
 34 35  1  6
 34 14  1  0
 34 17  1  0
 30 18  1  0
 28 22  1  0
M  END
>  <MS_ID>  (1718) 
MS1785

>  <SMILES>  (1718) 
C[C@H](CCC(=O)CC[C@H](O)C(=O)O)[C@H]1CC[C@H]2[C@@H]3[C@H](O)C[C@@H]4C[C@H](O)CC[C@]4(C)[C@H]3C[C@H](O)[C@]12C

>  <Structure_dimension>  (1718) 
2D

$$$$
MS1786
     RDKit          2D

 30 33  0  0  0  0  0  0  0  0999 V2000
   -5.0361   -2.2421    0.0000 C   0  0  0  0  0  0  0  0  0  0  0  0
   -3.9151   -1.2454    0.0000 C   0  0  0  0  0  0  0  0  0  0  0  0
   -4.2177    0.2237    0.0000 C   0  0  0  0  0  0  0  0  0  0  0  0
   -5.6413    0.6963    0.0000 C   0  0  0  0  0  0  0  0  0  0  0  0
   -5.9439    2.1654    0.0000 C   0  0  0  0  0  0  0  0  0  0  0  0
   -4.8228    3.1621    0.0000 O   0  0  0  0  0  0  0  0  0  0  0  0
   -7.3675    2.6380    0.0000 O   0  0  0  0  0  0  0  0  0  0  0  0
   -2.4915   -1.7180    0.0000 C   0  0  0  0  0  0  0  0  0  0  0  0
   -2.0370   -3.1475    0.0000 C   0  0  0  0  0  0  0  0  0  0  0  0
   -0.5370   -3.1570    0.0000 C   0  0  0  0  0  0  0  0  0  0  0  0
   -0.0645   -1.7333    0.0000 C   0  0  0  0  0  0  0  0  0  0  0  0
    1.3097   -1.1319    0.0000 C   0  0  0  0  0  0  0  0  0  0  0  0
    2.5176   -2.0213    0.0000 C   0  0  0  0  0  0  0  0  0  0  0  0
    2.3514   -3.5120    0.0000 C   0  0  0  0  0  0  0  0  0  0  0  0
    3.5593   -4.4014    0.0000 S   0  0  0  0  0  0  0  0  0  0  0  0
    3.8918   -1.4198    0.0000 C   0  0  0  0  0  0  0  0  0  0  0  0
    4.0580    0.0709    0.0000 C   0  0  0  0  0  0  0  0  0  0  0  0
    5.4321    0.6723    0.0000 C   0  0  0  0  0  0  0  0  0  0  0  0
    5.5984    2.1631    0.0000 C   0  0  0  0  0  0  0  0  0  0  0  0
    6.9725    2.7645    0.0000 O   0  0  0  0  0  0  0  0  0  0  0  0
    4.3904    3.0524    0.0000 C   0  0  0  0  0  0  0  0  0  0  0  0
    3.0163    2.4510    0.0000 C   0  0  0  0  0  0  0  0  0  0  0  0
    2.8501    0.9603    0.0000 C   0  0  0  0  0  0  0  0  0  0  0  0
    1.6421    1.8496    0.0000 C   0  0  0  0  0  0  0  0  0  0  0  0
    1.4759    0.3588    0.0000 C   0  0  0  0  0  0  0  0  0  0  0  0
    0.2680    1.2482    0.0000 C   0  0  0  0  0  0  0  0  0  0  0  0
   -1.1062    0.6468    0.0000 C   0  0  0  0  0  0  0  0  0  0  0  0
   -2.3141    1.5361    0.0000 O   0  0  0  0  0  0  0  0  0  0  0  0
   -1.2724   -0.8440    0.0000 C   0  0  0  0  0  0  0  0  0  0  0  0
   -2.5667   -0.0858    0.0000 C   0  0  0  0  0  0  0  0  0  0  0  0
  2  1  1  6
  2  3  1  0
  3  4  1  0
  4  5  1  0
  5  6  2  0
  5  7  1  0
  2  8  1  0
  8  9  1  6
  9 10  1  0
 11 10  1  6
 11 12  1  0
 12 13  1  1
 13 14  1  6
 14 15  1  0
 13 16  1  0
 17 16  1  1
 17 18  1  0
 18 19  1  0
 19 20  1  6
 19 21  1  0
 21 22  1  0
 22 23  1  0
 23 24  1  6
 23 25  1  0
 25 26  1  6
 26 27  1  0
 27 28  1  1
 27 29  1  0
 29 30  1  6
 29  8  1  0
 29 11  1  0
 25 12  1  0
 23 17  1  0
M  END
>  <MS_ID>  (1719) 
MS1786

>  <SMILES>  (1719) 
C[C@H](CCC(=O)O)[C@H]1CC[C@H]2[C@@H]3[C@@H](CS)C[C@@H]4C[C@@H](O)CC[C@]4(C)[C@H]3C[C@H](O)[C@]12C

>  <Structure_dimension>  (1719) 
2D

$$$$
MS1787
     RDKit          2D

 33 36  0  0  0  0  0  0  0  0999 V2000
   -9.4890    3.9611    0.0000 C   0  0  0  0  0  0  0  0  0  0  0  0
   -8.0673    3.4828    0.0000 C   0  0  0  0  0  0  0  0  0  0  0  0
   -7.7706    2.0125    0.0000 O   0  0  0  0  0  0  0  0  0  0  0  0
   -6.3489    1.5342    0.0000 C   0  0  0  0  0  0  0  0  0  0  0  0
   -5.2239    2.5263    0.0000 O   0  0  0  0  0  0  0  0  0  0  0  0
   -6.0523    0.0638    0.0000 C   0  0  0  0  0  0  0  0  0  0  0  0
   -4.6306   -0.4145    0.0000 C   0  0  0  0  0  0  0  0  0  0  0  0
   -4.3339   -1.8848    0.0000 C   0  0  0  0  0  0  0  0  0  0  0  0
   -5.4590   -2.8769    0.0000 C   0  0  0  0  0  0  0  0  0  0  0  0
   -2.9122   -2.3631    0.0000 C   0  0  0  0  0  0  0  0  0  0  0  0
   -2.4635   -3.7944    0.0000 C   0  0  0  0  0  0  0  0  0  0  0  0
   -0.9636   -3.8100    0.0000 C   0  0  0  0  0  0  0  0  0  0  0  0
   -0.4853   -2.3882    0.0000 C   0  0  0  0  0  0  0  0  0  0  0  0
    0.8913   -1.7924    0.0000 C   0  0  0  0  0  0  0  0  0  0  0  0
    2.0956   -2.6866    0.0000 C   0  0  0  0  0  0  0  0  0  0  0  0
    3.4722   -2.0907    0.0000 C   0  0  0  0  0  0  0  0  0  0  0  0
    3.6444   -0.6006    0.0000 C   0  0  0  0  0  0  0  0  0  0  0  0
    5.0210   -0.0047    0.0000 C   0  0  0  0  0  0  0  0  0  0  0  0
    5.1932    1.4854    0.0000 C   0  0  0  0  0  0  0  0  0  0  0  0
    6.5698    2.0812    0.0000 O   0  0  0  0  0  0  0  0  0  0  0  0
    7.7741    1.1870    0.0000 S   0  0  0  0  0  0  0  0  0  0  0  0
    6.8799   -0.0173    0.0000 O   0  0  0  0  0  0  0  0  0  0  0  0
    8.6683    2.3914    0.0000 O   0  0  0  0  0  0  0  0  0  0  0  0
    8.9784    0.2928    0.0000 O   0  0  0  0  0  0  0  0  0  0  0  0
    3.9889    2.3796    0.0000 C   0  0  0  0  0  0  0  0  0  0  0  0
    2.6123    1.7837    0.0000 C   0  0  0  0  0  0  0  0  0  0  0  0
    2.4401    0.2936    0.0000 C   0  0  0  0  0  0  0  0  0  0  0  0
    1.2357    1.1878    0.0000 C   0  0  0  0  0  0  0  0  0  0  0  0
    1.0635   -0.3023    0.0000 C   0  0  0  0  0  0  0  0  0  0  0  0
   -0.1408    0.5919    0.0000 C   0  0  0  0  0  0  0  0  0  0  0  0
   -1.5174   -0.0040    0.0000 C   0  0  0  0  0  0  0  0  0  0  0  0
   -1.6896   -1.4940    0.0000 C   0  0  0  0  0  0  0  0  0  0  0  0
   -2.9808   -0.7306    0.0000 C   0  0  0  0  0  0  0  0  0  0  0  0
  1  2  1  0
  2  3  1  0
  3  4  1  0
  4  5  2  0
  4  6  1  0
  6  7  1  0
  7  8  1  0
  8  9  1  6
  8 10  1  0
 10 11  1  6
 11 12  1  0
 13 12  1  6
 13 14  1  0
 14 15  1  1
 15 16  1  0
 17 16  1  1
 17 18  1  0
 18 19  1  0
 19 20  1  1
 20 21  1  0
 21 22  2  0
 21 23  2  0
 21 24  1  0
 19 25  1  0
 25 26  1  0
 26 27  1  0
 27 28  1  6
 27 29  1  0
 29 30  1  6
 30 31  1  0
 31 32  1  0
 32 33  1  6
 32 10  1  0
 32 13  1  0
 29 14  1  0
 27 17  1  0
M  END
>  <MS_ID>  (1720) 
MS1787

>  <SMILES>  (1720) 
CCOC(=O)CC[C@@H](C)[C@H]1CC[C@H]2[C@@H]3CC[C@@H]4C[C@H](OS(=O)(=O)O)CC[C@]4(C)[C@H]3CC[C@]12C

>  <Structure_dimension>  (1720) 
2D

$$$$
MS1788
     RDKit          2D

 35 38  0  0  0  0  0  0  0  0999 V2000
   -6.3770   -1.7678    0.0000 C   0  0  0  0  0  0  0  0  0  0  0  0
   -5.2165   -0.8174    0.0000 C   0  0  0  0  0  0  0  0  0  0  0  0
   -5.4592    0.6628    0.0000 C   0  0  0  0  0  0  0  0  0  0  0  0
   -6.8625    1.1927    0.0000 C   0  0  0  0  0  0  0  0  0  0  0  0
   -7.1052    2.6729    0.0000 C   0  0  0  0  0  0  0  0  0  0  0  0
   -5.9447    3.6232    0.0000 O   0  0  0  0  0  0  0  0  0  0  0  0
   -8.5085    3.2028    0.0000 O   0  0  0  0  0  0  0  0  0  0  0  0
   -3.8132   -1.3473    0.0000 C   0  0  0  0  0  0  0  0  0  0  0  0
   -3.4171   -2.7941    0.0000 C   0  0  0  0  0  0  0  0  0  0  0  0
   -1.9187   -2.8644    0.0000 C   0  0  0  0  0  0  0  0  0  0  0  0
   -1.3888   -1.4611    0.0000 C   0  0  0  0  0  0  0  0  0  0  0  0
    0.0086   -0.9159    0.0000 C   0  0  0  0  0  0  0  0  0  0  0  0
    1.1795   -1.8535    0.0000 C   0  0  0  0  0  0  0  0  0  0  0  0
    0.9529   -3.3363    0.0000 O   0  0  0  0  0  0  0  0  0  0  0  0
    2.1238   -4.2739    0.0000 C   0  0  0  0  0  0  0  0  0  0  0  0
    1.8972   -5.7567    0.0000 C   0  0  0  0  0  0  0  0  0  0  0  0
    3.0681   -6.6943    0.0000 O   0  0  0  0  0  0  0  0  0  0  0  0
    2.5769   -1.3083    0.0000 C   0  0  0  0  0  0  0  0  0  0  0  0
    2.8034    0.1745    0.0000 C   0  0  0  0  0  0  0  0  0  0  0  0
    4.2008    0.7196    0.0000 C   0  0  0  0  0  0  0  0  0  0  0  0
    4.4274    2.2024    0.0000 C   0  0  0  0  0  0  0  0  0  0  0  0
    5.8248    2.7476    0.0000 O   0  0  0  0  0  0  0  0  0  0  0  0
    6.9957    1.8100    0.0000 S   0  0  0  0  0  0  0  0  0  0  0  0
    6.0581    0.6392    0.0000 O   0  0  0  0  0  0  0  0  0  0  0  0
    7.9333    2.9809    0.0000 O   0  0  0  0  0  0  0  0  0  0  0  0
    8.1665    0.8724    0.0000 O   0  0  0  0  0  0  0  0  0  0  0  0
    3.2565    3.1400    0.0000 C   0  0  0  0  0  0  0  0  0  0  0  0
    1.8591    2.5948    0.0000 C   0  0  0  0  0  0  0  0  0  0  0  0
    1.6326    1.1121    0.0000 C   0  0  0  0  0  0  0  0  0  0  0  0
    0.4617    2.0497    0.0000 C   0  0  0  0  0  0  0  0  0  0  0  0
    0.2352    0.5669    0.0000 C   0  0  0  0  0  0  0  0  0  0  0  0
   -0.9357    1.5045    0.0000 C   0  0  0  0  0  0  0  0  0  0  0  0
   -2.3331    0.9593    0.0000 C   0  0  0  0  0  0  0  0  0  0  0  0
   -2.5597   -0.5235    0.0000 C   0  0  0  0  0  0  0  0  0  0  0  0
   -3.8221    0.2866    0.0000 C   0  0  0  0  0  0  0  0  0  0  0  0
  2  1  1  6
  2  3  1  0
  3  4  1  0
  4  5  1  0
  5  6  2  0
  5  7  1  0
  2  8  1  0
  8  9  1  6
  9 10  1  0
 11 10  1  6
 11 12  1  0
 12 13  1  1
 13 14  1  6
 14 15  1  0
 15 16  1  0
 16 17  1  0
 13 18  1  0
 19 18  1  1
 19 20  1  0
 20 21  1  0
 21 22  1  1
 22 23  1  0
 23 24  2  0
 23 25  2  0
 23 26  1  0
 21 27  1  0
 27 28  1  0
 28 29  1  0
 29 30  1  6
 29 31  1  0
 31 32  1  6
 32 33  1  0
 33 34  1  0
 34 35  1  6
 34  8  1  0
 34 11  1  0
 31 12  1  0
 29 19  1  0
M  END
>  <MS_ID>  (1721) 
MS1788

>  <SMILES>  (1721) 
C[C@H](CCC(=O)O)[C@H]1CC[C@H]2[C@@H]3[C@@H](OCCO)C[C@@H]4C[C@H](OS(=O)(=O)O)CC[C@]4(C)[C@H]3CC[C@]12C

>  <Structure_dimension>  (1721) 
2D

$$$$
MS1789
     RDKit          2D

 34 37  0  0  0  0  0  0  0  0999 V2000
   -2.7457   -3.8277    0.0000 C   0  0  0  0  0  0  0  0  0  0  0  0
   -1.9007   -2.5883    0.0000 C   0  0  0  0  0  0  0  0  0  0  0  0
   -2.5515   -1.2369    0.0000 C   0  0  0  0  0  0  0  0  0  0  0  0
   -4.0473   -1.1247    0.0000 C   0  0  0  0  0  0  0  0  0  0  0  0
   -4.6981    0.2267    0.0000 C   0  0  0  0  0  0  0  0  0  0  0  0
   -3.8531    1.4661    0.0000 O   0  0  0  0  0  0  0  0  0  0  0  0
   -6.1939    0.3389    0.0000 O   0  0  0  0  0  0  0  0  0  0  0  0
   -6.8447    1.6903    0.0000 C   0  0  0  0  0  0  0  0  0  0  0  0
   -8.3405    1.8025    0.0000 C   0  0  0  0  0  0  0  0  0  0  0  0
   -9.8363    1.9146    0.0000 F   0  0  0  0  0  0  0  0  0  0  0  0
   -8.2283    3.2983    0.0000 F   0  0  0  0  0  0  0  0  0  0  0  0
   -8.4526    0.3067    0.0000 F   0  0  0  0  0  0  0  0  0  0  0  0
   -0.4049   -2.7005    0.0000 C   0  0  0  0  0  0  0  0  0  0  0  0
    0.3836   -3.9765    0.0000 C   0  0  0  0  0  0  0  0  0  0  0  0
    1.8409   -3.6209    0.0000 C   0  0  0  0  0  0  0  0  0  0  0  0
    1.9530   -2.1251    0.0000 C   0  0  0  0  0  0  0  0  0  0  0  0
    3.1396   -1.2076    0.0000 C   0  0  0  0  0  0  0  0  0  0  0  0
    4.5276   -1.7764    0.0000 C   0  0  0  0  0  0  0  0  0  0  0  0
    4.7289   -3.2629    0.0000 O   0  0  0  0  0  0  0  0  0  0  0  0
    5.7142   -0.8589    0.0000 C   0  0  0  0  0  0  0  0  0  0  0  0
    5.5129    0.6276    0.0000 C   0  0  0  0  0  0  0  0  0  0  0  0
    6.6995    1.5451    0.0000 C   0  0  0  0  0  0  0  0  0  0  0  0
    6.4982    3.0315    0.0000 C   0  0  0  0  0  0  0  0  0  0  0  0
    7.6848    3.9491    0.0000 O   0  0  0  0  0  0  0  0  0  0  0  0
    5.1102    3.6004    0.0000 C   0  0  0  0  0  0  0  0  0  0  0  0
    3.9236    2.6829    0.0000 C   0  0  0  0  0  0  0  0  0  0  0  0
    4.1249    1.1964    0.0000 C   0  0  0  0  0  0  0  0  0  0  0  0
    2.7370    1.7653    0.0000 C   0  0  0  0  0  0  0  0  0  0  0  0
    2.9383    0.2789    0.0000 C   0  0  0  0  0  0  0  0  0  0  0  0
    1.5504    0.8477    0.0000 C   0  0  0  0  0  0  0  0  0  0  0  0
    0.3637   -0.0698    0.0000 C   0  0  0  0  0  0  0  0  0  0  0  0
   -1.0242    0.4991    0.0000 O   0  0  0  0  0  0  0  0  0  0  0  0
    0.5650   -1.5562    0.0000 C   0  0  0  0  0  0  0  0  0  0  0  0
   -0.8748   -1.1356    0.0000 C   0  0  0  0  0  0  0  0  0  0  0  0
  2  1  1  6
  2  3  1  0
  3  4  1  0
  4  5  1  0
  5  6  2  0
  5  7  1  0
  7  8  1  0
  8  9  1  0
  9 10  1  0
  9 11  1  0
  9 12  1  0
  2 13  1  0
 13 14  1  6
 14 15  1  0
 16 15  1  6
 16 17  1  0
 17 18  1  1
 18 19  1  1
 18 20  1  0
 21 20  1  1
 21 22  1  0
 22 23  1  0
 23 24  1  1
 23 25  1  0
 25 26  1  0
 26 27  1  0
 27 28  1  6
 27 29  1  0
 29 30  1  6
 30 31  1  0
 31 32  1  1
 31 33  1  0
 33 34  1  6
 33 13  1  0
 33 16  1  0
 29 17  1  0
 27 21  1  0
M  END
>  <MS_ID>  (1722) 
MS1789

>  <SMILES>  (1722) 
C[C@H](CCC(=O)OCC(F)(F)F)[C@H]1CC[C@H]2[C@@H]3[C@H](O)C[C@@H]4C[C@H](O)CC[C@]4(C)[C@H]3C[C@H](O)[C@]12C

>  <Structure_dimension>  (1722) 
2D

$$$$
MS1790
     RDKit          2D

 38 42  0  0  0  0  0  0  0  0999 V2000
   -1.2644   -4.5554    0.0000 C   0  0  0  0  0  0  0  0  0  0  0  0
   -0.6378   -3.1926    0.0000 C   0  0  0  0  0  0  0  0  0  0  0  0
   -1.5048   -1.9685    0.0000 C   0  0  0  0  0  0  0  0  0  0  0  0
   -2.9984   -2.1073    0.0000 C   0  0  0  0  0  0  0  0  0  0  0  0
   -3.8654   -0.8833    0.0000 C   0  0  0  0  0  0  0  0  0  0  0  0
   -3.2388    0.4796    0.0000 O   0  0  0  0  0  0  0  0  0  0  0  0
   -5.3590   -1.0221    0.0000 N   0  0  0  0  0  0  0  0  0  0  0  0
   -6.2260    0.2020    0.0000 C   0  0  0  0  0  0  0  0  0  0  0  0
   -5.5994    1.5648    0.0000 C   0  0  0  0  0  0  0  0  0  0  0  0
   -6.4664    2.7889    0.0000 C   0  0  0  0  0  0  0  0  0  0  0  0
   -7.9600    2.6501    0.0000 C   0  0  0  0  0  0  0  0  0  0  0  0
   -8.5865    1.2872    0.0000 C   0  0  0  0  0  0  0  0  0  0  0  0
  -10.0801    1.1484    0.0000 C   0  0  0  0  0  0  0  0  0  0  0  0
  -10.7067   -0.2145    0.0000 O   0  0  0  0  0  0  0  0  0  0  0  0
  -10.9471    2.3724    0.0000 O   0  0  0  0  0  0  0  0  0  0  0  0
   -7.7195    0.0631    0.0000 C   0  0  0  0  0  0  0  0  0  0  0  0
    0.8557   -3.0538    0.0000 C   0  0  0  0  0  0  0  0  0  0  0  0
    1.8459   -4.1805    0.0000 C   0  0  0  0  0  0  0  0  0  0  0  0
    3.2235   -3.5869    0.0000 C   0  0  0  0  0  0  0  0  0  0  0  0
    3.0847   -2.0933    0.0000 C   0  0  0  0  0  0  0  0  0  0  0  0
    4.1017   -0.9908    0.0000 C   0  0  0  0  0  0  0  0  0  0  0  0
    5.5651   -1.3203    0.0000 C   0  0  0  0  0  0  0  0  0  0  0  0
    6.0114   -2.7524    0.0000 O   0  0  0  0  0  0  0  0  0  0  0  0
    6.5821   -0.2178    0.0000 C   0  0  0  0  0  0  0  0  0  0  0  0
    8.0455   -0.5473    0.0000 O   0  0  0  0  0  0  0  0  0  0  0  0
    6.1358    1.2143    0.0000 C   0  0  0  0  0  0  0  0  0  0  0  0
    7.1528    2.3169    0.0000 C   0  0  0  0  0  0  0  0  0  0  0  0
    6.7065    3.7489    0.0000 C   0  0  0  0  0  0  0  0  0  0  0  0
    7.7236    4.8515    0.0000 O   0  0  0  0  0  0  0  0  0  0  0  0
    5.2432    4.0784    0.0000 C   0  0  0  0  0  0  0  0  0  0  0  0
    4.2261    2.9759    0.0000 C   0  0  0  0  0  0  0  0  0  0  0  0
    4.6724    1.5438    0.0000 C   0  0  0  0  0  0  0  0  0  0  0  0
    3.2091    1.8733    0.0000 C   0  0  0  0  0  0  0  0  0  0  0  0
    3.6554    0.4413    0.0000 C   0  0  0  0  0  0  0  0  0  0  0  0
    2.1920    0.7708    0.0000 C   0  0  0  0  0  0  0  0  0  0  0  0
    1.1750   -0.3318    0.0000 C   0  0  0  0  0  0  0  0  0  0  0  0
    1.6213   -1.7638    0.0000 C   0  0  0  0  0  0  0  0  0  0  0  0
    0.1315   -1.5891    0.0000 C   0  0  0  0  0  0  0  0  0  0  0  0
  2  1  1  6
  2  3  1  0
  3  4  1  0
  4  5  1  0
  5  6  2  0
  5  7  1  0
  7  8  1  0
  8  9  2  0
  9 10  1  0
 10 11  2  0
 11 12  1  0
 12 13  1  0
 13 14  2  0
 13 15  1  0
 12 16  2  0
  2 17  1  0
 17 18  1  6
 18 19  1  0
 20 19  1  6
 20 21  1  0
 21 22  1  1
 22 23  1  1
 22 24  1  0
 24 25  1  1
 24 26  1  0
 26 27  1  1
 27 28  1  0
 28 29  1  1
 28 30  1  0
 30 31  1  0
 31 32  1  0
 32 33  1  6
 32 34  1  0
 34 35  1  6
 35 36  1  0
 36 37  1  0
 37 38  1  6
 16  8  1  0
 37 17  1  0
 37 20  1  0
 34 21  1  0
 32 26  1  0
M  END
>  <MS_ID>  (1723) 
MS1790

>  <SMILES>  (1723) 
C[C@H](CCC(=O)Nc1cccc(C(=O)O)c1)[C@H]1CC[C@H]2[C@@H]3[C@H](O)[C@H](O)[C@@H]4C[C@H](O)CC[C@]4(C)[C@H]3CC[C@]12C

>  <Structure_dimension>  (1723) 
2D

$$$$
MS1791
     RDKit          2D

 31 34  0  0  0  0  0  0  0  0999 V2000
   -4.7372   -2.2415    0.0000 C   0  0  0  0  0  0  0  0  0  0  0  0
   -3.5492   -1.3257    0.0000 C   0  0  0  0  0  0  0  0  0  0  0  0
   -3.7483    0.1610    0.0000 C   0  0  0  0  0  0  0  0  0  0  0  0
   -5.1354    0.7319    0.0000 C   0  0  0  0  0  0  0  0  0  0  0  0
   -5.3345    2.2187    0.0000 C   0  0  0  0  0  0  0  0  0  0  0  0
   -4.1465    3.1345    0.0000 O   0  0  0  0  0  0  0  0  0  0  0  0
   -6.7216    2.7896    0.0000 O   0  0  0  0  0  0  0  0  0  0  0  0
   -2.1621   -1.8967    0.0000 C   0  0  0  0  0  0  0  0  0  0  0  0
   -1.8087   -3.3544    0.0000 C   0  0  0  0  0  0  0  0  0  0  0  0
   -0.3131   -3.4688    0.0000 C   0  0  0  0  0  0  0  0  0  0  0  0
    0.2579   -2.0817    0.0000 C   0  0  0  0  0  0  0  0  0  0  0  0
    1.6707   -1.5778    0.0000 C   0  0  0  0  0  0  0  0  0  0  0  0
    2.8135   -2.5495    0.0000 C   0  0  0  0  0  0  0  0  0  0  0  0
    4.2263   -2.0456    0.0000 C   0  0  0  0  0  0  0  0  0  0  0  0
    4.4964   -0.5701    0.0000 C   0  0  0  0  0  0  0  0  0  0  0  0
    5.9092   -0.0662    0.0000 C   0  0  0  0  0  0  0  0  0  0  0  0
    6.1793    1.4092    0.0000 C   0  0  0  0  0  0  0  0  0  0  0  0
    7.5921    1.9131    0.0000 O   0  0  0  0  0  0  0  0  0  0  0  0
    5.0365    2.3809    0.0000 C   0  0  0  0  0  0  0  0  0  0  0  0
    3.6237    1.8770    0.0000 C   0  0  0  0  0  0  0  0  0  0  0  0
    3.3536    0.4015    0.0000 C   0  0  0  0  0  0  0  0  0  0  0  0
    2.2108    1.3732    0.0000 C   0  0  0  0  0  0  0  0  0  0  0  0
    1.9408   -0.1023    0.0000 C   0  0  0  0  0  0  0  0  0  0  0  0
    0.7980    0.8693    0.0000 C   0  0  0  0  0  0  0  0  0  0  0  0
   -0.6149    0.3654    0.0000 C   0  0  0  0  0  0  0  0  0  0  0  0
   -0.8657    1.8443    0.0000 O   0  0  0  0  0  0  0  0  0  0  0  0
   -2.1148    0.3752    0.0000 C   0  0  0  0  0  0  0  0  0  0  0  0
   -2.9645   -0.4933    0.0000 O   0  0  0  0  0  0  0  0  0  0  0  0
   -2.8564    1.6791    0.0000 O   0  0  0  0  0  0  0  0  0  0  0  0
   -0.8849   -1.1101    0.0000 C   0  0  0  0  0  0  0  0  0  0  0  0
   -2.1505   -0.6402    0.0000 C   0  0  0  0  0  0  0  0  0  0  0  0
  2  1  1  6
  2  3  1  0
  3  4  1  0
  4  5  1  0
  5  6  2  0
  5  7  1  0
  2  8  1  0
  8  9  1  6
  9 10  1  0
 11 10  1  6
 11 12  1  0
 12 13  1  1
 13 14  1  0
 15 14  1  1
 15 16  1  0
 16 17  1  0
 17 18  1  6
 17 19  1  0
 19 20  1  0
 20 21  1  0
 21 22  1  6
 21 23  1  0
 23 24  1  6
 24 25  1  0
 25 26  1  1
 25 27  1  0
 27 28  2  0
 27 29  1  0
 25 30  1  0
 30 31  1  6
 30  8  1  0
 30 11  1  0
 23 12  1  0
 21 15  1  0
M  END
>  <MS_ID>  (1724) 
MS1791

>  <SMILES>  (1724) 
C[C@H](CCC(=O)O)[C@H]1CC[C@H]2[C@@H]3CC[C@@H]4C[C@@H](O)CC[C@]4(C)[C@H]3C[C@@](O)(C(=O)O)[C@]12C

>  <Structure_dimension>  (1724) 
2D

$$$$
MS1792
     RDKit          2D

 34 37  0  0  0  0  0  0  0  0999 V2000
   -5.6108   -2.4997    0.0000 C   0  0  0  0  0  0  0  0  0  0  0  0
   -4.4564   -1.5419    0.0000 C   0  0  0  0  0  0  0  0  0  0  0  0
   -4.7086   -0.0633    0.0000 C   0  0  0  0  0  0  0  0  0  0  0  0
   -6.1153    0.4576    0.0000 C   0  0  0  0  0  0  0  0  0  0  0  0
   -6.3675    1.9362    0.0000 C   0  0  0  0  0  0  0  0  0  0  0  0
   -5.2131    2.8940    0.0000 O   0  0  0  0  0  0  0  0  0  0  0  0
   -7.7742    2.4571    0.0000 C   0  0  0  0  0  0  0  0  0  0  0  0
   -8.0264    3.9358    0.0000 N   0  0  0  0  0  0  0  0  0  0  0  0
   -8.9286    1.4994    0.0000 O   0  0  0  0  0  0  0  0  0  0  0  0
   -3.0498   -2.0628    0.0000 C   0  0  0  0  0  0  0  0  0  0  0  0
   -2.6443   -3.5070    0.0000 C   0  0  0  0  0  0  0  0  0  0  0  0
   -1.1456   -3.5677    0.0000 C   0  0  0  0  0  0  0  0  0  0  0  0
   -0.6247   -2.1611    0.0000 C   0  0  0  0  0  0  0  0  0  0  0  0
    0.7692   -1.6069    0.0000 C   0  0  0  0  0  0  0  0  0  0  0  0
    1.9460   -2.5370    0.0000 C   0  0  0  0  0  0  0  0  0  0  0  0
    1.7290   -4.0212    0.0000 O   0  0  0  0  0  0  0  0  0  0  0  0
    3.3399   -1.9829    0.0000 C   0  0  0  0  0  0  0  0  0  0  0  0
    3.5570   -0.4986    0.0000 C   0  0  0  0  0  0  0  0  0  0  0  0
    4.9509    0.0555    0.0000 C   0  0  0  0  0  0  0  0  0  0  0  0
    5.1679    1.5397    0.0000 C   0  0  0  0  0  0  0  0  0  0  0  0
    6.5618    2.0938    0.0000 O   0  0  0  0  0  0  0  0  0  0  0  0
    7.7386    1.1638    0.0000 S   0  0  0  0  0  0  0  0  0  0  0  0
    6.8086   -0.0131    0.0000 O   0  0  0  0  0  0  0  0  0  0  0  0
    8.6687    2.3406    0.0000 O   0  0  0  0  0  0  0  0  0  0  0  0
    8.9155    0.2337    0.0000 O   0  0  0  0  0  0  0  0  0  0  0  0
    3.9911    2.4698    0.0000 C   0  0  0  0  0  0  0  0  0  0  0  0
    2.5972    1.9156    0.0000 C   0  0  0  0  0  0  0  0  0  0  0  0
    2.3801    0.4314    0.0000 C   0  0  0  0  0  0  0  0  0  0  0  0
    1.2033    1.3615    0.0000 C   0  0  0  0  0  0  0  0  0  0  0  0
    0.9862   -0.1227    0.0000 C   0  0  0  0  0  0  0  0  0  0  0  0
   -0.1906    0.8074    0.0000 C   0  0  0  0  0  0  0  0  0  0  0  0
   -1.5845    0.2532    0.0000 C   0  0  0  0  0  0  0  0  0  0  0  0
   -1.8015   -1.2310    0.0000 C   0  0  0  0  0  0  0  0  0  0  0  0
   -3.0692   -0.4290    0.0000 C   0  0  0  0  0  0  0  0  0  0  0  0
  2  1  1  6
  2  3  1  0
  3  4  1  0
  4  5  1  0
  5  6  2  0
  5  7  1  0
  7  8  1  0
  7  9  2  0
  2 10  1  0
 10 11  1  6
 11 12  1  0
 13 12  1  6
 13 14  1  0
 14 15  1  1
 15 16  1  1
 15 17  1  0
 18 17  1  1
 18 19  1  0
 19 20  1  0
 20 21  1  1
 21 22  1  0
 22 23  2  0
 22 24  2  0
 22 25  1  0
 20 26  1  0
 26 27  1  0
 27 28  1  0
 28 29  1  6
 28 30  1  0
 30 31  1  6
 31 32  1  0
 32 33  1  0
 33 34  1  6
 33 10  1  0
 33 13  1  0
 30 14  1  0
 28 18  1  0
M  END
>  <MS_ID>  (1725) 
MS1792

>  <SMILES>  (1725) 
C[C@H](CCC(=O)C(N)=O)[C@H]1CC[C@H]2[C@@H]3[C@H](O)C[C@@H]4C[C@H](OS(=O)(=O)O)CC[C@]4(C)[C@H]3CC[C@]12C

>  <Structure_dimension>  (1725) 
2D

$$$$
MS1793
     RDKit          2D

 32 35  0  0  0  0  0  0  0  0999 V2000
   -3.6687   -3.7654    0.0000 C   0  0  0  0  0  0  0  0  0  0  0  0
   -2.7694   -2.5649    0.0000 C   0  0  0  0  0  0  0  0  0  0  0  0
   -3.3594   -1.1858    0.0000 C   0  0  0  0  0  0  0  0  0  0  0  0
   -4.8488   -1.0072    0.0000 C   0  0  0  0  0  0  0  0  0  0  0  0
   -5.4388    0.3718    0.0000 C   0  0  0  0  0  0  0  0  0  0  0  0
   -6.9281    0.5504    0.0000 O   0  0  0  0  0  0  0  0  0  0  0  0
   -4.5395    1.5724    0.0000 S   0  0  0  0  0  0  0  0  0  0  0  0
   -5.1295    2.9514    0.0000 S   0  0  0  0  0  0  0  0  0  0  0  0
   -6.5086    2.3614    0.0000 O   0  0  0  0  0  0  0  0  0  0  0  0
   -5.7196    4.3305    0.0000 O   0  0  0  0  0  0  0  0  0  0  0  0
   -3.7505    3.5415    0.0000 O   0  0  0  0  0  0  0  0  0  0  0  0
   -1.2801   -2.7434    0.0000 C   0  0  0  0  0  0  0  0  0  0  0  0
   -0.5491   -4.0533    0.0000 C   0  0  0  0  0  0  0  0  0  0  0  0
    0.9225   -3.7629    0.0000 C   0  0  0  0  0  0  0  0  0  0  0  0
    1.1011   -2.2735    0.0000 C   0  0  0  0  0  0  0  0  0  0  0  0
    2.3273   -1.4097    0.0000 C   0  0  0  0  0  0  0  0  0  0  0  0
    3.6886   -2.0397    0.0000 C   0  0  0  0  0  0  0  0  0  0  0  0
    3.8236   -3.5336    0.0000 O   0  0  0  0  0  0  0  0  0  0  0  0
    4.9149   -1.1759    0.0000 C   0  0  0  0  0  0  0  0  0  0  0  0
    4.7799    0.3181    0.0000 C   0  0  0  0  0  0  0  0  0  0  0  0
    6.0061    1.1819    0.0000 C   0  0  0  0  0  0  0  0  0  0  0  0
    5.8711    2.6758    0.0000 C   0  0  0  0  0  0  0  0  0  0  0  0
    7.0974    3.5397    0.0000 O   0  0  0  0  0  0  0  0  0  0  0  0
    4.5099    3.3059    0.0000 C   0  0  0  0  0  0  0  0  0  0  0  0
    3.2836    2.4420    0.0000 C   0  0  0  0  0  0  0  0  0  0  0  0
    3.4186    0.9481    0.0000 C   0  0  0  0  0  0  0  0  0  0  0  0
    2.0573    1.5782    0.0000 C   0  0  0  0  0  0  0  0  0  0  0  0
    2.1923    0.0842    0.0000 C   0  0  0  0  0  0  0  0  0  0  0  0
    0.8311    0.7143    0.0000 C   0  0  0  0  0  0  0  0  0  0  0  0
   -0.3952   -0.1496    0.0000 C   0  0  0  0  0  0  0  0  0  0  0  0
   -0.2602   -1.6435    0.0000 C   0  0  0  0  0  0  0  0  0  0  0  0
   -1.6799   -1.1592    0.0000 C   0  0  0  0  0  0  0  0  0  0  0  0
  2  1  1  6
  2  3  1  0
  3  4  1  0
  4  5  1  0
  5  6  2  0
  5  7  1  0
  7  8  1  0
  8  9  2  0
  8 10  2  0
  8 11  1  0
  2 12  1  0
 12 13  1  6
 13 14  1  0
 15 14  1  6
 15 16  1  0
 16 17  1  1
 17 18  1  6
 17 19  1  0
 20 19  1  1
 20 21  1  0
 21 22  1  0
 22 23  1  1
 22 24  1  0
 24 25  1  0
 25 26  1  0
 26 27  1  6
 26 28  1  0
 28 29  1  6
 29 30  1  0
 30 31  1  0
 31 32  1  6
 31 12  1  0
 31 15  1  0
 28 16  1  0
 26 20  1  0
M  END
>  <MS_ID>  (1726) 
MS1793

>  <SMILES>  (1726) 
C[C@H](CCC(=O)SS(=O)(=O)O)[C@H]1CC[C@H]2[C@@H]3[C@@H](O)C[C@@H]4C[C@H](O)CC[C@]4(C)[C@H]3CC[C@]12C

>  <Structure_dimension>  (1726) 
2D

$$$$
MS1794
     RDKit          2D

 33 36  0  0  0  0  0  0  0  0999 V2000
   -2.9210   -4.0382    0.0000 C   0  0  0  0  0  0  0  0  0  0  0  0
   -2.0654   -2.8062    0.0000 C   0  0  0  0  0  0  0  0  0  0  0  0
   -2.7045   -1.4491    0.0000 C   0  0  0  0  0  0  0  0  0  0  0  0
   -4.1993   -1.3241    0.0000 C   0  0  0  0  0  0  0  0  0  0  0  0
   -4.8384    0.0329    0.0000 C   0  0  0  0  0  0  0  0  0  0  0  0
   -3.9827    1.2649    0.0000 O   0  0  0  0  0  0  0  0  0  0  0  0
   -6.3332    0.1579    0.0000 C   0  0  0  0  0  0  0  0  0  0  0  0
   -6.9723    1.5149    0.0000 C   0  0  0  0  0  0  0  0  0  0  0  0
   -8.4671    1.6400    0.0000 C   0  0  0  0  0  0  0  0  0  0  0  0
   -6.1167    2.7470    0.0000 C   0  0  0  0  0  0  0  0  0  0  0  0
   -4.6219    2.6219    0.0000 O   0  0  0  0  0  0  0  0  0  0  0  0
   -6.7558    4.1040    0.0000 O   0  0  0  0  0  0  0  0  0  0  0  0
   -0.5706   -2.9312    0.0000 C   0  0  0  0  0  0  0  0  0  0  0  0
    0.2069   -4.2139    0.0000 C   0  0  0  0  0  0  0  0  0  0  0  0
    1.6671   -3.8709    0.0000 C   0  0  0  0  0  0  0  0  0  0  0  0
    1.7922   -2.3761    0.0000 C   0  0  0  0  0  0  0  0  0  0  0  0
    2.9866   -1.4688    0.0000 C   0  0  0  0  0  0  0  0  0  0  0  0
    4.3696   -2.0497    0.0000 C   0  0  0  0  0  0  0  0  0  0  0  0
    5.5641   -1.1424    0.0000 C   0  0  0  0  0  0  0  0  0  0  0  0
    5.3756    0.3458    0.0000 C   0  0  0  0  0  0  0  0  0  0  0  0
    6.5701    1.2531    0.0000 C   0  0  0  0  0  0  0  0  0  0  0  0
    6.3816    2.7412    0.0000 C   0  0  0  0  0  0  0  0  0  0  0  0
    7.5761    3.6485    0.0000 O   0  0  0  0  0  0  0  0  0  0  0  0
    4.9986    3.3220    0.0000 C   0  0  0  0  0  0  0  0  0  0  0  0
    3.8041    2.4147    0.0000 C   0  0  0  0  0  0  0  0  0  0  0  0
    3.9926    0.9266    0.0000 C   0  0  0  0  0  0  0  0  0  0  0  0
    2.6096    1.5074    0.0000 C   0  0  0  0  0  0  0  0  0  0  0  0
    2.7981    0.0193    0.0000 C   0  0  0  0  0  0  0  0  0  0  0  0
    1.4151    0.6001    0.0000 C   0  0  0  0  0  0  0  0  0  0  0  0
    0.2207   -0.3072    0.0000 C   0  0  0  0  0  0  0  0  0  0  0  0
   -1.1623    0.2736    0.0000 O   0  0  0  0  0  0  0  0  0  0  0  0
    0.4092   -1.7953    0.0000 C   0  0  0  0  0  0  0  0  0  0  0  0
   -1.0270   -1.3623    0.0000 C   0  0  0  0  0  0  0  0  0  0  0  0
  2  1  1  6
  2  3  1  0
  3  4  1  0
  4  5  1  0
  5  6  2  0
  5  7  1  0
  7  8  1  0
  8  9  1  6
  8 10  1  0
 10 11  2  0
 10 12  1  0
  2 13  1  0
 13 14  1  6
 14 15  1  0
 16 15  1  6
 16 17  1  0
 17 18  1  1
 18 19  1  0
 20 19  1  1
 20 21  1  0
 21 22  1  0
 22 23  1  1
 22 24  1  0
 24 25  1  0
 25 26  1  0
 26 27  1  6
 26 28  1  0
 28 29  1  6
 29 30  1  0
 30 31  1  1
 30 32  1  0
 32 33  1  6
 32 13  1  0
 32 16  1  0
 28 17  1  0
 26 20  1  0
M  END
>  <MS_ID>  (1727) 
MS1794

>  <SMILES>  (1727) 
C[C@H](CCC(=O)C[C@H](C)C(=O)O)[C@H]1CC[C@H]2[C@@H]3CC[C@@H]4C[C@H](O)CC[C@]4(C)[C@H]3C[C@H](O)[C@]12C

>  <Structure_dimension>  (1727) 
2D

$$$$
MS1795
     RDKit          2D

 33 36  0  0  0  0  0  0  0  0999 V2000
   -6.3939   -1.8362    0.0000 C   0  0  0  0  0  0  0  0  0  0  0  0
   -5.1799   -0.9553    0.0000 C   0  0  0  0  0  0  0  0  0  0  0  0
   -5.3357    0.5366    0.0000 C   0  0  0  0  0  0  0  0  0  0  0  0
   -6.7057    1.1475    0.0000 C   0  0  0  0  0  0  0  0  0  0  0  0
   -6.8616    2.6394    0.0000 C   0  0  0  0  0  0  0  0  0  0  0  0
   -8.2315    3.2503    0.0000 O   0  0  0  0  0  0  0  0  0  0  0  0
   -5.6475    3.5203    0.0000 S   0  0  0  0  0  0  0  0  0  0  0  0
   -3.8099   -1.5663    0.0000 C   0  0  0  0  0  0  0  0  0  0  0  0
   -3.4990   -3.0337    0.0000 C   0  0  0  0  0  0  0  0  0  0  0  0
   -2.0073   -3.1914    0.0000 C   0  0  0  0  0  0  0  0  0  0  0  0
   -1.3963   -1.8214    0.0000 C   0  0  0  0  0  0  0  0  0  0  0  0
    0.0305   -1.3588    0.0000 C   0  0  0  0  0  0  0  0  0  0  0  0
    1.1446   -2.3632    0.0000 C   0  0  0  0  0  0  0  0  0  0  0  0
    0.8319   -3.8302    0.0000 O   0  0  0  0  0  0  0  0  0  0  0  0
    2.5715   -1.9005    0.0000 C   0  0  0  0  0  0  0  0  0  0  0  0
    3.6856   -2.9049    0.0000 O   0  0  0  0  0  0  0  0  0  0  0  0
    2.8843   -0.4335    0.0000 C   0  0  0  0  0  0  0  0  0  0  0  0
    4.3112    0.0291    0.0000 C   0  0  0  0  0  0  0  0  0  0  0  0
    4.6239    1.4962    0.0000 C   0  0  0  0  0  0  0  0  0  0  0  0
    6.0508    1.9588    0.0000 O   0  0  0  0  0  0  0  0  0  0  0  0
    7.1649    0.9544    0.0000 S   0  0  0  0  0  0  0  0  0  0  0  0
    6.1605   -0.1597    0.0000 O   0  0  0  0  0  0  0  0  0  0  0  0
    8.1693    2.0685    0.0000 O   0  0  0  0  0  0  0  0  0  0  0  0
    8.2790   -0.0499    0.0000 O   0  0  0  0  0  0  0  0  0  0  0  0
    3.5098    2.5006    0.0000 C   0  0  0  0  0  0  0  0  0  0  0  0
    2.0830    2.0379    0.0000 C   0  0  0  0  0  0  0  0  0  0  0  0
    1.7702    0.5709    0.0000 C   0  0  0  0  0  0  0  0  0  0  0  0
    0.6561    1.5753    0.0000 C   0  0  0  0  0  0  0  0  0  0  0  0
    0.3433    0.1082    0.0000 C   0  0  0  0  0  0  0  0  0  0  0  0
   -0.7708    1.1126    0.0000 C   0  0  0  0  0  0  0  0  0  0  0  0
   -2.1976    0.6500    0.0000 C   0  0  0  0  0  0  0  0  0  0  0  0
   -2.5104   -0.8171    0.0000 C   0  0  0  0  0  0  0  0  0  0  0  0
   -3.7234    0.0654    0.0000 C   0  0  0  0  0  0  0  0  0  0  0  0
  2  1  1  6
  2  3  1  0
  3  4  1  0
  4  5  1  0
  5  6  2  0
  5  7  1  0
  2  8  1  0
  8  9  1  6
  9 10  1  0
 11 10  1  6
 11 12  1  0
 12 13  1  1
 13 14  1  1
 13 15  1  0
 15 16  1  1
 15 17  1  0
 17 18  1  1
 18 19  1  0
 19 20  1  1
 20 21  1  0
 21 22  2  0
 21 23  2  0
 21 24  1  0
 19 25  1  0
 25 26  1  0
 26 27  1  0
 27 28  1  6
 27 29  1  0
 29 30  1  6
 30 31  1  0
 31 32  1  0
 32 33  1  6
 32  8  1  0
 32 11  1  0
 29 12  1  0
 27 17  1  0
M  END
>  <MS_ID>  (1728) 
MS1795

>  <SMILES>  (1728) 
C[C@H](CCC(=O)S)[C@H]1CC[C@H]2[C@@H]3[C@H](O)[C@H](O)[C@@H]4C[C@H](OS(=O)(=O)O)CC[C@]4(C)[C@H]3CC[C@]12C

>  <Structure_dimension>  (1728) 
2D

$$$$
MS1796
     RDKit          2D

 28 31  0  0  0  0  0  0  0  0999 V2000
   -4.6352   -2.6140    0.0000 C   0  0  0  0  0  0  0  0  0  0  0  0
   -3.5136   -1.6180    0.0000 C   0  0  0  0  0  0  0  0  0  0  0  0
   -3.8154   -0.1486    0.0000 C   0  0  0  0  0  0  0  0  0  0  0  0
   -5.2387    0.3247    0.0000 C   0  0  0  0  0  0  0  0  0  0  0  0
   -5.5405    1.7940    0.0000 C   0  0  0  0  0  0  0  0  0  0  0  0
   -4.4189    2.7900    0.0000 O   0  0  0  0  0  0  0  0  0  0  0  0
   -6.9639    2.2673    0.0000 C   0  0  0  0  0  0  0  0  0  0  0  0
   -7.2657    3.7367    0.0000 S   0  0  0  0  0  0  0  0  0  0  0  0
   -2.0902   -2.0913    0.0000 C   0  0  0  0  0  0  0  0  0  0  0  0
   -1.6365   -3.5210    0.0000 C   0  0  0  0  0  0  0  0  0  0  0  0
   -0.1366   -3.5313    0.0000 C   0  0  0  0  0  0  0  0  0  0  0  0
    0.3368   -2.1080    0.0000 C   0  0  0  0  0  0  0  0  0  0  0  0
    1.7112   -1.5073    0.0000 C   0  0  0  0  0  0  0  0  0  0  0  0
    2.9187   -2.3973    0.0000 C   0  0  0  0  0  0  0  0  0  0  0  0
    4.2932   -1.7966    0.0000 C   0  0  0  0  0  0  0  0  0  0  0  0
    4.4602   -0.3060    0.0000 C   0  0  0  0  0  0  0  0  0  0  0  0
    5.8347    0.2947    0.0000 C   0  0  0  0  0  0  0  0  0  0  0  0
    6.0017    1.7854    0.0000 C   0  0  0  0  0  0  0  0  0  0  0  0
    7.3762    2.3861    0.0000 O   0  0  0  0  0  0  0  0  0  0  0  0
    4.7943    2.6754    0.0000 C   0  0  0  0  0  0  0  0  0  0  0  0
    3.4198    2.0747    0.0000 C   0  0  0  0  0  0  0  0  0  0  0  0
    3.2528    0.5840    0.0000 C   0  0  0  0  0  0  0  0  0  0  0  0
    2.0453    1.4740    0.0000 C   0  0  0  0  0  0  0  0  0  0  0  0
    1.8783   -0.0166    0.0000 C   0  0  0  0  0  0  0  0  0  0  0  0
    0.6708    0.8734    0.0000 C   0  0  0  0  0  0  0  0  0  0  0  0
   -0.7036    0.2727    0.0000 C   0  0  0  0  0  0  0  0  0  0  0  0
   -0.8707   -1.2180    0.0000 C   0  0  0  0  0  0  0  0  0  0  0  0
   -2.1645   -0.4591    0.0000 C   0  0  0  0  0  0  0  0  0  0  0  0
  2  1  1  6
  2  3  1  0
  3  4  1  0
  4  5  1  0
  5  6  2  0
  5  7  1  0
  7  8  1  0
  2  9  1  0
  9 10  1  6
 10 11  1  0
 12 11  1  6
 12 13  1  0
 13 14  1  1
 14 15  1  0
 16 15  1  1
 16 17  1  0
 17 18  1  0
 18 19  1  6
 18 20  1  0
 20 21  1  0
 21 22  1  0
 22 23  1  6
 22 24  1  0
 24 25  1  6
 25 26  1  0
 26 27  1  0
 27 28  1  6
 27  9  1  0
 27 12  1  0
 24 13  1  0
 22 16  1  0
M  END
>  <MS_ID>  (1729) 
MS1796

>  <SMILES>  (1729) 
C[C@H](CCC(=O)CS)[C@H]1CC[C@H]2[C@@H]3CC[C@@H]4C[C@@H](O)CC[C@]4(C)[C@H]3CC[C@]12C

>  <Structure_dimension>  (1729) 
2D

$$$$
MS1797
     RDKit          2D

 35 38  0  0  0  0  0  0  0  0999 V2000
   -2.0910   -4.4775    0.0000 C   0  0  0  0  0  0  0  0  0  0  0  0
   -1.4029   -3.1446    0.0000 C   0  0  0  0  0  0  0  0  0  0  0  0
   -2.2131   -1.8822    0.0000 C   0  0  0  0  0  0  0  0  0  0  0  0
   -3.7114   -1.9528    0.0000 C   0  0  0  0  0  0  0  0  0  0  0  0
   -4.5217   -0.6904    0.0000 C   0  0  0  0  0  0  0  0  0  0  0  0
   -3.8336    0.6424    0.0000 O   0  0  0  0  0  0  0  0  0  0  0  0
   -6.0200   -0.7610    0.0000 N   0  0  0  0  0  0  0  0  0  0  0  0
   -6.8303    0.5014    0.0000 S   0  0  0  0  0  0  0  0  0  0  0  0
   -5.5679    1.3116    0.0000 O   0  0  0  0  0  0  0  0  0  0  0  0
   -8.0926   -0.3089    0.0000 O   0  0  0  0  0  0  0  0  0  0  0  0
   -7.6405    1.7637    0.0000 C   0  0  0  0  0  0  0  0  0  0  0  0
   -6.9524    3.0966    0.0000 C   0  0  0  0  0  0  0  0  0  0  0  0
   -5.4541    3.1671    0.0000 O   0  0  0  0  0  0  0  0  0  0  0  0
   -7.7627    4.3589    0.0000 O   0  0  0  0  0  0  0  0  0  0  0  0
    0.0955   -3.0741    0.0000 C   0  0  0  0  0  0  0  0  0  0  0  0
    1.0332   -4.2448    0.0000 C   0  0  0  0  0  0  0  0  0  0  0  0
    2.4365   -3.7147    0.0000 C   0  0  0  0  0  0  0  0  0  0  0  0
    2.3659   -2.2164    0.0000 C   0  0  0  0  0  0  0  0  0  0  0  0
    3.4322   -1.1614    0.0000 C   0  0  0  0  0  0  0  0  0  0  0  0
    4.8790   -1.5573    0.0000 C   0  0  0  0  0  0  0  0  0  0  0  0
    5.2595   -3.0082    0.0000 O   0  0  0  0  0  0  0  0  0  0  0  0
    5.9453   -0.5023    0.0000 C   0  0  0  0  0  0  0  0  0  0  0  0
    5.5648    0.9486    0.0000 C   0  0  0  0  0  0  0  0  0  0  0  0
    6.6311    2.0036    0.0000 C   0  0  0  0  0  0  0  0  0  0  0  0
    6.2506    3.4546    0.0000 C   0  0  0  0  0  0  0  0  0  0  0  0
    7.3169    4.5096    0.0000 O   0  0  0  0  0  0  0  0  0  0  0  0
    4.8038    3.8505    0.0000 C   0  0  0  0  0  0  0  0  0  0  0  0
    3.7375    2.7955    0.0000 C   0  0  0  0  0  0  0  0  0  0  0  0
    4.1180    1.3446    0.0000 C   0  0  0  0  0  0  0  0  0  0  0  0
    2.6712    1.7405    0.0000 C   0  0  0  0  0  0  0  0  0  0  0  0
    3.0517    0.2896    0.0000 C   0  0  0  0  0  0  0  0  0  0  0  0
    1.6049    0.6855    0.0000 C   0  0  0  0  0  0  0  0  0  0  0  0
    0.5386   -0.3695    0.0000 C   0  0  0  0  0  0  0  0  0  0  0  0
    0.9191   -1.8204    0.0000 C   0  0  0  0  0  0  0  0  0  0  0  0
   -0.5611   -1.5779    0.0000 C   0  0  0  0  0  0  0  0  0  0  0  0
  2  1  1  6
  2  3  1  0
  3  4  1  0
  4  5  1  0
  5  6  2  0
  5  7  1  0
  7  8  1  0
  8  9  2  0
  8 10  2  0
  8 11  1  0
 11 12  1  0
 12 13  2  0
 12 14  1  0
  2 15  1  0
 15 16  1  6
 16 17  1  0
 18 17  1  6
 18 19  1  0
 19 20  1  1
 20 21  1  6
 20 22  1  0
 23 22  1  1
 23 24  1  0
 24 25  1  0
 25 26  1  1
 25 27  1  0
 27 28  1  0
 28 29  1  0
 29 30  1  6
 29 31  1  0
 31 32  1  6
 32 33  1  0
 33 34  1  0
 34 35  1  6
 34 15  1  0
 34 18  1  0
 31 19  1  0
 29 23  1  0
M  END
>  <MS_ID>  (1730) 
MS1797

>  <SMILES>  (1730) 
C[C@H](CCC(=O)NS(=O)(=O)CC(=O)O)[C@H]1CC[C@H]2[C@@H]3[C@@H](O)C[C@@H]4C[C@H](O)CC[C@]4(C)[C@H]3CC[C@]12C

>  <Structure_dimension>  (1730) 
2D

$$$$
MS1798
     RDKit          2D

 33 36  0  0  0  0  0  0  0  0999 V2000
   -4.8816   -2.5339    0.0000 C   0  0  0  0  0  0  0  0  0  0  0  0
   -3.7323   -1.5699    0.0000 C   0  0  0  0  0  0  0  0  0  0  0  0
   -3.9925   -0.0927    0.0000 C   0  0  0  0  0  0  0  0  0  0  0  0
   -5.4019    0.4207    0.0000 C   0  0  0  0  0  0  0  0  0  0  0  0
   -5.6620    1.8980    0.0000 C   0  0  0  0  0  0  0  0  0  0  0  0
   -4.5127    2.8619    0.0000 O   0  0  0  0  0  0  0  0  0  0  0  0
   -7.0714    2.4113    0.0000 O   0  0  0  0  0  0  0  0  0  0  0  0
   -2.3229   -2.0833    0.0000 C   0  0  0  0  0  0  0  0  0  0  0  0
   -1.9098   -3.5253    0.0000 C   0  0  0  0  0  0  0  0  0  0  0  0
   -0.4107   -3.5780    0.0000 C   0  0  0  0  0  0  0  0  0  0  0  0
    0.1026   -2.1686    0.0000 C   0  0  0  0  0  0  0  0  0  0  0  0
    1.4935   -1.6070    0.0000 C   0  0  0  0  0  0  0  0  0  0  0  0
    2.6753   -2.5308    0.0000 C   0  0  0  0  0  0  0  0  0  0  0  0
    2.4662   -4.0162    0.0000 O   0  0  0  0  0  0  0  0  0  0  0  0
    4.0662   -1.9692    0.0000 C   0  0  0  0  0  0  0  0  0  0  0  0
    4.2754   -0.4839    0.0000 C   0  0  0  0  0  0  0  0  0  0  0  0
    5.6663    0.0777    0.0000 C   0  0  0  0  0  0  0  0  0  0  0  0
    5.8754    1.5630    0.0000 C   0  0  0  0  0  0  0  0  0  0  0  0
    7.2663    2.1246    0.0000 O   0  0  0  0  0  0  0  0  0  0  0  0
    4.6936    2.4868    0.0000 C   0  0  0  0  0  0  0  0  0  0  0  0
    3.3027    1.9252    0.0000 C   0  0  0  0  0  0  0  0  0  0  0  0
    3.0936    0.4399    0.0000 C   0  0  0  0  0  0  0  0  0  0  0  0
    1.9118    1.3637    0.0000 C   0  0  0  0  0  0  0  0  0  0  0  0
    1.7027   -0.1217    0.0000 C   0  0  0  0  0  0  0  0  0  0  0  0
    0.5209    0.8021    0.0000 C   0  0  0  0  0  0  0  0  0  0  0  0
   -0.8701    0.2405    0.0000 C   0  0  0  0  0  0  0  0  0  0  0  0
   -1.0792   -1.2448    0.0000 C   0  0  0  0  0  0  0  0  0  0  0  0
   -2.3510   -0.4496    0.0000 C   0  0  0  0  0  0  0  0  0  0  0  0
   -2.2983    1.0494    0.0000 S   0  0  0  0  0  0  0  0  0  0  0  0
   -0.9737    1.7533    0.0000 P   0  0  0  0  0  0  0  0  0  0  0  0
   -1.6776    3.0779    0.0000 O   0  0  0  0  0  0  0  0  0  0  0  0
   -0.3154    1.0218    0.0000 O   0  0  0  0  0  0  0  0  0  0  0  0
    0.3508    2.4572    0.0000 O   0  0  0  0  0  0  0  0  0  0  0  0
  2  1  1  6
  2  3  1  0
  3  4  1  0
  4  5  1  0
  5  6  2  0
  5  7  1  0
  2  8  1  0
  8  9  1  6
  9 10  1  0
 11 10  1  6
 11 12  1  0
 12 13  1  1
 13 14  1  6
 13 15  1  0
 16 15  1  1
 16 17  1  0
 17 18  1  0
 18 19  1  1
 18 20  1  0
 20 21  1  0
 21 22  1  0
 22 23  1  6
 22 24  1  0
 24 25  1  6
 25 26  1  0
 26 27  1  0
 27 28  1  6
 28 29  1  0
 29 30  1  0
 30 31  2  0
 30 32  1  0
 30 33  1  0
 27  8  1  0
 27 11  1  0
 24 12  1  0
 22 16  1  0
M  END
>  <MS_ID>  (1731) 
MS1798

>  <SMILES>  (1731) 
C[C@H](CCC(=O)O)[C@H]1CC[C@H]2[C@@H]3[C@@H](O)C[C@@H]4C[C@H](O)CC[C@]4(C)[C@H]3CC[C@]12CSP(=O)(O)O

>  <Structure_dimension>  (1731) 
2D

$$$$
MS1799
     RDKit          2D

 32 35  0  0  0  0  0  0  0  0999 V2000
   -3.9539   -2.9832    0.0000 C   0  0  0  0  0  0  0  0  0  0  0  0
   -2.9202   -1.8962    0.0000 C   0  0  0  0  0  0  0  0  0  0  0  0
   -3.3447   -0.4575    0.0000 C   0  0  0  0  0  0  0  0  0  0  0  0
   -4.8029   -0.1058    0.0000 C   0  0  0  0  0  0  0  0  0  0  0  0
   -5.2274    1.3329    0.0000 C   0  0  0  0  0  0  0  0  0  0  0  0
   -4.1937    2.4198    0.0000 O   0  0  0  0  0  0  0  0  0  0  0  0
   -6.6856    1.6846    0.0000 C   0  0  0  0  0  0  0  0  0  0  0  0
   -7.0373    0.2264    0.0000 C   0  0  0  0  0  0  0  0  0  0  0  0
   -6.3339    3.1427    0.0000 C   0  0  0  0  0  0  0  0  0  0  0  0
   -8.1438    2.0363    0.0000 N   0  0  0  0  0  0  0  0  0  0  0  0
   -1.4620   -2.2479    0.0000 C   0  0  0  0  0  0  0  0  0  0  0  0
   -0.8894   -3.6343    0.0000 C   0  0  0  0  0  0  0  0  0  0  0  0
    0.6061   -3.5182    0.0000 C   0  0  0  0  0  0  0  0  0  0  0  0
    0.9578   -2.0600    0.0000 C   0  0  0  0  0  0  0  0  0  0  0  0
    2.2768   -1.3457    0.0000 C   0  0  0  0  0  0  0  0  0  0  0  0
    3.5549   -2.1307    0.0000 C   0  0  0  0  0  0  0  0  0  0  0  0
    3.5141   -3.6302    0.0000 O   0  0  0  0  0  0  0  0  0  0  0  0
    4.8739   -1.4164    0.0000 C   0  0  0  0  0  0  0  0  0  0  0  0
    4.9147    0.0830    0.0000 C   0  0  0  0  0  0  0  0  0  0  0  0
    6.2337    0.7974    0.0000 C   0  0  0  0  0  0  0  0  0  0  0  0
    6.2745    2.2968    0.0000 C   0  0  0  0  0  0  0  0  0  0  0  0
    7.5935    3.0112    0.0000 O   0  0  0  0  0  0  0  0  0  0  0  0
    4.9964    3.0819    0.0000 C   0  0  0  0  0  0  0  0  0  0  0  0
    3.6774    2.3676    0.0000 C   0  0  0  0  0  0  0  0  0  0  0  0
    3.6366    0.8681    0.0000 C   0  0  0  0  0  0  0  0  0  0  0  0
    2.3584    1.6532    0.0000 C   0  0  0  0  0  0  0  0  0  0  0  0
    2.3176    0.1538    0.0000 C   0  0  0  0  0  0  0  0  0  0  0  0
    1.0395    0.9389    0.0000 C   0  0  0  0  0  0  0  0  0  0  0  0
   -0.2795    0.2245    0.0000 C   0  0  0  0  0  0  0  0  0  0  0  0
   -1.5577    1.0096    0.0000 O   0  0  0  0  0  0  0  0  0  0  0  0
   -0.3204   -1.2749    0.0000 C   0  0  0  0  0  0  0  0  0  0  0  0
   -1.6736   -0.6277    0.0000 C   0  0  0  0  0  0  0  0  0  0  0  0
  2  1  1  6
  2  3  1  0
  3  4  1  0
  4  5  1  0
  5  6  2  0
  5  7  1  0
  7  8  1  0
  7  9  1  0
  7 10  1  0
  2 11  1  0
 11 12  1  6
 12 13  1  0
 14 13  1  6
 14 15  1  0
 15 16  1  1
 16 17  1  1
 16 18  1  0
 19 18  1  1
 19 20  1  0
 20 21  1  0
 21 22  1  1
 21 23  1  0
 23 24  1  0
 24 25  1  0
 25 26  1  6
 25 27  1  0
 27 28  1  6
 28 29  1  0
 29 30  1  1
 29 31  1  0
 31 32  1  6
 31 11  1  0
 31 14  1  0
 27 15  1  0
 25 19  1  0
M  END
>  <MS_ID>  (1732) 
MS1799

>  <SMILES>  (1732) 
C[C@H](CCC(=O)C(C)(C)N)[C@H]1CC[C@H]2[C@@H]3[C@H](O)C[C@@H]4C[C@H](O)CC[C@]4(C)[C@H]3C[C@H](O)[C@]12C

>  <Structure_dimension>  (1732) 
2D

$$$$
MS1800
     RDKit          2D

 33 36  0  0  0  0  0  0  0  0999 V2000
   -5.8110   -2.4623    0.0000 C   0  0  0  0  0  0  0  0  0  0  0  0
   -4.6322   -1.5348    0.0000 C   0  0  0  0  0  0  0  0  0  0  0  0
   -4.8460   -0.0501    0.0000 C   0  0  0  0  0  0  0  0  0  0  0  0
   -6.2387    0.5070    0.0000 C   0  0  0  0  0  0  0  0  0  0  0  0
   -6.4526    1.9917    0.0000 C   0  0  0  0  0  0  0  0  0  0  0  0
   -5.2737    2.9193    0.0000 O   0  0  0  0  0  0  0  0  0  0  0  0
   -7.8453    2.5489    0.0000 C   0  0  0  0  0  0  0  0  0  0  0  0
   -8.0591    4.0335    0.0000 O   0  0  0  0  0  0  0  0  0  0  0  0
   -3.2395   -2.0919    0.0000 C   0  0  0  0  0  0  0  0  0  0  0  0
   -2.8716   -3.5461    0.0000 C   0  0  0  0  0  0  0  0  0  0  0  0
   -1.3749   -3.6456    0.0000 C   0  0  0  0  0  0  0  0  0  0  0  0
   -0.8178   -2.2529    0.0000 C   0  0  0  0  0  0  0  0  0  0  0  0
    0.5900   -1.7351    0.0000 C   0  0  0  0  0  0  0  0  0  0  0  0
    1.7423   -2.6953    0.0000 C   0  0  0  0  0  0  0  0  0  0  0  0
    3.1501   -2.1775    0.0000 C   0  0  0  0  0  0  0  0  0  0  0  0
    3.4055   -0.6994    0.0000 C   0  0  0  0  0  0  0  0  0  0  0  0
    4.8133   -0.1815    0.0000 C   0  0  0  0  0  0  0  0  0  0  0  0
    5.0687    1.2966    0.0000 C   0  0  0  0  0  0  0  0  0  0  0  0
    6.4765    1.8144    0.0000 O   0  0  0  0  0  0  0  0  0  0  0  0
    7.6288    0.8542    0.0000 S   0  0  0  0  0  0  0  0  0  0  0  0
    6.6686   -0.2982    0.0000 O   0  0  0  0  0  0  0  0  0  0  0  0
    8.5891    2.0066    0.0000 O   0  0  0  0  0  0  0  0  0  0  0  0
    8.7812   -0.1060    0.0000 O   0  0  0  0  0  0  0  0  0  0  0  0
    3.9163    2.2568    0.0000 C   0  0  0  0  0  0  0  0  0  0  0  0
    2.5086    1.7390    0.0000 C   0  0  0  0  0  0  0  0  0  0  0  0
    2.2532    0.2609    0.0000 C   0  0  0  0  0  0  0  0  0  0  0  0
    1.1008    1.2211    0.0000 C   0  0  0  0  0  0  0  0  0  0  0  0
    0.8454   -0.2570    0.0000 C   0  0  0  0  0  0  0  0  0  0  0  0
   -0.3070    0.7033    0.0000 C   0  0  0  0  0  0  0  0  0  0  0  0
   -1.7148    0.1854    0.0000 C   0  0  0  0  0  0  0  0  0  0  0  0
   -2.8671    1.1457    0.0000 O   0  0  0  0  0  0  0  0  0  0  0  0
   -1.9702   -1.2927    0.0000 C   0  0  0  0  0  0  0  0  0  0  0  0
   -3.2166   -0.4582    0.0000 C   0  0  0  0  0  0  0  0  0  0  0  0
  2  1  1  6
  2  3  1  0
  3  4  1  0
  4  5  1  0
  5  6  2  0
  5  7  1  0
  7  8  1  0
  2  9  1  0
  9 10  1  6
 10 11  1  0
 12 11  1  6
 12 13  1  0
 13 14  1  1
 14 15  1  0
 16 15  1  1
 16 17  1  0
 17 18  1  0
 18 19  1  1
 19 20  1  0
 20 21  2  0
 20 22  2  0
 20 23  1  0
 18 24  1  0
 24 25  1  0
 25 26  1  0
 26 27  1  6
 26 28  1  0
 28 29  1  6
 29 30  1  0
 30 31  1  1
 30 32  1  0
 32 33  1  6
 32  9  1  0
 32 12  1  0
 28 13  1  0
 26 16  1  0
M  END
>  <MS_ID>  (1733) 
MS1800

>  <SMILES>  (1733) 
C[C@H](CCC(=O)CO)[C@H]1CC[C@H]2[C@@H]3CC[C@@H]4C[C@H](OS(=O)(=O)O)CC[C@]4(C)[C@H]3C[C@H](O)[C@]12C

>  <Structure_dimension>  (1733) 
2D

$$$$
MS1801
     RDKit          2D

 33 36  0  0  0  0  0  0  0  0999 V2000
   -2.8344   -3.8565    0.0000 C   0  0  0  0  0  0  0  0  0  0  0  0
   -1.9937   -2.6142    0.0000 C   0  0  0  0  0  0  0  0  0  0  0  0
   -2.6491   -1.2650    0.0000 C   0  0  0  0  0  0  0  0  0  0  0  0
   -4.1453   -1.1580    0.0000 C   0  0  0  0  0  0  0  0  0  0  0  0
   -4.8007    0.1912    0.0000 C   0  0  0  0  0  0  0  0  0  0  0  0
   -3.9600    1.4334    0.0000 O   0  0  0  0  0  0  0  0  0  0  0  0
   -6.2969    0.2982    0.0000 N   0  0  0  0  0  0  0  0  0  0  0  0
   -6.9523    1.6474    0.0000 C   0  0  0  0  0  0  0  0  0  0  0  0
   -6.1116    2.8896    0.0000 O   0  0  0  0  0  0  0  0  0  0  0  0
   -8.4485    1.7544    0.0000 C   0  0  0  0  0  0  0  0  0  0  0  0
   -9.2893    0.5121    0.0000 O   0  0  0  0  0  0  0  0  0  0  0  0
   -9.1040    3.1036    0.0000 O   0  0  0  0  0  0  0  0  0  0  0  0
   -0.4975   -2.7212    0.0000 C   0  0  0  0  0  0  0  0  0  0  0  0
    0.2954   -3.9945    0.0000 C   0  0  0  0  0  0  0  0  0  0  0  0
    1.7514   -3.6340    0.0000 C   0  0  0  0  0  0  0  0  0  0  0  0
    1.8584   -2.1378    0.0000 C   0  0  0  0  0  0  0  0  0  0  0  0
    3.0419   -1.2161    0.0000 C   0  0  0  0  0  0  0  0  0  0  0  0
    4.4317   -1.7802    0.0000 C   0  0  0  0  0  0  0  0  0  0  0  0
    4.6382   -3.2660    0.0000 O   0  0  0  0  0  0  0  0  0  0  0  0
    5.6152   -0.8586    0.0000 C   0  0  0  0  0  0  0  0  0  0  0  0
    5.4088    0.6271    0.0000 C   0  0  0  0  0  0  0  0  0  0  0  0
    6.5922    1.5488    0.0000 C   0  0  0  0  0  0  0  0  0  0  0  0
    6.3858    3.0345    0.0000 C   0  0  0  0  0  0  0  0  0  0  0  0
    7.5693    3.9561    0.0000 O   0  0  0  0  0  0  0  0  0  0  0  0
    4.9959    3.5986    0.0000 C   0  0  0  0  0  0  0  0  0  0  0  0
    3.8125    2.6770    0.0000 C   0  0  0  0  0  0  0  0  0  0  0  0
    4.0189    1.1912    0.0000 C   0  0  0  0  0  0  0  0  0  0  0  0
    2.6290    1.7553    0.0000 C   0  0  0  0  0  0  0  0  0  0  0  0
    2.8354    0.2696    0.0000 C   0  0  0  0  0  0  0  0  0  0  0  0
    1.4455    0.8337    0.0000 C   0  0  0  0  0  0  0  0  0  0  0  0
    0.2621   -0.0879    0.0000 C   0  0  0  0  0  0  0  0  0  0  0  0
    0.4685   -1.5737    0.0000 C   0  0  0  0  0  0  0  0  0  0  0  0
   -0.9727   -1.1580    0.0000 C   0  0  0  0  0  0  0  0  0  0  0  0
  2  1  1  6
  2  3  1  0
  3  4  1  0
  4  5  1  0
  5  6  2  0
  5  7  1  0
  7  8  1  0
  8  9  1  6
  8 10  1  0
 10 11  2  0
 10 12  1  0
  2 13  1  0
 13 14  1  6
 14 15  1  0
 16 15  1  6
 16 17  1  0
 17 18  1  1
 18 19  1  6
 18 20  1  0
 21 20  1  1
 21 22  1  0
 22 23  1  0
 23 24  1  1
 23 25  1  0
 25 26  1  0
 26 27  1  0
 27 28  1  6
 27 29  1  0
 29 30  1  6
 30 31  1  0
 31 32  1  0
 32 33  1  6
 32 13  1  0
 32 16  1  0
 29 17  1  0
 27 21  1  0
M  END
>  <MS_ID>  (1734) 
MS1801

>  <SMILES>  (1734) 
C[C@H](CCC(=O)N[C@@H](O)C(=O)O)[C@H]1CC[C@H]2[C@@H]3[C@@H](O)C[C@@H]4C[C@H](O)CC[C@]4(C)[C@H]3CC[C@]12C

>  <Structure_dimension>  (1734) 
2D

$$$$
MS1802
     RDKit          2D

 31 34  0  0  0  0  0  0  0  0999 V2000
   -3.5444   -3.4776    0.0000 C   0  0  0  0  0  0  0  0  0  0  0  0
   -2.6225   -2.2943    0.0000 C   0  0  0  0  0  0  0  0  0  0  0  0
   -3.1864   -0.9043    0.0000 C   0  0  0  0  0  0  0  0  0  0  0  0
   -4.6720   -0.6975    0.0000 C   0  0  0  0  0  0  0  0  0  0  0  0
   -5.2358    0.6925    0.0000 C   0  0  0  0  0  0  0  0  0  0  0  0
   -4.3140    1.8757    0.0000 O   0  0  0  0  0  0  0  0  0  0  0  0
   -6.7215    0.8992    0.0000 N   0  0  0  0  0  0  0  0  0  0  0  0
   -7.2853    2.2892    0.0000 C   0  0  0  0  0  0  0  0  0  0  0  0
   -8.7710    2.4959    0.0000 C   0  0  0  0  0  0  0  0  0  0  0  0
  -10.2567    2.7027    0.0000 N   0  0  0  0  0  0  0  0  0  0  0  0
   -1.1369   -2.5010    0.0000 C   0  0  0  0  0  0  0  0  0  0  0  0
   -0.4309   -3.8245    0.0000 C   0  0  0  0  0  0  0  0  0  0  0  0
    1.0460   -3.5620    0.0000 C   0  0  0  0  0  0  0  0  0  0  0  0
    1.2527   -2.0763    0.0000 C   0  0  0  0  0  0  0  0  0  0  0  0
    2.4952   -1.2358    0.0000 C   0  0  0  0  0  0  0  0  0  0  0  0
    3.8442   -1.8916    0.0000 C   0  0  0  0  0  0  0  0  0  0  0  0
    3.9509   -3.3878    0.0000 O   0  0  0  0  0  0  0  0  0  0  0  0
    5.0867   -1.0511    0.0000 C   0  0  0  0  0  0  0  0  0  0  0  0
    4.9800    0.4451    0.0000 C   0  0  0  0  0  0  0  0  0  0  0  0
    6.2224    1.2856    0.0000 C   0  0  0  0  0  0  0  0  0  0  0  0
    6.1157    2.7818    0.0000 C   0  0  0  0  0  0  0  0  0  0  0  0
    7.3581    3.6223    0.0000 O   0  0  0  0  0  0  0  0  0  0  0  0
    4.7666    3.4375    0.0000 C   0  0  0  0  0  0  0  0  0  0  0  0
    3.5242    2.5970    0.0000 C   0  0  0  0  0  0  0  0  0  0  0  0
    3.6309    1.1008    0.0000 C   0  0  0  0  0  0  0  0  0  0  0  0
    2.2818    1.7566    0.0000 C   0  0  0  0  0  0  0  0  0  0  0  0
    2.3885    0.2604    0.0000 C   0  0  0  0  0  0  0  0  0  0  0  0
    1.0394    0.9161    0.0000 C   0  0  0  0  0  0  0  0  0  0  0  0
   -0.2030    0.0756    0.0000 C   0  0  0  0  0  0  0  0  0  0  0  0
   -0.0963   -1.4206    0.0000 C   0  0  0  0  0  0  0  0  0  0  0  0
   -1.5066   -0.9095    0.0000 C   0  0  0  0  0  0  0  0  0  0  0  0
  2  1  1  6
  2  3  1  0
  3  4  1  0
  4  5  1  0
  5  6  2  0
  5  7  1  0
  7  8  1  0
  8  9  1  0
  9 10  3  0
  2 11  1  0
 11 12  1  6
 12 13  1  0
 14 13  1  6
 14 15  1  0
 15 16  1  1
 16 17  1  1
 16 18  1  0
 19 18  1  1
 19 20  1  0
 20 21  1  0
 21 22  1  1
 21 23  1  0
 23 24  1  0
 24 25  1  0
 25 26  1  6
 25 27  1  0
 27 28  1  6
 28 29  1  0
 29 30  1  0
 30 31  1  6
 30 11  1  0
 30 14  1  0
 27 15  1  0
 25 19  1  0
M  END
>  <MS_ID>  (1735) 
MS1802

>  <SMILES>  (1735) 
C[C@H](CCC(=O)NCC#N)[C@H]1CC[C@H]2[C@@H]3[C@H](O)C[C@@H]4C[C@H](O)CC[C@]4(C)[C@H]3CC[C@]12C

>  <Structure_dimension>  (1735) 
2D

$$$$
MS1803
     RDKit          2D

 32 35  0  0  0  0  0  0  0  0999 V2000
   -4.9943   -2.3529    0.0000 C   0  0  0  0  0  0  0  0  0  0  0  0
   -3.9600   -1.2665    0.0000 C   0  0  0  0  0  0  0  0  0  0  0  0
   -4.3838    0.1724    0.0000 C   0  0  0  0  0  0  0  0  0  0  0  0
   -5.8418    0.5249    0.0000 C   0  0  0  0  0  0  0  0  0  0  0  0
   -6.2655    1.9638    0.0000 C   0  0  0  0  0  0  0  0  0  0  0  0
   -5.2312    3.0502    0.0000 O   0  0  0  0  0  0  0  0  0  0  0  0
   -7.7235    2.3163    0.0000 O   0  0  0  0  0  0  0  0  0  0  0  0
   -2.5020   -1.6190    0.0000 C   0  0  0  0  0  0  0  0  0  0  0  0
   -1.9302   -3.0058    0.0000 C   0  0  0  0  0  0  0  0  0  0  0  0
   -0.4347   -2.8905    0.0000 C   0  0  0  0  0  0  0  0  0  0  0  0
   -0.0822   -1.4325    0.0000 C   0  0  0  0  0  0  0  0  0  0  0  0
    1.2372   -0.7188    0.0000 C   0  0  0  0  0  0  0  0  0  0  0  0
    2.5149   -1.5046    0.0000 C   0  0  0  0  0  0  0  0  0  0  0  0
    2.4732   -3.0041    0.0000 C   0  0  0  0  0  0  0  0  0  0  0  0
    1.1539   -3.7177    0.0000 O   0  0  0  0  0  0  0  0  0  0  0  0
    3.7509   -3.7898    0.0000 C   0  0  0  0  0  0  0  0  0  0  0  0
    3.7093   -5.2893    0.0000 O   0  0  0  0  0  0  0  0  0  0  0  0
    3.8343   -0.7910    0.0000 C   0  0  0  0  0  0  0  0  0  0  0  0
    3.8759    0.7084    0.0000 C   0  0  0  0  0  0  0  0  0  0  0  0
    5.1953    1.4221    0.0000 C   0  0  0  0  0  0  0  0  0  0  0  0
    5.2370    2.9215    0.0000 C   0  0  0  0  0  0  0  0  0  0  0  0
    6.5563    3.6351    0.0000 O   0  0  0  0  0  0  0  0  0  0  0  0
    3.9592    3.7073    0.0000 C   0  0  0  0  0  0  0  0  0  0  0  0
    2.6399    2.9936    0.0000 C   0  0  0  0  0  0  0  0  0  0  0  0
    2.5982    1.4942    0.0000 C   0  0  0  0  0  0  0  0  0  0  0  0
    1.3205    2.2800    0.0000 C   0  0  0  0  0  0  0  0  0  0  0  0
    1.2788    0.7806    0.0000 C   0  0  0  0  0  0  0  0  0  0  0  0
    0.0011    1.5664    0.0000 C   0  0  0  0  0  0  0  0  0  0  0  0
   -1.3182    0.8527    0.0000 C   0  0  0  0  0  0  0  0  0  0  0  0
   -2.5959    1.6385    0.0000 O   0  0  0  0  0  0  0  0  0  0  0  0
   -1.3599   -0.6467    0.0000 C   0  0  0  0  0  0  0  0  0  0  0  0
   -2.7127    0.0012    0.0000 C   0  0  0  0  0  0  0  0  0  0  0  0
  2  1  1  6
  2  3  1  0
  3  4  1  0
  4  5  1  0
  5  6  2  0
  5  7  1  0
  2  8  1  0
  8  9  1  6
  9 10  1  0
 11 10  1  6
 11 12  1  0
 12 13  1  1
 13 14  1  6
 14 15  2  0
 14 16  1  0
 16 17  1  0
 13 18  1  0
 19 18  1  1
 19 20  1  0
 20 21  1  0
 21 22  1  1
 21 23  1  0
 23 24  1  0
 24 25  1  0
 25 26  1  6
 25 27  1  0
 27 28  1  6
 28 29  1  0
 29 30  1  1
 29 31  1  0
 31 32  1  6
 31  8  1  0
 31 11  1  0
 27 12  1  0
 25 19  1  0
M  END
>  <MS_ID>  (1736) 
MS1803

>  <SMILES>  (1736) 
C[C@H](CCC(=O)O)[C@H]1CC[C@H]2[C@@H]3[C@@H](C(=O)CO)C[C@@H]4C[C@H](O)CC[C@]4(C)[C@H]3C[C@H](O)[C@]12C

>  <Structure_dimension>  (1736) 
2D

$$$$
MS1804
     RDKit          2D

 36 40  0  0  0  0  0  0  0  0999 V2000
   -2.0625   -4.0210    0.0000 C   0  0  0  0  0  0  0  0  0  0  0  0
   -1.2935   -2.7331    0.0000 C   0  0  0  0  0  0  0  0  0  0  0  0
   -2.0243   -1.4232    0.0000 C   0  0  0  0  0  0  0  0  0  0  0  0
   -3.5241   -1.4011    0.0000 C   0  0  0  0  0  0  0  0  0  0  0  0
   -4.2549   -0.0912    0.0000 C   0  0  0  0  0  0  0  0  0  0  0  0
   -3.4858    1.1967    0.0000 O   0  0  0  0  0  0  0  0  0  0  0  0
   -5.7547   -0.0691    0.0000 C   0  0  0  0  0  0  0  0  0  0  0  0
   -6.4855    1.2409    0.0000 O   0  0  0  0  0  0  0  0  0  0  0  0
   -7.9854    1.2630    0.0000 C   0  0  0  0  0  0  0  0  0  0  0  0
   -8.7161    2.5729    0.0000 C   0  0  0  0  0  0  0  0  0  0  0  0
  -10.2160    2.5950    0.0000 C   0  0  0  0  0  0  0  0  0  0  0  0
  -10.9850    1.3071    0.0000 C   0  0  0  0  0  0  0  0  0  0  0  0
  -10.2542   -0.0028    0.0000 C   0  0  0  0  0  0  0  0  0  0  0  0
   -8.7544   -0.0249    0.0000 C   0  0  0  0  0  0  0  0  0  0  0  0
    0.2063   -2.7552    0.0000 C   0  0  0  0  0  0  0  0  0  0  0  0
    1.0701   -3.9816    0.0000 C   0  0  0  0  0  0  0  0  0  0  0  0
    2.5033   -3.5392    0.0000 C   0  0  0  0  0  0  0  0  0  0  0  0
    2.5254   -2.0393    0.0000 C   0  0  0  0  0  0  0  0  0  0  0  0
    3.6548   -1.0521    0.0000 C   0  0  0  0  0  0  0  0  0  0  0  0
    5.0744   -1.5366    0.0000 C   0  0  0  0  0  0  0  0  0  0  0  0
    5.3646   -3.0083    0.0000 O   0  0  0  0  0  0  0  0  0  0  0  0
    6.2038   -0.5495    0.0000 C   0  0  0  0  0  0  0  0  0  0  0  0
    7.6234   -1.0339    0.0000 O   0  0  0  0  0  0  0  0  0  0  0  0
    5.9135    0.9222    0.0000 C   0  0  0  0  0  0  0  0  0  0  0  0
    7.0429    1.9094    0.0000 C   0  0  0  0  0  0  0  0  0  0  0  0
    6.7527    3.3810    0.0000 C   0  0  0  0  0  0  0  0  0  0  0  0
    7.8821    4.3682    0.0000 O   0  0  0  0  0  0  0  0  0  0  0  0
    5.3331    3.8655    0.0000 C   0  0  0  0  0  0  0  0  0  0  0  0
    4.2037    2.8783    0.0000 C   0  0  0  0  0  0  0  0  0  0  0  0
    4.4939    1.4067    0.0000 C   0  0  0  0  0  0  0  0  0  0  0  0
    3.0743    1.8912    0.0000 C   0  0  0  0  0  0  0  0  0  0  0  0
    3.3646    0.4195    0.0000 C   0  0  0  0  0  0  0  0  0  0  0  0
    1.9450    0.9040    0.0000 C   0  0  0  0  0  0  0  0  0  0  0  0
    0.8156   -0.0832    0.0000 C   0  0  0  0  0  0  0  0  0  0  0  0
    1.1058   -1.5548    0.0000 C   0  0  0  0  0  0  0  0  0  0  0  0
   -0.3567   -1.2214    0.0000 C   0  0  0  0  0  0  0  0  0  0  0  0
  2  1  1  6
  2  3  1  0
  3  4  1  0
  4  5  1  0
  5  6  2  0
  5  7  1  0
  7  8  1  0
  8  9  1  0
  9 10  2  0
 10 11  1  0
 11 12  2  0
 12 13  1  0
 13 14  2  0
  2 15  1  0
 15 16  1  6
 16 17  1  0
 18 17  1  6
 18 19  1  0
 19 20  1  1
 20 21  1  1
 20 22  1  0
 22 23  1  1
 22 24  1  0
 24 25  1  1
 25 26  1  0
 26 27  1  1
 26 28  1  0
 28 29  1  0
 29 30  1  0
 30 31  1  6
 30 32  1  0
 32 33  1  6
 33 34  1  0
 34 35  1  0
 35 36  1  6
 14  9  1  0
 35 15  1  0
 35 18  1  0
 32 19  1  0
 30 24  1  0
M  END
>  <MS_ID>  (1737) 
MS1804

>  <SMILES>  (1737) 
C[C@H](CCC(=O)COc1ccccc1)[C@H]1CC[C@H]2[C@@H]3[C@H](O)[C@H](O)[C@@H]4C[C@H](O)CC[C@]4(C)[C@H]3CC[C@]12C

>  <Structure_dimension>  (1737) 
2D

$$$$
MS1805
     RDKit          2D

 35 38  0  0  0  0  0  0  0  0999 V2000
   -5.6954   -2.5195    0.0000 C   0  0  0  0  0  0  0  0  0  0  0  0
   -4.5584   -1.5411    0.0000 C   0  0  0  0  0  0  0  0  0  0  0  0
   -4.8373   -0.0672    0.0000 C   0  0  0  0  0  0  0  0  0  0  0  0
   -6.2531    0.4282    0.0000 C   0  0  0  0  0  0  0  0  0  0  0  0
   -6.5319    1.9021    0.0000 C   0  0  0  0  0  0  0  0  0  0  0  0
   -5.3949    2.8805    0.0000 O   0  0  0  0  0  0  0  0  0  0  0  0
   -7.9477    2.3975    0.0000 N   0  0  0  0  0  0  0  0  0  0  0  0
   -8.2265    3.8714    0.0000 C   0  0  0  0  0  0  0  0  0  0  0  0
   -9.0847    1.4192    0.0000 C   0  0  0  0  0  0  0  0  0  0  0  0
   -3.1426   -2.0366    0.0000 C   0  0  0  0  0  0  0  0  0  0  0  0
   -2.7113   -3.4732    0.0000 C   0  0  0  0  0  0  0  0  0  0  0  0
   -1.2116   -3.5069    0.0000 C   0  0  0  0  0  0  0  0  0  0  0  0
   -0.7162   -2.0911    0.0000 C   0  0  0  0  0  0  0  0  0  0  0  0
    0.6675   -1.5119    0.0000 C   0  0  0  0  0  0  0  0  0  0  0  0
    1.8609   -2.4206    0.0000 C   0  0  0  0  0  0  0  0  0  0  0  0
    1.6706   -3.9085    0.0000 O   0  0  0  0  0  0  0  0  0  0  0  0
    3.2446   -1.8415    0.0000 C   0  0  0  0  0  0  0  0  0  0  0  0
    4.4380   -2.7502    0.0000 O   0  0  0  0  0  0  0  0  0  0  0  0
    3.4349   -0.3536    0.0000 C   0  0  0  0  0  0  0  0  0  0  0  0
    4.8185    0.2256    0.0000 C   0  0  0  0  0  0  0  0  0  0  0  0
    5.0088    1.7134    0.0000 C   0  0  0  0  0  0  0  0  0  0  0  0
    6.3925    2.2926    0.0000 O   0  0  0  0  0  0  0  0  0  0  0  0
    7.5859    1.3839    0.0000 S   0  0  0  0  0  0  0  0  0  0  0  0
    6.6772    0.1905    0.0000 O   0  0  0  0  0  0  0  0  0  0  0  0
    8.4946    2.5773    0.0000 O   0  0  0  0  0  0  0  0  0  0  0  0
    8.7793    0.4752    0.0000 O   0  0  0  0  0  0  0  0  0  0  0  0
    3.8154    2.6222    0.0000 C   0  0  0  0  0  0  0  0  0  0  0  0
    2.4317    2.0430    0.0000 C   0  0  0  0  0  0  0  0  0  0  0  0
    2.2414    0.5551    0.0000 C   0  0  0  0  0  0  0  0  0  0  0  0
    1.0480    1.4638    0.0000 C   0  0  0  0  0  0  0  0  0  0  0  0
    0.8578   -0.0240    0.0000 C   0  0  0  0  0  0  0  0  0  0  0  0
   -0.3356    0.8847    0.0000 C   0  0  0  0  0  0  0  0  0  0  0  0
   -1.7193    0.3055    0.0000 C   0  0  0  0  0  0  0  0  0  0  0  0
   -1.9096   -1.1824    0.0000 C   0  0  0  0  0  0  0  0  0  0  0  0
   -3.1915   -0.4034    0.0000 C   0  0  0  0  0  0  0  0  0  0  0  0
  2  1  1  6
  2  3  1  0
  3  4  1  0
  4  5  1  0
  5  6  2  0
  5  7  1  0
  7  8  1  0
  7  9  1  0
  2 10  1  0
 10 11  1  6
 11 12  1  0
 13 12  1  6
 13 14  1  0
 14 15  1  1
 15 16  1  1
 15 17  1  0
 17 18  1  1
 17 19  1  0
 19 20  1  1
 20 21  1  0
 21 22  1  1
 22 23  1  0
 23 24  2  0
 23 25  2  0
 23 26  1  0
 21 27  1  0
 27 28  1  0
 28 29  1  0
 29 30  1  6
 29 31  1  0
 31 32  1  6
 32 33  1  0
 33 34  1  0
 34 35  1  6
 34 10  1  0
 34 13  1  0
 31 14  1  0
 29 19  1  0
M  END
>  <MS_ID>  (1738) 
MS1805

>  <SMILES>  (1738) 
C[C@H](CCC(=O)N(C)C)[C@H]1CC[C@H]2[C@@H]3[C@H](O)[C@H](O)[C@@H]4C[C@H](OS(=O)(=O)O)CC[C@]4(C)[C@H]3CC[C@]12C

>  <Structure_dimension>  (1738) 
2D

$$$$
MS1806
     RDKit          2D

 31 34  0  0  0  0  0  0  0  0999 V2000
   -6.1428   -1.6463    0.0000 C   0  0  0  0  0  0  0  0  0  0  0  0
   -4.8761   -0.8428    0.0000 C   0  0  0  0  0  0  0  0  0  0  0  0
   -4.9387    0.6559    0.0000 C   0  0  0  0  0  0  0  0  0  0  0  0
   -6.2678    1.3511    0.0000 C   0  0  0  0  0  0  0  0  0  0  0  0
   -6.3304    2.8498    0.0000 C   0  0  0  0  0  0  0  0  0  0  0  0
   -5.0637    3.6533    0.0000 O   0  0  0  0  0  0  0  0  0  0  0  0
   -7.6596    3.5450    0.0000 O   0  0  0  0  0  0  0  0  0  0  0  0
   -3.5470   -1.5380    0.0000 C   0  0  0  0  0  0  0  0  0  0  0  0
   -3.3281   -3.0220    0.0000 C   0  0  0  0  0  0  0  0  0  0  0  0
   -1.8492   -3.2724    0.0000 C   0  0  0  0  0  0  0  0  0  0  0  0
   -1.1540   -1.9432    0.0000 C   0  0  0  0  0  0  0  0  0  0  0  0
    0.2990   -1.5705    0.0000 C   0  0  0  0  0  0  0  0  0  0  0  0
    1.3483   -2.6424    0.0000 C   0  0  0  0  0  0  0  0  0  0  0  0
    0.9446   -4.0870    0.0000 O   0  0  0  0  0  0  0  0  0  0  0  0
    2.8012   -2.2696    0.0000 C   0  0  0  0  0  0  0  0  0  0  0  0
    3.2049   -0.8249    0.0000 C   0  0  0  0  0  0  0  0  0  0  0  0
    4.6578   -0.4522    0.0000 C   0  0  0  0  0  0  0  0  0  0  0  0
    5.0615    0.9925    0.0000 C   0  0  0  0  0  0  0  0  0  0  0  0
    6.5144    1.3653    0.0000 C   0  0  0  0  0  0  0  0  0  0  0  0
    6.9180    2.8099    0.0000 O   0  0  0  0  0  0  0  0  0  0  0  0
    7.5637    0.2933    0.0000 C   0  0  0  0  0  0  0  0  0  0  0  0
    9.0166    0.6661    0.0000 O   0  0  0  0  0  0  0  0  0  0  0  0
    4.0122    2.0644    0.0000 C   0  0  0  0  0  0  0  0  0  0  0  0
    2.5592    1.6916    0.0000 C   0  0  0  0  0  0  0  0  0  0  0  0
    2.1556    0.2470    0.0000 C   0  0  0  0  0  0  0  0  0  0  0  0
    1.1063    1.3189    0.0000 C   0  0  0  0  0  0  0  0  0  0  0  0
    0.7026   -0.1258    0.0000 C   0  0  0  0  0  0  0  0  0  0  0  0
   -0.3467    0.9461    0.0000 C   0  0  0  0  0  0  0  0  0  0  0  0
   -1.7996    0.5734    0.0000 C   0  0  0  0  0  0  0  0  0  0  0  0
   -2.2033   -0.8713    0.0000 C   0  0  0  0  0  0  0  0  0  0  0  0
   -3.3589    0.0850    0.0000 C   0  0  0  0  0  0  0  0  0  0  0  0
  2  1  1  6
  2  3  1  0
  3  4  1  0
  4  5  1  0
  5  6  2  0
  5  7  1  0
  2  8  1  0
  8  9  1  6
  9 10  1  0
 11 10  1  6
 11 12  1  0
 12 13  1  1
 13 14  1  1
 13 15  1  0
 16 15  1  1
 16 17  1  0
 17 18  1  0
 18 19  1  1
 19 20  2  0
 19 21  1  0
 21 22  1  0
 18 23  1  0
 23 24  1  0
 24 25  1  0
 25 26  1  6
 25 27  1  0
 27 28  1  6
 28 29  1  0
 29 30  1  0
 30 31  1  6
 30  8  1  0
 30 11  1  0
 27 12  1  0
 25 16  1  0
M  END
>  <MS_ID>  (1739) 
MS1806

>  <SMILES>  (1739) 
C[C@H](CCC(=O)O)[C@H]1CC[C@H]2[C@@H]3[C@H](O)C[C@@H]4C[C@H](C(=O)CO)CC[C@]4(C)[C@H]3CC[C@]12C

>  <Structure_dimension>  (1739) 
2D

$$$$
MS1807
     RDKit          2D

 30 33  0  0  0  0  0  0  0  0999 V2000
   -5.0361   -2.2421    0.0000 C   0  0  0  0  0  0  0  0  0  0  0  0
   -3.9151   -1.2454    0.0000 C   0  0  0  0  0  0  0  0  0  0  0  0
   -4.2177    0.2237    0.0000 C   0  0  0  0  0  0  0  0  0  0  0  0
   -5.6413    0.6963    0.0000 C   0  0  0  0  0  0  0  0  0  0  0  0
   -5.9439    2.1654    0.0000 C   0  0  0  0  0  0  0  0  0  0  0  0
   -4.8228    3.1621    0.0000 O   0  0  0  0  0  0  0  0  0  0  0  0
   -7.3675    2.6380    0.0000 O   0  0  0  0  0  0  0  0  0  0  0  0
   -2.4915   -1.7180    0.0000 C   0  0  0  0  0  0  0  0  0  0  0  0
   -2.0370   -3.1475    0.0000 C   0  0  0  0  0  0  0  0  0  0  0  0
   -0.5370   -3.1570    0.0000 C   0  0  0  0  0  0  0  0  0  0  0  0
   -0.0645   -1.7333    0.0000 C   0  0  0  0  0  0  0  0  0  0  0  0
    1.3097   -1.1319    0.0000 C   0  0  0  0  0  0  0  0  0  0  0  0
    2.5176   -2.0213    0.0000 C   0  0  0  0  0  0  0  0  0  0  0  0
    2.3514   -3.5120    0.0000 N   0  0  0  0  0  0  0  0  0  0  0  0
    3.5593   -4.4014    0.0000 N   0  0  0  0  0  0  0  0  0  0  0  0
    3.8918   -1.4198    0.0000 C   0  0  0  0  0  0  0  0  0  0  0  0
    4.0580    0.0709    0.0000 C   0  0  0  0  0  0  0  0  0  0  0  0
    5.4321    0.6723    0.0000 C   0  0  0  0  0  0  0  0  0  0  0  0
    5.5984    2.1631    0.0000 C   0  0  0  0  0  0  0  0  0  0  0  0
    6.9725    2.7645    0.0000 O   0  0  0  0  0  0  0  0  0  0  0  0
    4.3904    3.0524    0.0000 C   0  0  0  0  0  0  0  0  0  0  0  0
    3.0163    2.4510    0.0000 C   0  0  0  0  0  0  0  0  0  0  0  0
    2.8501    0.9603    0.0000 C   0  0  0  0  0  0  0  0  0  0  0  0
    1.6421    1.8496    0.0000 C   0  0  0  0  0  0  0  0  0  0  0  0
    1.4759    0.3588    0.0000 C   0  0  0  0  0  0  0  0  0  0  0  0
    0.2680    1.2482    0.0000 C   0  0  0  0  0  0  0  0  0  0  0  0
   -1.1062    0.6468    0.0000 C   0  0  0  0  0  0  0  0  0  0  0  0
   -2.3141    1.5361    0.0000 O   0  0  0  0  0  0  0  0  0  0  0  0
   -1.2724   -0.8440    0.0000 C   0  0  0  0  0  0  0  0  0  0  0  0
   -2.5667   -0.0858    0.0000 C   0  0  0  0  0  0  0  0  0  0  0  0
  2  1  1  6
  2  3  1  0
  3  4  1  0
  4  5  1  0
  5  6  2  0
  5  7  1  0
  2  8  1  0
  8  9  1  6
  9 10  1  0
 11 10  1  6
 11 12  1  0
 12 13  1  1
 13 14  1  1
 14 15  1  0
 13 16  1  0
 17 16  1  1
 17 18  1  0
 18 19  1  0
 19 20  1  1
 19 21  1  0
 21 22  1  0
 22 23  1  0
 23 24  1  6
 23 25  1  0
 25 26  1  6
 26 27  1  0
 27 28  1  1
 27 29  1  0
 29 30  1  6
 29  8  1  0
 29 11  1  0
 25 12  1  0
 23 17  1  0
M  END
>  <MS_ID>  (1740) 
MS1807

>  <SMILES>  (1740) 
C[C@H](CCC(=O)O)[C@H]1CC[C@H]2[C@@H]3[C@H](NN)C[C@@H]4C[C@H](O)CC[C@]4(C)[C@H]3C[C@H](O)[C@]12C

>  <Structure_dimension>  (1740) 
2D

$$$$
MS1808
     RDKit          2D

 39 43  0  0  0  0  0  0  0  0999 V2000
   -8.3199   -1.6780    0.0000 C   0  0  0  0  0  0  0  0  0  0  0  0
   -7.0581   -0.8670    0.0000 C   0  0  0  0  0  0  0  0  0  0  0  0
   -7.1294    0.6313    0.0000 C   0  0  0  0  0  0  0  0  0  0  0  0
   -8.4627    1.3186    0.0000 C   0  0  0  0  0  0  0  0  0  0  0  0
   -8.5341    2.8169    0.0000 C   0  0  0  0  0  0  0  0  0  0  0  0
   -7.2722    3.6279    0.0000 O   0  0  0  0  0  0  0  0  0  0  0  0
   -9.8673    3.5043    0.0000 O   0  0  0  0  0  0  0  0  0  0  0  0
   -5.7248   -1.5543    0.0000 C   0  0  0  0  0  0  0  0  0  0  0  0
   -5.4972   -3.0370    0.0000 C   0  0  0  0  0  0  0  0  0  0  0  0
   -4.0168   -3.2787    0.0000 C   0  0  0  0  0  0  0  0  0  0  0  0
   -3.3295   -1.9454    0.0000 C   0  0  0  0  0  0  0  0  0  0  0  0
   -1.8787   -1.5641    0.0000 C   0  0  0  0  0  0  0  0  0  0  0  0
   -0.8231   -2.6298    0.0000 C   0  0  0  0  0  0  0  0  0  0  0  0
   -1.2183   -4.0768    0.0000 O   0  0  0  0  0  0  0  0  0  0  0  0
    0.6276   -2.2484    0.0000 C   0  0  0  0  0  0  0  0  0  0  0  0
    1.0227   -0.8014    0.0000 C   0  0  0  0  0  0  0  0  0  0  0  0
    2.4734   -0.4201    0.0000 C   0  0  0  0  0  0  0  0  0  0  0  0
    2.8685    1.0270    0.0000 C   0  0  0  0  0  0  0  0  0  0  0  0
    4.3192    1.4083    0.0000 O   0  0  0  0  0  0  0  0  0  0  0  0
    5.3748    0.3426    0.0000 C   0  0  0  0  0  0  0  0  0  0  0  0
    4.9797   -1.1044    0.0000 O   0  0  0  0  0  0  0  0  0  0  0  0
    6.8256    0.7240    0.0000 C   0  0  0  0  0  0  0  0  0  0  0  0
    7.8812   -0.3417    0.0000 C   0  0  0  0  0  0  0  0  0  0  0  0
    9.3319    0.0396    0.0000 C   0  0  0  0  0  0  0  0  0  0  0  0
   10.3875   -1.0261    0.0000 C   0  0  0  0  0  0  0  0  0  0  0  0
   11.8382   -0.6448    0.0000 C   0  0  0  0  0  0  0  0  0  0  0  0
   12.2333    0.8023    0.0000 C   0  0  0  0  0  0  0  0  0  0  0  0
   11.1777    1.8680    0.0000 C   0  0  0  0  0  0  0  0  0  0  0  0
    9.7270    1.4866    0.0000 C   0  0  0  0  0  0  0  0  0  0  0  0
    1.8129    2.0927    0.0000 C   0  0  0  0  0  0  0  0  0  0  0  0
    0.3622    1.7113    0.0000 C   0  0  0  0  0  0  0  0  0  0  0  0
   -0.0329    0.2643    0.0000 C   0  0  0  0  0  0  0  0  0  0  0  0
   -1.0885    1.3300    0.0000 C   0  0  0  0  0  0  0  0  0  0  0  0
   -1.4836   -0.1170    0.0000 C   0  0  0  0  0  0  0  0  0  0  0  0
   -2.5392    0.9487    0.0000 C   0  0  0  0  0  0  0  0  0  0  0  0
   -3.9900    0.5673    0.0000 C   0  0  0  0  0  0  0  0  0  0  0  0
   -5.0456    1.6330    0.0000 O   0  0  0  0  0  0  0  0  0  0  0  0
   -4.3851   -0.8797    0.0000 C   0  0  0  0  0  0  0  0  0  0  0  0
   -5.5463    0.0698    0.0000 C   0  0  0  0  0  0  0  0  0  0  0  0
  2  1  1  6
  2  3  1  0
  3  4  1  0
  4  5  1  0
  5  6  2  0
  5  7  1  0
  2  8  1  0
  8  9  1  6
  9 10  1  0
 11 10  1  6
 11 12  1  0
 12 13  1  1
 13 14  1  1
 13 15  1  0
 16 15  1  1
 16 17  1  0
 17 18  1  0
 18 19  1  1
 19 20  1  0
 20 21  2  0
 20 22  1  0
 22 23  1  0
 23 24  1  0
 24 25  2  0
 25 26  1  0
 26 27  2  0
 27 28  1  0
 28 29  2  0
 18 30  1  0
 30 31  1  0
 31 32  1  0
 32 33  1  6
 32 34  1  0
 34 35  1  6
 35 36  1  0
 36 37  1  1
 36 38  1  0
 38 39  1  6
 38  8  1  0
 38 11  1  0
 34 12  1  0
 32 16  1  0
 29 24  1  0
M  END
>  <MS_ID>  (1741) 
MS1808

>  <SMILES>  (1741) 
C[C@H](CCC(=O)O)[C@H]1CC[C@H]2[C@@H]3[C@H](O)C[C@@H]4C[C@H](OC(=O)CCc5ccccc5)CC[C@]4(C)[C@H]3C[C@H](O)[C@]12C

>  <Structure_dimension>  (1741) 
2D

$$$$
MS1809
     RDKit          2D

 33 36  0  0  0  0  0  0  0  0999 V2000
   -5.9347   -2.3224    0.0000 C   0  0  0  0  0  0  0  0  0  0  0  0
   -4.7592   -1.3907    0.0000 C   0  0  0  0  0  0  0  0  0  0  0  0
   -4.9784    0.0932    0.0000 C   0  0  0  0  0  0  0  0  0  0  0  0
   -6.3730    0.6454    0.0000 C   0  0  0  0  0  0  0  0  0  0  0  0
   -6.5922    2.1293    0.0000 C   0  0  0  0  0  0  0  0  0  0  0  0
   -5.4167    3.0610    0.0000 O   0  0  0  0  0  0  0  0  0  0  0  0
   -7.9869    2.6814    0.0000 C   0  0  0  0  0  0  0  0  0  0  0  0
   -8.2061    4.1653    0.0000 F   0  0  0  0  0  0  0  0  0  0  0  0
   -3.3645   -1.9428    0.0000 C   0  0  0  0  0  0  0  0  0  0  0  0
   -2.9914   -3.3957    0.0000 C   0  0  0  0  0  0  0  0  0  0  0  0
   -1.4944   -3.4898    0.0000 C   0  0  0  0  0  0  0  0  0  0  0  0
   -0.9422   -2.0951    0.0000 C   0  0  0  0  0  0  0  0  0  0  0  0
    0.4637   -1.5722    0.0000 C   0  0  0  0  0  0  0  0  0  0  0  0
    1.6195   -2.5283    0.0000 C   0  0  0  0  0  0  0  0  0  0  0  0
    1.3694   -4.0073    0.0000 O   0  0  0  0  0  0  0  0  0  0  0  0
    3.0254   -2.0054    0.0000 C   0  0  0  0  0  0  0  0  0  0  0  0
    3.2755   -0.5264    0.0000 C   0  0  0  0  0  0  0  0  0  0  0  0
    4.6814   -0.0035    0.0000 C   0  0  0  0  0  0  0  0  0  0  0  0
    4.9315    1.4755    0.0000 C   0  0  0  0  0  0  0  0  0  0  0  0
    6.3374    1.9984    0.0000 O   0  0  0  0  0  0  0  0  0  0  0  0
    7.4932    1.0423    0.0000 S   0  0  0  0  0  0  0  0  0  0  0  0
    6.5371   -0.1135    0.0000 O   0  0  0  0  0  0  0  0  0  0  0  0
    8.4493    2.1981    0.0000 O   0  0  0  0  0  0  0  0  0  0  0  0
    8.6490    0.0862    0.0000 O   0  0  0  0  0  0  0  0  0  0  0  0
    3.7757    2.4316    0.0000 C   0  0  0  0  0  0  0  0  0  0  0  0
    2.3698    1.9087    0.0000 C   0  0  0  0  0  0  0  0  0  0  0  0
    2.1197    0.4297    0.0000 C   0  0  0  0  0  0  0  0  0  0  0  0
    0.9639    1.3858    0.0000 C   0  0  0  0  0  0  0  0  0  0  0  0
    0.7138   -0.0932    0.0000 C   0  0  0  0  0  0  0  0  0  0  0  0
   -0.4420    0.8629    0.0000 C   0  0  0  0  0  0  0  0  0  0  0  0
   -1.8479    0.3400    0.0000 C   0  0  0  0  0  0  0  0  0  0  0  0
   -2.0980   -1.1390    0.0000 C   0  0  0  0  0  0  0  0  0  0  0  0
   -3.3474   -0.3090    0.0000 C   0  0  0  0  0  0  0  0  0  0  0  0
  2  1  1  6
  2  3  1  0
  3  4  1  0
  4  5  1  0
  5  6  2  0
  5  7  1  0
  7  8  1  0
  2  9  1  0
  9 10  1  6
 10 11  1  0
 12 11  1  6
 12 13  1  0
 13 14  1  1
 14 15  1  6
 14 16  1  0
 17 16  1  1
 17 18  1  0
 18 19  1  0
 19 20  1  1
 20 21  1  0
 21 22  2  0
 21 23  2  0
 21 24  1  0
 19 25  1  0
 25 26  1  0
 26 27  1  0
 27 28  1  6
 27 29  1  0
 29 30  1  6
 30 31  1  0
 31 32  1  0
 32 33  1  6
 32  9  1  0
 32 12  1  0
 29 13  1  0
 27 17  1  0
M  END
>  <MS_ID>  (1742) 
MS1809

>  <SMILES>  (1742) 
C[C@H](CCC(=O)CF)[C@H]1CC[C@H]2[C@@H]3[C@@H](O)C[C@@H]4C[C@H](OS(=O)(=O)O)CC[C@]4(C)[C@H]3CC[C@]12C

>  <Structure_dimension>  (1742) 
2D

$$$$
MS1810
     RDKit          2D

 37 42  0  0  0  0  0  0  0  0999 V2000
   -2.1018   -4.0893    0.0000 C   0  0  0  0  0  0  0  0  0  0  0  0
   -1.3405   -2.7969    0.0000 C   0  0  0  0  0  0  0  0  0  0  0  0
   -2.0791   -1.4913    0.0000 C   0  0  0  0  0  0  0  0  0  0  0  0
   -3.5791   -1.4782    0.0000 C   0  0  0  0  0  0  0  0  0  0  0  0
   -4.3177   -0.1727    0.0000 C   0  0  0  0  0  0  0  0  0  0  0  0
   -3.5564    1.1198    0.0000 O   0  0  0  0  0  0  0  0  0  0  0  0
   -5.8176   -0.1596    0.0000 C   0  0  0  0  0  0  0  0  0  0  0  0
   -6.7099   -1.3653    0.0000 C   0  0  0  0  0  0  0  0  0  0  0  0
   -8.1324   -0.8894    0.0000 N   0  0  0  0  0  0  0  0  0  0  0  0
   -8.1193    0.6106    0.0000 C   0  0  0  0  0  0  0  0  0  0  0  0
   -9.2252    1.6240    0.0000 C   0  0  0  0  0  0  0  0  0  0  0  0
   -8.9005    3.0884    0.0000 C   0  0  0  0  0  0  0  0  0  0  0  0
   -7.4699    3.5395    0.0000 C   0  0  0  0  0  0  0  0  0  0  0  0
   -6.3640    2.5261    0.0000 C   0  0  0  0  0  0  0  0  0  0  0  0
   -6.6887    1.0616    0.0000 C   0  0  0  0  0  0  0  0  0  0  0  0
    0.1594   -2.8100    0.0000 C   0  0  0  0  0  0  0  0  0  0  0  0
    1.0305   -4.0311    0.0000 C   0  0  0  0  0  0  0  0  0  0  0  0
    2.4610   -3.5801    0.0000 C   0  0  0  0  0  0  0  0  0  0  0  0
    2.4742   -2.0802    0.0000 C   0  0  0  0  0  0  0  0  0  0  0  0
    3.5976   -1.0862    0.0000 C   0  0  0  0  0  0  0  0  0  0  0  0
    5.0201   -1.5622    0.0000 C   0  0  0  0  0  0  0  0  0  0  0  0
    5.3191   -3.0321    0.0000 O   0  0  0  0  0  0  0  0  0  0  0  0
    6.1435   -0.5683    0.0000 C   0  0  0  0  0  0  0  0  0  0  0  0
    7.5660   -1.0443    0.0000 O   0  0  0  0  0  0  0  0  0  0  0  0
    5.8445    0.9016    0.0000 C   0  0  0  0  0  0  0  0  0  0  0  0
    6.9679    1.8955    0.0000 C   0  0  0  0  0  0  0  0  0  0  0  0
    6.6689    3.3654    0.0000 C   0  0  0  0  0  0  0  0  0  0  0  0
    7.7923    4.3593    0.0000 O   0  0  0  0  0  0  0  0  0  0  0  0
    5.2464    3.8414    0.0000 C   0  0  0  0  0  0  0  0  0  0  0  0
    4.1230    2.8475    0.0000 C   0  0  0  0  0  0  0  0  0  0  0  0
    4.4220    1.3776    0.0000 C   0  0  0  0  0  0  0  0  0  0  0  0
    2.9995    1.8535    0.0000 C   0  0  0  0  0  0  0  0  0  0  0  0
    3.2986    0.3837    0.0000 C   0  0  0  0  0  0  0  0  0  0  0  0
    1.8761    0.8596    0.0000 C   0  0  0  0  0  0  0  0  0  0  0  0
    0.7526   -0.1343    0.0000 C   0  0  0  0  0  0  0  0  0  0  0  0
    1.0517   -1.6042    0.0000 C   0  0  0  0  0  0  0  0  0  0  0  0
   -0.4128   -1.2795    0.0000 C   0  0  0  0  0  0  0  0  0  0  0  0
  2  1  1  6
  2  3  1  0
  3  4  1  0
  4  5  1  0
  5  6  2  0
  5  7  1  0
  7  8  2  0
  8  9  1  0
  9 10  1  0
 10 11  2  0
 11 12  1  0
 12 13  2  0
 13 14  1  0
 14 15  2  0
  2 16  1  0
 16 17  1  6
 17 18  1  0
 19 18  1  6
 19 20  1  0
 20 21  1  1
 21 22  1  1
 21 23  1  0
 23 24  1  1
 23 25  1  0
 25 26  1  1
 26 27  1  0
 27 28  1  1
 27 29  1  0
 29 30  1  0
 30 31  1  0
 31 32  1  6
 31 33  1  0
 33 34  1  6
 34 35  1  0
 35 36  1  0
 36 37  1  6
 15  7  1  0
 36 16  1  0
 15 10  1  0
 36 19  1  0
 33 20  1  0
 31 25  1  0
M  END
>  <MS_ID>  (1743) 
MS1810

>  <SMILES>  (1743) 
C[C@H](CCC(=O)c1c[nH]c2ccccc12)[C@H]1CC[C@H]2[C@@H]3[C@H](O)[C@H](O)[C@@H]4C[C@H](O)CC[C@]4(C)[C@H]3CC[C@]12C

>  <Structure_dimension>  (1743) 
2D

$$$$
MS1811
     RDKit          2D

 38 42  0  0  0  0  0  0  0  0999 V2000
   -7.7878   -1.9555    0.0000 C   0  0  0  0  0  0  0  0  0  0  0  0
   -6.5918   -1.0501    0.0000 C   0  0  0  0  0  0  0  0  0  0  0  0
   -6.7779    0.4383    0.0000 C   0  0  0  0  0  0  0  0  0  0  0  0
   -8.1600    1.0213    0.0000 C   0  0  0  0  0  0  0  0  0  0  0  0
   -8.3461    2.5097    0.0000 C   0  0  0  0  0  0  0  0  0  0  0  0
   -7.1502    3.4151    0.0000 O   0  0  0  0  0  0  0  0  0  0  0  0
   -9.7282    3.0928    0.0000 O   0  0  0  0  0  0  0  0  0  0  0  0
   -5.2098   -1.6331    0.0000 C   0  0  0  0  0  0  0  0  0  0  0  0
   -4.8691   -3.0939    0.0000 C   0  0  0  0  0  0  0  0  0  0  0  0
   -3.3745   -3.2213    0.0000 C   0  0  0  0  0  0  0  0  0  0  0  0
   -2.7915   -1.8392    0.0000 C   0  0  0  0  0  0  0  0  0  0  0  0
   -1.3743   -1.3477    0.0000 C   0  0  0  0  0  0  0  0  0  0  0  0
   -0.2400   -2.3293    0.0000 C   0  0  0  0  0  0  0  0  0  0  0  0
   -0.5230   -3.8024    0.0000 O   0  0  0  0  0  0  0  0  0  0  0  0
    1.1772   -1.8378    0.0000 C   0  0  0  0  0  0  0  0  0  0  0  0
    1.4601   -0.3647    0.0000 C   0  0  0  0  0  0  0  0  0  0  0  0
    2.8773    0.1268    0.0000 C   0  0  0  0  0  0  0  0  0  0  0  0
    3.1602    1.5999    0.0000 C   0  0  0  0  0  0  0  0  0  0  0  0
    4.5774    2.0914    0.0000 O   0  0  0  0  0  0  0  0  0  0  0  0
    5.7116    1.1099    0.0000 C   0  0  0  0  0  0  0  0  0  0  0  0
    5.4287   -0.3632    0.0000 O   0  0  0  0  0  0  0  0  0  0  0  0
    6.5630   -1.3448    0.0000 C   0  0  0  0  0  0  0  0  0  0  0  0
    6.2800   -2.8179    0.0000 C   0  0  0  0  0  0  0  0  0  0  0  0
    7.9802   -0.8533    0.0000 C   0  0  0  0  0  0  0  0  0  0  0  0
    9.1144   -1.8348    0.0000 O   0  0  0  0  0  0  0  0  0  0  0  0
    8.2631    0.6198    0.0000 C   0  0  0  0  0  0  0  0  0  0  0  0
    9.6803    1.1113    0.0000 O   0  0  0  0  0  0  0  0  0  0  0  0
    7.1288    1.6014    0.0000 C   0  0  0  0  0  0  0  0  0  0  0  0
    7.4117    3.0745    0.0000 O   0  0  0  0  0  0  0  0  0  0  0  0
    2.0259    2.5815    0.0000 C   0  0  0  0  0  0  0  0  0  0  0  0
    0.6088    2.0899    0.0000 C   0  0  0  0  0  0  0  0  0  0  0  0
    0.3258    0.6169    0.0000 C   0  0  0  0  0  0  0  0  0  0  0  0
   -0.8084    1.5984    0.0000 C   0  0  0  0  0  0  0  0  0  0  0  0
   -1.0914    0.1254    0.0000 C   0  0  0  0  0  0  0  0  0  0  0  0
   -2.2256    1.1069    0.0000 C   0  0  0  0  0  0  0  0  0  0  0  0
   -3.6428    0.6154    0.0000 C   0  0  0  0  0  0  0  0  0  0  0  0
   -3.9257   -0.8577    0.0000 C   0  0  0  0  0  0  0  0  0  0  0  0
   -5.1564   -0.0001    0.0000 C   0  0  0  0  0  0  0  0  0  0  0  0
  2  1  1  6
  2  3  1  0
  3  4  1  0
  4  5  1  0
  5  6  2  0
  5  7  1  0
  2  8  1  0
  8  9  1  6
  9 10  1  0
 11 10  1  6
 11 12  1  0
 12 13  1  1
 13 14  1  6
 13 15  1  0
 16 15  1  1
 16 17  1  0
 17 18  1  0
 18 19  1  1
 20 19  1  1
 20 21  1  0
 21 22  1  0
 22 23  1  1
 22 24  1  0
 24 25  1  6
 24 26  1  0
 26 27  1  1
 26 28  1  0
 28 29  1  6
 18 30  1  0
 30 31  1  0
 31 32  1  0
 32 33  1  6
 32 34  1  0
 34 35  1  6
 35 36  1  0
 36 37  1  0
 37 38  1  6
 37  8  1  0
 37 11  1  0
 34 12  1  0
 32 16  1  0
 28 20  1  0
M  END
>  <MS_ID>  (1744) 
MS1811

>  <SMILES>  (1744) 
C[C@H](CCC(=O)O)[C@H]1CC[C@H]2[C@@H]3[C@@H](O)C[C@@H]4C[C@H](O[C@@H]5O[C@H](C)[C@@H](O)[C@H](O)[C@H]5O)CC[C@]4(C)[C@H]3CC[C@]12C

>  <Structure_dimension>  (1744) 
2D

$$$$
MS1812
     RDKit          2D

 35 38  0  0  0  0  0  0  0  0999 V2000
   -2.0200   -4.3028    0.0000 C   0  0  0  0  0  0  0  0  0  0  0  0
   -1.3087   -2.9822    0.0000 C   0  0  0  0  0  0  0  0  0  0  0  0
   -2.0967   -1.7059    0.0000 C   0  0  0  0  0  0  0  0  0  0  0  0
   -3.5960   -1.7502    0.0000 C   0  0  0  0  0  0  0  0  0  0  0  0
   -4.3840   -0.4738    0.0000 C   0  0  0  0  0  0  0  0  0  0  0  0
   -3.6727    0.8468    0.0000 O   0  0  0  0  0  0  0  0  0  0  0  0
   -5.8834   -0.5181    0.0000 N   0  0  0  0  0  0  0  0  0  0  0  0
   -6.6714    0.7582    0.0000 C   0  0  0  0  0  0  0  0  0  0  0  0
   -8.1707    0.7140    0.0000 C   0  0  0  0  0  0  0  0  0  0  0  0
   -8.9588    1.9903    0.0000 P   0  0  0  0  0  0  0  0  0  0  0  0
   -9.7468    3.2667    0.0000 O   0  0  0  0  0  0  0  0  0  0  0  0
  -10.2351    1.2023    0.0000 O   0  0  0  0  0  0  0  0  0  0  0  0
   -7.6824    2.7783    0.0000 O   0  0  0  0  0  0  0  0  0  0  0  0
    0.1907   -2.9379    0.0000 C   0  0  0  0  0  0  0  0  0  0  0  0
    1.1078   -4.1249    0.0000 C   0  0  0  0  0  0  0  0  0  0  0  0
    2.5201   -3.6195    0.0000 C   0  0  0  0  0  0  0  0  0  0  0  0
    2.4758   -2.1201    0.0000 C   0  0  0  0  0  0  0  0  0  0  0  0
    3.5604   -1.0840    0.0000 C   0  0  0  0  0  0  0  0  0  0  0  0
    5.0001   -1.5052    0.0000 C   0  0  0  0  0  0  0  0  0  0  0  0
    5.3551   -2.9626    0.0000 O   0  0  0  0  0  0  0  0  0  0  0  0
    6.0847   -0.4691    0.0000 C   0  0  0  0  0  0  0  0  0  0  0  0
    5.7296    0.9883    0.0000 C   0  0  0  0  0  0  0  0  0  0  0  0
    6.8142    2.0245    0.0000 C   0  0  0  0  0  0  0  0  0  0  0  0
    6.4592    3.4819    0.0000 C   0  0  0  0  0  0  0  0  0  0  0  0
    7.5438    4.5180    0.0000 O   0  0  0  0  0  0  0  0  0  0  0  0
    5.0196    3.9031    0.0000 C   0  0  0  0  0  0  0  0  0  0  0  0
    3.9350    2.8669    0.0000 C   0  0  0  0  0  0  0  0  0  0  0  0
    4.2900    1.4095    0.0000 C   0  0  0  0  0  0  0  0  0  0  0  0
    2.8503    1.8308    0.0000 C   0  0  0  0  0  0  0  0  0  0  0  0
    3.2054    0.3734    0.0000 C   0  0  0  0  0  0  0  0  0  0  0  0
    1.7657    0.7946    0.0000 C   0  0  0  0  0  0  0  0  0  0  0  0
    0.6811   -0.2416    0.0000 C   0  0  0  0  0  0  0  0  0  0  0  0
   -0.7585    0.1797    0.0000 O   0  0  0  0  0  0  0  0  0  0  0  0
    1.0362   -1.6989    0.0000 C   0  0  0  0  0  0  0  0  0  0  0  0
   -0.4396   -1.4305    0.0000 C   0  0  0  0  0  0  0  0  0  0  0  0
  2  1  1  6
  2  3  1  0
  3  4  1  0
  4  5  1  0
  5  6  2  0
  5  7  1  0
  7  8  1  0
  8  9  1  0
  9 10  1  0
 10 11  2  0
 10 12  1  0
 10 13  1  0
  2 14  1  0
 14 15  1  6
 15 16  1  0
 17 16  1  6
 17 18  1  0
 18 19  1  1
 19 20  1  1
 19 21  1  0
 22 21  1  6
 22 23  1  0
 23 24  1  0
 24 25  1  1
 24 26  1  0
 26 27  1  0
 27 28  1  0
 28 29  1  6
 28 30  1  0
 30 31  1  6
 31 32  1  0
 32 33  1  1
 32 34  1  0
 34 35  1  6
 34 14  1  0
 34 17  1  0
 30 18  1  0
 28 22  1  0
M  END
>  <MS_ID>  (1745) 
MS1812

>  <SMILES>  (1745) 
C[C@H](CCC(=O)NCCP(=O)(O)O)[C@H]1CC[C@H]2[C@@H]3[C@H](O)C[C@H]4C[C@H](O)CC[C@]4(C)[C@H]3C[C@H](O)[C@]12C

>  <Structure_dimension>  (1745) 
2D

$$$$
MS1813
     RDKit          2D

 32 35  0  0  0  0  0  0  0  0999 V2000
   -3.3600   -3.6470    0.0000 C   0  0  0  0  0  0  0  0  0  0  0  0
   -2.4640   -2.4440    0.0000 C   0  0  0  0  0  0  0  0  0  0  0  0
   -3.0579   -1.0666    0.0000 C   0  0  0  0  0  0  0  0  0  0  0  0
   -4.5477   -0.8922    0.0000 C   0  0  0  0  0  0  0  0  0  0  0  0
   -5.1416    0.4852    0.0000 C   0  0  0  0  0  0  0  0  0  0  0  0
   -4.2456    1.6883    0.0000 O   0  0  0  0  0  0  0  0  0  0  0  0
   -6.6314    0.6596    0.0000 N   0  0  0  0  0  0  0  0  0  0  0  0
   -7.2253    2.0371    0.0000 S   0  0  0  0  0  0  0  0  0  0  0  0
   -7.8192    3.4145    0.0000 O   0  0  0  0  0  0  0  0  0  0  0  0
   -8.6027    1.4432    0.0000 O   0  0  0  0  0  0  0  0  0  0  0  0
   -5.8479    2.6309    0.0000 F   0  0  0  0  0  0  0  0  0  0  0  0
   -0.9742   -2.6184    0.0000 C   0  0  0  0  0  0  0  0  0  0  0  0
   -0.2396   -3.9262    0.0000 C   0  0  0  0  0  0  0  0  0  0  0  0
    1.2312   -3.6317    0.0000 C   0  0  0  0  0  0  0  0  0  0  0  0
    1.4056   -2.1419    0.0000 C   0  0  0  0  0  0  0  0  0  0  0  0
    2.6295   -1.2746    0.0000 C   0  0  0  0  0  0  0  0  0  0  0  0
    3.9925   -1.9008    0.0000 C   0  0  0  0  0  0  0  0  0  0  0  0
    4.1317   -3.3944    0.0000 O   0  0  0  0  0  0  0  0  0  0  0  0
    5.2163   -1.0336    0.0000 C   0  0  0  0  0  0  0  0  0  0  0  0
    5.0772    0.4600    0.0000 C   0  0  0  0  0  0  0  0  0  0  0  0
    6.3010    1.3273    0.0000 C   0  0  0  0  0  0  0  0  0  0  0  0
    6.1619    2.8208    0.0000 C   0  0  0  0  0  0  0  0  0  0  0  0
    7.3857    3.6881    0.0000 O   0  0  0  0  0  0  0  0  0  0  0  0
    4.7989    3.4470    0.0000 C   0  0  0  0  0  0  0  0  0  0  0  0
    3.5750    2.5798    0.0000 C   0  0  0  0  0  0  0  0  0  0  0  0
    3.7142    1.0862    0.0000 C   0  0  0  0  0  0  0  0  0  0  0  0
    2.3511    1.7125    0.0000 C   0  0  0  0  0  0  0  0  0  0  0  0
    2.4903    0.2189    0.0000 C   0  0  0  0  0  0  0  0  0  0  0  0
    1.1273    0.8452    0.0000 C   0  0  0  0  0  0  0  0  0  0  0  0
   -0.0966   -0.0221    0.0000 C   0  0  0  0  0  0  0  0  0  0  0  0
    0.0426   -1.5156    0.0000 C   0  0  0  0  0  0  0  0  0  0  0  0
   -1.3784   -1.0353    0.0000 C   0  0  0  0  0  0  0  0  0  0  0  0
  2  1  1  6
  2  3  1  0
  3  4  1  0
  4  5  1  0
  5  6  2  0
  5  7  1  0
  7  8  1  0
  8  9  2  0
  8 10  2  0
  8 11  1  0
  2 12  1  0
 12 13  1  6
 13 14  1  0
 15 14  1  6
 15 16  1  0
 16 17  1  1
 17 18  1  1
 17 19  1  0
 20 19  1  1
 20 21  1  0
 21 22  1  0
 22 23  1  1
 22 24  1  0
 24 25  1  0
 25 26  1  0
 26 27  1  6
 26 28  1  0
 28 29  1  6
 29 30  1  0
 30 31  1  0
 31 32  1  6
 31 12  1  0
 31 15  1  0
 28 16  1  0
 26 20  1  0
M  END
>  <MS_ID>  (1746) 
MS1813

>  <SMILES>  (1746) 
C[C@H](CCC(=O)NS(=O)(=O)F)[C@H]1CC[C@H]2[C@@H]3[C@H](O)C[C@@H]4C[C@H](O)CC[C@]4(C)[C@H]3CC[C@]12C

>  <Structure_dimension>  (1746) 
2D

$$$$
MS1814
     RDKit          2D

 30 33  0  0  0  0  0  0  0  0999 V2000
   -4.3209   -2.7536    0.0000 C   0  0  0  0  0  0  0  0  0  0  0  0
   -3.2523   -1.7010    0.0000 C   0  0  0  0  0  0  0  0  0  0  0  0
   -3.6295   -0.2492    0.0000 C   0  0  0  0  0  0  0  0  0  0  0  0
   -5.0755    0.1499    0.0000 C   0  0  0  0  0  0  0  0  0  0  0  0
   -5.4527    1.6017    0.0000 C   0  0  0  0  0  0  0  0  0  0  0  0
   -4.3841    2.6543    0.0000 O   0  0  0  0  0  0  0  0  0  0  0  0
   -6.8987    2.0009    0.0000 N   0  0  0  0  0  0  0  0  0  0  0  0
   -7.2759    3.4526    0.0000 C   0  0  0  0  0  0  0  0  0  0  0  0
   -7.9673    0.9482    0.0000 O   0  0  0  0  0  0  0  0  0  0  0  0
   -1.8064   -2.1002    0.0000 C   0  0  0  0  0  0  0  0  0  0  0  0
   -1.2794   -3.5046    0.0000 C   0  0  0  0  0  0  0  0  0  0  0  0
    0.2191   -3.4374    0.0000 C   0  0  0  0  0  0  0  0  0  0  0  0
    0.6183   -1.9915    0.0000 C   0  0  0  0  0  0  0  0  0  0  0  0
    1.9599   -1.3206    0.0000 C   0  0  0  0  0  0  0  0  0  0  0  0
    3.2117   -2.1470    0.0000 C   0  0  0  0  0  0  0  0  0  0  0  0
    3.1219   -3.6443    0.0000 O   0  0  0  0  0  0  0  0  0  0  0  0
    4.5533   -1.4762    0.0000 C   0  0  0  0  0  0  0  0  0  0  0  0
    4.6431    0.0211    0.0000 C   0  0  0  0  0  0  0  0  0  0  0  0
    5.9847    0.6920    0.0000 C   0  0  0  0  0  0  0  0  0  0  0  0
    6.0745    2.1893    0.0000 C   0  0  0  0  0  0  0  0  0  0  0  0
    7.4161    2.8602    0.0000 O   0  0  0  0  0  0  0  0  0  0  0  0
    4.8227    3.0158    0.0000 C   0  0  0  0  0  0  0  0  0  0  0  0
    3.4811    2.3449    0.0000 C   0  0  0  0  0  0  0  0  0  0  0  0
    3.3913    0.8476    0.0000 C   0  0  0  0  0  0  0  0  0  0  0  0
    2.1395    1.6740    0.0000 C   0  0  0  0  0  0  0  0  0  0  0  0
    2.0497    0.1767    0.0000 C   0  0  0  0  0  0  0  0  0  0  0  0
    0.7979    1.0031    0.0000 C   0  0  0  0  0  0  0  0  0  0  0  0
   -0.5437    0.3323    0.0000 C   0  0  0  0  0  0  0  0  0  0  0  0
   -0.6335   -1.1650    0.0000 C   0  0  0  0  0  0  0  0  0  0  0  0
   -1.9649   -0.4740    0.0000 C   0  0  0  0  0  0  0  0  0  0  0  0
  2  1  1  6
  2  3  1  0
  3  4  1  0
  4  5  1  0
  5  6  2  0
  5  7  1  0
  7  8  1  0
  7  9  1  0
  2 10  1  0
 10 11  1  6
 11 12  1  0
 13 12  1  6
 13 14  1  0
 14 15  1  1
 15 16  1  6
 15 17  1  0
 18 17  1  1
 18 19  1  0
 19 20  1  0
 20 21  1  1
 20 22  1  0
 22 23  1  0
 23 24  1  0
 24 25  1  6
 24 26  1  0
 26 27  1  6
 27 28  1  0
 28 29  1  0
 29 30  1  6
 29 10  1  0
 29 13  1  0
 26 14  1  0
 24 18  1  0
M  END
>  <MS_ID>  (1747) 
MS1814

>  <SMILES>  (1747) 
C[C@H](CCC(=O)N(C)O)[C@H]1CC[C@H]2[C@@H]3[C@@H](O)C[C@@H]4C[C@H](O)CC[C@]4(C)[C@H]3CC[C@]12C

>  <Structure_dimension>  (1747) 
2D

$$$$
MS1815
     RDKit          2D

 29 32  0  0  0  0  0  0  0  0999 V2000
   -5.0303   -2.1373    0.0000 C   0  0  0  0  0  0  0  0  0  0  0  0
   -3.8594   -1.1998    0.0000 C   0  0  0  0  0  0  0  0  0  0  0  0
   -4.0858    0.2830    0.0000 C   0  0  0  0  0  0  0  0  0  0  0  0
   -5.4831    0.8284    0.0000 C   0  0  0  0  0  0  0  0  0  0  0  0
   -5.7095    2.3112    0.0000 C   0  0  0  0  0  0  0  0  0  0  0  0
   -4.5386    3.2487    0.0000 O   0  0  0  0  0  0  0  0  0  0  0  0
   -7.1069    2.8565    0.0000 O   0  0  0  0  0  0  0  0  0  0  0  0
   -2.4620   -1.7451    0.0000 C   0  0  0  0  0  0  0  0  0  0  0  0
   -2.0818   -3.1961    0.0000 C   0  0  0  0  0  0  0  0  0  0  0  0
   -0.5844   -3.2830    0.0000 C   0  0  0  0  0  0  0  0  0  0  0  0
   -0.0390   -1.8856    0.0000 C   0  0  0  0  0  0  0  0  0  0  0  0
    1.3643   -1.3559    0.0000 C   0  0  0  0  0  0  0  0  0  0  0  0
    2.5248   -2.3063    0.0000 C   0  0  0  0  0  0  0  0  0  0  0  0
    2.2819   -3.7865    0.0000 O   0  0  0  0  0  0  0  0  0  0  0  0
    3.9281   -1.7765    0.0000 C   0  0  0  0  0  0  0  0  0  0  0  0
    4.1710   -0.2963    0.0000 C   0  0  0  0  0  0  0  0  0  0  0  0
    5.5743    0.2334    0.0000 C   0  0  0  0  0  0  0  0  0  0  0  0
    5.8172    1.7136    0.0000 C   0  0  0  0  0  0  0  0  0  0  0  0
    7.2205    2.2434    0.0000 N   0  0  0  0  0  0  0  0  0  0  0  0
    4.6568    2.6641    0.0000 C   0  0  0  0  0  0  0  0  0  0  0  0
    3.2534    2.1343    0.0000 C   0  0  0  0  0  0  0  0  0  0  0  0
    3.0105    0.6541    0.0000 C   0  0  0  0  0  0  0  0  0  0  0  0
    1.8501    1.6046    0.0000 C   0  0  0  0  0  0  0  0  0  0  0  0
    1.6072    0.1244    0.0000 C   0  0  0  0  0  0  0  0  0  0  0  0
    0.4467    1.0748    0.0000 C   0  0  0  0  0  0  0  0  0  0  0  0
   -0.9566    0.5450    0.0000 C   0  0  0  0  0  0  0  0  0  0  0  0
   -2.1170    1.4955    0.0000 O   0  0  0  0  0  0  0  0  0  0  0  0
   -1.1995   -0.9352    0.0000 C   0  0  0  0  0  0  0  0  0  0  0  0
   -2.4529   -0.1112    0.0000 C   0  0  0  0  0  0  0  0  0  0  0  0
  2  1  1  6
  2  3  1  0
  3  4  1  0
  4  5  1  0
  5  6  2  0
  5  7  1  0
  2  8  1  0
  8  9  1  6
  9 10  1  0
 11 10  1  6
 11 12  1  0
 12 13  1  1
 13 14  1  1
 13 15  1  0
 16 15  1  1
 16 17  1  0
 17 18  1  0
 18 19  1  6
 18 20  1  0
 20 21  1  0
 21 22  1  0
 22 23  1  6
 22 24  1  0
 24 25  1  6
 25 26  1  0
 26 27  1  1
 26 28  1  0
 28 29  1  6
 28  8  1  0
 28 11  1  0
 24 12  1  0
 22 16  1  0
M  END
>  <MS_ID>  (1748) 
MS1815

>  <SMILES>  (1748) 
C[C@H](CCC(=O)O)[C@H]1CC[C@H]2[C@@H]3[C@H](O)C[C@@H]4C[C@@H](N)CC[C@]4(C)[C@H]3C[C@H](O)[C@]12C

>  <Structure_dimension>  (1748) 
2D

$$$$
MS1816
     RDKit          2D

 30 33  0  0  0  0  0  0  0  0999 V2000
   -5.3211   -2.0238    0.0000 C   0  0  0  0  0  0  0  0  0  0  0  0
   -4.1189   -1.1267    0.0000 C   0  0  0  0  0  0  0  0  0  0  0  0
   -4.2947    0.3629    0.0000 C   0  0  0  0  0  0  0  0  0  0  0  0
   -5.6727    0.9555    0.0000 C   0  0  0  0  0  0  0  0  0  0  0  0
   -5.8485    2.4452    0.0000 C   0  0  0  0  0  0  0  0  0  0  0  0
   -4.6463    3.3422    0.0000 O   0  0  0  0  0  0  0  0  0  0  0  0
   -7.2265    3.0377    0.0000 O   0  0  0  0  0  0  0  0  0  0  0  0
   -2.7409   -1.7193    0.0000 C   0  0  0  0  0  0  0  0  0  0  0  0
   -2.4104   -3.1825    0.0000 C   0  0  0  0  0  0  0  0  0  0  0  0
   -0.9167   -3.3202    0.0000 C   0  0  0  0  0  0  0  0  0  0  0  0
   -0.3241   -1.9422    0.0000 C   0  0  0  0  0  0  0  0  0  0  0  0
    1.0964   -1.4605    0.0000 C   0  0  0  0  0  0  0  0  0  0  0  0
    2.2239   -2.4499    0.0000 C   0  0  0  0  0  0  0  0  0  0  0  0
    1.9307   -3.9210    0.0000 O   0  0  0  0  0  0  0  0  0  0  0  0
    3.6444   -1.9683    0.0000 C   0  0  0  0  0  0  0  0  0  0  0  0
    3.9375   -0.4972    0.0000 C   0  0  0  0  0  0  0  0  0  0  0  0
    5.3581   -0.0155    0.0000 C   0  0  0  0  0  0  0  0  0  0  0  0
    5.6512    1.4556    0.0000 C   0  0  0  0  0  0  0  0  0  0  0  0
    6.4298    2.7377    0.0000 C   0  0  0  0  0  0  0  0  0  0  0  0
    7.0491    0.9114    0.0000 O   0  0  0  0  0  0  0  0  0  0  0  0
    4.5238    2.4450    0.0000 C   0  0  0  0  0  0  0  0  0  0  0  0
    3.1033    1.9633    0.0000 C   0  0  0  0  0  0  0  0  0  0  0  0
    2.8101    0.4922    0.0000 C   0  0  0  0  0  0  0  0  0  0  0  0
    1.6827    1.4816    0.0000 C   0  0  0  0  0  0  0  0  0  0  0  0
    1.3896    0.0105    0.0000 C   0  0  0  0  0  0  0  0  0  0  0  0
    0.2621    0.9999    0.0000 C   0  0  0  0  0  0  0  0  0  0  0  0
   -1.1584    0.5183    0.0000 C   0  0  0  0  0  0  0  0  0  0  0  0
   -2.2858    1.5077    0.0000 O   0  0  0  0  0  0  0  0  0  0  0  0
   -1.4515   -0.9528    0.0000 C   0  0  0  0  0  0  0  0  0  0  0  0
   -2.6762   -0.0867    0.0000 C   0  0  0  0  0  0  0  0  0  0  0  0
  2  1  1  6
  2  3  1  0
  3  4  1  0
  4  5  1  0
  5  6  2  0
  5  7  1  0
  2  8  1  0
  8  9  1  6
  9 10  1  0
 11 10  1  6
 11 12  1  0
 12 13  1  1
 13 14  1  6
 13 15  1  0
 16 15  1  1
 16 17  1  0
 17 18  1  0
 18 19  1  1
 18 20  1  0
 18 21  1  0
 21 22  1  0
 22 23  1  0
 23 24  1  6
 23 25  1  0
 25 26  1  6
 26 27  1  0
 27 28  1  6
 27 29  1  0
 29 30  1  6
 29  8  1  0
 29 11  1  0
 25 12  1  0
 23 16  1  0
M  END
>  <MS_ID>  (1749) 
MS1816

>  <SMILES>  (1749) 
C[C@H](CCC(=O)O)[C@H]1CC[C@H]2[C@@H]3[C@@H](O)C[C@@H]4C[C@@](C)(O)CC[C@]4(C)[C@H]3C[C@@H](O)[C@]12C

>  <Structure_dimension>  (1749) 
2D

$$$$
MS1817
     RDKit          2D

 32 35  0  0  0  0  0  0  0  0999 V2000
   -3.4546   -3.6059    0.0000 C   0  0  0  0  0  0  0  0  0  0  0  0
   -2.5561   -2.4048    0.0000 C   0  0  0  0  0  0  0  0  0  0  0  0
   -3.1471   -1.0261    0.0000 C   0  0  0  0  0  0  0  0  0  0  0  0
   -4.6366   -0.8486    0.0000 C   0  0  0  0  0  0  0  0  0  0  0  0
   -5.2276    0.5301    0.0000 C   0  0  0  0  0  0  0  0  0  0  0  0
   -4.3291    1.7312    0.0000 O   0  0  0  0  0  0  0  0  0  0  0  0
   -6.7170    0.7076    0.0000 O   0  0  0  0  0  0  0  0  0  0  0  0
   -7.3080    2.0863    0.0000 C   0  0  0  0  0  0  0  0  0  0  0  0
   -8.7975    2.2638    0.0000 C   0  0  0  0  0  0  0  0  0  0  0  0
   -9.3885    3.6424    0.0000 S   0  0  0  0  0  0  0  0  0  0  0  0
   -1.0667   -2.5823    0.0000 C   0  0  0  0  0  0  0  0  0  0  0  0
   -0.3348   -3.8917    0.0000 C   0  0  0  0  0  0  0  0  0  0  0  0
    1.1366   -3.6002    0.0000 C   0  0  0  0  0  0  0  0  0  0  0  0
    1.3141   -2.1108    0.0000 C   0  0  0  0  0  0  0  0  0  0  0  0
    2.5398   -1.2460    0.0000 C   0  0  0  0  0  0  0  0  0  0  0  0
    3.9015   -1.8751    0.0000 C   0  0  0  0  0  0  0  0  0  0  0  0
    4.0375   -3.3690    0.0000 O   0  0  0  0  0  0  0  0  0  0  0  0
    5.1272   -1.0104    0.0000 C   0  0  0  0  0  0  0  0  0  0  0  0
    4.9911    0.4834    0.0000 C   0  0  0  0  0  0  0  0  0  0  0  0
    6.2168    1.3481    0.0000 C   0  0  0  0  0  0  0  0  0  0  0  0
    6.0808    2.8419    0.0000 C   0  0  0  0  0  0  0  0  0  0  0  0
    7.3064    3.7067    0.0000 O   0  0  0  0  0  0  0  0  0  0  0  0
    4.7191    3.4710    0.0000 C   0  0  0  0  0  0  0  0  0  0  0  0
    3.4934    2.6063    0.0000 C   0  0  0  0  0  0  0  0  0  0  0  0
    3.6294    1.1125    0.0000 C   0  0  0  0  0  0  0  0  0  0  0  0
    2.2677    1.7416    0.0000 C   0  0  0  0  0  0  0  0  0  0  0  0
    2.4038    0.2478    0.0000 C   0  0  0  0  0  0  0  0  0  0  0  0
    1.0421    0.8769    0.0000 C   0  0  0  0  0  0  0  0  0  0  0  0
   -0.1836    0.0122    0.0000 C   0  0  0  0  0  0  0  0  0  0  0  0
   -1.5453    0.6413    0.0000 O   0  0  0  0  0  0  0  0  0  0  0  0
   -0.0476   -1.4817    0.0000 C   0  0  0  0  0  0  0  0  0  0  0  0
   -1.4676   -0.9983    0.0000 C   0  0  0  0  0  0  0  0  0  0  0  0
  2  1  1  6
  2  3  1  0
  3  4  1  0
  4  5  1  0
  5  6  2  0
  5  7  1  0
  7  8  1  0
  8  9  1  0
  9 10  1  0
  2 11  1  0
 11 12  1  6
 12 13  1  0
 14 13  1  6
 14 15  1  0
 15 16  1  1
 16 17  1  1
 16 18  1  0
 19 18  1  1
 19 20  1  0
 20 21  1  0
 21 22  1  1
 21 23  1  0
 23 24  1  0
 24 25  1  0
 25 26  1  6
 25 27  1  0
 27 28  1  6
 28 29  1  0
 29 30  1  1
 29 31  1  0
 31 32  1  6
 31 11  1  0
 31 14  1  0
 27 15  1  0
 25 19  1  0
M  END
>  <MS_ID>  (1750) 
MS1817

>  <SMILES>  (1750) 
C[C@H](CCC(=O)OCCS)[C@H]1CC[C@H]2[C@@H]3[C@H](O)C[C@@H]4C[C@H](O)CC[C@]4(C)[C@H]3C[C@H](O)[C@]12C

>  <Structure_dimension>  (1750) 
2D

$$$$
MS1818
     RDKit          2D

 40 44  0  0  0  0  0  0  0  0999 V2000
   -7.7456   -2.0849    0.0000 C   0  0  0  0  0  0  0  0  0  0  0  0
   -6.5700   -1.1533    0.0000 C   0  0  0  0  0  0  0  0  0  0  0  0
   -6.7891    0.3307    0.0000 C   0  0  0  0  0  0  0  0  0  0  0  0
   -8.1837    0.8829    0.0000 C   0  0  0  0  0  0  0  0  0  0  0  0
   -8.4028    2.3668    0.0000 C   0  0  0  0  0  0  0  0  0  0  0  0
   -7.2273    3.2985    0.0000 O   0  0  0  0  0  0  0  0  0  0  0  0
   -9.7975    2.9190    0.0000 O   0  0  0  0  0  0  0  0  0  0  0  0
   -5.1754   -1.7055    0.0000 C   0  0  0  0  0  0  0  0  0  0  0  0
   -4.8024   -3.1584    0.0000 C   0  0  0  0  0  0  0  0  0  0  0  0
   -3.3053   -3.2526    0.0000 C   0  0  0  0  0  0  0  0  0  0  0  0
   -2.7531   -1.8579    0.0000 C   0  0  0  0  0  0  0  0  0  0  0  0
   -1.3472   -1.3351    0.0000 C   0  0  0  0  0  0  0  0  0  0  0  0
   -0.1914   -2.2913    0.0000 C   0  0  0  0  0  0  0  0  0  0  0  0
   -0.4416   -3.7703    0.0000 O   0  0  0  0  0  0  0  0  0  0  0  0
    1.2145   -1.7685    0.0000 C   0  0  0  0  0  0  0  0  0  0  0  0
    1.4647   -0.2895    0.0000 C   0  0  0  0  0  0  0  0  0  0  0  0
    2.8707    0.2333    0.0000 C   0  0  0  0  0  0  0  0  0  0  0  0
    3.1208    1.7123    0.0000 C   0  0  0  0  0  0  0  0  0  0  0  0
    4.5268    2.2352    0.0000 O   0  0  0  0  0  0  0  0  0  0  0  0
    5.6825    1.2790    0.0000 C   0  0  0  0  0  0  0  0  0  0  0  0
    5.4323   -0.2000    0.0000 O   0  0  0  0  0  0  0  0  0  0  0  0
    6.5881   -1.1562    0.0000 C   0  0  0  0  0  0  0  0  0  0  0  0
    6.3379   -2.6351    0.0000 C   0  0  0  0  0  0  0  0  0  0  0  0
    4.9320   -3.1580    0.0000 O   0  0  0  0  0  0  0  0  0  0  0  0
    7.9940   -0.6333    0.0000 C   0  0  0  0  0  0  0  0  0  0  0  0
    9.1498   -1.5895    0.0000 O   0  0  0  0  0  0  0  0  0  0  0  0
    8.2442    0.8456    0.0000 C   0  0  0  0  0  0  0  0  0  0  0  0
    9.6501    1.3685    0.0000 O   0  0  0  0  0  0  0  0  0  0  0  0
    7.0885    1.8018    0.0000 C   0  0  0  0  0  0  0  0  0  0  0  0
    7.3387    3.2808    0.0000 O   0  0  0  0  0  0  0  0  0  0  0  0
    1.9651    2.6685    0.0000 C   0  0  0  0  0  0  0  0  0  0  0  0
    0.5592    2.1457    0.0000 C   0  0  0  0  0  0  0  0  0  0  0  0
    0.3090    0.6667    0.0000 C   0  0  0  0  0  0  0  0  0  0  0  0
   -0.8468    1.6229    0.0000 C   0  0  0  0  0  0  0  0  0  0  0  0
   -1.0970    0.1439    0.0000 C   0  0  0  0  0  0  0  0  0  0  0  0
   -2.2527    1.1000    0.0000 C   0  0  0  0  0  0  0  0  0  0  0  0
   -3.6586    0.5772    0.0000 C   0  0  0  0  0  0  0  0  0  0  0  0
   -4.8144    1.5334    0.0000 O   0  0  0  0  0  0  0  0  0  0  0  0
   -3.9088   -0.9018    0.0000 C   0  0  0  0  0  0  0  0  0  0  0  0
   -5.1582   -0.0716    0.0000 C   0  0  0  0  0  0  0  0  0  0  0  0
  2  1  1  6
  2  3  1  0
  3  4  1  0
  4  5  1  0
  5  6  2  0
  5  7  1  0
  2  8  1  0
  8  9  1  6
  9 10  1  0
 11 10  1  6
 11 12  1  0
 12 13  1  1
 13 14  1  1
 13 15  1  0
 16 15  1  1
 16 17  1  0
 17 18  1  0
 18 19  1  1
 20 19  1  6
 20 21  1  0
 21 22  1  0
 22 23  1  1
 23 24  1  0
 22 25  1  0
 25 26  1  1
 25 27  1  0
 27 28  1  1
 27 29  1  0
 29 30  1  6
 18 31  1  0
 31 32  1  0
 32 33  1  0
 33 34  1  6
 33 35  1  0
 35 36  1  6
 36 37  1  0
 37 38  1  1
 37 39  1  0
 39 40  1  6
 39  8  1  0
 39 11  1  0
 35 12  1  0
 33 16  1  0
 29 20  1  0
M  END
>  <MS_ID>  (1751) 
MS1818

>  <SMILES>  (1751) 
C[C@H](CCC(=O)O)[C@H]1CC[C@H]2[C@@H]3[C@H](O)C[C@@H]4C[C@H](O[C@H]5O[C@H](CO)[C@H](O)[C@H](O)[C@H]5O)CC[C@]4(C)[C@H]3C[C@H](O)[C@]12C

>  <Structure_dimension>  (1751) 
2D

$$$$
MS1819
     RDKit          2D

 35 38  0  0  0  0  0  0  0  0999 V2000
   -1.9333   -5.2337    0.0000 C   0  0  0  0  0  0  0  0  0  0  0  0
   -1.3710   -3.8431    0.0000 C   0  0  0  0  0  0  0  0  0  0  0  0
   -2.2941   -2.6608    0.0000 C   0  0  0  0  0  0  0  0  0  0  0  0
   -3.7796   -2.8692    0.0000 C   0  0  0  0  0  0  0  0  0  0  0  0
   -4.7028   -1.6869    0.0000 C   0  0  0  0  0  0  0  0  0  0  0  0
   -6.1882   -1.8953    0.0000 O   0  0  0  0  0  0  0  0  0  0  0  0
   -4.1405   -0.2963    0.0000 O   0  0  0  0  0  0  0  0  0  0  0  0
   -5.0636    0.8860    0.0000 C   0  0  0  0  0  0  0  0  0  0  0  0
   -6.5491    0.6776    0.0000 O   0  0  0  0  0  0  0  0  0  0  0  0
   -4.5013    2.2766    0.0000 C   0  0  0  0  0  0  0  0  0  0  0  0
   -5.4245    3.4589    0.0000 C   0  0  0  0  0  0  0  0  0  0  0  0
   -4.8622    4.8495    0.0000 C   0  0  0  0  0  0  0  0  0  0  0  0
   -3.3768    5.0578    0.0000 O   0  0  0  0  0  0  0  0  0  0  0  0
   -5.7854    6.0318    0.0000 O   0  0  0  0  0  0  0  0  0  0  0  0
    0.1145   -3.6348    0.0000 C   0  0  0  0  0  0  0  0  0  0  0  0
    1.1562   -4.7141    0.0000 C   0  0  0  0  0  0  0  0  0  0  0  0
    2.5045   -4.0569    0.0000 C   0  0  0  0  0  0  0  0  0  0  0  0
    2.2962   -2.5714    0.0000 C   0  0  0  0  0  0  0  0  0  0  0  0
    3.2607   -1.4226    0.0000 C   0  0  0  0  0  0  0  0  0  0  0  0
    4.7378   -1.6835    0.0000 C   0  0  0  0  0  0  0  0  0  0  0  0
    5.7023   -0.5347    0.0000 C   0  0  0  0  0  0  0  0  0  0  0  0
    5.1897    0.8750    0.0000 C   0  0  0  0  0  0  0  0  0  0  0  0
    6.1542    2.0238    0.0000 C   0  0  0  0  0  0  0  0  0  0  0  0
    5.6415    3.4335    0.0000 C   0  0  0  0  0  0  0  0  0  0  0  0
    6.6060    4.5823    0.0000 O   0  0  0  0  0  0  0  0  0  0  0  0
    4.1644    3.6943    0.0000 C   0  0  0  0  0  0  0  0  0  0  0  0
    3.1999    2.5455    0.0000 C   0  0  0  0  0  0  0  0  0  0  0  0
    3.7126    1.1359    0.0000 C   0  0  0  0  0  0  0  0  0  0  0  0
    2.2354    1.3967    0.0000 C   0  0  0  0  0  0  0  0  0  0  0  0
    2.7481   -0.0129    0.0000 C   0  0  0  0  0  0  0  0  0  0  0  0
    1.2709    0.2479    0.0000 C   0  0  0  0  0  0  0  0  0  0  0  0
    0.3064   -0.9009    0.0000 C   0  0  0  0  0  0  0  0  0  0  0  0
   -1.1707   -0.6400    0.0000 O   0  0  0  0  0  0  0  0  0  0  0  0
    0.8191   -2.3105    0.0000 C   0  0  0  0  0  0  0  0  0  0  0  0
   -0.6773   -2.2055    0.0000 C   0  0  0  0  0  0  0  0  0  0  0  0
  2  1  1  6
  2  3  1  0
  3  4  1  0
  4  5  1  0
  5  6  2  0
  5  7  1  0
  7  8  1  0
  8  9  2  0
  8 10  1  0
 10 11  1  0
 11 12  1  0
 12 13  2  0
 12 14  1  0
  2 15  1  0
 15 16  1  6
 16 17  1  0
 18 17  1  6
 18 19  1  0
 19 20  1  1
 20 21  1  0
 22 21  1  1
 22 23  1  0
 23 24  1  0
 24 25  2  0
 24 26  1  0
 26 27  1  0
 27 28  1  0
 28 29  1  6
 28 30  1  0
 30 31  1  6
 31 32  1  0
 32 33  1  1
 32 34  1  0
 34 35  1  6
 34 15  1  0
 34 18  1  0
 30 19  1  0
 28 22  1  0
M  END
>  <MS_ID>  (1752) 
MS1819

>  <SMILES>  (1752) 
C[C@H](CCC(=O)OC(=O)CCC(=O)O)[C@H]1CC[C@H]2[C@@H]3CC[C@@H]4CC(=O)CC[C@]4(C)[C@H]3C[C@H](O)[C@]12C

>  <Structure_dimension>  (1752) 
2D

$$$$
MS1820
     RDKit          2D

 36 40  0  0  0  0  0  0  0  0999 V2000
   -1.4753   -4.0971    0.0000 C   0  0  0  0  0  0  0  0  0  0  0  0
   -0.7153   -2.8039    0.0000 C   0  0  0  0  0  0  0  0  0  0  0  0
   -1.4552   -1.4991    0.0000 C   0  0  0  0  0  0  0  0  0  0  0  0
   -2.9552   -1.4875    0.0000 C   0  0  0  0  0  0  0  0  0  0  0  0
   -3.6951   -0.1827    0.0000 C   0  0  0  0  0  0  0  0  0  0  0  0
   -2.9351    1.1105    0.0000 O   0  0  0  0  0  0  0  0  0  0  0  0
   -5.1951   -0.1712    0.0000 C   0  0  0  0  0  0  0  0  0  0  0  0
   -5.9351    1.1336    0.0000 C   0  0  0  0  0  0  0  0  0  0  0  0
   -7.4350    1.1452    0.0000 C   0  0  0  0  0  0  0  0  0  0  0  0
   -8.1750    2.4500    0.0000 C   0  0  0  0  0  0  0  0  0  0  0  0
   -9.6749    2.4615    0.0000 C   0  0  0  0  0  0  0  0  0  0  0  0
  -10.4349    1.1683    0.0000 C   0  0  0  0  0  0  0  0  0  0  0  0
  -11.9349    1.1799    0.0000 O   0  0  0  0  0  0  0  0  0  0  0  0
   -9.6950   -0.1365    0.0000 C   0  0  0  0  0  0  0  0  0  0  0  0
   -8.1950   -0.1480    0.0000 C   0  0  0  0  0  0  0  0  0  0  0  0
    0.7847   -2.8154    0.0000 C   0  0  0  0  0  0  0  0  0  0  0  0
    1.6570   -4.0357    0.0000 C   0  0  0  0  0  0  0  0  0  0  0  0
    3.0871   -3.5832    0.0000 C   0  0  0  0  0  0  0  0  0  0  0  0
    3.0987   -2.0833    0.0000 C   0  0  0  0  0  0  0  0  0  0  0  0
    4.2211   -1.0882    0.0000 C   0  0  0  0  0  0  0  0  0  0  0  0
    5.6441   -1.5627    0.0000 C   0  0  0  0  0  0  0  0  0  0  0  0
    5.9446   -3.0323    0.0000 O   0  0  0  0  0  0  0  0  0  0  0  0
    6.7665   -0.5677    0.0000 C   0  0  0  0  0  0  0  0  0  0  0  0
    6.4659    0.9019    0.0000 C   0  0  0  0  0  0  0  0  0  0  0  0
    7.5884    1.8970    0.0000 C   0  0  0  0  0  0  0  0  0  0  0  0
    7.2878    3.3666    0.0000 C   0  0  0  0  0  0  0  0  0  0  0  0
    8.4103    4.3616    0.0000 O   0  0  0  0  0  0  0  0  0  0  0  0
    5.8649    3.8411    0.0000 C   0  0  0  0  0  0  0  0  0  0  0  0
    4.7424    2.8460    0.0000 C   0  0  0  0  0  0  0  0  0  0  0  0
    5.0430    1.3764    0.0000 C   0  0  0  0  0  0  0  0  0  0  0  0
    3.6200    1.8510    0.0000 C   0  0  0  0  0  0  0  0  0  0  0  0
    3.9205    0.3814    0.0000 C   0  0  0  0  0  0  0  0  0  0  0  0
    2.4976    0.8559    0.0000 C   0  0  0  0  0  0  0  0  0  0  0  0
    1.3752   -0.1392    0.0000 C   0  0  0  0  0  0  0  0  0  0  0  0
    1.6757   -1.6088    0.0000 C   0  0  0  0  0  0  0  0  0  0  0  0
    0.2109   -1.2856    0.0000 C   0  0  0  0  0  0  0  0  0  0  0  0
  2  1  1  6
  2  3  1  0
  3  4  1  0
  4  5  1  0
  5  6  2  0
  5  7  1  0
  7  8  1  0
  8  9  1  0
  9 10  2  0
 10 11  1  0
 11 12  2  0
 12 13  1  0
 12 14  1  0
 14 15  2  0
  2 16  1  0
 16 17  1  6
 17 18  1  0
 19 18  1  6
 19 20  1  0
 20 21  1  1
 21 22  1  6
 21 23  1  0
 24 23  1  1
 24 25  1  0
 25 26  1  0
 26 27  1  1
 26 28  1  0
 28 29  1  0
 29 30  1  0
 30 31  1  6
 30 32  1  0
 32 33  1  6
 33 34  1  0
 34 35  1  0
 35 36  1  6
 15  9  1  0
 35 16  1  0
 35 19  1  0
 32 20  1  0
 30 24  1  0
M  END
>  <MS_ID>  (1753) 
MS1820

>  <SMILES>  (1753) 
C[C@H](CCC(=O)CCc1ccc(O)cc1)[C@H]1CC[C@H]2[C@@H]3[C@@H](O)C[C@@H]4C[C@H](O)CC[C@]4(C)[C@H]3CC[C@]12C

>  <Structure_dimension>  (1753) 
2D

$$$$
MS1821
     RDKit          2D

 36 39  0  0  0  0  0  0  0  0999 V2000
   -1.0047   -4.5176    0.0000 C   0  0  0  0  0  0  0  0  0  0  0  0
   -0.3860   -3.1511    0.0000 C   0  0  0  0  0  0  0  0  0  0  0  0
   -1.2599   -1.9320    0.0000 C   0  0  0  0  0  0  0  0  0  0  0  0
   -2.7527   -2.0794    0.0000 C   0  0  0  0  0  0  0  0  0  0  0  0
   -3.6267   -0.8603    0.0000 C   0  0  0  0  0  0  0  0  0  0  0  0
   -3.0079    0.5061    0.0000 O   0  0  0  0  0  0  0  0  0  0  0  0
   -5.1194   -1.0076    0.0000 O   0  0  0  0  0  0  0  0  0  0  0  0
   -5.9934    0.2114    0.0000 C   0  0  0  0  0  0  0  0  0  0  0  0
   -7.4861    0.0641    0.0000 C   0  0  0  0  0  0  0  0  0  0  0  0
   -8.1049   -1.3023    0.0000 O   0  0  0  0  0  0  0  0  0  0  0  0
   -8.3601    1.2832    0.0000 N   0  0  0  0  0  0  0  0  0  0  0  0
   -9.8528    1.1359    0.0000 C   0  0  0  0  0  0  0  0  0  0  0  0
  -10.7268    2.3549    0.0000 C   0  0  0  0  0  0  0  0  0  0  0  0
  -10.1080    3.7214    0.0000 O   0  0  0  0  0  0  0  0  0  0  0  0
  -12.2196    2.2076    0.0000 O   0  0  0  0  0  0  0  0  0  0  0  0
    1.1068   -3.0038    0.0000 C   0  0  0  0  0  0  0  0  0  0  0  0
    2.1034   -4.1248    0.0000 C   0  0  0  0  0  0  0  0  0  0  0  0
    3.4775   -3.5234    0.0000 C   0  0  0  0  0  0  0  0  0  0  0  0
    3.3302   -2.0307    0.0000 C   0  0  0  0  0  0  0  0  0  0  0  0
    4.3409   -0.9224    0.0000 C   0  0  0  0  0  0  0  0  0  0  0  0
    5.8062   -1.2435    0.0000 C   0  0  0  0  0  0  0  0  0  0  0  0
    6.2606   -2.6730    0.0000 O   0  0  0  0  0  0  0  0  0  0  0  0
    6.8169   -0.1352    0.0000 C   0  0  0  0  0  0  0  0  0  0  0  0
    6.3624    1.2943    0.0000 C   0  0  0  0  0  0  0  0  0  0  0  0
    7.3732    2.4027    0.0000 C   0  0  0  0  0  0  0  0  0  0  0  0
    6.9187    3.8322    0.0000 C   0  0  0  0  0  0  0  0  0  0  0  0
    7.9294    4.9405    0.0000 O   0  0  0  0  0  0  0  0  0  0  0  0
    5.4535    4.1533    0.0000 C   0  0  0  0  0  0  0  0  0  0  0  0
    4.4427    3.0450    0.0000 C   0  0  0  0  0  0  0  0  0  0  0  0
    4.8972    1.6155    0.0000 C   0  0  0  0  0  0  0  0  0  0  0  0
    3.4320    1.9366    0.0000 C   0  0  0  0  0  0  0  0  0  0  0  0
    3.8865    0.5071    0.0000 C   0  0  0  0  0  0  0  0  0  0  0  0
    2.4212    0.8283    0.0000 C   0  0  0  0  0  0  0  0  0  0  0  0
    1.4105   -0.2800    0.0000 C   0  0  0  0  0  0  0  0  0  0  0  0
    1.8650   -1.7095    0.0000 C   0  0  0  0  0  0  0  0  0  0  0  0
    0.3742   -1.5433    0.0000 C   0  0  0  0  0  0  0  0  0  0  0  0
  2  1  1  6
  2  3  1  0
  3  4  1  0
  4  5  1  0
  5  6  2  0
  5  7  1  0
  7  8  1  0
  8  9  1  0
  9 10  2  0
  9 11  1  0
 11 12  1  0
 12 13  1  0
 13 14  2  0
 13 15  1  0
  2 16  1  0
 16 17  1  6
 17 18  1  0
 19 18  1  6
 19 20  1  0
 20 21  1  1
 21 22  1  1
 21 23  1  0
 24 23  1  1
 24 25  1  0
 25 26  1  0
 26 27  1  1
 26 28  1  0
 28 29  1  0
 29 30  1  0
 30 31  1  6
 30 32  1  0
 32 33  1  6
 33 34  1  0
 34 35  1  0
 35 36  1  6
 35 16  1  0
 35 19  1  0
 32 20  1  0
 30 24  1  0
M  END
>  <MS_ID>  (1754) 
MS1821

>  <SMILES>  (1754) 
C[C@H](CCC(=O)OCC(=O)NCC(=O)O)[C@H]1CC[C@H]2[C@@H]3[C@H](O)C[C@@H]4C[C@H](O)CC[C@]4(C)[C@H]3CC[C@]12C

>  <Structure_dimension>  (1754) 
2D

$$$$
MS1822
     RDKit          2D

 33 36  0  0  0  0  0  0  0  0999 V2000
   -2.9199   -3.9672    0.0000 C   0  0  0  0  0  0  0  0  0  0  0  0
   -2.0969   -2.7132    0.0000 C   0  0  0  0  0  0  0  0  0  0  0  0
   -2.7715   -1.3734    0.0000 C   0  0  0  0  0  0  0  0  0  0  0  0
   -4.2690   -1.2877    0.0000 C   0  0  0  0  0  0  0  0  0  0  0  0
   -4.9436    0.0520    0.0000 C   0  0  0  0  0  0  0  0  0  0  0  0
   -4.1206    1.3061    0.0000 O   0  0  0  0  0  0  0  0  0  0  0  0
   -6.4412    0.1377    0.0000 N   0  0  0  0  0  0  0  0  0  0  0  0
   -7.1157    1.4775    0.0000 C   0  0  0  0  0  0  0  0  0  0  0  0
   -8.4555    0.8029    0.0000 C   0  0  0  0  0  0  0  0  0  0  0  0
   -5.7760    2.1520    0.0000 C   0  0  0  0  0  0  0  0  0  0  0  0
   -7.7903    2.8172    0.0000 C   0  0  0  0  0  0  0  0  0  0  0  0
   -6.9673    4.0713    0.0000 O   0  0  0  0  0  0  0  0  0  0  0  0
   -0.5993   -2.7988    0.0000 C   0  0  0  0  0  0  0  0  0  0  0  0
    0.2116   -4.0608    0.0000 C   0  0  0  0  0  0  0  0  0  0  0  0
    1.6623   -3.6795    0.0000 C   0  0  0  0  0  0  0  0  0  0  0  0
    1.7480   -2.1819    0.0000 C   0  0  0  0  0  0  0  0  0  0  0  0
    2.9182   -1.2435    0.0000 C   0  0  0  0  0  0  0  0  0  0  0  0
    4.3160   -1.7878    0.0000 C   0  0  0  0  0  0  0  0  0  0  0  0
    4.5435   -3.2704    0.0000 O   0  0  0  0  0  0  0  0  0  0  0  0
    5.4862   -0.8494    0.0000 C   0  0  0  0  0  0  0  0  0  0  0  0
    5.2587    0.6332    0.0000 C   0  0  0  0  0  0  0  0  0  0  0  0
    6.4289    1.5716    0.0000 C   0  0  0  0  0  0  0  0  0  0  0  0
    6.2013    3.0543    0.0000 C   0  0  0  0  0  0  0  0  0  0  0  0
    7.3716    3.9926    0.0000 O   0  0  0  0  0  0  0  0  0  0  0  0
    4.8036    3.5985    0.0000 C   0  0  0  0  0  0  0  0  0  0  0  0
    3.6333    2.6601    0.0000 C   0  0  0  0  0  0  0  0  0  0  0  0
    3.8609    1.1775    0.0000 C   0  0  0  0  0  0  0  0  0  0  0  0
    2.4631    1.7217    0.0000 C   0  0  0  0  0  0  0  0  0  0  0  0
    2.6907    0.2391    0.0000 C   0  0  0  0  0  0  0  0  0  0  0  0
    1.2929    0.7834    0.0000 C   0  0  0  0  0  0  0  0  0  0  0  0
    0.1227   -0.1550    0.0000 C   0  0  0  0  0  0  0  0  0  0  0  0
    0.3502   -1.6377    0.0000 C   0  0  0  0  0  0  0  0  0  0  0  0
   -1.0968   -1.2425    0.0000 C   0  0  0  0  0  0  0  0  0  0  0  0
  2  1  1  6
  2  3  1  0
  3  4  1  0
  4  5  1  0
  5  6  2  0
  5  7  1  0
  7  8  1  0
  8  9  1  0
  8 10  1  0
  8 11  1  0
 11 12  1  0
  2 13  1  0
 13 14  1  6
 14 15  1  0
 16 15  1  6
 16 17  1  0
 17 18  1  1
 18 19  1  1
 18 20  1  0
 21 20  1  1
 21 22  1  0
 22 23  1  0
 23 24  1  1
 23 25  1  0
 25 26  1  0
 26 27  1  0
 27 28  1  6
 27 29  1  0
 29 30  1  6
 30 31  1  0
 31 32  1  0
 32 33  1  6
 32 13  1  0
 32 16  1  0
 29 17  1  0
 27 21  1  0
M  END
>  <MS_ID>  (1755) 
MS1822

>  <SMILES>  (1755) 
C[C@H](CCC(=O)NC(C)(C)CO)[C@H]1CC[C@H]2[C@@H]3[C@H](O)C[C@@H]4C[C@H](O)CC[C@]4(C)[C@H]3CC[C@]12C

>  <Structure_dimension>  (1755) 
2D

$$$$
MS1823
     RDKit          2D

 32 36  0  0  0  0  0  0  0  0999 V2000
   -3.4960   -3.2106    0.0000 C   0  0  0  0  0  0  0  0  0  0  0  0
   -2.5154   -2.0755    0.0000 C   0  0  0  0  0  0  0  0  0  0  0  0
   -3.0082   -0.6588    0.0000 C   0  0  0  0  0  0  0  0  0  0  0  0
   -4.4815   -0.3771    0.0000 C   0  0  0  0  0  0  0  0  0  0  0  0
   -4.9742    1.0397    0.0000 C   0  0  0  0  0  0  0  0  0  0  0  0
   -3.9936    2.1748    0.0000 O   0  0  0  0  0  0  0  0  0  0  0  0
   -6.4475    1.3214    0.0000 N   0  0  0  0  0  0  0  0  0  0  0  0
   -7.5414    0.2950    0.0000 C   0  0  0  0  0  0  0  0  0  0  0  0
   -8.8556    1.0181    0.0000 C   0  0  0  0  0  0  0  0  0  0  0  0
   -8.5739    2.4915    0.0000 C   0  0  0  0  0  0  0  0  0  0  0  0
   -7.0856    2.6789    0.0000 N   0  0  0  0  0  0  0  0  0  0  0  0
   -1.0421   -2.3572    0.0000 C   0  0  0  0  0  0  0  0  0  0  0  0
   -0.4040   -3.7147    0.0000 C   0  0  0  0  0  0  0  0  0  0  0  0
    1.0842   -3.5273    0.0000 C   0  0  0  0  0  0  0  0  0  0  0  0
    1.3659   -2.0540    0.0000 C   0  0  0  0  0  0  0  0  0  0  0  0
    2.6493   -1.2775    0.0000 C   0  0  0  0  0  0  0  0  0  0  0  0
    3.9634   -2.0006    0.0000 C   0  0  0  0  0  0  0  0  0  0  0  0
    3.9942   -3.5003    0.0000 O   0  0  0  0  0  0  0  0  0  0  0  0
    5.2468   -1.2241    0.0000 C   0  0  0  0  0  0  0  0  0  0  0  0
    5.2160    0.2756    0.0000 C   0  0  0  0  0  0  0  0  0  0  0  0
    6.4994    1.0521    0.0000 C   0  0  0  0  0  0  0  0  0  0  0  0
    6.4685    2.5518    0.0000 C   0  0  0  0  0  0  0  0  0  0  0  0
    7.7519    3.3283    0.0000 O   0  0  0  0  0  0  0  0  0  0  0  0
    5.1544    3.2749    0.0000 C   0  0  0  0  0  0  0  0  0  0  0  0
    3.8710    2.4984    0.0000 C   0  0  0  0  0  0  0  0  0  0  0  0
    3.9018    0.9987    0.0000 C   0  0  0  0  0  0  0  0  0  0  0  0
    2.5877    1.7219    0.0000 C   0  0  0  0  0  0  0  0  0  0  0  0
    2.6185    0.2222    0.0000 C   0  0  0  0  0  0  0  0  0  0  0  0
    1.3043    0.9454    0.0000 C   0  0  0  0  0  0  0  0  0  0  0  0
    0.0209    0.1689    0.0000 C   0  0  0  0  0  0  0  0  0  0  0  0
    0.0517   -1.3308    0.0000 C   0  0  0  0  0  0  0  0  0  0  0  0
   -1.3308   -0.7490    0.0000 C   0  0  0  0  0  0  0  0  0  0  0  0
  2  1  1  6
  2  3  1  0
  3  4  1  0
  4  5  1  0
  5  6  2  0
  5  7  1  0
  7  8  1  0
  8  9  2  0
  9 10  1  0
 10 11  2  0
  2 12  1  0
 12 13  1  6
 13 14  1  0
 15 14  1  6
 15 16  1  0
 16 17  1  1
 17 18  1  1
 17 19  1  0
 20 19  1  1
 20 21  1  0
 21 22  1  0
 22 23  1  1
 22 24  1  0
 24 25  1  0
 25 26  1  0
 26 27  1  6
 26 28  1  0
 28 29  1  6
 29 30  1  0
 30 31  1  0
 31 32  1  6
 11  7  1  0
 31 12  1  0
 31 15  1  0
 28 16  1  0
 26 20  1  0
M  END
>  <MS_ID>  (1756) 
MS1823

>  <SMILES>  (1756) 
C[C@H](CCC(=O)n1cccn1)[C@H]1CC[C@H]2[C@@H]3[C@H](O)C[C@@H]4C[C@H](O)CC[C@]4(C)[C@H]3CC[C@]12C

>  <Structure_dimension>  (1756) 
2D

$$$$
MS1824
     RDKit          2D

 32 35  0  0  0  0  0  0  0  0999 V2000
   -3.6443   -3.5979    0.0000 C   0  0  0  0  0  0  0  0  0  0  0  0
   -2.7666   -2.3815    0.0000 C   0  0  0  0  0  0  0  0  0  0  0  0
   -3.3812   -1.0132    0.0000 C   0  0  0  0  0  0  0  0  0  0  0  0
   -4.8735   -0.8613    0.0000 C   0  0  0  0  0  0  0  0  0  0  0  0
   -5.4882    0.5070    0.0000 C   0  0  0  0  0  0  0  0  0  0  0  0
   -4.6105    1.7234    0.0000 O   0  0  0  0  0  0  0  0  0  0  0  0
   -6.9805    0.6588    0.0000 O   0  0  0  0  0  0  0  0  0  0  0  0
   -7.5951    2.0271    0.0000 C   0  0  0  0  0  0  0  0  0  0  0  0
   -9.0874    2.1790    0.0000 C   0  0  0  0  0  0  0  0  0  0  0  0
   -9.7020    3.5473    0.0000 N   0  0  0  0  0  0  0  0  0  0  0  0
   -1.2743   -2.5333    0.0000 C   0  0  0  0  0  0  0  0  0  0  0  0
   -0.5200   -3.8299    0.0000 C   0  0  0  0  0  0  0  0  0  0  0  0
    0.9462   -3.5132    0.0000 C   0  0  0  0  0  0  0  0  0  0  0  0
    1.0980   -2.0209    0.0000 C   0  0  0  0  0  0  0  0  0  0  0  0
    2.3086   -1.1352    0.0000 C   0  0  0  0  0  0  0  0  0  0  0  0
    3.6809   -1.7408    0.0000 C   0  0  0  0  0  0  0  0  0  0  0  0
    3.8427   -3.2320    0.0000 O   0  0  0  0  0  0  0  0  0  0  0  0
    4.8916   -0.8551    0.0000 C   0  0  0  0  0  0  0  0  0  0  0  0
    6.2639   -1.4607    0.0000 O   0  0  0  0  0  0  0  0  0  0  0  0
    4.7298    0.6362    0.0000 C   0  0  0  0  0  0  0  0  0  0  0  0
    5.9404    1.5218    0.0000 C   0  0  0  0  0  0  0  0  0  0  0  0
    5.7787    3.0131    0.0000 C   0  0  0  0  0  0  0  0  0  0  0  0
    6.9893    3.8988    0.0000 O   0  0  0  0  0  0  0  0  0  0  0  0
    4.4064    3.6187    0.0000 C   0  0  0  0  0  0  0  0  0  0  0  0
    3.1958    2.7330    0.0000 C   0  0  0  0  0  0  0  0  0  0  0  0
    3.3575    1.2417    0.0000 C   0  0  0  0  0  0  0  0  0  0  0  0
    1.9852    1.8473    0.0000 C   0  0  0  0  0  0  0  0  0  0  0  0
    2.1469    0.3561    0.0000 C   0  0  0  0  0  0  0  0  0  0  0  0
    0.7746    0.9616    0.0000 C   0  0  0  0  0  0  0  0  0  0  0  0
   -0.4360    0.0759    0.0000 C   0  0  0  0  0  0  0  0  0  0  0  0
   -0.2743   -1.4153    0.0000 C   0  0  0  0  0  0  0  0  0  0  0  0
   -1.7024   -0.9565    0.0000 C   0  0  0  0  0  0  0  0  0  0  0  0
  2  1  1  6
  2  3  1  0
  3  4  1  0
  4  5  1  0
  5  6  2  0
  5  7  1  0
  7  8  1  0
  8  9  1  0
  9 10  1  0
  2 11  1  0
 11 12  1  6
 12 13  1  0
 14 13  1  6
 14 15  1  0
 15 16  1  1
 16 17  1  1
 16 18  1  0
 18 19  1  1
 18 20  1  0
 20 21  1  1
 21 22  1  0
 22 23  1  1
 22 24  1  0
 24 25  1  0
 25 26  1  0
 26 27  1  6
 26 28  1  0
 28 29  1  6
 29 30  1  0
 30 31  1  0
 31 32  1  6
 31 11  1  0
 31 14  1  0
 28 15  1  0
 26 20  1  0
M  END
>  <MS_ID>  (1757) 
MS1824

>  <SMILES>  (1757) 
C[C@H](CCC(=O)OCCN)[C@H]1CC[C@H]2[C@@H]3[C@H](O)[C@H](O)[C@@H]4C[C@H](O)CC[C@]4(C)[C@H]3CC[C@]12C

>  <Structure_dimension>  (1757) 
2D

$$$$
MS1825
     RDKit          2D

 34 37  0  0  0  0  0  0  0  0999 V2000
   -2.0615   -5.2483    0.0000 C   0  0  0  0  0  0  0  0  0  0  0  0
   -1.5676   -3.8320    0.0000 C   0  0  0  0  0  0  0  0  0  0  0  0
   -2.5473   -2.6961    0.0000 C   0  0  0  0  0  0  0  0  0  0  0  0
   -4.0208   -2.9766    0.0000 C   0  0  0  0  0  0  0  0  0  0  0  0
   -5.0005   -1.8407    0.0000 C   0  0  0  0  0  0  0  0  0  0  0  0
   -6.4740   -2.1212    0.0000 O   0  0  0  0  0  0  0  0  0  0  0  0
   -4.5066   -0.4243    0.0000 S   0  0  0  0  0  0  0  0  0  0  0  0
   -5.4863    0.7116    0.0000 C   0  0  0  0  0  0  0  0  0  0  0  0
   -4.9924    2.1279    0.0000 C   0  0  0  0  0  0  0  0  0  0  0  0
   -5.9721    3.2638    0.0000 C   0  0  0  0  0  0  0  0  0  0  0  0
   -5.4782    4.6802    0.0000 C   0  0  0  0  0  0  0  0  0  0  0  0
   -4.0047    4.9607    0.0000 O   0  0  0  0  0  0  0  0  0  0  0  0
   -6.4579    5.8161    0.0000 O   0  0  0  0  0  0  0  0  0  0  0  0
   -0.0941   -3.5515    0.0000 C   0  0  0  0  0  0  0  0  0  0  0  0
    0.9990   -4.5787    0.0000 C   0  0  0  0  0  0  0  0  0  0  0  0
    2.3137   -3.8566    0.0000 C   0  0  0  0  0  0  0  0  0  0  0  0
    2.0332   -2.3831    0.0000 C   0  0  0  0  0  0  0  0  0  0  0  0
    2.9406   -1.1887    0.0000 C   0  0  0  0  0  0  0  0  0  0  0  0
    4.4287   -1.3773    0.0000 C   0  0  0  0  0  0  0  0  0  0  0  0
    5.0094   -2.7603    0.0000 O   0  0  0  0  0  0  0  0  0  0  0  0
    5.3361   -0.1828    0.0000 C   0  0  0  0  0  0  0  0  0  0  0  0
    4.7554    1.2002    0.0000 C   0  0  0  0  0  0  0  0  0  0  0  0
    5.6628    2.3946    0.0000 C   0  0  0  0  0  0  0  0  0  0  0  0
    5.0820    3.7777    0.0000 C   0  0  0  0  0  0  0  0  0  0  0  0
    5.9894    4.9721    0.0000 O   0  0  0  0  0  0  0  0  0  0  0  0
    3.5939    3.9663    0.0000 C   0  0  0  0  0  0  0  0  0  0  0  0
    2.6866    2.7718    0.0000 C   0  0  0  0  0  0  0  0  0  0  0  0
    3.2673    1.3888    0.0000 C   0  0  0  0  0  0  0  0  0  0  0  0
    1.7792    1.5774    0.0000 C   0  0  0  0  0  0  0  0  0  0  0  0
    2.3599    0.1944    0.0000 C   0  0  0  0  0  0  0  0  0  0  0  0
    0.8718    0.3830    0.0000 C   0  0  0  0  0  0  0  0  0  0  0  0
   -0.0356   -0.8115    0.0000 C   0  0  0  0  0  0  0  0  0  0  0  0
    0.5452   -2.1945    0.0000 C   0  0  0  0  0  0  0  0  0  0  0  0
   -0.9545   -2.1625    0.0000 C   0  0  0  0  0  0  0  0  0  0  0  0
  2  1  1  6
  2  3  1  0
  3  4  1  0
  4  5  1  0
  5  6  2  0
  5  7  1  0
  7  8  1  0
  8  9  1  0
  9 10  1  0
 10 11  1  0
 11 12  2  0
 11 13  1  0
  2 14  1  0
 14 15  1  6
 15 16  1  0
 17 16  1  6
 17 18  1  0
 18 19  1  1
 19 20  1  6
 19 21  1  0
 22 21  1  1
 22 23  1  0
 23 24  1  0
 24 25  1  1
 24 26  1  0
 26 27  1  0
 27 28  1  0
 28 29  1  6
 28 30  1  0
 30 31  1  6
 31 32  1  0
 32 33  1  0
 33 34  1  6
 33 14  1  0
 33 17  1  0
 30 18  1  0
 28 22  1  0
M  END
>  <MS_ID>  (1758) 
MS1825

>  <SMILES>  (1758) 
C[C@H](CCC(=O)SCCCC(=O)O)[C@H]1CC[C@H]2[C@@H]3[C@@H](O)C[C@@H]4C[C@H](O)CC[C@]4(C)[C@H]3CC[C@]12C

>  <Structure_dimension>  (1758) 
2D

$$$$
MS1826
     RDKit          2D

 34 37  0  0  0  0  0  0  0  0999 V2000
   -4.1628   -3.3031    0.0000 C   0  0  0  0  0  0  0  0  0  0  0  0
   -3.1416   -2.2044    0.0000 C   0  0  0  0  0  0  0  0  0  0  0  0
   -3.5825   -0.7706    0.0000 C   0  0  0  0  0  0  0  0  0  0  0  0
   -5.0447   -0.4356    0.0000 C   0  0  0  0  0  0  0  0  0  0  0  0
   -5.4856    0.9981    0.0000 C   0  0  0  0  0  0  0  0  0  0  0  0
   -4.4644    2.0968    0.0000 O   0  0  0  0  0  0  0  0  0  0  0  0
   -6.9477    1.3331    0.0000 N   0  0  0  0  0  0  0  0  0  0  0  0
   -7.3886    2.7669    0.0000 N   0  0  0  0  0  0  0  0  0  0  0  0
   -1.6795   -2.5394    0.0000 C   0  0  0  0  0  0  0  0  0  0  0  0
   -1.0912   -3.9192    0.0000 C   0  0  0  0  0  0  0  0  0  0  0  0
    0.4029   -3.7860    0.0000 C   0  0  0  0  0  0  0  0  0  0  0  0
    0.7379   -2.3239    0.0000 C   0  0  0  0  0  0  0  0  0  0  0  0
    2.0487   -1.5945    0.0000 C   0  0  0  0  0  0  0  0  0  0  0  0
    3.3357   -2.3650    0.0000 C   0  0  0  0  0  0  0  0  0  0  0  0
    3.3120   -3.8648    0.0000 O   0  0  0  0  0  0  0  0  0  0  0  0
    4.6464   -1.6356    0.0000 C   0  0  0  0  0  0  0  0  0  0  0  0
    4.6701   -0.1358    0.0000 C   0  0  0  0  0  0  0  0  0  0  0  0
    5.9809    0.5936    0.0000 C   0  0  0  0  0  0  0  0  0  0  0  0
    6.0046    2.0934    0.0000 C   0  0  0  0  0  0  0  0  0  0  0  0
    7.3153    2.8228    0.0000 O   0  0  0  0  0  0  0  0  0  0  0  0
    4.7176    2.8638    0.0000 C   0  0  0  0  0  0  0  0  0  0  0  0
    3.4068    2.1345    0.0000 C   0  0  0  0  0  0  0  0  0  0  0  0
    3.3831    0.6347    0.0000 C   0  0  0  0  0  0  0  0  0  0  0  0
    2.0961    1.4051    0.0000 C   0  0  0  0  0  0  0  0  0  0  0  0
    2.0724   -0.0947    0.0000 C   0  0  0  0  0  0  0  0  0  0  0  0
    0.7854    0.6757    0.0000 C   0  0  0  0  0  0  0  0  0  0  0  0
   -0.5254   -0.0536    0.0000 C   0  0  0  0  0  0  0  0  0  0  0  0
   -1.8124    0.7168    0.0000 O   0  0  0  0  0  0  0  0  0  0  0  0
   -1.7887    2.2166    0.0000 S   0  0  0  0  0  0  0  0  0  0  0  0
   -0.2889    2.1929    0.0000 O   0  0  0  0  0  0  0  0  0  0  0  0
   -3.2885    2.2403    0.0000 O   0  0  0  0  0  0  0  0  0  0  0  0
   -1.7650    3.7164    0.0000 O   0  0  0  0  0  0  0  0  0  0  0  0
   -0.5491   -1.5535    0.0000 C   0  0  0  0  0  0  0  0  0  0  0  0
   -1.9096   -0.9218    0.0000 C   0  0  0  0  0  0  0  0  0  0  0  0
  2  1  1  6
  2  3  1  0
  3  4  1  0
  4  5  1  0
  5  6  2  0
  5  7  1  0
  7  8  1  0
  2  9  1  0
  9 10  1  6
 10 11  1  0
 12 11  1  6
 12 13  1  0
 13 14  1  1
 14 15  1  1
 14 16  1  0
 17 16  1  1
 17 18  1  0
 18 19  1  0
 19 20  1  1
 19 21  1  0
 21 22  1  0
 22 23  1  0
 23 24  1  6
 23 25  1  0
 25 26  1  6
 26 27  1  0
 27 28  1  1
 28 29  1  0
 29 30  2  0
 29 31  2  0
 29 32  1  0
 27 33  1  0
 33 34  1  6
 33  9  1  0
 33 12  1  0
 25 13  1  0
 23 17  1  0
M  END
>  <MS_ID>  (1759) 
MS1826

>  <SMILES>  (1759) 
C[C@H](CCC(=O)NN)[C@H]1CC[C@H]2[C@@H]3[C@H](O)C[C@@H]4C[C@H](O)CC[C@]4(C)[C@H]3C[C@H](OS(=O)(=O)O)[C@]12C

>  <Structure_dimension>  (1759) 
2D

$$$$
MS1827
     RDKit          2D

 36 40  0  0  0  0  0  0  0  0999 V2000
   -3.9774   -4.0339    0.0000 C   0  0  0  0  0  0  0  0  0  0  0  0
   -3.6337   -2.5738    0.0000 C   0  0  0  0  0  0  0  0  0  0  0  0
   -4.7264   -1.5462    0.0000 C   0  0  0  0  0  0  0  0  0  0  0  0
   -6.1627   -1.9786    0.0000 C   0  0  0  0  0  0  0  0  0  0  0  0
   -7.2553   -0.9509    0.0000 C   0  0  0  0  0  0  0  0  0  0  0  0
   -6.9117    0.5092    0.0000 O   0  0  0  0  0  0  0  0  0  0  0  0
   -8.6917   -1.3833    0.0000 O   0  0  0  0  0  0  0  0  0  0  0  0
   -2.1974   -2.1414    0.0000 C   0  0  0  0  0  0  0  0  0  0  0  0
   -1.0033   -3.0492    0.0000 C   0  0  0  0  0  0  0  0  0  0  0  0
    0.2291   -2.1941    0.0000 C   0  0  0  0  0  0  0  0  0  0  0  0
   -0.2034   -0.7578    0.0000 C   0  0  0  0  0  0  0  0  0  0  0  0
    0.5747    0.5246    0.0000 C   0  0  0  0  0  0  0  0  0  0  0  0
    2.0743    0.4921    0.0000 C   0  0  0  0  0  0  0  0  0  0  0  0
    2.7959   -0.8230    0.0000 O   0  0  0  0  0  0  0  0  0  0  0  0
    4.2956   -0.8555    0.0000 C   0  0  0  0  0  0  0  0  0  0  0  0
    5.0172   -2.1706    0.0000 C   0  0  0  0  0  0  0  0  0  0  0  0
    4.2391   -3.4530    0.0000 C   0  0  0  0  0  0  0  0  0  0  0  0
    4.9608   -4.7680    0.0000 C   0  0  0  0  0  0  0  0  0  0  0  0
    6.4604   -4.8006    0.0000 C   0  0  0  0  0  0  0  0  0  0  0  0
    7.2384   -3.5182    0.0000 C   0  0  0  0  0  0  0  0  0  0  0  0
    6.5168   -2.2031    0.0000 C   0  0  0  0  0  0  0  0  0  0  0  0
    2.8524    1.7745    0.0000 C   0  0  0  0  0  0  0  0  0  0  0  0
    2.1308    3.0895    0.0000 C   0  0  0  0  0  0  0  0  0  0  0  0
    2.9088    4.3720    0.0000 C   0  0  0  0  0  0  0  0  0  0  0  0
    2.1872    5.6870    0.0000 C   0  0  0  0  0  0  0  0  0  0  0  0
    2.9652    6.9694    0.0000 O   0  0  0  0  0  0  0  0  0  0  0  0
    0.6875    5.7196    0.0000 C   0  0  0  0  0  0  0  0  0  0  0  0
   -0.0905    4.4371    0.0000 C   0  0  0  0  0  0  0  0  0  0  0  0
    0.6311    3.1221    0.0000 C   0  0  0  0  0  0  0  0  0  0  0  0
   -0.8685    3.1547    0.0000 C   0  0  0  0  0  0  0  0  0  0  0  0
   -0.1469    1.8397    0.0000 C   0  0  0  0  0  0  0  0  0  0  0  0
   -1.6466    1.8722    0.0000 C   0  0  0  0  0  0  0  0  0  0  0  0
   -2.4246    0.5898    0.0000 C   0  0  0  0  0  0  0  0  0  0  0  0
   -3.9243    0.6224    0.0000 O   0  0  0  0  0  0  0  0  0  0  0  0
   -1.7030   -0.7252    0.0000 C   0  0  0  0  0  0  0  0  0  0  0  0
   -3.1978   -0.8496    0.0000 C   0  0  0  0  0  0  0  0  0  0  0  0
  2  1  1  6
  2  3  1  0
  3  4  1  0
  4  5  1  0
  5  6  2  0
  5  7  1  0
  2  8  1  0
  8  9  1  6
  9 10  1  0
 11 10  1  6
 11 12  1  0
 12 13  1  1
 13 14  1  1
 14 15  1  0
 15 16  1  0
 16 17  2  0
 17 18  1  0
 18 19  2  0
 19 20  1  0
 20 21  2  0
 13 22  1  0
 23 22  1  1
 23 24  1  0
 24 25  1  0
 25 26  1  1
 25 27  1  0
 27 28  1  0
 28 29  1  0
 29 30  1  6
 29 31  1  0
 31 32  1  6
 32 33  1  0
 33 34  1  1
 33 35  1  0
 35 36  1  6
 35  8  1  0
 35 11  1  0
 31 12  1  0
 21 16  1  0
 29 23  1  0
M  END
>  <MS_ID>  (1760) 
MS1827

>  <SMILES>  (1760) 
C[C@H](CCC(=O)O)[C@H]1CC[C@H]2[C@@H]3[C@H](OCc4ccccc4)C[C@@H]4C[C@H](O)CC[C@]4(C)[C@H]3C[C@H](O)[C@]12C

>  <Structure_dimension>  (1760) 
2D

$$$$
MS1828
     RDKit          2D

 34 38  0  0  0  0  0  0  0  0999 V2000
   -2.8489   -4.1271    0.0000 C   0  0  0  0  0  0  0  0  0  0  0  0
   -2.0902   -2.8331    0.0000 C   0  0  0  0  0  0  0  0  0  0  0  0
   -2.8315   -1.5291    0.0000 C   0  0  0  0  0  0  0  0  0  0  0  0
   -4.3315   -1.5191    0.0000 C   0  0  0  0  0  0  0  0  0  0  0  0
   -5.0728   -0.2151    0.0000 C   0  0  0  0  0  0  0  0  0  0  0  0
   -4.3141    1.0789    0.0000 O   0  0  0  0  0  0  0  0  0  0  0  0
   -6.5727   -0.2050    0.0000 C   0  0  0  0  0  0  0  0  0  0  0  0
   -7.3140    1.0990    0.0000 C   0  0  0  0  0  0  0  0  0  0  0  0
   -8.8047    1.2657    0.0000 C   0  0  0  0  0  0  0  0  0  0  0  0
   -9.1068    2.7350    0.0000 C   0  0  0  0  0  0  0  0  0  0  0  0
   -7.8028    3.4763    0.0000 O   0  0  0  0  0  0  0  0  0  0  0  0
   -6.6948    2.4652    0.0000 C   0  0  0  0  0  0  0  0  0  0  0  0
   -0.5902   -2.8432    0.0000 C   0  0  0  0  0  0  0  0  0  0  0  0
    0.2833   -4.0625    0.0000 C   0  0  0  0  0  0  0  0  0  0  0  0
    1.7130   -3.6086    0.0000 C   0  0  0  0  0  0  0  0  0  0  0  0
    1.7230   -2.1086    0.0000 C   0  0  0  0  0  0  0  0  0  0  0  0
    2.8444   -1.1124    0.0000 C   0  0  0  0  0  0  0  0  0  0  0  0
    4.2678   -1.5854    0.0000 C   0  0  0  0  0  0  0  0  0  0  0  0
    4.5699   -3.0547    0.0000 O   0  0  0  0  0  0  0  0  0  0  0  0
    5.3892   -0.5892    0.0000 C   0  0  0  0  0  0  0  0  0  0  0  0
    6.8127   -1.0622    0.0000 O   0  0  0  0  0  0  0  0  0  0  0  0
    5.0872    0.8801    0.0000 C   0  0  0  0  0  0  0  0  0  0  0  0
    6.2086    1.8763    0.0000 C   0  0  0  0  0  0  0  0  0  0  0  0
    5.9065    3.3456    0.0000 C   0  0  0  0  0  0  0  0  0  0  0  0
    7.0279    4.3418    0.0000 O   0  0  0  0  0  0  0  0  0  0  0  0
    4.4831    3.8186    0.0000 C   0  0  0  0  0  0  0  0  0  0  0  0
    3.3617    2.8224    0.0000 C   0  0  0  0  0  0  0  0  0  0  0  0
    3.6637    1.3531    0.0000 C   0  0  0  0  0  0  0  0  0  0  0  0
    2.2403    1.8262    0.0000 C   0  0  0  0  0  0  0  0  0  0  0  0
    2.5423    0.3569    0.0000 C   0  0  0  0  0  0  0  0  0  0  0  0
    1.1189    0.8299    0.0000 C   0  0  0  0  0  0  0  0  0  0  0  0
   -0.0025   -0.1663    0.0000 C   0  0  0  0  0  0  0  0  0  0  0  0
    0.2995   -1.6355    0.0000 C   0  0  0  0  0  0  0  0  0  0  0  0
   -1.1656   -1.3139    0.0000 C   0  0  0  0  0  0  0  0  0  0  0  0
  2  1  1  6
  2  3  1  0
  3  4  1  0
  4  5  1  0
  5  6  2  0
  5  7  1  0
  7  8  1  0
  8  9  1  0
  9 10  2  0
 10 11  1  0
 11 12  1  0
  2 13  1  0
 13 14  1  6
 14 15  1  0
 16 15  1  6
 16 17  1  0
 17 18  1  1
 18 19  1  1
 18 20  1  0
 20 21  1  1
 20 22  1  0
 22 23  1  1
 23 24  1  0
 24 25  1  1
 24 26  1  0
 26 27  1  0
 27 28  1  0
 28 29  1  6
 28 30  1  0
 30 31  1  6
 31 32  1  0
 32 33  1  0
 33 34  1  6
 12  8  2  0
 33 13  1  0
 33 16  1  0
 30 17  1  0
 28 22  1  0
M  END
>  <MS_ID>  (1761) 
MS1828

>  <SMILES>  (1761) 
C[C@H](CCC(=O)Cc1ccoc1)[C@H]1CC[C@H]2[C@@H]3[C@H](O)[C@H](O)[C@@H]4C[C@H](O)CC[C@]4(C)[C@H]3CC[C@]12C

>  <Structure_dimension>  (1761) 
2D

$$$$
MS1829
     RDKit          2D

 26 29  0  0  0  0  0  0  0  0999 V2000
   -5.3583   -1.6509    0.0000 C   0  0  0  0  0  0  0  0  0  0  0  0
   -4.1119   -0.8164    0.0000 C   0  0  0  0  0  0  0  0  0  0  0  0
   -4.2114    0.6803    0.0000 C   0  0  0  0  0  0  0  0  0  0  0  0
   -5.5574    1.3424    0.0000 C   0  0  0  0  0  0  0  0  0  0  0  0
   -5.6569    2.8391    0.0000 C   0  0  0  0  0  0  0  0  0  0  0  0
   -7.0028    3.5013    0.0000 O   0  0  0  0  0  0  0  0  0  0  0  0
   -2.7659   -1.4785    0.0000 C   0  0  0  0  0  0  0  0  0  0  0  0
   -2.5105   -2.9566    0.0000 C   0  0  0  0  0  0  0  0  0  0  0  0
   -1.0258   -3.1704    0.0000 C   0  0  0  0  0  0  0  0  0  0  0  0
   -0.3637   -1.8245    0.0000 C   0  0  0  0  0  0  0  0  0  0  0  0
    1.0796   -1.4159    0.0000 C   0  0  0  0  0  0  0  0  0  0  0  0
    2.1551   -2.4616    0.0000 C   0  0  0  0  0  0  0  0  0  0  0  0
    3.5984   -2.0530    0.0000 C   0  0  0  0  0  0  0  0  0  0  0  0
    3.9662   -0.5988    0.0000 C   0  0  0  0  0  0  0  0  0  0  0  0
    5.4095   -0.1903    0.0000 C   0  0  0  0  0  0  0  0  0  0  0  0
    5.7773    1.2639    0.0000 C   0  0  0  0  0  0  0  0  0  0  0  0
    7.2206    1.6725    0.0000 O   0  0  0  0  0  0  0  0  0  0  0  0
    4.7019    2.3096    0.0000 C   0  0  0  0  0  0  0  0  0  0  0  0
    3.2586    1.9010    0.0000 C   0  0  0  0  0  0  0  0  0  0  0  0
    2.8908    0.4468    0.0000 C   0  0  0  0  0  0  0  0  0  0  0  0
    1.8153    1.4925    0.0000 C   0  0  0  0  0  0  0  0  0  0  0  0
    1.4475    0.0383    0.0000 C   0  0  0  0  0  0  0  0  0  0  0  0
    0.3720    1.0839    0.0000 C   0  0  0  0  0  0  0  0  0  0  0  0
   -1.0713    0.6754    0.0000 C   0  0  0  0  0  0  0  0  0  0  0  0
   -1.4391   -0.7788    0.0000 C   0  0  0  0  0  0  0  0  0  0  0  0
   -2.6180    0.1487    0.0000 C   0  0  0  0  0  0  0  0  0  0  0  0
  2  1  1  6
  2  3  1  0
  3  4  1  0
  4  5  1  0
  5  6  2  0
  2  7  1  0
  7  8  1  6
  8  9  1  0
 10  9  1  6
 10 11  1  0
 11 12  1  1
 12 13  1  0
 14 13  1  1
 14 15  1  0
 15 16  1  0
 16 17  2  0
 16 18  1  0
 18 19  1  0
 19 20  1  0
 20 21  1  6
 20 22  1  0
 22 23  1  6
 23 24  1  0
 24 25  1  0
 25 26  1  6
 25  7  1  0
 25 10  1  0
 22 11  1  0
 20 14  1  0
M  END
>  <MS_ID>  (1762) 
MS1829

>  <SMILES>  (1762) 
C[C@H](CCC=O)[C@H]1CC[C@H]2[C@@H]3CC[C@@H]4CC(=O)CC[C@]4(C)[C@H]3CC[C@]12C

>  <Structure_dimension>  (1762) 
2D

$$$$
MS1830
     RDKit          2D

 37 41  0  0  0  0  0  0  0  0999 V2000
   -1.0687   -4.5652    0.0000 C   0  0  0  0  0  0  0  0  0  0  0  0
   -0.4356   -3.2053    0.0000 C   0  0  0  0  0  0  0  0  0  0  0  0
   -1.2968   -1.9772    0.0000 C   0  0  0  0  0  0  0  0  0  0  0  0
   -2.7910   -2.1089    0.0000 C   0  0  0  0  0  0  0  0  0  0  0  0
   -3.6522   -0.8807    0.0000 C   0  0  0  0  0  0  0  0  0  0  0  0
   -3.0192    0.4792    0.0000 O   0  0  0  0  0  0  0  0  0  0  0  0
   -5.1464   -1.0124    0.0000 N   0  0  0  0  0  0  0  0  0  0  0  0
   -6.0076    0.2157    0.0000 C   0  0  0  0  0  0  0  0  0  0  0  0
   -5.3745    1.5756    0.0000 C   0  0  0  0  0  0  0  0  0  0  0  0
   -6.2357    2.8038    0.0000 C   0  0  0  0  0  0  0  0  0  0  0  0
   -7.7299    2.6721    0.0000 C   0  0  0  0  0  0  0  0  0  0  0  0
   -8.3629    1.3122    0.0000 C   0  0  0  0  0  0  0  0  0  0  0  0
   -9.8572    1.1805    0.0000 N   0  0  0  0  0  0  0  0  0  0  0  0
  -10.4902   -0.1794    0.0000 O   0  0  0  0  0  0  0  0  0  0  0  0
  -10.7183    2.4086    0.0000 O   0  0  0  0  0  0  0  0  0  0  0  0
   -7.5018    0.0840    0.0000 C   0  0  0  0  0  0  0  0  0  0  0  0
    1.0586   -3.0736    0.0000 C   0  0  0  0  0  0  0  0  0  0  0  0
    2.0434   -4.2050    0.0000 C   0  0  0  0  0  0  0  0  0  0  0  0
    3.4238   -3.6180    0.0000 C   0  0  0  0  0  0  0  0  0  0  0  0
    3.2921   -2.1238    0.0000 C   0  0  0  0  0  0  0  0  0  0  0  0
    4.3143   -1.0261    0.0000 C   0  0  0  0  0  0  0  0  0  0  0  0
    5.7761   -1.3626    0.0000 C   0  0  0  0  0  0  0  0  0  0  0  0
    6.2156   -2.7968    0.0000 O   0  0  0  0  0  0  0  0  0  0  0  0
    6.7984   -0.2649    0.0000 C   0  0  0  0  0  0  0  0  0  0  0  0
    6.3589    1.1693    0.0000 C   0  0  0  0  0  0  0  0  0  0  0  0
    7.3812    2.2670    0.0000 C   0  0  0  0  0  0  0  0  0  0  0  0
    6.9417    3.7012    0.0000 C   0  0  0  0  0  0  0  0  0  0  0  0
    7.9639    4.7989    0.0000 O   0  0  0  0  0  0  0  0  0  0  0  0
    5.4799    4.0376    0.0000 C   0  0  0  0  0  0  0  0  0  0  0  0
    4.4576    2.9399    0.0000 C   0  0  0  0  0  0  0  0  0  0  0  0
    4.8971    1.5058    0.0000 C   0  0  0  0  0  0  0  0  0  0  0  0
    3.4353    1.8422    0.0000 C   0  0  0  0  0  0  0  0  0  0  0  0
    3.8748    0.4081    0.0000 C   0  0  0  0  0  0  0  0  0  0  0  0
    2.4131    0.7445    0.0000 C   0  0  0  0  0  0  0  0  0  0  0  0
    1.3908   -0.3532    0.0000 C   0  0  0  0  0  0  0  0  0  0  0  0
    1.8303   -1.7874    0.0000 C   0  0  0  0  0  0  0  0  0  0  0  0
    0.3413   -1.6055    0.0000 C   0  0  0  0  0  0  0  0  0  0  0  0
  2  1  1  6
  2  3  1  0
  3  4  1  0
  4  5  1  0
  5  6  2  0
  5  7  1  0
  7  8  1  0
  8  9  2  0
  9 10  1  0
 10 11  2  0
 11 12  1  0
 12 13  1  0
 13 14  2  0
 13 15  1  0
 12 16  2  0
  2 17  1  0
 17 18  1  6
 18 19  1  0
 20 19  1  6
 20 21  1  0
 21 22  1  1
 22 23  1  1
 22 24  1  0
 25 24  1  1
 25 26  1  0
 26 27  1  0
 27 28  1  1
 27 29  1  0
 29 30  1  0
 30 31  1  0
 31 32  1  6
 31 33  1  0
 33 34  1  6
 34 35  1  0
 35 36  1  0
 36 37  1  6
 16  8  1  0
 36 17  1  0
 36 20  1  0
 33 21  1  0
 31 25  1  0
M  CHG  2  13   1  15  -1
M  END
>  <MS_ID>  (1763) 
MS1830

>  <SMILES>  (1763) 
C[C@H](CCC(=O)Nc1cccc([N+](=O)[O-])c1)[C@H]1CC[C@H]2[C@@H]3[C@H](O)C[C@@H]4C[C@H](O)CC[C@]4(C)[C@H]3CC[C@]12C

>  <Structure_dimension>  (1763) 
2D

$$$$
MS1831
     RDKit          2D

 32 35  0  0  0  0  0  0  0  0999 V2000
  -10.5534    3.1554    0.0000 C   0  0  0  0  0  0  0  0  0  0  0  0
   -9.0579    3.0406    0.0000 C   0  0  0  0  0  0  0  0  0  0  0  0
   -8.4096    1.6879    0.0000 C   0  0  0  0  0  0  0  0  0  0  0  0
   -6.9140    1.5730    0.0000 C   0  0  0  0  0  0  0  0  0  0  0  0
   -6.2657    0.2203    0.0000 O   0  0  0  0  0  0  0  0  0  0  0  0
   -4.7701    0.1054    0.0000 C   0  0  0  0  0  0  0  0  0  0  0  0
   -3.9228    1.3432    0.0000 O   0  0  0  0  0  0  0  0  0  0  0  0
   -4.1218   -1.2472    0.0000 C   0  0  0  0  0  0  0  0  0  0  0  0
   -2.6262   -1.3621    0.0000 C   0  0  0  0  0  0  0  0  0  0  0  0
   -1.9779   -2.7148    0.0000 C   0  0  0  0  0  0  0  0  0  0  0  0
   -2.8252   -3.9526    0.0000 C   0  0  0  0  0  0  0  0  0  0  0  0
   -0.4823   -2.8297    0.0000 C   0  0  0  0  0  0  0  0  0  0  0  0
    0.3038   -4.1072    0.0000 C   0  0  0  0  0  0  0  0  0  0  0  0
    1.7617   -3.7543    0.0000 C   0  0  0  0  0  0  0  0  0  0  0  0
    1.8766   -2.2587    0.0000 C   0  0  0  0  0  0  0  0  0  0  0  0
    3.0650   -1.3433    0.0000 C   0  0  0  0  0  0  0  0  0  0  0  0
    4.4518   -1.9148    0.0000 C   0  0  0  0  0  0  0  0  0  0  0  0
    5.6402   -0.9994    0.0000 C   0  0  0  0  0  0  0  0  0  0  0  0
    5.4416    0.4874    0.0000 C   0  0  0  0  0  0  0  0  0  0  0  0
    6.6299    1.4028    0.0000 C   0  0  0  0  0  0  0  0  0  0  0  0
    6.4313    2.8896    0.0000 C   0  0  0  0  0  0  0  0  0  0  0  0
    7.6197    3.8049    0.0000 O   0  0  0  0  0  0  0  0  0  0  0  0
    5.0445    3.4610    0.0000 C   0  0  0  0  0  0  0  0  0  0  0  0
    3.8561    2.5456    0.0000 C   0  0  0  0  0  0  0  0  0  0  0  0
    4.0547    1.0588    0.0000 C   0  0  0  0  0  0  0  0  0  0  0  0
    2.6678    1.6303    0.0000 C   0  0  0  0  0  0  0  0  0  0  0  0
    2.8664    0.1435    0.0000 C   0  0  0  0  0  0  0  0  0  0  0  0
    1.4795    0.7149    0.0000 C   0  0  0  0  0  0  0  0  0  0  0  0
    0.2912   -0.2005    0.0000 C   0  0  0  0  0  0  0  0  0  0  0  0
   -1.0957    0.3710    0.0000 O   0  0  0  0  0  0  0  0  0  0  0  0
    0.4897   -1.6873    0.0000 C   0  0  0  0  0  0  0  0  0  0  0  0
   -0.9493   -1.2639    0.0000 C   0  0  0  0  0  0  0  0  0  0  0  0
  1  2  1  0
  2  3  1  0
  3  4  1  0
  4  5  1  0
  5  6  1  0
  6  7  2  0
  6  8  1  0
  8  9  1  0
  9 10  1  0
 10 11  1  6
 10 12  1  0
 12 13  1  6
 13 14  1  0
 15 14  1  6
 15 16  1  0
 16 17  1  1
 17 18  1  0
 19 18  1  1
 19 20  1  0
 20 21  1  0
 21 22  1  6
 21 23  1  0
 23 24  1  0
 24 25  1  0
 25 26  1  6
 25 27  1  0
 27 28  1  6
 28 29  1  0
 29 30  1  1
 29 31  1  0
 31 32  1  6
 31 12  1  0
 31 15  1  0
 27 16  1  0
 25 19  1  0
M  END
>  <MS_ID>  (1764) 
MS1831

>  <SMILES>  (1764) 
CCCCOC(=O)CC[C@@H](C)[C@H]1CC[C@H]2[C@@H]3CC[C@@H]4C[C@@H](O)CC[C@]4(C)[C@H]3C[C@H](O)[C@]12C

>  <Structure_dimension>  (1764) 
2D

$$$$
MS1832
     RDKit          2D

 29 32  0  0  0  0  0  0  0  0999 V2000
   -5.0303   -2.1373    0.0000 C   0  0  0  0  0  0  0  0  0  0  0  0
   -3.8594   -1.1998    0.0000 C   0  0  0  0  0  0  0  0  0  0  0  0
   -4.0858    0.2830    0.0000 C   0  0  0  0  0  0  0  0  0  0  0  0
   -5.4831    0.8284    0.0000 C   0  0  0  0  0  0  0  0  0  0  0  0
   -5.7095    2.3112    0.0000 C   0  0  0  0  0  0  0  0  0  0  0  0
   -4.5386    3.2487    0.0000 O   0  0  0  0  0  0  0  0  0  0  0  0
   -7.1069    2.8565    0.0000 O   0  0  0  0  0  0  0  0  0  0  0  0
   -2.4620   -1.7451    0.0000 C   0  0  0  0  0  0  0  0  0  0  0  0
   -2.0818   -3.1961    0.0000 C   0  0  0  0  0  0  0  0  0  0  0  0
   -0.5844   -3.2830    0.0000 C   0  0  0  0  0  0  0  0  0  0  0  0
   -0.0390   -1.8856    0.0000 C   0  0  0  0  0  0  0  0  0  0  0  0
    1.3643   -1.3559    0.0000 C   0  0  0  0  0  0  0  0  0  0  0  0
    2.5248   -2.3063    0.0000 C   0  0  0  0  0  0  0  0  0  0  0  0
    2.2819   -3.7865    0.0000 O   0  0  0  0  0  0  0  0  0  0  0  0
    3.9281   -1.7765    0.0000 C   0  0  0  0  0  0  0  0  0  0  0  0
    4.1710   -0.2963    0.0000 C   0  0  0  0  0  0  0  0  0  0  0  0
    5.5743    0.2334    0.0000 C   0  0  0  0  0  0  0  0  0  0  0  0
    5.8172    1.7136    0.0000 C   0  0  0  0  0  0  0  0  0  0  0  0
    7.2205    2.2434    0.0000 O   0  0  0  0  0  0  0  0  0  0  0  0
    4.6568    2.6641    0.0000 C   0  0  0  0  0  0  0  0  0  0  0  0
    3.2534    2.1343    0.0000 C   0  0  0  0  0  0  0  0  0  0  0  0
    3.0105    0.6541    0.0000 C   0  0  0  0  0  0  0  0  0  0  0  0
    1.8501    1.6046    0.0000 C   0  0  0  0  0  0  0  0  0  0  0  0
    1.6072    0.1244    0.0000 C   0  0  0  0  0  0  0  0  0  0  0  0
    0.4467    1.0748    0.0000 C   0  0  0  0  0  0  0  0  0  0  0  0
   -0.9566    0.5450    0.0000 C   0  0  0  0  0  0  0  0  0  0  0  0
   -2.1170    1.4955    0.0000 F   0  0  0  0  0  0  0  0  0  0  0  0
   -1.1995   -0.9352    0.0000 C   0  0  0  0  0  0  0  0  0  0  0  0
   -2.4529   -0.1112    0.0000 C   0  0  0  0  0  0  0  0  0  0  0  0
  2  1  1  6
  2  3  1  0
  3  4  1  0
  4  5  1  0
  5  6  2  0
  5  7  1  0
  2  8  1  0
  8  9  1  6
  9 10  1  0
 11 10  1  6
 11 12  1  0
 12 13  1  1
 13 14  1  6
 13 15  1  0
 16 15  1  1
 16 17  1  0
 17 18  1  0
 18 19  1  1
 18 20  1  0
 20 21  1  0
 21 22  1  0
 22 23  1  6
 22 24  1  0
 24 25  1  6
 25 26  1  0
 26 27  1  1
 26 28  1  0
 28 29  1  6
 28  8  1  0
 28 11  1  0
 24 12  1  0
 22 16  1  0
M  END
>  <MS_ID>  (1765) 
MS1832

>  <SMILES>  (1765) 
C[C@H](CCC(=O)O)[C@H]1CC[C@H]2[C@@H]3[C@@H](O)C[C@@H]4C[C@H](O)CC[C@]4(C)[C@H]3C[C@H](F)[C@]12C

>  <Structure_dimension>  (1765) 
2D

$$$$
MS1833
     RDKit          2D

 34 37  0  0  0  0  0  0  0  0999 V2000
   -2.0431   -4.2971    0.0000 C   0  0  0  0  0  0  0  0  0  0  0  0
   -1.3315   -2.9767    0.0000 C   0  0  0  0  0  0  0  0  0  0  0  0
   -2.1193   -1.7002    0.0000 C   0  0  0  0  0  0  0  0  0  0  0  0
   -3.6187   -1.7442    0.0000 C   0  0  0  0  0  0  0  0  0  0  0  0
   -4.4064   -0.4677    0.0000 C   0  0  0  0  0  0  0  0  0  0  0  0
   -3.6948    0.8528    0.0000 O   0  0  0  0  0  0  0  0  0  0  0  0
   -5.9058   -0.5117    0.0000 N   0  0  0  0  0  0  0  0  0  0  0  0
   -6.6936    0.7648    0.0000 C   0  0  0  0  0  0  0  0  0  0  0  0
   -8.1929    0.7208    0.0000 C   0  0  0  0  0  0  0  0  0  0  0  0
   -8.9807    1.9973    0.0000 S   0  0  0  0  0  0  0  0  0  0  0  0
   -9.7684    3.2738    0.0000 O   0  0  0  0  0  0  0  0  0  0  0  0
  -10.2572    1.2096    0.0000 O   0  0  0  0  0  0  0  0  0  0  0  0
   -7.7042    2.7851    0.0000 F   0  0  0  0  0  0  0  0  0  0  0  0
    0.1678   -2.9327    0.0000 C   0  0  0  0  0  0  0  0  0  0  0  0
    1.0847   -4.1198    0.0000 C   0  0  0  0  0  0  0  0  0  0  0  0
    2.4971   -3.6147    0.0000 C   0  0  0  0  0  0  0  0  0  0  0  0
    2.4531   -2.1153    0.0000 C   0  0  0  0  0  0  0  0  0  0  0  0
    3.5379   -1.0794    0.0000 C   0  0  0  0  0  0  0  0  0  0  0  0
    4.9775   -1.5009    0.0000 C   0  0  0  0  0  0  0  0  0  0  0  0
    5.3322   -2.9583    0.0000 O   0  0  0  0  0  0  0  0  0  0  0  0
    6.0623   -0.4649    0.0000 C   0  0  0  0  0  0  0  0  0  0  0  0
    5.7075    0.9925    0.0000 C   0  0  0  0  0  0  0  0  0  0  0  0
    6.7923    2.0285    0.0000 C   0  0  0  0  0  0  0  0  0  0  0  0
    6.4376    3.4859    0.0000 C   0  0  0  0  0  0  0  0  0  0  0  0
    7.5224    4.5219    0.0000 O   0  0  0  0  0  0  0  0  0  0  0  0
    4.9980    3.9074    0.0000 C   0  0  0  0  0  0  0  0  0  0  0  0
    3.9132    2.8715    0.0000 C   0  0  0  0  0  0  0  0  0  0  0  0
    4.2680    1.4140    0.0000 C   0  0  0  0  0  0  0  0  0  0  0  0
    2.8284    1.8355    0.0000 C   0  0  0  0  0  0  0  0  0  0  0  0
    3.1831    0.3781    0.0000 C   0  0  0  0  0  0  0  0  0  0  0  0
    1.7436    0.7996    0.0000 C   0  0  0  0  0  0  0  0  0  0  0  0
    0.6588   -0.2364    0.0000 C   0  0  0  0  0  0  0  0  0  0  0  0
    1.0135   -1.6938    0.0000 C   0  0  0  0  0  0  0  0  0  0  0  0
   -0.4622   -1.4251    0.0000 C   0  0  0  0  0  0  0  0  0  0  0  0
  2  1  1  6
  2  3  1  0
  3  4  1  0
  4  5  1  0
  5  6  2  0
  5  7  1  0
  7  8  1  0
  8  9  1  0
  9 10  1  0
 10 11  2  0
 10 12  2  0
 10 13  1  0
  2 14  1  0
 14 15  1  6
 15 16  1  0
 17 16  1  6
 17 18  1  0
 18 19  1  1
 19 20  1  1
 19 21  1  0
 22 21  1  1
 22 23  1  0
 23 24  1  0
 24 25  1  1
 24 26  1  0
 26 27  1  0
 27 28  1  0
 28 29  1  6
 28 30  1  0
 30 31  1  6
 31 32  1  0
 32 33  1  0
 33 34  1  6
 33 14  1  0
 33 17  1  0
 30 18  1  0
 28 22  1  0
M  END
>  <MS_ID>  (1766) 
MS1833

>  <SMILES>  (1766) 
C[C@H](CCC(=O)NCCS(=O)(=O)F)[C@H]1CC[C@H]2[C@@H]3[C@H](O)C[C@@H]4C[C@H](O)CC[C@]4(C)[C@H]3CC[C@]12C

>  <Structure_dimension>  (1766) 
2D

$$$$
MS1834
     RDKit          2D

 38 42  0  0  0  0  0  0  0  0999 V2000
   -7.6579   -2.1621    0.0000 C   0  0  0  0  0  0  0  0  0  0  0  0
   -6.4696   -1.2467    0.0000 C   0  0  0  0  0  0  0  0  0  0  0  0
   -6.6682    0.2401    0.0000 C   0  0  0  0  0  0  0  0  0  0  0  0
   -8.0552    0.8115    0.0000 C   0  0  0  0  0  0  0  0  0  0  0  0
   -8.2538    2.2982    0.0000 C   0  0  0  0  0  0  0  0  0  0  0  0
   -7.0655    3.2137    0.0000 O   0  0  0  0  0  0  0  0  0  0  0  0
   -9.6407    2.8696    0.0000 O   0  0  0  0  0  0  0  0  0  0  0  0
   -5.0827   -1.8180    0.0000 C   0  0  0  0  0  0  0  0  0  0  0  0
   -4.7297   -3.2759    0.0000 C   0  0  0  0  0  0  0  0  0  0  0  0
   -3.2341   -3.3907    0.0000 C   0  0  0  0  0  0  0  0  0  0  0  0
   -2.6627   -2.0038    0.0000 C   0  0  0  0  0  0  0  0  0  0  0  0
   -1.2498   -1.5004    0.0000 C   0  0  0  0  0  0  0  0  0  0  0  0
   -0.1073   -2.4724    0.0000 C   0  0  0  0  0  0  0  0  0  0  0  0
    1.3057   -1.9689    0.0000 C   0  0  0  0  0  0  0  0  0  0  0  0
    1.5762   -0.4935    0.0000 C   0  0  0  0  0  0  0  0  0  0  0  0
    2.9892    0.0099    0.0000 C   0  0  0  0  0  0  0  0  0  0  0  0
    3.2598    1.4853    0.0000 C   0  0  0  0  0  0  0  0  0  0  0  0
    4.6728    1.9887    0.0000 O   0  0  0  0  0  0  0  0  0  0  0  0
    5.8152    1.0168    0.0000 C   0  0  0  0  0  0  0  0  0  0  0  0
    5.5447   -0.4586    0.0000 O   0  0  0  0  0  0  0  0  0  0  0  0
    6.6872   -1.4306    0.0000 C   0  0  0  0  0  0  0  0  0  0  0  0
    6.4167   -2.9060    0.0000 C   0  0  0  0  0  0  0  0  0  0  0  0
    8.1002   -0.9272    0.0000 C   0  0  0  0  0  0  0  0  0  0  0  0
    9.2427   -1.8992    0.0000 O   0  0  0  0  0  0  0  0  0  0  0  0
    8.3707    0.5482    0.0000 C   0  0  0  0  0  0  0  0  0  0  0  0
    9.7837    1.0516    0.0000 O   0  0  0  0  0  0  0  0  0  0  0  0
    7.2282    1.5202    0.0000 C   0  0  0  0  0  0  0  0  0  0  0  0
    7.4987    2.9956    0.0000 O   0  0  0  0  0  0  0  0  0  0  0  0
    2.1173    2.4573    0.0000 C   0  0  0  0  0  0  0  0  0  0  0  0
    0.7043    1.9539    0.0000 C   0  0  0  0  0  0  0  0  0  0  0  0
    0.4338    0.4785    0.0000 C   0  0  0  0  0  0  0  0  0  0  0  0
   -0.7087    1.4504    0.0000 C   0  0  0  0  0  0  0  0  0  0  0  0
   -0.9792   -0.0250    0.0000 C   0  0  0  0  0  0  0  0  0  0  0  0
   -2.1217    0.9470    0.0000 C   0  0  0  0  0  0  0  0  0  0  0  0
   -3.5347    0.4436    0.0000 C   0  0  0  0  0  0  0  0  0  0  0  0
   -4.6772    1.4155    0.0000 O   0  0  0  0  0  0  0  0  0  0  0  0
   -3.8052   -1.0318    0.0000 C   0  0  0  0  0  0  0  0  0  0  0  0
   -5.0430   -0.1846    0.0000 C   0  0  0  0  0  0  0  0  0  0  0  0
  2  1  1  6
  2  3  1  0
  3  4  1  0
  4  5  1  0
  5  6  2  0
  5  7  1  0
  2  8  1  0
  8  9  1  6
  9 10  1  0
 11 10  1  6
 11 12  1  0
 12 13  1  1
 13 14  1  0
 15 14  1  1
 15 16  1  0
 16 17  1  0
 17 18  1  1
 19 18  1  1
 19 20  1  0
 20 21  1  0
 21 22  1  6
 21 23  1  0
 23 24  1  6
 23 25  1  0
 25 26  1  1
 25 27  1  0
 27 28  1  6
 17 29  1  0
 29 30  1  0
 30 31  1  0
 31 32  1  6
 31 33  1  0
 33 34  1  6
 34 35  1  0
 35 36  1  1
 35 37  1  0
 37 38  1  6
 37  8  1  0
 37 11  1  0
 33 12  1  0
 31 15  1  0
 27 19  1  0
M  END
>  <MS_ID>  (1767) 
MS1834

>  <SMILES>  (1767) 
C[C@H](CCC(=O)O)[C@H]1CC[C@H]2[C@@H]3CC[C@@H]4C[C@H](O[C@@H]5O[C@@H](C)[C@@H](O)[C@H](O)[C@H]5O)CC[C@]4(C)[C@H]3C[C@H](O)[C@]12C

>  <Structure_dimension>  (1767) 
2D

$$$$
MS1835
     RDKit          2D

 31 34  0  0  0  0  0  0  0  0999 V2000
   -4.2495   -2.8115    0.0000 C   0  0  0  0  0  0  0  0  0  0  0  0
   -3.1859   -1.7538    0.0000 C   0  0  0  0  0  0  0  0  0  0  0  0
   -3.5702   -0.3038    0.0000 C   0  0  0  0  0  0  0  0  0  0  0  0
   -5.0180    0.0883    0.0000 C   0  0  0  0  0  0  0  0  0  0  0  0
   -5.4023    1.5383    0.0000 C   0  0  0  0  0  0  0  0  0  0  0  0
   -4.3387    2.5960    0.0000 O   0  0  0  0  0  0  0  0  0  0  0  0
   -6.8501    1.9305    0.0000 C   0  0  0  0  0  0  0  0  0  0  0  0
   -7.2344    3.3804    0.0000 C   0  0  0  0  0  0  0  0  0  0  0  0
   -7.9137    0.8727    0.0000 O   0  0  0  0  0  0  0  0  0  0  0  0
   -1.7381   -2.1460    0.0000 C   0  0  0  0  0  0  0  0  0  0  0  0
   -1.2044   -3.5478    0.0000 C   0  0  0  0  0  0  0  0  0  0  0  0
    0.2938   -3.4734    0.0000 C   0  0  0  0  0  0  0  0  0  0  0  0
    0.6860   -2.0256    0.0000 C   0  0  0  0  0  0  0  0  0  0  0  0
    2.0243   -1.3482    0.0000 C   0  0  0  0  0  0  0  0  0  0  0  0
    3.2801   -2.1686    0.0000 C   0  0  0  0  0  0  0  0  0  0  0  0
    3.1975   -3.6663    0.0000 O   0  0  0  0  0  0  0  0  0  0  0  0
    4.6185   -1.4913    0.0000 C   0  0  0  0  0  0  0  0  0  0  0  0
    4.7010    0.0064    0.0000 C   0  0  0  0  0  0  0  0  0  0  0  0
    6.0394    0.6838    0.0000 C   0  0  0  0  0  0  0  0  0  0  0  0
    6.1220    2.1815    0.0000 C   0  0  0  0  0  0  0  0  0  0  0  0
    7.4604    2.8588    0.0000 O   0  0  0  0  0  0  0  0  0  0  0  0
    4.8662    3.0019    0.0000 C   0  0  0  0  0  0  0  0  0  0  0  0
    3.5279    2.3246    0.0000 C   0  0  0  0  0  0  0  0  0  0  0  0
    3.4453    0.8268    0.0000 C   0  0  0  0  0  0  0  0  0  0  0  0
    2.1895    1.6472    0.0000 C   0  0  0  0  0  0  0  0  0  0  0  0
    2.1069    0.1495    0.0000 C   0  0  0  0  0  0  0  0  0  0  0  0
    0.8511    0.9699    0.0000 C   0  0  0  0  0  0  0  0  0  0  0  0
   -0.4872    0.2925    0.0000 C   0  0  0  0  0  0  0  0  0  0  0  0
   -1.7430    1.1129    0.0000 O   0  0  0  0  0  0  0  0  0  0  0  0
   -0.5698   -1.2052    0.0000 C   0  0  0  0  0  0  0  0  0  0  0  0
   -1.9045   -0.5205    0.0000 C   0  0  0  0  0  0  0  0  0  0  0  0
  2  1  1  6
  2  3  1  0
  3  4  1  0
  4  5  1  0
  5  6  2  0
  5  7  1  0
  7  8  1  6
  7  9  1  0
  2 10  1  0
 10 11  1  6
 11 12  1  0
 13 12  1  6
 13 14  1  0
 14 15  1  1
 15 16  1  1
 15 17  1  0
 18 17  1  1
 18 19  1  0
 19 20  1  0
 20 21  1  1
 20 22  1  0
 22 23  1  0
 23 24  1  0
 24 25  1  6
 24 26  1  0
 26 27  1  6
 27 28  1  0
 28 29  1  1
 28 30  1  0
 30 31  1  6
 30 10  1  0
 30 13  1  0
 26 14  1  0
 24 18  1  0
M  END
>  <MS_ID>  (1768) 
MS1835

>  <SMILES>  (1768) 
C[C@H](CCC(=O)[C@@H](C)O)[C@H]1CC[C@H]2[C@@H]3[C@H](O)C[C@@H]4C[C@H](O)CC[C@]4(C)[C@H]3C[C@H](O)[C@]12C

>  <Structure_dimension>  (1768) 
2D

$$$$
MS1836
     RDKit          2D

 33 37  0  0  0  0  0  0  0  0999 V2000
   -3.6298   -3.2263    0.0000 C   0  0  0  0  0  0  0  0  0  0  0  0
   -2.6726   -2.0715    0.0000 C   0  0  0  0  0  0  0  0  0  0  0  0
   -3.1941   -0.6650    0.0000 C   0  0  0  0  0  0  0  0  0  0  0  0
   -4.6728   -0.4135    0.0000 C   0  0  0  0  0  0  0  0  0  0  0  0
   -5.1944    0.9930    0.0000 C   0  0  0  0  0  0  0  0  0  0  0  0
   -4.2371    2.1478    0.0000 O   0  0  0  0  0  0  0  0  0  0  0  0
   -6.6731    1.2445    0.0000 N   0  0  0  0  0  0  0  0  0  0  0  0
   -7.7458    0.1960    0.0000 C   0  0  0  0  0  0  0  0  0  0  0  0
   -9.0745    0.8923    0.0000 C   0  0  0  0  0  0  0  0  0  0  0  0
   -8.8229    2.3710    0.0000 N   0  0  0  0  0  0  0  0  0  0  0  0
   -7.3388    2.5887    0.0000 C   0  0  0  0  0  0  0  0  0  0  0  0
   -1.1938   -2.3230    0.0000 C   0  0  0  0  0  0  0  0  0  0  0  0
   -0.5281   -3.6672    0.0000 C   0  0  0  0  0  0  0  0  0  0  0  0
    0.9560   -3.4495    0.0000 C   0  0  0  0  0  0  0  0  0  0  0  0
    1.2075   -1.9708    0.0000 C   0  0  0  0  0  0  0  0  0  0  0  0
    2.4748   -1.1682    0.0000 C   0  0  0  0  0  0  0  0  0  0  0  0
    3.8034   -1.8644    0.0000 C   0  0  0  0  0  0  0  0  0  0  0  0
    3.8648   -3.3632    0.0000 O   0  0  0  0  0  0  0  0  0  0  0  0
    5.0707   -1.0619    0.0000 C   0  0  0  0  0  0  0  0  0  0  0  0
    6.3993   -1.7581    0.0000 O   0  0  0  0  0  0  0  0  0  0  0  0
    5.0093    0.4368    0.0000 C   0  0  0  0  0  0  0  0  0  0  0  0
    6.2766    1.2394    0.0000 C   0  0  0  0  0  0  0  0  0  0  0  0
    6.2152    2.7381    0.0000 C   0  0  0  0  0  0  0  0  0  0  0  0
    7.4824    3.5407    0.0000 O   0  0  0  0  0  0  0  0  0  0  0  0
    4.8865    3.4343    0.0000 C   0  0  0  0  0  0  0  0  0  0  0  0
    3.6193    2.6318    0.0000 C   0  0  0  0  0  0  0  0  0  0  0  0
    3.6807    1.1331    0.0000 C   0  0  0  0  0  0  0  0  0  0  0  0
    2.3520    1.8293    0.0000 C   0  0  0  0  0  0  0  0  0  0  0  0
    2.4134    0.3305    0.0000 C   0  0  0  0  0  0  0  0  0  0  0  0
    1.0848    1.0267    0.0000 C   0  0  0  0  0  0  0  0  0  0  0  0
   -0.1825    0.2242    0.0000 C   0  0  0  0  0  0  0  0  0  0  0  0
   -0.1211   -1.2745    0.0000 C   0  0  0  0  0  0  0  0  0  0  0  0
   -1.5152   -0.7210    0.0000 C   0  0  0  0  0  0  0  0  0  0  0  0
  2  1  1  6
  2  3  1  0
  3  4  1  0
  4  5  1  0
  5  6  2  0
  5  7  1  0
  7  8  1  0
  8  9  2  0
  9 10  1  0
 10 11  2  0
  2 12  1  0
 12 13  1  6
 13 14  1  0
 15 14  1  6
 15 16  1  0
 16 17  1  1
 17 18  1  1
 17 19  1  0
 19 20  1  1
 19 21  1  0
 21 22  1  1
 22 23  1  0
 23 24  1  1
 23 25  1  0
 25 26  1  0
 26 27  1  0
 27 28  1  6
 27 29  1  0
 29 30  1  6
 30 31  1  0
 31 32  1  0
 32 33  1  6
 11  7  1  0
 32 12  1  0
 32 15  1  0
 29 16  1  0
 27 21  1  0
M  END
>  <MS_ID>  (1769) 
MS1836

>  <SMILES>  (1769) 
C[C@H](CCC(=O)n1ccnc1)[C@H]1CC[C@H]2[C@@H]3[C@H](O)[C@H](O)[C@@H]4C[C@H](O)CC[C@]4(C)[C@H]3CC[C@]12C

>  <Structure_dimension>  (1769) 
2D

$$$$
MS1837
     RDKit          2D

 44 48  0  0  0  0  0  0  0  0999 V2000
   -9.3905    5.4828    0.0000 C   0  0  0  0  0  0  0  0  0  0  0  0
   -9.4059    3.9829    0.0000 O   0  0  0  0  0  0  0  0  0  0  0  0
   -8.1146    3.2196    0.0000 C   0  0  0  0  0  0  0  0  0  0  0  0
   -6.8080    3.9563    0.0000 O   0  0  0  0  0  0  0  0  0  0  0  0
   -8.1300    1.7197    0.0000 C   0  0  0  0  0  0  0  0  0  0  0  0
   -6.8387    0.9564    0.0000 C   0  0  0  0  0  0  0  0  0  0  0  0
   -6.8541   -0.5435    0.0000 C   0  0  0  0  0  0  0  0  0  0  0  0
   -8.1608   -1.2801    0.0000 C   0  0  0  0  0  0  0  0  0  0  0  0
   -5.5628   -1.3068    0.0000 C   0  0  0  0  0  0  0  0  0  0  0  0
   -5.4214   -2.8001    0.0000 C   0  0  0  0  0  0  0  0  0  0  0  0
   -3.9574   -3.1270    0.0000 C   0  0  0  0  0  0  0  0  0  0  0  0
   -3.1941   -1.8357    0.0000 C   0  0  0  0  0  0  0  0  0  0  0  0
   -1.7238   -1.5389    0.0000 C   0  0  0  0  0  0  0  0  0  0  0  0
   -0.7316   -2.6639    0.0000 C   0  0  0  0  0  0  0  0  0  0  0  0
   -1.2097   -4.0856    0.0000 O   0  0  0  0  0  0  0  0  0  0  0  0
   -0.2175   -5.2106    0.0000 C   0  0  0  0  0  0  0  0  0  0  0  0
   -0.6956   -6.6323    0.0000 C   0  0  0  0  0  0  0  0  0  0  0  0
    1.2528   -4.9138    0.0000 O   0  0  0  0  0  0  0  0  0  0  0  0
    0.7388   -2.3670    0.0000 C   0  0  0  0  0  0  0  0  0  0  0  0
    1.2169   -0.9453    0.0000 C   0  0  0  0  0  0  0  0  0  0  0  0
    2.6872   -0.6485    0.0000 C   0  0  0  0  0  0  0  0  0  0  0  0
    3.1654    0.7733    0.0000 C   0  0  0  0  0  0  0  0  0  0  0  0
    4.6357    1.0701    0.0000 O   0  0  0  0  0  0  0  0  0  0  0  0
    5.6279   -0.0549    0.0000 C   0  0  0  0  0  0  0  0  0  0  0  0
    5.1498   -1.4766    0.0000 O   0  0  0  0  0  0  0  0  0  0  0  0
    7.0983    0.2419    0.0000 C   0  0  0  0  0  0  0  0  0  0  0  0
    8.0905   -0.8830    0.0000 C   0  0  0  0  0  0  0  0  0  0  0  0
    9.5608   -0.5862    0.0000 C   0  0  0  0  0  0  0  0  0  0  0  0
   10.0389    0.8356    0.0000 C   0  0  0  0  0  0  0  0  0  0  0  0
   11.5093    1.1324    0.0000 O   0  0  0  0  0  0  0  0  0  0  0  0
    9.0467    1.9605    0.0000 C   0  0  0  0  0  0  0  0  0  0  0  0
    9.5249    3.3823    0.0000 O   0  0  0  0  0  0  0  0  0  0  0  0
    8.5326    4.5072    0.0000 C   0  0  0  0  0  0  0  0  0  0  0  0
    7.5764    1.6637    0.0000 C   0  0  0  0  0  0  0  0  0  0  0  0
    2.1731    1.8982    0.0000 C   0  0  0  0  0  0  0  0  0  0  0  0
    0.7028    1.6014    0.0000 C   0  0  0  0  0  0  0  0  0  0  0  0
    0.2247    0.1797    0.0000 C   0  0  0  0  0  0  0  0  0  0  0  0
   -0.7675    1.3046    0.0000 C   0  0  0  0  0  0  0  0  0  0  0  0
   -1.2457   -0.1171    0.0000 C   0  0  0  0  0  0  0  0  0  0  0  0
   -2.2379    1.0078    0.0000 C   0  0  0  0  0  0  0  0  0  0  0  0
   -3.7082    0.7110    0.0000 C   0  0  0  0  0  0  0  0  0  0  0  0
   -4.7004    1.8360    0.0000 O   0  0  0  0  0  0  0  0  0  0  0  0
   -4.1863   -0.7108    0.0000 C   0  0  0  0  0  0  0  0  0  0  0  0
   -5.2907    0.3043    0.0000 C   0  0  0  0  0  0  0  0  0  0  0  0
  1  2  1  0
  2  3  1  0
  3  4  2  0
  3  5  1  0
  5  6  1  0
  6  7  1  0
  7  8  1  6
  7  9  1  0
  9 10  1  6
 10 11  1  0
 12 11  1  6
 12 13  1  0
 13 14  1  1
 14 15  1  1
 15 16  1  0
 16 17  1  0
 16 18  2  0
 14 19  1  0
 20 19  1  1
 20 21  1  0
 21 22  1  0
 22 23  1  1
 23 24  1  0
 24 25  2  0
 24 26  1  0
 26 27  2  0
 27 28  1  0
 28 29  2  0
 29 30  1  0
 29 31  1  0
 31 32  1  0
 32 33  1  0
 31 34  2  0
 22 35  1  0
 35 36  1  0
 36 37  1  0
 37 38  1  6
 37 39  1  0
 39 40  1  6
 40 41  1  0
 41 42  1  1
 41 43  1  0
 43 44  1  6
 43  9  1  0
 43 12  1  0
 39 13  1  0
 37 20  1  0
 34 26  1  0
M  END
>  <MS_ID>  (1770) 
MS1837

>  <SMILES>  (1770) 
COC(=O)CC[C@@H](C)[C@H]1CC[C@H]2[C@@H]3[C@H](OC(C)=O)C[C@@H]4C[C@H](OC(=O)c5ccc(O)c(OC)c5)CC[C@]4(C)[C@H]3C[C@H](O)[C@]12C

>  <Structure_dimension>  (1770) 
2D

$$$$
MS1838
     RDKit          2D

 32 35  0  0  0  0  0  0  0  0999 V2000
   -3.4546   -3.6059    0.0000 C   0  0  0  0  0  0  0  0  0  0  0  0
   -2.5561   -2.4048    0.0000 C   0  0  0  0  0  0  0  0  0  0  0  0
   -3.1471   -1.0261    0.0000 C   0  0  0  0  0  0  0  0  0  0  0  0
   -4.6366   -0.8486    0.0000 C   0  0  0  0  0  0  0  0  0  0  0  0
   -5.2276    0.5301    0.0000 C   0  0  0  0  0  0  0  0  0  0  0  0
   -4.3291    1.7312    0.0000 O   0  0  0  0  0  0  0  0  0  0  0  0
   -6.7170    0.7076    0.0000 O   0  0  0  0  0  0  0  0  0  0  0  0
   -7.3080    2.0863    0.0000 C   0  0  0  0  0  0  0  0  0  0  0  0
   -8.7975    2.2638    0.0000 C   0  0  0  0  0  0  0  0  0  0  0  0
   -9.3885    3.6424    0.0000 N   0  0  0  0  0  0  0  0  0  0  0  0
   -1.0667   -2.5823    0.0000 C   0  0  0  0  0  0  0  0  0  0  0  0
   -0.3348   -3.8917    0.0000 C   0  0  0  0  0  0  0  0  0  0  0  0
    1.1366   -3.6002    0.0000 C   0  0  0  0  0  0  0  0  0  0  0  0
    1.3141   -2.1108    0.0000 C   0  0  0  0  0  0  0  0  0  0  0  0
    2.5398   -1.2460    0.0000 C   0  0  0  0  0  0  0  0  0  0  0  0
    3.9015   -1.8751    0.0000 C   0  0  0  0  0  0  0  0  0  0  0  0
    4.0375   -3.3690    0.0000 O   0  0  0  0  0  0  0  0  0  0  0  0
    5.1272   -1.0104    0.0000 C   0  0  0  0  0  0  0  0  0  0  0  0
    4.9911    0.4834    0.0000 C   0  0  0  0  0  0  0  0  0  0  0  0
    6.2168    1.3481    0.0000 C   0  0  0  0  0  0  0  0  0  0  0  0
    6.0808    2.8419    0.0000 C   0  0  0  0  0  0  0  0  0  0  0  0
    7.3064    3.7067    0.0000 O   0  0  0  0  0  0  0  0  0  0  0  0
    4.7191    3.4710    0.0000 C   0  0  0  0  0  0  0  0  0  0  0  0
    3.4934    2.6063    0.0000 C   0  0  0  0  0  0  0  0  0  0  0  0
    3.6294    1.1125    0.0000 C   0  0  0  0  0  0  0  0  0  0  0  0
    2.2677    1.7416    0.0000 C   0  0  0  0  0  0  0  0  0  0  0  0
    2.4038    0.2478    0.0000 C   0  0  0  0  0  0  0  0  0  0  0  0
    1.0421    0.8769    0.0000 C   0  0  0  0  0  0  0  0  0  0  0  0
   -0.1836    0.0122    0.0000 C   0  0  0  0  0  0  0  0  0  0  0  0
   -1.5453    0.6413    0.0000 O   0  0  0  0  0  0  0  0  0  0  0  0
   -0.0476   -1.4817    0.0000 C   0  0  0  0  0  0  0  0  0  0  0  0
   -1.4676   -0.9983    0.0000 C   0  0  0  0  0  0  0  0  0  0  0  0
  2  1  1  6
  2  3  1  0
  3  4  1  0
  4  5  1  0
  5  6  2  0
  5  7  1  0
  7  8  1  0
  8  9  1  0
  9 10  1  0
  2 11  1  0
 11 12  1  6
 12 13  1  0
 14 13  1  6
 14 15  1  0
 15 16  1  1
 16 17  1  6
 16 18  1  0
 19 18  1  1
 19 20  1  0
 20 21  1  0
 21 22  2  0
 21 23  1  0
 23 24  1  0
 24 25  1  0
 25 26  1  6
 25 27  1  0
 27 28  1  6
 28 29  1  0
 29 30  1  1
 29 31  1  0
 31 32  1  6
 31 11  1  0
 31 14  1  0
 27 15  1  0
 25 19  1  0
M  END
>  <MS_ID>  (1771) 
MS1838

>  <SMILES>  (1771) 
C[C@H](CCC(=O)OCCN)[C@H]1CC[C@H]2[C@@H]3[C@@H](O)C[C@@H]4CC(=O)CC[C@]4(C)[C@H]3C[C@H](O)[C@]12C

>  <Structure_dimension>  (1771) 
2D

$$$$
MS1839
     RDKit          2D

 28 31  0  0  0  0  0  0  0  0999 V2000
   -5.1427   -2.0937    0.0000 C   0  0  0  0  0  0  0  0  0  0  0  0
   -3.9329   -1.2068    0.0000 C   0  0  0  0  0  0  0  0  0  0  0  0
   -4.0961    0.2842    0.0000 C   0  0  0  0  0  0  0  0  0  0  0  0
   -5.4691    0.8885    0.0000 C   0  0  0  0  0  0  0  0  0  0  0  0
   -5.6323    2.3796    0.0000 C   0  0  0  0  0  0  0  0  0  0  0  0
   -4.4225    3.2664    0.0000 O   0  0  0  0  0  0  0  0  0  0  0  0
   -7.0052    2.9838    0.0000 O   0  0  0  0  0  0  0  0  0  0  0  0
   -2.5600   -1.8111    0.0000 C   0  0  0  0  0  0  0  0  0  0  0  0
   -2.2418   -3.2769    0.0000 C   0  0  0  0  0  0  0  0  0  0  0  0
   -0.7494   -3.4273    0.0000 C   0  0  0  0  0  0  0  0  0  0  0  0
   -0.1452   -2.0544    0.0000 C   0  0  0  0  0  0  0  0  0  0  0  0
    1.2794   -1.5847    0.0000 C   0  0  0  0  0  0  0  0  0  0  0  0
    2.3984   -2.5836    0.0000 C   0  0  0  0  0  0  0  0  0  0  0  0
    3.8230   -2.1140    0.0000 C   0  0  0  0  0  0  0  0  0  0  0  0
    4.1286   -0.6454    0.0000 C   0  0  0  0  0  0  0  0  0  0  0  0
    5.5531   -0.1758    0.0000 C   0  0  0  0  0  0  0  0  0  0  0  0
    5.8587    1.2928    0.0000 C   0  0  0  0  0  0  0  0  0  0  0  0
    7.2833    1.7624    0.0000 O   0  0  0  0  0  0  0  0  0  0  0  0
    4.7397    2.2917    0.0000 C   0  0  0  0  0  0  0  0  0  0  0  0
    3.3151    1.8220    0.0000 C   0  0  0  0  0  0  0  0  0  0  0  0
    3.0095    0.3535    0.0000 C   0  0  0  0  0  0  0  0  0  0  0  0
    1.8905    1.3524    0.0000 C   0  0  0  0  0  0  0  0  0  0  0  0
    1.5850   -0.1162    0.0000 C   0  0  0  0  0  0  0  0  0  0  0  0
    0.4659    0.8827    0.0000 C   0  0  0  0  0  0  0  0  0  0  0  0
    0.7715    2.3513    0.0000 O   0  0  0  0  0  0  0  0  0  0  0  0
   -0.9586    0.4131    0.0000 C   0  0  0  0  0  0  0  0  0  0  0  0
   -1.2642   -1.0555    0.0000 C   0  0  0  0  0  0  0  0  0  0  0  0
   -2.4815   -0.1790    0.0000 C   0  0  0  0  0  0  0  0  0  0  0  0
  2  1  1  6
  2  3  1  0
  3  4  1  0
  4  5  1  0
  5  6  2  0
  5  7  1  0
  2  8  1  0
  8  9  1  6
  9 10  1  0
 11 10  1  6
 11 12  1  0
 12 13  1  1
 13 14  1  0
 15 14  1  1
 15 16  1  0
 16 17  1  0
 17 18  1  1
 17 19  1  0
 19 20  1  0
 20 21  1  0
 21 22  1  6
 21 23  1  0
 23 24  1  6
 24 25  2  0
 24 26  1  0
 26 27  1  0
 27 28  1  6
 27  8  1  0
 27 11  1  0
 23 12  1  0
 21 15  1  0
M  END
>  <MS_ID>  (1772) 
MS1839

>  <SMILES>  (1772) 
C[C@H](CCC(=O)O)[C@H]1CC[C@H]2[C@@H]3CC[C@@H]4C[C@H](O)CC[C@]4(C)[C@H]3C(=O)C[C@]12C

>  <Structure_dimension>  (1772) 
2D

$$$$
MS1840
     RDKit          2D

 36 39  0  0  0  0  0  0  0  0999 V2000
   -1.9189   -5.0541    0.0000 C   0  0  0  0  0  0  0  0  0  0  0  0
   -1.3766   -3.6556    0.0000 C   0  0  0  0  0  0  0  0  0  0  0  0
   -2.3165   -2.4866    0.0000 C   0  0  0  0  0  0  0  0  0  0  0  0
   -3.7989   -2.7162    0.0000 C   0  0  0  0  0  0  0  0  0  0  0  0
   -4.7388   -1.5473    0.0000 C   0  0  0  0  0  0  0  0  0  0  0  0
   -6.2212   -1.7768    0.0000 O   0  0  0  0  0  0  0  0  0  0  0  0
   -4.1965   -0.1487    0.0000 O   0  0  0  0  0  0  0  0  0  0  0  0
   -5.1365    1.0202    0.0000 C   0  0  0  0  0  0  0  0  0  0  0  0
   -6.6188    0.7906    0.0000 O   0  0  0  0  0  0  0  0  0  0  0  0
   -4.5941    2.4187    0.0000 O   0  0  0  0  0  0  0  0  0  0  0  0
   -5.5341    3.5877    0.0000 C   0  0  0  0  0  0  0  0  0  0  0  0
   -4.3652    4.5276    0.0000 C   0  0  0  0  0  0  0  0  0  0  0  0
   -6.7031    2.6477    0.0000 C   0  0  0  0  0  0  0  0  0  0  0  0
   -6.4741    4.7566    0.0000 C   0  0  0  0  0  0  0  0  0  0  0  0
    0.1058   -3.4260    0.0000 C   0  0  0  0  0  0  0  0  0  0  0  0
    1.1628   -4.4903    0.0000 C   0  0  0  0  0  0  0  0  0  0  0  0
    2.5016   -3.8139    0.0000 C   0  0  0  0  0  0  0  0  0  0  0  0
    2.2721   -2.3316    0.0000 C   0  0  0  0  0  0  0  0  0  0  0  0
    3.2200   -1.1691    0.0000 C   0  0  0  0  0  0  0  0  0  0  0  0
    4.7007   -1.4088    0.0000 C   0  0  0  0  0  0  0  0  0  0  0  0
    5.2335   -2.8110    0.0000 O   0  0  0  0  0  0  0  0  0  0  0  0
    5.6487   -0.2463    0.0000 C   0  0  0  0  0  0  0  0  0  0  0  0
    5.1160    1.1559    0.0000 C   0  0  0  0  0  0  0  0  0  0  0  0
    6.0639    2.3184    0.0000 C   0  0  0  0  0  0  0  0  0  0  0  0
    5.5312    3.7206    0.0000 C   0  0  0  0  0  0  0  0  0  0  0  0
    6.4791    4.8830    0.0000 O   0  0  0  0  0  0  0  0  0  0  0  0
    4.0504    3.9603    0.0000 C   0  0  0  0  0  0  0  0  0  0  0  0
    3.1025    2.7978    0.0000 C   0  0  0  0  0  0  0  0  0  0  0  0
    3.6352    1.3956    0.0000 C   0  0  0  0  0  0  0  0  0  0  0  0
    2.1545    1.6353    0.0000 C   0  0  0  0  0  0  0  0  0  0  0  0
    2.6873    0.2331    0.0000 C   0  0  0  0  0  0  0  0  0  0  0  0
    1.2065    0.4728    0.0000 C   0  0  0  0  0  0  0  0  0  0  0  0
    0.2586   -0.6896    0.0000 C   0  0  0  0  0  0  0  0  0  0  0  0
   -1.2221   -0.4499    0.0000 O   0  0  0  0  0  0  0  0  0  0  0  0
    0.7913   -2.0918    0.0000 C   0  0  0  0  0  0  0  0  0  0  0  0
   -0.7063   -2.0082    0.0000 C   0  0  0  0  0  0  0  0  0  0  0  0
  2  1  1  6
  2  3  1  0
  3  4  1  0
  4  5  1  0
  5  6  2  0
  5  7  1  0
  7  8  1  0
  8  9  2  0
  8 10  1  0
 10 11  1  0
 11 12  1  0
 11 13  1  0
 11 14  1  0
  2 15  1  0
 15 16  1  6
 16 17  1  0
 18 17  1  6
 18 19  1  0
 19 20  1  1
 20 21  1  1
 20 22  1  0
 23 22  1  1
 23 24  1  0
 24 25  1  0
 25 26  1  1
 25 27  1  0
 27 28  1  0
 28 29  1  0
 29 30  1  6
 29 31  1  0
 31 32  1  6
 32 33  1  0
 33 34  1  1
 33 35  1  0
 35 36  1  6
 35 15  1  0
 35 18  1  0
 31 19  1  0
 29 23  1  0
M  END
>  <MS_ID>  (1773) 
MS1840

>  <SMILES>  (1773) 
C[C@H](CCC(=O)OC(=O)OC(C)(C)C)[C@H]1CC[C@H]2[C@@H]3[C@H](O)C[C@@H]4C[C@H](O)CC[C@]4(C)[C@H]3C[C@H](O)[C@]12C

>  <Structure_dimension>  (1773) 
2D

$$$$
MS1841
     RDKit          2D

 30 33  0  0  0  0  0  0  0  0999 V2000
   -4.0199   -3.1584    0.0000 C   0  0  0  0  0  0  0  0  0  0  0  0
   -2.9902   -2.0677    0.0000 C   0  0  0  0  0  0  0  0  0  0  0  0
   -3.4199   -0.6306    0.0000 C   0  0  0  0  0  0  0  0  0  0  0  0
   -4.8793   -0.2841    0.0000 C   0  0  0  0  0  0  0  0  0  0  0  0
   -5.3090    1.1530    0.0000 C   0  0  0  0  0  0  0  0  0  0  0  0
   -4.2792    2.2437    0.0000 O   0  0  0  0  0  0  0  0  0  0  0  0
   -6.7684    1.4995    0.0000 C   0  0  0  0  0  0  0  0  0  0  0  0
   -7.1981    2.9366    0.0000 C   0  0  0  0  0  0  0  0  0  0  0  0
   -8.6575    3.2831    0.0000 N   0  0  0  0  0  0  0  0  0  0  0  0
   -1.5307   -2.4142    0.0000 C   0  0  0  0  0  0  0  0  0  0  0  0
   -0.9532   -3.7985    0.0000 C   0  0  0  0  0  0  0  0  0  0  0  0
    0.5419   -3.6770    0.0000 C   0  0  0  0  0  0  0  0  0  0  0  0
    0.8883   -2.2176    0.0000 C   0  0  0  0  0  0  0  0  0  0  0  0
    2.2047   -1.4985    0.0000 C   0  0  0  0  0  0  0  0  0  0  0  0
    3.4857   -2.2790    0.0000 C   0  0  0  0  0  0  0  0  0  0  0  0
    4.8021   -1.5599    0.0000 C   0  0  0  0  0  0  0  0  0  0  0  0
    4.8375   -0.0603    0.0000 C   0  0  0  0  0  0  0  0  0  0  0  0
    6.1539    0.6588    0.0000 C   0  0  0  0  0  0  0  0  0  0  0  0
    6.1894    2.1583    0.0000 C   0  0  0  0  0  0  0  0  0  0  0  0
    7.5058    2.8774    0.0000 O   0  0  0  0  0  0  0  0  0  0  0  0
    4.9084    2.9388    0.0000 C   0  0  0  0  0  0  0  0  0  0  0  0
    3.5920    2.2197    0.0000 C   0  0  0  0  0  0  0  0  0  0  0  0
    3.5566    0.7202    0.0000 C   0  0  0  0  0  0  0  0  0  0  0  0
    2.2756    1.5007    0.0000 C   0  0  0  0  0  0  0  0  0  0  0  0
    2.2402    0.0011    0.0000 C   0  0  0  0  0  0  0  0  0  0  0  0
    0.9592    0.7816    0.0000 C   0  0  0  0  0  0  0  0  0  0  0  0
   -0.3572    0.0625    0.0000 C   0  0  0  0  0  0  0  0  0  0  0  0
   -1.6381    0.8430    0.0000 O   0  0  0  0  0  0  0  0  0  0  0  0
   -0.3926   -1.4371    0.0000 C   0  0  0  0  0  0  0  0  0  0  0  0
   -1.7481   -0.7948    0.0000 C   0  0  0  0  0  0  0  0  0  0  0  0
  2  1  1  6
  2  3  1  0
  3  4  1  0
  4  5  1  0
  5  6  2  0
  5  7  1  0
  7  8  1  0
  8  9  1  0
  2 10  1  0
 10 11  1  6
 11 12  1  0
 13 12  1  6
 13 14  1  0
 14 15  1  1
 15 16  1  0
 17 16  1  1
 17 18  1  0
 18 19  1  0
 19 20  1  1
 19 21  1  0
 21 22  1  0
 22 23  1  0
 23 24  1  6
 23 25  1  0
 25 26  1  6
 26 27  1  0
 27 28  2  0
 27 29  1  0
 29 30  1  6
 29 10  1  0
 29 13  1  0
 25 14  1  0
 23 17  1  0
M  END
>  <MS_ID>  (1774) 
MS1841

>  <SMILES>  (1774) 
C[C@H](CCC(=O)CCN)[C@H]1CC[C@H]2[C@@H]3CC[C@@H]4C[C@H](O)CC[C@]4(C)[C@H]3CC(=O)[C@]12C

>  <Structure_dimension>  (1774) 
2D

$$$$
MS1842
     RDKit          2D

 36 39  0  0  0  0  0  0  0  0999 V2000
   -2.1003   -5.0743    0.0000 C   0  0  0  0  0  0  0  0  0  0  0  0
   -1.5720   -3.6705    0.0000 C   0  0  0  0  0  0  0  0  0  0  0  0
   -2.5236   -2.5110    0.0000 C   0  0  0  0  0  0  0  0  0  0  0  0
   -4.0035   -2.7553    0.0000 C   0  0  0  0  0  0  0  0  0  0  0  0
   -4.9551   -1.5958    0.0000 C   0  0  0  0  0  0  0  0  0  0  0  0
   -6.4351   -1.8402    0.0000 O   0  0  0  0  0  0  0  0  0  0  0  0
   -4.4268   -0.1920    0.0000 O   0  0  0  0  0  0  0  0  0  0  0  0
   -5.3784    0.9675    0.0000 C   0  0  0  0  0  0  0  0  0  0  0  0
   -6.8584    0.7231    0.0000 O   0  0  0  0  0  0  0  0  0  0  0  0
   -4.8501    2.3714    0.0000 N   0  0  0  0  0  0  0  0  0  0  0  0
   -5.8017    3.5309    0.0000 S   0  0  0  0  0  0  0  0  0  0  0  0
   -4.6422    4.4825    0.0000 O   0  0  0  0  0  0  0  0  0  0  0  0
   -6.9612    2.5793    0.0000 O   0  0  0  0  0  0  0  0  0  0  0  0
   -6.7533    4.6904    0.0000 O   0  0  0  0  0  0  0  0  0  0  0  0
   -0.0920   -3.4261    0.0000 C   0  0  0  0  0  0  0  0  0  0  0  0
    0.9756   -4.4798    0.0000 C   0  0  0  0  0  0  0  0  0  0  0  0
    2.3076   -3.7900    0.0000 C   0  0  0  0  0  0  0  0  0  0  0  0
    2.0632   -2.3101    0.0000 C   0  0  0  0  0  0  0  0  0  0  0  0
    2.9996   -1.1382    0.0000 C   0  0  0  0  0  0  0  0  0  0  0  0
    4.4826   -1.3631    0.0000 C   0  0  0  0  0  0  0  0  0  0  0  0
    5.0293   -2.7599    0.0000 O   0  0  0  0  0  0  0  0  0  0  0  0
    5.4189   -0.1912    0.0000 C   0  0  0  0  0  0  0  0  0  0  0  0
    6.9019   -0.4161    0.0000 O   0  0  0  0  0  0  0  0  0  0  0  0
    4.8722    1.2056    0.0000 C   0  0  0  0  0  0  0  0  0  0  0  0
    5.8085    2.3775    0.0000 C   0  0  0  0  0  0  0  0  0  0  0  0
    5.2617    3.7743    0.0000 C   0  0  0  0  0  0  0  0  0  0  0  0
    6.1980    4.9462    0.0000 O   0  0  0  0  0  0  0  0  0  0  0  0
    3.7787    3.9992    0.0000 C   0  0  0  0  0  0  0  0  0  0  0  0
    2.8424    2.8273    0.0000 C   0  0  0  0  0  0  0  0  0  0  0  0
    3.3891    1.4305    0.0000 C   0  0  0  0  0  0  0  0  0  0  0  0
    1.9061    1.6555    0.0000 C   0  0  0  0  0  0  0  0  0  0  0  0
    2.4528    0.2586    0.0000 C   0  0  0  0  0  0  0  0  0  0  0  0
    0.9698    0.4836    0.0000 C   0  0  0  0  0  0  0  0  0  0  0  0
    0.0335   -0.6883    0.0000 C   0  0  0  0  0  0  0  0  0  0  0  0
    0.5802   -2.0851    0.0000 C   0  0  0  0  0  0  0  0  0  0  0  0
   -0.9182   -2.0165    0.0000 C   0  0  0  0  0  0  0  0  0  0  0  0
  2  1  1  6
  2  3  1  0
  3  4  1  0
  4  5  1  0
  5  6  2  0
  5  7  1  0
  7  8  1  0
  8  9  2  0
  8 10  1  0
 10 11  1  0
 11 12  2  0
 11 13  2  0
 11 14  1  0
  2 15  1  0
 15 16  1  6
 16 17  1  0
 18 17  1  6
 18 19  1  0
 19 20  1  1
 20 21  1  1
 20 22  1  0
 22 23  1  1
 22 24  1  0
 24 25  1  1
 25 26  1  0
 26 27  1  1
 26 28  1  0
 28 29  1  0
 29 30  1  0
 30 31  1  6
 30 32  1  0
 32 33  1  6
 33 34  1  0
 34 35  1  0
 35 36  1  6
 35 15  1  0
 35 18  1  0
 32 19  1  0
 30 24  1  0
M  END
>  <MS_ID>  (1775) 
MS1842

>  <SMILES>  (1775) 
C[C@H](CCC(=O)OC(=O)NS(=O)(=O)O)[C@H]1CC[C@H]2[C@@H]3[C@H](O)[C@H](O)[C@@H]4C[C@H](O)CC[C@]4(C)[C@H]3CC[C@]12C

>  <Structure_dimension>  (1775) 
2D

$$$$
MS1843
     RDKit          2D

 39 43  0  0  0  0  0  0  0  0999 V2000
   -0.8939   -4.6846    0.0000 C   0  0  0  0  0  0  0  0  0  0  0  0
   -0.3097   -3.3030    0.0000 C   0  0  0  0  0  0  0  0  0  0  0  0
   -1.2141   -2.1063    0.0000 C   0  0  0  0  0  0  0  0  0  0  0  0
   -2.7027   -2.2912    0.0000 C   0  0  0  0  0  0  0  0  0  0  0  0
   -3.6070   -1.0944    0.0000 C   0  0  0  0  0  0  0  0  0  0  0  0
   -3.0228    0.2871    0.0000 O   0  0  0  0  0  0  0  0  0  0  0  0
   -5.0956   -1.2793    0.0000 N   0  0  0  0  0  0  0  0  0  0  0  0
   -5.9999   -0.0826    0.0000 C   0  0  0  0  0  0  0  0  0  0  0  0
   -5.4157    1.2990    0.0000 C   0  0  0  0  0  0  0  0  0  0  0  0
   -6.3201    2.4957    0.0000 C   0  0  0  0  0  0  0  0  0  0  0  0
   -7.8087    2.3109    0.0000 C   0  0  0  0  0  0  0  0  0  0  0  0
   -8.7130    3.5076    0.0000 O   0  0  0  0  0  0  0  0  0  0  0  0
   -8.3929    0.9293    0.0000 C   0  0  0  0  0  0  0  0  0  0  0  0
   -9.8814    0.7445    0.0000 C   0  0  0  0  0  0  0  0  0  0  0  0
  -10.7858    1.9412    0.0000 O   0  0  0  0  0  0  0  0  0  0  0  0
  -10.4657   -0.6371    0.0000 O   0  0  0  0  0  0  0  0  0  0  0  0
   -7.4885   -0.2674    0.0000 C   0  0  0  0  0  0  0  0  0  0  0  0
    1.1788   -3.1182    0.0000 C   0  0  0  0  0  0  0  0  0  0  0  0
    2.2033   -4.2138    0.0000 C   0  0  0  0  0  0  0  0  0  0  0  0
    3.5619   -3.5780    0.0000 C   0  0  0  0  0  0  0  0  0  0  0  0
    3.3771   -2.0895    0.0000 C   0  0  0  0  0  0  0  0  0  0  0  0
    4.3596   -0.9561    0.0000 C   0  0  0  0  0  0  0  0  0  0  0  0
    5.8325   -1.2403    0.0000 C   0  0  0  0  0  0  0  0  0  0  0  0
    6.3227   -2.6579    0.0000 O   0  0  0  0  0  0  0  0  0  0  0  0
    6.8150   -0.1068    0.0000 C   0  0  0  0  0  0  0  0  0  0  0  0
    8.2878   -0.3910    0.0000 O   0  0  0  0  0  0  0  0  0  0  0  0
    6.3247    1.3108    0.0000 C   0  0  0  0  0  0  0  0  0  0  0  0
    7.3072    2.4442    0.0000 C   0  0  0  0  0  0  0  0  0  0  0  0
    6.8169    3.8618    0.0000 C   0  0  0  0  0  0  0  0  0  0  0  0
    7.7995    4.9952    0.0000 O   0  0  0  0  0  0  0  0  0  0  0  0
    5.3441    4.1460    0.0000 C   0  0  0  0  0  0  0  0  0  0  0  0
    4.3616    3.0126    0.0000 C   0  0  0  0  0  0  0  0  0  0  0  0
    4.8519    1.5950    0.0000 C   0  0  0  0  0  0  0  0  0  0  0  0
    3.3790    1.8792    0.0000 C   0  0  0  0  0  0  0  0  0  0  0  0
    3.8693    0.4615    0.0000 C   0  0  0  0  0  0  0  0  0  0  0  0
    2.3965    0.7457    0.0000 C   0  0  0  0  0  0  0  0  0  0  0  0
    1.4140   -0.3877    0.0000 C   0  0  0  0  0  0  0  0  0  0  0  0
    1.9043   -1.8053    0.0000 C   0  0  0  0  0  0  0  0  0  0  0  0
    0.4098   -1.6766    0.0000 C   0  0  0  0  0  0  0  0  0  0  0  0
  2  1  1  6
  2  3  1  0
  3  4  1  0
  4  5  1  0
  5  6  2  0
  5  7  1  0
  7  8  1  0
  8  9  2  0
  9 10  1  0
 10 11  2  0
 11 12  1  0
 11 13  1  0
 13 14  1  0
 14 15  2  0
 14 16  1  0
 13 17  2  0
  2 18  1  0
 18 19  1  6
 19 20  1  0
 21 20  1  6
 21 22  1  0
 22 23  1  1
 23 24  1  1
 23 25  1  0
 25 26  1  1
 25 27  1  0
 27 28  1  1
 28 29  1  0
 29 30  1  1
 29 31  1  0
 31 32  1  0
 32 33  1  0
 33 34  1  6
 33 35  1  0
 35 36  1  6
 36 37  1  0
 37 38  1  0
 38 39  1  6
 17  8  1  0
 38 18  1  0
 38 21  1  0
 35 22  1  0
 33 27  1  0
M  END
>  <MS_ID>  (1776) 
MS1843

>  <SMILES>  (1776) 
C[C@H](CCC(=O)Nc1ccc(O)c(C(=O)O)c1)[C@H]1CC[C@H]2[C@@H]3[C@H](O)[C@H](O)[C@@H]4C[C@H](O)CC[C@]4(C)[C@H]3CC[C@]12C

>  <Structure_dimension>  (1776) 
2D

$$$$
MS1844
     RDKit          2D

 30 33  0  0  0  0  0  0  0  0999 V2000
   -4.9282   -2.3226    0.0000 C   0  0  0  0  0  0  0  0  0  0  0  0
   -3.7737   -1.3649    0.0000 C   0  0  0  0  0  0  0  0  0  0  0  0
   -4.0259    0.1138    0.0000 C   0  0  0  0  0  0  0  0  0  0  0  0
   -5.4325    0.6347    0.0000 C   0  0  0  0  0  0  0  0  0  0  0  0
   -5.6847    2.1133    0.0000 C   0  0  0  0  0  0  0  0  0  0  0  0
   -4.5303    3.0711    0.0000 O   0  0  0  0  0  0  0  0  0  0  0  0
   -7.0914    2.6342    0.0000 O   0  0  0  0  0  0  0  0  0  0  0  0
   -2.3671   -1.8858    0.0000 C   0  0  0  0  0  0  0  0  0  0  0  0
   -1.9617   -3.3300    0.0000 C   0  0  0  0  0  0  0  0  0  0  0  0
   -0.4629   -3.3907    0.0000 C   0  0  0  0  0  0  0  0  0  0  0  0
    0.0580   -1.9841    0.0000 C   0  0  0  0  0  0  0  0  0  0  0  0
    1.4519   -1.4300    0.0000 C   0  0  0  0  0  0  0  0  0  0  0  0
    2.6287   -2.3601    0.0000 C   0  0  0  0  0  0  0  0  0  0  0  0
    2.4116   -3.8443    0.0000 O   0  0  0  0  0  0  0  0  0  0  0  0
    4.0226   -1.8060    0.0000 C   0  0  0  0  0  0  0  0  0  0  0  0
    4.2397   -0.3218    0.0000 C   0  0  0  0  0  0  0  0  0  0  0  0
    5.6336    0.2323    0.0000 C   0  0  0  0  0  0  0  0  0  0  0  0
    5.8507    1.7166    0.0000 C   0  0  0  0  0  0  0  0  0  0  0  0
    7.2446    2.2707    0.0000 O   0  0  0  0  0  0  0  0  0  0  0  0
    4.6739    2.6467    0.0000 C   0  0  0  0  0  0  0  0  0  0  0  0
    3.2800    2.0925    0.0000 C   0  0  0  0  0  0  0  0  0  0  0  0
    3.0629    0.6083    0.0000 C   0  0  0  0  0  0  0  0  0  0  0  0
    1.8861    1.5384    0.0000 C   0  0  0  0  0  0  0  0  0  0  0  0
    1.6690    0.0542    0.0000 C   0  0  0  0  0  0  0  0  0  0  0  0
    0.4922    0.9843    0.0000 C   0  0  0  0  0  0  0  0  0  0  0  0
   -0.9017    0.4302    0.0000 C   0  0  0  0  0  0  0  0  0  0  0  0
   -2.0786    1.3603    0.0000 C   0  0  0  0  0  0  0  0  0  0  0  0
   -1.8615    2.8445    0.0000 O   0  0  0  0  0  0  0  0  0  0  0  0
   -1.1188   -1.0540    0.0000 C   0  0  0  0  0  0  0  0  0  0  0  0
   -2.3864   -0.2520    0.0000 C   0  0  0  0  0  0  0  0  0  0  0  0
  2  1  1  6
  2  3  1  0
  3  4  1  0
  4  5  1  0
  5  6  2  0
  5  7  1  0
  2  8  1  0
  8  9  1  6
  9 10  1  0
 11 10  1  6
 11 12  1  0
 12 13  1  1
 13 14  1  6
 13 15  1  0
 16 15  1  1
 16 17  1  0
 17 18  1  0
 18 19  1  1
 18 20  1  0
 20 21  1  0
 21 22  1  0
 22 23  1  6
 22 24  1  0
 24 25  1  6
 25 26  1  0
 26 27  1  1
 27 28  1  0
 26 29  1  0
 29 30  1  6
 29  8  1  0
 29 11  1  0
 24 12  1  0
 22 16  1  0
M  END
>  <MS_ID>  (1777) 
MS1844

>  <SMILES>  (1777) 
C[C@H](CCC(=O)O)[C@H]1CC[C@H]2[C@@H]3[C@@H](O)C[C@@H]4C[C@H](O)CC[C@]4(C)[C@H]3C[C@H](CO)[C@]12C

>  <Structure_dimension>  (1777) 
2D

$$$$
MS1845
     RDKit          2D

 29 32  0  0  0  0  0  0  0  0999 V2000
   -5.1421   -2.1269    0.0000 C   0  0  0  0  0  0  0  0  0  0  0  0
   -4.0091   -1.1439    0.0000 C   0  0  0  0  0  0  0  0  0  0  0  0
   -4.2938    0.3288    0.0000 C   0  0  0  0  0  0  0  0  0  0  0  0
   -5.7116    0.8186    0.0000 C   0  0  0  0  0  0  0  0  0  0  0  0
   -5.9963    2.2913    0.0000 C   0  0  0  0  0  0  0  0  0  0  0  0
   -4.8632    3.2743    0.0000 O   0  0  0  0  0  0  0  0  0  0  0  0
   -7.4141    2.7811    0.0000 O   0  0  0  0  0  0  0  0  0  0  0  0
   -2.5913   -1.6337    0.0000 C   0  0  0  0  0  0  0  0  0  0  0  0
   -2.1542   -3.0686    0.0000 C   0  0  0  0  0  0  0  0  0  0  0  0
   -0.6544   -3.0963    0.0000 C   0  0  0  0  0  0  0  0  0  0  0  0
   -0.1646   -1.6785    0.0000 C   0  0  0  0  0  0  0  0  0  0  0  0
    1.2167   -1.0938    0.0000 C   0  0  0  0  0  0  0  0  0  0  0  0
    2.4137   -1.9977    0.0000 C   0  0  0  0  0  0  0  0  0  0  0  0
    2.2294   -3.4864    0.0000 C   0  0  0  0  0  0  0  0  0  0  0  0
    3.4265   -4.3903    0.0000 O   0  0  0  0  0  0  0  0  0  0  0  0
    3.7951   -1.4130    0.0000 C   0  0  0  0  0  0  0  0  0  0  0  0
    3.9794    0.0756    0.0000 C   0  0  0  0  0  0  0  0  0  0  0  0
    5.3607    0.6603    0.0000 C   0  0  0  0  0  0  0  0  0  0  0  0
    5.5451    2.1489    0.0000 C   0  0  0  0  0  0  0  0  0  0  0  0
    6.9264    2.7336    0.0000 O   0  0  0  0  0  0  0  0  0  0  0  0
    4.3480    3.0529    0.0000 C   0  0  0  0  0  0  0  0  0  0  0  0
    2.9667    2.4682    0.0000 C   0  0  0  0  0  0  0  0  0  0  0  0
    2.7824    0.9795    0.0000 C   0  0  0  0  0  0  0  0  0  0  0  0
    1.5853    1.8835    0.0000 C   0  0  0  0  0  0  0  0  0  0  0  0
    1.4010    0.3948    0.0000 C   0  0  0  0  0  0  0  0  0  0  0  0
    0.2040    1.2988    0.0000 C   0  0  0  0  0  0  0  0  0  0  0  0
   -1.1774    0.7141    0.0000 C   0  0  0  0  0  0  0  0  0  0  0  0
   -1.3617   -0.7746    0.0000 C   0  0  0  0  0  0  0  0  0  0  0  0
   -2.6467   -0.0007    0.0000 C   0  0  0  0  0  0  0  0  0  0  0  0
  2  1  1  6
  2  3  1  0
  3  4  1  0
  4  5  1  0
  5  6  2  0
  5  7  1  0
  2  8  1  0
  8  9  1  6
  9 10  1  0
 11 10  1  6
 11 12  1  0
 12 13  1  1
 13 14  1  1
 14 15  1  0
 13 16  1  0
 17 16  1  1
 17 18  1  0
 18 19  1  0
 19 20  1  6
 19 21  1  0
 21 22  1  0
 22 23  1  0
 23 24  1  6
 23 25  1  0
 25 26  1  6
 26 27  1  0
 27 28  1  0
 28 29  1  6
 28  8  1  0
 28 11  1  0
 25 12  1  0
 23 17  1  0
M  END
>  <MS_ID>  (1778) 
MS1845

>  <SMILES>  (1778) 
C[C@H](CCC(=O)O)[C@H]1CC[C@H]2[C@@H]3[C@H](CO)C[C@@H]4C[C@@H](O)CC[C@]4(C)[C@H]3CC[C@]12C

>  <Structure_dimension>  (1778) 
2D

$$$$
MS1846
     RDKit          2D

 42 45  0  0  0  0  0  0  0  0999 V2000
    2.2817   -4.9209    0.0000 C   0  0  0  0  0  0  0  0  0  0  0  0
    2.6445   -3.4655    0.0000 C   0  0  0  0  0  0  0  0  0  0  0  0
    1.5654   -2.4235    0.0000 C   0  0  0  0  0  0  0  0  0  0  0  0
    0.1236   -2.8371    0.0000 C   0  0  0  0  0  0  0  0  0  0  0  0
   -0.9555   -1.7952    0.0000 C   0  0  0  0  0  0  0  0  0  0  0  0
   -0.5927   -0.3397    0.0000 O   0  0  0  0  0  0  0  0  0  0  0  0
   -2.3974   -2.2087    0.0000 N   0  0  0  0  0  0  0  0  0  0  0  0
   -3.4765   -1.1668    0.0000 C   0  0  0  0  0  0  0  0  0  0  0  0
   -4.9183   -1.5804    0.0000 C   0  0  0  0  0  0  0  0  0  0  0  0
   -5.9974   -0.5385    0.0000 C   0  0  0  0  0  0  0  0  0  0  0  0
   -7.4393   -0.9520    0.0000 N   0  0  0  0  0  0  0  0  0  0  0  0
   -8.5184    0.0899    0.0000 C   0  0  0  0  0  0  0  0  0  0  0  0
   -9.9602   -0.3237    0.0000 C   0  0  0  0  0  0  0  0  0  0  0  0
  -11.0393    0.7182    0.0000 C   0  0  0  0  0  0  0  0  0  0  0  0
  -12.4812    0.3047    0.0000 C   0  0  0  0  0  0  0  0  0  0  0  0
  -13.5602    1.3466    0.0000 N   0  0  0  0  0  0  0  0  0  0  0  0
  -15.0021    0.9331    0.0000 C   0  0  0  0  0  0  0  0  0  0  0  0
  -16.0812    1.9750    0.0000 C   0  0  0  0  0  0  0  0  0  0  0  0
  -17.5231    1.5614    0.0000 C   0  0  0  0  0  0  0  0  0  0  0  0
  -18.6021    2.6033    0.0000 N   0  0  0  0  0  0  0  0  0  0  0  0
    4.0864   -3.0519    0.0000 C   0  0  0  0  0  0  0  0  0  0  0  0
    5.2685   -3.9753    0.0000 C   0  0  0  0  0  0  0  0  0  0  0  0
    6.5120   -3.1364    0.0000 C   0  0  0  0  0  0  0  0  0  0  0  0
    6.0984   -1.6946    0.0000 C   0  0  0  0  0  0  0  0  0  0  0  0
    6.8932   -0.4224    0.0000 C   0  0  0  0  0  0  0  0  0  0  0  0
    8.3923   -0.4747    0.0000 C   0  0  0  0  0  0  0  0  0  0  0  0
    9.0966   -1.7991    0.0000 O   0  0  0  0  0  0  0  0  0  0  0  0
    9.1871    0.7974    0.0000 C   0  0  0  0  0  0  0  0  0  0  0  0
    8.4828    2.1218    0.0000 C   0  0  0  0  0  0  0  0  0  0  0  0
    9.2776    3.3939    0.0000 C   0  0  0  0  0  0  0  0  0  0  0  0
    8.5733    4.7183    0.0000 C   0  0  0  0  0  0  0  0  0  0  0  0
    9.3681    5.9904    0.0000 O   0  0  0  0  0  0  0  0  0  0  0  0
    7.0742    4.7706    0.0000 C   0  0  0  0  0  0  0  0  0  0  0  0
    6.2794    3.4984    0.0000 C   0  0  0  0  0  0  0  0  0  0  0  0
    6.9837    2.1741    0.0000 C   0  0  0  0  0  0  0  0  0  0  0  0
    5.4846    2.2263    0.0000 C   0  0  0  0  0  0  0  0  0  0  0  0
    6.1889    0.9019    0.0000 C   0  0  0  0  0  0  0  0  0  0  0  0
    4.6898    0.9542    0.0000 C   0  0  0  0  0  0  0  0  0  0  0  0
    3.8950   -0.3180    0.0000 C   0  0  0  0  0  0  0  0  0  0  0  0
    2.3959   -0.2657    0.0000 O   0  0  0  0  0  0  0  0  0  0  0  0
    4.5993   -1.6423    0.0000 C   0  0  0  0  0  0  0  0  0  0  0  0
    3.1030   -1.7471    0.0000 C   0  0  0  0  0  0  0  0  0  0  0  0
  2  1  1  6
  2  3  1  0
  3  4  1  0
  4  5  1  0
  5  6  2  0
  5  7  1  0
  7  8  1  0
  8  9  1  0
  9 10  1  0
 10 11  1  0
 11 12  1  0
 12 13  1  0
 13 14  1  0
 14 15  1  0
 15 16  1  0
 16 17  1  0
 17 18  1  0
 18 19  1  0
 19 20  1  0
  2 21  1  0
 21 22  1  6
 22 23  1  0
 24 23  1  6
 24 25  1  0
 25 26  1  1
 26 27  1  1
 26 28  1  0
 29 28  1  1
 29 30  1  0
 30 31  1  0
 31 32  1  1
 31 33  1  0
 33 34  1  0
 34 35  1  0
 35 36  1  6
 35 37  1  0
 37 38  1  6
 38 39  1  0
 39 40  1  1
 39 41  1  0
 41 42  1  6
 41 21  1  0
 41 24  1  0
 37 25  1  0
 35 29  1  0
M  END
>  <MS_ID>  (1779) 
MS1846

>  <SMILES>  (1779) 
C[C@H](CCC(=O)NCCCNCCCCNCCCN)[C@H]1CC[C@H]2[C@@H]3[C@H](O)C[C@@H]4C[C@H](O)CC[C@]4(C)[C@H]3C[C@H](O)[C@]12C

>  <Structure_dimension>  (1779) 
2D

$$$$
MS1847
     RDKit          2D

 37 41  0  0  0  0  0  0  0  0999 V2000
   -1.1231   -4.6272    0.0000 C   0  0  0  0  0  0  0  0  0  0  0  0
   -0.4600   -3.2817    0.0000 C   0  0  0  0  0  0  0  0  0  0  0  0
   -1.2936   -2.0347    0.0000 C   0  0  0  0  0  0  0  0  0  0  0  0
   -2.7904   -2.1332    0.0000 C   0  0  0  0  0  0  0  0  0  0  0  0
   -3.6240   -0.8861    0.0000 C   0  0  0  0  0  0  0  0  0  0  0  0
   -2.9609    0.4593    0.0000 O   0  0  0  0  0  0  0  0  0  0  0  0
   -5.1208   -0.9846    0.0000 O   0  0  0  0  0  0  0  0  0  0  0  0
   -5.9544    0.2624    0.0000 C   0  0  0  0  0  0  0  0  0  0  0  0
   -5.2913    1.6079    0.0000 O   0  0  0  0  0  0  0  0  0  0  0  0
   -6.1250    2.8549    0.0000 C   0  0  0  0  0  0  0  0  0  0  0  0
   -7.6217    2.7564    0.0000 C   0  0  0  0  0  0  0  0  0  0  0  0
   -8.4554    4.0035    0.0000 O   0  0  0  0  0  0  0  0  0  0  0  0
   -8.2849    1.4110    0.0000 C   0  0  0  0  0  0  0  0  0  0  0  0
   -9.7816    1.3125    0.0000 O   0  0  0  0  0  0  0  0  0  0  0  0
   -7.4512    0.1640    0.0000 C   0  0  0  0  0  0  0  0  0  0  0  0
   -8.1143   -1.1815    0.0000 O   0  0  0  0  0  0  0  0  0  0  0  0
    1.0368   -3.1833    0.0000 C   0  0  0  0  0  0  0  0  0  0  0  0
    1.9962   -4.3363    0.0000 C   0  0  0  0  0  0  0  0  0  0  0  0
    3.3893   -3.7802    0.0000 C   0  0  0  0  0  0  0  0  0  0  0  0
    3.2908   -2.2834    0.0000 C   0  0  0  0  0  0  0  0  0  0  0  0
    4.3373   -1.2087    0.0000 C   0  0  0  0  0  0  0  0  0  0  0  0
    5.7912   -1.5776    0.0000 C   0  0  0  0  0  0  0  0  0  0  0  0
    6.8376   -0.5029    0.0000 C   0  0  0  0  0  0  0  0  0  0  0  0
    6.4302    0.9407    0.0000 C   0  0  0  0  0  0  0  0  0  0  0  0
    7.4766    2.0154    0.0000 C   0  0  0  0  0  0  0  0  0  0  0  0
    7.0691    3.4590    0.0000 C   0  0  0  0  0  0  0  0  0  0  0  0
    8.1155    4.5337    0.0000 O   0  0  0  0  0  0  0  0  0  0  0  0
    5.6152    3.8279    0.0000 C   0  0  0  0  0  0  0  0  0  0  0  0
    4.5687    2.7532    0.0000 C   0  0  0  0  0  0  0  0  0  0  0  0
    4.9762    1.3096    0.0000 C   0  0  0  0  0  0  0  0  0  0  0  0
    3.5223    1.6785    0.0000 C   0  0  0  0  0  0  0  0  0  0  0  0
    3.9298    0.2349    0.0000 C   0  0  0  0  0  0  0  0  0  0  0  0
    2.4759    0.6038    0.0000 C   0  0  0  0  0  0  0  0  0  0  0  0
    1.4294   -0.4709    0.0000 C   0  0  0  0  0  0  0  0  0  0  0  0
   -0.0245   -0.1020    0.0000 O   0  0  0  0  0  0  0  0  0  0  0  0
    1.8369   -1.9145    0.0000 C   0  0  0  0  0  0  0  0  0  0  0  0
    0.3524   -1.6996    0.0000 C   0  0  0  0  0  0  0  0  0  0  0  0
  2  1  1  6
  2  3  1  0
  3  4  1  0
  4  5  1  0
  5  6  2  0
  5  7  1  0
  8  7  1  1
  8  9  1  0
  9 10  1  0
 10 11  1  0
 11 12  1  1
 11 13  1  0
 13 14  1  1
 13 15  1  0
 15 16  1  6
  2 17  1  0
 17 18  1  6
 18 19  1  0
 20 19  1  6
 20 21  1  0
 21 22  1  1
 22 23  1  0
 24 23  1  1
 24 25  1  0
 25 26  1  0
 26 27  2  0
 26 28  1  0
 28 29  1  0
 29 30  1  0
 30 31  1  6
 30 32  1  0
 32 33  1  6
 33 34  1  0
 34 35  1  1
 34 36  1  0
 36 37  1  6
 15  8  1  0
 36 17  1  0
 36 20  1  0
 32 21  1  0
 30 24  1  0
M  END
>  <MS_ID>  (1780) 
MS1847

>  <SMILES>  (1780) 
C[C@H](CCC(=O)O[C@@H]1OC[C@H](O)[C@H](O)[C@H]1O)[C@H]1CC[C@H]2[C@@H]3CC[C@@H]4CC(=O)CC[C@]4(C)[C@H]3C[C@H](O)[C@]12C

>  <Structure_dimension>  (1780) 
2D

$$$$
MS1848
     RDKit          2D

 37 42  0  0  0  0  0  0  0  0999 V2000
   -1.8999   -3.5521    0.0000 C   0  0  0  0  0  0  0  0  0  0  0  0
   -1.0027   -2.3500    0.0000 C   0  0  0  0  0  0  0  0  0  0  0  0
   -1.5951   -0.9720    0.0000 C   0  0  0  0  0  0  0  0  0  0  0  0
   -3.0848   -0.7960    0.0000 C   0  0  0  0  0  0  0  0  0  0  0  0
   -3.6773    0.5820    0.0000 C   0  0  0  0  0  0  0  0  0  0  0  0
   -2.7801    1.7841    0.0000 O   0  0  0  0  0  0  0  0  0  0  0  0
   -5.1669    0.7579    0.0000 N   0  0  0  0  0  0  0  0  0  0  0  0
   -5.9002    2.0665    0.0000 C   0  0  0  0  0  0  0  0  0  0  0  0
   -7.3713    1.7735    0.0000 C   0  0  0  0  0  0  0  0  0  0  0  0
   -8.5734    2.6707    0.0000 C   0  0  0  0  0  0  0  0  0  0  0  0
   -9.9514    2.0782    0.0000 C   0  0  0  0  0  0  0  0  0  0  0  0
  -10.1273    0.5886    0.0000 C   0  0  0  0  0  0  0  0  0  0  0  0
   -8.9252   -0.3086    0.0000 C   0  0  0  0  0  0  0  0  0  0  0  0
   -7.5472    0.2838    0.0000 C   0  0  0  0  0  0  0  0  0  0  0  0
   -6.1848   -0.3438    0.0000 C   0  0  0  0  0  0  0  0  0  0  0  0
   -5.8918   -1.8149    0.0000 O   0  0  0  0  0  0  0  0  0  0  0  0
    0.4870   -2.5259    0.0000 C   0  0  0  0  0  0  0  0  0  0  0  0
    1.2202   -3.8345    0.0000 C   0  0  0  0  0  0  0  0  0  0  0  0
    2.6913   -3.5415    0.0000 C   0  0  0  0  0  0  0  0  0  0  0  0
    2.8673   -2.0518    0.0000 C   0  0  0  0  0  0  0  0  0  0  0  0
    4.0920   -1.1858    0.0000 C   0  0  0  0  0  0  0  0  0  0  0  0
    5.4544   -1.8134    0.0000 C   0  0  0  0  0  0  0  0  0  0  0  0
    5.5920   -3.3071    0.0000 O   0  0  0  0  0  0  0  0  0  0  0  0
    6.6791   -0.9474    0.0000 C   0  0  0  0  0  0  0  0  0  0  0  0
    6.5415    0.5463    0.0000 C   0  0  0  0  0  0  0  0  0  0  0  0
    7.7662    1.4123    0.0000 C   0  0  0  0  0  0  0  0  0  0  0  0
    7.6286    2.9060    0.0000 C   0  0  0  0  0  0  0  0  0  0  0  0
    8.8533    3.7720    0.0000 O   0  0  0  0  0  0  0  0  0  0  0  0
    6.2662    3.5336    0.0000 C   0  0  0  0  0  0  0  0  0  0  0  0
    5.0415    2.6676    0.0000 C   0  0  0  0  0  0  0  0  0  0  0  0
    5.1791    1.1739    0.0000 C   0  0  0  0  0  0  0  0  0  0  0  0
    3.8167    1.8016    0.0000 C   0  0  0  0  0  0  0  0  0  0  0  0
    3.9544    0.3079    0.0000 C   0  0  0  0  0  0  0  0  0  0  0  0
    2.5920    0.9355    0.0000 C   0  0  0  0  0  0  0  0  0  0  0  0
    1.3673    0.0695    0.0000 C   0  0  0  0  0  0  0  0  0  0  0  0
    1.5049   -1.4242    0.0000 C   0  0  0  0  0  0  0  0  0  0  0  0
    0.0844   -0.9424    0.0000 C   0  0  0  0  0  0  0  0  0  0  0  0
  2  1  1  6
  2  3  1  0
  3  4  1  0
  4  5  1  0
  5  6  2  0
  5  7  1  0
  7  8  1  0
  8  9  1  0
  9 10  2  0
 10 11  1  0
 11 12  2  0
 12 13  1  0
 13 14  2  0
 14 15  1  0
 15 16  2  0
  2 17  1  0
 17 18  1  6
 18 19  1  0
 20 19  1  6
 20 21  1  0
 21 22  1  1
 22 23  1  1
 22 24  1  0
 25 24  1  1
 25 26  1  0
 26 27  1  0
 27 28  1  1
 27 29  1  0
 29 30  1  0
 30 31  1  0
 31 32  1  6
 31 33  1  0
 33 34  1  6
 34 35  1  0
 35 36  1  0
 36 37  1  6
 15  7  1  0
 36 17  1  0
 14  9  1  0
 36 20  1  0
 33 21  1  0
 31 25  1  0
M  END
>  <MS_ID>  (1781) 
MS1848

>  <SMILES>  (1781) 
C[C@H](CCC(=O)N1Cc2ccccc2C1=O)[C@H]1CC[C@H]2[C@@H]3[C@H](O)C[C@@H]4C[C@H](O)CC[C@]4(C)[C@H]3CC[C@]12C

>  <Structure_dimension>  (1781) 
2D

$$$$
MS1849
     RDKit          2D

 29 32  0  0  0  0  0  0  0  0999 V2000
   -5.4679   -1.9280    0.0000 C   0  0  0  0  0  0  0  0  0  0  0  0
   -4.2629   -1.0348    0.0000 C   0  0  0  0  0  0  0  0  0  0  0  0
   -4.4339    0.4554    0.0000 C   0  0  0  0  0  0  0  0  0  0  0  0
   -5.8100    1.0524    0.0000 C   0  0  0  0  0  0  0  0  0  0  0  0
   -5.9810    2.5426    0.0000 C   0  0  0  0  0  0  0  0  0  0  0  0
   -4.7760    3.4359    0.0000 O   0  0  0  0  0  0  0  0  0  0  0  0
   -7.3571    3.1396    0.0000 O   0  0  0  0  0  0  0  0  0  0  0  0
   -2.8868   -1.6318    0.0000 C   0  0  0  0  0  0  0  0  0  0  0  0
   -2.5609   -3.0959    0.0000 C   0  0  0  0  0  0  0  0  0  0  0  0
   -1.0677   -3.2385    0.0000 C   0  0  0  0  0  0  0  0  0  0  0  0
   -0.4707   -1.8624    0.0000 C   0  0  0  0  0  0  0  0  0  0  0  0
    0.9514   -1.3853    0.0000 C   0  0  0  0  0  0  0  0  0  0  0  0
    2.0756   -2.3783    0.0000 C   0  0  0  0  0  0  0  0  0  0  0  0
    1.7778   -3.8484    0.0000 O   0  0  0  0  0  0  0  0  0  0  0  0
    3.4977   -1.9011    0.0000 C   0  0  0  0  0  0  0  0  0  0  0  0
    3.7956   -0.4310    0.0000 C   0  0  0  0  0  0  0  0  0  0  0  0
    5.2177    0.0461    0.0000 C   0  0  0  0  0  0  0  0  0  0  0  0
    5.5155    1.5163    0.0000 C   0  0  0  0  0  0  0  0  0  0  0  0
    6.9376    1.9934    0.0000 C   0  0  0  0  0  0  0  0  0  0  0  0
    8.0618    1.0004    0.0000 Cl  0  0  0  0  0  0  0  0  0  0  0  0
    4.3912    2.5093    0.0000 C   0  0  0  0  0  0  0  0  0  0  0  0
    2.9692    2.0321    0.0000 C   0  0  0  0  0  0  0  0  0  0  0  0
    2.6713    0.5620    0.0000 C   0  0  0  0  0  0  0  0  0  0  0  0
    1.5471    1.5550    0.0000 C   0  0  0  0  0  0  0  0  0  0  0  0
    1.2492    0.0849    0.0000 C   0  0  0  0  0  0  0  0  0  0  0  0
    0.1250    1.0779    0.0000 C   0  0  0  0  0  0  0  0  0  0  0  0
   -1.2971    0.6007    0.0000 C   0  0  0  0  0  0  0  0  0  0  0  0
   -1.5950   -0.8694    0.0000 C   0  0  0  0  0  0  0  0  0  0  0  0
   -2.8169    0.0007    0.0000 C   0  0  0  0  0  0  0  0  0  0  0  0
  2  1  1  6
  2  3  1  0
  3  4  1  0
  4  5  1  0
  5  6  2  0
  5  7  1  0
  2  8  1  0
  8  9  1  6
  9 10  1  0
 11 10  1  6
 11 12  1  0
 12 13  1  1
 13 14  1  6
 13 15  1  0
 16 15  1  1
 16 17  1  0
 17 18  1  0
 18 19  1  1
 19 20  1  0
 18 21  1  0
 21 22  1  0
 22 23  1  0
 23 24  1  6
 23 25  1  0
 25 26  1  6
 26 27  1  0
 27 28  1  0
 28 29  1  6
 28  8  1  0
 28 11  1  0
 25 12  1  0
 23 16  1  0
M  END
>  <MS_ID>  (1782) 
MS1849

>  <SMILES>  (1782) 
C[C@H](CCC(=O)O)[C@H]1CC[C@H]2[C@@H]3[C@@H](O)C[C@@H]4C[C@H](CCl)CC[C@]4(C)[C@H]3CC[C@]12C

>  <Structure_dimension>  (1782) 
2D

$$$$
MS1850
     RDKit          2D

 30 33  0  0  0  0  0  0  0  0999 V2000
   -4.7493   -2.7001    0.0000 C   0  0  0  0  0  0  0  0  0  0  0  0
   -3.6928   -1.6352    0.0000 C   0  0  0  0  0  0  0  0  0  0  0  0
   -4.0867   -0.1879    0.0000 C   0  0  0  0  0  0  0  0  0  0  0  0
   -5.5371    0.1946    0.0000 C   0  0  0  0  0  0  0  0  0  0  0  0
   -5.9311    1.6420    0.0000 C   0  0  0  0  0  0  0  0  0  0  0  0
   -4.8746    2.7068    0.0000 O   0  0  0  0  0  0  0  0  0  0  0  0
   -7.3815    2.0245    0.0000 C   0  0  0  0  0  0  0  0  0  0  0  0
   -7.7754    3.4718    0.0000 O   0  0  0  0  0  0  0  0  0  0  0  0
   -2.2424   -2.0177    0.0000 C   0  0  0  0  0  0  0  0  0  0  0  0
   -1.6993   -3.4160    0.0000 C   0  0  0  0  0  0  0  0  0  0  0  0
   -0.2017   -3.3316    0.0000 C   0  0  0  0  0  0  0  0  0  0  0  0
    0.1808   -1.8812    0.0000 C   0  0  0  0  0  0  0  0  0  0  0  0
    1.5146   -1.1949    0.0000 C   0  0  0  0  0  0  0  0  0  0  0  0
    2.7759   -2.0069    0.0000 C   0  0  0  0  0  0  0  0  0  0  0  0
    2.7033   -3.5051    0.0000 O   0  0  0  0  0  0  0  0  0  0  0  0
    4.1097   -1.3206    0.0000 C   0  0  0  0  0  0  0  0  0  0  0  0
    5.3709   -2.1326    0.0000 O   0  0  0  0  0  0  0  0  0  0  0  0
    4.1823    0.1776    0.0000 C   0  0  0  0  0  0  0  0  0  0  0  0
    5.5161    0.8639    0.0000 C   0  0  0  0  0  0  0  0  0  0  0  0
    5.5887    2.3621    0.0000 C   0  0  0  0  0  0  0  0  0  0  0  0
    6.9225    3.0484    0.0000 O   0  0  0  0  0  0  0  0  0  0  0  0
    4.3274    3.1741    0.0000 C   0  0  0  0  0  0  0  0  0  0  0  0
    2.9936    2.4878    0.0000 C   0  0  0  0  0  0  0  0  0  0  0  0
    2.9210    0.9896    0.0000 C   0  0  0  0  0  0  0  0  0  0  0  0
    1.6598    1.8016    0.0000 C   0  0  0  0  0  0  0  0  0  0  0  0
    1.5872    0.3033    0.0000 C   0  0  0  0  0  0  0  0  0  0  0  0
    0.3260    1.1153    0.0000 C   0  0  0  0  0  0  0  0  0  0  0  0
   -1.0078    0.4291    0.0000 C   0  0  0  0  0  0  0  0  0  0  0  0
   -1.0804   -1.0692    0.0000 C   0  0  0  0  0  0  0  0  0  0  0  0
   -2.4196   -0.3935    0.0000 C   0  0  0  0  0  0  0  0  0  0  0  0
  2  1  1  6
  2  3  1  0
  3  4  1  0
  4  5  1  0
  5  6  2  0
  5  7  1  0
  7  8  1  0
  2  9  1  0
  9 10  1  6
 10 11  1  0
 12 11  1  6
 12 13  1  0
 13 14  1  1
 14 15  1  1
 14 16  1  0
 16 17  1  1
 16 18  1  0
 18 19  1  1
 19 20  1  0
 20 21  1  1
 20 22  1  0
 22 23  1  0
 23 24  1  0
 24 25  1  6
 24 26  1  0
 26 27  1  6
 27 28  1  0
 28 29  1  0
 29 30  1  6
 29  9  1  0
 29 12  1  0
 26 13  1  0
 24 18  1  0
M  END
>  <MS_ID>  (1783) 
MS1850

>  <SMILES>  (1783) 
C[C@H](CCC(=O)CO)[C@H]1CC[C@H]2[C@@H]3[C@H](O)[C@H](O)[C@@H]4C[C@H](O)CC[C@]4(C)[C@H]3CC[C@]12C

>  <Structure_dimension>  (1783) 
2D

$$$$
MS1851
     RDKit          2D

 35 38  0  0  0  0  0  0  0  0999 V2000
   -1.1848   -4.5684    0.0000 C   0  0  0  0  0  0  0  0  0  0  0  0
   -0.5815   -3.1951    0.0000 C   0  0  0  0  0  0  0  0  0  0  0  0
   -1.4692   -1.9860    0.0000 C   0  0  0  0  0  0  0  0  0  0  0  0
   -2.9602   -2.1502    0.0000 C   0  0  0  0  0  0  0  0  0  0  0  0
   -3.8478   -0.9410    0.0000 C   0  0  0  0  0  0  0  0  0  0  0  0
   -3.2445    0.4323    0.0000 O   0  0  0  0  0  0  0  0  0  0  0  0
   -5.3388   -1.1052    0.0000 N   0  0  0  0  0  0  0  0  0  0  0  0
   -6.2265    0.1039    0.0000 C   0  0  0  0  0  0  0  0  0  0  0  0
   -7.7175   -0.0603    0.0000 C   0  0  0  0  0  0  0  0  0  0  0  0
   -8.6052    1.1489    0.0000 C   0  0  0  0  0  0  0  0  0  0  0  0
  -10.0962    0.9847    0.0000 O   0  0  0  0  0  0  0  0  0  0  0  0
  -10.9839    2.1938    0.0000 C   0  0  0  0  0  0  0  0  0  0  0  0
  -10.3806    3.5672    0.0000 O   0  0  0  0  0  0  0  0  0  0  0  0
  -12.4748    2.0297    0.0000 O   0  0  0  0  0  0  0  0  0  0  0  0
    0.9095   -3.0309    0.0000 C   0  0  0  0  0  0  0  0  0  0  0  0
    1.9187   -4.1407    0.0000 C   0  0  0  0  0  0  0  0  0  0  0  0
    3.2860   -3.5238    0.0000 C   0  0  0  0  0  0  0  0  0  0  0  0
    3.1218   -2.0328    0.0000 C   0  0  0  0  0  0  0  0  0  0  0  0
    4.1199   -0.9131    0.0000 C   0  0  0  0  0  0  0  0  0  0  0  0
    5.5887   -1.2177    0.0000 C   0  0  0  0  0  0  0  0  0  0  0  0
    6.0593   -2.6420    0.0000 O   0  0  0  0  0  0  0  0  0  0  0  0
    6.5869   -0.0980    0.0000 C   0  0  0  0  0  0  0  0  0  0  0  0
    6.1163    1.3263    0.0000 C   0  0  0  0  0  0  0  0  0  0  0  0
    7.1144    2.4459    0.0000 C   0  0  0  0  0  0  0  0  0  0  0  0
    6.6438    3.8702    0.0000 C   0  0  0  0  0  0  0  0  0  0  0  0
    7.6420    4.9899    0.0000 O   0  0  0  0  0  0  0  0  0  0  0  0
    5.1751    4.1748    0.0000 C   0  0  0  0  0  0  0  0  0  0  0  0
    4.1769    3.0551    0.0000 C   0  0  0  0  0  0  0  0  0  0  0  0
    4.6475    1.6309    0.0000 C   0  0  0  0  0  0  0  0  0  0  0  0
    3.1788    1.9354    0.0000 C   0  0  0  0  0  0  0  0  0  0  0  0
    3.6494    0.5112    0.0000 C   0  0  0  0  0  0  0  0  0  0  0  0
    2.1806    0.8158    0.0000 C   0  0  0  0  0  0  0  0  0  0  0  0
    1.1825   -0.3039    0.0000 C   0  0  0  0  0  0  0  0  0  0  0  0
    1.6530   -1.7282    0.0000 C   0  0  0  0  0  0  0  0  0  0  0  0
    0.1605   -1.5788    0.0000 C   0  0  0  0  0  0  0  0  0  0  0  0
  2  1  1  6
  2  3  1  0
  3  4  1  0
  4  5  1  0
  5  6  2  0
  5  7  1  0
  7  8  1  0
  8  9  1  0
  9 10  1  0
 10 11  1  0
 11 12  1  0
 12 13  2  0
 12 14  1  0
  2 15  1  0
 15 16  1  6
 16 17  1  0
 18 17  1  6
 18 19  1  0
 19 20  1  1
 20 21  1  6
 20 22  1  0
 23 22  1  1
 23 24  1  0
 24 25  1  0
 25 26  1  1
 25 27  1  0
 27 28  1  0
 28 29  1  0
 29 30  1  6
 29 31  1  0
 31 32  1  6
 32 33  1  0
 33 34  1  0
 34 35  1  6
 34 15  1  0
 34 18  1  0
 31 19  1  0
 29 23  1  0
M  END
>  <MS_ID>  (1784) 
MS1851

>  <SMILES>  (1784) 
C[C@H](CCC(=O)NCCCOC(=O)O)[C@H]1CC[C@H]2[C@@H]3[C@@H](O)C[C@@H]4C[C@H](O)CC[C@]4(C)[C@H]3CC[C@]12C

>  <Structure_dimension>  (1784) 
2D

$$$$
MS1852
     RDKit          2D

 33 36  0  0  0  0  0  0  0  0999 V2000
   -3.2994   -3.8229    0.0000 C   0  0  0  0  0  0  0  0  0  0  0  0
   -2.4680   -2.5743    0.0000 C   0  0  0  0  0  0  0  0  0  0  0  0
   -3.1337   -1.2301    0.0000 C   0  0  0  0  0  0  0  0  0  0  0  0
   -4.6306   -1.1345    0.0000 C   0  0  0  0  0  0  0  0  0  0  0  0
   -5.2962    0.2098    0.0000 C   0  0  0  0  0  0  0  0  0  0  0  0
   -4.4649    1.4583    0.0000 O   0  0  0  0  0  0  0  0  0  0  0  0
   -6.7932    0.3054    0.0000 C   0  0  0  0  0  0  0  0  0  0  0  0
   -7.4588    1.6497    0.0000 C   0  0  0  0  0  0  0  0  0  0  0  0
   -6.6275    2.8982    0.0000 O   0  0  0  0  0  0  0  0  0  0  0  0
   -8.9557    1.7453    0.0000 N   0  0  0  0  0  0  0  0  0  0  0  0
   -9.6214    3.0896    0.0000 O   0  0  0  0  0  0  0  0  0  0  0  0
   -0.9711   -2.6700    0.0000 C   0  0  0  0  0  0  0  0  0  0  0  0
   -0.1686   -3.9373    0.0000 C   0  0  0  0  0  0  0  0  0  0  0  0
    1.2846   -3.5657    0.0000 C   0  0  0  0  0  0  0  0  0  0  0  0
    1.3803   -2.0688    0.0000 C   0  0  0  0  0  0  0  0  0  0  0  0
    2.5568   -1.1382    0.0000 C   0  0  0  0  0  0  0  0  0  0  0  0
    3.9509   -1.6918    0.0000 C   0  0  0  0  0  0  0  0  0  0  0  0
    4.1685   -3.1759    0.0000 O   0  0  0  0  0  0  0  0  0  0  0  0
    5.1273   -0.7612    0.0000 C   0  0  0  0  0  0  0  0  0  0  0  0
    6.5215   -1.3148    0.0000 O   0  0  0  0  0  0  0  0  0  0  0  0
    4.9097    0.7229    0.0000 C   0  0  0  0  0  0  0  0  0  0  0  0
    6.0861    1.6535    0.0000 C   0  0  0  0  0  0  0  0  0  0  0  0
    5.8685    3.1376    0.0000 C   0  0  0  0  0  0  0  0  0  0  0  0
    7.0450    4.0681    0.0000 O   0  0  0  0  0  0  0  0  0  0  0  0
    4.4744    3.6912    0.0000 C   0  0  0  0  0  0  0  0  0  0  0  0
    3.2979    2.7606    0.0000 C   0  0  0  0  0  0  0  0  0  0  0  0
    3.5156    1.2765    0.0000 C   0  0  0  0  0  0  0  0  0  0  0  0
    2.1215    1.8300    0.0000 C   0  0  0  0  0  0  0  0  0  0  0  0
    2.3391    0.3459    0.0000 C   0  0  0  0  0  0  0  0  0  0  0  0
    0.9450    0.8995    0.0000 C   0  0  0  0  0  0  0  0  0  0  0  0
   -0.2315   -0.0311    0.0000 C   0  0  0  0  0  0  0  0  0  0  0  0
   -0.0138   -1.5152    0.0000 C   0  0  0  0  0  0  0  0  0  0  0  0
   -1.4582   -1.1104    0.0000 C   0  0  0  0  0  0  0  0  0  0  0  0
  2  1  1  6
  2  3  1  0
  3  4  1  0
  4  5  1  0
  5  6  2  0
  5  7  1  0
  7  8  1  0
  8  9  2  0
  8 10  1  0
 10 11  1  0
  2 12  1  0
 12 13  1  6
 13 14  1  0
 15 14  1  6
 15 16  1  0
 16 17  1  1
 17 18  1  1
 17 19  1  0
 19 20  1  1
 19 21  1  0
 21 22  1  1
 22 23  1  0
 23 24  1  1
 23 25  1  0
 25 26  1  0
 26 27  1  0
 27 28  1  6
 27 29  1  0
 29 30  1  6
 30 31  1  0
 31 32  1  0
 32 33  1  6
 32 12  1  0
 32 15  1  0
 29 16  1  0
 27 21  1  0
M  END
>  <MS_ID>  (1785) 
MS1852

>  <SMILES>  (1785) 
C[C@H](CCC(=O)CC(=O)NO)[C@H]1CC[C@H]2[C@@H]3[C@H](O)[C@H](O)[C@@H]4C[C@H](O)CC[C@]4(C)[C@H]3CC[C@]12C

>  <Structure_dimension>  (1785) 
2D

$$$$
MS1853
     RDKit          2D

 36 40  0  0  0  0  0  0  0  0999 V2000
   -1.3594   -4.5884    0.0000 C   0  0  0  0  0  0  0  0  0  0  0  0
   -0.7492   -3.2182    0.0000 C   0  0  0  0  0  0  0  0  0  0  0  0
   -1.6307   -2.0046    0.0000 C   0  0  0  0  0  0  0  0  0  0  0  0
   -3.1225   -2.1613    0.0000 C   0  0  0  0  0  0  0  0  0  0  0  0
   -4.0041   -0.9477    0.0000 C   0  0  0  0  0  0  0  0  0  0  0  0
   -3.3939    0.4226    0.0000 O   0  0  0  0  0  0  0  0  0  0  0  0
   -5.4959   -1.1043    0.0000 O   0  0  0  0  0  0  0  0  0  0  0  0
   -6.3775    0.1092    0.0000 C   0  0  0  0  0  0  0  0  0  0  0  0
   -7.8693   -0.0474    0.0000 C   0  0  0  0  0  0  0  0  0  0  0  0
   -8.7509    1.1661    0.0000 C   0  0  0  0  0  0  0  0  0  0  0  0
  -10.2509    1.1662    0.0000 C   0  0  0  0  0  0  0  0  0  0  0  0
  -10.7143    2.5929    0.0000 N   0  0  0  0  0  0  0  0  0  0  0  0
   -9.5007    3.4745    0.0000 C   0  0  0  0  0  0  0  0  0  0  0  0
   -8.2873    2.5927    0.0000 N   0  0  0  0  0  0  0  0  0  0  0  0
    0.7426   -3.0615    0.0000 C   0  0  0  0  0  0  0  0  0  0  0  0
    1.7463   -4.1763    0.0000 C   0  0  0  0  0  0  0  0  0  0  0  0
    3.1166   -3.5662    0.0000 C   0  0  0  0  0  0  0  0  0  0  0  0
    2.9599   -2.0745    0.0000 C   0  0  0  0  0  0  0  0  0  0  0  0
    3.9637   -0.9598    0.0000 C   0  0  0  0  0  0  0  0  0  0  0  0
    5.4309   -1.2718    0.0000 C   0  0  0  0  0  0  0  0  0  0  0  0
    5.8943   -2.6984    0.0000 O   0  0  0  0  0  0  0  0  0  0  0  0
    6.4347   -0.1571    0.0000 C   0  0  0  0  0  0  0  0  0  0  0  0
    5.9713    1.2695    0.0000 C   0  0  0  0  0  0  0  0  0  0  0  0
    6.9750    2.3841    0.0000 C   0  0  0  0  0  0  0  0  0  0  0  0
    6.5116    3.8107    0.0000 C   0  0  0  0  0  0  0  0  0  0  0  0
    7.5154    4.9254    0.0000 O   0  0  0  0  0  0  0  0  0  0  0  0
    5.0444    4.1227    0.0000 C   0  0  0  0  0  0  0  0  0  0  0  0
    4.0406    3.0081    0.0000 C   0  0  0  0  0  0  0  0  0  0  0  0
    4.5041    1.5815    0.0000 C   0  0  0  0  0  0  0  0  0  0  0  0
    3.0369    1.8934    0.0000 C   0  0  0  0  0  0  0  0  0  0  0  0
    3.5003    0.4668    0.0000 C   0  0  0  0  0  0  0  0  0  0  0  0
    2.0331    0.7788    0.0000 C   0  0  0  0  0  0  0  0  0  0  0  0
    1.0293   -0.3359    0.0000 C   0  0  0  0  0  0  0  0  0  0  0  0
   -0.4379   -0.0239    0.0000 O   0  0  0  0  0  0  0  0  0  0  0  0
    1.4927   -1.7625    0.0000 C   0  0  0  0  0  0  0  0  0  0  0  0
    0.0010   -1.6056    0.0000 C   0  0  0  0  0  0  0  0  0  0  0  0
  2  1  1  6
  2  3  1  0
  3  4  1  0
  4  5  1  0
  5  6  2  0
  5  7  1  0
  7  8  1  0
  8  9  1  0
  9 10  1  0
 10 11  2  0
 11 12  1  0
 12 13  1  0
 13 14  2  0
  2 15  1  0
 15 16  1  6
 16 17  1  0
 18 17  1  6
 18 19  1  0
 19 20  1  1
 20 21  1  1
 20 22  1  0
 23 22  1  1
 23 24  1  0
 24 25  1  0
 25 26  1  1
 25 27  1  0
 27 28  1  0
 28 29  1  0
 29 30  1  6
 29 31  1  0
 31 32  1  6
 32 33  1  0
 33 34  1  1
 33 35  1  0
 35 36  1  6
 14 10  1  0
 35 15  1  0
 35 18  1  0
 31 19  1  0
 29 23  1  0
M  END
>  <MS_ID>  (1786) 
MS1853

>  <SMILES>  (1786) 
C[C@H](CCC(=O)OCCc1c[nH]cn1)[C@H]1CC[C@H]2[C@@H]3[C@H](O)C[C@@H]4C[C@H](O)CC[C@]4(C)[C@H]3C[C@H](O)[C@]12C

>  <Structure_dimension>  (1786) 
2D

$$$$
MS1854
     RDKit          2D

 33 36  0  0  0  0  0  0  0  0999 V2000
  -10.7745    2.9828    0.0000 C   0  0  0  0  0  0  0  0  0  0  0  0
   -9.2765    2.9064    0.0000 S   0  0  0  0  0  0  0  0  0  0  0  0
   -8.5936    1.5708    0.0000 C   0  0  0  0  0  0  0  0  0  0  0  0
   -7.0956    1.4944    0.0000 C   0  0  0  0  0  0  0  0  0  0  0  0
   -6.4128    0.1588    0.0000 O   0  0  0  0  0  0  0  0  0  0  0  0
   -4.9147    0.0823    0.0000 C   0  0  0  0  0  0  0  0  0  0  0  0
   -4.0995    1.3415    0.0000 O   0  0  0  0  0  0  0  0  0  0  0  0
   -4.2319   -1.2532    0.0000 C   0  0  0  0  0  0  0  0  0  0  0  0
   -2.7339   -1.3297    0.0000 C   0  0  0  0  0  0  0  0  0  0  0  0
   -2.0510   -2.6653    0.0000 C   0  0  0  0  0  0  0  0  0  0  0  0
   -2.8663   -3.9244    0.0000 C   0  0  0  0  0  0  0  0  0  0  0  0
   -0.5530   -2.7417    0.0000 C   0  0  0  0  0  0  0  0  0  0  0  0
    0.2657   -3.9986    0.0000 C   0  0  0  0  0  0  0  0  0  0  0  0
    1.7140   -3.6084    0.0000 C   0  0  0  0  0  0  0  0  0  0  0  0
    1.7905   -2.1103    0.0000 C   0  0  0  0  0  0  0  0  0  0  0  0
    2.9549   -1.1648    0.0000 C   0  0  0  0  0  0  0  0  0  0  0  0
    4.3560   -1.7004    0.0000 C   0  0  0  0  0  0  0  0  0  0  0  0
    4.5927   -3.1816    0.0000 O   0  0  0  0  0  0  0  0  0  0  0  0
    5.5204   -0.7548    0.0000 C   0  0  0  0  0  0  0  0  0  0  0  0
    5.2838    0.7264    0.0000 C   0  0  0  0  0  0  0  0  0  0  0  0
    6.4482    1.6720    0.0000 C   0  0  0  0  0  0  0  0  0  0  0  0
    6.2115    3.1532    0.0000 C   0  0  0  0  0  0  0  0  0  0  0  0
    7.3759    4.0988    0.0000 O   0  0  0  0  0  0  0  0  0  0  0  0
    4.8104    3.6888    0.0000 C   0  0  0  0  0  0  0  0  0  0  0  0
    3.6460    2.7432    0.0000 C   0  0  0  0  0  0  0  0  0  0  0  0
    3.8827    1.2620    0.0000 C   0  0  0  0  0  0  0  0  0  0  0  0
    2.4816    1.7977    0.0000 C   0  0  0  0  0  0  0  0  0  0  0  0
    2.7182    0.3165    0.0000 C   0  0  0  0  0  0  0  0  0  0  0  0
    1.3171    0.8521    0.0000 C   0  0  0  0  0  0  0  0  0  0  0  0
    0.1527   -0.0935    0.0000 C   0  0  0  0  0  0  0  0  0  0  0  0
   -1.2484    0.4421    0.0000 O   0  0  0  0  0  0  0  0  0  0  0  0
    0.3894   -1.5747    0.0000 C   0  0  0  0  0  0  0  0  0  0  0  0
   -1.0600   -1.1885    0.0000 C   0  0  0  0  0  0  0  0  0  0  0  0
  1  2  1  0
  2  3  1  0
  3  4  1  0
  4  5  1  0
  5  6  1  0
  6  7  2  0
  6  8  1  0
  8  9  1  0
  9 10  1  0
 10 11  1  6
 10 12  1  0
 12 13  1  6
 13 14  1  0
 15 14  1  6
 15 16  1  0
 16 17  1  1
 17 18  1  1
 17 19  1  0
 20 19  1  1
 20 21  1  0
 21 22  1  0
 22 23  1  1
 22 24  1  0
 24 25  1  0
 25 26  1  0
 26 27  1  6
 26 28  1  0
 28 29  1  6
 29 30  1  0
 30 31  1  1
 30 32  1  0
 32 33  1  6
 32 12  1  0
 32 15  1  0
 28 16  1  0
 26 20  1  0
M  END
>  <MS_ID>  (1787) 
MS1854

>  <SMILES>  (1787) 
CSCCOC(=O)CC[C@@H](C)[C@H]1CC[C@H]2[C@@H]3[C@H](O)C[C@@H]4C[C@H](O)CC[C@]4(C)[C@H]3C[C@H](O)[C@]12C

>  <Structure_dimension>  (1787) 
2D

$$$$
MS1855
     RDKit          2D

 33 36  0  0  0  0  0  0  0  0999 V2000
   -2.4823   -4.2429    0.0000 C   0  0  0  0  0  0  0  0  0  0  0  0
   -1.6859   -2.9718    0.0000 C   0  0  0  0  0  0  0  0  0  0  0  0
   -2.3885   -1.6465    0.0000 C   0  0  0  0  0  0  0  0  0  0  0  0
   -3.8876   -1.5924    0.0000 C   0  0  0  0  0  0  0  0  0  0  0  0
   -4.5902   -0.2671    0.0000 C   0  0  0  0  0  0  0  0  0  0  0  0
   -3.7938    1.0040    0.0000 O   0  0  0  0  0  0  0  0  0  0  0  0
   -6.0892   -0.2130    0.0000 N   0  0  0  0  0  0  0  0  0  0  0  0
   -6.7918    1.1123    0.0000 C   0  0  0  0  0  0  0  0  0  0  0  0
   -8.2908    1.1664    0.0000 C   0  0  0  0  0  0  0  0  0  0  0  0
   -8.9935    2.4917    0.0000 O   0  0  0  0  0  0  0  0  0  0  0  0
   -5.9954    2.3834    0.0000 C   0  0  0  0  0  0  0  0  0  0  0  0
   -4.4964    2.3293    0.0000 O   0  0  0  0  0  0  0  0  0  0  0  0
   -6.6980    3.7087    0.0000 O   0  0  0  0  0  0  0  0  0  0  0  0
   -0.1869   -3.0259    0.0000 C   0  0  0  0  0  0  0  0  0  0  0  0
    0.6504   -4.2705    0.0000 C   0  0  0  0  0  0  0  0  0  0  0  0
    2.0928   -3.8588    0.0000 C   0  0  0  0  0  0  0  0  0  0  0  0
    2.1469   -2.3597    0.0000 C   0  0  0  0  0  0  0  0  0  0  0  0
    3.2972   -1.3969    0.0000 C   0  0  0  0  0  0  0  0  0  0  0  0
    4.7061   -1.9116    0.0000 C   0  0  0  0  0  0  0  0  0  0  0  0
    5.8563   -0.9488    0.0000 C   0  0  0  0  0  0  0  0  0  0  0  0
    5.5976    0.5287    0.0000 C   0  0  0  0  0  0  0  0  0  0  0  0
    6.7478    1.4915    0.0000 C   0  0  0  0  0  0  0  0  0  0  0  0
    6.4891    2.9690    0.0000 C   0  0  0  0  0  0  0  0  0  0  0  0
    7.6393    3.9318    0.0000 O   0  0  0  0  0  0  0  0  0  0  0  0
    5.0802    3.4837    0.0000 C   0  0  0  0  0  0  0  0  0  0  0  0
    3.9300    2.5209    0.0000 C   0  0  0  0  0  0  0  0  0  0  0  0
    4.1887    1.0434    0.0000 C   0  0  0  0  0  0  0  0  0  0  0  0
    2.7797    1.5581    0.0000 C   0  0  0  0  0  0  0  0  0  0  0  0
    3.0385    0.0806    0.0000 C   0  0  0  0  0  0  0  0  0  0  0  0
    1.6295    0.5953    0.0000 C   0  0  0  0  0  0  0  0  0  0  0  0
    0.4793   -0.3675    0.0000 C   0  0  0  0  0  0  0  0  0  0  0  0
    0.7380   -1.8450    0.0000 C   0  0  0  0  0  0  0  0  0  0  0  0
   -0.7170   -1.4804    0.0000 C   0  0  0  0  0  0  0  0  0  0  0  0
  2  1  1  6
  2  3  1  0
  3  4  1  0
  4  5  1  0
  5  6  2  0
  5  7  1  0
  7  8  1  0
  8  9  1  1
  9 10  1  0
  8 11  1  0
 11 12  2  0
 11 13  1  0
  2 14  1  0
 14 15  1  6
 15 16  1  0
 17 16  1  6
 17 18  1  0
 18 19  1  1
 19 20  1  0
 21 20  1  1
 21 22  1  0
 22 23  1  0
 23 24  1  6
 23 25  1  0
 25 26  1  0
 26 27  1  0
 27 28  1  6
 27 29  1  0
 29 30  1  6
 30 31  1  0
 31 32  1  0
 32 33  1  6
 32 14  1  0
 32 17  1  0
 29 18  1  0
 27 21  1  0
M  END
>  <MS_ID>  (1788) 
MS1855

>  <SMILES>  (1788) 
C[C@H](CCC(=O)N[C@@H](CO)C(=O)O)[C@H]1CC[C@H]2[C@@H]3CC[C@@H]4C[C@@H](O)CC[C@]4(C)[C@H]3CC[C@]12C

>  <Structure_dimension>  (1788) 
2D

$$$$
MS1856
     RDKit          2D

 29 32  0  0  0  0  0  0  0  0999 V2000
   -5.0303   -2.1373    0.0000 C   0  0  0  0  0  0  0  0  0  0  0  0
   -3.8594   -1.1998    0.0000 C   0  0  0  0  0  0  0  0  0  0  0  0
   -4.0858    0.2830    0.0000 C   0  0  0  0  0  0  0  0  0  0  0  0
   -5.4831    0.8284    0.0000 C   0  0  0  0  0  0  0  0  0  0  0  0
   -5.7095    2.3112    0.0000 C   0  0  0  0  0  0  0  0  0  0  0  0
   -7.1069    2.8565    0.0000 N   0  0  0  0  0  0  0  0  0  0  0  0
   -4.5386    3.2487    0.0000 O   0  0  0  0  0  0  0  0  0  0  0  0
   -2.4620   -1.7451    0.0000 C   0  0  0  0  0  0  0  0  0  0  0  0
   -2.0818   -3.1961    0.0000 C   0  0  0  0  0  0  0  0  0  0  0  0
   -0.5844   -3.2830    0.0000 C   0  0  0  0  0  0  0  0  0  0  0  0
   -0.0390   -1.8856    0.0000 C   0  0  0  0  0  0  0  0  0  0  0  0
    1.3643   -1.3559    0.0000 C   0  0  0  0  0  0  0  0  0  0  0  0
    2.5248   -2.3063    0.0000 C   0  0  0  0  0  0  0  0  0  0  0  0
    2.2819   -3.7865    0.0000 O   0  0  0  0  0  0  0  0  0  0  0  0
    3.9281   -1.7765    0.0000 C   0  0  0  0  0  0  0  0  0  0  0  0
    4.1710   -0.2963    0.0000 C   0  0  0  0  0  0  0  0  0  0  0  0
    5.5743    0.2334    0.0000 C   0  0  0  0  0  0  0  0  0  0  0  0
    5.8172    1.7136    0.0000 C   0  0  0  0  0  0  0  0  0  0  0  0
    7.2205    2.2434    0.0000 O   0  0  0  0  0  0  0  0  0  0  0  0
    4.6568    2.6641    0.0000 C   0  0  0  0  0  0  0  0  0  0  0  0
    3.2534    2.1343    0.0000 C   0  0  0  0  0  0  0  0  0  0  0  0
    3.0105    0.6541    0.0000 C   0  0  0  0  0  0  0  0  0  0  0  0
    1.8501    1.6046    0.0000 C   0  0  0  0  0  0  0  0  0  0  0  0
    1.6072    0.1244    0.0000 C   0  0  0  0  0  0  0  0  0  0  0  0
    0.4467    1.0748    0.0000 C   0  0  0  0  0  0  0  0  0  0  0  0
   -0.9566    0.5450    0.0000 C   0  0  0  0  0  0  0  0  0  0  0  0
   -2.1170    1.4955    0.0000 O   0  0  0  0  0  0  0  0  0  0  0  0
   -1.1995   -0.9352    0.0000 C   0  0  0  0  0  0  0  0  0  0  0  0
   -2.4529   -0.1112    0.0000 C   0  0  0  0  0  0  0  0  0  0  0  0
  2  1  1  6
  2  3  1  0
  3  4  1  0
  4  5  1  0
  5  6  1  0
  5  7  2  0
  2  8  1  0
  8  9  1  6
  9 10  1  0
 11 10  1  6
 11 12  1  0
 12 13  1  1
 13 14  1  1
 13 15  1  0
 16 15  1  1
 16 17  1  0
 17 18  1  0
 18 19  1  1
 18 20  1  0
 20 21  1  0
 21 22  1  0
 22 23  1  6
 22 24  1  0
 24 25  1  6
 25 26  1  0
 26 27  1  6
 26 28  1  0
 28 29  1  6
 28  8  1  0
 28 11  1  0
 24 12  1  0
 22 16  1  0
M  END
>  <MS_ID>  (1789) 
MS1856

>  <SMILES>  (1789) 
C[C@H](CCC(N)=O)[C@H]1CC[C@H]2[C@@H]3[C@H](O)C[C@@H]4C[C@H](O)CC[C@]4(C)[C@H]3C[C@@H](O)[C@]12C

>  <Structure_dimension>  (1789) 
2D

$$$$
MS1857
     RDKit          2D

 31 34  0  0  0  0  0  0  0  0999 V2000
   -5.0146   -2.6187    0.0000 C   0  0  0  0  0  0  0  0  0  0  0  0
   -4.0672   -1.4557    0.0000 C   0  0  0  0  0  0  0  0  0  0  0  0
   -4.6007   -0.0538    0.0000 C   0  0  0  0  0  0  0  0  0  0  0  0
   -6.0816    0.1851    0.0000 C   0  0  0  0  0  0  0  0  0  0  0  0
   -6.6150    1.5871    0.0000 C   0  0  0  0  0  0  0  0  0  0  0  0
   -5.6677    2.7500    0.0000 O   0  0  0  0  0  0  0  0  0  0  0  0
   -8.0959    1.8260    0.0000 O   0  0  0  0  0  0  0  0  0  0  0  0
   -2.5864   -1.6947    0.0000 C   0  0  0  0  0  0  0  0  0  0  0  0
   -1.9093   -3.0332    0.0000 C   0  0  0  0  0  0  0  0  0  0  0  0
   -0.4271   -2.8029    0.0000 C   0  0  0  0  0  0  0  0  0  0  0  0
   -0.1881   -1.3220    0.0000 C   0  0  0  0  0  0  0  0  0  0  0  0
    1.0722   -0.5087    0.0000 C   0  0  0  0  0  0  0  0  0  0  0  0
    2.4068   -1.1936    0.0000 C   0  0  0  0  0  0  0  0  0  0  0  0
    2.4809   -2.6918    0.0000 C   0  0  0  0  0  0  0  0  0  0  0  0
    3.8154   -3.3767    0.0000 C   0  0  0  0  0  0  0  0  0  0  0  0
    3.8896   -4.8748    0.0000 C   0  0  0  0  0  0  0  0  0  0  0  0
    5.2241   -5.5597    0.0000 O   0  0  0  0  0  0  0  0  0  0  0  0
    3.6671   -0.3803    0.0000 C   0  0  0  0  0  0  0  0  0  0  0  0
    3.5930    1.1178    0.0000 C   0  0  0  0  0  0  0  0  0  0  0  0
    4.8534    1.9311    0.0000 C   0  0  0  0  0  0  0  0  0  0  0  0
    4.7792    3.4293    0.0000 C   0  0  0  0  0  0  0  0  0  0  0  0
    6.0396    4.2426    0.0000 O   0  0  0  0  0  0  0  0  0  0  0  0
    3.4447    4.1142    0.0000 C   0  0  0  0  0  0  0  0  0  0  0  0
    2.1843    3.3009    0.0000 C   0  0  0  0  0  0  0  0  0  0  0  0
    2.2585    1.8027    0.0000 C   0  0  0  0  0  0  0  0  0  0  0  0
    0.9240    2.4876    0.0000 C   0  0  0  0  0  0  0  0  0  0  0  0
    0.9981    0.9894    0.0000 C   0  0  0  0  0  0  0  0  0  0  0  0
   -0.3364    1.6743    0.0000 C   0  0  0  0  0  0  0  0  0  0  0  0
   -1.5968    0.8610    0.0000 C   0  0  0  0  0  0  0  0  0  0  0  0
   -1.5227   -0.6371    0.0000 C   0  0  0  0  0  0  0  0  0  0  0  0
   -2.9215   -0.0955    0.0000 C   0  0  0  0  0  0  0  0  0  0  0  0
  2  1  1  6
  2  3  1  0
  3  4  1  0
  4  5  1  0
  5  6  2  0
  5  7  1  0
  2  8  1  0
  8  9  1  6
  9 10  1  0
 11 10  1  6
 11 12  1  0
 12 13  1  1
 13 14  1  1
 14 15  1  0
 15 16  1  0
 16 17  1  0
 13 18  1  0
 19 18  1  1
 19 20  1  0
 20 21  1  0
 21 22  1  1
 21 23  1  0
 23 24  1  0
 24 25  1  0
 25 26  1  6
 25 27  1  0
 27 28  1  6
 28 29  1  0
 29 30  1  0
 30 31  1  6
 30  8  1  0
 30 11  1  0
 27 12  1  0
 25 19  1  0
M  END
>  <MS_ID>  (1790) 
MS1857

>  <SMILES>  (1790) 
C[C@H](CCC(=O)O)[C@H]1CC[C@H]2[C@@H]3[C@H](CCCO)C[C@@H]4C[C@H](O)CC[C@]4(C)[C@H]3CC[C@]12C

>  <Structure_dimension>  (1790) 
2D

$$$$
MS1858
     RDKit          2D

 28 31  0  0  0  0  0  0  0  0999 V2000
   -5.1275   -2.0302    0.0000 C   0  0  0  0  0  0  0  0  0  0  0  0
   -3.9468   -1.1050    0.0000 C   0  0  0  0  0  0  0  0  0  0  0  0
   -4.1576    0.3801    0.0000 C   0  0  0  0  0  0  0  0  0  0  0  0
   -5.5492    0.9401    0.0000 C   0  0  0  0  0  0  0  0  0  0  0  0
   -5.7600    2.4252    0.0000 C   0  0  0  0  0  0  0  0  0  0  0  0
   -4.5793    3.3503    0.0000 O   0  0  0  0  0  0  0  0  0  0  0  0
   -7.1516    2.9851    0.0000 O   0  0  0  0  0  0  0  0  0  0  0  0
   -2.5552   -1.6650    0.0000 C   0  0  0  0  0  0  0  0  0  0  0  0
   -2.1903   -3.1199    0.0000 C   0  0  0  0  0  0  0  0  0  0  0  0
   -0.6938   -3.2225    0.0000 C   0  0  0  0  0  0  0  0  0  0  0  0
   -0.1339   -1.8309    0.0000 C   0  0  0  0  0  0  0  0  0  0  0  0
    1.2750   -1.3159    0.0000 C   0  0  0  0  0  0  0  0  0  0  0  0
    2.4254   -2.2785    0.0000 C   0  0  0  0  0  0  0  0  0  0  0  0
    2.1670   -3.7560    0.0000 O   0  0  0  0  0  0  0  0  0  0  0  0
    3.8342   -1.7635    0.0000 C   0  0  0  0  0  0  0  0  0  0  0  0
    4.0926   -0.2859    0.0000 C   0  0  0  0  0  0  0  0  0  0  0  0
    5.5014    0.2291    0.0000 C   0  0  0  0  0  0  0  0  0  0  0  0
    5.7598    1.7067    0.0000 C   0  0  0  0  0  0  0  0  0  0  0  0
    7.1687    2.2217    0.0000 N   0  0  0  0  0  0  0  0  0  0  0  0
    4.6094    2.6692    0.0000 C   0  0  0  0  0  0  0  0  0  0  0  0
    3.2006    2.1542    0.0000 C   0  0  0  0  0  0  0  0  0  0  0  0
    2.9422    0.6767    0.0000 C   0  0  0  0  0  0  0  0  0  0  0  0
    1.7918    1.6392    0.0000 C   0  0  0  0  0  0  0  0  0  0  0  0
    1.5334    0.1617    0.0000 C   0  0  0  0  0  0  0  0  0  0  0  0
    0.3830    1.1242    0.0000 C   0  0  0  0  0  0  0  0  0  0  0  0
   -1.0259    0.6093    0.0000 C   0  0  0  0  0  0  0  0  0  0  0  0
   -1.2843   -0.8683    0.0000 C   0  0  0  0  0  0  0  0  0  0  0  0
   -2.5290   -0.0313    0.0000 C   0  0  0  0  0  0  0  0  0  0  0  0
  2  1  1  6
  2  3  1  0
  3  4  1  0
  4  5  1  0
  5  6  2  0
  5  7  1  0
  2  8  1  0
  8  9  1  6
  9 10  1  0
 11 10  1  6
 11 12  1  0
 12 13  1  1
 13 14  1  6
 13 15  1  0
 16 15  1  1
 16 17  1  0
 17 18  1  0
 18 19  1  6
 18 20  1  0
 20 21  1  0
 21 22  1  0
 22 23  1  6
 22 24  1  0
 24 25  1  6
 25 26  1  0
 26 27  1  0
 27 28  1  6
 27  8  1  0
 27 11  1  0
 24 12  1  0
 22 16  1  0
M  END
>  <MS_ID>  (1791) 
MS1858

>  <SMILES>  (1791) 
C[C@H](CCC(=O)O)[C@H]1CC[C@H]2[C@@H]3[C@@H](O)C[C@@H]4C[C@@H](N)CC[C@]4(C)[C@H]3CC[C@]12C

>  <Structure_dimension>  (1791) 
2D

$$$$
MS1859
     RDKit          2D

 36 40  0  0  0  0  0  0  0  0999 V2000
   -2.0625   -4.0210    0.0000 C   0  0  0  0  0  0  0  0  0  0  0  0
   -1.2935   -2.7331    0.0000 C   0  0  0  0  0  0  0  0  0  0  0  0
   -2.0243   -1.4232    0.0000 C   0  0  0  0  0  0  0  0  0  0  0  0
   -3.5241   -1.4011    0.0000 C   0  0  0  0  0  0  0  0  0  0  0  0
   -4.2549   -0.0912    0.0000 C   0  0  0  0  0  0  0  0  0  0  0  0
   -3.4858    1.1967    0.0000 O   0  0  0  0  0  0  0  0  0  0  0  0
   -5.7547   -0.0691    0.0000 O   0  0  0  0  0  0  0  0  0  0  0  0
   -6.4855    1.2409    0.0000 C   0  0  0  0  0  0  0  0  0  0  0  0
   -7.9854    1.2630    0.0000 C   0  0  0  0  0  0  0  0  0  0  0  0
   -8.7161    2.5729    0.0000 C   0  0  0  0  0  0  0  0  0  0  0  0
  -10.2160    2.5950    0.0000 C   0  0  0  0  0  0  0  0  0  0  0  0
  -10.9850    1.3071    0.0000 C   0  0  0  0  0  0  0  0  0  0  0  0
  -10.2542   -0.0028    0.0000 C   0  0  0  0  0  0  0  0  0  0  0  0
   -8.7544   -0.0249    0.0000 N   0  0  0  0  0  0  0  0  0  0  0  0
    0.2063   -2.7552    0.0000 C   0  0  0  0  0  0  0  0  0  0  0  0
    1.0701   -3.9816    0.0000 C   0  0  0  0  0  0  0  0  0  0  0  0
    2.5033   -3.5392    0.0000 C   0  0  0  0  0  0  0  0  0  0  0  0
    2.5254   -2.0393    0.0000 C   0  0  0  0  0  0  0  0  0  0  0  0
    3.6548   -1.0521    0.0000 C   0  0  0  0  0  0  0  0  0  0  0  0
    5.0744   -1.5366    0.0000 C   0  0  0  0  0  0  0  0  0  0  0  0
    5.3646   -3.0083    0.0000 O   0  0  0  0  0  0  0  0  0  0  0  0
    6.2038   -0.5495    0.0000 C   0  0  0  0  0  0  0  0  0  0  0  0
    7.6234   -1.0339    0.0000 O   0  0  0  0  0  0  0  0  0  0  0  0
    5.9135    0.9222    0.0000 C   0  0  0  0  0  0  0  0  0  0  0  0
    7.0429    1.9094    0.0000 C   0  0  0  0  0  0  0  0  0  0  0  0
    6.7527    3.3810    0.0000 C   0  0  0  0  0  0  0  0  0  0  0  0
    7.8821    4.3682    0.0000 O   0  0  0  0  0  0  0  0  0  0  0  0
    5.3331    3.8655    0.0000 C   0  0  0  0  0  0  0  0  0  0  0  0
    4.2037    2.8783    0.0000 C   0  0  0  0  0  0  0  0  0  0  0  0
    4.4939    1.4067    0.0000 C   0  0  0  0  0  0  0  0  0  0  0  0
    3.0743    1.8912    0.0000 C   0  0  0  0  0  0  0  0  0  0  0  0
    3.3646    0.4195    0.0000 C   0  0  0  0  0  0  0  0  0  0  0  0
    1.9450    0.9040    0.0000 C   0  0  0  0  0  0  0  0  0  0  0  0
    0.8156   -0.0832    0.0000 C   0  0  0  0  0  0  0  0  0  0  0  0
    1.1058   -1.5548    0.0000 C   0  0  0  0  0  0  0  0  0  0  0  0
   -0.3567   -1.2214    0.0000 C   0  0  0  0  0  0  0  0  0  0  0  0
  2  1  1  6
  2  3  1  0
  3  4  1  0
  4  5  1  0
  5  6  2  0
  5  7  1  0
  7  8  1  0
  8  9  1  0
  9 10  2  0
 10 11  1  0
 11 12  2  0
 12 13  1  0
 13 14  2  0
  2 15  1  0
 15 16  1  6
 16 17  1  0
 18 17  1  6
 18 19  1  0
 19 20  1  1
 20 21  1  1
 20 22  1  0
 22 23  1  1
 22 24  1  0
 24 25  1  1
 25 26  1  0
 26 27  1  1
 26 28  1  0
 28 29  1  0
 29 30  1  0
 30 31  1  6
 30 32  1  0
 32 33  1  6
 33 34  1  0
 34 35  1  0
 35 36  1  6
 14  9  1  0
 35 15  1  0
 35 18  1  0
 32 19  1  0
 30 24  1  0
M  END
>  <MS_ID>  (1792) 
MS1859

>  <SMILES>  (1792) 
C[C@H](CCC(=O)OCc1ccccn1)[C@H]1CC[C@H]2[C@@H]3[C@H](O)[C@H](O)[C@@H]4C[C@H](O)CC[C@]4(C)[C@H]3CC[C@]12C

>  <Structure_dimension>  (1792) 
2D

$$$$
MS1860
     RDKit          2D

 28 31  0  0  0  0  0  0  0  0999 V2000
   -5.0096   -2.1352    0.0000 C   0  0  0  0  0  0  0  0  0  0  0  0
   -3.8132   -1.2303    0.0000 C   0  0  0  0  0  0  0  0  0  0  0  0
   -3.9987    0.2582    0.0000 C   0  0  0  0  0  0  0  0  0  0  0  0
   -5.3805    0.8418    0.0000 C   0  0  0  0  0  0  0  0  0  0  0  0
   -5.5659    2.3303    0.0000 C   0  0  0  0  0  0  0  0  0  0  0  0
   -4.3695    3.2351    0.0000 O   0  0  0  0  0  0  0  0  0  0  0  0
   -6.9477    2.9140    0.0000 O   0  0  0  0  0  0  0  0  0  0  0  0
   -2.4315   -1.8140    0.0000 C   0  0  0  0  0  0  0  0  0  0  0  0
   -2.0914   -3.2749    0.0000 C   0  0  0  0  0  0  0  0  0  0  0  0
   -0.5969   -3.4030    0.0000 C   0  0  0  0  0  0  0  0  0  0  0  0
   -0.0133   -2.0212    0.0000 C   0  0  0  0  0  0  0  0  0  0  0  0
    1.4041   -1.5304    0.0000 C   0  0  0  0  0  0  0  0  0  0  0  0
    2.5379   -2.5125    0.0000 C   0  0  0  0  0  0  0  0  0  0  0  0
    3.9554   -2.0216    0.0000 C   0  0  0  0  0  0  0  0  0  0  0  0
    4.2390   -0.5487    0.0000 C   0  0  0  0  0  0  0  0  0  0  0  0
    5.6564   -0.0578    0.0000 C   0  0  0  0  0  0  0  0  0  0  0  0
    5.9400    1.4151    0.0000 C   0  0  0  0  0  0  0  0  0  0  0  0
    7.3574    1.9060    0.0000 O   0  0  0  0  0  0  0  0  0  0  0  0
    4.8062    2.3972    0.0000 C   0  0  0  0  0  0  0  0  0  0  0  0
    3.3888    1.9064    0.0000 C   0  0  0  0  0  0  0  0  0  0  0  0
    3.1052    0.4334    0.0000 C   0  0  0  0  0  0  0  0  0  0  0  0
    1.9714    1.4155    0.0000 C   0  0  0  0  0  0  0  0  0  0  0  0
    1.6878   -0.0574    0.0000 C   0  0  0  0  0  0  0  0  0  0  0  0
    0.5540    0.9246    0.0000 C   0  0  0  0  0  0  0  0  0  0  0  0
   -0.8635    0.4338    0.0000 C   0  0  0  0  0  0  0  0  0  0  0  0
   -1.9973    1.4159    0.0000 O   0  0  0  0  0  0  0  0  0  0  0  0
   -1.1471   -1.0392    0.0000 C   0  0  0  0  0  0  0  0  0  0  0  0
   -2.3773   -0.1810    0.0000 C   0  0  0  0  0  0  0  0  0  0  0  0
  2  1  1  6
  2  3  1  0
  3  4  1  0
  4  5  1  0
  5  6  2  0
  5  7  1  0
  2  8  1  0
  8  9  1  6
  9 10  1  0
 11 10  1  6
 11 12  1  0
 12 13  1  1
 13 14  1  0
 15 14  1  1
 15 16  1  0
 16 17  1  0
 17 18  1  1
 17 19  1  0
 19 20  1  0
 20 21  1  0
 21 22  1  1
 21 23  1  0
 23 24  1  6
 24 25  1  0
 25 26  1  1
 25 27  1  0
 27 28  1  6
 27  8  1  0
 27 11  1  0
 23 12  1  0
 21 15  1  0
M  END
>  <MS_ID>  (1793) 
MS1860

>  <SMILES>  (1793) 
C[C@H](CCC(=O)O)[C@H]1CC[C@H]2[C@@H]3CC[C@@H]4C[C@H](O)CC[C@@]4(C)[C@H]3C[C@H](O)[C@]12C

>  <Structure_dimension>  (1793) 
2D

$$$$
MS1861
     RDKit          2D

 27 30  0  0  0  0  0  0  0  0999 V2000
   -5.1023   -2.0364    0.0000 C   0  0  0  0  0  0  0  0  0  0  0  0
   -3.8978   -1.1425    0.0000 C   0  0  0  0  0  0  0  0  0  0  0  0
   -4.0697    0.3476    0.0000 C   0  0  0  0  0  0  0  0  0  0  0  0
   -5.4461    0.9438    0.0000 C   0  0  0  0  0  0  0  0  0  0  0  0
   -5.6180    2.4339    0.0000 C   0  0  0  0  0  0  0  0  0  0  0  0
   -6.9944    3.0301    0.0000 O   0  0  0  0  0  0  0  0  0  0  0  0
   -4.4135    3.3278    0.0000 S   0  0  0  0  0  0  0  0  0  0  0  0
   -2.5213   -1.7387    0.0000 C   0  0  0  0  0  0  0  0  0  0  0  0
   -2.1946   -3.2027    0.0000 C   0  0  0  0  0  0  0  0  0  0  0  0
   -0.7013   -3.3444    0.0000 C   0  0  0  0  0  0  0  0  0  0  0  0
   -0.1051   -1.9679    0.0000 C   0  0  0  0  0  0  0  0  0  0  0  0
    1.3167   -1.4900    0.0000 C   0  0  0  0  0  0  0  0  0  0  0  0
    2.4415   -2.4823    0.0000 C   0  0  0  0  0  0  0  0  0  0  0  0
    3.8633   -2.0044    0.0000 C   0  0  0  0  0  0  0  0  0  0  0  0
    4.1603   -0.5341    0.0000 C   0  0  0  0  0  0  0  0  0  0  0  0
    5.5821   -0.0561    0.0000 C   0  0  0  0  0  0  0  0  0  0  0  0
    5.8791    1.4142    0.0000 C   0  0  0  0  0  0  0  0  0  0  0  0
    7.3009    1.8921    0.0000 O   0  0  0  0  0  0  0  0  0  0  0  0
    4.7543    2.4065    0.0000 C   0  0  0  0  0  0  0  0  0  0  0  0
    3.3325    1.9286    0.0000 C   0  0  0  0  0  0  0  0  0  0  0  0
    3.0355    0.4583    0.0000 C   0  0  0  0  0  0  0  0  0  0  0  0
    1.9107    1.4506    0.0000 C   0  0  0  0  0  0  0  0  0  0  0  0
    1.6137   -0.0197    0.0000 C   0  0  0  0  0  0  0  0  0  0  0  0
    0.4888    0.9727    0.0000 C   0  0  0  0  0  0  0  0  0  0  0  0
   -0.9330    0.4947    0.0000 C   0  0  0  0  0  0  0  0  0  0  0  0
   -1.2300   -0.9756    0.0000 C   0  0  0  0  0  0  0  0  0  0  0  0
   -2.4524   -0.1062    0.0000 C   0  0  0  0  0  0  0  0  0  0  0  0
  2  1  1  6
  2  3  1  0
  3  4  1  0
  4  5  1  0
  5  6  2  0
  5  7  1  0
  2  8  1  0
  8  9  1  6
  9 10  1  0
 11 10  1  6
 11 12  1  0
 12 13  1  1
 13 14  1  0
 15 14  1  1
 15 16  1  0
 16 17  1  0
 17 18  2  0
 17 19  1  0
 19 20  1  0
 20 21  1  0
 21 22  1  6
 21 23  1  0
 23 24  1  6
 24 25  1  0
 25 26  1  0
 26 27  1  6
 26  8  1  0
 26 11  1  0
 23 12  1  0
 21 15  1  0
M  END
>  <MS_ID>  (1794) 
MS1861

>  <SMILES>  (1794) 
C[C@H](CCC(=O)S)[C@H]1CC[C@H]2[C@@H]3CC[C@@H]4CC(=O)CC[C@]4(C)[C@H]3CC[C@]12C

>  <Structure_dimension>  (1794) 
2D

$$$$
MS1862
     RDKit          2D

 33 36  0  0  0  0  0  0  0  0999 V2000
   -6.5890   -1.8850    0.0000 C   0  0  0  0  0  0  0  0  0  0  0  0
   -5.3388   -1.0561    0.0000 C   0  0  0  0  0  0  0  0  0  0  0  0
   -5.4315    0.4410    0.0000 C   0  0  0  0  0  0  0  0  0  0  0  0
   -6.7745    1.1093    0.0000 C   0  0  0  0  0  0  0  0  0  0  0  0
   -6.8672    2.6064    0.0000 C   0  0  0  0  0  0  0  0  0  0  0  0
   -5.6171    3.4353    0.0000 O   0  0  0  0  0  0  0  0  0  0  0  0
   -8.2102    3.2747    0.0000 O   0  0  0  0  0  0  0  0  0  0  0  0
   -3.9959   -1.7243    0.0000 C   0  0  0  0  0  0  0  0  0  0  0  0
   -3.7471   -3.2035    0.0000 C   0  0  0  0  0  0  0  0  0  0  0  0
   -2.2634   -3.4241    0.0000 C   0  0  0  0  0  0  0  0  0  0  0  0
   -1.5952   -2.0812    0.0000 C   0  0  0  0  0  0  0  0  0  0  0  0
   -0.1501   -1.6792    0.0000 C   0  0  0  0  0  0  0  0  0  0  0  0
    0.9206   -2.7297    0.0000 C   0  0  0  0  0  0  0  0  0  0  0  0
    2.3658   -2.3277    0.0000 C   0  0  0  0  0  0  0  0  0  0  0  0
    2.7402   -0.8752    0.0000 C   0  0  0  0  0  0  0  0  0  0  0  0
    4.1853   -0.4732    0.0000 C   0  0  0  0  0  0  0  0  0  0  0  0
    4.5598    0.9793    0.0000 C   0  0  0  0  0  0  0  0  0  0  0  0
    6.0049    1.3813    0.0000 O   0  0  0  0  0  0  0  0  0  0  0  0
    7.0756    0.3308    0.0000 C   0  0  0  0  0  0  0  0  0  0  0  0
    6.7012   -1.1217    0.0000 O   0  0  0  0  0  0  0  0  0  0  0  0
    8.5207    0.7328    0.0000 N   0  0  0  0  0  0  0  0  0  0  0  0
    9.5914   -0.3177    0.0000 C   0  0  0  0  0  0  0  0  0  0  0  0
    8.8951    2.1853    0.0000 C   0  0  0  0  0  0  0  0  0  0  0  0
    3.4890    2.0299    0.0000 C   0  0  0  0  0  0  0  0  0  0  0  0
    2.0439    1.6279    0.0000 C   0  0  0  0  0  0  0  0  0  0  0  0
    1.6695    0.1754    0.0000 C   0  0  0  0  0  0  0  0  0  0  0  0
    0.5988    1.2259    0.0000 C   0  0  0  0  0  0  0  0  0  0  0  0
    0.2244   -0.2266    0.0000 C   0  0  0  0  0  0  0  0  0  0  0  0
   -0.8463    0.8239    0.0000 C   0  0  0  0  0  0  0  0  0  0  0  0
   -2.2915    0.4219    0.0000 C   0  0  0  0  0  0  0  0  0  0  0  0
   -3.3622    1.4724    0.0000 O   0  0  0  0  0  0  0  0  0  0  0  0
   -2.6659   -1.0306    0.0000 C   0  0  0  0  0  0  0  0  0  0  0  0
   -3.8405   -0.0978    0.0000 C   0  0  0  0  0  0  0  0  0  0  0  0
  2  1  1  6
  2  3  1  0
  3  4  1  0
  4  5  1  0
  5  6  2  0
  5  7  1  0
  2  8  1  0
  8  9  1  6
  9 10  1  0
 11 10  1  6
 11 12  1  0
 12 13  1  1
 13 14  1  0
 15 14  1  1
 15 16  1  0
 16 17  1  0
 17 18  1  6
 18 19  1  0
 19 20  2  0
 19 21  1  0
 21 22  1  0
 21 23  1  0
 17 24  1  0
 24 25  1  0
 25 26  1  0
 26 27  1  6
 26 28  1  0
 28 29  1  6
 29 30  1  0
 30 31  1  1
 30 32  1  0
 32 33  1  6
 32  8  1  0
 32 11  1  0
 28 12  1  0
 26 15  1  0
M  END
>  <MS_ID>  (1795) 
MS1862

>  <SMILES>  (1795) 
C[C@H](CCC(=O)O)[C@H]1CC[C@H]2[C@@H]3CC[C@@H]4C[C@@H](OC(=O)N(C)C)CC[C@]4(C)[C@H]3C[C@H](O)[C@]12C

>  <Structure_dimension>  (1795) 
2D

$$$$
MS1863
     RDKit          2D

 34 37  0  0  0  0  0  0  0  0999 V2000
   -2.4018   -4.1785    0.0000 C   0  0  0  0  0  0  0  0  0  0  0  0
   -1.6536   -2.8784    0.0000 C   0  0  0  0  0  0  0  0  0  0  0  0
   -2.4055   -1.5804    0.0000 C   0  0  0  0  0  0  0  0  0  0  0  0
   -3.9055   -1.5826    0.0000 C   0  0  0  0  0  0  0  0  0  0  0  0
   -4.6574   -0.2846    0.0000 C   0  0  0  0  0  0  0  0  0  0  0  0
   -3.9092    1.0155    0.0000 O   0  0  0  0  0  0  0  0  0  0  0  0
   -6.1574   -0.2867    0.0000 C   0  0  0  0  0  0  0  0  0  0  0  0
   -6.9092    1.0112    0.0000 C   0  0  0  0  0  0  0  0  0  0  0  0
   -8.4092    1.0091    0.0000 C   0  0  0  0  0  0  0  0  0  0  0  0
   -9.1611    2.3071    0.0000 N   0  0  0  0  0  0  0  0  0  0  0  0
  -10.6611    2.3049    0.0000 C   0  0  0  0  0  0  0  0  0  0  0  0
   -8.4129    3.6072    0.0000 C   0  0  0  0  0  0  0  0  0  0  0  0
   -0.1536   -2.8762    0.0000 C   0  0  0  0  0  0  0  0  0  0  0  0
    0.7298   -4.0885    0.0000 C   0  0  0  0  0  0  0  0  0  0  0  0
    2.1557   -3.6229    0.0000 C   0  0  0  0  0  0  0  0  0  0  0  0
    2.1535   -2.1229    0.0000 C   0  0  0  0  0  0  0  0  0  0  0  0
    3.2668   -1.1176    0.0000 C   0  0  0  0  0  0  0  0  0  0  0  0
    4.6941   -1.5791    0.0000 C   0  0  0  0  0  0  0  0  0  0  0  0
    5.0080   -3.0459    0.0000 O   0  0  0  0  0  0  0  0  0  0  0  0
    5.8073   -0.5738    0.0000 C   0  0  0  0  0  0  0  0  0  0  0  0
    5.4934    0.8929    0.0000 C   0  0  0  0  0  0  0  0  0  0  0  0
    6.6067    1.8982    0.0000 C   0  0  0  0  0  0  0  0  0  0  0  0
    6.2927    3.3650    0.0000 C   0  0  0  0  0  0  0  0  0  0  0  0
    7.4060    4.3703    0.0000 O   0  0  0  0  0  0  0  0  0  0  0  0
    4.8655    3.8265    0.0000 C   0  0  0  0  0  0  0  0  0  0  0  0
    3.7522    2.8212    0.0000 C   0  0  0  0  0  0  0  0  0  0  0  0
    4.0661    1.3544    0.0000 C   0  0  0  0  0  0  0  0  0  0  0  0
    2.6389    1.8159    0.0000 C   0  0  0  0  0  0  0  0  0  0  0  0
    2.9529    0.3491    0.0000 C   0  0  0  0  0  0  0  0  0  0  0  0
    1.5256    0.8106    0.0000 C   0  0  0  0  0  0  0  0  0  0  0  0
    0.4123   -0.1947    0.0000 C   0  0  0  0  0  0  0  0  0  0  0  0
   -1.0149    0.2668    0.0000 O   0  0  0  0  0  0  0  0  0  0  0  0
    0.7263   -1.6614    0.0000 C   0  0  0  0  0  0  0  0  0  0  0  0
   -0.7414   -1.3517    0.0000 C   0  0  0  0  0  0  0  0  0  0  0  0
  2  1  1  6
  2  3  1  0
  3  4  1  0
  4  5  1  0
  5  6  2  0
  5  7  1  0
  7  8  1  0
  8  9  1  0
  9 10  1  0
 10 11  1  0
 10 12  1  0
  2 13  1  0
 13 14  1  6
 14 15  1  0
 16 15  1  6
 16 17  1  0
 17 18  1  1
 18 19  1  1
 18 20  1  0
 21 20  1  1
 21 22  1  0
 22 23  1  0
 23 24  1  1
 23 25  1  0
 25 26  1  0
 26 27  1  0
 27 28  1  6
 27 29  1  0
 29 30  1  6
 30 31  1  0
 31 32  1  1
 31 33  1  0
 33 34  1  6
 33 13  1  0
 33 16  1  0
 29 17  1  0
 27 21  1  0
M  END
>  <MS_ID>  (1796) 
MS1863

>  <SMILES>  (1796) 
C[C@H](CCC(=O)CCCN(C)C)[C@H]1CC[C@H]2[C@@H]3[C@H](O)C[C@@H]4C[C@H](O)CC[C@]4(C)[C@H]3C[C@H](O)[C@]12C

>  <Structure_dimension>  (1796) 
2D

$$$$
MS1864
     RDKit          2D

 30 33  0  0  0  0  0  0  0  0999 V2000
   -3.8321   -2.9495    0.0000 C   0  0  0  0  0  0  0  0  0  0  0  0
   -2.8334   -1.8303    0.0000 C   0  0  0  0  0  0  0  0  0  0  0  0
   -3.3032   -0.4058    0.0000 C   0  0  0  0  0  0  0  0  0  0  0  0
   -4.7718   -0.1005    0.0000 C   0  0  0  0  0  0  0  0  0  0  0  0
   -5.2417    1.3240    0.0000 C   0  0  0  0  0  0  0  0  0  0  0  0
   -4.2430    2.4432    0.0000 O   0  0  0  0  0  0  0  0  0  0  0  0
   -6.7103    1.6294    0.0000 C   0  0  0  0  0  0  0  0  0  0  0  0
   -7.7090    0.5102    0.0000 O   0  0  0  0  0  0  0  0  0  0  0  0
   -7.1801    3.0539    0.0000 O   0  0  0  0  0  0  0  0  0  0  0  0
   -1.3648   -2.1357    0.0000 C   0  0  0  0  0  0  0  0  0  0  0  0
   -0.7486   -3.5033    0.0000 C   0  0  0  0  0  0  0  0  0  0  0  0
    0.7425   -3.3398    0.0000 C   0  0  0  0  0  0  0  0  0  0  0  0
    1.0478   -1.8712    0.0000 C   0  0  0  0  0  0  0  0  0  0  0  0
    2.3435   -1.1155    0.0000 C   0  0  0  0  0  0  0  0  0  0  0  0
    3.6459   -1.8597    0.0000 C   0  0  0  0  0  0  0  0  0  0  0  0
    3.6525   -3.3597    0.0000 O   0  0  0  0  0  0  0  0  0  0  0  0
    4.9416   -1.1039    0.0000 C   0  0  0  0  0  0  0  0  0  0  0  0
    4.9349    0.3961    0.0000 C   0  0  0  0  0  0  0  0  0  0  0  0
    6.2306    1.1518    0.0000 C   0  0  0  0  0  0  0  0  0  0  0  0
    6.2239    2.6518    0.0000 C   0  0  0  0  0  0  0  0  0  0  0  0
    4.9216    3.3960    0.0000 C   0  0  0  0  0  0  0  0  0  0  0  0
    3.6259    2.6403    0.0000 C   0  0  0  0  0  0  0  0  0  0  0  0
    3.6325    1.1403    0.0000 C   0  0  0  0  0  0  0  0  0  0  0  0
    2.3302    1.8845    0.0000 C   0  0  0  0  0  0  0  0  0  0  0  0
    2.3369    0.3845    0.0000 C   0  0  0  0  0  0  0  0  0  0  0  0
    1.0345    1.1287    0.0000 C   0  0  0  0  0  0  0  0  0  0  0  0
   -0.2612    0.3730    0.0000 C   0  0  0  0  0  0  0  0  0  0  0  0
   -1.5636    1.1172    0.0000 O   0  0  0  0  0  0  0  0  0  0  0  0
   -0.2545   -1.1270    0.0000 C   0  0  0  0  0  0  0  0  0  0  0  0
   -1.6275   -0.5230    0.0000 C   0  0  0  0  0  0  0  0  0  0  0  0
  2  1  1  6
  2  3  1  0
  3  4  1  0
  4  5  1  0
  5  6  2  0
  5  7  1  0
  7  8  2  0
  7  9  1  0
  2 10  1  0
 10 11  1  6
 11 12  1  0
 13 12  1  6
 13 14  1  0
 14 15  1  1
 15 16  1  6
 15 17  1  0
 18 17  1  1
 18 19  1  0
 19 20  1  0
 20 21  1  0
 21 22  1  0
 22 23  1  0
 23 24  1  6
 23 25  1  0
 25 26  1  6
 26 27  1  0
 27 28  1  1
 27 29  1  0
 29 30  1  6
 29 10  1  0
 29 13  1  0
 25 14  1  0
 23 18  1  0
M  END
>  <MS_ID>  (1797) 
MS1864

>  <SMILES>  (1797) 
C[C@H](CCC(=O)C(=O)O)[C@H]1CC[C@H]2[C@@H]3[C@@H](O)C[C@@H]4CCCC[C@]4(C)[C@H]3C[C@H](O)[C@]12C

>  <Structure_dimension>  (1797) 
2D

$$$$
MS1865
     RDKit          2D

 36 39  0  0  0  0  0  0  0  0999 V2000
   -7.2215    5.3391    0.0000 C   0  0  0  0  0  0  0  0  0  0  0  0
   -7.8562    3.9800    0.0000 C   0  0  0  0  0  0  0  0  0  0  0  0
   -6.9966    2.7508    0.0000 C   0  0  0  0  0  0  0  0  0  0  0  0
   -7.6314    1.3917    0.0000 O   0  0  0  0  0  0  0  0  0  0  0  0
   -6.7718    0.1624    0.0000 S   0  0  0  0  0  0  0  0  0  0  0  0
   -8.0010   -0.6972    0.0000 O   0  0  0  0  0  0  0  0  0  0  0  0
   -5.5425    1.0220    0.0000 O   0  0  0  0  0  0  0  0  0  0  0  0
   -5.9122   -1.0668    0.0000 N   0  0  0  0  0  0  0  0  0  0  0  0
   -4.4178   -0.9370    0.0000 C   0  0  0  0  0  0  0  0  0  0  0  0
   -3.7830    0.4221    0.0000 O   0  0  0  0  0  0  0  0  0  0  0  0
   -3.5582   -2.1663    0.0000 C   0  0  0  0  0  0  0  0  0  0  0  0
   -2.0638   -2.0365    0.0000 C   0  0  0  0  0  0  0  0  0  0  0  0
   -1.2042   -3.2657    0.0000 C   0  0  0  0  0  0  0  0  0  0  0  0
   -1.8390   -4.6248    0.0000 C   0  0  0  0  0  0  0  0  0  0  0  0
    0.2901   -3.1359    0.0000 C   0  0  0  0  0  0  0  0  0  0  0  0
    1.2735   -4.2686    0.0000 C   0  0  0  0  0  0  0  0  0  0  0  0
    2.6547   -3.6833    0.0000 C   0  0  0  0  0  0  0  0  0  0  0  0
    2.5248   -2.1889    0.0000 C   0  0  0  0  0  0  0  0  0  0  0  0
    3.5485   -1.0925    0.0000 C   0  0  0  0  0  0  0  0  0  0  0  0
    5.0099   -1.4309    0.0000 C   0  0  0  0  0  0  0  0  0  0  0  0
    5.4475   -2.8656    0.0000 O   0  0  0  0  0  0  0  0  0  0  0  0
    6.0335   -0.3345    0.0000 C   0  0  0  0  0  0  0  0  0  0  0  0
    5.5959    1.1003    0.0000 C   0  0  0  0  0  0  0  0  0  0  0  0
    6.6195    2.1967    0.0000 C   0  0  0  0  0  0  0  0  0  0  0  0
    6.1819    3.6314    0.0000 C   0  0  0  0  0  0  0  0  0  0  0  0
    7.2055    4.7278    0.0000 O   0  0  0  0  0  0  0  0  0  0  0  0
    4.7205    3.9697    0.0000 C   0  0  0  0  0  0  0  0  0  0  0  0
    3.6968    2.8733    0.0000 C   0  0  0  0  0  0  0  0  0  0  0  0
    4.1345    1.4386    0.0000 C   0  0  0  0  0  0  0  0  0  0  0  0
    2.6732    1.7769    0.0000 C   0  0  0  0  0  0  0  0  0  0  0  0
    3.1108    0.3422    0.0000 C   0  0  0  0  0  0  0  0  0  0  0  0
    1.6495    0.6805    0.0000 C   0  0  0  0  0  0  0  0  0  0  0  0
    0.6258   -0.4159    0.0000 C   0  0  0  0  0  0  0  0  0  0  0  0
   -0.8355   -0.0776    0.0000 O   0  0  0  0  0  0  0  0  0  0  0  0
    1.0635   -1.8506    0.0000 C   0  0  0  0  0  0  0  0  0  0  0  0
   -0.4252   -1.6669    0.0000 C   0  0  0  0  0  0  0  0  0  0  0  0
  1  2  1  0
  2  3  1  0
  3  4  1  0
  4  5  1  0
  5  6  2  0
  5  7  2  0
  5  8  1  0
  8  9  1  0
  9 10  2  0
  9 11  1  0
 11 12  1  0
 12 13  1  0
 13 14  1  6
 13 15  1  0
 15 16  1  6
 16 17  1  0
 18 17  1  6
 18 19  1  0
 19 20  1  1
 20 21  1  1
 20 22  1  0
 23 22  1  1
 23 24  1  0
 24 25  1  0
 25 26  1  1
 25 27  1  0
 27 28  1  0
 28 29  1  0
 29 30  1  6
 29 31  1  0
 31 32  1  6
 32 33  1  0
 33 34  1  1
 33 35  1  0
 35 36  1  6
 35 15  1  0
 35 18  1  0
 31 19  1  0
 29 23  1  0
M  END
>  <MS_ID>  (1798) 
MS1865

>  <SMILES>  (1798) 
CCCOS(=O)(=O)NC(=O)CC[C@@H](C)[C@H]1CC[C@H]2[C@@H]3[C@H](O)C[C@@H]4C[C@H](O)CC[C@]4(C)[C@H]3C[C@H](O)[C@]12C

>  <Structure_dimension>  (1798) 
2D

$$$$
MS1866
     RDKit          2D

 29 32  0  0  0  0  0  0  0  0999 V2000
   -5.0303   -2.1373    0.0000 C   0  0  0  0  0  0  0  0  0  0  0  0
   -3.8594   -1.1998    0.0000 C   0  0  0  0  0  0  0  0  0  0  0  0
   -4.0858    0.2830    0.0000 C   0  0  0  0  0  0  0  0  0  0  0  0
   -5.4831    0.8284    0.0000 C   0  0  0  0  0  0  0  0  0  0  0  0
   -5.7095    2.3112    0.0000 C   0  0  0  0  0  0  0  0  0  0  0  0
   -4.5386    3.2487    0.0000 O   0  0  0  0  0  0  0  0  0  0  0  0
   -7.1069    2.8565    0.0000 O   0  0  0  0  0  0  0  0  0  0  0  0
   -2.4620   -1.7451    0.0000 C   0  0  0  0  0  0  0  0  0  0  0  0
   -2.0818   -3.1961    0.0000 C   0  0  0  0  0  0  0  0  0  0  0  0
   -0.5844   -3.2830    0.0000 C   0  0  0  0  0  0  0  0  0  0  0  0
   -0.0390   -1.8856    0.0000 C   0  0  0  0  0  0  0  0  0  0  0  0
    1.3643   -1.3559    0.0000 C   0  0  0  0  0  0  0  0  0  0  0  0
    2.5248   -2.3063    0.0000 C   0  0  0  0  0  0  0  0  0  0  0  0
    2.2819   -3.7865    0.0000 N   0  0  0  0  0  0  0  0  0  0  0  0
    3.9281   -1.7765    0.0000 C   0  0  0  0  0  0  0  0  0  0  0  0
    4.1710   -0.2963    0.0000 C   0  0  0  0  0  0  0  0  0  0  0  0
    5.5743    0.2334    0.0000 C   0  0  0  0  0  0  0  0  0  0  0  0
    5.8172    1.7136    0.0000 C   0  0  0  0  0  0  0  0  0  0  0  0
    7.2205    2.2434    0.0000 O   0  0  0  0  0  0  0  0  0  0  0  0
    4.6568    2.6641    0.0000 C   0  0  0  0  0  0  0  0  0  0  0  0
    3.2534    2.1343    0.0000 C   0  0  0  0  0  0  0  0  0  0  0  0
    3.0105    0.6541    0.0000 C   0  0  0  0  0  0  0  0  0  0  0  0
    1.8501    1.6046    0.0000 C   0  0  0  0  0  0  0  0  0  0  0  0
    1.6072    0.1244    0.0000 C   0  0  0  0  0  0  0  0  0  0  0  0
    0.4467    1.0748    0.0000 C   0  0  0  0  0  0  0  0  0  0  0  0
   -0.9566    0.5450    0.0000 C   0  0  0  0  0  0  0  0  0  0  0  0
   -2.1170    1.4955    0.0000 O   0  0  0  0  0  0  0  0  0  0  0  0
   -1.1995   -0.9352    0.0000 C   0  0  0  0  0  0  0  0  0  0  0  0
   -2.4529   -0.1112    0.0000 C   0  0  0  0  0  0  0  0  0  0  0  0
  2  1  1  6
  2  3  1  0
  3  4  1  0
  4  5  1  0
  5  6  2  0
  5  7  1  0
  2  8  1  0
  8  9  1  6
  9 10  1  0
 11 10  1  6
 11 12  1  0
 12 13  1  1
 13 14  1  1
 13 15  1  0
 16 15  1  1
 16 17  1  0
 17 18  1  0
 18 19  1  6
 18 20  1  0
 20 21  1  0
 21 22  1  0
 22 23  1  6
 22 24  1  0
 24 25  1  6
 25 26  1  0
 26 27  1  6
 26 28  1  0
 28 29  1  6
 28  8  1  0
 28 11  1  0
 24 12  1  0
 22 16  1  0
M  END
>  <MS_ID>  (1799) 
MS1866

>  <SMILES>  (1799) 
C[C@H](CCC(=O)O)[C@H]1CC[C@H]2[C@@H]3[C@H](N)C[C@@H]4C[C@@H](O)CC[C@]4(C)[C@H]3C[C@@H](O)[C@]12C

>  <Structure_dimension>  (1799) 
2D

$$$$
MS1867
     RDKit          2D

 32 35  0  0  0  0  0  0  0  0999 V2000
   -3.1421   -3.6694    0.0000 C   0  0  0  0  0  0  0  0  0  0  0  0
   -2.2628   -2.4541    0.0000 C   0  0  0  0  0  0  0  0  0  0  0  0
   -2.8756   -1.0850    0.0000 C   0  0  0  0  0  0  0  0  0  0  0  0
   -4.3676   -0.9311    0.0000 C   0  0  0  0  0  0  0  0  0  0  0  0
   -4.9804    0.4380    0.0000 C   0  0  0  0  0  0  0  0  0  0  0  0
   -4.1011    1.6532    0.0000 O   0  0  0  0  0  0  0  0  0  0  0  0
   -6.4725    0.5919    0.0000 O   0  0  0  0  0  0  0  0  0  0  0  0
   -7.0853    1.9610    0.0000 C   0  0  0  0  0  0  0  0  0  0  0  0
   -8.5774    2.1149    0.0000 C   0  0  0  0  0  0  0  0  0  0  0  0
   -9.4567    0.8996    0.0000 O   0  0  0  0  0  0  0  0  0  0  0  0
   -9.1901    3.4840    0.0000 O   0  0  0  0  0  0  0  0  0  0  0  0
   -0.7707   -2.6080    0.0000 C   0  0  0  0  0  0  0  0  0  0  0  0
   -0.0182   -3.9056    0.0000 C   0  0  0  0  0  0  0  0  0  0  0  0
    1.4484   -3.5909    0.0000 C   0  0  0  0  0  0  0  0  0  0  0  0
    1.6023   -2.0988    0.0000 C   0  0  0  0  0  0  0  0  0  0  0  0
    2.8141   -1.2147    0.0000 C   0  0  0  0  0  0  0  0  0  0  0  0
    4.1856   -1.8222    0.0000 C   0  0  0  0  0  0  0  0  0  0  0  0
    4.3453   -3.3136    0.0000 O   0  0  0  0  0  0  0  0  0  0  0  0
    5.3974   -0.9381    0.0000 C   0  0  0  0  0  0  0  0  0  0  0  0
    5.2377    0.5533    0.0000 C   0  0  0  0  0  0  0  0  0  0  0  0
    6.4495    1.4374    0.0000 C   0  0  0  0  0  0  0  0  0  0  0  0
    6.2898    2.9289    0.0000 C   0  0  0  0  0  0  0  0  0  0  0  0
    7.5016    3.8129    0.0000 O   0  0  0  0  0  0  0  0  0  0  0  0
    4.9183    3.5363    0.0000 C   0  0  0  0  0  0  0  0  0  0  0  0
    3.7065    2.6522    0.0000 C   0  0  0  0  0  0  0  0  0  0  0  0
    3.8662    1.1608    0.0000 C   0  0  0  0  0  0  0  0  0  0  0  0
    2.4947    1.7682    0.0000 C   0  0  0  0  0  0  0  0  0  0  0  0
    2.6544    0.2767    0.0000 C   0  0  0  0  0  0  0  0  0  0  0  0
    1.2829    0.8842    0.0000 C   0  0  0  0  0  0  0  0  0  0  0  0
    0.0711    0.0001    0.0000 C   0  0  0  0  0  0  0  0  0  0  0  0
    0.2308   -1.4914    0.0000 C   0  0  0  0  0  0  0  0  0  0  0  0
   -1.1967   -1.0306    0.0000 C   0  0  0  0  0  0  0  0  0  0  0  0
  2  1  1  6
  2  3  1  0
  3  4  1  0
  4  5  1  0
  5  6  2  0
  5  7  1  0
  7  8  1  0
  8  9  1  0
  9 10  2  0
  9 11  1  0
  2 12  1  0
 12 13  1  6
 13 14  1  0
 15 14  1  6
 15 16  1  0
 16 17  1  1
 17 18  1  6
 17 19  1  0
 20 19  1  1
 20 21  1  0
 21 22  1  0
 22 23  1  6
 22 24  1  0
 24 25  1  0
 25 26  1  0
 26 27  1  6
 26 28  1  0
 28 29  1  6
 29 30  1  0
 30 31  1  0
 31 32  1  6
 31 12  1  0
 31 15  1  0
 28 16  1  0
 26 20  1  0
M  END
>  <MS_ID>  (1800) 
MS1867

>  <SMILES>  (1800) 
C[C@H](CCC(=O)OCC(=O)O)[C@H]1CC[C@H]2[C@@H]3[C@@H](O)C[C@@H]4C[C@@H](O)CC[C@]4(C)[C@H]3CC[C@]12C

>  <Structure_dimension>  (1800) 
2D

$$$$
MS1868
     RDKit          2D

 28 31  0  0  0  0  0  0  0  0999 V2000
   -5.1275   -2.0302    0.0000 C   0  0  0  0  0  0  0  0  0  0  0  0
   -3.9468   -1.1050    0.0000 C   0  0  0  0  0  0  0  0  0  0  0  0
   -4.1576    0.3801    0.0000 C   0  0  0  0  0  0  0  0  0  0  0  0
   -5.5492    0.9401    0.0000 C   0  0  0  0  0  0  0  0  0  0  0  0
   -5.7600    2.4252    0.0000 C   0  0  0  0  0  0  0  0  0  0  0  0
   -4.5793    3.3503    0.0000 O   0  0  0  0  0  0  0  0  0  0  0  0
   -7.1516    2.9851    0.0000 O   0  0  0  0  0  0  0  0  0  0  0  0
   -2.5552   -1.6650    0.0000 C   0  0  0  0  0  0  0  0  0  0  0  0
   -2.1903   -3.1199    0.0000 C   0  0  0  0  0  0  0  0  0  0  0  0
   -0.6938   -3.2225    0.0000 C   0  0  0  0  0  0  0  0  0  0  0  0
   -0.1339   -1.8309    0.0000 C   0  0  0  0  0  0  0  0  0  0  0  0
    1.2750   -1.3159    0.0000 C   0  0  0  0  0  0  0  0  0  0  0  0
    2.4254   -2.2785    0.0000 C   0  0  0  0  0  0  0  0  0  0  0  0
    2.1670   -3.7560    0.0000 S   0  0  0  0  0  0  0  0  0  0  0  0
    3.8342   -1.7635    0.0000 C   0  0  0  0  0  0  0  0  0  0  0  0
    4.0926   -0.2859    0.0000 C   0  0  0  0  0  0  0  0  0  0  0  0
    5.5014    0.2291    0.0000 C   0  0  0  0  0  0  0  0  0  0  0  0
    5.7598    1.7067    0.0000 C   0  0  0  0  0  0  0  0  0  0  0  0
    7.1687    2.2217    0.0000 O   0  0  0  0  0  0  0  0  0  0  0  0
    4.6094    2.6692    0.0000 C   0  0  0  0  0  0  0  0  0  0  0  0
    3.2006    2.1542    0.0000 C   0  0  0  0  0  0  0  0  0  0  0  0
    2.9422    0.6767    0.0000 C   0  0  0  0  0  0  0  0  0  0  0  0
    1.7918    1.6392    0.0000 C   0  0  0  0  0  0  0  0  0  0  0  0
    1.5334    0.1617    0.0000 C   0  0  0  0  0  0  0  0  0  0  0  0
    0.3830    1.1242    0.0000 C   0  0  0  0  0  0  0  0  0  0  0  0
   -1.0259    0.6093    0.0000 C   0  0  0  0  0  0  0  0  0  0  0  0
   -1.2843   -0.8683    0.0000 C   0  0  0  0  0  0  0  0  0  0  0  0
   -2.5290   -0.0313    0.0000 C   0  0  0  0  0  0  0  0  0  0  0  0
  2  1  1  6
  2  3  1  0
  3  4  1  0
  4  5  1  0
  5  6  2  0
  5  7  1  0
  2  8  1  0
  8  9  1  6
  9 10  1  0
 11 10  1  6
 11 12  1  0
 12 13  1  1
 13 14  1  6
 13 15  1  0
 16 15  1  1
 16 17  1  0
 17 18  1  0
 18 19  1  1
 18 20  1  0
 20 21  1  0
 21 22  1  0
 22 23  1  6
 22 24  1  0
 24 25  1  6
 25 26  1  0
 26 27  1  0
 27 28  1  6
 27  8  1  0
 27 11  1  0
 24 12  1  0
 22 16  1  0
M  END
>  <MS_ID>  (1801) 
MS1868

>  <SMILES>  (1801) 
C[C@H](CCC(=O)O)[C@H]1CC[C@H]2[C@@H]3[C@@H](S)C[C@@H]4C[C@H](O)CC[C@]4(C)[C@H]3CC[C@]12C

>  <Structure_dimension>  (1801) 
2D

$$$$
MS1869
     RDKit          2D

 30 33  0  0  0  0  0  0  0  0999 V2000
   -5.3676   -2.0337    0.0000 C   0  0  0  0  0  0  0  0  0  0  0  0
   -4.1713   -1.1288    0.0000 C   0  0  0  0  0  0  0  0  0  0  0  0
   -4.3569    0.3597    0.0000 C   0  0  0  0  0  0  0  0  0  0  0  0
   -5.7388    0.9432    0.0000 C   0  0  0  0  0  0  0  0  0  0  0  0
   -5.9244    2.4317    0.0000 C   0  0  0  0  0  0  0  0  0  0  0  0
   -4.7281    3.3367    0.0000 O   0  0  0  0  0  0  0  0  0  0  0  0
   -7.3062    3.0152    0.0000 O   0  0  0  0  0  0  0  0  0  0  0  0
   -2.7894   -1.7123    0.0000 C   0  0  0  0  0  0  0  0  0  0  0  0
   -2.4493   -3.1732    0.0000 C   0  0  0  0  0  0  0  0  0  0  0  0
   -0.9547   -3.3011    0.0000 C   0  0  0  0  0  0  0  0  0  0  0  0
   -0.3712   -1.9192    0.0000 C   0  0  0  0  0  0  0  0  0  0  0  0
    1.0461   -1.4282    0.0000 C   0  0  0  0  0  0  0  0  0  0  0  0
    2.1800   -2.4102    0.0000 C   0  0  0  0  0  0  0  0  0  0  0  0
    1.8966   -3.8832    0.0000 O   0  0  0  0  0  0  0  0  0  0  0  0
    3.5974   -1.9192    0.0000 C   0  0  0  0  0  0  0  0  0  0  0  0
    3.8808   -0.4462    0.0000 C   0  0  0  0  0  0  0  0  0  0  0  0
    5.2982    0.0448    0.0000 C   0  0  0  0  0  0  0  0  0  0  0  0
    5.5816    1.5178    0.0000 C   0  0  0  0  0  0  0  0  0  0  0  0
    6.9990    2.0088    0.0000 C   0  0  0  0  0  0  0  0  0  0  0  0
    8.1329    1.0269    0.0000 O   0  0  0  0  0  0  0  0  0  0  0  0
    4.4477    2.4998    0.0000 C   0  0  0  0  0  0  0  0  0  0  0  0
    3.0304    2.0087    0.0000 C   0  0  0  0  0  0  0  0  0  0  0  0
    2.7469    0.5358    0.0000 C   0  0  0  0  0  0  0  0  0  0  0  0
    1.6130    1.5177    0.0000 C   0  0  0  0  0  0  0  0  0  0  0  0
    1.3296    0.0448    0.0000 C   0  0  0  0  0  0  0  0  0  0  0  0
    0.1957    1.0267    0.0000 C   0  0  0  0  0  0  0  0  0  0  0  0
   -1.2217    0.5357    0.0000 C   0  0  0  0  0  0  0  0  0  0  0  0
   -2.3556    1.5177    0.0000 O   0  0  0  0  0  0  0  0  0  0  0  0
   -1.5052   -0.9373    0.0000 C   0  0  0  0  0  0  0  0  0  0  0  0
   -2.7355   -0.0792    0.0000 C   0  0  0  0  0  0  0  0  0  0  0  0
  2  1  1  6
  2  3  1  0
  3  4  1  0
  4  5  1  0
  5  6  2  0
  5  7  1  0
  2  8  1  0
  8  9  1  6
  9 10  1  0
 11 10  1  6
 11 12  1  0
 12 13  1  1
 13 14  1  6
 13 15  1  0
 16 15  1  1
 16 17  1  0
 17 18  1  0
 18 19  1  6
 19 20  1  0
 18 21  1  0
 21 22  1  0
 22 23  1  0
 23 24  1  6
 23 25  1  0
 25 26  1  6
 26 27  1  0
 27 28  1  1
 27 29  1  0
 29 30  1  6
 29  8  1  0
 29 11  1  0
 25 12  1  0
 23 16  1  0
M  END
>  <MS_ID>  (1802) 
MS1869

>  <SMILES>  (1802) 
C[C@H](CCC(=O)O)[C@H]1CC[C@H]2[C@@H]3[C@@H](O)C[C@@H]4C[C@@H](CO)CC[C@]4(C)[C@H]3C[C@H](O)[C@]12C

>  <Structure_dimension>  (1802) 
2D

$$$$
MS1870
     RDKit          2D

 28 31  0  0  0  0  0  0  0  0999 V2000
   -5.0096   -2.1352    0.0000 C   0  0  0  0  0  0  0  0  0  0  0  0
   -3.8132   -1.2303    0.0000 C   0  0  0  0  0  0  0  0  0  0  0  0
   -3.9987    0.2582    0.0000 C   0  0  0  0  0  0  0  0  0  0  0  0
   -5.3805    0.8418    0.0000 C   0  0  0  0  0  0  0  0  0  0  0  0
   -5.5659    2.3303    0.0000 C   0  0  0  0  0  0  0  0  0  0  0  0
   -4.3695    3.2351    0.0000 O   0  0  0  0  0  0  0  0  0  0  0  0
   -6.9477    2.9140    0.0000 O   0  0  0  0  0  0  0  0  0  0  0  0
   -2.4315   -1.8140    0.0000 C   0  0  0  0  0  0  0  0  0  0  0  0
   -2.0914   -3.2749    0.0000 C   0  0  0  0  0  0  0  0  0  0  0  0
   -0.5969   -3.4030    0.0000 C   0  0  0  0  0  0  0  0  0  0  0  0
   -0.0133   -2.0212    0.0000 C   0  0  0  0  0  0  0  0  0  0  0  0
    1.4041   -1.5304    0.0000 C   0  0  0  0  0  0  0  0  0  0  0  0
    2.5379   -2.5125    0.0000 C   0  0  0  0  0  0  0  0  0  0  0  0
    3.9554   -2.0216    0.0000 C   0  0  0  0  0  0  0  0  0  0  0  0
    4.2390   -0.5487    0.0000 C   0  0  0  0  0  0  0  0  0  0  0  0
    5.6564   -0.0578    0.0000 C   0  0  0  0  0  0  0  0  0  0  0  0
    5.9400    1.4151    0.0000 C   0  0  0  0  0  0  0  0  0  0  0  0
    7.3574    1.9060    0.0000 O   0  0  0  0  0  0  0  0  0  0  0  0
    4.8062    2.3972    0.0000 C   0  0  0  0  0  0  0  0  0  0  0  0
    3.3888    1.9064    0.0000 C   0  0  0  0  0  0  0  0  0  0  0  0
    3.1052    0.4334    0.0000 C   0  0  0  0  0  0  0  0  0  0  0  0
    1.9714    1.4155    0.0000 C   0  0  0  0  0  0  0  0  0  0  0  0
    1.6878   -0.0574    0.0000 C   0  0  0  0  0  0  0  0  0  0  0  0
    0.5540    0.9246    0.0000 C   0  0  0  0  0  0  0  0  0  0  0  0
   -0.8635    0.4338    0.0000 C   0  0  0  0  0  0  0  0  0  0  0  0
   -1.9973    1.4159    0.0000 O   0  0  0  0  0  0  0  0  0  0  0  0
   -1.1471   -1.0392    0.0000 C   0  0  0  0  0  0  0  0  0  0  0  0
   -2.3773   -0.1810    0.0000 C   0  0  0  0  0  0  0  0  0  0  0  0
  2  1  1  1
  2  3  1  0
  3  4  1  0
  4  5  1  0
  5  6  2  0
  5  7  1  0
  2  8  1  0
  8  9  1  6
  9 10  1  0
 11 10  1  6
 11 12  1  0
 12 13  1  1
 13 14  1  0
 15 14  1  1
 15 16  1  0
 16 17  1  0
 17 18  1  1
 17 19  1  0
 19 20  1  0
 20 21  1  0
 21 22  1  6
 21 23  1  0
 23 24  1  6
 24 25  1  0
 25 26  1  1
 25 27  1  0
 27 28  1  6
 27  8  1  0
 27 11  1  0
 23 12  1  0
 21 15  1  0
M  END
>  <MS_ID>  (1803) 
MS1870

>  <SMILES>  (1803) 
C[C@@H](CCC(=O)O)[C@H]1CC[C@H]2[C@@H]3CC[C@@H]4C[C@H](O)CC[C@]4(C)[C@H]3C[C@H](O)[C@]12C

>  <Structure_dimension>  (1803) 
2D

$$$$
MS1871
     RDKit          2D

 29 32  0  0  0  0  0  0  0  0999 V2000
   -5.0303   -2.1373    0.0000 C   0  0  0  0  0  0  0  0  0  0  0  0
   -3.8594   -1.1998    0.0000 C   0  0  0  0  0  0  0  0  0  0  0  0
   -4.0858    0.2830    0.0000 C   0  0  0  0  0  0  0  0  0  0  0  0
   -5.4831    0.8284    0.0000 C   0  0  0  0  0  0  0  0  0  0  0  0
   -5.7095    2.3112    0.0000 C   0  0  0  0  0  0  0  0  0  0  0  0
   -4.5386    3.2487    0.0000 O   0  0  0  0  0  0  0  0  0  0  0  0
   -7.1069    2.8565    0.0000 O   0  0  0  0  0  0  0  0  0  0  0  0
   -2.4620   -1.7451    0.0000 C   0  0  0  0  0  0  0  0  0  0  0  0
   -2.0818   -3.1961    0.0000 C   0  0  0  0  0  0  0  0  0  0  0  0
   -0.5844   -3.2830    0.0000 C   0  0  0  0  0  0  0  0  0  0  0  0
   -0.0390   -1.8856    0.0000 C   0  0  0  0  0  0  0  0  0  0  0  0
    1.3643   -1.3559    0.0000 C   0  0  0  0  0  0  0  0  0  0  0  0
    2.5248   -2.3063    0.0000 C   0  0  0  0  0  0  0  0  0  0  0  0
    2.2819   -3.7865    0.0000 O   0  0  0  0  0  0  0  0  0  0  0  0
    3.9281   -1.7765    0.0000 C   0  0  0  0  0  0  0  0  0  0  0  0
    4.1710   -0.2963    0.0000 C   0  0  0  0  0  0  0  0  0  0  0  0
    5.5743    0.2334    0.0000 C   0  0  0  0  0  0  0  0  0  0  0  0
    5.8172    1.7136    0.0000 C   0  0  0  0  0  0  0  0  0  0  0  0
    7.2205    2.2434    0.0000 Cl  0  0  0  0  0  0  0  0  0  0  0  0
    4.6568    2.6641    0.0000 C   0  0  0  0  0  0  0  0  0  0  0  0
    3.2534    2.1343    0.0000 C   0  0  0  0  0  0  0  0  0  0  0  0
    3.0105    0.6541    0.0000 C   0  0  0  0  0  0  0  0  0  0  0  0
    1.8501    1.6046    0.0000 C   0  0  0  0  0  0  0  0  0  0  0  0
    1.6072    0.1244    0.0000 C   0  0  0  0  0  0  0  0  0  0  0  0
    0.4467    1.0748    0.0000 C   0  0  0  0  0  0  0  0  0  0  0  0
   -0.9566    0.5450    0.0000 C   0  0  0  0  0  0  0  0  0  0  0  0
   -2.1170    1.4955    0.0000 O   0  0  0  0  0  0  0  0  0  0  0  0
   -1.1995   -0.9352    0.0000 C   0  0  0  0  0  0  0  0  0  0  0  0
   -2.4529   -0.1112    0.0000 C   0  0  0  0  0  0  0  0  0  0  0  0
  2  1  1  6
  2  3  1  0
  3  4  1  0
  4  5  1  0
  5  6  2  0
  5  7  1  0
  2  8  1  0
  8  9  1  6
  9 10  1  0
 11 10  1  6
 11 12  1  0
 12 13  1  1
 13 14  2  0
 13 15  1  0
 16 15  1  1
 16 17  1  0
 17 18  1  0
 18 19  1  1
 18 20  1  0
 20 21  1  0
 21 22  1  0
 22 23  1  6
 22 24  1  0
 24 25  1  6
 25 26  1  0
 26 27  1  1
 26 28  1  0
 28 29  1  6
 28  8  1  0
 28 11  1  0
 24 12  1  0
 22 16  1  0
M  END
>  <MS_ID>  (1804) 
MS1871

>  <SMILES>  (1804) 
C[C@H](CCC(=O)O)[C@H]1CC[C@H]2[C@@H]3C(=O)C[C@@H]4C[C@H](Cl)CC[C@]4(C)[C@H]3C[C@H](O)[C@]12C

>  <Structure_dimension>  (1804) 
2D

$$$$
MS1872
     RDKit          2D

 35 39  0  0  0  0  0  0  0  0999 V2000
   -1.7226   -4.5748    0.0000 C   0  0  0  0  0  0  0  0  0  0  0  0
   -1.0860   -3.2166    0.0000 C   0  0  0  0  0  0  0  0  0  0  0  0
   -1.9441   -1.9862    0.0000 C   0  0  0  0  0  0  0  0  0  0  0  0
   -3.4386   -2.1141    0.0000 C   0  0  0  0  0  0  0  0  0  0  0  0
   -4.2966   -0.8837    0.0000 C   0  0  0  0  0  0  0  0  0  0  0  0
   -3.6601    0.4746    0.0000 O   0  0  0  0  0  0  0  0  0  0  0  0
   -5.7911   -1.0116    0.0000 N   0  0  0  0  0  0  0  0  0  0  0  0
   -6.6492    0.2188    0.0000 C   0  0  0  0  0  0  0  0  0  0  0  0
   -6.0126    1.5771    0.0000 C   0  0  0  0  0  0  0  0  0  0  0  0
   -6.8706    2.8074    0.0000 C   0  0  0  0  0  0  0  0  0  0  0  0
   -8.3652    2.6796    0.0000 C   0  0  0  0  0  0  0  0  0  0  0  0
   -9.2232    3.9099    0.0000 O   0  0  0  0  0  0  0  0  0  0  0  0
   -9.0017    1.3213    0.0000 C   0  0  0  0  0  0  0  0  0  0  0  0
   -8.1437    0.0909    0.0000 C   0  0  0  0  0  0  0  0  0  0  0  0
    0.4085   -3.0887    0.0000 C   0  0  0  0  0  0  0  0  0  0  0  0
    1.3904   -4.2226    0.0000 C   0  0  0  0  0  0  0  0  0  0  0  0
    2.7723   -3.6392    0.0000 C   0  0  0  0  0  0  0  0  0  0  0  0
    2.6444   -2.1446    0.0000 C   0  0  0  0  0  0  0  0  0  0  0  0
    3.6695   -1.0496    0.0000 C   0  0  0  0  0  0  0  0  0  0  0  0
    5.1304   -1.3898    0.0000 C   0  0  0  0  0  0  0  0  0  0  0  0
    5.5662   -2.8251    0.0000 O   0  0  0  0  0  0  0  0  0  0  0  0
    6.1555   -0.2947    0.0000 C   0  0  0  0  0  0  0  0  0  0  0  0
    5.7197    1.1406    0.0000 C   0  0  0  0  0  0  0  0  0  0  0  0
    6.7448    2.2356    0.0000 C   0  0  0  0  0  0  0  0  0  0  0  0
    6.3090    3.6709    0.0000 C   0  0  0  0  0  0  0  0  0  0  0  0
    7.3341    4.7660    0.0000 O   0  0  0  0  0  0  0  0  0  0  0  0
    4.8481    4.0112    0.0000 C   0  0  0  0  0  0  0  0  0  0  0  0
    3.8230    2.9161    0.0000 C   0  0  0  0  0  0  0  0  0  0  0  0
    4.2588    1.4808    0.0000 C   0  0  0  0  0  0  0  0  0  0  0  0
    2.7979    1.8210    0.0000 C   0  0  0  0  0  0  0  0  0  0  0  0
    3.2337    0.3857    0.0000 C   0  0  0  0  0  0  0  0  0  0  0  0
    1.7728    0.7259    0.0000 C   0  0  0  0  0  0  0  0  0  0  0  0
    0.7477   -0.3691    0.0000 C   0  0  0  0  0  0  0  0  0  0  0  0
    1.1835   -1.8044    0.0000 C   0  0  0  0  0  0  0  0  0  0  0  0
   -0.3050   -1.6188    0.0000 C   0  0  0  0  0  0  0  0  0  0  0  0
  2  1  1  6
  2  3  1  0
  3  4  1  0
  4  5  1  0
  5  6  2  0
  5  7  1  0
  7  8  1  0
  8  9  2  0
  9 10  1  0
 10 11  2  0
 11 12  1  0
 11 13  1  0
 13 14  2  0
  2 15  1  0
 15 16  1  6
 16 17  1  0
 18 17  1  6
 18 19  1  0
 19 20  1  1
 20 21  1  6
 20 22  1  0
 23 22  1  1
 23 24  1  0
 24 25  1  0
 25 26  1  1
 25 27  1  0
 27 28  1  0
 28 29  1  0
 29 30  1  6
 29 31  1  0
 31 32  1  6
 32 33  1  0
 33 34  1  0
 34 35  1  6
 14  8  1  0
 34 15  1  0
 34 18  1  0
 31 19  1  0
 29 23  1  0
M  END
>  <MS_ID>  (1805) 
MS1872

>  <SMILES>  (1805) 
C[C@H](CCC(=O)Nc1ccc(O)cc1)[C@H]1CC[C@H]2[C@@H]3[C@@H](O)C[C@@H]4C[C@H](O)CC[C@]4(C)[C@H]3CC[C@]12C

>  <Structure_dimension>  (1805) 
2D

$$$$
MS1873
     RDKit          2D

 34 37  0  0  0  0  0  0  0  0999 V2000
   -2.2502   -4.2128    0.0000 C   0  0  0  0  0  0  0  0  0  0  0  0
   -1.5218   -2.9016    0.0000 C   0  0  0  0  0  0  0  0  0  0  0  0
   -2.2931   -1.6151    0.0000 C   0  0  0  0  0  0  0  0  0  0  0  0
   -3.7929   -1.6399    0.0000 C   0  0  0  0  0  0  0  0  0  0  0  0
   -4.5643   -0.3534    0.0000 C   0  0  0  0  0  0  0  0  0  0  0  0
   -3.8359    0.9578    0.0000 O   0  0  0  0  0  0  0  0  0  0  0  0
   -6.0641   -0.3782    0.0000 C   0  0  0  0  0  0  0  0  0  0  0  0
   -6.8355    0.9082    0.0000 C   0  0  0  0  0  0  0  0  0  0  0  0
   -8.3353    0.8834    0.0000 C   0  0  0  0  0  0  0  0  0  0  0  0
   -9.1066    2.1699    0.0000 C   0  0  0  0  0  0  0  0  0  0  0  0
  -10.6064    2.1451    0.0000 C   0  0  0  0  0  0  0  0  0  0  0  0
  -11.3778    3.4316    0.0000 O   0  0  0  0  0  0  0  0  0  0  0  0
   -0.0220   -2.8768    0.0000 C   0  0  0  0  0  0  0  0  0  0  0  0
    0.8797   -4.0755    0.0000 C   0  0  0  0  0  0  0  0  0  0  0  0
    2.2984   -3.5885    0.0000 C   0  0  0  0  0  0  0  0  0  0  0  0
    2.2736   -2.0887    0.0000 C   0  0  0  0  0  0  0  0  0  0  0  0
    3.3716   -1.0667    0.0000 C   0  0  0  0  0  0  0  0  0  0  0  0
    4.8056   -1.5066    0.0000 C   0  0  0  0  0  0  0  0  0  0  0  0
    5.1417   -2.9685    0.0000 O   0  0  0  0  0  0  0  0  0  0  0  0
    5.9036   -0.4846    0.0000 C   0  0  0  0  0  0  0  0  0  0  0  0
    5.5675    0.9773    0.0000 C   0  0  0  0  0  0  0  0  0  0  0  0
    6.6655    1.9992    0.0000 C   0  0  0  0  0  0  0  0  0  0  0  0
    6.3294    3.4611    0.0000 C   0  0  0  0  0  0  0  0  0  0  0  0
    7.4274    4.4831    0.0000 O   0  0  0  0  0  0  0  0  0  0  0  0
    4.8953    3.9010    0.0000 C   0  0  0  0  0  0  0  0  0  0  0  0
    3.7974    2.8790    0.0000 C   0  0  0  0  0  0  0  0  0  0  0  0
    4.1334    1.4171    0.0000 C   0  0  0  0  0  0  0  0  0  0  0  0
    2.6994    1.8570    0.0000 C   0  0  0  0  0  0  0  0  0  0  0  0
    3.0355    0.3951    0.0000 C   0  0  0  0  0  0  0  0  0  0  0  0
    1.6014    0.8350    0.0000 C   0  0  0  0  0  0  0  0  0  0  0  0
    0.5034   -0.1870    0.0000 C   0  0  0  0  0  0  0  0  0  0  0  0
   -0.9306    0.2529    0.0000 O   0  0  0  0  0  0  0  0  0  0  0  0
    0.8395   -1.6488    0.0000 C   0  0  0  0  0  0  0  0  0  0  0  0
   -0.6326   -1.3613    0.0000 C   0  0  0  0  0  0  0  0  0  0  0  0
  2  1  1  6
  2  3  1  0
  3  4  1  0
  4  5  1  0
  5  6  2  0
  5  7  1  0
  7  8  2  0
  8  9  1  0
  9 10  2  0
 10 11  1  0
 11 12  1  0
  2 13  1  0
 13 14  1  6
 14 15  1  0
 16 15  1  6
 16 17  1  0
 17 18  1  1
 18 19  1  1
 18 20  1  0
 21 20  1  1
 21 22  1  0
 22 23  1  0
 23 24  1  1
 23 25  1  0
 25 26  1  0
 26 27  1  0
 27 28  1  6
 27 29  1  0
 29 30  1  6
 30 31  1  0
 31 32  1  1
 31 33  1  0
 33 34  1  6
 33 13  1  0
 33 16  1  0
 29 17  1  0
 27 21  1  0
M  END
>  <MS_ID>  (1806) 
MS1873

>  <SMILES>  (1806) 
C[C@H](CCC(=O)/C=C/C=C/CO)[C@H]1CC[C@H]2[C@@H]3[C@H](O)C[C@@H]4C[C@H](O)CC[C@]4(C)[C@H]3C[C@H](O)[C@]12C

>  <Structure_dimension>  (1806) 
2D

$$$$
MS1874
     RDKit          2D

 29 32  0  0  0  0  0  0  0  0999 V2000
   -5.0303   -2.1373    0.0000 C   0  0  0  0  0  0  0  0  0  0  0  0
   -3.8594   -1.1998    0.0000 C   0  0  0  0  0  0  0  0  0  0  0  0
   -4.0858    0.2830    0.0000 C   0  0  0  0  0  0  0  0  0  0  0  0
   -5.4831    0.8284    0.0000 C   0  0  0  0  0  0  0  0  0  0  0  0
   -5.7095    2.3112    0.0000 C   0  0  0  0  0  0  0  0  0  0  0  0
   -4.5386    3.2487    0.0000 O   0  0  0  0  0  0  0  0  0  0  0  0
   -7.1069    2.8565    0.0000 O   0  0  0  0  0  0  0  0  0  0  0  0
   -2.4620   -1.7451    0.0000 C   0  0  0  0  0  0  0  0  0  0  0  0
   -2.0818   -3.1961    0.0000 C   0  0  0  0  0  0  0  0  0  0  0  0
   -0.5844   -3.2830    0.0000 C   0  0  0  0  0  0  0  0  0  0  0  0
   -0.0390   -1.8856    0.0000 C   0  0  0  0  0  0  0  0  0  0  0  0
    1.3643   -1.3559    0.0000 C   0  0  0  0  0  0  0  0  0  0  0  0
    2.5248   -2.3063    0.0000 C   0  0  0  0  0  0  0  0  0  0  0  0
    2.2819   -3.7865    0.0000 O   0  0  0  0  0  0  0  0  0  0  0  0
    3.9281   -1.7765    0.0000 C   0  0  0  0  0  0  0  0  0  0  0  0
    4.1710   -0.2963    0.0000 C   0  0  0  0  0  0  0  0  0  0  0  0
    5.5743    0.2334    0.0000 C   0  0  0  0  0  0  0  0  0  0  0  0
    5.8172    1.7136    0.0000 C   0  0  0  0  0  0  0  0  0  0  0  0
    7.2205    2.2434    0.0000 O   0  0  0  0  0  0  0  0  0  0  0  0
    4.6568    2.6641    0.0000 C   0  0  0  0  0  0  0  0  0  0  0  0
    3.2534    2.1343    0.0000 C   0  0  0  0  0  0  0  0  0  0  0  0
    3.0105    0.6541    0.0000 C   0  0  0  0  0  0  0  0  0  0  0  0
    1.8501    1.6046    0.0000 C   0  0  0  0  0  0  0  0  0  0  0  0
    1.6072    0.1244    0.0000 C   0  0  0  0  0  0  0  0  0  0  0  0
    0.4467    1.0748    0.0000 C   0  0  0  0  0  0  0  0  0  0  0  0
   -0.9566    0.5450    0.0000 C   0  0  0  0  0  0  0  0  0  0  0  0
   -2.1170    1.4955    0.0000 F   0  0  0  0  0  0  0  0  0  0  0  0
   -1.1995   -0.9352    0.0000 C   0  0  0  0  0  0  0  0  0  0  0  0
   -2.4529   -0.1112    0.0000 C   0  0  0  0  0  0  0  0  0  0  0  0
  2  1  1  6
  2  3  1  0
  3  4  1  0
  4  5  1  0
  5  6  2  0
  5  7  1  0
  2  8  1  0
  8  9  1  6
  9 10  1  0
 11 10  1  6
 11 12  1  0
 12 13  1  1
 13 14  1  1
 13 15  1  0
 16 15  1  1
 16 17  1  0
 17 18  1  0
 18 19  1  1
 18 20  1  0
 20 21  1  0
 21 22  1  0
 22 23  1  6
 22 24  1  0
 24 25  1  6
 25 26  1  0
 26 27  1  6
 26 28  1  0
 28 29  1  6
 28  8  1  0
 28 11  1  0
 24 12  1  0
 22 16  1  0
M  END
>  <MS_ID>  (1807) 
MS1874

>  <SMILES>  (1807) 
C[C@H](CCC(=O)O)[C@H]1CC[C@H]2[C@@H]3[C@H](O)C[C@@H]4C[C@H](O)CC[C@]4(C)[C@H]3C[C@@H](F)[C@]12C

>  <Structure_dimension>  (1807) 
2D

$$$$
MS1875
     RDKit          2D

 36 39  0  0  0  0  0  0  0  0999 V2000
   -0.1675   -4.7554    0.0000 C   0  0  0  0  0  0  0  0  0  0  0  0
    0.4025   -3.3680    0.0000 C   0  0  0  0  0  0  0  0  0  0  0  0
   -0.5140   -2.1806    0.0000 C   0  0  0  0  0  0  0  0  0  0  0  0
   -2.0006   -2.3806    0.0000 C   0  0  0  0  0  0  0  0  0  0  0  0
   -2.9172   -1.1932    0.0000 C   0  0  0  0  0  0  0  0  0  0  0  0
   -2.3471    0.1942    0.0000 O   0  0  0  0  0  0  0  0  0  0  0  0
   -4.4038   -1.3933    0.0000 N   0  0  0  0  0  0  0  0  0  0  0  0
   -5.3203   -0.2059    0.0000 C   0  0  0  0  0  0  0  0  0  0  0  0
   -6.8069   -0.4059    0.0000 C   0  0  0  0  0  0  0  0  0  0  0  0
   -7.7235    0.7815    0.0000 C   0  0  0  0  0  0  0  0  0  0  0  0
   -9.2101    0.5814    0.0000 C   0  0  0  0  0  0  0  0  0  0  0  0
  -10.1266    1.7688    0.0000 C   0  0  0  0  0  0  0  0  0  0  0  0
   -9.5566    3.1563    0.0000 N   0  0  0  0  0  0  0  0  0  0  0  0
  -11.6132    1.5688    0.0000 C   0  0  0  0  0  0  0  0  0  0  0  0
  -12.1833    0.1813    0.0000 O   0  0  0  0  0  0  0  0  0  0  0  0
  -12.5298    2.7562    0.0000 O   0  0  0  0  0  0  0  0  0  0  0  0
    1.8891   -3.1679    0.0000 C   0  0  0  0  0  0  0  0  0  0  0  0
    2.9248   -4.2530    0.0000 C   0  0  0  0  0  0  0  0  0  0  0  0
    4.2768   -3.6034    0.0000 C   0  0  0  0  0  0  0  0  0  0  0  0
    4.0767   -2.1168    0.0000 C   0  0  0  0  0  0  0  0  0  0  0  0
    5.0476   -0.9734    0.0000 C   0  0  0  0  0  0  0  0  0  0  0  0
    6.5233   -1.2425    0.0000 C   0  0  0  0  0  0  0  0  0  0  0  0
    7.4942   -0.0991    0.0000 C   0  0  0  0  0  0  0  0  0  0  0  0
    6.9894    1.3134    0.0000 C   0  0  0  0  0  0  0  0  0  0  0  0
    7.9603    2.4568    0.0000 C   0  0  0  0  0  0  0  0  0  0  0  0
    7.4556    3.8693    0.0000 C   0  0  0  0  0  0  0  0  0  0  0  0
    8.4265    5.0127    0.0000 O   0  0  0  0  0  0  0  0  0  0  0  0
    5.9799    4.1385    0.0000 C   0  0  0  0  0  0  0  0  0  0  0  0
    5.0090    2.9951    0.0000 C   0  0  0  0  0  0  0  0  0  0  0  0
    5.5138    1.5825    0.0000 C   0  0  0  0  0  0  0  0  0  0  0  0
    4.0381    1.8517    0.0000 C   0  0  0  0  0  0  0  0  0  0  0  0
    4.5429    0.4391    0.0000 C   0  0  0  0  0  0  0  0  0  0  0  0
    3.0672    0.7083    0.0000 C   0  0  0  0  0  0  0  0  0  0  0  0
    2.0963   -0.4351    0.0000 C   0  0  0  0  0  0  0  0  0  0  0  0
    2.6011   -1.8477    0.0000 C   0  0  0  0  0  0  0  0  0  0  0  0
    1.1054   -1.7343    0.0000 C   0  0  0  0  0  0  0  0  0  0  0  0
  2  1  1  6
  2  3  1  0
  3  4  1  0
  4  5  1  0
  5  6  2  0
  5  7  1  0
  7  8  1  0
  8  9  1  0
  9 10  1  0
 10 11  1  0
 11 12  1  0
 12 13  1  1
 12 14  1  0
 14 15  2  0
 14 16  1  0
  2 17  1  0
 17 18  1  6
 18 19  1  0
 20 19  1  6
 20 21  1  0
 21 22  1  1
 22 23  1  0
 24 23  1  1
 24 25  1  0
 25 26  1  0
 26 27  1  1
 26 28  1  0
 28 29  1  0
 29 30  1  0
 30 31  1  6
 30 32  1  0
 32 33  1  6
 33 34  1  0
 34 35  1  0
 35 36  1  6
 35 17  1  0
 35 20  1  0
 32 21  1  0
 30 24  1  0
M  END
>  <MS_ID>  (1808) 
MS1875

>  <SMILES>  (1808) 
C[C@H](CCC(=O)NCCCC[C@H](N)C(=O)O)[C@H]1CC[C@H]2[C@@H]3CC[C@@H]4C[C@H](O)CC[C@]4(C)[C@H]3CC[C@]12C

>  <Structure_dimension>  (1808) 
2D

$$$$
MS1876
     RDKit          2D

 36 40  0  0  0  0  0  0  0  0999 V2000
   -1.3106   -4.6495    0.0000 C   0  0  0  0  0  0  0  0  0  0  0  0
   -0.6382   -3.3087    0.0000 C   0  0  0  0  0  0  0  0  0  0  0  0
   -1.4632   -2.0559    0.0000 C   0  0  0  0  0  0  0  0  0  0  0  0
   -2.9606   -2.1440    0.0000 C   0  0  0  0  0  0  0  0  0  0  0  0
   -3.7856   -0.8913    0.0000 C   0  0  0  0  0  0  0  0  0  0  0  0
   -3.1131    0.4496    0.0000 O   0  0  0  0  0  0  0  0  0  0  0  0
   -5.2830   -0.9793    0.0000 O   0  0  0  0  0  0  0  0  0  0  0  0
   -6.1080    0.2734    0.0000 C   0  0  0  0  0  0  0  0  0  0  0  0
   -7.6064    0.3423    0.0000 C   0  0  0  0  0  0  0  0  0  0  0  0
   -8.5429   -0.8294    0.0000 O   0  0  0  0  0  0  0  0  0  0  0  0
   -8.0039    1.7887    0.0000 C   0  0  0  0  0  0  0  0  0  0  0  0
   -9.4076    2.3173    0.0000 O   0  0  0  0  0  0  0  0  0  0  0  0
   -6.7511    2.6137    0.0000 C   0  0  0  0  0  0  0  0  0  0  0  0
   -6.6822    4.1121    0.0000 O   0  0  0  0  0  0  0  0  0  0  0  0
   -5.5794    1.6772    0.0000 C   0  0  0  0  0  0  0  0  0  0  0  0
   -4.1330    2.0747    0.0000 O   0  0  0  0  0  0  0  0  0  0  0  0
    0.8592   -3.2206    0.0000 C   0  0  0  0  0  0  0  0  0  0  0  0
    1.8106   -4.3803    0.0000 C   0  0  0  0  0  0  0  0  0  0  0  0
    3.2075   -3.8338    0.0000 C   0  0  0  0  0  0  0  0  0  0  0  0
    3.1195   -2.3364    0.0000 C   0  0  0  0  0  0  0  0  0  0  0  0
    4.1733   -1.2690    0.0000 C   0  0  0  0  0  0  0  0  0  0  0  0
    5.6247   -1.6479    0.0000 C   0  0  0  0  0  0  0  0  0  0  0  0
    6.6785   -0.5805    0.0000 C   0  0  0  0  0  0  0  0  0  0  0  0
    6.2810    0.8659    0.0000 C   0  0  0  0  0  0  0  0  0  0  0  0
    7.3349    1.9333    0.0000 C   0  0  0  0  0  0  0  0  0  0  0  0
    6.9374    3.3797    0.0000 C   0  0  0  0  0  0  0  0  0  0  0  0
    7.9913    4.4471    0.0000 O   0  0  0  0  0  0  0  0  0  0  0  0
    5.4861    3.7586    0.0000 C   0  0  0  0  0  0  0  0  0  0  0  0
    4.4322    2.6912    0.0000 C   0  0  0  0  0  0  0  0  0  0  0  0
    4.8297    1.2448    0.0000 C   0  0  0  0  0  0  0  0  0  0  0  0
    3.3784    1.6238    0.0000 C   0  0  0  0  0  0  0  0  0  0  0  0
    3.7758    0.1774    0.0000 C   0  0  0  0  0  0  0  0  0  0  0  0
    2.3245    0.5564    0.0000 C   0  0  0  0  0  0  0  0  0  0  0  0
    1.2706   -0.5110    0.0000 C   0  0  0  0  0  0  0  0  0  0  0  0
    1.6681   -1.9574    0.0000 C   0  0  0  0  0  0  0  0  0  0  0  0
    0.1851   -1.7322    0.0000 C   0  0  0  0  0  0  0  0  0  0  0  0
  2  1  1  6
  2  3  1  0
  3  4  1  0
  4  5  1  0
  5  6  2  0
  5  7  1  0
  7  8  1  0
  8  9  1  0
  9 10  1  6
  9 11  1  0
 11 12  1  6
 11 13  1  0
 13 14  1  1
 13 15  1  0
 15 16  1  1
  2 17  1  0
 17 18  1  6
 18 19  1  0
 20 19  1  6
 20 21  1  0
 21 22  1  1
 22 23  1  0
 24 23  1  1
 24 25  1  0
 25 26  1  0
 26 27  2  0
 26 28  1  0
 28 29  1  0
 29 30  1  0
 30 31  1  6
 30 32  1  0
 32 33  1  6
 33 34  1  0
 34 35  1  0
 35 36  1  6
 15  8  1  0
 35 17  1  0
 35 20  1  0
 32 21  1  0
 30 24  1  0
M  END
>  <MS_ID>  (1809) 
MS1876

>  <SMILES>  (1809) 
C[C@H](CCC(=O)OC1[C@H](O)[C@H](O)[C@@H](O)[C@H]1O)[C@H]1CC[C@H]2[C@@H]3CC[C@@H]4CC(=O)CC[C@]4(C)[C@H]3CC[C@]12C

>  <Structure_dimension>  (1809) 
2D

$$$$
MS1877
     RDKit          2D

 38 42  0  0  0  0  0  0  0  0999 V2000
   -7.7878   -1.9555    0.0000 C   0  0  0  0  0  0  0  0  0  0  0  0
   -6.5918   -1.0501    0.0000 C   0  0  0  0  0  0  0  0  0  0  0  0
   -6.7779    0.4383    0.0000 C   0  0  0  0  0  0  0  0  0  0  0  0
   -8.1600    1.0213    0.0000 C   0  0  0  0  0  0  0  0  0  0  0  0
   -8.3461    2.5097    0.0000 C   0  0  0  0  0  0  0  0  0  0  0  0
   -7.1502    3.4151    0.0000 O   0  0  0  0  0  0  0  0  0  0  0  0
   -9.7282    3.0928    0.0000 O   0  0  0  0  0  0  0  0  0  0  0  0
   -5.2098   -1.6331    0.0000 C   0  0  0  0  0  0  0  0  0  0  0  0
   -4.8691   -3.0939    0.0000 C   0  0  0  0  0  0  0  0  0  0  0  0
   -3.3745   -3.2213    0.0000 C   0  0  0  0  0  0  0  0  0  0  0  0
   -2.7915   -1.8392    0.0000 C   0  0  0  0  0  0  0  0  0  0  0  0
   -1.3743   -1.3477    0.0000 C   0  0  0  0  0  0  0  0  0  0  0  0
   -0.2400   -2.3293    0.0000 C   0  0  0  0  0  0  0  0  0  0  0  0
   -0.5230   -3.8024    0.0000 O   0  0  0  0  0  0  0  0  0  0  0  0
    1.1772   -1.8378    0.0000 C   0  0  0  0  0  0  0  0  0  0  0  0
    1.4601   -0.3647    0.0000 C   0  0  0  0  0  0  0  0  0  0  0  0
    2.8773    0.1268    0.0000 C   0  0  0  0  0  0  0  0  0  0  0  0
    3.1602    1.5999    0.0000 C   0  0  0  0  0  0  0  0  0  0  0  0
    4.5774    2.0914    0.0000 O   0  0  0  0  0  0  0  0  0  0  0  0
    5.7116    1.1099    0.0000 C   0  0  0  0  0  0  0  0  0  0  0  0
    5.4287   -0.3632    0.0000 O   0  0  0  0  0  0  0  0  0  0  0  0
    6.5630   -1.3448    0.0000 C   0  0  0  0  0  0  0  0  0  0  0  0
    6.2800   -2.8179    0.0000 O   0  0  0  0  0  0  0  0  0  0  0  0
    7.9802   -0.8533    0.0000 C   0  0  0  0  0  0  0  0  0  0  0  0
    9.1144   -1.8348    0.0000 O   0  0  0  0  0  0  0  0  0  0  0  0
    8.2631    0.6198    0.0000 C   0  0  0  0  0  0  0  0  0  0  0  0
    9.6803    1.1113    0.0000 O   0  0  0  0  0  0  0  0  0  0  0  0
    7.1288    1.6014    0.0000 C   0  0  0  0  0  0  0  0  0  0  0  0
    7.4117    3.0745    0.0000 O   0  0  0  0  0  0  0  0  0  0  0  0
    2.0259    2.5815    0.0000 C   0  0  0  0  0  0  0  0  0  0  0  0
    0.6088    2.0899    0.0000 C   0  0  0  0  0  0  0  0  0  0  0  0
    0.3258    0.6169    0.0000 C   0  0  0  0  0  0  0  0  0  0  0  0
   -0.8084    1.5984    0.0000 C   0  0  0  0  0  0  0  0  0  0  0  0
   -1.0914    0.1254    0.0000 C   0  0  0  0  0  0  0  0  0  0  0  0
   -2.2256    1.1069    0.0000 C   0  0  0  0  0  0  0  0  0  0  0  0
   -3.6428    0.6154    0.0000 C   0  0  0  0  0  0  0  0  0  0  0  0
   -3.9257   -0.8577    0.0000 C   0  0  0  0  0  0  0  0  0  0  0  0
   -5.1564   -0.0001    0.0000 C   0  0  0  0  0  0  0  0  0  0  0  0
  2  1  1  6
  2  3  1  0
  3  4  1  0
  4  5  1  0
  5  6  2  0
  5  7  1  0
  2  8  1  0
  8  9  1  6
  9 10  1  0
 11 10  1  6
 11 12  1  0
 12 13  1  1
 13 14  1  6
 13 15  1  0
 16 15  1  1
 16 17  1  0
 17 18  1  0
 18 19  1  1
 20 19  1  1
 20 21  1  0
 21 22  1  0
 22 23  1  1
 22 24  1  0
 24 25  1  6
 24 26  1  0
 26 27  1  1
 26 28  1  0
 28 29  1  6
 18 30  1  0
 30 31  1  0
 31 32  1  0
 32 33  1  6
 32 34  1  0
 34 35  1  6
 35 36  1  0
 36 37  1  0
 37 38  1  6
 37  8  1  0
 37 11  1  0
 34 12  1  0
 32 16  1  0
 28 20  1  0
M  END
>  <MS_ID>  (1810) 
MS1877

>  <SMILES>  (1810) 
C[C@H](CCC(=O)O)[C@H]1CC[C@H]2[C@@H]3[C@@H](O)C[C@@H]4C[C@H](O[C@@H]5O[C@H](O)[C@@H](O)[C@H](O)[C@H]5O)CC[C@]4(C)[C@H]3CC[C@]12C

>  <Structure_dimension>  (1810) 
2D

$$$$
MS1878
     RDKit          2D

 38 43  0  0  0  0  0  0  0  0999 V2000
   -1.7481   -3.9204    0.0000 C   0  0  0  0  0  0  0  0  0  0  0  0
   -0.9568   -2.6461    0.0000 C   0  0  0  0  0  0  0  0  0  0  0  0
   -1.6647   -1.3236    0.0000 C   0  0  0  0  0  0  0  0  0  0  0  0
   -3.1639   -1.2755    0.0000 C   0  0  0  0  0  0  0  0  0  0  0  0
   -3.8718    0.0470    0.0000 C   0  0  0  0  0  0  0  0  0  0  0  0
   -3.0805    1.3213    0.0000 O   0  0  0  0  0  0  0  0  0  0  0  0
   -5.3711    0.0951    0.0000 C   0  0  0  0  0  0  0  0  0  0  0  0
   -6.1624   -1.1792    0.0000 C   0  0  0  0  0  0  0  0  0  0  0  0
   -7.6616   -1.1310    0.0000 C   0  0  0  0  0  0  0  0  0  0  0  0
   -8.3695    0.1914    0.0000 C   0  0  0  0  0  0  0  0  0  0  0  0
   -9.8687    0.2396    0.0000 C   0  0  0  0  0  0  0  0  0  0  0  0
  -10.5767    1.5620    0.0000 C   0  0  0  0  0  0  0  0  0  0  0  0
   -9.7853    2.8363    0.0000 C   0  0  0  0  0  0  0  0  0  0  0  0
   -8.2861    2.7882    0.0000 C   0  0  0  0  0  0  0  0  0  0  0  0
   -7.5782    1.4657    0.0000 C   0  0  0  0  0  0  0  0  0  0  0  0
   -6.0790    1.4176    0.0000 N   0  0  0  0  0  0  0  0  0  0  0  0
    0.5424   -2.6942    0.0000 C   0  0  0  0  0  0  0  0  0  0  0  0
    1.3847   -3.9354    0.0000 C   0  0  0  0  0  0  0  0  0  0  0  0
    2.8254   -3.5179    0.0000 C   0  0  0  0  0  0  0  0  0  0  0  0
    2.8736   -2.0187    0.0000 C   0  0  0  0  0  0  0  0  0  0  0  0
    4.0199   -1.0513    0.0000 C   0  0  0  0  0  0  0  0  0  0  0  0
    5.4309   -1.5604    0.0000 C   0  0  0  0  0  0  0  0  0  0  0  0
    5.6955   -3.0369    0.0000 O   0  0  0  0  0  0  0  0  0  0  0  0
    6.5773   -0.5930    0.0000 C   0  0  0  0  0  0  0  0  0  0  0  0
    7.9883   -1.1021    0.0000 O   0  0  0  0  0  0  0  0  0  0  0  0
    6.3127    0.8835    0.0000 C   0  0  0  0  0  0  0  0  0  0  0  0
    7.4590    1.8509    0.0000 C   0  0  0  0  0  0  0  0  0  0  0  0
    7.1944    3.3273    0.0000 C   0  0  0  0  0  0  0  0  0  0  0  0
    8.3408    4.2947    0.0000 O   0  0  0  0  0  0  0  0  0  0  0  0
    5.7835    3.8364    0.0000 C   0  0  0  0  0  0  0  0  0  0  0  0
    4.6371    2.8690    0.0000 C   0  0  0  0  0  0  0  0  0  0  0  0
    4.9017    1.3925    0.0000 C   0  0  0  0  0  0  0  0  0  0  0  0
    3.4907    1.9016    0.0000 C   0  0  0  0  0  0  0  0  0  0  0  0
    3.7553    0.4251    0.0000 C   0  0  0  0  0  0  0  0  0  0  0  0
    2.3444    0.9342    0.0000 C   0  0  0  0  0  0  0  0  0  0  0  0
    1.1980   -0.0332    0.0000 C   0  0  0  0  0  0  0  0  0  0  0  0
    1.4626   -1.5096    0.0000 C   0  0  0  0  0  0  0  0  0  0  0  0
    0.0062   -1.1508    0.0000 C   0  0  0  0  0  0  0  0  0  0  0  0
  2  1  1  6
  2  3  1  0
  3  4  1  0
  4  5  1  0
  5  6  2  0
  5  7  1  0
  7  8  2  0
  8  9  1  0
  9 10  2  0
 10 11  1  0
 11 12  2  0
 12 13  1  0
 13 14  2  0
 14 15  1  0
 15 16  2  0
  2 17  1  0
 17 18  1  6
 18 19  1  0
 20 19  1  6
 20 21  1  0
 21 22  1  1
 22 23  1  1
 22 24  1  0
 24 25  1  1
 24 26  1  0
 26 27  1  1
 27 28  1  0
 28 29  1  1
 28 30  1  0
 30 31  1  0
 31 32  1  0
 32 33  1  6
 32 34  1  0
 34 35  1  6
 35 36  1  0
 36 37  1  0
 37 38  1  6
 16  7  1  0
 37 17  1  0
 15 10  1  0
 37 20  1  0
 34 21  1  0
 32 26  1  0
M  END
>  <MS_ID>  (1811) 
MS1878

>  <SMILES>  (1811) 
C[C@H](CCC(=O)c1ccc2ccccc2n1)[C@H]1CC[C@H]2[C@@H]3[C@H](O)[C@H](O)[C@@H]4C[C@H](O)CC[C@]4(C)[C@H]3CC[C@]12C

>  <Structure_dimension>  (1811) 
2D

$$$$
MS1879
     RDKit          2D

 31 34  0  0  0  0  0  0  0  0999 V2000
   -8.0062    3.2373    0.0000 C   0  0  0  0  0  0  0  0  0  0  0  0
   -6.6522    2.5917    0.0000 C   0  0  0  0  0  0  0  0  0  0  0  0
   -5.4162    3.4416    0.0000 O   0  0  0  0  0  0  0  0  0  0  0  0
   -6.5342    1.0964    0.0000 C   0  0  0  0  0  0  0  0  0  0  0  0
   -5.1802    0.4509    0.0000 C   0  0  0  0  0  0  0  0  0  0  0  0
   -5.0623   -1.0445    0.0000 C   0  0  0  0  0  0  0  0  0  0  0  0
   -6.2983   -1.8943    0.0000 C   0  0  0  0  0  0  0  0  0  0  0  0
   -3.7083   -1.6900    0.0000 C   0  0  0  0  0  0  0  0  0  0  0  0
   -3.4346   -3.1648    0.0000 C   0  0  0  0  0  0  0  0  0  0  0  0
   -1.9474   -3.3603    0.0000 C   0  0  0  0  0  0  0  0  0  0  0  0
   -1.3019   -2.0063    0.0000 C   0  0  0  0  0  0  0  0  0  0  0  0
    0.1362   -1.5800    0.0000 C   0  0  0  0  0  0  0  0  0  0  0  0
    1.2245   -2.6123    0.0000 C   0  0  0  0  0  0  0  0  0  0  0  0
    2.6626   -2.1860    0.0000 C   0  0  0  0  0  0  0  0  0  0  0  0
    3.0125   -0.7274    0.0000 C   0  0  0  0  0  0  0  0  0  0  0  0
    4.4507   -0.3011    0.0000 C   0  0  0  0  0  0  0  0  0  0  0  0
    4.8006    1.1575    0.0000 C   0  0  0  0  0  0  0  0  0  0  0  0
    6.2387    1.5838    0.0000 O   0  0  0  0  0  0  0  0  0  0  0  0
    7.3270    0.5515    0.0000 S   0  0  0  0  0  0  0  0  0  0  0  0
    6.2946   -0.5368    0.0000 O   0  0  0  0  0  0  0  0  0  0  0  0
    8.3593    1.6397    0.0000 O   0  0  0  0  0  0  0  0  0  0  0  0
    8.4152   -0.4809    0.0000 O   0  0  0  0  0  0  0  0  0  0  0  0
    3.7123    2.1898    0.0000 C   0  0  0  0  0  0  0  0  0  0  0  0
    2.2742    1.7635    0.0000 C   0  0  0  0  0  0  0  0  0  0  0  0
    1.9243    0.3049    0.0000 C   0  0  0  0  0  0  0  0  0  0  0  0
    0.8360    1.3372    0.0000 C   0  0  0  0  0  0  0  0  0  0  0  0
    0.4861   -0.1214    0.0000 C   0  0  0  0  0  0  0  0  0  0  0  0
   -0.6021    0.9109    0.0000 C   0  0  0  0  0  0  0  0  0  0  0  0
   -2.0403    0.4846    0.0000 C   0  0  0  0  0  0  0  0  0  0  0  0
   -2.3902   -0.9740    0.0000 C   0  0  0  0  0  0  0  0  0  0  0  0
   -3.5804   -0.0611    0.0000 C   0  0  0  0  0  0  0  0  0  0  0  0
  1  2  1  0
  2  3  2  0
  2  4  1  0
  4  5  1  0
  5  6  1  0
  6  7  1  6
  6  8  1  0
  8  9  1  6
  9 10  1  0
 11 10  1  6
 11 12  1  0
 12 13  1  1
 13 14  1  0
 15 14  1  1
 15 16  1  0
 16 17  1  0
 17 18  1  1
 18 19  1  0
 19 20  2  0
 19 21  2  0
 19 22  1  0
 17 23  1  0
 23 24  1  0
 24 25  1  0
 25 26  1  6
 25 27  1  0
 27 28  1  6
 28 29  1  0
 29 30  1  0
 30 31  1  6
 30  8  1  0
 30 11  1  0
 27 12  1  0
 25 15  1  0
M  END
>  <MS_ID>  (1812) 
MS1879

>  <SMILES>  (1812) 
CC(=O)CC[C@@H](C)[C@H]1CC[C@H]2[C@@H]3CC[C@@H]4C[C@H](OS(=O)(=O)O)CC[C@]4(C)[C@H]3CC[C@]12C

>  <Structure_dimension>  (1812) 
2D

$$$$
MS1880
     RDKit          2D

 37 40  0  0  0  0  0  0  0  0999 V2000
   -0.4109   -4.6580    0.0000 C   0  0  0  0  0  0  0  0  0  0  0  0
    0.1557   -3.2692    0.0000 C   0  0  0  0  0  0  0  0  0  0  0  0
   -0.7638   -2.0840    0.0000 C   0  0  0  0  0  0  0  0  0  0  0  0
   -2.2499   -2.2877    0.0000 C   0  0  0  0  0  0  0  0  0  0  0  0
   -3.1694   -1.1026    0.0000 C   0  0  0  0  0  0  0  0  0  0  0  0
   -2.6027    0.2863    0.0000 O   0  0  0  0  0  0  0  0  0  0  0  0
   -4.6555   -1.3063    0.0000 N   0  0  0  0  0  0  0  0  0  0  0  0
   -5.5749   -0.1212    0.0000 C   0  0  0  0  0  0  0  0  0  0  0  0
   -7.0610   -0.3249    0.0000 O   0  0  0  0  0  0  0  0  0  0  0  0
   -7.9805    0.8602    0.0000 C   0  0  0  0  0  0  0  0  0  0  0  0
   -7.4139    2.2491    0.0000 O   0  0  0  0  0  0  0  0  0  0  0  0
   -9.4666    0.6565    0.0000 C   0  0  0  0  0  0  0  0  0  0  0  0
  -10.3861    1.8416    0.0000 C   0  0  0  0  0  0  0  0  0  0  0  0
  -11.8722    1.6379    0.0000 C   0  0  0  0  0  0  0  0  0  0  0  0
  -12.4388    0.2491    0.0000 O   0  0  0  0  0  0  0  0  0  0  0  0
  -12.7917    2.8231    0.0000 O   0  0  0  0  0  0  0  0  0  0  0  0
    1.6418   -3.0654    0.0000 C   0  0  0  0  0  0  0  0  0  0  0  0
    2.6801   -4.1480    0.0000 C   0  0  0  0  0  0  0  0  0  0  0  0
    4.0305   -3.4950    0.0000 C   0  0  0  0  0  0  0  0  0  0  0  0
    3.8268   -2.0089    0.0000 C   0  0  0  0  0  0  0  0  0  0  0  0
    4.7949   -0.8631    0.0000 C   0  0  0  0  0  0  0  0  0  0  0  0
    6.2712   -1.1286    0.0000 C   0  0  0  0  0  0  0  0  0  0  0  0
    6.7795   -2.5398    0.0000 O   0  0  0  0  0  0  0  0  0  0  0  0
    7.2393    0.0172    0.0000 C   0  0  0  0  0  0  0  0  0  0  0  0
    6.7310    1.4285    0.0000 C   0  0  0  0  0  0  0  0  0  0  0  0
    7.6991    2.5743    0.0000 C   0  0  0  0  0  0  0  0  0  0  0  0
    7.1909    3.9855    0.0000 C   0  0  0  0  0  0  0  0  0  0  0  0
    8.1589    5.1313    0.0000 O   0  0  0  0  0  0  0  0  0  0  0  0
    5.7145    4.2510    0.0000 C   0  0  0  0  0  0  0  0  0  0  0  0
    4.7465    3.1052    0.0000 C   0  0  0  0  0  0  0  0  0  0  0  0
    5.2547    1.6940    0.0000 C   0  0  0  0  0  0  0  0  0  0  0  0
    3.7784    1.9594    0.0000 C   0  0  0  0  0  0  0  0  0  0  0  0
    4.2866    0.5482    0.0000 C   0  0  0  0  0  0  0  0  0  0  0  0
    2.8103    0.8136    0.0000 C   0  0  0  0  0  0  0  0  0  0  0  0
    1.8422   -0.3321    0.0000 C   0  0  0  0  0  0  0  0  0  0  0  0
    2.3505   -1.7434    0.0000 C   0  0  0  0  0  0  0  0  0  0  0  0
    0.8545   -1.6337    0.0000 C   0  0  0  0  0  0  0  0  0  0  0  0
  2  1  1  6
  2  3  1  0
  3  4  1  0
  4  5  1  0
  5  6  2  0
  5  7  1  0
  7  8  1  0
  8  9  1  0
  9 10  1  0
 10 11  2  0
 10 12  1  0
 12 13  1  0
 13 14  1  0
 14 15  2  0
 14 16  1  0
  2 17  1  0
 17 18  1  6
 18 19  1  0
 20 19  1  6
 20 21  1  0
 21 22  1  1
 22 23  1  6
 22 24  1  0
 25 24  1  1
 25 26  1  0
 26 27  1  0
 27 28  1  1
 27 29  1  0
 29 30  1  0
 30 31  1  0
 31 32  1  6
 31 33  1  0
 33 34  1  6
 34 35  1  0
 35 36  1  0
 36 37  1  6
 36 17  1  0
 36 20  1  0
 33 21  1  0
 31 25  1  0
M  END
>  <MS_ID>  (1813) 
MS1880

>  <SMILES>  (1813) 
C[C@H](CCC(=O)NCOC(=O)CCC(=O)O)[C@H]1CC[C@H]2[C@@H]3[C@@H](O)C[C@@H]4C[C@H](O)CC[C@]4(C)[C@H]3CC[C@]12C

>  <Structure_dimension>  (1813) 
2D

$$$$
MS1881
     RDKit          2D

 30 33  0  0  0  0  0  0  0  0999 V2000
   -4.1099   -3.1124    0.0000 C   0  0  0  0  0  0  0  0  0  0  0  0
   -3.1089   -1.9953    0.0000 C   0  0  0  0  0  0  0  0  0  0  0  0
   -3.5759   -0.5698    0.0000 C   0  0  0  0  0  0  0  0  0  0  0  0
   -5.0438   -0.2615    0.0000 C   0  0  0  0  0  0  0  0  0  0  0  0
   -5.5108    1.1640    0.0000 C   0  0  0  0  0  0  0  0  0  0  0  0
   -4.5097    2.2811    0.0000 O   0  0  0  0  0  0  0  0  0  0  0  0
   -6.9787    1.4724    0.0000 C   0  0  0  0  0  0  0  0  0  0  0  0
   -7.4457    2.8978    0.0000 O   0  0  0  0  0  0  0  0  0  0  0  0
   -8.9136    3.2062    0.0000 N   0  0  0  0  0  0  0  0  0  0  0  0
   -1.6409   -2.3036    0.0000 C   0  0  0  0  0  0  0  0  0  0  0  0
   -1.0276   -3.6725    0.0000 C   0  0  0  0  0  0  0  0  0  0  0  0
    0.4638   -3.5121    0.0000 C   0  0  0  0  0  0  0  0  0  0  0  0
    0.7722   -2.0441    0.0000 C   0  0  0  0  0  0  0  0  0  0  0  0
    2.0694   -1.2910    0.0000 C   0  0  0  0  0  0  0  0  0  0  0  0
    3.3703   -2.0379    0.0000 C   0  0  0  0  0  0  0  0  0  0  0  0
    3.3739   -3.5379    0.0000 O   0  0  0  0  0  0  0  0  0  0  0  0
    4.6675   -1.2848    0.0000 C   0  0  0  0  0  0  0  0  0  0  0  0
    4.6639    0.2152    0.0000 C   0  0  0  0  0  0  0  0  0  0  0  0
    5.9611    0.9683    0.0000 C   0  0  0  0  0  0  0  0  0  0  0  0
    5.9575    2.4683    0.0000 C   0  0  0  0  0  0  0  0  0  0  0  0
    7.2548    3.2214    0.0000 O   0  0  0  0  0  0  0  0  0  0  0  0
    4.6567    3.2152    0.0000 C   0  0  0  0  0  0  0  0  0  0  0  0
    3.3595    2.4621    0.0000 C   0  0  0  0  0  0  0  0  0  0  0  0
    3.3631    0.9621    0.0000 C   0  0  0  0  0  0  0  0  0  0  0  0
    2.0622    1.7090    0.0000 C   0  0  0  0  0  0  0  0  0  0  0  0
    2.0658    0.2090    0.0000 C   0  0  0  0  0  0  0  0  0  0  0  0
    0.7650    0.9559    0.0000 C   0  0  0  0  0  0  0  0  0  0  0  0
   -0.5322    0.2027    0.0000 C   0  0  0  0  0  0  0  0  0  0  0  0
   -0.5286   -1.2973    0.0000 C   0  0  0  0  0  0  0  0  0  0  0  0
   -1.9004   -0.6904    0.0000 C   0  0  0  0  0  0  0  0  0  0  0  0
  2  1  1  6
  2  3  1  0
  3  4  1  0
  4  5  1  0
  5  6  2  0
  5  7  1  0
  7  8  1  0
  8  9  1  0
  2 10  1  0
 10 11  1  6
 11 12  1  0
 13 12  1  6
 13 14  1  0
 14 15  1  1
 15 16  1  1
 15 17  1  0
 18 17  1  1
 18 19  1  0
 19 20  1  0
 20 21  1  1
 20 22  1  0
 22 23  1  0
 23 24  1  0
 24 25  1  6
 24 26  1  0
 26 27  1  6
 27 28  1  0
 28 29  1  0
 29 30  1  6
 29 10  1  0
 29 13  1  0
 26 14  1  0
 24 18  1  0
M  END
>  <MS_ID>  (1814) 
MS1881

>  <SMILES>  (1814) 
C[C@H](CCC(=O)CON)[C@H]1CC[C@H]2[C@@H]3[C@H](O)C[C@@H]4C[C@H](O)CC[C@]4(C)[C@H]3CC[C@]12C

>  <Structure_dimension>  (1814) 
2D

$$$$
MS1882
     RDKit          2D

 30 33  0  0  0  0  0  0  0  0999 V2000
   -9.1926    3.8340    0.0000 C   0  0  0  0  0  0  0  0  0  0  0  0
   -8.6440    2.4379    0.0000 C   0  0  0  0  0  0  0  0  0  0  0  0
   -7.1606    2.2150    0.0000 C   0  0  0  0  0  0  0  0  0  0  0  0
   -6.6120    0.8190    0.0000 O   0  0  0  0  0  0  0  0  0  0  0  0
   -5.1287    0.5960    0.0000 C   0  0  0  0  0  0  0  0  0  0  0  0
   -4.1940    1.7692    0.0000 O   0  0  0  0  0  0  0  0  0  0  0  0
   -4.5801   -0.8000    0.0000 C   0  0  0  0  0  0  0  0  0  0  0  0
   -3.0967   -1.0230    0.0000 C   0  0  0  0  0  0  0  0  0  0  0  0
   -2.5481   -2.4190    0.0000 C   0  0  0  0  0  0  0  0  0  0  0  0
   -3.4828   -3.5922    0.0000 C   0  0  0  0  0  0  0  0  0  0  0  0
   -1.0648   -2.6420    0.0000 C   0  0  0  0  0  0  0  0  0  0  0  0
   -0.3732   -3.9730    0.0000 C   0  0  0  0  0  0  0  0  0  0  0  0
    1.1064   -3.7267    0.0000 C   0  0  0  0  0  0  0  0  0  0  0  0
    1.3293   -2.2433    0.0000 C   0  0  0  0  0  0  0  0  0  0  0  0
    2.5808   -1.4164    0.0000 C   0  0  0  0  0  0  0  0  0  0  0  0
    3.9227   -2.0868    0.0000 C   0  0  0  0  0  0  0  0  0  0  0  0
    5.1742   -1.2599    0.0000 C   0  0  0  0  0  0  0  0  0  0  0  0
    5.0838    0.2373    0.0000 C   0  0  0  0  0  0  0  0  0  0  0  0
    6.3353    1.0642    0.0000 C   0  0  0  0  0  0  0  0  0  0  0  0
    6.2450    2.5615    0.0000 C   0  0  0  0  0  0  0  0  0  0  0  0
    7.4965    3.3884    0.0000 O   0  0  0  0  0  0  0  0  0  0  0  0
    4.9031    3.2319    0.0000 C   0  0  0  0  0  0  0  0  0  0  0  0
    3.6516    2.4050    0.0000 C   0  0  0  0  0  0  0  0  0  0  0  0
    3.7420    0.9077    0.0000 C   0  0  0  0  0  0  0  0  0  0  0  0
    2.4001    1.5781    0.0000 C   0  0  0  0  0  0  0  0  0  0  0  0
    2.4905    0.0808    0.0000 C   0  0  0  0  0  0  0  0  0  0  0  0
    1.1486    0.7512    0.0000 C   0  0  0  0  0  0  0  0  0  0  0  0
   -0.1029   -0.0757    0.0000 C   0  0  0  0  0  0  0  0  0  0  0  0
   -0.0125   -1.5729    0.0000 C   0  0  0  0  0  0  0  0  0  0  0  0
   -1.4171   -1.0465    0.0000 C   0  0  0  0  0  0  0  0  0  0  0  0
  1  2  1  0
  2  3  1  0
  3  4  1  0
  4  5  1  0
  5  6  2  0
  5  7  1  0
  7  8  1  0
  8  9  1  0
  9 10  1  6
  9 11  1  0
 11 12  1  6
 12 13  1  0
 14 13  1  6
 14 15  1  0
 15 16  1  1
 16 17  1  0
 18 17  1  1
 18 19  1  0
 19 20  1  0
 20 21  1  1
 20 22  1  0
 22 23  1  0
 23 24  1  0
 24 25  1  6
 24 26  1  0
 26 27  1  6
 27 28  1  0
 28 29  1  0
 29 30  1  6
 29 11  1  0
 29 14  1  0
 26 15  1  0
 24 18  1  0
M  END
>  <MS_ID>  (1815) 
MS1882

>  <SMILES>  (1815) 
CCCOC(=O)CC[C@@H](C)[C@H]1CC[C@H]2[C@@H]3CC[C@@H]4C[C@H](O)CC[C@]4(C)[C@H]3CC[C@]12C

>  <Structure_dimension>  (1815) 
2D

$$$$
MS1883
     RDKit          2D

 32 35  0  0  0  0  0  0  0  0999 V2000
  -10.7005    2.5206    0.0000 C   0  0  0  0  0  0  0  0  0  0  0  0
   -9.2005    2.5274    0.0000 C   0  0  0  0  0  0  0  0  0  0  0  0
   -8.4446    1.2318    0.0000 C   0  0  0  0  0  0  0  0  0  0  0  0
   -6.9446    1.2387    0.0000 C   0  0  0  0  0  0  0  0  0  0  0  0
   -6.1887   -0.0569    0.0000 O   0  0  0  0  0  0  0  0  0  0  0  0
   -4.6887   -0.0500    0.0000 C   0  0  0  0  0  0  0  0  0  0  0  0
   -3.9446    1.2524    0.0000 O   0  0  0  0  0  0  0  0  0  0  0  0
   -3.9328   -1.3456    0.0000 C   0  0  0  0  0  0  0  0  0  0  0  0
   -2.4328   -1.3388    0.0000 C   0  0  0  0  0  0  0  0  0  0  0  0
   -1.6768   -2.6344    0.0000 C   0  0  0  0  0  0  0  0  0  0  0  0
   -2.4209   -3.9368    0.0000 C   0  0  0  0  0  0  0  0  0  0  0  0
   -0.1769   -2.6275    0.0000 C   0  0  0  0  0  0  0  0  0  0  0  0
    0.7104   -3.8370    0.0000 C   0  0  0  0  0  0  0  0  0  0  0  0
    2.1348   -3.3669    0.0000 C   0  0  0  0  0  0  0  0  0  0  0  0
    2.1280   -1.8670    0.0000 C   0  0  0  0  0  0  0  0  0  0  0  0
    3.2381   -0.8582    0.0000 C   0  0  0  0  0  0  0  0  0  0  0  0
    4.6668   -1.3152    0.0000 C   0  0  0  0  0  0  0  0  0  0  0  0
    4.9853   -2.7809    0.0000 O   0  0  0  0  0  0  0  0  0  0  0  0
    5.7769   -0.3064    0.0000 C   0  0  0  0  0  0  0  0  0  0  0  0
    5.4583    1.1594    0.0000 C   0  0  0  0  0  0  0  0  0  0  0  0
    6.5684    2.1682    0.0000 C   0  0  0  0  0  0  0  0  0  0  0  0
    6.2498    3.6340    0.0000 C   0  0  0  0  0  0  0  0  0  0  0  0
    4.8211    4.0910    0.0000 C   0  0  0  0  0  0  0  0  0  0  0  0
    3.7110    3.0822    0.0000 C   0  0  0  0  0  0  0  0  0  0  0  0
    4.0296    1.6164    0.0000 C   0  0  0  0  0  0  0  0  0  0  0  0
    2.6009    2.0734    0.0000 C   0  0  0  0  0  0  0  0  0  0  0  0
    2.9195    0.6076    0.0000 C   0  0  0  0  0  0  0  0  0  0  0  0
    1.4908    1.0646    0.0000 C   0  0  0  0  0  0  0  0  0  0  0  0
    0.3807    0.0558    0.0000 C   0  0  0  0  0  0  0  0  0  0  0  0
   -1.0480    0.5128    0.0000 O   0  0  0  0  0  0  0  0  0  0  0  0
    0.6993   -1.4100    0.0000 C   0  0  0  0  0  0  0  0  0  0  0  0
   -0.7694   -1.1048    0.0000 C   0  0  0  0  0  0  0  0  0  0  0  0
  1  2  1  0
  2  3  1  0
  3  4  1  0
  4  5  1  0
  5  6  1  0
  6  7  2  0
  6  8  1  0
  8  9  1  0
  9 10  1  0
 10 11  1  6
 10 12  1  0
 12 13  1  6
 13 14  1  0
 15 14  1  6
 15 16  1  0
 16 17  1  1
 17 18  1  1
 17 19  1  0
 20 19  1  1
 20 21  1  0
 21 22  1  0
 22 23  1  0
 23 24  1  0
 24 25  1  0
 25 26  1  6
 25 27  1  0
 27 28  1  6
 28 29  1  0
 29 30  1  6
 29 31  1  0
 31 32  1  6
 31 12  1  0
 31 15  1  0
 27 16  1  0
 25 20  1  0
M  END
>  <MS_ID>  (1816) 
MS1883

>  <SMILES>  (1816) 
CCCCOC(=O)CC[C@@H](C)[C@H]1CC[C@H]2[C@@H]3[C@H](O)C[C@@H]4CCCC[C@]4(C)[C@H]3C[C@@H](O)[C@]12C

>  <Structure_dimension>  (1816) 
2D

$$$$
MS1884
     RDKit          2D

 36 40  0  0  0  0  0  0  0  0999 V2000
   -1.0587   -4.2956    0.0000 C   0  0  0  0  0  0  0  0  0  0  0  0
   -0.3096   -2.9960    0.0000 C   0  0  0  0  0  0  0  0  0  0  0  0
   -1.0605   -1.6975    0.0000 C   0  0  0  0  0  0  0  0  0  0  0  0
   -2.5605   -1.6985    0.0000 C   0  0  0  0  0  0  0  0  0  0  0  0
   -3.3113   -0.3999    0.0000 C   0  0  0  0  0  0  0  0  0  0  0  0
   -2.5622    0.8996    0.0000 O   0  0  0  0  0  0  0  0  0  0  0  0
   -4.8113   -0.4009    0.0000 O   0  0  0  0  0  0  0  0  0  0  0  0
   -5.5622    0.8976    0.0000 C   0  0  0  0  0  0  0  0  0  0  0  0
   -7.0622    0.8966    0.0000 C   0  0  0  0  0  0  0  0  0  0  0  0
   -7.9431   -0.3175    0.0000 O   0  0  0  0  0  0  0  0  0  0  0  0
   -9.3700    0.1451    0.0000 C   0  0  0  0  0  0  0  0  0  0  0  0
  -10.5829   -0.7374    0.0000 O   0  0  0  0  0  0  0  0  0  0  0  0
   -9.3710    1.6451    0.0000 C   0  0  0  0  0  0  0  0  0  0  0  0
  -10.5851    2.5259    0.0000 O   0  0  0  0  0  0  0  0  0  0  0  0
   -7.9447    2.1095    0.0000 C   0  0  0  0  0  0  0  0  0  0  0  0
   -7.4821    3.5364    0.0000 O   0  0  0  0  0  0  0  0  0  0  0  0
    1.1904   -2.9950    0.0000 C   0  0  0  0  0  0  0  0  0  0  0  0
    2.0729   -4.2080    0.0000 C   0  0  0  0  0  0  0  0  0  0  0  0
    3.4992   -3.7435    0.0000 C   0  0  0  0  0  0  0  0  0  0  0  0
    3.4982   -2.2435    0.0000 C   0  0  0  0  0  0  0  0  0  0  0  0
    4.6122   -1.2391    0.0000 C   0  0  0  0  0  0  0  0  0  0  0  0
    6.0391   -1.7016    0.0000 C   0  0  0  0  0  0  0  0  0  0  0  0
    7.1531   -0.6972    0.0000 C   0  0  0  0  0  0  0  0  0  0  0  0
    6.8403    0.7698    0.0000 C   0  0  0  0  0  0  0  0  0  0  0  0
    7.9544    1.7743    0.0000 C   0  0  0  0  0  0  0  0  0  0  0  0
    7.6415    3.2413    0.0000 C   0  0  0  0  0  0  0  0  0  0  0  0
    8.7556    4.2457    0.0000 O   0  0  0  0  0  0  0  0  0  0  0  0
    6.2146    3.7038    0.0000 C   0  0  0  0  0  0  0  0  0  0  0  0
    5.1006    2.6994    0.0000 C   0  0  0  0  0  0  0  0  0  0  0  0
    5.4134    1.2324    0.0000 C   0  0  0  0  0  0  0  0  0  0  0  0
    3.9865    1.6950    0.0000 C   0  0  0  0  0  0  0  0  0  0  0  0
    4.2994    0.2280    0.0000 C   0  0  0  0  0  0  0  0  0  0  0  0
    2.8725    0.6905    0.0000 C   0  0  0  0  0  0  0  0  0  0  0  0
    1.7584   -0.3139    0.0000 C   0  0  0  0  0  0  0  0  0  0  0  0
    2.0713   -1.7809    0.0000 C   0  0  0  0  0  0  0  0  0  0  0  0
    0.6038   -1.4700    0.0000 C   0  0  0  0  0  0  0  0  0  0  0  0
  2  1  1  6
  2  3  1  0
  3  4  1  0
  4  5  1  0
  5  6  2  0
  5  7  1  0
  7  8  1  0
  9  8  1  1
  9 10  1  0
 10 11  1  0
 11 12  1  6
 11 13  1  0
 13 14  1  6
 13 15  1  0
 15 16  1  1
  2 17  1  0
 17 18  1  6
 18 19  1  0
 20 19  1  6
 20 21  1  0
 21 22  1  1
 22 23  1  0
 24 23  1  1
 24 25  1  0
 25 26  1  0
 26 27  2  0
 26 28  1  0
 28 29  1  0
 29 30  1  0
 30 31  1  6
 30 32  1  0
 32 33  1  6
 33 34  1  0
 34 35  1  0
 35 36  1  6
 15  9  1  0
 35 17  1  0
 35 20  1  0
 32 21  1  0
 30 24  1  0
M  END
>  <MS_ID>  (1817) 
MS1884

>  <SMILES>  (1817) 
C[C@H](CCC(=O)OC[C@H]1O[C@H](O)[C@H](O)[C@H]1O)[C@H]1CC[C@H]2[C@@H]3CC[C@@H]4CC(=O)CC[C@]4(C)[C@H]3CC[C@]12C

>  <Structure_dimension>  (1817) 
2D

$$$$
MS1885
     RDKit          2D

 31 34  0  0  0  0  0  0  0  0999 V2000
   -4.2495   -2.8115    0.0000 C   0  0  0  0  0  0  0  0  0  0  0  0
   -3.1859   -1.7538    0.0000 C   0  0  0  0  0  0  0  0  0  0  0  0
   -3.5702   -0.3038    0.0000 C   0  0  0  0  0  0  0  0  0  0  0  0
   -5.0180    0.0883    0.0000 C   0  0  0  0  0  0  0  0  0  0  0  0
   -5.4023    1.5383    0.0000 C   0  0  0  0  0  0  0  0  0  0  0  0
   -4.3387    2.5960    0.0000 O   0  0  0  0  0  0  0  0  0  0  0  0
   -6.8501    1.9305    0.0000 C   0  0  0  0  0  0  0  0  0  0  0  0
   -7.2344    3.3804    0.0000 F   0  0  0  0  0  0  0  0  0  0  0  0
   -7.9137    0.8727    0.0000 F   0  0  0  0  0  0  0  0  0  0  0  0
   -1.7381   -2.1460    0.0000 C   0  0  0  0  0  0  0  0  0  0  0  0
   -1.2044   -3.5478    0.0000 C   0  0  0  0  0  0  0  0  0  0  0  0
    0.2938   -3.4734    0.0000 C   0  0  0  0  0  0  0  0  0  0  0  0
    0.6860   -2.0256    0.0000 C   0  0  0  0  0  0  0  0  0  0  0  0
    2.0243   -1.3482    0.0000 C   0  0  0  0  0  0  0  0  0  0  0  0
    3.2801   -2.1686    0.0000 C   0  0  0  0  0  0  0  0  0  0  0  0
    3.1975   -3.6663    0.0000 O   0  0  0  0  0  0  0  0  0  0  0  0
    4.6185   -1.4913    0.0000 C   0  0  0  0  0  0  0  0  0  0  0  0
    4.7010    0.0064    0.0000 C   0  0  0  0  0  0  0  0  0  0  0  0
    6.0394    0.6838    0.0000 C   0  0  0  0  0  0  0  0  0  0  0  0
    6.1220    2.1815    0.0000 C   0  0  0  0  0  0  0  0  0  0  0  0
    7.4604    2.8588    0.0000 O   0  0  0  0  0  0  0  0  0  0  0  0
    4.8662    3.0019    0.0000 C   0  0  0  0  0  0  0  0  0  0  0  0
    3.5279    2.3246    0.0000 C   0  0  0  0  0  0  0  0  0  0  0  0
    3.4453    0.8268    0.0000 C   0  0  0  0  0  0  0  0  0  0  0  0
    2.1895    1.6472    0.0000 C   0  0  0  0  0  0  0  0  0  0  0  0
    2.1069    0.1495    0.0000 C   0  0  0  0  0  0  0  0  0  0  0  0
    0.8511    0.9699    0.0000 C   0  0  0  0  0  0  0  0  0  0  0  0
   -0.4872    0.2925    0.0000 C   0  0  0  0  0  0  0  0  0  0  0  0
   -1.7430    1.1129    0.0000 O   0  0  0  0  0  0  0  0  0  0  0  0
   -0.5698   -1.2052    0.0000 C   0  0  0  0  0  0  0  0  0  0  0  0
   -1.9045   -0.5205    0.0000 C   0  0  0  0  0  0  0  0  0  0  0  0
  2  1  1  6
  2  3  1  0
  3  4  1  0
  4  5  1  0
  5  6  2  0
  5  7  1  0
  7  8  1  0
  7  9  1  0
  2 10  1  0
 10 11  1  6
 11 12  1  0
 13 12  1  6
 13 14  1  0
 14 15  1  1
 15 16  1  1
 15 17  1  0
 18 17  1  1
 18 19  1  0
 19 20  1  0
 20 21  1  1
 20 22  1  0
 22 23  1  0
 23 24  1  0
 24 25  1  6
 24 26  1  0
 26 27  1  6
 27 28  1  0
 28 29  1  1
 28 30  1  0
 30 31  1  6
 30 10  1  0
 30 13  1  0
 26 14  1  0
 24 18  1  0
M  END
>  <MS_ID>  (1818) 
MS1885

>  <SMILES>  (1818) 
C[C@H](CCC(=O)C(F)F)[C@H]1CC[C@H]2[C@@H]3[C@H](O)C[C@@H]4C[C@H](O)CC[C@]4(C)[C@H]3C[C@H](O)[C@]12C

>  <Structure_dimension>  (1818) 
2D

$$$$
MS1886
     RDKit          2D

 35 39  0  0  0  0  0  0  0  0999 V2000
   -1.8808   -4.0339    0.0000 C   0  0  0  0  0  0  0  0  0  0  0  0
   -1.1003   -2.7530    0.0000 C   0  0  0  0  0  0  0  0  0  0  0  0
   -1.8193   -1.4366    0.0000 C   0  0  0  0  0  0  0  0  0  0  0  0
   -3.3189   -1.4011    0.0000 C   0  0  0  0  0  0  0  0  0  0  0  0
   -4.0380   -0.0847    0.0000 C   0  0  0  0  0  0  0  0  0  0  0  0
   -3.2575    1.1962    0.0000 O   0  0  0  0  0  0  0  0  0  0  0  0
   -5.5376   -0.0492    0.0000 N   0  0  0  0  0  0  0  0  0  0  0  0
   -6.2567    1.2672    0.0000 C   0  0  0  0  0  0  0  0  0  0  0  0
   -7.7562    1.3026    0.0000 C   0  0  0  0  0  0  0  0  0  0  0  0
   -8.4753    2.6190    0.0000 C   0  0  0  0  0  0  0  0  0  0  0  0
   -9.9749    2.6545    0.0000 C   0  0  0  0  0  0  0  0  0  0  0  0
  -10.7554    1.3735    0.0000 C   0  0  0  0  0  0  0  0  0  0  0  0
  -10.0363    0.0571    0.0000 C   0  0  0  0  0  0  0  0  0  0  0  0
   -8.5367    0.0217    0.0000 C   0  0  0  0  0  0  0  0  0  0  0  0
    0.3993   -2.7884    0.0000 C   0  0  0  0  0  0  0  0  0  0  0  0
    1.2521   -4.0225    0.0000 C   0  0  0  0  0  0  0  0  0  0  0  0
    2.6892   -3.5928    0.0000 C   0  0  0  0  0  0  0  0  0  0  0  0
    2.7247   -2.0932    0.0000 C   0  0  0  0  0  0  0  0  0  0  0  0
    3.8628   -1.1162    0.0000 C   0  0  0  0  0  0  0  0  0  0  0  0
    5.2780   -1.6133    0.0000 C   0  0  0  0  0  0  0  0  0  0  0  0
    5.5551   -3.0875    0.0000 O   0  0  0  0  0  0  0  0  0  0  0  0
    6.4162   -0.6362    0.0000 C   0  0  0  0  0  0  0  0  0  0  0  0
    6.1391    0.8380    0.0000 C   0  0  0  0  0  0  0  0  0  0  0  0
    7.2772    1.8150    0.0000 C   0  0  0  0  0  0  0  0  0  0  0  0
    7.0001    3.2892    0.0000 C   0  0  0  0  0  0  0  0  0  0  0  0
    8.1382    4.2663    0.0000 O   0  0  0  0  0  0  0  0  0  0  0  0
    5.5849    3.7863    0.0000 C   0  0  0  0  0  0  0  0  0  0  0  0
    4.4467    2.8093    0.0000 C   0  0  0  0  0  0  0  0  0  0  0  0
    4.7238    1.3351    0.0000 C   0  0  0  0  0  0  0  0  0  0  0  0
    3.3086    1.8322    0.0000 C   0  0  0  0  0  0  0  0  0  0  0  0
    3.5857    0.3580    0.0000 C   0  0  0  0  0  0  0  0  0  0  0  0
    2.1705    0.8551    0.0000 C   0  0  0  0  0  0  0  0  0  0  0  0
    1.0323   -0.1219    0.0000 C   0  0  0  0  0  0  0  0  0  0  0  0
    1.3094   -1.5961    0.0000 C   0  0  0  0  0  0  0  0  0  0  0  0
   -0.1500   -1.2496    0.0000 C   0  0  0  0  0  0  0  0  0  0  0  0
  2  1  1  6
  2  3  1  0
  3  4  1  0
  4  5  1  0
  5  6  2  0
  5  7  1  0
  7  8  1  0
  8  9  1  0
  9 10  2  0
 10 11  1  0
 11 12  2  0
 12 13  1  0
 13 14  2  0
  2 15  1  0
 15 16  1  6
 16 17  1  0
 18 17  1  6
 18 19  1  0
 19 20  1  1
 20 21  1  1
 20 22  1  0
 23 22  1  1
 23 24  1  0
 24 25  1  0
 25 26  1  1
 25 27  1  0
 27 28  1  0
 28 29  1  0
 29 30  1  6
 29 31  1  0
 31 32  1  6
 32 33  1  0
 33 34  1  0
 34 35  1  6
 14  9  1  0
 34 15  1  0
 34 18  1  0
 31 19  1  0
 29 23  1  0
M  END
>  <MS_ID>  (1819) 
MS1886

>  <SMILES>  (1819) 
C[C@H](CCC(=O)NCc1ccccc1)[C@H]1CC[C@H]2[C@@H]3[C@H](O)C[C@@H]4C[C@H](O)CC[C@]4(C)[C@H]3CC[C@]12C

>  <Structure_dimension>  (1819) 
2D

$$$$
MS1887
     RDKit          2D

 34 37  0  0  0  0  0  0  0  0999 V2000
   -2.4540   -4.2478    0.0000 C   0  0  0  0  0  0  0  0  0  0  0  0
   -1.6579   -2.9765    0.0000 C   0  0  0  0  0  0  0  0  0  0  0  0
   -2.3608   -1.6514    0.0000 C   0  0  0  0  0  0  0  0  0  0  0  0
   -3.8598   -1.5976    0.0000 C   0  0  0  0  0  0  0  0  0  0  0  0
   -4.5628   -0.2725    0.0000 C   0  0  0  0  0  0  0  0  0  0  0  0
   -3.7667    0.9988    0.0000 O   0  0  0  0  0  0  0  0  0  0  0  0
   -6.0618   -0.2187    0.0000 N   0  0  0  0  0  0  0  0  0  0  0  0
   -6.7647    1.1064    0.0000 C   0  0  0  0  0  0  0  0  0  0  0  0
   -8.2638    1.1601    0.0000 C   0  0  0  0  0  0  0  0  0  0  0  0
   -8.9667    2.4852    0.0000 O   0  0  0  0  0  0  0  0  0  0  0  0
   -5.9686    2.3777    0.0000 C   0  0  0  0  0  0  0  0  0  0  0  0
   -4.4696    2.3239    0.0000 O   0  0  0  0  0  0  0  0  0  0  0  0
   -6.6716    3.7028    0.0000 O   0  0  0  0  0  0  0  0  0  0  0  0
   -0.1588   -3.0303    0.0000 C   0  0  0  0  0  0  0  0  0  0  0  0
    0.6788   -4.2747    0.0000 C   0  0  0  0  0  0  0  0  0  0  0  0
    2.1211   -3.8626    0.0000 C   0  0  0  0  0  0  0  0  0  0  0  0
    2.1748   -2.3635    0.0000 C   0  0  0  0  0  0  0  0  0  0  0  0
    3.3248   -1.4005    0.0000 C   0  0  0  0  0  0  0  0  0  0  0  0
    4.7339   -1.9149    0.0000 C   0  0  0  0  0  0  0  0  0  0  0  0
    5.8839   -0.9518    0.0000 C   0  0  0  0  0  0  0  0  0  0  0  0
    5.6248    0.5257    0.0000 C   0  0  0  0  0  0  0  0  0  0  0  0
    6.7748    1.4888    0.0000 C   0  0  0  0  0  0  0  0  0  0  0  0
    6.5157    2.9662    0.0000 C   0  0  0  0  0  0  0  0  0  0  0  0
    7.6657    3.9293    0.0000 O   0  0  0  0  0  0  0  0  0  0  0  0
    5.1067    3.4806    0.0000 C   0  0  0  0  0  0  0  0  0  0  0  0
    3.9567    2.5175    0.0000 C   0  0  0  0  0  0  0  0  0  0  0  0
    4.2158    1.0401    0.0000 C   0  0  0  0  0  0  0  0  0  0  0  0
    2.8067    1.5545    0.0000 C   0  0  0  0  0  0  0  0  0  0  0  0
    3.0658    0.0770    0.0000 C   0  0  0  0  0  0  0  0  0  0  0  0
    1.6567    0.5914    0.0000 C   0  0  0  0  0  0  0  0  0  0  0  0
    0.5067   -0.3717    0.0000 C   0  0  0  0  0  0  0  0  0  0  0  0
   -0.9023    0.1427    0.0000 O   0  0  0  0  0  0  0  0  0  0  0  0
    0.7658   -1.8492    0.0000 C   0  0  0  0  0  0  0  0  0  0  0  0
   -0.6893   -1.4849    0.0000 C   0  0  0  0  0  0  0  0  0  0  0  0
  2  1  1  6
  2  3  1  0
  3  4  1  0
  4  5  1  0
  5  6  2  0
  5  7  1  0
  7  8  1  0
  8  9  1  1
  9 10  1  0
  8 11  1  0
 11 12  2  0
 11 13  1  0
  2 14  1  0
 14 15  1  6
 15 16  1  0
 17 16  1  6
 17 18  1  0
 18 19  1  1
 19 20  1  0
 21 20  1  1
 21 22  1  0
 22 23  1  0
 23 24  2  0
 23 25  1  0
 25 26  1  0
 26 27  1  0
 27 28  1  6
 27 29  1  0
 29 30  1  6
 30 31  1  0
 31 32  1  1
 31 33  1  0
 33 34  1  6
 33 14  1  0
 33 17  1  0
 29 18  1  0
 27 21  1  0
M  END
>  <MS_ID>  (1820) 
MS1887

>  <SMILES>  (1820) 
C[C@H](CCC(=O)N[C@@H](CO)C(=O)O)[C@H]1CC[C@H]2[C@@H]3CC[C@@H]4CC(=O)CC[C@]4(C)[C@H]3C[C@H](O)[C@]12C

>  <Structure_dimension>  (1820) 
2D

$$$$
MS1888
     RDKit          2D

 28 31  0  0  0  0  0  0  0  0999 V2000
   -5.0096   -2.1352    0.0000 C   0  0  0  0  0  0  0  0  0  0  0  0
   -3.8132   -1.2303    0.0000 C   0  0  0  0  0  0  0  0  0  0  0  0
   -3.9987    0.2582    0.0000 C   0  0  0  0  0  0  0  0  0  0  0  0
   -5.3805    0.8418    0.0000 C   0  0  0  0  0  0  0  0  0  0  0  0
   -5.5659    2.3303    0.0000 C   0  0  0  0  0  0  0  0  0  0  0  0
   -6.9477    2.9140    0.0000 N   0  0  0  0  0  0  0  0  0  0  0  0
   -4.3695    3.2351    0.0000 O   0  0  0  0  0  0  0  0  0  0  0  0
   -2.4315   -1.8140    0.0000 C   0  0  0  0  0  0  0  0  0  0  0  0
   -2.0914   -3.2749    0.0000 C   0  0  0  0  0  0  0  0  0  0  0  0
   -0.5969   -3.4030    0.0000 C   0  0  0  0  0  0  0  0  0  0  0  0
   -0.0133   -2.0212    0.0000 C   0  0  0  0  0  0  0  0  0  0  0  0
    1.4041   -1.5304    0.0000 C   0  0  0  0  0  0  0  0  0  0  0  0
    2.5379   -2.5125    0.0000 C   0  0  0  0  0  0  0  0  0  0  0  0
    3.9554   -2.0216    0.0000 C   0  0  0  0  0  0  0  0  0  0  0  0
    4.2390   -0.5487    0.0000 C   0  0  0  0  0  0  0  0  0  0  0  0
    5.6564   -0.0578    0.0000 C   0  0  0  0  0  0  0  0  0  0  0  0
    5.9400    1.4151    0.0000 C   0  0  0  0  0  0  0  0  0  0  0  0
    7.3574    1.9060    0.0000 O   0  0  0  0  0  0  0  0  0  0  0  0
    4.8062    2.3972    0.0000 C   0  0  0  0  0  0  0  0  0  0  0  0
    3.3888    1.9064    0.0000 C   0  0  0  0  0  0  0  0  0  0  0  0
    3.1052    0.4334    0.0000 C   0  0  0  0  0  0  0  0  0  0  0  0
    1.9714    1.4155    0.0000 C   0  0  0  0  0  0  0  0  0  0  0  0
    1.6878   -0.0574    0.0000 C   0  0  0  0  0  0  0  0  0  0  0  0
    0.5540    0.9246    0.0000 C   0  0  0  0  0  0  0  0  0  0  0  0
   -0.8635    0.4338    0.0000 C   0  0  0  0  0  0  0  0  0  0  0  0
   -1.9973    1.4159    0.0000 O   0  0  0  0  0  0  0  0  0  0  0  0
   -1.1471   -1.0392    0.0000 C   0  0  0  0  0  0  0  0  0  0  0  0
   -2.3773   -0.1810    0.0000 C   0  0  0  0  0  0  0  0  0  0  0  0
  2  1  1  6
  2  3  1  0
  3  4  1  0
  4  5  1  0
  5  6  1  0
  5  7  2  0
  2  8  1  0
  8  9  1  6
  9 10  1  0
 11 10  1  6
 11 12  1  0
 12 13  1  1
 13 14  1  0
 15 14  1  1
 15 16  1  0
 16 17  1  0
 17 18  1  1
 17 19  1  0
 19 20  1  0
 20 21  1  0
 21 22  1  6
 21 23  1  0
 23 24  1  6
 24 25  1  0
 25 26  1  1
 25 27  1  0
 27 28  1  6
 27  8  1  0
 27 11  1  0
 23 12  1  0
 21 15  1  0
M  END
>  <MS_ID>  (1821) 
MS1888

>  <SMILES>  (1821) 
C[C@H](CCC(N)=O)[C@H]1CC[C@H]2[C@@H]3CC[C@@H]4C[C@H](O)CC[C@]4(C)[C@H]3C[C@H](O)[C@]12C

>  <Structure_dimension>  (1821) 
2D

$$$$
MS1889
     RDKit          2D

 29 32  0  0  0  0  0  0  0  0999 V2000
   -5.0303   -2.1373    0.0000 C   0  0  0  0  0  0  0  0  0  0  0  0
   -3.8594   -1.1998    0.0000 C   0  0  0  0  0  0  0  0  0  0  0  0
   -4.0858    0.2830    0.0000 C   0  0  0  0  0  0  0  0  0  0  0  0
   -5.4831    0.8284    0.0000 C   0  0  0  0  0  0  0  0  0  0  0  0
   -5.7095    2.3112    0.0000 C   0  0  0  0  0  0  0  0  0  0  0  0
   -4.5386    3.2487    0.0000 O   0  0  0  0  0  0  0  0  0  0  0  0
   -7.1069    2.8565    0.0000 O   0  0  0  0  0  0  0  0  0  0  0  0
   -2.4620   -1.7451    0.0000 C   0  0  0  0  0  0  0  0  0  0  0  0
   -2.0818   -3.1961    0.0000 C   0  0  0  0  0  0  0  0  0  0  0  0
   -0.5844   -3.2830    0.0000 C   0  0  0  0  0  0  0  0  0  0  0  0
   -0.0390   -1.8856    0.0000 C   0  0  0  0  0  0  0  0  0  0  0  0
    1.3643   -1.3559    0.0000 C   0  0  0  0  0  0  0  0  0  0  0  0
    2.5248   -2.3063    0.0000 C   0  0  0  0  0  0  0  0  0  0  0  0
    2.2819   -3.7865    0.0000 O   0  0  0  0  0  0  0  0  0  0  0  0
    3.9281   -1.7765    0.0000 C   0  0  0  0  0  0  0  0  0  0  0  0
    4.1710   -0.2963    0.0000 C   0  0  0  0  0  0  0  0  0  0  0  0
    5.5743    0.2334    0.0000 C   0  0  0  0  0  0  0  0  0  0  0  0
    5.8172    1.7136    0.0000 C   0  0  0  0  0  0  0  0  0  0  0  0
    7.2205    2.2434    0.0000 O   0  0  0  0  0  0  0  0  0  0  0  0
    4.6568    2.6641    0.0000 C   0  0  0  0  0  0  0  0  0  0  0  0
    3.2534    2.1343    0.0000 C   0  0  0  0  0  0  0  0  0  0  0  0
    3.0105    0.6541    0.0000 C   0  0  0  0  0  0  0  0  0  0  0  0
    1.8501    1.6046    0.0000 C   0  0  0  0  0  0  0  0  0  0  0  0
    1.6072    0.1244    0.0000 C   0  0  0  0  0  0  0  0  0  0  0  0
    0.4467    1.0748    0.0000 C   0  0  0  0  0  0  0  0  0  0  0  0
   -0.9566    0.5450    0.0000 C   0  0  0  0  0  0  0  0  0  0  0  0
   -2.1170    1.4955    0.0000 F   0  0  0  0  0  0  0  0  0  0  0  0
   -1.1995   -0.9352    0.0000 C   0  0  0  0  0  0  0  0  0  0  0  0
   -2.4529   -0.1112    0.0000 C   0  0  0  0  0  0  0  0  0  0  0  0
  2  1  1  6
  2  3  1  0
  3  4  1  0
  4  5  1  0
  5  6  2  0
  5  7  1  0
  2  8  1  0
  8  9  1  6
  9 10  1  0
 11 10  1  6
 11 12  1  0
 12 13  1  1
 13 14  1  6
 13 15  1  0
 16 15  1  1
 16 17  1  0
 17 18  1  0
 18 19  1  6
 18 20  1  0
 20 21  1  0
 21 22  1  0
 22 23  1  6
 22 24  1  0
 24 25  1  6
 25 26  1  0
 26 27  1  1
 26 28  1  0
 28 29  1  6
 28  8  1  0
 28 11  1  0
 24 12  1  0
 22 16  1  0
M  END
>  <MS_ID>  (1822) 
MS1889

>  <SMILES>  (1822) 
C[C@H](CCC(=O)O)[C@H]1CC[C@H]2[C@@H]3[C@@H](O)C[C@@H]4C[C@@H](O)CC[C@]4(C)[C@H]3C[C@H](F)[C@]12C

>  <Structure_dimension>  (1822) 
2D

$$$$
MS1890
     RDKit          2D

 40 44  0  0  0  0  0  0  0  0999 V2000
   -9.0576   -1.2876    0.0000 C   0  0  0  0  0  0  0  0  0  0  0  0
   -7.6735   -1.8657    0.0000 C   0  0  0  0  0  0  0  0  0  0  0  0
   -6.4808   -0.9560    0.0000 C   0  0  0  0  0  0  0  0  0  0  0  0
   -6.6722    0.5317    0.0000 C   0  0  0  0  0  0  0  0  0  0  0  0
   -8.0563    1.1098    0.0000 C   0  0  0  0  0  0  0  0  0  0  0  0
   -8.2477    2.5975    0.0000 C   0  0  0  0  0  0  0  0  0  0  0  0
   -7.0550    3.5072    0.0000 O   0  0  0  0  0  0  0  0  0  0  0  0
   -9.6318    3.1756    0.0000 O   0  0  0  0  0  0  0  0  0  0  0  0
   -5.0967   -1.5342    0.0000 C   0  0  0  0  0  0  0  0  0  0  0  0
   -4.7508   -2.9937    0.0000 C   0  0  0  0  0  0  0  0  0  0  0  0
   -3.2558   -3.1158    0.0000 C   0  0  0  0  0  0  0  0  0  0  0  0
   -2.6777   -1.7317    0.0000 C   0  0  0  0  0  0  0  0  0  0  0  0
   -1.2622   -1.2352    0.0000 C   0  0  0  0  0  0  0  0  0  0  0  0
   -0.1245   -2.2127    0.0000 C   0  0  0  0  0  0  0  0  0  0  0  0
   -0.4022   -3.6868    0.0000 O   0  0  0  0  0  0  0  0  0  0  0  0
    1.2909   -1.7162    0.0000 C   0  0  0  0  0  0  0  0  0  0  0  0
    1.5686   -0.2421    0.0000 C   0  0  0  0  0  0  0  0  0  0  0  0
    2.9841    0.2545    0.0000 C   0  0  0  0  0  0  0  0  0  0  0  0
    3.2618    1.7285    0.0000 C   0  0  0  0  0  0  0  0  0  0  0  0
    4.6772    2.2251    0.0000 O   0  0  0  0  0  0  0  0  0  0  0  0
    5.8149    1.2475    0.0000 C   0  0  0  0  0  0  0  0  0  0  0  0
    5.5372   -0.2265    0.0000 O   0  0  0  0  0  0  0  0  0  0  0  0
    6.6750   -1.2041    0.0000 C   0  0  0  0  0  0  0  0  0  0  0  0
    6.3973   -2.6781    0.0000 C   0  0  0  0  0  0  0  0  0  0  0  0
    4.9818   -3.1747    0.0000 O   0  0  0  0  0  0  0  0  0  0  0  0
    8.0904   -0.7075    0.0000 C   0  0  0  0  0  0  0  0  0  0  0  0
    9.2281   -1.6850    0.0000 O   0  0  0  0  0  0  0  0  0  0  0  0
    8.3681    0.7666    0.0000 C   0  0  0  0  0  0  0  0  0  0  0  0
    9.7835    1.2631    0.0000 O   0  0  0  0  0  0  0  0  0  0  0  0
    7.2304    1.7441    0.0000 C   0  0  0  0  0  0  0  0  0  0  0  0
    7.5080    3.2182    0.0000 O   0  0  0  0  0  0  0  0  0  0  0  0
    2.1240    2.7061    0.0000 C   0  0  0  0  0  0  0  0  0  0  0  0
    0.7086    2.2095    0.0000 C   0  0  0  0  0  0  0  0  0  0  0  0
    0.4309    0.7354    0.0000 C   0  0  0  0  0  0  0  0  0  0  0  0
   -0.7068    1.7130    0.0000 C   0  0  0  0  0  0  0  0  0  0  0  0
   -0.9845    0.2389    0.0000 C   0  0  0  0  0  0  0  0  0  0  0  0
   -2.1223    1.2164    0.0000 C   0  0  0  0  0  0  0  0  0  0  0  0
   -3.5377    0.7199    0.0000 C   0  0  0  0  0  0  0  0  0  0  0  0
   -3.8154   -0.7542    0.0000 C   0  0  0  0  0  0  0  0  0  0  0  0
   -5.0491    0.0991    0.0000 C   0  0  0  0  0  0  0  0  0  0  0  0
  1  2  1  0
  3  2  1  6
  3  4  1  0
  4  5  1  0
  5  6  1  0
  6  7  2  0
  6  8  1  0
  3  9  1  0
  9 10  1  6
 10 11  1  0
 12 11  1  6
 12 13  1  0
 13 14  1  1
 14 15  1  6
 14 16  1  0
 17 16  1  1
 17 18  1  0
 18 19  1  0
 19 20  1  1
 21 20  1  1
 21 22  1  0
 22 23  1  0
 23 24  1  1
 24 25  1  0
 23 26  1  0
 26 27  1  6
 26 28  1  0
 28 29  1  1
 28 30  1  0
 30 31  1  6
 19 32  1  0
 32 33  1  0
 33 34  1  0
 34 35  1  6
 34 36  1  0
 36 37  1  6
 37 38  1  0
 38 39  1  0
 39 40  1  6
 39  9  1  0
 39 12  1  0
 36 13  1  0
 34 17  1  0
 30 21  1  0
M  END
>  <MS_ID>  (1823) 
MS1890

>  <SMILES>  (1823) 
CC[C@H](CCC(=O)O)[C@H]1CC[C@H]2[C@@H]3[C@@H](O)C[C@@H]4C[C@H](O[C@@H]5O[C@H](CO)[C@@H](O)[C@H](O)[C@H]5O)CC[C@]4(C)[C@H]3CC[C@]12C

>  <Structure_dimension>  (1823) 
2D

$$$$
MS1891
     RDKit          2D

 30 33  0  0  0  0  0  0  0  0999 V2000
   -5.1470   -2.0510    0.0000 C   0  0  0  0  0  0  0  0  0  0  0  0
   -4.0254   -1.0550    0.0000 C   0  0  0  0  0  0  0  0  0  0  0  0
   -4.3272    0.4144    0.0000 C   0  0  0  0  0  0  0  0  0  0  0  0
   -5.7505    0.8877    0.0000 C   0  0  0  0  0  0  0  0  0  0  0  0
   -6.0523    2.3570    0.0000 C   0  0  0  0  0  0  0  0  0  0  0  0
   -4.9307    3.3530    0.0000 O   0  0  0  0  0  0  0  0  0  0  0  0
   -7.4757    2.8303    0.0000 O   0  0  0  0  0  0  0  0  0  0  0  0
   -2.6020   -1.5283    0.0000 C   0  0  0  0  0  0  0  0  0  0  0  0
   -2.1483   -2.9580    0.0000 C   0  0  0  0  0  0  0  0  0  0  0  0
   -0.6483   -2.9683    0.0000 C   0  0  0  0  0  0  0  0  0  0  0  0
   -0.1750   -1.5449    0.0000 C   0  0  0  0  0  0  0  0  0  0  0  0
    1.1995   -0.9443    0.0000 C   0  0  0  0  0  0  0  0  0  0  0  0
    2.4069   -1.8342    0.0000 C   0  0  0  0  0  0  0  0  0  0  0  0
    2.2399   -3.3249    0.0000 C   0  0  0  0  0  0  0  0  0  0  0  0
    0.8654   -3.9256    0.0000 O   0  0  0  0  0  0  0  0  0  0  0  0
    3.4473   -4.2149    0.0000 O   0  0  0  0  0  0  0  0  0  0  0  0
    3.7814   -1.2336    0.0000 C   0  0  0  0  0  0  0  0  0  0  0  0
    3.9484    0.2571    0.0000 C   0  0  0  0  0  0  0  0  0  0  0  0
    5.3229    0.8578    0.0000 C   0  0  0  0  0  0  0  0  0  0  0  0
    5.4899    2.3485    0.0000 C   0  0  0  0  0  0  0  0  0  0  0  0
    6.8644    2.9492    0.0000 O   0  0  0  0  0  0  0  0  0  0  0  0
    4.2825    3.2385    0.0000 C   0  0  0  0  0  0  0  0  0  0  0  0
    2.9080    2.6378    0.0000 C   0  0  0  0  0  0  0  0  0  0  0  0
    2.7410    1.1471    0.0000 C   0  0  0  0  0  0  0  0  0  0  0  0
    1.5335    2.0371    0.0000 C   0  0  0  0  0  0  0  0  0  0  0  0
    1.3665    0.5464    0.0000 C   0  0  0  0  0  0  0  0  0  0  0  0
    0.1591    1.4364    0.0000 C   0  0  0  0  0  0  0  0  0  0  0  0
   -1.2154    0.8357    0.0000 C   0  0  0  0  0  0  0  0  0  0  0  0
   -1.3825   -0.6549    0.0000 C   0  0  0  0  0  0  0  0  0  0  0  0
   -2.6763    0.1040    0.0000 C   0  0  0  0  0  0  0  0  0  0  0  0
  2  1  1  6
  2  3  1  0
  3  4  1  0
  4  5  1  0
  5  6  2  0
  5  7  1  0
  2  8  1  0
  8  9  1  6
  9 10  1  0
 11 10  1  6
 11 12  1  0
 12 13  1  1
 13 14  1  1
 14 15  2  0
 14 16  1  0
 13 17  1  0
 18 17  1  1
 18 19  1  0
 19 20  1  0
 20 21  1  1
 20 22  1  0
 22 23  1  0
 23 24  1  0
 24 25  1  6
 24 26  1  0
 26 27  1  6
 27 28  1  0
 28 29  1  0
 29 30  1  6
 29  8  1  0
 29 11  1  0
 26 12  1  0
 24 18  1  0
M  END
>  <MS_ID>  (1824) 
MS1891

>  <SMILES>  (1824) 
C[C@H](CCC(=O)O)[C@H]1CC[C@H]2[C@@H]3[C@H](C(=O)O)C[C@@H]4C[C@H](O)CC[C@]4(C)[C@H]3CC[C@]12C

>  <Structure_dimension>  (1824) 
2D

$$$$
MS1893
     RDKit          2D

 29 32  0  0  0  0  0  0  0  0999 V2000
   -7.4712    3.6525    0.0000 C   0  0  0  0  0  0  0  0  0  0  0  0
   -7.1264    2.1927    0.0000 C   0  0  0  0  0  0  0  0  0  0  0  0
   -5.6897    1.7615    0.0000 C   0  0  0  0  0  0  0  0  0  0  0  0
   -4.5979    2.7900    0.0000 O   0  0  0  0  0  0  0  0  0  0  0  0
   -5.3448    0.3016    0.0000 C   0  0  0  0  0  0  0  0  0  0  0  0
   -3.9081   -0.1296    0.0000 C   0  0  0  0  0  0  0  0  0  0  0  0
   -3.5633   -1.5894    0.0000 C   0  0  0  0  0  0  0  0  0  0  0  0
   -4.6551   -2.6180    0.0000 C   0  0  0  0  0  0  0  0  0  0  0  0
   -2.1266   -2.0207    0.0000 C   0  0  0  0  0  0  0  0  0  0  0  0
   -1.6310   -3.4364    0.0000 C   0  0  0  0  0  0  0  0  0  0  0  0
   -0.1314   -3.4026    0.0000 C   0  0  0  0  0  0  0  0  0  0  0  0
    0.2998   -1.9659    0.0000 C   0  0  0  0  0  0  0  0  0  0  0  0
    1.6561   -1.3251    0.0000 C   0  0  0  0  0  0  0  0  0  0  0  0
    2.8892   -2.1792    0.0000 C   0  0  0  0  0  0  0  0  0  0  0  0
    2.7660   -3.6741    0.0000 O   0  0  0  0  0  0  0  0  0  0  0  0
    4.2454   -1.5383    0.0000 C   0  0  0  0  0  0  0  0  0  0  0  0
    4.3685   -0.0434    0.0000 C   0  0  0  0  0  0  0  0  0  0  0  0
    5.7247    0.5975    0.0000 C   0  0  0  0  0  0  0  0  0  0  0  0
    5.8478    2.0924    0.0000 C   0  0  0  0  0  0  0  0  0  0  0  0
    7.2040    2.7332    0.0000 O   0  0  0  0  0  0  0  0  0  0  0  0
    4.6147    2.9465    0.0000 C   0  0  0  0  0  0  0  0  0  0  0  0
    3.2585    2.3056    0.0000 C   0  0  0  0  0  0  0  0  0  0  0  0
    3.1354    0.8107    0.0000 C   0  0  0  0  0  0  0  0  0  0  0  0
    1.9023    1.6648    0.0000 C   0  0  0  0  0  0  0  0  0  0  0  0
    1.7792    0.1699    0.0000 C   0  0  0  0  0  0  0  0  0  0  0  0
    0.5461    1.0239    0.0000 C   0  0  0  0  0  0  0  0  0  0  0  0
   -0.8101    0.3831    0.0000 C   0  0  0  0  0  0  0  0  0  0  0  0
   -0.9333   -1.1118    0.0000 C   0  0  0  0  0  0  0  0  0  0  0  0
   -2.2489   -0.3913    0.0000 C   0  0  0  0  0  0  0  0  0  0  0  0
  1  2  1  0
  2  3  1  0
  3  4  2  0
  3  5  1  0
  5  6  1  0
  6  7  1  0
  7  8  1  6
  7  9  1  0
  9 10  1  6
 10 11  1  0
 12 11  1  6
 12 13  1  0
 13 14  1  1
 14 15  2  0
 14 16  1  0
 17 16  1  1
 17 18  1  0
 18 19  1  0
 19 20  1  1
 19 21  1  0
 21 22  1  0
 22 23  1  0
 23 24  1  6
 23 25  1  0
 25 26  1  6
 26 27  1  0
 27 28  1  0
 28 29  1  6
 28  9  1  0
 28 12  1  0
 25 13  1  0
 23 17  1  0
M  END
>  <MS_ID>  (1825) 
MS1893

>  <SMILES>  (1825) 
CCC(=O)CC[C@@H](C)[C@H]1CC[C@H]2[C@@H]3C(=O)C[C@@H]4C[C@H](O)CC[C@]4(C)[C@H]3CC[C@]12C

>  <Structure_dimension>  (1825) 
2D

$$$$
MS1894
     RDKit          2D

 33 36  0  0  0  0  0  0  0  0999 V2000
   -4.0997   -3.5177    0.0000 C   0  0  0  0  0  0  0  0  0  0  0  0
   -3.1213   -2.3807    0.0000 C   0  0  0  0  0  0  0  0  0  0  0  0
   -3.6169   -0.9649    0.0000 C   0  0  0  0  0  0  0  0  0  0  0  0
   -5.0907   -0.6861    0.0000 C   0  0  0  0  0  0  0  0  0  0  0  0
   -5.5862    0.7297    0.0000 C   0  0  0  0  0  0  0  0  0  0  0  0
   -4.6079    1.8667    0.0000 O   0  0  0  0  0  0  0  0  0  0  0  0
   -7.0601    1.0084    0.0000 O   0  0  0  0  0  0  0  0  0  0  0  0
   -1.6475   -2.6595    0.0000 C   0  0  0  0  0  0  0  0  0  0  0  0
   -1.0067   -4.0157    0.0000 C   0  0  0  0  0  0  0  0  0  0  0  0
    0.4812   -3.8254    0.0000 C   0  0  0  0  0  0  0  0  0  0  0  0
    0.7600   -2.3515    0.0000 C   0  0  0  0  0  0  0  0  0  0  0  0
    2.0418   -1.5725    0.0000 C   0  0  0  0  0  0  0  0  0  0  0  0
    3.3574   -2.2930    0.0000 C   0  0  0  0  0  0  0  0  0  0  0  0
    3.3911   -3.7927    0.0000 O   0  0  0  0  0  0  0  0  0  0  0  0
    4.6392   -1.5140    0.0000 C   0  0  0  0  0  0  0  0  0  0  0  0
    4.6055   -0.0144    0.0000 C   0  0  0  0  0  0  0  0  0  0  0  0
    5.8873    0.7647    0.0000 C   0  0  0  0  0  0  0  0  0  0  0  0
    5.8535    2.2643    0.0000 C   0  0  0  0  0  0  0  0  0  0  0  0
    7.1354    3.0433    0.0000 O   0  0  0  0  0  0  0  0  0  0  0  0
    4.5379    2.9849    0.0000 C   0  0  0  0  0  0  0  0  0  0  0  0
    3.2561    2.2058    0.0000 C   0  0  0  0  0  0  0  0  0  0  0  0
    3.2899    0.7062    0.0000 C   0  0  0  0  0  0  0  0  0  0  0  0
    1.9743    1.4268    0.0000 C   0  0  0  0  0  0  0  0  0  0  0  0
    2.0080   -0.0728    0.0000 C   0  0  0  0  0  0  0  0  0  0  0  0
    0.6924    0.6477    0.0000 C   0  0  0  0  0  0  0  0  0  0  0  0
   -0.5894   -0.1313    0.0000 C   0  0  0  0  0  0  0  0  0  0  0  0
   -1.9050    0.5893    0.0000 O   0  0  0  0  0  0  0  0  0  0  0  0
   -1.9387    2.0889    0.0000 C   0  0  0  0  0  0  0  0  0  0  0  0
   -3.2543    2.8095    0.0000 C   0  0  0  0  0  0  0  0  0  0  0  0
   -3.2881    4.3091    0.0000 C   0  0  0  0  0  0  0  0  0  0  0  0
   -4.6037    5.0297    0.0000 O   0  0  0  0  0  0  0  0  0  0  0  0
   -0.5556   -1.6309    0.0000 C   0  0  0  0  0  0  0  0  0  0  0  0
   -1.9393   -1.0518    0.0000 C   0  0  0  0  0  0  0  0  0  0  0  0
  2  1  1  6
  2  3  1  0
  3  4  1  0
  4  5  1  0
  5  6  2  0
  5  7  1  0
  2  8  1  0
  8  9  1  6
  9 10  1  0
 11 10  1  6
 11 12  1  0
 12 13  1  1
 13 14  1  1
 13 15  1  0
 16 15  1  1
 16 17  1  0
 17 18  1  0
 18 19  1  1
 18 20  1  0
 20 21  1  0
 21 22  1  0
 22 23  1  6
 22 24  1  0
 24 25  1  6
 25 26  1  0
 26 27  1  1
 27 28  1  0
 28 29  1  0
 29 30  1  0
 30 31  1  0
 26 32  1  0
 32 33  1  6
 32  8  1  0
 32 11  1  0
 24 12  1  0
 22 16  1  0
M  END
>  <MS_ID>  (1826) 
MS1894

>  <SMILES>  (1826) 
C[C@H](CCC(=O)O)[C@H]1CC[C@H]2[C@@H]3[C@H](O)C[C@@H]4C[C@H](O)CC[C@]4(C)[C@H]3C[C@H](OCCCO)[C@]12C

>  <Structure_dimension>  (1826) 
2D

$$$$
MS1895
     RDKit          2D

 29 32  0  0  0  0  0  0  0  0999 V2000
   -5.1421   -2.1269    0.0000 C   0  0  0  0  0  0  0  0  0  0  0  0
   -4.0091   -1.1439    0.0000 C   0  0  0  0  0  0  0  0  0  0  0  0
   -4.2938    0.3288    0.0000 C   0  0  0  0  0  0  0  0  0  0  0  0
   -5.7116    0.8186    0.0000 C   0  0  0  0  0  0  0  0  0  0  0  0
   -5.9963    2.2913    0.0000 C   0  0  0  0  0  0  0  0  0  0  0  0
   -4.8632    3.2743    0.0000 O   0  0  0  0  0  0  0  0  0  0  0  0
   -7.4141    2.7811    0.0000 O   0  0  0  0  0  0  0  0  0  0  0  0
   -2.5913   -1.6337    0.0000 C   0  0  0  0  0  0  0  0  0  0  0  0
   -2.1542   -3.0686    0.0000 C   0  0  0  0  0  0  0  0  0  0  0  0
   -0.6544   -3.0963    0.0000 C   0  0  0  0  0  0  0  0  0  0  0  0
   -0.1646   -1.6785    0.0000 C   0  0  0  0  0  0  0  0  0  0  0  0
    1.2167   -1.0938    0.0000 C   0  0  0  0  0  0  0  0  0  0  0  0
    2.4137   -1.9977    0.0000 C   0  0  0  0  0  0  0  0  0  0  0  0
    2.2294   -3.4864    0.0000 C   0  0  0  0  0  0  0  0  0  0  0  0
    3.4265   -4.3903    0.0000 O   0  0  0  0  0  0  0  0  0  0  0  0
    3.7951   -1.4130    0.0000 C   0  0  0  0  0  0  0  0  0  0  0  0
    3.9794    0.0756    0.0000 C   0  0  0  0  0  0  0  0  0  0  0  0
    5.3607    0.6603    0.0000 C   0  0  0  0  0  0  0  0  0  0  0  0
    5.5451    2.1489    0.0000 C   0  0  0  0  0  0  0  0  0  0  0  0
    6.9264    2.7336    0.0000 O   0  0  0  0  0  0  0  0  0  0  0  0
    4.3480    3.0529    0.0000 C   0  0  0  0  0  0  0  0  0  0  0  0
    2.9667    2.4682    0.0000 C   0  0  0  0  0  0  0  0  0  0  0  0
    2.7824    0.9795    0.0000 C   0  0  0  0  0  0  0  0  0  0  0  0
    1.5853    1.8835    0.0000 C   0  0  0  0  0  0  0  0  0  0  0  0
    1.4010    0.3948    0.0000 C   0  0  0  0  0  0  0  0  0  0  0  0
    0.2040    1.2988    0.0000 C   0  0  0  0  0  0  0  0  0  0  0  0
   -1.1774    0.7141    0.0000 C   0  0  0  0  0  0  0  0  0  0  0  0
   -1.3617   -0.7746    0.0000 C   0  0  0  0  0  0  0  0  0  0  0  0
   -2.6467   -0.0007    0.0000 C   0  0  0  0  0  0  0  0  0  0  0  0
  2  1  1  6
  2  3  1  0
  3  4  1  0
  4  5  1  0
  5  6  2  0
  5  7  1  0
  2  8  1  0
  8  9  1  6
  9 10  1  0
 11 10  1  6
 11 12  1  0
 12 13  1  1
 13 14  1  6
 14 15  1  0
 13 16  1  0
 17 16  1  1
 17 18  1  0
 18 19  1  0
 19 20  1  6
 19 21  1  0
 21 22  1  0
 22 23  1  0
 23 24  1  6
 23 25  1  0
 25 26  1  6
 26 27  1  0
 27 28  1  0
 28 29  1  6
 28  8  1  0
 28 11  1  0
 25 12  1  0
 23 17  1  0
M  END
>  <MS_ID>  (1827) 
MS1895

>  <SMILES>  (1827) 
C[C@H](CCC(=O)O)[C@H]1CC[C@H]2[C@@H]3[C@@H](CO)C[C@@H]4C[C@@H](O)CC[C@]4(C)[C@H]3CC[C@]12C

>  <Structure_dimension>  (1827) 
2D

$$$$
MS1896
     RDKit          2D

 32 35  0  0  0  0  0  0  0  0999 V2000
   -3.6687   -3.7654    0.0000 C   0  0  0  0  0  0  0  0  0  0  0  0
   -2.7694   -2.5649    0.0000 C   0  0  0  0  0  0  0  0  0  0  0  0
   -3.3594   -1.1858    0.0000 C   0  0  0  0  0  0  0  0  0  0  0  0
   -4.8488   -1.0072    0.0000 C   0  0  0  0  0  0  0  0  0  0  0  0
   -5.4388    0.3718    0.0000 C   0  0  0  0  0  0  0  0  0  0  0  0
   -6.9281    0.5504    0.0000 O   0  0  0  0  0  0  0  0  0  0  0  0
   -4.5395    1.5724    0.0000 O   0  0  0  0  0  0  0  0  0  0  0  0
   -5.1295    2.9514    0.0000 S   0  0  0  0  0  0  0  0  0  0  0  0
   -6.5086    2.3614    0.0000 O   0  0  0  0  0  0  0  0  0  0  0  0
   -3.7505    3.5415    0.0000 O   0  0  0  0  0  0  0  0  0  0  0  0
   -5.7196    4.3305    0.0000 O   0  0  0  0  0  0  0  0  0  0  0  0
   -1.2801   -2.7434    0.0000 C   0  0  0  0  0  0  0  0  0  0  0  0
   -0.5491   -4.0533    0.0000 C   0  0  0  0  0  0  0  0  0  0  0  0
    0.9225   -3.7629    0.0000 C   0  0  0  0  0  0  0  0  0  0  0  0
    1.1011   -2.2735    0.0000 C   0  0  0  0  0  0  0  0  0  0  0  0
    2.3273   -1.4097    0.0000 C   0  0  0  0  0  0  0  0  0  0  0  0
    3.6886   -2.0397    0.0000 C   0  0  0  0  0  0  0  0  0  0  0  0
    3.8236   -3.5336    0.0000 N   0  0  0  0  0  0  0  0  0  0  0  0
    4.9149   -1.1759    0.0000 C   0  0  0  0  0  0  0  0  0  0  0  0
    4.7799    0.3181    0.0000 C   0  0  0  0  0  0  0  0  0  0  0  0
    6.0061    1.1819    0.0000 C   0  0  0  0  0  0  0  0  0  0  0  0
    5.8711    2.6758    0.0000 C   0  0  0  0  0  0  0  0  0  0  0  0
    7.0974    3.5397    0.0000 O   0  0  0  0  0  0  0  0  0  0  0  0
    4.5099    3.3059    0.0000 C   0  0  0  0  0  0  0  0  0  0  0  0
    3.2836    2.4420    0.0000 C   0  0  0  0  0  0  0  0  0  0  0  0
    3.4186    0.9481    0.0000 C   0  0  0  0  0  0  0  0  0  0  0  0
    2.0573    1.5782    0.0000 C   0  0  0  0  0  0  0  0  0  0  0  0
    2.1923    0.0842    0.0000 C   0  0  0  0  0  0  0  0  0  0  0  0
    0.8311    0.7143    0.0000 C   0  0  0  0  0  0  0  0  0  0  0  0
   -0.3952   -0.1496    0.0000 C   0  0  0  0  0  0  0  0  0  0  0  0
   -0.2602   -1.6435    0.0000 C   0  0  0  0  0  0  0  0  0  0  0  0
   -1.6799   -1.1592    0.0000 C   0  0  0  0  0  0  0  0  0  0  0  0
  2  1  1  6
  2  3  1  0
  3  4  1  0
  4  5  1  0
  5  6  2  0
  5  7  1  0
  7  8  1  0
  8  9  2  0
  8 10  2  0
  8 11  1  0
  2 12  1  0
 12 13  1  6
 13 14  1  0
 15 14  1  6
 15 16  1  0
 16 17  1  1
 17 18  1  1
 17 19  1  0
 20 19  1  1
 20 21  1  0
 21 22  1  0
 22 23  1  1
 22 24  1  0
 24 25  1  0
 25 26  1  0
 26 27  1  6
 26 28  1  0
 28 29  1  6
 29 30  1  0
 30 31  1  0
 31 32  1  6
 31 12  1  0
 31 15  1  0
 28 16  1  0
 26 20  1  0
M  END
>  <MS_ID>  (1828) 
MS1896

>  <SMILES>  (1828) 
C[C@H](CCC(=O)OS(=O)(=O)O)[C@H]1CC[C@H]2[C@@H]3[C@H](N)C[C@@H]4C[C@H](O)CC[C@]4(C)[C@H]3CC[C@]12C

>  <Structure_dimension>  (1828) 
2D

$$$$
MS1897
     RDKit          2D

 32 35  0  0  0  0  0  0  0  0999 V2000
   -1.9919   -4.2474    0.0000 C   0  0  0  0  0  0  0  0  0  0  0  0
   -1.2734   -2.9307    0.0000 C   0  0  0  0  0  0  0  0  0  0  0  0
   -2.0544   -1.6501    0.0000 C   0  0  0  0  0  0  0  0  0  0  0  0
   -3.5539   -1.6861    0.0000 C   0  0  0  0  0  0  0  0  0  0  0  0
   -4.3349   -0.4055    0.0000 C   0  0  0  0  0  0  0  0  0  0  0  0
   -3.6164    0.9112    0.0000 O   0  0  0  0  0  0  0  0  0  0  0  0
   -5.8345   -0.4416    0.0000 O   0  0  0  0  0  0  0  0  0  0  0  0
   -6.6155    0.8391    0.0000 C   0  0  0  0  0  0  0  0  0  0  0  0
   -8.1151    0.8030    0.0000 C   0  0  0  0  0  0  0  0  0  0  0  0
   -8.8961    2.0837    0.0000 O   0  0  0  0  0  0  0  0  0  0  0  0
   -5.8969    2.1558    0.0000 C   0  0  0  0  0  0  0  0  0  0  0  0
   -4.3974    2.1918    0.0000 O   0  0  0  0  0  0  0  0  0  0  0  0
   -6.6779    3.4364    0.0000 O   0  0  0  0  0  0  0  0  0  0  0  0
    0.2262   -2.8947    0.0000 C   0  0  0  0  0  0  0  0  0  0  0  0
    1.1368   -4.0867    0.0000 C   0  0  0  0  0  0  0  0  0  0  0  0
    2.5518   -3.5890    0.0000 C   0  0  0  0  0  0  0  0  0  0  0  0
    2.5158   -2.0894    0.0000 C   0  0  0  0  0  0  0  0  0  0  0  0
    3.6061   -1.0592    0.0000 C   0  0  0  0  0  0  0  0  0  0  0  0
    5.0434   -1.4884    0.0000 C   0  0  0  0  0  0  0  0  0  0  0  0
    6.1337   -0.4582    0.0000 C   0  0  0  0  0  0  0  0  0  0  0  0
    5.7866    1.0011    0.0000 C   0  0  0  0  0  0  0  0  0  0  0  0
    6.8769    2.0313    0.0000 C   0  0  0  0  0  0  0  0  0  0  0  0
    6.5299    3.4906    0.0000 C   0  0  0  0  0  0  0  0  0  0  0  0
    5.0925    3.9197    0.0000 C   0  0  0  0  0  0  0  0  0  0  0  0
    4.0023    2.8896    0.0000 C   0  0  0  0  0  0  0  0  0  0  0  0
    4.3493    1.4302    0.0000 C   0  0  0  0  0  0  0  0  0  0  0  0
    2.9120    1.8594    0.0000 C   0  0  0  0  0  0  0  0  0  0  0  0
    3.2590    0.4001    0.0000 C   0  0  0  0  0  0  0  0  0  0  0  0
    1.8217    0.8292    0.0000 C   0  0  0  0  0  0  0  0  0  0  0  0
    0.7314   -0.2010    0.0000 C   0  0  0  0  0  0  0  0  0  0  0  0
    1.0785   -1.6603    0.0000 C   0  0  0  0  0  0  0  0  0  0  0  0
   -0.3958   -1.3838    0.0000 C   0  0  0  0  0  0  0  0  0  0  0  0
  2  1  1  6
  2  3  1  0
  3  4  1  0
  4  5  1  0
  5  6  2  0
  5  7  1  0
  7  8  1  0
  8  9  1  1
  9 10  1  0
  8 11  1  0
 11 12  2  0
 11 13  1  0
  2 14  1  0
 14 15  1  6
 15 16  1  0
 17 16  1  6
 17 18  1  0
 18 19  1  1
 19 20  1  0
 21 20  1  1
 21 22  1  0
 22 23  1  0
 23 24  1  0
 24 25  1  0
 25 26  1  0
 26 27  1  6
 26 28  1  0
 28 29  1  6
 29 30  1  0
 30 31  1  0
 31 32  1  6
 31 14  1  0
 31 17  1  0
 28 18  1  0
 26 21  1  0
M  END
>  <MS_ID>  (1829) 
MS1897

>  <SMILES>  (1829) 
C[C@H](CCC(=O)O[C@@H](CO)C(=O)O)[C@H]1CC[C@H]2[C@@H]3CC[C@@H]4CCCC[C@]4(C)[C@H]3CC[C@]12C

>  <Structure_dimension>  (1829) 
2D

$$$$
MS1898
     RDKit          2D

 29 32  0  0  0  0  0  0  0  0999 V2000
    5.2401    2.0328    0.0000 C   0  0  0  0  0  0  0  0  0  0  0  0
    4.0410    1.1316    0.0000 C   0  0  0  0  0  0  0  0  0  0  0  0
    4.2220   -0.3575    0.0000 C   0  0  0  0  0  0  0  0  0  0  0  0
    5.6020   -0.9453    0.0000 C   0  0  0  0  0  0  0  0  0  0  0  0
    5.7830   -2.4343    0.0000 C   0  0  0  0  0  0  0  0  0  0  0  0
    7.1630   -3.0221    0.0000 O   0  0  0  0  0  0  0  0  0  0  0  0
    4.5839   -3.3355    0.0000 F   0  0  0  0  0  0  0  0  0  0  0  0
    2.6610    1.7194    0.0000 C   0  0  0  0  0  0  0  0  0  0  0  0
    2.3254    3.1813    0.0000 C   0  0  0  0  0  0  0  0  0  0  0  0
    0.8312    3.3139    0.0000 C   0  0  0  0  0  0  0  0  0  0  0  0
    0.2434    1.9339    0.0000 C   0  0  0  0  0  0  0  0  0  0  0  0
   -1.1754    1.4473    0.0000 C   0  0  0  0  0  0  0  0  0  0  0  0
   -2.3063    2.4327    0.0000 C   0  0  0  0  0  0  0  0  0  0  0  0
   -2.0183    3.9048    0.0000 O   0  0  0  0  0  0  0  0  0  0  0  0
   -3.7252    1.9461    0.0000 C   0  0  0  0  0  0  0  0  0  0  0  0
   -4.0132    0.4740    0.0000 C   0  0  0  0  0  0  0  0  0  0  0  0
   -5.4321   -0.0126    0.0000 C   0  0  0  0  0  0  0  0  0  0  0  0
   -5.7201   -1.4846    0.0000 C   0  0  0  0  0  0  0  0  0  0  0  0
   -7.1390   -1.9713    0.0000 O   0  0  0  0  0  0  0  0  0  0  0  0
   -4.5892   -2.4701    0.0000 C   0  0  0  0  0  0  0  0  0  0  0  0
   -3.1704   -1.9835    0.0000 C   0  0  0  0  0  0  0  0  0  0  0  0
   -2.0395   -2.9690    0.0000 O   0  0  0  0  0  0  0  0  0  0  0  0
   -2.8823   -0.5114    0.0000 C   0  0  0  0  0  0  0  0  0  0  0  0
   -1.7515   -1.4969    0.0000 C   0  0  0  0  0  0  0  0  0  0  0  0
   -1.4635   -0.0248    0.0000 C   0  0  0  0  0  0  0  0  0  0  0  0
   -0.3326   -1.0103    0.0000 C   0  0  0  0  0  0  0  0  0  0  0  0
    1.0863   -0.5237    0.0000 C   0  0  0  0  0  0  0  0  0  0  0  0
    1.3743    0.9484    0.0000 C   0  0  0  0  0  0  0  0  0  0  0  0
    2.6020    0.0865    0.0000 C   0  0  0  0  0  0  0  0  0  0  0  0
  2  1  1  6
  2  3  1  0
  3  4  1  0
  4  5  1  0
  5  6  2  0
  5  7  1  0
  2  8  1  0
  8  9  1  6
  9 10  1  0
 11 10  1  6
 11 12  1  0
 12 13  1  1
 13 14  1  1
 13 15  1  0
 16 15  1  1
 16 17  1  0
 17 18  1  0
 18 19  1  1
 18 20  1  0
 20 21  1  0
 21 22  1  1
 21 23  1  0
 23 24  1  6
 23 25  1  0
 25 26  1  6
 26 27  1  0
 27 28  1  0
 28 29  1  6
 28  8  1  0
 28 11  1  0
 25 12  1  0
 23 16  1  0
M  END
>  <MS_ID>  (1830) 
MS1898

>  <SMILES>  (1830) 
C[C@H](CCC(=O)F)[C@H]1CC[C@H]2[C@@H]3[C@H](O)C[C@@H]4C[C@H](O)C[C@H](O)[C@]4(C)[C@H]3CC[C@]12C

>  <Structure_dimension>  (1830) 
2D

$$$$
MS1899
     RDKit          2D

 39 43  0  0  0  0  0  0  0  0999 V2000
   -7.7534   -2.1938    0.0000 C   0  0  0  0  0  0  0  0  0  0  0  0
   -6.5793   -1.2603    0.0000 C   0  0  0  0  0  0  0  0  0  0  0  0
   -6.8008    0.2233    0.0000 C   0  0  0  0  0  0  0  0  0  0  0  0
   -8.1963    0.7733    0.0000 C   0  0  0  0  0  0  0  0  0  0  0  0
   -8.4177    2.2569    0.0000 C   0  0  0  0  0  0  0  0  0  0  0  0
   -7.2436    3.1904    0.0000 O   0  0  0  0  0  0  0  0  0  0  0  0
   -9.8132    2.8069    0.0000 O   0  0  0  0  0  0  0  0  0  0  0  0
   -5.1838   -1.8103    0.0000 C   0  0  0  0  0  0  0  0  0  0  0  0
   -4.8085   -3.2626    0.0000 C   0  0  0  0  0  0  0  0  0  0  0  0
   -3.3114   -3.3545    0.0000 C   0  0  0  0  0  0  0  0  0  0  0  0
   -2.7613   -1.9590    0.0000 C   0  0  0  0  0  0  0  0  0  0  0  0
   -1.3562   -1.4339    0.0000 C   0  0  0  0  0  0  0  0  0  0  0  0
   -0.1990   -2.3883    0.0000 C   0  0  0  0  0  0  0  0  0  0  0  0
    1.2061   -1.8632    0.0000 C   0  0  0  0  0  0  0  0  0  0  0  0
    1.4540   -0.3839    0.0000 C   0  0  0  0  0  0  0  0  0  0  0  0
    2.8591    0.1412    0.0000 C   0  0  0  0  0  0  0  0  0  0  0  0
    3.1070    1.6206    0.0000 C   0  0  0  0  0  0  0  0  0  0  0  0
    4.5121    2.1456    0.0000 O   0  0  0  0  0  0  0  0  0  0  0  0
    5.6693    1.1912    0.0000 C   0  0  0  0  0  0  0  0  0  0  0  0
    5.4215   -0.2881    0.0000 O   0  0  0  0  0  0  0  0  0  0  0  0
    6.5787   -1.2425    0.0000 C   0  0  0  0  0  0  0  0  0  0  0  0
    6.3309   -2.7219    0.0000 C   0  0  0  0  0  0  0  0  0  0  0  0
    4.9257   -3.2469    0.0000 O   0  0  0  0  0  0  0  0  0  0  0  0
    7.9838   -0.7174    0.0000 C   0  0  0  0  0  0  0  0  0  0  0  0
    9.1411   -1.6718    0.0000 O   0  0  0  0  0  0  0  0  0  0  0  0
    8.2317    0.7619    0.0000 C   0  0  0  0  0  0  0  0  0  0  0  0
    9.6368    1.2870    0.0000 O   0  0  0  0  0  0  0  0  0  0  0  0
    7.0744    1.7163    0.0000 C   0  0  0  0  0  0  0  0  0  0  0  0
    7.3223    3.1957    0.0000 O   0  0  0  0  0  0  0  0  0  0  0  0
    1.9497    2.5749    0.0000 C   0  0  0  0  0  0  0  0  0  0  0  0
    0.5446    2.0499    0.0000 C   0  0  0  0  0  0  0  0  0  0  0  0
    0.2967    0.5705    0.0000 C   0  0  0  0  0  0  0  0  0  0  0  0
   -0.8605    1.5248    0.0000 C   0  0  0  0  0  0  0  0  0  0  0  0
   -1.1084    0.0455    0.0000 C   0  0  0  0  0  0  0  0  0  0  0  0
   -2.2656    0.9998    0.0000 C   0  0  0  0  0  0  0  0  0  0  0  0
   -3.6707    0.4748    0.0000 C   0  0  0  0  0  0  0  0  0  0  0  0
   -4.8280    1.4291    0.0000 O   0  0  0  0  0  0  0  0  0  0  0  0
   -3.9186   -1.0046    0.0000 C   0  0  0  0  0  0  0  0  0  0  0  0
   -5.1693   -0.1765    0.0000 C   0  0  0  0  0  0  0  0  0  0  0  0
  2  1  1  6
  2  3  1  0
  3  4  1  0
  4  5  1  0
  5  6  2  0
  5  7  1  0
  2  8  1  0
  8  9  1  6
  9 10  1  0
 11 10  1  6
 11 12  1  0
 12 13  1  1
 13 14  1  0
 15 14  1  1
 15 16  1  0
 16 17  1  0
 17 18  1  6
 19 18  1  1
 19 20  1  0
 20 21  1  0
 21 22  1  6
 22 23  1  0
 21 24  1  0
 24 25  1  1
 24 26  1  0
 26 27  1  6
 26 28  1  0
 28 29  1  6
 17 30  1  0
 30 31  1  0
 31 32  1  0
 32 33  1  6
 32 34  1  0
 34 35  1  6
 35 36  1  0
 36 37  1  1
 36 38  1  0
 38 39  1  6
 38  8  1  0
 38 11  1  0
 34 12  1  0
 32 15  1  0
 28 19  1  0
M  END
>  <MS_ID>  (1831) 
MS1899

>  <SMILES>  (1831) 
C[C@H](CCC(=O)O)[C@H]1CC[C@H]2[C@@H]3CC[C@@H]4C[C@@H](O[C@@H]5O[C@@H](CO)[C@H](O)[C@@H](O)[C@H]5O)CC[C@]4(C)[C@H]3C[C@H](O)[C@]12C

>  <Structure_dimension>  (1831) 
2D

$$$$
MS1900
     RDKit          2D

 30 33  0  0  0  0  0  0  0  0999 V2000
   -5.0361   -2.2421    0.0000 C   0  0  0  0  0  0  0  0  0  0  0  0
   -3.9151   -1.2454    0.0000 C   0  0  0  0  0  0  0  0  0  0  0  0
   -4.2177    0.2237    0.0000 C   0  0  0  0  0  0  0  0  0  0  0  0
   -5.6413    0.6963    0.0000 C   0  0  0  0  0  0  0  0  0  0  0  0
   -5.9439    2.1654    0.0000 C   0  0  0  0  0  0  0  0  0  0  0  0
   -4.8228    3.1621    0.0000 O   0  0  0  0  0  0  0  0  0  0  0  0
   -7.3675    2.6380    0.0000 O   0  0  0  0  0  0  0  0  0  0  0  0
   -2.4915   -1.7180    0.0000 C   0  0  0  0  0  0  0  0  0  0  0  0
   -2.0370   -3.1475    0.0000 C   0  0  0  0  0  0  0  0  0  0  0  0
   -0.5370   -3.1570    0.0000 C   0  0  0  0  0  0  0  0  0  0  0  0
   -0.0645   -1.7333    0.0000 C   0  0  0  0  0  0  0  0  0  0  0  0
    1.3097   -1.1319    0.0000 C   0  0  0  0  0  0  0  0  0  0  0  0
    2.5176   -2.0213    0.0000 C   0  0  0  0  0  0  0  0  0  0  0  0
    2.3514   -3.5120    0.0000 C   0  0  0  0  0  0  0  0  0  0  0  0
    3.5593   -4.4014    0.0000 S   0  0  0  0  0  0  0  0  0  0  0  0
    3.8918   -1.4198    0.0000 C   0  0  0  0  0  0  0  0  0  0  0  0
    4.0580    0.0709    0.0000 C   0  0  0  0  0  0  0  0  0  0  0  0
    5.4321    0.6723    0.0000 C   0  0  0  0  0  0  0  0  0  0  0  0
    5.5984    2.1631    0.0000 C   0  0  0  0  0  0  0  0  0  0  0  0
    6.9725    2.7645    0.0000 O   0  0  0  0  0  0  0  0  0  0  0  0
    4.3904    3.0524    0.0000 C   0  0  0  0  0  0  0  0  0  0  0  0
    3.0163    2.4510    0.0000 C   0  0  0  0  0  0  0  0  0  0  0  0
    2.8501    0.9603    0.0000 C   0  0  0  0  0  0  0  0  0  0  0  0
    1.6421    1.8496    0.0000 C   0  0  0  0  0  0  0  0  0  0  0  0
    1.4759    0.3588    0.0000 C   0  0  0  0  0  0  0  0  0  0  0  0
    0.2680    1.2482    0.0000 C   0  0  0  0  0  0  0  0  0  0  0  0
   -1.1062    0.6468    0.0000 C   0  0  0  0  0  0  0  0  0  0  0  0
   -2.3141    1.5361    0.0000 O   0  0  0  0  0  0  0  0  0  0  0  0
   -1.2724   -0.8440    0.0000 C   0  0  0  0  0  0  0  0  0  0  0  0
   -2.5667   -0.0858    0.0000 C   0  0  0  0  0  0  0  0  0  0  0  0
  2  1  1  6
  2  3  1  0
  3  4  1  0
  4  5  1  0
  5  6  2  0
  5  7  1  0
  2  8  1  0
  8  9  1  6
  9 10  1  0
 11 10  1  6
 11 12  1  0
 12 13  1  1
 13 14  1  6
 14 15  1  0
 13 16  1  0
 17 16  1  1
 17 18  1  0
 18 19  1  0
 19 20  1  1
 19 21  1  0
 21 22  1  0
 22 23  1  0
 23 24  1  6
 23 25  1  0
 25 26  1  6
 26 27  1  0
 27 28  1  6
 27 29  1  0
 29 30  1  6
 29  8  1  0
 29 11  1  0
 25 12  1  0
 23 17  1  0
M  END
>  <MS_ID>  (1832) 
MS1900

>  <SMILES>  (1832) 
C[C@H](CCC(=O)O)[C@H]1CC[C@H]2[C@@H]3[C@@H](CS)C[C@@H]4C[C@H](O)CC[C@]4(C)[C@H]3C[C@@H](O)[C@]12C

>  <Structure_dimension>  (1832) 
2D

$$$$
MS1901
     RDKit          2D

 34 37  0  0  0  0  0  0  0  0999 V2000
   -2.0431   -4.2971    0.0000 C   0  0  0  0  0  0  0  0  0  0  0  0
   -1.3315   -2.9767    0.0000 C   0  0  0  0  0  0  0  0  0  0  0  0
   -2.1193   -1.7002    0.0000 C   0  0  0  0  0  0  0  0  0  0  0  0
   -3.6187   -1.7442    0.0000 C   0  0  0  0  0  0  0  0  0  0  0  0
   -4.4064   -0.4677    0.0000 C   0  0  0  0  0  0  0  0  0  0  0  0
   -3.6948    0.8528    0.0000 O   0  0  0  0  0  0  0  0  0  0  0  0
   -5.9058   -0.5117    0.0000 N   0  0  0  0  0  0  0  0  0  0  0  0
   -6.6936    0.7648    0.0000 C   0  0  0  0  0  0  0  0  0  0  0  0
   -8.1929    0.7208    0.0000 C   0  0  0  0  0  0  0  0  0  0  0  0
   -8.9807    1.9973    0.0000 S   0  0  0  0  0  0  0  0  0  0  0  0
   -9.7684    3.2738    0.0000 C   0  0  0  0  0  0  0  0  0  0  0  0
   -7.7042    2.7851    0.0000 O   0  0  0  0  0  0  0  0  0  0  0  0
  -10.2572    1.2096    0.0000 O   0  0  0  0  0  0  0  0  0  0  0  0
    0.1678   -2.9327    0.0000 C   0  0  0  0  0  0  0  0  0  0  0  0
    1.0847   -4.1198    0.0000 C   0  0  0  0  0  0  0  0  0  0  0  0
    2.4971   -3.6147    0.0000 C   0  0  0  0  0  0  0  0  0  0  0  0
    2.4531   -2.1153    0.0000 C   0  0  0  0  0  0  0  0  0  0  0  0
    3.5379   -1.0794    0.0000 C   0  0  0  0  0  0  0  0  0  0  0  0
    4.9775   -1.5009    0.0000 C   0  0  0  0  0  0  0  0  0  0  0  0
    5.3322   -2.9583    0.0000 O   0  0  0  0  0  0  0  0  0  0  0  0
    6.0623   -0.4649    0.0000 C   0  0  0  0  0  0  0  0  0  0  0  0
    5.7075    0.9925    0.0000 C   0  0  0  0  0  0  0  0  0  0  0  0
    6.7923    2.0285    0.0000 C   0  0  0  0  0  0  0  0  0  0  0  0
    6.4376    3.4859    0.0000 C   0  0  0  0  0  0  0  0  0  0  0  0
    7.5224    4.5219    0.0000 O   0  0  0  0  0  0  0  0  0  0  0  0
    4.9980    3.9074    0.0000 C   0  0  0  0  0  0  0  0  0  0  0  0
    3.9132    2.8715    0.0000 C   0  0  0  0  0  0  0  0  0  0  0  0
    4.2680    1.4140    0.0000 C   0  0  0  0  0  0  0  0  0  0  0  0
    2.8284    1.8355    0.0000 C   0  0  0  0  0  0  0  0  0  0  0  0
    3.1831    0.3781    0.0000 C   0  0  0  0  0  0  0  0  0  0  0  0
    1.7436    0.7996    0.0000 C   0  0  0  0  0  0  0  0  0  0  0  0
    0.6588   -0.2364    0.0000 C   0  0  0  0  0  0  0  0  0  0  0  0
    1.0135   -1.6938    0.0000 C   0  0  0  0  0  0  0  0  0  0  0  0
   -0.4622   -1.4251    0.0000 C   0  0  0  0  0  0  0  0  0  0  0  0
  2  1  1  6
  2  3  1  0
  3  4  1  0
  4  5  1  0
  5  6  2  0
  5  7  1  0
  7  8  1  0
  8  9  1  0
  9 10  1  0
 10 11  1  0
 10 12  2  0
 10 13  2  0
  2 14  1  0
 14 15  1  6
 15 16  1  0
 17 16  1  6
 17 18  1  0
 18 19  1  1
 19 20  1  1
 19 21  1  0
 22 21  1  1
 22 23  1  0
 23 24  1  0
 24 25  1  1
 24 26  1  0
 26 27  1  0
 27 28  1  0
 28 29  1  6
 28 30  1  0
 30 31  1  6
 31 32  1  0
 32 33  1  0
 33 34  1  6
 33 14  1  0
 33 17  1  0
 30 18  1  0
 28 22  1  0
M  END
>  <MS_ID>  (1833) 
MS1901

>  <SMILES>  (1833) 
C[C@H](CCC(=O)NCCS(C)(=O)=O)[C@H]1CC[C@H]2[C@@H]3[C@H](O)C[C@@H]4C[C@H](O)CC[C@]4(C)[C@H]3CC[C@]12C

>  <Structure_dimension>  (1833) 
2D

$$$$
MS1902
     RDKit          2D

 44 48  0  0  0  0  0  0  0  0999 V2000
    2.0420   -4.7360    0.0000 C   0  0  0  0  0  0  0  0  0  0  0  0
    2.5597   -3.3282    0.0000 C   0  0  0  0  0  0  0  0  0  0  0  0
    1.5993   -2.1760    0.0000 C   0  0  0  0  0  0  0  0  0  0  0  0
    0.1212   -2.4315    0.0000 C   0  0  0  0  0  0  0  0  0  0  0  0
   -0.8391   -1.2792    0.0000 C   0  0  0  0  0  0  0  0  0  0  0  0
   -0.3214    0.1286    0.0000 O   0  0  0  0  0  0  0  0  0  0  0  0
   -2.3172   -1.5348    0.0000 O   0  0  0  0  0  0  0  0  0  0  0  0
   -3.2775   -0.3825    0.0000 C   0  0  0  0  0  0  0  0  0  0  0  0
   -4.7556   -0.6381    0.0000 O   0  0  0  0  0  0  0  0  0  0  0  0
   -5.7160    0.5142    0.0000 C   0  0  0  0  0  0  0  0  0  0  0  0
   -5.1982    1.9220    0.0000 O   0  0  0  0  0  0  0  0  0  0  0  0
   -7.1940    0.2586    0.0000 O   0  0  0  0  0  0  0  0  0  0  0  0
   -8.1544    1.4109    0.0000 C   0  0  0  0  0  0  0  0  0  0  0  0
   -9.6324    1.1553    0.0000 C   0  0  0  0  0  0  0  0  0  0  0  0
  -10.5928    2.3076    0.0000 O   0  0  0  0  0  0  0  0  0  0  0  0
  -12.0709    2.0520    0.0000 C   0  0  0  0  0  0  0  0  0  0  0  0
  -13.0312    3.2043    0.0000 O   0  0  0  0  0  0  0  0  0  0  0  0
  -12.5886    0.6442    0.0000 C   0  0  0  0  0  0  0  0  0  0  0  0
  -14.0667    0.3887    0.0000 O   0  0  0  0  0  0  0  0  0  0  0  0
  -11.6282   -0.5081    0.0000 C   0  0  0  0  0  0  0  0  0  0  0  0
  -12.1459   -1.9159    0.0000 O   0  0  0  0  0  0  0  0  0  0  0  0
  -10.1502   -0.2525    0.0000 C   0  0  0  0  0  0  0  0  0  0  0  0
   -9.1898   -1.4048    0.0000 O   0  0  0  0  0  0  0  0  0  0  0  0
    4.0377   -3.0727    0.0000 C   0  0  0  0  0  0  0  0  0  0  0  0
    5.1133   -4.1182    0.0000 C   0  0  0  0  0  0  0  0  0  0  0  0
    6.4400   -3.4184    0.0000 C   0  0  0  0  0  0  0  0  0  0  0  0
    6.1845   -1.9404    0.0000 C   0  0  0  0  0  0  0  0  0  0  0  0
    7.1119   -0.7614    0.0000 C   0  0  0  0  0  0  0  0  0  0  0  0
    8.5966   -0.9751    0.0000 C   0  0  0  0  0  0  0  0  0  0  0  0
    9.1539   -2.3678    0.0000 O   0  0  0  0  0  0  0  0  0  0  0  0
    9.5240    0.2038    0.0000 C   0  0  0  0  0  0  0  0  0  0  0  0
    8.9667    1.5964    0.0000 C   0  0  0  0  0  0  0  0  0  0  0  0
    9.8942    2.7754    0.0000 C   0  0  0  0  0  0  0  0  0  0  0  0
    9.3369    4.1680    0.0000 C   0  0  0  0  0  0  0  0  0  0  0  0
   10.2643    5.3470    0.0000 O   0  0  0  0  0  0  0  0  0  0  0  0
    7.8522    4.3817    0.0000 C   0  0  0  0  0  0  0  0  0  0  0  0
    6.9248    3.2028    0.0000 C   0  0  0  0  0  0  0  0  0  0  0  0
    7.4820    1.8101    0.0000 C   0  0  0  0  0  0  0  0  0  0  0  0
    5.9973    2.0238    0.0000 C   0  0  0  0  0  0  0  0  0  0  0  0
    6.5546    0.6312    0.0000 C   0  0  0  0  0  0  0  0  0  0  0  0
    5.0699    0.8449    0.0000 C   0  0  0  0  0  0  0  0  0  0  0  0
    4.1425   -0.3340    0.0000 C   0  0  0  0  0  0  0  0  0  0  0  0
    4.6998   -1.7267    0.0000 C   0  0  0  0  0  0  0  0  0  0  0  0
    3.2009   -1.6693    0.0000 C   0  0  0  0  0  0  0  0  0  0  0  0
  2  1  1  6
  2  3  1  0
  3  4  1  0
  4  5  1  0
  5  6  2  0
  5  7  1  0
  7  8  1  0
  8  9  1  0
  9 10  1  0
 10 11  2  0
 10 12  1  0
 12 13  1  0
 14 13  1  6
 14 15  1  0
 15 16  1  0
 16 17  1  6
 16 18  1  0
 18 19  1  1
 18 20  1  0
 20 21  1  6
 20 22  1  0
 22 23  1  1
  2 24  1  0
 24 25  1  6
 25 26  1  0
 27 26  1  6
 27 28  1  0
 28 29  1  1
 29 30  1  6
 29 31  1  0
 32 31  1  1
 32 33  1  0
 33 34  1  0
 34 35  1  1
 34 36  1  0
 36 37  1  0
 37 38  1  0
 38 39  1  6
 38 40  1  0
 40 41  1  6
 41 42  1  0
 42 43  1  0
 43 44  1  6
 22 14  1  0
 43 24  1  0
 43 27  1  0
 40 28  1  0
 38 32  1  0
M  END
>  <MS_ID>  (1834) 
MS1902

>  <SMILES>  (1834) 
C[C@H](CCC(=O)OCOC(=O)OC[C@H]1O[C@@H](O)[C@H](O)[C@@H](O)[C@@H]1O)[C@H]1CC[C@H]2[C@@H]3[C@@H](O)C[C@@H]4C[C@H](O)CC[C@]4(C)[C@H]3CC[C@]12C

>  <Structure_dimension>  (1834) 
2D

$$$$
MS1903
     RDKit          2D

 32 35  0  0  0  0  0  0  0  0999 V2000
   -3.2905   -3.6805    0.0000 C   0  0  0  0  0  0  0  0  0  0  0  0
   -2.3609   -2.5033    0.0000 C   0  0  0  0  0  0  0  0  0  0  0  0
   -2.9157   -1.1096    0.0000 C   0  0  0  0  0  0  0  0  0  0  0  0
   -4.4000   -0.8932    0.0000 C   0  0  0  0  0  0  0  0  0  0  0  0
   -4.9547    0.5004    0.0000 C   0  0  0  0  0  0  0  0  0  0  0  0
   -4.0251    1.6776    0.0000 O   0  0  0  0  0  0  0  0  0  0  0  0
   -6.4390    0.7168    0.0000 N   0  0  0  0  0  0  0  0  0  0  0  0
   -6.9938    2.1105    0.0000 S   0  0  0  0  0  0  0  0  0  0  0  0
   -8.3874    1.5557    0.0000 O   0  0  0  0  0  0  0  0  0  0  0  0
   -5.6001    2.6652    0.0000 O   0  0  0  0  0  0  0  0  0  0  0  0
   -7.5485    3.5041    0.0000 O   0  0  0  0  0  0  0  0  0  0  0  0
   -0.8766   -2.7197    0.0000 C   0  0  0  0  0  0  0  0  0  0  0  0
   -0.1792   -4.0477    0.0000 C   0  0  0  0  0  0  0  0  0  0  0  0
    1.2993   -3.7949    0.0000 C   0  0  0  0  0  0  0  0  0  0  0  0
    1.5157   -2.3106    0.0000 C   0  0  0  0  0  0  0  0  0  0  0  0
    2.7636   -1.4782    0.0000 C   0  0  0  0  0  0  0  0  0  0  0  0
    4.1084   -2.1427    0.0000 C   0  0  0  0  0  0  0  0  0  0  0  0
    5.3562   -1.3103    0.0000 C   0  0  0  0  0  0  0  0  0  0  0  0
    5.2593    0.1866    0.0000 C   0  0  0  0  0  0  0  0  0  0  0  0
    6.5071    1.0189    0.0000 C   0  0  0  0  0  0  0  0  0  0  0  0
    6.4102    2.5158    0.0000 C   0  0  0  0  0  0  0  0  0  0  0  0
    7.6581    3.3482    0.0000 O   0  0  0  0  0  0  0  0  0  0  0  0
    5.0654    3.1803    0.0000 C   0  0  0  0  0  0  0  0  0  0  0  0
    3.8176    2.3479    0.0000 C   0  0  0  0  0  0  0  0  0  0  0  0
    3.9145    0.8511    0.0000 C   0  0  0  0  0  0  0  0  0  0  0  0
    2.5697    1.5155    0.0000 C   0  0  0  0  0  0  0  0  0  0  0  0
    2.6666    0.0187    0.0000 C   0  0  0  0  0  0  0  0  0  0  0  0
    1.3218    0.6832    0.0000 C   0  0  0  0  0  0  0  0  0  0  0  0
    0.0740   -0.1492    0.0000 C   0  0  0  0  0  0  0  0  0  0  0  0
   -1.2708    0.5153    0.0000 O   0  0  0  0  0  0  0  0  0  0  0  0
    0.1709   -1.6461    0.0000 C   0  0  0  0  0  0  0  0  0  0  0  0
   -1.2360   -1.1258    0.0000 C   0  0  0  0  0  0  0  0  0  0  0  0
  2  1  1  6
  2  3  1  0
  3  4  1  0
  4  5  1  0
  5  6  2  0
  5  7  1  0
  7  8  1  0
  8  9  2  0
  8 10  2  0
  8 11  1  0
  2 12  1  0
 12 13  1  6
 13 14  1  0
 15 14  1  6
 15 16  1  0
 16 17  1  1
 17 18  1  0
 19 18  1  1
 19 20  1  0
 20 21  1  0
 21 22  1  1
 21 23  1  0
 23 24  1  0
 24 25  1  0
 25 26  1  6
 25 27  1  0
 27 28  1  6
 28 29  1  0
 29 30  1  6
 29 31  1  0
 31 32  1  6
 31 12  1  0
 31 15  1  0
 27 16  1  0
 25 19  1  0
M  END
>  <MS_ID>  (1835) 
MS1903

>  <SMILES>  (1835) 
C[C@H](CCC(=O)NS(=O)(=O)O)[C@H]1CC[C@H]2[C@@H]3CC[C@@H]4C[C@H](O)CC[C@]4(C)[C@H]3C[C@@H](O)[C@]12C

>  <Structure_dimension>  (1835) 
2D

$$$$
MS1904
     RDKit          2D

 30 33  0  0  0  0  0  0  0  0999 V2000
   -4.3770   -2.9491    0.0000 C   0  0  0  0  0  0  0  0  0  0  0  0
   -3.2892   -1.9163    0.0000 C   0  0  0  0  0  0  0  0  0  0  0  0
   -3.6398   -0.4579    0.0000 C   0  0  0  0  0  0  0  0  0  0  0  0
   -5.0782   -0.0322    0.0000 C   0  0  0  0  0  0  0  0  0  0  0  0
   -5.4287    1.4262    0.0000 C   0  0  0  0  0  0  0  0  0  0  0  0
   -6.8671    1.8518    0.0000 O   0  0  0  0  0  0  0  0  0  0  0  0
   -4.3410    2.4591    0.0000 S   0  0  0  0  0  0  0  0  0  0  0  0
   -5.3738    3.5468    0.0000 O   0  0  0  0  0  0  0  0  0  0  0  0
   -3.3081    1.3713    0.0000 O   0  0  0  0  0  0  0  0  0  0  0  0
   -3.2532    3.4919    0.0000 O   0  0  0  0  0  0  0  0  0  0  0  0
   -1.8509   -2.3419    0.0000 C   0  0  0  0  0  0  0  0  0  0  0  0
   -1.3498   -3.7557    0.0000 C   0  0  0  0  0  0  0  0  0  0  0  0
    0.1497   -3.7161    0.0000 C   0  0  0  0  0  0  0  0  0  0  0  0
    0.5753   -2.2777    0.0000 C   0  0  0  0  0  0  0  0  0  0  0  0
    1.9290   -1.6316    0.0000 C   0  0  0  0  0  0  0  0  0  0  0  0
    3.1654   -2.4808    0.0000 C   0  0  0  0  0  0  0  0  0  0  0  0
    4.5191   -1.8347    0.0000 C   0  0  0  0  0  0  0  0  0  0  0  0
    4.6364   -0.3393    0.0000 C   0  0  0  0  0  0  0  0  0  0  0  0
    5.9901    0.3069    0.0000 C   0  0  0  0  0  0  0  0  0  0  0  0
    6.1074    1.8023    0.0000 C   0  0  0  0  0  0  0  0  0  0  0  0
    7.4611    2.4484    0.0000 O   0  0  0  0  0  0  0  0  0  0  0  0
    4.8709    2.6515    0.0000 C   0  0  0  0  0  0  0  0  0  0  0  0
    3.5172    2.0054    0.0000 C   0  0  0  0  0  0  0  0  0  0  0  0
    3.4000    0.5100    0.0000 C   0  0  0  0  0  0  0  0  0  0  0  0
    2.1635    1.3593    0.0000 C   0  0  0  0  0  0  0  0  0  0  0  0
    2.0463   -0.1362    0.0000 C   0  0  0  0  0  0  0  0  0  0  0  0
    0.8098    0.7131    0.0000 C   0  0  0  0  0  0  0  0  0  0  0  0
   -0.5438    0.0670    0.0000 C   0  0  0  0  0  0  0  0  0  0  0  0
   -0.6611   -1.4284    0.0000 C   0  0  0  0  0  0  0  0  0  0  0  0
   -1.9795   -0.7131    0.0000 C   0  0  0  0  0  0  0  0  0  0  0  0
  2  1  1  6
  2  3  1  0
  3  4  1  0
  4  5  1  0
  5  6  2  0
  5  7  1  0
  7  8  2  0
  7  9  2  0
  7 10  1  0
  2 11  1  0
 11 12  1  6
 12 13  1  0
 14 13  1  6
 14 15  1  0
 15 16  1  1
 16 17  1  0
 18 17  1  1
 18 19  1  0
 19 20  1  0
 20 21  1  6
 20 22  1  0
 22 23  1  0
 23 24  1  0
 24 25  1  6
 24 26  1  0
 26 27  1  6
 27 28  1  0
 28 29  1  0
 29 30  1  6
 29 11  1  0
 29 14  1  0
 26 15  1  0
 24 18  1  0
M  END
>  <MS_ID>  (1836) 
MS1904

>  <SMILES>  (1836) 
C[C@H](CCC(=O)S(=O)(=O)O)[C@H]1CC[C@H]2[C@@H]3CC[C@@H]4C[C@@H](O)CC[C@]4(C)[C@H]3CC[C@]12C

>  <Structure_dimension>  (1836) 
2D

$$$$
MS1905
     RDKit          2D

 30 33  0  0  0  0  0  0  0  0999 V2000
   -4.7493   -2.7001    0.0000 C   0  0  0  0  0  0  0  0  0  0  0  0
   -3.6928   -1.6352    0.0000 C   0  0  0  0  0  0  0  0  0  0  0  0
   -4.0867   -0.1879    0.0000 C   0  0  0  0  0  0  0  0  0  0  0  0
   -5.5371    0.1946    0.0000 C   0  0  0  0  0  0  0  0  0  0  0  0
   -5.9311    1.6420    0.0000 C   0  0  0  0  0  0  0  0  0  0  0  0
   -4.8746    2.7068    0.0000 O   0  0  0  0  0  0  0  0  0  0  0  0
   -7.3815    2.0245    0.0000 C   0  0  0  0  0  0  0  0  0  0  0  0
   -7.7754    3.4718    0.0000 N   0  0  0  0  0  0  0  0  0  0  0  0
   -2.2424   -2.0177    0.0000 C   0  0  0  0  0  0  0  0  0  0  0  0
   -1.6993   -3.4160    0.0000 C   0  0  0  0  0  0  0  0  0  0  0  0
   -0.2017   -3.3316    0.0000 C   0  0  0  0  0  0  0  0  0  0  0  0
    0.1808   -1.8812    0.0000 C   0  0  0  0  0  0  0  0  0  0  0  0
    1.5146   -1.1949    0.0000 C   0  0  0  0  0  0  0  0  0  0  0  0
    2.7759   -2.0069    0.0000 C   0  0  0  0  0  0  0  0  0  0  0  0
    2.7033   -3.5051    0.0000 O   0  0  0  0  0  0  0  0  0  0  0  0
    4.1097   -1.3206    0.0000 C   0  0  0  0  0  0  0  0  0  0  0  0
    5.3709   -2.1326    0.0000 O   0  0  0  0  0  0  0  0  0  0  0  0
    4.1823    0.1776    0.0000 C   0  0  0  0  0  0  0  0  0  0  0  0
    5.5161    0.8639    0.0000 C   0  0  0  0  0  0  0  0  0  0  0  0
    5.5887    2.3621    0.0000 C   0  0  0  0  0  0  0  0  0  0  0  0
    6.9225    3.0484    0.0000 O   0  0  0  0  0  0  0  0  0  0  0  0
    4.3274    3.1741    0.0000 C   0  0  0  0  0  0  0  0  0  0  0  0
    2.9936    2.4878    0.0000 C   0  0  0  0  0  0  0  0  0  0  0  0
    2.9210    0.9896    0.0000 C   0  0  0  0  0  0  0  0  0  0  0  0
    1.6598    1.8016    0.0000 C   0  0  0  0  0  0  0  0  0  0  0  0
    1.5872    0.3033    0.0000 C   0  0  0  0  0  0  0  0  0  0  0  0
    0.3260    1.1153    0.0000 C   0  0  0  0  0  0  0  0  0  0  0  0
   -1.0078    0.4291    0.0000 C   0  0  0  0  0  0  0  0  0  0  0  0
   -1.0804   -1.0692    0.0000 C   0  0  0  0  0  0  0  0  0  0  0  0
   -2.4196   -0.3935    0.0000 C   0  0  0  0  0  0  0  0  0  0  0  0
  2  1  1  6
  2  3  1  0
  3  4  1  0
  4  5  1  0
  5  6  2  0
  5  7  1  0
  7  8  1  0
  2  9  1  0
  9 10  1  6
 10 11  1  0
 12 11  1  6
 12 13  1  0
 13 14  1  1
 14 15  1  1
 14 16  1  0
 16 17  1  1
 16 18  1  0
 18 19  1  1
 19 20  1  0
 20 21  1  1
 20 22  1  0
 22 23  1  0
 23 24  1  0
 24 25  1  6
 24 26  1  0
 26 27  1  6
 27 28  1  0
 28 29  1  0
 29 30  1  6
 29  9  1  0
 29 12  1  0
 26 13  1  0
 24 18  1  0
M  END
>  <MS_ID>  (1837) 
MS1905

>  <SMILES>  (1837) 
C[C@H](CCC(=O)CN)[C@H]1CC[C@H]2[C@@H]3[C@H](O)[C@H](O)[C@@H]4C[C@H](O)CC[C@]4(C)[C@H]3CC[C@]12C

>  <Structure_dimension>  (1837) 
2D

$$$$
MS1906
     RDKit          2D

 33 36  0  0  0  0  0  0  0  0999 V2000
   -6.7983   -1.8285    0.0000 C   0  0  0  0  0  0  0  0  0  0  0  0
   -5.5727   -0.9636    0.0000 C   0  0  0  0  0  0  0  0  0  0  0  0
   -5.7089    0.5302    0.0000 C   0  0  0  0  0  0  0  0  0  0  0  0
   -7.0707    1.1591    0.0000 C   0  0  0  0  0  0  0  0  0  0  0  0
   -7.2069    2.6529    0.0000 C   0  0  0  0  0  0  0  0  0  0  0  0
   -5.9813    3.5178    0.0000 O   0  0  0  0  0  0  0  0  0  0  0  0
   -8.5686    3.2819    0.0000 O   0  0  0  0  0  0  0  0  0  0  0  0
   -4.2110   -1.5926    0.0000 C   0  0  0  0  0  0  0  0  0  0  0  0
   -3.9194   -3.0640    0.0000 C   0  0  0  0  0  0  0  0  0  0  0  0
   -2.4299   -3.2413    0.0000 C   0  0  0  0  0  0  0  0  0  0  0  0
   -1.8009   -1.8796    0.0000 C   0  0  0  0  0  0  0  0  0  0  0  0
   -0.3681   -1.4358    0.0000 C   0  0  0  0  0  0  0  0  0  0  0  0
    0.7327   -2.4548    0.0000 C   0  0  0  0  0  0  0  0  0  0  0  0
    0.4006   -3.9175    0.0000 O   0  0  0  0  0  0  0  0  0  0  0  0
    2.1655   -2.0110    0.0000 C   0  0  0  0  0  0  0  0  0  0  0  0
    2.4976   -0.5482    0.0000 C   0  0  0  0  0  0  0  0  0  0  0  0
    3.9305   -0.1044    0.0000 C   0  0  0  0  0  0  0  0  0  0  0  0
    4.2625    1.3584    0.0000 C   0  0  0  0  0  0  0  0  0  0  0  0
    5.6954    1.8022    0.0000 C   0  0  0  0  0  0  0  0  0  0  0  0
    6.7961    0.7832    0.0000 O   0  0  0  0  0  0  0  0  0  0  0  0
    8.2290    1.2270    0.0000 C   0  0  0  0  0  0  0  0  0  0  0  0
    9.3298    0.2080    0.0000 C   0  0  0  0  0  0  0  0  0  0  0  0
    8.9977   -1.2548    0.0000 O   0  0  0  0  0  0  0  0  0  0  0  0
   10.7626    0.6518    0.0000 O   0  0  0  0  0  0  0  0  0  0  0  0
    3.1618    2.3773    0.0000 C   0  0  0  0  0  0  0  0  0  0  0  0
    1.7289    1.9336    0.0000 C   0  0  0  0  0  0  0  0  0  0  0  0
    1.3969    0.4708    0.0000 C   0  0  0  0  0  0  0  0  0  0  0  0
    0.2961    1.4898    0.0000 C   0  0  0  0  0  0  0  0  0  0  0  0
   -0.0360    0.0270    0.0000 C   0  0  0  0  0  0  0  0  0  0  0  0
   -1.1368    1.0460    0.0000 C   0  0  0  0  0  0  0  0  0  0  0  0
   -2.5696    0.6022    0.0000 C   0  0  0  0  0  0  0  0  0  0  0  0
   -2.9017   -0.8606    0.0000 C   0  0  0  0  0  0  0  0  0  0  0  0
   -4.1029    0.0378    0.0000 C   0  0  0  0  0  0  0  0  0  0  0  0
  2  1  1  6
  2  3  1  0
  3  4  1  0
  4  5  1  0
  5  6  2  0
  5  7  1  0
  2  8  1  0
  8  9  1  6
  9 10  1  0
 11 10  1  6
 11 12  1  0
 12 13  1  1
 13 14  1  6
 13 15  1  0
 16 15  1  1
 16 17  1  0
 17 18  1  0
 18 19  1  1
 19 20  1  0
 20 21  1  0
 21 22  1  0
 22 23  2  0
 22 24  1  0
 18 25  1  0
 25 26  1  0
 26 27  1  0
 27 28  1  6
 27 29  1  0
 29 30  1  6
 30 31  1  0
 31 32  1  0
 32 33  1  6
 32  8  1  0
 32 11  1  0
 29 12  1  0
 27 16  1  0
M  END
>  <MS_ID>  (1838) 
MS1906

>  <SMILES>  (1838) 
C[C@H](CCC(=O)O)[C@H]1CC[C@H]2[C@@H]3[C@@H](O)C[C@@H]4C[C@H](COCC(=O)O)CC[C@]4(C)[C@H]3CC[C@]12C

>  <Structure_dimension>  (1838) 
2D

$$$$
MS1907
     RDKit          2D

 38 43  0  0  0  0  0  0  0  0999 V2000
   -1.9000   -3.5704    0.0000 C   0  0  0  0  0  0  0  0  0  0  0  0
   -1.0028   -2.3683    0.0000 C   0  0  0  0  0  0  0  0  0  0  0  0
   -1.5953   -0.9903    0.0000 C   0  0  0  0  0  0  0  0  0  0  0  0
   -3.0849   -0.8144    0.0000 C   0  0  0  0  0  0  0  0  0  0  0  0
   -3.6774    0.5637    0.0000 C   0  0  0  0  0  0  0  0  0  0  0  0
   -2.7802    1.7658    0.0000 O   0  0  0  0  0  0  0  0  0  0  0  0
   -5.1670    0.7396    0.0000 N   0  0  0  0  0  0  0  0  0  0  0  0
   -5.9003    2.0482    0.0000 C   0  0  0  0  0  0  0  0  0  0  0  0
   -7.3714    1.7552    0.0000 C   0  0  0  0  0  0  0  0  0  0  0  0
   -8.5735    2.6524    0.0000 C   0  0  0  0  0  0  0  0  0  0  0  0
   -9.9515    2.0599    0.0000 C   0  0  0  0  0  0  0  0  0  0  0  0
  -10.1275    0.5703    0.0000 C   0  0  0  0  0  0  0  0  0  0  0  0
   -8.9254   -0.3269    0.0000 C   0  0  0  0  0  0  0  0  0  0  0  0
   -7.5473    0.2655    0.0000 C   0  0  0  0  0  0  0  0  0  0  0  0
   -6.1850   -0.3621    0.0000 C   0  0  0  0  0  0  0  0  0  0  0  0
   -5.8920   -1.8332    0.0000 O   0  0  0  0  0  0  0  0  0  0  0  0
    0.4868   -2.5443    0.0000 C   0  0  0  0  0  0  0  0  0  0  0  0
    1.2201   -3.8528    0.0000 C   0  0  0  0  0  0  0  0  0  0  0  0
    2.6912   -3.5598    0.0000 C   0  0  0  0  0  0  0  0  0  0  0  0
    2.8671   -2.0702    0.0000 C   0  0  0  0  0  0  0  0  0  0  0  0
    4.0919   -1.2042    0.0000 C   0  0  0  0  0  0  0  0  0  0  0  0
    5.4542   -1.8318    0.0000 C   0  0  0  0  0  0  0  0  0  0  0  0
    5.5919   -3.3255    0.0000 O   0  0  0  0  0  0  0  0  0  0  0  0
    6.6790   -0.9658    0.0000 C   0  0  0  0  0  0  0  0  0  0  0  0
    6.5414    0.5279    0.0000 C   0  0  0  0  0  0  0  0  0  0  0  0
    7.7661    1.3939    0.0000 C   0  0  0  0  0  0  0  0  0  0  0  0
    7.6285    2.8876    0.0000 C   0  0  0  0  0  0  0  0  0  0  0  0
    8.8532    3.7536    0.0000 O   0  0  0  0  0  0  0  0  0  0  0  0
    6.2661    3.5152    0.0000 C   0  0  0  0  0  0  0  0  0  0  0  0
    5.0414    2.6492    0.0000 C   0  0  0  0  0  0  0  0  0  0  0  0
    5.1790    1.1555    0.0000 C   0  0  0  0  0  0  0  0  0  0  0  0
    3.8166    1.7832    0.0000 C   0  0  0  0  0  0  0  0  0  0  0  0
    3.9542    0.2895    0.0000 C   0  0  0  0  0  0  0  0  0  0  0  0
    2.5919    0.9172    0.0000 C   0  0  0  0  0  0  0  0  0  0  0  0
    1.3671    0.0511    0.0000 C   0  0  0  0  0  0  0  0  0  0  0  0
    0.0048    0.6788    0.0000 O   0  0  0  0  0  0  0  0  0  0  0  0
    1.5048   -1.4425    0.0000 C   0  0  0  0  0  0  0  0  0  0  0  0
    0.0842   -0.9607    0.0000 C   0  0  0  0  0  0  0  0  0  0  0  0
  2  1  1  6
  2  3  1  0
  3  4  1  0
  4  5  1  0
  5  6  2  0
  5  7  1  0
  7  8  1  0
  8  9  1  0
  9 10  2  0
 10 11  1  0
 11 12  2  0
 12 13  1  0
 13 14  2  0
 14 15  1  0
 15 16  2  0
  2 17  1  0
 17 18  1  6
 18 19  1  0
 20 19  1  6
 20 21  1  0
 21 22  1  1
 22 23  1  1
 22 24  1  0
 25 24  1  1
 25 26  1  0
 26 27  1  0
 27 28  1  1
 27 29  1  0
 29 30  1  0
 30 31  1  0
 31 32  1  6
 31 33  1  0
 33 34  1  6
 34 35  1  0
 35 36  1  1
 35 37  1  0
 37 38  1  6
 15  7  1  0
 37 17  1  0
 14  9  1  0
 37 20  1  0
 33 21  1  0
 31 25  1  0
M  END
>  <MS_ID>  (1839) 
MS1907

>  <SMILES>  (1839) 
C[C@H](CCC(=O)N1Cc2ccccc2C1=O)[C@H]1CC[C@H]2[C@@H]3[C@H](O)C[C@@H]4C[C@H](O)CC[C@]4(C)[C@H]3C[C@H](O)[C@]12C

>  <Structure_dimension>  (1839) 
2D

$$$$
MS1908
     RDKit          2D

 40 44  0  0  0  0  0  0  0  0999 V2000
   -0.9056   -4.1083    0.0000 C   0  0  0  0  0  0  0  0  0  0  0  0
   -0.1666   -2.8030    0.0000 C   0  0  0  0  0  0  0  0  0  0  0  0
   -0.9276   -1.5103    0.0000 C   0  0  0  0  0  0  0  0  0  0  0  0
   -2.4275   -1.5230    0.0000 C   0  0  0  0  0  0  0  0  0  0  0  0
   -3.1885   -0.2303    0.0000 C   0  0  0  0  0  0  0  0  0  0  0  0
   -2.4495    1.0750    0.0000 O   0  0  0  0  0  0  0  0  0  0  0  0
   -4.6884   -0.2430    0.0000 O   0  0  0  0  0  0  0  0  0  0  0  0
   -5.4493    1.0497    0.0000 C   0  0  0  0  0  0  0  0  0  0  0  0
   -6.9493    1.0370    0.0000 C   0  0  0  0  0  0  0  0  0  0  0  0
   -7.7102    2.3297    0.0000 O   0  0  0  0  0  0  0  0  0  0  0  0
   -9.2102    2.3170    0.0000 C   0  0  0  0  0  0  0  0  0  0  0  0
   -9.9711    3.6096    0.0000 O   0  0  0  0  0  0  0  0  0  0  0  0
   -9.9492    1.0117    0.0000 C   0  0  0  0  0  0  0  0  0  0  0  0
  -11.4491    0.9990    0.0000 O   0  0  0  0  0  0  0  0  0  0  0  0
   -9.1882   -0.2810    0.0000 C   0  0  0  0  0  0  0  0  0  0  0  0
   -9.9272   -1.5863    0.0000 O   0  0  0  0  0  0  0  0  0  0  0  0
   -7.6883   -0.2683    0.0000 C   0  0  0  0  0  0  0  0  0  0  0  0
   -6.9274   -1.5610    0.0000 O   0  0  0  0  0  0  0  0  0  0  0  0
    1.3333   -2.7903    0.0000 C   0  0  0  0  0  0  0  0  0  0  0  0
    2.2252   -3.9963    0.0000 C   0  0  0  0  0  0  0  0  0  0  0  0
    3.6478   -3.5208    0.0000 C   0  0  0  0  0  0  0  0  0  0  0  0
    3.6352   -2.0208    0.0000 C   0  0  0  0  0  0  0  0  0  0  0  0
    4.7414   -1.0078    0.0000 C   0  0  0  0  0  0  0  0  0  0  0  0
    6.1718   -1.4592    0.0000 C   0  0  0  0  0  0  0  0  0  0  0  0
    6.4961   -2.9238    0.0000 O   0  0  0  0  0  0  0  0  0  0  0  0
    7.2780   -0.4462    0.0000 C   0  0  0  0  0  0  0  0  0  0  0  0
    8.7085   -0.8976    0.0000 O   0  0  0  0  0  0  0  0  0  0  0  0
    6.9538    1.0184    0.0000 C   0  0  0  0  0  0  0  0  0  0  0  0
    8.0600    2.0315    0.0000 C   0  0  0  0  0  0  0  0  0  0  0  0
    7.7357    3.4960    0.0000 C   0  0  0  0  0  0  0  0  0  0  0  0
    8.8419    4.5091    0.0000 O   0  0  0  0  0  0  0  0  0  0  0  0
    6.3053    3.9474    0.0000 C   0  0  0  0  0  0  0  0  0  0  0  0
    5.1991    2.9344    0.0000 C   0  0  0  0  0  0  0  0  0  0  0  0
    5.5233    1.4698    0.0000 C   0  0  0  0  0  0  0  0  0  0  0  0
    4.0929    1.9213    0.0000 C   0  0  0  0  0  0  0  0  0  0  0  0
    4.4171    0.4568    0.0000 C   0  0  0  0  0  0  0  0  0  0  0  0
    2.9867    0.9082    0.0000 C   0  0  0  0  0  0  0  0  0  0  0  0
    1.8805   -0.1048    0.0000 C   0  0  0  0  0  0  0  0  0  0  0  0
    2.2047   -1.5694    0.0000 C   0  0  0  0  0  0  0  0  0  0  0  0
    0.7349   -1.2699    0.0000 C   0  0  0  0  0  0  0  0  0  0  0  0
  2  1  1  6
  2  3  1  0
  3  4  1  0
  4  5  1  0
  5  6  2  0
  5  7  1  0
  7  8  1  0
  9  8  1  6
  9 10  1  0
 10 11  1  0
 11 12  1  6
 11 13  1  0
 13 14  1  1
 13 15  1  0
 15 16  1  6
 15 17  1  0
 17 18  1  1
  2 19  1  0
 19 20  1  6
 20 21  1  0
 22 21  1  6
 22 23  1  0
 23 24  1  1
 24 25  1  1
 24 26  1  0
 26 27  1  1
 26 28  1  0
 28 29  1  1
 29 30  1  0
 30 31  1  1
 30 32  1  0
 32 33  1  0
 33 34  1  0
 34 35  1  6
 34 36  1  0
 36 37  1  6
 37 38  1  0
 38 39  1  0
 39 40  1  6
 17  9  1  0
 39 19  1  0
 39 22  1  0
 36 23  1  0
 34 28  1  0
M  END
>  <MS_ID>  (1840) 
MS1908

>  <SMILES>  (1840) 
C[C@H](CCC(=O)OC[C@H]1O[C@@H](O)[C@H](O)[C@@H](O)[C@@H]1O)[C@H]1CC[C@H]2[C@@H]3[C@H](O)[C@H](O)[C@@H]4C[C@H](O)CC[C@]4(C)[C@H]3CC[C@]12C

>  <Structure_dimension>  (1840) 
2D

$$$$
MS1909
     RDKit          2D

 32 35  0  0  0  0  0  0  0  0999 V2000
  -10.8107    3.0070    0.0000 C   0  0  0  0  0  0  0  0  0  0  0  0
   -9.3127    2.9291    0.0000 O   0  0  0  0  0  0  0  0  0  0  0  0
   -8.6311    1.5929    0.0000 C   0  0  0  0  0  0  0  0  0  0  0  0
   -7.1332    1.5150    0.0000 C   0  0  0  0  0  0  0  0  0  0  0  0
   -6.4516    0.1788    0.0000 N   0  0  0  0  0  0  0  0  0  0  0  0
   -4.9536    0.1009    0.0000 C   0  0  0  0  0  0  0  0  0  0  0  0
   -4.1372    1.3592    0.0000 O   0  0  0  0  0  0  0  0  0  0  0  0
   -4.2721   -1.2353    0.0000 C   0  0  0  0  0  0  0  0  0  0  0  0
   -2.7741   -1.3132    0.0000 C   0  0  0  0  0  0  0  0  0  0  0  0
   -2.0926   -2.6494    0.0000 C   0  0  0  0  0  0  0  0  0  0  0  0
   -2.9090   -3.9078    0.0000 C   0  0  0  0  0  0  0  0  0  0  0  0
   -0.5946   -2.7273    0.0000 C   0  0  0  0  0  0  0  0  0  0  0  0
    0.2229   -3.9850    0.0000 C   0  0  0  0  0  0  0  0  0  0  0  0
    1.6716   -3.5962    0.0000 C   0  0  0  0  0  0  0  0  0  0  0  0
    1.7495   -2.0982    0.0000 C   0  0  0  0  0  0  0  0  0  0  0  0
    2.9148   -1.1537    0.0000 C   0  0  0  0  0  0  0  0  0  0  0  0
    4.3154   -1.6907    0.0000 C   0  0  0  0  0  0  0  0  0  0  0  0
    4.5507   -3.1721    0.0000 O   0  0  0  0  0  0  0  0  0  0  0  0
    5.4807   -0.7462    0.0000 C   0  0  0  0  0  0  0  0  0  0  0  0
    5.2455    0.7352    0.0000 C   0  0  0  0  0  0  0  0  0  0  0  0
    6.4108    1.6797    0.0000 C   0  0  0  0  0  0  0  0  0  0  0  0
    6.1755    3.1611    0.0000 C   0  0  0  0  0  0  0  0  0  0  0  0
    7.3408    4.1056    0.0000 O   0  0  0  0  0  0  0  0  0  0  0  0
    4.7749    3.6981    0.0000 C   0  0  0  0  0  0  0  0  0  0  0  0
    3.6096    2.7536    0.0000 C   0  0  0  0  0  0  0  0  0  0  0  0
    3.8449    1.2722    0.0000 C   0  0  0  0  0  0  0  0  0  0  0  0
    2.4443    1.8091    0.0000 C   0  0  0  0  0  0  0  0  0  0  0  0
    2.6795    0.3277    0.0000 C   0  0  0  0  0  0  0  0  0  0  0  0
    1.2789    0.8647    0.0000 C   0  0  0  0  0  0  0  0  0  0  0  0
    0.1136   -0.0798    0.0000 C   0  0  0  0  0  0  0  0  0  0  0  0
    0.3489   -1.5612    0.0000 C   0  0  0  0  0  0  0  0  0  0  0  0
   -1.1002   -1.1736    0.0000 C   0  0  0  0  0  0  0  0  0  0  0  0
  1  2  1  0
  2  3  1  0
  3  4  1  0
  4  5  1  0
  5  6  1  0
  6  7  2  0
  6  8  1  0
  8  9  1  0
  9 10  1  0
 10 11  1  6
 10 12  1  0
 12 13  1  6
 13 14  1  0
 15 14  1  6
 15 16  1  0
 16 17  1  1
 17 18  1  1
 17 19  1  0
 20 19  1  1
 20 21  1  0
 21 22  1  0
 22 23  2  0
 22 24  1  0
 24 25  1  0
 25 26  1  0
 26 27  1  6
 26 28  1  0
 28 29  1  6
 29 30  1  0
 30 31  1  0
 31 32  1  6
 31 12  1  0
 31 15  1  0
 28 16  1  0
 26 20  1  0
M  END
>  <MS_ID>  (1841) 
MS1909

>  <SMILES>  (1841) 
COCCNC(=O)CC[C@@H](C)[C@H]1CC[C@H]2[C@@H]3[C@H](O)C[C@@H]4CC(=O)CC[C@]4(C)[C@H]3CC[C@]12C

>  <Structure_dimension>  (1841) 
2D

$$$$
MS1910
     RDKit          2D

 32 35  0  0  0  0  0  0  0  0999 V2000
   -2.9090   -3.9078    0.0000 C   0  0  0  0  0  0  0  0  0  0  0  0
   -2.0926   -2.6494    0.0000 C   0  0  0  0  0  0  0  0  0  0  0  0
   -2.7741   -1.3132    0.0000 C   0  0  0  0  0  0  0  0  0  0  0  0
   -4.2721   -1.2353    0.0000 C   0  0  0  0  0  0  0  0  0  0  0  0
   -4.9536    0.1009    0.0000 C   0  0  0  0  0  0  0  0  0  0  0  0
   -4.1372    1.3592    0.0000 O   0  0  0  0  0  0  0  0  0  0  0  0
   -6.4516    0.1788    0.0000 N   0  0  0  0  0  0  0  0  0  0  0  0
   -7.1332    1.5150    0.0000 C   0  0  0  0  0  0  0  0  0  0  0  0
   -8.6311    1.5929    0.0000 C   0  0  0  0  0  0  0  0  0  0  0  0
   -9.3127    2.9291    0.0000 C   0  0  0  0  0  0  0  0  0  0  0  0
  -10.8107    3.0070    0.0000 N   0  0  0  0  0  0  0  0  0  0  0  0
   -0.5946   -2.7273    0.0000 C   0  0  0  0  0  0  0  0  0  0  0  0
    0.2229   -3.9850    0.0000 C   0  0  0  0  0  0  0  0  0  0  0  0
    1.6716   -3.5962    0.0000 C   0  0  0  0  0  0  0  0  0  0  0  0
    1.7495   -2.0982    0.0000 C   0  0  0  0  0  0  0  0  0  0  0  0
    2.9148   -1.1537    0.0000 C   0  0  0  0  0  0  0  0  0  0  0  0
    4.3154   -1.6907    0.0000 C   0  0  0  0  0  0  0  0  0  0  0  0
    4.5507   -3.1721    0.0000 O   0  0  0  0  0  0  0  0  0  0  0  0
    5.4807   -0.7462    0.0000 C   0  0  0  0  0  0  0  0  0  0  0  0
    5.2455    0.7352    0.0000 C   0  0  0  0  0  0  0  0  0  0  0  0
    6.4108    1.6797    0.0000 C   0  0  0  0  0  0  0  0  0  0  0  0
    6.1755    3.1611    0.0000 C   0  0  0  0  0  0  0  0  0  0  0  0
    7.3408    4.1056    0.0000 O   0  0  0  0  0  0  0  0  0  0  0  0
    4.7749    3.6981    0.0000 C   0  0  0  0  0  0  0  0  0  0  0  0
    3.6096    2.7536    0.0000 C   0  0  0  0  0  0  0  0  0  0  0  0
    3.8449    1.2722    0.0000 C   0  0  0  0  0  0  0  0  0  0  0  0
    2.4443    1.8091    0.0000 C   0  0  0  0  0  0  0  0  0  0  0  0
    2.6795    0.3277    0.0000 C   0  0  0  0  0  0  0  0  0  0  0  0
    1.2789    0.8647    0.0000 C   0  0  0  0  0  0  0  0  0  0  0  0
    0.1136   -0.0798    0.0000 C   0  0  0  0  0  0  0  0  0  0  0  0
    0.3489   -1.5612    0.0000 C   0  0  0  0  0  0  0  0  0  0  0  0
   -1.1002   -1.1736    0.0000 C   0  0  0  0  0  0  0  0  0  0  0  0
  2  1  1  6
  2  3  1  0
  3  4  1  0
  4  5  1  0
  5  6  2  0
  5  7  1  0
  7  8  1  0
  8  9  1  0
  9 10  1  0
 10 11  1  0
  2 12  1  0
 12 13  1  6
 13 14  1  0
 15 14  1  6
 15 16  1  0
 16 17  1  1
 17 18  1  6
 17 19  1  0
 20 19  1  1
 20 21  1  0
 21 22  1  0
 22 23  1  1
 22 24  1  0
 24 25  1  0
 25 26  1  0
 26 27  1  6
 26 28  1  0
 28 29  1  6
 29 30  1  0
 30 31  1  0
 31 32  1  6
 31 12  1  0
 31 15  1  0
 28 16  1  0
 26 20  1  0
M  END
>  <MS_ID>  (1842) 
MS1910

>  <SMILES>  (1842) 
C[C@H](CCC(=O)NCCCN)[C@H]1CC[C@H]2[C@@H]3[C@@H](O)C[C@@H]4C[C@H](O)CC[C@]4(C)[C@H]3CC[C@]12C

>  <Structure_dimension>  (1842) 
2D

$$$$
MS1911
     RDKit          2D

 34 37  0  0  0  0  0  0  0  0999 V2000
   -4.2082   -4.0222    0.0000 C   0  0  0  0  0  0  0  0  0  0  0  0
   -3.8187   -2.5737    0.0000 C   0  0  0  0  0  0  0  0  0  0  0  0
   -4.8784   -1.5120    0.0000 C   0  0  0  0  0  0  0  0  0  0  0  0
   -6.3276   -1.8989    0.0000 C   0  0  0  0  0  0  0  0  0  0  0  0
   -7.3873   -0.8373    0.0000 C   0  0  0  0  0  0  0  0  0  0  0  0
   -6.9977    0.6113    0.0000 O   0  0  0  0  0  0  0  0  0  0  0  0
   -8.8365   -1.2242    0.0000 O   0  0  0  0  0  0  0  0  0  0  0  0
   -2.3694   -2.1868    0.0000 C   0  0  0  0  0  0  0  0  0  0  0  0
   -1.2046   -3.1318    0.0000 C   0  0  0  0  0  0  0  0  0  0  0  0
    0.0542   -2.3160    0.0000 C   0  0  0  0  0  0  0  0  0  0  0  0
   -0.3327   -0.8668    0.0000 C   0  0  0  0  0  0  0  0  0  0  0  0
    0.4854    0.3905    0.0000 C   0  0  0  0  0  0  0  0  0  0  0  0
    1.9833    0.3106    0.0000 C   0  0  0  0  0  0  0  0  0  0  0  0
    2.6630   -1.0266    0.0000 C   0  0  0  0  0  0  0  0  0  0  0  0
    4.1609   -1.1064    0.0000 S   0  0  0  0  0  0  0  0  0  0  0  0
    4.8406   -2.4436    0.0000 C   0  0  0  0  0  0  0  0  0  0  0  0
    6.3385   -2.5235    0.0000 C   0  0  0  0  0  0  0  0  0  0  0  0
    7.0183   -3.8606    0.0000 C   0  0  0  0  0  0  0  0  0  0  0  0
    6.2002   -5.1179    0.0000 O   0  0  0  0  0  0  0  0  0  0  0  0
    8.5161   -3.9405    0.0000 O   0  0  0  0  0  0  0  0  0  0  0  0
    2.8014    1.5678    0.0000 C   0  0  0  0  0  0  0  0  0  0  0  0
    2.1216    2.9050    0.0000 C   0  0  0  0  0  0  0  0  0  0  0  0
    2.9398    4.1622    0.0000 C   0  0  0  0  0  0  0  0  0  0  0  0
    2.2600    5.4994    0.0000 C   0  0  0  0  0  0  0  0  0  0  0  0
    3.0781    6.7566    0.0000 O   0  0  0  0  0  0  0  0  0  0  0  0
    0.7621    5.5792    0.0000 C   0  0  0  0  0  0  0  0  0  0  0  0
   -0.0560    4.3220    0.0000 C   0  0  0  0  0  0  0  0  0  0  0  0
    0.6238    2.9849    0.0000 C   0  0  0  0  0  0  0  0  0  0  0  0
   -0.8741    3.0647    0.0000 C   0  0  0  0  0  0  0  0  0  0  0  0
   -0.1943    1.7276    0.0000 C   0  0  0  0  0  0  0  0  0  0  0  0
   -1.6922    1.8075    0.0000 C   0  0  0  0  0  0  0  0  0  0  0  0
   -2.5103    0.5502    0.0000 C   0  0  0  0  0  0  0  0  0  0  0  0
   -1.8306   -0.7869    0.0000 C   0  0  0  0  0  0  0  0  0  0  0  0
   -3.3286   -0.8640    0.0000 C   0  0  0  0  0  0  0  0  0  0  0  0
  2  1  1  6
  2  3  1  0
  3  4  1  0
  4  5  1  0
  5  6  2  0
  5  7  1  0
  2  8  1  0
  8  9  1  6
  9 10  1  0
 11 10  1  6
 11 12  1  0
 12 13  1  1
 13 14  1  6
 14 15  1  0
 15 16  1  0
 16 17  1  0
 17 18  1  0
 18 19  2  0
 18 20  1  0
 13 21  1  0
 22 21  1  1
 22 23  1  0
 23 24  1  0
 24 25  1  1
 24 26  1  0
 26 27  1  0
 27 28  1  0
 28 29  1  6
 28 30  1  0
 30 31  1  6
 31 32  1  0
 32 33  1  0
 33 34  1  6
 33  8  1  0
 33 11  1  0
 30 12  1  0
 28 22  1  0
M  END
>  <MS_ID>  (1843) 
MS1911

>  <SMILES>  (1843) 
C[C@H](CCC(=O)O)[C@H]1CC[C@H]2[C@@H]3[C@@H](CSCCC(=O)O)C[C@@H]4C[C@H](O)CC[C@]4(C)[C@H]3CC[C@]12C

>  <Structure_dimension>  (1843) 
2D

$$$$
MS1912
     RDKit          2D

 39 43  0  0  0  0  0  0  0  0999 V2000
   -0.7193   -4.8292    0.0000 C   0  0  0  0  0  0  0  0  0  0  0  0
   -0.1477   -3.4424    0.0000 C   0  0  0  0  0  0  0  0  0  0  0  0
   -1.0630   -2.2540    0.0000 C   0  0  0  0  0  0  0  0  0  0  0  0
   -2.5498   -2.4524    0.0000 C   0  0  0  0  0  0  0  0  0  0  0  0
   -3.4650   -1.2640    0.0000 C   0  0  0  0  0  0  0  0  0  0  0  0
   -2.8935    0.1228    0.0000 O   0  0  0  0  0  0  0  0  0  0  0  0
   -4.9519   -1.4625    0.0000 N   0  0  0  0  0  0  0  0  0  0  0  0
   -5.8671   -0.2741    0.0000 C   0  0  0  0  0  0  0  0  0  0  0  0
   -5.2956    1.1128    0.0000 O   0  0  0  0  0  0  0  0  0  0  0  0
   -6.2108    2.3012    0.0000 C   0  0  0  0  0  0  0  0  0  0  0  0
   -5.6393    3.6880    0.0000 C   0  0  0  0  0  0  0  0  0  0  0  0
   -4.1524    3.8864    0.0000 O   0  0  0  0  0  0  0  0  0  0  0  0
   -7.6976    2.1027    0.0000 C   0  0  0  0  0  0  0  0  0  0  0  0
   -8.6129    3.2911    0.0000 O   0  0  0  0  0  0  0  0  0  0  0  0
   -8.2692    0.7159    0.0000 C   0  0  0  0  0  0  0  0  0  0  0  0
   -9.7560    0.5175    0.0000 O   0  0  0  0  0  0  0  0  0  0  0  0
   -7.3539   -0.4725    0.0000 C   0  0  0  0  0  0  0  0  0  0  0  0
   -7.9255   -1.8593    0.0000 O   0  0  0  0  0  0  0  0  0  0  0  0
    1.3391   -3.2440    0.0000 C   0  0  0  0  0  0  0  0  0  0  0  0
    2.3736   -4.3302    0.0000 C   0  0  0  0  0  0  0  0  0  0  0  0
    3.7263   -3.6820    0.0000 C   0  0  0  0  0  0  0  0  0  0  0  0
    3.5279   -2.1952    0.0000 C   0  0  0  0  0  0  0  0  0  0  0  0
    4.5000   -1.0529    0.0000 C   0  0  0  0  0  0  0  0  0  0  0  0
    5.9754   -1.3236    0.0000 C   0  0  0  0  0  0  0  0  0  0  0  0
    6.4786   -2.7367    0.0000 O   0  0  0  0  0  0  0  0  0  0  0  0
    6.9475   -0.1813    0.0000 C   0  0  0  0  0  0  0  0  0  0  0  0
    6.4443    1.2318    0.0000 C   0  0  0  0  0  0  0  0  0  0  0  0
    7.4164    2.3742    0.0000 C   0  0  0  0  0  0  0  0  0  0  0  0
    6.9132    3.7872    0.0000 C   0  0  0  0  0  0  0  0  0  0  0  0
    7.8853    4.9296    0.0000 O   0  0  0  0  0  0  0  0  0  0  0  0
    5.4378    4.0580    0.0000 C   0  0  0  0  0  0  0  0  0  0  0  0
    4.4657    2.9156    0.0000 C   0  0  0  0  0  0  0  0  0  0  0  0
    4.9689    1.5025    0.0000 C   0  0  0  0  0  0  0  0  0  0  0  0
    3.4936    1.7733    0.0000 C   0  0  0  0  0  0  0  0  0  0  0  0
    3.9968    0.3602    0.0000 C   0  0  0  0  0  0  0  0  0  0  0  0
    2.5214    0.6309    0.0000 C   0  0  0  0  0  0  0  0  0  0  0  0
    1.5493   -0.5114    0.0000 C   0  0  0  0  0  0  0  0  0  0  0  0
    2.0525   -1.9245    0.0000 C   0  0  0  0  0  0  0  0  0  0  0  0
    0.5569   -1.8095    0.0000 C   0  0  0  0  0  0  0  0  0  0  0  0
  2  1  1  6
  2  3  1  0
  3  4  1  0
  4  5  1  0
  5  6  2  0
  5  7  1  0
  8  7  1  1
  8  9  1  0
  9 10  1  0
 10 11  1  1
 11 12  1  0
 10 13  1  0
 13 14  1  6
 13 15  1  0
 15 16  1  1
 15 17  1  0
 17 18  1  6
  2 19  1  0
 19 20  1  6
 20 21  1  0
 22 21  1  6
 22 23  1  0
 23 24  1  1
 24 25  1  1
 24 26  1  0
 27 26  1  1
 27 28  1  0
 28 29  1  0
 29 30  1  1
 29 31  1  0
 31 32  1  0
 32 33  1  0
 33 34  1  6
 33 35  1  0
 35 36  1  6
 36 37  1  0
 37 38  1  0
 38 39  1  6
 17  8  1  0
 38 19  1  0
 38 22  1  0
 35 23  1  0
 33 27  1  0
M  END
>  <MS_ID>  (1844) 
MS1912

>  <SMILES>  (1844) 
C[C@H](CCC(=O)N[C@@H]1O[C@H](CO)[C@@H](O)[C@H](O)[C@H]1O)[C@H]1CC[C@H]2[C@@H]3[C@H](O)C[C@@H]4C[C@H](O)CC[C@]4(C)[C@H]3CC[C@]12C

>  <Structure_dimension>  (1844) 
2D

$$$$
MS1913
     RDKit          2D

 31 34  0  0  0  0  0  0  0  0999 V2000
   -3.6377   -3.4900    0.0000 C   0  0  0  0  0  0  0  0  0  0  0  0
   -2.6684   -2.3453    0.0000 C   0  0  0  0  0  0  0  0  0  0  0  0
   -3.1751   -0.9335    0.0000 C   0  0  0  0  0  0  0  0  0  0  0  0
   -4.6511   -0.6664    0.0000 C   0  0  0  0  0  0  0  0  0  0  0  0
   -5.1578    0.7454    0.0000 C   0  0  0  0  0  0  0  0  0  0  0  0
   -4.1885    1.8902    0.0000 O   0  0  0  0  0  0  0  0  0  0  0  0
   -6.6339    1.0125    0.0000 C   0  0  0  0  0  0  0  0  0  0  0  0
   -7.1406    2.4243    0.0000 C   0  0  0  0  0  0  0  0  0  0  0  0
   -6.1713    3.5691    0.0000 O   0  0  0  0  0  0  0  0  0  0  0  0
   -8.6166    2.6914    0.0000 O   0  0  0  0  0  0  0  0  0  0  0  0
   -1.1923   -2.6123    0.0000 C   0  0  0  0  0  0  0  0  0  0  0  0
   -0.5408   -3.9635    0.0000 C   0  0  0  0  0  0  0  0  0  0  0  0
    0.9455   -3.7613    0.0000 C   0  0  0  0  0  0  0  0  0  0  0  0
    1.2126   -2.2853    0.0000 C   0  0  0  0  0  0  0  0  0  0  0  0
    2.4882   -1.4961    0.0000 C   0  0  0  0  0  0  0  0  0  0  0  0
    3.8095   -2.2063    0.0000 C   0  0  0  0  0  0  0  0  0  0  0  0
    5.0851   -1.4171    0.0000 C   0  0  0  0  0  0  0  0  0  0  0  0
    5.0394    0.0822    0.0000 C   0  0  0  0  0  0  0  0  0  0  0  0
    6.3151    0.8714    0.0000 C   0  0  0  0  0  0  0  0  0  0  0  0
    6.2694    2.3707    0.0000 C   0  0  0  0  0  0  0  0  0  0  0  0
    7.5450    3.1599    0.0000 N   0  0  0  0  0  0  0  0  0  0  0  0
    4.9481    3.0808    0.0000 C   0  0  0  0  0  0  0  0  0  0  0  0
    3.6725    2.2917    0.0000 C   0  0  0  0  0  0  0  0  0  0  0  0
    3.7182    0.7924    0.0000 C   0  0  0  0  0  0  0  0  0  0  0  0
    2.3969    1.5025    0.0000 C   0  0  0  0  0  0  0  0  0  0  0  0
    2.4426    0.0032    0.0000 C   0  0  0  0  0  0  0  0  0  0  0  0
    1.1213    0.7133    0.0000 C   0  0  0  0  0  0  0  0  0  0  0  0
   -0.1543   -0.0759    0.0000 C   0  0  0  0  0  0  0  0  0  0  0  0
   -1.4756    0.6342    0.0000 O   0  0  0  0  0  0  0  0  0  0  0  0
   -0.1087   -1.5752    0.0000 C   0  0  0  0  0  0  0  0  0  0  0  0
   -1.4969   -1.0071    0.0000 C   0  0  0  0  0  0  0  0  0  0  0  0
  2  1  1  6
  2  3  1  0
  3  4  1  0
  4  5  1  0
  5  6  2  0
  5  7  1  0
  7  8  1  0
  8  9  2  0
  8 10  1  0
  2 11  1  0
 11 12  1  6
 12 13  1  0
 14 13  1  6
 14 15  1  0
 15 16  1  1
 16 17  1  0
 18 17  1  1
 18 19  1  0
 19 20  1  0
 20 21  1  1
 20 22  1  0
 22 23  1  0
 23 24  1  0
 24 25  1  6
 24 26  1  0
 26 27  1  6
 27 28  1  0
 28 29  1  1
 28 30  1  0
 30 31  1  6
 30 11  1  0
 30 14  1  0
 26 15  1  0
 24 18  1  0
M  END
>  <MS_ID>  (1845) 
MS1913

>  <SMILES>  (1845) 
C[C@H](CCC(=O)CC(=O)O)[C@H]1CC[C@H]2[C@@H]3CC[C@@H]4C[C@H](N)CC[C@]4(C)[C@H]3C[C@H](O)[C@]12C

>  <Structure_dimension>  (1845) 
2D

$$$$
MS1914
     RDKit          2D

 32 35  0  0  0  0  0  0  0  0999 V2000
   -2.2590   -3.8656    0.0000 C   0  0  0  0  0  0  0  0  0  0  0  0
   -1.4462   -2.6050    0.0000 C   0  0  0  0  0  0  0  0  0  0  0  0
   -2.1316   -1.2707    0.0000 C   0  0  0  0  0  0  0  0  0  0  0  0
   -3.6297   -1.1971    0.0000 C   0  0  0  0  0  0  0  0  0  0  0  0
   -4.3151    0.1372    0.0000 C   0  0  0  0  0  0  0  0  0  0  0  0
   -3.5023    1.3978    0.0000 O   0  0  0  0  0  0  0  0  0  0  0  0
   -5.8133    0.2108    0.0000 C   0  0  0  0  0  0  0  0  0  0  0  0
   -6.4987    1.5450    0.0000 O   0  0  0  0  0  0  0  0  0  0  0  0
   -7.9968    1.6186    0.0000 S   0  0  0  0  0  0  0  0  0  0  0  0
   -8.0704    0.1205    0.0000 O   0  0  0  0  0  0  0  0  0  0  0  0
   -7.9232    3.1168    0.0000 O   0  0  0  0  0  0  0  0  0  0  0  0
   -9.4950    1.6922    0.0000 O   0  0  0  0  0  0  0  0  0  0  0  0
    0.0520   -2.6786    0.0000 C   0  0  0  0  0  0  0  0  0  0  0  0
    0.8731   -3.9339    0.0000 C   0  0  0  0  0  0  0  0  0  0  0  0
    2.3207   -3.5409    0.0000 C   0  0  0  0  0  0  0  0  0  0  0  0
    2.3943   -2.0427    0.0000 C   0  0  0  0  0  0  0  0  0  0  0  0
    3.5569   -1.0949    0.0000 C   0  0  0  0  0  0  0  0  0  0  0  0
    4.9590   -1.6279    0.0000 C   0  0  0  0  0  0  0  0  0  0  0  0
    6.1216   -0.6801    0.0000 C   0  0  0  0  0  0  0  0  0  0  0  0
    5.8821    0.8006    0.0000 C   0  0  0  0  0  0  0  0  0  0  0  0
    7.0448    1.7484    0.0000 C   0  0  0  0  0  0  0  0  0  0  0  0
    6.8053    3.2292    0.0000 C   0  0  0  0  0  0  0  0  0  0  0  0
    5.4031    3.7622    0.0000 C   0  0  0  0  0  0  0  0  0  0  0  0
    4.2405    2.8144    0.0000 C   0  0  0  0  0  0  0  0  0  0  0  0
    4.4800    1.3336    0.0000 C   0  0  0  0  0  0  0  0  0  0  0  0
    3.0779    1.8666    0.0000 C   0  0  0  0  0  0  0  0  0  0  0  0
    3.3174    0.3858    0.0000 C   0  0  0  0  0  0  0  0  0  0  0  0
    1.9153    0.9188    0.0000 C   0  0  0  0  0  0  0  0  0  0  0  0
    0.7527   -0.0290    0.0000 C   0  0  0  0  0  0  0  0  0  0  0  0
   -0.6495    0.5040    0.0000 O   0  0  0  0  0  0  0  0  0  0  0  0
    0.9922   -1.5098    0.0000 C   0  0  0  0  0  0  0  0  0  0  0  0
   -0.4580   -1.1263    0.0000 C   0  0  0  0  0  0  0  0  0  0  0  0
  2  1  1  6
  2  3  1  0
  3  4  1  0
  4  5  1  0
  5  6  2  0
  5  7  1  0
  7  8  1  0
  8  9  1  0
  9 10  2  0
  9 11  2  0
  9 12  1  0
  2 13  1  0
 13 14  1  6
 14 15  1  0
 16 15  1  6
 16 17  1  0
 17 18  1  1
 18 19  1  0
 20 19  1  1
 20 21  1  0
 21 22  1  0
 22 23  1  0
 23 24  1  0
 24 25  1  0
 25 26  1  6
 25 27  1  0
 27 28  1  6
 28 29  1  0
 29 30  1  1
 29 31  1  0
 31 32  1  6
 31 13  1  0
 31 16  1  0
 27 17  1  0
 25 20  1  0
M  END
>  <MS_ID>  (1846) 
MS1914

>  <SMILES>  (1846) 
C[C@H](CCC(=O)COS(=O)(=O)O)[C@H]1CC[C@H]2[C@@H]3CC[C@@H]4CCCC[C@]4(C)[C@H]3C[C@H](O)[C@]12C

>  <Structure_dimension>  (1846) 
2D

$$$$
MS1915
     RDKit          2D

 32 35  0  0  0  0  0  0  0  0999 V2000
   -3.6401   -3.7548    0.0000 C   0  0  0  0  0  0  0  0  0  0  0  0
   -2.6957   -2.5895    0.0000 C   0  0  0  0  0  0  0  0  0  0  0  0
   -3.2327   -1.1889    0.0000 C   0  0  0  0  0  0  0  0  0  0  0  0
   -4.7142   -0.9537    0.0000 C   0  0  0  0  0  0  0  0  0  0  0  0
   -5.2512    0.4469    0.0000 C   0  0  0  0  0  0  0  0  0  0  0  0
   -6.7327    0.6821    0.0000 O   0  0  0  0  0  0  0  0  0  0  0  0
   -4.3068    1.6122    0.0000 O   0  0  0  0  0  0  0  0  0  0  0  0
   -4.8438    3.0128    0.0000 S   0  0  0  0  0  0  0  0  0  0  0  0
   -6.2444    2.4758    0.0000 O   0  0  0  0  0  0  0  0  0  0  0  0
   -3.4433    3.5499    0.0000 O   0  0  0  0  0  0  0  0  0  0  0  0
   -5.3809    4.4134    0.0000 O   0  0  0  0  0  0  0  0  0  0  0  0
   -1.2142   -2.8246    0.0000 C   0  0  0  0  0  0  0  0  0  0  0  0
   -0.5337   -4.1614    0.0000 C   0  0  0  0  0  0  0  0  0  0  0  0
    0.9479   -3.9273    0.0000 C   0  0  0  0  0  0  0  0  0  0  0  0
    1.1831   -2.4459    0.0000 C   0  0  0  0  0  0  0  0  0  0  0  0
    2.4414   -1.6294    0.0000 C   0  0  0  0  0  0  0  0  0  0  0  0
    3.7776   -2.3108    0.0000 C   0  0  0  0  0  0  0  0  0  0  0  0
    5.0359   -1.4943    0.0000 C   0  0  0  0  0  0  0  0  0  0  0  0
    4.9580    0.0036    0.0000 C   0  0  0  0  0  0  0  0  0  0  0  0
    6.2163    0.8201    0.0000 C   0  0  0  0  0  0  0  0  0  0  0  0
    6.1383    2.3181    0.0000 C   0  0  0  0  0  0  0  0  0  0  0  0
    7.3966    3.1346    0.0000 O   0  0  0  0  0  0  0  0  0  0  0  0
    4.8021    2.9996    0.0000 C   0  0  0  0  0  0  0  0  0  0  0  0
    3.5438    2.1831    0.0000 C   0  0  0  0  0  0  0  0  0  0  0  0
    3.6217    0.6851    0.0000 C   0  0  0  0  0  0  0  0  0  0  0  0
    2.2855    1.3666    0.0000 C   0  0  0  0  0  0  0  0  0  0  0  0
    2.3634   -0.1314    0.0000 C   0  0  0  0  0  0  0  0  0  0  0  0
    1.0272    0.5501    0.0000 C   0  0  0  0  0  0  0  0  0  0  0  0
   -0.2311   -0.2664    0.0000 C   0  0  0  0  0  0  0  0  0  0  0  0
   -1.5674    0.4151    0.0000 O   0  0  0  0  0  0  0  0  0  0  0  0
   -0.1532   -1.7644    0.0000 C   0  0  0  0  0  0  0  0  0  0  0  0
   -1.5534   -1.2263    0.0000 C   0  0  0  0  0  0  0  0  0  0  0  0
  2  1  1  6
  2  3  1  0
  3  4  1  0
  4  5  1  0
  5  6  2  0
  5  7  1  0
  7  8  1  0
  8  9  2  0
  8 10  2  0
  8 11  1  0
  2 12  1  0
 12 13  1  6
 13 14  1  0
 15 14  1  6
 15 16  1  0
 16 17  1  1
 17 18  1  0
 19 18  1  1
 19 20  1  0
 20 21  1  0
 21 22  2  0
 21 23  1  0
 23 24  1  0
 24 25  1  0
 25 26  1  6
 25 27  1  0
 27 28  1  6
 28 29  1  0
 29 30  1  1
 29 31  1  0
 31 32  1  6
 31 12  1  0
 31 15  1  0
 27 16  1  0
 25 19  1  0
M  END
>  <MS_ID>  (1847) 
MS1915

>  <SMILES>  (1847) 
C[C@H](CCC(=O)OS(=O)(=O)O)[C@H]1CC[C@H]2[C@@H]3CC[C@@H]4CC(=O)CC[C@]4(C)[C@H]3C[C@H](O)[C@]12C

>  <Structure_dimension>  (1847) 
2D

$$$$
MS1916
     RDKit          2D

 27 30  0  0  0  0  0  0  0  0999 V2000
   -4.9159   -1.9720    0.0000 C   0  0  0  0  0  0  0  0  0  0  0  0
   -3.7522   -1.0254    0.0000 C   0  0  0  0  0  0  0  0  0  0  0  0
   -3.9901    0.4556    0.0000 C   0  0  0  0  0  0  0  0  0  0  0  0
   -5.3916    0.9901    0.0000 C   0  0  0  0  0  0  0  0  0  0  0  0
   -5.6295    2.4711    0.0000 C   0  0  0  0  0  0  0  0  0  0  0  0
   -7.0310    3.0056    0.0000 O   0  0  0  0  0  0  0  0  0  0  0  0
   -2.3507   -1.5599    0.0000 C   0  0  0  0  0  0  0  0  0  0  0  0
   -1.9593   -3.0080    0.0000 C   0  0  0  0  0  0  0  0  0  0  0  0
   -0.4612   -3.0832    0.0000 C   0  0  0  0  0  0  0  0  0  0  0  0
    0.0733   -1.6817    0.0000 C   0  0  0  0  0  0  0  0  0  0  0  0
    1.4725   -1.1411    0.0000 C   0  0  0  0  0  0  0  0  0  0  0  0
    2.6403   -2.0825    0.0000 C   0  0  0  0  0  0  0  0  0  0  0  0
    2.4089   -3.5646    0.0000 O   0  0  0  0  0  0  0  0  0  0  0  0
    4.0395   -1.5419    0.0000 C   0  0  0  0  0  0  0  0  0  0  0  0
    4.2709   -0.0599    0.0000 C   0  0  0  0  0  0  0  0  0  0  0  0
    5.6701    0.4807    0.0000 C   0  0  0  0  0  0  0  0  0  0  0  0
    5.9015    1.9628    0.0000 C   0  0  0  0  0  0  0  0  0  0  0  0
    4.7338    2.9042    0.0000 C   0  0  0  0  0  0  0  0  0  0  0  0
    3.3346    2.3636    0.0000 C   0  0  0  0  0  0  0  0  0  0  0  0
    3.1031    0.8816    0.0000 C   0  0  0  0  0  0  0  0  0  0  0  0
    1.9354    1.8230    0.0000 C   0  0  0  0  0  0  0  0  0  0  0  0
    1.7039    0.3410    0.0000 C   0  0  0  0  0  0  0  0  0  0  0  0
    0.5362    1.2824    0.0000 C   0  0  0  0  0  0  0  0  0  0  0  0
   -0.8630    0.7418    0.0000 C   0  0  0  0  0  0  0  0  0  0  0  0
   -2.0308    1.6832    0.0000 O   0  0  0  0  0  0  0  0  0  0  0  0
   -1.0944   -0.7402    0.0000 C   0  0  0  0  0  0  0  0  0  0  0  0
   -2.3542    0.0740    0.0000 C   0  0  0  0  0  0  0  0  0  0  0  0
  2  1  1  6
  2  3  1  0
  3  4  1  0
  4  5  1  0
  5  6  2  0
  2  7  1  0
  7  8  1  6
  8  9  1  0
 10  9  1  6
 10 11  1  0
 11 12  1  1
 12 13  1  1
 12 14  1  0
 15 14  1  1
 15 16  1  0
 16 17  1  0
 17 18  1  0
 18 19  1  0
 19 20  1  0
 20 21  1  6
 20 22  1  0
 22 23  1  6
 23 24  1  0
 24 25  1  1
 24 26  1  0
 26 27  1  6
 26  7  1  0
 26 10  1  0
 22 11  1  0
 20 15  1  0
M  END
>  <MS_ID>  (1848) 
MS1916

>  <SMILES>  (1848) 
C[C@H](CCC=O)[C@H]1CC[C@H]2[C@@H]3[C@H](O)C[C@@H]4CCCC[C@]4(C)[C@H]3C[C@H](O)[C@]12C

>  <Structure_dimension>  (1848) 
2D

$$$$
MS1917
     RDKit          2D

 31 34  0  0  0  0  0  0  0  0999 V2000
   -2.8973   -3.7146    0.0000 C   0  0  0  0  0  0  0  0  0  0  0  0
   -2.0775   -2.4584    0.0000 C   0  0  0  0  0  0  0  0  0  0  0  0
   -2.7556   -1.1204    0.0000 C   0  0  0  0  0  0  0  0  0  0  0  0
   -4.2533   -1.0386    0.0000 C   0  0  0  0  0  0  0  0  0  0  0  0
   -4.9313    0.2995    0.0000 C   0  0  0  0  0  0  0  0  0  0  0  0
   -4.1116    1.5557    0.0000 O   0  0  0  0  0  0  0  0  0  0  0  0
   -6.4291    0.3813    0.0000 N   0  0  0  0  0  0  0  0  0  0  0  0
   -7.1071    1.7193    0.0000 S   0  0  0  0  0  0  0  0  0  0  0  0
   -8.4452    1.0413    0.0000 O   0  0  0  0  0  0  0  0  0  0  0  0
   -5.7691    2.3973    0.0000 O   0  0  0  0  0  0  0  0  0  0  0  0
   -7.7852    3.0573    0.0000 O   0  0  0  0  0  0  0  0  0  0  0  0
   -0.5798   -2.5402    0.0000 C   0  0  0  0  0  0  0  0  0  0  0  0
    0.2344   -3.8000    0.0000 C   0  0  0  0  0  0  0  0  0  0  0  0
    1.6841   -3.4150    0.0000 C   0  0  0  0  0  0  0  0  0  0  0  0
    1.7660   -1.9173    0.0000 C   0  0  0  0  0  0  0  0  0  0  0  0
    2.9338   -0.9759    0.0000 C   0  0  0  0  0  0  0  0  0  0  0  0
    4.3330   -1.5165    0.0000 C   0  0  0  0  0  0  0  0  0  0  0  0
    4.5643   -2.9986    0.0000 O   0  0  0  0  0  0  0  0  0  0  0  0
    5.5008   -0.5751    0.0000 C   0  0  0  0  0  0  0  0  0  0  0  0
    5.2694    0.9069    0.0000 C   0  0  0  0  0  0  0  0  0  0  0  0
    6.4372    1.8483    0.0000 C   0  0  0  0  0  0  0  0  0  0  0  0
    6.2058    3.3304    0.0000 C   0  0  0  0  0  0  0  0  0  0  0  0
    4.8067    3.8710    0.0000 C   0  0  0  0  0  0  0  0  0  0  0  0
    3.6388    2.9296    0.0000 C   0  0  0  0  0  0  0  0  0  0  0  0
    3.8702    1.4476    0.0000 C   0  0  0  0  0  0  0  0  0  0  0  0
    2.4710    1.9882    0.0000 C   0  0  0  0  0  0  0  0  0  0  0  0
    2.7024    0.5062    0.0000 C   0  0  0  0  0  0  0  0  0  0  0  0
    1.3032    1.0468    0.0000 C   0  0  0  0  0  0  0  0  0  0  0  0
    0.1354    0.1055    0.0000 C   0  0  0  0  0  0  0  0  0  0  0  0
    0.3668   -1.3766    0.0000 C   0  0  0  0  0  0  0  0  0  0  0  0
   -1.0812   -0.9852    0.0000 C   0  0  0  0  0  0  0  0  0  0  0  0
  2  1  1  6
  2  3  1  0
  3  4  1  0
  4  5  1  0
  5  6  2  0
  5  7  1  0
  7  8  1  0
  8  9  2  0
  8 10  2  0
  8 11  1  0
  2 12  1  0
 12 13  1  6
 13 14  1  0
 15 14  1  6
 15 16  1  0
 16 17  1  1
 17 18  1  1
 17 19  1  0
 20 19  1  1
 20 21  1  0
 21 22  1  0
 22 23  1  0
 23 24  1  0
 24 25  1  0
 25 26  1  6
 25 27  1  0
 27 28  1  6
 28 29  1  0
 29 30  1  0
 30 31  1  6
 30 12  1  0
 30 15  1  0
 27 16  1  0
 25 20  1  0
M  END
>  <MS_ID>  (1849) 
MS1917

>  <SMILES>  (1849) 
C[C@H](CCC(=O)NS(=O)(=O)O)[C@H]1CC[C@H]2[C@@H]3[C@H](O)C[C@@H]4CCCC[C@]4(C)[C@H]3CC[C@]12C

>  <Structure_dimension>  (1849) 
2D

$$$$
MS1918
     RDKit          2D

 29 32  0  0  0  0  0  0  0  0999 V2000
   -5.4198   -1.9165    0.0000 C   0  0  0  0  0  0  0  0  0  0  0  0
   -4.2085   -1.0318    0.0000 C   0  0  0  0  0  0  0  0  0  0  0  0
   -4.3691    0.4596    0.0000 C   0  0  0  0  0  0  0  0  0  0  0  0
   -5.7409    1.0662    0.0000 C   0  0  0  0  0  0  0  0  0  0  0  0
   -5.9015    2.5576    0.0000 C   0  0  0  0  0  0  0  0  0  0  0  0
   -4.6902    3.4424    0.0000 O   0  0  0  0  0  0  0  0  0  0  0  0
   -7.2733    3.1643    0.0000 O   0  0  0  0  0  0  0  0  0  0  0  0
   -2.8366   -1.6384    0.0000 C   0  0  0  0  0  0  0  0  0  0  0  0
   -2.5211   -3.1049    0.0000 C   0  0  0  0  0  0  0  0  0  0  0  0
   -1.0289   -3.2579    0.0000 C   0  0  0  0  0  0  0  0  0  0  0  0
   -0.4222   -1.8860    0.0000 C   0  0  0  0  0  0  0  0  0  0  0  0
    1.0032   -1.4189    0.0000 C   0  0  0  0  0  0  0  0  0  0  0  0
    2.1204   -2.4198    0.0000 C   0  0  0  0  0  0  0  0  0  0  0  0
    1.8123   -3.8878    0.0000 O   0  0  0  0  0  0  0  0  0  0  0  0
    3.5458   -1.9526    0.0000 C   0  0  0  0  0  0  0  0  0  0  0  0
    3.8540   -0.4846    0.0000 C   0  0  0  0  0  0  0  0  0  0  0  0
    5.2794   -0.0175    0.0000 C   0  0  0  0  0  0  0  0  0  0  0  0
    5.5875    1.4505    0.0000 C   0  0  0  0  0  0  0  0  0  0  0  0
    6.3792    2.7246    0.0000 C   0  0  0  0  0  0  0  0  0  0  0  0
    6.9797    0.8921    0.0000 O   0  0  0  0  0  0  0  0  0  0  0  0
    4.4703    2.4514    0.0000 C   0  0  0  0  0  0  0  0  0  0  0  0
    3.0449    1.9843    0.0000 C   0  0  0  0  0  0  0  0  0  0  0  0
    2.7367    0.5163    0.0000 C   0  0  0  0  0  0  0  0  0  0  0  0
    1.6195    1.5171    0.0000 C   0  0  0  0  0  0  0  0  0  0  0  0
    1.3113    0.0491    0.0000 C   0  0  0  0  0  0  0  0  0  0  0  0
    0.1941    1.0500    0.0000 C   0  0  0  0  0  0  0  0  0  0  0  0
   -1.2313    0.5829    0.0000 C   0  0  0  0  0  0  0  0  0  0  0  0
   -1.5395   -0.8851    0.0000 C   0  0  0  0  0  0  0  0  0  0  0  0
   -2.7553   -0.0065    0.0000 C   0  0  0  0  0  0  0  0  0  0  0  0
  2  1  1  6
  2  3  1  0
  3  4  1  0
  4  5  1  0
  5  6  2  0
  5  7  1  0
  2  8  1  0
  8  9  1  6
  9 10  1  0
 11 10  1  6
 11 12  1  0
 12 13  1  1
 13 14  1  1
 13 15  1  0
 16 15  1  1
 16 17  1  0
 17 18  1  0
 18 19  1  1
 18 20  1  0
 18 21  1  0
 21 22  1  0
 22 23  1  0
 23 24  1  6
 23 25  1  0
 25 26  1  6
 26 27  1  0
 27 28  1  0
 28 29  1  6
 28  8  1  0
 28 11  1  0
 25 12  1  0
 23 16  1  0
M  END
>  <MS_ID>  (1850) 
MS1918

>  <SMILES>  (1850) 
C[C@H](CCC(=O)O)[C@H]1CC[C@H]2[C@@H]3[C@H](O)C[C@@H]4C[C@@](C)(O)CC[C@]4(C)[C@H]3CC[C@]12C

>  <Structure_dimension>  (1850) 
2D

$$$$
MS1919
     RDKit          2D

 35 38  0  0  0  0  0  0  0  0999 V2000
   -1.7792   -4.6378    0.0000 C   0  0  0  0  0  0  0  0  0  0  0  0
   -1.1688   -3.2676    0.0000 C   0  0  0  0  0  0  0  0  0  0  0  0
   -2.0502   -2.0539    0.0000 C   0  0  0  0  0  0  0  0  0  0  0  0
   -3.5420   -2.2104    0.0000 C   0  0  0  0  0  0  0  0  0  0  0  0
   -4.4234   -0.9966    0.0000 C   0  0  0  0  0  0  0  0  0  0  0  0
   -3.8130    0.3735    0.0000 O   0  0  0  0  0  0  0  0  0  0  0  0
   -5.9152   -1.1531    0.0000 O   0  0  0  0  0  0  0  0  0  0  0  0
   -6.7967    0.0606    0.0000 C   0  0  0  0  0  0  0  0  0  0  0  0
   -7.6781    1.2743    0.0000 C   0  0  0  0  0  0  0  0  0  0  0  0
   -8.5595    2.4880    0.0000 C   0  0  0  0  0  0  0  0  0  0  0  0
   -7.3458    3.3695    0.0000 C   0  0  0  0  0  0  0  0  0  0  0  0
   -9.7732    1.6066    0.0000 C   0  0  0  0  0  0  0  0  0  0  0  0
   -9.4409    3.7018    0.0000 O   0  0  0  0  0  0  0  0  0  0  0  0
    0.3230   -3.1111    0.0000 C   0  0  0  0  0  0  0  0  0  0  0  0
    1.3265   -4.2261    0.0000 C   0  0  0  0  0  0  0  0  0  0  0  0
    2.6969   -3.6163    0.0000 C   0  0  0  0  0  0  0  0  0  0  0  0
    2.5405   -2.1245    0.0000 C   0  0  0  0  0  0  0  0  0  0  0  0
    3.5444   -1.0100    0.0000 C   0  0  0  0  0  0  0  0  0  0  0  0
    5.0116   -1.3222    0.0000 C   0  0  0  0  0  0  0  0  0  0  0  0
    5.4748   -2.7488    0.0000 O   0  0  0  0  0  0  0  0  0  0  0  0
    6.0155   -0.2077    0.0000 C   0  0  0  0  0  0  0  0  0  0  0  0
    5.5523    1.2190    0.0000 C   0  0  0  0  0  0  0  0  0  0  0  0
    6.5562    2.3335    0.0000 C   0  0  0  0  0  0  0  0  0  0  0  0
    6.0930    3.7602    0.0000 C   0  0  0  0  0  0  0  0  0  0  0  0
    7.0970    4.8747    0.0000 O   0  0  0  0  0  0  0  0  0  0  0  0
    4.6259    4.0724    0.0000 C   0  0  0  0  0  0  0  0  0  0  0  0
    3.6219    2.9579    0.0000 C   0  0  0  0  0  0  0  0  0  0  0  0
    4.0851    1.5312    0.0000 C   0  0  0  0  0  0  0  0  0  0  0  0
    2.6180    1.8434    0.0000 C   0  0  0  0  0  0  0  0  0  0  0  0
    3.0812    0.4167    0.0000 C   0  0  0  0  0  0  0  0  0  0  0  0
    1.6140    0.7289    0.0000 C   0  0  0  0  0  0  0  0  0  0  0  0
    0.6101   -0.3856    0.0000 C   0  0  0  0  0  0  0  0  0  0  0  0
   -0.8570   -0.0734    0.0000 O   0  0  0  0  0  0  0  0  0  0  0  0
    1.0733   -1.8123    0.0000 C   0  0  0  0  0  0  0  0  0  0  0  0
   -0.4184   -1.6552    0.0000 C   0  0  0  0  0  0  0  0  0  0  0  0
  2  1  1  6
  2  3  1  0
  3  4  1  0
  4  5  1  0
  5  6  2  0
  5  7  1  0
  7  8  1  0
  8  9  3  0
  9 10  1  0
 10 11  1  0
 10 12  1  0
 10 13  1  0
  2 14  1  0
 14 15  1  6
 15 16  1  0
 17 16  1  6
 17 18  1  0
 18 19  1  1
 19 20  1  1
 19 21  1  0
 22 21  1  1
 22 23  1  0
 23 24  1  0
 24 25  1  1
 24 26  1  0
 26 27  1  0
 27 28  1  0
 28 29  1  6
 28 30  1  0
 30 31  1  6
 31 32  1  0
 32 33  1  1
 32 34  1  0
 34 35  1  6
 34 14  1  0
 34 17  1  0
 30 18  1  0
 28 22  1  0
M  END
>  <MS_ID>  (1851) 
MS1919

>  <SMILES>  (1851) 
C[C@H](CCC(=O)OC#CC(C)(C)O)[C@H]1CC[C@H]2[C@@H]3[C@H](O)C[C@@H]4C[C@H](O)CC[C@]4(C)[C@H]3C[C@H](O)[C@]12C

>  <Structure_dimension>  (1851) 
2D

$$$$
MS1920
     RDKit          2D

 32 35  0  0  0  0  0  0  0  0999 V2000
   -3.6519   -3.4889    0.0000 C   0  0  0  0  0  0  0  0  0  0  0  0
   -2.7185   -2.3147    0.0000 C   0  0  0  0  0  0  0  0  0  0  0  0
   -3.2687   -0.9192    0.0000 C   0  0  0  0  0  0  0  0  0  0  0  0
   -4.7523   -0.6980    0.0000 C   0  0  0  0  0  0  0  0  0  0  0  0
   -5.3024    0.6975    0.0000 C   0  0  0  0  0  0  0  0  0  0  0  0
   -4.3690    1.8717    0.0000 O   0  0  0  0  0  0  0  0  0  0  0  0
   -6.7860    0.9188    0.0000 C   0  0  0  0  0  0  0  0  0  0  0  0
   -7.3362    2.3142    0.0000 C   0  0  0  0  0  0  0  0  0  0  0  0
   -8.8198    2.5355    0.0000 C   0  0  0  0  0  0  0  0  0  0  0  0
   -6.4028    3.4884    0.0000 O   0  0  0  0  0  0  0  0  0  0  0  0
   -1.2349   -2.5360    0.0000 C   0  0  0  0  0  0  0  0  0  0  0  0
   -0.5419   -3.8663    0.0000 C   0  0  0  0  0  0  0  0  0  0  0  0
    0.9375   -3.6183    0.0000 C   0  0  0  0  0  0  0  0  0  0  0  0
    1.1587   -2.1347    0.0000 C   0  0  0  0  0  0  0  0  0  0  0  0
    2.4093   -1.3064    0.0000 C   0  0  0  0  0  0  0  0  0  0  0  0
    3.7519   -1.9753    0.0000 C   0  0  0  0  0  0  0  0  0  0  0  0
    3.8439   -3.4725    0.0000 O   0  0  0  0  0  0  0  0  0  0  0  0
    5.0025   -1.1470    0.0000 C   0  0  0  0  0  0  0  0  0  0  0  0
    4.9105    0.3502    0.0000 C   0  0  0  0  0  0  0  0  0  0  0  0
    6.1611    1.1784    0.0000 C   0  0  0  0  0  0  0  0  0  0  0  0
    6.0690    2.6756    0.0000 C   0  0  0  0  0  0  0  0  0  0  0  0
    7.3196    3.5039    0.0000 O   0  0  0  0  0  0  0  0  0  0  0  0
    4.7264    3.3445    0.0000 C   0  0  0  0  0  0  0  0  0  0  0  0
    3.4759    2.5162    0.0000 C   0  0  0  0  0  0  0  0  0  0  0  0
    3.5679    1.0191    0.0000 C   0  0  0  0  0  0  0  0  0  0  0  0
    2.2253    1.6879    0.0000 C   0  0  0  0  0  0  0  0  0  0  0  0
    2.3173    0.1908    0.0000 C   0  0  0  0  0  0  0  0  0  0  0  0
    0.9747    0.8597    0.0000 C   0  0  0  0  0  0  0  0  0  0  0  0
   -0.2759    0.0314    0.0000 C   0  0  0  0  0  0  0  0  0  0  0  0
   -1.6185    0.7003    0.0000 O   0  0  0  0  0  0  0  0  0  0  0  0
   -0.1839   -1.4658    0.0000 C   0  0  0  0  0  0  0  0  0  0  0  0
   -1.5890   -0.9409    0.0000 C   0  0  0  0  0  0  0  0  0  0  0  0
  2  1  1  6
  2  3  1  0
  3  4  1  0
  4  5  1  0
  5  6  2  0
  5  7  1  0
  7  8  1  0
  8  9  1  1
  8 10  1  0
  2 11  1  0
 11 12  1  6
 12 13  1  0
 14 13  1  6
 14 15  1  0
 15 16  1  1
 16 17  1  1
 16 18  1  0
 19 18  1  1
 19 20  1  0
 20 21  1  0
 21 22  1  1
 21 23  1  0
 23 24  1  0
 24 25  1  0
 25 26  1  6
 25 27  1  0
 27 28  1  6
 28 29  1  0
 29 30  1  1
 29 31  1  0
 31 32  1  6
 31 11  1  0
 31 14  1  0
 27 15  1  0
 25 19  1  0
M  END
>  <MS_ID>  (1852) 
MS1920

>  <SMILES>  (1852) 
C[C@H](CCC(=O)C[C@@H](C)O)[C@H]1CC[C@H]2[C@@H]3[C@H](O)C[C@@H]4C[C@H](O)CC[C@]4(C)[C@H]3C[C@H](O)[C@]12C

>  <Structure_dimension>  (1852) 
2D

$$$$
MS1921
     RDKit          2D

 27 30  0  0  0  0  0  0  0  0999 V2000
   -6.9944    3.0301    0.0000 C   0  0  0  0  0  0  0  0  0  0  0  0
   -5.6180    2.4339    0.0000 C   0  0  0  0  0  0  0  0  0  0  0  0
   -4.4135    3.3278    0.0000 O   0  0  0  0  0  0  0  0  0  0  0  0
   -5.4461    0.9438    0.0000 C   0  0  0  0  0  0  0  0  0  0  0  0
   -4.0697    0.3476    0.0000 C   0  0  0  0  0  0  0  0  0  0  0  0
   -3.8978   -1.1425    0.0000 C   0  0  0  0  0  0  0  0  0  0  0  0
   -5.1023   -2.0364    0.0000 C   0  0  0  0  0  0  0  0  0  0  0  0
   -2.5213   -1.7387    0.0000 C   0  0  0  0  0  0  0  0  0  0  0  0
   -2.1946   -3.2027    0.0000 C   0  0  0  0  0  0  0  0  0  0  0  0
   -0.7013   -3.3444    0.0000 C   0  0  0  0  0  0  0  0  0  0  0  0
   -0.1051   -1.9679    0.0000 C   0  0  0  0  0  0  0  0  0  0  0  0
    1.3167   -1.4900    0.0000 C   0  0  0  0  0  0  0  0  0  0  0  0
    2.4415   -2.4823    0.0000 C   0  0  0  0  0  0  0  0  0  0  0  0
    3.8633   -2.0044    0.0000 C   0  0  0  0  0  0  0  0  0  0  0  0
    4.1603   -0.5341    0.0000 C   0  0  0  0  0  0  0  0  0  0  0  0
    5.5821   -0.0561    0.0000 C   0  0  0  0  0  0  0  0  0  0  0  0
    5.8791    1.4142    0.0000 C   0  0  0  0  0  0  0  0  0  0  0  0
    7.3009    1.8921    0.0000 O   0  0  0  0  0  0  0  0  0  0  0  0
    4.7543    2.4065    0.0000 C   0  0  0  0  0  0  0  0  0  0  0  0
    3.3325    1.9286    0.0000 C   0  0  0  0  0  0  0  0  0  0  0  0
    3.0355    0.4583    0.0000 C   0  0  0  0  0  0  0  0  0  0  0  0
    1.9107    1.4506    0.0000 C   0  0  0  0  0  0  0  0  0  0  0  0
    1.6137   -0.0197    0.0000 C   0  0  0  0  0  0  0  0  0  0  0  0
    0.4888    0.9727    0.0000 C   0  0  0  0  0  0  0  0  0  0  0  0
   -0.9330    0.4947    0.0000 C   0  0  0  0  0  0  0  0  0  0  0  0
   -1.2300   -0.9756    0.0000 C   0  0  0  0  0  0  0  0  0  0  0  0
   -2.4524   -0.1062    0.0000 C   0  0  0  0  0  0  0  0  0  0  0  0
  1  2  1  0
  2  3  2  0
  2  4  1  0
  4  5  1  0
  5  6  1  0
  6  7  1  6
  6  8  1  0
  8  9  1  6
  9 10  1  0
 11 10  1  6
 11 12  1  0
 12 13  1  1
 13 14  1  0
 15 14  1  1
 15 16  1  0
 16 17  1  0
 17 18  1  1
 17 19  1  0
 19 20  1  0
 20 21  1  0
 21 22  1  6
 21 23  1  0
 23 24  1  6
 24 25  1  0
 25 26  1  0
 26 27  1  6
 26  8  1  0
 26 11  1  0
 23 12  1  0
 21 15  1  0
M  END
>  <MS_ID>  (1853) 
MS1921

>  <SMILES>  (1853) 
CC(=O)CC[C@@H](C)[C@H]1CC[C@H]2[C@@H]3CC[C@@H]4C[C@H](O)CC[C@]4(C)[C@H]3CC[C@]12C

>  <Structure_dimension>  (1853) 
2D

$$$$
MS1922
     RDKit          2D

 40 44  0  0  0  0  0  0  0  0999 V2000
   -5.0644   -3.9032    0.0000 C   0  0  0  0  0  0  0  0  0  0  0  0
   -4.6042   -2.4755    0.0000 C   0  0  0  0  0  0  0  0  0  0  0  0
   -5.6105   -1.3631    0.0000 C   0  0  0  0  0  0  0  0  0  0  0  0
   -7.0770   -1.6784    0.0000 C   0  0  0  0  0  0  0  0  0  0  0  0
   -8.0832   -0.5660    0.0000 C   0  0  0  0  0  0  0  0  0  0  0  0
   -7.6230    0.8616    0.0000 O   0  0  0  0  0  0  0  0  0  0  0  0
   -9.5497   -0.8813    0.0000 O   0  0  0  0  0  0  0  0  0  0  0  0
   -3.1377   -2.1602    0.0000 C   0  0  0  0  0  0  0  0  0  0  0  0
   -2.0206   -3.1613    0.0000 C   0  0  0  0  0  0  0  0  0  0  0  0
   -0.7233   -2.4083    0.0000 C   0  0  0  0  0  0  0  0  0  0  0  0
   -1.0386   -0.9418    0.0000 C   0  0  0  0  0  0  0  0  0  0  0  0
   -0.1598    0.2737    0.0000 C   0  0  0  0  0  0  0  0  0  0  0  0
    1.3324    0.1204    0.0000 C   0  0  0  0  0  0  0  0  0  0  0  0
    1.9457   -1.2485    0.0000 O   0  0  0  0  0  0  0  0  0  0  0  0
    3.4378   -1.4018    0.0000 C   0  0  0  0  0  0  0  0  0  0  0  0
    4.0511   -2.7707    0.0000 O   0  0  0  0  0  0  0  0  0  0  0  0
    5.5432   -2.9240    0.0000 C   0  0  0  0  0  0  0  0  0  0  0  0
    6.1565   -4.2929    0.0000 C   0  0  0  0  0  0  0  0  0  0  0  0
    5.2777   -5.5085    0.0000 O   0  0  0  0  0  0  0  0  0  0  0  0
    6.4221   -1.7084    0.0000 C   0  0  0  0  0  0  0  0  0  0  0  0
    7.9142   -1.8618    0.0000 O   0  0  0  0  0  0  0  0  0  0  0  0
    5.8088   -0.3395    0.0000 C   0  0  0  0  0  0  0  0  0  0  0  0
    6.6877    0.8760    0.0000 O   0  0  0  0  0  0  0  0  0  0  0  0
    4.3167   -0.1862    0.0000 C   0  0  0  0  0  0  0  0  0  0  0  0
    3.7034    1.1827    0.0000 O   0  0  0  0  0  0  0  0  0  0  0  0
    2.2112    1.3360    0.0000 C   0  0  0  0  0  0  0  0  0  0  0  0
    1.5979    2.7049    0.0000 C   0  0  0  0  0  0  0  0  0  0  0  0
    2.4768    3.9205    0.0000 C   0  0  0  0  0  0  0  0  0  0  0  0
    1.8635    5.2894    0.0000 C   0  0  0  0  0  0  0  0  0  0  0  0
    2.7423    6.5049    0.0000 O   0  0  0  0  0  0  0  0  0  0  0  0
    0.3713    5.4427    0.0000 C   0  0  0  0  0  0  0  0  0  0  0  0
   -0.5075    4.2271    0.0000 C   0  0  0  0  0  0  0  0  0  0  0  0
    0.1058    2.8582    0.0000 C   0  0  0  0  0  0  0  0  0  0  0  0
   -1.3864    3.0115    0.0000 C   0  0  0  0  0  0  0  0  0  0  0  0
   -0.7731    1.6426    0.0000 C   0  0  0  0  0  0  0  0  0  0  0  0
   -2.2652    1.7960    0.0000 C   0  0  0  0  0  0  0  0  0  0  0  0
   -3.1441    0.5804    0.0000 C   0  0  0  0  0  0  0  0  0  0  0  0
   -4.6362    0.7337    0.0000 O   0  0  0  0  0  0  0  0  0  0  0  0
   -2.5308   -0.7885    0.0000 C   0  0  0  0  0  0  0  0  0  0  0  0
   -4.0308   -0.7920    0.0000 C   0  0  0  0  0  0  0  0  0  0  0  0
  2  1  1  6
  2  3  1  0
  3  4  1  0
  4  5  1  0
  5  6  2  0
  5  7  1  0
  2  8  1  0
  8  9  1  6
  9 10  1  0
 11 10  1  6
 11 12  1  0
 12 13  1  1
 13 14  1  1
 15 14  1  1
 15 16  1  0
 16 17  1  0
 17 18  1  1
 18 19  1  0
 17 20  1  0
 20 21  1  1
 20 22  1  0
 22 23  1  1
 22 24  1  0
 24 25  1  6
 13 26  1  0
 27 26  1  1
 27 28  1  0
 28 29  1  0
 29 30  1  1
 29 31  1  0
 31 32  1  0
 32 33  1  0
 33 34  1  6
 33 35  1  0
 35 36  1  6
 36 37  1  0
 37 38  1  1
 37 39  1  0
 39 40  1  6
 39  8  1  0
 39 11  1  0
 35 12  1  0
 24 15  1  0
 33 27  1  0
M  END
>  <MS_ID>  (1854) 
MS1922

>  <SMILES>  (1854) 
C[C@H](CCC(=O)O)[C@H]1CC[C@H]2[C@@H]3[C@H](O[C@@H]4O[C@H](CO)[C@H](O)[C@H](O)[C@H]4O)C[C@@H]4C[C@H](O)CC[C@]4(C)[C@H]3C[C@H](O)[C@]12C

>  <Structure_dimension>  (1854) 
2D

$$$$
MS1923
     RDKit          2D

 31 34  0  0  0  0  0  0  0  0999 V2000
   -5.4106   -2.3048    0.0000 C   0  0  0  0  0  0  0  0  0  0  0  0
   -4.2248   -1.3862    0.0000 C   0  0  0  0  0  0  0  0  0  0  0  0
   -4.4276    0.1001    0.0000 C   0  0  0  0  0  0  0  0  0  0  0  0
   -5.8161    0.6676    0.0000 C   0  0  0  0  0  0  0  0  0  0  0  0
   -6.0188    2.1539    0.0000 C   0  0  0  0  0  0  0  0  0  0  0  0
   -4.8331    3.0726    0.0000 O   0  0  0  0  0  0  0  0  0  0  0  0
   -7.4073    2.7214    0.0000 N   0  0  0  0  0  0  0  0  0  0  0  0
   -7.6100    4.2076    0.0000 O   0  0  0  0  0  0  0  0  0  0  0  0
   -2.8364   -1.9537    0.0000 C   0  0  0  0  0  0  0  0  0  0  0  0
   -2.4794   -3.4106    0.0000 C   0  0  0  0  0  0  0  0  0  0  0  0
   -0.9835   -3.5213    0.0000 C   0  0  0  0  0  0  0  0  0  0  0  0
   -0.4159   -2.1328    0.0000 C   0  0  0  0  0  0  0  0  0  0  0  0
    0.9957   -1.6255    0.0000 C   0  0  0  0  0  0  0  0  0  0  0  0
    2.1408   -2.5943    0.0000 C   0  0  0  0  0  0  0  0  0  0  0  0
    1.8744   -4.0705    0.0000 O   0  0  0  0  0  0  0  0  0  0  0  0
    3.5524   -2.0870    0.0000 C   0  0  0  0  0  0  0  0  0  0  0  0
    3.8189   -0.6109    0.0000 C   0  0  0  0  0  0  0  0  0  0  0  0
    5.2305   -0.1036    0.0000 C   0  0  0  0  0  0  0  0  0  0  0  0
    5.4970    1.3726    0.0000 C   0  0  0  0  0  0  0  0  0  0  0  0
    6.9086    1.8799    0.0000 C   0  0  0  0  0  0  0  0  0  0  0  0
    7.1750    3.3560    0.0000 O   0  0  0  0  0  0  0  0  0  0  0  0
    8.0537    0.9111    0.0000 O   0  0  0  0  0  0  0  0  0  0  0  0
    4.3518    2.3414    0.0000 C   0  0  0  0  0  0  0  0  0  0  0  0
    2.9402    1.8341    0.0000 C   0  0  0  0  0  0  0  0  0  0  0  0
    2.6737    0.3580    0.0000 C   0  0  0  0  0  0  0  0  0  0  0  0
    1.5286    1.3268    0.0000 C   0  0  0  0  0  0  0  0  0  0  0  0
    1.2621   -0.1494    0.0000 C   0  0  0  0  0  0  0  0  0  0  0  0
    0.1170    0.8195    0.0000 C   0  0  0  0  0  0  0  0  0  0  0  0
   -1.2946    0.3122    0.0000 C   0  0  0  0  0  0  0  0  0  0  0  0
   -1.5611   -1.1640    0.0000 C   0  0  0  0  0  0  0  0  0  0  0  0
   -2.8012   -0.3202    0.0000 C   0  0  0  0  0  0  0  0  0  0  0  0
  2  1  1  6
  2  3  1  0
  3  4  1  0
  4  5  1  0
  5  6  2  0
  5  7  1  0
  7  8  1  0
  2  9  1  0
  9 10  1  6
 10 11  1  0
 12 11  1  6
 12 13  1  0
 13 14  1  1
 14 15  1  1
 14 16  1  0
 17 16  1  1
 17 18  1  0
 18 19  1  0
 19 20  1  1
 20 21  2  0
 20 22  1  0
 19 23  1  0
 23 24  1  0
 24 25  1  0
 25 26  1  6
 25 27  1  0
 27 28  1  6
 28 29  1  0
 29 30  1  0
 30 31  1  6
 30  9  1  0
 30 12  1  0
 27 13  1  0
 25 17  1  0
M  END
>  <MS_ID>  (1855) 
MS1923

>  <SMILES>  (1855) 
C[C@H](CCC(=O)NO)[C@H]1CC[C@H]2[C@@H]3[C@H](O)C[C@@H]4C[C@H](C(=O)O)CC[C@]4(C)[C@H]3CC[C@]12C

>  <Structure_dimension>  (1855) 
2D

$$$$
MS1925
     RDKit          2D

 34 38  0  0  0  0  0  0  0  0999 V2000
   -2.2608   -4.3306    0.0000 C   0  0  0  0  0  0  0  0  0  0  0  0
   -1.5430   -3.0135    0.0000 C   0  0  0  0  0  0  0  0  0  0  0  0
   -2.3248   -1.7333    0.0000 C   0  0  0  0  0  0  0  0  0  0  0  0
   -3.8244   -1.7702    0.0000 C   0  0  0  0  0  0  0  0  0  0  0  0
   -4.6061   -0.4901    0.0000 C   0  0  0  0  0  0  0  0  0  0  0  0
   -3.8883    0.8271    0.0000 O   0  0  0  0  0  0  0  0  0  0  0  0
   -6.1057   -0.5270    0.0000 N   0  0  0  0  0  0  0  0  0  0  0  0
   -6.8874    0.7532    0.0000 C   0  0  0  0  0  0  0  0  0  0  0  0
   -6.1696    2.0703    0.0000 C   0  0  0  0  0  0  0  0  0  0  0  0
   -6.9514    3.3505    0.0000 C   0  0  0  0  0  0  0  0  0  0  0  0
   -8.4509    3.3135    0.0000 C   0  0  0  0  0  0  0  0  0  0  0  0
   -9.1687    1.9964    0.0000 C   0  0  0  0  0  0  0  0  0  0  0  0
   -8.3870    0.7163    0.0000 N   0  0  0  0  0  0  0  0  0  0  0  0
   -0.0435   -2.9765    0.0000 C   0  0  0  0  0  0  0  0  0  0  0  0
    0.8678   -4.1680    0.0000 C   0  0  0  0  0  0  0  0  0  0  0  0
    2.2825   -3.6695    0.0000 C   0  0  0  0  0  0  0  0  0  0  0  0
    2.2456   -2.1699    0.0000 C   0  0  0  0  0  0  0  0  0  0  0  0
    3.3353   -1.1391    0.0000 C   0  0  0  0  0  0  0  0  0  0  0  0
    4.7728   -1.5673    0.0000 C   0  0  0  0  0  0  0  0  0  0  0  0
    5.1207   -3.0264    0.0000 O   0  0  0  0  0  0  0  0  0  0  0  0
    5.8625   -0.5365    0.0000 C   0  0  0  0  0  0  0  0  0  0  0  0
    5.5146    0.9226    0.0000 C   0  0  0  0  0  0  0  0  0  0  0  0
    6.6043    1.9534    0.0000 C   0  0  0  0  0  0  0  0  0  0  0  0
    6.2564    3.4125    0.0000 C   0  0  0  0  0  0  0  0  0  0  0  0
    7.3460    4.4434    0.0000 O   0  0  0  0  0  0  0  0  0  0  0  0
    4.8188    3.8408    0.0000 C   0  0  0  0  0  0  0  0  0  0  0  0
    3.7291    2.8099    0.0000 C   0  0  0  0  0  0  0  0  0  0  0  0
    4.0770    1.3509    0.0000 C   0  0  0  0  0  0  0  0  0  0  0  0
    2.6395    1.7791    0.0000 C   0  0  0  0  0  0  0  0  0  0  0  0
    2.9874    0.3200    0.0000 C   0  0  0  0  0  0  0  0  0  0  0  0
    1.5498    0.7483    0.0000 C   0  0  0  0  0  0  0  0  0  0  0  0
    0.4601   -0.2826    0.0000 C   0  0  0  0  0  0  0  0  0  0  0  0
    0.8080   -1.7417    0.0000 C   0  0  0  0  0  0  0  0  0  0  0  0
   -0.6664   -1.4660    0.0000 C   0  0  0  0  0  0  0  0  0  0  0  0
  2  1  1  6
  2  3  1  0
  3  4  1  0
  4  5  1  0
  5  6  2  0
  5  7  1  0
  7  8  1  0
  8  9  2  0
  9 10  1  0
 10 11  2  0
 11 12  1  0
 12 13  2  0
  2 14  1  0
 14 15  1  6
 15 16  1  0
 17 16  1  6
 17 18  1  0
 18 19  1  1
 19 20  1  6
 19 21  1  0
 22 21  1  1
 22 23  1  0
 23 24  1  0
 24 25  1  1
 24 26  1  0
 26 27  1  0
 27 28  1  0
 28 29  1  6
 28 30  1  0
 30 31  1  6
 31 32  1  0
 32 33  1  0
 33 34  1  6
 13  8  1  0
 33 14  1  0
 33 17  1  0
 30 18  1  0
 28 22  1  0
M  END
>  <MS_ID>  (1856) 
MS1925

>  <SMILES>  (1856) 
C[C@H](CCC(=O)Nc1ccccn1)[C@H]1CC[C@H]2[C@@H]3[C@@H](O)C[C@@H]4C[C@H](O)CC[C@]4(C)[C@H]3CC[C@]12C

>  <Structure_dimension>  (1856) 
2D

$$$$
MS1926
     RDKit          2D

 29 32  0  0  0  0  0  0  0  0999 V2000
   -5.0303   -2.1373    0.0000 C   0  0  0  0  0  0  0  0  0  0  0  0
   -3.8594   -1.1998    0.0000 C   0  0  0  0  0  0  0  0  0  0  0  0
   -4.0858    0.2830    0.0000 C   0  0  0  0  0  0  0  0  0  0  0  0
   -5.4831    0.8284    0.0000 C   0  0  0  0  0  0  0  0  0  0  0  0
   -5.7095    2.3112    0.0000 C   0  0  0  0  0  0  0  0  0  0  0  0
   -4.5386    3.2487    0.0000 O   0  0  0  0  0  0  0  0  0  0  0  0
   -7.1069    2.8565    0.0000 O   0  0  0  0  0  0  0  0  0  0  0  0
   -2.4620   -1.7451    0.0000 C   0  0  0  0  0  0  0  0  0  0  0  0
   -2.0818   -3.1961    0.0000 C   0  0  0  0  0  0  0  0  0  0  0  0
   -0.5844   -3.2830    0.0000 C   0  0  0  0  0  0  0  0  0  0  0  0
   -0.0390   -1.8856    0.0000 C   0  0  0  0  0  0  0  0  0  0  0  0
    1.3643   -1.3559    0.0000 C   0  0  0  0  0  0  0  0  0  0  0  0
    2.5248   -2.3063    0.0000 C   0  0  0  0  0  0  0  0  0  0  0  0
    2.2819   -3.7865    0.0000 O   0  0  0  0  0  0  0  0  0  0  0  0
    3.9281   -1.7765    0.0000 C   0  0  0  0  0  0  0  0  0  0  0  0
    4.1710   -0.2963    0.0000 C   0  0  0  0  0  0  0  0  0  0  0  0
    5.5743    0.2334    0.0000 C   0  0  0  0  0  0  0  0  0  0  0  0
    5.8172    1.7136    0.0000 C   0  0  0  0  0  0  0  0  0  0  0  0
    7.2205    2.2434    0.0000 O   0  0  0  0  0  0  0  0  0  0  0  0
    4.6568    2.6641    0.0000 C   0  0  0  0  0  0  0  0  0  0  0  0
    3.2534    2.1343    0.0000 C   0  0  0  0  0  0  0  0  0  0  0  0
    3.0105    0.6541    0.0000 C   0  0  0  0  0  0  0  0  0  0  0  0
    1.8501    1.6046    0.0000 C   0  0  0  0  0  0  0  0  0  0  0  0
    1.6072    0.1244    0.0000 C   0  0  0  0  0  0  0  0  0  0  0  0
    0.4467    1.0748    0.0000 C   0  0  0  0  0  0  0  0  0  0  0  0
   -0.9566    0.5450    0.0000 C   0  0  0  0  0  0  0  0  0  0  0  0
   -2.1170    1.4955    0.0000 C   0  0  0  0  0  0  0  0  0  0  0  0
   -1.1995   -0.9352    0.0000 C   0  0  0  0  0  0  0  0  0  0  0  0
   -2.4529   -0.1112    0.0000 C   0  0  0  0  0  0  0  0  0  0  0  0
  2  1  1  6
  2  3  1  0
  3  4  1  0
  4  5  1  0
  5  6  2  0
  5  7  1  0
  2  8  1  0
  8  9  1  6
  9 10  1  0
 11 10  1  6
 11 12  1  0
 12 13  1  1
 13 14  1  6
 13 15  1  0
 16 15  1  1
 16 17  1  0
 17 18  1  0
 18 19  1  1
 18 20  1  0
 20 21  1  0
 21 22  1  0
 22 23  1  6
 22 24  1  0
 24 25  1  6
 25 26  1  0
 26 27  1  1
 26 28  1  0
 28 29  1  6
 28  8  1  0
 28 11  1  0
 24 12  1  0
 22 16  1  0
M  END
>  <MS_ID>  (1857) 
MS1926

>  <SMILES>  (1857) 
C[C@H](CCC(=O)O)[C@H]1CC[C@H]2[C@@H]3[C@@H](O)C[C@@H]4C[C@H](O)CC[C@]4(C)[C@H]3C[C@H](C)[C@]12C

>  <Structure_dimension>  (1857) 
2D

$$$$
MS1927
     RDKit          2D

 28 31  0  0  0  0  0  0  0  0999 V2000
   -4.6340   -2.3524    0.0000 C   0  0  0  0  0  0  0  0  0  0  0  0
   -3.5242   -1.3434    0.0000 C   0  0  0  0  0  0  0  0  0  0  0  0
   -3.8431    0.1223    0.0000 C   0  0  0  0  0  0  0  0  0  0  0  0
   -5.2720    0.5789    0.0000 C   0  0  0  0  0  0  0  0  0  0  0  0
   -5.5909    2.0446    0.0000 C   0  0  0  0  0  0  0  0  0  0  0  0
   -7.0197    2.5012    0.0000 N   0  0  0  0  0  0  0  0  0  0  0  0
   -4.4811    3.0537    0.0000 O   0  0  0  0  0  0  0  0  0  0  0  0
   -2.0954   -1.8000    0.0000 C   0  0  0  0  0  0  0  0  0  0  0  0
   -1.6249   -3.2243    0.0000 C   0  0  0  0  0  0  0  0  0  0  0  0
   -0.1249   -3.2170    0.0000 C   0  0  0  0  0  0  0  0  0  0  0  0
    0.3317   -1.7882    0.0000 C   0  0  0  0  0  0  0  0  0  0  0  0
    1.6990   -1.1715    0.0000 C   0  0  0  0  0  0  0  0  0  0  0  0
    2.9168   -2.0473    0.0000 C   0  0  0  0  0  0  0  0  0  0  0  0
    2.7672   -3.5398    0.0000 O   0  0  0  0  0  0  0  0  0  0  0  0
    4.2841   -1.4305    0.0000 C   0  0  0  0  0  0  0  0  0  0  0  0
    4.4337    0.0620    0.0000 C   0  0  0  0  0  0  0  0  0  0  0  0
    5.8011    0.6787    0.0000 C   0  0  0  0  0  0  0  0  0  0  0  0
    5.9506    2.1713    0.0000 C   0  0  0  0  0  0  0  0  0  0  0  0
    4.7328    3.0471    0.0000 C   0  0  0  0  0  0  0  0  0  0  0  0
    3.3655    2.4303    0.0000 C   0  0  0  0  0  0  0  0  0  0  0  0
    3.2159    0.9378    0.0000 C   0  0  0  0  0  0  0  0  0  0  0  0
    1.9981    1.8136    0.0000 C   0  0  0  0  0  0  0  0  0  0  0  0
    1.8486    0.3211    0.0000 C   0  0  0  0  0  0  0  0  0  0  0  0
    0.6308    1.1968    0.0000 C   0  0  0  0  0  0  0  0  0  0  0  0
   -0.7366    0.5801    0.0000 C   0  0  0  0  0  0  0  0  0  0  0  0
   -1.9543    1.4559    0.0000 O   0  0  0  0  0  0  0  0  0  0  0  0
   -0.8861   -0.9124    0.0000 C   0  0  0  0  0  0  0  0  0  0  0  0
   -2.1888   -0.1687    0.0000 C   0  0  0  0  0  0  0  0  0  0  0  0
  2  1  1  6
  2  3  1  0
  3  4  1  0
  4  5  1  0
  5  6  1  0
  5  7  2  0
  2  8  1  0
  8  9  1  6
  9 10  1  0
 11 10  1  6
 11 12  1  0
 12 13  1  1
 13 14  1  1
 13 15  1  0
 16 15  1  1
 16 17  1  0
 17 18  1  0
 18 19  1  0
 19 20  1  0
 20 21  1  0
 21 22  1  6
 21 23  1  0
 23 24  1  6
 24 25  1  0
 25 26  1  1
 25 27  1  0
 27 28  1  6
 27  8  1  0
 27 11  1  0
 23 12  1  0
 21 16  1  0
M  END
>  <MS_ID>  (1858) 
MS1927

>  <SMILES>  (1858) 
C[C@H](CCC(N)=O)[C@H]1CC[C@H]2[C@@H]3[C@H](O)C[C@@H]4CCCC[C@]4(C)[C@H]3C[C@H](O)[C@]12C

>  <Structure_dimension>  (1858) 
2D

$$$$
MS1928
     RDKit          2D

 29 32  0  0  0  0  0  0  0  0999 V2000
   -5.0303   -2.1373    0.0000 C   0  0  0  0  0  0  0  0  0  0  0  0
   -3.8594   -1.1998    0.0000 C   0  0  0  0  0  0  0  0  0  0  0  0
   -4.0858    0.2830    0.0000 C   0  0  0  0  0  0  0  0  0  0  0  0
   -5.4831    0.8284    0.0000 C   0  0  0  0  0  0  0  0  0  0  0  0
   -5.7095    2.3112    0.0000 C   0  0  0  0  0  0  0  0  0  0  0  0
   -4.5386    3.2487    0.0000 O   0  0  0  0  0  0  0  0  0  0  0  0
   -7.1069    2.8565    0.0000 O   0  0  0  0  0  0  0  0  0  0  0  0
   -2.4620   -1.7451    0.0000 C   0  0  0  0  0  0  0  0  0  0  0  0
   -2.0818   -3.1961    0.0000 C   0  0  0  0  0  0  0  0  0  0  0  0
   -0.5844   -3.2830    0.0000 C   0  0  0  0  0  0  0  0  0  0  0  0
   -0.0390   -1.8856    0.0000 C   0  0  0  0  0  0  0  0  0  0  0  0
    1.3643   -1.3559    0.0000 C   0  0  0  0  0  0  0  0  0  0  0  0
    2.5248   -2.3063    0.0000 C   0  0  0  0  0  0  0  0  0  0  0  0
    2.2819   -3.7865    0.0000 O   0  0  0  0  0  0  0  0  0  0  0  0
    3.9281   -1.7765    0.0000 C   0  0  0  0  0  0  0  0  0  0  0  0
    4.1710   -0.2963    0.0000 C   0  0  0  0  0  0  0  0  0  0  0  0
    5.5743    0.2334    0.0000 C   0  0  0  0  0  0  0  0  0  0  0  0
    5.8172    1.7136    0.0000 C   0  0  0  0  0  0  0  0  0  0  0  0
    7.2205    2.2434    0.0000 O   0  0  0  0  0  0  0  0  0  0  0  0
    4.6568    2.6641    0.0000 C   0  0  0  0  0  0  0  0  0  0  0  0
    3.2534    2.1343    0.0000 C   0  0  0  0  0  0  0  0  0  0  0  0
    3.0105    0.6541    0.0000 C   0  0  0  0  0  0  0  0  0  0  0  0
    1.8501    1.6046    0.0000 C   0  0  0  0  0  0  0  0  0  0  0  0
    1.6072    0.1244    0.0000 C   0  0  0  0  0  0  0  0  0  0  0  0
    0.4467    1.0748    0.0000 C   0  0  0  0  0  0  0  0  0  0  0  0
   -0.9566    0.5450    0.0000 C   0  0  0  0  0  0  0  0  0  0  0  0
   -2.1170    1.4955    0.0000 O   0  0  0  0  0  0  0  0  0  0  0  0
   -1.1995   -0.9352    0.0000 C   0  0  0  0  0  0  0  0  0  0  0  0
   -2.4529   -0.1112    0.0000 C   0  0  0  0  0  0  0  0  0  0  0  0
  2  1  1  6
  2  3  1  0
  3  4  1  0
  4  5  1  0
  5  6  2  0
  5  7  1  0
  2  8  1  0
  8  9  1  6
  9 10  1  0
 11 10  1  6
 11 12  1  0
 12 13  1  1
 13 14  2  0
 13 15  1  0
 16 15  1  1
 16 17  1  0
 17 18  1  0
 18 19  1  6
 18 20  1  0
 20 21  1  0
 21 22  1  0
 22 23  1  6
 22 24  1  0
 24 25  1  6
 25 26  1  0
 26 27  1  1
 26 28  1  0
 28 29  1  6
 28  8  1  0
 28 11  1  0
 24 12  1  0
 22 16  1  0
M  END
>  <MS_ID>  (1859) 
MS1928

>  <SMILES>  (1859) 
C[C@H](CCC(=O)O)[C@H]1CC[C@H]2[C@@H]3C(=O)C[C@@H]4C[C@@H](O)CC[C@]4(C)[C@H]3C[C@H](O)[C@]12C

>  <Structure_dimension>  (1859) 
2D

$$$$
MS1929
     RDKit          2D

 34 37  0  0  0  0  0  0  0  0999 V2000
   -2.4018   -4.1785    0.0000 C   0  0  0  0  0  0  0  0  0  0  0  0
   -1.6536   -2.8784    0.0000 C   0  0  0  0  0  0  0  0  0  0  0  0
   -2.4055   -1.5804    0.0000 C   0  0  0  0  0  0  0  0  0  0  0  0
   -3.9055   -1.5826    0.0000 C   0  0  0  0  0  0  0  0  0  0  0  0
   -4.6574   -0.2846    0.0000 C   0  0  0  0  0  0  0  0  0  0  0  0
   -3.9092    1.0155    0.0000 O   0  0  0  0  0  0  0  0  0  0  0  0
   -6.1574   -0.2867    0.0000 N   0  0  0  0  0  0  0  0  0  0  0  0
   -6.9092    1.0112    0.0000 C   0  0  0  0  0  0  0  0  0  0  0  0
   -8.4092    1.0091    0.0000 C   0  0  0  0  0  0  0  0  0  0  0  0
   -9.1611    2.3071    0.0000 N   0  0  0  0  0  0  0  0  0  0  0  0
  -10.6611    2.3049    0.0000 C   0  0  0  0  0  0  0  0  0  0  0  0
   -8.4129    3.6072    0.0000 C   0  0  0  0  0  0  0  0  0  0  0  0
   -0.1536   -2.8762    0.0000 C   0  0  0  0  0  0  0  0  0  0  0  0
    0.7298   -4.0885    0.0000 C   0  0  0  0  0  0  0  0  0  0  0  0
    2.1557   -3.6229    0.0000 C   0  0  0  0  0  0  0  0  0  0  0  0
    2.1535   -2.1229    0.0000 C   0  0  0  0  0  0  0  0  0  0  0  0
    3.2668   -1.1176    0.0000 C   0  0  0  0  0  0  0  0  0  0  0  0
    4.6941   -1.5791    0.0000 C   0  0  0  0  0  0  0  0  0  0  0  0
    5.0080   -3.0459    0.0000 O   0  0  0  0  0  0  0  0  0  0  0  0
    5.8073   -0.5738    0.0000 C   0  0  0  0  0  0  0  0  0  0  0  0
    5.4934    0.8929    0.0000 C   0  0  0  0  0  0  0  0  0  0  0  0
    6.6067    1.8982    0.0000 C   0  0  0  0  0  0  0  0  0  0  0  0
    6.2927    3.3650    0.0000 C   0  0  0  0  0  0  0  0  0  0  0  0
    7.4060    4.3703    0.0000 O   0  0  0  0  0  0  0  0  0  0  0  0
    4.8655    3.8265    0.0000 C   0  0  0  0  0  0  0  0  0  0  0  0
    3.7522    2.8212    0.0000 C   0  0  0  0  0  0  0  0  0  0  0  0
    4.0661    1.3544    0.0000 C   0  0  0  0  0  0  0  0  0  0  0  0
    2.6389    1.8159    0.0000 C   0  0  0  0  0  0  0  0  0  0  0  0
    2.9529    0.3491    0.0000 C   0  0  0  0  0  0  0  0  0  0  0  0
    1.5256    0.8106    0.0000 C   0  0  0  0  0  0  0  0  0  0  0  0
    0.4123   -0.1947    0.0000 C   0  0  0  0  0  0  0  0  0  0  0  0
   -1.0149    0.2668    0.0000 O   0  0  0  0  0  0  0  0  0  0  0  0
    0.7263   -1.6614    0.0000 C   0  0  0  0  0  0  0  0  0  0  0  0
   -0.7414   -1.3517    0.0000 C   0  0  0  0  0  0  0  0  0  0  0  0
  2  1  1  6
  2  3  1  0
  3  4  1  0
  4  5  1  0
  5  6  2  0
  5  7  1  0
  7  8  1  0
  8  9  1  0
  9 10  1  0
 10 11  1  0
 10 12  1  0
  2 13  1  0
 13 14  1  6
 14 15  1  0
 16 15  1  6
 16 17  1  0
 17 18  1  1
 18 19  1  1
 18 20  1  0
 21 20  1  1
 21 22  1  0
 22 23  1  0
 23 24  1  1
 23 25  1  0
 25 26  1  0
 26 27  1  0
 27 28  1  6
 27 29  1  0
 29 30  1  6
 30 31  1  0
 31 32  1  1
 31 33  1  0
 33 34  1  6
 33 13  1  0
 33 16  1  0
 29 17  1  0
 27 21  1  0
M  END
>  <MS_ID>  (1860) 
MS1929

>  <SMILES>  (1860) 
C[C@H](CCC(=O)NCCN(C)C)[C@H]1CC[C@H]2[C@@H]3[C@H](O)C[C@@H]4C[C@H](O)CC[C@]4(C)[C@H]3C[C@H](O)[C@]12C

>  <Structure_dimension>  (1860) 
2D

$$$$
MS1930
     RDKit          2D

 42 46  0  0  0  0  0  0  0  0999 V2000
   -0.2000   -5.0839    0.0000 C   0  0  0  0  0  0  0  0  0  0  0  0
    0.2943   -3.6677    0.0000 C   0  0  0  0  0  0  0  0  0  0  0  0
   -0.6850   -2.5315    0.0000 C   0  0  0  0  0  0  0  0  0  0  0  0
   -2.1586   -2.8116    0.0000 C   0  0  0  0  0  0  0  0  0  0  0  0
   -3.1380   -1.6754    0.0000 C   0  0  0  0  0  0  0  0  0  0  0  0
   -2.6437   -0.2592    0.0000 O   0  0  0  0  0  0  0  0  0  0  0  0
   -4.6116   -1.9554    0.0000 O   0  0  0  0  0  0  0  0  0  0  0  0
   -5.5909   -0.8192    0.0000 C   0  0  0  0  0  0  0  0  0  0  0  0
   -5.0966    0.5970    0.0000 O   0  0  0  0  0  0  0  0  0  0  0  0
   -6.0760    1.7332    0.0000 C   0  0  0  0  0  0  0  0  0  0  0  0
   -5.5817    3.1494    0.0000 C   0  0  0  0  0  0  0  0  0  0  0  0
   -6.5610    4.2856    0.0000 O   0  0  0  0  0  0  0  0  0  0  0  0
   -4.1080    3.4294    0.0000 C   0  0  0  0  0  0  0  0  0  0  0  0
   -3.6137    4.8456    0.0000 O   0  0  0  0  0  0  0  0  0  0  0  0
   -7.5496    1.4531    0.0000 C   0  0  0  0  0  0  0  0  0  0  0  0
   -8.5289    2.5893    0.0000 O   0  0  0  0  0  0  0  0  0  0  0  0
   -8.0439    0.0369    0.0000 C   0  0  0  0  0  0  0  0  0  0  0  0
   -9.5175   -0.2431    0.0000 O   0  0  0  0  0  0  0  0  0  0  0  0
   -7.0645   -1.0993    0.0000 C   0  0  0  0  0  0  0  0  0  0  0  0
   -7.5588   -2.5155    0.0000 O   0  0  0  0  0  0  0  0  0  0  0  0
    1.7680   -3.3877    0.0000 C   0  0  0  0  0  0  0  0  0  0  0  0
    2.8607   -4.4152    0.0000 C   0  0  0  0  0  0  0  0  0  0  0  0
    4.1757   -3.6935    0.0000 C   0  0  0  0  0  0  0  0  0  0  0  0
    3.8956   -2.2199    0.0000 C   0  0  0  0  0  0  0  0  0  0  0  0
    4.8034   -1.0258    0.0000 C   0  0  0  0  0  0  0  0  0  0  0  0
    6.2914   -1.2148    0.0000 C   0  0  0  0  0  0  0  0  0  0  0  0
    6.8717   -2.5980    0.0000 O   0  0  0  0  0  0  0  0  0  0  0  0
    7.1991   -0.0206    0.0000 C   0  0  0  0  0  0  0  0  0  0  0  0
    6.6188    1.3626    0.0000 C   0  0  0  0  0  0  0  0  0  0  0  0
    7.5266    2.5567    0.0000 C   0  0  0  0  0  0  0  0  0  0  0  0
    6.9463    3.9399    0.0000 C   0  0  0  0  0  0  0  0  0  0  0  0
    7.8540    5.1341    0.0000 O   0  0  0  0  0  0  0  0  0  0  0  0
    5.4582    4.1290    0.0000 C   0  0  0  0  0  0  0  0  0  0  0  0
    4.5505    2.9348    0.0000 C   0  0  0  0  0  0  0  0  0  0  0  0
    5.1308    1.5516    0.0000 C   0  0  0  0  0  0  0  0  0  0  0  0
    3.6428    1.7407    0.0000 C   0  0  0  0  0  0  0  0  0  0  0  0
    4.2231    0.3575    0.0000 C   0  0  0  0  0  0  0  0  0  0  0  0
    2.7350    0.5465    0.0000 C   0  0  0  0  0  0  0  0  0  0  0  0
    1.8273   -0.6477    0.0000 C   0  0  0  0  0  0  0  0  0  0  0  0
    0.3392   -0.4586    0.0000 O   0  0  0  0  0  0  0  0  0  0  0  0
    2.4076   -2.0309    0.0000 C   0  0  0  0  0  0  0  0  0  0  0  0
    0.9079   -1.9984    0.0000 C   0  0  0  0  0  0  0  0  0  0  0  0
  2  1  1  6
  2  3  1  0
  3  4  1  0
  4  5  1  0
  5  6  2  0
  5  7  1  0
  8  7  1  1
  8  9  1  0
  9 10  1  0
 10 11  1  1
 11 12  2  0
 11 13  1  0
 13 14  1  0
 10 15  1  0
 15 16  1  6
 15 17  1  0
 17 18  1  1
 17 19  1  0
 19 20  1  6
  2 21  1  0
 21 22  1  6
 22 23  1  0
 24 23  1  6
 24 25  1  0
 25 26  1  1
 26 27  1  1
 26 28  1  0
 29 28  1  1
 29 30  1  0
 30 31  1  0
 31 32  1  1
 31 33  1  0
 33 34  1  0
 34 35  1  0
 35 36  1  6
 35 37  1  0
 37 38  1  6
 38 39  1  0
 39 40  1  1
 39 41  1  0
 41 42  1  6
 19  8  1  0
 41 21  1  0
 41 24  1  0
 37 25  1  0
 35 29  1  0
M  END
>  <MS_ID>  (1861) 
MS1930

>  <SMILES>  (1861) 
C[C@H](CCC(=O)O[C@@H]1O[C@H](C(=O)CO)[C@@H](O)[C@H](O)[C@H]1O)[C@H]1CC[C@H]2[C@@H]3[C@H](O)C[C@@H]4C[C@H](O)CC[C@]4(C)[C@H]3C[C@H](O)[C@]12C

>  <Structure_dimension>  (1861) 
2D

$$$$
MS1931
     RDKit          2D

 33 37  0  0  0  0  0  0  0  0999 V2000
   -3.6298   -3.2263    0.0000 C   0  0  0  0  0  0  0  0  0  0  0  0
   -2.6726   -2.0715    0.0000 C   0  0  0  0  0  0  0  0  0  0  0  0
   -3.1941   -0.6650    0.0000 C   0  0  0  0  0  0  0  0  0  0  0  0
   -4.6728   -0.4135    0.0000 C   0  0  0  0  0  0  0  0  0  0  0  0
   -5.1944    0.9930    0.0000 C   0  0  0  0  0  0  0  0  0  0  0  0
   -4.2371    2.1478    0.0000 O   0  0  0  0  0  0  0  0  0  0  0  0
   -6.6731    1.2445    0.0000 N   0  0  0  0  0  0  0  0  0  0  0  0
   -7.7458    0.1960    0.0000 C   0  0  0  0  0  0  0  0  0  0  0  0
   -9.0745    0.8923    0.0000 C   0  0  0  0  0  0  0  0  0  0  0  0
   -8.8229    2.3710    0.0000 C   0  0  0  0  0  0  0  0  0  0  0  0
   -7.3388    2.5887    0.0000 C   0  0  0  0  0  0  0  0  0  0  0  0
   -1.1938   -2.3230    0.0000 C   0  0  0  0  0  0  0  0  0  0  0  0
   -0.5281   -3.6672    0.0000 C   0  0  0  0  0  0  0  0  0  0  0  0
    0.9560   -3.4495    0.0000 C   0  0  0  0  0  0  0  0  0  0  0  0
    1.2075   -1.9708    0.0000 C   0  0  0  0  0  0  0  0  0  0  0  0
    2.4748   -1.1682    0.0000 C   0  0  0  0  0  0  0  0  0  0  0  0
    3.8034   -1.8644    0.0000 C   0  0  0  0  0  0  0  0  0  0  0  0
    3.8648   -3.3632    0.0000 O   0  0  0  0  0  0  0  0  0  0  0  0
    5.0707   -1.0619    0.0000 C   0  0  0  0  0  0  0  0  0  0  0  0
    6.3993   -1.7581    0.0000 O   0  0  0  0  0  0  0  0  0  0  0  0
    5.0093    0.4368    0.0000 C   0  0  0  0  0  0  0  0  0  0  0  0
    6.2766    1.2394    0.0000 C   0  0  0  0  0  0  0  0  0  0  0  0
    6.2152    2.7381    0.0000 C   0  0  0  0  0  0  0  0  0  0  0  0
    7.4824    3.5407    0.0000 O   0  0  0  0  0  0  0  0  0  0  0  0
    4.8865    3.4343    0.0000 C   0  0  0  0  0  0  0  0  0  0  0  0
    3.6193    2.6318    0.0000 C   0  0  0  0  0  0  0  0  0  0  0  0
    3.6807    1.1331    0.0000 C   0  0  0  0  0  0  0  0  0  0  0  0
    2.3520    1.8293    0.0000 C   0  0  0  0  0  0  0  0  0  0  0  0
    2.4134    0.3305    0.0000 C   0  0  0  0  0  0  0  0  0  0  0  0
    1.0848    1.0267    0.0000 C   0  0  0  0  0  0  0  0  0  0  0  0
   -0.1825    0.2242    0.0000 C   0  0  0  0  0  0  0  0  0  0  0  0
   -0.1211   -1.2745    0.0000 C   0  0  0  0  0  0  0  0  0  0  0  0
   -1.5152   -0.7210    0.0000 C   0  0  0  0  0  0  0  0  0  0  0  0
  2  1  1  6
  2  3  1  0
  3  4  1  0
  4  5  1  0
  5  6  2  0
  5  7  1  0
  7  8  1  0
  8  9  2  0
  9 10  1  0
 10 11  2  0
  2 12  1  0
 12 13  1  6
 13 14  1  0
 15 14  1  6
 15 16  1  0
 16 17  1  1
 17 18  1  1
 17 19  1  0
 19 20  1  1
 19 21  1  0
 21 22  1  1
 22 23  1  0
 23 24  1  1
 23 25  1  0
 25 26  1  0
 26 27  1  0
 27 28  1  6
 27 29  1  0
 29 30  1  6
 30 31  1  0
 31 32  1  0
 32 33  1  6
 11  7  1  0
 32 12  1  0
 32 15  1  0
 29 16  1  0
 27 21  1  0
M  END
>  <MS_ID>  (1862) 
MS1931

>  <SMILES>  (1862) 
C[C@H](CCC(=O)n1cccc1)[C@H]1CC[C@H]2[C@@H]3[C@H](O)[C@H](O)[C@@H]4C[C@H](O)CC[C@]4(C)[C@H]3CC[C@]12C

>  <Structure_dimension>  (1862) 
2D

$$$$
MS1932
     RDKit          2D

 29 32  0  0  0  0  0  0  0  0999 V2000
   -5.0303   -2.1373    0.0000 C   0  0  0  0  0  0  0  0  0  0  0  0
   -3.8594   -1.1998    0.0000 C   0  0  0  0  0  0  0  0  0  0  0  0
   -4.0858    0.2830    0.0000 C   0  0  0  0  0  0  0  0  0  0  0  0
   -5.4831    0.8284    0.0000 C   0  0  0  0  0  0  0  0  0  0  0  0
   -5.7095    2.3112    0.0000 C   0  0  0  0  0  0  0  0  0  0  0  0
   -4.5386    3.2487    0.0000 O   0  0  0  0  0  0  0  0  0  0  0  0
   -7.1069    2.8565    0.0000 O   0  0  0  0  0  0  0  0  0  0  0  0
   -2.4620   -1.7451    0.0000 C   0  0  0  0  0  0  0  0  0  0  0  0
   -2.0818   -3.1961    0.0000 C   0  0  0  0  0  0  0  0  0  0  0  0
   -0.5844   -3.2830    0.0000 C   0  0  0  0  0  0  0  0  0  0  0  0
   -0.0390   -1.8856    0.0000 C   0  0  0  0  0  0  0  0  0  0  0  0
    1.3643   -1.3559    0.0000 C   0  0  0  0  0  0  0  0  0  0  0  0
    2.5248   -2.3063    0.0000 C   0  0  0  0  0  0  0  0  0  0  0  0
    2.2819   -3.7865    0.0000 F   0  0  0  0  0  0  0  0  0  0  0  0
    3.9281   -1.7765    0.0000 C   0  0  0  0  0  0  0  0  0  0  0  0
    4.1710   -0.2963    0.0000 C   0  0  0  0  0  0  0  0  0  0  0  0
    5.5743    0.2334    0.0000 C   0  0  0  0  0  0  0  0  0  0  0  0
    5.8172    1.7136    0.0000 C   0  0  0  0  0  0  0  0  0  0  0  0
    7.2205    2.2434    0.0000 O   0  0  0  0  0  0  0  0  0  0  0  0
    4.6568    2.6641    0.0000 C   0  0  0  0  0  0  0  0  0  0  0  0
    3.2534    2.1343    0.0000 C   0  0  0  0  0  0  0  0  0  0  0  0
    3.0105    0.6541    0.0000 C   0  0  0  0  0  0  0  0  0  0  0  0
    1.8501    1.6046    0.0000 C   0  0  0  0  0  0  0  0  0  0  0  0
    1.6072    0.1244    0.0000 C   0  0  0  0  0  0  0  0  0  0  0  0
    0.4467    1.0748    0.0000 C   0  0  0  0  0  0  0  0  0  0  0  0
   -0.9566    0.5450    0.0000 C   0  0  0  0  0  0  0  0  0  0  0  0
   -2.1170    1.4955    0.0000 O   0  0  0  0  0  0  0  0  0  0  0  0
   -1.1995   -0.9352    0.0000 C   0  0  0  0  0  0  0  0  0  0  0  0
   -2.4529   -0.1112    0.0000 C   0  0  0  0  0  0  0  0  0  0  0  0
  2  1  1  6
  2  3  1  0
  3  4  1  0
  4  5  1  0
  5  6  2  0
  5  7  1  0
  2  8  1  0
  8  9  1  6
  9 10  1  0
 11 10  1  6
 11 12  1  0
 12 13  1  1
 13 14  1  6
 13 15  1  0
 16 15  1  1
 16 17  1  0
 17 18  1  0
 18 19  1  1
 18 20  1  0
 20 21  1  0
 21 22  1  0
 22 23  1  6
 22 24  1  0
 24 25  1  6
 25 26  1  0
 26 27  1  6
 26 28  1  0
 28 29  1  6
 28  8  1  0
 28 11  1  0
 24 12  1  0
 22 16  1  0
M  END
>  <MS_ID>  (1863) 
MS1932

>  <SMILES>  (1863) 
C[C@H](CCC(=O)O)[C@H]1CC[C@H]2[C@@H]3[C@@H](F)C[C@@H]4C[C@H](O)CC[C@]4(C)[C@H]3C[C@@H](O)[C@]12C

>  <Structure_dimension>  (1863) 
2D

$$$$
MS1933
     RDKit          2D

 34 37  0  0  0  0  0  0  0  0999 V2000
   -2.0431   -4.2971    0.0000 C   0  0  0  0  0  0  0  0  0  0  0  0
   -1.3315   -2.9767    0.0000 C   0  0  0  0  0  0  0  0  0  0  0  0
   -2.1193   -1.7002    0.0000 C   0  0  0  0  0  0  0  0  0  0  0  0
   -3.6187   -1.7442    0.0000 C   0  0  0  0  0  0  0  0  0  0  0  0
   -4.4064   -0.4677    0.0000 C   0  0  0  0  0  0  0  0  0  0  0  0
   -3.6948    0.8528    0.0000 O   0  0  0  0  0  0  0  0  0  0  0  0
   -5.9058   -0.5117    0.0000 N   0  0  0  0  0  0  0  0  0  0  0  0
   -6.6936    0.7648    0.0000 C   0  0  0  0  0  0  0  0  0  0  0  0
   -8.1929    0.7208    0.0000 C   0  0  0  0  0  0  0  0  0  0  0  0
   -8.9807    1.9973    0.0000 S   0  0  0  0  0  0  0  0  0  0  0  0
   -9.7684    3.2738    0.0000 O   0  0  0  0  0  0  0  0  0  0  0  0
  -10.2572    1.2096    0.0000 O   0  0  0  0  0  0  0  0  0  0  0  0
   -7.7042    2.7851    0.0000 S   0  0  0  0  0  0  0  0  0  0  0  0
    0.1678   -2.9327    0.0000 C   0  0  0  0  0  0  0  0  0  0  0  0
    1.0847   -4.1198    0.0000 C   0  0  0  0  0  0  0  0  0  0  0  0
    2.4971   -3.6147    0.0000 C   0  0  0  0  0  0  0  0  0  0  0  0
    2.4531   -2.1153    0.0000 C   0  0  0  0  0  0  0  0  0  0  0  0
    3.5379   -1.0794    0.0000 C   0  0  0  0  0  0  0  0  0  0  0  0
    4.9775   -1.5009    0.0000 C   0  0  0  0  0  0  0  0  0  0  0  0
    5.3322   -2.9583    0.0000 O   0  0  0  0  0  0  0  0  0  0  0  0
    6.0623   -0.4649    0.0000 C   0  0  0  0  0  0  0  0  0  0  0  0
    5.7075    0.9925    0.0000 C   0  0  0  0  0  0  0  0  0  0  0  0
    6.7923    2.0285    0.0000 C   0  0  0  0  0  0  0  0  0  0  0  0
    6.4376    3.4859    0.0000 C   0  0  0  0  0  0  0  0  0  0  0  0
    7.5224    4.5219    0.0000 O   0  0  0  0  0  0  0  0  0  0  0  0
    4.9980    3.9074    0.0000 C   0  0  0  0  0  0  0  0  0  0  0  0
    3.9132    2.8715    0.0000 C   0  0  0  0  0  0  0  0  0  0  0  0
    4.2680    1.4140    0.0000 C   0  0  0  0  0  0  0  0  0  0  0  0
    2.8284    1.8355    0.0000 C   0  0  0  0  0  0  0  0  0  0  0  0
    3.1831    0.3781    0.0000 C   0  0  0  0  0  0  0  0  0  0  0  0
    1.7436    0.7996    0.0000 C   0  0  0  0  0  0  0  0  0  0  0  0
    0.6588   -0.2364    0.0000 C   0  0  0  0  0  0  0  0  0  0  0  0
    1.0135   -1.6938    0.0000 C   0  0  0  0  0  0  0  0  0  0  0  0
   -0.4622   -1.4251    0.0000 C   0  0  0  0  0  0  0  0  0  0  0  0
  2  1  1  6
  2  3  1  0
  3  4  1  0
  4  5  1  0
  5  6  2  0
  5  7  1  0
  7  8  1  0
  8  9  1  0
  9 10  1  0
 10 11  2  0
 10 12  2  0
 10 13  1  0
  2 14  1  0
 14 15  1  6
 15 16  1  0
 17 16  1  6
 17 18  1  0
 18 19  1  1
 19 20  1  1
 19 21  1  0
 22 21  1  1
 22 23  1  0
 23 24  1  0
 24 25  1  1
 24 26  1  0
 26 27  1  0
 27 28  1  0
 28 29  1  6
 28 30  1  0
 30 31  1  6
 31 32  1  0
 32 33  1  0
 33 34  1  6
 33 14  1  0
 33 17  1  0
 30 18  1  0
 28 22  1  0
M  END
>  <MS_ID>  (1864) 
MS1933

>  <SMILES>  (1864) 
C[C@H](CCC(=O)NCCS(=O)(=O)S)[C@H]1CC[C@H]2[C@@H]3[C@H](O)C[C@@H]4C[C@H](O)CC[C@]4(C)[C@H]3CC[C@]12C

>  <Structure_dimension>  (1864) 
2D

$$$$
MS1934
     RDKit          2D

 33 36  0  0  0  0  0  0  0  0999 V2000
   -6.7983   -1.8285    0.0000 C   0  0  0  0  0  0  0  0  0  0  0  0
   -5.5727   -0.9636    0.0000 C   0  0  0  0  0  0  0  0  0  0  0  0
   -5.7089    0.5302    0.0000 C   0  0  0  0  0  0  0  0  0  0  0  0
   -7.0707    1.1591    0.0000 C   0  0  0  0  0  0  0  0  0  0  0  0
   -7.2069    2.6529    0.0000 C   0  0  0  0  0  0  0  0  0  0  0  0
   -5.9813    3.5178    0.0000 O   0  0  0  0  0  0  0  0  0  0  0  0
   -8.5686    3.2819    0.0000 O   0  0  0  0  0  0  0  0  0  0  0  0
   -4.2110   -1.5926    0.0000 C   0  0  0  0  0  0  0  0  0  0  0  0
   -3.9194   -3.0640    0.0000 C   0  0  0  0  0  0  0  0  0  0  0  0
   -2.4299   -3.2413    0.0000 C   0  0  0  0  0  0  0  0  0  0  0  0
   -1.8009   -1.8796    0.0000 C   0  0  0  0  0  0  0  0  0  0  0  0
   -0.3681   -1.4358    0.0000 C   0  0  0  0  0  0  0  0  0  0  0  0
    0.7327   -2.4548    0.0000 C   0  0  0  0  0  0  0  0  0  0  0  0
    0.4006   -3.9175    0.0000 O   0  0  0  0  0  0  0  0  0  0  0  0
    2.1655   -2.0110    0.0000 C   0  0  0  0  0  0  0  0  0  0  0  0
    2.4976   -0.5482    0.0000 C   0  0  0  0  0  0  0  0  0  0  0  0
    3.9305   -0.1044    0.0000 C   0  0  0  0  0  0  0  0  0  0  0  0
    4.2625    1.3584    0.0000 C   0  0  0  0  0  0  0  0  0  0  0  0
    5.6954    1.8022    0.0000 O   0  0  0  0  0  0  0  0  0  0  0  0
    6.7961    0.7832    0.0000 C   0  0  0  0  0  0  0  0  0  0  0  0
    8.2290    1.2270    0.0000 C   0  0  0  0  0  0  0  0  0  0  0  0
    9.3298    0.2080    0.0000 C   0  0  0  0  0  0  0  0  0  0  0  0
    8.9977   -1.2548    0.0000 O   0  0  0  0  0  0  0  0  0  0  0  0
   10.7626    0.6518    0.0000 O   0  0  0  0  0  0  0  0  0  0  0  0
    3.1618    2.3773    0.0000 C   0  0  0  0  0  0  0  0  0  0  0  0
    1.7289    1.9336    0.0000 C   0  0  0  0  0  0  0  0  0  0  0  0
    1.3969    0.4708    0.0000 C   0  0  0  0  0  0  0  0  0  0  0  0
    0.2961    1.4898    0.0000 C   0  0  0  0  0  0  0  0  0  0  0  0
   -0.0360    0.0270    0.0000 C   0  0  0  0  0  0  0  0  0  0  0  0
   -1.1368    1.0460    0.0000 C   0  0  0  0  0  0  0  0  0  0  0  0
   -2.5696    0.6022    0.0000 C   0  0  0  0  0  0  0  0  0  0  0  0
   -2.9017   -0.8606    0.0000 C   0  0  0  0  0  0  0  0  0  0  0  0
   -4.1029    0.0378    0.0000 C   0  0  0  0  0  0  0  0  0  0  0  0
  2  1  1  6
  2  3  1  0
  3  4  1  0
  4  5  1  0
  5  6  2  0
  5  7  1  0
  2  8  1  0
  8  9  1  6
  9 10  1  0
 11 10  1  6
 11 12  1  0
 12 13  1  1
 13 14  1  6
 13 15  1  0
 16 15  1  1
 16 17  1  0
 17 18  1  0
 18 19  1  1
 19 20  1  0
 20 21  1  0
 21 22  1  0
 22 23  2  0
 22 24  1  0
 18 25  1  0
 25 26  1  0
 26 27  1  0
 27 28  1  6
 27 29  1  0
 29 30  1  6
 30 31  1  0
 31 32  1  0
 32 33  1  6
 32  8  1  0
 32 11  1  0
 29 12  1  0
 27 16  1  0
M  END
>  <MS_ID>  (1865) 
MS1934

>  <SMILES>  (1865) 
C[C@H](CCC(=O)O)[C@H]1CC[C@H]2[C@@H]3[C@@H](O)C[C@@H]4C[C@H](OCCC(=O)O)CC[C@]4(C)[C@H]3CC[C@]12C

>  <Structure_dimension>  (1865) 
2D

$$$$
MS1935
     RDKit          2D

 27 30  0  0  0  0  0  0  0  0999 V2000
   -4.6206   -2.3136    0.0000 C   0  0  0  0  0  0  0  0  0  0  0  0
   -3.4741   -1.3464    0.0000 C   0  0  0  0  0  0  0  0  0  0  0  0
   -3.7384    0.1301    0.0000 C   0  0  0  0  0  0  0  0  0  0  0  0
   -5.1493    0.6394    0.0000 C   0  0  0  0  0  0  0  0  0  0  0  0
   -5.4136    2.1160    0.0000 C   0  0  0  0  0  0  0  0  0  0  0  0
   -6.8245    2.6253    0.0000 O   0  0  0  0  0  0  0  0  0  0  0  0
   -4.2671    3.0832    0.0000 S   0  0  0  0  0  0  0  0  0  0  0  0
   -2.0632   -1.8558    0.0000 C   0  0  0  0  0  0  0  0  0  0  0  0
   -1.6459   -3.2966    0.0000 C   0  0  0  0  0  0  0  0  0  0  0  0
   -0.1467   -3.3450    0.0000 C   0  0  0  0  0  0  0  0  0  0  0  0
    0.3626   -1.9341    0.0000 C   0  0  0  0  0  0  0  0  0  0  0  0
    1.7519   -1.3686    0.0000 C   0  0  0  0  0  0  0  0  0  0  0  0
    2.9363   -2.2890    0.0000 C   0  0  0  0  0  0  0  0  0  0  0  0
    4.3256   -1.7234    0.0000 C   0  0  0  0  0  0  0  0  0  0  0  0
    4.5305   -0.2375    0.0000 C   0  0  0  0  0  0  0  0  0  0  0  0
    5.9198    0.3281    0.0000 C   0  0  0  0  0  0  0  0  0  0  0  0
    6.1247    1.8140    0.0000 C   0  0  0  0  0  0  0  0  0  0  0  0
    4.9402    2.7344    0.0000 C   0  0  0  0  0  0  0  0  0  0  0  0
    3.5509    2.1689    0.0000 C   0  0  0  0  0  0  0  0  0  0  0  0
    3.3461    0.6829    0.0000 C   0  0  0  0  0  0  0  0  0  0  0  0
    2.1616    1.6033    0.0000 C   0  0  0  0  0  0  0  0  0  0  0  0
    1.9568    0.1174    0.0000 C   0  0  0  0  0  0  0  0  0  0  0  0
    0.7723    1.0378    0.0000 C   0  0  0  0  0  0  0  0  0  0  0  0
   -0.6170    0.4722    0.0000 C   0  0  0  0  0  0  0  0  0  0  0  0
   -1.8014    1.3926    0.0000 O   0  0  0  0  0  0  0  0  0  0  0  0
   -0.8218   -1.0137    0.0000 C   0  0  0  0  0  0  0  0  0  0  0  0
   -2.0960   -0.2222    0.0000 C   0  0  0  0  0  0  0  0  0  0  0  0
  2  1  1  6
  2  3  1  0
  3  4  1  0
  4  5  1  0
  5  6  2  0
  5  7  1  0
  2  8  1  0
  8  9  1  6
  9 10  1  0
 11 10  1  6
 11 12  1  0
 12 13  1  1
 13 14  1  0
 15 14  1  1
 15 16  1  0
 16 17  1  0
 17 18  1  0
 18 19  1  0
 19 20  1  0
 20 21  1  6
 20 22  1  0
 22 23  1  6
 23 24  1  0
 24 25  1  1
 24 26  1  0
 26 27  1  6
 26  8  1  0
 26 11  1  0
 22 12  1  0
 20 15  1  0
M  END
>  <MS_ID>  (1866) 
MS1935

>  <SMILES>  (1866) 
C[C@H](CCC(=O)S)[C@H]1CC[C@H]2[C@@H]3CC[C@@H]4CCCC[C@]4(C)[C@H]3C[C@H](O)[C@]12C

>  <Structure_dimension>  (1866) 
2D

$$$$
MS1936
     RDKit          2D

 29 32  0  0  0  0  0  0  0  0999 V2000
   -5.8148   -1.8766    0.0000 C   0  0  0  0  0  0  0  0  0  0  0  0
   -4.5744   -1.0332    0.0000 C   0  0  0  0  0  0  0  0  0  0  0  0
   -4.6847    0.4628    0.0000 C   0  0  0  0  0  0  0  0  0  0  0  0
   -6.0353    1.1152    0.0000 C   0  0  0  0  0  0  0  0  0  0  0  0
   -6.1456    2.6112    0.0000 C   0  0  0  0  0  0  0  0  0  0  0  0
   -4.9052    3.4546    0.0000 O   0  0  0  0  0  0  0  0  0  0  0  0
   -7.4963    3.2637    0.0000 O   0  0  0  0  0  0  0  0  0  0  0  0
   -3.2238   -1.6857    0.0000 C   0  0  0  0  0  0  0  0  0  0  0  0
   -2.9577   -3.1619    0.0000 C   0  0  0  0  0  0  0  0  0  0  0  0
   -1.4715   -3.3650    0.0000 C   0  0  0  0  0  0  0  0  0  0  0  0
   -0.8191   -2.0144    0.0000 C   0  0  0  0  0  0  0  0  0  0  0  0
    0.6213   -1.5955    0.0000 C   0  0  0  0  0  0  0  0  0  0  0  0
    1.7042   -2.6334    0.0000 C   0  0  0  0  0  0  0  0  0  0  0  0
    3.1445   -2.2145    0.0000 C   0  0  0  0  0  0  0  0  0  0  0  0
    3.5019   -0.7578    0.0000 C   0  0  0  0  0  0  0  0  0  0  0  0
    4.9422   -0.3389    0.0000 C   0  0  0  0  0  0  0  0  0  0  0  0
    5.2996    1.1179    0.0000 C   0  0  0  0  0  0  0  0  0  0  0  0
    6.7400    1.5368    0.0000 C   0  0  0  0  0  0  0  0  0  0  0  0
    7.8229    0.4989    0.0000 C   0  0  0  0  0  0  0  0  0  0  0  0
    9.2632    0.9178    0.0000 O   0  0  0  0  0  0  0  0  0  0  0  0
    4.2167    2.1558    0.0000 C   0  0  0  0  0  0  0  0  0  0  0  0
    2.7764    1.7370    0.0000 C   0  0  0  0  0  0  0  0  0  0  0  0
    2.4190    0.2802    0.0000 C   0  0  0  0  0  0  0  0  0  0  0  0
    1.3361    1.3181    0.0000 C   0  0  0  0  0  0  0  0  0  0  0  0
    0.9787   -0.1387    0.0000 C   0  0  0  0  0  0  0  0  0  0  0  0
   -0.1043    0.8992    0.0000 C   0  0  0  0  0  0  0  0  0  0  0  0
   -1.5446    0.4803    0.0000 C   0  0  0  0  0  0  0  0  0  0  0  0
   -1.9020   -0.9765    0.0000 C   0  0  0  0  0  0  0  0  0  0  0  0
   -3.0875   -0.0574    0.0000 C   0  0  0  0  0  0  0  0  0  0  0  0
  2  1  1  6
  2  3  1  0
  3  4  1  0
  4  5  1  0
  5  6  2  0
  5  7  1  0
  2  8  1  0
  8  9  1  6
  9 10  1  0
 11 10  1  6
 11 12  1  0
 12 13  1  1
 13 14  1  0
 15 14  1  1
 15 16  1  0
 16 17  1  0
 17 18  1  1
 18 19  1  0
 19 20  1  0
 17 21  1  0
 21 22  1  0
 22 23  1  0
 23 24  1  6
 23 25  1  0
 25 26  1  6
 26 27  1  0
 27 28  1  0
 28 29  1  6
 28  8  1  0
 28 11  1  0
 25 12  1  0
 23 15  1  0
M  END
>  <MS_ID>  (1867) 
MS1936

>  <SMILES>  (1867) 
C[C@H](CCC(=O)O)[C@H]1CC[C@H]2[C@@H]3CC[C@@H]4C[C@H](CCO)CC[C@]4(C)[C@H]3CC[C@]12C

>  <Structure_dimension>  (1867) 
2D

$$$$
MS1937
     RDKit          2D

 29 32  0  0  0  0  0  0  0  0999 V2000
   -5.2182   -2.1453    0.0000 C   0  0  0  0  0  0  0  0  0  0  0  0
   -4.0752   -1.1739    0.0000 C   0  0  0  0  0  0  0  0  0  0  0  0
   -4.3449    0.3016    0.0000 C   0  0  0  0  0  0  0  0  0  0  0  0
   -5.7577    0.8058    0.0000 C   0  0  0  0  0  0  0  0  0  0  0  0
   -6.0274    2.2814    0.0000 C   0  0  0  0  0  0  0  0  0  0  0  0
   -4.8843    3.2527    0.0000 O   0  0  0  0  0  0  0  0  0  0  0  0
   -7.4401    2.7856    0.0000 O   0  0  0  0  0  0  0  0  0  0  0  0
   -2.6625   -1.6782    0.0000 C   0  0  0  0  0  0  0  0  0  0  0  0
   -2.2400   -3.1174    0.0000 C   0  0  0  0  0  0  0  0  0  0  0  0
   -0.7407   -3.1604    0.0000 C   0  0  0  0  0  0  0  0  0  0  0  0
   -0.2364   -1.7477    0.0000 C   0  0  0  0  0  0  0  0  0  0  0  0
    1.1508   -1.1771    0.0000 C   0  0  0  0  0  0  0  0  0  0  0  0
    2.3386   -2.0932    0.0000 C   0  0  0  0  0  0  0  0  0  0  0  0
    2.1391   -3.5798    0.0000 O   0  0  0  0  0  0  0  0  0  0  0  0
    3.7258   -1.5226    0.0000 C   0  0  0  0  0  0  0  0  0  0  0  0
    4.9136   -2.4386    0.0000 Cl  0  0  0  0  0  0  0  0  0  0  0  0
    3.9253   -0.0359    0.0000 C   0  0  0  0  0  0  0  0  0  0  0  0
    5.3125    0.5347    0.0000 C   0  0  0  0  0  0  0  0  0  0  0  0
    5.5119    2.0214    0.0000 C   0  0  0  0  0  0  0  0  0  0  0  0
    6.8992    2.5920    0.0000 O   0  0  0  0  0  0  0  0  0  0  0  0
    4.3242    2.9375    0.0000 C   0  0  0  0  0  0  0  0  0  0  0  0
    2.9369    2.3669    0.0000 C   0  0  0  0  0  0  0  0  0  0  0  0
    2.7375    0.8802    0.0000 C   0  0  0  0  0  0  0  0  0  0  0  0
    1.5497    1.7963    0.0000 C   0  0  0  0  0  0  0  0  0  0  0  0
    1.3502    0.3096    0.0000 C   0  0  0  0  0  0  0  0  0  0  0  0
    0.1625    1.2257    0.0000 C   0  0  0  0  0  0  0  0  0  0  0  0
   -1.2248    0.6551    0.0000 C   0  0  0  0  0  0  0  0  0  0  0  0
   -1.4242   -0.8316    0.0000 C   0  0  0  0  0  0  0  0  0  0  0  0
   -2.7012   -0.0447    0.0000 C   0  0  0  0  0  0  0  0  0  0  0  0
  2  1  1  6
  2  3  1  0
  3  4  1  0
  4  5  1  0
  5  6  2  0
  5  7  1  0
  2  8  1  0
  8  9  1  6
  9 10  1  0
 11 10  1  6
 11 12  1  0
 12 13  1  1
 13 14  1  6
 13 15  1  0
 15 16  1  1
 15 17  1  0
 17 18  1  1
 18 19  1  0
 19 20  1  1
 19 21  1  0
 21 22  1  0
 22 23  1  0
 23 24  1  6
 23 25  1  0
 25 26  1  6
 26 27  1  0
 27 28  1  0
 28 29  1  6
 28  8  1  0
 28 11  1  0
 25 12  1  0
 23 17  1  0
M  END
>  <MS_ID>  (1868) 
MS1937

>  <SMILES>  (1868) 
C[C@H](CCC(=O)O)[C@H]1CC[C@H]2[C@@H]3[C@@H](O)[C@H](Cl)[C@@H]4C[C@H](O)CC[C@]4(C)[C@H]3CC[C@]12C

>  <Structure_dimension>  (1868) 
2D

$$$$
MS1938
     RDKit          2D

 36 39  0  0  0  0  0  0  0  0999 V2000
   -5.9437    4.5477    0.0000 C   0  0  0  0  0  0  0  0  0  0  0  0
   -6.6525    3.2257    0.0000 O   0  0  0  0  0  0  0  0  0  0  0  0
   -5.8620    1.9509    0.0000 C   0  0  0  0  0  0  0  0  0  0  0  0
   -4.3628    1.9980    0.0000 O   0  0  0  0  0  0  0  0  0  0  0  0
   -6.5708    0.6289    0.0000 C   0  0  0  0  0  0  0  0  0  0  0  0
   -5.7803   -0.6459    0.0000 N   0  0  0  0  0  0  0  0  0  0  0  0
   -4.2811   -0.5987    0.0000 C   0  0  0  0  0  0  0  0  0  0  0  0
   -3.5723    0.7232    0.0000 O   0  0  0  0  0  0  0  0  0  0  0  0
   -3.4906   -1.8736    0.0000 C   0  0  0  0  0  0  0  0  0  0  0  0
   -1.9913   -1.8264    0.0000 C   0  0  0  0  0  0  0  0  0  0  0  0
   -1.2009   -3.1012    0.0000 C   0  0  0  0  0  0  0  0  0  0  0  0
   -1.9096   -4.4232    0.0000 C   0  0  0  0  0  0  0  0  0  0  0  0
    0.2984   -3.0540    0.0000 C   0  0  0  0  0  0  0  0  0  0  0  0
    1.2178   -4.2392    0.0000 C   0  0  0  0  0  0  0  0  0  0  0  0
    2.6291   -3.7311    0.0000 C   0  0  0  0  0  0  0  0  0  0  0  0
    2.5819   -2.2318    0.0000 C   0  0  0  0  0  0  0  0  0  0  0  0
    3.6645   -1.1936    0.0000 C   0  0  0  0  0  0  0  0  0  0  0  0
    5.1050   -1.6120    0.0000 C   0  0  0  0  0  0  0  0  0  0  0  0
    5.4628   -3.0687    0.0000 O   0  0  0  0  0  0  0  0  0  0  0  0
    6.1876   -0.5737    0.0000 C   0  0  0  0  0  0  0  0  0  0  0  0
    5.8297    0.8829    0.0000 C   0  0  0  0  0  0  0  0  0  0  0  0
    6.9123    1.9212    0.0000 C   0  0  0  0  0  0  0  0  0  0  0  0
    6.5545    3.3779    0.0000 C   0  0  0  0  0  0  0  0  0  0  0  0
    7.6371    4.4161    0.0000 O   0  0  0  0  0  0  0  0  0  0  0  0
    5.1140    3.7963    0.0000 C   0  0  0  0  0  0  0  0  0  0  0  0
    4.0314    2.7581    0.0000 C   0  0  0  0  0  0  0  0  0  0  0  0
    4.3893    1.3014    0.0000 C   0  0  0  0  0  0  0  0  0  0  0  0
    2.9488    1.7198    0.0000 C   0  0  0  0  0  0  0  0  0  0  0  0
    3.3067    0.2631    0.0000 C   0  0  0  0  0  0  0  0  0  0  0  0
    1.8662    0.6816    0.0000 C   0  0  0  0  0  0  0  0  0  0  0  0
    0.7836   -0.3567    0.0000 C   0  0  0  0  0  0  0  0  0  0  0  0
    1.1415   -1.8134    0.0000 C   0  0  0  0  0  0  0  0  0  0  0  0
   -0.3348   -1.5478    0.0000 C   0  0  0  0  0  0  0  0  0  0  0  0
   -8.0701    0.5817    0.0000 C   0  0  0  0  0  0  0  0  0  0  0  0
   -8.8606    1.8565    0.0000 C   0  0  0  0  0  0  0  0  0  0  0  0
   -8.7789   -0.7403    0.0000 C   0  0  0  0  0  0  0  0  0  0  0  0
  1  2  1  0
  2  3  1  0
  3  4  2  0
  3  5  1  0
  5  6  1  1
  6  7  1  0
  7  8  2  0
  7  9  1  0
  9 10  1  0
 10 11  1  0
 11 12  1  6
 11 13  1  0
 13 14  1  6
 14 15  1  0
 16 15  1  6
 16 17  1  0
 17 18  1  1
 18 19  1  1
 18 20  1  0
 21 20  1  1
 21 22  1  0
 22 23  1  0
 23 24  1  1
 23 25  1  0
 25 26  1  0
 26 27  1  0
 27 28  1  6
 27 29  1  0
 29 30  1  6
 30 31  1  0
 31 32  1  0
 32 33  1  6
  5 34  1  0
 34 35  1  0
 34 36  1  0
 32 13  1  0
 32 16  1  0
 29 17  1  0
 27 21  1  0
M  END
>  <MS_ID>  (1869) 
MS1938

>  <SMILES>  (1869) 
COC(=O)[C@@H](NC(=O)CC[C@@H](C)[C@H]1CC[C@H]2[C@@H]3[C@H](O)C[C@@H]4C[C@H](O)CC[C@]4(C)[C@H]3CC[C@]12C)C(C)C

>  <Structure_dimension>  (1869) 
2D

$$$$
MS1940
     RDKit          2D

 35 38  0  0  0  0  0  0  0  0999 V2000
   -1.7362   -4.3228    0.0000 C   0  0  0  0  0  0  0  0  0  0  0  0
   -0.9878   -3.0228    0.0000 C   0  0  0  0  0  0  0  0  0  0  0  0
   -1.7394   -1.7247    0.0000 C   0  0  0  0  0  0  0  0  0  0  0  0
   -3.2394   -1.7265    0.0000 C   0  0  0  0  0  0  0  0  0  0  0  0
   -3.9910   -0.4284    0.0000 C   0  0  0  0  0  0  0  0  0  0  0  0
   -3.2426    0.8715    0.0000 O   0  0  0  0  0  0  0  0  0  0  0  0
   -5.4910   -0.4303    0.0000 C   0  0  0  0  0  0  0  0  0  0  0  0
   -6.2426    0.8679    0.0000 N   0  0  0  0  0  0  0  0  0  0  0  0
   -7.7426    0.8660    0.0000 C   0  0  0  0  0  0  0  0  0  0  0  0
   -8.4910   -0.4339    0.0000 O   0  0  0  0  0  0  0  0  0  0  0  0
   -8.4942    2.1641    0.0000 C   0  0  0  0  0  0  0  0  0  0  0  0
   -9.2458    3.4622    0.0000 F   0  0  0  0  0  0  0  0  0  0  0  0
   -9.7923    1.4125    0.0000 F   0  0  0  0  0  0  0  0  0  0  0  0
   -7.1960    2.9157    0.0000 F   0  0  0  0  0  0  0  0  0  0  0  0
    0.5122   -3.0210    0.0000 C   0  0  0  0  0  0  0  0  0  0  0  0
    1.3954   -4.2334    0.0000 C   0  0  0  0  0  0  0  0  0  0  0  0
    2.8214   -3.7681    0.0000 C   0  0  0  0  0  0  0  0  0  0  0  0
    2.8196   -2.2681    0.0000 C   0  0  0  0  0  0  0  0  0  0  0  0
    3.9330   -1.2631    0.0000 C   0  0  0  0  0  0  0  0  0  0  0  0
    5.3602   -1.7248    0.0000 C   0  0  0  0  0  0  0  0  0  0  0  0
    6.4737   -0.7198    0.0000 C   0  0  0  0  0  0  0  0  0  0  0  0
    6.1600    0.7471    0.0000 C   0  0  0  0  0  0  0  0  0  0  0  0
    7.2735    1.7521    0.0000 C   0  0  0  0  0  0  0  0  0  0  0  0
    6.9598    3.2190    0.0000 C   0  0  0  0  0  0  0  0  0  0  0  0
    8.0733    4.2240    0.0000 O   0  0  0  0  0  0  0  0  0  0  0  0
    5.5327    3.6807    0.0000 C   0  0  0  0  0  0  0  0  0  0  0  0
    4.4192    2.6757    0.0000 C   0  0  0  0  0  0  0  0  0  0  0  0
    4.7329    1.2088    0.0000 C   0  0  0  0  0  0  0  0  0  0  0  0
    3.3057    1.6706    0.0000 C   0  0  0  0  0  0  0  0  0  0  0  0
    3.6194    0.2038    0.0000 C   0  0  0  0  0  0  0  0  0  0  0  0
    2.1922    0.6656    0.0000 C   0  0  0  0  0  0  0  0  0  0  0  0
    1.0787   -0.3395    0.0000 C   0  0  0  0  0  0  0  0  0  0  0  0
   -0.3484    0.1223    0.0000 O   0  0  0  0  0  0  0  0  0  0  0  0
    1.3924   -1.8063    0.0000 C   0  0  0  0  0  0  0  0  0  0  0  0
   -0.0752   -1.4963    0.0000 C   0  0  0  0  0  0  0  0  0  0  0  0
  2  1  1  6
  2  3  1  0
  3  4  1  0
  4  5  1  0
  5  6  2  0
  5  7  1  0
  7  8  1  0
  8  9  1  0
  9 10  2  0
  9 11  1  0
 11 12  1  0
 11 13  1  0
 11 14  1  0
  2 15  1  0
 15 16  1  6
 16 17  1  0
 18 17  1  6
 18 19  1  0
 19 20  1  1
 20 21  1  0
 22 21  1  1
 22 23  1  0
 23 24  1  0
 24 25  1  1
 24 26  1  0
 26 27  1  0
 27 28  1  0
 28 29  1  6
 28 30  1  0
 30 31  1  6
 31 32  1  0
 32 33  1  1
 32 34  1  0
 34 35  1  6
 34 15  1  0
 34 18  1  0
 30 19  1  0
 28 22  1  0
M  END
>  <MS_ID>  (1870) 
MS1940

>  <SMILES>  (1870) 
C[C@H](CCC(=O)CNC(=O)C(F)(F)F)[C@H]1CC[C@H]2[C@@H]3CC[C@@H]4C[C@H](O)CC[C@]4(C)[C@H]3C[C@H](O)[C@]12C

>  <Structure_dimension>  (1870) 
2D

$$$$
MS1941
     RDKit          2D

 37 41  0  0  0  0  0  0  0  0999 V2000
   -1.4739   -4.1062    0.0000 C   0  0  0  0  0  0  0  0  0  0  0  0
   -0.7139   -2.8129    0.0000 C   0  0  0  0  0  0  0  0  0  0  0  0
   -1.4539   -1.5082    0.0000 C   0  0  0  0  0  0  0  0  0  0  0  0
   -2.9539   -1.4966    0.0000 C   0  0  0  0  0  0  0  0  0  0  0  0
   -3.6939   -0.1919    0.0000 C   0  0  0  0  0  0  0  0  0  0  0  0
   -2.9339    1.1014    0.0000 O   0  0  0  0  0  0  0  0  0  0  0  0
   -5.1938   -0.1803    0.0000 O   0  0  0  0  0  0  0  0  0  0  0  0
   -5.9338    1.1245    0.0000 C   0  0  0  0  0  0  0  0  0  0  0  0
   -7.4337    1.1360    0.0000 C   0  0  0  0  0  0  0  0  0  0  0  0
   -8.1737    2.4408    0.0000 C   0  0  0  0  0  0  0  0  0  0  0  0
   -9.6737    2.4523    0.0000 C   0  0  0  0  0  0  0  0  0  0  0  0
  -10.4336    1.1591    0.0000 C   0  0  0  0  0  0  0  0  0  0  0  0
  -11.9336    1.1707    0.0000 O   0  0  0  0  0  0  0  0  0  0  0  0
   -9.6937   -0.1457    0.0000 C   0  0  0  0  0  0  0  0  0  0  0  0
   -8.1937   -0.1572    0.0000 C   0  0  0  0  0  0  0  0  0  0  0  0
    0.7860   -2.8245    0.0000 C   0  0  0  0  0  0  0  0  0  0  0  0
    1.6583   -4.0448    0.0000 C   0  0  0  0  0  0  0  0  0  0  0  0
    3.0884   -3.5922    0.0000 C   0  0  0  0  0  0  0  0  0  0  0  0
    3.1000   -2.0923    0.0000 C   0  0  0  0  0  0  0  0  0  0  0  0
    4.2224   -1.0972    0.0000 C   0  0  0  0  0  0  0  0  0  0  0  0
    5.6454   -1.5717    0.0000 C   0  0  0  0  0  0  0  0  0  0  0  0
    5.9459   -3.0413    0.0000 O   0  0  0  0  0  0  0  0  0  0  0  0
    6.7678   -0.5766    0.0000 C   0  0  0  0  0  0  0  0  0  0  0  0
    6.4672    0.8930    0.0000 C   0  0  0  0  0  0  0  0  0  0  0  0
    7.5896    1.8880    0.0000 C   0  0  0  0  0  0  0  0  0  0  0  0
    7.2891    3.3576    0.0000 C   0  0  0  0  0  0  0  0  0  0  0  0
    8.4115    4.3527    0.0000 O   0  0  0  0  0  0  0  0  0  0  0  0
    5.8661    3.8321    0.0000 C   0  0  0  0  0  0  0  0  0  0  0  0
    4.7437    2.8370    0.0000 C   0  0  0  0  0  0  0  0  0  0  0  0
    5.0442    1.3675    0.0000 C   0  0  0  0  0  0  0  0  0  0  0  0
    3.6213    1.8420    0.0000 C   0  0  0  0  0  0  0  0  0  0  0  0
    3.9218    0.3724    0.0000 C   0  0  0  0  0  0  0  0  0  0  0  0
    2.4989    0.8469    0.0000 C   0  0  0  0  0  0  0  0  0  0  0  0
    1.3764   -0.1482    0.0000 C   0  0  0  0  0  0  0  0  0  0  0  0
   -0.0465    0.3263    0.0000 O   0  0  0  0  0  0  0  0  0  0  0  0
    1.6770   -1.6178    0.0000 C   0  0  0  0  0  0  0  0  0  0  0  0
    0.2122   -1.2946    0.0000 C   0  0  0  0  0  0  0  0  0  0  0  0
  2  1  1  6
  2  3  1  0
  3  4  1  0
  4  5  1  0
  5  6  2  0
  5  7  1  0
  7  8  1  0
  8  9  1  0
  9 10  2  0
 10 11  1  0
 11 12  2  0
 12 13  1  0
 12 14  1  0
 14 15  2  0
  2 16  1  0
 16 17  1  6
 17 18  1  0
 19 18  1  6
 19 20  1  0
 20 21  1  1
 21 22  1  1
 21 23  1  0
 24 23  1  1
 24 25  1  0
 25 26  1  0
 26 27  1  1
 26 28  1  0
 28 29  1  0
 29 30  1  0
 30 31  1  6
 30 32  1  0
 32 33  1  6
 33 34  1  0
 34 35  1  1
 34 36  1  0
 36 37  1  6
 15  9  1  0
 36 16  1  0
 36 19  1  0
 32 20  1  0
 30 24  1  0
M  END
>  <MS_ID>  (1871) 
MS1941

>  <SMILES>  (1871) 
C[C@H](CCC(=O)OCc1ccc(O)cc1)[C@H]1CC[C@H]2[C@@H]3[C@H](O)C[C@@H]4C[C@H](O)CC[C@]4(C)[C@H]3C[C@H](O)[C@]12C

>  <Structure_dimension>  (1871) 
2D

$$$$
MS1942
     RDKit          2D

 31 34  0  0  0  0  0  0  0  0999 V2000
   -8.6744    3.1451    0.0000 C   0  0  0  0  0  0  0  0  0  0  0  0
   -7.2047    2.8452    0.0000 O   0  0  0  0  0  0  0  0  0  0  0  0
   -6.7296    1.4224    0.0000 C   0  0  0  0  0  0  0  0  0  0  0  0
   -7.7242    0.2996    0.0000 O   0  0  0  0  0  0  0  0  0  0  0  0
   -5.2599    1.1225    0.0000 C   0  0  0  0  0  0  0  0  0  0  0  0
   -4.2653    2.2453    0.0000 O   0  0  0  0  0  0  0  0  0  0  0  0
   -4.7848   -0.3003    0.0000 C   0  0  0  0  0  0  0  0  0  0  0  0
   -3.3151   -0.6002    0.0000 C   0  0  0  0  0  0  0  0  0  0  0  0
   -2.8400   -2.0230    0.0000 C   0  0  0  0  0  0  0  0  0  0  0  0
   -3.8346   -3.1459    0.0000 C   0  0  0  0  0  0  0  0  0  0  0  0
   -1.3703   -2.3230    0.0000 C   0  0  0  0  0  0  0  0  0  0  0  0
   -0.7490   -3.6883    0.0000 C   0  0  0  0  0  0  0  0  0  0  0  0
    0.7414   -3.5194    0.0000 C   0  0  0  0  0  0  0  0  0  0  0  0
    1.0414   -2.0497    0.0000 C   0  0  0  0  0  0  0  0  0  0  0  0
    2.3343   -1.2891    0.0000 C   0  0  0  0  0  0  0  0  0  0  0  0
    3.6393   -2.0286    0.0000 C   0  0  0  0  0  0  0  0  0  0  0  0
    3.6515   -3.5285    0.0000 O   0  0  0  0  0  0  0  0  0  0  0  0
    4.9323   -1.2680    0.0000 C   0  0  0  0  0  0  0  0  0  0  0  0
    4.9201    0.2319    0.0000 C   0  0  0  0  0  0  0  0  0  0  0  0
    6.2130    0.9924    0.0000 C   0  0  0  0  0  0  0  0  0  0  0  0
    6.2008    2.4924    0.0000 C   0  0  0  0  0  0  0  0  0  0  0  0
    7.4937    3.2529    0.0000 O   0  0  0  0  0  0  0  0  0  0  0  0
    4.8957    3.2318    0.0000 C   0  0  0  0  0  0  0  0  0  0  0  0
    3.6028    2.4713    0.0000 C   0  0  0  0  0  0  0  0  0  0  0  0
    3.6150    0.9713    0.0000 C   0  0  0  0  0  0  0  0  0  0  0  0
    2.3099    1.7108    0.0000 C   0  0  0  0  0  0  0  0  0  0  0  0
    2.3221    0.2108    0.0000 C   0  0  0  0  0  0  0  0  0  0  0  0
    1.0170    0.9502    0.0000 C   0  0  0  0  0  0  0  0  0  0  0  0
   -0.2759    0.1897    0.0000 C   0  0  0  0  0  0  0  0  0  0  0  0
   -0.2637   -1.3102    0.0000 C   0  0  0  0  0  0  0  0  0  0  0  0
   -1.6390   -0.7113    0.0000 C   0  0  0  0  0  0  0  0  0  0  0  0
  1  2  1  0
  2  3  1  0
  3  4  2  0
  3  5  1  0
  5  6  2  0
  5  7  1  0
  7  8  1  0
  8  9  1  0
  9 10  1  6
  9 11  1  0
 11 12  1  6
 12 13  1  0
 14 13  1  6
 14 15  1  0
 15 16  1  1
 16 17  1  1
 16 18  1  0
 19 18  1  1
 19 20  1  0
 20 21  1  0
 21 22  1  1
 21 23  1  0
 23 24  1  0
 24 25  1  0
 25 26  1  6
 25 27  1  0
 27 28  1  6
 28 29  1  0
 29 30  1  0
 30 31  1  6
 30 11  1  0
 30 14  1  0
 27 15  1  0
 25 19  1  0
M  END
>  <MS_ID>  (1872) 
MS1942

>  <SMILES>  (1872) 
COC(=O)C(=O)CC[C@@H](C)[C@H]1CC[C@H]2[C@@H]3[C@H](O)C[C@@H]4C[C@H](O)CC[C@]4(C)[C@H]3CC[C@]12C

>  <Structure_dimension>  (1872) 
2D

$$$$
MS1943
     RDKit          2D

 37 41  0  0  0  0  0  0  0  0999 V2000
   -1.0687   -4.5652    0.0000 C   0  0  0  0  0  0  0  0  0  0  0  0
   -0.4356   -3.2053    0.0000 C   0  0  0  0  0  0  0  0  0  0  0  0
   -1.2968   -1.9772    0.0000 C   0  0  0  0  0  0  0  0  0  0  0  0
   -2.7910   -2.1089    0.0000 C   0  0  0  0  0  0  0  0  0  0  0  0
   -3.6522   -0.8807    0.0000 C   0  0  0  0  0  0  0  0  0  0  0  0
   -3.0192    0.4792    0.0000 O   0  0  0  0  0  0  0  0  0  0  0  0
   -5.1464   -1.0124    0.0000 O   0  0  0  0  0  0  0  0  0  0  0  0
   -6.0076    0.2157    0.0000 C   0  0  0  0  0  0  0  0  0  0  0  0
   -5.3745    1.5756    0.0000 C   0  0  0  0  0  0  0  0  0  0  0  0
   -6.2357    2.8038    0.0000 C   0  0  0  0  0  0  0  0  0  0  0  0
   -7.7299    2.6721    0.0000 C   0  0  0  0  0  0  0  0  0  0  0  0
   -8.3629    1.3122    0.0000 C   0  0  0  0  0  0  0  0  0  0  0  0
   -9.8572    1.1805    0.0000 C   0  0  0  0  0  0  0  0  0  0  0  0
  -10.4902   -0.1794    0.0000 O   0  0  0  0  0  0  0  0  0  0  0  0
  -10.7183    2.4086    0.0000 O   0  0  0  0  0  0  0  0  0  0  0  0
   -7.5018    0.0840    0.0000 C   0  0  0  0  0  0  0  0  0  0  0  0
    1.0586   -3.0736    0.0000 C   0  0  0  0  0  0  0  0  0  0  0  0
    2.0434   -4.2050    0.0000 C   0  0  0  0  0  0  0  0  0  0  0  0
    3.4238   -3.6180    0.0000 C   0  0  0  0  0  0  0  0  0  0  0  0
    3.2921   -2.1238    0.0000 C   0  0  0  0  0  0  0  0  0  0  0  0
    4.3143   -1.0261    0.0000 C   0  0  0  0  0  0  0  0  0  0  0  0
    5.7761   -1.3626    0.0000 C   0  0  0  0  0  0  0  0  0  0  0  0
    6.2156   -2.7968    0.0000 O   0  0  0  0  0  0  0  0  0  0  0  0
    6.7984   -0.2649    0.0000 C   0  0  0  0  0  0  0  0  0  0  0  0
    6.3589    1.1693    0.0000 C   0  0  0  0  0  0  0  0  0  0  0  0
    7.3812    2.2670    0.0000 C   0  0  0  0  0  0  0  0  0  0  0  0
    6.9417    3.7012    0.0000 C   0  0  0  0  0  0  0  0  0  0  0  0
    7.9639    4.7989    0.0000 O   0  0  0  0  0  0  0  0  0  0  0  0
    5.4799    4.0376    0.0000 C   0  0  0  0  0  0  0  0  0  0  0  0
    4.4576    2.9399    0.0000 C   0  0  0  0  0  0  0  0  0  0  0  0
    4.8971    1.5058    0.0000 C   0  0  0  0  0  0  0  0  0  0  0  0
    3.4353    1.8422    0.0000 C   0  0  0  0  0  0  0  0  0  0  0  0
    3.8748    0.4081    0.0000 C   0  0  0  0  0  0  0  0  0  0  0  0
    2.4131    0.7445    0.0000 C   0  0  0  0  0  0  0  0  0  0  0  0
    1.3908   -0.3532    0.0000 C   0  0  0  0  0  0  0  0  0  0  0  0
    1.8303   -1.7874    0.0000 C   0  0  0  0  0  0  0  0  0  0  0  0
    0.3413   -1.6055    0.0000 C   0  0  0  0  0  0  0  0  0  0  0  0
  2  1  1  6
  2  3  1  0
  3  4  1  0
  4  5  1  0
  5  6  2  0
  5  7  1  0
  7  8  1  0
  8  9  2  0
  9 10  1  0
 10 11  2  0
 11 12  1  0
 12 13  1  0
 13 14  2  0
 13 15  1  0
 12 16  2  0
  2 17  1  0
 17 18  1  6
 18 19  1  0
 20 19  1  6
 20 21  1  0
 21 22  1  1
 22 23  1  1
 22 24  1  0
 25 24  1  1
 25 26  1  0
 26 27  1  0
 27 28  1  1
 27 29  1  0
 29 30  1  0
 30 31  1  0
 31 32  1  6
 31 33  1  0
 33 34  1  6
 34 35  1  0
 35 36  1  0
 36 37  1  6
 16  8  1  0
 36 17  1  0
 36 20  1  0
 33 21  1  0
 31 25  1  0
M  END
>  <MS_ID>  (1873) 
MS1943

>  <SMILES>  (1873) 
C[C@H](CCC(=O)Oc1cccc(C(=O)O)c1)[C@H]1CC[C@H]2[C@@H]3[C@H](O)C[C@@H]4C[C@H](O)CC[C@]4(C)[C@H]3CC[C@]12C

>  <Structure_dimension>  (1873) 
2D

$$$$
MS1944
     RDKit          2D

 31 34  0  0  0  0  0  0  0  0999 V2000
   -4.7226   -2.8601    0.0000 C   0  0  0  0  0  0  0  0  0  0  0  0
   -3.8722   -1.6245    0.0000 C   0  0  0  0  0  0  0  0  0  0  0  0
   -4.5171   -0.2702    0.0000 C   0  0  0  0  0  0  0  0  0  0  0  0
   -6.0124   -0.1515    0.0000 C   0  0  0  0  0  0  0  0  0  0  0  0
   -6.6573    1.2028    0.0000 C   0  0  0  0  0  0  0  0  0  0  0  0
   -5.8069    2.4384    0.0000 O   0  0  0  0  0  0  0  0  0  0  0  0
   -8.1526    1.3214    0.0000 O   0  0  0  0  0  0  0  0  0  0  0  0
   -2.3769   -1.7431    0.0000 C   0  0  0  0  0  0  0  0  0  0  0  0
   -1.5940   -3.0226    0.0000 C   0  0  0  0  0  0  0  0  0  0  0  0
   -0.1352   -2.6734    0.0000 C   0  0  0  0  0  0  0  0  0  0  0  0
   -0.0166   -1.1781    0.0000 C   0  0  0  0  0  0  0  0  0  0  0  0
    1.1741   -0.2657    0.0000 C   0  0  0  0  0  0  0  0  0  0  0  0
    2.5595   -0.8406    0.0000 C   0  0  0  0  0  0  0  0  0  0  0  0
    2.7543   -2.3279    0.0000 O   0  0  0  0  0  0  0  0  0  0  0  0
    4.1398   -2.9028    0.0000 S   0  0  0  0  0  0  0  0  0  0  0  0
    4.7147   -1.5174    0.0000 O   0  0  0  0  0  0  0  0  0  0  0  0
    3.5649   -4.2883    0.0000 O   0  0  0  0  0  0  0  0  0  0  0  0
    5.5252   -3.4778    0.0000 O   0  0  0  0  0  0  0  0  0  0  0  0
    3.7501    0.0717    0.0000 C   0  0  0  0  0  0  0  0  0  0  0  0
    3.5553    1.5590    0.0000 C   0  0  0  0  0  0  0  0  0  0  0  0
    4.7459    2.4714    0.0000 C   0  0  0  0  0  0  0  0  0  0  0  0
    4.5511    3.9587    0.0000 C   0  0  0  0  0  0  0  0  0  0  0  0
    3.1656    4.5336    0.0000 C   0  0  0  0  0  0  0  0  0  0  0  0
    1.9750    3.6213    0.0000 C   0  0  0  0  0  0  0  0  0  0  0  0
    2.1698    2.1340    0.0000 C   0  0  0  0  0  0  0  0  0  0  0  0
    0.7844    2.7089    0.0000 C   0  0  0  0  0  0  0  0  0  0  0  0
    0.9792    1.2216    0.0000 C   0  0  0  0  0  0  0  0  0  0  0  0
   -0.4062    1.7965    0.0000 C   0  0  0  0  0  0  0  0  0  0  0  0
   -1.5968    0.8841    0.0000 C   0  0  0  0  0  0  0  0  0  0  0  0
   -1.4020   -0.6032    0.0000 C   0  0  0  0  0  0  0  0  0  0  0  0
   -2.8400   -0.1762    0.0000 C   0  0  0  0  0  0  0  0  0  0  0  0
  2  1  1  6
  2  3  1  0
  3  4  1  0
  4  5  1  0
  5  6  2  0
  5  7  1  0
  2  8  1  0
  8  9  1  6
  9 10  1  0
 11 10  1  6
 11 12  1  0
 12 13  1  1
 13 14  1  6
 14 15  1  0
 15 16  2  0
 15 17  2  0
 15 18  1  0
 13 19  1  0
 20 19  1  1
 20 21  1  0
 21 22  1  0
 22 23  1  0
 23 24  1  0
 24 25  1  0
 25 26  1  6
 25 27  1  0
 27 28  1  6
 28 29  1  0
 29 30  1  0
 30 31  1  6
 30  8  1  0
 30 11  1  0
 27 12  1  0
 25 20  1  0
M  END
>  <MS_ID>  (1874) 
MS1944

>  <SMILES>  (1874) 
C[C@H](CCC(=O)O)[C@H]1CC[C@H]2[C@@H]3[C@@H](OS(=O)(=O)O)C[C@@H]4CCCC[C@]4(C)[C@H]3CC[C@]12C

>  <Structure_dimension>  (1874) 
2D

$$$$
MS1945
     RDKit          2D

 28 31  0  0  0  0  0  0  0  0999 V2000
   -5.0096   -2.1352    0.0000 C   0  0  0  0  0  0  0  0  0  0  0  0
   -3.8132   -1.2303    0.0000 C   0  0  0  0  0  0  0  0  0  0  0  0
   -3.9987    0.2582    0.0000 C   0  0  0  0  0  0  0  0  0  0  0  0
   -5.3805    0.8418    0.0000 C   0  0  0  0  0  0  0  0  0  0  0  0
   -5.5659    2.3303    0.0000 C   0  0  0  0  0  0  0  0  0  0  0  0
   -6.9477    2.9140    0.0000 O   0  0  0  0  0  0  0  0  0  0  0  0
   -4.3695    3.2351    0.0000 S   0  0  0  0  0  0  0  0  0  0  0  0
   -2.4315   -1.8140    0.0000 C   0  0  0  0  0  0  0  0  0  0  0  0
   -2.0914   -3.2749    0.0000 C   0  0  0  0  0  0  0  0  0  0  0  0
   -0.5969   -3.4030    0.0000 C   0  0  0  0  0  0  0  0  0  0  0  0
   -0.0133   -2.0212    0.0000 C   0  0  0  0  0  0  0  0  0  0  0  0
    1.4041   -1.5304    0.0000 C   0  0  0  0  0  0  0  0  0  0  0  0
    2.5379   -2.5125    0.0000 C   0  0  0  0  0  0  0  0  0  0  0  0
    3.9554   -2.0216    0.0000 C   0  0  0  0  0  0  0  0  0  0  0  0
    4.2390   -0.5487    0.0000 C   0  0  0  0  0  0  0  0  0  0  0  0
    5.6564   -0.0578    0.0000 C   0  0  0  0  0  0  0  0  0  0  0  0
    5.9400    1.4151    0.0000 C   0  0  0  0  0  0  0  0  0  0  0  0
    7.3574    1.9060    0.0000 O   0  0  0  0  0  0  0  0  0  0  0  0
    4.8062    2.3972    0.0000 C   0  0  0  0  0  0  0  0  0  0  0  0
    3.3888    1.9064    0.0000 C   0  0  0  0  0  0  0  0  0  0  0  0
    3.1052    0.4334    0.0000 C   0  0  0  0  0  0  0  0  0  0  0  0
    1.9714    1.4155    0.0000 C   0  0  0  0  0  0  0  0  0  0  0  0
    1.6878   -0.0574    0.0000 C   0  0  0  0  0  0  0  0  0  0  0  0
    0.5540    0.9246    0.0000 C   0  0  0  0  0  0  0  0  0  0  0  0
   -0.8635    0.4338    0.0000 C   0  0  0  0  0  0  0  0  0  0  0  0
   -1.9973    1.4159    0.0000 O   0  0  0  0  0  0  0  0  0  0  0  0
   -1.1471   -1.0392    0.0000 C   0  0  0  0  0  0  0  0  0  0  0  0
   -2.3773   -0.1810    0.0000 C   0  0  0  0  0  0  0  0  0  0  0  0
  2  1  1  6
  2  3  1  0
  3  4  1  0
  4  5  1  0
  5  6  2  0
  5  7  1  0
  2  8  1  0
  8  9  1  6
  9 10  1  0
 11 10  1  6
 11 12  1  0
 12 13  1  1
 13 14  1  0
 15 14  1  1
 15 16  1  0
 16 17  1  0
 17 18  2  0
 17 19  1  0
 19 20  1  0
 20 21  1  0
 21 22  1  6
 21 23  1  0
 23 24  1  6
 24 25  1  0
 25 26  1  6
 25 27  1  0
 27 28  1  6
 27  8  1  0
 27 11  1  0
 23 12  1  0
 21 15  1  0
M  END
>  <MS_ID>  (1875) 
MS1945

>  <SMILES>  (1875) 
C[C@H](CCC(=O)S)[C@H]1CC[C@H]2[C@@H]3CC[C@@H]4CC(=O)CC[C@]4(C)[C@H]3C[C@@H](O)[C@]12C

>  <Structure_dimension>  (1875) 
2D

$$$$
MS1946
     RDKit          2D

 34 37  0  0  0  0  0  0  0  0999 V2000
   -1.9628   -4.3460    0.0000 C   0  0  0  0  0  0  0  0  0  0  0  0
   -1.2213   -3.0421    0.0000 C   0  0  0  0  0  0  0  0  0  0  0  0
   -1.9798   -1.7480    0.0000 C   0  0  0  0  0  0  0  0  0  0  0  0
   -3.4798   -1.7579    0.0000 C   0  0  0  0  0  0  0  0  0  0  0  0
   -4.2383   -0.4638    0.0000 C   0  0  0  0  0  0  0  0  0  0  0  0
   -3.4968    0.8402    0.0000 O   0  0  0  0  0  0  0  0  0  0  0  0
   -5.7383   -0.4736    0.0000 N   0  0  0  0  0  0  0  0  0  0  0  0
   -6.4968    0.8205    0.0000 C   0  0  0  0  0  0  0  0  0  0  0  0
   -7.9967    0.8106    0.0000 C   0  0  0  0  0  0  0  0  0  0  0  0
   -8.7552    2.1047    0.0000 S   0  0  0  0  0  0  0  0  0  0  0  0
   -9.5137    3.3988    0.0000 C   0  0  0  0  0  0  0  0  0  0  0  0
   -7.4611    2.8632    0.0000 O   0  0  0  0  0  0  0  0  0  0  0  0
  -10.0493    1.3462    0.0000 O   0  0  0  0  0  0  0  0  0  0  0  0
    0.2786   -3.0323    0.0000 C   0  0  0  0  0  0  0  0  0  0  0  0
    1.1683   -4.2400    0.0000 C   0  0  0  0  0  0  0  0  0  0  0  0
    2.5918   -3.7671    0.0000 C   0  0  0  0  0  0  0  0  0  0  0  0
    2.5819   -2.2672    0.0000 C   0  0  0  0  0  0  0  0  0  0  0  0
    3.6901   -1.2562    0.0000 C   0  0  0  0  0  0  0  0  0  0  0  0
    5.1196   -1.7103    0.0000 C   0  0  0  0  0  0  0  0  0  0  0  0
    6.2278   -0.6993    0.0000 C   0  0  0  0  0  0  0  0  0  0  0  0
    5.9063    0.7658    0.0000 C   0  0  0  0  0  0  0  0  0  0  0  0
    7.0144    1.7768    0.0000 C   0  0  0  0  0  0  0  0  0  0  0  0
    6.6929    3.2419    0.0000 C   0  0  0  0  0  0  0  0  0  0  0  0
    7.8010    4.2529    0.0000 O   0  0  0  0  0  0  0  0  0  0  0  0
    5.2633    3.6961    0.0000 C   0  0  0  0  0  0  0  0  0  0  0  0
    4.1552    2.6851    0.0000 C   0  0  0  0  0  0  0  0  0  0  0  0
    4.4767    1.2200    0.0000 C   0  0  0  0  0  0  0  0  0  0  0  0
    3.0471    1.6741    0.0000 C   0  0  0  0  0  0  0  0  0  0  0  0
    3.3686    0.2090    0.0000 C   0  0  0  0  0  0  0  0  0  0  0  0
    1.9390    0.6631    0.0000 C   0  0  0  0  0  0  0  0  0  0  0  0
    0.8309   -0.3479    0.0000 C   0  0  0  0  0  0  0  0  0  0  0  0
   -0.5987    0.1063    0.0000 O   0  0  0  0  0  0  0  0  0  0  0  0
    1.1523   -1.8130    0.0000 C   0  0  0  0  0  0  0  0  0  0  0  0
   -0.3169   -1.5108    0.0000 C   0  0  0  0  0  0  0  0  0  0  0  0
  2  1  1  6
  2  3  1  0
  3  4  1  0
  4  5  1  0
  5  6  2  0
  5  7  1  0
  7  8  1  0
  8  9  1  0
  9 10  1  0
 10 11  1  0
 10 12  2  0
 10 13  2  0
  2 14  1  0
 14 15  1  6
 15 16  1  0
 17 16  1  6
 17 18  1  0
 18 19  1  1
 19 20  1  0
 21 20  1  1
 21 22  1  0
 22 23  1  0
 23 24  1  1
 23 25  1  0
 25 26  1  0
 26 27  1  0
 27 28  1  6
 27 29  1  0
 29 30  1  6
 30 31  1  0
 31 32  1  1
 31 33  1  0
 33 34  1  6
 33 14  1  0
 33 17  1  0
 29 18  1  0
 27 21  1  0
M  END
>  <MS_ID>  (1876) 
MS1946

>  <SMILES>  (1876) 
C[C@H](CCC(=O)NCCS(C)(=O)=O)[C@H]1CC[C@H]2[C@@H]3CC[C@@H]4C[C@H](O)CC[C@]4(C)[C@H]3C[C@H](O)[C@]12C

>  <Structure_dimension>  (1876) 
2D

$$$$
MS1947
     RDKit          2D

 27 30  0  0  0  0  0  0  0  0999 V2000
   -4.7316   -2.2462    0.0000 C   0  0  0  0  0  0  0  0  0  0  0  0
   -3.6106   -1.2495    0.0000 C   0  0  0  0  0  0  0  0  0  0  0  0
   -3.9133    0.2196    0.0000 C   0  0  0  0  0  0  0  0  0  0  0  0
   -5.3370    0.6920    0.0000 C   0  0  0  0  0  0  0  0  0  0  0  0
   -5.6397    2.1612    0.0000 C   0  0  0  0  0  0  0  0  0  0  0  0
   -4.5188    3.1579    0.0000 O   0  0  0  0  0  0  0  0  0  0  0  0
   -7.0634    2.6336    0.0000 O   0  0  0  0  0  0  0  0  0  0  0  0
   -2.1870   -1.7219    0.0000 C   0  0  0  0  0  0  0  0  0  0  0  0
   -1.7323   -3.1514    0.0000 C   0  0  0  0  0  0  0  0  0  0  0  0
   -0.2324   -3.1607    0.0000 C   0  0  0  0  0  0  0  0  0  0  0  0
    0.2401   -1.7371    0.0000 C   0  0  0  0  0  0  0  0  0  0  0  0
    1.6141   -1.1355    0.0000 C   0  0  0  0  0  0  0  0  0  0  0  0
    2.8222   -2.0247    0.0000 C   0  0  0  0  0  0  0  0  0  0  0  0
    2.6561   -3.5155    0.0000 F   0  0  0  0  0  0  0  0  0  0  0  0
    4.1962   -1.4232    0.0000 C   0  0  0  0  0  0  0  0  0  0  0  0
    4.3623    0.0676    0.0000 C   0  0  0  0  0  0  0  0  0  0  0  0
    5.7364    0.6691    0.0000 C   0  0  0  0  0  0  0  0  0  0  0  0
    5.9025    2.1599    0.0000 C   0  0  0  0  0  0  0  0  0  0  0  0
    4.6945    3.0491    0.0000 C   0  0  0  0  0  0  0  0  0  0  0  0
    3.3204    2.4476    0.0000 C   0  0  0  0  0  0  0  0  0  0  0  0
    3.1543    0.9568    0.0000 C   0  0  0  0  0  0  0  0  0  0  0  0
    1.9463    1.8460    0.0000 C   0  0  0  0  0  0  0  0  0  0  0  0
    1.7802    0.3553    0.0000 C   0  0  0  0  0  0  0  0  0  0  0  0
    0.5722    1.2445    0.0000 C   0  0  0  0  0  0  0  0  0  0  0  0
   -0.8019    0.6429    0.0000 C   0  0  0  0  0  0  0  0  0  0  0  0
   -0.9680   -0.8478    0.0000 C   0  0  0  0  0  0  0  0  0  0  0  0
   -2.2623   -0.0897    0.0000 C   0  0  0  0  0  0  0  0  0  0  0  0
  2  1  1  6
  2  3  1  0
  3  4  1  0
  4  5  1  0
  5  6  2  0
  5  7  1  0
  2  8  1  0
  8  9  1  6
  9 10  1  0
 11 10  1  6
 11 12  1  0
 12 13  1  1
 13 14  1  1
 13 15  1  0
 16 15  1  1
 16 17  1  0
 17 18  1  0
 18 19  1  0
 19 20  1  0
 20 21  1  0
 21 22  1  6
 21 23  1  0
 23 24  1  6
 24 25  1  0
 25 26  1  0
 26 27  1  6
 26  8  1  0
 26 11  1  0
 23 12  1  0
 21 16  1  0
M  END
>  <MS_ID>  (1877) 
MS1947

>  <SMILES>  (1877) 
C[C@H](CCC(=O)O)[C@H]1CC[C@H]2[C@@H]3[C@H](F)C[C@@H]4CCCC[C@]4(C)[C@H]3CC[C@]12C

>  <Structure_dimension>  (1877) 
2D

$$$$
MS1948
     RDKit          2D

 32 35  0  0  0  0  0  0  0  0999 V2000
   -3.6519   -3.4889    0.0000 C   0  0  0  0  0  0  0  0  0  0  0  0
   -2.7185   -2.3147    0.0000 C   0  0  0  0  0  0  0  0  0  0  0  0
   -3.2687   -0.9192    0.0000 C   0  0  0  0  0  0  0  0  0  0  0  0
   -4.7523   -0.6980    0.0000 C   0  0  0  0  0  0  0  0  0  0  0  0
   -5.3024    0.6975    0.0000 C   0  0  0  0  0  0  0  0  0  0  0  0
   -4.3690    1.8717    0.0000 O   0  0  0  0  0  0  0  0  0  0  0  0
   -6.7860    0.9188    0.0000 N   0  0  0  0  0  0  0  0  0  0  0  0
   -7.3362    2.3142    0.0000 C   0  0  0  0  0  0  0  0  0  0  0  0
   -8.8198    2.5355    0.0000 C   0  0  0  0  0  0  0  0  0  0  0  0
   -6.4028    3.4884    0.0000 O   0  0  0  0  0  0  0  0  0  0  0  0
   -1.2349   -2.5360    0.0000 C   0  0  0  0  0  0  0  0  0  0  0  0
   -0.5419   -3.8663    0.0000 C   0  0  0  0  0  0  0  0  0  0  0  0
    0.9375   -3.6183    0.0000 C   0  0  0  0  0  0  0  0  0  0  0  0
    1.1587   -2.1347    0.0000 C   0  0  0  0  0  0  0  0  0  0  0  0
    2.4093   -1.3064    0.0000 C   0  0  0  0  0  0  0  0  0  0  0  0
    3.7519   -1.9753    0.0000 C   0  0  0  0  0  0  0  0  0  0  0  0
    3.8439   -3.4725    0.0000 O   0  0  0  0  0  0  0  0  0  0  0  0
    5.0025   -1.1470    0.0000 C   0  0  0  0  0  0  0  0  0  0  0  0
    4.9105    0.3502    0.0000 C   0  0  0  0  0  0  0  0  0  0  0  0
    6.1611    1.1784    0.0000 C   0  0  0  0  0  0  0  0  0  0  0  0
    6.0690    2.6756    0.0000 C   0  0  0  0  0  0  0  0  0  0  0  0
    7.3196    3.5039    0.0000 O   0  0  0  0  0  0  0  0  0  0  0  0
    4.7264    3.3445    0.0000 C   0  0  0  0  0  0  0  0  0  0  0  0
    3.4759    2.5162    0.0000 C   0  0  0  0  0  0  0  0  0  0  0  0
    3.5679    1.0191    0.0000 C   0  0  0  0  0  0  0  0  0  0  0  0
    2.2253    1.6879    0.0000 C   0  0  0  0  0  0  0  0  0  0  0  0
    2.3173    0.1908    0.0000 C   0  0  0  0  0  0  0  0  0  0  0  0
    0.9747    0.8597    0.0000 C   0  0  0  0  0  0  0  0  0  0  0  0
   -0.2759    0.0314    0.0000 C   0  0  0  0  0  0  0  0  0  0  0  0
   -1.6185    0.7003    0.0000 O   0  0  0  0  0  0  0  0  0  0  0  0
   -0.1839   -1.4658    0.0000 C   0  0  0  0  0  0  0  0  0  0  0  0
   -1.5890   -0.9409    0.0000 C   0  0  0  0  0  0  0  0  0  0  0  0
  2  1  1  6
  2  3  1  0
  3  4  1  0
  4  5  1  0
  5  6  2  0
  5  7  1  0
  7  8  1  0
  8  9  1  1
  8 10  1  0
  2 11  1  0
 11 12  1  6
 12 13  1  0
 14 13  1  6
 14 15  1  0
 15 16  1  1
 16 17  1  1
 16 18  1  0
 19 18  1  1
 19 20  1  0
 20 21  1  0
 21 22  1  1
 21 23  1  0
 23 24  1  0
 24 25  1  0
 25 26  1  6
 25 27  1  0
 27 28  1  6
 28 29  1  0
 29 30  1  1
 29 31  1  0
 31 32  1  6
 31 11  1  0
 31 14  1  0
 27 15  1  0
 25 19  1  0
M  END
>  <MS_ID>  (1878) 
MS1948

>  <SMILES>  (1878) 
C[C@H](CCC(=O)N[C@@H](C)O)[C@H]1CC[C@H]2[C@@H]3[C@H](O)C[C@@H]4C[C@H](O)CC[C@]4(C)[C@H]3C[C@H](O)[C@]12C

>  <Structure_dimension>  (1878) 
2D

$$$$
MS1949
     RDKit          2D

 29 32  0  0  0  0  0  0  0  0999 V2000
   -5.0303   -2.1373    0.0000 C   0  0  0  0  0  0  0  0  0  0  0  0
   -3.8594   -1.1998    0.0000 C   0  0  0  0  0  0  0  0  0  0  0  0
   -4.0858    0.2830    0.0000 C   0  0  0  0  0  0  0  0  0  0  0  0
   -5.4831    0.8284    0.0000 C   0  0  0  0  0  0  0  0  0  0  0  0
   -5.7095    2.3112    0.0000 C   0  0  0  0  0  0  0  0  0  0  0  0
   -4.5386    3.2487    0.0000 O   0  0  0  0  0  0  0  0  0  0  0  0
   -7.1069    2.8565    0.0000 O   0  0  0  0  0  0  0  0  0  0  0  0
   -2.4620   -1.7451    0.0000 C   0  0  0  0  0  0  0  0  0  0  0  0
   -2.0818   -3.1961    0.0000 C   0  0  0  0  0  0  0  0  0  0  0  0
   -0.5844   -3.2830    0.0000 C   0  0  0  0  0  0  0  0  0  0  0  0
   -0.0390   -1.8856    0.0000 C   0  0  0  0  0  0  0  0  0  0  0  0
    1.3643   -1.3559    0.0000 C   0  0  0  0  0  0  0  0  0  0  0  0
    2.5248   -2.3063    0.0000 C   0  0  0  0  0  0  0  0  0  0  0  0
    2.2819   -3.7865    0.0000 O   0  0  0  0  0  0  0  0  0  0  0  0
    3.9281   -1.7765    0.0000 C   0  0  0  0  0  0  0  0  0  0  0  0
    4.1710   -0.2963    0.0000 C   0  0  0  0  0  0  0  0  0  0  0  0
    5.5743    0.2334    0.0000 C   0  0  0  0  0  0  0  0  0  0  0  0
    5.8172    1.7136    0.0000 C   0  0  0  0  0  0  0  0  0  0  0  0
    7.2205    2.2434    0.0000 O   0  0  0  0  0  0  0  0  0  0  0  0
    4.6568    2.6641    0.0000 C   0  0  0  0  0  0  0  0  0  0  0  0
    3.2534    2.1343    0.0000 C   0  0  0  0  0  0  0  0  0  0  0  0
    3.0105    0.6541    0.0000 C   0  0  0  0  0  0  0  0  0  0  0  0
    1.8501    1.6046    0.0000 C   0  0  0  0  0  0  0  0  0  0  0  0
    1.6072    0.1244    0.0000 C   0  0  0  0  0  0  0  0  0  0  0  0
    0.4467    1.0748    0.0000 C   0  0  0  0  0  0  0  0  0  0  0  0
   -0.9566    0.5450    0.0000 C   0  0  0  0  0  0  0  0  0  0  0  0
   -2.1170    1.4955    0.0000 F   0  0  0  0  0  0  0  0  0  0  0  0
   -1.1995   -0.9352    0.0000 C   0  0  0  0  0  0  0  0  0  0  0  0
   -2.4529   -0.1112    0.0000 C   0  0  0  0  0  0  0  0  0  0  0  0
  2  1  1  6
  2  3  1  0
  3  4  1  0
  4  5  1  0
  5  6  2  0
  5  7  1  0
  2  8  1  0
  8  9  1  6
  9 10  1  0
 11 10  1  6
 11 12  1  0
 12 13  1  1
 13 14  1  1
 13 15  1  0
 16 15  1  1
 16 17  1  0
 17 18  1  0
 18 19  1  6
 18 20  1  0
 20 21  1  0
 21 22  1  0
 22 23  1  6
 22 24  1  0
 24 25  1  6
 25 26  1  0
 26 27  1  1
 26 28  1  0
 28 29  1  6
 28  8  1  0
 28 11  1  0
 24 12  1  0
 22 16  1  0
M  END
>  <MS_ID>  (1879) 
MS1949

>  <SMILES>  (1879) 
C[C@H](CCC(=O)O)[C@H]1CC[C@H]2[C@@H]3[C@H](O)C[C@@H]4C[C@@H](O)CC[C@]4(C)[C@H]3C[C@H](F)[C@]12C

>  <Structure_dimension>  (1879) 
2D

$$$$
MS1950
     RDKit          2D

 30 33  0  0  0  0  0  0  0  0999 V2000
   -5.0361   -2.2421    0.0000 C   0  0  0  0  0  0  0  0  0  0  0  0
   -3.9151   -1.2454    0.0000 C   0  0  0  0  0  0  0  0  0  0  0  0
   -4.2177    0.2237    0.0000 C   0  0  0  0  0  0  0  0  0  0  0  0
   -5.6413    0.6963    0.0000 C   0  0  0  0  0  0  0  0  0  0  0  0
   -5.9439    2.1654    0.0000 C   0  0  0  0  0  0  0  0  0  0  0  0
   -4.8228    3.1621    0.0000 O   0  0  0  0  0  0  0  0  0  0  0  0
   -7.3675    2.6380    0.0000 O   0  0  0  0  0  0  0  0  0  0  0  0
   -2.4915   -1.7180    0.0000 C   0  0  0  0  0  0  0  0  0  0  0  0
   -2.0370   -3.1475    0.0000 C   0  0  0  0  0  0  0  0  0  0  0  0
   -0.5370   -3.1570    0.0000 C   0  0  0  0  0  0  0  0  0  0  0  0
   -0.0645   -1.7333    0.0000 C   0  0  0  0  0  0  0  0  0  0  0  0
    1.3097   -1.1319    0.0000 C   0  0  0  0  0  0  0  0  0  0  0  0
    2.5176   -2.0213    0.0000 C   0  0  0  0  0  0  0  0  0  0  0  0
    2.3514   -3.5120    0.0000 C   0  0  0  0  0  0  0  0  0  0  0  0
    3.5593   -4.4014    0.0000 N   0  0  0  0  0  0  0  0  0  0  0  0
    3.8918   -1.4198    0.0000 C   0  0  0  0  0  0  0  0  0  0  0  0
    4.0580    0.0709    0.0000 C   0  0  0  0  0  0  0  0  0  0  0  0
    5.4321    0.6723    0.0000 C   0  0  0  0  0  0  0  0  0  0  0  0
    5.5984    2.1631    0.0000 C   0  0  0  0  0  0  0  0  0  0  0  0
    6.9725    2.7645    0.0000 O   0  0  0  0  0  0  0  0  0  0  0  0
    4.3904    3.0524    0.0000 C   0  0  0  0  0  0  0  0  0  0  0  0
    3.0163    2.4510    0.0000 C   0  0  0  0  0  0  0  0  0  0  0  0
    2.8501    0.9603    0.0000 C   0  0  0  0  0  0  0  0  0  0  0  0
    1.6421    1.8496    0.0000 C   0  0  0  0  0  0  0  0  0  0  0  0
    1.4759    0.3588    0.0000 C   0  0  0  0  0  0  0  0  0  0  0  0
    0.2680    1.2482    0.0000 C   0  0  0  0  0  0  0  0  0  0  0  0
   -1.1062    0.6468    0.0000 C   0  0  0  0  0  0  0  0  0  0  0  0
   -2.3141    1.5361    0.0000 O   0  0  0  0  0  0  0  0  0  0  0  0
   -1.2724   -0.8440    0.0000 C   0  0  0  0  0  0  0  0  0  0  0  0
   -2.5667   -0.0858    0.0000 C   0  0  0  0  0  0  0  0  0  0  0  0
  2  1  1  6
  2  3  1  0
  3  4  1  0
  4  5  1  0
  5  6  2  0
  5  7  1  0
  2  8  1  0
  8  9  1  6
  9 10  1  0
 11 10  1  6
 11 12  1  0
 12 13  1  1
 13 14  1  1
 14 15  1  0
 13 16  1  0
 17 16  1  1
 17 18  1  0
 18 19  1  0
 19 20  1  1
 19 21  1  0
 21 22  1  0
 22 23  1  0
 23 24  1  6
 23 25  1  0
 25 26  1  6
 26 27  1  0
 27 28  1  6
 27 29  1  0
 29 30  1  6
 29  8  1  0
 29 11  1  0
 25 12  1  0
 23 17  1  0
M  END
>  <MS_ID>  (1880) 
MS1950

>  <SMILES>  (1880) 
C[C@H](CCC(=O)O)[C@H]1CC[C@H]2[C@@H]3[C@H](CN)C[C@@H]4C[C@H](O)CC[C@]4(C)[C@H]3C[C@@H](O)[C@]12C

>  <Structure_dimension>  (1880) 
2D

$$$$
MS1951
     RDKit          2D

 36 40  0  0  0  0  0  0  0  0999 V2000
   -2.6622   -3.5104    0.0000 C   0  0  0  0  0  0  0  0  0  0  0  0
   -1.7651   -2.3083    0.0000 C   0  0  0  0  0  0  0  0  0  0  0  0
   -2.3576   -0.9303    0.0000 C   0  0  0  0  0  0  0  0  0  0  0  0
   -3.8472   -0.7544    0.0000 C   0  0  0  0  0  0  0  0  0  0  0  0
   -4.4398    0.6236    0.0000 C   0  0  0  0  0  0  0  0  0  0  0  0
   -3.5426    1.8257    0.0000 O   0  0  0  0  0  0  0  0  0  0  0  0
   -5.9294    0.7995    0.0000 C   0  0  0  0  0  0  0  0  0  0  0  0
   -6.5220    2.1775    0.0000 C   0  0  0  0  0  0  0  0  0  0  0  0
   -8.0116    2.3533    0.0000 C   0  0  0  0  0  0  0  0  0  0  0  0
   -8.6041    3.7313    0.0000 O   0  0  0  0  0  0  0  0  0  0  0  0
   -8.9087    1.1512    0.0000 C   0  0  0  0  0  0  0  0  0  0  0  0
   -8.3162   -0.2268    0.0000 C   0  0  0  0  0  0  0  0  0  0  0  0
   -9.2133   -1.4290    0.0000 O   0  0  0  0  0  0  0  0  0  0  0  0
   -6.8266   -0.4027    0.0000 C   0  0  0  0  0  0  0  0  0  0  0  0
   -0.2754   -2.4842    0.0000 C   0  0  0  0  0  0  0  0  0  0  0  0
    0.4579   -3.7927    0.0000 C   0  0  0  0  0  0  0  0  0  0  0  0
    1.9290   -3.4996    0.0000 C   0  0  0  0  0  0  0  0  0  0  0  0
    2.1049   -2.0099    0.0000 C   0  0  0  0  0  0  0  0  0  0  0  0
    3.3296   -1.1439    0.0000 C   0  0  0  0  0  0  0  0  0  0  0  0
    4.6920   -1.7714    0.0000 C   0  0  0  0  0  0  0  0  0  0  0  0
    4.8297   -3.2651    0.0000 O   0  0  0  0  0  0  0  0  0  0  0  0
    5.9167   -0.9054    0.0000 C   0  0  0  0  0  0  0  0  0  0  0  0
    7.2791   -1.5330    0.0000 O   0  0  0  0  0  0  0  0  0  0  0  0
    5.7790    0.5883    0.0000 C   0  0  0  0  0  0  0  0  0  0  0  0
    7.0037    1.4544    0.0000 C   0  0  0  0  0  0  0  0  0  0  0  0
    6.8660    2.9480    0.0000 C   0  0  0  0  0  0  0  0  0  0  0  0
    8.0907    3.8141    0.0000 O   0  0  0  0  0  0  0  0  0  0  0  0
    5.5036    3.5756    0.0000 C   0  0  0  0  0  0  0  0  0  0  0  0
    4.2789    2.7096    0.0000 C   0  0  0  0  0  0  0  0  0  0  0  0
    4.4166    1.2159    0.0000 C   0  0  0  0  0  0  0  0  0  0  0  0
    3.0542    1.8435    0.0000 C   0  0  0  0  0  0  0  0  0  0  0  0
    3.1919    0.3498    0.0000 C   0  0  0  0  0  0  0  0  0  0  0  0
    1.8295    0.9774    0.0000 C   0  0  0  0  0  0  0  0  0  0  0  0
    0.6048    0.1113    0.0000 C   0  0  0  0  0  0  0  0  0  0  0  0
    0.7425   -1.3824    0.0000 C   0  0  0  0  0  0  0  0  0  0  0  0
   -0.6781   -0.9006    0.0000 C   0  0  0  0  0  0  0  0  0  0  0  0
  2  1  1  6
  2  3  1  0
  3  4  1  0
  4  5  1  0
  5  6  2  0
  5  7  1  0
  7  8  2  0
  8  9  1  0
  9 10  1  0
  9 11  2  0
 11 12  1  0
 12 13  1  0
 12 14  2  0
  2 15  1  0
 15 16  1  6
 16 17  1  0
 18 17  1  6
 18 19  1  0
 19 20  1  1
 20 21  1  1
 20 22  1  0
 22 23  1  1
 22 24  1  0
 24 25  1  1
 25 26  1  0
 26 27  1  1
 26 28  1  0
 28 29  1  0
 29 30  1  0
 30 31  1  6
 30 32  1  0
 32 33  1  6
 33 34  1  0
 34 35  1  0
 35 36  1  6
 14  7  1  0
 35 15  1  0
 35 18  1  0
 32 19  1  0
 30 24  1  0
M  END
>  <MS_ID>  (1881) 
MS1951

>  <SMILES>  (1881) 
C[C@H](CCC(=O)c1cc(O)cc(O)c1)[C@H]1CC[C@H]2[C@@H]3[C@H](O)[C@H](O)[C@@H]4C[C@H](O)CC[C@]4(C)[C@H]3CC[C@]12C

>  <Structure_dimension>  (1881) 
2D

$$$$
MS1952
     RDKit          2D

 29 32  0  0  0  0  0  0  0  0999 V2000
   -7.4712    3.6525    0.0000 C   0  0  0  0  0  0  0  0  0  0  0  0
   -7.1264    2.1927    0.0000 C   0  0  0  0  0  0  0  0  0  0  0  0
   -5.6897    1.7615    0.0000 C   0  0  0  0  0  0  0  0  0  0  0  0
   -4.5979    2.7900    0.0000 O   0  0  0  0  0  0  0  0  0  0  0  0
   -5.3448    0.3016    0.0000 C   0  0  0  0  0  0  0  0  0  0  0  0
   -3.9081   -0.1296    0.0000 C   0  0  0  0  0  0  0  0  0  0  0  0
   -3.5633   -1.5894    0.0000 C   0  0  0  0  0  0  0  0  0  0  0  0
   -4.6551   -2.6180    0.0000 C   0  0  0  0  0  0  0  0  0  0  0  0
   -2.1266   -2.0207    0.0000 C   0  0  0  0  0  0  0  0  0  0  0  0
   -1.6310   -3.4364    0.0000 C   0  0  0  0  0  0  0  0  0  0  0  0
   -0.1314   -3.4026    0.0000 C   0  0  0  0  0  0  0  0  0  0  0  0
    0.2998   -1.9659    0.0000 C   0  0  0  0  0  0  0  0  0  0  0  0
    1.6561   -1.3251    0.0000 C   0  0  0  0  0  0  0  0  0  0  0  0
    2.8892   -2.1792    0.0000 C   0  0  0  0  0  0  0  0  0  0  0  0
    2.7660   -3.6741    0.0000 O   0  0  0  0  0  0  0  0  0  0  0  0
    4.2454   -1.5383    0.0000 C   0  0  0  0  0  0  0  0  0  0  0  0
    4.3685   -0.0434    0.0000 C   0  0  0  0  0  0  0  0  0  0  0  0
    5.7247    0.5975    0.0000 C   0  0  0  0  0  0  0  0  0  0  0  0
    5.8478    2.0924    0.0000 C   0  0  0  0  0  0  0  0  0  0  0  0
    7.2040    2.7332    0.0000 O   0  0  0  0  0  0  0  0  0  0  0  0
    4.6147    2.9465    0.0000 C   0  0  0  0  0  0  0  0  0  0  0  0
    3.2585    2.3056    0.0000 C   0  0  0  0  0  0  0  0  0  0  0  0
    3.1354    0.8107    0.0000 C   0  0  0  0  0  0  0  0  0  0  0  0
    1.9023    1.6648    0.0000 C   0  0  0  0  0  0  0  0  0  0  0  0
    1.7792    0.1699    0.0000 C   0  0  0  0  0  0  0  0  0  0  0  0
    0.5461    1.0239    0.0000 C   0  0  0  0  0  0  0  0  0  0  0  0
   -0.8101    0.3831    0.0000 C   0  0  0  0  0  0  0  0  0  0  0  0
   -0.9333   -1.1118    0.0000 C   0  0  0  0  0  0  0  0  0  0  0  0
   -2.2489   -0.3913    0.0000 C   0  0  0  0  0  0  0  0  0  0  0  0
  1  2  2  0
  2  3  1  0
  3  4  2  0
  3  5  1  0
  5  6  1  0
  6  7  1  0
  7  8  1  6
  7  9  1  0
  9 10  1  6
 10 11  1  0
 12 11  1  6
 12 13  1  0
 13 14  1  1
 14 15  1  1
 14 16  1  0
 17 16  1  1
 17 18  1  0
 18 19  1  0
 19 20  1  1
 19 21  1  0
 21 22  1  0
 22 23  1  0
 23 24  1  6
 23 25  1  0
 25 26  1  6
 26 27  1  0
 27 28  1  0
 28 29  1  6
 28  9  1  0
 28 12  1  0
 25 13  1  0
 23 17  1  0
M  END
>  <MS_ID>  (1882) 
MS1952

>  <SMILES>  (1882) 
C=CC(=O)CC[C@@H](C)[C@H]1CC[C@H]2[C@@H]3[C@H](O)C[C@@H]4C[C@H](O)CC[C@]4(C)[C@H]3CC[C@]12C

>  <Structure_dimension>  (1882) 
2D

$$$$
MS1953
     RDKit          2D

 28 31  0  0  0  0  0  0  0  0999 V2000
   -4.1269   -2.8452    0.0000 C   0  0  0  0  0  0  0  0  0  0  0  0
   -3.0726   -1.7782    0.0000 C   0  0  0  0  0  0  0  0  0  0  0  0
   -3.4694   -0.3317    0.0000 C   0  0  0  0  0  0  0  0  0  0  0  0
   -4.9206    0.0479    0.0000 C   0  0  0  0  0  0  0  0  0  0  0  0
   -5.3175    1.4944    0.0000 C   0  0  0  0  0  0  0  0  0  0  0  0
   -4.2632    2.5614    0.0000 O   0  0  0  0  0  0  0  0  0  0  0  0
   -6.7687    1.8740    0.0000 C   0  0  0  0  0  0  0  0  0  0  0  0
   -7.1655    3.3206    0.0000 S   0  0  0  0  0  0  0  0  0  0  0  0
   -1.6214   -2.1578    0.0000 C   0  0  0  0  0  0  0  0  0  0  0  0
   -1.0755   -3.5550    0.0000 C   0  0  0  0  0  0  0  0  0  0  0  0
    0.4219   -3.4675    0.0000 C   0  0  0  0  0  0  0  0  0  0  0  0
    0.8015   -2.0163    0.0000 C   0  0  0  0  0  0  0  0  0  0  0  0
    2.1339   -1.3274    0.0000 C   0  0  0  0  0  0  0  0  0  0  0  0
    3.3968   -2.1368    0.0000 C   0  0  0  0  0  0  0  0  0  0  0  0
    4.7292   -1.4479    0.0000 C   0  0  0  0  0  0  0  0  0  0  0  0
    4.7988    0.0505    0.0000 C   0  0  0  0  0  0  0  0  0  0  0  0
    6.1312    0.7394    0.0000 C   0  0  0  0  0  0  0  0  0  0  0  0
    6.2008    2.2378    0.0000 C   0  0  0  0  0  0  0  0  0  0  0  0
    4.9379    3.0473    0.0000 C   0  0  0  0  0  0  0  0  0  0  0  0
    3.6055    2.3583    0.0000 C   0  0  0  0  0  0  0  0  0  0  0  0
    3.5359    0.8599    0.0000 C   0  0  0  0  0  0  0  0  0  0  0  0
    2.2731    1.6694    0.0000 C   0  0  0  0  0  0  0  0  0  0  0  0
    2.2035    0.1710    0.0000 C   0  0  0  0  0  0  0  0  0  0  0  0
    0.9407    0.9804    0.0000 C   0  0  0  0  0  0  0  0  0  0  0  0
   -0.3918    0.2915    0.0000 C   0  0  0  0  0  0  0  0  0  0  0  0
   -1.6546    1.1009    0.0000 O   0  0  0  0  0  0  0  0  0  0  0  0
   -0.4613   -1.2069    0.0000 C   0  0  0  0  0  0  0  0  0  0  0  0
   -1.8019   -0.5339    0.0000 C   0  0  0  0  0  0  0  0  0  0  0  0
  2  1  1  6
  2  3  1  0
  3  4  1  0
  4  5  1  0
  5  6  2  0
  5  7  1  0
  7  8  1  0
  2  9  1  0
  9 10  1  6
 10 11  1  0
 12 11  1  6
 12 13  1  0
 13 14  1  1
 14 15  1  0
 16 15  1  1
 16 17  1  0
 17 18  1  0
 18 19  1  0
 19 20  1  0
 20 21  1  0
 21 22  1  6
 21 23  1  0
 23 24  1  6
 24 25  1  0
 25 26  1  6
 25 27  1  0
 27 28  1  6
 27  9  1  0
 27 12  1  0
 23 13  1  0
 21 16  1  0
M  END
>  <MS_ID>  (1883) 
MS1953

>  <SMILES>  (1883) 
C[C@H](CCC(=O)CS)[C@H]1CC[C@H]2[C@@H]3CC[C@@H]4CCCC[C@]4(C)[C@H]3C[C@@H](O)[C@]12C

>  <Structure_dimension>  (1883) 
2D

$$$$
MS1954
     RDKit          2D

 29 32  0  0  0  0  0  0  0  0999 V2000
   -5.0303   -2.1373    0.0000 C   0  0  0  0  0  0  0  0  0  0  0  0
   -3.8594   -1.1998    0.0000 C   0  0  0  0  0  0  0  0  0  0  0  0
   -4.0858    0.2830    0.0000 C   0  0  0  0  0  0  0  0  0  0  0  0
   -5.4831    0.8284    0.0000 C   0  0  0  0  0  0  0  0  0  0  0  0
   -5.7095    2.3112    0.0000 C   0  0  0  0  0  0  0  0  0  0  0  0
   -4.5386    3.2487    0.0000 O   0  0  0  0  0  0  0  0  0  0  0  0
   -7.1069    2.8565    0.0000 O   0  0  0  0  0  0  0  0  0  0  0  0
   -2.4620   -1.7451    0.0000 C   0  0  0  0  0  0  0  0  0  0  0  0
   -2.0818   -3.1961    0.0000 C   0  0  0  0  0  0  0  0  0  0  0  0
   -0.5844   -3.2830    0.0000 C   0  0  0  0  0  0  0  0  0  0  0  0
   -0.0390   -1.8856    0.0000 C   0  0  0  0  0  0  0  0  0  0  0  0
    1.3643   -1.3559    0.0000 C   0  0  0  0  0  0  0  0  0  0  0  0
    2.5248   -2.3063    0.0000 C   0  0  0  0  0  0  0  0  0  0  0  0
    2.2819   -3.7865    0.0000 O   0  0  0  0  0  0  0  0  0  0  0  0
    3.9281   -1.7765    0.0000 C   0  0  0  0  0  0  0  0  0  0  0  0
    4.1710   -0.2963    0.0000 C   0  0  0  0  0  0  0  0  0  0  0  0
    5.5743    0.2334    0.0000 C   0  0  0  0  0  0  0  0  0  0  0  0
    5.8172    1.7136    0.0000 C   0  0  0  0  0  0  0  0  0  0  0  0
    7.2205    2.2434    0.0000 O   0  0  0  0  0  0  0  0  0  0  0  0
    4.6568    2.6641    0.0000 C   0  0  0  0  0  0  0  0  0  0  0  0
    3.2534    2.1343    0.0000 C   0  0  0  0  0  0  0  0  0  0  0  0
    3.0105    0.6541    0.0000 C   0  0  0  0  0  0  0  0  0  0  0  0
    1.8501    1.6046    0.0000 C   0  0  0  0  0  0  0  0  0  0  0  0
    1.6072    0.1244    0.0000 C   0  0  0  0  0  0  0  0  0  0  0  0
    0.4467    1.0748    0.0000 C   0  0  0  0  0  0  0  0  0  0  0  0
   -0.9566    0.5450    0.0000 C   0  0  0  0  0  0  0  0  0  0  0  0
   -2.1170    1.4955    0.0000 C   0  0  0  0  0  0  0  0  0  0  0  0
   -1.1995   -0.9352    0.0000 C   0  0  0  0  0  0  0  0  0  0  0  0
   -2.4529   -0.1112    0.0000 C   0  0  0  0  0  0  0  0  0  0  0  0
  2  1  1  6
  2  3  1  0
  3  4  1  0
  4  5  1  0
  5  6  2  0
  5  7  1  0
  2  8  1  0
  8  9  1  6
  9 10  1  0
 11 10  1  6
 11 12  1  0
 12 13  1  1
 13 14  1  1
 13 15  1  0
 16 15  1  1
 16 17  1  0
 17 18  1  0
 18 19  1  1
 18 20  1  0
 20 21  1  0
 21 22  1  0
 22 23  1  6
 22 24  1  0
 24 25  1  6
 25 26  1  0
 26 27  1  6
 26 28  1  0
 28 29  1  6
 28  8  1  0
 28 11  1  0
 24 12  1  0
 22 16  1  0
M  END
>  <MS_ID>  (1884) 
MS1954

>  <SMILES>  (1884) 
C[C@H](CCC(=O)O)[C@H]1CC[C@H]2[C@@H]3[C@H](O)C[C@@H]4C[C@H](O)CC[C@]4(C)[C@H]3C[C@@H](C)[C@]12C

>  <Structure_dimension>  (1884) 
2D

$$$$
MS1955
     RDKit          2D

 31 34  0  0  0  0  0  0  0  0999 V2000
   -6.1428   -1.6463    0.0000 C   0  0  0  0  0  0  0  0  0  0  0  0
   -4.8761   -0.8428    0.0000 C   0  0  0  0  0  0  0  0  0  0  0  0
   -4.9387    0.6559    0.0000 C   0  0  0  0  0  0  0  0  0  0  0  0
   -6.2678    1.3511    0.0000 C   0  0  0  0  0  0  0  0  0  0  0  0
   -6.3304    2.8498    0.0000 C   0  0  0  0  0  0  0  0  0  0  0  0
   -5.0637    3.6533    0.0000 O   0  0  0  0  0  0  0  0  0  0  0  0
   -7.6596    3.5450    0.0000 O   0  0  0  0  0  0  0  0  0  0  0  0
   -3.5470   -1.5380    0.0000 C   0  0  0  0  0  0  0  0  0  0  0  0
   -3.3281   -3.0220    0.0000 C   0  0  0  0  0  0  0  0  0  0  0  0
   -1.8492   -3.2724    0.0000 C   0  0  0  0  0  0  0  0  0  0  0  0
   -1.1540   -1.9432    0.0000 C   0  0  0  0  0  0  0  0  0  0  0  0
    0.2990   -1.5705    0.0000 C   0  0  0  0  0  0  0  0  0  0  0  0
    1.3483   -2.6424    0.0000 C   0  0  0  0  0  0  0  0  0  0  0  0
    0.9446   -4.0870    0.0000 O   0  0  0  0  0  0  0  0  0  0  0  0
    2.8012   -2.2696    0.0000 C   0  0  0  0  0  0  0  0  0  0  0  0
    3.2049   -0.8249    0.0000 C   0  0  0  0  0  0  0  0  0  0  0  0
    4.6578   -0.4522    0.0000 C   0  0  0  0  0  0  0  0  0  0  0  0
    5.0615    0.9925    0.0000 C   0  0  0  0  0  0  0  0  0  0  0  0
    6.5144    1.3653    0.0000 C   0  0  0  0  0  0  0  0  0  0  0  0
    6.9180    2.8099    0.0000 O   0  0  0  0  0  0  0  0  0  0  0  0
    7.5637    0.2933    0.0000 C   0  0  0  0  0  0  0  0  0  0  0  0
    9.0166    0.6661    0.0000 O   0  0  0  0  0  0  0  0  0  0  0  0
    4.0122    2.0644    0.0000 C   0  0  0  0  0  0  0  0  0  0  0  0
    2.5592    1.6916    0.0000 C   0  0  0  0  0  0  0  0  0  0  0  0
    2.1556    0.2470    0.0000 C   0  0  0  0  0  0  0  0  0  0  0  0
    1.1063    1.3189    0.0000 C   0  0  0  0  0  0  0  0  0  0  0  0
    0.7026   -0.1258    0.0000 C   0  0  0  0  0  0  0  0  0  0  0  0
   -0.3467    0.9461    0.0000 C   0  0  0  0  0  0  0  0  0  0  0  0
   -1.7996    0.5734    0.0000 C   0  0  0  0  0  0  0  0  0  0  0  0
   -2.2033   -0.8713    0.0000 C   0  0  0  0  0  0  0  0  0  0  0  0
   -3.3589    0.0850    0.0000 C   0  0  0  0  0  0  0  0  0  0  0  0
  2  1  1  6
  2  3  1  0
  3  4  1  0
  4  5  1  0
  5  6  2  0
  5  7  1  0
  2  8  1  0
  8  9  1  6
  9 10  1  0
 11 10  1  6
 11 12  1  0
 12 13  1  1
 13 14  1  6
 13 15  1  0
 16 15  1  1
 16 17  1  0
 17 18  1  0
 18 19  1  1
 19 20  2  0
 19 21  1  0
 21 22  1  0
 18 23  1  0
 23 24  1  0
 24 25  1  0
 25 26  1  6
 25 27  1  0
 27 28  1  6
 28 29  1  0
 29 30  1  0
 30 31  1  6
 30  8  1  0
 30 11  1  0
 27 12  1  0
 25 16  1  0
M  END
>  <MS_ID>  (1885) 
MS1955

>  <SMILES>  (1885) 
C[C@H](CCC(=O)O)[C@H]1CC[C@H]2[C@@H]3[C@@H](O)C[C@@H]4C[C@H](C(=O)CO)CC[C@]4(C)[C@H]3CC[C@]12C

>  <Structure_dimension>  (1885) 
2D

$$$$
MS1956
     RDKit          2D

 30 33  0  0  0  0  0  0  0  0999 V2000
   -5.5582   -1.9486    0.0000 C   0  0  0  0  0  0  0  0  0  0  0  0
   -4.3403   -1.0729    0.0000 C   0  0  0  0  0  0  0  0  0  0  0  0
   -4.4898    0.4196    0.0000 C   0  0  0  0  0  0  0  0  0  0  0  0
   -5.8571    1.0364    0.0000 C   0  0  0  0  0  0  0  0  0  0  0  0
   -6.0065    2.5290    0.0000 C   0  0  0  0  0  0  0  0  0  0  0  0
   -4.7887    3.4047    0.0000 O   0  0  0  0  0  0  0  0  0  0  0  0
   -7.3738    3.1458    0.0000 O   0  0  0  0  0  0  0  0  0  0  0  0
   -2.9730   -1.6898    0.0000 C   0  0  0  0  0  0  0  0  0  0  0  0
   -2.6684   -3.1585    0.0000 C   0  0  0  0  0  0  0  0  0  0  0  0
   -1.1774   -3.3226    0.0000 C   0  0  0  0  0  0  0  0  0  0  0  0
   -0.5606   -1.9553    0.0000 C   0  0  0  0  0  0  0  0  0  0  0  0
    0.8683   -1.4988    0.0000 C   0  0  0  0  0  0  0  0  0  0  0  0
    1.9781   -2.5080    0.0000 C   0  0  0  0  0  0  0  0  0  0  0  0
    1.6590   -3.9737    0.0000 O   0  0  0  0  0  0  0  0  0  0  0  0
    3.4069   -2.0515    0.0000 C   0  0  0  0  0  0  0  0  0  0  0  0
    3.7260   -0.5858    0.0000 C   0  0  0  0  0  0  0  0  0  0  0  0
    5.1548   -0.1293    0.0000 C   0  0  0  0  0  0  0  0  0  0  0  0
    5.4739    1.3364    0.0000 C   0  0  0  0  0  0  0  0  0  0  0  0
    6.9028    1.7929    0.0000 C   0  0  0  0  0  0  0  0  0  0  0  0
    8.0125    0.7837    0.0000 O   0  0  0  0  0  0  0  0  0  0  0  0
    4.3641    2.3455    0.0000 C   0  0  0  0  0  0  0  0  0  0  0  0
    2.9353    1.8890    0.0000 C   0  0  0  0  0  0  0  0  0  0  0  0
    2.6162    0.4234    0.0000 C   0  0  0  0  0  0  0  0  0  0  0  0
    1.5065    1.4325    0.0000 C   0  0  0  0  0  0  0  0  0  0  0  0
    1.8255    2.8982    0.0000 O   0  0  0  0  0  0  0  0  0  0  0  0
    1.1874   -0.0331    0.0000 C   0  0  0  0  0  0  0  0  0  0  0  0
    0.0776    0.9760    0.0000 C   0  0  0  0  0  0  0  0  0  0  0  0
   -1.3512    0.5195    0.0000 C   0  0  0  0  0  0  0  0  0  0  0  0
   -1.6703   -0.9462    0.0000 C   0  0  0  0  0  0  0  0  0  0  0  0
   -2.8795   -0.0585    0.0000 C   0  0  0  0  0  0  0  0  0  0  0  0
  2  1  1  6
  2  3  1  0
  3  4  1  0
  4  5  1  0
  5  6  2  0
  5  7  1  0
  2  8  1  0
  8  9  1  6
  9 10  1  0
 11 10  1  6
 11 12  1  0
 12 13  1  1
 13 14  1  6
 13 15  1  0
 16 15  1  1
 16 17  1  0
 17 18  1  0
 18 19  1  1
 19 20  1  0
 18 21  1  0
 21 22  1  0
 22 23  1  0
 23 24  1  6
 24 25  1  0
 23 26  1  0
 26 27  1  6
 27 28  1  0
 28 29  1  0
 29 30  1  6
 29  8  1  0
 29 11  1  0
 26 12  1  0
 23 16  1  0
M  END
>  <MS_ID>  (1886) 
MS1956

>  <SMILES>  (1886) 
C[C@H](CCC(=O)O)[C@H]1CC[C@H]2[C@@H]3[C@@H](O)C[C@@H]4C[C@H](CO)CC[C@]4(CO)[C@H]3CC[C@]12C

>  <Structure_dimension>  (1886) 
2D

$$$$
MS1957
     RDKit          2D

 37 42  0  0  0  0  0  0  0  0999 V2000
   -1.4868   -4.0045    0.0000 C   0  0  0  0  0  0  0  0  0  0  0  0
   -0.6596   -2.7532    0.0000 C   0  0  0  0  0  0  0  0  0  0  0  0
   -1.3297   -1.4112    0.0000 C   0  0  0  0  0  0  0  0  0  0  0  0
   -2.8270   -1.3205    0.0000 C   0  0  0  0  0  0  0  0  0  0  0  0
   -3.4971    0.0215    0.0000 C   0  0  0  0  0  0  0  0  0  0  0  0
   -2.6699    1.2728    0.0000 O   0  0  0  0  0  0  0  0  0  0  0  0
   -4.9943    0.1122    0.0000 N   0  0  0  0  0  0  0  0  0  0  0  0
   -5.8215   -1.1391    0.0000 C   0  0  0  0  0  0  0  0  0  0  0  0
   -7.3187   -1.0484    0.0000 C   0  0  0  0  0  0  0  0  0  0  0  0
   -7.9888    0.2936    0.0000 C   0  0  0  0  0  0  0  0  0  0  0  0
   -9.4861    0.3843    0.0000 C   0  0  0  0  0  0  0  0  0  0  0  0
  -10.1562    1.7263    0.0000 C   0  0  0  0  0  0  0  0  0  0  0  0
   -9.3290    2.9776    0.0000 C   0  0  0  0  0  0  0  0  0  0  0  0
   -7.8317    2.8869    0.0000 C   0  0  0  0  0  0  0  0  0  0  0  0
   -7.1617    1.5449    0.0000 C   0  0  0  0  0  0  0  0  0  0  0  0
   -5.6644    1.4542    0.0000 C   0  0  0  0  0  0  0  0  0  0  0  0
    0.8376   -2.8439    0.0000 C   0  0  0  0  0  0  0  0  0  0  0  0
    1.6443   -4.1085    0.0000 C   0  0  0  0  0  0  0  0  0  0  0  0
    3.0963   -3.7321    0.0000 C   0  0  0  0  0  0  0  0  0  0  0  0
    3.1870   -2.2348    0.0000 C   0  0  0  0  0  0  0  0  0  0  0  0
    4.3604   -1.3003    0.0000 C   0  0  0  0  0  0  0  0  0  0  0  0
    5.7563   -1.8493    0.0000 C   0  0  0  0  0  0  0  0  0  0  0  0
    6.9297   -0.9148    0.0000 C   0  0  0  0  0  0  0  0  0  0  0  0
    6.7071    0.5686    0.0000 C   0  0  0  0  0  0  0  0  0  0  0  0
    7.8805    1.5031    0.0000 C   0  0  0  0  0  0  0  0  0  0  0  0
    7.6579    2.9865    0.0000 C   0  0  0  0  0  0  0  0  0  0  0  0
    8.8312    3.9209    0.0000 O   0  0  0  0  0  0  0  0  0  0  0  0
    6.2619    3.5354    0.0000 C   0  0  0  0  0  0  0  0  0  0  0  0
    5.0886    2.6009    0.0000 C   0  0  0  0  0  0  0  0  0  0  0  0
    5.3112    1.1175    0.0000 C   0  0  0  0  0  0  0  0  0  0  0  0
    3.9152    1.6664    0.0000 C   0  0  0  0  0  0  0  0  0  0  0  0
    4.1378    0.1831    0.0000 C   0  0  0  0  0  0  0  0  0  0  0  0
    2.7418    0.7320    0.0000 C   0  0  0  0  0  0  0  0  0  0  0  0
    1.5685   -0.2025    0.0000 C   0  0  0  0  0  0  0  0  0  0  0  0
    0.1725    0.3464    0.0000 O   0  0  0  0  0  0  0  0  0  0  0  0
    1.7911   -1.6859    0.0000 C   0  0  0  0  0  0  0  0  0  0  0  0
    0.3454   -1.2859    0.0000 C   0  0  0  0  0  0  0  0  0  0  0  0
  2  1  1  6
  2  3  1  0
  3  4  1  0
  4  5  1  0
  5  6  2  0
  5  7  1  0
  7  8  1  0
  8  9  1  0
  9 10  1  0
 10 11  2  0
 11 12  1  0
 12 13  2  0
 13 14  1  0
 14 15  2  0
 15 16  1  0
  2 17  1  0
 17 18  1  6
 18 19  1  0
 20 19  1  6
 20 21  1  0
 21 22  1  1
 22 23  1  0
 24 23  1  1
 24 25  1  0
 25 26  1  0
 26 27  1  1
 26 28  1  0
 28 29  1  0
 29 30  1  0
 30 31  1  6
 30 32  1  0
 32 33  1  6
 33 34  1  0
 34 35  1  1
 34 36  1  0
 36 37  1  6
 16  7  1  0
 36 17  1  0
 15 10  1  0
 36 20  1  0
 32 21  1  0
 30 24  1  0
M  END
>  <MS_ID>  (1887) 
MS1957

>  <SMILES>  (1887) 
C[C@H](CCC(=O)N1CCc2ccccc2C1)[C@H]1CC[C@H]2[C@@H]3CC[C@@H]4C[C@H](O)CC[C@]4(C)[C@H]3C[C@H](O)[C@]12C

>  <Structure_dimension>  (1887) 
2D

$$$$
MS1959
     RDKit          2D

 37 41  0  0  0  0  0  0  0  0999 V2000
   -4.5038   -3.2145    0.0000 C   0  0  0  0  0  0  0  0  0  0  0  0
   -3.4462   -2.1508    0.0000 C   0  0  0  0  0  0  0  0  0  0  0  0
   -3.8386   -0.7030    0.0000 C   0  0  0  0  0  0  0  0  0  0  0  0
   -5.2886   -0.3190    0.0000 C   0  0  0  0  0  0  0  0  0  0  0  0
   -5.6810    1.1288    0.0000 C   0  0  0  0  0  0  0  0  0  0  0  0
   -4.6234    2.1925    0.0000 O   0  0  0  0  0  0  0  0  0  0  0  0
   -7.1310    1.5129    0.0000 C   0  0  0  0  0  0  0  0  0  0  0  0
   -7.5234    2.9606    0.0000 C   0  0  0  0  0  0  0  0  0  0  0  0
   -8.9734    3.3447    0.0000 C   0  0  0  0  0  0  0  0  0  0  0  0
  -10.0310    2.2810    0.0000 C   0  0  0  0  0  0  0  0  0  0  0  0
   -9.6386    0.8332    0.0000 C   0  0  0  0  0  0  0  0  0  0  0  0
   -8.1886    0.4492    0.0000 C   0  0  0  0  0  0  0  0  0  0  0  0
   -1.9962   -2.5348    0.0000 C   0  0  0  0  0  0  0  0  0  0  0  0
   -1.4546   -3.9337    0.0000 C   0  0  0  0  0  0  0  0  0  0  0  0
    0.0431   -3.8508    0.0000 C   0  0  0  0  0  0  0  0  0  0  0  0
    0.4272   -2.4009    0.0000 C   0  0  0  0  0  0  0  0  0  0  0  0
    1.7617   -1.7160    0.0000 C   0  0  0  0  0  0  0  0  0  0  0  0
    3.0221   -2.5294    0.0000 C   0  0  0  0  0  0  0  0  0  0  0  0
    2.9479   -4.0275    0.0000 O   0  0  0  0  0  0  0  0  0  0  0  0
    4.3566   -1.8445    0.0000 C   0  0  0  0  0  0  0  0  0  0  0  0
    4.4308   -0.3464    0.0000 C   0  0  0  0  0  0  0  0  0  0  0  0
    5.7653    0.3385    0.0000 C   0  0  0  0  0  0  0  0  0  0  0  0
    5.8395    1.8366    0.0000 C   0  0  0  0  0  0  0  0  0  0  0  0
    7.1741    2.5215    0.0000 O   0  0  0  0  0  0  0  0  0  0  0  0
    8.4344    1.7081    0.0000 S   0  0  0  0  0  0  0  0  0  0  0  0
    7.6211    0.4478    0.0000 O   0  0  0  0  0  0  0  0  0  0  0  0
    9.2478    2.9685    0.0000 O   0  0  0  0  0  0  0  0  0  0  0  0
    9.6948    0.8948    0.0000 O   0  0  0  0  0  0  0  0  0  0  0  0
    4.5792    2.6500    0.0000 C   0  0  0  0  0  0  0  0  0  0  0  0
    3.2446    1.9651    0.0000 C   0  0  0  0  0  0  0  0  0  0  0  0
    3.1704    0.4670    0.0000 C   0  0  0  0  0  0  0  0  0  0  0  0
    1.9101    1.2803    0.0000 C   0  0  0  0  0  0  0  0  0  0  0  0
    1.8359   -0.2179    0.0000 C   0  0  0  0  0  0  0  0  0  0  0  0
    0.5755    0.5955    0.0000 C   0  0  0  0  0  0  0  0  0  0  0  0
   -0.7590   -0.0894    0.0000 C   0  0  0  0  0  0  0  0  0  0  0  0
   -0.8332   -1.5875    0.0000 C   0  0  0  0  0  0  0  0  0  0  0  0
   -2.1717   -0.9104    0.0000 C   0  0  0  0  0  0  0  0  0  0  0  0
  2  1  1  6
  2  3  1  0
  3  4  1  0
  4  5  1  0
  5  6  2  0
  5  7  1  0
  7  8  2  0
  8  9  1  0
  9 10  2  0
 10 11  1  0
 11 12  2  0
  2 13  1  0
 13 14  1  6
 14 15  1  0
 16 15  1  6
 16 17  1  0
 17 18  1  1
 18 19  1  6
 18 20  1  0
 21 20  1  1
 21 22  1  0
 22 23  1  0
 23 24  1  1
 24 25  1  0
 25 26  2  0
 25 27  2  0
 25 28  1  0
 23 29  1  0
 29 30  1  0
 30 31  1  0
 31 32  1  6
 31 33  1  0
 33 34  1  6
 34 35  1  0
 35 36  1  0
 36 37  1  6
 12  7  1  0
 36 13  1  0
 36 16  1  0
 33 17  1  0
 31 21  1  0
M  END
>  <MS_ID>  (1888) 
MS1959

>  <SMILES>  (1888) 
C[C@H](CCC(=O)c1ccccc1)[C@H]1CC[C@H]2[C@@H]3[C@@H](O)C[C@@H]4C[C@H](OS(=O)(=O)O)CC[C@]4(C)[C@H]3CC[C@]12C

>  <Structure_dimension>  (1888) 
2D

$$$$
MS1960
     RDKit          2D

 27 30  0  0  0  0  0  0  0  0999 V2000
   -6.9944    3.0301    0.0000 C   0  0  0  0  0  0  0  0  0  0  0  0
   -5.6180    2.4339    0.0000 C   0  0  0  0  0  0  0  0  0  0  0  0
   -4.4135    3.3278    0.0000 O   0  0  0  0  0  0  0  0  0  0  0  0
   -5.4461    0.9438    0.0000 C   0  0  0  0  0  0  0  0  0  0  0  0
   -4.0697    0.3476    0.0000 C   0  0  0  0  0  0  0  0  0  0  0  0
   -3.8978   -1.1425    0.0000 C   0  0  0  0  0  0  0  0  0  0  0  0
   -5.1023   -2.0364    0.0000 C   0  0  0  0  0  0  0  0  0  0  0  0
   -2.5213   -1.7387    0.0000 C   0  0  0  0  0  0  0  0  0  0  0  0
   -2.1946   -3.2027    0.0000 C   0  0  0  0  0  0  0  0  0  0  0  0
   -0.7013   -3.3444    0.0000 C   0  0  0  0  0  0  0  0  0  0  0  0
   -0.1051   -1.9679    0.0000 C   0  0  0  0  0  0  0  0  0  0  0  0
    1.3167   -1.4900    0.0000 C   0  0  0  0  0  0  0  0  0  0  0  0
    2.4415   -2.4823    0.0000 C   0  0  0  0  0  0  0  0  0  0  0  0
    3.8633   -2.0044    0.0000 C   0  0  0  0  0  0  0  0  0  0  0  0
    4.1603   -0.5341    0.0000 C   0  0  0  0  0  0  0  0  0  0  0  0
    5.5821   -0.0561    0.0000 C   0  0  0  0  0  0  0  0  0  0  0  0
    5.8791    1.4142    0.0000 C   0  0  0  0  0  0  0  0  0  0  0  0
    7.3009    1.8921    0.0000 O   0  0  0  0  0  0  0  0  0  0  0  0
    4.7543    2.4065    0.0000 C   0  0  0  0  0  0  0  0  0  0  0  0
    3.3325    1.9286    0.0000 C   0  0  0  0  0  0  0  0  0  0  0  0
    3.0355    0.4583    0.0000 C   0  0  0  0  0  0  0  0  0  0  0  0
    1.9107    1.4506    0.0000 C   0  0  0  0  0  0  0  0  0  0  0  0
    1.6137   -0.0197    0.0000 C   0  0  0  0  0  0  0  0  0  0  0  0
    0.4888    0.9727    0.0000 C   0  0  0  0  0  0  0  0  0  0  0  0
   -0.9330    0.4947    0.0000 C   0  0  0  0  0  0  0  0  0  0  0  0
   -1.2300   -0.9756    0.0000 C   0  0  0  0  0  0  0  0  0  0  0  0
   -2.4524   -0.1062    0.0000 C   0  0  0  0  0  0  0  0  0  0  0  0
  1  2  1  0
  2  3  2  0
  2  4  1  0
  4  5  1  0
  5  6  1  0
  6  7  1  6
  6  8  1  0
  8  9  1  6
  9 10  1  0
 11 10  1  6
 11 12  1  0
 12 13  1  1
 13 14  1  0
 15 14  1  1
 15 16  1  0
 16 17  1  0
 17 18  2  0
 17 19  1  0
 19 20  1  0
 20 21  1  0
 21 22  1  6
 21 23  1  0
 23 24  1  6
 24 25  1  0
 25 26  1  0
 26 27  1  6
 26  8  1  0
 26 11  1  0
 23 12  1  0
 21 15  1  0
M  END
>  <MS_ID>  (1889) 
MS1960

>  <SMILES>  (1889) 
CC(=O)CC[C@@H](C)[C@H]1CC[C@H]2[C@@H]3CC[C@@H]4CC(=O)CC[C@]4(C)[C@H]3CC[C@]12C

>  <Structure_dimension>  (1889) 
2D

$$$$
MS1961
     RDKit          2D

 33 36  0  0  0  0  0  0  0  0999 V2000
   -3.1842   -3.6686    0.0000 C   0  0  0  0  0  0  0  0  0  0  0  0
   -2.3496   -2.4222    0.0000 C   0  0  0  0  0  0  0  0  0  0  0  0
   -3.0117   -1.0763    0.0000 C   0  0  0  0  0  0  0  0  0  0  0  0
   -4.5084   -0.9767    0.0000 C   0  0  0  0  0  0  0  0  0  0  0  0
   -5.1705    0.3693    0.0000 C   0  0  0  0  0  0  0  0  0  0  0  0
   -4.3359    1.6157    0.0000 O   0  0  0  0  0  0  0  0  0  0  0  0
   -6.6672    0.4689    0.0000 C   0  0  0  0  0  0  0  0  0  0  0  0
   -7.3293    1.8149    0.0000 C   0  0  0  0  0  0  0  0  0  0  0  0
   -8.8259    1.9145    0.0000 C   0  0  0  0  0  0  0  0  0  0  0  0
   -9.6606    0.6681    0.0000 O   0  0  0  0  0  0  0  0  0  0  0  0
   -9.4880    3.2604    0.0000 O   0  0  0  0  0  0  0  0  0  0  0  0
   -0.8529   -2.5218    0.0000 C   0  0  0  0  0  0  0  0  0  0  0  0
   -0.0538   -3.7912    0.0000 C   0  0  0  0  0  0  0  0  0  0  0  0
    1.4004   -3.4235    0.0000 C   0  0  0  0  0  0  0  0  0  0  0  0
    1.5000   -1.9268    0.0000 C   0  0  0  0  0  0  0  0  0  0  0  0
    2.6789   -0.9993    0.0000 C   0  0  0  0  0  0  0  0  0  0  0  0
    4.0716   -1.5565    0.0000 C   0  0  0  0  0  0  0  0  0  0  0  0
    4.2854   -3.0412    0.0000 C   0  0  0  0  0  0  0  0  0  0  0  0
    5.6780   -3.5985    0.0000 O   0  0  0  0  0  0  0  0  0  0  0  0
    5.2505   -0.6291    0.0000 C   0  0  0  0  0  0  0  0  0  0  0  0
    5.0368    0.8556    0.0000 C   0  0  0  0  0  0  0  0  0  0  0  0
    6.2157    1.7831    0.0000 C   0  0  0  0  0  0  0  0  0  0  0  0
    6.0019    3.2678    0.0000 C   0  0  0  0  0  0  0  0  0  0  0  0
    7.1808    4.1952    0.0000 O   0  0  0  0  0  0  0  0  0  0  0  0
    4.6092    3.8250    0.0000 C   0  0  0  0  0  0  0  0  0  0  0  0
    3.4303    2.8975    0.0000 C   0  0  0  0  0  0  0  0  0  0  0  0
    3.6441    1.4129    0.0000 C   0  0  0  0  0  0  0  0  0  0  0  0
    2.2514    1.9701    0.0000 C   0  0  0  0  0  0  0  0  0  0  0  0
    2.4652    0.4854    0.0000 C   0  0  0  0  0  0  0  0  0  0  0  0
    1.0725    1.0426    0.0000 C   0  0  0  0  0  0  0  0  0  0  0  0
   -0.1064    0.1152    0.0000 C   0  0  0  0  0  0  0  0  0  0  0  0
    0.1074   -1.3695    0.0000 C   0  0  0  0  0  0  0  0  0  0  0  0
   -1.3359   -0.9609    0.0000 C   0  0  0  0  0  0  0  0  0  0  0  0
  2  1  1  6
  2  3  1  0
  3  4  1  0
  4  5  1  0
  5  6  2  0
  5  7  1  0
  7  8  1  0
  8  9  1  0
  9 10  2  0
  9 11  1  0
  2 12  1  0
 12 13  1  6
 13 14  1  0
 15 14  1  6
 15 16  1  0
 16 17  1  1
 17 18  1  1
 18 19  1  0
 17 20  1  0
 21 20  1  1
 21 22  1  0
 22 23  1  0
 23 24  1  1
 23 25  1  0
 25 26  1  0
 26 27  1  0
 27 28  1  6
 27 29  1  0
 29 30  1  6
 30 31  1  0
 31 32  1  0
 32 33  1  6
 32 12  1  0
 32 15  1  0
 29 16  1  0
 27 21  1  0
M  END
>  <MS_ID>  (1890) 
MS1961

>  <SMILES>  (1890) 
C[C@H](CCC(=O)CCC(=O)O)[C@H]1CC[C@H]2[C@@H]3[C@H](CO)C[C@@H]4C[C@H](O)CC[C@]4(C)[C@H]3CC[C@]12C

>  <Structure_dimension>  (1890) 
2D

$$$$
MS1962
     RDKit          2D

 30 33  0  0  0  0  0  0  0  0999 V2000
   -5.7116   -1.9729    0.0000 C   0  0  0  0  0  0  0  0  0  0  0  0
   -4.4780   -1.1196    0.0000 C   0  0  0  0  0  0  0  0  0  0  0  0
   -4.6002    0.3754    0.0000 C   0  0  0  0  0  0  0  0  0  0  0  0
   -5.9561    1.0171    0.0000 C   0  0  0  0  0  0  0  0  0  0  0  0
   -6.0783    2.5121    0.0000 C   0  0  0  0  0  0  0  0  0  0  0  0
   -4.8447    3.3654    0.0000 O   0  0  0  0  0  0  0  0  0  0  0  0
   -7.4341    3.1538    0.0000 O   0  0  0  0  0  0  0  0  0  0  0  0
   -3.1222   -1.7613    0.0000 C   0  0  0  0  0  0  0  0  0  0  0  0
   -2.8444   -3.2353    0.0000 C   0  0  0  0  0  0  0  0  0  0  0  0
   -1.3566   -3.4266    0.0000 C   0  0  0  0  0  0  0  0  0  0  0  0
   -0.7150   -2.0708    0.0000 C   0  0  0  0  0  0  0  0  0  0  0  0
    0.7220   -1.6404    0.0000 C   0  0  0  0  0  0  0  0  0  0  0  0
    1.8132   -2.6696    0.0000 C   0  0  0  0  0  0  0  0  0  0  0  0
    3.2501   -2.2393    0.0000 C   0  0  0  0  0  0  0  0  0  0  0  0
    3.5958   -0.7797    0.0000 C   0  0  0  0  0  0  0  0  0  0  0  0
    5.0328   -0.3493    0.0000 C   0  0  0  0  0  0  0  0  0  0  0  0
    5.3785    1.1103    0.0000 C   0  0  0  0  0  0  0  0  0  0  0  0
    6.8155    1.5407    0.0000 O   0  0  0  0  0  0  0  0  0  0  0  0
    7.9066    0.5115    0.0000 C   0  0  0  0  0  0  0  0  0  0  0  0
    9.3436    0.9418    0.0000 O   0  0  0  0  0  0  0  0  0  0  0  0
    4.2873    2.1396    0.0000 C   0  0  0  0  0  0  0  0  0  0  0  0
    2.8504    1.7092    0.0000 C   0  0  0  0  0  0  0  0  0  0  0  0
    2.5047    0.2496    0.0000 C   0  0  0  0  0  0  0  0  0  0  0  0
    1.4135    1.2788    0.0000 C   0  0  0  0  0  0  0  0  0  0  0  0
    1.0677   -0.1808    0.0000 C   0  0  0  0  0  0  0  0  0  0  0  0
   -0.0235    0.8484    0.0000 C   0  0  0  0  0  0  0  0  0  0  0  0
   -1.4604    0.4181    0.0000 C   0  0  0  0  0  0  0  0  0  0  0  0
   -2.5516    1.4473    0.0000 O   0  0  0  0  0  0  0  0  0  0  0  0
   -1.8061   -1.0415    0.0000 C   0  0  0  0  0  0  0  0  0  0  0  0
   -2.9989   -0.1320    0.0000 C   0  0  0  0  0  0  0  0  0  0  0  0
  2  1  1  6
  2  3  1  0
  3  4  1  0
  4  5  1  0
  5  6  2  0
  5  7  1  0
  2  8  1  0
  8  9  1  6
  9 10  1  0
 11 10  1  6
 11 12  1  0
 12 13  1  1
 13 14  1  0
 15 14  1  1
 15 16  1  0
 16 17  1  0
 17 18  1  1
 18 19  1  0
 19 20  1  0
 17 21  1  0
 21 22  1  0
 22 23  1  0
 23 24  1  6
 23 25  1  0
 25 26  1  6
 26 27  1  0
 27 28  1  1
 27 29  1  0
 29 30  1  6
 29  8  1  0
 29 11  1  0
 25 12  1  0
 23 15  1  0
M  END
>  <MS_ID>  (1891) 
MS1962

>  <SMILES>  (1891) 
C[C@H](CCC(=O)O)[C@H]1CC[C@H]2[C@@H]3CC[C@@H]4C[C@H](OCO)CC[C@]4(C)[C@H]3C[C@H](O)[C@]12C

>  <Structure_dimension>  (1891) 
2D

$$$$
MS1963
     RDKit          2D

 31 34  0  0  0  0  0  0  0  0999 V2000
   -3.5119   -3.5779    0.0000 C   0  0  0  0  0  0  0  0  0  0  0  0
   -2.6109   -2.3787    0.0000 C   0  0  0  0  0  0  0  0  0  0  0  0
   -3.1991   -0.9988    0.0000 C   0  0  0  0  0  0  0  0  0  0  0  0
   -4.6881   -0.8181    0.0000 C   0  0  0  0  0  0  0  0  0  0  0  0
   -5.2762    0.5618    0.0000 C   0  0  0  0  0  0  0  0  0  0  0  0
   -4.3753    1.7610    0.0000 O   0  0  0  0  0  0  0  0  0  0  0  0
   -6.7653    0.7424    0.0000 N   0  0  0  0  0  0  0  0  0  0  0  0
   -7.3534    2.1223    0.0000 C   0  0  0  0  0  0  0  0  0  0  0  0
   -8.8425    2.3029    0.0000 C   0  0  0  0  0  0  0  0  0  0  0  0
   -9.4306    3.6828    0.0000 S   0  0  0  0  0  0  0  0  0  0  0  0
   -1.1219   -2.5593    0.0000 C   0  0  0  0  0  0  0  0  0  0  0  0
   -0.3927   -3.8702    0.0000 C   0  0  0  0  0  0  0  0  0  0  0  0
    1.0793   -3.5818    0.0000 C   0  0  0  0  0  0  0  0  0  0  0  0
    1.2599   -2.0927    0.0000 C   0  0  0  0  0  0  0  0  0  0  0  0
    2.4874   -1.2306    0.0000 C   0  0  0  0  0  0  0  0  0  0  0  0
    3.8478   -1.8625    0.0000 C   0  0  0  0  0  0  0  0  0  0  0  0
    3.9807   -3.3566    0.0000 O   0  0  0  0  0  0  0  0  0  0  0  0
    5.0753   -1.0003    0.0000 C   0  0  0  0  0  0  0  0  0  0  0  0
    4.9423    0.4938    0.0000 C   0  0  0  0  0  0  0  0  0  0  0  0
    6.1698    1.3559    0.0000 C   0  0  0  0  0  0  0  0  0  0  0  0
    6.0369    2.8500    0.0000 C   0  0  0  0  0  0  0  0  0  0  0  0
    7.2644    3.7122    0.0000 O   0  0  0  0  0  0  0  0  0  0  0  0
    4.6765    3.4820    0.0000 C   0  0  0  0  0  0  0  0  0  0  0  0
    3.4490    2.6198    0.0000 C   0  0  0  0  0  0  0  0  0  0  0  0
    3.5820    1.1257    0.0000 C   0  0  0  0  0  0  0  0  0  0  0  0
    2.2216    1.7576    0.0000 C   0  0  0  0  0  0  0  0  0  0  0  0
    2.3545    0.2635    0.0000 C   0  0  0  0  0  0  0  0  0  0  0  0
    0.9941    0.8955    0.0000 C   0  0  0  0  0  0  0  0  0  0  0  0
   -0.2334    0.0333    0.0000 C   0  0  0  0  0  0  0  0  0  0  0  0
   -0.1005   -1.4608    0.0000 C   0  0  0  0  0  0  0  0  0  0  0  0
   -1.5195   -0.9745    0.0000 C   0  0  0  0  0  0  0  0  0  0  0  0
  2  1  1  6
  2  3  1  0
  3  4  1  0
  4  5  1  0
  5  6  2  0
  5  7  1  0
  7  8  1  0
  8  9  1  0
  9 10  1  0
  2 11  1  0
 11 12  1  6
 12 13  1  0
 14 13  1  6
 14 15  1  0
 15 16  1  1
 16 17  1  6
 16 18  1  0
 19 18  1  1
 19 20  1  0
 20 21  1  0
 21 22  1  1
 21 23  1  0
 23 24  1  0
 24 25  1  0
 25 26  1  6
 25 27  1  0
 27 28  1  6
 28 29  1  0
 29 30  1  0
 30 31  1  6
 30 11  1  0
 30 14  1  0
 27 15  1  0
 25 19  1  0
M  END
>  <MS_ID>  (1892) 
MS1963

>  <SMILES>  (1892) 
C[C@H](CCC(=O)NCCS)[C@H]1CC[C@H]2[C@@H]3[C@@H](O)C[C@@H]4C[C@H](O)CC[C@]4(C)[C@H]3CC[C@]12C

>  <Structure_dimension>  (1892) 
2D

$$$$
MS1964
     RDKit          2D

 33 37  0  0  0  0  0  0  0  0999 V2000
   -2.6982   -4.1233    0.0000 C   0  0  0  0  0  0  0  0  0  0  0  0
   -1.9222   -2.8397    0.0000 C   0  0  0  0  0  0  0  0  0  0  0  0
   -2.6459   -1.5258    0.0000 C   0  0  0  0  0  0  0  0  0  0  0  0
   -4.1456   -1.4956    0.0000 C   0  0  0  0  0  0  0  0  0  0  0  0
   -4.8692   -0.1817    0.0000 C   0  0  0  0  0  0  0  0  0  0  0  0
   -4.0932    1.1020    0.0000 O   0  0  0  0  0  0  0  0  0  0  0  0
   -6.3689   -0.1514    0.0000 N   0  0  0  0  0  0  0  0  0  0  0  0
   -7.0926    1.1625    0.0000 C   0  0  0  0  0  0  0  0  0  0  0  0
   -8.5809    1.3493    0.0000 N   0  0  0  0  0  0  0  0  0  0  0  0
   -8.8631    2.8225    0.0000 C   0  0  0  0  0  0  0  0  0  0  0  0
   -7.5492    3.5462    0.0000 C   0  0  0  0  0  0  0  0  0  0  0  0
   -6.4550    2.5202    0.0000 S   0  0  0  0  0  0  0  0  0  0  0  0
   -0.4225   -2.8699    0.0000 C   0  0  0  0  0  0  0  0  0  0  0  0
    0.4345   -4.1010    0.0000 C   0  0  0  0  0  0  0  0  0  0  0  0
    1.8702   -3.6663    0.0000 C   0  0  0  0  0  0  0  0  0  0  0  0
    1.9004   -2.1666    0.0000 C   0  0  0  0  0  0  0  0  0  0  0  0
    3.0351   -1.1856    0.0000 C   0  0  0  0  0  0  0  0  0  0  0  0
    4.4521   -1.6778    0.0000 C   0  0  0  0  0  0  0  0  0  0  0  0
    4.7343   -3.1510    0.0000 O   0  0  0  0  0  0  0  0  0  0  0  0
    5.5868   -0.6967    0.0000 C   0  0  0  0  0  0  0  0  0  0  0  0
    5.3046    0.7765    0.0000 C   0  0  0  0  0  0  0  0  0  0  0  0
    6.4393    1.7575    0.0000 C   0  0  0  0  0  0  0  0  0  0  0  0
    6.1571    3.2307    0.0000 C   0  0  0  0  0  0  0  0  0  0  0  0
    7.2918    4.2117    0.0000 O   0  0  0  0  0  0  0  0  0  0  0  0
    4.7401    3.7229    0.0000 C   0  0  0  0  0  0  0  0  0  0  0  0
    3.6054    2.7419    0.0000 C   0  0  0  0  0  0  0  0  0  0  0  0
    3.8876    1.2687    0.0000 C   0  0  0  0  0  0  0  0  0  0  0  0
    2.4707    1.7609    0.0000 C   0  0  0  0  0  0  0  0  0  0  0  0
    2.7529    0.2876    0.0000 C   0  0  0  0  0  0  0  0  0  0  0  0
    1.3360    0.7798    0.0000 C   0  0  0  0  0  0  0  0  0  0  0  0
    0.2012   -0.2012    0.0000 C   0  0  0  0  0  0  0  0  0  0  0  0
    0.4835   -1.6744    0.0000 C   0  0  0  0  0  0  0  0  0  0  0  0
   -0.9772   -1.3330    0.0000 C   0  0  0  0  0  0  0  0  0  0  0  0
  2  1  1  6
  2  3  1  0
  3  4  1  0
  4  5  1  0
  5  6  2  0
  5  7  1  0
  7  8  1  0
  8  9  2  0
  9 10  1  0
 10 11  2  0
 11 12  1  0
  2 13  1  0
 13 14  1  6
 14 15  1  0
 16 15  1  6
 16 17  1  0
 17 18  1  1
 18 19  1  1
 18 20  1  0
 21 20  1  1
 21 22  1  0
 22 23  1  0
 23 24  1  1
 23 25  1  0
 25 26  1  0
 26 27  1  0
 27 28  1  6
 27 29  1  0
 29 30  1  6
 30 31  1  0
 31 32  1  0
 32 33  1  6
 12  8  1  0
 32 13  1  0
 32 16  1  0
 29 17  1  0
 27 21  1  0
M  END
>  <MS_ID>  (1893) 
MS1964

>  <SMILES>  (1893) 
C[C@H](CCC(=O)Nc1nccs1)[C@H]1CC[C@H]2[C@@H]3[C@H](O)C[C@@H]4C[C@H](O)CC[C@]4(C)[C@H]3CC[C@]12C

>  <Structure_dimension>  (1893) 
2D

$$$$
MS1965
     RDKit          2D

 29 32  0  0  0  0  0  0  0  0999 V2000
   -4.6958   -2.6034    0.0000 C   0  0  0  0  0  0  0  0  0  0  0  0
   -3.5597   -1.6240    0.0000 C   0  0  0  0  0  0  0  0  0  0  0  0
   -3.8399   -0.1504    0.0000 C   0  0  0  0  0  0  0  0  0  0  0  0
   -5.2561    0.3438    0.0000 C   0  0  0  0  0  0  0  0  0  0  0  0
   -5.5363    1.8174    0.0000 C   0  0  0  0  0  0  0  0  0  0  0  0
   -6.9525    2.3116    0.0000 O   0  0  0  0  0  0  0  0  0  0  0  0
   -4.4002    2.7968    0.0000 O   0  0  0  0  0  0  0  0  0  0  0  0
   -4.6804    4.2704    0.0000 F   0  0  0  0  0  0  0  0  0  0  0  0
   -2.1434   -2.1182    0.0000 C   0  0  0  0  0  0  0  0  0  0  0  0
   -1.7108   -3.5544    0.0000 C   0  0  0  0  0  0  0  0  0  0  0  0
   -0.2111   -3.5867    0.0000 C   0  0  0  0  0  0  0  0  0  0  0  0
    0.2831   -2.1705    0.0000 C   0  0  0  0  0  0  0  0  0  0  0  0
    1.6662   -1.5901    0.0000 C   0  0  0  0  0  0  0  0  0  0  0  0
    2.8605   -2.4977    0.0000 C   0  0  0  0  0  0  0  0  0  0  0  0
    4.2436   -1.9173    0.0000 C   0  0  0  0  0  0  0  0  0  0  0  0
    4.4325   -0.4292    0.0000 C   0  0  0  0  0  0  0  0  0  0  0  0
    5.8157    0.1512    0.0000 C   0  0  0  0  0  0  0  0  0  0  0  0
    6.0046    1.6393    0.0000 C   0  0  0  0  0  0  0  0  0  0  0  0
    7.3877    2.2197    0.0000 O   0  0  0  0  0  0  0  0  0  0  0  0
    4.8103    2.5469    0.0000 C   0  0  0  0  0  0  0  0  0  0  0  0
    3.4272    1.9665    0.0000 C   0  0  0  0  0  0  0  0  0  0  0  0
    3.2383    0.4784    0.0000 C   0  0  0  0  0  0  0  0  0  0  0  0
    2.0440    1.3861    0.0000 C   0  0  0  0  0  0  0  0  0  0  0  0
    1.8551   -0.1020    0.0000 C   0  0  0  0  0  0  0  0  0  0  0  0
    0.6609    0.8056    0.0000 C   0  0  0  0  0  0  0  0  0  0  0  0
   -0.7223    0.2252    0.0000 C   0  0  0  0  0  0  0  0  0  0  0  0
   -1.9165    1.1328    0.0000 O   0  0  0  0  0  0  0  0  0  0  0  0
   -0.9112   -1.2628    0.0000 C   0  0  0  0  0  0  0  0  0  0  0  0
   -2.1937   -0.4850    0.0000 C   0  0  0  0  0  0  0  0  0  0  0  0
  2  1  1  6
  2  3  1  0
  3  4  1  0
  4  5  1  0
  5  6  2  0
  5  7  1  0
  7  8  1  0
  2  9  1  0
  9 10  1  6
 10 11  1  0
 12 11  1  6
 12 13  1  0
 13 14  1  1
 14 15  1  0
 16 15  1  1
 16 17  1  0
 17 18  1  0
 18 19  1  1
 18 20  1  0
 20 21  1  0
 21 22  1  0
 22 23  1  6
 22 24  1  0
 24 25  1  6
 25 26  1  0
 26 27  1  1
 26 28  1  0
 28 29  1  6
 28  9  1  0
 28 12  1  0
 24 13  1  0
 22 16  1  0
M  END
>  <MS_ID>  (1894) 
MS1965

>  <SMILES>  (1894) 
C[C@H](CCC(=O)OF)[C@H]1CC[C@H]2[C@@H]3CC[C@@H]4C[C@H](O)CC[C@]4(C)[C@H]3C[C@H](O)[C@]12C

>  <Structure_dimension>  (1894) 
2D

$$$$
MS1966
     RDKit          2D

 34 38  0  0  0  0  0  0  0  0999 V2000
   -3.2858   -3.3478    0.0000 C   0  0  0  0  0  0  0  0  0  0  0  0
   -2.3538   -2.1725    0.0000 C   0  0  0  0  0  0  0  0  0  0  0  0
   -2.9057   -0.7777    0.0000 C   0  0  0  0  0  0  0  0  0  0  0  0
   -4.3895   -0.5582    0.0000 C   0  0  0  0  0  0  0  0  0  0  0  0
   -4.9414    0.8366    0.0000 C   0  0  0  0  0  0  0  0  0  0  0  0
   -4.0094    2.0119    0.0000 O   0  0  0  0  0  0  0  0  0  0  0  0
   -6.4253    1.0561    0.0000 N   0  0  0  0  0  0  0  0  0  0  0  0
   -6.9771    2.4509    0.0000 C   0  0  0  0  0  0  0  0  0  0  0  0
   -8.4610    2.6704    0.0000 C   0  0  0  0  0  0  0  0  0  0  0  0
   -9.3930    1.4950    0.0000 O   0  0  0  0  0  0  0  0  0  0  0  0
   -8.8411    0.1002    0.0000 C   0  0  0  0  0  0  0  0  0  0  0  0
   -7.3573   -0.1192    0.0000 C   0  0  0  0  0  0  0  0  0  0  0  0
   -0.8700   -2.3919    0.0000 C   0  0  0  0  0  0  0  0  0  0  0  0
   -0.1754   -3.7214    0.0000 C   0  0  0  0  0  0  0  0  0  0  0  0
    1.3037   -3.4716    0.0000 C   0  0  0  0  0  0  0  0  0  0  0  0
    1.5232   -1.9878    0.0000 C   0  0  0  0  0  0  0  0  0  0  0  0
    2.7728   -1.1580    0.0000 C   0  0  0  0  0  0  0  0  0  0  0  0
    4.1162   -1.8252    0.0000 C   0  0  0  0  0  0  0  0  0  0  0  0
    4.2100   -3.3223    0.0000 O   0  0  0  0  0  0  0  0  0  0  0  0
    5.3657   -0.9955    0.0000 C   0  0  0  0  0  0  0  0  0  0  0  0
    6.7092   -1.6627    0.0000 O   0  0  0  0  0  0  0  0  0  0  0  0
    5.2719    0.5016    0.0000 C   0  0  0  0  0  0  0  0  0  0  0  0
    6.5215    1.3314    0.0000 C   0  0  0  0  0  0  0  0  0  0  0  0
    6.4277    2.8285    0.0000 C   0  0  0  0  0  0  0  0  0  0  0  0
    7.6772    3.6583    0.0000 O   0  0  0  0  0  0  0  0  0  0  0  0
    5.0843    3.4957    0.0000 C   0  0  0  0  0  0  0  0  0  0  0  0
    3.8347    2.6659    0.0000 C   0  0  0  0  0  0  0  0  0  0  0  0
    3.9285    1.1689    0.0000 C   0  0  0  0  0  0  0  0  0  0  0  0
    2.5851    1.8362    0.0000 C   0  0  0  0  0  0  0  0  0  0  0  0
    2.6789    0.3391    0.0000 C   0  0  0  0  0  0  0  0  0  0  0  0
    1.3355    1.0064    0.0000 C   0  0  0  0  0  0  0  0  0  0  0  0
    0.0859    0.1766    0.0000 C   0  0  0  0  0  0  0  0  0  0  0  0
    0.1798   -1.3205    0.0000 C   0  0  0  0  0  0  0  0  0  0  0  0
   -1.2260   -0.7973    0.0000 C   0  0  0  0  0  0  0  0  0  0  0  0
  2  1  1  6
  2  3  1  0
  3  4  1  0
  4  5  1  0
  5  6  2  0
  5  7  1  0
  7  8  1  0
  8  9  1  0
  9 10  1  0
 10 11  1  0
 11 12  1  0
  2 13  1  0
 13 14  1  6
 14 15  1  0
 16 15  1  6
 16 17  1  0
 17 18  1  1
 18 19  1  1
 18 20  1  0
 20 21  1  1
 20 22  1  0
 22 23  1  1
 23 24  1  0
 24 25  1  1
 24 26  1  0
 26 27  1  0
 27 28  1  0
 28 29  1  6
 28 30  1  0
 30 31  1  6
 31 32  1  0
 32 33  1  0
 33 34  1  6
 12  7  1  0
 33 13  1  0
 33 16  1  0
 30 17  1  0
 28 22  1  0
M  END
>  <MS_ID>  (1895) 
MS1966

>  <SMILES>  (1895) 
C[C@H](CCC(=O)N1CCOCC1)[C@H]1CC[C@H]2[C@@H]3[C@H](O)[C@H](O)[C@@H]4C[C@H](O)CC[C@]4(C)[C@H]3CC[C@]12C

>  <Structure_dimension>  (1895) 
2D

$$$$
MS1967
     RDKit          2D

 35 39  0  0  0  0  0  0  0  0999 V2000
   -1.8808   -4.0339    0.0000 C   0  0  0  0  0  0  0  0  0  0  0  0
   -1.1003   -2.7530    0.0000 C   0  0  0  0  0  0  0  0  0  0  0  0
   -1.8193   -1.4366    0.0000 C   0  0  0  0  0  0  0  0  0  0  0  0
   -3.3189   -1.4011    0.0000 C   0  0  0  0  0  0  0  0  0  0  0  0
   -4.0380   -0.0847    0.0000 C   0  0  0  0  0  0  0  0  0  0  0  0
   -3.2575    1.1962    0.0000 O   0  0  0  0  0  0  0  0  0  0  0  0
   -5.5376   -0.0492    0.0000 O   0  0  0  0  0  0  0  0  0  0  0  0
   -6.2567    1.2672    0.0000 C   0  0  0  0  0  0  0  0  0  0  0  0
   -7.7562    1.3026    0.0000 C   0  0  0  0  0  0  0  0  0  0  0  0
   -8.4753    2.6190    0.0000 C   0  0  0  0  0  0  0  0  0  0  0  0
   -9.9749    2.6545    0.0000 C   0  0  0  0  0  0  0  0  0  0  0  0
  -10.7554    1.3735    0.0000 C   0  0  0  0  0  0  0  0  0  0  0  0
  -10.0363    0.0571    0.0000 C   0  0  0  0  0  0  0  0  0  0  0  0
   -8.5367    0.0217    0.0000 C   0  0  0  0  0  0  0  0  0  0  0  0
    0.3993   -2.7884    0.0000 C   0  0  0  0  0  0  0  0  0  0  0  0
    1.2521   -4.0225    0.0000 C   0  0  0  0  0  0  0  0  0  0  0  0
    2.6892   -3.5928    0.0000 C   0  0  0  0  0  0  0  0  0  0  0  0
    2.7247   -2.0932    0.0000 C   0  0  0  0  0  0  0  0  0  0  0  0
    3.8628   -1.1162    0.0000 C   0  0  0  0  0  0  0  0  0  0  0  0
    5.2780   -1.6133    0.0000 C   0  0  0  0  0  0  0  0  0  0  0  0
    5.5551   -3.0875    0.0000 O   0  0  0  0  0  0  0  0  0  0  0  0
    6.4162   -0.6362    0.0000 C   0  0  0  0  0  0  0  0  0  0  0  0
    6.1391    0.8380    0.0000 C   0  0  0  0  0  0  0  0  0  0  0  0
    7.2772    1.8150    0.0000 C   0  0  0  0  0  0  0  0  0  0  0  0
    7.0001    3.2892    0.0000 C   0  0  0  0  0  0  0  0  0  0  0  0
    8.1382    4.2663    0.0000 O   0  0  0  0  0  0  0  0  0  0  0  0
    5.5849    3.7863    0.0000 C   0  0  0  0  0  0  0  0  0  0  0  0
    4.4467    2.8093    0.0000 C   0  0  0  0  0  0  0  0  0  0  0  0
    4.7238    1.3351    0.0000 C   0  0  0  0  0  0  0  0  0  0  0  0
    3.3086    1.8322    0.0000 C   0  0  0  0  0  0  0  0  0  0  0  0
    3.5857    0.3580    0.0000 C   0  0  0  0  0  0  0  0  0  0  0  0
    2.1705    0.8551    0.0000 C   0  0  0  0  0  0  0  0  0  0  0  0
    1.0323   -0.1219    0.0000 C   0  0  0  0  0  0  0  0  0  0  0  0
    1.3094   -1.5961    0.0000 C   0  0  0  0  0  0  0  0  0  0  0  0
   -0.1500   -1.2496    0.0000 C   0  0  0  0  0  0  0  0  0  0  0  0
  2  1  1  6
  2  3  1  0
  3  4  1  0
  4  5  1  0
  5  6  2  0
  5  7  1  0
  7  8  1  0
  8  9  1  0
  9 10  2  0
 10 11  1  0
 11 12  2  0
 12 13  1  0
 13 14  2  0
  2 15  1  0
 15 16  1  6
 16 17  1  0
 18 17  1  6
 18 19  1  0
 19 20  1  1
 20 21  1  6
 20 22  1  0
 23 22  1  1
 23 24  1  0
 24 25  1  0
 25 26  1  1
 25 27  1  0
 27 28  1  0
 28 29  1  0
 29 30  1  6
 29 31  1  0
 31 32  1  6
 32 33  1  0
 33 34  1  0
 34 35  1  6
 14  9  1  0
 34 15  1  0
 34 18  1  0
 31 19  1  0
 29 23  1  0
M  END
>  <MS_ID>  (1896) 
MS1967

>  <SMILES>  (1896) 
C[C@H](CCC(=O)OCc1ccccc1)[C@H]1CC[C@H]2[C@@H]3[C@@H](O)C[C@@H]4C[C@H](O)CC[C@]4(C)[C@H]3CC[C@]12C

>  <Structure_dimension>  (1896) 
2D

$$$$
MS1968
     RDKit          2D

 39 43  0  0  0  0  0  0  0  0999 V2000
   -7.7534   -2.1938    0.0000 C   0  0  0  0  0  0  0  0  0  0  0  0
   -6.5793   -1.2603    0.0000 C   0  0  0  0  0  0  0  0  0  0  0  0
   -6.8008    0.2233    0.0000 C   0  0  0  0  0  0  0  0  0  0  0  0
   -8.1963    0.7733    0.0000 C   0  0  0  0  0  0  0  0  0  0  0  0
   -8.4177    2.2569    0.0000 C   0  0  0  0  0  0  0  0  0  0  0  0
   -7.2436    3.1904    0.0000 O   0  0  0  0  0  0  0  0  0  0  0  0
   -9.8132    2.8069    0.0000 O   0  0  0  0  0  0  0  0  0  0  0  0
   -5.1838   -1.8103    0.0000 C   0  0  0  0  0  0  0  0  0  0  0  0
   -4.8085   -3.2626    0.0000 C   0  0  0  0  0  0  0  0  0  0  0  0
   -3.3114   -3.3545    0.0000 C   0  0  0  0  0  0  0  0  0  0  0  0
   -2.7613   -1.9590    0.0000 C   0  0  0  0  0  0  0  0  0  0  0  0
   -1.3562   -1.4339    0.0000 C   0  0  0  0  0  0  0  0  0  0  0  0
   -0.1990   -2.3883    0.0000 C   0  0  0  0  0  0  0  0  0  0  0  0
    1.2061   -1.8632    0.0000 C   0  0  0  0  0  0  0  0  0  0  0  0
    1.4540   -0.3839    0.0000 C   0  0  0  0  0  0  0  0  0  0  0  0
    2.8591    0.1412    0.0000 C   0  0  0  0  0  0  0  0  0  0  0  0
    3.1070    1.6206    0.0000 C   0  0  0  0  0  0  0  0  0  0  0  0
    4.5121    2.1456    0.0000 O   0  0  0  0  0  0  0  0  0  0  0  0
    5.6693    1.1912    0.0000 C   0  0  0  0  0  0  0  0  0  0  0  0
    5.4215   -0.2881    0.0000 O   0  0  0  0  0  0  0  0  0  0  0  0
    6.5787   -1.2425    0.0000 C   0  0  0  0  0  0  0  0  0  0  0  0
    6.3309   -2.7219    0.0000 C   0  0  0  0  0  0  0  0  0  0  0  0
    4.9257   -3.2469    0.0000 O   0  0  0  0  0  0  0  0  0  0  0  0
    7.9838   -0.7174    0.0000 C   0  0  0  0  0  0  0  0  0  0  0  0
    9.1411   -1.6718    0.0000 O   0  0  0  0  0  0  0  0  0  0  0  0
    8.2317    0.7619    0.0000 C   0  0  0  0  0  0  0  0  0  0  0  0
    9.6368    1.2870    0.0000 O   0  0  0  0  0  0  0  0  0  0  0  0
    7.0744    1.7163    0.0000 C   0  0  0  0  0  0  0  0  0  0  0  0
    7.3223    3.1957    0.0000 O   0  0  0  0  0  0  0  0  0  0  0  0
    1.9497    2.5749    0.0000 C   0  0  0  0  0  0  0  0  0  0  0  0
    0.5446    2.0499    0.0000 C   0  0  0  0  0  0  0  0  0  0  0  0
    0.2967    0.5705    0.0000 C   0  0  0  0  0  0  0  0  0  0  0  0
   -0.8605    1.5248    0.0000 C   0  0  0  0  0  0  0  0  0  0  0  0
   -1.1084    0.0455    0.0000 C   0  0  0  0  0  0  0  0  0  0  0  0
   -2.2656    0.9998    0.0000 C   0  0  0  0  0  0  0  0  0  0  0  0
   -3.6707    0.4748    0.0000 C   0  0  0  0  0  0  0  0  0  0  0  0
   -4.8280    1.4291    0.0000 O   0  0  0  0  0  0  0  0  0  0  0  0
   -3.9186   -1.0046    0.0000 C   0  0  0  0  0  0  0  0  0  0  0  0
   -5.1693   -0.1765    0.0000 C   0  0  0  0  0  0  0  0  0  0  0  0
  2  1  1  6
  2  3  1  0
  3  4  1  0
  4  5  1  0
  5  6  2  0
  5  7  1  0
  2  8  1  0
  8  9  1  6
  9 10  1  0
 11 10  1  6
 11 12  1  0
 12 13  1  1
 13 14  1  0
 15 14  1  1
 15 16  1  0
 16 17  1  0
 17 18  1  1
 19 18  1  1
 19 20  1  0
 20 21  1  0
 21 22  1  1
 22 23  1  0
 21 24  1  0
 24 25  1  6
 24 26  1  0
 26 27  1  1
 26 28  1  0
 28 29  1  1
 17 30  1  0
 30 31  1  0
 31 32  1  0
 32 33  1  6
 32 34  1  0
 34 35  1  6
 35 36  1  0
 36 37  1  1
 36 38  1  0
 38 39  1  6
 38  8  1  0
 38 11  1  0
 34 12  1  0
 32 15  1  0
 28 19  1  0
M  END
>  <MS_ID>  (1897) 
MS1968

>  <SMILES>  (1897) 
C[C@H](CCC(=O)O)[C@H]1CC[C@H]2[C@@H]3CC[C@@H]4C[C@H](O[C@@H]5O[C@H](CO)[C@@H](O)[C@H](O)[C@@H]5O)CC[C@]4(C)[C@H]3C[C@H](O)[C@]12C

>  <Structure_dimension>  (1897) 
2D

$$$$
MS1969
     RDKit          2D

 30 33  0  0  0  0  0  0  0  0999 V2000
   -3.0505   -3.6493    0.0000 C   0  0  0  0  0  0  0  0  0  0  0  0
   -2.2252   -2.3967    0.0000 C   0  0  0  0  0  0  0  0  0  0  0  0
   -2.8973   -1.0557    0.0000 C   0  0  0  0  0  0  0  0  0  0  0  0
   -4.3947   -0.9673    0.0000 C   0  0  0  0  0  0  0  0  0  0  0  0
   -5.0668    0.3737    0.0000 C   0  0  0  0  0  0  0  0  0  0  0  0
   -4.2415    1.6263    0.0000 O   0  0  0  0  0  0  0  0  0  0  0  0
   -6.5642    0.4622    0.0000 O   0  0  0  0  0  0  0  0  0  0  0  0
   -7.2363    1.8032    0.0000 C   0  0  0  0  0  0  0  0  0  0  0  0
   -8.7337    1.8916    0.0000 C   0  0  0  0  0  0  0  0  0  0  0  0
   -9.4058    3.2326    0.0000 N   0  0  0  0  0  0  0  0  0  0  0  0
   -0.7278   -2.4852    0.0000 C   0  0  0  0  0  0  0  0  0  0  0  0
    0.0808   -3.7486    0.0000 C   0  0  0  0  0  0  0  0  0  0  0  0
    1.5322   -3.3700    0.0000 C   0  0  0  0  0  0  0  0  0  0  0  0
    1.6207   -1.8726    0.0000 C   0  0  0  0  0  0  0  0  0  0  0  0
    2.7926   -0.9364    0.0000 C   0  0  0  0  0  0  0  0  0  0  0  0
    4.1894   -1.4832    0.0000 C   0  0  0  0  0  0  0  0  0  0  0  0
    4.4142   -2.9662    0.0000 O   0  0  0  0  0  0  0  0  0  0  0  0
    5.3613   -0.5470    0.0000 C   0  0  0  0  0  0  0  0  0  0  0  0
    5.1365    0.9361    0.0000 C   0  0  0  0  0  0  0  0  0  0  0  0
    6.3085    1.8723    0.0000 C   0  0  0  0  0  0  0  0  0  0  0  0
    6.0837    3.3554    0.0000 C   0  0  0  0  0  0  0  0  0  0  0  0
    4.6869    3.9022    0.0000 C   0  0  0  0  0  0  0  0  0  0  0  0
    3.5149    2.9660    0.0000 C   0  0  0  0  0  0  0  0  0  0  0  0
    3.7398    1.4829    0.0000 C   0  0  0  0  0  0  0  0  0  0  0  0
    2.3430    2.0298    0.0000 C   0  0  0  0  0  0  0  0  0  0  0  0
    2.5678    0.5467    0.0000 C   0  0  0  0  0  0  0  0  0  0  0  0
    1.1710    1.0935    0.0000 C   0  0  0  0  0  0  0  0  0  0  0  0
   -0.0009    0.1573    0.0000 C   0  0  0  0  0  0  0  0  0  0  0  0
    0.2239   -1.3257    0.0000 C   0  0  0  0  0  0  0  0  0  0  0  0
   -1.2224   -0.9279    0.0000 C   0  0  0  0  0  0  0  0  0  0  0  0
  2  1  1  6
  2  3  1  0
  3  4  1  0
  4  5  1  0
  5  6  2  0
  5  7  1  0
  7  8  1  0
  8  9  1  0
  9 10  1  0
  2 11  1  0
 11 12  1  6
 12 13  1  0
 14 13  1  6
 14 15  1  0
 15 16  1  1
 16 17  1  6
 16 18  1  0
 19 18  1  1
 19 20  1  0
 20 21  1  0
 21 22  1  0
 22 23  1  0
 23 24  1  0
 24 25  1  6
 24 26  1  0
 26 27  1  6
 27 28  1  0
 28 29  1  0
 29 30  1  6
 29 11  1  0
 29 14  1  0
 26 15  1  0
 24 19  1  0
M  END
>  <MS_ID>  (1898) 
MS1969

>  <SMILES>  (1898) 
C[C@H](CCC(=O)OCCN)[C@H]1CC[C@H]2[C@@H]3[C@@H](O)C[C@@H]4CCCC[C@]4(C)[C@H]3CC[C@]12C

>  <Structure_dimension>  (1898) 
2D

$$$$
MS1970
     RDKit          2D

 30 33  0  0  0  0  0  0  0  0999 V2000
   -4.7023   -2.6242    0.0000 C   0  0  0  0  0  0  0  0  0  0  0  0
   -3.5985   -1.6085    0.0000 C   0  0  0  0  0  0  0  0  0  0  0  0
   -3.9263   -0.1448    0.0000 C   0  0  0  0  0  0  0  0  0  0  0  0
   -5.3578    0.3033    0.0000 C   0  0  0  0  0  0  0  0  0  0  0  0
   -5.6855    1.7670    0.0000 C   0  0  0  0  0  0  0  0  0  0  0  0
   -7.1171    2.2151    0.0000 O   0  0  0  0  0  0  0  0  0  0  0  0
   -4.5818    2.7827    0.0000 O   0  0  0  0  0  0  0  0  0  0  0  0
   -4.9095    4.2465    0.0000 O   0  0  0  0  0  0  0  0  0  0  0  0
   -2.1670   -2.0566    0.0000 C   0  0  0  0  0  0  0  0  0  0  0  0
   -1.6881   -3.4780    0.0000 C   0  0  0  0  0  0  0  0  0  0  0  0
   -0.1881   -3.4618    0.0000 C   0  0  0  0  0  0  0  0  0  0  0  0
    0.2599   -2.0303    0.0000 C   0  0  0  0  0  0  0  0  0  0  0  0
    1.6235   -1.4054    0.0000 C   0  0  0  0  0  0  0  0  0  0  0  0
    2.8465   -2.2738    0.0000 C   0  0  0  0  0  0  0  0  0  0  0  0
    2.7059   -3.7672    0.0000 O   0  0  0  0  0  0  0  0  0  0  0  0
    4.2102   -1.6489    0.0000 C   0  0  0  0  0  0  0  0  0  0  0  0
    4.3508   -0.1555    0.0000 C   0  0  0  0  0  0  0  0  0  0  0  0
    5.7144    0.4694    0.0000 C   0  0  0  0  0  0  0  0  0  0  0  0
    5.8550    1.9628    0.0000 C   0  0  0  0  0  0  0  0  0  0  0  0
    7.2187    2.5877    0.0000 O   0  0  0  0  0  0  0  0  0  0  0  0
    4.6320    2.8313    0.0000 C   0  0  0  0  0  0  0  0  0  0  0  0
    3.2684    2.2063    0.0000 C   0  0  0  0  0  0  0  0  0  0  0  0
    3.1278    0.7130    0.0000 C   0  0  0  0  0  0  0  0  0  0  0  0
    1.9048    1.5814    0.0000 C   0  0  0  0  0  0  0  0  0  0  0  0
    1.7642    0.0880    0.0000 C   0  0  0  0  0  0  0  0  0  0  0  0
    0.5411    0.9565    0.0000 C   0  0  0  0  0  0  0  0  0  0  0  0
   -0.8225    0.3316    0.0000 C   0  0  0  0  0  0  0  0  0  0  0  0
   -2.0455    1.2001    0.0000 O   0  0  0  0  0  0  0  0  0  0  0  0
   -0.9631   -1.1618    0.0000 C   0  0  0  0  0  0  0  0  0  0  0  0
   -2.2702   -0.4259    0.0000 C   0  0  0  0  0  0  0  0  0  0  0  0
  2  1  1  6
  2  3  1  0
  3  4  1  0
  4  5  1  0
  5  6  2  0
  5  7  1  0
  7  8  1  0
  2  9  1  0
  9 10  1  6
 10 11  1  0
 12 11  1  6
 12 13  1  0
 13 14  1  1
 14 15  1  6
 14 16  1  0
 17 16  1  1
 17 18  1  0
 18 19  1  0
 19 20  1  6
 19 21  1  0
 21 22  1  0
 22 23  1  0
 23 24  1  6
 23 25  1  0
 25 26  1  6
 26 27  1  0
 27 28  1  6
 27 29  1  0
 29 30  1  6
 29  9  1  0
 29 12  1  0
 25 13  1  0
 23 17  1  0
M  END
>  <MS_ID>  (1899) 
MS1970

>  <SMILES>  (1899) 
C[C@H](CCC(=O)OO)[C@H]1CC[C@H]2[C@@H]3[C@@H](O)C[C@@H]4C[C@@H](O)CC[C@]4(C)[C@H]3C[C@@H](O)[C@]12C

>  <Structure_dimension>  (1899) 
2D

$$$$
MS1971
     RDKit          2D

 36 39  0  0  0  0  0  0  0  0999 V2000
   -1.8597   -4.2154    0.0000 C   0  0  0  0  0  0  0  0  0  0  0  0
   -1.1480   -2.8950    0.0000 C   0  0  0  0  0  0  0  0  0  0  0  0
   -1.9357   -1.6185    0.0000 C   0  0  0  0  0  0  0  0  0  0  0  0
   -3.4351   -1.6624    0.0000 C   0  0  0  0  0  0  0  0  0  0  0  0
   -4.2228   -0.3859    0.0000 C   0  0  0  0  0  0  0  0  0  0  0  0
   -3.5111    0.9346    0.0000 O   0  0  0  0  0  0  0  0  0  0  0  0
   -5.7221   -0.4298    0.0000 C   0  0  0  0  0  0  0  0  0  0  0  0
   -6.5098    0.8468    0.0000 N   0  0  0  0  0  0  0  0  0  0  0  0
   -8.0092    0.8028    0.0000 C   0  0  0  0  0  0  0  0  0  0  0  0
   -8.7208   -0.5176    0.0000 O   0  0  0  0  0  0  0  0  0  0  0  0
   -8.7969    2.0794    0.0000 C   0  0  0  0  0  0  0  0  0  0  0  0
  -10.2963    2.0355    0.0000 C   0  0  0  0  0  0  0  0  0  0  0  0
  -11.0079    0.7150    0.0000 O   0  0  0  0  0  0  0  0  0  0  0  0
  -11.0840    3.3120    0.0000 O   0  0  0  0  0  0  0  0  0  0  0  0
    0.3514   -2.8511    0.0000 C   0  0  0  0  0  0  0  0  0  0  0  0
    1.2682   -4.0383    0.0000 C   0  0  0  0  0  0  0  0  0  0  0  0
    2.6806   -3.5332    0.0000 C   0  0  0  0  0  0  0  0  0  0  0  0
    2.6367   -2.0338    0.0000 C   0  0  0  0  0  0  0  0  0  0  0  0
    3.7215   -0.9979    0.0000 C   0  0  0  0  0  0  0  0  0  0  0  0
    5.1611   -1.4195    0.0000 C   0  0  0  0  0  0  0  0  0  0  0  0
    5.5158   -2.8770    0.0000 O   0  0  0  0  0  0  0  0  0  0  0  0
    6.2459   -0.3836    0.0000 C   0  0  0  0  0  0  0  0  0  0  0  0
    7.6855   -0.8052    0.0000 O   0  0  0  0  0  0  0  0  0  0  0  0
    5.8912    1.0739    0.0000 C   0  0  0  0  0  0  0  0  0  0  0  0
    6.9761    2.1098    0.0000 C   0  0  0  0  0  0  0  0  0  0  0  0
    6.6214    3.5672    0.0000 C   0  0  0  0  0  0  0  0  0  0  0  0
    7.7063    4.6031    0.0000 O   0  0  0  0  0  0  0  0  0  0  0  0
    5.1819    3.9888    0.0000 C   0  0  0  0  0  0  0  0  0  0  0  0
    4.0970    2.9529    0.0000 C   0  0  0  0  0  0  0  0  0  0  0  0
    4.4517    1.4954    0.0000 C   0  0  0  0  0  0  0  0  0  0  0  0
    3.0122    1.9170    0.0000 C   0  0  0  0  0  0  0  0  0  0  0  0
    3.3668    0.4595    0.0000 C   0  0  0  0  0  0  0  0  0  0  0  0
    1.9273    0.8811    0.0000 C   0  0  0  0  0  0  0  0  0  0  0  0
    0.8424   -0.1548    0.0000 C   0  0  0  0  0  0  0  0  0  0  0  0
    1.1971   -1.6123    0.0000 C   0  0  0  0  0  0  0  0  0  0  0  0
   -0.2786   -1.3435    0.0000 C   0  0  0  0  0  0  0  0  0  0  0  0
  2  1  1  6
  2  3  1  0
  3  4  1  0
  4  5  1  0
  5  6  2  0
  5  7  1  0
  7  8  1  0
  8  9  1  0
  9 10  2  0
  9 11  1  0
 11 12  1  0
 12 13  2  0
 12 14  1  0
  2 15  1  0
 15 16  1  6
 16 17  1  0
 18 17  1  6
 18 19  1  0
 19 20  1  1
 20 21  1  1
 20 22  1  0
 22 23  1  1
 22 24  1  0
 24 25  1  1
 25 26  1  0
 26 27  1  1
 26 28  1  0
 28 29  1  0
 29 30  1  0
 30 31  1  6
 30 32  1  0
 32 33  1  6
 33 34  1  0
 34 35  1  0
 35 36  1  6
 35 15  1  0
 35 18  1  0
 32 19  1  0
 30 24  1  0
M  END
>  <MS_ID>  (1900) 
MS1971

>  <SMILES>  (1900) 
C[C@H](CCC(=O)CNC(=O)CC(=O)O)[C@H]1CC[C@H]2[C@@H]3[C@H](O)[C@H](O)[C@@H]4C[C@H](O)CC[C@]4(C)[C@H]3CC[C@]12C

>  <Structure_dimension>  (1900) 
2D

$$$$
MS1972
     RDKit          2D

 37 41  0  0  0  0  0  0  0  0999 V2000
   -1.1345   -4.7100    0.0000 C   0  0  0  0  0  0  0  0  0  0  0  0
   -0.5750   -3.3183    0.0000 C   0  0  0  0  0  0  0  0  0  0  0  0
   -1.5006   -2.1379    0.0000 C   0  0  0  0  0  0  0  0  0  0  0  0
   -2.9856   -2.3492    0.0000 C   0  0  0  0  0  0  0  0  0  0  0  0
   -3.9111   -1.1688    0.0000 C   0  0  0  0  0  0  0  0  0  0  0  0
   -3.3516    0.2230    0.0000 O   0  0  0  0  0  0  0  0  0  0  0  0
   -5.3962   -1.3801    0.0000 N   0  0  0  0  0  0  0  0  0  0  0  0
   -6.3217   -0.1997    0.0000 C   0  0  0  0  0  0  0  0  0  0  0  0
   -7.8068   -0.4111    0.0000 C   0  0  0  0  0  0  0  0  0  0  0  0
   -8.7323    0.7693    0.0000 C   0  0  0  0  0  0  0  0  0  0  0  0
   -8.1728    2.1611    0.0000 C   0  0  0  0  0  0  0  0  0  0  0  0
   -9.0983    3.3415    0.0000 C   0  0  0  0  0  0  0  0  0  0  0  0
  -10.5834    3.1302    0.0000 C   0  0  0  0  0  0  0  0  0  0  0  0
  -11.1429    1.7384    0.0000 C   0  0  0  0  0  0  0  0  0  0  0  0
  -10.2173    0.5580    0.0000 N   0  0  0  0  0  0  0  0  0  0  0  0
    0.9100   -3.1069    0.0000 C   0  0  0  0  0  0  0  0  0  0  0  0
    1.9539   -4.1841    0.0000 C   0  0  0  0  0  0  0  0  0  0  0  0
    3.3009   -3.5242    0.0000 C   0  0  0  0  0  0  0  0  0  0  0  0
    3.0896   -2.0392    0.0000 C   0  0  0  0  0  0  0  0  0  0  0  0
    4.0518   -0.8885    0.0000 C   0  0  0  0  0  0  0  0  0  0  0  0
    5.5294   -1.1464    0.0000 C   0  0  0  0  0  0  0  0  0  0  0  0
    6.0449   -2.5550    0.0000 O   0  0  0  0  0  0  0  0  0  0  0  0
    6.4916    0.0044    0.0000 C   0  0  0  0  0  0  0  0  0  0  0  0
    7.9693   -0.2535    0.0000 O   0  0  0  0  0  0  0  0  0  0  0  0
    5.9761    1.4130    0.0000 C   0  0  0  0  0  0  0  0  0  0  0  0
    6.9383    2.5638    0.0000 C   0  0  0  0  0  0  0  0  0  0  0  0
    6.4229    3.9724    0.0000 C   0  0  0  0  0  0  0  0  0  0  0  0
    7.3850    5.1231    0.0000 O   0  0  0  0  0  0  0  0  0  0  0  0
    4.9452    4.2303    0.0000 C   0  0  0  0  0  0  0  0  0  0  0  0
    3.9830    3.0796    0.0000 C   0  0  0  0  0  0  0  0  0  0  0  0
    4.4985    1.6709    0.0000 C   0  0  0  0  0  0  0  0  0  0  0  0
    3.0208    1.9288    0.0000 C   0  0  0  0  0  0  0  0  0  0  0  0
    3.5363    0.5202    0.0000 C   0  0  0  0  0  0  0  0  0  0  0  0
    2.0586    0.7781    0.0000 C   0  0  0  0  0  0  0  0  0  0  0  0
    1.0965   -0.3726    0.0000 C   0  0  0  0  0  0  0  0  0  0  0  0
    1.6119   -1.7813    0.0000 C   0  0  0  0  0  0  0  0  0  0  0  0
    0.1154   -1.6793    0.0000 C   0  0  0  0  0  0  0  0  0  0  0  0
  2  1  1  6
  2  3  1  0
  3  4  1  0
  4  5  1  0
  5  6  2  0
  5  7  1  0
  7  8  1  0
  8  9  1  0
  9 10  1  0
 10 11  2  0
 11 12  1  0
 12 13  2  0
 13 14  1  0
 14 15  2  0
  2 16  1  0
 16 17  1  6
 17 18  1  0
 19 18  1  6
 19 20  1  0
 20 21  1  1
 21 22  1  1
 21 23  1  0
 23 24  1  1
 23 25  1  0
 25 26  1  1
 26 27  1  0
 27 28  1  1
 27 29  1  0
 29 30  1  0
 30 31  1  0
 31 32  1  6
 31 33  1  0
 33 34  1  6
 34 35  1  0
 35 36  1  0
 36 37  1  6
 15 10  1  0
 36 16  1  0
 36 19  1  0
 33 20  1  0
 31 25  1  0
M  END
>  <MS_ID>  (1901) 
MS1972

>  <SMILES>  (1901) 
C[C@H](CCC(=O)NCCc1ccccn1)[C@H]1CC[C@H]2[C@@H]3[C@H](O)[C@H](O)[C@@H]4C[C@H](O)CC[C@]4(C)[C@H]3CC[C@]12C

>  <Structure_dimension>  (1901) 
2D

$$$$
MS1973
     RDKit          2D

 30 33  0  0  0  0  0  0  0  0999 V2000
   -5.2897    4.2110    0.0000 C   0  0  0  0  0  0  0  0  0  0  0  0
   -4.9175    2.7579    0.0000 S   0  0  0  0  0  0  0  0  0  0  0  0
   -5.9898    1.7090    0.0000 C   0  0  0  0  0  0  0  0  0  0  0  0
   -7.4343    2.1132    0.0000 O   0  0  0  0  0  0  0  0  0  0  0  0
   -5.6175    0.2559    0.0000 C   0  0  0  0  0  0  0  0  0  0  0  0
   -4.1730   -0.1482    0.0000 C   0  0  0  0  0  0  0  0  0  0  0  0
   -3.8007   -1.6013    0.0000 C   0  0  0  0  0  0  0  0  0  0  0  0
   -4.8730   -2.6502    0.0000 C   0  0  0  0  0  0  0  0  0  0  0  0
   -2.3562   -2.0055    0.0000 C   0  0  0  0  0  0  0  0  0  0  0  0
   -1.8341   -3.4117    0.0000 C   0  0  0  0  0  0  0  0  0  0  0  0
   -0.3354   -3.3497    0.0000 C   0  0  0  0  0  0  0  0  0  0  0  0
    0.0688   -1.9051    0.0000 C   0  0  0  0  0  0  0  0  0  0  0  0
    1.4127   -1.2389    0.0000 C   0  0  0  0  0  0  0  0  0  0  0  0
    2.6616   -2.0697    0.0000 C   0  0  0  0  0  0  0  0  0  0  0  0
    2.5666   -3.5667    0.0000 O   0  0  0  0  0  0  0  0  0  0  0  0
    4.0056   -1.4035    0.0000 C   0  0  0  0  0  0  0  0  0  0  0  0
    5.2545   -2.2342    0.0000 O   0  0  0  0  0  0  0  0  0  0  0  0
    4.1006    0.0935    0.0000 C   0  0  0  0  0  0  0  0  0  0  0  0
    5.4445    0.7598    0.0000 C   0  0  0  0  0  0  0  0  0  0  0  0
    5.5395    2.2567    0.0000 C   0  0  0  0  0  0  0  0  0  0  0  0
    6.8834    2.9230    0.0000 O   0  0  0  0  0  0  0  0  0  0  0  0
    4.2905    3.0875    0.0000 C   0  0  0  0  0  0  0  0  0  0  0  0
    2.9466    2.4213    0.0000 C   0  0  0  0  0  0  0  0  0  0  0  0
    2.8516    0.9243    0.0000 C   0  0  0  0  0  0  0  0  0  0  0  0
    1.6027    1.7551    0.0000 C   0  0  0  0  0  0  0  0  0  0  0  0
    1.5077    0.2581    0.0000 C   0  0  0  0  0  0  0  0  0  0  0  0
    0.2588    1.0888    0.0000 C   0  0  0  0  0  0  0  0  0  0  0  0
   -1.0852    0.4226    0.0000 C   0  0  0  0  0  0  0  0  0  0  0  0
   -1.1802   -1.0744    0.0000 C   0  0  0  0  0  0  0  0  0  0  0  0
   -2.5091   -0.3787    0.0000 C   0  0  0  0  0  0  0  0  0  0  0  0
  1  2  1  0
  2  3  1  0
  3  4  2  0
  3  5  1  0
  5  6  1  0
  6  7  1  0
  7  8  1  6
  7  9  1  0
  9 10  1  6
 10 11  1  0
 12 11  1  6
 12 13  1  0
 13 14  1  1
 14 15  1  1
 14 16  1  0
 16 17  1  1
 16 18  1  0
 18 19  1  1
 19 20  1  0
 20 21  1  1
 20 22  1  0
 22 23  1  0
 23 24  1  0
 24 25  1  6
 24 26  1  0
 26 27  1  6
 27 28  1  0
 28 29  1  0
 29 30  1  6
 29  9  1  0
 29 12  1  0
 26 13  1  0
 24 18  1  0
M  END
>  <MS_ID>  (1902) 
MS1973

>  <SMILES>  (1902) 
CSC(=O)CC[C@@H](C)[C@H]1CC[C@H]2[C@@H]3[C@H](O)[C@H](O)[C@@H]4C[C@H](O)CC[C@]4(C)[C@H]3CC[C@]12C

>  <Structure_dimension>  (1902) 
2D

$$$$
MS1974
     RDKit          2D

 39 43  0  0  0  0  0  0  0  0999 V2000
   -0.4737   -4.7623    0.0000 C   0  0  0  0  0  0  0  0  0  0  0  0
    0.0750   -3.3662    0.0000 C   0  0  0  0  0  0  0  0  0  0  0  0
   -0.8597   -2.1930    0.0000 C   0  0  0  0  0  0  0  0  0  0  0  0
   -2.3430   -2.4159    0.0000 C   0  0  0  0  0  0  0  0  0  0  0  0
   -3.2777   -1.2427    0.0000 C   0  0  0  0  0  0  0  0  0  0  0  0
   -2.7291    0.1533    0.0000 O   0  0  0  0  0  0  0  0  0  0  0  0
   -4.7611   -1.4656    0.0000 N   0  0  0  0  0  0  0  0  0  0  0  0
   -5.6958   -0.2924    0.0000 C   0  0  0  0  0  0  0  0  0  0  0  0
   -5.1471    1.1036    0.0000 C   0  0  0  0  0  0  0  0  0  0  0  0
   -6.0818    2.2768    0.0000 C   0  0  0  0  0  0  0  0  0  0  0  0
   -7.5651    2.0539    0.0000 C   0  0  0  0  0  0  0  0  0  0  0  0
   -8.1138    0.6579    0.0000 C   0  0  0  0  0  0  0  0  0  0  0  0
   -9.5972    0.4350    0.0000 C   0  0  0  0  0  0  0  0  0  0  0  0
  -10.5318    1.6082    0.0000 C   0  0  0  0  0  0  0  0  0  0  0  0
   -9.9832    3.0043    0.0000 O   0  0  0  0  0  0  0  0  0  0  0  0
  -12.0152    1.3853    0.0000 O   0  0  0  0  0  0  0  0  0  0  0  0
   -7.1791   -0.5153    0.0000 C   0  0  0  0  0  0  0  0  0  0  0  0
    1.5583   -3.1434    0.0000 C   0  0  0  0  0  0  0  0  0  0  0  0
    2.6105   -4.2124    0.0000 C   0  0  0  0  0  0  0  0  0  0  0  0
    3.9524   -3.5421    0.0000 C   0  0  0  0  0  0  0  0  0  0  0  0
    3.7296   -2.0587    0.0000 C   0  0  0  0  0  0  0  0  0  0  0  0
    4.6828   -0.9005    0.0000 C   0  0  0  0  0  0  0  0  0  0  0  0
    6.1624   -1.1469    0.0000 C   0  0  0  0  0  0  0  0  0  0  0  0
    6.6888   -2.5515    0.0000 O   0  0  0  0  0  0  0  0  0  0  0  0
    7.1156    0.0112    0.0000 C   0  0  0  0  0  0  0  0  0  0  0  0
    6.5892    1.4158    0.0000 C   0  0  0  0  0  0  0  0  0  0  0  0
    7.5424    2.5740    0.0000 C   0  0  0  0  0  0  0  0  0  0  0  0
    7.0160    3.9786    0.0000 C   0  0  0  0  0  0  0  0  0  0  0  0
    7.9692    5.1368    0.0000 O   0  0  0  0  0  0  0  0  0  0  0  0
    5.5364    4.2250    0.0000 C   0  0  0  0  0  0  0  0  0  0  0  0
    4.5832    3.0668    0.0000 C   0  0  0  0  0  0  0  0  0  0  0  0
    5.1096    1.6622    0.0000 C   0  0  0  0  0  0  0  0  0  0  0  0
    3.6299    1.9087    0.0000 C   0  0  0  0  0  0  0  0  0  0  0  0
    4.1564    0.5041    0.0000 C   0  0  0  0  0  0  0  0  0  0  0  0
    2.6767    0.7505    0.0000 C   0  0  0  0  0  0  0  0  0  0  0  0
    1.7235   -0.4077    0.0000 C   0  0  0  0  0  0  0  0  0  0  0  0
    0.2439   -0.1613    0.0000 O   0  0  0  0  0  0  0  0  0  0  0  0
    2.2499   -1.8123    0.0000 C   0  0  0  0  0  0  0  0  0  0  0  0
    0.7527   -1.7219    0.0000 C   0  0  0  0  0  0  0  0  0  0  0  0
  2  1  1  6
  2  3  1  0
  3  4  1  0
  4  5  1  0
  5  6  2  0
  5  7  1  0
  7  8  1  0
  8  9  2  0
  9 10  1  0
 10 11  2  0
 11 12  1  0
 12 13  1  0
 13 14  1  0
 14 15  2  0
 14 16  1  0
 12 17  2  0
  2 18  1  0
 18 19  1  6
 19 20  1  0
 21 20  1  6
 21 22  1  0
 22 23  1  1
 23 24  1  1
 23 25  1  0
 26 25  1  1
 26 27  1  0
 27 28  1  0
 28 29  1  1
 28 30  1  0
 30 31  1  0
 31 32  1  0
 32 33  1  6
 32 34  1  0
 34 35  1  6
 35 36  1  0
 36 37  1  1
 36 38  1  0
 38 39  1  6
 17  8  1  0
 38 18  1  0
 38 21  1  0
 34 22  1  0
 32 26  1  0
M  END
>  <MS_ID>  (1903) 
MS1974

>  <SMILES>  (1903) 
C[C@H](CCC(=O)Nc1cccc(CC(=O)O)c1)[C@H]1CC[C@H]2[C@@H]3[C@H](O)C[C@@H]4C[C@H](O)CC[C@]4(C)[C@H]3C[C@H](O)[C@]12C

>  <Structure_dimension>  (1903) 
2D

$$$$
MS1975
     RDKit          2D

 34 37  0  0  0  0  0  0  0  0999 V2000
   -3.1030   -4.0296    0.0000 C   0  0  0  0  0  0  0  0  0  0  0  0
   -2.3077   -2.7578    0.0000 C   0  0  0  0  0  0  0  0  0  0  0  0
   -3.0115   -1.4331    0.0000 C   0  0  0  0  0  0  0  0  0  0  0  0
   -4.5106   -1.3803    0.0000 C   0  0  0  0  0  0  0  0  0  0  0  0
   -5.2144   -0.0556    0.0000 C   0  0  0  0  0  0  0  0  0  0  0  0
   -4.4191    1.2162    0.0000 O   0  0  0  0  0  0  0  0  0  0  0  0
   -6.7134   -0.0028    0.0000 N   0  0  0  0  0  0  0  0  0  0  0  0
   -7.4172    1.3218    0.0000 C   0  0  0  0  0  0  0  0  0  0  0  0
   -8.9163    1.3747    0.0000 C   0  0  0  0  0  0  0  0  0  0  0  0
   -6.6219    2.5937    0.0000 C   0  0  0  0  0  0  0  0  0  0  0  0
   -5.1228    2.5408    0.0000 O   0  0  0  0  0  0  0  0  0  0  0  0
   -7.3257    3.9183    0.0000 O   0  0  0  0  0  0  0  0  0  0  0  0
   -0.8087   -2.8106    0.0000 C   0  0  0  0  0  0  0  0  0  0  0  0
    0.0297   -4.0544    0.0000 C   0  0  0  0  0  0  0  0  0  0  0  0
    1.4717   -3.6415    0.0000 C   0  0  0  0  0  0  0  0  0  0  0  0
    1.5246   -2.1424    0.0000 C   0  0  0  0  0  0  0  0  0  0  0  0
    2.6740   -1.1786    0.0000 C   0  0  0  0  0  0  0  0  0  0  0  0
    4.0833   -1.6921    0.0000 C   0  0  0  0  0  0  0  0  0  0  0  0
    4.3433   -3.1694    0.0000 O   0  0  0  0  0  0  0  0  0  0  0  0
    5.2327   -0.7283    0.0000 C   0  0  0  0  0  0  0  0  0  0  0  0
    6.6421   -1.2418    0.0000 O   0  0  0  0  0  0  0  0  0  0  0  0
    4.9727    0.7490    0.0000 C   0  0  0  0  0  0  0  0  0  0  0  0
    6.1221    1.7128    0.0000 C   0  0  0  0  0  0  0  0  0  0  0  0
    5.8621    3.1901    0.0000 C   0  0  0  0  0  0  0  0  0  0  0  0
    7.0115    4.1539    0.0000 O   0  0  0  0  0  0  0  0  0  0  0  0
    4.4527    3.7036    0.0000 C   0  0  0  0  0  0  0  0  0  0  0  0
    3.3034    2.7398    0.0000 C   0  0  0  0  0  0  0  0  0  0  0  0
    3.5634    1.2625    0.0000 C   0  0  0  0  0  0  0  0  0  0  0  0
    2.1540    1.7760    0.0000 C   0  0  0  0  0  0  0  0  0  0  0  0
    2.4140    0.2987    0.0000 C   0  0  0  0  0  0  0  0  0  0  0  0
    1.0046    0.8122    0.0000 C   0  0  0  0  0  0  0  0  0  0  0  0
   -0.1448   -0.1516    0.0000 C   0  0  0  0  0  0  0  0  0  0  0  0
    0.1152   -1.6289    0.0000 C   0  0  0  0  0  0  0  0  0  0  0  0
   -1.3401   -1.2655    0.0000 C   0  0  0  0  0  0  0  0  0  0  0  0
  2  1  1  6
  2  3  1  0
  3  4  1  0
  4  5  1  0
  5  6  2  0
  5  7  1  0
  7  8  1  0
  8  9  1  6
  8 10  1  0
 10 11  2  0
 10 12  1  0
  2 13  1  0
 13 14  1  6
 14 15  1  0
 16 15  1  6
 16 17  1  0
 17 18  1  1
 18 19  1  1
 18 20  1  0
 20 21  1  1
 20 22  1  0
 22 23  1  1
 23 24  1  0
 24 25  1  1
 24 26  1  0
 26 27  1  0
 27 28  1  0
 28 29  1  6
 28 30  1  0
 30 31  1  6
 31 32  1  0
 32 33  1  0
 33 34  1  6
 33 13  1  0
 33 16  1  0
 30 17  1  0
 28 22  1  0
M  END
>  <MS_ID>  (1904) 
MS1975

>  <SMILES>  (1904) 
C[C@H](CCC(=O)N[C@H](C)C(=O)O)[C@H]1CC[C@H]2[C@@H]3[C@H](O)[C@H](O)[C@@H]4C[C@H](O)CC[C@]4(C)[C@H]3CC[C@]12C

>  <Structure_dimension>  (1904) 
2D

$$$$
MS1976
     RDKit          2D

 38 42  0  0  0  0  0  0  0  0999 V2000
   -1.2644   -4.5554    0.0000 C   0  0  0  0  0  0  0  0  0  0  0  0
   -0.6378   -3.1926    0.0000 C   0  0  0  0  0  0  0  0  0  0  0  0
   -1.5048   -1.9685    0.0000 C   0  0  0  0  0  0  0  0  0  0  0  0
   -2.9984   -2.1073    0.0000 C   0  0  0  0  0  0  0  0  0  0  0  0
   -3.8654   -0.8833    0.0000 C   0  0  0  0  0  0  0  0  0  0  0  0
   -3.2388    0.4796    0.0000 O   0  0  0  0  0  0  0  0  0  0  0  0
   -5.3590   -1.0221    0.0000 N   0  0  0  0  0  0  0  0  0  0  0  0
   -6.2260    0.2020    0.0000 C   0  0  0  0  0  0  0  0  0  0  0  0
   -5.5994    1.5648    0.0000 C   0  0  0  0  0  0  0  0  0  0  0  0
   -6.4664    2.7889    0.0000 C   0  0  0  0  0  0  0  0  0  0  0  0
   -7.9600    2.6501    0.0000 C   0  0  0  0  0  0  0  0  0  0  0  0
   -8.5865    1.2872    0.0000 C   0  0  0  0  0  0  0  0  0  0  0  0
  -10.0801    1.1484    0.0000 N   0  0  0  0  0  0  0  0  0  0  0  0
  -10.7067   -0.2145    0.0000 O   0  0  0  0  0  0  0  0  0  0  0  0
  -10.9471    2.3724    0.0000 O   0  0  0  0  0  0  0  0  0  0  0  0
   -7.7195    0.0631    0.0000 C   0  0  0  0  0  0  0  0  0  0  0  0
    0.8557   -3.0538    0.0000 C   0  0  0  0  0  0  0  0  0  0  0  0
    1.8459   -4.1805    0.0000 C   0  0  0  0  0  0  0  0  0  0  0  0
    3.2235   -3.5869    0.0000 C   0  0  0  0  0  0  0  0  0  0  0  0
    3.0847   -2.0933    0.0000 C   0  0  0  0  0  0  0  0  0  0  0  0
    4.1017   -0.9908    0.0000 C   0  0  0  0  0  0  0  0  0  0  0  0
    5.5651   -1.3203    0.0000 C   0  0  0  0  0  0  0  0  0  0  0  0
    6.0114   -2.7524    0.0000 O   0  0  0  0  0  0  0  0  0  0  0  0
    6.5821   -0.2178    0.0000 C   0  0  0  0  0  0  0  0  0  0  0  0
    8.0455   -0.5473    0.0000 O   0  0  0  0  0  0  0  0  0  0  0  0
    6.1358    1.2143    0.0000 C   0  0  0  0  0  0  0  0  0  0  0  0
    7.1528    2.3169    0.0000 C   0  0  0  0  0  0  0  0  0  0  0  0
    6.7065    3.7489    0.0000 C   0  0  0  0  0  0  0  0  0  0  0  0
    7.7236    4.8515    0.0000 O   0  0  0  0  0  0  0  0  0  0  0  0
    5.2432    4.0784    0.0000 C   0  0  0  0  0  0  0  0  0  0  0  0
    4.2261    2.9759    0.0000 C   0  0  0  0  0  0  0  0  0  0  0  0
    4.6724    1.5438    0.0000 C   0  0  0  0  0  0  0  0  0  0  0  0
    3.2091    1.8733    0.0000 C   0  0  0  0  0  0  0  0  0  0  0  0
    3.6554    0.4413    0.0000 C   0  0  0  0  0  0  0  0  0  0  0  0
    2.1920    0.7708    0.0000 C   0  0  0  0  0  0  0  0  0  0  0  0
    1.1750   -0.3318    0.0000 C   0  0  0  0  0  0  0  0  0  0  0  0
    1.6213   -1.7638    0.0000 C   0  0  0  0  0  0  0  0  0  0  0  0
    0.1315   -1.5891    0.0000 C   0  0  0  0  0  0  0  0  0  0  0  0
  2  1  1  6
  2  3  1  0
  3  4  1  0
  4  5  1  0
  5  6  2  0
  5  7  1  0
  7  8  1  0
  8  9  2  0
  9 10  1  0
 10 11  2  0
 11 12  1  0
 12 13  1  0
 13 14  2  0
 13 15  1  0
 12 16  2  0
  2 17  1  0
 17 18  1  6
 18 19  1  0
 20 19  1  6
 20 21  1  0
 21 22  1  1
 22 23  1  1
 22 24  1  0
 24 25  1  1
 24 26  1  0
 26 27  1  1
 27 28  1  0
 28 29  1  1
 28 30  1  0
 30 31  1  0
 31 32  1  0
 32 33  1  6
 32 34  1  0
 34 35  1  6
 35 36  1  0
 36 37  1  0
 37 38  1  6
 16  8  1  0
 37 17  1  0
 37 20  1  0
 34 21  1  0
 32 26  1  0
M  CHG  2  13   1  15  -1
M  END
>  <MS_ID>  (1905) 
MS1976

>  <SMILES>  (1905) 
C[C@H](CCC(=O)Nc1cccc([N+](=O)[O-])c1)[C@H]1CC[C@H]2[C@@H]3[C@H](O)[C@H](O)[C@@H]4C[C@H](O)CC[C@]4(C)[C@H]3CC[C@]12C

>  <Structure_dimension>  (1905) 
2D

$$$$
MS1977
     RDKit          2D

 31 34  0  0  0  0  0  0  0  0999 V2000
   -5.7355   -1.9117    0.0000 C   0  0  0  0  0  0  0  0  0  0  0  0
   -4.5127   -1.0430    0.0000 C   0  0  0  0  0  0  0  0  0  0  0  0
   -4.6536    0.4504    0.0000 C   0  0  0  0  0  0  0  0  0  0  0  0
   -6.0173    1.0750    0.0000 C   0  0  0  0  0  0  0  0  0  0  0  0
   -6.1582    2.5684    0.0000 C   0  0  0  0  0  0  0  0  0  0  0  0
   -4.9354    3.4371    0.0000 O   0  0  0  0  0  0  0  0  0  0  0  0
   -7.5220    3.1930    0.0000 O   0  0  0  0  0  0  0  0  0  0  0  0
   -3.1489   -1.6676    0.0000 C   0  0  0  0  0  0  0  0  0  0  0  0
   -2.8527   -3.1381    0.0000 C   0  0  0  0  0  0  0  0  0  0  0  0
   -1.3626   -3.3107    0.0000 C   0  0  0  0  0  0  0  0  0  0  0  0
   -0.7380   -1.9470    0.0000 C   0  0  0  0  0  0  0  0  0  0  0  0
    0.6935   -1.4986    0.0000 C   0  0  0  0  0  0  0  0  0  0  0  0
    1.7974   -2.5141    0.0000 C   0  0  0  0  0  0  0  0  0  0  0  0
    1.4700   -3.9780    0.0000 O   0  0  0  0  0  0  0  0  0  0  0  0
    3.2289   -2.0658    0.0000 C   0  0  0  0  0  0  0  0  0  0  0  0
    3.5563   -0.6020    0.0000 C   0  0  0  0  0  0  0  0  0  0  0  0
    4.9878   -0.1536    0.0000 C   0  0  0  0  0  0  0  0  0  0  0  0
    5.3152    1.3102    0.0000 C   0  0  0  0  0  0  0  0  0  0  0  0
    6.7466    1.7585    0.0000 C   0  0  0  0  0  0  0  0  0  0  0  0
    7.8506    0.7430    0.0000 C   0  0  0  0  0  0  0  0  0  0  0  0
    9.2821    1.1913    0.0000 O   0  0  0  0  0  0  0  0  0  0  0  0
    4.2112    2.3257    0.0000 C   0  0  0  0  0  0  0  0  0  0  0  0
    2.7798    1.8773    0.0000 C   0  0  0  0  0  0  0  0  0  0  0  0
    2.4523    0.4135    0.0000 C   0  0  0  0  0  0  0  0  0  0  0  0
    1.3484    1.4290    0.0000 C   0  0  0  0  0  0  0  0  0  0  0  0
    1.0209   -0.0348    0.0000 C   0  0  0  0  0  0  0  0  0  0  0  0
   -0.0831    0.9807    0.0000 C   0  0  0  0  0  0  0  0  0  0  0  0
   -1.5145    0.5323    0.0000 C   0  0  0  0  0  0  0  0  0  0  0  0
   -2.6185    1.5478    0.0000 O   0  0  0  0  0  0  0  0  0  0  0  0
   -1.8420   -0.9315    0.0000 C   0  0  0  0  0  0  0  0  0  0  0  0
   -3.0460   -0.0369    0.0000 C   0  0  0  0  0  0  0  0  0  0  0  0
  2  1  1  6
  2  3  1  0
  3  4  1  0
  4  5  1  0
  5  6  2  0
  5  7  1  0
  2  8  1  0
  8  9  1  6
  9 10  1  0
 11 10  1  6
 11 12  1  0
 12 13  1  1
 13 14  1  6
 13 15  1  0
 16 15  1  1
 16 17  1  0
 17 18  1  0
 18 19  1  1
 19 20  1  0
 20 21  1  0
 18 22  1  0
 22 23  1  0
 23 24  1  0
 24 25  1  6
 24 26  1  0
 26 27  1  6
 27 28  1  0
 28 29  2  0
 28 30  1  0
 30 31  1  6
 30  8  1  0
 30 11  1  0
 26 12  1  0
 24 16  1  0
M  END
>  <MS_ID>  (1906) 
MS1977

>  <SMILES>  (1906) 
C[C@H](CCC(=O)O)[C@H]1CC[C@H]2[C@@H]3[C@@H](O)C[C@@H]4C[C@H](CCO)CC[C@]4(C)[C@H]3CC(=O)[C@]12C

>  <Structure_dimension>  (1906) 
2D

$$$$
MS1978
     RDKit          2D

 31 34  0  0  0  0  0  0  0  0999 V2000
   -5.9524   -1.8125    0.0000 C   0  0  0  0  0  0  0  0  0  0  0  0
   -4.6802   -1.0178    0.0000 C   0  0  0  0  0  0  0  0  0  0  0  0
   -4.7324    0.4813    0.0000 C   0  0  0  0  0  0  0  0  0  0  0  0
   -6.0567    1.1857    0.0000 C   0  0  0  0  0  0  0  0  0  0  0  0
   -6.1088    2.6848    0.0000 C   0  0  0  0  0  0  0  0  0  0  0  0
   -4.8366    3.4795    0.0000 O   0  0  0  0  0  0  0  0  0  0  0  0
   -7.4331    3.3892    0.0000 O   0  0  0  0  0  0  0  0  0  0  0  0
   -3.3559   -1.7222    0.0000 C   0  0  0  0  0  0  0  0  0  0  0  0
   -3.1474   -3.2076    0.0000 C   0  0  0  0  0  0  0  0  0  0  0  0
   -1.6702   -3.4683    0.0000 C   0  0  0  0  0  0  0  0  0  0  0  0
   -0.9658   -2.1440    0.0000 C   0  0  0  0  0  0  0  0  0  0  0  0
    0.4897   -1.7814    0.0000 C   0  0  0  0  0  0  0  0  0  0  0  0
    1.5315   -2.8605    0.0000 C   0  0  0  0  0  0  0  0  0  0  0  0
    2.9870   -2.4979    0.0000 C   0  0  0  0  0  0  0  0  0  0  0  0
    3.4007   -1.0561    0.0000 C   0  0  0  0  0  0  0  0  0  0  0  0
    4.8562   -0.6934    0.0000 C   0  0  0  0  0  0  0  0  0  0  0  0
    5.2699    0.7484    0.0000 C   0  0  0  0  0  0  0  0  0  0  0  0
    6.7254    1.1111    0.0000 S   0  0  0  0  0  0  0  0  0  0  0  0
    7.0880   -0.3444    0.0000 O   0  0  0  0  0  0  0  0  0  0  0  0
    6.3627    2.5666    0.0000 O   0  0  0  0  0  0  0  0  0  0  0  0
    8.1809    1.4737    0.0000 O   0  0  0  0  0  0  0  0  0  0  0  0
    4.2281    1.8276    0.0000 C   0  0  0  0  0  0  0  0  0  0  0  0
    2.7726    1.4649    0.0000 C   0  0  0  0  0  0  0  0  0  0  0  0
    2.3589    0.0231    0.0000 C   0  0  0  0  0  0  0  0  0  0  0  0
    1.3171    1.1023    0.0000 C   0  0  0  0  0  0  0  0  0  0  0  0
    0.9034   -0.3395    0.0000 C   0  0  0  0  0  0  0  0  0  0  0  0
   -0.1384    0.7396    0.0000 C   0  0  0  0  0  0  0  0  0  0  0  0
   -1.5939    0.3770    0.0000 C   0  0  0  0  0  0  0  0  0  0  0  0
   -2.6358    1.4561    0.0000 O   0  0  0  0  0  0  0  0  0  0  0  0
   -2.0076   -1.0649    0.0000 C   0  0  0  0  0  0  0  0  0  0  0  0
   -3.1565   -0.1005    0.0000 C   0  0  0  0  0  0  0  0  0  0  0  0
  2  1  1  6
  2  3  1  0
  3  4  1  0
  4  5  1  0
  5  6  2  0
  5  7  1  0
  2  8  1  0
  8  9  1  6
  9 10  1  0
 11 10  1  6
 11 12  1  0
 12 13  1  1
 13 14  1  0
 15 14  1  1
 15 16  1  0
 16 17  1  0
 17 18  1  1
 18 19  2  0
 18 20  2  0
 18 21  1  0
 17 22  1  0
 22 23  1  0
 23 24  1  0
 24 25  1  6
 24 26  1  0
 26 27  1  6
 27 28  1  0
 28 29  1  6
 28 30  1  0
 30 31  1  6
 30  8  1  0
 30 11  1  0
 26 12  1  0
 24 15  1  0
M  END
>  <MS_ID>  (1907) 
MS1978

>  <SMILES>  (1907) 
C[C@H](CCC(=O)O)[C@H]1CC[C@H]2[C@@H]3CC[C@@H]4C[C@H](S(=O)(=O)O)CC[C@]4(C)[C@H]3C[C@@H](O)[C@]12C

>  <Structure_dimension>  (1907) 
2D

$$$$
MS1979
     RDKit          2D

 29 32  0  0  0  0  0  0  0  0999 V2000
   -4.5229   -2.5430    0.0000 C   0  0  0  0  0  0  0  0  0  0  0  0
   -3.4330   -1.5124    0.0000 C   0  0  0  0  0  0  0  0  0  0  0  0
   -3.7806   -0.0532    0.0000 C   0  0  0  0  0  0  0  0  0  0  0  0
   -5.2181    0.3754    0.0000 C   0  0  0  0  0  0  0  0  0  0  0  0
   -5.5656    1.8346    0.0000 C   0  0  0  0  0  0  0  0  0  0  0  0
   -4.4757    2.8651    0.0000 O   0  0  0  0  0  0  0  0  0  0  0  0
   -7.0031    2.2631    0.0000 O   0  0  0  0  0  0  0  0  0  0  0  0
   -1.9956   -1.9410    0.0000 C   0  0  0  0  0  0  0  0  0  0  0  0
   -1.4974   -3.3559    0.0000 C   0  0  0  0  0  0  0  0  0  0  0  0
    0.0022   -3.3193    0.0000 C   0  0  0  0  0  0  0  0  0  0  0  0
    0.4308   -1.8818    0.0000 C   0  0  0  0  0  0  0  0  0  0  0  0
    1.7858   -1.2385    0.0000 C   0  0  0  0  0  0  0  0  0  0  0  0
    3.0205   -2.0903    0.0000 C   0  0  0  0  0  0  0  0  0  0  0  0
    2.9001   -3.5855    0.0000 O   0  0  0  0  0  0  0  0  0  0  0  0
    4.3755   -1.4470    0.0000 C   0  0  0  0  0  0  0  0  0  0  0  0
    4.4959    0.0482    0.0000 C   0  0  0  0  0  0  0  0  0  0  0  0
    5.8509    0.6915    0.0000 C   0  0  0  0  0  0  0  0  0  0  0  0
    5.9713    2.1867    0.0000 C   0  0  0  0  0  0  0  0  0  0  0  0
    4.7366    3.0385    0.0000 C   0  0  0  0  0  0  0  0  0  0  0  0
    3.3816    2.3952    0.0000 C   0  0  0  0  0  0  0  0  0  0  0  0
    3.2612    0.9000    0.0000 C   0  0  0  0  0  0  0  0  0  0  0  0
    2.0265    1.7518    0.0000 C   0  0  0  0  0  0  0  0  0  0  0  0
    1.9062    0.2567    0.0000 C   0  0  0  0  0  0  0  0  0  0  0  0
    0.6715    1.1085    0.0000 C   0  0  0  0  0  0  0  0  0  0  0  0
   -0.6835    0.4652    0.0000 C   0  0  0  0  0  0  0  0  0  0  0  0
   -1.9182    1.3170    0.0000 O   0  0  0  0  0  0  0  0  0  0  0  0
   -1.7978    2.8121    0.0000 O   0  0  0  0  0  0  0  0  0  0  0  0
   -0.8039   -1.0300    0.0000 C   0  0  0  0  0  0  0  0  0  0  0  0
   -2.1208   -0.3119    0.0000 C   0  0  0  0  0  0  0  0  0  0  0  0
  2  1  1  6
  2  3  1  0
  3  4  1  0
  4  5  1  0
  5  6  2  0
  5  7  1  0
  2  8  1  0
  8  9  1  6
  9 10  1  0
 11 10  1  6
 11 12  1  0
 12 13  1  1
 13 14  1  1
 13 15  1  0
 16 15  1  1
 16 17  1  0
 17 18  1  0
 18 19  1  0
 19 20  1  0
 20 21  1  0
 21 22  1  6
 21 23  1  0
 23 24  1  6
 24 25  1  0
 25 26  1  6
 26 27  1  0
 25 28  1  0
 28 29  1  6
 28  8  1  0
 28 11  1  0
 23 12  1  0
 21 16  1  0
M  END
>  <MS_ID>  (1908) 
MS1979

>  <SMILES>  (1908) 
C[C@H](CCC(=O)O)[C@H]1CC[C@H]2[C@@H]3[C@H](O)C[C@@H]4CCCC[C@]4(C)[C@H]3C[C@@H](OO)[C@]12C

>  <Structure_dimension>  (1908) 
2D

$$$$
MS1980
     RDKit          2D

 33 36  0  0  0  0  0  0  0  0999 V2000
   -3.0978   -3.6919    0.0000 C   0  0  0  0  0  0  0  0  0  0  0  0
   -2.2201   -2.4755    0.0000 C   0  0  0  0  0  0  0  0  0  0  0  0
   -2.8347   -1.1072    0.0000 C   0  0  0  0  0  0  0  0  0  0  0  0
   -4.3270   -0.9552    0.0000 C   0  0  0  0  0  0  0  0  0  0  0  0
   -4.9416    0.4131    0.0000 C   0  0  0  0  0  0  0  0  0  0  0  0
   -4.0639    1.6295    0.0000 O   0  0  0  0  0  0  0  0  0  0  0  0
   -6.4339    0.5650    0.0000 O   0  0  0  0  0  0  0  0  0  0  0  0
   -7.0484    1.9333    0.0000 C   0  0  0  0  0  0  0  0  0  0  0  0
   -8.5407    2.0852    0.0000 C   0  0  0  0  0  0  0  0  0  0  0  0
   -9.4184    0.8688    0.0000 O   0  0  0  0  0  0  0  0  0  0  0  0
   -9.1553    3.4535    0.0000 O   0  0  0  0  0  0  0  0  0  0  0  0
   -0.7278   -2.6274    0.0000 C   0  0  0  0  0  0  0  0  0  0  0  0
    0.0264   -3.9240    0.0000 C   0  0  0  0  0  0  0  0  0  0  0  0
    1.4926   -3.6073    0.0000 C   0  0  0  0  0  0  0  0  0  0  0  0
    1.6445   -2.1150    0.0000 C   0  0  0  0  0  0  0  0  0  0  0  0
    2.8552   -1.2294    0.0000 C   0  0  0  0  0  0  0  0  0  0  0  0
    4.2275   -1.8350    0.0000 C   0  0  0  0  0  0  0  0  0  0  0  0
    4.3891   -3.3263    0.0000 O   0  0  0  0  0  0  0  0  0  0  0  0
    5.4381   -0.9494    0.0000 C   0  0  0  0  0  0  0  0  0  0  0  0
    5.2764    0.5419    0.0000 C   0  0  0  0  0  0  0  0  0  0  0  0
    6.4871    1.4275    0.0000 C   0  0  0  0  0  0  0  0  0  0  0  0
    6.3254    2.9188    0.0000 C   0  0  0  0  0  0  0  0  0  0  0  0
    7.5360    3.8044    0.0000 O   0  0  0  0  0  0  0  0  0  0  0  0
    4.9531    3.5244    0.0000 C   0  0  0  0  0  0  0  0  0  0  0  0
    3.7425    2.6388    0.0000 C   0  0  0  0  0  0  0  0  0  0  0  0
    3.9041    1.1475    0.0000 C   0  0  0  0  0  0  0  0  0  0  0  0
    2.5318    1.7531    0.0000 C   0  0  0  0  0  0  0  0  0  0  0  0
    2.6935    0.2619    0.0000 C   0  0  0  0  0  0  0  0  0  0  0  0
    1.3212    0.8675    0.0000 C   0  0  0  0  0  0  0  0  0  0  0  0
    0.1105   -0.0181    0.0000 C   0  0  0  0  0  0  0  0  0  0  0  0
   -1.2618    0.5875    0.0000 O   0  0  0  0  0  0  0  0  0  0  0  0
    0.2722   -1.5094    0.0000 C   0  0  0  0  0  0  0  0  0  0  0  0
   -1.1559   -1.0505    0.0000 C   0  0  0  0  0  0  0  0  0  0  0  0
  2  1  1  6
  2  3  1  0
  3  4  1  0
  4  5  1  0
  5  6  2  0
  5  7  1  0
  7  8  1  0
  8  9  1  0
  9 10  2  0
  9 11  1  0
  2 12  1  0
 12 13  1  6
 13 14  1  0
 15 14  1  6
 15 16  1  0
 16 17  1  1
 17 18  1  1
 17 19  1  0
 20 19  1  1
 20 21  1  0
 21 22  1  0
 22 23  1  1
 22 24  1  0
 24 25  1  0
 25 26  1  0
 26 27  1  6
 26 28  1  0
 28 29  1  6
 29 30  1  0
 30 31  2  0
 30 32  1  0
 32 33  1  6
 32 12  1  0
 32 15  1  0
 28 16  1  0
 26 20  1  0
M  END
>  <MS_ID>  (1909) 
MS1980

>  <SMILES>  (1909) 
C[C@H](CCC(=O)OCC(=O)O)[C@H]1CC[C@H]2[C@@H]3[C@H](O)C[C@@H]4C[C@H](O)CC[C@]4(C)[C@H]3CC(=O)[C@]12C

>  <Structure_dimension>  (1909) 
2D

$$$$
MS1981
     RDKit          2D

 31 34  0  0  0  0  0  0  0  0999 V2000
   -3.9274   -2.9894    0.0000 C   0  0  0  0  0  0  0  0  0  0  0  0
   -2.8631   -1.9324    0.0000 C   0  0  0  0  0  0  0  0  0  0  0  0
   -3.2464   -0.4822    0.0000 C   0  0  0  0  0  0  0  0  0  0  0  0
   -4.6940   -0.0890    0.0000 C   0  0  0  0  0  0  0  0  0  0  0  0
   -5.0773    1.3612    0.0000 C   0  0  0  0  0  0  0  0  0  0  0  0
   -4.0130    2.4182    0.0000 O   0  0  0  0  0  0  0  0  0  0  0  0
   -6.5248    1.7544    0.0000 C   0  0  0  0  0  0  0  0  0  0  0  0
   -7.9724    2.1475    0.0000 F   0  0  0  0  0  0  0  0  0  0  0  0
   -6.1316    3.2019    0.0000 F   0  0  0  0  0  0  0  0  0  0  0  0
   -6.9180    0.3068    0.0000 F   0  0  0  0  0  0  0  0  0  0  0  0
   -1.4156   -2.3256    0.0000 C   0  0  0  0  0  0  0  0  0  0  0  0
   -0.8828   -3.7277    0.0000 C   0  0  0  0  0  0  0  0  0  0  0  0
    0.6154   -3.6544    0.0000 C   0  0  0  0  0  0  0  0  0  0  0  0
    1.0086   -2.2068    0.0000 C   0  0  0  0  0  0  0  0  0  0  0  0
    2.3474   -1.5304    0.0000 C   0  0  0  0  0  0  0  0  0  0  0  0
    3.6026   -2.3516    0.0000 C   0  0  0  0  0  0  0  0  0  0  0  0
    4.9414   -1.6752    0.0000 C   0  0  0  0  0  0  0  0  0  0  0  0
    5.0250   -0.1775    0.0000 C   0  0  0  0  0  0  0  0  0  0  0  0
    6.3639    0.4989    0.0000 C   0  0  0  0  0  0  0  0  0  0  0  0
    6.4475    1.9966    0.0000 C   0  0  0  0  0  0  0  0  0  0  0  0
    7.7863    2.6730    0.0000 O   0  0  0  0  0  0  0  0  0  0  0  0
    5.1923    2.8178    0.0000 C   0  0  0  0  0  0  0  0  0  0  0  0
    3.8534    2.1414    0.0000 C   0  0  0  0  0  0  0  0  0  0  0  0
    3.7698    0.6437    0.0000 C   0  0  0  0  0  0  0  0  0  0  0  0
    2.5146    1.4650    0.0000 C   0  0  0  0  0  0  0  0  0  0  0  0
    2.4310   -0.0327    0.0000 C   0  0  0  0  0  0  0  0  0  0  0  0
    1.1758    0.7885    0.0000 C   0  0  0  0  0  0  0  0  0  0  0  0
   -0.1630    0.1121    0.0000 C   0  0  0  0  0  0  0  0  0  0  0  0
   -1.4182    0.9334    0.0000 O   0  0  0  0  0  0  0  0  0  0  0  0
   -0.2466   -1.3856    0.0000 C   0  0  0  0  0  0  0  0  0  0  0  0
   -1.5808   -0.7000    0.0000 C   0  0  0  0  0  0  0  0  0  0  0  0
  2  1  1  6
  2  3  1  0
  3  4  1  0
  4  5  1  0
  5  6  2  0
  5  7  1  0
  7  8  1  0
  7  9  1  0
  7 10  1  0
  2 11  1  0
 11 12  1  6
 12 13  1  0
 14 13  1  6
 14 15  1  0
 15 16  1  1
 16 17  1  0
 18 17  1  1
 18 19  1  0
 19 20  1  0
 20 21  1  1
 20 22  1  0
 22 23  1  0
 23 24  1  0
 24 25  1  6
 24 26  1  0
 26 27  1  6
 27 28  1  0
 28 29  1  6
 28 30  1  0
 30 31  1  6
 30 11  1  0
 30 14  1  0
 26 15  1  0
 24 18  1  0
M  END
>  <MS_ID>  (1910) 
MS1981

>  <SMILES>  (1910) 
C[C@H](CCC(=O)C(F)(F)F)[C@H]1CC[C@H]2[C@@H]3CC[C@@H]4C[C@H](O)CC[C@]4(C)[C@H]3C[C@@H](O)[C@]12C

>  <Structure_dimension>  (1910) 
2D

$$$$
MS1982
     RDKit          2D

 31 34  0  0  0  0  0  0  0  0999 V2000
   -8.8652    2.5814    0.0000 C   0  0  0  0  0  0  0  0  0  0  0  0
   -7.3822    2.3562    0.0000 C   0  0  0  0  0  0  0  0  0  0  0  0
   -6.4457    3.5279    0.0000 C   0  0  0  0  0  0  0  0  0  0  0  0
   -6.8357    0.9593    0.0000 O   0  0  0  0  0  0  0  0  0  0  0  0
   -5.3527    0.7341    0.0000 C   0  0  0  0  0  0  0  0  0  0  0  0
   -4.4162    1.9059    0.0000 O   0  0  0  0  0  0  0  0  0  0  0  0
   -4.8062   -0.6628    0.0000 C   0  0  0  0  0  0  0  0  0  0  0  0
   -3.3232   -0.8879    0.0000 C   0  0  0  0  0  0  0  0  0  0  0  0
   -2.7767   -2.2848    0.0000 C   0  0  0  0  0  0  0  0  0  0  0  0
   -3.7132   -3.4566    0.0000 C   0  0  0  0  0  0  0  0  0  0  0  0
   -1.2937   -2.5100    0.0000 C   0  0  0  0  0  0  0  0  0  0  0  0
   -0.6042   -3.8421    0.0000 C   0  0  0  0  0  0  0  0  0  0  0  0
    0.8758   -3.5980    0.0000 C   0  0  0  0  0  0  0  0  0  0  0  0
    1.1010   -2.1150    0.0000 C   0  0  0  0  0  0  0  0  0  0  0  0
    2.3537   -1.2900    0.0000 C   0  0  0  0  0  0  0  0  0  0  0  0
    3.6946   -1.9624    0.0000 C   0  0  0  0  0  0  0  0  0  0  0  0
    3.7827   -3.4598    0.0000 O   0  0  0  0  0  0  0  0  0  0  0  0
    4.9473   -1.1374    0.0000 C   0  0  0  0  0  0  0  0  0  0  0  0
    4.8592    0.3600    0.0000 C   0  0  0  0  0  0  0  0  0  0  0  0
    6.1120    1.1850    0.0000 C   0  0  0  0  0  0  0  0  0  0  0  0
    6.0239    2.6824    0.0000 C   0  0  0  0  0  0  0  0  0  0  0  0
    7.2767    3.5074    0.0000 O   0  0  0  0  0  0  0  0  0  0  0  0
    4.6831    3.3548    0.0000 C   0  0  0  0  0  0  0  0  0  0  0  0
    3.4303    2.5298    0.0000 C   0  0  0  0  0  0  0  0  0  0  0  0
    3.5184    1.0324    0.0000 C   0  0  0  0  0  0  0  0  0  0  0  0
    2.1776    1.7048    0.0000 C   0  0  0  0  0  0  0  0  0  0  0  0
    2.2656    0.2074    0.0000 C   0  0  0  0  0  0  0  0  0  0  0  0
    0.9248    0.8798    0.0000 C   0  0  0  0  0  0  0  0  0  0  0  0
   -0.3279    0.0548    0.0000 C   0  0  0  0  0  0  0  0  0  0  0  0
   -0.2399   -1.4426    0.0000 C   0  0  0  0  0  0  0  0  0  0  0  0
   -1.6436   -0.9140    0.0000 C   0  0  0  0  0  0  0  0  0  0  0  0
  1  2  1  0
  2  3  1  0
  2  4  1  0
  4  5  1  0
  5  6  2  0
  5  7  1  0
  7  8  1  0
  8  9  1  0
  9 10  1  6
  9 11  1  0
 11 12  1  6
 12 13  1  0
 14 13  1  6
 14 15  1  0
 15 16  1  1
 16 17  1  1
 16 18  1  0
 19 18  1  1
 19 20  1  0
 20 21  1  0
 21 22  1  1
 21 23  1  0
 23 24  1  0
 24 25  1  0
 25 26  1  6
 25 27  1  0
 27 28  1  6
 28 29  1  0
 29 30  1  0
 30 31  1  6
 30 11  1  0
 30 14  1  0
 27 15  1  0
 25 19  1  0
M  END
>  <MS_ID>  (1911) 
MS1982

>  <SMILES>  (1911) 
CC(C)OC(=O)CC[C@@H](C)[C@H]1CC[C@H]2[C@@H]3[C@H](O)C[C@@H]4C[C@H](O)CC[C@]4(C)[C@H]3CC[C@]12C

>  <Structure_dimension>  (1911) 
2D

$$$$
MS1983
     RDKit          2D

 30 33  0  0  0  0  0  0  0  0999 V2000
   -4.9282   -2.3226    0.0000 C   0  0  0  0  0  0  0  0  0  0  0  0
   -3.7737   -1.3649    0.0000 C   0  0  0  0  0  0  0  0  0  0  0  0
   -4.0259    0.1138    0.0000 C   0  0  0  0  0  0  0  0  0  0  0  0
   -5.4325    0.6347    0.0000 C   0  0  0  0  0  0  0  0  0  0  0  0
   -5.6847    2.1133    0.0000 C   0  0  0  0  0  0  0  0  0  0  0  0
   -4.5303    3.0711    0.0000 O   0  0  0  0  0  0  0  0  0  0  0  0
   -7.0914    2.6342    0.0000 O   0  0  0  0  0  0  0  0  0  0  0  0
   -2.3671   -1.8858    0.0000 C   0  0  0  0  0  0  0  0  0  0  0  0
   -1.9617   -3.3300    0.0000 C   0  0  0  0  0  0  0  0  0  0  0  0
   -0.4629   -3.3907    0.0000 C   0  0  0  0  0  0  0  0  0  0  0  0
    0.0580   -1.9841    0.0000 C   0  0  0  0  0  0  0  0  0  0  0  0
    1.4519   -1.4300    0.0000 C   0  0  0  0  0  0  0  0  0  0  0  0
    2.6287   -2.3601    0.0000 C   0  0  0  0  0  0  0  0  0  0  0  0
    2.4116   -3.8443    0.0000 O   0  0  0  0  0  0  0  0  0  0  0  0
    4.0226   -1.8060    0.0000 C   0  0  0  0  0  0  0  0  0  0  0  0
    4.2397   -0.3218    0.0000 C   0  0  0  0  0  0  0  0  0  0  0  0
    5.6336    0.2323    0.0000 C   0  0  0  0  0  0  0  0  0  0  0  0
    5.8507    1.7166    0.0000 C   0  0  0  0  0  0  0  0  0  0  0  0
    7.2446    2.2707    0.0000 O   0  0  0  0  0  0  0  0  0  0  0  0
    4.6739    2.6467    0.0000 C   0  0  0  0  0  0  0  0  0  0  0  0
    3.2800    2.0925    0.0000 C   0  0  0  0  0  0  0  0  0  0  0  0
    3.0629    0.6083    0.0000 C   0  0  0  0  0  0  0  0  0  0  0  0
    1.8861    1.5384    0.0000 C   0  0  0  0  0  0  0  0  0  0  0  0
    1.6690    0.0542    0.0000 C   0  0  0  0  0  0  0  0  0  0  0  0
    0.4922    0.9843    0.0000 C   0  0  0  0  0  0  0  0  0  0  0  0
   -0.9017    0.4302    0.0000 C   0  0  0  0  0  0  0  0  0  0  0  0
   -2.0786    1.3603    0.0000 C   0  0  0  0  0  0  0  0  0  0  0  0
   -1.8615    2.8445    0.0000 O   0  0  0  0  0  0  0  0  0  0  0  0
   -1.1188   -1.0540    0.0000 C   0  0  0  0  0  0  0  0  0  0  0  0
   -2.3864   -0.2520    0.0000 C   0  0  0  0  0  0  0  0  0  0  0  0
  2  1  1  6
  2  3  1  0
  3  4  1  0
  4  5  1  0
  5  6  2  0
  5  7  1  0
  2  8  1  0
  8  9  1  6
  9 10  1  0
 11 10  1  6
 11 12  1  0
 12 13  1  1
 13 14  1  6
 13 15  1  0
 16 15  1  1
 16 17  1  0
 17 18  1  0
 18 19  1  1
 18 20  1  0
 20 21  1  0
 21 22  1  0
 22 23  1  6
 22 24  1  0
 24 25  1  6
 25 26  1  0
 26 27  1  6
 27 28  1  0
 26 29  1  0
 29 30  1  6
 29  8  1  0
 29 11  1  0
 24 12  1  0
 22 16  1  0
M  END
>  <MS_ID>  (1912) 
MS1983

>  <SMILES>  (1912) 
C[C@H](CCC(=O)O)[C@H]1CC[C@H]2[C@@H]3[C@@H](O)C[C@@H]4C[C@H](O)CC[C@]4(C)[C@H]3C[C@@H](CO)[C@]12C

>  <Structure_dimension>  (1912) 
2D

$$$$
MS1984
     RDKit          2D

 29 32  0  0  0  0  0  0  0  0999 V2000
   -5.0303   -2.1373    0.0000 C   0  0  0  0  0  0  0  0  0  0  0  0
   -3.8594   -1.1998    0.0000 C   0  0  0  0  0  0  0  0  0  0  0  0
   -4.0858    0.2830    0.0000 C   0  0  0  0  0  0  0  0  0  0  0  0
   -5.4831    0.8284    0.0000 C   0  0  0  0  0  0  0  0  0  0  0  0
   -5.7095    2.3112    0.0000 C   0  0  0  0  0  0  0  0  0  0  0  0
   -4.5386    3.2487    0.0000 O   0  0  0  0  0  0  0  0  0  0  0  0
   -7.1069    2.8565    0.0000 O   0  0  0  0  0  0  0  0  0  0  0  0
   -2.4620   -1.7451    0.0000 C   0  0  0  0  0  0  0  0  0  0  0  0
   -2.0818   -3.1961    0.0000 C   0  0  0  0  0  0  0  0  0  0  0  0
   -0.5844   -3.2830    0.0000 C   0  0  0  0  0  0  0  0  0  0  0  0
   -0.0390   -1.8856    0.0000 C   0  0  0  0  0  0  0  0  0  0  0  0
    1.3643   -1.3559    0.0000 C   0  0  0  0  0  0  0  0  0  0  0  0
    2.5248   -2.3063    0.0000 C   0  0  0  0  0  0  0  0  0  0  0  0
    2.2819   -3.7865    0.0000 O   0  0  0  0  0  0  0  0  0  0  0  0
    3.9281   -1.7765    0.0000 C   0  0  0  0  0  0  0  0  0  0  0  0
    4.1710   -0.2963    0.0000 C   0  0  0  0  0  0  0  0  0  0  0  0
    5.5743    0.2334    0.0000 C   0  0  0  0  0  0  0  0  0  0  0  0
    5.8172    1.7136    0.0000 C   0  0  0  0  0  0  0  0  0  0  0  0
    7.2205    2.2434    0.0000 O   0  0  0  0  0  0  0  0  0  0  0  0
    4.6568    2.6641    0.0000 C   0  0  0  0  0  0  0  0  0  0  0  0
    3.2534    2.1343    0.0000 C   0  0  0  0  0  0  0  0  0  0  0  0
    3.0105    0.6541    0.0000 C   0  0  0  0  0  0  0  0  0  0  0  0
    1.8501    1.6046    0.0000 C   0  0  0  0  0  0  0  0  0  0  0  0
    1.6072    0.1244    0.0000 C   0  0  0  0  0  0  0  0  0  0  0  0
    0.4467    1.0748    0.0000 C   0  0  0  0  0  0  0  0  0  0  0  0
   -0.9566    0.5450    0.0000 C   0  0  0  0  0  0  0  0  0  0  0  0
   -2.1170    1.4955    0.0000 F   0  0  0  0  0  0  0  0  0  0  0  0
   -1.1995   -0.9352    0.0000 C   0  0  0  0  0  0  0  0  0  0  0  0
   -2.4529   -0.1112    0.0000 C   0  0  0  0  0  0  0  0  0  0  0  0
  2  1  1  6
  2  3  1  0
  3  4  1  0
  4  5  1  0
  5  6  2  0
  5  7  1  0
  2  8  1  0
  8  9  1  6
  9 10  1  0
 11 10  1  6
 11 12  1  0
 12 13  1  1
 13 14  1  6
 13 15  1  0
 16 15  1  1
 16 17  1  0
 17 18  1  0
 18 19  1  1
 18 20  1  0
 20 21  1  0
 21 22  1  0
 22 23  1  6
 22 24  1  0
 24 25  1  6
 25 26  1  0
 26 27  1  6
 26 28  1  0
 28 29  1  6
 28  8  1  0
 28 11  1  0
 24 12  1  0
 22 16  1  0
M  END
>  <MS_ID>  (1913) 
MS1984

>  <SMILES>  (1913) 
C[C@H](CCC(=O)O)[C@H]1CC[C@H]2[C@@H]3[C@@H](O)C[C@@H]4C[C@H](O)CC[C@]4(C)[C@H]3C[C@@H](F)[C@]12C

>  <Structure_dimension>  (1913) 
2D

$$$$
MS1985
     RDKit          2D

 29 32  0  0  0  0  0  0  0  0999 V2000
   -5.0303   -2.1373    0.0000 C   0  0  0  0  0  0  0  0  0  0  0  0
   -3.8594   -1.1998    0.0000 C   0  0  0  0  0  0  0  0  0  0  0  0
   -4.0858    0.2830    0.0000 C   0  0  0  0  0  0  0  0  0  0  0  0
   -5.4831    0.8284    0.0000 C   0  0  0  0  0  0  0  0  0  0  0  0
   -5.7095    2.3112    0.0000 C   0  0  0  0  0  0  0  0  0  0  0  0
   -4.5386    3.2487    0.0000 O   0  0  0  0  0  0  0  0  0  0  0  0
   -7.1069    2.8565    0.0000 O   0  0  0  0  0  0  0  0  0  0  0  0
   -2.4620   -1.7451    0.0000 C   0  0  0  0  0  0  0  0  0  0  0  0
   -2.0818   -3.1961    0.0000 C   0  0  0  0  0  0  0  0  0  0  0  0
   -0.5844   -3.2830    0.0000 C   0  0  0  0  0  0  0  0  0  0  0  0
   -0.0390   -1.8856    0.0000 C   0  0  0  0  0  0  0  0  0  0  0  0
    1.3643   -1.3559    0.0000 C   0  0  0  0  0  0  0  0  0  0  0  0
    2.5248   -2.3063    0.0000 C   0  0  0  0  0  0  0  0  0  0  0  0
    2.2819   -3.7865    0.0000 O   0  0  0  0  0  0  0  0  0  0  0  0
    3.9281   -1.7765    0.0000 C   0  0  0  0  0  0  0  0  0  0  0  0
    4.1710   -0.2963    0.0000 C   0  0  0  0  0  0  0  0  0  0  0  0
    5.5743    0.2334    0.0000 C   0  0  0  0  0  0  0  0  0  0  0  0
    5.8172    1.7136    0.0000 C   0  0  0  0  0  0  0  0  0  0  0  0
    7.2205    2.2434    0.0000 O   0  0  0  0  0  0  0  0  0  0  0  0
    4.6568    2.6641    0.0000 C   0  0  0  0  0  0  0  0  0  0  0  0
    3.2534    2.1343    0.0000 C   0  0  0  0  0  0  0  0  0  0  0  0
    3.0105    0.6541    0.0000 C   0  0  0  0  0  0  0  0  0  0  0  0
    1.8501    1.6046    0.0000 C   0  0  0  0  0  0  0  0  0  0  0  0
    1.6072    0.1244    0.0000 C   0  0  0  0  0  0  0  0  0  0  0  0
    0.4467    1.0748    0.0000 C   0  0  0  0  0  0  0  0  0  0  0  0
   -0.9566    0.5450    0.0000 C   0  0  0  0  0  0  0  0  0  0  0  0
   -2.1170    1.4955    0.0000 Cl  0  0  0  0  0  0  0  0  0  0  0  0
   -1.1995   -0.9352    0.0000 C   0  0  0  0  0  0  0  0  0  0  0  0
   -2.4529   -0.1112    0.0000 C   0  0  0  0  0  0  0  0  0  0  0  0
  2  1  1  6
  2  3  1  0
  3  4  1  0
  4  5  1  0
  5  6  2  0
  5  7  1  0
  2  8  1  0
  8  9  1  6
  9 10  1  0
 11 10  1  6
 11 12  1  0
 12 13  1  1
 13 14  1  6
 13 15  1  0
 16 15  1  1
 16 17  1  0
 17 18  1  0
 18 19  1  1
 18 20  1  0
 20 21  1  0
 21 22  1  0
 22 23  1  6
 22 24  1  0
 24 25  1  6
 25 26  1  0
 26 27  1  6
 26 28  1  0
 28 29  1  6
 28  8  1  0
 28 11  1  0
 24 12  1  0
 22 16  1  0
M  END
>  <MS_ID>  (1914) 
MS1985

>  <SMILES>  (1914) 
C[C@H](CCC(=O)O)[C@H]1CC[C@H]2[C@@H]3[C@@H](O)C[C@@H]4C[C@H](O)CC[C@]4(C)[C@H]3C[C@@H](Cl)[C@]12C

>  <Structure_dimension>  (1914) 
2D

$$$$
MS1986
     RDKit          2D

 32 35  0  0  0  0  0  0  0  0999 V2000
   -3.9539   -2.9832    0.0000 C   0  0  0  0  0  0  0  0  0  0  0  0
   -2.9202   -1.8962    0.0000 C   0  0  0  0  0  0  0  0  0  0  0  0
   -3.3447   -0.4575    0.0000 C   0  0  0  0  0  0  0  0  0  0  0  0
   -4.8029   -0.1058    0.0000 C   0  0  0  0  0  0  0  0  0  0  0  0
   -5.2274    1.3329    0.0000 C   0  0  0  0  0  0  0  0  0  0  0  0
   -4.1937    2.4198    0.0000 O   0  0  0  0  0  0  0  0  0  0  0  0
   -6.6856    1.6846    0.0000 C   0  0  0  0  0  0  0  0  0  0  0  0
   -7.0373    0.2264    0.0000 C   0  0  0  0  0  0  0  0  0  0  0  0
   -6.3339    3.1427    0.0000 C   0  0  0  0  0  0  0  0  0  0  0  0
   -8.1438    2.0363    0.0000 O   0  0  0  0  0  0  0  0  0  0  0  0
   -1.4620   -2.2479    0.0000 C   0  0  0  0  0  0  0  0  0  0  0  0
   -0.8894   -3.6343    0.0000 C   0  0  0  0  0  0  0  0  0  0  0  0
    0.6061   -3.5182    0.0000 C   0  0  0  0  0  0  0  0  0  0  0  0
    0.9578   -2.0600    0.0000 C   0  0  0  0  0  0  0  0  0  0  0  0
    2.2768   -1.3457    0.0000 C   0  0  0  0  0  0  0  0  0  0  0  0
    3.5549   -2.1307    0.0000 C   0  0  0  0  0  0  0  0  0  0  0  0
    3.5141   -3.6302    0.0000 O   0  0  0  0  0  0  0  0  0  0  0  0
    4.8739   -1.4164    0.0000 C   0  0  0  0  0  0  0  0  0  0  0  0
    4.9147    0.0830    0.0000 C   0  0  0  0  0  0  0  0  0  0  0  0
    6.2337    0.7974    0.0000 C   0  0  0  0  0  0  0  0  0  0  0  0
    6.2745    2.2968    0.0000 C   0  0  0  0  0  0  0  0  0  0  0  0
    7.5935    3.0112    0.0000 O   0  0  0  0  0  0  0  0  0  0  0  0
    4.9964    3.0819    0.0000 C   0  0  0  0  0  0  0  0  0  0  0  0
    3.6774    2.3676    0.0000 C   0  0  0  0  0  0  0  0  0  0  0  0
    3.6366    0.8681    0.0000 C   0  0  0  0  0  0  0  0  0  0  0  0
    2.3584    1.6532    0.0000 C   0  0  0  0  0  0  0  0  0  0  0  0
    2.3176    0.1538    0.0000 C   0  0  0  0  0  0  0  0  0  0  0  0
    1.0395    0.9389    0.0000 C   0  0  0  0  0  0  0  0  0  0  0  0
   -0.2795    0.2245    0.0000 C   0  0  0  0  0  0  0  0  0  0  0  0
   -1.5577    1.0096    0.0000 O   0  0  0  0  0  0  0  0  0  0  0  0
   -0.3204   -1.2749    0.0000 C   0  0  0  0  0  0  0  0  0  0  0  0
   -1.6736   -0.6277    0.0000 C   0  0  0  0  0  0  0  0  0  0  0  0
  2  1  1  6
  2  3  1  0
  3  4  1  0
  4  5  1  0
  5  6  2  0
  5  7  1  0
  7  8  1  0
  7  9  1  0
  7 10  1  0
  2 11  1  0
 11 12  1  6
 12 13  1  0
 14 13  1  6
 14 15  1  0
 15 16  1  1
 16 17  1  1
 16 18  1  0
 19 18  1  1
 19 20  1  0
 20 21  1  0
 21 22  1  1
 21 23  1  0
 23 24  1  0
 24 25  1  0
 25 26  1  6
 25 27  1  0
 27 28  1  6
 28 29  1  0
 29 30  1  6
 29 31  1  0
 31 32  1  6
 31 11  1  0
 31 14  1  0
 27 15  1  0
 25 19  1  0
M  END
>  <MS_ID>  (1915) 
MS1986

>  <SMILES>  (1915) 
C[C@H](CCC(=O)C(C)(C)O)[C@H]1CC[C@H]2[C@@H]3[C@H](O)C[C@@H]4C[C@H](O)CC[C@]4(C)[C@H]3C[C@@H](O)[C@]12C

>  <Structure_dimension>  (1915) 
2D

$$$$
MS1987
     RDKit          2D

 32 35  0  0  0  0  0  0  0  0999 V2000
   -3.2905   -3.6805    0.0000 C   0  0  0  0  0  0  0  0  0  0  0  0
   -2.3609   -2.5033    0.0000 C   0  0  0  0  0  0  0  0  0  0  0  0
   -2.9157   -1.1096    0.0000 C   0  0  0  0  0  0  0  0  0  0  0  0
   -4.4000   -0.8932    0.0000 C   0  0  0  0  0  0  0  0  0  0  0  0
   -4.9547    0.5004    0.0000 C   0  0  0  0  0  0  0  0  0  0  0  0
   -4.0251    1.6776    0.0000 O   0  0  0  0  0  0  0  0  0  0  0  0
   -6.4390    0.7168    0.0000 O   0  0  0  0  0  0  0  0  0  0  0  0
   -6.9938    2.1105    0.0000 C   0  0  0  0  0  0  0  0  0  0  0  0
   -8.3874    1.5557    0.0000 C   0  0  0  0  0  0  0  0  0  0  0  0
   -5.6001    2.6652    0.0000 C   0  0  0  0  0  0  0  0  0  0  0  0
   -7.5485    3.5041    0.0000 C   0  0  0  0  0  0  0  0  0  0  0  0
   -0.8766   -2.7197    0.0000 C   0  0  0  0  0  0  0  0  0  0  0  0
   -0.1792   -4.0477    0.0000 C   0  0  0  0  0  0  0  0  0  0  0  0
    1.2993   -3.7949    0.0000 C   0  0  0  0  0  0  0  0  0  0  0  0
    1.5157   -2.3106    0.0000 C   0  0  0  0  0  0  0  0  0  0  0  0
    2.7636   -1.4782    0.0000 C   0  0  0  0  0  0  0  0  0  0  0  0
    4.1084   -2.1427    0.0000 C   0  0  0  0  0  0  0  0  0  0  0  0
    5.3562   -1.3103    0.0000 C   0  0  0  0  0  0  0  0  0  0  0  0
    5.2593    0.1866    0.0000 C   0  0  0  0  0  0  0  0  0  0  0  0
    6.5071    1.0189    0.0000 C   0  0  0  0  0  0  0  0  0  0  0  0
    6.4102    2.5158    0.0000 C   0  0  0  0  0  0  0  0  0  0  0  0
    7.6581    3.3482    0.0000 O   0  0  0  0  0  0  0  0  0  0  0  0
    5.0654    3.1803    0.0000 C   0  0  0  0  0  0  0  0  0  0  0  0
    3.8176    2.3479    0.0000 C   0  0  0  0  0  0  0  0  0  0  0  0
    3.9145    0.8511    0.0000 C   0  0  0  0  0  0  0  0  0  0  0  0
    2.5697    1.5155    0.0000 C   0  0  0  0  0  0  0  0  0  0  0  0
    2.6666    0.0187    0.0000 C   0  0  0  0  0  0  0  0  0  0  0  0
    1.3218    0.6832    0.0000 C   0  0  0  0  0  0  0  0  0  0  0  0
    0.0740   -0.1492    0.0000 C   0  0  0  0  0  0  0  0  0  0  0  0
   -1.2708    0.5153    0.0000 O   0  0  0  0  0  0  0  0  0  0  0  0
    0.1709   -1.6461    0.0000 C   0  0  0  0  0  0  0  0  0  0  0  0
   -1.2360   -1.1258    0.0000 C   0  0  0  0  0  0  0  0  0  0  0  0
  2  1  1  6
  2  3  1  0
  3  4  1  0
  4  5  1  0
  5  6  2  0
  5  7  1  0
  7  8  1  0
  8  9  1  0
  8 10  1  0
  8 11  1  0
  2 12  1  0
 12 13  1  6
 13 14  1  0
 15 14  1  6
 15 16  1  0
 16 17  1  1
 17 18  1  0
 19 18  1  1
 19 20  1  0
 20 21  1  0
 21 22  1  6
 21 23  1  0
 23 24  1  0
 24 25  1  0
 25 26  1  6
 25 27  1  0
 27 28  1  6
 28 29  1  0
 29 30  1  1
 29 31  1  0
 31 32  1  6
 31 12  1  0
 31 15  1  0
 27 16  1  0
 25 19  1  0
M  END
>  <MS_ID>  (1916) 
MS1987

>  <SMILES>  (1916) 
C[C@H](CCC(=O)OC(C)(C)C)[C@H]1CC[C@H]2[C@@H]3CC[C@@H]4C[C@@H](O)CC[C@]4(C)[C@H]3C[C@H](O)[C@]12C

>  <Structure_dimension>  (1916) 
2D

$$$$
MS1988
     RDKit          2D

 34 37  0  0  0  0  0  0  0  0999 V2000
   -3.2033   -3.6172    0.0000 C   0  0  0  0  0  0  0  0  0  0  0  0
   -2.3940   -2.3543    0.0000 C   0  0  0  0  0  0  0  0  0  0  0  0
   -3.0831   -1.0219    0.0000 C   0  0  0  0  0  0  0  0  0  0  0  0
   -4.5815   -0.9525    0.0000 C   0  0  0  0  0  0  0  0  0  0  0  0
   -5.2706    0.3798    0.0000 C   0  0  0  0  0  0  0  0  0  0  0  0
   -4.4613    1.6428    0.0000 O   0  0  0  0  0  0  0  0  0  0  0  0
   -6.7690    0.4492    0.0000 C   0  0  0  0  0  0  0  0  0  0  0  0
   -7.4581    1.7816    0.0000 C   0  0  0  0  0  0  0  0  0  0  0  0
   -8.9565    1.8510    0.0000 C   0  0  0  0  0  0  0  0  0  0  0  0
   -9.7658    0.5880    0.0000 O   0  0  0  0  0  0  0  0  0  0  0  0
   -9.6456    3.1833    0.0000 O   0  0  0  0  0  0  0  0  0  0  0  0
   -0.8956   -2.4237    0.0000 C   0  0  0  0  0  0  0  0  0  0  0  0
   -0.0710   -3.6767    0.0000 C   0  0  0  0  0  0  0  0  0  0  0  0
    1.3755   -3.2797    0.0000 C   0  0  0  0  0  0  0  0  0  0  0  0
    1.4449   -1.7813    0.0000 C   0  0  0  0  0  0  0  0  0  0  0  0
    2.6048   -0.8302    0.0000 C   0  0  0  0  0  0  0  0  0  0  0  0
    4.0085   -1.3593    0.0000 C   0  0  0  0  0  0  0  0  0  0  0  0
    4.2521   -2.8393    0.0000 C   0  0  0  0  0  0  0  0  0  0  0  0
    3.0921   -3.7904    0.0000 O   0  0  0  0  0  0  0  0  0  0  0  0
    5.6557   -3.3684    0.0000 O   0  0  0  0  0  0  0  0  0  0  0  0
    5.1684   -0.4082    0.0000 C   0  0  0  0  0  0  0  0  0  0  0  0
    4.9248    1.0719    0.0000 C   0  0  0  0  0  0  0  0  0  0  0  0
    6.0847    2.0229    0.0000 C   0  0  0  0  0  0  0  0  0  0  0  0
    5.8411    3.5030    0.0000 C   0  0  0  0  0  0  0  0  0  0  0  0
    7.0011    4.4540    0.0000 O   0  0  0  0  0  0  0  0  0  0  0  0
    4.4375    4.0320    0.0000 C   0  0  0  0  0  0  0  0  0  0  0  0
    3.2775    3.0810    0.0000 C   0  0  0  0  0  0  0  0  0  0  0  0
    3.5212    1.6009    0.0000 C   0  0  0  0  0  0  0  0  0  0  0  0
    2.1176    2.1299    0.0000 C   0  0  0  0  0  0  0  0  0  0  0  0
    2.3612    0.6499    0.0000 C   0  0  0  0  0  0  0  0  0  0  0  0
    0.9576    1.1789    0.0000 C   0  0  0  0  0  0  0  0  0  0  0  0
   -0.2024    0.2278    0.0000 C   0  0  0  0  0  0  0  0  0  0  0  0
    0.0413   -1.2522    0.0000 C   0  0  0  0  0  0  0  0  0  0  0  0
   -1.4099   -0.8728    0.0000 C   0  0  0  0  0  0  0  0  0  0  0  0
  2  1  1  6
  2  3  1  0
  3  4  1  0
  4  5  1  0
  5  6  2  0
  5  7  1  0
  7  8  1  0
  8  9  1  0
  9 10  2  0
  9 11  1  0
  2 12  1  0
 12 13  1  6
 13 14  1  0
 15 14  1  6
 15 16  1  0
 16 17  1  1
 17 18  1  1
 18 19  2  0
 18 20  1  0
 17 21  1  0
 22 21  1  1
 22 23  1  0
 23 24  1  0
 24 25  1  1
 24 26  1  0
 26 27  1  0
 27 28  1  0
 28 29  1  6
 28 30  1  0
 30 31  1  6
 31 32  1  0
 32 33  1  0
 33 34  1  6
 33 12  1  0
 33 15  1  0
 30 16  1  0
 28 22  1  0
M  END
>  <MS_ID>  (1917) 
MS1988

>  <SMILES>  (1917) 
C[C@H](CCC(=O)CCC(=O)O)[C@H]1CC[C@H]2[C@@H]3[C@H](C(=O)O)C[C@@H]4C[C@H](O)CC[C@]4(C)[C@H]3CC[C@]12C

>  <Structure_dimension>  (1917) 
2D

$$$$
MS1989
     RDKit          2D

 36 40  0  0  0  0  0  0  0  0999 V2000
   -1.9657   -4.5211    0.0000 C   0  0  0  0  0  0  0  0  0  0  0  0
   -1.2950   -3.1794    0.0000 C   0  0  0  0  0  0  0  0  0  0  0  0
   -2.1216   -1.9277    0.0000 C   0  0  0  0  0  0  0  0  0  0  0  0
   -3.6189   -2.0177    0.0000 C   0  0  0  0  0  0  0  0  0  0  0  0
   -4.4455   -0.7660    0.0000 C   0  0  0  0  0  0  0  0  0  0  0  0
   -3.7748    0.5757    0.0000 O   0  0  0  0  0  0  0  0  0  0  0  0
   -5.9428   -0.8560    0.0000 O   0  0  0  0  0  0  0  0  0  0  0  0
   -6.7694    0.3956    0.0000 C   0  0  0  0  0  0  0  0  0  0  0  0
   -8.2679    0.4626    0.0000 O   0  0  0  0  0  0  0  0  0  0  0  0
   -8.6672    1.9085    0.0000 C   0  0  0  0  0  0  0  0  0  0  0  0
   -7.4155    2.7351    0.0000 C   0  0  0  0  0  0  0  0  0  0  0  0
   -7.3485    4.2336    0.0000 O   0  0  0  0  0  0  0  0  0  0  0  0
   -6.2426    1.8001    0.0000 C   0  0  0  0  0  0  0  0  0  0  0  0
   -4.7967    2.1995    0.0000 O   0  0  0  0  0  0  0  0  0  0  0  0
    0.2023   -3.0894    0.0000 C   0  0  0  0  0  0  0  0  0  0  0  0
    1.1552   -4.2478    0.0000 C   0  0  0  0  0  0  0  0  0  0  0  0
    2.5514   -3.6996    0.0000 C   0  0  0  0  0  0  0  0  0  0  0  0
    2.4614   -2.2023    0.0000 C   0  0  0  0  0  0  0  0  0  0  0  0
    3.5139   -1.1335    0.0000 C   0  0  0  0  0  0  0  0  0  0  0  0
    4.9657   -1.5106    0.0000 C   0  0  0  0  0  0  0  0  0  0  0  0
    5.3651   -2.9564    0.0000 O   0  0  0  0  0  0  0  0  0  0  0  0
    6.0182   -0.4418    0.0000 C   0  0  0  0  0  0  0  0  0  0  0  0
    5.6189    1.0041    0.0000 C   0  0  0  0  0  0  0  0  0  0  0  0
    6.6713    2.0729    0.0000 C   0  0  0  0  0  0  0  0  0  0  0  0
    6.2720    3.5187    0.0000 C   0  0  0  0  0  0  0  0  0  0  0  0
    7.3245    4.5875    0.0000 O   0  0  0  0  0  0  0  0  0  0  0  0
    4.8202    3.8958    0.0000 C   0  0  0  0  0  0  0  0  0  0  0  0
    3.7677    2.8270    0.0000 C   0  0  0  0  0  0  0  0  0  0  0  0
    4.1670    1.3812    0.0000 C   0  0  0  0  0  0  0  0  0  0  0  0
    2.7152    1.7583    0.0000 C   0  0  0  0  0  0  0  0  0  0  0  0
    3.1146    0.3124    0.0000 C   0  0  0  0  0  0  0  0  0  0  0  0
    1.6627    0.6895    0.0000 C   0  0  0  0  0  0  0  0  0  0  0  0
    0.6102   -0.3793    0.0000 C   0  0  0  0  0  0  0  0  0  0  0  0
   -0.8416   -0.0022    0.0000 O   0  0  0  0  0  0  0  0  0  0  0  0
    1.0096   -1.8252    0.0000 C   0  0  0  0  0  0  0  0  0  0  0  0
   -0.4737   -1.6019    0.0000 C   0  0  0  0  0  0  0  0  0  0  0  0
  2  1  1  6
  2  3  1  0
  3  4  1  0
  4  5  1  0
  5  6  2  0
  5  7  1  0
  8  7  1  1
  8  9  1  0
  9 10  1  0
 10 11  1  0
 11 12  1  6
 11 13  1  0
 13 14  1  1
  2 15  1  0
 15 16  1  6
 16 17  1  0
 18 17  1  6
 18 19  1  0
 19 20  1  1
 20 21  1  1
 20 22  1  0
 23 22  1  1
 23 24  1  0
 24 25  1  0
 25 26  1  1
 25 27  1  0
 27 28  1  0
 28 29  1  0
 29 30  1  6
 29 31  1  0
 31 32  1  6
 32 33  1  0
 33 34  1  1
 33 35  1  0
 35 36  1  6
 13  8  1  0
 35 15  1  0
 35 18  1  0
 31 19  1  0
 29 23  1  0
M  END
>  <MS_ID>  (1918) 
MS1989

>  <SMILES>  (1918) 
C[C@H](CCC(=O)O[C@H]1OC[C@H](O)[C@H]1O)[C@H]1CC[C@H]2[C@@H]3[C@H](O)C[C@@H]4C[C@H](O)CC[C@]4(C)[C@H]3C[C@H](O)[C@]12C

>  <Structure_dimension>  (1918) 
2D

$$$$
MS1990
     RDKit          2D

 29 32  0  0  0  0  0  0  0  0999 V2000
   -5.0303   -2.1373    0.0000 C   0  0  0  0  0  0  0  0  0  0  0  0
   -3.8594   -1.1998    0.0000 C   0  0  0  0  0  0  0  0  0  0  0  0
   -4.0858    0.2830    0.0000 C   0  0  0  0  0  0  0  0  0  0  0  0
   -5.4831    0.8284    0.0000 C   0  0  0  0  0  0  0  0  0  0  0  0
   -5.7095    2.3112    0.0000 C   0  0  0  0  0  0  0  0  0  0  0  0
   -7.1069    2.8565    0.0000 O   0  0  0  0  0  0  0  0  0  0  0  0
   -4.5386    3.2487    0.0000 S   0  0  0  0  0  0  0  0  0  0  0  0
   -2.4620   -1.7451    0.0000 C   0  0  0  0  0  0  0  0  0  0  0  0
   -2.0818   -3.1961    0.0000 C   0  0  0  0  0  0  0  0  0  0  0  0
   -0.5844   -3.2830    0.0000 C   0  0  0  0  0  0  0  0  0  0  0  0
   -0.0390   -1.8856    0.0000 C   0  0  0  0  0  0  0  0  0  0  0  0
    1.3643   -1.3559    0.0000 C   0  0  0  0  0  0  0  0  0  0  0  0
    2.5248   -2.3063    0.0000 C   0  0  0  0  0  0  0  0  0  0  0  0
    2.2819   -3.7865    0.0000 O   0  0  0  0  0  0  0  0  0  0  0  0
    3.9281   -1.7765    0.0000 C   0  0  0  0  0  0  0  0  0  0  0  0
    4.1710   -0.2963    0.0000 C   0  0  0  0  0  0  0  0  0  0  0  0
    5.5743    0.2334    0.0000 C   0  0  0  0  0  0  0  0  0  0  0  0
    5.8172    1.7136    0.0000 C   0  0  0  0  0  0  0  0  0  0  0  0
    7.2205    2.2434    0.0000 O   0  0  0  0  0  0  0  0  0  0  0  0
    4.6568    2.6641    0.0000 C   0  0  0  0  0  0  0  0  0  0  0  0
    3.2534    2.1343    0.0000 C   0  0  0  0  0  0  0  0  0  0  0  0
    3.0105    0.6541    0.0000 C   0  0  0  0  0  0  0  0  0  0  0  0
    1.8501    1.6046    0.0000 C   0  0  0  0  0  0  0  0  0  0  0  0
    1.6072    0.1244    0.0000 C   0  0  0  0  0  0  0  0  0  0  0  0
    0.4467    1.0748    0.0000 C   0  0  0  0  0  0  0  0  0  0  0  0
   -0.9566    0.5450    0.0000 C   0  0  0  0  0  0  0  0  0  0  0  0
   -2.1170    1.4955    0.0000 O   0  0  0  0  0  0  0  0  0  0  0  0
   -1.1995   -0.9352    0.0000 C   0  0  0  0  0  0  0  0  0  0  0  0
   -2.4529   -0.1112    0.0000 C   0  0  0  0  0  0  0  0  0  0  0  0
  2  1  1  6
  2  3  1  0
  3  4  1  0
  4  5  1  0
  5  6  2  0
  5  7  1  0
  2  8  1  0
  8  9  1  6
  9 10  1  0
 11 10  1  6
 11 12  1  0
 12 13  1  1
 13 14  1  1
 13 15  1  0
 16 15  1  1
 16 17  1  0
 17 18  1  0
 18 19  1  6
 18 20  1  0
 20 21  1  0
 21 22  1  0
 22 23  1  6
 22 24  1  0
 24 25  1  6
 25 26  1  0
 26 27  2  0
 26 28  1  0
 28 29  1  6
 28  8  1  0
 28 11  1  0
 24 12  1  0
 22 16  1  0
M  END
>  <MS_ID>  (1919) 
MS1990

>  <SMILES>  (1919) 
C[C@H](CCC(=O)S)[C@H]1CC[C@H]2[C@@H]3[C@H](O)C[C@@H]4C[C@@H](O)CC[C@]4(C)[C@H]3CC(=O)[C@]12C

>  <Structure_dimension>  (1919) 
2D

$$$$
MS1991
     RDKit          2D

 34 38  0  0  0  0  0  0  0  0999 V2000
   -2.2608   -4.3306    0.0000 C   0  0  0  0  0  0  0  0  0  0  0  0
   -1.5430   -3.0135    0.0000 C   0  0  0  0  0  0  0  0  0  0  0  0
   -2.3248   -1.7333    0.0000 C   0  0  0  0  0  0  0  0  0  0  0  0
   -3.8244   -1.7702    0.0000 C   0  0  0  0  0  0  0  0  0  0  0  0
   -4.6061   -0.4901    0.0000 C   0  0  0  0  0  0  0  0  0  0  0  0
   -3.8883    0.8271    0.0000 O   0  0  0  0  0  0  0  0  0  0  0  0
   -6.1057   -0.5270    0.0000 N   0  0  0  0  0  0  0  0  0  0  0  0
   -6.8874    0.7532    0.0000 C   0  0  0  0  0  0  0  0  0  0  0  0
   -6.1696    2.0703    0.0000 C   0  0  0  0  0  0  0  0  0  0  0  0
   -6.9514    3.3505    0.0000 C   0  0  0  0  0  0  0  0  0  0  0  0
   -8.4509    3.3135    0.0000 C   0  0  0  0  0  0  0  0  0  0  0  0
   -9.1687    1.9964    0.0000 N   0  0  0  0  0  0  0  0  0  0  0  0
   -8.3870    0.7163    0.0000 C   0  0  0  0  0  0  0  0  0  0  0  0
   -0.0435   -2.9765    0.0000 C   0  0  0  0  0  0  0  0  0  0  0  0
    0.8678   -4.1680    0.0000 C   0  0  0  0  0  0  0  0  0  0  0  0
    2.2825   -3.6695    0.0000 C   0  0  0  0  0  0  0  0  0  0  0  0
    2.2456   -2.1699    0.0000 C   0  0  0  0  0  0  0  0  0  0  0  0
    3.3353   -1.1391    0.0000 C   0  0  0  0  0  0  0  0  0  0  0  0
    4.7728   -1.5673    0.0000 C   0  0  0  0  0  0  0  0  0  0  0  0
    5.1207   -3.0264    0.0000 O   0  0  0  0  0  0  0  0  0  0  0  0
    5.8625   -0.5365    0.0000 C   0  0  0  0  0  0  0  0  0  0  0  0
    5.5146    0.9226    0.0000 C   0  0  0  0  0  0  0  0  0  0  0  0
    6.6043    1.9534    0.0000 C   0  0  0  0  0  0  0  0  0  0  0  0
    6.2564    3.4125    0.0000 C   0  0  0  0  0  0  0  0  0  0  0  0
    7.3460    4.4434    0.0000 O   0  0  0  0  0  0  0  0  0  0  0  0
    4.8188    3.8408    0.0000 C   0  0  0  0  0  0  0  0  0  0  0  0
    3.7291    2.8099    0.0000 C   0  0  0  0  0  0  0  0  0  0  0  0
    4.0770    1.3509    0.0000 C   0  0  0  0  0  0  0  0  0  0  0  0
    2.6395    1.7791    0.0000 C   0  0  0  0  0  0  0  0  0  0  0  0
    2.9874    0.3200    0.0000 C   0  0  0  0  0  0  0  0  0  0  0  0
    1.5498    0.7483    0.0000 C   0  0  0  0  0  0  0  0  0  0  0  0
    0.4601   -0.2826    0.0000 C   0  0  0  0  0  0  0  0  0  0  0  0
    0.8080   -1.7417    0.0000 C   0  0  0  0  0  0  0  0  0  0  0  0
   -0.6664   -1.4660    0.0000 C   0  0  0  0  0  0  0  0  0  0  0  0
  2  1  1  6
  2  3  1  0
  3  4  1  0
  4  5  1  0
  5  6  2  0
  5  7  1  0
  7  8  1  0
  8  9  2  0
  9 10  1  0
 10 11  2  0
 11 12  1  0
 12 13  2  0
  2 14  1  0
 14 15  1  6
 15 16  1  0
 17 16  1  6
 17 18  1  0
 18 19  1  1
 19 20  1  1
 19 21  1  0
 22 21  1  1
 22 23  1  0
 23 24  1  0
 24 25  1  1
 24 26  1  0
 26 27  1  0
 27 28  1  0
 28 29  1  6
 28 30  1  0
 30 31  1  6
 31 32  1  0
 32 33  1  0
 33 34  1  6
 13  8  1  0
 33 14  1  0
 33 17  1  0
 30 18  1  0
 28 22  1  0
M  END
>  <MS_ID>  (1920) 
MS1991

>  <SMILES>  (1920) 
C[C@H](CCC(=O)Nc1cccnc1)[C@H]1CC[C@H]2[C@@H]3[C@H](O)C[C@@H]4C[C@H](O)CC[C@]4(C)[C@H]3CC[C@]12C

>  <Structure_dimension>  (1920) 
2D

$$$$
MS1992
     RDKit          2D

 34 37  0  0  0  0  0  0  0  0999 V2000
   -2.9347   -3.8100    0.0000 C   0  0  0  0  0  0  0  0  0  0  0  0
   -2.1061   -2.5597    0.0000 C   0  0  0  0  0  0  0  0  0  0  0  0
   -2.7747   -1.2169    0.0000 C   0  0  0  0  0  0  0  0  0  0  0  0
   -4.2718   -1.1245    0.0000 C   0  0  0  0  0  0  0  0  0  0  0  0
   -4.9404    0.2183    0.0000 C   0  0  0  0  0  0  0  0  0  0  0  0
   -4.1118    1.4687    0.0000 O   0  0  0  0  0  0  0  0  0  0  0  0
   -6.4375    0.3107    0.0000 N   0  0  0  0  0  0  0  0  0  0  0  0
   -7.1061    1.6535    0.0000 N   0  0  0  0  0  0  0  0  0  0  0  0
   -8.6032    1.7459    0.0000 S   0  0  0  0  0  0  0  0  0  0  0  0
   -8.5108    3.2430    0.0000 O   0  0  0  0  0  0  0  0  0  0  0  0
   -8.6956    0.2487    0.0000 O   0  0  0  0  0  0  0  0  0  0  0  0
  -10.1004    1.8383    0.0000 O   0  0  0  0  0  0  0  0  0  0  0  0
   -0.6090   -2.6521    0.0000 C   0  0  0  0  0  0  0  0  0  0  0  0
    0.1963   -3.9176    0.0000 C   0  0  0  0  0  0  0  0  0  0  0  0
    1.6487   -3.5428    0.0000 C   0  0  0  0  0  0  0  0  0  0  0  0
    1.7411   -2.0457    0.0000 C   0  0  0  0  0  0  0  0  0  0  0  0
    2.9155   -1.1125    0.0000 C   0  0  0  0  0  0  0  0  0  0  0  0
    4.3109   -1.6631    0.0000 C   0  0  0  0  0  0  0  0  0  0  0  0
    4.5317   -3.1467    0.0000 O   0  0  0  0  0  0  0  0  0  0  0  0
    5.4853   -0.7299    0.0000 C   0  0  0  0  0  0  0  0  0  0  0  0
    6.8806   -1.2805    0.0000 O   0  0  0  0  0  0  0  0  0  0  0  0
    5.2644    0.7537    0.0000 C   0  0  0  0  0  0  0  0  0  0  0  0
    6.4388    1.6868    0.0000 C   0  0  0  0  0  0  0  0  0  0  0  0
    6.2179    3.1705    0.0000 C   0  0  0  0  0  0  0  0  0  0  0  0
    7.3923    4.1036    0.0000 O   0  0  0  0  0  0  0  0  0  0  0  0
    4.8226    3.7210    0.0000 C   0  0  0  0  0  0  0  0  0  0  0  0
    3.6482    2.7879    0.0000 C   0  0  0  0  0  0  0  0  0  0  0  0
    3.8691    1.3042    0.0000 C   0  0  0  0  0  0  0  0  0  0  0  0
    2.4737    1.8547    0.0000 C   0  0  0  0  0  0  0  0  0  0  0  0
    2.6946    0.3711    0.0000 C   0  0  0  0  0  0  0  0  0  0  0  0
    1.2993    0.9216    0.0000 C   0  0  0  0  0  0  0  0  0  0  0  0
    0.1249   -0.0115    0.0000 C   0  0  0  0  0  0  0  0  0  0  0  0
    0.3458   -1.4951    0.0000 C   0  0  0  0  0  0  0  0  0  0  0  0
   -1.0994   -1.0935    0.0000 C   0  0  0  0  0  0  0  0  0  0  0  0
  2  1  1  6
  2  3  1  0
  3  4  1  0
  4  5  1  0
  5  6  2  0
  5  7  1  0
  7  8  1  0
  8  9  1  0
  9 10  2  0
  9 11  2  0
  9 12  1  0
  2 13  1  0
 13 14  1  6
 14 15  1  0
 16 15  1  6
 16 17  1  0
 17 18  1  1
 18 19  1  1
 18 20  1  0
 20 21  1  1
 20 22  1  0
 22 23  1  1
 23 24  1  0
 24 25  1  1
 24 26  1  0
 26 27  1  0
 27 28  1  0
 28 29  1  6
 28 30  1  0
 30 31  1  6
 31 32  1  0
 32 33  1  0
 33 34  1  6
 33 13  1  0
 33 16  1  0
 30 17  1  0
 28 22  1  0
M  END
>  <MS_ID>  (1921) 
MS1992

>  <SMILES>  (1921) 
C[C@H](CCC(=O)NNS(=O)(=O)O)[C@H]1CC[C@H]2[C@@H]3[C@H](O)[C@H](O)[C@@H]4C[C@H](O)CC[C@]4(C)[C@H]3CC[C@]12C

>  <Structure_dimension>  (1921) 
2D

$$$$
MS1993
     RDKit          2D

 34 38  0  0  0  0  0  0  0  0999 V2000
   -2.2608   -4.3306    0.0000 C   0  0  0  0  0  0  0  0  0  0  0  0
   -1.5430   -3.0135    0.0000 C   0  0  0  0  0  0  0  0  0  0  0  0
   -2.3248   -1.7333    0.0000 C   0  0  0  0  0  0  0  0  0  0  0  0
   -3.8244   -1.7702    0.0000 C   0  0  0  0  0  0  0  0  0  0  0  0
   -4.6061   -0.4901    0.0000 C   0  0  0  0  0  0  0  0  0  0  0  0
   -3.8883    0.8271    0.0000 O   0  0  0  0  0  0  0  0  0  0  0  0
   -6.1057   -0.5270    0.0000 N   0  0  0  0  0  0  0  0  0  0  0  0
   -6.8874    0.7532    0.0000 C   0  0  0  0  0  0  0  0  0  0  0  0
   -6.1696    2.0703    0.0000 C   0  0  0  0  0  0  0  0  0  0  0  0
   -6.9514    3.3505    0.0000 C   0  0  0  0  0  0  0  0  0  0  0  0
   -8.4509    3.3135    0.0000 N   0  0  0  0  0  0  0  0  0  0  0  0
   -9.1687    1.9964    0.0000 C   0  0  0  0  0  0  0  0  0  0  0  0
   -8.3870    0.7163    0.0000 C   0  0  0  0  0  0  0  0  0  0  0  0
   -0.0435   -2.9765    0.0000 C   0  0  0  0  0  0  0  0  0  0  0  0
    0.8678   -4.1680    0.0000 C   0  0  0  0  0  0  0  0  0  0  0  0
    2.2825   -3.6695    0.0000 C   0  0  0  0  0  0  0  0  0  0  0  0
    2.2456   -2.1699    0.0000 C   0  0  0  0  0  0  0  0  0  0  0  0
    3.3353   -1.1391    0.0000 C   0  0  0  0  0  0  0  0  0  0  0  0
    4.7728   -1.5673    0.0000 C   0  0  0  0  0  0  0  0  0  0  0  0
    5.1207   -3.0264    0.0000 O   0  0  0  0  0  0  0  0  0  0  0  0
    5.8625   -0.5365    0.0000 C   0  0  0  0  0  0  0  0  0  0  0  0
    5.5146    0.9226    0.0000 C   0  0  0  0  0  0  0  0  0  0  0  0
    6.6043    1.9534    0.0000 C   0  0  0  0  0  0  0  0  0  0  0  0
    6.2564    3.4125    0.0000 C   0  0  0  0  0  0  0  0  0  0  0  0
    7.3460    4.4434    0.0000 O   0  0  0  0  0  0  0  0  0  0  0  0
    4.8188    3.8408    0.0000 C   0  0  0  0  0  0  0  0  0  0  0  0
    3.7291    2.8099    0.0000 C   0  0  0  0  0  0  0  0  0  0  0  0
    4.0770    1.3509    0.0000 C   0  0  0  0  0  0  0  0  0  0  0  0
    2.6395    1.7791    0.0000 C   0  0  0  0  0  0  0  0  0  0  0  0
    2.9874    0.3200    0.0000 C   0  0  0  0  0  0  0  0  0  0  0  0
    1.5498    0.7483    0.0000 C   0  0  0  0  0  0  0  0  0  0  0  0
    0.4601   -0.2826    0.0000 C   0  0  0  0  0  0  0  0  0  0  0  0
    0.8080   -1.7417    0.0000 C   0  0  0  0  0  0  0  0  0  0  0  0
   -0.6664   -1.4660    0.0000 C   0  0  0  0  0  0  0  0  0  0  0  0
  2  1  1  6
  2  3  1  0
  3  4  1  0
  4  5  1  0
  5  6  2  0
  5  7  1  0
  7  8  1  0
  8  9  2  0
  9 10  1  0
 10 11  2  0
 11 12  1  0
 12 13  2  0
  2 14  1  0
 14 15  1  6
 15 16  1  0
 17 16  1  6
 17 18  1  0
 18 19  1  1
 19 20  1  6
 19 21  1  0
 22 21  1  1
 22 23  1  0
 23 24  1  0
 24 25  1  1
 24 26  1  0
 26 27  1  0
 27 28  1  0
 28 29  1  6
 28 30  1  0
 30 31  1  6
 31 32  1  0
 32 33  1  0
 33 34  1  6
 13  8  1  0
 33 14  1  0
 33 17  1  0
 30 18  1  0
 28 22  1  0
M  END
>  <MS_ID>  (1922) 
MS1993

>  <SMILES>  (1922) 
C[C@H](CCC(=O)Nc1ccncc1)[C@H]1CC[C@H]2[C@@H]3[C@@H](O)C[C@@H]4C[C@H](O)CC[C@]4(C)[C@H]3CC[C@]12C

>  <Structure_dimension>  (1922) 
2D

$$$$
MS1994
     RDKit          2D

 33 36  0  0  0  0  0  0  0  0999 V2000
   -4.4691   -3.6933    0.0000 C   0  0  0  0  0  0  0  0  0  0  0  0
   -3.9174   -2.2984    0.0000 C   0  0  0  0  0  0  0  0  0  0  0  0
   -4.8496   -1.1232    0.0000 C   0  0  0  0  0  0  0  0  0  0  0  0
   -6.3334   -1.3429    0.0000 C   0  0  0  0  0  0  0  0  0  0  0  0
   -7.2655   -0.1677    0.0000 C   0  0  0  0  0  0  0  0  0  0  0  0
   -6.7139    1.2272    0.0000 O   0  0  0  0  0  0  0  0  0  0  0  0
   -8.7494   -0.3874    0.0000 O   0  0  0  0  0  0  0  0  0  0  0  0
   -2.4336   -2.0787    0.0000 C   0  0  0  0  0  0  0  0  0  0  0  0
   -1.3837   -3.1501    0.0000 C   0  0  0  0  0  0  0  0  0  0  0  0
   -0.0404   -2.4826    0.0000 C   0  0  0  0  0  0  0  0  0  0  0  0
   -0.2600   -0.9988    0.0000 C   0  0  0  0  0  0  0  0  0  0  0  0
    0.6957    0.1573    0.0000 C   0  0  0  0  0  0  0  0  0  0  0  0
    2.1748   -0.0923    0.0000 C   0  0  0  0  0  0  0  0  0  0  0  0
    2.6981   -1.4980    0.0000 O   0  0  0  0  0  0  0  0  0  0  0  0
    4.1772   -1.7476    0.0000 C   0  0  0  0  0  0  0  0  0  0  0  0
    4.7006   -3.1533    0.0000 C   0  0  0  0  0  0  0  0  0  0  0  0
    6.1797   -3.4029    0.0000 C   0  0  0  0  0  0  0  0  0  0  0  0
    6.7031   -4.8087    0.0000 C   0  0  0  0  0  0  0  0  0  0  0  0
    8.1822   -5.0583    0.0000 O   0  0  0  0  0  0  0  0  0  0  0  0
    3.1305    1.0639    0.0000 C   0  0  0  0  0  0  0  0  0  0  0  0
    2.6071    2.4696    0.0000 C   0  0  0  0  0  0  0  0  0  0  0  0
    3.5628    3.6257    0.0000 C   0  0  0  0  0  0  0  0  0  0  0  0
    3.0394    5.0314    0.0000 C   0  0  0  0  0  0  0  0  0  0  0  0
    3.9951    6.1876    0.0000 O   0  0  0  0  0  0  0  0  0  0  0  0
    1.5603    5.2810    0.0000 C   0  0  0  0  0  0  0  0  0  0  0  0
    0.6046    4.1249    0.0000 C   0  0  0  0  0  0  0  0  0  0  0  0
    1.1280    2.7192    0.0000 C   0  0  0  0  0  0  0  0  0  0  0  0
   -0.3511    2.9688    0.0000 C   0  0  0  0  0  0  0  0  0  0  0  0
    0.1723    1.5631    0.0000 C   0  0  0  0  0  0  0  0  0  0  0  0
   -1.3068    1.8127    0.0000 C   0  0  0  0  0  0  0  0  0  0  0  0
   -2.2625    0.6566    0.0000 C   0  0  0  0  0  0  0  0  0  0  0  0
   -1.7391   -0.7492    0.0000 C   0  0  0  0  0  0  0  0  0  0  0  0
   -3.2362   -0.6555    0.0000 C   0  0  0  0  0  0  0  0  0  0  0  0
  2  1  1  6
  2  3  1  0
  3  4  1  0
  4  5  1  0
  5  6  2  0
  5  7  1  0
  2  8  1  0
  8  9  1  6
  9 10  1  0
 11 10  1  6
 11 12  1  0
 12 13  1  1
 13 14  1  6
 14 15  1  0
 15 16  1  0
 16 17  1  0
 17 18  1  0
 18 19  1  0
 13 20  1  0
 21 20  1  1
 21 22  1  0
 22 23  1  0
 23 24  1  1
 23 25  1  0
 25 26  1  0
 26 27  1  0
 27 28  1  6
 27 29  1  0
 29 30  1  6
 30 31  1  0
 31 32  1  0
 32 33  1  6
 32  8  1  0
 32 11  1  0
 29 12  1  0
 27 21  1  0
M  END
>  <MS_ID>  (1923) 
MS1994

>  <SMILES>  (1923) 
C[C@H](CCC(=O)O)[C@H]1CC[C@H]2[C@@H]3[C@@H](OCCCCO)C[C@@H]4C[C@H](O)CC[C@]4(C)[C@H]3CC[C@]12C

>  <Structure_dimension>  (1923) 
2D

$$$$
MS1995
     RDKit          2D

 33 36  0  0  0  0  0  0  0  0999 V2000
   -2.6051   -3.9297    0.0000 C   0  0  0  0  0  0  0  0  0  0  0  0
   -1.7943   -2.6677    0.0000 C   0  0  0  0  0  0  0  0  0  0  0  0
   -2.4819   -1.3345    0.0000 C   0  0  0  0  0  0  0  0  0  0  0  0
   -3.9802   -1.2634    0.0000 C   0  0  0  0  0  0  0  0  0  0  0  0
   -4.6677    0.0698    0.0000 C   0  0  0  0  0  0  0  0  0  0  0  0
   -3.8569    1.3318    0.0000 O   0  0  0  0  0  0  0  0  0  0  0  0
   -6.1660    0.1409    0.0000 N   0  0  0  0  0  0  0  0  0  0  0  0
   -6.8536    1.4741    0.0000 C   0  0  0  0  0  0  0  0  0  0  0  0
   -8.3519    1.5453    0.0000 C   0  0  0  0  0  0  0  0  0  0  0  0
   -9.1627    0.2833    0.0000 O   0  0  0  0  0  0  0  0  0  0  0  0
   -9.0394    2.8784    0.0000 N   0  0  0  0  0  0  0  0  0  0  0  0
  -10.5377    2.9496    0.0000 O   0  0  0  0  0  0  0  0  0  0  0  0
   -0.2960   -2.7388    0.0000 C   0  0  0  0  0  0  0  0  0  0  0  0
    0.5271   -3.9928    0.0000 C   0  0  0  0  0  0  0  0  0  0  0  0
    1.9741   -3.5975    0.0000 C   0  0  0  0  0  0  0  0  0  0  0  0
    2.0452   -2.0992    0.0000 C   0  0  0  0  0  0  0  0  0  0  0  0
    3.2063   -1.1495    0.0000 C   0  0  0  0  0  0  0  0  0  0  0  0
    4.6093   -1.6802    0.0000 C   0  0  0  0  0  0  0  0  0  0  0  0
    4.8512   -3.1605    0.0000 O   0  0  0  0  0  0  0  0  0  0  0  0
    5.7704   -0.7305    0.0000 C   0  0  0  0  0  0  0  0  0  0  0  0
    5.5284    0.7499    0.0000 C   0  0  0  0  0  0  0  0  0  0  0  0
    6.6895    1.6996    0.0000 C   0  0  0  0  0  0  0  0  0  0  0  0
    6.4476    3.1800    0.0000 C   0  0  0  0  0  0  0  0  0  0  0  0
    7.6087    4.1296    0.0000 O   0  0  0  0  0  0  0  0  0  0  0  0
    5.0446    3.7106    0.0000 C   0  0  0  0  0  0  0  0  0  0  0  0
    3.8835    2.7609    0.0000 C   0  0  0  0  0  0  0  0  0  0  0  0
    4.1254    1.2806    0.0000 C   0  0  0  0  0  0  0  0  0  0  0  0
    2.7225    1.8113    0.0000 C   0  0  0  0  0  0  0  0  0  0  0  0
    2.9644    0.3309    0.0000 C   0  0  0  0  0  0  0  0  0  0  0  0
    1.5614    0.8616    0.0000 C   0  0  0  0  0  0  0  0  0  0  0  0
    0.4003   -0.0881    0.0000 C   0  0  0  0  0  0  0  0  0  0  0  0
    0.6422   -1.5685    0.0000 C   0  0  0  0  0  0  0  0  0  0  0  0
   -0.8086   -1.1874    0.0000 C   0  0  0  0  0  0  0  0  0  0  0  0
  2  1  1  6
  2  3  1  0
  3  4  1  0
  4  5  1  0
  5  6  2  0
  5  7  1  0
  7  8  1  0
  8  9  1  0
  9 10  2  0
  9 11  1  0
 11 12  1  0
  2 13  1  0
 13 14  1  6
 14 15  1  0
 16 15  1  6
 16 17  1  0
 17 18  1  1
 18 19  1  6
 18 20  1  0
 21 20  1  1
 21 22  1  0
 22 23  1  0
 23 24  1  1
 23 25  1  0
 25 26  1  0
 26 27  1  0
 27 28  1  6
 27 29  1  0
 29 30  1  6
 30 31  1  0
 31 32  1  0
 32 33  1  6
 32 13  1  0
 32 16  1  0
 29 17  1  0
 27 21  1  0
M  END
>  <MS_ID>  (1924) 
MS1995

>  <SMILES>  (1924) 
C[C@H](CCC(=O)NCC(=O)NO)[C@H]1CC[C@H]2[C@@H]3[C@@H](O)C[C@@H]4C[C@H](O)CC[C@]4(C)[C@H]3CC[C@]12C

>  <Structure_dimension>  (1924) 
2D

$$$$
MS1996
     RDKit          2D

 35 39  0  0  0  0  0  0  0  0999 V2000
   -1.8808   -4.0339    0.0000 C   0  0  0  0  0  0  0  0  0  0  0  0
   -1.1003   -2.7530    0.0000 C   0  0  0  0  0  0  0  0  0  0  0  0
   -1.8193   -1.4366    0.0000 C   0  0  0  0  0  0  0  0  0  0  0  0
   -3.3189   -1.4011    0.0000 C   0  0  0  0  0  0  0  0  0  0  0  0
   -4.0380   -0.0847    0.0000 C   0  0  0  0  0  0  0  0  0  0  0  0
   -3.2575    1.1962    0.0000 O   0  0  0  0  0  0  0  0  0  0  0  0
   -5.5376   -0.0492    0.0000 C   0  0  0  0  0  0  0  0  0  0  0  0
   -6.2567    1.2672    0.0000 O   0  0  0  0  0  0  0  0  0  0  0  0
   -7.7562    1.3026    0.0000 C   0  0  0  0  0  0  0  0  0  0  0  0
   -8.4753    2.6190    0.0000 C   0  0  0  0  0  0  0  0  0  0  0  0
   -9.9749    2.6545    0.0000 C   0  0  0  0  0  0  0  0  0  0  0  0
  -10.7554    1.3735    0.0000 C   0  0  0  0  0  0  0  0  0  0  0  0
  -10.0363    0.0571    0.0000 C   0  0  0  0  0  0  0  0  0  0  0  0
   -8.5367    0.0217    0.0000 C   0  0  0  0  0  0  0  0  0  0  0  0
    0.3993   -2.7884    0.0000 C   0  0  0  0  0  0  0  0  0  0  0  0
    1.2521   -4.0225    0.0000 C   0  0  0  0  0  0  0  0  0  0  0  0
    2.6892   -3.5928    0.0000 C   0  0  0  0  0  0  0  0  0  0  0  0
    2.7247   -2.0932    0.0000 C   0  0  0  0  0  0  0  0  0  0  0  0
    3.8628   -1.1162    0.0000 C   0  0  0  0  0  0  0  0  0  0  0  0
    5.2780   -1.6133    0.0000 C   0  0  0  0  0  0  0  0  0  0  0  0
    5.5551   -3.0875    0.0000 O   0  0  0  0  0  0  0  0  0  0  0  0
    6.4162   -0.6362    0.0000 C   0  0  0  0  0  0  0  0  0  0  0  0
    6.1391    0.8380    0.0000 C   0  0  0  0  0  0  0  0  0  0  0  0
    7.2772    1.8150    0.0000 C   0  0  0  0  0  0  0  0  0  0  0  0
    7.0001    3.2892    0.0000 C   0  0  0  0  0  0  0  0  0  0  0  0
    8.1382    4.2663    0.0000 O   0  0  0  0  0  0  0  0  0  0  0  0
    5.5849    3.7863    0.0000 C   0  0  0  0  0  0  0  0  0  0  0  0
    4.4467    2.8093    0.0000 C   0  0  0  0  0  0  0  0  0  0  0  0
    4.7238    1.3351    0.0000 C   0  0  0  0  0  0  0  0  0  0  0  0
    3.3086    1.8322    0.0000 C   0  0  0  0  0  0  0  0  0  0  0  0
    3.5857    0.3580    0.0000 C   0  0  0  0  0  0  0  0  0  0  0  0
    2.1705    0.8551    0.0000 C   0  0  0  0  0  0  0  0  0  0  0  0
    1.0323   -0.1219    0.0000 C   0  0  0  0  0  0  0  0  0  0  0  0
    1.3094   -1.5961    0.0000 C   0  0  0  0  0  0  0  0  0  0  0  0
   -0.1500   -1.2496    0.0000 C   0  0  0  0  0  0  0  0  0  0  0  0
  2  1  1  6
  2  3  1  0
  3  4  1  0
  4  5  1  0
  5  6  2  0
  5  7  1  0
  7  8  1  0
  8  9  1  0
  9 10  2  0
 10 11  1  0
 11 12  2  0
 12 13  1  0
 13 14  2  0
  2 15  1  0
 15 16  1  6
 16 17  1  0
 18 17  1  6
 18 19  1  0
 19 20  1  1
 20 21  1  1
 20 22  1  0
 23 22  1  1
 23 24  1  0
 24 25  1  0
 25 26  1  1
 25 27  1  0
 27 28  1  0
 28 29  1  0
 29 30  1  6
 29 31  1  0
 31 32  1  6
 32 33  1  0
 33 34  1  0
 34 35  1  6
 14  9  1  0
 34 15  1  0
 34 18  1  0
 31 19  1  0
 29 23  1  0
M  END
>  <MS_ID>  (1925) 
MS1996

>  <SMILES>  (1925) 
C[C@H](CCC(=O)COc1ccccc1)[C@H]1CC[C@H]2[C@@H]3[C@H](O)C[C@@H]4C[C@H](O)CC[C@]4(C)[C@H]3CC[C@]12C

>  <Structure_dimension>  (1925) 
2D

$$$$
MS1997
     RDKit          2D

 34 37  0  0  0  0  0  0  0  0999 V2000
   -2.4676   -4.1641    0.0000 C   0  0  0  0  0  0  0  0  0  0  0  0
   -1.7000   -2.8754    0.0000 C   0  0  0  0  0  0  0  0  0  0  0  0
   -2.4324   -1.5663    0.0000 C   0  0  0  0  0  0  0  0  0  0  0  0
   -3.9322   -1.5459    0.0000 C   0  0  0  0  0  0  0  0  0  0  0  0
   -4.6645   -0.2368    0.0000 C   0  0  0  0  0  0  0  0  0  0  0  0
   -3.8970    1.0519    0.0000 O   0  0  0  0  0  0  0  0  0  0  0  0
   -6.1644   -0.2165    0.0000 O   0  0  0  0  0  0  0  0  0  0  0  0
   -6.8967    1.0926    0.0000 C   0  0  0  0  0  0  0  0  0  0  0  0
   -8.2058    0.3603    0.0000 C   0  0  0  0  0  0  0  0  0  0  0  0
   -5.5876    1.8249    0.0000 C   0  0  0  0  0  0  0  0  0  0  0  0
   -7.6290    2.4017    0.0000 C   0  0  0  0  0  0  0  0  0  0  0  0
   -9.1289    2.4220    0.0000 O   0  0  0  0  0  0  0  0  0  0  0  0
   -6.8615    3.6904    0.0000 O   0  0  0  0  0  0  0  0  0  0  0  0
   -0.2002   -2.8957    0.0000 C   0  0  0  0  0  0  0  0  0  0  0  0
    0.6650   -4.1211    0.0000 C   0  0  0  0  0  0  0  0  0  0  0  0
    2.0977   -3.6769    0.0000 C   0  0  0  0  0  0  0  0  0  0  0  0
    2.1180   -2.1771    0.0000 C   0  0  0  0  0  0  0  0  0  0  0  0
    3.2463   -1.1886    0.0000 C   0  0  0  0  0  0  0  0  0  0  0  0
    4.6664   -1.6714    0.0000 C   0  0  0  0  0  0  0  0  0  0  0  0
    4.9584   -3.1427    0.0000 O   0  0  0  0  0  0  0  0  0  0  0  0
    5.7947   -0.6829    0.0000 C   0  0  0  0  0  0  0  0  0  0  0  0
    5.5027    0.7884    0.0000 C   0  0  0  0  0  0  0  0  0  0  0  0
    6.6309    1.7769    0.0000 C   0  0  0  0  0  0  0  0  0  0  0  0
    6.3390    3.2482    0.0000 C   0  0  0  0  0  0  0  0  0  0  0  0
    7.4672    4.2367    0.0000 O   0  0  0  0  0  0  0  0  0  0  0  0
    4.9188    3.7310    0.0000 C   0  0  0  0  0  0  0  0  0  0  0  0
    3.7906    2.7425    0.0000 C   0  0  0  0  0  0  0  0  0  0  0  0
    4.0825    1.2712    0.0000 C   0  0  0  0  0  0  0  0  0  0  0  0
    2.6624    1.7540    0.0000 C   0  0  0  0  0  0  0  0  0  0  0  0
    2.9543    0.2827    0.0000 C   0  0  0  0  0  0  0  0  0  0  0  0
    1.5342    0.7656    0.0000 C   0  0  0  0  0  0  0  0  0  0  0  0
    0.4059   -0.2229    0.0000 C   0  0  0  0  0  0  0  0  0  0  0  0
    0.6979   -1.6942    0.0000 C   0  0  0  0  0  0  0  0  0  0  0  0
   -0.7650   -1.3625    0.0000 C   0  0  0  0  0  0  0  0  0  0  0  0
  2  1  1  6
  2  3  1  0
  3  4  1  0
  4  5  1  0
  5  6  2  0
  5  7  1  0
  7  8  1  0
  8  9  1  0
  8 10  1  0
  8 11  1  0
 11 12  2  0
 11 13  1  0
  2 14  1  0
 14 15  1  6
 15 16  1  0
 17 16  1  6
 17 18  1  0
 18 19  1  1
 19 20  1  1
 19 21  1  0
 22 21  1  1
 22 23  1  0
 23 24  1  0
 24 25  1  1
 24 26  1  0
 26 27  1  0
 27 28  1  0
 28 29  1  6
 28 30  1  0
 30 31  1  6
 31 32  1  0
 32 33  1  0
 33 34  1  6
 33 14  1  0
 33 17  1  0
 30 18  1  0
 28 22  1  0
M  END
>  <MS_ID>  (1926) 
MS1997

>  <SMILES>  (1926) 
C[C@H](CCC(=O)OC(C)(C)C(=O)O)[C@H]1CC[C@H]2[C@@H]3[C@H](O)C[C@@H]4C[C@H](O)CC[C@]4(C)[C@H]3CC[C@]12C

>  <Structure_dimension>  (1926) 
2D

$$$$
MS1998
     RDKit          2D

 33 36  0  0  0  0  0  0  0  0999 V2000
   -8.2061    4.1653    0.0000 C   0  0  0  0  0  0  0  0  0  0  0  0
   -7.9869    2.6814    0.0000 C   0  0  0  0  0  0  0  0  0  0  0  0
   -6.5922    2.1293    0.0000 C   0  0  0  0  0  0  0  0  0  0  0  0
   -5.4167    3.0610    0.0000 O   0  0  0  0  0  0  0  0  0  0  0  0
   -6.3730    0.6454    0.0000 C   0  0  0  0  0  0  0  0  0  0  0  0
   -4.9784    0.0932    0.0000 C   0  0  0  0  0  0  0  0  0  0  0  0
   -4.7592   -1.3907    0.0000 C   0  0  0  0  0  0  0  0  0  0  0  0
   -5.9347   -2.3224    0.0000 C   0  0  0  0  0  0  0  0  0  0  0  0
   -3.3645   -1.9428    0.0000 C   0  0  0  0  0  0  0  0  0  0  0  0
   -2.9914   -3.3957    0.0000 C   0  0  0  0  0  0  0  0  0  0  0  0
   -1.4944   -3.4898    0.0000 C   0  0  0  0  0  0  0  0  0  0  0  0
   -0.9422   -2.0951    0.0000 C   0  0  0  0  0  0  0  0  0  0  0  0
    0.4637   -1.5722    0.0000 C   0  0  0  0  0  0  0  0  0  0  0  0
    1.6195   -2.5283    0.0000 C   0  0  0  0  0  0  0  0  0  0  0  0
    1.3694   -4.0073    0.0000 O   0  0  0  0  0  0  0  0  0  0  0  0
    3.0254   -2.0054    0.0000 C   0  0  0  0  0  0  0  0  0  0  0  0
    3.2755   -0.5264    0.0000 C   0  0  0  0  0  0  0  0  0  0  0  0
    4.6814   -0.0035    0.0000 C   0  0  0  0  0  0  0  0  0  0  0  0
    4.9315    1.4755    0.0000 C   0  0  0  0  0  0  0  0  0  0  0  0
    6.3374    1.9984    0.0000 O   0  0  0  0  0  0  0  0  0  0  0  0
    7.4932    1.0423    0.0000 S   0  0  0  0  0  0  0  0  0  0  0  0
    6.5371   -0.1135    0.0000 O   0  0  0  0  0  0  0  0  0  0  0  0
    8.4493    2.1981    0.0000 O   0  0  0  0  0  0  0  0  0  0  0  0
    8.6490    0.0862    0.0000 O   0  0  0  0  0  0  0  0  0  0  0  0
    3.7757    2.4316    0.0000 C   0  0  0  0  0  0  0  0  0  0  0  0
    2.3698    1.9087    0.0000 C   0  0  0  0  0  0  0  0  0  0  0  0
    2.1197    0.4297    0.0000 C   0  0  0  0  0  0  0  0  0  0  0  0
    0.9639    1.3858    0.0000 C   0  0  0  0  0  0  0  0  0  0  0  0
    0.7138   -0.0932    0.0000 C   0  0  0  0  0  0  0  0  0  0  0  0
   -0.4420    0.8629    0.0000 C   0  0  0  0  0  0  0  0  0  0  0  0
   -1.8479    0.3400    0.0000 C   0  0  0  0  0  0  0  0  0  0  0  0
   -2.0980   -1.1390    0.0000 C   0  0  0  0  0  0  0  0  0  0  0  0
   -3.3474   -0.3090    0.0000 C   0  0  0  0  0  0  0  0  0  0  0  0
  1  2  1  0
  2  3  1  0
  3  4  2  0
  3  5  1  0
  5  6  1  0
  6  7  1  0
  7  8  1  6
  7  9  1  0
  9 10  1  6
 10 11  1  0
 12 11  1  6
 12 13  1  0
 13 14  1  1
 14 15  1  1
 14 16  1  0
 17 16  1  1
 17 18  1  0
 18 19  1  0
 19 20  1  1
 20 21  1  0
 21 22  2  0
 21 23  2  0
 21 24  1  0
 19 25  1  0
 25 26  1  0
 26 27  1  0
 27 28  1  6
 27 29  1  0
 29 30  1  6
 30 31  1  0
 31 32  1  0
 32 33  1  6
 32  9  1  0
 32 12  1  0
 29 13  1  0
 27 17  1  0
M  END
>  <MS_ID>  (1927) 
MS1998

>  <SMILES>  (1927) 
CCC(=O)CC[C@@H](C)[C@H]1CC[C@H]2[C@@H]3[C@H](O)C[C@@H]4C[C@H](OS(=O)(=O)O)CC[C@]4(C)[C@H]3CC[C@]12C

>  <Structure_dimension>  (1927) 
2D

$$$$
MS1999
     RDKit          2D

 40 45  0  0  0  0  0  0  0  0999 V2000
   -0.1309   -4.7151    0.0000 C   0  0  0  0  0  0  0  0  0  0  0  0
    0.4196   -3.3198    0.0000 C   0  0  0  0  0  0  0  0  0  0  0  0
   -0.5135   -2.1454    0.0000 C   0  0  0  0  0  0  0  0  0  0  0  0
   -1.9972   -2.3663    0.0000 C   0  0  0  0  0  0  0  0  0  0  0  0
   -2.9303   -1.1919    0.0000 C   0  0  0  0  0  0  0  0  0  0  0  0
   -2.3798    0.2035    0.0000 O   0  0  0  0  0  0  0  0  0  0  0  0
   -4.4140   -1.4128    0.0000 N   0  0  0  0  0  0  0  0  0  0  0  0
   -5.3471   -0.2384    0.0000 C   0  0  0  0  0  0  0  0  0  0  0  0
   -6.8308   -0.4593    0.0000 C   0  0  0  0  0  0  0  0  0  0  0  0
   -7.7639    0.7151    0.0000 C   0  0  0  0  0  0  0  0  0  0  0  0
   -7.3623    2.1603    0.0000 C   0  0  0  0  0  0  0  0  0  0  0  0
   -8.6127    2.9889    0.0000 N   0  0  0  0  0  0  0  0  0  0  0  0
   -9.7871    2.0558    0.0000 C   0  0  0  0  0  0  0  0  0  0  0  0
  -11.2664    2.3041    0.0000 C   0  0  0  0  0  0  0  0  0  0  0  0
  -12.2211    1.1472    0.0000 C   0  0  0  0  0  0  0  0  0  0  0  0
  -11.6965   -0.2581    0.0000 C   0  0  0  0  0  0  0  0  0  0  0  0
  -10.2173   -0.5064    0.0000 C   0  0  0  0  0  0  0  0  0  0  0  0
   -9.2625    0.6505    0.0000 C   0  0  0  0  0  0  0  0  0  0  0  0
    1.9032   -3.0988    0.0000 C   0  0  0  0  0  0  0  0  0  0  0  0
    2.9540   -4.1693    0.0000 C   0  0  0  0  0  0  0  0  0  0  0  0
    4.2968   -3.5007    0.0000 C   0  0  0  0  0  0  0  0  0  0  0  0
    4.0759   -2.0171    0.0000 C   0  0  0  0  0  0  0  0  0  0  0  0
    5.0306   -0.8601    0.0000 C   0  0  0  0  0  0  0  0  0  0  0  0
    6.5099   -1.1085    0.0000 C   0  0  0  0  0  0  0  0  0  0  0  0
    7.0345   -2.5138    0.0000 O   0  0  0  0  0  0  0  0  0  0  0  0
    7.4646    0.0484    0.0000 C   0  0  0  0  0  0  0  0  0  0  0  0
    8.9439   -0.1999    0.0000 O   0  0  0  0  0  0  0  0  0  0  0  0
    6.9401    1.4537    0.0000 C   0  0  0  0  0  0  0  0  0  0  0  0
    7.8948    2.6107    0.0000 C   0  0  0  0  0  0  0  0  0  0  0  0
    7.3702    4.0159    0.0000 C   0  0  0  0  0  0  0  0  0  0  0  0
    8.3250    5.1729    0.0000 O   0  0  0  0  0  0  0  0  0  0  0  0
    5.8909    4.2643    0.0000 C   0  0  0  0  0  0  0  0  0  0  0  0
    4.9362    3.1074    0.0000 C   0  0  0  0  0  0  0  0  0  0  0  0
    5.4608    1.7021    0.0000 C   0  0  0  0  0  0  0  0  0  0  0  0
    3.9815    1.9505    0.0000 C   0  0  0  0  0  0  0  0  0  0  0  0
    4.5060    0.5452    0.0000 C   0  0  0  0  0  0  0  0  0  0  0  0
    3.0267    0.7935    0.0000 C   0  0  0  0  0  0  0  0  0  0  0  0
    2.0720   -0.3634    0.0000 C   0  0  0  0  0  0  0  0  0  0  0  0
    2.5966   -1.7687    0.0000 C   0  0  0  0  0  0  0  0  0  0  0  0
    1.0994   -1.6763    0.0000 C   0  0  0  0  0  0  0  0  0  0  0  0
  2  1  1  6
  2  3  1  0
  3  4  1  0
  4  5  1  0
  5  6  2  0
  5  7  1  0
  7  8  1  0
  8  9  1  0
  9 10  1  0
 10 11  2  0
 11 12  1  0
 12 13  1  0
 13 14  2  0
 14 15  1  0
 15 16  2  0
 16 17  1  0
 17 18  2  0
  2 19  1  0
 19 20  1  6
 20 21  1  0
 22 21  1  6
 22 23  1  0
 23 24  1  1
 24 25  1  1
 24 26  1  0
 26 27  1  1
 26 28  1  0
 28 29  1  1
 29 30  1  0
 30 31  1  1
 30 32  1  0
 32 33  1  0
 33 34  1  0
 34 35  1  6
 34 36  1  0
 36 37  1  6
 37 38  1  0
 38 39  1  0
 39 40  1  6
 18 10  1  0
 39 19  1  0
 18 13  1  0
 39 22  1  0
 36 23  1  0
 34 28  1  0
M  END
>  <MS_ID>  (1928) 
MS1999

>  <SMILES>  (1928) 
C[C@H](CCC(=O)NCCc1c[nH]c2ccccc12)[C@H]1CC[C@H]2[C@@H]3[C@H](O)[C@H](O)[C@@H]4C[C@H](O)CC[C@]4(C)[C@H]3CC[C@]12C

>  <Structure_dimension>  (1928) 
2D

$$$$
MS2000
     RDKit          2D

 40 44  0  0  0  0  0  0  0  0999 V2000
   -0.2521   -4.9208    0.0000 C   0  0  0  0  0  0  0  0  0  0  0  0
    0.2369   -3.5028    0.0000 C   0  0  0  0  0  0  0  0  0  0  0  0
   -0.7466   -2.3702    0.0000 C   0  0  0  0  0  0  0  0  0  0  0  0
   -2.2192   -2.6557    0.0000 C   0  0  0  0  0  0  0  0  0  0  0  0
   -3.2027   -1.5232    0.0000 C   0  0  0  0  0  0  0  0  0  0  0  0
   -2.7137   -0.1051    0.0000 O   0  0  0  0  0  0  0  0  0  0  0  0
   -4.6753   -1.8087    0.0000 N   0  0  0  0  0  0  0  0  0  0  0  0
   -5.6588   -0.6761    0.0000 S   0  0  0  0  0  0  0  0  0  0  0  0
   -4.5263    0.3074    0.0000 O   0  0  0  0  0  0  0  0  0  0  0  0
   -6.7914   -1.6597    0.0000 O   0  0  0  0  0  0  0  0  0  0  0  0
   -6.6424    0.4564    0.0000 C   0  0  0  0  0  0  0  0  0  0  0  0
   -6.1533    1.8744    0.0000 C   0  0  0  0  0  0  0  0  0  0  0  0
   -7.1369    3.0070    0.0000 C   0  0  0  0  0  0  0  0  0  0  0  0
   -8.6095    2.7215    0.0000 C   0  0  0  0  0  0  0  0  0  0  0  0
   -9.5930    3.8540    0.0000 F   0  0  0  0  0  0  0  0  0  0  0  0
   -9.0985    1.3034    0.0000 C   0  0  0  0  0  0  0  0  0  0  0  0
  -10.5711    1.0179    0.0000 F   0  0  0  0  0  0  0  0  0  0  0  0
   -8.1150    0.1709    0.0000 C   0  0  0  0  0  0  0  0  0  0  0  0
    1.7095   -3.2173    0.0000 C   0  0  0  0  0  0  0  0  0  0  0  0
    2.8060   -4.2408    0.0000 C   0  0  0  0  0  0  0  0  0  0  0  0
    4.1183   -3.5142    0.0000 C   0  0  0  0  0  0  0  0  0  0  0  0
    3.8328   -2.0416    0.0000 C   0  0  0  0  0  0  0  0  0  0  0  0
    4.7361   -0.8441    0.0000 C   0  0  0  0  0  0  0  0  0  0  0  0
    6.2249   -1.0277    0.0000 C   0  0  0  0  0  0  0  0  0  0  0  0
    6.8103   -2.4087    0.0000 O   0  0  0  0  0  0  0  0  0  0  0  0
    7.1282    0.1699    0.0000 C   0  0  0  0  0  0  0  0  0  0  0  0
    6.5427    1.5509    0.0000 C   0  0  0  0  0  0  0  0  0  0  0  0
    7.4460    2.7484    0.0000 C   0  0  0  0  0  0  0  0  0  0  0  0
    6.8606    4.1295    0.0000 C   0  0  0  0  0  0  0  0  0  0  0  0
    7.7639    5.3270    0.0000 O   0  0  0  0  0  0  0  0  0  0  0  0
    5.3719    4.3130    0.0000 C   0  0  0  0  0  0  0  0  0  0  0  0
    4.4686    3.1155    0.0000 C   0  0  0  0  0  0  0  0  0  0  0  0
    5.0540    1.7344    0.0000 C   0  0  0  0  0  0  0  0  0  0  0  0
    3.5653    1.9180    0.0000 C   0  0  0  0  0  0  0  0  0  0  0  0
    4.1507    0.5369    0.0000 C   0  0  0  0  0  0  0  0  0  0  0  0
    2.6620    0.7204    0.0000 C   0  0  0  0  0  0  0  0  0  0  0  0
    1.7587   -0.4771    0.0000 C   0  0  0  0  0  0  0  0  0  0  0  0
    0.2699   -0.2936    0.0000 O   0  0  0  0  0  0  0  0  0  0  0  0
    2.3441   -1.8581    0.0000 C   0  0  0  0  0  0  0  0  0  0  0  0
    0.8443   -1.8312    0.0000 C   0  0  0  0  0  0  0  0  0  0  0  0
  2  1  1  6
  2  3  1  0
  3  4  1  0
  4  5  1  0
  5  6  2  0
  5  7  1  0
  7  8  1  0
  8  9  2  0
  8 10  2  0
  8 11  1  0
 11 12  2  0
 12 13  1  0
 13 14  2  0
 14 15  1  0
 14 16  1  0
 16 17  1  0
 16 18  2  0
  2 19  1  0
 19 20  1  6
 20 21  1  0
 22 21  1  6
 22 23  1  0
 23 24  1  1
 24 25  1  1
 24 26  1  0
 27 26  1  1
 27 28  1  0
 28 29  1  0
 29 30  1  1
 29 31  1  0
 31 32  1  0
 32 33  1  0
 33 34  1  6
 33 35  1  0
 35 36  1  6
 36 37  1  0
 37 38  1  1
 37 39  1  0
 39 40  1  6
 18 11  1  0
 39 19  1  0
 39 22  1  0
 35 23  1  0
 33 27  1  0
M  END
>  <MS_ID>  (1929) 
MS2000

>  <SMILES>  (1929) 
C[C@H](CCC(=O)NS(=O)(=O)c1ccc(F)c(F)c1)[C@H]1CC[C@H]2[C@@H]3[C@H](O)C[C@@H]4C[C@H](O)CC[C@]4(C)[C@H]3C[C@H](O)[C@]12C

>  <Structure_dimension>  (1929) 
2D

$$$$
MS2001
     RDKit          2D

 41 46  0  0  0  0  0  0  0  0999 V2000
    0.3234   -4.6870    0.0000 C   0  0  0  0  0  0  0  0  0  0  0  0
    0.8911   -3.2986    0.0000 C   0  0  0  0  0  0  0  0  0  0  0  0
   -0.0274   -2.1127    0.0000 C   0  0  0  0  0  0  0  0  0  0  0  0
   -1.5137   -2.3153    0.0000 C   0  0  0  0  0  0  0  0  0  0  0  0
   -2.4322   -1.1294    0.0000 C   0  0  0  0  0  0  0  0  0  0  0  0
   -1.8645    0.2590    0.0000 O   0  0  0  0  0  0  0  0  0  0  0  0
   -3.9185   -1.3320    0.0000 N   0  0  0  0  0  0  0  0  0  0  0  0
   -4.8370   -0.1462    0.0000 C   0  0  0  0  0  0  0  0  0  0  0  0
   -6.3233   -0.3487    0.0000 C   0  0  0  0  0  0  0  0  0  0  0  0
   -7.2419    0.8371    0.0000 C   0  0  0  0  0  0  0  0  0  0  0  0
   -6.8224    2.2773    0.0000 C   0  0  0  0  0  0  0  0  0  0  0  0
   -8.0624    3.1213    0.0000 N   0  0  0  0  0  0  0  0  0  0  0  0
   -9.2483    2.2027    0.0000 C   0  0  0  0  0  0  0  0  0  0  0  0
  -10.7244    2.4693    0.0000 C   0  0  0  0  0  0  0  0  0  0  0  0
  -11.6934    1.3243    0.0000 C   0  0  0  0  0  0  0  0  0  0  0  0
  -11.1862   -0.0874    0.0000 C   0  0  0  0  0  0  0  0  0  0  0  0
  -12.1552   -1.2324    0.0000 Cl  0  0  0  0  0  0  0  0  0  0  0  0
   -9.7101   -0.3540    0.0000 C   0  0  0  0  0  0  0  0  0  0  0  0
   -8.7411    0.7910    0.0000 C   0  0  0  0  0  0  0  0  0  0  0  0
    2.3774   -3.0960    0.0000 C   0  0  0  0  0  0  0  0  0  0  0  0
    3.4149   -4.1794    0.0000 C   0  0  0  0  0  0  0  0  0  0  0  0
    4.7658   -3.5274    0.0000 C   0  0  0  0  0  0  0  0  0  0  0  0
    4.5632   -2.0412    0.0000 C   0  0  0  0  0  0  0  0  0  0  0  0
    5.5322   -0.8961    0.0000 C   0  0  0  0  0  0  0  0  0  0  0  0
    7.0083   -1.1628    0.0000 C   0  0  0  0  0  0  0  0  0  0  0  0
    7.5155   -2.5744    0.0000 O   0  0  0  0  0  0  0  0  0  0  0  0
    7.9773   -0.0177    0.0000 C   0  0  0  0  0  0  0  0  0  0  0  0
    7.4701    1.3939    0.0000 C   0  0  0  0  0  0  0  0  0  0  0  0
    8.4391    2.5390    0.0000 C   0  0  0  0  0  0  0  0  0  0  0  0
    7.9319    3.9506    0.0000 C   0  0  0  0  0  0  0  0  0  0  0  0
    8.9009    5.0957    0.0000 O   0  0  0  0  0  0  0  0  0  0  0  0
    6.4558    4.2173    0.0000 C   0  0  0  0  0  0  0  0  0  0  0  0
    5.4869    3.0722    0.0000 C   0  0  0  0  0  0  0  0  0  0  0  0
    5.9940    1.6606    0.0000 C   0  0  0  0  0  0  0  0  0  0  0  0
    4.5179    1.9272    0.0000 C   0  0  0  0  0  0  0  0  0  0  0  0
    5.0251    0.5155    0.0000 C   0  0  0  0  0  0  0  0  0  0  0  0
    3.5489    0.7822    0.0000 C   0  0  0  0  0  0  0  0  0  0  0  0
    2.5800   -0.3629    0.0000 C   0  0  0  0  0  0  0  0  0  0  0  0
    1.1039   -0.0963    0.0000 O   0  0  0  0  0  0  0  0  0  0  0  0
    3.0871   -1.7745    0.0000 C   0  0  0  0  0  0  0  0  0  0  0  0
    1.5912   -1.6637    0.0000 C   0  0  0  0  0  0  0  0  0  0  0  0
  2  1  1  6
  2  3  1  0
  3  4  1  0
  4  5  1  0
  5  6  2  0
  5  7  1  0
  7  8  1  0
  8  9  1  0
  9 10  1  0
 10 11  2  0
 11 12  1  0
 12 13  1  0
 13 14  2  0
 14 15  1  0
 15 16  2  0
 16 17  1  0
 16 18  1  0
 18 19  2  0
  2 20  1  0
 20 21  1  6
 21 22  1  0
 23 22  1  6
 23 24  1  0
 24 25  1  1
 25 26  1  1
 25 27  1  0
 28 27  1  1
 28 29  1  0
 29 30  1  0
 30 31  1  1
 30 32  1  0
 32 33  1  0
 33 34  1  0
 34 35  1  6
 34 36  1  0
 36 37  1  6
 37 38  1  0
 38 39  1  1
 38 40  1  0
 40 41  1  6
 19 10  1  0
 40 20  1  0
 19 13  1  0
 40 23  1  0
 36 24  1  0
 34 28  1  0
M  END
>  <MS_ID>  (1930) 
MS2001

>  <SMILES>  (1930) 
C[C@H](CCC(=O)NCCc1c[nH]c2ccc(Cl)cc12)[C@H]1CC[C@H]2[C@@H]3[C@H](O)C[C@@H]4C[C@H](O)CC[C@]4(C)[C@H]3C[C@H](O)[C@]12C

>  <Structure_dimension>  (1930) 
2D

$$$$
MS2002
     RDKit          2D

 37 41  0  0  0  0  0  0  0  0999 V2000
   -2.1050   -3.2502    0.0000 C   0  0  0  0  0  0  0  0  0  0  0  0
   -1.1335   -2.1074    0.0000 C   0  0  0  0  0  0  0  0  0  0  0  0
   -1.6374   -0.6946    0.0000 C   0  0  0  0  0  0  0  0  0  0  0  0
   -3.1129   -0.4246    0.0000 C   0  0  0  0  0  0  0  0  0  0  0  0
   -3.6169    0.9882    0.0000 C   0  0  0  0  0  0  0  0  0  0  0  0
   -2.6453    2.1311    0.0000 O   0  0  0  0  0  0  0  0  0  0  0  0
   -5.0924    1.2582    0.0000 C   0  0  0  0  0  0  0  0  0  0  0  0
   -5.5963    2.6710    0.0000 C   0  0  0  0  0  0  0  0  0  0  0  0
   -7.0719    2.9410    0.0000 C   0  0  0  0  0  0  0  0  0  0  0  0
   -8.0434    1.7981    0.0000 C   0  0  0  0  0  0  0  0  0  0  0  0
   -9.5189    2.0681    0.0000 O   0  0  0  0  0  0  0  0  0  0  0  0
   -7.5395    0.3853    0.0000 C   0  0  0  0  0  0  0  0  0  0  0  0
   -8.5110   -0.7575    0.0000 C   0  0  0  0  0  0  0  0  0  0  0  0
   -9.9865   -0.4875    0.0000 O   0  0  0  0  0  0  0  0  0  0  0  0
   -8.0071   -2.1703    0.0000 O   0  0  0  0  0  0  0  0  0  0  0  0
   -6.0640    0.1154    0.0000 C   0  0  0  0  0  0  0  0  0  0  0  0
    0.3420   -2.3773    0.0000 C   0  0  0  0  0  0  0  0  0  0  0  0
    0.9909   -3.7297    0.0000 C   0  0  0  0  0  0  0  0  0  0  0  0
    2.4776   -3.5305    0.0000 C   0  0  0  0  0  0  0  0  0  0  0  0
    2.7476   -2.0550    0.0000 C   0  0  0  0  0  0  0  0  0  0  0  0
    4.0247   -1.2684    0.0000 C   0  0  0  0  0  0  0  0  0  0  0  0
    5.3446   -1.9811    0.0000 C   0  0  0  0  0  0  0  0  0  0  0  0
    5.3873   -3.4805    0.0000 O   0  0  0  0  0  0  0  0  0  0  0  0
    6.6218   -1.1944    0.0000 C   0  0  0  0  0  0  0  0  0  0  0  0
    6.5791    0.3050    0.0000 C   0  0  0  0  0  0  0  0  0  0  0  0
    7.8562    1.0917    0.0000 C   0  0  0  0  0  0  0  0  0  0  0  0
    7.8135    2.5911    0.0000 C   0  0  0  0  0  0  0  0  0  0  0  0
    9.0907    3.3778    0.0000 O   0  0  0  0  0  0  0  0  0  0  0  0
    6.4936    3.3038    0.0000 C   0  0  0  0  0  0  0  0  0  0  0  0
    5.2165    2.5171    0.0000 C   0  0  0  0  0  0  0  0  0  0  0  0
    5.2592    1.0177    0.0000 C   0  0  0  0  0  0  0  0  0  0  0  0
    3.9393    1.7304    0.0000 C   0  0  0  0  0  0  0  0  0  0  0  0
    3.9820    0.2310    0.0000 C   0  0  0  0  0  0  0  0  0  0  0  0
    2.6622    0.9438    0.0000 C   0  0  0  0  0  0  0  0  0  0  0  0
    1.3850    0.1571    0.0000 C   0  0  0  0  0  0  0  0  0  0  0  0
    1.4277   -1.3423    0.0000 C   0  0  0  0  0  0  0  0  0  0  0  0
    0.0406   -0.7715    0.0000 C   0  0  0  0  0  0  0  0  0  0  0  0
  2  1  1  6
  2  3  1  0
  3  4  1  0
  4  5  1  0
  5  6  2  0
  5  7  1  0
  7  8  2  0
  8  9  1  0
  9 10  2  0
 10 11  1  0
 10 12  1  0
 12 13  1  0
 13 14  2  0
 13 15  1  0
 12 16  2  0
  2 17  1  0
 17 18  1  6
 18 19  1  0
 20 19  1  6
 20 21  1  0
 21 22  1  1
 22 23  1  1
 22 24  1  0
 25 24  1  1
 25 26  1  0
 26 27  1  0
 27 28  1  1
 27 29  1  0
 29 30  1  0
 30 31  1  0
 31 32  1  6
 31 33  1  0
 33 34  1  6
 34 35  1  0
 35 36  1  0
 36 37  1  6
 16  7  1  0
 36 17  1  0
 36 20  1  0
 33 21  1  0
 31 25  1  0
M  END
>  <MS_ID>  (1931) 
MS2002

>  <SMILES>  (1931) 
C[C@H](CCC(=O)c1ccc(O)c(C(=O)O)c1)[C@H]1CC[C@H]2[C@@H]3[C@H](O)C[C@@H]4C[C@H](O)CC[C@]4(C)[C@H]3CC[C@]12C

>  <Structure_dimension>  (1931) 
2D

$$$$
MS2003
     RDKit          2D

 29 32  0  0  0  0  0  0  0  0999 V2000
   -5.1421   -2.1269    0.0000 C   0  0  0  0  0  0  0  0  0  0  0  0
   -4.0091   -1.1439    0.0000 C   0  0  0  0  0  0  0  0  0  0  0  0
   -4.2938    0.3288    0.0000 C   0  0  0  0  0  0  0  0  0  0  0  0
   -5.7116    0.8186    0.0000 C   0  0  0  0  0  0  0  0  0  0  0  0
   -5.9963    2.2913    0.0000 C   0  0  0  0  0  0  0  0  0  0  0  0
   -4.8632    3.2743    0.0000 O   0  0  0  0  0  0  0  0  0  0  0  0
   -7.4141    2.7811    0.0000 O   0  0  0  0  0  0  0  0  0  0  0  0
   -2.5913   -1.6337    0.0000 C   0  0  0  0  0  0  0  0  0  0  0  0
   -2.1542   -3.0686    0.0000 C   0  0  0  0  0  0  0  0  0  0  0  0
   -0.6544   -3.0963    0.0000 C   0  0  0  0  0  0  0  0  0  0  0  0
   -0.1646   -1.6785    0.0000 C   0  0  0  0  0  0  0  0  0  0  0  0
    1.2167   -1.0938    0.0000 C   0  0  0  0  0  0  0  0  0  0  0  0
    2.4137   -1.9977    0.0000 C   0  0  0  0  0  0  0  0  0  0  0  0
    2.2294   -3.4864    0.0000 N   0  0  0  0  0  0  0  0  0  0  0  0
    3.4265   -4.3903    0.0000 O   0  0  0  0  0  0  0  0  0  0  0  0
    3.7951   -1.4130    0.0000 C   0  0  0  0  0  0  0  0  0  0  0  0
    3.9794    0.0756    0.0000 C   0  0  0  0  0  0  0  0  0  0  0  0
    5.3607    0.6603    0.0000 C   0  0  0  0  0  0  0  0  0  0  0  0
    5.5451    2.1489    0.0000 C   0  0  0  0  0  0  0  0  0  0  0  0
    6.9264    2.7336    0.0000 O   0  0  0  0  0  0  0  0  0  0  0  0
    4.3480    3.0529    0.0000 C   0  0  0  0  0  0  0  0  0  0  0  0
    2.9667    2.4682    0.0000 C   0  0  0  0  0  0  0  0  0  0  0  0
    2.7824    0.9795    0.0000 C   0  0  0  0  0  0  0  0  0  0  0  0
    1.5853    1.8835    0.0000 C   0  0  0  0  0  0  0  0  0  0  0  0
    1.4010    0.3948    0.0000 C   0  0  0  0  0  0  0  0  0  0  0  0
    0.2040    1.2988    0.0000 C   0  0  0  0  0  0  0  0  0  0  0  0
   -1.1774    0.7141    0.0000 C   0  0  0  0  0  0  0  0  0  0  0  0
   -1.3617   -0.7746    0.0000 C   0  0  0  0  0  0  0  0  0  0  0  0
   -2.6467   -0.0007    0.0000 C   0  0  0  0  0  0  0  0  0  0  0  0
  2  1  1  6
  2  3  1  0
  3  4  1  0
  4  5  1  0
  5  6  2  0
  5  7  1  0
  2  8  1  0
  8  9  1  6
  9 10  1  0
 11 10  1  6
 11 12  1  0
 12 13  1  1
 13 14  1  6
 14 15  1  0
 13 16  1  0
 17 16  1  1
 17 18  1  0
 18 19  1  0
 19 20  1  1
 19 21  1  0
 21 22  1  0
 22 23  1  0
 23 24  1  6
 23 25  1  0
 25 26  1  6
 26 27  1  0
 27 28  1  0
 28 29  1  6
 28  8  1  0
 28 11  1  0
 25 12  1  0
 23 17  1  0
M  END
>  <MS_ID>  (1932) 
MS2003

>  <SMILES>  (1932) 
C[C@H](CCC(=O)O)[C@H]1CC[C@H]2[C@@H]3[C@@H](NO)C[C@@H]4C[C@H](O)CC[C@]4(C)[C@H]3CC[C@]12C

>  <Structure_dimension>  (1932) 
2D

$$$$
MS2004
     RDKit          2D

 34 37  0  0  0  0  0  0  0  0999 V2000
   -1.6851   -4.3936    0.0000 C   0  0  0  0  0  0  0  0  0  0  0  0
   -1.0219   -3.0482    0.0000 C   0  0  0  0  0  0  0  0  0  0  0  0
   -1.8555   -1.8011    0.0000 C   0  0  0  0  0  0  0  0  0  0  0  0
   -3.3523   -1.8996    0.0000 C   0  0  0  0  0  0  0  0  0  0  0  0
   -4.1859   -0.6525    0.0000 C   0  0  0  0  0  0  0  0  0  0  0  0
   -3.5228    0.6929    0.0000 O   0  0  0  0  0  0  0  0  0  0  0  0
   -5.6827   -0.7510    0.0000 O   0  0  0  0  0  0  0  0  0  0  0  0
   -6.5163    0.4961    0.0000 C   0  0  0  0  0  0  0  0  0  0  0  0
   -8.0131    0.3977    0.0000 C   0  0  0  0  0  0  0  0  0  0  0  0
   -8.8467    1.6447    0.0000 C   0  0  0  0  0  0  0  0  0  0  0  0
  -10.3435    1.5463    0.0000 C   0  0  0  0  0  0  0  0  0  0  0  0
  -11.1771    2.7933    0.0000 C   0  0  0  0  0  0  0  0  0  0  0  0
  -12.6738    2.6949    0.0000 O   0  0  0  0  0  0  0  0  0  0  0  0
    0.4748   -2.9498    0.0000 C   0  0  0  0  0  0  0  0  0  0  0  0
    1.4342   -4.1028    0.0000 C   0  0  0  0  0  0  0  0  0  0  0  0
    2.8273   -3.5467    0.0000 C   0  0  0  0  0  0  0  0  0  0  0  0
    2.7289   -2.0499    0.0000 C   0  0  0  0  0  0  0  0  0  0  0  0
    3.7754   -0.9753    0.0000 C   0  0  0  0  0  0  0  0  0  0  0  0
    5.2293   -1.3442    0.0000 C   0  0  0  0  0  0  0  0  0  0  0  0
    5.6368   -2.7878    0.0000 O   0  0  0  0  0  0  0  0  0  0  0  0
    6.2758   -0.2695    0.0000 C   0  0  0  0  0  0  0  0  0  0  0  0
    5.8683    1.1741    0.0000 C   0  0  0  0  0  0  0  0  0  0  0  0
    6.9148    2.2488    0.0000 C   0  0  0  0  0  0  0  0  0  0  0  0
    6.5073    3.6924    0.0000 C   0  0  0  0  0  0  0  0  0  0  0  0
    7.5538    4.7670    0.0000 O   0  0  0  0  0  0  0  0  0  0  0  0
    5.0534    4.0613    0.0000 C   0  0  0  0  0  0  0  0  0  0  0  0
    4.0069    2.9866    0.0000 C   0  0  0  0  0  0  0  0  0  0  0  0
    4.4144    1.5430    0.0000 C   0  0  0  0  0  0  0  0  0  0  0  0
    2.9605    1.9119    0.0000 C   0  0  0  0  0  0  0  0  0  0  0  0
    3.3679    0.4683    0.0000 C   0  0  0  0  0  0  0  0  0  0  0  0
    1.9140    0.8373    0.0000 C   0  0  0  0  0  0  0  0  0  0  0  0
    0.8675   -0.2374    0.0000 C   0  0  0  0  0  0  0  0  0  0  0  0
    1.2750   -1.6810    0.0000 C   0  0  0  0  0  0  0  0  0  0  0  0
   -0.2095   -1.4661    0.0000 C   0  0  0  0  0  0  0  0  0  0  0  0
  2  1  1  6
  2  3  1  0
  3  4  1  0
  4  5  1  0
  5  6  2  0
  5  7  1  0
  7  8  1  0
  8  9  1  0
  9 10  1  0
 10 11  1  0
 11 12  1  0
 12 13  1  0
  2 14  1  0
 14 15  1  6
 15 16  1  0
 17 16  1  6
 17 18  1  0
 18 19  1  1
 19 20  1  6
 19 21  1  0
 22 21  1  1
 22 23  1  0
 23 24  1  0
 24 25  1  1
 24 26  1  0
 26 27  1  0
 27 28  1  0
 28 29  1  6
 28 30  1  0
 30 31  1  6
 31 32  1  0
 32 33  1  0
 33 34  1  6
 33 14  1  0
 33 17  1  0
 30 18  1  0
 28 22  1  0
M  END
>  <MS_ID>  (1933) 
MS2004

>  <SMILES>  (1933) 
C[C@H](CCC(=O)OCCCCCO)[C@H]1CC[C@H]2[C@@H]3[C@@H](O)C[C@@H]4C[C@H](O)CC[C@]4(C)[C@H]3CC[C@]12C

>  <Structure_dimension>  (1933) 
2D

$$$$
MS2005
     RDKit          2D

 32 35  0  0  0  0  0  0  0  0999 V2000
   -3.8307   -3.4888    0.0000 C   0  0  0  0  0  0  0  0  0  0  0  0
   -2.9213   -2.2959    0.0000 C   0  0  0  0  0  0  0  0  0  0  0  0
   -3.4997   -0.9119    0.0000 C   0  0  0  0  0  0  0  0  0  0  0  0
   -4.9875   -0.7208    0.0000 C   0  0  0  0  0  0  0  0  0  0  0  0
   -5.5659    0.6632    0.0000 C   0  0  0  0  0  0  0  0  0  0  0  0
   -4.6565    1.8561    0.0000 O   0  0  0  0  0  0  0  0  0  0  0  0
   -7.0537    0.8543    0.0000 C   0  0  0  0  0  0  0  0  0  0  0  0
   -7.6321    2.2383    0.0000 C   0  0  0  0  0  0  0  0  0  0  0  0
   -9.1199    2.4294    0.0000 O   0  0  0  0  0  0  0  0  0  0  0  0
   -6.7227    3.4312    0.0000 S   0  0  0  0  0  0  0  0  0  0  0  0
   -1.4336   -2.4870    0.0000 C   0  0  0  0  0  0  0  0  0  0  0  0
   -0.7137   -3.8029    0.0000 C   0  0  0  0  0  0  0  0  0  0  0  0
    0.7603   -3.5249    0.0000 C   0  0  0  0  0  0  0  0  0  0  0  0
    0.9514   -2.0372    0.0000 C   0  0  0  0  0  0  0  0  0  0  0  0
    2.1849   -1.1836    0.0000 C   0  0  0  0  0  0  0  0  0  0  0  0
    3.5409   -1.8251    0.0000 C   0  0  0  0  0  0  0  0  0  0  0  0
    3.6633   -3.3201    0.0000 O   0  0  0  0  0  0  0  0  0  0  0  0
    4.7744   -0.9716    0.0000 C   0  0  0  0  0  0  0  0  0  0  0  0
    6.1303   -1.6131    0.0000 O   0  0  0  0  0  0  0  0  0  0  0  0
    4.6520    0.5234    0.0000 C   0  0  0  0  0  0  0  0  0  0  0  0
    5.8855    1.3769    0.0000 C   0  0  0  0  0  0  0  0  0  0  0  0
    5.7630    2.8719    0.0000 C   0  0  0  0  0  0  0  0  0  0  0  0
    6.9966    3.7254    0.0000 O   0  0  0  0  0  0  0  0  0  0  0  0
    4.4071    3.5134    0.0000 C   0  0  0  0  0  0  0  0  0  0  0  0
    3.1736    2.6599    0.0000 C   0  0  0  0  0  0  0  0  0  0  0  0
    3.2960    1.1649    0.0000 C   0  0  0  0  0  0  0  0  0  0  0  0
    1.9401    1.8063    0.0000 C   0  0  0  0  0  0  0  0  0  0  0  0
    2.0625    0.3113    0.0000 C   0  0  0  0  0  0  0  0  0  0  0  0
    0.7066    0.9528    0.0000 C   0  0  0  0  0  0  0  0  0  0  0  0
   -0.5269    0.0993    0.0000 C   0  0  0  0  0  0  0  0  0  0  0  0
   -0.4045   -1.3957    0.0000 C   0  0  0  0  0  0  0  0  0  0  0  0
   -1.8200   -0.8994    0.0000 C   0  0  0  0  0  0  0  0  0  0  0  0
  2  1  1  6
  2  3  1  0
  3  4  1  0
  4  5  1  0
  5  6  2  0
  5  7  1  0
  7  8  1  0
  8  9  2  0
  8 10  1  0
  2 11  1  0
 11 12  1  6
 12 13  1  0
 14 13  1  6
 14 15  1  0
 15 16  1  1
 16 17  1  1
 16 18  1  0
 18 19  1  1
 18 20  1  0
 20 21  1  1
 21 22  1  0
 22 23  1  1
 22 24  1  0
 24 25  1  0
 25 26  1  0
 26 27  1  6
 26 28  1  0
 28 29  1  6
 29 30  1  0
 30 31  1  0
 31 32  1  6
 31 11  1  0
 31 14  1  0
 28 15  1  0
 26 20  1  0
M  END
>  <MS_ID>  (1934) 
MS2005

>  <SMILES>  (1934) 
C[C@H](CCC(=O)CC(=O)S)[C@H]1CC[C@H]2[C@@H]3[C@H](O)[C@H](O)[C@@H]4C[C@H](O)CC[C@]4(C)[C@H]3CC[C@]12C

>  <Structure_dimension>  (1934) 
2D

$$$$
MS2006
     RDKit          2D

 33 36  0  0  0  0  0  0  0  0999 V2000
   -2.6051   -3.9297    0.0000 C   0  0  0  0  0  0  0  0  0  0  0  0
   -1.7943   -2.6677    0.0000 C   0  0  0  0  0  0  0  0  0  0  0  0
   -2.4819   -1.3345    0.0000 C   0  0  0  0  0  0  0  0  0  0  0  0
   -3.9802   -1.2634    0.0000 C   0  0  0  0  0  0  0  0  0  0  0  0
   -4.6677    0.0698    0.0000 C   0  0  0  0  0  0  0  0  0  0  0  0
   -3.8569    1.3318    0.0000 O   0  0  0  0  0  0  0  0  0  0  0  0
   -6.1660    0.1409    0.0000 N   0  0  0  0  0  0  0  0  0  0  0  0
   -6.8536    1.4741    0.0000 C   0  0  0  0  0  0  0  0  0  0  0  0
   -8.3519    1.5453    0.0000 C   0  0  0  0  0  0  0  0  0  0  0  0
   -9.1627    0.2833    0.0000 O   0  0  0  0  0  0  0  0  0  0  0  0
   -9.0394    2.8784    0.0000 N   0  0  0  0  0  0  0  0  0  0  0  0
  -10.5377    2.9496    0.0000 O   0  0  0  0  0  0  0  0  0  0  0  0
   -0.2960   -2.7388    0.0000 C   0  0  0  0  0  0  0  0  0  0  0  0
    0.5271   -3.9928    0.0000 C   0  0  0  0  0  0  0  0  0  0  0  0
    1.9741   -3.5975    0.0000 C   0  0  0  0  0  0  0  0  0  0  0  0
    2.0452   -2.0992    0.0000 C   0  0  0  0  0  0  0  0  0  0  0  0
    3.2063   -1.1495    0.0000 C   0  0  0  0  0  0  0  0  0  0  0  0
    4.6093   -1.6802    0.0000 C   0  0  0  0  0  0  0  0  0  0  0  0
    4.8512   -3.1605    0.0000 O   0  0  0  0  0  0  0  0  0  0  0  0
    5.7704   -0.7305    0.0000 C   0  0  0  0  0  0  0  0  0  0  0  0
    5.5284    0.7499    0.0000 C   0  0  0  0  0  0  0  0  0  0  0  0
    6.6895    1.6996    0.0000 C   0  0  0  0  0  0  0  0  0  0  0  0
    6.4476    3.1800    0.0000 C   0  0  0  0  0  0  0  0  0  0  0  0
    7.6087    4.1296    0.0000 O   0  0  0  0  0  0  0  0  0  0  0  0
    5.0446    3.7106    0.0000 C   0  0  0  0  0  0  0  0  0  0  0  0
    3.8835    2.7609    0.0000 C   0  0  0  0  0  0  0  0  0  0  0  0
    4.1254    1.2806    0.0000 C   0  0  0  0  0  0  0  0  0  0  0  0
    2.7225    1.8113    0.0000 C   0  0  0  0  0  0  0  0  0  0  0  0
    2.9644    0.3309    0.0000 C   0  0  0  0  0  0  0  0  0  0  0  0
    1.5614    0.8616    0.0000 C   0  0  0  0  0  0  0  0  0  0  0  0
    0.4003   -0.0881    0.0000 C   0  0  0  0  0  0  0  0  0  0  0  0
    0.6422   -1.5685    0.0000 C   0  0  0  0  0  0  0  0  0  0  0  0
   -0.8086   -1.1874    0.0000 C   0  0  0  0  0  0  0  0  0  0  0  0
  2  1  1  6
  2  3  1  0
  3  4  1  0
  4  5  1  0
  5  6  2  0
  5  7  1  0
  7  8  1  0
  8  9  1  0
  9 10  2  0
  9 11  1  0
 11 12  1  0
  2 13  1  0
 13 14  1  6
 14 15  1  0
 16 15  1  6
 16 17  1  0
 17 18  1  1
 18 19  1  1
 18 20  1  0
 21 20  1  1
 21 22  1  0
 22 23  1  0
 23 24  1  1
 23 25  1  0
 25 26  1  0
 26 27  1  0
 27 28  1  6
 27 29  1  0
 29 30  1  6
 30 31  1  0
 31 32  1  0
 32 33  1  6
 32 13  1  0
 32 16  1  0
 29 17  1  0
 27 21  1  0
M  END
>  <MS_ID>  (1935) 
MS2006

>  <SMILES>  (1935) 
C[C@H](CCC(=O)NCC(=O)NO)[C@H]1CC[C@H]2[C@@H]3[C@H](O)C[C@@H]4C[C@H](O)CC[C@]4(C)[C@H]3CC[C@]12C

>  <Structure_dimension>  (1935) 
2D

$$$$
MS2007
     RDKit          2D

 30 33  0  0  0  0  0  0  0  0999 V2000
   -5.2957   -2.1020    0.0000 C   0  0  0  0  0  0  0  0  0  0  0  0
   -4.0860   -1.2151    0.0000 C   0  0  0  0  0  0  0  0  0  0  0  0
   -4.2493    0.2760    0.0000 C   0  0  0  0  0  0  0  0  0  0  0  0
   -5.6223    0.8801    0.0000 C   0  0  0  0  0  0  0  0  0  0  0  0
   -5.7856    2.3712    0.0000 C   0  0  0  0  0  0  0  0  0  0  0  0
   -4.5759    3.2582    0.0000 O   0  0  0  0  0  0  0  0  0  0  0  0
   -7.1586    2.9753    0.0000 O   0  0  0  0  0  0  0  0  0  0  0  0
   -2.7130   -1.8192    0.0000 C   0  0  0  0  0  0  0  0  0  0  0  0
   -2.3947   -3.2850    0.0000 C   0  0  0  0  0  0  0  0  0  0  0  0
   -0.9023   -3.4353    0.0000 C   0  0  0  0  0  0  0  0  0  0  0  0
   -0.2982   -2.0623    0.0000 C   0  0  0  0  0  0  0  0  0  0  0  0
    1.1264   -1.5925    0.0000 C   0  0  0  0  0  0  0  0  0  0  0  0
    2.2455   -2.5914    0.0000 C   0  0  0  0  0  0  0  0  0  0  0  0
    1.9400   -4.0599    0.0000 O   0  0  0  0  0  0  0  0  0  0  0  0
    3.6700   -2.1216    0.0000 C   0  0  0  0  0  0  0  0  0  0  0  0
    3.9755   -0.6530    0.0000 C   0  0  0  0  0  0  0  0  0  0  0  0
    5.4000   -0.1833    0.0000 C   0  0  0  0  0  0  0  0  0  0  0  0
    5.7054    1.2853    0.0000 C   0  0  0  0  0  0  0  0  0  0  0  0
    7.1300    1.7551    0.0000 O   0  0  0  0  0  0  0  0  0  0  0  0
    4.5863    2.2841    0.0000 C   0  0  0  0  0  0  0  0  0  0  0  0
    3.1618    1.8144    0.0000 C   0  0  0  0  0  0  0  0  0  0  0  0
    2.8564    0.3458    0.0000 C   0  0  0  0  0  0  0  0  0  0  0  0
    1.7373    1.3446    0.0000 C   0  0  0  0  0  0  0  0  0  0  0  0
    2.0427    2.8132    0.0000 C   0  0  0  0  0  0  0  0  0  0  0  0
    0.9236    3.8120    0.0000 O   0  0  0  0  0  0  0  0  0  0  0  0
    1.4318   -0.1240    0.0000 C   0  0  0  0  0  0  0  0  0  0  0  0
    0.3127    0.8748    0.0000 C   0  0  0  0  0  0  0  0  0  0  0  0
   -1.1118    0.4051    0.0000 C   0  0  0  0  0  0  0  0  0  0  0  0
   -1.4173   -1.0635    0.0000 C   0  0  0  0  0  0  0  0  0  0  0  0
   -2.6346   -0.1871    0.0000 C   0  0  0  0  0  0  0  0  0  0  0  0
  2  1  1  6
  2  3  1  0
  3  4  1  0
  4  5  1  0
  5  6  2  0
  5  7  1  0
  2  8  1  0
  8  9  1  6
  9 10  1  0
 11 10  1  6
 11 12  1  0
 12 13  1  1
 13 14  1  6
 13 15  1  0
 16 15  1  1
 16 17  1  0
 17 18  1  0
 18 19  1  1
 18 20  1  0
 20 21  1  0
 21 22  1  0
 22 23  1  6
 23 24  1  0
 24 25  1  0
 22 26  1  0
 26 27  1  6
 27 28  1  0
 28 29  1  0
 29 30  1  6
 29  8  1  0
 29 11  1  0
 26 12  1  0
 22 16  1  0
M  END
>  <MS_ID>  (1936) 
MS2007

>  <SMILES>  (1936) 
C[C@H](CCC(=O)O)[C@H]1CC[C@H]2[C@@H]3[C@@H](O)C[C@@H]4C[C@H](O)CC[C@]4(CCO)[C@H]3CC[C@]12C

>  <Structure_dimension>  (1936) 
2D

$$$$
MS2008
     RDKit          2D

 33 36  0  0  0  0  0  0  0  0999 V2000
   -2.8663   -3.9244    0.0000 C   0  0  0  0  0  0  0  0  0  0  0  0
   -2.0510   -2.6653    0.0000 C   0  0  0  0  0  0  0  0  0  0  0  0
   -2.7339   -1.3297    0.0000 C   0  0  0  0  0  0  0  0  0  0  0  0
   -4.2319   -1.2532    0.0000 C   0  0  0  0  0  0  0  0  0  0  0  0
   -4.9147    0.0823    0.0000 C   0  0  0  0  0  0  0  0  0  0  0  0
   -4.0995    1.3415    0.0000 O   0  0  0  0  0  0  0  0  0  0  0  0
   -6.4128    0.1588    0.0000 N   0  0  0  0  0  0  0  0  0  0  0  0
   -7.0956    1.4944    0.0000 C   0  0  0  0  0  0  0  0  0  0  0  0
   -8.5936    1.5708    0.0000 C   0  0  0  0  0  0  0  0  0  0  0  0
   -9.2765    2.9064    0.0000 C   0  0  0  0  0  0  0  0  0  0  0  0
  -10.7745    2.9828    0.0000 O   0  0  0  0  0  0  0  0  0  0  0  0
   -0.5530   -2.7417    0.0000 C   0  0  0  0  0  0  0  0  0  0  0  0
    0.2657   -3.9986    0.0000 C   0  0  0  0  0  0  0  0  0  0  0  0
    1.7140   -3.6084    0.0000 C   0  0  0  0  0  0  0  0  0  0  0  0
    1.7905   -2.1103    0.0000 C   0  0  0  0  0  0  0  0  0  0  0  0
    2.9549   -1.1648    0.0000 C   0  0  0  0  0  0  0  0  0  0  0  0
    4.3560   -1.7004    0.0000 C   0  0  0  0  0  0  0  0  0  0  0  0
    4.5927   -3.1816    0.0000 O   0  0  0  0  0  0  0  0  0  0  0  0
    5.5204   -0.7548    0.0000 C   0  0  0  0  0  0  0  0  0  0  0  0
    5.2838    0.7264    0.0000 C   0  0  0  0  0  0  0  0  0  0  0  0
    6.4482    1.6720    0.0000 C   0  0  0  0  0  0  0  0  0  0  0  0
    6.2115    3.1532    0.0000 C   0  0  0  0  0  0  0  0  0  0  0  0
    7.3759    4.0988    0.0000 O   0  0  0  0  0  0  0  0  0  0  0  0
    4.8104    3.6888    0.0000 C   0  0  0  0  0  0  0  0  0  0  0  0
    3.6460    2.7432    0.0000 C   0  0  0  0  0  0  0  0  0  0  0  0
    3.8827    1.2620    0.0000 C   0  0  0  0  0  0  0  0  0  0  0  0
    2.4816    1.7977    0.0000 C   0  0  0  0  0  0  0  0  0  0  0  0
    2.7182    0.3165    0.0000 C   0  0  0  0  0  0  0  0  0  0  0  0
    1.3171    0.8521    0.0000 C   0  0  0  0  0  0  0  0  0  0  0  0
    0.1527   -0.0935    0.0000 C   0  0  0  0  0  0  0  0  0  0  0  0
   -1.2484    0.4421    0.0000 O   0  0  0  0  0  0  0  0  0  0  0  0
    0.3894   -1.5747    0.0000 C   0  0  0  0  0  0  0  0  0  0  0  0
   -1.0600   -1.1885    0.0000 C   0  0  0  0  0  0  0  0  0  0  0  0
  2  1  1  6
  2  3  1  0
  3  4  1  0
  4  5  1  0
  5  6  2  0
  5  7  1  0
  7  8  1  0
  8  9  1  0
  9 10  1  0
 10 11  1  0
  2 12  1  0
 12 13  1  6
 13 14  1  0
 15 14  1  6
 15 16  1  0
 16 17  1  1
 17 18  2  0
 17 19  1  0
 20 19  1  1
 20 21  1  0
 21 22  1  0
 22 23  1  1
 22 24  1  0
 24 25  1  0
 25 26  1  0
 26 27  1  6
 26 28  1  0
 28 29  1  6
 29 30  1  0
 30 31  1  1
 30 32  1  0
 32 33  1  6
 32 12  1  0
 32 15  1  0
 28 16  1  0
 26 20  1  0
M  END
>  <MS_ID>  (1937) 
MS2008

>  <SMILES>  (1937) 
C[C@H](CCC(=O)NCCCO)[C@H]1CC[C@H]2[C@@H]3C(=O)C[C@@H]4C[C@H](O)CC[C@]4(C)[C@H]3C[C@H](O)[C@]12C

>  <Structure_dimension>  (1937) 
2D

$$$$
MS2009
     RDKit          2D

 30 33  0  0  0  0  0  0  0  0999 V2000
   -5.3676   -2.0337    0.0000 C   0  0  0  0  0  0  0  0  0  0  0  0
   -4.1713   -1.1288    0.0000 C   0  0  0  0  0  0  0  0  0  0  0  0
   -4.3569    0.3597    0.0000 C   0  0  0  0  0  0  0  0  0  0  0  0
   -5.7388    0.9432    0.0000 C   0  0  0  0  0  0  0  0  0  0  0  0
   -5.9244    2.4317    0.0000 C   0  0  0  0  0  0  0  0  0  0  0  0
   -4.7281    3.3367    0.0000 O   0  0  0  0  0  0  0  0  0  0  0  0
   -7.3062    3.0152    0.0000 O   0  0  0  0  0  0  0  0  0  0  0  0
   -2.7894   -1.7123    0.0000 C   0  0  0  0  0  0  0  0  0  0  0  0
   -2.4493   -3.1732    0.0000 C   0  0  0  0  0  0  0  0  0  0  0  0
   -0.9547   -3.3011    0.0000 C   0  0  0  0  0  0  0  0  0  0  0  0
   -0.3712   -1.9192    0.0000 C   0  0  0  0  0  0  0  0  0  0  0  0
    1.0461   -1.4282    0.0000 C   0  0  0  0  0  0  0  0  0  0  0  0
    2.1800   -2.4102    0.0000 C   0  0  0  0  0  0  0  0  0  0  0  0
    1.8966   -3.8832    0.0000 O   0  0  0  0  0  0  0  0  0  0  0  0
    3.5974   -1.9192    0.0000 C   0  0  0  0  0  0  0  0  0  0  0  0
    3.8808   -0.4462    0.0000 C   0  0  0  0  0  0  0  0  0  0  0  0
    5.2982    0.0448    0.0000 C   0  0  0  0  0  0  0  0  0  0  0  0
    5.5816    1.5178    0.0000 C   0  0  0  0  0  0  0  0  0  0  0  0
    6.9990    2.0088    0.0000 C   0  0  0  0  0  0  0  0  0  0  0  0
    8.1329    1.0269    0.0000 O   0  0  0  0  0  0  0  0  0  0  0  0
    4.4477    2.4998    0.0000 C   0  0  0  0  0  0  0  0  0  0  0  0
    3.0304    2.0087    0.0000 C   0  0  0  0  0  0  0  0  0  0  0  0
    2.7469    0.5358    0.0000 C   0  0  0  0  0  0  0  0  0  0  0  0
    1.6130    1.5177    0.0000 C   0  0  0  0  0  0  0  0  0  0  0  0
    1.3296    0.0448    0.0000 C   0  0  0  0  0  0  0  0  0  0  0  0
    0.1957    1.0267    0.0000 C   0  0  0  0  0  0  0  0  0  0  0  0
   -1.2217    0.5357    0.0000 C   0  0  0  0  0  0  0  0  0  0  0  0
   -2.3556    1.5177    0.0000 O   0  0  0  0  0  0  0  0  0  0  0  0
   -1.5052   -0.9373    0.0000 C   0  0  0  0  0  0  0  0  0  0  0  0
   -2.7355   -0.0792    0.0000 C   0  0  0  0  0  0  0  0  0  0  0  0
  2  1  1  6
  2  3  1  0
  3  4  1  0
  4  5  1  0
  5  6  2  0
  5  7  1  0
  2  8  1  0
  8  9  1  6
  9 10  1  0
 11 10  1  6
 11 12  1  0
 12 13  1  1
 13 14  1  1
 13 15  1  0
 16 15  1  1
 16 17  1  0
 17 18  1  0
 18 19  1  6
 19 20  1  0
 18 21  1  0
 21 22  1  0
 22 23  1  0
 23 24  1  6
 23 25  1  0
 25 26  1  6
 26 27  1  0
 27 28  1  1
 27 29  1  0
 29 30  1  6
 29  8  1  0
 29 11  1  0
 25 12  1  0
 23 16  1  0
M  END
>  <MS_ID>  (1938) 
MS2009

>  <SMILES>  (1938) 
C[C@H](CCC(=O)O)[C@H]1CC[C@H]2[C@@H]3[C@H](O)C[C@@H]4C[C@@H](CO)CC[C@]4(C)[C@H]3C[C@H](O)[C@]12C

>  <Structure_dimension>  (1938) 
2D

$$$$
MS2010
     RDKit          2D

 32 35  0  0  0  0  0  0  0  0999 V2000
   -4.0792   -3.5557    0.0000 C   0  0  0  0  0  0  0  0  0  0  0  0
   -3.1619   -2.3688    0.0000 C   0  0  0  0  0  0  0  0  0  0  0  0
   -3.7311   -0.9810    0.0000 C   0  0  0  0  0  0  0  0  0  0  0  0
   -5.2175   -0.7800    0.0000 C   0  0  0  0  0  0  0  0  0  0  0  0
   -5.7867    0.6078    0.0000 C   0  0  0  0  0  0  0  0  0  0  0  0
   -7.2732    0.8088    0.0000 O   0  0  0  0  0  0  0  0  0  0  0  0
   -4.8694    1.7946    0.0000 O   0  0  0  0  0  0  0  0  0  0  0  0
   -5.4386    3.1824    0.0000 C   0  0  0  0  0  0  0  0  0  0  0  0
   -4.5213    4.3693    0.0000 O   0  0  0  0  0  0  0  0  0  0  0  0
   -6.9251    3.3834    0.0000 S   0  0  0  0  0  0  0  0  0  0  0  0
   -1.6754   -2.5698    0.0000 C   0  0  0  0  0  0  0  0  0  0  0  0
   -0.9643   -3.8905    0.0000 C   0  0  0  0  0  0  0  0  0  0  0  0
    0.5115   -3.6223    0.0000 C   0  0  0  0  0  0  0  0  0  0  0  0
    0.7125   -2.1359    0.0000 C   0  0  0  0  0  0  0  0  0  0  0  0
    1.9517   -1.2906    0.0000 C   0  0  0  0  0  0  0  0  0  0  0  0
    3.3033   -1.9411    0.0000 C   0  0  0  0  0  0  0  0  0  0  0  0
    3.4158   -3.4368    0.0000 O   0  0  0  0  0  0  0  0  0  0  0  0
    4.5424   -1.0958    0.0000 C   0  0  0  0  0  0  0  0  0  0  0  0
    5.8941   -1.7463    0.0000 O   0  0  0  0  0  0  0  0  0  0  0  0
    4.4300    0.4000    0.0000 C   0  0  0  0  0  0  0  0  0  0  0  0
    5.6691    1.2453    0.0000 C   0  0  0  0  0  0  0  0  0  0  0  0
    5.5567    2.7411    0.0000 C   0  0  0  0  0  0  0  0  0  0  0  0
    6.7958    3.5863    0.0000 O   0  0  0  0  0  0  0  0  0  0  0  0
    4.2050    3.3916    0.0000 C   0  0  0  0  0  0  0  0  0  0  0  0
    2.9659    2.5463    0.0000 C   0  0  0  0  0  0  0  0  0  0  0  0
    3.0784    1.0505    0.0000 C   0  0  0  0  0  0  0  0  0  0  0  0
    1.7267    1.7010    0.0000 C   0  0  0  0  0  0  0  0  0  0  0  0
    1.8392    0.2052    0.0000 C   0  0  0  0  0  0  0  0  0  0  0  0
    0.4876    0.8557    0.0000 C   0  0  0  0  0  0  0  0  0  0  0  0
   -0.7516    0.0104    0.0000 C   0  0  0  0  0  0  0  0  0  0  0  0
   -0.6391   -1.4854    0.0000 C   0  0  0  0  0  0  0  0  0  0  0  0
   -2.0513   -0.9797    0.0000 C   0  0  0  0  0  0  0  0  0  0  0  0
  2  1  1  6
  2  3  1  0
  3  4  1  0
  4  5  1  0
  5  6  2  0
  5  7  1  0
  7  8  1  0
  8  9  2  0
  8 10  1  0
  2 11  1  0
 11 12  1  6
 12 13  1  0
 14 13  1  6
 14 15  1  0
 15 16  1  1
 16 17  1  1
 16 18  1  0
 18 19  1  1
 18 20  1  0
 20 21  1  1
 21 22  1  0
 22 23  1  1
 22 24  1  0
 24 25  1  0
 25 26  1  0
 26 27  1  6
 26 28  1  0
 28 29  1  6
 29 30  1  0
 30 31  1  0
 31 32  1  6
 31 11  1  0
 31 14  1  0
 28 15  1  0
 26 20  1  0
M  END
>  <MS_ID>  (1939) 
MS2010

>  <SMILES>  (1939) 
C[C@H](CCC(=O)OC(=O)S)[C@H]1CC[C@H]2[C@@H]3[C@H](O)[C@H](O)[C@@H]4C[C@H](O)CC[C@]4(C)[C@H]3CC[C@]12C

>  <Structure_dimension>  (1939) 
2D

$$$$
MS2011
     RDKit          2D

 30 33  0  0  0  0  0  0  0  0999 V2000
   -5.0361   -2.2421    0.0000 C   0  0  0  0  0  0  0  0  0  0  0  0
   -3.9151   -1.2454    0.0000 C   0  0  0  0  0  0  0  0  0  0  0  0
   -4.2177    0.2237    0.0000 C   0  0  0  0  0  0  0  0  0  0  0  0
   -5.6413    0.6963    0.0000 C   0  0  0  0  0  0  0  0  0  0  0  0
   -5.9439    2.1654    0.0000 C   0  0  0  0  0  0  0  0  0  0  0  0
   -4.8228    3.1621    0.0000 O   0  0  0  0  0  0  0  0  0  0  0  0
   -7.3675    2.6380    0.0000 O   0  0  0  0  0  0  0  0  0  0  0  0
   -2.4915   -1.7180    0.0000 C   0  0  0  0  0  0  0  0  0  0  0  0
   -2.0370   -3.1475    0.0000 C   0  0  0  0  0  0  0  0  0  0  0  0
   -0.5370   -3.1570    0.0000 C   0  0  0  0  0  0  0  0  0  0  0  0
   -0.0645   -1.7333    0.0000 C   0  0  0  0  0  0  0  0  0  0  0  0
    1.3097   -1.1319    0.0000 C   0  0  0  0  0  0  0  0  0  0  0  0
    2.5176   -2.0213    0.0000 C   0  0  0  0  0  0  0  0  0  0  0  0
    2.3514   -3.5120    0.0000 N   0  0  0  0  0  0  0  0  0  0  0  0
    3.5593   -4.4014    0.0000 O   0  0  0  0  0  0  0  0  0  0  0  0
    3.8918   -1.4198    0.0000 C   0  0  0  0  0  0  0  0  0  0  0  0
    4.0580    0.0709    0.0000 C   0  0  0  0  0  0  0  0  0  0  0  0
    5.4321    0.6723    0.0000 C   0  0  0  0  0  0  0  0  0  0  0  0
    5.5984    2.1631    0.0000 C   0  0  0  0  0  0  0  0  0  0  0  0
    6.9725    2.7645    0.0000 O   0  0  0  0  0  0  0  0  0  0  0  0
    4.3904    3.0524    0.0000 C   0  0  0  0  0  0  0  0  0  0  0  0
    3.0163    2.4510    0.0000 C   0  0  0  0  0  0  0  0  0  0  0  0
    2.8501    0.9603    0.0000 C   0  0  0  0  0  0  0  0  0  0  0  0
    1.6421    1.8496    0.0000 C   0  0  0  0  0  0  0  0  0  0  0  0
    1.4759    0.3588    0.0000 C   0  0  0  0  0  0  0  0  0  0  0  0
    0.2680    1.2482    0.0000 C   0  0  0  0  0  0  0  0  0  0  0  0
   -1.1062    0.6468    0.0000 C   0  0  0  0  0  0  0  0  0  0  0  0
   -2.3141    1.5361    0.0000 O   0  0  0  0  0  0  0  0  0  0  0  0
   -1.2724   -0.8440    0.0000 C   0  0  0  0  0  0  0  0  0  0  0  0
   -2.5667   -0.0858    0.0000 C   0  0  0  0  0  0  0  0  0  0  0  0
  2  1  1  6
  2  3  1  0
  3  4  1  0
  4  5  1  0
  5  6  2  0
  5  7  1  0
  2  8  1  0
  8  9  1  6
  9 10  1  0
 11 10  1  6
 11 12  1  0
 12 13  1  1
 13 14  1  6
 14 15  1  0
 13 16  1  0
 17 16  1  1
 17 18  1  0
 18 19  1  0
 19 20  1  1
 19 21  1  0
 21 22  1  0
 22 23  1  0
 23 24  1  6
 23 25  1  0
 25 26  1  6
 26 27  1  0
 27 28  1  6
 27 29  1  0
 29 30  1  6
 29  8  1  0
 29 11  1  0
 25 12  1  0
 23 17  1  0
M  END
>  <MS_ID>  (1940) 
MS2011

>  <SMILES>  (1940) 
C[C@H](CCC(=O)O)[C@H]1CC[C@H]2[C@@H]3[C@@H](NO)C[C@@H]4C[C@H](O)CC[C@]4(C)[C@H]3C[C@@H](O)[C@]12C

>  <Structure_dimension>  (1940) 
2D

$$$$
MS2012
     RDKit          2D

 34 37  0  0  0  0  0  0  0  0999 V2000
   -3.2002    0.8319    0.0000 C   0  0  0  0  0  0  0  0  0  0  0  0
   -3.1883   -0.6680    0.0000 C   0  0  0  0  0  0  0  0  0  0  0  0
   -4.4814   -1.4283    0.0000 C   0  0  0  0  0  0  0  0  0  0  0  0
   -5.7863   -0.6886    0.0000 C   0  0  0  0  0  0  0  0  0  0  0  0
   -7.0793   -1.4489    0.0000 C   0  0  0  0  0  0  0  0  0  0  0  0
   -7.0675   -2.9488    0.0000 O   0  0  0  0  0  0  0  0  0  0  0  0
   -8.3843   -0.7092    0.0000 O   0  0  0  0  0  0  0  0  0  0  0  0
   -1.8834   -1.4077    0.0000 C   0  0  0  0  0  0  0  0  0  0  0  0
   -1.7148   -2.8982    0.0000 C   0  0  0  0  0  0  0  0  0  0  0  0
   -0.2451   -3.1984    0.0000 C   0  0  0  0  0  0  0  0  0  0  0  0
    0.4946   -1.8935    0.0000 C   0  0  0  0  0  0  0  0  0  0  0  0
    1.9593   -1.5700    0.0000 C   0  0  0  0  0  0  0  0  0  0  0  0
    2.9718   -2.6767    0.0000 C   0  0  0  0  0  0  0  0  0  0  0  0
    2.5196   -4.1070    0.0000 O   0  0  0  0  0  0  0  0  0  0  0  0
    4.4365   -2.3533    0.0000 C   0  0  0  0  0  0  0  0  0  0  0  0
    4.8887   -0.9230    0.0000 C   0  0  0  0  0  0  0  0  0  0  0  0
    6.3534   -0.5996    0.0000 C   0  0  0  0  0  0  0  0  0  0  0  0
    6.8056    0.8306    0.0000 C   0  0  0  0  0  0  0  0  0  0  0  0
    8.2703    1.1541    0.0000 O   0  0  0  0  0  0  0  0  0  0  0  0
    5.7931    1.9374    0.0000 C   0  0  0  0  0  0  0  0  0  0  0  0
    4.3284    1.6139    0.0000 C   0  0  0  0  0  0  0  0  0  0  0  0
    3.8762    0.1837    0.0000 C   0  0  0  0  0  0  0  0  0  0  0  0
    2.8637    1.2904    0.0000 C   0  0  0  0  0  0  0  0  0  0  0  0
    2.4115   -0.1398    0.0000 C   0  0  0  0  0  0  0  0  0  0  0  0
    1.3990    0.9669    0.0000 C   0  0  0  0  0  0  0  0  0  0  0  0
   -0.0657    0.6435    0.0000 C   0  0  0  0  0  0  0  0  0  0  0  0
   -1.0782    1.7502    0.0000 O   0  0  0  0  0  0  0  0  0  0  0  0
   -0.6260    3.1804    0.0000 C   0  0  0  0  0  0  0  0  0  0  0  0
   -1.6385    4.2871    0.0000 C   0  0  0  0  0  0  0  0  0  0  0  0
   -3.1032    3.9636    0.0000 C   0  0  0  0  0  0  0  0  0  0  0  0
   -3.5554    2.5334    0.0000 O   0  0  0  0  0  0  0  0  0  0  0  0
   -4.1157    5.0704    0.0000 O   0  0  0  0  0  0  0  0  0  0  0  0
   -0.5179   -0.7868    0.0000 C   0  0  0  0  0  0  0  0  0  0  0  0
   -1.6406    0.2081    0.0000 C   0  0  0  0  0  0  0  0  0  0  0  0
  2  1  1  1
  2  3  1  0
  3  4  1  0
  4  5  1  0
  5  6  2  0
  5  7  1  0
  2  8  1  0
  8  9  1  6
  9 10  1  0
 11 10  1  6
 11 12  1  0
 12 13  1  1
 13 14  1  1
 13 15  1  0
 16 15  1  1
 16 17  1  0
 17 18  1  0
 18 19  1  1
 18 20  1  0
 20 21  1  0
 21 22  1  0
 22 23  1  6
 22 24  1  0
 24 25  1  6
 25 26  1  0
 26 27  1  1
 27 28  1  0
 28 29  2  0
 29 30  1  0
 30 31  2  0
 30 32  1  0
 26 33  1  0
 33 34  1  6
 33  8  1  0
 33 11  1  0
 24 12  1  0
 22 16  1  0
M  END
>  <MS_ID>  (1941) 
MS2012

>  <SMILES>  (1941) 
C[C@H](CCC(=O)O)[C@H]1CC[C@H]2[C@@H]3[C@H](O)C[C@@H]4C[C@H](O)CC[C@]4(C)[C@H]3C[C@H](O/C=C\C(=O)O)[C@]12C

>  <Structure_dimension>  (1941) 
2D

$$$$
MS2013
     RDKit          2D

 30 33  0  0  0  0  0  0  0  0999 V2000
   -7.4279    3.5601    0.0000 C   0  0  0  0  0  0  0  0  0  0  0  0
   -7.0729    2.1027    0.0000 O   0  0  0  0  0  0  0  0  0  0  0  0
   -5.6333    1.6814    0.0000 C   0  0  0  0  0  0  0  0  0  0  0  0
   -4.5486    2.7174    0.0000 O   0  0  0  0  0  0  0  0  0  0  0  0
   -5.2784    0.2240    0.0000 C   0  0  0  0  0  0  0  0  0  0  0  0
   -3.8388   -0.1974    0.0000 C   0  0  0  0  0  0  0  0  0  0  0  0
   -3.4838   -1.6548    0.0000 C   0  0  0  0  0  0  0  0  0  0  0  0
   -4.5685   -2.6908    0.0000 C   0  0  0  0  0  0  0  0  0  0  0  0
   -2.0442   -2.0761    0.0000 C   0  0  0  0  0  0  0  0  0  0  0  0
   -1.5389   -3.4884    0.0000 C   0  0  0  0  0  0  0  0  0  0  0  0
   -0.0395   -3.4442    0.0000 C   0  0  0  0  0  0  0  0  0  0  0  0
    0.3818   -2.0046    0.0000 C   0  0  0  0  0  0  0  0  0  0  0  0
    1.7336   -1.3544    0.0000 C   0  0  0  0  0  0  0  0  0  0  0  0
    2.9725   -2.1999    0.0000 C   0  0  0  0  0  0  0  0  0  0  0  0
    2.8597   -3.6957    0.0000 O   0  0  0  0  0  0  0  0  0  0  0  0
    4.3243   -1.5497    0.0000 C   0  0  0  0  0  0  0  0  0  0  0  0
    4.4371   -0.0540    0.0000 C   0  0  0  0  0  0  0  0  0  0  0  0
    5.7888    0.5962    0.0000 C   0  0  0  0  0  0  0  0  0  0  0  0
    5.9016    2.0920    0.0000 C   0  0  0  0  0  0  0  0  0  0  0  0
    7.2534    2.7422    0.0000 O   0  0  0  0  0  0  0  0  0  0  0  0
    4.6627    2.9375    0.0000 C   0  0  0  0  0  0  0  0  0  0  0  0
    3.3109    2.2873    0.0000 C   0  0  0  0  0  0  0  0  0  0  0  0
    3.1981    0.7916    0.0000 C   0  0  0  0  0  0  0  0  0  0  0  0
    1.9591    1.6371    0.0000 C   0  0  0  0  0  0  0  0  0  0  0  0
    1.8464    0.1414    0.0000 C   0  0  0  0  0  0  0  0  0  0  0  0
    0.6074    0.9869    0.0000 C   0  0  0  0  0  0  0  0  0  0  0  0
   -0.7444    0.3367    0.0000 C   0  0  0  0  0  0  0  0  0  0  0  0
   -1.9833    1.1823    0.0000 O   0  0  0  0  0  0  0  0  0  0  0  0
   -0.8572   -1.1590    0.0000 C   0  0  0  0  0  0  0  0  0  0  0  0
   -2.1777   -0.4476    0.0000 C   0  0  0  0  0  0  0  0  0  0  0  0
  1  2  1  0
  2  3  1  0
  3  4  2  0
  3  5  1  0
  5  6  1  0
  6  7  1  0
  7  8  1  6
  7  9  1  0
  9 10  1  6
 10 11  1  0
 12 11  1  6
 12 13  1  0
 13 14  1  1
 14 15  1  1
 14 16  1  0
 17 16  1  1
 17 18  1  0
 18 19  1  0
 19 20  1  6
 19 21  1  0
 21 22  1  0
 22 23  1  0
 23 24  1  6
 23 25  1  0
 25 26  1  6
 26 27  1  0
 27 28  1  1
 27 29  1  0
 29 30  1  6
 29  9  1  0
 29 12  1  0
 25 13  1  0
 23 17  1  0
M  END
>  <MS_ID>  (1942) 
MS2013

>  <SMILES>  (1942) 
COC(=O)CC[C@@H](C)[C@H]1CC[C@H]2[C@@H]3[C@H](O)C[C@@H]4C[C@@H](O)CC[C@]4(C)[C@H]3C[C@H](O)[C@]12C

>  <Structure_dimension>  (1942) 
2D

$$$$
MS2014
     RDKit          2D

 34 37  0  0  0  0  0  0  0  0999 V2000
   -2.9095   -3.6516    0.0000 C   0  0  0  0  0  0  0  0  0  0  0  0
   -2.0229   -2.4416    0.0000 C   0  0  0  0  0  0  0  0  0  0  0  0
   -2.6275   -1.0689    0.0000 C   0  0  0  0  0  0  0  0  0  0  0  0
   -4.1187   -0.9061    0.0000 C   0  0  0  0  0  0  0  0  0  0  0  0
   -4.7232    0.4667    0.0000 C   0  0  0  0  0  0  0  0  0  0  0  0
   -3.8367    1.6767    0.0000 O   0  0  0  0  0  0  0  0  0  0  0  0
   -6.2144    0.6295    0.0000 C   0  0  0  0  0  0  0  0  0  0  0  0
   -7.1009   -0.5804    0.0000 O   0  0  0  0  0  0  0  0  0  0  0  0
   -6.8190    2.0023    0.0000 C   0  0  0  0  0  0  0  0  0  0  0  0
   -8.3101    2.1651    0.0000 C   0  0  0  0  0  0  0  0  0  0  0  0
   -9.1967    0.9551    0.0000 O   0  0  0  0  0  0  0  0  0  0  0  0
   -8.9147    3.5379    0.0000 O   0  0  0  0  0  0  0  0  0  0  0  0
   -0.5318   -2.6044    0.0000 C   0  0  0  0  0  0  0  0  0  0  0  0
    0.2129   -3.9065    0.0000 C   0  0  0  0  0  0  0  0  0  0  0  0
    1.6814   -3.6005    0.0000 C   0  0  0  0  0  0  0  0  0  0  0  0
    1.8442   -2.1094    0.0000 C   0  0  0  0  0  0  0  0  0  0  0  0
    3.0613   -1.2326    0.0000 C   0  0  0  0  0  0  0  0  0  0  0  0
    4.4291   -1.8482    0.0000 C   0  0  0  0  0  0  0  0  0  0  0  0
    4.5799   -3.3406    0.0000 O   0  0  0  0  0  0  0  0  0  0  0  0
    5.6462   -0.9715    0.0000 C   0  0  0  0  0  0  0  0  0  0  0  0
    5.4954    0.5209    0.0000 C   0  0  0  0  0  0  0  0  0  0  0  0
    6.7125    1.3977    0.0000 C   0  0  0  0  0  0  0  0  0  0  0  0
    6.5617    2.8901    0.0000 C   0  0  0  0  0  0  0  0  0  0  0  0
    7.7788    3.7669    0.0000 O   0  0  0  0  0  0  0  0  0  0  0  0
    5.1939    3.5058    0.0000 C   0  0  0  0  0  0  0  0  0  0  0  0
    3.9768    2.6290    0.0000 C   0  0  0  0  0  0  0  0  0  0  0  0
    4.1276    1.1366    0.0000 C   0  0  0  0  0  0  0  0  0  0  0  0
    2.7597    1.7522    0.0000 C   0  0  0  0  0  0  0  0  0  0  0  0
    2.9105    0.2598    0.0000 C   0  0  0  0  0  0  0  0  0  0  0  0
    1.5427    0.8754    0.0000 C   0  0  0  0  0  0  0  0  0  0  0  0
    0.3256   -0.0014    0.0000 C   0  0  0  0  0  0  0  0  0  0  0  0
   -1.0423    0.6143    0.0000 O   0  0  0  0  0  0  0  0  0  0  0  0
    0.4764   -1.4938    0.0000 C   0  0  0  0  0  0  0  0  0  0  0  0
   -0.9483   -1.0245    0.0000 C   0  0  0  0  0  0  0  0  0  0  0  0
  2  1  1  6
  2  3  1  0
  3  4  1  0
  4  5  1  0
  5  6  2  0
  5  7  1  0
  7  8  1  1
  7  9  1  0
  9 10  1  0
 10 11  2  0
 10 12  1  0
  2 13  1  0
 13 14  1  6
 14 15  1  0
 16 15  1  6
 16 17  1  0
 17 18  1  1
 18 19  1  1
 18 20  1  0
 21 20  1  1
 21 22  1  0
 22 23  1  0
 23 24  1  1
 23 25  1  0
 25 26  1  0
 26 27  1  0
 27 28  1  6
 27 29  1  0
 29 30  1  6
 30 31  1  0
 31 32  1  1
 31 33  1  0
 33 34  1  6
 33 13  1  0
 33 16  1  0
 29 17  1  0
 27 21  1  0
M  END
>  <MS_ID>  (1943) 
MS2014

>  <SMILES>  (1943) 
C[C@H](CCC(=O)[C@@H](O)CC(=O)O)[C@H]1CC[C@H]2[C@@H]3[C@H](O)C[C@@H]4C[C@H](O)CC[C@]4(C)[C@H]3C[C@H](O)[C@]12C

>  <Structure_dimension>  (1943) 
2D

$$$$
MS2015
     RDKit          2D

 35 39  0  0  0  0  0  0  0  0999 V2000
   -2.2319   -4.3352    0.0000 C   0  0  0  0  0  0  0  0  0  0  0  0
   -1.5144   -3.0180    0.0000 C   0  0  0  0  0  0  0  0  0  0  0  0
   -2.2965   -1.7380    0.0000 C   0  0  0  0  0  0  0  0  0  0  0  0
   -3.7960   -1.7752    0.0000 C   0  0  0  0  0  0  0  0  0  0  0  0
   -4.5781   -0.4952    0.0000 C   0  0  0  0  0  0  0  0  0  0  0  0
   -3.8606    0.8220    0.0000 O   0  0  0  0  0  0  0  0  0  0  0  0
   -6.0776   -0.5325    0.0000 O   0  0  0  0  0  0  0  0  0  0  0  0
   -6.8597    0.7475    0.0000 C   0  0  0  0  0  0  0  0  0  0  0  0
   -6.1422    2.0648    0.0000 C   0  0  0  0  0  0  0  0  0  0  0  0
   -6.9242    3.3448    0.0000 C   0  0  0  0  0  0  0  0  0  0  0  0
   -8.4238    3.3075    0.0000 N   0  0  0  0  0  0  0  0  0  0  0  0
   -9.1412    1.9902    0.0000 C   0  0  0  0  0  0  0  0  0  0  0  0
   -8.3592    0.7102    0.0000 C   0  0  0  0  0  0  0  0  0  0  0  0
   -0.0149   -2.9807    0.0000 C   0  0  0  0  0  0  0  0  0  0  0  0
    0.8967   -4.1719    0.0000 C   0  0  0  0  0  0  0  0  0  0  0  0
    2.3113   -3.6731    0.0000 C   0  0  0  0  0  0  0  0  0  0  0  0
    2.2740   -2.1736    0.0000 C   0  0  0  0  0  0  0  0  0  0  0  0
    3.3634   -1.1425    0.0000 C   0  0  0  0  0  0  0  0  0  0  0  0
    4.8011   -1.5704    0.0000 C   0  0  0  0  0  0  0  0  0  0  0  0
    5.1493   -3.0294    0.0000 O   0  0  0  0  0  0  0  0  0  0  0  0
    5.8905   -0.5393    0.0000 C   0  0  0  0  0  0  0  0  0  0  0  0
    5.5423    0.9197    0.0000 C   0  0  0  0  0  0  0  0  0  0  0  0
    6.6317    1.9508    0.0000 C   0  0  0  0  0  0  0  0  0  0  0  0
    6.2835    3.4098    0.0000 C   0  0  0  0  0  0  0  0  0  0  0  0
    7.3729    4.4409    0.0000 O   0  0  0  0  0  0  0  0  0  0  0  0
    4.8458    3.8377    0.0000 C   0  0  0  0  0  0  0  0  0  0  0  0
    3.7564    2.8066    0.0000 C   0  0  0  0  0  0  0  0  0  0  0  0
    4.1046    1.3476    0.0000 C   0  0  0  0  0  0  0  0  0  0  0  0
    2.6670    1.7755    0.0000 C   0  0  0  0  0  0  0  0  0  0  0  0
    3.0152    0.3165    0.0000 C   0  0  0  0  0  0  0  0  0  0  0  0
    1.5776    0.7445    0.0000 C   0  0  0  0  0  0  0  0  0  0  0  0
    0.4881   -0.2866    0.0000 C   0  0  0  0  0  0  0  0  0  0  0  0
   -0.9495    0.1413    0.0000 O   0  0  0  0  0  0  0  0  0  0  0  0
    0.8363   -1.7456    0.0000 C   0  0  0  0  0  0  0  0  0  0  0  0
   -0.6382   -1.4703    0.0000 C   0  0  0  0  0  0  0  0  0  0  0  0
  2  1  1  6
  2  3  1  0
  3  4  1  0
  4  5  1  0
  5  6  2  0
  5  7  1  0
  7  8  1  0
  8  9  2  0
  9 10  1  0
 10 11  2  0
 11 12  1  0
 12 13  2  0
  2 14  1  0
 14 15  1  6
 15 16  1  0
 17 16  1  6
 17 18  1  0
 18 19  1  1
 19 20  1  1
 19 21  1  0
 22 21  1  1
 22 23  1  0
 23 24  1  0
 24 25  1  1
 24 26  1  0
 26 27  1  0
 27 28  1  0
 28 29  1  6
 28 30  1  0
 30 31  1  6
 31 32  1  0
 32 33  1  1
 32 34  1  0
 34 35  1  6
 13  8  1  0
 34 14  1  0
 34 17  1  0
 30 18  1  0
 28 22  1  0
M  END
>  <MS_ID>  (1944) 
MS2015

>  <SMILES>  (1944) 
C[C@H](CCC(=O)Oc1ccncc1)[C@H]1CC[C@H]2[C@@H]3[C@H](O)C[C@@H]4C[C@H](O)CC[C@]4(C)[C@H]3C[C@H](O)[C@]12C

>  <Structure_dimension>  (1944) 
2D

$$$$
MS2016
     RDKit          2D

 37 41  0  0  0  0  0  0  0  0999 V2000
   -1.4739   -4.1062    0.0000 C   0  0  0  0  0  0  0  0  0  0  0  0
   -0.7139   -2.8129    0.0000 C   0  0  0  0  0  0  0  0  0  0  0  0
   -1.4539   -1.5082    0.0000 C   0  0  0  0  0  0  0  0  0  0  0  0
   -2.9539   -1.4966    0.0000 C   0  0  0  0  0  0  0  0  0  0  0  0
   -3.6939   -0.1919    0.0000 C   0  0  0  0  0  0  0  0  0  0  0  0
   -2.9339    1.1014    0.0000 O   0  0  0  0  0  0  0  0  0  0  0  0
   -5.1938   -0.1803    0.0000 N   0  0  0  0  0  0  0  0  0  0  0  0
   -5.9338    1.1245    0.0000 C   0  0  0  0  0  0  0  0  0  0  0  0
   -7.4337    1.1360    0.0000 C   0  0  0  0  0  0  0  0  0  0  0  0
   -8.1737    2.4408    0.0000 C   0  0  0  0  0  0  0  0  0  0  0  0
   -9.6737    2.4523    0.0000 C   0  0  0  0  0  0  0  0  0  0  0  0
  -10.4336    1.1591    0.0000 C   0  0  0  0  0  0  0  0  0  0  0  0
  -11.9336    1.1707    0.0000 F   0  0  0  0  0  0  0  0  0  0  0  0
   -9.6937   -0.1457    0.0000 C   0  0  0  0  0  0  0  0  0  0  0  0
   -8.1937   -0.1572    0.0000 C   0  0  0  0  0  0  0  0  0  0  0  0
    0.7860   -2.8245    0.0000 C   0  0  0  0  0  0  0  0  0  0  0  0
    1.6583   -4.0448    0.0000 C   0  0  0  0  0  0  0  0  0  0  0  0
    3.0884   -3.5922    0.0000 C   0  0  0  0  0  0  0  0  0  0  0  0
    3.1000   -2.0923    0.0000 C   0  0  0  0  0  0  0  0  0  0  0  0
    4.2224   -1.0972    0.0000 C   0  0  0  0  0  0  0  0  0  0  0  0
    5.6454   -1.5717    0.0000 C   0  0  0  0  0  0  0  0  0  0  0  0
    5.9459   -3.0413    0.0000 O   0  0  0  0  0  0  0  0  0  0  0  0
    6.7678   -0.5766    0.0000 C   0  0  0  0  0  0  0  0  0  0  0  0
    6.4672    0.8930    0.0000 C   0  0  0  0  0  0  0  0  0  0  0  0
    7.5896    1.8880    0.0000 C   0  0  0  0  0  0  0  0  0  0  0  0
    7.2891    3.3576    0.0000 C   0  0  0  0  0  0  0  0  0  0  0  0
    8.4115    4.3527    0.0000 O   0  0  0  0  0  0  0  0  0  0  0  0
    5.8661    3.8321    0.0000 C   0  0  0  0  0  0  0  0  0  0  0  0
    4.7437    2.8370    0.0000 C   0  0  0  0  0  0  0  0  0  0  0  0
    5.0442    1.3675    0.0000 C   0  0  0  0  0  0  0  0  0  0  0  0
    3.6213    1.8420    0.0000 C   0  0  0  0  0  0  0  0  0  0  0  0
    3.9218    0.3724    0.0000 C   0  0  0  0  0  0  0  0  0  0  0  0
    2.4989    0.8469    0.0000 C   0  0  0  0  0  0  0  0  0  0  0  0
    1.3764   -0.1482    0.0000 C   0  0  0  0  0  0  0  0  0  0  0  0
   -0.0465    0.3263    0.0000 O   0  0  0  0  0  0  0  0  0  0  0  0
    1.6770   -1.6178    0.0000 C   0  0  0  0  0  0  0  0  0  0  0  0
    0.2122   -1.2946    0.0000 C   0  0  0  0  0  0  0  0  0  0  0  0
  2  1  1  6
  2  3  1  0
  3  4  1  0
  4  5  1  0
  5  6  2  0
  5  7  1  0
  7  8  1  0
  8  9  1  0
  9 10  2  0
 10 11  1  0
 11 12  2  0
 12 13  1  0
 12 14  1  0
 14 15  2  0
  2 16  1  0
 16 17  1  6
 17 18  1  0
 19 18  1  6
 19 20  1  0
 20 21  1  1
 21 22  1  1
 21 23  1  0
 24 23  1  1
 24 25  1  0
 25 26  1  0
 26 27  1  1
 26 28  1  0
 28 29  1  0
 29 30  1  0
 30 31  1  6
 30 32  1  0
 32 33  1  6
 33 34  1  0
 34 35  1  1
 34 36  1  0
 36 37  1  6
 15  9  1  0
 36 16  1  0
 36 19  1  0
 32 20  1  0
 30 24  1  0
M  END
>  <MS_ID>  (1945) 
MS2016

>  <SMILES>  (1945) 
C[C@H](CCC(=O)NCc1ccc(F)cc1)[C@H]1CC[C@H]2[C@@H]3[C@H](O)C[C@@H]4C[C@H](O)CC[C@]4(C)[C@H]3C[C@H](O)[C@]12C

>  <Structure_dimension>  (1945) 
2D

$$$$
MS2017
     RDKit          2D

 30 33  0  0  0  0  0  0  0  0999 V2000
   -5.3676   -2.0337    0.0000 C   0  0  0  0  0  0  0  0  0  0  0  0
   -4.1713   -1.1288    0.0000 C   0  0  0  0  0  0  0  0  0  0  0  0
   -4.3569    0.3597    0.0000 C   0  0  0  0  0  0  0  0  0  0  0  0
   -5.7388    0.9432    0.0000 C   0  0  0  0  0  0  0  0  0  0  0  0
   -5.9244    2.4317    0.0000 C   0  0  0  0  0  0  0  0  0  0  0  0
   -4.7281    3.3367    0.0000 O   0  0  0  0  0  0  0  0  0  0  0  0
   -7.3062    3.0152    0.0000 O   0  0  0  0  0  0  0  0  0  0  0  0
   -2.7894   -1.7123    0.0000 C   0  0  0  0  0  0  0  0  0  0  0  0
   -2.4493   -3.1732    0.0000 C   0  0  0  0  0  0  0  0  0  0  0  0
   -0.9547   -3.3011    0.0000 C   0  0  0  0  0  0  0  0  0  0  0  0
   -0.3712   -1.9192    0.0000 C   0  0  0  0  0  0  0  0  0  0  0  0
    1.0461   -1.4282    0.0000 C   0  0  0  0  0  0  0  0  0  0  0  0
    2.1800   -2.4102    0.0000 C   0  0  0  0  0  0  0  0  0  0  0  0
    1.8966   -3.8832    0.0000 O   0  0  0  0  0  0  0  0  0  0  0  0
    3.5974   -1.9192    0.0000 C   0  0  0  0  0  0  0  0  0  0  0  0
    3.8808   -0.4462    0.0000 C   0  0  0  0  0  0  0  0  0  0  0  0
    5.2982    0.0448    0.0000 C   0  0  0  0  0  0  0  0  0  0  0  0
    5.5816    1.5178    0.0000 C   0  0  0  0  0  0  0  0  0  0  0  0
    6.9990    2.0088    0.0000 C   0  0  0  0  0  0  0  0  0  0  0  0
    8.1329    1.0269    0.0000 S   0  0  0  0  0  0  0  0  0  0  0  0
    4.4477    2.4998    0.0000 C   0  0  0  0  0  0  0  0  0  0  0  0
    3.0304    2.0087    0.0000 C   0  0  0  0  0  0  0  0  0  0  0  0
    2.7469    0.5358    0.0000 C   0  0  0  0  0  0  0  0  0  0  0  0
    1.6130    1.5177    0.0000 C   0  0  0  0  0  0  0  0  0  0  0  0
    1.3296    0.0448    0.0000 C   0  0  0  0  0  0  0  0  0  0  0  0
    0.1957    1.0267    0.0000 C   0  0  0  0  0  0  0  0  0  0  0  0
   -1.2217    0.5357    0.0000 C   0  0  0  0  0  0  0  0  0  0  0  0
   -2.3556    1.5177    0.0000 O   0  0  0  0  0  0  0  0  0  0  0  0
   -1.5052   -0.9373    0.0000 C   0  0  0  0  0  0  0  0  0  0  0  0
   -2.7355   -0.0792    0.0000 C   0  0  0  0  0  0  0  0  0  0  0  0
  2  1  1  6
  2  3  1  0
  3  4  1  0
  4  5  1  0
  5  6  2  0
  5  7  1  0
  2  8  1  0
  8  9  1  6
  9 10  1  0
 11 10  1  6
 11 12  1  0
 12 13  1  1
 13 14  1  6
 13 15  1  0
 16 15  1  1
 16 17  1  0
 17 18  1  0
 18 19  1  1
 19 20  1  0
 18 21  1  0
 21 22  1  0
 22 23  1  0
 23 24  1  6
 23 25  1  0
 25 26  1  6
 26 27  1  0
 27 28  2  0
 27 29  1  0
 29 30  1  6
 29  8  1  0
 29 11  1  0
 25 12  1  0
 23 16  1  0
M  END
>  <MS_ID>  (1946) 
MS2017

>  <SMILES>  (1946) 
C[C@H](CCC(=O)O)[C@H]1CC[C@H]2[C@@H]3[C@@H](O)C[C@@H]4C[C@H](CS)CC[C@]4(C)[C@H]3CC(=O)[C@]12C

>  <Structure_dimension>  (1946) 
2D

$$$$
MS2018
     RDKit          2D

 38 42  0  0  0  0  0  0  0  0999 V2000
   -0.8527   -4.7621    0.0000 C   0  0  0  0  0  0  0  0  0  0  0  0
   -0.2257   -3.3995    0.0000 C   0  0  0  0  0  0  0  0  0  0  0  0
   -1.0923   -2.1751    0.0000 C   0  0  0  0  0  0  0  0  0  0  0  0
   -2.5859   -2.3135    0.0000 C   0  0  0  0  0  0  0  0  0  0  0  0
   -3.4525   -1.0891    0.0000 C   0  0  0  0  0  0  0  0  0  0  0  0
   -2.8255    0.2735    0.0000 O   0  0  0  0  0  0  0  0  0  0  0  0
   -4.9461   -1.2274    0.0000 O   0  0  0  0  0  0  0  0  0  0  0  0
   -5.8127   -0.0031    0.0000 C   0  0  0  0  0  0  0  0  0  0  0  0
   -5.1857    1.3596    0.0000 O   0  0  0  0  0  0  0  0  0  0  0  0
   -6.0523    2.5839    0.0000 C   0  0  0  0  0  0  0  0  0  0  0  0
   -5.4253    3.9466    0.0000 O   0  0  0  0  0  0  0  0  0  0  0  0
   -7.5459    2.4456    0.0000 C   0  0  0  0  0  0  0  0  0  0  0  0
   -8.4125    3.6699    0.0000 O   0  0  0  0  0  0  0  0  0  0  0  0
   -8.1729    1.0829    0.0000 C   0  0  0  0  0  0  0  0  0  0  0  0
   -9.6665    0.9446    0.0000 O   0  0  0  0  0  0  0  0  0  0  0  0
   -7.3063   -0.1414    0.0000 C   0  0  0  0  0  0  0  0  0  0  0  0
   -7.9333   -1.5041    0.0000 O   0  0  0  0  0  0  0  0  0  0  0  0
    1.2679   -3.2612    0.0000 C   0  0  0  0  0  0  0  0  0  0  0  0
    2.2577   -4.3882    0.0000 C   0  0  0  0  0  0  0  0  0  0  0  0
    3.6355   -3.7951    0.0000 C   0  0  0  0  0  0  0  0  0  0  0  0
    3.4972   -2.3015    0.0000 C   0  0  0  0  0  0  0  0  0  0  0  0
    4.5146   -1.1993    0.0000 C   0  0  0  0  0  0  0  0  0  0  0  0
    5.9778   -1.5293    0.0000 C   0  0  0  0  0  0  0  0  0  0  0  0
    6.9953   -0.4271    0.0000 C   0  0  0  0  0  0  0  0  0  0  0  0
    6.5494    1.0051    0.0000 C   0  0  0  0  0  0  0  0  0  0  0  0
    7.5668    2.1073    0.0000 C   0  0  0  0  0  0  0  0  0  0  0  0
    7.1210    3.5396    0.0000 C   0  0  0  0  0  0  0  0  0  0  0  0
    8.1384    4.6418    0.0000 O   0  0  0  0  0  0  0  0  0  0  0  0
    5.6577    3.8696    0.0000 C   0  0  0  0  0  0  0  0  0  0  0  0
    4.6403    2.7673    0.0000 C   0  0  0  0  0  0  0  0  0  0  0  0
    5.0862    1.3351    0.0000 C   0  0  0  0  0  0  0  0  0  0  0  0
    3.6229    1.6651    0.0000 C   0  0  0  0  0  0  0  0  0  0  0  0
    4.0688    0.2329    0.0000 C   0  0  0  0  0  0  0  0  0  0  0  0
    2.6055    0.5629    0.0000 C   0  0  0  0  0  0  0  0  0  0  0  0
    1.5881   -0.5393    0.0000 C   0  0  0  0  0  0  0  0  0  0  0  0
    0.1248   -0.2093    0.0000 O   0  0  0  0  0  0  0  0  0  0  0  0
    2.0339   -1.9715    0.0000 C   0  0  0  0  0  0  0  0  0  0  0  0
    0.5442   -1.7963    0.0000 C   0  0  0  0  0  0  0  0  0  0  0  0
  2  1  1  6
  2  3  1  0
  3  4  1  0
  4  5  1  0
  5  6  2  0
  5  7  1  0
  8  7  1  6
  8  9  1  0
  9 10  1  0
 10 11  1  6
 10 12  1  0
 12 13  1  1
 12 14  1  0
 14 15  1  6
 14 16  1  0
 16 17  1  1
  2 18  1  0
 18 19  1  6
 19 20  1  0
 21 20  1  6
 21 22  1  0
 22 23  1  1
 23 24  1  0
 25 24  1  1
 25 26  1  0
 26 27  1  0
 27 28  1  1
 27 29  1  0
 29 30  1  0
 30 31  1  0
 31 32  1  6
 31 33  1  0
 33 34  1  6
 34 35  1  0
 35 36  1  1
 35 37  1  0
 37 38  1  6
 16  8  1  0
 37 18  1  0
 37 21  1  0
 33 22  1  0
 31 25  1  0
M  END
>  <MS_ID>  (1947) 
MS2018

>  <SMILES>  (1947) 
C[C@H](CCC(=O)O[C@H]1O[C@@H](O)[C@H](O)[C@@H](O)[C@@H]1O)[C@H]1CC[C@H]2[C@@H]3CC[C@@H]4C[C@H](O)CC[C@]4(C)[C@H]3C[C@H](O)[C@]12C

>  <Structure_dimension>  (1947) 
2D

$$$$
MS2019
     RDKit          2D

 29 32  0  0  0  0  0  0  0  0999 V2000
   -4.2628   -2.8438    0.0000 C   0  0  0  0  0  0  0  0  0  0  0  0
   -3.2337   -1.7525    0.0000 C   0  0  0  0  0  0  0  0  0  0  0  0
   -3.6642   -0.3156    0.0000 C   0  0  0  0  0  0  0  0  0  0  0  0
   -5.1238    0.0300    0.0000 C   0  0  0  0  0  0  0  0  0  0  0  0
   -5.5544    1.4669    0.0000 C   0  0  0  0  0  0  0  0  0  0  0  0
   -7.0140    1.8125    0.0000 O   0  0  0  0  0  0  0  0  0  0  0  0
   -4.5252    2.5582    0.0000 O   0  0  0  0  0  0  0  0  0  0  0  0
   -4.9557    3.9951    0.0000 O   0  0  0  0  0  0  0  0  0  0  0  0
   -1.7741   -2.0981    0.0000 C   0  0  0  0  0  0  0  0  0  0  0  0
   -1.1957   -3.4822    0.0000 C   0  0  0  0  0  0  0  0  0  0  0  0
    0.2993   -3.3598    0.0000 C   0  0  0  0  0  0  0  0  0  0  0  0
    0.6449   -1.9002    0.0000 C   0  0  0  0  0  0  0  0  0  0  0  0
    1.9609   -1.1803    0.0000 C   0  0  0  0  0  0  0  0  0  0  0  0
    3.2423   -1.9601    0.0000 C   0  0  0  0  0  0  0  0  0  0  0  0
    3.2077   -3.4597    0.0000 O   0  0  0  0  0  0  0  0  0  0  0  0
    4.5583   -1.2402    0.0000 C   0  0  0  0  0  0  0  0  0  0  0  0
    4.5929    0.2594    0.0000 C   0  0  0  0  0  0  0  0  0  0  0  0
    5.9089    0.9792    0.0000 C   0  0  0  0  0  0  0  0  0  0  0  0
    5.9434    2.4788    0.0000 C   0  0  0  0  0  0  0  0  0  0  0  0
    4.6620    3.2586    0.0000 C   0  0  0  0  0  0  0  0  0  0  0  0
    3.3461    2.5387    0.0000 C   0  0  0  0  0  0  0  0  0  0  0  0
    3.3115    1.0391    0.0000 C   0  0  0  0  0  0  0  0  0  0  0  0
    2.0301    1.8189    0.0000 C   0  0  0  0  0  0  0  0  0  0  0  0
    1.9955    0.3193    0.0000 C   0  0  0  0  0  0  0  0  0  0  0  0
    0.7141    1.0990    0.0000 C   0  0  0  0  0  0  0  0  0  0  0  0
   -0.6019    0.3792    0.0000 C   0  0  0  0  0  0  0  0  0  0  0  0
   -1.8833    1.1589    0.0000 O   0  0  0  0  0  0  0  0  0  0  0  0
   -0.6365   -1.1204    0.0000 C   0  0  0  0  0  0  0  0  0  0  0  0
   -1.9924   -0.4789    0.0000 C   0  0  0  0  0  0  0  0  0  0  0  0
  2  1  1  6
  2  3  1  0
  3  4  1  0
  4  5  1  0
  5  6  2  0
  5  7  1  0
  7  8  1  0
  2  9  1  0
  9 10  1  6
 10 11  1  0
 12 11  1  6
 12 13  1  0
 13 14  1  1
 14 15  1  1
 14 16  1  0
 17 16  1  1
 17 18  1  0
 18 19  1  0
 19 20  1  0
 20 21  1  0
 21 22  1  0
 22 23  1  6
 22 24  1  0
 24 25  1  6
 25 26  1  0
 26 27  2  0
 26 28  1  0
 28 29  1  6
 28  9  1  0
 28 12  1  0
 24 13  1  0
 22 17  1  0
M  END
>  <MS_ID>  (1948) 
MS2019

>  <SMILES>  (1948) 
C[C@H](CCC(=O)OO)[C@H]1CC[C@H]2[C@@H]3[C@H](O)C[C@@H]4CCCC[C@]4(C)[C@H]3CC(=O)[C@]12C

>  <Structure_dimension>  (1948) 
2D

$$$$
MS2020
     RDKit          2D

 29 32  0  0  0  0  0  0  0  0999 V2000
   -5.0303   -2.1373    0.0000 C   0  0  0  0  0  0  0  0  0  0  0  0
   -3.8594   -1.1998    0.0000 C   0  0  0  0  0  0  0  0  0  0  0  0
   -4.0858    0.2830    0.0000 C   0  0  0  0  0  0  0  0  0  0  0  0
   -5.4831    0.8284    0.0000 C   0  0  0  0  0  0  0  0  0  0  0  0
   -5.7095    2.3112    0.0000 C   0  0  0  0  0  0  0  0  0  0  0  0
   -4.5386    3.2487    0.0000 O   0  0  0  0  0  0  0  0  0  0  0  0
   -7.1069    2.8565    0.0000 O   0  0  0  0  0  0  0  0  0  0  0  0
   -2.4620   -1.7451    0.0000 C   0  0  0  0  0  0  0  0  0  0  0  0
   -2.0818   -3.1961    0.0000 C   0  0  0  0  0  0  0  0  0  0  0  0
   -0.5844   -3.2830    0.0000 C   0  0  0  0  0  0  0  0  0  0  0  0
   -0.0390   -1.8856    0.0000 C   0  0  0  0  0  0  0  0  0  0  0  0
    1.3643   -1.3559    0.0000 C   0  0  0  0  0  0  0  0  0  0  0  0
    2.5248   -2.3063    0.0000 C   0  0  0  0  0  0  0  0  0  0  0  0
    2.2819   -3.7865    0.0000 O   0  0  0  0  0  0  0  0  0  0  0  0
    3.9281   -1.7765    0.0000 C   0  0  0  0  0  0  0  0  0  0  0  0
    4.1710   -0.2963    0.0000 C   0  0  0  0  0  0  0  0  0  0  0  0
    5.5743    0.2334    0.0000 C   0  0  0  0  0  0  0  0  0  0  0  0
    5.8172    1.7136    0.0000 C   0  0  0  0  0  0  0  0  0  0  0  0
    7.2205    2.2434    0.0000 O   0  0  0  0  0  0  0  0  0  0  0  0
    4.6568    2.6641    0.0000 C   0  0  0  0  0  0  0  0  0  0  0  0
    3.2534    2.1343    0.0000 C   0  0  0  0  0  0  0  0  0  0  0  0
    3.0105    0.6541    0.0000 C   0  0  0  0  0  0  0  0  0  0  0  0
    1.8501    1.6046    0.0000 C   0  0  0  0  0  0  0  0  0  0  0  0
    1.6072    0.1244    0.0000 C   0  0  0  0  0  0  0  0  0  0  0  0
    0.4467    1.0748    0.0000 C   0  0  0  0  0  0  0  0  0  0  0  0
   -0.9566    0.5450    0.0000 C   0  0  0  0  0  0  0  0  0  0  0  0
   -2.1170    1.4955    0.0000 C   0  0  0  0  0  0  0  0  0  0  0  0
   -1.1995   -0.9352    0.0000 C   0  0  0  0  0  0  0  0  0  0  0  0
   -2.4529   -0.1112    0.0000 C   0  0  0  0  0  0  0  0  0  0  0  0
  2  1  1  6
  2  3  1  0
  3  4  1  0
  4  5  1  0
  5  6  2  0
  5  7  1  0
  2  8  1  0
  8  9  1  6
  9 10  1  0
 11 10  1  6
 11 12  1  0
 12 13  1  1
 13 14  1  1
 13 15  1  0
 16 15  1  1
 16 17  1  0
 17 18  1  0
 18 19  1  6
 18 20  1  0
 20 21  1  0
 21 22  1  0
 22 23  1  6
 22 24  1  0
 24 25  1  6
 25 26  1  0
 26 27  1  1
 26 28  1  0
 28 29  1  6
 28  8  1  0
 28 11  1  0
 24 12  1  0
 22 16  1  0
M  END
>  <MS_ID>  (1949) 
MS2020

>  <SMILES>  (1949) 
C[C@H](CCC(=O)O)[C@H]1CC[C@H]2[C@@H]3[C@H](O)C[C@@H]4C[C@@H](O)CC[C@]4(C)[C@H]3C[C@H](C)[C@]12C

>  <Structure_dimension>  (1949) 
2D

$$$$
MS2021
     RDKit          2D

 34 38  0  0  0  0  0  0  0  0999 V2000
   -2.1988   -4.3667    0.0000 C   0  0  0  0  0  0  0  0  0  0  0  0
   -1.4461   -3.0693    0.0000 C   0  0  0  0  0  0  0  0  0  0  0  0
   -2.1934   -1.7687    0.0000 C   0  0  0  0  0  0  0  0  0  0  0  0
   -3.6934   -1.7656    0.0000 C   0  0  0  0  0  0  0  0  0  0  0  0
   -4.4407   -0.4650    0.0000 C   0  0  0  0  0  0  0  0  0  0  0  0
   -3.6881    0.8325    0.0000 O   0  0  0  0  0  0  0  0  0  0  0  0
   -5.9407   -0.4619    0.0000 N   0  0  0  0  0  0  0  0  0  0  0  0
   -6.6881    0.8387    0.0000 C   0  0  0  0  0  0  0  0  0  0  0  0
   -5.9354    2.1362    0.0000 C   0  0  0  0  0  0  0  0  0  0  0  0
   -6.6827    3.4368    0.0000 C   0  0  0  0  0  0  0  0  0  0  0  0
   -8.1827    3.4399    0.0000 C   0  0  0  0  0  0  0  0  0  0  0  0
   -8.9354    2.1424    0.0000 C   0  0  0  0  0  0  0  0  0  0  0  0
   -8.1880    0.8418    0.0000 C   0  0  0  0  0  0  0  0  0  0  0  0
    0.0539   -3.0724    0.0000 C   0  0  0  0  0  0  0  0  0  0  0  0
    0.9330   -4.2877    0.0000 C   0  0  0  0  0  0  0  0  0  0  0  0
    2.3606   -3.8271    0.0000 C   0  0  0  0  0  0  0  0  0  0  0  0
    2.3637   -2.3272    0.0000 C   0  0  0  0  0  0  0  0  0  0  0  0
    3.4805   -1.3258    0.0000 C   0  0  0  0  0  0  0  0  0  0  0  0
    4.9061   -1.7922    0.0000 C   0  0  0  0  0  0  0  0  0  0  0  0
    6.0229   -0.7909    0.0000 C   0  0  0  0  0  0  0  0  0  0  0  0
    5.7141    0.6770    0.0000 C   0  0  0  0  0  0  0  0  0  0  0  0
    6.8308    1.6784    0.0000 C   0  0  0  0  0  0  0  0  0  0  0  0
    6.5220    3.1462    0.0000 C   0  0  0  0  0  0  0  0  0  0  0  0
    7.6388    4.1476    0.0000 O   0  0  0  0  0  0  0  0  0  0  0  0
    5.0964    3.6127    0.0000 C   0  0  0  0  0  0  0  0  0  0  0  0
    3.9796    2.6113    0.0000 C   0  0  0  0  0  0  0  0  0  0  0  0
    4.2884    1.1435    0.0000 C   0  0  0  0  0  0  0  0  0  0  0  0
    2.8628    1.6100    0.0000 C   0  0  0  0  0  0  0  0  0  0  0  0
    3.1716    0.1421    0.0000 C   0  0  0  0  0  0  0  0  0  0  0  0
    1.7460    0.6086    0.0000 C   0  0  0  0  0  0  0  0  0  0  0  0
    0.6292   -0.3928    0.0000 C   0  0  0  0  0  0  0  0  0  0  0  0
   -0.7964    0.0737    0.0000 O   0  0  0  0  0  0  0  0  0  0  0  0
    0.9380   -1.8607    0.0000 C   0  0  0  0  0  0  0  0  0  0  0  0
   -0.5285   -1.5458    0.0000 C   0  0  0  0  0  0  0  0  0  0  0  0
  2  1  1  6
  2  3  1  0
  3  4  1  0
  4  5  1  0
  5  6  2  0
  5  7  1  0
  7  8  1  0
  8  9  2  0
  9 10  1  0
 10 11  2  0
 11 12  1  0
 12 13  2  0
  2 14  1  0
 14 15  1  6
 15 16  1  0
 17 16  1  6
 17 18  1  0
 18 19  1  1
 19 20  1  0
 21 20  1  1
 21 22  1  0
 22 23  1  0
 23 24  1  1
 23 25  1  0
 25 26  1  0
 26 27  1  0
 27 28  1  6
 27 29  1  0
 29 30  1  6
 30 31  1  0
 31 32  1  1
 31 33  1  0
 33 34  1  6
 13  8  1  0
 33 14  1  0
 33 17  1  0
 29 18  1  0
 27 21  1  0
M  END
>  <MS_ID>  (1950) 
MS2021

>  <SMILES>  (1950) 
C[C@H](CCC(=O)Nc1ccccc1)[C@H]1CC[C@H]2[C@@H]3CC[C@@H]4C[C@H](O)CC[C@]4(C)[C@H]3C[C@H](O)[C@]12C

>  <Structure_dimension>  (1950) 
2D

$$$$
MS2022
     RDKit          2D

 29 32  0  0  0  0  0  0  0  0999 V2000
   -5.0303   -2.1373    0.0000 C   0  0  0  0  0  0  0  0  0  0  0  0
   -3.8594   -1.1998    0.0000 C   0  0  0  0  0  0  0  0  0  0  0  0
   -4.0858    0.2830    0.0000 C   0  0  0  0  0  0  0  0  0  0  0  0
   -5.4831    0.8284    0.0000 C   0  0  0  0  0  0  0  0  0  0  0  0
   -5.7095    2.3112    0.0000 C   0  0  0  0  0  0  0  0  0  0  0  0
   -4.5386    3.2487    0.0000 O   0  0  0  0  0  0  0  0  0  0  0  0
   -7.1069    2.8565    0.0000 O   0  0  0  0  0  0  0  0  0  0  0  0
   -2.4620   -1.7451    0.0000 C   0  0  0  0  0  0  0  0  0  0  0  0
   -2.0818   -3.1961    0.0000 C   0  0  0  0  0  0  0  0  0  0  0  0
   -0.5844   -3.2830    0.0000 C   0  0  0  0  0  0  0  0  0  0  0  0
   -0.0390   -1.8856    0.0000 C   0  0  0  0  0  0  0  0  0  0  0  0
    1.3643   -1.3559    0.0000 C   0  0  0  0  0  0  0  0  0  0  0  0
    2.5248   -2.3063    0.0000 C   0  0  0  0  0  0  0  0  0  0  0  0
    2.2819   -3.7865    0.0000 O   0  0  0  0  0  0  0  0  0  0  0  0
    3.9281   -1.7765    0.0000 C   0  0  0  0  0  0  0  0  0  0  0  0
    4.1710   -0.2963    0.0000 C   0  0  0  0  0  0  0  0  0  0  0  0
    5.5743    0.2334    0.0000 C   0  0  0  0  0  0  0  0  0  0  0  0
    5.8172    1.7136    0.0000 C   0  0  0  0  0  0  0  0  0  0  0  0
    7.2205    2.2434    0.0000 O   0  0  0  0  0  0  0  0  0  0  0  0
    4.6568    2.6641    0.0000 C   0  0  0  0  0  0  0  0  0  0  0  0
    3.2534    2.1343    0.0000 C   0  0  0  0  0  0  0  0  0  0  0  0
    3.0105    0.6541    0.0000 C   0  0  0  0  0  0  0  0  0  0  0  0
    1.8501    1.6046    0.0000 C   0  0  0  0  0  0  0  0  0  0  0  0
    1.6072    0.1244    0.0000 C   0  0  0  0  0  0  0  0  0  0  0  0
    0.4467    1.0748    0.0000 C   0  0  0  0  0  0  0  0  0  0  0  0
   -0.9566    0.5450    0.0000 C   0  0  0  0  0  0  0  0  0  0  0  0
   -2.1170    1.4955    0.0000 C   0  0  0  0  0  0  0  0  0  0  0  0
   -1.1995   -0.9352    0.0000 C   0  0  0  0  0  0  0  0  0  0  0  0
   -2.4529   -0.1112    0.0000 C   0  0  0  0  0  0  0  0  0  0  0  0
  2  1  1  6
  2  3  1  0
  3  4  1  0
  4  5  1  0
  5  6  2  0
  5  7  1  0
  2  8  1  0
  8  9  1  6
  9 10  1  0
 11 10  1  6
 11 12  1  0
 12 13  1  1
 13 14  1  6
 13 15  1  0
 16 15  1  1
 16 17  1  0
 17 18  1  0
 18 19  1  6
 18 20  1  0
 20 21  1  0
 21 22  1  0
 22 23  1  6
 22 24  1  0
 24 25  1  6
 25 26  1  0
 26 27  1  1
 26 28  1  0
 28 29  1  6
 28  8  1  0
 28 11  1  0
 24 12  1  0
 22 16  1  0
M  END
>  <MS_ID>  (1951) 
MS2022

>  <SMILES>  (1951) 
C[C@H](CCC(=O)O)[C@H]1CC[C@H]2[C@@H]3[C@@H](O)C[C@@H]4C[C@@H](O)CC[C@]4(C)[C@H]3C[C@H](C)[C@]12C

>  <Structure_dimension>  (1951) 
2D

$$$$
MS2023
     RDKit          2D

 32 35  0  0  0  0  0  0  0  0999 V2000
   -3.3600   -3.6470    0.0000 C   0  0  0  0  0  0  0  0  0  0  0  0
   -2.4640   -2.4440    0.0000 C   0  0  0  0  0  0  0  0  0  0  0  0
   -3.0579   -1.0666    0.0000 C   0  0  0  0  0  0  0  0  0  0  0  0
   -4.5477   -0.8922    0.0000 C   0  0  0  0  0  0  0  0  0  0  0  0
   -5.1416    0.4852    0.0000 C   0  0  0  0  0  0  0  0  0  0  0  0
   -4.2456    1.6883    0.0000 O   0  0  0  0  0  0  0  0  0  0  0  0
   -6.6314    0.6596    0.0000 N   0  0  0  0  0  0  0  0  0  0  0  0
   -7.2253    2.0371    0.0000 S   0  0  0  0  0  0  0  0  0  0  0  0
   -8.6027    1.4432    0.0000 O   0  0  0  0  0  0  0  0  0  0  0  0
   -5.8479    2.6309    0.0000 O   0  0  0  0  0  0  0  0  0  0  0  0
   -7.8192    3.4145    0.0000 O   0  0  0  0  0  0  0  0  0  0  0  0
   -0.9742   -2.6184    0.0000 C   0  0  0  0  0  0  0  0  0  0  0  0
   -0.2396   -3.9262    0.0000 C   0  0  0  0  0  0  0  0  0  0  0  0
    1.2312   -3.6317    0.0000 C   0  0  0  0  0  0  0  0  0  0  0  0
    1.4056   -2.1419    0.0000 C   0  0  0  0  0  0  0  0  0  0  0  0
    2.6295   -1.2746    0.0000 C   0  0  0  0  0  0  0  0  0  0  0  0
    3.9925   -1.9008    0.0000 C   0  0  0  0  0  0  0  0  0  0  0  0
    4.1317   -3.3944    0.0000 O   0  0  0  0  0  0  0  0  0  0  0  0
    5.2163   -1.0336    0.0000 C   0  0  0  0  0  0  0  0  0  0  0  0
    5.0772    0.4600    0.0000 C   0  0  0  0  0  0  0  0  0  0  0  0
    6.3010    1.3273    0.0000 C   0  0  0  0  0  0  0  0  0  0  0  0
    6.1619    2.8208    0.0000 C   0  0  0  0  0  0  0  0  0  0  0  0
    7.3857    3.6881    0.0000 O   0  0  0  0  0  0  0  0  0  0  0  0
    4.7989    3.4470    0.0000 C   0  0  0  0  0  0  0  0  0  0  0  0
    3.5750    2.5798    0.0000 C   0  0  0  0  0  0  0  0  0  0  0  0
    3.7142    1.0862    0.0000 C   0  0  0  0  0  0  0  0  0  0  0  0
    2.3511    1.7125    0.0000 C   0  0  0  0  0  0  0  0  0  0  0  0
    2.4903    0.2189    0.0000 C   0  0  0  0  0  0  0  0  0  0  0  0
    1.1273    0.8452    0.0000 C   0  0  0  0  0  0  0  0  0  0  0  0
   -0.0966   -0.0221    0.0000 C   0  0  0  0  0  0  0  0  0  0  0  0
    0.0426   -1.5156    0.0000 C   0  0  0  0  0  0  0  0  0  0  0  0
   -1.3784   -1.0353    0.0000 C   0  0  0  0  0  0  0  0  0  0  0  0
  2  1  1  6
  2  3  1  0
  3  4  1  0
  4  5  1  0
  5  6  2  0
  5  7  1  0
  7  8  1  0
  8  9  2  0
  8 10  2  0
  8 11  1  0
  2 12  1  0
 12 13  1  6
 13 14  1  0
 15 14  1  6
 15 16  1  0
 16 17  1  1
 17 18  1  1
 17 19  1  0
 20 19  1  1
 20 21  1  0
 21 22  1  0
 22 23  1  6
 22 24  1  0
 24 25  1  0
 25 26  1  0
 26 27  1  6
 26 28  1  0
 28 29  1  6
 29 30  1  0
 30 31  1  0
 31 32  1  6
 31 12  1  0
 31 15  1  0
 28 16  1  0
 26 20  1  0
M  END
>  <MS_ID>  (1952) 
MS2023

>  <SMILES>  (1952) 
C[C@H](CCC(=O)NS(=O)(=O)O)[C@H]1CC[C@H]2[C@@H]3[C@H](O)C[C@@H]4C[C@@H](O)CC[C@]4(C)[C@H]3CC[C@]12C

>  <Structure_dimension>  (1952) 
2D

$$$$
MS2024
     RDKit          2D

 31 34  0  0  0  0  0  0  0  0999 V2000
   -4.9948   -2.3959    0.0000 C   0  0  0  0  0  0  0  0  0  0  0  0
   -3.9438   -1.3256    0.0000 C   0  0  0  0  0  0  0  0  0  0  0  0
   -4.3452    0.1197    0.0000 C   0  0  0  0  0  0  0  0  0  0  0  0
   -5.7976    0.4947    0.0000 C   0  0  0  0  0  0  0  0  0  0  0  0
   -6.1990    1.9400    0.0000 C   0  0  0  0  0  0  0  0  0  0  0  0
   -5.1480    3.0103    0.0000 O   0  0  0  0  0  0  0  0  0  0  0  0
   -7.6514    2.3150    0.0000 O   0  0  0  0  0  0  0  0  0  0  0  0
   -2.4914   -1.7006    0.0000 C   0  0  0  0  0  0  0  0  0  0  0  0
   -1.9412   -3.0960    0.0000 C   0  0  0  0  0  0  0  0  0  0  0  0
   -0.4440   -3.0039    0.0000 C   0  0  0  0  0  0  0  0  0  0  0  0
   -0.0690   -1.5515    0.0000 C   0  0  0  0  0  0  0  0  0  0  0  0
    1.2613   -0.8584    0.0000 C   0  0  0  0  0  0  0  0  0  0  0  0
    2.5267   -1.6638    0.0000 C   0  0  0  0  0  0  0  0  0  0  0  0
    2.4618   -3.1624    0.0000 C   0  0  0  0  0  0  0  0  0  0  0  0
    3.7272   -3.9679    0.0000 C   0  0  0  0  0  0  0  0  0  0  0  0
    3.6624   -5.4665    0.0000 O   0  0  0  0  0  0  0  0  0  0  0  0
    3.8569   -0.9707    0.0000 C   0  0  0  0  0  0  0  0  0  0  0  0
    3.9218    0.5279    0.0000 C   0  0  0  0  0  0  0  0  0  0  0  0
    5.2520    1.2210    0.0000 C   0  0  0  0  0  0  0  0  0  0  0  0
    5.3169    2.7196    0.0000 C   0  0  0  0  0  0  0  0  0  0  0  0
    6.6471    3.4128    0.0000 O   0  0  0  0  0  0  0  0  0  0  0  0
    4.0515    3.5251    0.0000 C   0  0  0  0  0  0  0  0  0  0  0  0
    2.7212    2.8319    0.0000 C   0  0  0  0  0  0  0  0  0  0  0  0
    2.6564    1.3334    0.0000 C   0  0  0  0  0  0  0  0  0  0  0  0
    1.3910    2.1388    0.0000 C   0  0  0  0  0  0  0  0  0  0  0  0
    1.3261    0.6402    0.0000 C   0  0  0  0  0  0  0  0  0  0  0  0
    0.0607    1.4457    0.0000 C   0  0  0  0  0  0  0  0  0  0  0  0
   -1.2695    0.7525    0.0000 C   0  0  0  0  0  0  0  0  0  0  0  0
   -2.5349    1.5580    0.0000 O   0  0  0  0  0  0  0  0  0  0  0  0
   -1.3344   -0.7460    0.0000 C   0  0  0  0  0  0  0  0  0  0  0  0
   -2.6770   -0.0773    0.0000 C   0  0  0  0  0  0  0  0  0  0  0  0
  2  1  1  6
  2  3  1  0
  3  4  1  0
  4  5  1  0
  5  6  2  0
  5  7  1  0
  2  8  1  0
  8  9  1  6
  9 10  1  0
 11 10  1  6
 11 12  1  0
 12 13  1  1
 13 14  1  1
 14 15  1  0
 15 16  1  0
 13 17  1  0
 18 17  1  1
 18 19  1  0
 19 20  1  0
 20 21  2  0
 20 22  1  0
 22 23  1  0
 23 24  1  0
 24 25  1  6
 24 26  1  0
 26 27  1  6
 27 28  1  0
 28 29  1  1
 28 30  1  0
 30 31  1  6
 30  8  1  0
 30 11  1  0
 26 12  1  0
 24 18  1  0
M  END
>  <MS_ID>  (1953) 
MS2024

>  <SMILES>  (1953) 
C[C@H](CCC(=O)O)[C@H]1CC[C@H]2[C@@H]3[C@H](CCO)C[C@@H]4CC(=O)CC[C@]4(C)[C@H]3C[C@H](O)[C@]12C

>  <Structure_dimension>  (1953) 
2D

$$$$
MS2025
     RDKit          2D

 32 36  0  0  0  0  0  0  0  0999 V2000
   -6.3766   -1.6468    0.0000 C   0  0  0  0  0  0  0  0  0  0  0  0
   -5.0756   -0.9002    0.0000 C   0  0  0  0  0  0  0  0  0  0  0  0
   -5.0716    0.5998    0.0000 C   0  0  0  0  0  0  0  0  0  0  0  0
   -6.3687    1.3532    0.0000 C   0  0  0  0  0  0  0  0  0  0  0  0
   -6.3647    2.8532    0.0000 C   0  0  0  0  0  0  0  0  0  0  0  0
   -5.0637    3.5998    0.0000 O   0  0  0  0  0  0  0  0  0  0  0  0
   -7.6617    3.6066    0.0000 O   0  0  0  0  0  0  0  0  0  0  0  0
   -3.7785   -1.6537    0.0000 C   0  0  0  0  0  0  0  0  0  0  0  0
   -3.6257   -3.1459    0.0000 C   0  0  0  0  0  0  0  0  0  0  0  0
   -2.1593   -3.4616    0.0000 C   0  0  0  0  0  0  0  0  0  0  0  0
   -1.4059   -2.1646    0.0000 C   0  0  0  0  0  0  0  0  0  0  0  0
    0.0622   -1.8566    0.0000 C   0  0  0  0  0  0  0  0  0  0  0  0
    1.0629   -2.9740    0.0000 C   0  0  0  0  0  0  0  0  0  0  0  0
    2.5310   -2.6660    0.0000 C   0  0  0  0  0  0  0  0  0  0  0  0
    2.9983   -1.2406    0.0000 C   0  0  0  0  0  0  0  0  0  0  0  0
    4.4663   -0.9326    0.0000 C   0  0  0  0  0  0  0  0  0  0  0  0
    4.9336    0.4927    0.0000 C   0  0  0  0  0  0  0  0  0  0  0  0
    6.4016    0.8007    0.0000 N   0  0  0  0  0  0  0  0  0  0  0  0
    7.0154    2.1694    0.0000 C   0  0  0  0  0  0  0  0  0  0  0  0
    8.5067    2.0086    0.0000 C   0  0  0  0  0  0  0  0  0  0  0  0
    8.8147    0.5406    0.0000 N   0  0  0  0  0  0  0  0  0  0  0  0
    7.5137   -0.2060    0.0000 C   0  0  0  0  0  0  0  0  0  0  0  0
    3.9329    1.6101    0.0000 C   0  0  0  0  0  0  0  0  0  0  0  0
    2.4648    1.3021    0.0000 C   0  0  0  0  0  0  0  0  0  0  0  0
    1.9975   -0.1233    0.0000 C   0  0  0  0  0  0  0  0  0  0  0  0
    0.9968    0.9941    0.0000 C   0  0  0  0  0  0  0  0  0  0  0  0
    0.5295   -0.4312    0.0000 C   0  0  0  0  0  0  0  0  0  0  0  0
   -0.4713    0.6861    0.0000 C   0  0  0  0  0  0  0  0  0  0  0  0
   -1.9393    0.3782    0.0000 C   0  0  0  0  0  0  0  0  0  0  0  0
   -2.9400    1.4955    0.0000 O   0  0  0  0  0  0  0  0  0  0  0  0
   -2.4066   -1.0472    0.0000 C   0  0  0  0  0  0  0  0  0  0  0  0
   -3.5187   -0.0405    0.0000 C   0  0  0  0  0  0  0  0  0  0  0  0
  2  1  1  6
  2  3  1  0
  3  4  1  0
  4  5  1  0
  5  6  2  0
  5  7  1  0
  2  8  1  0
  8  9  1  6
  9 10  1  0
 11 10  1  6
 11 12  1  0
 12 13  1  1
 13 14  1  0
 15 14  1  1
 15 16  1  0
 16 17  1  0
 17 18  1  1
 18 19  1  0
 19 20  2  0
 20 21  1  0
 21 22  2  0
 17 23  1  0
 23 24  1  0
 24 25  1  0
 25 26  1  6
 25 27  1  0
 27 28  1  6
 28 29  1  0
 29 30  1  6
 29 31  1  0
 31 32  1  6
 31  8  1  0
 31 11  1  0
 27 12  1  0
 25 15  1  0
 22 18  1  0
M  END
>  <MS_ID>  (1954) 
MS2025

>  <SMILES>  (1954) 
C[C@H](CCC(=O)O)[C@H]1CC[C@H]2[C@@H]3CC[C@@H]4C[C@H](n5ccnc5)CC[C@]4(C)[C@H]3C[C@@H](O)[C@]12C

>  <Structure_dimension>  (1954) 
2D

$$$$
MS2027
     RDKit          2D

 32 35  0  0  0  0  0  0  0  0999 V2000
   -3.6789   -3.4957    0.0000 C   0  0  0  0  0  0  0  0  0  0  0  0
   -2.7800   -2.2949    0.0000 C   0  0  0  0  0  0  0  0  0  0  0  0
   -3.3705   -0.9160    0.0000 C   0  0  0  0  0  0  0  0  0  0  0  0
   -4.8598   -0.7379    0.0000 C   0  0  0  0  0  0  0  0  0  0  0  0
   -5.4503    0.6410    0.0000 C   0  0  0  0  0  0  0  0  0  0  0  0
   -4.5514    1.8418    0.0000 O   0  0  0  0  0  0  0  0  0  0  0  0
   -6.9397    0.8191    0.0000 N   0  0  0  0  0  0  0  0  0  0  0  0
   -7.5302    2.1980    0.0000 C   0  0  0  0  0  0  0  0  0  0  0  0
   -9.0196    2.3760    0.0000 C   0  0  0  0  0  0  0  0  0  0  0  0
  -10.5089    2.5541    0.0000 N   0  0  0  0  0  0  0  0  0  0  0  0
   -1.2906   -2.4730    0.0000 C   0  0  0  0  0  0  0  0  0  0  0  0
   -0.5592   -3.7826    0.0000 C   0  0  0  0  0  0  0  0  0  0  0  0
    0.9123   -3.4918    0.0000 C   0  0  0  0  0  0  0  0  0  0  0  0
    1.0904   -2.0024    0.0000 C   0  0  0  0  0  0  0  0  0  0  0  0
    2.3164   -1.1381    0.0000 C   0  0  0  0  0  0  0  0  0  0  0  0
    3.6778   -1.7677    0.0000 C   0  0  0  0  0  0  0  0  0  0  0  0
    3.8133   -3.2616    0.0000 O   0  0  0  0  0  0  0  0  0  0  0  0
    4.9038   -0.9035    0.0000 C   0  0  0  0  0  0  0  0  0  0  0  0
    6.2653   -1.5331    0.0000 O   0  0  0  0  0  0  0  0  0  0  0  0
    4.7684    0.5904    0.0000 C   0  0  0  0  0  0  0  0  0  0  0  0
    5.9944    1.4546    0.0000 C   0  0  0  0  0  0  0  0  0  0  0  0
    5.8589    2.9485    0.0000 C   0  0  0  0  0  0  0  0  0  0  0  0
    7.0849    3.8127    0.0000 O   0  0  0  0  0  0  0  0  0  0  0  0
    4.4975    3.5781    0.0000 C   0  0  0  0  0  0  0  0  0  0  0  0
    3.2715    2.7139    0.0000 C   0  0  0  0  0  0  0  0  0  0  0  0
    3.4069    1.2200    0.0000 C   0  0  0  0  0  0  0  0  0  0  0  0
    2.0455    1.8496    0.0000 C   0  0  0  0  0  0  0  0  0  0  0  0
    2.1809    0.3558    0.0000 C   0  0  0  0  0  0  0  0  0  0  0  0
    0.8195    0.9854    0.0000 C   0  0  0  0  0  0  0  0  0  0  0  0
   -0.4065    0.1211    0.0000 C   0  0  0  0  0  0  0  0  0  0  0  0
   -0.2711   -1.3727    0.0000 C   0  0  0  0  0  0  0  0  0  0  0  0
   -1.6909   -0.8889    0.0000 C   0  0  0  0  0  0  0  0  0  0  0  0
  2  1  1  6
  2  3  1  0
  3  4  1  0
  4  5  1  0
  5  6  2  0
  5  7  1  0
  7  8  1  0
  8  9  1  0
  9 10  3  0
  2 11  1  0
 11 12  1  6
 12 13  1  0
 14 13  1  6
 14 15  1  0
 15 16  1  1
 16 17  1  1
 16 18  1  0
 18 19  1  1
 18 20  1  0
 20 21  1  1
 21 22  1  0
 22 23  1  1
 22 24  1  0
 24 25  1  0
 25 26  1  0
 26 27  1  6
 26 28  1  0
 28 29  1  6
 29 30  1  0
 30 31  1  0
 31 32  1  6
 31 11  1  0
 31 14  1  0
 28 15  1  0
 26 20  1  0
M  END
>  <MS_ID>  (1955) 
MS2027

>  <SMILES>  (1955) 
C[C@H](CCC(=O)NCC#N)[C@H]1CC[C@H]2[C@@H]3[C@H](O)[C@H](O)[C@@H]4C[C@H](O)CC[C@]4(C)[C@H]3CC[C@]12C

>  <Structure_dimension>  (1955) 
2D

$$$$
MS2028
     RDKit          2D

 38 42  0  0  0  0  0  0  0  0999 V2000
   -0.7200   -4.1756    0.0000 C   0  0  0  0  0  0  0  0  0  0  0  0
    0.0126   -2.8666    0.0000 C   0  0  0  0  0  0  0  0  0  0  0  0
   -0.7546   -1.5777    0.0000 C   0  0  0  0  0  0  0  0  0  0  0  0
   -2.2545   -1.5977    0.0000 C   0  0  0  0  0  0  0  0  0  0  0  0
   -3.0217   -0.3088    0.0000 C   0  0  0  0  0  0  0  0  0  0  0  0
   -2.2891    1.0002    0.0000 O   0  0  0  0  0  0  0  0  0  0  0  0
   -4.5216   -0.3287    0.0000 C   0  0  0  0  0  0  0  0  0  0  0  0
   -5.2888    0.9602    0.0000 O   0  0  0  0  0  0  0  0  0  0  0  0
   -6.7887    0.9402    0.0000 C   0  0  0  0  0  0  0  0  0  0  0  0
   -7.5559    2.2292    0.0000 C   0  0  0  0  0  0  0  0  0  0  0  0
   -9.0558    2.2092    0.0000 C   0  0  0  0  0  0  0  0  0  0  0  0
   -9.7884    0.9003    0.0000 C   0  0  0  0  0  0  0  0  0  0  0  0
  -11.2883    0.8803    0.0000 N   0  0  0  0  0  0  0  0  0  0  0  0
  -12.0209   -0.4286    0.0000 O   0  0  0  0  0  0  0  0  0  0  0  0
  -12.0555    2.1692    0.0000 O   0  0  0  0  0  0  0  0  0  0  0  0
   -9.0212   -0.3887    0.0000 C   0  0  0  0  0  0  0  0  0  0  0  0
   -7.5213   -0.3687    0.0000 C   0  0  0  0  0  0  0  0  0  0  0  0
    1.5125   -2.8467    0.0000 C   0  0  0  0  0  0  0  0  0  0  0  0
    2.4103   -4.0483    0.0000 C   0  0  0  0  0  0  0  0  0  0  0  0
    3.8306   -3.5659    0.0000 C   0  0  0  0  0  0  0  0  0  0  0  0
    3.8106   -2.0660    0.0000 C   0  0  0  0  0  0  0  0  0  0  0  0
    4.9118   -1.0475    0.0000 C   0  0  0  0  0  0  0  0  0  0  0  0
    6.3445   -1.4920    0.0000 C   0  0  0  0  0  0  0  0  0  0  0  0
    6.6758   -2.9550    0.0000 O   0  0  0  0  0  0  0  0  0  0  0  0
    7.4457   -0.4736    0.0000 C   0  0  0  0  0  0  0  0  0  0  0  0
    7.1143    0.9894    0.0000 C   0  0  0  0  0  0  0  0  0  0  0  0
    8.2156    2.0078    0.0000 C   0  0  0  0  0  0  0  0  0  0  0  0
    7.8842    3.4708    0.0000 C   0  0  0  0  0  0  0  0  0  0  0  0
    8.9854    4.4892    0.0000 O   0  0  0  0  0  0  0  0  0  0  0  0
    6.4516    3.9152    0.0000 C   0  0  0  0  0  0  0  0  0  0  0  0
    5.3503    2.8968    0.0000 C   0  0  0  0  0  0  0  0  0  0  0  0
    5.6817    1.4339    0.0000 C   0  0  0  0  0  0  0  0  0  0  0  0
    4.2491    1.8783    0.0000 C   0  0  0  0  0  0  0  0  0  0  0  0
    4.5804    0.4154    0.0000 C   0  0  0  0  0  0  0  0  0  0  0  0
    3.1478    0.8599    0.0000 C   0  0  0  0  0  0  0  0  0  0  0  0
    2.0466   -0.1586    0.0000 C   0  0  0  0  0  0  0  0  0  0  0  0
    2.3779   -1.6215    0.0000 C   0  0  0  0  0  0  0  0  0  0  0  0
    0.9067   -1.3292    0.0000 C   0  0  0  0  0  0  0  0  0  0  0  0
  2  1  1  6
  2  3  1  0
  3  4  1  0
  4  5  1  0
  5  6  2  0
  5  7  1  0
  7  8  1  0
  8  9  1  0
  9 10  2  0
 10 11  1  0
 11 12  2  0
 12 13  1  0
 13 14  2  0
 13 15  1  0
 12 16  1  0
 16 17  2  0
  2 18  1  0
 18 19  1  6
 19 20  1  0
 21 20  1  6
 21 22  1  0
 22 23  1  1
 23 24  1  1
 23 25  1  0
 26 25  1  1
 26 27  1  0
 27 28  1  0
 28 29  1  1
 28 30  1  0
 30 31  1  0
 31 32  1  0
 32 33  1  6
 32 34  1  0
 34 35  1  6
 35 36  1  0
 36 37  1  0
 37 38  1  6
 17  9  1  0
 37 18  1  0
 37 21  1  0
 34 22  1  0
 32 26  1  0
M  CHG  2  13   1  15  -1
M  END
>  <MS_ID>  (1956) 
MS2028

>  <SMILES>  (1956) 
C[C@H](CCC(=O)COc1ccc([N+](=O)[O-])cc1)[C@H]1CC[C@H]2[C@@H]3[C@H](O)C[C@@H]4C[C@H](O)CC[C@]4(C)[C@H]3CC[C@]12C

>  <Structure_dimension>  (1956) 
2D

$$$$
MS2029
     RDKit          2D

 34 38  0  0  0  0  0  0  0  0999 V2000
   -2.2579   -3.9535    0.0000 C   0  0  0  0  0  0  0  0  0  0  0  0
   -1.4544   -2.6869    0.0000 C   0  0  0  0  0  0  0  0  0  0  0  0
   -2.1495   -1.3577    0.0000 C   0  0  0  0  0  0  0  0  0  0  0  0
   -3.6482   -1.2951    0.0000 C   0  0  0  0  0  0  0  0  0  0  0  0
   -4.3433    0.0341    0.0000 C   0  0  0  0  0  0  0  0  0  0  0  0
   -3.5397    1.3007    0.0000 O   0  0  0  0  0  0  0  0  0  0  0  0
   -5.8420    0.0968    0.0000 O   0  0  0  0  0  0  0  0  0  0  0  0
   -6.5371    1.4260    0.0000 C   0  0  0  0  0  0  0  0  0  0  0  0
   -8.0358    1.4886    0.0000 C   0  0  0  0  0  0  0  0  0  0  0  0
   -8.9673    0.3129    0.0000 C   0  0  0  0  0  0  0  0  0  0  0  0
  -10.3733    0.8356    0.0000 C   0  0  0  0  0  0  0  0  0  0  0  0
  -10.3107    2.3343    0.0000 C   0  0  0  0  0  0  0  0  0  0  0  0
   -8.8660    2.7379    0.0000 O   0  0  0  0  0  0  0  0  0  0  0  0
    0.0443   -2.7496    0.0000 C   0  0  0  0  0  0  0  0  0  0  0  0
    0.8746   -3.9988    0.0000 C   0  0  0  0  0  0  0  0  0  0  0  0
    2.3193   -3.5953    0.0000 C   0  0  0  0  0  0  0  0  0  0  0  0
    2.3819   -2.0966    0.0000 C   0  0  0  0  0  0  0  0  0  0  0  0
    3.5376   -1.1403    0.0000 C   0  0  0  0  0  0  0  0  0  0  0  0
    4.9435   -1.6630    0.0000 C   0  0  0  0  0  0  0  0  0  0  0  0
    5.1939   -3.1420    0.0000 O   0  0  0  0  0  0  0  0  0  0  0  0
    6.0992   -0.7067    0.0000 C   0  0  0  0  0  0  0  0  0  0  0  0
    5.8489    0.7722    0.0000 C   0  0  0  0  0  0  0  0  0  0  0  0
    7.0045    1.7285    0.0000 C   0  0  0  0  0  0  0  0  0  0  0  0
    6.7542    3.2075    0.0000 C   0  0  0  0  0  0  0  0  0  0  0  0
    7.9098    4.1638    0.0000 O   0  0  0  0  0  0  0  0  0  0  0  0
    5.3482    3.7302    0.0000 C   0  0  0  0  0  0  0  0  0  0  0  0
    4.1925    2.7739    0.0000 C   0  0  0  0  0  0  0  0  0  0  0  0
    4.4429    1.2949    0.0000 C   0  0  0  0  0  0  0  0  0  0  0  0
    3.0369    1.8176    0.0000 C   0  0  0  0  0  0  0  0  0  0  0  0
    3.2872    0.3386    0.0000 C   0  0  0  0  0  0  0  0  0  0  0  0
    1.8812    0.8613    0.0000 C   0  0  0  0  0  0  0  0  0  0  0  0
    0.7256   -0.0949    0.0000 C   0  0  0  0  0  0  0  0  0  0  0  0
    0.9759   -1.5739    0.0000 C   0  0  0  0  0  0  0  0  0  0  0  0
   -0.4770   -1.2011    0.0000 C   0  0  0  0  0  0  0  0  0  0  0  0
  2  1  1  6
  2  3  1  0
  3  4  1  0
  4  5  1  0
  5  6  2  0
  5  7  1  0
  7  8  1  0
  8  9  1  0
  9 10  2  0
 10 11  1  0
 11 12  2  0
 12 13  1  0
  2 14  1  0
 14 15  1  6
 15 16  1  0
 17 16  1  6
 17 18  1  0
 18 19  1  1
 19 20  1  1
 19 21  1  0
 22 21  1  1
 22 23  1  0
 23 24  1  0
 24 25  1  1
 24 26  1  0
 26 27  1  0
 27 28  1  0
 28 29  1  6
 28 30  1  0
 30 31  1  6
 31 32  1  0
 32 33  1  0
 33 34  1  6
 13  9  1  0
 33 14  1  0
 33 17  1  0
 30 18  1  0
 28 22  1  0
M  END
>  <MS_ID>  (1957) 
MS2029

>  <SMILES>  (1957) 
C[C@H](CCC(=O)OCc1ccco1)[C@H]1CC[C@H]2[C@@H]3[C@H](O)C[C@@H]4C[C@H](O)CC[C@]4(C)[C@H]3CC[C@]12C

>  <Structure_dimension>  (1957) 
2D

$$$$
MS2030
     RDKit          2D

 34 38  0  0  0  0  0  0  0  0999 V2000
   -2.7422   -3.4682    0.0000 C   0  0  0  0  0  0  0  0  0  0  0  0
   -1.8192   -2.2858    0.0000 C   0  0  0  0  0  0  0  0  0  0  0  0
   -2.3817   -0.8952    0.0000 C   0  0  0  0  0  0  0  0  0  0  0  0
   -3.8672   -0.6871    0.0000 C   0  0  0  0  0  0  0  0  0  0  0  0
   -4.4297    0.7034    0.0000 C   0  0  0  0  0  0  0  0  0  0  0  0
   -3.5067    1.8858    0.0000 O   0  0  0  0  0  0  0  0  0  0  0  0
   -5.9152    0.9116    0.0000 C   0  0  0  0  0  0  0  0  0  0  0  0
   -6.4777    2.3021    0.0000 C   0  0  0  0  0  0  0  0  0  0  0  0
   -7.9632    2.5102    0.0000 C   0  0  0  0  0  0  0  0  0  0  0  0
   -8.8861    1.3278    0.0000 C   0  0  0  0  0  0  0  0  0  0  0  0
  -10.3716    1.5359    0.0000 F   0  0  0  0  0  0  0  0  0  0  0  0
   -8.3236   -0.0627    0.0000 C   0  0  0  0  0  0  0  0  0  0  0  0
   -6.8382   -0.2709    0.0000 C   0  0  0  0  0  0  0  0  0  0  0  0
   -0.3337   -2.4939    0.0000 C   0  0  0  0  0  0  0  0  0  0  0  0
    0.3711   -3.8180    0.0000 C   0  0  0  0  0  0  0  0  0  0  0  0
    1.8482   -3.5569    0.0000 C   0  0  0  0  0  0  0  0  0  0  0  0
    2.0563   -2.0714    0.0000 C   0  0  0  0  0  0  0  0  0  0  0  0
    3.2995   -1.2321    0.0000 C   0  0  0  0  0  0  0  0  0  0  0  0
    4.6480   -1.8891    0.0000 C   0  0  0  0  0  0  0  0  0  0  0  0
    4.7533   -3.3854    0.0000 O   0  0  0  0  0  0  0  0  0  0  0  0
    5.8912   -1.0498    0.0000 C   0  0  0  0  0  0  0  0  0  0  0  0
    5.7859    0.4465    0.0000 C   0  0  0  0  0  0  0  0  0  0  0  0
    7.0291    1.2858    0.0000 C   0  0  0  0  0  0  0  0  0  0  0  0
    6.9238    2.7821    0.0000 C   0  0  0  0  0  0  0  0  0  0  0  0
    8.1670    3.6215    0.0000 O   0  0  0  0  0  0  0  0  0  0  0  0
    5.5754    3.4391    0.0000 C   0  0  0  0  0  0  0  0  0  0  0  0
    4.3322    2.5998    0.0000 C   0  0  0  0  0  0  0  0  0  0  0  0
    4.4374    1.1035    0.0000 C   0  0  0  0  0  0  0  0  0  0  0  0
    3.0890    1.7605    0.0000 C   0  0  0  0  0  0  0  0  0  0  0  0
    3.1942    0.2642    0.0000 C   0  0  0  0  0  0  0  0  0  0  0  0
    1.8458    0.9212    0.0000 C   0  0  0  0  0  0  0  0  0  0  0  0
    0.6026    0.0819    0.0000 C   0  0  0  0  0  0  0  0  0  0  0  0
    0.7078   -1.4144    0.0000 C   0  0  0  0  0  0  0  0  0  0  0  0
   -0.7019   -0.9020    0.0000 C   0  0  0  0  0  0  0  0  0  0  0  0
  2  1  1  6
  2  3  1  0
  3  4  1  0
  4  5  1  0
  5  6  2  0
  5  7  1  0
  7  8  2  0
  8  9  1  0
  9 10  2  0
 10 11  1  0
 10 12  1  0
 12 13  2  0
  2 14  1  0
 14 15  1  6
 15 16  1  0
 17 16  1  6
 17 18  1  0
 18 19  1  1
 19 20  1  1
 19 21  1  0
 22 21  1  1
 22 23  1  0
 23 24  1  0
 24 25  1  1
 24 26  1  0
 26 27  1  0
 27 28  1  0
 28 29  1  6
 28 30  1  0
 30 31  1  6
 31 32  1  0
 32 33  1  0
 33 34  1  6
 13  7  1  0
 33 14  1  0
 33 17  1  0
 30 18  1  0
 28 22  1  0
M  END
>  <MS_ID>  (1958) 
MS2030

>  <SMILES>  (1958) 
C[C@H](CCC(=O)c1ccc(F)cc1)[C@H]1CC[C@H]2[C@@H]3[C@H](O)C[C@@H]4C[C@H](O)CC[C@]4(C)[C@H]3CC[C@]12C

>  <Structure_dimension>  (1958) 
2D

$$$$
MS2031
     RDKit          2D

 32 35  0  0  0  0  0  0  0  0999 V2000
   -3.1421   -3.6694    0.0000 C   0  0  0  0  0  0  0  0  0  0  0  0
   -2.2628   -2.4541    0.0000 C   0  0  0  0  0  0  0  0  0  0  0  0
   -2.8756   -1.0850    0.0000 C   0  0  0  0  0  0  0  0  0  0  0  0
   -4.3676   -0.9311    0.0000 C   0  0  0  0  0  0  0  0  0  0  0  0
   -4.9804    0.4380    0.0000 C   0  0  0  0  0  0  0  0  0  0  0  0
   -4.1011    1.6532    0.0000 O   0  0  0  0  0  0  0  0  0  0  0  0
   -6.4725    0.5919    0.0000 C   0  0  0  0  0  0  0  0  0  0  0  0
   -7.0853    1.9610    0.0000 O   0  0  0  0  0  0  0  0  0  0  0  0
   -8.5774    2.1149    0.0000 C   0  0  0  0  0  0  0  0  0  0  0  0
   -9.1901    3.4840    0.0000 N   0  0  0  0  0  0  0  0  0  0  0  0
   -9.4567    0.8996    0.0000 O   0  0  0  0  0  0  0  0  0  0  0  0
   -0.7707   -2.6080    0.0000 C   0  0  0  0  0  0  0  0  0  0  0  0
   -0.0182   -3.9056    0.0000 C   0  0  0  0  0  0  0  0  0  0  0  0
    1.4484   -3.5909    0.0000 C   0  0  0  0  0  0  0  0  0  0  0  0
    1.6023   -2.0988    0.0000 C   0  0  0  0  0  0  0  0  0  0  0  0
    2.8141   -1.2147    0.0000 C   0  0  0  0  0  0  0  0  0  0  0  0
    4.1856   -1.8222    0.0000 C   0  0  0  0  0  0  0  0  0  0  0  0
    4.3453   -3.3136    0.0000 O   0  0  0  0  0  0  0  0  0  0  0  0
    5.3974   -0.9381    0.0000 C   0  0  0  0  0  0  0  0  0  0  0  0
    5.2377    0.5533    0.0000 C   0  0  0  0  0  0  0  0  0  0  0  0
    6.4495    1.4374    0.0000 C   0  0  0  0  0  0  0  0  0  0  0  0
    6.2898    2.9289    0.0000 C   0  0  0  0  0  0  0  0  0  0  0  0
    7.5016    3.8129    0.0000 O   0  0  0  0  0  0  0  0  0  0  0  0
    4.9183    3.5363    0.0000 C   0  0  0  0  0  0  0  0  0  0  0  0
    3.7065    2.6522    0.0000 C   0  0  0  0  0  0  0  0  0  0  0  0
    3.8662    1.1608    0.0000 C   0  0  0  0  0  0  0  0  0  0  0  0
    2.4947    1.7682    0.0000 C   0  0  0  0  0  0  0  0  0  0  0  0
    2.6544    0.2767    0.0000 C   0  0  0  0  0  0  0  0  0  0  0  0
    1.2829    0.8842    0.0000 C   0  0  0  0  0  0  0  0  0  0  0  0
    0.0711    0.0001    0.0000 C   0  0  0  0  0  0  0  0  0  0  0  0
    0.2308   -1.4914    0.0000 C   0  0  0  0  0  0  0  0  0  0  0  0
   -1.1967   -1.0306    0.0000 C   0  0  0  0  0  0  0  0  0  0  0  0
  2  1  1  6
  2  3  1  0
  3  4  1  0
  4  5  1  0
  5  6  2  0
  5  7  1  0
  7  8  1  0
  8  9  1  0
  9 10  1  0
  9 11  2  0
  2 12  1  0
 12 13  1  6
 13 14  1  0
 15 14  1  6
 15 16  1  0
 16 17  1  1
 17 18  1  1
 17 19  1  0
 20 19  1  1
 20 21  1  0
 21 22  1  0
 22 23  1  1
 22 24  1  0
 24 25  1  0
 25 26  1  0
 26 27  1  6
 26 28  1  0
 28 29  1  6
 29 30  1  0
 30 31  1  0
 31 32  1  6
 31 12  1  0
 31 15  1  0
 28 16  1  0
 26 20  1  0
M  END
>  <MS_ID>  (1959) 
MS2031

>  <SMILES>  (1959) 
C[C@H](CCC(=O)COC(N)=O)[C@H]1CC[C@H]2[C@@H]3[C@H](O)C[C@@H]4C[C@H](O)CC[C@]4(C)[C@H]3CC[C@]12C

>  <Structure_dimension>  (1959) 
2D

$$$$
MS2032
     RDKit          2D

 35 39  0  0  0  0  0  0  0  0999 V2000
   -2.2319   -4.3352    0.0000 C   0  0  0  0  0  0  0  0  0  0  0  0
   -1.5144   -3.0180    0.0000 C   0  0  0  0  0  0  0  0  0  0  0  0
   -2.2965   -1.7380    0.0000 C   0  0  0  0  0  0  0  0  0  0  0  0
   -3.7960   -1.7752    0.0000 C   0  0  0  0  0  0  0  0  0  0  0  0
   -4.5781   -0.4952    0.0000 C   0  0  0  0  0  0  0  0  0  0  0  0
   -3.8606    0.8220    0.0000 O   0  0  0  0  0  0  0  0  0  0  0  0
   -6.0776   -0.5325    0.0000 O   0  0  0  0  0  0  0  0  0  0  0  0
   -6.8597    0.7475    0.0000 C   0  0  0  0  0  0  0  0  0  0  0  0
   -6.1422    2.0648    0.0000 C   0  0  0  0  0  0  0  0  0  0  0  0
   -6.9242    3.3448    0.0000 C   0  0  0  0  0  0  0  0  0  0  0  0
   -8.4238    3.3075    0.0000 C   0  0  0  0  0  0  0  0  0  0  0  0
   -9.1412    1.9902    0.0000 C   0  0  0  0  0  0  0  0  0  0  0  0
   -8.3592    0.7102    0.0000 N   0  0  0  0  0  0  0  0  0  0  0  0
   -0.0149   -2.9807    0.0000 C   0  0  0  0  0  0  0  0  0  0  0  0
    0.8967   -4.1719    0.0000 C   0  0  0  0  0  0  0  0  0  0  0  0
    2.3113   -3.6731    0.0000 C   0  0  0  0  0  0  0  0  0  0  0  0
    2.2740   -2.1736    0.0000 C   0  0  0  0  0  0  0  0  0  0  0  0
    3.3634   -1.1425    0.0000 C   0  0  0  0  0  0  0  0  0  0  0  0
    4.8011   -1.5704    0.0000 C   0  0  0  0  0  0  0  0  0  0  0  0
    5.1493   -3.0294    0.0000 O   0  0  0  0  0  0  0  0  0  0  0  0
    5.8905   -0.5393    0.0000 C   0  0  0  0  0  0  0  0  0  0  0  0
    5.5423    0.9197    0.0000 C   0  0  0  0  0  0  0  0  0  0  0  0
    6.6317    1.9508    0.0000 C   0  0  0  0  0  0  0  0  0  0  0  0
    6.2835    3.4098    0.0000 C   0  0  0  0  0  0  0  0  0  0  0  0
    7.3729    4.4409    0.0000 O   0  0  0  0  0  0  0  0  0  0  0  0
    4.8458    3.8377    0.0000 C   0  0  0  0  0  0  0  0  0  0  0  0
    3.7564    2.8066    0.0000 C   0  0  0  0  0  0  0  0  0  0  0  0
    4.1046    1.3476    0.0000 C   0  0  0  0  0  0  0  0  0  0  0  0
    2.6670    1.7755    0.0000 C   0  0  0  0  0  0  0  0  0  0  0  0
    3.0152    0.3165    0.0000 C   0  0  0  0  0  0  0  0  0  0  0  0
    1.5776    0.7445    0.0000 C   0  0  0  0  0  0  0  0  0  0  0  0
    0.4881   -0.2866    0.0000 C   0  0  0  0  0  0  0  0  0  0  0  0
   -0.9495    0.1413    0.0000 O   0  0  0  0  0  0  0  0  0  0  0  0
    0.8363   -1.7456    0.0000 C   0  0  0  0  0  0  0  0  0  0  0  0
   -0.6382   -1.4703    0.0000 C   0  0  0  0  0  0  0  0  0  0  0  0
  2  1  1  6
  2  3  1  0
  3  4  1  0
  4  5  1  0
  5  6  2  0
  5  7  1  0
  7  8  1  0
  8  9  2  0
  9 10  1  0
 10 11  2  0
 11 12  1  0
 12 13  2  0
  2 14  1  0
 14 15  1  6
 15 16  1  0
 17 16  1  6
 17 18  1  0
 18 19  1  1
 19 20  1  1
 19 21  1  0
 22 21  1  1
 22 23  1  0
 23 24  1  0
 24 25  1  1
 24 26  1  0
 26 27  1  0
 27 28  1  0
 28 29  1  6
 28 30  1  0
 30 31  1  6
 31 32  1  0
 32 33  1  1
 32 34  1  0
 34 35  1  6
 13  8  1  0
 34 14  1  0
 34 17  1  0
 30 18  1  0
 28 22  1  0
M  END
>  <MS_ID>  (1960) 
MS2032

>  <SMILES>  (1960) 
C[C@H](CCC(=O)Oc1ccccn1)[C@H]1CC[C@H]2[C@@H]3[C@H](O)C[C@@H]4C[C@H](O)CC[C@]4(C)[C@H]3C[C@H](O)[C@]12C

>  <Structure_dimension>  (1960) 
2D

$$$$
MS2033
     RDKit          2D

 36 39  0  0  0  0  0  0  0  0999 V2000
   -1.5006   -4.3465    0.0000 C   0  0  0  0  0  0  0  0  0  0  0  0
   -0.8151   -3.0123    0.0000 C   0  0  0  0  0  0  0  0  0  0  0  0
   -1.6277   -1.7515    0.0000 C   0  0  0  0  0  0  0  0  0  0  0  0
   -3.1259   -1.8249    0.0000 C   0  0  0  0  0  0  0  0  0  0  0  0
   -3.9386   -0.5642    0.0000 C   0  0  0  0  0  0  0  0  0  0  0  0
   -3.2531    0.7700    0.0000 O   0  0  0  0  0  0  0  0  0  0  0  0
   -5.4368   -0.6376    0.0000 O   0  0  0  0  0  0  0  0  0  0  0  0
   -6.2495    0.6232    0.0000 C   0  0  0  0  0  0  0  0  0  0  0  0
   -7.7477    0.5498    0.0000 C   0  0  0  0  0  0  0  0  0  0  0  0
   -8.5604    1.8106    0.0000 C   0  0  0  0  0  0  0  0  0  0  0  0
  -10.0586    1.7372    0.0000 S   0  0  0  0  0  0  0  0  0  0  0  0
  -10.1320    3.2354    0.0000 O   0  0  0  0  0  0  0  0  0  0  0  0
   -9.9852    0.2390    0.0000 O   0  0  0  0  0  0  0  0  0  0  0  0
  -11.5568    1.6638    0.0000 O   0  0  0  0  0  0  0  0  0  0  0  0
    0.6831   -2.9389    0.0000 C   0  0  0  0  0  0  0  0  0  0  0  0
    1.6231   -4.1078    0.0000 C   0  0  0  0  0  0  0  0  0  0  0  0
    3.0253   -3.5751    0.0000 C   0  0  0  0  0  0  0  0  0  0  0  0
    2.9519   -2.0769    0.0000 C   0  0  0  0  0  0  0  0  0  0  0  0
    4.0162   -1.0198    0.0000 C   0  0  0  0  0  0  0  0  0  0  0  0
    5.4638   -1.4130    0.0000 C   0  0  0  0  0  0  0  0  0  0  0  0
    5.8471   -2.8632    0.0000 O   0  0  0  0  0  0  0  0  0  0  0  0
    6.5280   -0.3559    0.0000 C   0  0  0  0  0  0  0  0  0  0  0  0
    6.1447    1.0943    0.0000 C   0  0  0  0  0  0  0  0  0  0  0  0
    7.2090    2.1513    0.0000 C   0  0  0  0  0  0  0  0  0  0  0  0
    6.8257    3.6015    0.0000 C   0  0  0  0  0  0  0  0  0  0  0  0
    7.8900    4.6586    0.0000 O   0  0  0  0  0  0  0  0  0  0  0  0
    5.3781    3.9947    0.0000 C   0  0  0  0  0  0  0  0  0  0  0  0
    4.3139    2.9376    0.0000 C   0  0  0  0  0  0  0  0  0  0  0  0
    4.6972    1.4874    0.0000 C   0  0  0  0  0  0  0  0  0  0  0  0
    3.2496    1.8806    0.0000 C   0  0  0  0  0  0  0  0  0  0  0  0
    3.6329    0.4304    0.0000 C   0  0  0  0  0  0  0  0  0  0  0  0
    2.1854    0.8236    0.0000 C   0  0  0  0  0  0  0  0  0  0  0  0
    1.1211   -0.2335    0.0000 C   0  0  0  0  0  0  0  0  0  0  0  0
   -0.3265    0.1597    0.0000 O   0  0  0  0  0  0  0  0  0  0  0  0
    1.5044   -1.6837    0.0000 C   0  0  0  0  0  0  0  0  0  0  0  0
    0.0237   -1.4440    0.0000 C   0  0  0  0  0  0  0  0  0  0  0  0
  2  1  1  6
  2  3  1  0
  3  4  1  0
  4  5  1  0
  5  6  2  0
  5  7  1  0
  7  8  1  0
  8  9  1  0
  9 10  1  0
 10 11  1  0
 11 12  2  0
 11 13  2  0
 11 14  1  0
  2 15  1  0
 15 16  1  6
 16 17  1  0
 18 17  1  6
 18 19  1  0
 19 20  1  1
 20 21  1  1
 20 22  1  0
 23 22  1  1
 23 24  1  0
 24 25  1  0
 25 26  1  1
 25 27  1  0
 27 28  1  0
 28 29  1  0
 29 30  1  6
 29 31  1  0
 31 32  1  6
 32 33  1  0
 33 34  1  1
 33 35  1  0
 35 36  1  6
 35 15  1  0
 35 18  1  0
 31 19  1  0
 29 23  1  0
M  END
>  <MS_ID>  (1961) 
MS2033

>  <SMILES>  (1961) 
C[C@H](CCC(=O)OCCCS(=O)(=O)O)[C@H]1CC[C@H]2[C@@H]3[C@H](O)C[C@@H]4C[C@H](O)CC[C@]4(C)[C@H]3C[C@H](O)[C@]12C

>  <Structure_dimension>  (1961) 
2D

$$$$
MS2034
     RDKit          2D

 29 32  0  0  0  0  0  0  0  0999 V2000
   -4.6551   -2.6180    0.0000 C   0  0  0  0  0  0  0  0  0  0  0  0
   -3.5633   -1.5894    0.0000 C   0  0  0  0  0  0  0  0  0  0  0  0
   -3.9081   -0.1296    0.0000 C   0  0  0  0  0  0  0  0  0  0  0  0
   -5.3448    0.3016    0.0000 C   0  0  0  0  0  0  0  0  0  0  0  0
   -5.6897    1.7615    0.0000 C   0  0  0  0  0  0  0  0  0  0  0  0
   -4.5979    2.7900    0.0000 O   0  0  0  0  0  0  0  0  0  0  0  0
   -7.1264    2.1927    0.0000 N   0  0  0  0  0  0  0  0  0  0  0  0
   -7.4712    3.6525    0.0000 O   0  0  0  0  0  0  0  0  0  0  0  0
   -2.1266   -2.0207    0.0000 C   0  0  0  0  0  0  0  0  0  0  0  0
   -1.6310   -3.4364    0.0000 C   0  0  0  0  0  0  0  0  0  0  0  0
   -0.1314   -3.4026    0.0000 C   0  0  0  0  0  0  0  0  0  0  0  0
    0.2998   -1.9659    0.0000 C   0  0  0  0  0  0  0  0  0  0  0  0
    1.6561   -1.3251    0.0000 C   0  0  0  0  0  0  0  0  0  0  0  0
    2.8892   -2.1792    0.0000 C   0  0  0  0  0  0  0  0  0  0  0  0
    2.7660   -3.6741    0.0000 O   0  0  0  0  0  0  0  0  0  0  0  0
    4.2454   -1.5383    0.0000 C   0  0  0  0  0  0  0  0  0  0  0  0
    4.3685   -0.0434    0.0000 C   0  0  0  0  0  0  0  0  0  0  0  0
    5.7247    0.5975    0.0000 C   0  0  0  0  0  0  0  0  0  0  0  0
    5.8478    2.0924    0.0000 C   0  0  0  0  0  0  0  0  0  0  0  0
    7.2040    2.7332    0.0000 O   0  0  0  0  0  0  0  0  0  0  0  0
    4.6147    2.9465    0.0000 C   0  0  0  0  0  0  0  0  0  0  0  0
    3.2585    2.3056    0.0000 C   0  0  0  0  0  0  0  0  0  0  0  0
    3.1354    0.8107    0.0000 C   0  0  0  0  0  0  0  0  0  0  0  0
    1.9023    1.6648    0.0000 C   0  0  0  0  0  0  0  0  0  0  0  0
    1.7792    0.1699    0.0000 C   0  0  0  0  0  0  0  0  0  0  0  0
    0.5461    1.0239    0.0000 C   0  0  0  0  0  0  0  0  0  0  0  0
   -0.8101    0.3831    0.0000 C   0  0  0  0  0  0  0  0  0  0  0  0
   -0.9333   -1.1118    0.0000 C   0  0  0  0  0  0  0  0  0  0  0  0
   -2.2489   -0.3913    0.0000 C   0  0  0  0  0  0  0  0  0  0  0  0
  2  1  1  6
  2  3  1  0
  3  4  1  0
  4  5  1  0
  5  6  2  0
  5  7  1  0
  7  8  1  0
  2  9  1  0
  9 10  1  6
 10 11  1  0
 12 11  1  6
 12 13  1  0
 13 14  1  1
 14 15  1  6
 14 16  1  0
 17 16  1  1
 17 18  1  0
 18 19  1  0
 19 20  1  6
 19 21  1  0
 21 22  1  0
 22 23  1  0
 23 24  1  6
 23 25  1  0
 25 26  1  6
 26 27  1  0
 27 28  1  0
 28 29  1  6
 28  9  1  0
 28 12  1  0
 25 13  1  0
 23 17  1  0
M  END
>  <MS_ID>  (1962) 
MS2034

>  <SMILES>  (1962) 
C[C@H](CCC(=O)NO)[C@H]1CC[C@H]2[C@@H]3[C@@H](O)C[C@@H]4C[C@@H](O)CC[C@]4(C)[C@H]3CC[C@]12C

>  <Structure_dimension>  (1962) 
2D

$$$$
MS2035
     RDKit          2D

 38 42  0  0  0  0  0  0  0  0999 V2000
   -1.1889   -4.5741    0.0000 C   0  0  0  0  0  0  0  0  0  0  0  0
   -0.5546   -3.2148    0.0000 C   0  0  0  0  0  0  0  0  0  0  0  0
   -1.4147   -1.9859    0.0000 C   0  0  0  0  0  0  0  0  0  0  0  0
   -2.9090   -2.1162    0.0000 C   0  0  0  0  0  0  0  0  0  0  0  0
   -3.7691   -0.8873    0.0000 C   0  0  0  0  0  0  0  0  0  0  0  0
   -3.1348    0.4720    0.0000 O   0  0  0  0  0  0  0  0  0  0  0  0
   -5.2634   -1.0177    0.0000 N   0  0  0  0  0  0  0  0  0  0  0  0
   -6.1235    0.2112    0.0000 C   0  0  0  0  0  0  0  0  0  0  0  0
   -5.4892    1.5706    0.0000 C   0  0  0  0  0  0  0  0  0  0  0  0
   -6.3493    2.7995    0.0000 C   0  0  0  0  0  0  0  0  0  0  0  0
   -7.8436    2.6691    0.0000 C   0  0  0  0  0  0  0  0  0  0  0  0
   -8.7037    3.8980    0.0000 F   0  0  0  0  0  0  0  0  0  0  0  0
   -8.4779    1.3098    0.0000 C   0  0  0  0  0  0  0  0  0  0  0  0
   -9.9722    1.1794    0.0000 F   0  0  0  0  0  0  0  0  0  0  0  0
   -7.6178    0.0809    0.0000 C   0  0  0  0  0  0  0  0  0  0  0  0
   -8.2521   -1.2784    0.0000 F   0  0  0  0  0  0  0  0  0  0  0  0
    0.9397   -3.0844    0.0000 C   0  0  0  0  0  0  0  0  0  0  0  0
    1.9235   -4.2167    0.0000 C   0  0  0  0  0  0  0  0  0  0  0  0
    3.3044   -3.6309    0.0000 C   0  0  0  0  0  0  0  0  0  0  0  0
    3.1740   -2.1366    0.0000 C   0  0  0  0  0  0  0  0  0  0  0  0
    4.1973   -1.0398    0.0000 C   0  0  0  0  0  0  0  0  0  0  0  0
    5.6588   -1.3776    0.0000 C   0  0  0  0  0  0  0  0  0  0  0  0
    6.0970   -2.8122    0.0000 O   0  0  0  0  0  0  0  0  0  0  0  0
    6.6820   -0.2808    0.0000 C   0  0  0  0  0  0  0  0  0  0  0  0
    6.2438    1.1537    0.0000 C   0  0  0  0  0  0  0  0  0  0  0  0
    7.2671    2.2505    0.0000 C   0  0  0  0  0  0  0  0  0  0  0  0
    6.8289    3.6851    0.0000 C   0  0  0  0  0  0  0  0  0  0  0  0
    7.8521    4.7819    0.0000 O   0  0  0  0  0  0  0  0  0  0  0  0
    5.3674    4.0229    0.0000 C   0  0  0  0  0  0  0  0  0  0  0  0
    4.3441    2.9261    0.0000 C   0  0  0  0  0  0  0  0  0  0  0  0
    4.7823    1.4915    0.0000 C   0  0  0  0  0  0  0  0  0  0  0  0
    3.3209    1.8293    0.0000 C   0  0  0  0  0  0  0  0  0  0  0  0
    3.7591    0.3947    0.0000 C   0  0  0  0  0  0  0  0  0  0  0  0
    2.2976    0.7325    0.0000 C   0  0  0  0  0  0  0  0  0  0  0  0
    1.2744   -0.3643    0.0000 C   0  0  0  0  0  0  0  0  0  0  0  0
   -0.1871   -0.0265    0.0000 O   0  0  0  0  0  0  0  0  0  0  0  0
    1.7126   -1.7988    0.0000 C   0  0  0  0  0  0  0  0  0  0  0  0
    0.2238   -1.6157    0.0000 C   0  0  0  0  0  0  0  0  0  0  0  0
  2  1  1  6
  2  3  1  0
  3  4  1  0
  4  5  1  0
  5  6  2  0
  5  7  1  0
  7  8  1  0
  8  9  2  0
  9 10  1  0
 10 11  2  0
 11 12  1  0
 11 13  1  0
 13 14  1  0
 13 15  2  0
 15 16  1  0
  2 17  1  0
 17 18  1  6
 18 19  1  0
 20 19  1  6
 20 21  1  0
 21 22  1  1
 22 23  1  1
 22 24  1  0
 25 24  1  1
 25 26  1  0
 26 27  1  0
 27 28  1  1
 27 29  1  0
 29 30  1  0
 30 31  1  0
 31 32  1  6
 31 33  1  0
 33 34  1  6
 34 35  1  0
 35 36  1  1
 35 37  1  0
 37 38  1  6
 15  8  1  0
 37 17  1  0
 37 20  1  0
 33 21  1  0
 31 25  1  0
M  END
>  <MS_ID>  (1963) 
MS2035

>  <SMILES>  (1963) 
C[C@H](CCC(=O)Nc1ccc(F)c(F)c1F)[C@H]1CC[C@H]2[C@@H]3[C@H](O)C[C@@H]4C[C@H](O)CC[C@]4(C)[C@H]3C[C@H](O)[C@]12C

>  <Structure_dimension>  (1963) 
2D

$$$$
MS2036
     RDKit          2D

 30 33  0  0  0  0  0  0  0  0999 V2000
   -4.5440   -2.7098    0.0000 C   0  0  0  0  0  0  0  0  0  0  0  0
   -3.5955   -1.5478    0.0000 C   0  0  0  0  0  0  0  0  0  0  0  0
   -4.1277   -0.1453    0.0000 C   0  0  0  0  0  0  0  0  0  0  0  0
   -5.6083    0.0950    0.0000 C   0  0  0  0  0  0  0  0  0  0  0  0
   -6.1404    1.4975    0.0000 C   0  0  0  0  0  0  0  0  0  0  0  0
   -5.1920    2.6595    0.0000 O   0  0  0  0  0  0  0  0  0  0  0  0
   -7.6211    1.7378    0.0000 O   0  0  0  0  0  0  0  0  0  0  0  0
   -2.1149   -1.7881    0.0000 C   0  0  0  0  0  0  0  0  0  0  0  0
   -1.4391   -3.1273    0.0000 C   0  0  0  0  0  0  0  0  0  0  0  0
    0.0433   -2.8983    0.0000 C   0  0  0  0  0  0  0  0  0  0  0  0
    0.2837   -1.4177    0.0000 C   0  0  0  0  0  0  0  0  0  0  0  0
    1.5448   -0.6056    0.0000 C   0  0  0  0  0  0  0  0  0  0  0  0
    2.8787   -1.2918    0.0000 C   0  0  0  0  0  0  0  0  0  0  0  0
    2.9514   -2.7900    0.0000 C   0  0  0  0  0  0  0  0  0  0  0  0
    4.2853   -3.4762    0.0000 C   0  0  0  0  0  0  0  0  0  0  0  0
    4.3580   -4.9744    0.0000 O   0  0  0  0  0  0  0  0  0  0  0  0
    4.1399   -0.4797    0.0000 C   0  0  0  0  0  0  0  0  0  0  0  0
    4.0671    1.0186    0.0000 C   0  0  0  0  0  0  0  0  0  0  0  0
    5.3283    1.8306    0.0000 C   0  0  0  0  0  0  0  0  0  0  0  0
    5.2556    3.3289    0.0000 C   0  0  0  0  0  0  0  0  0  0  0  0
    3.9217    4.0150    0.0000 C   0  0  0  0  0  0  0  0  0  0  0  0
    2.6606    3.2029    0.0000 C   0  0  0  0  0  0  0  0  0  0  0  0
    2.7333    1.7047    0.0000 C   0  0  0  0  0  0  0  0  0  0  0  0
    1.3994    2.3908    0.0000 C   0  0  0  0  0  0  0  0  0  0  0  0
    1.4721    0.8926    0.0000 C   0  0  0  0  0  0  0  0  0  0  0  0
    0.1382    1.5787    0.0000 C   0  0  0  0  0  0  0  0  0  0  0  0
   -1.1229    0.7667    0.0000 C   0  0  0  0  0  0  0  0  0  0  0  0
   -2.4568    1.4528    0.0000 O   0  0  0  0  0  0  0  0  0  0  0  0
   -1.0502   -0.7316    0.0000 C   0  0  0  0  0  0  0  0  0  0  0  0
   -2.4485   -0.1886    0.0000 C   0  0  0  0  0  0  0  0  0  0  0  0
  2  1  1  6
  2  3  1  0
  3  4  1  0
  4  5  1  0
  5  6  2  0
  5  7  1  0
  2  8  1  0
  8  9  1  6
  9 10  1  0
 11 10  1  6
 11 12  1  0
 12 13  1  1
 13 14  1  1
 14 15  1  0
 15 16  1  0
 13 17  1  0
 18 17  1  1
 18 19  1  0
 19 20  1  0
 20 21  1  0
 21 22  1  0
 22 23  1  0
 23 24  1  6
 23 25  1  0
 25 26  1  6
 26 27  1  0
 27 28  1  1
 27 29  1  0
 29 30  1  6
 29  8  1  0
 29 11  1  0
 25 12  1  0
 23 18  1  0
M  END
>  <MS_ID>  (1964) 
MS2036

>  <SMILES>  (1964) 
C[C@H](CCC(=O)O)[C@H]1CC[C@H]2[C@@H]3[C@H](CCO)C[C@@H]4CCCC[C@]4(C)[C@H]3C[C@H](O)[C@]12C

>  <Structure_dimension>  (1964) 
2D

$$$$
MS2037
     RDKit          2D

 34 37  0  0  0  0  0  0  0  0999 V2000
   -2.0977   -4.2052    0.0000 C   0  0  0  0  0  0  0  0  0  0  0  0
   -1.3153   -2.9254    0.0000 C   0  0  0  0  0  0  0  0  0  0  0  0
   -2.0324   -1.6079    0.0000 C   0  0  0  0  0  0  0  0  0  0  0  0
   -3.5319   -1.5702    0.0000 C   0  0  0  0  0  0  0  0  0  0  0  0
   -4.2490   -0.2527    0.0000 C   0  0  0  0  0  0  0  0  0  0  0  0
   -3.4665    1.0271    0.0000 O   0  0  0  0  0  0  0  0  0  0  0  0
   -5.7485   -0.2149    0.0000 O   0  0  0  0  0  0  0  0  0  0  0  0
   -6.4655    1.1026    0.0000 C   0  0  0  0  0  0  0  0  0  0  0  0
   -7.9651    1.1403    0.0000 C   0  0  0  0  0  0  0  0  0  0  0  0
   -8.7475   -0.1394    0.0000 O   0  0  0  0  0  0  0  0  0  0  0  0
   -8.6821    2.4578    0.0000 C   0  0  0  0  0  0  0  0  0  0  0  0
   -7.8997    3.7376    0.0000 O   0  0  0  0  0  0  0  0  0  0  0  0
  -10.1817    2.4956    0.0000 O   0  0  0  0  0  0  0  0  0  0  0  0
    0.1842   -2.9632    0.0000 C   0  0  0  0  0  0  0  0  0  0  0  0
    1.0351   -4.1985    0.0000 C   0  0  0  0  0  0  0  0  0  0  0  0
    2.4729   -3.7711    0.0000 C   0  0  0  0  0  0  0  0  0  0  0  0
    2.5106   -2.2715    0.0000 C   0  0  0  0  0  0  0  0  0  0  0  0
    3.6503   -1.2962    0.0000 C   0  0  0  0  0  0  0  0  0  0  0  0
    5.0647   -1.7955    0.0000 C   0  0  0  0  0  0  0  0  0  0  0  0
    6.2044   -0.8202    0.0000 C   0  0  0  0  0  0  0  0  0  0  0  0
    5.9295    0.6544    0.0000 C   0  0  0  0  0  0  0  0  0  0  0  0
    7.0691    1.6298    0.0000 C   0  0  0  0  0  0  0  0  0  0  0  0
    6.7943    3.1044    0.0000 C   0  0  0  0  0  0  0  0  0  0  0  0
    7.9339    4.0797    0.0000 O   0  0  0  0  0  0  0  0  0  0  0  0
    5.3798    3.6036    0.0000 C   0  0  0  0  0  0  0  0  0  0  0  0
    4.2402    2.6283    0.0000 C   0  0  0  0  0  0  0  0  0  0  0  0
    4.5151    1.1537    0.0000 C   0  0  0  0  0  0  0  0  0  0  0  0
    3.1006    1.6530    0.0000 C   0  0  0  0  0  0  0  0  0  0  0  0
    3.3754    0.1784    0.0000 C   0  0  0  0  0  0  0  0  0  0  0  0
    1.9610    0.6777    0.0000 C   0  0  0  0  0  0  0  0  0  0  0  0
    0.8213   -0.2976    0.0000 C   0  0  0  0  0  0  0  0  0  0  0  0
   -0.5931    0.2016    0.0000 O   0  0  0  0  0  0  0  0  0  0  0  0
    1.0962   -1.7723    0.0000 C   0  0  0  0  0  0  0  0  0  0  0  0
   -0.3627   -1.4236    0.0000 C   0  0  0  0  0  0  0  0  0  0  0  0
  2  1  1  6
  2  3  1  0
  3  4  1  0
  4  5  1  0
  5  6  2  0
  5  7  1  0
  7  8  1  0
  8  9  1  0
  9 10  2  0
  9 11  1  0
 11 12  2  0
 11 13  1  0
  2 14  1  0
 14 15  1  6
 15 16  1  0
 17 16  1  6
 17 18  1  0
 18 19  1  1
 19 20  1  0
 21 20  1  1
 21 22  1  0
 22 23  1  0
 23 24  1  1
 23 25  1  0
 25 26  1  0
 26 27  1  0
 27 28  1  6
 27 29  1  0
 29 30  1  6
 30 31  1  0
 31 32  1  1
 31 33  1  0
 33 34  1  6
 33 14  1  0
 33 17  1  0
 29 18  1  0
 27 21  1  0
M  END
>  <MS_ID>  (1965) 
MS2037

>  <SMILES>  (1965) 
C[C@H](CCC(=O)OCC(=O)C(=O)O)[C@H]1CC[C@H]2[C@@H]3CC[C@@H]4C[C@H](O)CC[C@]4(C)[C@H]3C[C@H](O)[C@]12C

>  <Structure_dimension>  (1965) 
2D

$$$$
MS2038
     RDKit          2D

 31 34  0  0  0  0  0  0  0  0999 V2000
   -4.3735   -2.9763    0.0000 C   0  0  0  0  0  0  0  0  0  0  0  0
   -3.3227   -1.9059    0.0000 C   0  0  0  0  0  0  0  0  0  0  0  0
   -3.7243   -0.4607    0.0000 C   0  0  0  0  0  0  0  0  0  0  0  0
   -5.1767   -0.0858    0.0000 C   0  0  0  0  0  0  0  0  0  0  0  0
   -5.5783    1.3594    0.0000 C   0  0  0  0  0  0  0  0  0  0  0  0
   -7.0307    1.7342    0.0000 O   0  0  0  0  0  0  0  0  0  0  0  0
   -4.5274    2.4298    0.0000 S   0  0  0  0  0  0  0  0  0  0  0  0
   -5.5978    3.4806    0.0000 O   0  0  0  0  0  0  0  0  0  0  0  0
   -3.4570    1.3790    0.0000 O   0  0  0  0  0  0  0  0  0  0  0  0
   -3.4766    3.5002    0.0000 O   0  0  0  0  0  0  0  0  0  0  0  0
   -1.8703   -2.2808    0.0000 C   0  0  0  0  0  0  0  0  0  0  0  0
   -1.3198   -3.6761    0.0000 C   0  0  0  0  0  0  0  0  0  0  0  0
    0.1774   -3.5838    0.0000 C   0  0  0  0  0  0  0  0  0  0  0  0
    0.5522   -2.1314    0.0000 C   0  0  0  0  0  0  0  0  0  0  0  0
    1.8824   -1.4381    0.0000 C   0  0  0  0  0  0  0  0  0  0  0  0
    3.1478   -2.2434    0.0000 C   0  0  0  0  0  0  0  0  0  0  0  0
    3.0832   -3.7420    0.0000 O   0  0  0  0  0  0  0  0  0  0  0  0
    4.4780   -1.5501    0.0000 C   0  0  0  0  0  0  0  0  0  0  0  0
    4.5427   -0.0515    0.0000 C   0  0  0  0  0  0  0  0  0  0  0  0
    5.8729    0.6418    0.0000 C   0  0  0  0  0  0  0  0  0  0  0  0
    5.9375    2.1404    0.0000 C   0  0  0  0  0  0  0  0  0  0  0  0
    7.2677    2.8337    0.0000 O   0  0  0  0  0  0  0  0  0  0  0  0
    4.6720    2.9457    0.0000 C   0  0  0  0  0  0  0  0  0  0  0  0
    3.3419    2.2524    0.0000 C   0  0  0  0  0  0  0  0  0  0  0  0
    3.2772    0.7538    0.0000 C   0  0  0  0  0  0  0  0  0  0  0  0
    2.0117    1.5591    0.0000 C   0  0  0  0  0  0  0  0  0  0  0  0
    1.9470    0.0605    0.0000 C   0  0  0  0  0  0  0  0  0  0  0  0
    0.6815    0.8658    0.0000 C   0  0  0  0  0  0  0  0  0  0  0  0
   -0.6486    0.1725    0.0000 C   0  0  0  0  0  0  0  0  0  0  0  0
   -0.7133   -1.3261    0.0000 C   0  0  0  0  0  0  0  0  0  0  0  0
   -2.0560   -0.6574    0.0000 C   0  0  0  0  0  0  0  0  0  0  0  0
  2  1  1  6
  2  3  1  0
  3  4  1  0
  4  5  1  0
  5  6  2  0
  5  7  1  0
  7  8  2  0
  7  9  2  0
  7 10  1  0
  2 11  1  0
 11 12  1  6
 12 13  1  0
 14 13  1  6
 14 15  1  0
 15 16  1  1
 16 17  1  1
 16 18  1  0
 19 18  1  1
 19 20  1  0
 20 21  1  0
 21 22  1  6
 21 23  1  0
 23 24  1  0
 24 25  1  0
 25 26  1  6
 25 27  1  0
 27 28  1  6
 28 29  1  0
 29 30  1  0
 30 31  1  6
 30 11  1  0
 30 14  1  0
 27 15  1  0
 25 19  1  0
M  END
>  <MS_ID>  (1966) 
MS2038

>  <SMILES>  (1966) 
C[C@H](CCC(=O)S(=O)(=O)O)[C@H]1CC[C@H]2[C@@H]3[C@H](O)C[C@@H]4C[C@@H](O)CC[C@]4(C)[C@H]3CC[C@]12C

>  <Structure_dimension>  (1966) 
2D

$$$$
MS2039
     RDKit          2D

 30 33  0  0  0  0  0  0  0  0999 V2000
   -5.1126   -2.2702    0.0000 C   0  0  0  0  0  0  0  0  0  0  0  0
   -4.0463   -1.2153    0.0000 C   0  0  0  0  0  0  0  0  0  0  0  0
   -4.4268    0.2357    0.0000 C   0  0  0  0  0  0  0  0  0  0  0  0
   -5.8736    0.6316    0.0000 C   0  0  0  0  0  0  0  0  0  0  0  0
   -6.2540    2.0826    0.0000 C   0  0  0  0  0  0  0  0  0  0  0  0
   -5.1877    3.1376    0.0000 O   0  0  0  0  0  0  0  0  0  0  0  0
   -7.7008    2.4786    0.0000 O   0  0  0  0  0  0  0  0  0  0  0  0
   -2.5995   -1.6113    0.0000 C   0  0  0  0  0  0  0  0  0  0  0  0
   -2.0695   -3.0145    0.0000 C   0  0  0  0  0  0  0  0  0  0  0  0
   -0.5711   -2.9440    0.0000 C   0  0  0  0  0  0  0  0  0  0  0  0
   -0.1751   -1.4972    0.0000 C   0  0  0  0  0  0  0  0  0  0  0  0
    1.1650   -0.8234    0.0000 C   0  0  0  0  0  0  0  0  0  0  0  0
    2.4186   -1.6471    0.0000 C   0  0  0  0  0  0  0  0  0  0  0  0
    2.3321   -3.1446    0.0000 N   0  0  0  0  0  0  0  0  0  0  0  0
    3.5857   -3.9682    0.0000 C   0  0  0  0  0  0  0  0  0  0  0  0
    3.4992   -5.4657    0.0000 O   0  0  0  0  0  0  0  0  0  0  0  0
    3.7587   -0.9732    0.0000 C   0  0  0  0  0  0  0  0  0  0  0  0
    3.8453    0.5243    0.0000 C   0  0  0  0  0  0  0  0  0  0  0  0
    5.1854    1.1981    0.0000 C   0  0  0  0  0  0  0  0  0  0  0  0
    5.2719    2.6956    0.0000 C   0  0  0  0  0  0  0  0  0  0  0  0
    6.6121    3.3694    0.0000 O   0  0  0  0  0  0  0  0  0  0  0  0
    4.0183    3.5193    0.0000 C   0  0  0  0  0  0  0  0  0  0  0  0
    2.6782    2.8454    0.0000 C   0  0  0  0  0  0  0  0  0  0  0  0
    2.5917    1.3479    0.0000 C   0  0  0  0  0  0  0  0  0  0  0  0
    1.3380    2.1716    0.0000 C   0  0  0  0  0  0  0  0  0  0  0  0
    1.2515    0.6741    0.0000 C   0  0  0  0  0  0  0  0  0  0  0  0
   -0.0021    1.4978    0.0000 C   0  0  0  0  0  0  0  0  0  0  0  0
   -1.3422    0.8240    0.0000 C   0  0  0  0  0  0  0  0  0  0  0  0
   -1.4288   -0.6735    0.0000 C   0  0  0  0  0  0  0  0  0  0  0  0
   -2.7616    0.0146    0.0000 C   0  0  0  0  0  0  0  0  0  0  0  0
  2  1  1  6
  2  3  1  0
  3  4  1  0
  4  5  1  0
  5  6  2  0
  5  7  1  0
  2  8  1  0
  8  9  1  6
  9 10  1  0
 11 10  1  6
 11 12  1  0
 12 13  1  1
 13 14  1  6
 14 15  1  0
 15 16  1  0
 13 17  1  0
 18 17  1  1
 18 19  1  0
 19 20  1  0
 20 21  1  1
 20 22  1  0
 22 23  1  0
 23 24  1  0
 24 25  1  6
 24 26  1  0
 26 27  1  6
 27 28  1  0
 28 29  1  0
 29 30  1  6
 29  8  1  0
 29 11  1  0
 26 12  1  0
 24 18  1  0
M  END
>  <MS_ID>  (1967) 
MS2039

>  <SMILES>  (1967) 
C[C@H](CCC(=O)O)[C@H]1CC[C@H]2[C@@H]3[C@@H](NCO)C[C@@H]4C[C@H](O)CC[C@]4(C)[C@H]3CC[C@]12C

>  <Structure_dimension>  (1967) 
2D

$$$$
MS2040
     RDKit          2D

 29 32  0  0  0  0  0  0  0  0999 V2000
   -4.7935   -2.5443    0.0000 C   0  0  0  0  0  0  0  0  0  0  0  0
   -3.6816   -1.5375    0.0000 C   0  0  0  0  0  0  0  0  0  0  0  0
   -3.9975   -0.0712    0.0000 C   0  0  0  0  0  0  0  0  0  0  0  0
   -5.4254    0.3884    0.0000 C   0  0  0  0  0  0  0  0  0  0  0  0
   -5.7413    1.8547    0.0000 C   0  0  0  0  0  0  0  0  0  0  0  0
   -7.1692    2.3143    0.0000 O   0  0  0  0  0  0  0  0  0  0  0  0
   -4.6294    2.8615    0.0000 S   0  0  0  0  0  0  0  0  0  0  0  0
   -4.9453    4.3279    0.0000 O   0  0  0  0  0  0  0  0  0  0  0  0
   -2.2537   -1.9971    0.0000 C   0  0  0  0  0  0  0  0  0  0  0  0
   -1.7862   -3.4224    0.0000 C   0  0  0  0  0  0  0  0  0  0  0  0
   -0.2862   -3.4182    0.0000 C   0  0  0  0  0  0  0  0  0  0  0  0
    0.1733   -1.9903    0.0000 C   0  0  0  0  0  0  0  0  0  0  0  0
    1.5420   -1.3764    0.0000 C   0  0  0  0  0  0  0  0  0  0  0  0
    2.7579   -2.2547    0.0000 C   0  0  0  0  0  0  0  0  0  0  0  0
    2.6053   -3.7470    0.0000 O   0  0  0  0  0  0  0  0  0  0  0  0
    4.1265   -1.6408    0.0000 C   0  0  0  0  0  0  0  0  0  0  0  0
    4.2792   -0.1486    0.0000 C   0  0  0  0  0  0  0  0  0  0  0  0
    5.6478    0.4653    0.0000 C   0  0  0  0  0  0  0  0  0  0  0  0
    5.8005    1.9575    0.0000 C   0  0  0  0  0  0  0  0  0  0  0  0
    7.1691    2.5714    0.0000 O   0  0  0  0  0  0  0  0  0  0  0  0
    4.5845    2.8358    0.0000 C   0  0  0  0  0  0  0  0  0  0  0  0
    3.2159    2.2219    0.0000 C   0  0  0  0  0  0  0  0  0  0  0  0
    3.0632    0.7297    0.0000 C   0  0  0  0  0  0  0  0  0  0  0  0
    1.8473    1.6080    0.0000 C   0  0  0  0  0  0  0  0  0  0  0  0
    1.6946    0.1158    0.0000 C   0  0  0  0  0  0  0  0  0  0  0  0
    0.4786    0.9941    0.0000 C   0  0  0  0  0  0  0  0  0  0  0  0
   -0.8900    0.3802    0.0000 C   0  0  0  0  0  0  0  0  0  0  0  0
   -1.0426   -1.1120    0.0000 C   0  0  0  0  0  0  0  0  0  0  0  0
   -2.3437   -0.3657    0.0000 C   0  0  0  0  0  0  0  0  0  0  0  0
  2  1  1  6
  2  3  1  0
  3  4  1  0
  4  5  1  0
  5  6  2  0
  5  7  1  0
  7  8  1  0
  2  9  1  0
  9 10  1  6
 10 11  1  0
 12 11  1  6
 12 13  1  0
 13 14  1  1
 14 15  1  1
 14 16  1  0
 17 16  1  1
 17 18  1  0
 18 19  1  0
 19 20  1  1
 19 21  1  0
 21 22  1  0
 22 23  1  0
 23 24  1  6
 23 25  1  0
 25 26  1  6
 26 27  1  0
 27 28  1  0
 28 29  1  6
 28  9  1  0
 28 12  1  0
 25 13  1  0
 23 17  1  0
M  END
>  <MS_ID>  (1968) 
MS2040

>  <SMILES>  (1968) 
C[C@H](CCC(=O)SO)[C@H]1CC[C@H]2[C@@H]3[C@H](O)C[C@@H]4C[C@H](O)CC[C@]4(C)[C@H]3CC[C@]12C

>  <Structure_dimension>  (1968) 
2D

$$$$
MS2041
     RDKit          2D

 33 36  0  0  0  0  0  0  0  0999 V2000
   -3.3331   -4.1617    0.0000 C   0  0  0  0  0  0  0  0  0  0  0  0
   -2.4610   -2.9413    0.0000 C   0  0  0  0  0  0  0  0  0  0  0  0
   -3.0820   -1.5758    0.0000 C   0  0  0  0  0  0  0  0  0  0  0  0
   -4.5749   -1.4308    0.0000 C   0  0  0  0  0  0  0  0  0  0  0  0
   -5.1959   -0.0654    0.0000 C   0  0  0  0  0  0  0  0  0  0  0  0
   -6.6888    0.0796    0.0000 O   0  0  0  0  0  0  0  0  0  0  0  0
   -4.3238    1.1551    0.0000 O   0  0  0  0  0  0  0  0  0  0  0  0
   -4.9448    2.5205    0.0000 C   0  0  0  0  0  0  0  0  0  0  0  0
   -6.4377    2.6655    0.0000 O   0  0  0  0  0  0  0  0  0  0  0  0
   -4.0727    3.7410    0.0000 C   0  0  0  0  0  0  0  0  0  0  0  0
   -2.5797    3.5960    0.0000 O   0  0  0  0  0  0  0  0  0  0  0  0
   -4.6937    5.1064    0.0000 O   0  0  0  0  0  0  0  0  0  0  0  0
   -0.9680   -3.0862    0.0000 C   0  0  0  0  0  0  0  0  0  0  0  0
   -0.2078   -4.3793    0.0000 C   0  0  0  0  0  0  0  0  0  0  0  0
    1.2569   -4.0558    0.0000 C   0  0  0  0  0  0  0  0  0  0  0  0
    1.4019   -2.5628    0.0000 C   0  0  0  0  0  0  0  0  0  0  0  0
    2.6084   -1.6716    0.0000 C   0  0  0  0  0  0  0  0  0  0  0  0
    3.9835   -2.2708    0.0000 C   0  0  0  0  0  0  0  0  0  0  0  0
    5.1900   -1.3796    0.0000 C   0  0  0  0  0  0  0  0  0  0  0  0
    5.0214    0.1109    0.0000 C   0  0  0  0  0  0  0  0  0  0  0  0
    6.2279    1.0022    0.0000 C   0  0  0  0  0  0  0  0  0  0  0  0
    6.0593    2.4927    0.0000 C   0  0  0  0  0  0  0  0  0  0  0  0
    7.2658    3.3839    0.0000 O   0  0  0  0  0  0  0  0  0  0  0  0
    4.6842    3.0919    0.0000 C   0  0  0  0  0  0  0  0  0  0  0  0
    3.4777    2.2007    0.0000 C   0  0  0  0  0  0  0  0  0  0  0  0
    3.6463    0.7102    0.0000 C   0  0  0  0  0  0  0  0  0  0  0  0
    2.2712    1.3094    0.0000 C   0  0  0  0  0  0  0  0  0  0  0  0
    2.4398   -0.1811    0.0000 C   0  0  0  0  0  0  0  0  0  0  0  0
    1.0647    0.4181    0.0000 C   0  0  0  0  0  0  0  0  0  0  0  0
   -0.1418   -0.4731    0.0000 C   0  0  0  0  0  0  0  0  0  0  0  0
   -1.5169    0.1261    0.0000 O   0  0  0  0  0  0  0  0  0  0  0  0
    0.0268   -1.9636    0.0000 C   0  0  0  0  0  0  0  0  0  0  0  0
   -1.4034   -1.5114    0.0000 C   0  0  0  0  0  0  0  0  0  0  0  0
  2  1  1  6
  2  3  1  0
  3  4  1  0
  4  5  1  0
  5  6  2  0
  5  7  1  0
  7  8  1  0
  8  9  2  0
  8 10  1  0
 10 11  2  0
 10 12  1  0
  2 13  1  0
 13 14  1  6
 14 15  1  0
 16 15  1  6
 16 17  1  0
 17 18  1  1
 18 19  1  0
 20 19  1  1
 20 21  1  0
 21 22  1  0
 22 23  1  1
 22 24  1  0
 24 25  1  0
 25 26  1  0
 26 27  1  6
 26 28  1  0
 28 29  1  6
 29 30  1  0
 30 31  1  1
 30 32  1  0
 32 33  1  6
 32 13  1  0
 32 16  1  0
 28 17  1  0
 26 20  1  0
M  END
>  <MS_ID>  (1969) 
MS2041

>  <SMILES>  (1969) 
C[C@H](CCC(=O)OC(=O)C(=O)O)[C@H]1CC[C@H]2[C@@H]3CC[C@@H]4C[C@H](O)CC[C@]4(C)[C@H]3C[C@H](O)[C@]12C

>  <Structure_dimension>  (1969) 
2D

$$$$
MS2042
     RDKit          2D

 26 29  0  0  0  0  0  0  0  0999 V2000
   -4.7113   -2.2151    0.0000 C   0  0  0  0  0  0  0  0  0  0  0  0
   -3.5555   -1.2589    0.0000 C   0  0  0  0  0  0  0  0  0  0  0  0
   -3.8058    0.2201    0.0000 C   0  0  0  0  0  0  0  0  0  0  0  0
   -5.2117    0.7429    0.0000 C   0  0  0  0  0  0  0  0  0  0  0  0
   -5.4619    2.2219    0.0000 C   0  0  0  0  0  0  0  0  0  0  0  0
   -6.8678    2.7447    0.0000 O   0  0  0  0  0  0  0  0  0  0  0  0
   -4.3062    3.1780    0.0000 S   0  0  0  0  0  0  0  0  0  0  0  0
   -2.1496   -1.7817    0.0000 C   0  0  0  0  0  0  0  0  0  0  0  0
   -1.7462   -3.2265    0.0000 C   0  0  0  0  0  0  0  0  0  0  0  0
   -0.2475   -3.2892    0.0000 C   0  0  0  0  0  0  0  0  0  0  0  0
    0.2753   -1.8833    0.0000 C   0  0  0  0  0  0  0  0  0  0  0  0
    1.6700   -1.3310    0.0000 C   0  0  0  0  0  0  0  0  0  0  0  0
    2.8455   -2.2627    0.0000 C   0  0  0  0  0  0  0  0  0  0  0  0
    4.2402   -1.7105    0.0000 C   0  0  0  0  0  0  0  0  0  0  0  0
    4.4593   -0.2265    0.0000 C   0  0  0  0  0  0  0  0  0  0  0  0
    5.8539    0.3257    0.0000 C   0  0  0  0  0  0  0  0  0  0  0  0
    6.0730    1.8096    0.0000 C   0  0  0  0  0  0  0  0  0  0  0  0
    4.8974    2.7413    0.0000 C   0  0  0  0  0  0  0  0  0  0  0  0
    3.5027    2.1891    0.0000 C   0  0  0  0  0  0  0  0  0  0  0  0
    3.2837    0.7051    0.0000 C   0  0  0  0  0  0  0  0  0  0  0  0
    2.1081    1.6368    0.0000 C   0  0  0  0  0  0  0  0  0  0  0  0
    1.8890    0.1529    0.0000 C   0  0  0  0  0  0  0  0  0  0  0  0
    0.7135    1.0846    0.0000 C   0  0  0  0  0  0  0  0  0  0  0  0
   -0.6812    0.5323    0.0000 C   0  0  0  0  0  0  0  0  0  0  0  0
   -0.9002   -0.9516    0.0000 C   0  0  0  0  0  0  0  0  0  0  0  0
   -2.1668   -0.1479    0.0000 C   0  0  0  0  0  0  0  0  0  0  0  0
  2  1  1  6
  2  3  1  0
  3  4  1  0
  4  5  1  0
  5  6  2  0
  5  7  1  0
  2  8  1  0
  8  9  1  6
  9 10  1  0
 11 10  1  6
 11 12  1  0
 12 13  1  1
 13 14  1  0
 15 14  1  1
 15 16  1  0
 16 17  1  0
 17 18  1  0
 18 19  1  0
 19 20  1  0
 20 21  1  6
 20 22  1  0
 22 23  1  6
 23 24  1  0
 24 25  1  0
 25 26  1  6
 25  8  1  0
 25 11  1  0
 22 12  1  0
 20 15  1  0
M  END
>  <MS_ID>  (1970) 
MS2042

>  <SMILES>  (1970) 
C[C@H](CCC(=O)S)[C@H]1CC[C@H]2[C@@H]3CC[C@@H]4CCCC[C@]4(C)[C@H]3CC[C@]12C

>  <Structure_dimension>  (1970) 
2D

$$$$
MS2043
     RDKit          2D

 39 43  0  0  0  0  0  0  0  0999 V2000
   -0.5852   -4.8877    0.0000 C   0  0  0  0  0  0  0  0  0  0  0  0
   -0.0782   -3.4760    0.0000 C   0  0  0  0  0  0  0  0  0  0  0  0
   -1.0473   -2.3310    0.0000 C   0  0  0  0  0  0  0  0  0  0  0  0
   -2.5234   -2.5978    0.0000 C   0  0  0  0  0  0  0  0  0  0  0  0
   -3.4925   -1.4529    0.0000 C   0  0  0  0  0  0  0  0  0  0  0  0
   -2.9855   -0.0412    0.0000 O   0  0  0  0  0  0  0  0  0  0  0  0
   -4.9686   -1.7197    0.0000 N   0  0  0  0  0  0  0  0  0  0  0  0
   -5.9377   -0.5748    0.0000 S   0  0  0  0  0  0  0  0  0  0  0  0
   -4.7927    0.3943    0.0000 O   0  0  0  0  0  0  0  0  0  0  0  0
   -7.0826   -1.5439    0.0000 O   0  0  0  0  0  0  0  0  0  0  0  0
   -6.9068    0.5701    0.0000 C   0  0  0  0  0  0  0  0  0  0  0  0
   -6.3998    1.9819    0.0000 C   0  0  0  0  0  0  0  0  0  0  0  0
   -7.3689    3.1268    0.0000 C   0  0  0  0  0  0  0  0  0  0  0  0
   -8.8450    2.8600    0.0000 C   0  0  0  0  0  0  0  0  0  0  0  0
   -9.8141    4.0049    0.0000 F   0  0  0  0  0  0  0  0  0  0  0  0
   -9.3519    1.4482    0.0000 C   0  0  0  0  0  0  0  0  0  0  0  0
   -8.3828    0.3033    0.0000 C   0  0  0  0  0  0  0  0  0  0  0  0
    1.3979   -3.2092    0.0000 C   0  0  0  0  0  0  0  0  0  0  0  0
    2.4813   -4.2465    0.0000 C   0  0  0  0  0  0  0  0  0  0  0  0
    3.8027   -3.5366    0.0000 C   0  0  0  0  0  0  0  0  0  0  0  0
    3.5359   -2.0605    0.0000 C   0  0  0  0  0  0  0  0  0  0  0  0
    4.4543   -0.8746    0.0000 C   0  0  0  0  0  0  0  0  0  0  0  0
    5.9406   -1.0770    0.0000 C   0  0  0  0  0  0  0  0  0  0  0  0
    6.5085   -2.4653    0.0000 O   0  0  0  0  0  0  0  0  0  0  0  0
    6.8590    0.1090    0.0000 C   0  0  0  0  0  0  0  0  0  0  0  0
    6.2912    1.4973    0.0000 C   0  0  0  0  0  0  0  0  0  0  0  0
    7.2096    2.6833    0.0000 C   0  0  0  0  0  0  0  0  0  0  0  0
    6.6417    4.0717    0.0000 C   0  0  0  0  0  0  0  0  0  0  0  0
    7.5601    5.2576    0.0000 O   0  0  0  0  0  0  0  0  0  0  0  0
    5.1554    4.2741    0.0000 C   0  0  0  0  0  0  0  0  0  0  0  0
    4.2370    3.0881    0.0000 C   0  0  0  0  0  0  0  0  0  0  0  0
    4.8049    1.6997    0.0000 C   0  0  0  0  0  0  0  0  0  0  0  0
    3.3186    1.9021    0.0000 C   0  0  0  0  0  0  0  0  0  0  0  0
    3.8865    0.5138    0.0000 C   0  0  0  0  0  0  0  0  0  0  0  0
    2.4002    0.7162    0.0000 C   0  0  0  0  0  0  0  0  0  0  0  0
    1.4818   -0.4698    0.0000 C   0  0  0  0  0  0  0  0  0  0  0  0
   -0.0045   -0.2674    0.0000 O   0  0  0  0  0  0  0  0  0  0  0  0
    2.0496   -1.8582    0.0000 C   0  0  0  0  0  0  0  0  0  0  0  0
    0.5503   -1.8122    0.0000 C   0  0  0  0  0  0  0  0  0  0  0  0
  2  1  1  6
  2  3  1  0
  3  4  1  0
  4  5  1  0
  5  6  2  0
  5  7  1  0
  7  8  1  0
  8  9  2  0
  8 10  2  0
  8 11  1  0
 11 12  2  0
 12 13  1  0
 13 14  2  0
 14 15  1  0
 14 16  1  0
 16 17  2  0
  2 18  1  0
 18 19  1  6
 19 20  1  0
 21 20  1  6
 21 22  1  0
 22 23  1  1
 23 24  1  1
 23 25  1  0
 26 25  1  1
 26 27  1  0
 27 28  1  0
 28 29  1  1
 28 30  1  0
 30 31  1  0
 31 32  1  0
 32 33  1  6
 32 34  1  0
 34 35  1  6
 35 36  1  0
 36 37  1  1
 36 38  1  0
 38 39  1  6
 17 11  1  0
 38 18  1  0
 38 21  1  0
 34 22  1  0
 32 26  1  0
M  END
>  <MS_ID>  (1971) 
MS2043

>  <SMILES>  (1971) 
C[C@H](CCC(=O)NS(=O)(=O)c1ccc(F)cc1)[C@H]1CC[C@H]2[C@@H]3[C@H](O)C[C@@H]4C[C@H](O)CC[C@]4(C)[C@H]3C[C@H](O)[C@]12C

>  <Structure_dimension>  (1971) 
2D

$$$$
MS2045
     RDKit          2D

 37 41  0  0  0  0  0  0  0  0999 V2000
   -0.7249   -4.9136    0.0000 C   0  0  0  0  0  0  0  0  0  0  0  0
   -0.2239   -3.4997    0.0000 C   0  0  0  0  0  0  0  0  0  0  0  0
   -1.1979   -2.3589    0.0000 C   0  0  0  0  0  0  0  0  0  0  0  0
   -2.6728   -2.6320    0.0000 C   0  0  0  0  0  0  0  0  0  0  0  0
   -3.6468   -1.4912    0.0000 C   0  0  0  0  0  0  0  0  0  0  0  0
   -3.1458   -0.0773    0.0000 O   0  0  0  0  0  0  0  0  0  0  0  0
   -5.1217   -1.7643    0.0000 N   0  0  0  0  0  0  0  0  0  0  0  0
   -6.0957   -0.6235    0.0000 C   0  0  0  0  0  0  0  0  0  0  0  0
   -5.5947    0.7904    0.0000 C   0  0  0  0  0  0  0  0  0  0  0  0
   -6.5687    1.9312    0.0000 C   0  0  0  0  0  0  0  0  0  0  0  0
   -8.0436    1.6581    0.0000 C   0  0  0  0  0  0  0  0  0  0  0  0
   -9.0175    2.7989    0.0000 C   0  0  0  0  0  0  0  0  0  0  0  0
  -10.4925    2.5258    0.0000 O   0  0  0  0  0  0  0  0  0  0  0  0
   -8.5166    4.2128    0.0000 O   0  0  0  0  0  0  0  0  0  0  0  0
   -8.5446    0.2442    0.0000 C   0  0  0  0  0  0  0  0  0  0  0  0
   -7.5706   -0.8966    0.0000 C   0  0  0  0  0  0  0  0  0  0  0  0
    1.2510   -3.2266    0.0000 C   0  0  0  0  0  0  0  0  0  0  0  0
    2.3389   -4.2594    0.0000 C   0  0  0  0  0  0  0  0  0  0  0  0
    3.6572   -3.5439    0.0000 C   0  0  0  0  0  0  0  0  0  0  0  0
    3.3842   -2.0689    0.0000 C   0  0  0  0  0  0  0  0  0  0  0  0
    4.2975   -0.8791    0.0000 C   0  0  0  0  0  0  0  0  0  0  0  0
    5.7847   -1.0751    0.0000 C   0  0  0  0  0  0  0  0  0  0  0  0
    6.3584   -2.4611    0.0000 O   0  0  0  0  0  0  0  0  0  0  0  0
    6.6980    0.1147    0.0000 C   0  0  0  0  0  0  0  0  0  0  0  0
    6.1243    1.5006    0.0000 C   0  0  0  0  0  0  0  0  0  0  0  0
    7.0376    2.6905    0.0000 C   0  0  0  0  0  0  0  0  0  0  0  0
    6.4639    4.0764    0.0000 C   0  0  0  0  0  0  0  0  0  0  0  0
    7.3772    5.2663    0.0000 O   0  0  0  0  0  0  0  0  0  0  0  0
    4.9767    4.2725    0.0000 C   0  0  0  0  0  0  0  0  0  0  0  0
    4.0634    3.0826    0.0000 C   0  0  0  0  0  0  0  0  0  0  0  0
    4.6371    1.6967    0.0000 C   0  0  0  0  0  0  0  0  0  0  0  0
    3.1500    1.8928    0.0000 C   0  0  0  0  0  0  0  0  0  0  0  0
    3.7238    0.5068    0.0000 C   0  0  0  0  0  0  0  0  0  0  0  0
    2.2366    0.7029    0.0000 C   0  0  0  0  0  0  0  0  0  0  0  0
    1.3233   -0.4869    0.0000 C   0  0  0  0  0  0  0  0  0  0  0  0
    1.8970   -1.8729    0.0000 C   0  0  0  0  0  0  0  0  0  0  0  0
    0.3975   -1.8333    0.0000 C   0  0  0  0  0  0  0  0  0  0  0  0
  2  1  1  6
  2  3  1  0
  3  4  1  0
  4  5  1  0
  5  6  2  0
  5  7  1  0
  7  8  1  0
  8  9  2  0
  9 10  1  0
 10 11  2  0
 11 12  1  0
 12 13  2  0
 12 14  1  0
 11 15  1  0
 15 16  2  0
  2 17  1  0
 17 18  1  6
 18 19  1  0
 20 19  1  6
 20 21  1  0
 21 22  1  1
 22 23  1  1
 22 24  1  0
 25 24  1  1
 25 26  1  0
 26 27  1  0
 27 28  1  1
 27 29  1  0
 29 30  1  0
 30 31  1  0
 31 32  1  6
 31 33  1  0
 33 34  1  6
 34 35  1  0
 35 36  1  0
 36 37  1  6
 16  8  1  0
 36 17  1  0
 36 20  1  0
 33 21  1  0
 31 25  1  0
M  END
>  <MS_ID>  (1972) 
MS2045

>  <SMILES>  (1972) 
C[C@H](CCC(=O)Nc1ccc(C(=O)O)cc1)[C@H]1CC[C@H]2[C@@H]3[C@H](O)C[C@@H]4C[C@H](O)CC[C@]4(C)[C@H]3CC[C@]12C

>  <Structure_dimension>  (1972) 
2D

$$$$
MS2046
     RDKit          2D

 30 33  0  0  0  0  0  0  0  0999 V2000
   -6.0208   -1.6345    0.0000 C   0  0  0  0  0  0  0  0  0  0  0  0
   -4.7217   -0.8847    0.0000 C   0  0  0  0  0  0  0  0  0  0  0  0
   -4.7216    0.6153    0.0000 C   0  0  0  0  0  0  0  0  0  0  0  0
   -6.0205    1.3655    0.0000 C   0  0  0  0  0  0  0  0  0  0  0  0
   -6.0204    2.8655    0.0000 C   0  0  0  0  0  0  0  0  0  0  0  0
   -4.7212    3.6153    0.0000 O   0  0  0  0  0  0  0  0  0  0  0  0
   -7.3193    3.6156    0.0000 O   0  0  0  0  0  0  0  0  0  0  0  0
   -3.4228   -1.6348    0.0000 C   0  0  0  0  0  0  0  0  0  0  0  0
   -3.2661   -3.1266    0.0000 C   0  0  0  0  0  0  0  0  0  0  0  0
   -1.7989   -3.4386    0.0000 C   0  0  0  0  0  0  0  0  0  0  0  0
   -1.0488   -2.1397    0.0000 C   0  0  0  0  0  0  0  0  0  0  0  0
    0.4184   -1.8279    0.0000 C   0  0  0  0  0  0  0  0  0  0  0  0
    1.4220   -2.9428    0.0000 C   0  0  0  0  0  0  0  0  0  0  0  0
    2.8893   -2.6311    0.0000 C   0  0  0  0  0  0  0  0  0  0  0  0
    3.3530   -1.2045    0.0000 C   0  0  0  0  0  0  0  0  0  0  0  0
    4.8202   -0.8928    0.0000 C   0  0  0  0  0  0  0  0  0  0  0  0
    5.2839    0.5337    0.0000 C   0  0  0  0  0  0  0  0  0  0  0  0
    6.6082   -0.1706    0.0000 O   0  0  0  0  0  0  0  0  0  0  0  0
    6.2075    1.7156    0.0000 C   0  0  0  0  0  0  0  0  0  0  0  0
    5.6457    3.1065    0.0000 O   0  0  0  0  0  0  0  0  0  0  0  0
    7.6929    1.5067    0.0000 O   0  0  0  0  0  0  0  0  0  0  0  0
    4.2803    1.6485    0.0000 C   0  0  0  0  0  0  0  0  0  0  0  0
    2.8131    1.3368    0.0000 C   0  0  0  0  0  0  0  0  0  0  0  0
    2.3494   -0.0897    0.0000 C   0  0  0  0  0  0  0  0  0  0  0  0
    1.3458    1.0251    0.0000 C   0  0  0  0  0  0  0  0  0  0  0  0
    0.8821   -0.4014    0.0000 C   0  0  0  0  0  0  0  0  0  0  0  0
   -0.1215    0.7134    0.0000 C   0  0  0  0  0  0  0  0  0  0  0  0
   -1.5887    0.4017    0.0000 C   0  0  0  0  0  0  0  0  0  0  0  0
   -2.0524   -1.0248    0.0000 C   0  0  0  0  0  0  0  0  0  0  0  0
   -3.1670   -0.0210    0.0000 C   0  0  0  0  0  0  0  0  0  0  0  0
  2  1  1  6
  2  3  1  0
  3  4  1  0
  4  5  1  0
  5  6  2  0
  5  7  1  0
  2  8  1  0
  8  9  1  6
  9 10  1  0
 11 10  1  6
 11 12  1  0
 12 13  1  1
 13 14  1  0
 15 14  1  1
 15 16  1  0
 16 17  1  0
 17 18  1  6
 17 19  1  0
 19 20  2  0
 19 21  1  0
 17 22  1  0
 22 23  1  0
 23 24  1  0
 24 25  1  6
 24 26  1  0
 26 27  1  6
 27 28  1  0
 28 29  1  0
 29 30  1  6
 29  8  1  0
 29 11  1  0
 26 12  1  0
 24 15  1  0
M  END
>  <MS_ID>  (1973) 
MS2046

>  <SMILES>  (1973) 
C[C@H](CCC(=O)O)[C@H]1CC[C@H]2[C@@H]3CC[C@@H]4C[C@](O)(C(=O)O)CC[C@]4(C)[C@H]3CC[C@]12C

>  <Structure_dimension>  (1973) 
2D

$$$$
MS2047
     RDKit          2D

 28 31  0  0  0  0  0  0  0  0999 V2000
   -4.6352   -2.6140    0.0000 C   0  0  0  0  0  0  0  0  0  0  0  0
   -3.5136   -1.6180    0.0000 C   0  0  0  0  0  0  0  0  0  0  0  0
   -3.8154   -0.1486    0.0000 C   0  0  0  0  0  0  0  0  0  0  0  0
   -5.2387    0.3247    0.0000 C   0  0  0  0  0  0  0  0  0  0  0  0
   -5.5405    1.7940    0.0000 C   0  0  0  0  0  0  0  0  0  0  0  0
   -4.4189    2.7900    0.0000 O   0  0  0  0  0  0  0  0  0  0  0  0
   -6.9639    2.2673    0.0000 C   0  0  0  0  0  0  0  0  0  0  0  0
   -7.2657    3.7367    0.0000 S   0  0  0  0  0  0  0  0  0  0  0  0
   -2.0902   -2.0913    0.0000 C   0  0  0  0  0  0  0  0  0  0  0  0
   -1.6365   -3.5210    0.0000 C   0  0  0  0  0  0  0  0  0  0  0  0
   -0.1366   -3.5313    0.0000 C   0  0  0  0  0  0  0  0  0  0  0  0
    0.3368   -2.1080    0.0000 C   0  0  0  0  0  0  0  0  0  0  0  0
    1.7112   -1.5073    0.0000 C   0  0  0  0  0  0  0  0  0  0  0  0
    2.9187   -2.3973    0.0000 C   0  0  0  0  0  0  0  0  0  0  0  0
    4.2932   -1.7966    0.0000 C   0  0  0  0  0  0  0  0  0  0  0  0
    4.4602   -0.3060    0.0000 C   0  0  0  0  0  0  0  0  0  0  0  0
    5.8347    0.2947    0.0000 C   0  0  0  0  0  0  0  0  0  0  0  0
    6.0017    1.7854    0.0000 C   0  0  0  0  0  0  0  0  0  0  0  0
    7.3762    2.3861    0.0000 O   0  0  0  0  0  0  0  0  0  0  0  0
    4.7943    2.6754    0.0000 C   0  0  0  0  0  0  0  0  0  0  0  0
    3.4198    2.0747    0.0000 C   0  0  0  0  0  0  0  0  0  0  0  0
    3.2528    0.5840    0.0000 C   0  0  0  0  0  0  0  0  0  0  0  0
    2.0453    1.4740    0.0000 C   0  0  0  0  0  0  0  0  0  0  0  0
    1.8783   -0.0166    0.0000 C   0  0  0  0  0  0  0  0  0  0  0  0
    0.6708    0.8734    0.0000 C   0  0  0  0  0  0  0  0  0  0  0  0
   -0.7036    0.2727    0.0000 C   0  0  0  0  0  0  0  0  0  0  0  0
   -0.8707   -1.2180    0.0000 C   0  0  0  0  0  0  0  0  0  0  0  0
   -2.1645   -0.4591    0.0000 C   0  0  0  0  0  0  0  0  0  0  0  0
  2  1  1  6
  2  3  1  0
  3  4  1  0
  4  5  1  0
  5  6  2  0
  5  7  1  0
  7  8  1  0
  2  9  1  0
  9 10  1  6
 10 11  1  0
 12 11  1  6
 12 13  1  0
 13 14  1  1
 14 15  1  0
 16 15  1  1
 16 17  1  0
 17 18  1  0
 18 19  1  1
 18 20  1  0
 20 21  1  0
 21 22  1  0
 22 23  1  6
 22 24  1  0
 24 25  1  6
 25 26  1  0
 26 27  1  0
 27 28  1  6
 27  9  1  0
 27 12  1  0
 24 13  1  0
 22 16  1  0
M  END
>  <MS_ID>  (1974) 
MS2047

>  <SMILES>  (1974) 
C[C@H](CCC(=O)CS)[C@H]1CC[C@H]2[C@@H]3CC[C@@H]4C[C@H](O)CC[C@]4(C)[C@H]3CC[C@]12C

>  <Structure_dimension>  (1974) 
2D

$$$$
MS2048
     RDKit          2D

 31 34  0  0  0  0  0  0  0  0999 V2000
   -3.3365   -3.6593    0.0000 C   0  0  0  0  0  0  0  0  0  0  0  0
   -2.4053   -2.4834    0.0000 C   0  0  0  0  0  0  0  0  0  0  0  0
   -2.9582   -1.0889    0.0000 C   0  0  0  0  0  0  0  0  0  0  0  0
   -4.4422   -0.8705    0.0000 C   0  0  0  0  0  0  0  0  0  0  0  0
   -4.9950    0.5239    0.0000 C   0  0  0  0  0  0  0  0  0  0  0  0
   -4.0638    1.6999    0.0000 O   0  0  0  0  0  0  0  0  0  0  0  0
   -6.4790    0.7424    0.0000 O   0  0  0  0  0  0  0  0  0  0  0  0
   -7.0318    2.1368    0.0000 C   0  0  0  0  0  0  0  0  0  0  0  0
   -8.4262    1.5840    0.0000 C   0  0  0  0  0  0  0  0  0  0  0  0
   -5.6374    2.6896    0.0000 C   0  0  0  0  0  0  0  0  0  0  0  0
   -7.5846    3.5312    0.0000 C   0  0  0  0  0  0  0  0  0  0  0  0
   -0.9213   -2.7018    0.0000 C   0  0  0  0  0  0  0  0  0  0  0  0
   -0.2258   -4.0308    0.0000 C   0  0  0  0  0  0  0  0  0  0  0  0
    1.2531   -3.7800    0.0000 C   0  0  0  0  0  0  0  0  0  0  0  0
    1.4715   -2.2960    0.0000 C   0  0  0  0  0  0  0  0  0  0  0  0
    2.7205   -1.4653    0.0000 C   0  0  0  0  0  0  0  0  0  0  0  0
    4.0644   -2.1317    0.0000 C   0  0  0  0  0  0  0  0  0  0  0  0
    5.3134   -1.3010    0.0000 C   0  0  0  0  0  0  0  0  0  0  0  0
    5.2186    0.1960    0.0000 C   0  0  0  0  0  0  0  0  0  0  0  0
    6.4676    1.0266    0.0000 C   0  0  0  0  0  0  0  0  0  0  0  0
    6.3727    2.5236    0.0000 C   0  0  0  0  0  0  0  0  0  0  0  0
    7.6217    3.3543    0.0000 O   0  0  0  0  0  0  0  0  0  0  0  0
    5.0288    3.1900    0.0000 C   0  0  0  0  0  0  0  0  0  0  0  0
    3.7798    2.3593    0.0000 C   0  0  0  0  0  0  0  0  0  0  0  0
    3.8747    0.8623    0.0000 C   0  0  0  0  0  0  0  0  0  0  0  0
    2.5308    1.5287    0.0000 C   0  0  0  0  0  0  0  0  0  0  0  0
    2.6257    0.0317    0.0000 C   0  0  0  0  0  0  0  0  0  0  0  0
    1.2818    0.6980    0.0000 C   0  0  0  0  0  0  0  0  0  0  0  0
    0.0328   -0.1326    0.0000 C   0  0  0  0  0  0  0  0  0  0  0  0
    0.1277   -1.6296    0.0000 C   0  0  0  0  0  0  0  0  0  0  0  0
   -1.2785   -1.1074    0.0000 C   0  0  0  0  0  0  0  0  0  0  0  0
  2  1  1  6
  2  3  1  0
  3  4  1  0
  4  5  1  0
  5  6  2  0
  5  7  1  0
  7  8  1  0
  8  9  1  0
  8 10  1  0
  8 11  1  0
  2 12  1  0
 12 13  1  6
 13 14  1  0
 15 14  1  6
 15 16  1  0
 16 17  1  1
 17 18  1  0
 19 18  1  1
 19 20  1  0
 20 21  1  0
 21 22  1  1
 21 23  1  0
 23 24  1  0
 24 25  1  0
 25 26  1  6
 25 27  1  0
 27 28  1  6
 28 29  1  0
 29 30  1  0
 30 31  1  6
 30 12  1  0
 30 15  1  0
 27 16  1  0
 25 19  1  0
M  END
>  <MS_ID>  (1975) 
MS2048

>  <SMILES>  (1975) 
C[C@H](CCC(=O)OC(C)(C)C)[C@H]1CC[C@H]2[C@@H]3CC[C@@H]4C[C@H](O)CC[C@]4(C)[C@H]3CC[C@]12C

>  <Structure_dimension>  (1975) 
2D

$$$$
MS2049
     RDKit          2D

 30 33  0  0  0  0  0  0  0  0999 V2000
   -3.9088   -3.1771    0.0000 C   0  0  0  0  0  0  0  0  0  0  0  0
   -2.9393   -2.0325    0.0000 C   0  0  0  0  0  0  0  0  0  0  0  0
   -3.4458   -0.6206    0.0000 C   0  0  0  0  0  0  0  0  0  0  0  0
   -4.9218   -0.3533    0.0000 C   0  0  0  0  0  0  0  0  0  0  0  0
   -5.4283    1.0586    0.0000 C   0  0  0  0  0  0  0  0  0  0  0  0
   -6.9042    1.3260    0.0000 O   0  0  0  0  0  0  0  0  0  0  0  0
   -4.4588    2.2032    0.0000 S   0  0  0  0  0  0  0  0  0  0  0  0
   -5.6033    3.1727    0.0000 O   0  0  0  0  0  0  0  0  0  0  0  0
   -3.3142    1.2337    0.0000 O   0  0  0  0  0  0  0  0  0  0  0  0
   -3.4893    3.3478    0.0000 O   0  0  0  0  0  0  0  0  0  0  0  0
   -1.4633   -2.2998    0.0000 C   0  0  0  0  0  0  0  0  0  0  0  0
   -0.8120   -3.6510    0.0000 C   0  0  0  0  0  0  0  0  0  0  0  0
    0.6744   -3.4492    0.0000 C   0  0  0  0  0  0  0  0  0  0  0  0
    0.9417   -1.9732    0.0000 C   0  0  0  0  0  0  0  0  0  0  0  0
    2.2174   -1.1842    0.0000 C   0  0  0  0  0  0  0  0  0  0  0  0
    3.5386   -1.8945    0.0000 C   0  0  0  0  0  0  0  0  0  0  0  0
    3.5840   -3.3938    0.0000 O   0  0  0  0  0  0  0  0  0  0  0  0
    4.8143   -1.1056    0.0000 C   0  0  0  0  0  0  0  0  0  0  0  0
    4.7689    0.3937    0.0000 C   0  0  0  0  0  0  0  0  0  0  0  0
    6.0447    1.1827    0.0000 C   0  0  0  0  0  0  0  0  0  0  0  0
    5.9993    2.6820    0.0000 C   0  0  0  0  0  0  0  0  0  0  0  0
    4.6781    3.3924    0.0000 C   0  0  0  0  0  0  0  0  0  0  0  0
    3.4024    2.6034    0.0000 C   0  0  0  0  0  0  0  0  0  0  0  0
    3.4478    1.1041    0.0000 C   0  0  0  0  0  0  0  0  0  0  0  0
    2.1266    1.8144    0.0000 C   0  0  0  0  0  0  0  0  0  0  0  0
    2.1720    0.3151    0.0000 C   0  0  0  0  0  0  0  0  0  0  0  0
    0.8509    1.0255    0.0000 C   0  0  0  0  0  0  0  0  0  0  0  0
   -0.4249    0.2365    0.0000 C   0  0  0  0  0  0  0  0  0  0  0  0
   -0.3795   -1.2628    0.0000 C   0  0  0  0  0  0  0  0  0  0  0  0
   -1.7676   -0.6945    0.0000 C   0  0  0  0  0  0  0  0  0  0  0  0
  2  1  1  6
  2  3  1  0
  3  4  1  0
  4  5  1  0
  5  6  2  0
  5  7  1  0
  7  8  2  0
  7  9  2  0
  7 10  1  0
  2 11  1  0
 11 12  1  6
 12 13  1  0
 14 13  1  6
 14 15  1  0
 15 16  1  1
 16 17  1  1
 16 18  1  0
 19 18  1  1
 19 20  1  0
 20 21  1  0
 21 22  1  0
 22 23  1  0
 23 24  1  0
 24 25  1  6
 24 26  1  0
 26 27  1  6
 27 28  1  0
 28 29  1  0
 29 30  1  6
 29 11  1  0
 29 14  1  0
 26 15  1  0
 24 19  1  0
M  END
>  <MS_ID>  (1976) 
MS2049

>  <SMILES>  (1976) 
C[C@H](CCC(=O)S(=O)(=O)O)[C@H]1CC[C@H]2[C@@H]3[C@H](O)C[C@@H]4CCCC[C@]4(C)[C@H]3CC[C@]12C

>  <Structure_dimension>  (1976) 
2D

$$$$
MS2050
     RDKit          2D

 29 32  0  0  0  0  0  0  0  0999 V2000
   -5.0303   -2.1373    0.0000 C   0  0  0  0  0  0  0  0  0  0  0  0
   -3.8594   -1.1998    0.0000 C   0  0  0  0  0  0  0  0  0  0  0  0
   -4.0858    0.2830    0.0000 C   0  0  0  0  0  0  0  0  0  0  0  0
   -5.4831    0.8284    0.0000 C   0  0  0  0  0  0  0  0  0  0  0  0
   -5.7095    2.3112    0.0000 C   0  0  0  0  0  0  0  0  0  0  0  0
   -4.5386    3.2487    0.0000 O   0  0  0  0  0  0  0  0  0  0  0  0
   -7.1069    2.8565    0.0000 O   0  0  0  0  0  0  0  0  0  0  0  0
   -2.4620   -1.7451    0.0000 C   0  0  0  0  0  0  0  0  0  0  0  0
   -2.0818   -3.1961    0.0000 C   0  0  0  0  0  0  0  0  0  0  0  0
   -0.5844   -3.2830    0.0000 C   0  0  0  0  0  0  0  0  0  0  0  0
   -0.0390   -1.8856    0.0000 C   0  0  0  0  0  0  0  0  0  0  0  0
    1.3643   -1.3559    0.0000 C   0  0  0  0  0  0  0  0  0  0  0  0
    2.5248   -2.3063    0.0000 C   0  0  0  0  0  0  0  0  0  0  0  0
    2.2819   -3.7865    0.0000 O   0  0  0  0  0  0  0  0  0  0  0  0
    3.9281   -1.7765    0.0000 C   0  0  0  0  0  0  0  0  0  0  0  0
    4.1710   -0.2963    0.0000 C   0  0  0  0  0  0  0  0  0  0  0  0
    5.5743    0.2334    0.0000 C   0  0  0  0  0  0  0  0  0  0  0  0
    5.8172    1.7136    0.0000 C   0  0  0  0  0  0  0  0  0  0  0  0
    7.2205    2.2434    0.0000 O   0  0  0  0  0  0  0  0  0  0  0  0
    4.6568    2.6641    0.0000 C   0  0  0  0  0  0  0  0  0  0  0  0
    3.2534    2.1343    0.0000 C   0  0  0  0  0  0  0  0  0  0  0  0
    3.0105    0.6541    0.0000 C   0  0  0  0  0  0  0  0  0  0  0  0
    1.8501    1.6046    0.0000 C   0  0  0  0  0  0  0  0  0  0  0  0
    1.6072    0.1244    0.0000 C   0  0  0  0  0  0  0  0  0  0  0  0
    0.4467    1.0748    0.0000 C   0  0  0  0  0  0  0  0  0  0  0  0
   -0.9566    0.5450    0.0000 C   0  0  0  0  0  0  0  0  0  0  0  0
   -2.1170    1.4955    0.0000 C   0  0  0  0  0  0  0  0  0  0  0  0
   -1.1995   -0.9352    0.0000 C   0  0  0  0  0  0  0  0  0  0  0  0
   -2.4529   -0.1112    0.0000 C   0  0  0  0  0  0  0  0  0  0  0  0
  2  1  1  6
  2  3  1  0
  3  4  1  0
  4  5  1  0
  5  6  2  0
  5  7  1  0
  2  8  1  0
  8  9  1  6
  9 10  1  0
 11 10  1  6
 11 12  1  0
 12 13  1  1
 13 14  1  6
 13 15  1  0
 16 15  1  1
 16 17  1  0
 17 18  1  0
 18 19  1  1
 18 20  1  0
 20 21  1  0
 21 22  1  0
 22 23  1  6
 22 24  1  0
 24 25  1  6
 25 26  1  0
 26 27  1  6
 26 28  1  0
 28 29  1  6
 28  8  1  0
 28 11  1  0
 24 12  1  0
 22 16  1  0
M  END
>  <MS_ID>  (1977) 
MS2050

>  <SMILES>  (1977) 
C[C@H](CCC(=O)O)[C@H]1CC[C@H]2[C@@H]3[C@@H](O)C[C@@H]4C[C@H](O)CC[C@]4(C)[C@H]3C[C@@H](C)[C@]12C

>  <Structure_dimension>  (1977) 
2D

$$$$
MS2051
     RDKit          2D

 30 33  0  0  0  0  0  0  0  0999 V2000
   -4.1099   -3.1124    0.0000 C   0  0  0  0  0  0  0  0  0  0  0  0
   -3.1089   -1.9953    0.0000 C   0  0  0  0  0  0  0  0  0  0  0  0
   -3.5759   -0.5698    0.0000 C   0  0  0  0  0  0  0  0  0  0  0  0
   -5.0438   -0.2615    0.0000 C   0  0  0  0  0  0  0  0  0  0  0  0
   -5.5108    1.1640    0.0000 C   0  0  0  0  0  0  0  0  0  0  0  0
   -4.5097    2.2811    0.0000 O   0  0  0  0  0  0  0  0  0  0  0  0
   -6.9787    1.4724    0.0000 C   0  0  0  0  0  0  0  0  0  0  0  0
   -7.4457    2.8978    0.0000 O   0  0  0  0  0  0  0  0  0  0  0  0
   -8.9136    3.2062    0.0000 O   0  0  0  0  0  0  0  0  0  0  0  0
   -1.6409   -2.3036    0.0000 C   0  0  0  0  0  0  0  0  0  0  0  0
   -1.0276   -3.6725    0.0000 C   0  0  0  0  0  0  0  0  0  0  0  0
    0.4638   -3.5121    0.0000 C   0  0  0  0  0  0  0  0  0  0  0  0
    0.7722   -2.0441    0.0000 C   0  0  0  0  0  0  0  0  0  0  0  0
    2.0694   -1.2910    0.0000 C   0  0  0  0  0  0  0  0  0  0  0  0
    3.3703   -2.0379    0.0000 C   0  0  0  0  0  0  0  0  0  0  0  0
    3.3739   -3.5379    0.0000 O   0  0  0  0  0  0  0  0  0  0  0  0
    4.6675   -1.2848    0.0000 C   0  0  0  0  0  0  0  0  0  0  0  0
    4.6639    0.2152    0.0000 C   0  0  0  0  0  0  0  0  0  0  0  0
    5.9611    0.9683    0.0000 C   0  0  0  0  0  0  0  0  0  0  0  0
    5.9575    2.4683    0.0000 C   0  0  0  0  0  0  0  0  0  0  0  0
    7.2548    3.2214    0.0000 O   0  0  0  0  0  0  0  0  0  0  0  0
    4.6567    3.2152    0.0000 C   0  0  0  0  0  0  0  0  0  0  0  0
    3.3595    2.4621    0.0000 C   0  0  0  0  0  0  0  0  0  0  0  0
    3.3631    0.9621    0.0000 C   0  0  0  0  0  0  0  0  0  0  0  0
    2.0622    1.7090    0.0000 C   0  0  0  0  0  0  0  0  0  0  0  0
    2.0658    0.2090    0.0000 C   0  0  0  0  0  0  0  0  0  0  0  0
    0.7650    0.9559    0.0000 C   0  0  0  0  0  0  0  0  0  0  0  0
   -0.5322    0.2027    0.0000 C   0  0  0  0  0  0  0  0  0  0  0  0
   -0.5286   -1.2973    0.0000 C   0  0  0  0  0  0  0  0  0  0  0  0
   -1.9004   -0.6904    0.0000 C   0  0  0  0  0  0  0  0  0  0  0  0
  2  1  1  6
  2  3  1  0
  3  4  1  0
  4  5  1  0
  5  6  2  0
  5  7  1  0
  7  8  1  0
  8  9  1  0
  2 10  1  0
 10 11  1  6
 11 12  1  0
 13 12  1  6
 13 14  1  0
 14 15  1  1
 15 16  1  1
 15 17  1  0
 18 17  1  1
 18 19  1  0
 19 20  1  0
 20 21  1  1
 20 22  1  0
 22 23  1  0
 23 24  1  0
 24 25  1  6
 24 26  1  0
 26 27  1  6
 27 28  1  0
 28 29  1  0
 29 30  1  6
 29 10  1  0
 29 13  1  0
 26 14  1  0
 24 18  1  0
M  END
>  <MS_ID>  (1978) 
MS2051

>  <SMILES>  (1978) 
C[C@H](CCC(=O)COO)[C@H]1CC[C@H]2[C@@H]3[C@H](O)C[C@@H]4C[C@H](O)CC[C@]4(C)[C@H]3CC[C@]12C

>  <Structure_dimension>  (1978) 
2D

$$$$
MS2052
     RDKit          2D

 34 37  0  0  0  0  0  0  0  0999 V2000
   -2.8787   -3.9813    0.0000 C   0  0  0  0  0  0  0  0  0  0  0  0
   -2.0569   -2.7265    0.0000 C   0  0  0  0  0  0  0  0  0  0  0  0
   -2.7327   -1.3874    0.0000 C   0  0  0  0  0  0  0  0  0  0  0  0
   -4.2303   -1.3031    0.0000 C   0  0  0  0  0  0  0  0  0  0  0  0
   -4.9061    0.0361    0.0000 C   0  0  0  0  0  0  0  0  0  0  0  0
   -4.0843    1.2909    0.0000 O   0  0  0  0  0  0  0  0  0  0  0  0
   -6.4038    0.1204    0.0000 O   0  0  0  0  0  0  0  0  0  0  0  0
   -7.0796    1.4595    0.0000 C   0  0  0  0  0  0  0  0  0  0  0  0
   -8.4187    0.7837    0.0000 C   0  0  0  0  0  0  0  0  0  0  0  0
   -5.7404    2.1353    0.0000 C   0  0  0  0  0  0  0  0  0  0  0  0
   -7.7554    2.7987    0.0000 C   0  0  0  0  0  0  0  0  0  0  0  0
   -6.9335    4.0535    0.0000 O   0  0  0  0  0  0  0  0  0  0  0  0
   -0.5593   -2.8108    0.0000 C   0  0  0  0  0  0  0  0  0  0  0  0
    0.2528   -4.0720    0.0000 C   0  0  0  0  0  0  0  0  0  0  0  0
    1.7032   -3.6894    0.0000 C   0  0  0  0  0  0  0  0  0  0  0  0
    1.7875   -2.1917    0.0000 C   0  0  0  0  0  0  0  0  0  0  0  0
    2.9569   -1.2523    0.0000 C   0  0  0  0  0  0  0  0  0  0  0  0
    4.3551   -1.7952    0.0000 C   0  0  0  0  0  0  0  0  0  0  0  0
    4.5841   -3.2777    0.0000 O   0  0  0  0  0  0  0  0  0  0  0  0
    5.5245   -0.8558    0.0000 C   0  0  0  0  0  0  0  0  0  0  0  0
    5.2956    0.6267    0.0000 C   0  0  0  0  0  0  0  0  0  0  0  0
    6.4650    1.5661    0.0000 C   0  0  0  0  0  0  0  0  0  0  0  0
    6.2361    3.0485    0.0000 C   0  0  0  0  0  0  0  0  0  0  0  0
    7.4054    3.9880    0.0000 O   0  0  0  0  0  0  0  0  0  0  0  0
    4.8378    3.5915    0.0000 C   0  0  0  0  0  0  0  0  0  0  0  0
    3.6684    2.6521    0.0000 C   0  0  0  0  0  0  0  0  0  0  0  0
    3.8973    1.1696    0.0000 C   0  0  0  0  0  0  0  0  0  0  0  0
    2.4990    1.7126    0.0000 C   0  0  0  0  0  0  0  0  0  0  0  0
    2.7280    0.2302    0.0000 C   0  0  0  0  0  0  0  0  0  0  0  0
    1.3297    0.7731    0.0000 C   0  0  0  0  0  0  0  0  0  0  0  0
    0.1603   -0.1663    0.0000 C   0  0  0  0  0  0  0  0  0  0  0  0
   -1.2380    0.3766    0.0000 O   0  0  0  0  0  0  0  0  0  0  0  0
    0.3892   -1.6488    0.0000 C   0  0  0  0  0  0  0  0  0  0  0  0
   -1.0582   -1.2549    0.0000 C   0  0  0  0  0  0  0  0  0  0  0  0
  2  1  1  6
  2  3  1  0
  3  4  1  0
  4  5  1  0
  5  6  2  0
  5  7  1  0
  7  8  1  0
  8  9  1  0
  8 10  1  0
  8 11  1  0
 11 12  1  0
  2 13  1  0
 13 14  1  6
 14 15  1  0
 16 15  1  6
 16 17  1  0
 17 18  1  1
 18 19  1  1
 18 20  1  0
 21 20  1  1
 21 22  1  0
 22 23  1  0
 23 24  1  1
 23 25  1  0
 25 26  1  0
 26 27  1  0
 27 28  1  6
 27 29  1  0
 29 30  1  6
 30 31  1  0
 31 32  1  1
 31 33  1  0
 33 34  1  6
 33 13  1  0
 33 16  1  0
 29 17  1  0
 27 21  1  0
M  END
>  <MS_ID>  (1979) 
MS2052

>  <SMILES>  (1979) 
C[C@H](CCC(=O)OC(C)(C)CO)[C@H]1CC[C@H]2[C@@H]3[C@H](O)C[C@@H]4C[C@H](O)CC[C@]4(C)[C@H]3C[C@H](O)[C@]12C

>  <Structure_dimension>  (1979) 
2D

$$$$
MS2053
     RDKit          2D

 34 38  0  0  0  0  0  0  0  0999 V2000
   -2.2608   -4.3306    0.0000 C   0  0  0  0  0  0  0  0  0  0  0  0
   -1.5430   -3.0135    0.0000 C   0  0  0  0  0  0  0  0  0  0  0  0
   -2.3248   -1.7333    0.0000 C   0  0  0  0  0  0  0  0  0  0  0  0
   -3.8244   -1.7702    0.0000 C   0  0  0  0  0  0  0  0  0  0  0  0
   -4.6061   -0.4901    0.0000 C   0  0  0  0  0  0  0  0  0  0  0  0
   -3.8883    0.8271    0.0000 O   0  0  0  0  0  0  0  0  0  0  0  0
   -6.1057   -0.5270    0.0000 O   0  0  0  0  0  0  0  0  0  0  0  0
   -6.8874    0.7532    0.0000 C   0  0  0  0  0  0  0  0  0  0  0  0
   -6.1696    2.0703    0.0000 C   0  0  0  0  0  0  0  0  0  0  0  0
   -6.9514    3.3505    0.0000 C   0  0  0  0  0  0  0  0  0  0  0  0
   -8.4509    3.3135    0.0000 C   0  0  0  0  0  0  0  0  0  0  0  0
   -9.1687    1.9964    0.0000 C   0  0  0  0  0  0  0  0  0  0  0  0
   -8.3870    0.7163    0.0000 C   0  0  0  0  0  0  0  0  0  0  0  0
   -0.0435   -2.9765    0.0000 C   0  0  0  0  0  0  0  0  0  0  0  0
    0.8678   -4.1680    0.0000 C   0  0  0  0  0  0  0  0  0  0  0  0
    2.2825   -3.6695    0.0000 C   0  0  0  0  0  0  0  0  0  0  0  0
    2.2456   -2.1699    0.0000 C   0  0  0  0  0  0  0  0  0  0  0  0
    3.3353   -1.1391    0.0000 C   0  0  0  0  0  0  0  0  0  0  0  0
    4.7728   -1.5673    0.0000 C   0  0  0  0  0  0  0  0  0  0  0  0
    5.1207   -3.0264    0.0000 O   0  0  0  0  0  0  0  0  0  0  0  0
    5.8625   -0.5365    0.0000 C   0  0  0  0  0  0  0  0  0  0  0  0
    5.5146    0.9226    0.0000 C   0  0  0  0  0  0  0  0  0  0  0  0
    6.6043    1.9534    0.0000 C   0  0  0  0  0  0  0  0  0  0  0  0
    6.2564    3.4125    0.0000 C   0  0  0  0  0  0  0  0  0  0  0  0
    7.3460    4.4434    0.0000 O   0  0  0  0  0  0  0  0  0  0  0  0
    4.8188    3.8408    0.0000 C   0  0  0  0  0  0  0  0  0  0  0  0
    3.7291    2.8099    0.0000 C   0  0  0  0  0  0  0  0  0  0  0  0
    4.0770    1.3509    0.0000 C   0  0  0  0  0  0  0  0  0  0  0  0
    2.6395    1.7791    0.0000 C   0  0  0  0  0  0  0  0  0  0  0  0
    2.9874    0.3200    0.0000 C   0  0  0  0  0  0  0  0  0  0  0  0
    1.5498    0.7483    0.0000 C   0  0  0  0  0  0  0  0  0  0  0  0
    0.4601   -0.2826    0.0000 C   0  0  0  0  0  0  0  0  0  0  0  0
    0.8080   -1.7417    0.0000 C   0  0  0  0  0  0  0  0  0  0  0  0
   -0.6664   -1.4660    0.0000 C   0  0  0  0  0  0  0  0  0  0  0  0
  2  1  1  6
  2  3  1  0
  3  4  1  0
  4  5  1  0
  5  6  2  0
  5  7  1  0
  7  8  1  0
  8  9  1  0
  9 10  1  0
 10 11  1  0
 11 12  1  0
 12 13  1  0
  2 14  1  0
 14 15  1  6
 15 16  1  0
 17 16  1  6
 17 18  1  0
 18 19  1  1
 19 20  1  1
 19 21  1  0
 22 21  1  1
 22 23  1  0
 23 24  1  0
 24 25  1  1
 24 26  1  0
 26 27  1  0
 27 28  1  0
 28 29  1  6
 28 30  1  0
 30 31  1  6
 31 32  1  0
 32 33  1  0
 33 34  1  6
 13  8  1  0
 33 14  1  0
 33 17  1  0
 30 18  1  0
 28 22  1  0
M  END
>  <MS_ID>  (1980) 
MS2053

>  <SMILES>  (1980) 
C[C@H](CCC(=O)OC1CCCCC1)[C@H]1CC[C@H]2[C@@H]3[C@H](O)C[C@@H]4C[C@H](O)CC[C@]4(C)[C@H]3CC[C@]12C

>  <Structure_dimension>  (1980) 
2D

$$$$
MS2054
     RDKit          2D

 28 31  0  0  0  0  0  0  0  0999 V2000
   -5.0096   -2.1352    0.0000 C   0  0  0  0  0  0  0  0  0  0  0  0
   -3.8132   -1.2303    0.0000 C   0  0  0  0  0  0  0  0  0  0  0  0
   -3.9987    0.2582    0.0000 C   0  0  0  0  0  0  0  0  0  0  0  0
   -5.3805    0.8418    0.0000 C   0  0  0  0  0  0  0  0  0  0  0  0
   -5.5659    2.3303    0.0000 C   0  0  0  0  0  0  0  0  0  0  0  0
   -4.3695    3.2351    0.0000 O   0  0  0  0  0  0  0  0  0  0  0  0
   -6.9477    2.9140    0.0000 O   0  0  0  0  0  0  0  0  0  0  0  0
   -2.4315   -1.8140    0.0000 C   0  0  0  0  0  0  0  0  0  0  0  0
   -2.0914   -3.2749    0.0000 C   0  0  0  0  0  0  0  0  0  0  0  0
   -0.5969   -3.4030    0.0000 C   0  0  0  0  0  0  0  0  0  0  0  0
   -0.0133   -2.0212    0.0000 C   0  0  0  0  0  0  0  0  0  0  0  0
    1.4041   -1.5304    0.0000 C   0  0  0  0  0  0  0  0  0  0  0  0
    2.5379   -2.5125    0.0000 C   0  0  0  0  0  0  0  0  0  0  0  0
    3.9554   -2.0216    0.0000 C   0  0  0  0  0  0  0  0  0  0  0  0
    4.2390   -0.5487    0.0000 C   0  0  0  0  0  0  0  0  0  0  0  0
    5.6564   -0.0578    0.0000 C   0  0  0  0  0  0  0  0  0  0  0  0
    5.9400    1.4151    0.0000 C   0  0  0  0  0  0  0  0  0  0  0  0
    7.3574    1.9060    0.0000 O   0  0  0  0  0  0  0  0  0  0  0  0
    4.8062    2.3972    0.0000 C   0  0  0  0  0  0  0  0  0  0  0  0
    3.3888    1.9064    0.0000 C   0  0  0  0  0  0  0  0  0  0  0  0
    3.1052    0.4334    0.0000 C   0  0  0  0  0  0  0  0  0  0  0  0
    1.9714    1.4155    0.0000 C   0  0  0  0  0  0  0  0  0  0  0  0
    1.6878   -0.0574    0.0000 C   0  0  0  0  0  0  0  0  0  0  0  0
    0.5540    0.9246    0.0000 C   0  0  0  0  0  0  0  0  0  0  0  0
   -0.8635    0.4338    0.0000 C   0  0  0  0  0  0  0  0  0  0  0  0
   -1.9973    1.4159    0.0000 O   0  0  0  0  0  0  0  0  0  0  0  0
   -1.1471   -1.0392    0.0000 C   0  0  0  0  0  0  0  0  0  0  0  0
   -2.3773   -0.1810    0.0000 C   0  0  0  0  0  0  0  0  0  0  0  0
  2  1  1  6
  2  3  1  0
  3  4  1  0
  4  5  1  0
  5  6  2  0
  5  7  1  0
  2  8  1  0
  8  9  1  6
  9 10  1  0
 11 10  1  6
 11 12  1  0
 12 13  1  1
 13 14  1  0
 15 14  1  1
 15 16  1  0
 16 17  1  0
 17 18  1  6
 17 19  1  0
 19 20  1  0
 20 21  1  0
 21 22  1  6
 21 23  1  0
 23 24  1  1
 24 25  1  0
 25 26  1  6
 25 27  1  0
 27 28  1  6
 27  8  1  0
 27 11  1  0
 23 12  1  0
 21 15  1  0
M  END
>  <MS_ID>  (1981) 
MS2054

>  <SMILES>  (1981) 
C[C@H](CCC(=O)O)[C@H]1CC[C@H]2[C@@H]3CC[C@@H]4C[C@@H](O)CC[C@]4(C)[C@@H]3C[C@@H](O)[C@]12C

>  <Structure_dimension>  (1981) 
2D

$$$$
MS2055
     RDKit          2D

 28 31  0  0  0  0  0  0  0  0999 V2000
   -4.6352   -2.6140    0.0000 C   0  0  0  0  0  0  0  0  0  0  0  0
   -3.5136   -1.6180    0.0000 C   0  0  0  0  0  0  0  0  0  0  0  0
   -3.8154   -0.1486    0.0000 C   0  0  0  0  0  0  0  0  0  0  0  0
   -5.2387    0.3247    0.0000 C   0  0  0  0  0  0  0  0  0  0  0  0
   -5.5405    1.7940    0.0000 C   0  0  0  0  0  0  0  0  0  0  0  0
   -4.4189    2.7900    0.0000 O   0  0  0  0  0  0  0  0  0  0  0  0
   -6.9639    2.2673    0.0000 C   0  0  0  0  0  0  0  0  0  0  0  0
   -7.2657    3.7367    0.0000 O   0  0  0  0  0  0  0  0  0  0  0  0
   -2.0902   -2.0913    0.0000 C   0  0  0  0  0  0  0  0  0  0  0  0
   -1.6365   -3.5210    0.0000 C   0  0  0  0  0  0  0  0  0  0  0  0
   -0.1366   -3.5313    0.0000 C   0  0  0  0  0  0  0  0  0  0  0  0
    0.3368   -2.1080    0.0000 C   0  0  0  0  0  0  0  0  0  0  0  0
    1.7112   -1.5073    0.0000 C   0  0  0  0  0  0  0  0  0  0  0  0
    2.9187   -2.3973    0.0000 C   0  0  0  0  0  0  0  0  0  0  0  0
    4.2932   -1.7966    0.0000 C   0  0  0  0  0  0  0  0  0  0  0  0
    4.4602   -0.3060    0.0000 C   0  0  0  0  0  0  0  0  0  0  0  0
    5.8347    0.2947    0.0000 C   0  0  0  0  0  0  0  0  0  0  0  0
    6.0017    1.7854    0.0000 C   0  0  0  0  0  0  0  0  0  0  0  0
    7.3762    2.3861    0.0000 O   0  0  0  0  0  0  0  0  0  0  0  0
    4.7943    2.6754    0.0000 C   0  0  0  0  0  0  0  0  0  0  0  0
    3.4198    2.0747    0.0000 C   0  0  0  0  0  0  0  0  0  0  0  0
    3.2528    0.5840    0.0000 C   0  0  0  0  0  0  0  0  0  0  0  0
    2.0453    1.4740    0.0000 C   0  0  0  0  0  0  0  0  0  0  0  0
    1.8783   -0.0166    0.0000 C   0  0  0  0  0  0  0  0  0  0  0  0
    0.6708    0.8734    0.0000 C   0  0  0  0  0  0  0  0  0  0  0  0
   -0.7036    0.2727    0.0000 C   0  0  0  0  0  0  0  0  0  0  0  0
   -0.8707   -1.2180    0.0000 C   0  0  0  0  0  0  0  0  0  0  0  0
   -2.1645   -0.4591    0.0000 C   0  0  0  0  0  0  0  0  0  0  0  0
  2  1  1  6
  2  3  1  0
  3  4  1  0
  4  5  1  0
  5  6  2  0
  5  7  1  0
  7  8  1  0
  2  9  1  0
  9 10  1  6
 10 11  1  0
 12 11  1  6
 12 13  1  0
 13 14  1  1
 14 15  1  0
 16 15  1  1
 16 17  1  0
 17 18  1  0
 18 19  2  0
 18 20  1  0
 20 21  1  0
 21 22  1  0
 22 23  1  6
 22 24  1  0
 24 25  1  6
 25 26  1  0
 26 27  1  0
 27 28  1  6
 27  9  1  0
 27 12  1  0
 24 13  1  0
 22 16  1  0
M  END
>  <MS_ID>  (1982) 
MS2055

>  <SMILES>  (1982) 
C[C@H](CCC(=O)CO)[C@H]1CC[C@H]2[C@@H]3CC[C@@H]4CC(=O)CC[C@]4(C)[C@H]3CC[C@]12C

>  <Structure_dimension>  (1982) 
2D

$$$$
MS2056
     RDKit          2D

 29 32  0  0  0  0  0  0  0  0999 V2000
   -5.2702   -2.0861    0.0000 C   0  0  0  0  0  0  0  0  0  0  0  0
   -4.1070   -1.1390    0.0000 C   0  0  0  0  0  0  0  0  0  0  0  0
   -4.3456    0.3419    0.0000 C   0  0  0  0  0  0  0  0  0  0  0  0
   -5.7474    0.8757    0.0000 C   0  0  0  0  0  0  0  0  0  0  0  0
   -5.9860    2.3566    0.0000 C   0  0  0  0  0  0  0  0  0  0  0  0
   -4.8228    3.3037    0.0000 O   0  0  0  0  0  0  0  0  0  0  0  0
   -7.3878    2.8904    0.0000 O   0  0  0  0  0  0  0  0  0  0  0  0
   -2.7052   -1.6729    0.0000 C   0  0  0  0  0  0  0  0  0  0  0  0
   -2.3131   -3.1207    0.0000 C   0  0  0  0  0  0  0  0  0  0  0  0
   -0.8149   -3.1952    0.0000 C   0  0  0  0  0  0  0  0  0  0  0  0
   -0.2811   -1.7934    0.0000 C   0  0  0  0  0  0  0  0  0  0  0  0
    1.1178   -1.2521    0.0000 C   0  0  0  0  0  0  0  0  0  0  0  0
    2.2860   -2.1930    0.0000 C   0  0  0  0  0  0  0  0  0  0  0  0
    2.0553   -3.6752    0.0000 O   0  0  0  0  0  0  0  0  0  0  0  0
    3.6850   -1.6517    0.0000 C   0  0  0  0  0  0  0  0  0  0  0  0
    3.9157   -0.1696    0.0000 C   0  0  0  0  0  0  0  0  0  0  0  0
    5.0839   -1.1105    0.0000 O   0  0  0  0  0  0  0  0  0  0  0  0
    5.3146    0.3717    0.0000 C   0  0  0  0  0  0  0  0  0  0  0  0
    5.5453    1.8538    0.0000 C   0  0  0  0  0  0  0  0  0  0  0  0
    6.9442    2.3951    0.0000 O   0  0  0  0  0  0  0  0  0  0  0  0
    4.3771    2.7947    0.0000 C   0  0  0  0  0  0  0  0  0  0  0  0
    2.9781    2.2534    0.0000 C   0  0  0  0  0  0  0  0  0  0  0  0
    2.7474    0.7713    0.0000 C   0  0  0  0  0  0  0  0  0  0  0  0
    1.5792    1.7122    0.0000 C   0  0  0  0  0  0  0  0  0  0  0  0
    1.3485    0.2300    0.0000 C   0  0  0  0  0  0  0  0  0  0  0  0
    0.1803    1.1709    0.0000 C   0  0  0  0  0  0  0  0  0  0  0  0
   -1.2187    0.6296    0.0000 C   0  0  0  0  0  0  0  0  0  0  0  0
   -1.4494   -0.8526    0.0000 C   0  0  0  0  0  0  0  0  0  0  0  0
   -2.7095   -0.0389    0.0000 C   0  0  0  0  0  0  0  0  0  0  0  0
  2  1  1  6
  2  3  1  0
  3  4  1  0
  4  5  1  0
  5  6  2  0
  5  7  1  0
  2  8  1  0
  8  9  1  6
  9 10  1  0
 11 10  1  6
 11 12  1  0
 12 13  1  1
 13 14  1  1
 13 15  1  0
 15 16  1  0
 16 17  1  6
 16 18  1  0
 18 19  1  0
 19 20  1  1
 19 21  1  0
 21 22  1  0
 22 23  1  0
 23 24  1  6
 23 25  1  0
 25 26  1  6
 26 27  1  0
 27 28  1  0
 28 29  1  6
 28  8  1  0
 28 11  1  0
 25 12  1  0
 23 16  1  0
M  END
>  <MS_ID>  (1983) 
MS2056

>  <SMILES>  (1983) 
C[C@H](CCC(=O)O)[C@H]1CC[C@H]2[C@@H]3[C@H](O)C[C@]4(O)C[C@H](O)CC[C@]4(C)[C@H]3CC[C@]12C

>  <Structure_dimension>  (1983) 
2D

$$$$
MS2057
     RDKit          2D

 36 40  0  0  0  0  0  0  0  0999 V2000
   -7.8664   -1.2913    0.0000 C   0  0  0  0  0  0  0  0  0  0  0  0
   -6.5473   -0.5773    0.0000 C   0  0  0  0  0  0  0  0  0  0  0  0
   -6.5060    0.9222    0.0000 C   0  0  0  0  0  0  0  0  0  0  0  0
   -7.7840    1.7076    0.0000 C   0  0  0  0  0  0  0  0  0  0  0  0
   -7.7427    3.2070    0.0000 C   0  0  0  0  0  0  0  0  0  0  0  0
   -6.4236    3.9210    0.0000 O   0  0  0  0  0  0  0  0  0  0  0  0
   -9.0207    3.9924    0.0000 O   0  0  0  0  0  0  0  0  0  0  0  0
   -5.2693   -1.3627    0.0000 C   0  0  0  0  0  0  0  0  0  0  0  0
   -5.1536   -2.8582    0.0000 C   0  0  0  0  0  0  0  0  0  0  0  0
   -3.6955   -3.2103    0.0000 C   0  0  0  0  0  0  0  0  0  0  0  0
   -2.9101   -1.9324    0.0000 C   0  0  0  0  0  0  0  0  0  0  0  0
   -1.4348   -1.6609    0.0000 C   0  0  0  0  0  0  0  0  0  0  0  0
   -0.4622   -2.8028    0.0000 C   0  0  0  0  0  0  0  0  0  0  0  0
   -0.9647   -4.2161    0.0000 O   0  0  0  0  0  0  0  0  0  0  0  0
    1.0131   -2.5314    0.0000 C   0  0  0  0  0  0  0  0  0  0  0  0
    1.5156   -1.1181    0.0000 C   0  0  0  0  0  0  0  0  0  0  0  0
    2.9909   -0.8467    0.0000 C   0  0  0  0  0  0  0  0  0  0  0  0
    3.4934    0.5666    0.0000 C   0  0  0  0  0  0  0  0  0  0  0  0
    4.9687    0.8381    0.0000 O   0  0  0  0  0  0  0  0  0  0  0  0
    5.9414   -0.3038    0.0000 C   0  0  0  0  0  0  0  0  0  0  0  0
    7.4166   -0.0324    0.0000 C   0  0  0  0  0  0  0  0  0  0  0  0
    8.3893   -1.1743    0.0000 C   0  0  0  0  0  0  0  0  0  0  0  0
    9.8645   -0.9029    0.0000 C   0  0  0  0  0  0  0  0  0  0  0  0
   10.3671    0.5104    0.0000 C   0  0  0  0  0  0  0  0  0  0  0  0
    9.3944    1.6523    0.0000 C   0  0  0  0  0  0  0  0  0  0  0  0
    9.8969    3.0656    0.0000 O   0  0  0  0  0  0  0  0  0  0  0  0
    7.9192    1.3809    0.0000 C   0  0  0  0  0  0  0  0  0  0  0  0
    2.5208    1.7085    0.0000 C   0  0  0  0  0  0  0  0  0  0  0  0
    1.0455    1.4371    0.0000 C   0  0  0  0  0  0  0  0  0  0  0  0
    0.5430    0.0238    0.0000 C   0  0  0  0  0  0  0  0  0  0  0  0
   -0.4297    1.1657    0.0000 C   0  0  0  0  0  0  0  0  0  0  0  0
   -0.9323   -0.2476    0.0000 C   0  0  0  0  0  0  0  0  0  0  0  0
   -1.9050    0.8942    0.0000 C   0  0  0  0  0  0  0  0  0  0  0  0
   -3.3802    0.6228    0.0000 C   0  0  0  0  0  0  0  0  0  0  0  0
   -3.8828   -0.7905    0.0000 C   0  0  0  0  0  0  0  0  0  0  0  0
   -4.9695    0.2435    0.0000 C   0  0  0  0  0  0  0  0  0  0  0  0
  2  1  1  6
  2  3  1  0
  3  4  1  0
  4  5  1  0
  5  6  2  0
  5  7  1  0
  2  8  1  0
  8  9  1  6
  9 10  1  0
 11 10  1  6
 11 12  1  0
 12 13  1  1
 13 14  1  6
 13 15  1  0
 16 15  1  1
 16 17  1  0
 17 18  1  0
 18 19  1  1
 19 20  1  0
 20 21  1  0
 21 22  2  0
 22 23  1  0
 23 24  2  0
 24 25  1  0
 25 26  1  0
 25 27  2  0
 18 28  1  0
 28 29  1  0
 29 30  1  0
 30 31  1  6
 30 32  1  0
 32 33  1  6
 33 34  1  0
 34 35  1  0
 35 36  1  6
 35  8  1  0
 35 11  1  0
 32 12  1  0
 30 16  1  0
 27 21  1  0
M  END
>  <MS_ID>  (1984) 
MS2057

>  <SMILES>  (1984) 
C[C@H](CCC(=O)O)[C@H]1CC[C@H]2[C@@H]3[C@@H](O)C[C@@H]4C[C@H](OCc5cccc(O)c5)CC[C@]4(C)[C@H]3CC[C@]12C

>  <Structure_dimension>  (1984) 
2D

$$$$
MS2058
     RDKit          2D

 33 36  0  0  0  0  0  0  0  0999 V2000
   -4.9756    5.2567    0.0000 C   0  0  0  0  0  0  0  0  0  0  0  0
   -4.3346    3.9005    0.0000 O   0  0  0  0  0  0  0  0  0  0  0  0
   -5.1886    2.6674    0.0000 C   0  0  0  0  0  0  0  0  0  0  0  0
   -6.6835    2.7903    0.0000 O   0  0  0  0  0  0  0  0  0  0  0  0
   -4.5476    1.3112    0.0000 O   0  0  0  0  0  0  0  0  0  0  0  0
   -5.4016    0.0780    0.0000 C   0  0  0  0  0  0  0  0  0  0  0  0
   -6.8965    0.2010    0.0000 O   0  0  0  0  0  0  0  0  0  0  0  0
   -4.7606   -1.2781    0.0000 C   0  0  0  0  0  0  0  0  0  0  0  0
   -3.2657   -1.4011    0.0000 C   0  0  0  0  0  0  0  0  0  0  0  0
   -2.6247   -2.7573    0.0000 C   0  0  0  0  0  0  0  0  0  0  0  0
   -3.4787   -3.9904    0.0000 C   0  0  0  0  0  0  0  0  0  0  0  0
   -1.1297   -2.8802    0.0000 C   0  0  0  0  0  0  0  0  0  0  0  0
   -0.3505   -4.1620    0.0000 C   0  0  0  0  0  0  0  0  0  0  0  0
    1.1093   -3.8169    0.0000 C   0  0  0  0  0  0  0  0  0  0  0  0
    1.2322   -2.3220    0.0000 C   0  0  0  0  0  0  0  0  0  0  0  0
    2.4255   -1.4131    0.0000 C   0  0  0  0  0  0  0  0  0  0  0  0
    3.8093   -1.9920    0.0000 C   0  0  0  0  0  0  0  0  0  0  0  0
    3.9998   -3.4798    0.0000 O   0  0  0  0  0  0  0  0  0  0  0  0
    5.0025   -1.0831    0.0000 C   0  0  0  0  0  0  0  0  0  0  0  0
    4.8120    0.4048    0.0000 C   0  0  0  0  0  0  0  0  0  0  0  0
    6.0052    1.3137    0.0000 C   0  0  0  0  0  0  0  0  0  0  0  0
    5.8147    2.8016    0.0000 C   0  0  0  0  0  0  0  0  0  0  0  0
    7.0080    3.7105    0.0000 O   0  0  0  0  0  0  0  0  0  0  0  0
    4.4309    3.3805    0.0000 C   0  0  0  0  0  0  0  0  0  0  0  0
    3.2377    2.4716    0.0000 C   0  0  0  0  0  0  0  0  0  0  0  0
    3.4282    0.9837    0.0000 C   0  0  0  0  0  0  0  0  0  0  0  0
    2.0444    1.5626    0.0000 C   0  0  0  0  0  0  0  0  0  0  0  0
    2.2350    0.0748    0.0000 C   0  0  0  0  0  0  0  0  0  0  0  0
    0.8512    0.6537    0.0000 C   0  0  0  0  0  0  0  0  0  0  0  0
   -0.3421   -0.2552    0.0000 C   0  0  0  0  0  0  0  0  0  0  0  0
   -1.7259    0.3237    0.0000 O   0  0  0  0  0  0  0  0  0  0  0  0
   -0.1515   -1.7431    0.0000 C   0  0  0  0  0  0  0  0  0  0  0  0
   -1.5883   -1.3120    0.0000 C   0  0  0  0  0  0  0  0  0  0  0  0
  1  2  1  0
  2  3  1  0
  3  4  2  0
  3  5  1  0
  5  6  1  0
  6  7  2  0
  6  8  1  0
  8  9  1  0
  9 10  1  0
 10 11  1  6
 10 12  1  0
 12 13  1  6
 13 14  1  0
 15 14  1  6
 15 16  1  0
 16 17  1  1
 17 18  1  1
 17 19  1  0
 20 19  1  1
 20 21  1  0
 21 22  1  0
 22 23  1  1
 22 24  1  0
 24 25  1  0
 25 26  1  0
 26 27  1  6
 26 28  1  0
 28 29  1  6
 29 30  1  0
 30 31  1  1
 30 32  1  0
 32 33  1  6
 32 12  1  0
 32 15  1  0
 28 16  1  0
 26 20  1  0
M  END
>  <MS_ID>  (1985) 
MS2058

>  <SMILES>  (1985) 
COC(=O)OC(=O)CC[C@@H](C)[C@H]1CC[C@H]2[C@@H]3[C@H](O)C[C@@H]4C[C@H](O)CC[C@]4(C)[C@H]3C[C@H](O)[C@]12C

>  <Structure_dimension>  (1985) 
2D

$$$$
MS2059
     RDKit          2D

 30 33  0  0  0  0  0  0  0  0999 V2000
   -4.2255   -2.8134    0.0000 C   0  0  0  0  0  0  0  0  0  0  0  0
   -3.1320   -1.7867    0.0000 C   0  0  0  0  0  0  0  0  0  0  0  0
   -3.4744   -0.3263    0.0000 C   0  0  0  0  0  0  0  0  0  0  0  0
   -4.9104    0.1074    0.0000 C   0  0  0  0  0  0  0  0  0  0  0  0
   -5.2528    1.5677    0.0000 C   0  0  0  0  0  0  0  0  0  0  0  0
   -4.1593    2.5945    0.0000 O   0  0  0  0  0  0  0  0  0  0  0  0
   -6.6888    2.0014    0.0000 C   0  0  0  0  0  0  0  0  0  0  0  0
   -7.7823    0.9746    0.0000 O   0  0  0  0  0  0  0  0  0  0  0  0
   -7.0312    3.4618    0.0000 O   0  0  0  0  0  0  0  0  0  0  0  0
   -1.6961   -2.2203    0.0000 C   0  0  0  0  0  0  0  0  0  0  0  0
   -1.2029   -3.6369    0.0000 C   0  0  0  0  0  0  0  0  0  0  0  0
    0.2968   -3.6056    0.0000 C   0  0  0  0  0  0  0  0  0  0  0  0
    0.7305   -2.1697    0.0000 C   0  0  0  0  0  0  0  0  0  0  0  0
    2.0877   -1.5311    0.0000 C   0  0  0  0  0  0  0  0  0  0  0  0
    3.3194   -2.3873    0.0000 C   0  0  0  0  0  0  0  0  0  0  0  0
    4.6767   -1.7487    0.0000 C   0  0  0  0  0  0  0  0  0  0  0  0
    4.8023   -0.2540    0.0000 C   0  0  0  0  0  0  0  0  0  0  0  0
    6.1596    0.3846    0.0000 C   0  0  0  0  0  0  0  0  0  0  0  0
    6.2852    1.8794    0.0000 C   0  0  0  0  0  0  0  0  0  0  0  0
    7.6425    2.5179    0.0000 O   0  0  0  0  0  0  0  0  0  0  0  0
    5.0536    2.7355    0.0000 C   0  0  0  0  0  0  0  0  0  0  0  0
    3.6963    2.0969    0.0000 C   0  0  0  0  0  0  0  0  0  0  0  0
    3.5706    0.6022    0.0000 C   0  0  0  0  0  0  0  0  0  0  0  0
    2.3390    1.4584    0.0000 C   0  0  0  0  0  0  0  0  0  0  0  0
    2.2134   -0.0364    0.0000 C   0  0  0  0  0  0  0  0  0  0  0  0
    0.9817    0.8198    0.0000 C   0  0  0  0  0  0  0  0  0  0  0  0
   -0.3756    0.1812    0.0000 C   0  0  0  0  0  0  0  0  0  0  0  0
   -1.6072    1.0374    0.0000 O   0  0  0  0  0  0  0  0  0  0  0  0
   -0.5012   -1.3135    0.0000 C   0  0  0  0  0  0  0  0  0  0  0  0
   -1.8156   -0.5908    0.0000 C   0  0  0  0  0  0  0  0  0  0  0  0
  2  1  1  6
  2  3  1  0
  3  4  1  0
  4  5  1  0
  5  6  2  0
  5  7  1  0
  7  8  2  0
  7  9  1  0
  2 10  1  0
 10 11  1  6
 11 12  1  0
 13 12  1  6
 13 14  1  0
 14 15  1  1
 15 16  1  0
 17 16  1  1
 17 18  1  0
 18 19  1  0
 19 20  1  6
 19 21  1  0
 21 22  1  0
 22 23  1  0
 23 24  1  6
 23 25  1  0
 25 26  1  6
 26 27  1  0
 27 28  1  1
 27 29  1  0
 29 30  1  6
 29 10  1  0
 29 13  1  0
 25 14  1  0
 23 17  1  0
M  END
>  <MS_ID>  (1986) 
MS2059

>  <SMILES>  (1986) 
C[C@H](CCC(=O)C(=O)O)[C@H]1CC[C@H]2[C@@H]3CC[C@@H]4C[C@@H](O)CC[C@]4(C)[C@H]3C[C@H](O)[C@]12C

>  <Structure_dimension>  (1986) 
2D

$$$$
MS2060
     RDKit          2D

 32 35  0  0  0  0  0  0  0  0999 V2000
   -3.1421   -3.6694    0.0000 C   0  0  0  0  0  0  0  0  0  0  0  0
   -2.2628   -2.4541    0.0000 C   0  0  0  0  0  0  0  0  0  0  0  0
   -2.8756   -1.0850    0.0000 C   0  0  0  0  0  0  0  0  0  0  0  0
   -4.3676   -0.9311    0.0000 C   0  0  0  0  0  0  0  0  0  0  0  0
   -4.9804    0.4380    0.0000 C   0  0  0  0  0  0  0  0  0  0  0  0
   -4.1011    1.6532    0.0000 O   0  0  0  0  0  0  0  0  0  0  0  0
   -6.4725    0.5919    0.0000 O   0  0  0  0  0  0  0  0  0  0  0  0
   -7.0853    1.9610    0.0000 C   0  0  0  0  0  0  0  0  0  0  0  0
   -8.5774    2.1149    0.0000 C   0  0  0  0  0  0  0  0  0  0  0  0
   -9.4567    0.8996    0.0000 O   0  0  0  0  0  0  0  0  0  0  0  0
   -9.1901    3.4840    0.0000 O   0  0  0  0  0  0  0  0  0  0  0  0
   -0.7707   -2.6080    0.0000 C   0  0  0  0  0  0  0  0  0  0  0  0
   -0.0182   -3.9056    0.0000 C   0  0  0  0  0  0  0  0  0  0  0  0
    1.4484   -3.5909    0.0000 C   0  0  0  0  0  0  0  0  0  0  0  0
    1.6023   -2.0988    0.0000 C   0  0  0  0  0  0  0  0  0  0  0  0
    2.8141   -1.2147    0.0000 C   0  0  0  0  0  0  0  0  0  0  0  0
    4.1856   -1.8222    0.0000 C   0  0  0  0  0  0  0  0  0  0  0  0
    4.3453   -3.3136    0.0000 O   0  0  0  0  0  0  0  0  0  0  0  0
    5.3974   -0.9381    0.0000 C   0  0  0  0  0  0  0  0  0  0  0  0
    5.2377    0.5533    0.0000 C   0  0  0  0  0  0  0  0  0  0  0  0
    6.4495    1.4374    0.0000 C   0  0  0  0  0  0  0  0  0  0  0  0
    6.2898    2.9289    0.0000 C   0  0  0  0  0  0  0  0  0  0  0  0
    7.5016    3.8129    0.0000 O   0  0  0  0  0  0  0  0  0  0  0  0
    4.9183    3.5363    0.0000 C   0  0  0  0  0  0  0  0  0  0  0  0
    3.7065    2.6522    0.0000 C   0  0  0  0  0  0  0  0  0  0  0  0
    3.8662    1.1608    0.0000 C   0  0  0  0  0  0  0  0  0  0  0  0
    2.4947    1.7682    0.0000 C   0  0  0  0  0  0  0  0  0  0  0  0
    2.6544    0.2767    0.0000 C   0  0  0  0  0  0  0  0  0  0  0  0
    1.2829    0.8842    0.0000 C   0  0  0  0  0  0  0  0  0  0  0  0
    0.0711    0.0001    0.0000 C   0  0  0  0  0  0  0  0  0  0  0  0
    0.2308   -1.4914    0.0000 C   0  0  0  0  0  0  0  0  0  0  0  0
   -1.1967   -1.0306    0.0000 C   0  0  0  0  0  0  0  0  0  0  0  0
  2  1  1  6
  2  3  1  0
  3  4  1  0
  4  5  1  0
  5  6  2  0
  5  7  1  0
  7  8  1  0
  8  9  1  0
  9 10  2  0
  9 11  1  0
  2 12  1  0
 12 13  1  6
 13 14  1  0
 15 14  1  6
 15 16  1  0
 16 17  1  1
 17 18  1  1
 17 19  1  0
 20 19  1  1
 20 21  1  0
 21 22  1  0
 22 23  1  6
 22 24  1  0
 24 25  1  0
 25 26  1  0
 26 27  1  6
 26 28  1  0
 28 29  1  6
 29 30  1  0
 30 31  1  0
 31 32  1  6
 31 12  1  0
 31 15  1  0
 28 16  1  0
 26 20  1  0
M  END
>  <MS_ID>  (1987) 
MS2060

>  <SMILES>  (1987) 
C[C@H](CCC(=O)OCC(=O)O)[C@H]1CC[C@H]2[C@@H]3[C@H](O)C[C@@H]4C[C@@H](O)CC[C@]4(C)[C@H]3CC[C@]12C

>  <Structure_dimension>  (1987) 
2D

$$$$
MS2061
     RDKit          2D

 36 39  0  0  0  0  0  0  0  0999 V2000
   -1.8010   -4.2744    0.0000 C   0  0  0  0  0  0  0  0  0  0  0  0
   -1.0811   -2.9584    0.0000 C   0  0  0  0  0  0  0  0  0  0  0  0
   -1.8609   -1.6770    0.0000 C   0  0  0  0  0  0  0  0  0  0  0  0
   -3.3605   -1.7115    0.0000 C   0  0  0  0  0  0  0  0  0  0  0  0
   -4.1402   -0.4301    0.0000 C   0  0  0  0  0  0  0  0  0  0  0  0
   -3.4203    0.8858    0.0000 O   0  0  0  0  0  0  0  0  0  0  0  0
   -5.6398   -0.4647    0.0000 O   0  0  0  0  0  0  0  0  0  0  0  0
   -6.4195    0.8168    0.0000 C   0  0  0  0  0  0  0  0  0  0  0  0
   -7.9191    0.7822    0.0000 C   0  0  0  0  0  0  0  0  0  0  0  0
   -8.6390   -0.5338    0.0000 O   0  0  0  0  0  0  0  0  0  0  0  0
   -8.6988    2.0636    0.0000 C   0  0  0  0  0  0  0  0  0  0  0  0
   -9.9802    1.2839    0.0000 C   0  0  0  0  0  0  0  0  0  0  0  0
   -7.4174    2.8433    0.0000 C   0  0  0  0  0  0  0  0  0  0  0  0
   -9.4785    3.3450    0.0000 C   0  0  0  0  0  0  0  0  0  0  0  0
    0.4185   -2.9239    0.0000 C   0  0  0  0  0  0  0  0  0  0  0  0
    1.3278   -4.1168    0.0000 C   0  0  0  0  0  0  0  0  0  0  0  0
    2.7434   -3.6205    0.0000 C   0  0  0  0  0  0  0  0  0  0  0  0
    2.7088   -2.1209    0.0000 C   0  0  0  0  0  0  0  0  0  0  0  0
    3.8001   -1.0918    0.0000 C   0  0  0  0  0  0  0  0  0  0  0  0
    5.2370   -1.5224    0.0000 C   0  0  0  0  0  0  0  0  0  0  0  0
    5.5826   -2.9820    0.0000 O   0  0  0  0  0  0  0  0  0  0  0  0
    6.3283   -0.4933    0.0000 C   0  0  0  0  0  0  0  0  0  0  0  0
    5.9828    0.9664    0.0000 C   0  0  0  0  0  0  0  0  0  0  0  0
    7.0741    1.9955    0.0000 C   0  0  0  0  0  0  0  0  0  0  0  0
    6.7285    3.4551    0.0000 C   0  0  0  0  0  0  0  0  0  0  0  0
    7.8198    4.4843    0.0000 O   0  0  0  0  0  0  0  0  0  0  0  0
    5.2916    3.8857    0.0000 C   0  0  0  0  0  0  0  0  0  0  0  0
    4.2003    2.8566    0.0000 C   0  0  0  0  0  0  0  0  0  0  0  0
    4.5459    1.3969    0.0000 C   0  0  0  0  0  0  0  0  0  0  0  0
    3.1090    1.8275    0.0000 C   0  0  0  0  0  0  0  0  0  0  0  0
    3.4546    0.3678    0.0000 C   0  0  0  0  0  0  0  0  0  0  0  0
    2.0177    0.7984    0.0000 C   0  0  0  0  0  0  0  0  0  0  0  0
    0.9264   -0.2307    0.0000 C   0  0  0  0  0  0  0  0  0  0  0  0
   -0.5105    0.1998    0.0000 O   0  0  0  0  0  0  0  0  0  0  0  0
    1.2720   -1.6904    0.0000 C   0  0  0  0  0  0  0  0  0  0  0  0
   -0.2021   -1.4124    0.0000 C   0  0  0  0  0  0  0  0  0  0  0  0
  2  1  1  6
  2  3  1  0
  3  4  1  0
  4  5  1  0
  5  6  2  0
  5  7  1  0
  7  8  1  0
  8  9  1  0
  9 10  1  1
  9 11  1  0
 11 12  1  0
 11 13  1  0
 11 14  1  0
  2 15  1  0
 15 16  1  6
 16 17  1  0
 18 17  1  6
 18 19  1  0
 19 20  1  1
 20 21  1  1
 20 22  1  0
 23 22  1  1
 23 24  1  0
 24 25  1  0
 25 26  1  1
 25 27  1  0
 27 28  1  0
 28 29  1  0
 29 30  1  6
 29 31  1  0
 31 32  1  6
 32 33  1  0
 33 34  1  1
 33 35  1  0
 35 36  1  6
 35 15  1  0
 35 18  1  0
 31 19  1  0
 29 23  1  0
M  END
>  <MS_ID>  (1988) 
MS2061

>  <SMILES>  (1988) 
C[C@H](CCC(=O)OC[C@@H](O)C(C)(C)C)[C@H]1CC[C@H]2[C@@H]3[C@H](O)C[C@@H]4C[C@H](O)CC[C@]4(C)[C@H]3C[C@H](O)[C@]12C

>  <Structure_dimension>  (1988) 
2D

$$$$
MS2062
     RDKit          2D

 38 42  0  0  0  0  0  0  0  0999 V2000
   -0.9183   -4.7104    0.0000 C   0  0  0  0  0  0  0  0  0  0  0  0
   -0.3205   -3.3346    0.0000 C   0  0  0  0  0  0  0  0  0  0  0  0
   -1.2130   -2.1290    0.0000 C   0  0  0  0  0  0  0  0  0  0  0  0
   -2.7033   -2.2991    0.0000 C   0  0  0  0  0  0  0  0  0  0  0  0
   -3.5958   -1.0935    0.0000 C   0  0  0  0  0  0  0  0  0  0  0  0
   -2.9979    0.2822    0.0000 O   0  0  0  0  0  0  0  0  0  0  0  0
   -5.0861   -1.2636    0.0000 O   0  0  0  0  0  0  0  0  0  0  0  0
   -5.9786   -0.0580    0.0000 C   0  0  0  0  0  0  0  0  0  0  0  0
   -5.3807    1.3177    0.0000 O   0  0  0  0  0  0  0  0  0  0  0  0
   -6.2732    2.5233    0.0000 C   0  0  0  0  0  0  0  0  0  0  0  0
   -5.6754    3.8990    0.0000 O   0  0  0  0  0  0  0  0  0  0  0  0
   -7.7635    2.3532    0.0000 C   0  0  0  0  0  0  0  0  0  0  0  0
   -8.6560    3.5588    0.0000 O   0  0  0  0  0  0  0  0  0  0  0  0
   -8.3614    0.9775    0.0000 C   0  0  0  0  0  0  0  0  0  0  0  0
   -9.8517    0.8073    0.0000 O   0  0  0  0  0  0  0  0  0  0  0  0
   -7.4689   -0.2282    0.0000 C   0  0  0  0  0  0  0  0  0  0  0  0
   -8.0667   -1.6039    0.0000 O   0  0  0  0  0  0  0  0  0  0  0  0
    1.1698   -3.1645    0.0000 C   0  0  0  0  0  0  0  0  0  0  0  0
    2.1834   -4.2702    0.0000 C   0  0  0  0  0  0  0  0  0  0  0  0
    3.5483   -3.6479    0.0000 C   0  0  0  0  0  0  0  0  0  0  0  0
    3.3781   -2.1576    0.0000 C   0  0  0  0  0  0  0  0  0  0  0  0
    4.3718   -1.0340    0.0000 C   0  0  0  0  0  0  0  0  0  0  0  0
    5.8418   -1.3327    0.0000 C   0  0  0  0  0  0  0  0  0  0  0  0
    6.3180   -2.7551    0.0000 O   0  0  0  0  0  0  0  0  0  0  0  0
    6.8355   -0.2091    0.0000 C   0  0  0  0  0  0  0  0  0  0  0  0
    6.3593    1.2133    0.0000 C   0  0  0  0  0  0  0  0  0  0  0  0
    7.3530    2.3369    0.0000 C   0  0  0  0  0  0  0  0  0  0  0  0
    6.8767    3.7593    0.0000 C   0  0  0  0  0  0  0  0  0  0  0  0
    7.8704    4.8830    0.0000 O   0  0  0  0  0  0  0  0  0  0  0  0
    5.4068    4.0581    0.0000 C   0  0  0  0  0  0  0  0  0  0  0  0
    4.4131    2.9344    0.0000 C   0  0  0  0  0  0  0  0  0  0  0  0
    4.8893    1.5121    0.0000 C   0  0  0  0  0  0  0  0  0  0  0  0
    3.4194    1.8108    0.0000 C   0  0  0  0  0  0  0  0  0  0  0  0
    3.8956    0.3884    0.0000 C   0  0  0  0  0  0  0  0  0  0  0  0
    2.4257    0.6872    0.0000 C   0  0  0  0  0  0  0  0  0  0  0  0
    1.4320   -0.4365    0.0000 C   0  0  0  0  0  0  0  0  0  0  0  0
    1.9082   -1.8589    0.0000 C   0  0  0  0  0  0  0  0  0  0  0  0
    0.4151   -1.7154    0.0000 C   0  0  0  0  0  0  0  0  0  0  0  0
  2  1  1  6
  2  3  1  0
  3  4  1  0
  4  5  1  0
  5  6  2  0
  5  7  1  0
  8  7  1  6
  8  9  1  0
  9 10  1  0
 10 11  1  6
 10 12  1  0
 12 13  1  1
 12 14  1  0
 14 15  1  6
 14 16  1  0
 16 17  1  1
  2 18  1  0
 18 19  1  6
 19 20  1  0
 21 20  1  6
 21 22  1  0
 22 23  1  1
 23 24  1  1
 23 25  1  0
 26 25  1  1
 26 27  1  0
 27 28  1  0
 28 29  1  1
 28 30  1  0
 30 31  1  0
 31 32  1  0
 32 33  1  6
 32 34  1  0
 34 35  1  6
 35 36  1  0
 36 37  1  0
 37 38  1  6
 16  8  1  0
 37 18  1  0
 37 21  1  0
 34 22  1  0
 32 26  1  0
M  END
>  <MS_ID>  (1989) 
MS2062

>  <SMILES>  (1989) 
C[C@H](CCC(=O)O[C@H]1O[C@@H](O)[C@H](O)[C@@H](O)[C@@H]1O)[C@H]1CC[C@H]2[C@@H]3[C@H](O)C[C@@H]4C[C@H](O)CC[C@]4(C)[C@H]3CC[C@]12C

>  <Structure_dimension>  (1989) 
2D

$$$$
MS2063
     RDKit          2D

 33 36  0  0  0  0  0  0  0  0999 V2000
  -11.0589    2.8983    0.0000 C   0  0  0  0  0  0  0  0  0  0  0  0
   -9.5600    2.8405    0.0000 C   0  0  0  0  0  0  0  0  0  0  0  0
   -8.8607    1.5135    0.0000 C   0  0  0  0  0  0  0  0  0  0  0  0
   -7.3618    1.4556    0.0000 C   0  0  0  0  0  0  0  0  0  0  0  0
   -6.6625    0.1286    0.0000 C   0  0  0  0  0  0  0  0  0  0  0  0
   -5.1636    0.0708    0.0000 C   0  0  0  0  0  0  0  0  0  0  0  0
   -4.3640    1.3399    0.0000 O   0  0  0  0  0  0  0  0  0  0  0  0
   -4.4642   -1.2562    0.0000 C   0  0  0  0  0  0  0  0  0  0  0  0
   -2.9654   -1.3141    0.0000 C   0  0  0  0  0  0  0  0  0  0  0  0
   -2.2660   -2.6411    0.0000 C   0  0  0  0  0  0  0  0  0  0  0  0
   -3.0656   -3.9102    0.0000 C   0  0  0  0  0  0  0  0  0  0  0  0
   -0.7671   -2.6989    0.0000 C   0  0  0  0  0  0  0  0  0  0  0  0
    0.0671   -3.9456    0.0000 C   0  0  0  0  0  0  0  0  0  0  0  0
    1.5105   -3.5374    0.0000 C   0  0  0  0  0  0  0  0  0  0  0  0
    1.5683   -2.0385    0.0000 C   0  0  0  0  0  0  0  0  0  0  0  0
    2.7209   -1.0786    0.0000 C   0  0  0  0  0  0  0  0  0  0  0  0
    4.1286   -1.5968    0.0000 C   0  0  0  0  0  0  0  0  0  0  0  0
    4.3836   -3.0749    0.0000 O   0  0  0  0  0  0  0  0  0  0  0  0
    5.2812   -0.6368    0.0000 C   0  0  0  0  0  0  0  0  0  0  0  0
    6.6888   -1.1550    0.0000 O   0  0  0  0  0  0  0  0  0  0  0  0
    5.0261    0.8413    0.0000 C   0  0  0  0  0  0  0  0  0  0  0  0
    6.1787    1.8013    0.0000 C   0  0  0  0  0  0  0  0  0  0  0  0
    5.9237    3.2795    0.0000 C   0  0  0  0  0  0  0  0  0  0  0  0
    7.0763    4.2394    0.0000 O   0  0  0  0  0  0  0  0  0  0  0  0
    4.5160    3.7977    0.0000 C   0  0  0  0  0  0  0  0  0  0  0  0
    3.3634    2.8377    0.0000 C   0  0  0  0  0  0  0  0  0  0  0  0
    3.6185    1.3595    0.0000 C   0  0  0  0  0  0  0  0  0  0  0  0
    2.2108    1.8777    0.0000 C   0  0  0  0  0  0  0  0  0  0  0  0
    2.4659    0.3996    0.0000 C   0  0  0  0  0  0  0  0  0  0  0  0
    1.0582    0.9178    0.0000 C   0  0  0  0  0  0  0  0  0  0  0  0
   -0.0944   -0.0422    0.0000 C   0  0  0  0  0  0  0  0  0  0  0  0
    0.1607   -1.5203    0.0000 C   0  0  0  0  0  0  0  0  0  0  0  0
   -1.2934   -1.1521    0.0000 C   0  0  0  0  0  0  0  0  0  0  0  0
  1  2  1  0
  2  3  1  0
  3  4  1  0
  4  5  1  0
  5  6  1  0
  6  7  2  0
  6  8  1  0
  8  9  1  0
  9 10  1  0
 10 11  1  6
 10 12  1  0
 12 13  1  6
 13 14  1  0
 15 14  1  6
 15 16  1  0
 16 17  1  1
 17 18  1  1
 17 19  1  0
 19 20  1  1
 19 21  1  0
 21 22  1  1
 22 23  1  0
 23 24  1  1
 23 25  1  0
 25 26  1  0
 26 27  1  0
 27 28  1  6
 27 29  1  0
 29 30  1  6
 30 31  1  0
 31 32  1  0
 32 33  1  6
 32 12  1  0
 32 15  1  0
 29 16  1  0
 27 21  1  0
M  END
>  <MS_ID>  (1990) 
MS2063

>  <SMILES>  (1990) 
CCCCCC(=O)CC[C@@H](C)[C@H]1CC[C@H]2[C@@H]3[C@H](O)[C@H](O)[C@@H]4C[C@H](O)CC[C@]4(C)[C@H]3CC[C@]12C

>  <Structure_dimension>  (1990) 
2D

$$$$
MS2064
     RDKit          2D

 28 31  0  0  0  0  0  0  0  0999 V2000
   -4.6340   -2.3524    0.0000 C   0  0  0  0  0  0  0  0  0  0  0  0
   -3.5242   -1.3434    0.0000 C   0  0  0  0  0  0  0  0  0  0  0  0
   -3.8431    0.1223    0.0000 C   0  0  0  0  0  0  0  0  0  0  0  0
   -5.2720    0.5789    0.0000 C   0  0  0  0  0  0  0  0  0  0  0  0
   -5.5909    2.0446    0.0000 C   0  0  0  0  0  0  0  0  0  0  0  0
   -4.4811    3.0537    0.0000 O   0  0  0  0  0  0  0  0  0  0  0  0
   -7.0197    2.5012    0.0000 O   0  0  0  0  0  0  0  0  0  0  0  0
   -2.0954   -1.8000    0.0000 C   0  0  0  0  0  0  0  0  0  0  0  0
   -1.6249   -3.2243    0.0000 C   0  0  0  0  0  0  0  0  0  0  0  0
   -0.1249   -3.2170    0.0000 C   0  0  0  0  0  0  0  0  0  0  0  0
    0.3317   -1.7882    0.0000 C   0  0  0  0  0  0  0  0  0  0  0  0
    1.6990   -1.1715    0.0000 C   0  0  0  0  0  0  0  0  0  0  0  0
    2.9168   -2.0473    0.0000 C   0  0  0  0  0  0  0  0  0  0  0  0
    2.7672   -3.5398    0.0000 O   0  0  0  0  0  0  0  0  0  0  0  0
    4.2841   -1.4305    0.0000 C   0  0  0  0  0  0  0  0  0  0  0  0
    4.4337    0.0620    0.0000 C   0  0  0  0  0  0  0  0  0  0  0  0
    5.8011    0.6787    0.0000 C   0  0  0  0  0  0  0  0  0  0  0  0
    5.9506    2.1713    0.0000 C   0  0  0  0  0  0  0  0  0  0  0  0
    4.7328    3.0471    0.0000 C   0  0  0  0  0  0  0  0  0  0  0  0
    3.3655    2.4303    0.0000 C   0  0  0  0  0  0  0  0  0  0  0  0
    3.2159    0.9378    0.0000 C   0  0  0  0  0  0  0  0  0  0  0  0
    1.9981    1.8136    0.0000 C   0  0  0  0  0  0  0  0  0  0  0  0
    1.8486    0.3211    0.0000 C   0  0  0  0  0  0  0  0  0  0  0  0
    0.6308    1.1968    0.0000 C   0  0  0  0  0  0  0  0  0  0  0  0
   -0.7366    0.5801    0.0000 C   0  0  0  0  0  0  0  0  0  0  0  0
   -1.9543    1.4559    0.0000 O   0  0  0  0  0  0  0  0  0  0  0  0
   -0.8861   -0.9124    0.0000 C   0  0  0  0  0  0  0  0  0  0  0  0
   -2.1888   -0.1687    0.0000 C   0  0  0  0  0  0  0  0  0  0  0  0
  2  1  1  6
  2  3  1  0
  3  4  1  0
  4  5  1  0
  5  6  2  0
  5  7  1  0
  2  8  1  0
  8  9  1  6
  9 10  1  0
 11 10  1  6
 11 12  1  0
 12 13  1  1
 13 14  2  0
 13 15  1  0
 16 15  1  1
 16 17  1  0
 17 18  1  0
 18 19  1  0
 19 20  1  0
 20 21  1  0
 21 22  1  6
 21 23  1  0
 23 24  1  6
 24 25  1  0
 25 26  1  1
 25 27  1  0
 27 28  1  6
 27  8  1  0
 27 11  1  0
 23 12  1  0
 21 16  1  0
M  END
>  <MS_ID>  (1991) 
MS2064

>  <SMILES>  (1991) 
C[C@H](CCC(=O)O)[C@H]1CC[C@H]2[C@@H]3C(=O)C[C@@H]4CCCC[C@]4(C)[C@H]3C[C@H](O)[C@]12C

>  <Structure_dimension>  (1991) 
2D

$$$$
MS2065
     RDKit          2D

 30 33  0  0  0  0  0  0  0  0999 V2000
   -8.9136    3.2062    0.0000 C   0  0  0  0  0  0  0  0  0  0  0  0
   -7.4457    2.8978    0.0000 O   0  0  0  0  0  0  0  0  0  0  0  0
   -6.9787    1.4724    0.0000 C   0  0  0  0  0  0  0  0  0  0  0  0
   -5.5108    1.1640    0.0000 C   0  0  0  0  0  0  0  0  0  0  0  0
   -4.5097    2.2811    0.0000 O   0  0  0  0  0  0  0  0  0  0  0  0
   -5.0438   -0.2615    0.0000 C   0  0  0  0  0  0  0  0  0  0  0  0
   -3.5759   -0.5698    0.0000 C   0  0  0  0  0  0  0  0  0  0  0  0
   -3.1089   -1.9953    0.0000 C   0  0  0  0  0  0  0  0  0  0  0  0
   -4.1099   -3.1124    0.0000 C   0  0  0  0  0  0  0  0  0  0  0  0
   -1.6409   -2.3036    0.0000 C   0  0  0  0  0  0  0  0  0  0  0  0
   -1.0276   -3.6725    0.0000 C   0  0  0  0  0  0  0  0  0  0  0  0
    0.4638   -3.5121    0.0000 C   0  0  0  0  0  0  0  0  0  0  0  0
    0.7722   -2.0441    0.0000 C   0  0  0  0  0  0  0  0  0  0  0  0
    2.0694   -1.2910    0.0000 C   0  0  0  0  0  0  0  0  0  0  0  0
    3.3703   -2.0379    0.0000 C   0  0  0  0  0  0  0  0  0  0  0  0
    3.3739   -3.5379    0.0000 O   0  0  0  0  0  0  0  0  0  0  0  0
    4.6675   -1.2848    0.0000 C   0  0  0  0  0  0  0  0  0  0  0  0
    4.6639    0.2152    0.0000 C   0  0  0  0  0  0  0  0  0  0  0  0
    5.9611    0.9683    0.0000 C   0  0  0  0  0  0  0  0  0  0  0  0
    5.9575    2.4683    0.0000 C   0  0  0  0  0  0  0  0  0  0  0  0
    7.2548    3.2214    0.0000 O   0  0  0  0  0  0  0  0  0  0  0  0
    4.6567    3.2152    0.0000 C   0  0  0  0  0  0  0  0  0  0  0  0
    3.3595    2.4621    0.0000 C   0  0  0  0  0  0  0  0  0  0  0  0
    3.3631    0.9621    0.0000 C   0  0  0  0  0  0  0  0  0  0  0  0
    2.0622    1.7090    0.0000 C   0  0  0  0  0  0  0  0  0  0  0  0
    2.0658    0.2090    0.0000 C   0  0  0  0  0  0  0  0  0  0  0  0
    0.7650    0.9559    0.0000 C   0  0  0  0  0  0  0  0  0  0  0  0
   -0.5322    0.2027    0.0000 C   0  0  0  0  0  0  0  0  0  0  0  0
   -0.5286   -1.2973    0.0000 C   0  0  0  0  0  0  0  0  0  0  0  0
   -1.9004   -0.6904    0.0000 C   0  0  0  0  0  0  0  0  0  0  0  0
  1  2  1  0
  2  3  1  0
  3  4  1  0
  4  5  2  0
  4  6  1  0
  6  7  1  0
  7  8  1  0
  8  9  1  6
  8 10  1  0
 10 11  1  6
 11 12  1  0
 13 12  1  6
 13 14  1  0
 14 15  1  1
 15 16  1  1
 15 17  1  0
 18 17  1  1
 18 19  1  0
 19 20  1  0
 20 21  2  0
 20 22  1  0
 22 23  1  0
 23 24  1  0
 24 25  1  6
 24 26  1  0
 26 27  1  6
 27 28  1  0
 28 29  1  0
 29 30  1  6
 29 10  1  0
 29 13  1  0
 26 14  1  0
 24 18  1  0
M  END
>  <MS_ID>  (1992) 
MS2065

>  <SMILES>  (1992) 
COCC(=O)CC[C@@H](C)[C@H]1CC[C@H]2[C@@H]3[C@H](O)C[C@@H]4CC(=O)CC[C@]4(C)[C@H]3CC[C@]12C

>  <Structure_dimension>  (1992) 
2D

$$$$
MS2066
     RDKit          2D

 37 41  0  0  0  0  0  0  0  0999 V2000
   -0.9194   -4.7117    0.0000 C   0  0  0  0  0  0  0  0  0  0  0  0
   -0.3568   -3.3212    0.0000 C   0  0  0  0  0  0  0  0  0  0  0  0
   -1.2797   -2.1388    0.0000 C   0  0  0  0  0  0  0  0  0  0  0  0
   -2.7652   -2.3468    0.0000 C   0  0  0  0  0  0  0  0  0  0  0  0
   -3.6881   -1.1643    0.0000 C   0  0  0  0  0  0  0  0  0  0  0  0
   -3.1255    0.2262    0.0000 O   0  0  0  0  0  0  0  0  0  0  0  0
   -5.1736   -1.3723    0.0000 N   0  0  0  0  0  0  0  0  0  0  0  0
   -6.0965   -0.1898    0.0000 C   0  0  0  0  0  0  0  0  0  0  0  0
   -7.5820   -0.3978    0.0000 C   0  0  0  0  0  0  0  0  0  0  0  0
   -8.5049    0.7847    0.0000 C   0  0  0  0  0  0  0  0  0  0  0  0
   -7.9423    2.1752    0.0000 C   0  0  0  0  0  0  0  0  0  0  0  0
   -8.8652    3.3576    0.0000 C   0  0  0  0  0  0  0  0  0  0  0  0
  -10.3507    3.1496    0.0000 C   0  0  0  0  0  0  0  0  0  0  0  0
  -10.9133    1.7591    0.0000 C   0  0  0  0  0  0  0  0  0  0  0  0
   -9.9904    0.5767    0.0000 N   0  0  0  0  0  0  0  0  0  0  0  0
    1.1287   -3.1132    0.0000 C   0  0  0  0  0  0  0  0  0  0  0  0
    2.1702   -4.1928    0.0000 C   0  0  0  0  0  0  0  0  0  0  0  0
    3.5187   -3.5359    0.0000 C   0  0  0  0  0  0  0  0  0  0  0  0
    3.3107   -2.0504    0.0000 C   0  0  0  0  0  0  0  0  0  0  0  0
    4.2755   -0.9018    0.0000 C   0  0  0  0  0  0  0  0  0  0  0  0
    5.7525   -1.1630    0.0000 C   0  0  0  0  0  0  0  0  0  0  0  0
    6.2649   -2.5728    0.0000 O   0  0  0  0  0  0  0  0  0  0  0  0
    6.7173   -0.0144    0.0000 C   0  0  0  0  0  0  0  0  0  0  0  0
    6.2050    1.3954    0.0000 C   0  0  0  0  0  0  0  0  0  0  0  0
    7.1697    2.5439    0.0000 C   0  0  0  0  0  0  0  0  0  0  0  0
    6.6574    3.9537    0.0000 C   0  0  0  0  0  0  0  0  0  0  0  0
    7.6222    5.1023    0.0000 O   0  0  0  0  0  0  0  0  0  0  0  0
    5.1803    4.2150    0.0000 C   0  0  0  0  0  0  0  0  0  0  0  0
    4.2156    3.0664    0.0000 C   0  0  0  0  0  0  0  0  0  0  0  0
    4.7279    1.6566    0.0000 C   0  0  0  0  0  0  0  0  0  0  0  0
    3.2508    1.9178    0.0000 C   0  0  0  0  0  0  0  0  0  0  0  0
    3.7631    0.5080    0.0000 C   0  0  0  0  0  0  0  0  0  0  0  0
    2.2861    0.7692    0.0000 C   0  0  0  0  0  0  0  0  0  0  0  0
    1.3213   -0.3794    0.0000 C   0  0  0  0  0  0  0  0  0  0  0  0
   -0.1558   -0.1181    0.0000 O   0  0  0  0  0  0  0  0  0  0  0  0
    1.8336   -1.7892    0.0000 C   0  0  0  0  0  0  0  0  0  0  0  0
    0.3373   -1.6838    0.0000 C   0  0  0  0  0  0  0  0  0  0  0  0
  2  1  1  6
  2  3  1  0
  3  4  1  0
  4  5  1  0
  5  6  2  0
  5  7  1  0
  7  8  1  0
  8  9  1  0
  9 10  1  0
 10 11  2  0
 11 12  1  0
 12 13  2  0
 13 14  1  0
 14 15  2  0
  2 16  1  0
 16 17  1  6
 17 18  1  0
 19 18  1  6
 19 20  1  0
 20 21  1  1
 21 22  1  1
 21 23  1  0
 24 23  1  1
 24 25  1  0
 25 26  1  0
 26 27  1  1
 26 28  1  0
 28 29  1  0
 29 30  1  0
 30 31  1  6
 30 32  1  0
 32 33  1  6
 33 34  1  0
 34 35  1  1
 34 36  1  0
 36 37  1  6
 15 10  1  0
 36 16  1  0
 36 19  1  0
 32 20  1  0
 30 24  1  0
M  END
>  <MS_ID>  (1993) 
MS2066

>  <SMILES>  (1993) 
C[C@H](CCC(=O)NCCc1ccccn1)[C@H]1CC[C@H]2[C@@H]3[C@H](O)C[C@@H]4C[C@H](O)CC[C@]4(C)[C@H]3C[C@H](O)[C@]12C

>  <Structure_dimension>  (1993) 
2D

$$$$
MS2067
     RDKit          2D

 33 36  0  0  0  0  0  0  0  0999 V2000
   -2.7798   -3.8103    0.0000 C   0  0  0  0  0  0  0  0  0  0  0  0
   -1.9338   -2.5716    0.0000 C   0  0  0  0  0  0  0  0  0  0  0  0
   -2.5835   -1.2196    0.0000 C   0  0  0  0  0  0  0  0  0  0  0  0
   -4.0792   -1.1063    0.0000 C   0  0  0  0  0  0  0  0  0  0  0  0
   -4.7289    0.2457    0.0000 C   0  0  0  0  0  0  0  0  0  0  0  0
   -3.8829    1.4843    0.0000 O   0  0  0  0  0  0  0  0  0  0  0  0
   -6.2246    0.3590    0.0000 C   0  0  0  0  0  0  0  0  0  0  0  0
   -6.8743    1.7110    0.0000 O   0  0  0  0  0  0  0  0  0  0  0  0
   -8.3700    1.8244    0.0000 S   0  0  0  0  0  0  0  0  0  0  0  0
   -8.4834    0.3287    0.0000 O   0  0  0  0  0  0  0  0  0  0  0  0
   -8.2567    3.3201    0.0000 O   0  0  0  0  0  0  0  0  0  0  0  0
   -9.8657    1.9377    0.0000 O   0  0  0  0  0  0  0  0  0  0  0  0
   -0.4381   -2.6850    0.0000 C   0  0  0  0  0  0  0  0  0  0  0  0
    0.3494   -3.9617    0.0000 C   0  0  0  0  0  0  0  0  0  0  0  0
    1.8069   -3.6073    0.0000 C   0  0  0  0  0  0  0  0  0  0  0  0
    1.9202   -2.1116    0.0000 C   0  0  0  0  0  0  0  0  0  0  0  0
    3.1076   -1.1950    0.0000 C   0  0  0  0  0  0  0  0  0  0  0  0
    4.4951   -1.7650    0.0000 C   0  0  0  0  0  0  0  0  0  0  0  0
    4.6952   -3.2515    0.0000 O   0  0  0  0  0  0  0  0  0  0  0  0
    5.6825   -0.8484    0.0000 C   0  0  0  0  0  0  0  0  0  0  0  0
    5.4824    0.6382    0.0000 C   0  0  0  0  0  0  0  0  0  0  0  0
    6.6697    1.5548    0.0000 C   0  0  0  0  0  0  0  0  0  0  0  0
    6.4696    3.0414    0.0000 C   0  0  0  0  0  0  0  0  0  0  0  0
    7.6570    3.9580    0.0000 O   0  0  0  0  0  0  0  0  0  0  0  0
    5.0821    3.6114    0.0000 C   0  0  0  0  0  0  0  0  0  0  0  0
    3.8948    2.6948    0.0000 C   0  0  0  0  0  0  0  0  0  0  0  0
    4.0949    1.2082    0.0000 C   0  0  0  0  0  0  0  0  0  0  0  0
    2.7074    1.7782    0.0000 C   0  0  0  0  0  0  0  0  0  0  0  0
    2.9075    0.2916    0.0000 C   0  0  0  0  0  0  0  0  0  0  0  0
    1.5200    0.8616    0.0000 C   0  0  0  0  0  0  0  0  0  0  0  0
    0.3327   -0.0550    0.0000 C   0  0  0  0  0  0  0  0  0  0  0  0
    0.5328   -1.5416    0.0000 C   0  0  0  0  0  0  0  0  0  0  0  0
   -0.9067   -1.1197    0.0000 C   0  0  0  0  0  0  0  0  0  0  0  0
  2  1  1  6
  2  3  1  0
  3  4  1  0
  4  5  1  0
  5  6  2  0
  5  7  1  0
  7  8  1  0
  8  9  1  0
  9 10  2  0
  9 11  2  0
  9 12  1  0
  2 13  1  0
 13 14  1  6
 14 15  1  0
 16 15  1  6
 16 17  1  0
 17 18  1  1
 18 19  1  6
 18 20  1  0
 21 20  1  1
 21 22  1  0
 22 23  1  0
 23 24  1  1
 23 25  1  0
 25 26  1  0
 26 27  1  0
 27 28  1  6
 27 29  1  0
 29 30  1  6
 30 31  1  0
 31 32  1  0
 32 33  1  6
 32 13  1  0
 32 16  1  0
 29 17  1  0
 27 21  1  0
M  END
>  <MS_ID>  (1994) 
MS2067

>  <SMILES>  (1994) 
C[C@H](CCC(=O)COS(=O)(=O)O)[C@H]1CC[C@H]2[C@@H]3[C@@H](O)C[C@@H]4C[C@H](O)CC[C@]4(C)[C@H]3CC[C@]12C

>  <Structure_dimension>  (1994) 
2D

$$$$
MS2068
     RDKit          2D

 32 35  0  0  0  0  0  0  0  0999 V2000
   -8.8415    2.9764    0.0000 C   0  0  0  0  0  0  0  0  0  0  0  0
   -7.3694    2.6887    0.0000 C   0  0  0  0  0  0  0  0  0  0  0  0
   -6.8825    1.2699    0.0000 O   0  0  0  0  0  0  0  0  0  0  0  0
   -5.4104    0.9821    0.0000 C   0  0  0  0  0  0  0  0  0  0  0  0
   -4.4251    2.1131    0.0000 O   0  0  0  0  0  0  0  0  0  0  0  0
   -4.9235   -0.4367    0.0000 C   0  0  0  0  0  0  0  0  0  0  0  0
   -3.4514   -0.7244    0.0000 C   0  0  0  0  0  0  0  0  0  0  0  0
   -2.9645   -2.1432    0.0000 C   0  0  0  0  0  0  0  0  0  0  0  0
   -3.9498   -3.2743    0.0000 C   0  0  0  0  0  0  0  0  0  0  0  0
   -1.4924   -2.4310    0.0000 C   0  0  0  0  0  0  0  0  0  0  0  0
   -0.8599   -3.7911    0.0000 C   0  0  0  0  0  0  0  0  0  0  0  0
    0.6291   -3.6099    0.0000 C   0  0  0  0  0  0  0  0  0  0  0  0
    0.9169   -2.1377    0.0000 C   0  0  0  0  0  0  0  0  0  0  0  0
    2.2035   -1.3665    0.0000 C   0  0  0  0  0  0  0  0  0  0  0  0
    3.5146   -2.0951    0.0000 C   0  0  0  0  0  0  0  0  0  0  0  0
    3.5392   -3.5949    0.0000 O   0  0  0  0  0  0  0  0  0  0  0  0
    4.8012   -1.3239    0.0000 C   0  0  0  0  0  0  0  0  0  0  0  0
    4.7766    0.1759    0.0000 C   0  0  0  0  0  0  0  0  0  0  0  0
    6.0632    0.9471    0.0000 C   0  0  0  0  0  0  0  0  0  0  0  0
    6.0385    2.4469    0.0000 C   0  0  0  0  0  0  0  0  0  0  0  0
    7.3251    3.2181    0.0000 O   0  0  0  0  0  0  0  0  0  0  0  0
    4.7274    3.1755    0.0000 C   0  0  0  0  0  0  0  0  0  0  0  0
    3.4408    2.4043    0.0000 C   0  0  0  0  0  0  0  0  0  0  0  0
    3.4654    0.9045    0.0000 C   0  0  0  0  0  0  0  0  0  0  0  0
    2.1543    1.6331    0.0000 C   0  0  0  0  0  0  0  0  0  0  0  0
    2.1789    0.1333    0.0000 C   0  0  0  0  0  0  0  0  0  0  0  0
    0.8677    0.8619    0.0000 C   0  0  0  0  0  0  0  0  0  0  0  0
   -0.4189    0.0907    0.0000 C   0  0  0  0  0  0  0  0  0  0  0  0
   -1.7300    0.8192    0.0000 O   0  0  0  0  0  0  0  0  0  0  0  0
   -1.7546    2.3190    0.0000 O   0  0  0  0  0  0  0  0  0  0  0  0
   -0.3943   -1.4091    0.0000 C   0  0  0  0  0  0  0  0  0  0  0  0
   -1.7744   -0.8216    0.0000 C   0  0  0  0  0  0  0  0  0  0  0  0
  1  2  1  0
  2  3  1  0
  3  4  1  0
  4  5  2  0
  4  6  1  0
  6  7  1  0
  7  8  1  0
  8  9  1  6
  8 10  1  0
 10 11  1  6
 11 12  1  0
 13 12  1  6
 13 14  1  0
 14 15  1  1
 15 16  1  1
 15 17  1  0
 18 17  1  1
 18 19  1  0
 19 20  1  0
 20 21  1  1
 20 22  1  0
 22 23  1  0
 23 24  1  0
 24 25  1  6
 24 26  1  0
 26 27  1  6
 27 28  1  0
 28 29  1  1
 29 30  1  0
 28 31  1  0
 31 32  1  6
 31 10  1  0
 31 13  1  0
 26 14  1  0
 24 18  1  0
M  END
>  <MS_ID>  (1995) 
MS2068

>  <SMILES>  (1995) 
CCOC(=O)CC[C@@H](C)[C@H]1CC[C@H]2[C@@H]3[C@H](O)C[C@@H]4C[C@H](O)CC[C@]4(C)[C@H]3C[C@H](OO)[C@]12C

>  <Structure_dimension>  (1995) 
2D

$$$$
MS2069
     RDKit          2D

 32 35  0  0  0  0  0  0  0  0999 V2000
   -3.8307   -3.4888    0.0000 C   0  0  0  0  0  0  0  0  0  0  0  0
   -2.9213   -2.2959    0.0000 C   0  0  0  0  0  0  0  0  0  0  0  0
   -3.4997   -0.9119    0.0000 C   0  0  0  0  0  0  0  0  0  0  0  0
   -4.9875   -0.7208    0.0000 C   0  0  0  0  0  0  0  0  0  0  0  0
   -5.5659    0.6632    0.0000 C   0  0  0  0  0  0  0  0  0  0  0  0
   -4.6565    1.8561    0.0000 O   0  0  0  0  0  0  0  0  0  0  0  0
   -7.0537    0.8543    0.0000 O   0  0  0  0  0  0  0  0  0  0  0  0
   -7.6321    2.2383    0.0000 C   0  0  0  0  0  0  0  0  0  0  0  0
   -9.1199    2.4294    0.0000 C   0  0  0  0  0  0  0  0  0  0  0  0
   -6.7227    3.4312    0.0000 O   0  0  0  0  0  0  0  0  0  0  0  0
   -1.4336   -2.4870    0.0000 C   0  0  0  0  0  0  0  0  0  0  0  0
   -0.7137   -3.8029    0.0000 C   0  0  0  0  0  0  0  0  0  0  0  0
    0.7603   -3.5249    0.0000 C   0  0  0  0  0  0  0  0  0  0  0  0
    0.9514   -2.0372    0.0000 C   0  0  0  0  0  0  0  0  0  0  0  0
    2.1849   -1.1836    0.0000 C   0  0  0  0  0  0  0  0  0  0  0  0
    3.5409   -1.8251    0.0000 C   0  0  0  0  0  0  0  0  0  0  0  0
    3.6633   -3.3201    0.0000 O   0  0  0  0  0  0  0  0  0  0  0  0
    4.7744   -0.9716    0.0000 C   0  0  0  0  0  0  0  0  0  0  0  0
    6.1303   -1.6131    0.0000 O   0  0  0  0  0  0  0  0  0  0  0  0
    4.6520    0.5234    0.0000 C   0  0  0  0  0  0  0  0  0  0  0  0
    5.8855    1.3769    0.0000 C   0  0  0  0  0  0  0  0  0  0  0  0
    5.7630    2.8719    0.0000 C   0  0  0  0  0  0  0  0  0  0  0  0
    6.9966    3.7254    0.0000 O   0  0  0  0  0  0  0  0  0  0  0  0
    4.4071    3.5134    0.0000 C   0  0  0  0  0  0  0  0  0  0  0  0
    3.1736    2.6599    0.0000 C   0  0  0  0  0  0  0  0  0  0  0  0
    3.2960    1.1649    0.0000 C   0  0  0  0  0  0  0  0  0  0  0  0
    1.9401    1.8063    0.0000 C   0  0  0  0  0  0  0  0  0  0  0  0
    2.0625    0.3113    0.0000 C   0  0  0  0  0  0  0  0  0  0  0  0
    0.7066    0.9528    0.0000 C   0  0  0  0  0  0  0  0  0  0  0  0
   -0.5269    0.0993    0.0000 C   0  0  0  0  0  0  0  0  0  0  0  0
   -0.4045   -1.3957    0.0000 C   0  0  0  0  0  0  0  0  0  0  0  0
   -1.8200   -0.8994    0.0000 C   0  0  0  0  0  0  0  0  0  0  0  0
  2  1  1  6
  2  3  1  0
  3  4  1  0
  4  5  1  0
  5  6  2  0
  5  7  1  0
  7  8  1  0
  8  9  1  1
  8 10  1  0
  2 11  1  0
 11 12  1  6
 12 13  1  0
 14 13  1  6
 14 15  1  0
 15 16  1  1
 16 17  1  1
 16 18  1  0
 18 19  1  1
 18 20  1  0
 20 21  1  1
 21 22  1  0
 22 23  1  1
 22 24  1  0
 24 25  1  0
 25 26  1  0
 26 27  1  6
 26 28  1  0
 28 29  1  6
 29 30  1  0
 30 31  1  0
 31 32  1  6
 31 11  1  0
 31 14  1  0
 28 15  1  0
 26 20  1  0
M  END
>  <MS_ID>  (1996) 
MS2069

>  <SMILES>  (1996) 
C[C@H](CCC(=O)O[C@@H](C)O)[C@H]1CC[C@H]2[C@@H]3[C@H](O)[C@H](O)[C@@H]4C[C@H](O)CC[C@]4(C)[C@H]3CC[C@]12C

>  <Structure_dimension>  (1996) 
2D

$$$$
MS2070
     RDKit          2D

 28 31  0  0  0  0  0  0  0  0999 V2000
   -5.1275   -2.0302    0.0000 C   0  0  0  0  0  0  0  0  0  0  0  0
   -3.9468   -1.1050    0.0000 C   0  0  0  0  0  0  0  0  0  0  0  0
   -4.1576    0.3801    0.0000 C   0  0  0  0  0  0  0  0  0  0  0  0
   -5.5492    0.9401    0.0000 C   0  0  0  0  0  0  0  0  0  0  0  0
   -5.7600    2.4252    0.0000 C   0  0  0  0  0  0  0  0  0  0  0  0
   -4.5793    3.3503    0.0000 O   0  0  0  0  0  0  0  0  0  0  0  0
   -7.1516    2.9851    0.0000 O   0  0  0  0  0  0  0  0  0  0  0  0
   -2.5552   -1.6650    0.0000 C   0  0  0  0  0  0  0  0  0  0  0  0
   -2.1903   -3.1199    0.0000 C   0  0  0  0  0  0  0  0  0  0  0  0
   -0.6938   -3.2225    0.0000 C   0  0  0  0  0  0  0  0  0  0  0  0
   -0.1339   -1.8309    0.0000 C   0  0  0  0  0  0  0  0  0  0  0  0
    1.2750   -1.3159    0.0000 C   0  0  0  0  0  0  0  0  0  0  0  0
    2.4254   -2.2785    0.0000 C   0  0  0  0  0  0  0  0  0  0  0  0
    2.1670   -3.7560    0.0000 S   0  0  0  0  0  0  0  0  0  0  0  0
    3.8342   -1.7635    0.0000 C   0  0  0  0  0  0  0  0  0  0  0  0
    4.0926   -0.2859    0.0000 C   0  0  0  0  0  0  0  0  0  0  0  0
    5.5014    0.2291    0.0000 C   0  0  0  0  0  0  0  0  0  0  0  0
    5.7598    1.7067    0.0000 C   0  0  0  0  0  0  0  0  0  0  0  0
    7.1687    2.2217    0.0000 O   0  0  0  0  0  0  0  0  0  0  0  0
    4.6094    2.6692    0.0000 C   0  0  0  0  0  0  0  0  0  0  0  0
    3.2006    2.1542    0.0000 C   0  0  0  0  0  0  0  0  0  0  0  0
    2.9422    0.6767    0.0000 C   0  0  0  0  0  0  0  0  0  0  0  0
    1.7918    1.6392    0.0000 C   0  0  0  0  0  0  0  0  0  0  0  0
    1.5334    0.1617    0.0000 C   0  0  0  0  0  0  0  0  0  0  0  0
    0.3830    1.1242    0.0000 C   0  0  0  0  0  0  0  0  0  0  0  0
   -1.0259    0.6093    0.0000 C   0  0  0  0  0  0  0  0  0  0  0  0
   -1.2843   -0.8683    0.0000 C   0  0  0  0  0  0  0  0  0  0  0  0
   -2.5290   -0.0313    0.0000 C   0  0  0  0  0  0  0  0  0  0  0  0
  2  1  1  6
  2  3  1  0
  3  4  1  0
  4  5  1  0
  5  6  2  0
  5  7  1  0
  2  8  1  0
  8  9  1  6
  9 10  1  0
 11 10  1  6
 11 12  1  0
 12 13  1  1
 13 14  1  6
 13 15  1  0
 16 15  1  1
 16 17  1  0
 17 18  1  0
 18 19  1  6
 18 20  1  0
 20 21  1  0
 21 22  1  0
 22 23  1  6
 22 24  1  0
 24 25  1  6
 25 26  1  0
 26 27  1  0
 27 28  1  6
 27  8  1  0
 27 11  1  0
 24 12  1  0
 22 16  1  0
M  END
>  <MS_ID>  (1997) 
MS2070

>  <SMILES>  (1997) 
C[C@H](CCC(=O)O)[C@H]1CC[C@H]2[C@@H]3[C@@H](S)C[C@@H]4C[C@@H](O)CC[C@]4(C)[C@H]3CC[C@]12C

>  <Structure_dimension>  (1997) 
2D

$$$$
MS2071
     RDKit          2D

 34 37  0  0  0  0  0  0  0  0999 V2000
   -2.7457   -3.8277    0.0000 C   0  0  0  0  0  0  0  0  0  0  0  0
   -1.9007   -2.5883    0.0000 C   0  0  0  0  0  0  0  0  0  0  0  0
   -2.5515   -1.2369    0.0000 C   0  0  0  0  0  0  0  0  0  0  0  0
   -4.0473   -1.1247    0.0000 C   0  0  0  0  0  0  0  0  0  0  0  0
   -4.6981    0.2267    0.0000 C   0  0  0  0  0  0  0  0  0  0  0  0
   -3.8531    1.4661    0.0000 O   0  0  0  0  0  0  0  0  0  0  0  0
   -6.1939    0.3389    0.0000 N   0  0  0  0  0  0  0  0  0  0  0  0
   -6.8447    1.6903    0.0000 C   0  0  0  0  0  0  0  0  0  0  0  0
   -8.3405    1.8025    0.0000 S   0  0  0  0  0  0  0  0  0  0  0  0
   -8.2283    3.2983    0.0000 O   0  0  0  0  0  0  0  0  0  0  0  0
   -8.4526    0.3067    0.0000 O   0  0  0  0  0  0  0  0  0  0  0  0
   -9.8363    1.9146    0.0000 O   0  0  0  0  0  0  0  0  0  0  0  0
   -0.4049   -2.7005    0.0000 C   0  0  0  0  0  0  0  0  0  0  0  0
    0.3836   -3.9765    0.0000 C   0  0  0  0  0  0  0  0  0  0  0  0
    1.8409   -3.6209    0.0000 C   0  0  0  0  0  0  0  0  0  0  0  0
    1.9530   -2.1251    0.0000 C   0  0  0  0  0  0  0  0  0  0  0  0
    3.1396   -1.2076    0.0000 C   0  0  0  0  0  0  0  0  0  0  0  0
    4.5276   -1.7764    0.0000 C   0  0  0  0  0  0  0  0  0  0  0  0
    4.7289   -3.2629    0.0000 O   0  0  0  0  0  0  0  0  0  0  0  0
    5.7142   -0.8589    0.0000 C   0  0  0  0  0  0  0  0  0  0  0  0
    5.5129    0.6276    0.0000 C   0  0  0  0  0  0  0  0  0  0  0  0
    6.6995    1.5451    0.0000 C   0  0  0  0  0  0  0  0  0  0  0  0
    6.4982    3.0315    0.0000 C   0  0  0  0  0  0  0  0  0  0  0  0
    7.6848    3.9491    0.0000 O   0  0  0  0  0  0  0  0  0  0  0  0
    5.1102    3.6004    0.0000 C   0  0  0  0  0  0  0  0  0  0  0  0
    3.9236    2.6829    0.0000 C   0  0  0  0  0  0  0  0  0  0  0  0
    4.1249    1.1964    0.0000 C   0  0  0  0  0  0  0  0  0  0  0  0
    2.7370    1.7653    0.0000 C   0  0  0  0  0  0  0  0  0  0  0  0
    2.9383    0.2789    0.0000 C   0  0  0  0  0  0  0  0  0  0  0  0
    1.5504    0.8477    0.0000 C   0  0  0  0  0  0  0  0  0  0  0  0
    0.3637   -0.0698    0.0000 C   0  0  0  0  0  0  0  0  0  0  0  0
   -1.0242    0.4991    0.0000 O   0  0  0  0  0  0  0  0  0  0  0  0
    0.5650   -1.5562    0.0000 C   0  0  0  0  0  0  0  0  0  0  0  0
   -0.8748   -1.1356    0.0000 C   0  0  0  0  0  0  0  0  0  0  0  0
  2  1  1  6
  2  3  1  0
  3  4  1  0
  4  5  1  0
  5  6  2  0
  5  7  1  0
  7  8  1  0
  8  9  1  0
  9 10  2  0
  9 11  2  0
  9 12  1  0
  2 13  1  0
 13 14  1  6
 14 15  1  0
 16 15  1  6
 16 17  1  0
 17 18  1  1
 18 19  1  1
 18 20  1  0
 21 20  1  1
 21 22  1  0
 22 23  1  0
 23 24  1  1
 23 25  1  0
 25 26  1  0
 26 27  1  0
 27 28  1  6
 27 29  1  0
 29 30  1  6
 30 31  1  0
 31 32  1  1
 31 33  1  0
 33 34  1  6
 33 13  1  0
 33 16  1  0
 29 17  1  0
 27 21  1  0
M  END
>  <MS_ID>  (1998) 
MS2071

>  <SMILES>  (1998) 
C[C@H](CCC(=O)NCS(=O)(=O)O)[C@H]1CC[C@H]2[C@@H]3[C@H](O)C[C@@H]4C[C@H](O)CC[C@]4(C)[C@H]3C[C@H](O)[C@]12C

>  <Structure_dimension>  (1998) 
2D

$$$$
MS2072
     RDKit          2D

 37 41  0  0  0  0  0  0  0  0999 V2000
   -2.0274   -3.3283    0.0000 C   0  0  0  0  0  0  0  0  0  0  0  0
   -1.0334   -2.2049    0.0000 C   0  0  0  0  0  0  0  0  0  0  0  0
   -1.5094   -0.7824    0.0000 C   0  0  0  0  0  0  0  0  0  0  0  0
   -2.9792   -0.4833    0.0000 C   0  0  0  0  0  0  0  0  0  0  0  0
   -3.4552    0.9392    0.0000 C   0  0  0  0  0  0  0  0  0  0  0  0
   -2.4612    2.0626    0.0000 O   0  0  0  0  0  0  0  0  0  0  0  0
   -4.9250    1.2382    0.0000 C   0  0  0  0  0  0  0  0  0  0  0  0
   -5.4009    2.6607    0.0000 C   0  0  0  0  0  0  0  0  0  0  0  0
   -6.8708    2.9598    0.0000 C   0  0  0  0  0  0  0  0  0  0  0  0
   -7.8648    1.8364    0.0000 C   0  0  0  0  0  0  0  0  0  0  0  0
   -9.3347    2.1355    0.0000 O   0  0  0  0  0  0  0  0  0  0  0  0
   -7.3889    0.4139    0.0000 C   0  0  0  0  0  0  0  0  0  0  0  0
   -8.3828   -0.7095    0.0000 C   0  0  0  0  0  0  0  0  0  0  0  0
   -9.8527   -0.4104    0.0000 O   0  0  0  0  0  0  0  0  0  0  0  0
   -7.9069   -2.1320    0.0000 O   0  0  0  0  0  0  0  0  0  0  0  0
   -5.9190    0.1148    0.0000 C   0  0  0  0  0  0  0  0  0  0  0  0
    0.4364   -2.5040    0.0000 C   0  0  0  0  0  0  0  0  0  0  0  0
    1.0584   -3.8690    0.0000 C   0  0  0  0  0  0  0  0  0  0  0  0
    2.5488   -3.6992    0.0000 C   0  0  0  0  0  0  0  0  0  0  0  0
    2.8479   -2.2294    0.0000 C   0  0  0  0  0  0  0  0  0  0  0  0
    4.1404   -1.4681    0.0000 C   0  0  0  0  0  0  0  0  0  0  0  0
    5.4459   -2.2068    0.0000 C   0  0  0  0  0  0  0  0  0  0  0  0
    6.7383   -1.4455    0.0000 C   0  0  0  0  0  0  0  0  0  0  0  0
    6.7253    0.0545    0.0000 C   0  0  0  0  0  0  0  0  0  0  0  0
    8.0178    0.8157    0.0000 C   0  0  0  0  0  0  0  0  0  0  0  0
    8.0047    2.3157    0.0000 C   0  0  0  0  0  0  0  0  0  0  0  0
    9.2972    3.0769    0.0000 O   0  0  0  0  0  0  0  0  0  0  0  0
    6.6992    3.0543    0.0000 C   0  0  0  0  0  0  0  0  0  0  0  0
    5.4067    2.2931    0.0000 C   0  0  0  0  0  0  0  0  0  0  0  0
    5.4198    0.7931    0.0000 C   0  0  0  0  0  0  0  0  0  0  0  0
    4.1143    1.5318    0.0000 C   0  0  0  0  0  0  0  0  0  0  0  0
    4.1273    0.0319    0.0000 C   0  0  0  0  0  0  0  0  0  0  0  0
    2.8218    0.7705    0.0000 C   0  0  0  0  0  0  0  0  0  0  0  0
    1.5293    0.0093    0.0000 C   0  0  0  0  0  0  0  0  0  0  0  0
    0.2238    0.7479    0.0000 O   0  0  0  0  0  0  0  0  0  0  0  0
    1.5424   -1.4907    0.0000 C   0  0  0  0  0  0  0  0  0  0  0  0
    0.1668   -0.8925    0.0000 C   0  0  0  0  0  0  0  0  0  0  0  0
  2  1  1  6
  2  3  1  0
  3  4  1  0
  4  5  1  0
  5  6  2  0
  5  7  1  0
  7  8  2  0
  8  9  1  0
  9 10  2  0
 10 11  1  0
 10 12  1  0
 12 13  1  0
 13 14  2  0
 13 15  1  0
 12 16  2  0
  2 17  1  0
 17 18  1  6
 18 19  1  0
 20 19  1  6
 20 21  1  0
 21 22  1  1
 22 23  1  0
 24 23  1  1
 24 25  1  0
 25 26  1  0
 26 27  1  1
 26 28  1  0
 28 29  1  0
 29 30  1  0
 30 31  1  6
 30 32  1  0
 32 33  1  6
 33 34  1  0
 34 35  1  1
 34 36  1  0
 36 37  1  6
 16  7  1  0
 36 17  1  0
 36 20  1  0
 32 21  1  0
 30 24  1  0
M  END
>  <MS_ID>  (1999) 
MS2072

>  <SMILES>  (1999) 
C[C@H](CCC(=O)c1ccc(O)c(C(=O)O)c1)[C@H]1CC[C@H]2[C@@H]3CC[C@@H]4C[C@H](O)CC[C@]4(C)[C@H]3C[C@H](O)[C@]12C

>  <Structure_dimension>  (1999) 
2D

$$$$
MS2073
     RDKit          2D

 30 33  0  0  0  0  0  0  0  0999 V2000
   -2.6463   -3.7265    0.0000 C   0  0  0  0  0  0  0  0  0  0  0  0
   -1.8006   -2.4876    0.0000 C   0  0  0  0  0  0  0  0  0  0  0  0
   -2.4505   -1.1358    0.0000 C   0  0  0  0  0  0  0  0  0  0  0  0
   -3.9463   -1.0227    0.0000 C   0  0  0  0  0  0  0  0  0  0  0  0
   -4.5962    0.3291    0.0000 C   0  0  0  0  0  0  0  0  0  0  0  0
   -3.7505    1.5680    0.0000 O   0  0  0  0  0  0  0  0  0  0  0  0
   -6.0920    0.4422    0.0000 C   0  0  0  0  0  0  0  0  0  0  0  0
   -6.7419    1.7940    0.0000 C   0  0  0  0  0  0  0  0  0  0  0  0
   -8.2377    1.9071    0.0000 C   0  0  0  0  0  0  0  0  0  0  0  0
   -9.0834    0.6683    0.0000 O   0  0  0  0  0  0  0  0  0  0  0  0
   -8.8876    3.2590    0.0000 O   0  0  0  0  0  0  0  0  0  0  0  0
   -0.3048   -2.6007    0.0000 C   0  0  0  0  0  0  0  0  0  0  0  0
    0.4829   -3.8772    0.0000 C   0  0  0  0  0  0  0  0  0  0  0  0
    1.9403   -3.5225    0.0000 C   0  0  0  0  0  0  0  0  0  0  0  0
    2.0534   -2.0268    0.0000 C   0  0  0  0  0  0  0  0  0  0  0  0
    3.2406   -1.1099    0.0000 C   0  0  0  0  0  0  0  0  0  0  0  0
    4.6282   -1.6797    0.0000 C   0  0  0  0  0  0  0  0  0  0  0  0
    5.8154   -0.7628    0.0000 C   0  0  0  0  0  0  0  0  0  0  0  0
    5.6150    0.7237    0.0000 C   0  0  0  0  0  0  0  0  0  0  0  0
    6.8021    1.6405    0.0000 C   0  0  0  0  0  0  0  0  0  0  0  0
    6.6017    3.1271    0.0000 C   0  0  0  0  0  0  0  0  0  0  0  0
    5.2141    3.6968    0.0000 C   0  0  0  0  0  0  0  0  0  0  0  0
    4.0270    2.7800    0.0000 C   0  0  0  0  0  0  0  0  0  0  0  0
    4.2274    1.2934    0.0000 C   0  0  0  0  0  0  0  0  0  0  0  0
    2.8398    1.8632    0.0000 C   0  0  0  0  0  0  0  0  0  0  0  0
    3.0402    0.3766    0.0000 C   0  0  0  0  0  0  0  0  0  0  0  0
    1.6526    0.9463    0.0000 C   0  0  0  0  0  0  0  0  0  0  0  0
    0.4654    0.0295    0.0000 C   0  0  0  0  0  0  0  0  0  0  0  0
    0.6658   -1.4571    0.0000 C   0  0  0  0  0  0  0  0  0  0  0  0
   -0.7738   -1.0355    0.0000 C   0  0  0  0  0  0  0  0  0  0  0  0
  2  1  1  6
  2  3  1  0
  3  4  1  0
  4  5  1  0
  5  6  2  0
  5  7  1  0
  7  8  1  0
  8  9  1  0
  9 10  2  0
  9 11  1  0
  2 12  1  0
 12 13  1  6
 13 14  1  0
 15 14  1  6
 15 16  1  0
 16 17  1  1
 17 18  1  0
 19 18  1  1
 19 20  1  0
 20 21  1  0
 21 22  1  0
 22 23  1  0
 23 24  1  0
 24 25  1  6
 24 26  1  0
 26 27  1  6
 27 28  1  0
 28 29  1  0
 29 30  1  6
 29 12  1  0
 29 15  1  0
 26 16  1  0
 24 19  1  0
M  END
>  <MS_ID>  (2000) 
MS2073

>  <SMILES>  (2000) 
C[C@H](CCC(=O)CCC(=O)O)[C@H]1CC[C@H]2[C@@H]3CC[C@@H]4CCCC[C@]4(C)[C@H]3CC[C@]12C

>  <Structure_dimension>  (2000) 
2D

$$$$
MS2074
     RDKit          2D

 34 37  0  0  0  0  0  0  0  0999 V2000
   -2.9347   -3.8100    0.0000 C   0  0  0  0  0  0  0  0  0  0  0  0
   -2.1061   -2.5597    0.0000 C   0  0  0  0  0  0  0  0  0  0  0  0
   -2.7747   -1.2169    0.0000 C   0  0  0  0  0  0  0  0  0  0  0  0
   -4.2718   -1.1245    0.0000 C   0  0  0  0  0  0  0  0  0  0  0  0
   -4.9404    0.2183    0.0000 C   0  0  0  0  0  0  0  0  0  0  0  0
   -4.1118    1.4687    0.0000 O   0  0  0  0  0  0  0  0  0  0  0  0
   -6.4375    0.3107    0.0000 N   0  0  0  0  0  0  0  0  0  0  0  0
   -7.1061    1.6535    0.0000 O   0  0  0  0  0  0  0  0  0  0  0  0
   -8.6032    1.7459    0.0000 S   0  0  0  0  0  0  0  0  0  0  0  0
   -8.6956    0.2487    0.0000 O   0  0  0  0  0  0  0  0  0  0  0  0
   -8.5108    3.2430    0.0000 O   0  0  0  0  0  0  0  0  0  0  0  0
  -10.1004    1.8383    0.0000 O   0  0  0  0  0  0  0  0  0  0  0  0
   -0.6090   -2.6521    0.0000 C   0  0  0  0  0  0  0  0  0  0  0  0
    0.1963   -3.9176    0.0000 C   0  0  0  0  0  0  0  0  0  0  0  0
    1.6487   -3.5428    0.0000 C   0  0  0  0  0  0  0  0  0  0  0  0
    1.7411   -2.0457    0.0000 C   0  0  0  0  0  0  0  0  0  0  0  0
    2.9155   -1.1125    0.0000 C   0  0  0  0  0  0  0  0  0  0  0  0
    4.3109   -1.6631    0.0000 C   0  0  0  0  0  0  0  0  0  0  0  0
    4.5317   -3.1467    0.0000 O   0  0  0  0  0  0  0  0  0  0  0  0
    5.4853   -0.7299    0.0000 C   0  0  0  0  0  0  0  0  0  0  0  0
    6.8806   -1.2805    0.0000 O   0  0  0  0  0  0  0  0  0  0  0  0
    5.2644    0.7537    0.0000 C   0  0  0  0  0  0  0  0  0  0  0  0
    6.4388    1.6868    0.0000 C   0  0  0  0  0  0  0  0  0  0  0  0
    6.2179    3.1705    0.0000 C   0  0  0  0  0  0  0  0  0  0  0  0
    7.3923    4.1036    0.0000 O   0  0  0  0  0  0  0  0  0  0  0  0
    4.8226    3.7210    0.0000 C   0  0  0  0  0  0  0  0  0  0  0  0
    3.6482    2.7879    0.0000 C   0  0  0  0  0  0  0  0  0  0  0  0
    3.8691    1.3042    0.0000 C   0  0  0  0  0  0  0  0  0  0  0  0
    2.4737    1.8547    0.0000 C   0  0  0  0  0  0  0  0  0  0  0  0
    2.6946    0.3711    0.0000 C   0  0  0  0  0  0  0  0  0  0  0  0
    1.2993    0.9216    0.0000 C   0  0  0  0  0  0  0  0  0  0  0  0
    0.1249   -0.0115    0.0000 C   0  0  0  0  0  0  0  0  0  0  0  0
    0.3458   -1.4951    0.0000 C   0  0  0  0  0  0  0  0  0  0  0  0
   -1.0994   -1.0935    0.0000 C   0  0  0  0  0  0  0  0  0  0  0  0
  2  1  1  6
  2  3  1  0
  3  4  1  0
  4  5  1  0
  5  6  2  0
  5  7  1  0
  7  8  1  0
  8  9  1  0
  9 10  2  0
  9 11  2  0
  9 12  1  0
  2 13  1  0
 13 14  1  6
 14 15  1  0
 16 15  1  6
 16 17  1  0
 17 18  1  1
 18 19  1  1
 18 20  1  0
 20 21  1  1
 20 22  1  0
 22 23  1  1
 23 24  1  0
 24 25  1  1
 24 26  1  0
 26 27  1  0
 27 28  1  0
 28 29  1  6
 28 30  1  0
 30 31  1  6
 31 32  1  0
 32 33  1  0
 33 34  1  6
 33 13  1  0
 33 16  1  0
 30 17  1  0
 28 22  1  0
M  END
>  <MS_ID>  (2001) 
MS2074

>  <SMILES>  (2001) 
C[C@H](CCC(=O)NOS(=O)(=O)O)[C@H]1CC[C@H]2[C@@H]3[C@H](O)[C@H](O)[C@@H]4C[C@H](O)CC[C@]4(C)[C@H]3CC[C@]12C

>  <Structure_dimension>  (2001) 
2D

$$$$
MS2075
     RDKit          2D

 33 36  0  0  0  0  0  0  0  0999 V2000
   -2.9449   -3.6299    0.0000 C   0  0  0  0  0  0  0  0  0  0  0  0
   -2.0571   -2.4209    0.0000 C   0  0  0  0  0  0  0  0  0  0  0  0
   -2.6602   -1.0475    0.0000 C   0  0  0  0  0  0  0  0  0  0  0  0
   -4.1512   -0.8831    0.0000 C   0  0  0  0  0  0  0  0  0  0  0  0
   -4.7543    0.4903    0.0000 C   0  0  0  0  0  0  0  0  0  0  0  0
   -3.8665    1.6993    0.0000 O   0  0  0  0  0  0  0  0  0  0  0  0
   -6.2453    0.6546    0.0000 C   0  0  0  0  0  0  0  0  0  0  0  0
   -7.1331   -0.5544    0.0000 O   0  0  0  0  0  0  0  0  0  0  0  0
   -6.8484    2.0280    0.0000 C   0  0  0  0  0  0  0  0  0  0  0  0
   -8.3394    2.1924    0.0000 C   0  0  0  0  0  0  0  0  0  0  0  0
   -9.2272    0.9834    0.0000 O   0  0  0  0  0  0  0  0  0  0  0  0
   -8.9425    3.5658    0.0000 O   0  0  0  0  0  0  0  0  0  0  0  0
   -0.5661   -2.5852    0.0000 C   0  0  0  0  0  0  0  0  0  0  0  0
    0.1773   -3.8881    0.0000 C   0  0  0  0  0  0  0  0  0  0  0  0
    1.6461   -3.5836    0.0000 C   0  0  0  0  0  0  0  0  0  0  0  0
    1.8105   -2.0927    0.0000 C   0  0  0  0  0  0  0  0  0  0  0  0
    3.0284   -1.2172    0.0000 C   0  0  0  0  0  0  0  0  0  0  0  0
    4.3956   -1.8342    0.0000 C   0  0  0  0  0  0  0  0  0  0  0  0
    4.5449   -3.3268    0.0000 O   0  0  0  0  0  0  0  0  0  0  0  0
    5.6136   -0.9587    0.0000 C   0  0  0  0  0  0  0  0  0  0  0  0
    5.4644    0.5339    0.0000 C   0  0  0  0  0  0  0  0  0  0  0  0
    6.6824    1.4094    0.0000 C   0  0  0  0  0  0  0  0  0  0  0  0
    6.5332    2.9019    0.0000 C   0  0  0  0  0  0  0  0  0  0  0  0
    7.7511    3.7774    0.0000 O   0  0  0  0  0  0  0  0  0  0  0  0
    5.1660    3.5190    0.0000 C   0  0  0  0  0  0  0  0  0  0  0  0
    3.9480    2.6435    0.0000 C   0  0  0  0  0  0  0  0  0  0  0  0
    4.0972    1.1509    0.0000 C   0  0  0  0  0  0  0  0  0  0  0  0
    2.7300    1.7680    0.0000 C   0  0  0  0  0  0  0  0  0  0  0  0
    2.8792    0.2754    0.0000 C   0  0  0  0  0  0  0  0  0  0  0  0
    1.5120    0.8925    0.0000 C   0  0  0  0  0  0  0  0  0  0  0  0
    0.2940    0.0169    0.0000 C   0  0  0  0  0  0  0  0  0  0  0  0
    0.4432   -1.4756    0.0000 C   0  0  0  0  0  0  0  0  0  0  0  0
   -0.9810   -1.0049    0.0000 C   0  0  0  0  0  0  0  0  0  0  0  0
  2  1  1  6
  2  3  1  0
  3  4  1  0
  4  5  1  0
  5  6  2  0
  5  7  1  0
  7  8  2  0
  7  9  1  0
  9 10  1  0
 10 11  2  0
 10 12  1  0
  2 13  1  0
 13 14  1  6
 14 15  1  0
 16 15  1  6
 16 17  1  0
 17 18  1  1
 18 19  1  6
 18 20  1  0
 21 20  1  1
 21 22  1  0
 22 23  1  0
 23 24  1  1
 23 25  1  0
 25 26  1  0
 26 27  1  0
 27 28  1  6
 27 29  1  0
 29 30  1  6
 30 31  1  0
 31 32  1  0
 32 33  1  6
 32 13  1  0
 32 16  1  0
 29 17  1  0
 27 21  1  0
M  END
>  <MS_ID>  (2002) 
MS2075

>  <SMILES>  (2002) 
C[C@H](CCC(=O)C(=O)CC(=O)O)[C@H]1CC[C@H]2[C@@H]3[C@@H](O)C[C@@H]4C[C@H](O)CC[C@]4(C)[C@H]3CC[C@]12C

>  <Structure_dimension>  (2002) 
2D

$$$$
MS2076
     RDKit          2D

 34 38  0  0  0  0  0  0  0  0999 V2000
   -2.9954   -3.5047    0.0000 C   0  0  0  0  0  0  0  0  0  0  0  0
   -2.0759   -2.3196    0.0000 C   0  0  0  0  0  0  0  0  0  0  0  0
   -2.6425   -0.9307    0.0000 C   0  0  0  0  0  0  0  0  0  0  0  0
   -4.1286   -0.7270    0.0000 C   0  0  0  0  0  0  0  0  0  0  0  0
   -4.6951    0.6619    0.0000 C   0  0  0  0  0  0  0  0  0  0  0  0
   -3.7756    1.8470    0.0000 O   0  0  0  0  0  0  0  0  0  0  0  0
   -6.1812    0.8657    0.0000 C   0  0  0  0  0  0  0  0  0  0  0  0
   -7.2196   -0.2168    0.0000 C   0  0  0  0  0  0  0  0  0  0  0  0
   -8.5700    0.4362    0.0000 N   0  0  0  0  0  0  0  0  0  0  0  0
   -8.3662    1.9223    0.0000 N   0  0  0  0  0  0  0  0  0  0  0  0
   -9.4487    2.9607    0.0000 C   0  0  0  0  0  0  0  0  0  0  0  0
   -6.8899    2.1877    0.0000 C   0  0  0  0  0  0  0  0  0  0  0  0
   -0.5898   -2.5234    0.0000 C   0  0  0  0  0  0  0  0  0  0  0  0
    0.1188   -3.8455    0.0000 C   0  0  0  0  0  0  0  0  0  0  0  0
    1.5952   -3.5800    0.0000 C   0  0  0  0  0  0  0  0  0  0  0  0
    1.7989   -2.0939    0.0000 C   0  0  0  0  0  0  0  0  0  0  0  0
    3.0397   -1.2510    0.0000 C   0  0  0  0  0  0  0  0  0  0  0  0
    4.3901   -1.9040    0.0000 C   0  0  0  0  0  0  0  0  0  0  0  0
    4.4997   -3.4000    0.0000 O   0  0  0  0  0  0  0  0  0  0  0  0
    5.6308   -1.0611    0.0000 C   0  0  0  0  0  0  0  0  0  0  0  0
    5.5212    0.4349    0.0000 C   0  0  0  0  0  0  0  0  0  0  0  0
    6.7619    1.2779    0.0000 C   0  0  0  0  0  0  0  0  0  0  0  0
    6.6522    2.7739    0.0000 C   0  0  0  0  0  0  0  0  0  0  0  0
    7.8930    3.6168    0.0000 O   0  0  0  0  0  0  0  0  0  0  0  0
    5.3018    3.4269    0.0000 C   0  0  0  0  0  0  0  0  0  0  0  0
    4.0611    2.5840    0.0000 C   0  0  0  0  0  0  0  0  0  0  0  0
    4.1708    1.0880    0.0000 C   0  0  0  0  0  0  0  0  0  0  0  0
    2.8204    1.7410    0.0000 C   0  0  0  0  0  0  0  0  0  0  0  0
    2.9300    0.2450    0.0000 C   0  0  0  0  0  0  0  0  0  0  0  0
    1.5796    0.8980    0.0000 C   0  0  0  0  0  0  0  0  0  0  0  0
    0.3389    0.0551    0.0000 C   0  0  0  0  0  0  0  0  0  0  0  0
   -1.0115    0.7081    0.0000 O   0  0  0  0  0  0  0  0  0  0  0  0
    0.4486   -1.4409    0.0000 C   0  0  0  0  0  0  0  0  0  0  0  0
   -0.9627   -0.9326    0.0000 C   0  0  0  0  0  0  0  0  0  0  0  0
  2  1  1  6
  2  3  1  0
  3  4  1  0
  4  5  1  0
  5  6  2  0
  5  7  1  0
  7  8  1  0
  8  9  2  0
  9 10  1  0
 10 11  1  0
 10 12  1  0
  2 13  1  0
 13 14  1  6
 14 15  1  0
 16 15  1  6
 16 17  1  0
 17 18  1  1
 18 19  1  1
 18 20  1  0
 21 20  1  1
 21 22  1  0
 22 23  1  0
 23 24  1  1
 23 25  1  0
 25 26  1  0
 26 27  1  0
 27 28  1  6
 27 29  1  0
 29 30  1  6
 30 31  1  0
 31 32  1  1
 31 33  1  0
 33 34  1  6
 12  7  2  0
 33 13  1  0
 33 16  1  0
 29 17  1  0
 27 21  1  0
M  END
>  <MS_ID>  (2003) 
MS2076

>  <SMILES>  (2003) 
C[C@H](CCC(=O)c1cnn(C)c1)[C@H]1CC[C@H]2[C@@H]3[C@H](O)C[C@@H]4C[C@H](O)CC[C@]4(C)[C@H]3C[C@H](O)[C@]12C

>  <Structure_dimension>  (2003) 
2D

$$$$
MS2078
     RDKit          2D

 34 37  0  0  0  0  0  0  0  0999 V2000
   -2.4018   -4.1785    0.0000 C   0  0  0  0  0  0  0  0  0  0  0  0
   -1.6536   -2.8784    0.0000 C   0  0  0  0  0  0  0  0  0  0  0  0
   -2.4055   -1.5804    0.0000 C   0  0  0  0  0  0  0  0  0  0  0  0
   -3.9055   -1.5826    0.0000 C   0  0  0  0  0  0  0  0  0  0  0  0
   -4.6574   -0.2846    0.0000 C   0  0  0  0  0  0  0  0  0  0  0  0
   -3.9092    1.0155    0.0000 O   0  0  0  0  0  0  0  0  0  0  0  0
   -6.1574   -0.2867    0.0000 C   0  0  0  0  0  0  0  0  0  0  0  0
   -6.9092    1.0112    0.0000 C   0  0  0  0  0  0  0  0  0  0  0  0
   -8.4092    1.0091    0.0000 C   0  0  0  0  0  0  0  0  0  0  0  0
   -9.1611    2.3071    0.0000 C   0  0  0  0  0  0  0  0  0  0  0  0
   -8.4129    3.6072    0.0000 O   0  0  0  0  0  0  0  0  0  0  0  0
  -10.6611    2.3049    0.0000 O   0  0  0  0  0  0  0  0  0  0  0  0
   -0.1536   -2.8762    0.0000 C   0  0  0  0  0  0  0  0  0  0  0  0
    0.7298   -4.0885    0.0000 C   0  0  0  0  0  0  0  0  0  0  0  0
    2.1557   -3.6229    0.0000 C   0  0  0  0  0  0  0  0  0  0  0  0
    2.1535   -2.1229    0.0000 C   0  0  0  0  0  0  0  0  0  0  0  0
    3.2668   -1.1176    0.0000 C   0  0  0  0  0  0  0  0  0  0  0  0
    4.6941   -1.5791    0.0000 C   0  0  0  0  0  0  0  0  0  0  0  0
    5.0080   -3.0459    0.0000 O   0  0  0  0  0  0  0  0  0  0  0  0
    5.8073   -0.5738    0.0000 C   0  0  0  0  0  0  0  0  0  0  0  0
    5.4934    0.8929    0.0000 C   0  0  0  0  0  0  0  0  0  0  0  0
    6.6067    1.8982    0.0000 C   0  0  0  0  0  0  0  0  0  0  0  0
    6.2927    3.3650    0.0000 C   0  0  0  0  0  0  0  0  0  0  0  0
    7.4060    4.3703    0.0000 O   0  0  0  0  0  0  0  0  0  0  0  0
    4.8655    3.8265    0.0000 C   0  0  0  0  0  0  0  0  0  0  0  0
    3.7522    2.8212    0.0000 C   0  0  0  0  0  0  0  0  0  0  0  0
    4.0661    1.3544    0.0000 C   0  0  0  0  0  0  0  0  0  0  0  0
    2.6389    1.8159    0.0000 C   0  0  0  0  0  0  0  0  0  0  0  0
    2.9529    0.3491    0.0000 C   0  0  0  0  0  0  0  0  0  0  0  0
    1.5256    0.8106    0.0000 C   0  0  0  0  0  0  0  0  0  0  0  0
    0.4123   -0.1947    0.0000 C   0  0  0  0  0  0  0  0  0  0  0  0
   -1.0149    0.2668    0.0000 O   0  0  0  0  0  0  0  0  0  0  0  0
    0.7263   -1.6614    0.0000 C   0  0  0  0  0  0  0  0  0  0  0  0
   -0.7414   -1.3517    0.0000 C   0  0  0  0  0  0  0  0  0  0  0  0
  2  1  1  6
  2  3  1  0
  3  4  1  0
  4  5  1  0
  5  6  2  0
  5  7  1  0
  7  8  2  0
  8  9  1  0
  9 10  1  0
 10 11  2  0
 10 12  1  0
  2 13  1  0
 13 14  1  6
 14 15  1  0
 16 15  1  6
 16 17  1  0
 17 18  1  1
 18 19  1  1
 18 20  1  0
 21 20  1  1
 21 22  1  0
 22 23  1  0
 23 24  1  1
 23 25  1  0
 25 26  1  0
 26 27  1  0
 27 28  1  6
 27 29  1  0
 29 30  1  6
 30 31  1  0
 31 32  1  1
 31 33  1  0
 33 34  1  6
 33 13  1  0
 33 16  1  0
 29 17  1  0
 27 21  1  0
M  END
>  <MS_ID>  (2004) 
MS2078

>  <SMILES>  (2004) 
C[C@H](CCC(=O)/C=C/CC(=O)O)[C@H]1CC[C@H]2[C@@H]3[C@H](O)C[C@@H]4C[C@H](O)CC[C@]4(C)[C@H]3C[C@H](O)[C@]12C

>  <Structure_dimension>  (2004) 
2D

$$$$
MS2079
     RDKit          2D

 32 35  0  0  0  0  0  0  0  0999 V2000
   -3.2905   -3.6805    0.0000 C   0  0  0  0  0  0  0  0  0  0  0  0
   -2.3609   -2.5033    0.0000 C   0  0  0  0  0  0  0  0  0  0  0  0
   -2.9157   -1.1096    0.0000 C   0  0  0  0  0  0  0  0  0  0  0  0
   -4.4000   -0.8932    0.0000 C   0  0  0  0  0  0  0  0  0  0  0  0
   -4.9547    0.5004    0.0000 C   0  0  0  0  0  0  0  0  0  0  0  0
   -4.0251    1.6776    0.0000 O   0  0  0  0  0  0  0  0  0  0  0  0
   -6.4390    0.7168    0.0000 C   0  0  0  0  0  0  0  0  0  0  0  0
   -6.9938    2.1105    0.0000 C   0  0  0  0  0  0  0  0  0  0  0  0
   -5.6001    2.6652    0.0000 C   0  0  0  0  0  0  0  0  0  0  0  0
   -8.3874    1.5557    0.0000 C   0  0  0  0  0  0  0  0  0  0  0  0
   -7.5485    3.5041    0.0000 O   0  0  0  0  0  0  0  0  0  0  0  0
   -0.8766   -2.7197    0.0000 C   0  0  0  0  0  0  0  0  0  0  0  0
   -0.1792   -4.0477    0.0000 C   0  0  0  0  0  0  0  0  0  0  0  0
    1.2993   -3.7949    0.0000 C   0  0  0  0  0  0  0  0  0  0  0  0
    1.5157   -2.3106    0.0000 C   0  0  0  0  0  0  0  0  0  0  0  0
    2.7636   -1.4782    0.0000 C   0  0  0  0  0  0  0  0  0  0  0  0
    4.1084   -2.1427    0.0000 C   0  0  0  0  0  0  0  0  0  0  0  0
    5.3562   -1.3103    0.0000 C   0  0  0  0  0  0  0  0  0  0  0  0
    5.2593    0.1866    0.0000 C   0  0  0  0  0  0  0  0  0  0  0  0
    6.5071    1.0189    0.0000 C   0  0  0  0  0  0  0  0  0  0  0  0
    6.4102    2.5158    0.0000 C   0  0  0  0  0  0  0  0  0  0  0  0
    7.6581    3.3482    0.0000 O   0  0  0  0  0  0  0  0  0  0  0  0
    5.0654    3.1803    0.0000 C   0  0  0  0  0  0  0  0  0  0  0  0
    3.8176    2.3479    0.0000 C   0  0  0  0  0  0  0  0  0  0  0  0
    3.9145    0.8511    0.0000 C   0  0  0  0  0  0  0  0  0  0  0  0
    2.5697    1.5155    0.0000 C   0  0  0  0  0  0  0  0  0  0  0  0
    2.6666    0.0187    0.0000 C   0  0  0  0  0  0  0  0  0  0  0  0
    1.3218    0.6832    0.0000 C   0  0  0  0  0  0  0  0  0  0  0  0
    0.0740   -0.1492    0.0000 C   0  0  0  0  0  0  0  0  0  0  0  0
   -1.2708    0.5153    0.0000 O   0  0  0  0  0  0  0  0  0  0  0  0
    0.1709   -1.6461    0.0000 C   0  0  0  0  0  0  0  0  0  0  0  0
   -1.2360   -1.1258    0.0000 C   0  0  0  0  0  0  0  0  0  0  0  0
  2  1  1  6
  2  3  1  0
  3  4  1  0
  4  5  1  0
  5  6  2  0
  5  7  1  0
  7  8  1  0
  8  9  1  0
  8 10  1  0
  8 11  1  0
  2 12  1  0
 12 13  1  6
 13 14  1  0
 15 14  1  6
 15 16  1  0
 16 17  1  1
 17 18  1  0
 19 18  1  1
 19 20  1  0
 20 21  1  0
 21 22  1  1
 21 23  1  0
 23 24  1  0
 24 25  1  0
 25 26  1  6
 25 27  1  0
 27 28  1  6
 28 29  1  0
 29 30  1  1
 29 31  1  0
 31 32  1  6
 31 12  1  0
 31 15  1  0
 27 16  1  0
 25 19  1  0
M  END
>  <MS_ID>  (2005) 
MS2079

>  <SMILES>  (2005) 
C[C@H](CCC(=O)CC(C)(C)O)[C@H]1CC[C@H]2[C@@H]3CC[C@@H]4C[C@H](O)CC[C@]4(C)[C@H]3C[C@H](O)[C@]12C

>  <Structure_dimension>  (2005) 
2D

$$$$
MS2080
     RDKit          2D

 31 34  0  0  0  0  0  0  0  0999 V2000
   -3.6979   -3.7343    0.0000 C   0  0  0  0  0  0  0  0  0  0  0  0
   -2.7512   -2.5708    0.0000 C   0  0  0  0  0  0  0  0  0  0  0  0
   -3.2855   -1.1692    0.0000 C   0  0  0  0  0  0  0  0  0  0  0  0
   -4.7665   -0.9311    0.0000 C   0  0  0  0  0  0  0  0  0  0  0  0
   -5.3009    0.4705    0.0000 C   0  0  0  0  0  0  0  0  0  0  0  0
   -6.7819    0.7085    0.0000 O   0  0  0  0  0  0  0  0  0  0  0  0
   -4.3542    1.6340    0.0000 O   0  0  0  0  0  0  0  0  0  0  0  0
   -4.8886    3.0356    0.0000 S   0  0  0  0  0  0  0  0  0  0  0  0
   -6.2902    2.5013    0.0000 O   0  0  0  0  0  0  0  0  0  0  0  0
   -3.4870    3.5700    0.0000 O   0  0  0  0  0  0  0  0  0  0  0  0
   -5.4229    4.4372    0.0000 O   0  0  0  0  0  0  0  0  0  0  0  0
   -1.2702   -2.8088    0.0000 C   0  0  0  0  0  0  0  0  0  0  0  0
   -0.5923   -4.1469    0.0000 C   0  0  0  0  0  0  0  0  0  0  0  0
    0.8898   -3.9156    0.0000 C   0  0  0  0  0  0  0  0  0  0  0  0
    1.1278   -2.4346    0.0000 C   0  0  0  0  0  0  0  0  0  0  0  0
    2.3877   -1.6206    0.0000 C   0  0  0  0  0  0  0  0  0  0  0  0
    3.7226   -2.3046    0.0000 C   0  0  0  0  0  0  0  0  0  0  0  0
    4.9825   -1.4905    0.0000 C   0  0  0  0  0  0  0  0  0  0  0  0
    4.9074    0.0076    0.0000 C   0  0  0  0  0  0  0  0  0  0  0  0
    6.1673    0.8217    0.0000 C   0  0  0  0  0  0  0  0  0  0  0  0
    6.0923    2.3198    0.0000 C   0  0  0  0  0  0  0  0  0  0  0  0
    7.3521    3.1338    0.0000 O   0  0  0  0  0  0  0  0  0  0  0  0
    4.7573    3.0038    0.0000 C   0  0  0  0  0  0  0  0  0  0  0  0
    3.4974    2.1897    0.0000 C   0  0  0  0  0  0  0  0  0  0  0  0
    3.5725    0.6916    0.0000 C   0  0  0  0  0  0  0  0  0  0  0  0
    2.2376    1.3757    0.0000 C   0  0  0  0  0  0  0  0  0  0  0  0
    2.3126   -0.1224    0.0000 C   0  0  0  0  0  0  0  0  0  0  0  0
    0.9777    0.5616    0.0000 C   0  0  0  0  0  0  0  0  0  0  0  0
   -0.2822   -0.2525    0.0000 C   0  0  0  0  0  0  0  0  0  0  0  0
   -0.2071   -1.7506    0.0000 C   0  0  0  0  0  0  0  0  0  0  0  0
   -1.6063   -1.2098    0.0000 C   0  0  0  0  0  0  0  0  0  0  0  0
  2  1  1  6
  2  3  1  0
  3  4  1  0
  4  5  1  0
  5  6  2  0
  5  7  1  0
  7  8  1  0
  8  9  2  0
  8 10  2  0
  8 11  1  0
  2 12  1  0
 12 13  1  6
 13 14  1  0
 15 14  1  6
 15 16  1  0
 16 17  1  1
 17 18  1  0
 19 18  1  1
 19 20  1  0
 20 21  1  0
 21 22  2  0
 21 23  1  0
 23 24  1  0
 24 25  1  0
 25 26  1  6
 25 27  1  0
 27 28  1  6
 28 29  1  0
 29 30  1  0
 30 31  1  6
 30 12  1  0
 30 15  1  0
 27 16  1  0
 25 19  1  0
M  END
>  <MS_ID>  (2006) 
MS2080

>  <SMILES>  (2006) 
C[C@H](CCC(=O)OS(=O)(=O)O)[C@H]1CC[C@H]2[C@@H]3CC[C@@H]4CC(=O)CC[C@]4(C)[C@H]3CC[C@]12C

>  <Structure_dimension>  (2006) 
2D

$$$$
MS2081
     RDKit          2D

 32 35  0  0  0  0  0  0  0  0999 V2000
   -3.6443   -3.5979    0.0000 C   0  0  0  0  0  0  0  0  0  0  0  0
   -2.7666   -2.3815    0.0000 C   0  0  0  0  0  0  0  0  0  0  0  0
   -3.3812   -1.0132    0.0000 C   0  0  0  0  0  0  0  0  0  0  0  0
   -4.8735   -0.8613    0.0000 C   0  0  0  0  0  0  0  0  0  0  0  0
   -5.4882    0.5070    0.0000 C   0  0  0  0  0  0  0  0  0  0  0  0
   -4.6105    1.7234    0.0000 O   0  0  0  0  0  0  0  0  0  0  0  0
   -6.9805    0.6588    0.0000 O   0  0  0  0  0  0  0  0  0  0  0  0
   -7.5951    2.0271    0.0000 C   0  0  0  0  0  0  0  0  0  0  0  0
   -9.0874    2.1790    0.0000 C   0  0  0  0  0  0  0  0  0  0  0  0
   -9.7020    3.5473    0.0000 O   0  0  0  0  0  0  0  0  0  0  0  0
   -1.2743   -2.5333    0.0000 C   0  0  0  0  0  0  0  0  0  0  0  0
   -0.5200   -3.8299    0.0000 C   0  0  0  0  0  0  0  0  0  0  0  0
    0.9462   -3.5132    0.0000 C   0  0  0  0  0  0  0  0  0  0  0  0
    1.0980   -2.0209    0.0000 C   0  0  0  0  0  0  0  0  0  0  0  0
    2.3086   -1.1352    0.0000 C   0  0  0  0  0  0  0  0  0  0  0  0
    3.6809   -1.7408    0.0000 C   0  0  0  0  0  0  0  0  0  0  0  0
    3.8427   -3.2320    0.0000 O   0  0  0  0  0  0  0  0  0  0  0  0
    4.8916   -0.8551    0.0000 C   0  0  0  0  0  0  0  0  0  0  0  0
    6.2639   -1.4607    0.0000 O   0  0  0  0  0  0  0  0  0  0  0  0
    4.7298    0.6362    0.0000 C   0  0  0  0  0  0  0  0  0  0  0  0
    5.9404    1.5218    0.0000 C   0  0  0  0  0  0  0  0  0  0  0  0
    5.7787    3.0131    0.0000 C   0  0  0  0  0  0  0  0  0  0  0  0
    6.9893    3.8988    0.0000 O   0  0  0  0  0  0  0  0  0  0  0  0
    4.4064    3.6187    0.0000 C   0  0  0  0  0  0  0  0  0  0  0  0
    3.1958    2.7330    0.0000 C   0  0  0  0  0  0  0  0  0  0  0  0
    3.3575    1.2417    0.0000 C   0  0  0  0  0  0  0  0  0  0  0  0
    1.9852    1.8473    0.0000 C   0  0  0  0  0  0  0  0  0  0  0  0
    2.1469    0.3561    0.0000 C   0  0  0  0  0  0  0  0  0  0  0  0
    0.7746    0.9616    0.0000 C   0  0  0  0  0  0  0  0  0  0  0  0
   -0.4360    0.0759    0.0000 C   0  0  0  0  0  0  0  0  0  0  0  0
   -0.2743   -1.4153    0.0000 C   0  0  0  0  0  0  0  0  0  0  0  0
   -1.7024   -0.9565    0.0000 C   0  0  0  0  0  0  0  0  0  0  0  0
  2  1  1  6
  2  3  1  0
  3  4  1  0
  4  5  1  0
  5  6  2  0
  5  7  1  0
  7  8  1  0
  8  9  1  0
  9 10  1  0
  2 11  1  0
 11 12  1  6
 12 13  1  0
 14 13  1  6
 14 15  1  0
 15 16  1  1
 16 17  1  1
 16 18  1  0
 18 19  1  1
 18 20  1  0
 20 21  1  1
 21 22  1  0
 22 23  1  1
 22 24  1  0
 24 25  1  0
 25 26  1  0
 26 27  1  6
 26 28  1  0
 28 29  1  6
 29 30  1  0
 30 31  1  0
 31 32  1  6
 31 11  1  0
 31 14  1  0
 28 15  1  0
 26 20  1  0
M  END
>  <MS_ID>  (2007) 
MS2081

>  <SMILES>  (2007) 
C[C@H](CCC(=O)OCCO)[C@H]1CC[C@H]2[C@@H]3[C@H](O)[C@H](O)[C@@H]4C[C@H](O)CC[C@]4(C)[C@H]3CC[C@]12C

>  <Structure_dimension>  (2007) 
2D

$$$$
MS2082
     RDKit          2D

 32 35  0  0  0  0  0  0  0  0999 V2000
   -6.7970   -1.7244    0.0000 C   0  0  0  0  0  0  0  0  0  0  0  0
   -5.5261   -0.9276    0.0000 C   0  0  0  0  0  0  0  0  0  0  0  0
   -5.5807    0.5714    0.0000 C   0  0  0  0  0  0  0  0  0  0  0  0
   -6.9062    1.2736    0.0000 C   0  0  0  0  0  0  0  0  0  0  0  0
   -6.9608    2.7726    0.0000 C   0  0  0  0  0  0  0  0  0  0  0  0
   -5.6899    3.5694    0.0000 O   0  0  0  0  0  0  0  0  0  0  0  0
   -8.2863    3.4748    0.0000 O   0  0  0  0  0  0  0  0  0  0  0  0
   -4.2006   -1.6298    0.0000 C   0  0  0  0  0  0  0  0  0  0  0  0
   -3.9896   -3.1149    0.0000 C   0  0  0  0  0  0  0  0  0  0  0  0
   -2.5120   -3.3732    0.0000 C   0  0  0  0  0  0  0  0  0  0  0  0
   -1.8098   -2.0477    0.0000 C   0  0  0  0  0  0  0  0  0  0  0  0
   -0.3549   -1.6826    0.0000 C   0  0  0  0  0  0  0  0  0  0  0  0
    0.6887   -2.7601    0.0000 C   0  0  0  0  0  0  0  0  0  0  0  0
    2.1436   -2.3950    0.0000 C   0  0  0  0  0  0  0  0  0  0  0  0
    2.5549   -0.9525    0.0000 C   0  0  0  0  0  0  0  0  0  0  0  0
    4.0097   -0.5874    0.0000 C   0  0  0  0  0  0  0  0  0  0  0  0
    4.4210    0.8551    0.0000 C   0  0  0  0  0  0  0  0  0  0  0  0
    5.8759    1.2202    0.0000 N   0  0  0  0  0  0  0  0  0  0  0  0
    6.9195    0.1428    0.0000 O   0  0  0  0  0  0  0  0  0  0  0  0
    8.3744    0.5078    0.0000 S   0  0  0  0  0  0  0  0  0  0  0  0
    8.0094    1.9627    0.0000 O   0  0  0  0  0  0  0  0  0  0  0  0
    8.7395   -0.9471    0.0000 O   0  0  0  0  0  0  0  0  0  0  0  0
    9.8293    0.8729    0.0000 O   0  0  0  0  0  0  0  0  0  0  0  0
    3.3774    1.9326    0.0000 C   0  0  0  0  0  0  0  0  0  0  0  0
    1.9225    1.5675    0.0000 C   0  0  0  0  0  0  0  0  0  0  0  0
    1.5112    0.1250    0.0000 C   0  0  0  0  0  0  0  0  0  0  0  0
    0.4676    1.2024    0.0000 C   0  0  0  0  0  0  0  0  0  0  0  0
    0.0563   -0.2401    0.0000 C   0  0  0  0  0  0  0  0  0  0  0  0
   -0.9873    0.8373    0.0000 C   0  0  0  0  0  0  0  0  0  0  0  0
   -2.4422    0.4723    0.0000 C   0  0  0  0  0  0  0  0  0  0  0  0
   -2.8534   -0.9703    0.0000 C   0  0  0  0  0  0  0  0  0  0  0  0
   -4.0040   -0.0078    0.0000 C   0  0  0  0  0  0  0  0  0  0  0  0
  2  1  1  6
  2  3  1  0
  3  4  1  0
  4  5  1  0
  5  6  2  0
  5  7  1  0
  2  8  1  0
  8  9  1  6
  9 10  1  0
 11 10  1  6
 11 12  1  0
 12 13  1  1
 13 14  1  0
 15 14  1  1
 15 16  1  0
 16 17  1  0
 17 18  1  1
 18 19  1  0
 19 20  1  0
 20 21  2  0
 20 22  2  0
 20 23  1  0
 17 24  1  0
 24 25  1  0
 25 26  1  0
 26 27  1  6
 26 28  1  0
 28 29  1  6
 29 30  1  0
 30 31  1  0
 31 32  1  6
 31  8  1  0
 31 11  1  0
 28 12  1  0
 26 15  1  0
M  END
>  <MS_ID>  (2008) 
MS2082

>  <SMILES>  (2008) 
C[C@H](CCC(=O)O)[C@H]1CC[C@H]2[C@@H]3CC[C@@H]4C[C@H](NOS(=O)(=O)O)CC[C@]4(C)[C@H]3CC[C@]12C

>  <Structure_dimension>  (2008) 
2D

$$$$
MS2083
     RDKit          2D

 29 32  0  0  0  0  0  0  0  0999 V2000
   -5.4679   -1.9280    0.0000 C   0  0  0  0  0  0  0  0  0  0  0  0
   -4.2629   -1.0348    0.0000 C   0  0  0  0  0  0  0  0  0  0  0  0
   -4.4339    0.4554    0.0000 C   0  0  0  0  0  0  0  0  0  0  0  0
   -5.8100    1.0524    0.0000 C   0  0  0  0  0  0  0  0  0  0  0  0
   -5.9810    2.5426    0.0000 C   0  0  0  0  0  0  0  0  0  0  0  0
   -4.7760    3.4359    0.0000 O   0  0  0  0  0  0  0  0  0  0  0  0
   -7.3571    3.1396    0.0000 O   0  0  0  0  0  0  0  0  0  0  0  0
   -2.8868   -1.6318    0.0000 C   0  0  0  0  0  0  0  0  0  0  0  0
   -2.5609   -3.0959    0.0000 C   0  0  0  0  0  0  0  0  0  0  0  0
   -1.0677   -3.2385    0.0000 C   0  0  0  0  0  0  0  0  0  0  0  0
   -0.4707   -1.8624    0.0000 C   0  0  0  0  0  0  0  0  0  0  0  0
    0.9514   -1.3853    0.0000 C   0  0  0  0  0  0  0  0  0  0  0  0
    2.0756   -2.3783    0.0000 C   0  0  0  0  0  0  0  0  0  0  0  0
    1.7778   -3.8484    0.0000 O   0  0  0  0  0  0  0  0  0  0  0  0
    3.4977   -1.9011    0.0000 C   0  0  0  0  0  0  0  0  0  0  0  0
    3.7956   -0.4310    0.0000 C   0  0  0  0  0  0  0  0  0  0  0  0
    5.2177    0.0461    0.0000 C   0  0  0  0  0  0  0  0  0  0  0  0
    5.5155    1.5163    0.0000 C   0  0  0  0  0  0  0  0  0  0  0  0
    6.9376    1.9934    0.0000 C   0  0  0  0  0  0  0  0  0  0  0  0
    8.0618    1.0004    0.0000 F   0  0  0  0  0  0  0  0  0  0  0  0
    4.3912    2.5093    0.0000 C   0  0  0  0  0  0  0  0  0  0  0  0
    2.9692    2.0321    0.0000 C   0  0  0  0  0  0  0  0  0  0  0  0
    2.6713    0.5620    0.0000 C   0  0  0  0  0  0  0  0  0  0  0  0
    1.5471    1.5550    0.0000 C   0  0  0  0  0  0  0  0  0  0  0  0
    1.2492    0.0849    0.0000 C   0  0  0  0  0  0  0  0  0  0  0  0
    0.1250    1.0779    0.0000 C   0  0  0  0  0  0  0  0  0  0  0  0
   -1.2971    0.6007    0.0000 C   0  0  0  0  0  0  0  0  0  0  0  0
   -1.5950   -0.8694    0.0000 C   0  0  0  0  0  0  0  0  0  0  0  0
   -2.8169    0.0007    0.0000 C   0  0  0  0  0  0  0  0  0  0  0  0
  2  1  1  6
  2  3  1  0
  3  4  1  0
  4  5  1  0
  5  6  2  0
  5  7  1  0
  2  8  1  0
  8  9  1  6
  9 10  1  0
 11 10  1  6
 11 12  1  0
 12 13  1  1
 13 14  1  6
 13 15  1  0
 16 15  1  1
 16 17  1  0
 17 18  1  0
 18 19  1  1
 19 20  1  0
 18 21  1  0
 21 22  1  0
 22 23  1  0
 23 24  1  6
 23 25  1  0
 25 26  1  6
 26 27  1  0
 27 28  1  0
 28 29  1  6
 28  8  1  0
 28 11  1  0
 25 12  1  0
 23 16  1  0
M  END
>  <MS_ID>  (2009) 
MS2083

>  <SMILES>  (2009) 
C[C@H](CCC(=O)O)[C@H]1CC[C@H]2[C@@H]3[C@@H](O)C[C@@H]4C[C@H](CF)CC[C@]4(C)[C@H]3CC[C@]12C

>  <Structure_dimension>  (2009) 
2D

$$$$
MS2084
     RDKit          2D

 32 35  0  0  0  0  0  0  0  0999 V2000
   -8.5023    1.6543    0.0000 C   0  0  0  0  0  0  0  0  0  0  0  0
   -7.0076    1.5283    0.0000 C   0  0  0  0  0  0  0  0  0  0  0  0
   -6.3694    0.1708    0.0000 O   0  0  0  0  0  0  0  0  0  0  0  0
   -4.8747    0.0448    0.0000 C   0  0  0  0  0  0  0  0  0  0  0  0
   -4.0182    1.2762    0.0000 O   0  0  0  0  0  0  0  0  0  0  0  0
   -4.2365   -1.3127    0.0000 C   0  0  0  0  0  0  0  0  0  0  0  0
   -2.7418   -1.4387    0.0000 C   0  0  0  0  0  0  0  0  0  0  0  0
   -2.1036   -2.7962    0.0000 C   0  0  0  0  0  0  0  0  0  0  0  0
   -2.9601   -4.0276    0.0000 C   0  0  0  0  0  0  0  0  0  0  0  0
   -0.6089   -2.9222    0.0000 C   0  0  0  0  0  0  0  0  0  0  0  0
    0.1677   -4.2055    0.0000 C   0  0  0  0  0  0  0  0  0  0  0  0
    1.6282   -3.8635    0.0000 C   0  0  0  0  0  0  0  0  0  0  0  0
    1.7542   -2.3688    0.0000 C   0  0  0  0  0  0  0  0  0  0  0  0
    2.9493   -1.4623    0.0000 C   0  0  0  0  0  0  0  0  0  0  0  0
    4.3319   -2.0441    0.0000 C   0  0  0  0  0  0  0  0  0  0  0  0
    5.5270   -1.1376    0.0000 C   0  0  0  0  0  0  0  0  0  0  0  0
    5.3395    0.3507    0.0000 C   0  0  0  0  0  0  0  0  0  0  0  0
    6.5346    1.2572    0.0000 C   0  0  0  0  0  0  0  0  0  0  0  0
    6.3472    2.7454    0.0000 C   0  0  0  0  0  0  0  0  0  0  0  0
    7.5423    3.6519    0.0000 O   0  0  0  0  0  0  0  0  0  0  0  0
    4.9646    3.3271    0.0000 C   0  0  0  0  0  0  0  0  0  0  0  0
    3.7694    2.4207    0.0000 C   0  0  0  0  0  0  0  0  0  0  0  0
    3.9569    0.9324    0.0000 C   0  0  0  0  0  0  0  0  0  0  0  0
    2.5743    1.5142    0.0000 C   0  0  0  0  0  0  0  0  0  0  0  0
    2.7618    0.0259    0.0000 C   0  0  0  0  0  0  0  0  0  0  0  0
    1.3792    0.6077    0.0000 C   0  0  0  0  0  0  0  0  0  0  0  0
    0.1841   -0.2988    0.0000 C   0  0  0  0  0  0  0  0  0  0  0  0
    0.3716   -1.7870    0.0000 C   0  0  0  0  0  0  0  0  0  0  0  0
   -1.0642   -1.3530    0.0000 C   0  0  0  0  0  0  0  0  0  0  0  0
   -6.1511    2.7597    0.0000 C   0  0  0  0  0  0  0  0  0  0  0  0
   -4.6564    2.6337    0.0000 O   0  0  0  0  0  0  0  0  0  0  0  0
   -6.7893    4.1172    0.0000 O   0  0  0  0  0  0  0  0  0  0  0  0
  2  1  1  1
  2  3  1  0
  3  4  1  0
  4  5  2  0
  4  6  1  0
  6  7  1  0
  7  8  1  0
  8  9  1  6
  8 10  1  0
 10 11  1  6
 11 12  1  0
 13 12  1  6
 13 14  1  0
 14 15  1  1
 15 16  1  0
 17 16  1  1
 17 18  1  0
 18 19  1  0
 19 20  1  1
 19 21  1  0
 21 22  1  0
 22 23  1  0
 23 24  1  6
 23 25  1  0
 25 26  1  6
 26 27  1  0
 27 28  1  0
 28 29  1  6
  2 30  1  0
 30 31  2  0
 30 32  1  0
 28 10  1  0
 28 13  1  0
 25 14  1  0
 23 17  1  0
M  END
>  <MS_ID>  (2010) 
MS2084

>  <SMILES>  (2010) 
C[C@H](OC(=O)CC[C@@H](C)[C@H]1CC[C@H]2[C@@H]3CC[C@@H]4C[C@H](O)CC[C@]4(C)[C@H]3CC[C@]12C)C(=O)O

>  <Structure_dimension>  (2010) 
2D

$$$$
MS2085
     RDKit          2D

 29 32  0  0  0  0  0  0  0  0999 V2000
   -5.0303   -2.1373    0.0000 C   0  0  0  0  0  0  0  0  0  0  0  0
   -3.8594   -1.1998    0.0000 C   0  0  0  0  0  0  0  0  0  0  0  0
   -4.0858    0.2830    0.0000 C   0  0  0  0  0  0  0  0  0  0  0  0
   -5.4831    0.8284    0.0000 C   0  0  0  0  0  0  0  0  0  0  0  0
   -5.7095    2.3112    0.0000 C   0  0  0  0  0  0  0  0  0  0  0  0
   -4.5386    3.2487    0.0000 O   0  0  0  0  0  0  0  0  0  0  0  0
   -7.1069    2.8565    0.0000 O   0  0  0  0  0  0  0  0  0  0  0  0
   -2.4620   -1.7451    0.0000 C   0  0  0  0  0  0  0  0  0  0  0  0
   -2.0818   -3.1961    0.0000 C   0  0  0  0  0  0  0  0  0  0  0  0
   -0.5844   -3.2830    0.0000 C   0  0  0  0  0  0  0  0  0  0  0  0
   -0.0390   -1.8856    0.0000 C   0  0  0  0  0  0  0  0  0  0  0  0
    1.3643   -1.3559    0.0000 C   0  0  0  0  0  0  0  0  0  0  0  0
    2.5248   -2.3063    0.0000 C   0  0  0  0  0  0  0  0  0  0  0  0
    2.2819   -3.7865    0.0000 O   0  0  0  0  0  0  0  0  0  0  0  0
    3.9281   -1.7765    0.0000 C   0  0  0  0  0  0  0  0  0  0  0  0
    4.1710   -0.2963    0.0000 C   0  0  0  0  0  0  0  0  0  0  0  0
    5.5743    0.2334    0.0000 C   0  0  0  0  0  0  0  0  0  0  0  0
    5.8172    1.7136    0.0000 C   0  0  0  0  0  0  0  0  0  0  0  0
    7.2205    2.2434    0.0000 O   0  0  0  0  0  0  0  0  0  0  0  0
    4.6568    2.6641    0.0000 C   0  0  0  0  0  0  0  0  0  0  0  0
    3.2534    2.1343    0.0000 C   0  0  0  0  0  0  0  0  0  0  0  0
    3.0105    0.6541    0.0000 C   0  0  0  0  0  0  0  0  0  0  0  0
    1.8501    1.6046    0.0000 C   0  0  0  0  0  0  0  0  0  0  0  0
    1.6072    0.1244    0.0000 C   0  0  0  0  0  0  0  0  0  0  0  0
    0.4467    1.0748    0.0000 C   0  0  0  0  0  0  0  0  0  0  0  0
   -0.9566    0.5450    0.0000 C   0  0  0  0  0  0  0  0  0  0  0  0
   -2.1170    1.4955    0.0000 F   0  0  0  0  0  0  0  0  0  0  0  0
   -1.1995   -0.9352    0.0000 C   0  0  0  0  0  0  0  0  0  0  0  0
   -2.4529   -0.1112    0.0000 C   0  0  0  0  0  0  0  0  0  0  0  0
  2  1  1  6
  2  3  1  0
  3  4  1  0
  4  5  1  0
  5  6  2  0
  5  7  1  0
  2  8  1  0
  8  9  1  6
  9 10  1  0
 11 10  1  6
 11 12  1  0
 12 13  1  1
 13 14  1  1
 13 15  1  0
 16 15  1  1
 16 17  1  0
 17 18  1  0
 18 19  2  0
 18 20  1  0
 20 21  1  0
 21 22  1  0
 22 23  1  6
 22 24  1  0
 24 25  1  6
 25 26  1  0
 26 27  1  1
 26 28  1  0
 28 29  1  6
 28  8  1  0
 28 11  1  0
 24 12  1  0
 22 16  1  0
M  END
>  <MS_ID>  (2011) 
MS2085

>  <SMILES>  (2011) 
C[C@H](CCC(=O)O)[C@H]1CC[C@H]2[C@@H]3[C@H](O)C[C@@H]4CC(=O)CC[C@]4(C)[C@H]3C[C@H](F)[C@]12C

>  <Structure_dimension>  (2011) 
2D

$$$$
MS2087
     RDKit          2D

 33 36  0  0  0  0  0  0  0  0999 V2000
   -1.4787   -4.1836    0.0000 C   0  0  0  0  0  0  0  0  0  0  0  0
   -0.8246   -2.8337    0.0000 C   0  0  0  0  0  0  0  0  0  0  0  0
   -1.6665   -1.5923    0.0000 C   0  0  0  0  0  0  0  0  0  0  0  0
   -3.1626   -1.7007    0.0000 C   0  0  0  0  0  0  0  0  0  0  0  0
   -4.0046   -0.4593    0.0000 C   0  0  0  0  0  0  0  0  0  0  0  0
   -3.3504    0.8905    0.0000 O   0  0  0  0  0  0  0  0  0  0  0  0
   -5.5006   -0.5677    0.0000 N   0  0  0  0  0  0  0  0  0  0  0  0
   -6.3426    0.6737    0.0000 C   0  0  0  0  0  0  0  0  0  0  0  0
   -7.8387    0.5653    0.0000 C   0  0  0  0  0  0  0  0  0  0  0  0
   -8.6806    1.8067    0.0000 C   0  0  0  0  0  0  0  0  0  0  0  0
  -10.1767    1.6983    0.0000 C   0  0  0  0  0  0  0  0  0  0  0  0
  -10.8308    0.3484    0.0000 O   0  0  0  0  0  0  0  0  0  0  0  0
  -11.0186    2.9397    0.0000 O   0  0  0  0  0  0  0  0  0  0  0  0
    0.6715   -2.7253    0.0000 C   0  0  0  0  0  0  0  0  0  0  0  0
    1.6386   -3.8719    0.0000 C   0  0  0  0  0  0  0  0  0  0  0  0
    3.0279   -3.3065    0.0000 C   0  0  0  0  0  0  0  0  0  0  0  0
    2.9195   -1.8104    0.0000 C   0  0  0  0  0  0  0  0  0  0  0  0
    3.9587   -0.7288    0.0000 C   0  0  0  0  0  0  0  0  0  0  0  0
    5.4151   -1.0879    0.0000 C   0  0  0  0  0  0  0  0  0  0  0  0
    5.8322   -2.5288    0.0000 O   0  0  0  0  0  0  0  0  0  0  0  0
    6.4543   -0.0063    0.0000 C   0  0  0  0  0  0  0  0  0  0  0  0
    6.0372    1.4345    0.0000 C   0  0  0  0  0  0  0  0  0  0  0  0
    7.0765    2.5162    0.0000 C   0  0  0  0  0  0  0  0  0  0  0  0
    6.6594    3.9570    0.0000 C   0  0  0  0  0  0  0  0  0  0  0  0
    5.2030    4.3162    0.0000 C   0  0  0  0  0  0  0  0  0  0  0  0
    4.1637    3.2346    0.0000 C   0  0  0  0  0  0  0  0  0  0  0  0
    4.5809    1.7937    0.0000 C   0  0  0  0  0  0  0  0  0  0  0  0
    3.1245    2.1529    0.0000 C   0  0  0  0  0  0  0  0  0  0  0  0
    3.5416    0.7121    0.0000 C   0  0  0  0  0  0  0  0  0  0  0  0
    2.0853    1.0713    0.0000 C   0  0  0  0  0  0  0  0  0  0  0  0
    1.0460   -0.0104    0.0000 C   0  0  0  0  0  0  0  0  0  0  0  0
    1.4631   -1.4512    0.0000 C   0  0  0  0  0  0  0  0  0  0  0  0
   -0.0228   -1.2462    0.0000 C   0  0  0  0  0  0  0  0  0  0  0  0
  2  1  1  6
  2  3  1  0
  3  4  1  0
  4  5  1  0
  5  6  2  0
  5  7  1  0
  7  8  1  0
  8  9  1  0
  9 10  1  0
 10 11  1  0
 11 12  2  0
 11 13  1  0
  2 14  1  0
 14 15  1  6
 15 16  1  0
 17 16  1  6
 17 18  1  0
 18 19  1  1
 19 20  1  6
 19 21  1  0
 22 21  1  1
 22 23  1  0
 23 24  1  0
 24 25  1  0
 25 26  1  0
 26 27  1  0
 27 28  1  6
 27 29  1  0
 29 30  1  6
 30 31  1  0
 31 32  1  0
 32 33  1  6
 32 14  1  0
 32 17  1  0
 29 18  1  0
 27 22  1  0
M  END
>  <MS_ID>  (2012) 
MS2087

>  <SMILES>  (2012) 
C[C@H](CCC(=O)NCCCC(=O)O)[C@H]1CC[C@H]2[C@@H]3[C@@H](O)C[C@@H]4CCCC[C@]4(C)[C@H]3CC[C@]12C

>  <Structure_dimension>  (2012) 
2D

$$$$
MS2088
     RDKit          2D

 33 36  0  0  0  0  0  0  0  0999 V2000
   -2.7798   -3.8103    0.0000 C   0  0  0  0  0  0  0  0  0  0  0  0
   -1.9338   -2.5716    0.0000 C   0  0  0  0  0  0  0  0  0  0  0  0
   -2.5835   -1.2196    0.0000 C   0  0  0  0  0  0  0  0  0  0  0  0
   -4.0792   -1.1063    0.0000 C   0  0  0  0  0  0  0  0  0  0  0  0
   -4.7289    0.2457    0.0000 C   0  0  0  0  0  0  0  0  0  0  0  0
   -3.8829    1.4843    0.0000 O   0  0  0  0  0  0  0  0  0  0  0  0
   -6.2246    0.3590    0.0000 O   0  0  0  0  0  0  0  0  0  0  0  0
   -6.8743    1.7110    0.0000 C   0  0  0  0  0  0  0  0  0  0  0  0
   -8.3700    1.8244    0.0000 C   0  0  0  0  0  0  0  0  0  0  0  0
   -8.4834    0.3287    0.0000 C   0  0  0  0  0  0  0  0  0  0  0  0
   -8.2567    3.3201    0.0000 C   0  0  0  0  0  0  0  0  0  0  0  0
   -9.8657    1.9377    0.0000 O   0  0  0  0  0  0  0  0  0  0  0  0
   -0.4381   -2.6850    0.0000 C   0  0  0  0  0  0  0  0  0  0  0  0
    0.3494   -3.9617    0.0000 C   0  0  0  0  0  0  0  0  0  0  0  0
    1.8069   -3.6073    0.0000 C   0  0  0  0  0  0  0  0  0  0  0  0
    1.9202   -2.1116    0.0000 C   0  0  0  0  0  0  0  0  0  0  0  0
    3.1076   -1.1950    0.0000 C   0  0  0  0  0  0  0  0  0  0  0  0
    4.4951   -1.7650    0.0000 C   0  0  0  0  0  0  0  0  0  0  0  0
    4.6952   -3.2515    0.0000 O   0  0  0  0  0  0  0  0  0  0  0  0
    5.6825   -0.8484    0.0000 C   0  0  0  0  0  0  0  0  0  0  0  0
    5.4824    0.6382    0.0000 C   0  0  0  0  0  0  0  0  0  0  0  0
    6.6697    1.5548    0.0000 C   0  0  0  0  0  0  0  0  0  0  0  0
    6.4696    3.0414    0.0000 C   0  0  0  0  0  0  0  0  0  0  0  0
    7.6570    3.9580    0.0000 O   0  0  0  0  0  0  0  0  0  0  0  0
    5.0821    3.6114    0.0000 C   0  0  0  0  0  0  0  0  0  0  0  0
    3.8948    2.6948    0.0000 C   0  0  0  0  0  0  0  0  0  0  0  0
    4.0949    1.2082    0.0000 C   0  0  0  0  0  0  0  0  0  0  0  0
    2.7074    1.7782    0.0000 C   0  0  0  0  0  0  0  0  0  0  0  0
    2.9075    0.2916    0.0000 C   0  0  0  0  0  0  0  0  0  0  0  0
    1.5200    0.8616    0.0000 C   0  0  0  0  0  0  0  0  0  0  0  0
    0.3327   -0.0550    0.0000 C   0  0  0  0  0  0  0  0  0  0  0  0
    0.5328   -1.5416    0.0000 C   0  0  0  0  0  0  0  0  0  0  0  0
   -0.9067   -1.1197    0.0000 C   0  0  0  0  0  0  0  0  0  0  0  0
  2  1  1  6
  2  3  1  0
  3  4  1  0
  4  5  1  0
  5  6  2  0
  5  7  1  0
  7  8  1  0
  8  9  1  0
  9 10  1  0
  9 11  1  0
  9 12  1  0
  2 13  1  0
 13 14  1  6
 14 15  1  0
 16 15  1  6
 16 17  1  0
 17 18  1  1
 18 19  1  1
 18 20  1  0
 21 20  1  1
 21 22  1  0
 22 23  1  0
 23 24  1  1
 23 25  1  0
 25 26  1  0
 26 27  1  0
 27 28  1  6
 27 29  1  0
 29 30  1  6
 30 31  1  0
 31 32  1  0
 32 33  1  6
 32 13  1  0
 32 16  1  0
 29 17  1  0
 27 21  1  0
M  END
>  <MS_ID>  (2013) 
MS2088

>  <SMILES>  (2013) 
C[C@H](CCC(=O)OCC(C)(C)O)[C@H]1CC[C@H]2[C@@H]3[C@H](O)C[C@@H]4C[C@H](O)CC[C@]4(C)[C@H]3CC[C@]12C

>  <Structure_dimension>  (2013) 
2D

$$$$
MS2089
     RDKit          2D

 31 34  0  0  0  0  0  0  0  0999 V2000
   -3.6377   -3.4900    0.0000 C   0  0  0  0  0  0  0  0  0  0  0  0
   -2.6684   -2.3453    0.0000 C   0  0  0  0  0  0  0  0  0  0  0  0
   -3.1751   -0.9335    0.0000 C   0  0  0  0  0  0  0  0  0  0  0  0
   -4.6511   -0.6664    0.0000 C   0  0  0  0  0  0  0  0  0  0  0  0
   -5.1578    0.7454    0.0000 C   0  0  0  0  0  0  0  0  0  0  0  0
   -4.1885    1.8902    0.0000 O   0  0  0  0  0  0  0  0  0  0  0  0
   -6.6339    1.0125    0.0000 C   0  0  0  0  0  0  0  0  0  0  0  0
   -7.1406    2.4243    0.0000 C   0  0  0  0  0  0  0  0  0  0  0  0
   -6.1713    3.5691    0.0000 O   0  0  0  0  0  0  0  0  0  0  0  0
   -8.6166    2.6914    0.0000 O   0  0  0  0  0  0  0  0  0  0  0  0
   -1.1923   -2.6123    0.0000 C   0  0  0  0  0  0  0  0  0  0  0  0
   -0.5408   -3.9635    0.0000 C   0  0  0  0  0  0  0  0  0  0  0  0
    0.9455   -3.7613    0.0000 C   0  0  0  0  0  0  0  0  0  0  0  0
    1.2126   -2.2853    0.0000 C   0  0  0  0  0  0  0  0  0  0  0  0
    2.4882   -1.4961    0.0000 C   0  0  0  0  0  0  0  0  0  0  0  0
    3.8095   -2.2063    0.0000 C   0  0  0  0  0  0  0  0  0  0  0  0
    5.0851   -1.4171    0.0000 C   0  0  0  0  0  0  0  0  0  0  0  0
    5.0394    0.0822    0.0000 C   0  0  0  0  0  0  0  0  0  0  0  0
    6.3151    0.8714    0.0000 C   0  0  0  0  0  0  0  0  0  0  0  0
    6.2694    2.3707    0.0000 C   0  0  0  0  0  0  0  0  0  0  0  0
    7.5450    3.1599    0.0000 O   0  0  0  0  0  0  0  0  0  0  0  0
    4.9481    3.0808    0.0000 C   0  0  0  0  0  0  0  0  0  0  0  0
    3.6725    2.2917    0.0000 C   0  0  0  0  0  0  0  0  0  0  0  0
    3.7182    0.7924    0.0000 C   0  0  0  0  0  0  0  0  0  0  0  0
    2.3969    1.5025    0.0000 C   0  0  0  0  0  0  0  0  0  0  0  0
    2.4426    0.0032    0.0000 C   0  0  0  0  0  0  0  0  0  0  0  0
    1.1213    0.7133    0.0000 C   0  0  0  0  0  0  0  0  0  0  0  0
   -0.1543   -0.0759    0.0000 C   0  0  0  0  0  0  0  0  0  0  0  0
   -1.4756    0.6342    0.0000 O   0  0  0  0  0  0  0  0  0  0  0  0
   -0.1087   -1.5752    0.0000 C   0  0  0  0  0  0  0  0  0  0  0  0
   -1.4969   -1.0071    0.0000 C   0  0  0  0  0  0  0  0  0  0  0  0
  2  1  1  6
  2  3  1  0
  3  4  1  0
  4  5  1  0
  5  6  2  0
  5  7  1  0
  7  8  1  0
  8  9  2  0
  8 10  1  0
  2 11  1  0
 11 12  1  6
 12 13  1  0
 14 13  1  6
 14 15  1  0
 15 16  1  1
 16 17  1  0
 18 17  1  1
 18 19  1  0
 19 20  1  0
 20 21  1  6
 20 22  1  0
 22 23  1  0
 23 24  1  0
 24 25  1  6
 24 26  1  0
 26 27  1  6
 27 28  1  0
 28 29  1  6
 28 30  1  0
 30 31  1  6
 30 11  1  0
 30 14  1  0
 26 15  1  0
 24 18  1  0
M  END
>  <MS_ID>  (2014) 
MS2089

>  <SMILES>  (2014) 
C[C@H](CCC(=O)CC(=O)O)[C@H]1CC[C@H]2[C@@H]3CC[C@@H]4C[C@@H](O)CC[C@]4(C)[C@H]3C[C@@H](O)[C@]12C

>  <Structure_dimension>  (2014) 
2D

$$$$
MS2090
     RDKit          2D

 33 36  0  0  0  0  0  0  0  0999 V2000
  -11.4048    3.4431    0.0000 C   0  0  0  0  0  0  0  0  0  0  0  0
  -10.6339    2.1564    0.0000 O   0  0  0  0  0  0  0  0  0  0  0  0
   -9.1341    2.1807    0.0000 C   0  0  0  0  0  0  0  0  0  0  0  0
   -8.3632    0.8939    0.0000 C   0  0  0  0  0  0  0  0  0  0  0  0
   -6.8634    0.9182    0.0000 C   0  0  0  0  0  0  0  0  0  0  0  0
   -6.0924   -0.3685    0.0000 O   0  0  0  0  0  0  0  0  0  0  0  0
   -4.5926   -0.3442    0.0000 C   0  0  0  0  0  0  0  0  0  0  0  0
   -3.8638    0.9668    0.0000 O   0  0  0  0  0  0  0  0  0  0  0  0
   -3.8217   -1.6309    0.0000 C   0  0  0  0  0  0  0  0  0  0  0  0
   -2.3219   -1.6066    0.0000 C   0  0  0  0  0  0  0  0  0  0  0  0
   -1.5509   -2.8934    0.0000 C   0  0  0  0  0  0  0  0  0  0  0  0
   -2.2798   -4.2044    0.0000 C   0  0  0  0  0  0  0  0  0  0  0  0
   -0.0511   -2.8691    0.0000 C   0  0  0  0  0  0  0  0  0  0  0  0
    0.8501   -4.0682    0.0000 C   0  0  0  0  0  0  0  0  0  0  0  0
    2.2690   -3.5816    0.0000 C   0  0  0  0  0  0  0  0  0  0  0  0
    2.2447   -2.0818    0.0000 C   0  0  0  0  0  0  0  0  0  0  0  0
    3.3430   -1.0602    0.0000 C   0  0  0  0  0  0  0  0  0  0  0  0
    4.7769   -1.5006    0.0000 C   0  0  0  0  0  0  0  0  0  0  0  0
    5.1125   -2.9625    0.0000 O   0  0  0  0  0  0  0  0  0  0  0  0
    5.8752   -0.4789    0.0000 C   0  0  0  0  0  0  0  0  0  0  0  0
    5.5396    0.9830    0.0000 C   0  0  0  0  0  0  0  0  0  0  0  0
    6.6380    2.0047    0.0000 C   0  0  0  0  0  0  0  0  0  0  0  0
    6.3024    3.4666    0.0000 C   0  0  0  0  0  0  0  0  0  0  0  0
    7.4007    4.4882    0.0000 O   0  0  0  0  0  0  0  0  0  0  0  0
    4.8685    3.9070    0.0000 C   0  0  0  0  0  0  0  0  0  0  0  0
    3.7701    2.8854    0.0000 C   0  0  0  0  0  0  0  0  0  0  0  0
    4.1057    1.4234    0.0000 C   0  0  0  0  0  0  0  0  0  0  0  0
    2.6718    1.8638    0.0000 C   0  0  0  0  0  0  0  0  0  0  0  0
    3.0074    0.4018    0.0000 C   0  0  0  0  0  0  0  0  0  0  0  0
    1.5735    0.8422    0.0000 C   0  0  0  0  0  0  0  0  0  0  0  0
    0.4752   -0.1795    0.0000 C   0  0  0  0  0  0  0  0  0  0  0  0
    0.8108   -1.6414    0.0000 C   0  0  0  0  0  0  0  0  0  0  0  0
   -0.6613   -1.3534    0.0000 C   0  0  0  0  0  0  0  0  0  0  0  0
  1  2  1  0
  2  3  1  0
  3  4  1  0
  4  5  1  0
  5  6  1  0
  6  7  1  0
  7  8  2  0
  7  9  1  0
  9 10  1  0
 10 11  1  0
 11 12  1  6
 11 13  1  0
 13 14  1  6
 14 15  1  0
 16 15  1  6
 16 17  1  0
 17 18  1  1
 18 19  1  1
 18 20  1  0
 21 20  1  1
 21 22  1  0
 22 23  1  0
 23 24  1  1
 23 25  1  0
 25 26  1  0
 26 27  1  0
 27 28  1  6
 27 29  1  0
 29 30  1  6
 30 31  1  0
 31 32  1  0
 32 33  1  6
 32 13  1  0
 32 16  1  0
 29 17  1  0
 27 21  1  0
M  END
>  <MS_ID>  (2015) 
MS2090

>  <SMILES>  (2015) 
COCCCOC(=O)CC[C@@H](C)[C@H]1CC[C@H]2[C@@H]3[C@H](O)C[C@@H]4C[C@H](O)CC[C@]4(C)[C@H]3CC[C@]12C

>  <Structure_dimension>  (2015) 
2D

$$$$
MS2091
     RDKit          2D

 33 36  0  0  0  0  0  0  0  0999 V2000
   -3.4787   -3.9904    0.0000 C   0  0  0  0  0  0  0  0  0  0  0  0
   -2.6247   -2.7573    0.0000 C   0  0  0  0  0  0  0  0  0  0  0  0
   -3.2657   -1.4011    0.0000 C   0  0  0  0  0  0  0  0  0  0  0  0
   -4.7606   -1.2781    0.0000 C   0  0  0  0  0  0  0  0  0  0  0  0
   -5.4016    0.0780    0.0000 C   0  0  0  0  0  0  0  0  0  0  0  0
   -6.8965    0.2010    0.0000 O   0  0  0  0  0  0  0  0  0  0  0  0
   -4.5476    1.3112    0.0000 O   0  0  0  0  0  0  0  0  0  0  0  0
   -5.1886    2.6674    0.0000 C   0  0  0  0  0  0  0  0  0  0  0  0
   -6.6835    2.7903    0.0000 O   0  0  0  0  0  0  0  0  0  0  0  0
   -4.3346    3.9005    0.0000 C   0  0  0  0  0  0  0  0  0  0  0  0
   -4.9756    5.2567    0.0000 N   0  0  0  0  0  0  0  0  0  0  0  0
   -1.1297   -2.8802    0.0000 C   0  0  0  0  0  0  0  0  0  0  0  0
   -0.3505   -4.1620    0.0000 C   0  0  0  0  0  0  0  0  0  0  0  0
    1.1093   -3.8169    0.0000 C   0  0  0  0  0  0  0  0  0  0  0  0
    1.2322   -2.3220    0.0000 C   0  0  0  0  0  0  0  0  0  0  0  0
    2.4255   -1.4131    0.0000 C   0  0  0  0  0  0  0  0  0  0  0  0
    3.8093   -1.9920    0.0000 C   0  0  0  0  0  0  0  0  0  0  0  0
    3.9998   -3.4798    0.0000 O   0  0  0  0  0  0  0  0  0  0  0  0
    5.0025   -1.0831    0.0000 C   0  0  0  0  0  0  0  0  0  0  0  0
    4.8120    0.4048    0.0000 C   0  0  0  0  0  0  0  0  0  0  0  0
    6.0052    1.3137    0.0000 C   0  0  0  0  0  0  0  0  0  0  0  0
    5.8147    2.8016    0.0000 C   0  0  0  0  0  0  0  0  0  0  0  0
    7.0080    3.7105    0.0000 O   0  0  0  0  0  0  0  0  0  0  0  0
    4.4309    3.3805    0.0000 C   0  0  0  0  0  0  0  0  0  0  0  0
    3.2377    2.4716    0.0000 C   0  0  0  0  0  0  0  0  0  0  0  0
    3.4282    0.9837    0.0000 C   0  0  0  0  0  0  0  0  0  0  0  0
    2.0444    1.5626    0.0000 C   0  0  0  0  0  0  0  0  0  0  0  0
    2.2350    0.0748    0.0000 C   0  0  0  0  0  0  0  0  0  0  0  0
    0.8512    0.6537    0.0000 C   0  0  0  0  0  0  0  0  0  0  0  0
   -0.3421   -0.2552    0.0000 C   0  0  0  0  0  0  0  0  0  0  0  0
   -1.7259    0.3237    0.0000 O   0  0  0  0  0  0  0  0  0  0  0  0
   -0.1515   -1.7431    0.0000 C   0  0  0  0  0  0  0  0  0  0  0  0
   -1.5883   -1.3120    0.0000 C   0  0  0  0  0  0  0  0  0  0  0  0
  2  1  1  6
  2  3  1  0
  3  4  1  0
  4  5  1  0
  5  6  2  0
  5  7  1  0
  7  8  1  0
  8  9  2  0
  8 10  1  0
 10 11  1  0
  2 12  1  0
 12 13  1  6
 13 14  1  0
 15 14  1  6
 15 16  1  0
 16 17  1  1
 17 18  1  1
 17 19  1  0
 20 19  1  1
 20 21  1  0
 21 22  1  0
 22 23  1  1
 22 24  1  0
 24 25  1  0
 25 26  1  0
 26 27  1  6
 26 28  1  0
 28 29  1  6
 29 30  1  0
 30 31  1  1
 30 32  1  0
 32 33  1  6
 32 12  1  0
 32 15  1  0
 28 16  1  0
 26 20  1  0
M  END
>  <MS_ID>  (2016) 
MS2091

>  <SMILES>  (2016) 
C[C@H](CCC(=O)OC(=O)CN)[C@H]1CC[C@H]2[C@@H]3[C@H](O)C[C@@H]4C[C@H](O)CC[C@]4(C)[C@H]3C[C@H](O)[C@]12C

>  <Structure_dimension>  (2016) 
2D

$$$$
MS2092
     RDKit          2D

 33 36  0  0  0  0  0  0  0  0999 V2000
   -3.0978   -3.6919    0.0000 C   0  0  0  0  0  0  0  0  0  0  0  0
   -2.2201   -2.4755    0.0000 C   0  0  0  0  0  0  0  0  0  0  0  0
   -2.8347   -1.1072    0.0000 C   0  0  0  0  0  0  0  0  0  0  0  0
   -4.3270   -0.9552    0.0000 C   0  0  0  0  0  0  0  0  0  0  0  0
   -4.9416    0.4131    0.0000 C   0  0  0  0  0  0  0  0  0  0  0  0
   -4.0639    1.6295    0.0000 O   0  0  0  0  0  0  0  0  0  0  0  0
   -6.4339    0.5650    0.0000 N   0  0  0  0  0  0  0  0  0  0  0  0
   -7.0484    1.9333    0.0000 C   0  0  0  0  0  0  0  0  0  0  0  0
   -8.5407    2.0852    0.0000 C   0  0  0  0  0  0  0  0  0  0  0  0
   -9.4184    0.8688    0.0000 O   0  0  0  0  0  0  0  0  0  0  0  0
   -9.1553    3.4535    0.0000 O   0  0  0  0  0  0  0  0  0  0  0  0
   -0.7278   -2.6274    0.0000 C   0  0  0  0  0  0  0  0  0  0  0  0
    0.0264   -3.9240    0.0000 C   0  0  0  0  0  0  0  0  0  0  0  0
    1.4926   -3.6073    0.0000 C   0  0  0  0  0  0  0  0  0  0  0  0
    1.6445   -2.1150    0.0000 C   0  0  0  0  0  0  0  0  0  0  0  0
    2.8552   -1.2294    0.0000 C   0  0  0  0  0  0  0  0  0  0  0  0
    4.2275   -1.8350    0.0000 C   0  0  0  0  0  0  0  0  0  0  0  0
    4.3891   -3.3263    0.0000 O   0  0  0  0  0  0  0  0  0  0  0  0
    5.4381   -0.9494    0.0000 C   0  0  0  0  0  0  0  0  0  0  0  0
    5.2764    0.5419    0.0000 C   0  0  0  0  0  0  0  0  0  0  0  0
    6.4871    1.4275    0.0000 C   0  0  0  0  0  0  0  0  0  0  0  0
    6.3254    2.9188    0.0000 C   0  0  0  0  0  0  0  0  0  0  0  0
    7.5360    3.8044    0.0000 O   0  0  0  0  0  0  0  0  0  0  0  0
    4.9531    3.5244    0.0000 C   0  0  0  0  0  0  0  0  0  0  0  0
    3.7425    2.6388    0.0000 C   0  0  0  0  0  0  0  0  0  0  0  0
    3.9041    1.1475    0.0000 C   0  0  0  0  0  0  0  0  0  0  0  0
    2.5318    1.7531    0.0000 C   0  0  0  0  0  0  0  0  0  0  0  0
    2.6935    0.2619    0.0000 C   0  0  0  0  0  0  0  0  0  0  0  0
    1.3212    0.8675    0.0000 C   0  0  0  0  0  0  0  0  0  0  0  0
    0.1105   -0.0181    0.0000 C   0  0  0  0  0  0  0  0  0  0  0  0
   -1.2618    0.5875    0.0000 O   0  0  0  0  0  0  0  0  0  0  0  0
    0.2722   -1.5094    0.0000 C   0  0  0  0  0  0  0  0  0  0  0  0
   -1.1559   -1.0505    0.0000 C   0  0  0  0  0  0  0  0  0  0  0  0
  2  1  1  6
  2  3  1  0
  3  4  1  0
  4  5  1  0
  5  6  2  0
  5  7  1  0
  7  8  1  0
  8  9  1  0
  9 10  2  0
  9 11  1  0
  2 12  1  0
 12 13  1  6
 13 14  1  0
 15 14  1  6
 15 16  1  0
 16 17  1  1
 17 18  1  1
 17 19  1  0
 20 19  1  1
 20 21  1  0
 21 22  1  0
 22 23  1  1
 22 24  1  0
 24 25  1  0
 25 26  1  0
 26 27  1  6
 26 28  1  0
 28 29  1  1
 29 30  1  0
 30 31  1  1
 30 32  1  0
 32 33  1  6
 32 12  1  0
 32 15  1  0
 28 16  1  0
 26 20  1  0
M  END
>  <MS_ID>  (2017) 
MS2092

>  <SMILES>  (2017) 
C[C@H](CCC(=O)NCC(=O)O)[C@H]1CC[C@H]2[C@@H]3[C@H](O)C[C@@H]4C[C@H](O)CC[C@]4(C)[C@@H]3C[C@H](O)[C@]12C

>  <Structure_dimension>  (2017) 
2D

$$$$
MS2093
     RDKit          2D

 40 44  0  0  0  0  0  0  0  0999 V2000
   -0.9108   -4.8216    0.0000 C   0  0  0  0  0  0  0  0  0  0  0  0
   -0.3447   -3.4325    0.0000 C   0  0  0  0  0  0  0  0  0  0  0  0
   -1.2647   -2.2477    0.0000 C   0  0  0  0  0  0  0  0  0  0  0  0
   -2.7507   -2.4520    0.0000 C   0  0  0  0  0  0  0  0  0  0  0  0
   -3.6706   -1.2672    0.0000 C   0  0  0  0  0  0  0  0  0  0  0  0
   -3.1046    0.1219    0.0000 O   0  0  0  0  0  0  0  0  0  0  0  0
   -5.1567   -1.4715    0.0000 N   0  0  0  0  0  0  0  0  0  0  0  0
   -6.0766   -0.2867    0.0000 C   0  0  0  0  0  0  0  0  0  0  0  0
   -5.5105    1.1023    0.0000 O   0  0  0  0  0  0  0  0  0  0  0  0
   -6.4305    2.2871    0.0000 C   0  0  0  0  0  0  0  0  0  0  0  0
   -5.8644    3.6762    0.0000 C   0  0  0  0  0  0  0  0  0  0  0  0
   -4.3784    3.8805    0.0000 O   0  0  0  0  0  0  0  0  0  0  0  0
   -7.9165    2.0828    0.0000 C   0  0  0  0  0  0  0  0  0  0  0  0
   -8.8364    3.2676    0.0000 O   0  0  0  0  0  0  0  0  0  0  0  0
   -8.4826    0.6937    0.0000 C   0  0  0  0  0  0  0  0  0  0  0  0
   -9.9686    0.4894    0.0000 O   0  0  0  0  0  0  0  0  0  0  0  0
   -7.5626   -0.4910    0.0000 C   0  0  0  0  0  0  0  0  0  0  0  0
   -8.1287   -1.8801    0.0000 O   0  0  0  0  0  0  0  0  0  0  0  0
    1.1413   -3.2282    0.0000 C   0  0  0  0  0  0  0  0  0  0  0  0
    2.1800   -4.3103    0.0000 C   0  0  0  0  0  0  0  0  0  0  0  0
    3.5302   -3.6568    0.0000 C   0  0  0  0  0  0  0  0  0  0  0  0
    3.3259   -2.1708    0.0000 C   0  0  0  0  0  0  0  0  0  0  0  0
    4.2935   -1.0246    0.0000 C   0  0  0  0  0  0  0  0  0  0  0  0
    5.7699   -1.2896    0.0000 C   0  0  0  0  0  0  0  0  0  0  0  0
    6.2787   -2.7006    0.0000 O   0  0  0  0  0  0  0  0  0  0  0  0
    6.7376   -0.1434    0.0000 C   0  0  0  0  0  0  0  0  0  0  0  0
    8.2140   -0.4083    0.0000 O   0  0  0  0  0  0  0  0  0  0  0  0
    6.2288    1.2677    0.0000 C   0  0  0  0  0  0  0  0  0  0  0  0
    7.1964    2.4139    0.0000 C   0  0  0  0  0  0  0  0  0  0  0  0
    6.6876    3.8249    0.0000 C   0  0  0  0  0  0  0  0  0  0  0  0
    7.6552    4.9711    0.0000 O   0  0  0  0  0  0  0  0  0  0  0  0
    5.2112    4.0898    0.0000 C   0  0  0  0  0  0  0  0  0  0  0  0
    4.2435    2.9437    0.0000 C   0  0  0  0  0  0  0  0  0  0  0  0
    4.7523    1.5326    0.0000 C   0  0  0  0  0  0  0  0  0  0  0  0
    3.2759    1.7975    0.0000 C   0  0  0  0  0  0  0  0  0  0  0  0
    3.7847    0.3864    0.0000 C   0  0  0  0  0  0  0  0  0  0  0  0
    2.3083    0.6513    0.0000 C   0  0  0  0  0  0  0  0  0  0  0  0
    1.3407   -0.4948    0.0000 C   0  0  0  0  0  0  0  0  0  0  0  0
    1.8495   -1.9059    0.0000 C   0  0  0  0  0  0  0  0  0  0  0  0
    0.3534   -1.7968    0.0000 C   0  0  0  0  0  0  0  0  0  0  0  0
  2  1  1  6
  2  3  1  0
  3  4  1  0
  4  5  1  0
  5  6  2  0
  5  7  1  0
  8  7  1  6
  8  9  1  0
  9 10  1  0
 10 11  1  1
 11 12  1  0
 10 13  1  0
 13 14  1  6
 13 15  1  0
 15 16  1  1
 15 17  1  0
 17 18  1  6
  2 19  1  0
 19 20  1  6
 20 21  1  0
 22 21  1  6
 22 23  1  0
 23 24  1  1
 24 25  1  1
 24 26  1  0
 26 27  1  1
 26 28  1  0
 28 29  1  1
 29 30  1  0
 30 31  1  1
 30 32  1  0
 32 33  1  0
 33 34  1  0
 34 35  1  6
 34 36  1  0
 36 37  1  6
 37 38  1  0
 38 39  1  0
 39 40  1  6
 17  8  1  0
 39 19  1  0
 39 22  1  0
 36 23  1  0
 34 28  1  0
M  END
>  <MS_ID>  (2018) 
MS2093

>  <SMILES>  (2018) 
C[C@H](CCC(=O)N[C@H]1O[C@H](CO)[C@@H](O)[C@H](O)[C@H]1O)[C@H]1CC[C@H]2[C@@H]3[C@H](O)[C@H](O)[C@@H]4C[C@H](O)CC[C@]4(C)[C@H]3CC[C@]12C

>  <Structure_dimension>  (2018) 
2D

$$$$
MS2094
     RDKit          2D

 34 37  0  0  0  0  0  0  0  0999 V2000
   -3.1030   -4.0296    0.0000 C   0  0  0  0  0  0  0  0  0  0  0  0
   -2.3077   -2.7578    0.0000 C   0  0  0  0  0  0  0  0  0  0  0  0
   -3.0115   -1.4331    0.0000 C   0  0  0  0  0  0  0  0  0  0  0  0
   -4.5106   -1.3803    0.0000 C   0  0  0  0  0  0  0  0  0  0  0  0
   -5.2144   -0.0556    0.0000 C   0  0  0  0  0  0  0  0  0  0  0  0
   -4.4191    1.2162    0.0000 O   0  0  0  0  0  0  0  0  0  0  0  0
   -6.7134   -0.0028    0.0000 C   0  0  0  0  0  0  0  0  0  0  0  0
   -7.4172    1.3218    0.0000 C   0  0  0  0  0  0  0  0  0  0  0  0
   -8.9163    1.3747    0.0000 C   0  0  0  0  0  0  0  0  0  0  0  0
   -6.6219    2.5937    0.0000 C   0  0  0  0  0  0  0  0  0  0  0  0
   -5.1228    2.5408    0.0000 O   0  0  0  0  0  0  0  0  0  0  0  0
   -7.3257    3.9183    0.0000 O   0  0  0  0  0  0  0  0  0  0  0  0
   -0.8087   -2.8106    0.0000 C   0  0  0  0  0  0  0  0  0  0  0  0
    0.0297   -4.0544    0.0000 C   0  0  0  0  0  0  0  0  0  0  0  0
    1.4717   -3.6415    0.0000 C   0  0  0  0  0  0  0  0  0  0  0  0
    1.5246   -2.1424    0.0000 C   0  0  0  0  0  0  0  0  0  0  0  0
    2.6740   -1.1786    0.0000 C   0  0  0  0  0  0  0  0  0  0  0  0
    4.0833   -1.6921    0.0000 C   0  0  0  0  0  0  0  0  0  0  0  0
    4.3433   -3.1694    0.0000 O   0  0  0  0  0  0  0  0  0  0  0  0
    5.2327   -0.7283    0.0000 C   0  0  0  0  0  0  0  0  0  0  0  0
    6.6421   -1.2418    0.0000 O   0  0  0  0  0  0  0  0  0  0  0  0
    4.9727    0.7490    0.0000 C   0  0  0  0  0  0  0  0  0  0  0  0
    6.1221    1.7128    0.0000 C   0  0  0  0  0  0  0  0  0  0  0  0
    5.8621    3.1901    0.0000 C   0  0  0  0  0  0  0  0  0  0  0  0
    7.0115    4.1539    0.0000 O   0  0  0  0  0  0  0  0  0  0  0  0
    4.4527    3.7036    0.0000 C   0  0  0  0  0  0  0  0  0  0  0  0
    3.3034    2.7398    0.0000 C   0  0  0  0  0  0  0  0  0  0  0  0
    3.5634    1.2625    0.0000 C   0  0  0  0  0  0  0  0  0  0  0  0
    2.1540    1.7760    0.0000 C   0  0  0  0  0  0  0  0  0  0  0  0
    2.4140    0.2987    0.0000 C   0  0  0  0  0  0  0  0  0  0  0  0
    1.0046    0.8122    0.0000 C   0  0  0  0  0  0  0  0  0  0  0  0
   -0.1448   -0.1516    0.0000 C   0  0  0  0  0  0  0  0  0  0  0  0
    0.1152   -1.6289    0.0000 C   0  0  0  0  0  0  0  0  0  0  0  0
   -1.3401   -1.2655    0.0000 C   0  0  0  0  0  0  0  0  0  0  0  0
  2  1  1  6
  2  3  1  0
  3  4  1  0
  4  5  1  0
  5  6  2  0
  5  7  1  0
  7  8  1  0
  8  9  1  6
  8 10  1  0
 10 11  2  0
 10 12  1  0
  2 13  1  0
 13 14  1  6
 14 15  1  0
 16 15  1  6
 16 17  1  0
 17 18  1  1
 18 19  1  1
 18 20  1  0
 20 21  1  1
 20 22  1  0
 22 23  1  1
 23 24  1  0
 24 25  1  1
 24 26  1  0
 26 27  1  0
 27 28  1  0
 28 29  1  6
 28 30  1  0
 30 31  1  6
 31 32  1  0
 32 33  1  0
 33 34  1  6
 33 13  1  0
 33 16  1  0
 30 17  1  0
 28 22  1  0
M  END
>  <MS_ID>  (2019) 
MS2094

>  <SMILES>  (2019) 
C[C@H](CCC(=O)C[C@H](C)C(=O)O)[C@H]1CC[C@H]2[C@@H]3[C@H](O)[C@H](O)[C@@H]4C[C@H](O)CC[C@]4(C)[C@H]3CC[C@]12C

>  <Structure_dimension>  (2019) 
2D

$$$$
MS2095
     RDKit          2D

 31 34  0  0  0  0  0  0  0  0999 V2000
   -3.3365   -3.6593    0.0000 C   0  0  0  0  0  0  0  0  0  0  0  0
   -2.4053   -2.4834    0.0000 C   0  0  0  0  0  0  0  0  0  0  0  0
   -2.9582   -1.0889    0.0000 C   0  0  0  0  0  0  0  0  0  0  0  0
   -4.4422   -0.8705    0.0000 C   0  0  0  0  0  0  0  0  0  0  0  0
   -4.9950    0.5239    0.0000 C   0  0  0  0  0  0  0  0  0  0  0  0
   -4.0638    1.6999    0.0000 O   0  0  0  0  0  0  0  0  0  0  0  0
   -6.4790    0.7424    0.0000 O   0  0  0  0  0  0  0  0  0  0  0  0
   -7.0318    2.1368    0.0000 C   0  0  0  0  0  0  0  0  0  0  0  0
   -8.4262    1.5840    0.0000 C   0  0  0  0  0  0  0  0  0  0  0  0
   -5.6374    2.6896    0.0000 C   0  0  0  0  0  0  0  0  0  0  0  0
   -7.5846    3.5312    0.0000 O   0  0  0  0  0  0  0  0  0  0  0  0
   -0.9213   -2.7018    0.0000 C   0  0  0  0  0  0  0  0  0  0  0  0
   -0.2258   -4.0308    0.0000 C   0  0  0  0  0  0  0  0  0  0  0  0
    1.2531   -3.7800    0.0000 C   0  0  0  0  0  0  0  0  0  0  0  0
    1.4715   -2.2960    0.0000 C   0  0  0  0  0  0  0  0  0  0  0  0
    2.7205   -1.4653    0.0000 C   0  0  0  0  0  0  0  0  0  0  0  0
    4.0644   -2.1317    0.0000 C   0  0  0  0  0  0  0  0  0  0  0  0
    5.3134   -1.3010    0.0000 C   0  0  0  0  0  0  0  0  0  0  0  0
    5.2186    0.1960    0.0000 C   0  0  0  0  0  0  0  0  0  0  0  0
    6.4676    1.0266    0.0000 C   0  0  0  0  0  0  0  0  0  0  0  0
    6.3727    2.5236    0.0000 C   0  0  0  0  0  0  0  0  0  0  0  0
    7.6217    3.3543    0.0000 O   0  0  0  0  0  0  0  0  0  0  0  0
    5.0288    3.1900    0.0000 C   0  0  0  0  0  0  0  0  0  0  0  0
    3.7798    2.3593    0.0000 C   0  0  0  0  0  0  0  0  0  0  0  0
    3.8747    0.8623    0.0000 C   0  0  0  0  0  0  0  0  0  0  0  0
    2.5308    1.5287    0.0000 C   0  0  0  0  0  0  0  0  0  0  0  0
    2.6257    0.0317    0.0000 C   0  0  0  0  0  0  0  0  0  0  0  0
    1.2818    0.6980    0.0000 C   0  0  0  0  0  0  0  0  0  0  0  0
    0.0328   -0.1326    0.0000 C   0  0  0  0  0  0  0  0  0  0  0  0
    0.1277   -1.6296    0.0000 C   0  0  0  0  0  0  0  0  0  0  0  0
   -1.2785   -1.1074    0.0000 C   0  0  0  0  0  0  0  0  0  0  0  0
  2  1  1  6
  2  3  1  0
  3  4  1  0
  4  5  1  0
  5  6  2  0
  5  7  1  0
  7  8  1  0
  8  9  1  0
  8 10  1  0
  8 11  1  0
  2 12  1  0
 12 13  1  6
 13 14  1  0
 15 14  1  6
 15 16  1  0
 16 17  1  1
 17 18  1  0
 19 18  1  1
 19 20  1  0
 20 21  1  0
 21 22  1  6
 21 23  1  0
 23 24  1  0
 24 25  1  0
 25 26  1  6
 25 27  1  0
 27 28  1  6
 28 29  1  0
 29 30  1  0
 30 31  1  6
 30 12  1  0
 30 15  1  0
 27 16  1  0
 25 19  1  0
M  END
>  <MS_ID>  (2020) 
MS2095

>  <SMILES>  (2020) 
C[C@H](CCC(=O)OC(C)(C)O)[C@H]1CC[C@H]2[C@@H]3CC[C@@H]4C[C@@H](O)CC[C@]4(C)[C@H]3CC[C@]12C

>  <Structure_dimension>  (2020) 
2D

$$$$
MS2096
     RDKit          2D

 29 32  0  0  0  0  0  0  0  0999 V2000
   -5.0303   -2.1373    0.0000 C   0  0  0  0  0  0  0  0  0  0  0  0
   -3.8594   -1.1998    0.0000 C   0  0  0  0  0  0  0  0  0  0  0  0
   -4.0858    0.2830    0.0000 C   0  0  0  0  0  0  0  0  0  0  0  0
   -5.4831    0.8284    0.0000 C   0  0  0  0  0  0  0  0  0  0  0  0
   -5.7095    2.3112    0.0000 C   0  0  0  0  0  0  0  0  0  0  0  0
   -4.5386    3.2487    0.0000 O   0  0  0  0  0  0  0  0  0  0  0  0
   -7.1069    2.8565    0.0000 O   0  0  0  0  0  0  0  0  0  0  0  0
   -2.4620   -1.7451    0.0000 C   0  0  0  0  0  0  0  0  0  0  0  0
   -2.0818   -3.1961    0.0000 C   0  0  0  0  0  0  0  0  0  0  0  0
   -0.5844   -3.2830    0.0000 C   0  0  0  0  0  0  0  0  0  0  0  0
   -0.0390   -1.8856    0.0000 C   0  0  0  0  0  0  0  0  0  0  0  0
    1.3643   -1.3559    0.0000 C   0  0  0  0  0  0  0  0  0  0  0  0
    2.5248   -2.3063    0.0000 C   0  0  0  0  0  0  0  0  0  0  0  0
    2.2819   -3.7865    0.0000 O   0  0  0  0  0  0  0  0  0  0  0  0
    3.9281   -1.7765    0.0000 C   0  0  0  0  0  0  0  0  0  0  0  0
    4.1710   -0.2963    0.0000 C   0  0  0  0  0  0  0  0  0  0  0  0
    5.5743    0.2334    0.0000 C   0  0  0  0  0  0  0  0  0  0  0  0
    5.8172    1.7136    0.0000 C   0  0  0  0  0  0  0  0  0  0  0  0
    7.2205    2.2434    0.0000 S   0  0  0  0  0  0  0  0  0  0  0  0
    4.6568    2.6641    0.0000 C   0  0  0  0  0  0  0  0  0  0  0  0
    3.2534    2.1343    0.0000 C   0  0  0  0  0  0  0  0  0  0  0  0
    3.0105    0.6541    0.0000 C   0  0  0  0  0  0  0  0  0  0  0  0
    1.8501    1.6046    0.0000 C   0  0  0  0  0  0  0  0  0  0  0  0
    1.6072    0.1244    0.0000 C   0  0  0  0  0  0  0  0  0  0  0  0
    0.4467    1.0748    0.0000 C   0  0  0  0  0  0  0  0  0  0  0  0
   -0.9566    0.5450    0.0000 C   0  0  0  0  0  0  0  0  0  0  0  0
   -2.1170    1.4955    0.0000 O   0  0  0  0  0  0  0  0  0  0  0  0
   -1.1995   -0.9352    0.0000 C   0  0  0  0  0  0  0  0  0  0  0  0
   -2.4529   -0.1112    0.0000 C   0  0  0  0  0  0  0  0  0  0  0  0
  2  1  1  6
  2  3  1  0
  3  4  1  0
  4  5  1  0
  5  6  2  0
  5  7  1  0
  2  8  1  0
  8  9  1  6
  9 10  1  0
 11 10  1  6
 11 12  1  0
 12 13  1  1
 13 14  1  6
 13 15  1  0
 16 15  1  1
 16 17  1  0
 17 18  1  0
 18 19  1  1
 18 20  1  0
 20 21  1  0
 21 22  1  0
 22 23  1  6
 22 24  1  0
 24 25  1  6
 25 26  1  0
 26 27  2  0
 26 28  1  0
 28 29  1  6
 28  8  1  0
 28 11  1  0
 24 12  1  0
 22 16  1  0
M  END
>  <MS_ID>  (2021) 
MS2096

>  <SMILES>  (2021) 
C[C@H](CCC(=O)O)[C@H]1CC[C@H]2[C@@H]3[C@@H](O)C[C@@H]4C[C@H](S)CC[C@]4(C)[C@H]3CC(=O)[C@]12C

>  <Structure_dimension>  (2021) 
2D

$$$$
MS2097
     RDKit          2D

 34 38  0  0  0  0  0  0  0  0999 V2000
   -3.2858   -3.3478    0.0000 C   0  0  0  0  0  0  0  0  0  0  0  0
   -2.3538   -2.1725    0.0000 C   0  0  0  0  0  0  0  0  0  0  0  0
   -2.9057   -0.7777    0.0000 C   0  0  0  0  0  0  0  0  0  0  0  0
   -4.3895   -0.5582    0.0000 C   0  0  0  0  0  0  0  0  0  0  0  0
   -4.9414    0.8366    0.0000 C   0  0  0  0  0  0  0  0  0  0  0  0
   -4.0094    2.0119    0.0000 O   0  0  0  0  0  0  0  0  0  0  0  0
   -6.4253    1.0561    0.0000 N   0  0  0  0  0  0  0  0  0  0  0  0
   -6.9771    2.4509    0.0000 C   0  0  0  0  0  0  0  0  0  0  0  0
   -8.4610    2.6704    0.0000 C   0  0  0  0  0  0  0  0  0  0  0  0
   -9.3930    1.4950    0.0000 C   0  0  0  0  0  0  0  0  0  0  0  0
   -8.8411    0.1002    0.0000 C   0  0  0  0  0  0  0  0  0  0  0  0
   -7.3573   -0.1192    0.0000 C   0  0  0  0  0  0  0  0  0  0  0  0
   -0.8700   -2.3919    0.0000 C   0  0  0  0  0  0  0  0  0  0  0  0
   -0.1754   -3.7214    0.0000 C   0  0  0  0  0  0  0  0  0  0  0  0
    1.3037   -3.4716    0.0000 C   0  0  0  0  0  0  0  0  0  0  0  0
    1.5232   -1.9878    0.0000 C   0  0  0  0  0  0  0  0  0  0  0  0
    2.7728   -1.1580    0.0000 C   0  0  0  0  0  0  0  0  0  0  0  0
    4.1162   -1.8252    0.0000 C   0  0  0  0  0  0  0  0  0  0  0  0
    4.2100   -3.3223    0.0000 O   0  0  0  0  0  0  0  0  0  0  0  0
    5.3657   -0.9955    0.0000 C   0  0  0  0  0  0  0  0  0  0  0  0
    6.7092   -1.6627    0.0000 O   0  0  0  0  0  0  0  0  0  0  0  0
    5.2719    0.5016    0.0000 C   0  0  0  0  0  0  0  0  0  0  0  0
    6.5215    1.3314    0.0000 C   0  0  0  0  0  0  0  0  0  0  0  0
    6.4277    2.8285    0.0000 C   0  0  0  0  0  0  0  0  0  0  0  0
    7.6772    3.6583    0.0000 O   0  0  0  0  0  0  0  0  0  0  0  0
    5.0843    3.4957    0.0000 C   0  0  0  0  0  0  0  0  0  0  0  0
    3.8347    2.6659    0.0000 C   0  0  0  0  0  0  0  0  0  0  0  0
    3.9285    1.1689    0.0000 C   0  0  0  0  0  0  0  0  0  0  0  0
    2.5851    1.8362    0.0000 C   0  0  0  0  0  0  0  0  0  0  0  0
    2.6789    0.3391    0.0000 C   0  0  0  0  0  0  0  0  0  0  0  0
    1.3355    1.0064    0.0000 C   0  0  0  0  0  0  0  0  0  0  0  0
    0.0859    0.1766    0.0000 C   0  0  0  0  0  0  0  0  0  0  0  0
    0.1798   -1.3205    0.0000 C   0  0  0  0  0  0  0  0  0  0  0  0
   -1.2260   -0.7973    0.0000 C   0  0  0  0  0  0  0  0  0  0  0  0
  2  1  1  6
  2  3  1  0
  3  4  1  0
  4  5  1  0
  5  6  2  0
  5  7  1  0
  7  8  1  0
  8  9  1  0
  9 10  1  0
 10 11  1  0
 11 12  1  0
  2 13  1  0
 13 14  1  6
 14 15  1  0
 16 15  1  6
 16 17  1  0
 17 18  1  1
 18 19  1  1
 18 20  1  0
 20 21  1  1
 20 22  1  0
 22 23  1  1
 23 24  1  0
 24 25  1  1
 24 26  1  0
 26 27  1  0
 27 28  1  0
 28 29  1  6
 28 30  1  0
 30 31  1  6
 31 32  1  0
 32 33  1  0
 33 34  1  6
 12  7  1  0
 33 13  1  0
 33 16  1  0
 30 17  1  0
 28 22  1  0
M  END
>  <MS_ID>  (2022) 
MS2097

>  <SMILES>  (2022) 
C[C@H](CCC(=O)N1CCCCC1)[C@H]1CC[C@H]2[C@@H]3[C@H](O)[C@H](O)[C@@H]4C[C@H](O)CC[C@]4(C)[C@H]3CC[C@]12C

>  <Structure_dimension>  (2022) 
2D

$$$$
MS2098
     RDKit          2D

 37 40  0  0  0  0  0  0  0  0999 V2000
   -1.0033   -4.5187    0.0000 C   0  0  0  0  0  0  0  0  0  0  0  0
   -0.3845   -3.1522    0.0000 C   0  0  0  0  0  0  0  0  0  0  0  0
   -1.2585   -1.9332    0.0000 C   0  0  0  0  0  0  0  0  0  0  0  0
   -2.7512   -2.0805    0.0000 C   0  0  0  0  0  0  0  0  0  0  0  0
   -3.6252   -0.8614    0.0000 C   0  0  0  0  0  0  0  0  0  0  0  0
   -3.0064    0.5050    0.0000 O   0  0  0  0  0  0  0  0  0  0  0  0
   -5.1179   -1.0088    0.0000 C   0  0  0  0  0  0  0  0  0  0  0  0
   -5.9919    0.2103    0.0000 C   0  0  0  0  0  0  0  0  0  0  0  0
   -7.4846    0.0630    0.0000 C   0  0  0  0  0  0  0  0  0  0  0  0
   -8.1034   -1.3035    0.0000 O   0  0  0  0  0  0  0  0  0  0  0  0
   -8.3586    1.2821    0.0000 C   0  0  0  0  0  0  0  0  0  0  0  0
   -9.8514    1.1347    0.0000 C   0  0  0  0  0  0  0  0  0  0  0  0
  -10.7253    2.3538    0.0000 C   0  0  0  0  0  0  0  0  0  0  0  0
  -10.1066    3.7202    0.0000 O   0  0  0  0  0  0  0  0  0  0  0  0
  -12.2181    2.2065    0.0000 O   0  0  0  0  0  0  0  0  0  0  0  0
    1.1083   -3.0049    0.0000 C   0  0  0  0  0  0  0  0  0  0  0  0
    2.1049   -4.1260    0.0000 C   0  0  0  0  0  0  0  0  0  0  0  0
    3.4790   -3.5245    0.0000 C   0  0  0  0  0  0  0  0  0  0  0  0
    3.3317   -2.0318    0.0000 C   0  0  0  0  0  0  0  0  0  0  0  0
    4.3424   -0.9235    0.0000 C   0  0  0  0  0  0  0  0  0  0  0  0
    5.8076   -1.2446    0.0000 C   0  0  0  0  0  0  0  0  0  0  0  0
    6.2621   -2.6741    0.0000 O   0  0  0  0  0  0  0  0  0  0  0  0
    6.8184   -0.1363    0.0000 C   0  0  0  0  0  0  0  0  0  0  0  0
    6.3639    1.2932    0.0000 C   0  0  0  0  0  0  0  0  0  0  0  0
    7.3746    2.4016    0.0000 C   0  0  0  0  0  0  0  0  0  0  0  0
    6.9201    3.8311    0.0000 C   0  0  0  0  0  0  0  0  0  0  0  0
    7.9309    4.9394    0.0000 O   0  0  0  0  0  0  0  0  0  0  0  0
    5.4549    4.1522    0.0000 C   0  0  0  0  0  0  0  0  0  0  0  0
    4.4442    3.0439    0.0000 C   0  0  0  0  0  0  0  0  0  0  0  0
    4.8987    1.6144    0.0000 C   0  0  0  0  0  0  0  0  0  0  0  0
    3.4335    1.9355    0.0000 C   0  0  0  0  0  0  0  0  0  0  0  0
    3.8879    0.5060    0.0000 C   0  0  0  0  0  0  0  0  0  0  0  0
    2.4227    0.8272    0.0000 C   0  0  0  0  0  0  0  0  0  0  0  0
    1.4120   -0.2811    0.0000 C   0  0  0  0  0  0  0  0  0  0  0  0
   -0.0532    0.0400    0.0000 O   0  0  0  0  0  0  0  0  0  0  0  0
    1.8665   -1.7106    0.0000 C   0  0  0  0  0  0  0  0  0  0  0  0
    0.3757   -1.5444    0.0000 C   0  0  0  0  0  0  0  0  0  0  0  0
  2  1  1  6
  2  3  1  0
  3  4  1  0
  4  5  1  0
  5  6  2  0
  5  7  1  0
  7  8  1  0
  8  9  1  0
  9 10  2  0
  9 11  1  0
 11 12  1  0
 12 13  1  0
 13 14  2  0
 13 15  1  0
  2 16  1  0
 16 17  1  6
 17 18  1  0
 19 18  1  6
 19 20  1  0
 20 21  1  1
 21 22  1  1
 21 23  1  0
 24 23  1  1
 24 25  1  0
 25 26  1  0
 26 27  1  1
 26 28  1  0
 28 29  1  0
 29 30  1  0
 30 31  1  6
 30 32  1  0
 32 33  1  6
 33 34  1  0
 34 35  1  1
 34 36  1  0
 36 37  1  6
 36 16  1  0
 36 19  1  0
 32 20  1  0
 30 24  1  0
M  END
>  <MS_ID>  (2023) 
MS2098

>  <SMILES>  (2023) 
C[C@H](CCC(=O)CCC(=O)CCC(=O)O)[C@H]1CC[C@H]2[C@@H]3[C@H](O)C[C@@H]4C[C@H](O)CC[C@]4(C)[C@H]3C[C@H](O)[C@]12C

>  <Structure_dimension>  (2023) 
2D

$$$$
MS2099
     RDKit          2D

 30 33  0  0  0  0  0  0  0  0999 V2000
   -7.4279    3.5601    0.0000 C   0  0  0  0  0  0  0  0  0  0  0  0
   -7.0729    2.1027    0.0000 O   0  0  0  0  0  0  0  0  0  0  0  0
   -5.6333    1.6814    0.0000 C   0  0  0  0  0  0  0  0  0  0  0  0
   -4.5486    2.7174    0.0000 O   0  0  0  0  0  0  0  0  0  0  0  0
   -5.2784    0.2240    0.0000 C   0  0  0  0  0  0  0  0  0  0  0  0
   -3.8388   -0.1974    0.0000 C   0  0  0  0  0  0  0  0  0  0  0  0
   -3.4838   -1.6548    0.0000 C   0  0  0  0  0  0  0  0  0  0  0  0
   -4.5685   -2.6908    0.0000 C   0  0  0  0  0  0  0  0  0  0  0  0
   -2.0442   -2.0761    0.0000 C   0  0  0  0  0  0  0  0  0  0  0  0
   -1.5389   -3.4884    0.0000 C   0  0  0  0  0  0  0  0  0  0  0  0
   -0.0395   -3.4442    0.0000 C   0  0  0  0  0  0  0  0  0  0  0  0
    0.3818   -2.0046    0.0000 C   0  0  0  0  0  0  0  0  0  0  0  0
    1.7336   -1.3544    0.0000 C   0  0  0  0  0  0  0  0  0  0  0  0
    2.9725   -2.1999    0.0000 C   0  0  0  0  0  0  0  0  0  0  0  0
    2.8597   -3.6957    0.0000 O   0  0  0  0  0  0  0  0  0  0  0  0
    4.3243   -1.5497    0.0000 C   0  0  0  0  0  0  0  0  0  0  0  0
    4.4371   -0.0540    0.0000 C   0  0  0  0  0  0  0  0  0  0  0  0
    5.7888    0.5962    0.0000 C   0  0  0  0  0  0  0  0  0  0  0  0
    5.9016    2.0920    0.0000 C   0  0  0  0  0  0  0  0  0  0  0  0
    7.2534    2.7422    0.0000 C   0  0  0  0  0  0  0  0  0  0  0  0
    4.6627    2.9375    0.0000 C   0  0  0  0  0  0  0  0  0  0  0  0
    3.3109    2.2873    0.0000 C   0  0  0  0  0  0  0  0  0  0  0  0
    3.1981    0.7916    0.0000 C   0  0  0  0  0  0  0  0  0  0  0  0
    1.9591    1.6371    0.0000 C   0  0  0  0  0  0  0  0  0  0  0  0
    1.8464    0.1414    0.0000 C   0  0  0  0  0  0  0  0  0  0  0  0
    0.6074    0.9869    0.0000 C   0  0  0  0  0  0  0  0  0  0  0  0
   -0.7444    0.3367    0.0000 C   0  0  0  0  0  0  0  0  0  0  0  0
   -1.9833    1.1823    0.0000 O   0  0  0  0  0  0  0  0  0  0  0  0
   -0.8572   -1.1590    0.0000 C   0  0  0  0  0  0  0  0  0  0  0  0
   -2.1777   -0.4476    0.0000 C   0  0  0  0  0  0  0  0  0  0  0  0
  1  2  1  0
  2  3  1  0
  3  4  2  0
  3  5  1  0
  5  6  1  0
  6  7  1  0
  7  8  1  6
  7  9  1  0
  9 10  1  6
 10 11  1  0
 12 11  1  6
 12 13  1  0
 13 14  1  1
 14 15  1  1
 14 16  1  0
 17 16  1  1
 17 18  1  0
 18 19  1  0
 19 20  1  1
 19 21  1  0
 21 22  1  0
 22 23  1  0
 23 24  1  6
 23 25  1  0
 25 26  1  6
 26 27  1  0
 27 28  1  1
 27 29  1  0
 29 30  1  6
 29  9  1  0
 29 12  1  0
 25 13  1  0
 23 17  1  0
M  END
>  <MS_ID>  (2024) 
MS2099

>  <SMILES>  (2024) 
COC(=O)CC[C@@H](C)[C@H]1CC[C@H]2[C@@H]3[C@H](O)C[C@@H]4C[C@H](C)CC[C@]4(C)[C@H]3C[C@H](O)[C@]12C

>  <Structure_dimension>  (2024) 
2D

$$$$
MS2100
     RDKit          2D

 30 33  0  0  0  0  0  0  0  0999 V2000
   -5.1126   -2.2702    0.0000 C   0  0  0  0  0  0  0  0  0  0  0  0
   -4.0463   -1.2153    0.0000 C   0  0  0  0  0  0  0  0  0  0  0  0
   -4.4268    0.2357    0.0000 C   0  0  0  0  0  0  0  0  0  0  0  0
   -5.8736    0.6316    0.0000 C   0  0  0  0  0  0  0  0  0  0  0  0
   -6.2540    2.0826    0.0000 C   0  0  0  0  0  0  0  0  0  0  0  0
   -5.1877    3.1376    0.0000 O   0  0  0  0  0  0  0  0  0  0  0  0
   -7.7008    2.4786    0.0000 O   0  0  0  0  0  0  0  0  0  0  0  0
   -2.5995   -1.6113    0.0000 C   0  0  0  0  0  0  0  0  0  0  0  0
   -2.0695   -3.0145    0.0000 C   0  0  0  0  0  0  0  0  0  0  0  0
   -0.5711   -2.9440    0.0000 C   0  0  0  0  0  0  0  0  0  0  0  0
   -0.1751   -1.4972    0.0000 C   0  0  0  0  0  0  0  0  0  0  0  0
    1.1650   -0.8234    0.0000 C   0  0  0  0  0  0  0  0  0  0  0  0
    2.4186   -1.6471    0.0000 C   0  0  0  0  0  0  0  0  0  0  0  0
    2.3321   -3.1446    0.0000 C   0  0  0  0  0  0  0  0  0  0  0  0
    3.5857   -3.9682    0.0000 C   0  0  0  0  0  0  0  0  0  0  0  0
    3.4992   -5.4657    0.0000 O   0  0  0  0  0  0  0  0  0  0  0  0
    3.7587   -0.9732    0.0000 C   0  0  0  0  0  0  0  0  0  0  0  0
    3.8453    0.5243    0.0000 C   0  0  0  0  0  0  0  0  0  0  0  0
    5.1854    1.1981    0.0000 C   0  0  0  0  0  0  0  0  0  0  0  0
    5.2719    2.6956    0.0000 C   0  0  0  0  0  0  0  0  0  0  0  0
    6.6121    3.3694    0.0000 O   0  0  0  0  0  0  0  0  0  0  0  0
    4.0183    3.5193    0.0000 C   0  0  0  0  0  0  0  0  0  0  0  0
    2.6782    2.8454    0.0000 C   0  0  0  0  0  0  0  0  0  0  0  0
    2.5917    1.3479    0.0000 C   0  0  0  0  0  0  0  0  0  0  0  0
    1.3380    2.1716    0.0000 C   0  0  0  0  0  0  0  0  0  0  0  0
    1.2515    0.6741    0.0000 C   0  0  0  0  0  0  0  0  0  0  0  0
   -0.0021    1.4978    0.0000 C   0  0  0  0  0  0  0  0  0  0  0  0
   -1.3422    0.8240    0.0000 C   0  0  0  0  0  0  0  0  0  0  0  0
   -1.4288   -0.6735    0.0000 C   0  0  0  0  0  0  0  0  0  0  0  0
   -2.7616    0.0146    0.0000 C   0  0  0  0  0  0  0  0  0  0  0  0
  2  1  1  6
  2  3  1  0
  3  4  1  0
  4  5  1  0
  5  6  2  0
  5  7  1  0
  2  8  1  0
  8  9  1  6
  9 10  1  0
 11 10  1  6
 11 12  1  0
 12 13  1  1
 13 14  1  1
 14 15  2  0
 15 16  1  0
 13 17  1  0
 18 17  1  1
 18 19  1  0
 19 20  1  0
 20 21  1  1
 20 22  1  0
 22 23  1  0
 23 24  1  0
 24 25  1  6
 24 26  1  0
 26 27  1  6
 27 28  1  0
 28 29  1  0
 29 30  1  6
 29  8  1  0
 29 11  1  0
 26 12  1  0
 24 18  1  0
M  END
>  <MS_ID>  (2025) 
MS2100

>  <SMILES>  (2025) 
C[C@H](CCC(=O)O)[C@H]1CC[C@H]2[C@@H]3[C@H](/C=C/O)C[C@@H]4C[C@H](O)CC[C@]4(C)[C@H]3CC[C@]12C

>  <Structure_dimension>  (2025) 
2D

$$$$
MS2101
     RDKit          2D

 33 36  0  0  0  0  0  0  0  0999 V2000
   -3.0656   -3.9102    0.0000 C   0  0  0  0  0  0  0  0  0  0  0  0
   -2.2660   -2.6411    0.0000 C   0  0  0  0  0  0  0  0  0  0  0  0
   -2.9654   -1.3141    0.0000 C   0  0  0  0  0  0  0  0  0  0  0  0
   -4.4642   -1.2562    0.0000 C   0  0  0  0  0  0  0  0  0  0  0  0
   -5.1636    0.0708    0.0000 C   0  0  0  0  0  0  0  0  0  0  0  0
   -4.3640    1.3399    0.0000 O   0  0  0  0  0  0  0  0  0  0  0  0
   -6.6625    0.1286    0.0000 C   0  0  0  0  0  0  0  0  0  0  0  0
   -7.3618    1.4556    0.0000 C   0  0  0  0  0  0  0  0  0  0  0  0
   -8.8607    1.5135    0.0000 C   0  0  0  0  0  0  0  0  0  0  0  0
   -9.5600    2.8405    0.0000 C   0  0  0  0  0  0  0  0  0  0  0  0
  -11.0589    2.8983    0.0000 O   0  0  0  0  0  0  0  0  0  0  0  0
   -0.7671   -2.6989    0.0000 C   0  0  0  0  0  0  0  0  0  0  0  0
    0.0671   -3.9456    0.0000 C   0  0  0  0  0  0  0  0  0  0  0  0
    1.5105   -3.5374    0.0000 C   0  0  0  0  0  0  0  0  0  0  0  0
    1.5683   -2.0385    0.0000 C   0  0  0  0  0  0  0  0  0  0  0  0
    2.7209   -1.0786    0.0000 C   0  0  0  0  0  0  0  0  0  0  0  0
    4.1286   -1.5968    0.0000 C   0  0  0  0  0  0  0  0  0  0  0  0
    4.3836   -3.0749    0.0000 O   0  0  0  0  0  0  0  0  0  0  0  0
    5.2812   -0.6368    0.0000 C   0  0  0  0  0  0  0  0  0  0  0  0
    6.6888   -1.1550    0.0000 O   0  0  0  0  0  0  0  0  0  0  0  0
    5.0261    0.8413    0.0000 C   0  0  0  0  0  0  0  0  0  0  0  0
    6.1787    1.8013    0.0000 C   0  0  0  0  0  0  0  0  0  0  0  0
    5.9237    3.2795    0.0000 C   0  0  0  0  0  0  0  0  0  0  0  0
    7.0763    4.2394    0.0000 O   0  0  0  0  0  0  0  0  0  0  0  0
    4.5160    3.7977    0.0000 C   0  0  0  0  0  0  0  0  0  0  0  0
    3.3634    2.8377    0.0000 C   0  0  0  0  0  0  0  0  0  0  0  0
    3.6185    1.3595    0.0000 C   0  0  0  0  0  0  0  0  0  0  0  0
    2.2108    1.8777    0.0000 C   0  0  0  0  0  0  0  0  0  0  0  0
    2.4659    0.3996    0.0000 C   0  0  0  0  0  0  0  0  0  0  0  0
    1.0582    0.9178    0.0000 C   0  0  0  0  0  0  0  0  0  0  0  0
   -0.0944   -0.0422    0.0000 C   0  0  0  0  0  0  0  0  0  0  0  0
    0.1607   -1.5203    0.0000 C   0  0  0  0  0  0  0  0  0  0  0  0
   -1.2934   -1.1521    0.0000 C   0  0  0  0  0  0  0  0  0  0  0  0
  2  1  1  6
  2  3  1  0
  3  4  1  0
  4  5  1  0
  5  6  2  0
  5  7  1  0
  7  8  1  0
  8  9  1  0
  9 10  1  0
 10 11  1  0
  2 12  1  0
 12 13  1  6
 13 14  1  0
 15 14  1  6
 15 16  1  0
 16 17  1  1
 17 18  1  1
 17 19  1  0
 19 20  1  1
 19 21  1  0
 21 22  1  1
 22 23  1  0
 23 24  1  1
 23 25  1  0
 25 26  1  0
 26 27  1  0
 27 28  1  6
 27 29  1  0
 29 30  1  6
 30 31  1  0
 31 32  1  0
 32 33  1  6
 32 12  1  0
 32 15  1  0
 29 16  1  0
 27 21  1  0
M  END
>  <MS_ID>  (2026) 
MS2101

>  <SMILES>  (2026) 
C[C@H](CCC(=O)CCCCO)[C@H]1CC[C@H]2[C@@H]3[C@H](O)[C@H](O)[C@@H]4C[C@H](O)CC[C@]4(C)[C@H]3CC[C@]12C

>  <Structure_dimension>  (2026) 
2D

$$$$
MS2102
     RDKit          2D

 39 43  0  0  0  0  0  0  0  0999 V2000
   -5.2117   -3.8462    0.0000 C   0  0  0  0  0  0  0  0  0  0  0  0
   -4.7410   -2.4219    0.0000 C   0  0  0  0  0  0  0  0  0  0  0  0
   -5.7391   -1.3022    0.0000 C   0  0  0  0  0  0  0  0  0  0  0  0
   -7.2078   -1.6067    0.0000 C   0  0  0  0  0  0  0  0  0  0  0  0
   -8.2059   -0.4869    0.0000 C   0  0  0  0  0  0  0  0  0  0  0  0
   -7.7352    0.9373    0.0000 O   0  0  0  0  0  0  0  0  0  0  0  0
   -9.6747   -0.7914    0.0000 O   0  0  0  0  0  0  0  0  0  0  0  0
   -3.2722   -2.1174    0.0000 C   0  0  0  0  0  0  0  0  0  0  0  0
   -2.1626   -3.1267    0.0000 C   0  0  0  0  0  0  0  0  0  0  0  0
   -0.8598   -2.3833    0.0000 C   0  0  0  0  0  0  0  0  0  0  0  0
   -1.1643   -0.9145    0.0000 C   0  0  0  0  0  0  0  0  0  0  0  0
   -0.2765    0.2946    0.0000 C   0  0  0  0  0  0  0  0  0  0  0  0
    1.2145    0.1303    0.0000 C   0  0  0  0  0  0  0  0  0  0  0  0
    1.8177   -1.2431    0.0000 O   0  0  0  0  0  0  0  0  0  0  0  0
    3.3087   -1.4073    0.0000 C   0  0  0  0  0  0  0  0  0  0  0  0
    3.9119   -2.7807    0.0000 O   0  0  0  0  0  0  0  0  0  0  0  0
    5.4029   -2.9450    0.0000 C   0  0  0  0  0  0  0  0  0  0  0  0
    6.0061   -4.3184    0.0000 C   0  0  0  0  0  0  0  0  0  0  0  0
    5.1183   -5.5274    0.0000 O   0  0  0  0  0  0  0  0  0  0  0  0
    6.2906   -1.7359    0.0000 C   0  0  0  0  0  0  0  0  0  0  0  0
    7.7816   -1.9002    0.0000 O   0  0  0  0  0  0  0  0  0  0  0  0
    5.6874   -0.3625    0.0000 C   0  0  0  0  0  0  0  0  0  0  0  0
    6.5752    0.8465    0.0000 O   0  0  0  0  0  0  0  0  0  0  0  0
    4.1964   -0.1983    0.0000 C   0  0  0  0  0  0  0  0  0  0  0  0
    3.5932    1.1751    0.0000 O   0  0  0  0  0  0  0  0  0  0  0  0
    2.1022    1.3394    0.0000 C   0  0  0  0  0  0  0  0  0  0  0  0
    1.4990    2.7128    0.0000 C   0  0  0  0  0  0  0  0  0  0  0  0
    2.3868    3.9218    0.0000 C   0  0  0  0  0  0  0  0  0  0  0  0
    1.7836    5.2952    0.0000 C   0  0  0  0  0  0  0  0  0  0  0  0
    2.6713    6.5043    0.0000 O   0  0  0  0  0  0  0  0  0  0  0  0
    0.2926    5.4595    0.0000 C   0  0  0  0  0  0  0  0  0  0  0  0
   -0.5952    4.2504    0.0000 C   0  0  0  0  0  0  0  0  0  0  0  0
    0.0081    2.8770    0.0000 C   0  0  0  0  0  0  0  0  0  0  0  0
   -1.4829    3.0413    0.0000 C   0  0  0  0  0  0  0  0  0  0  0  0
   -0.8797    1.6680    0.0000 C   0  0  0  0  0  0  0  0  0  0  0  0
   -2.3707    1.8322    0.0000 C   0  0  0  0  0  0  0  0  0  0  0  0
   -3.2584    0.6232    0.0000 C   0  0  0  0  0  0  0  0  0  0  0  0
   -2.6552   -0.7502    0.0000 C   0  0  0  0  0  0  0  0  0  0  0  0
   -4.1552   -0.7427    0.0000 C   0  0  0  0  0  0  0  0  0  0  0  0
  2  1  1  6
  2  3  1  0
  3  4  1  0
  4  5  1  0
  5  6  2  0
  5  7  1  0
  2  8  1  0
  8  9  1  6
  9 10  1  0
 11 10  1  6
 11 12  1  0
 12 13  1  1
 13 14  1  6
 15 14  1  1
 15 16  1  0
 16 17  1  0
 17 18  1  1
 18 19  1  0
 17 20  1  0
 20 21  1  6
 20 22  1  0
 22 23  1  1
 22 24  1  0
 24 25  1  6
 13 26  1  0
 27 26  1  1
 27 28  1  0
 28 29  1  0
 29 30  1  1
 29 31  1  0
 31 32  1  0
 32 33  1  0
 33 34  1  6
 33 35  1  0
 35 36  1  6
 36 37  1  0
 37 38  1  0
 38 39  1  6
 38  8  1  0
 38 11  1  0
 35 12  1  0
 24 15  1  0
 33 27  1  0
M  END
>  <MS_ID>  (2027) 
MS2102

>  <SMILES>  (2027) 
C[C@H](CCC(=O)O)[C@H]1CC[C@H]2[C@@H]3[C@@H](O[C@@H]4O[C@H](CO)[C@@H](O)[C@H](O)[C@H]4O)C[C@@H]4C[C@H](O)CC[C@]4(C)[C@H]3CC[C@]12C

>  <Structure_dimension>  (2027) 
2D

$$$$
MS2103
     RDKit          2D

 34 37  0  0  0  0  0  0  0  0999 V2000
   -4.1628   -3.3031    0.0000 C   0  0  0  0  0  0  0  0  0  0  0  0
   -3.1416   -2.2044    0.0000 C   0  0  0  0  0  0  0  0  0  0  0  0
   -3.5825   -0.7706    0.0000 C   0  0  0  0  0  0  0  0  0  0  0  0
   -5.0447   -0.4356    0.0000 C   0  0  0  0  0  0  0  0  0  0  0  0
   -5.4856    0.9981    0.0000 C   0  0  0  0  0  0  0  0  0  0  0  0
   -4.4644    2.0968    0.0000 O   0  0  0  0  0  0  0  0  0  0  0  0
   -6.9477    1.3331    0.0000 N   0  0  0  0  0  0  0  0  0  0  0  0
   -7.3886    2.7669    0.0000 O   0  0  0  0  0  0  0  0  0  0  0  0
   -1.6795   -2.5394    0.0000 C   0  0  0  0  0  0  0  0  0  0  0  0
   -1.0912   -3.9192    0.0000 C   0  0  0  0  0  0  0  0  0  0  0  0
    0.4029   -3.7860    0.0000 C   0  0  0  0  0  0  0  0  0  0  0  0
    0.7379   -2.3239    0.0000 C   0  0  0  0  0  0  0  0  0  0  0  0
    2.0487   -1.5945    0.0000 C   0  0  0  0  0  0  0  0  0  0  0  0
    3.3357   -2.3650    0.0000 C   0  0  0  0  0  0  0  0  0  0  0  0
    3.3120   -3.8648    0.0000 O   0  0  0  0  0  0  0  0  0  0  0  0
    4.6464   -1.6356    0.0000 C   0  0  0  0  0  0  0  0  0  0  0  0
    4.6701   -0.1358    0.0000 C   0  0  0  0  0  0  0  0  0  0  0  0
    5.9809    0.5936    0.0000 C   0  0  0  0  0  0  0  0  0  0  0  0
    6.0046    2.0934    0.0000 C   0  0  0  0  0  0  0  0  0  0  0  0
    7.3153    2.8228    0.0000 O   0  0  0  0  0  0  0  0  0  0  0  0
    4.7176    2.8638    0.0000 C   0  0  0  0  0  0  0  0  0  0  0  0
    3.4068    2.1345    0.0000 C   0  0  0  0  0  0  0  0  0  0  0  0
    3.3831    0.6347    0.0000 C   0  0  0  0  0  0  0  0  0  0  0  0
    2.0961    1.4051    0.0000 C   0  0  0  0  0  0  0  0  0  0  0  0
    2.0724   -0.0947    0.0000 C   0  0  0  0  0  0  0  0  0  0  0  0
    0.7854    0.6757    0.0000 C   0  0  0  0  0  0  0  0  0  0  0  0
   -0.5254   -0.0536    0.0000 C   0  0  0  0  0  0  0  0  0  0  0  0
   -1.8124    0.7168    0.0000 O   0  0  0  0  0  0  0  0  0  0  0  0
   -1.7887    2.2166    0.0000 S   0  0  0  0  0  0  0  0  0  0  0  0
   -0.2889    2.1929    0.0000 O   0  0  0  0  0  0  0  0  0  0  0  0
   -3.2885    2.2403    0.0000 O   0  0  0  0  0  0  0  0  0  0  0  0
   -1.7650    3.7164    0.0000 O   0  0  0  0  0  0  0  0  0  0  0  0
   -0.5491   -1.5535    0.0000 C   0  0  0  0  0  0  0  0  0  0  0  0
   -1.9096   -0.9218    0.0000 C   0  0  0  0  0  0  0  0  0  0  0  0
  2  1  1  6
  2  3  1  0
  3  4  1  0
  4  5  1  0
  5  6  2  0
  5  7  1  0
  7  8  1  0
  2  9  1  0
  9 10  1  6
 10 11  1  0
 12 11  1  6
 12 13  1  0
 13 14  1  1
 14 15  1  1
 14 16  1  0
 17 16  1  1
 17 18  1  0
 18 19  1  0
 19 20  1  1
 19 21  1  0
 21 22  1  0
 22 23  1  0
 23 24  1  6
 23 25  1  0
 25 26  1  6
 26 27  1  0
 27 28  1  1
 28 29  1  0
 29 30  2  0
 29 31  2  0
 29 32  1  0
 27 33  1  0
 33 34  1  6
 33  9  1  0
 33 12  1  0
 25 13  1  0
 23 17  1  0
M  END
>  <MS_ID>  (2028) 
MS2103

>  <SMILES>  (2028) 
C[C@H](CCC(=O)NO)[C@H]1CC[C@H]2[C@@H]3[C@H](O)C[C@@H]4C[C@H](O)CC[C@]4(C)[C@H]3C[C@H](OS(=O)(=O)O)[C@]12C

>  <Structure_dimension>  (2028) 
2D

$$$$
MS2104
     RDKit          2D

 34 38  0  0  0  0  0  0  0  0999 V2000
   -2.6599   -4.1335    0.0000 C   0  0  0  0  0  0  0  0  0  0  0  0
   -1.8847   -2.8494    0.0000 C   0  0  0  0  0  0  0  0  0  0  0  0
   -2.6091   -1.5360    0.0000 C   0  0  0  0  0  0  0  0  0  0  0  0
   -4.1089   -1.5067    0.0000 C   0  0  0  0  0  0  0  0  0  0  0  0
   -4.8333   -0.1932    0.0000 C   0  0  0  0  0  0  0  0  0  0  0  0
   -4.0581    1.0909    0.0000 O   0  0  0  0  0  0  0  0  0  0  0  0
   -6.3331   -0.1639    0.0000 N   0  0  0  0  0  0  0  0  0  0  0  0
   -7.0575    1.1495    0.0000 C   0  0  0  0  0  0  0  0  0  0  0  0
   -8.5460    1.3354    0.0000 N   0  0  0  0  0  0  0  0  0  0  0  0
   -8.8291    2.8085    0.0000 C   0  0  0  0  0  0  0  0  0  0  0  0
   -7.5157    3.5330    0.0000 C   0  0  0  0  0  0  0  0  0  0  0  0
   -6.4208    2.5077    0.0000 S   0  0  0  0  0  0  0  0  0  0  0  0
   -0.3850   -2.8787    0.0000 C   0  0  0  0  0  0  0  0  0  0  0  0
    0.4728   -4.1092    0.0000 C   0  0  0  0  0  0  0  0  0  0  0  0
    1.9082   -3.6737    0.0000 C   0  0  0  0  0  0  0  0  0  0  0  0
    1.9375   -2.1740    0.0000 C   0  0  0  0  0  0  0  0  0  0  0  0
    3.0716   -1.1922    0.0000 C   0  0  0  0  0  0  0  0  0  0  0  0
    4.4889   -1.6835    0.0000 C   0  0  0  0  0  0  0  0  0  0  0  0
    4.7720   -3.1566    0.0000 O   0  0  0  0  0  0  0  0  0  0  0  0
    5.6230   -0.7018    0.0000 C   0  0  0  0  0  0  0  0  0  0  0  0
    5.3399    0.7712    0.0000 C   0  0  0  0  0  0  0  0  0  0  0  0
    6.4740    1.7530    0.0000 C   0  0  0  0  0  0  0  0  0  0  0  0
    6.1908    3.2260    0.0000 C   0  0  0  0  0  0  0  0  0  0  0  0
    7.3249    4.2077    0.0000 O   0  0  0  0  0  0  0  0  0  0  0  0
    4.7736    3.7173    0.0000 C   0  0  0  0  0  0  0  0  0  0  0  0
    3.6395    2.7356    0.0000 C   0  0  0  0  0  0  0  0  0  0  0  0
    3.9226    1.2625    0.0000 C   0  0  0  0  0  0  0  0  0  0  0  0
    2.5053    1.7538    0.0000 C   0  0  0  0  0  0  0  0  0  0  0  0
    2.7885    0.2808    0.0000 C   0  0  0  0  0  0  0  0  0  0  0  0
    1.3712    0.7721    0.0000 C   0  0  0  0  0  0  0  0  0  0  0  0
    0.2371   -0.2096    0.0000 C   0  0  0  0  0  0  0  0  0  0  0  0
   -1.1801    0.2817    0.0000 O   0  0  0  0  0  0  0  0  0  0  0  0
    0.5203   -1.6826    0.0000 C   0  0  0  0  0  0  0  0  0  0  0  0
   -0.9406   -1.3422    0.0000 C   0  0  0  0  0  0  0  0  0  0  0  0
  2  1  1  6
  2  3  1  0
  3  4  1  0
  4  5  1  0
  5  6  2  0
  5  7  1  0
  7  8  1  0
  8  9  2  0
  9 10  1  0
 10 11  2  0
 11 12  1  0
  2 13  1  0
 13 14  1  6
 14 15  1  0
 16 15  1  6
 16 17  1  0
 17 18  1  1
 18 19  1  1
 18 20  1  0
 21 20  1  1
 21 22  1  0
 22 23  1  0
 23 24  1  1
 23 25  1  0
 25 26  1  0
 26 27  1  0
 27 28  1  6
 27 29  1  0
 29 30  1  6
 30 31  1  0
 31 32  1  1
 31 33  1  0
 33 34  1  6
 12  8  1  0
 33 13  1  0
 33 16  1  0
 29 17  1  0
 27 21  1  0
M  END
>  <MS_ID>  (2029) 
MS2104

>  <SMILES>  (2029) 
C[C@H](CCC(=O)Nc1nccs1)[C@H]1CC[C@H]2[C@@H]3[C@H](O)C[C@@H]4C[C@H](O)CC[C@]4(C)[C@H]3C[C@H](O)[C@]12C

>  <Structure_dimension>  (2029) 
2D

$$$$
MS2105
     RDKit          2D

 30 33  0  0  0  0  0  0  0  0999 V2000
   -4.4787   -3.0199    0.0000 C   0  0  0  0  0  0  0  0  0  0  0  0
   -3.4346   -1.9429    0.0000 C   0  0  0  0  0  0  0  0  0  0  0  0
   -3.8453   -0.5003    0.0000 C   0  0  0  0  0  0  0  0  0  0  0  0
   -5.3001   -0.1346    0.0000 C   0  0  0  0  0  0  0  0  0  0  0  0
   -5.7108    1.3081    0.0000 C   0  0  0  0  0  0  0  0  0  0  0  0
   -7.1655    1.6738    0.0000 O   0  0  0  0  0  0  0  0  0  0  0  0
   -4.6667    2.3851    0.0000 S   0  0  0  0  0  0  0  0  0  0  0  0
   -5.0774    3.8278    0.0000 C   0  0  0  0  0  0  0  0  0  0  0  0
   -4.0333    4.9048    0.0000 F   0  0  0  0  0  0  0  0  0  0  0  0
   -1.9799   -2.3086    0.0000 C   0  0  0  0  0  0  0  0  0  0  0  0
   -1.4207   -3.7005    0.0000 C   0  0  0  0  0  0  0  0  0  0  0  0
    0.0759   -3.5987    0.0000 C   0  0  0  0  0  0  0  0  0  0  0  0
    0.4416   -2.1440    0.0000 C   0  0  0  0  0  0  0  0  0  0  0  0
    1.7673   -1.4423    0.0000 C   0  0  0  0  0  0  0  0  0  0  0  0
    3.0379   -2.2397    0.0000 C   0  0  0  0  0  0  0  0  0  0  0  0
    2.9826   -3.7386    0.0000 O   0  0  0  0  0  0  0  0  0  0  0  0
    4.3636   -1.5380    0.0000 C   0  0  0  0  0  0  0  0  0  0  0  0
    4.4189   -0.0390    0.0000 C   0  0  0  0  0  0  0  0  0  0  0  0
    5.7447    0.6626    0.0000 C   0  0  0  0  0  0  0  0  0  0  0  0
    5.7999    2.1616    0.0000 C   0  0  0  0  0  0  0  0  0  0  0  0
    7.1257    2.8633    0.0000 O   0  0  0  0  0  0  0  0  0  0  0  0
    4.5293    2.9590    0.0000 C   0  0  0  0  0  0  0  0  0  0  0  0
    3.2036    2.2573    0.0000 C   0  0  0  0  0  0  0  0  0  0  0  0
    3.1483    0.7583    0.0000 C   0  0  0  0  0  0  0  0  0  0  0  0
    1.8778    1.5556    0.0000 C   0  0  0  0  0  0  0  0  0  0  0  0
    1.8226    0.0567    0.0000 C   0  0  0  0  0  0  0  0  0  0  0  0
    0.5520    0.8540    0.0000 C   0  0  0  0  0  0  0  0  0  0  0  0
   -0.7738    0.1523    0.0000 C   0  0  0  0  0  0  0  0  0  0  0  0
   -0.8290   -1.3467    0.0000 C   0  0  0  0  0  0  0  0  0  0  0  0
   -2.1759   -0.6865    0.0000 C   0  0  0  0  0  0  0  0  0  0  0  0
  2  1  1  6
  2  3  1  0
  3  4  1  0
  4  5  1  0
  5  6  2  0
  5  7  1  0
  7  8  1  0
  8  9  1  0
  2 10  1  0
 10 11  1  6
 11 12  1  0
 13 12  1  6
 13 14  1  0
 14 15  1  1
 15 16  1  6
 15 17  1  0
 18 17  1  1
 18 19  1  0
 19 20  1  0
 20 21  1  1
 20 22  1  0
 22 23  1  0
 23 24  1  0
 24 25  1  6
 24 26  1  0
 26 27  1  6
 27 28  1  0
 28 29  1  0
 29 30  1  6
 29 10  1  0
 29 13  1  0
 26 14  1  0
 24 18  1  0
M  END
>  <MS_ID>  (2030) 
MS2105

>  <SMILES>  (2030) 
C[C@H](CCC(=O)SCF)[C@H]1CC[C@H]2[C@@H]3[C@@H](O)C[C@@H]4C[C@H](O)CC[C@]4(C)[C@H]3CC[C@]12C

>  <Structure_dimension>  (2030) 
2D

$$$$
MS2106
     RDKit          2D

 31 34  0  0  0  0  0  0  0  0999 V2000
   -4.4281   -2.8097    0.0000 C   0  0  0  0  0  0  0  0  0  0  0  0
   -3.3906   -1.7263    0.0000 C   0  0  0  0  0  0  0  0  0  0  0  0
   -3.8101   -0.2862    0.0000 C   0  0  0  0  0  0  0  0  0  0  0  0
   -5.2670    0.0707    0.0000 C   0  0  0  0  0  0  0  0  0  0  0  0
   -5.6865    1.5108    0.0000 C   0  0  0  0  0  0  0  0  0  0  0  0
   -4.6490    2.5942    0.0000 O   0  0  0  0  0  0  0  0  0  0  0  0
   -7.1434    1.8677    0.0000 C   0  0  0  0  0  0  0  0  0  0  0  0
   -7.5628    3.3078    0.0000 F   0  0  0  0  0  0  0  0  0  0  0  0
   -8.1809    0.7843    0.0000 F   0  0  0  0  0  0  0  0  0  0  0  0
   -1.9337   -2.0832    0.0000 C   0  0  0  0  0  0  0  0  0  0  0  0
   -1.3660   -3.4716    0.0000 C   0  0  0  0  0  0  0  0  0  0  0  0
    0.1299   -3.3608    0.0000 C   0  0  0  0  0  0  0  0  0  0  0  0
    0.4867   -1.9038    0.0000 C   0  0  0  0  0  0  0  0  0  0  0  0
    1.8082   -1.1941    0.0000 C   0  0  0  0  0  0  0  0  0  0  0  0
    3.0836   -1.9837    0.0000 C   0  0  0  0  0  0  0  0  0  0  0  0
    3.0374   -3.4830    0.0000 O   0  0  0  0  0  0  0  0  0  0  0  0
    4.4050   -1.2740    0.0000 C   0  0  0  0  0  0  0  0  0  0  0  0
    5.6804   -2.0636    0.0000 O   0  0  0  0  0  0  0  0  0  0  0  0
    4.4512    0.2253    0.0000 C   0  0  0  0  0  0  0  0  0  0  0  0
    5.7727    0.9350    0.0000 C   0  0  0  0  0  0  0  0  0  0  0  0
    5.8188    2.4343    0.0000 C   0  0  0  0  0  0  0  0  0  0  0  0
    7.1403    3.1440    0.0000 O   0  0  0  0  0  0  0  0  0  0  0  0
    4.5434    3.2239    0.0000 C   0  0  0  0  0  0  0  0  0  0  0  0
    3.2219    2.5142    0.0000 C   0  0  0  0  0  0  0  0  0  0  0  0
    3.1758    1.0149    0.0000 C   0  0  0  0  0  0  0  0  0  0  0  0
    1.9004    1.8045    0.0000 C   0  0  0  0  0  0  0  0  0  0  0  0
    1.8543    0.3052    0.0000 C   0  0  0  0  0  0  0  0  0  0  0  0
    0.5790    1.0948    0.0000 C   0  0  0  0  0  0  0  0  0  0  0  0
   -0.7425    0.3851    0.0000 C   0  0  0  0  0  0  0  0  0  0  0  0
   -0.7887   -1.1142    0.0000 C   0  0  0  0  0  0  0  0  0  0  0  0
   -2.1396   -0.4623    0.0000 C   0  0  0  0  0  0  0  0  0  0  0  0
  2  1  1  6
  2  3  1  0
  3  4  1  0
  4  5  1  0
  5  6  2  0
  5  7  1  0
  7  8  1  0
  7  9  1  0
  2 10  1  0
 10 11  1  6
 11 12  1  0
 13 12  1  6
 13 14  1  0
 14 15  1  1
 15 16  1  1
 15 17  1  0
 17 18  1  1
 17 19  1  0
 19 20  1  1
 20 21  1  0
 21 22  1  1
 21 23  1  0
 23 24  1  0
 24 25  1  0
 25 26  1  6
 25 27  1  0
 27 28  1  6
 28 29  1  0
 29 30  1  0
 30 31  1  6
 30 10  1  0
 30 13  1  0
 27 14  1  0
 25 19  1  0
M  END
>  <MS_ID>  (2031) 
MS2106

>  <SMILES>  (2031) 
C[C@H](CCC(=O)C(F)F)[C@H]1CC[C@H]2[C@@H]3[C@H](O)[C@H](O)[C@@H]4C[C@H](O)CC[C@]4(C)[C@H]3CC[C@]12C

>  <Structure_dimension>  (2031) 
2D

$$$$
MS2107
     RDKit          2D

 34 37  0  0  0  0  0  0  0  0999 V2000
   -2.9347   -3.8100    0.0000 C   0  0  0  0  0  0  0  0  0  0  0  0
   -2.1061   -2.5597    0.0000 C   0  0  0  0  0  0  0  0  0  0  0  0
   -2.7747   -1.2169    0.0000 C   0  0  0  0  0  0  0  0  0  0  0  0
   -4.2718   -1.1245    0.0000 C   0  0  0  0  0  0  0  0  0  0  0  0
   -4.9404    0.2183    0.0000 C   0  0  0  0  0  0  0  0  0  0  0  0
   -4.1118    1.4687    0.0000 O   0  0  0  0  0  0  0  0  0  0  0  0
   -6.4375    0.3107    0.0000 C   0  0  0  0  0  0  0  0  0  0  0  0
   -7.1061    1.6535    0.0000 C   0  0  0  0  0  0  0  0  0  0  0  0
   -8.6032    1.7459    0.0000 S   0  0  0  0  0  0  0  0  0  0  0  0
   -8.5108    3.2430    0.0000 O   0  0  0  0  0  0  0  0  0  0  0  0
   -8.6956    0.2487    0.0000 O   0  0  0  0  0  0  0  0  0  0  0  0
  -10.1004    1.8383    0.0000 O   0  0  0  0  0  0  0  0  0  0  0  0
   -0.6090   -2.6521    0.0000 C   0  0  0  0  0  0  0  0  0  0  0  0
    0.1963   -3.9176    0.0000 C   0  0  0  0  0  0  0  0  0  0  0  0
    1.6487   -3.5428    0.0000 C   0  0  0  0  0  0  0  0  0  0  0  0
    1.7411   -2.0457    0.0000 C   0  0  0  0  0  0  0  0  0  0  0  0
    2.9155   -1.1125    0.0000 C   0  0  0  0  0  0  0  0  0  0  0  0
    4.3109   -1.6631    0.0000 C   0  0  0  0  0  0  0  0  0  0  0  0
    4.5317   -3.1467    0.0000 O   0  0  0  0  0  0  0  0  0  0  0  0
    5.4853   -0.7299    0.0000 C   0  0  0  0  0  0  0  0  0  0  0  0
    6.8806   -1.2805    0.0000 O   0  0  0  0  0  0  0  0  0  0  0  0
    5.2644    0.7537    0.0000 C   0  0  0  0  0  0  0  0  0  0  0  0
    6.4388    1.6868    0.0000 C   0  0  0  0  0  0  0  0  0  0  0  0
    6.2179    3.1705    0.0000 C   0  0  0  0  0  0  0  0  0  0  0  0
    7.3923    4.1036    0.0000 O   0  0  0  0  0  0  0  0  0  0  0  0
    4.8226    3.7210    0.0000 C   0  0  0  0  0  0  0  0  0  0  0  0
    3.6482    2.7879    0.0000 C   0  0  0  0  0  0  0  0  0  0  0  0
    3.8691    1.3042    0.0000 C   0  0  0  0  0  0  0  0  0  0  0  0
    2.4737    1.8547    0.0000 C   0  0  0  0  0  0  0  0  0  0  0  0
    2.6946    0.3711    0.0000 C   0  0  0  0  0  0  0  0  0  0  0  0
    1.2993    0.9216    0.0000 C   0  0  0  0  0  0  0  0  0  0  0  0
    0.1249   -0.0115    0.0000 C   0  0  0  0  0  0  0  0  0  0  0  0
    0.3458   -1.4951    0.0000 C   0  0  0  0  0  0  0  0  0  0  0  0
   -1.0994   -1.0935    0.0000 C   0  0  0  0  0  0  0  0  0  0  0  0
  2  1  1  6
  2  3  1  0
  3  4  1  0
  4  5  1  0
  5  6  2  0
  5  7  1  0
  7  8  1  0
  8  9  1  0
  9 10  2  0
  9 11  2  0
  9 12  1  0
  2 13  1  0
 13 14  1  6
 14 15  1  0
 16 15  1  6
 16 17  1  0
 17 18  1  1
 18 19  1  1
 18 20  1  0
 20 21  1  1
 20 22  1  0
 22 23  1  1
 23 24  1  0
 24 25  1  1
 24 26  1  0
 26 27  1  0
 27 28  1  0
 28 29  1  6
 28 30  1  0
 30 31  1  6
 31 32  1  0
 32 33  1  0
 33 34  1  6
 33 13  1  0
 33 16  1  0
 30 17  1  0
 28 22  1  0
M  END
>  <MS_ID>  (2032) 
MS2107

>  <SMILES>  (2032) 
C[C@H](CCC(=O)CCS(=O)(=O)O)[C@H]1CC[C@H]2[C@@H]3[C@H](O)[C@H](O)[C@@H]4C[C@H](O)CC[C@]4(C)[C@H]3CC[C@]12C

>  <Structure_dimension>  (2032) 
2D

$$$$
MS2108
     RDKit          2D

 30 33  0  0  0  0  0  0  0  0999 V2000
   -2.8654   -3.7251    0.0000 C   0  0  0  0  0  0  0  0  0  0  0  0
   -2.0060   -2.4956    0.0000 C   0  0  0  0  0  0  0  0  0  0  0  0
   -2.6410   -1.1367    0.0000 C   0  0  0  0  0  0  0  0  0  0  0  0
   -4.1354   -1.0071    0.0000 C   0  0  0  0  0  0  0  0  0  0  0  0
   -4.7704    0.3518    0.0000 C   0  0  0  0  0  0  0  0  0  0  0  0
   -3.9110    1.5812    0.0000 O   0  0  0  0  0  0  0  0  0  0  0  0
   -6.2648    0.4814    0.0000 N   0  0  0  0  0  0  0  0  0  0  0  0
   -6.8998    1.8403    0.0000 S   0  0  0  0  0  0  0  0  0  0  0  0
   -8.2588    1.2053    0.0000 O   0  0  0  0  0  0  0  0  0  0  0  0
   -5.5409    2.4753    0.0000 O   0  0  0  0  0  0  0  0  0  0  0  0
   -7.5348    3.1993    0.0000 O   0  0  0  0  0  0  0  0  0  0  0  0
   -0.5116   -2.6252    0.0000 C   0  0  0  0  0  0  0  0  0  0  0  0
    0.2620   -3.9103    0.0000 C   0  0  0  0  0  0  0  0  0  0  0  0
    1.7233   -3.5717    0.0000 C   0  0  0  0  0  0  0  0  0  0  0  0
    1.8528   -2.0773    0.0000 C   0  0  0  0  0  0  0  0  0  0  0  0
    3.0500   -1.1737    0.0000 C   0  0  0  0  0  0  0  0  0  0  0  0
    4.4313   -1.7587    0.0000 C   0  0  0  0  0  0  0  0  0  0  0  0
    5.6285   -0.8550    0.0000 C   0  0  0  0  0  0  0  0  0  0  0  0
    5.4445    0.6337    0.0000 C   0  0  0  0  0  0  0  0  0  0  0  0
    6.6418    1.5373    0.0000 C   0  0  0  0  0  0  0  0  0  0  0  0
    6.4578    3.0260    0.0000 C   0  0  0  0  0  0  0  0  0  0  0  0
    5.0765    3.6110    0.0000 C   0  0  0  0  0  0  0  0  0  0  0  0
    3.8793    2.7073    0.0000 C   0  0  0  0  0  0  0  0  0  0  0  0
    4.0633    1.2187    0.0000 C   0  0  0  0  0  0  0  0  0  0  0  0
    2.6821    1.8037    0.0000 C   0  0  0  0  0  0  0  0  0  0  0  0
    2.8661    0.3150    0.0000 C   0  0  0  0  0  0  0  0  0  0  0  0
    1.4848    0.9000    0.0000 C   0  0  0  0  0  0  0  0  0  0  0  0
    0.2876   -0.0037    0.0000 C   0  0  0  0  0  0  0  0  0  0  0  0
    0.4716   -1.4923    0.0000 C   0  0  0  0  0  0  0  0  0  0  0  0
   -0.9632   -1.0549    0.0000 C   0  0  0  0  0  0  0  0  0  0  0  0
  2  1  1  6
  2  3  1  0
  3  4  1  0
  4  5  1  0
  5  6  2  0
  5  7  1  0
  7  8  1  0
  8  9  2  0
  8 10  2  0
  8 11  1  0
  2 12  1  0
 12 13  1  6
 13 14  1  0
 15 14  1  6
 15 16  1  0
 16 17  1  1
 17 18  1  0
 19 18  1  1
 19 20  1  0
 20 21  1  0
 21 22  1  0
 22 23  1  0
 23 24  1  0
 24 25  1  6
 24 26  1  0
 26 27  1  6
 27 28  1  0
 28 29  1  0
 29 30  1  6
 29 12  1  0
 29 15  1  0
 26 16  1  0
 24 19  1  0
M  END
>  <MS_ID>  (2033) 
MS2108

>  <SMILES>  (2033) 
C[C@H](CCC(=O)NS(=O)(=O)O)[C@H]1CC[C@H]2[C@@H]3CC[C@@H]4CCCC[C@]4(C)[C@H]3CC[C@]12C

>  <Structure_dimension>  (2033) 
2D

$$$$
MS2109
     RDKit          2D

 30 33  0  0  0  0  0  0  0  0999 V2000
   -5.1126   -2.2702    0.0000 C   0  0  0  0  0  0  0  0  0  0  0  0
   -4.0463   -1.2153    0.0000 C   0  0  0  0  0  0  0  0  0  0  0  0
   -4.4268    0.2357    0.0000 C   0  0  0  0  0  0  0  0  0  0  0  0
   -5.8736    0.6316    0.0000 C   0  0  0  0  0  0  0  0  0  0  0  0
   -6.2540    2.0826    0.0000 C   0  0  0  0  0  0  0  0  0  0  0  0
   -5.1877    3.1376    0.0000 O   0  0  0  0  0  0  0  0  0  0  0  0
   -7.7008    2.4786    0.0000 O   0  0  0  0  0  0  0  0  0  0  0  0
   -2.5995   -1.6113    0.0000 C   0  0  0  0  0  0  0  0  0  0  0  0
   -2.0695   -3.0145    0.0000 C   0  0  0  0  0  0  0  0  0  0  0  0
   -0.5711   -2.9440    0.0000 C   0  0  0  0  0  0  0  0  0  0  0  0
   -0.1751   -1.4972    0.0000 C   0  0  0  0  0  0  0  0  0  0  0  0
    1.1650   -0.8234    0.0000 C   0  0  0  0  0  0  0  0  0  0  0  0
    2.4186   -1.6471    0.0000 C   0  0  0  0  0  0  0  0  0  0  0  0
    2.3321   -3.1446    0.0000 C   0  0  0  0  0  0  0  0  0  0  0  0
    3.5857   -3.9682    0.0000 C   0  0  0  0  0  0  0  0  0  0  0  0
    3.4992   -5.4657    0.0000 O   0  0  0  0  0  0  0  0  0  0  0  0
    3.7587   -0.9732    0.0000 C   0  0  0  0  0  0  0  0  0  0  0  0
    3.8453    0.5243    0.0000 C   0  0  0  0  0  0  0  0  0  0  0  0
    5.1854    1.1981    0.0000 C   0  0  0  0  0  0  0  0  0  0  0  0
    5.2719    2.6956    0.0000 C   0  0  0  0  0  0  0  0  0  0  0  0
    6.6121    3.3694    0.0000 O   0  0  0  0  0  0  0  0  0  0  0  0
    4.0183    3.5193    0.0000 C   0  0  0  0  0  0  0  0  0  0  0  0
    2.6782    2.8454    0.0000 C   0  0  0  0  0  0  0  0  0  0  0  0
    2.5917    1.3479    0.0000 C   0  0  0  0  0  0  0  0  0  0  0  0
    1.3380    2.1716    0.0000 C   0  0  0  0  0  0  0  0  0  0  0  0
    1.2515    0.6741    0.0000 C   0  0  0  0  0  0  0  0  0  0  0  0
   -0.0021    1.4978    0.0000 C   0  0  0  0  0  0  0  0  0  0  0  0
   -1.3422    0.8240    0.0000 C   0  0  0  0  0  0  0  0  0  0  0  0
   -1.4288   -0.6735    0.0000 C   0  0  0  0  0  0  0  0  0  0  0  0
   -2.7616    0.0146    0.0000 C   0  0  0  0  0  0  0  0  0  0  0  0
  2  1  1  6
  2  3  1  0
  3  4  1  0
  4  5  1  0
  5  6  2  0
  5  7  1  0
  2  8  1  0
  8  9  1  6
  9 10  1  0
 11 10  1  6
 11 12  1  0
 12 13  1  1
 13 14  1  6
 14 15  1  0
 15 16  1  0
 13 17  1  0
 18 17  1  1
 18 19  1  0
 19 20  1  0
 20 21  1  1
 20 22  1  0
 22 23  1  0
 23 24  1  0
 24 25  1  6
 24 26  1  0
 26 27  1  6
 27 28  1  0
 28 29  1  0
 29 30  1  6
 29  8  1  0
 29 11  1  0
 26 12  1  0
 24 18  1  0
M  END
>  <MS_ID>  (2034) 
MS2109

>  <SMILES>  (2034) 
C[C@H](CCC(=O)O)[C@H]1CC[C@H]2[C@@H]3[C@@H](CCO)C[C@@H]4C[C@H](O)CC[C@]4(C)[C@H]3CC[C@]12C

>  <Structure_dimension>  (2034) 
2D

$$$$
MS2110
     RDKit          2D

 31 34  0  0  0  0  0  0  0  0999 V2000
   -3.5119   -3.5779    0.0000 C   0  0  0  0  0  0  0  0  0  0  0  0
   -2.6109   -2.3787    0.0000 C   0  0  0  0  0  0  0  0  0  0  0  0
   -3.1991   -0.9988    0.0000 C   0  0  0  0  0  0  0  0  0  0  0  0
   -4.6881   -0.8181    0.0000 C   0  0  0  0  0  0  0  0  0  0  0  0
   -5.2762    0.5618    0.0000 C   0  0  0  0  0  0  0  0  0  0  0  0
   -4.3753    1.7610    0.0000 O   0  0  0  0  0  0  0  0  0  0  0  0
   -6.7653    0.7424    0.0000 N   0  0  0  0  0  0  0  0  0  0  0  0
   -7.3534    2.1223    0.0000 C   0  0  0  0  0  0  0  0  0  0  0  0
   -8.8425    2.3029    0.0000 C   0  0  0  0  0  0  0  0  0  0  0  0
   -9.4306    3.6828    0.0000 S   0  0  0  0  0  0  0  0  0  0  0  0
   -1.1219   -2.5593    0.0000 C   0  0  0  0  0  0  0  0  0  0  0  0
   -0.3927   -3.8702    0.0000 C   0  0  0  0  0  0  0  0  0  0  0  0
    1.0793   -3.5818    0.0000 C   0  0  0  0  0  0  0  0  0  0  0  0
    1.2599   -2.0927    0.0000 C   0  0  0  0  0  0  0  0  0  0  0  0
    2.4874   -1.2306    0.0000 C   0  0  0  0  0  0  0  0  0  0  0  0
    3.8478   -1.8625    0.0000 C   0  0  0  0  0  0  0  0  0  0  0  0
    3.9807   -3.3566    0.0000 O   0  0  0  0  0  0  0  0  0  0  0  0
    5.0753   -1.0003    0.0000 C   0  0  0  0  0  0  0  0  0  0  0  0
    4.9423    0.4938    0.0000 C   0  0  0  0  0  0  0  0  0  0  0  0
    6.1698    1.3559    0.0000 C   0  0  0  0  0  0  0  0  0  0  0  0
    6.0369    2.8500    0.0000 C   0  0  0  0  0  0  0  0  0  0  0  0
    7.2644    3.7122    0.0000 O   0  0  0  0  0  0  0  0  0  0  0  0
    4.6765    3.4820    0.0000 C   0  0  0  0  0  0  0  0  0  0  0  0
    3.4490    2.6198    0.0000 C   0  0  0  0  0  0  0  0  0  0  0  0
    3.5820    1.1257    0.0000 C   0  0  0  0  0  0  0  0  0  0  0  0
    2.2216    1.7576    0.0000 C   0  0  0  0  0  0  0  0  0  0  0  0
    2.3545    0.2635    0.0000 C   0  0  0  0  0  0  0  0  0  0  0  0
    0.9941    0.8955    0.0000 C   0  0  0  0  0  0  0  0  0  0  0  0
   -0.2334    0.0333    0.0000 C   0  0  0  0  0  0  0  0  0  0  0  0
   -0.1005   -1.4608    0.0000 C   0  0  0  0  0  0  0  0  0  0  0  0
   -1.5195   -0.9745    0.0000 C   0  0  0  0  0  0  0  0  0  0  0  0
  2  1  1  6
  2  3  1  0
  3  4  1  0
  4  5  1  0
  5  6  2  0
  5  7  1  0
  7  8  1  0
  8  9  1  0
  9 10  1  0
  2 11  1  0
 11 12  1  6
 12 13  1  0
 14 13  1  6
 14 15  1  0
 15 16  1  1
 16 17  1  1
 16 18  1  0
 19 18  1  1
 19 20  1  0
 20 21  1  0
 21 22  1  6
 21 23  1  0
 23 24  1  0
 24 25  1  0
 25 26  1  6
 25 27  1  0
 27 28  1  6
 28 29  1  0
 29 30  1  0
 30 31  1  6
 30 11  1  0
 30 14  1  0
 27 15  1  0
 25 19  1  0
M  END
>  <MS_ID>  (2035) 
MS2110

>  <SMILES>  (2035) 
C[C@H](CCC(=O)NCCS)[C@H]1CC[C@H]2[C@@H]3[C@H](O)C[C@@H]4C[C@@H](O)CC[C@]4(C)[C@H]3CC[C@]12C

>  <Structure_dimension>  (2035) 
2D

$$$$
MS2111
     RDKit          2D

 36 40  0  0  0  0  0  0  0  0999 V2000
   -1.4753   -4.0971    0.0000 C   0  0  0  0  0  0  0  0  0  0  0  0
   -0.7153   -2.8039    0.0000 C   0  0  0  0  0  0  0  0  0  0  0  0
   -1.4552   -1.4991    0.0000 C   0  0  0  0  0  0  0  0  0  0  0  0
   -2.9552   -1.4875    0.0000 C   0  0  0  0  0  0  0  0  0  0  0  0
   -3.6951   -0.1827    0.0000 C   0  0  0  0  0  0  0  0  0  0  0  0
   -2.9351    1.1105    0.0000 O   0  0  0  0  0  0  0  0  0  0  0  0
   -5.1951   -0.1712    0.0000 C   0  0  0  0  0  0  0  0  0  0  0  0
   -5.9351    1.1336    0.0000 O   0  0  0  0  0  0  0  0  0  0  0  0
   -7.4350    1.1452    0.0000 C   0  0  0  0  0  0  0  0  0  0  0  0
   -8.1750    2.4500    0.0000 C   0  0  0  0  0  0  0  0  0  0  0  0
   -9.6749    2.4615    0.0000 C   0  0  0  0  0  0  0  0  0  0  0  0
  -10.4349    1.1683    0.0000 C   0  0  0  0  0  0  0  0  0  0  0  0
  -11.9349    1.1799    0.0000 N   0  0  0  0  0  0  0  0  0  0  0  0
   -9.6950   -0.1365    0.0000 C   0  0  0  0  0  0  0  0  0  0  0  0
   -8.1950   -0.1480    0.0000 C   0  0  0  0  0  0  0  0  0  0  0  0
    0.7847   -2.8154    0.0000 C   0  0  0  0  0  0  0  0  0  0  0  0
    1.6570   -4.0357    0.0000 C   0  0  0  0  0  0  0  0  0  0  0  0
    3.0871   -3.5832    0.0000 C   0  0  0  0  0  0  0  0  0  0  0  0
    3.0987   -2.0833    0.0000 C   0  0  0  0  0  0  0  0  0  0  0  0
    4.2211   -1.0882    0.0000 C   0  0  0  0  0  0  0  0  0  0  0  0
    5.6441   -1.5627    0.0000 C   0  0  0  0  0  0  0  0  0  0  0  0
    5.9446   -3.0323    0.0000 O   0  0  0  0  0  0  0  0  0  0  0  0
    6.7665   -0.5677    0.0000 C   0  0  0  0  0  0  0  0  0  0  0  0
    6.4659    0.9019    0.0000 C   0  0  0  0  0  0  0  0  0  0  0  0
    7.5884    1.8970    0.0000 C   0  0  0  0  0  0  0  0  0  0  0  0
    7.2878    3.3666    0.0000 C   0  0  0  0  0  0  0  0  0  0  0  0
    8.4103    4.3616    0.0000 O   0  0  0  0  0  0  0  0  0  0  0  0
    5.8649    3.8411    0.0000 C   0  0  0  0  0  0  0  0  0  0  0  0
    4.7424    2.8460    0.0000 C   0  0  0  0  0  0  0  0  0  0  0  0
    5.0430    1.3764    0.0000 C   0  0  0  0  0  0  0  0  0  0  0  0
    3.6200    1.8510    0.0000 C   0  0  0  0  0  0  0  0  0  0  0  0
    3.9205    0.3814    0.0000 C   0  0  0  0  0  0  0  0  0  0  0  0
    2.4976    0.8559    0.0000 C   0  0  0  0  0  0  0  0  0  0  0  0
    1.3752   -0.1392    0.0000 C   0  0  0  0  0  0  0  0  0  0  0  0
    1.6757   -1.6088    0.0000 C   0  0  0  0  0  0  0  0  0  0  0  0
    0.2109   -1.2856    0.0000 C   0  0  0  0  0  0  0  0  0  0  0  0
  2  1  1  6
  2  3  1  0
  3  4  1  0
  4  5  1  0
  5  6  2  0
  5  7  1  0
  7  8  1  0
  8  9  1  0
  9 10  2  0
 10 11  1  0
 11 12  2  0
 12 13  1  0
 12 14  1  0
 14 15  2  0
  2 16  1  0
 16 17  1  6
 17 18  1  0
 19 18  1  6
 19 20  1  0
 20 21  1  1
 21 22  1  1
 21 23  1  0
 24 23  1  1
 24 25  1  0
 25 26  1  0
 26 27  1  1
 26 28  1  0
 28 29  1  0
 29 30  1  0
 30 31  1  6
 30 32  1  0
 32 33  1  6
 33 34  1  0
 34 35  1  0
 35 36  1  6
 15  9  1  0
 35 16  1  0
 35 19  1  0
 32 20  1  0
 30 24  1  0
M  END
>  <MS_ID>  (2036) 
MS2111

>  <SMILES>  (2036) 
C[C@H](CCC(=O)COc1ccc(N)cc1)[C@H]1CC[C@H]2[C@@H]3[C@H](O)C[C@@H]4C[C@H](O)CC[C@]4(C)[C@H]3CC[C@]12C

>  <Structure_dimension>  (2036) 
2D

$$$$
MS2112
     RDKit          2D

 33 37  0  0  0  0  0  0  0  0999 V2000
   -3.1427   -3.3426    0.0000 C   0  0  0  0  0  0  0  0  0  0  0  0
   -2.1899   -2.1841    0.0000 C   0  0  0  0  0  0  0  0  0  0  0  0
   -2.7167   -0.7797    0.0000 C   0  0  0  0  0  0  0  0  0  0  0  0
   -4.1964   -0.5338    0.0000 C   0  0  0  0  0  0  0  0  0  0  0  0
   -4.7233    0.8707    0.0000 C   0  0  0  0  0  0  0  0  0  0  0  0
   -3.7705    2.0292    0.0000 O   0  0  0  0  0  0  0  0  0  0  0  0
   -6.2030    1.1166    0.0000 C   0  0  0  0  0  0  0  0  0  0  0  0
   -6.7299    2.5210    0.0000 C   0  0  0  0  0  0  0  0  0  0  0  0
   -8.2096    2.7669    0.0000 N   0  0  0  0  0  0  0  0  0  0  0  0
   -9.1624    1.6084    0.0000 C   0  0  0  0  0  0  0  0  0  0  0  0
   -8.6355    0.2040    0.0000 C   0  0  0  0  0  0  0  0  0  0  0  0
   -7.1558   -0.0419    0.0000 N   0  0  0  0  0  0  0  0  0  0  0  0
   -0.7102   -2.4300    0.0000 C   0  0  0  0  0  0  0  0  0  0  0  0
   -0.0394   -3.7717    0.0000 C   0  0  0  0  0  0  0  0  0  0  0  0
    1.4439   -3.5483    0.0000 C   0  0  0  0  0  0  0  0  0  0  0  0
    1.6898   -2.0686    0.0000 C   0  0  0  0  0  0  0  0  0  0  0  0
    2.9540   -1.2613    0.0000 C   0  0  0  0  0  0  0  0  0  0  0  0
    4.2853   -1.9524    0.0000 C   0  0  0  0  0  0  0  0  0  0  0  0
    4.3524   -3.4509    0.0000 O   0  0  0  0  0  0  0  0  0  0  0  0
    5.5495   -1.1451    0.0000 C   0  0  0  0  0  0  0  0  0  0  0  0
    5.4824    0.3534    0.0000 C   0  0  0  0  0  0  0  0  0  0  0  0
    6.7466    1.1608    0.0000 C   0  0  0  0  0  0  0  0  0  0  0  0
    6.6795    2.6593    0.0000 C   0  0  0  0  0  0  0  0  0  0  0  0
    7.9437    3.4666    0.0000 O   0  0  0  0  0  0  0  0  0  0  0  0
    5.3482    3.3504    0.0000 C   0  0  0  0  0  0  0  0  0  0  0  0
    4.0840    2.5431    0.0000 C   0  0  0  0  0  0  0  0  0  0  0  0
    4.1511    1.0446    0.0000 C   0  0  0  0  0  0  0  0  0  0  0  0
    2.8198    1.7357    0.0000 C   0  0  0  0  0  0  0  0  0  0  0  0
    2.8869    0.2372    0.0000 C   0  0  0  0  0  0  0  0  0  0  0  0
    1.5556    0.9284    0.0000 C   0  0  0  0  0  0  0  0  0  0  0  0
    0.2915    0.1210    0.0000 C   0  0  0  0  0  0  0  0  0  0  0  0
    0.3586   -1.3775    0.0000 C   0  0  0  0  0  0  0  0  0  0  0  0
   -1.0377   -0.8293    0.0000 C   0  0  0  0  0  0  0  0  0  0  0  0
  2  1  1  6
  2  3  1  0
  3  4  1  0
  4  5  1  0
  5  6  2  0
  5  7  1  0
  7  8  2  0
  8  9  1  0
  9 10  2  0
 10 11  1  0
 11 12  2  0
  2 13  1  0
 13 14  1  6
 14 15  1  0
 16 15  1  6
 16 17  1  0
 17 18  1  1
 18 19  1  6
 18 20  1  0
 21 20  1  1
 21 22  1  0
 22 23  1  0
 23 24  1  1
 23 25  1  0
 25 26  1  0
 26 27  1  0
 27 28  1  6
 27 29  1  0
 29 30  1  6
 30 31  1  0
 31 32  1  0
 32 33  1  6
 12  7  1  0
 32 13  1  0
 32 16  1  0
 29 17  1  0
 27 21  1  0
M  END
>  <MS_ID>  (2037) 
MS2112

>  <SMILES>  (2037) 
C[C@H](CCC(=O)c1cnccn1)[C@H]1CC[C@H]2[C@@H]3[C@@H](O)C[C@@H]4C[C@H](O)CC[C@]4(C)[C@H]3CC[C@]12C

>  <Structure_dimension>  (2037) 
2D

$$$$
MS2113
     RDKit          2D

 31 34  0  0  0  0  0  0  0  0999 V2000
   -4.0382   -3.1592    0.0000 C   0  0  0  0  0  0  0  0  0  0  0  0
   -3.0416   -2.0381    0.0000 C   0  0  0  0  0  0  0  0  0  0  0  0
   -3.5143   -0.6145    0.0000 C   0  0  0  0  0  0  0  0  0  0  0  0
   -4.9835   -0.3121    0.0000 C   0  0  0  0  0  0  0  0  0  0  0  0
   -5.4561    1.1115    0.0000 C   0  0  0  0  0  0  0  0  0  0  0  0
   -4.4596    2.2326    0.0000 O   0  0  0  0  0  0  0  0  0  0  0  0
   -6.9253    1.4140    0.0000 C   0  0  0  0  0  0  0  0  0  0  0  0
   -7.3980    2.8376    0.0000 C   0  0  0  0  0  0  0  0  0  0  0  0
   -8.8672    3.1400    0.0000 S   0  0  0  0  0  0  0  0  0  0  0  0
   -1.5724   -2.3406    0.0000 C   0  0  0  0  0  0  0  0  0  0  0  0
   -0.9536   -3.7070    0.0000 C   0  0  0  0  0  0  0  0  0  0  0  0
    0.5372   -3.5406    0.0000 C   0  0  0  0  0  0  0  0  0  0  0  0
    0.8396   -2.0714    0.0000 C   0  0  0  0  0  0  0  0  0  0  0  0
    2.1338   -1.3131    0.0000 C   0  0  0  0  0  0  0  0  0  0  0  0
    3.4377   -2.0548    0.0000 C   0  0  0  0  0  0  0  0  0  0  0  0
    3.4473   -3.5547    0.0000 O   0  0  0  0  0  0  0  0  0  0  0  0
    4.7319   -1.2965    0.0000 C   0  0  0  0  0  0  0  0  0  0  0  0
    4.7223    0.2035    0.0000 C   0  0  0  0  0  0  0  0  0  0  0  0
    6.0165    0.9618    0.0000 C   0  0  0  0  0  0  0  0  0  0  0  0
    6.0069    2.4618    0.0000 C   0  0  0  0  0  0  0  0  0  0  0  0
    7.3011    3.2201    0.0000 O   0  0  0  0  0  0  0  0  0  0  0  0
    4.7030    3.2034    0.0000 C   0  0  0  0  0  0  0  0  0  0  0  0
    3.4088    2.4451    0.0000 C   0  0  0  0  0  0  0  0  0  0  0  0
    3.4184    0.9452    0.0000 C   0  0  0  0  0  0  0  0  0  0  0  0
    2.1146    1.6868    0.0000 C   0  0  0  0  0  0  0  0  0  0  0  0
    2.1242    0.1869    0.0000 C   0  0  0  0  0  0  0  0  0  0  0  0
    0.8204    0.9285    0.0000 C   0  0  0  0  0  0  0  0  0  0  0  0
   -0.4738    0.1702    0.0000 C   0  0  0  0  0  0  0  0  0  0  0  0
   -1.7776    0.9119    0.0000 O   0  0  0  0  0  0  0  0  0  0  0  0
   -0.4642   -1.3298    0.0000 C   0  0  0  0  0  0  0  0  0  0  0  0
   -1.8384   -0.7284    0.0000 C   0  0  0  0  0  0  0  0  0  0  0  0
  2  1  1  6
  2  3  1  0
  3  4  1  0
  4  5  1  0
  5  6  2  0
  5  7  1  0
  7  8  1  0
  8  9  1  0
  2 10  1  0
 10 11  1  6
 11 12  1  0
 13 12  1  6
 13 14  1  0
 14 15  1  1
 15 16  1  1
 15 17  1  0
 18 17  1  1
 18 19  1  0
 19 20  1  0
 20 21  1  1
 20 22  1  0
 22 23  1  0
 23 24  1  0
 24 25  1  6
 24 26  1  0
 26 27  1  6
 27 28  1  0
 28 29  1  1
 28 30  1  0
 30 31  1  6
 30 10  1  0
 30 13  1  0
 26 14  1  0
 24 18  1  0
M  END
>  <MS_ID>  (2038) 
MS2113

>  <SMILES>  (2038) 
C[C@H](CCC(=O)CCS)[C@H]1CC[C@H]2[C@@H]3[C@H](O)C[C@@H]4C[C@H](O)CC[C@]4(C)[C@H]3C[C@H](O)[C@]12C

>  <Structure_dimension>  (2038) 
2D

$$$$
MS2114
     RDKit          2D

 35 39  0  0  0  0  0  0  0  0999 V2000
   -2.8974   -3.4633    0.0000 C   0  0  0  0  0  0  0  0  0  0  0  0
   -1.9922   -2.2672    0.0000 C   0  0  0  0  0  0  0  0  0  0  0  0
   -2.5755   -0.8852    0.0000 C   0  0  0  0  0  0  0  0  0  0  0  0
   -4.0640   -0.6994    0.0000 C   0  0  0  0  0  0  0  0  0  0  0  0
   -4.6473    0.6825    0.0000 C   0  0  0  0  0  0  0  0  0  0  0  0
   -3.7421    1.8787    0.0000 O   0  0  0  0  0  0  0  0  0  0  0  0
   -6.1357    0.8684    0.0000 C   0  0  0  0  0  0  0  0  0  0  0  0
   -6.7190    2.2503    0.0000 C   0  0  0  0  0  0  0  0  0  0  0  0
   -8.2075    2.4361    0.0000 C   0  0  0  0  0  0  0  0  0  0  0  0
   -9.1126    1.2400    0.0000 C   0  0  0  0  0  0  0  0  0  0  0  0
  -10.6011    1.4258    0.0000 O   0  0  0  0  0  0  0  0  0  0  0  0
   -8.5293   -0.1420    0.0000 C   0  0  0  0  0  0  0  0  0  0  0  0
   -7.0409   -0.3278    0.0000 C   0  0  0  0  0  0  0  0  0  0  0  0
   -0.5038   -2.4530    0.0000 C   0  0  0  0  0  0  0  0  0  0  0  0
    0.2208   -3.7664    0.0000 C   0  0  0  0  0  0  0  0  0  0  0  0
    1.6938   -3.4831    0.0000 C   0  0  0  0  0  0  0  0  0  0  0  0
    1.8796   -1.9947    0.0000 C   0  0  0  0  0  0  0  0  0  0  0  0
    3.1101   -1.1368    0.0000 C   0  0  0  0  0  0  0  0  0  0  0  0
    4.4682   -1.7735    0.0000 C   0  0  0  0  0  0  0  0  0  0  0  0
    4.5960   -3.2680    0.0000 O   0  0  0  0  0  0  0  0  0  0  0  0
    5.6987   -0.9156    0.0000 C   0  0  0  0  0  0  0  0  0  0  0  0
    7.0569   -1.5523    0.0000 O   0  0  0  0  0  0  0  0  0  0  0  0
    5.5710    0.5789    0.0000 C   0  0  0  0  0  0  0  0  0  0  0  0
    6.8015    1.4368    0.0000 C   0  0  0  0  0  0  0  0  0  0  0  0
    6.6738    2.9314    0.0000 C   0  0  0  0  0  0  0  0  0  0  0  0
    7.9042    3.7893    0.0000 O   0  0  0  0  0  0  0  0  0  0  0  0
    5.3156    3.5681    0.0000 C   0  0  0  0  0  0  0  0  0  0  0  0
    4.0851    2.7102    0.0000 C   0  0  0  0  0  0  0  0  0  0  0  0
    4.2128    1.2156    0.0000 C   0  0  0  0  0  0  0  0  0  0  0  0
    2.8546    1.8523    0.0000 C   0  0  0  0  0  0  0  0  0  0  0  0
    2.9824    0.3577    0.0000 C   0  0  0  0  0  0  0  0  0  0  0  0
    1.6242    0.9944    0.0000 C   0  0  0  0  0  0  0  0  0  0  0  0
    0.3937    0.1365    0.0000 C   0  0  0  0  0  0  0  0  0  0  0  0
    0.5214   -1.3580    0.0000 C   0  0  0  0  0  0  0  0  0  0  0  0
   -0.8959   -0.8668    0.0000 C   0  0  0  0  0  0  0  0  0  0  0  0
  2  1  1  6
  2  3  1  0
  3  4  1  0
  4  5  1  0
  5  6  2  0
  5  7  1  0
  7  8  2  0
  8  9  1  0
  9 10  2  0
 10 11  1  0
 10 12  1  0
 12 13  2  0
  2 14  1  0
 14 15  1  6
 15 16  1  0
 17 16  1  6
 17 18  1  0
 18 19  1  1
 19 20  1  1
 19 21  1  0
 21 22  1  1
 21 23  1  0
 23 24  1  1
 24 25  1  0
 25 26  1  1
 25 27  1  0
 27 28  1  0
 28 29  1  0
 29 30  1  6
 29 31  1  0
 31 32  1  6
 32 33  1  0
 33 34  1  0
 34 35  1  6
 13  7  1  0
 34 14  1  0
 34 17  1  0
 31 18  1  0
 29 23  1  0
M  END
>  <MS_ID>  (2039) 
MS2114

>  <SMILES>  (2039) 
C[C@H](CCC(=O)c1ccc(O)cc1)[C@H]1CC[C@H]2[C@@H]3[C@H](O)[C@H](O)[C@@H]4C[C@H](O)CC[C@]4(C)[C@H]3CC[C@]12C

>  <Structure_dimension>  (2039) 
2D

$$$$
MS2115
     RDKit          2D

 28 31  0  0  0  0  0  0  0  0999 V2000
   -5.0096   -2.1352    0.0000 C   0  0  0  0  0  0  0  0  0  0  0  0
   -3.8132   -1.2303    0.0000 C   0  0  0  0  0  0  0  0  0  0  0  0
   -3.9987    0.2582    0.0000 C   0  0  0  0  0  0  0  0  0  0  0  0
   -5.3805    0.8418    0.0000 C   0  0  0  0  0  0  0  0  0  0  0  0
   -5.5659    2.3303    0.0000 C   0  0  0  0  0  0  0  0  0  0  0  0
   -4.3695    3.2351    0.0000 O   0  0  0  0  0  0  0  0  0  0  0  0
   -6.9477    2.9140    0.0000 O   0  0  0  0  0  0  0  0  0  0  0  0
   -2.4315   -1.8140    0.0000 C   0  0  0  0  0  0  0  0  0  0  0  0
   -2.0914   -3.2749    0.0000 C   0  0  0  0  0  0  0  0  0  0  0  0
   -0.5969   -3.4030    0.0000 C   0  0  0  0  0  0  0  0  0  0  0  0
   -0.0133   -2.0212    0.0000 C   0  0  0  0  0  0  0  0  0  0  0  0
    1.4041   -1.5304    0.0000 C   0  0  0  0  0  0  0  0  0  0  0  0
    2.5379   -2.5125    0.0000 C   0  0  0  0  0  0  0  0  0  0  0  0
    3.9554   -2.0216    0.0000 C   0  0  0  0  0  0  0  0  0  0  0  0
    4.2390   -0.5487    0.0000 C   0  0  0  0  0  0  0  0  0  0  0  0
    5.6564   -0.0578    0.0000 C   0  0  0  0  0  0  0  0  0  0  0  0
    5.9400    1.4151    0.0000 C   0  0  0  0  0  0  0  0  0  0  0  0
    7.3574    1.9060    0.0000 S   0  0  0  0  0  0  0  0  0  0  0  0
    4.8062    2.3972    0.0000 C   0  0  0  0  0  0  0  0  0  0  0  0
    3.3888    1.9064    0.0000 C   0  0  0  0  0  0  0  0  0  0  0  0
    3.1052    0.4334    0.0000 C   0  0  0  0  0  0  0  0  0  0  0  0
    1.9714    1.4155    0.0000 C   0  0  0  0  0  0  0  0  0  0  0  0
    1.6878   -0.0574    0.0000 C   0  0  0  0  0  0  0  0  0  0  0  0
    0.5540    0.9246    0.0000 C   0  0  0  0  0  0  0  0  0  0  0  0
   -0.8635    0.4338    0.0000 C   0  0  0  0  0  0  0  0  0  0  0  0
   -1.9973    1.4159    0.0000 O   0  0  0  0  0  0  0  0  0  0  0  0
   -1.1471   -1.0392    0.0000 C   0  0  0  0  0  0  0  0  0  0  0  0
   -2.3773   -0.1810    0.0000 C   0  0  0  0  0  0  0  0  0  0  0  0
  2  1  1  6
  2  3  1  0
  3  4  1  0
  4  5  1  0
  5  6  2  0
  5  7  1  0
  2  8  1  0
  8  9  1  6
  9 10  1  0
 11 10  1  6
 11 12  1  0
 12 13  1  1
 13 14  1  0
 15 14  1  1
 15 16  1  0
 16 17  1  0
 17 18  1  1
 17 19  1  0
 19 20  1  0
 20 21  1  0
 21 22  1  6
 21 23  1  0
 23 24  1  6
 24 25  1  0
 25 26  2  0
 25 27  1  0
 27 28  1  6
 27  8  1  0
 27 11  1  0
 23 12  1  0
 21 15  1  0
M  END
>  <MS_ID>  (2040) 
MS2115

>  <SMILES>  (2040) 
C[C@H](CCC(=O)O)[C@H]1CC[C@H]2[C@@H]3CC[C@@H]4C[C@H](S)CC[C@]4(C)[C@H]3CC(=O)[C@]12C

>  <Structure_dimension>  (2040) 
2D

$$$$
MS2116
     RDKit          2D

 31 34  0  0  0  0  0  0  0  0999 V2000
   -2.4586   -3.9178    0.0000 C   0  0  0  0  0  0  0  0  0  0  0  0
   -1.7132   -2.6161    0.0000 C   0  0  0  0  0  0  0  0  0  0  0  0
   -2.4679   -1.3198    0.0000 C   0  0  0  0  0  0  0  0  0  0  0  0
   -3.9679   -1.3252    0.0000 C   0  0  0  0  0  0  0  0  0  0  0  0
   -4.7225   -0.0288    0.0000 C   0  0  0  0  0  0  0  0  0  0  0  0
   -3.9772    1.2729    0.0000 O   0  0  0  0  0  0  0  0  0  0  0  0
   -6.2225   -0.0342    0.0000 N   0  0  0  0  0  0  0  0  0  0  0  0
   -6.9772    1.2621    0.0000 C   0  0  0  0  0  0  0  0  0  0  0  0
   -8.4772    1.2568    0.0000 C   0  0  0  0  0  0  0  0  0  0  0  0
   -9.2318    2.5531    0.0000 C   0  0  0  0  0  0  0  0  0  0  0  0
  -10.7318    2.5477    0.0000 O   0  0  0  0  0  0  0  0  0  0  0  0
   -0.2132   -2.6107    0.0000 C   0  0  0  0  0  0  0  0  0  0  0  0
    0.6728   -3.8211    0.0000 C   0  0  0  0  0  0  0  0  0  0  0  0
    2.0977   -3.3525    0.0000 C   0  0  0  0  0  0  0  0  0  0  0  0
    2.0923   -1.8525    0.0000 C   0  0  0  0  0  0  0  0  0  0  0  0
    3.2034   -0.8448    0.0000 C   0  0  0  0  0  0  0  0  0  0  0  0
    4.6317   -1.3032    0.0000 C   0  0  0  0  0  0  0  0  0  0  0  0
    4.9488   -2.7693    0.0000 O   0  0  0  0  0  0  0  0  0  0  0  0
    5.7428   -0.2955    0.0000 C   0  0  0  0  0  0  0  0  0  0  0  0
    5.4257    1.1706    0.0000 C   0  0  0  0  0  0  0  0  0  0  0  0
    6.5368    2.1783    0.0000 C   0  0  0  0  0  0  0  0  0  0  0  0
    6.2196    3.6444    0.0000 C   0  0  0  0  0  0  0  0  0  0  0  0
    4.7914    4.1028    0.0000 C   0  0  0  0  0  0  0  0  0  0  0  0
    3.6803    3.0951    0.0000 C   0  0  0  0  0  0  0  0  0  0  0  0
    3.9974    1.6290    0.0000 C   0  0  0  0  0  0  0  0  0  0  0  0
    2.5692    2.0874    0.0000 C   0  0  0  0  0  0  0  0  0  0  0  0
    2.8863    0.6213    0.0000 C   0  0  0  0  0  0  0  0  0  0  0  0
    1.4581    1.0797    0.0000 C   0  0  0  0  0  0  0  0  0  0  0  0
    0.3470    0.0720    0.0000 C   0  0  0  0  0  0  0  0  0  0  0  0
    0.6641   -1.3941    0.0000 C   0  0  0  0  0  0  0  0  0  0  0  0
   -0.8042   -1.0875    0.0000 C   0  0  0  0  0  0  0  0  0  0  0  0
  2  1  1  6
  2  3  1  0
  3  4  1  0
  4  5  1  0
  5  6  2  0
  5  7  1  0
  7  8  1  0
  8  9  1  0
  9 10  1  0
 10 11  1  0
  2 12  1  0
 12 13  1  6
 13 14  1  0
 15 14  1  6
 15 16  1  0
 16 17  1  1
 17 18  1  1
 17 19  1  0
 20 19  1  1
 20 21  1  0
 21 22  1  0
 22 23  1  0
 23 24  1  0
 24 25  1  0
 25 26  1  6
 25 27  1  0
 27 28  1  6
 28 29  1  0
 29 30  1  0
 30 31  1  6
 30 12  1  0
 30 15  1  0
 27 16  1  0
 25 20  1  0
M  END
>  <MS_ID>  (2041) 
MS2116

>  <SMILES>  (2041) 
C[C@H](CCC(=O)NCCCO)[C@H]1CC[C@H]2[C@@H]3[C@H](O)C[C@@H]4CCCC[C@]4(C)[C@H]3CC[C@]12C

>  <Structure_dimension>  (2041) 
2D

$$$$
MS2117
     RDKit          2D

 36 40  0  0  0  0  0  0  0  0999 V2000
   -7.5737   -1.7008    0.0000 C   0  0  0  0  0  0  0  0  0  0  0  0
   -6.2914   -0.9225    0.0000 C   0  0  0  0  0  0  0  0  0  0  0  0
   -6.3243    0.5772    0.0000 C   0  0  0  0  0  0  0  0  0  0  0  0
   -7.6395    1.2985    0.0000 C   0  0  0  0  0  0  0  0  0  0  0  0
   -7.6724    2.7982    0.0000 C   0  0  0  0  0  0  0  0  0  0  0  0
   -6.3901    3.5765    0.0000 O   0  0  0  0  0  0  0  0  0  0  0  0
   -8.9875    3.5195    0.0000 O   0  0  0  0  0  0  0  0  0  0  0  0
   -4.9763   -1.6438    0.0000 C   0  0  0  0  0  0  0  0  0  0  0  0
   -4.7868   -3.1318    0.0000 C   0  0  0  0  0  0  0  0  0  0  0  0
   -3.3131   -3.4114    0.0000 C   0  0  0  0  0  0  0  0  0  0  0  0
   -2.5917   -2.0962    0.0000 C   0  0  0  0  0  0  0  0  0  0  0  0
   -1.1317   -1.7523    0.0000 C   0  0  0  0  0  0  0  0  0  0  0  0
   -0.1038   -2.8447    0.0000 C   0  0  0  0  0  0  0  0  0  0  0  0
    1.3562   -2.5007    0.0000 C   0  0  0  0  0  0  0  0  0  0  0  0
    1.7883   -1.0643    0.0000 C   0  0  0  0  0  0  0  0  0  0  0  0
    3.2484   -0.7204    0.0000 C   0  0  0  0  0  0  0  0  0  0  0  0
    3.6805    0.7160    0.0000 C   0  0  0  0  0  0  0  0  0  0  0  0
    5.1405    1.0600    0.0000 O   0  0  0  0  0  0  0  0  0  0  0  0
    6.1684   -0.0325    0.0000 C   0  0  0  0  0  0  0  0  0  0  0  0
    5.7363   -1.4689    0.0000 O   0  0  0  0  0  0  0  0  0  0  0  0
    7.6285    0.3115    0.0000 C   0  0  0  0  0  0  0  0  0  0  0  0
    8.6564   -0.7809    0.0000 C   0  0  0  0  0  0  0  0  0  0  0  0
   10.1164   -0.4370    0.0000 C   0  0  0  0  0  0  0  0  0  0  0  0
   10.5485    0.9994    0.0000 C   0  0  0  0  0  0  0  0  0  0  0  0
    9.5206    2.0919    0.0000 C   0  0  0  0  0  0  0  0  0  0  0  0
    8.0606    1.7479    0.0000 C   0  0  0  0  0  0  0  0  0  0  0  0
    2.6526    1.8085    0.0000 C   0  0  0  0  0  0  0  0  0  0  0  0
    1.1926    1.4645    0.0000 C   0  0  0  0  0  0  0  0  0  0  0  0
    0.7605    0.0281    0.0000 C   0  0  0  0  0  0  0  0  0  0  0  0
   -0.2674    1.1205    0.0000 C   0  0  0  0  0  0  0  0  0  0  0  0
   -0.6996   -0.3159    0.0000 C   0  0  0  0  0  0  0  0  0  0  0  0
   -1.7275    0.7766    0.0000 C   0  0  0  0  0  0  0  0  0  0  0  0
   -3.1875    0.4326    0.0000 C   0  0  0  0  0  0  0  0  0  0  0  0
   -4.2154    1.5251    0.0000 O   0  0  0  0  0  0  0  0  0  0  0  0
   -3.6196   -1.0038    0.0000 C   0  0  0  0  0  0  0  0  0  0  0  0
   -4.7561   -0.0248    0.0000 C   0  0  0  0  0  0  0  0  0  0  0  0
  2  1  1  6
  2  3  1  0
  3  4  1  0
  4  5  1  0
  5  6  2  0
  5  7  1  0
  2  8  1  0
  8  9  1  6
  9 10  1  0
 11 10  1  6
 11 12  1  0
 12 13  1  1
 13 14  1  0
 15 14  1  1
 15 16  1  0
 16 17  1  0
 17 18  1  6
 18 19  1  0
 19 20  2  0
 19 21  1  0
 21 22  2  0
 22 23  1  0
 23 24  2  0
 24 25  1  0
 25 26  2  0
 17 27  1  0
 27 28  1  0
 28 29  1  0
 29 30  1  6
 29 31  1  0
 31 32  1  6
 32 33  1  0
 33 34  1  1
 33 35  1  0
 35 36  1  6
 35  8  1  0
 35 11  1  0
 31 12  1  0
 29 15  1  0
 26 21  1  0
M  END
>  <MS_ID>  (2042) 
MS2117

>  <SMILES>  (2042) 
C[C@H](CCC(=O)O)[C@H]1CC[C@H]2[C@@H]3CC[C@@H]4C[C@@H](OC(=O)c5ccccc5)CC[C@]4(C)[C@H]3C[C@H](O)[C@]12C

>  <Structure_dimension>  (2042) 
2D

$$$$
MS2118
     RDKit          2D

 35 39  0  0  0  0  0  0  0  0999 V2000
   -2.8765   -3.3063    0.0000 C   0  0  0  0  0  0  0  0  0  0  0  0
   -1.9107   -2.1586    0.0000 C   0  0  0  0  0  0  0  0  0  0  0  0
   -2.4217   -0.7484    0.0000 C   0  0  0  0  0  0  0  0  0  0  0  0
   -3.8985   -0.4857    0.0000 C   0  0  0  0  0  0  0  0  0  0  0  0
   -4.4095    0.9245    0.0000 C   0  0  0  0  0  0  0  0  0  0  0  0
   -3.4437    2.0722    0.0000 O   0  0  0  0  0  0  0  0  0  0  0  0
   -5.8863    1.1871    0.0000 C   0  0  0  0  0  0  0  0  0  0  0  0
   -6.3973    2.5974    0.0000 C   0  0  0  0  0  0  0  0  0  0  0  0
   -7.8742    2.8600    0.0000 C   0  0  0  0  0  0  0  0  0  0  0  0
   -8.8400    1.7124    0.0000 C   0  0  0  0  0  0  0  0  0  0  0  0
   -8.3290    0.3021    0.0000 N   0  0  0  0  0  0  0  0  0  0  0  0
   -9.2948   -0.8456    0.0000 O   0  0  0  0  0  0  0  0  0  0  0  0
   -6.8522    0.0395    0.0000 C   0  0  0  0  0  0  0  0  0  0  0  0
   -0.4338   -2.4212    0.0000 C   0  0  0  0  0  0  0  0  0  0  0  0
    0.2218   -3.7704    0.0000 C   0  0  0  0  0  0  0  0  0  0  0  0
    1.7075   -3.5638    0.0000 C   0  0  0  0  0  0  0  0  0  0  0  0
    1.9701   -2.0869    0.0000 C   0  0  0  0  0  0  0  0  0  0  0  0
    3.2433   -1.2939    0.0000 C   0  0  0  0  0  0  0  0  0  0  0  0
    4.5667   -2.0000    0.0000 C   0  0  0  0  0  0  0  0  0  0  0  0
    4.6169   -3.4992    0.0000 O   0  0  0  0  0  0  0  0  0  0  0  0
    5.8399   -1.2070    0.0000 C   0  0  0  0  0  0  0  0  0  0  0  0
    5.7897    0.2922    0.0000 C   0  0  0  0  0  0  0  0  0  0  0  0
    7.0630    1.0852    0.0000 C   0  0  0  0  0  0  0  0  0  0  0  0
    7.0128    2.5844    0.0000 C   0  0  0  0  0  0  0  0  0  0  0  0
    8.2860    3.3774    0.0000 O   0  0  0  0  0  0  0  0  0  0  0  0
    5.6894    3.2905    0.0000 C   0  0  0  0  0  0  0  0  0  0  0  0
    4.4162    2.4975    0.0000 C   0  0  0  0  0  0  0  0  0  0  0  0
    4.4663    0.9983    0.0000 C   0  0  0  0  0  0  0  0  0  0  0  0
    3.1429    1.7044    0.0000 C   0  0  0  0  0  0  0  0  0  0  0  0
    3.1931    0.2053    0.0000 C   0  0  0  0  0  0  0  0  0  0  0  0
    1.8697    0.9114    0.0000 C   0  0  0  0  0  0  0  0  0  0  0  0
    0.5965    0.1184    0.0000 C   0  0  0  0  0  0  0  0  0  0  0  0
   -0.7269    0.8245    0.0000 O   0  0  0  0  0  0  0  0  0  0  0  0
    0.6467   -1.3808    0.0000 C   0  0  0  0  0  0  0  0  0  0  0  0
   -0.7433   -0.8169    0.0000 C   0  0  0  0  0  0  0  0  0  0  0  0
  2  1  1  6
  2  3  1  0
  3  4  1  0
  4  5  1  0
  5  6  2  0
  5  7  1  0
  7  8  2  0
  8  9  1  0
  9 10  2  0
 10 11  1  0
 11 12  1  0
 11 13  2  0
  2 14  1  0
 14 15  1  6
 15 16  1  0
 17 16  1  6
 17 18  1  0
 18 19  1  1
 19 20  1  1
 19 21  1  0
 22 21  1  1
 22 23  1  0
 23 24  1  0
 24 25  1  1
 24 26  1  0
 26 27  1  0
 27 28  1  0
 28 29  1  6
 28 30  1  0
 30 31  1  6
 31 32  1  0
 32 33  1  1
 32 34  1  0
 34 35  1  6
 13  7  1  0
 34 14  1  0
 34 17  1  0
 30 18  1  0
 28 22  1  0
M  CHG  2  11   1  12  -1
M  END
>  <MS_ID>  (2043) 
MS2118

>  <SMILES>  (2043) 
C[C@H](CCC(=O)c1ccc[n+]([O-])c1)[C@H]1CC[C@H]2[C@@H]3[C@H](O)C[C@@H]4C[C@H](O)CC[C@]4(C)[C@H]3C[C@H](O)[C@]12C

>  <Structure_dimension>  (2043) 
2D

$$$$
MS2119
     RDKit          2D

 30 33  0  0  0  0  0  0  0  0999 V2000
   -4.0199   -3.1584    0.0000 C   0  0  0  0  0  0  0  0  0  0  0  0
   -2.9902   -2.0677    0.0000 C   0  0  0  0  0  0  0  0  0  0  0  0
   -3.4199   -0.6306    0.0000 C   0  0  0  0  0  0  0  0  0  0  0  0
   -4.8793   -0.2841    0.0000 C   0  0  0  0  0  0  0  0  0  0  0  0
   -5.3090    1.1530    0.0000 C   0  0  0  0  0  0  0  0  0  0  0  0
   -4.2792    2.2437    0.0000 O   0  0  0  0  0  0  0  0  0  0  0  0
   -6.7684    1.4995    0.0000 C   0  0  0  0  0  0  0  0  0  0  0  0
   -7.1981    2.9366    0.0000 C   0  0  0  0  0  0  0  0  0  0  0  0
   -8.6575    3.2831    0.0000 N   0  0  0  0  0  0  0  0  0  0  0  0
   -1.5307   -2.4142    0.0000 C   0  0  0  0  0  0  0  0  0  0  0  0
   -0.9532   -3.7985    0.0000 C   0  0  0  0  0  0  0  0  0  0  0  0
    0.5419   -3.6770    0.0000 C   0  0  0  0  0  0  0  0  0  0  0  0
    0.8883   -2.2176    0.0000 C   0  0  0  0  0  0  0  0  0  0  0  0
    2.2047   -1.4985    0.0000 C   0  0  0  0  0  0  0  0  0  0  0  0
    3.4857   -2.2790    0.0000 C   0  0  0  0  0  0  0  0  0  0  0  0
    4.8021   -1.5599    0.0000 C   0  0  0  0  0  0  0  0  0  0  0  0
    4.8375   -0.0603    0.0000 C   0  0  0  0  0  0  0  0  0  0  0  0
    6.1539    0.6588    0.0000 C   0  0  0  0  0  0  0  0  0  0  0  0
    6.1894    2.1583    0.0000 C   0  0  0  0  0  0  0  0  0  0  0  0
    7.5058    2.8774    0.0000 O   0  0  0  0  0  0  0  0  0  0  0  0
    4.9084    2.9388    0.0000 C   0  0  0  0  0  0  0  0  0  0  0  0
    3.5920    2.2197    0.0000 C   0  0  0  0  0  0  0  0  0  0  0  0
    3.5566    0.7202    0.0000 C   0  0  0  0  0  0  0  0  0  0  0  0
    2.2756    1.5007    0.0000 C   0  0  0  0  0  0  0  0  0  0  0  0
    2.2402    0.0011    0.0000 C   0  0  0  0  0  0  0  0  0  0  0  0
    0.9592    0.7816    0.0000 C   0  0  0  0  0  0  0  0  0  0  0  0
   -0.3572    0.0625    0.0000 C   0  0  0  0  0  0  0  0  0  0  0  0
   -1.6381    0.8430    0.0000 O   0  0  0  0  0  0  0  0  0  0  0  0
   -0.3926   -1.4371    0.0000 C   0  0  0  0  0  0  0  0  0  0  0  0
   -1.7481   -0.7948    0.0000 C   0  0  0  0  0  0  0  0  0  0  0  0
  2  1  1  6
  2  3  1  0
  3  4  1  0
  4  5  1  0
  5  6  2  0
  5  7  1  0
  7  8  1  0
  8  9  1  0
  2 10  1  0
 10 11  1  6
 11 12  1  0
 13 12  1  6
 13 14  1  0
 14 15  1  1
 15 16  1  0
 17 16  1  1
 17 18  1  0
 18 19  1  0
 19 20  2  0
 19 21  1  0
 21 22  1  0
 22 23  1  0
 23 24  1  6
 23 25  1  0
 25 26  1  6
 26 27  1  0
 27 28  1  1
 27 29  1  0
 29 30  1  6
 29 10  1  0
 29 13  1  0
 25 14  1  0
 23 17  1  0
M  END
>  <MS_ID>  (2044) 
MS2119

>  <SMILES>  (2044) 
C[C@H](CCC(=O)CCN)[C@H]1CC[C@H]2[C@@H]3CC[C@@H]4CC(=O)CC[C@]4(C)[C@H]3C[C@H](O)[C@]12C

>  <Structure_dimension>  (2044) 
2D

$$$$
MS2121
     RDKit          2D

 32 35  0  0  0  0  0  0  0  0999 V2000
   -3.2905   -3.6805    0.0000 C   0  0  0  0  0  0  0  0  0  0  0  0
   -2.3609   -2.5033    0.0000 C   0  0  0  0  0  0  0  0  0  0  0  0
   -2.9157   -1.1096    0.0000 C   0  0  0  0  0  0  0  0  0  0  0  0
   -4.4000   -0.8932    0.0000 C   0  0  0  0  0  0  0  0  0  0  0  0
   -4.9547    0.5004    0.0000 C   0  0  0  0  0  0  0  0  0  0  0  0
   -4.0251    1.6776    0.0000 O   0  0  0  0  0  0  0  0  0  0  0  0
   -6.4390    0.7168    0.0000 O   0  0  0  0  0  0  0  0  0  0  0  0
   -6.9938    2.1105    0.0000 C   0  0  0  0  0  0  0  0  0  0  0  0
   -8.3874    1.5557    0.0000 C   0  0  0  0  0  0  0  0  0  0  0  0
   -5.6001    2.6652    0.0000 C   0  0  0  0  0  0  0  0  0  0  0  0
   -7.5485    3.5041    0.0000 O   0  0  0  0  0  0  0  0  0  0  0  0
   -0.8766   -2.7197    0.0000 C   0  0  0  0  0  0  0  0  0  0  0  0
   -0.1792   -4.0477    0.0000 C   0  0  0  0  0  0  0  0  0  0  0  0
    1.2993   -3.7949    0.0000 C   0  0  0  0  0  0  0  0  0  0  0  0
    1.5157   -2.3106    0.0000 C   0  0  0  0  0  0  0  0  0  0  0  0
    2.7636   -1.4782    0.0000 C   0  0  0  0  0  0  0  0  0  0  0  0
    4.1084   -2.1427    0.0000 C   0  0  0  0  0  0  0  0  0  0  0  0
    5.3562   -1.3103    0.0000 C   0  0  0  0  0  0  0  0  0  0  0  0
    5.2593    0.1866    0.0000 C   0  0  0  0  0  0  0  0  0  0  0  0
    6.5071    1.0189    0.0000 C   0  0  0  0  0  0  0  0  0  0  0  0
    6.4102    2.5158    0.0000 C   0  0  0  0  0  0  0  0  0  0  0  0
    7.6581    3.3482    0.0000 O   0  0  0  0  0  0  0  0  0  0  0  0
    5.0654    3.1803    0.0000 C   0  0  0  0  0  0  0  0  0  0  0  0
    3.8176    2.3479    0.0000 C   0  0  0  0  0  0  0  0  0  0  0  0
    3.9145    0.8511    0.0000 C   0  0  0  0  0  0  0  0  0  0  0  0
    2.5697    1.5155    0.0000 C   0  0  0  0  0  0  0  0  0  0  0  0
    2.6666    0.0187    0.0000 C   0  0  0  0  0  0  0  0  0  0  0  0
    1.3218    0.6832    0.0000 C   0  0  0  0  0  0  0  0  0  0  0  0
    0.0740   -0.1492    0.0000 C   0  0  0  0  0  0  0  0  0  0  0  0
   -1.2708    0.5153    0.0000 O   0  0  0  0  0  0  0  0  0  0  0  0
    0.1709   -1.6461    0.0000 C   0  0  0  0  0  0  0  0  0  0  0  0
   -1.2360   -1.1258    0.0000 C   0  0  0  0  0  0  0  0  0  0  0  0
  2  1  1  6
  2  3  1  0
  3  4  1  0
  4  5  1  0
  5  6  2  0
  5  7  1  0
  7  8  1  0
  8  9  1  0
  8 10  1  0
  8 11  1  0
  2 12  1  0
 12 13  1  6
 13 14  1  0
 15 14  1  6
 15 16  1  0
 16 17  1  1
 17 18  1  0
 19 18  1  1
 19 20  1  0
 20 21  1  0
 21 22  1  6
 21 23  1  0
 23 24  1  0
 24 25  1  0
 25 26  1  6
 25 27  1  0
 27 28  1  6
 28 29  1  0
 29 30  1  6
 29 31  1  0
 31 32  1  6
 31 12  1  0
 31 15  1  0
 27 16  1  0
 25 19  1  0
M  END
>  <MS_ID>  (2045) 
MS2121

>  <SMILES>  (2045) 
C[C@H](CCC(=O)OC(C)(C)O)[C@H]1CC[C@H]2[C@@H]3CC[C@@H]4C[C@@H](O)CC[C@]4(C)[C@H]3C[C@@H](O)[C@]12C

>  <Structure_dimension>  (2045) 
2D

$$$$
MS2122
     RDKit          2D

 32 35  0  0  0  0  0  0  0  0999 V2000
   -3.1421   -3.6694    0.0000 C   0  0  0  0  0  0  0  0  0  0  0  0
   -2.2628   -2.4541    0.0000 C   0  0  0  0  0  0  0  0  0  0  0  0
   -2.8756   -1.0850    0.0000 C   0  0  0  0  0  0  0  0  0  0  0  0
   -4.3676   -0.9311    0.0000 C   0  0  0  0  0  0  0  0  0  0  0  0
   -4.9804    0.4380    0.0000 C   0  0  0  0  0  0  0  0  0  0  0  0
   -4.1011    1.6532    0.0000 O   0  0  0  0  0  0  0  0  0  0  0  0
   -6.4725    0.5919    0.0000 N   0  0  0  0  0  0  0  0  0  0  0  0
   -7.0853    1.9610    0.0000 C   0  0  0  0  0  0  0  0  0  0  0  0
   -8.5774    2.1149    0.0000 C   0  0  0  0  0  0  0  0  0  0  0  0
   -9.4567    0.8996    0.0000 O   0  0  0  0  0  0  0  0  0  0  0  0
   -9.1901    3.4840    0.0000 O   0  0  0  0  0  0  0  0  0  0  0  0
   -0.7707   -2.6080    0.0000 C   0  0  0  0  0  0  0  0  0  0  0  0
   -0.0182   -3.9056    0.0000 C   0  0  0  0  0  0  0  0  0  0  0  0
    1.4484   -3.5909    0.0000 C   0  0  0  0  0  0  0  0  0  0  0  0
    1.6023   -2.0988    0.0000 C   0  0  0  0  0  0  0  0  0  0  0  0
    2.8141   -1.2147    0.0000 C   0  0  0  0  0  0  0  0  0  0  0  0
    4.1856   -1.8222    0.0000 C   0  0  0  0  0  0  0  0  0  0  0  0
    4.3453   -3.3136    0.0000 N   0  0  0  0  0  0  0  0  0  0  0  0
    5.3974   -0.9381    0.0000 C   0  0  0  0  0  0  0  0  0  0  0  0
    5.2377    0.5533    0.0000 C   0  0  0  0  0  0  0  0  0  0  0  0
    6.4495    1.4374    0.0000 C   0  0  0  0  0  0  0  0  0  0  0  0
    6.2898    2.9289    0.0000 C   0  0  0  0  0  0  0  0  0  0  0  0
    7.5016    3.8129    0.0000 O   0  0  0  0  0  0  0  0  0  0  0  0
    4.9183    3.5363    0.0000 C   0  0  0  0  0  0  0  0  0  0  0  0
    3.7065    2.6522    0.0000 C   0  0  0  0  0  0  0  0  0  0  0  0
    3.8662    1.1608    0.0000 C   0  0  0  0  0  0  0  0  0  0  0  0
    2.4947    1.7682    0.0000 C   0  0  0  0  0  0  0  0  0  0  0  0
    2.6544    0.2767    0.0000 C   0  0  0  0  0  0  0  0  0  0  0  0
    1.2829    0.8842    0.0000 C   0  0  0  0  0  0  0  0  0  0  0  0
    0.0711    0.0001    0.0000 C   0  0  0  0  0  0  0  0  0  0  0  0
    0.2308   -1.4914    0.0000 C   0  0  0  0  0  0  0  0  0  0  0  0
   -1.1967   -1.0306    0.0000 C   0  0  0  0  0  0  0  0  0  0  0  0
  2  1  1  6
  2  3  1  0
  3  4  1  0
  4  5  1  0
  5  6  2  0
  5  7  1  0
  7  8  1  0
  8  9  1  0
  9 10  2  0
  9 11  1  0
  2 12  1  0
 12 13  1  6
 13 14  1  0
 15 14  1  6
 15 16  1  0
 16 17  1  1
 17 18  1  6
 17 19  1  0
 20 19  1  1
 20 21  1  0
 21 22  1  0
 22 23  1  1
 22 24  1  0
 24 25  1  0
 25 26  1  0
 26 27  1  6
 26 28  1  0
 28 29  1  6
 29 30  1  0
 30 31  1  0
 31 32  1  6
 31 12  1  0
 31 15  1  0
 28 16  1  0
 26 20  1  0
M  END
>  <MS_ID>  (2046) 
MS2122

>  <SMILES>  (2046) 
C[C@H](CCC(=O)NCC(=O)O)[C@H]1CC[C@H]2[C@@H]3[C@@H](N)C[C@@H]4C[C@H](O)CC[C@]4(C)[C@H]3CC[C@]12C

>  <Structure_dimension>  (2046) 
2D

$$$$
MS2123
     RDKit          2D

 33 36  0  0  0  0  0  0  0  0999 V2000
  -11.4048    3.4431    0.0000 C   0  0  0  0  0  0  0  0  0  0  0  0
  -10.6339    2.1564    0.0000 S   0  0  0  0  0  0  0  0  0  0  0  0
   -9.1341    2.1807    0.0000 C   0  0  0  0  0  0  0  0  0  0  0  0
   -8.3632    0.8939    0.0000 C   0  0  0  0  0  0  0  0  0  0  0  0
   -6.8634    0.9182    0.0000 C   0  0  0  0  0  0  0  0  0  0  0  0
   -6.0924   -0.3685    0.0000 N   0  0  0  0  0  0  0  0  0  0  0  0
   -4.5926   -0.3442    0.0000 C   0  0  0  0  0  0  0  0  0  0  0  0
   -3.8638    0.9668    0.0000 O   0  0  0  0  0  0  0  0  0  0  0  0
   -3.8217   -1.6309    0.0000 C   0  0  0  0  0  0  0  0  0  0  0  0
   -2.3219   -1.6066    0.0000 C   0  0  0  0  0  0  0  0  0  0  0  0
   -1.5509   -2.8934    0.0000 C   0  0  0  0  0  0  0  0  0  0  0  0
   -2.2798   -4.2044    0.0000 C   0  0  0  0  0  0  0  0  0  0  0  0
   -0.0511   -2.8691    0.0000 C   0  0  0  0  0  0  0  0  0  0  0  0
    0.8501   -4.0682    0.0000 C   0  0  0  0  0  0  0  0  0  0  0  0
    2.2690   -3.5816    0.0000 C   0  0  0  0  0  0  0  0  0  0  0  0
    2.2447   -2.0818    0.0000 C   0  0  0  0  0  0  0  0  0  0  0  0
    3.3430   -1.0602    0.0000 C   0  0  0  0  0  0  0  0  0  0  0  0
    4.7769   -1.5006    0.0000 C   0  0  0  0  0  0  0  0  0  0  0  0
    5.1125   -2.9625    0.0000 O   0  0  0  0  0  0  0  0  0  0  0  0
    5.8752   -0.4789    0.0000 C   0  0  0  0  0  0  0  0  0  0  0  0
    5.5396    0.9830    0.0000 C   0  0  0  0  0  0  0  0  0  0  0  0
    6.6380    2.0047    0.0000 C   0  0  0  0  0  0  0  0  0  0  0  0
    6.3024    3.4666    0.0000 C   0  0  0  0  0  0  0  0  0  0  0  0
    7.4007    4.4882    0.0000 O   0  0  0  0  0  0  0  0  0  0  0  0
    4.8685    3.9070    0.0000 C   0  0  0  0  0  0  0  0  0  0  0  0
    3.7701    2.8854    0.0000 C   0  0  0  0  0  0  0  0  0  0  0  0
    4.1057    1.4234    0.0000 C   0  0  0  0  0  0  0  0  0  0  0  0
    2.6718    1.8638    0.0000 C   0  0  0  0  0  0  0  0  0  0  0  0
    3.0074    0.4018    0.0000 C   0  0  0  0  0  0  0  0  0  0  0  0
    1.5735    0.8422    0.0000 C   0  0  0  0  0  0  0  0  0  0  0  0
    0.4752   -0.1795    0.0000 C   0  0  0  0  0  0  0  0  0  0  0  0
    0.8108   -1.6414    0.0000 C   0  0  0  0  0  0  0  0  0  0  0  0
   -0.6613   -1.3534    0.0000 C   0  0  0  0  0  0  0  0  0  0  0  0
  1  2  1  0
  2  3  1  0
  3  4  1  0
  4  5  1  0
  5  6  1  0
  6  7  1  0
  7  8  2  0
  7  9  1  0
  9 10  1  0
 10 11  1  0
 11 12  1  6
 11 13  1  0
 13 14  1  6
 14 15  1  0
 16 15  1  6
 16 17  1  0
 17 18  1  1
 18 19  1  1
 18 20  1  0
 21 20  1  1
 21 22  1  0
 22 23  1  0
 23 24  1  1
 23 25  1  0
 25 26  1  0
 26 27  1  0
 27 28  1  6
 27 29  1  0
 29 30  1  6
 30 31  1  0
 31 32  1  0
 32 33  1  6
 32 13  1  0
 32 16  1  0
 29 17  1  0
 27 21  1  0
M  END
>  <MS_ID>  (2047) 
MS2123

>  <SMILES>  (2047) 
CSCCCNC(=O)CC[C@@H](C)[C@H]1CC[C@H]2[C@@H]3[C@H](O)C[C@@H]4C[C@H](O)CC[C@]4(C)[C@H]3CC[C@]12C

>  <Structure_dimension>  (2047) 
2D

$$$$
MS2124
     RDKit          2D

 33 36  0  0  0  0  0  0  0  0999 V2000
   -4.3973    6.2429    0.0000 C   0  0  0  0  0  0  0  0  0  0  0  0
   -5.2121    4.9835    0.0000 C   0  0  0  0  0  0  0  0  0  0  0  0
   -4.5289    3.6481    0.0000 C   0  0  0  0  0  0  0  0  0  0  0  0
   -5.3438    2.3888    0.0000 C   0  0  0  0  0  0  0  0  0  0  0  0
   -4.6606    1.0534    0.0000 S   0  0  0  0  0  0  0  0  0  0  0  0
   -5.4755   -0.2060    0.0000 C   0  0  0  0  0  0  0  0  0  0  0  0
   -6.9735   -0.1300    0.0000 O   0  0  0  0  0  0  0  0  0  0  0  0
   -4.7923   -1.5413    0.0000 C   0  0  0  0  0  0  0  0  0  0  0  0
   -3.2942   -1.6174    0.0000 C   0  0  0  0  0  0  0  0  0  0  0  0
   -2.6110   -2.9527    0.0000 C   0  0  0  0  0  0  0  0  0  0  0  0
   -3.4258   -4.2121    0.0000 C   0  0  0  0  0  0  0  0  0  0  0  0
   -1.1129   -3.0287    0.0000 C   0  0  0  0  0  0  0  0  0  0  0  0
   -0.2939   -4.2854    0.0000 C   0  0  0  0  0  0  0  0  0  0  0  0
    1.1544   -3.8948    0.0000 C   0  0  0  0  0  0  0  0  0  0  0  0
    1.2304   -2.3967    0.0000 C   0  0  0  0  0  0  0  0  0  0  0  0
    2.3945   -1.4508    0.0000 C   0  0  0  0  0  0  0  0  0  0  0  0
    3.7958   -1.9860    0.0000 C   0  0  0  0  0  0  0  0  0  0  0  0
    4.0329   -3.4671    0.0000 O   0  0  0  0  0  0  0  0  0  0  0  0
    4.9600   -1.0401    0.0000 C   0  0  0  0  0  0  0  0  0  0  0  0
    4.7228    0.4411    0.0000 C   0  0  0  0  0  0  0  0  0  0  0  0
    5.8870    1.3870    0.0000 C   0  0  0  0  0  0  0  0  0  0  0  0
    5.6499    2.8681    0.0000 C   0  0  0  0  0  0  0  0  0  0  0  0
    6.8140    3.8140    0.0000 O   0  0  0  0  0  0  0  0  0  0  0  0
    4.2486    3.4034    0.0000 C   0  0  0  0  0  0  0  0  0  0  0  0
    3.0845    2.4574    0.0000 C   0  0  0  0  0  0  0  0  0  0  0  0
    3.3216    0.9763    0.0000 C   0  0  0  0  0  0  0  0  0  0  0  0
    1.9203    1.5115    0.0000 C   0  0  0  0  0  0  0  0  0  0  0  0
    2.1574    0.0304    0.0000 C   0  0  0  0  0  0  0  0  0  0  0  0
    0.7562    0.5656    0.0000 C   0  0  0  0  0  0  0  0  0  0  0  0
   -0.4080   -0.3803    0.0000 C   0  0  0  0  0  0  0  0  0  0  0  0
   -1.8092    0.1549    0.0000 O   0  0  0  0  0  0  0  0  0  0  0  0
   -0.1709   -1.8615    0.0000 C   0  0  0  0  0  0  0  0  0  0  0  0
   -1.6204   -1.4756    0.0000 C   0  0  0  0  0  0  0  0  0  0  0  0
  1  2  1  0
  2  3  1  0
  3  4  1  0
  4  5  1  0
  5  6  1  0
  6  7  2  0
  6  8  1  0
  8  9  1  0
  9 10  1  0
 10 11  1  6
 10 12  1  0
 12 13  1  6
 13 14  1  0
 15 14  1  6
 15 16  1  0
 16 17  1  1
 17 18  1  1
 17 19  1  0
 20 19  1  1
 20 21  1  0
 21 22  1  0
 22 23  1  1
 22 24  1  0
 24 25  1  0
 25 26  1  0
 26 27  1  6
 26 28  1  0
 28 29  1  6
 29 30  1  0
 30 31  1  1
 30 32  1  0
 32 33  1  6
 32 12  1  0
 32 15  1  0
 28 16  1  0
 26 20  1  0
M  END
>  <MS_ID>  (2048) 
MS2124

>  <SMILES>  (2048) 
CCCCSC(=O)CC[C@@H](C)[C@H]1CC[C@H]2[C@@H]3[C@H](O)C[C@@H]4C[C@H](O)CC[C@]4(C)[C@H]3C[C@H](O)[C@]12C

>  <Structure_dimension>  (2048) 
2D

$$$$
MS2125
     RDKit          2D

 34 37  0  0  0  0  0  0  0  0999 V2000
   -5.2480    2.5972    0.0000 C   0  0  0  0  0  0  0  0  0  0  0  0
   -3.9238    1.8925    0.0000 C   0  0  0  0  0  0  0  0  0  0  0  0
   -2.6514    2.6869    0.0000 C   0  0  0  0  0  0  0  0  0  0  0  0
   -3.8721    0.3934    0.0000 C   0  0  0  0  0  0  0  0  0  0  0  0
   -5.1444   -0.4010    0.0000 C   0  0  0  0  0  0  0  0  0  0  0  0
   -6.4686    0.3037    0.0000 C   0  0  0  0  0  0  0  0  0  0  0  0
   -7.7410   -0.4907    0.0000 C   0  0  0  0  0  0  0  0  0  0  0  0
   -7.6892   -1.9898    0.0000 O   0  0  0  0  0  0  0  0  0  0  0  0
   -9.0651    0.2141    0.0000 O   0  0  0  0  0  0  0  0  0  0  0  0
   -2.5479   -0.3114    0.0000 C   0  0  0  0  0  0  0  0  0  0  0  0
   -2.3397   -1.7968    0.0000 C   0  0  0  0  0  0  0  0  0  0  0  0
   -0.8626   -2.0579    0.0000 C   0  0  0  0  0  0  0  0  0  0  0  0
   -0.1579   -0.7337    0.0000 C   0  0  0  0  0  0  0  0  0  0  0  0
    1.2977   -0.3714    0.0000 C   0  0  0  0  0  0  0  0  0  0  0  0
    2.3393   -1.4509    0.0000 C   0  0  0  0  0  0  0  0  0  0  0  0
    1.9252   -2.8926    0.0000 O   0  0  0  0  0  0  0  0  0  0  0  0
    2.9668   -3.9720    0.0000 S   0  0  0  0  0  0  0  0  0  0  0  0
    4.0462   -2.9304    0.0000 O   0  0  0  0  0  0  0  0  0  0  0  0
    1.8874   -5.0136    0.0000 O   0  0  0  0  0  0  0  0  0  0  0  0
    4.0084   -5.0514    0.0000 O   0  0  0  0  0  0  0  0  0  0  0  0
    3.7948   -1.0885    0.0000 C   0  0  0  0  0  0  0  0  0  0  0  0
    4.2089    0.3532    0.0000 C   0  0  0  0  0  0  0  0  0  0  0  0
    5.6644    0.7155    0.0000 C   0  0  0  0  0  0  0  0  0  0  0  0
    6.0785    2.1572    0.0000 C   0  0  0  0  0  0  0  0  0  0  0  0
    7.5341    2.5195    0.0000 O   0  0  0  0  0  0  0  0  0  0  0  0
    5.0369    3.2367    0.0000 C   0  0  0  0  0  0  0  0  0  0  0  0
    3.5813    2.8743    0.0000 C   0  0  0  0  0  0  0  0  0  0  0  0
    3.1673    1.4326    0.0000 C   0  0  0  0  0  0  0  0  0  0  0  0
    2.1257    2.5120    0.0000 C   0  0  0  0  0  0  0  0  0  0  0  0
    1.7117    1.0703    0.0000 C   0  0  0  0  0  0  0  0  0  0  0  0
    0.6701    2.1497    0.0000 C   0  0  0  0  0  0  0  0  0  0  0  0
   -0.7854    1.7874    0.0000 C   0  0  0  0  0  0  0  0  0  0  0  0
   -1.1995    0.3457    0.0000 C   0  0  0  0  0  0  0  0  0  0  0  0
   -2.3481    1.3103    0.0000 C   0  0  0  0  0  0  0  0  0  0  0  0
  1  2  1  0
  2  3  1  0
  2  4  1  0
  4  5  1  1
  5  6  1  0
  6  7  1  0
  7  8  2  0
  7  9  1  0
  4 10  1  0
 10 11  1  6
 11 12  1  0
 13 12  1  6
 13 14  1  0
 14 15  1  1
 15 16  1  6
 16 17  1  0
 17 18  2  0
 17 19  2  0
 17 20  1  0
 15 21  1  0
 22 21  1  1
 22 23  1  0
 23 24  1  0
 24 25  1  1
 24 26  1  0
 26 27  1  0
 27 28  1  0
 28 29  1  6
 28 30  1  0
 30 31  1  6
 31 32  1  0
 32 33  1  0
 33 34  1  6
 33 10  1  0
 33 13  1  0
 30 14  1  0
 28 22  1  0
M  END
>  <MS_ID>  (2049) 
MS2125

>  <SMILES>  (2049) 
CC(C)[C@H](CCC(=O)O)[C@H]1CC[C@H]2[C@@H]3[C@@H](OS(=O)(=O)O)C[C@@H]4C[C@H](O)CC[C@]4(C)[C@H]3CC[C@]12C

>  <Structure_dimension>  (2049) 
2D

$$$$
MS2126
     RDKit          2D

 32 35  0  0  0  0  0  0  0  0999 V2000
   -5.1569   -2.5516    0.0000 C   0  0  0  0  0  0  0  0  0  0  0  0
   -4.1971   -1.3989    0.0000 C   0  0  0  0  0  0  0  0  0  0  0  0
   -4.7155    0.0087    0.0000 C   0  0  0  0  0  0  0  0  0  0  0  0
   -6.1937    0.2635    0.0000 C   0  0  0  0  0  0  0  0  0  0  0  0
   -6.7121    1.6711    0.0000 C   0  0  0  0  0  0  0  0  0  0  0  0
   -5.7523    2.8238    0.0000 O   0  0  0  0  0  0  0  0  0  0  0  0
   -8.1903    1.9259    0.0000 O   0  0  0  0  0  0  0  0  0  0  0  0
   -2.7189   -1.6538    0.0000 C   0  0  0  0  0  0  0  0  0  0  0  0
   -2.0562   -2.9994    0.0000 C   0  0  0  0  0  0  0  0  0  0  0  0
   -0.5716   -2.7850    0.0000 C   0  0  0  0  0  0  0  0  0  0  0  0
   -0.3168   -1.3068    0.0000 C   0  0  0  0  0  0  0  0  0  0  0  0
    0.9523   -0.5071    0.0000 C   0  0  0  0  0  0  0  0  0  0  0  0
    2.2794   -1.2062    0.0000 C   0  0  0  0  0  0  0  0  0  0  0  0
    2.3374   -2.7051    0.0000 O   0  0  0  0  0  0  0  0  0  0  0  0
    3.6645   -3.4043    0.0000 S   0  0  0  0  0  0  0  0  0  0  0  0
    4.3637   -2.0772    0.0000 O   0  0  0  0  0  0  0  0  0  0  0  0
    2.9654   -4.7314    0.0000 O   0  0  0  0  0  0  0  0  0  0  0  0
    4.9916   -4.1034    0.0000 O   0  0  0  0  0  0  0  0  0  0  0  0
    3.5484   -0.4065    0.0000 C   0  0  0  0  0  0  0  0  0  0  0  0
    3.4903    1.0923    0.0000 C   0  0  0  0  0  0  0  0  0  0  0  0
    4.7594    1.8921    0.0000 C   0  0  0  0  0  0  0  0  0  0  0  0
    4.7013    3.3909    0.0000 C   0  0  0  0  0  0  0  0  0  0  0  0
    5.9703    4.1907    0.0000 O   0  0  0  0  0  0  0  0  0  0  0  0
    3.3742    4.0901    0.0000 C   0  0  0  0  0  0  0  0  0  0  0  0
    2.1052    3.2904    0.0000 C   0  0  0  0  0  0  0  0  0  0  0  0
    2.1632    1.7915    0.0000 C   0  0  0  0  0  0  0  0  0  0  0  0
    0.8361    2.4907    0.0000 C   0  0  0  0  0  0  0  0  0  0  0  0
    0.8942    0.9918    0.0000 C   0  0  0  0  0  0  0  0  0  0  0  0
   -0.4329    1.6909    0.0000 C   0  0  0  0  0  0  0  0  0  0  0  0
   -1.7019    0.8912    0.0000 C   0  0  0  0  0  0  0  0  0  0  0  0
   -1.6439   -0.6077    0.0000 C   0  0  0  0  0  0  0  0  0  0  0  0
   -3.0368   -0.0511    0.0000 C   0  0  0  0  0  0  0  0  0  0  0  0
  2  1  1  6
  2  3  1  0
  3  4  1  0
  4  5  1  0
  5  6  2  0
  5  7  1  0
  2  8  1  0
  8  9  1  6
  9 10  1  0
 11 10  1  6
 11 12  1  0
 12 13  1  1
 13 14  1  6
 14 15  1  0
 15 16  2  0
 15 17  2  0
 15 18  1  0
 13 19  1  0
 20 19  1  1
 20 21  1  0
 21 22  1  0
 22 23  1  6
 22 24  1  0
 24 25  1  0
 25 26  1  0
 26 27  1  6
 26 28  1  0
 28 29  1  6
 29 30  1  0
 30 31  1  0
 31 32  1  6
 31  8  1  0
 31 11  1  0
 28 12  1  0
 26 20  1  0
M  END
>  <MS_ID>  (2050) 
MS2126

>  <SMILES>  (2050) 
C[C@H](CCC(=O)O)[C@H]1CC[C@H]2[C@@H]3[C@@H](OS(=O)(=O)O)C[C@@H]4C[C@@H](O)CC[C@]4(C)[C@H]3CC[C@]12C

>  <Structure_dimension>  (2050) 
2D

$$$$
MS2127
     RDKit          2D

 39 43  0  0  0  0  0  0  0  0999 V2000
   -0.7193   -4.8292    0.0000 C   0  0  0  0  0  0  0  0  0  0  0  0
   -0.1477   -3.4424    0.0000 C   0  0  0  0  0  0  0  0  0  0  0  0
   -1.0630   -2.2540    0.0000 C   0  0  0  0  0  0  0  0  0  0  0  0
   -2.5498   -2.4524    0.0000 C   0  0  0  0  0  0  0  0  0  0  0  0
   -3.4650   -1.2640    0.0000 C   0  0  0  0  0  0  0  0  0  0  0  0
   -2.8935    0.1228    0.0000 O   0  0  0  0  0  0  0  0  0  0  0  0
   -4.9519   -1.4625    0.0000 O   0  0  0  0  0  0  0  0  0  0  0  0
   -5.8671   -0.2741    0.0000 C   0  0  0  0  0  0  0  0  0  0  0  0
   -5.2956    1.1128    0.0000 O   0  0  0  0  0  0  0  0  0  0  0  0
   -6.2108    2.3012    0.0000 C   0  0  0  0  0  0  0  0  0  0  0  0
   -5.6393    3.6880    0.0000 C   0  0  0  0  0  0  0  0  0  0  0  0
   -4.1524    3.8864    0.0000 O   0  0  0  0  0  0  0  0  0  0  0  0
   -7.6976    2.1027    0.0000 C   0  0  0  0  0  0  0  0  0  0  0  0
   -8.6129    3.2911    0.0000 O   0  0  0  0  0  0  0  0  0  0  0  0
   -8.2692    0.7159    0.0000 C   0  0  0  0  0  0  0  0  0  0  0  0
   -9.7560    0.5175    0.0000 O   0  0  0  0  0  0  0  0  0  0  0  0
   -7.3539   -0.4725    0.0000 C   0  0  0  0  0  0  0  0  0  0  0  0
   -7.9255   -1.8593    0.0000 O   0  0  0  0  0  0  0  0  0  0  0  0
    1.3391   -3.2440    0.0000 C   0  0  0  0  0  0  0  0  0  0  0  0
    2.3736   -4.3302    0.0000 C   0  0  0  0  0  0  0  0  0  0  0  0
    3.7263   -3.6820    0.0000 C   0  0  0  0  0  0  0  0  0  0  0  0
    3.5279   -2.1952    0.0000 C   0  0  0  0  0  0  0  0  0  0  0  0
    4.5000   -1.0529    0.0000 C   0  0  0  0  0  0  0  0  0  0  0  0
    5.9754   -1.3236    0.0000 C   0  0  0  0  0  0  0  0  0  0  0  0
    6.4786   -2.7367    0.0000 O   0  0  0  0  0  0  0  0  0  0  0  0
    6.9475   -0.1813    0.0000 C   0  0  0  0  0  0  0  0  0  0  0  0
    6.4443    1.2318    0.0000 C   0  0  0  0  0  0  0  0  0  0  0  0
    7.4164    2.3742    0.0000 C   0  0  0  0  0  0  0  0  0  0  0  0
    6.9132    3.7872    0.0000 C   0  0  0  0  0  0  0  0  0  0  0  0
    7.8853    4.9296    0.0000 O   0  0  0  0  0  0  0  0  0  0  0  0
    5.4378    4.0580    0.0000 C   0  0  0  0  0  0  0  0  0  0  0  0
    4.4657    2.9156    0.0000 C   0  0  0  0  0  0  0  0  0  0  0  0
    4.9689    1.5025    0.0000 C   0  0  0  0  0  0  0  0  0  0  0  0
    3.4936    1.7733    0.0000 C   0  0  0  0  0  0  0  0  0  0  0  0
    3.9968    0.3602    0.0000 C   0  0  0  0  0  0  0  0  0  0  0  0
    2.5214    0.6309    0.0000 C   0  0  0  0  0  0  0  0  0  0  0  0
    1.5493   -0.5114    0.0000 C   0  0  0  0  0  0  0  0  0  0  0  0
    2.0525   -1.9245    0.0000 C   0  0  0  0  0  0  0  0  0  0  0  0
    0.5569   -1.8095    0.0000 C   0  0  0  0  0  0  0  0  0  0  0  0
  2  1  1  6
  2  3  1  0
  3  4  1  0
  4  5  1  0
  5  6  2  0
  5  7  1  0
  8  7  1  1
  8  9  1  0
  9 10  1  0
 10 11  1  1
 11 12  1  0
 10 13  1  0
 13 14  1  6
 13 15  1  0
 15 16  1  1
 15 17  1  0
 17 18  1  6
  2 19  1  0
 19 20  1  6
 20 21  1  0
 22 21  1  6
 22 23  1  0
 23 24  1  1
 24 25  1  6
 24 26  1  0
 27 26  1  1
 27 28  1  0
 28 29  1  0
 29 30  1  1
 29 31  1  0
 31 32  1  0
 32 33  1  0
 33 34  1  6
 33 35  1  0
 35 36  1  6
 36 37  1  0
 37 38  1  0
 38 39  1  6
 17  8  1  0
 38 19  1  0
 38 22  1  0
 35 23  1  0
 33 27  1  0
M  END
>  <MS_ID>  (2051) 
MS2127

>  <SMILES>  (2051) 
C[C@H](CCC(=O)O[C@@H]1O[C@H](CO)[C@@H](O)[C@H](O)[C@H]1O)[C@H]1CC[C@H]2[C@@H]3[C@@H](O)C[C@@H]4C[C@H](O)CC[C@]4(C)[C@H]3CC[C@]12C

>  <Structure_dimension>  (2051) 
2D

$$$$
MS2128
     RDKit          2D

 39 43  0  0  0  0  0  0  0  0999 V2000
   -0.3543   -4.9893    0.0000 C   0  0  0  0  0  0  0  0  0  0  0  0
    0.1081   -3.5624    0.0000 C   0  0  0  0  0  0  0  0  0  0  0  0
   -0.8964   -2.4484    0.0000 C   0  0  0  0  0  0  0  0  0  0  0  0
   -2.3634   -2.7614    0.0000 C   0  0  0  0  0  0  0  0  0  0  0  0
   -3.3679   -1.6474    0.0000 C   0  0  0  0  0  0  0  0  0  0  0  0
   -2.9055   -0.2205    0.0000 O   0  0  0  0  0  0  0  0  0  0  0  0
   -4.8349   -1.9604    0.0000 N   0  0  0  0  0  0  0  0  0  0  0  0
   -5.8394   -0.8465    0.0000 C   0  0  0  0  0  0  0  0  0  0  0  0
   -5.3770    0.5805    0.0000 C   0  0  0  0  0  0  0  0  0  0  0  0
   -6.3815    1.6944    0.0000 C   0  0  0  0  0  0  0  0  0  0  0  0
   -7.8485    1.3814    0.0000 C   0  0  0  0  0  0  0  0  0  0  0  0
   -8.8531    2.4954    0.0000 S   0  0  0  0  0  0  0  0  0  0  0  0
   -9.8576    3.6094    0.0000 C   0  0  0  0  0  0  0  0  0  0  0  0
   -9.9670    1.4909    0.0000 O   0  0  0  0  0  0  0  0  0  0  0  0
   -7.7391    3.4999    0.0000 O   0  0  0  0  0  0  0  0  0  0  0  0
   -8.3110   -0.0455    0.0000 C   0  0  0  0  0  0  0  0  0  0  0  0
   -7.3064   -1.1594    0.0000 C   0  0  0  0  0  0  0  0  0  0  0  0
    1.5751   -3.2494    0.0000 C   0  0  0  0  0  0  0  0  0  0  0  0
    2.6906   -4.2523    0.0000 C   0  0  0  0  0  0  0  0  0  0  0  0
    3.9891   -3.5013    0.0000 C   0  0  0  0  0  0  0  0  0  0  0  0
    3.6761   -2.0343    0.0000 C   0  0  0  0  0  0  0  0  0  0  0  0
    4.5569   -0.8201    0.0000 C   0  0  0  0  0  0  0  0  0  0  0  0
    6.0488   -0.9758    0.0000 C   0  0  0  0  0  0  0  0  0  0  0  0
    6.6599   -2.3456    0.0000 O   0  0  0  0  0  0  0  0  0  0  0  0
    6.9295    0.2384    0.0000 C   0  0  0  0  0  0  0  0  0  0  0  0
    6.3184    1.6083    0.0000 C   0  0  0  0  0  0  0  0  0  0  0  0
    7.1991    2.8225    0.0000 C   0  0  0  0  0  0  0  0  0  0  0  0
    6.5880    4.1923    0.0000 C   0  0  0  0  0  0  0  0  0  0  0  0
    7.4688    5.4065    0.0000 O   0  0  0  0  0  0  0  0  0  0  0  0
    5.0961    4.3480    0.0000 C   0  0  0  0  0  0  0  0  0  0  0  0
    4.2153    3.1338    0.0000 C   0  0  0  0  0  0  0  0  0  0  0  0
    4.8265    1.7639    0.0000 C   0  0  0  0  0  0  0  0  0  0  0  0
    3.3346    1.9196    0.0000 C   0  0  0  0  0  0  0  0  0  0  0  0
    3.9457    0.5497    0.0000 C   0  0  0  0  0  0  0  0  0  0  0  0
    2.4538    0.7054    0.0000 C   0  0  0  0  0  0  0  0  0  0  0  0
    1.5731   -0.5088    0.0000 C   0  0  0  0  0  0  0  0  0  0  0  0
    0.0812   -0.3531    0.0000 O   0  0  0  0  0  0  0  0  0  0  0  0
    2.1842   -1.8786    0.0000 C   0  0  0  0  0  0  0  0  0  0  0  0
    0.6842   -1.8798    0.0000 C   0  0  0  0  0  0  0  0  0  0  0  0
  2  1  1  6
  2  3  1  0
  3  4  1  0
  4  5  1  0
  5  6  2  0
  5  7  1  0
  7  8  1  0
  8  9  2  0
  9 10  1  0
 10 11  2  0
 11 12  1  0
 12 13  1  0
 12 14  2  0
 12 15  2  0
 11 16  1  0
 16 17  2  0
  2 18  1  0
 18 19  1  6
 19 20  1  0
 21 20  1  6
 21 22  1  0
 22 23  1  1
 23 24  1  1
 23 25  1  0
 26 25  1  1
 26 27  1  0
 27 28  1  0
 28 29  1  1
 28 30  1  0
 30 31  1  0
 31 32  1  0
 32 33  1  6
 32 34  1  0
 34 35  1  6
 35 36  1  0
 36 37  1  1
 36 38  1  0
 38 39  1  6
 17  8  1  0
 38 18  1  0
 38 21  1  0
 34 22  1  0
 32 26  1  0
M  END
>  <MS_ID>  (2052) 
MS2128

>  <SMILES>  (2052) 
C[C@H](CCC(=O)Nc1ccc(S(C)(=O)=O)cc1)[C@H]1CC[C@H]2[C@@H]3[C@H](O)C[C@@H]4C[C@H](O)CC[C@]4(C)[C@H]3C[C@H](O)[C@]12C

>  <Structure_dimension>  (2052) 
2D

$$$$
MS2129
     RDKit          2D

 31 34  0  0  0  0  0  0  0  0999 V2000
   -4.4281   -2.8097    0.0000 C   0  0  0  0  0  0  0  0  0  0  0  0
   -3.3906   -1.7263    0.0000 C   0  0  0  0  0  0  0  0  0  0  0  0
   -3.8101   -0.2862    0.0000 C   0  0  0  0  0  0  0  0  0  0  0  0
   -5.2670    0.0707    0.0000 C   0  0  0  0  0  0  0  0  0  0  0  0
   -5.6865    1.5108    0.0000 C   0  0  0  0  0  0  0  0  0  0  0  0
   -4.6490    2.5942    0.0000 O   0  0  0  0  0  0  0  0  0  0  0  0
   -7.1434    1.8677    0.0000 C   0  0  0  0  0  0  0  0  0  0  0  0
   -7.5628    3.3078    0.0000 N   0  0  0  0  0  0  0  0  0  0  0  0
   -8.1809    0.7843    0.0000 O   0  0  0  0  0  0  0  0  0  0  0  0
   -1.9337   -2.0832    0.0000 C   0  0  0  0  0  0  0  0  0  0  0  0
   -1.3660   -3.4716    0.0000 C   0  0  0  0  0  0  0  0  0  0  0  0
    0.1299   -3.3608    0.0000 C   0  0  0  0  0  0  0  0  0  0  0  0
    0.4867   -1.9038    0.0000 C   0  0  0  0  0  0  0  0  0  0  0  0
    1.8082   -1.1941    0.0000 C   0  0  0  0  0  0  0  0  0  0  0  0
    3.0836   -1.9837    0.0000 C   0  0  0  0  0  0  0  0  0  0  0  0
    3.0374   -3.4830    0.0000 O   0  0  0  0  0  0  0  0  0  0  0  0
    4.4050   -1.2740    0.0000 C   0  0  0  0  0  0  0  0  0  0  0  0
    5.6804   -2.0636    0.0000 O   0  0  0  0  0  0  0  0  0  0  0  0
    4.4512    0.2253    0.0000 C   0  0  0  0  0  0  0  0  0  0  0  0
    5.7727    0.9350    0.0000 C   0  0  0  0  0  0  0  0  0  0  0  0
    5.8188    2.4343    0.0000 C   0  0  0  0  0  0  0  0  0  0  0  0
    7.1403    3.1440    0.0000 O   0  0  0  0  0  0  0  0  0  0  0  0
    4.5434    3.2239    0.0000 C   0  0  0  0  0  0  0  0  0  0  0  0
    3.2219    2.5142    0.0000 C   0  0  0  0  0  0  0  0  0  0  0  0
    3.1758    1.0149    0.0000 C   0  0  0  0  0  0  0  0  0  0  0  0
    1.9004    1.8045    0.0000 C   0  0  0  0  0  0  0  0  0  0  0  0
    1.8543    0.3052    0.0000 C   0  0  0  0  0  0  0  0  0  0  0  0
    0.5790    1.0948    0.0000 C   0  0  0  0  0  0  0  0  0  0  0  0
   -0.7425    0.3851    0.0000 C   0  0  0  0  0  0  0  0  0  0  0  0
   -0.7887   -1.1142    0.0000 C   0  0  0  0  0  0  0  0  0  0  0  0
   -2.1396   -0.4623    0.0000 C   0  0  0  0  0  0  0  0  0  0  0  0
  2  1  1  6
  2  3  1  0
  3  4  1  0
  4  5  1  0
  5  6  2  0
  5  7  1  0
  7  8  1  0
  7  9  2  0
  2 10  1  0
 10 11  1  6
 11 12  1  0
 13 12  1  6
 13 14  1  0
 14 15  1  1
 15 16  1  1
 15 17  1  0
 17 18  1  1
 17 19  1  0
 19 20  1  1
 20 21  1  0
 21 22  1  1
 21 23  1  0
 23 24  1  0
 24 25  1  0
 25 26  1  6
 25 27  1  0
 27 28  1  6
 28 29  1  0
 29 30  1  0
 30 31  1  6
 30 10  1  0
 30 13  1  0
 27 14  1  0
 25 19  1  0
M  END
>  <MS_ID>  (2053) 
MS2129

>  <SMILES>  (2053) 
C[C@H](CCC(=O)C(N)=O)[C@H]1CC[C@H]2[C@@H]3[C@H](O)[C@H](O)[C@@H]4C[C@H](O)CC[C@]4(C)[C@H]3CC[C@]12C

>  <Structure_dimension>  (2053) 
2D

$$$$
MS2130
     RDKit          2D

 30 33  0  0  0  0  0  0  0  0999 V2000
   -5.1470   -2.0510    0.0000 C   0  0  0  0  0  0  0  0  0  0  0  0
   -4.0254   -1.0550    0.0000 C   0  0  0  0  0  0  0  0  0  0  0  0
   -4.3272    0.4144    0.0000 C   0  0  0  0  0  0  0  0  0  0  0  0
   -5.7505    0.8877    0.0000 C   0  0  0  0  0  0  0  0  0  0  0  0
   -6.0523    2.3570    0.0000 C   0  0  0  0  0  0  0  0  0  0  0  0
   -4.9307    3.3530    0.0000 O   0  0  0  0  0  0  0  0  0  0  0  0
   -7.4757    2.8303    0.0000 O   0  0  0  0  0  0  0  0  0  0  0  0
   -2.6020   -1.5283    0.0000 C   0  0  0  0  0  0  0  0  0  0  0  0
   -2.1483   -2.9580    0.0000 C   0  0  0  0  0  0  0  0  0  0  0  0
   -0.6483   -2.9683    0.0000 C   0  0  0  0  0  0  0  0  0  0  0  0
   -0.1750   -1.5449    0.0000 C   0  0  0  0  0  0  0  0  0  0  0  0
    1.1995   -0.9443    0.0000 C   0  0  0  0  0  0  0  0  0  0  0  0
    2.4069   -1.8342    0.0000 C   0  0  0  0  0  0  0  0  0  0  0  0
    2.2399   -3.3249    0.0000 C   0  0  0  0  0  0  0  0  0  0  0  0
    0.8654   -3.9256    0.0000 O   0  0  0  0  0  0  0  0  0  0  0  0
    3.4473   -4.2149    0.0000 O   0  0  0  0  0  0  0  0  0  0  0  0
    3.7814   -1.2336    0.0000 C   0  0  0  0  0  0  0  0  0  0  0  0
    3.9484    0.2571    0.0000 C   0  0  0  0  0  0  0  0  0  0  0  0
    5.3229    0.8578    0.0000 C   0  0  0  0  0  0  0  0  0  0  0  0
    5.4899    2.3485    0.0000 C   0  0  0  0  0  0  0  0  0  0  0  0
    6.8644    2.9492    0.0000 O   0  0  0  0  0  0  0  0  0  0  0  0
    4.2825    3.2385    0.0000 C   0  0  0  0  0  0  0  0  0  0  0  0
    2.9080    2.6378    0.0000 C   0  0  0  0  0  0  0  0  0  0  0  0
    2.7410    1.1471    0.0000 C   0  0  0  0  0  0  0  0  0  0  0  0
    1.5335    2.0371    0.0000 C   0  0  0  0  0  0  0  0  0  0  0  0
    1.3665    0.5464    0.0000 C   0  0  0  0  0  0  0  0  0  0  0  0
    0.1591    1.4364    0.0000 C   0  0  0  0  0  0  0  0  0  0  0  0
   -1.2154    0.8357    0.0000 C   0  0  0  0  0  0  0  0  0  0  0  0
   -1.3825   -0.6549    0.0000 C   0  0  0  0  0  0  0  0  0  0  0  0
   -2.6763    0.1040    0.0000 C   0  0  0  0  0  0  0  0  0  0  0  0
  2  1  1  6
  2  3  1  0
  3  4  1  0
  4  5  1  0
  5  6  2  0
  5  7  1  0
  2  8  1  0
  8  9  1  6
  9 10  1  0
 11 10  1  6
 11 12  1  0
 12 13  1  1
 13 14  1  6
 14 15  2  0
 14 16  1  0
 13 17  1  0
 18 17  1  1
 18 19  1  0
 19 20  1  0
 20 21  1  1
 20 22  1  0
 22 23  1  0
 23 24  1  0
 24 25  1  6
 24 26  1  0
 26 27  1  6
 27 28  1  0
 28 29  1  0
 29 30  1  6
 29  8  1  0
 29 11  1  0
 26 12  1  0
 24 18  1  0
M  END
>  <MS_ID>  (2054) 
MS2130

>  <SMILES>  (2054) 
C[C@H](CCC(=O)O)[C@H]1CC[C@H]2[C@@H]3[C@@H](C(=O)O)C[C@@H]4C[C@H](O)CC[C@]4(C)[C@H]3CC[C@]12C

>  <Structure_dimension>  (2054) 
2D

$$$$
MS2131
     RDKit          2D

 32 35  0  0  0  0  0  0  0  0999 V2000
   -3.1421   -3.6694    0.0000 C   0  0  0  0  0  0  0  0  0  0  0  0
   -2.2628   -2.4541    0.0000 C   0  0  0  0  0  0  0  0  0  0  0  0
   -2.8756   -1.0850    0.0000 C   0  0  0  0  0  0  0  0  0  0  0  0
   -4.3676   -0.9311    0.0000 C   0  0  0  0  0  0  0  0  0  0  0  0
   -4.9804    0.4380    0.0000 C   0  0  0  0  0  0  0  0  0  0  0  0
   -4.1011    1.6532    0.0000 O   0  0  0  0  0  0  0  0  0  0  0  0
   -6.4725    0.5919    0.0000 O   0  0  0  0  0  0  0  0  0  0  0  0
   -7.0853    1.9610    0.0000 C   0  0  0  0  0  0  0  0  0  0  0  0
   -8.5774    2.1149    0.0000 C   0  0  0  0  0  0  0  0  0  0  0  0
   -9.4567    0.8996    0.0000 O   0  0  0  0  0  0  0  0  0  0  0  0
   -9.1901    3.4840    0.0000 O   0  0  0  0  0  0  0  0  0  0  0  0
   -0.7707   -2.6080    0.0000 C   0  0  0  0  0  0  0  0  0  0  0  0
   -0.0182   -3.9056    0.0000 C   0  0  0  0  0  0  0  0  0  0  0  0
    1.4484   -3.5909    0.0000 C   0  0  0  0  0  0  0  0  0  0  0  0
    1.6023   -2.0988    0.0000 C   0  0  0  0  0  0  0  0  0  0  0  0
    2.8141   -1.2147    0.0000 C   0  0  0  0  0  0  0  0  0  0  0  0
    4.1856   -1.8222    0.0000 C   0  0  0  0  0  0  0  0  0  0  0  0
    4.3453   -3.3136    0.0000 O   0  0  0  0  0  0  0  0  0  0  0  0
    5.3974   -0.9381    0.0000 C   0  0  0  0  0  0  0  0  0  0  0  0
    5.2377    0.5533    0.0000 C   0  0  0  0  0  0  0  0  0  0  0  0
    6.4495    1.4374    0.0000 C   0  0  0  0  0  0  0  0  0  0  0  0
    6.2898    2.9289    0.0000 C   0  0  0  0  0  0  0  0  0  0  0  0
    7.5016    3.8129    0.0000 O   0  0  0  0  0  0  0  0  0  0  0  0
    4.9183    3.5363    0.0000 C   0  0  0  0  0  0  0  0  0  0  0  0
    3.7065    2.6522    0.0000 C   0  0  0  0  0  0  0  0  0  0  0  0
    3.8662    1.1608    0.0000 C   0  0  0  0  0  0  0  0  0  0  0  0
    2.4947    1.7682    0.0000 C   0  0  0  0  0  0  0  0  0  0  0  0
    2.6544    0.2767    0.0000 C   0  0  0  0  0  0  0  0  0  0  0  0
    1.2829    0.8842    0.0000 C   0  0  0  0  0  0  0  0  0  0  0  0
    0.0711    0.0001    0.0000 C   0  0  0  0  0  0  0  0  0  0  0  0
    0.2308   -1.4914    0.0000 C   0  0  0  0  0  0  0  0  0  0  0  0
   -1.1967   -1.0306    0.0000 C   0  0  0  0  0  0  0  0  0  0  0  0
  2  1  1  6
  2  3  1  0
  3  4  1  0
  4  5  1  0
  5  6  2  0
  5  7  1  0
  7  8  1  0
  8  9  1  0
  9 10  2  0
  9 11  1  0
  2 12  1  0
 12 13  1  6
 13 14  1  0
 15 14  1  6
 15 16  1  0
 16 17  1  1
 17 18  1  1
 17 19  1  0
 20 19  1  1
 20 21  1  0
 21 22  1  0
 22 23  2  0
 22 24  1  0
 24 25  1  0
 25 26  1  0
 26 27  1  6
 26 28  1  0
 28 29  1  6
 29 30  1  0
 30 31  1  0
 31 32  1  6
 31 12  1  0
 31 15  1  0
 28 16  1  0
 26 20  1  0
M  END
>  <MS_ID>  (2055) 
MS2131

>  <SMILES>  (2055) 
C[C@H](CCC(=O)OCC(=O)O)[C@H]1CC[C@H]2[C@@H]3[C@H](O)C[C@@H]4CC(=O)CC[C@]4(C)[C@H]3CC[C@]12C

>  <Structure_dimension>  (2055) 
2D

$$$$
MS2132
     RDKit          2D

 35 38  0  0  0  0  0  0  0  0999 V2000
   -8.9376    2.3694    0.0000 C   0  0  0  0  0  0  0  0  0  0  0  0
   -8.2021    1.0620    0.0000 C   0  0  0  0  0  0  0  0  0  0  0  0
   -8.9666   -0.2286    0.0000 C   0  0  0  0  0  0  0  0  0  0  0  0
   -6.7022    1.0453    0.0000 C   0  0  0  0  0  0  0  0  0  0  0  0
   -5.9667   -0.2620    0.0000 N   0  0  0  0  0  0  0  0  0  0  0  0
   -4.4668   -0.2788    0.0000 C   0  0  0  0  0  0  0  0  0  0  0  0
   -3.7024    1.0118    0.0000 O   0  0  0  0  0  0  0  0  0  0  0  0
   -3.7314   -1.5861    0.0000 C   0  0  0  0  0  0  0  0  0  0  0  0
   -2.2315   -1.6028    0.0000 C   0  0  0  0  0  0  0  0  0  0  0  0
   -1.4960   -2.9102    0.0000 C   0  0  0  0  0  0  0  0  0  0  0  0
   -2.2605   -4.2008    0.0000 C   0  0  0  0  0  0  0  0  0  0  0  0
    0.0039   -2.9269    0.0000 C   0  0  0  0  0  0  0  0  0  0  0  0
    0.8720   -4.1502    0.0000 C   0  0  0  0  0  0  0  0  0  0  0  0
    2.3036   -3.7026    0.0000 C   0  0  0  0  0  0  0  0  0  0  0  0
    2.3204   -2.2027    0.0000 C   0  0  0  0  0  0  0  0  0  0  0  0
    3.4462   -1.2115    0.0000 C   0  0  0  0  0  0  0  0  0  0  0  0
    4.8676   -1.6910    0.0000 C   0  0  0  0  0  0  0  0  0  0  0  0
    5.1630   -3.1616    0.0000 O   0  0  0  0  0  0  0  0  0  0  0  0
    5.9934   -0.6998    0.0000 C   0  0  0  0  0  0  0  0  0  0  0  0
    5.6979    0.7709    0.0000 C   0  0  0  0  0  0  0  0  0  0  0  0
    6.8238    1.7620    0.0000 C   0  0  0  0  0  0  0  0  0  0  0  0
    6.5283    3.2327    0.0000 C   0  0  0  0  0  0  0  0  0  0  0  0
    7.6542    4.2238    0.0000 O   0  0  0  0  0  0  0  0  0  0  0  0
    5.1070    3.7121    0.0000 C   0  0  0  0  0  0  0  0  0  0  0  0
    3.9811    2.7209    0.0000 C   0  0  0  0  0  0  0  0  0  0  0  0
    4.2766    1.2503    0.0000 C   0  0  0  0  0  0  0  0  0  0  0  0
    2.8553    1.7297    0.0000 C   0  0  0  0  0  0  0  0  0  0  0  0
    3.1508    0.2591    0.0000 C   0  0  0  0  0  0  0  0  0  0  0  0
    1.7294    0.7385    0.0000 C   0  0  0  0  0  0  0  0  0  0  0  0
    0.6036   -0.2527    0.0000 C   0  0  0  0  0  0  0  0  0  0  0  0
    0.8991   -1.7233    0.0000 C   0  0  0  0  0  0  0  0  0  0  0  0
   -0.5646   -1.3951    0.0000 C   0  0  0  0  0  0  0  0  0  0  0  0
   -5.9377    2.3359    0.0000 C   0  0  0  0  0  0  0  0  0  0  0  0
   -4.4378    2.3191    0.0000 O   0  0  0  0  0  0  0  0  0  0  0  0
   -6.6732    3.6432    0.0000 O   0  0  0  0  0  0  0  0  0  0  0  0
  1  2  1  0
  2  3  1  0
  2  4  1  0
  4  5  1  6
  5  6  1  0
  6  7  2  0
  6  8  1  0
  8  9  1  0
  9 10  1  0
 10 11  1  6
 10 12  1  0
 12 13  1  6
 13 14  1  0
 15 14  1  6
 15 16  1  0
 16 17  1  1
 17 18  1  1
 17 19  1  0
 20 19  1  1
 20 21  1  0
 21 22  1  0
 22 23  1  1
 22 24  1  0
 24 25  1  0
 25 26  1  0
 26 27  1  6
 26 28  1  0
 28 29  1  6
 29 30  1  0
 30 31  1  0
 31 32  1  6
  4 33  1  0
 33 34  2  0
 33 35  1  0
 31 12  1  0
 31 15  1  0
 28 16  1  0
 26 20  1  0
M  END
>  <MS_ID>  (2056) 
MS2132

>  <SMILES>  (2056) 
CC(C)[C@@H](NC(=O)CC[C@@H](C)[C@H]1CC[C@H]2[C@@H]3[C@H](O)C[C@@H]4C[C@H](O)CC[C@]4(C)[C@H]3CC[C@]12C)C(=O)O

>  <Structure_dimension>  (2056) 
2D

$$$$
MS2133
     RDKit          2D

 33 36  0  0  0  0  0  0  0  0999 V2000
   -2.2798   -4.2044    0.0000 C   0  0  0  0  0  0  0  0  0  0  0  0
   -1.5509   -2.8934    0.0000 C   0  0  0  0  0  0  0  0  0  0  0  0
   -2.3219   -1.6066    0.0000 C   0  0  0  0  0  0  0  0  0  0  0  0
   -3.8217   -1.6309    0.0000 C   0  0  0  0  0  0  0  0  0  0  0  0
   -4.5926   -0.3442    0.0000 C   0  0  0  0  0  0  0  0  0  0  0  0
   -3.8638    0.9668    0.0000 O   0  0  0  0  0  0  0  0  0  0  0  0
   -6.0924   -0.3685    0.0000 O   0  0  0  0  0  0  0  0  0  0  0  0
   -6.8634    0.9182    0.0000 C   0  0  0  0  0  0  0  0  0  0  0  0
   -8.3632    0.8939    0.0000 C   0  0  0  0  0  0  0  0  0  0  0  0
   -9.1341    2.1807    0.0000 C   0  0  0  0  0  0  0  0  0  0  0  0
  -10.6339    2.1564    0.0000 C   0  0  0  0  0  0  0  0  0  0  0  0
  -11.4048    3.4431    0.0000 N   0  0  0  0  0  0  0  0  0  0  0  0
   -0.0511   -2.8691    0.0000 C   0  0  0  0  0  0  0  0  0  0  0  0
    0.8501   -4.0682    0.0000 C   0  0  0  0  0  0  0  0  0  0  0  0
    2.2690   -3.5816    0.0000 C   0  0  0  0  0  0  0  0  0  0  0  0
    2.2447   -2.0818    0.0000 C   0  0  0  0  0  0  0  0  0  0  0  0
    3.3430   -1.0602    0.0000 C   0  0  0  0  0  0  0  0  0  0  0  0
    4.7769   -1.5006    0.0000 C   0  0  0  0  0  0  0  0  0  0  0  0
    5.1125   -2.9625    0.0000 O   0  0  0  0  0  0  0  0  0  0  0  0
    5.8752   -0.4789    0.0000 C   0  0  0  0  0  0  0  0  0  0  0  0
    5.5396    0.9830    0.0000 C   0  0  0  0  0  0  0  0  0  0  0  0
    6.6380    2.0047    0.0000 C   0  0  0  0  0  0  0  0  0  0  0  0
    6.3024    3.4666    0.0000 C   0  0  0  0  0  0  0  0  0  0  0  0
    7.4007    4.4882    0.0000 O   0  0  0  0  0  0  0  0  0  0  0  0
    4.8685    3.9070    0.0000 C   0  0  0  0  0  0  0  0  0  0  0  0
    3.7701    2.8854    0.0000 C   0  0  0  0  0  0  0  0  0  0  0  0
    4.1057    1.4234    0.0000 C   0  0  0  0  0  0  0  0  0  0  0  0
    2.6718    1.8638    0.0000 C   0  0  0  0  0  0  0  0  0  0  0  0
    3.0074    0.4018    0.0000 C   0  0  0  0  0  0  0  0  0  0  0  0
    1.5735    0.8422    0.0000 C   0  0  0  0  0  0  0  0  0  0  0  0
    0.4752   -0.1795    0.0000 C   0  0  0  0  0  0  0  0  0  0  0  0
    0.8108   -1.6414    0.0000 C   0  0  0  0  0  0  0  0  0  0  0  0
   -0.6613   -1.3534    0.0000 C   0  0  0  0  0  0  0  0  0  0  0  0
  2  1  1  6
  2  3  1  0
  3  4  1  0
  4  5  1  0
  5  6  2  0
  5  7  1  0
  7  8  1  0
  8  9  1  0
  9 10  1  0
 10 11  1  0
 11 12  1  0
  2 13  1  0
 13 14  1  6
 14 15  1  0
 16 15  1  6
 16 17  1  0
 17 18  1  1
 18 19  1  1
 18 20  1  0
 21 20  1  1
 21 22  1  0
 22 23  1  0
 23 24  1  1
 23 25  1  0
 25 26  1  0
 26 27  1  0
 27 28  1  6
 27 29  1  0
 29 30  1  6
 30 31  1  0
 31 32  1  0
 32 33  1  6
 32 13  1  0
 32 16  1  0
 29 17  1  0
 27 21  1  0
M  END
>  <MS_ID>  (2057) 
MS2133

>  <SMILES>  (2057) 
C[C@H](CCC(=O)OCCCCN)[C@H]1CC[C@H]2[C@@H]3[C@H](O)C[C@@H]4C[C@H](O)CC[C@]4(C)[C@H]3CC[C@]12C

>  <Structure_dimension>  (2057) 
2D

$$$$
MS2134
     RDKit          2D

 34 37  0  0  0  0  0  0  0  0999 V2000
   -2.4018   -4.1785    0.0000 C   0  0  0  0  0  0  0  0  0  0  0  0
   -1.6536   -2.8784    0.0000 C   0  0  0  0  0  0  0  0  0  0  0  0
   -2.4055   -1.5804    0.0000 C   0  0  0  0  0  0  0  0  0  0  0  0
   -3.9055   -1.5826    0.0000 C   0  0  0  0  0  0  0  0  0  0  0  0
   -4.6574   -0.2846    0.0000 C   0  0  0  0  0  0  0  0  0  0  0  0
   -3.9092    1.0155    0.0000 O   0  0  0  0  0  0  0  0  0  0  0  0
   -6.1574   -0.2867    0.0000 C   0  0  0  0  0  0  0  0  0  0  0  0
   -6.9092    1.0112    0.0000 C   0  0  0  0  0  0  0  0  0  0  0  0
   -8.4092    1.0091    0.0000 C   0  0  0  0  0  0  0  0  0  0  0  0
   -9.1611    2.3071    0.0000 C   0  0  0  0  0  0  0  0  0  0  0  0
   -8.4129    3.6072    0.0000 O   0  0  0  0  0  0  0  0  0  0  0  0
  -10.6611    2.3049    0.0000 O   0  0  0  0  0  0  0  0  0  0  0  0
   -0.1536   -2.8762    0.0000 C   0  0  0  0  0  0  0  0  0  0  0  0
    0.7298   -4.0885    0.0000 C   0  0  0  0  0  0  0  0  0  0  0  0
    2.1557   -3.6229    0.0000 C   0  0  0  0  0  0  0  0  0  0  0  0
    2.1535   -2.1229    0.0000 C   0  0  0  0  0  0  0  0  0  0  0  0
    3.2668   -1.1176    0.0000 C   0  0  0  0  0  0  0  0  0  0  0  0
    4.6941   -1.5791    0.0000 C   0  0  0  0  0  0  0  0  0  0  0  0
    5.0080   -3.0459    0.0000 O   0  0  0  0  0  0  0  0  0  0  0  0
    5.8073   -0.5738    0.0000 C   0  0  0  0  0  0  0  0  0  0  0  0
    5.4934    0.8929    0.0000 C   0  0  0  0  0  0  0  0  0  0  0  0
    6.6067    1.8982    0.0000 C   0  0  0  0  0  0  0  0  0  0  0  0
    6.2927    3.3650    0.0000 C   0  0  0  0  0  0  0  0  0  0  0  0
    7.4060    4.3703    0.0000 O   0  0  0  0  0  0  0  0  0  0  0  0
    4.8655    3.8265    0.0000 C   0  0  0  0  0  0  0  0  0  0  0  0
    3.7522    2.8212    0.0000 C   0  0  0  0  0  0  0  0  0  0  0  0
    4.0661    1.3544    0.0000 C   0  0  0  0  0  0  0  0  0  0  0  0
    2.6389    1.8159    0.0000 C   0  0  0  0  0  0  0  0  0  0  0  0
    2.9529    0.3491    0.0000 C   0  0  0  0  0  0  0  0  0  0  0  0
    1.5256    0.8106    0.0000 C   0  0  0  0  0  0  0  0  0  0  0  0
    0.4123   -0.1947    0.0000 C   0  0  0  0  0  0  0  0  0  0  0  0
   -1.0149    0.2668    0.0000 O   0  0  0  0  0  0  0  0  0  0  0  0
    0.7263   -1.6614    0.0000 C   0  0  0  0  0  0  0  0  0  0  0  0
   -0.7414   -1.3517    0.0000 C   0  0  0  0  0  0  0  0  0  0  0  0
  2  1  1  6
  2  3  1  0
  3  4  1  0
  4  5  1  0
  5  6  2  0
  5  7  1  0
  7  8  1  0
  8  9  1  0
  9 10  1  0
 10 11  2  0
 10 12  1  0
  2 13  1  0
 13 14  1  6
 14 15  1  0
 16 15  1  6
 16 17  1  0
 17 18  1  1
 18 19  1  1
 18 20  1  0
 21 20  1  1
 21 22  1  0
 22 23  1  0
 23 24  1  1
 23 25  1  0
 25 26  1  0
 26 27  1  0
 27 28  1  6
 27 29  1  0
 29 30  1  6
 30 31  1  0
 31 32  1  6
 31 33  1  0
 33 34  1  6
 33 13  1  0
 33 16  1  0
 29 17  1  0
 27 21  1  0
M  END
>  <MS_ID>  (2058) 
MS2134

>  <SMILES>  (2058) 
C[C@H](CCC(=O)CCCC(=O)O)[C@H]1CC[C@H]2[C@@H]3[C@H](O)C[C@@H]4C[C@H](O)CC[C@]4(C)[C@H]3C[C@@H](O)[C@]12C

>  <Structure_dimension>  (2058) 
2D

$$$$
MS2135
     RDKit          2D

 35 39  0  0  0  0  0  0  0  0999 V2000
   -2.4249   -4.3282    0.0000 C   0  0  0  0  0  0  0  0  0  0  0  0
   -1.7208   -3.0038    0.0000 C   0  0  0  0  0  0  0  0  0  0  0  0
   -2.5157   -1.7317    0.0000 C   0  0  0  0  0  0  0  0  0  0  0  0
   -4.0147   -1.7841    0.0000 C   0  0  0  0  0  0  0  0  0  0  0  0
   -4.8097   -0.5121    0.0000 C   0  0  0  0  0  0  0  0  0  0  0  0
   -4.1055    0.8124    0.0000 O   0  0  0  0  0  0  0  0  0  0  0  0
   -6.3087   -0.5645    0.0000 N   0  0  0  0  0  0  0  0  0  0  0  0
   -7.1037    0.7076    0.0000 C   0  0  0  0  0  0  0  0  0  0  0  0
   -6.3995    2.0320    0.0000 C   0  0  0  0  0  0  0  0  0  0  0  0
   -7.1944    3.3041    0.0000 N   0  0  0  0  0  0  0  0  0  0  0  0
   -8.6935    3.2517    0.0000 C   0  0  0  0  0  0  0  0  0  0  0  0
   -9.3977    1.9272    0.0000 C   0  0  0  0  0  0  0  0  0  0  0  0
   -8.6027    0.6552    0.0000 N   0  0  0  0  0  0  0  0  0  0  0  0
   -0.2217   -2.9514    0.0000 C   0  0  0  0  0  0  0  0  0  0  0  0
    0.7019   -4.1334    0.0000 C   0  0  0  0  0  0  0  0  0  0  0  0
    2.1114   -3.6203    0.0000 C   0  0  0  0  0  0  0  0  0  0  0  0
    2.0590   -2.1213    0.0000 C   0  0  0  0  0  0  0  0  0  0  0  0
    3.1380   -1.0792    0.0000 C   0  0  0  0  0  0  0  0  0  0  0  0
    4.5799   -1.4927    0.0000 C   0  0  0  0  0  0  0  0  0  0  0  0
    4.9428   -2.9481    0.0000 O   0  0  0  0  0  0  0  0  0  0  0  0
    5.6589   -0.4506    0.0000 C   0  0  0  0  0  0  0  0  0  0  0  0
    7.1008   -0.8641    0.0000 O   0  0  0  0  0  0  0  0  0  0  0  0
    5.2959    1.0048    0.0000 C   0  0  0  0  0  0  0  0  0  0  0  0
    6.3749    2.0468    0.0000 C   0  0  0  0  0  0  0  0  0  0  0  0
    6.0120    3.5022    0.0000 C   0  0  0  0  0  0  0  0  0  0  0  0
    7.0910    4.5443    0.0000 O   0  0  0  0  0  0  0  0  0  0  0  0
    4.5701    3.9157    0.0000 C   0  0  0  0  0  0  0  0  0  0  0  0
    3.4911    2.8736    0.0000 C   0  0  0  0  0  0  0  0  0  0  0  0
    3.8540    1.4182    0.0000 C   0  0  0  0  0  0  0  0  0  0  0  0
    2.4121    1.8316    0.0000 C   0  0  0  0  0  0  0  0  0  0  0  0
    2.7751    0.3762    0.0000 C   0  0  0  0  0  0  0  0  0  0  0  0
    1.3332    0.7896    0.0000 C   0  0  0  0  0  0  0  0  0  0  0  0
    0.2542   -0.2524    0.0000 C   0  0  0  0  0  0  0  0  0  0  0  0
    0.6171   -1.7078    0.0000 C   0  0  0  0  0  0  0  0  0  0  0  0
   -0.8601   -1.4474    0.0000 C   0  0  0  0  0  0  0  0  0  0  0  0
  2  1  1  6
  2  3  1  0
  3  4  1  0
  4  5  1  0
  5  6  2  0
  5  7  1  0
  7  8  1  0
  8  9  2  0
  9 10  1  0
 10 11  2  0
 11 12  1  0
 12 13  2  0
  2 14  1  0
 14 15  1  6
 15 16  1  0
 17 16  1  6
 17 18  1  0
 18 19  1  1
 19 20  1  1
 19 21  1  0
 21 22  1  1
 21 23  1  0
 23 24  1  1
 24 25  1  0
 25 26  1  1
 25 27  1  0
 27 28  1  0
 28 29  1  0
 29 30  1  6
 29 31  1  0
 31 32  1  6
 32 33  1  0
 33 34  1  0
 34 35  1  6
 13  8  1  0
 34 14  1  0
 34 17  1  0
 31 18  1  0
 29 23  1  0
M  END
>  <MS_ID>  (2059) 
MS2135

>  <SMILES>  (2059) 
C[C@H](CCC(=O)Nc1cnccn1)[C@H]1CC[C@H]2[C@@H]3[C@H](O)[C@H](O)[C@@H]4C[C@H](O)CC[C@]4(C)[C@H]3CC[C@]12C

>  <Structure_dimension>  (2059) 
2D

$$$$
MS2136
     RDKit          2D

 33 37  0  0  0  0  0  0  0  0999 V2000
   -3.4505   -3.2444    0.0000 C   0  0  0  0  0  0  0  0  0  0  0  0
   -2.4721   -2.1074    0.0000 C   0  0  0  0  0  0  0  0  0  0  0  0
   -2.9676   -0.6916    0.0000 C   0  0  0  0  0  0  0  0  0  0  0  0
   -4.4415   -0.4128    0.0000 C   0  0  0  0  0  0  0  0  0  0  0  0
   -4.9370    1.0030    0.0000 C   0  0  0  0  0  0  0  0  0  0  0  0
   -3.9586    2.1400    0.0000 O   0  0  0  0  0  0  0  0  0  0  0  0
   -6.4109    1.2817    0.0000 N   0  0  0  0  0  0  0  0  0  0  0  0
   -7.5027    0.2532    0.0000 C   0  0  0  0  0  0  0  0  0  0  0  0
   -8.8183    0.9738    0.0000 C   0  0  0  0  0  0  0  0  0  0  0  0
   -8.5395    2.4477    0.0000 N   0  0  0  0  0  0  0  0  0  0  0  0
   -7.0517    2.6380    0.0000 C   0  0  0  0  0  0  0  0  0  0  0  0
   -0.9983   -2.3862    0.0000 C   0  0  0  0  0  0  0  0  0  0  0  0
   -0.3575   -3.7424    0.0000 C   0  0  0  0  0  0  0  0  0  0  0  0
    1.1304   -3.5521    0.0000 C   0  0  0  0  0  0  0  0  0  0  0  0
    1.4092   -2.0783    0.0000 C   0  0  0  0  0  0  0  0  0  0  0  0
    2.6910   -1.2992    0.0000 C   0  0  0  0  0  0  0  0  0  0  0  0
    4.0066   -2.0198    0.0000 C   0  0  0  0  0  0  0  0  0  0  0  0
    4.0403   -3.5194    0.0000 O   0  0  0  0  0  0  0  0  0  0  0  0
    5.2884   -1.2408    0.0000 C   0  0  0  0  0  0  0  0  0  0  0  0
    5.2547    0.2589    0.0000 C   0  0  0  0  0  0  0  0  0  0  0  0
    6.5365    1.0379    0.0000 C   0  0  0  0  0  0  0  0  0  0  0  0
    6.5028    2.5375    0.0000 C   0  0  0  0  0  0  0  0  0  0  0  0
    7.7846    3.3166    0.0000 O   0  0  0  0  0  0  0  0  0  0  0  0
    5.1872    3.2581    0.0000 C   0  0  0  0  0  0  0  0  0  0  0  0
    3.9054    2.4791    0.0000 C   0  0  0  0  0  0  0  0  0  0  0  0
    3.9391    0.9794    0.0000 C   0  0  0  0  0  0  0  0  0  0  0  0
    2.6235    1.7000    0.0000 C   0  0  0  0  0  0  0  0  0  0  0  0
    2.6573    0.2004    0.0000 C   0  0  0  0  0  0  0  0  0  0  0  0
    1.3417    0.9210    0.0000 C   0  0  0  0  0  0  0  0  0  0  0  0
    0.0598    0.1420    0.0000 C   0  0  0  0  0  0  0  0  0  0  0  0
   -1.2557    0.8625    0.0000 O   0  0  0  0  0  0  0  0  0  0  0  0
    0.0936   -1.3577    0.0000 C   0  0  0  0  0  0  0  0  0  0  0  0
   -1.2901   -0.7785    0.0000 C   0  0  0  0  0  0  0  0  0  0  0  0
  2  1  1  6
  2  3  1  0
  3  4  1  0
  4  5  1  0
  5  6  2  0
  5  7  1  0
  7  8  1  0
  8  9  2  0
  9 10  1  0
 10 11  2  0
  2 12  1  0
 12 13  1  6
 13 14  1  0
 15 14  1  6
 15 16  1  0
 16 17  1  1
 17 18  1  1
 17 19  1  0
 20 19  1  1
 20 21  1  0
 21 22  1  0
 22 23  1  1
 22 24  1  0
 24 25  1  0
 25 26  1  0
 26 27  1  6
 26 28  1  0
 28 29  1  6
 29 30  1  0
 30 31  1  1
 30 32  1  0
 32 33  1  6
 11  7  1  0
 32 12  1  0
 32 15  1  0
 28 16  1  0
 26 20  1  0
M  END
>  <MS_ID>  (2060) 
MS2136

>  <SMILES>  (2060) 
C[C@H](CCC(=O)n1ccnc1)[C@H]1CC[C@H]2[C@@H]3[C@H](O)C[C@@H]4C[C@H](O)CC[C@]4(C)[C@H]3C[C@H](O)[C@]12C

>  <Structure_dimension>  (2060) 
2D

$$$$
MS2137
     RDKit          2D

 33 36  0  0  0  0  0  0  0  0999 V2000
   -2.5207   -3.9815    0.0000 C   0  0  0  0  0  0  0  0  0  0  0  0
   -1.6809   -2.7386    0.0000 C   0  0  0  0  0  0  0  0  0  0  0  0
   -2.3373   -1.3899    0.0000 C   0  0  0  0  0  0  0  0  0  0  0  0
   -3.8336   -1.2840    0.0000 C   0  0  0  0  0  0  0  0  0  0  0  0
   -4.4900    0.0647    0.0000 C   0  0  0  0  0  0  0  0  0  0  0  0
   -3.6502    1.3076    0.0000 O   0  0  0  0  0  0  0  0  0  0  0  0
   -5.9863    0.1706    0.0000 O   0  0  0  0  0  0  0  0  0  0  0  0
   -6.6427    1.5193    0.0000 C   0  0  0  0  0  0  0  0  0  0  0  0
   -8.1390    1.6252    0.0000 C   0  0  0  0  0  0  0  0  0  0  0  0
   -8.9788    0.3823    0.0000 O   0  0  0  0  0  0  0  0  0  0  0  0
   -8.7954    2.9739    0.0000 C   0  0  0  0  0  0  0  0  0  0  0  0
  -10.2917    3.0798    0.0000 O   0  0  0  0  0  0  0  0  0  0  0  0
   -0.1846   -2.8445    0.0000 C   0  0  0  0  0  0  0  0  0  0  0  0
    0.6092   -4.1172    0.0000 C   0  0  0  0  0  0  0  0  0  0  0  0
    2.0649   -3.7555    0.0000 C   0  0  0  0  0  0  0  0  0  0  0  0
    2.1708   -2.2593    0.0000 C   0  0  0  0  0  0  0  0  0  0  0  0
    3.3536   -1.3368    0.0000 C   0  0  0  0  0  0  0  0  0  0  0  0
    4.7439   -1.8998    0.0000 C   0  0  0  0  0  0  0  0  0  0  0  0
    5.9267   -0.9773    0.0000 C   0  0  0  0  0  0  0  0  0  0  0  0
    5.7191    0.5083    0.0000 C   0  0  0  0  0  0  0  0  0  0  0  0
    6.9019    1.4308    0.0000 C   0  0  0  0  0  0  0  0  0  0  0  0
    6.6944    2.9164    0.0000 C   0  0  0  0  0  0  0  0  0  0  0  0
    7.8772    3.8389    0.0000 O   0  0  0  0  0  0  0  0  0  0  0  0
    5.3041    3.4794    0.0000 C   0  0  0  0  0  0  0  0  0  0  0  0
    4.1213    2.5569    0.0000 C   0  0  0  0  0  0  0  0  0  0  0  0
    4.3288    1.0713    0.0000 C   0  0  0  0  0  0  0  0  0  0  0  0
    2.9385    1.6344    0.0000 C   0  0  0  0  0  0  0  0  0  0  0  0
    3.1461    0.1488    0.0000 C   0  0  0  0  0  0  0  0  0  0  0  0
    1.7557    0.7119    0.0000 C   0  0  0  0  0  0  0  0  0  0  0  0
    0.5730   -0.2106    0.0000 C   0  0  0  0  0  0  0  0  0  0  0  0
   -0.8173    0.3524    0.0000 O   0  0  0  0  0  0  0  0  0  0  0  0
    0.7805   -1.6962    0.0000 C   0  0  0  0  0  0  0  0  0  0  0  0
   -0.6611   -1.2816    0.0000 C   0  0  0  0  0  0  0  0  0  0  0  0
  2  1  1  6
  2  3  1  0
  3  4  1  0
  4  5  1  0
  5  6  2  0
  5  7  1  0
  7  8  1  0
  8  9  1  0
  9 10  1  1
  9 11  1  0
 11 12  1  0
  2 13  1  0
 13 14  1  6
 14 15  1  0
 16 15  1  6
 16 17  1  0
 17 18  1  1
 18 19  1  0
 20 19  1  1
 20 21  1  0
 21 22  1  0
 22 23  1  1
 22 24  1  0
 24 25  1  0
 25 26  1  0
 26 27  1  6
 26 28  1  0
 28 29  1  6
 29 30  1  0
 30 31  1  1
 30 32  1  0
 32 33  1  6
 32 13  1  0
 32 16  1  0
 28 17  1  0
 26 20  1  0
M  END
>  <MS_ID>  (2061) 
MS2137

>  <SMILES>  (2061) 
C[C@H](CCC(=O)OC[C@@H](O)CO)[C@H]1CC[C@H]2[C@@H]3CC[C@@H]4C[C@H](O)CC[C@]4(C)[C@H]3C[C@H](O)[C@]12C

>  <Structure_dimension>  (2061) 
2D

$$$$
MS2138
     RDKit          2D

 32 35  0  0  0  0  0  0  0  0999 V2000
   -4.8803   -2.7444    0.0000 C   0  0  0  0  0  0  0  0  0  0  0  0
   -3.9514   -1.5666    0.0000 C   0  0  0  0  0  0  0  0  0  0  0  0
   -4.5069   -0.1733    0.0000 C   0  0  0  0  0  0  0  0  0  0  0  0
   -5.9914    0.0423    0.0000 C   0  0  0  0  0  0  0  0  0  0  0  0
   -6.5469    1.4356    0.0000 C   0  0  0  0  0  0  0  0  0  0  0  0
   -5.6180    2.6134    0.0000 O   0  0  0  0  0  0  0  0  0  0  0  0
   -8.0313    1.6512    0.0000 O   0  0  0  0  0  0  0  0  0  0  0  0
   -2.4670   -1.7822    0.0000 C   0  0  0  0  0  0  0  0  0  0  0  0
   -1.7688   -3.1098    0.0000 C   0  0  0  0  0  0  0  0  0  0  0  0
   -0.2905   -2.8561    0.0000 C   0  0  0  0  0  0  0  0  0  0  0  0
   -0.0749   -1.3717    0.0000 C   0  0  0  0  0  0  0  0  0  0  0  0
    1.1725   -0.5386    0.0000 C   0  0  0  0  0  0  0  0  0  0  0  0
    2.5177   -1.2023    0.0000 C   0  0  0  0  0  0  0  0  0  0  0  0
    2.6154   -2.6991    0.0000 O   0  0  0  0  0  0  0  0  0  0  0  0
    3.9606   -3.3629    0.0000 C   0  0  0  0  0  0  0  0  0  0  0  0
    4.0584   -4.8597    0.0000 C   0  0  0  0  0  0  0  0  0  0  0  0
    5.4035   -5.5234    0.0000 O   0  0  0  0  0  0  0  0  0  0  0  0
    3.7650   -0.3693    0.0000 C   0  0  0  0  0  0  0  0  0  0  0  0
    3.6673    1.1276    0.0000 C   0  0  0  0  0  0  0  0  0  0  0  0
    4.9147    1.9606    0.0000 C   0  0  0  0  0  0  0  0  0  0  0  0
    4.8169    3.4574    0.0000 C   0  0  0  0  0  0  0  0  0  0  0  0
    6.0643    4.2905    0.0000 O   0  0  0  0  0  0  0  0  0  0  0  0
    3.4717    4.1212    0.0000 C   0  0  0  0  0  0  0  0  0  0  0  0
    2.2243    3.2881    0.0000 C   0  0  0  0  0  0  0  0  0  0  0  0
    2.3221    1.7913    0.0000 C   0  0  0  0  0  0  0  0  0  0  0  0
    0.9769    2.4550    0.0000 C   0  0  0  0  0  0  0  0  0  0  0  0
    1.0747    0.9582    0.0000 C   0  0  0  0  0  0  0  0  0  0  0  0
   -0.2704    1.6219    0.0000 C   0  0  0  0  0  0  0  0  0  0  0  0
   -1.5178    0.7889    0.0000 C   0  0  0  0  0  0  0  0  0  0  0  0
   -2.8630    1.4526    0.0000 O   0  0  0  0  0  0  0  0  0  0  0  0
   -1.4201   -0.7080    0.0000 C   0  0  0  0  0  0  0  0  0  0  0  0
   -2.8272   -0.1885    0.0000 C   0  0  0  0  0  0  0  0  0  0  0  0
  2  1  1  6
  2  3  1  0
  3  4  1  0
  4  5  1  0
  5  6  2  0
  5  7  1  0
  2  8  1  0
  8  9  1  6
  9 10  1  0
 11 10  1  6
 11 12  1  0
 12 13  1  1
 13 14  1  6
 14 15  1  0
 15 16  1  0
 16 17  1  0
 13 18  1  0
 19 18  1  1
 19 20  1  0
 20 21  1  0
 21 22  1  1
 21 23  1  0
 23 24  1  0
 24 25  1  0
 25 26  1  6
 25 27  1  0
 27 28  1  6
 28 29  1  0
 29 30  2  0
 29 31  1  0
 31 32  1  6
 31  8  1  0
 31 11  1  0
 27 12  1  0
 25 19  1  0
M  END
>  <MS_ID>  (2062) 
MS2138

>  <SMILES>  (2062) 
C[C@H](CCC(=O)O)[C@H]1CC[C@H]2[C@@H]3[C@@H](OCCO)C[C@@H]4C[C@H](O)CC[C@]4(C)[C@H]3CC(=O)[C@]12C

>  <Structure_dimension>  (2062) 
2D

$$$$
MS2139
     RDKit          2D

 29 32  0  0  0  0  0  0  0  0999 V2000
   -5.0303   -2.1373    0.0000 C   0  0  0  0  0  0  0  0  0  0  0  0
   -3.8594   -1.1998    0.0000 C   0  0  0  0  0  0  0  0  0  0  0  0
   -4.0858    0.2830    0.0000 C   0  0  0  0  0  0  0  0  0  0  0  0
   -5.4831    0.8284    0.0000 C   0  0  0  0  0  0  0  0  0  0  0  0
   -5.7095    2.3112    0.0000 C   0  0  0  0  0  0  0  0  0  0  0  0
   -4.5386    3.2487    0.0000 O   0  0  0  0  0  0  0  0  0  0  0  0
   -7.1069    2.8565    0.0000 O   0  0  0  0  0  0  0  0  0  0  0  0
   -2.4620   -1.7451    0.0000 C   0  0  0  0  0  0  0  0  0  0  0  0
   -2.0818   -3.1961    0.0000 C   0  0  0  0  0  0  0  0  0  0  0  0
   -0.5844   -3.2830    0.0000 C   0  0  0  0  0  0  0  0  0  0  0  0
   -0.0390   -1.8856    0.0000 C   0  0  0  0  0  0  0  0  0  0  0  0
    1.3643   -1.3559    0.0000 C   0  0  0  0  0  0  0  0  0  0  0  0
    2.5248   -2.3063    0.0000 C   0  0  0  0  0  0  0  0  0  0  0  0
    2.2819   -3.7865    0.0000 C   0  0  0  0  0  0  0  0  0  0  0  0
    3.9281   -1.7765    0.0000 C   0  0  0  0  0  0  0  0  0  0  0  0
    4.1710   -0.2963    0.0000 C   0  0  0  0  0  0  0  0  0  0  0  0
    5.5743    0.2334    0.0000 C   0  0  0  0  0  0  0  0  0  0  0  0
    5.8172    1.7136    0.0000 C   0  0  0  0  0  0  0  0  0  0  0  0
    7.2205    2.2434    0.0000 O   0  0  0  0  0  0  0  0  0  0  0  0
    4.6568    2.6641    0.0000 C   0  0  0  0  0  0  0  0  0  0  0  0
    3.2534    2.1343    0.0000 C   0  0  0  0  0  0  0  0  0  0  0  0
    3.0105    0.6541    0.0000 C   0  0  0  0  0  0  0  0  0  0  0  0
    1.8501    1.6046    0.0000 C   0  0  0  0  0  0  0  0  0  0  0  0
    1.6072    0.1244    0.0000 C   0  0  0  0  0  0  0  0  0  0  0  0
    0.4467    1.0748    0.0000 C   0  0  0  0  0  0  0  0  0  0  0  0
   -0.9566    0.5450    0.0000 C   0  0  0  0  0  0  0  0  0  0  0  0
   -2.1170    1.4955    0.0000 O   0  0  0  0  0  0  0  0  0  0  0  0
   -1.1995   -0.9352    0.0000 C   0  0  0  0  0  0  0  0  0  0  0  0
   -2.4529   -0.1112    0.0000 C   0  0  0  0  0  0  0  0  0  0  0  0
  2  1  1  6
  2  3  1  0
  3  4  1  0
  4  5  1  0
  5  6  2  0
  5  7  1  0
  2  8  1  0
  8  9  1  6
  9 10  1  0
 11 10  1  6
 11 12  1  0
 12 13  1  1
 13 14  1  6
 13 15  1  0
 16 15  1  1
 16 17  1  0
 17 18  1  0
 18 19  1  6
 18 20  1  0
 20 21  1  0
 21 22  1  0
 22 23  1  6
 22 24  1  0
 24 25  1  6
 25 26  1  0
 26 27  1  1
 26 28  1  0
 28 29  1  6
 28  8  1  0
 28 11  1  0
 24 12  1  0
 22 16  1  0
M  END
>  <MS_ID>  (2063) 
MS2139

>  <SMILES>  (2063) 
C[C@H](CCC(=O)O)[C@H]1CC[C@H]2[C@@H]3[C@@H](C)C[C@@H]4C[C@@H](O)CC[C@]4(C)[C@H]3C[C@H](O)[C@]12C

>  <Structure_dimension>  (2063) 
2D

$$$$
MS2140
     RDKit          2D

 36 40  0  0  0  0  0  0  0  0999 V2000
   -1.8695   -4.0446    0.0000 C   0  0  0  0  0  0  0  0  0  0  0  0
   -1.0892   -2.7636    0.0000 C   0  0  0  0  0  0  0  0  0  0  0  0
   -1.8085   -1.4473    0.0000 C   0  0  0  0  0  0  0  0  0  0  0  0
   -3.3081   -1.4120    0.0000 C   0  0  0  0  0  0  0  0  0  0  0  0
   -4.0274   -0.0958    0.0000 C   0  0  0  0  0  0  0  0  0  0  0  0
   -3.2470    1.1853    0.0000 O   0  0  0  0  0  0  0  0  0  0  0  0
   -5.5269   -0.0605    0.0000 O   0  0  0  0  0  0  0  0  0  0  0  0
   -6.2462    1.2558    0.0000 C   0  0  0  0  0  0  0  0  0  0  0  0
   -7.7458    1.2910    0.0000 C   0  0  0  0  0  0  0  0  0  0  0  0
   -8.4651    2.6073    0.0000 C   0  0  0  0  0  0  0  0  0  0  0  0
   -9.9647    2.6425    0.0000 C   0  0  0  0  0  0  0  0  0  0  0  0
  -10.7450    1.3615    0.0000 C   0  0  0  0  0  0  0  0  0  0  0  0
  -10.0257    0.0452    0.0000 C   0  0  0  0  0  0  0  0  0  0  0  0
   -8.5261    0.0099    0.0000 N   0  0  0  0  0  0  0  0  0  0  0  0
    0.4104   -2.7988    0.0000 C   0  0  0  0  0  0  0  0  0  0  0  0
    1.2633   -4.0327    0.0000 C   0  0  0  0  0  0  0  0  0  0  0  0
    2.7004   -3.6028    0.0000 C   0  0  0  0  0  0  0  0  0  0  0  0
    2.7356   -2.1032    0.0000 C   0  0  0  0  0  0  0  0  0  0  0  0
    3.8736   -1.1260    0.0000 C   0  0  0  0  0  0  0  0  0  0  0  0
    5.2889   -1.6229    0.0000 C   0  0  0  0  0  0  0  0  0  0  0  0
    5.5662   -3.0970    0.0000 O   0  0  0  0  0  0  0  0  0  0  0  0
    6.4269   -0.6457    0.0000 C   0  0  0  0  0  0  0  0  0  0  0  0
    6.1496    0.8285    0.0000 C   0  0  0  0  0  0  0  0  0  0  0  0
    7.2876    1.8057    0.0000 C   0  0  0  0  0  0  0  0  0  0  0  0
    7.0102    3.2799    0.0000 C   0  0  0  0  0  0  0  0  0  0  0  0
    8.1482    4.2571    0.0000 O   0  0  0  0  0  0  0  0  0  0  0  0
    5.5949    3.7768    0.0000 C   0  0  0  0  0  0  0  0  0  0  0  0
    4.4570    2.7995    0.0000 C   0  0  0  0  0  0  0  0  0  0  0  0
    4.7343    1.3254    0.0000 C   0  0  0  0  0  0  0  0  0  0  0  0
    3.3190    1.8223    0.0000 C   0  0  0  0  0  0  0  0  0  0  0  0
    3.5963    0.3481    0.0000 C   0  0  0  0  0  0  0  0  0  0  0  0
    2.1810    0.8451    0.0000 C   0  0  0  0  0  0  0  0  0  0  0  0
    1.0430   -0.1322    0.0000 C   0  0  0  0  0  0  0  0  0  0  0  0
   -0.3723    0.3647    0.0000 O   0  0  0  0  0  0  0  0  0  0  0  0
    1.3203   -1.6063    0.0000 C   0  0  0  0  0  0  0  0  0  0  0  0
   -0.1392   -1.2601    0.0000 C   0  0  0  0  0  0  0  0  0  0  0  0
  2  1  1  6
  2  3  1  0
  3  4  1  0
  4  5  1  0
  5  6  2  0
  5  7  1  0
  7  8  1  0
  8  9  1  0
  9 10  2  0
 10 11  1  0
 11 12  2  0
 12 13  1  0
 13 14  2  0
  2 15  1  0
 15 16  1  6
 16 17  1  0
 18 17  1  6
 18 19  1  0
 19 20  1  1
 20 21  1  1
 20 22  1  0
 23 22  1  1
 23 24  1  0
 24 25  1  0
 25 26  1  1
 25 27  1  0
 27 28  1  0
 28 29  1  0
 29 30  1  6
 29 31  1  0
 31 32  1  6
 32 33  1  0
 33 34  1  1
 33 35  1  0
 35 36  1  6
 14  9  1  0
 35 15  1  0
 35 18  1  0
 31 19  1  0
 29 23  1  0
M  END
>  <MS_ID>  (2064) 
MS2140

>  <SMILES>  (2064) 
C[C@H](CCC(=O)OCc1ccccn1)[C@H]1CC[C@H]2[C@@H]3[C@H](O)C[C@@H]4C[C@H](O)CC[C@]4(C)[C@H]3C[C@H](O)[C@]12C

>  <Structure_dimension>  (2064) 
2D

$$$$
MS2141
     RDKit          2D

 29 32  0  0  0  0  0  0  0  0999 V2000
   -5.0209   -2.1353    0.0000 C   0  0  0  0  0  0  0  0  0  0  0  0
   -3.8503   -1.1974    0.0000 C   0  0  0  0  0  0  0  0  0  0  0  0
   -4.0773    0.2853    0.0000 C   0  0  0  0  0  0  0  0  0  0  0  0
   -5.4749    0.8301    0.0000 C   0  0  0  0  0  0  0  0  0  0  0  0
   -5.7018    2.3129    0.0000 C   0  0  0  0  0  0  0  0  0  0  0  0
   -4.5312    3.2508    0.0000 O   0  0  0  0  0  0  0  0  0  0  0  0
   -7.0994    2.8577    0.0000 O   0  0  0  0  0  0  0  0  0  0  0  0
   -2.4528   -1.7422    0.0000 C   0  0  0  0  0  0  0  0  0  0  0  0
   -2.0721   -3.1931    0.0000 C   0  0  0  0  0  0  0  0  0  0  0  0
   -0.5746   -3.2794    0.0000 C   0  0  0  0  0  0  0  0  0  0  0  0
   -0.0298   -1.8819    0.0000 C   0  0  0  0  0  0  0  0  0  0  0  0
    1.3734   -1.3516    0.0000 C   0  0  0  0  0  0  0  0  0  0  0  0
    2.5342   -2.3016    0.0000 C   0  0  0  0  0  0  0  0  0  0  0  0
    2.2918   -3.7819    0.0000 O   0  0  0  0  0  0  0  0  0  0  0  0
    3.9373   -1.7713    0.0000 C   0  0  0  0  0  0  0  0  0  0  0  0
    4.1797   -0.2911    0.0000 C   0  0  0  0  0  0  0  0  0  0  0  0
    5.5828    0.2392    0.0000 C   0  0  0  0  0  0  0  0  0  0  0  0
    5.8252    1.7195    0.0000 C   0  0  0  0  0  0  0  0  0  0  0  0
    7.2283    2.2498    0.0000 O   0  0  0  0  0  0  0  0  0  0  0  0
    4.6644    2.6695    0.0000 C   0  0  0  0  0  0  0  0  0  0  0  0
    3.2612    2.1393    0.0000 C   0  0  0  0  0  0  0  0  0  0  0  0
    3.0189    0.6590    0.0000 C   0  0  0  0  0  0  0  0  0  0  0  0
    1.8581    1.6090    0.0000 C   0  0  0  0  0  0  0  0  0  0  0  0
    1.6157    0.1287    0.0000 C   0  0  0  0  0  0  0  0  0  0  0  0
    0.4549    1.0787    0.0000 C   0  0  0  0  0  0  0  0  0  0  0  0
   -0.9482    0.5485    0.0000 C   0  0  0  0  0  0  0  0  0  0  0  0
   -1.1905   -0.9318    0.0000 C   0  0  0  0  0  0  0  0  0  0  0  0
   -2.4443   -0.1083    0.0000 C   0  0  0  0  0  0  0  0  0  0  0  0
   -2.3580    1.3892    0.0000 O   0  0  0  0  0  0  0  0  0  0  0  0
  2  1  1  6
  2  3  1  0
  3  4  1  0
  4  5  1  0
  5  6  2  0
  5  7  1  0
  2  8  1  0
  8  9  1  6
  9 10  1  0
 11 10  1  6
 11 12  1  0
 12 13  1  1
 13 14  1  6
 13 15  1  0
 16 15  1  1
 16 17  1  0
 17 18  1  0
 18 19  1  1
 18 20  1  0
 20 21  1  0
 21 22  1  0
 22 23  1  6
 22 24  1  0
 24 25  1  6
 25 26  1  0
 26 27  1  0
 27 28  1  6
 28 29  1  0
 27  8  1  0
 27 11  1  0
 24 12  1  0
 22 16  1  0
M  END
>  <MS_ID>  (2065) 
MS2141

>  <SMILES>  (2065) 
C[C@H](CCC(=O)O)[C@H]1CC[C@H]2[C@@H]3[C@@H](O)C[C@@H]4C[C@H](O)CC[C@]4(C)[C@H]3CC[C@]12CO

>  <Structure_dimension>  (2065) 
2D

$$$$
MS2142
     RDKit          2D

 33 36  0  0  0  0  0  0  0  0999 V2000
   -2.2798   -4.2044    0.0000 C   0  0  0  0  0  0  0  0  0  0  0  0
   -1.5509   -2.8934    0.0000 C   0  0  0  0  0  0  0  0  0  0  0  0
   -2.3219   -1.6066    0.0000 C   0  0  0  0  0  0  0  0  0  0  0  0
   -3.8217   -1.6309    0.0000 C   0  0  0  0  0  0  0  0  0  0  0  0
   -4.5926   -0.3442    0.0000 C   0  0  0  0  0  0  0  0  0  0  0  0
   -3.8638    0.9668    0.0000 O   0  0  0  0  0  0  0  0  0  0  0  0
   -6.0924   -0.3685    0.0000 N   0  0  0  0  0  0  0  0  0  0  0  0
   -6.8634    0.9182    0.0000 C   0  0  0  0  0  0  0  0  0  0  0  0
   -8.3632    0.8939    0.0000 C   0  0  0  0  0  0  0  0  0  0  0  0
   -9.1341    2.1807    0.0000 C   0  0  0  0  0  0  0  0  0  0  0  0
  -10.6339    2.1564    0.0000 C   0  0  0  0  0  0  0  0  0  0  0  0
  -11.4048    3.4431    0.0000 N   0  0  0  0  0  0  0  0  0  0  0  0
   -0.0511   -2.8691    0.0000 C   0  0  0  0  0  0  0  0  0  0  0  0
    0.8501   -4.0682    0.0000 C   0  0  0  0  0  0  0  0  0  0  0  0
    2.2690   -3.5816    0.0000 C   0  0  0  0  0  0  0  0  0  0  0  0
    2.2447   -2.0818    0.0000 C   0  0  0  0  0  0  0  0  0  0  0  0
    3.3430   -1.0602    0.0000 C   0  0  0  0  0  0  0  0  0  0  0  0
    4.7769   -1.5006    0.0000 C   0  0  0  0  0  0  0  0  0  0  0  0
    5.1125   -2.9625    0.0000 O   0  0  0  0  0  0  0  0  0  0  0  0
    5.8752   -0.4789    0.0000 C   0  0  0  0  0  0  0  0  0  0  0  0
    5.5396    0.9830    0.0000 C   0  0  0  0  0  0  0  0  0  0  0  0
    6.6380    2.0047    0.0000 C   0  0  0  0  0  0  0  0  0  0  0  0
    6.3024    3.4666    0.0000 C   0  0  0  0  0  0  0  0  0  0  0  0
    7.4007    4.4882    0.0000 O   0  0  0  0  0  0  0  0  0  0  0  0
    4.8685    3.9070    0.0000 C   0  0  0  0  0  0  0  0  0  0  0  0
    3.7701    2.8854    0.0000 C   0  0  0  0  0  0  0  0  0  0  0  0
    4.1057    1.4234    0.0000 C   0  0  0  0  0  0  0  0  0  0  0  0
    2.6718    1.8638    0.0000 C   0  0  0  0  0  0  0  0  0  0  0  0
    3.0074    0.4018    0.0000 C   0  0  0  0  0  0  0  0  0  0  0  0
    1.5735    0.8422    0.0000 C   0  0  0  0  0  0  0  0  0  0  0  0
    0.4752   -0.1795    0.0000 C   0  0  0  0  0  0  0  0  0  0  0  0
    0.8108   -1.6414    0.0000 C   0  0  0  0  0  0  0  0  0  0  0  0
   -0.6613   -1.3534    0.0000 C   0  0  0  0  0  0  0  0  0  0  0  0
  2  1  1  6
  2  3  1  0
  3  4  1  0
  4  5  1  0
  5  6  2  0
  5  7  1  0
  7  8  1  0
  8  9  1  0
  9 10  1  0
 10 11  1  0
 11 12  1  0
  2 13  1  0
 13 14  1  6
 14 15  1  0
 16 15  1  6
 16 17  1  0
 17 18  1  1
 18 19  1  6
 18 20  1  0
 21 20  1  1
 21 22  1  0
 22 23  1  0
 23 24  1  1
 23 25  1  0
 25 26  1  0
 26 27  1  0
 27 28  1  6
 27 29  1  0
 29 30  1  6
 30 31  1  0
 31 32  1  0
 32 33  1  6
 32 13  1  0
 32 16  1  0
 29 17  1  0
 27 21  1  0
M  END
>  <MS_ID>  (2066) 
MS2142

>  <SMILES>  (2066) 
C[C@H](CCC(=O)NCCCCN)[C@H]1CC[C@H]2[C@@H]3[C@@H](O)C[C@@H]4C[C@H](O)CC[C@]4(C)[C@H]3CC[C@]12C

>  <Structure_dimension>  (2066) 
2D

$$$$
MS2143
     RDKit          2D

 30 33  0  0  0  0  0  0  0  0999 V2000
   -8.6575    3.2831    0.0000 C   0  0  0  0  0  0  0  0  0  0  0  0
   -7.1981    2.9366    0.0000 C   0  0  0  0  0  0  0  0  0  0  0  0
   -6.7684    1.4995    0.0000 O   0  0  0  0  0  0  0  0  0  0  0  0
   -5.3090    1.1530    0.0000 C   0  0  0  0  0  0  0  0  0  0  0  0
   -4.2792    2.2437    0.0000 O   0  0  0  0  0  0  0  0  0  0  0  0
   -4.8793   -0.2841    0.0000 C   0  0  0  0  0  0  0  0  0  0  0  0
   -3.4199   -0.6306    0.0000 C   0  0  0  0  0  0  0  0  0  0  0  0
   -2.9902   -2.0677    0.0000 C   0  0  0  0  0  0  0  0  0  0  0  0
   -4.0199   -3.1584    0.0000 C   0  0  0  0  0  0  0  0  0  0  0  0
   -1.5307   -2.4142    0.0000 C   0  0  0  0  0  0  0  0  0  0  0  0
   -0.9532   -3.7985    0.0000 C   0  0  0  0  0  0  0  0  0  0  0  0
    0.5419   -3.6770    0.0000 C   0  0  0  0  0  0  0  0  0  0  0  0
    0.8883   -2.2176    0.0000 C   0  0  0  0  0  0  0  0  0  0  0  0
    2.2047   -1.4985    0.0000 C   0  0  0  0  0  0  0  0  0  0  0  0
    3.4857   -2.2790    0.0000 C   0  0  0  0  0  0  0  0  0  0  0  0
    4.8021   -1.5599    0.0000 C   0  0  0  0  0  0  0  0  0  0  0  0
    4.8375   -0.0603    0.0000 C   0  0  0  0  0  0  0  0  0  0  0  0
    6.1539    0.6588    0.0000 C   0  0  0  0  0  0  0  0  0  0  0  0
    6.1894    2.1583    0.0000 C   0  0  0  0  0  0  0  0  0  0  0  0
    7.5058    2.8774    0.0000 O   0  0  0  0  0  0  0  0  0  0  0  0
    4.9084    2.9388    0.0000 C   0  0  0  0  0  0  0  0  0  0  0  0
    3.5920    2.2197    0.0000 C   0  0  0  0  0  0  0  0  0  0  0  0
    3.5566    0.7202    0.0000 C   0  0  0  0  0  0  0  0  0  0  0  0
    2.2756    1.5007    0.0000 C   0  0  0  0  0  0  0  0  0  0  0  0
    2.2402    0.0011    0.0000 C   0  0  0  0  0  0  0  0  0  0  0  0
    0.9592    0.7816    0.0000 C   0  0  0  0  0  0  0  0  0  0  0  0
   -0.3572    0.0625    0.0000 C   0  0  0  0  0  0  0  0  0  0  0  0
   -1.6381    0.8430    0.0000 O   0  0  0  0  0  0  0  0  0  0  0  0
   -0.3926   -1.4371    0.0000 C   0  0  0  0  0  0  0  0  0  0  0  0
   -1.7481   -0.7948    0.0000 C   0  0  0  0  0  0  0  0  0  0  0  0
  1  2  1  0
  2  3  1  0
  3  4  1  0
  4  5  2  0
  4  6  1  0
  6  7  1  0
  7  8  1  0
  8  9  1  6
  8 10  1  0
 10 11  1  6
 11 12  1  0
 13 12  1  6
 13 14  1  0
 14 15  1  1
 15 16  1  0
 17 16  1  1
 17 18  1  0
 18 19  1  0
 19 20  1  1
 19 21  1  0
 21 22  1  0
 22 23  1  0
 23 24  1  6
 23 25  1  0
 25 26  1  6
 26 27  1  0
 27 28  1  6
 27 29  1  0
 29 30  1  6
 29 10  1  0
 29 13  1  0
 25 14  1  0
 23 17  1  0
M  END
>  <MS_ID>  (2067) 
MS2143

>  <SMILES>  (2067) 
CCOC(=O)CC[C@@H](C)[C@H]1CC[C@H]2[C@@H]3CC[C@@H]4C[C@H](O)CC[C@]4(C)[C@H]3C[C@@H](O)[C@]12C

>  <Structure_dimension>  (2067) 
2D

$$$$
MS2144
     RDKit          2D

 32 35  0  0  0  0  0  0  0  0999 V2000
   -5.0725   -2.5071    0.0000 C   0  0  0  0  0  0  0  0  0  0  0  0
   -3.9135   -1.5549    0.0000 C   0  0  0  0  0  0  0  0  0  0  0  0
   -4.1586   -0.0751    0.0000 C   0  0  0  0  0  0  0  0  0  0  0  0
   -5.5627    0.4526    0.0000 C   0  0  0  0  0  0  0  0  0  0  0  0
   -5.8078    1.9324    0.0000 C   0  0  0  0  0  0  0  0  0  0  0  0
   -4.6488    2.8846    0.0000 O   0  0  0  0  0  0  0  0  0  0  0  0
   -7.2120    2.4601    0.0000 C   0  0  0  0  0  0  0  0  0  0  0  0
   -8.3710    1.5079    0.0000 O   0  0  0  0  0  0  0  0  0  0  0  0
   -7.4571    3.9399    0.0000 O   0  0  0  0  0  0  0  0  0  0  0  0
   -2.5094   -2.0826    0.0000 C   0  0  0  0  0  0  0  0  0  0  0  0
   -2.1109   -3.5287    0.0000 C   0  0  0  0  0  0  0  0  0  0  0  0
   -0.6125   -3.5966    0.0000 C   0  0  0  0  0  0  0  0  0  0  0  0
   -0.0848   -2.1925    0.0000 C   0  0  0  0  0  0  0  0  0  0  0  0
    1.3117   -1.6450    0.0000 C   0  0  0  0  0  0  0  0  0  0  0  0
    2.4841   -2.5808    0.0000 C   0  0  0  0  0  0  0  0  0  0  0  0
    2.2599   -4.0639    0.0000 O   0  0  0  0  0  0  0  0  0  0  0  0
    3.8806   -2.0333    0.0000 C   0  0  0  0  0  0  0  0  0  0  0  0
    4.1048   -0.5502    0.0000 C   0  0  0  0  0  0  0  0  0  0  0  0
    5.5014   -0.0028    0.0000 C   0  0  0  0  0  0  0  0  0  0  0  0
    5.7255    1.4804    0.0000 C   0  0  0  0  0  0  0  0  0  0  0  0
    7.1221    2.0278    0.0000 C   0  0  0  0  0  0  0  0  0  0  0  0
    7.3463    3.5110    0.0000 O   0  0  0  0  0  0  0  0  0  0  0  0
    8.2944    1.0921    0.0000 O   0  0  0  0  0  0  0  0  0  0  0  0
    4.5532    2.4161    0.0000 C   0  0  0  0  0  0  0  0  0  0  0  0
    3.1566    1.8687    0.0000 C   0  0  0  0  0  0  0  0  0  0  0  0
    2.9325    0.3855    0.0000 C   0  0  0  0  0  0  0  0  0  0  0  0
    1.7601    1.3213    0.0000 C   0  0  0  0  0  0  0  0  0  0  0  0
    1.5359   -0.1619    0.0000 C   0  0  0  0  0  0  0  0  0  0  0  0
    0.3636    0.7738    0.0000 C   0  0  0  0  0  0  0  0  0  0  0  0
   -1.0330    0.2264    0.0000 C   0  0  0  0  0  0  0  0  0  0  0  0
   -1.2572   -1.2567    0.0000 C   0  0  0  0  0  0  0  0  0  0  0  0
   -2.5209   -0.4487    0.0000 C   0  0  0  0  0  0  0  0  0  0  0  0
  2  1  1  6
  2  3  1  0
  3  4  1  0
  4  5  1  0
  5  6  2  0
  5  7  1  0
  7  8  2  0
  7  9  1  0
  2 10  1  0
 10 11  1  6
 11 12  1  0
 13 12  1  6
 13 14  1  0
 14 15  1  1
 15 16  1  6
 15 17  1  0
 18 17  1  1
 18 19  1  0
 19 20  1  0
 20 21  1  1
 21 22  2  0
 21 23  1  0
 20 24  1  0
 24 25  1  0
 25 26  1  0
 26 27  1  6
 26 28  1  0
 28 29  1  6
 29 30  1  0
 30 31  1  0
 31 32  1  6
 31 10  1  0
 31 13  1  0
 28 14  1  0
 26 18  1  0
M  END
>  <MS_ID>  (2068) 
MS2144

>  <SMILES>  (2068) 
C[C@H](CCC(=O)C(=O)O)[C@H]1CC[C@H]2[C@@H]3[C@@H](O)C[C@@H]4C[C@H](C(=O)O)CC[C@]4(C)[C@H]3CC[C@]12C

>  <Structure_dimension>  (2068) 
2D

$$$$
MS2145
     RDKit          2D

 41 45  0  0  0  0  0  0  0  0999 V2000
   -7.8790   -2.1838    0.0000 C   0  0  0  0  0  0  0  0  0  0  0  0
   -6.7258   -1.2247    0.0000 C   0  0  0  0  0  0  0  0  0  0  0  0
   -6.9798    0.2537    0.0000 C   0  0  0  0  0  0  0  0  0  0  0  0
   -8.3871    0.7728    0.0000 C   0  0  0  0  0  0  0  0  0  0  0  0
   -8.6411    2.2512    0.0000 C   0  0  0  0  0  0  0  0  0  0  0  0
  -10.0484    2.7703    0.0000 N   0  0  0  0  0  0  0  0  0  0  0  0
   -7.4878    3.2103    0.0000 O   0  0  0  0  0  0  0  0  0  0  0  0
   -5.3185   -1.7438    0.0000 C   0  0  0  0  0  0  0  0  0  0  0  0
   -4.9113   -3.1875    0.0000 C   0  0  0  0  0  0  0  0  0  0  0  0
   -3.4125   -3.2464    0.0000 C   0  0  0  0  0  0  0  0  0  0  0  0
   -2.8933   -1.8391    0.0000 C   0  0  0  0  0  0  0  0  0  0  0  0
   -1.5001   -1.2833    0.0000 C   0  0  0  0  0  0  0  0  0  0  0  0
   -0.3221   -2.2119    0.0000 C   0  0  0  0  0  0  0  0  0  0  0  0
   -0.5373   -3.6964    0.0000 O   0  0  0  0  0  0  0  0  0  0  0  0
    1.0711   -1.6561    0.0000 C   0  0  0  0  0  0  0  0  0  0  0  0
    1.2863   -0.1716    0.0000 C   0  0  0  0  0  0  0  0  0  0  0  0
    2.6796    0.3843    0.0000 C   0  0  0  0  0  0  0  0  0  0  0  0
    2.8948    1.8687    0.0000 C   0  0  0  0  0  0  0  0  0  0  0  0
    4.2880    2.4246    0.0000 O   0  0  0  0  0  0  0  0  0  0  0  0
    5.4660    1.4959    0.0000 C   0  0  0  0  0  0  0  0  0  0  0  0
    5.2508    0.0115    0.0000 O   0  0  0  0  0  0  0  0  0  0  0  0
    6.4287   -0.9172    0.0000 C   0  0  0  0  0  0  0  0  0  0  0  0
    6.2135   -2.4016    0.0000 C   0  0  0  0  0  0  0  0  0  0  0  0
    7.3915   -3.3303    0.0000 O   0  0  0  0  0  0  0  0  0  0  0  0
    4.8203   -2.9575    0.0000 O   0  0  0  0  0  0  0  0  0  0  0  0
    7.8219   -0.3613    0.0000 C   0  0  0  0  0  0  0  0  0  0  0  0
    8.9999   -1.2900    0.0000 O   0  0  0  0  0  0  0  0  0  0  0  0
    8.0372    1.1232    0.0000 C   0  0  0  0  0  0  0  0  0  0  0  0
    9.4304    1.6790    0.0000 O   0  0  0  0  0  0  0  0  0  0  0  0
    6.8592    2.0518    0.0000 C   0  0  0  0  0  0  0  0  0  0  0  0
    7.0744    3.5363    0.0000 O   0  0  0  0  0  0  0  0  0  0  0  0
    1.7168    2.7974    0.0000 C   0  0  0  0  0  0  0  0  0  0  0  0
    0.3236    2.2415    0.0000 C   0  0  0  0  0  0  0  0  0  0  0  0
    0.1084    0.7571    0.0000 C   0  0  0  0  0  0  0  0  0  0  0  0
   -1.0696    1.6857    0.0000 C   0  0  0  0  0  0  0  0  0  0  0  0
   -1.2848    0.2012    0.0000 C   0  0  0  0  0  0  0  0  0  0  0  0
   -2.4628    1.1298    0.0000 C   0  0  0  0  0  0  0  0  0  0  0  0
   -3.8560    0.5740    0.0000 C   0  0  0  0  0  0  0  0  0  0  0  0
   -5.0340    1.5026    0.0000 O   0  0  0  0  0  0  0  0  0  0  0  0
   -4.0713   -0.9105    0.0000 C   0  0  0  0  0  0  0  0  0  0  0  0
   -5.3399   -0.1101    0.0000 C   0  0  0  0  0  0  0  0  0  0  0  0
  2  1  1  6
  2  3  1  0
  3  4  1  0
  4  5  1  0
  5  6  1  0
  5  7  2  0
  2  8  1  0
  8  9  1  6
  9 10  1  0
 11 10  1  6
 11 12  1  0
 12 13  1  1
 13 14  1  1
 13 15  1  0
 16 15  1  1
 16 17  1  0
 17 18  1  0
 18 19  1  1
 20 19  1  1
 20 21  1  0
 21 22  1  0
 22 23  1  1
 23 24  2  0
 23 25  1  0
 22 26  1  0
 26 27  1  1
 26 28  1  0
 28 29  1  1
 28 30  1  0
 30 31  1  6
 18 32  1  0
 32 33  1  0
 33 34  1  0
 34 35  1  6
 34 36  1  0
 36 37  1  6
 37 38  1  0
 38 39  1  1
 38 40  1  0
 40 41  1  6
 40  8  1  0
 40 11  1  0
 36 12  1  0
 34 16  1  0
 30 20  1  0
M  END
>  <MS_ID>  (2069) 
MS2145

>  <SMILES>  (2069) 
C[C@H](CCC(N)=O)[C@H]1CC[C@H]2[C@@H]3[C@H](O)C[C@@H]4C[C@H](O[C@@H]5O[C@H](C(=O)O)[C@H](O)[C@H](O)[C@H]5O)CC[C@]4(C)[C@H]3C[C@H](O)[C@]12C

>  <Structure_dimension>  (2069) 
2D

$$$$
MS2146
     RDKit          2D

 30 33  0  0  0  0  0  0  0  0999 V2000
   -4.3209   -2.7536    0.0000 C   0  0  0  0  0  0  0  0  0  0  0  0
   -3.2523   -1.7010    0.0000 C   0  0  0  0  0  0  0  0  0  0  0  0
   -3.6295   -0.2492    0.0000 C   0  0  0  0  0  0  0  0  0  0  0  0
   -5.0755    0.1499    0.0000 C   0  0  0  0  0  0  0  0  0  0  0  0
   -5.4527    1.6017    0.0000 C   0  0  0  0  0  0  0  0  0  0  0  0
   -4.3841    2.6543    0.0000 O   0  0  0  0  0  0  0  0  0  0  0  0
   -6.8987    2.0009    0.0000 C   0  0  0  0  0  0  0  0  0  0  0  0
   -7.9673    0.9482    0.0000 O   0  0  0  0  0  0  0  0  0  0  0  0
   -7.2759    3.4526    0.0000 O   0  0  0  0  0  0  0  0  0  0  0  0
   -1.8064   -2.1002    0.0000 C   0  0  0  0  0  0  0  0  0  0  0  0
   -1.2794   -3.5046    0.0000 C   0  0  0  0  0  0  0  0  0  0  0  0
    0.2191   -3.4374    0.0000 C   0  0  0  0  0  0  0  0  0  0  0  0
    0.6183   -1.9915    0.0000 C   0  0  0  0  0  0  0  0  0  0  0  0
    1.9599   -1.3206    0.0000 C   0  0  0  0  0  0  0  0  0  0  0  0
    3.2117   -2.1470    0.0000 C   0  0  0  0  0  0  0  0  0  0  0  0
    3.1219   -3.6443    0.0000 O   0  0  0  0  0  0  0  0  0  0  0  0
    4.5533   -1.4762    0.0000 C   0  0  0  0  0  0  0  0  0  0  0  0
    4.6431    0.0211    0.0000 C   0  0  0  0  0  0  0  0  0  0  0  0
    5.9847    0.6920    0.0000 C   0  0  0  0  0  0  0  0  0  0  0  0
    6.0745    2.1893    0.0000 C   0  0  0  0  0  0  0  0  0  0  0  0
    7.4161    2.8602    0.0000 O   0  0  0  0  0  0  0  0  0  0  0  0
    4.8227    3.0158    0.0000 C   0  0  0  0  0  0  0  0  0  0  0  0
    3.4811    2.3449    0.0000 C   0  0  0  0  0  0  0  0  0  0  0  0
    3.3913    0.8476    0.0000 C   0  0  0  0  0  0  0  0  0  0  0  0
    2.1395    1.6740    0.0000 C   0  0  0  0  0  0  0  0  0  0  0  0
    2.0497    0.1767    0.0000 C   0  0  0  0  0  0  0  0  0  0  0  0
    0.7979    1.0031    0.0000 C   0  0  0  0  0  0  0  0  0  0  0  0
   -0.5437    0.3323    0.0000 C   0  0  0  0  0  0  0  0  0  0  0  0
   -0.6335   -1.1650    0.0000 C   0  0  0  0  0  0  0  0  0  0  0  0
   -1.9649   -0.4740    0.0000 C   0  0  0  0  0  0  0  0  0  0  0  0
  2  1  1  6
  2  3  1  0
  3  4  1  0
  4  5  1  0
  5  6  2  0
  5  7  1  0
  7  8  2  0
  7  9  1  0
  2 10  1  0
 10 11  1  6
 11 12  1  0
 13 12  1  6
 13 14  1  0
 14 15  1  1
 15 16  2  0
 15 17  1  0
 18 17  1  1
 18 19  1  0
 19 20  1  0
 20 21  1  1
 20 22  1  0
 22 23  1  0
 23 24  1  0
 24 25  1  6
 24 26  1  0
 26 27  1  6
 27 28  1  0
 28 29  1  0
 29 30  1  6
 29 10  1  0
 29 13  1  0
 26 14  1  0
 24 18  1  0
M  END
>  <MS_ID>  (2070) 
MS2146

>  <SMILES>  (2070) 
C[C@H](CCC(=O)C(=O)O)[C@H]1CC[C@H]2[C@@H]3C(=O)C[C@@H]4C[C@H](O)CC[C@]4(C)[C@H]3CC[C@]12C

>  <Structure_dimension>  (2070) 
2D

$$$$
MS2147
     RDKit          2D

 37 41  0  0  0  0  0  0  0  0999 V2000
   -1.5359   -4.6421    0.0000 C   0  0  0  0  0  0  0  0  0  0  0  0
   -0.9114   -3.2783    0.0000 C   0  0  0  0  0  0  0  0  0  0  0  0
   -1.7803   -2.0555    0.0000 C   0  0  0  0  0  0  0  0  0  0  0  0
   -3.2736   -2.1966    0.0000 C   0  0  0  0  0  0  0  0  0  0  0  0
   -4.1424   -0.9738    0.0000 C   0  0  0  0  0  0  0  0  0  0  0  0
   -3.5179    0.3900    0.0000 O   0  0  0  0  0  0  0  0  0  0  0  0
   -5.6358   -1.1149    0.0000 O   0  0  0  0  0  0  0  0  0  0  0  0
   -6.5046    0.1079    0.0000 C   0  0  0  0  0  0  0  0  0  0  0  0
   -8.0045    0.1237    0.0000 C   0  0  0  0  0  0  0  0  0  0  0  0
   -8.4530    1.5551    0.0000 C   0  0  0  0  0  0  0  0  0  0  0  0
   -9.8746    2.0336    0.0000 O   0  0  0  0  0  0  0  0  0  0  0  0
   -7.2303    2.4239    0.0000 C   0  0  0  0  0  0  0  0  0  0  0  0
   -7.2144    3.9239    0.0000 O   0  0  0  0  0  0  0  0  0  0  0  0
   -6.0261    1.5295    0.0000 C   0  0  0  0  0  0  0  0  0  0  0  0
   -4.5947    1.9780    0.0000 O   0  0  0  0  0  0  0  0  0  0  0  0
    0.5819   -3.1372    0.0000 C   0  0  0  0  0  0  0  0  0  0  0  0
    1.5738   -4.2624    0.0000 C   0  0  0  0  0  0  0  0  0  0  0  0
    2.9505   -3.6668    0.0000 C   0  0  0  0  0  0  0  0  0  0  0  0
    2.8094   -2.1735    0.0000 C   0  0  0  0  0  0  0  0  0  0  0  0
    3.8248   -1.0694    0.0000 C   0  0  0  0  0  0  0  0  0  0  0  0
    5.2887   -1.3967    0.0000 C   0  0  0  0  0  0  0  0  0  0  0  0
    5.7371   -2.8281    0.0000 O   0  0  0  0  0  0  0  0  0  0  0  0
    6.3041   -0.2926    0.0000 C   0  0  0  0  0  0  0  0  0  0  0  0
    5.8556    1.1388    0.0000 C   0  0  0  0  0  0  0  0  0  0  0  0
    6.8710    2.2428    0.0000 C   0  0  0  0  0  0  0  0  0  0  0  0
    6.4225    3.6742    0.0000 C   0  0  0  0  0  0  0  0  0  0  0  0
    7.4379    4.7783    0.0000 O   0  0  0  0  0  0  0  0  0  0  0  0
    4.9587    4.0016    0.0000 C   0  0  0  0  0  0  0  0  0  0  0  0
    3.9433    2.8975    0.0000 C   0  0  0  0  0  0  0  0  0  0  0  0
    4.3918    1.4661    0.0000 C   0  0  0  0  0  0  0  0  0  0  0  0
    2.9279    1.7934    0.0000 C   0  0  0  0  0  0  0  0  0  0  0  0
    3.3764    0.3620    0.0000 C   0  0  0  0  0  0  0  0  0  0  0  0
    1.9125    0.6893    0.0000 C   0  0  0  0  0  0  0  0  0  0  0  0
    0.8971   -0.4147    0.0000 C   0  0  0  0  0  0  0  0  0  0  0  0
   -0.5667   -0.0874    0.0000 O   0  0  0  0  0  0  0  0  0  0  0  0
    1.3456   -1.8461    0.0000 C   0  0  0  0  0  0  0  0  0  0  0  0
   -0.1445   -1.6736    0.0000 C   0  0  0  0  0  0  0  0  0  0  0  0
  2  1  1  6
  2  3  1  0
  3  4  1  0
  4  5  1  0
  5  6  2  0
  5  7  1  0
  8  7  1  1
  8  9  1  0
  9 10  1  0
 10 11  1  6
 10 12  1  0
 12 13  1  6
 12 14  1  0
 14 15  1  6
  2 16  1  0
 16 17  1  6
 17 18  1  0
 19 18  1  6
 19 20  1  0
 20 21  1  1
 21 22  1  1
 21 23  1  0
 24 23  1  1
 24 25  1  0
 25 26  1  0
 26 27  1  1
 26 28  1  0
 28 29  1  0
 29 30  1  0
 30 31  1  6
 30 32  1  0
 32 33  1  6
 33 34  1  0
 34 35  1  1
 34 36  1  0
 36 37  1  6
 14  8  1  0
 36 16  1  0
 36 19  1  0
 32 20  1  0
 30 24  1  0
M  END
>  <MS_ID>  (2071) 
MS2147

>  <SMILES>  (2071) 
C[C@H](CCC(=O)O[C@H]1C[C@H](O)[C@H](O)[C@@H]1O)[C@H]1CC[C@H]2[C@@H]3[C@H](O)C[C@@H]4C[C@H](O)CC[C@]4(C)[C@H]3C[C@H](O)[C@]12C

>  <Structure_dimension>  (2071) 
2D

$$$$
MS2148
     RDKit          2D

 34 37  0  0  0  0  0  0  0  0999 V2000
   -5.8090   -2.6537    0.0000 C   0  0  0  0  0  0  0  0  0  0  0  0
   -4.6593   -1.6903    0.0000 C   0  0  0  0  0  0  0  0  0  0  0  0
   -4.9188   -0.2130    0.0000 C   0  0  0  0  0  0  0  0  0  0  0  0
   -6.3280    0.3010    0.0000 C   0  0  0  0  0  0  0  0  0  0  0  0
   -6.5875    1.7784    0.0000 C   0  0  0  0  0  0  0  0  0  0  0  0
   -7.9966    2.2924    0.0000 O   0  0  0  0  0  0  0  0  0  0  0  0
   -5.4377    2.7418    0.0000 O   0  0  0  0  0  0  0  0  0  0  0  0
   -5.6972    4.2192    0.0000 C   0  0  0  0  0  0  0  0  0  0  0  0
   -4.5475    5.1826    0.0000 Cl  0  0  0  0  0  0  0  0  0  0  0  0
   -3.2501   -2.2043    0.0000 C   0  0  0  0  0  0  0  0  0  0  0  0
   -2.8376   -3.6465    0.0000 C   0  0  0  0  0  0  0  0  0  0  0  0
   -1.3386   -3.6999    0.0000 C   0  0  0  0  0  0  0  0  0  0  0  0
   -0.8246   -2.2907    0.0000 C   0  0  0  0  0  0  0  0  0  0  0  0
    0.5665   -1.7297    0.0000 C   0  0  0  0  0  0  0  0  0  0  0  0
    1.7479   -2.6540    0.0000 C   0  0  0  0  0  0  0  0  0  0  0  0
    1.5382   -4.1393    0.0000 O   0  0  0  0  0  0  0  0  0  0  0  0
    3.1391   -2.0930    0.0000 C   0  0  0  0  0  0  0  0  0  0  0  0
    3.3489   -0.6078    0.0000 C   0  0  0  0  0  0  0  0  0  0  0  0
    4.7400   -0.0468    0.0000 C   0  0  0  0  0  0  0  0  0  0  0  0
    4.9498    1.4385    0.0000 C   0  0  0  0  0  0  0  0  0  0  0  0
    6.3409    1.9994    0.0000 O   0  0  0  0  0  0  0  0  0  0  0  0
    7.5223    1.0751    0.0000 S   0  0  0  0  0  0  0  0  0  0  0  0
    6.5980   -0.1062    0.0000 O   0  0  0  0  0  0  0  0  0  0  0  0
    8.4466    2.2565    0.0000 O   0  0  0  0  0  0  0  0  0  0  0  0
    8.7037    0.1509    0.0000 O   0  0  0  0  0  0  0  0  0  0  0  0
    3.7684    2.3628    0.0000 C   0  0  0  0  0  0  0  0  0  0  0  0
    2.3772    1.8018    0.0000 C   0  0  0  0  0  0  0  0  0  0  0  0
    2.1675    0.3165    0.0000 C   0  0  0  0  0  0  0  0  0  0  0  0
    0.9861    1.2408    0.0000 C   0  0  0  0  0  0  0  0  0  0  0  0
    0.7763   -0.2444    0.0000 C   0  0  0  0  0  0  0  0  0  0  0  0
   -0.4051    0.6799    0.0000 C   0  0  0  0  0  0  0  0  0  0  0  0
   -1.7962    0.1189    0.0000 C   0  0  0  0  0  0  0  0  0  0  0  0
   -2.0060   -1.3664    0.0000 C   0  0  0  0  0  0  0  0  0  0  0  0
   -3.2775   -0.5706    0.0000 C   0  0  0  0  0  0  0  0  0  0  0  0
  2  1  1  6
  2  3  1  0
  3  4  1  0
  4  5  1  0
  5  6  2  0
  5  7  1  0
  7  8  1  0
  8  9  1  0
  2 10  1  0
 10 11  1  6
 11 12  1  0
 13 12  1  6
 13 14  1  0
 14 15  1  1
 15 16  1  6
 15 17  1  0
 18 17  1  1
 18 19  1  0
 19 20  1  0
 20 21  1  1
 21 22  1  0
 22 23  2  0
 22 24  2  0
 22 25  1  0
 20 26  1  0
 26 27  1  0
 27 28  1  0
 28 29  1  6
 28 30  1  0
 30 31  1  6
 31 32  1  0
 32 33  1  0
 33 34  1  6
 33 10  1  0
 33 13  1  0
 30 14  1  0
 28 18  1  0
M  END
>  <MS_ID>  (2072) 
MS2148

>  <SMILES>  (2072) 
C[C@H](CCC(=O)OCCl)[C@H]1CC[C@H]2[C@@H]3[C@@H](O)C[C@@H]4C[C@H](OS(=O)(=O)O)CC[C@]4(C)[C@H]3CC[C@]12C

>  <Structure_dimension>  (2072) 
2D

$$$$
MS2149
     RDKit          2D

 36 39  0  0  0  0  0  0  0  0999 V2000
   -1.7543   -4.1859    0.0000 C   0  0  0  0  0  0  0  0  0  0  0  0
   -1.0235   -2.8759    0.0000 C   0  0  0  0  0  0  0  0  0  0  0  0
   -1.7925   -1.5881    0.0000 C   0  0  0  0  0  0  0  0  0  0  0  0
   -3.2923   -1.6101    0.0000 C   0  0  0  0  0  0  0  0  0  0  0  0
   -4.0614   -0.3223    0.0000 C   0  0  0  0  0  0  0  0  0  0  0  0
   -3.3306    0.9877    0.0000 O   0  0  0  0  0  0  0  0  0  0  0  0
   -5.5612   -0.3443    0.0000 C   0  0  0  0  0  0  0  0  0  0  0  0
   -6.2920   -1.6543    0.0000 O   0  0  0  0  0  0  0  0  0  0  0  0
   -6.3302    0.9435    0.0000 N   0  0  0  0  0  0  0  0  0  0  0  0
   -7.8301    0.9215    0.0000 C   0  0  0  0  0  0  0  0  0  0  0  0
   -8.5991    2.2093    0.0000 C   0  0  0  0  0  0  0  0  0  0  0  0
  -10.0989    2.1873    0.0000 C   0  0  0  0  0  0  0  0  0  0  0  0
  -10.8297    0.8773    0.0000 O   0  0  0  0  0  0  0  0  0  0  0  0
  -10.8680    3.4751    0.0000 O   0  0  0  0  0  0  0  0  0  0  0  0
    0.4764   -2.8539    0.0000 C   0  0  0  0  0  0  0  0  0  0  0  0
    1.3758   -4.0543    0.0000 C   0  0  0  0  0  0  0  0  0  0  0  0
    2.7954   -3.5698    0.0000 C   0  0  0  0  0  0  0  0  0  0  0  0
    2.7734   -2.0700    0.0000 C   0  0  0  0  0  0  0  0  0  0  0  0
    3.8732   -1.0500    0.0000 C   0  0  0  0  0  0  0  0  0  0  0  0
    5.3064   -1.4925    0.0000 C   0  0  0  0  0  0  0  0  0  0  0  0
    5.6399   -2.9550    0.0000 O   0  0  0  0  0  0  0  0  0  0  0  0
    6.4063   -0.4725    0.0000 C   0  0  0  0  0  0  0  0  0  0  0  0
    6.0728    0.9900    0.0000 C   0  0  0  0  0  0  0  0  0  0  0  0
    7.1727    2.0100    0.0000 C   0  0  0  0  0  0  0  0  0  0  0  0
    6.8393    3.4724    0.0000 C   0  0  0  0  0  0  0  0  0  0  0  0
    7.9391    4.4924    0.0000 O   0  0  0  0  0  0  0  0  0  0  0  0
    5.4060    3.9149    0.0000 C   0  0  0  0  0  0  0  0  0  0  0  0
    4.3062    2.8949    0.0000 C   0  0  0  0  0  0  0  0  0  0  0  0
    4.6396    1.4325    0.0000 C   0  0  0  0  0  0  0  0  0  0  0  0
    3.2063    1.8749    0.0000 C   0  0  0  0  0  0  0  0  0  0  0  0
    3.5398    0.4125    0.0000 C   0  0  0  0  0  0  0  0  0  0  0  0
    2.1065    0.8550    0.0000 C   0  0  0  0  0  0  0  0  0  0  0  0
    1.0067   -0.1650    0.0000 C   0  0  0  0  0  0  0  0  0  0  0  0
   -0.4266    0.2775    0.0000 O   0  0  0  0  0  0  0  0  0  0  0  0
    1.3401   -1.6275    0.0000 C   0  0  0  0  0  0  0  0  0  0  0  0
   -0.1315   -1.3373    0.0000 C   0  0  0  0  0  0  0  0  0  0  0  0
  2  1  1  6
  2  3  1  0
  3  4  1  0
  4  5  1  0
  5  6  2  0
  5  7  1  0
  7  8  2  0
  7  9  1  0
  9 10  1  0
 10 11  1  0
 11 12  1  0
 12 13  2  0
 12 14  1  0
  2 15  1  0
 15 16  1  6
 16 17  1  0
 18 17  1  6
 18 19  1  0
 19 20  1  1
 20 21  1  1
 20 22  1  0
 23 22  1  1
 23 24  1  0
 24 25  1  0
 25 26  1  1
 25 27  1  0
 27 28  1  0
 28 29  1  0
 29 30  1  6
 29 31  1  0
 31 32  1  6
 32 33  1  0
 33 34  1  1
 33 35  1  0
 35 36  1  6
 35 15  1  0
 35 18  1  0
 31 19  1  0
 29 23  1  0
M  END
>  <MS_ID>  (2073) 
MS2149

>  <SMILES>  (2073) 
C[C@H](CCC(=O)C(=O)NCCC(=O)O)[C@H]1CC[C@H]2[C@@H]3[C@H](O)C[C@@H]4C[C@H](O)CC[C@]4(C)[C@H]3C[C@H](O)[C@]12C

>  <Structure_dimension>  (2073) 
2D

$$$$
MS2150
     RDKit          2D

 29 32  0  0  0  0  0  0  0  0999 V2000
   -7.4712    3.6525    0.0000 C   0  0  0  0  0  0  0  0  0  0  0  0
   -7.1264    2.1927    0.0000 C   0  0  0  0  0  0  0  0  0  0  0  0
   -5.6897    1.7615    0.0000 C   0  0  0  0  0  0  0  0  0  0  0  0
   -4.5979    2.7900    0.0000 O   0  0  0  0  0  0  0  0  0  0  0  0
   -5.3448    0.3016    0.0000 C   0  0  0  0  0  0  0  0  0  0  0  0
   -3.9081   -0.1296    0.0000 C   0  0  0  0  0  0  0  0  0  0  0  0
   -3.5633   -1.5894    0.0000 C   0  0  0  0  0  0  0  0  0  0  0  0
   -4.6551   -2.6180    0.0000 C   0  0  0  0  0  0  0  0  0  0  0  0
   -2.1266   -2.0207    0.0000 C   0  0  0  0  0  0  0  0  0  0  0  0
   -1.6310   -3.4364    0.0000 C   0  0  0  0  0  0  0  0  0  0  0  0
   -0.1314   -3.4026    0.0000 C   0  0  0  0  0  0  0  0  0  0  0  0
    0.2998   -1.9659    0.0000 C   0  0  0  0  0  0  0  0  0  0  0  0
    1.6561   -1.3251    0.0000 C   0  0  0  0  0  0  0  0  0  0  0  0
    2.8892   -2.1792    0.0000 C   0  0  0  0  0  0  0  0  0  0  0  0
    2.7660   -3.6741    0.0000 O   0  0  0  0  0  0  0  0  0  0  0  0
    4.2454   -1.5383    0.0000 C   0  0  0  0  0  0  0  0  0  0  0  0
    4.3685   -0.0434    0.0000 C   0  0  0  0  0  0  0  0  0  0  0  0
    5.7247    0.5975    0.0000 C   0  0  0  0  0  0  0  0  0  0  0  0
    5.8478    2.0924    0.0000 C   0  0  0  0  0  0  0  0  0  0  0  0
    7.2040    2.7332    0.0000 O   0  0  0  0  0  0  0  0  0  0  0  0
    4.6147    2.9465    0.0000 C   0  0  0  0  0  0  0  0  0  0  0  0
    3.2585    2.3056    0.0000 C   0  0  0  0  0  0  0  0  0  0  0  0
    3.1354    0.8107    0.0000 C   0  0  0  0  0  0  0  0  0  0  0  0
    1.9023    1.6648    0.0000 C   0  0  0  0  0  0  0  0  0  0  0  0
    1.7792    0.1699    0.0000 C   0  0  0  0  0  0  0  0  0  0  0  0
    0.5461    1.0239    0.0000 C   0  0  0  0  0  0  0  0  0  0  0  0
   -0.8101    0.3831    0.0000 C   0  0  0  0  0  0  0  0  0  0  0  0
   -0.9333   -1.1118    0.0000 C   0  0  0  0  0  0  0  0  0  0  0  0
   -2.2489   -0.3913    0.0000 C   0  0  0  0  0  0  0  0  0  0  0  0
  1  2  1  0
  2  3  1  0
  3  4  2  0
  3  5  1  0
  5  6  1  0
  6  7  1  0
  7  8  1  6
  7  9  1  0
  9 10  1  6
 10 11  1  0
 12 11  1  6
 12 13  1  0
 13 14  1  1
 14 15  1  1
 14 16  1  0
 17 16  1  1
 17 18  1  0
 18 19  1  0
 19 20  2  0
 19 21  1  0
 21 22  1  0
 22 23  1  0
 23 24  1  6
 23 25  1  0
 25 26  1  6
 26 27  1  0
 27 28  1  0
 28 29  1  6
 28  9  1  0
 28 12  1  0
 25 13  1  0
 23 17  1  0
M  END
>  <MS_ID>  (2074) 
MS2150

>  <SMILES>  (2074) 
CCC(=O)CC[C@@H](C)[C@H]1CC[C@H]2[C@@H]3[C@H](O)C[C@@H]4CC(=O)CC[C@]4(C)[C@H]3CC[C@]12C

>  <Structure_dimension>  (2074) 
2D

$$$$
MS2151
     RDKit          2D

 32 35  0  0  0  0  0  0  0  0999 V2000
   -2.9601   -4.0276    0.0000 C   0  0  0  0  0  0  0  0  0  0  0  0
   -2.1036   -2.7962    0.0000 C   0  0  0  0  0  0  0  0  0  0  0  0
   -2.7418   -1.4387    0.0000 C   0  0  0  0  0  0  0  0  0  0  0  0
   -4.2365   -1.3127    0.0000 C   0  0  0  0  0  0  0  0  0  0  0  0
   -4.8747    0.0448    0.0000 C   0  0  0  0  0  0  0  0  0  0  0  0
   -4.0182    1.2762    0.0000 O   0  0  0  0  0  0  0  0  0  0  0  0
   -6.3694    0.1708    0.0000 N   0  0  0  0  0  0  0  0  0  0  0  0
   -7.0076    1.5283    0.0000 C   0  0  0  0  0  0  0  0  0  0  0  0
   -8.5023    1.6543    0.0000 C   0  0  0  0  0  0  0  0  0  0  0  0
   -6.1511    2.7597    0.0000 C   0  0  0  0  0  0  0  0  0  0  0  0
   -4.6564    2.6337    0.0000 O   0  0  0  0  0  0  0  0  0  0  0  0
   -6.7893    4.1172    0.0000 O   0  0  0  0  0  0  0  0  0  0  0  0
   -0.6089   -2.9222    0.0000 C   0  0  0  0  0  0  0  0  0  0  0  0
    0.1677   -4.2055    0.0000 C   0  0  0  0  0  0  0  0  0  0  0  0
    1.6282   -3.8635    0.0000 C   0  0  0  0  0  0  0  0  0  0  0  0
    1.7542   -2.3688    0.0000 C   0  0  0  0  0  0  0  0  0  0  0  0
    2.9493   -1.4623    0.0000 C   0  0  0  0  0  0  0  0  0  0  0  0
    4.3319   -2.0441    0.0000 C   0  0  0  0  0  0  0  0  0  0  0  0
    5.5270   -1.1376    0.0000 C   0  0  0  0  0  0  0  0  0  0  0  0
    5.3395    0.3507    0.0000 C   0  0  0  0  0  0  0  0  0  0  0  0
    6.5346    1.2572    0.0000 C   0  0  0  0  0  0  0  0  0  0  0  0
    6.3472    2.7454    0.0000 C   0  0  0  0  0  0  0  0  0  0  0  0
    7.5423    3.6519    0.0000 O   0  0  0  0  0  0  0  0  0  0  0  0
    4.9646    3.3271    0.0000 C   0  0  0  0  0  0  0  0  0  0  0  0
    3.7694    2.4207    0.0000 C   0  0  0  0  0  0  0  0  0  0  0  0
    3.9569    0.9324    0.0000 C   0  0  0  0  0  0  0  0  0  0  0  0
    2.5743    1.5142    0.0000 C   0  0  0  0  0  0  0  0  0  0  0  0
    2.7618    0.0259    0.0000 C   0  0  0  0  0  0  0  0  0  0  0  0
    1.3792    0.6077    0.0000 C   0  0  0  0  0  0  0  0  0  0  0  0
    0.1841   -0.2988    0.0000 C   0  0  0  0  0  0  0  0  0  0  0  0
    0.3716   -1.7870    0.0000 C   0  0  0  0  0  0  0  0  0  0  0  0
   -1.0642   -1.3530    0.0000 C   0  0  0  0  0  0  0  0  0  0  0  0
  2  1  1  6
  2  3  1  0
  3  4  1  0
  4  5  1  0
  5  6  2  0
  5  7  1  0
  7  8  1  0
  8  9  1  6
  8 10  1  0
 10 11  2  0
 10 12  1  0
  2 13  1  0
 13 14  1  6
 14 15  1  0
 16 15  1  6
 16 17  1  0
 17 18  1  1
 18 19  1  0
 20 19  1  1
 20 21  1  0
 21 22  1  0
 22 23  1  1
 22 24  1  0
 24 25  1  0
 25 26  1  0
 26 27  1  6
 26 28  1  0
 28 29  1  6
 29 30  1  0
 30 31  1  0
 31 32  1  6
 31 13  1  0
 31 16  1  0
 28 17  1  0
 26 20  1  0
M  END
>  <MS_ID>  (2075) 
MS2151

>  <SMILES>  (2075) 
C[C@H](CCC(=O)N[C@H](C)C(=O)O)[C@H]1CC[C@H]2[C@@H]3CC[C@@H]4C[C@H](O)CC[C@]4(C)[C@H]3CC[C@]12C

>  <Structure_dimension>  (2075) 
2D

$$$$
MS2152
     RDKit          2D

 29 32  0  0  0  0  0  0  0  0999 V2000
   -5.0303   -2.1373    0.0000 C   0  0  0  0  0  0  0  0  0  0  0  0
   -3.8594   -1.1998    0.0000 C   0  0  0  0  0  0  0  0  0  0  0  0
   -4.0858    0.2830    0.0000 C   0  0  0  0  0  0  0  0  0  0  0  0
   -5.4831    0.8284    0.0000 C   0  0  0  0  0  0  0  0  0  0  0  0
   -5.7095    2.3112    0.0000 C   0  0  0  0  0  0  0  0  0  0  0  0
   -4.5386    3.2487    0.0000 O   0  0  0  0  0  0  0  0  0  0  0  0
   -7.1069    2.8565    0.0000 O   0  0  0  0  0  0  0  0  0  0  0  0
   -2.4620   -1.7451    0.0000 C   0  0  0  0  0  0  0  0  0  0  0  0
   -2.0818   -3.1961    0.0000 C   0  0  0  0  0  0  0  0  0  0  0  0
   -0.5844   -3.2830    0.0000 C   0  0  0  0  0  0  0  0  0  0  0  0
   -0.0390   -1.8856    0.0000 C   0  0  0  0  0  0  0  0  0  0  0  0
    1.3643   -1.3559    0.0000 C   0  0  0  0  0  0  0  0  0  0  0  0
    2.5248   -2.3063    0.0000 C   0  0  0  0  0  0  0  0  0  0  0  0
    2.2819   -3.7865    0.0000 O   0  0  0  0  0  0  0  0  0  0  0  0
    3.9281   -1.7765    0.0000 C   0  0  0  0  0  0  0  0  0  0  0  0
    4.1710   -0.2963    0.0000 C   0  0  0  0  0  0  0  0  0  0  0  0
    5.5743    0.2334    0.0000 C   0  0  0  0  0  0  0  0  0  0  0  0
    5.8172    1.7136    0.0000 C   0  0  0  0  0  0  0  0  0  0  0  0
    7.2205    2.2434    0.0000 O   0  0  0  0  0  0  0  0  0  0  0  0
    4.6568    2.6641    0.0000 C   0  0  0  0  0  0  0  0  0  0  0  0
    3.2534    2.1343    0.0000 C   0  0  0  0  0  0  0  0  0  0  0  0
    3.0105    0.6541    0.0000 C   0  0  0  0  0  0  0  0  0  0  0  0
    1.8501    1.6046    0.0000 C   0  0  0  0  0  0  0  0  0  0  0  0
    1.6072    0.1244    0.0000 C   0  0  0  0  0  0  0  0  0  0  0  0
    0.4467    1.0748    0.0000 C   0  0  0  0  0  0  0  0  0  0  0  0
   -0.9566    0.5450    0.0000 C   0  0  0  0  0  0  0  0  0  0  0  0
   -2.1170    1.4955    0.0000 C   0  0  0  0  0  0  0  0  0  0  0  0
   -1.1995   -0.9352    0.0000 C   0  0  0  0  0  0  0  0  0  0  0  0
   -2.4529   -0.1112    0.0000 C   0  0  0  0  0  0  0  0  0  0  0  0
  2  1  1  6
  2  3  1  0
  3  4  1  0
  4  5  1  0
  5  6  2  0
  5  7  1  0
  2  8  1  0
  8  9  1  6
  9 10  1  0
 11 10  1  6
 11 12  1  0
 12 13  1  1
 13 14  1  1
 13 15  1  0
 16 15  1  1
 16 17  1  0
 17 18  1  0
 18 19  2  0
 18 20  1  0
 20 21  1  0
 21 22  1  0
 22 23  1  6
 22 24  1  0
 24 25  1  6
 25 26  1  0
 26 27  1  1
 26 28  1  0
 28 29  1  6
 28  8  1  0
 28 11  1  0
 24 12  1  0
 22 16  1  0
M  END
>  <MS_ID>  (2076) 
MS2152

>  <SMILES>  (2076) 
C[C@H](CCC(=O)O)[C@H]1CC[C@H]2[C@@H]3[C@H](O)C[C@@H]4CC(=O)CC[C@]4(C)[C@H]3C[C@H](C)[C@]12C

>  <Structure_dimension>  (2076) 
2D

$$$$
MS2153
     RDKit          2D

 33 36  0  0  0  0  0  0  0  0999 V2000
   -3.0656   -3.9102    0.0000 C   0  0  0  0  0  0  0  0  0  0  0  0
   -2.2660   -2.6411    0.0000 C   0  0  0  0  0  0  0  0  0  0  0  0
   -2.9654   -1.3141    0.0000 C   0  0  0  0  0  0  0  0  0  0  0  0
   -4.4642   -1.2562    0.0000 C   0  0  0  0  0  0  0  0  0  0  0  0
   -5.1636    0.0708    0.0000 C   0  0  0  0  0  0  0  0  0  0  0  0
   -4.3640    1.3399    0.0000 O   0  0  0  0  0  0  0  0  0  0  0  0
   -6.6625    0.1286    0.0000 N   0  0  0  0  0  0  0  0  0  0  0  0
   -7.3618    1.4556    0.0000 C   0  0  0  0  0  0  0  0  0  0  0  0
   -8.8607    1.5135    0.0000 C   0  0  0  0  0  0  0  0  0  0  0  0
   -9.5600    2.8405    0.0000 C   0  0  0  0  0  0  0  0  0  0  0  0
  -11.0589    2.8983    0.0000 N   0  0  0  0  0  0  0  0  0  0  0  0
   -0.7671   -2.6989    0.0000 C   0  0  0  0  0  0  0  0  0  0  0  0
    0.0671   -3.9456    0.0000 C   0  0  0  0  0  0  0  0  0  0  0  0
    1.5105   -3.5374    0.0000 C   0  0  0  0  0  0  0  0  0  0  0  0
    1.5683   -2.0385    0.0000 C   0  0  0  0  0  0  0  0  0  0  0  0
    2.7209   -1.0786    0.0000 C   0  0  0  0  0  0  0  0  0  0  0  0
    4.1286   -1.5968    0.0000 C   0  0  0  0  0  0  0  0  0  0  0  0
    4.3836   -3.0749    0.0000 O   0  0  0  0  0  0  0  0  0  0  0  0
    5.2812   -0.6368    0.0000 C   0  0  0  0  0  0  0  0  0  0  0  0
    6.6888   -1.1550    0.0000 O   0  0  0  0  0  0  0  0  0  0  0  0
    5.0261    0.8413    0.0000 C   0  0  0  0  0  0  0  0  0  0  0  0
    6.1787    1.8013    0.0000 C   0  0  0  0  0  0  0  0  0  0  0  0
    5.9237    3.2795    0.0000 C   0  0  0  0  0  0  0  0  0  0  0  0
    7.0763    4.2394    0.0000 O   0  0  0  0  0  0  0  0  0  0  0  0
    4.5160    3.7977    0.0000 C   0  0  0  0  0  0  0  0  0  0  0  0
    3.3634    2.8377    0.0000 C   0  0  0  0  0  0  0  0  0  0  0  0
    3.6185    1.3595    0.0000 C   0  0  0  0  0  0  0  0  0  0  0  0
    2.2108    1.8777    0.0000 C   0  0  0  0  0  0  0  0  0  0  0  0
    2.4659    0.3996    0.0000 C   0  0  0  0  0  0  0  0  0  0  0  0
    1.0582    0.9178    0.0000 C   0  0  0  0  0  0  0  0  0  0  0  0
   -0.0944   -0.0422    0.0000 C   0  0  0  0  0  0  0  0  0  0  0  0
    0.1607   -1.5203    0.0000 C   0  0  0  0  0  0  0  0  0  0  0  0
   -1.2934   -1.1521    0.0000 C   0  0  0  0  0  0  0  0  0  0  0  0
  2  1  1  6
  2  3  1  0
  3  4  1  0
  4  5  1  0
  5  6  2  0
  5  7  1  0
  7  8  1  0
  8  9  1  0
  9 10  1  0
 10 11  1  0
  2 12  1  0
 12 13  1  6
 13 14  1  0
 15 14  1  6
 15 16  1  0
 16 17  1  1
 17 18  1  1
 17 19  1  0
 19 20  1  1
 19 21  1  0
 21 22  1  1
 22 23  1  0
 23 24  1  1
 23 25  1  0
 25 26  1  0
 26 27  1  0
 27 28  1  6
 27 29  1  0
 29 30  1  6
 30 31  1  0
 31 32  1  0
 32 33  1  6
 32 12  1  0
 32 15  1  0
 29 16  1  0
 27 21  1  0
M  END
>  <MS_ID>  (2077) 
MS2153

>  <SMILES>  (2077) 
C[C@H](CCC(=O)NCCCN)[C@H]1CC[C@H]2[C@@H]3[C@H](O)[C@H](O)[C@@H]4C[C@H](O)CC[C@]4(C)[C@H]3CC[C@]12C

>  <Structure_dimension>  (2077) 
2D

$$$$
MS2154
     RDKit          2D

 30 33  0  0  0  0  0  0  0  0999 V2000
   -5.1126   -2.2702    0.0000 C   0  0  0  0  0  0  0  0  0  0  0  0
   -4.0463   -1.2153    0.0000 C   0  0  0  0  0  0  0  0  0  0  0  0
   -4.4268    0.2357    0.0000 C   0  0  0  0  0  0  0  0  0  0  0  0
   -5.8736    0.6316    0.0000 C   0  0  0  0  0  0  0  0  0  0  0  0
   -6.2540    2.0826    0.0000 C   0  0  0  0  0  0  0  0  0  0  0  0
   -5.1877    3.1376    0.0000 O   0  0  0  0  0  0  0  0  0  0  0  0
   -7.7008    2.4786    0.0000 O   0  0  0  0  0  0  0  0  0  0  0  0
   -2.5995   -1.6113    0.0000 C   0  0  0  0  0  0  0  0  0  0  0  0
   -2.0695   -3.0145    0.0000 C   0  0  0  0  0  0  0  0  0  0  0  0
   -0.5711   -2.9440    0.0000 C   0  0  0  0  0  0  0  0  0  0  0  0
   -0.1751   -1.4972    0.0000 C   0  0  0  0  0  0  0  0  0  0  0  0
    1.1650   -0.8234    0.0000 C   0  0  0  0  0  0  0  0  0  0  0  0
    2.4186   -1.6471    0.0000 C   0  0  0  0  0  0  0  0  0  0  0  0
    2.3321   -3.1446    0.0000 C   0  0  0  0  0  0  0  0  0  0  0  0
    3.5857   -3.9682    0.0000 C   0  0  0  0  0  0  0  0  0  0  0  0
    3.4992   -5.4657    0.0000 O   0  0  0  0  0  0  0  0  0  0  0  0
    3.7587   -0.9732    0.0000 C   0  0  0  0  0  0  0  0  0  0  0  0
    3.8453    0.5243    0.0000 C   0  0  0  0  0  0  0  0  0  0  0  0
    5.1854    1.1981    0.0000 C   0  0  0  0  0  0  0  0  0  0  0  0
    5.2719    2.6956    0.0000 C   0  0  0  0  0  0  0  0  0  0  0  0
    6.6121    3.3694    0.0000 O   0  0  0  0  0  0  0  0  0  0  0  0
    4.0183    3.5193    0.0000 C   0  0  0  0  0  0  0  0  0  0  0  0
    2.6782    2.8454    0.0000 C   0  0  0  0  0  0  0  0  0  0  0  0
    2.5917    1.3479    0.0000 C   0  0  0  0  0  0  0  0  0  0  0  0
    1.3380    2.1716    0.0000 C   0  0  0  0  0  0  0  0  0  0  0  0
    1.2515    0.6741    0.0000 C   0  0  0  0  0  0  0  0  0  0  0  0
   -0.0021    1.4978    0.0000 C   0  0  0  0  0  0  0  0  0  0  0  0
   -1.3422    0.8240    0.0000 C   0  0  0  0  0  0  0  0  0  0  0  0
   -1.4288   -0.6735    0.0000 C   0  0  0  0  0  0  0  0  0  0  0  0
   -2.7616    0.0146    0.0000 C   0  0  0  0  0  0  0  0  0  0  0  0
  2  1  1  6
  2  3  1  0
  3  4  1  0
  4  5  1  0
  5  6  2  0
  5  7  1  0
  2  8  1  0
  8  9  1  6
  9 10  1  0
 11 10  1  6
 11 12  1  0
 12 13  1  1
 13 14  1  6
 14 15  2  0
 15 16  1  0
 13 17  1  0
 18 17  1  1
 18 19  1  0
 19 20  1  0
 20 21  1  1
 20 22  1  0
 22 23  1  0
 23 24  1  0
 24 25  1  6
 24 26  1  0
 26 27  1  6
 27 28  1  0
 28 29  1  0
 29 30  1  6
 29  8  1  0
 29 11  1  0
 26 12  1  0
 24 18  1  0
M  END
>  <MS_ID>  (2078) 
MS2154

>  <SMILES>  (2078) 
C[C@H](CCC(=O)O)[C@H]1CC[C@H]2[C@@H]3[C@@H](/C=C/O)C[C@@H]4C[C@H](O)CC[C@]4(C)[C@H]3CC[C@]12C

>  <Structure_dimension>  (2078) 
2D

$$$$
MS2155
     RDKit          2D

 31 34  0  0  0  0  0  0  0  0999 V2000
   -2.3650   -3.9658    0.0000 C   0  0  0  0  0  0  0  0  0  0  0  0
   -1.5870   -2.6833    0.0000 C   0  0  0  0  0  0  0  0  0  0  0  0
   -2.3087   -1.3683    0.0000 C   0  0  0  0  0  0  0  0  0  0  0  0
   -3.8083   -1.3358    0.0000 C   0  0  0  0  0  0  0  0  0  0  0  0
   -4.5300   -0.0208    0.0000 C   0  0  0  0  0  0  0  0  0  0  0  0
   -3.7520    1.2616    0.0000 O   0  0  0  0  0  0  0  0  0  0  0  0
   -6.0296    0.0117    0.0000 O   0  0  0  0  0  0  0  0  0  0  0  0
   -6.7513    1.3267    0.0000 C   0  0  0  0  0  0  0  0  0  0  0  0
   -8.2509    1.3592    0.0000 C   0  0  0  0  0  0  0  0  0  0  0  0
   -8.9726    2.6742    0.0000 C   0  0  0  0  0  0  0  0  0  0  0  0
  -10.4722    2.7067    0.0000 O   0  0  0  0  0  0  0  0  0  0  0  0
   -0.0874   -2.7159    0.0000 C   0  0  0  0  0  0  0  0  0  0  0  0
    0.7678   -3.9482    0.0000 C   0  0  0  0  0  0  0  0  0  0  0  0
    2.2041   -3.5157    0.0000 C   0  0  0  0  0  0  0  0  0  0  0  0
    2.2366   -2.0161    0.0000 C   0  0  0  0  0  0  0  0  0  0  0  0
    3.3728   -1.0368    0.0000 C   0  0  0  0  0  0  0  0  0  0  0  0
    4.7890   -1.5311    0.0000 C   0  0  0  0  0  0  0  0  0  0  0  0
    5.9252   -0.5518    0.0000 C   0  0  0  0  0  0  0  0  0  0  0  0
    5.6453    0.9218    0.0000 C   0  0  0  0  0  0  0  0  0  0  0  0
    6.7815    1.9011    0.0000 C   0  0  0  0  0  0  0  0  0  0  0  0
    6.5015    3.3747    0.0000 C   0  0  0  0  0  0  0  0  0  0  0  0
    5.0853    3.8691    0.0000 C   0  0  0  0  0  0  0  0  0  0  0  0
    3.9491    2.8898    0.0000 C   0  0  0  0  0  0  0  0  0  0  0  0
    4.2291    1.4162    0.0000 C   0  0  0  0  0  0  0  0  0  0  0  0
    2.8129    1.9105    0.0000 C   0  0  0  0  0  0  0  0  0  0  0  0
    3.0928    0.4369    0.0000 C   0  0  0  0  0  0  0  0  0  0  0  0
    1.6766    0.9312    0.0000 C   0  0  0  0  0  0  0  0  0  0  0  0
    0.5404   -0.0481    0.0000 C   0  0  0  0  0  0  0  0  0  0  0  0
   -0.8758    0.4463    0.0000 O   0  0  0  0  0  0  0  0  0  0  0  0
    0.8204   -1.5217    0.0000 C   0  0  0  0  0  0  0  0  0  0  0  0
   -0.6397   -1.1781    0.0000 C   0  0  0  0  0  0  0  0  0  0  0  0
  2  1  1  6
  2  3  1  0
  3  4  1  0
  4  5  1  0
  5  6  2  0
  5  7  1  0
  7  8  1  0
  8  9  1  0
  9 10  1  0
 10 11  1  0
  2 12  1  0
 12 13  1  6
 13 14  1  0
 15 14  1  6
 15 16  1  0
 16 17  1  1
 17 18  1  0
 19 18  1  1
 19 20  1  0
 20 21  1  0
 21 22  1  0
 22 23  1  0
 23 24  1  0
 24 25  1  6
 24 26  1  0
 26 27  1  6
 27 28  1  0
 28 29  1  6
 28 30  1  0
 30 31  1  6
 30 12  1  0
 30 15  1  0
 26 16  1  0
 24 19  1  0
M  END
>  <MS_ID>  (2079) 
MS2155

>  <SMILES>  (2079) 
C[C@H](CCC(=O)OCCCO)[C@H]1CC[C@H]2[C@@H]3CC[C@@H]4CCCC[C@]4(C)[C@H]3C[C@@H](O)[C@]12C

>  <Structure_dimension>  (2079) 
2D

$$$$
MS2156
     RDKit          2D

 33 36  0  0  0  0  0  0  0  0999 V2000
   -3.3148   -4.2011    0.0000 C   0  0  0  0  0  0  0  0  0  0  0  0
   -2.4999   -2.9418    0.0000 C   0  0  0  0  0  0  0  0  0  0  0  0
   -3.1831   -1.6064    0.0000 C   0  0  0  0  0  0  0  0  0  0  0  0
   -4.6812   -1.5304    0.0000 C   0  0  0  0  0  0  0  0  0  0  0  0
   -5.3644   -0.1950    0.0000 C   0  0  0  0  0  0  0  0  0  0  0  0
   -6.8624   -0.1190    0.0000 O   0  0  0  0  0  0  0  0  0  0  0  0
   -4.5495    1.0644    0.0000 O   0  0  0  0  0  0  0  0  0  0  0  0
   -5.2327    2.3997    0.0000 C   0  0  0  0  0  0  0  0  0  0  0  0
   -6.7308    2.4758    0.0000 O   0  0  0  0  0  0  0  0  0  0  0  0
   -4.4178    3.6591    0.0000 C   0  0  0  0  0  0  0  0  0  0  0  0
   -2.9198    3.5831    0.0000 O   0  0  0  0  0  0  0  0  0  0  0  0
   -5.1010    4.9945    0.0000 O   0  0  0  0  0  0  0  0  0  0  0  0
   -1.0018   -3.0178    0.0000 C   0  0  0  0  0  0  0  0  0  0  0  0
   -0.1828   -4.2745    0.0000 C   0  0  0  0  0  0  0  0  0  0  0  0
    1.2655   -3.8838    0.0000 C   0  0  0  0  0  0  0  0  0  0  0  0
    1.3415   -2.3858    0.0000 C   0  0  0  0  0  0  0  0  0  0  0  0
    2.5056   -1.4398    0.0000 C   0  0  0  0  0  0  0  0  0  0  0  0
    3.9069   -1.9751    0.0000 C   0  0  0  0  0  0  0  0  0  0  0  0
    4.1440   -3.4562    0.0000 O   0  0  0  0  0  0  0  0  0  0  0  0
    5.0710   -1.0292    0.0000 C   0  0  0  0  0  0  0  0  0  0  0  0
    4.8339    0.4520    0.0000 C   0  0  0  0  0  0  0  0  0  0  0  0
    5.9981    1.3979    0.0000 C   0  0  0  0  0  0  0  0  0  0  0  0
    5.7610    2.8790    0.0000 C   0  0  0  0  0  0  0  0  0  0  0  0
    6.9251    3.8249    0.0000 O   0  0  0  0  0  0  0  0  0  0  0  0
    4.3597    3.4143    0.0000 C   0  0  0  0  0  0  0  0  0  0  0  0
    3.1956    2.4684    0.0000 C   0  0  0  0  0  0  0  0  0  0  0  0
    3.4327    0.9872    0.0000 C   0  0  0  0  0  0  0  0  0  0  0  0
    2.0314    1.5224    0.0000 C   0  0  0  0  0  0  0  0  0  0  0  0
    2.2685    0.0413    0.0000 C   0  0  0  0  0  0  0  0  0  0  0  0
    0.8673    0.5765    0.0000 C   0  0  0  0  0  0  0  0  0  0  0  0
   -0.2969   -0.3694    0.0000 C   0  0  0  0  0  0  0  0  0  0  0  0
   -0.0598   -1.8505    0.0000 C   0  0  0  0  0  0  0  0  0  0  0  0
   -1.5093   -1.4647    0.0000 C   0  0  0  0  0  0  0  0  0  0  0  0
  2  1  1  6
  2  3  1  0
  3  4  1  0
  4  5  1  0
  5  6  2  0
  5  7  1  0
  7  8  1  0
  8  9  2  0
  8 10  1  0
 10 11  2  0
 10 12  1  0
  2 13  1  0
 13 14  1  6
 14 15  1  0
 16 15  1  6
 16 17  1  0
 17 18  1  1
 18 19  1  1
 18 20  1  0
 21 20  1  1
 21 22  1  0
 22 23  1  0
 23 24  1  1
 23 25  1  0
 25 26  1  0
 26 27  1  0
 27 28  1  6
 27 29  1  0
 29 30  1  6
 30 31  1  0
 31 32  1  0
 32 33  1  6
 32 13  1  0
 32 16  1  0
 29 17  1  0
 27 21  1  0
M  END
>  <MS_ID>  (2080) 
MS2156

>  <SMILES>  (2080) 
C[C@H](CCC(=O)OC(=O)C(=O)O)[C@H]1CC[C@H]2[C@@H]3[C@H](O)C[C@@H]4C[C@H](O)CC[C@]4(C)[C@H]3CC[C@]12C

>  <Structure_dimension>  (2080) 
2D

$$$$
MS2157
     RDKit          2D

 34 37  0  0  0  0  0  0  0  0999 V2000
   -4.1628   -3.3031    0.0000 C   0  0  0  0  0  0  0  0  0  0  0  0
   -3.1416   -2.2044    0.0000 C   0  0  0  0  0  0  0  0  0  0  0  0
   -3.5825   -0.7706    0.0000 C   0  0  0  0  0  0  0  0  0  0  0  0
   -5.0447   -0.4356    0.0000 C   0  0  0  0  0  0  0  0  0  0  0  0
   -5.4856    0.9981    0.0000 C   0  0  0  0  0  0  0  0  0  0  0  0
   -4.4644    2.0968    0.0000 O   0  0  0  0  0  0  0  0  0  0  0  0
   -6.9477    1.3331    0.0000 C   0  0  0  0  0  0  0  0  0  0  0  0
   -7.3886    2.7669    0.0000 S   0  0  0  0  0  0  0  0  0  0  0  0
   -1.6795   -2.5394    0.0000 C   0  0  0  0  0  0  0  0  0  0  0  0
   -1.0912   -3.9192    0.0000 C   0  0  0  0  0  0  0  0  0  0  0  0
    0.4029   -3.7860    0.0000 C   0  0  0  0  0  0  0  0  0  0  0  0
    0.7379   -2.3239    0.0000 C   0  0  0  0  0  0  0  0  0  0  0  0
    2.0487   -1.5945    0.0000 C   0  0  0  0  0  0  0  0  0  0  0  0
    3.3357   -2.3650    0.0000 C   0  0  0  0  0  0  0  0  0  0  0  0
    3.3120   -3.8648    0.0000 O   0  0  0  0  0  0  0  0  0  0  0  0
    4.6464   -1.6356    0.0000 C   0  0  0  0  0  0  0  0  0  0  0  0
    4.6701   -0.1358    0.0000 C   0  0  0  0  0  0  0  0  0  0  0  0
    5.9809    0.5936    0.0000 C   0  0  0  0  0  0  0  0  0  0  0  0
    6.0046    2.0934    0.0000 C   0  0  0  0  0  0  0  0  0  0  0  0
    7.3153    2.8228    0.0000 O   0  0  0  0  0  0  0  0  0  0  0  0
    4.7176    2.8638    0.0000 C   0  0  0  0  0  0  0  0  0  0  0  0
    3.4068    2.1345    0.0000 C   0  0  0  0  0  0  0  0  0  0  0  0
    3.3831    0.6347    0.0000 C   0  0  0  0  0  0  0  0  0  0  0  0
    2.0961    1.4051    0.0000 C   0  0  0  0  0  0  0  0  0  0  0  0
    2.0724   -0.0947    0.0000 C   0  0  0  0  0  0  0  0  0  0  0  0
    0.7854    0.6757    0.0000 C   0  0  0  0  0  0  0  0  0  0  0  0
   -0.5254   -0.0536    0.0000 C   0  0  0  0  0  0  0  0  0  0  0  0
   -1.8124    0.7168    0.0000 O   0  0  0  0  0  0  0  0  0  0  0  0
   -1.7887    2.2166    0.0000 S   0  0  0  0  0  0  0  0  0  0  0  0
   -0.2889    2.1929    0.0000 O   0  0  0  0  0  0  0  0  0  0  0  0
   -3.2885    2.2403    0.0000 O   0  0  0  0  0  0  0  0  0  0  0  0
   -1.7650    3.7164    0.0000 O   0  0  0  0  0  0  0  0  0  0  0  0
   -0.5491   -1.5535    0.0000 C   0  0  0  0  0  0  0  0  0  0  0  0
   -1.9096   -0.9218    0.0000 C   0  0  0  0  0  0  0  0  0  0  0  0
  2  1  1  6
  2  3  1  0
  3  4  1  0
  4  5  1  0
  5  6  2  0
  5  7  1  0
  7  8  1  0
  2  9  1  0
  9 10  1  6
 10 11  1  0
 12 11  1  6
 12 13  1  0
 13 14  1  1
 14 15  1  1
 14 16  1  0
 17 16  1  1
 17 18  1  0
 18 19  1  0
 19 20  1  1
 19 21  1  0
 21 22  1  0
 22 23  1  0
 23 24  1  6
 23 25  1  0
 25 26  1  6
 26 27  1  0
 27 28  1  1
 28 29  1  0
 29 30  2  0
 29 31  2  0
 29 32  1  0
 27 33  1  0
 33 34  1  6
 33  9  1  0
 33 12  1  0
 25 13  1  0
 23 17  1  0
M  END
>  <MS_ID>  (2081) 
MS2157

>  <SMILES>  (2081) 
C[C@H](CCC(=O)CS)[C@H]1CC[C@H]2[C@@H]3[C@H](O)C[C@@H]4C[C@H](O)CC[C@]4(C)[C@H]3C[C@H](OS(=O)(=O)O)[C@]12C

>  <Structure_dimension>  (2081) 
2D

$$$$
MS2158
     RDKit          2D

 35 38  0  0  0  0  0  0  0  0999 V2000
   -2.1397   -4.2885    0.0000 C   0  0  0  0  0  0  0  0  0  0  0  0
   -1.4179   -2.9736    0.0000 C   0  0  0  0  0  0  0  0  0  0  0  0
   -2.1958   -1.6911    0.0000 C   0  0  0  0  0  0  0  0  0  0  0  0
   -3.6955   -1.7235    0.0000 C   0  0  0  0  0  0  0  0  0  0  0  0
   -4.4733   -0.4409    0.0000 C   0  0  0  0  0  0  0  0  0  0  0  0
   -3.7516    0.8740    0.0000 O   0  0  0  0  0  0  0  0  0  0  0  0
   -5.9730   -0.4733    0.0000 C   0  0  0  0  0  0  0  0  0  0  0  0
   -6.7509    0.8092    0.0000 C   0  0  0  0  0  0  0  0  0  0  0  0
   -6.0291    2.1241    0.0000 O   0  0  0  0  0  0  0  0  0  0  0  0
   -8.2505    0.7768    0.0000 C   0  0  0  0  0  0  0  0  0  0  0  0
   -9.0284    2.0594    0.0000 C   0  0  0  0  0  0  0  0  0  0  0  0
   -8.3066    3.3743    0.0000 O   0  0  0  0  0  0  0  0  0  0  0  0
  -10.5281    2.0270    0.0000 O   0  0  0  0  0  0  0  0  0  0  0  0
    0.0817   -2.9412    0.0000 C   0  0  0  0  0  0  0  0  0  0  0  0
    0.9894   -4.1354    0.0000 C   0  0  0  0  0  0  0  0  0  0  0  0
    2.4056   -3.6412    0.0000 C   0  0  0  0  0  0  0  0  0  0  0  0
    2.3732   -2.1415    0.0000 C   0  0  0  0  0  0  0  0  0  0  0  0
    3.4660   -1.1140    0.0000 C   0  0  0  0  0  0  0  0  0  0  0  0
    4.9023   -1.5466    0.0000 C   0  0  0  0  0  0  0  0  0  0  0  0
    5.2458   -3.0068    0.0000 O   0  0  0  0  0  0  0  0  0  0  0  0
    5.9951   -0.5191    0.0000 C   0  0  0  0  0  0  0  0  0  0  0  0
    5.6516    0.9411    0.0000 C   0  0  0  0  0  0  0  0  0  0  0  0
    6.7444    1.9686    0.0000 C   0  0  0  0  0  0  0  0  0  0  0  0
    6.4009    3.4287    0.0000 C   0  0  0  0  0  0  0  0  0  0  0  0
    7.4937    4.4563    0.0000 O   0  0  0  0  0  0  0  0  0  0  0  0
    4.9646    3.8614    0.0000 C   0  0  0  0  0  0  0  0  0  0  0  0
    3.8718    2.8338    0.0000 C   0  0  0  0  0  0  0  0  0  0  0  0
    4.2153    1.3737    0.0000 C   0  0  0  0  0  0  0  0  0  0  0  0
    2.7791    1.8063    0.0000 C   0  0  0  0  0  0  0  0  0  0  0  0
    3.1225    0.3461    0.0000 C   0  0  0  0  0  0  0  0  0  0  0  0
    1.6863    0.7787    0.0000 C   0  0  0  0  0  0  0  0  0  0  0  0
    0.5935   -0.2488    0.0000 C   0  0  0  0  0  0  0  0  0  0  0  0
   -0.8428    0.1838    0.0000 O   0  0  0  0  0  0  0  0  0  0  0  0
    0.9370   -1.7089    0.0000 C   0  0  0  0  0  0  0  0  0  0  0  0
   -0.5366   -1.4288    0.0000 C   0  0  0  0  0  0  0  0  0  0  0  0
  2  1  1  6
  2  3  1  0
  3  4  1  0
  4  5  1  0
  5  6  2  0
  5  7  1  0
  7  8  1  0
  8  9  1  6
  8 10  1  0
 10 11  1  0
 11 12  2  0
 11 13  1  0
  2 14  1  0
 14 15  1  6
 15 16  1  0
 17 16  1  6
 17 18  1  0
 18 19  1  1
 19 20  1  1
 19 21  1  0
 22 21  1  1
 22 23  1  0
 23 24  1  0
 24 25  1  1
 24 26  1  0
 26 27  1  0
 27 28  1  0
 28 29  1  6
 28 30  1  0
 30 31  1  6
 31 32  1  0
 32 33  1  1
 32 34  1  0
 34 35  1  6
 34 14  1  0
 34 17  1  0
 30 18  1  0
 28 22  1  0
M  END
>  <MS_ID>  (2082) 
MS2158

>  <SMILES>  (2082) 
C[C@H](CCC(=O)C[C@@H](O)CC(=O)O)[C@H]1CC[C@H]2[C@@H]3[C@H](O)C[C@@H]4C[C@H](O)CC[C@]4(C)[C@H]3C[C@H](O)[C@]12C

>  <Structure_dimension>  (2082) 
2D

$$$$
MS2159
     RDKit          2D

 32 35  0  0  0  0  0  0  0  0999 V2000
   -2.6627   -3.7242    0.0000 C   0  0  0  0  0  0  0  0  0  0  0  0
   -1.8528   -2.4616    0.0000 C   0  0  0  0  0  0  0  0  0  0  0  0
   -2.5413   -1.1289    0.0000 C   0  0  0  0  0  0  0  0  0  0  0  0
   -4.0396   -1.0588    0.0000 C   0  0  0  0  0  0  0  0  0  0  0  0
   -4.7281    0.2738    0.0000 C   0  0  0  0  0  0  0  0  0  0  0  0
   -3.9182    1.5364    0.0000 O   0  0  0  0  0  0  0  0  0  0  0  0
   -6.2265    0.3439    0.0000 C   0  0  0  0  0  0  0  0  0  0  0  0
   -6.9150    1.6766    0.0000 C   0  0  0  0  0  0  0  0  0  0  0  0
   -8.4133    1.7467    0.0000 C   0  0  0  0  0  0  0  0  0  0  0  0
   -9.2232    0.4841    0.0000 O   0  0  0  0  0  0  0  0  0  0  0  0
   -9.1018    3.0794    0.0000 O   0  0  0  0  0  0  0  0  0  0  0  0
   -0.3544   -2.5317    0.0000 C   0  0  0  0  0  0  0  0  0  0  0  0
    0.4696   -3.7851    0.0000 C   0  0  0  0  0  0  0  0  0  0  0  0
    1.9163   -3.3887    0.0000 C   0  0  0  0  0  0  0  0  0  0  0  0
    1.9864   -1.8904    0.0000 C   0  0  0  0  0  0  0  0  0  0  0  0
    3.1468   -0.9399    0.0000 C   0  0  0  0  0  0  0  0  0  0  0  0
    4.5501   -1.4695    0.0000 C   0  0  0  0  0  0  0  0  0  0  0  0
    4.7931   -2.9497    0.0000 O   0  0  0  0  0  0  0  0  0  0  0  0
    5.7105   -0.5190    0.0000 C   0  0  0  0  0  0  0  0  0  0  0  0
    5.4676    0.9612    0.0000 C   0  0  0  0  0  0  0  0  0  0  0  0
    6.6280    1.9117    0.0000 C   0  0  0  0  0  0  0  0  0  0  0  0
    6.3850    3.3919    0.0000 C   0  0  0  0  0  0  0  0  0  0  0  0
    4.9816    3.9216    0.0000 C   0  0  0  0  0  0  0  0  0  0  0  0
    3.8212    2.9710    0.0000 C   0  0  0  0  0  0  0  0  0  0  0  0
    4.0642    1.4909    0.0000 C   0  0  0  0  0  0  0  0  0  0  0  0
    2.6608    2.0205    0.0000 C   0  0  0  0  0  0  0  0  0  0  0  0
    2.9038    0.5403    0.0000 C   0  0  0  0  0  0  0  0  0  0  0  0
    1.5004    1.0700    0.0000 C   0  0  0  0  0  0  0  0  0  0  0  0
    0.3400    0.1195    0.0000 C   0  0  0  0  0  0  0  0  0  0  0  0
   -1.0633    0.6492    0.0000 O   0  0  0  0  0  0  0  0  0  0  0  0
    0.5830   -1.3607    0.0000 C   0  0  0  0  0  0  0  0  0  0  0  0
   -0.8681   -0.9806    0.0000 C   0  0  0  0  0  0  0  0  0  0  0  0
  2  1  1  6
  2  3  1  0
  3  4  1  0
  4  5  1  0
  5  6  2  0
  5  7  1  0
  7  8  1  0
  8  9  1  0
  9 10  2  0
  9 11  1  0
  2 12  1  0
 12 13  1  6
 13 14  1  0
 15 14  1  6
 15 16  1  0
 16 17  1  1
 17 18  1  1
 17 19  1  0
 20 19  1  1
 20 21  1  0
 21 22  1  0
 22 23  1  0
 23 24  1  0
 24 25  1  0
 25 26  1  6
 25 27  1  0
 27 28  1  6
 28 29  1  0
 29 30  2  0
 29 31  1  0
 31 32  1  6
 31 12  1  0
 31 15  1  0
 27 16  1  0
 25 20  1  0
M  END
>  <MS_ID>  (2083) 
MS2159

>  <SMILES>  (2083) 
C[C@H](CCC(=O)CCC(=O)O)[C@H]1CC[C@H]2[C@@H]3[C@H](O)C[C@@H]4CCCC[C@]4(C)[C@H]3CC(=O)[C@]12C

>  <Structure_dimension>  (2083) 
2D

$$$$
MS2160
     RDKit          2D

 35 39  0  0  0  0  0  0  0  0999 V2000
   -2.5267   -3.4532    0.0000 C   0  0  0  0  0  0  0  0  0  0  0  0
   -1.5634   -2.3034    0.0000 C   0  0  0  0  0  0  0  0  0  0  0  0
   -2.0774   -0.8943    0.0000 C   0  0  0  0  0  0  0  0  0  0  0  0
   -3.5548   -0.6349    0.0000 C   0  0  0  0  0  0  0  0  0  0  0  0
   -4.0689    0.7743    0.0000 C   0  0  0  0  0  0  0  0  0  0  0  0
   -3.1056    1.9240    0.0000 O   0  0  0  0  0  0  0  0  0  0  0  0
   -5.5463    1.0336    0.0000 C   0  0  0  0  0  0  0  0  0  0  0  0
   -6.0604    2.4428    0.0000 C   0  0  0  0  0  0  0  0  0  0  0  0
   -7.5378    2.7022    0.0000 C   0  0  0  0  0  0  0  0  0  0  0  0
   -8.5011    1.5524    0.0000 C   0  0  0  0  0  0  0  0  0  0  0  0
   -9.9785    1.8118    0.0000 O   0  0  0  0  0  0  0  0  0  0  0  0
   -7.9870    0.1432    0.0000 C   0  0  0  0  0  0  0  0  0  0  0  0
   -6.5096   -0.1161    0.0000 C   0  0  0  0  0  0  0  0  0  0  0  0
   -5.9956   -1.5253    0.0000 O   0  0  0  0  0  0  0  0  0  0  0  0
   -0.0860   -2.5628    0.0000 C   0  0  0  0  0  0  0  0  0  0  0  0
    0.5726   -3.9105    0.0000 C   0  0  0  0  0  0  0  0  0  0  0  0
    2.0578   -3.7007    0.0000 C   0  0  0  0  0  0  0  0  0  0  0  0
    2.3172   -2.2233    0.0000 C   0  0  0  0  0  0  0  0  0  0  0  0
    3.5887   -1.4275    0.0000 C   0  0  0  0  0  0  0  0  0  0  0  0
    4.9137   -2.1307    0.0000 C   0  0  0  0  0  0  0  0  0  0  0  0
    6.1851   -1.3349    0.0000 C   0  0  0  0  0  0  0  0  0  0  0  0
    6.1317    0.1642    0.0000 C   0  0  0  0  0  0  0  0  0  0  0  0
    7.4032    0.9600    0.0000 C   0  0  0  0  0  0  0  0  0  0  0  0
    7.3497    2.4590    0.0000 C   0  0  0  0  0  0  0  0  0  0  0  0
    8.6212    3.2549    0.0000 O   0  0  0  0  0  0  0  0  0  0  0  0
    6.0248    3.1623    0.0000 C   0  0  0  0  0  0  0  0  0  0  0  0
    4.7533    2.3665    0.0000 C   0  0  0  0  0  0  0  0  0  0  0  0
    4.8067    0.8674    0.0000 C   0  0  0  0  0  0  0  0  0  0  0  0
    3.4818    1.5706    0.0000 C   0  0  0  0  0  0  0  0  0  0  0  0
    3.5353    0.0716    0.0000 C   0  0  0  0  0  0  0  0  0  0  0  0
    2.2103    0.7748    0.0000 C   0  0  0  0  0  0  0  0  0  0  0  0
    0.9388   -0.0210    0.0000 C   0  0  0  0  0  0  0  0  0  0  0  0
   -0.3861    0.6822    0.0000 O   0  0  0  0  0  0  0  0  0  0  0  0
    0.9923   -1.5200    0.0000 C   0  0  0  0  0  0  0  0  0  0  0  0
   -0.3989   -0.9592    0.0000 C   0  0  0  0  0  0  0  0  0  0  0  0
  2  1  1  6
  2  3  1  0
  3  4  1  0
  4  5  1  0
  5  6  2  0
  5  7  1  0
  7  8  2  0
  8  9  1  0
  9 10  2  0
 10 11  1  0
 10 12  1  0
 12 13  2  0
 13 14  1  0
  2 15  1  0
 15 16  1  6
 16 17  1  0
 18 17  1  6
 18 19  1  0
 19 20  1  1
 20 21  1  0
 22 21  1  1
 22 23  1  0
 23 24  1  0
 24 25  1  1
 24 26  1  0
 26 27  1  0
 27 28  1  0
 28 29  1  6
 28 30  1  0
 30 31  1  6
 31 32  1  0
 32 33  1  1
 32 34  1  0
 34 35  1  6
 13  7  1  0
 34 15  1  0
 34 18  1  0
 30 19  1  0
 28 22  1  0
M  END
>  <MS_ID>  (2084) 
MS2160

>  <SMILES>  (2084) 
C[C@H](CCC(=O)c1ccc(O)cc1O)[C@H]1CC[C@H]2[C@@H]3CC[C@@H]4C[C@H](O)CC[C@]4(C)[C@H]3C[C@H](O)[C@]12C

>  <Structure_dimension>  (2084) 
2D

$$$$
MS2161
     RDKit          2D

 28 31  0  0  0  0  0  0  0  0999 V2000
   -7.2657    3.7367    0.0000 C   0  0  0  0  0  0  0  0  0  0  0  0
   -6.9639    2.2673    0.0000 C   0  0  0  0  0  0  0  0  0  0  0  0
   -5.5405    1.7940    0.0000 C   0  0  0  0  0  0  0  0  0  0  0  0
   -4.4189    2.7900    0.0000 O   0  0  0  0  0  0  0  0  0  0  0  0
   -5.2387    0.3247    0.0000 C   0  0  0  0  0  0  0  0  0  0  0  0
   -3.8154   -0.1486    0.0000 C   0  0  0  0  0  0  0  0  0  0  0  0
   -3.5136   -1.6180    0.0000 C   0  0  0  0  0  0  0  0  0  0  0  0
   -4.6352   -2.6140    0.0000 C   0  0  0  0  0  0  0  0  0  0  0  0
   -2.0902   -2.0913    0.0000 C   0  0  0  0  0  0  0  0  0  0  0  0
   -1.6365   -3.5210    0.0000 C   0  0  0  0  0  0  0  0  0  0  0  0
   -0.1366   -3.5313    0.0000 C   0  0  0  0  0  0  0  0  0  0  0  0
    0.3368   -2.1080    0.0000 C   0  0  0  0  0  0  0  0  0  0  0  0
    1.7112   -1.5073    0.0000 C   0  0  0  0  0  0  0  0  0  0  0  0
    2.9187   -2.3973    0.0000 C   0  0  0  0  0  0  0  0  0  0  0  0
    4.2932   -1.7966    0.0000 C   0  0  0  0  0  0  0  0  0  0  0  0
    4.4602   -0.3060    0.0000 C   0  0  0  0  0  0  0  0  0  0  0  0
    5.8347    0.2947    0.0000 C   0  0  0  0  0  0  0  0  0  0  0  0
    6.0017    1.7854    0.0000 C   0  0  0  0  0  0  0  0  0  0  0  0
    7.3762    2.3861    0.0000 O   0  0  0  0  0  0  0  0  0  0  0  0
    4.7943    2.6754    0.0000 C   0  0  0  0  0  0  0  0  0  0  0  0
    3.4198    2.0747    0.0000 C   0  0  0  0  0  0  0  0  0  0  0  0
    3.2528    0.5840    0.0000 C   0  0  0  0  0  0  0  0  0  0  0  0
    2.0453    1.4740    0.0000 C   0  0  0  0  0  0  0  0  0  0  0  0
    1.8783   -0.0166    0.0000 C   0  0  0  0  0  0  0  0  0  0  0  0
    0.6708    0.8734    0.0000 C   0  0  0  0  0  0  0  0  0  0  0  0
   -0.7036    0.2727    0.0000 C   0  0  0  0  0  0  0  0  0  0  0  0
   -0.8707   -1.2180    0.0000 C   0  0  0  0  0  0  0  0  0  0  0  0
   -2.1645   -0.4591    0.0000 C   0  0  0  0  0  0  0  0  0  0  0  0
  1  2  1  0
  2  3  1  0
  3  4  2  0
  3  5  1  0
  5  6  1  0
  6  7  1  0
  7  8  1  6
  7  9  1  0
  9 10  1  6
 10 11  1  0
 12 11  1  6
 12 13  1  0
 13 14  1  1
 14 15  1  0
 16 15  1  1
 16 17  1  0
 17 18  1  0
 18 19  1  6
 18 20  1  0
 20 21  1  0
 21 22  1  0
 22 23  1  6
 22 24  1  0
 24 25  1  6
 25 26  1  0
 26 27  1  0
 27 28  1  6
 27  9  1  0
 27 12  1  0
 24 13  1  0
 22 16  1  0
M  END
>  <MS_ID>  (2085) 
MS2161

>  <SMILES>  (2085) 
CCC(=O)CC[C@@H](C)[C@H]1CC[C@H]2[C@@H]3CC[C@@H]4C[C@@H](O)CC[C@]4(C)[C@H]3CC[C@]12C

>  <Structure_dimension>  (2085) 
2D

$$$$
MS2162
     RDKit          2D

 33 36  0  0  0  0  0  0  0  0999 V2000
   -2.9449   -3.6299    0.0000 C   0  0  0  0  0  0  0  0  0  0  0  0
   -2.0571   -2.4209    0.0000 C   0  0  0  0  0  0  0  0  0  0  0  0
   -2.6602   -1.0475    0.0000 C   0  0  0  0  0  0  0  0  0  0  0  0
   -4.1512   -0.8831    0.0000 C   0  0  0  0  0  0  0  0  0  0  0  0
   -4.7543    0.4903    0.0000 C   0  0  0  0  0  0  0  0  0  0  0  0
   -3.8665    1.6993    0.0000 O   0  0  0  0  0  0  0  0  0  0  0  0
   -6.2453    0.6546    0.0000 C   0  0  0  0  0  0  0  0  0  0  0  0
   -7.1331   -0.5544    0.0000 O   0  0  0  0  0  0  0  0  0  0  0  0
   -6.8484    2.0280    0.0000 C   0  0  0  0  0  0  0  0  0  0  0  0
   -8.3394    2.1924    0.0000 C   0  0  0  0  0  0  0  0  0  0  0  0
   -9.2272    0.9834    0.0000 O   0  0  0  0  0  0  0  0  0  0  0  0
   -8.9425    3.5658    0.0000 O   0  0  0  0  0  0  0  0  0  0  0  0
   -0.5661   -2.5852    0.0000 C   0  0  0  0  0  0  0  0  0  0  0  0
    0.1773   -3.8881    0.0000 C   0  0  0  0  0  0  0  0  0  0  0  0
    1.6461   -3.5836    0.0000 C   0  0  0  0  0  0  0  0  0  0  0  0
    1.8105   -2.0927    0.0000 C   0  0  0  0  0  0  0  0  0  0  0  0
    3.0284   -1.2172    0.0000 C   0  0  0  0  0  0  0  0  0  0  0  0
    4.3956   -1.8342    0.0000 C   0  0  0  0  0  0  0  0  0  0  0  0
    4.5449   -3.3268    0.0000 O   0  0  0  0  0  0  0  0  0  0  0  0
    5.6136   -0.9587    0.0000 C   0  0  0  0  0  0  0  0  0  0  0  0
    5.4644    0.5339    0.0000 C   0  0  0  0  0  0  0  0  0  0  0  0
    6.6824    1.4094    0.0000 C   0  0  0  0  0  0  0  0  0  0  0  0
    6.5332    2.9019    0.0000 C   0  0  0  0  0  0  0  0  0  0  0  0
    7.7511    3.7774    0.0000 O   0  0  0  0  0  0  0  0  0  0  0  0
    5.1660    3.5190    0.0000 C   0  0  0  0  0  0  0  0  0  0  0  0
    3.9480    2.6435    0.0000 C   0  0  0  0  0  0  0  0  0  0  0  0
    4.0972    1.1509    0.0000 C   0  0  0  0  0  0  0  0  0  0  0  0
    2.7300    1.7680    0.0000 C   0  0  0  0  0  0  0  0  0  0  0  0
    2.8792    0.2754    0.0000 C   0  0  0  0  0  0  0  0  0  0  0  0
    1.5120    0.8925    0.0000 C   0  0  0  0  0  0  0  0  0  0  0  0
    0.2940    0.0169    0.0000 C   0  0  0  0  0  0  0  0  0  0  0  0
    0.4432   -1.4756    0.0000 C   0  0  0  0  0  0  0  0  0  0  0  0
   -0.9810   -1.0049    0.0000 C   0  0  0  0  0  0  0  0  0  0  0  0
  2  1  1  6
  2  3  1  0
  3  4  1  0
  4  5  1  0
  5  6  2  0
  5  7  1  0
  7  8  2  0
  7  9  1  0
  9 10  1  0
 10 11  2  0
 10 12  1  0
  2 13  1  0
 13 14  1  6
 14 15  1  0
 16 15  1  6
 16 17  1  0
 17 18  1  1
 18 19  1  1
 18 20  1  0
 21 20  1  1
 21 22  1  0
 22 23  1  0
 23 24  1  1
 23 25  1  0
 25 26  1  0
 26 27  1  0
 27 28  1  6
 27 29  1  0
 29 30  1  6
 30 31  1  0
 31 32  1  0
 32 33  1  6
 32 13  1  0
 32 16  1  0
 29 17  1  0
 27 21  1  0
M  END
>  <MS_ID>  (2086) 
MS2162

>  <SMILES>  (2086) 
C[C@H](CCC(=O)C(=O)CC(=O)O)[C@H]1CC[C@H]2[C@@H]3[C@H](O)C[C@@H]4C[C@H](O)CC[C@]4(C)[C@H]3CC[C@]12C

>  <Structure_dimension>  (2086) 
2D

$$$$
MS2163
     RDKit          2D

 33 36  0  0  0  0  0  0  0  0999 V2000
   -8.4671    1.6400    0.0000 C   0  0  0  0  0  0  0  0  0  0  0  0
   -6.9723    1.5149    0.0000 C   0  0  0  0  0  0  0  0  0  0  0  0
   -6.3332    0.1579    0.0000 N   0  0  0  0  0  0  0  0  0  0  0  0
   -4.8384    0.0329    0.0000 C   0  0  0  0  0  0  0  0  0  0  0  0
   -3.9827    1.2649    0.0000 O   0  0  0  0  0  0  0  0  0  0  0  0
   -4.1993   -1.3241    0.0000 C   0  0  0  0  0  0  0  0  0  0  0  0
   -2.7045   -1.4491    0.0000 C   0  0  0  0  0  0  0  0  0  0  0  0
   -2.0654   -2.8062    0.0000 C   0  0  0  0  0  0  0  0  0  0  0  0
   -2.9210   -4.0382    0.0000 C   0  0  0  0  0  0  0  0  0  0  0  0
   -0.5706   -2.9312    0.0000 C   0  0  0  0  0  0  0  0  0  0  0  0
    0.2069   -4.2139    0.0000 C   0  0  0  0  0  0  0  0  0  0  0  0
    1.6671   -3.8709    0.0000 C   0  0  0  0  0  0  0  0  0  0  0  0
    1.7922   -2.3761    0.0000 C   0  0  0  0  0  0  0  0  0  0  0  0
    2.9866   -1.4688    0.0000 C   0  0  0  0  0  0  0  0  0  0  0  0
    4.3696   -2.0497    0.0000 C   0  0  0  0  0  0  0  0  0  0  0  0
    5.5641   -1.1424    0.0000 C   0  0  0  0  0  0  0  0  0  0  0  0
    5.3756    0.3458    0.0000 C   0  0  0  0  0  0  0  0  0  0  0  0
    6.5701    1.2531    0.0000 C   0  0  0  0  0  0  0  0  0  0  0  0
    6.3816    2.7412    0.0000 C   0  0  0  0  0  0  0  0  0  0  0  0
    7.5761    3.6485    0.0000 O   0  0  0  0  0  0  0  0  0  0  0  0
    4.9986    3.3220    0.0000 C   0  0  0  0  0  0  0  0  0  0  0  0
    3.8041    2.4147    0.0000 C   0  0  0  0  0  0  0  0  0  0  0  0
    3.9926    0.9266    0.0000 C   0  0  0  0  0  0  0  0  0  0  0  0
    2.6096    1.5074    0.0000 C   0  0  0  0  0  0  0  0  0  0  0  0
    2.7981    0.0193    0.0000 C   0  0  0  0  0  0  0  0  0  0  0  0
    1.4151    0.6001    0.0000 C   0  0  0  0  0  0  0  0  0  0  0  0
    0.2207   -0.3072    0.0000 C   0  0  0  0  0  0  0  0  0  0  0  0
   -1.1623    0.2736    0.0000 O   0  0  0  0  0  0  0  0  0  0  0  0
    0.4092   -1.7953    0.0000 C   0  0  0  0  0  0  0  0  0  0  0  0
   -1.0270   -1.3623    0.0000 C   0  0  0  0  0  0  0  0  0  0  0  0
   -6.1167    2.7470    0.0000 C   0  0  0  0  0  0  0  0  0  0  0  0
   -4.6219    2.6219    0.0000 O   0  0  0  0  0  0  0  0  0  0  0  0
   -6.7558    4.1040    0.0000 O   0  0  0  0  0  0  0  0  0  0  0  0
  2  1  1  1
  2  3  1  0
  3  4  1  0
  4  5  2  0
  4  6  1  0
  6  7  1  0
  7  8  1  0
  8  9  1  6
  8 10  1  0
 10 11  1  6
 11 12  1  0
 13 12  1  6
 13 14  1  0
 14 15  1  1
 15 16  1  0
 17 16  1  1
 17 18  1  0
 18 19  1  0
 19 20  1  1
 19 21  1  0
 21 22  1  0
 22 23  1  0
 23 24  1  6
 23 25  1  0
 25 26  1  6
 26 27  1  0
 27 28  1  1
 27 29  1  0
 29 30  1  6
  2 31  1  0
 31 32  2  0
 31 33  1  0
 29 10  1  0
 29 13  1  0
 25 14  1  0
 23 17  1  0
M  END
>  <MS_ID>  (2087) 
MS2163

>  <SMILES>  (2087) 
C[C@H](NC(=O)CC[C@@H](C)[C@H]1CC[C@H]2[C@@H]3CC[C@@H]4C[C@H](O)CC[C@]4(C)[C@H]3C[C@H](O)[C@]12C)C(=O)O

>  <Structure_dimension>  (2087) 
2D

$$$$
MS2164
     RDKit          2D

 31 34  0  0  0  0  0  0  0  0999 V2000
   -9.4306    3.6828    0.0000 C   0  0  0  0  0  0  0  0  0  0  0  0
   -8.8425    2.3029    0.0000 C   0  0  0  0  0  0  0  0  0  0  0  0
   -7.3534    2.1223    0.0000 O   0  0  0  0  0  0  0  0  0  0  0  0
   -6.7653    0.7424    0.0000 N   0  0  0  0  0  0  0  0  0  0  0  0
   -5.2762    0.5618    0.0000 C   0  0  0  0  0  0  0  0  0  0  0  0
   -4.3753    1.7610    0.0000 O   0  0  0  0  0  0  0  0  0  0  0  0
   -4.6881   -0.8181    0.0000 C   0  0  0  0  0  0  0  0  0  0  0  0
   -3.1991   -0.9988    0.0000 C   0  0  0  0  0  0  0  0  0  0  0  0
   -2.6109   -2.3787    0.0000 C   0  0  0  0  0  0  0  0  0  0  0  0
   -3.5119   -3.5779    0.0000 C   0  0  0  0  0  0  0  0  0  0  0  0
   -1.1219   -2.5593    0.0000 C   0  0  0  0  0  0  0  0  0  0  0  0
   -0.3927   -3.8702    0.0000 C   0  0  0  0  0  0  0  0  0  0  0  0
    1.0793   -3.5818    0.0000 C   0  0  0  0  0  0  0  0  0  0  0  0
    1.2599   -2.0927    0.0000 C   0  0  0  0  0  0  0  0  0  0  0  0
    2.4874   -1.2306    0.0000 C   0  0  0  0  0  0  0  0  0  0  0  0
    3.8478   -1.8625    0.0000 C   0  0  0  0  0  0  0  0  0  0  0  0
    3.9807   -3.3566    0.0000 O   0  0  0  0  0  0  0  0  0  0  0  0
    5.0753   -1.0003    0.0000 C   0  0  0  0  0  0  0  0  0  0  0  0
    4.9423    0.4938    0.0000 C   0  0  0  0  0  0  0  0  0  0  0  0
    6.1698    1.3559    0.0000 C   0  0  0  0  0  0  0  0  0  0  0  0
    6.0369    2.8500    0.0000 C   0  0  0  0  0  0  0  0  0  0  0  0
    7.2644    3.7122    0.0000 O   0  0  0  0  0  0  0  0  0  0  0  0
    4.6765    3.4820    0.0000 C   0  0  0  0  0  0  0  0  0  0  0  0
    3.4490    2.6198    0.0000 C   0  0  0  0  0  0  0  0  0  0  0  0
    3.5820    1.1257    0.0000 C   0  0  0  0  0  0  0  0  0  0  0  0
    2.2216    1.7576    0.0000 C   0  0  0  0  0  0  0  0  0  0  0  0
    2.3545    0.2635    0.0000 C   0  0  0  0  0  0  0  0  0  0  0  0
    0.9941    0.8955    0.0000 C   0  0  0  0  0  0  0  0  0  0  0  0
   -0.2334    0.0333    0.0000 C   0  0  0  0  0  0  0  0  0  0  0  0
   -0.1005   -1.4608    0.0000 C   0  0  0  0  0  0  0  0  0  0  0  0
   -1.5195   -0.9745    0.0000 C   0  0  0  0  0  0  0  0  0  0  0  0
  1  2  1  0
  2  3  1  0
  3  4  1  0
  4  5  1  0
  5  6  2  0
  5  7  1  0
  7  8  1  0
  8  9  1  0
  9 10  1  6
  9 11  1  0
 11 12  1  6
 12 13  1  0
 14 13  1  6
 14 15  1  0
 15 16  1  1
 16 17  1  1
 16 18  1  0
 19 18  1  1
 19 20  1  0
 20 21  1  0
 21 22  1  1
 21 23  1  0
 23 24  1  0
 24 25  1  0
 25 26  1  6
 25 27  1  0
 27 28  1  6
 28 29  1  0
 29 30  1  0
 30 31  1  6
 30 11  1  0
 30 14  1  0
 27 15  1  0
 25 19  1  0
M  END
>  <MS_ID>  (2088) 
MS2164

>  <SMILES>  (2088) 
CCONC(=O)CC[C@@H](C)[C@H]1CC[C@H]2[C@@H]3[C@H](O)C[C@@H]4C[C@H](O)CC[C@]4(C)[C@H]3CC[C@]12C

>  <Structure_dimension>  (2088) 
2D

$$$$
MS2165
     RDKit          2D

 39 43  0  0  0  0  0  0  0  0999 V2000
   -1.3487   -3.8381    0.0000 C   0  0  0  0  0  0  0  0  0  0  0  0
   -0.5290   -2.5818    0.0000 C   0  0  0  0  0  0  0  0  0  0  0  0
   -1.2071   -1.2438    0.0000 C   0  0  0  0  0  0  0  0  0  0  0  0
   -2.7048   -1.1621    0.0000 C   0  0  0  0  0  0  0  0  0  0  0  0
   -3.3829    0.1759    0.0000 C   0  0  0  0  0  0  0  0  0  0  0  0
   -2.5632    1.4321    0.0000 O   0  0  0  0  0  0  0  0  0  0  0  0
   -4.8807    0.2577    0.0000 O   0  0  0  0  0  0  0  0  0  0  0  0
   -5.5588    1.5957    0.0000 C   0  0  0  0  0  0  0  0  0  0  0  0
   -7.0565    1.6774    0.0000 C   0  0  0  0  0  0  0  0  0  0  0  0
   -7.7346    3.0154    0.0000 C   0  0  0  0  0  0  0  0  0  0  0  0
   -9.2324    3.0972    0.0000 C   0  0  0  0  0  0  0  0  0  0  0  0
  -10.0521    1.8410    0.0000 C   0  0  0  0  0  0  0  0  0  0  0  0
   -9.3740    0.5030    0.0000 C   0  0  0  0  0  0  0  0  0  0  0  0
  -10.1937   -0.7532    0.0000 C   0  0  0  0  0  0  0  0  0  0  0  0
   -9.5156   -2.0912    0.0000 O   0  0  0  0  0  0  0  0  0  0  0  0
  -11.6915   -0.6715    0.0000 O   0  0  0  0  0  0  0  0  0  0  0  0
   -7.8762    0.4212    0.0000 C   0  0  0  0  0  0  0  0  0  0  0  0
    0.9688   -2.6636    0.0000 C   0  0  0  0  0  0  0  0  0  0  0  0
    1.7830   -3.9234    0.0000 C   0  0  0  0  0  0  0  0  0  0  0  0
    3.2327   -3.5383    0.0000 C   0  0  0  0  0  0  0  0  0  0  0  0
    3.3145   -2.0405    0.0000 C   0  0  0  0  0  0  0  0  0  0  0  0
    4.4823   -1.0991    0.0000 C   0  0  0  0  0  0  0  0  0  0  0  0
    5.8815   -1.6397    0.0000 C   0  0  0  0  0  0  0  0  0  0  0  0
    6.1129   -3.1218    0.0000 O   0  0  0  0  0  0  0  0  0  0  0  0
    7.0492   -0.6983    0.0000 C   0  0  0  0  0  0  0  0  0  0  0  0
    8.4484   -1.2389    0.0000 O   0  0  0  0  0  0  0  0  0  0  0  0
    6.8178    0.7838    0.0000 C   0  0  0  0  0  0  0  0  0  0  0  0
    7.9856    1.7252    0.0000 C   0  0  0  0  0  0  0  0  0  0  0  0
    7.7542    3.2072    0.0000 C   0  0  0  0  0  0  0  0  0  0  0  0
    8.9219    4.1487    0.0000 O   0  0  0  0  0  0  0  0  0  0  0  0
    6.3550    3.7478    0.0000 C   0  0  0  0  0  0  0  0  0  0  0  0
    5.1872    2.8064    0.0000 C   0  0  0  0  0  0  0  0  0  0  0  0
    5.4186    1.3244    0.0000 C   0  0  0  0  0  0  0  0  0  0  0  0
    4.0194    1.8650    0.0000 C   0  0  0  0  0  0  0  0  0  0  0  0
    4.2508    0.3829    0.0000 C   0  0  0  0  0  0  0  0  0  0  0  0
    2.8516    0.9235    0.0000 C   0  0  0  0  0  0  0  0  0  0  0  0
    1.6839   -0.0179    0.0000 C   0  0  0  0  0  0  0  0  0  0  0  0
    1.9153   -1.4999    0.0000 C   0  0  0  0  0  0  0  0  0  0  0  0
    0.4672   -1.1086    0.0000 C   0  0  0  0  0  0  0  0  0  0  0  0
  2  1  1  6
  2  3  1  0
  3  4  1  0
  4  5  1  0
  5  6  2  0
  5  7  1  0
  7  8  1  0
  8  9  1  0
  9 10  2  0
 10 11  1  0
 11 12  2  0
 12 13  1  0
 13 14  1  0
 14 15  2  0
 14 16  1  0
 13 17  2  0
  2 18  1  0
 18 19  1  6
 19 20  1  0
 21 20  1  6
 21 22  1  0
 22 23  1  1
 23 24  1  1
 23 25  1  0
 25 26  1  1
 25 27  1  0
 27 28  1  1
 28 29  1  0
 29 30  1  1
 29 31  1  0
 31 32  1  0
 32 33  1  0
 33 34  1  6
 33 35  1  0
 35 36  1  6
 36 37  1  0
 37 38  1  0
 38 39  1  6
 17  9  1  0
 38 18  1  0
 38 21  1  0
 35 22  1  0
 33 27  1  0
M  END
>  <MS_ID>  (2089) 
MS2165

>  <SMILES>  (2089) 
C[C@H](CCC(=O)OCc1cccc(C(=O)O)c1)[C@H]1CC[C@H]2[C@@H]3[C@H](O)[C@H](O)[C@@H]4C[C@H](O)CC[C@]4(C)[C@H]3CC[C@]12C

>  <Structure_dimension>  (2089) 
2D

$$$$
MS2166
     RDKit          2D

 33 36  0  0  0  0  0  0  0  0999 V2000
   -2.8344   -3.8565    0.0000 C   0  0  0  0  0  0  0  0  0  0  0  0
   -1.9937   -2.6142    0.0000 C   0  0  0  0  0  0  0  0  0  0  0  0
   -2.6491   -1.2650    0.0000 C   0  0  0  0  0  0  0  0  0  0  0  0
   -4.1453   -1.1580    0.0000 C   0  0  0  0  0  0  0  0  0  0  0  0
   -4.8007    0.1912    0.0000 C   0  0  0  0  0  0  0  0  0  0  0  0
   -3.9600    1.4334    0.0000 O   0  0  0  0  0  0  0  0  0  0  0  0
   -6.2969    0.2982    0.0000 N   0  0  0  0  0  0  0  0  0  0  0  0
   -6.9523    1.6474    0.0000 C   0  0  0  0  0  0  0  0  0  0  0  0
   -6.1116    2.8896    0.0000 Cl  0  0  0  0  0  0  0  0  0  0  0  0
   -8.4485    1.7544    0.0000 C   0  0  0  0  0  0  0  0  0  0  0  0
   -9.2893    0.5121    0.0000 O   0  0  0  0  0  0  0  0  0  0  0  0
   -9.1040    3.1036    0.0000 O   0  0  0  0  0  0  0  0  0  0  0  0
   -0.4975   -2.7212    0.0000 C   0  0  0  0  0  0  0  0  0  0  0  0
    0.2954   -3.9945    0.0000 C   0  0  0  0  0  0  0  0  0  0  0  0
    1.7514   -3.6340    0.0000 C   0  0  0  0  0  0  0  0  0  0  0  0
    1.8584   -2.1378    0.0000 C   0  0  0  0  0  0  0  0  0  0  0  0
    3.0419   -1.2161    0.0000 C   0  0  0  0  0  0  0  0  0  0  0  0
    4.4317   -1.7802    0.0000 C   0  0  0  0  0  0  0  0  0  0  0  0
    4.6382   -3.2660    0.0000 O   0  0  0  0  0  0  0  0  0  0  0  0
    5.6152   -0.8586    0.0000 C   0  0  0  0  0  0  0  0  0  0  0  0
    5.4088    0.6271    0.0000 C   0  0  0  0  0  0  0  0  0  0  0  0
    6.5922    1.5488    0.0000 C   0  0  0  0  0  0  0  0  0  0  0  0
    6.3858    3.0345    0.0000 C   0  0  0  0  0  0  0  0  0  0  0  0
    7.5693    3.9561    0.0000 O   0  0  0  0  0  0  0  0  0  0  0  0
    4.9959    3.5986    0.0000 C   0  0  0  0  0  0  0  0  0  0  0  0
    3.8125    2.6770    0.0000 C   0  0  0  0  0  0  0  0  0  0  0  0
    4.0189    1.1912    0.0000 C   0  0  0  0  0  0  0  0  0  0  0  0
    2.6290    1.7553    0.0000 C   0  0  0  0  0  0  0  0  0  0  0  0
    2.8354    0.2696    0.0000 C   0  0  0  0  0  0  0  0  0  0  0  0
    1.4455    0.8337    0.0000 C   0  0  0  0  0  0  0  0  0  0  0  0
    0.2621   -0.0879    0.0000 C   0  0  0  0  0  0  0  0  0  0  0  0
    0.4685   -1.5737    0.0000 C   0  0  0  0  0  0  0  0  0  0  0  0
   -0.9727   -1.1580    0.0000 C   0  0  0  0  0  0  0  0  0  0  0  0
  2  1  1  6
  2  3  1  0
  3  4  1  0
  4  5  1  0
  5  6  2  0
  5  7  1  0
  7  8  1  0
  8  9  1  6
  8 10  1  0
 10 11  2  0
 10 12  1  0
  2 13  1  0
 13 14  1  6
 14 15  1  0
 16 15  1  6
 16 17  1  0
 17 18  1  1
 18 19  1  6
 18 20  1  0
 21 20  1  1
 21 22  1  0
 22 23  1  0
 23 24  1  1
 23 25  1  0
 25 26  1  0
 26 27  1  0
 27 28  1  6
 27 29  1  0
 29 30  1  6
 30 31  1  0
 31 32  1  0
 32 33  1  6
 32 13  1  0
 32 16  1  0
 29 17  1  0
 27 21  1  0
M  END
>  <MS_ID>  (2090) 
MS2166

>  <SMILES>  (2090) 
C[C@H](CCC(=O)N[C@@H](Cl)C(=O)O)[C@H]1CC[C@H]2[C@@H]3[C@@H](O)C[C@@H]4C[C@H](O)CC[C@]4(C)[C@H]3CC[C@]12C

>  <Structure_dimension>  (2090) 
2D

$$$$
MS2167
     RDKit          2D

 33 36  0  0  0  0  0  0  0  0999 V2000
   -4.6046   -3.4464    0.0000 C   0  0  0  0  0  0  0  0  0  0  0  0
   -3.5315   -2.3984    0.0000 C   0  0  0  0  0  0  0  0  0  0  0  0
   -3.9025   -0.9450    0.0000 C   0  0  0  0  0  0  0  0  0  0  0  0
   -5.3467   -0.5396    0.0000 C   0  0  0  0  0  0  0  0  0  0  0  0
   -5.7177    0.9138    0.0000 C   0  0  0  0  0  0  0  0  0  0  0  0
   -7.1619    1.3191    0.0000 O   0  0  0  0  0  0  0  0  0  0  0  0
   -4.6446    1.9618    0.0000 O   0  0  0  0  0  0  0  0  0  0  0  0
   -5.0156    3.4152    0.0000 S   0  0  0  0  0  0  0  0  0  0  0  0
   -6.4690    3.0441    0.0000 O   0  0  0  0  0  0  0  0  0  0  0  0
   -3.5623    3.7862    0.0000 O   0  0  0  0  0  0  0  0  0  0  0  0
   -5.3867    4.8686    0.0000 O   0  0  0  0  0  0  0  0  0  0  0  0
   -2.0873   -2.8037    0.0000 C   0  0  0  0  0  0  0  0  0  0  0  0
   -1.5663   -4.2104    0.0000 C   0  0  0  0  0  0  0  0  0  0  0  0
   -0.0676   -4.1496    0.0000 C   0  0  0  0  0  0  0  0  0  0  0  0
    0.3378   -2.7054    0.0000 C   0  0  0  0  0  0  0  0  0  0  0  0
    1.6823   -2.0403    0.0000 C   0  0  0  0  0  0  0  0  0  0  0  0
    2.9305   -2.8721    0.0000 C   0  0  0  0  0  0  0  0  0  0  0  0
    4.2750   -2.2070    0.0000 C   0  0  0  0  0  0  0  0  0  0  0  0
    4.3712   -0.7101    0.0000 C   0  0  0  0  0  0  0  0  0  0  0  0
    5.7157   -0.0449    0.0000 C   0  0  0  0  0  0  0  0  0  0  0  0
    5.8119    1.4520    0.0000 C   0  0  0  0  0  0  0  0  0  0  0  0
    7.1564    2.1171    0.0000 C   0  0  0  0  0  0  0  0  0  0  0  0
    7.2527    3.6140    0.0000 O   0  0  0  0  0  0  0  0  0  0  0  0
    8.4047    1.2853    0.0000 O   0  0  0  0  0  0  0  0  0  0  0  0
    4.5637    2.2838    0.0000 C   0  0  0  0  0  0  0  0  0  0  0  0
    3.2192    1.6187    0.0000 C   0  0  0  0  0  0  0  0  0  0  0  0
    3.1230    0.1217    0.0000 C   0  0  0  0  0  0  0  0  0  0  0  0
    1.8747    0.9535    0.0000 C   0  0  0  0  0  0  0  0  0  0  0  0
    1.7785   -0.5434    0.0000 C   0  0  0  0  0  0  0  0  0  0  0  0
    0.5303    0.2884    0.0000 C   0  0  0  0  0  0  0  0  0  0  0  0
   -0.8142   -0.3767    0.0000 C   0  0  0  0  0  0  0  0  0  0  0  0
   -0.9104   -1.8736    0.0000 C   0  0  0  0  0  0  0  0  0  0  0  0
   -2.2388   -1.1768    0.0000 C   0  0  0  0  0  0  0  0  0  0  0  0
  2  1  1  6
  2  3  1  0
  3  4  1  0
  4  5  1  0
  5  6  2  0
  5  7  1  0
  7  8  1  0
  8  9  2  0
  8 10  2  0
  8 11  1  0
  2 12  1  0
 12 13  1  6
 13 14  1  0
 15 14  1  6
 15 16  1  0
 16 17  1  1
 17 18  1  0
 19 18  1  1
 19 20  1  0
 20 21  1  0
 21 22  1  1
 22 23  2  0
 22 24  1  0
 21 25  1  0
 25 26  1  0
 26 27  1  0
 27 28  1  6
 27 29  1  0
 29 30  1  6
 30 31  1  0
 31 32  1  0
 32 33  1  6
 32 12  1  0
 32 15  1  0
 29 16  1  0
 27 19  1  0
M  END
>  <MS_ID>  (2091) 
MS2167

>  <SMILES>  (2091) 
C[C@H](CCC(=O)OS(=O)(=O)O)[C@H]1CC[C@H]2[C@@H]3CC[C@@H]4C[C@H](C(=O)O)CC[C@]4(C)[C@H]3CC[C@]12C

>  <Structure_dimension>  (2091) 
2D

$$$$
MS2168
     RDKit          2D

 28 31  0  0  0  0  0  0  0  0999 V2000
   -4.6340   -2.3524    0.0000 C   0  0  0  0  0  0  0  0  0  0  0  0
   -3.5242   -1.3434    0.0000 C   0  0  0  0  0  0  0  0  0  0  0  0
   -3.8431    0.1223    0.0000 C   0  0  0  0  0  0  0  0  0  0  0  0
   -5.2720    0.5789    0.0000 C   0  0  0  0  0  0  0  0  0  0  0  0
   -5.5909    2.0446    0.0000 C   0  0  0  0  0  0  0  0  0  0  0  0
   -4.4811    3.0537    0.0000 O   0  0  0  0  0  0  0  0  0  0  0  0
   -7.0197    2.5012    0.0000 O   0  0  0  0  0  0  0  0  0  0  0  0
   -2.0954   -1.8000    0.0000 C   0  0  0  0  0  0  0  0  0  0  0  0
   -1.6249   -3.2243    0.0000 C   0  0  0  0  0  0  0  0  0  0  0  0
   -0.1249   -3.2170    0.0000 C   0  0  0  0  0  0  0  0  0  0  0  0
    0.3317   -1.7882    0.0000 C   0  0  0  0  0  0  0  0  0  0  0  0
    1.6990   -1.1715    0.0000 C   0  0  0  0  0  0  0  0  0  0  0  0
    2.9168   -2.0473    0.0000 C   0  0  0  0  0  0  0  0  0  0  0  0
    2.7672   -3.5398    0.0000 N   0  0  0  0  0  0  0  0  0  0  0  0
    4.2841   -1.4305    0.0000 C   0  0  0  0  0  0  0  0  0  0  0  0
    4.4337    0.0620    0.0000 C   0  0  0  0  0  0  0  0  0  0  0  0
    5.8011    0.6787    0.0000 C   0  0  0  0  0  0  0  0  0  0  0  0
    5.9506    2.1713    0.0000 C   0  0  0  0  0  0  0  0  0  0  0  0
    4.7328    3.0471    0.0000 C   0  0  0  0  0  0  0  0  0  0  0  0
    3.3655    2.4303    0.0000 C   0  0  0  0  0  0  0  0  0  0  0  0
    3.2159    0.9378    0.0000 C   0  0  0  0  0  0  0  0  0  0  0  0
    1.9981    1.8136    0.0000 C   0  0  0  0  0  0  0  0  0  0  0  0
    1.8486    0.3211    0.0000 C   0  0  0  0  0  0  0  0  0  0  0  0
    0.6308    1.1968    0.0000 C   0  0  0  0  0  0  0  0  0  0  0  0
   -0.7366    0.5801    0.0000 C   0  0  0  0  0  0  0  0  0  0  0  0
   -1.9543    1.4559    0.0000 O   0  0  0  0  0  0  0  0  0  0  0  0
   -0.8861   -0.9124    0.0000 C   0  0  0  0  0  0  0  0  0  0  0  0
   -2.1888   -0.1687    0.0000 C   0  0  0  0  0  0  0  0  0  0  0  0
  2  1  1  6
  2  3  1  0
  3  4  1  0
  4  5  1  0
  5  6  2  0
  5  7  1  0
  2  8  1  0
  8  9  1  6
  9 10  1  0
 11 10  1  6
 11 12  1  0
 12 13  1  1
 13 14  1  1
 13 15  1  0
 16 15  1  1
 16 17  1  0
 17 18  1  0
 18 19  1  0
 19 20  1  0
 20 21  1  0
 21 22  1  6
 21 23  1  0
 23 24  1  6
 24 25  1  0
 25 26  2  0
 25 27  1  0
 27 28  1  6
 27  8  1  0
 27 11  1  0
 23 12  1  0
 21 16  1  0
M  END
>  <MS_ID>  (2092) 
MS2168

>  <SMILES>  (2092) 
C[C@H](CCC(=O)O)[C@H]1CC[C@H]2[C@@H]3[C@H](N)C[C@@H]4CCCC[C@]4(C)[C@H]3CC(=O)[C@]12C

>  <Structure_dimension>  (2092) 
2D

$$$$
MS2169
     RDKit          2D

 31 34  0  0  0  0  0  0  0  0999 V2000
   -5.2985   -2.4190    0.0000 C   0  0  0  0  0  0  0  0  0  0  0  0
   -4.1027   -1.5135    0.0000 C   0  0  0  0  0  0  0  0  0  0  0  0
   -4.2890   -0.0251    0.0000 C   0  0  0  0  0  0  0  0  0  0  0  0
   -5.6711    0.5578    0.0000 C   0  0  0  0  0  0  0  0  0  0  0  0
   -5.8574    2.0462    0.0000 C   0  0  0  0  0  0  0  0  0  0  0  0
   -4.6615    2.9517    0.0000 O   0  0  0  0  0  0  0  0  0  0  0  0
   -7.2395    2.6291    0.0000 C   0  0  0  0  0  0  0  0  0  0  0  0
   -7.4257    4.1175    0.0000 O   0  0  0  0  0  0  0  0  0  0  0  0
   -2.7206   -2.0963    0.0000 C   0  0  0  0  0  0  0  0  0  0  0  0
   -2.3797   -3.5571    0.0000 C   0  0  0  0  0  0  0  0  0  0  0  0
   -0.8851   -3.6844    0.0000 C   0  0  0  0  0  0  0  0  0  0  0  0
   -0.3023   -2.3022    0.0000 C   0  0  0  0  0  0  0  0  0  0  0  0
    1.1149   -1.8106    0.0000 C   0  0  0  0  0  0  0  0  0  0  0  0
    2.2492   -2.7920    0.0000 C   0  0  0  0  0  0  0  0  0  0  0  0
    3.6664   -2.3004    0.0000 C   0  0  0  0  0  0  0  0  0  0  0  0
    3.9491   -0.8273    0.0000 C   0  0  0  0  0  0  0  0  0  0  0  0
    5.3663   -0.3356    0.0000 C   0  0  0  0  0  0  0  0  0  0  0  0
    5.6491    1.1375    0.0000 C   0  0  0  0  0  0  0  0  0  0  0  0
    7.0662    1.6291    0.0000 C   0  0  0  0  0  0  0  0  0  0  0  0
    7.3490    3.1022    0.0000 O   0  0  0  0  0  0  0  0  0  0  0  0
    8.2005    0.6477    0.0000 O   0  0  0  0  0  0  0  0  0  0  0  0
    4.5147    2.1189    0.0000 C   0  0  0  0  0  0  0  0  0  0  0  0
    3.0976    1.6273    0.0000 C   0  0  0  0  0  0  0  0  0  0  0  0
    2.8148    0.1542    0.0000 C   0  0  0  0  0  0  0  0  0  0  0  0
    1.6804    1.1356    0.0000 C   0  0  0  0  0  0  0  0  0  0  0  0
    1.3976   -0.3375    0.0000 C   0  0  0  0  0  0  0  0  0  0  0  0
    0.2633    0.6440    0.0000 C   0  0  0  0  0  0  0  0  0  0  0  0
   -1.1538    0.1523    0.0000 C   0  0  0  0  0  0  0  0  0  0  0  0
   -2.2882    1.1338    0.0000 O   0  0  0  0  0  0  0  0  0  0  0  0
   -1.4366   -1.3208    0.0000 C   0  0  0  0  0  0  0  0  0  0  0  0
   -2.6674   -0.4633    0.0000 C   0  0  0  0  0  0  0  0  0  0  0  0
  2  1  1  6
  2  3  1  0
  3  4  1  0
  4  5  1  0
  5  6  2  0
  5  7  1  0
  7  8  1  0
  2  9  1  0
  9 10  1  6
 10 11  1  0
 12 11  1  6
 12 13  1  0
 13 14  1  1
 14 15  1  0
 16 15  1  1
 16 17  1  0
 17 18  1  0
 18 19  1  1
 19 20  2  0
 19 21  1  0
 18 22  1  0
 22 23  1  0
 23 24  1  0
 24 25  1  6
 24 26  1  0
 26 27  1  6
 27 28  1  0
 28 29  1  1
 28 30  1  0
 30 31  1  6
 30  9  1  0
 30 12  1  0
 26 13  1  0
 24 16  1  0
M  END
>  <MS_ID>  (2093) 
MS2169

>  <SMILES>  (2093) 
C[C@H](CCC(=O)CO)[C@H]1CC[C@H]2[C@@H]3CC[C@@H]4C[C@H](C(=O)O)CC[C@]4(C)[C@H]3C[C@H](O)[C@]12C

>  <Structure_dimension>  (2093) 
2D

$$$$
MS2170
     RDKit          2D

 31 34  0  0  0  0  0  0  0  0999 V2000
   -3.9474   -2.8949    0.0000 C   0  0  0  0  0  0  0  0  0  0  0  0
   -2.9049   -1.8163    0.0000 C   0  0  0  0  0  0  0  0  0  0  0  0
   -3.3177   -0.3743    0.0000 C   0  0  0  0  0  0  0  0  0  0  0  0
   -4.7730   -0.0107    0.0000 C   0  0  0  0  0  0  0  0  0  0  0  0
   -5.1858    1.4314    0.0000 C   0  0  0  0  0  0  0  0  0  0  0  0
   -4.1433    2.5099    0.0000 O   0  0  0  0  0  0  0  0  0  0  0  0
   -6.6411    1.7949    0.0000 N   0  0  0  0  0  0  0  0  0  0  0  0
   -7.0538    3.2370    0.0000 C   0  0  0  0  0  0  0  0  0  0  0  0
   -7.6835    0.7164    0.0000 C   0  0  0  0  0  0  0  0  0  0  0  0
   -9.1388    1.0800    0.0000 O   0  0  0  0  0  0  0  0  0  0  0  0
   -1.4496   -2.1799    0.0000 C   0  0  0  0  0  0  0  0  0  0  0  0
   -0.8884   -3.5709    0.0000 C   0  0  0  0  0  0  0  0  0  0  0  0
    0.6080   -3.4670    0.0000 C   0  0  0  0  0  0  0  0  0  0  0  0
    0.9716   -2.0117    0.0000 C   0  0  0  0  0  0  0  0  0  0  0  0
    2.2963   -1.3081    0.0000 C   0  0  0  0  0  0  0  0  0  0  0  0
    3.5680   -2.1036    0.0000 C   0  0  0  0  0  0  0  0  0  0  0  0
    3.5150   -3.6026    0.0000 O   0  0  0  0  0  0  0  0  0  0  0  0
    4.8928   -1.4000    0.0000 C   0  0  0  0  0  0  0  0  0  0  0  0
    4.9458    0.0991    0.0000 C   0  0  0  0  0  0  0  0  0  0  0  0
    6.2706    0.8027    0.0000 C   0  0  0  0  0  0  0  0  0  0  0  0
    6.3236    2.3018    0.0000 C   0  0  0  0  0  0  0  0  0  0  0  0
    7.6483    3.0054    0.0000 O   0  0  0  0  0  0  0  0  0  0  0  0
    5.0519    3.0972    0.0000 C   0  0  0  0  0  0  0  0  0  0  0  0
    3.7271    2.3936    0.0000 C   0  0  0  0  0  0  0  0  0  0  0  0
    3.6741    0.8946    0.0000 C   0  0  0  0  0  0  0  0  0  0  0  0
    2.4024    1.6900    0.0000 C   0  0  0  0  0  0  0  0  0  0  0  0
    2.3494    0.1910    0.0000 C   0  0  0  0  0  0  0  0  0  0  0  0
    1.0777    0.9864    0.0000 C   0  0  0  0  0  0  0  0  0  0  0  0
   -0.2471    0.2828    0.0000 C   0  0  0  0  0  0  0  0  0  0  0  0
   -0.3001   -1.2162    0.0000 C   0  0  0  0  0  0  0  0  0  0  0  0
   -1.6480   -0.5581    0.0000 C   0  0  0  0  0  0  0  0  0  0  0  0
  2  1  1  6
  2  3  1  0
  3  4  1  0
  4  5  1  0
  5  6  2  0
  5  7  1  0
  7  8  1  0
  7  9  1  0
  9 10  1  0
  2 11  1  0
 11 12  1  6
 12 13  1  0
 14 13  1  6
 14 15  1  0
 15 16  1  1
 16 17  1  1
 16 18  1  0
 19 18  1  1
 19 20  1  0
 20 21  1  0
 21 22  1  1
 21 23  1  0
 23 24  1  0
 24 25  1  0
 25 26  1  6
 25 27  1  0
 27 28  1  6
 28 29  1  0
 29 30  1  0
 30 31  1  6
 30 11  1  0
 30 14  1  0
 27 15  1  0
 25 19  1  0
M  END
>  <MS_ID>  (2094) 
MS2170

>  <SMILES>  (2094) 
C[C@H](CCC(=O)N(C)CO)[C@H]1CC[C@H]2[C@@H]3[C@H](O)C[C@@H]4C[C@H](O)CC[C@]4(C)[C@H]3CC[C@]12C

>  <Structure_dimension>  (2094) 
2D

$$$$
MS2171
     RDKit          2D

 33 36  0  0  0  0  0  0  0  0999 V2000
  -11.0589    2.8983    0.0000 C   0  0  0  0  0  0  0  0  0  0  0  0
   -9.5600    2.8405    0.0000 C   0  0  0  0  0  0  0  0  0  0  0  0
   -8.8607    1.5135    0.0000 C   0  0  0  0  0  0  0  0  0  0  0  0
   -7.3618    1.4556    0.0000 C   0  0  0  0  0  0  0  0  0  0  0  0
   -6.6625    0.1286    0.0000 O   0  0  0  0  0  0  0  0  0  0  0  0
   -5.1636    0.0708    0.0000 C   0  0  0  0  0  0  0  0  0  0  0  0
   -4.3640    1.3399    0.0000 O   0  0  0  0  0  0  0  0  0  0  0  0
   -4.4642   -1.2562    0.0000 C   0  0  0  0  0  0  0  0  0  0  0  0
   -2.9654   -1.3141    0.0000 C   0  0  0  0  0  0  0  0  0  0  0  0
   -2.2660   -2.6411    0.0000 C   0  0  0  0  0  0  0  0  0  0  0  0
   -3.0656   -3.9102    0.0000 C   0  0  0  0  0  0  0  0  0  0  0  0
   -0.7671   -2.6989    0.0000 C   0  0  0  0  0  0  0  0  0  0  0  0
    0.0671   -3.9456    0.0000 C   0  0  0  0  0  0  0  0  0  0  0  0
    1.5105   -3.5374    0.0000 C   0  0  0  0  0  0  0  0  0  0  0  0
    1.5683   -2.0385    0.0000 C   0  0  0  0  0  0  0  0  0  0  0  0
    2.7209   -1.0786    0.0000 C   0  0  0  0  0  0  0  0  0  0  0  0
    4.1286   -1.5968    0.0000 C   0  0  0  0  0  0  0  0  0  0  0  0
    4.3836   -3.0749    0.0000 O   0  0  0  0  0  0  0  0  0  0  0  0
    5.2812   -0.6368    0.0000 C   0  0  0  0  0  0  0  0  0  0  0  0
    6.6888   -1.1550    0.0000 O   0  0  0  0  0  0  0  0  0  0  0  0
    5.0261    0.8413    0.0000 C   0  0  0  0  0  0  0  0  0  0  0  0
    6.1787    1.8013    0.0000 C   0  0  0  0  0  0  0  0  0  0  0  0
    5.9237    3.2795    0.0000 C   0  0  0  0  0  0  0  0  0  0  0  0
    7.0763    4.2394    0.0000 O   0  0  0  0  0  0  0  0  0  0  0  0
    4.5160    3.7977    0.0000 C   0  0  0  0  0  0  0  0  0  0  0  0
    3.3634    2.8377    0.0000 C   0  0  0  0  0  0  0  0  0  0  0  0
    3.6185    1.3595    0.0000 C   0  0  0  0  0  0  0  0  0  0  0  0
    2.2108    1.8777    0.0000 C   0  0  0  0  0  0  0  0  0  0  0  0
    2.4659    0.3996    0.0000 C   0  0  0  0  0  0  0  0  0  0  0  0
    1.0582    0.9178    0.0000 C   0  0  0  0  0  0  0  0  0  0  0  0
   -0.0944   -0.0422    0.0000 C   0  0  0  0  0  0  0  0  0  0  0  0
    0.1607   -1.5203    0.0000 C   0  0  0  0  0  0  0  0  0  0  0  0
   -1.2934   -1.1521    0.0000 C   0  0  0  0  0  0  0  0  0  0  0  0
  1  2  1  0
  2  3  1  0
  3  4  1  0
  4  5  1  0
  5  6  1  0
  6  7  2  0
  6  8  1  0
  8  9  1  0
  9 10  1  0
 10 11  1  6
 10 12  1  0
 12 13  1  6
 13 14  1  0
 15 14  1  6
 15 16  1  0
 16 17  1  1
 17 18  1  1
 17 19  1  0
 19 20  1  1
 19 21  1  0
 21 22  1  1
 22 23  1  0
 23 24  1  1
 23 25  1  0
 25 26  1  0
 26 27  1  0
 27 28  1  6
 27 29  1  0
 29 30  1  6
 30 31  1  0
 31 32  1  0
 32 33  1  6
 32 12  1  0
 32 15  1  0
 29 16  1  0
 27 21  1  0
M  END
>  <MS_ID>  (2095) 
MS2171

>  <SMILES>  (2095) 
CCCCOC(=O)CC[C@@H](C)[C@H]1CC[C@H]2[C@@H]3[C@H](O)[C@H](O)[C@@H]4C[C@H](O)CC[C@]4(C)[C@H]3CC[C@]12C

>  <Structure_dimension>  (2095) 
2D

$$$$
MS2172
     RDKit          2D

 31 34  0  0  0  0  0  0  0  0999 V2000
   -4.4398   -2.7824    0.0000 C   0  0  0  0  0  0  0  0  0  0  0  0
   -3.3538   -1.7477    0.0000 C   0  0  0  0  0  0  0  0  0  0  0  0
   -3.7068   -0.2899    0.0000 C   0  0  0  0  0  0  0  0  0  0  0  0
   -5.1459    0.1333    0.0000 C   0  0  0  0  0  0  0  0  0  0  0  0
   -5.4989    1.5912    0.0000 C   0  0  0  0  0  0  0  0  0  0  0  0
   -4.4129    2.6259    0.0000 O   0  0  0  0  0  0  0  0  0  0  0  0
   -6.9380    2.0144    0.0000 C   0  0  0  0  0  0  0  0  0  0  0  0
   -8.0240    0.9797    0.0000 O   0  0  0  0  0  0  0  0  0  0  0  0
   -7.2910    3.4722    0.0000 O   0  0  0  0  0  0  0  0  0  0  0  0
   -1.9147   -2.1709    0.0000 C   0  0  0  0  0  0  0  0  0  0  0  0
   -1.4112   -3.5839    0.0000 C   0  0  0  0  0  0  0  0  0  0  0  0
    0.0882   -3.5416    0.0000 C   0  0  0  0  0  0  0  0  0  0  0  0
    0.5114   -2.1026    0.0000 C   0  0  0  0  0  0  0  0  0  0  0  0
    1.8640   -1.4541    0.0000 C   0  0  0  0  0  0  0  0  0  0  0  0
    3.1019   -2.3013    0.0000 C   0  0  0  0  0  0  0  0  0  0  0  0
    2.9871   -3.7969    0.0000 O   0  0  0  0  0  0  0  0  0  0  0  0
    4.4545   -1.6529    0.0000 C   0  0  0  0  0  0  0  0  0  0  0  0
    4.5692   -0.1573    0.0000 C   0  0  0  0  0  0  0  0  0  0  0  0
    5.9218    0.4912    0.0000 C   0  0  0  0  0  0  0  0  0  0  0  0
    6.0365    1.9868    0.0000 C   0  0  0  0  0  0  0  0  0  0  0  0
    7.3891    2.6352    0.0000 O   0  0  0  0  0  0  0  0  0  0  0  0
    4.7987    2.8339    0.0000 C   0  0  0  0  0  0  0  0  0  0  0  0
    3.4461    2.1855    0.0000 C   0  0  0  0  0  0  0  0  0  0  0  0
    3.3313    0.6899    0.0000 C   0  0  0  0  0  0  0  0  0  0  0  0
    2.0935    1.5371    0.0000 C   0  0  0  0  0  0  0  0  0  0  0  0
    2.2082    3.0327    0.0000 O   0  0  0  0  0  0  0  0  0  0  0  0
    1.9787    0.0415    0.0000 C   0  0  0  0  0  0  0  0  0  0  0  0
    0.7409    0.8886    0.0000 C   0  0  0  0  0  0  0  0  0  0  0  0
   -0.6117    0.2402    0.0000 C   0  0  0  0  0  0  0  0  0  0  0  0
   -0.7265   -1.2554    0.0000 C   0  0  0  0  0  0  0  0  0  0  0  0
   -2.0461   -0.5423    0.0000 C   0  0  0  0  0  0  0  0  0  0  0  0
  2  1  1  6
  2  3  1  0
  3  4  1  0
  4  5  1  0
  5  6  2  0
  5  7  1  0
  7  8  2  0
  7  9  1  0
  2 10  1  0
 10 11  1  6
 11 12  1  0
 13 12  1  6
 13 14  1  0
 14 15  1  1
 15 16  1  6
 15 17  1  0
 18 17  1  1
 18 19  1  0
 19 20  1  0
 20 21  1  1
 20 22  1  0
 22 23  1  0
 23 24  1  0
 24 25  1  6
 25 26  1  0
 24 27  1  0
 27 28  1  6
 28 29  1  0
 29 30  1  0
 30 31  1  6
 30 10  1  0
 30 13  1  0
 27 14  1  0
 24 18  1  0
M  END
>  <MS_ID>  (2096) 
MS2172

>  <SMILES>  (2096) 
C[C@H](CCC(=O)C(=O)O)[C@H]1CC[C@H]2[C@@H]3[C@@H](O)C[C@@H]4C[C@H](O)CC[C@]4(CO)[C@H]3CC[C@]12C

>  <Structure_dimension>  (2096) 
2D

$$$$
MS2173
     RDKit          2D

 35 38  0  0  0  0  0  0  0  0999 V2000
   -1.8078   -5.2797    0.0000 C   0  0  0  0  0  0  0  0  0  0  0  0
   -1.3287   -3.8583    0.0000 C   0  0  0  0  0  0  0  0  0  0  0  0
   -2.3201   -2.7327    0.0000 C   0  0  0  0  0  0  0  0  0  0  0  0
   -3.7907   -3.0285    0.0000 C   0  0  0  0  0  0  0  0  0  0  0  0
   -4.7821   -1.9028    0.0000 C   0  0  0  0  0  0  0  0  0  0  0  0
   -6.2527   -2.1986    0.0000 O   0  0  0  0  0  0  0  0  0  0  0  0
   -4.3030   -0.4814    0.0000 O   0  0  0  0  0  0  0  0  0  0  0  0
   -5.2944    0.6442    0.0000 C   0  0  0  0  0  0  0  0  0  0  0  0
   -6.7650    0.3485    0.0000 O   0  0  0  0  0  0  0  0  0  0  0  0
   -4.8153    2.0657    0.0000 C   0  0  0  0  0  0  0  0  0  0  0  0
   -5.8068    3.1913    0.0000 O   0  0  0  0  0  0  0  0  0  0  0  0
   -5.3277    4.6127    0.0000 C   0  0  0  0  0  0  0  0  0  0  0  0
   -3.8571    4.9085    0.0000 O   0  0  0  0  0  0  0  0  0  0  0  0
   -6.3191    5.7384    0.0000 O   0  0  0  0  0  0  0  0  0  0  0  0
    0.1418   -3.5625    0.0000 C   0  0  0  0  0  0  0  0  0  0  0  0
    1.2455   -4.5784    0.0000 C   0  0  0  0  0  0  0  0  0  0  0  0
    2.5527   -3.8426    0.0000 C   0  0  0  0  0  0  0  0  0  0  0  0
    2.2569   -2.3721    0.0000 C   0  0  0  0  0  0  0  0  0  0  0  0
    3.1518   -1.1683    0.0000 C   0  0  0  0  0  0  0  0  0  0  0  0
    4.6418   -1.3414    0.0000 C   0  0  0  0  0  0  0  0  0  0  0  0
    5.2368   -2.7183    0.0000 O   0  0  0  0  0  0  0  0  0  0  0  0
    5.5367   -0.1376    0.0000 C   0  0  0  0  0  0  0  0  0  0  0  0
    4.9416    1.2393    0.0000 C   0  0  0  0  0  0  0  0  0  0  0  0
    5.8365    2.4431    0.0000 C   0  0  0  0  0  0  0  0  0  0  0  0
    5.2415    3.8201    0.0000 C   0  0  0  0  0  0  0  0  0  0  0  0
    6.1364    5.0239    0.0000 O   0  0  0  0  0  0  0  0  0  0  0  0
    3.7515    3.9932    0.0000 C   0  0  0  0  0  0  0  0  0  0  0  0
    2.8566    2.7894    0.0000 C   0  0  0  0  0  0  0  0  0  0  0  0
    3.4516    1.4124    0.0000 C   0  0  0  0  0  0  0  0  0  0  0  0
    1.9617    1.5856    0.0000 C   0  0  0  0  0  0  0  0  0  0  0  0
    2.5567    0.2086    0.0000 C   0  0  0  0  0  0  0  0  0  0  0  0
    1.0667    0.3818    0.0000 C   0  0  0  0  0  0  0  0  0  0  0  0
    0.1718   -0.8220    0.0000 C   0  0  0  0  0  0  0  0  0  0  0  0
    0.7669   -2.1990    0.0000 C   0  0  0  0  0  0  0  0  0  0  0  0
   -0.7330   -2.1825    0.0000 C   0  0  0  0  0  0  0  0  0  0  0  0
  2  1  1  6
  2  3  1  0
  3  4  1  0
  4  5  1  0
  5  6  2  0
  5  7  1  0
  7  8  1  0
  8  9  2  0
  8 10  1  0
 10 11  1  0
 11 12  1  0
 12 13  2  0
 12 14  1  0
  2 15  1  0
 15 16  1  6
 16 17  1  0
 18 17  1  6
 18 19  1  0
 19 20  1  1
 20 21  1  6
 20 22  1  0
 23 22  1  1
 23 24  1  0
 24 25  1  0
 25 26  1  1
 25 27  1  0
 27 28  1  0
 28 29  1  0
 29 30  1  6
 29 31  1  0
 31 32  1  6
 32 33  1  0
 33 34  1  0
 34 35  1  6
 34 15  1  0
 34 18  1  0
 31 19  1  0
 29 23  1  0
M  END
>  <MS_ID>  (2097) 
MS2173

>  <SMILES>  (2097) 
C[C@H](CCC(=O)OC(=O)COC(=O)O)[C@H]1CC[C@H]2[C@@H]3[C@@H](O)C[C@@H]4C[C@H](O)CC[C@]4(C)[C@H]3CC[C@]12C

>  <Structure_dimension>  (2097) 
2D

$$$$
MS2174
     RDKit          2D

 33 36  0  0  0  0  0  0  0  0999 V2000
   -3.0978   -3.6919    0.0000 C   0  0  0  0  0  0  0  0  0  0  0  0
   -2.2201   -2.4755    0.0000 C   0  0  0  0  0  0  0  0  0  0  0  0
   -2.8347   -1.1072    0.0000 C   0  0  0  0  0  0  0  0  0  0  0  0
   -4.3270   -0.9552    0.0000 C   0  0  0  0  0  0  0  0  0  0  0  0
   -4.9416    0.4131    0.0000 C   0  0  0  0  0  0  0  0  0  0  0  0
   -4.0639    1.6295    0.0000 O   0  0  0  0  0  0  0  0  0  0  0  0
   -6.4339    0.5650    0.0000 C   0  0  0  0  0  0  0  0  0  0  0  0
   -7.0484    1.9333    0.0000 C   0  0  0  0  0  0  0  0  0  0  0  0
   -8.5407    2.0852    0.0000 C   0  0  0  0  0  0  0  0  0  0  0  0
   -9.4184    0.8688    0.0000 O   0  0  0  0  0  0  0  0  0  0  0  0
   -9.1553    3.4535    0.0000 O   0  0  0  0  0  0  0  0  0  0  0  0
   -0.7278   -2.6274    0.0000 C   0  0  0  0  0  0  0  0  0  0  0  0
    0.0264   -3.9240    0.0000 C   0  0  0  0  0  0  0  0  0  0  0  0
    1.4926   -3.6073    0.0000 C   0  0  0  0  0  0  0  0  0  0  0  0
    1.6445   -2.1150    0.0000 C   0  0  0  0  0  0  0  0  0  0  0  0
    2.8552   -1.2294    0.0000 C   0  0  0  0  0  0  0  0  0  0  0  0
    4.2275   -1.8350    0.0000 C   0  0  0  0  0  0  0  0  0  0  0  0
    4.3891   -3.3263    0.0000 O   0  0  0  0  0  0  0  0  0  0  0  0
    5.4381   -0.9494    0.0000 C   0  0  0  0  0  0  0  0  0  0  0  0
    5.2764    0.5419    0.0000 C   0  0  0  0  0  0  0  0  0  0  0  0
    6.4871    1.4275    0.0000 C   0  0  0  0  0  0  0  0  0  0  0  0
    6.3254    2.9188    0.0000 C   0  0  0  0  0  0  0  0  0  0  0  0
    7.5360    3.8044    0.0000 O   0  0  0  0  0  0  0  0  0  0  0  0
    4.9531    3.5244    0.0000 C   0  0  0  0  0  0  0  0  0  0  0  0
    3.7425    2.6388    0.0000 C   0  0  0  0  0  0  0  0  0  0  0  0
    3.9041    1.1475    0.0000 C   0  0  0  0  0  0  0  0  0  0  0  0
    2.5318    1.7531    0.0000 C   0  0  0  0  0  0  0  0  0  0  0  0
    2.6935    0.2619    0.0000 C   0  0  0  0  0  0  0  0  0  0  0  0
    1.3212    0.8675    0.0000 C   0  0  0  0  0  0  0  0  0  0  0  0
    0.1105   -0.0181    0.0000 C   0  0  0  0  0  0  0  0  0  0  0  0
   -1.2618    0.5875    0.0000 O   0  0  0  0  0  0  0  0  0  0  0  0
    0.2722   -1.5094    0.0000 C   0  0  0  0  0  0  0  0  0  0  0  0
   -1.1559   -1.0505    0.0000 C   0  0  0  0  0  0  0  0  0  0  0  0
  2  1  1  6
  2  3  1  0
  3  4  1  0
  4  5  1  0
  5  6  2  0
  5  7  1  0
  7  8  1  0
  8  9  1  0
  9 10  2  0
  9 11  1  0
  2 12  1  0
 12 13  1  6
 13 14  1  0
 15 14  1  6
 15 16  1  0
 16 17  1  1
 17 18  1  1
 17 19  1  0
 20 19  1  1
 20 21  1  0
 21 22  1  0
 22 23  2  0
 22 24  1  0
 24 25  1  0
 25 26  1  0
 26 27  1  6
 26 28  1  0
 28 29  1  6
 29 30  1  0
 30 31  1  6
 30 32  1  0
 32 33  1  6
 32 12  1  0
 32 15  1  0
 28 16  1  0
 26 20  1  0
M  END
>  <MS_ID>  (2098) 
MS2174

>  <SMILES>  (2098) 
C[C@H](CCC(=O)CCC(=O)O)[C@H]1CC[C@H]2[C@@H]3[C@H](O)C[C@@H]4CC(=O)CC[C@]4(C)[C@H]3C[C@@H](O)[C@]12C

>  <Structure_dimension>  (2098) 
2D

$$$$
MS2175
     RDKit          2D

 33 36  0  0  0  0  0  0  0  0999 V2000
   -4.1412   -3.6203    0.0000 C   0  0  0  0  0  0  0  0  0  0  0  0
   -3.1740   -2.4737    0.0000 C   0  0  0  0  0  0  0  0  0  0  0  0
   -3.6833   -1.0629    0.0000 C   0  0  0  0  0  0  0  0  0  0  0  0
   -5.1599   -0.7985    0.0000 C   0  0  0  0  0  0  0  0  0  0  0  0
   -5.6692    0.6123    0.0000 C   0  0  0  0  0  0  0  0  0  0  0  0
   -7.1457    0.8767    0.0000 O   0  0  0  0  0  0  0  0  0  0  0  0
   -4.7020    1.7589    0.0000 O   0  0  0  0  0  0  0  0  0  0  0  0
   -5.2114    3.1698    0.0000 S   0  0  0  0  0  0  0  0  0  0  0  0
   -6.6222    2.6604    0.0000 O   0  0  0  0  0  0  0  0  0  0  0  0
   -3.8005    3.6791    0.0000 O   0  0  0  0  0  0  0  0  0  0  0  0
   -5.7207    4.5806    0.0000 O   0  0  0  0  0  0  0  0  0  0  0  0
   -1.6975   -2.7381    0.0000 C   0  0  0  0  0  0  0  0  0  0  0  0
   -1.0435   -4.0880    0.0000 C   0  0  0  0  0  0  0  0  0  0  0  0
    0.4425   -3.8831    0.0000 C   0  0  0  0  0  0  0  0  0  0  0  0
    0.7068   -2.4066    0.0000 C   0  0  0  0  0  0  0  0  0  0  0  0
    1.9810   -1.6150    0.0000 C   0  0  0  0  0  0  0  0  0  0  0  0
    3.3035   -2.3227    0.0000 C   0  0  0  0  0  0  0  0  0  0  0  0
    3.3520   -3.8219    0.0000 O   0  0  0  0  0  0  0  0  0  0  0  0
    4.5777   -1.5312    0.0000 C   0  0  0  0  0  0  0  0  0  0  0  0
    4.5293   -0.0319    0.0000 C   0  0  0  0  0  0  0  0  0  0  0  0
    5.8034    0.7596    0.0000 C   0  0  0  0  0  0  0  0  0  0  0  0
    5.7550    2.2588    0.0000 C   0  0  0  0  0  0  0  0  0  0  0  0
    7.0291    3.0504    0.0000 C   0  0  0  0  0  0  0  0  0  0  0  0
    8.3517    2.3427    0.0000 O   0  0  0  0  0  0  0  0  0  0  0  0
    4.4324    2.9665    0.0000 C   0  0  0  0  0  0  0  0  0  0  0  0
    3.1583    2.1749    0.0000 C   0  0  0  0  0  0  0  0  0  0  0  0
    3.2067    0.6757    0.0000 C   0  0  0  0  0  0  0  0  0  0  0  0
    1.8841    1.3834    0.0000 C   0  0  0  0  0  0  0  0  0  0  0  0
    1.9325   -0.1158    0.0000 C   0  0  0  0  0  0  0  0  0  0  0  0
    0.6100    0.5918    0.0000 C   0  0  0  0  0  0  0  0  0  0  0  0
   -0.6642   -0.1997    0.0000 C   0  0  0  0  0  0  0  0  0  0  0  0
   -0.6157   -1.6989    0.0000 C   0  0  0  0  0  0  0  0  0  0  0  0
   -2.0050   -1.1334    0.0000 C   0  0  0  0  0  0  0  0  0  0  0  0
  2  1  1  6
  2  3  1  0
  3  4  1  0
  4  5  1  0
  5  6  2  0
  5  7  1  0
  7  8  1  0
  8  9  2  0
  8 10  2  0
  8 11  1  0
  2 12  1  0
 12 13  1  6
 13 14  1  0
 15 14  1  6
 15 16  1  0
 16 17  1  1
 17 18  1  6
 17 19  1  0
 20 19  1  1
 20 21  1  0
 21 22  1  0
 22 23  1  1
 23 24  1  0
 22 25  1  0
 25 26  1  0
 26 27  1  0
 27 28  1  6
 27 29  1  0
 29 30  1  6
 30 31  1  0
 31 32  1  0
 32 33  1  6
 32 12  1  0
 32 15  1  0
 29 16  1  0
 27 20  1  0
M  END
>  <MS_ID>  (2099) 
MS2175

>  <SMILES>  (2099) 
C[C@H](CCC(=O)OS(=O)(=O)O)[C@H]1CC[C@H]2[C@@H]3[C@@H](O)C[C@@H]4C[C@H](CO)CC[C@]4(C)[C@H]3CC[C@]12C

>  <Structure_dimension>  (2099) 
2D

$$$$
MS2176
     RDKit          2D

 40 44  0  0  0  0  0  0  0  0999 V2000
   -5.1496   -4.0713    0.0000 C   0  0  0  0  0  0  0  0  0  0  0  0
   -4.7708   -2.6199    0.0000 C   0  0  0  0  0  0  0  0  0  0  0  0
   -5.8384   -1.5662    0.0000 C   0  0  0  0  0  0  0  0  0  0  0  0
   -7.2847   -1.9639    0.0000 C   0  0  0  0  0  0  0  0  0  0  0  0
   -8.3523   -0.9101    0.0000 C   0  0  0  0  0  0  0  0  0  0  0  0
   -7.9735    0.5413    0.0000 O   0  0  0  0  0  0  0  0  0  0  0  0
   -9.7986   -1.3078    0.0000 O   0  0  0  0  0  0  0  0  0  0  0  0
   -3.3245   -2.2222    0.0000 C   0  0  0  0  0  0  0  0  0  0  0  0
   -2.1527   -3.1586    0.0000 C   0  0  0  0  0  0  0  0  0  0  0  0
   -0.9000   -2.3334    0.0000 C   0  0  0  0  0  0  0  0  0  0  0  0
   -1.2977   -0.8871    0.0000 C   0  0  0  0  0  0  0  0  0  0  0  0
   -0.4889    0.3762    0.0000 C   0  0  0  0  0  0  0  0  0  0  0  0
    1.0095    0.3075    0.0000 C   0  0  0  0  0  0  0  0  0  0  0  0
    1.6992   -1.0246    0.0000 O   0  0  0  0  0  0  0  0  0  0  0  0
    3.1976   -1.0933    0.0000 C   0  0  0  0  0  0  0  0  0  0  0  0
    3.8873   -2.4253    0.0000 O   0  0  0  0  0  0  0  0  0  0  0  0
    5.3857   -2.4941    0.0000 C   0  0  0  0  0  0  0  0  0  0  0  0
    6.0754   -3.8261    0.0000 C   0  0  0  0  0  0  0  0  0  0  0  0
    7.5738   -3.8948    0.0000 O   0  0  0  0  0  0  0  0  0  0  0  0
    5.2667   -5.0894    0.0000 O   0  0  0  0  0  0  0  0  0  0  0  0
    6.1944   -1.2308    0.0000 C   0  0  0  0  0  0  0  0  0  0  0  0
    7.6929   -1.2995    0.0000 O   0  0  0  0  0  0  0  0  0  0  0  0
    5.5048    0.1013    0.0000 C   0  0  0  0  0  0  0  0  0  0  0  0
    6.3135    1.3646    0.0000 O   0  0  0  0  0  0  0  0  0  0  0  0
    4.0063    0.1700    0.0000 C   0  0  0  0  0  0  0  0  0  0  0  0
    3.3166    1.5021    0.0000 O   0  0  0  0  0  0  0  0  0  0  0  0
    1.8182    1.5708    0.0000 C   0  0  0  0  0  0  0  0  0  0  0  0
    1.1285    2.9028    0.0000 C   0  0  0  0  0  0  0  0  0  0  0  0
    1.9373    4.1661    0.0000 C   0  0  0  0  0  0  0  0  0  0  0  0
    1.2476    5.4982    0.0000 C   0  0  0  0  0  0  0  0  0  0  0  0
    2.0563    6.7615    0.0000 O   0  0  0  0  0  0  0  0  0  0  0  0
   -0.2509    5.5669    0.0000 C   0  0  0  0  0  0  0  0  0  0  0  0
   -1.0596    4.3036    0.0000 C   0  0  0  0  0  0  0  0  0  0  0  0
   -0.3699    2.9715    0.0000 C   0  0  0  0  0  0  0  0  0  0  0  0
   -1.8683    3.0403    0.0000 C   0  0  0  0  0  0  0  0  0  0  0  0
   -1.1786    1.7082    0.0000 C   0  0  0  0  0  0  0  0  0  0  0  0
   -2.6771    1.7770    0.0000 C   0  0  0  0  0  0  0  0  0  0  0  0
   -3.4858    0.5137    0.0000 C   0  0  0  0  0  0  0  0  0  0  0  0
   -2.7961   -0.8184    0.0000 C   0  0  0  0  0  0  0  0  0  0  0  0
   -4.2935   -0.9067    0.0000 C   0  0  0  0  0  0  0  0  0  0  0  0
  2  1  1  6
  2  3  1  0
  3  4  1  0
  4  5  1  0
  5  6  2  0
  5  7  1  0
  2  8  1  0
  8  9  1  6
  9 10  1  0
 11 10  1  6
 11 12  1  0
 12 13  1  1
 13 14  1  6
 15 14  1  1
 15 16  1  0
 16 17  1  0
 17 18  1  1
 18 19  2  0
 18 20  1  0
 17 21  1  0
 21 22  1  6
 21 23  1  0
 23 24  1  1
 23 25  1  0
 25 26  1  6
 13 27  1  0
 28 27  1  1
 28 29  1  0
 29 30  1  0
 30 31  1  1
 30 32  1  0
 32 33  1  0
 33 34  1  0
 34 35  1  6
 34 36  1  0
 36 37  1  6
 37 38  1  0
 38 39  1  0
 39 40  1  6
 39  8  1  0
 39 11  1  0
 36 12  1  0
 25 15  1  0
 34 28  1  0
M  END
>  <MS_ID>  (2100) 
MS2176

>  <SMILES>  (2100) 
C[C@H](CCC(=O)O)[C@H]1CC[C@H]2[C@@H]3[C@@H](O[C@@H]4O[C@H](C(=O)O)[C@@H](O)[C@H](O)[C@H]4O)C[C@@H]4C[C@H](O)CC[C@]4(C)[C@H]3CC[C@]12C

>  <Structure_dimension>  (2100) 
2D

$$$$
MS2177
     RDKit          2D

 29 32  0  0  0  0  0  0  0  0999 V2000
   -5.5408   -1.7958    0.0000 C   0  0  0  0  0  0  0  0  0  0  0  0
   -4.3068   -0.9430    0.0000 C   0  0  0  0  0  0  0  0  0  0  0  0
   -4.4283    0.5520    0.0000 C   0  0  0  0  0  0  0  0  0  0  0  0
   -5.7838    1.1944    0.0000 C   0  0  0  0  0  0  0  0  0  0  0  0
   -5.9053    2.6895    0.0000 C   0  0  0  0  0  0  0  0  0  0  0  0
   -4.6712    3.5422    0.0000 O   0  0  0  0  0  0  0  0  0  0  0  0
   -7.2608    3.3318    0.0000 O   0  0  0  0  0  0  0  0  0  0  0  0
   -2.9513   -1.5854    0.0000 C   0  0  0  0  0  0  0  0  0  0  0  0
   -2.6742   -3.0596    0.0000 C   0  0  0  0  0  0  0  0  0  0  0  0
   -1.1865   -3.2516    0.0000 C   0  0  0  0  0  0  0  0  0  0  0  0
   -0.5442   -1.8961    0.0000 C   0  0  0  0  0  0  0  0  0  0  0  0
    0.8929   -1.4664    0.0000 C   0  0  0  0  0  0  0  0  0  0  0  0
    1.9836   -2.4962    0.0000 C   0  0  0  0  0  0  0  0  0  0  0  0
    1.6371   -3.9556    0.0000 O   0  0  0  0  0  0  0  0  0  0  0  0
    3.4208   -2.0665    0.0000 C   0  0  0  0  0  0  0  0  0  0  0  0
    3.7672   -0.6071    0.0000 C   0  0  0  0  0  0  0  0  0  0  0  0
    5.2044   -0.1774    0.0000 C   0  0  0  0  0  0  0  0  0  0  0  0
    5.5508    1.2820    0.0000 C   0  0  0  0  0  0  0  0  0  0  0  0
    6.9880    1.7117    0.0000 C   0  0  0  0  0  0  0  0  0  0  0  0
    8.4251    2.1414    0.0000 N   0  0  0  0  0  0  0  0  0  0  0  0
    4.4602    2.3118    0.0000 C   0  0  0  0  0  0  0  0  0  0  0  0
    3.0230    1.8821    0.0000 C   0  0  0  0  0  0  0  0  0  0  0  0
    2.6766    0.4227    0.0000 C   0  0  0  0  0  0  0  0  0  0  0  0
    1.5859    1.4525    0.0000 C   0  0  0  0  0  0  0  0  0  0  0  0
    1.2394   -0.0070    0.0000 C   0  0  0  0  0  0  0  0  0  0  0  0
    0.1487    1.0228    0.0000 C   0  0  0  0  0  0  0  0  0  0  0  0
   -1.2884    0.5931    0.0000 C   0  0  0  0  0  0  0  0  0  0  0  0
   -1.6349   -0.8663    0.0000 C   0  0  0  0  0  0  0  0  0  0  0  0
   -2.8272    0.0438    0.0000 C   0  0  0  0  0  0  0  0  0  0  0  0
  2  1  1  6
  2  3  1  0
  3  4  1  0
  4  5  1  0
  5  6  2  0
  5  7  1  0
  2  8  1  0
  8  9  1  6
  9 10  1  0
 11 10  1  6
 11 12  1  0
 12 13  1  1
 13 14  1  6
 13 15  1  0
 16 15  1  1
 16 17  1  0
 17 18  1  0
 18 19  1  1
 19 20  3  0
 18 21  1  0
 21 22  1  0
 22 23  1  0
 23 24  1  6
 23 25  1  0
 25 26  1  6
 26 27  1  0
 27 28  1  0
 28 29  1  6
 28  8  1  0
 28 11  1  0
 25 12  1  0
 23 16  1  0
M  END
>  <MS_ID>  (2101) 
MS2177

>  <SMILES>  (2101) 
C[C@H](CCC(=O)O)[C@H]1CC[C@H]2[C@@H]3[C@@H](O)C[C@@H]4C[C@H](C#N)CC[C@]4(C)[C@H]3CC[C@]12C

>  <Structure_dimension>  (2101) 
2D

$$$$
MS2178
     RDKit          2D

 29 32  0  0  0  0  0  0  0  0999 V2000
   -7.1069    2.8565    0.0000 C   0  0  0  0  0  0  0  0  0  0  0  0
   -5.7095    2.3112    0.0000 C   0  0  0  0  0  0  0  0  0  0  0  0
   -4.5386    3.2487    0.0000 O   0  0  0  0  0  0  0  0  0  0  0  0
   -5.4831    0.8284    0.0000 C   0  0  0  0  0  0  0  0  0  0  0  0
   -4.0858    0.2830    0.0000 C   0  0  0  0  0  0  0  0  0  0  0  0
   -3.8594   -1.1998    0.0000 C   0  0  0  0  0  0  0  0  0  0  0  0
   -5.0303   -2.1373    0.0000 C   0  0  0  0  0  0  0  0  0  0  0  0
   -2.4620   -1.7451    0.0000 C   0  0  0  0  0  0  0  0  0  0  0  0
   -2.0818   -3.1961    0.0000 C   0  0  0  0  0  0  0  0  0  0  0  0
   -0.5844   -3.2830    0.0000 C   0  0  0  0  0  0  0  0  0  0  0  0
   -0.0390   -1.8856    0.0000 C   0  0  0  0  0  0  0  0  0  0  0  0
    1.3643   -1.3559    0.0000 C   0  0  0  0  0  0  0  0  0  0  0  0
    2.5248   -2.3063    0.0000 C   0  0  0  0  0  0  0  0  0  0  0  0
    2.2819   -3.7865    0.0000 O   0  0  0  0  0  0  0  0  0  0  0  0
    3.9281   -1.7765    0.0000 C   0  0  0  0  0  0  0  0  0  0  0  0
    4.1710   -0.2963    0.0000 C   0  0  0  0  0  0  0  0  0  0  0  0
    5.5743    0.2334    0.0000 C   0  0  0  0  0  0  0  0  0  0  0  0
    5.8172    1.7136    0.0000 C   0  0  0  0  0  0  0  0  0  0  0  0
    7.2205    2.2434    0.0000 O   0  0  0  0  0  0  0  0  0  0  0  0
    4.6568    2.6641    0.0000 C   0  0  0  0  0  0  0  0  0  0  0  0
    3.2534    2.1343    0.0000 C   0  0  0  0  0  0  0  0  0  0  0  0
    3.0105    0.6541    0.0000 C   0  0  0  0  0  0  0  0  0  0  0  0
    1.8501    1.6046    0.0000 C   0  0  0  0  0  0  0  0  0  0  0  0
    1.6072    0.1244    0.0000 C   0  0  0  0  0  0  0  0  0  0  0  0
    0.4467    1.0748    0.0000 C   0  0  0  0  0  0  0  0  0  0  0  0
   -0.9566    0.5450    0.0000 C   0  0  0  0  0  0  0  0  0  0  0  0
   -2.1170    1.4955    0.0000 O   0  0  0  0  0  0  0  0  0  0  0  0
   -1.1995   -0.9352    0.0000 C   0  0  0  0  0  0  0  0  0  0  0  0
   -2.4529   -0.1112    0.0000 C   0  0  0  0  0  0  0  0  0  0  0  0
  1  2  1  0
  2  3  2  0
  2  4  1  0
  4  5  1  0
  5  6  1  0
  6  7  1  6
  6  8  1  0
  8  9  1  6
  9 10  1  0
 11 10  1  6
 11 12  1  0
 12 13  1  1
 13 14  1  1
 13 15  1  0
 16 15  1  1
 16 17  1  0
 17 18  1  0
 18 19  2  0
 18 20  1  0
 20 21  1  0
 21 22  1  0
 22 23  1  6
 22 24  1  0
 24 25  1  6
 25 26  1  0
 26 27  1  1
 26 28  1  0
 28 29  1  6
 28  8  1  0
 28 11  1  0
 24 12  1  0
 22 16  1  0
M  END
>  <MS_ID>  (2102) 
MS2178

>  <SMILES>  (2102) 
CC(=O)CC[C@@H](C)[C@H]1CC[C@H]2[C@@H]3[C@H](O)C[C@@H]4CC(=O)CC[C@]4(C)[C@H]3C[C@H](O)[C@]12C

>  <Structure_dimension>  (2102) 
2D

$$$$
MS2179
     RDKit          2D

 27 30  0  0  0  0  0  0  0  0999 V2000
   -5.3897   -1.6258    0.0000 C   0  0  0  0  0  0  0  0  0  0  0  0
   -4.1621   -0.7638    0.0000 C   0  0  0  0  0  0  0  0  0  0  0  0
   -4.2949    0.7303    0.0000 C   0  0  0  0  0  0  0  0  0  0  0  0
   -5.6552    1.3624    0.0000 C   0  0  0  0  0  0  0  0  0  0  0  0
   -5.7879    2.8565    0.0000 C   0  0  0  0  0  0  0  0  0  0  0  0
   -7.1482    3.4887    0.0000 O   0  0  0  0  0  0  0  0  0  0  0  0
   -2.8018   -1.3960    0.0000 C   0  0  0  0  0  0  0  0  0  0  0  0
   -2.5137   -2.8680    0.0000 C   0  0  0  0  0  0  0  0  0  0  0  0
   -1.0246   -3.0489    0.0000 C   0  0  0  0  0  0  0  0  0  0  0  0
   -0.3925   -1.6886    0.0000 C   0  0  0  0  0  0  0  0  0  0  0  0
    1.0414   -1.2481    0.0000 C   0  0  0  0  0  0  0  0  0  0  0  0
    2.1398   -2.2697    0.0000 C   0  0  0  0  0  0  0  0  0  0  0  0
    1.8043   -3.7317    0.0000 O   0  0  0  0  0  0  0  0  0  0  0  0
    3.5736   -1.8292    0.0000 C   0  0  0  0  0  0  0  0  0  0  0  0
    3.9091   -0.3672    0.0000 C   0  0  0  0  0  0  0  0  0  0  0  0
    5.3430    0.0733    0.0000 C   0  0  0  0  0  0  0  0  0  0  0  0
    5.6785    1.5353    0.0000 C   0  0  0  0  0  0  0  0  0  0  0  0
    7.1124    1.9757    0.0000 O   0  0  0  0  0  0  0  0  0  0  0  0
    4.5801    2.5568    0.0000 C   0  0  0  0  0  0  0  0  0  0  0  0
    3.1462    2.1163    0.0000 C   0  0  0  0  0  0  0  0  0  0  0  0
    2.8107    0.6543    0.0000 C   0  0  0  0  0  0  0  0  0  0  0  0
    1.7124    1.6759    0.0000 C   0  0  0  0  0  0  0  0  0  0  0  0
    1.3769    0.2139    0.0000 C   0  0  0  0  0  0  0  0  0  0  0  0
    0.2785    1.2354    0.0000 C   0  0  0  0  0  0  0  0  0  0  0  0
   -1.1554    0.7950    0.0000 C   0  0  0  0  0  0  0  0  0  0  0  0
   -1.4909   -0.6670    0.0000 C   0  0  0  0  0  0  0  0  0  0  0  0
   -2.6900    0.2341    0.0000 C   0  0  0  0  0  0  0  0  0  0  0  0
  2  1  1  6
  2  3  1  0
  3  4  1  0
  4  5  1  0
  5  6  2  0
  2  7  1  0
  7  8  1  6
  8  9  1  0
 10  9  1  6
 10 11  1  0
 11 12  1  1
 12 13  1  6
 12 14  1  0
 15 14  1  1
 15 16  1  0
 16 17  1  0
 17 18  1  6
 17 19  1  0
 19 20  1  0
 20 21  1  0
 21 22  1  6
 21 23  1  0
 23 24  1  6
 24 25  1  0
 25 26  1  0
 26 27  1  6
 26  7  1  0
 26 10  1  0
 23 11  1  0
 21 15  1  0
M  END
>  <MS_ID>  (2103) 
MS2179

>  <SMILES>  (2103) 
C[C@H](CCC=O)[C@H]1CC[C@H]2[C@@H]3[C@@H](O)C[C@@H]4C[C@@H](O)CC[C@]4(C)[C@H]3CC[C@]12C

>  <Structure_dimension>  (2103) 
2D

$$$$
MS2181
     RDKit          2D

 29 32  0  0  0  0  0  0  0  0999 V2000
   -5.0303   -2.1373    0.0000 C   0  0  0  0  0  0  0  0  0  0  0  0
   -3.8594   -1.1998    0.0000 C   0  0  0  0  0  0  0  0  0  0  0  0
   -4.0858    0.2830    0.0000 C   0  0  0  0  0  0  0  0  0  0  0  0
   -5.4831    0.8284    0.0000 C   0  0  0  0  0  0  0  0  0  0  0  0
   -5.7095    2.3112    0.0000 C   0  0  0  0  0  0  0  0  0  0  0  0
   -4.5386    3.2487    0.0000 O   0  0  0  0  0  0  0  0  0  0  0  0
   -7.1069    2.8565    0.0000 O   0  0  0  0  0  0  0  0  0  0  0  0
   -2.4620   -1.7451    0.0000 C   0  0  0  0  0  0  0  0  0  0  0  0
   -2.0818   -3.1961    0.0000 C   0  0  0  0  0  0  0  0  0  0  0  0
   -0.5844   -3.2830    0.0000 C   0  0  0  0  0  0  0  0  0  0  0  0
   -0.0390   -1.8856    0.0000 C   0  0  0  0  0  0  0  0  0  0  0  0
    1.3643   -1.3559    0.0000 C   0  0  0  0  0  0  0  0  0  0  0  0
    2.5248   -2.3063    0.0000 C   0  0  0  0  0  0  0  0  0  0  0  0
    2.2819   -3.7865    0.0000 O   0  0  0  0  0  0  0  0  0  0  0  0
    3.9281   -1.7765    0.0000 C   0  0  0  0  0  0  0  0  0  0  0  0
    4.1710   -0.2963    0.0000 C   0  0  0  0  0  0  0  0  0  0  0  0
    5.5743    0.2334    0.0000 C   0  0  0  0  0  0  0  0  0  0  0  0
    5.8172    1.7136    0.0000 C   0  0  0  0  0  0  0  0  0  0  0  0
    7.2205    2.2434    0.0000 O   0  0  0  0  0  0  0  0  0  0  0  0
    4.6568    2.6641    0.0000 C   0  0  0  0  0  0  0  0  0  0  0  0
    3.2534    2.1343    0.0000 C   0  0  0  0  0  0  0  0  0  0  0  0
    3.0105    0.6541    0.0000 C   0  0  0  0  0  0  0  0  0  0  0  0
    1.8501    1.6046    0.0000 C   0  0  0  0  0  0  0  0  0  0  0  0
    1.6072    0.1244    0.0000 C   0  0  0  0  0  0  0  0  0  0  0  0
    0.4467    1.0748    0.0000 C   0  0  0  0  0  0  0  0  0  0  0  0
   -0.9566    0.5450    0.0000 C   0  0  0  0  0  0  0  0  0  0  0  0
   -2.1170    1.4955    0.0000 C   0  0  0  0  0  0  0  0  0  0  0  0
   -1.1995   -0.9352    0.0000 C   0  0  0  0  0  0  0  0  0  0  0  0
   -2.4529   -0.1112    0.0000 C   0  0  0  0  0  0  0  0  0  0  0  0
  2  1  1  6
  2  3  1  0
  3  4  1  0
  4  5  1  0
  5  6  2  0
  5  7  1  0
  2  8  1  0
  8  9  1  6
  9 10  1  0
 11 10  1  6
 11 12  1  0
 12 13  1  1
 13 14  2  0
 13 15  1  0
 16 15  1  1
 16 17  1  0
 17 18  1  0
 18 19  1  1
 18 20  1  0
 20 21  1  0
 21 22  1  0
 22 23  1  6
 22 24  1  0
 24 25  1  6
 25 26  1  0
 26 27  1  1
 26 28  1  0
 28 29  1  6
 28  8  1  0
 28 11  1  0
 24 12  1  0
 22 16  1  0
M  END
>  <MS_ID>  (2104) 
MS2181

>  <SMILES>  (2104) 
C[C@H](CCC(=O)O)[C@H]1CC[C@H]2[C@@H]3C(=O)C[C@@H]4C[C@H](O)CC[C@]4(C)[C@H]3C[C@H](C)[C@]12C

>  <Structure_dimension>  (2104) 
2D

$$$$
MS2182
     RDKit          2D

 29 32  0  0  0  0  0  0  0  0999 V2000
   -7.4050    3.1690    0.0000 C   0  0  0  0  0  0  0  0  0  0  0  0
   -6.9539    1.7384    0.0000 C   0  0  0  0  0  0  0  0  0  0  0  0
   -5.4894    1.4138    0.0000 C   0  0  0  0  0  0  0  0  0  0  0  0
   -4.4761    2.5198    0.0000 O   0  0  0  0  0  0  0  0  0  0  0  0
   -5.0383   -0.0167    0.0000 C   0  0  0  0  0  0  0  0  0  0  0  0
   -3.5738   -0.3413    0.0000 C   0  0  0  0  0  0  0  0  0  0  0  0
   -3.1227   -1.7719    0.0000 C   0  0  0  0  0  0  0  0  0  0  0  0
   -4.1361   -2.8778    0.0000 C   0  0  0  0  0  0  0  0  0  0  0  0
   -1.6583   -2.0965    0.0000 C   0  0  0  0  0  0  0  0  0  0  0  0
   -1.0601   -3.4720    0.0000 C   0  0  0  0  0  0  0  0  0  0  0  0
    0.4330   -3.3282    0.0000 C   0  0  0  0  0  0  0  0  0  0  0  0
    0.7576   -1.8638    0.0000 C   0  0  0  0  0  0  0  0  0  0  0  0
    2.0631   -1.1251    0.0000 C   0  0  0  0  0  0  0  0  0  0  0  0
    3.3556   -1.8863    0.0000 C   0  0  0  0  0  0  0  0  0  0  0  0
    3.3426   -3.3863    0.0000 O   0  0  0  0  0  0  0  0  0  0  0  0
    4.6611   -1.1476    0.0000 C   0  0  0  0  0  0  0  0  0  0  0  0
    4.6741    0.3523    0.0000 C   0  0  0  0  0  0  0  0  0  0  0  0
    5.9796    1.0910    0.0000 C   0  0  0  0  0  0  0  0  0  0  0  0
    5.9926    2.5910    0.0000 C   0  0  0  0  0  0  0  0  0  0  0  0
    4.7002    3.3522    0.0000 C   0  0  0  0  0  0  0  0  0  0  0  0
    3.3947    2.6135    0.0000 C   0  0  0  0  0  0  0  0  0  0  0  0
    3.3816    1.1136    0.0000 C   0  0  0  0  0  0  0  0  0  0  0  0
    2.0891    1.8748    0.0000 C   0  0  0  0  0  0  0  0  0  0  0  0
    2.0761    0.3749    0.0000 C   0  0  0  0  0  0  0  0  0  0  0  0
    0.7836    1.1361    0.0000 C   0  0  0  0  0  0  0  0  0  0  0  0
   -0.5219    0.3974    0.0000 C   0  0  0  0  0  0  0  0  0  0  0  0
   -1.8143    1.1587    0.0000 O   0  0  0  0  0  0  0  0  0  0  0  0
   -0.5349   -1.1025    0.0000 C   0  0  0  0  0  0  0  0  0  0  0  0
   -1.8998   -0.4805    0.0000 C   0  0  0  0  0  0  0  0  0  0  0  0
  1  2  1  0
  2  3  1  0
  3  4  2  0
  3  5  1  0
  5  6  1  0
  6  7  1  0
  7  8  1  6
  7  9  1  0
  9 10  1  6
 10 11  1  0
 12 11  1  6
 12 13  1  0
 13 14  1  1
 14 15  1  1
 14 16  1  0
 17 16  1  1
 17 18  1  0
 18 19  1  0
 19 20  1  0
 20 21  1  0
 21 22  1  0
 22 23  1  6
 22 24  1  0
 24 25  1  6
 25 26  1  0
 26 27  1  1
 26 28  1  0
 28 29  1  6
 28  9  1  0
 28 12  1  0
 24 13  1  0
 22 17  1  0
M  END
>  <MS_ID>  (2105) 
MS2182

>  <SMILES>  (2105) 
CCC(=O)CC[C@@H](C)[C@H]1CC[C@H]2[C@@H]3[C@H](O)C[C@@H]4CCCC[C@]4(C)[C@H]3C[C@H](O)[C@]12C

>  <Structure_dimension>  (2105) 
2D

$$$$
MS2183
     RDKit          2D

 39 43  0  0  0  0  0  0  0  0999 V2000
   -7.7534   -2.1938    0.0000 C   0  0  0  0  0  0  0  0  0  0  0  0
   -6.5793   -1.2603    0.0000 C   0  0  0  0  0  0  0  0  0  0  0  0
   -6.8008    0.2233    0.0000 C   0  0  0  0  0  0  0  0  0  0  0  0
   -8.1963    0.7733    0.0000 C   0  0  0  0  0  0  0  0  0  0  0  0
   -8.4177    2.2569    0.0000 C   0  0  0  0  0  0  0  0  0  0  0  0
   -7.2436    3.1904    0.0000 O   0  0  0  0  0  0  0  0  0  0  0  0
   -9.8132    2.8069    0.0000 O   0  0  0  0  0  0  0  0  0  0  0  0
   -5.1838   -1.8103    0.0000 C   0  0  0  0  0  0  0  0  0  0  0  0
   -4.8085   -3.2626    0.0000 C   0  0  0  0  0  0  0  0  0  0  0  0
   -3.3114   -3.3545    0.0000 C   0  0  0  0  0  0  0  0  0  0  0  0
   -2.7613   -1.9590    0.0000 C   0  0  0  0  0  0  0  0  0  0  0  0
   -1.3562   -1.4339    0.0000 C   0  0  0  0  0  0  0  0  0  0  0  0
   -0.1990   -2.3883    0.0000 C   0  0  0  0  0  0  0  0  0  0  0  0
    1.2061   -1.8632    0.0000 C   0  0  0  0  0  0  0  0  0  0  0  0
    1.4540   -0.3839    0.0000 C   0  0  0  0  0  0  0  0  0  0  0  0
    2.8591    0.1412    0.0000 C   0  0  0  0  0  0  0  0  0  0  0  0
    3.1070    1.6206    0.0000 C   0  0  0  0  0  0  0  0  0  0  0  0
    4.5121    2.1456    0.0000 O   0  0  0  0  0  0  0  0  0  0  0  0
    5.6693    1.1912    0.0000 C   0  0  0  0  0  0  0  0  0  0  0  0
    5.4215   -0.2881    0.0000 O   0  0  0  0  0  0  0  0  0  0  0  0
    6.5787   -1.2425    0.0000 C   0  0  0  0  0  0  0  0  0  0  0  0
    6.3309   -2.7219    0.0000 C   0  0  0  0  0  0  0  0  0  0  0  0
    4.9257   -3.2469    0.0000 O   0  0  0  0  0  0  0  0  0  0  0  0
    7.9838   -0.7174    0.0000 C   0  0  0  0  0  0  0  0  0  0  0  0
    9.1411   -1.6718    0.0000 O   0  0  0  0  0  0  0  0  0  0  0  0
    8.2317    0.7619    0.0000 C   0  0  0  0  0  0  0  0  0  0  0  0
    9.6368    1.2870    0.0000 O   0  0  0  0  0  0  0  0  0  0  0  0
    7.0744    1.7163    0.0000 C   0  0  0  0  0  0  0  0  0  0  0  0
    7.3223    3.1957    0.0000 O   0  0  0  0  0  0  0  0  0  0  0  0
    1.9497    2.5749    0.0000 C   0  0  0  0  0  0  0  0  0  0  0  0
    0.5446    2.0499    0.0000 C   0  0  0  0  0  0  0  0  0  0  0  0
    0.2967    0.5705    0.0000 C   0  0  0  0  0  0  0  0  0  0  0  0
   -0.8605    1.5248    0.0000 C   0  0  0  0  0  0  0  0  0  0  0  0
   -1.1084    0.0455    0.0000 C   0  0  0  0  0  0  0  0  0  0  0  0
   -2.2656    0.9998    0.0000 C   0  0  0  0  0  0  0  0  0  0  0  0
   -3.6707    0.4748    0.0000 C   0  0  0  0  0  0  0  0  0  0  0  0
   -4.8280    1.4291    0.0000 O   0  0  0  0  0  0  0  0  0  0  0  0
   -3.9186   -1.0046    0.0000 C   0  0  0  0  0  0  0  0  0  0  0  0
   -5.1693   -0.1765    0.0000 C   0  0  0  0  0  0  0  0  0  0  0  0
  2  1  1  6
  2  3  1  0
  3  4  1  0
  4  5  1  0
  5  6  2  0
  5  7  1  0
  2  8  1  0
  8  9  1  6
  9 10  1  0
 11 10  1  6
 11 12  1  0
 12 13  1  1
 13 14  1  0
 15 14  1  1
 15 16  1  0
 16 17  1  0
 17 18  1  1
 19 18  1  1
 19 20  1  0
 20 21  1  0
 21 22  1  1
 22 23  1  0
 21 24  1  0
 24 25  1  1
 24 26  1  0
 26 27  1  1
 26 28  1  0
 28 29  1  6
 17 30  1  0
 30 31  1  0
 31 32  1  0
 32 33  1  6
 32 34  1  0
 34 35  1  6
 35 36  1  0
 36 37  1  6
 36 38  1  0
 38 39  1  6
 38  8  1  0
 38 11  1  0
 34 12  1  0
 32 15  1  0
 28 19  1  0
M  END
>  <MS_ID>  (2106) 
MS2183

>  <SMILES>  (2106) 
C[C@H](CCC(=O)O)[C@H]1CC[C@H]2[C@@H]3CC[C@@H]4C[C@H](O[C@@H]5O[C@H](CO)[C@H](O)[C@H](O)[C@H]5O)CC[C@]4(C)[C@H]3C[C@@H](O)[C@]12C

>  <Structure_dimension>  (2106) 
2D

$$$$
MS2184
     RDKit          2D

 38 42  0  0  0  0  0  0  0  0999 V2000
   -7.4048   -2.1445    0.0000 C   0  0  0  0  0  0  0  0  0  0  0  0
   -6.2371   -1.2029    0.0000 C   0  0  0  0  0  0  0  0  0  0  0  0
   -6.4688    0.2791    0.0000 C   0  0  0  0  0  0  0  0  0  0  0  0
   -7.8680    0.8195    0.0000 C   0  0  0  0  0  0  0  0  0  0  0  0
   -8.0997    2.3015    0.0000 C   0  0  0  0  0  0  0  0  0  0  0  0
   -6.9321    3.2431    0.0000 O   0  0  0  0  0  0  0  0  0  0  0  0
   -9.4990    2.8419    0.0000 O   0  0  0  0  0  0  0  0  0  0  0  0
   -4.8379   -1.7433    0.0000 C   0  0  0  0  0  0  0  0  0  0  0  0
   -4.4526   -3.1930    0.0000 C   0  0  0  0  0  0  0  0  0  0  0  0
   -2.9548   -3.2745    0.0000 C   0  0  0  0  0  0  0  0  0  0  0  0
   -2.4144   -1.8752    0.0000 C   0  0  0  0  0  0  0  0  0  0  0  0
   -1.0129   -1.3405    0.0000 C   0  0  0  0  0  0  0  0  0  0  0  0
    0.1509   -2.2869    0.0000 C   0  0  0  0  0  0  0  0  0  0  0  0
   -0.0868   -3.7679    0.0000 O   0  0  0  0  0  0  0  0  0  0  0  0
    1.5523   -1.7521    0.0000 C   0  0  0  0  0  0  0  0  0  0  0  0
    1.7900   -0.2711    0.0000 C   0  0  0  0  0  0  0  0  0  0  0  0
    3.1914    0.2636    0.0000 C   0  0  0  0  0  0  0  0  0  0  0  0
    3.4291    1.7447    0.0000 C   0  0  0  0  0  0  0  0  0  0  0  0
    4.8306    2.2794    0.0000 O   0  0  0  0  0  0  0  0  0  0  0  0
    5.9944    1.3330    0.0000 C   0  0  0  0  0  0  0  0  0  0  0  0
    5.7567   -0.1480    0.0000 C   0  0  0  0  0  0  0  0  0  0  0  0
    6.9205   -1.0944    0.0000 C   0  0  0  0  0  0  0  0  0  0  0  0
    6.6828   -2.5754    0.0000 O   0  0  0  0  0  0  0  0  0  0  0  0
    8.3220   -0.5597    0.0000 C   0  0  0  0  0  0  0  0  0  0  0  0
    9.4858   -1.5060    0.0000 O   0  0  0  0  0  0  0  0  0  0  0  0
    8.5596    0.9214    0.0000 C   0  0  0  0  0  0  0  0  0  0  0  0
    9.9611    1.4561    0.0000 C   0  0  0  0  0  0  0  0  0  0  0  0
    7.3958    1.8677    0.0000 O   0  0  0  0  0  0  0  0  0  0  0  0
    2.2653    2.6910    0.0000 C   0  0  0  0  0  0  0  0  0  0  0  0
    0.8638    2.1563    0.0000 C   0  0  0  0  0  0  0  0  0  0  0  0
    0.6262    0.6753    0.0000 C   0  0  0  0  0  0  0  0  0  0  0  0
   -0.5376    1.6216    0.0000 C   0  0  0  0  0  0  0  0  0  0  0  0
   -0.7753    0.1405    0.0000 C   0  0  0  0  0  0  0  0  0  0  0  0
   -1.9391    1.0869    0.0000 C   0  0  0  0  0  0  0  0  0  0  0  0
   -3.3405    0.5522    0.0000 C   0  0  0  0  0  0  0  0  0  0  0  0
   -4.5043    1.4985    0.0000 O   0  0  0  0  0  0  0  0  0  0  0  0
   -3.5782   -0.9289    0.0000 C   0  0  0  0  0  0  0  0  0  0  0  0
   -4.8345   -0.1094    0.0000 C   0  0  0  0  0  0  0  0  0  0  0  0
  2  1  1  6
  2  3  1  0
  3  4  1  0
  4  5  1  0
  5  6  2  0
  5  7  1  0
  2  8  1  0
  8  9  1  6
  9 10  1  0
 11 10  1  6
 11 12  1  0
 12 13  1  1
 13 14  1  1
 13 15  1  0
 16 15  1  1
 16 17  1  0
 17 18  1  0
 18 19  1  1
 20 19  1  6
 20 21  1  0
 21 22  1  0
 22 23  1  6
 22 24  1  0
 24 25  1  1
 24 26  1  0
 26 27  1  6
 26 28  1  0
 18 29  1  0
 29 30  1  0
 30 31  1  0
 31 32  1  6
 31 33  1  0
 33 34  1  6
 34 35  1  0
 35 36  1  1
 35 37  1  0
 37 38  1  6
 37  8  1  0
 37 11  1  0
 33 12  1  0
 31 16  1  0
 28 20  1  0
M  END
>  <MS_ID>  (2107) 
MS2184

>  <SMILES>  (2107) 
C[C@H](CCC(=O)O)[C@H]1CC[C@H]2[C@@H]3[C@H](O)C[C@@H]4C[C@H](O[C@H]5C[C@@H](O)[C@H](O)[C@@H](C)O5)CC[C@]4(C)[C@H]3C[C@H](O)[C@]12C

>  <Structure_dimension>  (2107) 
2D

$$$$
MS2185
     RDKit          2D

 35 38  0  0  0  0  0  0  0  0999 V2000
   -1.6679   -4.3975    0.0000 C   0  0  0  0  0  0  0  0  0  0  0  0
   -1.0049   -3.0520    0.0000 C   0  0  0  0  0  0  0  0  0  0  0  0
   -1.8386   -1.8051    0.0000 C   0  0  0  0  0  0  0  0  0  0  0  0
   -3.3354   -1.9036    0.0000 C   0  0  0  0  0  0  0  0  0  0  0  0
   -4.1691   -0.6567    0.0000 C   0  0  0  0  0  0  0  0  0  0  0  0
   -3.5061    0.6889    0.0000 O   0  0  0  0  0  0  0  0  0  0  0  0
   -5.6659   -0.7552    0.0000 O   0  0  0  0  0  0  0  0  0  0  0  0
   -6.4996    0.4918    0.0000 C   0  0  0  0  0  0  0  0  0  0  0  0
   -7.9964    0.3932    0.0000 C   0  0  0  0  0  0  0  0  0  0  0  0
   -8.8301    1.6402    0.0000 O   0  0  0  0  0  0  0  0  0  0  0  0
  -10.3268    1.5416    0.0000 C   0  0  0  0  0  0  0  0  0  0  0  0
  -11.1606    2.7886    0.0000 C   0  0  0  0  0  0  0  0  0  0  0  0
  -12.6573    2.6900    0.0000 O   0  0  0  0  0  0  0  0  0  0  0  0
    0.4918   -2.9535    0.0000 C   0  0  0  0  0  0  0  0  0  0  0  0
    1.4513   -4.1065    0.0000 C   0  0  0  0  0  0  0  0  0  0  0  0
    2.8444   -3.5502    0.0000 C   0  0  0  0  0  0  0  0  0  0  0  0
    2.7459   -2.0535    0.0000 C   0  0  0  0  0  0  0  0  0  0  0  0
    3.7922   -0.9787    0.0000 C   0  0  0  0  0  0  0  0  0  0  0  0
    5.2462   -1.3475    0.0000 C   0  0  0  0  0  0  0  0  0  0  0  0
    5.6538   -2.7911    0.0000 O   0  0  0  0  0  0  0  0  0  0  0  0
    6.2925   -0.2727    0.0000 C   0  0  0  0  0  0  0  0  0  0  0  0
    5.8850    1.1708    0.0000 C   0  0  0  0  0  0  0  0  0  0  0  0
    6.9313    2.2456    0.0000 C   0  0  0  0  0  0  0  0  0  0  0  0
    6.5237    3.6892    0.0000 C   0  0  0  0  0  0  0  0  0  0  0  0
    7.5701    4.7639    0.0000 O   0  0  0  0  0  0  0  0  0  0  0  0
    5.0698    4.0580    0.0000 C   0  0  0  0  0  0  0  0  0  0  0  0
    4.0234    2.9832    0.0000 C   0  0  0  0  0  0  0  0  0  0  0  0
    4.4310    1.5396    0.0000 C   0  0  0  0  0  0  0  0  0  0  0  0
    2.9770    1.9084    0.0000 C   0  0  0  0  0  0  0  0  0  0  0  0
    3.3846    0.4649    0.0000 C   0  0  0  0  0  0  0  0  0  0  0  0
    1.9307    0.8337    0.0000 C   0  0  0  0  0  0  0  0  0  0  0  0
    0.8843   -0.2411    0.0000 C   0  0  0  0  0  0  0  0  0  0  0  0
   -0.5696    0.1277    0.0000 O   0  0  0  0  0  0  0  0  0  0  0  0
    1.2919   -1.6847    0.0000 C   0  0  0  0  0  0  0  0  0  0  0  0
   -0.1926   -1.4698    0.0000 C   0  0  0  0  0  0  0  0  0  0  0  0
  2  1  1  6
  2  3  1  0
  3  4  1  0
  4  5  1  0
  5  6  2  0
  5  7  1  0
  7  8  1  0
  8  9  1  0
  9 10  1  0
 10 11  1  0
 11 12  1  0
 12 13  1  0
  2 14  1  0
 14 15  1  6
 15 16  1  0
 17 16  1  6
 17 18  1  0
 18 19  1  1
 19 20  1  6
 19 21  1  0
 22 21  1  1
 22 23  1  0
 23 24  1  0
 24 25  1  1
 24 26  1  0
 26 27  1  0
 27 28  1  0
 28 29  1  6
 28 30  1  0
 30 31  1  6
 31 32  1  0
 32 33  2  0
 32 34  1  0
 34 35  1  6
 34 14  1  0
 34 17  1  0
 30 18  1  0
 28 22  1  0
M  END
>  <MS_ID>  (2108) 
MS2185

>  <SMILES>  (2108) 
C[C@H](CCC(=O)OCCOCCO)[C@H]1CC[C@H]2[C@@H]3[C@@H](O)C[C@@H]4C[C@H](O)CC[C@]4(C)[C@H]3CC(=O)[C@]12C

>  <Structure_dimension>  (2108) 
2D

$$$$
MS2186
     RDKit          2D

 31 34  0  0  0  0  0  0  0  0999 V2000
   -9.1388    1.0800    0.0000 C   0  0  0  0  0  0  0  0  0  0  0  0
   -7.6835    0.7164    0.0000 C   0  0  0  0  0  0  0  0  0  0  0  0
   -6.6411    1.7949    0.0000 C   0  0  0  0  0  0  0  0  0  0  0  0
   -7.0538    3.2370    0.0000 C   0  0  0  0  0  0  0  0  0  0  0  0
   -5.1858    1.4314    0.0000 C   0  0  0  0  0  0  0  0  0  0  0  0
   -4.1433    2.5099    0.0000 O   0  0  0  0  0  0  0  0  0  0  0  0
   -4.7730   -0.0107    0.0000 C   0  0  0  0  0  0  0  0  0  0  0  0
   -3.3177   -0.3743    0.0000 C   0  0  0  0  0  0  0  0  0  0  0  0
   -2.9049   -1.8163    0.0000 C   0  0  0  0  0  0  0  0  0  0  0  0
   -3.9474   -2.8949    0.0000 C   0  0  0  0  0  0  0  0  0  0  0  0
   -1.4496   -2.1799    0.0000 C   0  0  0  0  0  0  0  0  0  0  0  0
   -0.8884   -3.5709    0.0000 C   0  0  0  0  0  0  0  0  0  0  0  0
    0.6080   -3.4670    0.0000 C   0  0  0  0  0  0  0  0  0  0  0  0
    0.9716   -2.0117    0.0000 C   0  0  0  0  0  0  0  0  0  0  0  0
    2.2963   -1.3081    0.0000 C   0  0  0  0  0  0  0  0  0  0  0  0
    3.5680   -2.1036    0.0000 C   0  0  0  0  0  0  0  0  0  0  0  0
    3.5150   -3.6026    0.0000 O   0  0  0  0  0  0  0  0  0  0  0  0
    4.8928   -1.4000    0.0000 C   0  0  0  0  0  0  0  0  0  0  0  0
    4.9458    0.0991    0.0000 C   0  0  0  0  0  0  0  0  0  0  0  0
    6.2706    0.8027    0.0000 C   0  0  0  0  0  0  0  0  0  0  0  0
    6.3236    2.3018    0.0000 C   0  0  0  0  0  0  0  0  0  0  0  0
    7.6483    3.0054    0.0000 O   0  0  0  0  0  0  0  0  0  0  0  0
    5.0519    3.0972    0.0000 C   0  0  0  0  0  0  0  0  0  0  0  0
    3.7271    2.3936    0.0000 C   0  0  0  0  0  0  0  0  0  0  0  0
    3.6741    0.8946    0.0000 C   0  0  0  0  0  0  0  0  0  0  0  0
    2.4024    1.6900    0.0000 C   0  0  0  0  0  0  0  0  0  0  0  0
    2.3494    0.1910    0.0000 C   0  0  0  0  0  0  0  0  0  0  0  0
    1.0777    0.9864    0.0000 C   0  0  0  0  0  0  0  0  0  0  0  0
   -0.2471    0.2828    0.0000 C   0  0  0  0  0  0  0  0  0  0  0  0
   -0.3001   -1.2162    0.0000 C   0  0  0  0  0  0  0  0  0  0  0  0
   -1.6480   -0.5581    0.0000 C   0  0  0  0  0  0  0  0  0  0  0  0
  1  2  2  0
  2  3  1  0
  3  4  1  6
  3  5  1  0
  5  6  2  0
  5  7  1  0
  7  8  1  0
  8  9  1  0
  9 10  1  6
  9 11  1  0
 11 12  1  6
 12 13  1  0
 14 13  1  6
 14 15  1  0
 15 16  1  1
 16 17  1  1
 16 18  1  0
 19 18  1  1
 19 20  1  0
 20 21  1  0
 21 22  1  1
 21 23  1  0
 23 24  1  0
 24 25  1  0
 25 26  1  6
 25 27  1  0
 27 28  1  6
 28 29  1  0
 29 30  1  0
 30 31  1  6
 30 11  1  0
 30 14  1  0
 27 15  1  0
 25 19  1  0
M  END
>  <MS_ID>  (2109) 
MS2186

>  <SMILES>  (2109) 
C=C[C@H](C)C(=O)CC[C@@H](C)[C@H]1CC[C@H]2[C@@H]3[C@H](O)C[C@@H]4C[C@H](O)CC[C@]4(C)[C@H]3CC[C@]12C

>  <Structure_dimension>  (2109) 
2D

$$$$
MS2187
     RDKit          2D

 38 42  0  0  0  0  0  0  0  0999 V2000
   -0.8352   -4.4369    0.0000 C   0  0  0  0  0  0  0  0  0  0  0  0
   -0.1976   -3.0791    0.0000 C   0  0  0  0  0  0  0  0  0  0  0  0
   -1.0546   -1.8481    0.0000 C   0  0  0  0  0  0  0  0  0  0  0  0
   -2.5492   -1.9747    0.0000 C   0  0  0  0  0  0  0  0  0  0  0  0
   -3.4062   -0.7437    0.0000 C   0  0  0  0  0  0  0  0  0  0  0  0
   -2.7686    0.6141    0.0000 O   0  0  0  0  0  0  0  0  0  0  0  0
   -4.9009   -0.8703    0.0000 N   0  0  0  0  0  0  0  0  0  0  0  0
   -5.7579    0.3607    0.0000 C   0  0  0  0  0  0  0  0  0  0  0  0
   -7.2525    0.2341    0.0000 C   0  0  0  0  0  0  0  0  0  0  0  0
   -8.1096    1.4651    0.0000 C   0  0  0  0  0  0  0  0  0  0  0  0
   -9.6042    1.3385    0.0000 C   0  0  0  0  0  0  0  0  0  0  0  0
  -10.4612    2.5696    0.0000 C   0  0  0  0  0  0  0  0  0  0  0  0
  -11.9559    2.4429    0.0000 C   0  0  0  0  0  0  0  0  0  0  0  0
  -12.5935    1.0852    0.0000 C   0  0  0  0  0  0  0  0  0  0  0  0
  -11.7365   -0.1459    0.0000 C   0  0  0  0  0  0  0  0  0  0  0  0
  -10.2418   -0.0192    0.0000 C   0  0  0  0  0  0  0  0  0  0  0  0
    1.2971   -2.9525    0.0000 C   0  0  0  0  0  0  0  0  0  0  0  0
    2.2781   -4.0872    0.0000 C   0  0  0  0  0  0  0  0  0  0  0  0
    3.6604   -3.5049    0.0000 C   0  0  0  0  0  0  0  0  0  0  0  0
    3.5337   -2.0103    0.0000 C   0  0  0  0  0  0  0  0  0  0  0  0
    4.5597   -0.9160    0.0000 C   0  0  0  0  0  0  0  0  0  0  0  0
    6.0204   -1.2574    0.0000 C   0  0  0  0  0  0  0  0  0  0  0  0
    6.4550   -2.6931    0.0000 O   0  0  0  0  0  0  0  0  0  0  0  0
    7.0463   -0.1632    0.0000 C   0  0  0  0  0  0  0  0  0  0  0  0
    8.5070   -0.5046    0.0000 O   0  0  0  0  0  0  0  0  0  0  0  0
    6.6117    1.2725    0.0000 C   0  0  0  0  0  0  0  0  0  0  0  0
    7.6377    2.3667    0.0000 C   0  0  0  0  0  0  0  0  0  0  0  0
    7.2030    3.8023    0.0000 C   0  0  0  0  0  0  0  0  0  0  0  0
    8.2290    4.8966    0.0000 O   0  0  0  0  0  0  0  0  0  0  0  0
    5.7424    4.1437    0.0000 C   0  0  0  0  0  0  0  0  0  0  0  0
    4.7164    3.0495    0.0000 C   0  0  0  0  0  0  0  0  0  0  0  0
    5.1511    1.6139    0.0000 C   0  0  0  0  0  0  0  0  0  0  0  0
    3.6904    1.9553    0.0000 C   0  0  0  0  0  0  0  0  0  0  0  0
    4.1251    0.5196    0.0000 C   0  0  0  0  0  0  0  0  0  0  0  0
    2.6645    0.8610    0.0000 C   0  0  0  0  0  0  0  0  0  0  0  0
    1.6385   -0.2332    0.0000 C   0  0  0  0  0  0  0  0  0  0  0  0
    2.0731   -1.6689    0.0000 C   0  0  0  0  0  0  0  0  0  0  0  0
    0.5848   -1.4820    0.0000 C   0  0  0  0  0  0  0  0  0  0  0  0
  2  1  1  6
  2  3  1  0
  3  4  1  0
  4  5  1  0
  5  6  2  0
  5  7  1  0
  7  8  1  0
  8  9  1  0
  9 10  1  0
 10 11  1  0
 11 12  2  0
 12 13  1  0
 13 14  2  0
 14 15  1  0
 15 16  2  0
  2 17  1  0
 17 18  1  6
 18 19  1  0
 20 19  1  6
 20 21  1  0
 21 22  1  1
 22 23  1  1
 22 24  1  0
 24 25  1  1
 24 26  1  0
 26 27  1  1
 27 28  1  0
 28 29  1  1
 28 30  1  0
 30 31  1  0
 31 32  1  0
 32 33  1  6
 32 34  1  0
 34 35  1  6
 35 36  1  0
 36 37  1  0
 37 38  1  6
 16 11  1  0
 37 17  1  0
 37 20  1  0
 34 21  1  0
 32 26  1  0
M  END
>  <MS_ID>  (2110) 
MS2187

>  <SMILES>  (2110) 
C[C@H](CCC(=O)NCCCc1ccccc1)[C@H]1CC[C@H]2[C@@H]3[C@H](O)[C@H](O)[C@@H]4C[C@H](O)CC[C@]4(C)[C@H]3CC[C@]12C

>  <Structure_dimension>  (2110) 
2D

$$$$
MS2188
     RDKit          2D

 31 34  0  0  0  0  0  0  0  0999 V2000
   -5.0146   -2.6187    0.0000 C   0  0  0  0  0  0  0  0  0  0  0  0
   -4.0672   -1.4557    0.0000 C   0  0  0  0  0  0  0  0  0  0  0  0
   -4.6007   -0.0538    0.0000 C   0  0  0  0  0  0  0  0  0  0  0  0
   -6.0816    0.1851    0.0000 C   0  0  0  0  0  0  0  0  0  0  0  0
   -6.6150    1.5871    0.0000 C   0  0  0  0  0  0  0  0  0  0  0  0
   -5.6677    2.7500    0.0000 O   0  0  0  0  0  0  0  0  0  0  0  0
   -8.0959    1.8260    0.0000 O   0  0  0  0  0  0  0  0  0  0  0  0
   -2.5864   -1.6947    0.0000 C   0  0  0  0  0  0  0  0  0  0  0  0
   -1.9093   -3.0332    0.0000 C   0  0  0  0  0  0  0  0  0  0  0  0
   -0.4271   -2.8029    0.0000 C   0  0  0  0  0  0  0  0  0  0  0  0
   -0.1881   -1.3220    0.0000 C   0  0  0  0  0  0  0  0  0  0  0  0
    1.0722   -0.5087    0.0000 C   0  0  0  0  0  0  0  0  0  0  0  0
    2.4068   -1.1936    0.0000 C   0  0  0  0  0  0  0  0  0  0  0  0
    2.4809   -2.6918    0.0000 N   0  0  0  0  0  0  0  0  0  0  0  0
    3.8154   -3.3767    0.0000 C   0  0  0  0  0  0  0  0  0  0  0  0
    3.8896   -4.8748    0.0000 C   0  0  0  0  0  0  0  0  0  0  0  0
    5.2241   -5.5597    0.0000 O   0  0  0  0  0  0  0  0  0  0  0  0
    3.6671   -0.3803    0.0000 C   0  0  0  0  0  0  0  0  0  0  0  0
    3.5930    1.1178    0.0000 C   0  0  0  0  0  0  0  0  0  0  0  0
    4.8534    1.9311    0.0000 C   0  0  0  0  0  0  0  0  0  0  0  0
    4.7792    3.4293    0.0000 C   0  0  0  0  0  0  0  0  0  0  0  0
    6.0396    4.2426    0.0000 O   0  0  0  0  0  0  0  0  0  0  0  0
    3.4447    4.1142    0.0000 C   0  0  0  0  0  0  0  0  0  0  0  0
    2.1843    3.3009    0.0000 C   0  0  0  0  0  0  0  0  0  0  0  0
    2.2585    1.8027    0.0000 C   0  0  0  0  0  0  0  0  0  0  0  0
    0.9240    2.4876    0.0000 C   0  0  0  0  0  0  0  0  0  0  0  0
    0.9981    0.9894    0.0000 C   0  0  0  0  0  0  0  0  0  0  0  0
   -0.3364    1.6743    0.0000 C   0  0  0  0  0  0  0  0  0  0  0  0
   -1.5968    0.8610    0.0000 C   0  0  0  0  0  0  0  0  0  0  0  0
   -1.5227   -0.6371    0.0000 C   0  0  0  0  0  0  0  0  0  0  0  0
   -2.9215   -0.0955    0.0000 C   0  0  0  0  0  0  0  0  0  0  0  0
  2  1  1  6
  2  3  1  0
  3  4  1  0
  4  5  1  0
  5  6  2  0
  5  7  1  0
  2  8  1  0
  8  9  1  6
  9 10  1  0
 11 10  1  6
 11 12  1  0
 12 13  1  1
 13 14  1  6
 14 15  1  0
 15 16  1  0
 16 17  1  0
 13 18  1  0
 19 18  1  1
 19 20  1  0
 20 21  1  0
 21 22  1  1
 21 23  1  0
 23 24  1  0
 24 25  1  0
 25 26  1  6
 25 27  1  0
 27 28  1  6
 28 29  1  0
 29 30  1  0
 30 31  1  6
 30  8  1  0
 30 11  1  0
 27 12  1  0
 25 19  1  0
M  END
>  <MS_ID>  (2111) 
MS2188

>  <SMILES>  (2111) 
C[C@H](CCC(=O)O)[C@H]1CC[C@H]2[C@@H]3[C@@H](NCCO)C[C@@H]4C[C@H](O)CC[C@]4(C)[C@H]3CC[C@]12C

>  <Structure_dimension>  (2111) 
2D

$$$$
MS2189
     RDKit          2D

 30 33  0  0  0  0  0  0  0  0999 V2000
   -3.5909   -3.2894    0.0000 C   0  0  0  0  0  0  0  0  0  0  0  0
   -2.6685   -2.1066    0.0000 C   0  0  0  0  0  0  0  0  0  0  0  0
   -3.2316   -0.7163    0.0000 C   0  0  0  0  0  0  0  0  0  0  0  0
   -4.7172   -0.5088    0.0000 C   0  0  0  0  0  0  0  0  0  0  0  0
   -5.2803    0.8815    0.0000 C   0  0  0  0  0  0  0  0  0  0  0  0
   -4.3578    2.0643    0.0000 O   0  0  0  0  0  0  0  0  0  0  0  0
   -6.7659    1.0889    0.0000 O   0  0  0  0  0  0  0  0  0  0  0  0
   -7.3290    2.4792    0.0000 C   0  0  0  0  0  0  0  0  0  0  0  0
   -8.8146    2.6867    0.0000 O   0  0  0  0  0  0  0  0  0  0  0  0
   -1.1829   -2.3140    0.0000 C   0  0  0  0  0  0  0  0  0  0  0  0
   -0.4775   -3.6378    0.0000 C   0  0  0  0  0  0  0  0  0  0  0  0
    0.9995   -3.3760    0.0000 C   0  0  0  0  0  0  0  0  0  0  0  0
    1.2069   -1.8905    0.0000 C   0  0  0  0  0  0  0  0  0  0  0  0
    2.4498   -1.0506    0.0000 C   0  0  0  0  0  0  0  0  0  0  0  0
    3.7985   -1.7070    0.0000 C   0  0  0  0  0  0  0  0  0  0  0  0
    3.9045   -3.2032    0.0000 O   0  0  0  0  0  0  0  0  0  0  0  0
    5.0414   -0.8671    0.0000 C   0  0  0  0  0  0  0  0  0  0  0  0
    4.9354    0.6292    0.0000 C   0  0  0  0  0  0  0  0  0  0  0  0
    6.1782    1.4691    0.0000 C   0  0  0  0  0  0  0  0  0  0  0  0
    6.0723    2.9653    0.0000 C   0  0  0  0  0  0  0  0  0  0  0  0
    4.7235    3.6217    0.0000 C   0  0  0  0  0  0  0  0  0  0  0  0
    3.4807    2.7818    0.0000 C   0  0  0  0  0  0  0  0  0  0  0  0
    3.5866    1.2856    0.0000 C   0  0  0  0  0  0  0  0  0  0  0  0
    2.2379    1.9419    0.0000 C   0  0  0  0  0  0  0  0  0  0  0  0
    2.3438    0.4457    0.0000 C   0  0  0  0  0  0  0  0  0  0  0  0
    0.9950    1.1020    0.0000 C   0  0  0  0  0  0  0  0  0  0  0  0
   -0.2478    0.2622    0.0000 C   0  0  0  0  0  0  0  0  0  0  0  0
   -1.5965    0.9185    0.0000 O   0  0  0  0  0  0  0  0  0  0  0  0
   -0.1418   -1.2341    0.0000 C   0  0  0  0  0  0  0  0  0  0  0  0
   -1.5518   -0.7223    0.0000 C   0  0  0  0  0  0  0  0  0  0  0  0
  2  1  1  6
  2  3  1  0
  3  4  1  0
  4  5  1  0
  5  6  2  0
  5  7  1  0
  7  8  1  0
  8  9  1  0
  2 10  1  0
 10 11  1  6
 11 12  1  0
 13 12  1  6
 13 14  1  0
 14 15  1  1
 15 16  1  6
 15 17  1  0
 18 17  1  1
 18 19  1  0
 19 20  1  0
 20 21  1  0
 21 22  1  0
 22 23  1  0
 23 24  1  6
 23 25  1  0
 25 26  1  6
 26 27  1  0
 27 28  1  6
 27 29  1  0
 29 30  1  6
 29 10  1  0
 29 13  1  0
 25 14  1  0
 23 18  1  0
M  END
>  <MS_ID>  (2112) 
MS2189

>  <SMILES>  (2112) 
C[C@H](CCC(=O)OCO)[C@H]1CC[C@H]2[C@@H]3[C@@H](O)C[C@@H]4CCCC[C@]4(C)[C@H]3C[C@@H](O)[C@]12C

>  <Structure_dimension>  (2112) 
2D

$$$$
MS2190
     RDKit          2D

 29 32  0  0  0  0  0  0  0  0999 V2000
   -4.9165   -2.3086    0.0000 C   0  0  0  0  0  0  0  0  0  0  0  0
   -3.7338   -1.3860    0.0000 C   0  0  0  0  0  0  0  0  0  0  0  0
   -3.9415    0.0996    0.0000 C   0  0  0  0  0  0  0  0  0  0  0  0
   -5.3319    0.6625    0.0000 C   0  0  0  0  0  0  0  0  0  0  0  0
   -5.5396    2.1481    0.0000 C   0  0  0  0  0  0  0  0  0  0  0  0
   -4.3569    3.0707    0.0000 O   0  0  0  0  0  0  0  0  0  0  0  0
   -6.9299    2.7110    0.0000 O   0  0  0  0  0  0  0  0  0  0  0  0
   -2.3435   -1.9489    0.0000 C   0  0  0  0  0  0  0  0  0  0  0  0
   -1.9816   -3.4046    0.0000 C   0  0  0  0  0  0  0  0  0  0  0  0
   -0.4854   -3.5103    0.0000 C   0  0  0  0  0  0  0  0  0  0  0  0
    0.0775   -2.1199    0.0000 C   0  0  0  0  0  0  0  0  0  0  0  0
    1.4875   -1.6079    0.0000 C   0  0  0  0  0  0  0  0  0  0  0  0
    2.6358   -2.5730    0.0000 C   0  0  0  0  0  0  0  0  0  0  0  0
    4.0457   -2.0609    0.0000 C   0  0  0  0  0  0  0  0  0  0  0  0
    4.3073   -0.5839    0.0000 C   0  0  0  0  0  0  0  0  0  0  0  0
    5.7172   -0.0719    0.0000 C   0  0  0  0  0  0  0  0  0  0  0  0
    5.9787    1.4051    0.0000 C   0  0  0  0  0  0  0  0  0  0  0  0
    7.3886    1.9171    0.0000 O   0  0  0  0  0  0  0  0  0  0  0  0
    4.8304    2.3701    0.0000 C   0  0  0  0  0  0  0  0  0  0  0  0
    3.4205    1.8581    0.0000 C   0  0  0  0  0  0  0  0  0  0  0  0
    3.1589    0.3811    0.0000 C   0  0  0  0  0  0  0  0  0  0  0  0
    2.0105    1.3461    0.0000 C   0  0  0  0  0  0  0  0  0  0  0  0
    1.7490   -0.1309    0.0000 C   0  0  0  0  0  0  0  0  0  0  0  0
    0.6006    0.8341    0.0000 C   0  0  0  0  0  0  0  0  0  0  0  0
   -0.8093    0.3221    0.0000 C   0  0  0  0  0  0  0  0  0  0  0  0
   -1.9576    1.2871    0.0000 O   0  0  0  0  0  0  0  0  0  0  0  0
   -1.6961    2.7641    0.0000 O   0  0  0  0  0  0  0  0  0  0  0  0
   -1.0708   -1.1549    0.0000 C   0  0  0  0  0  0  0  0  0  0  0  0
   -2.3138   -0.3152    0.0000 C   0  0  0  0  0  0  0  0  0  0  0  0
  2  1  1  6
  2  3  1  0
  3  4  1  0
  4  5  1  0
  5  6  2  0
  5  7  1  0
  2  8  1  0
  8  9  1  6
  9 10  1  0
 11 10  1  6
 11 12  1  0
 12 13  1  1
 13 14  1  0
 15 14  1  1
 15 16  1  0
 16 17  1  0
 17 18  1  6
 17 19  1  0
 19 20  1  0
 20 21  1  0
 21 22  1  6
 21 23  1  0
 23 24  1  6
 24 25  1  0
 25 26  1  6
 26 27  1  0
 25 28  1  0
 28 29  1  6
 28  8  1  0
 28 11  1  0
 23 12  1  0
 21 15  1  0
M  END
>  <MS_ID>  (2113) 
MS2190

>  <SMILES>  (2113) 
C[C@H](CCC(=O)O)[C@H]1CC[C@H]2[C@@H]3CC[C@@H]4C[C@@H](O)CC[C@]4(C)[C@H]3C[C@@H](OO)[C@]12C

>  <Structure_dimension>  (2113) 
2D

$$$$
MS2191
     RDKit          2D

 33 36  0  0  0  0  0  0  0  0999 V2000
   -3.3148   -4.2011    0.0000 C   0  0  0  0  0  0  0  0  0  0  0  0
   -2.4999   -2.9418    0.0000 C   0  0  0  0  0  0  0  0  0  0  0  0
   -3.1831   -1.6064    0.0000 C   0  0  0  0  0  0  0  0  0  0  0  0
   -4.6812   -1.5304    0.0000 C   0  0  0  0  0  0  0  0  0  0  0  0
   -5.3644   -0.1950    0.0000 C   0  0  0  0  0  0  0  0  0  0  0  0
   -6.8624   -0.1190    0.0000 O   0  0  0  0  0  0  0  0  0  0  0  0
   -4.5495    1.0644    0.0000 O   0  0  0  0  0  0  0  0  0  0  0  0
   -5.2327    2.3997    0.0000 C   0  0  0  0  0  0  0  0  0  0  0  0
   -6.7308    2.4758    0.0000 O   0  0  0  0  0  0  0  0  0  0  0  0
   -4.4178    3.6591    0.0000 C   0  0  0  0  0  0  0  0  0  0  0  0
   -2.9198    3.5831    0.0000 O   0  0  0  0  0  0  0  0  0  0  0  0
   -5.1010    4.9945    0.0000 O   0  0  0  0  0  0  0  0  0  0  0  0
   -1.0018   -3.0178    0.0000 C   0  0  0  0  0  0  0  0  0  0  0  0
   -0.1828   -4.2745    0.0000 C   0  0  0  0  0  0  0  0  0  0  0  0
    1.2655   -3.8838    0.0000 C   0  0  0  0  0  0  0  0  0  0  0  0
    1.3415   -2.3858    0.0000 C   0  0  0  0  0  0  0  0  0  0  0  0
    2.5056   -1.4398    0.0000 C   0  0  0  0  0  0  0  0  0  0  0  0
    3.9069   -1.9751    0.0000 C   0  0  0  0  0  0  0  0  0  0  0  0
    4.1440   -3.4562    0.0000 O   0  0  0  0  0  0  0  0  0  0  0  0
    5.0710   -1.0292    0.0000 C   0  0  0  0  0  0  0  0  0  0  0  0
    4.8339    0.4520    0.0000 C   0  0  0  0  0  0  0  0  0  0  0  0
    5.9981    1.3979    0.0000 C   0  0  0  0  0  0  0  0  0  0  0  0
    5.7610    2.8790    0.0000 C   0  0  0  0  0  0  0  0  0  0  0  0
    6.9251    3.8249    0.0000 O   0  0  0  0  0  0  0  0  0  0  0  0
    4.3597    3.4143    0.0000 C   0  0  0  0  0  0  0  0  0  0  0  0
    3.1956    2.4684    0.0000 C   0  0  0  0  0  0  0  0  0  0  0  0
    3.4327    0.9872    0.0000 C   0  0  0  0  0  0  0  0  0  0  0  0
    2.0314    1.5224    0.0000 C   0  0  0  0  0  0  0  0  0  0  0  0
    2.2685    0.0413    0.0000 C   0  0  0  0  0  0  0  0  0  0  0  0
    0.8673    0.5765    0.0000 C   0  0  0  0  0  0  0  0  0  0  0  0
   -0.2969   -0.3694    0.0000 C   0  0  0  0  0  0  0  0  0  0  0  0
   -0.0598   -1.8505    0.0000 C   0  0  0  0  0  0  0  0  0  0  0  0
   -1.5093   -1.4647    0.0000 C   0  0  0  0  0  0  0  0  0  0  0  0
  2  1  1  6
  2  3  1  0
  3  4  1  0
  4  5  1  0
  5  6  2  0
  5  7  1  0
  7  8  1  0
  8  9  2  0
  8 10  1  0
 10 11  2  0
 10 12  1  0
  2 13  1  0
 13 14  1  6
 14 15  1  0
 16 15  1  6
 16 17  1  0
 17 18  1  1
 18 19  1  6
 18 20  1  0
 21 20  1  1
 21 22  1  0
 22 23  1  0
 23 24  1  1
 23 25  1  0
 25 26  1  0
 26 27  1  0
 27 28  1  6
 27 29  1  0
 29 30  1  6
 30 31  1  0
 31 32  1  0
 32 33  1  6
 32 13  1  0
 32 16  1  0
 29 17  1  0
 27 21  1  0
M  END
>  <MS_ID>  (2114) 
MS2191

>  <SMILES>  (2114) 
C[C@H](CCC(=O)OC(=O)C(=O)O)[C@H]1CC[C@H]2[C@@H]3[C@@H](O)C[C@@H]4C[C@H](O)CC[C@]4(C)[C@H]3CC[C@]12C

>  <Structure_dimension>  (2114) 
2D

$$$$
MS2192
     RDKit          2D

 35 38  0  0  0  0  0  0  0  0999 V2000
   -4.3152   -3.0890    0.0000 C   0  0  0  0  0  0  0  0  0  0  0  0
   -3.4559   -1.8595    0.0000 C   0  0  0  0  0  0  0  0  0  0  0  0
   -4.0911   -0.5006    0.0000 C   0  0  0  0  0  0  0  0  0  0  0  0
   -5.5855   -0.3712    0.0000 C   0  0  0  0  0  0  0  0  0  0  0  0
   -6.2206    0.9877    0.0000 C   0  0  0  0  0  0  0  0  0  0  0  0
   -5.3614    2.2172    0.0000 O   0  0  0  0  0  0  0  0  0  0  0  0
   -7.7150    1.1171    0.0000 C   0  0  0  0  0  0  0  0  0  0  0  0
   -8.5743   -0.1124    0.0000 O   0  0  0  0  0  0  0  0  0  0  0  0
   -8.3502    2.4760    0.0000 O   0  0  0  0  0  0  0  0  0  0  0  0
   -1.9615   -1.9889    0.0000 C   0  0  0  0  0  0  0  0  0  0  0  0
   -1.1878   -3.2739    0.0000 C   0  0  0  0  0  0  0  0  0  0  0  0
    0.2734   -2.9352    0.0000 C   0  0  0  0  0  0  0  0  0  0  0  0
    0.4028   -1.4408    0.0000 C   0  0  0  0  0  0  0  0  0  0  0  0
    1.6000   -0.5370    0.0000 C   0  0  0  0  0  0  0  0  0  0  0  0
    2.9813   -1.1218    0.0000 C   0  0  0  0  0  0  0  0  0  0  0  0
    3.1654   -2.6105    0.0000 O   0  0  0  0  0  0  0  0  0  0  0  0
    4.5467   -3.1954    0.0000 S   0  0  0  0  0  0  0  0  0  0  0  0
    5.1315   -1.8141    0.0000 O   0  0  0  0  0  0  0  0  0  0  0  0
    3.9618   -4.5766    0.0000 O   0  0  0  0  0  0  0  0  0  0  0  0
    5.9280   -3.7802    0.0000 O   0  0  0  0  0  0  0  0  0  0  0  0
    4.1784   -0.2180    0.0000 C   0  0  0  0  0  0  0  0  0  0  0  0
    3.9943    1.2706    0.0000 C   0  0  0  0  0  0  0  0  0  0  0  0
    5.1914    2.1744    0.0000 C   0  0  0  0  0  0  0  0  0  0  0  0
    5.0073    3.6631    0.0000 C   0  0  0  0  0  0  0  0  0  0  0  0
    6.2044    4.5668    0.0000 O   0  0  0  0  0  0  0  0  0  0  0  0
    3.6260    4.2479    0.0000 C   0  0  0  0  0  0  0  0  0  0  0  0
    2.4289    3.3441    0.0000 C   0  0  0  0  0  0  0  0  0  0  0  0
    2.6130    1.8555    0.0000 C   0  0  0  0  0  0  0  0  0  0  0  0
    1.2317    2.4403    0.0000 C   0  0  0  0  0  0  0  0  0  0  0  0
    1.4158    0.9517    0.0000 C   0  0  0  0  0  0  0  0  0  0  0  0
    0.0346    1.5365    0.0000 C   0  0  0  0  0  0  0  0  0  0  0  0
   -1.1626    0.6327    0.0000 C   0  0  0  0  0  0  0  0  0  0  0  0
   -2.5439    1.2176    0.0000 O   0  0  0  0  0  0  0  0  0  0  0  0
   -0.9784   -0.8559    0.0000 C   0  0  0  0  0  0  0  0  0  0  0  0
   -2.4133   -0.4186    0.0000 C   0  0  0  0  0  0  0  0  0  0  0  0
  2  1  1  6
  2  3  1  0
  3  4  1  0
  4  5  1  0
  5  6  2  0
  5  7  1  0
  7  8  2  0
  7  9  1  0
  2 10  1  0
 10 11  1  6
 11 12  1  0
 13 12  1  6
 13 14  1  0
 14 15  1  1
 15 16  1  1
 16 17  1  0
 17 18  2  0
 17 19  2  0
 17 20  1  0
 15 21  1  0
 22 21  1  1
 22 23  1  0
 23 24  1  0
 24 25  1  1
 24 26  1  0
 26 27  1  0
 27 28  1  0
 28 29  1  6
 28 30  1  0
 30 31  1  6
 31 32  1  0
 32 33  1  1
 32 34  1  0
 34 35  1  6
 34 10  1  0
 34 13  1  0
 30 14  1  0
 28 22  1  0
M  END
>  <MS_ID>  (2115) 
MS2192

>  <SMILES>  (2115) 
C[C@H](CCC(=O)C(=O)O)[C@H]1CC[C@H]2[C@@H]3[C@H](OS(=O)(=O)O)C[C@@H]4C[C@H](O)CC[C@]4(C)[C@H]3C[C@H](O)[C@]12C

>  <Structure_dimension>  (2115) 
2D

$$$$
MS2193
     RDKit          2D

 27 30  0  0  0  0  0  0  0  0999 V2000
   -5.1023   -2.0364    0.0000 C   0  0  0  0  0  0  0  0  0  0  0  0
   -3.8978   -1.1425    0.0000 C   0  0  0  0  0  0  0  0  0  0  0  0
   -4.0697    0.3476    0.0000 C   0  0  0  0  0  0  0  0  0  0  0  0
   -5.4461    0.9438    0.0000 C   0  0  0  0  0  0  0  0  0  0  0  0
   -5.6180    2.4339    0.0000 C   0  0  0  0  0  0  0  0  0  0  0  0
   -6.9944    3.0301    0.0000 N   0  0  0  0  0  0  0  0  0  0  0  0
   -4.4135    3.3278    0.0000 O   0  0  0  0  0  0  0  0  0  0  0  0
   -2.5213   -1.7387    0.0000 C   0  0  0  0  0  0  0  0  0  0  0  0
   -2.1946   -3.2027    0.0000 C   0  0  0  0  0  0  0  0  0  0  0  0
   -0.7013   -3.3444    0.0000 C   0  0  0  0  0  0  0  0  0  0  0  0
   -0.1051   -1.9679    0.0000 C   0  0  0  0  0  0  0  0  0  0  0  0
    1.3167   -1.4900    0.0000 C   0  0  0  0  0  0  0  0  0  0  0  0
    2.4415   -2.4823    0.0000 C   0  0  0  0  0  0  0  0  0  0  0  0
    3.8633   -2.0044    0.0000 C   0  0  0  0  0  0  0  0  0  0  0  0
    4.1603   -0.5341    0.0000 C   0  0  0  0  0  0  0  0  0  0  0  0
    5.5821   -0.0561    0.0000 C   0  0  0  0  0  0  0  0  0  0  0  0
    5.8791    1.4142    0.0000 C   0  0  0  0  0  0  0  0  0  0  0  0
    7.3009    1.8921    0.0000 O   0  0  0  0  0  0  0  0  0  0  0  0
    4.7543    2.4065    0.0000 C   0  0  0  0  0  0  0  0  0  0  0  0
    3.3325    1.9286    0.0000 C   0  0  0  0  0  0  0  0  0  0  0  0
    3.0355    0.4583    0.0000 C   0  0  0  0  0  0  0  0  0  0  0  0
    1.9107    1.4506    0.0000 C   0  0  0  0  0  0  0  0  0  0  0  0
    1.6137   -0.0197    0.0000 C   0  0  0  0  0  0  0  0  0  0  0  0
    0.4888    0.9727    0.0000 C   0  0  0  0  0  0  0  0  0  0  0  0
   -0.9330    0.4947    0.0000 C   0  0  0  0  0  0  0  0  0  0  0  0
   -1.2300   -0.9756    0.0000 C   0  0  0  0  0  0  0  0  0  0  0  0
   -2.4524   -0.1062    0.0000 C   0  0  0  0  0  0  0  0  0  0  0  0
  2  1  1  6
  2  3  1  0
  3  4  1  0
  4  5  1  0
  5  6  1  0
  5  7  2  0
  2  8  1  0
  8  9  1  6
  9 10  1  0
 11 10  1  6
 11 12  1  0
 12 13  1  1
 13 14  1  0
 15 14  1  1
 15 16  1  0
 16 17  1  0
 17 18  1  1
 17 19  1  0
 19 20  1  0
 20 21  1  0
 21 22  1  6
 21 23  1  0
 23 24  1  6
 24 25  1  0
 25 26  1  0
 26 27  1  6
 26  8  1  0
 26 11  1  0
 23 12  1  0
 21 15  1  0
M  END
>  <MS_ID>  (2116) 
MS2193

>  <SMILES>  (2116) 
C[C@H](CCC(N)=O)[C@H]1CC[C@H]2[C@@H]3CC[C@@H]4C[C@H](O)CC[C@]4(C)[C@H]3CC[C@]12C

>  <Structure_dimension>  (2116) 
2D

$$$$
MS2194
     RDKit          2D

 30 33  0  0  0  0  0  0  0  0999 V2000
   -5.1126   -2.2702    0.0000 C   0  0  0  0  0  0  0  0  0  0  0  0
   -4.0463   -1.2153    0.0000 C   0  0  0  0  0  0  0  0  0  0  0  0
   -4.4268    0.2357    0.0000 C   0  0  0  0  0  0  0  0  0  0  0  0
   -5.8736    0.6316    0.0000 C   0  0  0  0  0  0  0  0  0  0  0  0
   -6.2540    2.0826    0.0000 C   0  0  0  0  0  0  0  0  0  0  0  0
   -5.1877    3.1376    0.0000 O   0  0  0  0  0  0  0  0  0  0  0  0
   -7.7008    2.4786    0.0000 O   0  0  0  0  0  0  0  0  0  0  0  0
   -2.5995   -1.6113    0.0000 C   0  0  0  0  0  0  0  0  0  0  0  0
   -2.0695   -3.0145    0.0000 C   0  0  0  0  0  0  0  0  0  0  0  0
   -0.5711   -2.9440    0.0000 C   0  0  0  0  0  0  0  0  0  0  0  0
   -0.1751   -1.4972    0.0000 C   0  0  0  0  0  0  0  0  0  0  0  0
    1.1650   -0.8234    0.0000 C   0  0  0  0  0  0  0  0  0  0  0  0
    2.4186   -1.6471    0.0000 C   0  0  0  0  0  0  0  0  0  0  0  0
    2.3321   -3.1446    0.0000 C   0  0  0  0  0  0  0  0  0  0  0  0
    3.5857   -3.9682    0.0000 C   0  0  0  0  0  0  0  0  0  0  0  0
    3.4992   -5.4657    0.0000 O   0  0  0  0  0  0  0  0  0  0  0  0
    3.7587   -0.9732    0.0000 C   0  0  0  0  0  0  0  0  0  0  0  0
    3.8453    0.5243    0.0000 C   0  0  0  0  0  0  0  0  0  0  0  0
    5.1854    1.1981    0.0000 C   0  0  0  0  0  0  0  0  0  0  0  0
    5.2719    2.6956    0.0000 C   0  0  0  0  0  0  0  0  0  0  0  0
    6.6121    3.3694    0.0000 O   0  0  0  0  0  0  0  0  0  0  0  0
    4.0183    3.5193    0.0000 C   0  0  0  0  0  0  0  0  0  0  0  0
    2.6782    2.8454    0.0000 C   0  0  0  0  0  0  0  0  0  0  0  0
    2.5917    1.3479    0.0000 C   0  0  0  0  0  0  0  0  0  0  0  0
    1.3380    2.1716    0.0000 C   0  0  0  0  0  0  0  0  0  0  0  0
    1.2515    0.6741    0.0000 C   0  0  0  0  0  0  0  0  0  0  0  0
   -0.0021    1.4978    0.0000 C   0  0  0  0  0  0  0  0  0  0  0  0
   -1.3422    0.8240    0.0000 C   0  0  0  0  0  0  0  0  0  0  0  0
   -1.4288   -0.6735    0.0000 C   0  0  0  0  0  0  0  0  0  0  0  0
   -2.7616    0.0146    0.0000 C   0  0  0  0  0  0  0  0  0  0  0  0
  2  1  1  6
  2  3  1  0
  3  4  1  0
  4  5  1  0
  5  6  2  0
  5  7  1  0
  2  8  1  0
  8  9  1  6
  9 10  1  0
 11 10  1  6
 11 12  1  0
 12 13  1  1
 13 14  1  1
 14 15  1  0
 15 16  1  0
 13 17  1  0
 18 17  1  1
 18 19  1  0
 19 20  1  0
 20 21  1  1
 20 22  1  0
 22 23  1  0
 23 24  1  0
 24 25  1  6
 24 26  1  0
 26 27  1  6
 27 28  1  0
 28 29  1  0
 29 30  1  6
 29  8  1  0
 29 11  1  0
 26 12  1  0
 24 18  1  0
M  END
>  <MS_ID>  (2117) 
MS2194

>  <SMILES>  (2117) 
C[C@H](CCC(=O)O)[C@H]1CC[C@H]2[C@@H]3[C@H](CCO)C[C@@H]4C[C@H](O)CC[C@]4(C)[C@H]3CC[C@]12C

>  <Structure_dimension>  (2117) 
2D

$$$$
MS2195
     RDKit          2D

 30 33  0  0  0  0  0  0  0  0999 V2000
   -4.7493   -2.7001    0.0000 C   0  0  0  0  0  0  0  0  0  0  0  0
   -3.6928   -1.6352    0.0000 C   0  0  0  0  0  0  0  0  0  0  0  0
   -4.0867   -0.1879    0.0000 C   0  0  0  0  0  0  0  0  0  0  0  0
   -5.5371    0.1946    0.0000 C   0  0  0  0  0  0  0  0  0  0  0  0
   -5.9311    1.6420    0.0000 C   0  0  0  0  0  0  0  0  0  0  0  0
   -4.8746    2.7068    0.0000 O   0  0  0  0  0  0  0  0  0  0  0  0
   -7.3815    2.0245    0.0000 N   0  0  0  0  0  0  0  0  0  0  0  0
   -7.7754    3.4718    0.0000 N   0  0  0  0  0  0  0  0  0  0  0  0
   -2.2424   -2.0177    0.0000 C   0  0  0  0  0  0  0  0  0  0  0  0
   -1.6993   -3.4160    0.0000 C   0  0  0  0  0  0  0  0  0  0  0  0
   -0.2017   -3.3316    0.0000 C   0  0  0  0  0  0  0  0  0  0  0  0
    0.1808   -1.8812    0.0000 C   0  0  0  0  0  0  0  0  0  0  0  0
    1.5146   -1.1949    0.0000 C   0  0  0  0  0  0  0  0  0  0  0  0
    2.7759   -2.0069    0.0000 C   0  0  0  0  0  0  0  0  0  0  0  0
    2.7033   -3.5051    0.0000 O   0  0  0  0  0  0  0  0  0  0  0  0
    4.1097   -1.3206    0.0000 C   0  0  0  0  0  0  0  0  0  0  0  0
    5.3709   -2.1326    0.0000 O   0  0  0  0  0  0  0  0  0  0  0  0
    4.1823    0.1776    0.0000 C   0  0  0  0  0  0  0  0  0  0  0  0
    5.5161    0.8639    0.0000 C   0  0  0  0  0  0  0  0  0  0  0  0
    5.5887    2.3621    0.0000 C   0  0  0  0  0  0  0  0  0  0  0  0
    6.9225    3.0484    0.0000 O   0  0  0  0  0  0  0  0  0  0  0  0
    4.3274    3.1741    0.0000 C   0  0  0  0  0  0  0  0  0  0  0  0
    2.9936    2.4878    0.0000 C   0  0  0  0  0  0  0  0  0  0  0  0
    2.9210    0.9896    0.0000 C   0  0  0  0  0  0  0  0  0  0  0  0
    1.6598    1.8016    0.0000 C   0  0  0  0  0  0  0  0  0  0  0  0
    1.5872    0.3033    0.0000 C   0  0  0  0  0  0  0  0  0  0  0  0
    0.3260    1.1153    0.0000 C   0  0  0  0  0  0  0  0  0  0  0  0
   -1.0078    0.4291    0.0000 C   0  0  0  0  0  0  0  0  0  0  0  0
   -1.0804   -1.0692    0.0000 C   0  0  0  0  0  0  0  0  0  0  0  0
   -2.4196   -0.3935    0.0000 C   0  0  0  0  0  0  0  0  0  0  0  0
  2  1  1  6
  2  3  1  0
  3  4  1  0
  4  5  1  0
  5  6  2  0
  5  7  1  0
  7  8  1  0
  2  9  1  0
  9 10  1  6
 10 11  1  0
 12 11  1  6
 12 13  1  0
 13 14  1  1
 14 15  1  1
 14 16  1  0
 16 17  1  1
 16 18  1  0
 18 19  1  1
 19 20  1  0
 20 21  1  1
 20 22  1  0
 22 23  1  0
 23 24  1  0
 24 25  1  6
 24 26  1  0
 26 27  1  6
 27 28  1  0
 28 29  1  0
 29 30  1  6
 29  9  1  0
 29 12  1  0
 26 13  1  0
 24 18  1  0
M  END
>  <MS_ID>  (2118) 
MS2195

>  <SMILES>  (2118) 
C[C@H](CCC(=O)NN)[C@H]1CC[C@H]2[C@@H]3[C@H](O)[C@H](O)[C@@H]4C[C@H](O)CC[C@]4(C)[C@H]3CC[C@]12C

>  <Structure_dimension>  (2118) 
2D

$$$$
MS2197
     RDKit          2D

 29 32  0  0  0  0  0  0  0  0999 V2000
   -5.0303   -2.1373    0.0000 C   0  0  0  0  0  0  0  0  0  0  0  0
   -3.8594   -1.1998    0.0000 C   0  0  0  0  0  0  0  0  0  0  0  0
   -4.0858    0.2830    0.0000 C   0  0  0  0  0  0  0  0  0  0  0  0
   -5.4831    0.8284    0.0000 C   0  0  0  0  0  0  0  0  0  0  0  0
   -5.7095    2.3112    0.0000 C   0  0  0  0  0  0  0  0  0  0  0  0
   -4.5386    3.2487    0.0000 O   0  0  0  0  0  0  0  0  0  0  0  0
   -7.1069    2.8565    0.0000 O   0  0  0  0  0  0  0  0  0  0  0  0
   -2.4620   -1.7451    0.0000 C   0  0  0  0  0  0  0  0  0  0  0  0
   -2.0818   -3.1961    0.0000 C   0  0  0  0  0  0  0  0  0  0  0  0
   -0.5844   -3.2830    0.0000 C   0  0  0  0  0  0  0  0  0  0  0  0
   -0.0390   -1.8856    0.0000 C   0  0  0  0  0  0  0  0  0  0  0  0
    1.3643   -1.3559    0.0000 C   0  0  0  0  0  0  0  0  0  0  0  0
    2.5248   -2.3063    0.0000 C   0  0  0  0  0  0  0  0  0  0  0  0
    2.2819   -3.7865    0.0000 O   0  0  0  0  0  0  0  0  0  0  0  0
    3.9281   -1.7765    0.0000 C   0  0  0  0  0  0  0  0  0  0  0  0
    4.1710   -0.2963    0.0000 C   0  0  0  0  0  0  0  0  0  0  0  0
    5.5743    0.2334    0.0000 C   0  0  0  0  0  0  0  0  0  0  0  0
    5.8172    1.7136    0.0000 C   0  0  0  0  0  0  0  0  0  0  0  0
    7.2205    2.2434    0.0000 O   0  0  0  0  0  0  0  0  0  0  0  0
    4.6568    2.6641    0.0000 C   0  0  0  0  0  0  0  0  0  0  0  0
    3.2534    2.1343    0.0000 C   0  0  0  0  0  0  0  0  0  0  0  0
    3.0105    0.6541    0.0000 C   0  0  0  0  0  0  0  0  0  0  0  0
    1.8501    1.6046    0.0000 C   0  0  0  0  0  0  0  0  0  0  0  0
    1.6072    0.1244    0.0000 C   0  0  0  0  0  0  0  0  0  0  0  0
    0.4467    1.0748    0.0000 C   0  0  0  0  0  0  0  0  0  0  0  0
   -0.9566    0.5450    0.0000 C   0  0  0  0  0  0  0  0  0  0  0  0
   -2.1170    1.4955    0.0000 F   0  0  0  0  0  0  0  0  0  0  0  0
   -1.1995   -0.9352    0.0000 C   0  0  0  0  0  0  0  0  0  0  0  0
   -2.4529   -0.1112    0.0000 C   0  0  0  0  0  0  0  0  0  0  0  0
  2  1  1  6
  2  3  1  0
  3  4  1  0
  4  5  1  0
  5  6  2  0
  5  7  1  0
  2  8  1  0
  8  9  1  6
  9 10  1  0
 11 10  1  6
 11 12  1  0
 12 13  1  1
 13 14  2  0
 13 15  1  0
 16 15  1  1
 16 17  1  0
 17 18  1  0
 18 19  1  1
 18 20  1  0
 20 21  1  0
 21 22  1  0
 22 23  1  6
 22 24  1  0
 24 25  1  6
 25 26  1  0
 26 27  1  1
 26 28  1  0
 28 29  1  6
 28  8  1  0
 28 11  1  0
 24 12  1  0
 22 16  1  0
M  END
>  <MS_ID>  (2119) 
MS2197

>  <SMILES>  (2119) 
C[C@H](CCC(=O)O)[C@H]1CC[C@H]2[C@@H]3C(=O)C[C@@H]4C[C@H](O)CC[C@]4(C)[C@H]3C[C@H](F)[C@]12C

>  <Structure_dimension>  (2119) 
2D

$$$$
MS2198
     RDKit          2D

 33 37  0  0  0  0  0  0  0  0999 V2000
   -3.0300   -3.4798    0.0000 C   0  0  0  0  0  0  0  0  0  0  0  0
   -2.1092   -2.2958    0.0000 C   0  0  0  0  0  0  0  0  0  0  0  0
   -2.6742   -0.9062    0.0000 C   0  0  0  0  0  0  0  0  0  0  0  0
   -4.1600   -0.7008    0.0000 C   0  0  0  0  0  0  0  0  0  0  0  0
   -4.7250    0.6887    0.0000 C   0  0  0  0  0  0  0  0  0  0  0  0
   -3.8041    1.8728    0.0000 O   0  0  0  0  0  0  0  0  0  0  0  0
   -6.2109    0.8942    0.0000 C   0  0  0  0  0  0  0  0  0  0  0  0
   -7.2505   -0.1871    0.0000 C   0  0  0  0  0  0  0  0  0  0  0  0
   -8.6001    0.4675    0.0000 C   0  0  0  0  0  0  0  0  0  0  0  0
   -8.3946    1.9533    0.0000 N   0  0  0  0  0  0  0  0  0  0  0  0
   -9.4760    2.9929    0.0000 C   0  0  0  0  0  0  0  0  0  0  0  0
   -6.9180    2.2171    0.0000 C   0  0  0  0  0  0  0  0  0  0  0  0
   -0.6233   -2.5012    0.0000 C   0  0  0  0  0  0  0  0  0  0  0  0
    0.0838   -3.8241    0.0000 C   0  0  0  0  0  0  0  0  0  0  0  0
    1.5605   -3.5603    0.0000 C   0  0  0  0  0  0  0  0  0  0  0  0
    1.7659   -2.0745    0.0000 C   0  0  0  0  0  0  0  0  0  0  0  0
    3.0076   -1.2329    0.0000 C   0  0  0  0  0  0  0  0  0  0  0  0
    4.3573   -1.8875    0.0000 C   0  0  0  0  0  0  0  0  0  0  0  0
    4.4652   -3.3836    0.0000 O   0  0  0  0  0  0  0  0  0  0  0  0
    5.5990   -1.0460    0.0000 C   0  0  0  0  0  0  0  0  0  0  0  0
    5.4910    0.4502    0.0000 C   0  0  0  0  0  0  0  0  0  0  0  0
    6.7327    1.2917    0.0000 C   0  0  0  0  0  0  0  0  0  0  0  0
    6.6248    2.7878    0.0000 C   0  0  0  0  0  0  0  0  0  0  0  0
    7.8665    3.6294    0.0000 O   0  0  0  0  0  0  0  0  0  0  0  0
    5.2751    3.4424    0.0000 C   0  0  0  0  0  0  0  0  0  0  0  0
    4.0334    2.6008    0.0000 C   0  0  0  0  0  0  0  0  0  0  0  0
    4.1414    1.1047    0.0000 C   0  0  0  0  0  0  0  0  0  0  0  0
    2.7917    1.7593    0.0000 C   0  0  0  0  0  0  0  0  0  0  0  0
    2.8997    0.2632    0.0000 C   0  0  0  0  0  0  0  0  0  0  0  0
    1.5500    0.9177    0.0000 C   0  0  0  0  0  0  0  0  0  0  0  0
    0.3083    0.0762    0.0000 C   0  0  0  0  0  0  0  0  0  0  0  0
    0.4163   -1.4199    0.0000 C   0  0  0  0  0  0  0  0  0  0  0  0
   -0.9944   -0.9100    0.0000 C   0  0  0  0  0  0  0  0  0  0  0  0
  2  1  1  6
  2  3  1  0
  3  4  1  0
  4  5  1  0
  5  6  2  0
  5  7  1  0
  7  8  1  0
  8  9  2  0
  9 10  1  0
 10 11  1  0
 10 12  1  0
  2 13  1  0
 13 14  1  6
 14 15  1  0
 16 15  1  6
 16 17  1  0
 17 18  1  1
 18 19  1  1
 18 20  1  0
 21 20  1  1
 21 22  1  0
 22 23  1  0
 23 24  1  1
 23 25  1  0
 25 26  1  0
 26 27  1  0
 27 28  1  6
 27 29  1  0
 29 30  1  6
 30 31  1  0
 31 32  1  0
 32 33  1  6
 12  7  2  0
 32 13  1  0
 32 16  1  0
 29 17  1  0
 27 21  1  0
M  END
>  <MS_ID>  (2120) 
MS2198

>  <SMILES>  (2120) 
C[C@H](CCC(=O)c1ccn(C)c1)[C@H]1CC[C@H]2[C@@H]3[C@H](O)C[C@@H]4C[C@H](O)CC[C@]4(C)[C@H]3CC[C@]12C

>  <Structure_dimension>  (2120) 
2D

$$$$
MS2199
     RDKit          2D

 30 33  0  0  0  0  0  0  0  0999 V2000
   -4.9282   -2.3226    0.0000 C   0  0  0  0  0  0  0  0  0  0  0  0
   -3.7737   -1.3649    0.0000 C   0  0  0  0  0  0  0  0  0  0  0  0
   -4.0259    0.1138    0.0000 C   0  0  0  0  0  0  0  0  0  0  0  0
   -5.4325    0.6347    0.0000 C   0  0  0  0  0  0  0  0  0  0  0  0
   -5.6847    2.1133    0.0000 C   0  0  0  0  0  0  0  0  0  0  0  0
   -4.5303    3.0711    0.0000 O   0  0  0  0  0  0  0  0  0  0  0  0
   -7.0914    2.6342    0.0000 O   0  0  0  0  0  0  0  0  0  0  0  0
   -2.3671   -1.8858    0.0000 C   0  0  0  0  0  0  0  0  0  0  0  0
   -1.9617   -3.3300    0.0000 C   0  0  0  0  0  0  0  0  0  0  0  0
   -0.4629   -3.3907    0.0000 C   0  0  0  0  0  0  0  0  0  0  0  0
    0.0580   -1.9841    0.0000 C   0  0  0  0  0  0  0  0  0  0  0  0
    1.4519   -1.4300    0.0000 C   0  0  0  0  0  0  0  0  0  0  0  0
    2.6287   -2.3601    0.0000 C   0  0  0  0  0  0  0  0  0  0  0  0
    2.4116   -3.8443    0.0000 O   0  0  0  0  0  0  0  0  0  0  0  0
    4.0226   -1.8060    0.0000 C   0  0  0  0  0  0  0  0  0  0  0  0
    4.2397   -0.3218    0.0000 C   0  0  0  0  0  0  0  0  0  0  0  0
    5.6336    0.2323    0.0000 C   0  0  0  0  0  0  0  0  0  0  0  0
    5.8507    1.7166    0.0000 C   0  0  0  0  0  0  0  0  0  0  0  0
    7.2446    2.2707    0.0000 O   0  0  0  0  0  0  0  0  0  0  0  0
    4.6739    2.6467    0.0000 C   0  0  0  0  0  0  0  0  0  0  0  0
    3.2800    2.0925    0.0000 C   0  0  0  0  0  0  0  0  0  0  0  0
    3.0629    0.6083    0.0000 C   0  0  0  0  0  0  0  0  0  0  0  0
    1.8861    1.5384    0.0000 C   0  0  0  0  0  0  0  0  0  0  0  0
    1.6690    0.0542    0.0000 C   0  0  0  0  0  0  0  0  0  0  0  0
    0.4922    0.9843    0.0000 C   0  0  0  0  0  0  0  0  0  0  0  0
   -0.9017    0.4302    0.0000 C   0  0  0  0  0  0  0  0  0  0  0  0
   -2.0786    1.3603    0.0000 N   0  0  0  0  0  0  0  0  0  0  0  0
   -1.8615    2.8445    0.0000 O   0  0  0  0  0  0  0  0  0  0  0  0
   -1.1188   -1.0540    0.0000 C   0  0  0  0  0  0  0  0  0  0  0  0
   -2.3864   -0.2520    0.0000 C   0  0  0  0  0  0  0  0  0  0  0  0
  2  1  1  6
  2  3  1  0
  3  4  1  0
  4  5  1  0
  5  6  2  0
  5  7  1  0
  2  8  1  0
  8  9  1  6
  9 10  1  0
 11 10  1  6
 11 12  1  0
 12 13  1  1
 13 14  2  0
 13 15  1  0
 16 15  1  1
 16 17  1  0
 17 18  1  0
 18 19  1  1
 18 20  1  0
 20 21  1  0
 21 22  1  0
 22 23  1  6
 22 24  1  0
 24 25  1  6
 25 26  1  0
 26 27  1  1
 27 28  1  0
 26 29  1  0
 29 30  1  6
 29  8  1  0
 29 11  1  0
 24 12  1  0
 22 16  1  0
M  END
>  <MS_ID>  (2121) 
MS2199

>  <SMILES>  (2121) 
C[C@H](CCC(=O)O)[C@H]1CC[C@H]2[C@@H]3C(=O)C[C@@H]4C[C@H](O)CC[C@]4(C)[C@H]3C[C@H](NO)[C@]12C

>  <Structure_dimension>  (2121) 
2D

$$$$
MS2200
     RDKit          2D

 32 36  0  0  0  0  0  0  0  0999 V2000
   -3.4960   -3.2106    0.0000 C   0  0  0  0  0  0  0  0  0  0  0  0
   -2.5154   -2.0755    0.0000 C   0  0  0  0  0  0  0  0  0  0  0  0
   -3.0082   -0.6588    0.0000 C   0  0  0  0  0  0  0  0  0  0  0  0
   -4.4815   -0.3771    0.0000 C   0  0  0  0  0  0  0  0  0  0  0  0
   -4.9742    1.0397    0.0000 C   0  0  0  0  0  0  0  0  0  0  0  0
   -3.9936    2.1748    0.0000 O   0  0  0  0  0  0  0  0  0  0  0  0
   -6.4475    1.3214    0.0000 N   0  0  0  0  0  0  0  0  0  0  0  0
   -7.5414    0.2950    0.0000 C   0  0  0  0  0  0  0  0  0  0  0  0
   -8.8556    1.0181    0.0000 C   0  0  0  0  0  0  0  0  0  0  0  0
   -8.5739    2.4915    0.0000 N   0  0  0  0  0  0  0  0  0  0  0  0
   -7.0856    2.6789    0.0000 C   0  0  0  0  0  0  0  0  0  0  0  0
   -1.0421   -2.3572    0.0000 C   0  0  0  0  0  0  0  0  0  0  0  0
   -0.4040   -3.7147    0.0000 C   0  0  0  0  0  0  0  0  0  0  0  0
    1.0842   -3.5273    0.0000 C   0  0  0  0  0  0  0  0  0  0  0  0
    1.3659   -2.0540    0.0000 C   0  0  0  0  0  0  0  0  0  0  0  0
    2.6493   -1.2775    0.0000 C   0  0  0  0  0  0  0  0  0  0  0  0
    3.9634   -2.0006    0.0000 C   0  0  0  0  0  0  0  0  0  0  0  0
    3.9942   -3.5003    0.0000 O   0  0  0  0  0  0  0  0  0  0  0  0
    5.2468   -1.2241    0.0000 C   0  0  0  0  0  0  0  0  0  0  0  0
    5.2160    0.2756    0.0000 C   0  0  0  0  0  0  0  0  0  0  0  0
    6.4994    1.0521    0.0000 C   0  0  0  0  0  0  0  0  0  0  0  0
    6.4685    2.5518    0.0000 C   0  0  0  0  0  0  0  0  0  0  0  0
    7.7519    3.3283    0.0000 O   0  0  0  0  0  0  0  0  0  0  0  0
    5.1544    3.2749    0.0000 C   0  0  0  0  0  0  0  0  0  0  0  0
    3.8710    2.4984    0.0000 C   0  0  0  0  0  0  0  0  0  0  0  0
    3.9018    0.9987    0.0000 C   0  0  0  0  0  0  0  0  0  0  0  0
    2.5877    1.7219    0.0000 C   0  0  0  0  0  0  0  0  0  0  0  0
    2.6185    0.2222    0.0000 C   0  0  0  0  0  0  0  0  0  0  0  0
    1.3043    0.9454    0.0000 C   0  0  0  0  0  0  0  0  0  0  0  0
    0.0209    0.1689    0.0000 C   0  0  0  0  0  0  0  0  0  0  0  0
    0.0517   -1.3308    0.0000 C   0  0  0  0  0  0  0  0  0  0  0  0
   -1.3308   -0.7490    0.0000 C   0  0  0  0  0  0  0  0  0  0  0  0
  2  1  1  6
  2  3  1  0
  3  4  1  0
  4  5  1  0
  5  6  2  0
  5  7  1  0
  7  8  1  0
  8  9  2  0
  9 10  1  0
 10 11  2  0
  2 12  1  0
 12 13  1  6
 13 14  1  0
 15 14  1  6
 15 16  1  0
 16 17  1  1
 17 18  1  1
 17 19  1  0
 20 19  1  1
 20 21  1  0
 21 22  1  0
 22 23  1  1
 22 24  1  0
 24 25  1  0
 25 26  1  0
 26 27  1  6
 26 28  1  0
 28 29  1  6
 29 30  1  0
 30 31  1  0
 31 32  1  6
 11  7  1  0
 31 12  1  0
 31 15  1  0
 28 16  1  0
 26 20  1  0
M  END
>  <MS_ID>  (2122) 
MS2200

>  <SMILES>  (2122) 
C[C@H](CCC(=O)n1ccnc1)[C@H]1CC[C@H]2[C@@H]3[C@H](O)C[C@@H]4C[C@H](O)CC[C@]4(C)[C@H]3CC[C@]12C

>  <Structure_dimension>  (2122) 
2D

$$$$
MS2201
     RDKit          2D

 34 37  0  0  0  0  0  0  0  0999 V2000
   -2.4316   -3.7225    0.0000 C   0  0  0  0  0  0  0  0  0  0  0  0
   -1.5656   -2.4977    0.0000 C   0  0  0  0  0  0  0  0  0  0  0  0
   -2.1934   -1.1353    0.0000 C   0  0  0  0  0  0  0  0  0  0  0  0
   -3.6870   -0.9978    0.0000 C   0  0  0  0  0  0  0  0  0  0  0  0
   -4.3148    0.3645    0.0000 C   0  0  0  0  0  0  0  0  0  0  0  0
   -3.4488    1.5893    0.0000 O   0  0  0  0  0  0  0  0  0  0  0  0
   -5.8084    0.5021    0.0000 N   0  0  0  0  0  0  0  0  0  0  0  0
   -6.4362    1.8644    0.0000 C   0  0  0  0  0  0  0  0  0  0  0  0
   -7.9299    2.0019    0.0000 C   0  0  0  0  0  0  0  0  0  0  0  0
   -8.5576    3.3643    0.0000 O   0  0  0  0  0  0  0  0  0  0  0  0
   -8.7958    0.7771    0.0000 O   0  0  0  0  0  0  0  0  0  0  0  0
  -10.2895    0.9147    0.0000 C   0  0  0  0  0  0  0  0  0  0  0  0
  -11.1554   -0.3101    0.0000 Cl  0  0  0  0  0  0  0  0  0  0  0  0
   -0.0719   -2.6352    0.0000 C   0  0  0  0  0  0  0  0  0  0  0  0
    0.6948   -3.9245    0.0000 C   0  0  0  0  0  0  0  0  0  0  0  0
    2.1578   -3.5937    0.0000 C   0  0  0  0  0  0  0  0  0  0  0  0
    2.2954   -2.1000    0.0000 C   0  0  0  0  0  0  0  0  0  0  0  0
    3.4974   -1.2028    0.0000 C   0  0  0  0  0  0  0  0  0  0  0  0
    4.8755   -1.7951    0.0000 C   0  0  0  0  0  0  0  0  0  0  0  0
    5.0515   -3.2848    0.0000 O   0  0  0  0  0  0  0  0  0  0  0  0
    6.0775   -0.8979    0.0000 C   0  0  0  0  0  0  0  0  0  0  0  0
    5.9015    0.5918    0.0000 C   0  0  0  0  0  0  0  0  0  0  0  0
    7.1036    1.4890    0.0000 C   0  0  0  0  0  0  0  0  0  0  0  0
    6.9275    2.9787    0.0000 C   0  0  0  0  0  0  0  0  0  0  0  0
    8.1296    3.8759    0.0000 O   0  0  0  0  0  0  0  0  0  0  0  0
    5.5495    3.5710    0.0000 C   0  0  0  0  0  0  0  0  0  0  0  0
    4.3474    2.6738    0.0000 C   0  0  0  0  0  0  0  0  0  0  0  0
    4.5234    1.1841    0.0000 C   0  0  0  0  0  0  0  0  0  0  0  0
    3.1454    1.7765    0.0000 C   0  0  0  0  0  0  0  0  0  0  0  0
    3.3214    0.2869    0.0000 C   0  0  0  0  0  0  0  0  0  0  0  0
    1.9433    0.8793    0.0000 C   0  0  0  0  0  0  0  0  0  0  0  0
    0.7413   -0.0180    0.0000 C   0  0  0  0  0  0  0  0  0  0  0  0
    0.9173   -1.5076    0.0000 C   0  0  0  0  0  0  0  0  0  0  0  0
   -0.5152   -1.0625    0.0000 C   0  0  0  0  0  0  0  0  0  0  0  0
  2  1  1  6
  2  3  1  0
  3  4  1  0
  4  5  1  0
  5  6  2  0
  5  7  1  0
  7  8  1  0
  8  9  1  0
  9 10  2  0
  9 11  1  0
 11 12  1  0
 12 13  1  0
  2 14  1  0
 14 15  1  6
 15 16  1  0
 17 16  1  6
 17 18  1  0
 18 19  1  1
 19 20  1  6
 19 21  1  0
 22 21  1  1
 22 23  1  0
 23 24  1  0
 24 25  1  1
 24 26  1  0
 26 27  1  0
 27 28  1  0
 28 29  1  6
 28 30  1  0
 30 31  1  6
 31 32  1  0
 32 33  1  0
 33 34  1  6
 33 14  1  0
 33 17  1  0
 30 18  1  0
 28 22  1  0
M  END
>  <MS_ID>  (2123) 
MS2201

>  <SMILES>  (2123) 
C[C@H](CCC(=O)NCC(=O)OCCl)[C@H]1CC[C@H]2[C@@H]3[C@@H](O)C[C@@H]4C[C@H](O)CC[C@]4(C)[C@H]3CC[C@]12C

>  <Structure_dimension>  (2123) 
2D

$$$$
MS2202
     RDKit          2D

 29 32  0  0  0  0  0  0  0  0999 V2000
   -5.0303   -2.1373    0.0000 C   0  0  0  0  0  0  0  0  0  0  0  0
   -3.8594   -1.1998    0.0000 C   0  0  0  0  0  0  0  0  0  0  0  0
   -4.0858    0.2830    0.0000 C   0  0  0  0  0  0  0  0  0  0  0  0
   -5.4831    0.8284    0.0000 C   0  0  0  0  0  0  0  0  0  0  0  0
   -5.7095    2.3112    0.0000 C   0  0  0  0  0  0  0  0  0  0  0  0
   -4.5386    3.2487    0.0000 O   0  0  0  0  0  0  0  0  0  0  0  0
   -7.1069    2.8565    0.0000 O   0  0  0  0  0  0  0  0  0  0  0  0
   -2.4620   -1.7451    0.0000 C   0  0  0  0  0  0  0  0  0  0  0  0
   -2.0818   -3.1961    0.0000 C   0  0  0  0  0  0  0  0  0  0  0  0
   -0.5844   -3.2830    0.0000 C   0  0  0  0  0  0  0  0  0  0  0  0
   -0.0390   -1.8856    0.0000 C   0  0  0  0  0  0  0  0  0  0  0  0
    1.3643   -1.3559    0.0000 C   0  0  0  0  0  0  0  0  0  0  0  0
    2.5248   -2.3063    0.0000 C   0  0  0  0  0  0  0  0  0  0  0  0
    2.2819   -3.7865    0.0000 C   0  0  0  0  0  0  0  0  0  0  0  0
    3.9281   -1.7765    0.0000 C   0  0  0  0  0  0  0  0  0  0  0  0
    4.1710   -0.2963    0.0000 C   0  0  0  0  0  0  0  0  0  0  0  0
    5.5743    0.2334    0.0000 C   0  0  0  0  0  0  0  0  0  0  0  0
    5.8172    1.7136    0.0000 C   0  0  0  0  0  0  0  0  0  0  0  0
    7.2205    2.2434    0.0000 O   0  0  0  0  0  0  0  0  0  0  0  0
    4.6568    2.6641    0.0000 C   0  0  0  0  0  0  0  0  0  0  0  0
    3.2534    2.1343    0.0000 C   0  0  0  0  0  0  0  0  0  0  0  0
    3.0105    0.6541    0.0000 C   0  0  0  0  0  0  0  0  0  0  0  0
    1.8501    1.6046    0.0000 C   0  0  0  0  0  0  0  0  0  0  0  0
    1.6072    0.1244    0.0000 C   0  0  0  0  0  0  0  0  0  0  0  0
    0.4467    1.0748    0.0000 C   0  0  0  0  0  0  0  0  0  0  0  0
   -0.9566    0.5450    0.0000 C   0  0  0  0  0  0  0  0  0  0  0  0
   -2.1170    1.4955    0.0000 O   0  0  0  0  0  0  0  0  0  0  0  0
   -1.1995   -0.9352    0.0000 C   0  0  0  0  0  0  0  0  0  0  0  0
   -2.4529   -0.1112    0.0000 C   0  0  0  0  0  0  0  0  0  0  0  0
  2  1  1  6
  2  3  1  0
  3  4  1  0
  4  5  1  0
  5  6  2  0
  5  7  1  0
  2  8  1  0
  8  9  1  6
  9 10  1  0
 11 10  1  6
 11 12  1  0
 12 13  1  1
 13 14  1  6
 13 15  1  0
 16 15  1  1
 16 17  1  0
 17 18  1  0
 18 19  1  1
 18 20  1  0
 20 21  1  0
 21 22  1  0
 22 23  1  6
 22 24  1  0
 24 25  1  6
 25 26  1  0
 26 27  1  1
 26 28  1  0
 28 29  1  6
 28  8  1  0
 28 11  1  0
 24 12  1  0
 22 16  1  0
M  END
>  <MS_ID>  (2124) 
MS2202

>  <SMILES>  (2124) 
C[C@H](CCC(=O)O)[C@H]1CC[C@H]2[C@@H]3[C@@H](C)C[C@@H]4C[C@H](O)CC[C@]4(C)[C@H]3C[C@H](O)[C@]12C

>  <Structure_dimension>  (2124) 
2D

$$$$
MS2203
     RDKit          2D

 38 42  0  0  0  0  0  0  0  0999 V2000
   -0.6913   -4.6926    0.0000 C   0  0  0  0  0  0  0  0  0  0  0  0
   -0.1025   -3.3130    0.0000 C   0  0  0  0  0  0  0  0  0  0  0  0
   -1.0030   -2.1133    0.0000 C   0  0  0  0  0  0  0  0  0  0  0  0
   -2.4921   -2.2933    0.0000 C   0  0  0  0  0  0  0  0  0  0  0  0
   -3.3925   -1.0936    0.0000 C   0  0  0  0  0  0  0  0  0  0  0  0
   -2.8038    0.2861    0.0000 O   0  0  0  0  0  0  0  0  0  0  0  0
   -4.8817   -1.2735    0.0000 C   0  0  0  0  0  0  0  0  0  0  0  0
   -5.7821   -0.0738    0.0000 C   0  0  0  0  0  0  0  0  0  0  0  0
   -5.1934    1.3058    0.0000 C   0  0  0  0  0  0  0  0  0  0  0  0
   -6.0938    2.5055    0.0000 C   0  0  0  0  0  0  0  0  0  0  0  0
   -7.5830    2.3256    0.0000 C   0  0  0  0  0  0  0  0  0  0  0  0
   -8.4834    3.5252    0.0000 O   0  0  0  0  0  0  0  0  0  0  0  0
   -8.1717    0.9459    0.0000 C   0  0  0  0  0  0  0  0  0  0  0  0
   -9.6609    0.7660    0.0000 C   0  0  0  0  0  0  0  0  0  0  0  0
  -10.5613    1.9657    0.0000 O   0  0  0  0  0  0  0  0  0  0  0  0
  -10.2496   -0.6136    0.0000 O   0  0  0  0  0  0  0  0  0  0  0  0
   -7.2713   -0.2538    0.0000 C   0  0  0  0  0  0  0  0  0  0  0  0
    1.3866   -3.1331    0.0000 C   0  0  0  0  0  0  0  0  0  0  0  0
    2.4075   -4.2321    0.0000 C   0  0  0  0  0  0  0  0  0  0  0  0
    3.7682   -3.6008    0.0000 C   0  0  0  0  0  0  0  0  0  0  0  0
    3.5883   -2.1116    0.0000 C   0  0  0  0  0  0  0  0  0  0  0  0
    4.5745   -0.9814    0.0000 C   0  0  0  0  0  0  0  0  0  0  0  0
    6.0464   -1.2705    0.0000 C   0  0  0  0  0  0  0  0  0  0  0  0
    6.5320   -2.6897    0.0000 O   0  0  0  0  0  0  0  0  0  0  0  0
    7.0327   -0.1403    0.0000 C   0  0  0  0  0  0  0  0  0  0  0  0
    6.5470    1.2789    0.0000 C   0  0  0  0  0  0  0  0  0  0  0  0
    7.5333    2.4091    0.0000 C   0  0  0  0  0  0  0  0  0  0  0  0
    7.0477    3.8283    0.0000 C   0  0  0  0  0  0  0  0  0  0  0  0
    8.0340    4.9585    0.0000 O   0  0  0  0  0  0  0  0  0  0  0  0
    5.5758    4.1173    0.0000 C   0  0  0  0  0  0  0  0  0  0  0  0
    4.5895    2.9872    0.0000 C   0  0  0  0  0  0  0  0  0  0  0  0
    5.0752    1.5680    0.0000 C   0  0  0  0  0  0  0  0  0  0  0  0
    3.6033    1.8570    0.0000 C   0  0  0  0  0  0  0  0  0  0  0  0
    4.0889    0.4378    0.0000 C   0  0  0  0  0  0  0  0  0  0  0  0
    2.6170    0.7268    0.0000 C   0  0  0  0  0  0  0  0  0  0  0  0
    1.6307   -0.4033    0.0000 C   0  0  0  0  0  0  0  0  0  0  0  0
    2.1164   -1.8225    0.0000 C   0  0  0  0  0  0  0  0  0  0  0  0
    0.6223   -1.6889    0.0000 C   0  0  0  0  0  0  0  0  0  0  0  0
  2  1  1  6
  2  3  1  0
  3  4  1  0
  4  5  1  0
  5  6  2  0
  5  7  1  0
  7  8  1  0
  8  9  2  0
  9 10  1  0
 10 11  2  0
 11 12  1  0
 11 13  1  0
 13 14  1  0
 14 15  2  0
 14 16  1  0
 13 17  2  0
  2 18  1  0
 18 19  1  6
 19 20  1  0
 21 20  1  6
 21 22  1  0
 22 23  1  1
 23 24  1  1
 23 25  1  0
 26 25  1  1
 26 27  1  0
 27 28  1  0
 28 29  1  1
 28 30  1  0
 30 31  1  0
 31 32  1  0
 32 33  1  6
 32 34  1  0
 34 35  1  6
 35 36  1  0
 36 37  1  0
 37 38  1  6
 17  8  1  0
 37 18  1  0
 37 21  1  0
 34 22  1  0
 32 26  1  0
M  END
>  <MS_ID>  (2125) 
MS2203

>  <SMILES>  (2125) 
C[C@H](CCC(=O)Cc1ccc(O)c(C(=O)O)c1)[C@H]1CC[C@H]2[C@@H]3[C@H](O)C[C@@H]4C[C@H](O)CC[C@]4(C)[C@H]3CC[C@]12C

>  <Structure_dimension>  (2125) 
2D

$$$$
MS2204
     RDKit          2D

 34 37  0  0  0  0  0  0  0  0999 V2000
   -3.0904   -3.0762    0.0000 C   0  0  0  0  0  0  0  0  0  0  0  0
   -2.0817   -1.9661    0.0000 C   0  0  0  0  0  0  0  0  0  0  0  0
   -2.5388   -0.5374    0.0000 C   0  0  0  0  0  0  0  0  0  0  0  0
   -4.0046   -0.2189    0.0000 C   0  0  0  0  0  0  0  0  0  0  0  0
   -4.4616    1.2098    0.0000 C   0  0  0  0  0  0  0  0  0  0  0  0
   -3.4529    2.3199    0.0000 O   0  0  0  0  0  0  0  0  0  0  0  0
   -5.9274    1.5283    0.0000 C   0  0  0  0  0  0  0  0  0  0  0  0
   -5.6089    2.9941    0.0000 C   0  0  0  0  0  0  0  0  0  0  0  0
   -6.2459    0.0625    0.0000 C   0  0  0  0  0  0  0  0  0  0  0  0
   -7.3932    1.8468    0.0000 C   0  0  0  0  0  0  0  0  0  0  0  0
   -8.4020    0.7366    0.0000 C   0  0  0  0  0  0  0  0  0  0  0  0
   -7.9449   -0.6921    0.0000 O   0  0  0  0  0  0  0  0  0  0  0  0
   -9.8678    1.0551    0.0000 O   0  0  0  0  0  0  0  0  0  0  0  0
   -0.6159   -2.2846    0.0000 C   0  0  0  0  0  0  0  0  0  0  0  0
   -0.0120   -3.6576    0.0000 C   0  0  0  0  0  0  0  0  0  0  0  0
    1.4805   -3.5076    0.0000 C   0  0  0  0  0  0  0  0  0  0  0  0
    1.7990   -2.0418    0.0000 C   0  0  0  0  0  0  0  0  0  0  0  0
    3.1014   -1.2977    0.0000 C   0  0  0  0  0  0  0  0  0  0  0  0
    4.3970   -2.0535    0.0000 C   0  0  0  0  0  0  0  0  0  0  0  0
    4.3902   -3.5535    0.0000 O   0  0  0  0  0  0  0  0  0  0  0  0
    5.6994   -1.3094    0.0000 C   0  0  0  0  0  0  0  0  0  0  0  0
    5.7062    0.1906    0.0000 C   0  0  0  0  0  0  0  0  0  0  0  0
    7.0086    0.9347    0.0000 C   0  0  0  0  0  0  0  0  0  0  0  0
    7.0154    2.4347    0.0000 C   0  0  0  0  0  0  0  0  0  0  0  0
    8.3178    3.1788    0.0000 O   0  0  0  0  0  0  0  0  0  0  0  0
    5.7198    3.1905    0.0000 C   0  0  0  0  0  0  0  0  0  0  0  0
    4.4174    2.4464    0.0000 C   0  0  0  0  0  0  0  0  0  0  0  0
    4.4106    0.9464    0.0000 C   0  0  0  0  0  0  0  0  0  0  0  0
    3.1149    1.7023    0.0000 C   0  0  0  0  0  0  0  0  0  0  0  0
    3.1082    0.2023    0.0000 C   0  0  0  0  0  0  0  0  0  0  0  0
    1.8125    0.9582    0.0000 C   0  0  0  0  0  0  0  0  0  0  0  0
    0.5101    0.2141    0.0000 C   0  0  0  0  0  0  0  0  0  0  0  0
    0.5033   -1.2859    0.0000 C   0  0  0  0  0  0  0  0  0  0  0  0
   -0.8642   -0.6696    0.0000 C   0  0  0  0  0  0  0  0  0  0  0  0
  2  1  1  6
  2  3  1  0
  3  4  1  0
  4  5  1  0
  5  6  2  0
  5  7  1  0
  7  8  1  0
  7  9  1  0
  7 10  1  0
 10 11  1  0
 11 12  2  0
 11 13  1  0
  2 14  1  0
 14 15  1  6
 15 16  1  0
 17 16  1  6
 17 18  1  0
 18 19  1  1
 19 20  1  1
 19 21  1  0
 22 21  1  1
 22 23  1  0
 23 24  1  0
 24 25  1  1
 24 26  1  0
 26 27  1  0
 27 28  1  0
 28 29  1  6
 28 30  1  0
 30 31  1  6
 31 32  1  0
 32 33  1  0
 33 34  1  6
 33 14  1  0
 33 17  1  0
 30 18  1  0
 28 22  1  0
M  END
>  <MS_ID>  (2126) 
MS2204

>  <SMILES>  (2126) 
C[C@H](CCC(=O)C(C)(C)CC(=O)O)[C@H]1CC[C@H]2[C@@H]3[C@H](O)C[C@@H]4C[C@H](O)CC[C@]4(C)[C@H]3CC[C@]12C

>  <Structure_dimension>  (2126) 
2D

$$$$
MS2205
     RDKit          2D

 38 42  0  0  0  0  0  0  0  0999 V2000
   -7.9900   -1.9284    0.0000 C   0  0  0  0  0  0  0  0  0  0  0  0
   -6.7950   -1.0219    0.0000 C   0  0  0  0  0  0  0  0  0  0  0  0
   -6.9826    0.4663    0.0000 C   0  0  0  0  0  0  0  0  0  0  0  0
   -8.3652    1.0480    0.0000 C   0  0  0  0  0  0  0  0  0  0  0  0
   -8.5528    2.5362    0.0000 C   0  0  0  0  0  0  0  0  0  0  0  0
   -9.9354    3.1179    0.0000 O   0  0  0  0  0  0  0  0  0  0  0  0
   -5.4124   -1.6035    0.0000 C   0  0  0  0  0  0  0  0  0  0  0  0
   -5.0702   -3.0640    0.0000 C   0  0  0  0  0  0  0  0  0  0  0  0
   -3.5755   -3.1899    0.0000 C   0  0  0  0  0  0  0  0  0  0  0  0
   -2.9939   -1.8073    0.0000 C   0  0  0  0  0  0  0  0  0  0  0  0
   -1.5772   -1.3144    0.0000 C   0  0  0  0  0  0  0  0  0  0  0  0
   -0.4420   -2.2948    0.0000 C   0  0  0  0  0  0  0  0  0  0  0  0
    0.9747   -1.8019    0.0000 C   0  0  0  0  0  0  0  0  0  0  0  0
    1.2562   -0.3286    0.0000 C   0  0  0  0  0  0  0  0  0  0  0  0
    2.6729    0.1643    0.0000 C   0  0  0  0  0  0  0  0  0  0  0  0
    2.9544    1.6377    0.0000 C   0  0  0  0  0  0  0  0  0  0  0  0
    4.3711    2.1306    0.0000 O   0  0  0  0  0  0  0  0  0  0  0  0
    5.5063    1.1501    0.0000 C   0  0  0  0  0  0  0  0  0  0  0  0
    5.2248   -0.3232    0.0000 O   0  0  0  0  0  0  0  0  0  0  0  0
    6.3601   -1.3037    0.0000 C   0  0  0  0  0  0  0  0  0  0  0  0
    6.0786   -2.7770    0.0000 C   0  0  0  0  0  0  0  0  0  0  0  0
    4.6619   -3.2699    0.0000 O   0  0  0  0  0  0  0  0  0  0  0  0
    7.7768   -0.8108    0.0000 C   0  0  0  0  0  0  0  0  0  0  0  0
    8.9120   -1.7912    0.0000 O   0  0  0  0  0  0  0  0  0  0  0  0
    8.0582    0.6626    0.0000 C   0  0  0  0  0  0  0  0  0  0  0  0
    9.4750    1.1555    0.0000 O   0  0  0  0  0  0  0  0  0  0  0  0
    6.9230    1.6430    0.0000 C   0  0  0  0  0  0  0  0  0  0  0  0
    7.2045    3.1164    0.0000 O   0  0  0  0  0  0  0  0  0  0  0  0
    1.8192    2.6181    0.0000 C   0  0  0  0  0  0  0  0  0  0  0  0
    0.4025    2.1252    0.0000 C   0  0  0  0  0  0  0  0  0  0  0  0
    0.1210    0.6519    0.0000 C   0  0  0  0  0  0  0  0  0  0  0  0
   -1.0142    1.6323    0.0000 C   0  0  0  0  0  0  0  0  0  0  0  0
   -1.2957    0.1590    0.0000 C   0  0  0  0  0  0  0  0  0  0  0  0
   -2.4309    1.1394    0.0000 C   0  0  0  0  0  0  0  0  0  0  0  0
   -3.8476    0.6465    0.0000 C   0  0  0  0  0  0  0  0  0  0  0  0
   -4.9828    1.6269    0.0000 O   0  0  0  0  0  0  0  0  0  0  0  0
   -4.1291   -0.8269    0.0000 C   0  0  0  0  0  0  0  0  0  0  0  0
   -5.3606    0.0296    0.0000 C   0  0  0  0  0  0  0  0  0  0  0  0
  2  1  1  6
  2  3  1  0
  3  4  1  0
  4  5  1  0
  5  6  2  0
  2  7  1  0
  7  8  1  6
  8  9  1  0
 10  9  1  6
 10 11  1  0
 11 12  1  1
 12 13  1  0
 14 13  1  1
 14 15  1  0
 15 16  1  0
 16 17  1  1
 18 17  1  1
 18 19  1  0
 19 20  1  0
 20 21  1  1
 21 22  1  0
 20 23  1  0
 23 24  1  6
 23 25  1  0
 25 26  1  1
 25 27  1  0
 27 28  1  6
 16 29  1  0
 29 30  1  0
 30 31  1  0
 31 32  1  6
 31 33  1  0
 33 34  1  6
 34 35  1  0
 35 36  1  1
 35 37  1  0
 37 38  1  6
 37  7  1  0
 37 10  1  0
 33 11  1  0
 31 14  1  0
 27 18  1  0
M  END
>  <MS_ID>  (2127) 
MS2205

>  <SMILES>  (2127) 
C[C@H](CCC=O)[C@H]1CC[C@H]2[C@@H]3CC[C@@H]4C[C@H](O[C@@H]5O[C@H](CO)[C@@H](O)[C@H](O)[C@H]5O)CC[C@]4(C)[C@H]3C[C@H](O)[C@]12C

>  <Structure_dimension>  (2127) 
2D

$$$$
MS2206
     RDKit          2D

 34 37  0  0  0  0  0  0  0  0999 V2000
   -6.9335    4.0535    0.0000 C   0  0  0  0  0  0  0  0  0  0  0  0
   -7.7554    2.7987    0.0000 C   0  0  0  0  0  0  0  0  0  0  0  0
   -7.0796    1.4595    0.0000 S   0  0  0  0  0  0  0  0  0  0  0  0
   -5.7404    2.1353    0.0000 O   0  0  0  0  0  0  0  0  0  0  0  0
   -8.4187    0.7837    0.0000 O   0  0  0  0  0  0  0  0  0  0  0  0
   -6.4038    0.1204    0.0000 N   0  0  0  0  0  0  0  0  0  0  0  0
   -4.9061    0.0361    0.0000 C   0  0  0  0  0  0  0  0  0  0  0  0
   -4.0843    1.2909    0.0000 O   0  0  0  0  0  0  0  0  0  0  0  0
   -4.2303   -1.3031    0.0000 C   0  0  0  0  0  0  0  0  0  0  0  0
   -2.7327   -1.3874    0.0000 C   0  0  0  0  0  0  0  0  0  0  0  0
   -2.0569   -2.7265    0.0000 C   0  0  0  0  0  0  0  0  0  0  0  0
   -2.8787   -3.9813    0.0000 C   0  0  0  0  0  0  0  0  0  0  0  0
   -0.5593   -2.8108    0.0000 C   0  0  0  0  0  0  0  0  0  0  0  0
    0.2528   -4.0720    0.0000 C   0  0  0  0  0  0  0  0  0  0  0  0
    1.7032   -3.6894    0.0000 C   0  0  0  0  0  0  0  0  0  0  0  0
    1.7875   -2.1917    0.0000 C   0  0  0  0  0  0  0  0  0  0  0  0
    2.9569   -1.2523    0.0000 C   0  0  0  0  0  0  0  0  0  0  0  0
    4.3551   -1.7952    0.0000 C   0  0  0  0  0  0  0  0  0  0  0  0
    4.5841   -3.2777    0.0000 O   0  0  0  0  0  0  0  0  0  0  0  0
    5.5245   -0.8558    0.0000 C   0  0  0  0  0  0  0  0  0  0  0  0
    5.2956    0.6267    0.0000 C   0  0  0  0  0  0  0  0  0  0  0  0
    6.4650    1.5661    0.0000 C   0  0  0  0  0  0  0  0  0  0  0  0
    6.2361    3.0485    0.0000 C   0  0  0  0  0  0  0  0  0  0  0  0
    7.4054    3.9880    0.0000 O   0  0  0  0  0  0  0  0  0  0  0  0
    4.8378    3.5915    0.0000 C   0  0  0  0  0  0  0  0  0  0  0  0
    3.6684    2.6521    0.0000 C   0  0  0  0  0  0  0  0  0  0  0  0
    3.8973    1.1696    0.0000 C   0  0  0  0  0  0  0  0  0  0  0  0
    2.4990    1.7126    0.0000 C   0  0  0  0  0  0  0  0  0  0  0  0
    2.7280    0.2302    0.0000 C   0  0  0  0  0  0  0  0  0  0  0  0
    1.3297    0.7731    0.0000 C   0  0  0  0  0  0  0  0  0  0  0  0
    0.1603   -0.1663    0.0000 C   0  0  0  0  0  0  0  0  0  0  0  0
   -1.2380    0.3766    0.0000 O   0  0  0  0  0  0  0  0  0  0  0  0
    0.3892   -1.6488    0.0000 C   0  0  0  0  0  0  0  0  0  0  0  0
   -1.0582   -1.2549    0.0000 C   0  0  0  0  0  0  0  0  0  0  0  0
  1  2  1  0
  2  3  1  0
  3  4  2  0
  3  5  2  0
  3  6  1  0
  6  7  1  0
  7  8  2  0
  7  9  1  0
  9 10  1  0
 10 11  1  0
 11 12  1  6
 11 13  1  0
 13 14  1  6
 14 15  1  0
 16 15  1  6
 16 17  1  0
 17 18  1  1
 18 19  1  1
 18 20  1  0
 21 20  1  1
 21 22  1  0
 22 23  1  0
 23 24  1  1
 23 25  1  0
 25 26  1  0
 26 27  1  0
 27 28  1  6
 27 29  1  0
 29 30  1  6
 30 31  1  0
 31 32  1  1
 31 33  1  0
 33 34  1  6
 33 13  1  0
 33 16  1  0
 29 17  1  0
 27 21  1  0
M  END
>  <MS_ID>  (2128) 
MS2206

>  <SMILES>  (2128) 
CCS(=O)(=O)NC(=O)CC[C@@H](C)[C@H]1CC[C@H]2[C@@H]3[C@H](O)C[C@@H]4C[C@H](O)CC[C@]4(C)[C@H]3C[C@H](O)[C@]12C

>  <Structure_dimension>  (2128) 
2D

$$$$
MS2207
     RDKit          2D

 30 33  0  0  0  0  0  0  0  0999 V2000
   -4.9282   -2.3226    0.0000 C   0  0  0  0  0  0  0  0  0  0  0  0
   -3.7737   -1.3649    0.0000 C   0  0  0  0  0  0  0  0  0  0  0  0
   -4.0259    0.1138    0.0000 C   0  0  0  0  0  0  0  0  0  0  0  0
   -5.4325    0.6347    0.0000 C   0  0  0  0  0  0  0  0  0  0  0  0
   -5.6847    2.1133    0.0000 C   0  0  0  0  0  0  0  0  0  0  0  0
   -4.5303    3.0711    0.0000 O   0  0  0  0  0  0  0  0  0  0  0  0
   -7.0914    2.6342    0.0000 O   0  0  0  0  0  0  0  0  0  0  0  0
   -2.3671   -1.8858    0.0000 C   0  0  0  0  0  0  0  0  0  0  0  0
   -1.9617   -3.3300    0.0000 C   0  0  0  0  0  0  0  0  0  0  0  0
   -0.4629   -3.3907    0.0000 C   0  0  0  0  0  0  0  0  0  0  0  0
    0.0580   -1.9841    0.0000 C   0  0  0  0  0  0  0  0  0  0  0  0
    1.4519   -1.4300    0.0000 C   0  0  0  0  0  0  0  0  0  0  0  0
    2.6287   -2.3601    0.0000 C   0  0  0  0  0  0  0  0  0  0  0  0
    2.4116   -3.8443    0.0000 O   0  0  0  0  0  0  0  0  0  0  0  0
    4.0226   -1.8060    0.0000 C   0  0  0  0  0  0  0  0  0  0  0  0
    4.2397   -0.3218    0.0000 C   0  0  0  0  0  0  0  0  0  0  0  0
    5.6336    0.2323    0.0000 C   0  0  0  0  0  0  0  0  0  0  0  0
    5.8507    1.7166    0.0000 C   0  0  0  0  0  0  0  0  0  0  0  0
    7.2446    2.2707    0.0000 O   0  0  0  0  0  0  0  0  0  0  0  0
    4.6739    2.6467    0.0000 C   0  0  0  0  0  0  0  0  0  0  0  0
    3.2800    2.0925    0.0000 C   0  0  0  0  0  0  0  0  0  0  0  0
    3.0629    0.6083    0.0000 C   0  0  0  0  0  0  0  0  0  0  0  0
    1.8861    1.5384    0.0000 C   0  0  0  0  0  0  0  0  0  0  0  0
    1.6690    0.0542    0.0000 C   0  0  0  0  0  0  0  0  0  0  0  0
    0.4922    0.9843    0.0000 C   0  0  0  0  0  0  0  0  0  0  0  0
   -0.9017    0.4302    0.0000 C   0  0  0  0  0  0  0  0  0  0  0  0
   -2.0786    1.3603    0.0000 C   0  0  0  0  0  0  0  0  0  0  0  0
   -1.8615    2.8445    0.0000 O   0  0  0  0  0  0  0  0  0  0  0  0
   -1.1188   -1.0540    0.0000 C   0  0  0  0  0  0  0  0  0  0  0  0
   -2.3864   -0.2520    0.0000 C   0  0  0  0  0  0  0  0  0  0  0  0
  2  1  1  6
  2  3  1  0
  3  4  1  0
  4  5  1  0
  5  6  2  0
  5  7  1  0
  2  8  1  0
  8  9  1  6
  9 10  1  0
 11 10  1  6
 11 12  1  0
 12 13  1  1
 13 14  2  0
 13 15  1  0
 16 15  1  1
 16 17  1  0
 17 18  1  0
 18 19  1  1
 18 20  1  0
 20 21  1  0
 21 22  1  0
 22 23  1  6
 22 24  1  0
 24 25  1  6
 25 26  1  0
 26 27  1  1
 27 28  1  0
 26 29  1  0
 29 30  1  6
 29  8  1  0
 29 11  1  0
 24 12  1  0
 22 16  1  0
M  END
>  <MS_ID>  (2129) 
MS2207

>  <SMILES>  (2129) 
C[C@H](CCC(=O)O)[C@H]1CC[C@H]2[C@@H]3C(=O)C[C@@H]4C[C@H](O)CC[C@]4(C)[C@H]3C[C@H](CO)[C@]12C

>  <Structure_dimension>  (2129) 
2D

$$$$
MS2208
     RDKit          2D

 27 30  0  0  0  0  0  0  0  0999 V2000
   -5.3897   -1.6258    0.0000 C   0  0  0  0  0  0  0  0  0  0  0  0
   -4.1621   -0.7638    0.0000 C   0  0  0  0  0  0  0  0  0  0  0  0
   -4.2949    0.7303    0.0000 C   0  0  0  0  0  0  0  0  0  0  0  0
   -5.6552    1.3624    0.0000 C   0  0  0  0  0  0  0  0  0  0  0  0
   -5.7879    2.8565    0.0000 C   0  0  0  0  0  0  0  0  0  0  0  0
   -7.1482    3.4887    0.0000 O   0  0  0  0  0  0  0  0  0  0  0  0
   -2.8018   -1.3960    0.0000 C   0  0  0  0  0  0  0  0  0  0  0  0
   -2.5137   -2.8680    0.0000 C   0  0  0  0  0  0  0  0  0  0  0  0
   -1.0246   -3.0489    0.0000 C   0  0  0  0  0  0  0  0  0  0  0  0
   -0.3925   -1.6886    0.0000 C   0  0  0  0  0  0  0  0  0  0  0  0
    1.0414   -1.2481    0.0000 C   0  0  0  0  0  0  0  0  0  0  0  0
    2.1398   -2.2697    0.0000 C   0  0  0  0  0  0  0  0  0  0  0  0
    1.8043   -3.7317    0.0000 O   0  0  0  0  0  0  0  0  0  0  0  0
    3.5736   -1.8292    0.0000 C   0  0  0  0  0  0  0  0  0  0  0  0
    3.9091   -0.3672    0.0000 C   0  0  0  0  0  0  0  0  0  0  0  0
    5.3430    0.0733    0.0000 C   0  0  0  0  0  0  0  0  0  0  0  0
    5.6785    1.5353    0.0000 C   0  0  0  0  0  0  0  0  0  0  0  0
    7.1124    1.9757    0.0000 O   0  0  0  0  0  0  0  0  0  0  0  0
    4.5801    2.5568    0.0000 C   0  0  0  0  0  0  0  0  0  0  0  0
    3.1462    2.1163    0.0000 C   0  0  0  0  0  0  0  0  0  0  0  0
    2.8107    0.6543    0.0000 C   0  0  0  0  0  0  0  0  0  0  0  0
    1.7124    1.6759    0.0000 C   0  0  0  0  0  0  0  0  0  0  0  0
    1.3769    0.2139    0.0000 C   0  0  0  0  0  0  0  0  0  0  0  0
    0.2785    1.2354    0.0000 C   0  0  0  0  0  0  0  0  0  0  0  0
   -1.1554    0.7950    0.0000 C   0  0  0  0  0  0  0  0  0  0  0  0
   -1.4909   -0.6670    0.0000 C   0  0  0  0  0  0  0  0  0  0  0  0
   -2.6900    0.2341    0.0000 C   0  0  0  0  0  0  0  0  0  0  0  0
  2  1  1  6
  2  3  1  0
  3  4  1  0
  4  5  1  0
  5  6  2  0
  2  7  1  0
  7  8  1  6
  8  9  1  0
 10  9  1  6
 10 11  1  0
 11 12  1  1
 12 13  1  1
 12 14  1  0
 15 14  1  1
 15 16  1  0
 16 17  1  0
 17 18  1  6
 17 19  1  0
 19 20  1  0
 20 21  1  0
 21 22  1  6
 21 23  1  0
 23 24  1  6
 24 25  1  0
 25 26  1  0
 26 27  1  6
 26  7  1  0
 26 10  1  0
 23 11  1  0
 21 15  1  0
M  END
>  <MS_ID>  (2130) 
MS2208

>  <SMILES>  (2130) 
C[C@H](CCC=O)[C@H]1CC[C@H]2[C@@H]3[C@H](O)C[C@@H]4C[C@@H](O)CC[C@]4(C)[C@H]3CC[C@]12C

>  <Structure_dimension>  (2130) 
2D

$$$$
MS2209
     RDKit          2D

 34 37  0  0  0  0  0  0  0  0999 V2000
   -2.7692   -3.9261    0.0000 C   0  0  0  0  0  0  0  0  0  0  0  0
   -1.9736   -2.6545    0.0000 C   0  0  0  0  0  0  0  0  0  0  0  0
   -2.6771   -1.3297    0.0000 C   0  0  0  0  0  0  0  0  0  0  0  0
   -4.1761   -1.2765    0.0000 C   0  0  0  0  0  0  0  0  0  0  0  0
   -4.8796    0.0483    0.0000 C   0  0  0  0  0  0  0  0  0  0  0  0
   -4.0841    1.3199    0.0000 O   0  0  0  0  0  0  0  0  0  0  0  0
   -6.3787    0.1014    0.0000 C   0  0  0  0  0  0  0  0  0  0  0  0
   -7.0822    1.4263    0.0000 C   0  0  0  0  0  0  0  0  0  0  0  0
   -8.5812    1.4794    0.0000 C   0  0  0  0  0  0  0  0  0  0  0  0
   -9.3768    0.2078    0.0000 O   0  0  0  0  0  0  0  0  0  0  0  0
   -9.2847    2.8042    0.0000 C   0  0  0  0  0  0  0  0  0  0  0  0
  -10.7838    2.8574    0.0000 O   0  0  0  0  0  0  0  0  0  0  0  0
   -0.4745   -2.7076    0.0000 C   0  0  0  0  0  0  0  0  0  0  0  0
    0.3636   -3.9516    0.0000 C   0  0  0  0  0  0  0  0  0  0  0  0
    1.8057   -3.5390    0.0000 C   0  0  0  0  0  0  0  0  0  0  0  0
    1.8589   -2.0399    0.0000 C   0  0  0  0  0  0  0  0  0  0  0  0
    3.0084   -1.0763    0.0000 C   0  0  0  0  0  0  0  0  0  0  0  0
    4.4177   -1.5901    0.0000 C   0  0  0  0  0  0  0  0  0  0  0  0
    4.6774   -3.0675    0.0000 O   0  0  0  0  0  0  0  0  0  0  0  0
    5.5673   -0.6266    0.0000 C   0  0  0  0  0  0  0  0  0  0  0  0
    6.9766   -1.1404    0.0000 O   0  0  0  0  0  0  0  0  0  0  0  0
    5.3076    0.8508    0.0000 C   0  0  0  0  0  0  0  0  0  0  0  0
    6.4572    1.8144    0.0000 C   0  0  0  0  0  0  0  0  0  0  0  0
    6.1975    3.2917    0.0000 C   0  0  0  0  0  0  0  0  0  0  0  0
    7.3471    4.2553    0.0000 O   0  0  0  0  0  0  0  0  0  0  0  0
    4.7883    3.8055    0.0000 C   0  0  0  0  0  0  0  0  0  0  0  0
    3.6387    2.8419    0.0000 C   0  0  0  0  0  0  0  0  0  0  0  0
    3.8984    1.3646    0.0000 C   0  0  0  0  0  0  0  0  0  0  0  0
    2.4891    1.8784    0.0000 C   0  0  0  0  0  0  0  0  0  0  0  0
    2.7488    0.4010    0.0000 C   0  0  0  0  0  0  0  0  0  0  0  0
    1.3395    0.9148    0.0000 C   0  0  0  0  0  0  0  0  0  0  0  0
    0.1899   -0.0488    0.0000 C   0  0  0  0  0  0  0  0  0  0  0  0
    0.4496   -1.5261    0.0000 C   0  0  0  0  0  0  0  0  0  0  0  0
   -1.0056   -1.1624    0.0000 C   0  0  0  0  0  0  0  0  0  0  0  0
  2  1  1  6
  2  3  1  0
  3  4  1  0
  4  5  1  0
  5  6  2  0
  5  7  1  0
  7  8  1  0
  8  9  1  0
  9 10  2  0
  9 11  1  0
 11 12  1  0
  2 13  1  0
 13 14  1  6
 14 15  1  0
 16 15  1  6
 16 17  1  0
 17 18  1  1
 18 19  1  1
 18 20  1  0
 20 21  1  1
 20 22  1  0
 22 23  1  1
 23 24  1  0
 24 25  1  1
 24 26  1  0
 26 27  1  0
 27 28  1  0
 28 29  1  6
 28 30  1  0
 30 31  1  6
 31 32  1  0
 32 33  1  0
 33 34  1  6
 33 13  1  0
 33 16  1  0
 30 17  1  0
 28 22  1  0
M  END
>  <MS_ID>  (2131) 
MS2209

>  <SMILES>  (2131) 
C[C@H](CCC(=O)CCC(=O)CO)[C@H]1CC[C@H]2[C@@H]3[C@H](O)[C@H](O)[C@@H]4C[C@H](O)CC[C@]4(C)[C@H]3CC[C@]12C

>  <Structure_dimension>  (2131) 
2D

$$$$
MS2210
     RDKit          2D

 40 45  0  0  0  0  0  0  0  0999 V2000
    0.7219   -5.2169    0.0000 C   0  0  0  0  0  0  0  0  0  0  0  0
    1.0447   -3.7520    0.0000 C   0  0  0  0  0  0  0  0  0  0  0  0
   -0.0625   -2.7400    0.0000 C   0  0  0  0  0  0  0  0  0  0  0  0
   -1.4925   -3.1929    0.0000 C   0  0  0  0  0  0  0  0  0  0  0  0
   -2.5997   -2.1809    0.0000 C   0  0  0  0  0  0  0  0  0  0  0  0
   -2.2768   -0.7160    0.0000 O   0  0  0  0  0  0  0  0  0  0  0  0
   -4.0297   -2.6337    0.0000 N   0  0  0  0  0  0  0  0  0  0  0  0
   -5.1369   -1.6217    0.0000 C   0  0  0  0  0  0  0  0  0  0  0  0
   -4.8140   -0.1569    0.0000 C   0  0  0  0  0  0  0  0  0  0  0  0
   -5.9212    0.8551    0.0000 C   0  0  0  0  0  0  0  0  0  0  0  0
   -7.3512    0.4023    0.0000 C   0  0  0  0  0  0  0  0  0  0  0  0
   -8.4584    1.4143    0.0000 N   0  0  0  0  0  0  0  0  0  0  0  0
   -8.1356    2.8791    0.0000 C   0  0  0  0  0  0  0  0  0  0  0  0
   -9.2428    3.8911    0.0000 C   0  0  0  0  0  0  0  0  0  0  0  0
  -10.6728    3.4383    0.0000 O   0  0  0  0  0  0  0  0  0  0  0  0
  -10.9956    1.9734    0.0000 C   0  0  0  0  0  0  0  0  0  0  0  0
   -9.8884    0.9614    0.0000 C   0  0  0  0  0  0  0  0  0  0  0  0
   -7.6740   -1.0626    0.0000 C   0  0  0  0  0  0  0  0  0  0  0  0
   -6.5669   -2.0746    0.0000 C   0  0  0  0  0  0  0  0  0  0  0  0
    2.4747   -3.2992    0.0000 C   0  0  0  0  0  0  0  0  0  0  0  0
    3.6816   -4.1899    0.0000 C   0  0  0  0  0  0  0  0  0  0  0  0
    4.9017   -3.3173    0.0000 C   0  0  0  0  0  0  0  0  0  0  0  0
    4.4489   -1.8873    0.0000 C   0  0  0  0  0  0  0  0  0  0  0  0
    5.2086   -0.5939    0.0000 C   0  0  0  0  0  0  0  0  0  0  0  0
    6.7085   -0.6051    0.0000 C   0  0  0  0  0  0  0  0  0  0  0  0
    7.4488   -1.9097    0.0000 O   0  0  0  0  0  0  0  0  0  0  0  0
    7.4682    0.6883    0.0000 C   0  0  0  0  0  0  0  0  0  0  0  0
    6.7279    1.9929    0.0000 C   0  0  0  0  0  0  0  0  0  0  0  0
    7.4876    3.2863    0.0000 C   0  0  0  0  0  0  0  0  0  0  0  0
    6.7474    4.5909    0.0000 C   0  0  0  0  0  0  0  0  0  0  0  0
    7.5070    5.8843    0.0000 O   0  0  0  0  0  0  0  0  0  0  0  0
    5.2474    4.6021    0.0000 C   0  0  0  0  0  0  0  0  0  0  0  0
    4.4877    3.3087    0.0000 C   0  0  0  0  0  0  0  0  0  0  0  0
    5.2280    2.0041    0.0000 C   0  0  0  0  0  0  0  0  0  0  0  0
    3.7280    2.0153    0.0000 C   0  0  0  0  0  0  0  0  0  0  0  0
    4.4683    0.7107    0.0000 C   0  0  0  0  0  0  0  0  0  0  0  0
    2.9683    0.7219    0.0000 C   0  0  0  0  0  0  0  0  0  0  0  0
    2.2086   -0.5715    0.0000 C   0  0  0  0  0  0  0  0  0  0  0  0
    2.9489   -1.8761    0.0000 C   0  0  0  0  0  0  0  0  0  0  0  0
    1.4560   -2.0217    0.0000 C   0  0  0  0  0  0  0  0  0  0  0  0
  2  1  1  6
  2  3  1  0
  3  4  1  0
  4  5  1  0
  5  6  2  0
  5  7  1  0
  7  8  1  0
  8  9  2  0
  9 10  1  0
 10 11  2  0
 11 12  1  0
 12 13  1  0
 13 14  1  0
 14 15  1  0
 15 16  1  0
 16 17  1  0
 11 18  1  0
 18 19  2  0
  2 20  1  0
 20 21  1  6
 21 22  1  0
 23 22  1  6
 23 24  1  0
 24 25  1  1
 25 26  1  1
 25 27  1  0
 28 27  1  1
 28 29  1  0
 29 30  1  0
 30 31  1  1
 30 32  1  0
 32 33  1  0
 33 34  1  0
 34 35  1  6
 34 36  1  0
 36 37  1  6
 37 38  1  0
 38 39  1  0
 39 40  1  6
 19  8  1  0
 39 20  1  0
 17 12  1  0
 39 23  1  0
 36 24  1  0
 34 28  1  0
M  END
>  <MS_ID>  (2132) 
MS2210

>  <SMILES>  (2132) 
C[C@H](CCC(=O)Nc1ccc(N2CCOCC2)cc1)[C@H]1CC[C@H]2[C@@H]3[C@H](O)C[C@@H]4C[C@H](O)CC[C@]4(C)[C@H]3CC[C@]12C

>  <Structure_dimension>  (2132) 
2D

$$$$
MS2211
     RDKit          2D

 36 40  0  0  0  0  0  0  0  0999 V2000
   -1.8126   -4.4420    0.0000 C   0  0  0  0  0  0  0  0  0  0  0  0
   -1.1323   -3.1052    0.0000 C   0  0  0  0  0  0  0  0  0  0  0  0
   -1.9499   -1.8476    0.0000 C   0  0  0  0  0  0  0  0  0  0  0  0
   -3.4478   -1.9269    0.0000 C   0  0  0  0  0  0  0  0  0  0  0  0
   -4.2654   -0.6693    0.0000 C   0  0  0  0  0  0  0  0  0  0  0  0
   -3.5851    0.6676    0.0000 O   0  0  0  0  0  0  0  0  0  0  0  0
   -5.7633   -0.7486    0.0000 N   0  0  0  0  0  0  0  0  0  0  0  0
   -6.5809    0.5090    0.0000 C   0  0  0  0  0  0  0  0  0  0  0  0
   -5.9006    1.8459    0.0000 C   0  0  0  0  0  0  0  0  0  0  0  0
   -6.7182    3.1035    0.0000 C   0  0  0  0  0  0  0  0  0  0  0  0
   -8.2162    3.0242    0.0000 C   0  0  0  0  0  0  0  0  0  0  0  0
   -8.8964    1.6873    0.0000 C   0  0  0  0  0  0  0  0  0  0  0  0
  -10.3943    1.6080    0.0000 F   0  0  0  0  0  0  0  0  0  0  0  0
   -8.0788    0.4297    0.0000 C   0  0  0  0  0  0  0  0  0  0  0  0
    0.3656   -3.0259    0.0000 C   0  0  0  0  0  0  0  0  0  0  0  0
    1.3102   -4.1911    0.0000 C   0  0  0  0  0  0  0  0  0  0  0  0
    2.7103   -3.6528    0.0000 C   0  0  0  0  0  0  0  0  0  0  0  0
    2.6310   -2.1549    0.0000 C   0  0  0  0  0  0  0  0  0  0  0  0
    3.6911   -1.0937    0.0000 C   0  0  0  0  0  0  0  0  0  0  0  0
    5.1402   -1.4812    0.0000 C   0  0  0  0  0  0  0  0  0  0  0  0
    5.5292   -2.9299    0.0000 O   0  0  0  0  0  0  0  0  0  0  0  0
    6.2003   -0.4200    0.0000 C   0  0  0  0  0  0  0  0  0  0  0  0
    5.8113    1.0287    0.0000 C   0  0  0  0  0  0  0  0  0  0  0  0
    6.8714    2.0899    0.0000 C   0  0  0  0  0  0  0  0  0  0  0  0
    6.4825    3.5386    0.0000 C   0  0  0  0  0  0  0  0  0  0  0  0
    7.5426    4.5998    0.0000 O   0  0  0  0  0  0  0  0  0  0  0  0
    5.0334    3.9261    0.0000 C   0  0  0  0  0  0  0  0  0  0  0  0
    3.9733    2.8649    0.0000 C   0  0  0  0  0  0  0  0  0  0  0  0
    4.3622    1.4162    0.0000 C   0  0  0  0  0  0  0  0  0  0  0  0
    2.9132    1.8036    0.0000 C   0  0  0  0  0  0  0  0  0  0  0  0
    3.3021    0.3550    0.0000 C   0  0  0  0  0  0  0  0  0  0  0  0
    1.8530    0.7424    0.0000 C   0  0  0  0  0  0  0  0  0  0  0  0
    0.7929   -0.3188    0.0000 C   0  0  0  0  0  0  0  0  0  0  0  0
   -0.6561    0.0687    0.0000 O   0  0  0  0  0  0  0  0  0  0  0  0
    1.1819   -1.7675    0.0000 C   0  0  0  0  0  0  0  0  0  0  0  0
   -0.2997   -1.5336    0.0000 C   0  0  0  0  0  0  0  0  0  0  0  0
  2  1  1  6
  2  3  1  0
  3  4  1  0
  4  5  1  0
  5  6  2  0
  5  7  1  0
  7  8  1  0
  8  9  2  0
  9 10  1  0
 10 11  2  0
 11 12  1  0
 12 13  1  0
 12 14  2  0
  2 15  1  0
 15 16  1  6
 16 17  1  0
 18 17  1  6
 18 19  1  0
 19 20  1  1
 20 21  1  1
 20 22  1  0
 23 22  1  1
 23 24  1  0
 24 25  1  0
 25 26  1  1
 25 27  1  0
 27 28  1  0
 28 29  1  0
 29 30  1  6
 29 31  1  0
 31 32  1  6
 32 33  1  0
 33 34  1  1
 33 35  1  0
 35 36  1  6
 14  8  1  0
 35 15  1  0
 35 18  1  0
 31 19  1  0
 29 23  1  0
M  END
>  <MS_ID>  (2133) 
MS2211

>  <SMILES>  (2133) 
C[C@H](CCC(=O)Nc1cccc(F)c1)[C@H]1CC[C@H]2[C@@H]3[C@H](O)C[C@@H]4C[C@H](O)CC[C@]4(C)[C@H]3C[C@H](O)[C@]12C

>  <Structure_dimension>  (2133) 
2D

$$$$
MS2212
     RDKit          2D

 35 39  0  0  0  0  0  0  0  0999 V2000
   -2.2319   -4.3352    0.0000 C   0  0  0  0  0  0  0  0  0  0  0  0
   -1.5144   -3.0180    0.0000 C   0  0  0  0  0  0  0  0  0  0  0  0
   -2.2965   -1.7380    0.0000 C   0  0  0  0  0  0  0  0  0  0  0  0
   -3.7960   -1.7752    0.0000 C   0  0  0  0  0  0  0  0  0  0  0  0
   -4.5781   -0.4952    0.0000 C   0  0  0  0  0  0  0  0  0  0  0  0
   -3.8606    0.8220    0.0000 O   0  0  0  0  0  0  0  0  0  0  0  0
   -6.0776   -0.5325    0.0000 N   0  0  0  0  0  0  0  0  0  0  0  0
   -6.8597    0.7475    0.0000 C   0  0  0  0  0  0  0  0  0  0  0  0
   -6.1422    2.0648    0.0000 C   0  0  0  0  0  0  0  0  0  0  0  0
   -6.9242    3.3448    0.0000 N   0  0  0  0  0  0  0  0  0  0  0  0
   -8.4238    3.3075    0.0000 C   0  0  0  0  0  0  0  0  0  0  0  0
   -9.1412    1.9902    0.0000 N   0  0  0  0  0  0  0  0  0  0  0  0
   -8.3592    0.7102    0.0000 C   0  0  0  0  0  0  0  0  0  0  0  0
   -0.0149   -2.9807    0.0000 C   0  0  0  0  0  0  0  0  0  0  0  0
    0.8967   -4.1719    0.0000 C   0  0  0  0  0  0  0  0  0  0  0  0
    2.3113   -3.6731    0.0000 C   0  0  0  0  0  0  0  0  0  0  0  0
    2.2740   -2.1736    0.0000 C   0  0  0  0  0  0  0  0  0  0  0  0
    3.3634   -1.1425    0.0000 C   0  0  0  0  0  0  0  0  0  0  0  0
    4.8011   -1.5704    0.0000 C   0  0  0  0  0  0  0  0  0  0  0  0
    5.1493   -3.0294    0.0000 O   0  0  0  0  0  0  0  0  0  0  0  0
    5.8905   -0.5393    0.0000 C   0  0  0  0  0  0  0  0  0  0  0  0
    5.5423    0.9197    0.0000 C   0  0  0  0  0  0  0  0  0  0  0  0
    6.6317    1.9508    0.0000 C   0  0  0  0  0  0  0  0  0  0  0  0
    6.2835    3.4098    0.0000 C   0  0  0  0  0  0  0  0  0  0  0  0
    7.3729    4.4409    0.0000 O   0  0  0  0  0  0  0  0  0  0  0  0
    4.8458    3.8377    0.0000 C   0  0  0  0  0  0  0  0  0  0  0  0
    3.7564    2.8066    0.0000 C   0  0  0  0  0  0  0  0  0  0  0  0
    4.1046    1.3476    0.0000 C   0  0  0  0  0  0  0  0  0  0  0  0
    2.6670    1.7755    0.0000 C   0  0  0  0  0  0  0  0  0  0  0  0
    3.0152    0.3165    0.0000 C   0  0  0  0  0  0  0  0  0  0  0  0
    1.5776    0.7445    0.0000 C   0  0  0  0  0  0  0  0  0  0  0  0
    0.4881   -0.2866    0.0000 C   0  0  0  0  0  0  0  0  0  0  0  0
   -0.9495    0.1413    0.0000 O   0  0  0  0  0  0  0  0  0  0  0  0
    0.8363   -1.7456    0.0000 C   0  0  0  0  0  0  0  0  0  0  0  0
   -0.6382   -1.4703    0.0000 C   0  0  0  0  0  0  0  0  0  0  0  0
  2  1  1  6
  2  3  1  0
  3  4  1  0
  4  5  1  0
  5  6  2  0
  5  7  1  0
  7  8  1  0
  8  9  2  0
  9 10  1  0
 10 11  2  0
 11 12  1  0
 12 13  2  0
  2 14  1  0
 14 15  1  6
 15 16  1  0
 17 16  1  6
 17 18  1  0
 18 19  1  1
 19 20  1  1
 19 21  1  0
 22 21  1  1
 22 23  1  0
 23 24  1  0
 24 25  1  1
 24 26  1  0
 26 27  1  0
 27 28  1  0
 28 29  1  6
 28 30  1  0
 30 31  1  6
 31 32  1  0
 32 33  1  1
 32 34  1  0
 34 35  1  6
 13  8  1  0
 34 14  1  0
 34 17  1  0
 30 18  1  0
 28 22  1  0
M  END
>  <MS_ID>  (2134) 
MS2212

>  <SMILES>  (2134) 
C[C@H](CCC(=O)Nc1cncnc1)[C@H]1CC[C@H]2[C@@H]3[C@H](O)C[C@@H]4C[C@H](O)CC[C@]4(C)[C@H]3C[C@H](O)[C@]12C

>  <Structure_dimension>  (2134) 
2D

$$$$
MS2213
     RDKit          2D

 37 40  0  0  0  0  0  0  0  0999 V2000
   -0.5127   -4.5401    0.0000 C   0  0  0  0  0  0  0  0  0  0  0  0
    0.0866   -3.1650    0.0000 C   0  0  0  0  0  0  0  0  0  0  0  0
   -0.8046   -1.9584    0.0000 C   0  0  0  0  0  0  0  0  0  0  0  0
   -2.2951   -2.1269    0.0000 C   0  0  0  0  0  0  0  0  0  0  0  0
   -3.1863   -0.9204    0.0000 C   0  0  0  0  0  0  0  0  0  0  0  0
   -2.5869    0.4547    0.0000 O   0  0  0  0  0  0  0  0  0  0  0  0
   -4.6768   -1.0889    0.0000 N   0  0  0  0  0  0  0  0  0  0  0  0
   -5.5679    0.1177    0.0000 C   0  0  0  0  0  0  0  0  0  0  0  0
   -7.0584   -0.0508    0.0000 C   0  0  0  0  0  0  0  0  0  0  0  0
   -7.6578   -1.4258    0.0000 O   0  0  0  0  0  0  0  0  0  0  0  0
   -7.9496    1.1558    0.0000 O   0  0  0  0  0  0  0  0  0  0  0  0
   -9.4401    0.9873    0.0000 C   0  0  0  0  0  0  0  0  0  0  0  0
  -10.3313    2.1939    0.0000 C   0  0  0  0  0  0  0  0  0  0  0  0
  -11.8218    2.0254    0.0000 C   0  0  0  0  0  0  0  0  0  0  0  0
  -12.4211    0.6503    0.0000 O   0  0  0  0  0  0  0  0  0  0  0  0
  -12.7130    3.2319    0.0000 O   0  0  0  0  0  0  0  0  0  0  0  0
    1.5771   -2.9965    0.0000 C   0  0  0  0  0  0  0  0  0  0  0  0
    2.5895   -4.1033    0.0000 C   0  0  0  0  0  0  0  0  0  0  0  0
    3.9550   -3.4825    0.0000 C   0  0  0  0  0  0  0  0  0  0  0  0
    3.7865   -1.9920    0.0000 C   0  0  0  0  0  0  0  0  0  0  0  0
    4.7814   -0.8694    0.0000 C   0  0  0  0  0  0  0  0  0  0  0  0
    6.2511   -1.1697    0.0000 C   0  0  0  0  0  0  0  0  0  0  0  0
    6.7258   -2.5926    0.0000 O   0  0  0  0  0  0  0  0  0  0  0  0
    7.2460   -0.0472    0.0000 C   0  0  0  0  0  0  0  0  0  0  0  0
    6.7713    1.3757    0.0000 C   0  0  0  0  0  0  0  0  0  0  0  0
    7.7662    2.4983    0.0000 C   0  0  0  0  0  0  0  0  0  0  0  0
    7.2915    3.9212    0.0000 C   0  0  0  0  0  0  0  0  0  0  0  0
    8.2864    5.0438    0.0000 O   0  0  0  0  0  0  0  0  0  0  0  0
    5.8218    4.2215    0.0000 C   0  0  0  0  0  0  0  0  0  0  0  0
    4.8269    3.0990    0.0000 C   0  0  0  0  0  0  0  0  0  0  0  0
    5.3016    1.6761    0.0000 C   0  0  0  0  0  0  0  0  0  0  0  0
    3.8320    1.9764    0.0000 C   0  0  0  0  0  0  0  0  0  0  0  0
    4.3067    0.5535    0.0000 C   0  0  0  0  0  0  0  0  0  0  0  0
    2.8371    0.8539    0.0000 C   0  0  0  0  0  0  0  0  0  0  0  0
    1.8422   -0.2687    0.0000 C   0  0  0  0  0  0  0  0  0  0  0  0
    2.3169   -1.6916    0.0000 C   0  0  0  0  0  0  0  0  0  0  0  0
    0.8239   -1.5465    0.0000 C   0  0  0  0  0  0  0  0  0  0  0  0
  2  1  1  6
  2  3  1  0
  3  4  1  0
  4  5  1  0
  5  6  2  0
  5  7  1  0
  7  8  1  0
  8  9  1  0
  9 10  2  0
  9 11  1  0
 11 12  1  0
 12 13  1  0
 13 14  1  0
 14 15  2  0
 14 16  1  0
  2 17  1  0
 17 18  1  6
 18 19  1  0
 20 19  1  6
 20 21  1  0
 21 22  1  1
 22 23  1  6
 22 24  1  0
 25 24  1  1
 25 26  1  0
 26 27  1  0
 27 28  1  1
 27 29  1  0
 29 30  1  0
 30 31  1  0
 31 32  1  6
 31 33  1  0
 33 34  1  6
 34 35  1  0
 35 36  1  0
 36 37  1  6
 36 17  1  0
 36 20  1  0
 33 21  1  0
 31 25  1  0
M  END
>  <MS_ID>  (2135) 
MS2213

>  <SMILES>  (2135) 
C[C@H](CCC(=O)NCC(=O)OCCC(=O)O)[C@H]1CC[C@H]2[C@@H]3[C@@H](O)C[C@@H]4C[C@H](O)CC[C@]4(C)[C@H]3CC[C@]12C

>  <Structure_dimension>  (2135) 
2D

$$$$
MS2214
     RDKit          2D

 32 35  0  0  0  0  0  0  0  0999 V2000
   -2.8513   -3.7397    0.0000 C   0  0  0  0  0  0  0  0  0  0  0  0
   -2.0337   -2.4821    0.0000 C   0  0  0  0  0  0  0  0  0  0  0  0
   -2.7141   -1.1453    0.0000 C   0  0  0  0  0  0  0  0  0  0  0  0
   -4.2120   -1.0661    0.0000 C   0  0  0  0  0  0  0  0  0  0  0  0
   -4.8923    0.2708    0.0000 C   0  0  0  0  0  0  0  0  0  0  0  0
   -4.0748    1.5284    0.0000 O   0  0  0  0  0  0  0  0  0  0  0  0
   -6.3902    0.3500    0.0000 N   0  0  0  0  0  0  0  0  0  0  0  0
   -7.0706    1.6869    0.0000 S   0  0  0  0  0  0  0  0  0  0  0  0
   -8.4074    1.0065    0.0000 O   0  0  0  0  0  0  0  0  0  0  0  0
   -5.7337    2.3672    0.0000 O   0  0  0  0  0  0  0  0  0  0  0  0
   -7.7509    3.0237    0.0000 O   0  0  0  0  0  0  0  0  0  0  0  0
   -0.5358   -2.5613    0.0000 C   0  0  0  0  0  0  0  0  0  0  0  0
    0.2805   -3.8197    0.0000 C   0  0  0  0  0  0  0  0  0  0  0  0
    1.7296   -3.4322    0.0000 C   0  0  0  0  0  0  0  0  0  0  0  0
    1.8088   -1.9343    0.0000 C   0  0  0  0  0  0  0  0  0  0  0  0
    2.9750   -0.9909    0.0000 C   0  0  0  0  0  0  0  0  0  0  0  0
    4.3751   -1.5291    0.0000 C   0  0  0  0  0  0  0  0  0  0  0  0
    4.6090   -3.0108    0.0000 O   0  0  0  0  0  0  0  0  0  0  0  0
    5.5413   -0.5857    0.0000 C   0  0  0  0  0  0  0  0  0  0  0  0
    5.3073    0.8959    0.0000 C   0  0  0  0  0  0  0  0  0  0  0  0
    6.4735    1.8394    0.0000 C   0  0  0  0  0  0  0  0  0  0  0  0
    6.2396    3.3210    0.0000 C   0  0  0  0  0  0  0  0  0  0  0  0
    4.8395    3.8592    0.0000 C   0  0  0  0  0  0  0  0  0  0  0  0
    3.6733    2.9158    0.0000 C   0  0  0  0  0  0  0  0  0  0  0  0
    3.9072    1.4342    0.0000 C   0  0  0  0  0  0  0  0  0  0  0  0
    2.5071    1.9724    0.0000 C   0  0  0  0  0  0  0  0  0  0  0  0
    2.7411    0.4908    0.0000 C   0  0  0  0  0  0  0  0  0  0  0  0
    1.3409    1.0290    0.0000 C   0  0  0  0  0  0  0  0  0  0  0  0
    0.1748    0.0856    0.0000 C   0  0  0  0  0  0  0  0  0  0  0  0
   -1.2253    0.6238    0.0000 O   0  0  0  0  0  0  0  0  0  0  0  0
    0.4087   -1.3961    0.0000 C   0  0  0  0  0  0  0  0  0  0  0  0
   -1.0400   -1.0072    0.0000 C   0  0  0  0  0  0  0  0  0  0  0  0
  2  1  1  6
  2  3  1  0
  3  4  1  0
  4  5  1  0
  5  6  2  0
  5  7  1  0
  7  8  1  0
  8  9  2  0
  8 10  2  0
  8 11  1  0
  2 12  1  0
 12 13  1  6
 13 14  1  0
 15 14  1  6
 15 16  1  0
 16 17  1  1
 17 18  1  1
 17 19  1  0
 20 19  1  1
 20 21  1  0
 21 22  1  0
 22 23  1  0
 23 24  1  0
 24 25  1  0
 25 26  1  6
 25 27  1  0
 27 28  1  6
 28 29  1  0
 29 30  1  6
 29 31  1  0
 31 32  1  6
 31 12  1  0
 31 15  1  0
 27 16  1  0
 25 20  1  0
M  END
>  <MS_ID>  (2136) 
MS2214

>  <SMILES>  (2136) 
C[C@H](CCC(=O)NS(=O)(=O)O)[C@H]1CC[C@H]2[C@@H]3[C@H](O)C[C@@H]4CCCC[C@]4(C)[C@H]3C[C@@H](O)[C@]12C

>  <Structure_dimension>  (2136) 
2D

$$$$
MS2215
     RDKit          2D

 38 42  0  0  0  0  0  0  0  0999 V2000
   -7.6579   -2.1621    0.0000 C   0  0  0  0  0  0  0  0  0  0  0  0
   -6.4696   -1.2467    0.0000 C   0  0  0  0  0  0  0  0  0  0  0  0
   -6.6682    0.2401    0.0000 C   0  0  0  0  0  0  0  0  0  0  0  0
   -8.0552    0.8115    0.0000 C   0  0  0  0  0  0  0  0  0  0  0  0
   -8.2538    2.2982    0.0000 C   0  0  0  0  0  0  0  0  0  0  0  0
   -7.0655    3.2137    0.0000 O   0  0  0  0  0  0  0  0  0  0  0  0
   -9.6407    2.8696    0.0000 O   0  0  0  0  0  0  0  0  0  0  0  0
   -5.0827   -1.8180    0.0000 C   0  0  0  0  0  0  0  0  0  0  0  0
   -4.7297   -3.2759    0.0000 C   0  0  0  0  0  0  0  0  0  0  0  0
   -3.2341   -3.3907    0.0000 C   0  0  0  0  0  0  0  0  0  0  0  0
   -2.6627   -2.0038    0.0000 C   0  0  0  0  0  0  0  0  0  0  0  0
   -1.2498   -1.5004    0.0000 C   0  0  0  0  0  0  0  0  0  0  0  0
   -0.1073   -2.4724    0.0000 C   0  0  0  0  0  0  0  0  0  0  0  0
    1.3057   -1.9689    0.0000 C   0  0  0  0  0  0  0  0  0  0  0  0
    1.5762   -0.4935    0.0000 C   0  0  0  0  0  0  0  0  0  0  0  0
    2.9892    0.0099    0.0000 C   0  0  0  0  0  0  0  0  0  0  0  0
    3.2598    1.4853    0.0000 C   0  0  0  0  0  0  0  0  0  0  0  0
    4.6728    1.9887    0.0000 O   0  0  0  0  0  0  0  0  0  0  0  0
    5.8152    1.0168    0.0000 C   0  0  0  0  0  0  0  0  0  0  0  0
    5.5447   -0.4586    0.0000 O   0  0  0  0  0  0  0  0  0  0  0  0
    6.6872   -1.4306    0.0000 C   0  0  0  0  0  0  0  0  0  0  0  0
    6.4167   -2.9060    0.0000 C   0  0  0  0  0  0  0  0  0  0  0  0
    8.1002   -0.9272    0.0000 C   0  0  0  0  0  0  0  0  0  0  0  0
    9.2427   -1.8992    0.0000 O   0  0  0  0  0  0  0  0  0  0  0  0
    8.3707    0.5482    0.0000 C   0  0  0  0  0  0  0  0  0  0  0  0
    9.7837    1.0516    0.0000 O   0  0  0  0  0  0  0  0  0  0  0  0
    7.2282    1.5202    0.0000 C   0  0  0  0  0  0  0  0  0  0  0  0
    7.4987    2.9956    0.0000 O   0  0  0  0  0  0  0  0  0  0  0  0
    2.1173    2.4573    0.0000 C   0  0  0  0  0  0  0  0  0  0  0  0
    0.7043    1.9539    0.0000 C   0  0  0  0  0  0  0  0  0  0  0  0
    0.4338    0.4785    0.0000 C   0  0  0  0  0  0  0  0  0  0  0  0
   -0.7087    1.4504    0.0000 C   0  0  0  0  0  0  0  0  0  0  0  0
   -0.9792   -0.0250    0.0000 C   0  0  0  0  0  0  0  0  0  0  0  0
   -2.1217    0.9470    0.0000 C   0  0  0  0  0  0  0  0  0  0  0  0
   -3.5347    0.4436    0.0000 C   0  0  0  0  0  0  0  0  0  0  0  0
   -4.6772    1.4155    0.0000 O   0  0  0  0  0  0  0  0  0  0  0  0
   -3.8052   -1.0318    0.0000 C   0  0  0  0  0  0  0  0  0  0  0  0
   -5.0430   -0.1846    0.0000 C   0  0  0  0  0  0  0  0  0  0  0  0
  2  1  1  6
  2  3  1  0
  3  4  1  0
  4  5  1  0
  5  6  2  0
  5  7  1  0
  2  8  1  0
  8  9  1  6
  9 10  1  0
 11 10  1  6
 11 12  1  0
 12 13  1  1
 13 14  1  0
 15 14  1  1
 15 16  1  0
 16 17  1  0
 17 18  1  1
 19 18  1  1
 19 20  1  0
 20 21  1  0
 21 22  1  6
 21 23  1  0
 23 24  1  6
 23 25  1  0
 25 26  1  6
 25 27  1  0
 27 28  1  6
 17 29  1  0
 29 30  1  0
 30 31  1  0
 31 32  1  6
 31 33  1  0
 33 34  1  6
 34 35  1  0
 35 36  1  1
 35 37  1  0
 37 38  1  6
 37  8  1  0
 37 11  1  0
 33 12  1  0
 31 15  1  0
 27 19  1  0
M  END
>  <MS_ID>  (2137) 
MS2215

>  <SMILES>  (2137) 
C[C@H](CCC(=O)O)[C@H]1CC[C@H]2[C@@H]3CC[C@@H]4C[C@H](O[C@@H]5O[C@@H](C)[C@@H](O)[C@@H](O)[C@H]5O)CC[C@]4(C)[C@H]3C[C@H](O)[C@]12C

>  <Structure_dimension>  (2137) 
2D

$$$$
MS2216
     RDKit          2D

 38 42  0  0  0  0  0  0  0  0999 V2000
   -0.7200   -4.1756    0.0000 C   0  0  0  0  0  0  0  0  0  0  0  0
    0.0126   -2.8666    0.0000 C   0  0  0  0  0  0  0  0  0  0  0  0
   -0.7546   -1.5777    0.0000 C   0  0  0  0  0  0  0  0  0  0  0  0
   -2.2545   -1.5977    0.0000 C   0  0  0  0  0  0  0  0  0  0  0  0
   -3.0217   -0.3088    0.0000 C   0  0  0  0  0  0  0  0  0  0  0  0
   -2.2891    1.0002    0.0000 O   0  0  0  0  0  0  0  0  0  0  0  0
   -4.5216   -0.3287    0.0000 N   0  0  0  0  0  0  0  0  0  0  0  0
   -5.2888    0.9602    0.0000 C   0  0  0  0  0  0  0  0  0  0  0  0
   -6.7887    0.9402    0.0000 C   0  0  0  0  0  0  0  0  0  0  0  0
   -7.5559    2.2292    0.0000 C   0  0  0  0  0  0  0  0  0  0  0  0
   -9.0558    2.2092    0.0000 C   0  0  0  0  0  0  0  0  0  0  0  0
   -9.7884    0.9003    0.0000 C   0  0  0  0  0  0  0  0  0  0  0  0
  -11.2883    0.8803    0.0000 C   0  0  0  0  0  0  0  0  0  0  0  0
  -12.0209   -0.4286    0.0000 O   0  0  0  0  0  0  0  0  0  0  0  0
  -12.0555    2.1692    0.0000 O   0  0  0  0  0  0  0  0  0  0  0  0
   -9.0212   -0.3887    0.0000 C   0  0  0  0  0  0  0  0  0  0  0  0
   -7.5213   -0.3687    0.0000 C   0  0  0  0  0  0  0  0  0  0  0  0
    1.5125   -2.8467    0.0000 C   0  0  0  0  0  0  0  0  0  0  0  0
    2.4103   -4.0483    0.0000 C   0  0  0  0  0  0  0  0  0  0  0  0
    3.8306   -3.5659    0.0000 C   0  0  0  0  0  0  0  0  0  0  0  0
    3.8106   -2.0660    0.0000 C   0  0  0  0  0  0  0  0  0  0  0  0
    4.9118   -1.0475    0.0000 C   0  0  0  0  0  0  0  0  0  0  0  0
    6.3445   -1.4920    0.0000 C   0  0  0  0  0  0  0  0  0  0  0  0
    6.6758   -2.9550    0.0000 O   0  0  0  0  0  0  0  0  0  0  0  0
    7.4457   -0.4736    0.0000 C   0  0  0  0  0  0  0  0  0  0  0  0
    7.1143    0.9894    0.0000 C   0  0  0  0  0  0  0  0  0  0  0  0
    8.2156    2.0078    0.0000 C   0  0  0  0  0  0  0  0  0  0  0  0
    7.8842    3.4708    0.0000 C   0  0  0  0  0  0  0  0  0  0  0  0
    8.9854    4.4892    0.0000 O   0  0  0  0  0  0  0  0  0  0  0  0
    6.4516    3.9152    0.0000 C   0  0  0  0  0  0  0  0  0  0  0  0
    5.3503    2.8968    0.0000 C   0  0  0  0  0  0  0  0  0  0  0  0
    5.6817    1.4339    0.0000 C   0  0  0  0  0  0  0  0  0  0  0  0
    4.2491    1.8783    0.0000 C   0  0  0  0  0  0  0  0  0  0  0  0
    4.5804    0.4154    0.0000 C   0  0  0  0  0  0  0  0  0  0  0  0
    3.1478    0.8599    0.0000 C   0  0  0  0  0  0  0  0  0  0  0  0
    2.0466   -0.1586    0.0000 C   0  0  0  0  0  0  0  0  0  0  0  0
    2.3779   -1.6215    0.0000 C   0  0  0  0  0  0  0  0  0  0  0  0
    0.9067   -1.3292    0.0000 C   0  0  0  0  0  0  0  0  0  0  0  0
  2  1  1  6
  2  3  1  0
  3  4  1  0
  4  5  1  0
  5  6  2  0
  5  7  1  0
  7  8  1  0
  8  9  1  0
  9 10  2  0
 10 11  1  0
 11 12  2  0
 12 13  1  0
 13 14  2  0
 13 15  1  0
 12 16  1  0
 16 17  2  0
  2 18  1  0
 18 19  1  6
 19 20  1  0
 21 20  1  6
 21 22  1  0
 22 23  1  1
 23 24  1  1
 23 25  1  0
 26 25  1  1
 26 27  1  0
 27 28  1  0
 28 29  1  1
 28 30  1  0
 30 31  1  0
 31 32  1  0
 32 33  1  6
 32 34  1  0
 34 35  1  6
 35 36  1  0
 36 37  1  0
 37 38  1  6
 17  9  1  0
 37 18  1  0
 37 21  1  0
 34 22  1  0
 32 26  1  0
M  END
>  <MS_ID>  (2138) 
MS2216

>  <SMILES>  (2138) 
C[C@H](CCC(=O)NCc1ccc(C(=O)O)cc1)[C@H]1CC[C@H]2[C@@H]3[C@H](O)C[C@@H]4C[C@H](O)CC[C@]4(C)[C@H]3CC[C@]12C

>  <Structure_dimension>  (2138) 
2D

$$$$
MS2217
     RDKit          2D

 32 35  0  0  0  0  0  0  0  0999 V2000
  -10.5534    3.1554    0.0000 C   0  0  0  0  0  0  0  0  0  0  0  0
   -9.0579    3.0406    0.0000 C   0  0  0  0  0  0  0  0  0  0  0  0
   -8.4096    1.6879    0.0000 C   0  0  0  0  0  0  0  0  0  0  0  0
   -6.9140    1.5730    0.0000 C   0  0  0  0  0  0  0  0  0  0  0  0
   -6.2657    0.2203    0.0000 O   0  0  0  0  0  0  0  0  0  0  0  0
   -4.7701    0.1054    0.0000 C   0  0  0  0  0  0  0  0  0  0  0  0
   -3.9228    1.3432    0.0000 O   0  0  0  0  0  0  0  0  0  0  0  0
   -4.1218   -1.2472    0.0000 C   0  0  0  0  0  0  0  0  0  0  0  0
   -2.6262   -1.3621    0.0000 C   0  0  0  0  0  0  0  0  0  0  0  0
   -1.9779   -2.7148    0.0000 C   0  0  0  0  0  0  0  0  0  0  0  0
   -2.8252   -3.9526    0.0000 C   0  0  0  0  0  0  0  0  0  0  0  0
   -0.4823   -2.8297    0.0000 C   0  0  0  0  0  0  0  0  0  0  0  0
    0.3038   -4.1072    0.0000 C   0  0  0  0  0  0  0  0  0  0  0  0
    1.7617   -3.7543    0.0000 C   0  0  0  0  0  0  0  0  0  0  0  0
    1.8766   -2.2587    0.0000 C   0  0  0  0  0  0  0  0  0  0  0  0
    3.0650   -1.3433    0.0000 C   0  0  0  0  0  0  0  0  0  0  0  0
    4.4518   -1.9148    0.0000 C   0  0  0  0  0  0  0  0  0  0  0  0
    5.6402   -0.9994    0.0000 C   0  0  0  0  0  0  0  0  0  0  0  0
    5.4416    0.4874    0.0000 C   0  0  0  0  0  0  0  0  0  0  0  0
    6.6299    1.4028    0.0000 C   0  0  0  0  0  0  0  0  0  0  0  0
    6.4313    2.8896    0.0000 C   0  0  0  0  0  0  0  0  0  0  0  0
    7.6197    3.8049    0.0000 O   0  0  0  0  0  0  0  0  0  0  0  0
    5.0445    3.4610    0.0000 C   0  0  0  0  0  0  0  0  0  0  0  0
    3.8561    2.5456    0.0000 C   0  0  0  0  0  0  0  0  0  0  0  0
    4.0547    1.0588    0.0000 C   0  0  0  0  0  0  0  0  0  0  0  0
    2.6678    1.6303    0.0000 C   0  0  0  0  0  0  0  0  0  0  0  0
    2.8664    0.1435    0.0000 C   0  0  0  0  0  0  0  0  0  0  0  0
    1.4795    0.7149    0.0000 C   0  0  0  0  0  0  0  0  0  0  0  0
    0.2912   -0.2005    0.0000 C   0  0  0  0  0  0  0  0  0  0  0  0
   -1.0957    0.3710    0.0000 O   0  0  0  0  0  0  0  0  0  0  0  0
    0.4897   -1.6873    0.0000 C   0  0  0  0  0  0  0  0  0  0  0  0
   -0.9493   -1.2639    0.0000 C   0  0  0  0  0  0  0  0  0  0  0  0
  1  2  1  0
  2  3  1  0
  3  4  1  0
  4  5  1  0
  5  6  1  0
  6  7  2  0
  6  8  1  0
  8  9  1  0
  9 10  1  0
 10 11  1  6
 10 12  1  0
 12 13  1  6
 13 14  1  0
 15 14  1  6
 15 16  1  0
 16 17  1  1
 17 18  1  0
 19 18  1  1
 19 20  1  0
 20 21  1  0
 21 22  1  1
 21 23  1  0
 23 24  1  0
 24 25  1  0
 25 26  1  6
 25 27  1  0
 27 28  1  6
 28 29  1  0
 29 30  1  1
 29 31  1  0
 31 32  1  6
 31 12  1  0
 31 15  1  0
 27 16  1  0
 25 19  1  0
M  END
>  <MS_ID>  (2139) 
MS2217

>  <SMILES>  (2139) 
CCCCOC(=O)CC[C@@H](C)[C@H]1CC[C@H]2[C@@H]3CC[C@@H]4C[C@H](O)CC[C@]4(C)[C@H]3C[C@H](O)[C@]12C

>  <Structure_dimension>  (2139) 
2D

$$$$
MS2218
     RDKit          2D

 34 37  0  0  0  0  0  0  0  0999 V2000
   -5.0479   -2.8910    0.0000 C   0  0  0  0  0  0  0  0  0  0  0  0
   -4.1779   -1.6691    0.0000 C   0  0  0  0  0  0  0  0  0  0  0  0
   -4.8012   -0.3047    0.0000 C   0  0  0  0  0  0  0  0  0  0  0  0
   -6.2945   -0.1623    0.0000 C   0  0  0  0  0  0  0  0  0  0  0  0
   -6.9178    1.2021    0.0000 C   0  0  0  0  0  0  0  0  0  0  0  0
   -6.0478    2.4240    0.0000 O   0  0  0  0  0  0  0  0  0  0  0  0
   -8.4110    1.3444    0.0000 O   0  0  0  0  0  0  0  0  0  0  0  0
   -2.6847   -1.8115    0.0000 C   0  0  0  0  0  0  0  0  0  0  0  0
   -1.9222   -3.1032    0.0000 C   0  0  0  0  0  0  0  0  0  0  0  0
   -0.4581   -2.7772    0.0000 C   0  0  0  0  0  0  0  0  0  0  0  0
   -0.3157   -1.2840    0.0000 C   0  0  0  0  0  0  0  0  0  0  0  0
    0.8893   -0.3906    0.0000 C   0  0  0  0  0  0  0  0  0  0  0  0
    2.2654   -0.9875    0.0000 C   0  0  0  0  0  0  0  0  0  0  0  0
    2.4366   -2.4777    0.0000 O   0  0  0  0  0  0  0  0  0  0  0  0
    3.8127   -3.0745    0.0000 S   0  0  0  0  0  0  0  0  0  0  0  0
    4.4096   -1.6984    0.0000 O   0  0  0  0  0  0  0  0  0  0  0  0
    3.2159   -4.4507    0.0000 O   0  0  0  0  0  0  0  0  0  0  0  0
    5.1889   -3.6714    0.0000 N   0  0  0  0  0  0  0  0  0  0  0  0
    6.3938   -2.7780    0.0000 O   0  0  0  0  0  0  0  0  0  0  0  0
    3.4704   -0.0941    0.0000 C   0  0  0  0  0  0  0  0  0  0  0  0
    3.2992    1.3961    0.0000 C   0  0  0  0  0  0  0  0  0  0  0  0
    4.5042    2.2894    0.0000 C   0  0  0  0  0  0  0  0  0  0  0  0
    4.3330    3.7796    0.0000 C   0  0  0  0  0  0  0  0  0  0  0  0
    5.5379    4.6730    0.0000 O   0  0  0  0  0  0  0  0  0  0  0  0
    2.9568    4.3765    0.0000 C   0  0  0  0  0  0  0  0  0  0  0  0
    1.7519    3.4831    0.0000 C   0  0  0  0  0  0  0  0  0  0  0  0
    1.9231    1.9929    0.0000 C   0  0  0  0  0  0  0  0  0  0  0  0
    0.5469    2.5898    0.0000 C   0  0  0  0  0  0  0  0  0  0  0  0
    0.7181    1.0996    0.0000 C   0  0  0  0  0  0  0  0  0  0  0  0
   -0.6580    1.6964    0.0000 C   0  0  0  0  0  0  0  0  0  0  0  0
   -1.8630    0.8031    0.0000 C   0  0  0  0  0  0  0  0  0  0  0  0
   -3.2391    1.3999    0.0000 O   0  0  0  0  0  0  0  0  0  0  0  0
   -1.6918   -0.6871    0.0000 C   0  0  0  0  0  0  0  0  0  0  0  0
   -3.1228   -0.2374    0.0000 C   0  0  0  0  0  0  0  0  0  0  0  0
  2  1  1  6
  2  3  1  0
  3  4  1  0
  4  5  1  0
  5  6  2  0
  5  7  1  0
  2  8  1  0
  8  9  1  6
  9 10  1  0
 11 10  1  6
 11 12  1  0
 12 13  1  1
 13 14  1  1
 14 15  1  0
 15 16  2  0
 15 17  2  0
 15 18  1  0
 18 19  1  0
 13 20  1  0
 21 20  1  1
 21 22  1  0
 22 23  1  0
 23 24  1  1
 23 25  1  0
 25 26  1  0
 26 27  1  0
 27 28  1  6
 27 29  1  0
 29 30  1  6
 30 31  1  0
 31 32  1  1
 31 33  1  0
 33 34  1  6
 33  8  1  0
 33 11  1  0
 29 12  1  0
 27 21  1  0
M  END
>  <MS_ID>  (2140) 
MS2218

>  <SMILES>  (2140) 
C[C@H](CCC(=O)O)[C@H]1CC[C@H]2[C@@H]3[C@H](OS(=O)(=O)NO)C[C@@H]4C[C@H](O)CC[C@]4(C)[C@H]3C[C@H](O)[C@]12C

>  <Structure_dimension>  (2140) 
2D

$$$$
MS2219
     RDKit          2D

 37 41  0  0  0  0  0  0  0  0999 V2000
   -1.7322   -4.6386    0.0000 C   0  0  0  0  0  0  0  0  0  0  0  0
   -1.1162   -3.2709    0.0000 C   0  0  0  0  0  0  0  0  0  0  0  0
   -1.9927   -2.0536    0.0000 C   0  0  0  0  0  0  0  0  0  0  0  0
   -3.4851   -2.2040    0.0000 C   0  0  0  0  0  0  0  0  0  0  0  0
   -4.3616   -0.9868    0.0000 C   0  0  0  0  0  0  0  0  0  0  0  0
   -3.7456    0.3809    0.0000 O   0  0  0  0  0  0  0  0  0  0  0  0
   -5.8540   -1.1372    0.0000 O   0  0  0  0  0  0  0  0  0  0  0  0
   -6.7305    0.0801    0.0000 C   0  0  0  0  0  0  0  0  0  0  0  0
   -8.2305    0.0865    0.0000 C   0  0  0  0  0  0  0  0  0  0  0  0
   -8.6879    1.5151    0.0000 C   0  0  0  0  0  0  0  0  0  0  0  0
  -10.1125    1.9847    0.0000 O   0  0  0  0  0  0  0  0  0  0  0  0
   -7.4706    2.3916    0.0000 C   0  0  0  0  0  0  0  0  0  0  0  0
   -7.4642    3.8916    0.0000 O   0  0  0  0  0  0  0  0  0  0  0  0
   -6.2609    1.5047    0.0000 C   0  0  0  0  0  0  0  0  0  0  0  0
   -4.8323    1.9621    0.0000 O   0  0  0  0  0  0  0  0  0  0  0  0
    0.3762   -3.1205    0.0000 C   0  0  0  0  0  0  0  0  0  0  0  0
    1.3751   -4.2395    0.0000 C   0  0  0  0  0  0  0  0  0  0  0  0
    2.7481   -3.6353    0.0000 C   0  0  0  0  0  0  0  0  0  0  0  0
    2.5977   -2.1428    0.0000 C   0  0  0  0  0  0  0  0  0  0  0  0
    3.6061   -1.0324    0.0000 C   0  0  0  0  0  0  0  0  0  0  0  0
    5.0720   -1.3506    0.0000 C   0  0  0  0  0  0  0  0  0  0  0  0
    5.5294   -2.7791    0.0000 O   0  0  0  0  0  0  0  0  0  0  0  0
    6.0804   -0.2401    0.0000 C   0  0  0  0  0  0  0  0  0  0  0  0
    7.5463   -0.5583    0.0000 O   0  0  0  0  0  0  0  0  0  0  0  0
    5.6230    1.1884    0.0000 C   0  0  0  0  0  0  0  0  0  0  0  0
    6.6315    2.2988    0.0000 C   0  0  0  0  0  0  0  0  0  0  0  0
    6.1741    3.7274    0.0000 C   0  0  0  0  0  0  0  0  0  0  0  0
    7.1825    4.8378    0.0000 O   0  0  0  0  0  0  0  0  0  0  0  0
    4.7082    4.0455    0.0000 C   0  0  0  0  0  0  0  0  0  0  0  0
    3.6997    2.9351    0.0000 C   0  0  0  0  0  0  0  0  0  0  0  0
    4.1571    1.5066    0.0000 C   0  0  0  0  0  0  0  0  0  0  0  0
    2.6913    1.8247    0.0000 C   0  0  0  0  0  0  0  0  0  0  0  0
    3.1487    0.3961    0.0000 C   0  0  0  0  0  0  0  0  0  0  0  0
    1.6828    0.7143    0.0000 C   0  0  0  0  0  0  0  0  0  0  0  0
    0.6744   -0.3961    0.0000 C   0  0  0  0  0  0  0  0  0  0  0  0
    1.1318   -1.8247    0.0000 C   0  0  0  0  0  0  0  0  0  0  0  0
   -0.3593   -1.6615    0.0000 C   0  0  0  0  0  0  0  0  0  0  0  0
  2  1  1  6
  2  3  1  0
  3  4  1  0
  4  5  1  0
  5  6  2  0
  5  7  1  0
  8  7  1  1
  8  9  1  0
  9 10  1  0
 10 11  1  6
 10 12  1  0
 12 13  1  6
 12 14  1  0
 14 15  1  1
  2 16  1  0
 16 17  1  6
 17 18  1  0
 19 18  1  6
 19 20  1  0
 20 21  1  1
 21 22  1  1
 21 23  1  0
 23 24  1  1
 23 25  1  0
 25 26  1  1
 26 27  1  0
 27 28  1  1
 27 29  1  0
 29 30  1  0
 30 31  1  0
 31 32  1  6
 31 33  1  0
 33 34  1  6
 34 35  1  0
 35 36  1  0
 36 37  1  6
 14  8  1  0
 36 16  1  0
 36 19  1  0
 33 20  1  0
 31 25  1  0
M  END
>  <MS_ID>  (2141) 
MS2219

>  <SMILES>  (2141) 
C[C@H](CCC(=O)O[C@H]1C[C@H](O)[C@H](O)[C@H]1O)[C@H]1CC[C@H]2[C@@H]3[C@H](O)[C@H](O)[C@@H]4C[C@H](O)CC[C@]4(C)[C@H]3CC[C@]12C

>  <Structure_dimension>  (2141) 
2D

$$$$
MS2220
     RDKit          2D

 31 34  0  0  0  0  0  0  0  0999 V2000
   -2.8633   -3.9386    0.0000 C   0  0  0  0  0  0  0  0  0  0  0  0
   -2.0152   -2.7014    0.0000 C   0  0  0  0  0  0  0  0  0  0  0  0
   -2.6625   -1.3483    0.0000 C   0  0  0  0  0  0  0  0  0  0  0  0
   -4.1580   -1.2323    0.0000 C   0  0  0  0  0  0  0  0  0  0  0  0
   -4.8053    0.1208    0.0000 C   0  0  0  0  0  0  0  0  0  0  0  0
   -3.9572    1.3580    0.0000 O   0  0  0  0  0  0  0  0  0  0  0  0
   -6.3008    0.2368    0.0000 N   0  0  0  0  0  0  0  0  0  0  0  0
   -6.9482    1.5899    0.0000 C   0  0  0  0  0  0  0  0  0  0  0  0
   -8.4437    1.7059    0.0000 C   0  0  0  0  0  0  0  0  0  0  0  0
   -9.0910    3.0590    0.0000 C   0  0  0  0  0  0  0  0  0  0  0  0
  -10.5865    3.1750    0.0000 O   0  0  0  0  0  0  0  0  0  0  0  0
   -0.5197   -2.8173    0.0000 C   0  0  0  0  0  0  0  0  0  0  0  0
    0.2656   -4.0954    0.0000 C   0  0  0  0  0  0  0  0  0  0  0  0
    1.7237   -3.7436    0.0000 C   0  0  0  0  0  0  0  0  0  0  0  0
    1.8397   -2.2480    0.0000 C   0  0  0  0  0  0  0  0  0  0  0  0
    3.0287   -1.3335    0.0000 C   0  0  0  0  0  0  0  0  0  0  0  0
    4.4151   -1.9060    0.0000 C   0  0  0  0  0  0  0  0  0  0  0  0
    5.6041   -0.9914    0.0000 C   0  0  0  0  0  0  0  0  0  0  0  0
    5.4066    0.4955    0.0000 C   0  0  0  0  0  0  0  0  0  0  0  0
    6.5956    1.4100    0.0000 C   0  0  0  0  0  0  0  0  0  0  0  0
    6.3981    2.8970    0.0000 C   0  0  0  0  0  0  0  0  0  0  0  0
    7.5871    3.8115    0.0000 O   0  0  0  0  0  0  0  0  0  0  0  0
    5.0116    3.4694    0.0000 C   0  0  0  0  0  0  0  0  0  0  0  0
    3.8226    2.5549    0.0000 C   0  0  0  0  0  0  0  0  0  0  0  0
    4.0201    1.0679    0.0000 C   0  0  0  0  0  0  0  0  0  0  0  0
    2.6336    1.6404    0.0000 C   0  0  0  0  0  0  0  0  0  0  0  0
    2.8312    0.1534    0.0000 C   0  0  0  0  0  0  0  0  0  0  0  0
    1.4447    0.7258    0.0000 C   0  0  0  0  0  0  0  0  0  0  0  0
    0.2557   -0.1887    0.0000 C   0  0  0  0  0  0  0  0  0  0  0  0
    0.4532   -1.6756    0.0000 C   0  0  0  0  0  0  0  0  0  0  0  0
   -0.9855   -1.2513    0.0000 C   0  0  0  0  0  0  0  0  0  0  0  0
  2  1  1  6
  2  3  1  0
  3  4  1  0
  4  5  1  0
  5  6  2  0
  5  7  1  0
  7  8  1  0
  8  9  1  0
  9 10  1  0
 10 11  1  0
  2 12  1  0
 12 13  1  6
 13 14  1  0
 15 14  1  6
 15 16  1  0
 16 17  1  1
 17 18  1  0
 19 18  1  1
 19 20  1  0
 20 21  1  0
 21 22  1  1
 21 23  1  0
 23 24  1  0
 24 25  1  0
 25 26  1  6
 25 27  1  0
 27 28  1  6
 28 29  1  0
 29 30  1  0
 30 31  1  6
 30 12  1  0
 30 15  1  0
 27 16  1  0
 25 19  1  0
M  END
>  <MS_ID>  (2142) 
MS2220

>  <SMILES>  (2142) 
C[C@H](CCC(=O)NCCCO)[C@H]1CC[C@H]2[C@@H]3CC[C@@H]4C[C@H](O)CC[C@]4(C)[C@H]3CC[C@]12C

>  <Structure_dimension>  (2142) 
2D

$$$$
MS2221
     RDKit          2D

 30 33  0  0  0  0  0  0  0  0999 V2000
   -3.0505   -3.6493    0.0000 C   0  0  0  0  0  0  0  0  0  0  0  0
   -2.2252   -2.3967    0.0000 C   0  0  0  0  0  0  0  0  0  0  0  0
   -2.8973   -1.0557    0.0000 C   0  0  0  0  0  0  0  0  0  0  0  0
   -4.3947   -0.9673    0.0000 C   0  0  0  0  0  0  0  0  0  0  0  0
   -5.0668    0.3737    0.0000 C   0  0  0  0  0  0  0  0  0  0  0  0
   -4.2415    1.6263    0.0000 O   0  0  0  0  0  0  0  0  0  0  0  0
   -6.5642    0.4622    0.0000 N   0  0  0  0  0  0  0  0  0  0  0  0
   -7.2363    1.8032    0.0000 C   0  0  0  0  0  0  0  0  0  0  0  0
   -8.7337    1.8916    0.0000 C   0  0  0  0  0  0  0  0  0  0  0  0
   -9.4058    3.2326    0.0000 O   0  0  0  0  0  0  0  0  0  0  0  0
   -0.7278   -2.4852    0.0000 C   0  0  0  0  0  0  0  0  0  0  0  0
    0.0808   -3.7486    0.0000 C   0  0  0  0  0  0  0  0  0  0  0  0
    1.5322   -3.3700    0.0000 C   0  0  0  0  0  0  0  0  0  0  0  0
    1.6207   -1.8726    0.0000 C   0  0  0  0  0  0  0  0  0  0  0  0
    2.7926   -0.9364    0.0000 C   0  0  0  0  0  0  0  0  0  0  0  0
    4.1894   -1.4832    0.0000 C   0  0  0  0  0  0  0  0  0  0  0  0
    4.4142   -2.9662    0.0000 O   0  0  0  0  0  0  0  0  0  0  0  0
    5.3613   -0.5470    0.0000 C   0  0  0  0  0  0  0  0  0  0  0  0
    5.1365    0.9361    0.0000 C   0  0  0  0  0  0  0  0  0  0  0  0
    6.3085    1.8723    0.0000 C   0  0  0  0  0  0  0  0  0  0  0  0
    6.0837    3.3554    0.0000 C   0  0  0  0  0  0  0  0  0  0  0  0
    4.6869    3.9022    0.0000 C   0  0  0  0  0  0  0  0  0  0  0  0
    3.5149    2.9660    0.0000 C   0  0  0  0  0  0  0  0  0  0  0  0
    3.7398    1.4829    0.0000 C   0  0  0  0  0  0  0  0  0  0  0  0
    2.3430    2.0298    0.0000 C   0  0  0  0  0  0  0  0  0  0  0  0
    2.5678    0.5467    0.0000 C   0  0  0  0  0  0  0  0  0  0  0  0
    1.1710    1.0935    0.0000 C   0  0  0  0  0  0  0  0  0  0  0  0
   -0.0009    0.1573    0.0000 C   0  0  0  0  0  0  0  0  0  0  0  0
    0.2239   -1.3257    0.0000 C   0  0  0  0  0  0  0  0  0  0  0  0
   -1.2224   -0.9279    0.0000 C   0  0  0  0  0  0  0  0  0  0  0  0
  2  1  1  6
  2  3  1  0
  3  4  1  0
  4  5  1  0
  5  6  2  0
  5  7  1  0
  7  8  1  0
  8  9  1  0
  9 10  1  0
  2 11  1  0
 11 12  1  6
 12 13  1  0
 14 13  1  6
 14 15  1  0
 15 16  1  1
 16 17  1  6
 16 18  1  0
 19 18  1  1
 19 20  1  0
 20 21  1  0
 21 22  1  0
 22 23  1  0
 23 24  1  0
 24 25  1  6
 24 26  1  0
 26 27  1  6
 27 28  1  0
 28 29  1  0
 29 30  1  6
 29 11  1  0
 29 14  1  0
 26 15  1  0
 24 19  1  0
M  END
>  <MS_ID>  (2143) 
MS2221

>  <SMILES>  (2143) 
C[C@H](CCC(=O)NCCO)[C@H]1CC[C@H]2[C@@H]3[C@@H](O)C[C@@H]4CCCC[C@]4(C)[C@H]3CC[C@]12C

>  <Structure_dimension>  (2143) 
2D

$$$$
MS2222
     RDKit          2D

 30 33  0  0  0  0  0  0  0  0999 V2000
   -5.1126   -2.2702    0.0000 C   0  0  0  0  0  0  0  0  0  0  0  0
   -4.0463   -1.2153    0.0000 C   0  0  0  0  0  0  0  0  0  0  0  0
   -4.4268    0.2357    0.0000 C   0  0  0  0  0  0  0  0  0  0  0  0
   -5.8736    0.6316    0.0000 C   0  0  0  0  0  0  0  0  0  0  0  0
   -6.2540    2.0826    0.0000 C   0  0  0  0  0  0  0  0  0  0  0  0
   -5.1877    3.1376    0.0000 O   0  0  0  0  0  0  0  0  0  0  0  0
   -7.7008    2.4786    0.0000 O   0  0  0  0  0  0  0  0  0  0  0  0
   -2.5995   -1.6113    0.0000 C   0  0  0  0  0  0  0  0  0  0  0  0
   -2.0695   -3.0145    0.0000 C   0  0  0  0  0  0  0  0  0  0  0  0
   -0.5711   -2.9440    0.0000 C   0  0  0  0  0  0  0  0  0  0  0  0
   -0.1751   -1.4972    0.0000 C   0  0  0  0  0  0  0  0  0  0  0  0
    1.1650   -0.8234    0.0000 C   0  0  0  0  0  0  0  0  0  0  0  0
    2.4186   -1.6471    0.0000 C   0  0  0  0  0  0  0  0  0  0  0  0
    2.3321   -3.1446    0.0000 C   0  0  0  0  0  0  0  0  0  0  0  0
    3.5857   -3.9682    0.0000 C   0  0  0  0  0  0  0  0  0  0  0  0
    3.4992   -5.4657    0.0000 O   0  0  0  0  0  0  0  0  0  0  0  0
    3.7587   -0.9732    0.0000 C   0  0  0  0  0  0  0  0  0  0  0  0
    3.8453    0.5243    0.0000 C   0  0  0  0  0  0  0  0  0  0  0  0
    5.1854    1.1981    0.0000 C   0  0  0  0  0  0  0  0  0  0  0  0
    5.2719    2.6956    0.0000 C   0  0  0  0  0  0  0  0  0  0  0  0
    6.6121    3.3694    0.0000 O   0  0  0  0  0  0  0  0  0  0  0  0
    4.0183    3.5193    0.0000 C   0  0  0  0  0  0  0  0  0  0  0  0
    2.6782    2.8454    0.0000 C   0  0  0  0  0  0  0  0  0  0  0  0
    2.5917    1.3479    0.0000 C   0  0  0  0  0  0  0  0  0  0  0  0
    1.3380    2.1716    0.0000 C   0  0  0  0  0  0  0  0  0  0  0  0
    1.2515    0.6741    0.0000 C   0  0  0  0  0  0  0  0  0  0  0  0
   -0.0021    1.4978    0.0000 C   0  0  0  0  0  0  0  0  0  0  0  0
   -1.3422    0.8240    0.0000 C   0  0  0  0  0  0  0  0  0  0  0  0
   -1.4288   -0.6735    0.0000 C   0  0  0  0  0  0  0  0  0  0  0  0
   -2.7616    0.0146    0.0000 C   0  0  0  0  0  0  0  0  0  0  0  0
  2  1  1  6
  2  3  1  0
  3  4  1  0
  4  5  1  0
  5  6  2  0
  5  7  1  0
  2  8  1  0
  8  9  1  6
  9 10  1  0
 11 10  1  6
 11 12  1  0
 12 13  1  1
 13 14  1  1
 14 15  1  0
 15 16  1  0
 13 17  1  0
 18 17  1  1
 18 19  1  0
 19 20  1  0
 20 21  1  6
 20 22  1  0
 22 23  1  0
 23 24  1  0
 24 25  1  6
 24 26  1  0
 26 27  1  6
 27 28  1  0
 28 29  1  0
 29 30  1  6
 29  8  1  0
 29 11  1  0
 26 12  1  0
 24 18  1  0
M  END
>  <MS_ID>  (2144) 
MS2222

>  <SMILES>  (2144) 
C[C@H](CCC(=O)O)[C@H]1CC[C@H]2[C@@H]3[C@H](CCO)C[C@@H]4C[C@@H](O)CC[C@]4(C)[C@H]3CC[C@]12C

>  <Structure_dimension>  (2144) 
2D

$$$$
MS2223
     RDKit          2D

 31 34  0  0  0  0  0  0  0  0999 V2000
   -3.7132   -3.4566    0.0000 C   0  0  0  0  0  0  0  0  0  0  0  0
   -2.7767   -2.2848    0.0000 C   0  0  0  0  0  0  0  0  0  0  0  0
   -3.3232   -0.8879    0.0000 C   0  0  0  0  0  0  0  0  0  0  0  0
   -4.8062   -0.6628    0.0000 C   0  0  0  0  0  0  0  0  0  0  0  0
   -5.3527    0.7341    0.0000 C   0  0  0  0  0  0  0  0  0  0  0  0
   -4.4162    1.9059    0.0000 O   0  0  0  0  0  0  0  0  0  0  0  0
   -6.8357    0.9593    0.0000 C   0  0  0  0  0  0  0  0  0  0  0  0
   -7.3822    2.3562    0.0000 N   0  0  0  0  0  0  0  0  0  0  0  0
   -8.8652    2.5814    0.0000 C   0  0  0  0  0  0  0  0  0  0  0  0
   -6.4457    3.5279    0.0000 C   0  0  0  0  0  0  0  0  0  0  0  0
   -1.2937   -2.5100    0.0000 C   0  0  0  0  0  0  0  0  0  0  0  0
   -0.6042   -3.8421    0.0000 C   0  0  0  0  0  0  0  0  0  0  0  0
    0.8758   -3.5980    0.0000 C   0  0  0  0  0  0  0  0  0  0  0  0
    1.1010   -2.1150    0.0000 C   0  0  0  0  0  0  0  0  0  0  0  0
    2.3537   -1.2900    0.0000 C   0  0  0  0  0  0  0  0  0  0  0  0
    3.6946   -1.9624    0.0000 C   0  0  0  0  0  0  0  0  0  0  0  0
    3.7827   -3.4598    0.0000 O   0  0  0  0  0  0  0  0  0  0  0  0
    4.9473   -1.1374    0.0000 C   0  0  0  0  0  0  0  0  0  0  0  0
    4.8592    0.3600    0.0000 C   0  0  0  0  0  0  0  0  0  0  0  0
    6.1120    1.1850    0.0000 C   0  0  0  0  0  0  0  0  0  0  0  0
    6.0239    2.6824    0.0000 C   0  0  0  0  0  0  0  0  0  0  0  0
    7.2767    3.5074    0.0000 O   0  0  0  0  0  0  0  0  0  0  0  0
    4.6831    3.3548    0.0000 C   0  0  0  0  0  0  0  0  0  0  0  0
    3.4303    2.5298    0.0000 C   0  0  0  0  0  0  0  0  0  0  0  0
    3.5184    1.0324    0.0000 C   0  0  0  0  0  0  0  0  0  0  0  0
    2.1776    1.7048    0.0000 C   0  0  0  0  0  0  0  0  0  0  0  0
    2.2656    0.2074    0.0000 C   0  0  0  0  0  0  0  0  0  0  0  0
    0.9248    0.8798    0.0000 C   0  0  0  0  0  0  0  0  0  0  0  0
   -0.3279    0.0548    0.0000 C   0  0  0  0  0  0  0  0  0  0  0  0
   -0.2399   -1.4426    0.0000 C   0  0  0  0  0  0  0  0  0  0  0  0
   -1.6436   -0.9140    0.0000 C   0  0  0  0  0  0  0  0  0  0  0  0
  2  1  1  6
  2  3  1  0
  3  4  1  0
  4  5  1  0
  5  6  2  0
  5  7  1  0
  7  8  1  0
  8  9  1  0
  8 10  1  0
  2 11  1  0
 11 12  1  6
 12 13  1  0
 14 13  1  6
 14 15  1  0
 15 16  1  1
 16 17  1  1
 16 18  1  0
 19 18  1  1
 19 20  1  0
 20 21  1  0
 21 22  1  1
 21 23  1  0
 23 24  1  0
 24 25  1  0
 25 26  1  6
 25 27  1  0
 27 28  1  6
 28 29  1  0
 29 30  1  0
 30 31  1  6
 30 11  1  0
 30 14  1  0
 27 15  1  0
 25 19  1  0
M  END
>  <MS_ID>  (2145) 
MS2223

>  <SMILES>  (2145) 
C[C@H](CCC(=O)CN(C)C)[C@H]1CC[C@H]2[C@@H]3[C@H](O)C[C@@H]4C[C@H](O)CC[C@]4(C)[C@H]3CC[C@]12C

>  <Structure_dimension>  (2145) 
2D

$$$$
MS2224
     RDKit          2D

 35 39  0  0  0  0  0  0  0  0999 V2000
   -2.4312   -3.9441    0.0000 C   0  0  0  0  0  0  0  0  0  0  0  0
   -1.6409   -2.6691    0.0000 C   0  0  0  0  0  0  0  0  0  0  0  0
   -2.3499   -1.3473    0.0000 C   0  0  0  0  0  0  0  0  0  0  0  0
   -3.8492   -1.3003    0.0000 C   0  0  0  0  0  0  0  0  0  0  0  0
   -4.5582    0.0215    0.0000 C   0  0  0  0  0  0  0  0  0  0  0  0
   -3.7679    1.2965    0.0000 O   0  0  0  0  0  0  0  0  0  0  0  0
   -6.0574    0.0684    0.0000 O   0  0  0  0  0  0  0  0  0  0  0  0
   -6.7664    1.3903    0.0000 C   0  0  0  0  0  0  0  0  0  0  0  0
   -8.2657    1.4372    0.0000 N   0  0  0  0  0  0  0  0  0  0  0  0
   -9.1849    0.2519    0.0000 C   0  0  0  0  0  0  0  0  0  0  0  0
  -10.5963    0.7598    0.0000 C   0  0  0  0  0  0  0  0  0  0  0  0
  -10.5494    2.2591    0.0000 N   0  0  0  0  0  0  0  0  0  0  0  0
   -9.1090    2.6778    0.0000 C   0  0  0  0  0  0  0  0  0  0  0  0
   -0.1417   -2.7161    0.0000 C   0  0  0  0  0  0  0  0  0  0  0  0
    0.7016   -3.9566    0.0000 C   0  0  0  0  0  0  0  0  0  0  0  0
    2.1420   -3.5379    0.0000 C   0  0  0  0  0  0  0  0  0  0  0  0
    2.1889   -2.0387    0.0000 C   0  0  0  0  0  0  0  0  0  0  0  0
    3.3345   -1.0703    0.0000 C   0  0  0  0  0  0  0  0  0  0  0  0
    4.7459   -1.5783    0.0000 C   0  0  0  0  0  0  0  0  0  0  0  0
    5.0117   -3.0545    0.0000 O   0  0  0  0  0  0  0  0  0  0  0  0
    5.8915   -0.6099    0.0000 C   0  0  0  0  0  0  0  0  0  0  0  0
    7.3029   -1.1179    0.0000 O   0  0  0  0  0  0  0  0  0  0  0  0
    5.6257    0.8663    0.0000 C   0  0  0  0  0  0  0  0  0  0  0  0
    6.7712    1.8347    0.0000 C   0  0  0  0  0  0  0  0  0  0  0  0
    6.5054    3.3109    0.0000 C   0  0  0  0  0  0  0  0  0  0  0  0
    7.6510    4.2792    0.0000 O   0  0  0  0  0  0  0  0  0  0  0  0
    5.0940    3.8188    0.0000 C   0  0  0  0  0  0  0  0  0  0  0  0
    3.9485    2.8505    0.0000 C   0  0  0  0  0  0  0  0  0  0  0  0
    4.2143    1.3743    0.0000 C   0  0  0  0  0  0  0  0  0  0  0  0
    2.8029    1.8822    0.0000 C   0  0  0  0  0  0  0  0  0  0  0  0
    3.0687    0.4059    0.0000 C   0  0  0  0  0  0  0  0  0  0  0  0
    1.6573    0.9139    0.0000 C   0  0  0  0  0  0  0  0  0  0  0  0
    0.5117   -0.0545    0.0000 C   0  0  0  0  0  0  0  0  0  0  0  0
    0.7776   -1.5307    0.0000 C   0  0  0  0  0  0  0  0  0  0  0  0
   -0.6792   -1.1731    0.0000 C   0  0  0  0  0  0  0  0  0  0  0  0
  2  1  1  6
  2  3  1  0
  3  4  1  0
  4  5  1  0
  5  6  2  0
  5  7  1  0
  7  8  1  0
  8  9  1  0
  9 10  1  0
 10 11  2  0
 11 12  1  0
 12 13  2  0
  2 14  1  0
 14 15  1  6
 15 16  1  0
 17 16  1  6
 17 18  1  0
 18 19  1  1
 19 20  1  1
 19 21  1  0
 21 22  1  1
 21 23  1  0
 23 24  1  1
 24 25  1  0
 25 26  1  1
 25 27  1  0
 27 28  1  0
 28 29  1  0
 29 30  1  6
 29 31  1  0
 31 32  1  6
 32 33  1  0
 33 34  1  0
 34 35  1  6
 13  9  1  0
 34 14  1  0
 34 17  1  0
 31 18  1  0
 29 23  1  0
M  END
>  <MS_ID>  (2146) 
MS2224

>  <SMILES>  (2146) 
C[C@H](CCC(=O)OCn1ccnc1)[C@H]1CC[C@H]2[C@@H]3[C@H](O)[C@H](O)[C@@H]4C[C@H](O)CC[C@]4(C)[C@H]3CC[C@]12C

>  <Structure_dimension>  (2146) 
2D

$$$$
MS2225
     RDKit          2D

 38 42  0  0  0  0  0  0  0  0999 V2000
   -0.6552   -4.8882    0.0000 C   0  0  0  0  0  0  0  0  0  0  0  0
   -0.0536   -3.5141    0.0000 C   0  0  0  0  0  0  0  0  0  0  0  0
   -0.9428   -2.3061    0.0000 C   0  0  0  0  0  0  0  0  0  0  0  0
   -2.4336   -2.4722    0.0000 C   0  0  0  0  0  0  0  0  0  0  0  0
   -3.3228   -1.2641    0.0000 C   0  0  0  0  0  0  0  0  0  0  0  0
   -2.7212    0.1099    0.0000 O   0  0  0  0  0  0  0  0  0  0  0  0
   -4.8136   -1.4302    0.0000 O   0  0  0  0  0  0  0  0  0  0  0  0
   -5.7028   -0.2222    0.0000 C   0  0  0  0  0  0  0  0  0  0  0  0
   -5.1012    1.1519    0.0000 O   0  0  0  0  0  0  0  0  0  0  0  0
   -5.9905    2.3599    0.0000 C   0  0  0  0  0  0  0  0  0  0  0  0
   -5.3889    3.7340    0.0000 C   0  0  0  0  0  0  0  0  0  0  0  0
   -3.8981    3.9001    0.0000 O   0  0  0  0  0  0  0  0  0  0  0  0
   -7.4812    2.1938    0.0000 C   0  0  0  0  0  0  0  0  0  0  0  0
   -8.3705    3.4018    0.0000 O   0  0  0  0  0  0  0  0  0  0  0  0
   -8.0828    0.8197    0.0000 C   0  0  0  0  0  0  0  0  0  0  0  0
   -9.5736    0.6536    0.0000 O   0  0  0  0  0  0  0  0  0  0  0  0
   -7.1936   -0.3883    0.0000 C   0  0  0  0  0  0  0  0  0  0  0  0
   -7.7951   -1.7624    0.0000 O   0  0  0  0  0  0  0  0  0  0  0  0
    1.4372   -3.3480    0.0000 C   0  0  0  0  0  0  0  0  0  0  0  0
    2.4478   -4.4565    0.0000 C   0  0  0  0  0  0  0  0  0  0  0  0
    3.8143   -3.8378    0.0000 C   0  0  0  0  0  0  0  0  0  0  0  0
    3.6482   -2.3471    0.0000 C   0  0  0  0  0  0  0  0  0  0  0  0
    4.6449   -1.2261    0.0000 C   0  0  0  0  0  0  0  0  0  0  0  0
    6.1141   -1.5288    0.0000 C   0  0  0  0  0  0  0  0  0  0  0  0
    7.1108   -0.4079    0.0000 C   0  0  0  0  0  0  0  0  0  0  0  0
    6.6384    1.0158    0.0000 C   0  0  0  0  0  0  0  0  0  0  0  0
    7.6352    2.1367    0.0000 C   0  0  0  0  0  0  0  0  0  0  0  0
    7.1628    3.5604    0.0000 C   0  0  0  0  0  0  0  0  0  0  0  0
    8.1595    4.6813    0.0000 O   0  0  0  0  0  0  0  0  0  0  0  0
    5.6936    3.8631    0.0000 C   0  0  0  0  0  0  0  0  0  0  0  0
    4.6969    2.7422    0.0000 C   0  0  0  0  0  0  0  0  0  0  0  0
    5.1693    1.3185    0.0000 C   0  0  0  0  0  0  0  0  0  0  0  0
    3.7001    1.6212    0.0000 C   0  0  0  0  0  0  0  0  0  0  0  0
    4.1725    0.1976    0.0000 C   0  0  0  0  0  0  0  0  0  0  0  0
    2.7034    0.5003    0.0000 C   0  0  0  0  0  0  0  0  0  0  0  0
    1.7067   -0.6207    0.0000 C   0  0  0  0  0  0  0  0  0  0  0  0
    2.1791   -2.0443    0.0000 C   0  0  0  0  0  0  0  0  0  0  0  0
    0.6863   -1.8968    0.0000 C   0  0  0  0  0  0  0  0  0  0  0  0
  2  1  1  6
  2  3  1  0
  3  4  1  0
  4  5  1  0
  5  6  2  0
  5  7  1  0
  8  7  1  1
  8  9  1  0
  9 10  1  0
 10 11  1  1
 11 12  1  0
 10 13  1  0
 13 14  1  6
 13 15  1  0
 15 16  1  1
 15 17  1  0
 17 18  1  6
  2 19  1  0
 19 20  1  6
 20 21  1  0
 22 21  1  6
 22 23  1  0
 23 24  1  1
 24 25  1  0
 26 25  1  1
 26 27  1  0
 27 28  1  0
 28 29  2  0
 28 30  1  0
 30 31  1  0
 31 32  1  0
 32 33  1  6
 32 34  1  0
 34 35  1  6
 35 36  1  0
 36 37  1  0
 37 38  1  6
 17  8  1  0
 37 19  1  0
 37 22  1  0
 34 23  1  0
 32 26  1  0
M  END
>  <MS_ID>  (2147) 
MS2225

>  <SMILES>  (2147) 
C[C@H](CCC(=O)O[C@@H]1O[C@H](CO)[C@@H](O)[C@H](O)[C@H]1O)[C@H]1CC[C@H]2[C@@H]3CC[C@@H]4CC(=O)CC[C@]4(C)[C@H]3CC[C@]12C

>  <Structure_dimension>  (2147) 
2D

$$$$
MS2226
     RDKit          2D

 35 38  0  0  0  0  0  0  0  0999 V2000
   -3.3928   -4.1722    0.0000 C   0  0  0  0  0  0  0  0  0  0  0  0
   -2.4715   -2.9885    0.0000 C   0  0  0  0  0  0  0  0  0  0  0  0
   -3.0359   -1.5987    0.0000 C   0  0  0  0  0  0  0  0  0  0  0  0
   -4.5217   -1.3927    0.0000 C   0  0  0  0  0  0  0  0  0  0  0  0
   -5.0862   -0.0029    0.0000 C   0  0  0  0  0  0  0  0  0  0  0  0
   -4.1648    1.1808    0.0000 O   0  0  0  0  0  0  0  0  0  0  0  0
   -6.5719    0.2031    0.0000 N   0  0  0  0  0  0  0  0  0  0  0  0
   -7.1364    1.5929    0.0000 C   0  0  0  0  0  0  0  0  0  0  0  0
   -8.6222    1.7990    0.0000 C   0  0  0  0  0  0  0  0  0  0  0  0
   -9.1866    3.1887    0.0000 O   0  0  0  0  0  0  0  0  0  0  0  0
   -6.2150    2.7766    0.0000 C   0  0  0  0  0  0  0  0  0  0  0  0
   -4.7293    2.5705    0.0000 O   0  0  0  0  0  0  0  0  0  0  0  0
   -6.7795    4.1663    0.0000 O   0  0  0  0  0  0  0  0  0  0  0  0
   -0.9857   -3.1945    0.0000 C   0  0  0  0  0  0  0  0  0  0  0  0
   -0.2791   -4.5177    0.0000 C   0  0  0  0  0  0  0  0  0  0  0  0
    1.1976   -4.2545    0.0000 C   0  0  0  0  0  0  0  0  0  0  0  0
    1.4037   -2.7687    0.0000 C   0  0  0  0  0  0  0  0  0  0  0  0
    2.6457   -1.9277    0.0000 C   0  0  0  0  0  0  0  0  0  0  0  0
    3.9951   -2.5828    0.0000 C   0  0  0  0  0  0  0  0  0  0  0  0
    5.2371   -1.7417    0.0000 C   0  0  0  0  0  0  0  0  0  0  0  0
    5.1298   -0.2456    0.0000 C   0  0  0  0  0  0  0  0  0  0  0  0
    6.3718    0.5955    0.0000 C   0  0  0  0  0  0  0  0  0  0  0  0
    6.2644    2.0916    0.0000 C   0  0  0  0  0  0  0  0  0  0  0  0
    7.5065    2.9327    0.0000 C   0  0  0  0  0  0  0  0  0  0  0  0
    7.3991    4.4288    0.0000 O   0  0  0  0  0  0  0  0  0  0  0  0
    8.8559    2.2775    0.0000 O   0  0  0  0  0  0  0  0  0  0  0  0
    4.9151    2.7467    0.0000 C   0  0  0  0  0  0  0  0  0  0  0  0
    3.6730    1.9057    0.0000 C   0  0  0  0  0  0  0  0  0  0  0  0
    3.7804    0.4095    0.0000 C   0  0  0  0  0  0  0  0  0  0  0  0
    2.4310    1.0646    0.0000 C   0  0  0  0  0  0  0  0  0  0  0  0
    2.5384   -0.4315    0.0000 C   0  0  0  0  0  0  0  0  0  0  0  0
    1.1890    0.2236    0.0000 C   0  0  0  0  0  0  0  0  0  0  0  0
   -0.0531   -0.6175    0.0000 C   0  0  0  0  0  0  0  0  0  0  0  0
    0.0543   -2.1136    0.0000 C   0  0  0  0  0  0  0  0  0  0  0  0
   -1.3562   -1.6032    0.0000 C   0  0  0  0  0  0  0  0  0  0  0  0
  2  1  1  6
  2  3  1  0
  3  4  1  0
  4  5  1  0
  5  6  2  0
  5  7  1  0
  7  8  1  0
  8  9  1  1
  9 10  1  0
  8 11  1  0
 11 12  2  0
 11 13  1  0
  2 14  1  0
 14 15  1  6
 15 16  1  0
 17 16  1  6
 17 18  1  0
 18 19  1  1
 19 20  1  0
 21 20  1  1
 21 22  1  0
 22 23  1  0
 23 24  1  1
 24 25  2  0
 24 26  1  0
 23 27  1  0
 27 28  1  0
 28 29  1  0
 29 30  1  6
 29 31  1  0
 31 32  1  6
 32 33  1  0
 33 34  1  0
 34 35  1  6
 34 14  1  0
 34 17  1  0
 31 18  1  0
 29 21  1  0
M  END
>  <MS_ID>  (2148) 
MS2226

>  <SMILES>  (2148) 
C[C@H](CCC(=O)N[C@@H](CO)C(=O)O)[C@H]1CC[C@H]2[C@@H]3CC[C@@H]4C[C@H](C(=O)O)CC[C@]4(C)[C@H]3CC[C@]12C

>  <Structure_dimension>  (2148) 
2D

$$$$
MS2227
     RDKit          2D

 34 37  0  0  0  0  0  0  0  0999 V2000
   -2.0431   -4.2971    0.0000 C   0  0  0  0  0  0  0  0  0  0  0  0
   -1.3315   -2.9767    0.0000 C   0  0  0  0  0  0  0  0  0  0  0  0
   -2.1193   -1.7002    0.0000 C   0  0  0  0  0  0  0  0  0  0  0  0
   -3.6187   -1.7442    0.0000 C   0  0  0  0  0  0  0  0  0  0  0  0
   -4.4064   -0.4677    0.0000 C   0  0  0  0  0  0  0  0  0  0  0  0
   -3.6948    0.8528    0.0000 O   0  0  0  0  0  0  0  0  0  0  0  0
   -5.9058   -0.5117    0.0000 O   0  0  0  0  0  0  0  0  0  0  0  0
   -6.6936    0.7648    0.0000 C   0  0  0  0  0  0  0  0  0  0  0  0
   -8.1929    0.7208    0.0000 C   0  0  0  0  0  0  0  0  0  0  0  0
   -8.9807    1.9973    0.0000 C   0  0  0  0  0  0  0  0  0  0  0  0
   -7.7042    2.7851    0.0000 C   0  0  0  0  0  0  0  0  0  0  0  0
  -10.2572    1.2096    0.0000 C   0  0  0  0  0  0  0  0  0  0  0  0
   -9.7684    3.2738    0.0000 O   0  0  0  0  0  0  0  0  0  0  0  0
    0.1678   -2.9327    0.0000 C   0  0  0  0  0  0  0  0  0  0  0  0
    1.0847   -4.1198    0.0000 C   0  0  0  0  0  0  0  0  0  0  0  0
    2.4971   -3.6147    0.0000 C   0  0  0  0  0  0  0  0  0  0  0  0
    2.4531   -2.1153    0.0000 C   0  0  0  0  0  0  0  0  0  0  0  0
    3.5379   -1.0794    0.0000 C   0  0  0  0  0  0  0  0  0  0  0  0
    4.9775   -1.5009    0.0000 C   0  0  0  0  0  0  0  0  0  0  0  0
    5.3322   -2.9583    0.0000 O   0  0  0  0  0  0  0  0  0  0  0  0
    6.0623   -0.4649    0.0000 C   0  0  0  0  0  0  0  0  0  0  0  0
    5.7075    0.9925    0.0000 C   0  0  0  0  0  0  0  0  0  0  0  0
    6.7923    2.0285    0.0000 C   0  0  0  0  0  0  0  0  0  0  0  0
    6.4376    3.4859    0.0000 C   0  0  0  0  0  0  0  0  0  0  0  0
    7.5224    4.5219    0.0000 O   0  0  0  0  0  0  0  0  0  0  0  0
    4.9980    3.9074    0.0000 C   0  0  0  0  0  0  0  0  0  0  0  0
    3.9132    2.8715    0.0000 C   0  0  0  0  0  0  0  0  0  0  0  0
    4.2680    1.4140    0.0000 C   0  0  0  0  0  0  0  0  0  0  0  0
    2.8284    1.8355    0.0000 C   0  0  0  0  0  0  0  0  0  0  0  0
    3.1831    0.3781    0.0000 C   0  0  0  0  0  0  0  0  0  0  0  0
    1.7436    0.7996    0.0000 C   0  0  0  0  0  0  0  0  0  0  0  0
    0.6588   -0.2364    0.0000 C   0  0  0  0  0  0  0  0  0  0  0  0
    1.0135   -1.6938    0.0000 C   0  0  0  0  0  0  0  0  0  0  0  0
   -0.4622   -1.4251    0.0000 C   0  0  0  0  0  0  0  0  0  0  0  0
  2  1  1  6
  2  3  1  0
  3  4  1  0
  4  5  1  0
  5  6  2  0
  5  7  1  0
  7  8  1  0
  8  9  1  0
  9 10  1  0
 10 11  1  0
 10 12  1  0
 10 13  1  0
  2 14  1  0
 14 15  1  6
 15 16  1  0
 17 16  1  6
 17 18  1  0
 18 19  1  1
 19 20  1  1
 19 21  1  0
 22 21  1  1
 22 23  1  0
 23 24  1  0
 24 25  1  1
 24 26  1  0
 26 27  1  0
 27 28  1  0
 28 29  1  6
 28 30  1  0
 30 31  1  6
 31 32  1  0
 32 33  1  0
 33 34  1  6
 33 14  1  0
 33 17  1  0
 30 18  1  0
 28 22  1  0
M  END
>  <MS_ID>  (2149) 
MS2227

>  <SMILES>  (2149) 
C[C@H](CCC(=O)OCCC(C)(C)O)[C@H]1CC[C@H]2[C@@H]3[C@H](O)C[C@@H]4C[C@H](O)CC[C@]4(C)[C@H]3CC[C@]12C

>  <Structure_dimension>  (2149) 
2D

$$$$
MS2228
     RDKit          2D

 31 34  0  0  0  0  0  0  0  0999 V2000
   -5.1495   -2.4402    0.0000 C   0  0  0  0  0  0  0  0  0  0  0  0
   -4.1405   -1.3302    0.0000 C   0  0  0  0  0  0  0  0  0  0  0  0
   -4.5973    0.0985    0.0000 C   0  0  0  0  0  0  0  0  0  0  0  0
   -6.0631    0.4173    0.0000 C   0  0  0  0  0  0  0  0  0  0  0  0
   -6.5199    1.8461    0.0000 C   0  0  0  0  0  0  0  0  0  0  0  0
   -5.5109    2.9561    0.0000 O   0  0  0  0  0  0  0  0  0  0  0  0
   -7.9856    2.1649    0.0000 O   0  0  0  0  0  0  0  0  0  0  0  0
   -2.6748   -1.6490    0.0000 C   0  0  0  0  0  0  0  0  0  0  0  0
   -2.0712   -3.0222    0.0000 C   0  0  0  0  0  0  0  0  0  0  0  0
   -0.5787   -2.8724    0.0000 C   0  0  0  0  0  0  0  0  0  0  0  0
   -0.2599   -1.4067    0.0000 C   0  0  0  0  0  0  0  0  0  0  0  0
    1.0427   -0.6628    0.0000 C   0  0  0  0  0  0  0  0  0  0  0  0
    2.3382   -1.4189    0.0000 C   0  0  0  0  0  0  0  0  0  0  0  0
    2.3311   -2.9189    0.0000 O   0  0  0  0  0  0  0  0  0  0  0  0
    3.6266   -3.6750    0.0000 C   0  0  0  0  0  0  0  0  0  0  0  0
    4.9291   -2.9312    0.0000 O   0  0  0  0  0  0  0  0  0  0  0  0
    3.6195   -5.1750    0.0000 O   0  0  0  0  0  0  0  0  0  0  0  0
    3.6407   -0.6751    0.0000 C   0  0  0  0  0  0  0  0  0  0  0  0
    3.6478    0.8249    0.0000 C   0  0  0  0  0  0  0  0  0  0  0  0
    4.9504    1.5688    0.0000 C   0  0  0  0  0  0  0  0  0  0  0  0
    4.9574    3.0688    0.0000 C   0  0  0  0  0  0  0  0  0  0  0  0
    6.2600    3.8127    0.0000 O   0  0  0  0  0  0  0  0  0  0  0  0
    3.6619    3.8249    0.0000 C   0  0  0  0  0  0  0  0  0  0  0  0
    2.3594    3.0810    0.0000 C   0  0  0  0  0  0  0  0  0  0  0  0
    2.3523    1.5810    0.0000 C   0  0  0  0  0  0  0  0  0  0  0  0
    1.0568    2.3372    0.0000 C   0  0  0  0  0  0  0  0  0  0  0  0
    1.0497    0.8372    0.0000 C   0  0  0  0  0  0  0  0  0  0  0  0
   -0.2457    1.5933    0.0000 C   0  0  0  0  0  0  0  0  0  0  0  0
   -1.5483    0.8494    0.0000 C   0  0  0  0  0  0  0  0  0  0  0  0
   -1.5554   -0.6506    0.0000 C   0  0  0  0  0  0  0  0  0  0  0  0
   -2.9228   -0.0340    0.0000 C   0  0  0  0  0  0  0  0  0  0  0  0
  2  1  1  6
  2  3  1  0
  3  4  1  0
  4  5  1  0
  5  6  2  0
  5  7  1  0
  2  8  1  0
  8  9  1  6
  9 10  1  0
 11 10  1  6
 11 12  1  0
 12 13  1  1
 13 14  1  1
 14 15  1  0
 15 16  2  0
 15 17  1  0
 13 18  1  0
 19 18  1  1
 19 20  1  0
 20 21  1  0
 21 22  1  1
 21 23  1  0
 23 24  1  0
 24 25  1  0
 25 26  1  6
 25 27  1  0
 27 28  1  6
 28 29  1  0
 29 30  1  0
 30 31  1  6
 30  8  1  0
 30 11  1  0
 27 12  1  0
 25 19  1  0
M  END
>  <MS_ID>  (2150) 
MS2228

>  <SMILES>  (2150) 
C[C@H](CCC(=O)O)[C@H]1CC[C@H]2[C@@H]3[C@H](OC(=O)O)C[C@@H]4C[C@H](O)CC[C@]4(C)[C@H]3CC[C@]12C

>  <Structure_dimension>  (2150) 
2D

$$$$
MS2229
     RDKit          2D

 35 38  0  0  0  0  0  0  0  0999 V2000
   -1.6696   -4.2269    0.0000 C   0  0  0  0  0  0  0  0  0  0  0  0
   -0.9488   -2.9114    0.0000 C   0  0  0  0  0  0  0  0  0  0  0  0
   -1.7275   -1.6295    0.0000 C   0  0  0  0  0  0  0  0  0  0  0  0
   -3.2272   -1.6629    0.0000 C   0  0  0  0  0  0  0  0  0  0  0  0
   -4.0059   -0.3809    0.0000 C   0  0  0  0  0  0  0  0  0  0  0  0
   -3.2851    0.9345    0.0000 O   0  0  0  0  0  0  0  0  0  0  0  0
   -5.5056   -0.4143    0.0000 O   0  0  0  0  0  0  0  0  0  0  0  0
   -6.2843    0.8677    0.0000 C   0  0  0  0  0  0  0  0  0  0  0  0
   -7.7840    0.8342    0.0000 C   0  0  0  0  0  0  0  0  0  0  0  0
   -8.5048   -0.4812    0.0000 O   0  0  0  0  0  0  0  0  0  0  0  0
   -8.5628    2.1162    0.0000 C   0  0  0  0  0  0  0  0  0  0  0  0
  -10.0624    2.0828    0.0000 C   0  0  0  0  0  0  0  0  0  0  0  0
  -10.7832    0.7673    0.0000 O   0  0  0  0  0  0  0  0  0  0  0  0
  -10.8412    3.3648    0.0000 O   0  0  0  0  0  0  0  0  0  0  0  0
    0.5509   -2.8780    0.0000 C   0  0  0  0  0  0  0  0  0  0  0  0
    1.4594   -4.0716    0.0000 C   0  0  0  0  0  0  0  0  0  0  0  0
    2.8753   -3.5764    0.0000 C   0  0  0  0  0  0  0  0  0  0  0  0
    2.8418   -2.0767    0.0000 C   0  0  0  0  0  0  0  0  0  0  0  0
    3.9339   -1.0484    0.0000 C   0  0  0  0  0  0  0  0  0  0  0  0
    5.3705   -1.4800    0.0000 C   0  0  0  0  0  0  0  0  0  0  0  0
    5.7150   -2.9399    0.0000 O   0  0  0  0  0  0  0  0  0  0  0  0
    6.4625   -0.4517    0.0000 C   0  0  0  0  0  0  0  0  0  0  0  0
    6.1180    1.0082    0.0000 C   0  0  0  0  0  0  0  0  0  0  0  0
    7.2101    2.0365    0.0000 C   0  0  0  0  0  0  0  0  0  0  0  0
    6.8656    3.4964    0.0000 C   0  0  0  0  0  0  0  0  0  0  0  0
    7.9576    4.5247    0.0000 O   0  0  0  0  0  0  0  0  0  0  0  0
    5.4290    3.9280    0.0000 C   0  0  0  0  0  0  0  0  0  0  0  0
    4.3370    2.8997    0.0000 C   0  0  0  0  0  0  0  0  0  0  0  0
    4.6815    1.4398    0.0000 C   0  0  0  0  0  0  0  0  0  0  0  0
    3.2449    1.8714    0.0000 C   0  0  0  0  0  0  0  0  0  0  0  0
    3.5894    0.4115    0.0000 C   0  0  0  0  0  0  0  0  0  0  0  0
    2.1528    0.8431    0.0000 C   0  0  0  0  0  0  0  0  0  0  0  0
    1.0608   -0.1852    0.0000 C   0  0  0  0  0  0  0  0  0  0  0  0
    1.4053   -1.6451    0.0000 C   0  0  0  0  0  0  0  0  0  0  0  0
   -0.0686   -1.3660    0.0000 C   0  0  0  0  0  0  0  0  0  0  0  0
  2  1  1  6
  2  3  1  0
  3  4  1  0
  4  5  1  0
  5  6  2  0
  5  7  1  0
  7  8  1  0
  8  9  1  0
  9 10  1  1
  9 11  1  0
 11 12  1  0
 12 13  2  0
 12 14  1  0
  2 15  1  0
 15 16  1  6
 16 17  1  0
 18 17  1  6
 18 19  1  0
 19 20  1  1
 20 21  1  1
 20 22  1  0
 23 22  1  1
 23 24  1  0
 24 25  1  0
 25 26  1  1
 25 27  1  0
 27 28  1  0
 28 29  1  0
 29 30  1  6
 29 31  1  0
 31 32  1  6
 32 33  1  0
 33 34  1  0
 34 35  1  6
 34 15  1  0
 34 18  1  0
 31 19  1  0
 29 23  1  0
M  END
>  <MS_ID>  (2151) 
MS2229

>  <SMILES>  (2151) 
C[C@H](CCC(=O)OC[C@@H](O)CC(=O)O)[C@H]1CC[C@H]2[C@@H]3[C@H](O)C[C@@H]4C[C@H](O)CC[C@]4(C)[C@H]3CC[C@]12C

>  <Structure_dimension>  (2151) 
2D

$$$$
MS2230
     RDKit          2D

 36 40  0  0  0  0  0  0  0  0999 V2000
   -2.2121   -3.2684    0.0000 C   0  0  0  0  0  0  0  0  0  0  0  0
   -1.2477   -2.1195    0.0000 C   0  0  0  0  0  0  0  0  0  0  0  0
   -1.7605   -0.7099    0.0000 C   0  0  0  0  0  0  0  0  0  0  0  0
   -3.2377   -0.4491    0.0000 C   0  0  0  0  0  0  0  0  0  0  0  0
   -3.7504    0.9605    0.0000 C   0  0  0  0  0  0  0  0  0  0  0  0
   -2.7860    2.1094    0.0000 O   0  0  0  0  0  0  0  0  0  0  0  0
   -5.2276    1.2212    0.0000 N   0  0  0  0  0  0  0  0  0  0  0  0
   -5.7404    2.6308    0.0000 C   0  0  0  0  0  0  0  0  0  0  0  0
   -6.1920    0.0723    0.0000 C   0  0  0  0  0  0  0  0  0  0  0  0
   -7.6691    0.3331    0.0000 C   0  0  0  0  0  0  0  0  0  0  0  0
   -8.1819    1.7427    0.0000 C   0  0  0  0  0  0  0  0  0  0  0  0
   -9.6591    2.0034    0.0000 C   0  0  0  0  0  0  0  0  0  0  0  0
  -10.6235    0.8545    0.0000 C   0  0  0  0  0  0  0  0  0  0  0  0
  -10.1107   -0.5551    0.0000 C   0  0  0  0  0  0  0  0  0  0  0  0
   -8.6335   -0.8158    0.0000 C   0  0  0  0  0  0  0  0  0  0  0  0
    0.2295   -2.3802    0.0000 C   0  0  0  0  0  0  0  0  0  0  0  0
    0.8868   -3.7286    0.0000 C   0  0  0  0  0  0  0  0  0  0  0  0
    2.3722   -3.5201    0.0000 C   0  0  0  0  0  0  0  0  0  0  0  0
    2.6329   -2.0429    0.0000 C   0  0  0  0  0  0  0  0  0  0  0  0
    3.9052   -1.2482    0.0000 C   0  0  0  0  0  0  0  0  0  0  0  0
    5.2295   -1.9527    0.0000 C   0  0  0  0  0  0  0  0  0  0  0  0
    5.2815   -3.4518    0.0000 O   0  0  0  0  0  0  0  0  0  0  0  0
    6.5017   -1.1580    0.0000 C   0  0  0  0  0  0  0  0  0  0  0  0
    6.4496    0.3411    0.0000 C   0  0  0  0  0  0  0  0  0  0  0  0
    7.7218    1.1357    0.0000 C   0  0  0  0  0  0  0  0  0  0  0  0
    7.6697    2.6348    0.0000 C   0  0  0  0  0  0  0  0  0  0  0  0
    8.9419    3.4295    0.0000 O   0  0  0  0  0  0  0  0  0  0  0  0
    6.3454    3.3393    0.0000 C   0  0  0  0  0  0  0  0  0  0  0  0
    5.0732    2.5446    0.0000 C   0  0  0  0  0  0  0  0  0  0  0  0
    5.1253    1.0455    0.0000 C   0  0  0  0  0  0  0  0  0  0  0  0
    3.8010    1.7499    0.0000 C   0  0  0  0  0  0  0  0  0  0  0  0
    3.8531    0.2509    0.0000 C   0  0  0  0  0  0  0  0  0  0  0  0
    2.5288    0.9553    0.0000 C   0  0  0  0  0  0  0  0  0  0  0  0
    1.2566    0.1606    0.0000 C   0  0  0  0  0  0  0  0  0  0  0  0
    1.3087   -1.3385    0.0000 C   0  0  0  0  0  0  0  0  0  0  0  0
   -0.0820   -0.7763    0.0000 C   0  0  0  0  0  0  0  0  0  0  0  0
  2  1  1  6
  2  3  1  0
  3  4  1  0
  4  5  1  0
  5  6  2  0
  5  7  1  0
  7  8  1  0
  7  9  1  0
  9 10  1  0
 10 11  2  0
 11 12  1  0
 12 13  2  0
 13 14  1  0
 14 15  2  0
  2 16  1  0
 16 17  1  6
 17 18  1  0
 19 18  1  6
 19 20  1  0
 20 21  1  1
 21 22  1  1
 21 23  1  0
 24 23  1  1
 24 25  1  0
 25 26  1  0
 26 27  1  1
 26 28  1  0
 28 29  1  0
 29 30  1  0
 30 31  1  6
 30 32  1  0
 32 33  1  6
 33 34  1  0
 34 35  1  0
 35 36  1  6
 15 10  1  0
 35 16  1  0
 35 19  1  0
 32 20  1  0
 30 24  1  0
M  END
>  <MS_ID>  (2152) 
MS2230

>  <SMILES>  (2152) 
C[C@H](CCC(=O)N(C)Cc1ccccc1)[C@H]1CC[C@H]2[C@@H]3[C@H](O)C[C@@H]4C[C@H](O)CC[C@]4(C)[C@H]3CC[C@]12C

>  <Structure_dimension>  (2152) 
2D

$$$$
MS2231
     RDKit          2D

 32 35  0  0  0  0  0  0  0  0999 V2000
   -8.8198    2.5355    0.0000 C   0  0  0  0  0  0  0  0  0  0  0  0
   -7.3362    2.3142    0.0000 C   0  0  0  0  0  0  0  0  0  0  0  0
   -6.4028    3.4884    0.0000 O   0  0  0  0  0  0  0  0  0  0  0  0
   -6.7860    0.9188    0.0000 O   0  0  0  0  0  0  0  0  0  0  0  0
   -5.3024    0.6975    0.0000 C   0  0  0  0  0  0  0  0  0  0  0  0
   -4.3690    1.8717    0.0000 O   0  0  0  0  0  0  0  0  0  0  0  0
   -4.7523   -0.6980    0.0000 C   0  0  0  0  0  0  0  0  0  0  0  0
   -3.2687   -0.9192    0.0000 C   0  0  0  0  0  0  0  0  0  0  0  0
   -2.7185   -2.3147    0.0000 C   0  0  0  0  0  0  0  0  0  0  0  0
   -3.6519   -3.4889    0.0000 C   0  0  0  0  0  0  0  0  0  0  0  0
   -1.2349   -2.5360    0.0000 C   0  0  0  0  0  0  0  0  0  0  0  0
   -0.5419   -3.8663    0.0000 C   0  0  0  0  0  0  0  0  0  0  0  0
    0.9375   -3.6183    0.0000 C   0  0  0  0  0  0  0  0  0  0  0  0
    1.1587   -2.1347    0.0000 C   0  0  0  0  0  0  0  0  0  0  0  0
    2.4093   -1.3064    0.0000 C   0  0  0  0  0  0  0  0  0  0  0  0
    3.7519   -1.9753    0.0000 C   0  0  0  0  0  0  0  0  0  0  0  0
    3.8439   -3.4725    0.0000 O   0  0  0  0  0  0  0  0  0  0  0  0
    5.0025   -1.1470    0.0000 C   0  0  0  0  0  0  0  0  0  0  0  0
    4.9105    0.3502    0.0000 C   0  0  0  0  0  0  0  0  0  0  0  0
    6.1611    1.1784    0.0000 C   0  0  0  0  0  0  0  0  0  0  0  0
    6.0690    2.6756    0.0000 C   0  0  0  0  0  0  0  0  0  0  0  0
    7.3196    3.5039    0.0000 O   0  0  0  0  0  0  0  0  0  0  0  0
    4.7264    3.3445    0.0000 C   0  0  0  0  0  0  0  0  0  0  0  0
    3.4759    2.5162    0.0000 C   0  0  0  0  0  0  0  0  0  0  0  0
    3.5679    1.0191    0.0000 C   0  0  0  0  0  0  0  0  0  0  0  0
    2.2253    1.6879    0.0000 C   0  0  0  0  0  0  0  0  0  0  0  0
    2.3173    0.1908    0.0000 C   0  0  0  0  0  0  0  0  0  0  0  0
    0.9747    0.8597    0.0000 C   0  0  0  0  0  0  0  0  0  0  0  0
   -0.2759    0.0314    0.0000 C   0  0  0  0  0  0  0  0  0  0  0  0
   -1.6185    0.7003    0.0000 O   0  0  0  0  0  0  0  0  0  0  0  0
   -0.1839   -1.4658    0.0000 C   0  0  0  0  0  0  0  0  0  0  0  0
   -1.5890   -0.9409    0.0000 C   0  0  0  0  0  0  0  0  0  0  0  0
  1  2  1  0
  2  3  2  0
  2  4  1  0
  4  5  1  0
  5  6  2  0
  5  7  1  0
  7  8  1  0
  8  9  1  0
  9 10  1  6
  9 11  1  0
 11 12  1  6
 12 13  1  0
 14 13  1  6
 14 15  1  0
 15 16  1  1
 16 17  1  1
 16 18  1  0
 19 18  1  1
 19 20  1  0
 20 21  1  0
 21 22  1  1
 21 23  1  0
 23 24  1  0
 24 25  1  0
 25 26  1  6
 25 27  1  0
 27 28  1  6
 28 29  1  0
 29 30  1  1
 29 31  1  0
 31 32  1  6
 31 11  1  0
 31 14  1  0
 27 15  1  0
 25 19  1  0
M  END
>  <MS_ID>  (2153) 
MS2231

>  <SMILES>  (2153) 
CC(=O)OC(=O)CC[C@@H](C)[C@H]1CC[C@H]2[C@@H]3[C@H](O)C[C@@H]4C[C@H](O)CC[C@]4(C)[C@H]3C[C@H](O)[C@]12C

>  <Structure_dimension>  (2153) 
2D

$$$$
MS2232
     RDKit          2D

 29 32  0  0  0  0  0  0  0  0999 V2000
   -4.1361   -2.8778    0.0000 C   0  0  0  0  0  0  0  0  0  0  0  0
   -3.1227   -1.7719    0.0000 C   0  0  0  0  0  0  0  0  0  0  0  0
   -3.5738   -0.3413    0.0000 C   0  0  0  0  0  0  0  0  0  0  0  0
   -5.0383   -0.0167    0.0000 C   0  0  0  0  0  0  0  0  0  0  0  0
   -5.4894    1.4138    0.0000 C   0  0  0  0  0  0  0  0  0  0  0  0
   -4.4761    2.5198    0.0000 O   0  0  0  0  0  0  0  0  0  0  0  0
   -6.9539    1.7384    0.0000 C   0  0  0  0  0  0  0  0  0  0  0  0
   -7.4050    3.1690    0.0000 S   0  0  0  0  0  0  0  0  0  0  0  0
   -1.6583   -2.0965    0.0000 C   0  0  0  0  0  0  0  0  0  0  0  0
   -1.0601   -3.4720    0.0000 C   0  0  0  0  0  0  0  0  0  0  0  0
    0.4330   -3.3282    0.0000 C   0  0  0  0  0  0  0  0  0  0  0  0
    0.7576   -1.8638    0.0000 C   0  0  0  0  0  0  0  0  0  0  0  0
    2.0631   -1.1251    0.0000 C   0  0  0  0  0  0  0  0  0  0  0  0
    3.3556   -1.8863    0.0000 C   0  0  0  0  0  0  0  0  0  0  0  0
    3.3426   -3.3863    0.0000 O   0  0  0  0  0  0  0  0  0  0  0  0
    4.6611   -1.1476    0.0000 C   0  0  0  0  0  0  0  0  0  0  0  0
    4.6741    0.3523    0.0000 C   0  0  0  0  0  0  0  0  0  0  0  0
    5.9796    1.0910    0.0000 C   0  0  0  0  0  0  0  0  0  0  0  0
    5.9926    2.5910    0.0000 C   0  0  0  0  0  0  0  0  0  0  0  0
    4.7002    3.3522    0.0000 C   0  0  0  0  0  0  0  0  0  0  0  0
    3.3947    2.6135    0.0000 C   0  0  0  0  0  0  0  0  0  0  0  0
    3.3816    1.1136    0.0000 C   0  0  0  0  0  0  0  0  0  0  0  0
    2.0891    1.8748    0.0000 C   0  0  0  0  0  0  0  0  0  0  0  0
    2.0761    0.3749    0.0000 C   0  0  0  0  0  0  0  0  0  0  0  0
    0.7836    1.1361    0.0000 C   0  0  0  0  0  0  0  0  0  0  0  0
   -0.5219    0.3974    0.0000 C   0  0  0  0  0  0  0  0  0  0  0  0
   -1.8143    1.1587    0.0000 O   0  0  0  0  0  0  0  0  0  0  0  0
   -0.5349   -1.1025    0.0000 C   0  0  0  0  0  0  0  0  0  0  0  0
   -1.8998   -0.4805    0.0000 C   0  0  0  0  0  0  0  0  0  0  0  0
  2  1  1  6
  2  3  1  0
  3  4  1  0
  4  5  1  0
  5  6  2  0
  5  7  1  0
  7  8  1  0
  2  9  1  0
  9 10  1  6
 10 11  1  0
 12 11  1  6
 12 13  1  0
 13 14  1  1
 14 15  1  6
 14 16  1  0
 17 16  1  1
 17 18  1  0
 18 19  1  0
 19 20  1  0
 20 21  1  0
 21 22  1  0
 22 23  1  6
 22 24  1  0
 24 25  1  6
 25 26  1  0
 26 27  1  6
 26 28  1  0
 28 29  1  6
 28  9  1  0
 28 12  1  0
 24 13  1  0
 22 17  1  0
M  END
>  <MS_ID>  (2154) 
MS2232

>  <SMILES>  (2154) 
C[C@H](CCC(=O)CS)[C@H]1CC[C@H]2[C@@H]3[C@@H](O)C[C@@H]4CCCC[C@]4(C)[C@H]3C[C@@H](O)[C@]12C

>  <Structure_dimension>  (2154) 
2D

$$$$
MS2233
     RDKit          2D

 37 41  0  0  0  0  0  0  0  0999 V2000
   -7.5627   -1.5685    0.0000 C   0  0  0  0  0  0  0  0  0  0  0  0
   -6.2787   -0.7930    0.0000 C   0  0  0  0  0  0  0  0  0  0  0  0
   -6.3083    0.7067    0.0000 C   0  0  0  0  0  0  0  0  0  0  0  0
   -7.6219    1.4309    0.0000 C   0  0  0  0  0  0  0  0  0  0  0  0
   -7.6515    2.9306    0.0000 C   0  0  0  0  0  0  0  0  0  0  0  0
   -6.3675    3.7061    0.0000 O   0  0  0  0  0  0  0  0  0  0  0  0
   -8.9651    3.6548    0.0000 O   0  0  0  0  0  0  0  0  0  0  0  0
   -4.9651   -1.5172    0.0000 C   0  0  0  0  0  0  0  0  0  0  0  0
   -4.7789   -3.0056    0.0000 C   0  0  0  0  0  0  0  0  0  0  0  0
   -3.3058   -3.2885    0.0000 C   0  0  0  0  0  0  0  0  0  0  0  0
   -2.5816   -1.9749    0.0000 C   0  0  0  0  0  0  0  0  0  0  0  0
   -1.1208   -1.6341    0.0000 C   0  0  0  0  0  0  0  0  0  0  0  0
   -0.0953   -2.7288    0.0000 C   0  0  0  0  0  0  0  0  0  0  0  0
   -0.5306   -4.1643    0.0000 O   0  0  0  0  0  0  0  0  0  0  0  0
    1.3655   -2.3880    0.0000 C   0  0  0  0  0  0  0  0  0  0  0  0
    1.8008   -0.9526    0.0000 C   0  0  0  0  0  0  0  0  0  0  0  0
    3.2615   -0.6118    0.0000 C   0  0  0  0  0  0  0  0  0  0  0  0
    3.6968    0.8236    0.0000 C   0  0  0  0  0  0  0  0  0  0  0  0
    5.1576    1.1644    0.0000 O   0  0  0  0  0  0  0  0  0  0  0  0
    6.1831    0.0697    0.0000 C   0  0  0  0  0  0  0  0  0  0  0  0
    5.7478   -1.3657    0.0000 O   0  0  0  0  0  0  0  0  0  0  0  0
    7.6439    0.4105    0.0000 C   0  0  0  0  0  0  0  0  0  0  0  0
    8.6694   -0.6842    0.0000 C   0  0  0  0  0  0  0  0  0  0  0  0
   10.1302   -0.3434    0.0000 C   0  0  0  0  0  0  0  0  0  0  0  0
   10.5654    1.0920    0.0000 C   0  0  0  0  0  0  0  0  0  0  0  0
    9.5399    2.1867    0.0000 C   0  0  0  0  0  0  0  0  0  0  0  0
    8.0792    1.8459    0.0000 C   0  0  0  0  0  0  0  0  0  0  0  0
    2.6713    1.9183    0.0000 C   0  0  0  0  0  0  0  0  0  0  0  0
    1.2105    1.5776    0.0000 C   0  0  0  0  0  0  0  0  0  0  0  0
    0.7753    0.1421    0.0000 C   0  0  0  0  0  0  0  0  0  0  0  0
   -0.2503    1.2368    0.0000 C   0  0  0  0  0  0  0  0  0  0  0  0
   -0.6855   -0.1987    0.0000 C   0  0  0  0  0  0  0  0  0  0  0  0
   -1.7110    0.8960    0.0000 C   0  0  0  0  0  0  0  0  0  0  0  0
   -3.1718    0.5553    0.0000 C   0  0  0  0  0  0  0  0  0  0  0  0
   -4.1973    1.6500    0.0000 O   0  0  0  0  0  0  0  0  0  0  0  0
   -3.6071   -0.8802    0.0000 C   0  0  0  0  0  0  0  0  0  0  0  0
   -4.7414    0.1013    0.0000 C   0  0  0  0  0  0  0  0  0  0  0  0
  2  1  1  6
  2  3  1  0
  3  4  1  0
  4  5  1  0
  5  6  2  0
  5  7  1  0
  2  8  1  0
  8  9  1  6
  9 10  1  0
 11 10  1  6
 11 12  1  0
 12 13  1  1
 13 14  1  1
 13 15  1  0
 16 15  1  1
 16 17  1  0
 17 18  1  0
 18 19  1  1
 19 20  1  0
 20 21  2  0
 20 22  1  0
 22 23  2  0
 23 24  1  0
 24 25  2  0
 25 26  1  0
 26 27  2  0
 18 28  1  0
 28 29  1  0
 29 30  1  0
 30 31  1  6
 30 32  1  0
 32 33  1  6
 33 34  1  0
 34 35  1  1
 34 36  1  0
 36 37  1  6
 36  8  1  0
 36 11  1  0
 32 12  1  0
 30 16  1  0
 27 22  1  0
M  END
>  <MS_ID>  (2155) 
MS2233

>  <SMILES>  (2155) 
C[C@H](CCC(=O)O)[C@H]1CC[C@H]2[C@@H]3[C@H](O)C[C@@H]4C[C@H](OC(=O)c5ccccc5)CC[C@]4(C)[C@H]3C[C@H](O)[C@]12C

>  <Structure_dimension>  (2155) 
2D

$$$$
MS2234
     RDKit          2D

 28 31  0  0  0  0  0  0  0  0999 V2000
   -5.1275   -2.0302    0.0000 C   0  0  0  0  0  0  0  0  0  0  0  0
   -3.9468   -1.1050    0.0000 C   0  0  0  0  0  0  0  0  0  0  0  0
   -4.1576    0.3801    0.0000 C   0  0  0  0  0  0  0  0  0  0  0  0
   -5.5492    0.9401    0.0000 C   0  0  0  0  0  0  0  0  0  0  0  0
   -5.7600    2.4252    0.0000 C   0  0  0  0  0  0  0  0  0  0  0  0
   -4.5793    3.3503    0.0000 O   0  0  0  0  0  0  0  0  0  0  0  0
   -7.1516    2.9851    0.0000 O   0  0  0  0  0  0  0  0  0  0  0  0
   -2.5552   -1.6650    0.0000 C   0  0  0  0  0  0  0  0  0  0  0  0
   -2.1903   -3.1199    0.0000 C   0  0  0  0  0  0  0  0  0  0  0  0
   -0.6938   -3.2225    0.0000 C   0  0  0  0  0  0  0  0  0  0  0  0
   -0.1339   -1.8309    0.0000 C   0  0  0  0  0  0  0  0  0  0  0  0
    1.2750   -1.3159    0.0000 C   0  0  0  0  0  0  0  0  0  0  0  0
    2.4254   -2.2785    0.0000 C   0  0  0  0  0  0  0  0  0  0  0  0
    2.1670   -3.7560    0.0000 O   0  0  0  0  0  0  0  0  0  0  0  0
    3.8342   -1.7635    0.0000 C   0  0  0  0  0  0  0  0  0  0  0  0
    4.0926   -0.2859    0.0000 C   0  0  0  0  0  0  0  0  0  0  0  0
    5.5014    0.2291    0.0000 C   0  0  0  0  0  0  0  0  0  0  0  0
    5.7598    1.7067    0.0000 C   0  0  0  0  0  0  0  0  0  0  0  0
    7.1687    2.2217    0.0000 O   0  0  0  0  0  0  0  0  0  0  0  0
    4.6094    2.6692    0.0000 C   0  0  0  0  0  0  0  0  0  0  0  0
    3.2006    2.1542    0.0000 C   0  0  0  0  0  0  0  0  0  0  0  0
    2.9422    0.6767    0.0000 C   0  0  0  0  0  0  0  0  0  0  0  0
    1.7918    1.6392    0.0000 C   0  0  0  0  0  0  0  0  0  0  0  0
    1.5334    0.1617    0.0000 C   0  0  0  0  0  0  0  0  0  0  0  0
    0.3830    1.1242    0.0000 C   0  0  0  0  0  0  0  0  0  0  0  0
   -1.0259    0.6093    0.0000 C   0  0  0  0  0  0  0  0  0  0  0  0
   -1.2843   -0.8683    0.0000 C   0  0  0  0  0  0  0  0  0  0  0  0
   -2.5290   -0.0313    0.0000 C   0  0  0  0  0  0  0  0  0  0  0  0
  2  1  1  1
  2  3  1  0
  3  4  1  0
  4  5  1  0
  5  6  2  0
  5  7  1  0
  2  8  1  0
  8  9  1  6
  9 10  1  0
 11 10  1  6
 11 12  1  0
 12 13  1  1
 13 14  2  0
 13 15  1  0
 16 15  1  1
 16 17  1  0
 17 18  1  0
 18 19  1  1
 18 20  1  0
 20 21  1  0
 21 22  1  0
 22 23  1  6
 22 24  1  0
 24 25  1  6
 25 26  1  0
 26 27  1  0
 27 28  1  6
 27  8  1  0
 27 11  1  0
 24 12  1  0
 22 16  1  0
M  END
>  <MS_ID>  (2156) 
MS2234

>  <SMILES>  (2156) 
C[C@@H](CCC(=O)O)[C@H]1CC[C@H]2[C@@H]3C(=O)C[C@@H]4C[C@H](O)CC[C@]4(C)[C@H]3CC[C@]12C

>  <Structure_dimension>  (2156) 
2D

$$$$
MS2235
     RDKit          2D

 32 35  0  0  0  0  0  0  0  0999 V2000
   -6.1853   -1.9897    0.0000 C   0  0  0  0  0  0  0  0  0  0  0  0
   -4.9559   -1.1303    0.0000 C   0  0  0  0  0  0  0  0  0  0  0  0
   -5.0854    0.3641    0.0000 C   0  0  0  0  0  0  0  0  0  0  0  0
   -6.4444    0.9991    0.0000 C   0  0  0  0  0  0  0  0  0  0  0  0
   -6.5740    2.4935    0.0000 C   0  0  0  0  0  0  0  0  0  0  0  0
   -7.9329    3.1285    0.0000 O   0  0  0  0  0  0  0  0  0  0  0  0
   -5.3445    3.3529    0.0000 F   0  0  0  0  0  0  0  0  0  0  0  0
   -3.5969   -1.7653    0.0000 C   0  0  0  0  0  0  0  0  0  0  0  0
   -3.3119   -3.2380    0.0000 C   0  0  0  0  0  0  0  0  0  0  0  0
   -1.8232   -3.4219    0.0000 C   0  0  0  0  0  0  0  0  0  0  0  0
   -1.1882   -2.0630    0.0000 C   0  0  0  0  0  0  0  0  0  0  0  0
    0.2466   -1.6256    0.0000 C   0  0  0  0  0  0  0  0  0  0  0  0
    1.3428   -2.6494    0.0000 C   0  0  0  0  0  0  0  0  0  0  0  0
    2.7776   -2.2120    0.0000 C   0  0  0  0  0  0  0  0  0  0  0  0
    3.1162   -0.7507    0.0000 C   0  0  0  0  0  0  0  0  0  0  0  0
    4.5510   -0.3133    0.0000 C   0  0  0  0  0  0  0  0  0  0  0  0
    4.8896    1.1480    0.0000 C   0  0  0  0  0  0  0  0  0  0  0  0
    6.3244    1.5854    0.0000 O   0  0  0  0  0  0  0  0  0  0  0  0
    7.4206    0.5615    0.0000 S   0  0  0  0  0  0  0  0  0  0  0  0
    6.3967   -0.5347    0.0000 O   0  0  0  0  0  0  0  0  0  0  0  0
    8.4445    1.6578    0.0000 O   0  0  0  0  0  0  0  0  0  0  0  0
    8.5168   -0.4623    0.0000 O   0  0  0  0  0  0  0  0  0  0  0  0
    3.7934    2.1718    0.0000 C   0  0  0  0  0  0  0  0  0  0  0  0
    2.3586    1.7344    0.0000 C   0  0  0  0  0  0  0  0  0  0  0  0
    2.0200    0.2731    0.0000 C   0  0  0  0  0  0  0  0  0  0  0  0
    0.9238    1.2970    0.0000 C   0  0  0  0  0  0  0  0  0  0  0  0
    0.5852   -0.1643    0.0000 C   0  0  0  0  0  0  0  0  0  0  0  0
   -0.5110    0.8596    0.0000 C   0  0  0  0  0  0  0  0  0  0  0  0
   -1.9458    0.4222    0.0000 C   0  0  0  0  0  0  0  0  0  0  0  0
   -3.0421    1.4460    0.0000 O   0  0  0  0  0  0  0  0  0  0  0  0
   -2.2844   -1.0391    0.0000 C   0  0  0  0  0  0  0  0  0  0  0  0
   -3.4817   -0.1354    0.0000 C   0  0  0  0  0  0  0  0  0  0  0  0
  2  1  1  6
  2  3  1  0
  3  4  1  0
  4  5  1  0
  5  6  2  0
  5  7  1  0
  2  8  1  0
  8  9  1  6
  9 10  1  0
 11 10  1  6
 11 12  1  0
 12 13  1  1
 13 14  1  0
 15 14  1  1
 15 16  1  0
 16 17  1  0
 17 18  1  1
 18 19  1  0
 19 20  2  0
 19 21  2  0
 19 22  1  0
 17 23  1  0
 23 24  1  0
 24 25  1  0
 25 26  1  6
 25 27  1  0
 27 28  1  6
 28 29  1  0
 29 30  1  1
 29 31  1  0
 31 32  1  6
 31  8  1  0
 31 11  1  0
 27 12  1  0
 25 15  1  0
M  END
>  <MS_ID>  (2157) 
MS2235

>  <SMILES>  (2157) 
C[C@H](CCC(=O)F)[C@H]1CC[C@H]2[C@@H]3CC[C@@H]4C[C@H](OS(=O)(=O)O)CC[C@]4(C)[C@H]3C[C@H](O)[C@]12C

>  <Structure_dimension>  (2157) 
2D

$$$$
MS2236
     RDKit          2D

 29 32  0  0  0  0  0  0  0  0999 V2000
   -5.4198   -1.9165    0.0000 C   0  0  0  0  0  0  0  0  0  0  0  0
   -4.2085   -1.0318    0.0000 C   0  0  0  0  0  0  0  0  0  0  0  0
   -4.3691    0.4596    0.0000 C   0  0  0  0  0  0  0  0  0  0  0  0
   -5.7409    1.0662    0.0000 C   0  0  0  0  0  0  0  0  0  0  0  0
   -5.9015    2.5576    0.0000 C   0  0  0  0  0  0  0  0  0  0  0  0
   -4.6902    3.4424    0.0000 O   0  0  0  0  0  0  0  0  0  0  0  0
   -7.2733    3.1643    0.0000 O   0  0  0  0  0  0  0  0  0  0  0  0
   -2.8366   -1.6384    0.0000 C   0  0  0  0  0  0  0  0  0  0  0  0
   -2.5211   -3.1049    0.0000 C   0  0  0  0  0  0  0  0  0  0  0  0
   -1.0289   -3.2579    0.0000 C   0  0  0  0  0  0  0  0  0  0  0  0
   -0.4222   -1.8860    0.0000 C   0  0  0  0  0  0  0  0  0  0  0  0
    1.0032   -1.4189    0.0000 C   0  0  0  0  0  0  0  0  0  0  0  0
    2.1204   -2.4198    0.0000 C   0  0  0  0  0  0  0  0  0  0  0  0
    1.8123   -3.8878    0.0000 O   0  0  0  0  0  0  0  0  0  0  0  0
    3.5458   -1.9526    0.0000 C   0  0  0  0  0  0  0  0  0  0  0  0
    3.8540   -0.4846    0.0000 C   0  0  0  0  0  0  0  0  0  0  0  0
    5.2794   -0.0175    0.0000 C   0  0  0  0  0  0  0  0  0  0  0  0
    5.5875    1.4505    0.0000 C   0  0  0  0  0  0  0  0  0  0  0  0
    6.3792    2.7246    0.0000 C   0  0  0  0  0  0  0  0  0  0  0  0
    6.9797    0.8921    0.0000 O   0  0  0  0  0  0  0  0  0  0  0  0
    4.4703    2.4514    0.0000 C   0  0  0  0  0  0  0  0  0  0  0  0
    3.0449    1.9843    0.0000 C   0  0  0  0  0  0  0  0  0  0  0  0
    2.7367    0.5163    0.0000 C   0  0  0  0  0  0  0  0  0  0  0  0
    1.6195    1.5171    0.0000 C   0  0  0  0  0  0  0  0  0  0  0  0
    1.3113    0.0491    0.0000 C   0  0  0  0  0  0  0  0  0  0  0  0
    0.1941    1.0500    0.0000 C   0  0  0  0  0  0  0  0  0  0  0  0
   -1.2313    0.5829    0.0000 C   0  0  0  0  0  0  0  0  0  0  0  0
   -1.5395   -0.8851    0.0000 C   0  0  0  0  0  0  0  0  0  0  0  0
   -2.7553   -0.0065    0.0000 C   0  0  0  0  0  0  0  0  0  0  0  0
  2  1  1  6
  2  3  1  0
  3  4  1  0
  4  5  1  0
  5  6  2  0
  5  7  1  0
  2  8  1  0
  8  9  1  6
  9 10  1  0
 11 10  1  6
 11 12  1  0
 12 13  1  1
 13 14  1  6
 13 15  1  0
 16 15  1  1
 16 17  1  0
 17 18  1  0
 18 19  1  1
 18 20  1  0
 18 21  1  0
 21 22  1  0
 22 23  1  0
 23 24  1  6
 23 25  1  0
 25 26  1  6
 26 27  1  0
 27 28  1  0
 28 29  1  6
 28  8  1  0
 28 11  1  0
 25 12  1  0
 23 16  1  0
M  END
>  <MS_ID>  (2158) 
MS2236

>  <SMILES>  (2158) 
C[C@H](CCC(=O)O)[C@H]1CC[C@H]2[C@@H]3[C@@H](O)C[C@@H]4C[C@@](C)(O)CC[C@]4(C)[C@H]3CC[C@]12C

>  <Structure_dimension>  (2158) 
2D

$$$$
MS2237
     RDKit          2D

 29 32  0  0  0  0  0  0  0  0999 V2000
   -4.6958   -2.6034    0.0000 C   0  0  0  0  0  0  0  0  0  0  0  0
   -3.5597   -1.6240    0.0000 C   0  0  0  0  0  0  0  0  0  0  0  0
   -3.8399   -0.1504    0.0000 C   0  0  0  0  0  0  0  0  0  0  0  0
   -5.2561    0.3438    0.0000 C   0  0  0  0  0  0  0  0  0  0  0  0
   -5.5363    1.8174    0.0000 C   0  0  0  0  0  0  0  0  0  0  0  0
   -6.9525    2.3116    0.0000 O   0  0  0  0  0  0  0  0  0  0  0  0
   -4.4002    2.7968    0.0000 S   0  0  0  0  0  0  0  0  0  0  0  0
   -4.6804    4.2704    0.0000 O   0  0  0  0  0  0  0  0  0  0  0  0
   -2.1434   -2.1182    0.0000 C   0  0  0  0  0  0  0  0  0  0  0  0
   -1.7108   -3.5544    0.0000 C   0  0  0  0  0  0  0  0  0  0  0  0
   -0.2111   -3.5867    0.0000 C   0  0  0  0  0  0  0  0  0  0  0  0
    0.2831   -2.1705    0.0000 C   0  0  0  0  0  0  0  0  0  0  0  0
    1.6662   -1.5901    0.0000 C   0  0  0  0  0  0  0  0  0  0  0  0
    2.8605   -2.4977    0.0000 C   0  0  0  0  0  0  0  0  0  0  0  0
    4.2436   -1.9173    0.0000 C   0  0  0  0  0  0  0  0  0  0  0  0
    4.4325   -0.4292    0.0000 C   0  0  0  0  0  0  0  0  0  0  0  0
    5.8157    0.1512    0.0000 C   0  0  0  0  0  0  0  0  0  0  0  0
    6.0046    1.6393    0.0000 C   0  0  0  0  0  0  0  0  0  0  0  0
    7.3877    2.2197    0.0000 O   0  0  0  0  0  0  0  0  0  0  0  0
    4.8103    2.5469    0.0000 C   0  0  0  0  0  0  0  0  0  0  0  0
    3.4272    1.9665    0.0000 C   0  0  0  0  0  0  0  0  0  0  0  0
    3.2383    0.4784    0.0000 C   0  0  0  0  0  0  0  0  0  0  0  0
    2.0440    1.3861    0.0000 C   0  0  0  0  0  0  0  0  0  0  0  0
    1.8551   -0.1020    0.0000 C   0  0  0  0  0  0  0  0  0  0  0  0
    0.6609    0.8056    0.0000 C   0  0  0  0  0  0  0  0  0  0  0  0
   -0.7223    0.2252    0.0000 C   0  0  0  0  0  0  0  0  0  0  0  0
   -1.9165    1.1328    0.0000 O   0  0  0  0  0  0  0  0  0  0  0  0
   -0.9112   -1.2628    0.0000 C   0  0  0  0  0  0  0  0  0  0  0  0
   -2.1937   -0.4850    0.0000 C   0  0  0  0  0  0  0  0  0  0  0  0
  2  1  1  6
  2  3  1  0
  3  4  1  0
  4  5  1  0
  5  6  2  0
  5  7  1  0
  7  8  1  0
  2  9  1  0
  9 10  1  6
 10 11  1  0
 12 11  1  6
 12 13  1  0
 13 14  1  1
 14 15  1  0
 16 15  1  1
 16 17  1  0
 17 18  1  0
 18 19  1  1
 18 20  1  0
 20 21  1  0
 21 22  1  0
 22 23  1  6
 22 24  1  0
 24 25  1  6
 25 26  1  0
 26 27  1  1
 26 28  1  0
 28 29  1  6
 28  9  1  0
 28 12  1  0
 24 13  1  0
 22 16  1  0
M  END
>  <MS_ID>  (2159) 
MS2237

>  <SMILES>  (2159) 
C[C@H](CCC(=O)SO)[C@H]1CC[C@H]2[C@@H]3CC[C@@H]4C[C@H](O)CC[C@]4(C)[C@H]3C[C@H](O)[C@]12C

>  <Structure_dimension>  (2159) 
2D

$$$$
MS2238
     RDKit          2D

 28 31  0  0  0  0  0  0  0  0999 V2000
   -5.2870   -1.7591    0.0000 C   0  0  0  0  0  0  0  0  0  0  0  0
   -4.0706   -0.8813    0.0000 C   0  0  0  0  0  0  0  0  0  0  0  0
   -4.2226    0.6109    0.0000 C   0  0  0  0  0  0  0  0  0  0  0  0
   -5.5910    1.2255    0.0000 C   0  0  0  0  0  0  0  0  0  0  0  0
   -5.7429    2.7177    0.0000 C   0  0  0  0  0  0  0  0  0  0  0  0
   -7.1113    3.3322    0.0000 O   0  0  0  0  0  0  0  0  0  0  0  0
   -2.7023   -1.4959    0.0000 C   0  0  0  0  0  0  0  0  0  0  0  0
   -2.3951   -2.9641    0.0000 C   0  0  0  0  0  0  0  0  0  0  0  0
   -0.9039   -3.1257    0.0000 C   0  0  0  0  0  0  0  0  0  0  0  0
   -0.2893   -1.7573    0.0000 C   0  0  0  0  0  0  0  0  0  0  0  0
    1.1387   -1.2984    0.0000 C   0  0  0  0  0  0  0  0  0  0  0  0
    2.2502   -2.3057    0.0000 C   0  0  0  0  0  0  0  0  0  0  0  0
    1.9336   -3.7719    0.0000 O   0  0  0  0  0  0  0  0  0  0  0  0
    3.6783   -1.8467    0.0000 C   0  0  0  0  0  0  0  0  0  0  0  0
    3.9949   -0.3805    0.0000 C   0  0  0  0  0  0  0  0  0  0  0  0
    5.4229    0.0784    0.0000 C   0  0  0  0  0  0  0  0  0  0  0  0
    5.7395    1.5446    0.0000 C   0  0  0  0  0  0  0  0  0  0  0  0
    7.1676    2.0035    0.0000 O   0  0  0  0  0  0  0  0  0  0  0  0
    4.6280    2.5519    0.0000 C   0  0  0  0  0  0  0  0  0  0  0  0
    3.2000    2.0930    0.0000 C   0  0  0  0  0  0  0  0  0  0  0  0
    2.8834    0.6267    0.0000 C   0  0  0  0  0  0  0  0  0  0  0  0
    1.7719    1.6340    0.0000 C   0  0  0  0  0  0  0  0  0  0  0  0
    1.4553    0.1678    0.0000 C   0  0  0  0  0  0  0  0  0  0  0  0
    0.3438    1.1751    0.0000 C   0  0  0  0  0  0  0  0  0  0  0  0
   -1.0842    0.7162    0.0000 C   0  0  0  0  0  0  0  0  0  0  0  0
   -2.1957    1.7234    0.0000 O   0  0  0  0  0  0  0  0  0  0  0  0
   -1.4008   -0.7500    0.0000 C   0  0  0  0  0  0  0  0  0  0  0  0
   -2.6115    0.1355    0.0000 C   0  0  0  0  0  0  0  0  0  0  0  0
  2  1  1  6
  2  3  1  0
  3  4  1  0
  4  5  1  0
  5  6  2  0
  2  7  1  0
  7  8  1  6
  8  9  1  0
 10  9  1  6
 10 11  1  0
 11 12  1  1
 12 13  1  1
 12 14  1  0
 15 14  1  1
 15 16  1  0
 16 17  1  0
 17 18  2  0
 17 19  1  0
 19 20  1  0
 20 21  1  0
 21 22  1  6
 21 23  1  0
 23 24  1  6
 24 25  1  0
 25 26  1  1
 25 27  1  0
 27 28  1  6
 27  7  1  0
 27 10  1  0
 23 11  1  0
 21 15  1  0
M  END
>  <MS_ID>  (2160) 
MS2238

>  <SMILES>  (2160) 
C[C@H](CCC=O)[C@H]1CC[C@H]2[C@@H]3[C@H](O)C[C@@H]4CC(=O)CC[C@]4(C)[C@H]3C[C@H](O)[C@]12C

>  <Structure_dimension>  (2160) 
2D

$$$$
MS2239
     RDKit          2D

 34 37  0  0  0  0  0  0  0  0999 V2000
   -1.8984   -4.2506    0.0000 C   0  0  0  0  0  0  0  0  0  0  0  0
   -1.1842   -2.9316    0.0000 C   0  0  0  0  0  0  0  0  0  0  0  0
   -1.9694   -1.6535    0.0000 C   0  0  0  0  0  0  0  0  0  0  0  0
   -3.4688   -1.6945    0.0000 C   0  0  0  0  0  0  0  0  0  0  0  0
   -4.2540   -0.4165    0.0000 C   0  0  0  0  0  0  0  0  0  0  0  0
   -3.5398    0.9026    0.0000 O   0  0  0  0  0  0  0  0  0  0  0  0
   -5.7535   -0.4574    0.0000 C   0  0  0  0  0  0  0  0  0  0  0  0
   -6.5387    0.8206    0.0000 C   0  0  0  0  0  0  0  0  0  0  0  0
   -8.0381    0.7796    0.0000 C   0  0  0  0  0  0  0  0  0  0  0  0
   -8.8234    2.0577    0.0000 C   0  0  0  0  0  0  0  0  0  0  0  0
  -10.3228    2.0167    0.0000 C   0  0  0  0  0  0  0  0  0  0  0  0
  -11.0370    0.6977    0.0000 O   0  0  0  0  0  0  0  0  0  0  0  0
  -11.1080    3.2948    0.0000 O   0  0  0  0  0  0  0  0  0  0  0  0
    0.3153   -2.8906    0.0000 C   0  0  0  0  0  0  0  0  0  0  0  0
    1.2298   -4.0796    0.0000 C   0  0  0  0  0  0  0  0  0  0  0  0
    2.6432   -3.5773    0.0000 C   0  0  0  0  0  0  0  0  0  0  0  0
    2.6022   -2.0778    0.0000 C   0  0  0  0  0  0  0  0  0  0  0  0
    3.6890   -1.0440    0.0000 C   0  0  0  0  0  0  0  0  0  0  0  0
    5.1278   -1.4684    0.0000 C   0  0  0  0  0  0  0  0  0  0  0  0
    5.4796   -2.9266    0.0000 O   0  0  0  0  0  0  0  0  0  0  0  0
    6.2146   -0.4346    0.0000 C   0  0  0  0  0  0  0  0  0  0  0  0
    5.8628    1.0235    0.0000 C   0  0  0  0  0  0  0  0  0  0  0  0
    6.9497    2.0573    0.0000 C   0  0  0  0  0  0  0  0  0  0  0  0
    6.5978    3.5154    0.0000 C   0  0  0  0  0  0  0  0  0  0  0  0
    7.6847    4.5492    0.0000 O   0  0  0  0  0  0  0  0  0  0  0  0
    5.1591    3.9398    0.0000 C   0  0  0  0  0  0  0  0  0  0  0  0
    4.0722    2.9060    0.0000 C   0  0  0  0  0  0  0  0  0  0  0  0
    4.4241    1.4479    0.0000 C   0  0  0  0  0  0  0  0  0  0  0  0
    2.9854    1.8723    0.0000 C   0  0  0  0  0  0  0  0  0  0  0  0
    3.3372    0.4141    0.0000 C   0  0  0  0  0  0  0  0  0  0  0  0
    1.8985    0.8385    0.0000 C   0  0  0  0  0  0  0  0  0  0  0  0
    0.8116   -0.1953    0.0000 C   0  0  0  0  0  0  0  0  0  0  0  0
    1.1635   -1.6534    0.0000 C   0  0  0  0  0  0  0  0  0  0  0  0
   -0.3117   -1.3818    0.0000 C   0  0  0  0  0  0  0  0  0  0  0  0
  2  1  1  6
  2  3  1  0
  3  4  1  0
  4  5  1  0
  5  6  2  0
  5  7  1  0
  7  8  2  0
  8  9  1  0
  9 10  2  0
 10 11  1  0
 11 12  2  0
 11 13  1  0
  2 14  1  0
 14 15  1  6
 15 16  1  0
 17 16  1  6
 17 18  1  0
 18 19  1  1
 19 20  1  1
 19 21  1  0
 22 21  1  1
 22 23  1  0
 23 24  1  0
 24 25  1  1
 24 26  1  0
 26 27  1  0
 27 28  1  0
 28 29  1  6
 28 30  1  0
 30 31  1  6
 31 32  1  0
 32 33  1  0
 33 34  1  6
 33 14  1  0
 33 17  1  0
 30 18  1  0
 28 22  1  0
M  END
>  <MS_ID>  (2161) 
MS2239

>  <SMILES>  (2161) 
C[C@H](CCC(=O)/C=C/C=C/C(=O)O)[C@H]1CC[C@H]2[C@@H]3[C@H](O)C[C@@H]4C[C@H](O)CC[C@]4(C)[C@H]3CC[C@]12C

>  <Structure_dimension>  (2161) 
2D

$$$$
MS2240
     RDKit          2D

 31 34  0  0  0  0  0  0  0  0999 V2000
   -5.0390   -2.1770    0.0000 C   0  0  0  0  0  0  0  0  0  0  0  0
   -3.9314   -1.1655    0.0000 C   0  0  0  0  0  0  0  0  0  0  0  0
   -4.2536    0.2995    0.0000 C   0  0  0  0  0  0  0  0  0  0  0  0
   -5.6834    0.7530    0.0000 C   0  0  0  0  0  0  0  0  0  0  0  0
   -6.0056    2.2180    0.0000 C   0  0  0  0  0  0  0  0  0  0  0  0
   -4.8980    3.2295    0.0000 O   0  0  0  0  0  0  0  0  0  0  0  0
   -7.4354    2.6714    0.0000 O   0  0  0  0  0  0  0  0  0  0  0  0
   -2.5016   -1.6189    0.0000 C   0  0  0  0  0  0  0  0  0  0  0  0
   -2.0280   -3.0422    0.0000 C   0  0  0  0  0  0  0  0  0  0  0  0
   -0.5280   -3.0316    0.0000 C   0  0  0  0  0  0  0  0  0  0  0  0
   -0.0746   -1.6018    0.0000 C   0  0  0  0  0  0  0  0  0  0  0  0
    1.2914   -0.9820    0.0000 C   0  0  0  0  0  0  0  0  0  0  0  0
    2.5111   -1.8551    0.0000 C   0  0  0  0  0  0  0  0  0  0  0  0
    2.3649   -3.3480    0.0000 C   0  0  0  0  0  0  0  0  0  0  0  0
    3.5846   -4.2211    0.0000 N   0  0  0  0  0  0  0  0  0  0  0  0
    0.9989   -3.9677    0.0000 O   0  0  0  0  0  0  0  0  0  0  0  0
    3.8771   -1.2354    0.0000 C   0  0  0  0  0  0  0  0  0  0  0  0
    4.0234    0.2575    0.0000 C   0  0  0  0  0  0  0  0  0  0  0  0
    5.3894    0.8772    0.0000 C   0  0  0  0  0  0  0  0  0  0  0  0
    5.5356    2.3701    0.0000 C   0  0  0  0  0  0  0  0  0  0  0  0
    6.9016    2.9898    0.0000 O   0  0  0  0  0  0  0  0  0  0  0  0
    4.3159    3.2432    0.0000 C   0  0  0  0  0  0  0  0  0  0  0  0
    2.9499    2.6234    0.0000 C   0  0  0  0  0  0  0  0  0  0  0  0
    2.8037    1.1306    0.0000 C   0  0  0  0  0  0  0  0  0  0  0  0
    1.5839    2.0037    0.0000 C   0  0  0  0  0  0  0  0  0  0  0  0
    1.4377    0.5108    0.0000 C   0  0  0  0  0  0  0  0  0  0  0  0
    0.2180    1.3839    0.0000 C   0  0  0  0  0  0  0  0  0  0  0  0
   -1.1480    0.7642    0.0000 C   0  0  0  0  0  0  0  0  0  0  0  0
   -2.3677    1.6372    0.0000 O   0  0  0  0  0  0  0  0  0  0  0  0
   -1.2943   -0.7287    0.0000 C   0  0  0  0  0  0  0  0  0  0  0  0
   -2.5986    0.0121    0.0000 C   0  0  0  0  0  0  0  0  0  0  0  0
  2  1  1  6
  2  3  1  0
  3  4  1  0
  4  5  1  0
  5  6  2  0
  5  7  1  0
  2  8  1  0
  8  9  1  6
  9 10  1  0
 11 10  1  6
 11 12  1  0
 12 13  1  1
 13 14  1  1
 14 15  1  0
 14 16  2  0
 13 17  1  0
 18 17  1  1
 18 19  1  0
 19 20  1  0
 20 21  1  1
 20 22  1  0
 22 23  1  0
 23 24  1  0
 24 25  1  6
 24 26  1  0
 26 27  1  6
 27 28  1  0
 28 29  1  1
 28 30  1  0
 30 31  1  6
 30  8  1  0
 30 11  1  0
 26 12  1  0
 24 18  1  0
M  END
>  <MS_ID>  (2162) 
MS2240

>  <SMILES>  (2162) 
C[C@H](CCC(=O)O)[C@H]1CC[C@H]2[C@@H]3[C@H](C(N)=O)C[C@@H]4C[C@H](O)CC[C@]4(C)[C@H]3C[C@H](O)[C@]12C

>  <Structure_dimension>  (2162) 
2D

$$$$
MS2241
     RDKit          2D

 33 36  0  0  0  0  0  0  0  0999 V2000
   -3.1128   -3.8303    0.0000 C   0  0  0  0  0  0  0  0  0  0  0  0
   -2.2621   -2.5949    0.0000 C   0  0  0  0  0  0  0  0  0  0  0  0
   -2.9066   -1.2404    0.0000 C   0  0  0  0  0  0  0  0  0  0  0  0
   -4.4018   -1.1214    0.0000 C   0  0  0  0  0  0  0  0  0  0  0  0
   -5.0463    0.2331    0.0000 C   0  0  0  0  0  0  0  0  0  0  0  0
   -4.1956    1.4685    0.0000 O   0  0  0  0  0  0  0  0  0  0  0  0
   -6.5416    0.3522    0.0000 C   0  0  0  0  0  0  0  0  0  0  0  0
   -7.1861    1.7067    0.0000 C   0  0  0  0  0  0  0  0  0  0  0  0
   -6.3353    2.9421    0.0000 O   0  0  0  0  0  0  0  0  0  0  0  0
   -8.6813    1.8258    0.0000 C   0  0  0  0  0  0  0  0  0  0  0  0
   -9.3258    3.1803    0.0000 O   0  0  0  0  0  0  0  0  0  0  0  0
   -0.7668   -2.7140    0.0000 C   0  0  0  0  0  0  0  0  0  0  0  0
    0.0157   -3.9937    0.0000 C   0  0  0  0  0  0  0  0  0  0  0  0
    1.4746   -3.6449    0.0000 C   0  0  0  0  0  0  0  0  0  0  0  0
    1.5937   -2.1497    0.0000 C   0  0  0  0  0  0  0  0  0  0  0  0
    2.7846   -1.2376    0.0000 C   0  0  0  0  0  0  0  0  0  0  0  0
    4.1699   -1.8130    0.0000 C   0  0  0  0  0  0  0  0  0  0  0  0
    4.3643   -3.3003    0.0000 O   0  0  0  0  0  0  0  0  0  0  0  0
    5.3608   -0.9009    0.0000 C   0  0  0  0  0  0  0  0  0  0  0  0
    5.1664    0.5864    0.0000 C   0  0  0  0  0  0  0  0  0  0  0  0
    6.3573    1.4984    0.0000 C   0  0  0  0  0  0  0  0  0  0  0  0
    6.1629    2.9858    0.0000 C   0  0  0  0  0  0  0  0  0  0  0  0
    7.3538    3.8978    0.0000 O   0  0  0  0  0  0  0  0  0  0  0  0
    4.7776    3.5611    0.0000 C   0  0  0  0  0  0  0  0  0  0  0  0
    3.5867    2.6491    0.0000 C   0  0  0  0  0  0  0  0  0  0  0  0
    3.7811    1.1617    0.0000 C   0  0  0  0  0  0  0  0  0  0  0  0
    2.3958    1.7371    0.0000 C   0  0  0  0  0  0  0  0  0  0  0  0
    2.5902    0.2497    0.0000 C   0  0  0  0  0  0  0  0  0  0  0  0
    1.2049    0.8250    0.0000 C   0  0  0  0  0  0  0  0  0  0  0  0
    0.0140   -0.0870    0.0000 C   0  0  0  0  0  0  0  0  0  0  0  0
   -1.3712    0.4883    0.0000 O   0  0  0  0  0  0  0  0  0  0  0  0
    0.2084   -1.5743    0.0000 C   0  0  0  0  0  0  0  0  0  0  0  0
   -1.2294   -1.1470    0.0000 C   0  0  0  0  0  0  0  0  0  0  0  0
  2  1  1  6
  2  3  1  0
  3  4  1  0
  4  5  1  0
  5  6  2  0
  5  7  1  0
  7  8  1  0
  8  9  2  0
  8 10  1  0
 10 11  1  0
  2 12  1  0
 12 13  1  6
 13 14  1  0
 15 14  1  6
 15 16  1  0
 16 17  1  1
 17 18  1  1
 17 19  1  0
 20 19  1  1
 20 21  1  0
 21 22  1  0
 22 23  1  1
 22 24  1  0
 24 25  1  0
 25 26  1  0
 26 27  1  6
 26 28  1  0
 28 29  1  6
 29 30  1  0
 30 31  1  1
 30 32  1  0
 32 33  1  6
 32 12  1  0
 32 15  1  0
 28 16  1  0
 26 20  1  0
M  END
>  <MS_ID>  (2163) 
MS2241

>  <SMILES>  (2163) 
C[C@H](CCC(=O)CC(=O)CO)[C@H]1CC[C@H]2[C@@H]3[C@H](O)C[C@@H]4C[C@H](O)CC[C@]4(C)[C@H]3C[C@H](O)[C@]12C

>  <Structure_dimension>  (2163) 
2D

$$$$
MS2242
     RDKit          2D

 30 33  0  0  0  0  0  0  0  0999 V2000
   -5.6962   -1.8759    0.0000 C   0  0  0  0  0  0  0  0  0  0  0  0
   -4.4381   -1.0589    0.0000 C   0  0  0  0  0  0  0  0  0  0  0  0
   -4.5166    0.4390    0.0000 C   0  0  0  0  0  0  0  0  0  0  0  0
   -5.8531    1.1200    0.0000 C   0  0  0  0  0  0  0  0  0  0  0  0
   -5.9315    2.6180    0.0000 C   0  0  0  0  0  0  0  0  0  0  0  0
   -4.6735    3.4349    0.0000 O   0  0  0  0  0  0  0  0  0  0  0  0
   -7.2680    3.2990    0.0000 O   0  0  0  0  0  0  0  0  0  0  0  0
   -3.1016   -1.7400    0.0000 C   0  0  0  0  0  0  0  0  0  0  0  0
   -2.8670   -3.2215    0.0000 C   0  0  0  0  0  0  0  0  0  0  0  0
   -1.3855   -3.4562    0.0000 C   0  0  0  0  0  0  0  0  0  0  0  0
   -0.7045   -2.1197    0.0000 C   0  0  0  0  0  0  0  0  0  0  0  0
    0.7444   -1.7315    0.0000 C   0  0  0  0  0  0  0  0  0  0  0  0
    1.8050   -2.7922    0.0000 C   0  0  0  0  0  0  0  0  0  0  0  0
    3.2540   -2.4040    0.0000 C   0  0  0  0  0  0  0  0  0  0  0  0
    3.6422   -0.9551    0.0000 C   0  0  0  0  0  0  0  0  0  0  0  0
    5.0911   -0.5670    0.0000 C   0  0  0  0  0  0  0  0  0  0  0  0
    5.4794    0.8819    0.0000 C   0  0  0  0  0  0  0  0  0  0  0  0
    6.9283    1.2701    0.0000 C   0  0  0  0  0  0  0  0  0  0  0  0
    7.3166    2.7190    0.0000 O   0  0  0  0  0  0  0  0  0  0  0  0
    7.9889    0.2094    0.0000 O   0  0  0  0  0  0  0  0  0  0  0  0
    4.4188    1.9426    0.0000 C   0  0  0  0  0  0  0  0  0  0  0  0
    2.9699    1.5544    0.0000 C   0  0  0  0  0  0  0  0  0  0  0  0
    2.5816    0.1055    0.0000 C   0  0  0  0  0  0  0  0  0  0  0  0
    1.5210    1.1662    0.0000 C   0  0  0  0  0  0  0  0  0  0  0  0
    1.1327   -0.2826    0.0000 C   0  0  0  0  0  0  0  0  0  0  0  0
    0.0721    0.7781    0.0000 C   0  0  0  0  0  0  0  0  0  0  0  0
   -1.3768    0.3899    0.0000 C   0  0  0  0  0  0  0  0  0  0  0  0
   -2.4375    1.4506    0.0000 O   0  0  0  0  0  0  0  0  0  0  0  0
   -1.7651   -1.0590    0.0000 C   0  0  0  0  0  0  0  0  0  0  0  0
   -2.9308   -0.1150    0.0000 C   0  0  0  0  0  0  0  0  0  0  0  0
  2  1  1  6
  2  3  1  0
  3  4  1  0
  4  5  1  0
  5  6  2  0
  5  7  1  0
  2  8  1  0
  8  9  1  6
  9 10  1  0
 11 10  1  6
 11 12  1  0
 12 13  1  1
 13 14  1  0
 15 14  1  1
 15 16  1  0
 16 17  1  0
 17 18  1  1
 18 19  2  0
 18 20  1  0
 17 21  1  0
 21 22  1  0
 22 23  1  0
 23 24  1  6
 23 25  1  0
 25 26  1  6
 26 27  1  0
 27 28  2  0
 27 29  1  0
 29 30  1  6
 29  8  1  0
 29 11  1  0
 25 12  1  0
 23 15  1  0
M  END
>  <MS_ID>  (2164) 
MS2242

>  <SMILES>  (2164) 
C[C@H](CCC(=O)O)[C@H]1CC[C@H]2[C@@H]3CC[C@@H]4C[C@H](C(=O)O)CC[C@]4(C)[C@H]3CC(=O)[C@]12C

>  <Structure_dimension>  (2164) 
2D

$$$$
MS2243
     RDKit          2D

 30 33  0  0  0  0  0  0  0  0999 V2000
   -5.8176   -1.7103    0.0000 C   0  0  0  0  0  0  0  0  0  0  0  0
   -4.5630   -0.8881    0.0000 C   0  0  0  0  0  0  0  0  0  0  0  0
   -4.6476    0.6095    0.0000 C   0  0  0  0  0  0  0  0  0  0  0  0
   -5.9869    1.2849    0.0000 C   0  0  0  0  0  0  0  0  0  0  0  0
   -6.0716    2.7826    0.0000 C   0  0  0  0  0  0  0  0  0  0  0  0
   -4.8170    3.6047    0.0000 O   0  0  0  0  0  0  0  0  0  0  0  0
   -7.4109    3.4580    0.0000 O   0  0  0  0  0  0  0  0  0  0  0  0
   -3.2237   -1.5636    0.0000 C   0  0  0  0  0  0  0  0  0  0  0  0
   -2.9829   -3.0442    0.0000 C   0  0  0  0  0  0  0  0  0  0  0  0
   -1.5004   -3.2727    0.0000 C   0  0  0  0  0  0  0  0  0  0  0  0
   -0.8249   -1.9334    0.0000 C   0  0  0  0  0  0  0  0  0  0  0  0
    0.6223   -1.5392    0.0000 C   0  0  0  0  0  0  0  0  0  0  0  0
    1.6874   -2.5955    0.0000 C   0  0  0  0  0  0  0  0  0  0  0  0
    1.3051   -4.0460    0.0000 O   0  0  0  0  0  0  0  0  0  0  0  0
    3.1346   -2.2013    0.0000 C   0  0  0  0  0  0  0  0  0  0  0  0
    3.5169   -0.7508    0.0000 C   0  0  0  0  0  0  0  0  0  0  0  0
    4.9642   -0.3567    0.0000 C   0  0  0  0  0  0  0  0  0  0  0  0
    5.3464    1.0938    0.0000 C   0  0  0  0  0  0  0  0  0  0  0  0
    6.7937    1.4880    0.0000 C   0  0  0  0  0  0  0  0  0  0  0  0
    7.1760    2.9385    0.0000 O   0  0  0  0  0  0  0  0  0  0  0  0
    7.8587    0.4317    0.0000 O   0  0  0  0  0  0  0  0  0  0  0  0
    4.2814    2.1501    0.0000 C   0  0  0  0  0  0  0  0  0  0  0  0
    2.8341    1.7559    0.0000 C   0  0  0  0  0  0  0  0  0  0  0  0
    2.4519    0.3054    0.0000 C   0  0  0  0  0  0  0  0  0  0  0  0
    1.3869    1.3617    0.0000 C   0  0  0  0  0  0  0  0  0  0  0  0
    1.0046   -0.0888    0.0000 C   0  0  0  0  0  0  0  0  0  0  0  0
   -0.0604    0.9675    0.0000 C   0  0  0  0  0  0  0  0  0  0  0  0
   -1.5077    0.5733    0.0000 C   0  0  0  0  0  0  0  0  0  0  0  0
   -1.8900   -0.8771    0.0000 C   0  0  0  0  0  0  0  0  0  0  0  0
   -3.0596    0.0620    0.0000 C   0  0  0  0  0  0  0  0  0  0  0  0
  2  1  1  6
  2  3  1  0
  3  4  1  0
  4  5  1  0
  5  6  2  0
  5  7  1  0
  2  8  1  0
  8  9  1  6
  9 10  1  0
 11 10  1  6
 11 12  1  0
 12 13  1  1
 13 14  1  6
 13 15  1  0
 16 15  1  1
 16 17  1  0
 17 18  1  0
 18 19  1  6
 19 20  2  0
 19 21  1  0
 18 22  1  0
 22 23  1  0
 23 24  1  0
 24 25  1  6
 24 26  1  0
 26 27  1  6
 27 28  1  0
 28 29  1  0
 29 30  1  6
 29  8  1  0
 29 11  1  0
 26 12  1  0
 24 16  1  0
M  END
>  <MS_ID>  (2165) 
MS2243

>  <SMILES>  (2165) 
C[C@H](CCC(=O)O)[C@H]1CC[C@H]2[C@@H]3[C@@H](O)C[C@@H]4C[C@@H](C(=O)O)CC[C@]4(C)[C@H]3CC[C@]12C

>  <Structure_dimension>  (2165) 
2D

$$$$
MS2244
     RDKit          2D

 38 41  0  0  0  0  0  0  0  0999 V2000
    0.2347   -4.7106    0.0000 C   0  0  0  0  0  0  0  0  0  0  0  0
    0.7444   -3.2998    0.0000 C   0  0  0  0  0  0  0  0  0  0  0  0
   -0.2225   -2.1531    0.0000 C   0  0  0  0  0  0  0  0  0  0  0  0
   -1.6991   -2.4170    0.0000 C   0  0  0  0  0  0  0  0  0  0  0  0
   -2.6660   -1.2703    0.0000 C   0  0  0  0  0  0  0  0  0  0  0  0
   -2.1563    0.1405    0.0000 O   0  0  0  0  0  0  0  0  0  0  0  0
   -4.1426   -1.5342    0.0000 N   0  0  0  0  0  0  0  0  0  0  0  0
   -5.1095   -0.3875    0.0000 C   0  0  0  0  0  0  0  0  0  0  0  0
   -6.5861   -0.6514    0.0000 C   0  0  0  0  0  0  0  0  0  0  0  0
   -7.0957   -2.0622    0.0000 O   0  0  0  0  0  0  0  0  0  0  0  0
   -7.5530    0.4953    0.0000 O   0  0  0  0  0  0  0  0  0  0  0  0
   -9.0296    0.2314    0.0000 C   0  0  0  0  0  0  0  0  0  0  0  0
   -9.9965    1.3782    0.0000 C   0  0  0  0  0  0  0  0  0  0  0  0
  -11.4730    1.1142    0.0000 O   0  0  0  0  0  0  0  0  0  0  0  0
  -12.4399    2.2610    0.0000 C   0  0  0  0  0  0  0  0  0  0  0  0
  -13.9165    1.9970    0.0000 C   0  0  0  0  0  0  0  0  0  0  0  0
  -14.8834    3.1438    0.0000 O   0  0  0  0  0  0  0  0  0  0  0  0
    2.2210   -3.0359    0.0000 C   0  0  0  0  0  0  0  0  0  0  0  0
    3.3025   -4.0753    0.0000 C   0  0  0  0  0  0  0  0  0  0  0  0
    4.6252   -3.3679    0.0000 C   0  0  0  0  0  0  0  0  0  0  0  0
    4.3613   -1.8913    0.0000 C   0  0  0  0  0  0  0  0  0  0  0  0
    5.2820   -0.7071    0.0000 C   0  0  0  0  0  0  0  0  0  0  0  0
    6.7678   -0.9124    0.0000 C   0  0  0  0  0  0  0  0  0  0  0  0
    7.3331   -2.3018    0.0000 O   0  0  0  0  0  0  0  0  0  0  0  0
    7.6885    0.2718    0.0000 C   0  0  0  0  0  0  0  0  0  0  0  0
    7.1233    1.6613    0.0000 C   0  0  0  0  0  0  0  0  0  0  0  0
    8.0440    2.8455    0.0000 C   0  0  0  0  0  0  0  0  0  0  0  0
    7.4788    4.2349    0.0000 C   0  0  0  0  0  0  0  0  0  0  0  0
    8.3995    5.4191    0.0000 O   0  0  0  0  0  0  0  0  0  0  0  0
    5.9929    4.4401    0.0000 C   0  0  0  0  0  0  0  0  0  0  0  0
    5.0722    3.2559    0.0000 C   0  0  0  0  0  0  0  0  0  0  0  0
    5.6374    1.8665    0.0000 C   0  0  0  0  0  0  0  0  0  0  0  0
    4.1515    2.0717    0.0000 C   0  0  0  0  0  0  0  0  0  0  0  0
    4.7167    0.6823    0.0000 C   0  0  0  0  0  0  0  0  0  0  0  0
    3.2309    0.8875    0.0000 C   0  0  0  0  0  0  0  0  0  0  0  0
    2.3102   -0.2967    0.0000 C   0  0  0  0  0  0  0  0  0  0  0  0
    2.8754   -1.6861    0.0000 C   0  0  0  0  0  0  0  0  0  0  0  0
    1.3762   -1.6373    0.0000 C   0  0  0  0  0  0  0  0  0  0  0  0
  2  1  1  6
  2  3  1  0
  3  4  1  0
  4  5  1  0
  5  6  2  0
  5  7  1  0
  7  8  1  0
  8  9  1  0
  9 10  2  0
  9 11  1  0
 11 12  1  0
 12 13  1  0
 13 14  1  0
 14 15  1  0
 15 16  1  0
 16 17  1  0
  2 18  1  0
 18 19  1  6
 19 20  1  0
 21 20  1  6
 21 22  1  0
 22 23  1  1
 23 24  1  6
 23 25  1  0
 26 25  1  1
 26 27  1  0
 27 28  1  0
 28 29  1  1
 28 30  1  0
 30 31  1  0
 31 32  1  0
 32 33  1  6
 32 34  1  0
 34 35  1  6
 35 36  1  0
 36 37  1  0
 37 38  1  6
 37 18  1  0
 37 21  1  0
 34 22  1  0
 32 26  1  0
M  END
>  <MS_ID>  (2166) 
MS2244

>  <SMILES>  (2166) 
C[C@H](CCC(=O)NCC(=O)OCCOCCO)[C@H]1CC[C@H]2[C@@H]3[C@@H](O)C[C@@H]4C[C@H](O)CC[C@]4(C)[C@H]3CC[C@]12C

>  <Structure_dimension>  (2166) 
2D

$$$$
MS2245
     RDKit          2D

 31 34  0  0  0  0  0  0  0  0999 V2000
   -3.5881   -3.9330    0.0000 C   0  0  0  0  0  0  0  0  0  0  0  0
   -2.6789   -2.7400    0.0000 C   0  0  0  0  0  0  0  0  0  0  0  0
   -3.2574   -1.3560    0.0000 C   0  0  0  0  0  0  0  0  0  0  0  0
   -4.7452   -1.1651    0.0000 C   0  0  0  0  0  0  0  0  0  0  0  0
   -5.3238    0.2188    0.0000 C   0  0  0  0  0  0  0  0  0  0  0  0
   -6.8116    0.4097    0.0000 O   0  0  0  0  0  0  0  0  0  0  0  0
   -4.4146    1.4118    0.0000 O   0  0  0  0  0  0  0  0  0  0  0  0
   -4.9932    2.7957    0.0000 C   0  0  0  0  0  0  0  0  0  0  0  0
   -6.4810    2.9867    0.0000 O   0  0  0  0  0  0  0  0  0  0  0  0
   -4.0839    3.9888    0.0000 C   0  0  0  0  0  0  0  0  0  0  0  0
   -4.6625    5.3727    0.0000 O   0  0  0  0  0  0  0  0  0  0  0  0
   -1.1911   -2.9309    0.0000 C   0  0  0  0  0  0  0  0  0  0  0  0
   -0.4710   -4.2467    0.0000 C   0  0  0  0  0  0  0  0  0  0  0  0
    1.0030   -3.9685    0.0000 C   0  0  0  0  0  0  0  0  0  0  0  0
    1.1939   -2.4807    0.0000 C   0  0  0  0  0  0  0  0  0  0  0  0
    2.4273   -1.6271    0.0000 C   0  0  0  0  0  0  0  0  0  0  0  0
    3.7833   -2.2684    0.0000 C   0  0  0  0  0  0  0  0  0  0  0  0
    5.0167   -1.4147    0.0000 C   0  0  0  0  0  0  0  0  0  0  0  0
    4.8941    0.0803    0.0000 C   0  0  0  0  0  0  0  0  0  0  0  0
    6.1275    0.9339    0.0000 C   0  0  0  0  0  0  0  0  0  0  0  0
    6.0049    2.4289    0.0000 C   0  0  0  0  0  0  0  0  0  0  0  0
    7.2383    3.2826    0.0000 O   0  0  0  0  0  0  0  0  0  0  0  0
    4.6489    3.0702    0.0000 C   0  0  0  0  0  0  0  0  0  0  0  0
    3.4155    2.2166    0.0000 C   0  0  0  0  0  0  0  0  0  0  0  0
    3.5381    0.7216    0.0000 C   0  0  0  0  0  0  0  0  0  0  0  0
    2.1821    1.3629    0.0000 C   0  0  0  0  0  0  0  0  0  0  0  0
    2.3047   -0.1321    0.0000 C   0  0  0  0  0  0  0  0  0  0  0  0
    0.9487    0.5092    0.0000 C   0  0  0  0  0  0  0  0  0  0  0  0
   -0.2847   -0.3444    0.0000 C   0  0  0  0  0  0  0  0  0  0  0  0
   -0.1621   -1.8394    0.0000 C   0  0  0  0  0  0  0  0  0  0  0  0
   -1.5777   -1.3434    0.0000 C   0  0  0  0  0  0  0  0  0  0  0  0
  2  1  1  6
  2  3  1  0
  3  4  1  0
  4  5  1  0
  5  6  2  0
  5  7  1  0
  7  8  1  0
  8  9  2  0
  8 10  1  0
 10 11  1  0
  2 12  1  0
 12 13  1  6
 13 14  1  0
 15 14  1  6
 15 16  1  0
 16 17  1  1
 17 18  1  0
 19 18  1  1
 19 20  1  0
 20 21  1  0
 21 22  1  1
 21 23  1  0
 23 24  1  0
 24 25  1  0
 25 26  1  6
 25 27  1  0
 27 28  1  6
 28 29  1  0
 29 30  1  0
 30 31  1  6
 30 12  1  0
 30 15  1  0
 27 16  1  0
 25 19  1  0
M  END
>  <MS_ID>  (2167) 
MS2245

>  <SMILES>  (2167) 
C[C@H](CCC(=O)OC(=O)CO)[C@H]1CC[C@H]2[C@@H]3CC[C@@H]4C[C@H](O)CC[C@]4(C)[C@H]3CC[C@]12C

>  <Structure_dimension>  (2167) 
2D

$$$$
MS2246
     RDKit          2D

 34 37  0  0  0  0  0  0  0  0999 V2000
   -1.8984   -4.2506    0.0000 C   0  0  0  0  0  0  0  0  0  0  0  0
   -1.1842   -2.9316    0.0000 C   0  0  0  0  0  0  0  0  0  0  0  0
   -1.9694   -1.6535    0.0000 C   0  0  0  0  0  0  0  0  0  0  0  0
   -3.4688   -1.6945    0.0000 C   0  0  0  0  0  0  0  0  0  0  0  0
   -4.2540   -0.4165    0.0000 C   0  0  0  0  0  0  0  0  0  0  0  0
   -3.5398    0.9026    0.0000 O   0  0  0  0  0  0  0  0  0  0  0  0
   -5.7535   -0.4574    0.0000 N   0  0  0  0  0  0  0  0  0  0  0  0
   -6.5387    0.8206    0.0000 C   0  0  0  0  0  0  0  0  0  0  0  0
   -8.0381    0.7796    0.0000 C   0  0  0  0  0  0  0  0  0  0  0  0
   -8.8234    2.0577    0.0000 S   0  0  0  0  0  0  0  0  0  0  0  0
  -10.3228    2.0167    0.0000 C   0  0  0  0  0  0  0  0  0  0  0  0
  -11.0370    0.6977    0.0000 O   0  0  0  0  0  0  0  0  0  0  0  0
  -11.1080    3.2948    0.0000 O   0  0  0  0  0  0  0  0  0  0  0  0
    0.3153   -2.8906    0.0000 C   0  0  0  0  0  0  0  0  0  0  0  0
    1.2298   -4.0796    0.0000 C   0  0  0  0  0  0  0  0  0  0  0  0
    2.6432   -3.5773    0.0000 C   0  0  0  0  0  0  0  0  0  0  0  0
    2.6022   -2.0778    0.0000 C   0  0  0  0  0  0  0  0  0  0  0  0
    3.6890   -1.0440    0.0000 C   0  0  0  0  0  0  0  0  0  0  0  0
    5.1278   -1.4684    0.0000 C   0  0  0  0  0  0  0  0  0  0  0  0
    5.4796   -2.9266    0.0000 O   0  0  0  0  0  0  0  0  0  0  0  0
    6.2146   -0.4346    0.0000 C   0  0  0  0  0  0  0  0  0  0  0  0
    5.8628    1.0235    0.0000 C   0  0  0  0  0  0  0  0  0  0  0  0
    6.9497    2.0573    0.0000 C   0  0  0  0  0  0  0  0  0  0  0  0
    6.5978    3.5154    0.0000 C   0  0  0  0  0  0  0  0  0  0  0  0
    7.6847    4.5492    0.0000 O   0  0  0  0  0  0  0  0  0  0  0  0
    5.1591    3.9398    0.0000 C   0  0  0  0  0  0  0  0  0  0  0  0
    4.0722    2.9060    0.0000 C   0  0  0  0  0  0  0  0  0  0  0  0
    4.4241    1.4479    0.0000 C   0  0  0  0  0  0  0  0  0  0  0  0
    2.9854    1.8723    0.0000 C   0  0  0  0  0  0  0  0  0  0  0  0
    3.3372    0.4141    0.0000 C   0  0  0  0  0  0  0  0  0  0  0  0
    1.8985    0.8385    0.0000 C   0  0  0  0  0  0  0  0  0  0  0  0
    0.8116   -0.1953    0.0000 C   0  0  0  0  0  0  0  0  0  0  0  0
    1.1635   -1.6534    0.0000 C   0  0  0  0  0  0  0  0  0  0  0  0
   -0.3117   -1.3818    0.0000 C   0  0  0  0  0  0  0  0  0  0  0  0
  2  1  1  6
  2  3  1  0
  3  4  1  0
  4  5  1  0
  5  6  2  0
  5  7  1  0
  7  8  1  0
  8  9  1  0
  9 10  1  0
 10 11  1  0
 11 12  2  0
 11 13  1  0
  2 14  1  0
 14 15  1  6
 15 16  1  0
 17 16  1  6
 17 18  1  0
 18 19  1  1
 19 20  1  6
 19 21  1  0
 22 21  1  1
 22 23  1  0
 23 24  1  0
 24 25  1  1
 24 26  1  0
 26 27  1  0
 27 28  1  0
 28 29  1  6
 28 30  1  0
 30 31  1  6
 31 32  1  0
 32 33  1  0
 33 34  1  6
 33 14  1  0
 33 17  1  0
 30 18  1  0
 28 22  1  0
M  END
>  <MS_ID>  (2168) 
MS2246

>  <SMILES>  (2168) 
C[C@H](CCC(=O)NCCSC(=O)O)[C@H]1CC[C@H]2[C@@H]3[C@@H](O)C[C@@H]4C[C@H](O)CC[C@]4(C)[C@H]3CC[C@]12C

>  <Structure_dimension>  (2168) 
2D

$$$$
MS2247
     RDKit          2D

 39 43  0  0  0  0  0  0  0  0999 V2000
   -7.7534   -2.1938    0.0000 C   0  0  0  0  0  0  0  0  0  0  0  0
   -6.5793   -1.2603    0.0000 C   0  0  0  0  0  0  0  0  0  0  0  0
   -6.8008    0.2233    0.0000 C   0  0  0  0  0  0  0  0  0  0  0  0
   -8.1963    0.7733    0.0000 C   0  0  0  0  0  0  0  0  0  0  0  0
   -8.4177    2.2569    0.0000 C   0  0  0  0  0  0  0  0  0  0  0  0
   -7.2436    3.1904    0.0000 O   0  0  0  0  0  0  0  0  0  0  0  0
   -9.8132    2.8069    0.0000 O   0  0  0  0  0  0  0  0  0  0  0  0
   -5.1838   -1.8103    0.0000 C   0  0  0  0  0  0  0  0  0  0  0  0
   -4.8085   -3.2626    0.0000 C   0  0  0  0  0  0  0  0  0  0  0  0
   -3.3114   -3.3545    0.0000 C   0  0  0  0  0  0  0  0  0  0  0  0
   -2.7613   -1.9590    0.0000 C   0  0  0  0  0  0  0  0  0  0  0  0
   -1.3562   -1.4339    0.0000 C   0  0  0  0  0  0  0  0  0  0  0  0
   -0.1990   -2.3883    0.0000 C   0  0  0  0  0  0  0  0  0  0  0  0
    1.2061   -1.8632    0.0000 C   0  0  0  0  0  0  0  0  0  0  0  0
    1.4540   -0.3839    0.0000 C   0  0  0  0  0  0  0  0  0  0  0  0
    2.8591    0.1412    0.0000 C   0  0  0  0  0  0  0  0  0  0  0  0
    3.1070    1.6206    0.0000 C   0  0  0  0  0  0  0  0  0  0  0  0
    4.5121    2.1456    0.0000 O   0  0  0  0  0  0  0  0  0  0  0  0
    5.6693    1.1912    0.0000 C   0  0  0  0  0  0  0  0  0  0  0  0
    5.4215   -0.2881    0.0000 O   0  0  0  0  0  0  0  0  0  0  0  0
    6.5787   -1.2425    0.0000 C   0  0  0  0  0  0  0  0  0  0  0  0
    6.3309   -2.7219    0.0000 C   0  0  0  0  0  0  0  0  0  0  0  0
    4.9257   -3.2469    0.0000 O   0  0  0  0  0  0  0  0  0  0  0  0
    7.9838   -0.7174    0.0000 C   0  0  0  0  0  0  0  0  0  0  0  0
    9.1411   -1.6718    0.0000 O   0  0  0  0  0  0  0  0  0  0  0  0
    8.2317    0.7619    0.0000 C   0  0  0  0  0  0  0  0  0  0  0  0
    9.6368    1.2870    0.0000 O   0  0  0  0  0  0  0  0  0  0  0  0
    7.0744    1.7163    0.0000 C   0  0  0  0  0  0  0  0  0  0  0  0
    7.3223    3.1957    0.0000 O   0  0  0  0  0  0  0  0  0  0  0  0
    1.9497    2.5749    0.0000 C   0  0  0  0  0  0  0  0  0  0  0  0
    0.5446    2.0499    0.0000 C   0  0  0  0  0  0  0  0  0  0  0  0
    0.2967    0.5705    0.0000 C   0  0  0  0  0  0  0  0  0  0  0  0
   -0.8605    1.5248    0.0000 C   0  0  0  0  0  0  0  0  0  0  0  0
   -1.1084    0.0455    0.0000 C   0  0  0  0  0  0  0  0  0  0  0  0
   -2.2656    0.9998    0.0000 C   0  0  0  0  0  0  0  0  0  0  0  0
   -3.6707    0.4748    0.0000 C   0  0  0  0  0  0  0  0  0  0  0  0
   -4.8280    1.4291    0.0000 O   0  0  0  0  0  0  0  0  0  0  0  0
   -3.9186   -1.0046    0.0000 C   0  0  0  0  0  0  0  0  0  0  0  0
   -5.1693   -0.1765    0.0000 C   0  0  0  0  0  0  0  0  0  0  0  0
  2  1  1  6
  2  3  1  0
  3  4  1  0
  4  5  1  0
  5  6  2  0
  5  7  1  0
  2  8  1  0
  8  9  1  6
  9 10  1  0
 11 10  1  6
 11 12  1  0
 12 13  1  1
 13 14  1  0
 15 14  1  1
 15 16  1  0
 16 17  1  0
 17 18  1  1
 19 18  1  1
 19 20  1  0
 20 21  1  0
 21 22  1  6
 22 23  1  0
 21 24  1  0
 24 25  1  1
 24 26  1  0
 26 27  1  1
 26 28  1  0
 28 29  1  6
 17 30  1  0
 30 31  1  0
 31 32  1  0
 32 33  1  6
 32 34  1  0
 34 35  1  6
 35 36  1  0
 36 37  1  1
 36 38  1  0
 38 39  1  6
 38  8  1  0
 38 11  1  0
 34 12  1  0
 32 15  1  0
 28 19  1  0
M  END
>  <MS_ID>  (2169) 
MS2247

>  <SMILES>  (2169) 
C[C@H](CCC(=O)O)[C@H]1CC[C@H]2[C@@H]3CC[C@@H]4C[C@H](O[C@@H]5O[C@@H](CO)[C@H](O)[C@H](O)[C@H]5O)CC[C@]4(C)[C@H]3C[C@H](O)[C@]12C

>  <Structure_dimension>  (2169) 
2D

$$$$
MS2248
     RDKit          2D

 33 36  0  0  0  0  0  0  0  0999 V2000
   -2.3185   -3.8325    0.0000 C   0  0  0  0  0  0  0  0  0  0  0  0
   -1.5384   -2.5513    0.0000 C   0  0  0  0  0  0  0  0  0  0  0  0
   -2.2580   -1.2351    0.0000 C   0  0  0  0  0  0  0  0  0  0  0  0
   -3.7576   -1.2002    0.0000 C   0  0  0  0  0  0  0  0  0  0  0  0
   -4.4771    0.1160    0.0000 C   0  0  0  0  0  0  0  0  0  0  0  0
   -3.6971    1.3972    0.0000 O   0  0  0  0  0  0  0  0  0  0  0  0
   -5.9767    0.1509    0.0000 C   0  0  0  0  0  0  0  0  0  0  0  0
   -6.6962    1.4671    0.0000 O   0  0  0  0  0  0  0  0  0  0  0  0
   -8.1958    1.5020    0.0000 S   0  0  0  0  0  0  0  0  0  0  0  0
   -8.2308    0.0024    0.0000 O   0  0  0  0  0  0  0  0  0  0  0  0
   -8.1609    3.0016    0.0000 O   0  0  0  0  0  0  0  0  0  0  0  0
   -9.6954    1.5369    0.0000 O   0  0  0  0  0  0  0  0  0  0  0  0
   -0.0389   -2.5862    0.0000 C   0  0  0  0  0  0  0  0  0  0  0  0
    0.8143   -3.8200    0.0000 C   0  0  0  0  0  0  0  0  0  0  0  0
    2.2513   -3.3898    0.0000 C   0  0  0  0  0  0  0  0  0  0  0  0
    2.2863   -1.8902    0.0000 C   0  0  0  0  0  0  0  0  0  0  0  0
    3.4240   -0.9127    0.0000 C   0  0  0  0  0  0  0  0  0  0  0  0
    4.8394   -1.4094    0.0000 C   0  0  0  0  0  0  0  0  0  0  0  0
    5.1171   -2.8835    0.0000 O   0  0  0  0  0  0  0  0  0  0  0  0
    5.9772   -0.4319    0.0000 C   0  0  0  0  0  0  0  0  0  0  0  0
    5.6996    1.0422    0.0000 C   0  0  0  0  0  0  0  0  0  0  0  0
    6.8374    2.0196    0.0000 C   0  0  0  0  0  0  0  0  0  0  0  0
    6.5598    3.4937    0.0000 C   0  0  0  0  0  0  0  0  0  0  0  0
    5.1444    3.9904    0.0000 C   0  0  0  0  0  0  0  0  0  0  0  0
    4.0066    3.0129    0.0000 C   0  0  0  0  0  0  0  0  0  0  0  0
    4.2842    1.5388    0.0000 C   0  0  0  0  0  0  0  0  0  0  0  0
    2.8688    2.0354    0.0000 C   0  0  0  0  0  0  0  0  0  0  0  0
    3.1464    0.5613    0.0000 C   0  0  0  0  0  0  0  0  0  0  0  0
    1.7310    1.0580    0.0000 C   0  0  0  0  0  0  0  0  0  0  0  0
    0.5932    0.0805    0.0000 C   0  0  0  0  0  0  0  0  0  0  0  0
   -0.8222    0.5771    0.0000 O   0  0  0  0  0  0  0  0  0  0  0  0
    0.8709   -1.3936    0.0000 C   0  0  0  0  0  0  0  0  0  0  0  0
   -0.5887   -1.0476    0.0000 C   0  0  0  0  0  0  0  0  0  0  0  0
  2  1  1  6
  2  3  1  0
  3  4  1  0
  4  5  1  0
  5  6  2  0
  5  7  1  0
  7  8  1  0
  8  9  1  0
  9 10  2  0
  9 11  2  0
  9 12  1  0
  2 13  1  0
 13 14  1  6
 14 15  1  0
 16 15  1  6
 16 17  1  0
 17 18  1  1
 18 19  1  1
 18 20  1  0
 21 20  1  1
 21 22  1  0
 22 23  1  0
 23 24  1  0
 24 25  1  0
 25 26  1  0
 26 27  1  6
 26 28  1  0
 28 29  1  6
 29 30  1  0
 30 31  1  6
 30 32  1  0
 32 33  1  6
 32 13  1  0
 32 16  1  0
 28 17  1  0
 26 21  1  0
M  END
>  <MS_ID>  (2170) 
MS2248

>  <SMILES>  (2170) 
C[C@H](CCC(=O)COS(=O)(=O)O)[C@H]1CC[C@H]2[C@@H]3[C@H](O)C[C@@H]4CCCC[C@]4(C)[C@H]3C[C@@H](O)[C@]12C

>  <Structure_dimension>  (2170) 
2D

$$$$
MS2249
     RDKit          2D

 34 37  0  0  0  0  0  0  0  0999 V2000
   -5.9213   -1.9110    0.0000 C   0  0  0  0  0  0  0  0  0  0  0  0
   -4.7916   -0.9242    0.0000 C   0  0  0  0  0  0  0  0  0  0  0  0
   -5.0813    0.5475    0.0000 C   0  0  0  0  0  0  0  0  0  0  0  0
   -6.5007    1.0325    0.0000 C   0  0  0  0  0  0  0  0  0  0  0  0
   -6.7905    2.5042    0.0000 C   0  0  0  0  0  0  0  0  0  0  0  0
   -5.6607    3.4910    0.0000 O   0  0  0  0  0  0  0  0  0  0  0  0
   -8.2099    2.9892    0.0000 O   0  0  0  0  0  0  0  0  0  0  0  0
   -3.3721   -1.4092    0.0000 C   0  0  0  0  0  0  0  0  0  0  0  0
   -2.9301   -2.8426    0.0000 C   0  0  0  0  0  0  0  0  0  0  0  0
   -1.4303   -2.8652    0.0000 C   0  0  0  0  0  0  0  0  0  0  0  0
   -0.9453   -1.4458    0.0000 C   0  0  0  0  0  0  0  0  0  0  0  0
    0.4340   -0.8564    0.0000 C   0  0  0  0  0  0  0  0  0  0  0  0
    1.6341   -1.7562    0.0000 C   0  0  0  0  0  0  0  0  0  0  0  0
    1.4549   -3.2455    0.0000 O   0  0  0  0  0  0  0  0  0  0  0  0
    2.6550   -4.1453    0.0000 S   0  0  0  0  0  0  0  0  0  0  0  0
    3.5548   -2.9452    0.0000 O   0  0  0  0  0  0  0  0  0  0  0  0
    1.7551   -5.3454    0.0000 O   0  0  0  0  0  0  0  0  0  0  0  0
    3.8551   -5.0452    0.0000 O   0  0  0  0  0  0  0  0  0  0  0  0
    3.0135   -1.1668    0.0000 C   0  0  0  0  0  0  0  0  0  0  0  0
    3.1927    0.3224    0.0000 C   0  0  0  0  0  0  0  0  0  0  0  0
    4.5721    0.9118    0.0000 C   0  0  0  0  0  0  0  0  0  0  0  0
    4.7513    2.4011    0.0000 C   0  0  0  0  0  0  0  0  0  0  0  0
    6.1307    2.9905    0.0000 N   0  0  0  0  0  0  0  0  0  0  0  0
    7.3308    2.0906    0.0000 C   0  0  0  0  0  0  0  0  0  0  0  0
    6.3099    4.4797    0.0000 C   0  0  0  0  0  0  0  0  0  0  0  0
    3.5512    3.3009    0.0000 C   0  0  0  0  0  0  0  0  0  0  0  0
    2.1719    2.7115    0.0000 C   0  0  0  0  0  0  0  0  0  0  0  0
    1.9926    1.2223    0.0000 C   0  0  0  0  0  0  0  0  0  0  0  0
    0.7925    2.1221    0.0000 C   0  0  0  0  0  0  0  0  0  0  0  0
    0.6133    0.6329    0.0000 C   0  0  0  0  0  0  0  0  0  0  0  0
   -0.5868    1.5327    0.0000 C   0  0  0  0  0  0  0  0  0  0  0  0
   -1.9662    0.9434    0.0000 C   0  0  0  0  0  0  0  0  0  0  0  0
   -2.1454   -0.5459    0.0000 C   0  0  0  0  0  0  0  0  0  0  0  0
   -3.4330    0.2236    0.0000 C   0  0  0  0  0  0  0  0  0  0  0  0
  2  1  1  6
  2  3  1  0
  3  4  1  0
  4  5  1  0
  5  6  2  0
  5  7  1  0
  2  8  1  0
  8  9  1  6
  9 10  1  0
 11 10  1  6
 11 12  1  0
 12 13  1  1
 13 14  1  6
 14 15  1  0
 15 16  2  0
 15 17  2  0
 15 18  1  0
 13 19  1  0
 20 19  1  1
 20 21  1  0
 21 22  1  0
 22 23  1  1
 23 24  1  0
 23 25  1  0
 22 26  1  0
 26 27  1  0
 27 28  1  0
 28 29  1  6
 28 30  1  0
 30 31  1  6
 31 32  1  0
 32 33  1  0
 33 34  1  6
 33  8  1  0
 33 11  1  0
 30 12  1  0
 28 20  1  0
M  END
>  <MS_ID>  (2171) 
MS2249

>  <SMILES>  (2171) 
C[C@H](CCC(=O)O)[C@H]1CC[C@H]2[C@@H]3[C@@H](OS(=O)(=O)O)C[C@@H]4C[C@H](N(C)C)CC[C@]4(C)[C@H]3CC[C@]12C

>  <Structure_dimension>  (2171) 
2D

$$$$
MS2250
     RDKit          2D

 36 40  0  0  0  0  0  0  0  0999 V2000
   -2.0095   -4.4332    0.0000 C   0  0  0  0  0  0  0  0  0  0  0  0
   -1.3394   -3.0911    0.0000 C   0  0  0  0  0  0  0  0  0  0  0  0
   -2.1666   -1.8398    0.0000 C   0  0  0  0  0  0  0  0  0  0  0  0
   -3.6639   -1.9306    0.0000 C   0  0  0  0  0  0  0  0  0  0  0  0
   -4.4911   -0.6793    0.0000 C   0  0  0  0  0  0  0  0  0  0  0  0
   -3.8210    0.6628    0.0000 O   0  0  0  0  0  0  0  0  0  0  0  0
   -5.9883   -0.7700    0.0000 N   0  0  0  0  0  0  0  0  0  0  0  0
   -6.8155    0.4813    0.0000 C   0  0  0  0  0  0  0  0  0  0  0  0
   -6.1454    1.8234    0.0000 C   0  0  0  0  0  0  0  0  0  0  0  0
   -6.9726    3.0747    0.0000 C   0  0  0  0  0  0  0  0  0  0  0  0
   -8.4699    2.9840    0.0000 C   0  0  0  0  0  0  0  0  0  0  0  0
   -9.1400    1.6419    0.0000 C   0  0  0  0  0  0  0  0  0  0  0  0
  -10.6372    1.5512    0.0000 N   0  0  0  0  0  0  0  0  0  0  0  0
   -8.3128    0.3906    0.0000 C   0  0  0  0  0  0  0  0  0  0  0  0
    0.1578   -3.0004    0.0000 C   0  0  0  0  0  0  0  0  0  0  0  0
    1.1113   -4.1584    0.0000 C   0  0  0  0  0  0  0  0  0  0  0  0
    2.5072   -3.6095    0.0000 C   0  0  0  0  0  0  0  0  0  0  0  0
    2.4165   -2.1122    0.0000 C   0  0  0  0  0  0  0  0  0  0  0  0
    3.4685   -1.0429    0.0000 C   0  0  0  0  0  0  0  0  0  0  0  0
    4.9205   -1.4194    0.0000 C   0  0  0  0  0  0  0  0  0  0  0  0
    5.3205   -2.8650    0.0000 O   0  0  0  0  0  0  0  0  0  0  0  0
    5.9725   -0.3501    0.0000 C   0  0  0  0  0  0  0  0  0  0  0  0
    7.4245   -0.7265    0.0000 O   0  0  0  0  0  0  0  0  0  0  0  0
    5.5724    1.0956    0.0000 C   0  0  0  0  0  0  0  0  0  0  0  0
    6.6244    2.1649    0.0000 C   0  0  0  0  0  0  0  0  0  0  0  0
    6.2244    3.6105    0.0000 C   0  0  0  0  0  0  0  0  0  0  0  0
    7.2764    4.6798    0.0000 O   0  0  0  0  0  0  0  0  0  0  0  0
    4.7724    3.9869    0.0000 C   0  0  0  0  0  0  0  0  0  0  0  0
    3.7204    2.9177    0.0000 C   0  0  0  0  0  0  0  0  0  0  0  0
    4.1204    1.4720    0.0000 C   0  0  0  0  0  0  0  0  0  0  0  0
    2.6684    1.8484    0.0000 C   0  0  0  0  0  0  0  0  0  0  0  0
    3.0684    0.4027    0.0000 C   0  0  0  0  0  0  0  0  0  0  0  0
    1.6164    0.7791    0.0000 C   0  0  0  0  0  0  0  0  0  0  0  0
    0.5645   -0.2901    0.0000 C   0  0  0  0  0  0  0  0  0  0  0  0
    0.9645   -1.7358    0.0000 C   0  0  0  0  0  0  0  0  0  0  0  0
   -0.5189   -1.5132    0.0000 C   0  0  0  0  0  0  0  0  0  0  0  0
  2  1  1  6
  2  3  1  0
  3  4  1  0
  4  5  1  0
  5  6  2  0
  5  7  1  0
  7  8  1  0
  8  9  2  0
  9 10  1  0
 10 11  2  0
 11 12  1  0
 12 13  1  0
 12 14  2  0
  2 15  1  0
 15 16  1  6
 16 17  1  0
 18 17  1  6
 18 19  1  0
 19 20  1  1
 20 21  1  1
 20 22  1  0
 22 23  1  1
 22 24  1  0
 24 25  1  1
 25 26  1  0
 26 27  1  1
 26 28  1  0
 28 29  1  0
 29 30  1  0
 30 31  1  6
 30 32  1  0
 32 33  1  6
 33 34  1  0
 34 35  1  0
 35 36  1  6
 14  8  1  0
 35 15  1  0
 35 18  1  0
 32 19  1  0
 30 24  1  0
M  END
>  <MS_ID>  (2172) 
MS2250

>  <SMILES>  (2172) 
C[C@H](CCC(=O)Nc1cccc(N)c1)[C@H]1CC[C@H]2[C@@H]3[C@H](O)[C@H](O)[C@@H]4C[C@H](O)CC[C@]4(C)[C@H]3CC[C@]12C

>  <Structure_dimension>  (2172) 
2D

$$$$
MS2251
     RDKit          2D

 38 41  0  0  0  0  0  0  0  0999 V2000
    4.1870    4.5025    0.0000 C   0  0  0  0  0  0  0  0  0  0  0  0
    4.0065    3.0134    0.0000 C   0  0  0  0  0  0  0  0  0  0  0  0
    5.2058    2.1125    0.0000 C   0  0  0  0  0  0  0  0  0  0  0  0
    6.5857    2.7007    0.0000 C   0  0  0  0  0  0  0  0  0  0  0  0
    7.7850    1.7998    0.0000 C   0  0  0  0  0  0  0  0  0  0  0  0
    7.6045    0.3107    0.0000 O   0  0  0  0  0  0  0  0  0  0  0  0
    9.1649    2.3880    0.0000 O   0  0  0  0  0  0  0  0  0  0  0  0
    2.6266    2.4252    0.0000 C   0  0  0  0  0  0  0  0  0  0  0  0
    1.3397    3.1958    0.0000 C   0  0  0  0  0  0  0  0  0  0  0  0
    0.2091    2.2099    0.0000 C   0  0  0  0  0  0  0  0  0  0  0  0
    0.7973    0.8301    0.0000 C   0  0  0  0  0  0  0  0  0  0  0  0
    0.1655   -0.5303    0.0000 C   0  0  0  0  0  0  0  0  0  0  0  0
   -1.3286   -0.6634    0.0000 C   0  0  0  0  0  0  0  0  0  0  0  0
   -2.1908    0.5641    0.0000 O   0  0  0  0  0  0  0  0  0  0  0  0
   -3.6849    0.4310    0.0000 C   0  0  0  0  0  0  0  0  0  0  0  0
   -4.3168   -0.9294    0.0000 O   0  0  0  0  0  0  0  0  0  0  0  0
   -4.5472    1.6584    0.0000 C   0  0  0  0  0  0  0  0  0  0  0  0
   -6.0413    1.5254    0.0000 C   0  0  0  0  0  0  0  0  0  0  0  0
   -6.9035    2.7528    0.0000 C   0  0  0  0  0  0  0  0  0  0  0  0
   -8.3976    2.6198    0.0000 S   0  0  0  0  0  0  0  0  0  0  0  0
   -8.5306    4.1139    0.0000 O   0  0  0  0  0  0  0  0  0  0  0  0
   -8.2646    1.1257    0.0000 O   0  0  0  0  0  0  0  0  0  0  0  0
   -9.8917    2.4868    0.0000 O   0  0  0  0  0  0  0  0  0  0  0  0
   -1.9604   -2.0238    0.0000 C   0  0  0  0  0  0  0  0  0  0  0  0
   -1.0982   -3.2512    0.0000 C   0  0  0  0  0  0  0  0  0  0  0  0
   -1.7301   -4.6116    0.0000 C   0  0  0  0  0  0  0  0  0  0  0  0
   -0.8678   -5.8390    0.0000 C   0  0  0  0  0  0  0  0  0  0  0  0
   -1.4997   -7.1995    0.0000 O   0  0  0  0  0  0  0  0  0  0  0  0
    0.6263   -5.7060    0.0000 C   0  0  0  0  0  0  0  0  0  0  0  0
    1.2581   -4.3456    0.0000 C   0  0  0  0  0  0  0  0  0  0  0  0
    0.3959   -3.1182    0.0000 C   0  0  0  0  0  0  0  0  0  0  0  0
    1.8900   -2.9852    0.0000 C   0  0  0  0  0  0  0  0  0  0  0  0
    1.0277   -1.7578    0.0000 C   0  0  0  0  0  0  0  0  0  0  0  0
    2.5218   -1.6247    0.0000 C   0  0  0  0  0  0  0  0  0  0  0  0
    3.1537   -0.2643    0.0000 C   0  0  0  0  0  0  0  0  0  0  0  0
    4.6478   -0.1313    0.0000 O   0  0  0  0  0  0  0  0  0  0  0  0
    2.2914    0.9631    0.0000 C   0  0  0  0  0  0  0  0  0  0  0  0
    3.7634    1.2516    0.0000 C   0  0  0  0  0  0  0  0  0  0  0  0
  2  1  1  6
  2  3  1  0
  3  4  1  0
  4  5  1  0
  5  6  2  0
  5  7  1  0
  2  8  1  0
  8  9  1  6
  9 10  1  0
 11 10  1  6
 11 12  1  0
 12 13  1  1
 13 14  1  1
 14 15  1  0
 15 16  2  0
 15 17  1  0
 17 18  2  0
 18 19  1  0
 19 20  1  0
 20 21  2  0
 20 22  2  0
 20 23  1  0
 13 24  1  0
 25 24  1  1
 25 26  1  0
 26 27  1  0
 27 28  1  1
 27 29  1  0
 29 30  1  0
 30 31  1  0
 31 32  1  6
 31 33  1  0
 33 34  1  6
 34 35  1  0
 35 36  1  1
 35 37  1  0
 37 38  1  6
 37  8  1  0
 37 11  1  0
 33 12  1  0
 31 25  1  0
M  END
>  <MS_ID>  (2173) 
MS2251

>  <SMILES>  (2173) 
C[C@H](CCC(=O)O)[C@H]1CC[C@H]2[C@@H]3[C@H](OC(=O)/C=C/CS(=O)(=O)O)C[C@@H]4C[C@H](O)CC[C@]4(C)[C@H]3C[C@H](O)[C@]12C

>  <Structure_dimension>  (2173) 
2D

$$$$
MS2252
     RDKit          2D

 33 36  0  0  0  0  0  0  0  0999 V2000
   -8.9127    3.3093    0.0000 C   0  0  0  0  0  0  0  0  0  0  0  0
   -8.2780    1.9502    0.0000 C   0  0  0  0  0  0  0  0  0  0  0  0
   -9.1377    0.7210    0.0000 C   0  0  0  0  0  0  0  0  0  0  0  0
  -10.6320    0.8509    0.0000 O   0  0  0  0  0  0  0  0  0  0  0  0
   -6.7836    1.8203    0.0000 C   0  0  0  0  0  0  0  0  0  0  0  0
   -6.1489    0.4612    0.0000 O   0  0  0  0  0  0  0  0  0  0  0  0
   -4.6546    0.3313    0.0000 C   0  0  0  0  0  0  0  0  0  0  0  0
   -3.7949    1.5605    0.0000 O   0  0  0  0  0  0  0  0  0  0  0  0
   -4.0199   -1.0278    0.0000 C   0  0  0  0  0  0  0  0  0  0  0  0
   -2.5255   -1.1577    0.0000 C   0  0  0  0  0  0  0  0  0  0  0  0
   -1.8908   -2.5168    0.0000 C   0  0  0  0  0  0  0  0  0  0  0  0
   -2.7505   -3.7460    0.0000 C   0  0  0  0  0  0  0  0  0  0  0  0
   -0.3964   -2.6467    0.0000 C   0  0  0  0  0  0  0  0  0  0  0  0
    0.3768   -3.9320    0.0000 C   0  0  0  0  0  0  0  0  0  0  0  0
    1.8382   -3.5937    0.0000 C   0  0  0  0  0  0  0  0  0  0  0  0
    1.9681   -2.0994    0.0000 C   0  0  0  0  0  0  0  0  0  0  0  0
    3.1655   -1.1960    0.0000 C   0  0  0  0  0  0  0  0  0  0  0  0
    4.5466   -1.7813    0.0000 C   0  0  0  0  0  0  0  0  0  0  0  0
    4.7303   -3.2700    0.0000 O   0  0  0  0  0  0  0  0  0  0  0  0
    5.7441   -0.8779    0.0000 C   0  0  0  0  0  0  0  0  0  0  0  0
    5.5604    0.6108    0.0000 C   0  0  0  0  0  0  0  0  0  0  0  0
    6.7579    1.5142    0.0000 C   0  0  0  0  0  0  0  0  0  0  0  0
    6.5742    3.0030    0.0000 C   0  0  0  0  0  0  0  0  0  0  0  0
    7.7717    3.9064    0.0000 O   0  0  0  0  0  0  0  0  0  0  0  0
    5.1931    3.5883    0.0000 C   0  0  0  0  0  0  0  0  0  0  0  0
    3.9957    2.6849    0.0000 C   0  0  0  0  0  0  0  0  0  0  0  0
    4.1793    1.1962    0.0000 C   0  0  0  0  0  0  0  0  0  0  0  0
    2.7982    1.7815    0.0000 C   0  0  0  0  0  0  0  0  0  0  0  0
    2.9819    0.2928    0.0000 C   0  0  0  0  0  0  0  0  0  0  0  0
    1.6008    0.8781    0.0000 C   0  0  0  0  0  0  0  0  0  0  0  0
    0.4034   -0.0253    0.0000 C   0  0  0  0  0  0  0  0  0  0  0  0
    0.5870   -1.5140    0.0000 C   0  0  0  0  0  0  0  0  0  0  0  0
   -0.8477   -1.0763    0.0000 C   0  0  0  0  0  0  0  0  0  0  0  0
  2  1  1  6
  2  3  1  0
  3  4  1  0
  2  5  1  0
  5  6  1  0
  6  7  1  0
  7  8  2  0
  7  9  1  0
  9 10  1  0
 10 11  1  0
 11 12  1  6
 11 13  1  0
 13 14  1  6
 14 15  1  0
 16 15  1  6
 16 17  1  0
 17 18  1  1
 18 19  1  1
 18 20  1  0
 21 20  1  1
 21 22  1  0
 22 23  1  0
 23 24  1  1
 23 25  1  0
 25 26  1  0
 26 27  1  0
 27 28  1  6
 27 29  1  0
 29 30  1  6
 30 31  1  0
 31 32  1  0
 32 33  1  6
 32 13  1  0
 32 16  1  0
 29 17  1  0
 27 21  1  0
M  END
>  <MS_ID>  (2174) 
MS2252

>  <SMILES>  (2174) 
C[C@@H](CO)COC(=O)CC[C@@H](C)[C@H]1CC[C@H]2[C@@H]3[C@H](O)C[C@@H]4C[C@H](O)CC[C@]4(C)[C@H]3CC[C@]12C

>  <Structure_dimension>  (2174) 
2D

$$$$
MS2253
     RDKit          2D

 28 31  0  0  0  0  0  0  0  0999 V2000
   -5.2870   -1.7591    0.0000 C   0  0  0  0  0  0  0  0  0  0  0  0
   -4.0706   -0.8813    0.0000 C   0  0  0  0  0  0  0  0  0  0  0  0
   -4.2226    0.6109    0.0000 C   0  0  0  0  0  0  0  0  0  0  0  0
   -5.5910    1.2255    0.0000 C   0  0  0  0  0  0  0  0  0  0  0  0
   -5.7429    2.7177    0.0000 C   0  0  0  0  0  0  0  0  0  0  0  0
   -7.1113    3.3322    0.0000 O   0  0  0  0  0  0  0  0  0  0  0  0
   -2.7023   -1.4959    0.0000 C   0  0  0  0  0  0  0  0  0  0  0  0
   -2.3951   -2.9641    0.0000 C   0  0  0  0  0  0  0  0  0  0  0  0
   -0.9039   -3.1257    0.0000 C   0  0  0  0  0  0  0  0  0  0  0  0
   -0.2893   -1.7573    0.0000 C   0  0  0  0  0  0  0  0  0  0  0  0
    1.1387   -1.2984    0.0000 C   0  0  0  0  0  0  0  0  0  0  0  0
    2.2502   -2.3057    0.0000 C   0  0  0  0  0  0  0  0  0  0  0  0
    1.9336   -3.7719    0.0000 O   0  0  0  0  0  0  0  0  0  0  0  0
    3.6783   -1.8467    0.0000 C   0  0  0  0  0  0  0  0  0  0  0  0
    3.9949   -0.3805    0.0000 C   0  0  0  0  0  0  0  0  0  0  0  0
    5.4229    0.0784    0.0000 C   0  0  0  0  0  0  0  0  0  0  0  0
    5.7395    1.5446    0.0000 C   0  0  0  0  0  0  0  0  0  0  0  0
    7.1676    2.0035    0.0000 O   0  0  0  0  0  0  0  0  0  0  0  0
    4.6280    2.5519    0.0000 C   0  0  0  0  0  0  0  0  0  0  0  0
    3.2000    2.0930    0.0000 C   0  0  0  0  0  0  0  0  0  0  0  0
    2.8834    0.6267    0.0000 C   0  0  0  0  0  0  0  0  0  0  0  0
    1.7719    1.6340    0.0000 C   0  0  0  0  0  0  0  0  0  0  0  0
    1.4553    0.1678    0.0000 C   0  0  0  0  0  0  0  0  0  0  0  0
    0.3438    1.1751    0.0000 C   0  0  0  0  0  0  0  0  0  0  0  0
   -1.0842    0.7162    0.0000 C   0  0  0  0  0  0  0  0  0  0  0  0
   -2.1957    1.7234    0.0000 O   0  0  0  0  0  0  0  0  0  0  0  0
   -1.4008   -0.7500    0.0000 C   0  0  0  0  0  0  0  0  0  0  0  0
   -2.6115    0.1355    0.0000 C   0  0  0  0  0  0  0  0  0  0  0  0
  2  1  1  6
  2  3  1  0
  3  4  1  0
  4  5  1  0
  5  6  2  0
  2  7  1  0
  7  8  1  6
  8  9  1  0
 10  9  1  6
 10 11  1  0
 11 12  1  1
 12 13  1  1
 12 14  1  0
 15 14  1  1
 15 16  1  0
 16 17  1  0
 17 18  1  1
 17 19  1  0
 19 20  1  0
 20 21  1  0
 21 22  1  6
 21 23  1  0
 23 24  1  6
 24 25  1  0
 25 26  2  0
 25 27  1  0
 27 28  1  6
 27  7  1  0
 27 10  1  0
 23 11  1  0
 21 15  1  0
M  END
>  <MS_ID>  (2175) 
MS2253

>  <SMILES>  (2175) 
C[C@H](CCC=O)[C@H]1CC[C@H]2[C@@H]3[C@H](O)C[C@@H]4C[C@H](O)CC[C@]4(C)[C@H]3CC(=O)[C@]12C

>  <Structure_dimension>  (2175) 
2D

$$$$
MS2254
     RDKit          2D

 40 44  0  0  0  0  0  0  0  0999 V2000
   -0.7210   -4.8232    0.0000 C   0  0  0  0  0  0  0  0  0  0  0  0
   -0.1495   -3.4364    0.0000 C   0  0  0  0  0  0  0  0  0  0  0  0
   -1.0648   -2.2480    0.0000 C   0  0  0  0  0  0  0  0  0  0  0  0
   -2.5516   -2.4465    0.0000 C   0  0  0  0  0  0  0  0  0  0  0  0
   -3.4669   -1.2581    0.0000 C   0  0  0  0  0  0  0  0  0  0  0  0
   -2.8953    0.1288    0.0000 O   0  0  0  0  0  0  0  0  0  0  0  0
   -4.9537   -1.4566    0.0000 O   0  0  0  0  0  0  0  0  0  0  0  0
   -5.8690   -0.2682    0.0000 C   0  0  0  0  0  0  0  0  0  0  0  0
   -5.2974    1.1187    0.0000 O   0  0  0  0  0  0  0  0  0  0  0  0
   -6.2127    2.3071    0.0000 C   0  0  0  0  0  0  0  0  0  0  0  0
   -5.6412    3.6939    0.0000 C   0  0  0  0  0  0  0  0  0  0  0  0
   -4.1544    3.8924    0.0000 O   0  0  0  0  0  0  0  0  0  0  0  0
   -7.6995    2.1086    0.0000 C   0  0  0  0  0  0  0  0  0  0  0  0
   -8.6148    3.2970    0.0000 O   0  0  0  0  0  0  0  0  0  0  0  0
   -8.2711    0.7217    0.0000 C   0  0  0  0  0  0  0  0  0  0  0  0
   -9.7579    0.5233    0.0000 O   0  0  0  0  0  0  0  0  0  0  0  0
   -7.3558   -0.4666    0.0000 C   0  0  0  0  0  0  0  0  0  0  0  0
   -7.9273   -1.8535    0.0000 O   0  0  0  0  0  0  0  0  0  0  0  0
    1.3373   -3.2379    0.0000 C   0  0  0  0  0  0  0  0  0  0  0  0
    2.3718   -4.3241    0.0000 C   0  0  0  0  0  0  0  0  0  0  0  0
    3.7245   -3.6759    0.0000 C   0  0  0  0  0  0  0  0  0  0  0  0
    3.5261   -2.1891    0.0000 C   0  0  0  0  0  0  0  0  0  0  0  0
    4.4982   -1.0468    0.0000 C   0  0  0  0  0  0  0  0  0  0  0  0
    5.9735   -1.3175    0.0000 C   0  0  0  0  0  0  0  0  0  0  0  0
    6.4768   -2.7305    0.0000 O   0  0  0  0  0  0  0  0  0  0  0  0
    6.9457   -0.1751    0.0000 C   0  0  0  0  0  0  0  0  0  0  0  0
    6.4424    1.2380    0.0000 C   0  0  0  0  0  0  0  0  0  0  0  0
    7.4145    2.3803    0.0000 C   0  0  0  0  0  0  0  0  0  0  0  0
    6.9113    3.7934    0.0000 C   0  0  0  0  0  0  0  0  0  0  0  0
    7.8834    4.9357    0.0000 O   0  0  0  0  0  0  0  0  0  0  0  0
    5.4359    4.0641    0.0000 C   0  0  0  0  0  0  0  0  0  0  0  0
    4.4638    2.9217    0.0000 C   0  0  0  0  0  0  0  0  0  0  0  0
    4.9670    1.5087    0.0000 C   0  0  0  0  0  0  0  0  0  0  0  0
    3.4917    1.7794    0.0000 C   0  0  0  0  0  0  0  0  0  0  0  0
    3.9949    0.3663    0.0000 C   0  0  0  0  0  0  0  0  0  0  0  0
    2.5196    0.6370    0.0000 C   0  0  0  0  0  0  0  0  0  0  0  0
    1.5474   -0.5054    0.0000 C   0  0  0  0  0  0  0  0  0  0  0  0
    0.0721   -0.2347    0.0000 O   0  0  0  0  0  0  0  0  0  0  0  0
    2.0507   -1.9184    0.0000 C   0  0  0  0  0  0  0  0  0  0  0  0
    0.5551   -1.8034    0.0000 C   0  0  0  0  0  0  0  0  0  0  0  0
  2  1  1  6
  2  3  1  0
  3  4  1  0
  4  5  1  0
  5  6  2  0
  5  7  1  0
  8  7  1  6
  8  9  1  0
  9 10  1  0
 10 11  1  6
 11 12  1  0
 10 13  1  0
 13 14  1  1
 13 15  1  0
 15 16  1  6
 15 17  1  0
 17 18  1  1
  2 19  1  0
 19 20  1  6
 20 21  1  0
 22 21  1  6
 22 23  1  0
 23 24  1  1
 24 25  1  1
 24 26  1  0
 27 26  1  1
 27 28  1  0
 28 29  1  0
 29 30  1  1
 29 31  1  0
 31 32  1  0
 32 33  1  0
 33 34  1  6
 33 35  1  0
 35 36  1  6
 36 37  1  0
 37 38  1  1
 37 39  1  0
 39 40  1  6
 17  8  1  0
 39 19  1  0
 39 22  1  0
 35 23  1  0
 33 27  1  0
M  END
>  <MS_ID>  (2176) 
MS2254

>  <SMILES>  (2176) 
C[C@H](CCC(=O)O[C@H]1O[C@@H](CO)[C@H](O)[C@@H](O)[C@@H]1O)[C@H]1CC[C@H]2[C@@H]3[C@H](O)C[C@@H]4C[C@H](O)CC[C@]4(C)[C@H]3C[C@H](O)[C@]12C

>  <Structure_dimension>  (2176) 
2D

$$$$
MS2255
     RDKit          2D

 35 39  0  0  0  0  0  0  0  0999 V2000
   -3.0498   -3.2774    0.0000 C   0  0  0  0  0  0  0  0  0  0  0  0
   -2.1025   -2.1144    0.0000 C   0  0  0  0  0  0  0  0  0  0  0  0
   -2.6360   -0.7125    0.0000 C   0  0  0  0  0  0  0  0  0  0  0  0
   -4.1169   -0.4736    0.0000 C   0  0  0  0  0  0  0  0  0  0  0  0
   -4.6504    0.9283    0.0000 C   0  0  0  0  0  0  0  0  0  0  0  0
   -3.7031    2.0913    0.0000 O   0  0  0  0  0  0  0  0  0  0  0  0
   -6.1313    1.1672    0.0000 C   0  0  0  0  0  0  0  0  0  0  0  0
   -6.6648    2.5691    0.0000 C   0  0  0  0  0  0  0  0  0  0  0  0
   -8.1456    2.8080    0.0000 C   0  0  0  0  0  0  0  0  0  0  0  0
   -9.0930    1.6450    0.0000 C   0  0  0  0  0  0  0  0  0  0  0  0
   -8.5594    0.2431    0.0000 N   0  0  0  0  0  0  0  0  0  0  0  0
   -9.5068   -0.9199    0.0000 O   0  0  0  0  0  0  0  0  0  0  0  0
   -7.0786    0.0042    0.0000 C   0  0  0  0  0  0  0  0  0  0  0  0
   -0.6216   -2.3533    0.0000 C   0  0  0  0  0  0  0  0  0  0  0  0
    0.0555   -3.6917    0.0000 C   0  0  0  0  0  0  0  0  0  0  0  0
    1.5377   -3.4613    0.0000 C   0  0  0  0  0  0  0  0  0  0  0  0
    1.7766   -1.9805    0.0000 C   0  0  0  0  0  0  0  0  0  0  0  0
    3.0370   -1.1671    0.0000 C   0  0  0  0  0  0  0  0  0  0  0  0
    4.3715   -1.8520    0.0000 C   0  0  0  0  0  0  0  0  0  0  0  0
    4.4457   -3.3501    0.0000 O   0  0  0  0  0  0  0  0  0  0  0  0
    5.6319   -1.0386    0.0000 C   0  0  0  0  0  0  0  0  0  0  0  0
    6.9664   -1.7234    0.0000 O   0  0  0  0  0  0  0  0  0  0  0  0
    5.5576    0.4596    0.0000 C   0  0  0  0  0  0  0  0  0  0  0  0
    6.8180    1.2729    0.0000 C   0  0  0  0  0  0  0  0  0  0  0  0
    6.7438    2.7711    0.0000 C   0  0  0  0  0  0  0  0  0  0  0  0
    8.0041    3.5844    0.0000 O   0  0  0  0  0  0  0  0  0  0  0  0
    5.4092    3.4559    0.0000 C   0  0  0  0  0  0  0  0  0  0  0  0
    4.1489    2.6425    0.0000 C   0  0  0  0  0  0  0  0  0  0  0  0
    4.2231    1.1444    0.0000 C   0  0  0  0  0  0  0  0  0  0  0  0
    2.8885    1.8292    0.0000 C   0  0  0  0  0  0  0  0  0  0  0  0
    2.9628    0.3310    0.0000 C   0  0  0  0  0  0  0  0  0  0  0  0
    1.6282    1.0158    0.0000 C   0  0  0  0  0  0  0  0  0  0  0  0
    0.3679    0.2025    0.0000 C   0  0  0  0  0  0  0  0  0  0  0  0
    0.4421   -1.2957    0.0000 C   0  0  0  0  0  0  0  0  0  0  0  0
   -0.9568   -0.7541    0.0000 C   0  0  0  0  0  0  0  0  0  0  0  0
  2  1  1  6
  2  3  1  0
  3  4  1  0
  4  5  1  0
  5  6  2  0
  5  7  1  0
  7  8  2  0
  8  9  1  0
  9 10  2  0
 10 11  1  0
 11 12  1  0
 11 13  2  0
  2 14  1  0
 14 15  1  6
 15 16  1  0
 17 16  1  6
 17 18  1  0
 18 19  1  1
 19 20  1  1
 19 21  1  0
 21 22  1  1
 21 23  1  0
 23 24  1  1
 24 25  1  0
 25 26  1  1
 25 27  1  0
 27 28  1  0
 28 29  1  0
 29 30  1  6
 29 31  1  0
 31 32  1  6
 32 33  1  0
 33 34  1  0
 34 35  1  6
 13  7  1  0
 34 14  1  0
 34 17  1  0
 31 18  1  0
 29 23  1  0
M  CHG  2  11   1  12  -1
M  END
>  <MS_ID>  (2177) 
MS2255

>  <SMILES>  (2177) 
C[C@H](CCC(=O)c1ccc[n+]([O-])c1)[C@H]1CC[C@H]2[C@@H]3[C@H](O)[C@H](O)[C@@H]4C[C@H](O)CC[C@]4(C)[C@H]3CC[C@]12C

>  <Structure_dimension>  (2177) 
2D

$$$$
MS2256
     RDKit          2D

 30 33  0  0  0  0  0  0  0  0999 V2000
   -5.8393   -1.8075    0.0000 C   0  0  0  0  0  0  0  0  0  0  0  0
   -4.6087   -0.9498    0.0000 C   0  0  0  0  0  0  0  0  0  0  0  0
   -4.7361    0.5448    0.0000 C   0  0  0  0  0  0  0  0  0  0  0  0
   -6.0942    1.1817    0.0000 C   0  0  0  0  0  0  0  0  0  0  0  0
   -6.2216    2.6763    0.0000 C   0  0  0  0  0  0  0  0  0  0  0  0
   -4.9910    3.5339    0.0000 O   0  0  0  0  0  0  0  0  0  0  0  0
   -7.5797    3.3132    0.0000 O   0  0  0  0  0  0  0  0  0  0  0  0
   -3.2506   -1.5867    0.0000 C   0  0  0  0  0  0  0  0  0  0  0  0
   -2.9677   -3.0598    0.0000 C   0  0  0  0  0  0  0  0  0  0  0  0
   -1.4793   -3.2459    0.0000 C   0  0  0  0  0  0  0  0  0  0  0  0
   -0.8423   -1.8878    0.0000 C   0  0  0  0  0  0  0  0  0  0  0  0
    0.5931   -1.4525    0.0000 C   0  0  0  0  0  0  0  0  0  0  0  0
    1.6878   -2.4779    0.0000 C   0  0  0  0  0  0  0  0  0  0  0  0
    1.3472   -3.9387    0.0000 O   0  0  0  0  0  0  0  0  0  0  0  0
    3.1233   -2.0425    0.0000 C   0  0  0  0  0  0  0  0  0  0  0  0
    3.4639   -0.5817    0.0000 C   0  0  0  0  0  0  0  0  0  0  0  0
    4.8993   -0.1463    0.0000 C   0  0  0  0  0  0  0  0  0  0  0  0
    5.2400    1.3145    0.0000 C   0  0  0  0  0  0  0  0  0  0  0  0
    6.6754    1.7499    0.0000 C   0  0  0  0  0  0  0  0  0  0  0  0
    7.7702    0.7245    0.0000 N   0  0  0  0  0  0  0  0  0  0  0  0
    9.2056    1.1599    0.0000 O   0  0  0  0  0  0  0  0  0  0  0  0
    4.1452    2.3399    0.0000 C   0  0  0  0  0  0  0  0  0  0  0  0
    2.7098    1.9045    0.0000 C   0  0  0  0  0  0  0  0  0  0  0  0
    2.3692    0.4437    0.0000 C   0  0  0  0  0  0  0  0  0  0  0  0
    1.2744    1.4692    0.0000 C   0  0  0  0  0  0  0  0  0  0  0  0
    0.9337    0.0084    0.0000 C   0  0  0  0  0  0  0  0  0  0  0  0
   -0.1610    1.0338    0.0000 C   0  0  0  0  0  0  0  0  0  0  0  0
   -1.5965    0.5984    0.0000 C   0  0  0  0  0  0  0  0  0  0  0  0
   -1.9371   -0.8624    0.0000 C   0  0  0  0  0  0  0  0  0  0  0  0
   -3.1331    0.0429    0.0000 C   0  0  0  0  0  0  0  0  0  0  0  0
  2  1  1  6
  2  3  1  0
  3  4  1  0
  4  5  1  0
  5  6  2  0
  5  7  1  0
  2  8  1  0
  8  9  1  6
  9 10  1  0
 11 10  1  6
 11 12  1  0
 12 13  1  1
 13 14  1  6
 13 15  1  0
 16 15  1  1
 16 17  1  0
 17 18  1  0
 18 19  1  1
 19 20  1  0
 20 21  1  0
 18 22  1  0
 22 23  1  0
 23 24  1  0
 24 25  1  6
 24 26  1  0
 26 27  1  6
 27 28  1  0
 28 29  1  0
 29 30  1  6
 29  8  1  0
 29 11  1  0
 26 12  1  0
 24 16  1  0
M  END
>  <MS_ID>  (2178) 
MS2256

>  <SMILES>  (2178) 
C[C@H](CCC(=O)O)[C@H]1CC[C@H]2[C@@H]3[C@@H](O)C[C@@H]4C[C@H](CNO)CC[C@]4(C)[C@H]3CC[C@]12C

>  <Structure_dimension>  (2178) 
2D

$$$$
MS2257
     RDKit          2D

 34 38  0  0  0  0  0  0  0  0999 V2000
   -3.1078   -3.3705    0.0000 C   0  0  0  0  0  0  0  0  0  0  0  0
   -2.1565   -2.2107    0.0000 C   0  0  0  0  0  0  0  0  0  0  0  0
   -2.6851   -0.8070    0.0000 C   0  0  0  0  0  0  0  0  0  0  0  0
   -4.1651   -0.5630    0.0000 C   0  0  0  0  0  0  0  0  0  0  0  0
   -4.6938    0.8408    0.0000 C   0  0  0  0  0  0  0  0  0  0  0  0
   -3.7424    2.0005    0.0000 O   0  0  0  0  0  0  0  0  0  0  0  0
   -6.1738    1.0848    0.0000 N   0  0  0  0  0  0  0  0  0  0  0  0
   -6.7025    2.4886    0.0000 C   0  0  0  0  0  0  0  0  0  0  0  0
   -8.1825    2.7326    0.0000 C   0  0  0  0  0  0  0  0  0  0  0  0
   -9.1338    1.5729    0.0000 O   0  0  0  0  0  0  0  0  0  0  0  0
   -8.6052    0.1692    0.0000 C   0  0  0  0  0  0  0  0  0  0  0  0
   -7.1252   -0.0749    0.0000 C   0  0  0  0  0  0  0  0  0  0  0  0
   -0.6765   -2.4548    0.0000 C   0  0  0  0  0  0  0  0  0  0  0  0
   -0.0040   -3.7956    0.0000 C   0  0  0  0  0  0  0  0  0  0  0  0
    1.4790   -3.5703    0.0000 C   0  0  0  0  0  0  0  0  0  0  0  0
    1.7231   -2.0903    0.0000 C   0  0  0  0  0  0  0  0  0  0  0  0
    2.9862   -1.2814    0.0000 C   0  0  0  0  0  0  0  0  0  0  0  0
    4.3184   -1.9708    0.0000 C   0  0  0  0  0  0  0  0  0  0  0  0
    4.3874   -3.4692    0.0000 O   0  0  0  0  0  0  0  0  0  0  0  0
    5.5816   -1.1619    0.0000 C   0  0  0  0  0  0  0  0  0  0  0  0
    5.5126    0.3366    0.0000 C   0  0  0  0  0  0  0  0  0  0  0  0
    6.7757    1.1455    0.0000 C   0  0  0  0  0  0  0  0  0  0  0  0
    6.7067    2.6439    0.0000 C   0  0  0  0  0  0  0  0  0  0  0  0
    7.9699    3.4529    0.0000 O   0  0  0  0  0  0  0  0  0  0  0  0
    5.3746    3.3334    0.0000 C   0  0  0  0  0  0  0  0  0  0  0  0
    4.1114    2.5244    0.0000 C   0  0  0  0  0  0  0  0  0  0  0  0
    4.1804    1.0260    0.0000 C   0  0  0  0  0  0  0  0  0  0  0  0
    2.8482    1.7155    0.0000 C   0  0  0  0  0  0  0  0  0  0  0  0
    2.9172    0.2170    0.0000 C   0  0  0  0  0  0  0  0  0  0  0  0
    1.5851    0.9065    0.0000 C   0  0  0  0  0  0  0  0  0  0  0  0
    0.3219    0.0975    0.0000 C   0  0  0  0  0  0  0  0  0  0  0  0
   -1.0102    0.7870    0.0000 O   0  0  0  0  0  0  0  0  0  0  0  0
    0.3909   -1.4009    0.0000 C   0  0  0  0  0  0  0  0  0  0  0  0
   -1.0060   -0.8545    0.0000 C   0  0  0  0  0  0  0  0  0  0  0  0
  2  1  1  6
  2  3  1  0
  3  4  1  0
  4  5  1  0
  5  6  2  0
  5  7  1  0
  7  8  1  0
  8  9  1  0
  9 10  1  0
 10 11  1  0
 11 12  1  0
  2 13  1  0
 13 14  1  6
 14 15  1  0
 16 15  1  6
 16 17  1  0
 17 18  1  1
 18 19  1  1
 18 20  1  0
 21 20  1  1
 21 22  1  0
 22 23  1  0
 23 24  1  1
 23 25  1  0
 25 26  1  0
 26 27  1  0
 27 28  1  6
 27 29  1  0
 29 30  1  6
 30 31  1  0
 31 32  1  1
 31 33  1  0
 33 34  1  6
 12  7  1  0
 33 13  1  0
 33 16  1  0
 29 17  1  0
 27 21  1  0
M  END
>  <MS_ID>  (2179) 
MS2257

>  <SMILES>  (2179) 
C[C@H](CCC(=O)N1CCOCC1)[C@H]1CC[C@H]2[C@@H]3[C@H](O)C[C@@H]4C[C@H](O)CC[C@]4(C)[C@H]3C[C@H](O)[C@]12C

>  <Structure_dimension>  (2179) 
2D

$$$$
MS2258
     RDKit          2D

 29 32  0  0  0  0  0  0  0  0999 V2000
   -5.1421   -2.1269    0.0000 C   0  0  0  0  0  0  0  0  0  0  0  0
   -4.0091   -1.1439    0.0000 C   0  0  0  0  0  0  0  0  0  0  0  0
   -4.2938    0.3288    0.0000 C   0  0  0  0  0  0  0  0  0  0  0  0
   -5.7116    0.8186    0.0000 C   0  0  0  0  0  0  0  0  0  0  0  0
   -5.9963    2.2913    0.0000 C   0  0  0  0  0  0  0  0  0  0  0  0
   -4.8632    3.2743    0.0000 O   0  0  0  0  0  0  0  0  0  0  0  0
   -7.4141    2.7811    0.0000 O   0  0  0  0  0  0  0  0  0  0  0  0
   -2.5913   -1.6337    0.0000 C   0  0  0  0  0  0  0  0  0  0  0  0
   -2.1542   -3.0686    0.0000 C   0  0  0  0  0  0  0  0  0  0  0  0
   -0.6544   -3.0963    0.0000 C   0  0  0  0  0  0  0  0  0  0  0  0
   -0.1646   -1.6785    0.0000 C   0  0  0  0  0  0  0  0  0  0  0  0
    1.2167   -1.0938    0.0000 C   0  0  0  0  0  0  0  0  0  0  0  0
    2.4137   -1.9977    0.0000 C   0  0  0  0  0  0  0  0  0  0  0  0
    2.2294   -3.4864    0.0000 C   0  0  0  0  0  0  0  0  0  0  0  0
    3.4265   -4.3903    0.0000 N   0  0  0  0  0  0  0  0  0  0  0  0
    3.7951   -1.4130    0.0000 C   0  0  0  0  0  0  0  0  0  0  0  0
    3.9794    0.0756    0.0000 C   0  0  0  0  0  0  0  0  0  0  0  0
    5.3607    0.6603    0.0000 C   0  0  0  0  0  0  0  0  0  0  0  0
    5.5451    2.1489    0.0000 C   0  0  0  0  0  0  0  0  0  0  0  0
    6.9264    2.7336    0.0000 O   0  0  0  0  0  0  0  0  0  0  0  0
    4.3480    3.0529    0.0000 C   0  0  0  0  0  0  0  0  0  0  0  0
    2.9667    2.4682    0.0000 C   0  0  0  0  0  0  0  0  0  0  0  0
    2.7824    0.9795    0.0000 C   0  0  0  0  0  0  0  0  0  0  0  0
    1.5853    1.8835    0.0000 C   0  0  0  0  0  0  0  0  0  0  0  0
    1.4010    0.3948    0.0000 C   0  0  0  0  0  0  0  0  0  0  0  0
    0.2040    1.2988    0.0000 C   0  0  0  0  0  0  0  0  0  0  0  0
   -1.1774    0.7141    0.0000 C   0  0  0  0  0  0  0  0  0  0  0  0
   -1.3617   -0.7746    0.0000 C   0  0  0  0  0  0  0  0  0  0  0  0
   -2.6467   -0.0007    0.0000 C   0  0  0  0  0  0  0  0  0  0  0  0
  2  1  1  6
  2  3  1  0
  3  4  1  0
  4  5  1  0
  5  6  2  0
  5  7  1  0
  2  8  1  0
  8  9  1  6
  9 10  1  0
 11 10  1  6
 11 12  1  0
 12 13  1  1
 13 14  1  1
 14 15  1  0
 13 16  1  0
 17 16  1  1
 17 18  1  0
 18 19  1  0
 19 20  1  1
 19 21  1  0
 21 22  1  0
 22 23  1  0
 23 24  1  6
 23 25  1  0
 25 26  1  6
 26 27  1  0
 27 28  1  0
 28 29  1  6
 28  8  1  0
 28 11  1  0
 25 12  1  0
 23 17  1  0
M  END
>  <MS_ID>  (2180) 
MS2258

>  <SMILES>  (2180) 
C[C@H](CCC(=O)O)[C@H]1CC[C@H]2[C@@H]3[C@H](CN)C[C@@H]4C[C@H](O)CC[C@]4(C)[C@H]3CC[C@]12C

>  <Structure_dimension>  (2180) 
2D

$$$$
MS2259
     RDKit          2D

 28 31  0  0  0  0  0  0  0  0999 V2000
   -5.1275   -2.0302    0.0000 C   0  0  0  0  0  0  0  0  0  0  0  0
   -3.9468   -1.1050    0.0000 C   0  0  0  0  0  0  0  0  0  0  0  0
   -4.1576    0.3801    0.0000 C   0  0  0  0  0  0  0  0  0  0  0  0
   -5.5492    0.9401    0.0000 C   0  0  0  0  0  0  0  0  0  0  0  0
   -5.7600    2.4252    0.0000 C   0  0  0  0  0  0  0  0  0  0  0  0
   -7.1516    2.9851    0.0000 N   0  0  0  0  0  0  0  0  0  0  0  0
   -4.5793    3.3503    0.0000 O   0  0  0  0  0  0  0  0  0  0  0  0
   -2.5552   -1.6650    0.0000 C   0  0  0  0  0  0  0  0  0  0  0  0
   -2.1903   -3.1199    0.0000 C   0  0  0  0  0  0  0  0  0  0  0  0
   -0.6938   -3.2225    0.0000 C   0  0  0  0  0  0  0  0  0  0  0  0
   -0.1339   -1.8309    0.0000 C   0  0  0  0  0  0  0  0  0  0  0  0
    1.2750   -1.3159    0.0000 C   0  0  0  0  0  0  0  0  0  0  0  0
    2.4254   -2.2785    0.0000 C   0  0  0  0  0  0  0  0  0  0  0  0
    2.1670   -3.7560    0.0000 O   0  0  0  0  0  0  0  0  0  0  0  0
    3.8342   -1.7635    0.0000 C   0  0  0  0  0  0  0  0  0  0  0  0
    4.0926   -0.2859    0.0000 C   0  0  0  0  0  0  0  0  0  0  0  0
    5.5014    0.2291    0.0000 C   0  0  0  0  0  0  0  0  0  0  0  0
    5.7598    1.7067    0.0000 C   0  0  0  0  0  0  0  0  0  0  0  0
    7.1687    2.2217    0.0000 O   0  0  0  0  0  0  0  0  0  0  0  0
    4.6094    2.6692    0.0000 C   0  0  0  0  0  0  0  0  0  0  0  0
    3.2006    2.1542    0.0000 C   0  0  0  0  0  0  0  0  0  0  0  0
    2.9422    0.6767    0.0000 C   0  0  0  0  0  0  0  0  0  0  0  0
    1.7918    1.6392    0.0000 C   0  0  0  0  0  0  0  0  0  0  0  0
    1.5334    0.1617    0.0000 C   0  0  0  0  0  0  0  0  0  0  0  0
    0.3830    1.1242    0.0000 C   0  0  0  0  0  0  0  0  0  0  0  0
   -1.0259    0.6093    0.0000 C   0  0  0  0  0  0  0  0  0  0  0  0
   -1.2843   -0.8683    0.0000 C   0  0  0  0  0  0  0  0  0  0  0  0
   -2.5290   -0.0313    0.0000 C   0  0  0  0  0  0  0  0  0  0  0  0
  2  1  1  6
  2  3  1  0
  3  4  1  0
  4  5  1  0
  5  6  1  0
  5  7  2  0
  2  8  1  0
  8  9  1  6
  9 10  1  0
 11 10  1  6
 11 12  1  0
 12 13  1  1
 13 14  1  1
 13 15  1  0
 16 15  1  1
 16 17  1  0
 17 18  1  0
 18 19  2  0
 18 20  1  0
 20 21  1  0
 21 22  1  0
 22 23  1  6
 22 24  1  0
 24 25  1  6
 25 26  1  0
 26 27  1  0
 27 28  1  6
 27  8  1  0
 27 11  1  0
 24 12  1  0
 22 16  1  0
M  END
>  <MS_ID>  (2181) 
MS2259

>  <SMILES>  (2181) 
C[C@H](CCC(N)=O)[C@H]1CC[C@H]2[C@@H]3[C@H](O)C[C@@H]4CC(=O)CC[C@]4(C)[C@H]3CC[C@]12C

>  <Structure_dimension>  (2181) 
2D

$$$$
MS2260
     RDKit          2D

 34 37  0  0  0  0  0  0  0  0999 V2000
   -2.9749   -4.4563    0.0000 C   0  0  0  0  0  0  0  0  0  0  0  0
   -2.2212   -3.1594    0.0000 C   0  0  0  0  0  0  0  0  0  0  0  0
   -2.9676   -1.8583    0.0000 C   0  0  0  0  0  0  0  0  0  0  0  0
   -4.4676   -1.8541    0.0000 C   0  0  0  0  0  0  0  0  0  0  0  0
   -5.2139   -0.5529    0.0000 C   0  0  0  0  0  0  0  0  0  0  0  0
   -6.7139   -0.5487    0.0000 O   0  0  0  0  0  0  0  0  0  0  0  0
   -4.4603    0.7440    0.0000 O   0  0  0  0  0  0  0  0  0  0  0  0
   -5.2067    2.0451    0.0000 C   0  0  0  0  0  0  0  0  0  0  0  0
   -6.7067    2.0493    0.0000 O   0  0  0  0  0  0  0  0  0  0  0  0
   -4.4530    3.3421    0.0000 C   0  0  0  0  0  0  0  0  0  0  0  0
   -3.6994    4.6390    0.0000 F   0  0  0  0  0  0  0  0  0  0  0  0
   -5.7500    4.0957    0.0000 F   0  0  0  0  0  0  0  0  0  0  0  0
   -3.1561    2.5884    0.0000 F   0  0  0  0  0  0  0  0  0  0  0  0
   -0.7212   -3.1636    0.0000 C   0  0  0  0  0  0  0  0  0  0  0  0
    0.1570   -4.3796    0.0000 C   0  0  0  0  0  0  0  0  0  0  0  0
    1.5849   -3.9200    0.0000 C   0  0  0  0  0  0  0  0  0  0  0  0
    1.5891   -2.4201    0.0000 C   0  0  0  0  0  0  0  0  0  0  0  0
    2.7066   -1.4195    0.0000 C   0  0  0  0  0  0  0  0  0  0  0  0
    4.1319   -1.8870    0.0000 C   0  0  0  0  0  0  0  0  0  0  0  0
    4.4397   -3.3551    0.0000 O   0  0  0  0  0  0  0  0  0  0  0  0
    5.2495   -0.8864    0.0000 C   0  0  0  0  0  0  0  0  0  0  0  0
    4.9417    0.5817    0.0000 C   0  0  0  0  0  0  0  0  0  0  0  0
    6.0592    1.5822    0.0000 C   0  0  0  0  0  0  0  0  0  0  0  0
    5.7515    3.0503    0.0000 C   0  0  0  0  0  0  0  0  0  0  0  0
    6.8690    4.0509    0.0000 O   0  0  0  0  0  0  0  0  0  0  0  0
    4.3262    3.5178    0.0000 C   0  0  0  0  0  0  0  0  0  0  0  0
    3.2087    2.5173    0.0000 C   0  0  0  0  0  0  0  0  0  0  0  0
    3.5164    1.0492    0.0000 C   0  0  0  0  0  0  0  0  0  0  0  0
    2.0911    1.5167    0.0000 C   0  0  0  0  0  0  0  0  0  0  0  0
    2.3989    0.0486    0.0000 C   0  0  0  0  0  0  0  0  0  0  0  0
    0.9736    0.5161    0.0000 C   0  0  0  0  0  0  0  0  0  0  0  0
   -0.1439   -0.4844    0.0000 C   0  0  0  0  0  0  0  0  0  0  0  0
    0.1638   -1.9525    0.0000 C   0  0  0  0  0  0  0  0  0  0  0  0
   -1.3025   -1.6366    0.0000 C   0  0  0  0  0  0  0  0  0  0  0  0
  2  1  1  6
  2  3  1  0
  3  4  1  0
  4  5  1  0
  5  6  2  0
  5  7  1  0
  7  8  1  0
  8  9  2  0
  8 10  1  0
 10 11  1  0
 10 12  1  0
 10 13  1  0
  2 14  1  0
 14 15  1  6
 15 16  1  0
 17 16  1  6
 17 18  1  0
 18 19  1  1
 19 20  1  1
 19 21  1  0
 22 21  1  1
 22 23  1  0
 23 24  1  0
 24 25  1  1
 24 26  1  0
 26 27  1  0
 27 28  1  0
 28 29  1  6
 28 30  1  0
 30 31  1  6
 31 32  1  0
 32 33  1  0
 33 34  1  6
 33 14  1  0
 33 17  1  0
 30 18  1  0
 28 22  1  0
M  END
>  <MS_ID>  (2182) 
MS2260

>  <SMILES>  (2182) 
C[C@H](CCC(=O)OC(=O)C(F)(F)F)[C@H]1CC[C@H]2[C@@H]3[C@H](O)C[C@@H]4C[C@H](O)CC[C@]4(C)[C@H]3CC[C@]12C

>  <Structure_dimension>  (2182) 
2D

$$$$
MS2261
     RDKit          2D

 28 31  0  0  0  0  0  0  0  0999 V2000
    7.5263   -2.7471    0.0000 C   0  0  0  0  0  0  0  0  0  0  0  0
    7.1320   -1.2999    0.0000 O   0  0  0  0  0  0  0  0  0  0  0  0
    5.6815   -0.9177    0.0000 C   0  0  0  0  0  0  0  0  0  0  0  0
    4.6253   -1.9828    0.0000 C   0  0  0  0  0  0  0  0  0  0  0  0
    3.1748   -1.6006    0.0000 C   0  0  0  0  0  0  0  0  0  0  0  0
    2.7805   -0.1533    0.0000 C   0  0  0  0  0  0  0  0  0  0  0  0
    1.7243   -1.2184    0.0000 C   0  0  0  0  0  0  0  0  0  0  0  0
    3.8367    0.9117    0.0000 C   0  0  0  0  0  0  0  0  0  0  0  0
    3.4425    2.3590    0.0000 C   0  0  0  0  0  0  0  0  0  0  0  0
    1.9920    2.7412    0.0000 C   0  0  0  0  0  0  0  0  0  0  0  0
    0.9358    1.6761    0.0000 C   0  0  0  0  0  0  0  0  0  0  0  0
    1.3300    0.2289    0.0000 C   0  0  0  0  0  0  0  0  0  0  0  0
    0.2738   -0.8362    0.0000 C   0  0  0  0  0  0  0  0  0  0  0  0
   -1.1767   -0.4540    0.0000 C   0  0  0  0  0  0  0  0  0  0  0  0
   -1.5710    0.9932    0.0000 C   0  0  0  0  0  0  0  0  0  0  0  0
   -2.7327    0.0444    0.0000 C   0  0  0  0  0  0  0  0  0  0  0  0
   -2.9103    1.6686    0.0000 C   0  0  0  0  0  0  0  0  0  0  0  0
   -4.2440    0.9821    0.0000 C   0  0  0  0  0  0  0  0  0  0  0  0
   -5.5054    1.7938    0.0000 C   0  0  0  0  0  0  0  0  0  0  0  0
   -4.3162   -0.5162    0.0000 C   0  0  0  0  0  0  0  0  0  0  0  0
   -5.6499   -1.2027    0.0000 C   0  0  0  0  0  0  0  0  0  0  0  0
   -5.7221   -2.7010    0.0000 C   0  0  0  0  0  0  0  0  0  0  0  0
   -4.4607   -3.5127    0.0000 O   0  0  0  0  0  0  0  0  0  0  0  0
   -7.0558   -3.3875    0.0000 O   0  0  0  0  0  0  0  0  0  0  0  0
   -2.6818    3.1511    0.0000 C   0  0  0  0  0  0  0  0  0  0  0  0
   -1.2013    3.3920    0.0000 C   0  0  0  0  0  0  0  0  0  0  0  0
   -0.5147    2.0583    0.0000 C   0  0  0  0  0  0  0  0  0  0  0  0
    5.2872    0.5296    0.0000 C   0  0  0  0  0  0  0  0  0  0  0  0
  1  2  1  0
  3  2  1  1
  3  4  1  0
  4  5  1  0
  5  6  1  0
  6  7  1  1
  6  8  1  0
  8  9  1  6
  9 10  1  0
 11 10  1  6
 11 12  1  0
 12 13  1  1
 13 14  1  0
 14 15  1  0
 15 16  1  1
 15 17  1  0
 17 18  1  0
 18 19  1  1
 18 20  1  0
 20 21  1  0
 21 22  1  0
 22 23  2  0
 22 24  1  0
 17 25  1  1
 25 26  1  0
 27 26  1  1
  8 28  1  0
 28  3  1  0
 12  6  1  0
 27 15  1  0
 27 11  1  0
M  END
>  <MS_ID>  (2183) 
MS2261

>  <SMILES>  (2183) 
CO[C@H]1CC[C@@]2(C)[C@H](CC[C@@H]3[C@@H]2CC[C@]2(C)[C@@H]([C@H](C)CCC(=O)O)CC[C@@H]32)C1

>  <Structure_dimension>  (2183) 
2D

$$$$
MS2262
     RDKit          2D

 38 41  0  0  0  0  0  0  0  0999 V2000
    0.2227   -4.7476    0.0000 C   0  0  0  0  0  0  0  0  0  0  0  0
    0.7320   -3.3368    0.0000 C   0  0  0  0  0  0  0  0  0  0  0  0
   -0.2353   -2.1902    0.0000 C   0  0  0  0  0  0  0  0  0  0  0  0
   -1.7118   -2.4546    0.0000 C   0  0  0  0  0  0  0  0  0  0  0  0
   -2.6790   -1.3081    0.0000 C   0  0  0  0  0  0  0  0  0  0  0  0
   -2.1697    0.1028    0.0000 O   0  0  0  0  0  0  0  0  0  0  0  0
   -4.1555   -1.5725    0.0000 N   0  0  0  0  0  0  0  0  0  0  0  0
   -5.1228   -0.4260    0.0000 C   0  0  0  0  0  0  0  0  0  0  0  0
   -6.5993   -0.6904    0.0000 C   0  0  0  0  0  0  0  0  0  0  0  0
   -7.5665    0.4561    0.0000 C   0  0  0  0  0  0  0  0  0  0  0  0
   -9.0430    0.1917    0.0000 C   0  0  0  0  0  0  0  0  0  0  0  0
   -9.5523   -1.2192    0.0000 O   0  0  0  0  0  0  0  0  0  0  0  0
  -10.0102    1.3382    0.0000 N   0  0  0  0  0  0  0  0  0  0  0  0
  -11.4868    1.0738    0.0000 C   0  0  0  0  0  0  0  0  0  0  0  0
  -12.4540    2.2203    0.0000 C   0  0  0  0  0  0  0  0  0  0  0  0
  -11.9447    3.6312    0.0000 O   0  0  0  0  0  0  0  0  0  0  0  0
  -13.9305    1.9559    0.0000 O   0  0  0  0  0  0  0  0  0  0  0  0
    2.2085   -3.0724    0.0000 C   0  0  0  0  0  0  0  0  0  0  0  0
    3.2902   -4.1115    0.0000 C   0  0  0  0  0  0  0  0  0  0  0  0
    4.6128   -3.4038    0.0000 C   0  0  0  0  0  0  0  0  0  0  0  0
    4.3484   -1.9272    0.0000 C   0  0  0  0  0  0  0  0  0  0  0  0
    5.2687   -0.7428    0.0000 C   0  0  0  0  0  0  0  0  0  0  0  0
    6.7547   -0.9476    0.0000 C   0  0  0  0  0  0  0  0  0  0  0  0
    7.3203   -2.3369    0.0000 O   0  0  0  0  0  0  0  0  0  0  0  0
    7.6751    0.2369    0.0000 C   0  0  0  0  0  0  0  0  0  0  0  0
    7.1095    1.6261    0.0000 C   0  0  0  0  0  0  0  0  0  0  0  0
    8.0298    2.8106    0.0000 C   0  0  0  0  0  0  0  0  0  0  0  0
    7.4642    4.1999    0.0000 C   0  0  0  0  0  0  0  0  0  0  0  0
    8.3846    5.3844    0.0000 O   0  0  0  0  0  0  0  0  0  0  0  0
    5.9783    4.4047    0.0000 C   0  0  0  0  0  0  0  0  0  0  0  0
    5.0579    3.2202    0.0000 C   0  0  0  0  0  0  0  0  0  0  0  0
    5.6235    1.8310    0.0000 C   0  0  0  0  0  0  0  0  0  0  0  0
    4.1375    2.0358    0.0000 C   0  0  0  0  0  0  0  0  0  0  0  0
    4.7031    0.6465    0.0000 C   0  0  0  0  0  0  0  0  0  0  0  0
    3.2172    0.8513    0.0000 C   0  0  0  0  0  0  0  0  0  0  0  0
    2.2968   -0.3331    0.0000 C   0  0  0  0  0  0  0  0  0  0  0  0
    2.8624   -1.7224    0.0000 C   0  0  0  0  0  0  0  0  0  0  0  0
    1.3632   -1.6741    0.0000 C   0  0  0  0  0  0  0  0  0  0  0  0
  2  1  1  6
  2  3  1  0
  3  4  1  0
  4  5  1  0
  5  6  2  0
  5  7  1  0
  7  8  1  0
  8  9  1  0
  9 10  1  0
 10 11  1  0
 11 12  2  0
 11 13  1  0
 13 14  1  0
 14 15  1  0
 15 16  2  0
 15 17  1  0
  2 18  1  0
 18 19  1  6
 19 20  1  0
 21 20  1  6
 21 22  1  0
 22 23  1  1
 23 24  1  6
 23 25  1  0
 26 25  1  1
 26 27  1  0
 27 28  1  0
 28 29  1  1
 28 30  1  0
 30 31  1  0
 31 32  1  0
 32 33  1  6
 32 34  1  0
 34 35  1  6
 35 36  1  0
 36 37  1  0
 37 38  1  6
 37 18  1  0
 37 21  1  0
 34 22  1  0
 32 26  1  0
M  END
>  <MS_ID>  (2184) 
MS2262

>  <SMILES>  (2184) 
C[C@H](CCC(=O)NCCCC(=O)NCC(=O)O)[C@H]1CC[C@H]2[C@@H]3[C@@H](O)C[C@@H]4C[C@H](O)CC[C@]4(C)[C@H]3CC[C@]12C

>  <Structure_dimension>  (2184) 
2D

$$$$
MS2263
     RDKit          2D

 28 31  0  0  0  0  0  0  0  0999 V2000
   -5.1275   -2.0302    0.0000 C   0  0  0  0  0  0  0  0  0  0  0  0
   -3.9468   -1.1050    0.0000 C   0  0  0  0  0  0  0  0  0  0  0  0
   -4.1576    0.3801    0.0000 C   0  0  0  0  0  0  0  0  0  0  0  0
   -5.5492    0.9401    0.0000 C   0  0  0  0  0  0  0  0  0  0  0  0
   -5.7600    2.4252    0.0000 C   0  0  0  0  0  0  0  0  0  0  0  0
   -4.5793    3.3503    0.0000 O   0  0  0  0  0  0  0  0  0  0  0  0
   -7.1516    2.9851    0.0000 O   0  0  0  0  0  0  0  0  0  0  0  0
   -2.5552   -1.6650    0.0000 C   0  0  0  0  0  0  0  0  0  0  0  0
   -2.1903   -3.1199    0.0000 C   0  0  0  0  0  0  0  0  0  0  0  0
   -0.6938   -3.2225    0.0000 C   0  0  0  0  0  0  0  0  0  0  0  0
   -0.1339   -1.8309    0.0000 C   0  0  0  0  0  0  0  0  0  0  0  0
    1.2750   -1.3159    0.0000 C   0  0  0  0  0  0  0  0  0  0  0  0
    2.4254   -2.2785    0.0000 C   0  0  0  0  0  0  0  0  0  0  0  0
    2.1670   -3.7560    0.0000 O   0  0  0  0  0  0  0  0  0  0  0  0
    3.8342   -1.7635    0.0000 C   0  0  0  0  0  0  0  0  0  0  0  0
    4.0926   -0.2859    0.0000 C   0  0  0  0  0  0  0  0  0  0  0  0
    5.5014    0.2291    0.0000 C   0  0  0  0  0  0  0  0  0  0  0  0
    5.7598    1.7067    0.0000 C   0  0  0  0  0  0  0  0  0  0  0  0
    7.1687    2.2217    0.0000 S   0  0  0  0  0  0  0  0  0  0  0  0
    4.6094    2.6692    0.0000 C   0  0  0  0  0  0  0  0  0  0  0  0
    3.2006    2.1542    0.0000 C   0  0  0  0  0  0  0  0  0  0  0  0
    2.9422    0.6767    0.0000 C   0  0  0  0  0  0  0  0  0  0  0  0
    1.7918    1.6392    0.0000 C   0  0  0  0  0  0  0  0  0  0  0  0
    1.5334    0.1617    0.0000 C   0  0  0  0  0  0  0  0  0  0  0  0
    0.3830    1.1242    0.0000 C   0  0  0  0  0  0  0  0  0  0  0  0
   -1.0259    0.6093    0.0000 C   0  0  0  0  0  0  0  0  0  0  0  0
   -1.2843   -0.8683    0.0000 C   0  0  0  0  0  0  0  0  0  0  0  0
   -2.5290   -0.0313    0.0000 C   0  0  0  0  0  0  0  0  0  0  0  0
  2  1  1  6
  2  3  1  0
  3  4  1  0
  4  5  1  0
  5  6  2  0
  5  7  1  0
  2  8  1  0
  8  9  1  6
  9 10  1  0
 11 10  1  6
 11 12  1  0
 12 13  1  1
 13 14  1  6
 13 15  1  0
 16 15  1  1
 16 17  1  0
 17 18  1  0
 18 19  1  6
 18 20  1  0
 20 21  1  0
 21 22  1  0
 22 23  1  6
 22 24  1  0
 24 25  1  6
 25 26  1  0
 26 27  1  0
 27 28  1  6
 27  8  1  0
 27 11  1  0
 24 12  1  0
 22 16  1  0
M  END
>  <MS_ID>  (2185) 
MS2263

>  <SMILES>  (2185) 
C[C@H](CCC(=O)O)[C@H]1CC[C@H]2[C@@H]3[C@@H](O)C[C@@H]4C[C@@H](S)CC[C@]4(C)[C@H]3CC[C@]12C

>  <Structure_dimension>  (2185) 
2D

$$$$
MS2264
     RDKit          2D

 34 38  0  0  0  0  0  0  0  0999 V2000
   -2.6599   -4.1335    0.0000 C   0  0  0  0  0  0  0  0  0  0  0  0
   -1.8847   -2.8494    0.0000 C   0  0  0  0  0  0  0  0  0  0  0  0
   -2.6091   -1.5360    0.0000 C   0  0  0  0  0  0  0  0  0  0  0  0
   -4.1089   -1.5067    0.0000 C   0  0  0  0  0  0  0  0  0  0  0  0
   -4.8333   -0.1932    0.0000 C   0  0  0  0  0  0  0  0  0  0  0  0
   -4.0581    1.0909    0.0000 O   0  0  0  0  0  0  0  0  0  0  0  0
   -6.3331   -0.1639    0.0000 C   0  0  0  0  0  0  0  0  0  0  0  0
   -7.0575    1.1495    0.0000 N   0  0  0  0  0  0  0  0  0  0  0  0
   -8.5460    1.3354    0.0000 C   0  0  0  0  0  0  0  0  0  0  0  0
   -8.8291    2.8085    0.0000 C   0  0  0  0  0  0  0  0  0  0  0  0
   -7.5157    3.5330    0.0000 C   0  0  0  0  0  0  0  0  0  0  0  0
   -6.4208    2.5077    0.0000 C   0  0  0  0  0  0  0  0  0  0  0  0
   -0.3850   -2.8787    0.0000 C   0  0  0  0  0  0  0  0  0  0  0  0
    0.4728   -4.1092    0.0000 C   0  0  0  0  0  0  0  0  0  0  0  0
    1.9082   -3.6737    0.0000 C   0  0  0  0  0  0  0  0  0  0  0  0
    1.9375   -2.1740    0.0000 C   0  0  0  0  0  0  0  0  0  0  0  0
    3.0716   -1.1922    0.0000 C   0  0  0  0  0  0  0  0  0  0  0  0
    4.4889   -1.6835    0.0000 C   0  0  0  0  0  0  0  0  0  0  0  0
    4.7720   -3.1566    0.0000 O   0  0  0  0  0  0  0  0  0  0  0  0
    5.6230   -0.7018    0.0000 C   0  0  0  0  0  0  0  0  0  0  0  0
    5.3399    0.7712    0.0000 C   0  0  0  0  0  0  0  0  0  0  0  0
    6.4740    1.7530    0.0000 C   0  0  0  0  0  0  0  0  0  0  0  0
    6.1908    3.2260    0.0000 C   0  0  0  0  0  0  0  0  0  0  0  0
    7.3249    4.2077    0.0000 O   0  0  0  0  0  0  0  0  0  0  0  0
    4.7736    3.7173    0.0000 C   0  0  0  0  0  0  0  0  0  0  0  0
    3.6395    2.7356    0.0000 C   0  0  0  0  0  0  0  0  0  0  0  0
    3.9226    1.2625    0.0000 C   0  0  0  0  0  0  0  0  0  0  0  0
    2.5053    1.7538    0.0000 C   0  0  0  0  0  0  0  0  0  0  0  0
    2.7885    0.2808    0.0000 C   0  0  0  0  0  0  0  0  0  0  0  0
    1.3712    0.7721    0.0000 C   0  0  0  0  0  0  0  0  0  0  0  0
    0.2371   -0.2096    0.0000 C   0  0  0  0  0  0  0  0  0  0  0  0
   -1.1801    0.2817    0.0000 O   0  0  0  0  0  0  0  0  0  0  0  0
    0.5203   -1.6826    0.0000 C   0  0  0  0  0  0  0  0  0  0  0  0
   -0.9406   -1.3422    0.0000 C   0  0  0  0  0  0  0  0  0  0  0  0
  2  1  1  6
  2  3  1  0
  3  4  1  0
  4  5  1  0
  5  6  2  0
  5  7  1  0
  7  8  1  0
  8  9  1  0
  9 10  2  0
 10 11  1  0
 11 12  2  0
  2 13  1  0
 13 14  1  6
 14 15  1  0
 16 15  1  6
 16 17  1  0
 17 18  1  1
 18 19  1  1
 18 20  1  0
 21 20  1  1
 21 22  1  0
 22 23  1  0
 23 24  1  1
 23 25  1  0
 25 26  1  0
 26 27  1  0
 27 28  1  6
 27 29  1  0
 29 30  1  6
 30 31  1  0
 31 32  1  1
 31 33  1  0
 33 34  1  6
 12  8  1  0
 33 13  1  0
 33 16  1  0
 29 17  1  0
 27 21  1  0
M  END
>  <MS_ID>  (2186) 
MS2264

>  <SMILES>  (2186) 
C[C@H](CCC(=O)Cn1cccc1)[C@H]1CC[C@H]2[C@@H]3[C@H](O)C[C@@H]4C[C@H](O)CC[C@]4(C)[C@H]3C[C@H](O)[C@]12C

>  <Structure_dimension>  (2186) 
2D

$$$$
MS2265
     RDKit          2D

 33 36  0  0  0  0  0  0  0  0999 V2000
   -8.6905    1.4878    0.0000 C   0  0  0  0  0  0  0  0  0  0  0  0
   -7.1926    1.4090    0.0000 C   0  0  0  0  0  0  0  0  0  0  0  0
   -6.5119    0.0724    0.0000 C   0  0  0  0  0  0  0  0  0  0  0  0
   -5.0139   -0.0064    0.0000 C   0  0  0  0  0  0  0  0  0  0  0  0
   -4.1967    1.2514    0.0000 O   0  0  0  0  0  0  0  0  0  0  0  0
   -4.3332   -1.3431    0.0000 C   0  0  0  0  0  0  0  0  0  0  0  0
   -2.8353   -1.4219    0.0000 C   0  0  0  0  0  0  0  0  0  0  0  0
   -2.1546   -2.7585    0.0000 C   0  0  0  0  0  0  0  0  0  0  0  0
   -2.9718   -4.0164    0.0000 C   0  0  0  0  0  0  0  0  0  0  0  0
   -0.6566   -2.8373    0.0000 C   0  0  0  0  0  0  0  0  0  0  0  0
    0.1601   -4.0955    0.0000 C   0  0  0  0  0  0  0  0  0  0  0  0
    1.6091   -3.7075    0.0000 C   0  0  0  0  0  0  0  0  0  0  0  0
    1.6878   -2.2096    0.0000 C   0  0  0  0  0  0  0  0  0  0  0  0
    2.8537   -1.2658    0.0000 C   0  0  0  0  0  0  0  0  0  0  0  0
    4.2540   -1.8037    0.0000 C   0  0  0  0  0  0  0  0  0  0  0  0
    4.4884   -3.2852    0.0000 O   0  0  0  0  0  0  0  0  0  0  0  0
    5.4199   -0.8599    0.0000 C   0  0  0  0  0  0  0  0  0  0  0  0
    5.1855    0.6217    0.0000 C   0  0  0  0  0  0  0  0  0  0  0  0
    6.3514    1.5654    0.0000 C   0  0  0  0  0  0  0  0  0  0  0  0
    6.1171    3.0470    0.0000 C   0  0  0  0  0  0  0  0  0  0  0  0
    7.2830    3.9908    0.0000 O   0  0  0  0  0  0  0  0  0  0  0  0
    4.7168    3.5848    0.0000 C   0  0  0  0  0  0  0  0  0  0  0  0
    3.5509    2.6411    0.0000 C   0  0  0  0  0  0  0  0  0  0  0  0
    3.7853    1.1595    0.0000 C   0  0  0  0  0  0  0  0  0  0  0  0
    2.3850    1.6973    0.0000 C   0  0  0  0  0  0  0  0  0  0  0  0
    2.6194    0.2157    0.0000 C   0  0  0  0  0  0  0  0  0  0  0  0
    1.2191    0.7536    0.0000 C   0  0  0  0  0  0  0  0  0  0  0  0
    0.0532   -0.1902    0.0000 C   0  0  0  0  0  0  0  0  0  0  0  0
    0.2876   -1.6718    0.0000 C   0  0  0  0  0  0  0  0  0  0  0  0
   -1.1612   -1.2833    0.0000 C   0  0  0  0  0  0  0  0  0  0  0  0
   -6.3754    2.6668    0.0000 C   0  0  0  0  0  0  0  0  0  0  0  0
   -4.8775    2.5881    0.0000 O   0  0  0  0  0  0  0  0  0  0  0  0
   -7.0561    4.0035    0.0000 O   0  0  0  0  0  0  0  0  0  0  0  0
  2  1  1  1
  2  3  1  0
  3  4  1  0
  4  5  2  0
  4  6  1  0
  6  7  1  0
  7  8  1  0
  8  9  1  6
  8 10  1  0
 10 11  1  6
 11 12  1  0
 13 12  1  6
 13 14  1  0
 14 15  1  1
 15 16  1  1
 15 17  1  0
 18 17  1  1
 18 19  1  0
 19 20  1  0
 20 21  1  1
 20 22  1  0
 22 23  1  0
 23 24  1  0
 24 25  1  6
 24 26  1  0
 26 27  1  6
 27 28  1  0
 28 29  1  0
 29 30  1  6
  2 31  1  0
 31 32  2  0
 31 33  1  0
 29 10  1  0
 29 13  1  0
 26 14  1  0
 24 18  1  0
M  END
>  <MS_ID>  (2187) 
MS2265

>  <SMILES>  (2187) 
C[C@H](CC(=O)CC[C@@H](C)[C@H]1CC[C@H]2[C@@H]3[C@H](O)C[C@@H]4C[C@H](O)CC[C@]4(C)[C@H]3CC[C@]12C)C(=O)O

>  <Structure_dimension>  (2187) 
2D

$$$$
MS2266
     RDKit          2D

 30 33  0  0  0  0  0  0  0  0999 V2000
   -5.8176   -1.7103    0.0000 C   0  0  0  0  0  0  0  0  0  0  0  0
   -4.5630   -0.8881    0.0000 C   0  0  0  0  0  0  0  0  0  0  0  0
   -4.6476    0.6095    0.0000 C   0  0  0  0  0  0  0  0  0  0  0  0
   -5.9869    1.2849    0.0000 C   0  0  0  0  0  0  0  0  0  0  0  0
   -6.0716    2.7826    0.0000 C   0  0  0  0  0  0  0  0  0  0  0  0
   -4.8170    3.6047    0.0000 O   0  0  0  0  0  0  0  0  0  0  0  0
   -7.4109    3.4580    0.0000 O   0  0  0  0  0  0  0  0  0  0  0  0
   -3.2237   -1.5636    0.0000 C   0  0  0  0  0  0  0  0  0  0  0  0
   -2.9829   -3.0442    0.0000 C   0  0  0  0  0  0  0  0  0  0  0  0
   -1.5004   -3.2727    0.0000 C   0  0  0  0  0  0  0  0  0  0  0  0
   -0.8249   -1.9334    0.0000 C   0  0  0  0  0  0  0  0  0  0  0  0
    0.6223   -1.5392    0.0000 C   0  0  0  0  0  0  0  0  0  0  0  0
    1.6874   -2.5955    0.0000 C   0  0  0  0  0  0  0  0  0  0  0  0
    1.3051   -4.0460    0.0000 O   0  0  0  0  0  0  0  0  0  0  0  0
    3.1346   -2.2013    0.0000 C   0  0  0  0  0  0  0  0  0  0  0  0
    3.5169   -0.7508    0.0000 C   0  0  0  0  0  0  0  0  0  0  0  0
    4.9642   -0.3567    0.0000 C   0  0  0  0  0  0  0  0  0  0  0  0
    5.3464    1.0938    0.0000 C   0  0  0  0  0  0  0  0  0  0  0  0
    6.7937    1.4880    0.0000 C   0  0  0  0  0  0  0  0  0  0  0  0
    7.1760    2.9385    0.0000 O   0  0  0  0  0  0  0  0  0  0  0  0
    7.8587    0.4317    0.0000 O   0  0  0  0  0  0  0  0  0  0  0  0
    4.2814    2.1501    0.0000 C   0  0  0  0  0  0  0  0  0  0  0  0
    2.8341    1.7559    0.0000 C   0  0  0  0  0  0  0  0  0  0  0  0
    2.4519    0.3054    0.0000 C   0  0  0  0  0  0  0  0  0  0  0  0
    1.3869    1.3617    0.0000 C   0  0  0  0  0  0  0  0  0  0  0  0
    1.0046   -0.0888    0.0000 C   0  0  0  0  0  0  0  0  0  0  0  0
   -0.0604    0.9675    0.0000 C   0  0  0  0  0  0  0  0  0  0  0  0
   -1.5077    0.5733    0.0000 C   0  0  0  0  0  0  0  0  0  0  0  0
   -1.8900   -0.8771    0.0000 C   0  0  0  0  0  0  0  0  0  0  0  0
   -3.0596    0.0620    0.0000 C   0  0  0  0  0  0  0  0  0  0  0  0
  2  1  1  6
  2  3  1  0
  3  4  1  0
  4  5  1  0
  5  6  2  0
  5  7  1  0
  2  8  1  0
  8  9  1  6
  9 10  1  0
 11 10  1  6
 11 12  1  0
 12 13  1  1
 13 14  1  1
 13 15  1  0
 16 15  1  1
 16 17  1  0
 17 18  1  0
 18 19  1  6
 19 20  2  0
 19 21  1  0
 18 22  1  0
 22 23  1  0
 23 24  1  0
 24 25  1  6
 24 26  1  0
 26 27  1  6
 27 28  1  0
 28 29  1  0
 29 30  1  6
 29  8  1  0
 29 11  1  0
 26 12  1  0
 24 16  1  0
M  END
>  <MS_ID>  (2188) 
MS2266

>  <SMILES>  (2188) 
C[C@H](CCC(=O)O)[C@H]1CC[C@H]2[C@@H]3[C@H](O)C[C@@H]4C[C@@H](C(=O)O)CC[C@]4(C)[C@H]3CC[C@]12C

>  <Structure_dimension>  (2188) 
2D

$$$$
MS2268
     RDKit          2D

 32 35  0  0  0  0  0  0  0  0999 V2000
   -4.1425   -3.4932    0.0000 C   0  0  0  0  0  0  0  0  0  0  0  0
   -3.5251   -2.1261    0.0000 C   0  0  0  0  0  0  0  0  0  0  0  0
   -4.4003   -0.9079    0.0000 C   0  0  0  0  0  0  0  0  0  0  0  0
   -5.8929   -1.0567    0.0000 C   0  0  0  0  0  0  0  0  0  0  0  0
   -6.7681    0.1615    0.0000 C   0  0  0  0  0  0  0  0  0  0  0  0
   -6.1506    1.5285    0.0000 O   0  0  0  0  0  0  0  0  0  0  0  0
   -8.2607    0.0127    0.0000 O   0  0  0  0  0  0  0  0  0  0  0  0
   -2.0325   -1.9773    0.0000 C   0  0  0  0  0  0  0  0  0  0  0  0
   -1.0348   -3.0974    0.0000 C   0  0  0  0  0  0  0  0  0  0  0  0
    0.3388   -2.4946    0.0000 C   0  0  0  0  0  0  0  0  0  0  0  0
    0.1900   -1.0020    0.0000 C   0  0  0  0  0  0  0  0  0  0  0  0
    1.1996    0.1074    0.0000 C   0  0  0  0  0  0  0  0  0  0  0  0
    2.6651   -0.2124    0.0000 C   0  0  0  0  0  0  0  0  0  0  0  0
    3.1210   -1.6414    0.0000 C   0  0  0  0  0  0  0  0  0  0  0  0
    4.5866   -1.9611    0.0000 C   0  0  0  0  0  0  0  0  0  0  0  0
    5.0425   -3.3901    0.0000 C   0  0  0  0  0  0  0  0  0  0  0  0
    6.5080   -3.7098    0.0000 C   0  0  0  0  0  0  0  0  0  0  0  0
    6.9639   -5.1389    0.0000 O   0  0  0  0  0  0  0  0  0  0  0  0
    3.6748    0.8970    0.0000 C   0  0  0  0  0  0  0  0  0  0  0  0
    3.2189    2.3260    0.0000 C   0  0  0  0  0  0  0  0  0  0  0  0
    4.2285    3.4354    0.0000 C   0  0  0  0  0  0  0  0  0  0  0  0
    3.7726    4.8644    0.0000 C   0  0  0  0  0  0  0  0  0  0  0  0
    2.3071    5.1841    0.0000 C   0  0  0  0  0  0  0  0  0  0  0  0
    1.2975    4.0748    0.0000 C   0  0  0  0  0  0  0  0  0  0  0  0
    1.7533    2.6457    0.0000 C   0  0  0  0  0  0  0  0  0  0  0  0
    0.2878    2.9654    0.0000 C   0  0  0  0  0  0  0  0  0  0  0  0
    0.7437    1.5364    0.0000 C   0  0  0  0  0  0  0  0  0  0  0  0
   -0.7218    1.8561    0.0000 C   0  0  0  0  0  0  0  0  0  0  0  0
   -1.7315    0.7468    0.0000 C   0  0  0  0  0  0  0  0  0  0  0  0
   -3.1970    1.0665    0.0000 O   0  0  0  0  0  0  0  0  0  0  0  0
   -1.2756   -0.6823    0.0000 C   0  0  0  0  0  0  0  0  0  0  0  0
   -2.7665   -0.5175    0.0000 C   0  0  0  0  0  0  0  0  0  0  0  0
  2  1  1  6
  2  3  1  0
  3  4  1  0
  4  5  1  0
  5  6  2  0
  5  7  1  0
  2  8  1  0
  8  9  1  6
  9 10  1  0
 11 10  1  6
 11 12  1  0
 12 13  1  1
 13 14  1  1
 14 15  1  0
 15 16  1  0
 16 17  1  0
 17 18  1  0
 13 19  1  0
 20 19  1  1
 20 21  1  0
 21 22  1  0
 22 23  1  0
 23 24  1  0
 24 25  1  0
 25 26  1  6
 25 27  1  0
 27 28  1  6
 28 29  1  0
 29 30  1  1
 29 31  1  0
 31 32  1  6
 31  8  1  0
 31 11  1  0
 27 12  1  0
 25 20  1  0
M  END
>  <MS_ID>  (2189) 
MS2268

>  <SMILES>  (2189) 
C[C@H](CCC(=O)O)[C@H]1CC[C@H]2[C@@H]3[C@H](CCCCO)C[C@@H]4CCCC[C@]4(C)[C@H]3C[C@H](O)[C@]12C

>  <Structure_dimension>  (2189) 
2D

$$$$
MS2269
     RDKit          2D

 26 29  0  0  0  0  0  0  0  0999 V2000
   -4.8912   -1.9462    0.0000 C   0  0  0  0  0  0  0  0  0  0  0  0
   -3.6965   -1.0392    0.0000 C   0  0  0  0  0  0  0  0  0  0  0  0
   -3.8846    0.4489    0.0000 C   0  0  0  0  0  0  0  0  0  0  0  0
   -5.2674    1.0301    0.0000 C   0  0  0  0  0  0  0  0  0  0  0  0
   -5.4555    2.5183    0.0000 C   0  0  0  0  0  0  0  0  0  0  0  0
   -6.8384    3.0994    0.0000 O   0  0  0  0  0  0  0  0  0  0  0  0
   -2.3136   -1.6204    0.0000 C   0  0  0  0  0  0  0  0  0  0  0  0
   -1.9710   -3.0808    0.0000 C   0  0  0  0  0  0  0  0  0  0  0  0
   -0.4763   -3.2062    0.0000 C   0  0  0  0  0  0  0  0  0  0  0  0
    0.1049   -1.8233    0.0000 C   0  0  0  0  0  0  0  0  0  0  0  0
    1.5214   -1.3299    0.0000 C   0  0  0  0  0  0  0  0  0  0  0  0
    2.6570   -2.3100    0.0000 C   0  0  0  0  0  0  0  0  0  0  0  0
    4.0735   -1.8166    0.0000 C   0  0  0  0  0  0  0  0  0  0  0  0
    4.3545   -0.3431    0.0000 C   0  0  0  0  0  0  0  0  0  0  0  0
    5.7710    0.1503    0.0000 C   0  0  0  0  0  0  0  0  0  0  0  0
    6.0520    1.6237    0.0000 C   0  0  0  0  0  0  0  0  0  0  0  0
    4.9164    2.6038    0.0000 C   0  0  0  0  0  0  0  0  0  0  0  0
    3.4999    2.1104    0.0000 C   0  0  0  0  0  0  0  0  0  0  0  0
    3.2189    0.6369    0.0000 C   0  0  0  0  0  0  0  0  0  0  0  0
    2.0834    1.6170    0.0000 C   0  0  0  0  0  0  0  0  0  0  0  0
    1.8024    0.1435    0.0000 C   0  0  0  0  0  0  0  0  0  0  0  0
    0.6669    1.1236    0.0000 C   0  0  0  0  0  0  0  0  0  0  0  0
   -0.7497    0.6302    0.0000 C   0  0  0  0  0  0  0  0  0  0  0  0
   -1.8852    1.6102    0.0000 O   0  0  0  0  0  0  0  0  0  0  0  0
   -1.0306   -0.8433    0.0000 C   0  0  0  0  0  0  0  0  0  0  0  0
   -2.2624    0.0127    0.0000 C   0  0  0  0  0  0  0  0  0  0  0  0
  2  1  1  6
  2  3  1  0
  3  4  1  0
  4  5  1  0
  5  6  2  0
  2  7  1  0
  7  8  1  6
  8  9  1  0
 10  9  1  6
 10 11  1  0
 11 12  1  1
 12 13  1  0
 14 13  1  1
 14 15  1  0
 15 16  1  0
 16 17  1  0
 17 18  1  0
 18 19  1  0
 19 20  1  6
 19 21  1  0
 21 22  1  6
 22 23  1  0
 23 24  1  6
 23 25  1  0
 25 26  1  6
 25  7  1  0
 25 10  1  0
 21 11  1  0
 19 14  1  0
M  END
>  <MS_ID>  (2190) 
MS2269

>  <SMILES>  (2190) 
C[C@H](CCC=O)[C@H]1CC[C@H]2[C@@H]3CC[C@@H]4CCCC[C@]4(C)[C@H]3C[C@@H](O)[C@]12C

>  <Structure_dimension>  (2190) 
2D

$$$$
MS2270
     RDKit          2D

 34 37  0  0  0  0  0  0  0  0999 V2000
   -2.7979   -3.8729    0.0000 C   0  0  0  0  0  0  0  0  0  0  0  0
   -1.9583   -2.6299    0.0000 C   0  0  0  0  0  0  0  0  0  0  0  0
   -2.6148   -1.2813    0.0000 C   0  0  0  0  0  0  0  0  0  0  0  0
   -4.1111   -1.1756    0.0000 C   0  0  0  0  0  0  0  0  0  0  0  0
   -4.7677    0.1731    0.0000 C   0  0  0  0  0  0  0  0  0  0  0  0
   -3.9280    1.4161    0.0000 O   0  0  0  0  0  0  0  0  0  0  0  0
   -6.2640    0.2788    0.0000 C   0  0  0  0  0  0  0  0  0  0  0  0
   -6.9206    1.6275    0.0000 C   0  0  0  0  0  0  0  0  0  0  0  0
   -6.0809    2.8704    0.0000 O   0  0  0  0  0  0  0  0  0  0  0  0
   -8.4168    1.7332    0.0000 C   0  0  0  0  0  0  0  0  0  0  0  0
   -9.2565    0.4902    0.0000 O   0  0  0  0  0  0  0  0  0  0  0  0
   -9.0734    3.0818    0.0000 O   0  0  0  0  0  0  0  0  0  0  0  0
   -0.4620   -2.7356    0.0000 C   0  0  0  0  0  0  0  0  0  0  0  0
    0.3320   -4.0083    0.0000 C   0  0  0  0  0  0  0  0  0  0  0  0
    1.7877   -3.6464    0.0000 C   0  0  0  0  0  0  0  0  0  0  0  0
    1.8934   -2.1502    0.0000 C   0  0  0  0  0  0  0  0  0  0  0  0
    3.0761   -1.2275    0.0000 C   0  0  0  0  0  0  0  0  0  0  0  0
    4.4664   -1.7904    0.0000 C   0  0  0  0  0  0  0  0  0  0  0  0
    4.6741   -3.2760    0.0000 O   0  0  0  0  0  0  0  0  0  0  0  0
    5.6491   -0.8678    0.0000 C   0  0  0  0  0  0  0  0  0  0  0  0
    5.4414    0.6178    0.0000 C   0  0  0  0  0  0  0  0  0  0  0  0
    6.6241    1.5404    0.0000 C   0  0  0  0  0  0  0  0  0  0  0  0
    6.4164    3.0260    0.0000 C   0  0  0  0  0  0  0  0  0  0  0  0
    7.5991    3.9486    0.0000 O   0  0  0  0  0  0  0  0  0  0  0  0
    5.0260    3.5889    0.0000 C   0  0  0  0  0  0  0  0  0  0  0  0
    3.8434    2.6662    0.0000 C   0  0  0  0  0  0  0  0  0  0  0  0
    4.0511    1.1807    0.0000 C   0  0  0  0  0  0  0  0  0  0  0  0
    2.6607    1.7436    0.0000 C   0  0  0  0  0  0  0  0  0  0  0  0
    2.8684    0.2580    0.0000 C   0  0  0  0  0  0  0  0  0  0  0  0
    1.4780    0.8209    0.0000 C   0  0  0  0  0  0  0  0  0  0  0  0
    0.2953   -0.1017    0.0000 C   0  0  0  0  0  0  0  0  0  0  0  0
   -1.0950    0.4612    0.0000 O   0  0  0  0  0  0  0  0  0  0  0  0
    0.5030   -1.5873    0.0000 C   0  0  0  0  0  0  0  0  0  0  0  0
   -0.9386   -1.1728    0.0000 C   0  0  0  0  0  0  0  0  0  0  0  0
  2  1  1  6
  2  3  1  0
  3  4  1  0
  4  5  1  0
  5  6  2  0
  5  7  1  0
  7  8  1  0
  8  9  2  0
  8 10  1  0
 10 11  2  0
 10 12  1  0
  2 13  1  0
 13 14  1  6
 14 15  1  0
 16 15  1  6
 16 17  1  0
 17 18  1  1
 18 19  1  1
 18 20  1  0
 21 20  1  1
 21 22  1  0
 22 23  1  0
 23 24  1  1
 23 25  1  0
 25 26  1  0
 26 27  1  0
 27 28  1  6
 27 29  1  0
 29 30  1  6
 30 31  1  0
 31 32  1  1
 31 33  1  0
 33 34  1  6
 33 13  1  0
 33 16  1  0
 29 17  1  0
 27 21  1  0
M  END
>  <MS_ID>  (2191) 
MS2270

>  <SMILES>  (2191) 
C[C@H](CCC(=O)CC(=O)C(=O)O)[C@H]1CC[C@H]2[C@@H]3[C@H](O)C[C@@H]4C[C@H](O)CC[C@]4(C)[C@H]3C[C@H](O)[C@]12C

>  <Structure_dimension>  (2191) 
2D

$$$$
MS2271
     RDKit          2D

 30 33  0  0  0  0  0  0  0  0999 V2000
   -4.3937   -2.5998    0.0000 C   0  0  0  0  0  0  0  0  0  0  0  0
   -3.3118   -1.5608    0.0000 C   0  0  0  0  0  0  0  0  0  0  0  0
   -3.6708   -0.1044    0.0000 C   0  0  0  0  0  0  0  0  0  0  0  0
   -5.1115    0.3130    0.0000 C   0  0  0  0  0  0  0  0  0  0  0  0
   -5.4705    1.7694    0.0000 C   0  0  0  0  0  0  0  0  0  0  0  0
   -4.3887    2.8085    0.0000 O   0  0  0  0  0  0  0  0  0  0  0  0
   -6.9113    2.1868    0.0000 O   0  0  0  0  0  0  0  0  0  0  0  0
   -1.8711   -1.9781    0.0000 C   0  0  0  0  0  0  0  0  0  0  0  0
   -1.3619   -3.3891    0.0000 C   0  0  0  0  0  0  0  0  0  0  0  0
    0.1374   -3.3408    0.0000 C   0  0  0  0  0  0  0  0  0  0  0  0
    0.5547   -1.9000    0.0000 C   0  0  0  0  0  0  0  0  0  0  0  0
    1.9047   -1.2461    0.0000 C   0  0  0  0  0  0  0  0  0  0  0  0
    3.1460   -2.0882    0.0000 C   0  0  0  0  0  0  0  0  0  0  0  0
    3.0373   -3.5843    0.0000 O   0  0  0  0  0  0  0  0  0  0  0  0
    4.4959   -1.4343    0.0000 C   0  0  0  0  0  0  0  0  0  0  0  0
    4.6046    0.0617    0.0000 C   0  0  0  0  0  0  0  0  0  0  0  0
    5.9546    0.7156    0.0000 C   0  0  0  0  0  0  0  0  0  0  0  0
    6.0633    2.2117    0.0000 C   0  0  0  0  0  0  0  0  0  0  0  0
    4.8220    3.0538    0.0000 C   0  0  0  0  0  0  0  0  0  0  0  0
    3.4720    2.3999    0.0000 C   0  0  0  0  0  0  0  0  0  0  0  0
    3.3633    0.9039    0.0000 C   0  0  0  0  0  0  0  0  0  0  0  0
    2.1221    1.7460    0.0000 C   0  0  0  0  0  0  0  0  0  0  0  0
    2.0134    0.2500    0.0000 C   0  0  0  0  0  0  0  0  0  0  0  0
    0.7721    1.0921    0.0000 C   0  0  0  0  0  0  0  0  0  0  0  0
   -0.5779    0.4382    0.0000 C   0  0  0  0  0  0  0  0  0  0  0  0
   -1.8192    1.2804    0.0000 C   0  0  0  0  0  0  0  0  0  0  0  0
   -3.1691    0.6265    0.0000 O   0  0  0  0  0  0  0  0  0  0  0  0
   -1.7105    2.7764    0.0000 O   0  0  0  0  0  0  0  0  0  0  0  0
   -0.6866   -1.0578    0.0000 C   0  0  0  0  0  0  0  0  0  0  0  0
   -2.0091   -0.3501    0.0000 C   0  0  0  0  0  0  0  0  0  0  0  0
  2  1  1  6
  2  3  1  0
  3  4  1  0
  4  5  1  0
  5  6  2  0
  5  7  1  0
  2  8  1  0
  8  9  1  6
  9 10  1  0
 11 10  1  6
 11 12  1  0
 12 13  1  1
 13 14  1  6
 13 15  1  0
 16 15  1  1
 16 17  1  0
 17 18  1  0
 18 19  1  0
 19 20  1  0
 20 21  1  0
 21 22  1  6
 21 23  1  0
 23 24  1  6
 24 25  1  0
 25 26  1  1
 26 27  2  0
 26 28  1  0
 25 29  1  0
 29 30  1  6
 29  8  1  0
 29 11  1  0
 23 12  1  0
 21 16  1  0
M  END
>  <MS_ID>  (2192) 
MS2271

>  <SMILES>  (2192) 
C[C@H](CCC(=O)O)[C@H]1CC[C@H]2[C@@H]3[C@@H](O)C[C@@H]4CCCC[C@]4(C)[C@H]3C[C@H](C(=O)O)[C@]12C

>  <Structure_dimension>  (2192) 
2D

$$$$
MS2272
     RDKit          2D

 33 36  0  0  0  0  0  0  0  0999 V2000
   -3.4872   -3.6667    0.0000 C   0  0  0  0  0  0  0  0  0  0  0  0
   -2.6153   -2.4461    0.0000 C   0  0  0  0  0  0  0  0  0  0  0  0
   -3.2364   -1.0808    0.0000 C   0  0  0  0  0  0  0  0  0  0  0  0
   -4.7294   -0.9360    0.0000 C   0  0  0  0  0  0  0  0  0  0  0  0
   -5.3505    0.4294    0.0000 C   0  0  0  0  0  0  0  0  0  0  0  0
   -4.4787    1.6500    0.0000 O   0  0  0  0  0  0  0  0  0  0  0  0
   -6.8435    0.5742    0.0000 C   0  0  0  0  0  0  0  0  0  0  0  0
   -7.4647    1.9396    0.0000 C   0  0  0  0  0  0  0  0  0  0  0  0
   -6.0993    2.5607    0.0000 C   0  0  0  0  0  0  0  0  0  0  0  0
   -8.8300    1.3184    0.0000 C   0  0  0  0  0  0  0  0  0  0  0  0
   -8.0858    3.3049    0.0000 O   0  0  0  0  0  0  0  0  0  0  0  0
   -1.1223   -2.5909    0.0000 C   0  0  0  0  0  0  0  0  0  0  0  0
   -0.3619   -3.8839    0.0000 C   0  0  0  0  0  0  0  0  0  0  0  0
    1.1027   -3.5602    0.0000 C   0  0  0  0  0  0  0  0  0  0  0  0
    1.2475   -2.0672    0.0000 C   0  0  0  0  0  0  0  0  0  0  0  0
    2.4539   -1.1758    0.0000 C   0  0  0  0  0  0  0  0  0  0  0  0
    3.8291   -1.7749    0.0000 C   0  0  0  0  0  0  0  0  0  0  0  0
    3.9979   -3.2654    0.0000 O   0  0  0  0  0  0  0  0  0  0  0  0
    5.0355   -0.8835    0.0000 C   0  0  0  0  0  0  0  0  0  0  0  0
    6.4107   -1.4825    0.0000 O   0  0  0  0  0  0  0  0  0  0  0  0
    4.8667    0.6070    0.0000 C   0  0  0  0  0  0  0  0  0  0  0  0
    6.0731    1.4984    0.0000 C   0  0  0  0  0  0  0  0  0  0  0  0
    5.9043    2.9889    0.0000 C   0  0  0  0  0  0  0  0  0  0  0  0
    7.1107    3.8803    0.0000 O   0  0  0  0  0  0  0  0  0  0  0  0
    4.5291    3.5880    0.0000 C   0  0  0  0  0  0  0  0  0  0  0  0
    3.3228    2.6965    0.0000 C   0  0  0  0  0  0  0  0  0  0  0  0
    3.4915    1.2061    0.0000 C   0  0  0  0  0  0  0  0  0  0  0  0
    2.1164    1.8051    0.0000 C   0  0  0  0  0  0  0  0  0  0  0  0
    2.2851    0.3147    0.0000 C   0  0  0  0  0  0  0  0  0  0  0  0
    0.9100    0.9137    0.0000 C   0  0  0  0  0  0  0  0  0  0  0  0
   -0.2964    0.0223    0.0000 C   0  0  0  0  0  0  0  0  0  0  0  0
   -0.1276   -1.4682    0.0000 C   0  0  0  0  0  0  0  0  0  0  0  0
   -1.5579   -1.0161    0.0000 C   0  0  0  0  0  0  0  0  0  0  0  0
  2  1  1  6
  2  3  1  0
  3  4  1  0
  4  5  1  0
  5  6  2  0
  5  7  1  0
  7  8  1  0
  8  9  1  0
  8 10  1  0
  8 11  1  0
  2 12  1  0
 12 13  1  6
 13 14  1  0
 15 14  1  6
 15 16  1  0
 16 17  1  1
 17 18  1  1
 17 19  1  0
 19 20  1  1
 19 21  1  0
 21 22  1  1
 22 23  1  0
 23 24  1  1
 23 25  1  0
 25 26  1  0
 26 27  1  0
 27 28  1  6
 27 29  1  0
 29 30  1  6
 30 31  1  0
 31 32  1  0
 32 33  1  6
 32 12  1  0
 32 15  1  0
 29 16  1  0
 27 21  1  0
M  END
>  <MS_ID>  (2193) 
MS2272

>  <SMILES>  (2193) 
C[C@H](CCC(=O)CC(C)(C)O)[C@H]1CC[C@H]2[C@@H]3[C@H](O)[C@H](O)[C@@H]4C[C@H](O)CC[C@]4(C)[C@H]3CC[C@]12C

>  <Structure_dimension>  (2193) 
2D

$$$$
MS2273
     RDKit          2D

 29 32  0  0  0  0  0  0  0  0999 V2000
   -3.8092   -2.9362    0.0000 C   0  0  0  0  0  0  0  0  0  0  0  0
   -2.7727   -1.8520    0.0000 C   0  0  0  0  0  0  0  0  0  0  0  0
   -3.1933   -0.4122    0.0000 C   0  0  0  0  0  0  0  0  0  0  0  0
   -4.6506   -0.0566    0.0000 C   0  0  0  0  0  0  0  0  0  0  0  0
   -5.0712    1.3832    0.0000 C   0  0  0  0  0  0  0  0  0  0  0  0
   -4.0346    2.4674    0.0000 O   0  0  0  0  0  0  0  0  0  0  0  0
   -6.5285    1.7388    0.0000 N   0  0  0  0  0  0  0  0  0  0  0  0
   -6.9491    3.1786    0.0000 C   0  0  0  0  0  0  0  0  0  0  0  0
   -7.5650    0.6546    0.0000 C   0  0  0  0  0  0  0  0  0  0  0  0
   -1.3154   -2.2076    0.0000 C   0  0  0  0  0  0  0  0  0  0  0  0
   -0.7466   -3.5956    0.0000 C   0  0  0  0  0  0  0  0  0  0  0  0
    0.7492   -3.4835    0.0000 C   0  0  0  0  0  0  0  0  0  0  0  0
    1.1048   -2.0262    0.0000 C   0  0  0  0  0  0  0  0  0  0  0  0
    2.4257   -1.3154    0.0000 C   0  0  0  0  0  0  0  0  0  0  0  0
    3.7017   -2.1039    0.0000 C   0  0  0  0  0  0  0  0  0  0  0  0
    5.0226   -1.3931    0.0000 C   0  0  0  0  0  0  0  0  0  0  0  0
    5.0675    0.1062    0.0000 C   0  0  0  0  0  0  0  0  0  0  0  0
    6.3884    0.8170    0.0000 C   0  0  0  0  0  0  0  0  0  0  0  0
    6.4332    2.3164    0.0000 C   0  0  0  0  0  0  0  0  0  0  0  0
    5.1572    3.1049    0.0000 C   0  0  0  0  0  0  0  0  0  0  0  0
    3.8363    2.3941    0.0000 C   0  0  0  0  0  0  0  0  0  0  0  0
    3.7915    0.8947    0.0000 C   0  0  0  0  0  0  0  0  0  0  0  0
    2.5154    1.6832    0.0000 C   0  0  0  0  0  0  0  0  0  0  0  0
    2.4706    0.1839    0.0000 C   0  0  0  0  0  0  0  0  0  0  0  0
    1.1945    0.9724    0.0000 C   0  0  0  0  0  0  0  0  0  0  0  0
   -0.1263    0.2616    0.0000 C   0  0  0  0  0  0  0  0  0  0  0  0
   -1.4024    1.0501    0.0000 O   0  0  0  0  0  0  0  0  0  0  0  0
   -0.1712   -1.2377    0.0000 C   0  0  0  0  0  0  0  0  0  0  0  0
   -1.5227   -0.5869    0.0000 C   0  0  0  0  0  0  0  0  0  0  0  0
  2  1  1  6
  2  3  1  0
  3  4  1  0
  4  5  1  0
  5  6  2  0
  5  7  1  0
  7  8  1  0
  7  9  1  0
  2 10  1  0
 10 11  1  6
 11 12  1  0
 13 12  1  6
 13 14  1  0
 14 15  1  1
 15 16  1  0
 17 16  1  1
 17 18  1  0
 18 19  1  0
 19 20  1  0
 20 21  1  0
 21 22  1  0
 22 23  1  6
 22 24  1  0
 24 25  1  6
 25 26  1  0
 26 27  1  6
 26 28  1  0
 28 29  1  6
 28 10  1  0
 28 13  1  0
 24 14  1  0
 22 17  1  0
M  END
>  <MS_ID>  (2194) 
MS2273

>  <SMILES>  (2194) 
C[C@H](CCC(=O)N(C)C)[C@H]1CC[C@H]2[C@@H]3CC[C@@H]4CCCC[C@]4(C)[C@H]3C[C@@H](O)[C@]12C

>  <Structure_dimension>  (2194) 
2D

$$$$
MS2274
     RDKit          2D

 32 36  0  0  0  0  0  0  0  0999 V2000
   -3.4960   -3.2106    0.0000 C   0  0  0  0  0  0  0  0  0  0  0  0
   -2.5154   -2.0755    0.0000 C   0  0  0  0  0  0  0  0  0  0  0  0
   -3.0082   -0.6588    0.0000 C   0  0  0  0  0  0  0  0  0  0  0  0
   -4.4815   -0.3771    0.0000 C   0  0  0  0  0  0  0  0  0  0  0  0
   -4.9742    1.0397    0.0000 C   0  0  0  0  0  0  0  0  0  0  0  0
   -3.9936    2.1748    0.0000 O   0  0  0  0  0  0  0  0  0  0  0  0
   -6.4475    1.3214    0.0000 C   0  0  0  0  0  0  0  0  0  0  0  0
   -7.5414    0.2950    0.0000 C   0  0  0  0  0  0  0  0  0  0  0  0
   -8.8556    1.0181    0.0000 C   0  0  0  0  0  0  0  0  0  0  0  0
   -8.5739    2.4915    0.0000 C   0  0  0  0  0  0  0  0  0  0  0  0
   -7.0856    2.6789    0.0000 O   0  0  0  0  0  0  0  0  0  0  0  0
   -1.0421   -2.3572    0.0000 C   0  0  0  0  0  0  0  0  0  0  0  0
   -0.4040   -3.7147    0.0000 C   0  0  0  0  0  0  0  0  0  0  0  0
    1.0842   -3.5273    0.0000 C   0  0  0  0  0  0  0  0  0  0  0  0
    1.3659   -2.0540    0.0000 C   0  0  0  0  0  0  0  0  0  0  0  0
    2.6493   -1.2775    0.0000 C   0  0  0  0  0  0  0  0  0  0  0  0
    3.9634   -2.0006    0.0000 C   0  0  0  0  0  0  0  0  0  0  0  0
    3.9942   -3.5003    0.0000 O   0  0  0  0  0  0  0  0  0  0  0  0
    5.2468   -1.2241    0.0000 C   0  0  0  0  0  0  0  0  0  0  0  0
    5.2160    0.2756    0.0000 C   0  0  0  0  0  0  0  0  0  0  0  0
    6.4994    1.0521    0.0000 C   0  0  0  0  0  0  0  0  0  0  0  0
    6.4685    2.5518    0.0000 C   0  0  0  0  0  0  0  0  0  0  0  0
    7.7519    3.3283    0.0000 O   0  0  0  0  0  0  0  0  0  0  0  0
    5.1544    3.2749    0.0000 C   0  0  0  0  0  0  0  0  0  0  0  0
    3.8710    2.4984    0.0000 C   0  0  0  0  0  0  0  0  0  0  0  0
    3.9018    0.9987    0.0000 C   0  0  0  0  0  0  0  0  0  0  0  0
    2.5877    1.7219    0.0000 C   0  0  0  0  0  0  0  0  0  0  0  0
    2.6185    0.2222    0.0000 C   0  0  0  0  0  0  0  0  0  0  0  0
    1.3043    0.9454    0.0000 C   0  0  0  0  0  0  0  0  0  0  0  0
    0.0209    0.1689    0.0000 C   0  0  0  0  0  0  0  0  0  0  0  0
    0.0517   -1.3308    0.0000 C   0  0  0  0  0  0  0  0  0  0  0  0
   -1.3308   -0.7490    0.0000 C   0  0  0  0  0  0  0  0  0  0  0  0
  2  1  1  6
  2  3  1  0
  3  4  1  0
  4  5  1  0
  5  6  2  0
  5  7  1  0
  7  8  2  0
  8  9  1  0
  9 10  2  0
 10 11  1  0
  2 12  1  0
 12 13  1  6
 13 14  1  0
 15 14  1  6
 15 16  1  0
 16 17  1  1
 17 18  1  6
 17 19  1  0
 20 19  1  1
 20 21  1  0
 21 22  1  0
 22 23  1  1
 22 24  1  0
 24 25  1  0
 25 26  1  0
 26 27  1  6
 26 28  1  0
 28 29  1  6
 29 30  1  0
 30 31  1  0
 31 32  1  6
 11  7  1  0
 31 12  1  0
 31 15  1  0
 28 16  1  0
 26 20  1  0
M  END
>  <MS_ID>  (2195) 
MS2274

>  <SMILES>  (2195) 
C[C@H](CCC(=O)c1ccco1)[C@H]1CC[C@H]2[C@@H]3[C@@H](O)C[C@@H]4C[C@H](O)CC[C@]4(C)[C@H]3CC[C@]12C

>  <Structure_dimension>  (2195) 
2D

$$$$
MS2275
     RDKit          2D

 35 38  0  0  0  0  0  0  0  0999 V2000
   -4.7811   -3.1726    0.0000 C   0  0  0  0  0  0  0  0  0  0  0  0
   -4.0517   -1.8619    0.0000 C   0  0  0  0  0  0  0  0  0  0  0  0
   -4.8220   -0.5748    0.0000 C   0  0  0  0  0  0  0  0  0  0  0  0
   -6.3218   -0.5984    0.0000 C   0  0  0  0  0  0  0  0  0  0  0  0
   -7.0922    0.6887    0.0000 C   0  0  0  0  0  0  0  0  0  0  0  0
   -6.3627    1.9993    0.0000 O   0  0  0  0  0  0  0  0  0  0  0  0
   -8.5920    0.6651    0.0000 O   0  0  0  0  0  0  0  0  0  0  0  0
   -2.5518   -1.8383    0.0000 C   0  0  0  0  0  0  0  0  0  0  0  0
   -1.6512   -3.0378    0.0000 C   0  0  0  0  0  0  0  0  0  0  0  0
   -0.2321   -2.5519    0.0000 C   0  0  0  0  0  0  0  0  0  0  0  0
   -0.2557   -1.0521    0.0000 C   0  0  0  0  0  0  0  0  0  0  0  0
    0.8431   -0.0309    0.0000 C   0  0  0  0  0  0  0  0  0  0  0  0
    2.2768   -0.4720    0.0000 C   0  0  0  0  0  0  0  0  0  0  0  0
    2.6117   -1.9341    0.0000 O   0  0  0  0  0  0  0  0  0  0  0  0
    4.0454   -2.3751    0.0000 C   0  0  0  0  0  0  0  0  0  0  0  0
    5.1442   -1.3540    0.0000 O   0  0  0  0  0  0  0  0  0  0  0  0
    4.3803   -3.8373    0.0000 C   0  0  0  0  0  0  0  0  0  0  0  0
    5.8425   -3.5023    0.0000 C   0  0  0  0  0  0  0  0  0  0  0  0
    2.9182   -4.1722    0.0000 C   0  0  0  0  0  0  0  0  0  0  0  0
    4.7153   -5.2994    0.0000 C   0  0  0  0  0  0  0  0  0  0  0  0
    3.3756    0.5491    0.0000 C   0  0  0  0  0  0  0  0  0  0  0  0
    3.0407    2.0113    0.0000 C   0  0  0  0  0  0  0  0  0  0  0  0
    4.1395    3.0324    0.0000 C   0  0  0  0  0  0  0  0  0  0  0  0
    3.8046    4.4945    0.0000 C   0  0  0  0  0  0  0  0  0  0  0  0
    4.9033    5.5156    0.0000 O   0  0  0  0  0  0  0  0  0  0  0  0
    2.3709    4.9355    0.0000 C   0  0  0  0  0  0  0  0  0  0  0  0
    1.2721    3.9144    0.0000 C   0  0  0  0  0  0  0  0  0  0  0  0
    1.6070    2.4523    0.0000 C   0  0  0  0  0  0  0  0  0  0  0  0
    0.1733    2.8933    0.0000 C   0  0  0  0  0  0  0  0  0  0  0  0
    0.5082    1.4312    0.0000 C   0  0  0  0  0  0  0  0  0  0  0  0
   -0.9255    1.8722    0.0000 C   0  0  0  0  0  0  0  0  0  0  0  0
   -2.0243    0.8511    0.0000 C   0  0  0  0  0  0  0  0  0  0  0  0
   -3.4580    1.2921    0.0000 O   0  0  0  0  0  0  0  0  0  0  0  0
   -1.6894   -0.6110    0.0000 C   0  0  0  0  0  0  0  0  0  0  0  0
   -3.1613   -0.3223    0.0000 C   0  0  0  0  0  0  0  0  0  0  0  0
  2  1  1  6
  2  3  1  0
  3  4  1  0
  4  5  1  0
  5  6  2  0
  5  7  1  0
  2  8  1  0
  8  9  1  6
  9 10  1  0
 11 10  1  6
 11 12  1  0
 12 13  1  1
 13 14  1  1
 14 15  1  0
 15 16  2  0
 15 17  1  0
 17 18  1  0
 17 19  1  0
 17 20  1  0
 13 21  1  0
 22 21  1  1
 22 23  1  0
 23 24  1  0
 24 25  1  1
 24 26  1  0
 26 27  1  0
 27 28  1  0
 28 29  1  6
 28 30  1  0
 30 31  1  6
 31 32  1  0
 32 33  1  1
 32 34  1  0
 34 35  1  6
 34  8  1  0
 34 11  1  0
 30 12  1  0
 28 22  1  0
M  END
>  <MS_ID>  (2196) 
MS2275

>  <SMILES>  (2196) 
C[C@H](CCC(=O)O)[C@H]1CC[C@H]2[C@@H]3[C@H](OC(=O)C(C)(C)C)C[C@@H]4C[C@H](O)CC[C@]4(C)[C@H]3C[C@H](O)[C@]12C

>  <Structure_dimension>  (2196) 
2D

$$$$
MS2276
     RDKit          2D

 33 36  0  0  0  0  0  0  0  0999 V2000
   -2.8647   -3.6816    0.0000 C   0  0  0  0  0  0  0  0  0  0  0  0
   -1.9478   -2.4944    0.0000 C   0  0  0  0  0  0  0  0  0  0  0  0
   -2.5175   -1.1068    0.0000 C   0  0  0  0  0  0  0  0  0  0  0  0
   -4.0041   -0.9064    0.0000 C   0  0  0  0  0  0  0  0  0  0  0  0
   -4.5738    0.4812    0.0000 C   0  0  0  0  0  0  0  0  0  0  0  0
   -3.6569    1.6684    0.0000 O   0  0  0  0  0  0  0  0  0  0  0  0
   -6.0603    0.6816    0.0000 C   0  0  0  0  0  0  0  0  0  0  0  0
   -6.9772   -0.5056    0.0000 O   0  0  0  0  0  0  0  0  0  0  0  0
   -6.6300    2.0692    0.0000 C   0  0  0  0  0  0  0  0  0  0  0  0
   -8.1166    2.2696    0.0000 C   0  0  0  0  0  0  0  0  0  0  0  0
   -9.0334    1.0825    0.0000 O   0  0  0  0  0  0  0  0  0  0  0  0
   -8.6863    3.6572    0.0000 O   0  0  0  0  0  0  0  0  0  0  0  0
   -0.4613   -2.6949    0.0000 C   0  0  0  0  0  0  0  0  0  0  0  0
    0.2504   -4.0153    0.0000 C   0  0  0  0  0  0  0  0  0  0  0  0
    1.7261   -3.7466    0.0000 C   0  0  0  0  0  0  0  0  0  0  0  0
    1.9265   -2.2600    0.0000 C   0  0  0  0  0  0  0  0  0  0  0  0
    3.1654   -1.4143    0.0000 C   0  0  0  0  0  0  0  0  0  0  0  0
    4.5172   -2.0642    0.0000 C   0  0  0  0  0  0  0  0  0  0  0  0
    5.7560   -1.2185    0.0000 C   0  0  0  0  0  0  0  0  0  0  0  0
    5.6430    0.2772    0.0000 C   0  0  0  0  0  0  0  0  0  0  0  0
    6.8818    1.1230    0.0000 C   0  0  0  0  0  0  0  0  0  0  0  0
    6.7688    2.6187    0.0000 C   0  0  0  0  0  0  0  0  0  0  0  0
    8.0077    3.4645    0.0000 O   0  0  0  0  0  0  0  0  0  0  0  0
    5.4170    3.2687    0.0000 C   0  0  0  0  0  0  0  0  0  0  0  0
    4.1781    2.4230    0.0000 C   0  0  0  0  0  0  0  0  0  0  0  0
    4.2912    0.9272    0.0000 C   0  0  0  0  0  0  0  0  0  0  0  0
    2.9393    1.5772    0.0000 C   0  0  0  0  0  0  0  0  0  0  0  0
    3.0523    0.0815    0.0000 C   0  0  0  0  0  0  0  0  0  0  0  0
    1.7005    0.7315    0.0000 C   0  0  0  0  0  0  0  0  0  0  0  0
    0.4616   -0.1143    0.0000 C   0  0  0  0  0  0  0  0  0  0  0  0
   -0.8902    0.5357    0.0000 O   0  0  0  0  0  0  0  0  0  0  0  0
    0.5747   -1.6100    0.0000 C   0  0  0  0  0  0  0  0  0  0  0  0
   -0.8377   -1.1049    0.0000 C   0  0  0  0  0  0  0  0  0  0  0  0
  2  1  1  6
  2  3  1  0
  3  4  1  0
  4  5  1  0
  5  6  2  0
  5  7  1  0
  7  8  2  0
  7  9  1  0
  9 10  1  0
 10 11  2  0
 10 12  1  0
  2 13  1  0
 13 14  1  6
 14 15  1  0
 16 15  1  6
 16 17  1  0
 17 18  1  1
 18 19  1  0
 20 19  1  1
 20 21  1  0
 21 22  1  0
 22 23  1  1
 22 24  1  0
 24 25  1  0
 25 26  1  0
 26 27  1  6
 26 28  1  0
 28 29  1  6
 29 30  1  0
 30 31  1  1
 30 32  1  0
 32 33  1  6
 32 13  1  0
 32 16  1  0
 28 17  1  0
 26 20  1  0
M  END
>  <MS_ID>  (2197) 
MS2276

>  <SMILES>  (2197) 
C[C@H](CCC(=O)C(=O)CC(=O)O)[C@H]1CC[C@H]2[C@@H]3CC[C@@H]4C[C@H](O)CC[C@]4(C)[C@H]3C[C@H](O)[C@]12C

>  <Structure_dimension>  (2197) 
2D

$$$$
MS2277
     RDKit          2D

 32 35  0  0  0  0  0  0  0  0999 V2000
   -8.5023    1.6543    0.0000 C   0  0  0  0  0  0  0  0  0  0  0  0
   -7.0076    1.5283    0.0000 C   0  0  0  0  0  0  0  0  0  0  0  0
   -6.3694    0.1708    0.0000 O   0  0  0  0  0  0  0  0  0  0  0  0
   -4.8747    0.0448    0.0000 C   0  0  0  0  0  0  0  0  0  0  0  0
   -4.0182    1.2762    0.0000 O   0  0  0  0  0  0  0  0  0  0  0  0
   -4.2365   -1.3127    0.0000 C   0  0  0  0  0  0  0  0  0  0  0  0
   -2.7418   -1.4387    0.0000 C   0  0  0  0  0  0  0  0  0  0  0  0
   -2.1036   -2.7962    0.0000 C   0  0  0  0  0  0  0  0  0  0  0  0
   -2.9601   -4.0276    0.0000 C   0  0  0  0  0  0  0  0  0  0  0  0
   -0.6089   -2.9222    0.0000 C   0  0  0  0  0  0  0  0  0  0  0  0
    0.1677   -4.2055    0.0000 C   0  0  0  0  0  0  0  0  0  0  0  0
    1.6282   -3.8635    0.0000 C   0  0  0  0  0  0  0  0  0  0  0  0
    1.7542   -2.3688    0.0000 C   0  0  0  0  0  0  0  0  0  0  0  0
    2.9493   -1.4623    0.0000 C   0  0  0  0  0  0  0  0  0  0  0  0
    4.3319   -2.0441    0.0000 C   0  0  0  0  0  0  0  0  0  0  0  0
    5.5270   -1.1376    0.0000 C   0  0  0  0  0  0  0  0  0  0  0  0
    5.3395    0.3507    0.0000 C   0  0  0  0  0  0  0  0  0  0  0  0
    6.5346    1.2572    0.0000 C   0  0  0  0  0  0  0  0  0  0  0  0
    6.3472    2.7454    0.0000 C   0  0  0  0  0  0  0  0  0  0  0  0
    7.5423    3.6519    0.0000 O   0  0  0  0  0  0  0  0  0  0  0  0
    4.9646    3.3271    0.0000 C   0  0  0  0  0  0  0  0  0  0  0  0
    3.7694    2.4207    0.0000 C   0  0  0  0  0  0  0  0  0  0  0  0
    3.9569    0.9324    0.0000 C   0  0  0  0  0  0  0  0  0  0  0  0
    2.5743    1.5142    0.0000 C   0  0  0  0  0  0  0  0  0  0  0  0
    2.7618    0.0259    0.0000 C   0  0  0  0  0  0  0  0  0  0  0  0
    1.3792    0.6077    0.0000 C   0  0  0  0  0  0  0  0  0  0  0  0
    0.1841   -0.2988    0.0000 C   0  0  0  0  0  0  0  0  0  0  0  0
    0.3716   -1.7870    0.0000 C   0  0  0  0  0  0  0  0  0  0  0  0
   -1.0642   -1.3530    0.0000 C   0  0  0  0  0  0  0  0  0  0  0  0
   -6.1511    2.7597    0.0000 C   0  0  0  0  0  0  0  0  0  0  0  0
   -4.6564    2.6337    0.0000 O   0  0  0  0  0  0  0  0  0  0  0  0
   -6.7893    4.1172    0.0000 O   0  0  0  0  0  0  0  0  0  0  0  0
  2  1  1  1
  2  3  1  0
  3  4  1  0
  4  5  2  0
  4  6  1  0
  6  7  1  0
  7  8  1  0
  8  9  1  6
  8 10  1  0
 10 11  1  6
 11 12  1  0
 13 12  1  6
 13 14  1  0
 14 15  1  1
 15 16  1  0
 17 16  1  1
 17 18  1  0
 18 19  1  0
 19 20  1  6
 19 21  1  0
 21 22  1  0
 22 23  1  0
 23 24  1  6
 23 25  1  0
 25 26  1  6
 26 27  1  0
 27 28  1  0
 28 29  1  6
  2 30  1  0
 30 31  2  0
 30 32  1  0
 28 10  1  0
 28 13  1  0
 25 14  1  0
 23 17  1  0
M  END
>  <MS_ID>  (2198) 
MS2277

>  <SMILES>  (2198) 
C[C@H](OC(=O)CC[C@@H](C)[C@H]1CC[C@H]2[C@@H]3CC[C@@H]4C[C@@H](O)CC[C@]4(C)[C@H]3CC[C@]12C)C(=O)O

>  <Structure_dimension>  (2198) 
2D

$$$$
MS2278
     RDKit          2D

 31 34  0  0  0  0  0  0  0  0999 V2000
   -3.6377   -3.4900    0.0000 C   0  0  0  0  0  0  0  0  0  0  0  0
   -2.6684   -2.3453    0.0000 C   0  0  0  0  0  0  0  0  0  0  0  0
   -3.1751   -0.9335    0.0000 C   0  0  0  0  0  0  0  0  0  0  0  0
   -4.6511   -0.6664    0.0000 C   0  0  0  0  0  0  0  0  0  0  0  0
   -5.1578    0.7454    0.0000 C   0  0  0  0  0  0  0  0  0  0  0  0
   -4.1885    1.8902    0.0000 O   0  0  0  0  0  0  0  0  0  0  0  0
   -6.6339    1.0125    0.0000 C   0  0  0  0  0  0  0  0  0  0  0  0
   -7.1406    2.4243    0.0000 C   0  0  0  0  0  0  0  0  0  0  0  0
   -6.1713    3.5691    0.0000 O   0  0  0  0  0  0  0  0  0  0  0  0
   -8.6166    2.6914    0.0000 O   0  0  0  0  0  0  0  0  0  0  0  0
   -1.1923   -2.6123    0.0000 C   0  0  0  0  0  0  0  0  0  0  0  0
   -0.5408   -3.9635    0.0000 C   0  0  0  0  0  0  0  0  0  0  0  0
    0.9455   -3.7613    0.0000 C   0  0  0  0  0  0  0  0  0  0  0  0
    1.2126   -2.2853    0.0000 C   0  0  0  0  0  0  0  0  0  0  0  0
    2.4882   -1.4961    0.0000 C   0  0  0  0  0  0  0  0  0  0  0  0
    3.8095   -2.2063    0.0000 C   0  0  0  0  0  0  0  0  0  0  0  0
    5.0851   -1.4171    0.0000 C   0  0  0  0  0  0  0  0  0  0  0  0
    5.0394    0.0822    0.0000 C   0  0  0  0  0  0  0  0  0  0  0  0
    6.3151    0.8714    0.0000 C   0  0  0  0  0  0  0  0  0  0  0  0
    6.2694    2.3707    0.0000 C   0  0  0  0  0  0  0  0  0  0  0  0
    7.5450    3.1599    0.0000 O   0  0  0  0  0  0  0  0  0  0  0  0
    4.9481    3.0808    0.0000 C   0  0  0  0  0  0  0  0  0  0  0  0
    3.6725    2.2917    0.0000 C   0  0  0  0  0  0  0  0  0  0  0  0
    3.7182    0.7924    0.0000 C   0  0  0  0  0  0  0  0  0  0  0  0
    2.3969    1.5025    0.0000 C   0  0  0  0  0  0  0  0  0  0  0  0
    2.4426    0.0032    0.0000 C   0  0  0  0  0  0  0  0  0  0  0  0
    1.1213    0.7133    0.0000 C   0  0  0  0  0  0  0  0  0  0  0  0
   -0.1543   -0.0759    0.0000 C   0  0  0  0  0  0  0  0  0  0  0  0
   -1.4756    0.6342    0.0000 O   0  0  0  0  0  0  0  0  0  0  0  0
   -0.1087   -1.5752    0.0000 C   0  0  0  0  0  0  0  0  0  0  0  0
   -1.4969   -1.0071    0.0000 C   0  0  0  0  0  0  0  0  0  0  0  0
  2  1  1  6
  2  3  1  0
  3  4  1  0
  4  5  1  0
  5  6  2  0
  5  7  1  0
  7  8  1  0
  8  9  2  0
  8 10  1  0
  2 11  1  0
 11 12  1  6
 12 13  1  0
 14 13  1  6
 14 15  1  0
 15 16  1  1
 16 17  1  0
 18 17  1  1
 18 19  1  0
 19 20  1  0
 20 21  2  0
 20 22  1  0
 22 23  1  0
 23 24  1  0
 24 25  1  6
 24 26  1  0
 26 27  1  6
 27 28  1  0
 28 29  2  0
 28 30  1  0
 30 31  1  6
 30 11  1  0
 30 14  1  0
 26 15  1  0
 24 18  1  0
M  END
>  <MS_ID>  (2199) 
MS2278

>  <SMILES>  (2199) 
C[C@H](CCC(=O)CC(=O)O)[C@H]1CC[C@H]2[C@@H]3CC[C@@H]4CC(=O)CC[C@]4(C)[C@H]3CC(=O)[C@]12C

>  <Structure_dimension>  (2199) 
2D

$$$$
MS2279
     RDKit          2D

 30 33  0  0  0  0  0  0  0  0999 V2000
   -3.8321   -2.9495    0.0000 C   0  0  0  0  0  0  0  0  0  0  0  0
   -2.8334   -1.8303    0.0000 C   0  0  0  0  0  0  0  0  0  0  0  0
   -3.3032   -0.4058    0.0000 C   0  0  0  0  0  0  0  0  0  0  0  0
   -4.7718   -0.1005    0.0000 C   0  0  0  0  0  0  0  0  0  0  0  0
   -5.2417    1.3240    0.0000 C   0  0  0  0  0  0  0  0  0  0  0  0
   -4.2430    2.4432    0.0000 O   0  0  0  0  0  0  0  0  0  0  0  0
   -6.7103    1.6294    0.0000 N   0  0  0  0  0  0  0  0  0  0  0  0
   -7.1801    3.0539    0.0000 C   0  0  0  0  0  0  0  0  0  0  0  0
   -7.7090    0.5102    0.0000 C   0  0  0  0  0  0  0  0  0  0  0  0
   -1.3648   -2.1357    0.0000 C   0  0  0  0  0  0  0  0  0  0  0  0
   -0.7486   -3.5033    0.0000 C   0  0  0  0  0  0  0  0  0  0  0  0
    0.7425   -3.3398    0.0000 C   0  0  0  0  0  0  0  0  0  0  0  0
    1.0478   -1.8712    0.0000 C   0  0  0  0  0  0  0  0  0  0  0  0
    2.3435   -1.1155    0.0000 C   0  0  0  0  0  0  0  0  0  0  0  0
    3.6459   -1.8597    0.0000 C   0  0  0  0  0  0  0  0  0  0  0  0
    3.6525   -3.3597    0.0000 O   0  0  0  0  0  0  0  0  0  0  0  0
    4.9416   -1.1039    0.0000 C   0  0  0  0  0  0  0  0  0  0  0  0
    4.9349    0.3961    0.0000 C   0  0  0  0  0  0  0  0  0  0  0  0
    6.2306    1.1518    0.0000 C   0  0  0  0  0  0  0  0  0  0  0  0
    6.2239    2.6518    0.0000 C   0  0  0  0  0  0  0  0  0  0  0  0
    4.9216    3.3960    0.0000 C   0  0  0  0  0  0  0  0  0  0  0  0
    3.6259    2.6403    0.0000 C   0  0  0  0  0  0  0  0  0  0  0  0
    3.6325    1.1403    0.0000 C   0  0  0  0  0  0  0  0  0  0  0  0
    2.3302    1.8845    0.0000 C   0  0  0  0  0  0  0  0  0  0  0  0
    2.3369    0.3845    0.0000 C   0  0  0  0  0  0  0  0  0  0  0  0
    1.0345    1.1287    0.0000 C   0  0  0  0  0  0  0  0  0  0  0  0
   -0.2612    0.3730    0.0000 C   0  0  0  0  0  0  0  0  0  0  0  0
   -1.5636    1.1172    0.0000 O   0  0  0  0  0  0  0  0  0  0  0  0
   -0.2545   -1.1270    0.0000 C   0  0  0  0  0  0  0  0  0  0  0  0
   -1.6275   -0.5230    0.0000 C   0  0  0  0  0  0  0  0  0  0  0  0
  2  1  1  6
  2  3  1  0
  3  4  1  0
  4  5  1  0
  5  6  2  0
  5  7  1  0
  7  8  1  0
  7  9  1  0
  2 10  1  0
 10 11  1  6
 11 12  1  0
 13 12  1  6
 13 14  1  0
 14 15  1  1
 15 16  1  6
 15 17  1  0
 18 17  1  1
 18 19  1  0
 19 20  1  0
 20 21  1  0
 21 22  1  0
 22 23  1  0
 23 24  1  6
 23 25  1  0
 25 26  1  6
 26 27  1  0
 27 28  1  1
 27 29  1  0
 29 30  1  6
 29 10  1  0
 29 13  1  0
 25 14  1  0
 23 18  1  0
M  END
>  <MS_ID>  (2200) 
MS2279

>  <SMILES>  (2200) 
C[C@H](CCC(=O)N(C)C)[C@H]1CC[C@H]2[C@@H]3[C@@H](O)C[C@@H]4CCCC[C@]4(C)[C@H]3C[C@H](O)[C@]12C

>  <Structure_dimension>  (2200) 
2D

$$$$
MS2280
     RDKit          2D

 29 32  0  0  0  0  0  0  0  0999 V2000
   -4.0871   -3.1154    0.0000 C   0  0  0  0  0  0  0  0  0  0  0  0
   -3.0536   -2.0283    0.0000 C   0  0  0  0  0  0  0  0  0  0  0  0
   -3.4784   -0.5897    0.0000 C   0  0  0  0  0  0  0  0  0  0  0  0
   -4.9366   -0.2383    0.0000 C   0  0  0  0  0  0  0  0  0  0  0  0
   -5.3614    1.2003    0.0000 C   0  0  0  0  0  0  0  0  0  0  0  0
   -4.3279    2.2875    0.0000 O   0  0  0  0  0  0  0  0  0  0  0  0
   -6.8197    1.5518    0.0000 C   0  0  0  0  0  0  0  0  0  0  0  0
   -7.2445    2.9904    0.0000 C   0  0  0  0  0  0  0  0  0  0  0  0
   -8.7027    3.3418    0.0000 N   0  0  0  0  0  0  0  0  0  0  0  0
   -1.5953   -2.3797    0.0000 C   0  0  0  0  0  0  0  0  0  0  0  0
   -1.0225   -3.7660    0.0000 C   0  0  0  0  0  0  0  0  0  0  0  0
    0.4730   -3.6496    0.0000 C   0  0  0  0  0  0  0  0  0  0  0  0
    0.8244   -2.1914    0.0000 C   0  0  0  0  0  0  0  0  0  0  0  0
    2.1432   -1.4767    0.0000 C   0  0  0  0  0  0  0  0  0  0  0  0
    3.4215   -2.2616    0.0000 C   0  0  0  0  0  0  0  0  0  0  0  0
    4.7404   -1.5470    0.0000 C   0  0  0  0  0  0  0  0  0  0  0  0
    4.7809   -0.0475    0.0000 C   0  0  0  0  0  0  0  0  0  0  0  0
    6.0998    0.6671    0.0000 C   0  0  0  0  0  0  0  0  0  0  0  0
    6.1403    2.1665    0.0000 C   0  0  0  0  0  0  0  0  0  0  0  0
    7.4592    2.8811    0.0000 O   0  0  0  0  0  0  0  0  0  0  0  0
    4.8620    2.9514    0.0000 C   0  0  0  0  0  0  0  0  0  0  0  0
    3.5432    2.2368    0.0000 C   0  0  0  0  0  0  0  0  0  0  0  0
    3.5026    0.7373    0.0000 C   0  0  0  0  0  0  0  0  0  0  0  0
    2.2243    1.5222    0.0000 C   0  0  0  0  0  0  0  0  0  0  0  0
    2.1838    0.0227    0.0000 C   0  0  0  0  0  0  0  0  0  0  0  0
    0.9055    0.8076    0.0000 C   0  0  0  0  0  0  0  0  0  0  0  0
   -0.4133    0.0929    0.0000 C   0  0  0  0  0  0  0  0  0  0  0  0
   -0.4539   -1.4065    0.0000 C   0  0  0  0  0  0  0  0  0  0  0  0
   -1.8072   -0.7596    0.0000 C   0  0  0  0  0  0  0  0  0  0  0  0
  2  1  1  6
  2  3  1  0
  3  4  1  0
  4  5  1  0
  5  6  2  0
  5  7  1  0
  7  8  1  0
  8  9  1  0
  2 10  1  0
 10 11  1  6
 11 12  1  0
 13 12  1  6
 13 14  1  0
 14 15  1  1
 15 16  1  0
 17 16  1  1
 17 18  1  0
 18 19  1  0
 19 20  1  6
 19 21  1  0
 21 22  1  0
 22 23  1  0
 23 24  1  6
 23 25  1  0
 25 26  1  6
 26 27  1  0
 27 28  1  0
 28 29  1  6
 28 10  1  0
 28 13  1  0
 25 14  1  0
 23 17  1  0
M  END
>  <MS_ID>  (2201) 
MS2280

>  <SMILES>  (2201) 
C[C@H](CCC(=O)CCN)[C@H]1CC[C@H]2[C@@H]3CC[C@@H]4C[C@@H](O)CC[C@]4(C)[C@H]3CC[C@]12C

>  <Structure_dimension>  (2201) 
2D

$$$$
MS2281
     RDKit          2D

 30 33  0  0  0  0  0  0  0  0999 V2000
   -4.4295    3.9212    0.0000 C   0  0  0  0  0  0  0  0  0  0  0  0
   -4.5200    2.4239    0.0000 S   0  0  0  0  0  0  0  0  0  0  0  0
   -3.2686    1.5968    0.0000 C   0  0  0  0  0  0  0  0  0  0  0  0
   -3.3592    0.0996    0.0000 C   0  0  0  0  0  0  0  0  0  0  0  0
   -4.7011   -0.5706    0.0000 C   0  0  0  0  0  0  0  0  0  0  0  0
   -5.9525    0.2564    0.0000 C   0  0  0  0  0  0  0  0  0  0  0  0
   -7.2944   -0.4138    0.0000 C   0  0  0  0  0  0  0  0  0  0  0  0
   -7.3850   -1.9111    0.0000 O   0  0  0  0  0  0  0  0  0  0  0  0
   -8.5458    0.4132    0.0000 O   0  0  0  0  0  0  0  0  0  0  0  0
   -2.1078   -0.7275    0.0000 C   0  0  0  0  0  0  0  0  0  0  0  0
   -2.0413   -2.2260    0.0000 C   0  0  0  0  0  0  0  0  0  0  0  0
   -0.5956   -2.6258    0.0000 C   0  0  0  0  0  0  0  0  0  0  0  0
    0.2315   -1.3744    0.0000 C   0  0  0  0  0  0  0  0  0  0  0  0
    1.7148   -1.1517    0.0000 C   0  0  0  0  0  0  0  0  0  0  0  0
    2.6494   -2.3250    0.0000 C   0  0  0  0  0  0  0  0  0  0  0  0
    2.1006   -3.7210    0.0000 O   0  0  0  0  0  0  0  0  0  0  0  0
    4.1328   -2.1022    0.0000 C   0  0  0  0  0  0  0  0  0  0  0  0
    4.6816   -0.7062    0.0000 C   0  0  0  0  0  0  0  0  0  0  0  0
    6.1649   -0.4835    0.0000 C   0  0  0  0  0  0  0  0  0  0  0  0
    6.7137    0.9126    0.0000 C   0  0  0  0  0  0  0  0  0  0  0  0
    8.1971    1.1353    0.0000 O   0  0  0  0  0  0  0  0  0  0  0  0
    5.7791    2.0858    0.0000 C   0  0  0  0  0  0  0  0  0  0  0  0
    4.2958    1.8631    0.0000 C   0  0  0  0  0  0  0  0  0  0  0  0
    3.7470    0.4671    0.0000 C   0  0  0  0  0  0  0  0  0  0  0  0
    2.8124    1.6403    0.0000 C   0  0  0  0  0  0  0  0  0  0  0  0
    2.2636    0.2443    0.0000 C   0  0  0  0  0  0  0  0  0  0  0  0
    1.3290    1.4176    0.0000 C   0  0  0  0  0  0  0  0  0  0  0  0
   -0.1543    1.1948    0.0000 C   0  0  0  0  0  0  0  0  0  0  0  0
   -0.7031   -0.2012    0.0000 C   0  0  0  0  0  0  0  0  0  0  0  0
   -1.7552    0.8680    0.0000 C   0  0  0  0  0  0  0  0  0  0  0  0
  1  2  1  0
  2  3  1  0
  4  3  1  1
  4  5  1  0
  5  6  1  0
  6  7  1  0
  7  8  2  0
  7  9  1  0
  4 10  1  0
 10 11  1  6
 11 12  1  0
 13 12  1  6
 13 14  1  0
 14 15  1  1
 15 16  1  6
 15 17  1  0
 18 17  1  1
 18 19  1  0
 19 20  1  0
 20 21  1  1
 20 22  1  0
 22 23  1  0
 23 24  1  0
 24 25  1  6
 24 26  1  0
 26 27  1  6
 27 28  1  0
 28 29  1  0
 29 30  1  6
 29 10  1  0
 29 13  1  0
 26 14  1  0
 24 18  1  0
M  END
>  <MS_ID>  (2202) 
MS2281

>  <SMILES>  (2202) 
CSC[C@H](CCC(=O)O)[C@H]1CC[C@H]2[C@@H]3[C@@H](O)C[C@@H]4C[C@H](O)CC[C@]4(C)[C@H]3CC[C@]12C

>  <Structure_dimension>  (2202) 
2D

$$$$
MS2282
     RDKit          2D

 35 39  0  0  0  0  0  0  0  0999 V2000
   -1.7927   -4.0981    0.0000 C   0  0  0  0  0  0  0  0  0  0  0  0
   -0.9869   -2.8329    0.0000 C   0  0  0  0  0  0  0  0  0  0  0  0
   -1.6798   -1.5025    0.0000 C   0  0  0  0  0  0  0  0  0  0  0  0
   -3.1784   -1.4374    0.0000 C   0  0  0  0  0  0  0  0  0  0  0  0
   -3.8712   -0.1070    0.0000 C   0  0  0  0  0  0  0  0  0  0  0  0
   -3.0655    1.1583    0.0000 O   0  0  0  0  0  0  0  0  0  0  0  0
   -5.3698   -0.0418    0.0000 O   0  0  0  0  0  0  0  0  0  0  0  0
   -6.0627    1.2886    0.0000 C   0  0  0  0  0  0  0  0  0  0  0  0
   -7.5612    1.3538    0.0000 C   0  0  0  0  0  0  0  0  0  0  0  0
   -8.2541    2.6842    0.0000 C   0  0  0  0  0  0  0  0  0  0  0  0
   -9.7527    2.7493    0.0000 C   0  0  0  0  0  0  0  0  0  0  0  0
  -10.5584    1.4841    0.0000 C   0  0  0  0  0  0  0  0  0  0  0  0
   -9.8656    0.1537    0.0000 C   0  0  0  0  0  0  0  0  0  0  0  0
   -8.3670    0.0886    0.0000 C   0  0  0  0  0  0  0  0  0  0  0  0
    0.5116   -2.8981    0.0000 C   0  0  0  0  0  0  0  0  0  0  0  0
    1.3398   -4.1488    0.0000 C   0  0  0  0  0  0  0  0  0  0  0  0
    2.7851   -3.7477    0.0000 C   0  0  0  0  0  0  0  0  0  0  0  0
    2.8503   -2.2491    0.0000 C   0  0  0  0  0  0  0  0  0  0  0  0
    4.0076   -1.2948    0.0000 C   0  0  0  0  0  0  0  0  0  0  0  0
    5.4127   -1.8198    0.0000 C   0  0  0  0  0  0  0  0  0  0  0  0
    6.5700   -0.8655    0.0000 C   0  0  0  0  0  0  0  0  0  0  0  0
    6.3221    0.6139    0.0000 C   0  0  0  0  0  0  0  0  0  0  0  0
    7.4794    1.5682    0.0000 C   0  0  0  0  0  0  0  0  0  0  0  0
    7.2316    3.0476    0.0000 C   0  0  0  0  0  0  0  0  0  0  0  0
    8.3888    4.0019    0.0000 O   0  0  0  0  0  0  0  0  0  0  0  0
    5.8265    3.5726    0.0000 C   0  0  0  0  0  0  0  0  0  0  0  0
    4.6692    2.6183    0.0000 C   0  0  0  0  0  0  0  0  0  0  0  0
    4.9170    1.1389    0.0000 C   0  0  0  0  0  0  0  0  0  0  0  0
    3.5119    1.6640    0.0000 C   0  0  0  0  0  0  0  0  0  0  0  0
    3.7598    0.1846    0.0000 C   0  0  0  0  0  0  0  0  0  0  0  0
    2.3547    0.7097    0.0000 C   0  0  0  0  0  0  0  0  0  0  0  0
    1.1974   -0.2446    0.0000 C   0  0  0  0  0  0  0  0  0  0  0  0
   -0.2077    0.2804    0.0000 O   0  0  0  0  0  0  0  0  0  0  0  0
    1.4452   -1.7240    0.0000 C   0  0  0  0  0  0  0  0  0  0  0  0
   -0.0071   -1.3487    0.0000 C   0  0  0  0  0  0  0  0  0  0  0  0
  2  1  1  6
  2  3  1  0
  3  4  1  0
  4  5  1  0
  5  6  2  0
  5  7  1  0
  7  8  1  0
  8  9  1  0
  9 10  2  0
 10 11  1  0
 11 12  2  0
 12 13  1  0
 13 14  2  0
  2 15  1  0
 15 16  1  6
 16 17  1  0
 18 17  1  6
 18 19  1  0
 19 20  1  1
 20 21  1  0
 22 21  1  1
 22 23  1  0
 23 24  1  0
 24 25  1  1
 24 26  1  0
 26 27  1  0
 27 28  1  0
 28 29  1  6
 28 30  1  0
 30 31  1  6
 31 32  1  0
 32 33  1  1
 32 34  1  0
 34 35  1  6
 14  9  1  0
 34 15  1  0
 34 18  1  0
 30 19  1  0
 28 22  1  0
M  END
>  <MS_ID>  (2203) 
MS2282

>  <SMILES>  (2203) 
C[C@H](CCC(=O)OCc1ccccc1)[C@H]1CC[C@H]2[C@@H]3CC[C@@H]4C[C@H](O)CC[C@]4(C)[C@H]3C[C@H](O)[C@]12C

>  <Structure_dimension>  (2203) 
2D

$$$$
MS2283
     RDKit          2D

 29 32  0  0  0  0  0  0  0  0999 V2000
   -5.1421   -2.1269    0.0000 C   0  0  0  0  0  0  0  0  0  0  0  0
   -4.0091   -1.1439    0.0000 C   0  0  0  0  0  0  0  0  0  0  0  0
   -4.2938    0.3288    0.0000 C   0  0  0  0  0  0  0  0  0  0  0  0
   -5.7116    0.8186    0.0000 C   0  0  0  0  0  0  0  0  0  0  0  0
   -5.9963    2.2913    0.0000 C   0  0  0  0  0  0  0  0  0  0  0  0
   -4.8632    3.2743    0.0000 O   0  0  0  0  0  0  0  0  0  0  0  0
   -7.4141    2.7811    0.0000 O   0  0  0  0  0  0  0  0  0  0  0  0
   -2.5913   -1.6337    0.0000 C   0  0  0  0  0  0  0  0  0  0  0  0
   -2.1542   -3.0686    0.0000 C   0  0  0  0  0  0  0  0  0  0  0  0
   -0.6544   -3.0963    0.0000 C   0  0  0  0  0  0  0  0  0  0  0  0
   -0.1646   -1.6785    0.0000 C   0  0  0  0  0  0  0  0  0  0  0  0
    1.2167   -1.0938    0.0000 C   0  0  0  0  0  0  0  0  0  0  0  0
    2.4137   -1.9977    0.0000 C   0  0  0  0  0  0  0  0  0  0  0  0
    2.2294   -3.4864    0.0000 C   0  0  0  0  0  0  0  0  0  0  0  0
    3.4265   -4.3903    0.0000 Cl  0  0  0  0  0  0  0  0  0  0  0  0
    3.7951   -1.4130    0.0000 C   0  0  0  0  0  0  0  0  0  0  0  0
    3.9794    0.0756    0.0000 C   0  0  0  0  0  0  0  0  0  0  0  0
    5.3607    0.6603    0.0000 C   0  0  0  0  0  0  0  0  0  0  0  0
    5.5451    2.1489    0.0000 C   0  0  0  0  0  0  0  0  0  0  0  0
    6.9264    2.7336    0.0000 O   0  0  0  0  0  0  0  0  0  0  0  0
    4.3480    3.0529    0.0000 C   0  0  0  0  0  0  0  0  0  0  0  0
    2.9667    2.4682    0.0000 C   0  0  0  0  0  0  0  0  0  0  0  0
    2.7824    0.9795    0.0000 C   0  0  0  0  0  0  0  0  0  0  0  0
    1.5853    1.8835    0.0000 C   0  0  0  0  0  0  0  0  0  0  0  0
    1.4010    0.3948    0.0000 C   0  0  0  0  0  0  0  0  0  0  0  0
    0.2040    1.2988    0.0000 C   0  0  0  0  0  0  0  0  0  0  0  0
   -1.1774    0.7141    0.0000 C   0  0  0  0  0  0  0  0  0  0  0  0
   -1.3617   -0.7746    0.0000 C   0  0  0  0  0  0  0  0  0  0  0  0
   -2.6467   -0.0007    0.0000 C   0  0  0  0  0  0  0  0  0  0  0  0
  2  1  1  6
  2  3  1  0
  3  4  1  0
  4  5  1  0
  5  6  2  0
  5  7  1  0
  2  8  1  0
  8  9  1  6
  9 10  1  0
 11 10  1  6
 11 12  1  0
 12 13  1  1
 13 14  1  6
 14 15  1  0
 13 16  1  0
 17 16  1  1
 17 18  1  0
 18 19  1  0
 19 20  1  1
 19 21  1  0
 21 22  1  0
 22 23  1  0
 23 24  1  6
 23 25  1  0
 25 26  1  6
 26 27  1  0
 27 28  1  0
 28 29  1  6
 28  8  1  0
 28 11  1  0
 25 12  1  0
 23 17  1  0
M  END
>  <MS_ID>  (2204) 
MS2283

>  <SMILES>  (2204) 
C[C@H](CCC(=O)O)[C@H]1CC[C@H]2[C@@H]3[C@@H](CCl)C[C@@H]4C[C@H](O)CC[C@]4(C)[C@H]3CC[C@]12C

>  <Structure_dimension>  (2204) 
2D

$$$$
MS2284
     RDKit          2D

 33 36  0  0  0  0  0  0  0  0999 V2000
   -3.4872   -3.6667    0.0000 C   0  0  0  0  0  0  0  0  0  0  0  0
   -2.6153   -2.4461    0.0000 C   0  0  0  0  0  0  0  0  0  0  0  0
   -3.2364   -1.0808    0.0000 C   0  0  0  0  0  0  0  0  0  0  0  0
   -4.7294   -0.9360    0.0000 C   0  0  0  0  0  0  0  0  0  0  0  0
   -5.3505    0.4294    0.0000 C   0  0  0  0  0  0  0  0  0  0  0  0
   -4.4787    1.6500    0.0000 O   0  0  0  0  0  0  0  0  0  0  0  0
   -6.8435    0.5742    0.0000 N   0  0  0  0  0  0  0  0  0  0  0  0
   -7.4647    1.9396    0.0000 C   0  0  0  0  0  0  0  0  0  0  0  0
   -6.0993    2.5607    0.0000 C   0  0  0  0  0  0  0  0  0  0  0  0
   -8.8300    1.3184    0.0000 C   0  0  0  0  0  0  0  0  0  0  0  0
   -8.0858    3.3049    0.0000 O   0  0  0  0  0  0  0  0  0  0  0  0
   -1.1223   -2.5909    0.0000 C   0  0  0  0  0  0  0  0  0  0  0  0
   -0.3619   -3.8839    0.0000 C   0  0  0  0  0  0  0  0  0  0  0  0
    1.1027   -3.5602    0.0000 C   0  0  0  0  0  0  0  0  0  0  0  0
    1.2475   -2.0672    0.0000 C   0  0  0  0  0  0  0  0  0  0  0  0
    2.4539   -1.1758    0.0000 C   0  0  0  0  0  0  0  0  0  0  0  0
    3.8291   -1.7749    0.0000 C   0  0  0  0  0  0  0  0  0  0  0  0
    3.9979   -3.2654    0.0000 O   0  0  0  0  0  0  0  0  0  0  0  0
    5.0355   -0.8835    0.0000 C   0  0  0  0  0  0  0  0  0  0  0  0
    6.4107   -1.4825    0.0000 O   0  0  0  0  0  0  0  0  0  0  0  0
    4.8667    0.6070    0.0000 C   0  0  0  0  0  0  0  0  0  0  0  0
    6.0731    1.4984    0.0000 C   0  0  0  0  0  0  0  0  0  0  0  0
    5.9043    2.9889    0.0000 C   0  0  0  0  0  0  0  0  0  0  0  0
    7.1107    3.8803    0.0000 O   0  0  0  0  0  0  0  0  0  0  0  0
    4.5291    3.5880    0.0000 C   0  0  0  0  0  0  0  0  0  0  0  0
    3.3228    2.6965    0.0000 C   0  0  0  0  0  0  0  0  0  0  0  0
    3.4915    1.2061    0.0000 C   0  0  0  0  0  0  0  0  0  0  0  0
    2.1164    1.8051    0.0000 C   0  0  0  0  0  0  0  0  0  0  0  0
    2.2851    0.3147    0.0000 C   0  0  0  0  0  0  0  0  0  0  0  0
    0.9100    0.9137    0.0000 C   0  0  0  0  0  0  0  0  0  0  0  0
   -0.2964    0.0223    0.0000 C   0  0  0  0  0  0  0  0  0  0  0  0
   -0.1276   -1.4682    0.0000 C   0  0  0  0  0  0  0  0  0  0  0  0
   -1.5579   -1.0161    0.0000 C   0  0  0  0  0  0  0  0  0  0  0  0
  2  1  1  6
  2  3  1  0
  3  4  1  0
  4  5  1  0
  5  6  2  0
  5  7  1  0
  7  8  1  0
  8  9  1  0
  8 10  1  0
  8 11  1  0
  2 12  1  0
 12 13  1  6
 13 14  1  0
 15 14  1  6
 15 16  1  0
 16 17  1  1
 17 18  1  1
 17 19  1  0
 19 20  1  1
 19 21  1  0
 21 22  1  1
 22 23  1  0
 23 24  1  1
 23 25  1  0
 25 26  1  0
 26 27  1  0
 27 28  1  6
 27 29  1  0
 29 30  1  6
 30 31  1  0
 31 32  1  0
 32 33  1  6
 32 12  1  0
 32 15  1  0
 29 16  1  0
 27 21  1  0
M  END
>  <MS_ID>  (2205) 
MS2284

>  <SMILES>  (2205) 
C[C@H](CCC(=O)NC(C)(C)O)[C@H]1CC[C@H]2[C@@H]3[C@H](O)[C@H](O)[C@@H]4C[C@H](O)CC[C@]4(C)[C@H]3CC[C@]12C

>  <Structure_dimension>  (2205) 
2D

$$$$
MS2285
     RDKit          2D

 32 35  0  0  0  0  0  0  0  0999 V2000
   -2.9090   -3.9078    0.0000 C   0  0  0  0  0  0  0  0  0  0  0  0
   -2.0926   -2.6494    0.0000 C   0  0  0  0  0  0  0  0  0  0  0  0
   -2.7741   -1.3132    0.0000 C   0  0  0  0  0  0  0  0  0  0  0  0
   -4.2721   -1.2353    0.0000 C   0  0  0  0  0  0  0  0  0  0  0  0
   -4.9536    0.1009    0.0000 C   0  0  0  0  0  0  0  0  0  0  0  0
   -4.1372    1.3592    0.0000 O   0  0  0  0  0  0  0  0  0  0  0  0
   -6.4516    0.1788    0.0000 N   0  0  0  0  0  0  0  0  0  0  0  0
   -7.1332    1.5150    0.0000 O   0  0  0  0  0  0  0  0  0  0  0  0
   -8.6311    1.5929    0.0000 C   0  0  0  0  0  0  0  0  0  0  0  0
   -9.3127    2.9291    0.0000 C   0  0  0  0  0  0  0  0  0  0  0  0
  -10.8107    3.0070    0.0000 N   0  0  0  0  0  0  0  0  0  0  0  0
   -0.5946   -2.7273    0.0000 C   0  0  0  0  0  0  0  0  0  0  0  0
    0.2229   -3.9850    0.0000 C   0  0  0  0  0  0  0  0  0  0  0  0
    1.6716   -3.5962    0.0000 C   0  0  0  0  0  0  0  0  0  0  0  0
    1.7495   -2.0982    0.0000 C   0  0  0  0  0  0  0  0  0  0  0  0
    2.9148   -1.1537    0.0000 C   0  0  0  0  0  0  0  0  0  0  0  0
    4.3154   -1.6907    0.0000 C   0  0  0  0  0  0  0  0  0  0  0  0
    4.5507   -3.1721    0.0000 O   0  0  0  0  0  0  0  0  0  0  0  0
    5.4807   -0.7462    0.0000 C   0  0  0  0  0  0  0  0  0  0  0  0
    5.2455    0.7352    0.0000 C   0  0  0  0  0  0  0  0  0  0  0  0
    6.4108    1.6797    0.0000 C   0  0  0  0  0  0  0  0  0  0  0  0
    6.1755    3.1611    0.0000 C   0  0  0  0  0  0  0  0  0  0  0  0
    7.3408    4.1056    0.0000 O   0  0  0  0  0  0  0  0  0  0  0  0
    4.7749    3.6981    0.0000 C   0  0  0  0  0  0  0  0  0  0  0  0
    3.6096    2.7536    0.0000 C   0  0  0  0  0  0  0  0  0  0  0  0
    3.8449    1.2722    0.0000 C   0  0  0  0  0  0  0  0  0  0  0  0
    2.4443    1.8091    0.0000 C   0  0  0  0  0  0  0  0  0  0  0  0
    2.6795    0.3277    0.0000 C   0  0  0  0  0  0  0  0  0  0  0  0
    1.2789    0.8647    0.0000 C   0  0  0  0  0  0  0  0  0  0  0  0
    0.1136   -0.0798    0.0000 C   0  0  0  0  0  0  0  0  0  0  0  0
    0.3489   -1.5612    0.0000 C   0  0  0  0  0  0  0  0  0  0  0  0
   -1.1002   -1.1736    0.0000 C   0  0  0  0  0  0  0  0  0  0  0  0
  2  1  1  6
  2  3  1  0
  3  4  1  0
  4  5  1  0
  5  6  2  0
  5  7  1  0
  7  8  1  0
  8  9  1  0
  9 10  1  0
 10 11  1  0
  2 12  1  0
 12 13  1  6
 13 14  1  0
 15 14  1  6
 15 16  1  0
 16 17  1  1
 17 18  1  1
 17 19  1  0
 20 19  1  1
 20 21  1  0
 21 22  1  0
 22 23  1  1
 22 24  1  0
 24 25  1  0
 25 26  1  0
 26 27  1  6
 26 28  1  0
 28 29  1  6
 29 30  1  0
 30 31  1  0
 31 32  1  6
 31 12  1  0
 31 15  1  0
 28 16  1  0
 26 20  1  0
M  END
>  <MS_ID>  (2206) 
MS2285

>  <SMILES>  (2206) 
C[C@H](CCC(=O)NOCCN)[C@H]1CC[C@H]2[C@@H]3[C@H](O)C[C@@H]4C[C@H](O)CC[C@]4(C)[C@H]3CC[C@]12C

>  <Structure_dimension>  (2206) 
2D

$$$$
MS2286
     RDKit          2D

 31 34  0  0  0  0  0  0  0  0999 V2000
   -4.2495   -2.8115    0.0000 C   0  0  0  0  0  0  0  0  0  0  0  0
   -3.1859   -1.7538    0.0000 C   0  0  0  0  0  0  0  0  0  0  0  0
   -3.5702   -0.3038    0.0000 C   0  0  0  0  0  0  0  0  0  0  0  0
   -5.0180    0.0883    0.0000 C   0  0  0  0  0  0  0  0  0  0  0  0
   -5.4023    1.5383    0.0000 C   0  0  0  0  0  0  0  0  0  0  0  0
   -4.3387    2.5960    0.0000 O   0  0  0  0  0  0  0  0  0  0  0  0
   -6.8501    1.9305    0.0000 C   0  0  0  0  0  0  0  0  0  0  0  0
   -7.9137    0.8727    0.0000 O   0  0  0  0  0  0  0  0  0  0  0  0
   -7.2344    3.3804    0.0000 O   0  0  0  0  0  0  0  0  0  0  0  0
   -1.7381   -2.1460    0.0000 C   0  0  0  0  0  0  0  0  0  0  0  0
   -1.2044   -3.5478    0.0000 C   0  0  0  0  0  0  0  0  0  0  0  0
    0.2938   -3.4734    0.0000 C   0  0  0  0  0  0  0  0  0  0  0  0
    0.6860   -2.0256    0.0000 C   0  0  0  0  0  0  0  0  0  0  0  0
    2.0243   -1.3482    0.0000 C   0  0  0  0  0  0  0  0  0  0  0  0
    3.2801   -2.1686    0.0000 C   0  0  0  0  0  0  0  0  0  0  0  0
    3.1975   -3.6663    0.0000 O   0  0  0  0  0  0  0  0  0  0  0  0
    4.6185   -1.4913    0.0000 C   0  0  0  0  0  0  0  0  0  0  0  0
    4.7010    0.0064    0.0000 C   0  0  0  0  0  0  0  0  0  0  0  0
    6.0394    0.6838    0.0000 C   0  0  0  0  0  0  0  0  0  0  0  0
    6.1220    2.1815    0.0000 C   0  0  0  0  0  0  0  0  0  0  0  0
    7.4604    2.8588    0.0000 O   0  0  0  0  0  0  0  0  0  0  0  0
    4.8662    3.0019    0.0000 C   0  0  0  0  0  0  0  0  0  0  0  0
    3.5279    2.3246    0.0000 C   0  0  0  0  0  0  0  0  0  0  0  0
    3.4453    0.8268    0.0000 C   0  0  0  0  0  0  0  0  0  0  0  0
    2.1895    1.6472    0.0000 C   0  0  0  0  0  0  0  0  0  0  0  0
    2.1069    0.1495    0.0000 C   0  0  0  0  0  0  0  0  0  0  0  0
    0.8511    0.9699    0.0000 C   0  0  0  0  0  0  0  0  0  0  0  0
   -0.4872    0.2925    0.0000 C   0  0  0  0  0  0  0  0  0  0  0  0
   -1.7430    1.1129    0.0000 O   0  0  0  0  0  0  0  0  0  0  0  0
   -0.5698   -1.2052    0.0000 C   0  0  0  0  0  0  0  0  0  0  0  0
   -1.9045   -0.5205    0.0000 C   0  0  0  0  0  0  0  0  0  0  0  0
  2  1  1  6
  2  3  1  0
  3  4  1  0
  4  5  1  0
  5  6  2  0
  5  7  1  0
  7  8  2  0
  7  9  1  0
  2 10  1  0
 10 11  1  6
 11 12  1  0
 13 12  1  6
 13 14  1  0
 14 15  1  1
 15 16  1  1
 15 17  1  0
 18 17  1  1
 18 19  1  0
 19 20  1  0
 20 21  2  0
 20 22  1  0
 22 23  1  0
 23 24  1  0
 24 25  1  6
 24 26  1  0
 26 27  1  6
 27 28  1  0
 28 29  1  1
 28 30  1  0
 30 31  1  6
 30 10  1  0
 30 13  1  0
 26 14  1  0
 24 18  1  0
M  END
>  <MS_ID>  (2207) 
MS2286

>  <SMILES>  (2207) 
C[C@H](CCC(=O)C(=O)O)[C@H]1CC[C@H]2[C@@H]3[C@H](O)C[C@@H]4CC(=O)CC[C@]4(C)[C@H]3C[C@H](O)[C@]12C

>  <Structure_dimension>  (2207) 
2D

$$$$
MS2287
     RDKit          2D

 30 33  0  0  0  0  0  0  0  0999 V2000
   -5.2711   -2.0896    0.0000 C   0  0  0  0  0  0  0  0  0  0  0  0
   -4.0677   -1.1943    0.0000 C   0  0  0  0  0  0  0  0  0  0  0  0
   -4.2413    0.2956    0.0000 C   0  0  0  0  0  0  0  0  0  0  0  0
   -5.6184    0.8902    0.0000 C   0  0  0  0  0  0  0  0  0  0  0  0
   -5.7920    2.3802    0.0000 C   0  0  0  0  0  0  0  0  0  0  0  0
   -4.5885    3.2755    0.0000 O   0  0  0  0  0  0  0  0  0  0  0  0
   -7.1691    2.9748    0.0000 O   0  0  0  0  0  0  0  0  0  0  0  0
   -2.6905   -1.7889    0.0000 C   0  0  0  0  0  0  0  0  0  0  0  0
   -2.3621   -3.2525    0.0000 C   0  0  0  0  0  0  0  0  0  0  0  0
   -0.8687   -3.3924    0.0000 C   0  0  0  0  0  0  0  0  0  0  0  0
   -0.2741   -2.0153    0.0000 C   0  0  0  0  0  0  0  0  0  0  0  0
    1.1472   -1.5357    0.0000 C   0  0  0  0  0  0  0  0  0  0  0  0
    2.2732   -2.5267    0.0000 C   0  0  0  0  0  0  0  0  0  0  0  0
    1.9779   -3.9974    0.0000 O   0  0  0  0  0  0  0  0  0  0  0  0
    3.6944   -2.0471    0.0000 C   0  0  0  0  0  0  0  0  0  0  0  0
    3.9897   -0.5765    0.0000 C   0  0  0  0  0  0  0  0  0  0  0  0
    5.4110   -0.0969    0.0000 C   0  0  0  0  0  0  0  0  0  0  0  0
    5.7063    1.3738    0.0000 C   0  0  0  0  0  0  0  0  0  0  0  0
    7.1275    1.8534    0.0000 O   0  0  0  0  0  0  0  0  0  0  0  0
    4.5803    2.3648    0.0000 C   0  0  0  0  0  0  0  0  0  0  0  0
    3.1590    1.8852    0.0000 C   0  0  0  0  0  0  0  0  0  0  0  0
    2.8637    0.4146    0.0000 C   0  0  0  0  0  0  0  0  0  0  0  0
    1.7378    1.4056    0.0000 C   0  0  0  0  0  0  0  0  0  0  0  0
    2.0330    2.8763    0.0000 O   0  0  0  0  0  0  0  0  0  0  0  0
    1.4425   -0.0650    0.0000 C   0  0  0  0  0  0  0  0  0  0  0  0
    0.3165    0.9260    0.0000 C   0  0  0  0  0  0  0  0  0  0  0  0
    0.6118    2.3967    0.0000 O   0  0  0  0  0  0  0  0  0  0  0  0
   -1.1048    0.4464    0.0000 C   0  0  0  0  0  0  0  0  0  0  0  0
   -1.4000   -1.0242    0.0000 C   0  0  0  0  0  0  0  0  0  0  0  0
   -2.6234   -0.1563    0.0000 C   0  0  0  0  0  0  0  0  0  0  0  0
  2  1  1  6
  2  3  1  0
  3  4  1  0
  4  5  1  0
  5  6  2  0
  5  7  1  0
  2  8  1  0
  8  9  1  6
  9 10  1  0
 11 10  1  6
 11 12  1  0
 12 13  1  1
 13 14  1  6
 13 15  1  0
 16 15  1  1
 16 17  1  0
 17 18  1  0
 18 19  1  1
 18 20  1  0
 20 21  1  0
 21 22  1  0
 22 23  1  6
 23 24  1  0
 22 25  1  0
 25 26  1  6
 26 27  2  0
 26 28  1  0
 28 29  1  0
 29 30  1  6
 29  8  1  0
 29 11  1  0
 25 12  1  0
 22 16  1  0
M  END
>  <MS_ID>  (2208) 
MS2287

>  <SMILES>  (2208) 
C[C@H](CCC(=O)O)[C@H]1CC[C@H]2[C@@H]3[C@@H](O)C[C@@H]4C[C@H](O)CC[C@]4(CO)[C@H]3C(=O)C[C@]12C

>  <Structure_dimension>  (2208) 
2D

$$$$
MS2288
     RDKit          2D

 29 32  0  0  0  0  0  0  0  0999 V2000
   -7.1069    2.8565    0.0000 C   0  0  0  0  0  0  0  0  0  0  0  0
   -5.7095    2.3112    0.0000 C   0  0  0  0  0  0  0  0  0  0  0  0
   -4.5386    3.2487    0.0000 O   0  0  0  0  0  0  0  0  0  0  0  0
   -5.4831    0.8284    0.0000 C   0  0  0  0  0  0  0  0  0  0  0  0
   -4.0858    0.2830    0.0000 C   0  0  0  0  0  0  0  0  0  0  0  0
   -3.8594   -1.1998    0.0000 C   0  0  0  0  0  0  0  0  0  0  0  0
   -5.0303   -2.1373    0.0000 C   0  0  0  0  0  0  0  0  0  0  0  0
   -2.4620   -1.7451    0.0000 C   0  0  0  0  0  0  0  0  0  0  0  0
   -2.0818   -3.1961    0.0000 C   0  0  0  0  0  0  0  0  0  0  0  0
   -0.5844   -3.2830    0.0000 C   0  0  0  0  0  0  0  0  0  0  0  0
   -0.0390   -1.8856    0.0000 C   0  0  0  0  0  0  0  0  0  0  0  0
    1.3643   -1.3559    0.0000 C   0  0  0  0  0  0  0  0  0  0  0  0
    2.5248   -2.3063    0.0000 C   0  0  0  0  0  0  0  0  0  0  0  0
    2.2819   -3.7865    0.0000 O   0  0  0  0  0  0  0  0  0  0  0  0
    3.9281   -1.7765    0.0000 C   0  0  0  0  0  0  0  0  0  0  0  0
    4.1710   -0.2963    0.0000 C   0  0  0  0  0  0  0  0  0  0  0  0
    5.5743    0.2334    0.0000 C   0  0  0  0  0  0  0  0  0  0  0  0
    5.8172    1.7136    0.0000 C   0  0  0  0  0  0  0  0  0  0  0  0
    7.2205    2.2434    0.0000 O   0  0  0  0  0  0  0  0  0  0  0  0
    4.6568    2.6641    0.0000 C   0  0  0  0  0  0  0  0  0  0  0  0
    3.2534    2.1343    0.0000 C   0  0  0  0  0  0  0  0  0  0  0  0
    3.0105    0.6541    0.0000 C   0  0  0  0  0  0  0  0  0  0  0  0
    1.8501    1.6046    0.0000 C   0  0  0  0  0  0  0  0  0  0  0  0
    1.6072    0.1244    0.0000 C   0  0  0  0  0  0  0  0  0  0  0  0
    0.4467    1.0748    0.0000 C   0  0  0  0  0  0  0  0  0  0  0  0
   -0.9566    0.5450    0.0000 C   0  0  0  0  0  0  0  0  0  0  0  0
   -2.1170    1.4955    0.0000 O   0  0  0  0  0  0  0  0  0  0  0  0
   -1.1995   -0.9352    0.0000 C   0  0  0  0  0  0  0  0  0  0  0  0
   -2.4529   -0.1112    0.0000 C   0  0  0  0  0  0  0  0  0  0  0  0
  1  2  1  0
  2  3  2  0
  2  4  1  0
  4  5  1  0
  5  6  1  0
  6  7  1  6
  6  8  1  0
  8  9  1  6
  9 10  1  0
 11 10  1  6
 11 12  1  0
 12 13  1  1
 13 14  1  1
 13 15  1  0
 16 15  1  1
 16 17  1  0
 17 18  1  0
 18 19  1  1
 18 20  1  0
 20 21  1  0
 21 22  1  0
 22 23  1  6
 22 24  1  0
 24 25  1  6
 25 26  1  0
 26 27  2  0
 26 28  1  0
 28 29  1  6
 28  8  1  0
 28 11  1  0
 24 12  1  0
 22 16  1  0
M  END
>  <MS_ID>  (2209) 
MS2288

>  <SMILES>  (2209) 
CC(=O)CC[C@@H](C)[C@H]1CC[C@H]2[C@@H]3[C@H](O)C[C@@H]4C[C@H](O)CC[C@]4(C)[C@H]3CC(=O)[C@]12C

>  <Structure_dimension>  (2209) 
2D

$$$$
MS2289
     RDKit          2D

 34 37  0  0  0  0  0  0  0  0999 V2000
   -2.6036   -4.1660    0.0000 C   0  0  0  0  0  0  0  0  0  0  0  0
   -1.8683   -2.8586    0.0000 C   0  0  0  0  0  0  0  0  0  0  0  0
   -2.6328   -1.5681    0.0000 C   0  0  0  0  0  0  0  0  0  0  0  0
   -4.1328   -1.5850    0.0000 C   0  0  0  0  0  0  0  0  0  0  0  0
   -4.8973   -0.2944    0.0000 C   0  0  0  0  0  0  0  0  0  0  0  0
   -4.1620    1.0130    0.0000 O   0  0  0  0  0  0  0  0  0  0  0  0
   -6.3972   -0.3113    0.0000 N   0  0  0  0  0  0  0  0  0  0  0  0
   -7.1618    0.9792    0.0000 C   0  0  0  0  0  0  0  0  0  0  0  0
   -8.6617    0.9623    0.0000 C   0  0  0  0  0  0  0  0  0  0  0  0
   -9.4263    2.2528    0.0000 N   0  0  0  0  0  0  0  0  0  0  0  0
  -10.9262    2.2359    0.0000 C   0  0  0  0  0  0  0  0  0  0  0  0
   -8.6910    3.5602    0.0000 C   0  0  0  0  0  0  0  0  0  0  0  0
   -0.3684   -2.8417    0.0000 C   0  0  0  0  0  0  0  0  0  0  0  0
    0.5269   -4.0452    0.0000 C   0  0  0  0  0  0  0  0  0  0  0  0
    1.9482   -3.5657    0.0000 C   0  0  0  0  0  0  0  0  0  0  0  0
    1.9313   -2.0657    0.0000 C   0  0  0  0  0  0  0  0  0  0  0  0
    3.0347   -1.0496    0.0000 C   0  0  0  0  0  0  0  0  0  0  0  0
    4.4664   -1.4970    0.0000 C   0  0  0  0  0  0  0  0  0  0  0  0
    4.7947   -2.9606    0.0000 O   0  0  0  0  0  0  0  0  0  0  0  0
    5.5697   -0.4808    0.0000 C   0  0  0  0  0  0  0  0  0  0  0  0
    7.0014   -0.9282    0.0000 O   0  0  0  0  0  0  0  0  0  0  0  0
    5.2413    0.9828    0.0000 C   0  0  0  0  0  0  0  0  0  0  0  0
    6.3447    1.9990    0.0000 C   0  0  0  0  0  0  0  0  0  0  0  0
    6.0163    3.4626    0.0000 C   0  0  0  0  0  0  0  0  0  0  0  0
    7.1197    4.4788    0.0000 O   0  0  0  0  0  0  0  0  0  0  0  0
    4.5846    3.9100    0.0000 C   0  0  0  0  0  0  0  0  0  0  0  0
    3.4813    2.8939    0.0000 C   0  0  0  0  0  0  0  0  0  0  0  0
    3.8096    1.4302    0.0000 C   0  0  0  0  0  0  0  0  0  0  0  0
    2.3779    1.8777    0.0000 C   0  0  0  0  0  0  0  0  0  0  0  0
    2.7063    0.4141    0.0000 C   0  0  0  0  0  0  0  0  0  0  0  0
    1.2746    0.8615    0.0000 C   0  0  0  0  0  0  0  0  0  0  0  0
    0.1712   -0.1547    0.0000 C   0  0  0  0  0  0  0  0  0  0  0  0
    0.4996   -1.6183    0.0000 C   0  0  0  0  0  0  0  0  0  0  0  0
   -0.9710   -1.3230    0.0000 C   0  0  0  0  0  0  0  0  0  0  0  0
  2  1  1  6
  2  3  1  0
  3  4  1  0
  4  5  1  0
  5  6  2  0
  5  7  1  0
  7  8  1  0
  8  9  1  0
  9 10  1  0
 10 11  1  0
 10 12  1  0
  2 13  1  0
 13 14  1  6
 14 15  1  0
 16 15  1  6
 16 17  1  0
 17 18  1  1
 18 19  1  1
 18 20  1  0
 20 21  1  1
 20 22  1  0
 22 23  1  1
 23 24  1  0
 24 25  1  1
 24 26  1  0
 26 27  1  0
 27 28  1  0
 28 29  1  6
 28 30  1  0
 30 31  1  6
 31 32  1  0
 32 33  1  0
 33 34  1  6
 33 13  1  0
 33 16  1  0
 30 17  1  0
 28 22  1  0
M  END
>  <MS_ID>  (2210) 
MS2289

>  <SMILES>  (2210) 
C[C@H](CCC(=O)NCCN(C)C)[C@H]1CC[C@H]2[C@@H]3[C@H](O)[C@H](O)[C@@H]4C[C@H](O)CC[C@]4(C)[C@H]3CC[C@]12C

>  <Structure_dimension>  (2210) 
2D

$$$$
MS2290
     RDKit          2D

 34 37  0  0  0  0  0  0  0  0999 V2000
   -2.5086   -4.2168    0.0000 C   0  0  0  0  0  0  0  0  0  0  0  0
   -1.7489   -2.9234    0.0000 C   0  0  0  0  0  0  0  0  0  0  0  0
   -2.4892   -1.6188    0.0000 C   0  0  0  0  0  0  0  0  0  0  0  0
   -3.9892   -1.6076    0.0000 C   0  0  0  0  0  0  0  0  0  0  0  0
   -4.7295   -0.3030    0.0000 C   0  0  0  0  0  0  0  0  0  0  0  0
   -3.9698    0.9904    0.0000 O   0  0  0  0  0  0  0  0  0  0  0  0
   -6.2294   -0.2918    0.0000 N   0  0  0  0  0  0  0  0  0  0  0  0
   -6.9697    1.0128    0.0000 C   0  0  0  0  0  0  0  0  0  0  0  0
   -8.4697    1.0240    0.0000 C   0  0  0  0  0  0  0  0  0  0  0  0
   -9.2100    2.3286    0.0000 O   0  0  0  0  0  0  0  0  0  0  0  0
   -6.2100    2.3062    0.0000 C   0  0  0  0  0  0  0  0  0  0  0  0
   -4.7101    2.2950    0.0000 O   0  0  0  0  0  0  0  0  0  0  0  0
   -6.9503    3.6108    0.0000 O   0  0  0  0  0  0  0  0  0  0  0  0
   -0.2490   -2.9346    0.0000 C   0  0  0  0  0  0  0  0  0  0  0  0
    0.6236   -4.1547    0.0000 C   0  0  0  0  0  0  0  0  0  0  0  0
    2.0536   -3.7018    0.0000 C   0  0  0  0  0  0  0  0  0  0  0  0
    2.0648   -2.2018    0.0000 C   0  0  0  0  0  0  0  0  0  0  0  0
    3.1870   -1.2065    0.0000 C   0  0  0  0  0  0  0  0  0  0  0  0
    4.6101   -1.6806    0.0000 C   0  0  0  0  0  0  0  0  0  0  0  0
    4.9110   -3.1501    0.0000 O   0  0  0  0  0  0  0  0  0  0  0  0
    5.7323   -0.6853    0.0000 C   0  0  0  0  0  0  0  0  0  0  0  0
    5.4313    0.7842    0.0000 C   0  0  0  0  0  0  0  0  0  0  0  0
    6.5535    1.7796    0.0000 C   0  0  0  0  0  0  0  0  0  0  0  0
    6.2526    3.2491    0.0000 C   0  0  0  0  0  0  0  0  0  0  0  0
    7.3748    4.2444    0.0000 O   0  0  0  0  0  0  0  0  0  0  0  0
    4.8295    3.7232    0.0000 C   0  0  0  0  0  0  0  0  0  0  0  0
    3.7074    2.7279    0.0000 C   0  0  0  0  0  0  0  0  0  0  0  0
    4.0083    1.2584    0.0000 C   0  0  0  0  0  0  0  0  0  0  0  0
    2.5852    1.7325    0.0000 C   0  0  0  0  0  0  0  0  0  0  0  0
    2.8861    0.2630    0.0000 C   0  0  0  0  0  0  0  0  0  0  0  0
    1.4630    0.7372    0.0000 C   0  0  0  0  0  0  0  0  0  0  0  0
    0.3408   -0.2582    0.0000 C   0  0  0  0  0  0  0  0  0  0  0  0
    0.6417   -1.7277    0.0000 C   0  0  0  0  0  0  0  0  0  0  0  0
   -0.8231   -1.4049    0.0000 C   0  0  0  0  0  0  0  0  0  0  0  0
  2  1  1  6
  2  3  1  0
  3  4  1  0
  4  5  1  0
  5  6  2  0
  5  7  1  0
  7  8  1  0
  8  9  1  6
  9 10  1  0
  8 11  1  0
 11 12  2  0
 11 13  1  0
  2 14  1  0
 14 15  1  6
 15 16  1  0
 17 16  1  6
 17 18  1  0
 18 19  1  1
 19 20  1  1
 19 21  1  0
 22 21  1  1
 22 23  1  0
 23 24  1  0
 24 25  1  1
 24 26  1  0
 26 27  1  0
 27 28  1  0
 28 29  1  6
 28 30  1  0
 30 31  1  6
 31 32  1  0
 32 33  1  0
 33 34  1  6
 33 14  1  0
 33 17  1  0
 30 18  1  0
 28 22  1  0
M  END
>  <MS_ID>  (2211) 
MS2290

>  <SMILES>  (2211) 
C[C@H](CCC(=O)N[C@H](CO)C(=O)O)[C@H]1CC[C@H]2[C@@H]3[C@H](O)C[C@@H]4C[C@H](O)CC[C@]4(C)[C@H]3CC[C@]12C

>  <Structure_dimension>  (2211) 
2D

$$$$
MS2291
     RDKit          2D

 39 43  0  0  0  0  0  0  0  0999 V2000
   -7.8836   -1.9888    0.0000 C   0  0  0  0  0  0  0  0  0  0  0  0
   -6.7013   -1.0656    0.0000 C   0  0  0  0  0  0  0  0  0  0  0  0
   -6.9097    0.4199    0.0000 C   0  0  0  0  0  0  0  0  0  0  0  0
   -8.3003    0.9822    0.0000 C   0  0  0  0  0  0  0  0  0  0  0  0
   -8.5087    2.4676    0.0000 C   0  0  0  0  0  0  0  0  0  0  0  0
   -9.8993    3.0299    0.0000 O   0  0  0  0  0  0  0  0  0  0  0  0
   -7.3264    3.3908    0.0000 Cl  0  0  0  0  0  0  0  0  0  0  0  0
   -5.3107   -1.6279    0.0000 C   0  0  0  0  0  0  0  0  0  0  0  0
   -4.9482   -3.0834    0.0000 C   0  0  0  0  0  0  0  0  0  0  0  0
   -3.4519   -3.1884    0.0000 C   0  0  0  0  0  0  0  0  0  0  0  0
   -2.8896   -1.7978    0.0000 C   0  0  0  0  0  0  0  0  0  0  0  0
   -1.4799   -1.2851    0.0000 C   0  0  0  0  0  0  0  0  0  0  0  0
   -0.3311   -2.2496    0.0000 C   0  0  0  0  0  0  0  0  0  0  0  0
   -0.5920   -3.7268    0.0000 O   0  0  0  0  0  0  0  0  0  0  0  0
    1.0786   -1.7370    0.0000 C   0  0  0  0  0  0  0  0  0  0  0  0
    1.3394   -0.2598    0.0000 C   0  0  0  0  0  0  0  0  0  0  0  0
    2.7491    0.2528    0.0000 C   0  0  0  0  0  0  0  0  0  0  0  0
    3.0100    1.7300    0.0000 C   0  0  0  0  0  0  0  0  0  0  0  0
    4.4196    2.2426    0.0000 O   0  0  0  0  0  0  0  0  0  0  0  0
    5.5685    1.2781    0.0000 C   0  0  0  0  0  0  0  0  0  0  0  0
    5.3076   -0.1990    0.0000 O   0  0  0  0  0  0  0  0  0  0  0  0
    6.4564   -1.1635    0.0000 C   0  0  0  0  0  0  0  0  0  0  0  0
    6.1955   -2.6406    0.0000 C   0  0  0  0  0  0  0  0  0  0  0  0
    4.7859   -3.1533    0.0000 O   0  0  0  0  0  0  0  0  0  0  0  0
    7.8661   -0.6508    0.0000 C   0  0  0  0  0  0  0  0  0  0  0  0
    9.0149   -1.6153    0.0000 O   0  0  0  0  0  0  0  0  0  0  0  0
    8.1269    0.8263    0.0000 C   0  0  0  0  0  0  0  0  0  0  0  0
    9.5366    1.3390    0.0000 O   0  0  0  0  0  0  0  0  0  0  0  0
    6.9781    1.7908    0.0000 C   0  0  0  0  0  0  0  0  0  0  0  0
    7.2390    3.2679    0.0000 O   0  0  0  0  0  0  0  0  0  0  0  0
    1.8612    2.6945    0.0000 C   0  0  0  0  0  0  0  0  0  0  0  0
    0.4515    2.1818    0.0000 C   0  0  0  0  0  0  0  0  0  0  0  0
    0.1906    0.7047    0.0000 C   0  0  0  0  0  0  0  0  0  0  0  0
   -0.9582    1.6691    0.0000 C   0  0  0  0  0  0  0  0  0  0  0  0
   -1.2191    0.1920    0.0000 C   0  0  0  0  0  0  0  0  0  0  0  0
   -2.3679    1.1565    0.0000 C   0  0  0  0  0  0  0  0  0  0  0  0
   -3.7775    0.6438    0.0000 C   0  0  0  0  0  0  0  0  0  0  0  0
   -4.0384   -0.8333    0.0000 C   0  0  0  0  0  0  0  0  0  0  0  0
   -5.2817    0.0058    0.0000 C   0  0  0  0  0  0  0  0  0  0  0  0
  2  1  1  6
  2  3  1  0
  3  4  1  0
  4  5  1  0
  5  6  2  0
  5  7  1  0
  2  8  1  0
  8  9  1  6
  9 10  1  0
 11 10  1  6
 11 12  1  0
 12 13  1  1
 13 14  1  6
 13 15  1  0
 16 15  1  1
 16 17  1  0
 17 18  1  0
 18 19  1  1
 20 19  1  1
 20 21  1  0
 21 22  1  0
 22 23  1  1
 23 24  1  0
 22 25  1  0
 25 26  1  6
 25 27  1  0
 27 28  1  1
 27 29  1  0
 29 30  1  6
 18 31  1  0
 31 32  1  0
 32 33  1  0
 33 34  1  6
 33 35  1  0
 35 36  1  6
 36 37  1  0
 37 38  1  0
 38 39  1  6
 38  8  1  0
 38 11  1  0
 35 12  1  0
 33 16  1  0
 29 20  1  0
M  END
>  <MS_ID>  (2212) 
MS2291

>  <SMILES>  (2212) 
C[C@H](CCC(=O)Cl)[C@H]1CC[C@H]2[C@@H]3[C@@H](O)C[C@@H]4C[C@H](O[C@@H]5O[C@H](CO)[C@@H](O)[C@H](O)[C@H]5O)CC[C@]4(C)[C@H]3CC[C@]12C

>  <Structure_dimension>  (2212) 
2D

$$$$
MS2292
     RDKit          2D

 30 33  0  0  0  0  0  0  0  0999 V2000
   -6.1248   -1.7356    0.0000 C   0  0  0  0  0  0  0  0  0  0  0  0
   -4.8520   -0.9418    0.0000 C   0  0  0  0  0  0  0  0  0  0  0  0
   -4.9031    0.5573    0.0000 C   0  0  0  0  0  0  0  0  0  0  0  0
   -6.2269    1.2627    0.0000 C   0  0  0  0  0  0  0  0  0  0  0  0
   -6.2779    2.7618    0.0000 C   0  0  0  0  0  0  0  0  0  0  0  0
   -5.0051    3.5555    0.0000 O   0  0  0  0  0  0  0  0  0  0  0  0
   -7.6017    3.4672    0.0000 O   0  0  0  0  0  0  0  0  0  0  0  0
   -3.5282   -1.6472    0.0000 C   0  0  0  0  0  0  0  0  0  0  0  0
   -3.3208   -3.1328    0.0000 C   0  0  0  0  0  0  0  0  0  0  0  0
   -1.8438   -3.3946    0.0000 C   0  0  0  0  0  0  0  0  0  0  0  0
   -1.1384   -2.0708    0.0000 C   0  0  0  0  0  0  0  0  0  0  0  0
    0.3173   -1.7092    0.0000 C   0  0  0  0  0  0  0  0  0  0  0  0
    1.3584   -2.7891    0.0000 C   0  0  0  0  0  0  0  0  0  0  0  0
    2.8141   -2.4275    0.0000 C   0  0  0  0  0  0  0  0  0  0  0  0
    3.2289   -0.9860    0.0000 C   0  0  0  0  0  0  0  0  0  0  0  0
    4.6846   -0.6244    0.0000 C   0  0  0  0  0  0  0  0  0  0  0  0
    5.0994    0.8171    0.0000 C   0  0  0  0  0  0  0  0  0  0  0  0
    6.5551    1.1787    0.0000 C   0  0  0  0  0  0  0  0  0  0  0  0
    6.9699    2.6203    0.0000 O   0  0  0  0  0  0  0  0  0  0  0  0
    7.5962    0.0988    0.0000 C   0  0  0  0  0  0  0  0  0  0  0  0
    9.0519    0.4604    0.0000 O   0  0  0  0  0  0  0  0  0  0  0  0
    4.0583    1.8971    0.0000 C   0  0  0  0  0  0  0  0  0  0  0  0
    2.6026    1.5355    0.0000 C   0  0  0  0  0  0  0  0  0  0  0  0
    2.1878    0.0939    0.0000 C   0  0  0  0  0  0  0  0  0  0  0  0
    1.1468    1.1739    0.0000 C   0  0  0  0  0  0  0  0  0  0  0  0
    0.7321   -0.2677    0.0000 C   0  0  0  0  0  0  0  0  0  0  0  0
   -0.3090    0.8123    0.0000 C   0  0  0  0  0  0  0  0  0  0  0  0
   -1.7647    0.4507    0.0000 C   0  0  0  0  0  0  0  0  0  0  0  0
   -2.1795   -0.9909    0.0000 C   0  0  0  0  0  0  0  0  0  0  0  0
   -3.3277   -0.0257    0.0000 C   0  0  0  0  0  0  0  0  0  0  0  0
  2  1  1  6
  2  3  1  0
  3  4  1  0
  4  5  1  0
  5  6  2  0
  5  7  1  0
  2  8  1  0
  8  9  1  6
  9 10  1  0
 11 10  1  6
 11 12  1  0
 12 13  1  1
 13 14  1  0
 15 14  1  1
 15 16  1  0
 16 17  1  0
 17 18  1  1
 18 19  2  0
 18 20  1  0
 20 21  1  0
 17 22  1  0
 22 23  1  0
 23 24  1  0
 24 25  1  6
 24 26  1  0
 26 27  1  6
 27 28  1  0
 28 29  1  0
 29 30  1  6
 29  8  1  0
 29 11  1  0
 26 12  1  0
 24 15  1  0
M  END
>  <MS_ID>  (2213) 
MS2292

>  <SMILES>  (2213) 
C[C@H](CCC(=O)O)[C@H]1CC[C@H]2[C@@H]3CC[C@@H]4C[C@H](C(=O)CO)CC[C@]4(C)[C@H]3CC[C@]12C

>  <Structure_dimension>  (2213) 
2D

$$$$
MS2293
     RDKit          2D

 32 36  0  0  0  0  0  0  0  0999 V2000
   -3.4960   -3.2106    0.0000 C   0  0  0  0  0  0  0  0  0  0  0  0
   -2.5154   -2.0755    0.0000 C   0  0  0  0  0  0  0  0  0  0  0  0
   -3.0082   -0.6588    0.0000 C   0  0  0  0  0  0  0  0  0  0  0  0
   -4.4815   -0.3771    0.0000 C   0  0  0  0  0  0  0  0  0  0  0  0
   -4.9742    1.0397    0.0000 C   0  0  0  0  0  0  0  0  0  0  0  0
   -3.9936    2.1748    0.0000 O   0  0  0  0  0  0  0  0  0  0  0  0
   -6.4475    1.3214    0.0000 N   0  0  0  0  0  0  0  0  0  0  0  0
   -7.5414    0.2950    0.0000 C   0  0  0  0  0  0  0  0  0  0  0  0
   -8.8556    1.0181    0.0000 C   0  0  0  0  0  0  0  0  0  0  0  0
   -8.5739    2.4915    0.0000 C   0  0  0  0  0  0  0  0  0  0  0  0
   -7.0856    2.6789    0.0000 C   0  0  0  0  0  0  0  0  0  0  0  0
   -1.0421   -2.3572    0.0000 C   0  0  0  0  0  0  0  0  0  0  0  0
   -0.4040   -3.7147    0.0000 C   0  0  0  0  0  0  0  0  0  0  0  0
    1.0842   -3.5273    0.0000 C   0  0  0  0  0  0  0  0  0  0  0  0
    1.3659   -2.0540    0.0000 C   0  0  0  0  0  0  0  0  0  0  0  0
    2.6493   -1.2775    0.0000 C   0  0  0  0  0  0  0  0  0  0  0  0
    3.9634   -2.0006    0.0000 C   0  0  0  0  0  0  0  0  0  0  0  0
    3.9942   -3.5003    0.0000 O   0  0  0  0  0  0  0  0  0  0  0  0
    5.2468   -1.2241    0.0000 C   0  0  0  0  0  0  0  0  0  0  0  0
    5.2160    0.2756    0.0000 C   0  0  0  0  0  0  0  0  0  0  0  0
    6.4994    1.0521    0.0000 C   0  0  0  0  0  0  0  0  0  0  0  0
    6.4685    2.5518    0.0000 C   0  0  0  0  0  0  0  0  0  0  0  0
    7.7519    3.3283    0.0000 O   0  0  0  0  0  0  0  0  0  0  0  0
    5.1544    3.2749    0.0000 C   0  0  0  0  0  0  0  0  0  0  0  0
    3.8710    2.4984    0.0000 C   0  0  0  0  0  0  0  0  0  0  0  0
    3.9018    0.9987    0.0000 C   0  0  0  0  0  0  0  0  0  0  0  0
    2.5877    1.7219    0.0000 C   0  0  0  0  0  0  0  0  0  0  0  0
    2.6185    0.2222    0.0000 C   0  0  0  0  0  0  0  0  0  0  0  0
    1.3043    0.9454    0.0000 C   0  0  0  0  0  0  0  0  0  0  0  0
    0.0209    0.1689    0.0000 C   0  0  0  0  0  0  0  0  0  0  0  0
    0.0517   -1.3308    0.0000 C   0  0  0  0  0  0  0  0  0  0  0  0
   -1.3308   -0.7490    0.0000 C   0  0  0  0  0  0  0  0  0  0  0  0
  2  1  1  6
  2  3  1  0
  3  4  1  0
  4  5  1  0
  5  6  2  0
  5  7  1  0
  7  8  1  0
  8  9  2  0
  9 10  1  0
 10 11  2  0
  2 12  1  0
 12 13  1  6
 13 14  1  0
 15 14  1  6
 15 16  1  0
 16 17  1  1
 17 18  1  1
 17 19  1  0
 20 19  1  1
 20 21  1  0
 21 22  1  0
 22 23  1  1
 22 24  1  0
 24 25  1  0
 25 26  1  0
 26 27  1  6
 26 28  1  0
 28 29  1  6
 29 30  1  0
 30 31  1  0
 31 32  1  6
 11  7  1  0
 31 12  1  0
 31 15  1  0
 28 16  1  0
 26 20  1  0
M  END
>  <MS_ID>  (2214) 
MS2293

>  <SMILES>  (2214) 
C[C@H](CCC(=O)n1cccc1)[C@H]1CC[C@H]2[C@@H]3[C@H](O)C[C@@H]4C[C@H](O)CC[C@]4(C)[C@H]3CC[C@]12C

>  <Structure_dimension>  (2214) 
2D

$$$$
MS2294
     RDKit          2D

 30 33  0  0  0  0  0  0  0  0999 V2000
   -4.5685   -2.6908    0.0000 C   0  0  0  0  0  0  0  0  0  0  0  0
   -3.4838   -1.6548    0.0000 C   0  0  0  0  0  0  0  0  0  0  0  0
   -3.8388   -0.1974    0.0000 C   0  0  0  0  0  0  0  0  0  0  0  0
   -5.2784    0.2240    0.0000 C   0  0  0  0  0  0  0  0  0  0  0  0
   -5.6333    1.6814    0.0000 C   0  0  0  0  0  0  0  0  0  0  0  0
   -4.5486    2.7174    0.0000 O   0  0  0  0  0  0  0  0  0  0  0  0
   -7.0729    2.1027    0.0000 N   0  0  0  0  0  0  0  0  0  0  0  0
   -7.4279    3.5601    0.0000 N   0  0  0  0  0  0  0  0  0  0  0  0
   -2.0442   -2.0761    0.0000 C   0  0  0  0  0  0  0  0  0  0  0  0
   -1.5389   -3.4884    0.0000 C   0  0  0  0  0  0  0  0  0  0  0  0
   -0.0395   -3.4442    0.0000 C   0  0  0  0  0  0  0  0  0  0  0  0
    0.3818   -2.0046    0.0000 C   0  0  0  0  0  0  0  0  0  0  0  0
    1.7336   -1.3544    0.0000 C   0  0  0  0  0  0  0  0  0  0  0  0
    2.9725   -2.1999    0.0000 C   0  0  0  0  0  0  0  0  0  0  0  0
    2.8597   -3.6957    0.0000 O   0  0  0  0  0  0  0  0  0  0  0  0
    4.3243   -1.5497    0.0000 C   0  0  0  0  0  0  0  0  0  0  0  0
    4.4371   -0.0540    0.0000 C   0  0  0  0  0  0  0  0  0  0  0  0
    5.7888    0.5962    0.0000 C   0  0  0  0  0  0  0  0  0  0  0  0
    5.9016    2.0920    0.0000 C   0  0  0  0  0  0  0  0  0  0  0  0
    7.2534    2.7422    0.0000 O   0  0  0  0  0  0  0  0  0  0  0  0
    4.6627    2.9375    0.0000 C   0  0  0  0  0  0  0  0  0  0  0  0
    3.3109    2.2873    0.0000 C   0  0  0  0  0  0  0  0  0  0  0  0
    3.1981    0.7916    0.0000 C   0  0  0  0  0  0  0  0  0  0  0  0
    1.9591    1.6371    0.0000 C   0  0  0  0  0  0  0  0  0  0  0  0
    1.8464    0.1414    0.0000 C   0  0  0  0  0  0  0  0  0  0  0  0
    0.6074    0.9869    0.0000 C   0  0  0  0  0  0  0  0  0  0  0  0
   -0.7444    0.3367    0.0000 C   0  0  0  0  0  0  0  0  0  0  0  0
   -1.9833    1.1823    0.0000 O   0  0  0  0  0  0  0  0  0  0  0  0
   -0.8572   -1.1590    0.0000 C   0  0  0  0  0  0  0  0  0  0  0  0
   -2.1777   -0.4476    0.0000 C   0  0  0  0  0  0  0  0  0  0  0  0
  2  1  1  6
  2  3  1  0
  3  4  1  0
  4  5  1  0
  5  6  2  0
  5  7  1  0
  7  8  1  0
  2  9  1  0
  9 10  1  6
 10 11  1  0
 12 11  1  6
 12 13  1  0
 13 14  1  1
 14 15  1  6
 14 16  1  0
 17 16  1  1
 17 18  1  0
 18 19  1  0
 19 20  1  1
 19 21  1  0
 21 22  1  0
 22 23  1  0
 23 24  1  6
 23 25  1  0
 25 26  1  6
 26 27  1  0
 27 28  2  0
 27 29  1  0
 29 30  1  6
 29  9  1  0
 29 12  1  0
 25 13  1  0
 23 17  1  0
M  END
>  <MS_ID>  (2215) 
MS2294

>  <SMILES>  (2215) 
C[C@H](CCC(=O)NN)[C@H]1CC[C@H]2[C@@H]3[C@@H](O)C[C@@H]4C[C@H](O)CC[C@]4(C)[C@H]3CC(=O)[C@]12C

>  <Structure_dimension>  (2215) 
2D

$$$$
MS2295
     RDKit          2D

 35 38  0  0  0  0  0  0  0  0999 V2000
   -1.5102   -4.3418    0.0000 C   0  0  0  0  0  0  0  0  0  0  0  0
   -0.8246   -3.0077    0.0000 C   0  0  0  0  0  0  0  0  0  0  0  0
   -1.6372   -1.7469    0.0000 C   0  0  0  0  0  0  0  0  0  0  0  0
   -3.1354   -1.8202    0.0000 C   0  0  0  0  0  0  0  0  0  0  0  0
   -3.9480   -0.5594    0.0000 C   0  0  0  0  0  0  0  0  0  0  0  0
   -3.2624    0.7748    0.0000 O   0  0  0  0  0  0  0  0  0  0  0  0
   -5.4462   -0.6327    0.0000 O   0  0  0  0  0  0  0  0  0  0  0  0
   -6.2588    0.6281    0.0000 C   0  0  0  0  0  0  0  0  0  0  0  0
   -7.7570    0.5548    0.0000 C   0  0  0  0  0  0  0  0  0  0  0  0
   -8.5696    1.8156    0.0000 C   0  0  0  0  0  0  0  0  0  0  0  0
  -10.0678    1.7423    0.0000 S   0  0  0  0  0  0  0  0  0  0  0  0
  -10.1411    3.2405    0.0000 O   0  0  0  0  0  0  0  0  0  0  0  0
   -9.9945    0.2441    0.0000 O   0  0  0  0  0  0  0  0  0  0  0  0
  -11.5660    1.6690    0.0000 O   0  0  0  0  0  0  0  0  0  0  0  0
    0.6736   -2.9344    0.0000 C   0  0  0  0  0  0  0  0  0  0  0  0
    1.6136   -4.1034    0.0000 C   0  0  0  0  0  0  0  0  0  0  0  0
    3.0158   -3.5707    0.0000 C   0  0  0  0  0  0  0  0  0  0  0  0
    2.9425   -2.0725    0.0000 C   0  0  0  0  0  0  0  0  0  0  0  0
    4.0068   -1.0155    0.0000 C   0  0  0  0  0  0  0  0  0  0  0  0
    5.4544   -1.4087    0.0000 C   0  0  0  0  0  0  0  0  0  0  0  0
    5.8376   -2.8589    0.0000 O   0  0  0  0  0  0  0  0  0  0  0  0
    6.5187   -0.3517    0.0000 C   0  0  0  0  0  0  0  0  0  0  0  0
    6.1355    1.0985    0.0000 C   0  0  0  0  0  0  0  0  0  0  0  0
    7.1998    2.1555    0.0000 C   0  0  0  0  0  0  0  0  0  0  0  0
    6.8166    3.6057    0.0000 C   0  0  0  0  0  0  0  0  0  0  0  0
    7.8809    4.6627    0.0000 O   0  0  0  0  0  0  0  0  0  0  0  0
    5.3690    3.9989    0.0000 C   0  0  0  0  0  0  0  0  0  0  0  0
    4.3047    2.9420    0.0000 C   0  0  0  0  0  0  0  0  0  0  0  0
    4.6879    1.4917    0.0000 C   0  0  0  0  0  0  0  0  0  0  0  0
    3.2404    1.8850    0.0000 C   0  0  0  0  0  0  0  0  0  0  0  0
    3.6236    0.4347    0.0000 C   0  0  0  0  0  0  0  0  0  0  0  0
    2.1761    0.8280    0.0000 C   0  0  0  0  0  0  0  0  0  0  0  0
    1.1117   -0.2290    0.0000 C   0  0  0  0  0  0  0  0  0  0  0  0
    1.4950   -1.6792    0.0000 C   0  0  0  0  0  0  0  0  0  0  0  0
    0.0142   -1.4394    0.0000 C   0  0  0  0  0  0  0  0  0  0  0  0
  2  1  1  6
  2  3  1  0
  3  4  1  0
  4  5  1  0
  5  6  2  0
  5  7  1  0
  7  8  1  0
  8  9  1  0
  9 10  1  0
 10 11  1  0
 11 12  2  0
 11 13  2  0
 11 14  1  0
  2 15  1  0
 15 16  1  6
 16 17  1  0
 18 17  1  6
 18 19  1  0
 19 20  1  1
 20 21  1  1
 20 22  1  0
 23 22  1  1
 23 24  1  0
 24 25  1  0
 25 26  1  1
 25 27  1  0
 27 28  1  0
 28 29  1  0
 29 30  1  6
 29 31  1  0
 31 32  1  6
 32 33  1  0
 33 34  1  0
 34 35  1  6
 34 15  1  0
 34 18  1  0
 31 19  1  0
 29 23  1  0
M  END
>  <MS_ID>  (2216) 
MS2295

>  <SMILES>  (2216) 
C[C@H](CCC(=O)OCCCS(=O)(=O)O)[C@H]1CC[C@H]2[C@@H]3[C@H](O)C[C@@H]4C[C@H](O)CC[C@]4(C)[C@H]3CC[C@]12C

>  <Structure_dimension>  (2216) 
2D

$$$$
MS2296
     RDKit          2D

 31 34  0  0  0  0  0  0  0  0999 V2000
   -5.3871   -2.1466    0.0000 C   0  0  0  0  0  0  0  0  0  0  0  0
   -4.1570   -1.2883    0.0000 C   0  0  0  0  0  0  0  0  0  0  0  0
   -4.2853    0.2062    0.0000 C   0  0  0  0  0  0  0  0  0  0  0  0
   -5.6437    0.8424    0.0000 C   0  0  0  0  0  0  0  0  0  0  0  0
   -5.7720    2.3369    0.0000 C   0  0  0  0  0  0  0  0  0  0  0  0
   -4.5419    3.1952    0.0000 O   0  0  0  0  0  0  0  0  0  0  0  0
   -7.1305    2.9730    0.0000 O   0  0  0  0  0  0  0  0  0  0  0  0
   -2.7986   -1.9244    0.0000 C   0  0  0  0  0  0  0  0  0  0  0  0
   -2.5148   -3.3973    0.0000 C   0  0  0  0  0  0  0  0  0  0  0  0
   -1.0262   -3.5825    0.0000 C   0  0  0  0  0  0  0  0  0  0  0  0
   -0.3901   -2.2241    0.0000 C   0  0  0  0  0  0  0  0  0  0  0  0
    1.0451   -1.7879    0.0000 C   0  0  0  0  0  0  0  0  0  0  0  0
    2.1404   -2.8127    0.0000 C   0  0  0  0  0  0  0  0  0  0  0  0
    1.8006   -4.2737    0.0000 O   0  0  0  0  0  0  0  0  0  0  0  0
    3.5756   -2.3764    0.0000 C   0  0  0  0  0  0  0  0  0  0  0  0
    3.9154   -0.9154    0.0000 C   0  0  0  0  0  0  0  0  0  0  0  0
    5.3506   -0.4792    0.0000 C   0  0  0  0  0  0  0  0  0  0  0  0
    5.6904    0.9818    0.0000 C   0  0  0  0  0  0  0  0  0  0  0  0
    7.1256    1.4180    0.0000 O   0  0  0  0  0  0  0  0  0  0  0  0
    4.5950    2.0066    0.0000 C   0  0  0  0  0  0  0  0  0  0  0  0
    3.1599    1.5703    0.0000 C   0  0  0  0  0  0  0  0  0  0  0  0
    2.8200    0.1093    0.0000 C   0  0  0  0  0  0  0  0  0  0  0  0
    1.7247    1.1341    0.0000 C   0  0  0  0  0  0  0  0  0  0  0  0
    2.0645    2.5951    0.0000 C   0  0  0  0  0  0  0  0  0  0  0  0
    0.9691    3.6199    0.0000 C   0  0  0  0  0  0  0  0  0  0  0  0
    1.3089    5.0809    0.0000 O   0  0  0  0  0  0  0  0  0  0  0  0
    1.3849   -0.3269    0.0000 C   0  0  0  0  0  0  0  0  0  0  0  0
    0.2895    0.6979    0.0000 C   0  0  0  0  0  0  0  0  0  0  0  0
   -1.1457    0.2617    0.0000 C   0  0  0  0  0  0  0  0  0  0  0  0
   -1.4855   -1.1993    0.0000 C   0  0  0  0  0  0  0  0  0  0  0  0
   -2.6819   -0.2947    0.0000 C   0  0  0  0  0  0  0  0  0  0  0  0
  2  1  1  6
  2  3  1  0
  3  4  1  0
  4  5  1  0
  5  6  2  0
  5  7  1  0
  2  8  1  0
  8  9  1  6
  9 10  1  0
 11 10  1  6
 11 12  1  0
 12 13  1  1
 13 14  1  6
 13 15  1  0
 16 15  1  1
 16 17  1  0
 17 18  1  0
 18 19  1  1
 18 20  1  0
 20 21  1  0
 21 22  1  0
 22 23  1  6
 23 24  1  0
 24 25  1  0
 25 26  1  0
 22 27  1  0
 27 28  1  6
 28 29  1  0
 29 30  1  0
 30 31  1  6
 30  8  1  0
 30 11  1  0
 27 12  1  0
 22 16  1  0
M  END
>  <MS_ID>  (2217) 
MS2296

>  <SMILES>  (2217) 
C[C@H](CCC(=O)O)[C@H]1CC[C@H]2[C@@H]3[C@@H](O)C[C@@H]4C[C@H](O)CC[C@]4(CCCO)[C@H]3CC[C@]12C

>  <Structure_dimension>  (2217) 
2D

$$$$
MS2297
     RDKit          2D

 36 40  0  0  0  0  0  0  0  0999 V2000
   -1.5726   -4.5824    0.0000 C   0  0  0  0  0  0  0  0  0  0  0  0
   -0.9679   -3.2097    0.0000 C   0  0  0  0  0  0  0  0  0  0  0  0
   -1.8544   -1.9997    0.0000 C   0  0  0  0  0  0  0  0  0  0  0  0
   -3.3455   -2.1623    0.0000 C   0  0  0  0  0  0  0  0  0  0  0  0
   -4.2320   -0.9523    0.0000 C   0  0  0  0  0  0  0  0  0  0  0  0
   -3.6273    0.4204    0.0000 O   0  0  0  0  0  0  0  0  0  0  0  0
   -5.7232   -1.1150    0.0000 N   0  0  0  0  0  0  0  0  0  0  0  0
   -6.6096    0.0950    0.0000 C   0  0  0  0  0  0  0  0  0  0  0  0
   -8.1008   -0.0676    0.0000 C   0  0  0  0  0  0  0  0  0  0  0  0
   -8.9872    1.1424    0.0000 C   0  0  0  0  0  0  0  0  0  0  0  0
  -10.4872    1.1365    0.0000 C   0  0  0  0  0  0  0  0  0  0  0  0
  -10.9564    2.5612    0.0000 N   0  0  0  0  0  0  0  0  0  0  0  0
   -9.7463    3.4477    0.0000 C   0  0  0  0  0  0  0  0  0  0  0  0
   -8.5293    2.5708    0.0000 N   0  0  0  0  0  0  0  0  0  0  0  0
    0.5232   -3.0470    0.0000 C   0  0  0  0  0  0  0  0  0  0  0  0
    1.5313   -4.1578    0.0000 C   0  0  0  0  0  0  0  0  0  0  0  0
    2.8992   -3.5423    0.0000 C   0  0  0  0  0  0  0  0  0  0  0  0
    2.7365   -2.0511    0.0000 C   0  0  0  0  0  0  0  0  0  0  0  0
    3.7358   -0.9324    0.0000 C   0  0  0  0  0  0  0  0  0  0  0  0
    5.2043   -1.2385    0.0000 C   0  0  0  0  0  0  0  0  0  0  0  0
    5.6734   -2.6633    0.0000 O   0  0  0  0  0  0  0  0  0  0  0  0
    6.2036   -0.1198    0.0000 C   0  0  0  0  0  0  0  0  0  0  0  0
    7.6720   -0.4259    0.0000 O   0  0  0  0  0  0  0  0  0  0  0  0
    5.7344    1.3049    0.0000 C   0  0  0  0  0  0  0  0  0  0  0  0
    6.7337    2.4236    0.0000 C   0  0  0  0  0  0  0  0  0  0  0  0
    6.2645    3.8483    0.0000 C   0  0  0  0  0  0  0  0  0  0  0  0
    7.2638    4.9670    0.0000 O   0  0  0  0  0  0  0  0  0  0  0  0
    4.7961    4.1544    0.0000 C   0  0  0  0  0  0  0  0  0  0  0  0
    3.7968    3.0357    0.0000 C   0  0  0  0  0  0  0  0  0  0  0  0
    4.2660    1.6110    0.0000 C   0  0  0  0  0  0  0  0  0  0  0  0
    2.7975    1.9171    0.0000 C   0  0  0  0  0  0  0  0  0  0  0  0
    3.2667    0.4923    0.0000 C   0  0  0  0  0  0  0  0  0  0  0  0
    1.7982    0.7984    0.0000 C   0  0  0  0  0  0  0  0  0  0  0  0
    0.7989   -0.3203    0.0000 C   0  0  0  0  0  0  0  0  0  0  0  0
    1.2681   -1.7450    0.0000 C   0  0  0  0  0  0  0  0  0  0  0  0
   -0.2243   -1.5941    0.0000 C   0  0  0  0  0  0  0  0  0  0  0  0
  2  1  1  6
  2  3  1  0
  3  4  1  0
  4  5  1  0
  5  6  2  0
  5  7  1  0
  7  8  1  0
  8  9  1  0
  9 10  1  0
 10 11  2  0
 11 12  1  0
 12 13  1  0
 13 14  2  0
  2 15  1  0
 15 16  1  6
 16 17  1  0
 18 17  1  6
 18 19  1  0
 19 20  1  1
 20 21  1  1
 20 22  1  0
 22 23  1  1
 22 24  1  0
 24 25  1  1
 25 26  1  0
 26 27  1  1
 26 28  1  0
 28 29  1  0
 29 30  1  0
 30 31  1  6
 30 32  1  0
 32 33  1  6
 33 34  1  0
 34 35  1  0
 35 36  1  6
 14 10  1  0
 35 15  1  0
 35 18  1  0
 32 19  1  0
 30 24  1  0
M  END
>  <MS_ID>  (2218) 
MS2297

>  <SMILES>  (2218) 
C[C@H](CCC(=O)NCCc1c[nH]cn1)[C@H]1CC[C@H]2[C@@H]3[C@H](O)[C@H](O)[C@@H]4C[C@H](O)CC[C@]4(C)[C@H]3CC[C@]12C

>  <Structure_dimension>  (2218) 
2D

$$$$
MS2298
     RDKit          2D

 29 32  0  0  0  0  0  0  0  0999 V2000
   -5.0303   -2.1373    0.0000 C   0  0  0  0  0  0  0  0  0  0  0  0
   -3.8594   -1.1998    0.0000 C   0  0  0  0  0  0  0  0  0  0  0  0
   -4.0858    0.2830    0.0000 C   0  0  0  0  0  0  0  0  0  0  0  0
   -5.4831    0.8284    0.0000 C   0  0  0  0  0  0  0  0  0  0  0  0
   -5.7095    2.3112    0.0000 C   0  0  0  0  0  0  0  0  0  0  0  0
   -4.5386    3.2487    0.0000 O   0  0  0  0  0  0  0  0  0  0  0  0
   -7.1069    2.8565    0.0000 O   0  0  0  0  0  0  0  0  0  0  0  0
   -2.4620   -1.7451    0.0000 C   0  0  0  0  0  0  0  0  0  0  0  0
   -2.0818   -3.1961    0.0000 C   0  0  0  0  0  0  0  0  0  0  0  0
   -0.5844   -3.2830    0.0000 C   0  0  0  0  0  0  0  0  0  0  0  0
   -0.0390   -1.8856    0.0000 C   0  0  0  0  0  0  0  0  0  0  0  0
    1.3643   -1.3559    0.0000 C   0  0  0  0  0  0  0  0  0  0  0  0
    2.5248   -2.3063    0.0000 C   0  0  0  0  0  0  0  0  0  0  0  0
    2.2819   -3.7865    0.0000 Cl  0  0  0  0  0  0  0  0  0  0  0  0
    3.9281   -1.7765    0.0000 C   0  0  0  0  0  0  0  0  0  0  0  0
    4.1710   -0.2963    0.0000 C   0  0  0  0  0  0  0  0  0  0  0  0
    5.5743    0.2334    0.0000 C   0  0  0  0  0  0  0  0  0  0  0  0
    5.8172    1.7136    0.0000 C   0  0  0  0  0  0  0  0  0  0  0  0
    7.2205    2.2434    0.0000 O   0  0  0  0  0  0  0  0  0  0  0  0
    4.6568    2.6641    0.0000 C   0  0  0  0  0  0  0  0  0  0  0  0
    3.2534    2.1343    0.0000 C   0  0  0  0  0  0  0  0  0  0  0  0
    3.0105    0.6541    0.0000 C   0  0  0  0  0  0  0  0  0  0  0  0
    1.8501    1.6046    0.0000 C   0  0  0  0  0  0  0  0  0  0  0  0
    1.6072    0.1244    0.0000 C   0  0  0  0  0  0  0  0  0  0  0  0
    0.4467    1.0748    0.0000 C   0  0  0  0  0  0  0  0  0  0  0  0
   -0.9566    0.5450    0.0000 C   0  0  0  0  0  0  0  0  0  0  0  0
   -2.1170    1.4955    0.0000 O   0  0  0  0  0  0  0  0  0  0  0  0
   -1.1995   -0.9352    0.0000 C   0  0  0  0  0  0  0  0  0  0  0  0
   -2.4529   -0.1112    0.0000 C   0  0  0  0  0  0  0  0  0  0  0  0
  2  1  1  6
  2  3  1  0
  3  4  1  0
  4  5  1  0
  5  6  2  0
  5  7  1  0
  2  8  1  0
  8  9  1  6
  9 10  1  0
 11 10  1  6
 11 12  1  0
 12 13  1  1
 13 14  1  6
 13 15  1  0
 16 15  1  1
 16 17  1  0
 17 18  1  0
 18 19  1  1
 18 20  1  0
 20 21  1  0
 21 22  1  0
 22 23  1  6
 22 24  1  0
 24 25  1  6
 25 26  1  0
 26 27  2  0
 26 28  1  0
 28 29  1  6
 28  8  1  0
 28 11  1  0
 24 12  1  0
 22 16  1  0
M  END
>  <MS_ID>  (2219) 
MS2298

>  <SMILES>  (2219) 
C[C@H](CCC(=O)O)[C@H]1CC[C@H]2[C@@H]3[C@@H](Cl)C[C@@H]4C[C@H](O)CC[C@]4(C)[C@H]3CC(=O)[C@]12C

>  <Structure_dimension>  (2219) 
2D

$$$$
MS2299
     RDKit          2D

 33 37  0  0  0  0  0  0  0  0999 V2000
   -3.1427   -3.3426    0.0000 C   0  0  0  0  0  0  0  0  0  0  0  0
   -2.1899   -2.1841    0.0000 C   0  0  0  0  0  0  0  0  0  0  0  0
   -2.7167   -0.7797    0.0000 C   0  0  0  0  0  0  0  0  0  0  0  0
   -4.1964   -0.5338    0.0000 C   0  0  0  0  0  0  0  0  0  0  0  0
   -4.7233    0.8707    0.0000 C   0  0  0  0  0  0  0  0  0  0  0  0
   -3.7705    2.0292    0.0000 O   0  0  0  0  0  0  0  0  0  0  0  0
   -6.2030    1.1166    0.0000 N   0  0  0  0  0  0  0  0  0  0  0  0
   -6.7299    2.5210    0.0000 C   0  0  0  0  0  0  0  0  0  0  0  0
   -8.2096    2.7669    0.0000 C   0  0  0  0  0  0  0  0  0  0  0  0
   -9.1624    1.6084    0.0000 O   0  0  0  0  0  0  0  0  0  0  0  0
   -8.6355    0.2040    0.0000 C   0  0  0  0  0  0  0  0  0  0  0  0
   -7.1558   -0.0419    0.0000 C   0  0  0  0  0  0  0  0  0  0  0  0
   -0.7102   -2.4300    0.0000 C   0  0  0  0  0  0  0  0  0  0  0  0
   -0.0394   -3.7717    0.0000 C   0  0  0  0  0  0  0  0  0  0  0  0
    1.4439   -3.5483    0.0000 C   0  0  0  0  0  0  0  0  0  0  0  0
    1.6898   -2.0686    0.0000 C   0  0  0  0  0  0  0  0  0  0  0  0
    2.9540   -1.2613    0.0000 C   0  0  0  0  0  0  0  0  0  0  0  0
    4.2853   -1.9524    0.0000 C   0  0  0  0  0  0  0  0  0  0  0  0
    4.3524   -3.4509    0.0000 O   0  0  0  0  0  0  0  0  0  0  0  0
    5.5495   -1.1451    0.0000 C   0  0  0  0  0  0  0  0  0  0  0  0
    5.4824    0.3534    0.0000 C   0  0  0  0  0  0  0  0  0  0  0  0
    6.7466    1.1608    0.0000 C   0  0  0  0  0  0  0  0  0  0  0  0
    6.6795    2.6593    0.0000 C   0  0  0  0  0  0  0  0  0  0  0  0
    7.9437    3.4666    0.0000 O   0  0  0  0  0  0  0  0  0  0  0  0
    5.3482    3.3504    0.0000 C   0  0  0  0  0  0  0  0  0  0  0  0
    4.0840    2.5431    0.0000 C   0  0  0  0  0  0  0  0  0  0  0  0
    4.1511    1.0446    0.0000 C   0  0  0  0  0  0  0  0  0  0  0  0
    2.8198    1.7357    0.0000 C   0  0  0  0  0  0  0  0  0  0  0  0
    2.8869    0.2372    0.0000 C   0  0  0  0  0  0  0  0  0  0  0  0
    1.5556    0.9284    0.0000 C   0  0  0  0  0  0  0  0  0  0  0  0
    0.2915    0.1210    0.0000 C   0  0  0  0  0  0  0  0  0  0  0  0
    0.3586   -1.3775    0.0000 C   0  0  0  0  0  0  0  0  0  0  0  0
   -1.0377   -0.8293    0.0000 C   0  0  0  0  0  0  0  0  0  0  0  0
  2  1  1  6
  2  3  1  0
  3  4  1  0
  4  5  1  0
  5  6  2  0
  5  7  1  0
  7  8  1  0
  8  9  1  0
  9 10  1  0
 10 11  1  0
 11 12  1  0
  2 13  1  0
 13 14  1  6
 14 15  1  0
 16 15  1  6
 16 17  1  0
 17 18  1  1
 18 19  1  1
 18 20  1  0
 21 20  1  1
 21 22  1  0
 22 23  1  0
 23 24  1  1
 23 25  1  0
 25 26  1  0
 26 27  1  0
 27 28  1  6
 27 29  1  0
 29 30  1  6
 30 31  1  0
 31 32  1  0
 32 33  1  6
 12  7  1  0
 32 13  1  0
 32 16  1  0
 29 17  1  0
 27 21  1  0
M  END
>  <MS_ID>  (2220) 
MS2299

>  <SMILES>  (2220) 
C[C@H](CCC(=O)N1CCOCC1)[C@H]1CC[C@H]2[C@@H]3[C@H](O)C[C@@H]4C[C@H](O)CC[C@]4(C)[C@H]3CC[C@]12C

>  <Structure_dimension>  (2220) 
2D

$$$$
MS2300
     RDKit          2D

 33 37  0  0  0  0  0  0  0  0999 V2000
   -3.6298   -3.2263    0.0000 C   0  0  0  0  0  0  0  0  0  0  0  0
   -2.6726   -2.0715    0.0000 C   0  0  0  0  0  0  0  0  0  0  0  0
   -3.1941   -0.6650    0.0000 C   0  0  0  0  0  0  0  0  0  0  0  0
   -4.6728   -0.4135    0.0000 C   0  0  0  0  0  0  0  0  0  0  0  0
   -5.1944    0.9930    0.0000 C   0  0  0  0  0  0  0  0  0  0  0  0
   -4.2371    2.1478    0.0000 O   0  0  0  0  0  0  0  0  0  0  0  0
   -6.6731    1.2445    0.0000 C   0  0  0  0  0  0  0  0  0  0  0  0
   -7.7458    0.1960    0.0000 C   0  0  0  0  0  0  0  0  0  0  0  0
   -9.0745    0.8923    0.0000 C   0  0  0  0  0  0  0  0  0  0  0  0
   -8.8229    2.3710    0.0000 C   0  0  0  0  0  0  0  0  0  0  0  0
   -7.3388    2.5887    0.0000 N   0  0  0  0  0  0  0  0  0  0  0  0
   -1.1938   -2.3230    0.0000 C   0  0  0  0  0  0  0  0  0  0  0  0
   -0.5281   -3.6672    0.0000 C   0  0  0  0  0  0  0  0  0  0  0  0
    0.9560   -3.4495    0.0000 C   0  0  0  0  0  0  0  0  0  0  0  0
    1.2075   -1.9708    0.0000 C   0  0  0  0  0  0  0  0  0  0  0  0
    2.4748   -1.1682    0.0000 C   0  0  0  0  0  0  0  0  0  0  0  0
    3.8034   -1.8644    0.0000 C   0  0  0  0  0  0  0  0  0  0  0  0
    3.8648   -3.3632    0.0000 O   0  0  0  0  0  0  0  0  0  0  0  0
    5.0707   -1.0619    0.0000 C   0  0  0  0  0  0  0  0  0  0  0  0
    6.3993   -1.7581    0.0000 O   0  0  0  0  0  0  0  0  0  0  0  0
    5.0093    0.4368    0.0000 C   0  0  0  0  0  0  0  0  0  0  0  0
    6.2766    1.2394    0.0000 C   0  0  0  0  0  0  0  0  0  0  0  0
    6.2152    2.7381    0.0000 C   0  0  0  0  0  0  0  0  0  0  0  0
    7.4824    3.5407    0.0000 O   0  0  0  0  0  0  0  0  0  0  0  0
    4.8865    3.4343    0.0000 C   0  0  0  0  0  0  0  0  0  0  0  0
    3.6193    2.6318    0.0000 C   0  0  0  0  0  0  0  0  0  0  0  0
    3.6807    1.1331    0.0000 C   0  0  0  0  0  0  0  0  0  0  0  0
    2.3520    1.8293    0.0000 C   0  0  0  0  0  0  0  0  0  0  0  0
    2.4134    0.3305    0.0000 C   0  0  0  0  0  0  0  0  0  0  0  0
    1.0848    1.0267    0.0000 C   0  0  0  0  0  0  0  0  0  0  0  0
   -0.1825    0.2242    0.0000 C   0  0  0  0  0  0  0  0  0  0  0  0
   -0.1211   -1.2745    0.0000 C   0  0  0  0  0  0  0  0  0  0  0  0
   -1.5152   -0.7210    0.0000 C   0  0  0  0  0  0  0  0  0  0  0  0
  2  1  1  6
  2  3  1  0
  3  4  1  0
  4  5  1  0
  5  6  2  0
  5  7  1  0
  7  8  2  0
  8  9  1  0
  9 10  2  0
 10 11  1  0
  2 12  1  0
 12 13  1  6
 13 14  1  0
 15 14  1  6
 15 16  1  0
 16 17  1  1
 17 18  1  1
 17 19  1  0
 19 20  1  1
 19 21  1  0
 21 22  1  1
 22 23  1  0
 23 24  1  1
 23 25  1  0
 25 26  1  0
 26 27  1  0
 27 28  1  6
 27 29  1  0
 29 30  1  6
 30 31  1  0
 31 32  1  0
 32 33  1  6
 11  7  1  0
 32 12  1  0
 32 15  1  0
 29 16  1  0
 27 21  1  0
M  END
>  <MS_ID>  (2221) 
MS2300

>  <SMILES>  (2221) 
C[C@H](CCC(=O)c1ccc[nH]1)[C@H]1CC[C@H]2[C@@H]3[C@H](O)[C@H](O)[C@@H]4C[C@H](O)CC[C@]4(C)[C@H]3CC[C@]12C

>  <Structure_dimension>  (2221) 
2D

$$$$
MS2302
     RDKit          2D

 28 31  0  0  0  0  0  0  0  0999 V2000
   -4.7187    4.3438    0.0000 C   0  0  0  0  0  0  0  0  0  0  0  0
   -4.4488    2.8683    0.0000 S   0  0  0  0  0  0  0  0  0  0  0  0
   -5.5917    1.8968    0.0000 C   0  0  0  0  0  0  0  0  0  0  0  0
   -7.0045    2.4008    0.0000 O   0  0  0  0  0  0  0  0  0  0  0  0
   -5.3218    0.4213    0.0000 C   0  0  0  0  0  0  0  0  0  0  0  0
   -3.9090   -0.0827    0.0000 C   0  0  0  0  0  0  0  0  0  0  0  0
   -3.6391   -1.5583    0.0000 C   0  0  0  0  0  0  0  0  0  0  0  0
   -4.7819   -2.5298    0.0000 C   0  0  0  0  0  0  0  0  0  0  0  0
   -2.2263   -2.0623    0.0000 C   0  0  0  0  0  0  0  0  0  0  0  0
   -1.8036   -3.5015    0.0000 C   0  0  0  0  0  0  0  0  0  0  0  0
   -0.3042   -3.5443    0.0000 C   0  0  0  0  0  0  0  0  0  0  0  0
    0.1998   -2.1315    0.0000 C   0  0  0  0  0  0  0  0  0  0  0  0
    1.5870   -1.5607    0.0000 C   0  0  0  0  0  0  0  0  0  0  0  0
    2.7749   -2.4766    0.0000 C   0  0  0  0  0  0  0  0  0  0  0  0
    4.1620   -1.9058    0.0000 C   0  0  0  0  0  0  0  0  0  0  0  0
    4.3613   -0.4191    0.0000 C   0  0  0  0  0  0  0  0  0  0  0  0
    5.7484    0.1517    0.0000 C   0  0  0  0  0  0  0  0  0  0  0  0
    5.9477    1.6384    0.0000 C   0  0  0  0  0  0  0  0  0  0  0  0
    7.3348    2.2092    0.0000 O   0  0  0  0  0  0  0  0  0  0  0  0
    4.7598    2.5543    0.0000 C   0  0  0  0  0  0  0  0  0  0  0  0
    3.3726    1.9835    0.0000 C   0  0  0  0  0  0  0  0  0  0  0  0
    3.1734    0.4968    0.0000 C   0  0  0  0  0  0  0  0  0  0  0  0
    1.9855    1.4127    0.0000 C   0  0  0  0  0  0  0  0  0  0  0  0
    1.7862   -0.0740    0.0000 C   0  0  0  0  0  0  0  0  0  0  0  0
    0.5983    0.8419    0.0000 C   0  0  0  0  0  0  0  0  0  0  0  0
   -0.7888    0.2712    0.0000 C   0  0  0  0  0  0  0  0  0  0  0  0
   -0.9881   -1.2155    0.0000 C   0  0  0  0  0  0  0  0  0  0  0  0
   -2.2652   -0.4288    0.0000 C   0  0  0  0  0  0  0  0  0  0  0  0
  1  2  1  0
  2  3  1  0
  3  4  2  0
  3  5  1  0
  5  6  1  0
  6  7  1  0
  7  8  1  6
  7  9  1  0
  9 10  1  6
 10 11  1  0
 12 11  1  6
 12 13  1  0
 13 14  1  1
 14 15  1  0
 16 15  1  1
 16 17  1  0
 17 18  1  0
 18 19  1  1
 18 20  1  0
 20 21  1  0
 21 22  1  0
 22 23  1  6
 22 24  1  0
 24 25  1  6
 25 26  1  0
 26 27  1  0
 27 28  1  6
 27  9  1  0
 27 12  1  0
 24 13  1  0
 22 16  1  0
M  END
>  <MS_ID>  (2222) 
MS2302

>  <SMILES>  (2222) 
CSC(=O)CC[C@@H](C)[C@H]1CC[C@H]2[C@@H]3CC[C@@H]4C[C@H](O)CC[C@]4(C)[C@H]3CC[C@]12C

>  <Structure_dimension>  (2222) 
2D

$$$$
MS2304
     RDKit          2D

 32 35  0  0  0  0  0  0  0  0999 V2000
   -2.2590   -3.8656    0.0000 C   0  0  0  0  0  0  0  0  0  0  0  0
   -1.4462   -2.6050    0.0000 C   0  0  0  0  0  0  0  0  0  0  0  0
   -2.1316   -1.2707    0.0000 C   0  0  0  0  0  0  0  0  0  0  0  0
   -3.6297   -1.1971    0.0000 C   0  0  0  0  0  0  0  0  0  0  0  0
   -4.3151    0.1372    0.0000 C   0  0  0  0  0  0  0  0  0  0  0  0
   -3.5023    1.3978    0.0000 O   0  0  0  0  0  0  0  0  0  0  0  0
   -5.8133    0.2108    0.0000 C   0  0  0  0  0  0  0  0  0  0  0  0
   -6.4987    1.5450    0.0000 O   0  0  0  0  0  0  0  0  0  0  0  0
   -7.9968    1.6186    0.0000 S   0  0  0  0  0  0  0  0  0  0  0  0
   -8.0704    0.1205    0.0000 O   0  0  0  0  0  0  0  0  0  0  0  0
   -7.9232    3.1168    0.0000 O   0  0  0  0  0  0  0  0  0  0  0  0
   -9.4950    1.6922    0.0000 O   0  0  0  0  0  0  0  0  0  0  0  0
    0.0520   -2.6786    0.0000 C   0  0  0  0  0  0  0  0  0  0  0  0
    0.8731   -3.9339    0.0000 C   0  0  0  0  0  0  0  0  0  0  0  0
    2.3207   -3.5409    0.0000 C   0  0  0  0  0  0  0  0  0  0  0  0
    2.3943   -2.0427    0.0000 C   0  0  0  0  0  0  0  0  0  0  0  0
    3.5569   -1.0949    0.0000 C   0  0  0  0  0  0  0  0  0  0  0  0
    4.9590   -1.6279    0.0000 C   0  0  0  0  0  0  0  0  0  0  0  0
    6.1216   -0.6801    0.0000 C   0  0  0  0  0  0  0  0  0  0  0  0
    5.8821    0.8006    0.0000 C   0  0  0  0  0  0  0  0  0  0  0  0
    7.0448    1.7484    0.0000 C   0  0  0  0  0  0  0  0  0  0  0  0
    6.8053    3.2292    0.0000 C   0  0  0  0  0  0  0  0  0  0  0  0
    5.4031    3.7622    0.0000 C   0  0  0  0  0  0  0  0  0  0  0  0
    4.2405    2.8144    0.0000 C   0  0  0  0  0  0  0  0  0  0  0  0
    4.4800    1.3336    0.0000 C   0  0  0  0  0  0  0  0  0  0  0  0
    3.0779    1.8666    0.0000 C   0  0  0  0  0  0  0  0  0  0  0  0
    3.3174    0.3858    0.0000 C   0  0  0  0  0  0  0  0  0  0  0  0
    1.9153    0.9188    0.0000 C   0  0  0  0  0  0  0  0  0  0  0  0
    0.7527   -0.0290    0.0000 C   0  0  0  0  0  0  0  0  0  0  0  0
   -0.6495    0.5040    0.0000 O   0  0  0  0  0  0  0  0  0  0  0  0
    0.9922   -1.5098    0.0000 C   0  0  0  0  0  0  0  0  0  0  0  0
   -0.4580   -1.1263    0.0000 C   0  0  0  0  0  0  0  0  0  0  0  0
  2  1  1  6
  2  3  1  0
  3  4  1  0
  4  5  1  0
  5  6  2  0
  5  7  1  0
  7  8  1  0
  8  9  1  0
  9 10  2  0
  9 11  2  0
  9 12  1  0
  2 13  1  0
 13 14  1  6
 14 15  1  0
 16 15  1  6
 16 17  1  0
 17 18  1  1
 18 19  1  0
 20 19  1  1
 20 21  1  0
 21 22  1  0
 22 23  1  0
 23 24  1  0
 24 25  1  0
 25 26  1  6
 25 27  1  0
 27 28  1  6
 28 29  1  0
 29 30  1  6
 29 31  1  0
 31 32  1  6
 31 13  1  0
 31 16  1  0
 27 17  1  0
 25 20  1  0
M  END
>  <MS_ID>  (2223) 
MS2304

>  <SMILES>  (2223) 
C[C@H](CCC(=O)COS(=O)(=O)O)[C@H]1CC[C@H]2[C@@H]3CC[C@@H]4CCCC[C@]4(C)[C@H]3C[C@@H](O)[C@]12C

>  <Structure_dimension>  (2223) 
2D

$$$$
MS2305
     RDKit          2D

 28 31  0  0  0  0  0  0  0  0999 V2000
   -7.0197    2.5012    0.0000 C   0  0  0  0  0  0  0  0  0  0  0  0
   -5.5909    2.0446    0.0000 C   0  0  0  0  0  0  0  0  0  0  0  0
   -4.4811    3.0537    0.0000 O   0  0  0  0  0  0  0  0  0  0  0  0
   -5.2720    0.5789    0.0000 C   0  0  0  0  0  0  0  0  0  0  0  0
   -3.8431    0.1223    0.0000 C   0  0  0  0  0  0  0  0  0  0  0  0
   -3.5242   -1.3434    0.0000 C   0  0  0  0  0  0  0  0  0  0  0  0
   -4.6340   -2.3524    0.0000 C   0  0  0  0  0  0  0  0  0  0  0  0
   -2.0954   -1.8000    0.0000 C   0  0  0  0  0  0  0  0  0  0  0  0
   -1.6249   -3.2243    0.0000 C   0  0  0  0  0  0  0  0  0  0  0  0
   -0.1249   -3.2170    0.0000 C   0  0  0  0  0  0  0  0  0  0  0  0
    0.3317   -1.7882    0.0000 C   0  0  0  0  0  0  0  0  0  0  0  0
    1.6990   -1.1715    0.0000 C   0  0  0  0  0  0  0  0  0  0  0  0
    2.9168   -2.0473    0.0000 C   0  0  0  0  0  0  0  0  0  0  0  0
    2.7672   -3.5398    0.0000 O   0  0  0  0  0  0  0  0  0  0  0  0
    4.2841   -1.4305    0.0000 C   0  0  0  0  0  0  0  0  0  0  0  0
    4.4337    0.0620    0.0000 C   0  0  0  0  0  0  0  0  0  0  0  0
    5.8011    0.6787    0.0000 C   0  0  0  0  0  0  0  0  0  0  0  0
    5.9506    2.1713    0.0000 C   0  0  0  0  0  0  0  0  0  0  0  0
    4.7328    3.0471    0.0000 C   0  0  0  0  0  0  0  0  0  0  0  0
    3.3655    2.4303    0.0000 C   0  0  0  0  0  0  0  0  0  0  0  0
    3.2159    0.9378    0.0000 C   0  0  0  0  0  0  0  0  0  0  0  0
    1.9981    1.8136    0.0000 C   0  0  0  0  0  0  0  0  0  0  0  0
    1.8486    0.3211    0.0000 C   0  0  0  0  0  0  0  0  0  0  0  0
    0.6308    1.1968    0.0000 C   0  0  0  0  0  0  0  0  0  0  0  0
   -0.7366    0.5801    0.0000 C   0  0  0  0  0  0  0  0  0  0  0  0
   -1.9543    1.4559    0.0000 O   0  0  0  0  0  0  0  0  0  0  0  0
   -0.8861   -0.9124    0.0000 C   0  0  0  0  0  0  0  0  0  0  0  0
   -2.1888   -0.1687    0.0000 C   0  0  0  0  0  0  0  0  0  0  0  0
  1  2  1  0
  2  3  2  0
  2  4  1  0
  4  5  1  0
  5  6  1  0
  6  7  1  6
  6  8  1  0
  8  9  1  6
  9 10  1  0
 11 10  1  6
 11 12  1  0
 12 13  1  1
 13 14  1  1
 13 15  1  0
 16 15  1  1
 16 17  1  0
 17 18  1  0
 18 19  1  0
 19 20  1  0
 20 21  1  0
 21 22  1  6
 21 23  1  0
 23 24  1  6
 24 25  1  0
 25 26  1  1
 25 27  1  0
 27 28  1  6
 27  8  1  0
 27 11  1  0
 23 12  1  0
 21 16  1  0
M  END
>  <MS_ID>  (2224) 
MS2305

>  <SMILES>  (2224) 
CC(=O)CC[C@@H](C)[C@H]1CC[C@H]2[C@@H]3[C@H](O)C[C@@H]4CCCC[C@]4(C)[C@H]3C[C@H](O)[C@]12C

>  <Structure_dimension>  (2224) 
2D

$$$$
MS2306
     RDKit          2D

 31 34  0  0  0  0  0  0  0  0999 V2000
   -4.0024   -3.4860    0.0000 C   0  0  0  0  0  0  0  0  0  0  0  0
   -3.0477   -2.3291    0.0000 C   0  0  0  0  0  0  0  0  0  0  0  0
   -3.5723   -0.9238    0.0000 C   0  0  0  0  0  0  0  0  0  0  0  0
   -5.0516   -0.6754    0.0000 C   0  0  0  0  0  0  0  0  0  0  0  0
   -5.5761    0.7298    0.0000 C   0  0  0  0  0  0  0  0  0  0  0  0
   -7.0554    0.9782    0.0000 O   0  0  0  0  0  0  0  0  0  0  0  0
   -4.6214    1.8868    0.0000 O   0  0  0  0  0  0  0  0  0  0  0  0
   -5.1460    3.2921    0.0000 C   0  0  0  0  0  0  0  0  0  0  0  0
   -6.6253    3.5404    0.0000 O   0  0  0  0  0  0  0  0  0  0  0  0
   -4.1913    4.4490    0.0000 O   0  0  0  0  0  0  0  0  0  0  0  0
   -1.5684   -2.5774    0.0000 C   0  0  0  0  0  0  0  0  0  0  0  0
   -0.8998   -3.9201    0.0000 C   0  0  0  0  0  0  0  0  0  0  0  0
    0.5839   -3.6992    0.0000 C   0  0  0  0  0  0  0  0  0  0  0  0
    0.8322   -2.2199    0.0000 C   0  0  0  0  0  0  0  0  0  0  0  0
    2.0977   -1.4146    0.0000 C   0  0  0  0  0  0  0  0  0  0  0  0
    3.4279   -2.1079    0.0000 C   0  0  0  0  0  0  0  0  0  0  0  0
    3.4925   -3.6065    0.0000 O   0  0  0  0  0  0  0  0  0  0  0  0
    4.6934   -1.3026    0.0000 C   0  0  0  0  0  0  0  0  0  0  0  0
    4.6287    0.1960    0.0000 C   0  0  0  0  0  0  0  0  0  0  0  0
    5.8942    1.0013    0.0000 C   0  0  0  0  0  0  0  0  0  0  0  0
    5.8296    2.4999    0.0000 C   0  0  0  0  0  0  0  0  0  0  0  0
    7.0951    3.3052    0.0000 N   0  0  0  0  0  0  0  0  0  0  0  0
    4.4994    3.1932    0.0000 C   0  0  0  0  0  0  0  0  0  0  0  0
    3.2339    2.3879    0.0000 C   0  0  0  0  0  0  0  0  0  0  0  0
    3.2986    0.8893    0.0000 C   0  0  0  0  0  0  0  0  0  0  0  0
    1.9684    1.5826    0.0000 C   0  0  0  0  0  0  0  0  0  0  0  0
    2.0331    0.0840    0.0000 C   0  0  0  0  0  0  0  0  0  0  0  0
    0.7029    0.7773    0.0000 C   0  0  0  0  0  0  0  0  0  0  0  0
   -0.5626   -0.0280    0.0000 C   0  0  0  0  0  0  0  0  0  0  0  0
   -0.4979   -1.5266    0.0000 C   0  0  0  0  0  0  0  0  0  0  0  0
   -1.8933   -0.9761    0.0000 C   0  0  0  0  0  0  0  0  0  0  0  0
  2  1  1  6
  2  3  1  0
  3  4  1  0
  4  5  1  0
  5  6  2  0
  5  7  1  0
  7  8  1  0
  8  9  2  0
  8 10  1  0
  2 11  1  0
 11 12  1  6
 12 13  1  0
 14 13  1  6
 14 15  1  0
 15 16  1  1
 16 17  1  6
 16 18  1  0
 19 18  1  1
 19 20  1  0
 20 21  1  0
 21 22  1  1
 21 23  1  0
 23 24  1  0
 24 25  1  0
 25 26  1  6
 25 27  1  0
 27 28  1  6
 28 29  1  0
 29 30  1  0
 30 31  1  6
 30 11  1  0
 30 14  1  0
 27 15  1  0
 25 19  1  0
M  END
>  <MS_ID>  (2225) 
MS2306

>  <SMILES>  (2225) 
C[C@H](CCC(=O)OC(=O)O)[C@H]1CC[C@H]2[C@@H]3[C@@H](O)C[C@@H]4C[C@H](N)CC[C@]4(C)[C@H]3CC[C@]12C

>  <Structure_dimension>  (2225) 
2D

$$$$
MS2307
     RDKit          2D

 28 31  0  0  0  0  0  0  0  0999 V2000
   -4.6340   -2.3524    0.0000 C   0  0  0  0  0  0  0  0  0  0  0  0
   -3.5242   -1.3434    0.0000 C   0  0  0  0  0  0  0  0  0  0  0  0
   -3.8431    0.1223    0.0000 C   0  0  0  0  0  0  0  0  0  0  0  0
   -5.2720    0.5789    0.0000 C   0  0  0  0  0  0  0  0  0  0  0  0
   -5.5909    2.0446    0.0000 C   0  0  0  0  0  0  0  0  0  0  0  0
   -4.4811    3.0537    0.0000 O   0  0  0  0  0  0  0  0  0  0  0  0
   -7.0197    2.5012    0.0000 O   0  0  0  0  0  0  0  0  0  0  0  0
   -2.0954   -1.8000    0.0000 C   0  0  0  0  0  0  0  0  0  0  0  0
   -1.6249   -3.2243    0.0000 C   0  0  0  0  0  0  0  0  0  0  0  0
   -0.1249   -3.2170    0.0000 C   0  0  0  0  0  0  0  0  0  0  0  0
    0.3317   -1.7882    0.0000 C   0  0  0  0  0  0  0  0  0  0  0  0
    1.6990   -1.1715    0.0000 C   0  0  0  0  0  0  0  0  0  0  0  0
    2.9168   -2.0473    0.0000 C   0  0  0  0  0  0  0  0  0  0  0  0
    2.7672   -3.5398    0.0000 O   0  0  0  0  0  0  0  0  0  0  0  0
    4.2841   -1.4305    0.0000 C   0  0  0  0  0  0  0  0  0  0  0  0
    4.4337    0.0620    0.0000 C   0  0  0  0  0  0  0  0  0  0  0  0
    5.8011    0.6787    0.0000 C   0  0  0  0  0  0  0  0  0  0  0  0
    5.9506    2.1713    0.0000 C   0  0  0  0  0  0  0  0  0  0  0  0
    4.7328    3.0471    0.0000 C   0  0  0  0  0  0  0  0  0  0  0  0
    3.3655    2.4303    0.0000 C   0  0  0  0  0  0  0  0  0  0  0  0
    3.2159    0.9378    0.0000 C   0  0  0  0  0  0  0  0  0  0  0  0
    1.9981    1.8136    0.0000 C   0  0  0  0  0  0  0  0  0  0  0  0
    1.8486    0.3211    0.0000 C   0  0  0  0  0  0  0  0  0  0  0  0
    0.6308    1.1968    0.0000 C   0  0  0  0  0  0  0  0  0  0  0  0
   -0.7366    0.5801    0.0000 C   0  0  0  0  0  0  0  0  0  0  0  0
   -1.9543    1.4559    0.0000 C   0  0  0  0  0  0  0  0  0  0  0  0
   -0.8861   -0.9124    0.0000 C   0  0  0  0  0  0  0  0  0  0  0  0
   -2.1888   -0.1687    0.0000 C   0  0  0  0  0  0  0  0  0  0  0  0
  2  1  1  6
  2  3  1  0
  3  4  1  0
  4  5  1  0
  5  6  2  0
  5  7  1  0
  2  8  1  0
  8  9  1  6
  9 10  1  0
 11 10  1  6
 11 12  1  0
 12 13  1  1
 13 14  1  1
 13 15  1  0
 16 15  1  1
 16 17  1  0
 17 18  1  0
 18 19  1  0
 19 20  1  0
 20 21  1  0
 21 22  1  6
 21 23  1  0
 23 24  1  6
 24 25  1  0
 25 26  1  1
 25 27  1  0
 27 28  1  6
 27  8  1  0
 27 11  1  0
 23 12  1  0
 21 16  1  0
M  END
>  <MS_ID>  (2226) 
MS2307

>  <SMILES>  (2226) 
C[C@H](CCC(=O)O)[C@H]1CC[C@H]2[C@@H]3[C@H](O)C[C@@H]4CCCC[C@]4(C)[C@H]3C[C@H](C)[C@]12C

>  <Structure_dimension>  (2226) 
2D

$$$$
MS2308
     RDKit          2D

 29 32  0  0  0  0  0  0  0  0999 V2000
   -5.0303   -2.1373    0.0000 C   0  0  0  0  0  0  0  0  0  0  0  0
   -3.8594   -1.1998    0.0000 C   0  0  0  0  0  0  0  0  0  0  0  0
   -4.0858    0.2830    0.0000 C   0  0  0  0  0  0  0  0  0  0  0  0
   -5.4831    0.8284    0.0000 C   0  0  0  0  0  0  0  0  0  0  0  0
   -5.7095    2.3112    0.0000 C   0  0  0  0  0  0  0  0  0  0  0  0
   -4.5386    3.2487    0.0000 O   0  0  0  0  0  0  0  0  0  0  0  0
   -7.1069    2.8565    0.0000 O   0  0  0  0  0  0  0  0  0  0  0  0
   -2.4620   -1.7451    0.0000 C   0  0  0  0  0  0  0  0  0  0  0  0
   -2.0818   -3.1961    0.0000 C   0  0  0  0  0  0  0  0  0  0  0  0
   -0.5844   -3.2830    0.0000 C   0  0  0  0  0  0  0  0  0  0  0  0
   -0.0390   -1.8856    0.0000 C   0  0  0  0  0  0  0  0  0  0  0  0
    1.3643   -1.3559    0.0000 C   0  0  0  0  0  0  0  0  0  0  0  0
    2.5248   -2.3063    0.0000 C   0  0  0  0  0  0  0  0  0  0  0  0
    2.2819   -3.7865    0.0000 C   0  0  0  0  0  0  0  0  0  0  0  0
    3.9281   -1.7765    0.0000 C   0  0  0  0  0  0  0  0  0  0  0  0
    4.1710   -0.2963    0.0000 C   0  0  0  0  0  0  0  0  0  0  0  0
    5.5743    0.2334    0.0000 C   0  0  0  0  0  0  0  0  0  0  0  0
    5.8172    1.7136    0.0000 C   0  0  0  0  0  0  0  0  0  0  0  0
    7.2205    2.2434    0.0000 O   0  0  0  0  0  0  0  0  0  0  0  0
    4.6568    2.6641    0.0000 C   0  0  0  0  0  0  0  0  0  0  0  0
    3.2534    2.1343    0.0000 C   0  0  0  0  0  0  0  0  0  0  0  0
    3.0105    0.6541    0.0000 C   0  0  0  0  0  0  0  0  0  0  0  0
    1.8501    1.6046    0.0000 C   0  0  0  0  0  0  0  0  0  0  0  0
    1.6072    0.1244    0.0000 C   0  0  0  0  0  0  0  0  0  0  0  0
    0.4467    1.0748    0.0000 C   0  0  0  0  0  0  0  0  0  0  0  0
   -0.9566    0.5450    0.0000 C   0  0  0  0  0  0  0  0  0  0  0  0
   -2.1170    1.4955    0.0000 O   0  0  0  0  0  0  0  0  0  0  0  0
   -1.1995   -0.9352    0.0000 C   0  0  0  0  0  0  0  0  0  0  0  0
   -2.4529   -0.1112    0.0000 C   0  0  0  0  0  0  0  0  0  0  0  0
  2  1  1  6
  2  3  1  0
  3  4  1  0
  4  5  1  0
  5  6  2  0
  5  7  1  0
  2  8  1  0
  8  9  1  6
  9 10  1  0
 11 10  1  6
 11 12  1  0
 12 13  1  1
 13 14  1  6
 13 15  1  0
 16 15  1  1
 16 17  1  0
 17 18  1  0
 18 19  1  1
 18 20  1  0
 20 21  1  0
 21 22  1  0
 22 23  1  6
 22 24  1  0
 24 25  1  6
 25 26  1  0
 26 27  1  6
 26 28  1  0
 28 29  1  6
 28  8  1  0
 28 11  1  0
 24 12  1  0
 22 16  1  0
M  END
>  <MS_ID>  (2227) 
MS2308

>  <SMILES>  (2227) 
C[C@H](CCC(=O)O)[C@H]1CC[C@H]2[C@@H]3[C@@H](C)C[C@@H]4C[C@H](O)CC[C@]4(C)[C@H]3C[C@@H](O)[C@]12C

>  <Structure_dimension>  (2227) 
2D

$$$$
MS2309
     RDKit          2D

 33 36  0  0  0  0  0  0  0  0999 V2000
   -3.1128   -3.8303    0.0000 C   0  0  0  0  0  0  0  0  0  0  0  0
   -2.2621   -2.5949    0.0000 C   0  0  0  0  0  0  0  0  0  0  0  0
   -2.9066   -1.2404    0.0000 C   0  0  0  0  0  0  0  0  0  0  0  0
   -4.4018   -1.1214    0.0000 C   0  0  0  0  0  0  0  0  0  0  0  0
   -5.0463    0.2331    0.0000 C   0  0  0  0  0  0  0  0  0  0  0  0
   -4.1956    1.4685    0.0000 O   0  0  0  0  0  0  0  0  0  0  0  0
   -6.5416    0.3522    0.0000 C   0  0  0  0  0  0  0  0  0  0  0  0
   -7.1861    1.7067    0.0000 C   0  0  0  0  0  0  0  0  0  0  0  0
   -6.3353    2.9421    0.0000 O   0  0  0  0  0  0  0  0  0  0  0  0
   -8.6813    1.8258    0.0000 N   0  0  0  0  0  0  0  0  0  0  0  0
   -9.3258    3.1803    0.0000 O   0  0  0  0  0  0  0  0  0  0  0  0
   -0.7668   -2.7140    0.0000 C   0  0  0  0  0  0  0  0  0  0  0  0
    0.0157   -3.9937    0.0000 C   0  0  0  0  0  0  0  0  0  0  0  0
    1.4746   -3.6449    0.0000 C   0  0  0  0  0  0  0  0  0  0  0  0
    1.5937   -2.1497    0.0000 C   0  0  0  0  0  0  0  0  0  0  0  0
    2.7846   -1.2376    0.0000 C   0  0  0  0  0  0  0  0  0  0  0  0
    4.1699   -1.8130    0.0000 C   0  0  0  0  0  0  0  0  0  0  0  0
    4.3643   -3.3003    0.0000 O   0  0  0  0  0  0  0  0  0  0  0  0
    5.3608   -0.9009    0.0000 C   0  0  0  0  0  0  0  0  0  0  0  0
    5.1664    0.5864    0.0000 C   0  0  0  0  0  0  0  0  0  0  0  0
    6.3573    1.4984    0.0000 C   0  0  0  0  0  0  0  0  0  0  0  0
    6.1629    2.9858    0.0000 C   0  0  0  0  0  0  0  0  0  0  0  0
    7.3538    3.8978    0.0000 O   0  0  0  0  0  0  0  0  0  0  0  0
    4.7776    3.5611    0.0000 C   0  0  0  0  0  0  0  0  0  0  0  0
    3.5867    2.6491    0.0000 C   0  0  0  0  0  0  0  0  0  0  0  0
    3.7811    1.1617    0.0000 C   0  0  0  0  0  0  0  0  0  0  0  0
    2.3958    1.7371    0.0000 C   0  0  0  0  0  0  0  0  0  0  0  0
    2.5902    0.2497    0.0000 C   0  0  0  0  0  0  0  0  0  0  0  0
    1.2049    0.8250    0.0000 C   0  0  0  0  0  0  0  0  0  0  0  0
    0.0140   -0.0870    0.0000 C   0  0  0  0  0  0  0  0  0  0  0  0
   -1.3712    0.4883    0.0000 O   0  0  0  0  0  0  0  0  0  0  0  0
    0.2084   -1.5743    0.0000 C   0  0  0  0  0  0  0  0  0  0  0  0
   -1.2294   -1.1470    0.0000 C   0  0  0  0  0  0  0  0  0  0  0  0
  2  1  1  6
  2  3  1  0
  3  4  1  0
  4  5  1  0
  5  6  2  0
  5  7  1  0
  7  8  1  0
  8  9  2  0
  8 10  1  0
 10 11  1  0
  2 12  1  0
 12 13  1  6
 13 14  1  0
 15 14  1  6
 15 16  1  0
 16 17  1  1
 17 18  1  1
 17 19  1  0
 20 19  1  1
 20 21  1  0
 21 22  1  0
 22 23  1  1
 22 24  1  0
 24 25  1  0
 25 26  1  0
 26 27  1  6
 26 28  1  0
 28 29  1  6
 29 30  1  0
 30 31  1  1
 30 32  1  0
 32 33  1  6
 32 12  1  0
 32 15  1  0
 28 16  1  0
 26 20  1  0
M  END
>  <MS_ID>  (2228) 
MS2309

>  <SMILES>  (2228) 
C[C@H](CCC(=O)CC(=O)NO)[C@H]1CC[C@H]2[C@@H]3[C@H](O)C[C@@H]4C[C@H](O)CC[C@]4(C)[C@H]3C[C@H](O)[C@]12C

>  <Structure_dimension>  (2228) 
2D

$$$$
MS2310
     RDKit          2D

 34 38  0  0  0  0  0  0  0  0999 V2000
   -2.1988   -4.3667    0.0000 C   0  0  0  0  0  0  0  0  0  0  0  0
   -1.4461   -3.0693    0.0000 C   0  0  0  0  0  0  0  0  0  0  0  0
   -2.1934   -1.7687    0.0000 C   0  0  0  0  0  0  0  0  0  0  0  0
   -3.6934   -1.7656    0.0000 C   0  0  0  0  0  0  0  0  0  0  0  0
   -4.4407   -0.4650    0.0000 C   0  0  0  0  0  0  0  0  0  0  0  0
   -3.6881    0.8325    0.0000 O   0  0  0  0  0  0  0  0  0  0  0  0
   -5.9407   -0.4619    0.0000 C   0  0  0  0  0  0  0  0  0  0  0  0
   -6.6881    0.8387    0.0000 C   0  0  0  0  0  0  0  0  0  0  0  0
   -5.9354    2.1362    0.0000 C   0  0  0  0  0  0  0  0  0  0  0  0
   -6.6827    3.4368    0.0000 C   0  0  0  0  0  0  0  0  0  0  0  0
   -8.1827    3.4399    0.0000 C   0  0  0  0  0  0  0  0  0  0  0  0
   -8.9354    2.1424    0.0000 C   0  0  0  0  0  0  0  0  0  0  0  0
   -8.1880    0.8418    0.0000 N   0  0  0  0  0  0  0  0  0  0  0  0
    0.0539   -3.0724    0.0000 C   0  0  0  0  0  0  0  0  0  0  0  0
    0.9330   -4.2877    0.0000 C   0  0  0  0  0  0  0  0  0  0  0  0
    2.3606   -3.8271    0.0000 C   0  0  0  0  0  0  0  0  0  0  0  0
    2.3637   -2.3272    0.0000 C   0  0  0  0  0  0  0  0  0  0  0  0
    3.4805   -1.3258    0.0000 C   0  0  0  0  0  0  0  0  0  0  0  0
    4.9061   -1.7922    0.0000 C   0  0  0  0  0  0  0  0  0  0  0  0
    6.0229   -0.7909    0.0000 C   0  0  0  0  0  0  0  0  0  0  0  0
    5.7141    0.6770    0.0000 C   0  0  0  0  0  0  0  0  0  0  0  0
    6.8308    1.6784    0.0000 C   0  0  0  0  0  0  0  0  0  0  0  0
    6.5220    3.1462    0.0000 C   0  0  0  0  0  0  0  0  0  0  0  0
    7.6388    4.1476    0.0000 O   0  0  0  0  0  0  0  0  0  0  0  0
    5.0964    3.6127    0.0000 C   0  0  0  0  0  0  0  0  0  0  0  0
    3.9796    2.6113    0.0000 C   0  0  0  0  0  0  0  0  0  0  0  0
    4.2884    1.1435    0.0000 C   0  0  0  0  0  0  0  0  0  0  0  0
    2.8628    1.6100    0.0000 C   0  0  0  0  0  0  0  0  0  0  0  0
    3.1716    0.1421    0.0000 C   0  0  0  0  0  0  0  0  0  0  0  0
    1.7460    0.6086    0.0000 C   0  0  0  0  0  0  0  0  0  0  0  0
    0.6292   -0.3928    0.0000 C   0  0  0  0  0  0  0  0  0  0  0  0
   -0.7964    0.0737    0.0000 O   0  0  0  0  0  0  0  0  0  0  0  0
    0.9380   -1.8607    0.0000 C   0  0  0  0  0  0  0  0  0  0  0  0
   -0.5285   -1.5458    0.0000 C   0  0  0  0  0  0  0  0  0  0  0  0
  2  1  1  6
  2  3  1  0
  3  4  1  0
  4  5  1  0
  5  6  2  0
  5  7  1  0
  7  8  1  0
  8  9  2  0
  9 10  1  0
 10 11  2  0
 11 12  1  0
 12 13  2  0
  2 14  1  0
 14 15  1  6
 15 16  1  0
 17 16  1  6
 17 18  1  0
 18 19  1  1
 19 20  1  0
 21 20  1  1
 21 22  1  0
 22 23  1  0
 23 24  1  1
 23 25  1  0
 25 26  1  0
 26 27  1  0
 27 28  1  6
 27 29  1  0
 29 30  1  6
 30 31  1  0
 31 32  1  1
 31 33  1  0
 33 34  1  6
 13  8  1  0
 33 14  1  0
 33 17  1  0
 29 18  1  0
 27 21  1  0
M  END
>  <MS_ID>  (2229) 
MS2310

>  <SMILES>  (2229) 
C[C@H](CCC(=O)Cc1ccccn1)[C@H]1CC[C@H]2[C@@H]3CC[C@@H]4C[C@H](O)CC[C@]4(C)[C@H]3C[C@H](O)[C@]12C

>  <Structure_dimension>  (2229) 
2D

$$$$
MS2311
     RDKit          2D

 36 39  0  0  0  0  0  0  0  0999 V2000
   -4.2135   -4.0665    0.0000 C   0  0  0  0  0  0  0  0  0  0  0  0
   -3.8317   -2.6159    0.0000 C   0  0  0  0  0  0  0  0  0  0  0  0
   -4.8970   -1.5600    0.0000 C   0  0  0  0  0  0  0  0  0  0  0  0
   -6.3442   -1.9546    0.0000 C   0  0  0  0  0  0  0  0  0  0  0  0
   -7.4095   -0.8987    0.0000 C   0  0  0  0  0  0  0  0  0  0  0  0
   -7.0277    0.5519    0.0000 O   0  0  0  0  0  0  0  0  0  0  0  0
   -8.8567   -1.2933    0.0000 O   0  0  0  0  0  0  0  0  0  0  0  0
   -2.3845   -2.2213    0.0000 C   0  0  0  0  0  0  0  0  0  0  0  0
   -1.2146   -3.1601    0.0000 C   0  0  0  0  0  0  0  0  0  0  0  0
    0.0397   -2.3375    0.0000 C   0  0  0  0  0  0  0  0  0  0  0  0
   -0.3549   -0.8904    0.0000 C   0  0  0  0  0  0  0  0  0  0  0  0
    0.4565    0.3712    0.0000 C   0  0  0  0  0  0  0  0  0  0  0  0
    1.9547    0.2994    0.0000 C   0  0  0  0  0  0  0  0  0  0  0  0
    2.6416   -1.0341    0.0000 O   0  0  0  0  0  0  0  0  0  0  0  0
    4.1399   -1.1060    0.0000 C   0  0  0  0  0  0  0  0  0  0  0  0
    4.9513    0.1557    0.0000 O   0  0  0  0  0  0  0  0  0  0  0  0
    4.8268   -2.4394    0.0000 C   0  0  0  0  0  0  0  0  0  0  0  0
    6.3251   -2.5113    0.0000 C   0  0  0  0  0  0  0  0  0  0  0  0
    7.0120   -3.8448    0.0000 C   0  0  0  0  0  0  0  0  0  0  0  0
    6.2006   -5.1064    0.0000 O   0  0  0  0  0  0  0  0  0  0  0  0
    8.5103   -3.9166    0.0000 O   0  0  0  0  0  0  0  0  0  0  0  0
    2.7661    1.5610    0.0000 C   0  0  0  0  0  0  0  0  0  0  0  0
    2.0792    2.8945    0.0000 C   0  0  0  0  0  0  0  0  0  0  0  0
    2.8906    4.1561    0.0000 C   0  0  0  0  0  0  0  0  0  0  0  0
    2.2037    5.4896    0.0000 C   0  0  0  0  0  0  0  0  0  0  0  0
    3.0150    6.7512    0.0000 O   0  0  0  0  0  0  0  0  0  0  0  0
    0.7054    5.5614    0.0000 C   0  0  0  0  0  0  0  0  0  0  0  0
   -0.1060    4.2998    0.0000 C   0  0  0  0  0  0  0  0  0  0  0  0
    0.5809    2.9663    0.0000 C   0  0  0  0  0  0  0  0  0  0  0  0
   -0.9174    3.0382    0.0000 C   0  0  0  0  0  0  0  0  0  0  0  0
   -0.2305    1.7047    0.0000 C   0  0  0  0  0  0  0  0  0  0  0  0
   -1.7287    1.7766    0.0000 C   0  0  0  0  0  0  0  0  0  0  0  0
   -2.5401    0.5149    0.0000 C   0  0  0  0  0  0  0  0  0  0  0  0
   -4.0384    0.5868    0.0000 O   0  0  0  0  0  0  0  0  0  0  0  0
   -1.8532   -0.8185    0.0000 C   0  0  0  0  0  0  0  0  0  0  0  0
   -3.3508   -0.9037    0.0000 C   0  0  0  0  0  0  0  0  0  0  0  0
  2  1  1  6
  2  3  1  0
  3  4  1  0
  4  5  1  0
  5  6  2  0
  5  7  1  0
  2  8  1  0
  8  9  1  6
  9 10  1  0
 11 10  1  6
 11 12  1  0
 12 13  1  1
 13 14  1  1
 14 15  1  0
 15 16  2  0
 15 17  1  0
 17 18  2  0
 18 19  1  0
 19 20  2  0
 19 21  1  0
 13 22  1  0
 23 22  1  1
 23 24  1  0
 24 25  1  0
 25 26  1  1
 25 27  1  0
 27 28  1  0
 28 29  1  0
 29 30  1  6
 29 31  1  0
 31 32  1  6
 32 33  1  0
 33 34  1  1
 33 35  1  0
 35 36  1  6
 35  8  1  0
 35 11  1  0
 31 12  1  0
 29 23  1  0
M  END
>  <MS_ID>  (2230) 
MS2311

>  <SMILES>  (2230) 
C[C@H](CCC(=O)O)[C@H]1CC[C@H]2[C@@H]3[C@H](OC(=O)/C=C/C(=O)O)C[C@@H]4C[C@H](O)CC[C@]4(C)[C@H]3C[C@H](O)[C@]12C

>  <Structure_dimension>  (2230) 
2D

$$$$
MS2312
     RDKit          2D

 33 36  0  0  0  0  0  0  0  0999 V2000
   -9.1331    3.7183    0.0000 C   0  0  0  0  0  0  0  0  0  0  0  0
   -8.5513    2.3357    0.0000 C   0  0  0  0  0  0  0  0  0  0  0  0
   -7.0631    2.1483    0.0000 O   0  0  0  0  0  0  0  0  0  0  0  0
   -6.4813    0.7657    0.0000 C   0  0  0  0  0  0  0  0  0  0  0  0
   -7.3877   -0.4294    0.0000 O   0  0  0  0  0  0  0  0  0  0  0  0
   -4.9931    0.5783    0.0000 C   0  0  0  0  0  0  0  0  0  0  0  0
   -4.0866    1.7734    0.0000 O   0  0  0  0  0  0  0  0  0  0  0  0
   -4.4112   -0.8043    0.0000 C   0  0  0  0  0  0  0  0  0  0  0  0
   -2.9230   -0.9917    0.0000 C   0  0  0  0  0  0  0  0  0  0  0  0
   -2.3412   -2.3743    0.0000 C   0  0  0  0  0  0  0  0  0  0  0  0
   -3.2476   -3.5694    0.0000 C   0  0  0  0  0  0  0  0  0  0  0  0
   -0.8530   -2.5617    0.0000 C   0  0  0  0  0  0  0  0  0  0  0  0
   -0.1298   -3.8759    0.0000 C   0  0  0  0  0  0  0  0  0  0  0  0
    1.3435   -3.5943    0.0000 C   0  0  0  0  0  0  0  0  0  0  0  0
    1.5309   -2.1060    0.0000 C   0  0  0  0  0  0  0  0  0  0  0  0
    2.7623   -1.2495    0.0000 C   0  0  0  0  0  0  0  0  0  0  0  0
    4.1198   -1.8876    0.0000 C   0  0  0  0  0  0  0  0  0  0  0  0
    4.2459   -3.3823    0.0000 O   0  0  0  0  0  0  0  0  0  0  0  0
    5.3512   -1.0311    0.0000 C   0  0  0  0  0  0  0  0  0  0  0  0
    5.2251    0.4636    0.0000 C   0  0  0  0  0  0  0  0  0  0  0  0
    6.4565    1.3201    0.0000 C   0  0  0  0  0  0  0  0  0  0  0  0
    6.3304    2.8148    0.0000 C   0  0  0  0  0  0  0  0  0  0  0  0
    7.5618    3.6714    0.0000 O   0  0  0  0  0  0  0  0  0  0  0  0
    4.9729    3.4530    0.0000 C   0  0  0  0  0  0  0  0  0  0  0  0
    3.7415    2.5964    0.0000 C   0  0  0  0  0  0  0  0  0  0  0  0
    3.8676    1.1017    0.0000 C   0  0  0  0  0  0  0  0  0  0  0  0
    2.5101    1.7399    0.0000 C   0  0  0  0  0  0  0  0  0  0  0  0
    2.6362    0.2452    0.0000 C   0  0  0  0  0  0  0  0  0  0  0  0
    1.2788    0.8833    0.0000 C   0  0  0  0  0  0  0  0  0  0  0  0
    0.0474    0.0268    0.0000 C   0  0  0  0  0  0  0  0  0  0  0  0
   -1.3101    0.6650    0.0000 O   0  0  0  0  0  0  0  0  0  0  0  0
    0.1734   -1.4679    0.0000 C   0  0  0  0  0  0  0  0  0  0  0  0
   -1.2433   -0.9751    0.0000 C   0  0  0  0  0  0  0  0  0  0  0  0
  1  2  1  0
  2  3  1  0
  3  4  1  0
  4  5  2  0
  4  6  1  0
  6  7  2  0
  6  8  1  0
  8  9  1  0
  9 10  1  0
 10 11  1  6
 10 12  1  0
 12 13  1  6
 13 14  1  0
 15 14  1  6
 15 16  1  0
 16 17  1  1
 17 18  1  1
 17 19  1  0
 20 19  1  1
 20 21  1  0
 21 22  1  0
 22 23  1  1
 22 24  1  0
 24 25  1  0
 25 26  1  0
 26 27  1  6
 26 28  1  0
 28 29  1  6
 29 30  1  0
 30 31  1  1
 30 32  1  0
 32 33  1  6
 32 12  1  0
 32 15  1  0
 28 16  1  0
 26 20  1  0
M  END
>  <MS_ID>  (2231) 
MS2312

>  <SMILES>  (2231) 
CCOC(=O)C(=O)CC[C@@H](C)[C@H]1CC[C@H]2[C@@H]3[C@H](O)C[C@@H]4C[C@H](O)CC[C@]4(C)[C@H]3C[C@H](O)[C@]12C

>  <Structure_dimension>  (2231) 
2D

$$$$
MS2313
     RDKit          2D

 34 37  0  0  0  0  0  0  0  0999 V2000
   -2.1782   -4.1538    0.0000 C   0  0  0  0  0  0  0  0  0  0  0  0
   -1.4251   -2.8566    0.0000 C   0  0  0  0  0  0  0  0  0  0  0  0
   -2.1720   -1.5557    0.0000 C   0  0  0  0  0  0  0  0  0  0  0  0
   -3.6720   -1.5522    0.0000 C   0  0  0  0  0  0  0  0  0  0  0  0
   -4.4189   -0.2513    0.0000 C   0  0  0  0  0  0  0  0  0  0  0  0
   -3.6658    1.0459    0.0000 O   0  0  0  0  0  0  0  0  0  0  0  0
   -5.9189   -0.2477    0.0000 O   0  0  0  0  0  0  0  0  0  0  0  0
   -6.6658    1.0531    0.0000 C   0  0  0  0  0  0  0  0  0  0  0  0
   -8.1658    1.0567    0.0000 C   0  0  0  0  0  0  0  0  0  0  0  0
   -8.9189   -0.2406    0.0000 O   0  0  0  0  0  0  0  0  0  0  0  0
   -8.9127    2.3575    0.0000 C   0  0  0  0  0  0  0  0  0  0  0  0
   -8.1596    3.6547    0.0000 O   0  0  0  0  0  0  0  0  0  0  0  0
  -10.4127    2.3611    0.0000 O   0  0  0  0  0  0  0  0  0  0  0  0
    0.0749   -2.8601    0.0000 C   0  0  0  0  0  0  0  0  0  0  0  0
    0.9537   -4.0758    0.0000 C   0  0  0  0  0  0  0  0  0  0  0  0
    2.3814   -3.6156    0.0000 C   0  0  0  0  0  0  0  0  0  0  0  0
    2.3850   -2.1156    0.0000 C   0  0  0  0  0  0  0  0  0  0  0  0
    3.5021   -1.1146    0.0000 C   0  0  0  0  0  0  0  0  0  0  0  0
    4.9276   -1.5815    0.0000 C   0  0  0  0  0  0  0  0  0  0  0  0
    5.2359   -3.0495    0.0000 O   0  0  0  0  0  0  0  0  0  0  0  0
    6.0447   -0.5805    0.0000 C   0  0  0  0  0  0  0  0  0  0  0  0
    5.7363    0.8875    0.0000 C   0  0  0  0  0  0  0  0  0  0  0  0
    6.8534    1.8885    0.0000 C   0  0  0  0  0  0  0  0  0  0  0  0
    6.5450    3.3565    0.0000 C   0  0  0  0  0  0  0  0  0  0  0  0
    7.6621    4.3575    0.0000 O   0  0  0  0  0  0  0  0  0  0  0  0
    5.1196    3.8234    0.0000 C   0  0  0  0  0  0  0  0  0  0  0  0
    4.0025    2.8224    0.0000 C   0  0  0  0  0  0  0  0  0  0  0  0
    4.3108    1.3544    0.0000 C   0  0  0  0  0  0  0  0  0  0  0  0
    2.8853    1.8213    0.0000 C   0  0  0  0  0  0  0  0  0  0  0  0
    3.1937    0.3534    0.0000 C   0  0  0  0  0  0  0  0  0  0  0  0
    1.7682    0.8203    0.0000 C   0  0  0  0  0  0  0  0  0  0  0  0
    0.6511   -0.1807    0.0000 C   0  0  0  0  0  0  0  0  0  0  0  0
    0.9595   -1.6487    0.0000 C   0  0  0  0  0  0  0  0  0  0  0  0
   -0.5070   -1.3333    0.0000 C   0  0  0  0  0  0  0  0  0  0  0  0
  2  1  1  6
  2  3  1  0
  3  4  1  0
  4  5  1  0
  5  6  2  0
  5  7  1  0
  7  8  1  0
  8  9  1  0
  9 10  2  0
  9 11  1  0
 11 12  2  0
 11 13  1  0
  2 14  1  0
 14 15  1  6
 15 16  1  0
 17 16  1  6
 17 18  1  0
 18 19  1  1
 19 20  1  6
 19 21  1  0
 22 21  1  1
 22 23  1  0
 23 24  1  0
 24 25  1  1
 24 26  1  0
 26 27  1  0
 27 28  1  0
 28 29  1  6
 28 30  1  0
 30 31  1  6
 31 32  1  0
 32 33  1  0
 33 34  1  6
 33 14  1  0
 33 17  1  0
 30 18  1  0
 28 22  1  0
M  END
>  <MS_ID>  (2232) 
MS2313

>  <SMILES>  (2232) 
C[C@H](CCC(=O)OCC(=O)C(=O)O)[C@H]1CC[C@H]2[C@@H]3[C@@H](O)C[C@@H]4C[C@H](O)CC[C@]4(C)[C@H]3CC[C@]12C

>  <Structure_dimension>  (2232) 
2D

$$$$
MS2314
     RDKit          2D

 32 35  0  0  0  0  0  0  0  0999 V2000
   -4.7932   -3.1000    0.0000 C   0  0  0  0  0  0  0  0  0  0  0  0
   -4.0181   -1.8159    0.0000 C   0  0  0  0  0  0  0  0  0  0  0  0
   -4.7427   -0.5025    0.0000 C   0  0  0  0  0  0  0  0  0  0  0  0
   -6.2424   -0.4733    0.0000 C   0  0  0  0  0  0  0  0  0  0  0  0
   -6.9669    0.8401    0.0000 C   0  0  0  0  0  0  0  0  0  0  0  0
   -6.1918    2.1243    0.0000 O   0  0  0  0  0  0  0  0  0  0  0  0
   -8.4667    0.8693    0.0000 O   0  0  0  0  0  0  0  0  0  0  0  0
   -2.5184   -1.8451    0.0000 C   0  0  0  0  0  0  0  0  0  0  0  0
   -1.6605   -3.0755    0.0000 C   0  0  0  0  0  0  0  0  0  0  0  0
   -0.2252   -2.6399    0.0000 C   0  0  0  0  0  0  0  0  0  0  0  0
   -0.1960   -1.1401    0.0000 C   0  0  0  0  0  0  0  0  0  0  0  0
    0.9381   -0.1583    0.0000 C   0  0  0  0  0  0  0  0  0  0  0  0
    2.3554   -0.6496    0.0000 C   0  0  0  0  0  0  0  0  0  0  0  0
    2.6386   -2.1226    0.0000 C   0  0  0  0  0  0  0  0  0  0  0  0
    4.0559   -2.6138    0.0000 S   0  0  0  0  0  0  0  0  0  0  0  0
    4.3392   -4.0868    0.0000 C   0  0  0  0  0  0  0  0  0  0  0  0
    5.7564   -4.5780    0.0000 C   0  0  0  0  0  0  0  0  0  0  0  0
    6.0397   -6.0510    0.0000 N   0  0  0  0  0  0  0  0  0  0  0  0
    3.4894    0.3322    0.0000 C   0  0  0  0  0  0  0  0  0  0  0  0
    3.2062    1.8053    0.0000 C   0  0  0  0  0  0  0  0  0  0  0  0
    4.3402    2.7871    0.0000 C   0  0  0  0  0  0  0  0  0  0  0  0
    4.0570    4.2601    0.0000 C   0  0  0  0  0  0  0  0  0  0  0  0
    5.1910    5.2419    0.0000 O   0  0  0  0  0  0  0  0  0  0  0  0
    2.6397    4.7513    0.0000 C   0  0  0  0  0  0  0  0  0  0  0  0
    1.5057    3.7695    0.0000 C   0  0  0  0  0  0  0  0  0  0  0  0
    1.7889    2.2965    0.0000 C   0  0  0  0  0  0  0  0  0  0  0  0
    0.3716    2.7877    0.0000 C   0  0  0  0  0  0  0  0  0  0  0  0
    0.6549    1.3147    0.0000 C   0  0  0  0  0  0  0  0  0  0  0  0
   -0.7624    1.8059    0.0000 C   0  0  0  0  0  0  0  0  0  0  0  0
   -1.8965    0.8241    0.0000 C   0  0  0  0  0  0  0  0  0  0  0  0
   -1.6132   -0.6489    0.0000 C   0  0  0  0  0  0  0  0  0  0  0  0
   -3.0741   -0.3086    0.0000 C   0  0  0  0  0  0  0  0  0  0  0  0
  2  1  1  6
  2  3  1  0
  3  4  1  0
  4  5  1  0
  5  6  2  0
  5  7  1  0
  2  8  1  0
  8  9  1  6
  9 10  1  0
 11 10  1  6
 11 12  1  0
 12 13  1  1
 13 14  1  6
 14 15  1  0
 15 16  1  0
 16 17  1  0
 17 18  1  0
 13 19  1  0
 20 19  1  1
 20 21  1  0
 21 22  1  0
 22 23  1  1
 22 24  1  0
 24 25  1  0
 25 26  1  0
 26 27  1  6
 26 28  1  0
 28 29  1  6
 29 30  1  0
 30 31  1  0
 31 32  1  6
 31  8  1  0
 31 11  1  0
 28 12  1  0
 26 20  1  0
M  END
>  <MS_ID>  (2233) 
MS2314

>  <SMILES>  (2233) 
C[C@H](CCC(=O)O)[C@H]1CC[C@H]2[C@@H]3[C@@H](CSCCN)C[C@@H]4C[C@H](O)CC[C@]4(C)[C@H]3CC[C@]12C

>  <Structure_dimension>  (2233) 
2D

$$$$
MS2315
     RDKit          2D

 30 33  0  0  0  0  0  0  0  0999 V2000
   -5.8393   -1.8075    0.0000 C   0  0  0  0  0  0  0  0  0  0  0  0
   -4.6087   -0.9498    0.0000 C   0  0  0  0  0  0  0  0  0  0  0  0
   -4.7361    0.5448    0.0000 C   0  0  0  0  0  0  0  0  0  0  0  0
   -6.0942    1.1817    0.0000 C   0  0  0  0  0  0  0  0  0  0  0  0
   -6.2216    2.6763    0.0000 C   0  0  0  0  0  0  0  0  0  0  0  0
   -4.9910    3.5339    0.0000 O   0  0  0  0  0  0  0  0  0  0  0  0
   -7.5797    3.3132    0.0000 O   0  0  0  0  0  0  0  0  0  0  0  0
   -3.2506   -1.5867    0.0000 C   0  0  0  0  0  0  0  0  0  0  0  0
   -2.9677   -3.0598    0.0000 C   0  0  0  0  0  0  0  0  0  0  0  0
   -1.4793   -3.2459    0.0000 C   0  0  0  0  0  0  0  0  0  0  0  0
   -0.8423   -1.8878    0.0000 C   0  0  0  0  0  0  0  0  0  0  0  0
    0.5931   -1.4525    0.0000 C   0  0  0  0  0  0  0  0  0  0  0  0
    1.6878   -2.4779    0.0000 C   0  0  0  0  0  0  0  0  0  0  0  0
    1.3472   -3.9387    0.0000 O   0  0  0  0  0  0  0  0  0  0  0  0
    3.1233   -2.0425    0.0000 C   0  0  0  0  0  0  0  0  0  0  0  0
    3.4639   -0.5817    0.0000 C   0  0  0  0  0  0  0  0  0  0  0  0
    4.8993   -0.1463    0.0000 C   0  0  0  0  0  0  0  0  0  0  0  0
    5.2400    1.3145    0.0000 C   0  0  0  0  0  0  0  0  0  0  0  0
    6.6754    1.7499    0.0000 O   0  0  0  0  0  0  0  0  0  0  0  0
    7.7702    0.7245    0.0000 C   0  0  0  0  0  0  0  0  0  0  0  0
    9.2056    1.1599    0.0000 O   0  0  0  0  0  0  0  0  0  0  0  0
    4.1452    2.3399    0.0000 C   0  0  0  0  0  0  0  0  0  0  0  0
    2.7098    1.9045    0.0000 C   0  0  0  0  0  0  0  0  0  0  0  0
    2.3692    0.4437    0.0000 C   0  0  0  0  0  0  0  0  0  0  0  0
    1.2744    1.4692    0.0000 C   0  0  0  0  0  0  0  0  0  0  0  0
    0.9337    0.0084    0.0000 C   0  0  0  0  0  0  0  0  0  0  0  0
   -0.1610    1.0338    0.0000 C   0  0  0  0  0  0  0  0  0  0  0  0
   -1.5965    0.5984    0.0000 C   0  0  0  0  0  0  0  0  0  0  0  0
   -1.9371   -0.8624    0.0000 C   0  0  0  0  0  0  0  0  0  0  0  0
   -3.1331    0.0429    0.0000 C   0  0  0  0  0  0  0  0  0  0  0  0
  2  1  1  6
  2  3  1  0
  3  4  1  0
  4  5  1  0
  5  6  2  0
  5  7  1  0
  2  8  1  0
  8  9  1  6
  9 10  1  0
 11 10  1  6
 11 12  1  0
 12 13  1  1
 13 14  1  6
 13 15  1  0
 16 15  1  1
 16 17  1  0
 17 18  1  0
 18 19  1  1
 19 20  1  0
 20 21  1  0
 18 22  1  0
 22 23  1  0
 23 24  1  0
 24 25  1  6
 24 26  1  0
 26 27  1  6
 27 28  1  0
 28 29  1  0
 29 30  1  6
 29  8  1  0
 29 11  1  0
 26 12  1  0
 24 16  1  0
M  END
>  <MS_ID>  (2234) 
MS2315

>  <SMILES>  (2234) 
C[C@H](CCC(=O)O)[C@H]1CC[C@H]2[C@@H]3[C@@H](O)C[C@@H]4C[C@H](OCO)CC[C@]4(C)[C@H]3CC[C@]12C

>  <Structure_dimension>  (2234) 
2D

$$$$
MS2316
     RDKit          2D

 35 39  0  0  0  0  0  0  0  0999 V2000
   -2.7184   -3.4912    0.0000 C   0  0  0  0  0  0  0  0  0  0  0  0
   -1.7962   -2.3082    0.0000 C   0  0  0  0  0  0  0  0  0  0  0  0
   -2.3597   -0.9180    0.0000 C   0  0  0  0  0  0  0  0  0  0  0  0
   -3.8454   -0.7110    0.0000 C   0  0  0  0  0  0  0  0  0  0  0  0
   -4.4088    0.6792    0.0000 C   0  0  0  0  0  0  0  0  0  0  0  0
   -3.4867    1.8622    0.0000 O   0  0  0  0  0  0  0  0  0  0  0  0
   -5.8945    0.8862    0.0000 C   0  0  0  0  0  0  0  0  0  0  0  0
   -6.4580    2.2764    0.0000 C   0  0  0  0  0  0  0  0  0  0  0  0
   -7.9436    2.4834    0.0000 C   0  0  0  0  0  0  0  0  0  0  0  0
   -8.8658    1.3004    0.0000 C   0  0  0  0  0  0  0  0  0  0  0  0
  -10.3514    1.5075    0.0000 O   0  0  0  0  0  0  0  0  0  0  0  0
   -8.3023   -0.0898    0.0000 N   0  0  0  0  0  0  0  0  0  0  0  0
   -6.8166   -0.2968    0.0000 C   0  0  0  0  0  0  0  0  0  0  0  0
   -0.3106   -2.5152    0.0000 C   0  0  0  0  0  0  0  0  0  0  0  0
    0.3951   -3.8389    0.0000 C   0  0  0  0  0  0  0  0  0  0  0  0
    1.8720   -3.5767    0.0000 C   0  0  0  0  0  0  0  0  0  0  0  0
    2.0791   -2.0911    0.0000 C   0  0  0  0  0  0  0  0  0  0  0  0
    3.3217   -1.2509    0.0000 C   0  0  0  0  0  0  0  0  0  0  0  0
    4.6707   -1.9069    0.0000 C   0  0  0  0  0  0  0  0  0  0  0  0
    4.7770   -3.4031    0.0000 O   0  0  0  0  0  0  0  0  0  0  0  0
    5.9133   -1.0667    0.0000 C   0  0  0  0  0  0  0  0  0  0  0  0
    5.8069    0.4296    0.0000 C   0  0  0  0  0  0  0  0  0  0  0  0
    7.0495    1.2698    0.0000 C   0  0  0  0  0  0  0  0  0  0  0  0
    6.9432    2.7660    0.0000 C   0  0  0  0  0  0  0  0  0  0  0  0
    8.1858    3.6062    0.0000 O   0  0  0  0  0  0  0  0  0  0  0  0
    5.5942    3.4220    0.0000 C   0  0  0  0  0  0  0  0  0  0  0  0
    4.3516    2.5818    0.0000 C   0  0  0  0  0  0  0  0  0  0  0  0
    4.4580    1.0856    0.0000 C   0  0  0  0  0  0  0  0  0  0  0  0
    3.1090    1.7416    0.0000 C   0  0  0  0  0  0  0  0  0  0  0  0
    3.2154    0.2454    0.0000 C   0  0  0  0  0  0  0  0  0  0  0  0
    1.8664    0.9014    0.0000 C   0  0  0  0  0  0  0  0  0  0  0  0
    0.6238    0.0612    0.0000 C   0  0  0  0  0  0  0  0  0  0  0  0
   -0.7251    0.7172    0.0000 O   0  0  0  0  0  0  0  0  0  0  0  0
    0.7302   -1.4350    0.0000 C   0  0  0  0  0  0  0  0  0  0  0  0
   -0.6799   -0.9236    0.0000 C   0  0  0  0  0  0  0  0  0  0  0  0
  2  1  1  6
  2  3  1  0
  3  4  1  0
  4  5  1  0
  5  6  2  0
  5  7  1  0
  7  8  2  0
  8  9  1  0
  9 10  2  0
 10 11  1  0
 10 12  1  0
 12 13  2  0
  2 14  1  0
 14 15  1  6
 15 16  1  0
 17 16  1  6
 17 18  1  0
 18 19  1  1
 19 20  1  1
 19 21  1  0
 22 21  1  1
 22 23  1  0
 23 24  1  0
 24 25  1  1
 24 26  1  0
 26 27  1  0
 27 28  1  0
 28 29  1  6
 28 30  1  0
 30 31  1  6
 31 32  1  0
 32 33  1  1
 32 34  1  0
 34 35  1  6
 13  7  1  0
 34 14  1  0
 34 17  1  0
 30 18  1  0
 28 22  1  0
M  END
>  <MS_ID>  (2235) 
MS2316

>  <SMILES>  (2235) 
C[C@H](CCC(=O)c1ccc(O)nc1)[C@H]1CC[C@H]2[C@@H]3[C@H](O)C[C@@H]4C[C@H](O)CC[C@]4(C)[C@H]3C[C@H](O)[C@]12C

>  <Structure_dimension>  (2235) 
2D

$$$$
MS2317
     RDKit          2D

 41 45  0  0  0  0  0  0  0  0999 V2000
   -7.4141   -2.4712    0.0000 C   0  0  0  0  0  0  0  0  0  0  0  0
   -6.2742   -1.4962    0.0000 C   0  0  0  0  0  0  0  0  0  0  0  0
   -6.5486   -0.0215    0.0000 C   0  0  0  0  0  0  0  0  0  0  0  0
   -7.9629    0.4782    0.0000 C   0  0  0  0  0  0  0  0  0  0  0  0
   -8.2373    1.9529    0.0000 C   0  0  0  0  0  0  0  0  0  0  0  0
   -7.0973    2.9279    0.0000 O   0  0  0  0  0  0  0  0  0  0  0  0
   -9.6516    2.4526    0.0000 C   0  0  0  0  0  0  0  0  0  0  0  0
   -9.9260    3.9273    0.0000 O   0  0  0  0  0  0  0  0  0  0  0  0
   -4.8598   -1.9959    0.0000 C   0  0  0  0  0  0  0  0  0  0  0  0
   -4.4328   -3.4338    0.0000 C   0  0  0  0  0  0  0  0  0  0  0  0
   -2.9333   -3.4720    0.0000 C   0  0  0  0  0  0  0  0  0  0  0  0
   -2.4336   -2.0577    0.0000 C   0  0  0  0  0  0  0  0  0  0  0  0
   -1.0482   -1.4827    0.0000 C   0  0  0  0  0  0  0  0  0  0  0  0
    0.1425   -2.3950    0.0000 C   0  0  0  0  0  0  0  0  0  0  0  0
   -0.0522   -3.8823    0.0000 O   0  0  0  0  0  0  0  0  0  0  0  0
    1.5279   -1.8200    0.0000 C   0  0  0  0  0  0  0  0  0  0  0  0
    1.7227   -0.3327    0.0000 C   0  0  0  0  0  0  0  0  0  0  0  0
    3.1081    0.2423    0.0000 C   0  0  0  0  0  0  0  0  0  0  0  0
    3.3028    1.7296    0.0000 C   0  0  0  0  0  0  0  0  0  0  0  0
    4.6882    2.3046    0.0000 O   0  0  0  0  0  0  0  0  0  0  0  0
    5.8789    1.3923    0.0000 C   0  0  0  0  0  0  0  0  0  0  0  0
    5.6842   -0.0950    0.0000 O   0  0  0  0  0  0  0  0  0  0  0  0
    6.8748   -1.0073    0.0000 C   0  0  0  0  0  0  0  0  0  0  0  0
    6.6801   -2.4946    0.0000 C   0  0  0  0  0  0  0  0  0  0  0  0
    5.2947   -3.0696    0.0000 O   0  0  0  0  0  0  0  0  0  0  0  0
    8.2603   -0.4323    0.0000 C   0  0  0  0  0  0  0  0  0  0  0  0
    9.4509   -1.3446    0.0000 O   0  0  0  0  0  0  0  0  0  0  0  0
    8.4550    1.0550    0.0000 C   0  0  0  0  0  0  0  0  0  0  0  0
    9.8404    1.6300    0.0000 O   0  0  0  0  0  0  0  0  0  0  0  0
    7.2643    1.9673    0.0000 C   0  0  0  0  0  0  0  0  0  0  0  0
    7.4591    3.4546    0.0000 O   0  0  0  0  0  0  0  0  0  0  0  0
    2.1121    2.6419    0.0000 C   0  0  0  0  0  0  0  0  0  0  0  0
    0.7267    2.0669    0.0000 C   0  0  0  0  0  0  0  0  0  0  0  0
    0.5320    0.5796    0.0000 C   0  0  0  0  0  0  0  0  0  0  0  0
   -0.6587    1.4919    0.0000 C   0  0  0  0  0  0  0  0  0  0  0  0
   -0.8534    0.0046    0.0000 C   0  0  0  0  0  0  0  0  0  0  0  0
   -2.0441    0.9169    0.0000 C   0  0  0  0  0  0  0  0  0  0  0  0
   -3.4295    0.3419    0.0000 C   0  0  0  0  0  0  0  0  0  0  0  0
   -4.6202    1.2542    0.0000 O   0  0  0  0  0  0  0  0  0  0  0  0
   -3.6243   -1.1454    0.0000 C   0  0  0  0  0  0  0  0  0  0  0  0
   -4.9038   -0.3626    0.0000 C   0  0  0  0  0  0  0  0  0  0  0  0
  2  1  1  6
  2  3  1  0
  3  4  1  0
  4  5  1  0
  5  6  2  0
  5  7  1  0
  7  8  1  0
  2  9  1  0
  9 10  1  6
 10 11  1  0
 12 11  1  6
 12 13  1  0
 13 14  1  1
 14 15  1  1
 14 16  1  0
 17 16  1  1
 17 18  1  0
 18 19  1  0
 19 20  1  1
 21 20  1  1
 21 22  1  0
 22 23  1  0
 23 24  1  1
 24 25  1  0
 23 26  1  0
 26 27  1  6
 26 28  1  0
 28 29  1  6
 28 30  1  0
 30 31  1  6
 19 32  1  0
 32 33  1  0
 33 34  1  0
 34 35  1  6
 34 36  1  0
 36 37  1  6
 37 38  1  0
 38 39  1  1
 38 40  1  0
 40 41  1  6
 40  9  1  0
 40 12  1  0
 36 13  1  0
 34 17  1  0
 30 21  1  0
M  END
>  <MS_ID>  (2236) 
MS2317

>  <SMILES>  (2236) 
C[C@H](CCC(=O)CO)[C@H]1CC[C@H]2[C@@H]3[C@H](O)C[C@@H]4C[C@H](O[C@@H]5O[C@H](CO)[C@@H](O)[C@@H](O)[C@H]5O)CC[C@]4(C)[C@H]3C[C@H](O)[C@]12C

>  <Structure_dimension>  (2236) 
2D

$$$$
MS2318
     RDKit          2D

 29 32  0  0  0  0  0  0  0  0999 V2000
   -3.8092   -2.9362    0.0000 C   0  0  0  0  0  0  0  0  0  0  0  0
   -2.7727   -1.8520    0.0000 C   0  0  0  0  0  0  0  0  0  0  0  0
   -3.1933   -0.4122    0.0000 C   0  0  0  0  0  0  0  0  0  0  0  0
   -4.6506   -0.0566    0.0000 C   0  0  0  0  0  0  0  0  0  0  0  0
   -5.0712    1.3832    0.0000 C   0  0  0  0  0  0  0  0  0  0  0  0
   -4.0346    2.4674    0.0000 O   0  0  0  0  0  0  0  0  0  0  0  0
   -6.5285    1.7388    0.0000 C   0  0  0  0  0  0  0  0  0  0  0  0
   -7.5650    0.6546    0.0000 O   0  0  0  0  0  0  0  0  0  0  0  0
   -6.9491    3.1786    0.0000 O   0  0  0  0  0  0  0  0  0  0  0  0
   -1.3154   -2.2076    0.0000 C   0  0  0  0  0  0  0  0  0  0  0  0
   -0.7466   -3.5956    0.0000 C   0  0  0  0  0  0  0  0  0  0  0  0
    0.7492   -3.4835    0.0000 C   0  0  0  0  0  0  0  0  0  0  0  0
    1.1048   -2.0262    0.0000 C   0  0  0  0  0  0  0  0  0  0  0  0
    2.4257   -1.3154    0.0000 C   0  0  0  0  0  0  0  0  0  0  0  0
    3.7017   -2.1039    0.0000 C   0  0  0  0  0  0  0  0  0  0  0  0
    5.0226   -1.3931    0.0000 C   0  0  0  0  0  0  0  0  0  0  0  0
    5.0675    0.1062    0.0000 C   0  0  0  0  0  0  0  0  0  0  0  0
    6.3884    0.8170    0.0000 C   0  0  0  0  0  0  0  0  0  0  0  0
    6.4332    2.3164    0.0000 C   0  0  0  0  0  0  0  0  0  0  0  0
    5.1572    3.1049    0.0000 C   0  0  0  0  0  0  0  0  0  0  0  0
    3.8363    2.3941    0.0000 C   0  0  0  0  0  0  0  0  0  0  0  0
    3.7915    0.8947    0.0000 C   0  0  0  0  0  0  0  0  0  0  0  0
    2.5154    1.6832    0.0000 C   0  0  0  0  0  0  0  0  0  0  0  0
    2.4706    0.1839    0.0000 C   0  0  0  0  0  0  0  0  0  0  0  0
    1.1945    0.9724    0.0000 C   0  0  0  0  0  0  0  0  0  0  0  0
   -0.1263    0.2616    0.0000 C   0  0  0  0  0  0  0  0  0  0  0  0
   -1.4024    1.0501    0.0000 O   0  0  0  0  0  0  0  0  0  0  0  0
   -0.1712   -1.2377    0.0000 C   0  0  0  0  0  0  0  0  0  0  0  0
   -1.5227   -0.5869    0.0000 C   0  0  0  0  0  0  0  0  0  0  0  0
  2  1  1  6
  2  3  1  0
  3  4  1  0
  4  5  1  0
  5  6  2  0
  5  7  1  0
  7  8  2  0
  7  9  1  0
  2 10  1  0
 10 11  1  6
 11 12  1  0
 13 12  1  6
 13 14  1  0
 14 15  1  1
 15 16  1  0
 17 16  1  1
 17 18  1  0
 18 19  1  0
 19 20  1  0
 20 21  1  0
 21 22  1  0
 22 23  1  6
 22 24  1  0
 24 25  1  6
 25 26  1  0
 26 27  1  1
 26 28  1  0
 28 29  1  6
 28 10  1  0
 28 13  1  0
 24 14  1  0
 22 17  1  0
M  END
>  <MS_ID>  (2237) 
MS2318

>  <SMILES>  (2237) 
C[C@H](CCC(=O)C(=O)O)[C@H]1CC[C@H]2[C@@H]3CC[C@@H]4CCCC[C@]4(C)[C@H]3C[C@H](O)[C@]12C

>  <Structure_dimension>  (2237) 
2D

$$$$
MS2319
     RDKit          2D

 31 34  0  0  0  0  0  0  0  0999 V2000
   -5.0146   -2.6187    0.0000 C   0  0  0  0  0  0  0  0  0  0  0  0
   -4.0672   -1.4557    0.0000 C   0  0  0  0  0  0  0  0  0  0  0  0
   -4.6007   -0.0538    0.0000 C   0  0  0  0  0  0  0  0  0  0  0  0
   -6.0816    0.1851    0.0000 C   0  0  0  0  0  0  0  0  0  0  0  0
   -6.6150    1.5871    0.0000 C   0  0  0  0  0  0  0  0  0  0  0  0
   -5.6677    2.7500    0.0000 O   0  0  0  0  0  0  0  0  0  0  0  0
   -8.0959    1.8260    0.0000 O   0  0  0  0  0  0  0  0  0  0  0  0
   -2.5864   -1.6947    0.0000 C   0  0  0  0  0  0  0  0  0  0  0  0
   -1.9093   -3.0332    0.0000 C   0  0  0  0  0  0  0  0  0  0  0  0
   -0.4271   -2.8029    0.0000 C   0  0  0  0  0  0  0  0  0  0  0  0
   -0.1881   -1.3220    0.0000 C   0  0  0  0  0  0  0  0  0  0  0  0
    1.0722   -0.5087    0.0000 C   0  0  0  0  0  0  0  0  0  0  0  0
    2.4068   -1.1936    0.0000 C   0  0  0  0  0  0  0  0  0  0  0  0
    2.4809   -2.6918    0.0000 O   0  0  0  0  0  0  0  0  0  0  0  0
    3.8154   -3.3767    0.0000 C   0  0  0  0  0  0  0  0  0  0  0  0
    3.8896   -4.8748    0.0000 C   0  0  0  0  0  0  0  0  0  0  0  0
    5.2241   -5.5597    0.0000 N   0  0  0  0  0  0  0  0  0  0  0  0
    3.6671   -0.3803    0.0000 C   0  0  0  0  0  0  0  0  0  0  0  0
    3.5930    1.1178    0.0000 C   0  0  0  0  0  0  0  0  0  0  0  0
    4.8534    1.9311    0.0000 C   0  0  0  0  0  0  0  0  0  0  0  0
    4.7792    3.4293    0.0000 C   0  0  0  0  0  0  0  0  0  0  0  0
    6.0396    4.2426    0.0000 O   0  0  0  0  0  0  0  0  0  0  0  0
    3.4447    4.1142    0.0000 C   0  0  0  0  0  0  0  0  0  0  0  0
    2.1843    3.3009    0.0000 C   0  0  0  0  0  0  0  0  0  0  0  0
    2.2585    1.8027    0.0000 C   0  0  0  0  0  0  0  0  0  0  0  0
    0.9240    2.4876    0.0000 C   0  0  0  0  0  0  0  0  0  0  0  0
    0.9981    0.9894    0.0000 C   0  0  0  0  0  0  0  0  0  0  0  0
   -0.3364    1.6743    0.0000 C   0  0  0  0  0  0  0  0  0  0  0  0
   -1.5968    0.8610    0.0000 C   0  0  0  0  0  0  0  0  0  0  0  0
   -1.5227   -0.6371    0.0000 C   0  0  0  0  0  0  0  0  0  0  0  0
   -2.9215   -0.0955    0.0000 C   0  0  0  0  0  0  0  0  0  0  0  0
  2  1  1  6
  2  3  1  0
  3  4  1  0
  4  5  1  0
  5  6  2  0
  5  7  1  0
  2  8  1  0
  8  9  1  6
  9 10  1  0
 11 10  1  6
 11 12  1  0
 12 13  1  1
 13 14  1  6
 14 15  1  0
 15 16  1  0
 16 17  1  0
 13 18  1  0
 19 18  1  1
 19 20  1  0
 20 21  1  0
 21 22  1  1
 21 23  1  0
 23 24  1  0
 24 25  1  0
 25 26  1  6
 25 27  1  0
 27 28  1  6
 28 29  1  0
 29 30  1  0
 30 31  1  6
 30  8  1  0
 30 11  1  0
 27 12  1  0
 25 19  1  0
M  END
>  <MS_ID>  (2238) 
MS2319

>  <SMILES>  (2238) 
C[C@H](CCC(=O)O)[C@H]1CC[C@H]2[C@@H]3[C@@H](OCCN)C[C@@H]4C[C@H](O)CC[C@]4(C)[C@H]3CC[C@]12C

>  <Structure_dimension>  (2238) 
2D

$$$$
MS2320
     RDKit          2D

 36 39  0  0  0  0  0  0  0  0999 V2000
   -1.6583   -4.3402    0.0000 C   0  0  0  0  0  0  0  0  0  0  0  0
   -0.9627   -3.0112    0.0000 C   0  0  0  0  0  0  0  0  0  0  0  0
   -1.7658   -1.7443    0.0000 C   0  0  0  0  0  0  0  0  0  0  0  0
   -3.2645   -1.8064    0.0000 C   0  0  0  0  0  0  0  0  0  0  0  0
   -4.0677   -0.5395    0.0000 C   0  0  0  0  0  0  0  0  0  0  0  0
   -3.3720    0.7894    0.0000 O   0  0  0  0  0  0  0  0  0  0  0  0
   -5.5664   -0.6016    0.0000 C   0  0  0  0  0  0  0  0  0  0  0  0
   -6.3695    0.6653    0.0000 C   0  0  0  0  0  0  0  0  0  0  0  0
   -5.6739    1.9943    0.0000 O   0  0  0  0  0  0  0  0  0  0  0  0
   -7.8682    0.6033    0.0000 C   0  0  0  0  0  0  0  0  0  0  0  0
   -8.6713    1.8701    0.0000 C   0  0  0  0  0  0  0  0  0  0  0  0
  -10.1700    1.8081    0.0000 C   0  0  0  0  0  0  0  0  0  0  0  0
  -10.8656    0.4791    0.0000 O   0  0  0  0  0  0  0  0  0  0  0  0
  -10.9731    3.0750    0.0000 O   0  0  0  0  0  0  0  0  0  0  0  0
    0.5360   -2.9492    0.0000 C   0  0  0  0  0  0  0  0  0  0  0  0
    1.4671   -4.1252    0.0000 C   0  0  0  0  0  0  0  0  0  0  0  0
    2.8733   -3.6030    0.0000 C   0  0  0  0  0  0  0  0  0  0  0  0
    2.8112   -2.1043    0.0000 C   0  0  0  0  0  0  0  0  0  0  0  0
    3.8835   -1.0553    0.0000 C   0  0  0  0  0  0  0  0  0  0  0  0
    5.3280   -1.4594    0.0000 C   0  0  0  0  0  0  0  0  0  0  0  0
    5.7003   -2.9125    0.0000 O   0  0  0  0  0  0  0  0  0  0  0  0
    6.4003   -0.4105    0.0000 C   0  0  0  0  0  0  0  0  0  0  0  0
    6.0279    1.0426    0.0000 C   0  0  0  0  0  0  0  0  0  0  0  0
    7.1002    2.0915    0.0000 C   0  0  0  0  0  0  0  0  0  0  0  0
    6.7279    3.5446    0.0000 C   0  0  0  0  0  0  0  0  0  0  0  0
    7.8001    4.5936    0.0000 O   0  0  0  0  0  0  0  0  0  0  0  0
    5.2833    3.9487    0.0000 C   0  0  0  0  0  0  0  0  0  0  0  0
    4.2111    2.8997    0.0000 C   0  0  0  0  0  0  0  0  0  0  0  0
    4.5834    1.4467    0.0000 C   0  0  0  0  0  0  0  0  0  0  0  0
    3.1389    1.8508    0.0000 C   0  0  0  0  0  0  0  0  0  0  0  0
    3.5112    0.3977    0.0000 C   0  0  0  0  0  0  0  0  0  0  0  0
    2.0666    0.8018    0.0000 C   0  0  0  0  0  0  0  0  0  0  0  0
    0.9944   -0.2471    0.0000 C   0  0  0  0  0  0  0  0  0  0  0  0
   -0.4501    0.1570    0.0000 O   0  0  0  0  0  0  0  0  0  0  0  0
    1.3667   -1.7002    0.0000 C   0  0  0  0  0  0  0  0  0  0  0  0
   -0.1122   -1.4493    0.0000 C   0  0  0  0  0  0  0  0  0  0  0  0
  2  1  1  6
  2  3  1  0
  3  4  1  0
  4  5  1  0
  5  6  2  0
  5  7  1  0
  7  8  1  0
  8  9  2  0
  8 10  1  0
 10 11  1  0
 11 12  1  0
 12 13  2  0
 12 14  1  0
  2 15  1  0
 15 16  1  6
 16 17  1  0
 18 17  1  6
 18 19  1  0
 19 20  1  1
 20 21  1  1
 20 22  1  0
 23 22  1  1
 23 24  1  0
 24 25  1  0
 25 26  1  1
 25 27  1  0
 27 28  1  0
 28 29  1  0
 29 30  1  6
 29 31  1  0
 31 32  1  6
 32 33  1  0
 33 34  1  1
 33 35  1  0
 35 36  1  6
 35 15  1  0
 35 18  1  0
 31 19  1  0
 29 23  1  0
M  END
>  <MS_ID>  (2239) 
MS2320

>  <SMILES>  (2239) 
C[C@H](CCC(=O)CC(=O)CCC(=O)O)[C@H]1CC[C@H]2[C@@H]3[C@H](O)C[C@@H]4C[C@H](O)CC[C@]4(C)[C@H]3C[C@H](O)[C@]12C

>  <Structure_dimension>  (2239) 
2D

$$$$
MS2321
     RDKit          2D

 31 34  0  0  0  0  0  0  0  0999 V2000
   -4.2144   -3.0422    0.0000 C   0  0  0  0  0  0  0  0  0  0  0  0
   -3.1400   -1.9955    0.0000 C   0  0  0  0  0  0  0  0  0  0  0  0
   -3.5093   -0.5416    0.0000 C   0  0  0  0  0  0  0  0  0  0  0  0
   -4.9529   -0.1345    0.0000 C   0  0  0  0  0  0  0  0  0  0  0  0
   -5.3222    1.3193    0.0000 C   0  0  0  0  0  0  0  0  0  0  0  0
   -4.2478    2.3660    0.0000 O   0  0  0  0  0  0  0  0  0  0  0  0
   -6.7659    1.7265    0.0000 O   0  0  0  0  0  0  0  0  0  0  0  0
   -1.6963   -2.4026    0.0000 C   0  0  0  0  0  0  0  0  0  0  0  0
   -1.1771   -3.8099    0.0000 C   0  0  0  0  0  0  0  0  0  0  0  0
    0.3218   -3.7509    0.0000 C   0  0  0  0  0  0  0  0  0  0  0  0
    0.7289   -2.3072    0.0000 C   0  0  0  0  0  0  0  0  0  0  0  0
    2.0742   -1.6438    0.0000 C   0  0  0  0  0  0  0  0  0  0  0  0
    3.3214   -2.4771    0.0000 C   0  0  0  0  0  0  0  0  0  0  0  0
    4.6667   -1.8136    0.0000 C   0  0  0  0  0  0  0  0  0  0  0  0
    4.7648   -0.3168    0.0000 C   0  0  0  0  0  0  0  0  0  0  0  0
    6.1101    0.3466    0.0000 C   0  0  0  0  0  0  0  0  0  0  0  0
    6.2081    1.8434    0.0000 C   0  0  0  0  0  0  0  0  0  0  0  0
    4.9609    2.6767    0.0000 C   0  0  0  0  0  0  0  0  0  0  0  0
    3.6156    2.0133    0.0000 C   0  0  0  0  0  0  0  0  0  0  0  0
    3.5175    0.5165    0.0000 C   0  0  0  0  0  0  0  0  0  0  0  0
    2.2703    1.3498    0.0000 C   0  0  0  0  0  0  0  0  0  0  0  0
    2.1722   -0.1470    0.0000 C   0  0  0  0  0  0  0  0  0  0  0  0
    0.9250    0.6863    0.0000 C   0  0  0  0  0  0  0  0  0  0  0  0
   -0.4203    0.0229    0.0000 C   0  0  0  0  0  0  0  0  0  0  0  0
   -1.6675    0.8562    0.0000 O   0  0  0  0  0  0  0  0  0  0  0  0
   -1.5694    2.3530    0.0000 S   0  0  0  0  0  0  0  0  0  0  0  0
   -0.0726    2.2549    0.0000 O   0  0  0  0  0  0  0  0  0  0  0  0
   -3.0662    2.4511    0.0000 O   0  0  0  0  0  0  0  0  0  0  0  0
   -1.4714    3.8498    0.0000 O   0  0  0  0  0  0  0  0  0  0  0  0
   -0.5183   -1.4739    0.0000 C   0  0  0  0  0  0  0  0  0  0  0  0
   -1.8458   -0.7755    0.0000 C   0  0  0  0  0  0  0  0  0  0  0  0
  2  1  1  6
  2  3  1  0
  3  4  1  0
  4  5  1  0
  5  6  2  0
  5  7  1  0
  2  8  1  0
  8  9  1  6
  9 10  1  0
 11 10  1  6
 11 12  1  0
 12 13  1  1
 13 14  1  0
 15 14  1  1
 15 16  1  0
 16 17  1  0
 17 18  1  0
 18 19  1  0
 19 20  1  0
 20 21  1  6
 20 22  1  0
 22 23  1  6
 23 24  1  0
 24 25  1  6
 25 26  1  0
 26 27  2  0
 26 28  2  0
 26 29  1  0
 24 30  1  0
 30 31  1  6
 30  8  1  0
 30 11  1  0
 22 12  1  0
 20 15  1  0
M  END
>  <MS_ID>  (2240) 
MS2321

>  <SMILES>  (2240) 
C[C@H](CCC(=O)O)[C@H]1CC[C@H]2[C@@H]3CC[C@@H]4CCCC[C@]4(C)[C@H]3C[C@@H](OS(=O)(=O)O)[C@]12C

>  <Structure_dimension>  (2240) 
2D

$$$$
MS2322
     RDKit          2D

 28 31  0  0  0  0  0  0  0  0999 V2000
   -5.0096   -2.1352    0.0000 C   0  0  0  0  0  0  0  0  0  0  0  0
   -3.8132   -1.2303    0.0000 C   0  0  0  0  0  0  0  0  0  0  0  0
   -3.9987    0.2582    0.0000 C   0  0  0  0  0  0  0  0  0  0  0  0
   -5.3805    0.8418    0.0000 C   0  0  0  0  0  0  0  0  0  0  0  0
   -5.5659    2.3303    0.0000 C   0  0  0  0  0  0  0  0  0  0  0  0
   -4.3695    3.2351    0.0000 O   0  0  0  0  0  0  0  0  0  0  0  0
   -6.9477    2.9140    0.0000 O   0  0  0  0  0  0  0  0  0  0  0  0
   -2.4315   -1.8140    0.0000 C   0  0  0  0  0  0  0  0  0  0  0  0
   -2.0914   -3.2749    0.0000 C   0  0  0  0  0  0  0  0  0  0  0  0
   -0.5969   -3.4030    0.0000 C   0  0  0  0  0  0  0  0  0  0  0  0
   -0.0133   -2.0212    0.0000 C   0  0  0  0  0  0  0  0  0  0  0  0
    1.4041   -1.5304    0.0000 C   0  0  0  0  0  0  0  0  0  0  0  0
    2.5379   -2.5125    0.0000 C   0  0  0  0  0  0  0  0  0  0  0  0
    3.9554   -2.0216    0.0000 C   0  0  0  0  0  0  0  0  0  0  0  0
    4.2390   -0.5487    0.0000 C   0  0  0  0  0  0  0  0  0  0  0  0
    5.6564   -0.0578    0.0000 C   0  0  0  0  0  0  0  0  0  0  0  0
    5.9400    1.4151    0.0000 C   0  0  0  0  0  0  0  0  0  0  0  0
    7.3574    1.9060    0.0000 O   0  0  0  0  0  0  0  0  0  0  0  0
    4.8062    2.3972    0.0000 C   0  0  0  0  0  0  0  0  0  0  0  0
    3.3888    1.9064    0.0000 C   0  0  0  0  0  0  0  0  0  0  0  0
    3.1052    0.4334    0.0000 C   0  0  0  0  0  0  0  0  0  0  0  0
    1.9714    1.4155    0.0000 C   0  0  0  0  0  0  0  0  0  0  0  0
    1.6878   -0.0574    0.0000 C   0  0  0  0  0  0  0  0  0  0  0  0
    0.5540    0.9246    0.0000 C   0  0  0  0  0  0  0  0  0  0  0  0
   -0.8635    0.4338    0.0000 C   0  0  0  0  0  0  0  0  0  0  0  0
   -1.9973    1.4159    0.0000 C   0  0  0  0  0  0  0  0  0  0  0  0
   -1.1471   -1.0392    0.0000 C   0  0  0  0  0  0  0  0  0  0  0  0
   -2.3773   -0.1810    0.0000 C   0  0  0  0  0  0  0  0  0  0  0  0
  2  1  1  6
  2  3  1  0
  3  4  1  0
  4  5  1  0
  5  6  2  0
  5  7  1  0
  2  8  1  0
  8  9  1  6
  9 10  1  0
 11 10  1  6
 11 12  1  0
 12 13  1  1
 13 14  1  0
 15 14  1  1
 15 16  1  0
 16 17  1  0
 17 18  1  1
 17 19  1  0
 19 20  1  0
 20 21  1  0
 21 22  1  6
 21 23  1  0
 23 24  1  6
 24 25  1  0
 25 26  1  1
 25 27  1  0
 27 28  1  6
 27  8  1  0
 27 11  1  0
 23 12  1  0
 21 15  1  0
M  END
>  <MS_ID>  (2241) 
MS2322

>  <SMILES>  (2241) 
C[C@H](CCC(=O)O)[C@H]1CC[C@H]2[C@@H]3CC[C@@H]4C[C@H](O)CC[C@]4(C)[C@H]3C[C@H](C)[C@]12C

>  <Structure_dimension>  (2241) 
2D

$$$$
MS2323
     RDKit          2D

 34 38  0  0  0  0  0  0  0  0999 V2000
   -2.2608   -4.3306    0.0000 C   0  0  0  0  0  0  0  0  0  0  0  0
   -1.5430   -3.0135    0.0000 C   0  0  0  0  0  0  0  0  0  0  0  0
   -2.3248   -1.7333    0.0000 C   0  0  0  0  0  0  0  0  0  0  0  0
   -3.8244   -1.7702    0.0000 C   0  0  0  0  0  0  0  0  0  0  0  0
   -4.6061   -0.4901    0.0000 C   0  0  0  0  0  0  0  0  0  0  0  0
   -3.8883    0.8271    0.0000 O   0  0  0  0  0  0  0  0  0  0  0  0
   -6.1057   -0.5270    0.0000 O   0  0  0  0  0  0  0  0  0  0  0  0
   -6.8874    0.7532    0.0000 C   0  0  0  0  0  0  0  0  0  0  0  0
   -6.1696    2.0703    0.0000 C   0  0  0  0  0  0  0  0  0  0  0  0
   -6.9514    3.3505    0.0000 C   0  0  0  0  0  0  0  0  0  0  0  0
   -8.4509    3.3135    0.0000 C   0  0  0  0  0  0  0  0  0  0  0  0
   -9.1687    1.9964    0.0000 C   0  0  0  0  0  0  0  0  0  0  0  0
   -8.3870    0.7163    0.0000 N   0  0  0  0  0  0  0  0  0  0  0  0
   -0.0435   -2.9765    0.0000 C   0  0  0  0  0  0  0  0  0  0  0  0
    0.8678   -4.1680    0.0000 C   0  0  0  0  0  0  0  0  0  0  0  0
    2.2825   -3.6695    0.0000 C   0  0  0  0  0  0  0  0  0  0  0  0
    2.2456   -2.1699    0.0000 C   0  0  0  0  0  0  0  0  0  0  0  0
    3.3353   -1.1391    0.0000 C   0  0  0  0  0  0  0  0  0  0  0  0
    4.7728   -1.5673    0.0000 C   0  0  0  0  0  0  0  0  0  0  0  0
    5.1207   -3.0264    0.0000 O   0  0  0  0  0  0  0  0  0  0  0  0
    5.8625   -0.5365    0.0000 C   0  0  0  0  0  0  0  0  0  0  0  0
    5.5146    0.9226    0.0000 C   0  0  0  0  0  0  0  0  0  0  0  0
    6.6043    1.9534    0.0000 C   0  0  0  0  0  0  0  0  0  0  0  0
    6.2564    3.4125    0.0000 C   0  0  0  0  0  0  0  0  0  0  0  0
    7.3460    4.4434    0.0000 O   0  0  0  0  0  0  0  0  0  0  0  0
    4.8188    3.8408    0.0000 C   0  0  0  0  0  0  0  0  0  0  0  0
    3.7291    2.8099    0.0000 C   0  0  0  0  0  0  0  0  0  0  0  0
    4.0770    1.3509    0.0000 C   0  0  0  0  0  0  0  0  0  0  0  0
    2.6395    1.7791    0.0000 C   0  0  0  0  0  0  0  0  0  0  0  0
    2.9874    0.3200    0.0000 C   0  0  0  0  0  0  0  0  0  0  0  0
    1.5498    0.7483    0.0000 C   0  0  0  0  0  0  0  0  0  0  0  0
    0.4601   -0.2826    0.0000 C   0  0  0  0  0  0  0  0  0  0  0  0
    0.8080   -1.7417    0.0000 C   0  0  0  0  0  0  0  0  0  0  0  0
   -0.6664   -1.4660    0.0000 C   0  0  0  0  0  0  0  0  0  0  0  0
  2  1  1  6
  2  3  1  0
  3  4  1  0
  4  5  1  0
  5  6  2  0
  5  7  1  0
  7  8  1  0
  8  9  2  0
  9 10  1  0
 10 11  2  0
 11 12  1  0
 12 13  2  0
  2 14  1  0
 14 15  1  6
 15 16  1  0
 17 16  1  6
 17 18  1  0
 18 19  1  1
 19 20  1  1
 19 21  1  0
 22 21  1  1
 22 23  1  0
 23 24  1  0
 24 25  1  1
 24 26  1  0
 26 27  1  0
 27 28  1  0
 28 29  1  6
 28 30  1  0
 30 31  1  6
 31 32  1  0
 32 33  1  0
 33 34  1  6
 13  8  1  0
 33 14  1  0
 33 17  1  0
 30 18  1  0
 28 22  1  0
M  END
>  <MS_ID>  (2242) 
MS2323

>  <SMILES>  (2242) 
C[C@H](CCC(=O)Oc1ccccn1)[C@H]1CC[C@H]2[C@@H]3[C@H](O)C[C@@H]4C[C@H](O)CC[C@]4(C)[C@H]3CC[C@]12C

>  <Structure_dimension>  (2242) 
2D

$$$$
MS2324
     RDKit          2D

 35 39  0  0  0  0  0  0  0  0999 V2000
   -6.4273   -1.3476    0.0000 C   0  0  0  0  0  0  0  0  0  0  0  0
   -6.9365    0.0634    0.0000 C   0  0  0  0  0  0  0  0  0  0  0  0
   -8.4130    0.3279    0.0000 C   0  0  0  0  0  0  0  0  0  0  0  0
   -8.9222    1.7388    0.0000 C   0  0  0  0  0  0  0  0  0  0  0  0
   -7.9549    2.8852    0.0000 C   0  0  0  0  0  0  0  0  0  0  0  0
   -6.4784    2.6207    0.0000 C   0  0  0  0  0  0  0  0  0  0  0  0
   -5.9692    1.2098    0.0000 C   0  0  0  0  0  0  0  0  0  0  0  0
   -4.4927    0.9453    0.0000 C   0  0  0  0  0  0  0  0  0  0  0  0
   -3.5254    2.0917    0.0000 O   0  0  0  0  0  0  0  0  0  0  0  0
   -3.9835   -0.4656    0.0000 C   0  0  0  0  0  0  0  0  0  0  0  0
   -2.5070   -0.7301    0.0000 C   0  0  0  0  0  0  0  0  0  0  0  0
   -1.9978   -2.1411    0.0000 C   0  0  0  0  0  0  0  0  0  0  0  0
   -2.9651   -3.2875    0.0000 C   0  0  0  0  0  0  0  0  0  0  0  0
   -0.5213   -2.4056    0.0000 C   0  0  0  0  0  0  0  0  0  0  0  0
    0.1326   -3.7555    0.0000 C   0  0  0  0  0  0  0  0  0  0  0  0
    1.6185   -3.5508    0.0000 C   0  0  0  0  0  0  0  0  0  0  0  0
    1.8830   -2.0743    0.0000 C   0  0  0  0  0  0  0  0  0  0  0  0
    3.1573   -1.2829    0.0000 C   0  0  0  0  0  0  0  0  0  0  0  0
    4.4798   -1.9907    0.0000 C   0  0  0  0  0  0  0  0  0  0  0  0
    4.5280   -3.4900    0.0000 O   0  0  0  0  0  0  0  0  0  0  0  0
    5.7540   -1.1993    0.0000 C   0  0  0  0  0  0  0  0  0  0  0  0
    5.7057    0.2999    0.0000 C   0  0  0  0  0  0  0  0  0  0  0  0
    6.9800    1.0913    0.0000 C   0  0  0  0  0  0  0  0  0  0  0  0
    6.9317    2.5905    0.0000 C   0  0  0  0  0  0  0  0  0  0  0  0
    8.2059    3.3819    0.0000 O   0  0  0  0  0  0  0  0  0  0  0  0
    5.6092    3.2983    0.0000 C   0  0  0  0  0  0  0  0  0  0  0  0
    4.3350    2.5069    0.0000 C   0  0  0  0  0  0  0  0  0  0  0  0
    4.3832    1.0077    0.0000 C   0  0  0  0  0  0  0  0  0  0  0  0
    3.0607    1.7155    0.0000 C   0  0  0  0  0  0  0  0  0  0  0  0
    3.1090    0.2163    0.0000 C   0  0  0  0  0  0  0  0  0  0  0  0
    1.7865    0.9241    0.0000 C   0  0  0  0  0  0  0  0  0  0  0  0
    0.5123    0.1327    0.0000 C   0  0  0  0  0  0  0  0  0  0  0  0
   -0.8102    0.8405    0.0000 O   0  0  0  0  0  0  0  0  0  0  0  0
    0.5605   -1.3665    0.0000 C   0  0  0  0  0  0  0  0  0  0  0  0
   -0.8287   -0.8008    0.0000 C   0  0  0  0  0  0  0  0  0  0  0  0
  1  2  1  0
  2  3  2  0
  3  4  1  0
  4  5  2  0
  5  6  1  0
  6  7  2  0
  7  8  1  0
  8  9  2  0
  8 10  1  0
 10 11  1  0
 11 12  1  0
 12 13  1  6
 12 14  1  0
 14 15  1  6
 15 16  1  0
 17 16  1  6
 17 18  1  0
 18 19  1  1
 19 20  1  1
 19 21  1  0
 22 21  1  1
 22 23  1  0
 23 24  1  0
 24 25  1  1
 24 26  1  0
 26 27  1  0
 27 28  1  0
 28 29  1  6
 28 30  1  0
 30 31  1  6
 31 32  1  0
 32 33  1  1
 32 34  1  0
 34 35  1  6
  7  2  1  0
 34 14  1  0
 34 17  1  0
 30 18  1  0
 28 22  1  0
M  END
>  <MS_ID>  (2243) 
MS2324

>  <SMILES>  (2243) 
Cc1ccccc1C(=O)CC[C@@H](C)[C@H]1CC[C@H]2[C@@H]3[C@H](O)C[C@@H]4C[C@H](O)CC[C@]4(C)[C@H]3C[C@H](O)[C@]12C

>  <Structure_dimension>  (2243) 
2D

$$$$
MS2325
     RDKit          2D

 35 38  0  0  0  0  0  0  0  0999 V2000
   -5.5205   -2.5584    0.0000 C   0  0  0  0  0  0  0  0  0  0  0  0
   -4.3704   -1.5955    0.0000 C   0  0  0  0  0  0  0  0  0  0  0  0
   -4.6293   -0.1180    0.0000 C   0  0  0  0  0  0  0  0  0  0  0  0
   -6.0382    0.3965    0.0000 C   0  0  0  0  0  0  0  0  0  0  0  0
   -6.2971    1.8740    0.0000 C   0  0  0  0  0  0  0  0  0  0  0  0
   -5.1470    2.8370    0.0000 O   0  0  0  0  0  0  0  0  0  0  0  0
   -7.7061    2.3886    0.0000 C   0  0  0  0  0  0  0  0  0  0  0  0
   -8.8562    1.4256    0.0000 O   0  0  0  0  0  0  0  0  0  0  0  0
   -7.9650    3.8661    0.0000 O   0  0  0  0  0  0  0  0  0  0  0  0
   -2.9614   -2.1100    0.0000 C   0  0  0  0  0  0  0  0  0  0  0  0
   -2.5495   -3.5524    0.0000 C   0  0  0  0  0  0  0  0  0  0  0  0
   -1.0504   -3.6063    0.0000 C   0  0  0  0  0  0  0  0  0  0  0  0
   -0.5359   -2.1973    0.0000 C   0  0  0  0  0  0  0  0  0  0  0  0
    0.8555   -1.6369    0.0000 C   0  0  0  0  0  0  0  0  0  0  0  0
    2.0365   -2.5616    0.0000 C   0  0  0  0  0  0  0  0  0  0  0  0
    1.8262   -4.0468    0.0000 O   0  0  0  0  0  0  0  0  0  0  0  0
    3.4279   -2.0012    0.0000 C   0  0  0  0  0  0  0  0  0  0  0  0
    3.6382   -0.5160    0.0000 C   0  0  0  0  0  0  0  0  0  0  0  0
    5.0296    0.0444    0.0000 C   0  0  0  0  0  0  0  0  0  0  0  0
    5.2400    1.5296    0.0000 C   0  0  0  0  0  0  0  0  0  0  0  0
    6.6313    2.0900    0.0000 O   0  0  0  0  0  0  0  0  0  0  0  0
    7.8124    1.1652    0.0000 S   0  0  0  0  0  0  0  0  0  0  0  0
    6.8876   -0.0158    0.0000 O   0  0  0  0  0  0  0  0  0  0  0  0
    8.7371    2.3463    0.0000 O   0  0  0  0  0  0  0  0  0  0  0  0
    8.9934    0.2405    0.0000 O   0  0  0  0  0  0  0  0  0  0  0  0
    4.0589    2.4543    0.0000 C   0  0  0  0  0  0  0  0  0  0  0  0
    2.6676    1.8939    0.0000 C   0  0  0  0  0  0  0  0  0  0  0  0
    2.4572    0.4087    0.0000 C   0  0  0  0  0  0  0  0  0  0  0  0
    1.2762    1.3335    0.0000 C   0  0  0  0  0  0  0  0  0  0  0  0
    1.0658   -0.1517    0.0000 C   0  0  0  0  0  0  0  0  0  0  0  0
   -0.1152    0.7730    0.0000 C   0  0  0  0  0  0  0  0  0  0  0  0
   -1.5066    0.2126    0.0000 C   0  0  0  0  0  0  0  0  0  0  0  0
   -2.6876    1.1374    0.0000 O   0  0  0  0  0  0  0  0  0  0  0  0
   -1.7169   -1.2726    0.0000 C   0  0  0  0  0  0  0  0  0  0  0  0
   -2.9881   -0.4763    0.0000 C   0  0  0  0  0  0  0  0  0  0  0  0
  2  1  1  6
  2  3  1  0
  3  4  1  0
  4  5  1  0
  5  6  2  0
  5  7  1  0
  7  8  2  0
  7  9  1  0
  2 10  1  0
 10 11  1  6
 11 12  1  0
 13 12  1  6
 13 14  1  0
 14 15  1  1
 15 16  1  1
 15 17  1  0
 18 17  1  1
 18 19  1  0
 19 20  1  0
 20 21  1  1
 21 22  1  0
 22 23  2  0
 22 24  2  0
 22 25  1  0
 20 26  1  0
 26 27  1  0
 27 28  1  0
 28 29  1  6
 28 30  1  0
 30 31  1  6
 31 32  1  0
 32 33  1  1
 32 34  1  0
 34 35  1  6
 34 10  1  0
 34 13  1  0
 30 14  1  0
 28 18  1  0
M  END
>  <MS_ID>  (2244) 
MS2325

>  <SMILES>  (2244) 
C[C@H](CCC(=O)C(=O)O)[C@H]1CC[C@H]2[C@@H]3[C@H](O)C[C@@H]4C[C@H](OS(=O)(=O)O)CC[C@]4(C)[C@H]3C[C@H](O)[C@]12C

>  <Structure_dimension>  (2244) 
2D

$$$$
MS2326
     RDKit          2D

 33 36  0  0  0  0  0  0  0  0999 V2000
   -2.9718   -4.0164    0.0000 C   0  0  0  0  0  0  0  0  0  0  0  0
   -2.1546   -2.7585    0.0000 C   0  0  0  0  0  0  0  0  0  0  0  0
   -2.8353   -1.4219    0.0000 C   0  0  0  0  0  0  0  0  0  0  0  0
   -4.3332   -1.3431    0.0000 C   0  0  0  0  0  0  0  0  0  0  0  0
   -5.0139   -0.0064    0.0000 C   0  0  0  0  0  0  0  0  0  0  0  0
   -4.1967    1.2514    0.0000 O   0  0  0  0  0  0  0  0  0  0  0  0
   -6.5119    0.0724    0.0000 C   0  0  0  0  0  0  0  0  0  0  0  0
   -7.1926    1.4090    0.0000 C   0  0  0  0  0  0  0  0  0  0  0  0
   -8.6905    1.4878    0.0000 C   0  0  0  0  0  0  0  0  0  0  0  0
   -6.3754    2.6668    0.0000 C   0  0  0  0  0  0  0  0  0  0  0  0
   -4.8775    2.5881    0.0000 O   0  0  0  0  0  0  0  0  0  0  0  0
   -7.0561    4.0035    0.0000 O   0  0  0  0  0  0  0  0  0  0  0  0
   -0.6566   -2.8373    0.0000 C   0  0  0  0  0  0  0  0  0  0  0  0
    0.1601   -4.0955    0.0000 C   0  0  0  0  0  0  0  0  0  0  0  0
    1.6091   -3.7075    0.0000 C   0  0  0  0  0  0  0  0  0  0  0  0
    1.6878   -2.2096    0.0000 C   0  0  0  0  0  0  0  0  0  0  0  0
    2.8537   -1.2658    0.0000 C   0  0  0  0  0  0  0  0  0  0  0  0
    4.2540   -1.8037    0.0000 C   0  0  0  0  0  0  0  0  0  0  0  0
    4.4884   -3.2852    0.0000 O   0  0  0  0  0  0  0  0  0  0  0  0
    5.4199   -0.8599    0.0000 C   0  0  0  0  0  0  0  0  0  0  0  0
    5.1855    0.6217    0.0000 C   0  0  0  0  0  0  0  0  0  0  0  0
    6.3514    1.5654    0.0000 C   0  0  0  0  0  0  0  0  0  0  0  0
    6.1171    3.0470    0.0000 C   0  0  0  0  0  0  0  0  0  0  0  0
    7.2830    3.9908    0.0000 O   0  0  0  0  0  0  0  0  0  0  0  0
    4.7168    3.5848    0.0000 C   0  0  0  0  0  0  0  0  0  0  0  0
    3.5509    2.6411    0.0000 C   0  0  0  0  0  0  0  0  0  0  0  0
    3.7853    1.1595    0.0000 C   0  0  0  0  0  0  0  0  0  0  0  0
    2.3850    1.6973    0.0000 C   0  0  0  0  0  0  0  0  0  0  0  0
    2.6194    0.2157    0.0000 C   0  0  0  0  0  0  0  0  0  0  0  0
    1.2191    0.7536    0.0000 C   0  0  0  0  0  0  0  0  0  0  0  0
    0.0532   -0.1902    0.0000 C   0  0  0  0  0  0  0  0  0  0  0  0
    0.2876   -1.6718    0.0000 C   0  0  0  0  0  0  0  0  0  0  0  0
   -1.1612   -1.2833    0.0000 C   0  0  0  0  0  0  0  0  0  0  0  0
  2  1  1  6
  2  3  1  0
  3  4  1  0
  4  5  1  0
  5  6  2  0
  5  7  1  0
  7  8  1  0
  8  9  1  6
  8 10  1  0
 10 11  2  0
 10 12  1  0
  2 13  1  0
 13 14  1  6
 14 15  1  0
 16 15  1  6
 16 17  1  0
 17 18  1  1
 18 19  1  6
 18 20  1  0
 21 20  1  1
 21 22  1  0
 22 23  1  0
 23 24  1  1
 23 25  1  0
 25 26  1  0
 26 27  1  0
 27 28  1  6
 27 29  1  0
 29 30  1  6
 30 31  1  0
 31 32  1  0
 32 33  1  6
 32 13  1  0
 32 16  1  0
 29 17  1  0
 27 21  1  0
M  END
>  <MS_ID>  (2245) 
MS2326

>  <SMILES>  (2245) 
C[C@H](CCC(=O)C[C@H](C)C(=O)O)[C@H]1CC[C@H]2[C@@H]3[C@@H](O)C[C@@H]4C[C@H](O)CC[C@]4(C)[C@H]3CC[C@]12C

>  <Structure_dimension>  (2245) 
2D

$$$$
MS2327
     RDKit          2D

 32 35  0  0  0  0  0  0  0  0999 V2000
   -3.6443   -3.5979    0.0000 C   0  0  0  0  0  0  0  0  0  0  0  0
   -2.7666   -2.3815    0.0000 C   0  0  0  0  0  0  0  0  0  0  0  0
   -3.3812   -1.0132    0.0000 C   0  0  0  0  0  0  0  0  0  0  0  0
   -4.8735   -0.8613    0.0000 C   0  0  0  0  0  0  0  0  0  0  0  0
   -5.4882    0.5070    0.0000 C   0  0  0  0  0  0  0  0  0  0  0  0
   -4.6105    1.7234    0.0000 O   0  0  0  0  0  0  0  0  0  0  0  0
   -6.9805    0.6588    0.0000 N   0  0  0  0  0  0  0  0  0  0  0  0
   -7.5951    2.0271    0.0000 C   0  0  0  0  0  0  0  0  0  0  0  0
   -9.0874    2.1790    0.0000 C   0  0  0  0  0  0  0  0  0  0  0  0
   -9.7020    3.5473    0.0000 N   0  0  0  0  0  0  0  0  0  0  0  0
   -1.2743   -2.5333    0.0000 C   0  0  0  0  0  0  0  0  0  0  0  0
   -0.5200   -3.8299    0.0000 C   0  0  0  0  0  0  0  0  0  0  0  0
    0.9462   -3.5132    0.0000 C   0  0  0  0  0  0  0  0  0  0  0  0
    1.0980   -2.0209    0.0000 C   0  0  0  0  0  0  0  0  0  0  0  0
    2.3086   -1.1352    0.0000 C   0  0  0  0  0  0  0  0  0  0  0  0
    3.6809   -1.7408    0.0000 C   0  0  0  0  0  0  0  0  0  0  0  0
    3.8427   -3.2320    0.0000 O   0  0  0  0  0  0  0  0  0  0  0  0
    4.8916   -0.8551    0.0000 C   0  0  0  0  0  0  0  0  0  0  0  0
    6.2639   -1.4607    0.0000 O   0  0  0  0  0  0  0  0  0  0  0  0
    4.7298    0.6362    0.0000 C   0  0  0  0  0  0  0  0  0  0  0  0
    5.9404    1.5218    0.0000 C   0  0  0  0  0  0  0  0  0  0  0  0
    5.7787    3.0131    0.0000 C   0  0  0  0  0  0  0  0  0  0  0  0
    6.9893    3.8988    0.0000 O   0  0  0  0  0  0  0  0  0  0  0  0
    4.4064    3.6187    0.0000 C   0  0  0  0  0  0  0  0  0  0  0  0
    3.1958    2.7330    0.0000 C   0  0  0  0  0  0  0  0  0  0  0  0
    3.3575    1.2417    0.0000 C   0  0  0  0  0  0  0  0  0  0  0  0
    1.9852    1.8473    0.0000 C   0  0  0  0  0  0  0  0  0  0  0  0
    2.1469    0.3561    0.0000 C   0  0  0  0  0  0  0  0  0  0  0  0
    0.7746    0.9616    0.0000 C   0  0  0  0  0  0  0  0  0  0  0  0
   -0.4360    0.0759    0.0000 C   0  0  0  0  0  0  0  0  0  0  0  0
   -0.2743   -1.4153    0.0000 C   0  0  0  0  0  0  0  0  0  0  0  0
   -1.7024   -0.9565    0.0000 C   0  0  0  0  0  0  0  0  0  0  0  0
  2  1  1  6
  2  3  1  0
  3  4  1  0
  4  5  1  0
  5  6  2  0
  5  7  1  0
  7  8  1  0
  8  9  1  0
  9 10  1  0
  2 11  1  0
 11 12  1  6
 12 13  1  0
 14 13  1  6
 14 15  1  0
 15 16  1  1
 16 17  1  1
 16 18  1  0
 18 19  1  1
 18 20  1  0
 20 21  1  1
 21 22  1  0
 22 23  1  1
 22 24  1  0
 24 25  1  0
 25 26  1  0
 26 27  1  6
 26 28  1  0
 28 29  1  6
 29 30  1  0
 30 31  1  0
 31 32  1  6
 31 11  1  0
 31 14  1  0
 28 15  1  0
 26 20  1  0
M  END
>  <MS_ID>  (2246) 
MS2327

>  <SMILES>  (2246) 
C[C@H](CCC(=O)NCCN)[C@H]1CC[C@H]2[C@@H]3[C@H](O)[C@H](O)[C@@H]4C[C@H](O)CC[C@]4(C)[C@H]3CC[C@]12C

>  <Structure_dimension>  (2246) 
2D

$$$$
MS2328
     RDKit          2D

 32 35  0  0  0  0  0  0  0  0999 V2000
   -6.2686   -1.5413    0.0000 C   0  0  0  0  0  0  0  0  0  0  0  0
   -4.9434   -0.8387    0.0000 C   0  0  0  0  0  0  0  0  0  0  0  0
   -4.8892    0.6604    0.0000 C   0  0  0  0  0  0  0  0  0  0  0  0
   -6.1603    1.4568    0.0000 C   0  0  0  0  0  0  0  0  0  0  0  0
   -6.1062    2.9558    0.0000 C   0  0  0  0  0  0  0  0  0  0  0  0
   -4.7809    3.6584    0.0000 O   0  0  0  0  0  0  0  0  0  0  0  0
   -7.3773    3.7522    0.0000 O   0  0  0  0  0  0  0  0  0  0  0  0
   -3.6723   -1.6351    0.0000 C   0  0  0  0  0  0  0  0  0  0  0  0
   -3.5694   -3.1315    0.0000 C   0  0  0  0  0  0  0  0  0  0  0  0
   -2.1144   -3.4962    0.0000 C   0  0  0  0  0  0  0  0  0  0  0  0
   -1.3180   -2.2251    0.0000 C   0  0  0  0  0  0  0  0  0  0  0  0
    0.1595   -1.9664    0.0000 C   0  0  0  0  0  0  0  0  0  0  0  0
    1.1223   -3.1166    0.0000 C   0  0  0  0  0  0  0  0  0  0  0  0
    2.5998   -2.8579    0.0000 C   0  0  0  0  0  0  0  0  0  0  0  0
    3.1146   -1.4490    0.0000 C   0  0  0  0  0  0  0  0  0  0  0  0
    4.5921   -1.1903    0.0000 C   0  0  0  0  0  0  0  0  0  0  0  0
    5.1068    0.2186    0.0000 C   0  0  0  0  0  0  0  0  0  0  0  0
    6.4049   -0.5329    0.0000 O   0  0  0  0  0  0  0  0  0  0  0  0
    6.0724    1.3665    0.0000 C   0  0  0  0  0  0  0  0  0  0  0  0
    5.5610    2.7767    0.0000 O   0  0  0  0  0  0  0  0  0  0  0  0
    7.5493    1.1043    0.0000 C   0  0  0  0  0  0  0  0  0  0  0  0
    8.5148    2.2522    0.0000 O   0  0  0  0  0  0  0  0  0  0  0  0
    4.1440    1.3689    0.0000 C   0  0  0  0  0  0  0  0  0  0  0  0
    2.6665    1.1102    0.0000 C   0  0  0  0  0  0  0  0  0  0  0  0
    2.1518   -0.2988    0.0000 C   0  0  0  0  0  0  0  0  0  0  0  0
    1.1890    0.8515    0.0000 C   0  0  0  0  0  0  0  0  0  0  0  0
    0.6742   -0.5575    0.0000 C   0  0  0  0  0  0  0  0  0  0  0  0
   -0.2886    0.5928    0.0000 C   0  0  0  0  0  0  0  0  0  0  0  0
   -1.7661    0.3341    0.0000 C   0  0  0  0  0  0  0  0  0  0  0  0
   -2.7289    1.4843    0.0000 O   0  0  0  0  0  0  0  0  0  0  0  0
   -2.2808   -1.0748    0.0000 C   0  0  0  0  0  0  0  0  0  0  0  0
   -3.3586   -0.0316    0.0000 C   0  0  0  0  0  0  0  0  0  0  0  0
  2  1  1  6
  2  3  1  0
  3  4  1  0
  4  5  1  0
  5  6  2  0
  5  7  1  0
  2  8  1  0
  8  9  1  6
  9 10  1  0
 11 10  1  6
 11 12  1  0
 12 13  1  1
 13 14  1  0
 15 14  1  1
 15 16  1  0
 16 17  1  0
 17 18  1  1
 17 19  1  0
 19 20  2  0
 19 21  1  0
 21 22  1  0
 17 23  1  0
 23 24  1  0
 24 25  1  0
 25 26  1  6
 25 27  1  0
 27 28  1  6
 28 29  1  0
 29 30  1  1
 29 31  1  0
 31 32  1  6
 31  8  1  0
 31 11  1  0
 27 12  1  0
 25 15  1  0
M  END
>  <MS_ID>  (2247) 
MS2328

>  <SMILES>  (2247) 
C[C@H](CCC(=O)O)[C@H]1CC[C@H]2[C@@H]3CC[C@@H]4C[C@@](O)(C(=O)CO)CC[C@]4(C)[C@H]3C[C@H](O)[C@]12C

>  <Structure_dimension>  (2247) 
2D

$$$$
MS2329
     RDKit          2D

 30 33  0  0  0  0  0  0  0  0999 V2000
   -3.5909   -3.2894    0.0000 C   0  0  0  0  0  0  0  0  0  0  0  0
   -2.6685   -2.1066    0.0000 C   0  0  0  0  0  0  0  0  0  0  0  0
   -3.2316   -0.7163    0.0000 C   0  0  0  0  0  0  0  0  0  0  0  0
   -4.7172   -0.5088    0.0000 C   0  0  0  0  0  0  0  0  0  0  0  0
   -5.2803    0.8815    0.0000 C   0  0  0  0  0  0  0  0  0  0  0  0
   -4.3578    2.0643    0.0000 O   0  0  0  0  0  0  0  0  0  0  0  0
   -6.7659    1.0889    0.0000 C   0  0  0  0  0  0  0  0  0  0  0  0
   -7.3290    2.4792    0.0000 C   0  0  0  0  0  0  0  0  0  0  0  0
   -8.8146    2.6867    0.0000 O   0  0  0  0  0  0  0  0  0  0  0  0
   -1.1829   -2.3140    0.0000 C   0  0  0  0  0  0  0  0  0  0  0  0
   -0.4775   -3.6378    0.0000 C   0  0  0  0  0  0  0  0  0  0  0  0
    0.9995   -3.3760    0.0000 C   0  0  0  0  0  0  0  0  0  0  0  0
    1.2069   -1.8905    0.0000 C   0  0  0  0  0  0  0  0  0  0  0  0
    2.4498   -1.0506    0.0000 C   0  0  0  0  0  0  0  0  0  0  0  0
    3.7985   -1.7070    0.0000 C   0  0  0  0  0  0  0  0  0  0  0  0
    3.9045   -3.2032    0.0000 O   0  0  0  0  0  0  0  0  0  0  0  0
    5.0414   -0.8671    0.0000 C   0  0  0  0  0  0  0  0  0  0  0  0
    4.9354    0.6292    0.0000 C   0  0  0  0  0  0  0  0  0  0  0  0
    6.1782    1.4691    0.0000 C   0  0  0  0  0  0  0  0  0  0  0  0
    6.0723    2.9653    0.0000 C   0  0  0  0  0  0  0  0  0  0  0  0
    4.7235    3.6217    0.0000 C   0  0  0  0  0  0  0  0  0  0  0  0
    3.4807    2.7818    0.0000 C   0  0  0  0  0  0  0  0  0  0  0  0
    3.5866    1.2856    0.0000 C   0  0  0  0  0  0  0  0  0  0  0  0
    2.2379    1.9419    0.0000 C   0  0  0  0  0  0  0  0  0  0  0  0
    2.3438    0.4457    0.0000 C   0  0  0  0  0  0  0  0  0  0  0  0
    0.9950    1.1020    0.0000 C   0  0  0  0  0  0  0  0  0  0  0  0
   -0.2478    0.2622    0.0000 C   0  0  0  0  0  0  0  0  0  0  0  0
   -1.5965    0.9185    0.0000 O   0  0  0  0  0  0  0  0  0  0  0  0
   -0.1418   -1.2341    0.0000 C   0  0  0  0  0  0  0  0  0  0  0  0
   -1.5518   -0.7223    0.0000 C   0  0  0  0  0  0  0  0  0  0  0  0
  2  1  1  6
  2  3  1  0
  3  4  1  0
  4  5  1  0
  5  6  2  0
  5  7  1  0
  7  8  1  0
  8  9  1  0
  2 10  1  0
 10 11  1  6
 11 12  1  0
 13 12  1  6
 13 14  1  0
 14 15  1  1
 15 16  1  1
 15 17  1  0
 18 17  1  1
 18 19  1  0
 19 20  1  0
 20 21  1  0
 21 22  1  0
 22 23  1  0
 23 24  1  6
 23 25  1  0
 25 26  1  6
 26 27  1  0
 27 28  2  0
 27 29  1  0
 29 30  1  6
 29 10  1  0
 29 13  1  0
 25 14  1  0
 23 18  1  0
M  END
>  <MS_ID>  (2248) 
MS2329

>  <SMILES>  (2248) 
C[C@H](CCC(=O)CCO)[C@H]1CC[C@H]2[C@@H]3[C@H](O)C[C@@H]4CCCC[C@]4(C)[C@H]3CC(=O)[C@]12C

>  <Structure_dimension>  (2248) 
2D

$$$$
MS2330
     RDKit          2D

 34 37  0  0  0  0  0  0  0  0999 V2000
   -4.0928   -4.2246    0.0000 C   0  0  0  0  0  0  0  0  0  0  0  0
   -3.7752   -2.7587    0.0000 C   0  0  0  0  0  0  0  0  0  0  0  0
   -4.8860   -1.7506    0.0000 C   0  0  0  0  0  0  0  0  0  0  0  0
   -6.3144   -2.2086    0.0000 C   0  0  0  0  0  0  0  0  0  0  0  0
   -7.4252   -1.2005    0.0000 C   0  0  0  0  0  0  0  0  0  0  0  0
   -7.1076    0.2655    0.0000 O   0  0  0  0  0  0  0  0  0  0  0  0
   -8.8536   -1.6585    0.0000 O   0  0  0  0  0  0  0  0  0  0  0  0
   -2.3468   -2.3007    0.0000 C   0  0  0  0  0  0  0  0  0  0  0  0
   -1.1368   -3.1871    0.0000 C   0  0  0  0  0  0  0  0  0  0  0  0
    0.0802   -2.3102    0.0000 C   0  0  0  0  0  0  0  0  0  0  0  0
   -0.3778   -0.8818    0.0000 C   0  0  0  0  0  0  0  0  0  0  0  0
    0.3773    0.4143    0.0000 C   0  0  0  0  0  0  0  0  0  0  0  0
    1.8773    0.4084    0.0000 C   0  0  0  0  0  0  0  0  0  0  0  0
    2.6222   -0.8935    0.0000 O   0  0  0  0  0  0  0  0  0  0  0  0
    4.1222   -0.8994    0.0000 C   0  0  0  0  0  0  0  0  0  0  0  0
    4.8671   -2.2013    0.0000 C   0  0  0  0  0  0  0  0  0  0  0  0
    6.3671   -2.2072    0.0000 O   0  0  0  0  0  0  0  0  0  0  0  0
    7.1120   -3.5092    0.0000 C   0  0  0  0  0  0  0  0  0  0  0  0
    8.6120   -3.5150    0.0000 C   0  0  0  0  0  0  0  0  0  0  0  0
    9.3569   -4.8170    0.0000 O   0  0  0  0  0  0  0  0  0  0  0  0
    2.6324    1.7045    0.0000 C   0  0  0  0  0  0  0  0  0  0  0  0
    1.8874    3.0065    0.0000 C   0  0  0  0  0  0  0  0  0  0  0  0
    2.6425    4.3026    0.0000 C   0  0  0  0  0  0  0  0  0  0  0  0
    1.8976    5.6045    0.0000 C   0  0  0  0  0  0  0  0  0  0  0  0
    2.6527    6.9006    0.0000 O   0  0  0  0  0  0  0  0  0  0  0  0
    0.3976    5.6104    0.0000 C   0  0  0  0  0  0  0  0  0  0  0  0
   -0.3575    4.3143    0.0000 C   0  0  0  0  0  0  0  0  0  0  0  0
    0.3875    3.0124    0.0000 C   0  0  0  0  0  0  0  0  0  0  0  0
   -1.1125    3.0182    0.0000 C   0  0  0  0  0  0  0  0  0  0  0  0
   -0.3676    1.7163    0.0000 C   0  0  0  0  0  0  0  0  0  0  0  0
   -1.8676    1.7221    0.0000 C   0  0  0  0  0  0  0  0  0  0  0  0
   -2.6227    0.4260    0.0000 C   0  0  0  0  0  0  0  0  0  0  0  0
   -1.8778   -0.8759    0.0000 C   0  0  0  0  0  0  0  0  0  0  0  0
   -3.3701   -1.0269    0.0000 C   0  0  0  0  0  0  0  0  0  0  0  0
  2  1  1  6
  2  3  1  0
  3  4  1  0
  4  5  1  0
  5  6  2  0
  5  7  1  0
  2  8  1  0
  8  9  1  6
  9 10  1  0
 11 10  1  6
 11 12  1  0
 12 13  1  1
 13 14  1  6
 14 15  1  0
 15 16  1  0
 16 17  1  0
 17 18  1  0
 18 19  1  0
 19 20  1  0
 13 21  1  0
 22 21  1  1
 22 23  1  0
 23 24  1  0
 24 25  1  1
 24 26  1  0
 26 27  1  0
 27 28  1  0
 28 29  1  6
 28 30  1  0
 30 31  1  6
 31 32  1  0
 32 33  1  0
 33 34  1  6
 33  8  1  0
 33 11  1  0
 30 12  1  0
 28 22  1  0
M  END
>  <MS_ID>  (2249) 
MS2330

>  <SMILES>  (2249) 
C[C@H](CCC(=O)O)[C@H]1CC[C@H]2[C@@H]3[C@@H](OCCOCCO)C[C@@H]4C[C@H](O)CC[C@]4(C)[C@H]3CC[C@]12C

>  <Structure_dimension>  (2249) 
2D

$$$$
MS2331
     RDKit          2D

 27 30  0  0  0  0  0  0  0  0999 V2000
   -4.2052   -2.7788    0.0000 C   0  0  0  0  0  0  0  0  0  0  0  0
   -3.1444   -1.7183    0.0000 C   0  0  0  0  0  0  0  0  0  0  0  0
   -3.5324   -0.2694    0.0000 C   0  0  0  0  0  0  0  0  0  0  0  0
   -4.9813    0.1191    0.0000 C   0  0  0  0  0  0  0  0  0  0  0  0
   -5.3693    1.5680    0.0000 C   0  0  0  0  0  0  0  0  0  0  0  0
   -4.3085    2.6285    0.0000 O   0  0  0  0  0  0  0  0  0  0  0  0
   -6.8181    1.9564    0.0000 C   0  0  0  0  0  0  0  0  0  0  0  0
   -7.2062    3.4054    0.0000 O   0  0  0  0  0  0  0  0  0  0  0  0
   -1.6956   -2.1067    0.0000 C   0  0  0  0  0  0  0  0  0  0  0  0
   -1.1582   -3.5072    0.0000 C   0  0  0  0  0  0  0  0  0  0  0  0
    0.3397   -3.4289    0.0000 C   0  0  0  0  0  0  0  0  0  0  0  0
    0.7282   -1.9801    0.0000 C   0  0  0  0  0  0  0  0  0  0  0  0
    2.0648   -1.2993    0.0000 C   0  0  0  0  0  0  0  0  0  0  0  0
    3.3227   -2.1164    0.0000 C   0  0  0  0  0  0  0  0  0  0  0  0
    4.6593   -1.4356    0.0000 C   0  0  0  0  0  0  0  0  0  0  0  0
    4.7380    0.0623    0.0000 C   0  0  0  0  0  0  0  0  0  0  0  0
    6.0746    0.7431    0.0000 C   0  0  0  0  0  0  0  0  0  0  0  0
    6.1533    2.2411    0.0000 C   0  0  0  0  0  0  0  0  0  0  0  0
    4.8954    3.0582    0.0000 C   0  0  0  0  0  0  0  0  0  0  0  0
    3.5588    2.3774    0.0000 C   0  0  0  0  0  0  0  0  0  0  0  0
    3.4801    0.8795    0.0000 C   0  0  0  0  0  0  0  0  0  0  0  0
    2.2222    1.6966    0.0000 C   0  0  0  0  0  0  0  0  0  0  0  0
    2.1435    0.1987    0.0000 C   0  0  0  0  0  0  0  0  0  0  0  0
    0.8856    1.0158    0.0000 C   0  0  0  0  0  0  0  0  0  0  0  0
   -0.4510    0.3350    0.0000 C   0  0  0  0  0  0  0  0  0  0  0  0
   -0.5297   -1.1629    0.0000 C   0  0  0  0  0  0  0  0  0  0  0  0
   -1.8661   -0.4817    0.0000 C   0  0  0  0  0  0  0  0  0  0  0  0
  2  1  1  6
  2  3  1  0
  3  4  1  0
  4  5  1  0
  5  6  2  0
  5  7  1  0
  7  8  1  0
  2  9  1  0
  9 10  1  6
 10 11  1  0
 12 11  1  6
 12 13  1  0
 13 14  1  1
 14 15  1  0
 16 15  1  1
 16 17  1  0
 17 18  1  0
 18 19  1  0
 19 20  1  0
 20 21  1  0
 21 22  1  6
 21 23  1  0
 23 24  1  6
 24 25  1  0
 25 26  1  0
 26 27  1  6
 26  9  1  0
 26 12  1  0
 23 13  1  0
 21 16  1  0
M  END
>  <MS_ID>  (2250) 
MS2331

>  <SMILES>  (2250) 
C[C@H](CCC(=O)CO)[C@H]1CC[C@H]2[C@@H]3CC[C@@H]4CCCC[C@]4(C)[C@H]3CC[C@]12C

>  <Structure_dimension>  (2250) 
2D

$$$$
MS2332
     RDKit          2D

 32 35  0  0  0  0  0  0  0  0999 V2000
   -4.8803   -2.7444    0.0000 C   0  0  0  0  0  0  0  0  0  0  0  0
   -3.9514   -1.5666    0.0000 C   0  0  0  0  0  0  0  0  0  0  0  0
   -4.5069   -0.1733    0.0000 C   0  0  0  0  0  0  0  0  0  0  0  0
   -5.9914    0.0423    0.0000 C   0  0  0  0  0  0  0  0  0  0  0  0
   -6.5469    1.4356    0.0000 C   0  0  0  0  0  0  0  0  0  0  0  0
   -5.6180    2.6134    0.0000 O   0  0  0  0  0  0  0  0  0  0  0  0
   -8.0313    1.6512    0.0000 O   0  0  0  0  0  0  0  0  0  0  0  0
   -2.4670   -1.7822    0.0000 C   0  0  0  0  0  0  0  0  0  0  0  0
   -1.7688   -3.1098    0.0000 C   0  0  0  0  0  0  0  0  0  0  0  0
   -0.2905   -2.8561    0.0000 C   0  0  0  0  0  0  0  0  0  0  0  0
   -0.0749   -1.3717    0.0000 C   0  0  0  0  0  0  0  0  0  0  0  0
    1.1725   -0.5386    0.0000 C   0  0  0  0  0  0  0  0  0  0  0  0
    2.5177   -1.2023    0.0000 C   0  0  0  0  0  0  0  0  0  0  0  0
    2.6154   -2.6991    0.0000 C   0  0  0  0  0  0  0  0  0  0  0  0
    3.9606   -3.3629    0.0000 C   0  0  0  0  0  0  0  0  0  0  0  0
    4.0584   -4.8597    0.0000 C   0  0  0  0  0  0  0  0  0  0  0  0
    5.4035   -5.5234    0.0000 O   0  0  0  0  0  0  0  0  0  0  0  0
    3.7650   -0.3693    0.0000 C   0  0  0  0  0  0  0  0  0  0  0  0
    3.6673    1.1276    0.0000 C   0  0  0  0  0  0  0  0  0  0  0  0
    4.9147    1.9606    0.0000 C   0  0  0  0  0  0  0  0  0  0  0  0
    4.8169    3.4574    0.0000 C   0  0  0  0  0  0  0  0  0  0  0  0
    6.0643    4.2905    0.0000 O   0  0  0  0  0  0  0  0  0  0  0  0
    3.4717    4.1212    0.0000 C   0  0  0  0  0  0  0  0  0  0  0  0
    2.2243    3.2881    0.0000 C   0  0  0  0  0  0  0  0  0  0  0  0
    2.3221    1.7913    0.0000 C   0  0  0  0  0  0  0  0  0  0  0  0
    0.9769    2.4550    0.0000 C   0  0  0  0  0  0  0  0  0  0  0  0
    1.0747    0.9582    0.0000 C   0  0  0  0  0  0  0  0  0  0  0  0
   -0.2704    1.6219    0.0000 C   0  0  0  0  0  0  0  0  0  0  0  0
   -1.5178    0.7889    0.0000 C   0  0  0  0  0  0  0  0  0  0  0  0
   -2.8630    1.4526    0.0000 O   0  0  0  0  0  0  0  0  0  0  0  0
   -1.4201   -0.7080    0.0000 C   0  0  0  0  0  0  0  0  0  0  0  0
   -2.8272   -0.1885    0.0000 C   0  0  0  0  0  0  0  0  0  0  0  0
  2  1  1  6
  2  3  1  0
  3  4  1  0
  4  5  1  0
  5  6  2  0
  5  7  1  0
  2  8  1  0
  8  9  1  6
  9 10  1  0
 11 10  1  6
 11 12  1  0
 12 13  1  1
 13 14  1  1
 14 15  1  0
 15 16  1  0
 16 17  1  0
 13 18  1  0
 19 18  1  1
 19 20  1  0
 20 21  1  0
 21 22  2  0
 21 23  1  0
 23 24  1  0
 24 25  1  0
 25 26  1  6
 25 27  1  0
 27 28  1  6
 28 29  1  0
 29 30  1  1
 29 31  1  0
 31 32  1  6
 31  8  1  0
 31 11  1  0
 27 12  1  0
 25 19  1  0
M  END
>  <MS_ID>  (2251) 
MS2332

>  <SMILES>  (2251) 
C[C@H](CCC(=O)O)[C@H]1CC[C@H]2[C@@H]3[C@H](CCCO)C[C@@H]4CC(=O)CC[C@]4(C)[C@H]3C[C@H](O)[C@]12C

>  <Structure_dimension>  (2251) 
2D

$$$$
MS2333
     RDKit          2D

 30 33  0  0  0  0  0  0  0  0999 V2000
   -5.8393   -1.8075    0.0000 C   0  0  0  0  0  0  0  0  0  0  0  0
   -4.6087   -0.9498    0.0000 C   0  0  0  0  0  0  0  0  0  0  0  0
   -4.7361    0.5448    0.0000 C   0  0  0  0  0  0  0  0  0  0  0  0
   -6.0942    1.1817    0.0000 C   0  0  0  0  0  0  0  0  0  0  0  0
   -6.2216    2.6763    0.0000 C   0  0  0  0  0  0  0  0  0  0  0  0
   -4.9910    3.5339    0.0000 O   0  0  0  0  0  0  0  0  0  0  0  0
   -7.5797    3.3132    0.0000 O   0  0  0  0  0  0  0  0  0  0  0  0
   -3.2506   -1.5867    0.0000 C   0  0  0  0  0  0  0  0  0  0  0  0
   -2.9677   -3.0598    0.0000 C   0  0  0  0  0  0  0  0  0  0  0  0
   -1.4793   -3.2459    0.0000 C   0  0  0  0  0  0  0  0  0  0  0  0
   -0.8423   -1.8878    0.0000 C   0  0  0  0  0  0  0  0  0  0  0  0
    0.5931   -1.4525    0.0000 C   0  0  0  0  0  0  0  0  0  0  0  0
    1.6878   -2.4779    0.0000 C   0  0  0  0  0  0  0  0  0  0  0  0
    1.3472   -3.9387    0.0000 O   0  0  0  0  0  0  0  0  0  0  0  0
    3.1233   -2.0425    0.0000 C   0  0  0  0  0  0  0  0  0  0  0  0
    3.4639   -0.5817    0.0000 C   0  0  0  0  0  0  0  0  0  0  0  0
    4.8993   -0.1463    0.0000 C   0  0  0  0  0  0  0  0  0  0  0  0
    5.2400    1.3145    0.0000 C   0  0  0  0  0  0  0  0  0  0  0  0
    6.6754    1.7499    0.0000 C   0  0  0  0  0  0  0  0  0  0  0  0
    7.7702    0.7245    0.0000 N   0  0  0  0  0  0  0  0  0  0  0  0
    9.2056    1.1599    0.0000 N   0  0  0  0  0  0  0  0  0  0  0  0
    4.1452    2.3399    0.0000 C   0  0  0  0  0  0  0  0  0  0  0  0
    2.7098    1.9045    0.0000 C   0  0  0  0  0  0  0  0  0  0  0  0
    2.3692    0.4437    0.0000 C   0  0  0  0  0  0  0  0  0  0  0  0
    1.2744    1.4692    0.0000 C   0  0  0  0  0  0  0  0  0  0  0  0
    0.9337    0.0084    0.0000 C   0  0  0  0  0  0  0  0  0  0  0  0
   -0.1610    1.0338    0.0000 C   0  0  0  0  0  0  0  0  0  0  0  0
   -1.5965    0.5984    0.0000 C   0  0  0  0  0  0  0  0  0  0  0  0
   -1.9371   -0.8624    0.0000 C   0  0  0  0  0  0  0  0  0  0  0  0
   -3.1331    0.0429    0.0000 C   0  0  0  0  0  0  0  0  0  0  0  0
  2  1  1  6
  2  3  1  0
  3  4  1  0
  4  5  1  0
  5  6  2  0
  5  7  1  0
  2  8  1  0
  8  9  1  6
  9 10  1  0
 11 10  1  6
 11 12  1  0
 12 13  1  1
 13 14  1  6
 13 15  1  0
 16 15  1  1
 16 17  1  0
 17 18  1  0
 18 19  1  1
 19 20  1  0
 20 21  1  0
 18 22  1  0
 22 23  1  0
 23 24  1  0
 24 25  1  6
 24 26  1  0
 26 27  1  6
 27 28  1  0
 28 29  1  0
 29 30  1  6
 29  8  1  0
 29 11  1  0
 26 12  1  0
 24 16  1  0
M  END
>  <MS_ID>  (2252) 
MS2333

>  <SMILES>  (2252) 
C[C@H](CCC(=O)O)[C@H]1CC[C@H]2[C@@H]3[C@@H](O)C[C@@H]4C[C@H](CNN)CC[C@]4(C)[C@H]3CC[C@]12C

>  <Structure_dimension>  (2252) 
2D

$$$$
MS2334
     RDKit          2D

 31 34  0  0  0  0  0  0  0  0999 V2000
   -5.0146   -2.6187    0.0000 C   0  0  0  0  0  0  0  0  0  0  0  0
   -4.0672   -1.4557    0.0000 C   0  0  0  0  0  0  0  0  0  0  0  0
   -4.6007   -0.0538    0.0000 C   0  0  0  0  0  0  0  0  0  0  0  0
   -6.0816    0.1851    0.0000 C   0  0  0  0  0  0  0  0  0  0  0  0
   -6.6150    1.5871    0.0000 C   0  0  0  0  0  0  0  0  0  0  0  0
   -5.6677    2.7500    0.0000 O   0  0  0  0  0  0  0  0  0  0  0  0
   -8.0959    1.8260    0.0000 O   0  0  0  0  0  0  0  0  0  0  0  0
   -2.5864   -1.6947    0.0000 C   0  0  0  0  0  0  0  0  0  0  0  0
   -1.9093   -3.0332    0.0000 C   0  0  0  0  0  0  0  0  0  0  0  0
   -0.4271   -2.8029    0.0000 C   0  0  0  0  0  0  0  0  0  0  0  0
   -0.1881   -1.3220    0.0000 C   0  0  0  0  0  0  0  0  0  0  0  0
    1.0722   -0.5087    0.0000 C   0  0  0  0  0  0  0  0  0  0  0  0
    2.4068   -1.1936    0.0000 C   0  0  0  0  0  0  0  0  0  0  0  0
    2.4809   -2.6918    0.0000 O   0  0  0  0  0  0  0  0  0  0  0  0
    3.8154   -3.3767    0.0000 C   0  0  0  0  0  0  0  0  0  0  0  0
    3.8896   -4.8748    0.0000 C   0  0  0  0  0  0  0  0  0  0  0  0
    5.2241   -5.5597    0.0000 F   0  0  0  0  0  0  0  0  0  0  0  0
    3.6671   -0.3803    0.0000 C   0  0  0  0  0  0  0  0  0  0  0  0
    3.5930    1.1178    0.0000 C   0  0  0  0  0  0  0  0  0  0  0  0
    4.8534    1.9311    0.0000 C   0  0  0  0  0  0  0  0  0  0  0  0
    4.7792    3.4293    0.0000 C   0  0  0  0  0  0  0  0  0  0  0  0
    6.0396    4.2426    0.0000 O   0  0  0  0  0  0  0  0  0  0  0  0
    3.4447    4.1142    0.0000 C   0  0  0  0  0  0  0  0  0  0  0  0
    2.1843    3.3009    0.0000 C   0  0  0  0  0  0  0  0  0  0  0  0
    2.2585    1.8027    0.0000 C   0  0  0  0  0  0  0  0  0  0  0  0
    0.9240    2.4876    0.0000 C   0  0  0  0  0  0  0  0  0  0  0  0
    0.9981    0.9894    0.0000 C   0  0  0  0  0  0  0  0  0  0  0  0
   -0.3364    1.6743    0.0000 C   0  0  0  0  0  0  0  0  0  0  0  0
   -1.5968    0.8610    0.0000 C   0  0  0  0  0  0  0  0  0  0  0  0
   -1.5227   -0.6371    0.0000 C   0  0  0  0  0  0  0  0  0  0  0  0
   -2.9215   -0.0955    0.0000 C   0  0  0  0  0  0  0  0  0  0  0  0
  2  1  1  6
  2  3  1  0
  3  4  1  0
  4  5  1  0
  5  6  2  0
  5  7  1  0
  2  8  1  0
  8  9  1  6
  9 10  1  0
 11 10  1  6
 11 12  1  0
 12 13  1  1
 13 14  1  6
 14 15  1  0
 15 16  1  0
 16 17  1  0
 13 18  1  0
 19 18  1  1
 19 20  1  0
 20 21  1  0
 21 22  1  1
 21 23  1  0
 23 24  1  0
 24 25  1  0
 25 26  1  6
 25 27  1  0
 27 28  1  6
 28 29  1  0
 29 30  1  0
 30 31  1  6
 30  8  1  0
 30 11  1  0
 27 12  1  0
 25 19  1  0
M  END
>  <MS_ID>  (2253) 
MS2334

>  <SMILES>  (2253) 
C[C@H](CCC(=O)O)[C@H]1CC[C@H]2[C@@H]3[C@@H](OCCF)C[C@@H]4C[C@H](O)CC[C@]4(C)[C@H]3CC[C@]12C

>  <Structure_dimension>  (2253) 
2D

$$$$
MS2335
     RDKit          2D

 32 35  0  0  0  0  0  0  0  0999 V2000
   -9.3885    3.6424    0.0000 C   0  0  0  0  0  0  0  0  0  0  0  0
   -8.7975    2.2638    0.0000 C   0  0  0  0  0  0  0  0  0  0  0  0
   -7.3080    2.0863    0.0000 C   0  0  0  0  0  0  0  0  0  0  0  0
   -6.7170    0.7076    0.0000 O   0  0  0  0  0  0  0  0  0  0  0  0
   -5.2276    0.5301    0.0000 C   0  0  0  0  0  0  0  0  0  0  0  0
   -4.3291    1.7312    0.0000 O   0  0  0  0  0  0  0  0  0  0  0  0
   -4.6366   -0.8486    0.0000 C   0  0  0  0  0  0  0  0  0  0  0  0
   -3.1471   -1.0261    0.0000 C   0  0  0  0  0  0  0  0  0  0  0  0
   -2.5561   -2.4048    0.0000 C   0  0  0  0  0  0  0  0  0  0  0  0
   -3.4546   -3.6059    0.0000 C   0  0  0  0  0  0  0  0  0  0  0  0
   -1.0667   -2.5823    0.0000 C   0  0  0  0  0  0  0  0  0  0  0  0
   -0.3348   -3.8917    0.0000 C   0  0  0  0  0  0  0  0  0  0  0  0
    1.1366   -3.6002    0.0000 C   0  0  0  0  0  0  0  0  0  0  0  0
    1.3141   -2.1108    0.0000 C   0  0  0  0  0  0  0  0  0  0  0  0
    2.5398   -1.2460    0.0000 C   0  0  0  0  0  0  0  0  0  0  0  0
    3.9015   -1.8751    0.0000 C   0  0  0  0  0  0  0  0  0  0  0  0
    4.0375   -3.3690    0.0000 O   0  0  0  0  0  0  0  0  0  0  0  0
    5.1272   -1.0104    0.0000 C   0  0  0  0  0  0  0  0  0  0  0  0
    4.9911    0.4834    0.0000 C   0  0  0  0  0  0  0  0  0  0  0  0
    6.2168    1.3481    0.0000 C   0  0  0  0  0  0  0  0  0  0  0  0
    6.0808    2.8419    0.0000 C   0  0  0  0  0  0  0  0  0  0  0  0
    7.3064    3.7067    0.0000 O   0  0  0  0  0  0  0  0  0  0  0  0
    4.7191    3.4710    0.0000 C   0  0  0  0  0  0  0  0  0  0  0  0
    3.4934    2.6063    0.0000 C   0  0  0  0  0  0  0  0  0  0  0  0
    3.6294    1.1125    0.0000 C   0  0  0  0  0  0  0  0  0  0  0  0
    2.2677    1.7416    0.0000 C   0  0  0  0  0  0  0  0  0  0  0  0
    2.4038    0.2478    0.0000 C   0  0  0  0  0  0  0  0  0  0  0  0
    1.0421    0.8769    0.0000 C   0  0  0  0  0  0  0  0  0  0  0  0
   -0.1836    0.0122    0.0000 C   0  0  0  0  0  0  0  0  0  0  0  0
   -1.5453    0.6413    0.0000 O   0  0  0  0  0  0  0  0  0  0  0  0
   -0.0476   -1.4817    0.0000 C   0  0  0  0  0  0  0  0  0  0  0  0
   -1.4676   -0.9983    0.0000 C   0  0  0  0  0  0  0  0  0  0  0  0
  1  2  1  0
  2  3  1  0
  3  4  1  0
  4  5  1  0
  5  6  2  0
  5  7  1  0
  7  8  1  0
  8  9  1  0
  9 10  1  6
  9 11  1  0
 11 12  1  6
 12 13  1  0
 14 13  1  6
 14 15  1  0
 15 16  1  1
 16 17  1  6
 16 18  1  0
 19 18  1  1
 19 20  1  0
 20 21  1  0
 21 22  1  1
 21 23  1  0
 23 24  1  0
 24 25  1  0
 25 26  1  6
 25 27  1  0
 27 28  1  6
 28 29  1  0
 29 30  1  1
 29 31  1  0
 31 32  1  6
 31 11  1  0
 31 14  1  0
 27 15  1  0
 25 19  1  0
M  END
>  <MS_ID>  (2254) 
MS2335

>  <SMILES>  (2254) 
CCCOC(=O)CC[C@@H](C)[C@H]1CC[C@H]2[C@@H]3[C@@H](O)C[C@@H]4C[C@H](O)CC[C@]4(C)[C@H]3C[C@H](O)[C@]12C

>  <Structure_dimension>  (2254) 
2D

$$$$
MS2336
     RDKit          2D

 32 35  0  0  0  0  0  0  0  0999 V2000
   -8.8198    2.5355    0.0000 C   0  0  0  0  0  0  0  0  0  0  0  0
   -7.3362    2.3142    0.0000 C   0  0  0  0  0  0  0  0  0  0  0  0
   -6.4028    3.4884    0.0000 C   0  0  0  0  0  0  0  0  0  0  0  0
   -6.7860    0.9188    0.0000 C   0  0  0  0  0  0  0  0  0  0  0  0
   -5.3024    0.6975    0.0000 C   0  0  0  0  0  0  0  0  0  0  0  0
   -4.3690    1.8717    0.0000 O   0  0  0  0  0  0  0  0  0  0  0  0
   -4.7523   -0.6980    0.0000 C   0  0  0  0  0  0  0  0  0  0  0  0
   -3.2687   -0.9192    0.0000 C   0  0  0  0  0  0  0  0  0  0  0  0
   -2.7185   -2.3147    0.0000 C   0  0  0  0  0  0  0  0  0  0  0  0
   -3.6519   -3.4889    0.0000 C   0  0  0  0  0  0  0  0  0  0  0  0
   -1.2349   -2.5360    0.0000 C   0  0  0  0  0  0  0  0  0  0  0  0
   -0.5419   -3.8663    0.0000 C   0  0  0  0  0  0  0  0  0  0  0  0
    0.9375   -3.6183    0.0000 C   0  0  0  0  0  0  0  0  0  0  0  0
    1.1587   -2.1347    0.0000 C   0  0  0  0  0  0  0  0  0  0  0  0
    2.4093   -1.3064    0.0000 C   0  0  0  0  0  0  0  0  0  0  0  0
    3.7519   -1.9753    0.0000 C   0  0  0  0  0  0  0  0  0  0  0  0
    3.8439   -3.4725    0.0000 O   0  0  0  0  0  0  0  0  0  0  0  0
    5.0025   -1.1470    0.0000 C   0  0  0  0  0  0  0  0  0  0  0  0
    4.9105    0.3502    0.0000 C   0  0  0  0  0  0  0  0  0  0  0  0
    6.1611    1.1784    0.0000 C   0  0  0  0  0  0  0  0  0  0  0  0
    6.0690    2.6756    0.0000 C   0  0  0  0  0  0  0  0  0  0  0  0
    7.3196    3.5039    0.0000 O   0  0  0  0  0  0  0  0  0  0  0  0
    4.7264    3.3445    0.0000 C   0  0  0  0  0  0  0  0  0  0  0  0
    3.4759    2.5162    0.0000 C   0  0  0  0  0  0  0  0  0  0  0  0
    3.5679    1.0191    0.0000 C   0  0  0  0  0  0  0  0  0  0  0  0
    2.2253    1.6879    0.0000 C   0  0  0  0  0  0  0  0  0  0  0  0
    2.3173    0.1908    0.0000 C   0  0  0  0  0  0  0  0  0  0  0  0
    0.9747    0.8597    0.0000 C   0  0  0  0  0  0  0  0  0  0  0  0
   -0.2759    0.0314    0.0000 C   0  0  0  0  0  0  0  0  0  0  0  0
   -1.6185    0.7003    0.0000 O   0  0  0  0  0  0  0  0  0  0  0  0
   -0.1839   -1.4658    0.0000 C   0  0  0  0  0  0  0  0  0  0  0  0
   -1.5890   -0.9409    0.0000 C   0  0  0  0  0  0  0  0  0  0  0  0
  1  2  1  0
  2  3  1  0
  2  4  1  0
  4  5  1  0
  5  6  2  0
  5  7  1  0
  7  8  1  0
  8  9  1  0
  9 10  1  6
  9 11  1  0
 11 12  1  6
 12 13  1  0
 14 13  1  6
 14 15  1  0
 15 16  1  1
 16 17  1  1
 16 18  1  0
 19 18  1  1
 19 20  1  0
 20 21  1  0
 21 22  1  1
 21 23  1  0
 23 24  1  0
 24 25  1  0
 25 26  1  6
 25 27  1  0
 27 28  1  6
 28 29  1  0
 29 30  1  1
 29 31  1  0
 31 32  1  6
 31 11  1  0
 31 14  1  0
 27 15  1  0
 25 19  1  0
M  END
>  <MS_ID>  (2255) 
MS2336

>  <SMILES>  (2255) 
CC(C)CC(=O)CC[C@@H](C)[C@H]1CC[C@H]2[C@@H]3[C@H](O)C[C@@H]4C[C@H](O)CC[C@]4(C)[C@H]3C[C@H](O)[C@]12C

>  <Structure_dimension>  (2255) 
2D

$$$$
MS2337
     RDKit          2D

 28 31  0  0  0  0  0  0  0  0999 V2000
   -5.1275   -2.0302    0.0000 C   0  0  0  0  0  0  0  0  0  0  0  0
   -3.9468   -1.1050    0.0000 C   0  0  0  0  0  0  0  0  0  0  0  0
   -4.1576    0.3801    0.0000 C   0  0  0  0  0  0  0  0  0  0  0  0
   -5.5492    0.9401    0.0000 C   0  0  0  0  0  0  0  0  0  0  0  0
   -5.7600    2.4252    0.0000 C   0  0  0  0  0  0  0  0  0  0  0  0
   -4.5793    3.3503    0.0000 O   0  0  0  0  0  0  0  0  0  0  0  0
   -7.1516    2.9851    0.0000 O   0  0  0  0  0  0  0  0  0  0  0  0
   -2.5552   -1.6650    0.0000 C   0  0  0  0  0  0  0  0  0  0  0  0
   -2.1903   -3.1199    0.0000 C   0  0  0  0  0  0  0  0  0  0  0  0
   -0.6938   -3.2225    0.0000 C   0  0  0  0  0  0  0  0  0  0  0  0
   -0.1339   -1.8309    0.0000 C   0  0  0  0  0  0  0  0  0  0  0  0
    1.2750   -1.3159    0.0000 C   0  0  0  0  0  0  0  0  0  0  0  0
    2.4254   -2.2785    0.0000 C   0  0  0  0  0  0  0  0  0  0  0  0
    2.1670   -3.7560    0.0000 O   0  0  0  0  0  0  0  0  0  0  0  0
    3.8342   -1.7635    0.0000 C   0  0  0  0  0  0  0  0  0  0  0  0
    4.0926   -0.2859    0.0000 C   0  0  0  0  0  0  0  0  0  0  0  0
    5.5014    0.2291    0.0000 C   0  0  0  0  0  0  0  0  0  0  0  0
    5.7598    1.7067    0.0000 C   0  0  0  0  0  0  0  0  0  0  0  0
    7.1687    2.2217    0.0000 S   0  0  0  0  0  0  0  0  0  0  0  0
    4.6094    2.6692    0.0000 C   0  0  0  0  0  0  0  0  0  0  0  0
    3.2006    2.1542    0.0000 C   0  0  0  0  0  0  0  0  0  0  0  0
    2.9422    0.6767    0.0000 C   0  0  0  0  0  0  0  0  0  0  0  0
    1.7918    1.6392    0.0000 C   0  0  0  0  0  0  0  0  0  0  0  0
    1.5334    0.1617    0.0000 C   0  0  0  0  0  0  0  0  0  0  0  0
    0.3830    1.1242    0.0000 C   0  0  0  0  0  0  0  0  0  0  0  0
   -1.0259    0.6093    0.0000 C   0  0  0  0  0  0  0  0  0  0  0  0
   -1.2843   -0.8683    0.0000 C   0  0  0  0  0  0  0  0  0  0  0  0
   -2.5290   -0.0313    0.0000 C   0  0  0  0  0  0  0  0  0  0  0  0
  2  1  1  6
  2  3  1  0
  3  4  1  0
  4  5  1  0
  5  6  2  0
  5  7  1  0
  2  8  1  0
  8  9  1  6
  9 10  1  0
 11 10  1  6
 11 12  1  0
 12 13  1  1
 13 14  1  1
 13 15  1  0
 16 15  1  1
 16 17  1  0
 17 18  1  0
 18 19  1  6
 18 20  1  0
 20 21  1  0
 21 22  1  0
 22 23  1  6
 22 24  1  0
 24 25  1  6
 25 26  1  0
 26 27  1  0
 27 28  1  6
 27  8  1  0
 27 11  1  0
 24 12  1  0
 22 16  1  0
M  END
>  <MS_ID>  (2256) 
MS2337

>  <SMILES>  (2256) 
C[C@H](CCC(=O)O)[C@H]1CC[C@H]2[C@@H]3[C@H](O)C[C@@H]4C[C@@H](S)CC[C@]4(C)[C@H]3CC[C@]12C

>  <Structure_dimension>  (2256) 
2D

$$$$
MS2338
     RDKit          2D

 37 41  0  0  0  0  0  0  0  0999 V2000
   -0.9194   -4.7117    0.0000 C   0  0  0  0  0  0  0  0  0  0  0  0
   -0.3568   -3.3212    0.0000 C   0  0  0  0  0  0  0  0  0  0  0  0
   -1.2797   -2.1388    0.0000 C   0  0  0  0  0  0  0  0  0  0  0  0
   -2.7652   -2.3468    0.0000 C   0  0  0  0  0  0  0  0  0  0  0  0
   -3.6881   -1.1643    0.0000 C   0  0  0  0  0  0  0  0  0  0  0  0
   -3.1255    0.2262    0.0000 O   0  0  0  0  0  0  0  0  0  0  0  0
   -5.1736   -1.3723    0.0000 N   0  0  0  0  0  0  0  0  0  0  0  0
   -6.0965   -0.1898    0.0000 C   0  0  0  0  0  0  0  0  0  0  0  0
   -7.5820   -0.3978    0.0000 C   0  0  0  0  0  0  0  0  0  0  0  0
   -8.5049    0.7847    0.0000 C   0  0  0  0  0  0  0  0  0  0  0  0
   -7.9423    2.1752    0.0000 C   0  0  0  0  0  0  0  0  0  0  0  0
   -8.8652    3.3576    0.0000 C   0  0  0  0  0  0  0  0  0  0  0  0
  -10.3507    3.1496    0.0000 C   0  0  0  0  0  0  0  0  0  0  0  0
  -10.9133    1.7591    0.0000 C   0  0  0  0  0  0  0  0  0  0  0  0
   -9.9904    0.5767    0.0000 C   0  0  0  0  0  0  0  0  0  0  0  0
    1.1287   -3.1132    0.0000 C   0  0  0  0  0  0  0  0  0  0  0  0
    2.1702   -4.1928    0.0000 C   0  0  0  0  0  0  0  0  0  0  0  0
    3.5187   -3.5359    0.0000 C   0  0  0  0  0  0  0  0  0  0  0  0
    3.3107   -2.0504    0.0000 C   0  0  0  0  0  0  0  0  0  0  0  0
    4.2755   -0.9018    0.0000 C   0  0  0  0  0  0  0  0  0  0  0  0
    5.7525   -1.1630    0.0000 C   0  0  0  0  0  0  0  0  0  0  0  0
    6.2649   -2.5728    0.0000 O   0  0  0  0  0  0  0  0  0  0  0  0
    6.7173   -0.0144    0.0000 C   0  0  0  0  0  0  0  0  0  0  0  0
    6.2050    1.3954    0.0000 C   0  0  0  0  0  0  0  0  0  0  0  0
    7.1697    2.5439    0.0000 C   0  0  0  0  0  0  0  0  0  0  0  0
    6.6574    3.9537    0.0000 C   0  0  0  0  0  0  0  0  0  0  0  0
    7.6222    5.1023    0.0000 O   0  0  0  0  0  0  0  0  0  0  0  0
    5.1803    4.2150    0.0000 C   0  0  0  0  0  0  0  0  0  0  0  0
    4.2156    3.0664    0.0000 C   0  0  0  0  0  0  0  0  0  0  0  0
    4.7279    1.6566    0.0000 C   0  0  0  0  0  0  0  0  0  0  0  0
    3.2508    1.9178    0.0000 C   0  0  0  0  0  0  0  0  0  0  0  0
    3.7631    0.5080    0.0000 C   0  0  0  0  0  0  0  0  0  0  0  0
    2.2861    0.7692    0.0000 C   0  0  0  0  0  0  0  0  0  0  0  0
    1.3213   -0.3794    0.0000 C   0  0  0  0  0  0  0  0  0  0  0  0
   -0.1558   -0.1181    0.0000 O   0  0  0  0  0  0  0  0  0  0  0  0
    1.8336   -1.7892    0.0000 C   0  0  0  0  0  0  0  0  0  0  0  0
    0.3373   -1.6838    0.0000 C   0  0  0  0  0  0  0  0  0  0  0  0
  2  1  1  6
  2  3  1  0
  3  4  1  0
  4  5  1  0
  5  6  2  0
  5  7  1  0
  7  8  1  0
  8  9  1  0
  9 10  1  0
 10 11  2  0
 11 12  1  0
 12 13  2  0
 13 14  1  0
 14 15  2  0
  2 16  1  0
 16 17  1  6
 17 18  1  0
 19 18  1  6
 19 20  1  0
 20 21  1  1
 21 22  1  1
 21 23  1  0
 24 23  1  1
 24 25  1  0
 25 26  1  0
 26 27  1  1
 26 28  1  0
 28 29  1  0
 29 30  1  0
 30 31  1  6
 30 32  1  0
 32 33  1  6
 33 34  1  0
 34 35  1  1
 34 36  1  0
 36 37  1  6
 15 10  1  0
 36 16  1  0
 36 19  1  0
 32 20  1  0
 30 24  1  0
M  END
>  <MS_ID>  (2257) 
MS2338

>  <SMILES>  (2257) 
C[C@H](CCC(=O)NCCc1ccccc1)[C@H]1CC[C@H]2[C@@H]3[C@H](O)C[C@@H]4C[C@H](O)CC[C@]4(C)[C@H]3C[C@H](O)[C@]12C

>  <Structure_dimension>  (2257) 
2D

$$$$
MS2339
     RDKit          2D

 29 32  0  0  0  0  0  0  0  0999 V2000
   -5.2401   -2.0328    0.0000 C   0  0  0  0  0  0  0  0  0  0  0  0
   -4.0410   -1.1316    0.0000 C   0  0  0  0  0  0  0  0  0  0  0  0
   -4.2220    0.3575    0.0000 C   0  0  0  0  0  0  0  0  0  0  0  0
   -5.6020    0.9453    0.0000 C   0  0  0  0  0  0  0  0  0  0  0  0
   -5.7830    2.4343    0.0000 C   0  0  0  0  0  0  0  0  0  0  0  0
   -4.5839    3.3355    0.0000 O   0  0  0  0  0  0  0  0  0  0  0  0
   -7.1630    3.0221    0.0000 O   0  0  0  0  0  0  0  0  0  0  0  0
   -2.6610   -1.7194    0.0000 C   0  0  0  0  0  0  0  0  0  0  0  0
   -2.3254   -3.1813    0.0000 C   0  0  0  0  0  0  0  0  0  0  0  0
   -0.8312   -3.3139    0.0000 C   0  0  0  0  0  0  0  0  0  0  0  0
   -0.2434   -1.9339    0.0000 C   0  0  0  0  0  0  0  0  0  0  0  0
    1.1754   -1.4473    0.0000 C   0  0  0  0  0  0  0  0  0  0  0  0
    2.3063   -2.4327    0.0000 C   0  0  0  0  0  0  0  0  0  0  0  0
    2.0183   -3.9048    0.0000 O   0  0  0  0  0  0  0  0  0  0  0  0
    3.7252   -1.9461    0.0000 C   0  0  0  0  0  0  0  0  0  0  0  0
    4.0132   -0.4740    0.0000 C   0  0  0  0  0  0  0  0  0  0  0  0
    5.4321    0.0126    0.0000 C   0  0  0  0  0  0  0  0  0  0  0  0
    5.7201    1.4846    0.0000 C   0  0  0  0  0  0  0  0  0  0  0  0
    7.1390    1.9713    0.0000 O   0  0  0  0  0  0  0  0  0  0  0  0
    4.5892    2.4701    0.0000 C   0  0  0  0  0  0  0  0  0  0  0  0
    3.1704    1.9835    0.0000 C   0  0  0  0  0  0  0  0  0  0  0  0
    2.8823    0.5114    0.0000 C   0  0  0  0  0  0  0  0  0  0  0  0
    1.7515    1.4969    0.0000 C   0  0  0  0  0  0  0  0  0  0  0  0
    2.0395    2.9690    0.0000 Cl  0  0  0  0  0  0  0  0  0  0  0  0
    1.4635    0.0248    0.0000 C   0  0  0  0  0  0  0  0  0  0  0  0
    0.3326    1.0103    0.0000 C   0  0  0  0  0  0  0  0  0  0  0  0
   -1.0863    0.5237    0.0000 C   0  0  0  0  0  0  0  0  0  0  0  0
   -1.3743   -0.9484    0.0000 C   0  0  0  0  0  0  0  0  0  0  0  0
   -2.6020   -0.0865    0.0000 C   0  0  0  0  0  0  0  0  0  0  0  0
  2  1  1  6
  2  3  1  0
  3  4  1  0
  4  5  1  0
  5  6  2  0
  5  7  1  0
  2  8  1  0
  8  9  1  6
  9 10  1  0
 11 10  1  6
 11 12  1  0
 12 13  1  1
 13 14  1  6
 13 15  1  0
 16 15  1  1
 16 17  1  0
 17 18  1  0
 18 19  1  1
 18 20  1  0
 20 21  1  0
 21 22  1  0
 22 23  1  6
 23 24  1  0
 22 25  1  0
 25 26  1  6
 26 27  1  0
 27 28  1  0
 28 29  1  6
 28  8  1  0
 28 11  1  0
 25 12  1  0
 22 16  1  0
M  END
>  <MS_ID>  (2258) 
MS2339

>  <SMILES>  (2258) 
C[C@H](CCC(=O)O)[C@H]1CC[C@H]2[C@@H]3[C@@H](O)C[C@@H]4C[C@H](O)CC[C@]4(CCl)[C@H]3CC[C@]12C

>  <Structure_dimension>  (2258) 
2D

$$$$
MS2340
     RDKit          2D

 30 33  0  0  0  0  0  0  0  0999 V2000
   -5.1126   -2.2702    0.0000 C   0  0  0  0  0  0  0  0  0  0  0  0
   -4.0463   -1.2153    0.0000 C   0  0  0  0  0  0  0  0  0  0  0  0
   -4.4268    0.2357    0.0000 C   0  0  0  0  0  0  0  0  0  0  0  0
   -5.8736    0.6316    0.0000 C   0  0  0  0  0  0  0  0  0  0  0  0
   -6.2540    2.0826    0.0000 C   0  0  0  0  0  0  0  0  0  0  0  0
   -5.1877    3.1376    0.0000 O   0  0  0  0  0  0  0  0  0  0  0  0
   -7.7008    2.4786    0.0000 O   0  0  0  0  0  0  0  0  0  0  0  0
   -2.5995   -1.6113    0.0000 C   0  0  0  0  0  0  0  0  0  0  0  0
   -2.0695   -3.0145    0.0000 C   0  0  0  0  0  0  0  0  0  0  0  0
   -0.5711   -2.9440    0.0000 C   0  0  0  0  0  0  0  0  0  0  0  0
   -0.1751   -1.4972    0.0000 C   0  0  0  0  0  0  0  0  0  0  0  0
    1.1650   -0.8234    0.0000 C   0  0  0  0  0  0  0  0  0  0  0  0
    2.4186   -1.6471    0.0000 C   0  0  0  0  0  0  0  0  0  0  0  0
    2.3321   -3.1446    0.0000 O   0  0  0  0  0  0  0  0  0  0  0  0
    3.5857   -3.9682    0.0000 C   0  0  0  0  0  0  0  0  0  0  0  0
    3.4992   -5.4657    0.0000 Cl  0  0  0  0  0  0  0  0  0  0  0  0
    3.7587   -0.9732    0.0000 C   0  0  0  0  0  0  0  0  0  0  0  0
    3.8453    0.5243    0.0000 C   0  0  0  0  0  0  0  0  0  0  0  0
    5.1854    1.1981    0.0000 C   0  0  0  0  0  0  0  0  0  0  0  0
    5.2719    2.6956    0.0000 C   0  0  0  0  0  0  0  0  0  0  0  0
    6.6121    3.3694    0.0000 O   0  0  0  0  0  0  0  0  0  0  0  0
    4.0183    3.5193    0.0000 C   0  0  0  0  0  0  0  0  0  0  0  0
    2.6782    2.8454    0.0000 C   0  0  0  0  0  0  0  0  0  0  0  0
    2.5917    1.3479    0.0000 C   0  0  0  0  0  0  0  0  0  0  0  0
    1.3380    2.1716    0.0000 C   0  0  0  0  0  0  0  0  0  0  0  0
    1.2515    0.6741    0.0000 C   0  0  0  0  0  0  0  0  0  0  0  0
   -0.0021    1.4978    0.0000 C   0  0  0  0  0  0  0  0  0  0  0  0
   -1.3422    0.8240    0.0000 C   0  0  0  0  0  0  0  0  0  0  0  0
   -1.4288   -0.6735    0.0000 C   0  0  0  0  0  0  0  0  0  0  0  0
   -2.7616    0.0146    0.0000 C   0  0  0  0  0  0  0  0  0  0  0  0
  2  1  1  6
  2  3  1  0
  3  4  1  0
  4  5  1  0
  5  6  2  0
  5  7  1  0
  2  8  1  0
  8  9  1  6
  9 10  1  0
 11 10  1  6
 11 12  1  0
 12 13  1  1
 13 14  1  6
 14 15  1  0
 15 16  1  0
 13 17  1  0
 18 17  1  1
 18 19  1  0
 19 20  1  0
 20 21  1  1
 20 22  1  0
 22 23  1  0
 23 24  1  0
 24 25  1  6
 24 26  1  0
 26 27  1  6
 27 28  1  0
 28 29  1  0
 29 30  1  6
 29  8  1  0
 29 11  1  0
 26 12  1  0
 24 18  1  0
M  END
>  <MS_ID>  (2259) 
MS2340

>  <SMILES>  (2259) 
C[C@H](CCC(=O)O)[C@H]1CC[C@H]2[C@@H]3[C@@H](OCCl)C[C@@H]4C[C@H](O)CC[C@]4(C)[C@H]3CC[C@]12C

>  <Structure_dimension>  (2259) 
2D

$$$$
MS2341
     RDKit          2D

 34 38  0  0  0  0  0  0  0  0999 V2000
   -2.1988   -4.3667    0.0000 C   0  0  0  0  0  0  0  0  0  0  0  0
   -1.4461   -3.0693    0.0000 C   0  0  0  0  0  0  0  0  0  0  0  0
   -2.1934   -1.7687    0.0000 C   0  0  0  0  0  0  0  0  0  0  0  0
   -3.6934   -1.7656    0.0000 C   0  0  0  0  0  0  0  0  0  0  0  0
   -4.4407   -0.4650    0.0000 C   0  0  0  0  0  0  0  0  0  0  0  0
   -3.6881    0.8325    0.0000 O   0  0  0  0  0  0  0  0  0  0  0  0
   -5.9407   -0.4619    0.0000 N   0  0  0  0  0  0  0  0  0  0  0  0
   -6.6881    0.8387    0.0000 C   0  0  0  0  0  0  0  0  0  0  0  0
   -5.9354    2.1362    0.0000 C   0  0  0  0  0  0  0  0  0  0  0  0
   -6.6827    3.4368    0.0000 C   0  0  0  0  0  0  0  0  0  0  0  0
   -8.1827    3.4399    0.0000 C   0  0  0  0  0  0  0  0  0  0  0  0
   -8.9354    2.1424    0.0000 C   0  0  0  0  0  0  0  0  0  0  0  0
   -8.1880    0.8418    0.0000 N   0  0  0  0  0  0  0  0  0  0  0  0
    0.0539   -3.0724    0.0000 C   0  0  0  0  0  0  0  0  0  0  0  0
    0.9330   -4.2877    0.0000 C   0  0  0  0  0  0  0  0  0  0  0  0
    2.3606   -3.8271    0.0000 C   0  0  0  0  0  0  0  0  0  0  0  0
    2.3637   -2.3272    0.0000 C   0  0  0  0  0  0  0  0  0  0  0  0
    3.4805   -1.3258    0.0000 C   0  0  0  0  0  0  0  0  0  0  0  0
    4.9061   -1.7922    0.0000 C   0  0  0  0  0  0  0  0  0  0  0  0
    6.0229   -0.7909    0.0000 C   0  0  0  0  0  0  0  0  0  0  0  0
    5.7141    0.6770    0.0000 C   0  0  0  0  0  0  0  0  0  0  0  0
    6.8308    1.6784    0.0000 C   0  0  0  0  0  0  0  0  0  0  0  0
    6.5220    3.1462    0.0000 C   0  0  0  0  0  0  0  0  0  0  0  0
    7.6388    4.1476    0.0000 O   0  0  0  0  0  0  0  0  0  0  0  0
    5.0964    3.6127    0.0000 C   0  0  0  0  0  0  0  0  0  0  0  0
    3.9796    2.6113    0.0000 C   0  0  0  0  0  0  0  0  0  0  0  0
    4.2884    1.1435    0.0000 C   0  0  0  0  0  0  0  0  0  0  0  0
    2.8628    1.6100    0.0000 C   0  0  0  0  0  0  0  0  0  0  0  0
    3.1716    0.1421    0.0000 C   0  0  0  0  0  0  0  0  0  0  0  0
    1.7460    0.6086    0.0000 C   0  0  0  0  0  0  0  0  0  0  0  0
    0.6292   -0.3928    0.0000 C   0  0  0  0  0  0  0  0  0  0  0  0
   -0.7964    0.0737    0.0000 O   0  0  0  0  0  0  0  0  0  0  0  0
    0.9380   -1.8607    0.0000 C   0  0  0  0  0  0  0  0  0  0  0  0
   -0.5285   -1.5458    0.0000 C   0  0  0  0  0  0  0  0  0  0  0  0
  2  1  1  6
  2  3  1  0
  3  4  1  0
  4  5  1  0
  5  6  2  0
  5  7  1  0
  7  8  1  0
  8  9  2  0
  9 10  1  0
 10 11  2  0
 11 12  1  0
 12 13  2  0
  2 14  1  0
 14 15  1  6
 15 16  1  0
 17 16  1  6
 17 18  1  0
 18 19  1  1
 19 20  1  0
 21 20  1  1
 21 22  1  0
 22 23  1  0
 23 24  1  1
 23 25  1  0
 25 26  1  0
 26 27  1  0
 27 28  1  6
 27 29  1  0
 29 30  1  6
 30 31  1  0
 31 32  1  1
 31 33  1  0
 33 34  1  6
 13  8  1  0
 33 14  1  0
 33 17  1  0
 29 18  1  0
 27 21  1  0
M  END
>  <MS_ID>  (2260) 
MS2341

>  <SMILES>  (2260) 
C[C@H](CCC(=O)Nc1ccccn1)[C@H]1CC[C@H]2[C@@H]3CC[C@@H]4C[C@H](O)CC[C@]4(C)[C@H]3C[C@H](O)[C@]12C

>  <Structure_dimension>  (2260) 
2D

$$$$
MS2342
     RDKit          2D

 33 36  0  0  0  0  0  0  0  0999 V2000
   -8.1628    4.4201    0.0000 C   0  0  0  0  0  0  0  0  0  0  0  0
   -8.0062    2.9283    0.0000 O   0  0  0  0  0  0  0  0  0  0  0  0
   -6.6360    2.3180    0.0000 C   0  0  0  0  0  0  0  0  0  0  0  0
   -5.4223    3.1995    0.0000 O   0  0  0  0  0  0  0  0  0  0  0  0
   -6.4794    0.8262    0.0000 C   0  0  0  0  0  0  0  0  0  0  0  0
   -5.1092    0.2159    0.0000 C   0  0  0  0  0  0  0  0  0  0  0  0
   -4.9526   -1.2759    0.0000 C   0  0  0  0  0  0  0  0  0  0  0  0
   -6.1663   -2.1574    0.0000 C   0  0  0  0  0  0  0  0  0  0  0  0
   -3.5824   -1.8862    0.0000 C   0  0  0  0  0  0  0  0  0  0  0  0
   -3.2707   -3.3535    0.0000 C   0  0  0  0  0  0  0  0  0  0  0  0
   -1.7789   -3.5105    0.0000 C   0  0  0  0  0  0  0  0  0  0  0  0
   -1.1687   -2.1402    0.0000 C   0  0  0  0  0  0  0  0  0  0  0  0
    0.2580   -1.6769    0.0000 C   0  0  0  0  0  0  0  0  0  0  0  0
    1.3726   -2.6808    0.0000 C   0  0  0  0  0  0  0  0  0  0  0  0
    1.0605   -4.1479    0.0000 O   0  0  0  0  0  0  0  0  0  0  0  0
    2.7992   -2.2174    0.0000 C   0  0  0  0  0  0  0  0  0  0  0  0
    3.1113   -0.7503    0.0000 C   0  0  0  0  0  0  0  0  0  0  0  0
    4.5379   -0.2869    0.0000 C   0  0  0  0  0  0  0  0  0  0  0  0
    4.8500    1.1802    0.0000 C   0  0  0  0  0  0  0  0  0  0  0  0
    6.2767    1.6436    0.0000 O   0  0  0  0  0  0  0  0  0  0  0  0
    7.3912    0.6397    0.0000 C   0  0  0  0  0  0  0  0  0  0  0  0
    8.8179    1.1030    0.0000 C   0  0  0  0  0  0  0  0  0  0  0  0
    9.1300    2.5702    0.0000 O   0  0  0  0  0  0  0  0  0  0  0  0
    9.9325    0.0992    0.0000 O   0  0  0  0  0  0  0  0  0  0  0  0
    3.7354    2.1841    0.0000 C   0  0  0  0  0  0  0  0  0  0  0  0
    2.3088    1.7208    0.0000 C   0  0  0  0  0  0  0  0  0  0  0  0
    1.9967    0.2536    0.0000 C   0  0  0  0  0  0  0  0  0  0  0  0
    0.8821    1.2574    0.0000 C   0  0  0  0  0  0  0  0  0  0  0  0
    0.5701   -0.2097    0.0000 C   0  0  0  0  0  0  0  0  0  0  0  0
   -0.5445    0.7941    0.0000 C   0  0  0  0  0  0  0  0  0  0  0  0
   -1.9712    0.3308    0.0000 C   0  0  0  0  0  0  0  0  0  0  0  0
   -2.2832   -1.1364    0.0000 C   0  0  0  0  0  0  0  0  0  0  0  0
   -3.4966   -0.2545    0.0000 C   0  0  0  0  0  0  0  0  0  0  0  0
  1  2  1  0
  2  3  1  0
  3  4  2  0
  3  5  1  0
  5  6  1  0
  6  7  1  0
  7  8  1  6
  7  9  1  0
  9 10  1  6
 10 11  1  0
 12 11  1  6
 12 13  1  0
 13 14  1  1
 14 15  1  1
 14 16  1  0
 17 16  1  1
 17 18  1  0
 18 19  1  0
 19 20  1  1
 20 21  1  0
 21 22  1  0
 22 23  2  0
 22 24  1  0
 19 25  1  0
 25 26  1  0
 26 27  1  0
 27 28  1  6
 27 29  1  0
 29 30  1  6
 30 31  1  0
 31 32  1  0
 32 33  1  6
 32  9  1  0
 32 12  1  0
 29 13  1  0
 27 17  1  0
M  END
>  <MS_ID>  (2261) 
MS2342

>  <SMILES>  (2261) 
COC(=O)CC[C@@H](C)[C@H]1CC[C@H]2[C@@H]3[C@H](O)C[C@@H]4C[C@H](OCC(=O)O)CC[C@]4(C)[C@H]3CC[C@]12C

>  <Structure_dimension>  (2261) 
2D

$$$$
MS2343
     RDKit          2D

 31 34  0  0  0  0  0  0  0  0999 V2000
   -5.7175   -1.8176    0.0000 C   0  0  0  0  0  0  0  0  0  0  0  0
   -4.4708   -0.9835    0.0000 C   0  0  0  0  0  0  0  0  0  0  0  0
   -4.5698    0.5132    0.0000 C   0  0  0  0  0  0  0  0  0  0  0  0
   -5.9155    1.1758    0.0000 C   0  0  0  0  0  0  0  0  0  0  0  0
   -6.0145    2.6726    0.0000 C   0  0  0  0  0  0  0  0  0  0  0  0
   -4.7678    3.5067    0.0000 O   0  0  0  0  0  0  0  0  0  0  0  0
   -7.3602    3.3352    0.0000 O   0  0  0  0  0  0  0  0  0  0  0  0
   -3.1251   -1.6462    0.0000 C   0  0  0  0  0  0  0  0  0  0  0  0
   -2.8701   -3.1243    0.0000 C   0  0  0  0  0  0  0  0  0  0  0  0
   -1.3855   -3.3387    0.0000 C   0  0  0  0  0  0  0  0  0  0  0  0
   -0.7229   -1.9930    0.0000 C   0  0  0  0  0  0  0  0  0  0  0  0
    0.7205   -1.5850    0.0000 C   0  0  0  0  0  0  0  0  0  0  0  0
    1.7956   -2.6310    0.0000 C   0  0  0  0  0  0  0  0  0  0  0  0
    1.4272   -4.0851    0.0000 O   0  0  0  0  0  0  0  0  0  0  0  0
    3.2390   -2.2230    0.0000 C   0  0  0  0  0  0  0  0  0  0  0  0
    3.6074   -0.7689    0.0000 C   0  0  0  0  0  0  0  0  0  0  0  0
    5.0508   -0.3609    0.0000 C   0  0  0  0  0  0  0  0  0  0  0  0
    5.4192    1.0932    0.0000 C   0  0  0  0  0  0  0  0  0  0  0  0
    6.8626    1.5012    0.0000 C   0  0  0  0  0  0  0  0  0  0  0  0
    7.2310    2.9552    0.0000 O   0  0  0  0  0  0  0  0  0  0  0  0
    7.9377    0.4551    0.0000 O   0  0  0  0  0  0  0  0  0  0  0  0
    4.3441    2.1392    0.0000 C   0  0  0  0  0  0  0  0  0  0  0  0
    2.9007    1.7312    0.0000 C   0  0  0  0  0  0  0  0  0  0  0  0
    2.5323    0.2771    0.0000 C   0  0  0  0  0  0  0  0  0  0  0  0
    1.4572    1.3232    0.0000 C   0  0  0  0  0  0  0  0  0  0  0  0
    1.0889   -0.1309    0.0000 C   0  0  0  0  0  0  0  0  0  0  0  0
    0.0138    0.9151    0.0000 C   0  0  0  0  0  0  0  0  0  0  0  0
   -1.4296    0.5071    0.0000 C   0  0  0  0  0  0  0  0  0  0  0  0
   -2.5047    1.5532    0.0000 O   0  0  0  0  0  0  0  0  0  0  0  0
   -1.7980   -0.9470    0.0000 C   0  0  0  0  0  0  0  0  0  0  0  0
   -2.9765   -0.0190    0.0000 C   0  0  0  0  0  0  0  0  0  0  0  0
  2  1  1  6
  2  3  1  0
  3  4  1  0
  4  5  1  0
  5  6  2  0
  5  7  1  0
  2  8  1  0
  8  9  1  6
  9 10  1  0
 11 10  1  6
 11 12  1  0
 12 13  1  1
 13 14  2  0
 13 15  1  0
 16 15  1  1
 16 17  1  0
 17 18  1  0
 18 19  1  1
 19 20  2  0
 19 21  1  0
 18 22  1  0
 22 23  1  0
 23 24  1  0
 24 25  1  6
 24 26  1  0
 26 27  1  6
 27 28  1  0
 28 29  1  1
 28 30  1  0
 30 31  1  6
 30  8  1  0
 30 11  1  0
 26 12  1  0
 24 16  1  0
M  END
>  <MS_ID>  (2262) 
MS2343

>  <SMILES>  (2262) 
C[C@H](CCC(=O)O)[C@H]1CC[C@H]2[C@@H]3C(=O)C[C@@H]4C[C@H](C(=O)O)CC[C@]4(C)[C@H]3C[C@H](O)[C@]12C

>  <Structure_dimension>  (2262) 
2D

$$$$
MS2344
     RDKit          2D

 29 32  0  0  0  0  0  0  0  0999 V2000
   -4.6551   -2.6180    0.0000 C   0  0  0  0  0  0  0  0  0  0  0  0
   -3.5633   -1.5894    0.0000 C   0  0  0  0  0  0  0  0  0  0  0  0
   -3.9081   -0.1296    0.0000 C   0  0  0  0  0  0  0  0  0  0  0  0
   -5.3448    0.3016    0.0000 C   0  0  0  0  0  0  0  0  0  0  0  0
   -5.6897    1.7615    0.0000 C   0  0  0  0  0  0  0  0  0  0  0  0
   -4.5979    2.7900    0.0000 O   0  0  0  0  0  0  0  0  0  0  0  0
   -7.1264    2.1927    0.0000 C   0  0  0  0  0  0  0  0  0  0  0  0
   -7.4712    3.6525    0.0000 O   0  0  0  0  0  0  0  0  0  0  0  0
   -2.1266   -2.0207    0.0000 C   0  0  0  0  0  0  0  0  0  0  0  0
   -1.6310   -3.4364    0.0000 C   0  0  0  0  0  0  0  0  0  0  0  0
   -0.1314   -3.4026    0.0000 C   0  0  0  0  0  0  0  0  0  0  0  0
    0.2998   -1.9659    0.0000 C   0  0  0  0  0  0  0  0  0  0  0  0
    1.6561   -1.3251    0.0000 C   0  0  0  0  0  0  0  0  0  0  0  0
    2.8892   -2.1792    0.0000 C   0  0  0  0  0  0  0  0  0  0  0  0
    2.7660   -3.6741    0.0000 O   0  0  0  0  0  0  0  0  0  0  0  0
    4.2454   -1.5383    0.0000 C   0  0  0  0  0  0  0  0  0  0  0  0
    4.3685   -0.0434    0.0000 C   0  0  0  0  0  0  0  0  0  0  0  0
    5.7247    0.5975    0.0000 C   0  0  0  0  0  0  0  0  0  0  0  0
    5.8478    2.0924    0.0000 C   0  0  0  0  0  0  0  0  0  0  0  0
    7.2040    2.7332    0.0000 O   0  0  0  0  0  0  0  0  0  0  0  0
    4.6147    2.9465    0.0000 C   0  0  0  0  0  0  0  0  0  0  0  0
    3.2585    2.3056    0.0000 C   0  0  0  0  0  0  0  0  0  0  0  0
    3.1354    0.8107    0.0000 C   0  0  0  0  0  0  0  0  0  0  0  0
    1.9023    1.6648    0.0000 C   0  0  0  0  0  0  0  0  0  0  0  0
    1.7792    0.1699    0.0000 C   0  0  0  0  0  0  0  0  0  0  0  0
    0.5461    1.0239    0.0000 C   0  0  0  0  0  0  0  0  0  0  0  0
   -0.8101    0.3831    0.0000 C   0  0  0  0  0  0  0  0  0  0  0  0
   -0.9333   -1.1118    0.0000 C   0  0  0  0  0  0  0  0  0  0  0  0
   -2.2489   -0.3913    0.0000 C   0  0  0  0  0  0  0  0  0  0  0  0
  2  1  1  6
  2  3  1  0
  3  4  1  0
  4  5  1  0
  5  6  2  0
  5  7  1  0
  7  8  2  0
  2  9  1  0
  9 10  1  6
 10 11  1  0
 12 11  1  6
 12 13  1  0
 13 14  1  1
 14 15  1  1
 14 16  1  0
 17 16  1  1
 17 18  1  0
 18 19  1  0
 19 20  1  1
 19 21  1  0
 21 22  1  0
 22 23  1  0
 23 24  1  6
 23 25  1  0
 25 26  1  6
 26 27  1  0
 27 28  1  0
 28 29  1  6
 28  9  1  0
 28 12  1  0
 25 13  1  0
 23 17  1  0
M  END
>  <MS_ID>  (2263) 
MS2344

>  <SMILES>  (2263) 
C[C@H](CCC(=O)C=O)[C@H]1CC[C@H]2[C@@H]3[C@H](O)C[C@@H]4C[C@H](O)CC[C@]4(C)[C@H]3CC[C@]12C

>  <Structure_dimension>  (2263) 
2D

$$$$
MS2345
     RDKit          2D

 30 33  0  0  0  0  0  0  0  0999 V2000
   -7.6155    3.8720    0.0000 C   0  0  0  0  0  0  0  0  0  0  0  0
   -7.3244    2.4005    0.0000 O   0  0  0  0  0  0  0  0  0  0  0  0
   -5.9045    1.9169    0.0000 C   0  0  0  0  0  0  0  0  0  0  0  0
   -4.7757    2.9047    0.0000 O   0  0  0  0  0  0  0  0  0  0  0  0
   -5.6135    0.4454    0.0000 C   0  0  0  0  0  0  0  0  0  0  0  0
   -4.1936   -0.0383    0.0000 C   0  0  0  0  0  0  0  0  0  0  0  0
   -3.9026   -1.5098    0.0000 C   0  0  0  0  0  0  0  0  0  0  0  0
   -5.0314   -2.4976    0.0000 C   0  0  0  0  0  0  0  0  0  0  0  0
   -2.4827   -1.9935    0.0000 C   0  0  0  0  0  0  0  0  0  0  0  0
   -2.0394   -3.4265    0.0000 C   0  0  0  0  0  0  0  0  0  0  0  0
   -0.5396   -3.4478    0.0000 C   0  0  0  0  0  0  0  0  0  0  0  0
   -0.0559   -2.0279    0.0000 C   0  0  0  0  0  0  0  0  0  0  0  0
    1.3230   -1.4373    0.0000 C   0  0  0  0  0  0  0  0  0  0  0  0
    2.5239   -2.3360    0.0000 C   0  0  0  0  0  0  0  0  0  0  0  0
    2.3460   -3.8255    0.0000 O   0  0  0  0  0  0  0  0  0  0  0  0
    3.9027   -1.7454    0.0000 C   0  0  0  0  0  0  0  0  0  0  0  0
    4.0806   -0.2560    0.0000 C   0  0  0  0  0  0  0  0  0  0  0  0
    5.4594    0.3346    0.0000 C   0  0  0  0  0  0  0  0  0  0  0  0
    5.6373    1.8240    0.0000 C   0  0  0  0  0  0  0  0  0  0  0  0
    7.0162    2.4147    0.0000 O   0  0  0  0  0  0  0  0  0  0  0  0
    8.2171    1.5159    0.0000 C   0  0  0  0  0  0  0  0  0  0  0  0
    4.4364    2.7228    0.0000 C   0  0  0  0  0  0  0  0  0  0  0  0
    3.0576    2.1322    0.0000 C   0  0  0  0  0  0  0  0  0  0  0  0
    2.8797    0.6428    0.0000 C   0  0  0  0  0  0  0  0  0  0  0  0
    1.6788    1.5416    0.0000 C   0  0  0  0  0  0  0  0  0  0  0  0
    1.5009    0.0522    0.0000 C   0  0  0  0  0  0  0  0  0  0  0  0
    0.3000    0.9509    0.0000 C   0  0  0  0  0  0  0  0  0  0  0  0
   -1.0789    0.3603    0.0000 C   0  0  0  0  0  0  0  0  0  0  0  0
   -1.2568   -1.1291    0.0000 C   0  0  0  0  0  0  0  0  0  0  0  0
   -2.5451   -0.3608    0.0000 C   0  0  0  0  0  0  0  0  0  0  0  0
  1  2  1  0
  2  3  1  0
  3  4  2  0
  3  5  1  0
  5  6  1  0
  6  7  1  0
  7  8  1  6
  7  9  1  0
  9 10  1  6
 10 11  1  0
 12 11  1  6
 12 13  1  0
 13 14  1  1
 14 15  1  1
 14 16  1  0
 17 16  1  1
 17 18  1  0
 18 19  1  0
 19 20  1  1
 20 21  1  0
 19 22  1  0
 22 23  1  0
 23 24  1  0
 24 25  1  6
 24 26  1  0
 26 27  1  6
 27 28  1  0
 28 29  1  0
 29 30  1  6
 29  9  1  0
 29 12  1  0
 26 13  1  0
 24 17  1  0
M  END
>  <MS_ID>  (2264) 
MS2345

>  <SMILES>  (2264) 
COC(=O)CC[C@@H](C)[C@H]1CC[C@H]2[C@@H]3[C@H](O)C[C@@H]4C[C@H](OC)CC[C@]4(C)[C@H]3CC[C@]12C

>  <Structure_dimension>  (2264) 
2D

$$$$
MS2346
     RDKit          2D

 35 39  0  0  0  0  0  0  0  0999 V2000
   -1.3718   -4.5891    0.0000 C   0  0  0  0  0  0  0  0  0  0  0  0
   -0.7616   -3.2188    0.0000 C   0  0  0  0  0  0  0  0  0  0  0  0
   -1.6432   -2.0053    0.0000 C   0  0  0  0  0  0  0  0  0  0  0  0
   -3.1350   -2.1620    0.0000 C   0  0  0  0  0  0  0  0  0  0  0  0
   -4.0166   -0.9484    0.0000 C   0  0  0  0  0  0  0  0  0  0  0  0
   -3.4064    0.4219    0.0000 O   0  0  0  0  0  0  0  0  0  0  0  0
   -5.5084   -1.1051    0.0000 O   0  0  0  0  0  0  0  0  0  0  0  0
   -6.3900    0.1085    0.0000 C   0  0  0  0  0  0  0  0  0  0  0  0
   -7.8818   -0.0482    0.0000 C   0  0  0  0  0  0  0  0  0  0  0  0
   -8.7634    1.1653    0.0000 C   0  0  0  0  0  0  0  0  0  0  0  0
  -10.2634    1.1654    0.0000 C   0  0  0  0  0  0  0  0  0  0  0  0
  -10.7269    2.5920    0.0000 N   0  0  0  0  0  0  0  0  0  0  0  0
   -9.5133    3.4737    0.0000 C   0  0  0  0  0  0  0  0  0  0  0  0
   -8.2998    2.5919    0.0000 N   0  0  0  0  0  0  0  0  0  0  0  0
    0.7302   -3.0621    0.0000 C   0  0  0  0  0  0  0  0  0  0  0  0
    1.7338   -4.1769    0.0000 C   0  0  0  0  0  0  0  0  0  0  0  0
    3.1042   -3.5669    0.0000 C   0  0  0  0  0  0  0  0  0  0  0  0
    2.9474   -2.0751    0.0000 C   0  0  0  0  0  0  0  0  0  0  0  0
    3.9512   -0.9604    0.0000 C   0  0  0  0  0  0  0  0  0  0  0  0
    5.4184   -1.2724    0.0000 C   0  0  0  0  0  0  0  0  0  0  0  0
    5.8819   -2.6990    0.0000 O   0  0  0  0  0  0  0  0  0  0  0  0
    6.4222   -0.1577    0.0000 C   0  0  0  0  0  0  0  0  0  0  0  0
    5.9587    1.2689    0.0000 C   0  0  0  0  0  0  0  0  0  0  0  0
    6.9625    2.3835    0.0000 C   0  0  0  0  0  0  0  0  0  0  0  0
    6.4990    3.8101    0.0000 C   0  0  0  0  0  0  0  0  0  0  0  0
    7.5028    4.9248    0.0000 O   0  0  0  0  0  0  0  0  0  0  0  0
    5.0318    4.1221    0.0000 C   0  0  0  0  0  0  0  0  0  0  0  0
    4.0281    3.0074    0.0000 C   0  0  0  0  0  0  0  0  0  0  0  0
    4.4915    1.5808    0.0000 C   0  0  0  0  0  0  0  0  0  0  0  0
    3.0243    1.8928    0.0000 C   0  0  0  0  0  0  0  0  0  0  0  0
    3.4878    0.4662    0.0000 C   0  0  0  0  0  0  0  0  0  0  0  0
    2.0206    0.7781    0.0000 C   0  0  0  0  0  0  0  0  0  0  0  0
    1.0168   -0.3365    0.0000 C   0  0  0  0  0  0  0  0  0  0  0  0
    1.4802   -1.7631    0.0000 C   0  0  0  0  0  0  0  0  0  0  0  0
   -0.0115   -1.6063    0.0000 C   0  0  0  0  0  0  0  0  0  0  0  0
  2  1  1  6
  2  3  1  0
  3  4  1  0
  4  5  1  0
  5  6  2  0
  5  7  1  0
  7  8  1  0
  8  9  1  0
  9 10  1  0
 10 11  2  0
 11 12  1  0
 12 13  1  0
 13 14  2  0
  2 15  1  0
 15 16  1  6
 16 17  1  0
 18 17  1  6
 18 19  1  0
 19 20  1  1
 20 21  1  1
 20 22  1  0
 23 22  1  1
 23 24  1  0
 24 25  1  0
 25 26  1  1
 25 27  1  0
 27 28  1  0
 28 29  1  0
 29 30  1  6
 29 31  1  0
 31 32  1  6
 32 33  1  0
 33 34  1  0
 34 35  1  6
 14 10  1  0
 34 15  1  0
 34 18  1  0
 31 19  1  0
 29 23  1  0
M  END
>  <MS_ID>  (2265) 
MS2346

>  <SMILES>  (2265) 
C[C@H](CCC(=O)OCCc1c[nH]cn1)[C@H]1CC[C@H]2[C@@H]3[C@H](O)C[C@@H]4C[C@H](O)CC[C@]4(C)[C@H]3CC[C@]12C

>  <Structure_dimension>  (2265) 
2D

$$$$
MS2347
     RDKit          2D

 29 32  0  0  0  0  0  0  0  0999 V2000
   -5.1421   -2.1269    0.0000 C   0  0  0  0  0  0  0  0  0  0  0  0
   -4.0091   -1.1439    0.0000 C   0  0  0  0  0  0  0  0  0  0  0  0
   -4.2938    0.3288    0.0000 C   0  0  0  0  0  0  0  0  0  0  0  0
   -5.7116    0.8186    0.0000 C   0  0  0  0  0  0  0  0  0  0  0  0
   -5.9963    2.2913    0.0000 C   0  0  0  0  0  0  0  0  0  0  0  0
   -4.8632    3.2743    0.0000 O   0  0  0  0  0  0  0  0  0  0  0  0
   -7.4141    2.7811    0.0000 O   0  0  0  0  0  0  0  0  0  0  0  0
   -2.5913   -1.6337    0.0000 C   0  0  0  0  0  0  0  0  0  0  0  0
   -2.1542   -3.0686    0.0000 C   0  0  0  0  0  0  0  0  0  0  0  0
   -0.6544   -3.0963    0.0000 C   0  0  0  0  0  0  0  0  0  0  0  0
   -0.1646   -1.6785    0.0000 C   0  0  0  0  0  0  0  0  0  0  0  0
    1.2167   -1.0938    0.0000 C   0  0  0  0  0  0  0  0  0  0  0  0
    2.4137   -1.9977    0.0000 C   0  0  0  0  0  0  0  0  0  0  0  0
    2.2294   -3.4864    0.0000 C   0  0  0  0  0  0  0  0  0  0  0  0
    3.4265   -4.3903    0.0000 O   0  0  0  0  0  0  0  0  0  0  0  0
    3.7951   -1.4130    0.0000 C   0  0  0  0  0  0  0  0  0  0  0  0
    3.9794    0.0756    0.0000 C   0  0  0  0  0  0  0  0  0  0  0  0
    5.3607    0.6603    0.0000 C   0  0  0  0  0  0  0  0  0  0  0  0
    5.5451    2.1489    0.0000 C   0  0  0  0  0  0  0  0  0  0  0  0
    6.9264    2.7336    0.0000 O   0  0  0  0  0  0  0  0  0  0  0  0
    4.3480    3.0529    0.0000 C   0  0  0  0  0  0  0  0  0  0  0  0
    2.9667    2.4682    0.0000 C   0  0  0  0  0  0  0  0  0  0  0  0
    2.7824    0.9795    0.0000 C   0  0  0  0  0  0  0  0  0  0  0  0
    1.5853    1.8835    0.0000 C   0  0  0  0  0  0  0  0  0  0  0  0
    1.4010    0.3948    0.0000 C   0  0  0  0  0  0  0  0  0  0  0  0
    0.2040    1.2988    0.0000 C   0  0  0  0  0  0  0  0  0  0  0  0
   -1.1774    0.7141    0.0000 C   0  0  0  0  0  0  0  0  0  0  0  0
   -1.3617   -0.7746    0.0000 C   0  0  0  0  0  0  0  0  0  0  0  0
   -2.6467   -0.0007    0.0000 C   0  0  0  0  0  0  0  0  0  0  0  0
  2  1  1  6
  2  3  1  0
  3  4  1  0
  4  5  1  0
  5  6  2  0
  5  7  1  0
  2  8  1  0
  8  9  1  6
  9 10  1  0
 11 10  1  6
 11 12  1  0
 12 13  1  1
 13 14  2  0
 14 15  1  0
 13 16  1  0
 17 16  1  1
 17 18  1  0
 18 19  1  0
 19 20  1  1
 19 21  1  0
 21 22  1  0
 22 23  1  0
 23 24  1  6
 23 25  1  0
 25 26  1  6
 26 27  1  0
 27 28  1  0
 28 29  1  6
 28  8  1  0
 28 11  1  0
 25 12  1  0
 23 17  1  0
M  END
>  <MS_ID>  (2266) 
MS2347

>  <SMILES>  (2266) 
C[C@H](CCC(=O)O)[C@H]1CC[C@H]2[C@@H]3/C(=C/O)C[C@@H]4C[C@H](O)CC[C@]4(C)[C@H]3CC[C@]12C

>  <Structure_dimension>  (2266) 
2D

$$$$
MS2348
     RDKit          2D

 33 36  0  0  0  0  0  0  0  0999 V2000
   -7.9714    3.9952    0.0000 C   0  0  0  0  0  0  0  0  0  0  0  0
   -7.7219    2.5161    0.0000 O   0  0  0  0  0  0  0  0  0  0  0  0
   -6.3162    1.9927    0.0000 C   0  0  0  0  0  0  0  0  0  0  0  0
   -5.1601    2.9483    0.0000 O   0  0  0  0  0  0  0  0  0  0  0  0
   -6.0667    0.5136    0.0000 C   0  0  0  0  0  0  0  0  0  0  0  0
   -4.6610   -0.0099    0.0000 C   0  0  0  0  0  0  0  0  0  0  0  0
   -4.4115   -1.4890    0.0000 C   0  0  0  0  0  0  0  0  0  0  0  0
   -5.5677   -2.4446    0.0000 C   0  0  0  0  0  0  0  0  0  0  0  0
   -3.0058   -2.0125    0.0000 C   0  0  0  0  0  0  0  0  0  0  0  0
   -2.6031   -3.4574    0.0000 C   0  0  0  0  0  0  0  0  0  0  0  0
   -1.1044   -3.5209    0.0000 C   0  0  0  0  0  0  0  0  0  0  0  0
   -0.5810   -2.1152    0.0000 C   0  0  0  0  0  0  0  0  0  0  0  0
    0.8139   -1.5636    0.0000 C   0  0  0  0  0  0  0  0  0  0  0  0
    1.9891   -2.4958    0.0000 C   0  0  0  0  0  0  0  0  0  0  0  0
    1.7693   -3.9796    0.0000 O   0  0  0  0  0  0  0  0  0  0  0  0
    3.3840   -1.9442    0.0000 C   0  0  0  0  0  0  0  0  0  0  0  0
    3.6038   -0.4604    0.0000 C   0  0  0  0  0  0  0  0  0  0  0  0
    4.9987    0.0912    0.0000 C   0  0  0  0  0  0  0  0  0  0  0  0
    5.2184    1.5750    0.0000 C   0  0  0  0  0  0  0  0  0  0  0  0
    6.6133    2.1265    0.0000 O   0  0  0  0  0  0  0  0  0  0  0  0
    7.7885    1.1943    0.0000 C   0  0  0  0  0  0  0  0  0  0  0  0
    9.1834    1.7459    0.0000 C   0  0  0  0  0  0  0  0  0  0  0  0
    7.5687   -0.2895    0.0000 O   0  0  0  0  0  0  0  0  0  0  0  0
    4.0433    2.5072    0.0000 C   0  0  0  0  0  0  0  0  0  0  0  0
    2.6484    1.9556    0.0000 C   0  0  0  0  0  0  0  0  0  0  0  0
    2.4286    0.4718    0.0000 C   0  0  0  0  0  0  0  0  0  0  0  0
    1.2535    1.4040    0.0000 C   0  0  0  0  0  0  0  0  0  0  0  0
    1.0337   -0.0798    0.0000 C   0  0  0  0  0  0  0  0  0  0  0  0
   -0.1414    0.8525    0.0000 C   0  0  0  0  0  0  0  0  0  0  0  0
   -1.5363    0.3009    0.0000 C   0  0  0  0  0  0  0  0  0  0  0  0
   -2.7115    1.2331    0.0000 O   0  0  0  0  0  0  0  0  0  0  0  0
   -1.7561   -1.1829    0.0000 C   0  0  0  0  0  0  0  0  0  0  0  0
   -3.0222   -0.3786    0.0000 C   0  0  0  0  0  0  0  0  0  0  0  0
  1  2  1  0
  2  3  1  0
  3  4  2  0
  3  5  1  0
  5  6  1  0
  6  7  1  0
  7  8  1  6
  7  9  1  0
  9 10  1  6
 10 11  1  0
 12 11  1  6
 12 13  1  0
 13 14  1  1
 14 15  1  1
 14 16  1  0
 17 16  1  1
 17 18  1  0
 18 19  1  0
 19 20  1  1
 20 21  1  0
 21 22  1  0
 21 23  2  0
 19 24  1  0
 24 25  1  0
 25 26  1  0
 26 27  1  6
 26 28  1  0
 28 29  1  6
 29 30  1  0
 30 31  1  1
 30 32  1  0
 32 33  1  6
 32  9  1  0
 32 12  1  0
 28 13  1  0
 26 17  1  0
M  END
>  <MS_ID>  (2267) 
MS2348

>  <SMILES>  (2267) 
COC(=O)CC[C@@H](C)[C@H]1CC[C@H]2[C@@H]3[C@H](O)C[C@@H]4C[C@H](OC(C)=O)CC[C@]4(C)[C@H]3C[C@H](O)[C@]12C

>  <Structure_dimension>  (2267) 
2D

$$$$
MS2349
     RDKit          2D

 35 38  0  0  0  0  0  0  0  0999 V2000
   -2.1548   -4.1626    0.0000 C   0  0  0  0  0  0  0  0  0  0  0  0
   -1.4021   -2.8651    0.0000 C   0  0  0  0  0  0  0  0  0  0  0  0
   -2.1494   -1.5645    0.0000 C   0  0  0  0  0  0  0  0  0  0  0  0
   -3.6494   -1.5614    0.0000 C   0  0  0  0  0  0  0  0  0  0  0  0
   -4.3967   -0.2608    0.0000 C   0  0  0  0  0  0  0  0  0  0  0  0
   -3.6439    1.0367    0.0000 O   0  0  0  0  0  0  0  0  0  0  0  0
   -5.8967   -0.2577    0.0000 C   0  0  0  0  0  0  0  0  0  0  0  0
   -6.6439    1.0430    0.0000 C   0  0  0  0  0  0  0  0  0  0  0  0
   -8.1439    1.0461    0.0000 C   0  0  0  0  0  0  0  0  0  0  0  0
   -8.8967   -0.2514    0.0000 O   0  0  0  0  0  0  0  0  0  0  0  0
   -8.8912    2.3467    0.0000 C   0  0  0  0  0  0  0  0  0  0  0  0
   -8.1385    3.6442    0.0000 O   0  0  0  0  0  0  0  0  0  0  0  0
  -10.3912    2.3498    0.0000 O   0  0  0  0  0  0  0  0  0  0  0  0
    0.0979   -2.8683    0.0000 C   0  0  0  0  0  0  0  0  0  0  0  0
    0.9770   -4.0836    0.0000 C   0  0  0  0  0  0  0  0  0  0  0  0
    2.4046   -3.6231    0.0000 C   0  0  0  0  0  0  0  0  0  0  0  0
    2.4077   -2.1231    0.0000 C   0  0  0  0  0  0  0  0  0  0  0  0
    3.5245   -1.1217    0.0000 C   0  0  0  0  0  0  0  0  0  0  0  0
    4.9501   -1.5883    0.0000 C   0  0  0  0  0  0  0  0  0  0  0  0
    5.2589   -3.0561    0.0000 O   0  0  0  0  0  0  0  0  0  0  0  0
    6.0670   -0.5869    0.0000 C   0  0  0  0  0  0  0  0  0  0  0  0
    5.7582    0.8810    0.0000 C   0  0  0  0  0  0  0  0  0  0  0  0
    6.8750    1.8823    0.0000 C   0  0  0  0  0  0  0  0  0  0  0  0
    6.5662    3.3502    0.0000 C   0  0  0  0  0  0  0  0  0  0  0  0
    7.6830    4.3516    0.0000 O   0  0  0  0  0  0  0  0  0  0  0  0
    5.1406    3.8167    0.0000 C   0  0  0  0  0  0  0  0  0  0  0  0
    4.0238    2.8154    0.0000 C   0  0  0  0  0  0  0  0  0  0  0  0
    4.3326    1.3475    0.0000 C   0  0  0  0  0  0  0  0  0  0  0  0
    2.9069    1.8140    0.0000 C   0  0  0  0  0  0  0  0  0  0  0  0
    3.2157    0.3461    0.0000 C   0  0  0  0  0  0  0  0  0  0  0  0
    1.7901    0.8126    0.0000 C   0  0  0  0  0  0  0  0  0  0  0  0
    0.6733   -0.1887    0.0000 C   0  0  0  0  0  0  0  0  0  0  0  0
   -0.7523    0.2778    0.0000 O   0  0  0  0  0  0  0  0  0  0  0  0
    0.9821   -1.6566    0.0000 C   0  0  0  0  0  0  0  0  0  0  0  0
   -0.4845   -1.3417    0.0000 C   0  0  0  0  0  0  0  0  0  0  0  0
  2  1  1  6
  2  3  1  0
  3  4  1  0
  4  5  1  0
  5  6  2  0
  5  7  1  0
  7  8  1  0
  8  9  1  0
  9 10  2  0
  9 11  1  0
 11 12  2  0
 11 13  1  0
  2 14  1  0
 14 15  1  6
 15 16  1  0
 17 16  1  6
 17 18  1  0
 18 19  1  1
 19 20  1  1
 19 21  1  0
 22 21  1  1
 22 23  1  0
 23 24  1  0
 24 25  1  1
 24 26  1  0
 26 27  1  0
 27 28  1  0
 28 29  1  6
 28 30  1  0
 30 31  1  6
 31 32  1  0
 32 33  1  1
 32 34  1  0
 34 35  1  6
 34 14  1  0
 34 17  1  0
 30 18  1  0
 28 22  1  0
M  END
>  <MS_ID>  (2268) 
MS2349

>  <SMILES>  (2268) 
C[C@H](CCC(=O)CCC(=O)C(=O)O)[C@H]1CC[C@H]2[C@@H]3[C@H](O)C[C@@H]4C[C@H](O)CC[C@]4(C)[C@H]3C[C@H](O)[C@]12C

>  <Structure_dimension>  (2268) 
2D

$$$$
MS2350
     RDKit          2D

 29 32  0  0  0  0  0  0  0  0999 V2000
   -4.6212   -2.5003    0.0000 C   0  0  0  0  0  0  0  0  0  0  0  0
   -3.5781   -1.4224    0.0000 C   0  0  0  0  0  0  0  0  0  0  0  0
   -3.9900    0.0199    0.0000 C   0  0  0  0  0  0  0  0  0  0  0  0
   -5.4450    0.3844    0.0000 C   0  0  0  0  0  0  0  0  0  0  0  0
   -5.8569    1.8267    0.0000 C   0  0  0  0  0  0  0  0  0  0  0  0
   -4.8137    2.9046    0.0000 O   0  0  0  0  0  0  0  0  0  0  0  0
   -7.3119    2.1912    0.0000 O   0  0  0  0  0  0  0  0  0  0  0  0
   -2.1230   -1.7869    0.0000 C   0  0  0  0  0  0  0  0  0  0  0  0
   -1.5626   -3.1783    0.0000 C   0  0  0  0  0  0  0  0  0  0  0  0
   -0.0662   -3.0753    0.0000 C   0  0  0  0  0  0  0  0  0  0  0  0
    0.2983   -1.6202    0.0000 C   0  0  0  0  0  0  0  0  0  0  0  0
    1.6235   -0.9174    0.0000 C   0  0  0  0  0  0  0  0  0  0  0  0
    2.8947   -1.7137    0.0000 C   0  0  0  0  0  0  0  0  0  0  0  0
    2.8407   -3.2127    0.0000 N   0  0  0  0  0  0  0  0  0  0  0  0
    4.1119   -4.0090    0.0000 O   0  0  0  0  0  0  0  0  0  0  0  0
    4.2199   -1.0109    0.0000 C   0  0  0  0  0  0  0  0  0  0  0  0
    4.2739    0.4881    0.0000 C   0  0  0  0  0  0  0  0  0  0  0  0
    5.5990    1.1908    0.0000 C   0  0  0  0  0  0  0  0  0  0  0  0
    5.6530    2.6899    0.0000 C   0  0  0  0  0  0  0  0  0  0  0  0
    4.3818    3.4861    0.0000 C   0  0  0  0  0  0  0  0  0  0  0  0
    3.0566    2.7834    0.0000 C   0  0  0  0  0  0  0  0  0  0  0  0
    3.0026    1.2843    0.0000 C   0  0  0  0  0  0  0  0  0  0  0  0
    1.7314    2.0806    0.0000 C   0  0  0  0  0  0  0  0  0  0  0  0
    1.6775    0.5816    0.0000 C   0  0  0  0  0  0  0  0  0  0  0  0
    0.4063    1.3778    0.0000 C   0  0  0  0  0  0  0  0  0  0  0  0
   -0.9189    0.6751    0.0000 C   0  0  0  0  0  0  0  0  0  0  0  0
   -2.1901    1.4713    0.0000 O   0  0  0  0  0  0  0  0  0  0  0  0
   -0.9729   -0.8239    0.0000 C   0  0  0  0  0  0  0  0  0  0  0  0
   -2.3204   -0.1649    0.0000 C   0  0  0  0  0  0  0  0  0  0  0  0
  2  1  1  6
  2  3  1  0
  3  4  1  0
  4  5  1  0
  5  6  2  0
  5  7  1  0
  2  8  1  0
  8  9  1  6
  9 10  1  0
 11 10  1  6
 11 12  1  0
 12 13  1  1
 13 14  1  1
 14 15  1  0
 13 16  1  0
 17 16  1  1
 17 18  1  0
 18 19  1  0
 19 20  1  0
 20 21  1  0
 21 22  1  0
 22 23  1  6
 22 24  1  0
 24 25  1  6
 25 26  1  0
 26 27  1  1
 26 28  1  0
 28 29  1  6
 28  8  1  0
 28 11  1  0
 24 12  1  0
 22 17  1  0
M  END
>  <MS_ID>  (2269) 
MS2350

>  <SMILES>  (2269) 
C[C@H](CCC(=O)O)[C@H]1CC[C@H]2[C@@H]3[C@H](NO)C[C@@H]4CCCC[C@]4(C)[C@H]3C[C@H](O)[C@]12C

>  <Structure_dimension>  (2269) 
2D

$$$$
MS2351
     RDKit          2D

 28 31  0  0  0  0  0  0  0  0999 V2000
   -4.6340   -2.3524    0.0000 C   0  0  0  0  0  0  0  0  0  0  0  0
   -3.5242   -1.3434    0.0000 C   0  0  0  0  0  0  0  0  0  0  0  0
   -3.8431    0.1223    0.0000 C   0  0  0  0  0  0  0  0  0  0  0  0
   -5.2720    0.5789    0.0000 C   0  0  0  0  0  0  0  0  0  0  0  0
   -5.5909    2.0446    0.0000 C   0  0  0  0  0  0  0  0  0  0  0  0
   -4.4811    3.0537    0.0000 O   0  0  0  0  0  0  0  0  0  0  0  0
   -7.0197    2.5012    0.0000 O   0  0  0  0  0  0  0  0  0  0  0  0
   -2.0954   -1.8000    0.0000 C   0  0  0  0  0  0  0  0  0  0  0  0
   -1.6249   -3.2243    0.0000 C   0  0  0  0  0  0  0  0  0  0  0  0
   -0.1249   -3.2170    0.0000 C   0  0  0  0  0  0  0  0  0  0  0  0
    0.3317   -1.7882    0.0000 C   0  0  0  0  0  0  0  0  0  0  0  0
    1.6990   -1.1715    0.0000 C   0  0  0  0  0  0  0  0  0  0  0  0
    2.9168   -2.0473    0.0000 C   0  0  0  0  0  0  0  0  0  0  0  0
    2.7672   -3.5398    0.0000 O   0  0  0  0  0  0  0  0  0  0  0  0
    4.2841   -1.4305    0.0000 C   0  0  0  0  0  0  0  0  0  0  0  0
    4.4337    0.0620    0.0000 C   0  0  0  0  0  0  0  0  0  0  0  0
    5.8011    0.6787    0.0000 C   0  0  0  0  0  0  0  0  0  0  0  0
    5.9506    2.1713    0.0000 C   0  0  0  0  0  0  0  0  0  0  0  0
    4.7328    3.0471    0.0000 C   0  0  0  0  0  0  0  0  0  0  0  0
    3.3655    2.4303    0.0000 C   0  0  0  0  0  0  0  0  0  0  0  0
    3.2159    0.9378    0.0000 C   0  0  0  0  0  0  0  0  0  0  0  0
    1.9981    1.8136    0.0000 C   0  0  0  0  0  0  0  0  0  0  0  0
    1.8486    0.3211    0.0000 C   0  0  0  0  0  0  0  0  0  0  0  0
    0.6308    1.1968    0.0000 C   0  0  0  0  0  0  0  0  0  0  0  0
   -0.7366    0.5801    0.0000 C   0  0  0  0  0  0  0  0  0  0  0  0
   -1.9543    1.4559    0.0000 O   0  0  0  0  0  0  0  0  0  0  0  0
   -0.8861   -0.9124    0.0000 C   0  0  0  0  0  0  0  0  0  0  0  0
   -2.1888   -0.1687    0.0000 C   0  0  0  0  0  0  0  0  0  0  0  0
  2  1  1  6
  2  3  1  0
  3  4  1  0
  4  5  1  0
  5  6  2  0
  5  7  1  0
  2  8  1  0
  8  9  1  6
  9 10  1  0
 11 10  1  6
 11 12  1  0
 12 13  1  1
 13 14  1  6
 13 15  1  0
 16 15  1  1
 16 17  1  0
 17 18  1  0
 18 19  1  0
 19 20  1  0
 20 21  1  0
 21 22  1  6
 21 23  1  0
 23 24  1  6
 24 25  1  0
 25 26  2  0
 25 27  1  0
 27 28  1  6
 27  8  1  0
 27 11  1  0
 23 12  1  0
 21 16  1  0
M  END
>  <MS_ID>  (2270) 
MS2351

>  <SMILES>  (2270) 
C[C@H](CCC(=O)O)[C@H]1CC[C@H]2[C@@H]3[C@@H](O)C[C@@H]4CCCC[C@]4(C)[C@H]3CC(=O)[C@]12C

>  <Structure_dimension>  (2270) 
2D

$$$$
MS2352
     RDKit          2D

 32 35  0  0  0  0  0  0  0  0999 V2000
   -3.6519   -3.4889    0.0000 C   0  0  0  0  0  0  0  0  0  0  0  0
   -2.7185   -2.3147    0.0000 C   0  0  0  0  0  0  0  0  0  0  0  0
   -3.2687   -0.9192    0.0000 C   0  0  0  0  0  0  0  0  0  0  0  0
   -4.7523   -0.6980    0.0000 C   0  0  0  0  0  0  0  0  0  0  0  0
   -5.3024    0.6975    0.0000 C   0  0  0  0  0  0  0  0  0  0  0  0
   -4.3690    1.8717    0.0000 O   0  0  0  0  0  0  0  0  0  0  0  0
   -6.7860    0.9188    0.0000 N   0  0  0  0  0  0  0  0  0  0  0  0
   -7.3362    2.3142    0.0000 C   0  0  0  0  0  0  0  0  0  0  0  0
   -8.8198    2.5355    0.0000 N   0  0  0  0  0  0  0  0  0  0  0  0
   -6.4028    3.4884    0.0000 O   0  0  0  0  0  0  0  0  0  0  0  0
   -1.2349   -2.5360    0.0000 C   0  0  0  0  0  0  0  0  0  0  0  0
   -0.5419   -3.8663    0.0000 C   0  0  0  0  0  0  0  0  0  0  0  0
    0.9375   -3.6183    0.0000 C   0  0  0  0  0  0  0  0  0  0  0  0
    1.1587   -2.1347    0.0000 C   0  0  0  0  0  0  0  0  0  0  0  0
    2.4093   -1.3064    0.0000 C   0  0  0  0  0  0  0  0  0  0  0  0
    3.7519   -1.9753    0.0000 C   0  0  0  0  0  0  0  0  0  0  0  0
    3.8439   -3.4725    0.0000 O   0  0  0  0  0  0  0  0  0  0  0  0
    5.0025   -1.1470    0.0000 C   0  0  0  0  0  0  0  0  0  0  0  0
    4.9105    0.3502    0.0000 C   0  0  0  0  0  0  0  0  0  0  0  0
    6.1611    1.1784    0.0000 C   0  0  0  0  0  0  0  0  0  0  0  0
    6.0690    2.6756    0.0000 C   0  0  0  0  0  0  0  0  0  0  0  0
    7.3196    3.5039    0.0000 O   0  0  0  0  0  0  0  0  0  0  0  0
    4.7264    3.3445    0.0000 C   0  0  0  0  0  0  0  0  0  0  0  0
    3.4759    2.5162    0.0000 C   0  0  0  0  0  0  0  0  0  0  0  0
    3.5679    1.0191    0.0000 C   0  0  0  0  0  0  0  0  0  0  0  0
    2.2253    1.6879    0.0000 C   0  0  0  0  0  0  0  0  0  0  0  0
    2.3173    0.1908    0.0000 C   0  0  0  0  0  0  0  0  0  0  0  0
    0.9747    0.8597    0.0000 C   0  0  0  0  0  0  0  0  0  0  0  0
   -0.2759    0.0314    0.0000 C   0  0  0  0  0  0  0  0  0  0  0  0
   -1.6185    0.7003    0.0000 O   0  0  0  0  0  0  0  0  0  0  0  0
   -0.1839   -1.4658    0.0000 C   0  0  0  0  0  0  0  0  0  0  0  0
   -1.5890   -0.9409    0.0000 C   0  0  0  0  0  0  0  0  0  0  0  0
  2  1  1  6
  2  3  1  0
  3  4  1  0
  4  5  1  0
  5  6  2  0
  5  7  1  0
  7  8  1  0
  8  9  1  0
  8 10  2  0
  2 11  1  0
 11 12  1  6
 12 13  1  0
 14 13  1  6
 14 15  1  0
 15 16  1  1
 16 17  1  1
 16 18  1  0
 19 18  1  1
 19 20  1  0
 20 21  1  0
 21 22  1  1
 21 23  1  0
 23 24  1  0
 24 25  1  0
 25 26  1  6
 25 27  1  0
 27 28  1  6
 28 29  1  0
 29 30  1  1
 29 31  1  0
 31 32  1  6
 31 11  1  0
 31 14  1  0
 27 15  1  0
 25 19  1  0
M  END
>  <MS_ID>  (2271) 
MS2352

>  <SMILES>  (2271) 
C[C@H](CCC(=O)NC(N)=O)[C@H]1CC[C@H]2[C@@H]3[C@H](O)C[C@@H]4C[C@H](O)CC[C@]4(C)[C@H]3C[C@H](O)[C@]12C

>  <Structure_dimension>  (2271) 
2D

$$$$
MS2353
     RDKit          2D

 30 33  0  0  0  0  0  0  0  0999 V2000
   -8.9136    3.2062    0.0000 C   0  0  0  0  0  0  0  0  0  0  0  0
   -7.4457    2.8978    0.0000 C   0  0  0  0  0  0  0  0  0  0  0  0
   -6.9787    1.4724    0.0000 C   0  0  0  0  0  0  0  0  0  0  0  0
   -5.5108    1.1640    0.0000 C   0  0  0  0  0  0  0  0  0  0  0  0
   -4.5097    2.2811    0.0000 O   0  0  0  0  0  0  0  0  0  0  0  0
   -5.0438   -0.2615    0.0000 C   0  0  0  0  0  0  0  0  0  0  0  0
   -3.5759   -0.5698    0.0000 C   0  0  0  0  0  0  0  0  0  0  0  0
   -3.1089   -1.9953    0.0000 C   0  0  0  0  0  0  0  0  0  0  0  0
   -4.1099   -3.1124    0.0000 C   0  0  0  0  0  0  0  0  0  0  0  0
   -1.6409   -2.3036    0.0000 C   0  0  0  0  0  0  0  0  0  0  0  0
   -1.0276   -3.6725    0.0000 C   0  0  0  0  0  0  0  0  0  0  0  0
    0.4638   -3.5121    0.0000 C   0  0  0  0  0  0  0  0  0  0  0  0
    0.7722   -2.0441    0.0000 C   0  0  0  0  0  0  0  0  0  0  0  0
    2.0694   -1.2910    0.0000 C   0  0  0  0  0  0  0  0  0  0  0  0
    3.3703   -2.0379    0.0000 C   0  0  0  0  0  0  0  0  0  0  0  0
    3.3739   -3.5379    0.0000 O   0  0  0  0  0  0  0  0  0  0  0  0
    4.6675   -1.2848    0.0000 C   0  0  0  0  0  0  0  0  0  0  0  0
    4.6639    0.2152    0.0000 C   0  0  0  0  0  0  0  0  0  0  0  0
    5.9611    0.9683    0.0000 C   0  0  0  0  0  0  0  0  0  0  0  0
    5.9575    2.4683    0.0000 C   0  0  0  0  0  0  0  0  0  0  0  0
    7.2548    3.2214    0.0000 O   0  0  0  0  0  0  0  0  0  0  0  0
    4.6567    3.2152    0.0000 C   0  0  0  0  0  0  0  0  0  0  0  0
    3.3595    2.4621    0.0000 C   0  0  0  0  0  0  0  0  0  0  0  0
    3.3631    0.9621    0.0000 C   0  0  0  0  0  0  0  0  0  0  0  0
    2.0622    1.7090    0.0000 C   0  0  0  0  0  0  0  0  0  0  0  0
    2.0658    0.2090    0.0000 C   0  0  0  0  0  0  0  0  0  0  0  0
    0.7650    0.9559    0.0000 C   0  0  0  0  0  0  0  0  0  0  0  0
   -0.5322    0.2027    0.0000 C   0  0  0  0  0  0  0  0  0  0  0  0
   -0.5286   -1.2973    0.0000 C   0  0  0  0  0  0  0  0  0  0  0  0
   -1.9004   -0.6904    0.0000 C   0  0  0  0  0  0  0  0  0  0  0  0
  1  2  1  0
  2  3  2  0
  3  4  1  0
  4  5  2  0
  4  6  1  0
  6  7  1  0
  7  8  1  0
  8  9  1  6
  8 10  1  0
 10 11  1  6
 11 12  1  0
 13 12  1  6
 13 14  1  0
 14 15  1  1
 15 16  1  1
 15 17  1  0
 18 17  1  1
 18 19  1  0
 19 20  1  0
 20 21  1  1
 20 22  1  0
 22 23  1  0
 23 24  1  0
 24 25  1  6
 24 26  1  0
 26 27  1  6
 27 28  1  0
 28 29  1  0
 29 30  1  6
 29 10  1  0
 29 13  1  0
 26 14  1  0
 24 18  1  0
M  END
>  <MS_ID>  (2272) 
MS2353

>  <SMILES>  (2272) 
C/C=C/C(=O)CC[C@@H](C)[C@H]1CC[C@H]2[C@@H]3[C@H](O)C[C@@H]4C[C@H](O)CC[C@]4(C)[C@H]3CC[C@]12C

>  <Structure_dimension>  (2272) 
2D

$$$$
MS2354
     RDKit          2D

 39 43  0  0  0  0  0  0  0  0999 V2000
    3.6214    4.8248    0.0000 C   0  0  0  0  0  0  0  0  0  0  0  0
    3.6667    3.3254    0.0000 C   0  0  0  0  0  0  0  0  0  0  0  0
    4.9877    2.6149    0.0000 C   0  0  0  0  0  0  0  0  0  0  0  0
    6.2636    3.4038    0.0000 C   0  0  0  0  0  0  0  0  0  0  0  0
    7.5846    2.6933    0.0000 C   0  0  0  0  0  0  0  0  0  0  0  0
    7.6298    1.1939    0.0000 O   0  0  0  0  0  0  0  0  0  0  0  0
    8.8605    3.4821    0.0000 O   0  0  0  0  0  0  0  0  0  0  0  0
    2.3908    2.5366    0.0000 C   0  0  0  0  0  0  0  0  0  0  0  0
    1.0027    3.1052    0.0000 C   0  0  0  0  0  0  0  0  0  0  0  0
    0.0331    1.9607    0.0000 C   0  0  0  0  0  0  0  0  0  0  0  0
    0.8219    0.6849    0.0000 C   0  0  0  0  0  0  0  0  0  0  0  0
    0.4016   -0.7551    0.0000 C   0  0  0  0  0  0  0  0  0  0  0  0
   -1.0556   -1.1110    0.0000 C   0  0  0  0  0  0  0  0  0  0  0  0
   -2.0924   -0.0270    0.0000 O   0  0  0  0  0  0  0  0  0  0  0  0
   -3.5496   -0.3830    0.0000 C   0  0  0  0  0  0  0  0  0  0  0  0
   -3.9699   -1.8229    0.0000 O   0  0  0  0  0  0  0  0  0  0  0  0
   -4.5864    0.7010    0.0000 C   0  0  0  0  0  0  0  0  0  0  0  0
   -6.0436    0.3450    0.0000 C   0  0  0  0  0  0  0  0  0  0  0  0
   -7.0804    1.4290    0.0000 C   0  0  0  0  0  0  0  0  0  0  0  0
   -6.6601    2.8689    0.0000 C   0  0  0  0  0  0  0  0  0  0  0  0
   -7.6969    3.9528    0.0000 C   0  0  0  0  0  0  0  0  0  0  0  0
   -9.1541    3.5969    0.0000 C   0  0  0  0  0  0  0  0  0  0  0  0
   -9.5744    2.1570    0.0000 C   0  0  0  0  0  0  0  0  0  0  0  0
   -8.5375    1.0730    0.0000 C   0  0  0  0  0  0  0  0  0  0  0  0
   -1.4759   -2.5509    0.0000 C   0  0  0  0  0  0  0  0  0  0  0  0
   -0.4390   -3.6349    0.0000 C   0  0  0  0  0  0  0  0  0  0  0  0
   -0.8594   -5.0748    0.0000 C   0  0  0  0  0  0  0  0  0  0  0  0
    0.1775   -6.1587    0.0000 C   0  0  0  0  0  0  0  0  0  0  0  0
   -0.2428   -7.5986    0.0000 O   0  0  0  0  0  0  0  0  0  0  0  0
    1.6346   -5.8028    0.0000 C   0  0  0  0  0  0  0  0  0  0  0  0
    2.0549   -4.3629    0.0000 C   0  0  0  0  0  0  0  0  0  0  0  0
    1.0181   -3.2789    0.0000 C   0  0  0  0  0  0  0  0  0  0  0  0
    2.4753   -2.9230    0.0000 C   0  0  0  0  0  0  0  0  0  0  0  0
    1.4384   -1.8390    0.0000 C   0  0  0  0  0  0  0  0  0  0  0  0
    2.8956   -1.4831    0.0000 C   0  0  0  0  0  0  0  0  0  0  0  0
    3.3159   -0.0432    0.0000 C   0  0  0  0  0  0  0  0  0  0  0  0
    4.7731    0.3128    0.0000 O   0  0  0  0  0  0  0  0  0  0  0  0
    2.2791    1.0408    0.0000 C   0  0  0  0  0  0  0  0  0  0  0  0
    3.6910    1.5471    0.0000 C   0  0  0  0  0  0  0  0  0  0  0  0
  2  1  1  6
  2  3  1  0
  3  4  1  0
  4  5  1  0
  5  6  2  0
  5  7  1  0
  2  8  1  0
  8  9  1  6
  9 10  1  0
 11 10  1  6
 11 12  1  0
 12 13  1  1
 13 14  1  1
 14 15  1  0
 15 16  2  0
 15 17  1  0
 17 18  2  0
 18 19  1  0
 19 20  2  0
 20 21  1  0
 21 22  2  0
 22 23  1  0
 23 24  2  0
 13 25  1  0
 26 25  1  1
 26 27  1  0
 27 28  1  0
 28 29  1  1
 28 30  1  0
 30 31  1  0
 31 32  1  0
 32 33  1  6
 32 34  1  0
 34 35  1  6
 35 36  1  0
 36 37  1  1
 36 38  1  0
 38 39  1  6
 38  8  1  0
 38 11  1  0
 34 12  1  0
 24 19  1  0
 32 26  1  0
M  END
>  <MS_ID>  (2273) 
MS2354

>  <SMILES>  (2273) 
C[C@H](CCC(=O)O)[C@H]1CC[C@H]2[C@@H]3[C@H](OC(=O)/C=C/c4ccccc4)C[C@@H]4C[C@H](O)CC[C@]4(C)[C@H]3C[C@H](O)[C@]12C

>  <Structure_dimension>  (2273) 
2D

$$$$
MS2355
     RDKit          2D

 32 35  0  0  0  0  0  0  0  0999 V2000
   -4.9943   -2.3529    0.0000 C   0  0  0  0  0  0  0  0  0  0  0  0
   -3.9600   -1.2665    0.0000 C   0  0  0  0  0  0  0  0  0  0  0  0
   -4.3838    0.1724    0.0000 C   0  0  0  0  0  0  0  0  0  0  0  0
   -5.8418    0.5249    0.0000 C   0  0  0  0  0  0  0  0  0  0  0  0
   -6.2655    1.9638    0.0000 C   0  0  0  0  0  0  0  0  0  0  0  0
   -5.2312    3.0502    0.0000 O   0  0  0  0  0  0  0  0  0  0  0  0
   -7.7235    2.3163    0.0000 O   0  0  0  0  0  0  0  0  0  0  0  0
   -2.5020   -1.6190    0.0000 C   0  0  0  0  0  0  0  0  0  0  0  0
   -1.9302   -3.0058    0.0000 C   0  0  0  0  0  0  0  0  0  0  0  0
   -0.4347   -2.8905    0.0000 C   0  0  0  0  0  0  0  0  0  0  0  0
   -0.0822   -1.4325    0.0000 C   0  0  0  0  0  0  0  0  0  0  0  0
    1.2372   -0.7188    0.0000 C   0  0  0  0  0  0  0  0  0  0  0  0
    2.5149   -1.5046    0.0000 C   0  0  0  0  0  0  0  0  0  0  0  0
    2.4732   -3.0041    0.0000 C   0  0  0  0  0  0  0  0  0  0  0  0
    1.1539   -3.7177    0.0000 O   0  0  0  0  0  0  0  0  0  0  0  0
    3.7509   -3.7898    0.0000 C   0  0  0  0  0  0  0  0  0  0  0  0
    3.7093   -5.2893    0.0000 O   0  0  0  0  0  0  0  0  0  0  0  0
    3.8343   -0.7910    0.0000 C   0  0  0  0  0  0  0  0  0  0  0  0
    3.8759    0.7084    0.0000 C   0  0  0  0  0  0  0  0  0  0  0  0
    5.1953    1.4221    0.0000 C   0  0  0  0  0  0  0  0  0  0  0  0
    5.2370    2.9215    0.0000 C   0  0  0  0  0  0  0  0  0  0  0  0
    6.5563    3.6351    0.0000 O   0  0  0  0  0  0  0  0  0  0  0  0
    3.9592    3.7073    0.0000 C   0  0  0  0  0  0  0  0  0  0  0  0
    2.6399    2.9936    0.0000 C   0  0  0  0  0  0  0  0  0  0  0  0
    2.5982    1.4942    0.0000 C   0  0  0  0  0  0  0  0  0  0  0  0
    1.3205    2.2800    0.0000 C   0  0  0  0  0  0  0  0  0  0  0  0
    1.2788    0.7806    0.0000 C   0  0  0  0  0  0  0  0  0  0  0  0
    0.0011    1.5664    0.0000 C   0  0  0  0  0  0  0  0  0  0  0  0
   -1.3182    0.8527    0.0000 C   0  0  0  0  0  0  0  0  0  0  0  0
   -2.5959    1.6385    0.0000 O   0  0  0  0  0  0  0  0  0  0  0  0
   -1.3599   -0.6467    0.0000 C   0  0  0  0  0  0  0  0  0  0  0  0
   -2.7127    0.0012    0.0000 C   0  0  0  0  0  0  0  0  0  0  0  0
  2  1  1  6
  2  3  1  0
  3  4  1  0
  4  5  1  0
  5  6  2  0
  5  7  1  0
  2  8  1  0
  8  9  1  6
  9 10  1  0
 11 10  1  6
 11 12  1  0
 12 13  1  1
 13 14  1  1
 14 15  2  0
 14 16  1  0
 16 17  1  0
 13 18  1  0
 19 18  1  1
 19 20  1  0
 20 21  1  0
 21 22  1  1
 21 23  1  0
 23 24  1  0
 24 25  1  0
 25 26  1  6
 25 27  1  0
 27 28  1  6
 28 29  1  0
 29 30  1  1
 29 31  1  0
 31 32  1  6
 31  8  1  0
 31 11  1  0
 27 12  1  0
 25 19  1  0
M  END
>  <MS_ID>  (2274) 
MS2355

>  <SMILES>  (2274) 
C[C@H](CCC(=O)O)[C@H]1CC[C@H]2[C@@H]3[C@H](C(=O)CO)C[C@@H]4C[C@H](O)CC[C@]4(C)[C@H]3C[C@H](O)[C@]12C

>  <Structure_dimension>  (2274) 
2D

$$$$
MS2356
     RDKit          2D

 32 36  0  0  0  0  0  0  0  0999 V2000
   -6.3766   -1.6468    0.0000 C   0  0  0  0  0  0  0  0  0  0  0  0
   -5.0756   -0.9002    0.0000 C   0  0  0  0  0  0  0  0  0  0  0  0
   -5.0716    0.5998    0.0000 C   0  0  0  0  0  0  0  0  0  0  0  0
   -6.3687    1.3532    0.0000 C   0  0  0  0  0  0  0  0  0  0  0  0
   -6.3647    2.8532    0.0000 C   0  0  0  0  0  0  0  0  0  0  0  0
   -5.0637    3.5998    0.0000 O   0  0  0  0  0  0  0  0  0  0  0  0
   -7.6617    3.6066    0.0000 O   0  0  0  0  0  0  0  0  0  0  0  0
   -3.7785   -1.6537    0.0000 C   0  0  0  0  0  0  0  0  0  0  0  0
   -3.6257   -3.1459    0.0000 C   0  0  0  0  0  0  0  0  0  0  0  0
   -2.1593   -3.4616    0.0000 C   0  0  0  0  0  0  0  0  0  0  0  0
   -1.4059   -2.1646    0.0000 C   0  0  0  0  0  0  0  0  0  0  0  0
    0.0622   -1.8566    0.0000 C   0  0  0  0  0  0  0  0  0  0  0  0
    1.0629   -2.9740    0.0000 C   0  0  0  0  0  0  0  0  0  0  0  0
    2.5310   -2.6660    0.0000 C   0  0  0  0  0  0  0  0  0  0  0  0
    2.9983   -1.2406    0.0000 C   0  0  0  0  0  0  0  0  0  0  0  0
    4.4663   -0.9326    0.0000 C   0  0  0  0  0  0  0  0  0  0  0  0
    4.9336    0.4927    0.0000 C   0  0  0  0  0  0  0  0  0  0  0  0
    6.4016    0.8007    0.0000 N   0  0  0  0  0  0  0  0  0  0  0  0
    7.0154    2.1694    0.0000 C   0  0  0  0  0  0  0  0  0  0  0  0
    8.5067    2.0086    0.0000 C   0  0  0  0  0  0  0  0  0  0  0  0
    8.8147    0.5406    0.0000 N   0  0  0  0  0  0  0  0  0  0  0  0
    7.5137   -0.2060    0.0000 C   0  0  0  0  0  0  0  0  0  0  0  0
    3.9329    1.6101    0.0000 C   0  0  0  0  0  0  0  0  0  0  0  0
    2.4648    1.3021    0.0000 C   0  0  0  0  0  0  0  0  0  0  0  0
    1.9975   -0.1233    0.0000 C   0  0  0  0  0  0  0  0  0  0  0  0
    0.9968    0.9941    0.0000 C   0  0  0  0  0  0  0  0  0  0  0  0
    0.5295   -0.4312    0.0000 C   0  0  0  0  0  0  0  0  0  0  0  0
   -0.4713    0.6861    0.0000 C   0  0  0  0  0  0  0  0  0  0  0  0
   -1.9393    0.3782    0.0000 C   0  0  0  0  0  0  0  0  0  0  0  0
   -2.9400    1.4955    0.0000 O   0  0  0  0  0  0  0  0  0  0  0  0
   -2.4066   -1.0472    0.0000 C   0  0  0  0  0  0  0  0  0  0  0  0
   -3.5187   -0.0405    0.0000 C   0  0  0  0  0  0  0  0  0  0  0  0
  2  1  1  6
  2  3  1  0
  3  4  1  0
  4  5  1  0
  5  6  2  0
  5  7  1  0
  2  8  1  0
  8  9  1  6
  9 10  1  0
 11 10  1  6
 11 12  1  0
 12 13  1  1
 13 14  1  0
 15 14  1  1
 15 16  1  0
 16 17  1  0
 17 18  1  1
 18 19  1  0
 19 20  2  0
 20 21  1  0
 21 22  2  0
 17 23  1  0
 23 24  1  0
 24 25  1  0
 25 26  1  6
 25 27  1  0
 27 28  1  6
 28 29  1  0
 29 30  1  1
 29 31  1  0
 31 32  1  6
 31  8  1  0
 31 11  1  0
 27 12  1  0
 25 15  1  0
 22 18  1  0
M  END
>  <MS_ID>  (2275) 
MS2356

>  <SMILES>  (2275) 
C[C@H](CCC(=O)O)[C@H]1CC[C@H]2[C@@H]3CC[C@@H]4C[C@H](n5ccnc5)CC[C@]4(C)[C@H]3C[C@H](O)[C@]12C

>  <Structure_dimension>  (2275) 
2D

$$$$
MS2357
     RDKit          2D

 30 33  0  0  0  0  0  0  0  0999 V2000
   -5.1126   -2.2702    0.0000 C   0  0  0  0  0  0  0  0  0  0  0  0
   -4.0463   -1.2153    0.0000 C   0  0  0  0  0  0  0  0  0  0  0  0
   -4.4268    0.2357    0.0000 C   0  0  0  0  0  0  0  0  0  0  0  0
   -5.8736    0.6316    0.0000 C   0  0  0  0  0  0  0  0  0  0  0  0
   -6.2540    2.0826    0.0000 C   0  0  0  0  0  0  0  0  0  0  0  0
   -5.1877    3.1376    0.0000 O   0  0  0  0  0  0  0  0  0  0  0  0
   -7.7008    2.4786    0.0000 O   0  0  0  0  0  0  0  0  0  0  0  0
   -2.5995   -1.6113    0.0000 C   0  0  0  0  0  0  0  0  0  0  0  0
   -2.0695   -3.0145    0.0000 C   0  0  0  0  0  0  0  0  0  0  0  0
   -0.5711   -2.9440    0.0000 C   0  0  0  0  0  0  0  0  0  0  0  0
   -0.1751   -1.4972    0.0000 C   0  0  0  0  0  0  0  0  0  0  0  0
    1.1650   -0.8234    0.0000 C   0  0  0  0  0  0  0  0  0  0  0  0
    2.4186   -1.6471    0.0000 C   0  0  0  0  0  0  0  0  0  0  0  0
    2.3321   -3.1446    0.0000 O   0  0  0  0  0  0  0  0  0  0  0  0
    3.5857   -3.9682    0.0000 C   0  0  0  0  0  0  0  0  0  0  0  0
    3.4992   -5.4657    0.0000 O   0  0  0  0  0  0  0  0  0  0  0  0
    3.7587   -0.9732    0.0000 C   0  0  0  0  0  0  0  0  0  0  0  0
    3.8453    0.5243    0.0000 C   0  0  0  0  0  0  0  0  0  0  0  0
    5.1854    1.1981    0.0000 C   0  0  0  0  0  0  0  0  0  0  0  0
    5.2719    2.6956    0.0000 C   0  0  0  0  0  0  0  0  0  0  0  0
    6.6121    3.3694    0.0000 O   0  0  0  0  0  0  0  0  0  0  0  0
    4.0183    3.5193    0.0000 C   0  0  0  0  0  0  0  0  0  0  0  0
    2.6782    2.8454    0.0000 C   0  0  0  0  0  0  0  0  0  0  0  0
    2.5917    1.3479    0.0000 C   0  0  0  0  0  0  0  0  0  0  0  0
    1.3380    2.1716    0.0000 C   0  0  0  0  0  0  0  0  0  0  0  0
    1.2515    0.6741    0.0000 C   0  0  0  0  0  0  0  0  0  0  0  0
   -0.0021    1.4978    0.0000 C   0  0  0  0  0  0  0  0  0  0  0  0
   -1.3422    0.8240    0.0000 C   0  0  0  0  0  0  0  0  0  0  0  0
   -1.4288   -0.6735    0.0000 C   0  0  0  0  0  0  0  0  0  0  0  0
   -2.7616    0.0146    0.0000 C   0  0  0  0  0  0  0  0  0  0  0  0
  2  1  1  6
  2  3  1  0
  3  4  1  0
  4  5  1  0
  5  6  2  0
  5  7  1  0
  2  8  1  0
  8  9  1  6
  9 10  1  0
 11 10  1  6
 11 12  1  0
 12 13  1  1
 13 14  1  6
 14 15  1  0
 15 16  1  0
 13 17  1  0
 18 17  1  1
 18 19  1  0
 19 20  1  0
 20 21  1  1
 20 22  1  0
 22 23  1  0
 23 24  1  0
 24 25  1  6
 24 26  1  0
 26 27  1  6
 27 28  1  0
 28 29  1  0
 29 30  1  6
 29  8  1  0
 29 11  1  0
 26 12  1  0
 24 18  1  0
M  END
>  <MS_ID>  (2276) 
MS2357

>  <SMILES>  (2276) 
C[C@H](CCC(=O)O)[C@H]1CC[C@H]2[C@@H]3[C@@H](OCO)C[C@@H]4C[C@H](O)CC[C@]4(C)[C@H]3CC[C@]12C

>  <Structure_dimension>  (2276) 
2D

$$$$
MS2358
     RDKit          2D

 35 38  0  0  0  0  0  0  0  0999 V2000
   -1.6716   -4.3356    0.0000 C   0  0  0  0  0  0  0  0  0  0  0  0
   -0.9758   -3.0067    0.0000 C   0  0  0  0  0  0  0  0  0  0  0  0
   -1.7788   -1.7397    0.0000 C   0  0  0  0  0  0  0  0  0  0  0  0
   -3.2776   -1.8016    0.0000 C   0  0  0  0  0  0  0  0  0  0  0  0
   -4.0806   -0.5347    0.0000 C   0  0  0  0  0  0  0  0  0  0  0  0
   -3.3848    0.7942    0.0000 O   0  0  0  0  0  0  0  0  0  0  0  0
   -5.5793   -0.5966    0.0000 C   0  0  0  0  0  0  0  0  0  0  0  0
   -6.3823    0.6703    0.0000 C   0  0  0  0  0  0  0  0  0  0  0  0
   -5.6866    1.9992    0.0000 O   0  0  0  0  0  0  0  0  0  0  0  0
   -7.8810    0.6084    0.0000 O   0  0  0  0  0  0  0  0  0  0  0  0
   -8.6840    1.8754    0.0000 C   0  0  0  0  0  0  0  0  0  0  0  0
  -10.1827    1.8134    0.0000 C   0  0  0  0  0  0  0  0  0  0  0  0
  -10.8784    0.4845    0.0000 O   0  0  0  0  0  0  0  0  0  0  0  0
  -10.9857    3.0804    0.0000 O   0  0  0  0  0  0  0  0  0  0  0  0
    0.5229   -2.9447    0.0000 C   0  0  0  0  0  0  0  0  0  0  0  0
    1.4539   -4.1208    0.0000 C   0  0  0  0  0  0  0  0  0  0  0  0
    2.8601   -3.5988    0.0000 C   0  0  0  0  0  0  0  0  0  0  0  0
    2.7982   -2.1000    0.0000 C   0  0  0  0  0  0  0  0  0  0  0  0
    3.8705   -1.0512    0.0000 C   0  0  0  0  0  0  0  0  0  0  0  0
    5.3150   -1.4554    0.0000 C   0  0  0  0  0  0  0  0  0  0  0  0
    5.6872   -2.9085    0.0000 O   0  0  0  0  0  0  0  0  0  0  0  0
    6.3874   -0.4065    0.0000 C   0  0  0  0  0  0  0  0  0  0  0  0
    6.0152    1.0466    0.0000 C   0  0  0  0  0  0  0  0  0  0  0  0
    7.0875    2.0954    0.0000 C   0  0  0  0  0  0  0  0  0  0  0  0
    6.7153    3.5485    0.0000 C   0  0  0  0  0  0  0  0  0  0  0  0
    7.7876    4.5974    0.0000 O   0  0  0  0  0  0  0  0  0  0  0  0
    5.2708    3.9527    0.0000 C   0  0  0  0  0  0  0  0  0  0  0  0
    4.1985    2.9039    0.0000 C   0  0  0  0  0  0  0  0  0  0  0  0
    4.5707    1.4508    0.0000 C   0  0  0  0  0  0  0  0  0  0  0  0
    3.1262    1.8550    0.0000 C   0  0  0  0  0  0  0  0  0  0  0  0
    3.4983    0.4019    0.0000 C   0  0  0  0  0  0  0  0  0  0  0  0
    2.0538    0.8061    0.0000 C   0  0  0  0  0  0  0  0  0  0  0  0
    0.9815   -0.2427    0.0000 C   0  0  0  0  0  0  0  0  0  0  0  0
    1.3537   -1.6958    0.0000 C   0  0  0  0  0  0  0  0  0  0  0  0
   -0.1251   -1.4448    0.0000 C   0  0  0  0  0  0  0  0  0  0  0  0
  2  1  1  6
  2  3  1  0
  3  4  1  0
  4  5  1  0
  5  6  2  0
  5  7  1  0
  7  8  1  0
  8  9  2  0
  8 10  1  0
 10 11  1  0
 11 12  1  0
 12 13  2  0
 12 14  1  0
  2 15  1  0
 15 16  1  6
 16 17  1  0
 18 17  1  6
 18 19  1  0
 19 20  1  1
 20 21  1  1
 20 22  1  0
 23 22  1  1
 23 24  1  0
 24 25  1  0
 25 26  1  1
 25 27  1  0
 27 28  1  0
 28 29  1  0
 29 30  1  6
 29 31  1  0
 31 32  1  6
 32 33  1  0
 33 34  1  0
 34 35  1  6
 34 15  1  0
 34 18  1  0
 31 19  1  0
 29 23  1  0
M  END
>  <MS_ID>  (2277) 
MS2358

>  <SMILES>  (2277) 
C[C@H](CCC(=O)CC(=O)OCC(=O)O)[C@H]1CC[C@H]2[C@@H]3[C@H](O)C[C@@H]4C[C@H](O)CC[C@]4(C)[C@H]3CC[C@]12C

>  <Structure_dimension>  (2277) 
2D

$$$$
MS2359
     RDKit          2D

 35 38  0  0  0  0  0  0  0  0999 V2000
   -2.4368   -4.1726    0.0000 C   0  0  0  0  0  0  0  0  0  0  0  0
   -1.6698   -2.8835    0.0000 C   0  0  0  0  0  0  0  0  0  0  0  0
   -2.4027   -1.5747    0.0000 C   0  0  0  0  0  0  0  0  0  0  0  0
   -3.9026   -1.5550    0.0000 C   0  0  0  0  0  0  0  0  0  0  0  0
   -4.6355   -0.2462    0.0000 C   0  0  0  0  0  0  0  0  0  0  0  0
   -3.8685    1.0428    0.0000 O   0  0  0  0  0  0  0  0  0  0  0  0
   -6.1353   -0.2265    0.0000 N   0  0  0  0  0  0  0  0  0  0  0  0
   -6.8682    1.0822    0.0000 S   0  0  0  0  0  0  0  0  0  0  0  0
   -5.5594    1.8151    0.0000 O   0  0  0  0  0  0  0  0  0  0  0  0
   -8.1770    0.3494    0.0000 O   0  0  0  0  0  0  0  0  0  0  0  0
   -7.6011    2.3910    0.0000 C   0  0  0  0  0  0  0  0  0  0  0  0
   -6.8341    3.6801    0.0000 F   0  0  0  0  0  0  0  0  0  0  0  0
   -9.1009    2.4107    0.0000 F   0  0  0  0  0  0  0  0  0  0  0  0
   -0.1700   -2.9032    0.0000 C   0  0  0  0  0  0  0  0  0  0  0  0
    0.6957   -4.1282    0.0000 C   0  0  0  0  0  0  0  0  0  0  0  0
    2.1282   -3.6835    0.0000 C   0  0  0  0  0  0  0  0  0  0  0  0
    2.1479   -2.1836    0.0000 C   0  0  0  0  0  0  0  0  0  0  0  0
    3.2757   -1.1946    0.0000 C   0  0  0  0  0  0  0  0  0  0  0  0
    4.6961   -1.6768    0.0000 C   0  0  0  0  0  0  0  0  0  0  0  0
    4.9887   -3.1480    0.0000 O   0  0  0  0  0  0  0  0  0  0  0  0
    5.8239   -0.6879    0.0000 C   0  0  0  0  0  0  0  0  0  0  0  0
    5.5314    0.7833    0.0000 C   0  0  0  0  0  0  0  0  0  0  0  0
    6.6592    1.7723    0.0000 C   0  0  0  0  0  0  0  0  0  0  0  0
    6.3666    3.2435    0.0000 C   0  0  0  0  0  0  0  0  0  0  0  0
    7.4944    4.2324    0.0000 O   0  0  0  0  0  0  0  0  0  0  0  0
    4.9462    3.7257    0.0000 C   0  0  0  0  0  0  0  0  0  0  0  0
    3.8184    2.7367    0.0000 C   0  0  0  0  0  0  0  0  0  0  0  0
    4.1110    1.2655    0.0000 C   0  0  0  0  0  0  0  0  0  0  0  0
    2.6906    1.7478    0.0000 C   0  0  0  0  0  0  0  0  0  0  0  0
    2.9832    0.2766    0.0000 C   0  0  0  0  0  0  0  0  0  0  0  0
    1.5628    0.7588    0.0000 C   0  0  0  0  0  0  0  0  0  0  0  0
    0.4350   -0.2302    0.0000 C   0  0  0  0  0  0  0  0  0  0  0  0
   -0.9854    0.2521    0.0000 O   0  0  0  0  0  0  0  0  0  0  0  0
    0.7276   -1.7014    0.0000 C   0  0  0  0  0  0  0  0  0  0  0  0
   -0.7354   -1.3702    0.0000 C   0  0  0  0  0  0  0  0  0  0  0  0
  2  1  1  6
  2  3  1  0
  3  4  1  0
  4  5  1  0
  5  6  2  0
  5  7  1  0
  7  8  1  0
  8  9  2  0
  8 10  2  0
  8 11  1  0
 11 12  1  0
 11 13  1  0
  2 14  1  0
 14 15  1  6
 15 16  1  0
 17 16  1  6
 17 18  1  0
 18 19  1  1
 19 20  1  1
 19 21  1  0
 22 21  1  1
 22 23  1  0
 23 24  1  0
 24 25  1  1
 24 26  1  0
 26 27  1  0
 27 28  1  0
 28 29  1  6
 28 30  1  0
 30 31  1  6
 31 32  1  0
 32 33  1  1
 32 34  1  0
 34 35  1  6
 34 14  1  0
 34 17  1  0
 30 18  1  0
 28 22  1  0
M  END
>  <MS_ID>  (2278) 
MS2359

>  <SMILES>  (2278) 
C[C@H](CCC(=O)NS(=O)(=O)C(F)F)[C@H]1CC[C@H]2[C@@H]3[C@H](O)C[C@@H]4C[C@H](O)CC[C@]4(C)[C@H]3C[C@H](O)[C@]12C

>  <Structure_dimension>  (2278) 
2D

$$$$
MS2360
     RDKit          2D

 32 35  0  0  0  0  0  0  0  0999 V2000
   -3.0592   -3.7169    0.0000 C   0  0  0  0  0  0  0  0  0  0  0  0
   -2.1499   -2.5239    0.0000 C   0  0  0  0  0  0  0  0  0  0  0  0
   -2.7284   -1.1399    0.0000 C   0  0  0  0  0  0  0  0  0  0  0  0
   -4.2162   -0.9489    0.0000 C   0  0  0  0  0  0  0  0  0  0  0  0
   -4.7946    0.4350    0.0000 C   0  0  0  0  0  0  0  0  0  0  0  0
   -3.8853    1.6280    0.0000 O   0  0  0  0  0  0  0  0  0  0  0  0
   -6.2824    0.6260    0.0000 N   0  0  0  0  0  0  0  0  0  0  0  0
   -6.8609    2.0100    0.0000 C   0  0  0  0  0  0  0  0  0  0  0  0
   -8.3487    2.2010    0.0000 C   0  0  0  0  0  0  0  0  0  0  0  0
   -9.2580    1.0080    0.0000 O   0  0  0  0  0  0  0  0  0  0  0  0
   -8.9272    3.5850    0.0000 O   0  0  0  0  0  0  0  0  0  0  0  0
   -0.6621   -2.7149    0.0000 C   0  0  0  0  0  0  0  0  0  0  0  0
    0.0579   -4.0308    0.0000 C   0  0  0  0  0  0  0  0  0  0  0  0
    1.5319   -3.7527    0.0000 C   0  0  0  0  0  0  0  0  0  0  0  0
    1.7229   -2.2649    0.0000 C   0  0  0  0  0  0  0  0  0  0  0  0
    2.9563   -1.4114    0.0000 C   0  0  0  0  0  0  0  0  0  0  0  0
    4.3123   -2.0528    0.0000 C   0  0  0  0  0  0  0  0  0  0  0  0
    5.5457   -1.1992    0.0000 C   0  0  0  0  0  0  0  0  0  0  0  0
    5.4232    0.2958    0.0000 C   0  0  0  0  0  0  0  0  0  0  0  0
    6.6567    1.1494    0.0000 C   0  0  0  0  0  0  0  0  0  0  0  0
    6.5342    2.6444    0.0000 C   0  0  0  0  0  0  0  0  0  0  0  0
    7.7676    3.4980    0.0000 O   0  0  0  0  0  0  0  0  0  0  0  0
    5.1782    3.2858    0.0000 C   0  0  0  0  0  0  0  0  0  0  0  0
    3.9448    2.4322    0.0000 C   0  0  0  0  0  0  0  0  0  0  0  0
    4.0673    0.9372    0.0000 C   0  0  0  0  0  0  0  0  0  0  0  0
    2.7113    1.5786    0.0000 C   0  0  0  0  0  0  0  0  0  0  0  0
    2.8338    0.0836    0.0000 C   0  0  0  0  0  0  0  0  0  0  0  0
    1.4779    0.7250    0.0000 C   0  0  0  0  0  0  0  0  0  0  0  0
    0.2444   -0.1285    0.0000 C   0  0  0  0  0  0  0  0  0  0  0  0
   -1.1115    0.5129    0.0000 O   0  0  0  0  0  0  0  0  0  0  0  0
    0.3669   -1.6235    0.0000 C   0  0  0  0  0  0  0  0  0  0  0  0
   -1.0486   -1.1274    0.0000 C   0  0  0  0  0  0  0  0  0  0  0  0
  2  1  1  6
  2  3  1  0
  3  4  1  0
  4  5  1  0
  5  6  2  0
  5  7  1  0
  7  8  1  0
  8  9  1  0
  9 10  2  0
  9 11  1  0
  2 12  1  0
 12 13  1  6
 13 14  1  0
 15 14  1  6
 15 16  1  0
 16 17  1  1
 17 18  1  0
 19 18  1  1
 19 20  1  0
 20 21  1  0
 21 22  1  1
 21 23  1  0
 23 24  1  0
 24 25  1  0
 25 26  1  6
 25 27  1  0
 27 28  1  1
 28 29  1  0
 29 30  1  1
 29 31  1  0
 31 32  1  6
 31 12  1  0
 31 15  1  0
 27 16  1  0
 25 19  1  0
M  END
>  <MS_ID>  (2279) 
MS2360

>  <SMILES>  (2279) 
C[C@H](CCC(=O)NCC(=O)O)[C@H]1CC[C@H]2[C@@H]3CC[C@@H]4C[C@H](O)CC[C@]4(C)[C@@H]3C[C@H](O)[C@]12C

>  <Structure_dimension>  (2279) 
2D

$$$$
MS2361
     RDKit          2D

 28 31  0  0  0  0  0  0  0  0999 V2000
   -5.0096   -2.1352    0.0000 C   0  0  0  0  0  0  0  0  0  0  0  0
   -3.8132   -1.2303    0.0000 C   0  0  0  0  0  0  0  0  0  0  0  0
   -3.9987    0.2582    0.0000 C   0  0  0  0  0  0  0  0  0  0  0  0
   -5.3805    0.8418    0.0000 C   0  0  0  0  0  0  0  0  0  0  0  0
   -5.5659    2.3303    0.0000 C   0  0  0  0  0  0  0  0  0  0  0  0
   -4.3695    3.2351    0.0000 O   0  0  0  0  0  0  0  0  0  0  0  0
   -6.9477    2.9140    0.0000 O   0  0  0  0  0  0  0  0  0  0  0  0
   -2.4315   -1.8140    0.0000 C   0  0  0  0  0  0  0  0  0  0  0  0
   -2.0914   -3.2749    0.0000 C   0  0  0  0  0  0  0  0  0  0  0  0
   -0.5969   -3.4030    0.0000 C   0  0  0  0  0  0  0  0  0  0  0  0
   -0.0133   -2.0212    0.0000 C   0  0  0  0  0  0  0  0  0  0  0  0
    1.4041   -1.5304    0.0000 C   0  0  0  0  0  0  0  0  0  0  0  0
    2.5379   -2.5125    0.0000 C   0  0  0  0  0  0  0  0  0  0  0  0
    3.9554   -2.0216    0.0000 C   0  0  0  0  0  0  0  0  0  0  0  0
    4.2390   -0.5487    0.0000 C   0  0  0  0  0  0  0  0  0  0  0  0
    5.6564   -0.0578    0.0000 C   0  0  0  0  0  0  0  0  0  0  0  0
    5.9400    1.4151    0.0000 C   0  0  0  0  0  0  0  0  0  0  0  0
    7.3574    1.9060    0.0000 O   0  0  0  0  0  0  0  0  0  0  0  0
    4.8062    2.3972    0.0000 C   0  0  0  0  0  0  0  0  0  0  0  0
    3.3888    1.9064    0.0000 C   0  0  0  0  0  0  0  0  0  0  0  0
    3.1052    0.4334    0.0000 C   0  0  0  0  0  0  0  0  0  0  0  0
    1.9714    1.4155    0.0000 C   0  0  0  0  0  0  0  0  0  0  0  0
    1.6878   -0.0574    0.0000 C   0  0  0  0  0  0  0  0  0  0  0  0
    0.5540    0.9246    0.0000 C   0  0  0  0  0  0  0  0  0  0  0  0
   -0.8635    0.4338    0.0000 C   0  0  0  0  0  0  0  0  0  0  0  0
   -1.9973    1.4159    0.0000 F   0  0  0  0  0  0  0  0  0  0  0  0
   -1.1471   -1.0392    0.0000 C   0  0  0  0  0  0  0  0  0  0  0  0
   -2.3773   -0.1810    0.0000 C   0  0  0  0  0  0  0  0  0  0  0  0
  2  1  1  6
  2  3  1  0
  3  4  1  0
  4  5  1  0
  5  6  2  0
  5  7  1  0
  2  8  1  0
  8  9  1  6
  9 10  1  0
 11 10  1  6
 11 12  1  0
 12 13  1  1
 13 14  1  0
 15 14  1  1
 15 16  1  0
 16 17  1  0
 17 18  1  1
 17 19  1  0
 19 20  1  0
 20 21  1  0
 21 22  1  6
 21 23  1  0
 23 24  1  6
 24 25  1  0
 25 26  1  1
 25 27  1  0
 27 28  1  6
 27  8  1  0
 27 11  1  0
 23 12  1  0
 21 15  1  0
M  END
>  <MS_ID>  (2280) 
MS2361

>  <SMILES>  (2280) 
C[C@H](CCC(=O)O)[C@H]1CC[C@H]2[C@@H]3CC[C@@H]4C[C@H](O)CC[C@]4(C)[C@H]3C[C@H](F)[C@]12C

>  <Structure_dimension>  (2280) 
2D

$$$$
MS2362
     RDKit          2D

 35 39  0  0  0  0  0  0  0  0999 V2000
   -2.4249   -4.3282    0.0000 C   0  0  0  0  0  0  0  0  0  0  0  0
   -1.7208   -3.0038    0.0000 C   0  0  0  0  0  0  0  0  0  0  0  0
   -2.5157   -1.7317    0.0000 C   0  0  0  0  0  0  0  0  0  0  0  0
   -4.0147   -1.7841    0.0000 C   0  0  0  0  0  0  0  0  0  0  0  0
   -4.8097   -0.5121    0.0000 C   0  0  0  0  0  0  0  0  0  0  0  0
   -4.1055    0.8124    0.0000 O   0  0  0  0  0  0  0  0  0  0  0  0
   -6.3087   -0.5645    0.0000 O   0  0  0  0  0  0  0  0  0  0  0  0
   -7.1037    0.7076    0.0000 C   0  0  0  0  0  0  0  0  0  0  0  0
   -6.3995    2.0320    0.0000 C   0  0  0  0  0  0  0  0  0  0  0  0
   -7.1944    3.3041    0.0000 C   0  0  0  0  0  0  0  0  0  0  0  0
   -8.6935    3.2517    0.0000 N   0  0  0  0  0  0  0  0  0  0  0  0
   -9.3977    1.9272    0.0000 C   0  0  0  0  0  0  0  0  0  0  0  0
   -8.6027    0.6552    0.0000 C   0  0  0  0  0  0  0  0  0  0  0  0
   -0.2217   -2.9514    0.0000 C   0  0  0  0  0  0  0  0  0  0  0  0
    0.7019   -4.1334    0.0000 C   0  0  0  0  0  0  0  0  0  0  0  0
    2.1114   -3.6203    0.0000 C   0  0  0  0  0  0  0  0  0  0  0  0
    2.0590   -2.1213    0.0000 C   0  0  0  0  0  0  0  0  0  0  0  0
    3.1380   -1.0792    0.0000 C   0  0  0  0  0  0  0  0  0  0  0  0
    4.5799   -1.4927    0.0000 C   0  0  0  0  0  0  0  0  0  0  0  0
    4.9428   -2.9481    0.0000 O   0  0  0  0  0  0  0  0  0  0  0  0
    5.6589   -0.4506    0.0000 C   0  0  0  0  0  0  0  0  0  0  0  0
    7.1008   -0.8641    0.0000 O   0  0  0  0  0  0  0  0  0  0  0  0
    5.2959    1.0048    0.0000 C   0  0  0  0  0  0  0  0  0  0  0  0
    6.3749    2.0468    0.0000 C   0  0  0  0  0  0  0  0  0  0  0  0
    6.0120    3.5022    0.0000 C   0  0  0  0  0  0  0  0  0  0  0  0
    7.0910    4.5443    0.0000 O   0  0  0  0  0  0  0  0  0  0  0  0
    4.5701    3.9157    0.0000 C   0  0  0  0  0  0  0  0  0  0  0  0
    3.4911    2.8736    0.0000 C   0  0  0  0  0  0  0  0  0  0  0  0
    3.8540    1.4182    0.0000 C   0  0  0  0  0  0  0  0  0  0  0  0
    2.4121    1.8316    0.0000 C   0  0  0  0  0  0  0  0  0  0  0  0
    2.7751    0.3762    0.0000 C   0  0  0  0  0  0  0  0  0  0  0  0
    1.3332    0.7896    0.0000 C   0  0  0  0  0  0  0  0  0  0  0  0
    0.2542   -0.2524    0.0000 C   0  0  0  0  0  0  0  0  0  0  0  0
    0.6171   -1.7078    0.0000 C   0  0  0  0  0  0  0  0  0  0  0  0
   -0.8601   -1.4474    0.0000 C   0  0  0  0  0  0  0  0  0  0  0  0
  2  1  1  6
  2  3  1  0
  3  4  1  0
  4  5  1  0
  5  6  2  0
  5  7  1  0
  7  8  1  0
  8  9  2  0
  9 10  1  0
 10 11  2  0
 11 12  1  0
 12 13  2  0
  2 14  1  0
 14 15  1  6
 15 16  1  0
 17 16  1  6
 17 18  1  0
 18 19  1  1
 19 20  1  1
 19 21  1  0
 21 22  1  1
 21 23  1  0
 23 24  1  1
 24 25  1  0
 25 26  1  1
 25 27  1  0
 27 28  1  0
 28 29  1  0
 29 30  1  6
 29 31  1  0
 31 32  1  6
 32 33  1  0
 33 34  1  0
 34 35  1  6
 13  8  1  0
 34 14  1  0
 34 17  1  0
 31 18  1  0
 29 23  1  0
M  END
>  <MS_ID>  (2281) 
MS2362

>  <SMILES>  (2281) 
C[C@H](CCC(=O)Oc1ccncc1)[C@H]1CC[C@H]2[C@@H]3[C@H](O)[C@H](O)[C@@H]4C[C@H](O)CC[C@]4(C)[C@H]3CC[C@]12C

>  <Structure_dimension>  (2281) 
2D

$$$$
MS2363
     RDKit          2D

 32 35  0  0  0  0  0  0  0  0999 V2000
   -4.7932   -3.1000    0.0000 C   0  0  0  0  0  0  0  0  0  0  0  0
   -4.0181   -1.8159    0.0000 C   0  0  0  0  0  0  0  0  0  0  0  0
   -4.7427   -0.5025    0.0000 C   0  0  0  0  0  0  0  0  0  0  0  0
   -6.2424   -0.4733    0.0000 C   0  0  0  0  0  0  0  0  0  0  0  0
   -6.9669    0.8401    0.0000 C   0  0  0  0  0  0  0  0  0  0  0  0
   -6.1918    2.1243    0.0000 O   0  0  0  0  0  0  0  0  0  0  0  0
   -8.4667    0.8693    0.0000 O   0  0  0  0  0  0  0  0  0  0  0  0
   -2.5184   -1.8451    0.0000 C   0  0  0  0  0  0  0  0  0  0  0  0
   -1.6605   -3.0755    0.0000 C   0  0  0  0  0  0  0  0  0  0  0  0
   -0.2252   -2.6399    0.0000 C   0  0  0  0  0  0  0  0  0  0  0  0
   -0.1960   -1.1401    0.0000 C   0  0  0  0  0  0  0  0  0  0  0  0
    0.9381   -0.1583    0.0000 C   0  0  0  0  0  0  0  0  0  0  0  0
    2.3554   -0.6496    0.0000 C   0  0  0  0  0  0  0  0  0  0  0  0
    2.6386   -2.1226    0.0000 C   0  0  0  0  0  0  0  0  0  0  0  0
    4.0559   -2.6138    0.0000 O   0  0  0  0  0  0  0  0  0  0  0  0
    4.3392   -4.0868    0.0000 C   0  0  0  0  0  0  0  0  0  0  0  0
    5.7564   -4.5780    0.0000 C   0  0  0  0  0  0  0  0  0  0  0  0
    6.0397   -6.0510    0.0000 O   0  0  0  0  0  0  0  0  0  0  0  0
    3.4894    0.3322    0.0000 C   0  0  0  0  0  0  0  0  0  0  0  0
    3.2062    1.8053    0.0000 C   0  0  0  0  0  0  0  0  0  0  0  0
    4.3402    2.7871    0.0000 C   0  0  0  0  0  0  0  0  0  0  0  0
    4.0570    4.2601    0.0000 C   0  0  0  0  0  0  0  0  0  0  0  0
    5.1910    5.2419    0.0000 O   0  0  0  0  0  0  0  0  0  0  0  0
    2.6397    4.7513    0.0000 C   0  0  0  0  0  0  0  0  0  0  0  0
    1.5057    3.7695    0.0000 C   0  0  0  0  0  0  0  0  0  0  0  0
    1.7889    2.2965    0.0000 C   0  0  0  0  0  0  0  0  0  0  0  0
    0.3716    2.7877    0.0000 C   0  0  0  0  0  0  0  0  0  0  0  0
    0.6549    1.3147    0.0000 C   0  0  0  0  0  0  0  0  0  0  0  0
   -0.7624    1.8059    0.0000 C   0  0  0  0  0  0  0  0  0  0  0  0
   -1.8965    0.8241    0.0000 C   0  0  0  0  0  0  0  0  0  0  0  0
   -1.6132   -0.6489    0.0000 C   0  0  0  0  0  0  0  0  0  0  0  0
   -3.0741   -0.3086    0.0000 C   0  0  0  0  0  0  0  0  0  0  0  0
  2  1  1  6
  2  3  1  0
  3  4  1  0
  4  5  1  0
  5  6  2  0
  5  7  1  0
  2  8  1  0
  8  9  1  6
  9 10  1  0
 11 10  1  6
 11 12  1  0
 12 13  1  1
 13 14  1  6
 14 15  1  0
 15 16  1  0
 16 17  1  0
 17 18  1  0
 13 19  1  0
 20 19  1  1
 20 21  1  0
 21 22  1  0
 22 23  1  1
 22 24  1  0
 24 25  1  0
 25 26  1  0
 26 27  1  6
 26 28  1  0
 28 29  1  6
 29 30  1  0
 30 31  1  0
 31 32  1  6
 31  8  1  0
 31 11  1  0
 28 12  1  0
 26 20  1  0
M  END
>  <MS_ID>  (2282) 
MS2363

>  <SMILES>  (2282) 
C[C@H](CCC(=O)O)[C@H]1CC[C@H]2[C@@H]3[C@@H](COCCO)C[C@@H]4C[C@H](O)CC[C@]4(C)[C@H]3CC[C@]12C

>  <Structure_dimension>  (2282) 
2D

$$$$
MS2364
     RDKit          2D

 36 40  0  0  0  0  0  0  0  0999 V2000
   -2.2012   -4.2920    0.0000 C   0  0  0  0  0  0  0  0  0  0  0  0
   -1.4864   -2.9733    0.0000 C   0  0  0  0  0  0  0  0  0  0  0  0
   -2.2709   -1.6948    0.0000 C   0  0  0  0  0  0  0  0  0  0  0  0
   -3.7704   -1.7351    0.0000 C   0  0  0  0  0  0  0  0  0  0  0  0
   -4.5550   -0.4566    0.0000 C   0  0  0  0  0  0  0  0  0  0  0  0
   -3.8401    0.8621    0.0000 O   0  0  0  0  0  0  0  0  0  0  0  0
   -6.0544   -0.4969    0.0000 N   0  0  0  0  0  0  0  0  0  0  0  0
   -6.8390    0.7816    0.0000 C   0  0  0  0  0  0  0  0  0  0  0  0
   -6.1242    2.1003    0.0000 C   0  0  0  0  0  0  0  0  0  0  0  0
   -6.9087    3.3787    0.0000 C   0  0  0  0  0  0  0  0  0  0  0  0
   -8.4082    3.3385    0.0000 C   0  0  0  0  0  0  0  0  0  0  0  0
   -9.1231    2.0198    0.0000 C   0  0  0  0  0  0  0  0  0  0  0  0
   -8.3385    0.7413    0.0000 C   0  0  0  0  0  0  0  0  0  0  0  0
   -9.0534   -0.5774    0.0000 F   0  0  0  0  0  0  0  0  0  0  0  0
    0.0131   -2.9330    0.0000 C   0  0  0  0  0  0  0  0  0  0  0  0
    0.9270   -4.1225    0.0000 C   0  0  0  0  0  0  0  0  0  0  0  0
    2.3407   -3.6208    0.0000 C   0  0  0  0  0  0  0  0  0  0  0  0
    2.3004   -2.1214    0.0000 C   0  0  0  0  0  0  0  0  0  0  0  0
    3.3878   -1.0881    0.0000 C   0  0  0  0  0  0  0  0  0  0  0  0
    4.8263   -1.5132    0.0000 C   0  0  0  0  0  0  0  0  0  0  0  0
    5.1774   -2.9715    0.0000 O   0  0  0  0  0  0  0  0  0  0  0  0
    5.9137   -0.4800    0.0000 C   0  0  0  0  0  0  0  0  0  0  0  0
    7.3522   -0.9050    0.0000 O   0  0  0  0  0  0  0  0  0  0  0  0
    5.5626    0.9784    0.0000 C   0  0  0  0  0  0  0  0  0  0  0  0
    6.6500    2.0116    0.0000 C   0  0  0  0  0  0  0  0  0  0  0  0
    6.2988    3.4699    0.0000 C   0  0  0  0  0  0  0  0  0  0  0  0
    7.3862    4.5032    0.0000 O   0  0  0  0  0  0  0  0  0  0  0  0
    4.8603    3.8950    0.0000 C   0  0  0  0  0  0  0  0  0  0  0  0
    3.7729    2.8618    0.0000 C   0  0  0  0  0  0  0  0  0  0  0  0
    4.1241    1.4034    0.0000 C   0  0  0  0  0  0  0  0  0  0  0  0
    2.6856    1.8285    0.0000 C   0  0  0  0  0  0  0  0  0  0  0  0
    3.0367    0.3702    0.0000 C   0  0  0  0  0  0  0  0  0  0  0  0
    1.5982    0.7953    0.0000 C   0  0  0  0  0  0  0  0  0  0  0  0
    0.5108   -0.2380    0.0000 C   0  0  0  0  0  0  0  0  0  0  0  0
    0.8619   -1.6963    0.0000 C   0  0  0  0  0  0  0  0  0  0  0  0
   -0.6132   -1.4239    0.0000 C   0  0  0  0  0  0  0  0  0  0  0  0
  2  1  1  6
  2  3  1  0
  3  4  1  0
  4  5  1  0
  5  6  2  0
  5  7  1  0
  7  8  1  0
  8  9  2  0
  9 10  1  0
 10 11  2  0
 11 12  1  0
 12 13  2  0
 13 14  1  0
  2 15  1  0
 15 16  1  6
 16 17  1  0
 18 17  1  6
 18 19  1  0
 19 20  1  1
 20 21  1  1
 20 22  1  0
 22 23  1  1
 22 24  1  0
 24 25  1  1
 25 26  1  0
 26 27  1  1
 26 28  1  0
 28 29  1  0
 29 30  1  0
 30 31  1  6
 30 32  1  0
 32 33  1  6
 33 34  1  0
 34 35  1  0
 35 36  1  6
 13  8  1  0
 35 15  1  0
 35 18  1  0
 32 19  1  0
 30 24  1  0
M  END
>  <MS_ID>  (2283) 
MS2364

>  <SMILES>  (2283) 
C[C@H](CCC(=O)Nc1ccccc1F)[C@H]1CC[C@H]2[C@@H]3[C@H](O)[C@H](O)[C@@H]4C[C@H](O)CC[C@]4(C)[C@H]3CC[C@]12C

>  <Structure_dimension>  (2283) 
2D

$$$$
MS2365
     RDKit          2D

 35 39  0  0  0  0  0  0  0  0999 V2000
   -1.8808   -4.0339    0.0000 C   0  0  0  0  0  0  0  0  0  0  0  0
   -1.1003   -2.7530    0.0000 C   0  0  0  0  0  0  0  0  0  0  0  0
   -1.8193   -1.4366    0.0000 C   0  0  0  0  0  0  0  0  0  0  0  0
   -3.3189   -1.4011    0.0000 C   0  0  0  0  0  0  0  0  0  0  0  0
   -4.0380   -0.0847    0.0000 C   0  0  0  0  0  0  0  0  0  0  0  0
   -3.2575    1.1962    0.0000 O   0  0  0  0  0  0  0  0  0  0  0  0
   -5.5376   -0.0492    0.0000 O   0  0  0  0  0  0  0  0  0  0  0  0
   -6.2567    1.2672    0.0000 C   0  0  0  0  0  0  0  0  0  0  0  0
   -7.7562    1.3026    0.0000 C   0  0  0  0  0  0  0  0  0  0  0  0
   -8.4753    2.6190    0.0000 C   0  0  0  0  0  0  0  0  0  0  0  0
   -9.9749    2.6545    0.0000 C   0  0  0  0  0  0  0  0  0  0  0  0
  -10.7554    1.3735    0.0000 C   0  0  0  0  0  0  0  0  0  0  0  0
  -10.0363    0.0571    0.0000 C   0  0  0  0  0  0  0  0  0  0  0  0
   -8.5367    0.0217    0.0000 N   0  0  0  0  0  0  0  0  0  0  0  0
    0.3993   -2.7884    0.0000 C   0  0  0  0  0  0  0  0  0  0  0  0
    1.2521   -4.0225    0.0000 C   0  0  0  0  0  0  0  0  0  0  0  0
    2.6892   -3.5928    0.0000 C   0  0  0  0  0  0  0  0  0  0  0  0
    2.7247   -2.0932    0.0000 C   0  0  0  0  0  0  0  0  0  0  0  0
    3.8628   -1.1162    0.0000 C   0  0  0  0  0  0  0  0  0  0  0  0
    5.2780   -1.6133    0.0000 C   0  0  0  0  0  0  0  0  0  0  0  0
    5.5551   -3.0875    0.0000 O   0  0  0  0  0  0  0  0  0  0  0  0
    6.4162   -0.6362    0.0000 C   0  0  0  0  0  0  0  0  0  0  0  0
    6.1391    0.8380    0.0000 C   0  0  0  0  0  0  0  0  0  0  0  0
    7.2772    1.8150    0.0000 C   0  0  0  0  0  0  0  0  0  0  0  0
    7.0001    3.2892    0.0000 C   0  0  0  0  0  0  0  0  0  0  0  0
    8.1382    4.2663    0.0000 O   0  0  0  0  0  0  0  0  0  0  0  0
    5.5849    3.7863    0.0000 C   0  0  0  0  0  0  0  0  0  0  0  0
    4.4467    2.8093    0.0000 C   0  0  0  0  0  0  0  0  0  0  0  0
    4.7238    1.3351    0.0000 C   0  0  0  0  0  0  0  0  0  0  0  0
    3.3086    1.8322    0.0000 C   0  0  0  0  0  0  0  0  0  0  0  0
    3.5857    0.3580    0.0000 C   0  0  0  0  0  0  0  0  0  0  0  0
    2.1705    0.8551    0.0000 C   0  0  0  0  0  0  0  0  0  0  0  0
    1.0323   -0.1219    0.0000 C   0  0  0  0  0  0  0  0  0  0  0  0
    1.3094   -1.5961    0.0000 C   0  0  0  0  0  0  0  0  0  0  0  0
   -0.1500   -1.2496    0.0000 C   0  0  0  0  0  0  0  0  0  0  0  0
  2  1  1  6
  2  3  1  0
  3  4  1  0
  4  5  1  0
  5  6  2  0
  5  7  1  0
  7  8  1  0
  8  9  1  0
  9 10  2  0
 10 11  1  0
 11 12  2  0
 12 13  1  0
 13 14  2  0
  2 15  1  0
 15 16  1  6
 16 17  1  0
 18 17  1  6
 18 19  1  0
 19 20  1  1
 20 21  1  1
 20 22  1  0
 23 22  1  1
 23 24  1  0
 24 25  1  0
 25 26  1  1
 25 27  1  0
 27 28  1  0
 28 29  1  0
 29 30  1  6
 29 31  1  0
 31 32  1  6
 32 33  1  0
 33 34  1  0
 34 35  1  6
 14  9  1  0
 34 15  1  0
 34 18  1  0
 31 19  1  0
 29 23  1  0
M  END
>  <MS_ID>  (2284) 
MS2365

>  <SMILES>  (2284) 
C[C@H](CCC(=O)OCc1ccccn1)[C@H]1CC[C@H]2[C@@H]3[C@H](O)C[C@@H]4C[C@H](O)CC[C@]4(C)[C@H]3CC[C@]12C

>  <Structure_dimension>  (2284) 
2D

$$$$
MS2366
     RDKit          2D

 29 32  0  0  0  0  0  0  0  0999 V2000
   -4.9165   -2.3086    0.0000 C   0  0  0  0  0  0  0  0  0  0  0  0
   -3.7338   -1.3860    0.0000 C   0  0  0  0  0  0  0  0  0  0  0  0
   -3.9415    0.0996    0.0000 C   0  0  0  0  0  0  0  0  0  0  0  0
   -5.3319    0.6625    0.0000 C   0  0  0  0  0  0  0  0  0  0  0  0
   -5.5396    2.1481    0.0000 C   0  0  0  0  0  0  0  0  0  0  0  0
   -4.3569    3.0707    0.0000 O   0  0  0  0  0  0  0  0  0  0  0  0
   -6.9299    2.7110    0.0000 O   0  0  0  0  0  0  0  0  0  0  0  0
   -2.3435   -1.9489    0.0000 C   0  0  0  0  0  0  0  0  0  0  0  0
   -1.9816   -3.4046    0.0000 C   0  0  0  0  0  0  0  0  0  0  0  0
   -0.4854   -3.5103    0.0000 C   0  0  0  0  0  0  0  0  0  0  0  0
    0.0775   -2.1199    0.0000 C   0  0  0  0  0  0  0  0  0  0  0  0
    1.4875   -1.6079    0.0000 C   0  0  0  0  0  0  0  0  0  0  0  0
    2.6358   -2.5730    0.0000 C   0  0  0  0  0  0  0  0  0  0  0  0
    4.0457   -2.0609    0.0000 C   0  0  0  0  0  0  0  0  0  0  0  0
    4.3073   -0.5839    0.0000 C   0  0  0  0  0  0  0  0  0  0  0  0
    5.7172   -0.0719    0.0000 C   0  0  0  0  0  0  0  0  0  0  0  0
    5.9787    1.4051    0.0000 C   0  0  0  0  0  0  0  0  0  0  0  0
    7.3886    1.9171    0.0000 O   0  0  0  0  0  0  0  0  0  0  0  0
    4.8304    2.3701    0.0000 C   0  0  0  0  0  0  0  0  0  0  0  0
    3.4205    1.8581    0.0000 C   0  0  0  0  0  0  0  0  0  0  0  0
    3.1589    0.3811    0.0000 C   0  0  0  0  0  0  0  0  0  0  0  0
    2.0105    1.3461    0.0000 C   0  0  0  0  0  0  0  0  0  0  0  0
    1.7490   -0.1309    0.0000 C   0  0  0  0  0  0  0  0  0  0  0  0
    0.6006    0.8341    0.0000 C   0  0  0  0  0  0  0  0  0  0  0  0
   -0.8093    0.3221    0.0000 C   0  0  0  0  0  0  0  0  0  0  0  0
   -1.9576    1.2871    0.0000 C   0  0  0  0  0  0  0  0  0  0  0  0
   -1.6961    2.7641    0.0000 O   0  0  0  0  0  0  0  0  0  0  0  0
   -1.0708   -1.1549    0.0000 C   0  0  0  0  0  0  0  0  0  0  0  0
   -2.3138   -0.3152    0.0000 C   0  0  0  0  0  0  0  0  0  0  0  0
  2  1  1  6
  2  3  1  0
  3  4  1  0
  4  5  1  0
  5  6  2  0
  5  7  1  0
  2  8  1  0
  8  9  1  6
  9 10  1  0
 11 10  1  6
 11 12  1  0
 12 13  1  1
 13 14  1  0
 15 14  1  1
 15 16  1  0
 16 17  1  0
 17 18  1  1
 17 19  1  0
 19 20  1  0
 20 21  1  0
 21 22  1  6
 21 23  1  0
 23 24  1  6
 24 25  1  0
 25 26  1  1
 26 27  1  0
 25 28  1  0
 28 29  1  6
 28  8  1  0
 28 11  1  0
 23 12  1  0
 21 15  1  0
M  END
>  <MS_ID>  (2285) 
MS2366

>  <SMILES>  (2285) 
C[C@H](CCC(=O)O)[C@H]1CC[C@H]2[C@@H]3CC[C@@H]4C[C@H](O)CC[C@]4(C)[C@H]3C[C@H](CO)[C@]12C

>  <Structure_dimension>  (2285) 
2D

$$$$
MS2369
     RDKit          2D

 33 36  0  0  0  0  0  0  0  0999 V2000
   -3.4311   -3.4682    0.0000 C   0  0  0  0  0  0  0  0  0  0  0  0
   -2.4933   -2.2975    0.0000 C   0  0  0  0  0  0  0  0  0  0  0  0
   -3.0382   -0.9000    0.0000 C   0  0  0  0  0  0  0  0  0  0  0  0
   -4.5209   -0.6731    0.0000 C   0  0  0  0  0  0  0  0  0  0  0  0
   -5.0658    0.7244    0.0000 C   0  0  0  0  0  0  0  0  0  0  0  0
   -4.1279    1.8951    0.0000 O   0  0  0  0  0  0  0  0  0  0  0  0
   -6.5485    0.9513    0.0000 C   0  0  0  0  0  0  0  0  0  0  0  0
   -7.4864   -0.2194    0.0000 O   0  0  0  0  0  0  0  0  0  0  0  0
   -7.0934    2.3488    0.0000 C   0  0  0  0  0  0  0  0  0  0  0  0
   -6.1556    3.5195    0.0000 O   0  0  0  0  0  0  0  0  0  0  0  0
   -8.5762    2.5757    0.0000 O   0  0  0  0  0  0  0  0  0  0  0  0
   -1.0105   -2.5244    0.0000 C   0  0  0  0  0  0  0  0  0  0  0  0
   -0.3226   -3.8574    0.0000 C   0  0  0  0  0  0  0  0  0  0  0  0
    1.1577   -3.6149    0.0000 C   0  0  0  0  0  0  0  0  0  0  0  0
    1.3846   -2.1322    0.0000 C   0  0  0  0  0  0  0  0  0  0  0  0
    2.6383   -1.3087    0.0000 C   0  0  0  0  0  0  0  0  0  0  0  0
    3.9784   -1.9826    0.0000 C   0  0  0  0  0  0  0  0  0  0  0  0
    4.0647   -3.4801    0.0000 O   0  0  0  0  0  0  0  0  0  0  0  0
    5.2321   -1.1591    0.0000 C   0  0  0  0  0  0  0  0  0  0  0  0
    5.1457    0.3384    0.0000 C   0  0  0  0  0  0  0  0  0  0  0  0
    6.3994    1.1620    0.0000 C   0  0  0  0  0  0  0  0  0  0  0  0
    6.3131    2.6595    0.0000 C   0  0  0  0  0  0  0  0  0  0  0  0
    7.5668    3.4830    0.0000 O   0  0  0  0  0  0  0  0  0  0  0  0
    4.9730    3.3334    0.0000 C   0  0  0  0  0  0  0  0  0  0  0  0
    3.7193    2.5099    0.0000 C   0  0  0  0  0  0  0  0  0  0  0  0
    3.8057    1.0124    0.0000 C   0  0  0  0  0  0  0  0  0  0  0  0
    2.4656    1.6864    0.0000 C   0  0  0  0  0  0  0  0  0  0  0  0
    2.5520    0.1889    0.0000 C   0  0  0  0  0  0  0  0  0  0  0  0
    1.2119    0.8628    0.0000 C   0  0  0  0  0  0  0  0  0  0  0  0
   -0.0418    0.0393    0.0000 C   0  0  0  0  0  0  0  0  0  0  0  0
   -1.3819    0.7133    0.0000 O   0  0  0  0  0  0  0  0  0  0  0  0
    0.0445   -1.4582    0.0000 C   0  0  0  0  0  0  0  0  0  0  0  0
   -1.3586   -0.9280    0.0000 C   0  0  0  0  0  0  0  0  0  0  0  0
  2  1  1  6
  2  3  1  0
  3  4  1  0
  4  5  1  0
  5  6  2  0
  5  7  1  0
  7  8  1  1
  7  9  1  0
  9 10  2  0
  9 11  1  0
  2 12  1  0
 12 13  1  6
 13 14  1  0
 15 14  1  6
 15 16  1  0
 16 17  1  1
 17 18  1  1
 17 19  1  0
 20 19  1  1
 20 21  1  0
 21 22  1  0
 22 23  1  1
 22 24  1  0
 24 25  1  0
 25 26  1  0
 26 27  1  6
 26 28  1  0
 28 29  1  6
 29 30  1  0
 30 31  1  1
 30 32  1  0
 32 33  1  6
 32 12  1  0
 32 15  1  0
 28 16  1  0
 26 20  1  0
M  END
>  <MS_ID>  (2286) 
MS2369

>  <SMILES>  (2286) 
C[C@H](CCC(=O)[C@@H](O)C(=O)O)[C@H]1CC[C@H]2[C@@H]3[C@H](O)C[C@@H]4C[C@H](O)CC[C@]4(C)[C@H]3C[C@H](O)[C@]12C

>  <Structure_dimension>  (2286) 
2D

$$$$
MS2370
     RDKit          2D

 33 36  0  0  0  0  0  0  0  0999 V2000
   -4.8713   -2.9530    0.0000 C   0  0  0  0  0  0  0  0  0  0  0  0
   -4.0822   -1.6774    0.0000 C   0  0  0  0  0  0  0  0  0  0  0  0
   -4.7924   -0.3561    0.0000 C   0  0  0  0  0  0  0  0  0  0  0  0
   -6.2917   -0.3106    0.0000 C   0  0  0  0  0  0  0  0  0  0  0  0
   -7.0019    1.0107    0.0000 C   0  0  0  0  0  0  0  0  0  0  0  0
   -6.2128    2.2863    0.0000 O   0  0  0  0  0  0  0  0  0  0  0  0
   -8.5012    1.0562    0.0000 O   0  0  0  0  0  0  0  0  0  0  0  0
   -2.5829   -1.7229    0.0000 C   0  0  0  0  0  0  0  0  0  0  0  0
   -1.7385   -2.9627    0.0000 C   0  0  0  0  0  0  0  0  0  0  0  0
   -0.2985   -2.5427    0.0000 C   0  0  0  0  0  0  0  0  0  0  0  0
   -0.2529   -1.0434    0.0000 C   0  0  0  0  0  0  0  0  0  0  0  0
    0.8918   -0.0740    0.0000 C   0  0  0  0  0  0  0  0  0  0  0  0
    2.3036   -0.5807    0.0000 C   0  0  0  0  0  0  0  0  0  0  0  0
    2.5708   -2.0567    0.0000 C   0  0  0  0  0  0  0  0  0  0  0  0
    3.9826   -2.5633    0.0000 O   0  0  0  0  0  0  0  0  0  0  0  0
    4.2498   -4.0393    0.0000 S   0  0  0  0  0  0  0  0  0  0  0  0
    2.7737   -4.3065    0.0000 O   0  0  0  0  0  0  0  0  0  0  0  0
    5.7258   -3.7722    0.0000 O   0  0  0  0  0  0  0  0  0  0  0  0
    4.5169   -5.5154    0.0000 O   0  0  0  0  0  0  0  0  0  0  0  0
    3.4483    0.3887    0.0000 C   0  0  0  0  0  0  0  0  0  0  0  0
    3.1811    1.8647    0.0000 C   0  0  0  0  0  0  0  0  0  0  0  0
    4.3258    2.8341    0.0000 C   0  0  0  0  0  0  0  0  0  0  0  0
    4.0587    4.3101    0.0000 C   0  0  0  0  0  0  0  0  0  0  0  0
    5.2034    5.2795    0.0000 O   0  0  0  0  0  0  0  0  0  0  0  0
    2.6468    4.8168    0.0000 C   0  0  0  0  0  0  0  0  0  0  0  0
    1.5021    3.8474    0.0000 C   0  0  0  0  0  0  0  0  0  0  0  0
    1.7693    2.3714    0.0000 C   0  0  0  0  0  0  0  0  0  0  0  0
    0.3574    2.8780    0.0000 C   0  0  0  0  0  0  0  0  0  0  0  0
    0.6246    1.4020    0.0000 C   0  0  0  0  0  0  0  0  0  0  0  0
   -0.7873    1.9087    0.0000 C   0  0  0  0  0  0  0  0  0  0  0  0
   -1.9319    0.9393    0.0000 C   0  0  0  0  0  0  0  0  0  0  0  0
   -1.6648   -0.5367    0.0000 C   0  0  0  0  0  0  0  0  0  0  0  0
   -3.1219   -0.1804    0.0000 C   0  0  0  0  0  0  0  0  0  0  0  0
  2  1  1  6
  2  3  1  0
  3  4  1  0
  4  5  1  0
  5  6  2  0
  5  7  1  0
  2  8  1  0
  8  9  1  6
  9 10  1  0
 11 10  1  6
 11 12  1  0
 12 13  1  1
 13 14  1  6
 14 15  1  0
 15 16  1  0
 16 17  2  0
 16 18  2  0
 16 19  1  0
 13 20  1  0
 21 20  1  1
 21 22  1  0
 22 23  1  0
 23 24  1  1
 23 25  1  0
 25 26  1  0
 26 27  1  0
 27 28  1  6
 27 29  1  0
 29 30  1  6
 30 31  1  0
 31 32  1  0
 32 33  1  6
 32  8  1  0
 32 11  1  0
 29 12  1  0
 27 21  1  0
M  END
>  <MS_ID>  (2287) 
MS2370

>  <SMILES>  (2287) 
C[C@H](CCC(=O)O)[C@H]1CC[C@H]2[C@@H]3[C@@H](COS(=O)(=O)O)C[C@@H]4C[C@H](O)CC[C@]4(C)[C@H]3CC[C@]12C

>  <Structure_dimension>  (2287) 
2D

$$$$
MS2371
     RDKit          2D

 29 32  0  0  0  0  0  0  0  0999 V2000
   -5.0303   -2.1373    0.0000 C   0  0  0  0  0  0  0  0  0  0  0  0
   -3.8594   -1.1998    0.0000 C   0  0  0  0  0  0  0  0  0  0  0  0
   -4.0858    0.2830    0.0000 C   0  0  0  0  0  0  0  0  0  0  0  0
   -5.4831    0.8284    0.0000 C   0  0  0  0  0  0  0  0  0  0  0  0
   -5.7095    2.3112    0.0000 C   0  0  0  0  0  0  0  0  0  0  0  0
   -4.5386    3.2487    0.0000 O   0  0  0  0  0  0  0  0  0  0  0  0
   -7.1069    2.8565    0.0000 O   0  0  0  0  0  0  0  0  0  0  0  0
   -2.4620   -1.7451    0.0000 C   0  0  0  0  0  0  0  0  0  0  0  0
   -2.0818   -3.1961    0.0000 C   0  0  0  0  0  0  0  0  0  0  0  0
   -0.5844   -3.2830    0.0000 C   0  0  0  0  0  0  0  0  0  0  0  0
   -0.0390   -1.8856    0.0000 C   0  0  0  0  0  0  0  0  0  0  0  0
    1.3643   -1.3559    0.0000 C   0  0  0  0  0  0  0  0  0  0  0  0
    2.5248   -2.3063    0.0000 C   0  0  0  0  0  0  0  0  0  0  0  0
    2.2819   -3.7865    0.0000 O   0  0  0  0  0  0  0  0  0  0  0  0
    3.9281   -1.7765    0.0000 C   0  0  0  0  0  0  0  0  0  0  0  0
    4.1710   -0.2963    0.0000 C   0  0  0  0  0  0  0  0  0  0  0  0
    5.5743    0.2334    0.0000 C   0  0  0  0  0  0  0  0  0  0  0  0
    5.8172    1.7136    0.0000 C   0  0  0  0  0  0  0  0  0  0  0  0
    7.2205    2.2434    0.0000 N   0  0  0  0  0  0  0  0  0  0  0  0
    4.6568    2.6641    0.0000 C   0  0  0  0  0  0  0  0  0  0  0  0
    3.2534    2.1343    0.0000 C   0  0  0  0  0  0  0  0  0  0  0  0
    3.0105    0.6541    0.0000 C   0  0  0  0  0  0  0  0  0  0  0  0
    1.8501    1.6046    0.0000 C   0  0  0  0  0  0  0  0  0  0  0  0
    1.6072    0.1244    0.0000 C   0  0  0  0  0  0  0  0  0  0  0  0
    0.4467    1.0748    0.0000 C   0  0  0  0  0  0  0  0  0  0  0  0
   -0.9566    0.5450    0.0000 C   0  0  0  0  0  0  0  0  0  0  0  0
   -2.1170    1.4955    0.0000 O   0  0  0  0  0  0  0  0  0  0  0  0
   -1.1995   -0.9352    0.0000 C   0  0  0  0  0  0  0  0  0  0  0  0
   -2.4529   -0.1112    0.0000 C   0  0  0  0  0  0  0  0  0  0  0  0
  2  1  1  6
  2  3  1  0
  3  4  1  0
  4  5  1  0
  5  6  2  0
  5  7  1  0
  2  8  1  0
  8  9  1  6
  9 10  1  0
 11 10  1  6
 11 12  1  0
 12 13  1  1
 13 14  1  6
 13 15  1  0
 16 15  1  1
 16 17  1  0
 17 18  1  0
 18 19  1  6
 18 20  1  0
 20 21  1  0
 21 22  1  0
 22 23  1  6
 22 24  1  0
 24 25  1  6
 25 26  1  0
 26 27  1  6
 26 28  1  0
 28 29  1  6
 28  8  1  0
 28 11  1  0
 24 12  1  0
 22 16  1  0
M  END
>  <MS_ID>  (2288) 
MS2371

>  <SMILES>  (2288) 
C[C@H](CCC(=O)O)[C@H]1CC[C@H]2[C@@H]3[C@@H](O)C[C@@H]4C[C@@H](N)CC[C@]4(C)[C@H]3C[C@@H](O)[C@]12C

>  <Structure_dimension>  (2288) 
2D

$$$$
MS2372
     RDKit          2D

 30 33  0  0  0  0  0  0  0  0999 V2000
   -5.8393   -1.8075    0.0000 C   0  0  0  0  0  0  0  0  0  0  0  0
   -4.6087   -0.9498    0.0000 C   0  0  0  0  0  0  0  0  0  0  0  0
   -4.7361    0.5448    0.0000 C   0  0  0  0  0  0  0  0  0  0  0  0
   -6.0942    1.1817    0.0000 C   0  0  0  0  0  0  0  0  0  0  0  0
   -6.2216    2.6763    0.0000 C   0  0  0  0  0  0  0  0  0  0  0  0
   -4.9910    3.5339    0.0000 O   0  0  0  0  0  0  0  0  0  0  0  0
   -7.5797    3.3132    0.0000 O   0  0  0  0  0  0  0  0  0  0  0  0
   -3.2506   -1.5867    0.0000 C   0  0  0  0  0  0  0  0  0  0  0  0
   -2.9677   -3.0598    0.0000 C   0  0  0  0  0  0  0  0  0  0  0  0
   -1.4793   -3.2459    0.0000 C   0  0  0  0  0  0  0  0  0  0  0  0
   -0.8423   -1.8878    0.0000 C   0  0  0  0  0  0  0  0  0  0  0  0
    0.5931   -1.4525    0.0000 C   0  0  0  0  0  0  0  0  0  0  0  0
    1.6878   -2.4779    0.0000 C   0  0  0  0  0  0  0  0  0  0  0  0
    1.3472   -3.9387    0.0000 O   0  0  0  0  0  0  0  0  0  0  0  0
    3.1233   -2.0425    0.0000 C   0  0  0  0  0  0  0  0  0  0  0  0
    3.4639   -0.5817    0.0000 C   0  0  0  0  0  0  0  0  0  0  0  0
    4.8993   -0.1463    0.0000 C   0  0  0  0  0  0  0  0  0  0  0  0
    5.2400    1.3145    0.0000 C   0  0  0  0  0  0  0  0  0  0  0  0
    6.6754    1.7499    0.0000 N   0  0  0  0  0  0  0  0  0  0  0  0
    7.7702    0.7245    0.0000 C   0  0  0  0  0  0  0  0  0  0  0  0
    9.2056    1.1599    0.0000 O   0  0  0  0  0  0  0  0  0  0  0  0
    4.1452    2.3399    0.0000 C   0  0  0  0  0  0  0  0  0  0  0  0
    2.7098    1.9045    0.0000 C   0  0  0  0  0  0  0  0  0  0  0  0
    2.3692    0.4437    0.0000 C   0  0  0  0  0  0  0  0  0  0  0  0
    1.2744    1.4692    0.0000 C   0  0  0  0  0  0  0  0  0  0  0  0
    0.9337    0.0084    0.0000 C   0  0  0  0  0  0  0  0  0  0  0  0
   -0.1610    1.0338    0.0000 C   0  0  0  0  0  0  0  0  0  0  0  0
   -1.5965    0.5984    0.0000 C   0  0  0  0  0  0  0  0  0  0  0  0
   -1.9371   -0.8624    0.0000 C   0  0  0  0  0  0  0  0  0  0  0  0
   -3.1331    0.0429    0.0000 C   0  0  0  0  0  0  0  0  0  0  0  0
  2  1  1  6
  2  3  1  0
  3  4  1  0
  4  5  1  0
  5  6  2  0
  5  7  1  0
  2  8  1  0
  8  9  1  6
  9 10  1  0
 11 10  1  6
 11 12  1  0
 12 13  1  1
 13 14  1  6
 13 15  1  0
 16 15  1  1
 16 17  1  0
 17 18  1  0
 18 19  1  1
 19 20  1  0
 20 21  1  0
 18 22  1  0
 22 23  1  0
 23 24  1  0
 24 25  1  6
 24 26  1  0
 26 27  1  6
 27 28  1  0
 28 29  1  0
 29 30  1  6
 29  8  1  0
 29 11  1  0
 26 12  1  0
 24 16  1  0
M  END
>  <MS_ID>  (2289) 
MS2372

>  <SMILES>  (2289) 
C[C@H](CCC(=O)O)[C@H]1CC[C@H]2[C@@H]3[C@@H](O)C[C@@H]4C[C@H](NCO)CC[C@]4(C)[C@H]3CC[C@]12C

>  <Structure_dimension>  (2289) 
2D

$$$$
MS2373
     RDKit          2D

 30 33  0  0  0  0  0  0  0  0999 V2000
   -8.9136    3.2062    0.0000 C   0  0  0  0  0  0  0  0  0  0  0  0
   -7.4457    2.8978    0.0000 C   0  0  0  0  0  0  0  0  0  0  0  0
   -6.9787    1.4724    0.0000 O   0  0  0  0  0  0  0  0  0  0  0  0
   -5.5108    1.1640    0.0000 C   0  0  0  0  0  0  0  0  0  0  0  0
   -4.5097    2.2811    0.0000 O   0  0  0  0  0  0  0  0  0  0  0  0
   -5.0438   -0.2615    0.0000 C   0  0  0  0  0  0  0  0  0  0  0  0
   -3.5759   -0.5698    0.0000 C   0  0  0  0  0  0  0  0  0  0  0  0
   -3.1089   -1.9953    0.0000 C   0  0  0  0  0  0  0  0  0  0  0  0
   -4.1099   -3.1124    0.0000 C   0  0  0  0  0  0  0  0  0  0  0  0
   -1.6409   -2.3036    0.0000 C   0  0  0  0  0  0  0  0  0  0  0  0
   -1.0276   -3.6725    0.0000 C   0  0  0  0  0  0  0  0  0  0  0  0
    0.4638   -3.5121    0.0000 C   0  0  0  0  0  0  0  0  0  0  0  0
    0.7722   -2.0441    0.0000 C   0  0  0  0  0  0  0  0  0  0  0  0
    2.0694   -1.2910    0.0000 C   0  0  0  0  0  0  0  0  0  0  0  0
    3.3703   -2.0379    0.0000 C   0  0  0  0  0  0  0  0  0  0  0  0
    3.3739   -3.5379    0.0000 O   0  0  0  0  0  0  0  0  0  0  0  0
    4.6675   -1.2848    0.0000 C   0  0  0  0  0  0  0  0  0  0  0  0
    4.6639    0.2152    0.0000 C   0  0  0  0  0  0  0  0  0  0  0  0
    5.9611    0.9683    0.0000 C   0  0  0  0  0  0  0  0  0  0  0  0
    5.9575    2.4683    0.0000 C   0  0  0  0  0  0  0  0  0  0  0  0
    7.2548    3.2214    0.0000 O   0  0  0  0  0  0  0  0  0  0  0  0
    4.6567    3.2152    0.0000 C   0  0  0  0  0  0  0  0  0  0  0  0
    3.3595    2.4621    0.0000 C   0  0  0  0  0  0  0  0  0  0  0  0
    3.3631    0.9621    0.0000 C   0  0  0  0  0  0  0  0  0  0  0  0
    2.0622    1.7090    0.0000 C   0  0  0  0  0  0  0  0  0  0  0  0
    2.0658    0.2090    0.0000 C   0  0  0  0  0  0  0  0  0  0  0  0
    0.7650    0.9559    0.0000 C   0  0  0  0  0  0  0  0  0  0  0  0
   -0.5322    0.2027    0.0000 C   0  0  0  0  0  0  0  0  0  0  0  0
   -0.5286   -1.2973    0.0000 C   0  0  0  0  0  0  0  0  0  0  0  0
   -1.9004   -0.6904    0.0000 C   0  0  0  0  0  0  0  0  0  0  0  0
  1  2  1  0
  2  3  1  0
  3  4  1  0
  4  5  2  0
  4  6  1  0
  6  7  1  0
  7  8  1  0
  8  9  1  6
  8 10  1  0
 10 11  1  6
 11 12  1  0
 13 12  1  6
 13 14  1  0
 14 15  1  1
 15 16  1  1
 15 17  1  0
 18 17  1  1
 18 19  1  0
 19 20  1  0
 20 21  1  6
 20 22  1  0
 22 23  1  0
 23 24  1  0
 24 25  1  6
 24 26  1  0
 26 27  1  6
 27 28  1  0
 28 29  1  0
 29 30  1  6
 29 10  1  0
 29 13  1  0
 26 14  1  0
 24 18  1  0
M  END
>  <MS_ID>  (2290) 
MS2373

>  <SMILES>  (2290) 
CCOC(=O)CC[C@@H](C)[C@H]1CC[C@H]2[C@@H]3[C@H](O)C[C@@H]4C[C@@H](O)CC[C@]4(C)[C@H]3CC[C@]12C

>  <Structure_dimension>  (2290) 
2D

$$$$
MS2374
     RDKit          2D

 36 39  0  0  0  0  0  0  0  0999 V2000
   -1.8603   -4.3256    0.0000 C   0  0  0  0  0  0  0  0  0  0  0  0
   -1.1735   -2.9920    0.0000 C   0  0  0  0  0  0  0  0  0  0  0  0
   -1.9849   -1.7305    0.0000 C   0  0  0  0  0  0  0  0  0  0  0  0
   -3.4832   -1.8024    0.0000 C   0  0  0  0  0  0  0  0  0  0  0  0
   -4.2946   -0.5408    0.0000 C   0  0  0  0  0  0  0  0  0  0  0  0
   -3.6078    0.7927    0.0000 O   0  0  0  0  0  0  0  0  0  0  0  0
   -5.7929   -0.6128    0.0000 N   0  0  0  0  0  0  0  0  0  0  0  0
   -6.6043    0.6488    0.0000 C   0  0  0  0  0  0  0  0  0  0  0  0
   -5.9175    1.9823    0.0000 O   0  0  0  0  0  0  0  0  0  0  0  0
   -8.1026    0.5769    0.0000 C   0  0  0  0  0  0  0  0  0  0  0  0
   -8.9140    1.8384    0.0000 C   0  0  0  0  0  0  0  0  0  0  0  0
  -10.4123    1.7665    0.0000 C   0  0  0  0  0  0  0  0  0  0  0  0
  -11.0991    0.4330    0.0000 O   0  0  0  0  0  0  0  0  0  0  0  0
  -11.2237    3.0281    0.0000 O   0  0  0  0  0  0  0  0  0  0  0  0
    0.3248   -2.9201    0.0000 C   0  0  0  0  0  0  0  0  0  0  0  0
    1.2637   -4.0899    0.0000 C   0  0  0  0  0  0  0  0  0  0  0  0
    2.6664   -3.5585    0.0000 C   0  0  0  0  0  0  0  0  0  0  0  0
    2.5945   -2.0603    0.0000 C   0  0  0  0  0  0  0  0  0  0  0  0
    3.6598   -1.0043    0.0000 C   0  0  0  0  0  0  0  0  0  0  0  0
    5.1069   -1.3988    0.0000 C   0  0  0  0  0  0  0  0  0  0  0  0
    5.4888   -2.8494    0.0000 O   0  0  0  0  0  0  0  0  0  0  0  0
    6.1722   -0.3428    0.0000 C   0  0  0  0  0  0  0  0  0  0  0  0
    7.6194   -0.7374    0.0000 O   0  0  0  0  0  0  0  0  0  0  0  0
    5.7904    1.1077    0.0000 C   0  0  0  0  0  0  0  0  0  0  0  0
    6.8557    2.1637    0.0000 C   0  0  0  0  0  0  0  0  0  0  0  0
    6.4738    3.6143    0.0000 C   0  0  0  0  0  0  0  0  0  0  0  0
    7.5391    4.6703    0.0000 O   0  0  0  0  0  0  0  0  0  0  0  0
    5.0266    4.0089    0.0000 C   0  0  0  0  0  0  0  0  0  0  0  0
    3.9613    2.9529    0.0000 C   0  0  0  0  0  0  0  0  0  0  0  0
    4.3432    1.5023    0.0000 C   0  0  0  0  0  0  0  0  0  0  0  0
    2.8960    1.8969    0.0000 C   0  0  0  0  0  0  0  0  0  0  0  0
    3.2779    0.4463    0.0000 C   0  0  0  0  0  0  0  0  0  0  0  0
    1.8307    0.8409    0.0000 C   0  0  0  0  0  0  0  0  0  0  0  0
    0.7654   -0.2151    0.0000 C   0  0  0  0  0  0  0  0  0  0  0  0
    1.1473   -1.6657    0.0000 C   0  0  0  0  0  0  0  0  0  0  0  0
   -0.3332   -1.4245    0.0000 C   0  0  0  0  0  0  0  0  0  0  0  0
  2  1  1  6
  2  3  1  0
  3  4  1  0
  4  5  1  0
  5  6  2  0
  5  7  1  0
  7  8  1  0
  8  9  2  0
  8 10  1  0
 10 11  1  0
 11 12  1  0
 12 13  2  0
 12 14  1  0
  2 15  1  0
 15 16  1  6
 16 17  1  0
 18 17  1  6
 18 19  1  0
 19 20  1  1
 20 21  1  1
 20 22  1  0
 22 23  1  1
 22 24  1  0
 24 25  1  1
 25 26  1  0
 26 27  1  1
 26 28  1  0
 28 29  1  0
 29 30  1  0
 30 31  1  6
 30 32  1  0
 32 33  1  6
 33 34  1  0
 34 35  1  0
 35 36  1  6
 35 15  1  0
 35 18  1  0
 32 19  1  0
 30 24  1  0
M  END
>  <MS_ID>  (2291) 
MS2374

>  <SMILES>  (2291) 
C[C@H](CCC(=O)NC(=O)CCC(=O)O)[C@H]1CC[C@H]2[C@@H]3[C@H](O)[C@H](O)[C@@H]4C[C@H](O)CC[C@]4(C)[C@H]3CC[C@]12C

>  <Structure_dimension>  (2291) 
2D

$$$$
MS2375
     RDKit          2D

 34 37  0  0  0  0  0  0  0  0999 V2000
   -1.8984   -4.2506    0.0000 C   0  0  0  0  0  0  0  0  0  0  0  0
   -1.1842   -2.9316    0.0000 C   0  0  0  0  0  0  0  0  0  0  0  0
   -1.9694   -1.6535    0.0000 C   0  0  0  0  0  0  0  0  0  0  0  0
   -3.4688   -1.6945    0.0000 C   0  0  0  0  0  0  0  0  0  0  0  0
   -4.2540   -0.4165    0.0000 C   0  0  0  0  0  0  0  0  0  0  0  0
   -3.5398    0.9026    0.0000 O   0  0  0  0  0  0  0  0  0  0  0  0
   -5.7535   -0.4574    0.0000 N   0  0  0  0  0  0  0  0  0  0  0  0
   -6.5387    0.8206    0.0000 C   0  0  0  0  0  0  0  0  0  0  0  0
   -8.0381    0.7796    0.0000 C   0  0  0  0  0  0  0  0  0  0  0  0
   -8.8234    2.0577    0.0000 C   0  0  0  0  0  0  0  0  0  0  0  0
  -10.3228    2.0167    0.0000 C   0  0  0  0  0  0  0  0  0  0  0  0
  -11.0370    0.6977    0.0000 O   0  0  0  0  0  0  0  0  0  0  0  0
  -11.1080    3.2948    0.0000 O   0  0  0  0  0  0  0  0  0  0  0  0
    0.3153   -2.8906    0.0000 C   0  0  0  0  0  0  0  0  0  0  0  0
    1.2298   -4.0796    0.0000 C   0  0  0  0  0  0  0  0  0  0  0  0
    2.6432   -3.5773    0.0000 C   0  0  0  0  0  0  0  0  0  0  0  0
    2.6022   -2.0778    0.0000 C   0  0  0  0  0  0  0  0  0  0  0  0
    3.6890   -1.0440    0.0000 C   0  0  0  0  0  0  0  0  0  0  0  0
    5.1278   -1.4684    0.0000 C   0  0  0  0  0  0  0  0  0  0  0  0
    5.4796   -2.9266    0.0000 O   0  0  0  0  0  0  0  0  0  0  0  0
    6.2146   -0.4346    0.0000 C   0  0  0  0  0  0  0  0  0  0  0  0
    5.8628    1.0235    0.0000 C   0  0  0  0  0  0  0  0  0  0  0  0
    6.9497    2.0573    0.0000 C   0  0  0  0  0  0  0  0  0  0  0  0
    6.5978    3.5154    0.0000 C   0  0  0  0  0  0  0  0  0  0  0  0
    7.6847    4.5492    0.0000 N   0  0  0  0  0  0  0  0  0  0  0  0
    5.1591    3.9398    0.0000 C   0  0  0  0  0  0  0  0  0  0  0  0
    4.0722    2.9060    0.0000 C   0  0  0  0  0  0  0  0  0  0  0  0
    4.4241    1.4479    0.0000 C   0  0  0  0  0  0  0  0  0  0  0  0
    2.9854    1.8723    0.0000 C   0  0  0  0  0  0  0  0  0  0  0  0
    3.3372    0.4141    0.0000 C   0  0  0  0  0  0  0  0  0  0  0  0
    1.8985    0.8385    0.0000 C   0  0  0  0  0  0  0  0  0  0  0  0
    0.8116   -0.1953    0.0000 C   0  0  0  0  0  0  0  0  0  0  0  0
    1.1635   -1.6534    0.0000 C   0  0  0  0  0  0  0  0  0  0  0  0
   -0.3117   -1.3818    0.0000 C   0  0  0  0  0  0  0  0  0  0  0  0
  2  1  1  6
  2  3  1  0
  3  4  1  0
  4  5  1  0
  5  6  2  0
  5  7  1  0
  7  8  1  0
  8  9  1  0
  9 10  1  0
 10 11  1  0
 11 12  2  0
 11 13  1  0
  2 14  1  0
 14 15  1  6
 15 16  1  0
 17 16  1  6
 17 18  1  0
 18 19  1  1
 19 20  1  6
 19 21  1  0
 22 21  1  1
 22 23  1  0
 23 24  1  0
 24 25  1  1
 24 26  1  0
 26 27  1  0
 27 28  1  0
 28 29  1  6
 28 30  1  0
 30 31  1  6
 31 32  1  0
 32 33  1  0
 33 34  1  6
 33 14  1  0
 33 17  1  0
 30 18  1  0
 28 22  1  0
M  END
>  <MS_ID>  (2292) 
MS2375

>  <SMILES>  (2292) 
C[C@H](CCC(=O)NCCCC(=O)O)[C@H]1CC[C@H]2[C@@H]3[C@@H](O)C[C@@H]4C[C@H](N)CC[C@]4(C)[C@H]3CC[C@]12C

>  <Structure_dimension>  (2292) 
2D

$$$$
MS2376
     RDKit          2D

 39 43  0  0  0  0  0  0  0  0999 V2000
   -8.0325   -2.2018    0.0000 C   0  0  0  0  0  0  0  0  0  0  0  0
   -6.8746   -1.2481    0.0000 C   0  0  0  0  0  0  0  0  0  0  0  0
   -7.1216    0.2314    0.0000 C   0  0  0  0  0  0  0  0  0  0  0  0
   -8.5264    0.7573    0.0000 C   0  0  0  0  0  0  0  0  0  0  0  0
   -8.7734    2.2368    0.0000 C   0  0  0  0  0  0  0  0  0  0  0  0
   -7.6156    3.1905    0.0000 O   0  0  0  0  0  0  0  0  0  0  0  0
  -10.1782    2.7627    0.0000 O   0  0  0  0  0  0  0  0  0  0  0  0
   -5.4699   -1.7740    0.0000 C   0  0  0  0  0  0  0  0  0  0  0  0
   -5.0696   -3.2196    0.0000 C   0  0  0  0  0  0  0  0  0  0  0  0
   -3.5710   -3.2856    0.0000 C   0  0  0  0  0  0  0  0  0  0  0  0
   -3.0452   -1.8808    0.0000 C   0  0  0  0  0  0  0  0  0  0  0  0
   -1.6493   -1.3317    0.0000 C   0  0  0  0  0  0  0  0  0  0  0  0
   -0.4758   -2.2659    0.0000 C   0  0  0  0  0  0  0  0  0  0  0  0
    0.9201   -1.7167    0.0000 C   0  0  0  0  0  0  0  0  0  0  0  0
    1.1424   -0.2333    0.0000 C   0  0  0  0  0  0  0  0  0  0  0  0
    2.5382    0.3159    0.0000 C   0  0  0  0  0  0  0  0  0  0  0  0
    2.7606    1.7993    0.0000 C   0  0  0  0  0  0  0  0  0  0  0  0
    4.1564    2.3485    0.0000 O   0  0  0  0  0  0  0  0  0  0  0  0
    5.3299    1.4143    0.0000 C   0  0  0  0  0  0  0  0  0  0  0  0
    5.1076   -0.0692    0.0000 O   0  0  0  0  0  0  0  0  0  0  0  0
    6.2812   -1.0034    0.0000 C   0  0  0  0  0  0  0  0  0  0  0  0
    6.0588   -2.4868    0.0000 C   0  0  0  0  0  0  0  0  0  0  0  0
    7.2324   -3.4211    0.0000 O   0  0  0  0  0  0  0  0  0  0  0  0
    4.6630   -3.0360    0.0000 O   0  0  0  0  0  0  0  0  0  0  0  0
    7.6770   -0.4542    0.0000 C   0  0  0  0  0  0  0  0  0  0  0  0
    8.8505   -1.3885    0.0000 O   0  0  0  0  0  0  0  0  0  0  0  0
    7.8993    1.0292    0.0000 C   0  0  0  0  0  0  0  0  0  0  0  0
    9.2952    1.5784    0.0000 O   0  0  0  0  0  0  0  0  0  0  0  0
    6.7258    1.9635    0.0000 C   0  0  0  0  0  0  0  0  0  0  0  0
    6.9481    3.4469    0.0000 O   0  0  0  0  0  0  0  0  0  0  0  0
    1.5870    2.7336    0.0000 C   0  0  0  0  0  0  0  0  0  0  0  0
    0.1912    2.1844    0.0000 C   0  0  0  0  0  0  0  0  0  0  0  0
   -0.0311    0.7010    0.0000 C   0  0  0  0  0  0  0  0  0  0  0  0
   -1.2047    1.6352    0.0000 C   0  0  0  0  0  0  0  0  0  0  0  0
   -1.4270    0.1518    0.0000 C   0  0  0  0  0  0  0  0  0  0  0  0
   -2.6005    1.0860    0.0000 C   0  0  0  0  0  0  0  0  0  0  0  0
   -3.9964    0.5368    0.0000 C   0  0  0  0  0  0  0  0  0  0  0  0
   -4.2187   -0.9466    0.0000 C   0  0  0  0  0  0  0  0  0  0  0  0
   -5.4834   -0.1401    0.0000 C   0  0  0  0  0  0  0  0  0  0  0  0
  2  1  1  6
  2  3  1  0
  3  4  1  0
  4  5  1  0
  5  6  2  0
  5  7  1  0
  2  8  1  0
  8  9  1  6
  9 10  1  0
 11 10  1  6
 11 12  1  0
 12 13  1  1
 13 14  1  0
 15 14  1  1
 15 16  1  0
 16 17  1  0
 17 18  1  1
 19 18  1  1
 19 20  1  0
 20 21  1  0
 21 22  1  6
 22 23  2  0
 22 24  1  0
 21 25  1  0
 25 26  1  1
 25 27  1  0
 27 28  1  1
 27 29  1  0
 29 30  1  1
 17 31  1  0
 31 32  1  0
 32 33  1  0
 33 34  1  6
 33 35  1  0
 35 36  1  6
 36 37  1  0
 37 38  1  0
 38 39  1  6
 38  8  1  0
 38 11  1  0
 35 12  1  0
 33 15  1  0
 29 19  1  0
M  END
>  <MS_ID>  (2293) 
MS2376

>  <SMILES>  (2293) 
C[C@H](CCC(=O)O)[C@H]1CC[C@H]2[C@@H]3CC[C@@H]4C[C@H](O[C@@H]5O[C@@H](C(=O)O)[C@H](O)[C@H](O)[C@@H]5O)CC[C@]4(C)[C@H]3CC[C@]12C

>  <Structure_dimension>  (2293) 
2D

$$$$
MS2377
     RDKit          2D

 37 41  0  0  0  0  0  0  0  0999 V2000
   -4.5038   -3.2145    0.0000 C   0  0  0  0  0  0  0  0  0  0  0  0
   -3.4462   -2.1508    0.0000 C   0  0  0  0  0  0  0  0  0  0  0  0
   -3.8386   -0.7030    0.0000 C   0  0  0  0  0  0  0  0  0  0  0  0
   -5.2886   -0.3190    0.0000 C   0  0  0  0  0  0  0  0  0  0  0  0
   -5.6810    1.1288    0.0000 C   0  0  0  0  0  0  0  0  0  0  0  0
   -4.6234    2.1925    0.0000 O   0  0  0  0  0  0  0  0  0  0  0  0
   -7.1310    1.5129    0.0000 N   0  0  0  0  0  0  0  0  0  0  0  0
   -7.5234    2.9606    0.0000 C   0  0  0  0  0  0  0  0  0  0  0  0
   -8.9734    3.3447    0.0000 C   0  0  0  0  0  0  0  0  0  0  0  0
  -10.0310    2.2810    0.0000 O   0  0  0  0  0  0  0  0  0  0  0  0
   -9.6386    0.8332    0.0000 C   0  0  0  0  0  0  0  0  0  0  0  0
   -8.1886    0.4492    0.0000 C   0  0  0  0  0  0  0  0  0  0  0  0
   -1.9962   -2.5348    0.0000 C   0  0  0  0  0  0  0  0  0  0  0  0
   -1.4546   -3.9337    0.0000 C   0  0  0  0  0  0  0  0  0  0  0  0
    0.0431   -3.8508    0.0000 C   0  0  0  0  0  0  0  0  0  0  0  0
    0.4272   -2.4009    0.0000 C   0  0  0  0  0  0  0  0  0  0  0  0
    1.7617   -1.7160    0.0000 C   0  0  0  0  0  0  0  0  0  0  0  0
    3.0221   -2.5294    0.0000 C   0  0  0  0  0  0  0  0  0  0  0  0
    2.9479   -4.0275    0.0000 O   0  0  0  0  0  0  0  0  0  0  0  0
    4.3566   -1.8445    0.0000 C   0  0  0  0  0  0  0  0  0  0  0  0
    4.4308   -0.3464    0.0000 C   0  0  0  0  0  0  0  0  0  0  0  0
    5.7653    0.3385    0.0000 C   0  0  0  0  0  0  0  0  0  0  0  0
    5.8395    1.8366    0.0000 C   0  0  0  0  0  0  0  0  0  0  0  0
    7.1741    2.5215    0.0000 O   0  0  0  0  0  0  0  0  0  0  0  0
    8.4344    1.7081    0.0000 S   0  0  0  0  0  0  0  0  0  0  0  0
    7.6211    0.4478    0.0000 O   0  0  0  0  0  0  0  0  0  0  0  0
    9.2478    2.9685    0.0000 O   0  0  0  0  0  0  0  0  0  0  0  0
    9.6948    0.8948    0.0000 O   0  0  0  0  0  0  0  0  0  0  0  0
    4.5792    2.6500    0.0000 C   0  0  0  0  0  0  0  0  0  0  0  0
    3.2446    1.9651    0.0000 C   0  0  0  0  0  0  0  0  0  0  0  0
    3.1704    0.4670    0.0000 C   0  0  0  0  0  0  0  0  0  0  0  0
    1.9101    1.2803    0.0000 C   0  0  0  0  0  0  0  0  0  0  0  0
    1.8359   -0.2179    0.0000 C   0  0  0  0  0  0  0  0  0  0  0  0
    0.5755    0.5955    0.0000 C   0  0  0  0  0  0  0  0  0  0  0  0
   -0.7590   -0.0894    0.0000 C   0  0  0  0  0  0  0  0  0  0  0  0
   -0.8332   -1.5875    0.0000 C   0  0  0  0  0  0  0  0  0  0  0  0
   -2.1717   -0.9104    0.0000 C   0  0  0  0  0  0  0  0  0  0  0  0
  2  1  1  6
  2  3  1  0
  3  4  1  0
  4  5  1  0
  5  6  2  0
  5  7  1  0
  7  8  1  0
  8  9  1  0
  9 10  1  0
 10 11  1  0
 11 12  1  0
  2 13  1  0
 13 14  1  6
 14 15  1  0
 16 15  1  6
 16 17  1  0
 17 18  1  1
 18 19  1  1
 18 20  1  0
 21 20  1  1
 21 22  1  0
 22 23  1  0
 23 24  1  1
 24 25  1  0
 25 26  2  0
 25 27  2  0
 25 28  1  0
 23 29  1  0
 29 30  1  0
 30 31  1  0
 31 32  1  6
 31 33  1  0
 33 34  1  6
 34 35  1  0
 35 36  1  0
 36 37  1  6
 12  7  1  0
 36 13  1  0
 36 16  1  0
 33 17  1  0
 31 21  1  0
M  END
>  <MS_ID>  (2294) 
MS2377

>  <SMILES>  (2294) 
C[C@H](CCC(=O)N1CCOCC1)[C@H]1CC[C@H]2[C@@H]3[C@H](O)C[C@@H]4C[C@H](OS(=O)(=O)O)CC[C@]4(C)[C@H]3CC[C@]12C

>  <Structure_dimension>  (2294) 
2D

$$$$
MS2378
     RDKit          2D

 33 36  0  0  0  0  0  0  0  0999 V2000
   -6.0463   -2.2451    0.0000 C   0  0  0  0  0  0  0  0  0  0  0  0
   -4.8572   -1.3308    0.0000 C   0  0  0  0  0  0  0  0  0  0  0  0
   -5.0545    0.1562    0.0000 C   0  0  0  0  0  0  0  0  0  0  0  0
   -6.4409    0.7288    0.0000 C   0  0  0  0  0  0  0  0  0  0  0  0
   -6.6382    2.2158    0.0000 C   0  0  0  0  0  0  0  0  0  0  0  0
   -8.0246    2.7884    0.0000 O   0  0  0  0  0  0  0  0  0  0  0  0
   -5.4491    3.1301    0.0000 O   0  0  0  0  0  0  0  0  0  0  0  0
   -5.6464    4.6171    0.0000 N   0  0  0  0  0  0  0  0  0  0  0  0
   -3.4708   -1.9034    0.0000 C   0  0  0  0  0  0  0  0  0  0  0  0
   -3.1192   -3.3616    0.0000 C   0  0  0  0  0  0  0  0  0  0  0  0
   -1.6237   -3.4778    0.0000 C   0  0  0  0  0  0  0  0  0  0  0  0
   -1.0510   -2.0914    0.0000 C   0  0  0  0  0  0  0  0  0  0  0  0
    0.3624   -1.5892    0.0000 C   0  0  0  0  0  0  0  0  0  0  0  0
    1.5040   -2.5623    0.0000 C   0  0  0  0  0  0  0  0  0  0  0  0
    1.2321   -4.0374    0.0000 O   0  0  0  0  0  0  0  0  0  0  0  0
    2.9175   -2.0601    0.0000 C   0  0  0  0  0  0  0  0  0  0  0  0
    3.1893   -0.5850    0.0000 C   0  0  0  0  0  0  0  0  0  0  0  0
    4.6028   -0.0828    0.0000 C   0  0  0  0  0  0  0  0  0  0  0  0
    4.8747    1.3923    0.0000 C   0  0  0  0  0  0  0  0  0  0  0  0
    6.2881    1.8945    0.0000 O   0  0  0  0  0  0  0  0  0  0  0  0
    7.4297    0.9214    0.0000 S   0  0  0  0  0  0  0  0  0  0  0  0
    6.4567   -0.2202    0.0000 O   0  0  0  0  0  0  0  0  0  0  0  0
    8.4027    2.0630    0.0000 O   0  0  0  0  0  0  0  0  0  0  0  0
    8.5713   -0.0516    0.0000 O   0  0  0  0  0  0  0  0  0  0  0  0
    3.7331    2.3653    0.0000 C   0  0  0  0  0  0  0  0  0  0  0  0
    2.3196    1.8632    0.0000 C   0  0  0  0  0  0  0  0  0  0  0  0
    2.0477    0.3880    0.0000 C   0  0  0  0  0  0  0  0  0  0  0  0
    0.9061    1.3611    0.0000 C   0  0  0  0  0  0  0  0  0  0  0  0
    0.6343   -0.1141    0.0000 C   0  0  0  0  0  0  0  0  0  0  0  0
   -0.5073    0.8589    0.0000 C   0  0  0  0  0  0  0  0  0  0  0  0
   -1.9208    0.3568    0.0000 C   0  0  0  0  0  0  0  0  0  0  0  0
   -2.1926   -1.1184    0.0000 C   0  0  0  0  0  0  0  0  0  0  0  0
   -3.4297   -0.2700    0.0000 C   0  0  0  0  0  0  0  0  0  0  0  0
  2  1  1  6
  2  3  1  0
  3  4  1  0
  4  5  1  0
  5  6  2  0
  5  7  1  0
  7  8  1  0
  2  9  1  0
  9 10  1  6
 10 11  1  0
 12 11  1  6
 12 13  1  0
 13 14  1  1
 14 15  1  6
 14 16  1  0
 17 16  1  1
 17 18  1  0
 18 19  1  0
 19 20  1  1
 20 21  1  0
 21 22  2  0
 21 23  2  0
 21 24  1  0
 19 25  1  0
 25 26  1  0
 26 27  1  0
 27 28  1  6
 27 29  1  0
 29 30  1  6
 30 31  1  0
 31 32  1  0
 32 33  1  6
 32  9  1  0
 32 12  1  0
 29 13  1  0
 27 17  1  0
M  END
>  <MS_ID>  (2295) 
MS2378

>  <SMILES>  (2295) 
C[C@H](CCC(=O)ON)[C@H]1CC[C@H]2[C@@H]3[C@@H](O)C[C@@H]4C[C@H](OS(=O)(=O)O)CC[C@]4(C)[C@H]3CC[C@]12C

>  <Structure_dimension>  (2295) 
2D

$$$$
MS2379
     RDKit          2D

 32 36  0  0  0  0  0  0  0  0999 V2000
   -3.4100   -3.2672    0.0000 C   0  0  0  0  0  0  0  0  0  0  0  0
   -2.4025   -2.1559    0.0000 C   0  0  0  0  0  0  0  0  0  0  0  0
   -2.8612   -0.7278    0.0000 C   0  0  0  0  0  0  0  0  0  0  0  0
   -4.3273   -0.4109    0.0000 C   0  0  0  0  0  0  0  0  0  0  0  0
   -4.7860    1.0172    0.0000 C   0  0  0  0  0  0  0  0  0  0  0  0
   -3.7785    2.1285    0.0000 O   0  0  0  0  0  0  0  0  0  0  0  0
   -6.2522    1.3341    0.0000 C   0  0  0  0  0  0  0  0  0  0  0  0
   -7.3703    0.3342    0.0000 C   0  0  0  0  0  0  0  0  0  0  0  0
   -8.6668    1.0886    0.0000 N   0  0  0  0  0  0  0  0  0  0  0  0
   -8.3499    2.5547    0.0000 C   0  0  0  0  0  0  0  0  0  0  0  0
   -6.8576    2.7065    0.0000 N   0  0  0  0  0  0  0  0  0  0  0  0
   -0.9363   -2.4728    0.0000 C   0  0  0  0  0  0  0  0  0  0  0  0
   -0.3309   -3.8451    0.0000 C   0  0  0  0  0  0  0  0  0  0  0  0
    1.1614   -3.6934    0.0000 C   0  0  0  0  0  0  0  0  0  0  0  0
    1.4783   -2.2273    0.0000 C   0  0  0  0  0  0  0  0  0  0  0  0
    2.7798   -1.4817    0.0000 C   0  0  0  0  0  0  0  0  0  0  0  0
    4.0763   -2.2361    0.0000 C   0  0  0  0  0  0  0  0  0  0  0  0
    5.3779   -1.4905    0.0000 C   0  0  0  0  0  0  0  0  0  0  0  0
    5.3830    0.0095    0.0000 C   0  0  0  0  0  0  0  0  0  0  0  0
    6.6846    0.7551    0.0000 C   0  0  0  0  0  0  0  0  0  0  0  0
    6.6897    2.2551    0.0000 C   0  0  0  0  0  0  0  0  0  0  0  0
    7.9912    3.0007    0.0000 O   0  0  0  0  0  0  0  0  0  0  0  0
    5.3932    3.0095    0.0000 C   0  0  0  0  0  0  0  0  0  0  0  0
    4.0916    2.2639    0.0000 C   0  0  0  0  0  0  0  0  0  0  0  0
    4.0865    0.7639    0.0000 C   0  0  0  0  0  0  0  0  0  0  0  0
    2.7900    1.5183    0.0000 C   0  0  0  0  0  0  0  0  0  0  0  0
    2.7849    0.0183    0.0000 C   0  0  0  0  0  0  0  0  0  0  0  0
    1.4884    0.7727    0.0000 C   0  0  0  0  0  0  0  0  0  0  0  0
    0.1869    0.0271    0.0000 C   0  0  0  0  0  0  0  0  0  0  0  0
   -1.1096    0.7815    0.0000 O   0  0  0  0  0  0  0  0  0  0  0  0
    0.1818   -1.4728    0.0000 C   0  0  0  0  0  0  0  0  0  0  0  0
   -1.1865   -0.8581    0.0000 C   0  0  0  0  0  0  0  0  0  0  0  0
  2  1  1  6
  2  3  1  0
  3  4  1  0
  4  5  1  0
  5  6  2  0
  5  7  1  0
  7  8  2  0
  8  9  1  0
  9 10  2  0
 10 11  1  0
  2 12  1  0
 12 13  1  6
 13 14  1  0
 15 14  1  6
 15 16  1  0
 16 17  1  1
 17 18  1  0
 19 18  1  1
 19 20  1  0
 20 21  1  0
 21 22  1  1
 21 23  1  0
 23 24  1  0
 24 25  1  0
 25 26  1  6
 25 27  1  0
 27 28  1  6
 28 29  1  0
 29 30  1  1
 29 31  1  0
 31 32  1  6
 11  7  1  0
 31 12  1  0
 31 15  1  0
 27 16  1  0
 25 19  1  0
M  END
>  <MS_ID>  (2296) 
MS2379

>  <SMILES>  (2296) 
C[C@H](CCC(=O)c1cnc[nH]1)[C@H]1CC[C@H]2[C@@H]3CC[C@@H]4C[C@H](O)CC[C@]4(C)[C@H]3C[C@H](O)[C@]12C

>  <Structure_dimension>  (2296) 
2D

$$$$
MS2380
     RDKit          2D

 31 34  0  0  0  0  0  0  0  0999 V2000
   -5.0146   -2.6187    0.0000 C   0  0  0  0  0  0  0  0  0  0  0  0
   -4.0672   -1.4557    0.0000 C   0  0  0  0  0  0  0  0  0  0  0  0
   -4.6007   -0.0538    0.0000 C   0  0  0  0  0  0  0  0  0  0  0  0
   -6.0816    0.1851    0.0000 C   0  0  0  0  0  0  0  0  0  0  0  0
   -6.6150    1.5871    0.0000 C   0  0  0  0  0  0  0  0  0  0  0  0
   -5.6677    2.7500    0.0000 O   0  0  0  0  0  0  0  0  0  0  0  0
   -8.0959    1.8260    0.0000 O   0  0  0  0  0  0  0  0  0  0  0  0
   -2.5864   -1.6947    0.0000 C   0  0  0  0  0  0  0  0  0  0  0  0
   -1.9093   -3.0332    0.0000 C   0  0  0  0  0  0  0  0  0  0  0  0
   -0.4271   -2.8029    0.0000 C   0  0  0  0  0  0  0  0  0  0  0  0
   -0.1881   -1.3220    0.0000 C   0  0  0  0  0  0  0  0  0  0  0  0
    1.0722   -0.5087    0.0000 C   0  0  0  0  0  0  0  0  0  0  0  0
    2.4068   -1.1936    0.0000 C   0  0  0  0  0  0  0  0  0  0  0  0
    2.4809   -2.6918    0.0000 O   0  0  0  0  0  0  0  0  0  0  0  0
    3.8154   -3.3767    0.0000 C   0  0  0  0  0  0  0  0  0  0  0  0
    3.8896   -4.8748    0.0000 C   0  0  0  0  0  0  0  0  0  0  0  0
    5.2241   -5.5597    0.0000 Cl  0  0  0  0  0  0  0  0  0  0  0  0
    3.6671   -0.3803    0.0000 C   0  0  0  0  0  0  0  0  0  0  0  0
    3.5930    1.1178    0.0000 C   0  0  0  0  0  0  0  0  0  0  0  0
    4.8534    1.9311    0.0000 C   0  0  0  0  0  0  0  0  0  0  0  0
    4.7792    3.4293    0.0000 C   0  0  0  0  0  0  0  0  0  0  0  0
    6.0396    4.2426    0.0000 O   0  0  0  0  0  0  0  0  0  0  0  0
    3.4447    4.1142    0.0000 C   0  0  0  0  0  0  0  0  0  0  0  0
    2.1843    3.3009    0.0000 C   0  0  0  0  0  0  0  0  0  0  0  0
    2.2585    1.8027    0.0000 C   0  0  0  0  0  0  0  0  0  0  0  0
    0.9240    2.4876    0.0000 C   0  0  0  0  0  0  0  0  0  0  0  0
    0.9981    0.9894    0.0000 C   0  0  0  0  0  0  0  0  0  0  0  0
   -0.3364    1.6743    0.0000 C   0  0  0  0  0  0  0  0  0  0  0  0
   -1.5968    0.8610    0.0000 C   0  0  0  0  0  0  0  0  0  0  0  0
   -1.5227   -0.6371    0.0000 C   0  0  0  0  0  0  0  0  0  0  0  0
   -2.9215   -0.0955    0.0000 C   0  0  0  0  0  0  0  0  0  0  0  0
  2  1  1  6
  2  3  1  0
  3  4  1  0
  4  5  1  0
  5  6  2  0
  5  7  1  0
  2  8  1  0
  8  9  1  6
  9 10  1  0
 11 10  1  6
 11 12  1  0
 12 13  1  1
 13 14  1  6
 14 15  1  0
 15 16  1  0
 16 17  1  0
 13 18  1  0
 19 18  1  1
 19 20  1  0
 20 21  1  0
 21 22  1  1
 21 23  1  0
 23 24  1  0
 24 25  1  0
 25 26  1  6
 25 27  1  0
 27 28  1  6
 28 29  1  0
 29 30  1  0
 30 31  1  6
 30  8  1  0
 30 11  1  0
 27 12  1  0
 25 19  1  0
M  END
>  <MS_ID>  (2297) 
MS2380

>  <SMILES>  (2297) 
C[C@H](CCC(=O)O)[C@H]1CC[C@H]2[C@@H]3[C@@H](OCCCl)C[C@@H]4C[C@H](O)CC[C@]4(C)[C@H]3CC[C@]12C

>  <Structure_dimension>  (2297) 
2D

$$$$
MS2381
     RDKit          2D

 39 43  0  0  0  0  0  0  0  0999 V2000
   -1.2167   -4.3902    0.0000 C   0  0  0  0  0  0  0  0  0  0  0  0
   -0.5181   -3.0628    0.0000 C   0  0  0  0  0  0  0  0  0  0  0  0
   -1.3183   -1.7941    0.0000 C   0  0  0  0  0  0  0  0  0  0  0  0
   -2.8172   -1.8528    0.0000 C   0  0  0  0  0  0  0  0  0  0  0  0
   -3.6174   -0.5841    0.0000 C   0  0  0  0  0  0  0  0  0  0  0  0
   -2.9189    0.7432    0.0000 O   0  0  0  0  0  0  0  0  0  0  0  0
   -5.1163   -0.6428    0.0000 C   0  0  0  0  0  0  0  0  0  0  0  0
   -5.9166    0.6259    0.0000 C   0  0  0  0  0  0  0  0  0  0  0  0
   -5.2180    1.9532    0.0000 C   0  0  0  0  0  0  0  0  0  0  0  0
   -6.0182    3.2219    0.0000 C   0  0  0  0  0  0  0  0  0  0  0  0
   -7.5171    3.1633    0.0000 C   0  0  0  0  0  0  0  0  0  0  0  0
   -8.3173    4.4319    0.0000 O   0  0  0  0  0  0  0  0  0  0  0  0
   -8.2157    1.8359    0.0000 C   0  0  0  0  0  0  0  0  0  0  0  0
   -7.4154    0.5672    0.0000 C   0  0  0  0  0  0  0  0  0  0  0  0
   -8.1140   -0.7602    0.0000 C   0  0  0  0  0  0  0  0  0  0  0  0
   -7.3137   -2.0289    0.0000 O   0  0  0  0  0  0  0  0  0  0  0  0
   -9.6129   -0.8189    0.0000 O   0  0  0  0  0  0  0  0  0  0  0  0
    0.9808   -3.0041    0.0000 C   0  0  0  0  0  0  0  0  0  0  0  0
    1.9093   -4.1822    0.0000 C   0  0  0  0  0  0  0  0  0  0  0  0
    3.3166   -3.6633    0.0000 C   0  0  0  0  0  0  0  0  0  0  0  0
    3.2579   -2.1644    0.0000 C   0  0  0  0  0  0  0  0  0  0  0  0
    4.3325   -1.1179    0.0000 C   0  0  0  0  0  0  0  0  0  0  0  0
    5.7761   -1.5252    0.0000 C   0  0  0  0  0  0  0  0  0  0  0  0
    6.1452   -2.9791    0.0000 O   0  0  0  0  0  0  0  0  0  0  0  0
    6.8507   -0.4787    0.0000 C   0  0  0  0  0  0  0  0  0  0  0  0
    6.4817    0.9752    0.0000 C   0  0  0  0  0  0  0  0  0  0  0  0
    7.5563    2.0218    0.0000 C   0  0  0  0  0  0  0  0  0  0  0  0
    7.1872    3.4757    0.0000 C   0  0  0  0  0  0  0  0  0  0  0  0
    8.2618    4.5222    0.0000 O   0  0  0  0  0  0  0  0  0  0  0  0
    5.7436    3.8830    0.0000 C   0  0  0  0  0  0  0  0  0  0  0  0
    4.6690    2.8365    0.0000 C   0  0  0  0  0  0  0  0  0  0  0  0
    5.0381    1.3826    0.0000 C   0  0  0  0  0  0  0  0  0  0  0  0
    3.5944    1.7899    0.0000 C   0  0  0  0  0  0  0  0  0  0  0  0
    3.9635    0.3360    0.0000 C   0  0  0  0  0  0  0  0  0  0  0  0
    2.5198    0.7434    0.0000 C   0  0  0  0  0  0  0  0  0  0  0  0
    1.4452   -0.3032    0.0000 C   0  0  0  0  0  0  0  0  0  0  0  0
    0.0016    0.1042    0.0000 O   0  0  0  0  0  0  0  0  0  0  0  0
    1.8143   -1.7571    0.0000 C   0  0  0  0  0  0  0  0  0  0  0  0
    0.3360   -1.5028    0.0000 C   0  0  0  0  0  0  0  0  0  0  0  0
  2  1  1  6
  2  3  1  0
  3  4  1  0
  4  5  1  0
  5  6  2  0
  5  7  1  0
  7  8  1  0
  8  9  2  0
  9 10  1  0
 10 11  2  0
 11 12  1  0
 11 13  1  0
 13 14  2  0
 14 15  1  0
 15 16  2  0
 15 17  1  0
  2 18  1  0
 18 19  1  6
 19 20  1  0
 21 20  1  6
 21 22  1  0
 22 23  1  1
 23 24  1  1
 23 25  1  0
 26 25  1  1
 26 27  1  0
 27 28  1  0
 28 29  1  1
 28 30  1  0
 30 31  1  0
 31 32  1  0
 32 33  1  6
 32 34  1  0
 34 35  1  6
 35 36  1  0
 36 37  1  1
 36 38  1  0
 38 39  1  6
 14  8  1  0
 38 18  1  0
 38 21  1  0
 34 22  1  0
 32 26  1  0
M  END
>  <MS_ID>  (2298) 
MS2381

>  <SMILES>  (2298) 
C[C@H](CCC(=O)Cc1ccc(O)cc1C(=O)O)[C@H]1CC[C@H]2[C@@H]3[C@H](O)C[C@@H]4C[C@H](O)CC[C@]4(C)[C@H]3C[C@H](O)[C@]12C

>  <Structure_dimension>  (2298) 
2D

$$$$
MS2382
     RDKit          2D

 32 36  0  0  0  0  0  0  0  0999 V2000
   -6.4932   -1.4350    0.0000 C   0  0  0  0  0  0  0  0  0  0  0  0
   -5.1891   -0.6940    0.0000 C   0  0  0  0  0  0  0  0  0  0  0  0
   -5.1787    0.8060    0.0000 C   0  0  0  0  0  0  0  0  0  0  0  0
   -6.4726    1.5649    0.0000 C   0  0  0  0  0  0  0  0  0  0  0  0
   -6.4622    3.0649    0.0000 C   0  0  0  0  0  0  0  0  0  0  0  0
   -5.1580    3.8059    0.0000 O   0  0  0  0  0  0  0  0  0  0  0  0
   -7.7561    3.8238    0.0000 O   0  0  0  0  0  0  0  0  0  0  0  0
   -3.8952   -1.4529    0.0000 C   0  0  0  0  0  0  0  0  0  0  0  0
   -3.7487   -2.9458    0.0000 C   0  0  0  0  0  0  0  0  0  0  0  0
   -2.2837   -3.2677    0.0000 C   0  0  0  0  0  0  0  0  0  0  0  0
   -1.5248   -1.9739    0.0000 C   0  0  0  0  0  0  0  0  0  0  0  0
   -0.0554   -1.6722    0.0000 C   0  0  0  0  0  0  0  0  0  0  0  0
    0.9406   -2.7938    0.0000 C   0  0  0  0  0  0  0  0  0  0  0  0
    0.4672   -4.2171    0.0000 O   0  0  0  0  0  0  0  0  0  0  0  0
    2.4099   -2.4920    0.0000 C   0  0  0  0  0  0  0  0  0  0  0  0
    2.8833   -1.0687    0.0000 C   0  0  0  0  0  0  0  0  0  0  0  0
    4.3526   -0.7669    0.0000 C   0  0  0  0  0  0  0  0  0  0  0  0
    4.8259    0.6564    0.0000 C   0  0  0  0  0  0  0  0  0  0  0  0
    6.2953    0.9582    0.0000 C   0  0  0  0  0  0  0  0  0  0  0  0
    6.9148    2.3243    0.0000 C   0  0  0  0  0  0  0  0  0  0  0  0
    8.4055    2.1572    0.0000 C   0  0  0  0  0  0  0  0  0  0  0  0
    8.7072    0.6878    0.0000 O   0  0  0  0  0  0  0  0  0  0  0  0
    7.4031   -0.0532    0.0000 C   0  0  0  0  0  0  0  0  0  0  0  0
    3.8300    1.7780    0.0000 C   0  0  0  0  0  0  0  0  0  0  0  0
    2.3606    1.4763    0.0000 C   0  0  0  0  0  0  0  0  0  0  0  0
    1.8873    0.0529    0.0000 C   0  0  0  0  0  0  0  0  0  0  0  0
    0.8913    1.1746    0.0000 C   0  0  0  0  0  0  0  0  0  0  0  0
    0.4179   -0.2488    0.0000 C   0  0  0  0  0  0  0  0  0  0  0  0
   -0.5781    0.8728    0.0000 C   0  0  0  0  0  0  0  0  0  0  0  0
   -2.0474    0.5711    0.0000 C   0  0  0  0  0  0  0  0  0  0  0  0
   -2.5207   -0.8523    0.0000 C   0  0  0  0  0  0  0  0  0  0  0  0
   -3.6285    0.1591    0.0000 C   0  0  0  0  0  0  0  0  0  0  0  0
  2  1  1  6
  2  3  1  0
  3  4  1  0
  4  5  1  0
  5  6  2  0
  5  7  1  0
  2  8  1  0
  8  9  1  6
  9 10  1  0
 11 10  1  6
 11 12  1  0
 12 13  1  1
 13 14  1  6
 13 15  1  0
 16 15  1  1
 16 17  1  0
 17 18  1  0
 18 19  1  1
 19 20  1  0
 20 21  2  0
 21 22  1  0
 22 23  1  0
 18 24  1  0
 24 25  1  0
 25 26  1  0
 26 27  1  6
 26 28  1  0
 28 29  1  6
 29 30  1  0
 30 31  1  0
 31 32  1  6
 31  8  1  0
 31 11  1  0
 28 12  1  0
 26 16  1  0
 23 19  2  0
M  END
>  <MS_ID>  (2299) 
MS2382

>  <SMILES>  (2299) 
C[C@H](CCC(=O)O)[C@H]1CC[C@H]2[C@@H]3[C@@H](O)C[C@@H]4C[C@H](c5ccoc5)CC[C@]4(C)[C@H]3CC[C@]12C

>  <Structure_dimension>  (2299) 
2D

$$$$
MS2383
     RDKit          2D

 37 42  0  0  0  0  0  0  0  0999 V2000
   -2.0174   -3.6434    0.0000 C   0  0  0  0  0  0  0  0  0  0  0  0
   -1.1342   -2.4311    0.0000 C   0  0  0  0  0  0  0  0  0  0  0  0
   -1.7424   -1.0600    0.0000 C   0  0  0  0  0  0  0  0  0  0  0  0
   -3.2340   -0.9012    0.0000 C   0  0  0  0  0  0  0  0  0  0  0  0
   -3.8423    0.4699    0.0000 C   0  0  0  0  0  0  0  0  0  0  0  0
   -2.9590    1.6823    0.0000 O   0  0  0  0  0  0  0  0  0  0  0  0
   -5.3339    0.6287    0.0000 N   0  0  0  0  0  0  0  0  0  0  0  0
   -6.0821    1.9287    0.0000 C   0  0  0  0  0  0  0  0  0  0  0  0
   -7.5498    1.6188    0.0000 C   0  0  0  0  0  0  0  0  0  0  0  0
   -8.7621    2.5021    0.0000 C   0  0  0  0  0  0  0  0  0  0  0  0
  -10.1333    1.8938    0.0000 C   0  0  0  0  0  0  0  0  0  0  0  0
  -10.2920    0.4023    0.0000 C   0  0  0  0  0  0  0  0  0  0  0  0
   -9.0797   -0.4810    0.0000 C   0  0  0  0  0  0  0  0  0  0  0  0
   -7.7085    0.1273    0.0000 C   0  0  0  0  0  0  0  0  0  0  0  0
   -6.3390   -0.4847    0.0000 C   0  0  0  0  0  0  0  0  0  0  0  0
    0.3574   -2.5899    0.0000 C   0  0  0  0  0  0  0  0  0  0  0  0
    1.1057   -3.8899    0.0000 C   0  0  0  0  0  0  0  0  0  0  0  0
    2.5733   -3.5800    0.0000 C   0  0  0  0  0  0  0  0  0  0  0  0
    2.7321   -2.0884    0.0000 C   0  0  0  0  0  0  0  0  0  0  0  0
    3.9468   -1.2084    0.0000 C   0  0  0  0  0  0  0  0  0  0  0  0
    5.3163   -1.8203    0.0000 C   0  0  0  0  0  0  0  0  0  0  0  0
    5.4711   -3.3123    0.0000 O   0  0  0  0  0  0  0  0  0  0  0  0
    6.5310   -0.9402    0.0000 C   0  0  0  0  0  0  0  0  0  0  0  0
    6.3762    0.5518    0.0000 C   0  0  0  0  0  0  0  0  0  0  0  0
    7.5909    1.4318    0.0000 C   0  0  0  0  0  0  0  0  0  0  0  0
    7.4361    2.9238    0.0000 C   0  0  0  0  0  0  0  0  0  0  0  0
    8.6508    3.8039    0.0000 O   0  0  0  0  0  0  0  0  0  0  0  0
    6.0666    3.5358    0.0000 C   0  0  0  0  0  0  0  0  0  0  0  0
    4.8519    2.6557    0.0000 C   0  0  0  0  0  0  0  0  0  0  0  0
    5.0067    1.1637    0.0000 C   0  0  0  0  0  0  0  0  0  0  0  0
    3.6372    1.7756    0.0000 C   0  0  0  0  0  0  0  0  0  0  0  0
    3.7920    0.2836    0.0000 C   0  0  0  0  0  0  0  0  0  0  0  0
    2.4225    0.8956    0.0000 C   0  0  0  0  0  0  0  0  0  0  0  0
    1.2078    0.0155    0.0000 C   0  0  0  0  0  0  0  0  0  0  0  0
   -0.1617    0.6274    0.0000 O   0  0  0  0  0  0  0  0  0  0  0  0
    1.3626   -1.4765    0.0000 C   0  0  0  0  0  0  0  0  0  0  0  0
   -0.0634   -1.0111    0.0000 C   0  0  0  0  0  0  0  0  0  0  0  0
  2  1  1  6
  2  3  1  0
  3  4  1  0
  4  5  1  0
  5  6  2  0
  5  7  1  0
  7  8  1  0
  8  9  1  0
  9 10  2  0
 10 11  1  0
 11 12  2  0
 12 13  1  0
 13 14  2  0
 14 15  1  0
  2 16  1  0
 16 17  1  6
 17 18  1  0
 19 18  1  6
 19 20  1  0
 20 21  1  1
 21 22  1  1
 21 23  1  0
 24 23  1  1
 24 25  1  0
 25 26  1  0
 26 27  1  1
 26 28  1  0
 28 29  1  0
 29 30  1  0
 30 31  1  6
 30 32  1  0
 32 33  1  6
 33 34  1  0
 34 35  1  1
 34 36  1  0
 36 37  1  6
 15  7  1  0
 36 16  1  0
 14  9  1  0
 36 19  1  0
 32 20  1  0
 30 24  1  0
M  END
>  <MS_ID>  (2300) 
MS2383

>  <SMILES>  (2300) 
C[C@H](CCC(=O)N1Cc2ccccc2C1)[C@H]1CC[C@H]2[C@@H]3[C@H](O)C[C@@H]4C[C@H](O)CC[C@]4(C)[C@H]3C[C@H](O)[C@]12C

>  <Structure_dimension>  (2300) 
2D

$$$$
MS2384
     RDKit          2D

 32 35  0  0  0  0  0  0  0  0999 V2000
   -3.6292   -2.8950    0.0000 C   0  0  0  0  0  0  0  0  0  0  0  0
   -2.5867   -1.8164    0.0000 C   0  0  0  0  0  0  0  0  0  0  0  0
   -2.9995   -0.3744    0.0000 C   0  0  0  0  0  0  0  0  0  0  0  0
   -4.4548   -0.0108    0.0000 C   0  0  0  0  0  0  0  0  0  0  0  0
   -4.8676    1.4312    0.0000 C   0  0  0  0  0  0  0  0  0  0  0  0
   -3.8252    2.5098    0.0000 O   0  0  0  0  0  0  0  0  0  0  0  0
   -6.3229    1.7947    0.0000 N   0  0  0  0  0  0  0  0  0  0  0  0
   -6.7358    3.2368    0.0000 C   0  0  0  0  0  0  0  0  0  0  0  0
   -7.3654    0.7162    0.0000 C   0  0  0  0  0  0  0  0  0  0  0  0
   -8.8207    1.0797    0.0000 C   0  0  0  0  0  0  0  0  0  0  0  0
   -9.8631    0.0012    0.0000 O   0  0  0  0  0  0  0  0  0  0  0  0
   -1.1314   -2.1800    0.0000 C   0  0  0  0  0  0  0  0  0  0  0  0
   -0.5701   -3.5710    0.0000 C   0  0  0  0  0  0  0  0  0  0  0  0
    0.9263   -3.4670    0.0000 C   0  0  0  0  0  0  0  0  0  0  0  0
    1.2898   -2.0117    0.0000 C   0  0  0  0  0  0  0  0  0  0  0  0
    2.6145   -1.3081    0.0000 C   0  0  0  0  0  0  0  0  0  0  0  0
    3.8862   -2.1035    0.0000 C   0  0  0  0  0  0  0  0  0  0  0  0
    3.8332   -3.6026    0.0000 O   0  0  0  0  0  0  0  0  0  0  0  0
    5.2110   -1.3999    0.0000 C   0  0  0  0  0  0  0  0  0  0  0  0
    5.2640    0.0992    0.0000 C   0  0  0  0  0  0  0  0  0  0  0  0
    6.5887    0.8028    0.0000 C   0  0  0  0  0  0  0  0  0  0  0  0
    6.6417    2.3019    0.0000 C   0  0  0  0  0  0  0  0  0  0  0  0
    7.9664    3.0055    0.0000 O   0  0  0  0  0  0  0  0  0  0  0  0
    5.3700    3.0973    0.0000 C   0  0  0  0  0  0  0  0  0  0  0  0
    4.0453    2.3937    0.0000 C   0  0  0  0  0  0  0  0  0  0  0  0
    3.9923    0.8946    0.0000 C   0  0  0  0  0  0  0  0  0  0  0  0
    2.7205    1.6900    0.0000 C   0  0  0  0  0  0  0  0  0  0  0  0
    2.6675    0.1910    0.0000 C   0  0  0  0  0  0  0  0  0  0  0  0
    1.3958    0.9864    0.0000 C   0  0  0  0  0  0  0  0  0  0  0  0
    0.0711    0.2828    0.0000 C   0  0  0  0  0  0  0  0  0  0  0  0
    0.0181   -1.2163    0.0000 C   0  0  0  0  0  0  0  0  0  0  0  0
   -1.3298   -0.5581    0.0000 C   0  0  0  0  0  0  0  0  0  0  0  0
  2  1  1  6
  2  3  1  0
  3  4  1  0
  4  5  1  0
  5  6  2  0
  5  7  1  0
  7  8  1  0
  7  9  1  0
  9 10  1  0
 10 11  1  0
  2 12  1  0
 12 13  1  6
 13 14  1  0
 15 14  1  6
 15 16  1  0
 16 17  1  1
 17 18  1  1
 17 19  1  0
 20 19  1  1
 20 21  1  0
 21 22  1  0
 22 23  1  1
 22 24  1  0
 24 25  1  0
 25 26  1  0
 26 27  1  6
 26 28  1  0
 28 29  1  6
 29 30  1  0
 30 31  1  0
 31 32  1  6
 31 12  1  0
 31 15  1  0
 28 16  1  0
 26 20  1  0
M  END
>  <MS_ID>  (2301) 
MS2384

>  <SMILES>  (2301) 
C[C@H](CCC(=O)N(C)CCO)[C@H]1CC[C@H]2[C@@H]3[C@H](O)C[C@@H]4C[C@H](O)CC[C@]4(C)[C@H]3CC[C@]12C

>  <Structure_dimension>  (2301) 
2D

$$$$
MS2385
     RDKit          2D

 30 33  0  0  0  0  0  0  0  0999 V2000
   -4.5685   -2.6908    0.0000 C   0  0  0  0  0  0  0  0  0  0  0  0
   -3.4838   -1.6548    0.0000 C   0  0  0  0  0  0  0  0  0  0  0  0
   -3.8388   -0.1974    0.0000 C   0  0  0  0  0  0  0  0  0  0  0  0
   -5.2784    0.2240    0.0000 C   0  0  0  0  0  0  0  0  0  0  0  0
   -5.6333    1.6814    0.0000 C   0  0  0  0  0  0  0  0  0  0  0  0
   -4.5486    2.7174    0.0000 O   0  0  0  0  0  0  0  0  0  0  0  0
   -7.0729    2.1027    0.0000 C   0  0  0  0  0  0  0  0  0  0  0  0
   -7.4279    3.5601    0.0000 S   0  0  0  0  0  0  0  0  0  0  0  0
   -2.0442   -2.0761    0.0000 C   0  0  0  0  0  0  0  0  0  0  0  0
   -1.5389   -3.4884    0.0000 C   0  0  0  0  0  0  0  0  0  0  0  0
   -0.0395   -3.4442    0.0000 C   0  0  0  0  0  0  0  0  0  0  0  0
    0.3818   -2.0046    0.0000 C   0  0  0  0  0  0  0  0  0  0  0  0
    1.7336   -1.3544    0.0000 C   0  0  0  0  0  0  0  0  0  0  0  0
    2.9725   -2.1999    0.0000 C   0  0  0  0  0  0  0  0  0  0  0  0
    2.8597   -3.6957    0.0000 O   0  0  0  0  0  0  0  0  0  0  0  0
    4.3243   -1.5497    0.0000 C   0  0  0  0  0  0  0  0  0  0  0  0
    4.4371   -0.0540    0.0000 C   0  0  0  0  0  0  0  0  0  0  0  0
    5.7888    0.5962    0.0000 C   0  0  0  0  0  0  0  0  0  0  0  0
    5.9016    2.0920    0.0000 C   0  0  0  0  0  0  0  0  0  0  0  0
    7.2534    2.7422    0.0000 O   0  0  0  0  0  0  0  0  0  0  0  0
    4.6627    2.9375    0.0000 C   0  0  0  0  0  0  0  0  0  0  0  0
    3.3109    2.2873    0.0000 C   0  0  0  0  0  0  0  0  0  0  0  0
    3.1981    0.7916    0.0000 C   0  0  0  0  0  0  0  0  0  0  0  0
    1.9591    1.6371    0.0000 C   0  0  0  0  0  0  0  0  0  0  0  0
    1.8464    0.1414    0.0000 C   0  0  0  0  0  0  0  0  0  0  0  0
    0.6074    0.9869    0.0000 C   0  0  0  0  0  0  0  0  0  0  0  0
   -0.7444    0.3367    0.0000 C   0  0  0  0  0  0  0  0  0  0  0  0
   -1.9833    1.1823    0.0000 O   0  0  0  0  0  0  0  0  0  0  0  0
   -0.8572   -1.1590    0.0000 C   0  0  0  0  0  0  0  0  0  0  0  0
   -2.1777   -0.4476    0.0000 C   0  0  0  0  0  0  0  0  0  0  0  0
  2  1  1  6
  2  3  1  0
  3  4  1  0
  4  5  1  0
  5  6  2  0
  5  7  1  0
  7  8  1  0
  2  9  1  0
  9 10  1  6
 10 11  1  0
 12 11  1  6
 12 13  1  0
 13 14  1  1
 14 15  1  6
 14 16  1  0
 17 16  1  1
 17 18  1  0
 18 19  1  0
 19 20  1  1
 19 21  1  0
 21 22  1  0
 22 23  1  0
 23 24  1  6
 23 25  1  0
 25 26  1  6
 26 27  1  0
 27 28  2  0
 27 29  1  0
 29 30  1  6
 29  9  1  0
 29 12  1  0
 25 13  1  0
 23 17  1  0
M  END
>  <MS_ID>  (2302) 
MS2385

>  <SMILES>  (2302) 
C[C@H](CCC(=O)CS)[C@H]1CC[C@H]2[C@@H]3[C@@H](O)C[C@@H]4C[C@H](O)CC[C@]4(C)[C@H]3CC(=O)[C@]12C

>  <Structure_dimension>  (2302) 
2D

$$$$
MS2386
     RDKit          2D

 31 34  0  0  0  0  0  0  0  0999 V2000
   -9.1388    1.0800    0.0000 C   0  0  0  0  0  0  0  0  0  0  0  0
   -7.6835    0.7164    0.0000 C   0  0  0  0  0  0  0  0  0  0  0  0
   -6.6411    1.7949    0.0000 C   0  0  0  0  0  0  0  0  0  0  0  0
   -7.0538    3.2370    0.0000 C   0  0  0  0  0  0  0  0  0  0  0  0
   -5.1858    1.4314    0.0000 C   0  0  0  0  0  0  0  0  0  0  0  0
   -4.1433    2.5099    0.0000 O   0  0  0  0  0  0  0  0  0  0  0  0
   -4.7730   -0.0107    0.0000 C   0  0  0  0  0  0  0  0  0  0  0  0
   -3.3177   -0.3743    0.0000 C   0  0  0  0  0  0  0  0  0  0  0  0
   -2.9049   -1.8163    0.0000 C   0  0  0  0  0  0  0  0  0  0  0  0
   -3.9474   -2.8949    0.0000 C   0  0  0  0  0  0  0  0  0  0  0  0
   -1.4496   -2.1799    0.0000 C   0  0  0  0  0  0  0  0  0  0  0  0
   -0.8884   -3.5709    0.0000 C   0  0  0  0  0  0  0  0  0  0  0  0
    0.6080   -3.4670    0.0000 C   0  0  0  0  0  0  0  0  0  0  0  0
    0.9716   -2.0117    0.0000 C   0  0  0  0  0  0  0  0  0  0  0  0
    2.2963   -1.3081    0.0000 C   0  0  0  0  0  0  0  0  0  0  0  0
    3.5680   -2.1036    0.0000 C   0  0  0  0  0  0  0  0  0  0  0  0
    3.5150   -3.6026    0.0000 O   0  0  0  0  0  0  0  0  0  0  0  0
    4.8928   -1.4000    0.0000 C   0  0  0  0  0  0  0  0  0  0  0  0
    4.9458    0.0991    0.0000 C   0  0  0  0  0  0  0  0  0  0  0  0
    6.2706    0.8027    0.0000 C   0  0  0  0  0  0  0  0  0  0  0  0
    6.3236    2.3018    0.0000 C   0  0  0  0  0  0  0  0  0  0  0  0
    7.6483    3.0054    0.0000 O   0  0  0  0  0  0  0  0  0  0  0  0
    5.0519    3.0972    0.0000 C   0  0  0  0  0  0  0  0  0  0  0  0
    3.7271    2.3936    0.0000 C   0  0  0  0  0  0  0  0  0  0  0  0
    3.6741    0.8946    0.0000 C   0  0  0  0  0  0  0  0  0  0  0  0
    2.4024    1.6900    0.0000 C   0  0  0  0  0  0  0  0  0  0  0  0
    2.3494    0.1910    0.0000 C   0  0  0  0  0  0  0  0  0  0  0  0
    1.0777    0.9864    0.0000 C   0  0  0  0  0  0  0  0  0  0  0  0
   -0.2471    0.2828    0.0000 C   0  0  0  0  0  0  0  0  0  0  0  0
   -0.3001   -1.2162    0.0000 C   0  0  0  0  0  0  0  0  0  0  0  0
   -1.6480   -0.5581    0.0000 C   0  0  0  0  0  0  0  0  0  0  0  0
  1  2  1  0
  2  3  1  0
  3  4  1  6
  3  5  1  0
  5  6  2  0
  5  7  1  0
  7  8  1  0
  8  9  1  0
  9 10  1  6
  9 11  1  0
 11 12  1  6
 12 13  1  0
 14 13  1  6
 14 15  1  0
 15 16  1  1
 16 17  1  1
 16 18  1  0
 19 18  1  1
 19 20  1  0
 20 21  1  0
 21 22  1  1
 21 23  1  0
 23 24  1  0
 24 25  1  0
 25 26  1  6
 25 27  1  0
 27 28  1  6
 28 29  1  0
 29 30  1  0
 30 31  1  6
 30 11  1  0
 30 14  1  0
 27 15  1  0
 25 19  1  0
M  END
>  <MS_ID>  (2303) 
MS2386

>  <SMILES>  (2303) 
CC[C@H](C)C(=O)CC[C@@H](C)[C@H]1CC[C@H]2[C@@H]3[C@H](O)C[C@@H]4C[C@H](O)CC[C@]4(C)[C@H]3CC[C@]12C

>  <Structure_dimension>  (2303) 
2D

$$$$
MS2387
     RDKit          2D

 30 33  0  0  0  0  0  0  0  0999 V2000
   -5.3211   -2.0238    0.0000 C   0  0  0  0  0  0  0  0  0  0  0  0
   -4.1189   -1.1267    0.0000 C   0  0  0  0  0  0  0  0  0  0  0  0
   -4.2947    0.3629    0.0000 C   0  0  0  0  0  0  0  0  0  0  0  0
   -5.6727    0.9555    0.0000 C   0  0  0  0  0  0  0  0  0  0  0  0
   -5.8485    2.4452    0.0000 C   0  0  0  0  0  0  0  0  0  0  0  0
   -4.6463    3.3422    0.0000 O   0  0  0  0  0  0  0  0  0  0  0  0
   -7.2265    3.0377    0.0000 O   0  0  0  0  0  0  0  0  0  0  0  0
   -2.7409   -1.7193    0.0000 C   0  0  0  0  0  0  0  0  0  0  0  0
   -2.4104   -3.1825    0.0000 C   0  0  0  0  0  0  0  0  0  0  0  0
   -0.9167   -3.3202    0.0000 C   0  0  0  0  0  0  0  0  0  0  0  0
   -0.3241   -1.9422    0.0000 C   0  0  0  0  0  0  0  0  0  0  0  0
    1.0964   -1.4605    0.0000 C   0  0  0  0  0  0  0  0  0  0  0  0
    2.2239   -2.4499    0.0000 C   0  0  0  0  0  0  0  0  0  0  0  0
    1.9307   -3.9210    0.0000 O   0  0  0  0  0  0  0  0  0  0  0  0
    3.6444   -1.9683    0.0000 C   0  0  0  0  0  0  0  0  0  0  0  0
    3.9375   -0.4972    0.0000 C   0  0  0  0  0  0  0  0  0  0  0  0
    5.3581   -0.0155    0.0000 C   0  0  0  0  0  0  0  0  0  0  0  0
    5.6512    1.4556    0.0000 C   0  0  0  0  0  0  0  0  0  0  0  0
    6.4298    2.7377    0.0000 C   0  0  0  0  0  0  0  0  0  0  0  0
    7.0491    0.9114    0.0000 O   0  0  0  0  0  0  0  0  0  0  0  0
    4.5238    2.4450    0.0000 C   0  0  0  0  0  0  0  0  0  0  0  0
    3.1033    1.9633    0.0000 C   0  0  0  0  0  0  0  0  0  0  0  0
    2.8101    0.4922    0.0000 C   0  0  0  0  0  0  0  0  0  0  0  0
    1.6827    1.4816    0.0000 C   0  0  0  0  0  0  0  0  0  0  0  0
    1.3896    0.0105    0.0000 C   0  0  0  0  0  0  0  0  0  0  0  0
    0.2621    0.9999    0.0000 C   0  0  0  0  0  0  0  0  0  0  0  0
   -1.1584    0.5183    0.0000 C   0  0  0  0  0  0  0  0  0  0  0  0
   -2.2858    1.5077    0.0000 O   0  0  0  0  0  0  0  0  0  0  0  0
   -1.4515   -0.9528    0.0000 C   0  0  0  0  0  0  0  0  0  0  0  0
   -2.6762   -0.0867    0.0000 C   0  0  0  0  0  0  0  0  0  0  0  0
  2  1  1  6
  2  3  1  0
  3  4  1  0
  4  5  1  0
  5  6  2  0
  5  7  1  0
  2  8  1  0
  8  9  1  6
  9 10  1  0
 11 10  1  6
 11 12  1  0
 12 13  1  1
 13 14  1  1
 13 15  1  0
 16 15  1  1
 16 17  1  0
 17 18  1  0
 18 19  1  1
 18 20  1  0
 18 21  1  0
 21 22  1  0
 22 23  1  0
 23 24  1  6
 23 25  1  0
 25 26  1  6
 26 27  1  0
 27 28  2  0
 27 29  1  0
 29 30  1  6
 29  8  1  0
 29 11  1  0
 25 12  1  0
 23 16  1  0
M  END
>  <MS_ID>  (2304) 
MS2387

>  <SMILES>  (2304) 
C[C@H](CCC(=O)O)[C@H]1CC[C@H]2[C@@H]3[C@H](O)C[C@@H]4C[C@@](C)(O)CC[C@]4(C)[C@H]3CC(=O)[C@]12C

>  <Structure_dimension>  (2304) 
2D

$$$$
MS2388
     RDKit          2D

 39 44  0  0  0  0  0  0  0  0999 V2000
   -1.2848   -4.3690    0.0000 C   0  0  0  0  0  0  0  0  0  0  0  0
   -0.5951   -3.0370    0.0000 C   0  0  0  0  0  0  0  0  0  0  0  0
   -1.4038   -1.7737    0.0000 C   0  0  0  0  0  0  0  0  0  0  0  0
   -2.9023   -1.8424    0.0000 C   0  0  0  0  0  0  0  0  0  0  0  0
   -3.7110   -0.5791    0.0000 C   0  0  0  0  0  0  0  0  0  0  0  0
   -3.0213    0.7529    0.0000 O   0  0  0  0  0  0  0  0  0  0  0  0
   -5.2094   -0.6478    0.0000 N   0  0  0  0  0  0  0  0  0  0  0  0
   -6.0181    0.6155    0.0000 C   0  0  0  0  0  0  0  0  0  0  0  0
   -5.3285    1.9475    0.0000 C   0  0  0  0  0  0  0  0  0  0  0  0
   -6.1372    3.2108    0.0000 C   0  0  0  0  0  0  0  0  0  0  0  0
   -7.6356    3.1421    0.0000 N   0  0  0  0  0  0  0  0  0  0  0  0
   -8.3253    1.8101    0.0000 C   0  0  0  0  0  0  0  0  0  0  0  0
   -9.8237    1.7413    0.0000 C   0  0  0  0  0  0  0  0  0  0  0  0
  -10.5134    0.4093    0.0000 C   0  0  0  0  0  0  0  0  0  0  0  0
   -9.7047   -0.8540    0.0000 C   0  0  0  0  0  0  0  0  0  0  0  0
   -8.2063   -0.7853    0.0000 C   0  0  0  0  0  0  0  0  0  0  0  0
   -7.5166    0.5468    0.0000 C   0  0  0  0  0  0  0  0  0  0  0  0
    0.9033   -2.9683    0.0000 C   0  0  0  0  0  0  0  0  0  0  0  0
    1.8397   -4.1401    0.0000 C   0  0  0  0  0  0  0  0  0  0  0  0
    3.2435   -3.6117    0.0000 C   0  0  0  0  0  0  0  0  0  0  0  0
    3.1748   -2.1133    0.0000 C   0  0  0  0  0  0  0  0  0  0  0  0
    4.2424   -1.0596    0.0000 C   0  0  0  0  0  0  0  0  0  0  0  0
    5.6887   -1.4572    0.0000 C   0  0  0  0  0  0  0  0  0  0  0  0
    6.0674   -2.9086    0.0000 O   0  0  0  0  0  0  0  0  0  0  0  0
    6.7562   -0.4035    0.0000 C   0  0  0  0  0  0  0  0  0  0  0  0
    8.2026   -0.8012    0.0000 O   0  0  0  0  0  0  0  0  0  0  0  0
    6.3775    1.0479    0.0000 C   0  0  0  0  0  0  0  0  0  0  0  0
    7.4450    2.1016    0.0000 C   0  0  0  0  0  0  0  0  0  0  0  0
    7.0663    3.5530    0.0000 C   0  0  0  0  0  0  0  0  0  0  0  0
    8.1338    4.6067    0.0000 O   0  0  0  0  0  0  0  0  0  0  0  0
    5.6199    3.9506    0.0000 C   0  0  0  0  0  0  0  0  0  0  0  0
    4.5524    2.8969    0.0000 C   0  0  0  0  0  0  0  0  0  0  0  0
    4.9311    1.4455    0.0000 C   0  0  0  0  0  0  0  0  0  0  0  0
    3.4848    1.8432    0.0000 C   0  0  0  0  0  0  0  0  0  0  0  0
    3.8636    0.3918    0.0000 C   0  0  0  0  0  0  0  0  0  0  0  0
    2.4173    0.7895    0.0000 C   0  0  0  0  0  0  0  0  0  0  0  0
    1.3497   -0.2642    0.0000 C   0  0  0  0  0  0  0  0  0  0  0  0
    1.7285   -1.7156    0.0000 C   0  0  0  0  0  0  0  0  0  0  0  0
    0.2485   -1.4713    0.0000 C   0  0  0  0  0  0  0  0  0  0  0  0
  2  1  1  6
  2  3  1  0
  3  4  1  0
  4  5  1  0
  5  6  2  0
  5  7  1  0
  7  8  1  0
  8  9  2  0
  9 10  1  0
 10 11  2  0
 11 12  1  0
 12 13  2  0
 13 14  1  0
 14 15  2  0
 15 16  1  0
 16 17  2  0
  2 18  1  0
 18 19  1  6
 19 20  1  0
 21 20  1  6
 21 22  1  0
 22 23  1  1
 23 24  1  1
 23 25  1  0
 25 26  1  1
 25 27  1  0
 27 28  1  1
 28 29  1  0
 29 30  1  1
 29 31  1  0
 31 32  1  0
 32 33  1  0
 33 34  1  6
 33 35  1  0
 35 36  1  6
 36 37  1  0
 37 38  1  0
 38 39  1  6
 17  8  1  0
 38 18  1  0
 17 12  1  0
 38 21  1  0
 35 22  1  0
 33 27  1  0
M  END
>  <MS_ID>  (2305) 
MS2388

>  <SMILES>  (2305) 
C[C@H](CCC(=O)Nc1ccnc2ccccc12)[C@H]1CC[C@H]2[C@@H]3[C@H](O)[C@H](O)[C@@H]4C[C@H](O)CC[C@]4(C)[C@H]3CC[C@]12C

>  <Structure_dimension>  (2305) 
2D

$$$$
MS2389
     RDKit          2D

 32 35  0  0  0  0  0  0  0  0999 V2000
   -3.4546   -3.6059    0.0000 C   0  0  0  0  0  0  0  0  0  0  0  0
   -2.5561   -2.4048    0.0000 C   0  0  0  0  0  0  0  0  0  0  0  0
   -3.1471   -1.0261    0.0000 C   0  0  0  0  0  0  0  0  0  0  0  0
   -4.6366   -0.8486    0.0000 C   0  0  0  0  0  0  0  0  0  0  0  0
   -5.2276    0.5301    0.0000 C   0  0  0  0  0  0  0  0  0  0  0  0
   -4.3291    1.7312    0.0000 O   0  0  0  0  0  0  0  0  0  0  0  0
   -6.7170    0.7076    0.0000 N   0  0  0  0  0  0  0  0  0  0  0  0
   -7.3080    2.0863    0.0000 C   0  0  0  0  0  0  0  0  0  0  0  0
   -8.7975    2.2638    0.0000 C   0  0  0  0  0  0  0  0  0  0  0  0
   -9.3885    3.6424    0.0000 O   0  0  0  0  0  0  0  0  0  0  0  0
   -1.0667   -2.5823    0.0000 C   0  0  0  0  0  0  0  0  0  0  0  0
   -0.3348   -3.8917    0.0000 C   0  0  0  0  0  0  0  0  0  0  0  0
    1.1366   -3.6002    0.0000 C   0  0  0  0  0  0  0  0  0  0  0  0
    1.3141   -2.1108    0.0000 C   0  0  0  0  0  0  0  0  0  0  0  0
    2.5398   -1.2460    0.0000 C   0  0  0  0  0  0  0  0  0  0  0  0
    3.9015   -1.8751    0.0000 C   0  0  0  0  0  0  0  0  0  0  0  0
    4.0375   -3.3690    0.0000 O   0  0  0  0  0  0  0  0  0  0  0  0
    5.1272   -1.0104    0.0000 C   0  0  0  0  0  0  0  0  0  0  0  0
    4.9911    0.4834    0.0000 C   0  0  0  0  0  0  0  0  0  0  0  0
    6.2168    1.3481    0.0000 C   0  0  0  0  0  0  0  0  0  0  0  0
    6.0808    2.8419    0.0000 C   0  0  0  0  0  0  0  0  0  0  0  0
    7.3064    3.7067    0.0000 O   0  0  0  0  0  0  0  0  0  0  0  0
    4.7191    3.4710    0.0000 C   0  0  0  0  0  0  0  0  0  0  0  0
    3.4934    2.6063    0.0000 C   0  0  0  0  0  0  0  0  0  0  0  0
    3.6294    1.1125    0.0000 C   0  0  0  0  0  0  0  0  0  0  0  0
    2.2677    1.7416    0.0000 C   0  0  0  0  0  0  0  0  0  0  0  0
    2.4038    0.2478    0.0000 C   0  0  0  0  0  0  0  0  0  0  0  0
    1.0421    0.8769    0.0000 C   0  0  0  0  0  0  0  0  0  0  0  0
   -0.1836    0.0122    0.0000 C   0  0  0  0  0  0  0  0  0  0  0  0
   -1.5453    0.6413    0.0000 O   0  0  0  0  0  0  0  0  0  0  0  0
   -0.0476   -1.4817    0.0000 C   0  0  0  0  0  0  0  0  0  0  0  0
   -1.4676   -0.9983    0.0000 C   0  0  0  0  0  0  0  0  0  0  0  0
  2  1  1  6
  2  3  1  0
  3  4  1  0
  4  5  1  0
  5  6  2  0
  5  7  1  0
  7  8  1  0
  8  9  1  0
  9 10  1  0
  2 11  1  0
 11 12  1  6
 12 13  1  0
 14 13  1  6
 14 15  1  0
 15 16  1  1
 16 17  1  6
 16 18  1  0
 19 18  1  1
 19 20  1  0
 20 21  1  0
 21 22  2  0
 21 23  1  0
 23 24  1  0
 24 25  1  0
 25 26  1  6
 25 27  1  0
 27 28  1  6
 28 29  1  0
 29 30  1  1
 29 31  1  0
 31 32  1  6
 31 11  1  0
 31 14  1  0
 27 15  1  0
 25 19  1  0
M  END
>  <MS_ID>  (2306) 
MS2389

>  <SMILES>  (2306) 
C[C@H](CCC(=O)NCCO)[C@H]1CC[C@H]2[C@@H]3[C@@H](O)C[C@@H]4CC(=O)CC[C@]4(C)[C@H]3C[C@H](O)[C@]12C

>  <Structure_dimension>  (2306) 
2D

$$$$
MS2390
     RDKit          2D

 38 42  0  0  0  0  0  0  0  0999 V2000
   -0.9183   -4.7104    0.0000 C   0  0  0  0  0  0  0  0  0  0  0  0
   -0.3205   -3.3346    0.0000 C   0  0  0  0  0  0  0  0  0  0  0  0
   -1.2130   -2.1290    0.0000 C   0  0  0  0  0  0  0  0  0  0  0  0
   -2.7033   -2.2991    0.0000 C   0  0  0  0  0  0  0  0  0  0  0  0
   -3.5958   -1.0935    0.0000 C   0  0  0  0  0  0  0  0  0  0  0  0
   -2.9979    0.2822    0.0000 O   0  0  0  0  0  0  0  0  0  0  0  0
   -5.0861   -1.2636    0.0000 O   0  0  0  0  0  0  0  0  0  0  0  0
   -5.9786   -0.0580    0.0000 C   0  0  0  0  0  0  0  0  0  0  0  0
   -5.3807    1.3177    0.0000 O   0  0  0  0  0  0  0  0  0  0  0  0
   -6.2732    2.5233    0.0000 C   0  0  0  0  0  0  0  0  0  0  0  0
   -5.6754    3.8990    0.0000 C   0  0  0  0  0  0  0  0  0  0  0  0
   -7.7635    2.3532    0.0000 C   0  0  0  0  0  0  0  0  0  0  0  0
   -8.6560    3.5588    0.0000 O   0  0  0  0  0  0  0  0  0  0  0  0
   -8.3614    0.9775    0.0000 C   0  0  0  0  0  0  0  0  0  0  0  0
   -9.8517    0.8073    0.0000 O   0  0  0  0  0  0  0  0  0  0  0  0
   -7.4689   -0.2282    0.0000 C   0  0  0  0  0  0  0  0  0  0  0  0
   -8.0667   -1.6039    0.0000 O   0  0  0  0  0  0  0  0  0  0  0  0
    1.1698   -3.1645    0.0000 C   0  0  0  0  0  0  0  0  0  0  0  0
    2.1834   -4.2702    0.0000 C   0  0  0  0  0  0  0  0  0  0  0  0
    3.5483   -3.6479    0.0000 C   0  0  0  0  0  0  0  0  0  0  0  0
    3.3781   -2.1576    0.0000 C   0  0  0  0  0  0  0  0  0  0  0  0
    4.3718   -1.0340    0.0000 C   0  0  0  0  0  0  0  0  0  0  0  0
    5.8418   -1.3327    0.0000 C   0  0  0  0  0  0  0  0  0  0  0  0
    6.3180   -2.7551    0.0000 O   0  0  0  0  0  0  0  0  0  0  0  0
    6.8355   -0.2091    0.0000 C   0  0  0  0  0  0  0  0  0  0  0  0
    6.3593    1.2133    0.0000 C   0  0  0  0  0  0  0  0  0  0  0  0
    7.3530    2.3369    0.0000 C   0  0  0  0  0  0  0  0  0  0  0  0
    6.8767    3.7593    0.0000 C   0  0  0  0  0  0  0  0  0  0  0  0
    7.8704    4.8830    0.0000 O   0  0  0  0  0  0  0  0  0  0  0  0
    5.4068    4.0581    0.0000 C   0  0  0  0  0  0  0  0  0  0  0  0
    4.4131    2.9344    0.0000 C   0  0  0  0  0  0  0  0  0  0  0  0
    4.8893    1.5121    0.0000 C   0  0  0  0  0  0  0  0  0  0  0  0
    3.4194    1.8108    0.0000 C   0  0  0  0  0  0  0  0  0  0  0  0
    3.8956    0.3884    0.0000 C   0  0  0  0  0  0  0  0  0  0  0  0
    2.4257    0.6872    0.0000 C   0  0  0  0  0  0  0  0  0  0  0  0
    1.4320   -0.4365    0.0000 C   0  0  0  0  0  0  0  0  0  0  0  0
    1.9082   -1.8589    0.0000 C   0  0  0  0  0  0  0  0  0  0  0  0
    0.4151   -1.7154    0.0000 C   0  0  0  0  0  0  0  0  0  0  0  0
  2  1  1  6
  2  3  1  0
  3  4  1  0
  4  5  1  0
  5  6  2  0
  5  7  1  0
  8  7  1  6
  8  9  1  0
  9 10  1  0
 10 11  1  1
 10 12  1  0
 12 13  1  1
 12 14  1  0
 14 15  1  6
 14 16  1  0
 16 17  1  6
  2 18  1  0
 18 19  1  6
 19 20  1  0
 21 20  1  6
 21 22  1  0
 22 23  1  1
 23 24  1  1
 23 25  1  0
 26 25  1  1
 26 27  1  0
 27 28  1  0
 28 29  1  1
 28 30  1  0
 30 31  1  0
 31 32  1  0
 32 33  1  6
 32 34  1  0
 34 35  1  6
 35 36  1  0
 36 37  1  0
 37 38  1  6
 16  8  1  0
 37 18  1  0
 37 21  1  0
 34 22  1  0
 32 26  1  0
M  END
>  <MS_ID>  (2307) 
MS2390

>  <SMILES>  (2307) 
C[C@H](CCC(=O)O[C@H]1O[C@H](C)[C@H](O)[C@@H](O)[C@H]1O)[C@H]1CC[C@H]2[C@@H]3[C@H](O)C[C@@H]4C[C@H](O)CC[C@]4(C)[C@H]3CC[C@]12C

>  <Structure_dimension>  (2307) 
2D

$$$$
MS2391
     RDKit          2D

 31 34  0  0  0  0  0  0  0  0999 V2000
   -2.6128   -3.7484    0.0000 C   0  0  0  0  0  0  0  0  0  0  0  0
   -1.7683   -2.5088    0.0000 C   0  0  0  0  0  0  0  0  0  0  0  0
   -2.4196   -1.1576    0.0000 C   0  0  0  0  0  0  0  0  0  0  0  0
   -3.9155   -1.0460    0.0000 C   0  0  0  0  0  0  0  0  0  0  0  0
   -4.5668    0.3052    0.0000 C   0  0  0  0  0  0  0  0  0  0  0  0
   -3.7223    1.5449    0.0000 O   0  0  0  0  0  0  0  0  0  0  0  0
   -6.0626    0.4167    0.0000 O   0  0  0  0  0  0  0  0  0  0  0  0
   -6.7140    1.7679    0.0000 C   0  0  0  0  0  0  0  0  0  0  0  0
   -8.2098    1.8794    0.0000 C   0  0  0  0  0  0  0  0  0  0  0  0
   -9.0543    0.6398    0.0000 O   0  0  0  0  0  0  0  0  0  0  0  0
   -8.8612    3.2307    0.0000 O   0  0  0  0  0  0  0  0  0  0  0  0
   -0.2724   -2.6203    0.0000 C   0  0  0  0  0  0  0  0  0  0  0  0
    0.5166   -3.8960    0.0000 C   0  0  0  0  0  0  0  0  0  0  0  0
    1.9737   -3.5398    0.0000 C   0  0  0  0  0  0  0  0  0  0  0  0
    2.0852   -2.0440    0.0000 C   0  0  0  0  0  0  0  0  0  0  0  0
    3.2715   -1.1260    0.0000 C   0  0  0  0  0  0  0  0  0  0  0  0
    4.6596   -1.6943    0.0000 C   0  0  0  0  0  0  0  0  0  0  0  0
    5.8459   -0.7762    0.0000 C   0  0  0  0  0  0  0  0  0  0  0  0
    5.6440    0.7101    0.0000 C   0  0  0  0  0  0  0  0  0  0  0  0
    6.8302    1.6281    0.0000 C   0  0  0  0  0  0  0  0  0  0  0  0
    6.6283    3.1145    0.0000 C   0  0  0  0  0  0  0  0  0  0  0  0
    5.2402    3.6828    0.0000 C   0  0  0  0  0  0  0  0  0  0  0  0
    4.0539    2.7648    0.0000 C   0  0  0  0  0  0  0  0  0  0  0  0
    4.2558    1.2784    0.0000 C   0  0  0  0  0  0  0  0  0  0  0  0
    2.8676    1.8467    0.0000 C   0  0  0  0  0  0  0  0  0  0  0  0
    3.0696    0.3604    0.0000 C   0  0  0  0  0  0  0  0  0  0  0  0
    1.6814    0.9287    0.0000 C   0  0  0  0  0  0  0  0  0  0  0  0
    0.4951    0.0107    0.0000 C   0  0  0  0  0  0  0  0  0  0  0  0
   -0.8930    0.5790    0.0000 O   0  0  0  0  0  0  0  0  0  0  0  0
    0.6970   -1.4757    0.0000 C   0  0  0  0  0  0  0  0  0  0  0  0
   -0.7429   -1.0556    0.0000 C   0  0  0  0  0  0  0  0  0  0  0  0
  2  1  1  6
  2  3  1  0
  3  4  1  0
  4  5  1  0
  5  6  2  0
  5  7  1  0
  7  8  1  0
  8  9  1  0
  9 10  2  0
  9 11  1  0
  2 12  1  0
 12 13  1  6
 13 14  1  0
 15 14  1  6
 15 16  1  0
 16 17  1  1
 17 18  1  0
 19 18  1  1
 19 20  1  0
 20 21  1  0
 21 22  1  0
 22 23  1  0
 23 24  1  0
 24 25  1  6
 24 26  1  0
 26 27  1  6
 27 28  1  0
 28 29  1  1
 28 30  1  0
 30 31  1  6
 30 12  1  0
 30 15  1  0
 26 16  1  0
 24 19  1  0
M  END
>  <MS_ID>  (2308) 
MS2391

>  <SMILES>  (2308) 
C[C@H](CCC(=O)OCC(=O)O)[C@H]1CC[C@H]2[C@@H]3CC[C@@H]4CCCC[C@]4(C)[C@H]3C[C@H](O)[C@]12C

>  <Structure_dimension>  (2308) 
2D

$$$$
MS2392
     RDKit          2D

 35 38  0  0  0  0  0  0  0  0999 V2000
   -2.0910   -4.4775    0.0000 C   0  0  0  0  0  0  0  0  0  0  0  0
   -1.4029   -3.1446    0.0000 C   0  0  0  0  0  0  0  0  0  0  0  0
   -2.2131   -1.8822    0.0000 C   0  0  0  0  0  0  0  0  0  0  0  0
   -3.7114   -1.9528    0.0000 C   0  0  0  0  0  0  0  0  0  0  0  0
   -4.5217   -0.6904    0.0000 C   0  0  0  0  0  0  0  0  0  0  0  0
   -3.8336    0.6424    0.0000 O   0  0  0  0  0  0  0  0  0  0  0  0
   -6.0200   -0.7610    0.0000 O   0  0  0  0  0  0  0  0  0  0  0  0
   -6.8303    0.5014    0.0000 C   0  0  0  0  0  0  0  0  0  0  0  0
   -8.0926   -0.3089    0.0000 C   0  0  0  0  0  0  0  0  0  0  0  0
   -5.5679    1.3116    0.0000 C   0  0  0  0  0  0  0  0  0  0  0  0
   -7.6405    1.7637    0.0000 C   0  0  0  0  0  0  0  0  0  0  0  0
   -6.9524    3.0966    0.0000 C   0  0  0  0  0  0  0  0  0  0  0  0
   -5.4541    3.1671    0.0000 O   0  0  0  0  0  0  0  0  0  0  0  0
   -7.7627    4.3589    0.0000 O   0  0  0  0  0  0  0  0  0  0  0  0
    0.0955   -3.0741    0.0000 C   0  0  0  0  0  0  0  0  0  0  0  0
    1.0332   -4.2448    0.0000 C   0  0  0  0  0  0  0  0  0  0  0  0
    2.4365   -3.7147    0.0000 C   0  0  0  0  0  0  0  0  0  0  0  0
    2.3659   -2.2164    0.0000 C   0  0  0  0  0  0  0  0  0  0  0  0
    3.4322   -1.1614    0.0000 C   0  0  0  0  0  0  0  0  0  0  0  0
    4.8790   -1.5573    0.0000 C   0  0  0  0  0  0  0  0  0  0  0  0
    5.2595   -3.0082    0.0000 O   0  0  0  0  0  0  0  0  0  0  0  0
    5.9453   -0.5023    0.0000 C   0  0  0  0  0  0  0  0  0  0  0  0
    5.5648    0.9486    0.0000 C   0  0  0  0  0  0  0  0  0  0  0  0
    6.6311    2.0036    0.0000 C   0  0  0  0  0  0  0  0  0  0  0  0
    6.2506    3.4546    0.0000 C   0  0  0  0  0  0  0  0  0  0  0  0
    7.3169    4.5096    0.0000 O   0  0  0  0  0  0  0  0  0  0  0  0
    4.8038    3.8505    0.0000 C   0  0  0  0  0  0  0  0  0  0  0  0
    3.7375    2.7955    0.0000 C   0  0  0  0  0  0  0  0  0  0  0  0
    4.1180    1.3446    0.0000 C   0  0  0  0  0  0  0  0  0  0  0  0
    2.6712    1.7405    0.0000 C   0  0  0  0  0  0  0  0  0  0  0  0
    3.0517    0.2896    0.0000 C   0  0  0  0  0  0  0  0  0  0  0  0
    1.6049    0.6855    0.0000 C   0  0  0  0  0  0  0  0  0  0  0  0
    0.5386   -0.3695    0.0000 C   0  0  0  0  0  0  0  0  0  0  0  0
    0.9191   -1.8204    0.0000 C   0  0  0  0  0  0  0  0  0  0  0  0
   -0.5611   -1.5779    0.0000 C   0  0  0  0  0  0  0  0  0  0  0  0
  2  1  1  6
  2  3  1  0
  3  4  1  0
  4  5  1  0
  5  6  2  0
  5  7  1  0
  7  8  1  0
  8  9  1  0
  8 10  1  0
  8 11  1  0
 11 12  1  0
 12 13  2  0
 12 14  1  0
  2 15  1  0
 15 16  1  6
 16 17  1  0
 18 17  1  6
 18 19  1  0
 19 20  1  1
 20 21  1  1
 20 22  1  0
 23 22  1  1
 23 24  1  0
 24 25  1  0
 25 26  1  1
 25 27  1  0
 27 28  1  0
 28 29  1  0
 29 30  1  6
 29 31  1  0
 31 32  1  6
 32 33  1  0
 33 34  1  0
 34 35  1  6
 34 15  1  0
 34 18  1  0
 31 19  1  0
 29 23  1  0
M  END
>  <MS_ID>  (2309) 
MS2392

>  <SMILES>  (2309) 
C[C@H](CCC(=O)OC(C)(C)CC(=O)O)[C@H]1CC[C@H]2[C@@H]3[C@H](O)C[C@@H]4C[C@H](O)CC[C@]4(C)[C@H]3CC[C@]12C

>  <Structure_dimension>  (2309) 
2D

$$$$
MS2393
     RDKit          2D

 28 31  0  0  0  0  0  0  0  0999 V2000
   -5.1275   -2.0302    0.0000 C   0  0  0  0  0  0  0  0  0  0  0  0
   -3.9468   -1.1050    0.0000 C   0  0  0  0  0  0  0  0  0  0  0  0
   -4.1576    0.3801    0.0000 C   0  0  0  0  0  0  0  0  0  0  0  0
   -5.5492    0.9401    0.0000 C   0  0  0  0  0  0  0  0  0  0  0  0
   -5.7600    2.4252    0.0000 C   0  0  0  0  0  0  0  0  0  0  0  0
   -4.5793    3.3503    0.0000 O   0  0  0  0  0  0  0  0  0  0  0  0
   -7.1516    2.9851    0.0000 O   0  0  0  0  0  0  0  0  0  0  0  0
   -2.5552   -1.6650    0.0000 C   0  0  0  0  0  0  0  0  0  0  0  0
   -2.1903   -3.1199    0.0000 C   0  0  0  0  0  0  0  0  0  0  0  0
   -0.6938   -3.2225    0.0000 C   0  0  0  0  0  0  0  0  0  0  0  0
   -0.1339   -1.8309    0.0000 C   0  0  0  0  0  0  0  0  0  0  0  0
    1.2750   -1.3159    0.0000 C   0  0  0  0  0  0  0  0  0  0  0  0
    2.4254   -2.2785    0.0000 C   0  0  0  0  0  0  0  0  0  0  0  0
    2.1670   -3.7560    0.0000 N   0  0  0  0  0  0  0  0  0  0  0  0
    3.8342   -1.7635    0.0000 C   0  0  0  0  0  0  0  0  0  0  0  0
    4.0926   -0.2859    0.0000 C   0  0  0  0  0  0  0  0  0  0  0  0
    5.5014    0.2291    0.0000 C   0  0  0  0  0  0  0  0  0  0  0  0
    5.7598    1.7067    0.0000 C   0  0  0  0  0  0  0  0  0  0  0  0
    7.1687    2.2217    0.0000 O   0  0  0  0  0  0  0  0  0  0  0  0
    4.6094    2.6692    0.0000 C   0  0  0  0  0  0  0  0  0  0  0  0
    3.2006    2.1542    0.0000 C   0  0  0  0  0  0  0  0  0  0  0  0
    2.9422    0.6767    0.0000 C   0  0  0  0  0  0  0  0  0  0  0  0
    1.7918    1.6392    0.0000 C   0  0  0  0  0  0  0  0  0  0  0  0
    1.5334    0.1617    0.0000 C   0  0  0  0  0  0  0  0  0  0  0  0
    0.3830    1.1242    0.0000 C   0  0  0  0  0  0  0  0  0  0  0  0
   -1.0259    0.6093    0.0000 C   0  0  0  0  0  0  0  0  0  0  0  0
   -1.2843   -0.8683    0.0000 C   0  0  0  0  0  0  0  0  0  0  0  0
   -2.5290   -0.0313    0.0000 C   0  0  0  0  0  0  0  0  0  0  0  0
  2  1  1  6
  2  3  1  0
  3  4  1  0
  4  5  1  0
  5  6  2  0
  5  7  1  0
  2  8  1  0
  8  9  1  6
  9 10  1  0
 11 10  1  6
 11 12  1  0
 12 13  1  1
 13 14  1  6
 13 15  1  0
 16 15  1  1
 16 17  1  0
 17 18  1  0
 18 19  1  1
 18 20  1  0
 20 21  1  0
 21 22  1  0
 22 23  1  6
 22 24  1  0
 24 25  1  6
 25 26  1  0
 26 27  1  0
 27 28  1  6
 27  8  1  0
 27 11  1  0
 24 12  1  0
 22 16  1  0
M  END
>  <MS_ID>  (2310) 
MS2393

>  <SMILES>  (2310) 
C[C@H](CCC(=O)O)[C@H]1CC[C@H]2[C@@H]3[C@@H](N)C[C@@H]4C[C@H](O)CC[C@]4(C)[C@H]3CC[C@]12C

>  <Structure_dimension>  (2310) 
2D

$$$$
MS2394
     RDKit          2D

 28 31  0  0  0  0  0  0  0  0999 V2000
   -4.6352   -2.6140    0.0000 C   0  0  0  0  0  0  0  0  0  0  0  0
   -3.5136   -1.6180    0.0000 C   0  0  0  0  0  0  0  0  0  0  0  0
   -3.8154   -0.1486    0.0000 C   0  0  0  0  0  0  0  0  0  0  0  0
   -5.2387    0.3247    0.0000 C   0  0  0  0  0  0  0  0  0  0  0  0
   -5.5405    1.7940    0.0000 C   0  0  0  0  0  0  0  0  0  0  0  0
   -4.4189    2.7900    0.0000 O   0  0  0  0  0  0  0  0  0  0  0  0
   -6.9639    2.2673    0.0000 N   0  0  0  0  0  0  0  0  0  0  0  0
   -7.2657    3.7367    0.0000 O   0  0  0  0  0  0  0  0  0  0  0  0
   -2.0902   -2.0913    0.0000 C   0  0  0  0  0  0  0  0  0  0  0  0
   -1.6365   -3.5210    0.0000 C   0  0  0  0  0  0  0  0  0  0  0  0
   -0.1366   -3.5313    0.0000 C   0  0  0  0  0  0  0  0  0  0  0  0
    0.3368   -2.1080    0.0000 C   0  0  0  0  0  0  0  0  0  0  0  0
    1.7112   -1.5073    0.0000 C   0  0  0  0  0  0  0  0  0  0  0  0
    2.9187   -2.3973    0.0000 C   0  0  0  0  0  0  0  0  0  0  0  0
    4.2932   -1.7966    0.0000 C   0  0  0  0  0  0  0  0  0  0  0  0
    4.4602   -0.3060    0.0000 C   0  0  0  0  0  0  0  0  0  0  0  0
    5.8347    0.2947    0.0000 C   0  0  0  0  0  0  0  0  0  0  0  0
    6.0017    1.7854    0.0000 C   0  0  0  0  0  0  0  0  0  0  0  0
    7.3762    2.3861    0.0000 O   0  0  0  0  0  0  0  0  0  0  0  0
    4.7943    2.6754    0.0000 C   0  0  0  0  0  0  0  0  0  0  0  0
    3.4198    2.0747    0.0000 C   0  0  0  0  0  0  0  0  0  0  0  0
    3.2528    0.5840    0.0000 C   0  0  0  0  0  0  0  0  0  0  0  0
    2.0453    1.4740    0.0000 C   0  0  0  0  0  0  0  0  0  0  0  0
    1.8783   -0.0166    0.0000 C   0  0  0  0  0  0  0  0  0  0  0  0
    0.6708    0.8734    0.0000 C   0  0  0  0  0  0  0  0  0  0  0  0
   -0.7036    0.2727    0.0000 C   0  0  0  0  0  0  0  0  0  0  0  0
   -0.8707   -1.2180    0.0000 C   0  0  0  0  0  0  0  0  0  0  0  0
   -2.1645   -0.4591    0.0000 C   0  0  0  0  0  0  0  0  0  0  0  0
  2  1  1  6
  2  3  1  0
  3  4  1  0
  4  5  1  0
  5  6  2  0
  5  7  1  0
  7  8  1  0
  2  9  1  0
  9 10  1  6
 10 11  1  0
 12 11  1  6
 12 13  1  0
 13 14  1  1
 14 15  1  0
 16 15  1  1
 16 17  1  0
 17 18  1  0
 18 19  1  6
 18 20  1  0
 20 21  1  0
 21 22  1  0
 22 23  1  6
 22 24  1  0
 24 25  1  6
 25 26  1  0
 26 27  1  0
 27 28  1  6
 27  9  1  0
 27 12  1  0
 24 13  1  0
 22 16  1  0
M  END
>  <MS_ID>  (2311) 
MS2394

>  <SMILES>  (2311) 
C[C@H](CCC(=O)NO)[C@H]1CC[C@H]2[C@@H]3CC[C@@H]4C[C@@H](O)CC[C@]4(C)[C@H]3CC[C@]12C

>  <Structure_dimension>  (2311) 
2D

$$$$
MS2395
     RDKit          2D

 31 34  0  0  0  0  0  0  0  0999 V2000
   -3.5119   -3.5779    0.0000 C   0  0  0  0  0  0  0  0  0  0  0  0
   -2.6109   -2.3787    0.0000 C   0  0  0  0  0  0  0  0  0  0  0  0
   -3.1991   -0.9988    0.0000 C   0  0  0  0  0  0  0  0  0  0  0  0
   -4.6881   -0.8181    0.0000 C   0  0  0  0  0  0  0  0  0  0  0  0
   -5.2762    0.5618    0.0000 C   0  0  0  0  0  0  0  0  0  0  0  0
   -4.3753    1.7610    0.0000 O   0  0  0  0  0  0  0  0  0  0  0  0
   -6.7653    0.7424    0.0000 O   0  0  0  0  0  0  0  0  0  0  0  0
   -7.3534    2.1223    0.0000 C   0  0  0  0  0  0  0  0  0  0  0  0
   -8.8425    2.3029    0.0000 C   0  0  0  0  0  0  0  0  0  0  0  0
   -9.4306    3.6828    0.0000 O   0  0  0  0  0  0  0  0  0  0  0  0
   -1.1219   -2.5593    0.0000 C   0  0  0  0  0  0  0  0  0  0  0  0
   -0.3927   -3.8702    0.0000 C   0  0  0  0  0  0  0  0  0  0  0  0
    1.0793   -3.5818    0.0000 C   0  0  0  0  0  0  0  0  0  0  0  0
    1.2599   -2.0927    0.0000 C   0  0  0  0  0  0  0  0  0  0  0  0
    2.4874   -1.2306    0.0000 C   0  0  0  0  0  0  0  0  0  0  0  0
    3.8478   -1.8625    0.0000 C   0  0  0  0  0  0  0  0  0  0  0  0
    3.9807   -3.3566    0.0000 O   0  0  0  0  0  0  0  0  0  0  0  0
    5.0753   -1.0003    0.0000 C   0  0  0  0  0  0  0  0  0  0  0  0
    4.9423    0.4938    0.0000 C   0  0  0  0  0  0  0  0  0  0  0  0
    6.1698    1.3559    0.0000 C   0  0  0  0  0  0  0  0  0  0  0  0
    6.0369    2.8500    0.0000 C   0  0  0  0  0  0  0  0  0  0  0  0
    7.2644    3.7122    0.0000 O   0  0  0  0  0  0  0  0  0  0  0  0
    4.6765    3.4820    0.0000 C   0  0  0  0  0  0  0  0  0  0  0  0
    3.4490    2.6198    0.0000 C   0  0  0  0  0  0  0  0  0  0  0  0
    3.5820    1.1257    0.0000 C   0  0  0  0  0  0  0  0  0  0  0  0
    2.2216    1.7576    0.0000 C   0  0  0  0  0  0  0  0  0  0  0  0
    2.3545    0.2635    0.0000 C   0  0  0  0  0  0  0  0  0  0  0  0
    0.9941    0.8955    0.0000 C   0  0  0  0  0  0  0  0  0  0  0  0
   -0.2334    0.0333    0.0000 C   0  0  0  0  0  0  0  0  0  0  0  0
   -0.1005   -1.4608    0.0000 C   0  0  0  0  0  0  0  0  0  0  0  0
   -1.5195   -0.9745    0.0000 C   0  0  0  0  0  0  0  0  0  0  0  0
  2  1  1  6
  2  3  1  0
  3  4  1  0
  4  5  1  0
  5  6  2  0
  5  7  1  0
  7  8  1  0
  8  9  1  0
  9 10  1  0
  2 11  1  0
 11 12  1  6
 12 13  1  0
 14 13  1  6
 14 15  1  0
 15 16  1  1
 16 17  1  6
 16 18  1  0
 19 18  1  1
 19 20  1  0
 20 21  1  0
 21 22  2  0
 21 23  1  0
 23 24  1  0
 24 25  1  0
 25 26  1  6
 25 27  1  0
 27 28  1  6
 28 29  1  0
 29 30  1  0
 30 31  1  6
 30 11  1  0
 30 14  1  0
 27 15  1  0
 25 19  1  0
M  END
>  <MS_ID>  (2312) 
MS2395

>  <SMILES>  (2312) 
C[C@H](CCC(=O)OCCO)[C@H]1CC[C@H]2[C@@H]3[C@@H](O)C[C@@H]4CC(=O)CC[C@]4(C)[C@H]3CC[C@]12C

>  <Structure_dimension>  (2312) 
2D

$$$$
MS2396
     RDKit          2D

 32 35  0  0  0  0  0  0  0  0999 V2000
   -5.1569   -2.5516    0.0000 C   0  0  0  0  0  0  0  0  0  0  0  0
   -4.1971   -1.3989    0.0000 C   0  0  0  0  0  0  0  0  0  0  0  0
   -4.7155    0.0087    0.0000 C   0  0  0  0  0  0  0  0  0  0  0  0
   -6.1937    0.2635    0.0000 C   0  0  0  0  0  0  0  0  0  0  0  0
   -6.7121    1.6711    0.0000 C   0  0  0  0  0  0  0  0  0  0  0  0
   -5.7523    2.8238    0.0000 O   0  0  0  0  0  0  0  0  0  0  0  0
   -8.1903    1.9259    0.0000 O   0  0  0  0  0  0  0  0  0  0  0  0
   -2.7189   -1.6538    0.0000 C   0  0  0  0  0  0  0  0  0  0  0  0
   -2.0562   -2.9994    0.0000 C   0  0  0  0  0  0  0  0  0  0  0  0
   -0.5716   -2.7850    0.0000 C   0  0  0  0  0  0  0  0  0  0  0  0
   -0.3168   -1.3068    0.0000 C   0  0  0  0  0  0  0  0  0  0  0  0
    0.9523   -0.5071    0.0000 C   0  0  0  0  0  0  0  0  0  0  0  0
    2.2794   -1.2062    0.0000 C   0  0  0  0  0  0  0  0  0  0  0  0
    2.3374   -2.7051    0.0000 O   0  0  0  0  0  0  0  0  0  0  0  0
    3.6645   -3.4043    0.0000 S   0  0  0  0  0  0  0  0  0  0  0  0
    4.3637   -2.0772    0.0000 O   0  0  0  0  0  0  0  0  0  0  0  0
    2.9654   -4.7314    0.0000 O   0  0  0  0  0  0  0  0  0  0  0  0
    4.9916   -4.1034    0.0000 O   0  0  0  0  0  0  0  0  0  0  0  0
    3.5484   -0.4065    0.0000 C   0  0  0  0  0  0  0  0  0  0  0  0
    3.4903    1.0923    0.0000 C   0  0  0  0  0  0  0  0  0  0  0  0
    4.7594    1.8921    0.0000 C   0  0  0  0  0  0  0  0  0  0  0  0
    4.7013    3.3909    0.0000 C   0  0  0  0  0  0  0  0  0  0  0  0
    5.9703    4.1907    0.0000 F   0  0  0  0  0  0  0  0  0  0  0  0
    3.3742    4.0901    0.0000 C   0  0  0  0  0  0  0  0  0  0  0  0
    2.1052    3.2904    0.0000 C   0  0  0  0  0  0  0  0  0  0  0  0
    2.1632    1.7915    0.0000 C   0  0  0  0  0  0  0  0  0  0  0  0
    0.8361    2.4907    0.0000 C   0  0  0  0  0  0  0  0  0  0  0  0
    0.8942    0.9918    0.0000 C   0  0  0  0  0  0  0  0  0  0  0  0
   -0.4329    1.6909    0.0000 C   0  0  0  0  0  0  0  0  0  0  0  0
   -1.7019    0.8912    0.0000 C   0  0  0  0  0  0  0  0  0  0  0  0
   -1.6439   -0.6077    0.0000 C   0  0  0  0  0  0  0  0  0  0  0  0
   -3.0368   -0.0511    0.0000 C   0  0  0  0  0  0  0  0  0  0  0  0
  2  1  1  6
  2  3  1  0
  3  4  1  0
  4  5  1  0
  5  6  2  0
  5  7  1  0
  2  8  1  0
  8  9  1  6
  9 10  1  0
 11 10  1  6
 11 12  1  0
 12 13  1  1
 13 14  1  6
 14 15  1  0
 15 16  2  0
 15 17  2  0
 15 18  1  0
 13 19  1  0
 20 19  1  1
 20 21  1  0
 21 22  1  0
 22 23  1  1
 22 24  1  0
 24 25  1  0
 25 26  1  0
 26 27  1  6
 26 28  1  0
 28 29  1  6
 29 30  1  0
 30 31  1  0
 31 32  1  6
 31  8  1  0
 31 11  1  0
 28 12  1  0
 26 20  1  0
M  END
>  <MS_ID>  (2313) 
MS2396

>  <SMILES>  (2313) 
C[C@H](CCC(=O)O)[C@H]1CC[C@H]2[C@@H]3[C@@H](OS(=O)(=O)O)C[C@@H]4C[C@H](F)CC[C@]4(C)[C@H]3CC[C@]12C

>  <Structure_dimension>  (2313) 
2D

$$$$
MS2397
     RDKit          2D

 35 39  0  0  0  0  0  0  0  0999 V2000
   -1.7226   -4.5748    0.0000 C   0  0  0  0  0  0  0  0  0  0  0  0
   -1.0860   -3.2166    0.0000 C   0  0  0  0  0  0  0  0  0  0  0  0
   -1.9441   -1.9862    0.0000 C   0  0  0  0  0  0  0  0  0  0  0  0
   -3.4386   -2.1141    0.0000 C   0  0  0  0  0  0  0  0  0  0  0  0
   -4.2966   -0.8837    0.0000 C   0  0  0  0  0  0  0  0  0  0  0  0
   -3.6601    0.4746    0.0000 O   0  0  0  0  0  0  0  0  0  0  0  0
   -5.7911   -1.0116    0.0000 O   0  0  0  0  0  0  0  0  0  0  0  0
   -6.6492    0.2188    0.0000 C   0  0  0  0  0  0  0  0  0  0  0  0
   -6.0126    1.5771    0.0000 C   0  0  0  0  0  0  0  0  0  0  0  0
   -6.8706    2.8074    0.0000 C   0  0  0  0  0  0  0  0  0  0  0  0
   -8.3652    2.6796    0.0000 C   0  0  0  0  0  0  0  0  0  0  0  0
   -9.2232    3.9099    0.0000 F   0  0  0  0  0  0  0  0  0  0  0  0
   -9.0017    1.3213    0.0000 C   0  0  0  0  0  0  0  0  0  0  0  0
   -8.1437    0.0909    0.0000 C   0  0  0  0  0  0  0  0  0  0  0  0
    0.4085   -3.0887    0.0000 C   0  0  0  0  0  0  0  0  0  0  0  0
    1.3904   -4.2226    0.0000 C   0  0  0  0  0  0  0  0  0  0  0  0
    2.7723   -3.6392    0.0000 C   0  0  0  0  0  0  0  0  0  0  0  0
    2.6444   -2.1446    0.0000 C   0  0  0  0  0  0  0  0  0  0  0  0
    3.6695   -1.0496    0.0000 C   0  0  0  0  0  0  0  0  0  0  0  0
    5.1304   -1.3898    0.0000 C   0  0  0  0  0  0  0  0  0  0  0  0
    5.5662   -2.8251    0.0000 O   0  0  0  0  0  0  0  0  0  0  0  0
    6.1555   -0.2947    0.0000 C   0  0  0  0  0  0  0  0  0  0  0  0
    5.7197    1.1406    0.0000 C   0  0  0  0  0  0  0  0  0  0  0  0
    6.7448    2.2356    0.0000 C   0  0  0  0  0  0  0  0  0  0  0  0
    6.3090    3.6709    0.0000 C   0  0  0  0  0  0  0  0  0  0  0  0
    7.3341    4.7660    0.0000 O   0  0  0  0  0  0  0  0  0  0  0  0
    4.8481    4.0112    0.0000 C   0  0  0  0  0  0  0  0  0  0  0  0
    3.8230    2.9161    0.0000 C   0  0  0  0  0  0  0  0  0  0  0  0
    4.2588    1.4808    0.0000 C   0  0  0  0  0  0  0  0  0  0  0  0
    2.7979    1.8210    0.0000 C   0  0  0  0  0  0  0  0  0  0  0  0
    3.2337    0.3857    0.0000 C   0  0  0  0  0  0  0  0  0  0  0  0
    1.7728    0.7259    0.0000 C   0  0  0  0  0  0  0  0  0  0  0  0
    0.7477   -0.3691    0.0000 C   0  0  0  0  0  0  0  0  0  0  0  0
    1.1835   -1.8044    0.0000 C   0  0  0  0  0  0  0  0  0  0  0  0
   -0.3050   -1.6188    0.0000 C   0  0  0  0  0  0  0  0  0  0  0  0
  2  1  1  6
  2  3  1  0
  3  4  1  0
  4  5  1  0
  5  6  2  0
  5  7  1  0
  7  8  1  0
  8  9  2  0
  9 10  1  0
 10 11  2  0
 11 12  1  0
 11 13  1  0
 13 14  2  0
  2 15  1  0
 15 16  1  6
 16 17  1  0
 18 17  1  6
 18 19  1  0
 19 20  1  1
 20 21  1  1
 20 22  1  0
 23 22  1  1
 23 24  1  0
 24 25  1  0
 25 26  1  1
 25 27  1  0
 27 28  1  0
 28 29  1  0
 29 30  1  6
 29 31  1  0
 31 32  1  6
 32 33  1  0
 33 34  1  0
 34 35  1  6
 14  8  1  0
 34 15  1  0
 34 18  1  0
 31 19  1  0
 29 23  1  0
M  END
>  <MS_ID>  (2314) 
MS2397

>  <SMILES>  (2314) 
C[C@H](CCC(=O)Oc1ccc(F)cc1)[C@H]1CC[C@H]2[C@@H]3[C@H](O)C[C@@H]4C[C@H](O)CC[C@]4(C)[C@H]3CC[C@]12C

>  <Structure_dimension>  (2314) 
2D

$$$$
MS2398
     RDKit          2D

 37 41  0  0  0  0  0  0  0  0999 V2000
   -1.7322   -4.6386    0.0000 C   0  0  0  0  0  0  0  0  0  0  0  0
   -1.1162   -3.2709    0.0000 C   0  0  0  0  0  0  0  0  0  0  0  0
   -1.9927   -2.0536    0.0000 C   0  0  0  0  0  0  0  0  0  0  0  0
   -3.4851   -2.2040    0.0000 C   0  0  0  0  0  0  0  0  0  0  0  0
   -4.3616   -0.9868    0.0000 C   0  0  0  0  0  0  0  0  0  0  0  0
   -3.7456    0.3809    0.0000 O   0  0  0  0  0  0  0  0  0  0  0  0
   -5.8540   -1.1372    0.0000 O   0  0  0  0  0  0  0  0  0  0  0  0
   -6.7305    0.0801    0.0000 C   0  0  0  0  0  0  0  0  0  0  0  0
   -8.2305    0.0865    0.0000 C   0  0  0  0  0  0  0  0  0  0  0  0
   -8.6879    1.5151    0.0000 C   0  0  0  0  0  0  0  0  0  0  0  0
  -10.1125    1.9847    0.0000 O   0  0  0  0  0  0  0  0  0  0  0  0
   -7.4706    2.3916    0.0000 C   0  0  0  0  0  0  0  0  0  0  0  0
   -7.4642    3.8916    0.0000 O   0  0  0  0  0  0  0  0  0  0  0  0
   -6.2609    1.5047    0.0000 C   0  0  0  0  0  0  0  0  0  0  0  0
   -4.8323    1.9621    0.0000 O   0  0  0  0  0  0  0  0  0  0  0  0
    0.3762   -3.1205    0.0000 C   0  0  0  0  0  0  0  0  0  0  0  0
    1.3751   -4.2395    0.0000 C   0  0  0  0  0  0  0  0  0  0  0  0
    2.7481   -3.6353    0.0000 C   0  0  0  0  0  0  0  0  0  0  0  0
    2.5977   -2.1428    0.0000 C   0  0  0  0  0  0  0  0  0  0  0  0
    3.6061   -1.0324    0.0000 C   0  0  0  0  0  0  0  0  0  0  0  0
    5.0720   -1.3506    0.0000 C   0  0  0  0  0  0  0  0  0  0  0  0
    5.5294   -2.7791    0.0000 O   0  0  0  0  0  0  0  0  0  0  0  0
    6.0804   -0.2401    0.0000 C   0  0  0  0  0  0  0  0  0  0  0  0
    7.5463   -0.5583    0.0000 O   0  0  0  0  0  0  0  0  0  0  0  0
    5.6230    1.1884    0.0000 C   0  0  0  0  0  0  0  0  0  0  0  0
    6.6315    2.2988    0.0000 C   0  0  0  0  0  0  0  0  0  0  0  0
    6.1741    3.7274    0.0000 C   0  0  0  0  0  0  0  0  0  0  0  0
    7.1825    4.8378    0.0000 O   0  0  0  0  0  0  0  0  0  0  0  0
    4.7082    4.0455    0.0000 C   0  0  0  0  0  0  0  0  0  0  0  0
    3.6997    2.9351    0.0000 C   0  0  0  0  0  0  0  0  0  0  0  0
    4.1571    1.5066    0.0000 C   0  0  0  0  0  0  0  0  0  0  0  0
    2.6913    1.8247    0.0000 C   0  0  0  0  0  0  0  0  0  0  0  0
    3.1487    0.3961    0.0000 C   0  0  0  0  0  0  0  0  0  0  0  0
    1.6828    0.7143    0.0000 C   0  0  0  0  0  0  0  0  0  0  0  0
    0.6744   -0.3961    0.0000 C   0  0  0  0  0  0  0  0  0  0  0  0
    1.1318   -1.8247    0.0000 C   0  0  0  0  0  0  0  0  0  0  0  0
   -0.3593   -1.6615    0.0000 C   0  0  0  0  0  0  0  0  0  0  0  0
  2  1  1  6
  2  3  1  0
  3  4  1  0
  4  5  1  0
  5  6  2  0
  5  7  1  0
  8  7  1  1
  8  9  1  0
  9 10  1  0
 10 11  1  6
 10 12  1  0
 12 13  1  1
 12 14  1  0
 14 15  1  1
  2 16  1  0
 16 17  1  6
 17 18  1  0
 19 18  1  6
 19 20  1  0
 20 21  1  1
 21 22  1  1
 21 23  1  0
 23 24  1  1
 23 25  1  0
 25 26  1  1
 26 27  1  0
 27 28  1  1
 27 29  1  0
 29 30  1  0
 30 31  1  0
 31 32  1  6
 31 33  1  0
 33 34  1  6
 34 35  1  0
 35 36  1  0
 36 37  1  6
 14  8  1  0
 36 16  1  0
 36 19  1  0
 33 20  1  0
 31 25  1  0
M  END
>  <MS_ID>  (2315) 
MS2398

>  <SMILES>  (2315) 
C[C@H](CCC(=O)O[C@H]1C[C@H](O)[C@@H](O)[C@H]1O)[C@H]1CC[C@H]2[C@@H]3[C@H](O)[C@H](O)[C@@H]4C[C@H](O)CC[C@]4(C)[C@H]3CC[C@]12C

>  <Structure_dimension>  (2315) 
2D

$$$$
MS2399
     RDKit          2D

 30 33  0  0  0  0  0  0  0  0999 V2000
   -4.5440   -2.7098    0.0000 C   0  0  0  0  0  0  0  0  0  0  0  0
   -3.5955   -1.5478    0.0000 C   0  0  0  0  0  0  0  0  0  0  0  0
   -4.1277   -0.1453    0.0000 C   0  0  0  0  0  0  0  0  0  0  0  0
   -5.6083    0.0950    0.0000 C   0  0  0  0  0  0  0  0  0  0  0  0
   -6.1404    1.4975    0.0000 C   0  0  0  0  0  0  0  0  0  0  0  0
   -5.1920    2.6595    0.0000 O   0  0  0  0  0  0  0  0  0  0  0  0
   -7.6211    1.7378    0.0000 O   0  0  0  0  0  0  0  0  0  0  0  0
   -2.1149   -1.7881    0.0000 C   0  0  0  0  0  0  0  0  0  0  0  0
   -1.4391   -3.1273    0.0000 C   0  0  0  0  0  0  0  0  0  0  0  0
    0.0433   -2.8983    0.0000 C   0  0  0  0  0  0  0  0  0  0  0  0
    0.2837   -1.4177    0.0000 C   0  0  0  0  0  0  0  0  0  0  0  0
    1.5448   -0.6056    0.0000 C   0  0  0  0  0  0  0  0  0  0  0  0
    2.8787   -1.2918    0.0000 C   0  0  0  0  0  0  0  0  0  0  0  0
    2.9514   -2.7900    0.0000 C   0  0  0  0  0  0  0  0  0  0  0  0
    4.2853   -3.4762    0.0000 C   0  0  0  0  0  0  0  0  0  0  0  0
    4.3580   -4.9744    0.0000 O   0  0  0  0  0  0  0  0  0  0  0  0
    4.1399   -0.4797    0.0000 C   0  0  0  0  0  0  0  0  0  0  0  0
    4.0671    1.0186    0.0000 C   0  0  0  0  0  0  0  0  0  0  0  0
    5.3283    1.8306    0.0000 C   0  0  0  0  0  0  0  0  0  0  0  0
    5.2556    3.3289    0.0000 C   0  0  0  0  0  0  0  0  0  0  0  0
    3.9217    4.0150    0.0000 C   0  0  0  0  0  0  0  0  0  0  0  0
    2.6606    3.2029    0.0000 C   0  0  0  0  0  0  0  0  0  0  0  0
    2.7333    1.7047    0.0000 C   0  0  0  0  0  0  0  0  0  0  0  0
    1.3994    2.3908    0.0000 C   0  0  0  0  0  0  0  0  0  0  0  0
    1.4721    0.8926    0.0000 C   0  0  0  0  0  0  0  0  0  0  0  0
    0.1382    1.5787    0.0000 C   0  0  0  0  0  0  0  0  0  0  0  0
   -1.1229    0.7667    0.0000 C   0  0  0  0  0  0  0  0  0  0  0  0
   -2.4568    1.4528    0.0000 O   0  0  0  0  0  0  0  0  0  0  0  0
   -1.0502   -0.7316    0.0000 C   0  0  0  0  0  0  0  0  0  0  0  0
   -2.4485   -0.1886    0.0000 C   0  0  0  0  0  0  0  0  0  0  0  0
  2  1  1  6
  2  3  1  0
  3  4  1  0
  4  5  1  0
  5  6  2  0
  5  7  1  0
  2  8  1  0
  8  9  1  6
  9 10  1  0
 11 10  1  6
 11 12  1  0
 12 13  1  1
 13 14  1  1
 14 15  1  0
 15 16  1  0
 13 17  1  0
 18 17  1  1
 18 19  1  0
 19 20  1  0
 20 21  1  0
 21 22  1  0
 22 23  1  0
 23 24  1  6
 23 25  1  0
 25 26  1  6
 26 27  1  0
 27 28  1  6
 27 29  1  0
 29 30  1  6
 29  8  1  0
 29 11  1  0
 25 12  1  0
 23 18  1  0
M  END
>  <MS_ID>  (2316) 
MS2399

>  <SMILES>  (2316) 
C[C@H](CCC(=O)O)[C@H]1CC[C@H]2[C@@H]3[C@H](CCO)C[C@@H]4CCCC[C@]4(C)[C@H]3C[C@@H](O)[C@]12C

>  <Structure_dimension>  (2316) 
2D

$$$$
MS2400
     RDKit          2D

 36 39  0  0  0  0  0  0  0  0999 V2000
   -1.6729   -4.3442    0.0000 C   0  0  0  0  0  0  0  0  0  0  0  0
   -1.0054   -3.0009    0.0000 C   0  0  0  0  0  0  0  0  0  0  0  0
   -1.8349   -1.7511    0.0000 C   0  0  0  0  0  0  0  0  0  0  0  0
   -3.3320   -1.8447    0.0000 C   0  0  0  0  0  0  0  0  0  0  0  0
   -4.1616   -0.5950    0.0000 C   0  0  0  0  0  0  0  0  0  0  0  0
   -3.4941    0.7483    0.0000 O   0  0  0  0  0  0  0  0  0  0  0  0
   -5.6587   -0.6885    0.0000 C   0  0  0  0  0  0  0  0  0  0  0  0
   -6.4882    0.5612    0.0000 C   0  0  0  0  0  0  0  0  0  0  0  0
   -7.9853    0.4676    0.0000 C   0  0  0  0  0  0  0  0  0  0  0  0
   -8.6528   -0.8757    0.0000 O   0  0  0  0  0  0  0  0  0  0  0  0
   -8.8149    1.7174    0.0000 O   0  0  0  0  0  0  0  0  0  0  0  0
  -10.3120    1.6238    0.0000 C   0  0  0  0  0  0  0  0  0  0  0  0
  -11.1415    2.8735    0.0000 C   0  0  0  0  0  0  0  0  0  0  0  0
  -12.6386    2.7800    0.0000 O   0  0  0  0  0  0  0  0  0  0  0  0
    0.4917   -2.9073    0.0000 C   0  0  0  0  0  0  0  0  0  0  0  0
    1.4474   -4.0635    0.0000 C   0  0  0  0  0  0  0  0  0  0  0  0
    2.8423   -3.5119    0.0000 C   0  0  0  0  0  0  0  0  0  0  0  0
    2.7487   -2.0148    0.0000 C   0  0  0  0  0  0  0  0  0  0  0  0
    3.7986   -0.9435    0.0000 C   0  0  0  0  0  0  0  0  0  0  0  0
    5.2514   -1.3172    0.0000 C   0  0  0  0  0  0  0  0  0  0  0  0
    5.6541   -2.7621    0.0000 O   0  0  0  0  0  0  0  0  0  0  0  0
    6.3013   -0.2459    0.0000 C   0  0  0  0  0  0  0  0  0  0  0  0
    7.7540   -0.6195    0.0000 O   0  0  0  0  0  0  0  0  0  0  0  0
    5.8985    1.1990    0.0000 C   0  0  0  0  0  0  0  0  0  0  0  0
    6.9485    2.2703    0.0000 C   0  0  0  0  0  0  0  0  0  0  0  0
    6.5457    3.7152    0.0000 C   0  0  0  0  0  0  0  0  0  0  0  0
    7.5956    4.7865    0.0000 O   0  0  0  0  0  0  0  0  0  0  0  0
    5.0930    4.0888    0.0000 C   0  0  0  0  0  0  0  0  0  0  0  0
    4.0430    3.0176    0.0000 C   0  0  0  0  0  0  0  0  0  0  0  0
    4.4458    1.5727    0.0000 C   0  0  0  0  0  0  0  0  0  0  0  0
    2.9931    1.9463    0.0000 C   0  0  0  0  0  0  0  0  0  0  0  0
    3.3959    0.5014    0.0000 C   0  0  0  0  0  0  0  0  0  0  0  0
    1.9431    0.8750    0.0000 C   0  0  0  0  0  0  0  0  0  0  0  0
    0.8932   -0.1962    0.0000 C   0  0  0  0  0  0  0  0  0  0  0  0
    1.2960   -1.6412    0.0000 C   0  0  0  0  0  0  0  0  0  0  0  0
   -0.1878   -1.4214    0.0000 C   0  0  0  0  0  0  0  0  0  0  0  0
  2  1  1  6
  2  3  1  0
  3  4  1  0
  4  5  1  0
  5  6  2  0
  5  7  1  0
  7  8  1  0
  8  9  1  0
  9 10  2  0
  9 11  1  0
 11 12  1  0
 12 13  1  0
 13 14  1  0
  2 15  1  0
 15 16  1  6
 16 17  1  0
 18 17  1  6
 18 19  1  0
 19 20  1  1
 20 21  1  1
 20 22  1  0
 22 23  1  1
 22 24  1  0
 24 25  1  1
 25 26  1  0
 26 27  1  1
 26 28  1  0
 28 29  1  0
 29 30  1  0
 30 31  1  6
 30 32  1  0
 32 33  1  6
 33 34  1  0
 34 35  1  0
 35 36  1  6
 35 15  1  0
 35 18  1  0
 32 19  1  0
 30 24  1  0
M  END
>  <MS_ID>  (2317) 
MS2400

>  <SMILES>  (2317) 
C[C@H](CCC(=O)CCC(=O)OCCO)[C@H]1CC[C@H]2[C@@H]3[C@H](O)[C@H](O)[C@@H]4C[C@H](O)CC[C@]4(C)[C@H]3CC[C@]12C

>  <Structure_dimension>  (2317) 
2D

$$$$
MS2401
     RDKit          2D

 34 38  0  0  0  0  0  0  0  0999 V2000
   -6.8357   -1.9573    0.0000 C   0  0  0  0  0  0  0  0  0  0  0  0
   -5.6382   -1.0540    0.0000 C   0  0  0  0  0  0  0  0  0  0  0  0
   -5.8217    0.4348    0.0000 C   0  0  0  0  0  0  0  0  0  0  0  0
   -7.2027    1.0202    0.0000 C   0  0  0  0  0  0  0  0  0  0  0  0
   -7.3863    2.5089    0.0000 C   0  0  0  0  0  0  0  0  0  0  0  0
   -6.1888    3.4122    0.0000 O   0  0  0  0  0  0  0  0  0  0  0  0
   -8.7673    3.0943    0.0000 O   0  0  0  0  0  0  0  0  0  0  0  0
   -4.2571   -1.6394    0.0000 C   0  0  0  0  0  0  0  0  0  0  0  0
   -3.9190   -3.1008    0.0000 C   0  0  0  0  0  0  0  0  0  0  0  0
   -2.4247   -3.2308    0.0000 C   0  0  0  0  0  0  0  0  0  0  0  0
   -1.8392   -1.8498    0.0000 C   0  0  0  0  0  0  0  0  0  0  0  0
   -0.4212   -1.3607    0.0000 C   0  0  0  0  0  0  0  0  0  0  0  0
    0.7114   -2.3443    0.0000 C   0  0  0  0  0  0  0  0  0  0  0  0
    0.4259   -3.8168    0.0000 O   0  0  0  0  0  0  0  0  0  0  0  0
    2.1294   -1.8552    0.0000 C   0  0  0  0  0  0  0  0  0  0  0  0
    2.4149   -0.3826    0.0000 C   0  0  0  0  0  0  0  0  0  0  0  0
    3.8329    0.1064    0.0000 C   0  0  0  0  0  0  0  0  0  0  0  0
    4.1184    1.5790    0.0000 C   0  0  0  0  0  0  0  0  0  0  0  0
    5.5365    2.0680    0.0000 C   0  0  0  0  0  0  0  0  0  0  0  0
    6.6690    1.0845    0.0000 C   0  0  0  0  0  0  0  0  0  0  0  0
    6.3835   -0.3881    0.0000 C   0  0  0  0  0  0  0  0  0  0  0  0
    7.5161   -1.3716    0.0000 C   0  0  0  0  0  0  0  0  0  0  0  0
    8.9341   -0.8826    0.0000 C   0  0  0  0  0  0  0  0  0  0  0  0
    9.2196    0.5900    0.0000 C   0  0  0  0  0  0  0  0  0  0  0  0
    8.0871    1.5735    0.0000 C   0  0  0  0  0  0  0  0  0  0  0  0
    2.9859    2.5625    0.0000 C   0  0  0  0  0  0  0  0  0  0  0  0
    1.5679    2.0735    0.0000 C   0  0  0  0  0  0  0  0  0  0  0  0
    1.2824    0.6009    0.0000 C   0  0  0  0  0  0  0  0  0  0  0  0
    0.1498    1.5844    0.0000 C   0  0  0  0  0  0  0  0  0  0  0  0
   -0.1357    0.1119    0.0000 C   0  0  0  0  0  0  0  0  0  0  0  0
   -1.2682    1.0954    0.0000 C   0  0  0  0  0  0  0  0  0  0  0  0
   -2.6863    0.6064    0.0000 C   0  0  0  0  0  0  0  0  0  0  0  0
   -2.9718   -0.8662    0.0000 C   0  0  0  0  0  0  0  0  0  0  0  0
   -4.2009   -0.0064    0.0000 C   0  0  0  0  0  0  0  0  0  0  0  0
  2  1  1  6
  2  3  1  0
  3  4  1  0
  4  5  1  0
  5  6  2  0
  5  7  1  0
  2  8  1  0
  8  9  1  6
  9 10  1  0
 11 10  1  6
 11 12  1  0
 12 13  1  1
 13 14  1  6
 13 15  1  0
 16 15  1  1
 16 17  1  0
 17 18  1  0
 18 19  1  1
 19 20  1  0
 20 21  2  0
 21 22  1  0
 22 23  2  0
 23 24  1  0
 24 25  2  0
 18 26  1  0
 26 27  1  0
 27 28  1  0
 28 29  1  6
 28 30  1  0
 30 31  1  6
 31 32  1  0
 32 33  1  0
 33 34  1  6
 33  8  1  0
 33 11  1  0
 30 12  1  0
 28 16  1  0
 25 20  1  0
M  END
>  <MS_ID>  (2318) 
MS2401

>  <SMILES>  (2318) 
C[C@H](CCC(=O)O)[C@H]1CC[C@H]2[C@@H]3[C@@H](O)C[C@@H]4C[C@H](Cc5ccccc5)CC[C@]4(C)[C@H]3CC[C@]12C

>  <Structure_dimension>  (2318) 
2D

$$$$
MS2402
     RDKit          2D

 33 36  0  0  0  0  0  0  0  0999 V2000
   -2.6213   -4.8409    0.0000 C   0  0  0  0  0  0  0  0  0  0  0  0
   -1.9280   -3.5107    0.0000 C   0  0  0  0  0  0  0  0  0  0  0  0
   -2.7333   -2.2452    0.0000 C   0  0  0  0  0  0  0  0  0  0  0  0
   -4.2319   -2.3099    0.0000 C   0  0  0  0  0  0  0  0  0  0  0  0
   -5.0372   -1.0444    0.0000 C   0  0  0  0  0  0  0  0  0  0  0  0
   -6.5358   -1.1091    0.0000 O   0  0  0  0  0  0  0  0  0  0  0  0
   -4.3439    0.2857    0.0000 S   0  0  0  0  0  0  0  0  0  0  0  0
   -5.1492    1.5512    0.0000 C   0  0  0  0  0  0  0  0  0  0  0  0
   -4.4559    2.8814    0.0000 C   0  0  0  0  0  0  0  0  0  0  0  0
   -2.9573    2.9461    0.0000 N   0  0  0  0  0  0  0  0  0  0  0  0
   -5.2612    4.1469    0.0000 C   0  0  0  0  0  0  0  0  0  0  0  0
   -6.7598    4.0822    0.0000 O   0  0  0  0  0  0  0  0  0  0  0  0
   -4.5679    5.4771    0.0000 O   0  0  0  0  0  0  0  0  0  0  0  0
   -0.4294   -3.4461    0.0000 C   0  0  0  0  0  0  0  0  0  0  0  0
    0.5038   -4.6204    0.0000 C   0  0  0  0  0  0  0  0  0  0  0  0
    1.9091   -4.0958    0.0000 C   0  0  0  0  0  0  0  0  0  0  0  0
    1.8444   -2.5972    0.0000 C   0  0  0  0  0  0  0  0  0  0  0  0
    2.9148   -1.5464    0.0000 C   0  0  0  0  0  0  0  0  0  0  0  0
    4.3601   -1.9480    0.0000 C   0  0  0  0  0  0  0  0  0  0  0  0
    5.4305   -0.8972    0.0000 C   0  0  0  0  0  0  0  0  0  0  0  0
    5.0556    0.5552    0.0000 C   0  0  0  0  0  0  0  0  0  0  0  0
    6.1260    1.6060    0.0000 C   0  0  0  0  0  0  0  0  0  0  0  0
    5.7512    3.0585    0.0000 C   0  0  0  0  0  0  0  0  0  0  0  0
    6.8216    4.1093    0.0000 O   0  0  0  0  0  0  0  0  0  0  0  0
    4.3060    3.4600    0.0000 C   0  0  0  0  0  0  0  0  0  0  0  0
    3.2356    2.4092    0.0000 C   0  0  0  0  0  0  0  0  0  0  0  0
    3.6104    0.9568    0.0000 C   0  0  0  0  0  0  0  0  0  0  0  0
    2.1651    1.3584    0.0000 C   0  0  0  0  0  0  0  0  0  0  0  0
    2.5400   -0.0940    0.0000 C   0  0  0  0  0  0  0  0  0  0  0  0
    1.0947    0.3076    0.0000 C   0  0  0  0  0  0  0  0  0  0  0  0
    0.0243   -0.7432    0.0000 C   0  0  0  0  0  0  0  0  0  0  0  0
    0.3992   -2.1957    0.0000 C   0  0  0  0  0  0  0  0  0  0  0  0
   -1.0801   -1.9473    0.0000 C   0  0  0  0  0  0  0  0  0  0  0  0
  2  1  1  6
  2  3  1  0
  3  4  1  0
  4  5  1  0
  5  6  2  0
  5  7  1  0
  7  8  1  0
  8  9  1  0
  9 10  1  1
  9 11  1  0
 11 12  2  0
 11 13  1  0
  2 14  1  0
 14 15  1  6
 15 16  1  0
 17 16  1  6
 17 18  1  0
 18 19  1  1
 19 20  1  0
 21 20  1  1
 21 22  1  0
 22 23  1  0
 23 24  2  0
 23 25  1  0
 25 26  1  0
 26 27  1  0
 27 28  1  6
 27 29  1  0
 29 30  1  6
 30 31  1  0
 31 32  1  0
 32 33  1  6
 32 14  1  0
 32 17  1  0
 29 18  1  0
 27 21  1  0
M  END
>  <MS_ID>  (2319) 
MS2402

>  <SMILES>  (2319) 
C[C@H](CCC(=O)SC[C@H](N)C(=O)O)[C@H]1CC[C@H]2[C@@H]3CC[C@@H]4CC(=O)CC[C@]4(C)[C@H]3CC[C@]12C

>  <Structure_dimension>  (2319) 
2D

$$$$
MS2403
     RDKit          2D

 31 34  0  0  0  0  0  0  0  0999 V2000
   -4.0382   -3.1592    0.0000 C   0  0  0  0  0  0  0  0  0  0  0  0
   -3.0416   -2.0381    0.0000 C   0  0  0  0  0  0  0  0  0  0  0  0
   -3.5143   -0.6145    0.0000 C   0  0  0  0  0  0  0  0  0  0  0  0
   -4.9835   -0.3121    0.0000 C   0  0  0  0  0  0  0  0  0  0  0  0
   -5.4561    1.1115    0.0000 C   0  0  0  0  0  0  0  0  0  0  0  0
   -4.4596    2.2326    0.0000 O   0  0  0  0  0  0  0  0  0  0  0  0
   -6.9253    1.4140    0.0000 C   0  0  0  0  0  0  0  0  0  0  0  0
   -7.3980    2.8376    0.0000 C   0  0  0  0  0  0  0  0  0  0  0  0
   -8.8672    3.1400    0.0000 O   0  0  0  0  0  0  0  0  0  0  0  0
   -1.5724   -2.3406    0.0000 C   0  0  0  0  0  0  0  0  0  0  0  0
   -0.9536   -3.7070    0.0000 C   0  0  0  0  0  0  0  0  0  0  0  0
    0.5372   -3.5406    0.0000 C   0  0  0  0  0  0  0  0  0  0  0  0
    0.8396   -2.0714    0.0000 C   0  0  0  0  0  0  0  0  0  0  0  0
    2.1338   -1.3131    0.0000 C   0  0  0  0  0  0  0  0  0  0  0  0
    3.4377   -2.0548    0.0000 C   0  0  0  0  0  0  0  0  0  0  0  0
    3.4473   -3.5547    0.0000 O   0  0  0  0  0  0  0  0  0  0  0  0
    4.7319   -1.2965    0.0000 C   0  0  0  0  0  0  0  0  0  0  0  0
    4.7223    0.2035    0.0000 C   0  0  0  0  0  0  0  0  0  0  0  0
    6.0165    0.9618    0.0000 C   0  0  0  0  0  0  0  0  0  0  0  0
    6.0069    2.4618    0.0000 C   0  0  0  0  0  0  0  0  0  0  0  0
    7.3011    3.2201    0.0000 O   0  0  0  0  0  0  0  0  0  0  0  0
    4.7030    3.2034    0.0000 C   0  0  0  0  0  0  0  0  0  0  0  0
    3.4088    2.4451    0.0000 C   0  0  0  0  0  0  0  0  0  0  0  0
    3.4184    0.9452    0.0000 C   0  0  0  0  0  0  0  0  0  0  0  0
    2.1146    1.6868    0.0000 C   0  0  0  0  0  0  0  0  0  0  0  0
    2.1242    0.1869    0.0000 C   0  0  0  0  0  0  0  0  0  0  0  0
    0.8204    0.9285    0.0000 C   0  0  0  0  0  0  0  0  0  0  0  0
   -0.4738    0.1702    0.0000 C   0  0  0  0  0  0  0  0  0  0  0  0
   -1.7776    0.9119    0.0000 O   0  0  0  0  0  0  0  0  0  0  0  0
   -0.4642   -1.3298    0.0000 C   0  0  0  0  0  0  0  0  0  0  0  0
   -1.8384   -0.7284    0.0000 C   0  0  0  0  0  0  0  0  0  0  0  0
  2  1  1  6
  2  3  1  0
  3  4  1  0
  4  5  1  0
  5  6  2  0
  5  7  1  0
  7  8  1  0
  8  9  2  0
  2 10  1  0
 10 11  1  6
 11 12  1  0
 13 12  1  6
 13 14  1  0
 14 15  1  1
 15 16  1  1
 15 17  1  0
 18 17  1  1
 18 19  1  0
 19 20  1  0
 20 21  1  1
 20 22  1  0
 22 23  1  0
 23 24  1  0
 24 25  1  6
 24 26  1  0
 26 27  1  6
 27 28  1  0
 28 29  1  1
 28 30  1  0
 30 31  1  6
 30 10  1  0
 30 13  1  0
 26 14  1  0
 24 18  1  0
M  END
>  <MS_ID>  (2320) 
MS2403

>  <SMILES>  (2320) 
C[C@H](CCC(=O)CC=O)[C@H]1CC[C@H]2[C@@H]3[C@H](O)C[C@@H]4C[C@H](O)CC[C@]4(C)[C@H]3C[C@H](O)[C@]12C

>  <Structure_dimension>  (2320) 
2D

$$$$
MS2404
     RDKit          2D

 36 40  0  0  0  0  0  0  0  0999 V2000
   -2.0131   -4.3030    0.0000 C   0  0  0  0  0  0  0  0  0  0  0  0
   -1.2855   -2.9913    0.0000 C   0  0  0  0  0  0  0  0  0  0  0  0
   -2.0576   -1.7053    0.0000 C   0  0  0  0  0  0  0  0  0  0  0  0
   -3.5574   -1.7310    0.0000 C   0  0  0  0  0  0  0  0  0  0  0  0
   -4.3295   -0.4450    0.0000 C   0  0  0  0  0  0  0  0  0  0  0  0
   -3.6019    0.8667    0.0000 O   0  0  0  0  0  0  0  0  0  0  0  0
   -5.8293   -0.4706    0.0000 N   0  0  0  0  0  0  0  0  0  0  0  0
   -6.6014    0.8154    0.0000 C   0  0  0  0  0  0  0  0  0  0  0  0
   -5.8738    2.1271    0.0000 C   0  0  0  0  0  0  0  0  0  0  0  0
   -6.6459    3.4131    0.0000 C   0  0  0  0  0  0  0  0  0  0  0  0
   -8.1457    3.3874    0.0000 C   0  0  0  0  0  0  0  0  0  0  0  0
   -8.8733    2.0757    0.0000 C   0  0  0  0  0  0  0  0  0  0  0  0
   -8.1012    0.7897    0.0000 C   0  0  0  0  0  0  0  0  0  0  0  0
   -8.8288   -0.5220    0.0000 F   0  0  0  0  0  0  0  0  0  0  0  0
    0.2143   -2.9656    0.0000 C   0  0  0  0  0  0  0  0  0  0  0  0
    1.1167   -4.1638    0.0000 C   0  0  0  0  0  0  0  0  0  0  0  0
    2.5351   -3.6759    0.0000 C   0  0  0  0  0  0  0  0  0  0  0  0
    2.5094   -2.1762    0.0000 C   0  0  0  0  0  0  0  0  0  0  0  0
    3.6068   -1.1535    0.0000 C   0  0  0  0  0  0  0  0  0  0  0  0
    5.0411   -1.5925    0.0000 C   0  0  0  0  0  0  0  0  0  0  0  0
    5.3780   -3.0542    0.0000 O   0  0  0  0  0  0  0  0  0  0  0  0
    6.1384   -0.5699    0.0000 C   0  0  0  0  0  0  0  0  0  0  0  0
    5.8015    0.8918    0.0000 C   0  0  0  0  0  0  0  0  0  0  0  0
    6.8989    1.9144    0.0000 C   0  0  0  0  0  0  0  0  0  0  0  0
    6.5619    3.3761    0.0000 C   0  0  0  0  0  0  0  0  0  0  0  0
    7.6593    4.3987    0.0000 O   0  0  0  0  0  0  0  0  0  0  0  0
    5.1276    3.8151    0.0000 C   0  0  0  0  0  0  0  0  0  0  0  0
    4.0302    2.7924    0.0000 C   0  0  0  0  0  0  0  0  0  0  0  0
    4.3672    1.3308    0.0000 C   0  0  0  0  0  0  0  0  0  0  0  0
    2.9329    1.7698    0.0000 C   0  0  0  0  0  0  0  0  0  0  0  0
    3.2698    0.3081    0.0000 C   0  0  0  0  0  0  0  0  0  0  0  0
    1.8355    0.7472    0.0000 C   0  0  0  0  0  0  0  0  0  0  0  0
    0.7381   -0.2755    0.0000 C   0  0  0  0  0  0  0  0  0  0  0  0
   -0.6962    0.1636    0.0000 O   0  0  0  0  0  0  0  0  0  0  0  0
    1.0751   -1.7371    0.0000 C   0  0  0  0  0  0  0  0  0  0  0  0
   -0.3973   -1.4504    0.0000 C   0  0  0  0  0  0  0  0  0  0  0  0
  2  1  1  6
  2  3  1  0
  3  4  1  0
  4  5  1  0
  5  6  2  0
  5  7  1  0
  7  8  1  0
  8  9  2  0
  9 10  1  0
 10 11  2  0
 11 12  1  0
 12 13  2  0
 13 14  1  0
  2 15  1  0
 15 16  1  6
 16 17  1  0
 18 17  1  6
 18 19  1  0
 19 20  1  1
 20 21  1  1
 20 22  1  0
 23 22  1  1
 23 24  1  0
 24 25  1  0
 25 26  1  1
 25 27  1  0
 27 28  1  0
 28 29  1  0
 29 30  1  6
 29 31  1  0
 31 32  1  6
 32 33  1  0
 33 34  1  1
 33 35  1  0
 35 36  1  6
 13  8  1  0
 35 15  1  0
 35 18  1  0
 31 19  1  0
 29 23  1  0
M  END
>  <MS_ID>  (2321) 
MS2404

>  <SMILES>  (2321) 
C[C@H](CCC(=O)Nc1ccccc1F)[C@H]1CC[C@H]2[C@@H]3[C@H](O)C[C@@H]4C[C@H](O)CC[C@]4(C)[C@H]3C[C@H](O)[C@]12C

>  <Structure_dimension>  (2321) 
2D

$$$$
MS2405
     RDKit          2D

 32 35  0  0  0  0  0  0  0  0999 V2000
   -6.3751   -1.0665    0.0000 C   0  0  0  0  0  0  0  0  0  0  0  0
   -5.0020   -0.4628    0.0000 C   0  0  0  0  0  0  0  0  0  0  0  0
   -4.8383    1.0282    0.0000 C   0  0  0  0  0  0  0  0  0  0  0  0
   -6.0477    1.9155    0.0000 C   0  0  0  0  0  0  0  0  0  0  0  0
   -5.8840    3.4066    0.0000 C   0  0  0  0  0  0  0  0  0  0  0  0
   -4.5109    4.0103    0.0000 O   0  0  0  0  0  0  0  0  0  0  0  0
   -7.0934    4.2939    0.0000 O   0  0  0  0  0  0  0  0  0  0  0  0
   -3.7926   -1.3501    0.0000 C   0  0  0  0  0  0  0  0  0  0  0  0
   -3.7996   -2.8501    0.0000 C   0  0  0  0  0  0  0  0  0  0  0  0
   -2.3751   -3.3202    0.0000 C   0  0  0  0  0  0  0  0  0  0  0  0
   -1.4878   -2.1108    0.0000 C   0  0  0  0  0  0  0  0  0  0  0  0
    0.0047   -1.9609    0.0000 C   0  0  0  0  0  0  0  0  0  0  0  0
    0.8807   -3.1785    0.0000 C   0  0  0  0  0  0  0  0  0  0  0  0
    0.2642   -4.5460    0.0000 O   0  0  0  0  0  0  0  0  0  0  0  0
    2.3732   -3.0287    0.0000 C   0  0  0  0  0  0  0  0  0  0  0  0
    2.9896   -1.6612    0.0000 C   0  0  0  0  0  0  0  0  0  0  0  0
    4.4821   -1.5113    0.0000 C   0  0  0  0  0  0  0  0  0  0  0  0
    5.0986   -0.1438    0.0000 C   0  0  0  0  0  0  0  0  0  0  0  0
    6.5911    0.0060    0.0000 C   0  0  0  0  0  0  0  0  0  0  0  0
    7.2075    1.3735    0.0000 C   0  0  0  0  0  0  0  0  0  0  0  0
    6.3315    2.5911    0.0000 C   0  0  0  0  0  0  0  0  0  0  0  0
    4.8390    2.4412    0.0000 O   0  0  0  0  0  0  0  0  0  0  0  0
    6.9480    3.9586    0.0000 O   0  0  0  0  0  0  0  0  0  0  0  0
    4.2226    1.0738    0.0000 C   0  0  0  0  0  0  0  0  0  0  0  0
    2.7301    0.9239    0.0000 C   0  0  0  0  0  0  0  0  0  0  0  0
    2.1136   -0.4436    0.0000 C   0  0  0  0  0  0  0  0  0  0  0  0
    1.2376    0.7740    0.0000 C   0  0  0  0  0  0  0  0  0  0  0  0
    0.6211   -0.5935    0.0000 C   0  0  0  0  0  0  0  0  0  0  0  0
   -0.2549    0.6241    0.0000 C   0  0  0  0  0  0  0  0  0  0  0  0
   -1.7474    0.4743    0.0000 C   0  0  0  0  0  0  0  0  0  0  0  0
   -2.3639   -0.8932    0.0000 C   0  0  0  0  0  0  0  0  0  0  0  0
   -3.3624    0.2262    0.0000 C   0  0  0  0  0  0  0  0  0  0  0  0
  2  1  1  6
  2  3  1  0
  3  4  1  0
  4  5  1  0
  5  6  2  0
  5  7  1  0
  2  8  1  0
  8  9  1  6
  9 10  1  0
 11 10  1  6
 11 12  1  0
 12 13  1  1
 13 14  1  1
 13 15  1  0
 16 15  1  1
 16 17  1  0
 17 18  1  0
 18 19  1  1
 19 20  2  0
 20 21  1  0
 21 22  2  0
 21 23  1  0
 18 24  1  0
 24 25  1  0
 25 26  1  0
 26 27  1  6
 26 28  1  0
 28 29  1  6
 29 30  1  0
 30 31  1  0
 31 32  1  6
 31  8  1  0
 31 11  1  0
 28 12  1  0
 26 16  1  0
M  END
>  <MS_ID>  (2322) 
MS2405

>  <SMILES>  (2322) 
C[C@H](CCC(=O)O)[C@H]1CC[C@H]2[C@@H]3[C@H](O)C[C@@H]4C[C@H](/C=C\C(=O)O)CC[C@]4(C)[C@H]3CC[C@]12C

>  <Structure_dimension>  (2322) 
2D

$$$$
MS2406
     RDKit          2D

 35 39  0  0  0  0  0  0  0  0999 V2000
   -2.2371   -3.9665    0.0000 C   0  0  0  0  0  0  0  0  0  0  0  0
   -1.4340   -2.6997    0.0000 C   0  0  0  0  0  0  0  0  0  0  0  0
   -2.1295   -1.3707    0.0000 C   0  0  0  0  0  0  0  0  0  0  0  0
   -3.6283   -1.3086    0.0000 C   0  0  0  0  0  0  0  0  0  0  0  0
   -4.3238    0.0204    0.0000 C   0  0  0  0  0  0  0  0  0  0  0  0
   -3.5207    1.2873    0.0000 O   0  0  0  0  0  0  0  0  0  0  0  0
   -5.8225    0.0825    0.0000 O   0  0  0  0  0  0  0  0  0  0  0  0
   -6.5181    1.4115    0.0000 C   0  0  0  0  0  0  0  0  0  0  0  0
   -8.0168    1.4736    0.0000 N   0  0  0  0  0  0  0  0  0  0  0  0
   -8.9480    0.2976    0.0000 C   0  0  0  0  0  0  0  0  0  0  0  0
  -10.3542    0.8198    0.0000 C   0  0  0  0  0  0  0  0  0  0  0  0
  -10.2921    2.3185    0.0000 N   0  0  0  0  0  0  0  0  0  0  0  0
   -8.8475    2.7225    0.0000 C   0  0  0  0  0  0  0  0  0  0  0  0
    0.0648   -2.7618    0.0000 C   0  0  0  0  0  0  0  0  0  0  0  0
    0.8954   -4.0108    0.0000 C   0  0  0  0  0  0  0  0  0  0  0  0
    2.3400   -3.6067    0.0000 C   0  0  0  0  0  0  0  0  0  0  0  0
    2.4021   -2.1080    0.0000 C   0  0  0  0  0  0  0  0  0  0  0  0
    3.5574   -1.1513    0.0000 C   0  0  0  0  0  0  0  0  0  0  0  0
    4.9636   -1.6735    0.0000 C   0  0  0  0  0  0  0  0  0  0  0  0
    5.2144   -3.1523    0.0000 O   0  0  0  0  0  0  0  0  0  0  0  0
    6.1189   -0.7168    0.0000 C   0  0  0  0  0  0  0  0  0  0  0  0
    5.8680    0.7621    0.0000 C   0  0  0  0  0  0  0  0  0  0  0  0
    7.0233    1.7188    0.0000 C   0  0  0  0  0  0  0  0  0  0  0  0
    6.7725    3.1976    0.0000 C   0  0  0  0  0  0  0  0  0  0  0  0
    7.9278    4.1543    0.0000 O   0  0  0  0  0  0  0  0  0  0  0  0
    5.3663    3.7198    0.0000 C   0  0  0  0  0  0  0  0  0  0  0  0
    4.2110    2.7632    0.0000 C   0  0  0  0  0  0  0  0  0  0  0  0
    4.4619    1.2843    0.0000 C   0  0  0  0  0  0  0  0  0  0  0  0
    3.0557    1.8065    0.0000 C   0  0  0  0  0  0  0  0  0  0  0  0
    3.3065    0.3276    0.0000 C   0  0  0  0  0  0  0  0  0  0  0  0
    1.9004    0.8498    0.0000 C   0  0  0  0  0  0  0  0  0  0  0  0
    0.7451   -0.1069    0.0000 C   0  0  0  0  0  0  0  0  0  0  0  0
   -0.6611    0.4153    0.0000 O   0  0  0  0  0  0  0  0  0  0  0  0
    0.9959   -1.5858    0.0000 C   0  0  0  0  0  0  0  0  0  0  0  0
   -0.4571   -1.2134    0.0000 C   0  0  0  0  0  0  0  0  0  0  0  0
  2  1  1  6
  2  3  1  0
  3  4  1  0
  4  5  1  0
  5  6  2  0
  5  7  1  0
  7  8  1  0
  8  9  1  0
  9 10  1  0
 10 11  2  0
 11 12  1  0
 12 13  2  0
  2 14  1  0
 14 15  1  6
 15 16  1  0
 17 16  1  6
 17 18  1  0
 18 19  1  1
 19 20  1  1
 19 21  1  0
 22 21  1  1
 22 23  1  0
 23 24  1  0
 24 25  1  1
 24 26  1  0
 26 27  1  0
 27 28  1  0
 28 29  1  6
 28 30  1  0
 30 31  1  6
 31 32  1  0
 32 33  1  1
 32 34  1  0
 34 35  1  6
 13  9  1  0
 34 14  1  0
 34 17  1  0
 30 18  1  0
 28 22  1  0
M  END
>  <MS_ID>  (2323) 
MS2406

>  <SMILES>  (2323) 
C[C@H](CCC(=O)OCn1ccnc1)[C@H]1CC[C@H]2[C@@H]3[C@H](O)C[C@@H]4C[C@H](O)CC[C@]4(C)[C@H]3C[C@H](O)[C@]12C

>  <Structure_dimension>  (2323) 
2D

$$$$
MS2407
     RDKit          2D

 32 36  0  0  0  0  0  0  0  0999 V2000
   -6.4932   -1.4350    0.0000 C   0  0  0  0  0  0  0  0  0  0  0  0
   -5.1891   -0.6940    0.0000 C   0  0  0  0  0  0  0  0  0  0  0  0
   -5.1787    0.8060    0.0000 C   0  0  0  0  0  0  0  0  0  0  0  0
   -6.4726    1.5649    0.0000 C   0  0  0  0  0  0  0  0  0  0  0  0
   -6.4622    3.0649    0.0000 C   0  0  0  0  0  0  0  0  0  0  0  0
   -5.1580    3.8059    0.0000 O   0  0  0  0  0  0  0  0  0  0  0  0
   -7.7561    3.8238    0.0000 O   0  0  0  0  0  0  0  0  0  0  0  0
   -3.8952   -1.4529    0.0000 C   0  0  0  0  0  0  0  0  0  0  0  0
   -3.7487   -2.9458    0.0000 C   0  0  0  0  0  0  0  0  0  0  0  0
   -2.2837   -3.2677    0.0000 C   0  0  0  0  0  0  0  0  0  0  0  0
   -1.5248   -1.9739    0.0000 C   0  0  0  0  0  0  0  0  0  0  0  0
   -0.0554   -1.6722    0.0000 C   0  0  0  0  0  0  0  0  0  0  0  0
    0.9406   -2.7938    0.0000 C   0  0  0  0  0  0  0  0  0  0  0  0
    0.4672   -4.2171    0.0000 O   0  0  0  0  0  0  0  0  0  0  0  0
    2.4099   -2.4920    0.0000 C   0  0  0  0  0  0  0  0  0  0  0  0
    2.8833   -1.0687    0.0000 C   0  0  0  0  0  0  0  0  0  0  0  0
    4.3526   -0.7669    0.0000 C   0  0  0  0  0  0  0  0  0  0  0  0
    4.8259    0.6564    0.0000 C   0  0  0  0  0  0  0  0  0  0  0  0
    6.2953    0.9582    0.0000 C   0  0  0  0  0  0  0  0  0  0  0  0
    6.9148    2.3243    0.0000 C   0  0  0  0  0  0  0  0  0  0  0  0
    8.4055    2.1572    0.0000 C   0  0  0  0  0  0  0  0  0  0  0  0
    8.7072    0.6878    0.0000 C   0  0  0  0  0  0  0  0  0  0  0  0
    7.4031   -0.0532    0.0000 O   0  0  0  0  0  0  0  0  0  0  0  0
    3.8300    1.7780    0.0000 C   0  0  0  0  0  0  0  0  0  0  0  0
    2.3606    1.4763    0.0000 C   0  0  0  0  0  0  0  0  0  0  0  0
    1.8873    0.0529    0.0000 C   0  0  0  0  0  0  0  0  0  0  0  0
    0.8913    1.1746    0.0000 C   0  0  0  0  0  0  0  0  0  0  0  0
    0.4179   -0.2488    0.0000 C   0  0  0  0  0  0  0  0  0  0  0  0
   -0.5781    0.8728    0.0000 C   0  0  0  0  0  0  0  0  0  0  0  0
   -2.0474    0.5711    0.0000 C   0  0  0  0  0  0  0  0  0  0  0  0
   -2.5207   -0.8523    0.0000 C   0  0  0  0  0  0  0  0  0  0  0  0
   -3.6285    0.1591    0.0000 C   0  0  0  0  0  0  0  0  0  0  0  0
  2  1  1  6
  2  3  1  0
  3  4  1  0
  4  5  1  0
  5  6  2  0
  5  7  1  0
  2  8  1  0
  8  9  1  6
  9 10  1  0
 11 10  1  6
 11 12  1  0
 12 13  1  1
 13 14  1  6
 13 15  1  0
 16 15  1  1
 16 17  1  0
 17 18  1  0
 18 19  1  1
 19 20  2  0
 20 21  1  0
 21 22  2  0
 22 23  1  0
 18 24  1  0
 24 25  1  0
 25 26  1  0
 26 27  1  6
 26 28  1  0
 28 29  1  6
 29 30  1  0
 30 31  1  0
 31 32  1  6
 31  8  1  0
 31 11  1  0
 28 12  1  0
 26 16  1  0
 23 19  1  0
M  END
>  <MS_ID>  (2324) 
MS2407

>  <SMILES>  (2324) 
C[C@H](CCC(=O)O)[C@H]1CC[C@H]2[C@@H]3[C@@H](O)C[C@@H]4C[C@H](c5ccco5)CC[C@]4(C)[C@H]3CC[C@]12C

>  <Structure_dimension>  (2324) 
2D

$$$$
MS2408
     RDKit          2D

 38 42  0  0  0  0  0  0  0  0999 V2000
   -0.7714   -4.6542    0.0000 C   0  0  0  0  0  0  0  0  0  0  0  0
   -0.1890   -3.2718    0.0000 C   0  0  0  0  0  0  0  0  0  0  0  0
   -1.0950   -2.0763    0.0000 C   0  0  0  0  0  0  0  0  0  0  0  0
   -2.5833   -2.2632    0.0000 C   0  0  0  0  0  0  0  0  0  0  0  0
   -3.4893   -1.0677    0.0000 C   0  0  0  0  0  0  0  0  0  0  0  0
   -2.9069    0.3147    0.0000 O   0  0  0  0  0  0  0  0  0  0  0  0
   -4.9776   -1.2545    0.0000 C   0  0  0  0  0  0  0  0  0  0  0  0
   -5.8836   -0.0590    0.0000 O   0  0  0  0  0  0  0  0  0  0  0  0
   -7.3719   -0.2458    0.0000 C   0  0  0  0  0  0  0  0  0  0  0  0
   -7.9542   -1.6282    0.0000 O   0  0  0  0  0  0  0  0  0  0  0  0
   -8.2779    0.9497    0.0000 C   0  0  0  0  0  0  0  0  0  0  0  0
   -7.6955    2.3320    0.0000 C   0  0  0  0  0  0  0  0  0  0  0  0
   -8.6015    3.5275    0.0000 C   0  0  0  0  0  0  0  0  0  0  0  0
  -10.0898    3.3407    0.0000 C   0  0  0  0  0  0  0  0  0  0  0  0
  -10.6721    1.9583    0.0000 C   0  0  0  0  0  0  0  0  0  0  0  0
   -9.7662    0.7628    0.0000 C   0  0  0  0  0  0  0  0  0  0  0  0
    1.2993   -3.0850    0.0000 C   0  0  0  0  0  0  0  0  0  0  0  0
    2.3253   -4.1792    0.0000 C   0  0  0  0  0  0  0  0  0  0  0  0
    3.6830   -3.5416    0.0000 C   0  0  0  0  0  0  0  0  0  0  0  0
    3.4961   -2.0533    0.0000 C   0  0  0  0  0  0  0  0  0  0  0  0
    4.4772   -0.9186    0.0000 C   0  0  0  0  0  0  0  0  0  0  0  0
    5.9504   -1.2008    0.0000 C   0  0  0  0  0  0  0  0  0  0  0  0
    6.4426   -2.6177    0.0000 O   0  0  0  0  0  0  0  0  0  0  0  0
    6.9314   -0.0661    0.0000 C   0  0  0  0  0  0  0  0  0  0  0  0
    6.4392    1.3509    0.0000 C   0  0  0  0  0  0  0  0  0  0  0  0
    7.4202    2.4856    0.0000 C   0  0  0  0  0  0  0  0  0  0  0  0
    6.9280    3.9026    0.0000 C   0  0  0  0  0  0  0  0  0  0  0  0
    7.9090    5.0373    0.0000 O   0  0  0  0  0  0  0  0  0  0  0  0
    5.4548    4.1848    0.0000 C   0  0  0  0  0  0  0  0  0  0  0  0
    4.4738    3.0501    0.0000 C   0  0  0  0  0  0  0  0  0  0  0  0
    4.9660    1.6331    0.0000 C   0  0  0  0  0  0  0  0  0  0  0  0
    3.4928    1.9153    0.0000 C   0  0  0  0  0  0  0  0  0  0  0  0
    3.9850    0.4984    0.0000 C   0  0  0  0  0  0  0  0  0  0  0  0
    2.5118    0.7806    0.0000 C   0  0  0  0  0  0  0  0  0  0  0  0
    1.5307   -0.3541    0.0000 C   0  0  0  0  0  0  0  0  0  0  0  0
    0.0575   -0.0719    0.0000 O   0  0  0  0  0  0  0  0  0  0  0  0
    2.0229   -1.7711    0.0000 C   0  0  0  0  0  0  0  0  0  0  0  0
    0.5283   -1.6444    0.0000 C   0  0  0  0  0  0  0  0  0  0  0  0
  2  1  1  6
  2  3  1  0
  3  4  1  0
  4  5  1  0
  5  6  2  0
  5  7  1  0
  7  8  1  0
  8  9  1  0
  9 10  2  0
  9 11  1  0
 11 12  2  0
 12 13  1  0
 13 14  2  0
 14 15  1  0
 15 16  2  0
  2 17  1  0
 17 18  1  6
 18 19  1  0
 20 19  1  6
 20 21  1  0
 21 22  1  1
 22 23  1  1
 22 24  1  0
 25 24  1  1
 25 26  1  0
 26 27  1  0
 27 28  1  1
 27 29  1  0
 29 30  1  0
 30 31  1  0
 31 32  1  6
 31 33  1  0
 33 34  1  6
 34 35  1  0
 35 36  1  1
 35 37  1  0
 37 38  1  6
 16 11  1  0
 37 17  1  0
 37 20  1  0
 33 21  1  0
 31 25  1  0
M  END
>  <MS_ID>  (2325) 
MS2408

>  <SMILES>  (2325) 
C[C@H](CCC(=O)COC(=O)c1ccccc1)[C@H]1CC[C@H]2[C@@H]3[C@H](O)C[C@@H]4C[C@H](O)CC[C@]4(C)[C@H]3C[C@H](O)[C@]12C

>  <Structure_dimension>  (2325) 
2D

$$$$
MS2409
     RDKit          2D

 34 37  0  0  0  0  0  0  0  0999 V2000
   -7.4266    3.0258    0.0000 C   0  0  0  0  0  0  0  0  0  0  0  0
   -7.0436    1.5755    0.0000 O   0  0  0  0  0  0  0  0  0  0  0  0
   -5.5961    1.1821    0.0000 C   0  0  0  0  0  0  0  0  0  0  0  0
   -4.5316    2.2389    0.0000 O   0  0  0  0  0  0  0  0  0  0  0  0
   -5.2131   -0.2682    0.0000 C   0  0  0  0  0  0  0  0  0  0  0  0
   -3.7657   -0.6617    0.0000 C   0  0  0  0  0  0  0  0  0  0  0  0
   -3.3827   -2.1120    0.0000 C   0  0  0  0  0  0  0  0  0  0  0  0
   -4.4471   -3.1688    0.0000 C   0  0  0  0  0  0  0  0  0  0  0  0
   -1.9352   -2.5054    0.0000 C   0  0  0  0  0  0  0  0  0  0  0  0
   -1.4027   -3.9077    0.0000 C   0  0  0  0  0  0  0  0  0  0  0  0
    0.0955   -3.8346    0.0000 C   0  0  0  0  0  0  0  0  0  0  0  0
    0.4890   -2.3872    0.0000 C   0  0  0  0  0  0  0  0  0  0  0  0
    1.8279   -1.7110    0.0000 C   0  0  0  0  0  0  0  0  0  0  0  0
    3.0830   -2.5325    0.0000 C   0  0  0  0  0  0  0  0  0  0  0  0
    2.9991   -4.0301    0.0000 O   0  0  0  0  0  0  0  0  0  0  0  0
    4.4220   -1.8563    0.0000 C   0  0  0  0  0  0  0  0  0  0  0  0
    4.5059   -0.3587    0.0000 C   0  0  0  0  0  0  0  0  0  0  0  0
    5.8448    0.3175    0.0000 C   0  0  0  0  0  0  0  0  0  0  0  0
    5.9287    1.8151    0.0000 C   0  0  0  0  0  0  0  0  0  0  0  0
    7.2677    2.4913    0.0000 O   0  0  0  0  0  0  0  0  0  0  0  0
    4.6737    2.6366    0.0000 C   0  0  0  0  0  0  0  0  0  0  0  0
    3.3347    1.9605    0.0000 C   0  0  0  0  0  0  0  0  0  0  0  0
    3.2508    0.4628    0.0000 C   0  0  0  0  0  0  0  0  0  0  0  0
    1.9958    1.2843    0.0000 C   0  0  0  0  0  0  0  0  0  0  0  0
    1.9119   -0.2133    0.0000 C   0  0  0  0  0  0  0  0  0  0  0  0
    0.6568    0.6081    0.0000 C   0  0  0  0  0  0  0  0  0  0  0  0
   -0.6822   -0.0680    0.0000 C   0  0  0  0  0  0  0  0  0  0  0  0
   -1.9372    0.7535    0.0000 O   0  0  0  0  0  0  0  0  0  0  0  0
   -1.8533    2.2511    0.0000 C   0  0  0  0  0  0  0  0  0  0  0  0
   -0.5143    2.9273    0.0000 C   0  0  0  0  0  0  0  0  0  0  0  0
    0.7407    2.1058    0.0000 O   0  0  0  0  0  0  0  0  0  0  0  0
   -0.4304    4.4249    0.0000 O   0  0  0  0  0  0  0  0  0  0  0  0
   -0.7661   -1.5657    0.0000 C   0  0  0  0  0  0  0  0  0  0  0  0
   -2.1001   -0.8799    0.0000 C   0  0  0  0  0  0  0  0  0  0  0  0
  1  2  1  0
  2  3  1  0
  3  4  2  0
  3  5  1  0
  5  6  1  0
  6  7  1  0
  7  8  1  6
  7  9  1  0
  9 10  1  6
 10 11  1  0
 12 11  1  6
 12 13  1  0
 13 14  1  1
 14 15  1  1
 14 16  1  0
 17 16  1  1
 17 18  1  0
 18 19  1  0
 19 20  1  1
 19 21  1  0
 21 22  1  0
 22 23  1  0
 23 24  1  6
 23 25  1  0
 25 26  1  6
 26 27  1  0
 27 28  1  1
 28 29  1  0
 29 30  1  0
 30 31  2  0
 30 32  1  0
 27 33  1  0
 33 34  1  6
 33  9  1  0
 33 12  1  0
 25 13  1  0
 23 17  1  0
M  END
>  <MS_ID>  (2326) 
MS2409

>  <SMILES>  (2326) 
COC(=O)CC[C@@H](C)[C@H]1CC[C@H]2[C@@H]3[C@H](O)C[C@@H]4C[C@H](O)CC[C@]4(C)[C@H]3C[C@H](OCC(=O)O)[C@]12C

>  <Structure_dimension>  (2326) 
2D

$$$$
MS2410
     RDKit          2D

 35 39  0  0  0  0  0  0  0  0999 V2000
   -1.8808   -4.0339    0.0000 C   0  0  0  0  0  0  0  0  0  0  0  0
   -1.1003   -2.7530    0.0000 C   0  0  0  0  0  0  0  0  0  0  0  0
   -1.8193   -1.4366    0.0000 C   0  0  0  0  0  0  0  0  0  0  0  0
   -3.3189   -1.4011    0.0000 C   0  0  0  0  0  0  0  0  0  0  0  0
   -4.0380   -0.0847    0.0000 C   0  0  0  0  0  0  0  0  0  0  0  0
   -3.2575    1.1962    0.0000 O   0  0  0  0  0  0  0  0  0  0  0  0
   -5.5376   -0.0492    0.0000 O   0  0  0  0  0  0  0  0  0  0  0  0
   -6.2567    1.2672    0.0000 C   0  0  0  0  0  0  0  0  0  0  0  0
   -7.7562    1.3026    0.0000 C   0  0  0  0  0  0  0  0  0  0  0  0
   -8.4753    2.6190    0.0000 C   0  0  0  0  0  0  0  0  0  0  0  0
   -9.9749    2.6545    0.0000 N   0  0  0  0  0  0  0  0  0  0  0  0
  -10.7554    1.3735    0.0000 C   0  0  0  0  0  0  0  0  0  0  0  0
  -10.0363    0.0571    0.0000 C   0  0  0  0  0  0  0  0  0  0  0  0
   -8.5367    0.0217    0.0000 N   0  0  0  0  0  0  0  0  0  0  0  0
    0.3993   -2.7884    0.0000 C   0  0  0  0  0  0  0  0  0  0  0  0
    1.2521   -4.0225    0.0000 C   0  0  0  0  0  0  0  0  0  0  0  0
    2.6892   -3.5928    0.0000 C   0  0  0  0  0  0  0  0  0  0  0  0
    2.7247   -2.0932    0.0000 C   0  0  0  0  0  0  0  0  0  0  0  0
    3.8628   -1.1162    0.0000 C   0  0  0  0  0  0  0  0  0  0  0  0
    5.2780   -1.6133    0.0000 C   0  0  0  0  0  0  0  0  0  0  0  0
    5.5551   -3.0875    0.0000 O   0  0  0  0  0  0  0  0  0  0  0  0
    6.4162   -0.6362    0.0000 C   0  0  0  0  0  0  0  0  0  0  0  0
    6.1391    0.8380    0.0000 C   0  0  0  0  0  0  0  0  0  0  0  0
    7.2772    1.8150    0.0000 C   0  0  0  0  0  0  0  0  0  0  0  0
    7.0001    3.2892    0.0000 C   0  0  0  0  0  0  0  0  0  0  0  0
    8.1382    4.2663    0.0000 O   0  0  0  0  0  0  0  0  0  0  0  0
    5.5849    3.7863    0.0000 C   0  0  0  0  0  0  0  0  0  0  0  0
    4.4467    2.8093    0.0000 C   0  0  0  0  0  0  0  0  0  0  0  0
    4.7238    1.3351    0.0000 C   0  0  0  0  0  0  0  0  0  0  0  0
    3.3086    1.8322    0.0000 C   0  0  0  0  0  0  0  0  0  0  0  0
    3.5857    0.3580    0.0000 C   0  0  0  0  0  0  0  0  0  0  0  0
    2.1705    0.8551    0.0000 C   0  0  0  0  0  0  0  0  0  0  0  0
    1.0323   -0.1219    0.0000 C   0  0  0  0  0  0  0  0  0  0  0  0
    1.3094   -1.5961    0.0000 C   0  0  0  0  0  0  0  0  0  0  0  0
   -0.1500   -1.2496    0.0000 C   0  0  0  0  0  0  0  0  0  0  0  0
  2  1  1  6
  2  3  1  0
  3  4  1  0
  4  5  1  0
  5  6  2  0
  5  7  1  0
  7  8  1  0
  8  9  1  0
  9 10  2  0
 10 11  1  0
 11 12  2  0
 12 13  1  0
 13 14  2  0
  2 15  1  0
 15 16  1  6
 16 17  1  0
 18 17  1  6
 18 19  1  0
 19 20  1  1
 20 21  1  1
 20 22  1  0
 23 22  1  1
 23 24  1  0
 24 25  1  0
 25 26  1  1
 25 27  1  0
 27 28  1  0
 28 29  1  0
 29 30  1  6
 29 31  1  0
 31 32  1  6
 32 33  1  0
 33 34  1  0
 34 35  1  6
 14  9  1  0
 34 15  1  0
 34 18  1  0
 31 19  1  0
 29 23  1  0
M  END
>  <MS_ID>  (2327) 
MS2410

>  <SMILES>  (2327) 
C[C@H](CCC(=O)OCc1cnccn1)[C@H]1CC[C@H]2[C@@H]3[C@H](O)C[C@@H]4C[C@H](O)CC[C@]4(C)[C@H]3CC[C@]12C

>  <Structure_dimension>  (2327) 
2D

$$$$
MS2411
     RDKit          2D

 33 36  0  0  0  0  0  0  0  0999 V2000
   -6.2936   -1.6052    0.0000 C   0  0  0  0  0  0  0  0  0  0  0  0
   -5.0544   -0.7601    0.0000 C   0  0  0  0  0  0  0  0  0  0  0  0
   -5.1667    0.7357    0.0000 C   0  0  0  0  0  0  0  0  0  0  0  0
   -6.5182    1.3864    0.0000 C   0  0  0  0  0  0  0  0  0  0  0  0
   -6.6305    2.8822    0.0000 C   0  0  0  0  0  0  0  0  0  0  0  0
   -5.3912    3.7273    0.0000 O   0  0  0  0  0  0  0  0  0  0  0  0
   -7.9820    3.5328    0.0000 O   0  0  0  0  0  0  0  0  0  0  0  0
   -3.7029   -1.4107    0.0000 C   0  0  0  0  0  0  0  0  0  0  0  0
   -3.4348   -2.8866    0.0000 C   0  0  0  0  0  0  0  0  0  0  0  0
   -1.9484   -3.0878    0.0000 C   0  0  0  0  0  0  0  0  0  0  0  0
   -1.2374   -4.4086    0.0000 O   0  0  0  0  0  0  0  0  0  0  0  0
   -1.2977   -1.7363    0.0000 C   0  0  0  0  0  0  0  0  0  0  0  0
    0.1420   -1.3154    0.0000 C   0  0  0  0  0  0  0  0  0  0  0  0
    1.2263   -2.3519    0.0000 C   0  0  0  0  0  0  0  0  0  0  0  0
    0.8709   -3.8092    0.0000 O   0  0  0  0  0  0  0  0  0  0  0  0
    2.6661   -1.9311    0.0000 C   0  0  0  0  0  0  0  0  0  0  0  0
    3.0216   -0.4738    0.0000 C   0  0  0  0  0  0  0  0  0  0  0  0
    4.4613   -0.0530    0.0000 C   0  0  0  0  0  0  0  0  0  0  0  0
    4.8168    1.4043    0.0000 C   0  0  0  0  0  0  0  0  0  0  0  0
    6.2565    1.8251    0.0000 O   0  0  0  0  0  0  0  0  0  0  0  0
    7.3408    0.7886    0.0000 S   0  0  0  0  0  0  0  0  0  0  0  0
    6.3044   -0.2957    0.0000 O   0  0  0  0  0  0  0  0  0  0  0  0
    8.3773    1.8729    0.0000 O   0  0  0  0  0  0  0  0  0  0  0  0
    8.4252   -0.2478    0.0000 O   0  0  0  0  0  0  0  0  0  0  0  0
    3.7325    2.4407    0.0000 C   0  0  0  0  0  0  0  0  0  0  0  0
    2.2927    2.0199    0.0000 C   0  0  0  0  0  0  0  0  0  0  0  0
    1.9372    0.5626    0.0000 C   0  0  0  0  0  0  0  0  0  0  0  0
    0.8529    1.5991    0.0000 C   0  0  0  0  0  0  0  0  0  0  0  0
    0.4975    0.1418    0.0000 C   0  0  0  0  0  0  0  0  0  0  0  0
   -0.5868    1.1783    0.0000 C   0  0  0  0  0  0  0  0  0  0  0  0
   -2.0266    0.7575    0.0000 C   0  0  0  0  0  0  0  0  0  0  0  0
   -2.3820   -0.6998    0.0000 C   0  0  0  0  0  0  0  0  0  0  0  0
   -3.5688    0.2177    0.0000 C   0  0  0  0  0  0  0  0  0  0  0  0
  2  1  1  6
  2  3  1  0
  3  4  1  0
  4  5  1  0
  5  6  2  0
  5  7  1  0
  2  8  1  0
  8  9  1  6
  9 10  1  0
 10 11  2  0
 12 10  1  6
 12 13  1  0
 13 14  1  1
 14 15  1  6
 14 16  1  0
 17 16  1  1
 17 18  1  0
 18 19  1  0
 19 20  1  1
 20 21  1  0
 21 22  2  0
 21 23  2  0
 21 24  1  0
 19 25  1  0
 25 26  1  0
 26 27  1  0
 27 28  1  6
 27 29  1  0
 29 30  1  6
 30 31  1  0
 31 32  1  0
 32 33  1  6
 32  8  1  0
 32 12  1  0
 29 13  1  0
 27 17  1  0
M  END
>  <MS_ID>  (2328) 
MS2411

>  <SMILES>  (2328) 
C[C@H](CCC(=O)O)[C@H]1CC(=O)[C@H]2[C@@H]3[C@@H](O)C[C@@H]4C[C@H](OS(=O)(=O)O)CC[C@]4(C)[C@H]3CC[C@]12C

>  <Structure_dimension>  (2328) 
2D

$$$$
MS2412
     RDKit          2D

 33 37  0  0  0  0  0  0  0  0999 V2000
   -3.4505   -3.2444    0.0000 C   0  0  0  0  0  0  0  0  0  0  0  0
   -2.4721   -2.1074    0.0000 C   0  0  0  0  0  0  0  0  0  0  0  0
   -2.9676   -0.6916    0.0000 C   0  0  0  0  0  0  0  0  0  0  0  0
   -4.4415   -0.4128    0.0000 C   0  0  0  0  0  0  0  0  0  0  0  0
   -4.9370    1.0030    0.0000 C   0  0  0  0  0  0  0  0  0  0  0  0
   -3.9586    2.1400    0.0000 O   0  0  0  0  0  0  0  0  0  0  0  0
   -6.4109    1.2817    0.0000 C   0  0  0  0  0  0  0  0  0  0  0  0
   -7.5027    0.2532    0.0000 N   0  0  0  0  0  0  0  0  0  0  0  0
   -8.8183    0.9738    0.0000 N   0  0  0  0  0  0  0  0  0  0  0  0
   -8.5395    2.4477    0.0000 N   0  0  0  0  0  0  0  0  0  0  0  0
   -7.0517    2.6380    0.0000 N   0  0  0  0  0  0  0  0  0  0  0  0
   -0.9983   -2.3862    0.0000 C   0  0  0  0  0  0  0  0  0  0  0  0
   -0.3575   -3.7424    0.0000 C   0  0  0  0  0  0  0  0  0  0  0  0
    1.1304   -3.5521    0.0000 C   0  0  0  0  0  0  0  0  0  0  0  0
    1.4092   -2.0783    0.0000 C   0  0  0  0  0  0  0  0  0  0  0  0
    2.6910   -1.2992    0.0000 C   0  0  0  0  0  0  0  0  0  0  0  0
    4.0066   -2.0198    0.0000 C   0  0  0  0  0  0  0  0  0  0  0  0
    4.0403   -3.5194    0.0000 O   0  0  0  0  0  0  0  0  0  0  0  0
    5.2884   -1.2408    0.0000 C   0  0  0  0  0  0  0  0  0  0  0  0
    5.2547    0.2589    0.0000 C   0  0  0  0  0  0  0  0  0  0  0  0
    6.5365    1.0379    0.0000 C   0  0  0  0  0  0  0  0  0  0  0  0
    6.5028    2.5375    0.0000 C   0  0  0  0  0  0  0  0  0  0  0  0
    7.7846    3.3166    0.0000 O   0  0  0  0  0  0  0  0  0  0  0  0
    5.1872    3.2581    0.0000 C   0  0  0  0  0  0  0  0  0  0  0  0
    3.9054    2.4791    0.0000 C   0  0  0  0  0  0  0  0  0  0  0  0
    3.9391    0.9794    0.0000 C   0  0  0  0  0  0  0  0  0  0  0  0
    2.6235    1.7000    0.0000 C   0  0  0  0  0  0  0  0  0  0  0  0
    2.6573    0.2004    0.0000 C   0  0  0  0  0  0  0  0  0  0  0  0
    1.3417    0.9210    0.0000 C   0  0  0  0  0  0  0  0  0  0  0  0
    0.0598    0.1420    0.0000 C   0  0  0  0  0  0  0  0  0  0  0  0
   -1.2557    0.8625    0.0000 O   0  0  0  0  0  0  0  0  0  0  0  0
    0.0936   -1.3577    0.0000 C   0  0  0  0  0  0  0  0  0  0  0  0
   -1.2901   -0.7785    0.0000 C   0  0  0  0  0  0  0  0  0  0  0  0
  2  1  1  6
  2  3  1  0
  3  4  1  0
  4  5  1  0
  5  6  2  0
  5  7  1  0
  7  8  2  0
  8  9  1  0
  9 10  2  0
 10 11  1  0
  2 12  1  0
 12 13  1  6
 13 14  1  0
 15 14  1  6
 15 16  1  0
 16 17  1  1
 17 18  1  1
 17 19  1  0
 20 19  1  1
 20 21  1  0
 21 22  1  0
 22 23  1  1
 22 24  1  0
 24 25  1  0
 25 26  1  0
 26 27  1  6
 26 28  1  0
 28 29  1  6
 29 30  1  0
 30 31  1  1
 30 32  1  0
 32 33  1  6
 11  7  1  0
 32 12  1  0
 32 15  1  0
 28 16  1  0
 26 20  1  0
M  END
>  <MS_ID>  (2329) 
MS2412

>  <SMILES>  (2329) 
C[C@H](CCC(=O)c1nnn[nH]1)[C@H]1CC[C@H]2[C@@H]3[C@H](O)C[C@@H]4C[C@H](O)CC[C@]4(C)[C@H]3C[C@H](O)[C@]12C

>  <Structure_dimension>  (2329) 
2D

$$$$
MS2413
     RDKit          2D

 31 34  0  0  0  0  0  0  0  0999 V2000
   -4.3058   -2.9986    0.0000 C   0  0  0  0  0  0  0  0  0  0  0  0
   -3.2228   -1.9608    0.0000 C   0  0  0  0  0  0  0  0  0  0  0  0
   -3.5801   -0.5039    0.0000 C   0  0  0  0  0  0  0  0  0  0  0  0
   -5.0204   -0.0850    0.0000 C   0  0  0  0  0  0  0  0  0  0  0  0
   -5.3777    1.3719    0.0000 C   0  0  0  0  0  0  0  0  0  0  0  0
   -6.8180    1.7908    0.0000 O   0  0  0  0  0  0  0  0  0  0  0  0
   -4.2947    2.4097    0.0000 S   0  0  0  0  0  0  0  0  0  0  0  0
   -3.2117    3.4476    0.0000 C   0  0  0  0  0  0  0  0  0  0  0  0
   -3.2569    1.3267    0.0000 O   0  0  0  0  0  0  0  0  0  0  0  0
   -5.3326    3.4927    0.0000 O   0  0  0  0  0  0  0  0  0  0  0  0
   -1.7825   -2.3797    0.0000 C   0  0  0  0  0  0  0  0  0  0  0  0
   -1.2749   -3.7912    0.0000 C   0  0  0  0  0  0  0  0  0  0  0  0
    0.2244   -3.7446    0.0000 C   0  0  0  0  0  0  0  0  0  0  0  0
    0.6434   -2.3043    0.0000 C   0  0  0  0  0  0  0  0  0  0  0  0
    1.9941   -1.6519    0.0000 C   0  0  0  0  0  0  0  0  0  0  0  0
    3.2344   -2.4955    0.0000 C   0  0  0  0  0  0  0  0  0  0  0  0
    4.5851   -1.8431    0.0000 C   0  0  0  0  0  0  0  0  0  0  0  0
    4.6955   -0.3472    0.0000 C   0  0  0  0  0  0  0  0  0  0  0  0
    6.0462    0.3052    0.0000 C   0  0  0  0  0  0  0  0  0  0  0  0
    6.1565    1.8012    0.0000 C   0  0  0  0  0  0  0  0  0  0  0  0
    7.5072    2.4536    0.0000 O   0  0  0  0  0  0  0  0  0  0  0  0
    4.9162    2.6447    0.0000 C   0  0  0  0  0  0  0  0  0  0  0  0
    3.5655    1.9923    0.0000 C   0  0  0  0  0  0  0  0  0  0  0  0
    3.4551    0.4964    0.0000 C   0  0  0  0  0  0  0  0  0  0  0  0
    2.2148    1.3399    0.0000 C   0  0  0  0  0  0  0  0  0  0  0  0
    2.1044   -0.1560    0.0000 C   0  0  0  0  0  0  0  0  0  0  0  0
    0.8641    0.6875    0.0000 C   0  0  0  0  0  0  0  0  0  0  0  0
   -0.4866    0.0352    0.0000 C   0  0  0  0  0  0  0  0  0  0  0  0
   -1.7269    0.8787    0.0000 O   0  0  0  0  0  0  0  0  0  0  0  0
   -0.5969   -1.4608    0.0000 C   0  0  0  0  0  0  0  0  0  0  0  0
   -1.9187   -0.7515    0.0000 C   0  0  0  0  0  0  0  0  0  0  0  0
  2  1  1  6
  2  3  1  0
  3  4  1  0
  4  5  1  0
  5  6  2  0
  5  7  1  0
  7  8  1  0
  7  9  2  0
  7 10  2  0
  2 11  1  0
 11 12  1  6
 12 13  1  0
 14 13  1  6
 14 15  1  0
 15 16  1  1
 16 17  1  0
 18 17  1  1
 18 19  1  0
 19 20  1  0
 20 21  1  1
 20 22  1  0
 22 23  1  0
 23 24  1  0
 24 25  1  6
 24 26  1  0
 26 27  1  6
 27 28  1  0
 28 29  1  1
 28 30  1  0
 30 31  1  6
 30 11  1  0
 30 14  1  0
 26 15  1  0
 24 18  1  0
M  END
>  <MS_ID>  (2330) 
MS2413

>  <SMILES>  (2330) 
C[C@H](CCC(=O)S(C)(=O)=O)[C@H]1CC[C@H]2[C@@H]3CC[C@@H]4C[C@H](O)CC[C@]4(C)[C@H]3C[C@H](O)[C@]12C

>  <Structure_dimension>  (2330) 
2D

$$$$
MS2414
     RDKit          2D

 32 35  0  0  0  0  0  0  0  0999 V2000
   -8.6341    3.0906    0.0000 C   0  0  0  0  0  0  0  0  0  0  0  0
   -7.1636    2.7950    0.0000 C   0  0  0  0  0  0  0  0  0  0  0  0
   -6.6843    1.3736    0.0000 C   0  0  0  0  0  0  0  0  0  0  0  0
   -7.6755    0.2478    0.0000 C   0  0  0  0  0  0  0  0  0  0  0  0
   -5.2137    1.0780    0.0000 C   0  0  0  0  0  0  0  0  0  0  0  0
   -4.2224    2.2038    0.0000 O   0  0  0  0  0  0  0  0  0  0  0  0
   -4.7344   -0.3434    0.0000 C   0  0  0  0  0  0  0  0  0  0  0  0
   -3.2638   -0.6389    0.0000 C   0  0  0  0  0  0  0  0  0  0  0  0
   -2.7845   -2.0603    0.0000 C   0  0  0  0  0  0  0  0  0  0  0  0
   -3.7758   -3.1861    0.0000 C   0  0  0  0  0  0  0  0  0  0  0  0
   -1.3139   -2.3559    0.0000 C   0  0  0  0  0  0  0  0  0  0  0  0
   -0.6886   -3.7194    0.0000 C   0  0  0  0  0  0  0  0  0  0  0  0
    0.8013   -3.5461    0.0000 C   0  0  0  0  0  0  0  0  0  0  0  0
    1.0969   -2.0755    0.0000 C   0  0  0  0  0  0  0  0  0  0  0  0
    2.3876   -1.3111    0.0000 C   0  0  0  0  0  0  0  0  0  0  0  0
    3.6948   -2.0467    0.0000 C   0  0  0  0  0  0  0  0  0  0  0  0
    3.7114   -3.5466    0.0000 O   0  0  0  0  0  0  0  0  0  0  0  0
    4.9855   -1.2823    0.0000 C   0  0  0  0  0  0  0  0  0  0  0  0
    4.9689    0.2176    0.0000 C   0  0  0  0  0  0  0  0  0  0  0  0
    6.2595    0.9819    0.0000 C   0  0  0  0  0  0  0  0  0  0  0  0
    6.2429    2.4818    0.0000 C   0  0  0  0  0  0  0  0  0  0  0  0
    7.5335    3.2462    0.0000 O   0  0  0  0  0  0  0  0  0  0  0  0
    4.9356    3.2174    0.0000 C   0  0  0  0  0  0  0  0  0  0  0  0
    3.6450    2.4530    0.0000 C   0  0  0  0  0  0  0  0  0  0  0  0
    3.6616    0.9531    0.0000 C   0  0  0  0  0  0  0  0  0  0  0  0
    2.3543    1.6887    0.0000 C   0  0  0  0  0  0  0  0  0  0  0  0
    2.3709    0.1888    0.0000 C   0  0  0  0  0  0  0  0  0  0  0  0
    1.0637    0.9243    0.0000 C   0  0  0  0  0  0  0  0  0  0  0  0
   -0.2270    0.1600    0.0000 C   0  0  0  0  0  0  0  0  0  0  0  0
   -1.5342    0.8956    0.0000 O   0  0  0  0  0  0  0  0  0  0  0  0
   -0.2104   -1.3399    0.0000 C   0  0  0  0  0  0  0  0  0  0  0  0
   -1.5874   -0.7450    0.0000 C   0  0  0  0  0  0  0  0  0  0  0  0
  1  2  1  0
  2  3  2  0
  3  4  1  0
  3  5  1  0
  5  6  2  0
  5  7  1  0
  7  8  1  0
  8  9  1  0
  9 10  1  6
  9 11  1  0
 11 12  1  6
 12 13  1  0
 14 13  1  6
 14 15  1  0
 15 16  1  1
 16 17  1  1
 16 18  1  0
 19 18  1  1
 19 20  1  0
 20 21  1  0
 21 22  1  1
 21 23  1  0
 23 24  1  0
 24 25  1  0
 25 26  1  6
 25 27  1  0
 27 28  1  6
 28 29  1  0
 29 30  1  1
 29 31  1  0
 31 32  1  6
 31 11  1  0
 31 14  1  0
 27 15  1  0
 25 19  1  0
M  END
>  <MS_ID>  (2331) 
MS2414

>  <SMILES>  (2331) 
C/C=C(\C)C(=O)CC[C@@H](C)[C@H]1CC[C@H]2[C@@H]3[C@H](O)C[C@@H]4C[C@H](O)CC[C@]4(C)[C@H]3C[C@H](O)[C@]12C

>  <Structure_dimension>  (2331) 
2D

$$$$
MS2415
     RDKit          2D

 32 35  0  0  0  0  0  0  0  0999 V2000
   -8.5023    1.6543    0.0000 C   0  0  0  0  0  0  0  0  0  0  0  0
   -7.0076    1.5283    0.0000 C   0  0  0  0  0  0  0  0  0  0  0  0
   -6.3694    0.1708    0.0000 N   0  0  0  0  0  0  0  0  0  0  0  0
   -4.8747    0.0448    0.0000 C   0  0  0  0  0  0  0  0  0  0  0  0
   -4.0182    1.2762    0.0000 O   0  0  0  0  0  0  0  0  0  0  0  0
   -4.2365   -1.3127    0.0000 C   0  0  0  0  0  0  0  0  0  0  0  0
   -2.7418   -1.4387    0.0000 C   0  0  0  0  0  0  0  0  0  0  0  0
   -2.1036   -2.7962    0.0000 C   0  0  0  0  0  0  0  0  0  0  0  0
   -2.9601   -4.0276    0.0000 C   0  0  0  0  0  0  0  0  0  0  0  0
   -0.6089   -2.9222    0.0000 C   0  0  0  0  0  0  0  0  0  0  0  0
    0.1677   -4.2055    0.0000 C   0  0  0  0  0  0  0  0  0  0  0  0
    1.6282   -3.8635    0.0000 C   0  0  0  0  0  0  0  0  0  0  0  0
    1.7542   -2.3688    0.0000 C   0  0  0  0  0  0  0  0  0  0  0  0
    2.9493   -1.4623    0.0000 C   0  0  0  0  0  0  0  0  0  0  0  0
    4.3319   -2.0441    0.0000 C   0  0  0  0  0  0  0  0  0  0  0  0
    5.5270   -1.1376    0.0000 C   0  0  0  0  0  0  0  0  0  0  0  0
    5.3395    0.3507    0.0000 C   0  0  0  0  0  0  0  0  0  0  0  0
    6.5346    1.2572    0.0000 C   0  0  0  0  0  0  0  0  0  0  0  0
    6.3472    2.7454    0.0000 C   0  0  0  0  0  0  0  0  0  0  0  0
    7.5423    3.6519    0.0000 O   0  0  0  0  0  0  0  0  0  0  0  0
    4.9646    3.3271    0.0000 C   0  0  0  0  0  0  0  0  0  0  0  0
    3.7694    2.4207    0.0000 C   0  0  0  0  0  0  0  0  0  0  0  0
    3.9569    0.9324    0.0000 C   0  0  0  0  0  0  0  0  0  0  0  0
    2.5743    1.5142    0.0000 C   0  0  0  0  0  0  0  0  0  0  0  0
    2.7618    0.0259    0.0000 C   0  0  0  0  0  0  0  0  0  0  0  0
    1.3792    0.6077    0.0000 C   0  0  0  0  0  0  0  0  0  0  0  0
    0.1841   -0.2988    0.0000 C   0  0  0  0  0  0  0  0  0  0  0  0
    0.3716   -1.7870    0.0000 C   0  0  0  0  0  0  0  0  0  0  0  0
   -1.0642   -1.3530    0.0000 C   0  0  0  0  0  0  0  0  0  0  0  0
   -6.1511    2.7597    0.0000 C   0  0  0  0  0  0  0  0  0  0  0  0
   -4.6564    2.6337    0.0000 O   0  0  0  0  0  0  0  0  0  0  0  0
   -6.7893    4.1172    0.0000 O   0  0  0  0  0  0  0  0  0  0  0  0
  2  1  1  1
  2  3  1  0
  3  4  1  0
  4  5  2  0
  4  6  1  0
  6  7  1  0
  7  8  1  0
  8  9  1  6
  8 10  1  0
 10 11  1  6
 11 12  1  0
 13 12  1  6
 13 14  1  0
 14 15  1  1
 15 16  1  0
 17 16  1  1
 17 18  1  0
 18 19  1  0
 19 20  1  1
 19 21  1  0
 21 22  1  0
 22 23  1  0
 23 24  1  6
 23 25  1  0
 25 26  1  6
 26 27  1  0
 27 28  1  0
 28 29  1  6
  2 30  1  0
 30 31  2  0
 30 32  1  0
 28 10  1  0
 28 13  1  0
 25 14  1  0
 23 17  1  0
M  END
>  <MS_ID>  (2332) 
MS2415

>  <SMILES>  (2332) 
C[C@H](NC(=O)CC[C@@H](C)[C@H]1CC[C@H]2[C@@H]3CC[C@@H]4C[C@H](O)CC[C@]4(C)[C@H]3CC[C@]12C)C(=O)O

>  <Structure_dimension>  (2332) 
2D

$$$$
MS2416
     RDKit          2D

 31 34  0  0  0  0  0  0  0  0999 V2000
   -2.6128   -3.7484    0.0000 C   0  0  0  0  0  0  0  0  0  0  0  0
   -1.7683   -2.5088    0.0000 C   0  0  0  0  0  0  0  0  0  0  0  0
   -2.4196   -1.1576    0.0000 C   0  0  0  0  0  0  0  0  0  0  0  0
   -3.9155   -1.0460    0.0000 C   0  0  0  0  0  0  0  0  0  0  0  0
   -4.5668    0.3052    0.0000 C   0  0  0  0  0  0  0  0  0  0  0  0
   -3.7223    1.5449    0.0000 O   0  0  0  0  0  0  0  0  0  0  0  0
   -6.0626    0.4167    0.0000 O   0  0  0  0  0  0  0  0  0  0  0  0
   -6.7140    1.7679    0.0000 C   0  0  0  0  0  0  0  0  0  0  0  0
   -8.2098    1.8794    0.0000 C   0  0  0  0  0  0  0  0  0  0  0  0
   -9.0543    0.6398    0.0000 O   0  0  0  0  0  0  0  0  0  0  0  0
   -8.8612    3.2307    0.0000 O   0  0  0  0  0  0  0  0  0  0  0  0
   -0.2724   -2.6203    0.0000 C   0  0  0  0  0  0  0  0  0  0  0  0
    0.5166   -3.8960    0.0000 C   0  0  0  0  0  0  0  0  0  0  0  0
    1.9737   -3.5398    0.0000 C   0  0  0  0  0  0  0  0  0  0  0  0
    2.0852   -2.0440    0.0000 C   0  0  0  0  0  0  0  0  0  0  0  0
    3.2715   -1.1260    0.0000 C   0  0  0  0  0  0  0  0  0  0  0  0
    4.6596   -1.6943    0.0000 C   0  0  0  0  0  0  0  0  0  0  0  0
    5.8459   -0.7762    0.0000 C   0  0  0  0  0  0  0  0  0  0  0  0
    5.6440    0.7101    0.0000 C   0  0  0  0  0  0  0  0  0  0  0  0
    6.8302    1.6281    0.0000 C   0  0  0  0  0  0  0  0  0  0  0  0
    6.6283    3.1145    0.0000 C   0  0  0  0  0  0  0  0  0  0  0  0
    5.2402    3.6828    0.0000 C   0  0  0  0  0  0  0  0  0  0  0  0
    4.0539    2.7648    0.0000 C   0  0  0  0  0  0  0  0  0  0  0  0
    4.2558    1.2784    0.0000 C   0  0  0  0  0  0  0  0  0  0  0  0
    2.8676    1.8467    0.0000 C   0  0  0  0  0  0  0  0  0  0  0  0
    3.0696    0.3604    0.0000 C   0  0  0  0  0  0  0  0  0  0  0  0
    1.6814    0.9287    0.0000 C   0  0  0  0  0  0  0  0  0  0  0  0
    0.4951    0.0107    0.0000 C   0  0  0  0  0  0  0  0  0  0  0  0
   -0.8930    0.5790    0.0000 O   0  0  0  0  0  0  0  0  0  0  0  0
    0.6970   -1.4757    0.0000 C   0  0  0  0  0  0  0  0  0  0  0  0
   -0.7429   -1.0556    0.0000 C   0  0  0  0  0  0  0  0  0  0  0  0
  2  1  1  6
  2  3  1  0
  3  4  1  0
  4  5  1  0
  5  6  2  0
  5  7  1  0
  7  8  1  0
  8  9  1  0
  9 10  2  0
  9 11  1  0
  2 12  1  0
 12 13  1  6
 13 14  1  0
 15 14  1  6
 15 16  1  0
 16 17  1  1
 17 18  1  0
 19 18  1  1
 19 20  1  0
 20 21  1  0
 21 22  1  0
 22 23  1  0
 23 24  1  0
 24 25  1  6
 24 26  1  0
 26 27  1  6
 27 28  1  0
 28 29  1  6
 28 30  1  0
 30 31  1  6
 30 12  1  0
 30 15  1  0
 26 16  1  0
 24 19  1  0
M  END
>  <MS_ID>  (2333) 
MS2416

>  <SMILES>  (2333) 
C[C@H](CCC(=O)OCC(=O)O)[C@H]1CC[C@H]2[C@@H]3CC[C@@H]4CCCC[C@]4(C)[C@H]3C[C@@H](O)[C@]12C

>  <Structure_dimension>  (2333) 
2D

$$$$
MS2417
     RDKit          2D

 35 39  0  0  0  0  0  0  0  0999 V2000
   -1.7226   -4.5748    0.0000 C   0  0  0  0  0  0  0  0  0  0  0  0
   -1.0860   -3.2166    0.0000 C   0  0  0  0  0  0  0  0  0  0  0  0
   -1.9441   -1.9862    0.0000 C   0  0  0  0  0  0  0  0  0  0  0  0
   -3.4386   -2.1141    0.0000 C   0  0  0  0  0  0  0  0  0  0  0  0
   -4.2966   -0.8837    0.0000 C   0  0  0  0  0  0  0  0  0  0  0  0
   -3.6601    0.4746    0.0000 O   0  0  0  0  0  0  0  0  0  0  0  0
   -5.7911   -1.0116    0.0000 O   0  0  0  0  0  0  0  0  0  0  0  0
   -6.6492    0.2188    0.0000 C   0  0  0  0  0  0  0  0  0  0  0  0
   -6.0126    1.5771    0.0000 C   0  0  0  0  0  0  0  0  0  0  0  0
   -6.8706    2.8074    0.0000 C   0  0  0  0  0  0  0  0  0  0  0  0
   -8.3652    2.6796    0.0000 C   0  0  0  0  0  0  0  0  0  0  0  0
   -9.2232    3.9099    0.0000 N   0  0  0  0  0  0  0  0  0  0  0  0
   -9.0017    1.3213    0.0000 C   0  0  0  0  0  0  0  0  0  0  0  0
   -8.1437    0.0909    0.0000 C   0  0  0  0  0  0  0  0  0  0  0  0
    0.4085   -3.0887    0.0000 C   0  0  0  0  0  0  0  0  0  0  0  0
    1.3904   -4.2226    0.0000 C   0  0  0  0  0  0  0  0  0  0  0  0
    2.7723   -3.6392    0.0000 C   0  0  0  0  0  0  0  0  0  0  0  0
    2.6444   -2.1446    0.0000 C   0  0  0  0  0  0  0  0  0  0  0  0
    3.6695   -1.0496    0.0000 C   0  0  0  0  0  0  0  0  0  0  0  0
    5.1304   -1.3898    0.0000 C   0  0  0  0  0  0  0  0  0  0  0  0
    5.5662   -2.8251    0.0000 O   0  0  0  0  0  0  0  0  0  0  0  0
    6.1555   -0.2947    0.0000 C   0  0  0  0  0  0  0  0  0  0  0  0
    5.7197    1.1406    0.0000 C   0  0  0  0  0  0  0  0  0  0  0  0
    6.7448    2.2356    0.0000 C   0  0  0  0  0  0  0  0  0  0  0  0
    6.3090    3.6709    0.0000 C   0  0  0  0  0  0  0  0  0  0  0  0
    7.3341    4.7660    0.0000 O   0  0  0  0  0  0  0  0  0  0  0  0
    4.8481    4.0112    0.0000 C   0  0  0  0  0  0  0  0  0  0  0  0
    3.8230    2.9161    0.0000 C   0  0  0  0  0  0  0  0  0  0  0  0
    4.2588    1.4808    0.0000 C   0  0  0  0  0  0  0  0  0  0  0  0
    2.7979    1.8210    0.0000 C   0  0  0  0  0  0  0  0  0  0  0  0
    3.2337    0.3857    0.0000 C   0  0  0  0  0  0  0  0  0  0  0  0
    1.7728    0.7259    0.0000 C   0  0  0  0  0  0  0  0  0  0  0  0
    0.7477   -0.3691    0.0000 C   0  0  0  0  0  0  0  0  0  0  0  0
    1.1835   -1.8044    0.0000 C   0  0  0  0  0  0  0  0  0  0  0  0
   -0.3050   -1.6188    0.0000 C   0  0  0  0  0  0  0  0  0  0  0  0
  2  1  1  6
  2  3  1  0
  3  4  1  0
  4  5  1  0
  5  6  2  0
  5  7  1  0
  7  8  1  0
  8  9  2  0
  9 10  1  0
 10 11  2  0
 11 12  1  0
 11 13  1  0
 13 14  2  0
  2 15  1  0
 15 16  1  6
 16 17  1  0
 18 17  1  6
 18 19  1  0
 19 20  1  1
 20 21  1  1
 20 22  1  0
 23 22  1  1
 23 24  1  0
 24 25  1  0
 25 26  1  1
 25 27  1  0
 27 28  1  0
 28 29  1  0
 29 30  1  6
 29 31  1  0
 31 32  1  6
 32 33  1  0
 33 34  1  0
 34 35  1  6
 14  8  1  0
 34 15  1  0
 34 18  1  0
 31 19  1  0
 29 23  1  0
M  END
>  <MS_ID>  (2334) 
MS2417

>  <SMILES>  (2334) 
C[C@H](CCC(=O)Oc1ccc(N)cc1)[C@H]1CC[C@H]2[C@@H]3[C@H](O)C[C@@H]4C[C@H](O)CC[C@]4(C)[C@H]3CC[C@]12C

>  <Structure_dimension>  (2334) 
2D

$$$$
MS2418
     RDKit          2D

 32 36  0  0  0  0  0  0  0  0999 V2000
   -6.3766   -1.6468    0.0000 C   0  0  0  0  0  0  0  0  0  0  0  0
   -5.0756   -0.9002    0.0000 C   0  0  0  0  0  0  0  0  0  0  0  0
   -5.0716    0.5998    0.0000 C   0  0  0  0  0  0  0  0  0  0  0  0
   -6.3687    1.3532    0.0000 C   0  0  0  0  0  0  0  0  0  0  0  0
   -6.3647    2.8532    0.0000 C   0  0  0  0  0  0  0  0  0  0  0  0
   -5.0637    3.5998    0.0000 O   0  0  0  0  0  0  0  0  0  0  0  0
   -7.6617    3.6066    0.0000 O   0  0  0  0  0  0  0  0  0  0  0  0
   -3.7785   -1.6537    0.0000 C   0  0  0  0  0  0  0  0  0  0  0  0
   -3.6257   -3.1459    0.0000 C   0  0  0  0  0  0  0  0  0  0  0  0
   -2.1593   -3.4616    0.0000 C   0  0  0  0  0  0  0  0  0  0  0  0
   -1.4059   -2.1646    0.0000 C   0  0  0  0  0  0  0  0  0  0  0  0
    0.0622   -1.8566    0.0000 C   0  0  0  0  0  0  0  0  0  0  0  0
    1.0629   -2.9740    0.0000 C   0  0  0  0  0  0  0  0  0  0  0  0
    2.5310   -2.6660    0.0000 C   0  0  0  0  0  0  0  0  0  0  0  0
    2.9983   -1.2406    0.0000 C   0  0  0  0  0  0  0  0  0  0  0  0
    4.4663   -0.9326    0.0000 C   0  0  0  0  0  0  0  0  0  0  0  0
    4.9336    0.4927    0.0000 C   0  0  0  0  0  0  0  0  0  0  0  0
    6.4016    0.8007    0.0000 C   0  0  0  0  0  0  0  0  0  0  0  0
    7.0154    2.1694    0.0000 C   0  0  0  0  0  0  0  0  0  0  0  0
    8.5067    2.0086    0.0000 C   0  0  0  0  0  0  0  0  0  0  0  0
    8.8147    0.5406    0.0000 O   0  0  0  0  0  0  0  0  0  0  0  0
    7.5137   -0.2060    0.0000 C   0  0  0  0  0  0  0  0  0  0  0  0
    3.9329    1.6101    0.0000 C   0  0  0  0  0  0  0  0  0  0  0  0
    2.4648    1.3021    0.0000 C   0  0  0  0  0  0  0  0  0  0  0  0
    1.9975   -0.1233    0.0000 C   0  0  0  0  0  0  0  0  0  0  0  0
    0.9968    0.9941    0.0000 C   0  0  0  0  0  0  0  0  0  0  0  0
    0.5295   -0.4312    0.0000 C   0  0  0  0  0  0  0  0  0  0  0  0
   -0.4713    0.6861    0.0000 C   0  0  0  0  0  0  0  0  0  0  0  0
   -1.9393    0.3782    0.0000 C   0  0  0  0  0  0  0  0  0  0  0  0
   -2.9400    1.4955    0.0000 O   0  0  0  0  0  0  0  0  0  0  0  0
   -2.4066   -1.0472    0.0000 C   0  0  0  0  0  0  0  0  0  0  0  0
   -3.5187   -0.0405    0.0000 C   0  0  0  0  0  0  0  0  0  0  0  0
  2  1  1  6
  2  3  1  0
  3  4  1  0
  4  5  1  0
  5  6  2  0
  5  7  1  0
  2  8  1  0
  8  9  1  6
  9 10  1  0
 11 10  1  6
 11 12  1  0
 12 13  1  1
 13 14  1  0
 15 14  1  1
 15 16  1  0
 16 17  1  0
 17 18  1  1
 18 19  1  0
 19 20  2  0
 20 21  1  0
 21 22  1  0
 17 23  1  0
 23 24  1  0
 24 25  1  0
 25 26  1  6
 25 27  1  0
 27 28  1  6
 28 29  1  0
 29 30  1  6
 29 31  1  0
 31 32  1  6
 31  8  1  0
 31 11  1  0
 27 12  1  0
 25 15  1  0
 22 18  2  0
M  END
>  <MS_ID>  (2335) 
MS2418

>  <SMILES>  (2335) 
C[C@H](CCC(=O)O)[C@H]1CC[C@H]2[C@@H]3CC[C@@H]4C[C@H](c5ccoc5)CC[C@]4(C)[C@H]3C[C@@H](O)[C@]12C

>  <Structure_dimension>  (2335) 
2D

$$$$
MS2419
     RDKit          2D

 36 40  0  0  0  0  0  0  0  0999 V2000
   -2.7359   -3.5077    0.0000 C   0  0  0  0  0  0  0  0  0  0  0  0
   -1.8419   -2.3033    0.0000 C   0  0  0  0  0  0  0  0  0  0  0  0
   -2.4380   -0.9268    0.0000 C   0  0  0  0  0  0  0  0  0  0  0  0
   -3.9281   -0.7548    0.0000 C   0  0  0  0  0  0  0  0  0  0  0  0
   -4.5241    0.6217    0.0000 C   0  0  0  0  0  0  0  0  0  0  0  0
   -3.6301    1.8262    0.0000 O   0  0  0  0  0  0  0  0  0  0  0  0
   -6.0142    0.7937    0.0000 C   0  0  0  0  0  0  0  0  0  0  0  0
   -6.6103    2.1702    0.0000 C   0  0  0  0  0  0  0  0  0  0  0  0
   -8.1004    2.3423    0.0000 C   0  0  0  0  0  0  0  0  0  0  0  0
   -8.6965    3.7187    0.0000 O   0  0  0  0  0  0  0  0  0  0  0  0
   -8.9945    1.1378    0.0000 C   0  0  0  0  0  0  0  0  0  0  0  0
   -8.3984   -0.2387    0.0000 C   0  0  0  0  0  0  0  0  0  0  0  0
   -6.9083   -0.4107    0.0000 C   0  0  0  0  0  0  0  0  0  0  0  0
   -6.3122   -1.7872    0.0000 O   0  0  0  0  0  0  0  0  0  0  0  0
   -0.3518   -2.4753    0.0000 C   0  0  0  0  0  0  0  0  0  0  0  0
    0.3849   -3.7819    0.0000 C   0  0  0  0  0  0  0  0  0  0  0  0
    1.8552   -3.4851    0.0000 C   0  0  0  0  0  0  0  0  0  0  0  0
    2.0273   -1.9950    0.0000 C   0  0  0  0  0  0  0  0  0  0  0  0
    3.2497   -1.1257    0.0000 C   0  0  0  0  0  0  0  0  0  0  0  0
    4.6137   -1.7498    0.0000 C   0  0  0  0  0  0  0  0  0  0  0  0
    4.7553   -3.2431    0.0000 O   0  0  0  0  0  0  0  0  0  0  0  0
    5.8362   -0.8806    0.0000 C   0  0  0  0  0  0  0  0  0  0  0  0
    7.2002   -1.5046    0.0000 O   0  0  0  0  0  0  0  0  0  0  0  0
    5.6947    0.6127    0.0000 C   0  0  0  0  0  0  0  0  0  0  0  0
    6.9171    1.4820    0.0000 C   0  0  0  0  0  0  0  0  0  0  0  0
    6.7756    2.9753    0.0000 C   0  0  0  0  0  0  0  0  0  0  0  0
    7.9981    3.8445    0.0000 O   0  0  0  0  0  0  0  0  0  0  0  0
    5.4116    3.5993    0.0000 C   0  0  0  0  0  0  0  0  0  0  0  0
    4.1891    2.7301    0.0000 C   0  0  0  0  0  0  0  0  0  0  0  0
    4.3307    1.2368    0.0000 C   0  0  0  0  0  0  0  0  0  0  0  0
    2.9666    1.8609    0.0000 C   0  0  0  0  0  0  0  0  0  0  0  0
    3.1082    0.3676    0.0000 C   0  0  0  0  0  0  0  0  0  0  0  0
    1.7442    0.9916    0.0000 C   0  0  0  0  0  0  0  0  0  0  0  0
    0.5217    0.1224    0.0000 C   0  0  0  0  0  0  0  0  0  0  0  0
    0.6632   -1.3709    0.0000 C   0  0  0  0  0  0  0  0  0  0  0  0
   -0.7585   -0.8928    0.0000 C   0  0  0  0  0  0  0  0  0  0  0  0
  2  1  1  6
  2  3  1  0
  3  4  1  0
  4  5  1  0
  5  6  2  0
  5  7  1  0
  7  8  2  0
  8  9  1  0
  9 10  1  0
  9 11  2  0
 11 12  1  0
 12 13  2  0
 13 14  1  0
  2 15  1  0
 15 16  1  6
 16 17  1  0
 18 17  1  6
 18 19  1  0
 19 20  1  1
 20 21  1  1
 20 22  1  0
 22 23  1  1
 22 24  1  0
 24 25  1  1
 25 26  1  0
 26 27  1  1
 26 28  1  0
 28 29  1  0
 29 30  1  0
 30 31  1  6
 30 32  1  0
 32 33  1  6
 33 34  1  0
 34 35  1  0
 35 36  1  6
 13  7  1  0
 35 15  1  0
 35 18  1  0
 32 19  1  0
 30 24  1  0
M  END
>  <MS_ID>  (2336) 
MS2419

>  <SMILES>  (2336) 
C[C@H](CCC(=O)c1cc(O)ccc1O)[C@H]1CC[C@H]2[C@@H]3[C@H](O)[C@H](O)[C@@H]4C[C@H](O)CC[C@]4(C)[C@H]3CC[C@]12C

>  <Structure_dimension>  (2336) 
2D

$$$$
MS2420
     RDKit          2D

 32 36  0  0  0  0  0  0  0  0999 V2000
   -3.4100   -3.2672    0.0000 C   0  0  0  0  0  0  0  0  0  0  0  0
   -2.4025   -2.1559    0.0000 C   0  0  0  0  0  0  0  0  0  0  0  0
   -2.8612   -0.7278    0.0000 C   0  0  0  0  0  0  0  0  0  0  0  0
   -4.3273   -0.4109    0.0000 C   0  0  0  0  0  0  0  0  0  0  0  0
   -4.7860    1.0172    0.0000 C   0  0  0  0  0  0  0  0  0  0  0  0
   -3.7785    2.1285    0.0000 O   0  0  0  0  0  0  0  0  0  0  0  0
   -6.2522    1.3341    0.0000 N   0  0  0  0  0  0  0  0  0  0  0  0
   -7.3703    0.3342    0.0000 C   0  0  0  0  0  0  0  0  0  0  0  0
   -8.6668    1.0886    0.0000 C   0  0  0  0  0  0  0  0  0  0  0  0
   -8.3499    2.5547    0.0000 N   0  0  0  0  0  0  0  0  0  0  0  0
   -6.8576    2.7065    0.0000 C   0  0  0  0  0  0  0  0  0  0  0  0
   -0.9363   -2.4728    0.0000 C   0  0  0  0  0  0  0  0  0  0  0  0
   -0.3309   -3.8451    0.0000 C   0  0  0  0  0  0  0  0  0  0  0  0
    1.1614   -3.6934    0.0000 C   0  0  0  0  0  0  0  0  0  0  0  0
    1.4783   -2.2273    0.0000 C   0  0  0  0  0  0  0  0  0  0  0  0
    2.7798   -1.4817    0.0000 C   0  0  0  0  0  0  0  0  0  0  0  0
    4.0763   -2.2361    0.0000 C   0  0  0  0  0  0  0  0  0  0  0  0
    5.3779   -1.4905    0.0000 C   0  0  0  0  0  0  0  0  0  0  0  0
    5.3830    0.0095    0.0000 C   0  0  0  0  0  0  0  0  0  0  0  0
    6.6846    0.7551    0.0000 C   0  0  0  0  0  0  0  0  0  0  0  0
    6.6897    2.2551    0.0000 C   0  0  0  0  0  0  0  0  0  0  0  0
    7.9912    3.0007    0.0000 O   0  0  0  0  0  0  0  0  0  0  0  0
    5.3932    3.0095    0.0000 C   0  0  0  0  0  0  0  0  0  0  0  0
    4.0916    2.2639    0.0000 C   0  0  0  0  0  0  0  0  0  0  0  0
    4.0865    0.7639    0.0000 C   0  0  0  0  0  0  0  0  0  0  0  0
    2.7900    1.5183    0.0000 C   0  0  0  0  0  0  0  0  0  0  0  0
    2.7849    0.0183    0.0000 C   0  0  0  0  0  0  0  0  0  0  0  0
    1.4884    0.7727    0.0000 C   0  0  0  0  0  0  0  0  0  0  0  0
    0.1869    0.0271    0.0000 C   0  0  0  0  0  0  0  0  0  0  0  0
   -1.1096    0.7815    0.0000 O   0  0  0  0  0  0  0  0  0  0  0  0
    0.1818   -1.4728    0.0000 C   0  0  0  0  0  0  0  0  0  0  0  0
   -1.1865   -0.8581    0.0000 C   0  0  0  0  0  0  0  0  0  0  0  0
  2  1  1  6
  2  3  1  0
  3  4  1  0
  4  5  1  0
  5  6  2  0
  5  7  1  0
  7  8  1  0
  8  9  2  0
  9 10  1  0
 10 11  2  0
  2 12  1  0
 12 13  1  6
 13 14  1  0
 15 14  1  6
 15 16  1  0
 16 17  1  1
 17 18  1  0
 19 18  1  1
 19 20  1  0
 20 21  1  0
 21 22  1  1
 21 23  1  0
 23 24  1  0
 24 25  1  0
 25 26  1  6
 25 27  1  0
 27 28  1  6
 28 29  1  0
 29 30  1  1
 29 31  1  0
 31 32  1  6
 11  7  1  0
 31 12  1  0
 31 15  1  0
 27 16  1  0
 25 19  1  0
M  END
>  <MS_ID>  (2337) 
MS2420

>  <SMILES>  (2337) 
C[C@H](CCC(=O)n1ccnc1)[C@H]1CC[C@H]2[C@@H]3CC[C@@H]4C[C@H](O)CC[C@]4(C)[C@H]3C[C@H](O)[C@]12C

>  <Structure_dimension>  (2337) 
2D

$$$$
MS2421
     RDKit          2D

 28 31  0  0  0  0  0  0  0  0999 V2000
   -6.9477    2.9140    0.0000 C   0  0  0  0  0  0  0  0  0  0  0  0
   -5.5659    2.3303    0.0000 C   0  0  0  0  0  0  0  0  0  0  0  0
   -4.3695    3.2351    0.0000 O   0  0  0  0  0  0  0  0  0  0  0  0
   -5.3805    0.8418    0.0000 C   0  0  0  0  0  0  0  0  0  0  0  0
   -3.9987    0.2582    0.0000 C   0  0  0  0  0  0  0  0  0  0  0  0
   -3.8132   -1.2303    0.0000 C   0  0  0  0  0  0  0  0  0  0  0  0
   -5.0096   -2.1352    0.0000 C   0  0  0  0  0  0  0  0  0  0  0  0
   -2.4315   -1.8140    0.0000 C   0  0  0  0  0  0  0  0  0  0  0  0
   -2.0914   -3.2749    0.0000 C   0  0  0  0  0  0  0  0  0  0  0  0
   -0.5969   -3.4030    0.0000 C   0  0  0  0  0  0  0  0  0  0  0  0
   -0.0133   -2.0212    0.0000 C   0  0  0  0  0  0  0  0  0  0  0  0
    1.4041   -1.5304    0.0000 C   0  0  0  0  0  0  0  0  0  0  0  0
    2.5379   -2.5125    0.0000 C   0  0  0  0  0  0  0  0  0  0  0  0
    3.9554   -2.0216    0.0000 C   0  0  0  0  0  0  0  0  0  0  0  0
    4.2390   -0.5487    0.0000 C   0  0  0  0  0  0  0  0  0  0  0  0
    5.6564   -0.0578    0.0000 C   0  0  0  0  0  0  0  0  0  0  0  0
    5.9400    1.4151    0.0000 C   0  0  0  0  0  0  0  0  0  0  0  0
    7.3574    1.9060    0.0000 O   0  0  0  0  0  0  0  0  0  0  0  0
    4.8062    2.3972    0.0000 C   0  0  0  0  0  0  0  0  0  0  0  0
    3.3888    1.9064    0.0000 C   0  0  0  0  0  0  0  0  0  0  0  0
    3.1052    0.4334    0.0000 C   0  0  0  0  0  0  0  0  0  0  0  0
    1.9714    1.4155    0.0000 C   0  0  0  0  0  0  0  0  0  0  0  0
    1.6878   -0.0574    0.0000 C   0  0  0  0  0  0  0  0  0  0  0  0
    0.5540    0.9246    0.0000 C   0  0  0  0  0  0  0  0  0  0  0  0
   -0.8635    0.4338    0.0000 C   0  0  0  0  0  0  0  0  0  0  0  0
   -1.9973    1.4159    0.0000 O   0  0  0  0  0  0  0  0  0  0  0  0
   -1.1471   -1.0392    0.0000 C   0  0  0  0  0  0  0  0  0  0  0  0
   -2.3773   -0.1810    0.0000 C   0  0  0  0  0  0  0  0  0  0  0  0
  1  2  1  0
  2  3  2  0
  2  4  1  0
  4  5  1  0
  5  6  1  0
  6  7  1  6
  6  8  1  0
  8  9  1  6
  9 10  1  0
 11 10  1  6
 11 12  1  0
 12 13  1  1
 13 14  1  0
 15 14  1  1
 15 16  1  0
 16 17  1  0
 17 18  1  1
 17 19  1  0
 19 20  1  0
 20 21  1  0
 21 22  1  6
 21 23  1  0
 23 24  1  6
 24 25  1  0
 25 26  1  1
 25 27  1  0
 27 28  1  6
 27  8  1  0
 27 11  1  0
 23 12  1  0
 21 15  1  0
M  END
>  <MS_ID>  (2338) 
MS2421

>  <SMILES>  (2338) 
CC(=O)CC[C@@H](C)[C@H]1CC[C@H]2[C@@H]3CC[C@@H]4C[C@H](O)CC[C@]4(C)[C@H]3C[C@H](O)[C@]12C

>  <Structure_dimension>  (2338) 
2D

$$$$
MS2422
     RDKit          2D

 34 38  0  0  0  0  0  0  0  0999 V2000
   -2.6599   -4.1335    0.0000 C   0  0  0  0  0  0  0  0  0  0  0  0
   -1.8847   -2.8494    0.0000 C   0  0  0  0  0  0  0  0  0  0  0  0
   -2.6091   -1.5360    0.0000 C   0  0  0  0  0  0  0  0  0  0  0  0
   -4.1089   -1.5067    0.0000 C   0  0  0  0  0  0  0  0  0  0  0  0
   -4.8333   -0.1932    0.0000 C   0  0  0  0  0  0  0  0  0  0  0  0
   -4.0581    1.0909    0.0000 O   0  0  0  0  0  0  0  0  0  0  0  0
   -6.3331   -0.1639    0.0000 C   0  0  0  0  0  0  0  0  0  0  0  0
   -7.0575    1.1495    0.0000 C   0  0  0  0  0  0  0  0  0  0  0  0
   -8.5460    1.3354    0.0000 C   0  0  0  0  0  0  0  0  0  0  0  0
   -8.8291    2.8085    0.0000 N   0  0  0  0  0  0  0  0  0  0  0  0
   -7.5157    3.5330    0.0000 C   0  0  0  0  0  0  0  0  0  0  0  0
   -6.4208    2.5077    0.0000 N   0  0  0  0  0  0  0  0  0  0  0  0
   -0.3850   -2.8787    0.0000 C   0  0  0  0  0  0  0  0  0  0  0  0
    0.4728   -4.1092    0.0000 C   0  0  0  0  0  0  0  0  0  0  0  0
    1.9082   -3.6737    0.0000 C   0  0  0  0  0  0  0  0  0  0  0  0
    1.9375   -2.1740    0.0000 C   0  0  0  0  0  0  0  0  0  0  0  0
    3.0716   -1.1922    0.0000 C   0  0  0  0  0  0  0  0  0  0  0  0
    4.4889   -1.6835    0.0000 C   0  0  0  0  0  0  0  0  0  0  0  0
    4.7720   -3.1566    0.0000 O   0  0  0  0  0  0  0  0  0  0  0  0
    5.6230   -0.7018    0.0000 C   0  0  0  0  0  0  0  0  0  0  0  0
    5.3399    0.7712    0.0000 C   0  0  0  0  0  0  0  0  0  0  0  0
    6.4740    1.7530    0.0000 C   0  0  0  0  0  0  0  0  0  0  0  0
    6.1908    3.2260    0.0000 C   0  0  0  0  0  0  0  0  0  0  0  0
    7.3249    4.2077    0.0000 O   0  0  0  0  0  0  0  0  0  0  0  0
    4.7736    3.7173    0.0000 C   0  0  0  0  0  0  0  0  0  0  0  0
    3.6395    2.7356    0.0000 C   0  0  0  0  0  0  0  0  0  0  0  0
    3.9226    1.2625    0.0000 C   0  0  0  0  0  0  0  0  0  0  0  0
    2.5053    1.7538    0.0000 C   0  0  0  0  0  0  0  0  0  0  0  0
    2.7885    0.2808    0.0000 C   0  0  0  0  0  0  0  0  0  0  0  0
    1.3712    0.7721    0.0000 C   0  0  0  0  0  0  0  0  0  0  0  0
    0.2371   -0.2096    0.0000 C   0  0  0  0  0  0  0  0  0  0  0  0
   -1.1801    0.2817    0.0000 O   0  0  0  0  0  0  0  0  0  0  0  0
    0.5203   -1.6826    0.0000 C   0  0  0  0  0  0  0  0  0  0  0  0
   -0.9406   -1.3422    0.0000 C   0  0  0  0  0  0  0  0  0  0  0  0
  2  1  1  6
  2  3  1  0
  3  4  1  0
  4  5  1  0
  5  6  2  0
  5  7  1  0
  7  8  1  0
  8  9  2  0
  9 10  1  0
 10 11  2  0
 11 12  1  0
  2 13  1  0
 13 14  1  6
 14 15  1  0
 16 15  1  6
 16 17  1  0
 17 18  1  1
 18 19  1  1
 18 20  1  0
 21 20  1  1
 21 22  1  0
 22 23  1  0
 23 24  1  1
 23 25  1  0
 25 26  1  0
 26 27  1  0
 27 28  1  6
 27 29  1  0
 29 30  1  6
 30 31  1  0
 31 32  1  1
 31 33  1  0
 33 34  1  6
 12  8  1  0
 33 13  1  0
 33 16  1  0
 29 17  1  0
 27 21  1  0
M  END
>  <MS_ID>  (2339) 
MS2422

>  <SMILES>  (2339) 
C[C@H](CCC(=O)Cc1cnc[nH]1)[C@H]1CC[C@H]2[C@@H]3[C@H](O)C[C@@H]4C[C@H](O)CC[C@]4(C)[C@H]3C[C@H](O)[C@]12C

>  <Structure_dimension>  (2339) 
2D

$$$$
MS2423
     RDKit          2D

 37 40  0  0  0  0  0  0  0  0999 V2000
    0.0919   -4.7656    0.0000 C   0  0  0  0  0  0  0  0  0  0  0  0
    0.5871   -3.3497    0.0000 C   0  0  0  0  0  0  0  0  0  0  0  0
   -0.3916   -2.2129    0.0000 C   0  0  0  0  0  0  0  0  0  0  0  0
   -1.8654   -2.4921    0.0000 C   0  0  0  0  0  0  0  0  0  0  0  0
   -2.8440   -1.3553    0.0000 C   0  0  0  0  0  0  0  0  0  0  0  0
   -2.3488    0.0606    0.0000 O   0  0  0  0  0  0  0  0  0  0  0  0
   -4.3178   -1.6344    0.0000 O   0  0  0  0  0  0  0  0  0  0  0  0
   -5.2964   -0.4976    0.0000 C   0  0  0  0  0  0  0  0  0  0  0  0
   -6.7702   -0.7767    0.0000 C   0  0  0  0  0  0  0  0  0  0  0  0
   -7.7488    0.3601    0.0000 O   0  0  0  0  0  0  0  0  0  0  0  0
   -9.2226    0.0809    0.0000 C   0  0  0  0  0  0  0  0  0  0  0  0
  -10.2013    1.2177    0.0000 C   0  0  0  0  0  0  0  0  0  0  0  0
  -11.6751    0.9386    0.0000 O   0  0  0  0  0  0  0  0  0  0  0  0
  -12.6537    2.0754    0.0000 C   0  0  0  0  0  0  0  0  0  0  0  0
  -14.1275    1.7963    0.0000 C   0  0  0  0  0  0  0  0  0  0  0  0
  -15.1061    2.9331    0.0000 O   0  0  0  0  0  0  0  0  0  0  0  0
    2.0609   -3.0706    0.0000 C   0  0  0  0  0  0  0  0  0  0  0  0
    3.1530   -4.0989    0.0000 C   0  0  0  0  0  0  0  0  0  0  0  0
    4.4684   -3.3780    0.0000 C   0  0  0  0  0  0  0  0  0  0  0  0
    4.1893   -1.9042    0.0000 C   0  0  0  0  0  0  0  0  0  0  0  0
    5.0977   -0.7106    0.0000 C   0  0  0  0  0  0  0  0  0  0  0  0
    6.5857   -0.9005    0.0000 C   0  0  0  0  0  0  0  0  0  0  0  0
    7.1651   -2.2841    0.0000 O   0  0  0  0  0  0  0  0  0  0  0  0
    7.4941    0.2931    0.0000 C   0  0  0  0  0  0  0  0  0  0  0  0
    6.9147    1.6766    0.0000 C   0  0  0  0  0  0  0  0  0  0  0  0
    7.8232    2.8702    0.0000 C   0  0  0  0  0  0  0  0  0  0  0  0
    7.2437    4.2538    0.0000 C   0  0  0  0  0  0  0  0  0  0  0  0
    8.1522    5.4474    0.0000 O   0  0  0  0  0  0  0  0  0  0  0  0
    5.7558    4.4437    0.0000 C   0  0  0  0  0  0  0  0  0  0  0  0
    4.8473    3.2501    0.0000 C   0  0  0  0  0  0  0  0  0  0  0  0
    5.4268    1.8666    0.0000 C   0  0  0  0  0  0  0  0  0  0  0  0
    3.9389    2.0566    0.0000 C   0  0  0  0  0  0  0  0  0  0  0  0
    4.5183    0.6730    0.0000 C   0  0  0  0  0  0  0  0  0  0  0  0
    3.0304    0.8630    0.0000 C   0  0  0  0  0  0  0  0  0  0  0  0
    2.1219   -0.3306    0.0000 C   0  0  0  0  0  0  0  0  0  0  0  0
    2.7013   -1.7142    0.0000 C   0  0  0  0  0  0  0  0  0  0  0  0
    1.2017   -1.6808    0.0000 C   0  0  0  0  0  0  0  0  0  0  0  0
  2  1  1  6
  2  3  1  0
  3  4  1  0
  4  5  1  0
  5  6  2  0
  5  7  1  0
  7  8  1  0
  8  9  1  0
  9 10  1  0
 10 11  1  0
 11 12  1  0
 12 13  1  0
 13 14  1  0
 14 15  1  0
 15 16  1  0
  2 17  1  0
 17 18  1  6
 18 19  1  0
 20 19  1  6
 20 21  1  0
 21 22  1  1
 22 23  1  6
 22 24  1  0
 25 24  1  1
 25 26  1  0
 26 27  1  0
 27 28  1  1
 27 29  1  0
 29 30  1  0
 30 31  1  0
 31 32  1  6
 31 33  1  0
 33 34  1  6
 34 35  1  0
 35 36  1  0
 36 37  1  6
 36 17  1  0
 36 20  1  0
 33 21  1  0
 31 25  1  0
M  END
>  <MS_ID>  (2340) 
MS2423

>  <SMILES>  (2340) 
C[C@H](CCC(=O)OCCOCCOCCO)[C@H]1CC[C@H]2[C@@H]3[C@@H](O)C[C@@H]4C[C@H](O)CC[C@]4(C)[C@H]3CC[C@]12C

>  <Structure_dimension>  (2340) 
2D

$$$$
MS2425
     RDKit          2D

 37 41  0  0  0  0  0  0  0  0999 V2000
   -0.9887   -4.6220    0.0000 C   0  0  0  0  0  0  0  0  0  0  0  0
   -0.3294   -3.2747    0.0000 C   0  0  0  0  0  0  0  0  0  0  0  0
   -1.1665   -2.0300    0.0000 C   0  0  0  0  0  0  0  0  0  0  0  0
   -2.6630   -2.1327    0.0000 C   0  0  0  0  0  0  0  0  0  0  0  0
   -3.5002   -0.8881    0.0000 C   0  0  0  0  0  0  0  0  0  0  0  0
   -2.8409    0.4593    0.0000 O   0  0  0  0  0  0  0  0  0  0  0  0
   -4.9967   -0.9907    0.0000 N   0  0  0  0  0  0  0  0  0  0  0  0
   -5.8338    0.2539    0.0000 C   0  0  0  0  0  0  0  0  0  0  0  0
   -5.1745    1.6013    0.0000 C   0  0  0  0  0  0  0  0  0  0  0  0
   -6.0117    2.8459    0.0000 C   0  0  0  0  0  0  0  0  0  0  0  0
   -7.5082    2.7432    0.0000 C   0  0  0  0  0  0  0  0  0  0  0  0
   -8.1675    1.3959    0.0000 C   0  0  0  0  0  0  0  0  0  0  0  0
   -9.6640    1.2932    0.0000 N   0  0  0  0  0  0  0  0  0  0  0  0
  -10.3233   -0.0541    0.0000 O   0  0  0  0  0  0  0  0  0  0  0  0
  -10.5011    2.5379    0.0000 O   0  0  0  0  0  0  0  0  0  0  0  0
   -7.3303    0.1512    0.0000 C   0  0  0  0  0  0  0  0  0  0  0  0
    1.1671   -3.1720    0.0000 C   0  0  0  0  0  0  0  0  0  0  0  0
    2.1298   -4.3223    0.0000 C   0  0  0  0  0  0  0  0  0  0  0  0
    3.5213   -3.7622    0.0000 C   0  0  0  0  0  0  0  0  0  0  0  0
    3.4186   -2.2658    0.0000 C   0  0  0  0  0  0  0  0  0  0  0  0
    4.4620   -1.1881    0.0000 C   0  0  0  0  0  0  0  0  0  0  0  0
    5.9170   -1.5529    0.0000 C   0  0  0  0  0  0  0  0  0  0  0  0
    6.9604   -0.4753    0.0000 C   0  0  0  0  0  0  0  0  0  0  0  0
    6.5488    0.9672    0.0000 C   0  0  0  0  0  0  0  0  0  0  0  0
    7.5922    2.0448    0.0000 C   0  0  0  0  0  0  0  0  0  0  0  0
    7.1806    3.4873    0.0000 C   0  0  0  0  0  0  0  0  0  0  0  0
    8.2240    4.5649    0.0000 O   0  0  0  0  0  0  0  0  0  0  0  0
    5.7257    3.8520    0.0000 C   0  0  0  0  0  0  0  0  0  0  0  0
    4.6823    2.7744    0.0000 C   0  0  0  0  0  0  0  0  0  0  0  0
    5.0938    1.3320    0.0000 C   0  0  0  0  0  0  0  0  0  0  0  0
    3.6389    1.6967    0.0000 C   0  0  0  0  0  0  0  0  0  0  0  0
    4.0504    0.2543    0.0000 C   0  0  0  0  0  0  0  0  0  0  0  0
    2.5955    0.6191    0.0000 C   0  0  0  0  0  0  0  0  0  0  0  0
    1.5521   -0.4585    0.0000 C   0  0  0  0  0  0  0  0  0  0  0  0
    0.0971   -0.0938    0.0000 O   0  0  0  0  0  0  0  0  0  0  0  0
    1.9636   -1.9010    0.0000 C   0  0  0  0  0  0  0  0  0  0  0  0
    0.4785   -1.6903    0.0000 C   0  0  0  0  0  0  0  0  0  0  0  0
  2  1  1  6
  2  3  1  0
  3  4  1  0
  4  5  1  0
  5  6  2  0
  5  7  1  0
  7  8  1  0
  8  9  2  0
  9 10  1  0
 10 11  2  0
 11 12  1  0
 12 13  1  0
 13 14  2  0
 13 15  1  0
 12 16  2  0
  2 17  1  0
 17 18  1  6
 18 19  1  0
 20 19  1  6
 20 21  1  0
 21 22  1  1
 22 23  1  0
 24 23  1  1
 24 25  1  0
 25 26  1  0
 26 27  1  1
 26 28  1  0
 28 29  1  0
 29 30  1  0
 30 31  1  6
 30 32  1  0
 32 33  1  6
 33 34  1  0
 34 35  1  1
 34 36  1  0
 36 37  1  6
 16  8  1  0
 36 17  1  0
 36 20  1  0
 32 21  1  0
 30 24  1  0
M  CHG  2  13   1  15  -1
M  END
>  <MS_ID>  (2341) 
MS2425

>  <SMILES>  (2341) 
C[C@H](CCC(=O)Nc1cccc([N+](=O)[O-])c1)[C@H]1CC[C@H]2[C@@H]3CC[C@@H]4C[C@H](O)CC[C@]4(C)[C@H]3C[C@H](O)[C@]12C

>  <Structure_dimension>  (2341) 
2D

$$$$
MS2426
     RDKit          2D

 33 36  0  0  0  0  0  0  0  0999 V2000
   -5.0246   -2.6773    0.0000 C   0  0  0  0  0  0  0  0  0  0  0  0
   -4.0826   -1.5100    0.0000 C   0  0  0  0  0  0  0  0  0  0  0  0
   -4.6226   -0.1105    0.0000 C   0  0  0  0  0  0  0  0  0  0  0  0
   -6.1045    0.1216    0.0000 C   0  0  0  0  0  0  0  0  0  0  0  0
   -6.6444    1.5210    0.0000 C   0  0  0  0  0  0  0  0  0  0  0  0
   -8.1264    1.7531    0.0000 N   0  0  0  0  0  0  0  0  0  0  0  0
   -5.7025    2.6884    0.0000 O   0  0  0  0  0  0  0  0  0  0  0  0
   -2.6007   -1.7421    0.0000 C   0  0  0  0  0  0  0  0  0  0  0  0
   -1.9174   -3.0774    0.0000 C   0  0  0  0  0  0  0  0  0  0  0  0
   -0.4363   -2.8402    0.0000 C   0  0  0  0  0  0  0  0  0  0  0  0
   -0.2042   -1.3583    0.0000 C   0  0  0  0  0  0  0  0  0  0  0  0
    1.0525   -0.5392    0.0000 C   0  0  0  0  0  0  0  0  0  0  0  0
    2.3901   -1.2179    0.0000 C   0  0  0  0  0  0  0  0  0  0  0  0
    2.4712   -2.7157    0.0000 O   0  0  0  0  0  0  0  0  0  0  0  0
    3.8089   -3.3944    0.0000 S   0  0  0  0  0  0  0  0  0  0  0  0
    4.4876   -2.0567    0.0000 O   0  0  0  0  0  0  0  0  0  0  0  0
    3.1302   -4.7321    0.0000 O   0  0  0  0  0  0  0  0  0  0  0  0
    5.1465   -4.0731    0.0000 O   0  0  0  0  0  0  0  0  0  0  0  0
    3.6467   -0.3988    0.0000 C   0  0  0  0  0  0  0  0  0  0  0  0
    3.5657    1.0990    0.0000 C   0  0  0  0  0  0  0  0  0  0  0  0
    4.8223    1.9182    0.0000 C   0  0  0  0  0  0  0  0  0  0  0  0
    4.7412    3.4160    0.0000 C   0  0  0  0  0  0  0  0  0  0  0  0
    5.9978    4.2351    0.0000 O   0  0  0  0  0  0  0  0  0  0  0  0
    3.4035    4.0947    0.0000 C   0  0  0  0  0  0  0  0  0  0  0  0
    2.1469    3.2755    0.0000 C   0  0  0  0  0  0  0  0  0  0  0  0
    2.2280    1.7777    0.0000 C   0  0  0  0  0  0  0  0  0  0  0  0
    0.8903    2.4564    0.0000 C   0  0  0  0  0  0  0  0  0  0  0  0
    0.9714    0.9586    0.0000 C   0  0  0  0  0  0  0  0  0  0  0  0
   -0.3663    1.6373    0.0000 C   0  0  0  0  0  0  0  0  0  0  0  0
   -1.6229    0.8182    0.0000 C   0  0  0  0  0  0  0  0  0  0  0  0
   -2.9606    1.4969    0.0000 O   0  0  0  0  0  0  0  0  0  0  0  0
   -1.5418   -0.6796    0.0000 C   0  0  0  0  0  0  0  0  0  0  0  0
   -2.9431   -0.1445    0.0000 C   0  0  0  0  0  0  0  0  0  0  0  0
  2  1  1  6
  2  3  1  0
  3  4  1  0
  4  5  1  0
  5  6  1  0
  5  7  2  0
  2  8  1  0
  8  9  1  6
  9 10  1  0
 11 10  1  6
 11 12  1  0
 12 13  1  1
 13 14  1  1
 14 15  1  0
 15 16  2  0
 15 17  2  0
 15 18  1  0
 13 19  1  0
 20 19  1  1
 20 21  1  0
 21 22  1  0
 22 23  1  1
 22 24  1  0
 24 25  1  0
 25 26  1  0
 26 27  1  6
 26 28  1  0
 28 29  1  6
 29 30  1  0
 30 31  1  1
 30 32  1  0
 32 33  1  6
 32  8  1  0
 32 11  1  0
 28 12  1  0
 26 20  1  0
M  END
>  <MS_ID>  (2342) 
MS2426

>  <SMILES>  (2342) 
C[C@H](CCC(N)=O)[C@H]1CC[C@H]2[C@@H]3[C@H](OS(=O)(=O)O)C[C@@H]4C[C@H](O)CC[C@]4(C)[C@H]3C[C@H](O)[C@]12C

>  <Structure_dimension>  (2342) 
2D

$$$$
MS2427
     RDKit          2D

 30 33  0  0  0  0  0  0  0  0999 V2000
   -4.9095    4.2465    0.0000 C   0  0  0  0  0  0  0  0  0  0  0  0
   -4.5818    2.7827    0.0000 S   0  0  0  0  0  0  0  0  0  0  0  0
   -5.6855    1.7670    0.0000 C   0  0  0  0  0  0  0  0  0  0  0  0
   -7.1171    2.2151    0.0000 O   0  0  0  0  0  0  0  0  0  0  0  0
   -5.3578    0.3033    0.0000 C   0  0  0  0  0  0  0  0  0  0  0  0
   -3.9263   -0.1448    0.0000 C   0  0  0  0  0  0  0  0  0  0  0  0
   -3.5985   -1.6085    0.0000 C   0  0  0  0  0  0  0  0  0  0  0  0
   -4.7023   -2.6242    0.0000 C   0  0  0  0  0  0  0  0  0  0  0  0
   -2.1670   -2.0566    0.0000 C   0  0  0  0  0  0  0  0  0  0  0  0
   -1.6881   -3.4780    0.0000 C   0  0  0  0  0  0  0  0  0  0  0  0
   -0.1881   -3.4618    0.0000 C   0  0  0  0  0  0  0  0  0  0  0  0
    0.2599   -2.0303    0.0000 C   0  0  0  0  0  0  0  0  0  0  0  0
    1.6235   -1.4054    0.0000 C   0  0  0  0  0  0  0  0  0  0  0  0
    2.8465   -2.2738    0.0000 C   0  0  0  0  0  0  0  0  0  0  0  0
    2.7059   -3.7672    0.0000 O   0  0  0  0  0  0  0  0  0  0  0  0
    4.2102   -1.6489    0.0000 C   0  0  0  0  0  0  0  0  0  0  0  0
    4.3508   -0.1555    0.0000 C   0  0  0  0  0  0  0  0  0  0  0  0
    5.7144    0.4694    0.0000 C   0  0  0  0  0  0  0  0  0  0  0  0
    5.8550    1.9628    0.0000 C   0  0  0  0  0  0  0  0  0  0  0  0
    7.2187    2.5877    0.0000 O   0  0  0  0  0  0  0  0  0  0  0  0
    4.6320    2.8313    0.0000 C   0  0  0  0  0  0  0  0  0  0  0  0
    3.2684    2.2063    0.0000 C   0  0  0  0  0  0  0  0  0  0  0  0
    3.1278    0.7130    0.0000 C   0  0  0  0  0  0  0  0  0  0  0  0
    1.9048    1.5814    0.0000 C   0  0  0  0  0  0  0  0  0  0  0  0
    1.7642    0.0880    0.0000 C   0  0  0  0  0  0  0  0  0  0  0  0
    0.5411    0.9565    0.0000 C   0  0  0  0  0  0  0  0  0  0  0  0
   -0.8225    0.3316    0.0000 C   0  0  0  0  0  0  0  0  0  0  0  0
   -2.0455    1.2001    0.0000 O   0  0  0  0  0  0  0  0  0  0  0  0
   -0.9631   -1.1618    0.0000 C   0  0  0  0  0  0  0  0  0  0  0  0
   -2.2702   -0.4259    0.0000 C   0  0  0  0  0  0  0  0  0  0  0  0
  1  2  1  0
  2  3  1  0
  3  4  2  0
  3  5  1  0
  5  6  1  0
  6  7  1  0
  7  8  1  6
  7  9  1  0
  9 10  1  6
 10 11  1  0
 12 11  1  6
 12 13  1  0
 13 14  1  1
 14 15  1  1
 14 16  1  0
 17 16  1  1
 17 18  1  0
 18 19  1  0
 19 20  1  1
 19 21  1  0
 21 22  1  0
 22 23  1  0
 23 24  1  6
 23 25  1  0
 25 26  1  6
 26 27  1  0
 27 28  2  0
 27 29  1  0
 29 30  1  6
 29  9  1  0
 29 12  1  0
 25 13  1  0
 23 17  1  0
M  END
>  <MS_ID>  (2343) 
MS2427

>  <SMILES>  (2343) 
CSC(=O)CC[C@@H](C)[C@H]1CC[C@H]2[C@@H]3[C@H](O)C[C@@H]4C[C@H](O)CC[C@]4(C)[C@H]3CC(=O)[C@]12C

>  <Structure_dimension>  (2343) 
2D

$$$$
MS2428
     RDKit          2D

 34 37  0  0  0  0  0  0  0  0999 V2000
   -1.8984   -4.2506    0.0000 C   0  0  0  0  0  0  0  0  0  0  0  0
   -1.1842   -2.9316    0.0000 C   0  0  0  0  0  0  0  0  0  0  0  0
   -1.9694   -1.6535    0.0000 C   0  0  0  0  0  0  0  0  0  0  0  0
   -3.4688   -1.6945    0.0000 C   0  0  0  0  0  0  0  0  0  0  0  0
   -4.2540   -0.4165    0.0000 C   0  0  0  0  0  0  0  0  0  0  0  0
   -3.5398    0.9026    0.0000 O   0  0  0  0  0  0  0  0  0  0  0  0
   -5.7535   -0.4574    0.0000 N   0  0  0  0  0  0  0  0  0  0  0  0
   -6.5387    0.8206    0.0000 C   0  0  0  0  0  0  0  0  0  0  0  0
   -8.0381    0.7796    0.0000 C   0  0  0  0  0  0  0  0  0  0  0  0
   -8.8234    2.0577    0.0000 C   0  0  0  0  0  0  0  0  0  0  0  0
  -10.3228    2.0167    0.0000 C   0  0  0  0  0  0  0  0  0  0  0  0
  -11.0370    0.6977    0.0000 O   0  0  0  0  0  0  0  0  0  0  0  0
  -11.1080    3.2948    0.0000 O   0  0  0  0  0  0  0  0  0  0  0  0
    0.3153   -2.8906    0.0000 C   0  0  0  0  0  0  0  0  0  0  0  0
    1.2298   -4.0796    0.0000 C   0  0  0  0  0  0  0  0  0  0  0  0
    2.6432   -3.5773    0.0000 C   0  0  0  0  0  0  0  0  0  0  0  0
    2.6022   -2.0778    0.0000 C   0  0  0  0  0  0  0  0  0  0  0  0
    3.6890   -1.0440    0.0000 C   0  0  0  0  0  0  0  0  0  0  0  0
    5.1278   -1.4684    0.0000 C   0  0  0  0  0  0  0  0  0  0  0  0
    5.4796   -2.9266    0.0000 O   0  0  0  0  0  0  0  0  0  0  0  0
    6.2146   -0.4346    0.0000 C   0  0  0  0  0  0  0  0  0  0  0  0
    5.8628    1.0235    0.0000 C   0  0  0  0  0  0  0  0  0  0  0  0
    6.9497    2.0573    0.0000 C   0  0  0  0  0  0  0  0  0  0  0  0
    6.5978    3.5154    0.0000 C   0  0  0  0  0  0  0  0  0  0  0  0
    7.6847    4.5492    0.0000 Cl  0  0  0  0  0  0  0  0  0  0  0  0
    5.1591    3.9398    0.0000 C   0  0  0  0  0  0  0  0  0  0  0  0
    4.0722    2.9060    0.0000 C   0  0  0  0  0  0  0  0  0  0  0  0
    4.4241    1.4479    0.0000 C   0  0  0  0  0  0  0  0  0  0  0  0
    2.9854    1.8723    0.0000 C   0  0  0  0  0  0  0  0  0  0  0  0
    3.3372    0.4141    0.0000 C   0  0  0  0  0  0  0  0  0  0  0  0
    1.8985    0.8385    0.0000 C   0  0  0  0  0  0  0  0  0  0  0  0
    0.8116   -0.1953    0.0000 C   0  0  0  0  0  0  0  0  0  0  0  0
    1.1635   -1.6534    0.0000 C   0  0  0  0  0  0  0  0  0  0  0  0
   -0.3117   -1.3818    0.0000 C   0  0  0  0  0  0  0  0  0  0  0  0
  2  1  1  6
  2  3  1  0
  3  4  1  0
  4  5  1  0
  5  6  2  0
  5  7  1  0
  7  8  1  0
  8  9  1  0
  9 10  1  0
 10 11  1  0
 11 12  2  0
 11 13  1  0
  2 14  1  0
 14 15  1  6
 15 16  1  0
 17 16  1  6
 17 18  1  0
 18 19  1  1
 19 20  1  6
 19 21  1  0
 22 21  1  1
 22 23  1  0
 23 24  1  0
 24 25  1  1
 24 26  1  0
 26 27  1  0
 27 28  1  0
 28 29  1  6
 28 30  1  0
 30 31  1  6
 31 32  1  0
 32 33  1  0
 33 34  1  6
 33 14  1  0
 33 17  1  0
 30 18  1  0
 28 22  1  0
M  END
>  <MS_ID>  (2344) 
MS2428

>  <SMILES>  (2344) 
C[C@H](CCC(=O)NCCCC(=O)O)[C@H]1CC[C@H]2[C@@H]3[C@@H](O)C[C@@H]4C[C@H](Cl)CC[C@]4(C)[C@H]3CC[C@]12C

>  <Structure_dimension>  (2344) 
2D

$$$$
MS2429
     RDKit          2D

 29 32  0  0  0  0  0  0  0  0999 V2000
   -3.6590   -3.2430    0.0000 C   0  0  0  0  0  0  0  0  0  0  0  0
   -2.7318   -2.0639    0.0000 C   0  0  0  0  0  0  0  0  0  0  0  0
   -3.2894   -0.6714    0.0000 C   0  0  0  0  0  0  0  0  0  0  0  0
   -4.7741   -0.4579    0.0000 C   0  0  0  0  0  0  0  0  0  0  0  0
   -5.3316    0.9346    0.0000 C   0  0  0  0  0  0  0  0  0  0  0  0
   -4.4044    2.1137    0.0000 O   0  0  0  0  0  0  0  0  0  0  0  0
   -6.8164    1.1480    0.0000 O   0  0  0  0  0  0  0  0  0  0  0  0
   -7.3739    2.5406    0.0000 C   0  0  0  0  0  0  0  0  0  0  0  0
   -8.8586    2.7540    0.0000 O   0  0  0  0  0  0  0  0  0  0  0  0
   -1.2471   -2.2773    0.0000 C   0  0  0  0  0  0  0  0  0  0  0  0
   -0.5471   -3.6040    0.0000 C   0  0  0  0  0  0  0  0  0  0  0  0
    0.9310   -3.3481    0.0000 C   0  0  0  0  0  0  0  0  0  0  0  0
    1.1444   -1.8634    0.0000 C   0  0  0  0  0  0  0  0  0  0  0  0
    2.3906   -1.0285    0.0000 C   0  0  0  0  0  0  0  0  0  0  0  0
    3.7367   -1.6903    0.0000 C   0  0  0  0  0  0  0  0  0  0  0  0
    3.8366   -3.1870    0.0000 O   0  0  0  0  0  0  0  0  0  0  0  0
    4.9829   -0.8554    0.0000 C   0  0  0  0  0  0  0  0  0  0  0  0
    4.8830    0.6412    0.0000 C   0  0  0  0  0  0  0  0  0  0  0  0
    6.1292    1.4761    0.0000 C   0  0  0  0  0  0  0  0  0  0  0  0
    6.0292    2.9728    0.0000 C   0  0  0  0  0  0  0  0  0  0  0  0
    4.6831    3.6346    0.0000 C   0  0  0  0  0  0  0  0  0  0  0  0
    3.4369    2.7997    0.0000 C   0  0  0  0  0  0  0  0  0  0  0  0
    3.5369    1.3030    0.0000 C   0  0  0  0  0  0  0  0  0  0  0  0
    2.1907    1.9648    0.0000 C   0  0  0  0  0  0  0  0  0  0  0  0
    2.2907    0.4681    0.0000 C   0  0  0  0  0  0  0  0  0  0  0  0
    0.9445    1.1299    0.0000 C   0  0  0  0  0  0  0  0  0  0  0  0
   -0.3016    0.2951    0.0000 C   0  0  0  0  0  0  0  0  0  0  0  0
   -0.2017   -1.2016    0.0000 C   0  0  0  0  0  0  0  0  0  0  0  0
   -1.6096   -0.6841    0.0000 C   0  0  0  0  0  0  0  0  0  0  0  0
  2  1  1  6
  2  3  1  0
  3  4  1  0
  4  5  1  0
  5  6  2  0
  5  7  1  0
  7  8  1  0
  8  9  1  0
  2 10  1  0
 10 11  1  6
 11 12  1  0
 13 12  1  6
 13 14  1  0
 14 15  1  1
 15 16  1  6
 15 17  1  0
 18 17  1  1
 18 19  1  0
 19 20  1  0
 20 21  1  0
 21 22  1  0
 22 23  1  0
 23 24  1  6
 23 25  1  0
 25 26  1  6
 26 27  1  0
 27 28  1  0
 28 29  1  6
 28 10  1  0
 28 13  1  0
 25 14  1  0
 23 18  1  0
M  END
>  <MS_ID>  (2345) 
MS2429

>  <SMILES>  (2345) 
C[C@H](CCC(=O)OCO)[C@H]1CC[C@H]2[C@@H]3[C@@H](O)C[C@@H]4CCCC[C@]4(C)[C@H]3CC[C@]12C

>  <Structure_dimension>  (2345) 
2D

$$$$
MS2430
     RDKit          2D

 32 35  0  0  0  0  0  0  0  0999 V2000
  -10.5534    3.1554    0.0000 C   0  0  0  0  0  0  0  0  0  0  0  0
   -9.0579    3.0406    0.0000 C   0  0  0  0  0  0  0  0  0  0  0  0
   -8.4096    1.6879    0.0000 C   0  0  0  0  0  0  0  0  0  0  0  0
   -6.9140    1.5730    0.0000 C   0  0  0  0  0  0  0  0  0  0  0  0
   -6.2657    0.2203    0.0000 O   0  0  0  0  0  0  0  0  0  0  0  0
   -4.7701    0.1054    0.0000 C   0  0  0  0  0  0  0  0  0  0  0  0
   -3.9228    1.3432    0.0000 O   0  0  0  0  0  0  0  0  0  0  0  0
   -4.1218   -1.2472    0.0000 C   0  0  0  0  0  0  0  0  0  0  0  0
   -2.6262   -1.3621    0.0000 C   0  0  0  0  0  0  0  0  0  0  0  0
   -1.9779   -2.7148    0.0000 C   0  0  0  0  0  0  0  0  0  0  0  0
   -2.8252   -3.9526    0.0000 C   0  0  0  0  0  0  0  0  0  0  0  0
   -0.4823   -2.8297    0.0000 C   0  0  0  0  0  0  0  0  0  0  0  0
    0.3038   -4.1072    0.0000 C   0  0  0  0  0  0  0  0  0  0  0  0
    1.7617   -3.7543    0.0000 C   0  0  0  0  0  0  0  0  0  0  0  0
    1.8766   -2.2587    0.0000 C   0  0  0  0  0  0  0  0  0  0  0  0
    3.0650   -1.3433    0.0000 C   0  0  0  0  0  0  0  0  0  0  0  0
    4.4518   -1.9148    0.0000 C   0  0  0  0  0  0  0  0  0  0  0  0
    5.6402   -0.9994    0.0000 C   0  0  0  0  0  0  0  0  0  0  0  0
    5.4416    0.4874    0.0000 C   0  0  0  0  0  0  0  0  0  0  0  0
    6.6299    1.4028    0.0000 C   0  0  0  0  0  0  0  0  0  0  0  0
    6.4313    2.8896    0.0000 C   0  0  0  0  0  0  0  0  0  0  0  0
    7.6197    3.8049    0.0000 O   0  0  0  0  0  0  0  0  0  0  0  0
    5.0445    3.4610    0.0000 C   0  0  0  0  0  0  0  0  0  0  0  0
    3.8561    2.5456    0.0000 C   0  0  0  0  0  0  0  0  0  0  0  0
    4.0547    1.0588    0.0000 C   0  0  0  0  0  0  0  0  0  0  0  0
    2.6678    1.6303    0.0000 C   0  0  0  0  0  0  0  0  0  0  0  0
    2.8664    0.1435    0.0000 C   0  0  0  0  0  0  0  0  0  0  0  0
    1.4795    0.7149    0.0000 C   0  0  0  0  0  0  0  0  0  0  0  0
    0.2912   -0.2005    0.0000 C   0  0  0  0  0  0  0  0  0  0  0  0
   -1.0957    0.3710    0.0000 O   0  0  0  0  0  0  0  0  0  0  0  0
    0.4897   -1.6873    0.0000 C   0  0  0  0  0  0  0  0  0  0  0  0
   -0.9493   -1.2639    0.0000 C   0  0  0  0  0  0  0  0  0  0  0  0
  1  2  1  0
  2  3  1  0
  3  4  1  0
  4  5  1  0
  5  6  1  0
  6  7  2  0
  6  8  1  0
  8  9  1  0
  9 10  1  0
 10 11  1  6
 10 12  1  0
 12 13  1  6
 13 14  1  0
 15 14  1  6
 15 16  1  0
 16 17  1  1
 17 18  1  0
 19 18  1  1
 19 20  1  0
 20 21  1  0
 21 22  1  1
 21 23  1  0
 23 24  1  0
 24 25  1  0
 25 26  1  6
 25 27  1  0
 27 28  1  6
 28 29  1  0
 29 30  1  6
 29 31  1  0
 31 32  1  6
 31 12  1  0
 31 15  1  0
 27 16  1  0
 25 19  1  0
M  END
>  <MS_ID>  (2346) 
MS2430

>  <SMILES>  (2346) 
CCCCOC(=O)CC[C@@H](C)[C@H]1CC[C@H]2[C@@H]3CC[C@@H]4C[C@H](O)CC[C@]4(C)[C@H]3C[C@@H](O)[C@]12C

>  <Structure_dimension>  (2346) 
2D

$$$$
MS2431
     RDKit          2D

 35 38  0  0  0  0  0  0  0  0999 V2000
   -3.9201   -3.3276    0.0000 C   0  0  0  0  0  0  0  0  0  0  0  0
   -2.9039   -2.2243    0.0000 C   0  0  0  0  0  0  0  0  0  0  0  0
   -3.3513   -0.7926    0.0000 C   0  0  0  0  0  0  0  0  0  0  0  0
   -4.8149   -0.4642    0.0000 C   0  0  0  0  0  0  0  0  0  0  0  0
   -5.2623    0.9675    0.0000 C   0  0  0  0  0  0  0  0  0  0  0  0
   -4.2461    2.0709    0.0000 O   0  0  0  0  0  0  0  0  0  0  0  0
   -6.7259    1.2959    0.0000 C   0  0  0  0  0  0  0  0  0  0  0  0
   -7.7421    0.1926    0.0000 O   0  0  0  0  0  0  0  0  0  0  0  0
   -7.1734    2.7276    0.0000 O   0  0  0  0  0  0  0  0  0  0  0  0
   -1.4403   -2.5527    0.0000 C   0  0  0  0  0  0  0  0  0  0  0  0
   -0.8456   -3.9298    0.0000 C   0  0  0  0  0  0  0  0  0  0  0  0
    0.6478   -3.7898    0.0000 C   0  0  0  0  0  0  0  0  0  0  0  0
    0.9762   -2.3262    0.0000 C   0  0  0  0  0  0  0  0  0  0  0  0
    2.2836   -1.5909    0.0000 C   0  0  0  0  0  0  0  0  0  0  0  0
    3.5741   -2.3555    0.0000 C   0  0  0  0  0  0  0  0  0  0  0  0
    3.5572   -3.8554    0.0000 O   0  0  0  0  0  0  0  0  0  0  0  0
    4.8815   -1.6202    0.0000 C   0  0  0  0  0  0  0  0  0  0  0  0
    4.8984   -0.1202    0.0000 C   0  0  0  0  0  0  0  0  0  0  0  0
    6.2058    0.6151    0.0000 C   0  0  0  0  0  0  0  0  0  0  0  0
    6.2227    2.1150    0.0000 C   0  0  0  0  0  0  0  0  0  0  0  0
    7.5301    2.8503    0.0000 O   0  0  0  0  0  0  0  0  0  0  0  0
    4.9322    2.8796    0.0000 C   0  0  0  0  0  0  0  0  0  0  0  0
    3.6248    2.1442    0.0000 C   0  0  0  0  0  0  0  0  0  0  0  0
    3.6079    0.6443    0.0000 C   0  0  0  0  0  0  0  0  0  0  0  0
    2.3174    1.4089    0.0000 C   0  0  0  0  0  0  0  0  0  0  0  0
    2.3005   -0.0910    0.0000 C   0  0  0  0  0  0  0  0  0  0  0  0
    1.0100    0.6736    0.0000 C   0  0  0  0  0  0  0  0  0  0  0  0
   -0.2974   -0.0617    0.0000 C   0  0  0  0  0  0  0  0  0  0  0  0
   -1.5879    0.7029    0.0000 O   0  0  0  0  0  0  0  0  0  0  0  0
   -1.5710    2.2028    0.0000 S   0  0  0  0  0  0  0  0  0  0  0  0
   -0.0711    2.1859    0.0000 O   0  0  0  0  0  0  0  0  0  0  0  0
   -3.0709    2.2197    0.0000 O   0  0  0  0  0  0  0  0  0  0  0  0
   -1.5541    3.7027    0.0000 O   0  0  0  0  0  0  0  0  0  0  0  0
   -0.3143   -1.5616    0.0000 C   0  0  0  0  0  0  0  0  0  0  0  0
   -1.6777   -0.9361    0.0000 C   0  0  0  0  0  0  0  0  0  0  0  0
  2  1  1  6
  2  3  1  0
  3  4  1  0
  4  5  1  0
  5  6  2  0
  5  7  1  0
  7  8  2  0
  7  9  1  0
  2 10  1  0
 10 11  1  6
 11 12  1  0
 13 12  1  6
 13 14  1  0
 14 15  1  1
 15 16  1  1
 15 17  1  0
 18 17  1  1
 18 19  1  0
 19 20  1  0
 20 21  1  1
 20 22  1  0
 22 23  1  0
 23 24  1  0
 24 25  1  6
 24 26  1  0
 26 27  1  6
 27 28  1  0
 28 29  1  1
 29 30  1  0
 30 31  2  0
 30 32  2  0
 30 33  1  0
 28 34  1  0
 34 35  1  6
 34 10  1  0
 34 13  1  0
 26 14  1  0
 24 18  1  0
M  END
>  <MS_ID>  (2347) 
MS2431

>  <SMILES>  (2347) 
C[C@H](CCC(=O)C(=O)O)[C@H]1CC[C@H]2[C@@H]3[C@H](O)C[C@@H]4C[C@H](O)CC[C@]4(C)[C@H]3C[C@H](OS(=O)(=O)O)[C@]12C

>  <Structure_dimension>  (2347) 
2D

$$$$
MS2432
     RDKit          2D

 32 35  0  0  0  0  0  0  0  0999 V2000
   -6.5476   -1.7578    0.0000 C   0  0  0  0  0  0  0  0  0  0  0  0
   -5.3077   -0.9137    0.0000 C   0  0  0  0  0  0  0  0  0  0  0  0
   -5.4187    0.5822    0.0000 C   0  0  0  0  0  0  0  0  0  0  0  0
   -6.7697    1.2340    0.0000 C   0  0  0  0  0  0  0  0  0  0  0  0
   -6.8807    2.7298    0.0000 C   0  0  0  0  0  0  0  0  0  0  0  0
   -5.6408    3.5739    0.0000 O   0  0  0  0  0  0  0  0  0  0  0  0
   -8.2317    3.3816    0.0000 O   0  0  0  0  0  0  0  0  0  0  0  0
   -3.9567   -1.5655    0.0000 C   0  0  0  0  0  0  0  0  0  0  0  0
   -3.6899   -3.0416    0.0000 C   0  0  0  0  0  0  0  0  0  0  0  0
   -2.2036   -3.2440    0.0000 C   0  0  0  0  0  0  0  0  0  0  0  0
   -1.5518   -1.8930    0.0000 C   0  0  0  0  0  0  0  0  0  0  0  0
   -0.1117   -1.4733    0.0000 C   0  0  0  0  0  0  0  0  0  0  0  0
    0.9718   -2.5107    0.0000 C   0  0  0  0  0  0  0  0  0  0  0  0
    0.6151   -3.9677    0.0000 O   0  0  0  0  0  0  0  0  0  0  0  0
    2.4119   -2.0911    0.0000 C   0  0  0  0  0  0  0  0  0  0  0  0
    2.7685   -0.6341    0.0000 C   0  0  0  0  0  0  0  0  0  0  0  0
    4.2086   -0.2144    0.0000 C   0  0  0  0  0  0  0  0  0  0  0  0
    4.5653    1.2425    0.0000 C   0  0  0  0  0  0  0  0  0  0  0  0
    6.0054    1.6622    0.0000 C   0  0  0  0  0  0  0  0  0  0  0  0
    7.0888    0.6248    0.0000 S   0  0  0  0  0  0  0  0  0  0  0  0
    8.5289    1.0444    0.0000 C   0  0  0  0  0  0  0  0  0  0  0  0
    9.6124    0.0071    0.0000 C   0  0  0  0  0  0  0  0  0  0  0  0
   11.0525    0.4267    0.0000 N   0  0  0  0  0  0  0  0  0  0  0  0
    3.4818    2.2799    0.0000 C   0  0  0  0  0  0  0  0  0  0  0  0
    2.0417    1.8603    0.0000 C   0  0  0  0  0  0  0  0  0  0  0  0
    1.6850    0.4033    0.0000 C   0  0  0  0  0  0  0  0  0  0  0  0
    0.6016    1.4406    0.0000 C   0  0  0  0  0  0  0  0  0  0  0  0
    0.2449   -0.0163    0.0000 C   0  0  0  0  0  0  0  0  0  0  0  0
   -0.8385    1.0210    0.0000 C   0  0  0  0  0  0  0  0  0  0  0  0
   -2.2786    0.6014    0.0000 C   0  0  0  0  0  0  0  0  0  0  0  0
   -2.6353   -0.8556    0.0000 C   0  0  0  0  0  0  0  0  0  0  0  0
   -3.8212    0.0628    0.0000 C   0  0  0  0  0  0  0  0  0  0  0  0
  2  1  1  6
  2  3  1  0
  3  4  1  0
  4  5  1  0
  5  6  2  0
  5  7  1  0
  2  8  1  0
  8  9  1  6
  9 10  1  0
 11 10  1  6
 11 12  1  0
 12 13  1  1
 13 14  1  6
 13 15  1  0
 16 15  1  1
 16 17  1  0
 17 18  1  0
 18 19  1  1
 19 20  1  0
 20 21  1  0
 21 22  1  0
 22 23  1  0
 18 24  1  0
 24 25  1  0
 25 26  1  0
 26 27  1  6
 26 28  1  0
 28 29  1  6
 29 30  1  0
 30 31  1  0
 31 32  1  6
 31  8  1  0
 31 11  1  0
 28 12  1  0
 26 16  1  0
M  END
>  <MS_ID>  (2348) 
MS2432

>  <SMILES>  (2348) 
C[C@H](CCC(=O)O)[C@H]1CC[C@H]2[C@@H]3[C@@H](O)C[C@@H]4C[C@H](CSCCN)CC[C@]4(C)[C@H]3CC[C@]12C

>  <Structure_dimension>  (2348) 
2D

$$$$
MS2433
     RDKit          2D

 32 35  0  0  0  0  0  0  0  0999 V2000
   -4.7932   -3.1000    0.0000 C   0  0  0  0  0  0  0  0  0  0  0  0
   -4.0181   -1.8159    0.0000 C   0  0  0  0  0  0  0  0  0  0  0  0
   -4.7427   -0.5025    0.0000 C   0  0  0  0  0  0  0  0  0  0  0  0
   -6.2424   -0.4733    0.0000 C   0  0  0  0  0  0  0  0  0  0  0  0
   -6.9669    0.8401    0.0000 C   0  0  0  0  0  0  0  0  0  0  0  0
   -6.1918    2.1243    0.0000 O   0  0  0  0  0  0  0  0  0  0  0  0
   -8.4667    0.8693    0.0000 O   0  0  0  0  0  0  0  0  0  0  0  0
   -2.5184   -1.8451    0.0000 C   0  0  0  0  0  0  0  0  0  0  0  0
   -1.6605   -3.0755    0.0000 C   0  0  0  0  0  0  0  0  0  0  0  0
   -0.2252   -2.6399    0.0000 C   0  0  0  0  0  0  0  0  0  0  0  0
   -0.1960   -1.1401    0.0000 C   0  0  0  0  0  0  0  0  0  0  0  0
    0.9381   -0.1583    0.0000 C   0  0  0  0  0  0  0  0  0  0  0  0
    2.3554   -0.6496    0.0000 C   0  0  0  0  0  0  0  0  0  0  0  0
    2.6386   -2.1226    0.0000 O   0  0  0  0  0  0  0  0  0  0  0  0
    4.0559   -2.6138    0.0000 C   0  0  0  0  0  0  0  0  0  0  0  0
    4.3392   -4.0868    0.0000 C   0  0  0  0  0  0  0  0  0  0  0  0
    5.7564   -4.5780    0.0000 C   0  0  0  0  0  0  0  0  0  0  0  0
    6.0397   -6.0510    0.0000 O   0  0  0  0  0  0  0  0  0  0  0  0
    3.4894    0.3322    0.0000 C   0  0  0  0  0  0  0  0  0  0  0  0
    3.2062    1.8053    0.0000 C   0  0  0  0  0  0  0  0  0  0  0  0
    4.3402    2.7871    0.0000 C   0  0  0  0  0  0  0  0  0  0  0  0
    4.0570    4.2601    0.0000 C   0  0  0  0  0  0  0  0  0  0  0  0
    5.1910    5.2419    0.0000 O   0  0  0  0  0  0  0  0  0  0  0  0
    2.6397    4.7513    0.0000 C   0  0  0  0  0  0  0  0  0  0  0  0
    1.5057    3.7695    0.0000 C   0  0  0  0  0  0  0  0  0  0  0  0
    1.7889    2.2965    0.0000 C   0  0  0  0  0  0  0  0  0  0  0  0
    0.3716    2.7877    0.0000 C   0  0  0  0  0  0  0  0  0  0  0  0
    0.6549    1.3147    0.0000 C   0  0  0  0  0  0  0  0  0  0  0  0
   -0.7624    1.8059    0.0000 C   0  0  0  0  0  0  0  0  0  0  0  0
   -1.8965    0.8241    0.0000 C   0  0  0  0  0  0  0  0  0  0  0  0
   -1.6132   -0.6489    0.0000 C   0  0  0  0  0  0  0  0  0  0  0  0
   -3.0741   -0.3086    0.0000 C   0  0  0  0  0  0  0  0  0  0  0  0
  2  1  1  6
  2  3  1  0
  3  4  1  0
  4  5  1  0
  5  6  2  0
  5  7  1  0
  2  8  1  0
  8  9  1  6
  9 10  1  0
 11 10  1  6
 11 12  1  0
 12 13  1  1
 13 14  1  6
 14 15  1  0
 15 16  1  0
 16 17  1  0
 17 18  1  0
 13 19  1  0
 20 19  1  1
 20 21  1  0
 21 22  1  0
 22 23  1  1
 22 24  1  0
 24 25  1  0
 25 26  1  0
 26 27  1  6
 26 28  1  0
 28 29  1  6
 29 30  1  0
 30 31  1  0
 31 32  1  6
 31  8  1  0
 31 11  1  0
 28 12  1  0
 26 20  1  0
M  END
>  <MS_ID>  (2349) 
MS2433

>  <SMILES>  (2349) 
C[C@H](CCC(=O)O)[C@H]1CC[C@H]2[C@@H]3[C@@H](OCCCO)C[C@@H]4C[C@H](O)CC[C@]4(C)[C@H]3CC[C@]12C

>  <Structure_dimension>  (2349) 
2D

$$$$
MS2434
     RDKit          2D

 31 34  0  0  0  0  0  0  0  0999 V2000
   -3.3365   -3.6593    0.0000 C   0  0  0  0  0  0  0  0  0  0  0  0
   -2.4053   -2.4834    0.0000 C   0  0  0  0  0  0  0  0  0  0  0  0
   -2.9582   -1.0889    0.0000 C   0  0  0  0  0  0  0  0  0  0  0  0
   -4.4422   -0.8705    0.0000 C   0  0  0  0  0  0  0  0  0  0  0  0
   -4.9950    0.5239    0.0000 C   0  0  0  0  0  0  0  0  0  0  0  0
   -4.0638    1.6999    0.0000 O   0  0  0  0  0  0  0  0  0  0  0  0
   -6.4790    0.7424    0.0000 O   0  0  0  0  0  0  0  0  0  0  0  0
   -7.0318    2.1368    0.0000 C   0  0  0  0  0  0  0  0  0  0  0  0
   -8.4262    1.5840    0.0000 C   0  0  0  0  0  0  0  0  0  0  0  0
   -5.6374    2.6896    0.0000 C   0  0  0  0  0  0  0  0  0  0  0  0
   -7.5846    3.5312    0.0000 C   0  0  0  0  0  0  0  0  0  0  0  0
   -0.9213   -2.7018    0.0000 C   0  0  0  0  0  0  0  0  0  0  0  0
   -0.2258   -4.0308    0.0000 C   0  0  0  0  0  0  0  0  0  0  0  0
    1.2531   -3.7800    0.0000 C   0  0  0  0  0  0  0  0  0  0  0  0
    1.4715   -2.2960    0.0000 C   0  0  0  0  0  0  0  0  0  0  0  0
    2.7205   -1.4653    0.0000 C   0  0  0  0  0  0  0  0  0  0  0  0
    4.0644   -2.1317    0.0000 C   0  0  0  0  0  0  0  0  0  0  0  0
    5.3134   -1.3010    0.0000 C   0  0  0  0  0  0  0  0  0  0  0  0
    5.2186    0.1960    0.0000 C   0  0  0  0  0  0  0  0  0  0  0  0
    6.4676    1.0266    0.0000 C   0  0  0  0  0  0  0  0  0  0  0  0
    6.3727    2.5236    0.0000 C   0  0  0  0  0  0  0  0  0  0  0  0
    7.6217    3.3543    0.0000 O   0  0  0  0  0  0  0  0  0  0  0  0
    5.0288    3.1900    0.0000 C   0  0  0  0  0  0  0  0  0  0  0  0
    3.7798    2.3593    0.0000 C   0  0  0  0  0  0  0  0  0  0  0  0
    3.8747    0.8623    0.0000 C   0  0  0  0  0  0  0  0  0  0  0  0
    2.5308    1.5287    0.0000 C   0  0  0  0  0  0  0  0  0  0  0  0
    2.6257    0.0317    0.0000 C   0  0  0  0  0  0  0  0  0  0  0  0
    1.2818    0.6980    0.0000 C   0  0  0  0  0  0  0  0  0  0  0  0
    0.0328   -0.1326    0.0000 C   0  0  0  0  0  0  0  0  0  0  0  0
    0.1277   -1.6296    0.0000 C   0  0  0  0  0  0  0  0  0  0  0  0
   -1.2785   -1.1074    0.0000 C   0  0  0  0  0  0  0  0  0  0  0  0
  2  1  1  6
  2  3  1  0
  3  4  1  0
  4  5  1  0
  5  6  2  0
  5  7  1  0
  7  8  1  0
  8  9  1  0
  8 10  1  0
  8 11  1  0
  2 12  1  0
 12 13  1  6
 13 14  1  0
 15 14  1  6
 15 16  1  0
 16 17  1  1
 17 18  1  0
 19 18  1  1
 19 20  1  0
 20 21  1  0
 21 22  1  6
 21 23  1  0
 23 24  1  0
 24 25  1  0
 25 26  1  6
 25 27  1  0
 27 28  1  6
 28 29  1  0
 29 30  1  0
 30 31  1  6
 30 12  1  0
 30 15  1  0
 27 16  1  0
 25 19  1  0
M  END
>  <MS_ID>  (2350) 
MS2434

>  <SMILES>  (2350) 
C[C@H](CCC(=O)OC(C)(C)C)[C@H]1CC[C@H]2[C@@H]3CC[C@@H]4C[C@@H](O)CC[C@]4(C)[C@H]3CC[C@]12C

>  <Structure_dimension>  (2350) 
2D

$$$$
MS2435
     RDKit          2D

 30 33  0  0  0  0  0  0  0  0999 V2000
   -4.7493   -2.7001    0.0000 C   0  0  0  0  0  0  0  0  0  0  0  0
   -3.6928   -1.6352    0.0000 C   0  0  0  0  0  0  0  0  0  0  0  0
   -4.0867   -0.1879    0.0000 C   0  0  0  0  0  0  0  0  0  0  0  0
   -5.5371    0.1946    0.0000 C   0  0  0  0  0  0  0  0  0  0  0  0
   -5.9311    1.6420    0.0000 C   0  0  0  0  0  0  0  0  0  0  0  0
   -4.8746    2.7068    0.0000 O   0  0  0  0  0  0  0  0  0  0  0  0
   -7.3815    2.0245    0.0000 N   0  0  0  0  0  0  0  0  0  0  0  0
   -7.7754    3.4718    0.0000 O   0  0  0  0  0  0  0  0  0  0  0  0
   -2.2424   -2.0177    0.0000 C   0  0  0  0  0  0  0  0  0  0  0  0
   -1.6993   -3.4160    0.0000 C   0  0  0  0  0  0  0  0  0  0  0  0
   -0.2017   -3.3316    0.0000 C   0  0  0  0  0  0  0  0  0  0  0  0
    0.1808   -1.8812    0.0000 C   0  0  0  0  0  0  0  0  0  0  0  0
    1.5146   -1.1949    0.0000 C   0  0  0  0  0  0  0  0  0  0  0  0
    2.7759   -2.0069    0.0000 C   0  0  0  0  0  0  0  0  0  0  0  0
    2.7033   -3.5051    0.0000 O   0  0  0  0  0  0  0  0  0  0  0  0
    4.1097   -1.3206    0.0000 C   0  0  0  0  0  0  0  0  0  0  0  0
    5.3709   -2.1326    0.0000 O   0  0  0  0  0  0  0  0  0  0  0  0
    4.1823    0.1776    0.0000 C   0  0  0  0  0  0  0  0  0  0  0  0
    5.5161    0.8639    0.0000 C   0  0  0  0  0  0  0  0  0  0  0  0
    5.5887    2.3621    0.0000 C   0  0  0  0  0  0  0  0  0  0  0  0
    6.9225    3.0484    0.0000 O   0  0  0  0  0  0  0  0  0  0  0  0
    4.3274    3.1741    0.0000 C   0  0  0  0  0  0  0  0  0  0  0  0
    2.9936    2.4878    0.0000 C   0  0  0  0  0  0  0  0  0  0  0  0
    2.9210    0.9896    0.0000 C   0  0  0  0  0  0  0  0  0  0  0  0
    1.6598    1.8016    0.0000 C   0  0  0  0  0  0  0  0  0  0  0  0
    1.5872    0.3033    0.0000 C   0  0  0  0  0  0  0  0  0  0  0  0
    0.3260    1.1153    0.0000 C   0  0  0  0  0  0  0  0  0  0  0  0
   -1.0078    0.4291    0.0000 C   0  0  0  0  0  0  0  0  0  0  0  0
   -1.0804   -1.0692    0.0000 C   0  0  0  0  0  0  0  0  0  0  0  0
   -2.4196   -0.3935    0.0000 C   0  0  0  0  0  0  0  0  0  0  0  0
  2  1  1  6
  2  3  1  0
  3  4  1  0
  4  5  1  0
  5  6  2  0
  5  7  1  0
  7  8  1  0
  2  9  1  0
  9 10  1  6
 10 11  1  0
 12 11  1  6
 12 13  1  0
 13 14  1  1
 14 15  1  1
 14 16  1  0
 16 17  1  1
 16 18  1  0
 18 19  1  1
 19 20  1  0
 20 21  1  1
 20 22  1  0
 22 23  1  0
 23 24  1  0
 24 25  1  6
 24 26  1  0
 26 27  1  6
 27 28  1  0
 28 29  1  0
 29 30  1  6
 29  9  1  0
 29 12  1  0
 26 13  1  0
 24 18  1  0
M  END
>  <MS_ID>  (2351) 
MS2435

>  <SMILES>  (2351) 
C[C@H](CCC(=O)NO)[C@H]1CC[C@H]2[C@@H]3[C@H](O)[C@H](O)[C@@H]4C[C@H](O)CC[C@]4(C)[C@H]3CC[C@]12C

>  <Structure_dimension>  (2351) 
2D

$$$$
MS2436
     RDKit          2D

 33 36  0  0  0  0  0  0  0  0999 V2000
   -2.2954    1.6450    0.0000 C   0  0  0  0  0  0  0  0  0  0  0  0
   -2.1946    0.1484    0.0000 C   0  0  0  0  0  0  0  0  0  0  0  0
   -3.5328   -0.5292    0.0000 C   0  0  0  0  0  0  0  0  0  0  0  0
   -4.7887    0.2910    0.0000 C   0  0  0  0  0  0  0  0  0  0  0  0
   -6.1270   -0.3866    0.0000 C   0  0  0  0  0  0  0  0  0  0  0  0
   -6.2093   -1.8843    0.0000 O   0  0  0  0  0  0  0  0  0  0  0  0
   -7.3829    0.4336    0.0000 N   0  0  0  0  0  0  0  0  0  0  0  0
   -8.7211   -0.2440    0.0000 C   0  0  0  0  0  0  0  0  0  0  0  0
   -9.9771    0.5761    0.0000 C   0  0  0  0  0  0  0  0  0  0  0  0
   -9.8947    2.0739    0.0000 O   0  0  0  0  0  0  0  0  0  0  0  0
  -11.3153   -0.1014    0.0000 O   0  0  0  0  0  0  0  0  0  0  0  0
   -0.9387   -0.6718    0.0000 C   0  0  0  0  0  0  0  0  0  0  0  0
   -0.8640   -2.1699    0.0000 C   0  0  0  0  0  0  0  0  0  0  0  0
    0.5839   -2.5618    0.0000 C   0  0  0  0  0  0  0  0  0  0  0  0
    1.4041   -1.3059    0.0000 C   0  0  0  0  0  0  0  0  0  0  0  0
    2.8862   -1.0750    0.0000 C   0  0  0  0  0  0  0  0  0  0  0  0
    3.8272   -2.2432    0.0000 C   0  0  0  0  0  0  0  0  0  0  0  0
    3.2861   -3.6422    0.0000 O   0  0  0  0  0  0  0  0  0  0  0  0
    5.3093   -2.0123    0.0000 C   0  0  0  0  0  0  0  0  0  0  0  0
    5.8505   -0.6133    0.0000 C   0  0  0  0  0  0  0  0  0  0  0  0
    7.3326   -0.3824    0.0000 C   0  0  0  0  0  0  0  0  0  0  0  0
    7.8737    1.0166    0.0000 C   0  0  0  0  0  0  0  0  0  0  0  0
    9.3558    1.2475    0.0000 O   0  0  0  0  0  0  0  0  0  0  0  0
    6.9327    2.1847    0.0000 C   0  0  0  0  0  0  0  0  0  0  0  0
    5.4506    1.9538    0.0000 C   0  0  0  0  0  0  0  0  0  0  0  0
    4.9095    0.5548    0.0000 C   0  0  0  0  0  0  0  0  0  0  0  0
    3.9685    1.7230    0.0000 C   0  0  0  0  0  0  0  0  0  0  0  0
    3.4273    0.3240    0.0000 C   0  0  0  0  0  0  0  0  0  0  0  0
    2.4863    1.4921    0.0000 C   0  0  0  0  0  0  0  0  0  0  0  0
    1.0042    1.2612    0.0000 C   0  0  0  0  0  0  0  0  0  0  0  0
    0.4631   -0.1378    0.0000 C   0  0  0  0  0  0  0  0  0  0  0  0
   -0.5949    0.9256    0.0000 C   0  0  0  0  0  0  0  0  0  0  0  0
   -1.5153    2.1100    0.0000 N   0  0  0  0  0  0  0  0  0  0  0  0
  2  1  1  1
  2  3  1  0
  3  4  1  0
  4  5  1  0
  5  6  2  0
  5  7  1  0
  7  8  1  0
  8  9  1  0
  9 10  2  0
  9 11  1  0
  2 12  1  0
 12 13  1  6
 13 14  1  0
 15 14  1  6
 15 16  1  0
 16 17  1  1
 17 18  1  6
 17 19  1  0
 20 19  1  1
 20 21  1  0
 21 22  1  0
 22 23  1  1
 22 24  1  0
 24 25  1  0
 25 26  1  0
 26 27  1  6
 26 28  1  0
 28 29  1  6
 29 30  1  0
 30 31  1  0
 31 32  1  6
 32 33  3  0
 31 12  1  0
 31 15  1  0
 28 16  1  0
 26 20  1  0
M  END
>  <MS_ID>  (2352) 
MS2436

>  <SMILES>  (2352) 
C[C@H](CCC(=O)NCC(=O)O)[C@H]1CC[C@H]2[C@@H]3[C@@H](O)C[C@@H]4C[C@H](O)CC[C@]4(C)[C@H]3CC[C@]12C#N

>  <Structure_dimension>  (2352) 
2D

$$$$
MS2437
     RDKit          2D

 35 38  0  0  0  0  0  0  0  0999 V2000
   -1.5102   -4.3418    0.0000 C   0  0  0  0  0  0  0  0  0  0  0  0
   -0.8246   -3.0077    0.0000 C   0  0  0  0  0  0  0  0  0  0  0  0
   -1.6372   -1.7469    0.0000 C   0  0  0  0  0  0  0  0  0  0  0  0
   -3.1354   -1.8202    0.0000 C   0  0  0  0  0  0  0  0  0  0  0  0
   -3.9480   -0.5594    0.0000 C   0  0  0  0  0  0  0  0  0  0  0  0
   -3.2624    0.7748    0.0000 O   0  0  0  0  0  0  0  0  0  0  0  0
   -5.4462   -0.6327    0.0000 O   0  0  0  0  0  0  0  0  0  0  0  0
   -6.2588    0.6281    0.0000 C   0  0  0  0  0  0  0  0  0  0  0  0
   -7.7570    0.5548    0.0000 C   0  0  0  0  0  0  0  0  0  0  0  0
   -8.5696    1.8156    0.0000 O   0  0  0  0  0  0  0  0  0  0  0  0
  -10.0678    1.7423    0.0000 P   0  0  0  0  0  0  0  0  0  0  0  0
  -10.1411    3.2405    0.0000 O   0  0  0  0  0  0  0  0  0  0  0  0
   -9.9945    0.2441    0.0000 O   0  0  0  0  0  0  0  0  0  0  0  0
  -11.5660    1.6690    0.0000 O   0  0  0  0  0  0  0  0  0  0  0  0
    0.6736   -2.9344    0.0000 C   0  0  0  0  0  0  0  0  0  0  0  0
    1.6136   -4.1034    0.0000 C   0  0  0  0  0  0  0  0  0  0  0  0
    3.0158   -3.5707    0.0000 C   0  0  0  0  0  0  0  0  0  0  0  0
    2.9425   -2.0725    0.0000 C   0  0  0  0  0  0  0  0  0  0  0  0
    4.0068   -1.0155    0.0000 C   0  0  0  0  0  0  0  0  0  0  0  0
    5.4544   -1.4087    0.0000 C   0  0  0  0  0  0  0  0  0  0  0  0
    5.8376   -2.8589    0.0000 O   0  0  0  0  0  0  0  0  0  0  0  0
    6.5187   -0.3517    0.0000 C   0  0  0  0  0  0  0  0  0  0  0  0
    6.1355    1.0985    0.0000 C   0  0  0  0  0  0  0  0  0  0  0  0
    7.1998    2.1555    0.0000 C   0  0  0  0  0  0  0  0  0  0  0  0
    6.8166    3.6057    0.0000 C   0  0  0  0  0  0  0  0  0  0  0  0
    7.8809    4.6627    0.0000 O   0  0  0  0  0  0  0  0  0  0  0  0
    5.3690    3.9989    0.0000 C   0  0  0  0  0  0  0  0  0  0  0  0
    4.3047    2.9420    0.0000 C   0  0  0  0  0  0  0  0  0  0  0  0
    4.6879    1.4917    0.0000 C   0  0  0  0  0  0  0  0  0  0  0  0
    3.2404    1.8850    0.0000 C   0  0  0  0  0  0  0  0  0  0  0  0
    3.6236    0.4347    0.0000 C   0  0  0  0  0  0  0  0  0  0  0  0
    2.1761    0.8280    0.0000 C   0  0  0  0  0  0  0  0  0  0  0  0
    1.1117   -0.2290    0.0000 C   0  0  0  0  0  0  0  0  0  0  0  0
    1.4950   -1.6792    0.0000 C   0  0  0  0  0  0  0  0  0  0  0  0
    0.0142   -1.4394    0.0000 C   0  0  0  0  0  0  0  0  0  0  0  0
  2  1  1  6
  2  3  1  0
  3  4  1  0
  4  5  1  0
  5  6  2  0
  5  7  1  0
  7  8  1  0
  8  9  1  0
  9 10  1  0
 10 11  1  0
 11 12  2  0
 11 13  1  0
 11 14  1  0
  2 15  1  0
 15 16  1  6
 16 17  1  0
 18 17  1  6
 18 19  1  0
 19 20  1  1
 20 21  1  6
 20 22  1  0
 23 22  1  1
 23 24  1  0
 24 25  1  0
 25 26  1  1
 25 27  1  0
 27 28  1  0
 28 29  1  0
 29 30  1  6
 29 31  1  0
 31 32  1  6
 32 33  1  0
 33 34  1  0
 34 35  1  6
 34 15  1  0
 34 18  1  0
 31 19  1  0
 29 23  1  0
M  END
>  <MS_ID>  (2353) 
MS2437

>  <SMILES>  (2353) 
C[C@H](CCC(=O)OCCOP(=O)(O)O)[C@H]1CC[C@H]2[C@@H]3[C@@H](O)C[C@@H]4C[C@H](O)CC[C@]4(C)[C@H]3CC[C@]12C

>  <Structure_dimension>  (2353) 
2D

$$$$
MS2438
     RDKit          2D

 28 31  0  0  0  0  0  0  0  0999 V2000
   -5.0096   -2.1352    0.0000 C   0  0  0  0  0  0  0  0  0  0  0  0
   -3.8132   -1.2303    0.0000 C   0  0  0  0  0  0  0  0  0  0  0  0
   -3.9987    0.2582    0.0000 C   0  0  0  0  0  0  0  0  0  0  0  0
   -5.3805    0.8418    0.0000 C   0  0  0  0  0  0  0  0  0  0  0  0
   -5.5659    2.3303    0.0000 C   0  0  0  0  0  0  0  0  0  0  0  0
   -6.9477    2.9140    0.0000 O   0  0  0  0  0  0  0  0  0  0  0  0
   -4.3695    3.2351    0.0000 S   0  0  0  0  0  0  0  0  0  0  0  0
   -2.4315   -1.8140    0.0000 C   0  0  0  0  0  0  0  0  0  0  0  0
   -2.0914   -3.2749    0.0000 C   0  0  0  0  0  0  0  0  0  0  0  0
   -0.5969   -3.4030    0.0000 C   0  0  0  0  0  0  0  0  0  0  0  0
   -0.0133   -2.0212    0.0000 C   0  0  0  0  0  0  0  0  0  0  0  0
    1.4041   -1.5304    0.0000 C   0  0  0  0  0  0  0  0  0  0  0  0
    2.5379   -2.5125    0.0000 C   0  0  0  0  0  0  0  0  0  0  0  0
    3.9554   -2.0216    0.0000 C   0  0  0  0  0  0  0  0  0  0  0  0
    4.2390   -0.5487    0.0000 C   0  0  0  0  0  0  0  0  0  0  0  0
    5.6564   -0.0578    0.0000 C   0  0  0  0  0  0  0  0  0  0  0  0
    5.9400    1.4151    0.0000 C   0  0  0  0  0  0  0  0  0  0  0  0
    7.3574    1.9060    0.0000 O   0  0  0  0  0  0  0  0  0  0  0  0
    4.8062    2.3972    0.0000 C   0  0  0  0  0  0  0  0  0  0  0  0
    3.3888    1.9064    0.0000 C   0  0  0  0  0  0  0  0  0  0  0  0
    3.1052    0.4334    0.0000 C   0  0  0  0  0  0  0  0  0  0  0  0
    1.9714    1.4155    0.0000 C   0  0  0  0  0  0  0  0  0  0  0  0
    1.6878   -0.0574    0.0000 C   0  0  0  0  0  0  0  0  0  0  0  0
    0.5540    0.9246    0.0000 C   0  0  0  0  0  0  0  0  0  0  0  0
   -0.8635    0.4338    0.0000 C   0  0  0  0  0  0  0  0  0  0  0  0
   -1.9973    1.4159    0.0000 O   0  0  0  0  0  0  0  0  0  0  0  0
   -1.1471   -1.0392    0.0000 C   0  0  0  0  0  0  0  0  0  0  0  0
   -2.3773   -0.1810    0.0000 C   0  0  0  0  0  0  0  0  0  0  0  0
  2  1  1  6
  2  3  1  0
  3  4  1  0
  4  5  1  0
  5  6  2  0
  5  7  1  0
  2  8  1  0
  8  9  1  6
  9 10  1  0
 11 10  1  6
 11 12  1  0
 12 13  1  1
 13 14  1  0
 15 14  1  1
 15 16  1  0
 16 17  1  0
 17 18  1  6
 17 19  1  0
 19 20  1  0
 20 21  1  0
 21 22  1  6
 21 23  1  0
 23 24  1  6
 24 25  1  0
 25 26  2  0
 25 27  1  0
 27 28  1  6
 27  8  1  0
 27 11  1  0
 23 12  1  0
 21 15  1  0
M  END
>  <MS_ID>  (2354) 
MS2438

>  <SMILES>  (2354) 
C[C@H](CCC(=O)S)[C@H]1CC[C@H]2[C@@H]3CC[C@@H]4C[C@@H](O)CC[C@]4(C)[C@H]3CC(=O)[C@]12C

>  <Structure_dimension>  (2354) 
2D

$$$$
MS2439
     RDKit          2D

 29 32  0  0  0  0  0  0  0  0999 V2000
   -4.6958   -2.6034    0.0000 C   0  0  0  0  0  0  0  0  0  0  0  0
   -3.5597   -1.6240    0.0000 C   0  0  0  0  0  0  0  0  0  0  0  0
   -3.8399   -0.1504    0.0000 C   0  0  0  0  0  0  0  0  0  0  0  0
   -5.2561    0.3438    0.0000 C   0  0  0  0  0  0  0  0  0  0  0  0
   -5.5363    1.8174    0.0000 C   0  0  0  0  0  0  0  0  0  0  0  0
   -6.9525    2.3116    0.0000 O   0  0  0  0  0  0  0  0  0  0  0  0
   -4.4002    2.7968    0.0000 S   0  0  0  0  0  0  0  0  0  0  0  0
   -4.6804    4.2704    0.0000 O   0  0  0  0  0  0  0  0  0  0  0  0
   -2.1434   -2.1182    0.0000 C   0  0  0  0  0  0  0  0  0  0  0  0
   -1.7108   -3.5544    0.0000 C   0  0  0  0  0  0  0  0  0  0  0  0
   -0.2111   -3.5867    0.0000 C   0  0  0  0  0  0  0  0  0  0  0  0
    0.2831   -2.1705    0.0000 C   0  0  0  0  0  0  0  0  0  0  0  0
    1.6662   -1.5901    0.0000 C   0  0  0  0  0  0  0  0  0  0  0  0
    2.8605   -2.4977    0.0000 C   0  0  0  0  0  0  0  0  0  0  0  0
    4.2436   -1.9173    0.0000 C   0  0  0  0  0  0  0  0  0  0  0  0
    4.4325   -0.4292    0.0000 C   0  0  0  0  0  0  0  0  0  0  0  0
    5.8157    0.1512    0.0000 C   0  0  0  0  0  0  0  0  0  0  0  0
    6.0046    1.6393    0.0000 C   0  0  0  0  0  0  0  0  0  0  0  0
    7.3877    2.2197    0.0000 O   0  0  0  0  0  0  0  0  0  0  0  0
    4.8103    2.5469    0.0000 C   0  0  0  0  0  0  0  0  0  0  0  0
    3.4272    1.9665    0.0000 C   0  0  0  0  0  0  0  0  0  0  0  0
    3.2383    0.4784    0.0000 C   0  0  0  0  0  0  0  0  0  0  0  0
    2.0440    1.3861    0.0000 C   0  0  0  0  0  0  0  0  0  0  0  0
    1.8551   -0.1020    0.0000 C   0  0  0  0  0  0  0  0  0  0  0  0
    0.6609    0.8056    0.0000 C   0  0  0  0  0  0  0  0  0  0  0  0
   -0.7223    0.2252    0.0000 C   0  0  0  0  0  0  0  0  0  0  0  0
   -1.9165    1.1328    0.0000 O   0  0  0  0  0  0  0  0  0  0  0  0
   -0.9112   -1.2628    0.0000 C   0  0  0  0  0  0  0  0  0  0  0  0
   -2.1937   -0.4850    0.0000 C   0  0  0  0  0  0  0  0  0  0  0  0
  2  1  1  6
  2  3  1  0
  3  4  1  0
  4  5  1  0
  5  6  2  0
  5  7  1  0
  7  8  1  0
  2  9  1  0
  9 10  1  6
 10 11  1  0
 12 11  1  6
 12 13  1  0
 13 14  1  1
 14 15  1  0
 16 15  1  1
 16 17  1  0
 17 18  1  0
 18 19  1  1
 18 20  1  0
 20 21  1  0
 21 22  1  0
 22 23  1  6
 22 24  1  0
 24 25  1  6
 25 26  1  0
 26 27  1  6
 26 28  1  0
 28 29  1  6
 28  9  1  0
 28 12  1  0
 24 13  1  0
 22 16  1  0
M  END
>  <MS_ID>  (2355) 
MS2439

>  <SMILES>  (2355) 
C[C@H](CCC(=O)SO)[C@H]1CC[C@H]2[C@@H]3CC[C@@H]4C[C@H](O)CC[C@]4(C)[C@H]3C[C@@H](O)[C@]12C

>  <Structure_dimension>  (2355) 
2D

$$$$
MS2440
     RDKit          2D

 30 33  0  0  0  0  0  0  0  0999 V2000
   -4.5685   -2.6908    0.0000 C   0  0  0  0  0  0  0  0  0  0  0  0
   -3.4838   -1.6548    0.0000 C   0  0  0  0  0  0  0  0  0  0  0  0
   -3.8388   -0.1974    0.0000 C   0  0  0  0  0  0  0  0  0  0  0  0
   -5.2784    0.2240    0.0000 C   0  0  0  0  0  0  0  0  0  0  0  0
   -5.6333    1.6814    0.0000 C   0  0  0  0  0  0  0  0  0  0  0  0
   -4.5486    2.7174    0.0000 O   0  0  0  0  0  0  0  0  0  0  0  0
   -7.0729    2.1027    0.0000 C   0  0  0  0  0  0  0  0  0  0  0  0
   -7.4279    3.5601    0.0000 S   0  0  0  0  0  0  0  0  0  0  0  0
   -2.0442   -2.0761    0.0000 C   0  0  0  0  0  0  0  0  0  0  0  0
   -1.5389   -3.4884    0.0000 C   0  0  0  0  0  0  0  0  0  0  0  0
   -0.0395   -3.4442    0.0000 C   0  0  0  0  0  0  0  0  0  0  0  0
    0.3818   -2.0046    0.0000 C   0  0  0  0  0  0  0  0  0  0  0  0
    1.7336   -1.3544    0.0000 C   0  0  0  0  0  0  0  0  0  0  0  0
    2.9725   -2.1999    0.0000 C   0  0  0  0  0  0  0  0  0  0  0  0
    2.8597   -3.6957    0.0000 O   0  0  0  0  0  0  0  0  0  0  0  0
    4.3243   -1.5497    0.0000 C   0  0  0  0  0  0  0  0  0  0  0  0
    4.4371   -0.0540    0.0000 C   0  0  0  0  0  0  0  0  0  0  0  0
    5.7888    0.5962    0.0000 C   0  0  0  0  0  0  0  0  0  0  0  0
    5.9016    2.0920    0.0000 C   0  0  0  0  0  0  0  0  0  0  0  0
    7.2534    2.7422    0.0000 O   0  0  0  0  0  0  0  0  0  0  0  0
    4.6627    2.9375    0.0000 C   0  0  0  0  0  0  0  0  0  0  0  0
    3.3109    2.2873    0.0000 C   0  0  0  0  0  0  0  0  0  0  0  0
    3.1981    0.7916    0.0000 C   0  0  0  0  0  0  0  0  0  0  0  0
    1.9591    1.6371    0.0000 C   0  0  0  0  0  0  0  0  0  0  0  0
    1.8464    0.1414    0.0000 C   0  0  0  0  0  0  0  0  0  0  0  0
    0.6074    0.9869    0.0000 C   0  0  0  0  0  0  0  0  0  0  0  0
   -0.7444    0.3367    0.0000 C   0  0  0  0  0  0  0  0  0  0  0  0
   -1.9833    1.1823    0.0000 O   0  0  0  0  0  0  0  0  0  0  0  0
   -0.8572   -1.1590    0.0000 C   0  0  0  0  0  0  0  0  0  0  0  0
   -2.1777   -0.4476    0.0000 C   0  0  0  0  0  0  0  0  0  0  0  0
  2  1  1  6
  2  3  1  0
  3  4  1  0
  4  5  1  0
  5  6  2  0
  5  7  1  0
  7  8  1  0
  2  9  1  0
  9 10  1  6
 10 11  1  0
 12 11  1  6
 12 13  1  0
 13 14  1  1
 14 15  1  6
 14 16  1  0
 17 16  1  1
 17 18  1  0
 18 19  1  0
 19 20  1  6
 19 21  1  0
 21 22  1  0
 22 23  1  0
 23 24  1  6
 23 25  1  0
 25 26  1  6
 26 27  1  0
 27 28  1  6
 27 29  1  0
 29 30  1  6
 29  9  1  0
 29 12  1  0
 25 13  1  0
 23 17  1  0
M  END
>  <MS_ID>  (2356) 
MS2440

>  <SMILES>  (2356) 
C[C@H](CCC(=O)CS)[C@H]1CC[C@H]2[C@@H]3[C@@H](O)C[C@@H]4C[C@@H](O)CC[C@]4(C)[C@H]3C[C@@H](O)[C@]12C

>  <Structure_dimension>  (2356) 
2D

$$$$
MS2441
     RDKit          2D

 35 39  0  0  0  0  0  0  0  0999 V2000
   -1.5041   -4.6898    0.0000 C   0  0  0  0  0  0  0  0  0  0  0  0
   -0.8462   -3.3417    0.0000 C   0  0  0  0  0  0  0  0  0  0  0  0
   -1.6847   -2.0980    0.0000 C   0  0  0  0  0  0  0  0  0  0  0  0
   -3.1811   -2.2022    0.0000 C   0  0  0  0  0  0  0  0  0  0  0  0
   -4.0195   -0.9584    0.0000 C   0  0  0  0  0  0  0  0  0  0  0  0
   -3.3616    0.3896    0.0000 O   0  0  0  0  0  0  0  0  0  0  0  0
   -5.5159   -1.0627    0.0000 O   0  0  0  0  0  0  0  0  0  0  0  0
   -6.3544    0.1811    0.0000 C   0  0  0  0  0  0  0  0  0  0  0  0
   -7.8534    0.2338    0.0000 C   0  0  0  0  0  0  0  0  0  0  0  0
   -8.2665    1.6758    0.0000 C   0  0  0  0  0  0  0  0  0  0  0  0
   -9.6759    2.1892    0.0000 O   0  0  0  0  0  0  0  0  0  0  0  0
   -7.0228    2.5143    0.0000 C   0  0  0  0  0  0  0  0  0  0  0  0
   -6.9700    4.0134    0.0000 O   0  0  0  0  0  0  0  0  0  0  0  0
   -5.8410    1.5905    0.0000 C   0  0  0  0  0  0  0  0  0  0  0  0
   -4.3990    2.0036    0.0000 O   0  0  0  0  0  0  0  0  0  0  0  0
    0.6502   -3.2375    0.0000 C   0  0  0  0  0  0  0  0  0  0  0  0
    1.6140   -4.3868    0.0000 C   0  0  0  0  0  0  0  0  0  0  0  0
    3.0050   -3.8252    0.0000 C   0  0  0  0  0  0  0  0  0  0  0  0
    2.9007   -2.3289    0.0000 C   0  0  0  0  0  0  0  0  0  0  0  0
    3.9430   -1.2501    0.0000 C   0  0  0  0  0  0  0  0  0  0  0  0
    5.3983   -1.6134    0.0000 C   0  0  0  0  0  0  0  0  0  0  0  0
    6.4406   -0.5347    0.0000 C   0  0  0  0  0  0  0  0  0  0  0  0
    6.0275    0.9073    0.0000 C   0  0  0  0  0  0  0  0  0  0  0  0
    7.0698    1.9861    0.0000 C   0  0  0  0  0  0  0  0  0  0  0  0
    6.6567    3.4281    0.0000 C   0  0  0  0  0  0  0  0  0  0  0  0
    7.6990    4.5068    0.0000 O   0  0  0  0  0  0  0  0  0  0  0  0
    5.2013    3.7913    0.0000 C   0  0  0  0  0  0  0  0  0  0  0  0
    4.1591    2.7126    0.0000 C   0  0  0  0  0  0  0  0  0  0  0  0
    4.5722    1.2706    0.0000 C   0  0  0  0  0  0  0  0  0  0  0  0
    3.1168    1.6339    0.0000 C   0  0  0  0  0  0  0  0  0  0  0  0
    3.5299    0.1919    0.0000 C   0  0  0  0  0  0  0  0  0  0  0  0
    2.0745    0.5551    0.0000 C   0  0  0  0  0  0  0  0  0  0  0  0
    1.0323   -0.5236    0.0000 C   0  0  0  0  0  0  0  0  0  0  0  0
    1.4454   -1.9656    0.0000 C   0  0  0  0  0  0  0  0  0  0  0  0
   -0.0400   -1.7565    0.0000 C   0  0  0  0  0  0  0  0  0  0  0  0
  2  1  1  6
  2  3  1  0
  3  4  1  0
  4  5  1  0
  5  6  2  0
  5  7  1  0
  8  7  1  6
  8  9  1  0
  9 10  1  0
 10 11  1  6
 10 12  1  0
 12 13  1  6
 12 14  1  0
 14 15  1  1
  2 16  1  0
 16 17  1  6
 17 18  1  0
 19 18  1  6
 19 20  1  0
 20 21  1  1
 21 22  1  0
 23 22  1  1
 23 24  1  0
 24 25  1  0
 25 26  2  0
 25 27  1  0
 27 28  1  0
 28 29  1  0
 29 30  1  6
 29 31  1  0
 31 32  1  6
 32 33  1  0
 33 34  1  0
 34 35  1  6
 14  8  1  0
 34 16  1  0
 34 19  1  0
 31 20  1  0
 29 23  1  0
M  END
>  <MS_ID>  (2357) 
MS2441

>  <SMILES>  (2357) 
C[C@H](CCC(=O)O[C@@H]1C[C@H](O)[C@H](O)[C@H]1O)[C@H]1CC[C@H]2[C@@H]3CC[C@@H]4CC(=O)CC[C@]4(C)[C@H]3CC[C@]12C

>  <Structure_dimension>  (2357) 
2D

$$$$
MS2442
     RDKit          2D

 34 37  0  0  0  0  0  0  0  0999 V2000
   -3.0140   -4.4146    0.0000 C   0  0  0  0  0  0  0  0  0  0  0  0
   -2.1988   -3.1554    0.0000 C   0  0  0  0  0  0  0  0  0  0  0  0
   -2.8817   -1.8199    0.0000 C   0  0  0  0  0  0  0  0  0  0  0  0
   -4.3798   -1.7435    0.0000 C   0  0  0  0  0  0  0  0  0  0  0  0
   -5.0627   -0.4080    0.0000 C   0  0  0  0  0  0  0  0  0  0  0  0
   -6.5608   -0.3317    0.0000 O   0  0  0  0  0  0  0  0  0  0  0  0
   -4.2475    0.8512    0.0000 O   0  0  0  0  0  0  0  0  0  0  0  0
   -4.9304    2.1867    0.0000 C   0  0  0  0  0  0  0  0  0  0  0  0
   -6.4285    2.2631    0.0000 O   0  0  0  0  0  0  0  0  0  0  0  0
   -4.1153    3.4459    0.0000 C   0  0  0  0  0  0  0  0  0  0  0  0
   -3.3001    4.7050    0.0000 F   0  0  0  0  0  0  0  0  0  0  0  0
   -5.3745    4.2610    0.0000 F   0  0  0  0  0  0  0  0  0  0  0  0
   -2.8561    2.6307    0.0000 F   0  0  0  0  0  0  0  0  0  0  0  0
   -0.7008   -3.2318    0.0000 C   0  0  0  0  0  0  0  0  0  0  0  0
    0.1180   -4.4886    0.0000 C   0  0  0  0  0  0  0  0  0  0  0  0
    1.5663   -4.0983    0.0000 C   0  0  0  0  0  0  0  0  0  0  0  0
    1.6427   -2.6003    0.0000 C   0  0  0  0  0  0  0  0  0  0  0  0
    2.8070   -1.6546    0.0000 C   0  0  0  0  0  0  0  0  0  0  0  0
    4.2082   -2.1902    0.0000 C   0  0  0  0  0  0  0  0  0  0  0  0
    5.3725   -1.2445    0.0000 C   0  0  0  0  0  0  0  0  0  0  0  0
    5.1358    0.2367    0.0000 C   0  0  0  0  0  0  0  0  0  0  0  0
    6.3001    1.1823    0.0000 C   0  0  0  0  0  0  0  0  0  0  0  0
    6.0634    2.6635    0.0000 C   0  0  0  0  0  0  0  0  0  0  0  0
    7.2277    3.6092    0.0000 O   0  0  0  0  0  0  0  0  0  0  0  0
    4.6622    3.1991    0.0000 C   0  0  0  0  0  0  0  0  0  0  0  0
    3.4978    2.2534    0.0000 C   0  0  0  0  0  0  0  0  0  0  0  0
    3.7346    0.7722    0.0000 C   0  0  0  0  0  0  0  0  0  0  0  0
    2.3335    1.3078    0.0000 C   0  0  0  0  0  0  0  0  0  0  0  0
    2.5703   -0.1734    0.0000 C   0  0  0  0  0  0  0  0  0  0  0  0
    1.1691    0.3621    0.0000 C   0  0  0  0  0  0  0  0  0  0  0  0
    0.0047   -0.5835    0.0000 C   0  0  0  0  0  0  0  0  0  0  0  0
   -1.3964   -0.0480    0.0000 O   0  0  0  0  0  0  0  0  0  0  0  0
    0.2415   -2.0647    0.0000 C   0  0  0  0  0  0  0  0  0  0  0  0
   -1.2079   -1.6786    0.0000 C   0  0  0  0  0  0  0  0  0  0  0  0
  2  1  1  6
  2  3  1  0
  3  4  1  0
  4  5  1  0
  5  6  2  0
  5  7  1  0
  7  8  1  0
  8  9  2  0
  8 10  1  0
 10 11  1  0
 10 12  1  0
 10 13  1  0
  2 14  1  0
 14 15  1  6
 15 16  1  0
 17 16  1  6
 17 18  1  0
 18 19  1  1
 19 20  1  0
 21 20  1  1
 21 22  1  0
 22 23  1  0
 23 24  1  1
 23 25  1  0
 25 26  1  0
 26 27  1  0
 27 28  1  6
 27 29  1  0
 29 30  1  6
 30 31  1  0
 31 32  1  1
 31 33  1  0
 33 34  1  6
 33 14  1  0
 33 17  1  0
 29 18  1  0
 27 21  1  0
M  END
>  <MS_ID>  (2358) 
MS2442

>  <SMILES>  (2358) 
C[C@H](CCC(=O)OC(=O)C(F)(F)F)[C@H]1CC[C@H]2[C@@H]3CC[C@@H]4C[C@H](O)CC[C@]4(C)[C@H]3C[C@H](O)[C@]12C

>  <Structure_dimension>  (2358) 
2D

$$$$
MS2444
     RDKit          2D

 41 45  0  0  0  0  0  0  0  0999 V2000
   -7.1557   -2.8030    0.0000 C   0  0  0  0  0  0  0  0  0  0  0  0
   -6.0509   -1.7884    0.0000 C   0  0  0  0  0  0  0  0  0  0  0  0
   -6.3772   -0.3243    0.0000 C   0  0  0  0  0  0  0  0  0  0  0  0
   -7.8083    0.1252    0.0000 C   0  0  0  0  0  0  0  0  0  0  0  0
   -8.1346    1.5892    0.0000 C   0  0  0  0  0  0  0  0  0  0  0  0
   -7.0298    2.6039    0.0000 O   0  0  0  0  0  0  0  0  0  0  0  0
   -9.5656    2.0387    0.0000 C   0  0  0  0  0  0  0  0  0  0  0  0
   -9.8919    3.5028    0.0000 C   0  0  0  0  0  0  0  0  0  0  0  0
  -11.3230    3.9522    0.0000 O   0  0  0  0  0  0  0  0  0  0  0  0
   -4.6198   -2.2378    0.0000 C   0  0  0  0  0  0  0  0  0  0  0  0
   -4.1422   -3.6598    0.0000 C   0  0  0  0  0  0  0  0  0  0  0  0
   -2.6423   -3.6450    0.0000 C   0  0  0  0  0  0  0  0  0  0  0  0
   -2.1929   -2.2139    0.0000 C   0  0  0  0  0  0  0  0  0  0  0  0
   -0.8286   -1.5904    0.0000 C   0  0  0  0  0  0  0  0  0  0  0  0
    0.3935   -2.4600    0.0000 C   0  0  0  0  0  0  0  0  0  0  0  0
    0.2514   -3.9533    0.0000 O   0  0  0  0  0  0  0  0  0  0  0  0
    1.7578   -1.8365    0.0000 C   0  0  0  0  0  0  0  0  0  0  0  0
    1.8999   -0.3432    0.0000 C   0  0  0  0  0  0  0  0  0  0  0  0
    3.2641    0.2804    0.0000 C   0  0  0  0  0  0  0  0  0  0  0  0
    3.4062    1.7736    0.0000 C   0  0  0  0  0  0  0  0  0  0  0  0
    4.7705    2.3972    0.0000 O   0  0  0  0  0  0  0  0  0  0  0  0
    5.9926    1.5275    0.0000 C   0  0  0  0  0  0  0  0  0  0  0  0
    5.8505    0.0342    0.0000 O   0  0  0  0  0  0  0  0  0  0  0  0
    7.0727   -0.8354    0.0000 C   0  0  0  0  0  0  0  0  0  0  0  0
    6.9306   -2.3287    0.0000 C   0  0  0  0  0  0  0  0  0  0  0  0
    5.5663   -2.9523    0.0000 O   0  0  0  0  0  0  0  0  0  0  0  0
    8.4369   -0.2119    0.0000 C   0  0  0  0  0  0  0  0  0  0  0  0
    9.6590   -1.0816    0.0000 O   0  0  0  0  0  0  0  0  0  0  0  0
    8.5790    1.2814    0.0000 C   0  0  0  0  0  0  0  0  0  0  0  0
    9.9432    1.9050    0.0000 O   0  0  0  0  0  0  0  0  0  0  0  0
    7.3568    2.1511    0.0000 C   0  0  0  0  0  0  0  0  0  0  0  0
    7.4989    3.6443    0.0000 O   0  0  0  0  0  0  0  0  0  0  0  0
    2.1841    2.6433    0.0000 C   0  0  0  0  0  0  0  0  0  0  0  0
    0.8198    2.0197    0.0000 C   0  0  0  0  0  0  0  0  0  0  0  0
    0.6777    0.5265    0.0000 C   0  0  0  0  0  0  0  0  0  0  0  0
   -0.5444    1.3962    0.0000 C   0  0  0  0  0  0  0  0  0  0  0  0
   -0.6865   -0.0971    0.0000 C   0  0  0  0  0  0  0  0  0  0  0  0
   -1.9087    0.7726    0.0000 C   0  0  0  0  0  0  0  0  0  0  0  0
   -3.2729    0.1490    0.0000 C   0  0  0  0  0  0  0  0  0  0  0  0
   -3.4150   -1.3442    0.0000 C   0  0  0  0  0  0  0  0  0  0  0  0
   -4.7214   -0.6071    0.0000 C   0  0  0  0  0  0  0  0  0  0  0  0
  2  1  1  6
  2  3  1  0
  3  4  1  0
  4  5  1  0
  5  6  2  0
  5  7  1  0
  7  8  1  0
  8  9  1  0
  2 10  1  0
 10 11  1  6
 11 12  1  0
 13 12  1  6
 13 14  1  0
 14 15  1  1
 15 16  1  6
 15 17  1  0
 18 17  1  1
 18 19  1  0
 19 20  1  0
 20 21  1  1
 22 21  1  1
 22 23  1  0
 23 24  1  0
 24 25  1  1
 25 26  1  0
 24 27  1  0
 27 28  1  6
 27 29  1  0
 29 30  1  1
 29 31  1  0
 31 32  1  6
 20 33  1  0
 33 34  1  0
 34 35  1  0
 35 36  1  6
 35 37  1  0
 37 38  1  6
 38 39  1  0
 39 40  1  0
 40 41  1  6
 40 10  1  0
 40 13  1  0
 37 14  1  0
 35 18  1  0
 31 22  1  0
M  END
>  <MS_ID>  (2359) 
MS2444

>  <SMILES>  (2359) 
C[C@H](CCC(=O)CCO)[C@H]1CC[C@H]2[C@@H]3[C@@H](O)C[C@@H]4C[C@H](O[C@@H]5O[C@H](CO)[C@@H](O)[C@H](O)[C@H]5O)CC[C@]4(C)[C@H]3CC[C@]12C

>  <Structure_dimension>  (2359) 
2D

$$$$
MS2445
     RDKit          2D

 29 32  0  0  0  0  0  0  0  0999 V2000
    5.2401    2.0328    0.0000 C   0  0  0  0  0  0  0  0  0  0  0  0
    4.0410    1.1316    0.0000 C   0  0  0  0  0  0  0  0  0  0  0  0
    4.2220   -0.3575    0.0000 C   0  0  0  0  0  0  0  0  0  0  0  0
    5.6020   -0.9453    0.0000 C   0  0  0  0  0  0  0  0  0  0  0  0
    5.7830   -2.4343    0.0000 C   0  0  0  0  0  0  0  0  0  0  0  0
    7.1630   -3.0221    0.0000 O   0  0  0  0  0  0  0  0  0  0  0  0
    4.5839   -3.3355    0.0000 Cl  0  0  0  0  0  0  0  0  0  0  0  0
    2.6610    1.7194    0.0000 C   0  0  0  0  0  0  0  0  0  0  0  0
    2.3254    3.1813    0.0000 C   0  0  0  0  0  0  0  0  0  0  0  0
    0.8312    3.3139    0.0000 C   0  0  0  0  0  0  0  0  0  0  0  0
    0.2434    1.9339    0.0000 C   0  0  0  0  0  0  0  0  0  0  0  0
   -1.1754    1.4473    0.0000 C   0  0  0  0  0  0  0  0  0  0  0  0
   -2.3063    2.4327    0.0000 C   0  0  0  0  0  0  0  0  0  0  0  0
   -2.0183    3.9048    0.0000 O   0  0  0  0  0  0  0  0  0  0  0  0
   -3.7252    1.9461    0.0000 C   0  0  0  0  0  0  0  0  0  0  0  0
   -4.0132    0.4740    0.0000 C   0  0  0  0  0  0  0  0  0  0  0  0
   -5.4321   -0.0126    0.0000 C   0  0  0  0  0  0  0  0  0  0  0  0
   -5.7201   -1.4846    0.0000 C   0  0  0  0  0  0  0  0  0  0  0  0
   -7.1390   -1.9713    0.0000 O   0  0  0  0  0  0  0  0  0  0  0  0
   -4.5892   -2.4701    0.0000 C   0  0  0  0  0  0  0  0  0  0  0  0
   -3.1704   -1.9835    0.0000 C   0  0  0  0  0  0  0  0  0  0  0  0
   -2.0395   -2.9690    0.0000 O   0  0  0  0  0  0  0  0  0  0  0  0
   -2.8823   -0.5114    0.0000 C   0  0  0  0  0  0  0  0  0  0  0  0
   -1.7515   -1.4969    0.0000 C   0  0  0  0  0  0  0  0  0  0  0  0
   -1.4635   -0.0248    0.0000 C   0  0  0  0  0  0  0  0  0  0  0  0
   -0.3326   -1.0103    0.0000 C   0  0  0  0  0  0  0  0  0  0  0  0
    1.0863   -0.5237    0.0000 C   0  0  0  0  0  0  0  0  0  0  0  0
    1.3743    0.9484    0.0000 C   0  0  0  0  0  0  0  0  0  0  0  0
    2.6020    0.0865    0.0000 C   0  0  0  0  0  0  0  0  0  0  0  0
  2  1  1  6
  2  3  1  0
  3  4  1  0
  4  5  1  0
  5  6  2  0
  5  7  1  0
  2  8  1  0
  8  9  1  6
  9 10  1  0
 11 10  1  6
 11 12  1  0
 12 13  1  1
 13 14  1  1
 13 15  1  0
 16 15  1  1
 16 17  1  0
 17 18  1  0
 18 19  1  1
 18 20  1  0
 20 21  1  0
 21 22  1  1
 21 23  1  0
 23 24  1  6
 23 25  1  0
 25 26  1  6
 26 27  1  0
 27 28  1  0
 28 29  1  6
 28  8  1  0
 28 11  1  0
 25 12  1  0
 23 16  1  0
M  END
>  <MS_ID>  (2360) 
MS2445

>  <SMILES>  (2360) 
C[C@H](CCC(=O)Cl)[C@H]1CC[C@H]2[C@@H]3[C@H](O)C[C@@H]4C[C@H](O)C[C@H](O)[C@]4(C)[C@H]3CC[C@]12C

>  <Structure_dimension>  (2360) 
2D

$$$$
MS2446
     RDKit          2D

 28 31  0  0  0  0  0  0  0  0999 V2000
   -5.0096   -2.1352    0.0000 C   0  0  0  0  0  0  0  0  0  0  0  0
   -3.8132   -1.2303    0.0000 C   0  0  0  0  0  0  0  0  0  0  0  0
   -3.9987    0.2582    0.0000 C   0  0  0  0  0  0  0  0  0  0  0  0
   -5.3805    0.8418    0.0000 C   0  0  0  0  0  0  0  0  0  0  0  0
   -5.5659    2.3303    0.0000 C   0  0  0  0  0  0  0  0  0  0  0  0
   -4.3695    3.2351    0.0000 O   0  0  0  0  0  0  0  0  0  0  0  0
   -6.9477    2.9140    0.0000 O   0  0  0  0  0  0  0  0  0  0  0  0
   -2.4315   -1.8140    0.0000 C   0  0  0  0  0  0  0  0  0  0  0  0
   -2.0914   -3.2749    0.0000 C   0  0  0  0  0  0  0  0  0  0  0  0
   -0.5969   -3.4030    0.0000 C   0  0  0  0  0  0  0  0  0  0  0  0
   -0.0133   -2.0212    0.0000 C   0  0  0  0  0  0  0  0  0  0  0  0
    1.4041   -1.5304    0.0000 C   0  0  0  0  0  0  0  0  0  0  0  0
    2.5379   -2.5125    0.0000 C   0  0  0  0  0  0  0  0  0  0  0  0
    3.9554   -2.0216    0.0000 C   0  0  0  0  0  0  0  0  0  0  0  0
    4.2390   -0.5487    0.0000 C   0  0  0  0  0  0  0  0  0  0  0  0
    5.6564   -0.0578    0.0000 C   0  0  0  0  0  0  0  0  0  0  0  0
    5.9400    1.4151    0.0000 C   0  0  0  0  0  0  0  0  0  0  0  0
    7.3574    1.9060    0.0000 N   0  0  0  0  0  0  0  0  0  0  0  0
    4.8062    2.3972    0.0000 C   0  0  0  0  0  0  0  0  0  0  0  0
    3.3888    1.9064    0.0000 C   0  0  0  0  0  0  0  0  0  0  0  0
    3.1052    0.4334    0.0000 C   0  0  0  0  0  0  0  0  0  0  0  0
    1.9714    1.4155    0.0000 C   0  0  0  0  0  0  0  0  0  0  0  0
    1.6878   -0.0574    0.0000 C   0  0  0  0  0  0  0  0  0  0  0  0
    0.5540    0.9246    0.0000 C   0  0  0  0  0  0  0  0  0  0  0  0
   -0.8635    0.4338    0.0000 C   0  0  0  0  0  0  0  0  0  0  0  0
   -1.9973    1.4159    0.0000 O   0  0  0  0  0  0  0  0  0  0  0  0
   -1.1471   -1.0392    0.0000 C   0  0  0  0  0  0  0  0  0  0  0  0
   -2.3773   -0.1810    0.0000 C   0  0  0  0  0  0  0  0  0  0  0  0
  2  1  1  6
  2  3  1  0
  3  4  1  0
  4  5  1  0
  5  6  2  0
  5  7  1  0
  2  8  1  0
  8  9  1  6
  9 10  1  0
 11 10  1  6
 11 12  1  0
 12 13  1  1
 13 14  1  0
 15 14  1  1
 15 16  1  0
 16 17  1  0
 17 18  1  6
 17 19  1  0
 19 20  1  0
 20 21  1  0
 21 22  1  6
 21 23  1  0
 23 24  1  6
 24 25  1  0
 25 26  1  6
 25 27  1  0
 27 28  1  6
 27  8  1  0
 27 11  1  0
 23 12  1  0
 21 15  1  0
M  END
>  <MS_ID>  (2361) 
MS2446

>  <SMILES>  (2361) 
C[C@H](CCC(=O)O)[C@H]1CC[C@H]2[C@@H]3CC[C@@H]4C[C@@H](N)CC[C@]4(C)[C@H]3C[C@@H](O)[C@]12C

>  <Structure_dimension>  (2361) 
2D

$$$$
MS2447
     RDKit          2D

 28 31  0  0  0  0  0  0  0  0999 V2000
   -5.0096   -2.1352    0.0000 C   0  0  0  0  0  0  0  0  0  0  0  0
   -3.8132   -1.2303    0.0000 C   0  0  0  0  0  0  0  0  0  0  0  0
   -3.9987    0.2582    0.0000 C   0  0  0  0  0  0  0  0  0  0  0  0
   -5.3805    0.8418    0.0000 C   0  0  0  0  0  0  0  0  0  0  0  0
   -5.5659    2.3303    0.0000 C   0  0  0  0  0  0  0  0  0  0  0  0
   -4.3695    3.2351    0.0000 O   0  0  0  0  0  0  0  0  0  0  0  0
   -6.9477    2.9140    0.0000 O   0  0  0  0  0  0  0  0  0  0  0  0
   -2.4315   -1.8140    0.0000 C   0  0  0  0  0  0  0  0  0  0  0  0
   -2.0914   -3.2749    0.0000 C   0  0  0  0  0  0  0  0  0  0  0  0
   -0.5969   -3.4030    0.0000 C   0  0  0  0  0  0  0  0  0  0  0  0
   -0.0133   -2.0212    0.0000 C   0  0  0  0  0  0  0  0  0  0  0  0
    1.4041   -1.5304    0.0000 C   0  0  0  0  0  0  0  0  0  0  0  0
    2.5379   -2.5125    0.0000 C   0  0  0  0  0  0  0  0  0  0  0  0
    3.9554   -2.0216    0.0000 C   0  0  0  0  0  0  0  0  0  0  0  0
    4.2390   -0.5487    0.0000 C   0  0  0  0  0  0  0  0  0  0  0  0
    5.6564   -0.0578    0.0000 C   0  0  0  0  0  0  0  0  0  0  0  0
    5.9400    1.4151    0.0000 C   0  0  0  0  0  0  0  0  0  0  0  0
    7.3574    1.9060    0.0000 N   0  0  0  0  0  0  0  0  0  0  0  0
    4.8062    2.3972    0.0000 C   0  0  0  0  0  0  0  0  0  0  0  0
    3.3888    1.9064    0.0000 C   0  0  0  0  0  0  0  0  0  0  0  0
    3.1052    0.4334    0.0000 C   0  0  0  0  0  0  0  0  0  0  0  0
    1.9714    1.4155    0.0000 C   0  0  0  0  0  0  0  0  0  0  0  0
    1.6878   -0.0574    0.0000 C   0  0  0  0  0  0  0  0  0  0  0  0
    0.5540    0.9246    0.0000 C   0  0  0  0  0  0  0  0  0  0  0  0
   -0.8635    0.4338    0.0000 C   0  0  0  0  0  0  0  0  0  0  0  0
   -1.9973    1.4159    0.0000 O   0  0  0  0  0  0  0  0  0  0  0  0
   -1.1471   -1.0392    0.0000 C   0  0  0  0  0  0  0  0  0  0  0  0
   -2.3773   -0.1810    0.0000 C   0  0  0  0  0  0  0  0  0  0  0  0
  2  1  1  6
  2  3  1  0
  3  4  1  0
  4  5  1  0
  5  6  2  0
  5  7  1  0
  2  8  1  0
  8  9  1  6
  9 10  1  0
 11 10  1  6
 11 12  1  0
 12 13  1  1
 13 14  1  0
 15 14  1  1
 15 16  1  0
 16 17  1  0
 17 18  1  6
 17 19  1  0
 19 20  1  0
 20 21  1  0
 21 22  1  6
 21 23  1  0
 23 24  1  6
 24 25  1  0
 25 26  1  1
 25 27  1  0
 27 28  1  6
 27  8  1  0
 27 11  1  0
 23 12  1  0
 21 15  1  0
M  END
>  <MS_ID>  (2362) 
MS2447

>  <SMILES>  (2362) 
C[C@H](CCC(=O)O)[C@H]1CC[C@H]2[C@@H]3CC[C@@H]4C[C@@H](N)CC[C@]4(C)[C@H]3C[C@H](O)[C@]12C

>  <Structure_dimension>  (2362) 
2D

$$$$
MS2448
     RDKit          2D

 30 33  0  0  0  0  0  0  0  0999 V2000
   -5.0361   -2.2421    0.0000 C   0  0  0  0  0  0  0  0  0  0  0  0
   -3.9151   -1.2454    0.0000 C   0  0  0  0  0  0  0  0  0  0  0  0
   -4.2177    0.2237    0.0000 C   0  0  0  0  0  0  0  0  0  0  0  0
   -5.6413    0.6963    0.0000 C   0  0  0  0  0  0  0  0  0  0  0  0
   -5.9439    2.1654    0.0000 C   0  0  0  0  0  0  0  0  0  0  0  0
   -4.8228    3.1621    0.0000 O   0  0  0  0  0  0  0  0  0  0  0  0
   -7.3675    2.6380    0.0000 O   0  0  0  0  0  0  0  0  0  0  0  0
   -2.4915   -1.7180    0.0000 C   0  0  0  0  0  0  0  0  0  0  0  0
   -2.0370   -3.1475    0.0000 C   0  0  0  0  0  0  0  0  0  0  0  0
   -0.5370   -3.1570    0.0000 C   0  0  0  0  0  0  0  0  0  0  0  0
   -0.0645   -1.7333    0.0000 C   0  0  0  0  0  0  0  0  0  0  0  0
    1.3097   -1.1319    0.0000 C   0  0  0  0  0  0  0  0  0  0  0  0
    2.5176   -2.0213    0.0000 C   0  0  0  0  0  0  0  0  0  0  0  0
    2.3514   -3.5120    0.0000 C   0  0  0  0  0  0  0  0  0  0  0  0
    3.5593   -4.4014    0.0000 O   0  0  0  0  0  0  0  0  0  0  0  0
    3.8918   -1.4198    0.0000 C   0  0  0  0  0  0  0  0  0  0  0  0
    4.0580    0.0709    0.0000 C   0  0  0  0  0  0  0  0  0  0  0  0
    5.4321    0.6723    0.0000 C   0  0  0  0  0  0  0  0  0  0  0  0
    5.5984    2.1631    0.0000 C   0  0  0  0  0  0  0  0  0  0  0  0
    6.9725    2.7645    0.0000 O   0  0  0  0  0  0  0  0  0  0  0  0
    4.3904    3.0524    0.0000 C   0  0  0  0  0  0  0  0  0  0  0  0
    3.0163    2.4510    0.0000 C   0  0  0  0  0  0  0  0  0  0  0  0
    2.8501    0.9603    0.0000 C   0  0  0  0  0  0  0  0  0  0  0  0
    1.6421    1.8496    0.0000 C   0  0  0  0  0  0  0  0  0  0  0  0
    1.4759    0.3588    0.0000 C   0  0  0  0  0  0  0  0  0  0  0  0
    0.2680    1.2482    0.0000 C   0  0  0  0  0  0  0  0  0  0  0  0
   -1.1062    0.6468    0.0000 C   0  0  0  0  0  0  0  0  0  0  0  0
   -2.3141    1.5361    0.0000 O   0  0  0  0  0  0  0  0  0  0  0  0
   -1.2724   -0.8440    0.0000 C   0  0  0  0  0  0  0  0  0  0  0  0
   -2.5667   -0.0858    0.0000 C   0  0  0  0  0  0  0  0  0  0  0  0
  2  1  1  6
  2  3  1  0
  3  4  1  0
  4  5  1  0
  5  6  2  0
  5  7  1  0
  2  8  1  0
  8  9  1  6
  9 10  1  0
 11 10  1  6
 11 12  1  0
 12 13  1  1
 13 14  1  6
 14 15  1  0
 13 16  1  0
 17 16  1  1
 17 18  1  0
 18 19  1  0
 19 20  1  1
 19 21  1  0
 21 22  1  0
 22 23  1  0
 23 24  1  6
 23 25  1  0
 25 26  1  6
 26 27  1  0
 27 28  2  0
 27 29  1  0
 29 30  1  6
 29  8  1  0
 29 11  1  0
 25 12  1  0
 23 17  1  0
M  END
>  <MS_ID>  (2363) 
MS2448

>  <SMILES>  (2363) 
C[C@H](CCC(=O)O)[C@H]1CC[C@H]2[C@@H]3[C@@H](CO)C[C@@H]4C[C@H](O)CC[C@]4(C)[C@H]3CC(=O)[C@]12C

>  <Structure_dimension>  (2363) 
2D

$$$$
MS2449
     RDKit          2D

 33 36  0  0  0  0  0  0  0  0999 V2000
   -8.7540    1.7844    0.0000 C   0  0  0  0  0  0  0  0  0  0  0  0
   -7.2586    1.6666    0.0000 C   0  0  0  0  0  0  0  0  0  0  0  0
   -6.4089    2.9027    0.0000 C   0  0  0  0  0  0  0  0  0  0  0  0
   -7.0546    4.2567    0.0000 O   0  0  0  0  0  0  0  0  0  0  0  0
   -6.6130    0.3127    0.0000 C   0  0  0  0  0  0  0  0  0  0  0  0
   -5.1176    0.1949    0.0000 C   0  0  0  0  0  0  0  0  0  0  0  0
   -4.2679    1.4310    0.0000 O   0  0  0  0  0  0  0  0  0  0  0  0
   -4.4719   -1.1590    0.0000 C   0  0  0  0  0  0  0  0  0  0  0  0
   -2.9766   -1.2768    0.0000 C   0  0  0  0  0  0  0  0  0  0  0  0
   -2.3309   -2.6308    0.0000 C   0  0  0  0  0  0  0  0  0  0  0  0
   -3.1806   -3.8669    0.0000 C   0  0  0  0  0  0  0  0  0  0  0  0
   -0.8355   -2.7486    0.0000 C   0  0  0  0  0  0  0  0  0  0  0  0
   -0.0519   -4.0276    0.0000 C   0  0  0  0  0  0  0  0  0  0  0  0
    1.4067   -3.6775    0.0000 C   0  0  0  0  0  0  0  0  0  0  0  0
    1.5245   -2.1822    0.0000 C   0  0  0  0  0  0  0  0  0  0  0  0
    2.7146   -1.2691    0.0000 C   0  0  0  0  0  0  0  0  0  0  0  0
    4.1004   -1.8432    0.0000 C   0  0  0  0  0  0  0  0  0  0  0  0
    4.2961   -3.3304    0.0000 O   0  0  0  0  0  0  0  0  0  0  0  0
    5.2905   -0.9302    0.0000 C   0  0  0  0  0  0  0  0  0  0  0  0
    5.0948    0.5570    0.0000 C   0  0  0  0  0  0  0  0  0  0  0  0
    6.2849    1.4700    0.0000 C   0  0  0  0  0  0  0  0  0  0  0  0
    6.0892    2.9572    0.0000 C   0  0  0  0  0  0  0  0  0  0  0  0
    7.2793    3.8703    0.0000 O   0  0  0  0  0  0  0  0  0  0  0  0
    4.7035    3.5313    0.0000 C   0  0  0  0  0  0  0  0  0  0  0  0
    3.5134    2.6183    0.0000 C   0  0  0  0  0  0  0  0  0  0  0  0
    3.7090    1.1311    0.0000 C   0  0  0  0  0  0  0  0  0  0  0  0
    2.3233    1.7052    0.0000 C   0  0  0  0  0  0  0  0  0  0  0  0
    2.5189    0.2181    0.0000 C   0  0  0  0  0  0  0  0  0  0  0  0
    1.1332    0.7922    0.0000 C   0  0  0  0  0  0  0  0  0  0  0  0
   -0.0569   -0.1209    0.0000 C   0  0  0  0  0  0  0  0  0  0  0  0
   -1.4427    0.4533    0.0000 O   0  0  0  0  0  0  0  0  0  0  0  0
    0.1387   -1.6080    0.0000 C   0  0  0  0  0  0  0  0  0  0  0  0
   -1.2995   -1.1819    0.0000 C   0  0  0  0  0  0  0  0  0  0  0  0
  2  1  1  1
  2  3  1  0
  3  4  1  0
  2  5  1  0
  5  6  1  0
  6  7  2  0
  6  8  1  0
  8  9  1  0
  9 10  1  0
 10 11  1  6
 10 12  1  0
 12 13  1  6
 13 14  1  0
 15 14  1  6
 15 16  1  0
 16 17  1  1
 17 18  1  1
 17 19  1  0
 20 19  1  1
 20 21  1  0
 21 22  1  0
 22 23  1  1
 22 24  1  0
 24 25  1  0
 25 26  1  0
 26 27  1  6
 26 28  1  0
 28 29  1  6
 29 30  1  0
 30 31  1  1
 30 32  1  0
 32 33  1  6
 32 12  1  0
 32 15  1  0
 28 16  1  0
 26 20  1  0
M  END
>  <MS_ID>  (2364) 
MS2449

>  <SMILES>  (2364) 
C[C@@H](CO)CC(=O)CC[C@@H](C)[C@H]1CC[C@H]2[C@@H]3[C@H](O)C[C@@H]4C[C@H](O)CC[C@]4(C)[C@H]3C[C@H](O)[C@]12C

>  <Structure_dimension>  (2364) 
2D

$$$$
MS2450
     RDKit          2D

 30 33  0  0  0  0  0  0  0  0999 V2000
   -5.0361   -2.2421    0.0000 C   0  0  0  0  0  0  0  0  0  0  0  0
   -3.9151   -1.2454    0.0000 C   0  0  0  0  0  0  0  0  0  0  0  0
   -4.2177    0.2237    0.0000 C   0  0  0  0  0  0  0  0  0  0  0  0
   -5.6413    0.6963    0.0000 C   0  0  0  0  0  0  0  0  0  0  0  0
   -5.9439    2.1654    0.0000 C   0  0  0  0  0  0  0  0  0  0  0  0
   -4.8228    3.1621    0.0000 O   0  0  0  0  0  0  0  0  0  0  0  0
   -7.3675    2.6380    0.0000 O   0  0  0  0  0  0  0  0  0  0  0  0
   -2.4915   -1.7180    0.0000 C   0  0  0  0  0  0  0  0  0  0  0  0
   -2.0370   -3.1475    0.0000 C   0  0  0  0  0  0  0  0  0  0  0  0
   -0.5370   -3.1570    0.0000 C   0  0  0  0  0  0  0  0  0  0  0  0
   -0.0645   -1.7333    0.0000 C   0  0  0  0  0  0  0  0  0  0  0  0
    1.3097   -1.1319    0.0000 C   0  0  0  0  0  0  0  0  0  0  0  0
    2.5176   -2.0213    0.0000 C   0  0  0  0  0  0  0  0  0  0  0  0
    2.3514   -3.5120    0.0000 O   0  0  0  0  0  0  0  0  0  0  0  0
    3.5593   -4.4014    0.0000 F   0  0  0  0  0  0  0  0  0  0  0  0
    3.8918   -1.4198    0.0000 C   0  0  0  0  0  0  0  0  0  0  0  0
    4.0580    0.0709    0.0000 C   0  0  0  0  0  0  0  0  0  0  0  0
    5.4321    0.6723    0.0000 C   0  0  0  0  0  0  0  0  0  0  0  0
    5.5984    2.1631    0.0000 C   0  0  0  0  0  0  0  0  0  0  0  0
    6.9725    2.7645    0.0000 O   0  0  0  0  0  0  0  0  0  0  0  0
    4.3904    3.0524    0.0000 C   0  0  0  0  0  0  0  0  0  0  0  0
    3.0163    2.4510    0.0000 C   0  0  0  0  0  0  0  0  0  0  0  0
    2.8501    0.9603    0.0000 C   0  0  0  0  0  0  0  0  0  0  0  0
    1.6421    1.8496    0.0000 C   0  0  0  0  0  0  0  0  0  0  0  0
    1.4759    0.3588    0.0000 C   0  0  0  0  0  0  0  0  0  0  0  0
    0.2680    1.2482    0.0000 C   0  0  0  0  0  0  0  0  0  0  0  0
   -1.1062    0.6468    0.0000 C   0  0  0  0  0  0  0  0  0  0  0  0
   -2.3141    1.5361    0.0000 O   0  0  0  0  0  0  0  0  0  0  0  0
   -1.2724   -0.8440    0.0000 C   0  0  0  0  0  0  0  0  0  0  0  0
   -2.5667   -0.0858    0.0000 C   0  0  0  0  0  0  0  0  0  0  0  0
  2  1  1  6
  2  3  1  0
  3  4  1  0
  4  5  1  0
  5  6  2  0
  5  7  1  0
  2  8  1  0
  8  9  1  6
  9 10  1  0
 11 10  1  6
 11 12  1  0
 12 13  1  1
 13 14  1  1
 14 15  1  0
 13 16  1  0
 17 16  1  1
 17 18  1  0
 18 19  1  0
 19 20  1  1
 19 21  1  0
 21 22  1  0
 22 23  1  0
 23 24  1  6
 23 25  1  0
 25 26  1  6
 26 27  1  0
 27 28  1  1
 27 29  1  0
 29 30  1  6
 29  8  1  0
 29 11  1  0
 25 12  1  0
 23 17  1  0
M  END
>  <MS_ID>  (2365) 
MS2450

>  <SMILES>  (2365) 
C[C@H](CCC(=O)O)[C@H]1CC[C@H]2[C@@H]3[C@H](OF)C[C@@H]4C[C@H](O)CC[C@]4(C)[C@H]3C[C@H](O)[C@]12C

>  <Structure_dimension>  (2365) 
2D

$$$$
MS2451
     RDKit          2D

 33 36  0  0  0  0  0  0  0  0999 V2000
   -3.7635   -2.9107    0.0000 C   0  0  0  0  0  0  0  0  0  0  0  0
   -2.7446   -1.8098    0.0000 C   0  0  0  0  0  0  0  0  0  0  0  0
   -3.1886   -0.3770    0.0000 C   0  0  0  0  0  0  0  0  0  0  0  0
   -4.6514   -0.0451    0.0000 C   0  0  0  0  0  0  0  0  0  0  0  0
   -5.0953    1.3877    0.0000 C   0  0  0  0  0  0  0  0  0  0  0  0
   -4.0765    2.4886    0.0000 O   0  0  0  0  0  0  0  0  0  0  0  0
   -6.5582    1.7196    0.0000 N   0  0  0  0  0  0  0  0  0  0  0  0
   -7.0021    3.1524    0.0000 C   0  0  0  0  0  0  0  0  0  0  0  0
   -7.5770    0.6188    0.0000 C   0  0  0  0  0  0  0  0  0  0  0  0
   -9.0398    0.9507    0.0000 C   0  0  0  0  0  0  0  0  0  0  0  0
  -10.0587   -0.1502    0.0000 N   0  0  0  0  0  0  0  0  0  0  0  0
   -1.2818   -2.1417    0.0000 C   0  0  0  0  0  0  0  0  0  0  0  0
   -0.6905   -3.5202    0.0000 C   0  0  0  0  0  0  0  0  0  0  0  0
    0.8033   -3.3839    0.0000 C   0  0  0  0  0  0  0  0  0  0  0  0
    1.1352   -1.9211    0.0000 C   0  0  0  0  0  0  0  0  0  0  0  0
    2.4444   -1.1889    0.0000 C   0  0  0  0  0  0  0  0  0  0  0  0
    3.7330   -1.9566    0.0000 C   0  0  0  0  0  0  0  0  0  0  0  0
    3.7125   -3.4565    0.0000 O   0  0  0  0  0  0  0  0  0  0  0  0
    5.0422   -1.2244    0.0000 C   0  0  0  0  0  0  0  0  0  0  0  0
    6.3309   -1.9922    0.0000 O   0  0  0  0  0  0  0  0  0  0  0  0
    5.0628    0.2754    0.0000 C   0  0  0  0  0  0  0  0  0  0  0  0
    6.3719    1.0076    0.0000 C   0  0  0  0  0  0  0  0  0  0  0  0
    6.3925    2.5074    0.0000 C   0  0  0  0  0  0  0  0  0  0  0  0
    7.7016    3.2396    0.0000 O   0  0  0  0  0  0  0  0  0  0  0  0
    5.1038    3.2751    0.0000 C   0  0  0  0  0  0  0  0  0  0  0  0
    3.7946    2.5430    0.0000 C   0  0  0  0  0  0  0  0  0  0  0  0
    3.7741    1.0431    0.0000 C   0  0  0  0  0  0  0  0  0  0  0  0
    2.4854    1.8108    0.0000 C   0  0  0  0  0  0  0  0  0  0  0  0
    2.4649    0.3110    0.0000 C   0  0  0  0  0  0  0  0  0  0  0  0
    1.1763    1.0787    0.0000 C   0  0  0  0  0  0  0  0  0  0  0  0
   -0.1329    0.3465    0.0000 C   0  0  0  0  0  0  0  0  0  0  0  0
   -0.1534   -1.1533    0.0000 C   0  0  0  0  0  0  0  0  0  0  0  0
   -1.5153   -0.5245    0.0000 C   0  0  0  0  0  0  0  0  0  0  0  0
  2  1  1  6
  2  3  1  0
  3  4  1  0
  4  5  1  0
  5  6  2  0
  5  7  1  0
  7  8  1  0
  7  9  1  0
  9 10  1  0
 10 11  1  0
  2 12  1  0
 12 13  1  6
 13 14  1  0
 15 14  1  6
 15 16  1  0
 16 17  1  1
 17 18  1  1
 17 19  1  0
 19 20  1  1
 19 21  1  0
 21 22  1  1
 22 23  1  0
 23 24  1  1
 23 25  1  0
 25 26  1  0
 26 27  1  0
 27 28  1  6
 27 29  1  0
 29 30  1  6
 30 31  1  0
 31 32  1  0
 32 33  1  6
 32 12  1  0
 32 15  1  0
 29 16  1  0
 27 21  1  0
M  END
>  <MS_ID>  (2366) 
MS2451

>  <SMILES>  (2366) 
C[C@H](CCC(=O)N(C)CCN)[C@H]1CC[C@H]2[C@@H]3[C@H](O)[C@H](O)[C@@H]4C[C@H](O)CC[C@]4(C)[C@H]3CC[C@]12C

>  <Structure_dimension>  (2366) 
2D

$$$$
MS2452
     RDKit          2D

 33 36  0  0  0  0  0  0  0  0999 V2000
   -2.7798   -3.8103    0.0000 C   0  0  0  0  0  0  0  0  0  0  0  0
   -1.9338   -2.5716    0.0000 C   0  0  0  0  0  0  0  0  0  0  0  0
   -2.5835   -1.2196    0.0000 C   0  0  0  0  0  0  0  0  0  0  0  0
   -4.0792   -1.1063    0.0000 C   0  0  0  0  0  0  0  0  0  0  0  0
   -4.7289    0.2457    0.0000 C   0  0  0  0  0  0  0  0  0  0  0  0
   -3.8829    1.4843    0.0000 O   0  0  0  0  0  0  0  0  0  0  0  0
   -6.2246    0.3590    0.0000 N   0  0  0  0  0  0  0  0  0  0  0  0
   -6.8743    1.7110    0.0000 C   0  0  0  0  0  0  0  0  0  0  0  0
   -8.3700    1.8244    0.0000 S   0  0  0  0  0  0  0  0  0  0  0  0
   -8.2567    3.3201    0.0000 O   0  0  0  0  0  0  0  0  0  0  0  0
   -8.4834    0.3287    0.0000 O   0  0  0  0  0  0  0  0  0  0  0  0
   -9.8657    1.9377    0.0000 O   0  0  0  0  0  0  0  0  0  0  0  0
   -0.4381   -2.6850    0.0000 C   0  0  0  0  0  0  0  0  0  0  0  0
    0.3494   -3.9617    0.0000 C   0  0  0  0  0  0  0  0  0  0  0  0
    1.8069   -3.6073    0.0000 C   0  0  0  0  0  0  0  0  0  0  0  0
    1.9202   -2.1116    0.0000 C   0  0  0  0  0  0  0  0  0  0  0  0
    3.1076   -1.1950    0.0000 C   0  0  0  0  0  0  0  0  0  0  0  0
    4.4951   -1.7650    0.0000 C   0  0  0  0  0  0  0  0  0  0  0  0
    4.6952   -3.2515    0.0000 O   0  0  0  0  0  0  0  0  0  0  0  0
    5.6825   -0.8484    0.0000 C   0  0  0  0  0  0  0  0  0  0  0  0
    5.4824    0.6382    0.0000 C   0  0  0  0  0  0  0  0  0  0  0  0
    6.6697    1.5548    0.0000 C   0  0  0  0  0  0  0  0  0  0  0  0
    6.4696    3.0414    0.0000 C   0  0  0  0  0  0  0  0  0  0  0  0
    7.6570    3.9580    0.0000 O   0  0  0  0  0  0  0  0  0  0  0  0
    5.0821    3.6114    0.0000 C   0  0  0  0  0  0  0  0  0  0  0  0
    3.8948    2.6948    0.0000 C   0  0  0  0  0  0  0  0  0  0  0  0
    4.0949    1.2082    0.0000 C   0  0  0  0  0  0  0  0  0  0  0  0
    2.7074    1.7782    0.0000 C   0  0  0  0  0  0  0  0  0  0  0  0
    2.9075    0.2916    0.0000 C   0  0  0  0  0  0  0  0  0  0  0  0
    1.5200    0.8616    0.0000 C   0  0  0  0  0  0  0  0  0  0  0  0
    0.3327   -0.0550    0.0000 C   0  0  0  0  0  0  0  0  0  0  0  0
    0.5328   -1.5416    0.0000 C   0  0  0  0  0  0  0  0  0  0  0  0
   -0.9067   -1.1197    0.0000 C   0  0  0  0  0  0  0  0  0  0  0  0
  2  1  1  6
  2  3  1  0
  3  4  1  0
  4  5  1  0
  5  6  2  0
  5  7  1  0
  7  8  1  0
  8  9  1  0
  9 10  2  0
  9 11  2  0
  9 12  1  0
  2 13  1  0
 13 14  1  6
 14 15  1  0
 16 15  1  6
 16 17  1  0
 17 18  1  1
 18 19  1  1
 18 20  1  0
 21 20  1  1
 21 22  1  0
 22 23  1  0
 23 24  1  1
 23 25  1  0
 25 26  1  0
 26 27  1  0
 27 28  1  6
 27 29  1  0
 29 30  1  6
 30 31  1  0
 31 32  1  0
 32 33  1  6
 32 13  1  0
 32 16  1  0
 29 17  1  0
 27 21  1  0
M  END
>  <MS_ID>  (2367) 
MS2452

>  <SMILES>  (2367) 
C[C@H](CCC(=O)NCS(=O)(=O)O)[C@H]1CC[C@H]2[C@@H]3[C@H](O)C[C@@H]4C[C@H](O)CC[C@]4(C)[C@H]3CC[C@]12C

>  <Structure_dimension>  (2367) 
2D

$$$$
MS2453
     RDKit          2D

 34 37  0  0  0  0  0  0  0  0999 V2000
   -2.5731   -3.9443    0.0000 C   0  0  0  0  0  0  0  0  0  0  0  0
   -1.7632   -2.6818    0.0000 C   0  0  0  0  0  0  0  0  0  0  0  0
   -2.4515   -1.3491    0.0000 C   0  0  0  0  0  0  0  0  0  0  0  0
   -3.9499   -1.2789    0.0000 C   0  0  0  0  0  0  0  0  0  0  0  0
   -4.6383    0.0539    0.0000 C   0  0  0  0  0  0  0  0  0  0  0  0
   -3.8283    1.3164    0.0000 O   0  0  0  0  0  0  0  0  0  0  0  0
   -6.1366    0.1241    0.0000 C   0  0  0  0  0  0  0  0  0  0  0  0
   -6.8250    1.4568    0.0000 C   0  0  0  0  0  0  0  0  0  0  0  0
   -8.3233    1.5270    0.0000 C   0  0  0  0  0  0  0  0  0  0  0  0
   -9.1333    0.2645    0.0000 O   0  0  0  0  0  0  0  0  0  0  0  0
   -9.0117    2.8597    0.0000 C   0  0  0  0  0  0  0  0  0  0  0  0
  -10.5101    2.9299    0.0000 O   0  0  0  0  0  0  0  0  0  0  0  0
   -0.2648   -2.7520    0.0000 C   0  0  0  0  0  0  0  0  0  0  0  0
    0.5591   -4.0055    0.0000 C   0  0  0  0  0  0  0  0  0  0  0  0
    2.0058   -3.6092    0.0000 C   0  0  0  0  0  0  0  0  0  0  0  0
    2.0760   -2.1109    0.0000 C   0  0  0  0  0  0  0  0  0  0  0  0
    3.2365   -1.1605    0.0000 C   0  0  0  0  0  0  0  0  0  0  0  0
    4.6398   -1.6902    0.0000 C   0  0  0  0  0  0  0  0  0  0  0  0
    4.8827   -3.1705    0.0000 O   0  0  0  0  0  0  0  0  0  0  0  0
    5.8003   -0.7398    0.0000 C   0  0  0  0  0  0  0  0  0  0  0  0
    5.5575    0.7404    0.0000 C   0  0  0  0  0  0  0  0  0  0  0  0
    6.7179    1.6908    0.0000 C   0  0  0  0  0  0  0  0  0  0  0  0
    6.4751    3.1710    0.0000 C   0  0  0  0  0  0  0  0  0  0  0  0
    7.6356    4.1214    0.0000 O   0  0  0  0  0  0  0  0  0  0  0  0
    5.0718    3.7008    0.0000 C   0  0  0  0  0  0  0  0  0  0  0  0
    3.9113    2.7504    0.0000 C   0  0  0  0  0  0  0  0  0  0  0  0
    4.1541    1.2702    0.0000 C   0  0  0  0  0  0  0  0  0  0  0  0
    2.7508    1.8000    0.0000 C   0  0  0  0  0  0  0  0  0  0  0  0
    2.9937    0.3198    0.0000 C   0  0  0  0  0  0  0  0  0  0  0  0
    1.5903    0.8496    0.0000 C   0  0  0  0  0  0  0  0  0  0  0  0
    0.4299   -0.1009    0.0000 C   0  0  0  0  0  0  0  0  0  0  0  0
   -0.9735    0.4289    0.0000 O   0  0  0  0  0  0  0  0  0  0  0  0
    0.6727   -1.5811    0.0000 C   0  0  0  0  0  0  0  0  0  0  0  0
   -0.7783   -1.2009    0.0000 C   0  0  0  0  0  0  0  0  0  0  0  0
  2  1  1  6
  2  3  1  0
  3  4  1  0
  4  5  1  0
  5  6  2  0
  5  7  1  0
  7  8  1  0
  8  9  1  0
  9 10  2  0
  9 11  1  0
 11 12  1  0
  2 13  1  0
 13 14  1  6
 14 15  1  0
 16 15  1  6
 16 17  1  0
 17 18  1  1
 18 19  1  1
 18 20  1  0
 21 20  1  1
 21 22  1  0
 22 23  1  0
 23 24  1  1
 23 25  1  0
 25 26  1  0
 26 27  1  0
 27 28  1  6
 27 29  1  0
 29 30  1  6
 30 31  1  0
 31 32  1  1
 31 33  1  0
 33 34  1  6
 33 13  1  0
 33 16  1  0
 29 17  1  0
 27 21  1  0
M  END
>  <MS_ID>  (2368) 
MS2453

>  <SMILES>  (2368) 
C[C@H](CCC(=O)CCC(=O)CO)[C@H]1CC[C@H]2[C@@H]3[C@H](O)C[C@@H]4C[C@H](O)CC[C@]4(C)[C@H]3C[C@H](O)[C@]12C

>  <Structure_dimension>  (2368) 
2D

$$$$
MS2454
     RDKit          2D

 34 37  0  0  0  0  0  0  0  0999 V2000
   -2.7692   -3.9261    0.0000 C   0  0  0  0  0  0  0  0  0  0  0  0
   -1.9736   -2.6545    0.0000 C   0  0  0  0  0  0  0  0  0  0  0  0
   -2.6771   -1.3297    0.0000 C   0  0  0  0  0  0  0  0  0  0  0  0
   -4.1761   -1.2765    0.0000 C   0  0  0  0  0  0  0  0  0  0  0  0
   -4.8796    0.0483    0.0000 C   0  0  0  0  0  0  0  0  0  0  0  0
   -4.0841    1.3199    0.0000 O   0  0  0  0  0  0  0  0  0  0  0  0
   -6.3787    0.1014    0.0000 O   0  0  0  0  0  0  0  0  0  0  0  0
   -7.0822    1.4263    0.0000 C   0  0  0  0  0  0  0  0  0  0  0  0
   -8.5812    1.4794    0.0000 C   0  0  0  0  0  0  0  0  0  0  0  0
   -9.3768    0.2078    0.0000 O   0  0  0  0  0  0  0  0  0  0  0  0
   -9.2847    2.8042    0.0000 C   0  0  0  0  0  0  0  0  0  0  0  0
  -10.7838    2.8574    0.0000 O   0  0  0  0  0  0  0  0  0  0  0  0
   -0.4745   -2.7076    0.0000 C   0  0  0  0  0  0  0  0  0  0  0  0
    0.3636   -3.9516    0.0000 C   0  0  0  0  0  0  0  0  0  0  0  0
    1.8057   -3.5390    0.0000 C   0  0  0  0  0  0  0  0  0  0  0  0
    1.8589   -2.0399    0.0000 C   0  0  0  0  0  0  0  0  0  0  0  0
    3.0084   -1.0763    0.0000 C   0  0  0  0  0  0  0  0  0  0  0  0
    4.4177   -1.5901    0.0000 C   0  0  0  0  0  0  0  0  0  0  0  0
    4.6774   -3.0675    0.0000 O   0  0  0  0  0  0  0  0  0  0  0  0
    5.5673   -0.6266    0.0000 C   0  0  0  0  0  0  0  0  0  0  0  0
    6.9766   -1.1404    0.0000 O   0  0  0  0  0  0  0  0  0  0  0  0
    5.3076    0.8508    0.0000 C   0  0  0  0  0  0  0  0  0  0  0  0
    6.4572    1.8144    0.0000 C   0  0  0  0  0  0  0  0  0  0  0  0
    6.1975    3.2917    0.0000 C   0  0  0  0  0  0  0  0  0  0  0  0
    7.3471    4.2553    0.0000 O   0  0  0  0  0  0  0  0  0  0  0  0
    4.7883    3.8055    0.0000 C   0  0  0  0  0  0  0  0  0  0  0  0
    3.6387    2.8419    0.0000 C   0  0  0  0  0  0  0  0  0  0  0  0
    3.8984    1.3646    0.0000 C   0  0  0  0  0  0  0  0  0  0  0  0
    2.4891    1.8784    0.0000 C   0  0  0  0  0  0  0  0  0  0  0  0
    2.7488    0.4010    0.0000 C   0  0  0  0  0  0  0  0  0  0  0  0
    1.3395    0.9148    0.0000 C   0  0  0  0  0  0  0  0  0  0  0  0
    0.1899   -0.0488    0.0000 C   0  0  0  0  0  0  0  0  0  0  0  0
    0.4496   -1.5261    0.0000 C   0  0  0  0  0  0  0  0  0  0  0  0
   -1.0056   -1.1624    0.0000 C   0  0  0  0  0  0  0  0  0  0  0  0
  2  1  1  6
  2  3  1  0
  3  4  1  0
  4  5  1  0
  5  6  2  0
  5  7  1  0
  7  8  1  0
  8  9  1  0
  9 10  1  1
  9 11  1  0
 11 12  1  0
  2 13  1  0
 13 14  1  6
 14 15  1  0
 16 15  1  6
 16 17  1  0
 17 18  1  1
 18 19  1  1
 18 20  1  0
 20 21  1  1
 20 22  1  0
 22 23  1  1
 23 24  1  0
 24 25  1  1
 24 26  1  0
 26 27  1  0
 27 28  1  0
 28 29  1  6
 28 30  1  0
 30 31  1  6
 31 32  1  0
 32 33  1  0
 33 34  1  6
 33 13  1  0
 33 16  1  0
 30 17  1  0
 28 22  1  0
M  END
>  <MS_ID>  (2369) 
MS2454

>  <SMILES>  (2369) 
C[C@H](CCC(=O)OC[C@@H](O)CO)[C@H]1CC[C@H]2[C@@H]3[C@H](O)[C@H](O)[C@@H]4C[C@H](O)CC[C@]4(C)[C@H]3CC[C@]12C

>  <Structure_dimension>  (2369) 
2D

$$$$
MS2455
     RDKit          2D

 30 33  0  0  0  0  0  0  0  0999 V2000
    4.9104    2.5532    0.0000 C   0  0  0  0  0  0  0  0  0  0  0  0
    3.7793    1.5681    0.0000 C   0  0  0  0  0  0  0  0  0  0  0  0
    4.0668    0.0959    0.0000 C   0  0  0  0  0  0  0  0  0  0  0  0
    5.4855   -0.3912    0.0000 C   0  0  0  0  0  0  0  0  0  0  0  0
    5.7730   -1.8634    0.0000 C   0  0  0  0  0  0  0  0  0  0  0  0
    7.1917   -2.3505    0.0000 O   0  0  0  0  0  0  0  0  0  0  0  0
    4.6418   -2.8485    0.0000 O   0  0  0  0  0  0  0  0  0  0  0  0
    4.9294   -4.3207    0.0000 O   0  0  0  0  0  0  0  0  0  0  0  0
    2.3605    2.0552    0.0000 C   0  0  0  0  0  0  0  0  0  0  0  0
    1.9207    3.4892    0.0000 C   0  0  0  0  0  0  0  0  0  0  0  0
    0.4209    3.5141    0.0000 C   0  0  0  0  0  0  0  0  0  0  0  0
   -0.0662    2.0954    0.0000 C   0  0  0  0  0  0  0  0  0  0  0  0
   -1.4464    1.5080    0.0000 C   0  0  0  0  0  0  0  0  0  0  0  0
   -2.6452    2.4097    0.0000 C   0  0  0  0  0  0  0  0  0  0  0  0
   -2.4637    3.8987    0.0000 O   0  0  0  0  0  0  0  0  0  0  0  0
   -4.0254    1.8224    0.0000 C   0  0  0  0  0  0  0  0  0  0  0  0
   -4.2069    0.3334    0.0000 C   0  0  0  0  0  0  0  0  0  0  0  0
   -5.5871   -0.2539    0.0000 C   0  0  0  0  0  0  0  0  0  0  0  0
   -5.7686   -1.7429    0.0000 C   0  0  0  0  0  0  0  0  0  0  0  0
   -7.1488   -2.3303    0.0000 O   0  0  0  0  0  0  0  0  0  0  0  0
   -4.5698   -2.6446    0.0000 C   0  0  0  0  0  0  0  0  0  0  0  0
   -3.1896   -2.0573    0.0000 C   0  0  0  0  0  0  0  0  0  0  0  0
   -1.9908   -2.9589    0.0000 O   0  0  0  0  0  0  0  0  0  0  0  0
   -3.0081   -0.5683    0.0000 C   0  0  0  0  0  0  0  0  0  0  0  0
   -1.8094   -1.4699    0.0000 C   0  0  0  0  0  0  0  0  0  0  0  0
   -1.6279    0.0191    0.0000 C   0  0  0  0  0  0  0  0  0  0  0  0
   -0.4291   -0.8826    0.0000 C   0  0  0  0  0  0  0  0  0  0  0  0
    0.9511   -0.2953    0.0000 C   0  0  0  0  0  0  0  0  0  0  0  0
    1.1326    1.1937    0.0000 C   0  0  0  0  0  0  0  0  0  0  0  0
    2.4190    0.4223    0.0000 C   0  0  0  0  0  0  0  0  0  0  0  0
  2  1  1  6
  2  3  1  0
  3  4  1  0
  4  5  1  0
  5  6  2  0
  5  7  1  0
  7  8  1  0
  2  9  1  0
  9 10  1  6
 10 11  1  0
 12 11  1  6
 12 13  1  0
 13 14  1  1
 14 15  1  1
 14 16  1  0
 17 16  1  1
 17 18  1  0
 18 19  1  0
 19 20  1  1
 19 21  1  0
 21 22  1  0
 22 23  1  1
 22 24  1  0
 24 25  1  6
 24 26  1  0
 26 27  1  6
 27 28  1  0
 28 29  1  0
 29 30  1  6
 29  9  1  0
 29 12  1  0
 26 13  1  0
 24 17  1  0
M  END
>  <MS_ID>  (2370) 
MS2455

>  <SMILES>  (2370) 
C[C@H](CCC(=O)OO)[C@H]1CC[C@H]2[C@@H]3[C@H](O)C[C@@H]4C[C@H](O)C[C@H](O)[C@]4(C)[C@H]3CC[C@]12C

>  <Structure_dimension>  (2370) 
2D

$$$$
MS2456
     RDKit          2D

 31 34  0  0  0  0  0  0  0  0999 V2000
   -8.8672    3.1400    0.0000 C   0  0  0  0  0  0  0  0  0  0  0  0
   -7.3980    2.8376    0.0000 C   0  0  0  0  0  0  0  0  0  0  0  0
   -6.9253    1.4140    0.0000 O   0  0  0  0  0  0  0  0  0  0  0  0
   -5.4561    1.1115    0.0000 C   0  0  0  0  0  0  0  0  0  0  0  0
   -4.4596    2.2326    0.0000 O   0  0  0  0  0  0  0  0  0  0  0  0
   -4.9835   -0.3121    0.0000 C   0  0  0  0  0  0  0  0  0  0  0  0
   -3.5143   -0.6145    0.0000 C   0  0  0  0  0  0  0  0  0  0  0  0
   -3.0416   -2.0381    0.0000 C   0  0  0  0  0  0  0  0  0  0  0  0
   -4.0382   -3.1592    0.0000 C   0  0  0  0  0  0  0  0  0  0  0  0
   -1.5724   -2.3406    0.0000 C   0  0  0  0  0  0  0  0  0  0  0  0
   -0.9536   -3.7070    0.0000 C   0  0  0  0  0  0  0  0  0  0  0  0
    0.5372   -3.5406    0.0000 C   0  0  0  0  0  0  0  0  0  0  0  0
    0.8396   -2.0714    0.0000 C   0  0  0  0  0  0  0  0  0  0  0  0
    2.1338   -1.3131    0.0000 C   0  0  0  0  0  0  0  0  0  0  0  0
    3.4377   -2.0548    0.0000 C   0  0  0  0  0  0  0  0  0  0  0  0
    3.4473   -3.5547    0.0000 O   0  0  0  0  0  0  0  0  0  0  0  0
    4.7319   -1.2965    0.0000 C   0  0  0  0  0  0  0  0  0  0  0  0
    4.7223    0.2035    0.0000 C   0  0  0  0  0  0  0  0  0  0  0  0
    6.0165    0.9618    0.0000 C   0  0  0  0  0  0  0  0  0  0  0  0
    6.0069    2.4618    0.0000 C   0  0  0  0  0  0  0  0  0  0  0  0
    7.3011    3.2201    0.0000 O   0  0  0  0  0  0  0  0  0  0  0  0
    4.7030    3.2034    0.0000 C   0  0  0  0  0  0  0  0  0  0  0  0
    3.4088    2.4451    0.0000 C   0  0  0  0  0  0  0  0  0  0  0  0
    3.4184    0.9452    0.0000 C   0  0  0  0  0  0  0  0  0  0  0  0
    2.1146    1.6868    0.0000 C   0  0  0  0  0  0  0  0  0  0  0  0
    2.1242    0.1869    0.0000 C   0  0  0  0  0  0  0  0  0  0  0  0
    0.8204    0.9285    0.0000 C   0  0  0  0  0  0  0  0  0  0  0  0
   -0.4738    0.1702    0.0000 C   0  0  0  0  0  0  0  0  0  0  0  0
   -1.7776    0.9119    0.0000 O   0  0  0  0  0  0  0  0  0  0  0  0
   -0.4642   -1.3298    0.0000 C   0  0  0  0  0  0  0  0  0  0  0  0
   -1.8384   -0.7284    0.0000 C   0  0  0  0  0  0  0  0  0  0  0  0
  1  2  1  0
  2  3  1  0
  3  4  1  0
  4  5  2  0
  4  6  1  0
  6  7  1  0
  7  8  1  0
  8  9  1  6
  8 10  1  0
 10 11  1  6
 11 12  1  0
 13 12  1  6
 13 14  1  0
 14 15  1  1
 15 16  1  6
 15 17  1  0
 18 17  1  1
 18 19  1  0
 19 20  1  0
 20 21  1  1
 20 22  1  0
 22 23  1  0
 23 24  1  0
 24 25  1  6
 24 26  1  0
 26 27  1  6
 27 28  1  0
 28 29  1  1
 28 30  1  0
 30 31  1  6
 30 10  1  0
 30 13  1  0
 26 14  1  0
 24 18  1  0
M  END
>  <MS_ID>  (2371) 
MS2456

>  <SMILES>  (2371) 
CCOC(=O)CC[C@@H](C)[C@H]1CC[C@H]2[C@@H]3[C@@H](O)C[C@@H]4C[C@H](O)CC[C@]4(C)[C@H]3C[C@H](O)[C@]12C

>  <Structure_dimension>  (2371) 
2D

$$$$
MS2457
     RDKit          2D

 40 44  0  0  0  0  0  0  0  0999 V2000
   -0.9108   -4.8216    0.0000 C   0  0  0  0  0  0  0  0  0  0  0  0
   -0.3447   -3.4325    0.0000 C   0  0  0  0  0  0  0  0  0  0  0  0
   -1.2647   -2.2477    0.0000 C   0  0  0  0  0  0  0  0  0  0  0  0
   -2.7507   -2.4520    0.0000 C   0  0  0  0  0  0  0  0  0  0  0  0
   -3.6706   -1.2672    0.0000 C   0  0  0  0  0  0  0  0  0  0  0  0
   -3.1046    0.1219    0.0000 O   0  0  0  0  0  0  0  0  0  0  0  0
   -5.1567   -1.4715    0.0000 O   0  0  0  0  0  0  0  0  0  0  0  0
   -6.0766   -0.2867    0.0000 C   0  0  0  0  0  0  0  0  0  0  0  0
   -5.5105    1.1023    0.0000 N   0  0  0  0  0  0  0  0  0  0  0  0
   -6.4305    2.2871    0.0000 C   0  0  0  0  0  0  0  0  0  0  0  0
   -5.8644    3.6762    0.0000 C   0  0  0  0  0  0  0  0  0  0  0  0
   -4.3784    3.8805    0.0000 O   0  0  0  0  0  0  0  0  0  0  0  0
   -7.9165    2.0828    0.0000 C   0  0  0  0  0  0  0  0  0  0  0  0
   -8.8364    3.2676    0.0000 O   0  0  0  0  0  0  0  0  0  0  0  0
   -8.4826    0.6937    0.0000 C   0  0  0  0  0  0  0  0  0  0  0  0
   -9.9686    0.4894    0.0000 O   0  0  0  0  0  0  0  0  0  0  0  0
   -7.5626   -0.4910    0.0000 C   0  0  0  0  0  0  0  0  0  0  0  0
   -8.1287   -1.8801    0.0000 O   0  0  0  0  0  0  0  0  0  0  0  0
    1.1413   -3.2282    0.0000 C   0  0  0  0  0  0  0  0  0  0  0  0
    2.1800   -4.3103    0.0000 C   0  0  0  0  0  0  0  0  0  0  0  0
    3.5302   -3.6568    0.0000 C   0  0  0  0  0  0  0  0  0  0  0  0
    3.3259   -2.1708    0.0000 C   0  0  0  0  0  0  0  0  0  0  0  0
    4.2935   -1.0246    0.0000 C   0  0  0  0  0  0  0  0  0  0  0  0
    5.7699   -1.2896    0.0000 C   0  0  0  0  0  0  0  0  0  0  0  0
    6.2787   -2.7006    0.0000 O   0  0  0  0  0  0  0  0  0  0  0  0
    6.7376   -0.1434    0.0000 C   0  0  0  0  0  0  0  0  0  0  0  0
    8.2140   -0.4083    0.0000 O   0  0  0  0  0  0  0  0  0  0  0  0
    6.2288    1.2677    0.0000 C   0  0  0  0  0  0  0  0  0  0  0  0
    7.1964    2.4139    0.0000 C   0  0  0  0  0  0  0  0  0  0  0  0
    6.6876    3.8249    0.0000 C   0  0  0  0  0  0  0  0  0  0  0  0
    7.6552    4.9711    0.0000 O   0  0  0  0  0  0  0  0  0  0  0  0
    5.2112    4.0898    0.0000 C   0  0  0  0  0  0  0  0  0  0  0  0
    4.2435    2.9437    0.0000 C   0  0  0  0  0  0  0  0  0  0  0  0
    4.7523    1.5326    0.0000 C   0  0  0  0  0  0  0  0  0  0  0  0
    3.2759    1.7975    0.0000 C   0  0  0  0  0  0  0  0  0  0  0  0
    3.7847    0.3864    0.0000 C   0  0  0  0  0  0  0  0  0  0  0  0
    2.3083    0.6513    0.0000 C   0  0  0  0  0  0  0  0  0  0  0  0
    1.3407   -0.4948    0.0000 C   0  0  0  0  0  0  0  0  0  0  0  0
    1.8495   -1.9059    0.0000 C   0  0  0  0  0  0  0  0  0  0  0  0
    0.3534   -1.7968    0.0000 C   0  0  0  0  0  0  0  0  0  0  0  0
  2  1  1  6
  2  3  1  0
  3  4  1  0
  4  5  1  0
  5  6  2  0
  5  7  1  0
  8  7  1  1
  8  9  1  0
  9 10  1  0
 10 11  1  1
 11 12  1  0
 10 13  1  0
 13 14  1  1
 13 15  1  0
 15 16  1  1
 15 17  1  0
 17 18  1  6
  2 19  1  0
 19 20  1  6
 20 21  1  0
 22 21  1  6
 22 23  1  0
 23 24  1  1
 24 25  1  1
 24 26  1  0
 26 27  1  1
 26 28  1  0
 28 29  1  1
 29 30  1  0
 30 31  1  1
 30 32  1  0
 32 33  1  0
 33 34  1  0
 34 35  1  6
 34 36  1  0
 36 37  1  6
 37 38  1  0
 38 39  1  0
 39 40  1  6
 17  8  1  0
 39 19  1  0
 39 22  1  0
 36 23  1  0
 34 28  1  0
M  END
>  <MS_ID>  (2372) 
MS2457

>  <SMILES>  (2372) 
C[C@H](CCC(=O)O[C@@H]1N[C@H](CO)[C@H](O)[C@H](O)[C@H]1O)[C@H]1CC[C@H]2[C@@H]3[C@H](O)[C@H](O)[C@@H]4C[C@H](O)CC[C@]4(C)[C@H]3CC[C@]12C

>  <Structure_dimension>  (2372) 
2D

$$$$
MS2458
     RDKit          2D

 32 35  0  0  0  0  0  0  0  0999 V2000
   -6.5476   -1.7578    0.0000 C   0  0  0  0  0  0  0  0  0  0  0  0
   -5.3077   -0.9137    0.0000 C   0  0  0  0  0  0  0  0  0  0  0  0
   -5.4187    0.5822    0.0000 C   0  0  0  0  0  0  0  0  0  0  0  0
   -6.7697    1.2340    0.0000 C   0  0  0  0  0  0  0  0  0  0  0  0
   -6.8807    2.7298    0.0000 C   0  0  0  0  0  0  0  0  0  0  0  0
   -5.6408    3.5739    0.0000 O   0  0  0  0  0  0  0  0  0  0  0  0
   -8.2317    3.3816    0.0000 O   0  0  0  0  0  0  0  0  0  0  0  0
   -3.9567   -1.5655    0.0000 C   0  0  0  0  0  0  0  0  0  0  0  0
   -3.6899   -3.0416    0.0000 C   0  0  0  0  0  0  0  0  0  0  0  0
   -2.2036   -3.2440    0.0000 C   0  0  0  0  0  0  0  0  0  0  0  0
   -1.5518   -1.8930    0.0000 C   0  0  0  0  0  0  0  0  0  0  0  0
   -0.1117   -1.4733    0.0000 C   0  0  0  0  0  0  0  0  0  0  0  0
    0.9718   -2.5107    0.0000 C   0  0  0  0  0  0  0  0  0  0  0  0
    0.6151   -3.9677    0.0000 O   0  0  0  0  0  0  0  0  0  0  0  0
    2.4119   -2.0911    0.0000 C   0  0  0  0  0  0  0  0  0  0  0  0
    2.7685   -0.6341    0.0000 C   0  0  0  0  0  0  0  0  0  0  0  0
    4.2086   -0.2144    0.0000 C   0  0  0  0  0  0  0  0  0  0  0  0
    4.5653    1.2425    0.0000 C   0  0  0  0  0  0  0  0  0  0  0  0
    6.0054    1.6622    0.0000 C   0  0  0  0  0  0  0  0  0  0  0  0
    7.0888    0.6248    0.0000 O   0  0  0  0  0  0  0  0  0  0  0  0
    8.5289    1.0444    0.0000 C   0  0  0  0  0  0  0  0  0  0  0  0
    9.6124    0.0071    0.0000 C   0  0  0  0  0  0  0  0  0  0  0  0
   11.0525    0.4267    0.0000 O   0  0  0  0  0  0  0  0  0  0  0  0
    3.4818    2.2799    0.0000 C   0  0  0  0  0  0  0  0  0  0  0  0
    2.0417    1.8603    0.0000 C   0  0  0  0  0  0  0  0  0  0  0  0
    1.6850    0.4033    0.0000 C   0  0  0  0  0  0  0  0  0  0  0  0
    0.6016    1.4406    0.0000 C   0  0  0  0  0  0  0  0  0  0  0  0
    0.2449   -0.0163    0.0000 C   0  0  0  0  0  0  0  0  0  0  0  0
   -0.8385    1.0210    0.0000 C   0  0  0  0  0  0  0  0  0  0  0  0
   -2.2786    0.6014    0.0000 C   0  0  0  0  0  0  0  0  0  0  0  0
   -2.6353   -0.8556    0.0000 C   0  0  0  0  0  0  0  0  0  0  0  0
   -3.8212    0.0628    0.0000 C   0  0  0  0  0  0  0  0  0  0  0  0
  2  1  1  6
  2  3  1  0
  3  4  1  0
  4  5  1  0
  5  6  2  0
  5  7  1  0
  2  8  1  0
  8  9  1  6
  9 10  1  0
 11 10  1  6
 11 12  1  0
 12 13  1  1
 13 14  1  6
 13 15  1  0
 16 15  1  1
 16 17  1  0
 17 18  1  0
 18 19  1  1
 19 20  1  0
 20 21  1  0
 21 22  1  0
 22 23  1  0
 18 24  1  0
 24 25  1  0
 25 26  1  0
 26 27  1  6
 26 28  1  0
 28 29  1  6
 29 30  1  0
 30 31  1  0
 31 32  1  6
 31  8  1  0
 31 11  1  0
 28 12  1  0
 26 16  1  0
M  END
>  <MS_ID>  (2373) 
MS2458

>  <SMILES>  (2373) 
C[C@H](CCC(=O)O)[C@H]1CC[C@H]2[C@@H]3[C@@H](O)C[C@@H]4C[C@H](COCCO)CC[C@]4(C)[C@H]3CC[C@]12C

>  <Structure_dimension>  (2373) 
2D

$$$$
MS2459
     RDKit          2D

 35 38  0  0  0  0  0  0  0  0999 V2000
   -2.0800   -3.8983    0.0000 C   0  0  0  0  0  0  0  0  0  0  0  0
   -1.2622   -2.6409    0.0000 C   0  0  0  0  0  0  0  0  0  0  0  0
   -1.9424   -1.3039    0.0000 C   0  0  0  0  0  0  0  0  0  0  0  0
   -3.4403   -1.2245    0.0000 C   0  0  0  0  0  0  0  0  0  0  0  0
   -4.1204    0.1125    0.0000 C   0  0  0  0  0  0  0  0  0  0  0  0
   -3.3027    1.3700    0.0000 O   0  0  0  0  0  0  0  0  0  0  0  0
   -5.6183    0.1919    0.0000 N   0  0  0  0  0  0  0  0  0  0  0  0
   -6.2985    1.5288    0.0000 C   0  0  0  0  0  0  0  0  0  0  0  0
   -7.7963    1.6083    0.0000 C   0  0  0  0  0  0  0  0  0  0  0  0
   -8.4765    2.9452    0.0000 C   0  0  0  0  0  0  0  0  0  0  0  0
   -9.9744    3.0247    0.0000 O   0  0  0  0  0  0  0  0  0  0  0  0
   -8.6141    0.3508    0.0000 C   0  0  0  0  0  0  0  0  0  0  0  0
   -7.9340   -0.9861    0.0000 O   0  0  0  0  0  0  0  0  0  0  0  0
  -10.1120    0.4302    0.0000 O   0  0  0  0  0  0  0  0  0  0  0  0
    0.2357   -2.7203    0.0000 C   0  0  0  0  0  0  0  0  0  0  0  0
    1.0518   -3.9788    0.0000 C   0  0  0  0  0  0  0  0  0  0  0  0
    2.5010   -3.5915    0.0000 C   0  0  0  0  0  0  0  0  0  0  0  0
    2.5804   -2.0936    0.0000 C   0  0  0  0  0  0  0  0  0  0  0  0
    3.7467   -1.1504    0.0000 C   0  0  0  0  0  0  0  0  0  0  0  0
    5.1468   -1.6888    0.0000 C   0  0  0  0  0  0  0  0  0  0  0  0
    5.3805   -3.1705    0.0000 O   0  0  0  0  0  0  0  0  0  0  0  0
    6.3131   -0.7455    0.0000 C   0  0  0  0  0  0  0  0  0  0  0  0
    6.0793    0.7361    0.0000 C   0  0  0  0  0  0  0  0  0  0  0  0
    7.2457    1.6794    0.0000 C   0  0  0  0  0  0  0  0  0  0  0  0
    7.0119    3.1611    0.0000 C   0  0  0  0  0  0  0  0  0  0  0  0
    8.1782    4.1043    0.0000 O   0  0  0  0  0  0  0  0  0  0  0  0
    5.6119    3.6995    0.0000 C   0  0  0  0  0  0  0  0  0  0  0  0
    4.4456    2.7563    0.0000 C   0  0  0  0  0  0  0  0  0  0  0  0
    4.6793    1.2746    0.0000 C   0  0  0  0  0  0  0  0  0  0  0  0
    3.2793    1.8130    0.0000 C   0  0  0  0  0  0  0  0  0  0  0  0
    3.5130    0.3313    0.0000 C   0  0  0  0  0  0  0  0  0  0  0  0
    2.1130    0.8698    0.0000 C   0  0  0  0  0  0  0  0  0  0  0  0
    0.9467   -0.0735    0.0000 C   0  0  0  0  0  0  0  0  0  0  0  0
    1.1804   -1.5552    0.0000 C   0  0  0  0  0  0  0  0  0  0  0  0
   -0.2683   -1.1660    0.0000 C   0  0  0  0  0  0  0  0  0  0  0  0
  2  1  1  6
  2  3  1  0
  3  4  1  0
  4  5  1  0
  5  6  2  0
  5  7  1  0
  7  8  1  0
  9  8  1  6
  9 10  1  0
 10 11  1  0
  9 12  1  0
 12 13  2  0
 12 14  1  0
  2 15  1  0
 15 16  1  6
 16 17  1  0
 18 17  1  6
 18 19  1  0
 19 20  1  1
 20 21  1  1
 20 22  1  0
 23 22  1  1
 23 24  1  0
 24 25  1  0
 25 26  1  1
 25 27  1  0
 27 28  1  0
 28 29  1  0
 29 30  1  6
 29 31  1  0
 31 32  1  6
 32 33  1  0
 33 34  1  0
 34 35  1  6
 34 15  1  0
 34 18  1  0
 31 19  1  0
 29 23  1  0
M  END
>  <MS_ID>  (2374) 
MS2459

>  <SMILES>  (2374) 
C[C@H](CCC(=O)NC[C@@H](CO)C(=O)O)[C@H]1CC[C@H]2[C@@H]3[C@H](O)C[C@@H]4C[C@H](O)CC[C@]4(C)[C@H]3CC[C@]12C

>  <Structure_dimension>  (2374) 
2D

$$$$
MS2460
     RDKit          2D

 35 38  0  0  0  0  0  0  0  0999 V2000
   -3.2008   -2.8245    0.0000 C   0  0  0  0  0  0  0  0  0  0  0  0
   -2.1661   -1.7385    0.0000 C   0  0  0  0  0  0  0  0  0  0  0  0
   -2.5893   -0.2995    0.0000 C   0  0  0  0  0  0  0  0  0  0  0  0
   -4.0471    0.0536    0.0000 C   0  0  0  0  0  0  0  0  0  0  0  0
   -4.4703    1.4927    0.0000 C   0  0  0  0  0  0  0  0  0  0  0  0
   -3.4356    2.5787    0.0000 O   0  0  0  0  0  0  0  0  0  0  0  0
   -5.9281    1.8458    0.0000 N   0  0  0  0  0  0  0  0  0  0  0  0
   -6.3513    3.2848    0.0000 C   0  0  0  0  0  0  0  0  0  0  0  0
   -6.9628    0.7598    0.0000 C   0  0  0  0  0  0  0  0  0  0  0  0
   -8.4207    1.1128    0.0000 C   0  0  0  0  0  0  0  0  0  0  0  0
   -9.4554    0.0268    0.0000 N   0  0  0  0  0  0  0  0  0  0  0  0
  -10.9133    0.3799    0.0000 C   0  0  0  0  0  0  0  0  0  0  0  0
   -9.0322   -1.4122    0.0000 C   0  0  0  0  0  0  0  0  0  0  0  0
   -0.7083   -2.0916    0.0000 C   0  0  0  0  0  0  0  0  0  0  0  0
   -0.1370   -3.4786    0.0000 C   0  0  0  0  0  0  0  0  0  0  0  0
    1.3586   -3.3639    0.0000 C   0  0  0  0  0  0  0  0  0  0  0  0
    1.7117   -1.9060    0.0000 C   0  0  0  0  0  0  0  0  0  0  0  0
    3.0313   -1.1929    0.0000 C   0  0  0  0  0  0  0  0  0  0  0  0
    4.3087   -1.9792    0.0000 C   0  0  0  0  0  0  0  0  0  0  0  0
    4.2665   -3.4786    0.0000 O   0  0  0  0  0  0  0  0  0  0  0  0
    5.6284   -1.2661    0.0000 C   0  0  0  0  0  0  0  0  0  0  0  0
    6.9058   -2.0524    0.0000 O   0  0  0  0  0  0  0  0  0  0  0  0
    5.6706    0.2333    0.0000 C   0  0  0  0  0  0  0  0  0  0  0  0
    6.9903    0.9464    0.0000 C   0  0  0  0  0  0  0  0  0  0  0  0
    7.0325    2.4458    0.0000 C   0  0  0  0  0  0  0  0  0  0  0  0
    8.3522    3.1589    0.0000 O   0  0  0  0  0  0  0  0  0  0  0  0
    5.7551    3.2321    0.0000 C   0  0  0  0  0  0  0  0  0  0  0  0
    4.4355    2.5190    0.0000 C   0  0  0  0  0  0  0  0  0  0  0  0
    4.3932    1.0196    0.0000 C   0  0  0  0  0  0  0  0  0  0  0  0
    3.1158    1.8059    0.0000 C   0  0  0  0  0  0  0  0  0  0  0  0
    3.0736    0.3065    0.0000 C   0  0  0  0  0  0  0  0  0  0  0  0
    1.7962    1.0928    0.0000 C   0  0  0  0  0  0  0  0  0  0  0  0
    0.4765    0.3797    0.0000 C   0  0  0  0  0  0  0  0  0  0  0  0
    0.4343   -1.1197    0.0000 C   0  0  0  0  0  0  0  0  0  0  0  0
   -0.9183   -0.4713    0.0000 C   0  0  0  0  0  0  0  0  0  0  0  0
  2  1  1  6
  2  3  1  0
  3  4  1  0
  4  5  1  0
  5  6  2  0
  5  7  1  0
  7  8  1  0
  7  9  1  0
  9 10  1  0
 10 11  1  0
 11 12  1  0
 11 13  1  0
  2 14  1  0
 14 15  1  6
 15 16  1  0
 17 16  1  6
 17 18  1  0
 18 19  1  1
 19 20  1  1
 19 21  1  0
 21 22  1  1
 21 23  1  0
 23 24  1  1
 24 25  1  0
 25 26  1  1
 25 27  1  0
 27 28  1  0
 28 29  1  0
 29 30  1  6
 29 31  1  0
 31 32  1  6
 32 33  1  0
 33 34  1  0
 34 35  1  6
 34 14  1  0
 34 17  1  0
 31 18  1  0
 29 23  1  0
M  END
>  <MS_ID>  (2375) 
MS2460

>  <SMILES>  (2375) 
C[C@H](CCC(=O)N(C)CCN(C)C)[C@H]1CC[C@H]2[C@@H]3[C@H](O)[C@H](O)[C@@H]4C[C@H](O)CC[C@]4(C)[C@H]3CC[C@]12C

>  <Structure_dimension>  (2375) 
2D

$$$$
MS2461
     RDKit          2D

 27 30  0  0  0  0  0  0  0  0999 V2000
   -5.1023   -2.0364    0.0000 C   0  0  0  0  0  0  0  0  0  0  0  0
   -3.8978   -1.1425    0.0000 C   0  0  0  0  0  0  0  0  0  0  0  0
   -4.0697    0.3476    0.0000 C   0  0  0  0  0  0  0  0  0  0  0  0
   -5.4461    0.9438    0.0000 C   0  0  0  0  0  0  0  0  0  0  0  0
   -5.6180    2.4339    0.0000 C   0  0  0  0  0  0  0  0  0  0  0  0
   -4.4135    3.3278    0.0000 O   0  0  0  0  0  0  0  0  0  0  0  0
   -6.9944    3.0301    0.0000 O   0  0  0  0  0  0  0  0  0  0  0  0
   -2.5213   -1.7387    0.0000 C   0  0  0  0  0  0  0  0  0  0  0  0
   -2.1946   -3.2027    0.0000 C   0  0  0  0  0  0  0  0  0  0  0  0
   -0.7013   -3.3444    0.0000 C   0  0  0  0  0  0  0  0  0  0  0  0
   -0.1051   -1.9679    0.0000 C   0  0  0  0  0  0  0  0  0  0  0  0
    1.3167   -1.4900    0.0000 C   0  0  0  0  0  0  0  0  0  0  0  0
    2.4415   -2.4823    0.0000 C   0  0  0  0  0  0  0  0  0  0  0  0
    3.8633   -2.0044    0.0000 C   0  0  0  0  0  0  0  0  0  0  0  0
    4.1603   -0.5341    0.0000 C   0  0  0  0  0  0  0  0  0  0  0  0
    5.5821   -0.0561    0.0000 C   0  0  0  0  0  0  0  0  0  0  0  0
    5.8791    1.4142    0.0000 C   0  0  0  0  0  0  0  0  0  0  0  0
    7.3009    1.8921    0.0000 O   0  0  0  0  0  0  0  0  0  0  0  0
    4.7543    2.4065    0.0000 C   0  0  0  0  0  0  0  0  0  0  0  0
    3.3325    1.9286    0.0000 C   0  0  0  0  0  0  0  0  0  0  0  0
    3.0355    0.4583    0.0000 C   0  0  0  0  0  0  0  0  0  0  0  0
    1.9107    1.4506    0.0000 C   0  0  0  0  0  0  0  0  0  0  0  0
    1.6137   -0.0197    0.0000 C   0  0  0  0  0  0  0  0  0  0  0  0
    0.4888    0.9727    0.0000 C   0  0  0  0  0  0  0  0  0  0  0  0
   -0.9330    0.4947    0.0000 C   0  0  0  0  0  0  0  0  0  0  0  0
   -1.2300   -0.9756    0.0000 C   0  0  0  0  0  0  0  0  0  0  0  0
   -2.4524   -0.1062    0.0000 C   0  0  0  0  0  0  0  0  0  0  0  0
  2  1  1  1
  2  3  1  0
  3  4  1  0
  4  5  1  0
  5  6  2  0
  5  7  1  0
  2  8  1  0
  8  9  1  6
  9 10  1  0
 11 10  1  6
 11 12  1  0
 12 13  1  1
 13 14  1  0
 15 14  1  1
 15 16  1  0
 16 17  1  0
 17 18  1  6
 17 19  1  0
 19 20  1  0
 20 21  1  0
 21 22  1  6
 21 23  1  0
 23 24  1  6
 24 25  1  0
 25 26  1  0
 26 27  1  6
 26  8  1  0
 26 11  1  0
 23 12  1  0
 21 15  1  0
M  END
>  <MS_ID>  (2376) 
MS2461

>  <SMILES>  (2376) 
C[C@@H](CCC(=O)O)[C@H]1CC[C@H]2[C@@H]3CC[C@@H]4C[C@@H](O)CC[C@]4(C)[C@H]3CC[C@]12C

>  <Structure_dimension>  (2376) 
2D

$$$$
MS2462
     RDKit          2D

 30 33  0  0  0  0  0  0  0  0999 V2000
   -4.2255   -2.8134    0.0000 C   0  0  0  0  0  0  0  0  0  0  0  0
   -3.1320   -1.7867    0.0000 C   0  0  0  0  0  0  0  0  0  0  0  0
   -3.4744   -0.3263    0.0000 C   0  0  0  0  0  0  0  0  0  0  0  0
   -4.9104    0.1074    0.0000 C   0  0  0  0  0  0  0  0  0  0  0  0
   -5.2528    1.5677    0.0000 C   0  0  0  0  0  0  0  0  0  0  0  0
   -4.1593    2.5945    0.0000 O   0  0  0  0  0  0  0  0  0  0  0  0
   -6.6888    2.0014    0.0000 C   0  0  0  0  0  0  0  0  0  0  0  0
   -7.7823    0.9746    0.0000 O   0  0  0  0  0  0  0  0  0  0  0  0
   -7.0312    3.4618    0.0000 O   0  0  0  0  0  0  0  0  0  0  0  0
   -1.6961   -2.2203    0.0000 C   0  0  0  0  0  0  0  0  0  0  0  0
   -1.2029   -3.6369    0.0000 C   0  0  0  0  0  0  0  0  0  0  0  0
    0.2968   -3.6056    0.0000 C   0  0  0  0  0  0  0  0  0  0  0  0
    0.7305   -2.1697    0.0000 C   0  0  0  0  0  0  0  0  0  0  0  0
    2.0877   -1.5311    0.0000 C   0  0  0  0  0  0  0  0  0  0  0  0
    3.3194   -2.3873    0.0000 C   0  0  0  0  0  0  0  0  0  0  0  0
    4.6767   -1.7487    0.0000 C   0  0  0  0  0  0  0  0  0  0  0  0
    4.8023   -0.2540    0.0000 C   0  0  0  0  0  0  0  0  0  0  0  0
    6.1596    0.3846    0.0000 C   0  0  0  0  0  0  0  0  0  0  0  0
    6.2852    1.8794    0.0000 C   0  0  0  0  0  0  0  0  0  0  0  0
    7.6425    2.5179    0.0000 O   0  0  0  0  0  0  0  0  0  0  0  0
    5.0536    2.7355    0.0000 C   0  0  0  0  0  0  0  0  0  0  0  0
    3.6963    2.0969    0.0000 C   0  0  0  0  0  0  0  0  0  0  0  0
    3.5706    0.6022    0.0000 C   0  0  0  0  0  0  0  0  0  0  0  0
    2.3390    1.4584    0.0000 C   0  0  0  0  0  0  0  0  0  0  0  0
    2.2134   -0.0364    0.0000 C   0  0  0  0  0  0  0  0  0  0  0  0
    0.9817    0.8198    0.0000 C   0  0  0  0  0  0  0  0  0  0  0  0
   -0.3756    0.1812    0.0000 C   0  0  0  0  0  0  0  0  0  0  0  0
   -1.6072    1.0374    0.0000 O   0  0  0  0  0  0  0  0  0  0  0  0
   -0.5012   -1.3135    0.0000 C   0  0  0  0  0  0  0  0  0  0  0  0
   -1.8156   -0.5908    0.0000 C   0  0  0  0  0  0  0  0  0  0  0  0
  2  1  1  6
  2  3  1  0
  3  4  1  0
  4  5  1  0
  5  6  2  0
  5  7  1  0
  7  8  2  0
  7  9  1  0
  2 10  1  0
 10 11  1  6
 11 12  1  0
 13 12  1  6
 13 14  1  0
 14 15  1  1
 15 16  1  0
 17 16  1  1
 17 18  1  0
 18 19  1  0
 19 20  2  0
 19 21  1  0
 21 22  1  0
 22 23  1  0
 23 24  1  6
 23 25  1  0
 25 26  1  6
 26 27  1  0
 27 28  1  1
 27 29  1  0
 29 30  1  6
 29 10  1  0
 29 13  1  0
 25 14  1  0
 23 17  1  0
M  END
>  <MS_ID>  (2377) 
MS2462

>  <SMILES>  (2377) 
C[C@H](CCC(=O)C(=O)O)[C@H]1CC[C@H]2[C@@H]3CC[C@@H]4CC(=O)CC[C@]4(C)[C@H]3C[C@H](O)[C@]12C

>  <Structure_dimension>  (2377) 
2D

$$$$
MS2463
     RDKit          2D

 33 37  0  0  0  0  0  0  0  0999 V2000
   -3.0595   -3.4014    0.0000 C   0  0  0  0  0  0  0  0  0  0  0  0
   -2.0799   -2.2654    0.0000 C   0  0  0  0  0  0  0  0  0  0  0  0
   -2.5738   -0.8491    0.0000 C   0  0  0  0  0  0  0  0  0  0  0  0
   -4.0474   -0.5687    0.0000 C   0  0  0  0  0  0  0  0  0  0  0  0
   -4.5414    0.8476    0.0000 C   0  0  0  0  0  0  0  0  0  0  0  0
   -3.5618    1.9836    0.0000 O   0  0  0  0  0  0  0  0  0  0  0  0
   -6.0149    1.1280    0.0000 C   0  0  0  0  0  0  0  0  0  0  0  0
   -6.5089    2.5443    0.0000 C   0  0  0  0  0  0  0  0  0  0  0  0
   -7.9825    2.8247    0.0000 N   0  0  0  0  0  0  0  0  0  0  0  0
   -8.9621    1.6887    0.0000 C   0  0  0  0  0  0  0  0  0  0  0  0
   -8.4681    0.2724    0.0000 C   0  0  0  0  0  0  0  0  0  0  0  0
   -6.9945   -0.0080    0.0000 N   0  0  0  0  0  0  0  0  0  0  0  0
   -0.6063   -2.5458    0.0000 C   0  0  0  0  0  0  0  0  0  0  0  0
    0.0330   -3.9027    0.0000 C   0  0  0  0  0  0  0  0  0  0  0  0
    1.5211   -3.7140    0.0000 C   0  0  0  0  0  0  0  0  0  0  0  0
    1.8015   -2.2404    0.0000 C   0  0  0  0  0  0  0  0  0  0  0  0
    3.0841   -1.4628    0.0000 C   0  0  0  0  0  0  0  0  0  0  0  0
    4.3990   -2.1848    0.0000 C   0  0  0  0  0  0  0  0  0  0  0  0
    5.6816   -1.4072    0.0000 C   0  0  0  0  0  0  0  0  0  0  0  0
    5.6495    0.0925    0.0000 C   0  0  0  0  0  0  0  0  0  0  0  0
    6.9322    0.8702    0.0000 C   0  0  0  0  0  0  0  0  0  0  0  0
    6.9001    2.3698    0.0000 C   0  0  0  0  0  0  0  0  0  0  0  0
    8.1827    3.1475    0.0000 O   0  0  0  0  0  0  0  0  0  0  0  0
    5.5852    3.0918    0.0000 C   0  0  0  0  0  0  0  0  0  0  0  0
    4.3026    2.3142    0.0000 C   0  0  0  0  0  0  0  0  0  0  0  0
    4.3347    0.8145    0.0000 C   0  0  0  0  0  0  0  0  0  0  0  0
    3.0199    1.5365    0.0000 C   0  0  0  0  0  0  0  0  0  0  0  0
    3.0520    0.0369    0.0000 C   0  0  0  0  0  0  0  0  0  0  0  0
    1.7372    0.7589    0.0000 C   0  0  0  0  0  0  0  0  0  0  0  0
    0.4545   -0.0188    0.0000 C   0  0  0  0  0  0  0  0  0  0  0  0
   -0.8603    0.7032    0.0000 O   0  0  0  0  0  0  0  0  0  0  0  0
    0.4867   -1.5184    0.0000 C   0  0  0  0  0  0  0  0  0  0  0  0
   -0.8964   -0.9378    0.0000 C   0  0  0  0  0  0  0  0  0  0  0  0
  2  1  1  6
  2  3  1  0
  3  4  1  0
  4  5  1  0
  5  6  2  0
  5  7  1  0
  7  8  2  0
  8  9  1  0
  9 10  2  0
 10 11  1  0
 11 12  2  0
  2 13  1  0
 13 14  1  6
 14 15  1  0
 16 15  1  6
 16 17  1  0
 17 18  1  1
 18 19  1  0
 20 19  1  1
 20 21  1  0
 21 22  1  0
 22 23  1  1
 22 24  1  0
 24 25  1  0
 25 26  1  0
 26 27  1  6
 26 28  1  0
 28 29  1  6
 29 30  1  0
 30 31  1  1
 30 32  1  0
 32 33  1  6
 12  7  1  0
 32 13  1  0
 32 16  1  0
 28 17  1  0
 26 20  1  0
M  END
>  <MS_ID>  (2378) 
MS2463

>  <SMILES>  (2378) 
C[C@H](CCC(=O)c1cnccn1)[C@H]1CC[C@H]2[C@@H]3CC[C@@H]4C[C@H](O)CC[C@]4(C)[C@H]3C[C@H](O)[C@]12C

>  <Structure_dimension>  (2378) 
2D

$$$$
MS2464
     RDKit          2D

 33 36  0  0  0  0  0  0  0  0999 V2000
   -2.2798   -4.2044    0.0000 C   0  0  0  0  0  0  0  0  0  0  0  0
   -1.5509   -2.8934    0.0000 C   0  0  0  0  0  0  0  0  0  0  0  0
   -2.3219   -1.6066    0.0000 C   0  0  0  0  0  0  0  0  0  0  0  0
   -3.8217   -1.6309    0.0000 C   0  0  0  0  0  0  0  0  0  0  0  0
   -4.5926   -0.3442    0.0000 C   0  0  0  0  0  0  0  0  0  0  0  0
   -3.8638    0.9668    0.0000 O   0  0  0  0  0  0  0  0  0  0  0  0
   -6.0924   -0.3685    0.0000 C   0  0  0  0  0  0  0  0  0  0  0  0
   -6.8634    0.9182    0.0000 C   0  0  0  0  0  0  0  0  0  0  0  0
   -8.3632    0.8939    0.0000 C   0  0  0  0  0  0  0  0  0  0  0  0
   -9.1341    2.1807    0.0000 C   0  0  0  0  0  0  0  0  0  0  0  0
  -10.6339    2.1564    0.0000 C   0  0  0  0  0  0  0  0  0  0  0  0
  -11.4048    3.4431    0.0000 O   0  0  0  0  0  0  0  0  0  0  0  0
   -0.0511   -2.8691    0.0000 C   0  0  0  0  0  0  0  0  0  0  0  0
    0.8501   -4.0682    0.0000 C   0  0  0  0  0  0  0  0  0  0  0  0
    2.2690   -3.5816    0.0000 C   0  0  0  0  0  0  0  0  0  0  0  0
    2.2447   -2.0818    0.0000 C   0  0  0  0  0  0  0  0  0  0  0  0
    3.3430   -1.0602    0.0000 C   0  0  0  0  0  0  0  0  0  0  0  0
    4.7769   -1.5006    0.0000 C   0  0  0  0  0  0  0  0  0  0  0  0
    5.1125   -2.9625    0.0000 O   0  0  0  0  0  0  0  0  0  0  0  0
    5.8752   -0.4789    0.0000 C   0  0  0  0  0  0  0  0  0  0  0  0
    5.5396    0.9830    0.0000 C   0  0  0  0  0  0  0  0  0  0  0  0
    6.6380    2.0047    0.0000 C   0  0  0  0  0  0  0  0  0  0  0  0
    6.3024    3.4666    0.0000 C   0  0  0  0  0  0  0  0  0  0  0  0
    7.4007    4.4882    0.0000 O   0  0  0  0  0  0  0  0  0  0  0  0
    4.8685    3.9070    0.0000 C   0  0  0  0  0  0  0  0  0  0  0  0
    3.7701    2.8854    0.0000 C   0  0  0  0  0  0  0  0  0  0  0  0
    4.1057    1.4234    0.0000 C   0  0  0  0  0  0  0  0  0  0  0  0
    2.6718    1.8638    0.0000 C   0  0  0  0  0  0  0  0  0  0  0  0
    3.0074    0.4018    0.0000 C   0  0  0  0  0  0  0  0  0  0  0  0
    1.5735    0.8422    0.0000 C   0  0  0  0  0  0  0  0  0  0  0  0
    0.4752   -0.1795    0.0000 C   0  0  0  0  0  0  0  0  0  0  0  0
    0.8108   -1.6414    0.0000 C   0  0  0  0  0  0  0  0  0  0  0  0
   -0.6613   -1.3534    0.0000 C   0  0  0  0  0  0  0  0  0  0  0  0
  2  1  1  6
  2  3  1  0
  3  4  1  0
  4  5  1  0
  5  6  2  0
  5  7  1  0
  7  8  2  0
  8  9  1  0
  9 10  2  0
 10 11  1  0
 11 12  1  0
  2 13  1  0
 13 14  1  6
 14 15  1  0
 16 15  1  6
 16 17  1  0
 17 18  1  1
 18 19  1  1
 18 20  1  0
 21 20  1  1
 21 22  1  0
 22 23  1  0
 23 24  1  1
 23 25  1  0
 25 26  1  0
 26 27  1  0
 27 28  1  6
 27 29  1  0
 29 30  1  6
 30 31  1  0
 31 32  1  0
 32 33  1  6
 32 13  1  0
 32 16  1  0
 29 17  1  0
 27 21  1  0
M  END
>  <MS_ID>  (2379) 
MS2464

>  <SMILES>  (2379) 
C[C@H](CCC(=O)/C=C/C=C/CO)[C@H]1CC[C@H]2[C@@H]3[C@H](O)C[C@@H]4C[C@H](O)CC[C@]4(C)[C@H]3CC[C@]12C

>  <Structure_dimension>  (2379) 
2D

$$$$
MS2465
     RDKit          2D

 40 44  0  0  0  0  0  0  0  0999 V2000
   -0.9108   -4.8216    0.0000 C   0  0  0  0  0  0  0  0  0  0  0  0
   -0.3447   -3.4325    0.0000 C   0  0  0  0  0  0  0  0  0  0  0  0
   -1.2647   -2.2477    0.0000 C   0  0  0  0  0  0  0  0  0  0  0  0
   -2.7507   -2.4520    0.0000 C   0  0  0  0  0  0  0  0  0  0  0  0
   -3.6706   -1.2672    0.0000 C   0  0  0  0  0  0  0  0  0  0  0  0
   -3.1046    0.1219    0.0000 O   0  0  0  0  0  0  0  0  0  0  0  0
   -5.1567   -1.4715    0.0000 N   0  0  0  0  0  0  0  0  0  0  0  0
   -6.0766   -0.2867    0.0000 C   0  0  0  0  0  0  0  0  0  0  0  0
   -5.5105    1.1023    0.0000 O   0  0  0  0  0  0  0  0  0  0  0  0
   -6.4305    2.2871    0.0000 C   0  0  0  0  0  0  0  0  0  0  0  0
   -5.8644    3.6762    0.0000 C   0  0  0  0  0  0  0  0  0  0  0  0
   -4.3784    3.8805    0.0000 O   0  0  0  0  0  0  0  0  0  0  0  0
   -7.9165    2.0828    0.0000 C   0  0  0  0  0  0  0  0  0  0  0  0
   -8.8364    3.2676    0.0000 O   0  0  0  0  0  0  0  0  0  0  0  0
   -8.4826    0.6937    0.0000 C   0  0  0  0  0  0  0  0  0  0  0  0
   -9.9686    0.4894    0.0000 O   0  0  0  0  0  0  0  0  0  0  0  0
   -7.5626   -0.4910    0.0000 C   0  0  0  0  0  0  0  0  0  0  0  0
   -8.1287   -1.8801    0.0000 O   0  0  0  0  0  0  0  0  0  0  0  0
    1.1413   -3.2282    0.0000 C   0  0  0  0  0  0  0  0  0  0  0  0
    2.1800   -4.3103    0.0000 C   0  0  0  0  0  0  0  0  0  0  0  0
    3.5302   -3.6568    0.0000 C   0  0  0  0  0  0  0  0  0  0  0  0
    3.3259   -2.1708    0.0000 C   0  0  0  0  0  0  0  0  0  0  0  0
    4.2935   -1.0246    0.0000 C   0  0  0  0  0  0  0  0  0  0  0  0
    5.7699   -1.2896    0.0000 C   0  0  0  0  0  0  0  0  0  0  0  0
    6.2787   -2.7006    0.0000 O   0  0  0  0  0  0  0  0  0  0  0  0
    6.7376   -0.1434    0.0000 C   0  0  0  0  0  0  0  0  0  0  0  0
    8.2140   -0.4083    0.0000 O   0  0  0  0  0  0  0  0  0  0  0  0
    6.2288    1.2677    0.0000 C   0  0  0  0  0  0  0  0  0  0  0  0
    7.1964    2.4139    0.0000 C   0  0  0  0  0  0  0  0  0  0  0  0
    6.6876    3.8249    0.0000 C   0  0  0  0  0  0  0  0  0  0  0  0
    7.6552    4.9711    0.0000 O   0  0  0  0  0  0  0  0  0  0  0  0
    5.2112    4.0898    0.0000 C   0  0  0  0  0  0  0  0  0  0  0  0
    4.2435    2.9437    0.0000 C   0  0  0  0  0  0  0  0  0  0  0  0
    4.7523    1.5326    0.0000 C   0  0  0  0  0  0  0  0  0  0  0  0
    3.2759    1.7975    0.0000 C   0  0  0  0  0  0  0  0  0  0  0  0
    3.7847    0.3864    0.0000 C   0  0  0  0  0  0  0  0  0  0  0  0
    2.3083    0.6513    0.0000 C   0  0  0  0  0  0  0  0  0  0  0  0
    1.3407   -0.4948    0.0000 C   0  0  0  0  0  0  0  0  0  0  0  0
    1.8495   -1.9059    0.0000 C   0  0  0  0  0  0  0  0  0  0  0  0
    0.3534   -1.7968    0.0000 C   0  0  0  0  0  0  0  0  0  0  0  0
  2  1  1  6
  2  3  1  0
  3  4  1  0
  4  5  1  0
  5  6  2  0
  5  7  1  0
  8  7  1  1
  8  9  1  0
  9 10  1  0
 10 11  1  1
 11 12  1  0
 10 13  1  0
 13 14  1  6
 13 15  1  0
 15 16  1  1
 15 17  1  0
 17 18  1  6
  2 19  1  0
 19 20  1  6
 20 21  1  0
 22 21  1  6
 22 23  1  0
 23 24  1  1
 24 25  1  1
 24 26  1  0
 26 27  1  1
 26 28  1  0
 28 29  1  1
 29 30  1  0
 30 31  1  1
 30 32  1  0
 32 33  1  0
 33 34  1  0
 34 35  1  6
 34 36  1  0
 36 37  1  6
 37 38  1  0
 38 39  1  0
 39 40  1  6
 17  8  1  0
 39 19  1  0
 39 22  1  0
 36 23  1  0
 34 28  1  0
M  END
>  <MS_ID>  (2380) 
MS2465

>  <SMILES>  (2380) 
C[C@H](CCC(=O)N[C@@H]1O[C@H](CO)[C@@H](O)[C@H](O)[C@H]1O)[C@H]1CC[C@H]2[C@@H]3[C@H](O)[C@H](O)[C@@H]4C[C@H](O)CC[C@]4(C)[C@H]3CC[C@]12C

>  <Structure_dimension>  (2380) 
2D

$$$$
MS2466
     RDKit          2D

 28 31  0  0  0  0  0  0  0  0999 V2000
   -5.0096   -2.1352    0.0000 C   0  0  0  0  0  0  0  0  0  0  0  0
   -3.8132   -1.2303    0.0000 C   0  0  0  0  0  0  0  0  0  0  0  0
   -3.9987    0.2582    0.0000 C   0  0  0  0  0  0  0  0  0  0  0  0
   -5.3805    0.8418    0.0000 C   0  0  0  0  0  0  0  0  0  0  0  0
   -5.5659    2.3303    0.0000 C   0  0  0  0  0  0  0  0  0  0  0  0
   -4.3695    3.2351    0.0000 O   0  0  0  0  0  0  0  0  0  0  0  0
   -6.9477    2.9140    0.0000 O   0  0  0  0  0  0  0  0  0  0  0  0
   -2.4315   -1.8140    0.0000 C   0  0  0  0  0  0  0  0  0  0  0  0
   -2.0914   -3.2749    0.0000 C   0  0  0  0  0  0  0  0  0  0  0  0
   -0.5969   -3.4030    0.0000 C   0  0  0  0  0  0  0  0  0  0  0  0
   -0.0133   -2.0212    0.0000 C   0  0  0  0  0  0  0  0  0  0  0  0
    1.4041   -1.5304    0.0000 C   0  0  0  0  0  0  0  0  0  0  0  0
    2.5379   -2.5125    0.0000 C   0  0  0  0  0  0  0  0  0  0  0  0
    3.9554   -2.0216    0.0000 C   0  0  0  0  0  0  0  0  0  0  0  0
    4.2390   -0.5487    0.0000 C   0  0  0  0  0  0  0  0  0  0  0  0
    5.6564   -0.0578    0.0000 C   0  0  0  0  0  0  0  0  0  0  0  0
    5.9400    1.4151    0.0000 C   0  0  0  0  0  0  0  0  0  0  0  0
    7.3574    1.9060    0.0000 F   0  0  0  0  0  0  0  0  0  0  0  0
    4.8062    2.3972    0.0000 C   0  0  0  0  0  0  0  0  0  0  0  0
    3.3888    1.9064    0.0000 C   0  0  0  0  0  0  0  0  0  0  0  0
    3.1052    0.4334    0.0000 C   0  0  0  0  0  0  0  0  0  0  0  0
    1.9714    1.4155    0.0000 C   0  0  0  0  0  0  0  0  0  0  0  0
    1.6878   -0.0574    0.0000 C   0  0  0  0  0  0  0  0  0  0  0  0
    0.5540    0.9246    0.0000 C   0  0  0  0  0  0  0  0  0  0  0  0
   -0.8635    0.4338    0.0000 C   0  0  0  0  0  0  0  0  0  0  0  0
   -1.9973    1.4159    0.0000 O   0  0  0  0  0  0  0  0  0  0  0  0
   -1.1471   -1.0392    0.0000 C   0  0  0  0  0  0  0  0  0  0  0  0
   -2.3773   -0.1810    0.0000 C   0  0  0  0  0  0  0  0  0  0  0  0
  2  1  1  6
  2  3  1  0
  3  4  1  0
  4  5  1  0
  5  6  2  0
  5  7  1  0
  2  8  1  0
  8  9  1  6
  9 10  1  0
 11 10  1  6
 11 12  1  0
 12 13  1  1
 13 14  1  0
 15 14  1  1
 15 16  1  0
 16 17  1  0
 17 18  1  6
 17 19  1  0
 19 20  1  0
 20 21  1  0
 21 22  1  6
 21 23  1  0
 23 24  1  6
 24 25  1  0
 25 26  1  6
 25 27  1  0
 27 28  1  6
 27  8  1  0
 27 11  1  0
 23 12  1  0
 21 15  1  0
M  END
>  <MS_ID>  (2381) 
MS2466

>  <SMILES>  (2381) 
C[C@H](CCC(=O)O)[C@H]1CC[C@H]2[C@@H]3CC[C@@H]4C[C@@H](F)CC[C@]4(C)[C@H]3C[C@@H](O)[C@]12C

>  <Structure_dimension>  (2381) 
2D

$$$$
MS2467
     RDKit          2D

 28 31  0  0  0  0  0  0  0  0999 V2000
   -4.9892    4.0781    0.0000 C   0  0  0  0  0  0  0  0  0  0  0  0
   -4.5707    2.6377    0.0000 S   0  0  0  0  0  0  0  0  0  0  0  0
   -5.6089    1.5550    0.0000 C   0  0  0  0  0  0  0  0  0  0  0  0
   -7.0656    1.9128    0.0000 O   0  0  0  0  0  0  0  0  0  0  0  0
   -5.1903    0.1146    0.0000 C   0  0  0  0  0  0  0  0  0  0  0  0
   -3.7336   -0.2432    0.0000 C   0  0  0  0  0  0  0  0  0  0  0  0
   -3.3151   -1.6836    0.0000 C   0  0  0  0  0  0  0  0  0  0  0  0
   -4.3533   -2.7663    0.0000 C   0  0  0  0  0  0  0  0  0  0  0  0
   -1.8584   -2.0413    0.0000 C   0  0  0  0  0  0  0  0  0  0  0  0
   -1.2916   -3.4301    0.0000 C   0  0  0  0  0  0  0  0  0  0  0  0
    0.2044   -3.3202    0.0000 C   0  0  0  0  0  0  0  0  0  0  0  0
    0.5621   -1.8635    0.0000 C   0  0  0  0  0  0  0  0  0  0  0  0
    1.8841   -1.1547    0.0000 C   0  0  0  0  0  0  0  0  0  0  0  0
    3.1589   -1.9451    0.0000 C   0  0  0  0  0  0  0  0  0  0  0  0
    3.1119   -3.4443    0.0000 O   0  0  0  0  0  0  0  0  0  0  0  0
    4.4809   -1.2362    0.0000 C   0  0  0  0  0  0  0  0  0  0  0  0
    4.5280    0.2631    0.0000 C   0  0  0  0  0  0  0  0  0  0  0  0
    5.8499    0.9719    0.0000 C   0  0  0  0  0  0  0  0  0  0  0  0
    5.8970    2.4712    0.0000 C   0  0  0  0  0  0  0  0  0  0  0  0
    4.6221    3.2616    0.0000 C   0  0  0  0  0  0  0  0  0  0  0  0
    3.3002    2.5527    0.0000 C   0  0  0  0  0  0  0  0  0  0  0  0
    3.2531    1.0535    0.0000 C   0  0  0  0  0  0  0  0  0  0  0  0
    1.9782    1.8439    0.0000 C   0  0  0  0  0  0  0  0  0  0  0  0
    1.9312    0.3446    0.0000 C   0  0  0  0  0  0  0  0  0  0  0  0
    0.6563    1.1350    0.0000 C   0  0  0  0  0  0  0  0  0  0  0  0
   -0.6656    0.4261    0.0000 C   0  0  0  0  0  0  0  0  0  0  0  0
   -0.7127   -1.0731    0.0000 C   0  0  0  0  0  0  0  0  0  0  0  0
   -2.0632   -0.4203    0.0000 C   0  0  0  0  0  0  0  0  0  0  0  0
  1  2  1  0
  2  3  1  0
  3  4  2  0
  3  5  1  0
  5  6  1  0
  6  7  1  0
  7  8  1  6
  7  9  1  0
  9 10  1  6
 10 11  1  0
 12 11  1  6
 12 13  1  0
 13 14  1  1
 14 15  1  1
 14 16  1  0
 17 16  1  1
 17 18  1  0
 18 19  1  0
 19 20  1  0
 20 21  1  0
 21 22  1  0
 22 23  1  6
 22 24  1  0
 24 25  1  6
 25 26  1  0
 26 27  1  0
 27 28  1  6
 27  9  1  0
 27 12  1  0
 24 13  1  0
 22 17  1  0
M  END
>  <MS_ID>  (2382) 
MS2467

>  <SMILES>  (2382) 
CSC(=O)CC[C@@H](C)[C@H]1CC[C@H]2[C@@H]3[C@H](O)C[C@@H]4CCCC[C@]4(C)[C@H]3CC[C@]12C

>  <Structure_dimension>  (2382) 
2D

$$$$
MS2468
     RDKit          2D

 37 41  0  0  0  0  0  0  0  0999 V2000
   -0.7249   -4.9136    0.0000 C   0  0  0  0  0  0  0  0  0  0  0  0
   -0.2239   -3.4997    0.0000 C   0  0  0  0  0  0  0  0  0  0  0  0
   -1.1979   -2.3589    0.0000 C   0  0  0  0  0  0  0  0  0  0  0  0
   -2.6728   -2.6320    0.0000 C   0  0  0  0  0  0  0  0  0  0  0  0
   -3.6468   -1.4912    0.0000 C   0  0  0  0  0  0  0  0  0  0  0  0
   -3.1458   -0.0773    0.0000 O   0  0  0  0  0  0  0  0  0  0  0  0
   -5.1217   -1.7643    0.0000 N   0  0  0  0  0  0  0  0  0  0  0  0
   -6.0957   -0.6235    0.0000 C   0  0  0  0  0  0  0  0  0  0  0  0
   -5.5947    0.7904    0.0000 C   0  0  0  0  0  0  0  0  0  0  0  0
   -6.5687    1.9312    0.0000 C   0  0  0  0  0  0  0  0  0  0  0  0
   -8.0436    1.6581    0.0000 C   0  0  0  0  0  0  0  0  0  0  0  0
   -9.0175    2.7989    0.0000 N   0  0  0  0  0  0  0  0  0  0  0  0
  -10.4925    2.5258    0.0000 O   0  0  0  0  0  0  0  0  0  0  0  0
   -8.5166    4.2128    0.0000 O   0  0  0  0  0  0  0  0  0  0  0  0
   -8.5446    0.2442    0.0000 C   0  0  0  0  0  0  0  0  0  0  0  0
   -7.5706   -0.8966    0.0000 C   0  0  0  0  0  0  0  0  0  0  0  0
    1.2510   -3.2266    0.0000 C   0  0  0  0  0  0  0  0  0  0  0  0
    2.3389   -4.2594    0.0000 C   0  0  0  0  0  0  0  0  0  0  0  0
    3.6572   -3.5439    0.0000 C   0  0  0  0  0  0  0  0  0  0  0  0
    3.3842   -2.0689    0.0000 C   0  0  0  0  0  0  0  0  0  0  0  0
    4.2975   -0.8791    0.0000 C   0  0  0  0  0  0  0  0  0  0  0  0
    5.7847   -1.0751    0.0000 C   0  0  0  0  0  0  0  0  0  0  0  0
    6.3584   -2.4611    0.0000 O   0  0  0  0  0  0  0  0  0  0  0  0
    6.6980    0.1147    0.0000 C   0  0  0  0  0  0  0  0  0  0  0  0
    6.1243    1.5006    0.0000 C   0  0  0  0  0  0  0  0  0  0  0  0
    7.0376    2.6905    0.0000 C   0  0  0  0  0  0  0  0  0  0  0  0
    6.4639    4.0764    0.0000 C   0  0  0  0  0  0  0  0  0  0  0  0
    7.3772    5.2663    0.0000 O   0  0  0  0  0  0  0  0  0  0  0  0
    4.9767    4.2725    0.0000 C   0  0  0  0  0  0  0  0  0  0  0  0
    4.0634    3.0826    0.0000 C   0  0  0  0  0  0  0  0  0  0  0  0
    4.6371    1.6967    0.0000 C   0  0  0  0  0  0  0  0  0  0  0  0
    3.1500    1.8928    0.0000 C   0  0  0  0  0  0  0  0  0  0  0  0
    3.7238    0.5068    0.0000 C   0  0  0  0  0  0  0  0  0  0  0  0
    2.2366    0.7029    0.0000 C   0  0  0  0  0  0  0  0  0  0  0  0
    1.3233   -0.4869    0.0000 C   0  0  0  0  0  0  0  0  0  0  0  0
    1.8970   -1.8729    0.0000 C   0  0  0  0  0  0  0  0  0  0  0  0
    0.3975   -1.8333    0.0000 C   0  0  0  0  0  0  0  0  0  0  0  0
  2  1  1  6
  2  3  1  0
  3  4  1  0
  4  5  1  0
  5  6  2  0
  5  7  1  0
  7  8  1  0
  8  9  2  0
  9 10  1  0
 10 11  2  0
 11 12  1  0
 12 13  2  0
 12 14  1  0
 11 15  1  0
 15 16  2  0
  2 17  1  0
 17 18  1  6
 18 19  1  0
 20 19  1  6
 20 21  1  0
 21 22  1  1
 22 23  1  6
 22 24  1  0
 25 24  1  1
 25 26  1  0
 26 27  1  0
 27 28  1  1
 27 29  1  0
 29 30  1  0
 30 31  1  0
 31 32  1  6
 31 33  1  0
 33 34  1  6
 34 35  1  0
 35 36  1  0
 36 37  1  6
 16  8  1  0
 36 17  1  0
 36 20  1  0
 33 21  1  0
 31 25  1  0
M  CHG  2  12   1  14  -1
M  END
>  <MS_ID>  (2383) 
MS2468

>  <SMILES>  (2383) 
C[C@H](CCC(=O)Nc1ccc([N+](=O)[O-])cc1)[C@H]1CC[C@H]2[C@@H]3[C@@H](O)C[C@@H]4C[C@H](O)CC[C@]4(C)[C@H]3CC[C@]12C

>  <Structure_dimension>  (2383) 
2D

$$$$
MS2469
     RDKit          2D

 28 31  0  0  0  0  0  0  0  0999 V2000
   -5.0096   -2.1352    0.0000 C   0  0  0  0  0  0  0  0  0  0  0  0
   -3.8132   -1.2303    0.0000 C   0  0  0  0  0  0  0  0  0  0  0  0
   -3.9987    0.2582    0.0000 C   0  0  0  0  0  0  0  0  0  0  0  0
   -5.3805    0.8418    0.0000 C   0  0  0  0  0  0  0  0  0  0  0  0
   -5.5659    2.3303    0.0000 C   0  0  0  0  0  0  0  0  0  0  0  0
   -4.3695    3.2351    0.0000 O   0  0  0  0  0  0  0  0  0  0  0  0
   -6.9477    2.9140    0.0000 O   0  0  0  0  0  0  0  0  0  0  0  0
   -2.4315   -1.8140    0.0000 C   0  0  0  0  0  0  0  0  0  0  0  0
   -2.0914   -3.2749    0.0000 C   0  0  0  0  0  0  0  0  0  0  0  0
   -0.5969   -3.4030    0.0000 C   0  0  0  0  0  0  0  0  0  0  0  0
   -0.0133   -2.0212    0.0000 C   0  0  0  0  0  0  0  0  0  0  0  0
    1.4041   -1.5304    0.0000 C   0  0  0  0  0  0  0  0  0  0  0  0
    2.5379   -2.5125    0.0000 C   0  0  0  0  0  0  0  0  0  0  0  0
    3.9554   -2.0216    0.0000 C   0  0  0  0  0  0  0  0  0  0  0  0
    4.2390   -0.5487    0.0000 C   0  0  0  0  0  0  0  0  0  0  0  0
    5.6564   -0.0578    0.0000 C   0  0  0  0  0  0  0  0  0  0  0  0
    5.9400    1.4151    0.0000 C   0  0  0  0  0  0  0  0  0  0  0  0
    7.3574    1.9060    0.0000 F   0  0  0  0  0  0  0  0  0  0  0  0
    4.8062    2.3972    0.0000 C   0  0  0  0  0  0  0  0  0  0  0  0
    3.3888    1.9064    0.0000 C   0  0  0  0  0  0  0  0  0  0  0  0
    3.1052    0.4334    0.0000 C   0  0  0  0  0  0  0  0  0  0  0  0
    1.9714    1.4155    0.0000 C   0  0  0  0  0  0  0  0  0  0  0  0
    1.6878   -0.0574    0.0000 C   0  0  0  0  0  0  0  0  0  0  0  0
    0.5540    0.9246    0.0000 C   0  0  0  0  0  0  0  0  0  0  0  0
   -0.8635    0.4338    0.0000 C   0  0  0  0  0  0  0  0  0  0  0  0
   -1.9973    1.4159    0.0000 O   0  0  0  0  0  0  0  0  0  0  0  0
   -1.1471   -1.0392    0.0000 C   0  0  0  0  0  0  0  0  0  0  0  0
   -2.3773   -0.1810    0.0000 C   0  0  0  0  0  0  0  0  0  0  0  0
  2  1  1  6
  2  3  1  0
  3  4  1  0
  4  5  1  0
  5  6  2  0
  5  7  1  0
  2  8  1  0
  8  9  1  6
  9 10  1  0
 11 10  1  6
 11 12  1  0
 12 13  1  1
 13 14  1  0
 15 14  1  1
 15 16  1  0
 16 17  1  0
 17 18  1  6
 17 19  1  0
 19 20  1  0
 20 21  1  0
 21 22  1  6
 21 23  1  0
 23 24  1  6
 24 25  1  0
 25 26  1  1
 25 27  1  0
 27 28  1  6
 27  8  1  0
 27 11  1  0
 23 12  1  0
 21 15  1  0
M  END
>  <MS_ID>  (2384) 
MS2469

>  <SMILES>  (2384) 
C[C@H](CCC(=O)O)[C@H]1CC[C@H]2[C@@H]3CC[C@@H]4C[C@@H](F)CC[C@]4(C)[C@H]3C[C@H](O)[C@]12C

>  <Structure_dimension>  (2384) 
2D

$$$$
MS2470
     RDKit          2D

 32 35  0  0  0  0  0  0  0  0999 V2000
   -2.6627   -3.7242    0.0000 C   0  0  0  0  0  0  0  0  0  0  0  0
   -1.8528   -2.4616    0.0000 C   0  0  0  0  0  0  0  0  0  0  0  0
   -2.5413   -1.1289    0.0000 C   0  0  0  0  0  0  0  0  0  0  0  0
   -4.0396   -1.0588    0.0000 C   0  0  0  0  0  0  0  0  0  0  0  0
   -4.7281    0.2738    0.0000 C   0  0  0  0  0  0  0  0  0  0  0  0
   -3.9182    1.5364    0.0000 O   0  0  0  0  0  0  0  0  0  0  0  0
   -6.2265    0.3439    0.0000 N   0  0  0  0  0  0  0  0  0  0  0  0
   -6.9150    1.6766    0.0000 C   0  0  0  0  0  0  0  0  0  0  0  0
   -8.4133    1.7467    0.0000 C   0  0  0  0  0  0  0  0  0  0  0  0
   -9.2232    0.4841    0.0000 O   0  0  0  0  0  0  0  0  0  0  0  0
   -9.1018    3.0794    0.0000 O   0  0  0  0  0  0  0  0  0  0  0  0
   -0.3544   -2.5317    0.0000 C   0  0  0  0  0  0  0  0  0  0  0  0
    0.4696   -3.7851    0.0000 C   0  0  0  0  0  0  0  0  0  0  0  0
    1.9163   -3.3887    0.0000 C   0  0  0  0  0  0  0  0  0  0  0  0
    1.9864   -1.8904    0.0000 C   0  0  0  0  0  0  0  0  0  0  0  0
    3.1468   -0.9399    0.0000 C   0  0  0  0  0  0  0  0  0  0  0  0
    4.5501   -1.4695    0.0000 C   0  0  0  0  0  0  0  0  0  0  0  0
    4.7931   -2.9497    0.0000 O   0  0  0  0  0  0  0  0  0  0  0  0
    5.7105   -0.5190    0.0000 C   0  0  0  0  0  0  0  0  0  0  0  0
    5.4676    0.9612    0.0000 C   0  0  0  0  0  0  0  0  0  0  0  0
    6.6280    1.9117    0.0000 C   0  0  0  0  0  0  0  0  0  0  0  0
    6.3850    3.3919    0.0000 C   0  0  0  0  0  0  0  0  0  0  0  0
    4.9816    3.9216    0.0000 C   0  0  0  0  0  0  0  0  0  0  0  0
    3.8212    2.9710    0.0000 C   0  0  0  0  0  0  0  0  0  0  0  0
    4.0642    1.4909    0.0000 C   0  0  0  0  0  0  0  0  0  0  0  0
    2.6608    2.0205    0.0000 C   0  0  0  0  0  0  0  0  0  0  0  0
    2.9038    0.5403    0.0000 C   0  0  0  0  0  0  0  0  0  0  0  0
    1.5004    1.0700    0.0000 C   0  0  0  0  0  0  0  0  0  0  0  0
    0.3400    0.1195    0.0000 C   0  0  0  0  0  0  0  0  0  0  0  0
   -1.0633    0.6492    0.0000 O   0  0  0  0  0  0  0  0  0  0  0  0
    0.5830   -1.3607    0.0000 C   0  0  0  0  0  0  0  0  0  0  0  0
   -0.8681   -0.9806    0.0000 C   0  0  0  0  0  0  0  0  0  0  0  0
  2  1  1  6
  2  3  1  0
  3  4  1  0
  4  5  1  0
  5  6  2  0
  5  7  1  0
  7  8  1  0
  8  9  1  0
  9 10  2  0
  9 11  1  0
  2 12  1  0
 12 13  1  6
 13 14  1  0
 15 14  1  6
 15 16  1  0
 16 17  1  1
 17 18  1  6
 17 19  1  0
 20 19  1  1
 20 21  1  0
 21 22  1  0
 22 23  1  0
 23 24  1  0
 24 25  1  0
 25 26  1  6
 25 27  1  0
 27 28  1  6
 28 29  1  0
 29 30  1  6
 29 31  1  0
 31 32  1  6
 31 12  1  0
 31 15  1  0
 27 16  1  0
 25 20  1  0
M  END
>  <MS_ID>  (2385) 
MS2470

>  <SMILES>  (2385) 
C[C@H](CCC(=O)NCC(=O)O)[C@H]1CC[C@H]2[C@@H]3[C@@H](O)C[C@@H]4CCCC[C@]4(C)[C@H]3C[C@@H](O)[C@]12C

>  <Structure_dimension>  (2385) 
2D

$$$$
MS2471
     RDKit          2D

 34 37  0  0  0  0  0  0  0  0999 V2000
   -3.2377   -3.3148    0.0000 C   0  0  0  0  0  0  0  0  0  0  0  0
   -2.2716   -2.1674    0.0000 C   0  0  0  0  0  0  0  0  0  0  0  0
   -2.7821   -0.7570    0.0000 C   0  0  0  0  0  0  0  0  0  0  0  0
   -4.2589   -0.4939    0.0000 C   0  0  0  0  0  0  0  0  0  0  0  0
   -4.7695    0.9165    0.0000 C   0  0  0  0  0  0  0  0  0  0  0  0
   -3.8033    2.0639    0.0000 O   0  0  0  0  0  0  0  0  0  0  0  0
   -6.2462    1.1795    0.0000 C   0  0  0  0  0  0  0  0  0  0  0  0
   -6.5093   -0.2972    0.0000 C   0  0  0  0  0  0  0  0  0  0  0  0
   -5.9832    2.6563    0.0000 C   0  0  0  0  0  0  0  0  0  0  0  0
   -7.7230    1.4426    0.0000 C   0  0  0  0  0  0  0  0  0  0  0  0
   -8.2336    2.8530    0.0000 O   0  0  0  0  0  0  0  0  0  0  0  0
   -8.6892    0.2952    0.0000 O   0  0  0  0  0  0  0  0  0  0  0  0
   -0.7948   -2.4304    0.0000 C   0  0  0  0  0  0  0  0  0  0  0  0
   -0.1396   -3.7798    0.0000 C   0  0  0  0  0  0  0  0  0  0  0  0
    1.3462   -3.5736    0.0000 C   0  0  0  0  0  0  0  0  0  0  0  0
    1.6092   -2.0968    0.0000 C   0  0  0  0  0  0  0  0  0  0  0  0
    2.8827   -1.3042    0.0000 C   0  0  0  0  0  0  0  0  0  0  0  0
    4.2059   -2.0107    0.0000 C   0  0  0  0  0  0  0  0  0  0  0  0
    4.2556   -3.5098    0.0000 O   0  0  0  0  0  0  0  0  0  0  0  0
    5.4793   -1.2180    0.0000 C   0  0  0  0  0  0  0  0  0  0  0  0
    5.4296    0.2812    0.0000 C   0  0  0  0  0  0  0  0  0  0  0  0
    6.7030    1.0739    0.0000 C   0  0  0  0  0  0  0  0  0  0  0  0
    6.6533    2.5730    0.0000 C   0  0  0  0  0  0  0  0  0  0  0  0
    7.9267    3.3657    0.0000 O   0  0  0  0  0  0  0  0  0  0  0  0
    5.3301    3.2795    0.0000 C   0  0  0  0  0  0  0  0  0  0  0  0
    4.0566    2.4869    0.0000 C   0  0  0  0  0  0  0  0  0  0  0  0
    4.1064    0.9877    0.0000 C   0  0  0  0  0  0  0  0  0  0  0  0
    2.7832    1.6942    0.0000 C   0  0  0  0  0  0  0  0  0  0  0  0
    2.8329    0.1950    0.0000 C   0  0  0  0  0  0  0  0  0  0  0  0
    1.5097    0.9015    0.0000 C   0  0  0  0  0  0  0  0  0  0  0  0
    0.2363    0.1089    0.0000 C   0  0  0  0  0  0  0  0  0  0  0  0
   -1.0869    0.8154    0.0000 O   0  0  0  0  0  0  0  0  0  0  0  0
    0.2860   -1.3903    0.0000 C   0  0  0  0  0  0  0  0  0  0  0  0
   -1.1038   -0.8260    0.0000 C   0  0  0  0  0  0  0  0  0  0  0  0
  2  1  1  6
  2  3  1  0
  3  4  1  0
  4  5  1  0
  5  6  2  0
  5  7  1  0
  7  8  1  0
  7  9  1  0
  7 10  1  0
 10 11  2  0
 10 12  1  0
  2 13  1  0
 13 14  1  6
 14 15  1  0
 16 15  1  6
 16 17  1  0
 17 18  1  1
 18 19  1  1
 18 20  1  0
 21 20  1  1
 21 22  1  0
 22 23  1  0
 23 24  1  1
 23 25  1  0
 25 26  1  0
 26 27  1  0
 27 28  1  6
 27 29  1  0
 29 30  1  6
 30 31  1  0
 31 32  1  1
 31 33  1  0
 33 34  1  6
 33 13  1  0
 33 16  1  0
 29 17  1  0
 27 21  1  0
M  END
>  <MS_ID>  (2386) 
MS2471

>  <SMILES>  (2386) 
C[C@H](CCC(=O)C(C)(C)C(=O)O)[C@H]1CC[C@H]2[C@@H]3[C@H](O)C[C@@H]4C[C@H](O)CC[C@]4(C)[C@H]3C[C@H](O)[C@]12C

>  <Structure_dimension>  (2386) 
2D

$$$$
MS2472
     RDKit          2D

 37 41  0  0  0  0  0  0  0  0999 V2000
   -1.5359   -4.6421    0.0000 C   0  0  0  0  0  0  0  0  0  0  0  0
   -0.9114   -3.2783    0.0000 C   0  0  0  0  0  0  0  0  0  0  0  0
   -1.7803   -2.0555    0.0000 C   0  0  0  0  0  0  0  0  0  0  0  0
   -3.2736   -2.1966    0.0000 C   0  0  0  0  0  0  0  0  0  0  0  0
   -4.1424   -0.9738    0.0000 C   0  0  0  0  0  0  0  0  0  0  0  0
   -3.5179    0.3900    0.0000 O   0  0  0  0  0  0  0  0  0  0  0  0
   -5.6358   -1.1149    0.0000 O   0  0  0  0  0  0  0  0  0  0  0  0
   -6.5046    0.1079    0.0000 C   0  0  0  0  0  0  0  0  0  0  0  0
   -8.0045    0.1237    0.0000 O   0  0  0  0  0  0  0  0  0  0  0  0
   -8.4530    1.5551    0.0000 C   0  0  0  0  0  0  0  0  0  0  0  0
   -9.8746    2.0336    0.0000 C   0  0  0  0  0  0  0  0  0  0  0  0
   -7.2303    2.4239    0.0000 C   0  0  0  0  0  0  0  0  0  0  0  0
   -7.2144    3.9239    0.0000 O   0  0  0  0  0  0  0  0  0  0  0  0
   -6.0261    1.5295    0.0000 C   0  0  0  0  0  0  0  0  0  0  0  0
   -4.5947    1.9780    0.0000 O   0  0  0  0  0  0  0  0  0  0  0  0
    0.5819   -3.1372    0.0000 C   0  0  0  0  0  0  0  0  0  0  0  0
    1.5738   -4.2624    0.0000 C   0  0  0  0  0  0  0  0  0  0  0  0
    2.9505   -3.6668    0.0000 C   0  0  0  0  0  0  0  0  0  0  0  0
    2.8094   -2.1735    0.0000 C   0  0  0  0  0  0  0  0  0  0  0  0
    3.8248   -1.0694    0.0000 C   0  0  0  0  0  0  0  0  0  0  0  0
    5.2887   -1.3967    0.0000 C   0  0  0  0  0  0  0  0  0  0  0  0
    5.7371   -2.8281    0.0000 O   0  0  0  0  0  0  0  0  0  0  0  0
    6.3041   -0.2926    0.0000 C   0  0  0  0  0  0  0  0  0  0  0  0
    5.8556    1.1388    0.0000 C   0  0  0  0  0  0  0  0  0  0  0  0
    6.8710    2.2428    0.0000 C   0  0  0  0  0  0  0  0  0  0  0  0
    6.4225    3.6742    0.0000 C   0  0  0  0  0  0  0  0  0  0  0  0
    7.4379    4.7783    0.0000 O   0  0  0  0  0  0  0  0  0  0  0  0
    4.9587    4.0016    0.0000 C   0  0  0  0  0  0  0  0  0  0  0  0
    3.9433    2.8975    0.0000 C   0  0  0  0  0  0  0  0  0  0  0  0
    4.3918    1.4661    0.0000 C   0  0  0  0  0  0  0  0  0  0  0  0
    2.9279    1.7934    0.0000 C   0  0  0  0  0  0  0  0  0  0  0  0
    3.3764    0.3620    0.0000 C   0  0  0  0  0  0  0  0  0  0  0  0
    1.9125    0.6893    0.0000 C   0  0  0  0  0  0  0  0  0  0  0  0
    0.8971   -0.4147    0.0000 C   0  0  0  0  0  0  0  0  0  0  0  0
   -0.5667   -0.0874    0.0000 O   0  0  0  0  0  0  0  0  0  0  0  0
    1.3456   -1.8461    0.0000 C   0  0  0  0  0  0  0  0  0  0  0  0
   -0.1445   -1.6736    0.0000 C   0  0  0  0  0  0  0  0  0  0  0  0
  2  1  1  6
  2  3  1  0
  3  4  1  0
  4  5  1  0
  5  6  2  0
  5  7  1  0
  8  7  1  1
  8  9  1  0
  9 10  1  0
 10 11  1  6
 10 12  1  0
 12 13  1  6
 12 14  1  0
 14 15  1  1
  2 16  1  0
 16 17  1  6
 17 18  1  0
 19 18  1  6
 19 20  1  0
 20 21  1  1
 21 22  1  1
 21 23  1  0
 24 23  1  1
 24 25  1  0
 25 26  1  0
 26 27  1  1
 26 28  1  0
 28 29  1  0
 29 30  1  0
 30 31  1  6
 30 32  1  0
 32 33  1  6
 33 34  1  0
 34 35  1  1
 34 36  1  0
 36 37  1  6
 14  8  1  0
 36 16  1  0
 36 19  1  0
 32 20  1  0
 30 24  1  0
M  END
>  <MS_ID>  (2387) 
MS2472

>  <SMILES>  (2387) 
C[C@H](CCC(=O)O[C@H]1O[C@H](C)[C@H](O)[C@H]1O)[C@H]1CC[C@H]2[C@@H]3[C@H](O)C[C@@H]4C[C@H](O)CC[C@]4(C)[C@H]3C[C@H](O)[C@]12C

>  <Structure_dimension>  (2387) 
2D

$$$$
MS2473
     RDKit          2D

 40 44  0  0  0  0  0  0  0  0999 V2000
   -0.3465   -4.2641    0.0000 C   0  0  0  0  0  0  0  0  0  0  0  0
    0.3584   -2.9400    0.0000 C   0  0  0  0  0  0  0  0  0  0  0  0
   -0.4359   -1.6675    0.0000 C   0  0  0  0  0  0  0  0  0  0  0  0
   -1.9350   -1.7191    0.0000 C   0  0  0  0  0  0  0  0  0  0  0  0
   -2.7293   -0.4467    0.0000 C   0  0  0  0  0  0  0  0  0  0  0  0
   -2.0244    0.8774    0.0000 O   0  0  0  0  0  0  0  0  0  0  0  0
   -4.2284   -0.4983    0.0000 O   0  0  0  0  0  0  0  0  0  0  0  0
   -5.0226    0.7742    0.0000 C   0  0  0  0  0  0  0  0  0  0  0  0
   -6.5217    0.7226    0.0000 C   0  0  0  0  0  0  0  0  0  0  0  0
   -7.3160    1.9950    0.0000 O   0  0  0  0  0  0  0  0  0  0  0  0
   -8.8151    1.9434    0.0000 C   0  0  0  0  0  0  0  0  0  0  0  0
   -9.6094    3.2159    0.0000 C   0  0  0  0  0  0  0  0  0  0  0  0
   -8.9045    4.5399    0.0000 O   0  0  0  0  0  0  0  0  0  0  0  0
   -9.5200    0.6193    0.0000 C   0  0  0  0  0  0  0  0  0  0  0  0
  -11.0191    0.5677    0.0000 O   0  0  0  0  0  0  0  0  0  0  0  0
   -8.7257   -0.6531    0.0000 C   0  0  0  0  0  0  0  0  0  0  0  0
   -9.4306   -1.9772    0.0000 O   0  0  0  0  0  0  0  0  0  0  0  0
   -7.2266   -0.6015    0.0000 C   0  0  0  0  0  0  0  0  0  0  0  0
   -6.4323   -1.8740    0.0000 O   0  0  0  0  0  0  0  0  0  0  0  0
    1.8575   -2.8884    0.0000 C   0  0  0  0  0  0  0  0  0  0  0  0
    2.7804   -4.0708    0.0000 C   0  0  0  0  0  0  0  0  0  0  0  0
    4.1902   -3.5585    0.0000 C   0  0  0  0  0  0  0  0  0  0  0  0
    4.1386   -2.0594    0.0000 C   0  0  0  0  0  0  0  0  0  0  0  0
    5.2181   -1.0179    0.0000 C   0  0  0  0  0  0  0  0  0  0  0  0
    6.6598   -1.4321    0.0000 C   0  0  0  0  0  0  0  0  0  0  0  0
    7.0219   -2.8877    0.0000 O   0  0  0  0  0  0  0  0  0  0  0  0
    7.7393   -0.3906    0.0000 C   0  0  0  0  0  0  0  0  0  0  0  0
    7.3771    1.0650    0.0000 C   0  0  0  0  0  0  0  0  0  0  0  0
    8.4566    2.1065    0.0000 C   0  0  0  0  0  0  0  0  0  0  0  0
    8.0945    3.5621    0.0000 C   0  0  0  0  0  0  0  0  0  0  0  0
    9.1740    4.6036    0.0000 O   0  0  0  0  0  0  0  0  0  0  0  0
    6.6528    3.9763    0.0000 C   0  0  0  0  0  0  0  0  0  0  0  0
    5.5733    2.9348    0.0000 C   0  0  0  0  0  0  0  0  0  0  0  0
    5.9354    1.4792    0.0000 C   0  0  0  0  0  0  0  0  0  0  0  0
    4.4937    1.8933    0.0000 C   0  0  0  0  0  0  0  0  0  0  0  0
    4.8559    0.4377    0.0000 C   0  0  0  0  0  0  0  0  0  0  0  0
    3.4142    0.8519    0.0000 C   0  0  0  0  0  0  0  0  0  0  0  0
    2.3347   -0.1896    0.0000 C   0  0  0  0  0  0  0  0  0  0  0  0
    2.6969   -1.6452    0.0000 C   0  0  0  0  0  0  0  0  0  0  0  0
    1.2198   -1.3840    0.0000 C   0  0  0  0  0  0  0  0  0  0  0  0
  2  1  1  6
  2  3  1  0
  3  4  1  0
  4  5  1  0
  5  6  2  0
  5  7  1  0
  7  8  1  0
  9  8  1  6
  9 10  1  0
 10 11  1  0
 11 12  1  6
 12 13  1  0
 11 14  1  0
 14 15  1  1
 14 16  1  0
 16 17  1  6
 16 18  1  0
 18 19  1  1
  2 20  1  0
 20 21  1  6
 21 22  1  0
 23 22  1  6
 23 24  1  0
 24 25  1  1
 25 26  1  1
 25 27  1  0
 28 27  1  1
 28 29  1  0
 29 30  1  0
 30 31  1  1
 30 32  1  0
 32 33  1  0
 33 34  1  0
 34 35  1  6
 34 36  1  0
 36 37  1  6
 37 38  1  0
 38 39  1  0
 39 40  1  6
 18  9  1  0
 39 20  1  0
 39 23  1  0
 36 24  1  0
 34 28  1  0
M  END
>  <MS_ID>  (2388) 
MS2473

>  <SMILES>  (2388) 
C[C@H](CCC(=O)OC[C@H]1O[C@@H](CO)[C@H](O)[C@@H](O)[C@@H]1O)[C@H]1CC[C@H]2[C@@H]3[C@H](O)C[C@@H]4C[C@H](O)CC[C@]4(C)[C@H]3CC[C@]12C

>  <Structure_dimension>  (2388) 
2D

$$$$
MS2474
     RDKit          2D

 32 35  0  0  0  0  0  0  0  0999 V2000
   -4.3470   -2.7602    0.0000 C   0  0  0  0  0  0  0  0  0  0  0  0
   -3.3472   -1.6419    0.0000 C   0  0  0  0  0  0  0  0  0  0  0  0
   -3.8158   -0.2170    0.0000 C   0  0  0  0  0  0  0  0  0  0  0  0
   -5.2841    0.0897    0.0000 C   0  0  0  0  0  0  0  0  0  0  0  0
   -5.7526    1.5146    0.0000 C   0  0  0  0  0  0  0  0  0  0  0  0
   -4.7529    2.6329    0.0000 O   0  0  0  0  0  0  0  0  0  0  0  0
   -7.2209    1.8214    0.0000 N   0  0  0  0  0  0  0  0  0  0  0  0
   -7.6895    3.2463    0.0000 C   0  0  0  0  0  0  0  0  0  0  0  0
   -8.2207    0.7031    0.0000 C   0  0  0  0  0  0  0  0  0  0  0  0
   -1.8789   -1.9486    0.0000 C   0  0  0  0  0  0  0  0  0  0  0  0
   -1.2640   -3.3168    0.0000 C   0  0  0  0  0  0  0  0  0  0  0  0
    0.2272   -3.1548    0.0000 C   0  0  0  0  0  0  0  0  0  0  0  0
    0.5339   -1.6865    0.0000 C   0  0  0  0  0  0  0  0  0  0  0  0
    1.8303   -0.9319    0.0000 C   0  0  0  0  0  0  0  0  0  0  0  0
    3.1320   -1.6773    0.0000 C   0  0  0  0  0  0  0  0  0  0  0  0
    3.1373   -3.1773    0.0000 C   0  0  0  0  0  0  0  0  0  0  0  0
    1.8409   -3.9319    0.0000 O   0  0  0  0  0  0  0  0  0  0  0  0
    4.4389   -3.9227    0.0000 O   0  0  0  0  0  0  0  0  0  0  0  0
    4.4284   -0.9227    0.0000 C   0  0  0  0  0  0  0  0  0  0  0  0
    4.4231    0.5772    0.0000 C   0  0  0  0  0  0  0  0  0  0  0  0
    5.7195    1.3318    0.0000 C   0  0  0  0  0  0  0  0  0  0  0  0
    5.7142    2.8318    0.0000 C   0  0  0  0  0  0  0  0  0  0  0  0
    7.0106    3.5864    0.0000 O   0  0  0  0  0  0  0  0  0  0  0  0
    4.4125    3.5772    0.0000 C   0  0  0  0  0  0  0  0  0  0  0  0
    3.1162    2.8227    0.0000 C   0  0  0  0  0  0  0  0  0  0  0  0
    3.1214    1.3227    0.0000 C   0  0  0  0  0  0  0  0  0  0  0  0
    1.8198    2.0681    0.0000 C   0  0  0  0  0  0  0  0  0  0  0  0
    1.8250    0.5681    0.0000 C   0  0  0  0  0  0  0  0  0  0  0  0
    0.5234    1.3135    0.0000 C   0  0  0  0  0  0  0  0  0  0  0  0
   -0.7730    0.5590    0.0000 C   0  0  0  0  0  0  0  0  0  0  0  0
   -0.7677   -0.9410    0.0000 C   0  0  0  0  0  0  0  0  0  0  0  0
   -2.1402   -0.3358    0.0000 C   0  0  0  0  0  0  0  0  0  0  0  0
  2  1  1  6
  2  3  1  0
  3  4  1  0
  4  5  1  0
  5  6  2  0
  5  7  1  0
  7  8  1  0
  7  9  1  0
  2 10  1  0
 10 11  1  6
 11 12  1  0
 13 12  1  6
 13 14  1  0
 14 15  1  1
 15 16  1  1
 16 17  2  0
 16 18  1  0
 15 19  1  0
 20 19  1  1
 20 21  1  0
 21 22  1  0
 22 23  1  1
 22 24  1  0
 24 25  1  0
 25 26  1  0
 26 27  1  6
 26 28  1  0
 28 29  1  6
 29 30  1  0
 30 31  1  0
 31 32  1  6
 31 10  1  0
 31 13  1  0
 28 14  1  0
 26 20  1  0
M  END
>  <MS_ID>  (2389) 
MS2474

>  <SMILES>  (2389) 
C[C@H](CCC(=O)N(C)C)[C@H]1CC[C@H]2[C@@H]3[C@H](C(=O)O)C[C@@H]4C[C@H](O)CC[C@]4(C)[C@H]3CC[C@]12C

>  <Structure_dimension>  (2389) 
2D

$$$$
MS2475
     RDKit          2D

 34 38  0  0  0  0  0  0  0  0999 V2000
   -2.8489   -4.1271    0.0000 C   0  0  0  0  0  0  0  0  0  0  0  0
   -2.0902   -2.8331    0.0000 C   0  0  0  0  0  0  0  0  0  0  0  0
   -2.8315   -1.5291    0.0000 C   0  0  0  0  0  0  0  0  0  0  0  0
   -4.3315   -1.5191    0.0000 C   0  0  0  0  0  0  0  0  0  0  0  0
   -5.0728   -0.2151    0.0000 C   0  0  0  0  0  0  0  0  0  0  0  0
   -4.3141    1.0789    0.0000 O   0  0  0  0  0  0  0  0  0  0  0  0
   -6.5727   -0.2050    0.0000 N   0  0  0  0  0  0  0  0  0  0  0  0
   -7.3140    1.0990    0.0000 C   0  0  0  0  0  0  0  0  0  0  0  0
   -8.8047    1.2657    0.0000 C   0  0  0  0  0  0  0  0  0  0  0  0
   -9.1068    2.7350    0.0000 C   0  0  0  0  0  0  0  0  0  0  0  0
   -7.8028    3.4763    0.0000 C   0  0  0  0  0  0  0  0  0  0  0  0
   -6.6948    2.4652    0.0000 O   0  0  0  0  0  0  0  0  0  0  0  0
   -0.5902   -2.8432    0.0000 C   0  0  0  0  0  0  0  0  0  0  0  0
    0.2833   -4.0625    0.0000 C   0  0  0  0  0  0  0  0  0  0  0  0
    1.7130   -3.6086    0.0000 C   0  0  0  0  0  0  0  0  0  0  0  0
    1.7230   -2.1086    0.0000 C   0  0  0  0  0  0  0  0  0  0  0  0
    2.8444   -1.1124    0.0000 C   0  0  0  0  0  0  0  0  0  0  0  0
    4.2678   -1.5854    0.0000 C   0  0  0  0  0  0  0  0  0  0  0  0
    4.5699   -3.0547    0.0000 O   0  0  0  0  0  0  0  0  0  0  0  0
    5.3892   -0.5892    0.0000 C   0  0  0  0  0  0  0  0  0  0  0  0
    6.8127   -1.0622    0.0000 O   0  0  0  0  0  0  0  0  0  0  0  0
    5.0872    0.8801    0.0000 C   0  0  0  0  0  0  0  0  0  0  0  0
    6.2086    1.8763    0.0000 C   0  0  0  0  0  0  0  0  0  0  0  0
    5.9065    3.3456    0.0000 C   0  0  0  0  0  0  0  0  0  0  0  0
    7.0279    4.3418    0.0000 O   0  0  0  0  0  0  0  0  0  0  0  0
    4.4831    3.8186    0.0000 C   0  0  0  0  0  0  0  0  0  0  0  0
    3.3617    2.8224    0.0000 C   0  0  0  0  0  0  0  0  0  0  0  0
    3.6637    1.3531    0.0000 C   0  0  0  0  0  0  0  0  0  0  0  0
    2.2403    1.8262    0.0000 C   0  0  0  0  0  0  0  0  0  0  0  0
    2.5423    0.3569    0.0000 C   0  0  0  0  0  0  0  0  0  0  0  0
    1.1189    0.8299    0.0000 C   0  0  0  0  0  0  0  0  0  0  0  0
   -0.0025   -0.1663    0.0000 C   0  0  0  0  0  0  0  0  0  0  0  0
    0.2995   -1.6355    0.0000 C   0  0  0  0  0  0  0  0  0  0  0  0
   -1.1656   -1.3139    0.0000 C   0  0  0  0  0  0  0  0  0  0  0  0
  2  1  1  6
  2  3  1  0
  3  4  1  0
  4  5  1  0
  5  6  2  0
  5  7  1  0
  7  8  1  0
  8  9  2  0
  9 10  1  0
 10 11  2  0
 11 12  1  0
  2 13  1  0
 13 14  1  6
 14 15  1  0
 16 15  1  6
 16 17  1  0
 17 18  1  1
 18 19  1  1
 18 20  1  0
 20 21  1  1
 20 22  1  0
 22 23  1  1
 23 24  1  0
 24 25  1  1
 24 26  1  0
 26 27  1  0
 27 28  1  0
 28 29  1  6
 28 30  1  0
 30 31  1  6
 31 32  1  0
 32 33  1  0
 33 34  1  6
 12  8  1  0
 33 13  1  0
 33 16  1  0
 30 17  1  0
 28 22  1  0
M  END
>  <MS_ID>  (2390) 
MS2475

>  <SMILES>  (2390) 
C[C@H](CCC(=O)Nc1ccco1)[C@H]1CC[C@H]2[C@@H]3[C@H](O)[C@H](O)[C@@H]4C[C@H](O)CC[C@]4(C)[C@H]3CC[C@]12C

>  <Structure_dimension>  (2390) 
2D

$$$$
MS2476
     RDKit          2D

 30 33  0  0  0  0  0  0  0  0999 V2000
   -4.3209   -2.7536    0.0000 C   0  0  0  0  0  0  0  0  0  0  0  0
   -3.2523   -1.7010    0.0000 C   0  0  0  0  0  0  0  0  0  0  0  0
   -3.6295   -0.2492    0.0000 C   0  0  0  0  0  0  0  0  0  0  0  0
   -5.0755    0.1499    0.0000 C   0  0  0  0  0  0  0  0  0  0  0  0
   -5.4527    1.6017    0.0000 C   0  0  0  0  0  0  0  0  0  0  0  0
   -4.3841    2.6543    0.0000 O   0  0  0  0  0  0  0  0  0  0  0  0
   -6.8987    2.0009    0.0000 N   0  0  0  0  0  0  0  0  0  0  0  0
   -7.2759    3.4526    0.0000 C   0  0  0  0  0  0  0  0  0  0  0  0
   -7.9673    0.9482    0.0000 C   0  0  0  0  0  0  0  0  0  0  0  0
   -1.8064   -2.1002    0.0000 C   0  0  0  0  0  0  0  0  0  0  0  0
   -1.2794   -3.5046    0.0000 C   0  0  0  0  0  0  0  0  0  0  0  0
    0.2191   -3.4374    0.0000 C   0  0  0  0  0  0  0  0  0  0  0  0
    0.6183   -1.9915    0.0000 C   0  0  0  0  0  0  0  0  0  0  0  0
    1.9599   -1.3206    0.0000 C   0  0  0  0  0  0  0  0  0  0  0  0
    3.2117   -2.1470    0.0000 C   0  0  0  0  0  0  0  0  0  0  0  0
    3.1219   -3.6443    0.0000 O   0  0  0  0  0  0  0  0  0  0  0  0
    4.5533   -1.4762    0.0000 C   0  0  0  0  0  0  0  0  0  0  0  0
    4.6431    0.0211    0.0000 C   0  0  0  0  0  0  0  0  0  0  0  0
    5.9847    0.6920    0.0000 C   0  0  0  0  0  0  0  0  0  0  0  0
    6.0745    2.1893    0.0000 C   0  0  0  0  0  0  0  0  0  0  0  0
    7.4161    2.8602    0.0000 O   0  0  0  0  0  0  0  0  0  0  0  0
    4.8227    3.0158    0.0000 C   0  0  0  0  0  0  0  0  0  0  0  0
    3.4811    2.3449    0.0000 C   0  0  0  0  0  0  0  0  0  0  0  0
    3.3913    0.8476    0.0000 C   0  0  0  0  0  0  0  0  0  0  0  0
    2.1395    1.6740    0.0000 C   0  0  0  0  0  0  0  0  0  0  0  0
    2.0497    0.1767    0.0000 C   0  0  0  0  0  0  0  0  0  0  0  0
    0.7979    1.0031    0.0000 C   0  0  0  0  0  0  0  0  0  0  0  0
   -0.5437    0.3323    0.0000 C   0  0  0  0  0  0  0  0  0  0  0  0
   -0.6335   -1.1650    0.0000 C   0  0  0  0  0  0  0  0  0  0  0  0
   -1.9649   -0.4740    0.0000 C   0  0  0  0  0  0  0  0  0  0  0  0
  2  1  1  6
  2  3  1  0
  3  4  1  0
  4  5  1  0
  5  6  2  0
  5  7  1  0
  7  8  1  0
  7  9  1  0
  2 10  1  0
 10 11  1  6
 11 12  1  0
 13 12  1  6
 13 14  1  0
 14 15  1  1
 15 16  1  1
 15 17  1  0
 18 17  1  1
 18 19  1  0
 19 20  1  0
 20 21  2  0
 20 22  1  0
 22 23  1  0
 23 24  1  0
 24 25  1  6
 24 26  1  0
 26 27  1  6
 27 28  1  0
 28 29  1  0
 29 30  1  6
 29 10  1  0
 29 13  1  0
 26 14  1  0
 24 18  1  0
M  END
>  <MS_ID>  (2391) 
MS2476

>  <SMILES>  (2391) 
C[C@H](CCC(=O)N(C)C)[C@H]1CC[C@H]2[C@@H]3[C@H](O)C[C@@H]4CC(=O)CC[C@]4(C)[C@H]3CC[C@]12C

>  <Structure_dimension>  (2391) 
2D

$$$$
MS2477
     RDKit          2D

 35 39  0  0  0  0  0  0  0  0999 V2000
   -2.2319   -4.3352    0.0000 C   0  0  0  0  0  0  0  0  0  0  0  0
   -1.5144   -3.0180    0.0000 C   0  0  0  0  0  0  0  0  0  0  0  0
   -2.2965   -1.7380    0.0000 C   0  0  0  0  0  0  0  0  0  0  0  0
   -3.7960   -1.7752    0.0000 C   0  0  0  0  0  0  0  0  0  0  0  0
   -4.5781   -0.4952    0.0000 C   0  0  0  0  0  0  0  0  0  0  0  0
   -3.8606    0.8220    0.0000 O   0  0  0  0  0  0  0  0  0  0  0  0
   -6.0776   -0.5325    0.0000 O   0  0  0  0  0  0  0  0  0  0  0  0
   -6.8597    0.7475    0.0000 C   0  0  0  0  0  0  0  0  0  0  0  0
   -6.1422    2.0648    0.0000 C   0  0  0  0  0  0  0  0  0  0  0  0
   -6.9242    3.3448    0.0000 C   0  0  0  0  0  0  0  0  0  0  0  0
   -8.4238    3.3075    0.0000 C   0  0  0  0  0  0  0  0  0  0  0  0
   -9.1412    1.9902    0.0000 N   0  0  0  0  0  0  0  0  0  0  0  0
   -8.3592    0.7102    0.0000 C   0  0  0  0  0  0  0  0  0  0  0  0
   -0.0149   -2.9807    0.0000 C   0  0  0  0  0  0  0  0  0  0  0  0
    0.8967   -4.1719    0.0000 C   0  0  0  0  0  0  0  0  0  0  0  0
    2.3113   -3.6731    0.0000 C   0  0  0  0  0  0  0  0  0  0  0  0
    2.2740   -2.1736    0.0000 C   0  0  0  0  0  0  0  0  0  0  0  0
    3.3634   -1.1425    0.0000 C   0  0  0  0  0  0  0  0  0  0  0  0
    4.8011   -1.5704    0.0000 C   0  0  0  0  0  0  0  0  0  0  0  0
    5.1493   -3.0294    0.0000 O   0  0  0  0  0  0  0  0  0  0  0  0
    5.8905   -0.5393    0.0000 C   0  0  0  0  0  0  0  0  0  0  0  0
    5.5423    0.9197    0.0000 C   0  0  0  0  0  0  0  0  0  0  0  0
    6.6317    1.9508    0.0000 C   0  0  0  0  0  0  0  0  0  0  0  0
    6.2835    3.4098    0.0000 C   0  0  0  0  0  0  0  0  0  0  0  0
    7.3729    4.4409    0.0000 O   0  0  0  0  0  0  0  0  0  0  0  0
    4.8458    3.8377    0.0000 C   0  0  0  0  0  0  0  0  0  0  0  0
    3.7564    2.8066    0.0000 C   0  0  0  0  0  0  0  0  0  0  0  0
    4.1046    1.3476    0.0000 C   0  0  0  0  0  0  0  0  0  0  0  0
    2.6670    1.7755    0.0000 C   0  0  0  0  0  0  0  0  0  0  0  0
    3.0152    0.3165    0.0000 C   0  0  0  0  0  0  0  0  0  0  0  0
    1.5776    0.7445    0.0000 C   0  0  0  0  0  0  0  0  0  0  0  0
    0.4881   -0.2866    0.0000 C   0  0  0  0  0  0  0  0  0  0  0  0
   -0.9495    0.1413    0.0000 O   0  0  0  0  0  0  0  0  0  0  0  0
    0.8363   -1.7456    0.0000 C   0  0  0  0  0  0  0  0  0  0  0  0
   -0.6382   -1.4703    0.0000 C   0  0  0  0  0  0  0  0  0  0  0  0
  2  1  1  6
  2  3  1  0
  3  4  1  0
  4  5  1  0
  5  6  2  0
  5  7  1  0
  7  8  1  0
  8  9  2  0
  9 10  1  0
 10 11  2  0
 11 12  1  0
 12 13  2  0
  2 14  1  0
 14 15  1  6
 15 16  1  0
 17 16  1  6
 17 18  1  0
 18 19  1  1
 19 20  1  1
 19 21  1  0
 22 21  1  1
 22 23  1  0
 23 24  1  0
 24 25  1  1
 24 26  1  0
 26 27  1  0
 27 28  1  0
 28 29  1  6
 28 30  1  0
 30 31  1  6
 31 32  1  0
 32 33  1  1
 32 34  1  0
 34 35  1  6
 13  8  1  0
 34 14  1  0
 34 17  1  0
 30 18  1  0
 28 22  1  0
M  END
>  <MS_ID>  (2392) 
MS2477

>  <SMILES>  (2392) 
C[C@H](CCC(=O)Oc1cccnc1)[C@H]1CC[C@H]2[C@@H]3[C@H](O)C[C@@H]4C[C@H](O)CC[C@]4(C)[C@H]3C[C@H](O)[C@]12C

>  <Structure_dimension>  (2392) 
2D

$$$$
MS2478
     RDKit          2D

 36 39  0  0  0  0  0  0  0  0999 V2000
   -7.6142   -2.0775    0.0000 C   0  0  0  0  0  0  0  0  0  0  0  0
   -6.3918   -1.2081    0.0000 C   0  0  0  0  0  0  0  0  0  0  0  0
   -6.5336    0.2852    0.0000 C   0  0  0  0  0  0  0  0  0  0  0  0
   -7.8977    0.9090    0.0000 C   0  0  0  0  0  0  0  0  0  0  0  0
   -8.0395    2.4023    0.0000 C   0  0  0  0  0  0  0  0  0  0  0  0
   -6.8172    3.2717    0.0000 O   0  0  0  0  0  0  0  0  0  0  0  0
   -9.4036    3.0262    0.0000 O   0  0  0  0  0  0  0  0  0  0  0  0
   -5.0277   -1.8320    0.0000 C   0  0  0  0  0  0  0  0  0  0  0  0
   -4.7306   -3.3022    0.0000 C   0  0  0  0  0  0  0  0  0  0  0  0
   -3.2405   -3.4740    0.0000 C   0  0  0  0  0  0  0  0  0  0  0  0
   -2.6166   -2.1099    0.0000 C   0  0  0  0  0  0  0  0  0  0  0  0
   -1.1855   -1.6607    0.0000 C   0  0  0  0  0  0  0  0  0  0  0  0
   -0.0809   -2.6756    0.0000 C   0  0  0  0  0  0  0  0  0  0  0  0
    1.3503   -2.2264    0.0000 C   0  0  0  0  0  0  0  0  0  0  0  0
    1.6769   -0.7624    0.0000 C   0  0  0  0  0  0  0  0  0  0  0  0
    3.1080   -0.3133    0.0000 C   0  0  0  0  0  0  0  0  0  0  0  0
    3.4346    1.1508    0.0000 C   0  0  0  0  0  0  0  0  0  0  0  0
    4.8658    1.5999    0.0000 C   0  0  0  0  0  0  0  0  0  0  0  0
    5.1924    3.0639    0.0000 O   0  0  0  0  0  0  0  0  0  0  0  0
    5.9704    0.5851    0.0000 N   0  0  0  0  0  0  0  0  0  0  0  0
    7.4016    1.0342    0.0000 C   0  0  0  0  0  0  0  0  0  0  0  0
    8.5061    0.0194    0.0000 C   0  0  0  0  0  0  0  0  0  0  0  0
    9.9373    0.4685    0.0000 C   0  0  0  0  0  0  0  0  0  0  0  0
   11.0419   -0.5463    0.0000 C   0  0  0  0  0  0  0  0  0  0  0  0
   10.7153   -2.0103    0.0000 O   0  0  0  0  0  0  0  0  0  0  0  0
   12.4731   -0.0972    0.0000 O   0  0  0  0  0  0  0  0  0  0  0  0
    2.3301    2.1656    0.0000 C   0  0  0  0  0  0  0  0  0  0  0  0
    0.8989    1.7164    0.0000 C   0  0  0  0  0  0  0  0  0  0  0  0
    0.5723    0.2524    0.0000 C   0  0  0  0  0  0  0  0  0  0  0  0
   -0.5323    1.2673    0.0000 C   0  0  0  0  0  0  0  0  0  0  0  0
   -0.8589   -0.1967    0.0000 C   0  0  0  0  0  0  0  0  0  0  0  0
   -1.9634    0.8181    0.0000 C   0  0  0  0  0  0  0  0  0  0  0  0
   -3.3946    0.3690    0.0000 C   0  0  0  0  0  0  0  0  0  0  0  0
   -4.4992    1.3838    0.0000 O   0  0  0  0  0  0  0  0  0  0  0  0
   -3.7212   -1.0950    0.0000 C   0  0  0  0  0  0  0  0  0  0  0  0
   -4.9258   -0.2012    0.0000 C   0  0  0  0  0  0  0  0  0  0  0  0
  2  1  1  6
  2  3  1  0
  3  4  1  0
  4  5  1  0
  5  6  2  0
  5  7  1  0
  2  8  1  0
  8  9  1  6
  9 10  1  0
 11 10  1  6
 11 12  1  0
 12 13  1  1
 13 14  1  0
 15 14  1  1
 15 16  1  0
 16 17  1  0
 17 18  1  1
 18 19  2  0
 18 20  1  0
 20 21  1  0
 21 22  1  0
 22 23  1  0
 23 24  1  0
 24 25  2  0
 24 26  1  0
 17 27  1  0
 27 28  1  0
 28 29  1  0
 29 30  1  6
 29 31  1  0
 31 32  1  6
 32 33  1  0
 33 34  1  1
 33 35  1  0
 35 36  1  6
 35  8  1  0
 35 11  1  0
 31 12  1  0
 29 15  1  0
M  END
>  <MS_ID>  (2393) 
MS2478

>  <SMILES>  (2393) 
C[C@H](CCC(=O)O)[C@H]1CC[C@H]2[C@@H]3CC[C@@H]4C[C@H](C(=O)NCCCC(=O)O)CC[C@]4(C)[C@H]3C[C@H](O)[C@]12C

>  <Structure_dimension>  (2393) 
2D

$$$$
MS2479
     RDKit          2D

 30 33  0  0  0  0  0  0  0  0999 V2000
   -8.6575    3.2831    0.0000 C   0  0  0  0  0  0  0  0  0  0  0  0
   -7.1981    2.9366    0.0000 C   0  0  0  0  0  0  0  0  0  0  0  0
   -6.7684    1.4995    0.0000 O   0  0  0  0  0  0  0  0  0  0  0  0
   -5.3090    1.1530    0.0000 C   0  0  0  0  0  0  0  0  0  0  0  0
   -4.2792    2.2437    0.0000 O   0  0  0  0  0  0  0  0  0  0  0  0
   -4.8793   -0.2841    0.0000 C   0  0  0  0  0  0  0  0  0  0  0  0
   -3.4199   -0.6306    0.0000 C   0  0  0  0  0  0  0  0  0  0  0  0
   -2.9902   -2.0677    0.0000 C   0  0  0  0  0  0  0  0  0  0  0  0
   -4.0199   -3.1584    0.0000 C   0  0  0  0  0  0  0  0  0  0  0  0
   -1.5307   -2.4142    0.0000 C   0  0  0  0  0  0  0  0  0  0  0  0
   -0.9532   -3.7985    0.0000 C   0  0  0  0  0  0  0  0  0  0  0  0
    0.5419   -3.6770    0.0000 C   0  0  0  0  0  0  0  0  0  0  0  0
    0.8883   -2.2176    0.0000 C   0  0  0  0  0  0  0  0  0  0  0  0
    2.2047   -1.4985    0.0000 C   0  0  0  0  0  0  0  0  0  0  0  0
    3.4857   -2.2790    0.0000 C   0  0  0  0  0  0  0  0  0  0  0  0
    4.8021   -1.5599    0.0000 C   0  0  0  0  0  0  0  0  0  0  0  0
    4.8375   -0.0603    0.0000 C   0  0  0  0  0  0  0  0  0  0  0  0
    6.1539    0.6588    0.0000 C   0  0  0  0  0  0  0  0  0  0  0  0
    6.1894    2.1583    0.0000 C   0  0  0  0  0  0  0  0  0  0  0  0
    7.5058    2.8774    0.0000 O   0  0  0  0  0  0  0  0  0  0  0  0
    4.9084    2.9388    0.0000 C   0  0  0  0  0  0  0  0  0  0  0  0
    3.5920    2.2197    0.0000 C   0  0  0  0  0  0  0  0  0  0  0  0
    3.5566    0.7202    0.0000 C   0  0  0  0  0  0  0  0  0  0  0  0
    2.2756    1.5007    0.0000 C   0  0  0  0  0  0  0  0  0  0  0  0
    2.2402    0.0011    0.0000 C   0  0  0  0  0  0  0  0  0  0  0  0
    0.9592    0.7816    0.0000 C   0  0  0  0  0  0  0  0  0  0  0  0
   -0.3572    0.0625    0.0000 C   0  0  0  0  0  0  0  0  0  0  0  0
   -1.6381    0.8430    0.0000 O   0  0  0  0  0  0  0  0  0  0  0  0
   -0.3926   -1.4371    0.0000 C   0  0  0  0  0  0  0  0  0  0  0  0
   -1.7481   -0.7948    0.0000 C   0  0  0  0  0  0  0  0  0  0  0  0
  1  2  1  0
  2  3  1  0
  3  4  1  0
  4  5  2  0
  4  6  1  0
  6  7  1  0
  7  8  1  0
  8  9  1  6
  8 10  1  0
 10 11  1  6
 11 12  1  0
 13 12  1  6
 13 14  1  0
 14 15  1  1
 15 16  1  0
 17 16  1  1
 17 18  1  0
 18 19  1  0
 19 20  1  6
 19 21  1  0
 21 22  1  0
 22 23  1  0
 23 24  1  6
 23 25  1  0
 25 26  1  6
 26 27  1  0
 27 28  1  6
 27 29  1  0
 29 30  1  6
 29 10  1  0
 29 13  1  0
 25 14  1  0
 23 17  1  0
M  END
>  <MS_ID>  (2394) 
MS2479

>  <SMILES>  (2394) 
CCOC(=O)CC[C@@H](C)[C@H]1CC[C@H]2[C@@H]3CC[C@@H]4C[C@@H](O)CC[C@]4(C)[C@H]3C[C@@H](O)[C@]12C

>  <Structure_dimension>  (2394) 
2D

$$$$
MS2480
     RDKit          2D

 31 34  0  0  0  0  0  0  0  0999 V2000
   -5.7175   -1.8176    0.0000 C   0  0  0  0  0  0  0  0  0  0  0  0
   -4.4708   -0.9835    0.0000 C   0  0  0  0  0  0  0  0  0  0  0  0
   -4.5698    0.5132    0.0000 C   0  0  0  0  0  0  0  0  0  0  0  0
   -5.9155    1.1758    0.0000 C   0  0  0  0  0  0  0  0  0  0  0  0
   -6.0145    2.6726    0.0000 C   0  0  0  0  0  0  0  0  0  0  0  0
   -4.7678    3.5067    0.0000 O   0  0  0  0  0  0  0  0  0  0  0  0
   -7.3602    3.3352    0.0000 O   0  0  0  0  0  0  0  0  0  0  0  0
   -3.1251   -1.6462    0.0000 C   0  0  0  0  0  0  0  0  0  0  0  0
   -2.8701   -3.1243    0.0000 C   0  0  0  0  0  0  0  0  0  0  0  0
   -1.3855   -3.3387    0.0000 C   0  0  0  0  0  0  0  0  0  0  0  0
   -0.7229   -1.9930    0.0000 C   0  0  0  0  0  0  0  0  0  0  0  0
    0.7205   -1.5850    0.0000 C   0  0  0  0  0  0  0  0  0  0  0  0
    1.7956   -2.6310    0.0000 C   0  0  0  0  0  0  0  0  0  0  0  0
    1.4272   -4.0851    0.0000 O   0  0  0  0  0  0  0  0  0  0  0  0
    3.2390   -2.2230    0.0000 C   0  0  0  0  0  0  0  0  0  0  0  0
    3.6074   -0.7689    0.0000 C   0  0  0  0  0  0  0  0  0  0  0  0
    5.0508   -0.3609    0.0000 C   0  0  0  0  0  0  0  0  0  0  0  0
    5.4192    1.0932    0.0000 C   0  0  0  0  0  0  0  0  0  0  0  0
    6.8626    1.5012    0.0000 N   0  0  0  0  0  0  0  0  0  0  0  0
    7.9377    0.4551    0.0000 C   0  0  0  0  0  0  0  0  0  0  0  0
    7.2310    2.9552    0.0000 C   0  0  0  0  0  0  0  0  0  0  0  0
    4.3441    2.1392    0.0000 C   0  0  0  0  0  0  0  0  0  0  0  0
    2.9007    1.7312    0.0000 C   0  0  0  0  0  0  0  0  0  0  0  0
    2.5323    0.2771    0.0000 C   0  0  0  0  0  0  0  0  0  0  0  0
    1.4572    1.3232    0.0000 C   0  0  0  0  0  0  0  0  0  0  0  0
    1.0889   -0.1309    0.0000 C   0  0  0  0  0  0  0  0  0  0  0  0
    0.0138    0.9151    0.0000 C   0  0  0  0  0  0  0  0  0  0  0  0
   -1.4296    0.5071    0.0000 C   0  0  0  0  0  0  0  0  0  0  0  0
   -2.5047    1.5532    0.0000 O   0  0  0  0  0  0  0  0  0  0  0  0
   -1.7980   -0.9470    0.0000 C   0  0  0  0  0  0  0  0  0  0  0  0
   -2.9765   -0.0190    0.0000 C   0  0  0  0  0  0  0  0  0  0  0  0
  2  1  1  6
  2  3  1  0
  3  4  1  0
  4  5  1  0
  5  6  2  0
  5  7  1  0
  2  8  1  0
  8  9  1  6
  9 10  1  0
 11 10  1  6
 11 12  1  0
 12 13  1  1
 13 14  1  6
 13 15  1  0
 16 15  1  1
 16 17  1  0
 17 18  1  0
 18 19  1  6
 19 20  1  0
 19 21  1  0
 18 22  1  0
 22 23  1  0
 23 24  1  0
 24 25  1  6
 24 26  1  0
 26 27  1  6
 27 28  1  0
 28 29  1  6
 28 30  1  0
 30 31  1  6
 30  8  1  0
 30 11  1  0
 26 12  1  0
 24 16  1  0
M  END
>  <MS_ID>  (2395) 
MS2480

>  <SMILES>  (2395) 
C[C@H](CCC(=O)O)[C@H]1CC[C@H]2[C@@H]3[C@@H](O)C[C@@H]4C[C@@H](N(C)C)CC[C@]4(C)[C@H]3C[C@@H](O)[C@]12C

>  <Structure_dimension>  (2395) 
2D

$$$$
MS2481
     RDKit          2D

 32 35  0  0  0  0  0  0  0  0999 V2000
   -3.6687   -3.7654    0.0000 C   0  0  0  0  0  0  0  0  0  0  0  0
   -2.7694   -2.5649    0.0000 C   0  0  0  0  0  0  0  0  0  0  0  0
   -3.3594   -1.1858    0.0000 C   0  0  0  0  0  0  0  0  0  0  0  0
   -4.8488   -1.0072    0.0000 C   0  0  0  0  0  0  0  0  0  0  0  0
   -5.4388    0.3718    0.0000 C   0  0  0  0  0  0  0  0  0  0  0  0
   -6.9281    0.5504    0.0000 O   0  0  0  0  0  0  0  0  0  0  0  0
   -4.5395    1.5724    0.0000 O   0  0  0  0  0  0  0  0  0  0  0  0
   -5.1295    2.9514    0.0000 S   0  0  0  0  0  0  0  0  0  0  0  0
   -6.5086    2.3614    0.0000 O   0  0  0  0  0  0  0  0  0  0  0  0
   -3.7505    3.5415    0.0000 O   0  0  0  0  0  0  0  0  0  0  0  0
   -5.7196    4.3305    0.0000 O   0  0  0  0  0  0  0  0  0  0  0  0
   -1.2801   -2.7434    0.0000 C   0  0  0  0  0  0  0  0  0  0  0  0
   -0.5491   -4.0533    0.0000 C   0  0  0  0  0  0  0  0  0  0  0  0
    0.9225   -3.7629    0.0000 C   0  0  0  0  0  0  0  0  0  0  0  0
    1.1011   -2.2735    0.0000 C   0  0  0  0  0  0  0  0  0  0  0  0
    2.3273   -1.4097    0.0000 C   0  0  0  0  0  0  0  0  0  0  0  0
    3.6886   -2.0397    0.0000 C   0  0  0  0  0  0  0  0  0  0  0  0
    3.8236   -3.5336    0.0000 O   0  0  0  0  0  0  0  0  0  0  0  0
    4.9149   -1.1759    0.0000 C   0  0  0  0  0  0  0  0  0  0  0  0
    4.7799    0.3181    0.0000 C   0  0  0  0  0  0  0  0  0  0  0  0
    6.0061    1.1819    0.0000 C   0  0  0  0  0  0  0  0  0  0  0  0
    5.8711    2.6758    0.0000 C   0  0  0  0  0  0  0  0  0  0  0  0
    7.0974    3.5397    0.0000 F   0  0  0  0  0  0  0  0  0  0  0  0
    4.5099    3.3059    0.0000 C   0  0  0  0  0  0  0  0  0  0  0  0
    3.2836    2.4420    0.0000 C   0  0  0  0  0  0  0  0  0  0  0  0
    3.4186    0.9481    0.0000 C   0  0  0  0  0  0  0  0  0  0  0  0
    2.0573    1.5782    0.0000 C   0  0  0  0  0  0  0  0  0  0  0  0
    2.1923    0.0842    0.0000 C   0  0  0  0  0  0  0  0  0  0  0  0
    0.8311    0.7143    0.0000 C   0  0  0  0  0  0  0  0  0  0  0  0
   -0.3952   -0.1496    0.0000 C   0  0  0  0  0  0  0  0  0  0  0  0
   -0.2602   -1.6435    0.0000 C   0  0  0  0  0  0  0  0  0  0  0  0
   -1.6799   -1.1592    0.0000 C   0  0  0  0  0  0  0  0  0  0  0  0
  2  1  1  6
  2  3  1  0
  3  4  1  0
  4  5  1  0
  5  6  2  0
  5  7  1  0
  7  8  1  0
  8  9  2  0
  8 10  2  0
  8 11  1  0
  2 12  1  0
 12 13  1  6
 13 14  1  0
 15 14  1  6
 15 16  1  0
 16 17  1  1
 17 18  1  6
 17 19  1  0
 20 19  1  1
 20 21  1  0
 21 22  1  0
 22 23  1  1
 22 24  1  0
 24 25  1  0
 25 26  1  0
 26 27  1  6
 26 28  1  0
 28 29  1  6
 29 30  1  0
 30 31  1  0
 31 32  1  6
 31 12  1  0
 31 15  1  0
 28 16  1  0
 26 20  1  0
M  END
>  <MS_ID>  (2396) 
MS2481

>  <SMILES>  (2396) 
C[C@H](CCC(=O)OS(=O)(=O)O)[C@H]1CC[C@H]2[C@@H]3[C@@H](O)C[C@@H]4C[C@H](F)CC[C@]4(C)[C@H]3CC[C@]12C

>  <Structure_dimension>  (2396) 
2D

$$$$
MS2482
     RDKit          2D

 29 32  0  0  0  0  0  0  0  0999 V2000
   -5.3431   -2.0646    0.0000 C   0  0  0  0  0  0  0  0  0  0  0  0
   -4.1296   -1.1829    0.0000 C   0  0  0  0  0  0  0  0  0  0  0  0
   -4.2863    0.3088    0.0000 C   0  0  0  0  0  0  0  0  0  0  0  0
   -5.6566    0.9190    0.0000 C   0  0  0  0  0  0  0  0  0  0  0  0
   -5.8134    2.4108    0.0000 C   0  0  0  0  0  0  0  0  0  0  0  0
   -4.5998    3.2924    0.0000 O   0  0  0  0  0  0  0  0  0  0  0  0
   -7.1837    3.0209    0.0000 O   0  0  0  0  0  0  0  0  0  0  0  0
   -2.7593   -1.7931    0.0000 C   0  0  0  0  0  0  0  0  0  0  0  0
   -2.4474   -3.2603    0.0000 C   0  0  0  0  0  0  0  0  0  0  0  0
   -0.9557   -3.4171    0.0000 C   0  0  0  0  0  0  0  0  0  0  0  0
   -0.3455   -2.0468    0.0000 C   0  0  0  0  0  0  0  0  0  0  0  0
    1.0811   -1.5833    0.0000 C   0  0  0  0  0  0  0  0  0  0  0  0
    2.1958   -2.5871    0.0000 C   0  0  0  0  0  0  0  0  0  0  0  0
    3.6224   -2.1236    0.0000 C   0  0  0  0  0  0  0  0  0  0  0  0
    3.9343   -0.6564    0.0000 C   0  0  0  0  0  0  0  0  0  0  0  0
    5.3609   -0.1929    0.0000 C   0  0  0  0  0  0  0  0  0  0  0  0
    5.6728    1.2743    0.0000 C   0  0  0  0  0  0  0  0  0  0  0  0
    7.0994    1.7378    0.0000 O   0  0  0  0  0  0  0  0  0  0  0  0
    8.2141    0.7341    0.0000 Br  0  0  0  0  0  0  0  0  0  0  0  0
    4.5581    2.2781    0.0000 C   0  0  0  0  0  0  0  0  0  0  0  0
    3.1315    1.8146    0.0000 C   0  0  0  0  0  0  0  0  0  0  0  0
    2.8196    0.3474    0.0000 C   0  0  0  0  0  0  0  0  0  0  0  0
    1.7049    1.3511    0.0000 C   0  0  0  0  0  0  0  0  0  0  0  0
    1.3930   -0.1161    0.0000 C   0  0  0  0  0  0  0  0  0  0  0  0
    0.2783    0.8876    0.0000 C   0  0  0  0  0  0  0  0  0  0  0  0
   -1.1483    0.4241    0.0000 C   0  0  0  0  0  0  0  0  0  0  0  0
   -2.2630    1.4278    0.0000 O   0  0  0  0  0  0  0  0  0  0  0  0
   -1.4602   -1.0431    0.0000 C   0  0  0  0  0  0  0  0  0  0  0  0
   -2.6737   -0.1614    0.0000 C   0  0  0  0  0  0  0  0  0  0  0  0
  2  1  1  6
  2  3  1  0
  3  4  1  0
  4  5  1  0
  5  6  2  0
  5  7  1  0
  2  8  1  0
  8  9  1  6
  9 10  1  0
 11 10  1  6
 11 12  1  0
 12 13  1  1
 13 14  1  0
 15 14  1  1
 15 16  1  0
 16 17  1  0
 17 18  1  1
 18 19  1  0
 17 20  1  0
 20 21  1  0
 21 22  1  0
 22 23  1  6
 22 24  1  0
 24 25  1  6
 25 26  1  0
 26 27  1  1
 26 28  1  0
 28 29  1  6
 28  8  1  0
 28 11  1  0
 24 12  1  0
 22 15  1  0
M  END
>  <MS_ID>  (2397) 
MS2482

>  <SMILES>  (2397) 
C[C@H](CCC(=O)O)[C@H]1CC[C@H]2[C@@H]3CC[C@@H]4C[C@H](OBr)CC[C@]4(C)[C@H]3C[C@H](O)[C@]12C

>  <Structure_dimension>  (2397) 
2D

$$$$
MS2483
     RDKit          2D

 35 38  0  0  0  0  0  0  0  0999 V2000
   -2.0868   -4.2411    0.0000 C   0  0  0  0  0  0  0  0  0  0  0  0
   -1.3820   -2.9170    0.0000 C   0  0  0  0  0  0  0  0  0  0  0  0
   -2.1764   -1.6446    0.0000 C   0  0  0  0  0  0  0  0  0  0  0  0
   -3.6755   -1.6963    0.0000 C   0  0  0  0  0  0  0  0  0  0  0  0
   -4.4698   -0.4239    0.0000 C   0  0  0  0  0  0  0  0  0  0  0  0
   -3.7650    0.9002    0.0000 O   0  0  0  0  0  0  0  0  0  0  0  0
   -5.9689   -0.4756    0.0000 O   0  0  0  0  0  0  0  0  0  0  0  0
   -6.7632    0.7968    0.0000 C   0  0  0  0  0  0  0  0  0  0  0  0
   -8.2623    0.7451    0.0000 C   0  0  0  0  0  0  0  0  0  0  0  0
   -9.0567    2.0176    0.0000 C   0  0  0  0  0  0  0  0  0  0  0  0
  -10.5558    1.9659    0.0000 C   0  0  0  0  0  0  0  0  0  0  0  0
  -11.2606    0.6417    0.0000 O   0  0  0  0  0  0  0  0  0  0  0  0
  -11.3501    3.2383    0.0000 O   0  0  0  0  0  0  0  0  0  0  0  0
    0.1171   -2.8653    0.0000 C   0  0  0  0  0  0  0  0  0  0  0  0
    1.0401   -4.0477    0.0000 C   0  0  0  0  0  0  0  0  0  0  0  0
    2.4498   -3.5353    0.0000 C   0  0  0  0  0  0  0  0  0  0  0  0
    2.3981   -2.0362    0.0000 C   0  0  0  0  0  0  0  0  0  0  0  0
    3.4776   -0.9947    0.0000 C   0  0  0  0  0  0  0  0  0  0  0  0
    4.9193   -1.4088    0.0000 C   0  0  0  0  0  0  0  0  0  0  0  0
    5.2815   -2.8644    0.0000 O   0  0  0  0  0  0  0  0  0  0  0  0
    5.9987   -0.3672    0.0000 C   0  0  0  0  0  0  0  0  0  0  0  0
    7.4405   -0.7813    0.0000 O   0  0  0  0  0  0  0  0  0  0  0  0
    5.6365    1.0884    0.0000 C   0  0  0  0  0  0  0  0  0  0  0  0
    6.7160    2.1299    0.0000 C   0  0  0  0  0  0  0  0  0  0  0  0
    6.3537    3.5855    0.0000 C   0  0  0  0  0  0  0  0  0  0  0  0
    7.4332    4.6270    0.0000 O   0  0  0  0  0  0  0  0  0  0  0  0
    4.9120    3.9996    0.0000 C   0  0  0  0  0  0  0  0  0  0  0  0
    3.8325    2.9580    0.0000 C   0  0  0  0  0  0  0  0  0  0  0  0
    4.1948    1.5024    0.0000 C   0  0  0  0  0  0  0  0  0  0  0  0
    2.7531    1.9165    0.0000 C   0  0  0  0  0  0  0  0  0  0  0  0
    3.1153    0.4609    0.0000 C   0  0  0  0  0  0  0  0  0  0  0  0
    1.6736    0.8750    0.0000 C   0  0  0  0  0  0  0  0  0  0  0  0
    0.5941   -0.1665    0.0000 C   0  0  0  0  0  0  0  0  0  0  0  0
    0.9564   -1.6221    0.0000 C   0  0  0  0  0  0  0  0  0  0  0  0
   -0.5207   -1.3610    0.0000 C   0  0  0  0  0  0  0  0  0  0  0  0
  2  1  1  6
  2  3  1  0
  3  4  1  0
  4  5  1  0
  5  6  2  0
  5  7  1  0
  7  8  1  0
  8  9  1  0
  9 10  1  0
 10 11  1  0
 11 12  2  0
 11 13  1  0
  2 14  1  0
 14 15  1  6
 15 16  1  0
 17 16  1  6
 17 18  1  0
 18 19  1  1
 19 20  1  1
 19 21  1  0
 21 22  1  1
 21 23  1  0
 23 24  1  1
 24 25  1  0
 25 26  1  1
 25 27  1  0
 27 28  1  0
 28 29  1  0
 29 30  1  6
 29 31  1  0
 31 32  1  6
 32 33  1  0
 33 34  1  0
 34 35  1  6
 34 14  1  0
 34 17  1  0
 31 18  1  0
 29 23  1  0
M  END
>  <MS_ID>  (2398) 
MS2483

>  <SMILES>  (2398) 
C[C@H](CCC(=O)OCCCC(=O)O)[C@H]1CC[C@H]2[C@@H]3[C@H](O)[C@H](O)[C@@H]4C[C@H](O)CC[C@]4(C)[C@H]3CC[C@]12C

>  <Structure_dimension>  (2398) 
2D

$$$$
MS2484
     RDKit          2D

 35 38  0  0  0  0  0  0  0  0999 V2000
   -1.5848   -4.3922    0.0000 C   0  0  0  0  0  0  0  0  0  0  0  0
   -0.8624   -3.0776    0.0000 C   0  0  0  0  0  0  0  0  0  0  0  0
   -1.6397   -1.7947    0.0000 C   0  0  0  0  0  0  0  0  0  0  0  0
   -3.1394   -1.8263    0.0000 C   0  0  0  0  0  0  0  0  0  0  0  0
   -3.9166   -0.5434    0.0000 C   0  0  0  0  0  0  0  0  0  0  0  0
   -3.1942    0.7712    0.0000 O   0  0  0  0  0  0  0  0  0  0  0  0
   -5.4163   -0.5751    0.0000 N   0  0  0  0  0  0  0  0  0  0  0  0
   -6.1935    0.7078    0.0000 C   0  0  0  0  0  0  0  0  0  0  0  0
   -5.4711    2.0224    0.0000 O   0  0  0  0  0  0  0  0  0  0  0  0
   -7.6932    0.6762    0.0000 C   0  0  0  0  0  0  0  0  0  0  0  0
   -8.4705    1.9591    0.0000 C   0  0  0  0  0  0  0  0  0  0  0  0
   -9.9701    1.9274    0.0000 C   0  0  0  0  0  0  0  0  0  0  0  0
  -10.6925    0.6128    0.0000 O   0  0  0  0  0  0  0  0  0  0  0  0
  -10.7474    3.2103    0.0000 O   0  0  0  0  0  0  0  0  0  0  0  0
    0.6372   -3.0459    0.0000 C   0  0  0  0  0  0  0  0  0  0  0  0
    1.5443   -4.2406    0.0000 C   0  0  0  0  0  0  0  0  0  0  0  0
    2.9608   -3.7470    0.0000 C   0  0  0  0  0  0  0  0  0  0  0  0
    2.9291   -2.2474    0.0000 C   0  0  0  0  0  0  0  0  0  0  0  0
    4.0224   -1.2204    0.0000 C   0  0  0  0  0  0  0  0  0  0  0  0
    5.4585   -1.6537    0.0000 C   0  0  0  0  0  0  0  0  0  0  0  0
    6.5518   -0.6267    0.0000 C   0  0  0  0  0  0  0  0  0  0  0  0
    6.2090    0.8336    0.0000 C   0  0  0  0  0  0  0  0  0  0  0  0
    7.3023    1.8607    0.0000 C   0  0  0  0  0  0  0  0  0  0  0  0
    6.9595    3.3210    0.0000 C   0  0  0  0  0  0  0  0  0  0  0  0
    8.0528    4.3480    0.0000 O   0  0  0  0  0  0  0  0  0  0  0  0
    5.5234    3.7543    0.0000 C   0  0  0  0  0  0  0  0  0  0  0  0
    4.4302    2.7273    0.0000 C   0  0  0  0  0  0  0  0  0  0  0  0
    4.7729    1.2670    0.0000 C   0  0  0  0  0  0  0  0  0  0  0  0
    3.3369    1.7003    0.0000 C   0  0  0  0  0  0  0  0  0  0  0  0
    3.6797    0.2400    0.0000 C   0  0  0  0  0  0  0  0  0  0  0  0
    2.2436    0.6733    0.0000 C   0  0  0  0  0  0  0  0  0  0  0  0
    1.1503   -0.3537    0.0000 C   0  0  0  0  0  0  0  0  0  0  0  0
   -0.2857    0.0796    0.0000 O   0  0  0  0  0  0  0  0  0  0  0  0
    1.4931   -1.8141    0.0000 C   0  0  0  0  0  0  0  0  0  0  0  0
    0.0196   -1.5332    0.0000 C   0  0  0  0  0  0  0  0  0  0  0  0
  2  1  1  6
  2  3  1  0
  3  4  1  0
  4  5  1  0
  5  6  2  0
  5  7  1  0
  7  8  1  0
  8  9  2  0
  8 10  1  0
 10 11  1  0
 11 12  1  0
 12 13  2  0
 12 14  1  0
  2 15  1  0
 15 16  1  6
 16 17  1  0
 18 17  1  6
 18 19  1  0
 19 20  1  1
 20 21  1  0
 22 21  1  1
 22 23  1  0
 23 24  1  0
 24 25  1  1
 24 26  1  0
 26 27  1  0
 27 28  1  0
 28 29  1  6
 28 30  1  0
 30 31  1  6
 31 32  1  0
 32 33  1  1
 32 34  1  0
 34 35  1  6
 34 15  1  0
 34 18  1  0
 30 19  1  0
 28 22  1  0
M  END
>  <MS_ID>  (2399) 
MS2484

>  <SMILES>  (2399) 
C[C@H](CCC(=O)NC(=O)CCC(=O)O)[C@H]1CC[C@H]2[C@@H]3CC[C@@H]4C[C@H](O)CC[C@]4(C)[C@H]3C[C@H](O)[C@]12C

>  <Structure_dimension>  (2399) 
2D

$$$$
MS2485
     RDKit          2D

 28 31  0  0  0  0  0  0  0  0999 V2000
   -5.1275   -2.0302    0.0000 C   0  0  0  0  0  0  0  0  0  0  0  0
   -3.9468   -1.1050    0.0000 C   0  0  0  0  0  0  0  0  0  0  0  0
   -4.1576    0.3801    0.0000 C   0  0  0  0  0  0  0  0  0  0  0  0
   -5.5492    0.9401    0.0000 C   0  0  0  0  0  0  0  0  0  0  0  0
   -5.7600    2.4252    0.0000 C   0  0  0  0  0  0  0  0  0  0  0  0
   -4.5793    3.3503    0.0000 O   0  0  0  0  0  0  0  0  0  0  0  0
   -7.1516    2.9851    0.0000 O   0  0  0  0  0  0  0  0  0  0  0  0
   -2.5552   -1.6650    0.0000 C   0  0  0  0  0  0  0  0  0  0  0  0
   -2.1903   -3.1199    0.0000 C   0  0  0  0  0  0  0  0  0  0  0  0
   -0.6938   -3.2225    0.0000 C   0  0  0  0  0  0  0  0  0  0  0  0
   -0.1339   -1.8309    0.0000 C   0  0  0  0  0  0  0  0  0  0  0  0
    1.2750   -1.3159    0.0000 C   0  0  0  0  0  0  0  0  0  0  0  0
    2.4254   -2.2785    0.0000 C   0  0  0  0  0  0  0  0  0  0  0  0
    2.1670   -3.7560    0.0000 F   0  0  0  0  0  0  0  0  0  0  0  0
    3.8342   -1.7635    0.0000 C   0  0  0  0  0  0  0  0  0  0  0  0
    4.0926   -0.2859    0.0000 C   0  0  0  0  0  0  0  0  0  0  0  0
    5.5014    0.2291    0.0000 C   0  0  0  0  0  0  0  0  0  0  0  0
    5.7598    1.7067    0.0000 C   0  0  0  0  0  0  0  0  0  0  0  0
    7.1687    2.2217    0.0000 O   0  0  0  0  0  0  0  0  0  0  0  0
    4.6094    2.6692    0.0000 C   0  0  0  0  0  0  0  0  0  0  0  0
    3.2006    2.1542    0.0000 C   0  0  0  0  0  0  0  0  0  0  0  0
    2.9422    0.6767    0.0000 C   0  0  0  0  0  0  0  0  0  0  0  0
    1.7918    1.6392    0.0000 C   0  0  0  0  0  0  0  0  0  0  0  0
    1.5334    0.1617    0.0000 C   0  0  0  0  0  0  0  0  0  0  0  0
    0.3830    1.1242    0.0000 C   0  0  0  0  0  0  0  0  0  0  0  0
   -1.0259    0.6093    0.0000 C   0  0  0  0  0  0  0  0  0  0  0  0
   -1.2843   -0.8683    0.0000 C   0  0  0  0  0  0  0  0  0  0  0  0
   -2.5290   -0.0313    0.0000 C   0  0  0  0  0  0  0  0  0  0  0  0
  2  1  1  6
  2  3  1  0
  3  4  1  0
  4  5  1  0
  5  6  2  0
  5  7  1  0
  2  8  1  0
  8  9  1  6
  9 10  1  0
 11 10  1  6
 11 12  1  0
 12 13  1  1
 13 14  1  6
 13 15  1  0
 16 15  1  1
 16 17  1  0
 17 18  1  0
 18 19  1  1
 18 20  1  0
 20 21  1  0
 21 22  1  0
 22 23  1  6
 22 24  1  0
 24 25  1  6
 25 26  1  0
 26 27  1  0
 27 28  1  6
 27  8  1  0
 27 11  1  0
 24 12  1  0
 22 16  1  0
M  END
>  <MS_ID>  (2400) 
MS2485

>  <SMILES>  (2400) 
C[C@H](CCC(=O)O)[C@H]1CC[C@H]2[C@@H]3[C@@H](F)C[C@@H]4C[C@H](O)CC[C@]4(C)[C@H]3CC[C@]12C

>  <Structure_dimension>  (2400) 
2D

$$$$
MS2486
     RDKit          2D

 32 35  0  0  0  0  0  0  0  0999 V2000
   -3.1607   -3.8109    0.0000 C   0  0  0  0  0  0  0  0  0  0  0  0
   -2.3083   -2.5766    0.0000 C   0  0  0  0  0  0  0  0  0  0  0  0
   -2.9510   -1.2213    0.0000 C   0  0  0  0  0  0  0  0  0  0  0  0
   -4.4461   -1.1002    0.0000 C   0  0  0  0  0  0  0  0  0  0  0  0
   -5.0888    0.2551    0.0000 C   0  0  0  0  0  0  0  0  0  0  0  0
   -4.2364    1.4894    0.0000 O   0  0  0  0  0  0  0  0  0  0  0  0
   -6.5839    0.3762    0.0000 C   0  0  0  0  0  0  0  0  0  0  0  0
   -7.2266    1.7316    0.0000 C   0  0  0  0  0  0  0  0  0  0  0  0
   -6.3742    2.9658    0.0000 O   0  0  0  0  0  0  0  0  0  0  0  0
   -8.7218    1.8526    0.0000 C   0  0  0  0  0  0  0  0  0  0  0  0
   -9.3644    3.2080    0.0000 O   0  0  0  0  0  0  0  0  0  0  0  0
   -0.8132   -2.6977    0.0000 C   0  0  0  0  0  0  0  0  0  0  0  0
   -0.0324   -3.9784    0.0000 C   0  0  0  0  0  0  0  0  0  0  0  0
    1.4270   -3.6316    0.0000 C   0  0  0  0  0  0  0  0  0  0  0  0
    1.5480   -2.1364    0.0000 C   0  0  0  0  0  0  0  0  0  0  0  0
    2.7401   -1.2260    0.0000 C   0  0  0  0  0  0  0  0  0  0  0  0
    4.1246   -1.8032    0.0000 C   0  0  0  0  0  0  0  0  0  0  0  0
    4.3171   -3.2908    0.0000 O   0  0  0  0  0  0  0  0  0  0  0  0
    5.3167   -0.8927    0.0000 C   0  0  0  0  0  0  0  0  0  0  0  0
    5.1243    0.5949    0.0000 C   0  0  0  0  0  0  0  0  0  0  0  0
    6.3164    1.5053    0.0000 C   0  0  0  0  0  0  0  0  0  0  0  0
    6.1240    2.9929    0.0000 C   0  0  0  0  0  0  0  0  0  0  0  0
    7.3161    3.9034    0.0000 O   0  0  0  0  0  0  0  0  0  0  0  0
    4.7395    3.5701    0.0000 C   0  0  0  0  0  0  0  0  0  0  0  0
    3.5474    2.6597    0.0000 C   0  0  0  0  0  0  0  0  0  0  0  0
    3.7398    1.1721    0.0000 C   0  0  0  0  0  0  0  0  0  0  0  0
    2.3553    1.7492    0.0000 C   0  0  0  0  0  0  0  0  0  0  0  0
    2.5477    0.2616    0.0000 C   0  0  0  0  0  0  0  0  0  0  0  0
    1.1632    0.8388    0.0000 C   0  0  0  0  0  0  0  0  0  0  0  0
   -0.0289   -0.0717    0.0000 C   0  0  0  0  0  0  0  0  0  0  0  0
    0.1635   -1.5593    0.0000 C   0  0  0  0  0  0  0  0  0  0  0  0
   -1.2737   -1.1300    0.0000 C   0  0  0  0  0  0  0  0  0  0  0  0
  2  1  1  6
  2  3  1  0
  3  4  1  0
  4  5  1  0
  5  6  2  0
  5  7  1  0
  7  8  1  0
  8  9  2  0
  8 10  1  0
 10 11  1  0
  2 12  1  0
 12 13  1  6
 13 14  1  0
 15 14  1  6
 15 16  1  0
 16 17  1  1
 17 18  1  1
 17 19  1  0
 20 19  1  1
 20 21  1  0
 21 22  1  0
 22 23  1  1
 22 24  1  0
 24 25  1  0
 25 26  1  0
 26 27  1  6
 26 28  1  0
 28 29  1  6
 29 30  1  0
 30 31  1  0
 31 32  1  6
 31 12  1  0
 31 15  1  0
 28 16  1  0
 26 20  1  0
M  END
>  <MS_ID>  (2401) 
MS2486

>  <SMILES>  (2401) 
C[C@H](CCC(=O)CC(=O)CO)[C@H]1CC[C@H]2[C@@H]3[C@H](O)C[C@@H]4C[C@H](O)CC[C@]4(C)[C@H]3CC[C@]12C

>  <Structure_dimension>  (2401) 
2D

$$$$
MS2487
     RDKit          2D

 36 39  0  0  0  0  0  0  0  0999 V2000
   -1.8010   -4.2744    0.0000 C   0  0  0  0  0  0  0  0  0  0  0  0
   -1.0811   -2.9584    0.0000 C   0  0  0  0  0  0  0  0  0  0  0  0
   -1.8609   -1.6770    0.0000 C   0  0  0  0  0  0  0  0  0  0  0  0
   -3.3605   -1.7115    0.0000 C   0  0  0  0  0  0  0  0  0  0  0  0
   -4.1402   -0.4301    0.0000 C   0  0  0  0  0  0  0  0  0  0  0  0
   -3.4203    0.8858    0.0000 O   0  0  0  0  0  0  0  0  0  0  0  0
   -5.6398   -0.4647    0.0000 O   0  0  0  0  0  0  0  0  0  0  0  0
   -6.4195    0.8168    0.0000 C   0  0  0  0  0  0  0  0  0  0  0  0
   -7.9191    0.7822    0.0000 C   0  0  0  0  0  0  0  0  0  0  0  0
   -8.6390   -0.5338    0.0000 O   0  0  0  0  0  0  0  0  0  0  0  0
   -8.6988    2.0636    0.0000 C   0  0  0  0  0  0  0  0  0  0  0  0
   -9.9802    1.2839    0.0000 C   0  0  0  0  0  0  0  0  0  0  0  0
   -7.4174    2.8433    0.0000 C   0  0  0  0  0  0  0  0  0  0  0  0
   -9.4785    3.3450    0.0000 C   0  0  0  0  0  0  0  0  0  0  0  0
    0.4185   -2.9239    0.0000 C   0  0  0  0  0  0  0  0  0  0  0  0
    1.3278   -4.1168    0.0000 C   0  0  0  0  0  0  0  0  0  0  0  0
    2.7434   -3.6205    0.0000 C   0  0  0  0  0  0  0  0  0  0  0  0
    2.7088   -2.1209    0.0000 C   0  0  0  0  0  0  0  0  0  0  0  0
    3.8001   -1.0918    0.0000 C   0  0  0  0  0  0  0  0  0  0  0  0
    5.2370   -1.5224    0.0000 C   0  0  0  0  0  0  0  0  0  0  0  0
    5.5826   -2.9820    0.0000 O   0  0  0  0  0  0  0  0  0  0  0  0
    6.3283   -0.4933    0.0000 C   0  0  0  0  0  0  0  0  0  0  0  0
    5.9828    0.9664    0.0000 C   0  0  0  0  0  0  0  0  0  0  0  0
    7.0741    1.9955    0.0000 C   0  0  0  0  0  0  0  0  0  0  0  0
    6.7285    3.4551    0.0000 C   0  0  0  0  0  0  0  0  0  0  0  0
    7.8198    4.4843    0.0000 O   0  0  0  0  0  0  0  0  0  0  0  0
    5.2916    3.8857    0.0000 C   0  0  0  0  0  0  0  0  0  0  0  0
    4.2003    2.8566    0.0000 C   0  0  0  0  0  0  0  0  0  0  0  0
    4.5459    1.3969    0.0000 C   0  0  0  0  0  0  0  0  0  0  0  0
    3.1090    1.8275    0.0000 C   0  0  0  0  0  0  0  0  0  0  0  0
    3.4546    0.3678    0.0000 C   0  0  0  0  0  0  0  0  0  0  0  0
    2.0177    0.7984    0.0000 C   0  0  0  0  0  0  0  0  0  0  0  0
    0.9264   -0.2307    0.0000 C   0  0  0  0  0  0  0  0  0  0  0  0
   -0.5105    0.1998    0.0000 O   0  0  0  0  0  0  0  0  0  0  0  0
    1.2720   -1.6904    0.0000 C   0  0  0  0  0  0  0  0  0  0  0  0
   -0.2021   -1.4124    0.0000 C   0  0  0  0  0  0  0  0  0  0  0  0
  2  1  1  6
  2  3  1  0
  3  4  1  0
  4  5  1  0
  5  6  2  0
  5  7  1  0
  7  8  1  0
  8  9  1  0
  9 10  1  6
  9 11  1  0
 11 12  1  0
 11 13  1  0
 11 14  1  0
  2 15  1  0
 15 16  1  6
 16 17  1  0
 18 17  1  6
 18 19  1  0
 19 20  1  1
 20 21  1  1
 20 22  1  0
 23 22  1  1
 23 24  1  0
 24 25  1  0
 25 26  1  1
 25 27  1  0
 27 28  1  0
 28 29  1  0
 29 30  1  6
 29 31  1  0
 31 32  1  6
 32 33  1  0
 33 34  1  1
 33 35  1  0
 35 36  1  6
 35 15  1  0
 35 18  1  0
 31 19  1  0
 29 23  1  0
M  END
>  <MS_ID>  (2402) 
MS2487

>  <SMILES>  (2402) 
C[C@H](CCC(=O)OC[C@H](O)C(C)(C)C)[C@H]1CC[C@H]2[C@@H]3[C@H](O)C[C@@H]4C[C@H](O)CC[C@]4(C)[C@H]3C[C@H](O)[C@]12C

>  <Structure_dimension>  (2402) 
2D

$$$$
MS2488
     RDKit          2D

 35 38  0  0  0  0  0  0  0  0999 V2000
   -2.0868   -4.2411    0.0000 C   0  0  0  0  0  0  0  0  0  0  0  0
   -1.3820   -2.9170    0.0000 C   0  0  0  0  0  0  0  0  0  0  0  0
   -2.1764   -1.6446    0.0000 C   0  0  0  0  0  0  0  0  0  0  0  0
   -3.6755   -1.6963    0.0000 C   0  0  0  0  0  0  0  0  0  0  0  0
   -4.4698   -0.4239    0.0000 C   0  0  0  0  0  0  0  0  0  0  0  0
   -3.7650    0.9002    0.0000 O   0  0  0  0  0  0  0  0  0  0  0  0
   -5.9689   -0.4756    0.0000 C   0  0  0  0  0  0  0  0  0  0  0  0
   -6.7632    0.7968    0.0000 C   0  0  0  0  0  0  0  0  0  0  0  0
   -8.2623    0.7451    0.0000 C   0  0  0  0  0  0  0  0  0  0  0  0
   -9.0567    2.0176    0.0000 O   0  0  0  0  0  0  0  0  0  0  0  0
  -10.5558    1.9659    0.0000 C   0  0  0  0  0  0  0  0  0  0  0  0
  -11.2606    0.6417    0.0000 O   0  0  0  0  0  0  0  0  0  0  0  0
  -11.3501    3.2383    0.0000 O   0  0  0  0  0  0  0  0  0  0  0  0
    0.1171   -2.8653    0.0000 C   0  0  0  0  0  0  0  0  0  0  0  0
    1.0401   -4.0477    0.0000 C   0  0  0  0  0  0  0  0  0  0  0  0
    2.4498   -3.5353    0.0000 C   0  0  0  0  0  0  0  0  0  0  0  0
    2.3981   -2.0362    0.0000 C   0  0  0  0  0  0  0  0  0  0  0  0
    3.4776   -0.9947    0.0000 C   0  0  0  0  0  0  0  0  0  0  0  0
    4.9193   -1.4088    0.0000 C   0  0  0  0  0  0  0  0  0  0  0  0
    5.2815   -2.8644    0.0000 O   0  0  0  0  0  0  0  0  0  0  0  0
    5.9987   -0.3672    0.0000 C   0  0  0  0  0  0  0  0  0  0  0  0
    7.4405   -0.7813    0.0000 O   0  0  0  0  0  0  0  0  0  0  0  0
    5.6365    1.0884    0.0000 C   0  0  0  0  0  0  0  0  0  0  0  0
    6.7160    2.1299    0.0000 C   0  0  0  0  0  0  0  0  0  0  0  0
    6.3537    3.5855    0.0000 C   0  0  0  0  0  0  0  0  0  0  0  0
    7.4332    4.6270    0.0000 O   0  0  0  0  0  0  0  0  0  0  0  0
    4.9120    3.9996    0.0000 C   0  0  0  0  0  0  0  0  0  0  0  0
    3.8325    2.9580    0.0000 C   0  0  0  0  0  0  0  0  0  0  0  0
    4.1948    1.5024    0.0000 C   0  0  0  0  0  0  0  0  0  0  0  0
    2.7531    1.9165    0.0000 C   0  0  0  0  0  0  0  0  0  0  0  0
    3.1153    0.4609    0.0000 C   0  0  0  0  0  0  0  0  0  0  0  0
    1.6736    0.8750    0.0000 C   0  0  0  0  0  0  0  0  0  0  0  0
    0.5941   -0.1665    0.0000 C   0  0  0  0  0  0  0  0  0  0  0  0
    0.9564   -1.6221    0.0000 C   0  0  0  0  0  0  0  0  0  0  0  0
   -0.5207   -1.3610    0.0000 C   0  0  0  0  0  0  0  0  0  0  0  0
  2  1  1  6
  2  3  1  0
  3  4  1  0
  4  5  1  0
  5  6  2  0
  5  7  1  0
  7  8  1  0
  8  9  1  0
  9 10  1  0
 10 11  1  0
 11 12  2  0
 11 13  1  0
  2 14  1  0
 14 15  1  6
 15 16  1  0
 17 16  1  6
 17 18  1  0
 18 19  1  1
 19 20  1  1
 19 21  1  0
 21 22  1  1
 21 23  1  0
 23 24  1  1
 24 25  1  0
 25 26  1  1
 25 27  1  0
 27 28  1  0
 28 29  1  0
 29 30  1  6
 29 31  1  0
 31 32  1  6
 32 33  1  0
 33 34  1  0
 34 35  1  6
 34 14  1  0
 34 17  1  0
 31 18  1  0
 29 23  1  0
M  END
>  <MS_ID>  (2403) 
MS2488

>  <SMILES>  (2403) 
C[C@H](CCC(=O)CCCOC(=O)O)[C@H]1CC[C@H]2[C@@H]3[C@H](O)[C@H](O)[C@@H]4C[C@H](O)CC[C@]4(C)[C@H]3CC[C@]12C

>  <Structure_dimension>  (2403) 
2D

$$$$
MS2489
     RDKit          2D

 34 38  0  0  0  0  0  0  0  0999 V2000
   -2.2608   -4.3306    0.0000 C   0  0  0  0  0  0  0  0  0  0  0  0
   -1.5430   -3.0135    0.0000 C   0  0  0  0  0  0  0  0  0  0  0  0
   -2.3248   -1.7333    0.0000 C   0  0  0  0  0  0  0  0  0  0  0  0
   -3.8244   -1.7702    0.0000 C   0  0  0  0  0  0  0  0  0  0  0  0
   -4.6061   -0.4901    0.0000 C   0  0  0  0  0  0  0  0  0  0  0  0
   -3.8883    0.8271    0.0000 O   0  0  0  0  0  0  0  0  0  0  0  0
   -6.1057   -0.5270    0.0000 O   0  0  0  0  0  0  0  0  0  0  0  0
   -6.8874    0.7532    0.0000 C   0  0  0  0  0  0  0  0  0  0  0  0
   -6.1696    2.0703    0.0000 C   0  0  0  0  0  0  0  0  0  0  0  0
   -6.9514    3.3505    0.0000 C   0  0  0  0  0  0  0  0  0  0  0  0
   -8.4509    3.3135    0.0000 N   0  0  0  0  0  0  0  0  0  0  0  0
   -9.1687    1.9964    0.0000 C   0  0  0  0  0  0  0  0  0  0  0  0
   -8.3870    0.7163    0.0000 C   0  0  0  0  0  0  0  0  0  0  0  0
   -0.0435   -2.9765    0.0000 C   0  0  0  0  0  0  0  0  0  0  0  0
    0.8678   -4.1680    0.0000 C   0  0  0  0  0  0  0  0  0  0  0  0
    2.2825   -3.6695    0.0000 C   0  0  0  0  0  0  0  0  0  0  0  0
    2.2456   -2.1699    0.0000 C   0  0  0  0  0  0  0  0  0  0  0  0
    3.3353   -1.1391    0.0000 C   0  0  0  0  0  0  0  0  0  0  0  0
    4.7728   -1.5673    0.0000 C   0  0  0  0  0  0  0  0  0  0  0  0
    5.1207   -3.0264    0.0000 O   0  0  0  0  0  0  0  0  0  0  0  0
    5.8625   -0.5365    0.0000 C   0  0  0  0  0  0  0  0  0  0  0  0
    5.5146    0.9226    0.0000 C   0  0  0  0  0  0  0  0  0  0  0  0
    6.6043    1.9534    0.0000 C   0  0  0  0  0  0  0  0  0  0  0  0
    6.2564    3.4125    0.0000 C   0  0  0  0  0  0  0  0  0  0  0  0
    7.3460    4.4434    0.0000 O   0  0  0  0  0  0  0  0  0  0  0  0
    4.8188    3.8408    0.0000 C   0  0  0  0  0  0  0  0  0  0  0  0
    3.7291    2.8099    0.0000 C   0  0  0  0  0  0  0  0  0  0  0  0
    4.0770    1.3509    0.0000 C   0  0  0  0  0  0  0  0  0  0  0  0
    2.6395    1.7791    0.0000 C   0  0  0  0  0  0  0  0  0  0  0  0
    2.9874    0.3200    0.0000 C   0  0  0  0  0  0  0  0  0  0  0  0
    1.5498    0.7483    0.0000 C   0  0  0  0  0  0  0  0  0  0  0  0
    0.4601   -0.2826    0.0000 C   0  0  0  0  0  0  0  0  0  0  0  0
    0.8080   -1.7417    0.0000 C   0  0  0  0  0  0  0  0  0  0  0  0
   -0.6664   -1.4660    0.0000 C   0  0  0  0  0  0  0  0  0  0  0  0
  2  1  1  6
  2  3  1  0
  3  4  1  0
  4  5  1  0
  5  6  2  0
  5  7  1  0
  7  8  1  0
  8  9  2  0
  9 10  1  0
 10 11  2  0
 11 12  1  0
 12 13  2  0
  2 14  1  0
 14 15  1  6
 15 16  1  0
 17 16  1  6
 17 18  1  0
 18 19  1  1
 19 20  1  1
 19 21  1  0
 22 21  1  1
 22 23  1  0
 23 24  1  0
 24 25  1  1
 24 26  1  0
 26 27  1  0
 27 28  1  0
 28 29  1  6
 28 30  1  0
 30 31  1  6
 31 32  1  0
 32 33  1  0
 33 34  1  6
 13  8  1  0
 33 14  1  0
 33 17  1  0
 30 18  1  0
 28 22  1  0
M  END
>  <MS_ID>  (2404) 
MS2489

>  <SMILES>  (2404) 
C[C@H](CCC(=O)Oc1ccncc1)[C@H]1CC[C@H]2[C@@H]3[C@H](O)C[C@@H]4C[C@H](O)CC[C@]4(C)[C@H]3CC[C@]12C

>  <Structure_dimension>  (2404) 
2D

$$$$
MS2490
     RDKit          2D

 30 33  0  0  0  0  0  0  0  0999 V2000
   -4.0974   -3.2091    0.0000 C   0  0  0  0  0  0  0  0  0  0  0  0
   -3.1126   -2.0777    0.0000 C   0  0  0  0  0  0  0  0  0  0  0  0
   -3.6001   -0.6591    0.0000 C   0  0  0  0  0  0  0  0  0  0  0  0
   -5.0723   -0.3719    0.0000 C   0  0  0  0  0  0  0  0  0  0  0  0
   -5.5598    1.0466    0.0000 C   0  0  0  0  0  0  0  0  0  0  0  0
   -4.5750    2.1781    0.0000 O   0  0  0  0  0  0  0  0  0  0  0  0
   -7.0321    1.3338    0.0000 O   0  0  0  0  0  0  0  0  0  0  0  0
   -7.5195    2.7524    0.0000 C   0  0  0  0  0  0  0  0  0  0  0  0
   -8.0070    4.1709    0.0000 N   0  0  0  0  0  0  0  0  0  0  0  0
   -1.6404   -2.3648    0.0000 C   0  0  0  0  0  0  0  0  0  0  0  0
   -1.0073   -3.7246    0.0000 C   0  0  0  0  0  0  0  0  0  0  0  0
    0.4817   -3.5428    0.0000 C   0  0  0  0  0  0  0  0  0  0  0  0
    0.7688   -2.0705    0.0000 C   0  0  0  0  0  0  0  0  0  0  0  0
    2.0550   -1.2987    0.0000 C   0  0  0  0  0  0  0  0  0  0  0  0
    3.3665   -2.0268    0.0000 C   0  0  0  0  0  0  0  0  0  0  0  0
    3.3917   -3.5266    0.0000 O   0  0  0  0  0  0  0  0  0  0  0  0
    4.6527   -1.2550    0.0000 C   0  0  0  0  0  0  0  0  0  0  0  0
    4.6275    0.2448    0.0000 C   0  0  0  0  0  0  0  0  0  0  0  0
    5.9137    1.0165    0.0000 C   0  0  0  0  0  0  0  0  0  0  0  0
    5.8885    2.5163    0.0000 C   0  0  0  0  0  0  0  0  0  0  0  0
    7.1747    3.2881    0.0000 O   0  0  0  0  0  0  0  0  0  0  0  0
    4.5770    3.2443    0.0000 C   0  0  0  0  0  0  0  0  0  0  0  0
    3.2908    2.4726    0.0000 C   0  0  0  0  0  0  0  0  0  0  0  0
    3.3160    0.9728    0.0000 C   0  0  0  0  0  0  0  0  0  0  0  0
    2.0045    1.7008    0.0000 C   0  0  0  0  0  0  0  0  0  0  0  0
    2.0298    0.2010    0.0000 C   0  0  0  0  0  0  0  0  0  0  0  0
    0.7183    0.9291    0.0000 C   0  0  0  0  0  0  0  0  0  0  0  0
   -0.5679    0.1573    0.0000 C   0  0  0  0  0  0  0  0  0  0  0  0
   -0.5427   -1.3425    0.0000 C   0  0  0  0  0  0  0  0  0  0  0  0
   -1.9231   -0.7555    0.0000 C   0  0  0  0  0  0  0  0  0  0  0  0
  2  1  1  6
  2  3  1  0
  3  4  1  0
  4  5  1  0
  5  6  2  0
  5  7  1  0
  7  8  1  0
  8  9  3  0
  2 10  1  0
 10 11  1  6
 11 12  1  0
 13 12  1  6
 13 14  1  0
 14 15  1  1
 15 16  1  1
 15 17  1  0
 18 17  1  1
 18 19  1  0
 19 20  1  0
 20 21  1  1
 20 22  1  0
 22 23  1  0
 23 24  1  0
 24 25  1  6
 24 26  1  0
 26 27  1  6
 27 28  1  0
 28 29  1  0
 29 30  1  6
 29 10  1  0
 29 13  1  0
 26 14  1  0
 24 18  1  0
M  END
>  <MS_ID>  (2405) 
MS2490

>  <SMILES>  (2405) 
C[C@H](CCC(=O)OC#N)[C@H]1CC[C@H]2[C@@H]3[C@H](O)C[C@@H]4C[C@H](O)CC[C@]4(C)[C@H]3CC[C@]12C

>  <Structure_dimension>  (2405) 
2D

$$$$
MS2491
     RDKit          2D

 34 37  0  0  0  0  0  0  0  0999 V2000
   -3.0934   -3.6327    0.0000 C   0  0  0  0  0  0  0  0  0  0  0  0
   -2.2247   -2.4099    0.0000 C   0  0  0  0  0  0  0  0  0  0  0  0
   -2.8494   -1.0461    0.0000 C   0  0  0  0  0  0  0  0  0  0  0  0
   -4.3428   -0.9053    0.0000 C   0  0  0  0  0  0  0  0  0  0  0  0
   -4.9675    0.4584    0.0000 C   0  0  0  0  0  0  0  0  0  0  0  0
   -4.0988    1.6813    0.0000 O   0  0  0  0  0  0  0  0  0  0  0  0
   -6.4608    0.5993    0.0000 C   0  0  0  0  0  0  0  0  0  0  0  0
   -7.3295   -0.6236    0.0000 O   0  0  0  0  0  0  0  0  0  0  0  0
   -7.0855    1.9630    0.0000 C   0  0  0  0  0  0  0  0  0  0  0  0
   -8.5789    2.1039    0.0000 C   0  0  0  0  0  0  0  0  0  0  0  0
   -9.4476    0.8810    0.0000 O   0  0  0  0  0  0  0  0  0  0  0  0
   -9.2036    3.4676    0.0000 O   0  0  0  0  0  0  0  0  0  0  0  0
   -0.7313   -2.5507    0.0000 C   0  0  0  0  0  0  0  0  0  0  0  0
    0.0325   -3.8417    0.0000 C   0  0  0  0  0  0  0  0  0  0  0  0
    1.4963   -3.5142    0.0000 C   0  0  0  0  0  0  0  0  0  0  0  0
    1.6372   -2.0208    0.0000 C   0  0  0  0  0  0  0  0  0  0  0  0
    2.8412   -1.1262    0.0000 C   0  0  0  0  0  0  0  0  0  0  0  0
    4.2180   -1.7216    0.0000 C   0  0  0  0  0  0  0  0  0  0  0  0
    4.3907   -3.2117    0.0000 O   0  0  0  0  0  0  0  0  0  0  0  0
    5.4220   -0.8271    0.0000 C   0  0  0  0  0  0  0  0  0  0  0  0
    6.7988   -1.4225    0.0000 O   0  0  0  0  0  0  0  0  0  0  0  0
    5.2493    0.6630    0.0000 C   0  0  0  0  0  0  0  0  0  0  0  0
    6.4533    1.5576    0.0000 C   0  0  0  0  0  0  0  0  0  0  0  0
    6.2806    3.0476    0.0000 C   0  0  0  0  0  0  0  0  0  0  0  0
    7.4847    3.9422    0.0000 O   0  0  0  0  0  0  0  0  0  0  0  0
    4.9039    3.6430    0.0000 C   0  0  0  0  0  0  0  0  0  0  0  0
    3.6998    2.7484    0.0000 C   0  0  0  0  0  0  0  0  0  0  0  0
    3.8725    1.2584    0.0000 C   0  0  0  0  0  0  0  0  0  0  0  0
    2.4958    1.8538    0.0000 C   0  0  0  0  0  0  0  0  0  0  0  0
    2.6685    0.3638    0.0000 C   0  0  0  0  0  0  0  0  0  0  0  0
    1.2917    0.9593    0.0000 C   0  0  0  0  0  0  0  0  0  0  0  0
    0.0877    0.0647    0.0000 C   0  0  0  0  0  0  0  0  0  0  0  0
    0.2604   -1.4253    0.0000 C   0  0  0  0  0  0  0  0  0  0  0  0
   -1.1710   -0.9771    0.0000 C   0  0  0  0  0  0  0  0  0  0  0  0
  2  1  1  6
  2  3  1  0
  3  4  1  0
  4  5  1  0
  5  6  2  0
  5  7  1  0
  7  8  2  0
  7  9  1  0
  9 10  1  0
 10 11  2  0
 10 12  1  0
  2 13  1  0
 13 14  1  6
 14 15  1  0
 16 15  1  6
 16 17  1  0
 17 18  1  1
 18 19  1  1
 18 20  1  0
 20 21  1  1
 20 22  1  0
 22 23  1  1
 23 24  1  0
 24 25  1  1
 24 26  1  0
 26 27  1  0
 27 28  1  0
 28 29  1  6
 28 30  1  0
 30 31  1  6
 31 32  1  0
 32 33  1  0
 33 34  1  6
 33 13  1  0
 33 16  1  0
 30 17  1  0
 28 22  1  0
M  END
>  <MS_ID>  (2406) 
MS2491

>  <SMILES>  (2406) 
C[C@H](CCC(=O)C(=O)CC(=O)O)[C@H]1CC[C@H]2[C@@H]3[C@H](O)[C@H](O)[C@@H]4C[C@H](O)CC[C@]4(C)[C@H]3CC[C@]12C

>  <Structure_dimension>  (2406) 
2D

$$$$
MS2492
     RDKit          2D

 32 35  0  0  0  0  0  0  0  0999 V2000
   -3.6519   -3.4889    0.0000 C   0  0  0  0  0  0  0  0  0  0  0  0
   -2.7185   -2.3147    0.0000 C   0  0  0  0  0  0  0  0  0  0  0  0
   -3.2687   -0.9192    0.0000 C   0  0  0  0  0  0  0  0  0  0  0  0
   -4.7523   -0.6980    0.0000 C   0  0  0  0  0  0  0  0  0  0  0  0
   -5.3024    0.6975    0.0000 C   0  0  0  0  0  0  0  0  0  0  0  0
   -4.3690    1.8717    0.0000 O   0  0  0  0  0  0  0  0  0  0  0  0
   -6.7860    0.9188    0.0000 C   0  0  0  0  0  0  0  0  0  0  0  0
   -7.3362    2.3142    0.0000 C   0  0  0  0  0  0  0  0  0  0  0  0
   -6.4028    3.4884    0.0000 O   0  0  0  0  0  0  0  0  0  0  0  0
   -8.8198    2.5355    0.0000 O   0  0  0  0  0  0  0  0  0  0  0  0
   -1.2349   -2.5360    0.0000 C   0  0  0  0  0  0  0  0  0  0  0  0
   -0.5419   -3.8663    0.0000 C   0  0  0  0  0  0  0  0  0  0  0  0
    0.9375   -3.6183    0.0000 C   0  0  0  0  0  0  0  0  0  0  0  0
    1.1587   -2.1347    0.0000 C   0  0  0  0  0  0  0  0  0  0  0  0
    2.4093   -1.3064    0.0000 C   0  0  0  0  0  0  0  0  0  0  0  0
    3.7519   -1.9753    0.0000 C   0  0  0  0  0  0  0  0  0  0  0  0
    3.8439   -3.4725    0.0000 O   0  0  0  0  0  0  0  0  0  0  0  0
    5.0025   -1.1470    0.0000 C   0  0  0  0  0  0  0  0  0  0  0  0
    4.9105    0.3502    0.0000 C   0  0  0  0  0  0  0  0  0  0  0  0
    6.1611    1.1784    0.0000 C   0  0  0  0  0  0  0  0  0  0  0  0
    6.0690    2.6756    0.0000 C   0  0  0  0  0  0  0  0  0  0  0  0
    7.3196    3.5039    0.0000 O   0  0  0  0  0  0  0  0  0  0  0  0
    4.7264    3.3445    0.0000 C   0  0  0  0  0  0  0  0  0  0  0  0
    3.4759    2.5162    0.0000 C   0  0  0  0  0  0  0  0  0  0  0  0
    3.5679    1.0191    0.0000 C   0  0  0  0  0  0  0  0  0  0  0  0
    2.2253    1.6879    0.0000 C   0  0  0  0  0  0  0  0  0  0  0  0
    2.3173    0.1908    0.0000 C   0  0  0  0  0  0  0  0  0  0  0  0
    0.9747    0.8597    0.0000 C   0  0  0  0  0  0  0  0  0  0  0  0
   -0.2759    0.0314    0.0000 C   0  0  0  0  0  0  0  0  0  0  0  0
   -1.6185    0.7003    0.0000 O   0  0  0  0  0  0  0  0  0  0  0  0
   -0.1839   -1.4658    0.0000 C   0  0  0  0  0  0  0  0  0  0  0  0
   -1.5890   -0.9409    0.0000 C   0  0  0  0  0  0  0  0  0  0  0  0
  2  1  1  6
  2  3  1  0
  3  4  1  0
  4  5  1  0
  5  6  2  0
  5  7  1  0
  7  8  1  0
  8  9  2  0
  8 10  1  0
  2 11  1  0
 11 12  1  6
 12 13  1  0
 14 13  1  6
 14 15  1  0
 15 16  1  1
 16 17  1  1
 16 18  1  0
 19 18  1  1
 19 20  1  0
 20 21  1  0
 21 22  1  6
 21 23  1  0
 23 24  1  0
 24 25  1  0
 25 26  1  6
 25 27  1  0
 27 28  1  6
 28 29  1  0
 29 30  1  6
 29 31  1  0
 31 32  1  6
 31 11  1  0
 31 14  1  0
 27 15  1  0
 25 19  1  0
M  END
>  <MS_ID>  (2407) 
MS2492

>  <SMILES>  (2407) 
C[C@H](CCC(=O)CC(=O)O)[C@H]1CC[C@H]2[C@@H]3[C@H](O)C[C@@H]4C[C@@H](O)CC[C@]4(C)[C@H]3C[C@@H](O)[C@]12C

>  <Structure_dimension>  (2407) 
2D

$$$$
MS2493
     RDKit          2D

 33 37  0  0  0  0  0  0  0  0999 V2000
   -3.6298   -3.2263    0.0000 C   0  0  0  0  0  0  0  0  0  0  0  0
   -2.6726   -2.0715    0.0000 C   0  0  0  0  0  0  0  0  0  0  0  0
   -3.1941   -0.6650    0.0000 C   0  0  0  0  0  0  0  0  0  0  0  0
   -4.6728   -0.4135    0.0000 C   0  0  0  0  0  0  0  0  0  0  0  0
   -5.1944    0.9930    0.0000 C   0  0  0  0  0  0  0  0  0  0  0  0
   -4.2371    2.1478    0.0000 O   0  0  0  0  0  0  0  0  0  0  0  0
   -6.6731    1.2445    0.0000 N   0  0  0  0  0  0  0  0  0  0  0  0
   -7.7458    0.1960    0.0000 C   0  0  0  0  0  0  0  0  0  0  0  0
   -9.0745    0.8923    0.0000 N   0  0  0  0  0  0  0  0  0  0  0  0
   -8.8229    2.3710    0.0000 C   0  0  0  0  0  0  0  0  0  0  0  0
   -7.3388    2.5887    0.0000 N   0  0  0  0  0  0  0  0  0  0  0  0
   -1.1938   -2.3230    0.0000 C   0  0  0  0  0  0  0  0  0  0  0  0
   -0.5281   -3.6672    0.0000 C   0  0  0  0  0  0  0  0  0  0  0  0
    0.9560   -3.4495    0.0000 C   0  0  0  0  0  0  0  0  0  0  0  0
    1.2075   -1.9708    0.0000 C   0  0  0  0  0  0  0  0  0  0  0  0
    2.4748   -1.1682    0.0000 C   0  0  0  0  0  0  0  0  0  0  0  0
    3.8034   -1.8644    0.0000 C   0  0  0  0  0  0  0  0  0  0  0  0
    3.8648   -3.3632    0.0000 O   0  0  0  0  0  0  0  0  0  0  0  0
    5.0707   -1.0619    0.0000 C   0  0  0  0  0  0  0  0  0  0  0  0
    6.3993   -1.7581    0.0000 O   0  0  0  0  0  0  0  0  0  0  0  0
    5.0093    0.4368    0.0000 C   0  0  0  0  0  0  0  0  0  0  0  0
    6.2766    1.2394    0.0000 C   0  0  0  0  0  0  0  0  0  0  0  0
    6.2152    2.7381    0.0000 C   0  0  0  0  0  0  0  0  0  0  0  0
    7.4824    3.5407    0.0000 O   0  0  0  0  0  0  0  0  0  0  0  0
    4.8865    3.4343    0.0000 C   0  0  0  0  0  0  0  0  0  0  0  0
    3.6193    2.6318    0.0000 C   0  0  0  0  0  0  0  0  0  0  0  0
    3.6807    1.1331    0.0000 C   0  0  0  0  0  0  0  0  0  0  0  0
    2.3520    1.8293    0.0000 C   0  0  0  0  0  0  0  0  0  0  0  0
    2.4134    0.3305    0.0000 C   0  0  0  0  0  0  0  0  0  0  0  0
    1.0848    1.0267    0.0000 C   0  0  0  0  0  0  0  0  0  0  0  0
   -0.1825    0.2242    0.0000 C   0  0  0  0  0  0  0  0  0  0  0  0
   -0.1211   -1.2745    0.0000 C   0  0  0  0  0  0  0  0  0  0  0  0
   -1.5152   -0.7210    0.0000 C   0  0  0  0  0  0  0  0  0  0  0  0
  2  1  1  6
  2  3  1  0
  3  4  1  0
  4  5  1  0
  5  6  2  0
  5  7  1  0
  7  8  1  0
  8  9  2  0
  9 10  1  0
 10 11  2  0
  2 12  1  0
 12 13  1  6
 13 14  1  0
 15 14  1  6
 15 16  1  0
 16 17  1  1
 17 18  1  1
 17 19  1  0
 19 20  1  1
 19 21  1  0
 21 22  1  1
 22 23  1  0
 23 24  1  1
 23 25  1  0
 25 26  1  0
 26 27  1  0
 27 28  1  6
 27 29  1  0
 29 30  1  6
 30 31  1  0
 31 32  1  0
 32 33  1  6
 11  7  1  0
 32 12  1  0
 32 15  1  0
 29 16  1  0
 27 21  1  0
M  END
>  <MS_ID>  (2408) 
MS2493

>  <SMILES>  (2408) 
C[C@H](CCC(=O)n1cncn1)[C@H]1CC[C@H]2[C@@H]3[C@H](O)[C@H](O)[C@@H]4C[C@H](O)CC[C@]4(C)[C@H]3CC[C@]12C

>  <Structure_dimension>  (2408) 
2D

$$$$
MS2494
     RDKit          2D

 33 37  0  0  0  0  0  0  0  0999 V2000
   -3.4505   -3.2444    0.0000 C   0  0  0  0  0  0  0  0  0  0  0  0
   -2.4721   -2.1074    0.0000 C   0  0  0  0  0  0  0  0  0  0  0  0
   -2.9676   -0.6916    0.0000 C   0  0  0  0  0  0  0  0  0  0  0  0
   -4.4415   -0.4128    0.0000 C   0  0  0  0  0  0  0  0  0  0  0  0
   -4.9370    1.0030    0.0000 C   0  0  0  0  0  0  0  0  0  0  0  0
   -3.9586    2.1400    0.0000 O   0  0  0  0  0  0  0  0  0  0  0  0
   -6.4109    1.2817    0.0000 N   0  0  0  0  0  0  0  0  0  0  0  0
   -7.5027    0.2532    0.0000 C   0  0  0  0  0  0  0  0  0  0  0  0
   -8.8183    0.9738    0.0000 N   0  0  0  0  0  0  0  0  0  0  0  0
   -8.5395    2.4477    0.0000 C   0  0  0  0  0  0  0  0  0  0  0  0
   -7.0517    2.6380    0.0000 N   0  0  0  0  0  0  0  0  0  0  0  0
   -0.9983   -2.3862    0.0000 C   0  0  0  0  0  0  0  0  0  0  0  0
   -0.3575   -3.7424    0.0000 C   0  0  0  0  0  0  0  0  0  0  0  0
    1.1304   -3.5521    0.0000 C   0  0  0  0  0  0  0  0  0  0  0  0
    1.4092   -2.0783    0.0000 C   0  0  0  0  0  0  0  0  0  0  0  0
    2.6910   -1.2992    0.0000 C   0  0  0  0  0  0  0  0  0  0  0  0
    4.0066   -2.0198    0.0000 C   0  0  0  0  0  0  0  0  0  0  0  0
    4.0403   -3.5194    0.0000 O   0  0  0  0  0  0  0  0  0  0  0  0
    5.2884   -1.2408    0.0000 C   0  0  0  0  0  0  0  0  0  0  0  0
    5.2547    0.2589    0.0000 C   0  0  0  0  0  0  0  0  0  0  0  0
    6.5365    1.0379    0.0000 C   0  0  0  0  0  0  0  0  0  0  0  0
    6.5028    2.5375    0.0000 C   0  0  0  0  0  0  0  0  0  0  0  0
    7.7846    3.3166    0.0000 O   0  0  0  0  0  0  0  0  0  0  0  0
    5.1872    3.2581    0.0000 C   0  0  0  0  0  0  0  0  0  0  0  0
    3.9054    2.4791    0.0000 C   0  0  0  0  0  0  0  0  0  0  0  0
    3.9391    0.9794    0.0000 C   0  0  0  0  0  0  0  0  0  0  0  0
    2.6235    1.7000    0.0000 C   0  0  0  0  0  0  0  0  0  0  0  0
    2.6573    0.2004    0.0000 C   0  0  0  0  0  0  0  0  0  0  0  0
    1.3417    0.9210    0.0000 C   0  0  0  0  0  0  0  0  0  0  0  0
    0.0598    0.1420    0.0000 C   0  0  0  0  0  0  0  0  0  0  0  0
   -1.2557    0.8625    0.0000 O   0  0  0  0  0  0  0  0  0  0  0  0
    0.0936   -1.3577    0.0000 C   0  0  0  0  0  0  0  0  0  0  0  0
   -1.2901   -0.7785    0.0000 C   0  0  0  0  0  0  0  0  0  0  0  0
  2  1  1  6
  2  3  1  0
  3  4  1  0
  4  5  1  0
  5  6  2  0
  5  7  1  0
  7  8  1  0
  8  9  2  0
  9 10  1  0
 10 11  2  0
  2 12  1  0
 12 13  1  6
 13 14  1  0
 15 14  1  6
 15 16  1  0
 16 17  1  1
 17 18  1  1
 17 19  1  0
 20 19  1  1
 20 21  1  0
 21 22  1  0
 22 23  1  1
 22 24  1  0
 24 25  1  0
 25 26  1  0
 26 27  1  6
 26 28  1  0
 28 29  1  6
 29 30  1  0
 30 31  1  1
 30 32  1  0
 32 33  1  6
 11  7  1  0
 32 12  1  0
 32 15  1  0
 28 16  1  0
 26 20  1  0
M  END
>  <MS_ID>  (2409) 
MS2494

>  <SMILES>  (2409) 
C[C@H](CCC(=O)n1cncn1)[C@H]1CC[C@H]2[C@@H]3[C@H](O)C[C@@H]4C[C@H](O)CC[C@]4(C)[C@H]3C[C@H](O)[C@]12C

>  <Structure_dimension>  (2409) 
2D

$$$$
MS2495
     RDKit          2D

 34 38  0  0  0  0  0  0  0  0999 V2000
   -2.6599   -4.1335    0.0000 C   0  0  0  0  0  0  0  0  0  0  0  0
   -1.8847   -2.8494    0.0000 C   0  0  0  0  0  0  0  0  0  0  0  0
   -2.6091   -1.5360    0.0000 C   0  0  0  0  0  0  0  0  0  0  0  0
   -4.1089   -1.5067    0.0000 C   0  0  0  0  0  0  0  0  0  0  0  0
   -4.8333   -0.1932    0.0000 C   0  0  0  0  0  0  0  0  0  0  0  0
   -4.0581    1.0909    0.0000 O   0  0  0  0  0  0  0  0  0  0  0  0
   -6.3331   -0.1639    0.0000 N   0  0  0  0  0  0  0  0  0  0  0  0
   -7.0575    1.1495    0.0000 C   0  0  0  0  0  0  0  0  0  0  0  0
   -8.5460    1.3354    0.0000 C   0  0  0  0  0  0  0  0  0  0  0  0
   -8.8291    2.8085    0.0000 C   0  0  0  0  0  0  0  0  0  0  0  0
   -7.5157    3.5330    0.0000 C   0  0  0  0  0  0  0  0  0  0  0  0
   -6.4208    2.5077    0.0000 O   0  0  0  0  0  0  0  0  0  0  0  0
   -0.3850   -2.8787    0.0000 C   0  0  0  0  0  0  0  0  0  0  0  0
    0.4728   -4.1092    0.0000 C   0  0  0  0  0  0  0  0  0  0  0  0
    1.9082   -3.6737    0.0000 C   0  0  0  0  0  0  0  0  0  0  0  0
    1.9375   -2.1740    0.0000 C   0  0  0  0  0  0  0  0  0  0  0  0
    3.0716   -1.1922    0.0000 C   0  0  0  0  0  0  0  0  0  0  0  0
    4.4889   -1.6835    0.0000 C   0  0  0  0  0  0  0  0  0  0  0  0
    4.7720   -3.1566    0.0000 O   0  0  0  0  0  0  0  0  0  0  0  0
    5.6230   -0.7018    0.0000 C   0  0  0  0  0  0  0  0  0  0  0  0
    5.3399    0.7712    0.0000 C   0  0  0  0  0  0  0  0  0  0  0  0
    6.4740    1.7530    0.0000 C   0  0  0  0  0  0  0  0  0  0  0  0
    6.1908    3.2260    0.0000 C   0  0  0  0  0  0  0  0  0  0  0  0
    7.3249    4.2077    0.0000 O   0  0  0  0  0  0  0  0  0  0  0  0
    4.7736    3.7173    0.0000 C   0  0  0  0  0  0  0  0  0  0  0  0
    3.6395    2.7356    0.0000 C   0  0  0  0  0  0  0  0  0  0  0  0
    3.9226    1.2625    0.0000 C   0  0  0  0  0  0  0  0  0  0  0  0
    2.5053    1.7538    0.0000 C   0  0  0  0  0  0  0  0  0  0  0  0
    2.7885    0.2808    0.0000 C   0  0  0  0  0  0  0  0  0  0  0  0
    1.3712    0.7721    0.0000 C   0  0  0  0  0  0  0  0  0  0  0  0
    0.2371   -0.2096    0.0000 C   0  0  0  0  0  0  0  0  0  0  0  0
   -1.1801    0.2817    0.0000 O   0  0  0  0  0  0  0  0  0  0  0  0
    0.5203   -1.6826    0.0000 C   0  0  0  0  0  0  0  0  0  0  0  0
   -0.9406   -1.3422    0.0000 C   0  0  0  0  0  0  0  0  0  0  0  0
  2  1  1  6
  2  3  1  0
  3  4  1  0
  4  5  1  0
  5  6  2  0
  5  7  1  0
  7  8  1  0
  8  9  2  0
  9 10  1  0
 10 11  2  0
 11 12  1  0
  2 13  1  0
 13 14  1  6
 14 15  1  0
 16 15  1  6
 16 17  1  0
 17 18  1  1
 18 19  1  1
 18 20  1  0
 21 20  1  1
 21 22  1  0
 22 23  1  0
 23 24  1  1
 23 25  1  0
 25 26  1  0
 26 27  1  0
 27 28  1  6
 27 29  1  0
 29 30  1  6
 30 31  1  0
 31 32  1  1
 31 33  1  0
 33 34  1  6
 12  8  1  0
 33 13  1  0
 33 16  1  0
 29 17  1  0
 27 21  1  0
M  END
>  <MS_ID>  (2410) 
MS2495

>  <SMILES>  (2410) 
C[C@H](CCC(=O)Nc1ccco1)[C@H]1CC[C@H]2[C@@H]3[C@H](O)C[C@@H]4C[C@H](O)CC[C@]4(C)[C@H]3C[C@H](O)[C@]12C

>  <Structure_dimension>  (2410) 
2D

$$$$
MS2496
     RDKit          2D

 31 34  0  0  0  0  0  0  0  0999 V2000
   -4.0382   -3.1592    0.0000 C   0  0  0  0  0  0  0  0  0  0  0  0
   -3.0416   -2.0381    0.0000 C   0  0  0  0  0  0  0  0  0  0  0  0
   -3.5143   -0.6145    0.0000 C   0  0  0  0  0  0  0  0  0  0  0  0
   -4.9835   -0.3121    0.0000 C   0  0  0  0  0  0  0  0  0  0  0  0
   -5.4561    1.1115    0.0000 C   0  0  0  0  0  0  0  0  0  0  0  0
   -4.4596    2.2326    0.0000 O   0  0  0  0  0  0  0  0  0  0  0  0
   -6.9253    1.4140    0.0000 C   0  0  0  0  0  0  0  0  0  0  0  0
   -7.3980    2.8376    0.0000 C   0  0  0  0  0  0  0  0  0  0  0  0
   -8.8672    3.1400    0.0000 O   0  0  0  0  0  0  0  0  0  0  0  0
   -1.5724   -2.3406    0.0000 C   0  0  0  0  0  0  0  0  0  0  0  0
   -0.9536   -3.7070    0.0000 C   0  0  0  0  0  0  0  0  0  0  0  0
    0.5372   -3.5406    0.0000 C   0  0  0  0  0  0  0  0  0  0  0  0
    0.8396   -2.0714    0.0000 C   0  0  0  0  0  0  0  0  0  0  0  0
    2.1338   -1.3131    0.0000 C   0  0  0  0  0  0  0  0  0  0  0  0
    3.4377   -2.0548    0.0000 C   0  0  0  0  0  0  0  0  0  0  0  0
    3.4473   -3.5547    0.0000 O   0  0  0  0  0  0  0  0  0  0  0  0
    4.7319   -1.2965    0.0000 C   0  0  0  0  0  0  0  0  0  0  0  0
    4.7223    0.2035    0.0000 C   0  0  0  0  0  0  0  0  0  0  0  0
    6.0165    0.9618    0.0000 C   0  0  0  0  0  0  0  0  0  0  0  0
    6.0069    2.4618    0.0000 C   0  0  0  0  0  0  0  0  0  0  0  0
    7.3011    3.2201    0.0000 O   0  0  0  0  0  0  0  0  0  0  0  0
    4.7030    3.2034    0.0000 C   0  0  0  0  0  0  0  0  0  0  0  0
    3.4088    2.4451    0.0000 C   0  0  0  0  0  0  0  0  0  0  0  0
    3.4184    0.9452    0.0000 C   0  0  0  0  0  0  0  0  0  0  0  0
    2.1146    1.6868    0.0000 C   0  0  0  0  0  0  0  0  0  0  0  0
    2.1242    0.1869    0.0000 C   0  0  0  0  0  0  0  0  0  0  0  0
    0.8204    0.9285    0.0000 C   0  0  0  0  0  0  0  0  0  0  0  0
   -0.4738    0.1702    0.0000 C   0  0  0  0  0  0  0  0  0  0  0  0
   -1.7776    0.9119    0.0000 O   0  0  0  0  0  0  0  0  0  0  0  0
   -0.4642   -1.3298    0.0000 C   0  0  0  0  0  0  0  0  0  0  0  0
   -1.8384   -0.7284    0.0000 C   0  0  0  0  0  0  0  0  0  0  0  0
  2  1  1  6
  2  3  1  0
  3  4  1  0
  4  5  1  0
  5  6  2  0
  5  7  1  0
  7  8  2  0
  8  9  1  0
  2 10  1  0
 10 11  1  6
 11 12  1  0
 13 12  1  6
 13 14  1  0
 14 15  1  1
 15 16  1  1
 15 17  1  0
 18 17  1  1
 18 19  1  0
 19 20  1  0
 20 21  1  1
 20 22  1  0
 22 23  1  0
 23 24  1  0
 24 25  1  6
 24 26  1  0
 26 27  1  6
 27 28  1  0
 28 29  1  1
 28 30  1  0
 30 31  1  6
 30 10  1  0
 30 13  1  0
 26 14  1  0
 24 18  1  0
M  END
>  <MS_ID>  (2411) 
MS2496

>  <SMILES>  (2411) 
C[C@H](CCC(=O)/C=C/O)[C@H]1CC[C@H]2[C@@H]3[C@H](O)C[C@@H]4C[C@H](O)CC[C@]4(C)[C@H]3C[C@H](O)[C@]12C

>  <Structure_dimension>  (2411) 
2D

$$$$
MS2497
     RDKit          2D

 29 32  0  0  0  0  0  0  0  0999 V2000
   -5.0303   -2.1373    0.0000 C   0  0  0  0  0  0  0  0  0  0  0  0
   -3.8594   -1.1998    0.0000 C   0  0  0  0  0  0  0  0  0  0  0  0
   -4.0858    0.2830    0.0000 C   0  0  0  0  0  0  0  0  0  0  0  0
   -5.4831    0.8284    0.0000 C   0  0  0  0  0  0  0  0  0  0  0  0
   -5.7095    2.3112    0.0000 C   0  0  0  0  0  0  0  0  0  0  0  0
   -4.5386    3.2487    0.0000 O   0  0  0  0  0  0  0  0  0  0  0  0
   -7.1069    2.8565    0.0000 O   0  0  0  0  0  0  0  0  0  0  0  0
   -2.4620   -1.7451    0.0000 C   0  0  0  0  0  0  0  0  0  0  0  0
   -2.0818   -3.1961    0.0000 C   0  0  0  0  0  0  0  0  0  0  0  0
   -0.5844   -3.2830    0.0000 C   0  0  0  0  0  0  0  0  0  0  0  0
   -0.0390   -1.8856    0.0000 C   0  0  0  0  0  0  0  0  0  0  0  0
    1.3643   -1.3559    0.0000 C   0  0  0  0  0  0  0  0  0  0  0  0
    2.5248   -2.3063    0.0000 C   0  0  0  0  0  0  0  0  0  0  0  0
    2.2819   -3.7865    0.0000 N   0  0  0  0  0  0  0  0  0  0  0  0
    3.9281   -1.7765    0.0000 C   0  0  0  0  0  0  0  0  0  0  0  0
    4.1710   -0.2963    0.0000 C   0  0  0  0  0  0  0  0  0  0  0  0
    5.5743    0.2334    0.0000 C   0  0  0  0  0  0  0  0  0  0  0  0
    5.8172    1.7136    0.0000 C   0  0  0  0  0  0  0  0  0  0  0  0
    7.2205    2.2434    0.0000 O   0  0  0  0  0  0  0  0  0  0  0  0
    4.6568    2.6641    0.0000 C   0  0  0  0  0  0  0  0  0  0  0  0
    3.2534    2.1343    0.0000 C   0  0  0  0  0  0  0  0  0  0  0  0
    3.0105    0.6541    0.0000 C   0  0  0  0  0  0  0  0  0  0  0  0
    1.8501    1.6046    0.0000 C   0  0  0  0  0  0  0  0  0  0  0  0
    1.6072    0.1244    0.0000 C   0  0  0  0  0  0  0  0  0  0  0  0
    0.4467    1.0748    0.0000 C   0  0  0  0  0  0  0  0  0  0  0  0
   -0.9566    0.5450    0.0000 C   0  0  0  0  0  0  0  0  0  0  0  0
   -2.1170    1.4955    0.0000 O   0  0  0  0  0  0  0  0  0  0  0  0
   -1.1995   -0.9352    0.0000 C   0  0  0  0  0  0  0  0  0  0  0  0
   -2.4529   -0.1112    0.0000 C   0  0  0  0  0  0  0  0  0  0  0  0
  2  1  1  6
  2  3  1  0
  3  4  1  0
  4  5  1  0
  5  6  2  0
  5  7  1  0
  2  8  1  0
  8  9  1  6
  9 10  1  0
 11 10  1  6
 11 12  1  0
 12 13  1  1
 13 14  1  6
 13 15  1  0
 16 15  1  1
 16 17  1  0
 17 18  1  0
 18 19  1  1
 18 20  1  0
 20 21  1  0
 21 22  1  0
 22 23  1  6
 22 24  1  0
 24 25  1  6
 25 26  1  0
 26 27  2  0
 26 28  1  0
 28 29  1  6
 28  8  1  0
 28 11  1  0
 24 12  1  0
 22 16  1  0
M  END
>  <MS_ID>  (2412) 
MS2497

>  <SMILES>  (2412) 
C[C@H](CCC(=O)O)[C@H]1CC[C@H]2[C@@H]3[C@@H](N)C[C@@H]4C[C@H](O)CC[C@]4(C)[C@H]3CC(=O)[C@]12C

>  <Structure_dimension>  (2412) 
2D

$$$$
MS2498
     RDKit          2D

 29 32  0  0  0  0  0  0  0  0999 V2000
   -5.1421   -2.1269    0.0000 C   0  0  0  0  0  0  0  0  0  0  0  0
   -4.0091   -1.1439    0.0000 C   0  0  0  0  0  0  0  0  0  0  0  0
   -4.2938    0.3288    0.0000 C   0  0  0  0  0  0  0  0  0  0  0  0
   -5.7116    0.8186    0.0000 C   0  0  0  0  0  0  0  0  0  0  0  0
   -5.9963    2.2913    0.0000 C   0  0  0  0  0  0  0  0  0  0  0  0
   -4.8632    3.2743    0.0000 O   0  0  0  0  0  0  0  0  0  0  0  0
   -7.4141    2.7811    0.0000 O   0  0  0  0  0  0  0  0  0  0  0  0
   -2.5913   -1.6337    0.0000 C   0  0  0  0  0  0  0  0  0  0  0  0
   -2.1542   -3.0686    0.0000 C   0  0  0  0  0  0  0  0  0  0  0  0
   -0.6544   -3.0963    0.0000 C   0  0  0  0  0  0  0  0  0  0  0  0
   -0.1646   -1.6785    0.0000 C   0  0  0  0  0  0  0  0  0  0  0  0
    1.2167   -1.0938    0.0000 C   0  0  0  0  0  0  0  0  0  0  0  0
    2.4137   -1.9977    0.0000 C   0  0  0  0  0  0  0  0  0  0  0  0
    2.2294   -3.4864    0.0000 C   0  0  0  0  0  0  0  0  0  0  0  0
    3.4265   -4.3903    0.0000 F   0  0  0  0  0  0  0  0  0  0  0  0
    3.7951   -1.4130    0.0000 C   0  0  0  0  0  0  0  0  0  0  0  0
    3.9794    0.0756    0.0000 C   0  0  0  0  0  0  0  0  0  0  0  0
    5.3607    0.6603    0.0000 C   0  0  0  0  0  0  0  0  0  0  0  0
    5.5451    2.1489    0.0000 C   0  0  0  0  0  0  0  0  0  0  0  0
    6.9264    2.7336    0.0000 O   0  0  0  0  0  0  0  0  0  0  0  0
    4.3480    3.0529    0.0000 C   0  0  0  0  0  0  0  0  0  0  0  0
    2.9667    2.4682    0.0000 C   0  0  0  0  0  0  0  0  0  0  0  0
    2.7824    0.9795    0.0000 C   0  0  0  0  0  0  0  0  0  0  0  0
    1.5853    1.8835    0.0000 C   0  0  0  0  0  0  0  0  0  0  0  0
    1.4010    0.3948    0.0000 C   0  0  0  0  0  0  0  0  0  0  0  0
    0.2040    1.2988    0.0000 C   0  0  0  0  0  0  0  0  0  0  0  0
   -1.1774    0.7141    0.0000 C   0  0  0  0  0  0  0  0  0  0  0  0
   -1.3617   -0.7746    0.0000 C   0  0  0  0  0  0  0  0  0  0  0  0
   -2.6467   -0.0007    0.0000 C   0  0  0  0  0  0  0  0  0  0  0  0
  2  1  1  6
  2  3  1  0
  3  4  1  0
  4  5  1  0
  5  6  2  0
  5  7  1  0
  2  8  1  0
  8  9  1  6
  9 10  1  0
 11 10  1  6
 11 12  1  0
 12 13  1  1
 13 14  1  6
 14 15  1  0
 13 16  1  0
 17 16  1  1
 17 18  1  0
 18 19  1  0
 19 20  1  1
 19 21  1  0
 21 22  1  0
 22 23  1  0
 23 24  1  6
 23 25  1  0
 25 26  1  6
 26 27  1  0
 27 28  1  0
 28 29  1  6
 28  8  1  0
 28 11  1  0
 25 12  1  0
 23 17  1  0
M  END
>  <MS_ID>  (2413) 
MS2498

>  <SMILES>  (2413) 
C[C@H](CCC(=O)O)[C@H]1CC[C@H]2[C@@H]3[C@@H](CF)C[C@@H]4C[C@H](O)CC[C@]4(C)[C@H]3CC[C@]12C

>  <Structure_dimension>  (2413) 
2D

$$$$
MS2499
     RDKit          2D

 36 39  0  0  0  0  0  0  0  0999 V2000
   -1.7220   -3.8670    0.0000 C   0  0  0  0  0  0  0  0  0  0  0  0
   -0.8949   -2.6157    0.0000 C   0  0  0  0  0  0  0  0  0  0  0  0
   -1.5651   -1.2737    0.0000 C   0  0  0  0  0  0  0  0  0  0  0  0
   -3.0624   -1.1831    0.0000 C   0  0  0  0  0  0  0  0  0  0  0  0
   -3.7325    0.1589    0.0000 C   0  0  0  0  0  0  0  0  0  0  0  0
   -2.9054    1.4102    0.0000 O   0  0  0  0  0  0  0  0  0  0  0  0
   -5.2298    0.2495    0.0000 O   0  0  0  0  0  0  0  0  0  0  0  0
   -5.8999    1.5915    0.0000 C   0  0  0  0  0  0  0  0  0  0  0  0
   -7.3972    1.6821    0.0000 C   0  0  0  0  0  0  0  0  0  0  0  0
   -8.0673    3.0241    0.0000 O   0  0  0  0  0  0  0  0  0  0  0  0
   -8.2243    0.4307    0.0000 O   0  0  0  0  0  0  0  0  0  0  0  0
   -9.7216    0.5213    0.0000 S   0  0  0  0  0  0  0  0  0  0  0  0
   -9.6309    2.0186    0.0000 O   0  0  0  0  0  0  0  0  0  0  0  0
   -9.8122   -0.9759    0.0000 O   0  0  0  0  0  0  0  0  0  0  0  0
  -11.2188    0.6120    0.0000 O   0  0  0  0  0  0  0  0  0  0  0  0
    0.6023   -2.7063    0.0000 C   0  0  0  0  0  0  0  0  0  0  0  0
    1.4091   -3.9709    0.0000 C   0  0  0  0  0  0  0  0  0  0  0  0
    2.8611   -3.5944    0.0000 C   0  0  0  0  0  0  0  0  0  0  0  0
    2.9517   -2.0971    0.0000 C   0  0  0  0  0  0  0  0  0  0  0  0
    4.1250   -1.1626    0.0000 C   0  0  0  0  0  0  0  0  0  0  0  0
    5.5210   -1.7114    0.0000 C   0  0  0  0  0  0  0  0  0  0  0  0
    5.7436   -3.1948    0.0000 O   0  0  0  0  0  0  0  0  0  0  0  0
    6.6943   -0.7769    0.0000 C   0  0  0  0  0  0  0  0  0  0  0  0
    6.4716    0.7065    0.0000 C   0  0  0  0  0  0  0  0  0  0  0  0
    7.6449    1.6410    0.0000 C   0  0  0  0  0  0  0  0  0  0  0  0
    7.4223    3.1244    0.0000 C   0  0  0  0  0  0  0  0  0  0  0  0
    8.5956    4.0589    0.0000 O   0  0  0  0  0  0  0  0  0  0  0  0
    6.0263    3.6732    0.0000 C   0  0  0  0  0  0  0  0  0  0  0  0
    4.8530    2.7387    0.0000 C   0  0  0  0  0  0  0  0  0  0  0  0
    5.0756    1.2553    0.0000 C   0  0  0  0  0  0  0  0  0  0  0  0
    3.6797    1.8042    0.0000 C   0  0  0  0  0  0  0  0  0  0  0  0
    3.9023    0.3208    0.0000 C   0  0  0  0  0  0  0  0  0  0  0  0
    2.5063    0.8697    0.0000 C   0  0  0  0  0  0  0  0  0  0  0  0
    1.3330   -0.0649    0.0000 C   0  0  0  0  0  0  0  0  0  0  0  0
    1.5557   -1.5483    0.0000 C   0  0  0  0  0  0  0  0  0  0  0  0
    0.1100   -1.1483    0.0000 C   0  0  0  0  0  0  0  0  0  0  0  0
  2  1  1  6
  2  3  1  0
  3  4  1  0
  4  5  1  0
  5  6  2  0
  5  7  1  0
  7  8  1  0
  8  9  1  0
  9 10  2  0
  9 11  1  0
 11 12  1  0
 12 13  2  0
 12 14  2  0
 12 15  1  0
  2 16  1  0
 16 17  1  6
 17 18  1  0
 19 18  1  6
 19 20  1  0
 20 21  1  1
 21 22  1  6
 21 23  1  0
 24 23  1  1
 24 25  1  0
 25 26  1  0
 26 27  1  1
 26 28  1  0
 28 29  1  0
 29 30  1  0
 30 31  1  6
 30 32  1  0
 32 33  1  6
 33 34  1  0
 34 35  1  0
 35 36  1  6
 35 16  1  0
 35 19  1  0
 32 20  1  0
 30 24  1  0
M  END
>  <MS_ID>  (2414) 
MS2499

>  <SMILES>  (2414) 
C[C@H](CCC(=O)OCC(=O)OS(=O)(=O)O)[C@H]1CC[C@H]2[C@@H]3[C@@H](O)C[C@@H]4C[C@H](O)CC[C@]4(C)[C@H]3CC[C@]12C

>  <Structure_dimension>  (2414) 
2D

$$$$
MS2500
     RDKit          2D

 30 33  0  0  0  0  0  0  0  0999 V2000
   -5.0361   -2.2421    0.0000 C   0  0  0  0  0  0  0  0  0  0  0  0
   -3.9151   -1.2454    0.0000 C   0  0  0  0  0  0  0  0  0  0  0  0
   -4.2177    0.2237    0.0000 C   0  0  0  0  0  0  0  0  0  0  0  0
   -5.6413    0.6963    0.0000 C   0  0  0  0  0  0  0  0  0  0  0  0
   -5.9439    2.1654    0.0000 C   0  0  0  0  0  0  0  0  0  0  0  0
   -4.8228    3.1621    0.0000 O   0  0  0  0  0  0  0  0  0  0  0  0
   -7.3675    2.6380    0.0000 O   0  0  0  0  0  0  0  0  0  0  0  0
   -2.4915   -1.7180    0.0000 C   0  0  0  0  0  0  0  0  0  0  0  0
   -2.0370   -3.1475    0.0000 C   0  0  0  0  0  0  0  0  0  0  0  0
   -0.5370   -3.1570    0.0000 C   0  0  0  0  0  0  0  0  0  0  0  0
   -0.0645   -1.7333    0.0000 C   0  0  0  0  0  0  0  0  0  0  0  0
    1.3097   -1.1319    0.0000 C   0  0  0  0  0  0  0  0  0  0  0  0
    2.5176   -2.0213    0.0000 C   0  0  0  0  0  0  0  0  0  0  0  0
    2.3514   -3.5120    0.0000 C   0  0  0  0  0  0  0  0  0  0  0  0
    3.5593   -4.4014    0.0000 N   0  0  0  0  0  0  0  0  0  0  0  0
    3.8918   -1.4198    0.0000 C   0  0  0  0  0  0  0  0  0  0  0  0
    4.0580    0.0709    0.0000 C   0  0  0  0  0  0  0  0  0  0  0  0
    5.4321    0.6723    0.0000 C   0  0  0  0  0  0  0  0  0  0  0  0
    5.5984    2.1631    0.0000 C   0  0  0  0  0  0  0  0  0  0  0  0
    6.9725    2.7645    0.0000 O   0  0  0  0  0  0  0  0  0  0  0  0
    4.3904    3.0524    0.0000 C   0  0  0  0  0  0  0  0  0  0  0  0
    3.0163    2.4510    0.0000 C   0  0  0  0  0  0  0  0  0  0  0  0
    2.8501    0.9603    0.0000 C   0  0  0  0  0  0  0  0  0  0  0  0
    1.6421    1.8496    0.0000 C   0  0  0  0  0  0  0  0  0  0  0  0
    1.4759    0.3588    0.0000 C   0  0  0  0  0  0  0  0  0  0  0  0
    0.2680    1.2482    0.0000 C   0  0  0  0  0  0  0  0  0  0  0  0
   -1.1062    0.6468    0.0000 C   0  0  0  0  0  0  0  0  0  0  0  0
   -2.3141    1.5361    0.0000 O   0  0  0  0  0  0  0  0  0  0  0  0
   -1.2724   -0.8440    0.0000 C   0  0  0  0  0  0  0  0  0  0  0  0
   -2.5667   -0.0858    0.0000 C   0  0  0  0  0  0  0  0  0  0  0  0
  2  1  1  6
  2  3  1  0
  3  4  1  0
  4  5  1  0
  5  6  2  0
  5  7  1  0
  2  8  1  0
  8  9  1  6
  9 10  1  0
 11 10  1  6
 11 12  1  0
 12 13  1  1
 13 14  1  1
 14 15  1  0
 13 16  1  0
 17 16  1  1
 17 18  1  0
 18 19  1  0
 19 20  1  6
 19 21  1  0
 21 22  1  0
 22 23  1  0
 23 24  1  6
 23 25  1  0
 25 26  1  6
 26 27  1  0
 27 28  1  1
 27 29  1  0
 29 30  1  6
 29  8  1  0
 29 11  1  0
 25 12  1  0
 23 17  1  0
M  END
>  <MS_ID>  (2415) 
MS2500

>  <SMILES>  (2415) 
C[C@H](CCC(=O)O)[C@H]1CC[C@H]2[C@@H]3[C@H](CN)C[C@@H]4C[C@@H](O)CC[C@]4(C)[C@H]3C[C@H](O)[C@]12C

>  <Structure_dimension>  (2415) 
2D

$$$$
MS2501
     RDKit          2D

 32 35  0  0  0  0  0  0  0  0999 V2000
   -2.7730   -3.1747    0.0000 C   0  0  0  0  0  0  0  0  0  0  0  0
   -1.7880   -2.0434    0.0000 C   0  0  0  0  0  0  0  0  0  0  0  0
   -2.2753   -0.6247    0.0000 C   0  0  0  0  0  0  0  0  0  0  0  0
   -3.7475   -0.3374    0.0000 C   0  0  0  0  0  0  0  0  0  0  0  0
   -4.2348    1.0813    0.0000 C   0  0  0  0  0  0  0  0  0  0  0  0
   -3.2499    2.2126    0.0000 O   0  0  0  0  0  0  0  0  0  0  0  0
   -5.7070    1.3686    0.0000 N   0  0  0  0  0  0  0  0  0  0  0  0
   -6.1943    2.7872    0.0000 C   0  0  0  0  0  0  0  0  0  0  0  0
   -6.6920    0.2373    0.0000 C   0  0  0  0  0  0  0  0  0  0  0  0
   -8.1642    0.5246    0.0000 C   0  0  0  0  0  0  0  0  0  0  0  0
   -8.6515    1.9432    0.0000 O   0  0  0  0  0  0  0  0  0  0  0  0
   -9.1492   -0.6067    0.0000 O   0  0  0  0  0  0  0  0  0  0  0  0
   -0.3158   -2.3307    0.0000 C   0  0  0  0  0  0  0  0  0  0  0  0
    0.3171   -3.6906    0.0000 C   0  0  0  0  0  0  0  0  0  0  0  0
    1.8060   -3.5090    0.0000 C   0  0  0  0  0  0  0  0  0  0  0  0
    2.0934   -2.0367    0.0000 C   0  0  0  0  0  0  0  0  0  0  0  0
    3.3797   -1.2652    0.0000 C   0  0  0  0  0  0  0  0  0  0  0  0
    4.6911   -1.9934    0.0000 C   0  0  0  0  0  0  0  0  0  0  0  0
    5.9774   -1.2218    0.0000 C   0  0  0  0  0  0  0  0  0  0  0  0
    5.9524    0.2780    0.0000 C   0  0  0  0  0  0  0  0  0  0  0  0
    7.2387    1.0496    0.0000 C   0  0  0  0  0  0  0  0  0  0  0  0
    7.2137    2.5494    0.0000 C   0  0  0  0  0  0  0  0  0  0  0  0
    5.9023    3.2776    0.0000 C   0  0  0  0  0  0  0  0  0  0  0  0
    4.6160    2.5060    0.0000 C   0  0  0  0  0  0  0  0  0  0  0  0
    4.6410    1.0062    0.0000 C   0  0  0  0  0  0  0  0  0  0  0  0
    3.3296    1.7344    0.0000 C   0  0  0  0  0  0  0  0  0  0  0  0
    3.3547    0.2346    0.0000 C   0  0  0  0  0  0  0  0  0  0  0  0
    2.0433    0.9628    0.0000 C   0  0  0  0  0  0  0  0  0  0  0  0
    0.7570    0.1913    0.0000 C   0  0  0  0  0  0  0  0  0  0  0  0
   -0.5544    0.9195    0.0000 O   0  0  0  0  0  0  0  0  0  0  0  0
    0.7820   -1.3085    0.0000 C   0  0  0  0  0  0  0  0  0  0  0  0
   -0.5983   -0.7214    0.0000 C   0  0  0  0  0  0  0  0  0  0  0  0
  2  1  1  6
  2  3  1  0
  3  4  1  0
  4  5  1  0
  5  6  2  0
  5  7  1  0
  7  8  1  0
  7  9  1  0
  9 10  1  0
 10 11  2  0
 10 12  1  0
  2 13  1  0
 13 14  1  6
 14 15  1  0
 16 15  1  6
 16 17  1  0
 17 18  1  1
 18 19  1  0
 20 19  1  1
 20 21  1  0
 21 22  1  0
 22 23  1  0
 23 24  1  0
 24 25  1  0
 25 26  1  6
 25 27  1  0
 27 28  1  6
 28 29  1  0
 29 30  1  1
 29 31  1  0
 31 32  1  6
 31 13  1  0
 31 16  1  0
 27 17  1  0
 25 20  1  0
M  END
>  <MS_ID>  (2416) 
MS2501

>  <SMILES>  (2416) 
C[C@H](CCC(=O)N(C)CC(=O)O)[C@H]1CC[C@H]2[C@@H]3CC[C@@H]4CCCC[C@]4(C)[C@H]3C[C@H](O)[C@]12C

>  <Structure_dimension>  (2416) 
2D

$$$$
MS2502
     RDKit          2D

 32 35  0  0  0  0  0  0  0  0999 V2000
   -3.6519   -3.4889    0.0000 C   0  0  0  0  0  0  0  0  0  0  0  0
   -2.7185   -2.3147    0.0000 C   0  0  0  0  0  0  0  0  0  0  0  0
   -3.2687   -0.9192    0.0000 C   0  0  0  0  0  0  0  0  0  0  0  0
   -4.7523   -0.6980    0.0000 C   0  0  0  0  0  0  0  0  0  0  0  0
   -5.3024    0.6975    0.0000 C   0  0  0  0  0  0  0  0  0  0  0  0
   -4.3690    1.8717    0.0000 O   0  0  0  0  0  0  0  0  0  0  0  0
   -6.7860    0.9188    0.0000 C   0  0  0  0  0  0  0  0  0  0  0  0
   -7.3362    2.3142    0.0000 C   0  0  0  0  0  0  0  0  0  0  0  0
   -6.4028    3.4884    0.0000 O   0  0  0  0  0  0  0  0  0  0  0  0
   -8.8198    2.5355    0.0000 O   0  0  0  0  0  0  0  0  0  0  0  0
   -1.2349   -2.5360    0.0000 C   0  0  0  0  0  0  0  0  0  0  0  0
   -0.5419   -3.8663    0.0000 C   0  0  0  0  0  0  0  0  0  0  0  0
    0.9375   -3.6183    0.0000 C   0  0  0  0  0  0  0  0  0  0  0  0
    1.1587   -2.1347    0.0000 C   0  0  0  0  0  0  0  0  0  0  0  0
    2.4093   -1.3064    0.0000 C   0  0  0  0  0  0  0  0  0  0  0  0
    3.7519   -1.9753    0.0000 C   0  0  0  0  0  0  0  0  0  0  0  0
    3.8439   -3.4725    0.0000 O   0  0  0  0  0  0  0  0  0  0  0  0
    5.0025   -1.1470    0.0000 C   0  0  0  0  0  0  0  0  0  0  0  0
    4.9105    0.3502    0.0000 C   0  0  0  0  0  0  0  0  0  0  0  0
    6.1611    1.1784    0.0000 C   0  0  0  0  0  0  0  0  0  0  0  0
    6.0690    2.6756    0.0000 C   0  0  0  0  0  0  0  0  0  0  0  0
    7.3196    3.5039    0.0000 O   0  0  0  0  0  0  0  0  0  0  0  0
    4.7264    3.3445    0.0000 C   0  0  0  0  0  0  0  0  0  0  0  0
    3.4759    2.5162    0.0000 C   0  0  0  0  0  0  0  0  0  0  0  0
    3.5679    1.0191    0.0000 C   0  0  0  0  0  0  0  0  0  0  0  0
    2.2253    1.6879    0.0000 C   0  0  0  0  0  0  0  0  0  0  0  0
    2.3173    0.1908    0.0000 C   0  0  0  0  0  0  0  0  0  0  0  0
    0.9747    0.8597    0.0000 C   0  0  0  0  0  0  0  0  0  0  0  0
   -0.2759    0.0314    0.0000 C   0  0  0  0  0  0  0  0  0  0  0  0
   -1.6185    0.7003    0.0000 O   0  0  0  0  0  0  0  0  0  0  0  0
   -0.1839   -1.4658    0.0000 C   0  0  0  0  0  0  0  0  0  0  0  0
   -1.5890   -0.9409    0.0000 C   0  0  0  0  0  0  0  0  0  0  0  0
  2  1  1  6
  2  3  1  0
  3  4  1  0
  4  5  1  0
  5  6  2  0
  5  7  1  0
  7  8  1  0
  8  9  2  0
  8 10  1  0
  2 11  1  0
 11 12  1  6
 12 13  1  0
 14 13  1  6
 14 15  1  0
 15 16  1  1
 16 17  1  1
 16 18  1  0
 19 18  1  1
 19 20  1  0
 20 21  1  0
 21 22  2  0
 21 23  1  0
 23 24  1  0
 24 25  1  0
 25 26  1  6
 25 27  1  0
 27 28  1  6
 28 29  1  0
 29 30  1  6
 29 31  1  0
 31 32  1  6
 31 11  1  0
 31 14  1  0
 27 15  1  0
 25 19  1  0
M  END
>  <MS_ID>  (2417) 
MS2502

>  <SMILES>  (2417) 
C[C@H](CCC(=O)CC(=O)O)[C@H]1CC[C@H]2[C@@H]3[C@H](O)C[C@@H]4CC(=O)CC[C@]4(C)[C@H]3C[C@@H](O)[C@]12C

>  <Structure_dimension>  (2417) 
2D

$$$$
MS2503
     RDKit          2D

 33 36  0  0  0  0  0  0  0  0999 V2000
   -3.4872   -3.6667    0.0000 C   0  0  0  0  0  0  0  0  0  0  0  0
   -2.6153   -2.4461    0.0000 C   0  0  0  0  0  0  0  0  0  0  0  0
   -3.2364   -1.0808    0.0000 C   0  0  0  0  0  0  0  0  0  0  0  0
   -4.7294   -0.9360    0.0000 C   0  0  0  0  0  0  0  0  0  0  0  0
   -5.3505    0.4294    0.0000 C   0  0  0  0  0  0  0  0  0  0  0  0
   -4.4787    1.6500    0.0000 O   0  0  0  0  0  0  0  0  0  0  0  0
   -6.8435    0.5742    0.0000 O   0  0  0  0  0  0  0  0  0  0  0  0
   -7.4647    1.9396    0.0000 C   0  0  0  0  0  0  0  0  0  0  0  0
   -8.8300    1.3184    0.0000 C   0  0  0  0  0  0  0  0  0  0  0  0
   -6.0993    2.5607    0.0000 C   0  0  0  0  0  0  0  0  0  0  0  0
   -8.0858    3.3049    0.0000 O   0  0  0  0  0  0  0  0  0  0  0  0
   -1.1223   -2.5909    0.0000 C   0  0  0  0  0  0  0  0  0  0  0  0
   -0.3619   -3.8839    0.0000 C   0  0  0  0  0  0  0  0  0  0  0  0
    1.1027   -3.5602    0.0000 C   0  0  0  0  0  0  0  0  0  0  0  0
    1.2475   -2.0672    0.0000 C   0  0  0  0  0  0  0  0  0  0  0  0
    2.4539   -1.1758    0.0000 C   0  0  0  0  0  0  0  0  0  0  0  0
    3.8291   -1.7749    0.0000 C   0  0  0  0  0  0  0  0  0  0  0  0
    3.9979   -3.2654    0.0000 O   0  0  0  0  0  0  0  0  0  0  0  0
    5.0355   -0.8835    0.0000 C   0  0  0  0  0  0  0  0  0  0  0  0
    6.4107   -1.4825    0.0000 O   0  0  0  0  0  0  0  0  0  0  0  0
    4.8667    0.6070    0.0000 C   0  0  0  0  0  0  0  0  0  0  0  0
    6.0731    1.4984    0.0000 C   0  0  0  0  0  0  0  0  0  0  0  0
    5.9043    2.9889    0.0000 C   0  0  0  0  0  0  0  0  0  0  0  0
    7.1107    3.8803    0.0000 O   0  0  0  0  0  0  0  0  0  0  0  0
    4.5291    3.5880    0.0000 C   0  0  0  0  0  0  0  0  0  0  0  0
    3.3228    2.6965    0.0000 C   0  0  0  0  0  0  0  0  0  0  0  0
    3.4915    1.2061    0.0000 C   0  0  0  0  0  0  0  0  0  0  0  0
    2.1164    1.8051    0.0000 C   0  0  0  0  0  0  0  0  0  0  0  0
    2.2851    0.3147    0.0000 C   0  0  0  0  0  0  0  0  0  0  0  0
    0.9100    0.9137    0.0000 C   0  0  0  0  0  0  0  0  0  0  0  0
   -0.2964    0.0223    0.0000 C   0  0  0  0  0  0  0  0  0  0  0  0
   -0.1276   -1.4682    0.0000 C   0  0  0  0  0  0  0  0  0  0  0  0
   -1.5579   -1.0161    0.0000 C   0  0  0  0  0  0  0  0  0  0  0  0
  2  1  1  6
  2  3  1  0
  3  4  1  0
  4  5  1  0
  5  6  2  0
  5  7  1  0
  7  8  1  0
  8  9  1  0
  8 10  1  0
  8 11  1  0
  2 12  1  0
 12 13  1  6
 13 14  1  0
 15 14  1  6
 15 16  1  0
 16 17  1  1
 17 18  1  1
 17 19  1  0
 19 20  1  1
 19 21  1  0
 21 22  1  1
 22 23  1  0
 23 24  1  1
 23 25  1  0
 25 26  1  0
 26 27  1  0
 27 28  1  6
 27 29  1  0
 29 30  1  6
 30 31  1  0
 31 32  1  0
 32 33  1  6
 32 12  1  0
 32 15  1  0
 29 16  1  0
 27 21  1  0
M  END
>  <MS_ID>  (2418) 
MS2503

>  <SMILES>  (2418) 
C[C@H](CCC(=O)OC(C)(C)O)[C@H]1CC[C@H]2[C@@H]3[C@H](O)[C@H](O)[C@@H]4C[C@H](O)CC[C@]4(C)[C@H]3CC[C@]12C

>  <Structure_dimension>  (2418) 
2D

$$$$
MS2504
     RDKit          2D

 34 38  0  0  0  0  0  0  0  0999 V2000
   -2.6599   -4.1335    0.0000 C   0  0  0  0  0  0  0  0  0  0  0  0
   -1.8847   -2.8494    0.0000 C   0  0  0  0  0  0  0  0  0  0  0  0
   -2.6091   -1.5360    0.0000 C   0  0  0  0  0  0  0  0  0  0  0  0
   -4.1089   -1.5067    0.0000 C   0  0  0  0  0  0  0  0  0  0  0  0
   -4.8333   -0.1932    0.0000 C   0  0  0  0  0  0  0  0  0  0  0  0
   -4.0581    1.0909    0.0000 O   0  0  0  0  0  0  0  0  0  0  0  0
   -6.3331   -0.1639    0.0000 N   0  0  0  0  0  0  0  0  0  0  0  0
   -7.0575    1.1495    0.0000 N   0  0  0  0  0  0  0  0  0  0  0  0
   -8.5460    1.3354    0.0000 C   0  0  0  0  0  0  0  0  0  0  0  0
   -8.8291    2.8085    0.0000 C   0  0  0  0  0  0  0  0  0  0  0  0
   -7.5157    3.5330    0.0000 C   0  0  0  0  0  0  0  0  0  0  0  0
   -6.4208    2.5077    0.0000 N   0  0  0  0  0  0  0  0  0  0  0  0
   -0.3850   -2.8787    0.0000 C   0  0  0  0  0  0  0  0  0  0  0  0
    0.4728   -4.1092    0.0000 C   0  0  0  0  0  0  0  0  0  0  0  0
    1.9082   -3.6737    0.0000 C   0  0  0  0  0  0  0  0  0  0  0  0
    1.9375   -2.1740    0.0000 C   0  0  0  0  0  0  0  0  0  0  0  0
    3.0716   -1.1922    0.0000 C   0  0  0  0  0  0  0  0  0  0  0  0
    4.4889   -1.6835    0.0000 C   0  0  0  0  0  0  0  0  0  0  0  0
    4.7720   -3.1566    0.0000 O   0  0  0  0  0  0  0  0  0  0  0  0
    5.6230   -0.7018    0.0000 C   0  0  0  0  0  0  0  0  0  0  0  0
    5.3399    0.7712    0.0000 C   0  0  0  0  0  0  0  0  0  0  0  0
    6.4740    1.7530    0.0000 C   0  0  0  0  0  0  0  0  0  0  0  0
    6.1908    3.2260    0.0000 C   0  0  0  0  0  0  0  0  0  0  0  0
    7.3249    4.2077    0.0000 O   0  0  0  0  0  0  0  0  0  0  0  0
    4.7736    3.7173    0.0000 C   0  0  0  0  0  0  0  0  0  0  0  0
    3.6395    2.7356    0.0000 C   0  0  0  0  0  0  0  0  0  0  0  0
    3.9226    1.2625    0.0000 C   0  0  0  0  0  0  0  0  0  0  0  0
    2.5053    1.7538    0.0000 C   0  0  0  0  0  0  0  0  0  0  0  0
    2.7885    0.2808    0.0000 C   0  0  0  0  0  0  0  0  0  0  0  0
    1.3712    0.7721    0.0000 C   0  0  0  0  0  0  0  0  0  0  0  0
    0.2371   -0.2096    0.0000 C   0  0  0  0  0  0  0  0  0  0  0  0
   -1.1801    0.2817    0.0000 O   0  0  0  0  0  0  0  0  0  0  0  0
    0.5203   -1.6826    0.0000 C   0  0  0  0  0  0  0  0  0  0  0  0
   -0.9406   -1.3422    0.0000 C   0  0  0  0  0  0  0  0  0  0  0  0
  2  1  1  6
  2  3  1  0
  3  4  1  0
  4  5  1  0
  5  6  2  0
  5  7  1  0
  7  8  1  0
  8  9  1  0
  9 10  2  0
 10 11  1  0
 11 12  2  0
  2 13  1  0
 13 14  1  6
 14 15  1  0
 16 15  1  6
 16 17  1  0
 17 18  1  1
 18 19  1  1
 18 20  1  0
 21 20  1  1
 21 22  1  0
 22 23  1  0
 23 24  1  1
 23 25  1  0
 25 26  1  0
 26 27  1  0
 27 28  1  6
 27 29  1  0
 29 30  1  6
 30 31  1  0
 31 32  1  1
 31 33  1  0
 33 34  1  6
 12  8  1  0
 33 13  1  0
 33 16  1  0
 29 17  1  0
 27 21  1  0
M  END
>  <MS_ID>  (2419) 
MS2504

>  <SMILES>  (2419) 
C[C@H](CCC(=O)Nn1cccn1)[C@H]1CC[C@H]2[C@@H]3[C@H](O)C[C@@H]4C[C@H](O)CC[C@]4(C)[C@H]3C[C@H](O)[C@]12C

>  <Structure_dimension>  (2419) 
2D

$$$$
MS2505
     RDKit          2D

 41 46  0  0  0  0  0  0  0  0999 V2000
   -0.0707   -4.5493    0.0000 C   0  0  0  0  0  0  0  0  0  0  0  0
    0.6057   -3.2105    0.0000 C   0  0  0  0  0  0  0  0  0  0  0  0
   -0.2155   -1.9553    0.0000 C   0  0  0  0  0  0  0  0  0  0  0  0
   -1.7132   -2.0389    0.0000 C   0  0  0  0  0  0  0  0  0  0  0  0
   -2.5344   -0.7837    0.0000 C   0  0  0  0  0  0  0  0  0  0  0  0
   -1.8580    0.5552    0.0000 O   0  0  0  0  0  0  0  0  0  0  0  0
   -4.0321   -0.8673    0.0000 C   0  0  0  0  0  0  0  0  0  0  0  0
   -4.8534    0.3880    0.0000 N   0  0  0  0  0  0  0  0  0  0  0  0
   -4.3206    1.7902    0.0000 C   0  0  0  0  0  0  0  0  0  0  0  0
   -5.4895    2.7302    0.0000 N   0  0  0  0  0  0  0  0  0  0  0  0
   -6.7447    1.9089    0.0000 C   0  0  0  0  0  0  0  0  0  0  0  0
   -6.3516    0.4614    0.0000 C   0  0  0  0  0  0  0  0  0  0  0  0
   -7.4086   -0.6029    0.0000 C   0  0  0  0  0  0  0  0  0  0  0  0
   -7.0154   -2.0505    0.0000 O   0  0  0  0  0  0  0  0  0  0  0  0
   -8.8588   -0.2196    0.0000 N   0  0  0  0  0  0  0  0  0  0  0  0
   -9.9158   -1.2839    0.0000 C   0  0  0  0  0  0  0  0  0  0  0  0
   -9.2520    1.2279    0.0000 C   0  0  0  0  0  0  0  0  0  0  0  0
  -10.7022    1.6112    0.0000 O   0  0  0  0  0  0  0  0  0  0  0  0
   -8.1949    2.2922    0.0000 N   0  0  0  0  0  0  0  0  0  0  0  0
   -8.5881    3.7398    0.0000 C   0  0  0  0  0  0  0  0  0  0  0  0
    2.1034   -3.1269    0.0000 C   0  0  0  0  0  0  0  0  0  0  0  0
    3.0513   -4.2894    0.0000 C   0  0  0  0  0  0  0  0  0  0  0  0
    4.4498   -3.7471    0.0000 C   0  0  0  0  0  0  0  0  0  0  0  0
    4.3662   -2.2494    0.0000 C   0  0  0  0  0  0  0  0  0  0  0  0
    5.4233   -1.1851    0.0000 C   0  0  0  0  0  0  0  0  0  0  0  0
    6.8735   -1.5684    0.0000 C   0  0  0  0  0  0  0  0  0  0  0  0
    7.9305   -0.5041    0.0000 C   0  0  0  0  0  0  0  0  0  0  0  0
    7.5374    0.9434    0.0000 C   0  0  0  0  0  0  0  0  0  0  0  0
    8.5944    2.0077    0.0000 C   0  0  0  0  0  0  0  0  0  0  0  0
    8.2012    3.4552    0.0000 C   0  0  0  0  0  0  0  0  0  0  0  0
    9.2583    4.5195    0.0000 O   0  0  0  0  0  0  0  0  0  0  0  0
    6.7510    3.8385    0.0000 C   0  0  0  0  0  0  0  0  0  0  0  0
    5.6940    2.7743    0.0000 C   0  0  0  0  0  0  0  0  0  0  0  0
    6.0872    1.3267    0.0000 C   0  0  0  0  0  0  0  0  0  0  0  0
    4.6370    1.7100    0.0000 C   0  0  0  0  0  0  0  0  0  0  0  0
    5.0301    0.2624    0.0000 C   0  0  0  0  0  0  0  0  0  0  0  0
    3.5799    0.6457    0.0000 C   0  0  0  0  0  0  0  0  0  0  0  0
    2.5229   -0.4185    0.0000 C   0  0  0  0  0  0  0  0  0  0  0  0
    1.0727   -0.0352    0.0000 O   0  0  0  0  0  0  0  0  0  0  0  0
    2.9160   -1.8661    0.0000 C   0  0  0  0  0  0  0  0  0  0  0  0
    1.4337   -1.6365    0.0000 C   0  0  0  0  0  0  0  0  0  0  0  0
  2  1  1  6
  2  3  1  0
  3  4  1  0
  4  5  1  0
  5  6  2  0
  5  7  1  0
  7  8  1  0
  8  9  1  0
  9 10  2  0
 10 11  1  0
 11 12  2  0
 12 13  1  0
 13 14  2  0
 13 15  1  0
 15 16  1  0
 15 17  1  0
 17 18  2  0
 17 19  1  0
 19 20  1  0
  2 21  1  0
 21 22  1  6
 22 23  1  0
 24 23  1  6
 24 25  1  0
 25 26  1  1
 26 27  1  0
 28 27  1  1
 28 29  1  0
 29 30  1  0
 30 31  1  1
 30 32  1  0
 32 33  1  0
 33 34  1  0
 34 35  1  6
 34 36  1  0
 36 37  1  6
 37 38  1  0
 38 39  1  1
 38 40  1  0
 40 41  1  6
 12  8  1  0
 40 21  1  0
 19 11  1  0
 40 24  1  0
 36 25  1  0
 34 28  1  0
M  END
>  <MS_ID>  (2420) 
MS2505

>  <SMILES>  (2420) 
C[C@H](CCC(=O)Cn1cnc2c1c(=O)n(C)c(=O)n2C)[C@H]1CC[C@H]2[C@@H]3CC[C@@H]4C[C@H](O)CC[C@]4(C)[C@H]3C[C@H](O)[C@]12C

>  <Structure_dimension>  (2420) 
2D

$$$$
MS2506
     RDKit          2D

 31 34  0  0  0  0  0  0  0  0999 V2000
   -3.5444   -3.4776    0.0000 C   0  0  0  0  0  0  0  0  0  0  0  0
   -2.6225   -2.2943    0.0000 C   0  0  0  0  0  0  0  0  0  0  0  0
   -3.1864   -0.9043    0.0000 C   0  0  0  0  0  0  0  0  0  0  0  0
   -4.6720   -0.6975    0.0000 C   0  0  0  0  0  0  0  0  0  0  0  0
   -5.2358    0.6925    0.0000 C   0  0  0  0  0  0  0  0  0  0  0  0
   -4.3140    1.8757    0.0000 O   0  0  0  0  0  0  0  0  0  0  0  0
   -6.7215    0.8992    0.0000 C   0  0  0  0  0  0  0  0  0  0  0  0
   -7.2853    2.2892    0.0000 C   0  0  0  0  0  0  0  0  0  0  0  0
   -8.7710    2.4959    0.0000 C   0  0  0  0  0  0  0  0  0  0  0  0
  -10.2567    2.7027    0.0000 N   0  0  0  0  0  0  0  0  0  0  0  0
   -1.1369   -2.5010    0.0000 C   0  0  0  0  0  0  0  0  0  0  0  0
   -0.4309   -3.8245    0.0000 C   0  0  0  0  0  0  0  0  0  0  0  0
    1.0460   -3.5620    0.0000 C   0  0  0  0  0  0  0  0  0  0  0  0
    1.2527   -2.0763    0.0000 C   0  0  0  0  0  0  0  0  0  0  0  0
    2.4952   -1.2358    0.0000 C   0  0  0  0  0  0  0  0  0  0  0  0
    3.8442   -1.8916    0.0000 C   0  0  0  0  0  0  0  0  0  0  0  0
    3.9509   -3.3878    0.0000 O   0  0  0  0  0  0  0  0  0  0  0  0
    5.0867   -1.0511    0.0000 C   0  0  0  0  0  0  0  0  0  0  0  0
    4.9800    0.4451    0.0000 C   0  0  0  0  0  0  0  0  0  0  0  0
    6.2224    1.2856    0.0000 C   0  0  0  0  0  0  0  0  0  0  0  0
    6.1157    2.7818    0.0000 C   0  0  0  0  0  0  0  0  0  0  0  0
    7.3581    3.6223    0.0000 O   0  0  0  0  0  0  0  0  0  0  0  0
    4.7666    3.4375    0.0000 C   0  0  0  0  0  0  0  0  0  0  0  0
    3.5242    2.5970    0.0000 C   0  0  0  0  0  0  0  0  0  0  0  0
    3.6309    1.1008    0.0000 C   0  0  0  0  0  0  0  0  0  0  0  0
    2.2818    1.7566    0.0000 C   0  0  0  0  0  0  0  0  0  0  0  0
    2.3885    0.2604    0.0000 C   0  0  0  0  0  0  0  0  0  0  0  0
    1.0394    0.9161    0.0000 C   0  0  0  0  0  0  0  0  0  0  0  0
   -0.2030    0.0756    0.0000 C   0  0  0  0  0  0  0  0  0  0  0  0
   -0.0963   -1.4206    0.0000 C   0  0  0  0  0  0  0  0  0  0  0  0
   -1.5066   -0.9095    0.0000 C   0  0  0  0  0  0  0  0  0  0  0  0
  2  1  1  6
  2  3  1  0
  3  4  1  0
  4  5  1  0
  5  6  2  0
  5  7  1  0
  7  8  1  0
  8  9  1  0
  9 10  3  0
  2 11  1  0
 11 12  1  6
 12 13  1  0
 14 13  1  6
 14 15  1  0
 15 16  1  1
 16 17  1  6
 16 18  1  0
 19 18  1  1
 19 20  1  0
 20 21  1  0
 21 22  1  1
 21 23  1  0
 23 24  1  0
 24 25  1  0
 25 26  1  6
 25 27  1  0
 27 28  1  6
 28 29  1  0
 29 30  1  0
 30 31  1  6
 30 11  1  0
 30 14  1  0
 27 15  1  0
 25 19  1  0
M  END
>  <MS_ID>  (2421) 
MS2506

>  <SMILES>  (2421) 
C[C@H](CCC(=O)CCC#N)[C@H]1CC[C@H]2[C@@H]3[C@@H](O)C[C@@H]4C[C@H](O)CC[C@]4(C)[C@H]3CC[C@]12C

>  <Structure_dimension>  (2421) 
2D

$$$$
MS2507
     RDKit          2D

 38 42  0  0  0  0  0  0  0  0999 V2000
   -1.0668   -4.5648    0.0000 C   0  0  0  0  0  0  0  0  0  0  0  0
   -0.4338   -3.2049    0.0000 C   0  0  0  0  0  0  0  0  0  0  0  0
   -1.2949   -1.9767    0.0000 C   0  0  0  0  0  0  0  0  0  0  0  0
   -2.7892   -2.1084    0.0000 C   0  0  0  0  0  0  0  0  0  0  0  0
   -3.6503   -0.8803    0.0000 C   0  0  0  0  0  0  0  0  0  0  0  0
   -3.0173    0.4796    0.0000 O   0  0  0  0  0  0  0  0  0  0  0  0
   -5.1445   -1.0120    0.0000 N   0  0  0  0  0  0  0  0  0  0  0  0
   -6.0057    0.2162    0.0000 C   0  0  0  0  0  0  0  0  0  0  0  0
   -5.3727    1.5761    0.0000 C   0  0  0  0  0  0  0  0  0  0  0  0
   -6.2338    2.8042    0.0000 N   0  0  0  0  0  0  0  0  0  0  0  0
   -7.7280    2.6725    0.0000 C   0  0  0  0  0  0  0  0  0  0  0  0
   -8.3611    1.3126    0.0000 C   0  0  0  0  0  0  0  0  0  0  0  0
   -9.8553    1.1809    0.0000 C   0  0  0  0  0  0  0  0  0  0  0  0
  -10.4883   -0.1790    0.0000 O   0  0  0  0  0  0  0  0  0  0  0  0
  -10.7165    2.4091    0.0000 O   0  0  0  0  0  0  0  0  0  0  0  0
   -7.4999    0.0845    0.0000 C   0  0  0  0  0  0  0  0  0  0  0  0
    1.0604   -3.0732    0.0000 C   0  0  0  0  0  0  0  0  0  0  0  0
    2.0453   -4.2046    0.0000 C   0  0  0  0  0  0  0  0  0  0  0  0
    3.4256   -3.6176    0.0000 C   0  0  0  0  0  0  0  0  0  0  0  0
    3.2939   -2.1234    0.0000 C   0  0  0  0  0  0  0  0  0  0  0  0
    4.3162   -1.0257    0.0000 C   0  0  0  0  0  0  0  0  0  0  0  0
    5.7780   -1.3622    0.0000 C   0  0  0  0  0  0  0  0  0  0  0  0
    6.2175   -2.7963    0.0000 O   0  0  0  0  0  0  0  0  0  0  0  0
    6.8002   -0.2645    0.0000 C   0  0  0  0  0  0  0  0  0  0  0  0
    6.3608    1.1697    0.0000 C   0  0  0  0  0  0  0  0  0  0  0  0
    7.3830    2.2674    0.0000 C   0  0  0  0  0  0  0  0  0  0  0  0
    6.9435    3.7016    0.0000 C   0  0  0  0  0  0  0  0  0  0  0  0
    7.9658    4.7993    0.0000 O   0  0  0  0  0  0  0  0  0  0  0  0
    5.4818    4.0381    0.0000 C   0  0  0  0  0  0  0  0  0  0  0  0
    4.4595    2.9404    0.0000 C   0  0  0  0  0  0  0  0  0  0  0  0
    4.8990    1.5062    0.0000 C   0  0  0  0  0  0  0  0  0  0  0  0
    3.4372    1.8427    0.0000 C   0  0  0  0  0  0  0  0  0  0  0  0
    3.8767    0.4085    0.0000 C   0  0  0  0  0  0  0  0  0  0  0  0
    2.4149    0.7450    0.0000 C   0  0  0  0  0  0  0  0  0  0  0  0
    1.3926   -0.3527    0.0000 C   0  0  0  0  0  0  0  0  0  0  0  0
   -0.0691   -0.0163    0.0000 O   0  0  0  0  0  0  0  0  0  0  0  0
    1.8321   -1.7869    0.0000 C   0  0  0  0  0  0  0  0  0  0  0  0
    0.3432   -1.6051    0.0000 C   0  0  0  0  0  0  0  0  0  0  0  0
  2  1  1  6
  2  3  1  0
  3  4  1  0
  4  5  1  0
  5  6  2  0
  5  7  1  0
  7  8  1  0
  8  9  2  0
  9 10  1  0
 10 11  2  0
 11 12  1  0
 12 13  1  0
 13 14  2  0
 13 15  1  0
 12 16  2  0
  2 17  1  0
 17 18  1  6
 18 19  1  0
 20 19  1  6
 20 21  1  0
 21 22  1  1
 22 23  1  1
 22 24  1  0
 25 24  1  1
 25 26  1  0
 26 27  1  0
 27 28  1  1
 27 29  1  0
 29 30  1  0
 30 31  1  0
 31 32  1  6
 31 33  1  0
 33 34  1  6
 34 35  1  0
 35 36  1  1
 35 37  1  0
 37 38  1  6
 16  8  1  0
 37 17  1  0
 37 20  1  0
 33 21  1  0
 31 25  1  0
M  END
>  <MS_ID>  (2422) 
MS2507

>  <SMILES>  (2422) 
C[C@H](CCC(=O)Nc1cncc(C(=O)O)c1)[C@H]1CC[C@H]2[C@@H]3[C@H](O)C[C@@H]4C[C@H](O)CC[C@]4(C)[C@H]3C[C@H](O)[C@]12C

>  <Structure_dimension>  (2422) 
2D

$$$$
MS2508
     RDKit          2D

 29 32  0  0  0  0  0  0  0  0999 V2000
   -4.5229   -2.5430    0.0000 C   0  0  0  0  0  0  0  0  0  0  0  0
   -3.4330   -1.5124    0.0000 C   0  0  0  0  0  0  0  0  0  0  0  0
   -3.7806   -0.0532    0.0000 C   0  0  0  0  0  0  0  0  0  0  0  0
   -5.2181    0.3754    0.0000 C   0  0  0  0  0  0  0  0  0  0  0  0
   -5.5656    1.8346    0.0000 C   0  0  0  0  0  0  0  0  0  0  0  0
   -4.4757    2.8651    0.0000 O   0  0  0  0  0  0  0  0  0  0  0  0
   -7.0031    2.2631    0.0000 O   0  0  0  0  0  0  0  0  0  0  0  0
   -1.9956   -1.9410    0.0000 C   0  0  0  0  0  0  0  0  0  0  0  0
   -1.4974   -3.3559    0.0000 C   0  0  0  0  0  0  0  0  0  0  0  0
    0.0022   -3.3193    0.0000 C   0  0  0  0  0  0  0  0  0  0  0  0
    0.4308   -1.8818    0.0000 C   0  0  0  0  0  0  0  0  0  0  0  0
    1.7858   -1.2385    0.0000 C   0  0  0  0  0  0  0  0  0  0  0  0
    3.0205   -2.0903    0.0000 C   0  0  0  0  0  0  0  0  0  0  0  0
    2.9001   -3.5855    0.0000 O   0  0  0  0  0  0  0  0  0  0  0  0
    4.3755   -1.4470    0.0000 C   0  0  0  0  0  0  0  0  0  0  0  0
    4.4959    0.0482    0.0000 C   0  0  0  0  0  0  0  0  0  0  0  0
    5.8509    0.6915    0.0000 C   0  0  0  0  0  0  0  0  0  0  0  0
    5.9713    2.1867    0.0000 C   0  0  0  0  0  0  0  0  0  0  0  0
    4.7366    3.0385    0.0000 C   0  0  0  0  0  0  0  0  0  0  0  0
    3.3816    2.3952    0.0000 C   0  0  0  0  0  0  0  0  0  0  0  0
    3.2612    0.9000    0.0000 C   0  0  0  0  0  0  0  0  0  0  0  0
    2.0265    1.7518    0.0000 C   0  0  0  0  0  0  0  0  0  0  0  0
    1.9062    0.2567    0.0000 C   0  0  0  0  0  0  0  0  0  0  0  0
    0.6715    1.1085    0.0000 C   0  0  0  0  0  0  0  0  0  0  0  0
   -0.6835    0.4652    0.0000 C   0  0  0  0  0  0  0  0  0  0  0  0
   -1.9182    1.3170    0.0000 O   0  0  0  0  0  0  0  0  0  0  0  0
   -1.7978    2.8121    0.0000 O   0  0  0  0  0  0  0  0  0  0  0  0
   -0.8039   -1.0300    0.0000 C   0  0  0  0  0  0  0  0  0  0  0  0
   -2.1208   -0.3119    0.0000 C   0  0  0  0  0  0  0  0  0  0  0  0
  2  1  1  6
  2  3  1  0
  3  4  1  0
  4  5  1  0
  5  6  2  0
  5  7  1  0
  2  8  1  0
  8  9  1  6
  9 10  1  0
 11 10  1  6
 11 12  1  0
 12 13  1  1
 13 14  1  6
 13 15  1  0
 16 15  1  1
 16 17  1  0
 17 18  1  0
 18 19  1  0
 19 20  1  0
 20 21  1  0
 21 22  1  6
 21 23  1  0
 23 24  1  6
 24 25  1  0
 25 26  1  1
 26 27  1  0
 25 28  1  0
 28 29  1  6
 28  8  1  0
 28 11  1  0
 23 12  1  0
 21 16  1  0
M  END
>  <MS_ID>  (2423) 
MS2508

>  <SMILES>  (2423) 
C[C@H](CCC(=O)O)[C@H]1CC[C@H]2[C@@H]3[C@@H](O)C[C@@H]4CCCC[C@]4(C)[C@H]3C[C@H](OO)[C@]12C

>  <Structure_dimension>  (2423) 
2D

$$$$
MS2509
     RDKit          2D

 29 32  0  0  0  0  0  0  0  0999 V2000
   -4.7935   -2.5443    0.0000 C   0  0  0  0  0  0  0  0  0  0  0  0
   -3.6816   -1.5375    0.0000 C   0  0  0  0  0  0  0  0  0  0  0  0
   -3.9975   -0.0712    0.0000 C   0  0  0  0  0  0  0  0  0  0  0  0
   -5.4254    0.3884    0.0000 C   0  0  0  0  0  0  0  0  0  0  0  0
   -5.7413    1.8547    0.0000 C   0  0  0  0  0  0  0  0  0  0  0  0
   -7.1692    2.3143    0.0000 O   0  0  0  0  0  0  0  0  0  0  0  0
   -4.6294    2.8615    0.0000 O   0  0  0  0  0  0  0  0  0  0  0  0
   -4.9453    4.3279    0.0000 S   0  0  0  0  0  0  0  0  0  0  0  0
   -2.2537   -1.9971    0.0000 C   0  0  0  0  0  0  0  0  0  0  0  0
   -1.7862   -3.4224    0.0000 C   0  0  0  0  0  0  0  0  0  0  0  0
   -0.2862   -3.4182    0.0000 C   0  0  0  0  0  0  0  0  0  0  0  0
    0.1733   -1.9903    0.0000 C   0  0  0  0  0  0  0  0  0  0  0  0
    1.5420   -1.3764    0.0000 C   0  0  0  0  0  0  0  0  0  0  0  0
    2.7579   -2.2547    0.0000 C   0  0  0  0  0  0  0  0  0  0  0  0
    2.6053   -3.7470    0.0000 O   0  0  0  0  0  0  0  0  0  0  0  0
    4.1265   -1.6408    0.0000 C   0  0  0  0  0  0  0  0  0  0  0  0
    4.2792   -0.1486    0.0000 C   0  0  0  0  0  0  0  0  0  0  0  0
    5.6478    0.4653    0.0000 C   0  0  0  0  0  0  0  0  0  0  0  0
    5.8005    1.9575    0.0000 C   0  0  0  0  0  0  0  0  0  0  0  0
    7.1691    2.5714    0.0000 O   0  0  0  0  0  0  0  0  0  0  0  0
    4.5845    2.8358    0.0000 C   0  0  0  0  0  0  0  0  0  0  0  0
    3.2159    2.2219    0.0000 C   0  0  0  0  0  0  0  0  0  0  0  0
    3.0632    0.7297    0.0000 C   0  0  0  0  0  0  0  0  0  0  0  0
    1.8473    1.6080    0.0000 C   0  0  0  0  0  0  0  0  0  0  0  0
    1.6946    0.1158    0.0000 C   0  0  0  0  0  0  0  0  0  0  0  0
    0.4786    0.9941    0.0000 C   0  0  0  0  0  0  0  0  0  0  0  0
   -0.8900    0.3802    0.0000 C   0  0  0  0  0  0  0  0  0  0  0  0
   -1.0426   -1.1120    0.0000 C   0  0  0  0  0  0  0  0  0  0  0  0
   -2.3437   -0.3657    0.0000 C   0  0  0  0  0  0  0  0  0  0  0  0
  2  1  1  6
  2  3  1  0
  3  4  1  0
  4  5  1  0
  5  6  2  0
  5  7  1  0
  7  8  1  0
  2  9  1  0
  9 10  1  6
 10 11  1  0
 12 11  1  6
 12 13  1  0
 13 14  1  1
 14 15  1  1
 14 16  1  0
 17 16  1  1
 17 18  1  0
 18 19  1  0
 19 20  1  1
 19 21  1  0
 21 22  1  0
 22 23  1  0
 23 24  1  6
 23 25  1  0
 25 26  1  6
 26 27  1  0
 27 28  1  0
 28 29  1  6
 28  9  1  0
 28 12  1  0
 25 13  1  0
 23 17  1  0
M  END
>  <MS_ID>  (2424) 
MS2509

>  <SMILES>  (2424) 
C[C@H](CCC(=O)OS)[C@H]1CC[C@H]2[C@@H]3[C@H](O)C[C@@H]4C[C@H](O)CC[C@]4(C)[C@H]3CC[C@]12C

>  <Structure_dimension>  (2424) 
2D

$$$$
MS2510
     RDKit          2D

 30 33  0  0  0  0  0  0  0  0999 V2000
   -4.1099   -3.1124    0.0000 C   0  0  0  0  0  0  0  0  0  0  0  0
   -3.1089   -1.9953    0.0000 C   0  0  0  0  0  0  0  0  0  0  0  0
   -3.5759   -0.5698    0.0000 C   0  0  0  0  0  0  0  0  0  0  0  0
   -5.0438   -0.2615    0.0000 C   0  0  0  0  0  0  0  0  0  0  0  0
   -5.5108    1.1640    0.0000 C   0  0  0  0  0  0  0  0  0  0  0  0
   -4.5097    2.2811    0.0000 O   0  0  0  0  0  0  0  0  0  0  0  0
   -6.9787    1.4724    0.0000 C   0  0  0  0  0  0  0  0  0  0  0  0
   -7.4457    2.8978    0.0000 C   0  0  0  0  0  0  0  0  0  0  0  0
   -8.9136    3.2062    0.0000 F   0  0  0  0  0  0  0  0  0  0  0  0
   -1.6409   -2.3036    0.0000 C   0  0  0  0  0  0  0  0  0  0  0  0
   -1.0276   -3.6725    0.0000 C   0  0  0  0  0  0  0  0  0  0  0  0
    0.4638   -3.5121    0.0000 C   0  0  0  0  0  0  0  0  0  0  0  0
    0.7722   -2.0441    0.0000 C   0  0  0  0  0  0  0  0  0  0  0  0
    2.0694   -1.2910    0.0000 C   0  0  0  0  0  0  0  0  0  0  0  0
    3.3703   -2.0379    0.0000 C   0  0  0  0  0  0  0  0  0  0  0  0
    3.3739   -3.5379    0.0000 O   0  0  0  0  0  0  0  0  0  0  0  0
    4.6675   -1.2848    0.0000 C   0  0  0  0  0  0  0  0  0  0  0  0
    4.6639    0.2152    0.0000 C   0  0  0  0  0  0  0  0  0  0  0  0
    5.9611    0.9683    0.0000 C   0  0  0  0  0  0  0  0  0  0  0  0
    5.9575    2.4683    0.0000 C   0  0  0  0  0  0  0  0  0  0  0  0
    7.2548    3.2214    0.0000 O   0  0  0  0  0  0  0  0  0  0  0  0
    4.6567    3.2152    0.0000 C   0  0  0  0  0  0  0  0  0  0  0  0
    3.3595    2.4621    0.0000 C   0  0  0  0  0  0  0  0  0  0  0  0
    3.3631    0.9621    0.0000 C   0  0  0  0  0  0  0  0  0  0  0  0
    2.0622    1.7090    0.0000 C   0  0  0  0  0  0  0  0  0  0  0  0
    2.0658    0.2090    0.0000 C   0  0  0  0  0  0  0  0  0  0  0  0
    0.7650    0.9559    0.0000 C   0  0  0  0  0  0  0  0  0  0  0  0
   -0.5322    0.2027    0.0000 C   0  0  0  0  0  0  0  0  0  0  0  0
   -0.5286   -1.2973    0.0000 C   0  0  0  0  0  0  0  0  0  0  0  0
   -1.9004   -0.6904    0.0000 C   0  0  0  0  0  0  0  0  0  0  0  0
  2  1  1  6
  2  3  1  0
  3  4  1  0
  4  5  1  0
  5  6  2  0
  5  7  1  0
  7  8  1  0
  8  9  1  0
  2 10  1  0
 10 11  1  6
 11 12  1  0
 13 12  1  6
 13 14  1  0
 14 15  1  1
 15 16  1  6
 15 17  1  0
 18 17  1  1
 18 19  1  0
 19 20  1  0
 20 21  1  1
 20 22  1  0
 22 23  1  0
 23 24  1  0
 24 25  1  6
 24 26  1  0
 26 27  1  6
 27 28  1  0
 28 29  1  0
 29 30  1  6
 29 10  1  0
 29 13  1  0
 26 14  1  0
 24 18  1  0
M  END
>  <MS_ID>  (2425) 
MS2510

>  <SMILES>  (2425) 
C[C@H](CCC(=O)CCF)[C@H]1CC[C@H]2[C@@H]3[C@@H](O)C[C@@H]4C[C@H](O)CC[C@]4(C)[C@H]3CC[C@]12C

>  <Structure_dimension>  (2425) 
2D

$$$$
MS2511
     RDKit          2D

 30 33  0  0  0  0  0  0  0  0999 V2000
   -4.5685   -2.6908    0.0000 C   0  0  0  0  0  0  0  0  0  0  0  0
   -3.4838   -1.6548    0.0000 C   0  0  0  0  0  0  0  0  0  0  0  0
   -3.8388   -0.1974    0.0000 C   0  0  0  0  0  0  0  0  0  0  0  0
   -5.2784    0.2240    0.0000 C   0  0  0  0  0  0  0  0  0  0  0  0
   -5.6333    1.6814    0.0000 C   0  0  0  0  0  0  0  0  0  0  0  0
   -4.5486    2.7174    0.0000 O   0  0  0  0  0  0  0  0  0  0  0  0
   -7.0729    2.1027    0.0000 N   0  0  0  0  0  0  0  0  0  0  0  0
   -7.4279    3.5601    0.0000 N   0  0  0  0  0  0  0  0  0  0  0  0
   -2.0442   -2.0761    0.0000 C   0  0  0  0  0  0  0  0  0  0  0  0
   -1.5389   -3.4884    0.0000 C   0  0  0  0  0  0  0  0  0  0  0  0
   -0.0395   -3.4442    0.0000 C   0  0  0  0  0  0  0  0  0  0  0  0
    0.3818   -2.0046    0.0000 C   0  0  0  0  0  0  0  0  0  0  0  0
    1.7336   -1.3544    0.0000 C   0  0  0  0  0  0  0  0  0  0  0  0
    2.9725   -2.1999    0.0000 C   0  0  0  0  0  0  0  0  0  0  0  0
    2.8597   -3.6957    0.0000 O   0  0  0  0  0  0  0  0  0  0  0  0
    4.3243   -1.5497    0.0000 C   0  0  0  0  0  0  0  0  0  0  0  0
    4.4371   -0.0540    0.0000 C   0  0  0  0  0  0  0  0  0  0  0  0
    5.7888    0.5962    0.0000 C   0  0  0  0  0  0  0  0  0  0  0  0
    5.9016    2.0920    0.0000 C   0  0  0  0  0  0  0  0  0  0  0  0
    7.2534    2.7422    0.0000 O   0  0  0  0  0  0  0  0  0  0  0  0
    4.6627    2.9375    0.0000 C   0  0  0  0  0  0  0  0  0  0  0  0
    3.3109    2.2873    0.0000 C   0  0  0  0  0  0  0  0  0  0  0  0
    3.1981    0.7916    0.0000 C   0  0  0  0  0  0  0  0  0  0  0  0
    1.9591    1.6371    0.0000 C   0  0  0  0  0  0  0  0  0  0  0  0
    1.8464    0.1414    0.0000 C   0  0  0  0  0  0  0  0  0  0  0  0
    0.6074    0.9869    0.0000 C   0  0  0  0  0  0  0  0  0  0  0  0
   -0.7444    0.3367    0.0000 C   0  0  0  0  0  0  0  0  0  0  0  0
   -1.9833    1.1823    0.0000 O   0  0  0  0  0  0  0  0  0  0  0  0
   -0.8572   -1.1590    0.0000 C   0  0  0  0  0  0  0  0  0  0  0  0
   -2.1777   -0.4476    0.0000 C   0  0  0  0  0  0  0  0  0  0  0  0
  2  1  1  6
  2  3  1  0
  3  4  1  0
  4  5  1  0
  5  6  2  0
  5  7  1  0
  7  8  1  0
  2  9  1  0
  9 10  1  6
 10 11  1  0
 12 11  1  6
 12 13  1  0
 13 14  1  1
 14 15  1  6
 14 16  1  0
 17 16  1  1
 17 18  1  0
 18 19  1  0
 19 20  2  0
 19 21  1  0
 21 22  1  0
 22 23  1  0
 23 24  1  6
 23 25  1  0
 25 26  1  6
 26 27  1  0
 27 28  1  1
 27 29  1  0
 29 30  1  6
 29  9  1  0
 29 12  1  0
 25 13  1  0
 23 17  1  0
M  END
>  <MS_ID>  (2426) 
MS2511

>  <SMILES>  (2426) 
C[C@H](CCC(=O)NN)[C@H]1CC[C@H]2[C@@H]3[C@@H](O)C[C@@H]4CC(=O)CC[C@]4(C)[C@H]3C[C@H](O)[C@]12C

>  <Structure_dimension>  (2426) 
2D

$$$$
MS2512
     RDKit          2D

 35 39  0  0  0  0  0  0  0  0999 V2000
   -2.7184   -3.4912    0.0000 C   0  0  0  0  0  0  0  0  0  0  0  0
   -1.7962   -2.3082    0.0000 C   0  0  0  0  0  0  0  0  0  0  0  0
   -2.3597   -0.9180    0.0000 C   0  0  0  0  0  0  0  0  0  0  0  0
   -3.8454   -0.7110    0.0000 C   0  0  0  0  0  0  0  0  0  0  0  0
   -4.4088    0.6792    0.0000 C   0  0  0  0  0  0  0  0  0  0  0  0
   -3.4867    1.8622    0.0000 O   0  0  0  0  0  0  0  0  0  0  0  0
   -5.8945    0.8862    0.0000 C   0  0  0  0  0  0  0  0  0  0  0  0
   -6.4580    2.2764    0.0000 C   0  0  0  0  0  0  0  0  0  0  0  0
   -7.9436    2.4834    0.0000 C   0  0  0  0  0  0  0  0  0  0  0  0
   -8.8658    1.3004    0.0000 C   0  0  0  0  0  0  0  0  0  0  0  0
  -10.3514    1.5075    0.0000 N   0  0  0  0  0  0  0  0  0  0  0  0
   -8.3023   -0.0898    0.0000 C   0  0  0  0  0  0  0  0  0  0  0  0
   -6.8166   -0.2968    0.0000 C   0  0  0  0  0  0  0  0  0  0  0  0
   -0.3106   -2.5152    0.0000 C   0  0  0  0  0  0  0  0  0  0  0  0
    0.3951   -3.8389    0.0000 C   0  0  0  0  0  0  0  0  0  0  0  0
    1.8720   -3.5767    0.0000 C   0  0  0  0  0  0  0  0  0  0  0  0
    2.0791   -2.0911    0.0000 C   0  0  0  0  0  0  0  0  0  0  0  0
    3.3217   -1.2509    0.0000 C   0  0  0  0  0  0  0  0  0  0  0  0
    4.6707   -1.9069    0.0000 C   0  0  0  0  0  0  0  0  0  0  0  0
    4.7770   -3.4031    0.0000 O   0  0  0  0  0  0  0  0  0  0  0  0
    5.9133   -1.0667    0.0000 C   0  0  0  0  0  0  0  0  0  0  0  0
    5.8069    0.4296    0.0000 C   0  0  0  0  0  0  0  0  0  0  0  0
    7.0495    1.2698    0.0000 C   0  0  0  0  0  0  0  0  0  0  0  0
    6.9432    2.7660    0.0000 C   0  0  0  0  0  0  0  0  0  0  0  0
    8.1858    3.6062    0.0000 O   0  0  0  0  0  0  0  0  0  0  0  0
    5.5942    3.4220    0.0000 C   0  0  0  0  0  0  0  0  0  0  0  0
    4.3516    2.5818    0.0000 C   0  0  0  0  0  0  0  0  0  0  0  0
    4.4580    1.0856    0.0000 C   0  0  0  0  0  0  0  0  0  0  0  0
    3.1090    1.7416    0.0000 C   0  0  0  0  0  0  0  0  0  0  0  0
    3.2154    0.2454    0.0000 C   0  0  0  0  0  0  0  0  0  0  0  0
    1.8664    0.9014    0.0000 C   0  0  0  0  0  0  0  0  0  0  0  0
    0.6238    0.0612    0.0000 C   0  0  0  0  0  0  0  0  0  0  0  0
   -0.7251    0.7172    0.0000 O   0  0  0  0  0  0  0  0  0  0  0  0
    0.7302   -1.4350    0.0000 C   0  0  0  0  0  0  0  0  0  0  0  0
   -0.6799   -0.9236    0.0000 C   0  0  0  0  0  0  0  0  0  0  0  0
  2  1  1  6
  2  3  1  0
  3  4  1  0
  4  5  1  0
  5  6  2  0
  5  7  1  0
  7  8  2  0
  8  9  1  0
  9 10  2  0
 10 11  1  0
 10 12  1  0
 12 13  2  0
  2 14  1  0
 14 15  1  6
 15 16  1  0
 17 16  1  6
 17 18  1  0
 18 19  1  1
 19 20  1  1
 19 21  1  0
 22 21  1  1
 22 23  1  0
 23 24  1  0
 24 25  1  1
 24 26  1  0
 26 27  1  0
 27 28  1  0
 28 29  1  6
 28 30  1  0
 30 31  1  6
 31 32  1  0
 32 33  1  1
 32 34  1  0
 34 35  1  6
 13  7  1  0
 34 14  1  0
 34 17  1  0
 30 18  1  0
 28 22  1  0
M  END
>  <MS_ID>  (2427) 
MS2512

>  <SMILES>  (2427) 
C[C@H](CCC(=O)c1ccc(N)cc1)[C@H]1CC[C@H]2[C@@H]3[C@H](O)C[C@@H]4C[C@H](O)CC[C@]4(C)[C@H]3C[C@H](O)[C@]12C

>  <Structure_dimension>  (2427) 
2D

$$$$
MS2513
     RDKit          2D

 31 34  0  0  0  0  0  0  0  0999 V2000
   -3.9274   -2.9894    0.0000 C   0  0  0  0  0  0  0  0  0  0  0  0
   -2.8631   -1.9324    0.0000 C   0  0  0  0  0  0  0  0  0  0  0  0
   -3.2464   -0.4822    0.0000 C   0  0  0  0  0  0  0  0  0  0  0  0
   -4.6940   -0.0890    0.0000 C   0  0  0  0  0  0  0  0  0  0  0  0
   -5.0773    1.3612    0.0000 C   0  0  0  0  0  0  0  0  0  0  0  0
   -4.0130    2.4182    0.0000 O   0  0  0  0  0  0  0  0  0  0  0  0
   -6.5248    1.7544    0.0000 C   0  0  0  0  0  0  0  0  0  0  0  0
   -6.9180    0.3068    0.0000 C   0  0  0  0  0  0  0  0  0  0  0  0
   -6.1316    3.2019    0.0000 C   0  0  0  0  0  0  0  0  0  0  0  0
   -7.9724    2.1475    0.0000 O   0  0  0  0  0  0  0  0  0  0  0  0
   -1.4156   -2.3256    0.0000 C   0  0  0  0  0  0  0  0  0  0  0  0
   -0.8828   -3.7277    0.0000 C   0  0  0  0  0  0  0  0  0  0  0  0
    0.6154   -3.6544    0.0000 C   0  0  0  0  0  0  0  0  0  0  0  0
    1.0086   -2.2068    0.0000 C   0  0  0  0  0  0  0  0  0  0  0  0
    2.3474   -1.5304    0.0000 C   0  0  0  0  0  0  0  0  0  0  0  0
    3.6026   -2.3516    0.0000 C   0  0  0  0  0  0  0  0  0  0  0  0
    4.9414   -1.6752    0.0000 C   0  0  0  0  0  0  0  0  0  0  0  0
    5.0250   -0.1775    0.0000 C   0  0  0  0  0  0  0  0  0  0  0  0
    6.3639    0.4989    0.0000 C   0  0  0  0  0  0  0  0  0  0  0  0
    6.4475    1.9966    0.0000 C   0  0  0  0  0  0  0  0  0  0  0  0
    7.7863    2.6730    0.0000 O   0  0  0  0  0  0  0  0  0  0  0  0
    5.1923    2.8178    0.0000 C   0  0  0  0  0  0  0  0  0  0  0  0
    3.8534    2.1414    0.0000 C   0  0  0  0  0  0  0  0  0  0  0  0
    3.7698    0.6437    0.0000 C   0  0  0  0  0  0  0  0  0  0  0  0
    2.5146    1.4650    0.0000 C   0  0  0  0  0  0  0  0  0  0  0  0
    2.4310   -0.0327    0.0000 C   0  0  0  0  0  0  0  0  0  0  0  0
    1.1758    0.7885    0.0000 C   0  0  0  0  0  0  0  0  0  0  0  0
   -0.1630    0.1121    0.0000 C   0  0  0  0  0  0  0  0  0  0  0  0
   -1.4182    0.9334    0.0000 O   0  0  0  0  0  0  0  0  0  0  0  0
   -0.2466   -1.3856    0.0000 C   0  0  0  0  0  0  0  0  0  0  0  0
   -1.5808   -0.7000    0.0000 C   0  0  0  0  0  0  0  0  0  0  0  0
  2  1  1  6
  2  3  1  0
  3  4  1  0
  4  5  1  0
  5  6  2  0
  5  7  1  0
  7  8  1  0
  7  9  1  0
  7 10  1  0
  2 11  1  0
 11 12  1  6
 12 13  1  0
 14 13  1  6
 14 15  1  0
 15 16  1  1
 16 17  1  0
 18 17  1  1
 18 19  1  0
 19 20  1  0
 20 21  1  1
 20 22  1  0
 22 23  1  0
 23 24  1  0
 24 25  1  6
 24 26  1  0
 26 27  1  6
 27 28  1  0
 28 29  1  1
 28 30  1  0
 30 31  1  6
 30 11  1  0
 30 14  1  0
 26 15  1  0
 24 18  1  0
M  END
>  <MS_ID>  (2428) 
MS2513

>  <SMILES>  (2428) 
C[C@H](CCC(=O)C(C)(C)O)[C@H]1CC[C@H]2[C@@H]3CC[C@@H]4C[C@H](O)CC[C@]4(C)[C@H]3C[C@H](O)[C@]12C

>  <Structure_dimension>  (2428) 
2D

$$$$
MS2514
     RDKit          2D

 34 37  0  0  0  0  0  0  0  0999 V2000
   -3.8867   -3.6191    0.0000 C   0  0  0  0  0  0  0  0  0  0  0  0
   -2.8758   -2.5109    0.0000 C   0  0  0  0  0  0  0  0  0  0  0  0
   -3.3299   -1.0813    0.0000 C   0  0  0  0  0  0  0  0  0  0  0  0
   -4.7951   -0.7599    0.0000 C   0  0  0  0  0  0  0  0  0  0  0  0
   -5.2492    0.6697    0.0000 C   0  0  0  0  0  0  0  0  0  0  0  0
   -4.2383    1.7778    0.0000 O   0  0  0  0  0  0  0  0  0  0  0  0
   -6.7144    0.9912    0.0000 C   0  0  0  0  0  0  0  0  0  0  0  0
   -7.1685    2.4208    0.0000 C   0  0  0  0  0  0  0  0  0  0  0  0
   -8.6337    2.7423    0.0000 C   0  0  0  0  0  0  0  0  0  0  0  0
   -9.6447    1.6341    0.0000 O   0  0  0  0  0  0  0  0  0  0  0  0
   -9.0879    4.1719    0.0000 O   0  0  0  0  0  0  0  0  0  0  0  0
   -1.4106   -2.8324    0.0000 C   0  0  0  0  0  0  0  0  0  0  0  0
   -0.8095   -4.2067    0.0000 C   0  0  0  0  0  0  0  0  0  0  0  0
    0.6833   -4.0597    0.0000 C   0  0  0  0  0  0  0  0  0  0  0  0
    1.0048   -2.5945    0.0000 C   0  0  0  0  0  0  0  0  0  0  0  0
    2.3087   -1.8531    0.0000 C   0  0  0  0  0  0  0  0  0  0  0  0
    3.6028   -2.6116    0.0000 C   0  0  0  0  0  0  0  0  0  0  0  0
    4.9067   -1.8701    0.0000 C   0  0  0  0  0  0  0  0  0  0  0  0
    4.9165   -0.3701    0.0000 C   0  0  0  0  0  0  0  0  0  0  0  0
    6.2205    0.3713    0.0000 C   0  0  0  0  0  0  0  0  0  0  0  0
    6.2303    1.8713    0.0000 C   0  0  0  0  0  0  0  0  0  0  0  0
    7.5342    2.6128    0.0000 C   0  0  0  0  0  0  0  0  0  0  0  0
    7.5440    4.1128    0.0000 O   0  0  0  0  0  0  0  0  0  0  0  0
    8.8283    1.8543    0.0000 O   0  0  0  0  0  0  0  0  0  0  0  0
    4.9362    2.6298    0.0000 C   0  0  0  0  0  0  0  0  0  0  0  0
    3.6323    1.8883    0.0000 C   0  0  0  0  0  0  0  0  0  0  0  0
    3.6224    0.3884    0.0000 C   0  0  0  0  0  0  0  0  0  0  0  0
    2.3283    1.1469    0.0000 C   0  0  0  0  0  0  0  0  0  0  0  0
    2.3185   -0.3531    0.0000 C   0  0  0  0  0  0  0  0  0  0  0  0
    1.0244    0.4054    0.0000 C   0  0  0  0  0  0  0  0  0  0  0  0
   -0.2795   -0.3361    0.0000 C   0  0  0  0  0  0  0  0  0  0  0  0
   -1.5736    0.4224    0.0000 O   0  0  0  0  0  0  0  0  0  0  0  0
   -0.2893   -1.8360    0.0000 C   0  0  0  0  0  0  0  0  0  0  0  0
   -1.6556   -1.2170    0.0000 C   0  0  0  0  0  0  0  0  0  0  0  0
  2  1  1  6
  2  3  1  0
  3  4  1  0
  4  5  1  0
  5  6  2  0
  5  7  1  0
  7  8  1  0
  8  9  1  0
  9 10  2  0
  9 11  1  0
  2 12  1  0
 12 13  1  6
 13 14  1  0
 15 14  1  6
 15 16  1  0
 16 17  1  1
 17 18  1  0
 19 18  1  1
 19 20  1  0
 20 21  1  0
 21 22  1  1
 22 23  2  0
 22 24  1  0
 21 25  1  0
 25 26  1  0
 26 27  1  0
 27 28  1  6
 27 29  1  0
 29 30  1  6
 30 31  1  0
 31 32  1  1
 31 33  1  0
 33 34  1  6
 33 12  1  0
 33 15  1  0
 29 16  1  0
 27 19  1  0
M  END
>  <MS_ID>  (2429) 
MS2514

>  <SMILES>  (2429) 
C[C@H](CCC(=O)CCC(=O)O)[C@H]1CC[C@H]2[C@@H]3CC[C@@H]4C[C@H](C(=O)O)CC[C@]4(C)[C@H]3C[C@H](O)[C@]12C

>  <Structure_dimension>  (2429) 
2D

$$$$
MS2515
     RDKit          2D

 31 34  0  0  0  0  0  0  0  0999 V2000
   -9.4306    3.6828    0.0000 C   0  0  0  0  0  0  0  0  0  0  0  0
   -8.8425    2.3029    0.0000 S   0  0  0  0  0  0  0  0  0  0  0  0
   -7.3534    2.1223    0.0000 C   0  0  0  0  0  0  0  0  0  0  0  0
   -6.7653    0.7424    0.0000 N   0  0  0  0  0  0  0  0  0  0  0  0
   -5.2762    0.5618    0.0000 C   0  0  0  0  0  0  0  0  0  0  0  0
   -4.3753    1.7610    0.0000 O   0  0  0  0  0  0  0  0  0  0  0  0
   -4.6881   -0.8181    0.0000 C   0  0  0  0  0  0  0  0  0  0  0  0
   -3.1991   -0.9988    0.0000 C   0  0  0  0  0  0  0  0  0  0  0  0
   -2.6109   -2.3787    0.0000 C   0  0  0  0  0  0  0  0  0  0  0  0
   -3.5119   -3.5779    0.0000 C   0  0  0  0  0  0  0  0  0  0  0  0
   -1.1219   -2.5593    0.0000 C   0  0  0  0  0  0  0  0  0  0  0  0
   -0.3927   -3.8702    0.0000 C   0  0  0  0  0  0  0  0  0  0  0  0
    1.0793   -3.5818    0.0000 C   0  0  0  0  0  0  0  0  0  0  0  0
    1.2599   -2.0927    0.0000 C   0  0  0  0  0  0  0  0  0  0  0  0
    2.4874   -1.2306    0.0000 C   0  0  0  0  0  0  0  0  0  0  0  0
    3.8478   -1.8625    0.0000 C   0  0  0  0  0  0  0  0  0  0  0  0
    3.9807   -3.3566    0.0000 O   0  0  0  0  0  0  0  0  0  0  0  0
    5.0753   -1.0003    0.0000 C   0  0  0  0  0  0  0  0  0  0  0  0
    4.9423    0.4938    0.0000 C   0  0  0  0  0  0  0  0  0  0  0  0
    6.1698    1.3559    0.0000 C   0  0  0  0  0  0  0  0  0  0  0  0
    6.0369    2.8500    0.0000 C   0  0  0  0  0  0  0  0  0  0  0  0
    7.2644    3.7122    0.0000 O   0  0  0  0  0  0  0  0  0  0  0  0
    4.6765    3.4820    0.0000 C   0  0  0  0  0  0  0  0  0  0  0  0
    3.4490    2.6198    0.0000 C   0  0  0  0  0  0  0  0  0  0  0  0
    3.5820    1.1257    0.0000 C   0  0  0  0  0  0  0  0  0  0  0  0
    2.2216    1.7576    0.0000 C   0  0  0  0  0  0  0  0  0  0  0  0
    2.3545    0.2635    0.0000 C   0  0  0  0  0  0  0  0  0  0  0  0
    0.9941    0.8955    0.0000 C   0  0  0  0  0  0  0  0  0  0  0  0
   -0.2334    0.0333    0.0000 C   0  0  0  0  0  0  0  0  0  0  0  0
   -0.1005   -1.4608    0.0000 C   0  0  0  0  0  0  0  0  0  0  0  0
   -1.5195   -0.9745    0.0000 C   0  0  0  0  0  0  0  0  0  0  0  0
  1  2  1  0
  2  3  1  0
  3  4  1  0
  4  5  1  0
  5  6  2  0
  5  7  1  0
  7  8  1  0
  8  9  1  0
  9 10  1  6
  9 11  1  0
 11 12  1  6
 12 13  1  0
 14 13  1  6
 14 15  1  0
 15 16  1  1
 16 17  1  1
 16 18  1  0
 19 18  1  1
 19 20  1  0
 20 21  1  0
 21 22  1  1
 21 23  1  0
 23 24  1  0
 24 25  1  0
 25 26  1  6
 25 27  1  0
 27 28  1  6
 28 29  1  0
 29 30  1  0
 30 31  1  6
 30 11  1  0
 30 14  1  0
 27 15  1  0
 25 19  1  0
M  END
>  <MS_ID>  (2430) 
MS2515

>  <SMILES>  (2430) 
CSCNC(=O)CC[C@@H](C)[C@H]1CC[C@H]2[C@@H]3[C@H](O)C[C@@H]4C[C@H](O)CC[C@]4(C)[C@H]3CC[C@]12C

>  <Structure_dimension>  (2430) 
2D

$$$$
MS2516
     RDKit          2D

 38 42  0  0  0  0  0  0  0  0999 V2000
   -1.5470   -4.5910    0.0000 C   0  0  0  0  0  0  0  0  0  0  0  0
   -0.9148   -3.2307    0.0000 C   0  0  0  0  0  0  0  0  0  0  0  0
   -1.7767   -2.0031    0.0000 C   0  0  0  0  0  0  0  0  0  0  0  0
   -3.2709   -2.1357    0.0000 C   0  0  0  0  0  0  0  0  0  0  0  0
   -4.1328   -0.9080    0.0000 C   0  0  0  0  0  0  0  0  0  0  0  0
   -3.5006    0.4522    0.0000 O   0  0  0  0  0  0  0  0  0  0  0  0
   -5.6269   -1.0407    0.0000 O   0  0  0  0  0  0  0  0  0  0  0  0
   -6.4888    0.1870    0.0000 C   0  0  0  0  0  0  0  0  0  0  0  0
   -7.9886    0.2112    0.0000 C   0  0  0  0  0  0  0  0  0  0  0  0
   -8.8898   -0.9879    0.0000 O   0  0  0  0  0  0  0  0  0  0  0  0
   -8.4290    1.6451    0.0000 C   0  0  0  0  0  0  0  0  0  0  0  0
   -9.8479    2.1317    0.0000 O   0  0  0  0  0  0  0  0  0  0  0  0
   -7.2014    2.5071    0.0000 C   0  0  0  0  0  0  0  0  0  0  0  0
   -7.1771    4.0069    0.0000 O   0  0  0  0  0  0  0  0  0  0  0  0
   -6.0023    1.6059    0.0000 C   0  0  0  0  0  0  0  0  0  0  0  0
   -4.5684    2.0462    0.0000 O   0  0  0  0  0  0  0  0  0  0  0  0
    0.5793   -3.0981    0.0000 C   0  0  0  0  0  0  0  0  0  0  0  0
    1.5648   -4.2289    0.0000 C   0  0  0  0  0  0  0  0  0  0  0  0
    2.9448   -3.6410    0.0000 C   0  0  0  0  0  0  0  0  0  0  0  0
    2.8122   -2.1469    0.0000 C   0  0  0  0  0  0  0  0  0  0  0  0
    3.8338   -1.0486    0.0000 C   0  0  0  0  0  0  0  0  0  0  0  0
    5.2958   -1.3842    0.0000 C   0  0  0  0  0  0  0  0  0  0  0  0
    5.7362   -2.8181    0.0000 O   0  0  0  0  0  0  0  0  0  0  0  0
    6.3174   -0.2858    0.0000 C   0  0  0  0  0  0  0  0  0  0  0  0
    7.7794   -0.6214    0.0000 O   0  0  0  0  0  0  0  0  0  0  0  0
    5.8770    1.1481    0.0000 C   0  0  0  0  0  0  0  0  0  0  0  0
    6.8986    2.2464    0.0000 C   0  0  0  0  0  0  0  0  0  0  0  0
    6.4583    3.6803    0.0000 C   0  0  0  0  0  0  0  0  0  0  0  0
    7.4799    4.7786    0.0000 O   0  0  0  0  0  0  0  0  0  0  0  0
    4.9963    4.0159    0.0000 C   0  0  0  0  0  0  0  0  0  0  0  0
    3.9747    2.9175    0.0000 C   0  0  0  0  0  0  0  0  0  0  0  0
    4.4151    1.4836    0.0000 C   0  0  0  0  0  0  0  0  0  0  0  0
    2.9531    1.8192    0.0000 C   0  0  0  0  0  0  0  0  0  0  0  0
    3.3935    0.3853    0.0000 C   0  0  0  0  0  0  0  0  0  0  0  0
    1.9315    0.7209    0.0000 C   0  0  0  0  0  0  0  0  0  0  0  0
    0.9099   -0.3774    0.0000 C   0  0  0  0  0  0  0  0  0  0  0  0
    1.3502   -1.8113    0.0000 C   0  0  0  0  0  0  0  0  0  0  0  0
   -0.1388   -1.6304    0.0000 C   0  0  0  0  0  0  0  0  0  0  0  0
  2  1  1  6
  2  3  1  0
  3  4  1  0
  4  5  1  0
  5  6  2  0
  5  7  1  0
  7  8  1  0
  8  9  1  0
  9 10  1  6
  9 11  1  0
 11 12  1  6
 11 13  1  0
 13 14  1  1
 13 15  1  0
 15 16  1  1
  2 17  1  0
 17 18  1  6
 18 19  1  0
 20 19  1  6
 20 21  1  0
 21 22  1  1
 22 23  1  1
 22 24  1  0
 24 25  1  1
 24 26  1  0
 26 27  1  1
 27 28  1  0
 28 29  1  1
 28 30  1  0
 30 31  1  0
 31 32  1  0
 32 33  1  6
 32 34  1  0
 34 35  1  6
 35 36  1  0
 36 37  1  0
 37 38  1  6
 15  8  1  0
 37 17  1  0
 37 20  1  0
 34 21  1  0
 32 26  1  0
M  END
>  <MS_ID>  (2431) 
MS2516

>  <SMILES>  (2431) 
C[C@H](CCC(=O)OC1[C@H](O)[C@H](O)[C@@H](O)[C@H]1O)[C@H]1CC[C@H]2[C@@H]3[C@H](O)[C@H](O)[C@@H]4C[C@H](O)CC[C@]4(C)[C@H]3CC[C@]12C

>  <Structure_dimension>  (2431) 
2D

$$$$
MS2517
     RDKit          2D

 34 37  0  0  0  0  0  0  0  0999 V2000
   -1.8984   -4.2506    0.0000 C   0  0  0  0  0  0  0  0  0  0  0  0
   -1.1842   -2.9316    0.0000 C   0  0  0  0  0  0  0  0  0  0  0  0
   -1.9694   -1.6535    0.0000 C   0  0  0  0  0  0  0  0  0  0  0  0
   -3.4688   -1.6945    0.0000 C   0  0  0  0  0  0  0  0  0  0  0  0
   -4.2540   -0.4165    0.0000 C   0  0  0  0  0  0  0  0  0  0  0  0
   -3.5398    0.9026    0.0000 O   0  0  0  0  0  0  0  0  0  0  0  0
   -5.7535   -0.4574    0.0000 N   0  0  0  0  0  0  0  0  0  0  0  0
   -6.5387    0.8206    0.0000 C   0  0  0  0  0  0  0  0  0  0  0  0
   -8.0381    0.7796    0.0000 C   0  0  0  0  0  0  0  0  0  0  0  0
   -8.8234    2.0577    0.0000 O   0  0  0  0  0  0  0  0  0  0  0  0
  -10.3228    2.0167    0.0000 C   0  0  0  0  0  0  0  0  0  0  0  0
  -11.0370    0.6977    0.0000 O   0  0  0  0  0  0  0  0  0  0  0  0
  -11.1080    3.2948    0.0000 O   0  0  0  0  0  0  0  0  0  0  0  0
    0.3153   -2.8906    0.0000 C   0  0  0  0  0  0  0  0  0  0  0  0
    1.2298   -4.0796    0.0000 C   0  0  0  0  0  0  0  0  0  0  0  0
    2.6432   -3.5773    0.0000 C   0  0  0  0  0  0  0  0  0  0  0  0
    2.6022   -2.0778    0.0000 C   0  0  0  0  0  0  0  0  0  0  0  0
    3.6890   -1.0440    0.0000 C   0  0  0  0  0  0  0  0  0  0  0  0
    5.1278   -1.4684    0.0000 C   0  0  0  0  0  0  0  0  0  0  0  0
    5.4796   -2.9266    0.0000 O   0  0  0  0  0  0  0  0  0  0  0  0
    6.2146   -0.4346    0.0000 C   0  0  0  0  0  0  0  0  0  0  0  0
    5.8628    1.0235    0.0000 C   0  0  0  0  0  0  0  0  0  0  0  0
    6.9497    2.0573    0.0000 C   0  0  0  0  0  0  0  0  0  0  0  0
    6.5978    3.5154    0.0000 C   0  0  0  0  0  0  0  0  0  0  0  0
    7.6847    4.5492    0.0000 O   0  0  0  0  0  0  0  0  0  0  0  0
    5.1591    3.9398    0.0000 C   0  0  0  0  0  0  0  0  0  0  0  0
    4.0722    2.9060    0.0000 C   0  0  0  0  0  0  0  0  0  0  0  0
    4.4241    1.4479    0.0000 C   0  0  0  0  0  0  0  0  0  0  0  0
    2.9854    1.8723    0.0000 C   0  0  0  0  0  0  0  0  0  0  0  0
    3.3372    0.4141    0.0000 C   0  0  0  0  0  0  0  0  0  0  0  0
    1.8985    0.8385    0.0000 C   0  0  0  0  0  0  0  0  0  0  0  0
    0.8116   -0.1953    0.0000 C   0  0  0  0  0  0  0  0  0  0  0  0
    1.1635   -1.6534    0.0000 C   0  0  0  0  0  0  0  0  0  0  0  0
   -0.3117   -1.3818    0.0000 C   0  0  0  0  0  0  0  0  0  0  0  0
  2  1  1  6
  2  3  1  0
  3  4  1  0
  4  5  1  0
  5  6  2  0
  5  7  1  0
  7  8  1  0
  8  9  1  0
  9 10  1  0
 10 11  1  0
 11 12  2  0
 11 13  1  0
  2 14  1  0
 14 15  1  6
 15 16  1  0
 17 16  1  6
 17 18  1  0
 18 19  1  1
 19 20  1  6
 19 21  1  0
 22 21  1  1
 22 23  1  0
 23 24  1  0
 24 25  1  1
 24 26  1  0
 26 27  1  0
 27 28  1  0
 28 29  1  6
 28 30  1  0
 30 31  1  6
 31 32  1  0
 32 33  1  0
 33 34  1  6
 33 14  1  0
 33 17  1  0
 30 18  1  0
 28 22  1  0
M  END
>  <MS_ID>  (2432) 
MS2517

>  <SMILES>  (2432) 
C[C@H](CCC(=O)NCCOC(=O)O)[C@H]1CC[C@H]2[C@@H]3[C@@H](O)C[C@@H]4C[C@H](O)CC[C@]4(C)[C@H]3CC[C@]12C

>  <Structure_dimension>  (2432) 
2D

$$$$
MS2518
     RDKit          2D

 33 36  0  0  0  0  0  0  0  0999 V2000
   -4.7442   -3.3851    0.0000 C   0  0  0  0  0  0  0  0  0  0  0  0
   -4.0753   -2.0426    0.0000 C   0  0  0  0  0  0  0  0  0  0  0  0
   -4.9035   -0.7919    0.0000 C   0  0  0  0  0  0  0  0  0  0  0  0
   -6.4007   -0.8839    0.0000 C   0  0  0  0  0  0  0  0  0  0  0  0
   -7.2289    0.3667    0.0000 C   0  0  0  0  0  0  0  0  0  0  0  0
   -6.5600    1.7093    0.0000 O   0  0  0  0  0  0  0  0  0  0  0  0
   -8.7261    0.2747    0.0000 O   0  0  0  0  0  0  0  0  0  0  0  0
   -2.5781   -1.9506    0.0000 C   0  0  0  0  0  0  0  0  0  0  0  0
   -1.6237   -3.1078    0.0000 C   0  0  0  0  0  0  0  0  0  0  0  0
   -0.2282   -2.5577    0.0000 C   0  0  0  0  0  0  0  0  0  0  0  0
   -0.3202   -1.0605    0.0000 C   0  0  0  0  0  0  0  0  0  0  0  0
    0.7309    0.0097    0.0000 C   0  0  0  0  0  0  0  0  0  0  0  0
    2.1832   -0.3655    0.0000 C   0  0  0  0  0  0  0  0  0  0  0  0
    2.5845   -1.8109    0.0000 C   0  0  0  0  0  0  0  0  0  0  0  0
    4.0368   -2.1861    0.0000 S   0  0  0  0  0  0  0  0  0  0  0  0
    4.4380   -3.6314    0.0000 C   0  0  0  0  0  0  0  0  0  0  0  0
    5.8903   -4.0066    0.0000 C   0  0  0  0  0  0  0  0  0  0  0  0
    6.9414   -2.9364    0.0000 O   0  0  0  0  0  0  0  0  0  0  0  0
    6.2916   -5.4519    0.0000 O   0  0  0  0  0  0  0  0  0  0  0  0
    3.2343    0.7046    0.0000 C   0  0  0  0  0  0  0  0  0  0  0  0
    2.8331    2.1500    0.0000 C   0  0  0  0  0  0  0  0  0  0  0  0
    3.8842    3.2201    0.0000 C   0  0  0  0  0  0  0  0  0  0  0  0
    3.4829    4.6655    0.0000 C   0  0  0  0  0  0  0  0  0  0  0  0
    4.5340    5.7356    0.0000 O   0  0  0  0  0  0  0  0  0  0  0  0
    2.0306    5.0407    0.0000 C   0  0  0  0  0  0  0  0  0  0  0  0
    0.9795    3.9705    0.0000 C   0  0  0  0  0  0  0  0  0  0  0  0
    1.3807    2.5252    0.0000 C   0  0  0  0  0  0  0  0  0  0  0  0
   -0.0716    2.9003    0.0000 C   0  0  0  0  0  0  0  0  0  0  0  0
    0.3297    1.4550    0.0000 C   0  0  0  0  0  0  0  0  0  0  0  0
   -1.1227    1.8302    0.0000 C   0  0  0  0  0  0  0  0  0  0  0  0
   -2.1737    0.7600    0.0000 C   0  0  0  0  0  0  0  0  0  0  0  0
   -1.7725   -0.6853    0.0000 C   0  0  0  0  0  0  0  0  0  0  0  0
   -3.2561   -0.4640    0.0000 C   0  0  0  0  0  0  0  0  0  0  0  0
  2  1  1  6
  2  3  1  0
  3  4  1  0
  4  5  1  0
  5  6  2  0
  5  7  1  0
  2  8  1  0
  8  9  1  6
  9 10  1  0
 11 10  1  6
 11 12  1  0
 12 13  1  1
 13 14  1  6
 14 15  1  0
 15 16  1  0
 16 17  1  0
 17 18  2  0
 17 19  1  0
 13 20  1  0
 21 20  1  1
 21 22  1  0
 22 23  1  0
 23 24  1  1
 23 25  1  0
 25 26  1  0
 26 27  1  0
 27 28  1  6
 27 29  1  0
 29 30  1  6
 30 31  1  0
 31 32  1  0
 32 33  1  6
 32  8  1  0
 32 11  1  0
 29 12  1  0
 27 21  1  0
M  END
>  <MS_ID>  (2433) 
MS2518

>  <SMILES>  (2433) 
C[C@H](CCC(=O)O)[C@H]1CC[C@H]2[C@@H]3[C@@H](CSCC(=O)O)C[C@@H]4C[C@H](O)CC[C@]4(C)[C@H]3CC[C@]12C

>  <Structure_dimension>  (2433) 
2D

$$$$
MS2519
     RDKit          2D

 29 32  0  0  0  0  0  0  0  0999 V2000
   -4.6499   -2.5235    0.0000 C   0  0  0  0  0  0  0  0  0  0  0  0
   -3.5451   -1.5089    0.0000 C   0  0  0  0  0  0  0  0  0  0  0  0
   -3.8714   -0.0448    0.0000 C   0  0  0  0  0  0  0  0  0  0  0  0
   -5.3024    0.4047    0.0000 C   0  0  0  0  0  0  0  0  0  0  0  0
   -5.6287    1.8688    0.0000 C   0  0  0  0  0  0  0  0  0  0  0  0
   -4.5239    2.8834    0.0000 O   0  0  0  0  0  0  0  0  0  0  0  0
   -7.0597    2.3183    0.0000 C   0  0  0  0  0  0  0  0  0  0  0  0
   -8.4908    2.7678    0.0000 N   0  0  0  0  0  0  0  0  0  0  0  0
   -2.1141   -1.9584    0.0000 C   0  0  0  0  0  0  0  0  0  0  0  0
   -1.6366   -3.3804    0.0000 C   0  0  0  0  0  0  0  0  0  0  0  0
   -0.1366   -3.3657    0.0000 C   0  0  0  0  0  0  0  0  0  0  0  0
    0.3129   -1.9346    0.0000 C   0  0  0  0  0  0  0  0  0  0  0  0
    1.6771   -1.3111    0.0000 C   0  0  0  0  0  0  0  0  0  0  0  0
    2.8993   -2.1808    0.0000 C   0  0  0  0  0  0  0  0  0  0  0  0
    2.7571   -3.6741    0.0000 O   0  0  0  0  0  0  0  0  0  0  0  0
    4.2635   -1.5573    0.0000 C   0  0  0  0  0  0  0  0  0  0  0  0
    4.4057   -0.0641    0.0000 C   0  0  0  0  0  0  0  0  0  0  0  0
    5.7699    0.5595    0.0000 C   0  0  0  0  0  0  0  0  0  0  0  0
    5.9121    2.0527    0.0000 C   0  0  0  0  0  0  0  0  0  0  0  0
    7.2764    2.6762    0.0000 O   0  0  0  0  0  0  0  0  0  0  0  0
    4.6900    2.9224    0.0000 C   0  0  0  0  0  0  0  0  0  0  0  0
    3.3257    2.2989    0.0000 C   0  0  0  0  0  0  0  0  0  0  0  0
    3.1836    0.8057    0.0000 C   0  0  0  0  0  0  0  0  0  0  0  0
    1.9614    1.6754    0.0000 C   0  0  0  0  0  0  0  0  0  0  0  0
    1.8193    0.1822    0.0000 C   0  0  0  0  0  0  0  0  0  0  0  0
    0.5972    1.0519    0.0000 C   0  0  0  0  0  0  0  0  0  0  0  0
   -0.7671    0.4284    0.0000 C   0  0  0  0  0  0  0  0  0  0  0  0
   -0.9092   -1.0649    0.0000 C   0  0  0  0  0  0  0  0  0  0  0  0
   -2.2156   -0.3277    0.0000 C   0  0  0  0  0  0  0  0  0  0  0  0
  2  1  1  6
  2  3  1  0
  3  4  1  0
  4  5  1  0
  5  6  2  0
  5  7  1  0
  7  8  3  0
  2  9  1  0
  9 10  1  6
 10 11  1  0
 12 11  1  6
 12 13  1  0
 13 14  1  1
 14 15  1  1
 14 16  1  0
 17 16  1  1
 17 18  1  0
 18 19  1  0
 19 20  1  1
 19 21  1  0
 21 22  1  0
 22 23  1  0
 23 24  1  6
 23 25  1  0
 25 26  1  6
 26 27  1  0
 27 28  1  0
 28 29  1  6
 28  9  1  0
 28 12  1  0
 25 13  1  0
 23 17  1  0
M  END
>  <MS_ID>  (2434) 
MS2519

>  <SMILES>  (2434) 
C[C@H](CCC(=O)C#N)[C@H]1CC[C@H]2[C@@H]3[C@H](O)C[C@@H]4C[C@H](O)CC[C@]4(C)[C@H]3CC[C@]12C

>  <Structure_dimension>  (2434) 
2D

$$$$
MS2520
     RDKit          2D

 33 36  0  0  0  0  0  0  0  0999 V2000
   -3.4814   -3.6706    0.0000 C   0  0  0  0  0  0  0  0  0  0  0  0
   -2.5262   -2.5139    0.0000 C   0  0  0  0  0  0  0  0  0  0  0  0
   -3.0504   -1.1085    0.0000 C   0  0  0  0  0  0  0  0  0  0  0  0
   -4.5296   -0.8597    0.0000 C   0  0  0  0  0  0  0  0  0  0  0  0
   -5.0537    0.5458    0.0000 C   0  0  0  0  0  0  0  0  0  0  0  0
   -4.0986    1.7024    0.0000 O   0  0  0  0  0  0  0  0  0  0  0  0
   -6.5329    0.7946    0.0000 C   0  0  0  0  0  0  0  0  0  0  0  0
   -7.0570    2.2001    0.0000 C   0  0  0  0  0  0  0  0  0  0  0  0
   -8.5362    2.4489    0.0000 C   0  0  0  0  0  0  0  0  0  0  0  0
   -9.4913    1.2923    0.0000 O   0  0  0  0  0  0  0  0  0  0  0  0
   -9.0603    3.8544    0.0000 O   0  0  0  0  0  0  0  0  0  0  0  0
   -1.0470   -2.7628    0.0000 C   0  0  0  0  0  0  0  0  0  0  0  0
   -0.3789   -4.1057    0.0000 C   0  0  0  0  0  0  0  0  0  0  0  0
    1.1048   -3.8853    0.0000 C   0  0  0  0  0  0  0  0  0  0  0  0
    1.3537   -2.4061    0.0000 C   0  0  0  0  0  0  0  0  0  0  0  0
    2.6194   -1.6012    0.0000 C   0  0  0  0  0  0  0  0  0  0  0  0
    3.9494   -2.2950    0.0000 C   0  0  0  0  0  0  0  0  0  0  0  0
    5.2151   -1.4901    0.0000 C   0  0  0  0  0  0  0  0  0  0  0  0
    5.1510    0.0085    0.0000 C   0  0  0  0  0  0  0  0  0  0  0  0
    6.4168    0.8134    0.0000 C   0  0  0  0  0  0  0  0  0  0  0  0
    6.3526    2.3120    0.0000 C   0  0  0  0  0  0  0  0  0  0  0  0
    7.6184    3.1169    0.0000 C   0  0  0  0  0  0  0  0  0  0  0  0
    8.9483    2.4231    0.0000 O   0  0  0  0  0  0  0  0  0  0  0  0
    5.0227    3.0058    0.0000 C   0  0  0  0  0  0  0  0  0  0  0  0
    3.7569    2.2009    0.0000 C   0  0  0  0  0  0  0  0  0  0  0  0
    3.8211    0.7023    0.0000 C   0  0  0  0  0  0  0  0  0  0  0  0
    2.4911    1.3960    0.0000 C   0  0  0  0  0  0  0  0  0  0  0  0
    2.5553   -0.1026    0.0000 C   0  0  0  0  0  0  0  0  0  0  0  0
    1.2254    0.5912    0.0000 C   0  0  0  0  0  0  0  0  0  0  0  0
   -0.0404   -0.2137    0.0000 C   0  0  0  0  0  0  0  0  0  0  0  0
   -1.3703    0.4801    0.0000 O   0  0  0  0  0  0  0  0  0  0  0  0
    0.0237   -1.7123    0.0000 C   0  0  0  0  0  0  0  0  0  0  0  0
   -1.3714   -1.1614    0.0000 C   0  0  0  0  0  0  0  0  0  0  0  0
  2  1  1  6
  2  3  1  0
  3  4  1  0
  4  5  1  0
  5  6  2  0
  5  7  1  0
  7  8  1  0
  8  9  1  0
  9 10  2  0
  9 11  1  0
  2 12  1  0
 12 13  1  6
 13 14  1  0
 15 14  1  6
 15 16  1  0
 16 17  1  1
 17 18  1  0
 19 18  1  1
 19 20  1  0
 20 21  1  0
 21 22  1  1
 22 23  1  0
 21 24  1  0
 24 25  1  0
 25 26  1  0
 26 27  1  6
 26 28  1  0
 28 29  1  6
 29 30  1  0
 30 31  1  1
 30 32  1  0
 32 33  1  6
 32 12  1  0
 32 15  1  0
 28 16  1  0
 26 19  1  0
M  END
>  <MS_ID>  (2435) 
MS2520

>  <SMILES>  (2435) 
C[C@H](CCC(=O)CCC(=O)O)[C@H]1CC[C@H]2[C@@H]3CC[C@@H]4C[C@H](CO)CC[C@]4(C)[C@H]3C[C@H](O)[C@]12C

>  <Structure_dimension>  (2435) 
2D

$$$$
MS2521
     RDKit          2D

 35 38  0  0  0  0  0  0  0  0999 V2000
   -7.4270   -1.7094    0.0000 C   0  0  0  0  0  0  0  0  0  0  0  0
   -6.1801   -0.8755    0.0000 C   0  0  0  0  0  0  0  0  0  0  0  0
   -6.2789    0.6212    0.0000 C   0  0  0  0  0  0  0  0  0  0  0  0
   -7.6245    1.2841    0.0000 C   0  0  0  0  0  0  0  0  0  0  0  0
   -7.7232    2.7809    0.0000 C   0  0  0  0  0  0  0  0  0  0  0  0
   -6.4764    3.6147    0.0000 O   0  0  0  0  0  0  0  0  0  0  0  0
   -9.0688    3.4437    0.0000 O   0  0  0  0  0  0  0  0  0  0  0  0
   -4.8346   -1.5384    0.0000 C   0  0  0  0  0  0  0  0  0  0  0  0
   -4.5799   -3.0166    0.0000 C   0  0  0  0  0  0  0  0  0  0  0  0
   -3.0953   -3.2312    0.0000 C   0  0  0  0  0  0  0  0  0  0  0  0
   -2.4325   -1.8856    0.0000 C   0  0  0  0  0  0  0  0  0  0  0  0
   -0.9890   -1.4778    0.0000 C   0  0  0  0  0  0  0  0  0  0  0  0
    0.0859   -2.5241    0.0000 C   0  0  0  0  0  0  0  0  0  0  0  0
   -0.2827   -3.9781    0.0000 O   0  0  0  0  0  0  0  0  0  0  0  0
    1.5294   -2.1163    0.0000 C   0  0  0  0  0  0  0  0  0  0  0  0
    1.8981   -0.6623    0.0000 C   0  0  0  0  0  0  0  0  0  0  0  0
    3.3416   -0.2545    0.0000 C   0  0  0  0  0  0  0  0  0  0  0  0
    3.7102    1.1995    0.0000 C   0  0  0  0  0  0  0  0  0  0  0  0
    5.1537    1.6072    0.0000 N   0  0  0  0  0  0  0  0  0  0  0  0
    6.2286    0.5610    0.0000 C   0  0  0  0  0  0  0  0  0  0  0  0
    5.8600   -0.8930    0.0000 O   0  0  0  0  0  0  0  0  0  0  0  0
    7.6721    0.9688    0.0000 N   0  0  0  0  0  0  0  0  0  0  0  0
    8.7470   -0.0775    0.0000 C   0  0  0  0  0  0  0  0  0  0  0  0
   10.1905    0.3303    0.0000 C   0  0  0  0  0  0  0  0  0  0  0  0
   10.5591    1.7843    0.0000 O   0  0  0  0  0  0  0  0  0  0  0  0
   11.2654   -0.7159    0.0000 O   0  0  0  0  0  0  0  0  0  0  0  0
    2.6353    2.2457    0.0000 C   0  0  0  0  0  0  0  0  0  0  0  0
    1.1918    1.8379    0.0000 C   0  0  0  0  0  0  0  0  0  0  0  0
    0.8232    0.3839    0.0000 C   0  0  0  0  0  0  0  0  0  0  0  0
   -0.2517    1.4302    0.0000 C   0  0  0  0  0  0  0  0  0  0  0  0
   -0.6203   -0.0238    0.0000 C   0  0  0  0  0  0  0  0  0  0  0  0
   -1.6952    1.0224    0.0000 C   0  0  0  0  0  0  0  0  0  0  0  0
   -3.1387    0.6146    0.0000 C   0  0  0  0  0  0  0  0  0  0  0  0
   -3.5074   -0.8394    0.0000 C   0  0  0  0  0  0  0  0  0  0  0  0
   -4.6857    0.0888    0.0000 C   0  0  0  0  0  0  0  0  0  0  0  0
  2  1  1  6
  2  3  1  0
  3  4  1  0
  4  5  1  0
  5  6  2  0
  5  7  1  0
  2  8  1  0
  8  9  1  6
  9 10  1  0
 11 10  1  6
 11 12  1  0
 12 13  1  1
 13 14  1  6
 13 15  1  0
 16 15  1  1
 16 17  1  0
 17 18  1  0
 18 19  1  1
 19 20  1  0
 20 21  2  0
 20 22  1  0
 22 23  1  0
 23 24  1  0
 24 25  2  0
 24 26  1  0
 18 27  1  0
 27 28  1  0
 28 29  1  0
 29 30  1  6
 29 31  1  0
 31 32  1  6
 32 33  1  0
 33 34  1  0
 34 35  1  6
 34  8  1  0
 34 11  1  0
 31 12  1  0
 29 16  1  0
M  END
>  <MS_ID>  (2436) 
MS2521

>  <SMILES>  (2436) 
C[C@H](CCC(=O)O)[C@H]1CC[C@H]2[C@@H]3[C@@H](O)C[C@@H]4C[C@H](NC(=O)NCC(=O)O)CC[C@]4(C)[C@H]3CC[C@]12C

>  <Structure_dimension>  (2436) 
2D

$$$$
MS2522
     RDKit          2D

 34 38  0  0  0  0  0  0  0  0999 V2000
   -2.2579   -3.9535    0.0000 C   0  0  0  0  0  0  0  0  0  0  0  0
   -1.4544   -2.6869    0.0000 C   0  0  0  0  0  0  0  0  0  0  0  0
   -2.1495   -1.3577    0.0000 C   0  0  0  0  0  0  0  0  0  0  0  0
   -3.6482   -1.2951    0.0000 C   0  0  0  0  0  0  0  0  0  0  0  0
   -4.3433    0.0341    0.0000 C   0  0  0  0  0  0  0  0  0  0  0  0
   -3.5397    1.3007    0.0000 O   0  0  0  0  0  0  0  0  0  0  0  0
   -5.8420    0.0968    0.0000 O   0  0  0  0  0  0  0  0  0  0  0  0
   -6.5371    1.4260    0.0000 C   0  0  0  0  0  0  0  0  0  0  0  0
   -8.0358    1.4886    0.0000 N   0  0  0  0  0  0  0  0  0  0  0  0
   -8.9673    0.3129    0.0000 C   0  0  0  0  0  0  0  0  0  0  0  0
  -10.3733    0.8356    0.0000 C   0  0  0  0  0  0  0  0  0  0  0  0
  -10.3107    2.3343    0.0000 N   0  0  0  0  0  0  0  0  0  0  0  0
   -8.8660    2.7379    0.0000 C   0  0  0  0  0  0  0  0  0  0  0  0
    0.0443   -2.7496    0.0000 C   0  0  0  0  0  0  0  0  0  0  0  0
    0.8746   -3.9988    0.0000 C   0  0  0  0  0  0  0  0  0  0  0  0
    2.3193   -3.5953    0.0000 C   0  0  0  0  0  0  0  0  0  0  0  0
    2.3819   -2.0966    0.0000 C   0  0  0  0  0  0  0  0  0  0  0  0
    3.5376   -1.1403    0.0000 C   0  0  0  0  0  0  0  0  0  0  0  0
    4.9435   -1.6630    0.0000 C   0  0  0  0  0  0  0  0  0  0  0  0
    5.1939   -3.1420    0.0000 O   0  0  0  0  0  0  0  0  0  0  0  0
    6.0992   -0.7067    0.0000 C   0  0  0  0  0  0  0  0  0  0  0  0
    5.8489    0.7722    0.0000 C   0  0  0  0  0  0  0  0  0  0  0  0
    7.0045    1.7285    0.0000 C   0  0  0  0  0  0  0  0  0  0  0  0
    6.7542    3.2075    0.0000 C   0  0  0  0  0  0  0  0  0  0  0  0
    7.9098    4.1638    0.0000 O   0  0  0  0  0  0  0  0  0  0  0  0
    5.3482    3.7302    0.0000 C   0  0  0  0  0  0  0  0  0  0  0  0
    4.1925    2.7739    0.0000 C   0  0  0  0  0  0  0  0  0  0  0  0
    4.4429    1.2949    0.0000 C   0  0  0  0  0  0  0  0  0  0  0  0
    3.0369    1.8176    0.0000 C   0  0  0  0  0  0  0  0  0  0  0  0
    3.2872    0.3386    0.0000 C   0  0  0  0  0  0  0  0  0  0  0  0
    1.8812    0.8613    0.0000 C   0  0  0  0  0  0  0  0  0  0  0  0
    0.7256   -0.0949    0.0000 C   0  0  0  0  0  0  0  0  0  0  0  0
    0.9759   -1.5739    0.0000 C   0  0  0  0  0  0  0  0  0  0  0  0
   -0.4770   -1.2011    0.0000 C   0  0  0  0  0  0  0  0  0  0  0  0
  2  1  1  6
  2  3  1  0
  3  4  1  0
  4  5  1  0
  5  6  2  0
  5  7  1  0
  7  8  1  0
  8  9  1  0
  9 10  1  0
 10 11  2  0
 11 12  1  0
 12 13  2  0
  2 14  1  0
 14 15  1  6
 15 16  1  0
 17 16  1  6
 17 18  1  0
 18 19  1  1
 19 20  1  1
 19 21  1  0
 22 21  1  1
 22 23  1  0
 23 24  1  0
 24 25  1  1
 24 26  1  0
 26 27  1  0
 27 28  1  0
 28 29  1  6
 28 30  1  0
 30 31  1  6
 31 32  1  0
 32 33  1  0
 33 34  1  6
 13  9  1  0
 33 14  1  0
 33 17  1  0
 30 18  1  0
 28 22  1  0
M  END
>  <MS_ID>  (2437) 
MS2522

>  <SMILES>  (2437) 
C[C@H](CCC(=O)OCn1ccnc1)[C@H]1CC[C@H]2[C@@H]3[C@H](O)C[C@@H]4C[C@H](O)CC[C@]4(C)[C@H]3CC[C@]12C

>  <Structure_dimension>  (2437) 
2D

$$$$
MS2523
     RDKit          2D

 30 33  0  0  0  0  0  0  0  0999 V2000
   -4.3209   -2.7536    0.0000 C   0  0  0  0  0  0  0  0  0  0  0  0
   -3.2523   -1.7010    0.0000 C   0  0  0  0  0  0  0  0  0  0  0  0
   -3.6295   -0.2492    0.0000 C   0  0  0  0  0  0  0  0  0  0  0  0
   -5.0755    0.1499    0.0000 C   0  0  0  0  0  0  0  0  0  0  0  0
   -5.4527    1.6017    0.0000 C   0  0  0  0  0  0  0  0  0  0  0  0
   -4.3841    2.6543    0.0000 O   0  0  0  0  0  0  0  0  0  0  0  0
   -6.8987    2.0009    0.0000 N   0  0  0  0  0  0  0  0  0  0  0  0
   -7.2759    3.4526    0.0000 C   0  0  0  0  0  0  0  0  0  0  0  0
   -7.9673    0.9482    0.0000 C   0  0  0  0  0  0  0  0  0  0  0  0
   -1.8064   -2.1002    0.0000 C   0  0  0  0  0  0  0  0  0  0  0  0
   -1.2794   -3.5046    0.0000 C   0  0  0  0  0  0  0  0  0  0  0  0
    0.2191   -3.4374    0.0000 C   0  0  0  0  0  0  0  0  0  0  0  0
    0.6183   -1.9915    0.0000 C   0  0  0  0  0  0  0  0  0  0  0  0
    1.9599   -1.3206    0.0000 C   0  0  0  0  0  0  0  0  0  0  0  0
    3.2117   -2.1470    0.0000 C   0  0  0  0  0  0  0  0  0  0  0  0
    3.1219   -3.6443    0.0000 O   0  0  0  0  0  0  0  0  0  0  0  0
    4.5533   -1.4762    0.0000 C   0  0  0  0  0  0  0  0  0  0  0  0
    4.6431    0.0211    0.0000 C   0  0  0  0  0  0  0  0  0  0  0  0
    5.9847    0.6920    0.0000 C   0  0  0  0  0  0  0  0  0  0  0  0
    6.0745    2.1893    0.0000 C   0  0  0  0  0  0  0  0  0  0  0  0
    7.4161    2.8602    0.0000 O   0  0  0  0  0  0  0  0  0  0  0  0
    4.8227    3.0158    0.0000 C   0  0  0  0  0  0  0  0  0  0  0  0
    3.4811    2.3449    0.0000 C   0  0  0  0  0  0  0  0  0  0  0  0
    3.3913    0.8476    0.0000 C   0  0  0  0  0  0  0  0  0  0  0  0
    2.1395    1.6740    0.0000 C   0  0  0  0  0  0  0  0  0  0  0  0
    2.0497    0.1767    0.0000 C   0  0  0  0  0  0  0  0  0  0  0  0
    0.7979    1.0031    0.0000 C   0  0  0  0  0  0  0  0  0  0  0  0
   -0.5437    0.3323    0.0000 C   0  0  0  0  0  0  0  0  0  0  0  0
   -0.6335   -1.1650    0.0000 C   0  0  0  0  0  0  0  0  0  0  0  0
   -1.9649   -0.4740    0.0000 C   0  0  0  0  0  0  0  0  0  0  0  0
  2  1  1  6
  2  3  1  0
  3  4  1  0
  4  5  1  0
  5  6  2  0
  5  7  1  0
  7  8  1  0
  7  9  1  0
  2 10  1  0
 10 11  1  6
 11 12  1  0
 13 12  1  6
 13 14  1  0
 14 15  1  1
 15 16  2  0
 15 17  1  0
 18 17  1  1
 18 19  1  0
 19 20  1  0
 20 21  1  1
 20 22  1  0
 22 23  1  0
 23 24  1  0
 24 25  1  6
 24 26  1  0
 26 27  1  6
 27 28  1  0
 28 29  1  0
 29 30  1  6
 29 10  1  0
 29 13  1  0
 26 14  1  0
 24 18  1  0
M  END
>  <MS_ID>  (2438) 
MS2523

>  <SMILES>  (2438) 
C[C@H](CCC(=O)N(C)C)[C@H]1CC[C@H]2[C@@H]3C(=O)C[C@@H]4C[C@H](O)CC[C@]4(C)[C@H]3CC[C@]12C

>  <Structure_dimension>  (2438) 
2D

$$$$
MS2524
     RDKit          2D

 33 36  0  0  0  0  0  0  0  0999 V2000
   -1.6035   -4.2462    0.0000 C   0  0  0  0  0  0  0  0  0  0  0  0
   -0.9592   -2.8916    0.0000 C   0  0  0  0  0  0  0  0  0  0  0  0
   -1.8103   -1.6564    0.0000 C   0  0  0  0  0  0  0  0  0  0  0  0
   -3.3055   -1.7758    0.0000 C   0  0  0  0  0  0  0  0  0  0  0  0
   -4.1565   -0.5406    0.0000 C   0  0  0  0  0  0  0  0  0  0  0  0
   -3.5123    0.8140    0.0000 O   0  0  0  0  0  0  0  0  0  0  0  0
   -5.6518   -0.6600    0.0000 N   0  0  0  0  0  0  0  0  0  0  0  0
   -6.5028    0.5752    0.0000 C   0  0  0  0  0  0  0  0  0  0  0  0
   -7.9980    0.4558    0.0000 C   0  0  0  0  0  0  0  0  0  0  0  0
   -8.8491    1.6910    0.0000 S   0  0  0  0  0  0  0  0  0  0  0  0
  -10.0843    0.8400    0.0000 O   0  0  0  0  0  0  0  0  0  0  0  0
   -7.6139    2.5421    0.0000 O   0  0  0  0  0  0  0  0  0  0  0  0
   -9.7001    2.9262    0.0000 O   0  0  0  0  0  0  0  0  0  0  0  0
    0.5360   -2.7722    0.0000 C   0  0  0  0  0  0  0  0  0  0  0  0
    1.5115   -3.9117    0.0000 C   0  0  0  0  0  0  0  0  0  0  0  0
    2.8966   -3.3361    0.0000 C   0  0  0  0  0  0  0  0  0  0  0  0
    2.7772   -1.8408    0.0000 C   0  0  0  0  0  0  0  0  0  0  0  0
    3.8085   -0.7516    0.0000 C   0  0  0  0  0  0  0  0  0  0  0  0
    5.2675   -1.1001    0.0000 C   0  0  0  0  0  0  0  0  0  0  0  0
    5.6951   -2.5378    0.0000 O   0  0  0  0  0  0  0  0  0  0  0  0
    6.2988   -0.0108    0.0000 C   0  0  0  0  0  0  0  0  0  0  0  0
    5.8711    1.4269    0.0000 C   0  0  0  0  0  0  0  0  0  0  0  0
    6.9024    2.5162    0.0000 C   0  0  0  0  0  0  0  0  0  0  0  0
    6.4747    3.9539    0.0000 C   0  0  0  0  0  0  0  0  0  0  0  0
    5.0157    4.3024    0.0000 C   0  0  0  0  0  0  0  0  0  0  0  0
    3.9844    3.2131    0.0000 C   0  0  0  0  0  0  0  0  0  0  0  0
    4.4121    1.7754    0.0000 C   0  0  0  0  0  0  0  0  0  0  0  0
    2.9532    2.1239    0.0000 C   0  0  0  0  0  0  0  0  0  0  0  0
    3.3808    0.6862    0.0000 C   0  0  0  0  0  0  0  0  0  0  0  0
    1.9219    1.0346    0.0000 C   0  0  0  0  0  0  0  0  0  0  0  0
    0.8906   -0.0546    0.0000 C   0  0  0  0  0  0  0  0  0  0  0  0
    1.3183   -1.4923    0.0000 C   0  0  0  0  0  0  0  0  0  0  0  0
   -0.1691   -1.2983    0.0000 C   0  0  0  0  0  0  0  0  0  0  0  0
  2  1  1  6
  2  3  1  0
  3  4  1  0
  4  5  1  0
  5  6  2  0
  5  7  1  0
  7  8  1  0
  8  9  1  0
  9 10  1  0
 10 11  2  0
 10 12  2  0
 10 13  1  0
  2 14  1  0
 14 15  1  6
 15 16  1  0
 17 16  1  6
 17 18  1  0
 18 19  1  1
 19 20  1  6
 19 21  1  0
 22 21  1  1
 22 23  1  0
 23 24  1  0
 24 25  1  0
 25 26  1  0
 26 27  1  0
 27 28  1  6
 27 29  1  0
 29 30  1  6
 30 31  1  0
 31 32  1  0
 32 33  1  6
 32 14  1  0
 32 17  1  0
 29 18  1  0
 27 22  1  0
M  END
>  <MS_ID>  (2439) 
MS2524

>  <SMILES>  (2439) 
C[C@H](CCC(=O)NCCS(=O)(=O)O)[C@H]1CC[C@H]2[C@@H]3[C@@H](O)C[C@@H]4CCCC[C@]4(C)[C@H]3CC[C@]12C

>  <Structure_dimension>  (2439) 
2D

$$$$
MS2525
     RDKit          2D

 29 32  0  0  0  0  0  0  0  0999 V2000
   -4.6551   -2.6180    0.0000 C   0  0  0  0  0  0  0  0  0  0  0  0
   -3.5633   -1.5894    0.0000 C   0  0  0  0  0  0  0  0  0  0  0  0
   -3.9081   -0.1296    0.0000 C   0  0  0  0  0  0  0  0  0  0  0  0
   -5.3448    0.3016    0.0000 C   0  0  0  0  0  0  0  0  0  0  0  0
   -5.6897    1.7615    0.0000 C   0  0  0  0  0  0  0  0  0  0  0  0
   -4.5979    2.7900    0.0000 O   0  0  0  0  0  0  0  0  0  0  0  0
   -7.1264    2.1927    0.0000 C   0  0  0  0  0  0  0  0  0  0  0  0
   -7.4712    3.6525    0.0000 O   0  0  0  0  0  0  0  0  0  0  0  0
   -2.1266   -2.0207    0.0000 C   0  0  0  0  0  0  0  0  0  0  0  0
   -1.6310   -3.4364    0.0000 C   0  0  0  0  0  0  0  0  0  0  0  0
   -0.1314   -3.4026    0.0000 C   0  0  0  0  0  0  0  0  0  0  0  0
    0.2998   -1.9659    0.0000 C   0  0  0  0  0  0  0  0  0  0  0  0
    1.6561   -1.3251    0.0000 C   0  0  0  0  0  0  0  0  0  0  0  0
    2.8892   -2.1792    0.0000 C   0  0  0  0  0  0  0  0  0  0  0  0
    2.7660   -3.6741    0.0000 O   0  0  0  0  0  0  0  0  0  0  0  0
    4.2454   -1.5383    0.0000 C   0  0  0  0  0  0  0  0  0  0  0  0
    4.3685   -0.0434    0.0000 C   0  0  0  0  0  0  0  0  0  0  0  0
    5.7247    0.5975    0.0000 C   0  0  0  0  0  0  0  0  0  0  0  0
    5.8478    2.0924    0.0000 C   0  0  0  0  0  0  0  0  0  0  0  0
    7.2040    2.7332    0.0000 O   0  0  0  0  0  0  0  0  0  0  0  0
    4.6147    2.9465    0.0000 C   0  0  0  0  0  0  0  0  0  0  0  0
    3.2585    2.3056    0.0000 C   0  0  0  0  0  0  0  0  0  0  0  0
    3.1354    0.8107    0.0000 C   0  0  0  0  0  0  0  0  0  0  0  0
    1.9023    1.6648    0.0000 C   0  0  0  0  0  0  0  0  0  0  0  0
    1.7792    0.1699    0.0000 C   0  0  0  0  0  0  0  0  0  0  0  0
    0.5461    1.0239    0.0000 C   0  0  0  0  0  0  0  0  0  0  0  0
   -0.8101    0.3831    0.0000 C   0  0  0  0  0  0  0  0  0  0  0  0
   -0.9333   -1.1118    0.0000 C   0  0  0  0  0  0  0  0  0  0  0  0
   -2.2489   -0.3913    0.0000 C   0  0  0  0  0  0  0  0  0  0  0  0
  2  1  1  6
  2  3  1  0
  3  4  1  0
  4  5  1  0
  5  6  2  0
  5  7  1  0
  7  8  2  0
  2  9  1  0
  9 10  1  6
 10 11  1  0
 12 11  1  6
 12 13  1  0
 13 14  1  1
 14 15  1  6
 14 16  1  0
 17 16  1  1
 17 18  1  0
 18 19  1  0
 19 20  1  1
 19 21  1  0
 21 22  1  0
 22 23  1  0
 23 24  1  6
 23 25  1  0
 25 26  1  6
 26 27  1  0
 27 28  1  0
 28 29  1  6
 28  9  1  0
 28 12  1  0
 25 13  1  0
 23 17  1  0
M  END
>  <MS_ID>  (2440) 
MS2525

>  <SMILES>  (2440) 
C[C@H](CCC(=O)C=O)[C@H]1CC[C@H]2[C@@H]3[C@@H](O)C[C@@H]4C[C@H](O)CC[C@]4(C)[C@H]3CC[C@]12C

>  <Structure_dimension>  (2440) 
2D

$$$$
MS2526
     RDKit          2D

 36 40  0  0  0  0  0  0  0  0999 V2000
   -1.4753   -4.0971    0.0000 C   0  0  0  0  0  0  0  0  0  0  0  0
   -0.7153   -2.8039    0.0000 C   0  0  0  0  0  0  0  0  0  0  0  0
   -1.4552   -1.4991    0.0000 C   0  0  0  0  0  0  0  0  0  0  0  0
   -2.9552   -1.4875    0.0000 C   0  0  0  0  0  0  0  0  0  0  0  0
   -3.6951   -0.1827    0.0000 C   0  0  0  0  0  0  0  0  0  0  0  0
   -2.9351    1.1105    0.0000 O   0  0  0  0  0  0  0  0  0  0  0  0
   -5.1951   -0.1712    0.0000 O   0  0  0  0  0  0  0  0  0  0  0  0
   -5.9351    1.1336    0.0000 C   0  0  0  0  0  0  0  0  0  0  0  0
   -7.4350    1.1452    0.0000 C   0  0  0  0  0  0  0  0  0  0  0  0
   -8.1750    2.4500    0.0000 C   0  0  0  0  0  0  0  0  0  0  0  0
   -9.6749    2.4615    0.0000 C   0  0  0  0  0  0  0  0  0  0  0  0
  -10.4349    1.1683    0.0000 C   0  0  0  0  0  0  0  0  0  0  0  0
  -11.9349    1.1799    0.0000 O   0  0  0  0  0  0  0  0  0  0  0  0
   -9.6950   -0.1365    0.0000 C   0  0  0  0  0  0  0  0  0  0  0  0
   -8.1950   -0.1480    0.0000 C   0  0  0  0  0  0  0  0  0  0  0  0
    0.7847   -2.8154    0.0000 C   0  0  0  0  0  0  0  0  0  0  0  0
    1.6570   -4.0357    0.0000 C   0  0  0  0  0  0  0  0  0  0  0  0
    3.0871   -3.5832    0.0000 C   0  0  0  0  0  0  0  0  0  0  0  0
    3.0987   -2.0833    0.0000 C   0  0  0  0  0  0  0  0  0  0  0  0
    4.2211   -1.0882    0.0000 C   0  0  0  0  0  0  0  0  0  0  0  0
    5.6441   -1.5627    0.0000 C   0  0  0  0  0  0  0  0  0  0  0  0
    5.9446   -3.0323    0.0000 O   0  0  0  0  0  0  0  0  0  0  0  0
    6.7665   -0.5677    0.0000 C   0  0  0  0  0  0  0  0  0  0  0  0
    6.4659    0.9019    0.0000 C   0  0  0  0  0  0  0  0  0  0  0  0
    7.5884    1.8970    0.0000 C   0  0  0  0  0  0  0  0  0  0  0  0
    7.2878    3.3666    0.0000 C   0  0  0  0  0  0  0  0  0  0  0  0
    8.4103    4.3616    0.0000 O   0  0  0  0  0  0  0  0  0  0  0  0
    5.8649    3.8411    0.0000 C   0  0  0  0  0  0  0  0  0  0  0  0
    4.7424    2.8460    0.0000 C   0  0  0  0  0  0  0  0  0  0  0  0
    5.0430    1.3764    0.0000 C   0  0  0  0  0  0  0  0  0  0  0  0
    3.6200    1.8510    0.0000 C   0  0  0  0  0  0  0  0  0  0  0  0
    3.9205    0.3814    0.0000 C   0  0  0  0  0  0  0  0  0  0  0  0
    2.4976    0.8559    0.0000 C   0  0  0  0  0  0  0  0  0  0  0  0
    1.3752   -0.1392    0.0000 C   0  0  0  0  0  0  0  0  0  0  0  0
    1.6757   -1.6088    0.0000 C   0  0  0  0  0  0  0  0  0  0  0  0
    0.2109   -1.2856    0.0000 C   0  0  0  0  0  0  0  0  0  0  0  0
  2  1  1  6
  2  3  1  0
  3  4  1  0
  4  5  1  0
  5  6  2  0
  5  7  1  0
  7  8  1  0
  8  9  1  0
  9 10  2  0
 10 11  1  0
 11 12  2  0
 12 13  1  0
 12 14  1  0
 14 15  2  0
  2 16  1  0
 16 17  1  6
 17 18  1  0
 19 18  1  6
 19 20  1  0
 20 21  1  1
 21 22  1  1
 21 23  1  0
 24 23  1  1
 24 25  1  0
 25 26  1  0
 26 27  1  1
 26 28  1  0
 28 29  1  0
 29 30  1  0
 30 31  1  6
 30 32  1  0
 32 33  1  6
 33 34  1  0
 34 35  1  0
 35 36  1  6
 15  9  1  0
 35 16  1  0
 35 19  1  0
 32 20  1  0
 30 24  1  0
M  END
>  <MS_ID>  (2441) 
MS2526

>  <SMILES>  (2441) 
C[C@H](CCC(=O)OCc1ccc(O)cc1)[C@H]1CC[C@H]2[C@@H]3[C@H](O)C[C@@H]4C[C@H](O)CC[C@]4(C)[C@H]3CC[C@]12C

>  <Structure_dimension>  (2441) 
2D

$$$$
MS2527
     RDKit          2D

 30 33  0  0  0  0  0  0  0  0999 V2000
   -4.5685   -2.6908    0.0000 C   0  0  0  0  0  0  0  0  0  0  0  0
   -3.4838   -1.6548    0.0000 C   0  0  0  0  0  0  0  0  0  0  0  0
   -3.8388   -0.1974    0.0000 C   0  0  0  0  0  0  0  0  0  0  0  0
   -5.2784    0.2240    0.0000 C   0  0  0  0  0  0  0  0  0  0  0  0
   -5.6333    1.6814    0.0000 C   0  0  0  0  0  0  0  0  0  0  0  0
   -4.5486    2.7174    0.0000 O   0  0  0  0  0  0  0  0  0  0  0  0
   -7.0729    2.1027    0.0000 N   0  0  0  0  0  0  0  0  0  0  0  0
   -7.4279    3.5601    0.0000 O   0  0  0  0  0  0  0  0  0  0  0  0
   -2.0442   -2.0761    0.0000 C   0  0  0  0  0  0  0  0  0  0  0  0
   -1.5389   -3.4884    0.0000 C   0  0  0  0  0  0  0  0  0  0  0  0
   -0.0395   -3.4442    0.0000 C   0  0  0  0  0  0  0  0  0  0  0  0
    0.3818   -2.0046    0.0000 C   0  0  0  0  0  0  0  0  0  0  0  0
    1.7336   -1.3544    0.0000 C   0  0  0  0  0  0  0  0  0  0  0  0
    2.9725   -2.1999    0.0000 C   0  0  0  0  0  0  0  0  0  0  0  0
    2.8597   -3.6957    0.0000 O   0  0  0  0  0  0  0  0  0  0  0  0
    4.3243   -1.5497    0.0000 C   0  0  0  0  0  0  0  0  0  0  0  0
    4.4371   -0.0540    0.0000 C   0  0  0  0  0  0  0  0  0  0  0  0
    5.7888    0.5962    0.0000 C   0  0  0  0  0  0  0  0  0  0  0  0
    5.9016    2.0920    0.0000 C   0  0  0  0  0  0  0  0  0  0  0  0
    7.2534    2.7422    0.0000 O   0  0  0  0  0  0  0  0  0  0  0  0
    4.6627    2.9375    0.0000 C   0  0  0  0  0  0  0  0  0  0  0  0
    3.3109    2.2873    0.0000 C   0  0  0  0  0  0  0  0  0  0  0  0
    3.1981    0.7916    0.0000 C   0  0  0  0  0  0  0  0  0  0  0  0
    1.9591    1.6371    0.0000 C   0  0  0  0  0  0  0  0  0  0  0  0
    1.8464    0.1414    0.0000 C   0  0  0  0  0  0  0  0  0  0  0  0
    0.6074    0.9869    0.0000 C   0  0  0  0  0  0  0  0  0  0  0  0
   -0.7444    0.3367    0.0000 C   0  0  0  0  0  0  0  0  0  0  0  0
   -1.9833    1.1823    0.0000 O   0  0  0  0  0  0  0  0  0  0  0  0
   -0.8572   -1.1590    0.0000 C   0  0  0  0  0  0  0  0  0  0  0  0
   -2.1777   -0.4476    0.0000 C   0  0  0  0  0  0  0  0  0  0  0  0
  2  1  1  6
  2  3  1  0
  3  4  1  0
  4  5  1  0
  5  6  2  0
  5  7  1  0
  7  8  1  0
  2  9  1  0
  9 10  1  6
 10 11  1  0
 12 11  1  6
 12 13  1  0
 13 14  1  1
 14 15  1  6
 14 16  1  0
 17 16  1  1
 17 18  1  0
 18 19  1  0
 19 20  1  1
 19 21  1  0
 21 22  1  0
 22 23  1  0
 23 24  1  6
 23 25  1  0
 25 26  1  6
 26 27  1  0
 27 28  2  0
 27 29  1  0
 29 30  1  6
 29  9  1  0
 29 12  1  0
 25 13  1  0
 23 17  1  0
M  END
>  <MS_ID>  (2442) 
MS2527

>  <SMILES>  (2442) 
C[C@H](CCC(=O)NO)[C@H]1CC[C@H]2[C@@H]3[C@@H](O)C[C@@H]4C[C@H](O)CC[C@]4(C)[C@H]3CC(=O)[C@]12C

>  <Structure_dimension>  (2442) 
2D

$$$$
MS2528
     RDKit          2D

 28 31  0  0  0  0  0  0  0  0999 V2000
   -5.0096   -2.1352    0.0000 C   0  0  0  0  0  0  0  0  0  0  0  0
   -3.8132   -1.2303    0.0000 C   0  0  0  0  0  0  0  0  0  0  0  0
   -3.9987    0.2582    0.0000 C   0  0  0  0  0  0  0  0  0  0  0  0
   -5.3805    0.8418    0.0000 C   0  0  0  0  0  0  0  0  0  0  0  0
   -5.5659    2.3303    0.0000 C   0  0  0  0  0  0  0  0  0  0  0  0
   -6.9477    2.9140    0.0000 O   0  0  0  0  0  0  0  0  0  0  0  0
   -4.3695    3.2351    0.0000 F   0  0  0  0  0  0  0  0  0  0  0  0
   -2.4315   -1.8140    0.0000 C   0  0  0  0  0  0  0  0  0  0  0  0
   -2.0914   -3.2749    0.0000 C   0  0  0  0  0  0  0  0  0  0  0  0
   -0.5969   -3.4030    0.0000 C   0  0  0  0  0  0  0  0  0  0  0  0
   -0.0133   -2.0212    0.0000 C   0  0  0  0  0  0  0  0  0  0  0  0
    1.4041   -1.5304    0.0000 C   0  0  0  0  0  0  0  0  0  0  0  0
    2.5379   -2.5125    0.0000 C   0  0  0  0  0  0  0  0  0  0  0  0
    3.9554   -2.0216    0.0000 C   0  0  0  0  0  0  0  0  0  0  0  0
    4.2390   -0.5487    0.0000 C   0  0  0  0  0  0  0  0  0  0  0  0
    5.6564   -0.0578    0.0000 C   0  0  0  0  0  0  0  0  0  0  0  0
    5.9400    1.4151    0.0000 C   0  0  0  0  0  0  0  0  0  0  0  0
    7.3574    1.9060    0.0000 O   0  0  0  0  0  0  0  0  0  0  0  0
    4.8062    2.3972    0.0000 C   0  0  0  0  0  0  0  0  0  0  0  0
    3.3888    1.9064    0.0000 C   0  0  0  0  0  0  0  0  0  0  0  0
    3.1052    0.4334    0.0000 C   0  0  0  0  0  0  0  0  0  0  0  0
    1.9714    1.4155    0.0000 C   0  0  0  0  0  0  0  0  0  0  0  0
    1.6878   -0.0574    0.0000 C   0  0  0  0  0  0  0  0  0  0  0  0
    0.5540    0.9246    0.0000 C   0  0  0  0  0  0  0  0  0  0  0  0
   -0.8635    0.4338    0.0000 C   0  0  0  0  0  0  0  0  0  0  0  0
   -1.9973    1.4159    0.0000 O   0  0  0  0  0  0  0  0  0  0  0  0
   -1.1471   -1.0392    0.0000 C   0  0  0  0  0  0  0  0  0  0  0  0
   -2.3773   -0.1810    0.0000 C   0  0  0  0  0  0  0  0  0  0  0  0
  2  1  1  6
  2  3  1  0
  3  4  1  0
  4  5  1  0
  5  6  2  0
  5  7  1  0
  2  8  1  0
  8  9  1  6
  9 10  1  0
 11 10  1  6
 11 12  1  0
 12 13  1  1
 13 14  1  0
 15 14  1  1
 15 16  1  0
 16 17  1  0
 17 18  2  0
 17 19  1  0
 19 20  1  0
 20 21  1  0
 21 22  1  6
 21 23  1  0
 23 24  1  6
 24 25  1  0
 25 26  1  6
 25 27  1  0
 27 28  1  6
 27  8  1  0
 27 11  1  0
 23 12  1  0
 21 15  1  0
M  END
>  <MS_ID>  (2443) 
MS2528

>  <SMILES>  (2443) 
C[C@H](CCC(=O)F)[C@H]1CC[C@H]2[C@@H]3CC[C@@H]4CC(=O)CC[C@]4(C)[C@H]3C[C@@H](O)[C@]12C

>  <Structure_dimension>  (2443) 
2D

$$$$
MS2529
     RDKit          2D

 35 38  0  0  0  0  0  0  0  0999 V2000
   -2.3340   -4.2776    0.0000 C   0  0  0  0  0  0  0  0  0  0  0  0
   -1.5670   -2.9885    0.0000 C   0  0  0  0  0  0  0  0  0  0  0  0
   -2.2999   -1.6798    0.0000 C   0  0  0  0  0  0  0  0  0  0  0  0
   -3.7998   -1.6601    0.0000 C   0  0  0  0  0  0  0  0  0  0  0  0
   -4.5326   -0.3513    0.0000 C   0  0  0  0  0  0  0  0  0  0  0  0
   -3.7656    0.9378    0.0000 O   0  0  0  0  0  0  0  0  0  0  0  0
   -6.0325   -0.3316    0.0000 N   0  0  0  0  0  0  0  0  0  0  0  0
   -6.7654    0.9772    0.0000 C   0  0  0  0  0  0  0  0  0  0  0  0
   -8.2653    0.9969    0.0000 C   0  0  0  0  0  0  0  0  0  0  0  0
   -8.9981    2.3056    0.0000 C   0  0  0  0  0  0  0  0  0  0  0  0
  -10.4980    2.3253    0.0000 C   0  0  0  0  0  0  0  0  0  0  0  0
  -11.2650    1.0362    0.0000 O   0  0  0  0  0  0  0  0  0  0  0  0
  -11.2309    3.6341    0.0000 O   0  0  0  0  0  0  0  0  0  0  0  0
   -0.0671   -3.0082    0.0000 C   0  0  0  0  0  0  0  0  0  0  0  0
    0.7985   -4.2332    0.0000 C   0  0  0  0  0  0  0  0  0  0  0  0
    2.2311   -3.7884    0.0000 C   0  0  0  0  0  0  0  0  0  0  0  0
    2.2508   -2.2886    0.0000 C   0  0  0  0  0  0  0  0  0  0  0  0
    3.3786   -1.2996    0.0000 C   0  0  0  0  0  0  0  0  0  0  0  0
    4.7990   -1.7818    0.0000 C   0  0  0  0  0  0  0  0  0  0  0  0
    5.0915   -3.2530    0.0000 O   0  0  0  0  0  0  0  0  0  0  0  0
    5.9268   -0.7928    0.0000 C   0  0  0  0  0  0  0  0  0  0  0  0
    5.6342    0.6784    0.0000 C   0  0  0  0  0  0  0  0  0  0  0  0
    6.7620    1.6673    0.0000 C   0  0  0  0  0  0  0  0  0  0  0  0
    6.4694    3.1385    0.0000 C   0  0  0  0  0  0  0  0  0  0  0  0
    7.5972    4.1275    0.0000 C   0  0  0  0  0  0  0  0  0  0  0  0
    9.0176    3.6453    0.0000 O   0  0  0  0  0  0  0  0  0  0  0  0
    5.0490    3.6207    0.0000 C   0  0  0  0  0  0  0  0  0  0  0  0
    3.9212    2.6318    0.0000 C   0  0  0  0  0  0  0  0  0  0  0  0
    4.2138    1.1606    0.0000 C   0  0  0  0  0  0  0  0  0  0  0  0
    2.7934    1.6428    0.0000 C   0  0  0  0  0  0  0  0  0  0  0  0
    3.0860    0.1716    0.0000 C   0  0  0  0  0  0  0  0  0  0  0  0
    1.6656    0.6538    0.0000 C   0  0  0  0  0  0  0  0  0  0  0  0
    0.5378   -0.3352    0.0000 C   0  0  0  0  0  0  0  0  0  0  0  0
    0.8304   -1.8064    0.0000 C   0  0  0  0  0  0  0  0  0  0  0  0
   -0.6326   -1.4753    0.0000 C   0  0  0  0  0  0  0  0  0  0  0  0
  2  1  1  6
  2  3  1  0
  3  4  1  0
  4  5  1  0
  5  6  2  0
  5  7  1  0
  7  8  1  0
  8  9  1  0
  9 10  1  0
 10 11  1  0
 11 12  2  0
 11 13  1  0
  2 14  1  0
 14 15  1  6
 15 16  1  0
 17 16  1  6
 17 18  1  0
 18 19  1  1
 19 20  1  6
 19 21  1  0
 22 21  1  1
 22 23  1  0
 23 24  1  0
 24 25  1  1
 25 26  1  0
 24 27  1  0
 27 28  1  0
 28 29  1  0
 29 30  1  6
 29 31  1  0
 31 32  1  6
 32 33  1  0
 33 34  1  0
 34 35  1  6
 34 14  1  0
 34 17  1  0
 31 18  1  0
 29 22  1  0
M  END
>  <MS_ID>  (2444) 
MS2529

>  <SMILES>  (2444) 
C[C@H](CCC(=O)NCCCC(=O)O)[C@H]1CC[C@H]2[C@@H]3[C@@H](O)C[C@@H]4C[C@H](CO)CC[C@]4(C)[C@H]3CC[C@]12C

>  <Structure_dimension>  (2444) 
2D

$$$$
MS2530
     RDKit          2D

 34 38  0  0  0  0  0  0  0  0999 V2000
   -3.1078   -3.3705    0.0000 C   0  0  0  0  0  0  0  0  0  0  0  0
   -2.1565   -2.2107    0.0000 C   0  0  0  0  0  0  0  0  0  0  0  0
   -2.6851   -0.8070    0.0000 C   0  0  0  0  0  0  0  0  0  0  0  0
   -4.1651   -0.5630    0.0000 C   0  0  0  0  0  0  0  0  0  0  0  0
   -4.6938    0.8408    0.0000 C   0  0  0  0  0  0  0  0  0  0  0  0
   -3.7424    2.0005    0.0000 O   0  0  0  0  0  0  0  0  0  0  0  0
   -6.1738    1.0848    0.0000 N   0  0  0  0  0  0  0  0  0  0  0  0
   -6.7025    2.4886    0.0000 C   0  0  0  0  0  0  0  0  0  0  0  0
   -8.1825    2.7326    0.0000 C   0  0  0  0  0  0  0  0  0  0  0  0
   -9.1338    1.5729    0.0000 C   0  0  0  0  0  0  0  0  0  0  0  0
   -8.6052    0.1692    0.0000 C   0  0  0  0  0  0  0  0  0  0  0  0
   -7.1252   -0.0749    0.0000 C   0  0  0  0  0  0  0  0  0  0  0  0
   -0.6765   -2.4548    0.0000 C   0  0  0  0  0  0  0  0  0  0  0  0
   -0.0040   -3.7956    0.0000 C   0  0  0  0  0  0  0  0  0  0  0  0
    1.4790   -3.5703    0.0000 C   0  0  0  0  0  0  0  0  0  0  0  0
    1.7231   -2.0903    0.0000 C   0  0  0  0  0  0  0  0  0  0  0  0
    2.9862   -1.2814    0.0000 C   0  0  0  0  0  0  0  0  0  0  0  0
    4.3184   -1.9708    0.0000 C   0  0  0  0  0  0  0  0  0  0  0  0
    4.3874   -3.4692    0.0000 O   0  0  0  0  0  0  0  0  0  0  0  0
    5.5816   -1.1619    0.0000 C   0  0  0  0  0  0  0  0  0  0  0  0
    5.5126    0.3366    0.0000 C   0  0  0  0  0  0  0  0  0  0  0  0
    6.7757    1.1455    0.0000 C   0  0  0  0  0  0  0  0  0  0  0  0
    6.7067    2.6439    0.0000 C   0  0  0  0  0  0  0  0  0  0  0  0
    7.9699    3.4529    0.0000 O   0  0  0  0  0  0  0  0  0  0  0  0
    5.3746    3.3334    0.0000 C   0  0  0  0  0  0  0  0  0  0  0  0
    4.1114    2.5244    0.0000 C   0  0  0  0  0  0  0  0  0  0  0  0
    4.1804    1.0260    0.0000 C   0  0  0  0  0  0  0  0  0  0  0  0
    2.8482    1.7155    0.0000 C   0  0  0  0  0  0  0  0  0  0  0  0
    2.9172    0.2170    0.0000 C   0  0  0  0  0  0  0  0  0  0  0  0
    1.5851    0.9065    0.0000 C   0  0  0  0  0  0  0  0  0  0  0  0
    0.3219    0.0975    0.0000 C   0  0  0  0  0  0  0  0  0  0  0  0
   -1.0102    0.7870    0.0000 O   0  0  0  0  0  0  0  0  0  0  0  0
    0.3909   -1.4009    0.0000 C   0  0  0  0  0  0  0  0  0  0  0  0
   -1.0060   -0.8545    0.0000 C   0  0  0  0  0  0  0  0  0  0  0  0
  2  1  1  6
  2  3  1  0
  3  4  1  0
  4  5  1  0
  5  6  2  0
  5  7  1  0
  7  8  1  0
  8  9  1  0
  9 10  1  0
 10 11  1  0
 11 12  1  0
  2 13  1  0
 13 14  1  6
 14 15  1  0
 16 15  1  6
 16 17  1  0
 17 18  1  1
 18 19  1  1
 18 20  1  0
 21 20  1  1
 21 22  1  0
 22 23  1  0
 23 24  1  1
 23 25  1  0
 25 26  1  0
 26 27  1  0
 27 28  1  6
 27 29  1  0
 29 30  1  6
 30 31  1  0
 31 32  1  1
 31 33  1  0
 33 34  1  6
 12  7  1  0
 33 13  1  0
 33 16  1  0
 29 17  1  0
 27 21  1  0
M  END
>  <MS_ID>  (2445) 
MS2530

>  <SMILES>  (2445) 
C[C@H](CCC(=O)N1CCCCC1)[C@H]1CC[C@H]2[C@@H]3[C@H](O)C[C@@H]4C[C@H](O)CC[C@]4(C)[C@H]3C[C@H](O)[C@]12C

>  <Structure_dimension>  (2445) 
2D

$$$$
MS2531
     RDKit          2D

 31 34  0  0  0  0  0  0  0  0999 V2000
   -3.6377   -3.4900    0.0000 C   0  0  0  0  0  0  0  0  0  0  0  0
   -2.6684   -2.3453    0.0000 C   0  0  0  0  0  0  0  0  0  0  0  0
   -3.1751   -0.9335    0.0000 C   0  0  0  0  0  0  0  0  0  0  0  0
   -4.6511   -0.6664    0.0000 C   0  0  0  0  0  0  0  0  0  0  0  0
   -5.1578    0.7454    0.0000 C   0  0  0  0  0  0  0  0  0  0  0  0
   -4.1885    1.8902    0.0000 O   0  0  0  0  0  0  0  0  0  0  0  0
   -6.6339    1.0125    0.0000 N   0  0  0  0  0  0  0  0  0  0  0  0
   -7.1406    2.4243    0.0000 N   0  0  0  0  0  0  0  0  0  0  0  0
   -8.6166    2.6914    0.0000 C   0  0  0  0  0  0  0  0  0  0  0  0
   -6.1713    3.5691    0.0000 C   0  0  0  0  0  0  0  0  0  0  0  0
   -1.1923   -2.6123    0.0000 C   0  0  0  0  0  0  0  0  0  0  0  0
   -0.5408   -3.9635    0.0000 C   0  0  0  0  0  0  0  0  0  0  0  0
    0.9455   -3.7613    0.0000 C   0  0  0  0  0  0  0  0  0  0  0  0
    1.2126   -2.2853    0.0000 C   0  0  0  0  0  0  0  0  0  0  0  0
    2.4882   -1.4961    0.0000 C   0  0  0  0  0  0  0  0  0  0  0  0
    3.8095   -2.2063    0.0000 C   0  0  0  0  0  0  0  0  0  0  0  0
    5.0851   -1.4171    0.0000 C   0  0  0  0  0  0  0  0  0  0  0  0
    5.0394    0.0822    0.0000 C   0  0  0  0  0  0  0  0  0  0  0  0
    6.3151    0.8714    0.0000 C   0  0  0  0  0  0  0  0  0  0  0  0
    6.2694    2.3707    0.0000 C   0  0  0  0  0  0  0  0  0  0  0  0
    7.5450    3.1599    0.0000 O   0  0  0  0  0  0  0  0  0  0  0  0
    4.9481    3.0808    0.0000 C   0  0  0  0  0  0  0  0  0  0  0  0
    3.6725    2.2917    0.0000 C   0  0  0  0  0  0  0  0  0  0  0  0
    3.7182    0.7924    0.0000 C   0  0  0  0  0  0  0  0  0  0  0  0
    2.3969    1.5025    0.0000 C   0  0  0  0  0  0  0  0  0  0  0  0
    2.4426    0.0032    0.0000 C   0  0  0  0  0  0  0  0  0  0  0  0
    1.1213    0.7133    0.0000 C   0  0  0  0  0  0  0  0  0  0  0  0
   -0.1543   -0.0759    0.0000 C   0  0  0  0  0  0  0  0  0  0  0  0
   -1.4756    0.6342    0.0000 O   0  0  0  0  0  0  0  0  0  0  0  0
   -0.1087   -1.5752    0.0000 C   0  0  0  0  0  0  0  0  0  0  0  0
   -1.4969   -1.0071    0.0000 C   0  0  0  0  0  0  0  0  0  0  0  0
  2  1  1  6
  2  3  1  0
  3  4  1  0
  4  5  1  0
  5  6  2  0
  5  7  1  0
  7  8  1  0
  8  9  1  0
  8 10  1  0
  2 11  1  0
 11 12  1  6
 12 13  1  0
 14 13  1  6
 14 15  1  0
 15 16  1  1
 16 17  1  0
 18 17  1  1
 18 19  1  0
 19 20  1  0
 20 21  1  1
 20 22  1  0
 22 23  1  0
 23 24  1  0
 24 25  1  6
 24 26  1  0
 26 27  1  6
 27 28  1  0
 28 29  1  1
 28 30  1  0
 30 31  1  6
 30 11  1  0
 30 14  1  0
 26 15  1  0
 24 18  1  0
M  END
>  <MS_ID>  (2446) 
MS2531

>  <SMILES>  (2446) 
C[C@H](CCC(=O)NN(C)C)[C@H]1CC[C@H]2[C@@H]3CC[C@@H]4C[C@H](O)CC[C@]4(C)[C@H]3C[C@H](O)[C@]12C

>  <Structure_dimension>  (2446) 
2D

$$$$
MS2532
     RDKit          2D

 30 33  0  0  0  0  0  0  0  0999 V2000
   -4.8465   -2.3252    0.0000 C   0  0  0  0  0  0  0  0  0  0  0  0
   -3.6986   -1.3597    0.0000 C   0  0  0  0  0  0  0  0  0  0  0  0
   -3.9608    0.1172    0.0000 C   0  0  0  0  0  0  0  0  0  0  0  0
   -5.3710    0.6286    0.0000 C   0  0  0  0  0  0  0  0  0  0  0  0
   -5.6332    2.1055    0.0000 C   0  0  0  0  0  0  0  0  0  0  0  0
   -4.4852    3.0710    0.0000 O   0  0  0  0  0  0  0  0  0  0  0  0
   -7.0433    2.6169    0.0000 O   0  0  0  0  0  0  0  0  0  0  0  0
   -2.2885   -1.8710    0.0000 C   0  0  0  0  0  0  0  0  0  0  0  0
   -1.8733   -3.3125    0.0000 C   0  0  0  0  0  0  0  0  0  0  0  0
   -0.3742   -3.3630    0.0000 C   0  0  0  0  0  0  0  0  0  0  0  0
    0.1372   -1.9529    0.0000 C   0  0  0  0  0  0  0  0  0  0  0  0
    1.5273   -1.3894    0.0000 C   0  0  0  0  0  0  0  0  0  0  0  0
    2.7104   -2.3115    0.0000 C   0  0  0  0  0  0  0  0  0  0  0  0
    2.5034   -3.7971    0.0000 O   0  0  0  0  0  0  0  0  0  0  0  0
    4.1005   -1.7479    0.0000 C   0  0  0  0  0  0  0  0  0  0  0  0
    4.3075   -0.2623    0.0000 C   0  0  0  0  0  0  0  0  0  0  0  0
    5.6977    0.3013    0.0000 C   0  0  0  0  0  0  0  0  0  0  0  0
    5.9047    1.7869    0.0000 C   0  0  0  0  0  0  0  0  0  0  0  0
    7.2948    2.3505    0.0000 O   0  0  0  0  0  0  0  0  0  0  0  0
    4.7216    2.7090    0.0000 C   0  0  0  0  0  0  0  0  0  0  0  0
    3.3315    2.1455    0.0000 C   0  0  0  0  0  0  0  0  0  0  0  0
    3.1244    0.6598    0.0000 C   0  0  0  0  0  0  0  0  0  0  0  0
    1.9413    1.5819    0.0000 C   0  0  0  0  0  0  0  0  0  0  0  0
    1.7343    0.0963    0.0000 C   0  0  0  0  0  0  0  0  0  0  0  0
    0.5512    1.0184    0.0000 C   0  0  0  0  0  0  0  0  0  0  0  0
   -0.8389    0.4548    0.0000 C   0  0  0  0  0  0  0  0  0  0  0  0
   -1.0459   -1.0308    0.0000 C   0  0  0  0  0  0  0  0  0  0  0  0
   -2.3189   -0.2374    0.0000 C   0  0  0  0  0  0  0  0  0  0  0  0
   -2.2683    1.2617    0.0000 C   0  0  0  0  0  0  0  0  0  0  0  0
   -3.5413    2.0551    0.0000 O   0  0  0  0  0  0  0  0  0  0  0  0
  2  1  1  6
  2  3  1  0
  3  4  1  0
  4  5  1  0
  5  6  2  0
  5  7  1  0
  2  8  1  0
  8  9  1  6
  9 10  1  0
 11 10  1  6
 11 12  1  0
 12 13  1  1
 13 14  1  6
 13 15  1  0
 16 15  1  1
 16 17  1  0
 17 18  1  0
 18 19  1  1
 18 20  1  0
 20 21  1  0
 21 22  1  0
 22 23  1  6
 22 24  1  0
 24 25  1  6
 25 26  1  0
 26 27  1  0
 27 28  1  6
 28 29  1  0
 29 30  1  0
 27  8  1  0
 27 11  1  0
 24 12  1  0
 22 16  1  0
M  END
>  <MS_ID>  (2447) 
MS2532

>  <SMILES>  (2447) 
C[C@H](CCC(=O)O)[C@H]1CC[C@H]2[C@@H]3[C@@H](O)C[C@@H]4C[C@H](O)CC[C@]4(C)[C@H]3CC[C@]12CCO

>  <Structure_dimension>  (2447) 
2D

$$$$
MS2533
     RDKit          2D

 29 32  0  0  0  0  0  0  0  0999 V2000
   -4.9165   -2.3086    0.0000 C   0  0  0  0  0  0  0  0  0  0  0  0
   -3.7338   -1.3860    0.0000 C   0  0  0  0  0  0  0  0  0  0  0  0
   -3.9415    0.0996    0.0000 C   0  0  0  0  0  0  0  0  0  0  0  0
   -5.3319    0.6625    0.0000 C   0  0  0  0  0  0  0  0  0  0  0  0
   -5.5396    2.1481    0.0000 C   0  0  0  0  0  0  0  0  0  0  0  0
   -4.3569    3.0707    0.0000 O   0  0  0  0  0  0  0  0  0  0  0  0
   -6.9299    2.7110    0.0000 O   0  0  0  0  0  0  0  0  0  0  0  0
   -2.3435   -1.9489    0.0000 C   0  0  0  0  0  0  0  0  0  0  0  0
   -1.9816   -3.4046    0.0000 C   0  0  0  0  0  0  0  0  0  0  0  0
   -0.4854   -3.5103    0.0000 C   0  0  0  0  0  0  0  0  0  0  0  0
    0.0775   -2.1199    0.0000 C   0  0  0  0  0  0  0  0  0  0  0  0
    1.4875   -1.6079    0.0000 C   0  0  0  0  0  0  0  0  0  0  0  0
    2.6358   -2.5730    0.0000 C   0  0  0  0  0  0  0  0  0  0  0  0
    4.0457   -2.0609    0.0000 C   0  0  0  0  0  0  0  0  0  0  0  0
    4.3073   -0.5839    0.0000 C   0  0  0  0  0  0  0  0  0  0  0  0
    5.7172   -0.0719    0.0000 C   0  0  0  0  0  0  0  0  0  0  0  0
    5.9787    1.4051    0.0000 C   0  0  0  0  0  0  0  0  0  0  0  0
    7.3886    1.9171    0.0000 O   0  0  0  0  0  0  0  0  0  0  0  0
    4.8304    2.3701    0.0000 C   0  0  0  0  0  0  0  0  0  0  0  0
    3.4205    1.8581    0.0000 C   0  0  0  0  0  0  0  0  0  0  0  0
    3.1589    0.3811    0.0000 C   0  0  0  0  0  0  0  0  0  0  0  0
    2.0105    1.3461    0.0000 C   0  0  0  0  0  0  0  0  0  0  0  0
    1.7490   -0.1309    0.0000 C   0  0  0  0  0  0  0  0  0  0  0  0
    0.6006    0.8341    0.0000 C   0  0  0  0  0  0  0  0  0  0  0  0
   -0.8093    0.3221    0.0000 C   0  0  0  0  0  0  0  0  0  0  0  0
   -1.9576    1.2871    0.0000 O   0  0  0  0  0  0  0  0  0  0  0  0
   -1.6961    2.7641    0.0000 O   0  0  0  0  0  0  0  0  0  0  0  0
   -1.0708   -1.1549    0.0000 C   0  0  0  0  0  0  0  0  0  0  0  0
   -2.3138   -0.3152    0.0000 C   0  0  0  0  0  0  0  0  0  0  0  0
  2  1  1  6
  2  3  1  0
  3  4  1  0
  4  5  1  0
  5  6  2  0
  5  7  1  0
  2  8  1  0
  8  9  1  6
  9 10  1  0
 11 10  1  6
 11 12  1  0
 12 13  1  1
 13 14  1  0
 15 14  1  1
 15 16  1  0
 16 17  1  0
 17 18  2  0
 17 19  1  0
 19 20  1  0
 20 21  1  0
 21 22  1  6
 21 23  1  0
 23 24  1  6
 24 25  1  0
 25 26  1  1
 26 27  1  0
 25 28  1  0
 28 29  1  6
 28  8  1  0
 28 11  1  0
 23 12  1  0
 21 15  1  0
M  END
>  <MS_ID>  (2448) 
MS2533

>  <SMILES>  (2448) 
C[C@H](CCC(=O)O)[C@H]1CC[C@H]2[C@@H]3CC[C@@H]4CC(=O)CC[C@]4(C)[C@H]3C[C@H](OO)[C@]12C

>  <Structure_dimension>  (2448) 
2D

$$$$
MS2534
     RDKit          2D

 29 32  0  0  0  0  0  0  0  0999 V2000
   -5.0209   -2.1353    0.0000 C   0  0  0  0  0  0  0  0  0  0  0  0
   -3.8503   -1.1974    0.0000 C   0  0  0  0  0  0  0  0  0  0  0  0
   -4.0773    0.2853    0.0000 C   0  0  0  0  0  0  0  0  0  0  0  0
   -5.4749    0.8301    0.0000 C   0  0  0  0  0  0  0  0  0  0  0  0
   -5.7018    2.3129    0.0000 C   0  0  0  0  0  0  0  0  0  0  0  0
   -4.5312    3.2508    0.0000 O   0  0  0  0  0  0  0  0  0  0  0  0
   -7.0994    2.8577    0.0000 O   0  0  0  0  0  0  0  0  0  0  0  0
   -2.4528   -1.7422    0.0000 C   0  0  0  0  0  0  0  0  0  0  0  0
   -2.0721   -3.1931    0.0000 C   0  0  0  0  0  0  0  0  0  0  0  0
   -0.5746   -3.2794    0.0000 C   0  0  0  0  0  0  0  0  0  0  0  0
   -0.0298   -1.8819    0.0000 C   0  0  0  0  0  0  0  0  0  0  0  0
    1.3734   -1.3516    0.0000 C   0  0  0  0  0  0  0  0  0  0  0  0
    2.5342   -2.3016    0.0000 C   0  0  0  0  0  0  0  0  0  0  0  0
    2.2918   -3.7819    0.0000 O   0  0  0  0  0  0  0  0  0  0  0  0
    3.9373   -1.7713    0.0000 C   0  0  0  0  0  0  0  0  0  0  0  0
    4.1797   -0.2911    0.0000 C   0  0  0  0  0  0  0  0  0  0  0  0
    5.5828    0.2392    0.0000 C   0  0  0  0  0  0  0  0  0  0  0  0
    5.8252    1.7195    0.0000 C   0  0  0  0  0  0  0  0  0  0  0  0
    7.2283    2.2498    0.0000 O   0  0  0  0  0  0  0  0  0  0  0  0
    4.6644    2.6695    0.0000 C   0  0  0  0  0  0  0  0  0  0  0  0
    3.2612    2.1393    0.0000 C   0  0  0  0  0  0  0  0  0  0  0  0
    3.0189    0.6590    0.0000 C   0  0  0  0  0  0  0  0  0  0  0  0
    1.8581    1.6090    0.0000 C   0  0  0  0  0  0  0  0  0  0  0  0
    1.6157    0.1287    0.0000 C   0  0  0  0  0  0  0  0  0  0  0  0
    0.4549    1.0787    0.0000 C   0  0  0  0  0  0  0  0  0  0  0  0
   -0.9482    0.5485    0.0000 C   0  0  0  0  0  0  0  0  0  0  0  0
   -1.1905   -0.9318    0.0000 C   0  0  0  0  0  0  0  0  0  0  0  0
   -2.4443   -0.1083    0.0000 C   0  0  0  0  0  0  0  0  0  0  0  0
   -2.3580    1.3892    0.0000 S   0  0  0  0  0  0  0  0  0  0  0  0
  2  1  1  6
  2  3  1  0
  3  4  1  0
  4  5  1  0
  5  6  2  0
  5  7  1  0
  2  8  1  0
  8  9  1  6
  9 10  1  0
 11 10  1  6
 11 12  1  0
 12 13  1  1
 13 14  1  6
 13 15  1  0
 16 15  1  1
 16 17  1  0
 17 18  1  0
 18 19  1  1
 18 20  1  0
 20 21  1  0
 21 22  1  0
 22 23  1  6
 22 24  1  0
 24 25  1  6
 25 26  1  0
 26 27  1  0
 27 28  1  6
 28 29  1  0
 27  8  1  0
 27 11  1  0
 24 12  1  0
 22 16  1  0
M  END
>  <MS_ID>  (2449) 
MS2534

>  <SMILES>  (2449) 
C[C@H](CCC(=O)O)[C@H]1CC[C@H]2[C@@H]3[C@@H](O)C[C@@H]4C[C@H](O)CC[C@]4(C)[C@H]3CC[C@]12CS

>  <Structure_dimension>  (2449) 
2D

$$$$
MS2535
     RDKit          2D

 29 32  0  0  0  0  0  0  0  0999 V2000
   -5.0209   -2.1353    0.0000 C   0  0  0  0  0  0  0  0  0  0  0  0
   -3.8503   -1.1974    0.0000 C   0  0  0  0  0  0  0  0  0  0  0  0
   -4.0773    0.2853    0.0000 C   0  0  0  0  0  0  0  0  0  0  0  0
   -5.4749    0.8301    0.0000 C   0  0  0  0  0  0  0  0  0  0  0  0
   -5.7018    2.3129    0.0000 C   0  0  0  0  0  0  0  0  0  0  0  0
   -4.5312    3.2508    0.0000 O   0  0  0  0  0  0  0  0  0  0  0  0
   -7.0994    2.8577    0.0000 O   0  0  0  0  0  0  0  0  0  0  0  0
   -2.4528   -1.7422    0.0000 C   0  0  0  0  0  0  0  0  0  0  0  0
   -2.0721   -3.1931    0.0000 C   0  0  0  0  0  0  0  0  0  0  0  0
   -0.5746   -3.2794    0.0000 C   0  0  0  0  0  0  0  0  0  0  0  0
   -0.0298   -1.8819    0.0000 C   0  0  0  0  0  0  0  0  0  0  0  0
    1.3734   -1.3516    0.0000 C   0  0  0  0  0  0  0  0  0  0  0  0
    2.5342   -2.3016    0.0000 C   0  0  0  0  0  0  0  0  0  0  0  0
    2.2918   -3.7819    0.0000 O   0  0  0  0  0  0  0  0  0  0  0  0
    3.9373   -1.7713    0.0000 C   0  0  0  0  0  0  0  0  0  0  0  0
    4.1797   -0.2911    0.0000 C   0  0  0  0  0  0  0  0  0  0  0  0
    5.5828    0.2392    0.0000 C   0  0  0  0  0  0  0  0  0  0  0  0
    5.8252    1.7195    0.0000 C   0  0  0  0  0  0  0  0  0  0  0  0
    7.2283    2.2498    0.0000 O   0  0  0  0  0  0  0  0  0  0  0  0
    4.6644    2.6695    0.0000 C   0  0  0  0  0  0  0  0  0  0  0  0
    3.2612    2.1393    0.0000 C   0  0  0  0  0  0  0  0  0  0  0  0
    3.0189    0.6590    0.0000 C   0  0  0  0  0  0  0  0  0  0  0  0
    1.8581    1.6090    0.0000 C   0  0  0  0  0  0  0  0  0  0  0  0
    1.6157    0.1287    0.0000 C   0  0  0  0  0  0  0  0  0  0  0  0
    0.4549    1.0787    0.0000 C   0  0  0  0  0  0  0  0  0  0  0  0
   -0.9482    0.5485    0.0000 C   0  0  0  0  0  0  0  0  0  0  0  0
   -1.1905   -0.9318    0.0000 C   0  0  0  0  0  0  0  0  0  0  0  0
   -2.4443   -0.1083    0.0000 C   0  0  0  0  0  0  0  0  0  0  0  0
   -2.3580    1.3892    0.0000 F   0  0  0  0  0  0  0  0  0  0  0  0
  2  1  1  6
  2  3  1  0
  3  4  1  0
  4  5  1  0
  5  6  2  0
  5  7  1  0
  2  8  1  0
  8  9  1  6
  9 10  1  0
 11 10  1  6
 11 12  1  0
 12 13  1  1
 13 14  1  6
 13 15  1  0
 16 15  1  1
 16 17  1  0
 17 18  1  0
 18 19  1  1
 18 20  1  0
 20 21  1  0
 21 22  1  0
 22 23  1  6
 22 24  1  0
 24 25  1  6
 25 26  1  0
 26 27  1  0
 27 28  1  6
 28 29  1  0
 27  8  1  0
 27 11  1  0
 24 12  1  0
 22 16  1  0
M  END
>  <MS_ID>  (2450) 
MS2535

>  <SMILES>  (2450) 
C[C@H](CCC(=O)O)[C@H]1CC[C@H]2[C@@H]3[C@@H](O)C[C@@H]4C[C@H](O)CC[C@]4(C)[C@H]3CC[C@]12CF

>  <Structure_dimension>  (2450) 
2D

$$$$
MS2536
     RDKit          2D

 29 32  0  0  0  0  0  0  0  0999 V2000
   -5.0209   -2.1353    0.0000 C   0  0  0  0  0  0  0  0  0  0  0  0
   -3.8503   -1.1974    0.0000 C   0  0  0  0  0  0  0  0  0  0  0  0
   -4.0773    0.2853    0.0000 C   0  0  0  0  0  0  0  0  0  0  0  0
   -5.4749    0.8301    0.0000 C   0  0  0  0  0  0  0  0  0  0  0  0
   -5.7018    2.3129    0.0000 C   0  0  0  0  0  0  0  0  0  0  0  0
   -4.5312    3.2508    0.0000 O   0  0  0  0  0  0  0  0  0  0  0  0
   -7.0994    2.8577    0.0000 O   0  0  0  0  0  0  0  0  0  0  0  0
   -2.4528   -1.7422    0.0000 C   0  0  0  0  0  0  0  0  0  0  0  0
   -2.0721   -3.1931    0.0000 C   0  0  0  0  0  0  0  0  0  0  0  0
   -0.5746   -3.2794    0.0000 C   0  0  0  0  0  0  0  0  0  0  0  0
   -0.0298   -1.8819    0.0000 C   0  0  0  0  0  0  0  0  0  0  0  0
    1.3734   -1.3516    0.0000 C   0  0  0  0  0  0  0  0  0  0  0  0
    2.5342   -2.3016    0.0000 C   0  0  0  0  0  0  0  0  0  0  0  0
    2.2918   -3.7819    0.0000 O   0  0  0  0  0  0  0  0  0  0  0  0
    3.9373   -1.7713    0.0000 C   0  0  0  0  0  0  0  0  0  0  0  0
    4.1797   -0.2911    0.0000 C   0  0  0  0  0  0  0  0  0  0  0  0
    5.5828    0.2392    0.0000 C   0  0  0  0  0  0  0  0  0  0  0  0
    5.8252    1.7195    0.0000 C   0  0  0  0  0  0  0  0  0  0  0  0
    7.2283    2.2498    0.0000 O   0  0  0  0  0  0  0  0  0  0  0  0
    4.6644    2.6695    0.0000 C   0  0  0  0  0  0  0  0  0  0  0  0
    3.2612    2.1393    0.0000 C   0  0  0  0  0  0  0  0  0  0  0  0
    3.0189    0.6590    0.0000 C   0  0  0  0  0  0  0  0  0  0  0  0
    1.8581    1.6090    0.0000 C   0  0  0  0  0  0  0  0  0  0  0  0
    1.6157    0.1287    0.0000 C   0  0  0  0  0  0  0  0  0  0  0  0
    0.4549    1.0787    0.0000 C   0  0  0  0  0  0  0  0  0  0  0  0
   -0.9482    0.5485    0.0000 C   0  0  0  0  0  0  0  0  0  0  0  0
   -1.1905   -0.9318    0.0000 C   0  0  0  0  0  0  0  0  0  0  0  0
   -2.4443   -0.1083    0.0000 C   0  0  0  0  0  0  0  0  0  0  0  0
   -2.3580    1.3892    0.0000 N   0  0  0  0  0  0  0  0  0  0  0  0
  2  1  1  6
  2  3  1  0
  3  4  1  0
  4  5  1  0
  5  6  2  0
  5  7  1  0
  2  8  1  0
  8  9  1  6
  9 10  1  0
 11 10  1  6
 11 12  1  0
 12 13  1  1
 13 14  1  6
 13 15  1  0
 16 15  1  1
 16 17  1  0
 17 18  1  0
 18 19  1  1
 18 20  1  0
 20 21  1  0
 21 22  1  0
 22 23  1  6
 22 24  1  0
 24 25  1  6
 25 26  1  0
 26 27  1  0
 27 28  1  6
 28 29  1  0
 27  8  1  0
 27 11  1  0
 24 12  1  0
 22 16  1  0
M  END
>  <MS_ID>  (2451) 
MS2536

>  <SMILES>  (2451) 
C[C@H](CCC(=O)O)[C@H]1CC[C@H]2[C@@H]3[C@@H](O)C[C@@H]4C[C@H](O)CC[C@]4(C)[C@H]3CC[C@]12CN

>  <Structure_dimension>  (2451) 
2D

$$$$
MS2537
     RDKit          2D

 29 32  0  0  0  0  0  0  0  0999 V2000
   -5.0209   -2.1353    0.0000 C   0  0  0  0  0  0  0  0  0  0  0  0
   -3.8503   -1.1974    0.0000 C   0  0  0  0  0  0  0  0  0  0  0  0
   -4.0773    0.2853    0.0000 C   0  0  0  0  0  0  0  0  0  0  0  0
   -5.4749    0.8301    0.0000 C   0  0  0  0  0  0  0  0  0  0  0  0
   -5.7018    2.3129    0.0000 C   0  0  0  0  0  0  0  0  0  0  0  0
   -4.5312    3.2508    0.0000 O   0  0  0  0  0  0  0  0  0  0  0  0
   -7.0994    2.8577    0.0000 O   0  0  0  0  0  0  0  0  0  0  0  0
   -2.4528   -1.7422    0.0000 C   0  0  0  0  0  0  0  0  0  0  0  0
   -2.0721   -3.1931    0.0000 C   0  0  0  0  0  0  0  0  0  0  0  0
   -0.5746   -3.2794    0.0000 C   0  0  0  0  0  0  0  0  0  0  0  0
   -0.0298   -1.8819    0.0000 C   0  0  0  0  0  0  0  0  0  0  0  0
    1.3734   -1.3516    0.0000 C   0  0  0  0  0  0  0  0  0  0  0  0
    2.5342   -2.3016    0.0000 C   0  0  0  0  0  0  0  0  0  0  0  0
    2.2918   -3.7819    0.0000 O   0  0  0  0  0  0  0  0  0  0  0  0
    3.9373   -1.7713    0.0000 C   0  0  0  0  0  0  0  0  0  0  0  0
    4.1797   -0.2911    0.0000 C   0  0  0  0  0  0  0  0  0  0  0  0
    5.5828    0.2392    0.0000 C   0  0  0  0  0  0  0  0  0  0  0  0
    5.8252    1.7195    0.0000 C   0  0  0  0  0  0  0  0  0  0  0  0
    7.2283    2.2498    0.0000 O   0  0  0  0  0  0  0  0  0  0  0  0
    4.6644    2.6695    0.0000 C   0  0  0  0  0  0  0  0  0  0  0  0
    3.2612    2.1393    0.0000 C   0  0  0  0  0  0  0  0  0  0  0  0
    3.0189    0.6590    0.0000 C   0  0  0  0  0  0  0  0  0  0  0  0
    1.8581    1.6090    0.0000 C   0  0  0  0  0  0  0  0  0  0  0  0
    1.6157    0.1287    0.0000 C   0  0  0  0  0  0  0  0  0  0  0  0
    0.4549    1.0787    0.0000 C   0  0  0  0  0  0  0  0  0  0  0  0
   -0.9482    0.5485    0.0000 C   0  0  0  0  0  0  0  0  0  0  0  0
   -1.1905   -0.9318    0.0000 C   0  0  0  0  0  0  0  0  0  0  0  0
   -2.4443   -0.1083    0.0000 C   0  0  0  0  0  0  0  0  0  0  0  0
   -2.3580    1.3892    0.0000 Cl  0  0  0  0  0  0  0  0  0  0  0  0
  2  1  1  6
  2  3  1  0
  3  4  1  0
  4  5  1  0
  5  6  2  0
  5  7  1  0
  2  8  1  0
  8  9  1  6
  9 10  1  0
 11 10  1  6
 11 12  1  0
 12 13  1  1
 13 14  1  6
 13 15  1  0
 16 15  1  1
 16 17  1  0
 17 18  1  0
 18 19  1  1
 18 20  1  0
 20 21  1  0
 21 22  1  0
 22 23  1  6
 22 24  1  0
 24 25  1  6
 25 26  1  0
 26 27  1  0
 27 28  1  6
 28 29  1  0
 27  8  1  0
 27 11  1  0
 24 12  1  0
 22 16  1  0
M  END
>  <MS_ID>  (2452) 
MS2537

>  <SMILES>  (2452) 
C[C@H](CCC(=O)O)[C@H]1CC[C@H]2[C@@H]3[C@@H](O)C[C@@H]4C[C@H](O)CC[C@]4(C)[C@H]3CC[C@]12CCl

>  <Structure_dimension>  (2452) 
2D

$$$$
MS2538
     RDKit          2D

 31 34  0  0  0  0  0  0  0  0999 V2000
   -4.6404   -2.6133    0.0000 C   0  0  0  0  0  0  0  0  0  0  0  0
   -3.5290   -1.6060    0.0000 C   0  0  0  0  0  0  0  0  0  0  0  0
   -3.8457   -0.1398    0.0000 C   0  0  0  0  0  0  0  0  0  0  0  0
   -5.2738    0.3191    0.0000 C   0  0  0  0  0  0  0  0  0  0  0  0
   -5.5904    1.7853    0.0000 C   0  0  0  0  0  0  0  0  0  0  0  0
   -4.4790    2.7926    0.0000 O   0  0  0  0  0  0  0  0  0  0  0  0
   -7.0185    2.2441    0.0000 O   0  0  0  0  0  0  0  0  0  0  0  0
   -2.1009   -2.0648    0.0000 C   0  0  0  0  0  0  0  0  0  0  0  0
   -1.6327   -3.4899    0.0000 C   0  0  0  0  0  0  0  0  0  0  0  0
   -0.1327   -3.4850    0.0000 C   0  0  0  0  0  0  0  0  0  0  0  0
    0.3261   -2.0569    0.0000 C   0  0  0  0  0  0  0  0  0  0  0  0
    1.6944   -1.4423    0.0000 C   0  0  0  0  0  0  0  0  0  0  0  0
    2.9108   -2.3200    0.0000 C   0  0  0  0  0  0  0  0  0  0  0  0
    2.7589   -3.8123    0.0000 O   0  0  0  0  0  0  0  0  0  0  0  0
    4.2792   -1.7054    0.0000 C   0  0  0  0  0  0  0  0  0  0  0  0
    4.4311   -0.2132    0.0000 C   0  0  0  0  0  0  0  0  0  0  0  0
    5.7994    0.4014    0.0000 C   0  0  0  0  0  0  0  0  0  0  0  0
    5.9513    1.8937    0.0000 C   0  0  0  0  0  0  0  0  0  0  0  0
    7.3196    2.5083    0.0000 O   0  0  0  0  0  0  0  0  0  0  0  0
    4.7349    2.7714    0.0000 C   0  0  0  0  0  0  0  0  0  0  0  0
    3.3666    2.1568    0.0000 C   0  0  0  0  0  0  0  0  0  0  0  0
    3.2147    0.6646    0.0000 C   0  0  0  0  0  0  0  0  0  0  0  0
    1.9983    1.5423    0.0000 C   0  0  0  0  0  0  0  0  0  0  0  0
    1.8463    0.0500    0.0000 C   0  0  0  0  0  0  0  0  0  0  0  0
    0.6299    0.9277    0.0000 C   0  0  0  0  0  0  0  0  0  0  0  0
   -0.7384    0.3131    0.0000 C   0  0  0  0  0  0  0  0  0  0  0  0
   -0.8903   -1.1792    0.0000 C   0  0  0  0  0  0  0  0  0  0  0  0
   -2.1918   -0.4334    0.0000 C   0  0  0  0  0  0  0  0  0  0  0  0
   -2.1967    1.0666    0.0000 C   0  0  0  0  0  0  0  0  0  0  0  0
   -3.4982    1.8123    0.0000 C   0  0  0  0  0  0  0  0  0  0  0  0
   -3.5031    3.3123    0.0000 O   0  0  0  0  0  0  0  0  0  0  0  0
  2  1  1  6
  2  3  1  0
  3  4  1  0
  4  5  1  0
  5  6  2  0
  5  7  1  0
  2  8  1  0
  8  9  1  6
  9 10  1  0
 11 10  1  6
 11 12  1  0
 12 13  1  1
 13 14  1  6
 13 15  1  0
 16 15  1  1
 16 17  1  0
 17 18  1  0
 18 19  1  1
 18 20  1  0
 20 21  1  0
 21 22  1  0
 22 23  1  6
 22 24  1  0
 24 25  1  6
 25 26  1  0
 26 27  1  0
 27 28  1  6
 28 29  1  0
 29 30  1  0
 30 31  1  0
 27  8  1  0
 27 11  1  0
 24 12  1  0
 22 16  1  0
M  END
>  <MS_ID>  (2453) 
MS2538

>  <SMILES>  (2453) 
C[C@H](CCC(=O)O)[C@H]1CC[C@H]2[C@@H]3[C@@H](O)C[C@@H]4C[C@H](O)CC[C@]4(C)[C@H]3CC[C@]12CCCO

>  <Structure_dimension>  (2453) 
2D

$$$$
MS2539
     RDKit          2D

 31 34  0  0  0  0  0  0  0  0999 V2000
   -4.6404   -2.6133    0.0000 C   0  0  0  0  0  0  0  0  0  0  0  0
   -3.5290   -1.6060    0.0000 C   0  0  0  0  0  0  0  0  0  0  0  0
   -3.8457   -0.1398    0.0000 C   0  0  0  0  0  0  0  0  0  0  0  0
   -5.2738    0.3191    0.0000 C   0  0  0  0  0  0  0  0  0  0  0  0
   -5.5904    1.7853    0.0000 C   0  0  0  0  0  0  0  0  0  0  0  0
   -4.4790    2.7926    0.0000 O   0  0  0  0  0  0  0  0  0  0  0  0
   -7.0185    2.2441    0.0000 O   0  0  0  0  0  0  0  0  0  0  0  0
   -2.1009   -2.0648    0.0000 C   0  0  0  0  0  0  0  0  0  0  0  0
   -1.6327   -3.4899    0.0000 C   0  0  0  0  0  0  0  0  0  0  0  0
   -0.1327   -3.4850    0.0000 C   0  0  0  0  0  0  0  0  0  0  0  0
    0.3261   -2.0569    0.0000 C   0  0  0  0  0  0  0  0  0  0  0  0
    1.6944   -1.4423    0.0000 C   0  0  0  0  0  0  0  0  0  0  0  0
    2.9108   -2.3200    0.0000 C   0  0  0  0  0  0  0  0  0  0  0  0
    2.7589   -3.8123    0.0000 O   0  0  0  0  0  0  0  0  0  0  0  0
    4.2792   -1.7054    0.0000 C   0  0  0  0  0  0  0  0  0  0  0  0
    4.4311   -0.2132    0.0000 C   0  0  0  0  0  0  0  0  0  0  0  0
    5.7994    0.4014    0.0000 C   0  0  0  0  0  0  0  0  0  0  0  0
    5.9513    1.8937    0.0000 C   0  0  0  0  0  0  0  0  0  0  0  0
    7.3196    2.5083    0.0000 O   0  0  0  0  0  0  0  0  0  0  0  0
    4.7349    2.7714    0.0000 C   0  0  0  0  0  0  0  0  0  0  0  0
    3.3666    2.1568    0.0000 C   0  0  0  0  0  0  0  0  0  0  0  0
    3.2147    0.6646    0.0000 C   0  0  0  0  0  0  0  0  0  0  0  0
    1.9983    1.5423    0.0000 C   0  0  0  0  0  0  0  0  0  0  0  0
    1.8463    0.0500    0.0000 C   0  0  0  0  0  0  0  0  0  0  0  0
    0.6299    0.9277    0.0000 C   0  0  0  0  0  0  0  0  0  0  0  0
   -0.7384    0.3131    0.0000 C   0  0  0  0  0  0  0  0  0  0  0  0
   -0.8903   -1.1792    0.0000 C   0  0  0  0  0  0  0  0  0  0  0  0
   -2.1918   -0.4334    0.0000 C   0  0  0  0  0  0  0  0  0  0  0  0
   -2.1967    1.0666    0.0000 O   0  0  0  0  0  0  0  0  0  0  0  0
   -3.4982    1.8123    0.0000 C   0  0  0  0  0  0  0  0  0  0  0  0
   -3.5031    3.3123    0.0000 O   0  0  0  0  0  0  0  0  0  0  0  0
  2  1  1  6
  2  3  1  0
  3  4  1  0
  4  5  1  0
  5  6  2  0
  5  7  1  0
  2  8  1  0
  8  9  1  6
  9 10  1  0
 11 10  1  6
 11 12  1  0
 12 13  1  1
 13 14  1  6
 13 15  1  0
 16 15  1  1
 16 17  1  0
 17 18  1  0
 18 19  1  1
 18 20  1  0
 20 21  1  0
 21 22  1  0
 22 23  1  6
 22 24  1  0
 24 25  1  6
 25 26  1  0
 26 27  1  0
 27 28  1  6
 28 29  1  0
 29 30  1  0
 30 31  1  0
 27  8  1  0
 27 11  1  0
 24 12  1  0
 22 16  1  0
M  END
>  <MS_ID>  (2454) 
MS2539

>  <SMILES>  (2454) 
C[C@H](CCC(=O)O)[C@H]1CC[C@H]2[C@@H]3[C@@H](O)C[C@@H]4C[C@H](O)CC[C@]4(C)[C@H]3CC[C@]12COCO

>  <Structure_dimension>  (2454) 
2D

$$$$
MS2540
     RDKit          2D

 31 34  0  0  0  0  0  0  0  0999 V2000
   -4.6404   -2.6133    0.0000 C   0  0  0  0  0  0  0  0  0  0  0  0
   -3.5290   -1.6060    0.0000 C   0  0  0  0  0  0  0  0  0  0  0  0
   -3.8457   -0.1398    0.0000 C   0  0  0  0  0  0  0  0  0  0  0  0
   -5.2738    0.3191    0.0000 C   0  0  0  0  0  0  0  0  0  0  0  0
   -5.5904    1.7853    0.0000 C   0  0  0  0  0  0  0  0  0  0  0  0
   -4.4790    2.7926    0.0000 O   0  0  0  0  0  0  0  0  0  0  0  0
   -7.0185    2.2441    0.0000 O   0  0  0  0  0  0  0  0  0  0  0  0
   -2.1009   -2.0648    0.0000 C   0  0  0  0  0  0  0  0  0  0  0  0
   -1.6327   -3.4899    0.0000 C   0  0  0  0  0  0  0  0  0  0  0  0
   -0.1327   -3.4850    0.0000 C   0  0  0  0  0  0  0  0  0  0  0  0
    0.3261   -2.0569    0.0000 C   0  0  0  0  0  0  0  0  0  0  0  0
    1.6944   -1.4423    0.0000 C   0  0  0  0  0  0  0  0  0  0  0  0
    2.9108   -2.3200    0.0000 C   0  0  0  0  0  0  0  0  0  0  0  0
    2.7589   -3.8123    0.0000 O   0  0  0  0  0  0  0  0  0  0  0  0
    4.2792   -1.7054    0.0000 C   0  0  0  0  0  0  0  0  0  0  0  0
    4.4311   -0.2132    0.0000 C   0  0  0  0  0  0  0  0  0  0  0  0
    5.7994    0.4014    0.0000 C   0  0  0  0  0  0  0  0  0  0  0  0
    5.9513    1.8937    0.0000 C   0  0  0  0  0  0  0  0  0  0  0  0
    7.3196    2.5083    0.0000 O   0  0  0  0  0  0  0  0  0  0  0  0
    4.7349    2.7714    0.0000 C   0  0  0  0  0  0  0  0  0  0  0  0
    3.3666    2.1568    0.0000 C   0  0  0  0  0  0  0  0  0  0  0  0
    3.2147    0.6646    0.0000 C   0  0  0  0  0  0  0  0  0  0  0  0
    1.9983    1.5423    0.0000 C   0  0  0  0  0  0  0  0  0  0  0  0
    1.8463    0.0500    0.0000 C   0  0  0  0  0  0  0  0  0  0  0  0
    0.6299    0.9277    0.0000 C   0  0  0  0  0  0  0  0  0  0  0  0
   -0.7384    0.3131    0.0000 C   0  0  0  0  0  0  0  0  0  0  0  0
   -0.8903   -1.1792    0.0000 C   0  0  0  0  0  0  0  0  0  0  0  0
   -2.1918   -0.4334    0.0000 C   0  0  0  0  0  0  0  0  0  0  0  0
   -2.1967    1.0666    0.0000 O   0  0  0  0  0  0  0  0  0  0  0  0
   -3.4982    1.8123    0.0000 C   0  0  0  0  0  0  0  0  0  0  0  0
   -3.5031    3.3123    0.0000 N   0  0  0  0  0  0  0  0  0  0  0  0
  2  1  1  6
  2  3  1  0
  3  4  1  0
  4  5  1  0
  5  6  2  0
  5  7  1  0
  2  8  1  0
  8  9  1  6
  9 10  1  0
 11 10  1  6
 11 12  1  0
 12 13  1  1
 13 14  1  6
 13 15  1  0
 16 15  1  1
 16 17  1  0
 17 18  1  0
 18 19  1  1
 18 20  1  0
 20 21  1  0
 21 22  1  0
 22 23  1  6
 22 24  1  0
 24 25  1  6
 25 26  1  0
 26 27  1  0
 27 28  1  6
 28 29  1  0
 29 30  1  0
 30 31  1  0
 27  8  1  0
 27 11  1  0
 24 12  1  0
 22 16  1  0
M  END
>  <MS_ID>  (2455) 
MS2540

>  <SMILES>  (2455) 
C[C@H](CCC(=O)O)[C@H]1CC[C@H]2[C@@H]3[C@@H](O)C[C@@H]4C[C@H](O)CC[C@]4(C)[C@H]3CC[C@]12COCN

>  <Structure_dimension>  (2455) 
2D

$$$$
MS2541
     RDKit          2D

 29 32  0  0  0  0  0  0  0  0999 V2000
   -5.0209   -2.1353    0.0000 C   0  0  0  0  0  0  0  0  0  0  0  0
   -3.8503   -1.1974    0.0000 C   0  0  0  0  0  0  0  0  0  0  0  0
   -4.0773    0.2853    0.0000 C   0  0  0  0  0  0  0  0  0  0  0  0
   -5.4749    0.8301    0.0000 C   0  0  0  0  0  0  0  0  0  0  0  0
   -5.7018    2.3129    0.0000 C   0  0  0  0  0  0  0  0  0  0  0  0
   -4.5312    3.2508    0.0000 O   0  0  0  0  0  0  0  0  0  0  0  0
   -7.0994    2.8577    0.0000 O   0  0  0  0  0  0  0  0  0  0  0  0
   -2.4528   -1.7422    0.0000 C   0  0  0  0  0  0  0  0  0  0  0  0
   -2.0721   -3.1931    0.0000 C   0  0  0  0  0  0  0  0  0  0  0  0
   -0.5746   -3.2794    0.0000 C   0  0  0  0  0  0  0  0  0  0  0  0
   -0.0298   -1.8819    0.0000 C   0  0  0  0  0  0  0  0  0  0  0  0
    1.3734   -1.3516    0.0000 C   0  0  0  0  0  0  0  0  0  0  0  0
    2.5342   -2.3016    0.0000 C   0  0  0  0  0  0  0  0  0  0  0  0
    2.2918   -3.7819    0.0000 O   0  0  0  0  0  0  0  0  0  0  0  0
    3.9373   -1.7713    0.0000 C   0  0  0  0  0  0  0  0  0  0  0  0
    4.1797   -0.2911    0.0000 C   0  0  0  0  0  0  0  0  0  0  0  0
    5.5828    0.2392    0.0000 C   0  0  0  0  0  0  0  0  0  0  0  0
    5.8252    1.7195    0.0000 C   0  0  0  0  0  0  0  0  0  0  0  0
    7.2283    2.2498    0.0000 O   0  0  0  0  0  0  0  0  0  0  0  0
    4.6644    2.6695    0.0000 C   0  0  0  0  0  0  0  0  0  0  0  0
    3.2612    2.1393    0.0000 C   0  0  0  0  0  0  0  0  0  0  0  0
    3.0189    0.6590    0.0000 C   0  0  0  0  0  0  0  0  0  0  0  0
    1.8581    1.6090    0.0000 C   0  0  0  0  0  0  0  0  0  0  0  0
    1.6157    0.1287    0.0000 C   0  0  0  0  0  0  0  0  0  0  0  0
    0.4549    1.0787    0.0000 C   0  0  0  0  0  0  0  0  0  0  0  0
   -0.9482    0.5485    0.0000 C   0  0  0  0  0  0  0  0  0  0  0  0
   -1.1905   -0.9318    0.0000 C   0  0  0  0  0  0  0  0  0  0  0  0
   -2.4443   -0.1083    0.0000 C   0  0  0  0  0  0  0  0  0  0  0  0
   -2.3580    1.3892    0.0000 Br  0  0  0  0  0  0  0  0  0  0  0  0
  2  1  1  6
  2  3  1  0
  3  4  1  0
  4  5  1  0
  5  6  2  0
  5  7  1  0
  2  8  1  0
  8  9  1  6
  9 10  1  0
 11 10  1  6
 11 12  1  0
 12 13  1  1
 13 14  1  6
 13 15  1  0
 16 15  1  1
 16 17  1  0
 17 18  1  0
 18 19  1  1
 18 20  1  0
 20 21  1  0
 21 22  1  0
 22 23  1  6
 22 24  1  0
 24 25  1  6
 25 26  1  0
 26 27  1  0
 27 28  1  6
 28 29  1  0
 27  8  1  0
 27 11  1  0
 24 12  1  0
 22 16  1  0
M  END
>  <MS_ID>  (2456) 
MS2541

>  <SMILES>  (2456) 
C[C@H](CCC(=O)O)[C@H]1CC[C@H]2[C@@H]3[C@@H](O)C[C@@H]4C[C@H](O)CC[C@]4(C)[C@H]3CC[C@]12CBr

>  <Structure_dimension>  (2456) 
2D

$$$$
MS2542
     RDKit          2D

 30 33  0  0  0  0  0  0  0  0999 V2000
   -4.8465   -2.3252    0.0000 C   0  0  0  0  0  0  0  0  0  0  0  0
   -3.6986   -1.3597    0.0000 C   0  0  0  0  0  0  0  0  0  0  0  0
   -3.9608    0.1172    0.0000 C   0  0  0  0  0  0  0  0  0  0  0  0
   -5.3710    0.6286    0.0000 C   0  0  0  0  0  0  0  0  0  0  0  0
   -5.6332    2.1055    0.0000 C   0  0  0  0  0  0  0  0  0  0  0  0
   -4.4852    3.0710    0.0000 O   0  0  0  0  0  0  0  0  0  0  0  0
   -7.0433    2.6169    0.0000 O   0  0  0  0  0  0  0  0  0  0  0  0
   -2.2885   -1.8710    0.0000 C   0  0  0  0  0  0  0  0  0  0  0  0
   -1.8733   -3.3125    0.0000 C   0  0  0  0  0  0  0  0  0  0  0  0
   -0.3742   -3.3630    0.0000 C   0  0  0  0  0  0  0  0  0  0  0  0
    0.1372   -1.9529    0.0000 C   0  0  0  0  0  0  0  0  0  0  0  0
    1.5273   -1.3894    0.0000 C   0  0  0  0  0  0  0  0  0  0  0  0
    2.7104   -2.3115    0.0000 C   0  0  0  0  0  0  0  0  0  0  0  0
    2.5034   -3.7971    0.0000 O   0  0  0  0  0  0  0  0  0  0  0  0
    4.1005   -1.7479    0.0000 C   0  0  0  0  0  0  0  0  0  0  0  0
    4.3075   -0.2623    0.0000 C   0  0  0  0  0  0  0  0  0  0  0  0
    5.6977    0.3013    0.0000 C   0  0  0  0  0  0  0  0  0  0  0  0
    5.9047    1.7869    0.0000 C   0  0  0  0  0  0  0  0  0  0  0  0
    7.2948    2.3505    0.0000 O   0  0  0  0  0  0  0  0  0  0  0  0
    4.7216    2.7090    0.0000 C   0  0  0  0  0  0  0  0  0  0  0  0
    3.3315    2.1455    0.0000 C   0  0  0  0  0  0  0  0  0  0  0  0
    3.1244    0.6598    0.0000 C   0  0  0  0  0  0  0  0  0  0  0  0
    1.9413    1.5819    0.0000 C   0  0  0  0  0  0  0  0  0  0  0  0
    1.7343    0.0963    0.0000 C   0  0  0  0  0  0  0  0  0  0  0  0
    0.5512    1.0184    0.0000 C   0  0  0  0  0  0  0  0  0  0  0  0
   -0.8389    0.4548    0.0000 C   0  0  0  0  0  0  0  0  0  0  0  0
   -1.0459   -1.0308    0.0000 C   0  0  0  0  0  0  0  0  0  0  0  0
   -2.3189   -0.2374    0.0000 C   0  0  0  0  0  0  0  0  0  0  0  0
   -2.2683    1.2617    0.0000 C   0  0  0  0  0  0  0  0  0  0  0  0
   -3.5413    2.0551    0.0000 S   0  0  0  0  0  0  0  0  0  0  0  0
  2  1  1  6
  2  3  1  0
  3  4  1  0
  4  5  1  0
  5  6  2  0
  5  7  1  0
  2  8  1  0
  8  9  1  6
  9 10  1  0
 11 10  1  6
 11 12  1  0
 12 13  1  1
 13 14  1  6
 13 15  1  0
 16 15  1  1
 16 17  1  0
 17 18  1  0
 18 19  1  1
 18 20  1  0
 20 21  1  0
 21 22  1  0
 22 23  1  6
 22 24  1  0
 24 25  1  6
 25 26  1  0
 26 27  1  0
 27 28  1  6
 28 29  1  0
 29 30  1  0
 27  8  1  0
 27 11  1  0
 24 12  1  0
 22 16  1  0
M  END
>  <MS_ID>  (2457) 
MS2542

>  <SMILES>  (2457) 
C[C@H](CCC(=O)O)[C@H]1CC[C@H]2[C@@H]3[C@@H](O)C[C@@H]4C[C@H](O)CC[C@]4(C)[C@H]3CC[C@]12CCS

>  <Structure_dimension>  (2457) 
2D

$$$$
MS2543
     RDKit          2D

 36 39  0  0  0  0  0  0  0  0999 V2000
  -11.3834    4.1284    0.0000 C   0  0  0  0  0  0  0  0  0  0  0  0
   -9.9080    3.8579    0.0000 C   0  0  0  0  0  0  0  0  0  0  0  0
   -9.4045    2.4450    0.0000 C   0  0  0  0  0  0  0  0  0  0  0  0
   -7.9291    2.1745    0.0000 C   0  0  0  0  0  0  0  0  0  0  0  0
   -7.4256    0.7615    0.0000 N   0  0  0  0  0  0  0  0  0  0  0  0
   -5.9502    0.4910    0.0000 C   0  0  0  0  0  0  0  0  0  0  0  0
   -4.9783    1.6335    0.0000 O   0  0  0  0  0  0  0  0  0  0  0  0
   -5.4467   -0.9220    0.0000 C   0  0  0  0  0  0  0  0  0  0  0  0
   -3.9713   -1.1925    0.0000 C   0  0  0  0  0  0  0  0  0  0  0  0
   -3.4679   -2.6054    0.0000 C   0  0  0  0  0  0  0  0  0  0  0  0
   -4.4398   -3.7479    0.0000 C   0  0  0  0  0  0  0  0  0  0  0  0
   -1.9924   -2.8759    0.0000 C   0  0  0  0  0  0  0  0  0  0  0  0
   -1.3440   -4.2285    0.0000 C   0  0  0  0  0  0  0  0  0  0  0  0
    0.1427   -4.0298    0.0000 C   0  0  0  0  0  0  0  0  0  0  0  0
    0.4132   -2.5544    0.0000 C   0  0  0  0  0  0  0  0  0  0  0  0
    1.6906   -1.7682    0.0000 C   0  0  0  0  0  0  0  0  0  0  0  0
    3.0103   -2.4814    0.0000 C   0  0  0  0  0  0  0  0  0  0  0  0
    3.0525   -3.9808    0.0000 O   0  0  0  0  0  0  0  0  0  0  0  0
    4.2877   -1.6951    0.0000 C   0  0  0  0  0  0  0  0  0  0  0  0
    4.2455   -0.1957    0.0000 C   0  0  0  0  0  0  0  0  0  0  0  0
    5.5229    0.5905    0.0000 C   0  0  0  0  0  0  0  0  0  0  0  0
    5.4808    2.0899    0.0000 C   0  0  0  0  0  0  0  0  0  0  0  0
    6.7582    2.8762    0.0000 O   0  0  0  0  0  0  0  0  0  0  0  0
    8.0778    2.1630    0.0000 S   0  0  0  0  0  0  0  0  0  0  0  0
    7.3646    0.8434    0.0000 O   0  0  0  0  0  0  0  0  0  0  0  0
    8.7910    3.4826    0.0000 O   0  0  0  0  0  0  0  0  0  0  0  0
    9.3974    1.4498    0.0000 O   0  0  0  0  0  0  0  0  0  0  0  0
    4.1611    2.8031    0.0000 C   0  0  0  0  0  0  0  0  0  0  0  0
    2.8837    2.0169    0.0000 C   0  0  0  0  0  0  0  0  0  0  0  0
    2.9259    0.5174    0.0000 C   0  0  0  0  0  0  0  0  0  0  0  0
    1.6063    1.2306    0.0000 C   0  0  0  0  0  0  0  0  0  0  0  0
    1.6485   -0.2688    0.0000 C   0  0  0  0  0  0  0  0  0  0  0  0
    0.3288    0.4444    0.0000 C   0  0  0  0  0  0  0  0  0  0  0  0
   -0.9486   -0.3419    0.0000 C   0  0  0  0  0  0  0  0  0  0  0  0
   -0.9064   -1.8413    0.0000 C   0  0  0  0  0  0  0  0  0  0  0  0
   -2.2933   -1.2699    0.0000 C   0  0  0  0  0  0  0  0  0  0  0  0
  1  2  1  0
  2  3  1  0
  3  4  1  0
  4  5  1  0
  5  6  1  0
  6  7  2  0
  6  8  1  0
  8  9  1  0
  9 10  1  0
 10 11  1  6
 10 12  1  0
 12 13  1  6
 13 14  1  0
 15 14  1  6
 15 16  1  0
 16 17  1  1
 17 18  1  1
 17 19  1  0
 20 19  1  1
 20 21  1  0
 21 22  1  0
 22 23  1  1
 23 24  1  0
 24 25  2  0
 24 26  2  0
 24 27  1  0
 22 28  1  0
 28 29  1  0
 29 30  1  0
 30 31  1  6
 30 32  1  0
 32 33  1  6
 33 34  1  0
 34 35  1  0
 35 36  1  6
 35 12  1  0
 35 15  1  0
 32 16  1  0
 30 20  1  0
M  END
>  <MS_ID>  (2458) 
MS2543

>  <SMILES>  (2458) 
CCCCNC(=O)CC[C@@H](C)[C@H]1CC[C@H]2[C@@H]3[C@H](O)C[C@@H]4C[C@H](OS(=O)(=O)O)CC[C@]4(C)[C@H]3CC[C@]12C

>  <Structure_dimension>  (2458) 
2D

$$$$
MS2544
     RDKit          2D

 34 37  0  0  0  0  0  0  0  0999 V2000
   -4.5932   -3.4780    0.0000 C   0  0  0  0  0  0  0  0  0  0  0  0
   -3.9416   -2.1269    0.0000 C   0  0  0  0  0  0  0  0  0  0  0  0
   -4.7859   -0.8870    0.0000 C   0  0  0  0  0  0  0  0  0  0  0  0
   -6.2817   -0.9983    0.0000 C   0  0  0  0  0  0  0  0  0  0  0  0
   -7.1260    0.2415    0.0000 C   0  0  0  0  0  0  0  0  0  0  0  0
   -6.4744    1.5926    0.0000 O   0  0  0  0  0  0  0  0  0  0  0  0
   -8.6219    0.1303    0.0000 O   0  0  0  0  0  0  0  0  0  0  0  0
   -2.4457   -2.0156    0.0000 C   0  0  0  0  0  0  0  0  0  0  0  0
   -1.4765   -3.1604    0.0000 C   0  0  0  0  0  0  0  0  0  0  0  0
   -0.0882   -2.5924    0.0000 C   0  0  0  0  0  0  0  0  0  0  0  0
   -0.1994   -1.0965    0.0000 C   0  0  0  0  0  0  0  0  0  0  0  0
    0.8378   -0.0129    0.0000 C   0  0  0  0  0  0  0  0  0  0  0  0
    2.2948   -0.3694    0.0000 C   0  0  0  0  0  0  0  0  0  0  0  0
    2.7146   -1.8094    0.0000 O   0  0  0  0  0  0  0  0  0  0  0  0
    4.1717   -2.1659    0.0000 C   0  0  0  0  0  0  0  0  0  0  0  0
    4.5915   -3.6059    0.0000 C   0  0  0  0  0  0  0  0  0  0  0  0
    6.0485   -3.9624    0.0000 N   0  0  0  0  0  0  0  0  0  0  0  0
    6.4683   -5.4024    0.0000 C   0  0  0  0  0  0  0  0  0  0  0  0
    7.0857   -2.8788    0.0000 C   0  0  0  0  0  0  0  0  0  0  0  0
    3.3320    0.7142    0.0000 C   0  0  0  0  0  0  0  0  0  0  0  0
    2.9122    2.1543    0.0000 C   0  0  0  0  0  0  0  0  0  0  0  0
    3.9494    3.2379    0.0000 C   0  0  0  0  0  0  0  0  0  0  0  0
    3.5296    4.6779    0.0000 C   0  0  0  0  0  0  0  0  0  0  0  0
    4.5668    5.7615    0.0000 O   0  0  0  0  0  0  0  0  0  0  0  0
    2.0726    5.0344    0.0000 C   0  0  0  0  0  0  0  0  0  0  0  0
    1.0354    3.9508    0.0000 C   0  0  0  0  0  0  0  0  0  0  0  0
    1.4552    2.5107    0.0000 C   0  0  0  0  0  0  0  0  0  0  0  0
   -0.0019    2.8672    0.0000 C   0  0  0  0  0  0  0  0  0  0  0  0
    0.4180    1.4271    0.0000 C   0  0  0  0  0  0  0  0  0  0  0  0
   -1.0391    1.7836    0.0000 C   0  0  0  0  0  0  0  0  0  0  0  0
   -2.0763    0.7000    0.0000 C   0  0  0  0  0  0  0  0  0  0  0  0
   -3.5333    1.0564    0.0000 O   0  0  0  0  0  0  0  0  0  0  0  0
   -1.6565   -0.7401    0.0000 C   0  0  0  0  0  0  0  0  0  0  0  0
   -3.1428   -0.5379    0.0000 C   0  0  0  0  0  0  0  0  0  0  0  0
  2  1  1  6
  2  3  1  0
  3  4  1  0
  4  5  1  0
  5  6  2  0
  5  7  1  0
  2  8  1  0
  8  9  1  6
  9 10  1  0
 11 10  1  6
 11 12  1  0
 12 13  1  1
 13 14  1  1
 14 15  1  0
 15 16  1  0
 16 17  1  0
 17 18  1  0
 17 19  1  0
 13 20  1  0
 21 20  1  1
 21 22  1  0
 22 23  1  0
 23 24  1  1
 23 25  1  0
 25 26  1  0
 26 27  1  0
 27 28  1  6
 27 29  1  0
 29 30  1  6
 30 31  1  0
 31 32  1  1
 31 33  1  0
 33 34  1  6
 33  8  1  0
 33 11  1  0
 29 12  1  0
 27 21  1  0
M  END
>  <MS_ID>  (2459) 
MS2544

>  <SMILES>  (2459) 
C[C@H](CCC(=O)O)[C@H]1CC[C@H]2[C@@H]3[C@H](OCCN(C)C)C[C@@H]4C[C@H](O)CC[C@]4(C)[C@H]3C[C@H](O)[C@]12C

>  <Structure_dimension>  (2459) 
2D

$$$$
MS2545
     RDKit          2D

 32 35  0  0  0  0  0  0  0  0999 V2000
   -3.9555   -3.1774    0.0000 C   0  0  0  0  0  0  0  0  0  0  0  0
   -2.9877   -2.0314    0.0000 C   0  0  0  0  0  0  0  0  0  0  0  0
   -3.4963   -0.6203    0.0000 C   0  0  0  0  0  0  0  0  0  0  0  0
   -4.9727   -0.3551    0.0000 C   0  0  0  0  0  0  0  0  0  0  0  0
   -5.4813    1.0560    0.0000 C   0  0  0  0  0  0  0  0  0  0  0  0
   -4.5134    2.2020    0.0000 O   0  0  0  0  0  0  0  0  0  0  0  0
   -6.9576    1.3212    0.0000 C   0  0  0  0  0  0  0  0  0  0  0  0
   -7.9254    0.1752    0.0000 O   0  0  0  0  0  0  0  0  0  0  0  0
   -7.4662    2.7323    0.0000 C   0  0  0  0  0  0  0  0  0  0  0  0
   -8.9426    2.9975    0.0000 O   0  0  0  0  0  0  0  0  0  0  0  0
   -1.5114   -2.2966    0.0000 C   0  0  0  0  0  0  0  0  0  0  0  0
   -0.8581   -3.6468    0.0000 C   0  0  0  0  0  0  0  0  0  0  0  0
    0.6280   -3.4428    0.0000 C   0  0  0  0  0  0  0  0  0  0  0  0
    0.8931   -1.9664    0.0000 C   0  0  0  0  0  0  0  0  0  0  0  0
    2.1677   -1.1755    0.0000 C   0  0  0  0  0  0  0  0  0  0  0  0
    3.4899   -1.8839    0.0000 C   0  0  0  0  0  0  0  0  0  0  0  0
    3.5375   -3.3832    0.0000 O   0  0  0  0  0  0  0  0  0  0  0  0
    4.7645   -1.0931    0.0000 C   0  0  0  0  0  0  0  0  0  0  0  0
    6.0867   -1.8015    0.0000 O   0  0  0  0  0  0  0  0  0  0  0  0
    4.7169    0.4062    0.0000 C   0  0  0  0  0  0  0  0  0  0  0  0
    5.9915    1.1970    0.0000 C   0  0  0  0  0  0  0  0  0  0  0  0
    5.9438    2.6963    0.0000 C   0  0  0  0  0  0  0  0  0  0  0  0
    7.2184    3.4871    0.0000 O   0  0  0  0  0  0  0  0  0  0  0  0
    4.6217    3.4046    0.0000 C   0  0  0  0  0  0  0  0  0  0  0  0
    3.3471    2.6138    0.0000 C   0  0  0  0  0  0  0  0  0  0  0  0
    3.3947    1.1146    0.0000 C   0  0  0  0  0  0  0  0  0  0  0  0
    2.0725    1.8229    0.0000 C   0  0  0  0  0  0  0  0  0  0  0  0
    2.1201    0.3237    0.0000 C   0  0  0  0  0  0  0  0  0  0  0  0
    0.7979    1.0321    0.0000 C   0  0  0  0  0  0  0  0  0  0  0  0
   -0.4767    0.2412    0.0000 C   0  0  0  0  0  0  0  0  0  0  0  0
   -0.4291   -1.2580    0.0000 C   0  0  0  0  0  0  0  0  0  0  0  0
   -1.8180   -0.6917    0.0000 C   0  0  0  0  0  0  0  0  0  0  0  0
  2  1  1  6
  2  3  1  0
  3  4  1  0
  4  5  1  0
  5  6  2  0
  5  7  1  0
  7  8  2  0
  7  9  1  0
  9 10  1  0
  2 11  1  0
 11 12  1  6
 12 13  1  0
 14 13  1  6
 14 15  1  0
 15 16  1  1
 16 17  1  1
 16 18  1  0
 18 19  1  1
 18 20  1  0
 20 21  1  1
 21 22  1  0
 22 23  1  1
 22 24  1  0
 24 25  1  0
 25 26  1  0
 26 27  1  6
 26 28  1  0
 28 29  1  6
 29 30  1  0
 30 31  1  0
 31 32  1  6
 31 11  1  0
 31 14  1  0
 28 15  1  0
 26 20  1  0
M  END
>  <MS_ID>  (2460) 
MS2545

>  <SMILES>  (2460) 
C[C@H](CCC(=O)C(=O)CO)[C@H]1CC[C@H]2[C@@H]3[C@H](O)[C@H](O)[C@@H]4C[C@H](O)CC[C@]4(C)[C@H]3CC[C@]12C

>  <Structure_dimension>  (2460) 
2D

$$$$
MS2546
     RDKit          2D

 39 44  0  0  0  0  0  0  0  0999 V2000
   -0.6453   -4.3263    0.0000 C   0  0  0  0  0  0  0  0  0  0  0  0
    0.0392   -2.9916    0.0000 C   0  0  0  0  0  0  0  0  0  0  0  0
   -0.7744   -1.7314    0.0000 C   0  0  0  0  0  0  0  0  0  0  0  0
   -2.2726   -1.8059    0.0000 C   0  0  0  0  0  0  0  0  0  0  0  0
   -3.0862   -0.5457    0.0000 C   0  0  0  0  0  0  0  0  0  0  0  0
   -2.4016    0.7890    0.0000 O   0  0  0  0  0  0  0  0  0  0  0  0
   -4.5843   -0.6202    0.0000 C   0  0  0  0  0  0  0  0  0  0  0  0
   -5.3979    0.6399    0.0000 C   0  0  0  0  0  0  0  0  0  0  0  0
   -6.8961    0.5654    0.0000 C   0  0  0  0  0  0  0  0  0  0  0  0
   -7.5806   -0.7693    0.0000 C   0  0  0  0  0  0  0  0  0  0  0  0
   -9.0788   -0.8438    0.0000 C   0  0  0  0  0  0  0  0  0  0  0  0
   -9.8924    0.4164    0.0000 C   0  0  0  0  0  0  0  0  0  0  0  0
   -9.2078    1.7511    0.0000 C   0  0  0  0  0  0  0  0  0  0  0  0
   -7.7097    1.8256    0.0000 C   0  0  0  0  0  0  0  0  0  0  0  0
  -10.2656    2.8146    0.0000 O   0  0  0  0  0  0  0  0  0  0  0  0
  -11.6040    2.1372    0.0000 C   0  0  0  0  0  0  0  0  0  0  0  0
  -11.3733    0.6550    0.0000 O   0  0  0  0  0  0  0  0  0  0  0  0
    1.5373   -2.9171    0.0000 C   0  0  0  0  0  0  0  0  0  0  0  0
    2.4782   -4.0853    0.0000 C   0  0  0  0  0  0  0  0  0  0  0  0
    3.8800   -3.5515    0.0000 C   0  0  0  0  0  0  0  0  0  0  0  0
    3.8055   -2.0533    0.0000 C   0  0  0  0  0  0  0  0  0  0  0  0
    4.8690   -0.9955    0.0000 C   0  0  0  0  0  0  0  0  0  0  0  0
    6.3168   -1.3876    0.0000 C   0  0  0  0  0  0  0  0  0  0  0  0
    6.7012   -2.8375    0.0000 O   0  0  0  0  0  0  0  0  0  0  0  0
    7.3803   -0.3297    0.0000 C   0  0  0  0  0  0  0  0  0  0  0  0
    6.9959    1.1202    0.0000 C   0  0  0  0  0  0  0  0  0  0  0  0
    8.0594    2.1780    0.0000 C   0  0  0  0  0  0  0  0  0  0  0  0
    7.6751    3.6279    0.0000 C   0  0  0  0  0  0  0  0  0  0  0  0
    8.7385    4.6858    0.0000 O   0  0  0  0  0  0  0  0  0  0  0  0
    6.2272    4.0200    0.0000 C   0  0  0  0  0  0  0  0  0  0  0  0
    5.1637    2.9622    0.0000 C   0  0  0  0  0  0  0  0  0  0  0  0
    5.5481    1.5123    0.0000 C   0  0  0  0  0  0  0  0  0  0  0  0
    4.1002    1.9044    0.0000 C   0  0  0  0  0  0  0  0  0  0  0  0
    4.4846    0.4544    0.0000 C   0  0  0  0  0  0  0  0  0  0  0  0
    3.0368    0.8465    0.0000 C   0  0  0  0  0  0  0  0  0  0  0  0
    1.9733   -0.2113    0.0000 C   0  0  0  0  0  0  0  0  0  0  0  0
    0.5254    0.1808    0.0000 O   0  0  0  0  0  0  0  0  0  0  0  0
    2.3577   -1.6612    0.0000 C   0  0  0  0  0  0  0  0  0  0  0  0
    0.8768   -1.4226    0.0000 C   0  0  0  0  0  0  0  0  0  0  0  0
  2  1  1  6
  2  3  1  0
  3  4  1  0
  4  5  1  0
  5  6  2  0
  5  7  1  0
  7  8  1  0
  8  9  1  0
  9 10  2  0
 10 11  1  0
 11 12  2  0
 12 13  1  0
 13 14  2  0
 13 15  1  0
 15 16  1  0
 16 17  1  0
  2 18  1  0
 18 19  1  6
 19 20  1  0
 21 20  1  6
 21 22  1  0
 22 23  1  1
 23 24  1  1
 23 25  1  0
 26 25  1  1
 26 27  1  0
 27 28  1  0
 28 29  1  1
 28 30  1  0
 30 31  1  0
 31 32  1  0
 32 33  1  6
 32 34  1  0
 34 35  1  6
 35 36  1  0
 36 37  1  1
 36 38  1  0
 38 39  1  6
 14  9  1  0
 38 18  1  0
 17 12  1  0
 38 21  1  0
 34 22  1  0
 32 26  1  0
M  END
>  <MS_ID>  (2461) 
MS2546

>  <SMILES>  (2461) 
C[C@H](CCC(=O)CCc1ccc2c(c1)OCO2)[C@H]1CC[C@H]2[C@@H]3[C@H](O)C[C@@H]4C[C@H](O)CC[C@]4(C)[C@H]3C[C@H](O)[C@]12C

>  <Structure_dimension>  (2461) 
2D

$$$$
MS2547
     RDKit          2D

 31 34  0  0  0  0  0  0  0  0999 V2000
   -4.2213   -3.1583    0.0000 C   0  0  0  0  0  0  0  0  0  0  0  0
   -3.2498   -2.0154    0.0000 C   0  0  0  0  0  0  0  0  0  0  0  0
   -3.7539   -0.6026    0.0000 C   0  0  0  0  0  0  0  0  0  0  0  0
   -5.2294   -0.3328    0.0000 C   0  0  0  0  0  0  0  0  0  0  0  0
   -5.7335    1.0800    0.0000 C   0  0  0  0  0  0  0  0  0  0  0  0
   -4.7620    2.2229    0.0000 O   0  0  0  0  0  0  0  0  0  0  0  0
   -7.2090    1.3498    0.0000 O   0  0  0  0  0  0  0  0  0  0  0  0
   -7.7131    2.7626    0.0000 C   0  0  0  0  0  0  0  0  0  0  0  0
   -9.1886    3.0325    0.0000 N   0  0  0  0  0  0  0  0  0  0  0  0
   -1.7743   -2.2853    0.0000 C   0  0  0  0  0  0  0  0  0  0  0  0
   -1.1253   -3.6376    0.0000 C   0  0  0  0  0  0  0  0  0  0  0  0
    0.3614   -3.4383    0.0000 C   0  0  0  0  0  0  0  0  0  0  0  0
    0.6312   -1.9628    0.0000 C   0  0  0  0  0  0  0  0  0  0  0  0
    1.9083   -1.1760    0.0000 C   0  0  0  0  0  0  0  0  0  0  0  0
    3.2282   -1.8886    0.0000 C   0  0  0  0  0  0  0  0  0  0  0  0
    3.2711   -3.3880    0.0000 O   0  0  0  0  0  0  0  0  0  0  0  0
    4.5053   -1.1018    0.0000 C   0  0  0  0  0  0  0  0  0  0  0  0
    5.8252   -1.8144    0.0000 O   0  0  0  0  0  0  0  0  0  0  0  0
    4.4625    0.3976    0.0000 C   0  0  0  0  0  0  0  0  0  0  0  0
    5.7396    1.1843    0.0000 C   0  0  0  0  0  0  0  0  0  0  0  0
    5.6968    2.6837    0.0000 C   0  0  0  0  0  0  0  0  0  0  0  0
    6.9739    3.4705    0.0000 O   0  0  0  0  0  0  0  0  0  0  0  0
    4.3769    3.3963    0.0000 C   0  0  0  0  0  0  0  0  0  0  0  0
    3.0998    2.6096    0.0000 C   0  0  0  0  0  0  0  0  0  0  0  0
    3.1426    1.1102    0.0000 C   0  0  0  0  0  0  0  0  0  0  0  0
    1.8227    1.8228    0.0000 C   0  0  0  0  0  0  0  0  0  0  0  0
    1.8655    0.3234    0.0000 C   0  0  0  0  0  0  0  0  0  0  0  0
    0.5456    1.0360    0.0000 C   0  0  0  0  0  0  0  0  0  0  0  0
   -0.7315    0.2492    0.0000 C   0  0  0  0  0  0  0  0  0  0  0  0
   -0.6887   -1.2502    0.0000 C   0  0  0  0  0  0  0  0  0  0  0  0
   -2.0759   -0.6794    0.0000 C   0  0  0  0  0  0  0  0  0  0  0  0
  2  1  1  6
  2  3  1  0
  3  4  1  0
  4  5  1  0
  5  6  2  0
  5  7  1  0
  7  8  1  0
  8  9  1  0
  2 10  1  0
 10 11  1  6
 11 12  1  0
 13 12  1  6
 13 14  1  0
 14 15  1  1
 15 16  1  1
 15 17  1  0
 17 18  1  1
 17 19  1  0
 19 20  1  1
 20 21  1  0
 21 22  1  1
 21 23  1  0
 23 24  1  0
 24 25  1  0
 25 26  1  6
 25 27  1  0
 27 28  1  6
 28 29  1  0
 29 30  1  0
 30 31  1  6
 30 10  1  0
 30 13  1  0
 27 14  1  0
 25 19  1  0
M  END
>  <MS_ID>  (2462) 
MS2547

>  <SMILES>  (2462) 
C[C@H](CCC(=O)OCN)[C@H]1CC[C@H]2[C@@H]3[C@H](O)[C@H](O)[C@@H]4C[C@H](O)CC[C@]4(C)[C@H]3CC[C@]12C

>  <Structure_dimension>  (2462) 
2D

$$$$
MS2548
     RDKit          2D

 31 34  0  0  0  0  0  0  0  0999 V2000
   -4.2213   -3.1583    0.0000 C   0  0  0  0  0  0  0  0  0  0  0  0
   -3.2498   -2.0154    0.0000 C   0  0  0  0  0  0  0  0  0  0  0  0
   -3.7539   -0.6026    0.0000 C   0  0  0  0  0  0  0  0  0  0  0  0
   -5.2294   -0.3328    0.0000 C   0  0  0  0  0  0  0  0  0  0  0  0
   -5.7335    1.0800    0.0000 C   0  0  0  0  0  0  0  0  0  0  0  0
   -4.7620    2.2229    0.0000 O   0  0  0  0  0  0  0  0  0  0  0  0
   -7.2090    1.3498    0.0000 C   0  0  0  0  0  0  0  0  0  0  0  0
   -7.7131    2.7626    0.0000 C   0  0  0  0  0  0  0  0  0  0  0  0
   -9.1886    3.0325    0.0000 O   0  0  0  0  0  0  0  0  0  0  0  0
   -1.7743   -2.2853    0.0000 C   0  0  0  0  0  0  0  0  0  0  0  0
   -1.1253   -3.6376    0.0000 C   0  0  0  0  0  0  0  0  0  0  0  0
    0.3614   -3.4383    0.0000 C   0  0  0  0  0  0  0  0  0  0  0  0
    0.6312   -1.9628    0.0000 C   0  0  0  0  0  0  0  0  0  0  0  0
    1.9083   -1.1760    0.0000 C   0  0  0  0  0  0  0  0  0  0  0  0
    3.2282   -1.8886    0.0000 C   0  0  0  0  0  0  0  0  0  0  0  0
    3.2711   -3.3880    0.0000 O   0  0  0  0  0  0  0  0  0  0  0  0
    4.5053   -1.1018    0.0000 C   0  0  0  0  0  0  0  0  0  0  0  0
    5.8252   -1.8144    0.0000 O   0  0  0  0  0  0  0  0  0  0  0  0
    4.4625    0.3976    0.0000 C   0  0  0  0  0  0  0  0  0  0  0  0
    5.7396    1.1843    0.0000 C   0  0  0  0  0  0  0  0  0  0  0  0
    5.6968    2.6837    0.0000 C   0  0  0  0  0  0  0  0  0  0  0  0
    6.9739    3.4705    0.0000 O   0  0  0  0  0  0  0  0  0  0  0  0
    4.3769    3.3963    0.0000 C   0  0  0  0  0  0  0  0  0  0  0  0
    3.0998    2.6096    0.0000 C   0  0  0  0  0  0  0  0  0  0  0  0
    3.1426    1.1102    0.0000 C   0  0  0  0  0  0  0  0  0  0  0  0
    1.8227    1.8228    0.0000 C   0  0  0  0  0  0  0  0  0  0  0  0
    1.8655    0.3234    0.0000 C   0  0  0  0  0  0  0  0  0  0  0  0
    0.5456    1.0360    0.0000 C   0  0  0  0  0  0  0  0  0  0  0  0
   -0.7315    0.2492    0.0000 C   0  0  0  0  0  0  0  0  0  0  0  0
   -0.6887   -1.2502    0.0000 C   0  0  0  0  0  0  0  0  0  0  0  0
   -2.0759   -0.6794    0.0000 C   0  0  0  0  0  0  0  0  0  0  0  0
  2  1  1  6
  2  3  1  0
  3  4  1  0
  4  5  1  0
  5  6  2  0
  5  7  1  0
  7  8  2  0
  8  9  1  0
  2 10  1  0
 10 11  1  6
 11 12  1  0
 13 12  1  6
 13 14  1  0
 14 15  1  1
 15 16  1  1
 15 17  1  0
 17 18  1  1
 17 19  1  0
 19 20  1  1
 20 21  1  0
 21 22  1  1
 21 23  1  0
 23 24  1  0
 24 25  1  0
 25 26  1  6
 25 27  1  0
 27 28  1  6
 28 29  1  0
 29 30  1  0
 30 31  1  6
 30 10  1  0
 30 13  1  0
 27 14  1  0
 25 19  1  0
M  END
>  <MS_ID>  (2463) 
MS2548

>  <SMILES>  (2463) 
C[C@H](CCC(=O)/C=C/O)[C@H]1CC[C@H]2[C@@H]3[C@H](O)[C@H](O)[C@@H]4C[C@H](O)CC[C@]4(C)[C@H]3CC[C@]12C

>  <Structure_dimension>  (2463) 
2D

$$$$
MS2549
     RDKit          2D

 35 38  0  0  0  0  0  0  0  0999 V2000
   -2.2521   -3.9637    0.0000 C   0  0  0  0  0  0  0  0  0  0  0  0
   -1.4477   -2.6977    0.0000 C   0  0  0  0  0  0  0  0  0  0  0  0
   -2.1418   -1.3680    0.0000 C   0  0  0  0  0  0  0  0  0  0  0  0
   -3.6405   -1.3043    0.0000 C   0  0  0  0  0  0  0  0  0  0  0  0
   -4.3347    0.0254    0.0000 C   0  0  0  0  0  0  0  0  0  0  0  0
   -3.5302    1.2914    0.0000 O   0  0  0  0  0  0  0  0  0  0  0  0
   -5.8333    0.0891    0.0000 C   0  0  0  0  0  0  0  0  0  0  0  0
   -6.5275    1.4188    0.0000 O   0  0  0  0  0  0  0  0  0  0  0  0
   -8.0261    1.4825    0.0000 C   0  0  0  0  0  0  0  0  0  0  0  0
   -8.7203    2.8122    0.0000 C   0  0  0  0  0  0  0  0  0  0  0  0
  -10.2189    2.8759    0.0000 O   0  0  0  0  0  0  0  0  0  0  0  0
   -8.8306    0.2164    0.0000 C   0  0  0  0  0  0  0  0  0  0  0  0
  -10.3292    0.2801    0.0000 O   0  0  0  0  0  0  0  0  0  0  0  0
    0.0510   -2.7614    0.0000 C   0  0  0  0  0  0  0  0  0  0  0  0
    0.8804   -4.0112    0.0000 C   0  0  0  0  0  0  0  0  0  0  0  0
    2.3253   -3.6087    0.0000 C   0  0  0  0  0  0  0  0  0  0  0  0
    2.3890   -2.1100    0.0000 C   0  0  0  0  0  0  0  0  0  0  0  0
    3.5453   -1.1546    0.0000 C   0  0  0  0  0  0  0  0  0  0  0  0
    4.9510   -1.6782    0.0000 C   0  0  0  0  0  0  0  0  0  0  0  0
    5.2003   -3.1574    0.0000 O   0  0  0  0  0  0  0  0  0  0  0  0
    6.1073   -0.7228    0.0000 C   0  0  0  0  0  0  0  0  0  0  0  0
    5.8580    0.7564    0.0000 C   0  0  0  0  0  0  0  0  0  0  0  0
    7.0143    1.7118    0.0000 C   0  0  0  0  0  0  0  0  0  0  0  0
    6.7650    3.1910    0.0000 C   0  0  0  0  0  0  0  0  0  0  0  0
    7.9213    4.1464    0.0000 O   0  0  0  0  0  0  0  0  0  0  0  0
    5.3594    3.7146    0.0000 C   0  0  0  0  0  0  0  0  0  0  0  0
    4.2031    2.7592    0.0000 C   0  0  0  0  0  0  0  0  0  0  0  0
    4.4524    1.2800    0.0000 C   0  0  0  0  0  0  0  0  0  0  0  0
    3.0467    1.8037    0.0000 C   0  0  0  0  0  0  0  0  0  0  0  0
    3.2960    0.3246    0.0000 C   0  0  0  0  0  0  0  0  0  0  0  0
    1.8904    0.8482    0.0000 C   0  0  0  0  0  0  0  0  0  0  0  0
    0.7341   -0.1072    0.0000 C   0  0  0  0  0  0  0  0  0  0  0  0
   -0.6715    0.4164    0.0000 O   0  0  0  0  0  0  0  0  0  0  0  0
    0.9834   -1.5864    0.0000 C   0  0  0  0  0  0  0  0  0  0  0  0
   -0.4693   -1.2125    0.0000 C   0  0  0  0  0  0  0  0  0  0  0  0
  2  1  1  6
  2  3  1  0
  3  4  1  0
  4  5  1  0
  5  6  2  0
  5  7  1  0
  7  8  1  0
  8  9  1  0
  9 10  1  0
 10 11  1  0
  9 12  1  0
 12 13  1  0
  2 14  1  0
 14 15  1  6
 15 16  1  0
 17 16  1  6
 17 18  1  0
 18 19  1  1
 19 20  1  1
 19 21  1  0
 22 21  1  1
 22 23  1  0
 23 24  1  0
 24 25  1  1
 24 26  1  0
 26 27  1  0
 27 28  1  0
 28 29  1  6
 28 30  1  0
 30 31  1  6
 31 32  1  0
 32 33  1  1
 32 34  1  0
 34 35  1  6
 34 14  1  0
 34 17  1  0
 30 18  1  0
 28 22  1  0
M  END
>  <MS_ID>  (2464) 
MS2549

>  <SMILES>  (2464) 
C[C@H](CCC(=O)COC(CO)CO)[C@H]1CC[C@H]2[C@@H]3[C@H](O)C[C@@H]4C[C@H](O)CC[C@]4(C)[C@H]3C[C@H](O)[C@]12C

>  <Structure_dimension>  (2464) 
2D

$$$$
MS2550
     RDKit          2D

 28 31  0  0  0  0  0  0  0  0999 V2000
   -5.1028   -1.8755    0.0000 C   0  0  0  0  0  0  0  0  0  0  0  0
   -3.8991   -0.9805    0.0000 C   0  0  0  0  0  0  0  0  0  0  0  0
   -4.0723    0.5094    0.0000 C   0  0  0  0  0  0  0  0  0  0  0  0
   -5.4493    1.1044    0.0000 C   0  0  0  0  0  0  0  0  0  0  0  0
   -5.6226    2.5943    0.0000 C   0  0  0  0  0  0  0  0  0  0  0  0
   -4.4189    3.4894    0.0000 O   0  0  0  0  0  0  0  0  0  0  0  0
   -6.9995    3.1893    0.0000 O   0  0  0  0  0  0  0  0  0  0  0  0
   -2.5221   -1.5754    0.0000 C   0  0  0  0  0  0  0  0  0  0  0  0
   -2.1941   -3.0391    0.0000 C   0  0  0  0  0  0  0  0  0  0  0  0
   -0.7006   -3.1794    0.0000 C   0  0  0  0  0  0  0  0  0  0  0  0
    0.0637   -4.4701    0.0000 O   0  0  0  0  0  0  0  0  0  0  0  0
   -0.1057   -1.8025    0.0000 C   0  0  0  0  0  0  0  0  0  0  0  0
    1.3157   -1.3232    0.0000 C   0  0  0  0  0  0  0  0  0  0  0  0
    2.4414   -2.3145    0.0000 C   0  0  0  0  0  0  0  0  0  0  0  0
    3.8628   -1.8353    0.0000 C   0  0  0  0  0  0  0  0  0  0  0  0
    4.1584   -0.3647    0.0000 C   0  0  0  0  0  0  0  0  0  0  0  0
    5.5798    0.1145    0.0000 C   0  0  0  0  0  0  0  0  0  0  0  0
    5.8755    1.5851    0.0000 C   0  0  0  0  0  0  0  0  0  0  0  0
    7.2968    2.0644    0.0000 O   0  0  0  0  0  0  0  0  0  0  0  0
    4.7497    2.5764    0.0000 C   0  0  0  0  0  0  0  0  0  0  0  0
    3.3283    2.0972    0.0000 C   0  0  0  0  0  0  0  0  0  0  0  0
    3.0327    0.6266    0.0000 C   0  0  0  0  0  0  0  0  0  0  0  0
    1.9070    1.6179    0.0000 C   0  0  0  0  0  0  0  0  0  0  0  0
    1.6113    0.1474    0.0000 C   0  0  0  0  0  0  0  0  0  0  0  0
    0.4856    1.1387    0.0000 C   0  0  0  0  0  0  0  0  0  0  0  0
   -0.9358    0.6594    0.0000 C   0  0  0  0  0  0  0  0  0  0  0  0
   -1.2314   -0.8111    0.0000 C   0  0  0  0  0  0  0  0  0  0  0  0
   -2.4546    0.0571    0.0000 C   0  0  0  0  0  0  0  0  0  0  0  0
  2  1  1  6
  2  3  1  0
  3  4  1  0
  4  5  1  0
  5  6  2  0
  5  7  1  0
  2  8  1  0
  8  9  1  6
  9 10  1  0
 10 11  2  0
 12 10  1  6
 12 13  1  0
 13 14  1  1
 14 15  1  0
 16 15  1  1
 16 17  1  0
 17 18  1  0
 18 19  1  1
 18 20  1  0
 20 21  1  0
 21 22  1  0
 22 23  1  6
 22 24  1  0
 24 25  1  6
 25 26  1  0
 26 27  1  0
 27 28  1  6
 27  8  1  0
 27 12  1  0
 24 13  1  0
 22 16  1  0
M  END
>  <MS_ID>  (2465) 
MS2550

>  <SMILES>  (2465) 
C[C@H](CCC(=O)O)[C@H]1CC(=O)[C@H]2[C@@H]3CC[C@@H]4C[C@H](O)CC[C@]4(C)[C@H]3CC[C@]12C

>  <Structure_dimension>  (2465) 
2D

$$$$
MS2551
     RDKit          2D

 32 35  0  0  0  0  0  0  0  0999 V2000
   -6.7961    3.3229    0.0000 C   0  0  0  0  0  0  0  0  0  0  0  0
   -6.3967    1.8770    0.0000 C   0  0  0  0  0  0  0  0  0  0  0  0
   -7.4492    0.8082    0.0000 C   0  0  0  0  0  0  0  0  0  0  0  0
   -7.0498   -0.6376    0.0000 O   0  0  0  0  0  0  0  0  0  0  0  0
   -8.9010    1.1853    0.0000 O   0  0  0  0  0  0  0  0  0  0  0  0
   -4.9449    1.5000    0.0000 C   0  0  0  0  0  0  0  0  0  0  0  0
   -3.8924    2.5688    0.0000 O   0  0  0  0  0  0  0  0  0  0  0  0
   -4.5455    0.0541    0.0000 C   0  0  0  0  0  0  0  0  0  0  0  0
   -3.0936   -0.3229    0.0000 C   0  0  0  0  0  0  0  0  0  0  0  0
   -2.6942   -1.7687    0.0000 C   0  0  0  0  0  0  0  0  0  0  0  0
   -3.7467   -2.8376    0.0000 C   0  0  0  0  0  0  0  0  0  0  0  0
   -1.2424   -2.1458    0.0000 C   0  0  0  0  0  0  0  0  0  0  0  0
   -0.6940   -3.5420    0.0000 C   0  0  0  0  0  0  0  0  0  0  0  0
    0.8032   -3.4519    0.0000 C   0  0  0  0  0  0  0  0  0  0  0  0
    1.1803   -2.0001    0.0000 C   0  0  0  0  0  0  0  0  0  0  0  0
    2.5115   -1.3088    0.0000 C   0  0  0  0  0  0  0  0  0  0  0  0
    3.7758   -2.1160    0.0000 C   0  0  0  0  0  0  0  0  0  0  0  0
    3.7088   -3.6145    0.0000 O   0  0  0  0  0  0  0  0  0  0  0  0
    5.1070   -1.4247    0.0000 C   0  0  0  0  0  0  0  0  0  0  0  0
    5.1739    0.0738    0.0000 C   0  0  0  0  0  0  0  0  0  0  0  0
    6.5051    0.7651    0.0000 C   0  0  0  0  0  0  0  0  0  0  0  0
    6.5721    2.2636    0.0000 C   0  0  0  0  0  0  0  0  0  0  0  0
    7.9033    2.9548    0.0000 O   0  0  0  0  0  0  0  0  0  0  0  0
    5.3078    3.0708    0.0000 C   0  0  0  0  0  0  0  0  0  0  0  0
    3.9766    2.3795    0.0000 C   0  0  0  0  0  0  0  0  0  0  0  0
    3.9097    0.8810    0.0000 C   0  0  0  0  0  0  0  0  0  0  0  0
    2.6454    1.6882    0.0000 C   0  0  0  0  0  0  0  0  0  0  0  0
    2.5784    0.1897    0.0000 C   0  0  0  0  0  0  0  0  0  0  0  0
    1.3142    0.9970    0.0000 C   0  0  0  0  0  0  0  0  0  0  0  0
   -0.0170    0.3057    0.0000 C   0  0  0  0  0  0  0  0  0  0  0  0
   -0.0840   -1.1928    0.0000 C   0  0  0  0  0  0  0  0  0  0  0  0
   -1.4257   -0.5222    0.0000 C   0  0  0  0  0  0  0  0  0  0  0  0
  2  1  1  6
  2  3  1  0
  3  4  2  0
  3  5  1  0
  2  6  1  0
  6  7  2  0
  6  8  1  0
  8  9  1  0
  9 10  1  0
 10 11  1  6
 10 12  1  0
 12 13  1  6
 13 14  1  0
 15 14  1  6
 15 16  1  0
 16 17  1  1
 17 18  1  1
 17 19  1  0
 20 19  1  1
 20 21  1  0
 21 22  1  0
 22 23  1  1
 22 24  1  0
 24 25  1  0
 25 26  1  0
 26 27  1  6
 26 28  1  0
 28 29  1  6
 29 30  1  0
 30 31  1  0
 31 32  1  6
 31 12  1  0
 31 15  1  0
 28 16  1  0
 26 20  1  0
M  END
>  <MS_ID>  (2466) 
MS2551

>  <SMILES>  (2466) 
C[C@@H](C(=O)O)C(=O)CC[C@@H](C)[C@H]1CC[C@H]2[C@@H]3[C@H](O)C[C@@H]4C[C@H](O)CC[C@]4(C)[C@H]3CC[C@]12C

>  <Structure_dimension>  (2466) 
2D

$$$$
MS2552
     RDKit          2D

 30 33  0  0  0  0  0  0  0  0999 V2000
   -4.8730   -2.6502    0.0000 C   0  0  0  0  0  0  0  0  0  0  0  0
   -3.8007   -1.6013    0.0000 C   0  0  0  0  0  0  0  0  0  0  0  0
   -4.1730   -0.1482    0.0000 C   0  0  0  0  0  0  0  0  0  0  0  0
   -5.6175    0.2559    0.0000 C   0  0  0  0  0  0  0  0  0  0  0  0
   -5.9898    1.7090    0.0000 C   0  0  0  0  0  0  0  0  0  0  0  0
   -7.4343    2.1132    0.0000 O   0  0  0  0  0  0  0  0  0  0  0  0
   -4.9175    2.7579    0.0000 O   0  0  0  0  0  0  0  0  0  0  0  0
   -5.2897    4.2110    0.0000 O   0  0  0  0  0  0  0  0  0  0  0  0
   -2.3562   -2.0055    0.0000 C   0  0  0  0  0  0  0  0  0  0  0  0
   -1.8341   -3.4117    0.0000 C   0  0  0  0  0  0  0  0  0  0  0  0
   -0.3354   -3.3497    0.0000 C   0  0  0  0  0  0  0  0  0  0  0  0
    0.0688   -1.9051    0.0000 C   0  0  0  0  0  0  0  0  0  0  0  0
    1.4127   -1.2389    0.0000 C   0  0  0  0  0  0  0  0  0  0  0  0
    2.6616   -2.0697    0.0000 C   0  0  0  0  0  0  0  0  0  0  0  0
    2.5666   -3.5667    0.0000 O   0  0  0  0  0  0  0  0  0  0  0  0
    4.0056   -1.4035    0.0000 C   0  0  0  0  0  0  0  0  0  0  0  0
    5.2545   -2.2342    0.0000 O   0  0  0  0  0  0  0  0  0  0  0  0
    4.1006    0.0935    0.0000 C   0  0  0  0  0  0  0  0  0  0  0  0
    5.4445    0.7598    0.0000 C   0  0  0  0  0  0  0  0  0  0  0  0
    5.5395    2.2567    0.0000 C   0  0  0  0  0  0  0  0  0  0  0  0
    6.8834    2.9230    0.0000 O   0  0  0  0  0  0  0  0  0  0  0  0
    4.2905    3.0875    0.0000 C   0  0  0  0  0  0  0  0  0  0  0  0
    2.9466    2.4213    0.0000 C   0  0  0  0  0  0  0  0  0  0  0  0
    2.8516    0.9243    0.0000 C   0  0  0  0  0  0  0  0  0  0  0  0
    1.6027    1.7551    0.0000 C   0  0  0  0  0  0  0  0  0  0  0  0
    1.5077    0.2581    0.0000 C   0  0  0  0  0  0  0  0  0  0  0  0
    0.2588    1.0888    0.0000 C   0  0  0  0  0  0  0  0  0  0  0  0
   -1.0852    0.4226    0.0000 C   0  0  0  0  0  0  0  0  0  0  0  0
   -1.1802   -1.0744    0.0000 C   0  0  0  0  0  0  0  0  0  0  0  0
   -2.5091   -0.3787    0.0000 C   0  0  0  0  0  0  0  0  0  0  0  0
  2  1  1  6
  2  3  1  0
  3  4  1  0
  4  5  1  0
  5  6  2  0
  5  7  1  0
  7  8  1  0
  2  9  1  0
  9 10  1  6
 10 11  1  0
 12 11  1  6
 12 13  1  0
 13 14  1  1
 14 15  1  1
 14 16  1  0
 16 17  1  1
 16 18  1  0
 18 19  1  1
 19 20  1  0
 20 21  1  1
 20 22  1  0
 22 23  1  0
 23 24  1  0
 24 25  1  6
 24 26  1  0
 26 27  1  6
 27 28  1  0
 28 29  1  0
 29 30  1  6
 29  9  1  0
 29 12  1  0
 26 13  1  0
 24 18  1  0
M  END
>  <MS_ID>  (2467) 
MS2552

>  <SMILES>  (2467) 
C[C@H](CCC(=O)OO)[C@H]1CC[C@H]2[C@@H]3[C@H](O)[C@H](O)[C@@H]4C[C@H](O)CC[C@]4(C)[C@H]3CC[C@]12C

>  <Structure_dimension>  (2467) 
2D

$$$$
MS2553
     RDKit          2D

 33 36  0  0  0  0  0  0  0  0999 V2000
   -3.7037   -3.9205    0.0000 C   0  0  0  0  0  0  0  0  0  0  0  0
   -2.8164   -2.7112    0.0000 C   0  0  0  0  0  0  0  0  0  0  0  0
   -3.4200   -1.3380    0.0000 C   0  0  0  0  0  0  0  0  0  0  0  0
   -4.9110   -1.1742    0.0000 C   0  0  0  0  0  0  0  0  0  0  0  0
   -5.5147    0.1990    0.0000 C   0  0  0  0  0  0  0  0  0  0  0  0
   -7.0057    0.3628    0.0000 O   0  0  0  0  0  0  0  0  0  0  0  0
   -4.6273    1.4083    0.0000 S   0  0  0  0  0  0  0  0  0  0  0  0
   -5.2310    2.7815    0.0000 C   0  0  0  0  0  0  0  0  0  0  0  0
   -4.3436    3.9909    0.0000 C   0  0  0  0  0  0  0  0  0  0  0  0
   -2.8526    3.8271    0.0000 O   0  0  0  0  0  0  0  0  0  0  0  0
   -4.9473    5.3641    0.0000 O   0  0  0  0  0  0  0  0  0  0  0  0
   -1.3253   -2.8750    0.0000 C   0  0  0  0  0  0  0  0  0  0  0  0
   -0.5815   -4.1775    0.0000 C   0  0  0  0  0  0  0  0  0  0  0  0
    0.8872   -3.8726    0.0000 C   0  0  0  0  0  0  0  0  0  0  0  0
    1.0510   -2.3815    0.0000 C   0  0  0  0  0  0  0  0  0  0  0  0
    2.2687   -1.5056    0.0000 C   0  0  0  0  0  0  0  0  0  0  0  0
    3.6361   -2.1221    0.0000 C   0  0  0  0  0  0  0  0  0  0  0  0
    3.7859   -3.6146    0.0000 O   0  0  0  0  0  0  0  0  0  0  0  0
    4.8538   -1.2462    0.0000 C   0  0  0  0  0  0  0  0  0  0  0  0
    4.7040    0.2463    0.0000 C   0  0  0  0  0  0  0  0  0  0  0  0
    5.9217    1.1223    0.0000 C   0  0  0  0  0  0  0  0  0  0  0  0
    5.7719    2.6148    0.0000 C   0  0  0  0  0  0  0  0  0  0  0  0
    6.9895    3.4908    0.0000 O   0  0  0  0  0  0  0  0  0  0  0  0
    4.4045    3.2313    0.0000 C   0  0  0  0  0  0  0  0  0  0  0  0
    3.1868    2.3554    0.0000 C   0  0  0  0  0  0  0  0  0  0  0  0
    3.3366    0.8629    0.0000 C   0  0  0  0  0  0  0  0  0  0  0  0
    1.9691    1.4794    0.0000 C   0  0  0  0  0  0  0  0  0  0  0  0
    2.1189   -0.0131    0.0000 C   0  0  0  0  0  0  0  0  0  0  0  0
    0.7515    0.6035    0.0000 C   0  0  0  0  0  0  0  0  0  0  0  0
   -0.4662   -0.2725    0.0000 C   0  0  0  0  0  0  0  0  0  0  0  0
   -1.8336    0.3440    0.0000 O   0  0  0  0  0  0  0  0  0  0  0  0
   -0.3164   -1.7650    0.0000 C   0  0  0  0  0  0  0  0  0  0  0  0
   -1.7408   -1.2948    0.0000 C   0  0  0  0  0  0  0  0  0  0  0  0
  2  1  1  6
  2  3  1  0
  3  4  1  0
  4  5  1  0
  5  6  2  0
  5  7  1  0
  7  8  1  0
  8  9  1  0
  9 10  2  0
  9 11  1  0
  2 12  1  0
 12 13  1  6
 13 14  1  0
 15 14  1  6
 15 16  1  0
 16 17  1  1
 17 18  2  0
 17 19  1  0
 20 19  1  1
 20 21  1  0
 21 22  1  0
 22 23  1  1
 22 24  1  0
 24 25  1  0
 25 26  1  0
 26 27  1  6
 26 28  1  0
 28 29  1  6
 29 30  1  0
 30 31  1  1
 30 32  1  0
 32 33  1  6
 32 12  1  0
 32 15  1  0
 28 16  1  0
 26 20  1  0
M  END
>  <MS_ID>  (2468) 
MS2553

>  <SMILES>  (2468) 
C[C@H](CCC(=O)SCC(=O)O)[C@H]1CC[C@H]2[C@@H]3C(=O)C[C@@H]4C[C@H](O)CC[C@]4(C)[C@H]3C[C@H](O)[C@]12C

>  <Structure_dimension>  (2468) 
2D

$$$$
MS2554
     RDKit          2D

 31 34  0  0  0  0  0  0  0  0999 V2000
   -7.9632    4.1100    0.0000 C   0  0  0  0  0  0  0  0  0  0  0  0
   -7.4699    2.6934    0.0000 C   0  0  0  0  0  0  0  0  0  0  0  0
   -6.9767    1.2768    0.0000 O   0  0  0  0  0  0  0  0  0  0  0  0
   -5.5033    0.9957    0.0000 C   0  0  0  0  0  0  0  0  0  0  0  0
   -4.5231    2.1311    0.0000 O   0  0  0  0  0  0  0  0  0  0  0  0
   -5.0100   -0.4209    0.0000 C   0  0  0  0  0  0  0  0  0  0  0  0
   -3.5366   -0.7020    0.0000 C   0  0  0  0  0  0  0  0  0  0  0  0
   -3.0434   -2.1186    0.0000 C   0  0  0  0  0  0  0  0  0  0  0  0
   -4.0236   -3.2541    0.0000 C   0  0  0  0  0  0  0  0  0  0  0  0
   -1.5700   -2.3998    0.0000 C   0  0  0  0  0  0  0  0  0  0  0  0
   -0.9314   -3.7570    0.0000 C   0  0  0  0  0  0  0  0  0  0  0  0
    0.5568   -3.5691    0.0000 C   0  0  0  0  0  0  0  0  0  0  0  0
    0.8380   -2.0957    0.0000 C   0  0  0  0  0  0  0  0  0  0  0  0
    2.1210   -1.3187    0.0000 C   0  0  0  0  0  0  0  0  0  0  0  0
    3.4355   -2.0414    0.0000 C   0  0  0  0  0  0  0  0  0  0  0  0
    3.4668   -3.5410    0.0000 O   0  0  0  0  0  0  0  0  0  0  0  0
    4.7185   -1.2644    0.0000 C   0  0  0  0  0  0  0  0  0  0  0  0
    4.6872    0.2353    0.0000 C   0  0  0  0  0  0  0  0  0  0  0  0
    5.9703    1.0123    0.0000 C   0  0  0  0  0  0  0  0  0  0  0  0
    5.9389    2.5120    0.0000 C   0  0  0  0  0  0  0  0  0  0  0  0
    7.2220    3.2889    0.0000 O   0  0  0  0  0  0  0  0  0  0  0  0
    4.6245    3.2346    0.0000 C   0  0  0  0  0  0  0  0  0  0  0  0
    3.3414    2.4577    0.0000 C   0  0  0  0  0  0  0  0  0  0  0  0
    3.3728    0.9580    0.0000 C   0  0  0  0  0  0  0  0  0  0  0  0
    2.0583    1.6807    0.0000 C   0  0  0  0  0  0  0  0  0  0  0  0
    2.0897    0.1810    0.0000 C   0  0  0  0  0  0  0  0  0  0  0  0
    0.7753    0.9037    0.0000 C   0  0  0  0  0  0  0  0  0  0  0  0
   -0.5078    0.1267    0.0000 C   0  0  0  0  0  0  0  0  0  0  0  0
   -1.8223    0.8494    0.0000 O   0  0  0  0  0  0  0  0  0  0  0  0
   -0.4765   -1.3730    0.0000 C   0  0  0  0  0  0  0  0  0  0  0  0
   -1.8592   -0.7916    0.0000 C   0  0  0  0  0  0  0  0  0  0  0  0
  1  2  3  0
  2  3  1  0
  3  4  1  0
  4  5  2  0
  4  6  1  0
  6  7  1  0
  7  8  1  0
  8  9  1  6
  8 10  1  0
 10 11  1  6
 11 12  1  0
 13 12  1  6
 13 14  1  0
 14 15  1  1
 15 16  1  1
 15 17  1  0
 18 17  1  1
 18 19  1  0
 19 20  1  0
 20 21  1  1
 20 22  1  0
 22 23  1  0
 23 24  1  0
 24 25  1  6
 24 26  1  0
 26 27  1  6
 27 28  1  0
 28 29  1  1
 28 30  1  0
 30 31  1  6
 30 10  1  0
 30 13  1  0
 26 14  1  0
 24 18  1  0
M  END
>  <MS_ID>  (2469) 
MS2554

>  <SMILES>  (2469) 
C#COC(=O)CC[C@@H](C)[C@H]1CC[C@H]2[C@@H]3[C@H](O)C[C@@H]4C[C@H](O)CC[C@]4(C)[C@H]3C[C@H](O)[C@]12C

>  <Structure_dimension>  (2469) 
2D

$$$$
MS2555
     RDKit          2D

 31 34  0  0  0  0  0  0  0  0999 V2000
   -3.5119   -3.5779    0.0000 C   0  0  0  0  0  0  0  0  0  0  0  0
   -2.6109   -2.3787    0.0000 C   0  0  0  0  0  0  0  0  0  0  0  0
   -3.1991   -0.9988    0.0000 C   0  0  0  0  0  0  0  0  0  0  0  0
   -4.6881   -0.8181    0.0000 C   0  0  0  0  0  0  0  0  0  0  0  0
   -5.2762    0.5618    0.0000 C   0  0  0  0  0  0  0  0  0  0  0  0
   -4.3753    1.7610    0.0000 O   0  0  0  0  0  0  0  0  0  0  0  0
   -6.7653    0.7424    0.0000 C   0  0  0  0  0  0  0  0  0  0  0  0
   -7.3534    2.1223    0.0000 C   0  0  0  0  0  0  0  0  0  0  0  0
   -8.8425    2.3029    0.0000 C   0  0  0  0  0  0  0  0  0  0  0  0
   -9.4306    3.6828    0.0000 O   0  0  0  0  0  0  0  0  0  0  0  0
   -1.1219   -2.5593    0.0000 C   0  0  0  0  0  0  0  0  0  0  0  0
   -0.3927   -3.8702    0.0000 C   0  0  0  0  0  0  0  0  0  0  0  0
    1.0793   -3.5818    0.0000 C   0  0  0  0  0  0  0  0  0  0  0  0
    1.2599   -2.0927    0.0000 C   0  0  0  0  0  0  0  0  0  0  0  0
    2.4874   -1.2306    0.0000 C   0  0  0  0  0  0  0  0  0  0  0  0
    3.8478   -1.8625    0.0000 C   0  0  0  0  0  0  0  0  0  0  0  0
    3.9807   -3.3566    0.0000 O   0  0  0  0  0  0  0  0  0  0  0  0
    5.0753   -1.0003    0.0000 C   0  0  0  0  0  0  0  0  0  0  0  0
    4.9423    0.4938    0.0000 C   0  0  0  0  0  0  0  0  0  0  0  0
    6.1698    1.3559    0.0000 C   0  0  0  0  0  0  0  0  0  0  0  0
    6.0369    2.8500    0.0000 C   0  0  0  0  0  0  0  0  0  0  0  0
    7.2644    3.7122    0.0000 O   0  0  0  0  0  0  0  0  0  0  0  0
    4.6765    3.4820    0.0000 C   0  0  0  0  0  0  0  0  0  0  0  0
    3.4490    2.6198    0.0000 C   0  0  0  0  0  0  0  0  0  0  0  0
    3.5820    1.1257    0.0000 C   0  0  0  0  0  0  0  0  0  0  0  0
    2.2216    1.7576    0.0000 C   0  0  0  0  0  0  0  0  0  0  0  0
    2.3545    0.2635    0.0000 C   0  0  0  0  0  0  0  0  0  0  0  0
    0.9941    0.8955    0.0000 C   0  0  0  0  0  0  0  0  0  0  0  0
   -0.2334    0.0333    0.0000 C   0  0  0  0  0  0  0  0  0  0  0  0
   -0.1005   -1.4608    0.0000 C   0  0  0  0  0  0  0  0  0  0  0  0
   -1.5195   -0.9745    0.0000 C   0  0  0  0  0  0  0  0  0  0  0  0
  2  1  1  6
  2  3  1  0
  3  4  1  0
  4  5  1  0
  5  6  2  0
  5  7  1  0
  7  8  1  0
  8  9  1  0
  9 10  2  0
  2 11  1  0
 11 12  1  6
 12 13  1  0
 14 13  1  6
 14 15  1  0
 15 16  1  1
 16 17  1  6
 16 18  1  0
 19 18  1  1
 19 20  1  0
 20 21  1  0
 21 22  1  1
 21 23  1  0
 23 24  1  0
 24 25  1  0
 25 26  1  6
 25 27  1  0
 27 28  1  6
 28 29  1  0
 29 30  1  0
 30 31  1  6
 30 11  1  0
 30 14  1  0
 27 15  1  0
 25 19  1  0
M  END
>  <MS_ID>  (2470) 
MS2555

>  <SMILES>  (2470) 
C[C@H](CCC(=O)CCC=O)[C@H]1CC[C@H]2[C@@H]3[C@@H](O)C[C@@H]4C[C@H](O)CC[C@]4(C)[C@H]3CC[C@]12C

>  <Structure_dimension>  (2470) 
2D

$$$$
MS2556
     RDKit          2D

 32 35  0  0  0  0  0  0  0  0999 V2000
   -3.1607   -3.8109    0.0000 C   0  0  0  0  0  0  0  0  0  0  0  0
   -2.3083   -2.5766    0.0000 C   0  0  0  0  0  0  0  0  0  0  0  0
   -2.9510   -1.2213    0.0000 C   0  0  0  0  0  0  0  0  0  0  0  0
   -4.4461   -1.1002    0.0000 C   0  0  0  0  0  0  0  0  0  0  0  0
   -5.0888    0.2551    0.0000 C   0  0  0  0  0  0  0  0  0  0  0  0
   -4.2364    1.4894    0.0000 O   0  0  0  0  0  0  0  0  0  0  0  0
   -6.5839    0.3762    0.0000 O   0  0  0  0  0  0  0  0  0  0  0  0
   -7.2266    1.7316    0.0000 C   0  0  0  0  0  0  0  0  0  0  0  0
   -6.3742    2.9658    0.0000 O   0  0  0  0  0  0  0  0  0  0  0  0
   -8.7218    1.8526    0.0000 C   0  0  0  0  0  0  0  0  0  0  0  0
   -9.3644    3.2080    0.0000 O   0  0  0  0  0  0  0  0  0  0  0  0
   -0.8132   -2.6977    0.0000 C   0  0  0  0  0  0  0  0  0  0  0  0
   -0.0324   -3.9784    0.0000 C   0  0  0  0  0  0  0  0  0  0  0  0
    1.4270   -3.6316    0.0000 C   0  0  0  0  0  0  0  0  0  0  0  0
    1.5480   -2.1364    0.0000 C   0  0  0  0  0  0  0  0  0  0  0  0
    2.7401   -1.2260    0.0000 C   0  0  0  0  0  0  0  0  0  0  0  0
    4.1246   -1.8032    0.0000 C   0  0  0  0  0  0  0  0  0  0  0  0
    4.3171   -3.2908    0.0000 O   0  0  0  0  0  0  0  0  0  0  0  0
    5.3167   -0.8927    0.0000 C   0  0  0  0  0  0  0  0  0  0  0  0
    5.1243    0.5949    0.0000 C   0  0  0  0  0  0  0  0  0  0  0  0
    6.3164    1.5053    0.0000 C   0  0  0  0  0  0  0  0  0  0  0  0
    6.1240    2.9929    0.0000 C   0  0  0  0  0  0  0  0  0  0  0  0
    7.3161    3.9034    0.0000 O   0  0  0  0  0  0  0  0  0  0  0  0
    4.7395    3.5701    0.0000 C   0  0  0  0  0  0  0  0  0  0  0  0
    3.5474    2.6597    0.0000 C   0  0  0  0  0  0  0  0  0  0  0  0
    3.7398    1.1721    0.0000 C   0  0  0  0  0  0  0  0  0  0  0  0
    2.3553    1.7492    0.0000 C   0  0  0  0  0  0  0  0  0  0  0  0
    2.5477    0.2616    0.0000 C   0  0  0  0  0  0  0  0  0  0  0  0
    1.1632    0.8388    0.0000 C   0  0  0  0  0  0  0  0  0  0  0  0
   -0.0289   -0.0717    0.0000 C   0  0  0  0  0  0  0  0  0  0  0  0
    0.1635   -1.5593    0.0000 C   0  0  0  0  0  0  0  0  0  0  0  0
   -1.2737   -1.1300    0.0000 C   0  0  0  0  0  0  0  0  0  0  0  0
  2  1  1  6
  2  3  1  0
  3  4  1  0
  4  5  1  0
  5  6  2  0
  5  7  1  0
  7  8  1  0
  8  9  1  6
  8 10  1  0
 10 11  1  0
  2 12  1  0
 12 13  1  6
 13 14  1  0
 15 14  1  6
 15 16  1  0
 16 17  1  1
 17 18  1  1
 17 19  1  0
 20 19  1  1
 20 21  1  0
 21 22  1  0
 22 23  1  1
 22 24  1  0
 24 25  1  0
 25 26  1  0
 26 27  1  6
 26 28  1  0
 28 29  1  6
 29 30  1  0
 30 31  1  0
 31 32  1  6
 31 12  1  0
 31 15  1  0
 28 16  1  0
 26 20  1  0
M  END
>  <MS_ID>  (2471) 
MS2556

>  <SMILES>  (2471) 
C[C@H](CCC(=O)O[C@@H](O)CO)[C@H]1CC[C@H]2[C@@H]3[C@H](O)C[C@@H]4C[C@H](O)CC[C@]4(C)[C@H]3CC[C@]12C

>  <Structure_dimension>  (2471) 
2D

$$$$
MS2557
     RDKit          2D

 35 38  0  0  0  0  0  0  0  0999 V2000
   -2.0800   -3.8983    0.0000 C   0  0  0  0  0  0  0  0  0  0  0  0
   -1.2622   -2.6409    0.0000 C   0  0  0  0  0  0  0  0  0  0  0  0
   -1.9424   -1.3039    0.0000 C   0  0  0  0  0  0  0  0  0  0  0  0
   -3.4403   -1.2245    0.0000 C   0  0  0  0  0  0  0  0  0  0  0  0
   -4.1204    0.1125    0.0000 C   0  0  0  0  0  0  0  0  0  0  0  0
   -3.3027    1.3700    0.0000 O   0  0  0  0  0  0  0  0  0  0  0  0
   -5.6183    0.1919    0.0000 N   0  0  0  0  0  0  0  0  0  0  0  0
   -6.2985    1.5288    0.0000 C   0  0  0  0  0  0  0  0  0  0  0  0
   -7.7963    1.6083    0.0000 C   0  0  0  0  0  0  0  0  0  0  0  0
   -8.4765    2.9452    0.0000 C   0  0  0  0  0  0  0  0  0  0  0  0
   -9.9744    3.0247    0.0000 O   0  0  0  0  0  0  0  0  0  0  0  0
   -8.6141    0.3508    0.0000 C   0  0  0  0  0  0  0  0  0  0  0  0
   -7.9340   -0.9861    0.0000 O   0  0  0  0  0  0  0  0  0  0  0  0
  -10.1120    0.4302    0.0000 O   0  0  0  0  0  0  0  0  0  0  0  0
    0.2357   -2.7203    0.0000 C   0  0  0  0  0  0  0  0  0  0  0  0
    1.0518   -3.9788    0.0000 C   0  0  0  0  0  0  0  0  0  0  0  0
    2.5010   -3.5915    0.0000 C   0  0  0  0  0  0  0  0  0  0  0  0
    2.5804   -2.0936    0.0000 C   0  0  0  0  0  0  0  0  0  0  0  0
    3.7467   -1.1504    0.0000 C   0  0  0  0  0  0  0  0  0  0  0  0
    5.1468   -1.6888    0.0000 C   0  0  0  0  0  0  0  0  0  0  0  0
    5.3805   -3.1705    0.0000 O   0  0  0  0  0  0  0  0  0  0  0  0
    6.3131   -0.7455    0.0000 C   0  0  0  0  0  0  0  0  0  0  0  0
    6.0793    0.7361    0.0000 C   0  0  0  0  0  0  0  0  0  0  0  0
    7.2457    1.6794    0.0000 C   0  0  0  0  0  0  0  0  0  0  0  0
    7.0119    3.1611    0.0000 C   0  0  0  0  0  0  0  0  0  0  0  0
    8.1782    4.1043    0.0000 O   0  0  0  0  0  0  0  0  0  0  0  0
    5.6119    3.6995    0.0000 C   0  0  0  0  0  0  0  0  0  0  0  0
    4.4456    2.7563    0.0000 C   0  0  0  0  0  0  0  0  0  0  0  0
    4.6793    1.2746    0.0000 C   0  0  0  0  0  0  0  0  0  0  0  0
    3.2793    1.8130    0.0000 C   0  0  0  0  0  0  0  0  0  0  0  0
    3.5130    0.3313    0.0000 C   0  0  0  0  0  0  0  0  0  0  0  0
    2.1130    0.8698    0.0000 C   0  0  0  0  0  0  0  0  0  0  0  0
    0.9467   -0.0735    0.0000 C   0  0  0  0  0  0  0  0  0  0  0  0
    1.1804   -1.5552    0.0000 C   0  0  0  0  0  0  0  0  0  0  0  0
   -0.2683   -1.1660    0.0000 C   0  0  0  0  0  0  0  0  0  0  0  0
  2  1  1  6
  2  3  1  0
  3  4  1  0
  4  5  1  0
  5  6  2  0
  5  7  1  0
  7  8  1  0
  9  8  1  1
  9 10  1  0
 10 11  1  0
  9 12  1  0
 12 13  2  0
 12 14  1  0
  2 15  1  0
 15 16  1  6
 16 17  1  0
 18 17  1  6
 18 19  1  0
 19 20  1  1
 20 21  1  1
 20 22  1  0
 23 22  1  1
 23 24  1  0
 24 25  1  0
 25 26  1  1
 25 27  1  0
 27 28  1  0
 28 29  1  0
 29 30  1  6
 29 31  1  0
 31 32  1  6
 32 33  1  0
 33 34  1  0
 34 35  1  6
 34 15  1  0
 34 18  1  0
 31 19  1  0
 29 23  1  0
M  END
>  <MS_ID>  (2472) 
MS2557

>  <SMILES>  (2472) 
C[C@H](CCC(=O)NC[C@H](CO)C(=O)O)[C@H]1CC[C@H]2[C@@H]3[C@H](O)C[C@@H]4C[C@H](O)CC[C@]4(C)[C@H]3CC[C@]12C

>  <Structure_dimension>  (2472) 
2D

$$$$
MS2558
     RDKit          2D

 32 35  0  0  0  0  0  0  0  0999 V2000
  -10.8107    3.0070    0.0000 C   0  0  0  0  0  0  0  0  0  0  0  0
   -9.3127    2.9291    0.0000 N   0  0  0  0  0  0  0  0  0  0  0  0
   -8.6311    1.5929    0.0000 C   0  0  0  0  0  0  0  0  0  0  0  0
   -7.1332    1.5150    0.0000 C   0  0  0  0  0  0  0  0  0  0  0  0
   -6.4516    0.1788    0.0000 N   0  0  0  0  0  0  0  0  0  0  0  0
   -4.9536    0.1009    0.0000 C   0  0  0  0  0  0  0  0  0  0  0  0
   -4.1372    1.3592    0.0000 O   0  0  0  0  0  0  0  0  0  0  0  0
   -4.2721   -1.2353    0.0000 C   0  0  0  0  0  0  0  0  0  0  0  0
   -2.7741   -1.3132    0.0000 C   0  0  0  0  0  0  0  0  0  0  0  0
   -2.0926   -2.6494    0.0000 C   0  0  0  0  0  0  0  0  0  0  0  0
   -2.9090   -3.9078    0.0000 C   0  0  0  0  0  0  0  0  0  0  0  0
   -0.5946   -2.7273    0.0000 C   0  0  0  0  0  0  0  0  0  0  0  0
    0.2229   -3.9850    0.0000 C   0  0  0  0  0  0  0  0  0  0  0  0
    1.6716   -3.5962    0.0000 C   0  0  0  0  0  0  0  0  0  0  0  0
    1.7495   -2.0982    0.0000 C   0  0  0  0  0  0  0  0  0  0  0  0
    2.9148   -1.1537    0.0000 C   0  0  0  0  0  0  0  0  0  0  0  0
    4.3154   -1.6907    0.0000 C   0  0  0  0  0  0  0  0  0  0  0  0
    4.5507   -3.1721    0.0000 O   0  0  0  0  0  0  0  0  0  0  0  0
    5.4807   -0.7462    0.0000 C   0  0  0  0  0  0  0  0  0  0  0  0
    5.2455    0.7352    0.0000 C   0  0  0  0  0  0  0  0  0  0  0  0
    6.4108    1.6797    0.0000 C   0  0  0  0  0  0  0  0  0  0  0  0
    6.1755    3.1611    0.0000 C   0  0  0  0  0  0  0  0  0  0  0  0
    7.3408    4.1056    0.0000 O   0  0  0  0  0  0  0  0  0  0  0  0
    4.7749    3.6981    0.0000 C   0  0  0  0  0  0  0  0  0  0  0  0
    3.6096    2.7536    0.0000 C   0  0  0  0  0  0  0  0  0  0  0  0
    3.8449    1.2722    0.0000 C   0  0  0  0  0  0  0  0  0  0  0  0
    2.4443    1.8091    0.0000 C   0  0  0  0  0  0  0  0  0  0  0  0
    2.6795    0.3277    0.0000 C   0  0  0  0  0  0  0  0  0  0  0  0
    1.2789    0.8647    0.0000 C   0  0  0  0  0  0  0  0  0  0  0  0
    0.1136   -0.0798    0.0000 C   0  0  0  0  0  0  0  0  0  0  0  0
    0.3489   -1.5612    0.0000 C   0  0  0  0  0  0  0  0  0  0  0  0
   -1.1002   -1.1736    0.0000 C   0  0  0  0  0  0  0  0  0  0  0  0
  1  2  1  0
  2  3  1  0
  3  4  1  0
  4  5  1  0
  5  6  1  0
  6  7  2  0
  6  8  1  0
  8  9  1  0
  9 10  1  0
 10 11  1  6
 10 12  1  0
 12 13  1  6
 13 14  1  0
 15 14  1  6
 15 16  1  0
 16 17  1  1
 17 18  1  1
 17 19  1  0
 20 19  1  1
 20 21  1  0
 21 22  1  0
 22 23  1  1
 22 24  1  0
 24 25  1  0
 25 26  1  0
 26 27  1  6
 26 28  1  0
 28 29  1  6
 29 30  1  0
 30 31  1  0
 31 32  1  6
 31 12  1  0
 31 15  1  0
 28 16  1  0
 26 20  1  0
M  END
>  <MS_ID>  (2473) 
MS2558

>  <SMILES>  (2473) 
CNCCNC(=O)CC[C@@H](C)[C@H]1CC[C@H]2[C@@H]3[C@H](O)C[C@@H]4C[C@H](O)CC[C@]4(C)[C@H]3CC[C@]12C

>  <Structure_dimension>  (2473) 
2D

$$$$
MS2559
     RDKit          2D

 34 38  0  0  0  0  0  0  0  0999 V2000
   -2.7422   -3.4682    0.0000 C   0  0  0  0  0  0  0  0  0  0  0  0
   -1.8192   -2.2858    0.0000 C   0  0  0  0  0  0  0  0  0  0  0  0
   -2.3817   -0.8952    0.0000 C   0  0  0  0  0  0  0  0  0  0  0  0
   -3.8672   -0.6871    0.0000 C   0  0  0  0  0  0  0  0  0  0  0  0
   -4.4297    0.7034    0.0000 C   0  0  0  0  0  0  0  0  0  0  0  0
   -3.5067    1.8858    0.0000 O   0  0  0  0  0  0  0  0  0  0  0  0
   -5.9152    0.9116    0.0000 C   0  0  0  0  0  0  0  0  0  0  0  0
   -6.4777    2.3021    0.0000 C   0  0  0  0  0  0  0  0  0  0  0  0
   -7.9632    2.5102    0.0000 C   0  0  0  0  0  0  0  0  0  0  0  0
   -8.8861    1.3278    0.0000 N   0  0  0  0  0  0  0  0  0  0  0  0
  -10.3716    1.5359    0.0000 O   0  0  0  0  0  0  0  0  0  0  0  0
   -8.3236   -0.0627    0.0000 C   0  0  0  0  0  0  0  0  0  0  0  0
   -6.8382   -0.2709    0.0000 C   0  0  0  0  0  0  0  0  0  0  0  0
   -0.3337   -2.4939    0.0000 C   0  0  0  0  0  0  0  0  0  0  0  0
    0.3711   -3.8180    0.0000 C   0  0  0  0  0  0  0  0  0  0  0  0
    1.8482   -3.5569    0.0000 C   0  0  0  0  0  0  0  0  0  0  0  0
    2.0563   -2.0714    0.0000 C   0  0  0  0  0  0  0  0  0  0  0  0
    3.2995   -1.2321    0.0000 C   0  0  0  0  0  0  0  0  0  0  0  0
    4.6480   -1.8891    0.0000 C   0  0  0  0  0  0  0  0  0  0  0  0
    4.7533   -3.3854    0.0000 O   0  0  0  0  0  0  0  0  0  0  0  0
    5.8912   -1.0498    0.0000 C   0  0  0  0  0  0  0  0  0  0  0  0
    5.7859    0.4465    0.0000 C   0  0  0  0  0  0  0  0  0  0  0  0
    7.0291    1.2858    0.0000 C   0  0  0  0  0  0  0  0  0  0  0  0
    6.9238    2.7821    0.0000 C   0  0  0  0  0  0  0  0  0  0  0  0
    8.1670    3.6215    0.0000 O   0  0  0  0  0  0  0  0  0  0  0  0
    5.5754    3.4391    0.0000 C   0  0  0  0  0  0  0  0  0  0  0  0
    4.3322    2.5998    0.0000 C   0  0  0  0  0  0  0  0  0  0  0  0
    4.4374    1.1035    0.0000 C   0  0  0  0  0  0  0  0  0  0  0  0
    3.0890    1.7605    0.0000 C   0  0  0  0  0  0  0  0  0  0  0  0
    3.1942    0.2642    0.0000 C   0  0  0  0  0  0  0  0  0  0  0  0
    1.8458    0.9212    0.0000 C   0  0  0  0  0  0  0  0  0  0  0  0
    0.6026    0.0819    0.0000 C   0  0  0  0  0  0  0  0  0  0  0  0
    0.7078   -1.4144    0.0000 C   0  0  0  0  0  0  0  0  0  0  0  0
   -0.7019   -0.9020    0.0000 C   0  0  0  0  0  0  0  0  0  0  0  0
  2  1  1  6
  2  3  1  0
  3  4  1  0
  4  5  1  0
  5  6  2  0
  5  7  1  0
  7  8  2  0
  8  9  1  0
  9 10  2  0
 10 11  1  0
 10 12  1  0
 12 13  2  0
  2 14  1  0
 14 15  1  6
 15 16  1  0
 17 16  1  6
 17 18  1  0
 18 19  1  1
 19 20  1  6
 19 21  1  0
 22 21  1  1
 22 23  1  0
 23 24  1  0
 24 25  1  1
 24 26  1  0
 26 27  1  0
 27 28  1  0
 28 29  1  6
 28 30  1  0
 30 31  1  6
 31 32  1  0
 32 33  1  0
 33 34  1  6
 13  7  1  0
 33 14  1  0
 33 17  1  0
 30 18  1  0
 28 22  1  0
M  CHG  2  10   1  11  -1
M  END
>  <MS_ID>  (2474) 
MS2559

>  <SMILES>  (2474) 
C[C@H](CCC(=O)c1cc[n+]([O-])cc1)[C@H]1CC[C@H]2[C@@H]3[C@@H](O)C[C@@H]4C[C@H](O)CC[C@]4(C)[C@H]3CC[C@]12C

>  <Structure_dimension>  (2474) 
2D

$$$$
MS2560
     RDKit          2D

 33 36  0  0  0  0  0  0  0  0999 V2000
   -8.6905    1.4878    0.0000 C   0  0  0  0  0  0  0  0  0  0  0  0
   -7.1926    1.4090    0.0000 C   0  0  0  0  0  0  0  0  0  0  0  0
   -6.5119    0.0724    0.0000 C   0  0  0  0  0  0  0  0  0  0  0  0
   -5.0139   -0.0064    0.0000 C   0  0  0  0  0  0  0  0  0  0  0  0
   -4.1967    1.2514    0.0000 O   0  0  0  0  0  0  0  0  0  0  0  0
   -4.3332   -1.3431    0.0000 C   0  0  0  0  0  0  0  0  0  0  0  0
   -2.8353   -1.4219    0.0000 C   0  0  0  0  0  0  0  0  0  0  0  0
   -2.1546   -2.7585    0.0000 C   0  0  0  0  0  0  0  0  0  0  0  0
   -2.9718   -4.0164    0.0000 C   0  0  0  0  0  0  0  0  0  0  0  0
   -0.6566   -2.8373    0.0000 C   0  0  0  0  0  0  0  0  0  0  0  0
    0.1601   -4.0955    0.0000 C   0  0  0  0  0  0  0  0  0  0  0  0
    1.6091   -3.7075    0.0000 C   0  0  0  0  0  0  0  0  0  0  0  0
    1.6878   -2.2096    0.0000 C   0  0  0  0  0  0  0  0  0  0  0  0
    2.8537   -1.2658    0.0000 C   0  0  0  0  0  0  0  0  0  0  0  0
    4.2540   -1.8037    0.0000 C   0  0  0  0  0  0  0  0  0  0  0  0
    4.4884   -3.2852    0.0000 O   0  0  0  0  0  0  0  0  0  0  0  0
    5.4199   -0.8599    0.0000 C   0  0  0  0  0  0  0  0  0  0  0  0
    5.1855    0.6217    0.0000 C   0  0  0  0  0  0  0  0  0  0  0  0
    6.3514    1.5654    0.0000 C   0  0  0  0  0  0  0  0  0  0  0  0
    6.1171    3.0470    0.0000 C   0  0  0  0  0  0  0  0  0  0  0  0
    7.2830    3.9908    0.0000 O   0  0  0  0  0  0  0  0  0  0  0  0
    4.7168    3.5848    0.0000 C   0  0  0  0  0  0  0  0  0  0  0  0
    3.5509    2.6411    0.0000 C   0  0  0  0  0  0  0  0  0  0  0  0
    3.7853    1.1595    0.0000 C   0  0  0  0  0  0  0  0  0  0  0  0
    2.3850    1.6973    0.0000 C   0  0  0  0  0  0  0  0  0  0  0  0
    2.6194    0.2157    0.0000 C   0  0  0  0  0  0  0  0  0  0  0  0
    1.2191    0.7536    0.0000 C   0  0  0  0  0  0  0  0  0  0  0  0
    0.0532   -0.1902    0.0000 C   0  0  0  0  0  0  0  0  0  0  0  0
    0.2876   -1.6718    0.0000 C   0  0  0  0  0  0  0  0  0  0  0  0
   -1.1612   -1.2833    0.0000 C   0  0  0  0  0  0  0  0  0  0  0  0
   -6.3754    2.6668    0.0000 C   0  0  0  0  0  0  0  0  0  0  0  0
   -4.8775    2.5881    0.0000 O   0  0  0  0  0  0  0  0  0  0  0  0
   -7.0561    4.0035    0.0000 O   0  0  0  0  0  0  0  0  0  0  0  0
  1  2  1  0
  2  3  2  0
  3  4  1  0
  4  5  2  0
  4  6  1  0
  6  7  1  0
  7  8  1  0
  8  9  1  6
  8 10  1  0
 10 11  1  6
 11 12  1  0
 13 12  1  6
 13 14  1  0
 14 15  1  1
 15 16  1  1
 15 17  1  0
 18 17  1  1
 18 19  1  0
 19 20  1  0
 20 21  1  1
 20 22  1  0
 22 23  1  0
 23 24  1  0
 24 25  1  6
 24 26  1  0
 26 27  1  6
 27 28  1  0
 28 29  1  0
 29 30  1  6
  2 31  1  0
 31 32  2  0
 31 33  1  0
 29 10  1  0
 29 13  1  0
 26 14  1  0
 24 18  1  0
M  END
>  <MS_ID>  (2475) 
MS2560

>  <SMILES>  (2475) 
C/C(=C/C(=O)CC[C@@H](C)[C@H]1CC[C@H]2[C@@H]3[C@H](O)C[C@@H]4C[C@H](O)CC[C@]4(C)[C@H]3CC[C@]12C)C(=O)O

>  <Structure_dimension>  (2475) 
2D

$$$$
MS2561
     RDKit          2D

 41 45  0  0  0  0  0  0  0  0999 V2000
   -8.0324   -2.0326    0.0000 C   0  0  0  0  0  0  0  0  0  0  0  0
   -6.8746   -1.0789    0.0000 C   0  0  0  0  0  0  0  0  0  0  0  0
   -7.1216    0.4006    0.0000 C   0  0  0  0  0  0  0  0  0  0  0  0
   -8.5264    0.9264    0.0000 C   0  0  0  0  0  0  0  0  0  0  0  0
   -8.7735    2.4060    0.0000 C   0  0  0  0  0  0  0  0  0  0  0  0
   -7.6157    3.3597    0.0000 O   0  0  0  0  0  0  0  0  0  0  0  0
  -10.1783    2.9318    0.0000 O   0  0  0  0  0  0  0  0  0  0  0  0
   -5.4698   -1.6047    0.0000 C   0  0  0  0  0  0  0  0  0  0  0  0
   -5.0694   -3.0503    0.0000 C   0  0  0  0  0  0  0  0  0  0  0  0
   -3.5709   -3.1163    0.0000 C   0  0  0  0  0  0  0  0  0  0  0  0
   -3.0451   -1.7115    0.0000 C   0  0  0  0  0  0  0  0  0  0  0  0
   -1.6492   -1.1622    0.0000 C   0  0  0  0  0  0  0  0  0  0  0  0
   -0.4757   -2.0964    0.0000 C   0  0  0  0  0  0  0  0  0  0  0  0
   -0.6979   -3.5799    0.0000 O   0  0  0  0  0  0  0  0  0  0  0  0
    0.9202   -1.5472    0.0000 C   0  0  0  0  0  0  0  0  0  0  0  0
    1.1424   -0.0637    0.0000 C   0  0  0  0  0  0  0  0  0  0  0  0
    2.5382    0.4855    0.0000 C   0  0  0  0  0  0  0  0  0  0  0  0
    2.7605    1.9689    0.0000 C   0  0  0  0  0  0  0  0  0  0  0  0
    4.1563    2.5182    0.0000 O   0  0  0  0  0  0  0  0  0  0  0  0
    5.3299    1.5840    0.0000 C   0  0  0  0  0  0  0  0  0  0  0  0
    5.1076    0.1005    0.0000 O   0  0  0  0  0  0  0  0  0  0  0  0
    6.2812   -0.8337    0.0000 C   0  0  0  0  0  0  0  0  0  0  0  0
    6.0589   -2.3171    0.0000 C   0  0  0  0  0  0  0  0  0  0  0  0
    4.6631   -2.8663    0.0000 N   0  0  0  0  0  0  0  0  0  0  0  0
    4.4409   -4.3498    0.0000 C   0  0  0  0  0  0  0  0  0  0  0  0
    3.4895   -1.9321    0.0000 C   0  0  0  0  0  0  0  0  0  0  0  0
    7.6770   -0.2844    0.0000 C   0  0  0  0  0  0  0  0  0  0  0  0
    8.8506   -1.2186    0.0000 O   0  0  0  0  0  0  0  0  0  0  0  0
    7.8993    1.1990    0.0000 C   0  0  0  0  0  0  0  0  0  0  0  0
    9.2951    1.7483    0.0000 O   0  0  0  0  0  0  0  0  0  0  0  0
    6.7257    2.1332    0.0000 C   0  0  0  0  0  0  0  0  0  0  0  0
    6.9480    3.6167    0.0000 O   0  0  0  0  0  0  0  0  0  0  0  0
    1.5869    2.9031    0.0000 C   0  0  0  0  0  0  0  0  0  0  0  0
    0.1911    2.3539    0.0000 C   0  0  0  0  0  0  0  0  0  0  0  0
   -0.0312    0.8705    0.0000 C   0  0  0  0  0  0  0  0  0  0  0  0
   -1.2047    1.8047    0.0000 C   0  0  0  0  0  0  0  0  0  0  0  0
   -1.4270    0.3212    0.0000 C   0  0  0  0  0  0  0  0  0  0  0  0
   -2.6006    1.2554    0.0000 C   0  0  0  0  0  0  0  0  0  0  0  0
   -3.9964    0.7062    0.0000 C   0  0  0  0  0  0  0  0  0  0  0  0
   -4.2186   -0.7773    0.0000 C   0  0  0  0  0  0  0  0  0  0  0  0
   -5.4834    0.0291    0.0000 C   0  0  0  0  0  0  0  0  0  0  0  0
  2  1  1  6
  2  3  1  0
  3  4  1  0
  4  5  1  0
  5  6  2  0
  5  7  1  0
  2  8  1  0
  8  9  1  6
  9 10  1  0
 11 10  1  6
 11 12  1  0
 12 13  1  1
 13 14  1  6
 13 15  1  0
 16 15  1  1
 16 17  1  0
 17 18  1  0
 18 19  1  1
 20 19  1  1
 20 21  1  0
 21 22  1  0
 22 23  1  1
 23 24  1  0
 24 25  1  0
 24 26  1  0
 22 27  1  0
 27 28  1  6
 27 29  1  0
 29 30  1  1
 29 31  1  0
 31 32  1  6
 18 33  1  0
 33 34  1  0
 34 35  1  0
 35 36  1  6
 35 37  1  0
 37 38  1  6
 38 39  1  0
 39 40  1  0
 40 41  1  6
 40  8  1  0
 40 11  1  0
 37 12  1  0
 35 16  1  0
 31 20  1  0
M  END
>  <MS_ID>  (2476) 
MS2561

>  <SMILES>  (2476) 
C[C@H](CCC(=O)O)[C@H]1CC[C@H]2[C@@H]3[C@@H](O)C[C@@H]4C[C@H](O[C@@H]5O[C@H](CN(C)C)[C@@H](O)[C@H](O)[C@H]5O)CC[C@]4(C)[C@H]3CC[C@]12C

>  <Structure_dimension>  (2476) 
2D

$$$$
MS2562
     RDKit          2D

 32 35  0  0  0  0  0  0  0  0999 V2000
   -3.0592   -3.7169    0.0000 C   0  0  0  0  0  0  0  0  0  0  0  0
   -2.1499   -2.5239    0.0000 C   0  0  0  0  0  0  0  0  0  0  0  0
   -2.7284   -1.1399    0.0000 C   0  0  0  0  0  0  0  0  0  0  0  0
   -4.2162   -0.9489    0.0000 C   0  0  0  0  0  0  0  0  0  0  0  0
   -4.7946    0.4350    0.0000 C   0  0  0  0  0  0  0  0  0  0  0  0
   -3.8853    1.6280    0.0000 O   0  0  0  0  0  0  0  0  0  0  0  0
   -6.2824    0.6260    0.0000 N   0  0  0  0  0  0  0  0  0  0  0  0
   -6.8609    2.0100    0.0000 C   0  0  0  0  0  0  0  0  0  0  0  0
   -8.3487    2.2010    0.0000 C   0  0  0  0  0  0  0  0  0  0  0  0
   -9.2580    1.0080    0.0000 O   0  0  0  0  0  0  0  0  0  0  0  0
   -8.9272    3.5850    0.0000 O   0  0  0  0  0  0  0  0  0  0  0  0
   -0.6621   -2.7149    0.0000 C   0  0  0  0  0  0  0  0  0  0  0  0
    0.0579   -4.0308    0.0000 C   0  0  0  0  0  0  0  0  0  0  0  0
    1.5319   -3.7527    0.0000 C   0  0  0  0  0  0  0  0  0  0  0  0
    1.7229   -2.2649    0.0000 C   0  0  0  0  0  0  0  0  0  0  0  0
    2.9563   -1.4114    0.0000 C   0  0  0  0  0  0  0  0  0  0  0  0
    4.3123   -2.0528    0.0000 C   0  0  0  0  0  0  0  0  0  0  0  0
    5.5457   -1.1992    0.0000 C   0  0  0  0  0  0  0  0  0  0  0  0
    5.4232    0.2958    0.0000 C   0  0  0  0  0  0  0  0  0  0  0  0
    6.6567    1.1494    0.0000 C   0  0  0  0  0  0  0  0  0  0  0  0
    6.5342    2.6444    0.0000 C   0  0  0  0  0  0  0  0  0  0  0  0
    7.7676    3.4980    0.0000 O   0  0  0  0  0  0  0  0  0  0  0  0
    5.1782    3.2858    0.0000 C   0  0  0  0  0  0  0  0  0  0  0  0
    3.9448    2.4322    0.0000 C   0  0  0  0  0  0  0  0  0  0  0  0
    4.0673    0.9372    0.0000 C   0  0  0  0  0  0  0  0  0  0  0  0
    2.7113    1.5786    0.0000 C   0  0  0  0  0  0  0  0  0  0  0  0
    2.8338    0.0836    0.0000 C   0  0  0  0  0  0  0  0  0  0  0  0
    1.4779    0.7250    0.0000 C   0  0  0  0  0  0  0  0  0  0  0  0
    0.2444   -0.1285    0.0000 C   0  0  0  0  0  0  0  0  0  0  0  0
   -1.1115    0.5129    0.0000 O   0  0  0  0  0  0  0  0  0  0  0  0
    0.3669   -1.6235    0.0000 C   0  0  0  0  0  0  0  0  0  0  0  0
   -1.0486   -1.1274    0.0000 C   0  0  0  0  0  0  0  0  0  0  0  0
  2  1  1  6
  2  3  1  0
  3  4  1  0
  4  5  1  0
  5  6  2  0
  5  7  1  0
  7  8  1  0
  8  9  1  0
  9 10  2  0
  9 11  1  0
  2 12  1  0
 12 13  1  6
 13 14  1  0
 15 14  1  6
 15 16  1  0
 16 17  1  1
 17 18  1  0
 19 18  1  1
 19 20  1  0
 20 21  1  0
 21 22  1  6
 21 23  1  0
 23 24  1  0
 24 25  1  0
 25 26  1  6
 25 27  1  0
 27 28  1  6
 28 29  1  0
 29 30  1  1
 29 31  1  0
 31 32  1  6
 31 12  1  0
 31 15  1  0
 27 16  1  0
 25 19  1  0
M  END
>  <MS_ID>  (2477) 
MS2562

>  <SMILES>  (2477) 
C[C@H](CCC(=O)NCC(=O)O)[C@H]1CC[C@H]2[C@@H]3CC[C@@H]4C[C@@H](O)CC[C@]4(C)[C@H]3C[C@H](O)[C@]12C

>  <Structure_dimension>  (2477) 
2D

$$$$
MS2563
     RDKit          2D

 33 36  0  0  0  0  0  0  0  0999 V2000
   -2.3545   -4.2141    0.0000 C   0  0  0  0  0  0  0  0  0  0  0  0
   -1.5746   -2.9328    0.0000 C   0  0  0  0  0  0  0  0  0  0  0  0
   -2.2943   -1.6167    0.0000 C   0  0  0  0  0  0  0  0  0  0  0  0
   -3.7939   -1.5819    0.0000 C   0  0  0  0  0  0  0  0  0  0  0  0
   -4.5135   -0.2658    0.0000 C   0  0  0  0  0  0  0  0  0  0  0  0
   -3.7336    1.0155    0.0000 O   0  0  0  0  0  0  0  0  0  0  0  0
   -6.0131   -0.2310    0.0000 C   0  0  0  0  0  0  0  0  0  0  0  0
   -6.7328    1.0851    0.0000 C   0  0  0  0  0  0  0  0  0  0  0  0
   -8.2324    1.1199    0.0000 C   0  0  0  0  0  0  0  0  0  0  0  0
   -8.9520    2.4360    0.0000 C   0  0  0  0  0  0  0  0  0  0  0  0
   -8.1721    3.7173    0.0000 O   0  0  0  0  0  0  0  0  0  0  0  0
  -10.4516    2.4708    0.0000 O   0  0  0  0  0  0  0  0  0  0  0  0
   -0.0750   -2.9676    0.0000 C   0  0  0  0  0  0  0  0  0  0  0  0
    0.7783   -4.2012    0.0000 C   0  0  0  0  0  0  0  0  0  0  0  0
    2.2152   -3.7709    0.0000 C   0  0  0  0  0  0  0  0  0  0  0  0
    2.2500   -2.2713    0.0000 C   0  0  0  0  0  0  0  0  0  0  0  0
    3.3877   -1.2938    0.0000 C   0  0  0  0  0  0  0  0  0  0  0  0
    4.8032   -1.7903    0.0000 C   0  0  0  0  0  0  0  0  0  0  0  0
    5.9409   -0.8127    0.0000 C   0  0  0  0  0  0  0  0  0  0  0  0
    5.6632    0.6614    0.0000 C   0  0  0  0  0  0  0  0  0  0  0  0
    6.8009    1.6389    0.0000 C   0  0  0  0  0  0  0  0  0  0  0  0
    6.5231    3.1130    0.0000 C   0  0  0  0  0  0  0  0  0  0  0  0
    7.6608    4.0905    0.0000 O   0  0  0  0  0  0  0  0  0  0  0  0
    5.1077    3.6095    0.0000 C   0  0  0  0  0  0  0  0  0  0  0  0
    3.9700    2.6319    0.0000 C   0  0  0  0  0  0  0  0  0  0  0  0
    4.2477    1.1579    0.0000 C   0  0  0  0  0  0  0  0  0  0  0  0
    2.8323    1.6544    0.0000 C   0  0  0  0  0  0  0  0  0  0  0  0
    3.1100    0.1803    0.0000 C   0  0  0  0  0  0  0  0  0  0  0  0
    1.6946    0.6768    0.0000 C   0  0  0  0  0  0  0  0  0  0  0  0
    0.5569   -0.3008    0.0000 C   0  0  0  0  0  0  0  0  0  0  0  0
   -0.8586    0.1957    0.0000 O   0  0  0  0  0  0  0  0  0  0  0  0
    0.8346   -1.7748    0.0000 C   0  0  0  0  0  0  0  0  0  0  0  0
   -0.6250   -1.4290    0.0000 C   0  0  0  0  0  0  0  0  0  0  0  0
  2  1  1  6
  2  3  1  0
  3  4  1  0
  4  5  1  0
  5  6  2  0
  5  7  1  0
  7  8  2  0
  8  9  1  0
  9 10  1  0
 10 11  2  0
 10 12  1  0
  2 13  1  0
 13 14  1  6
 14 15  1  0
 16 15  1  6
 16 17  1  0
 17 18  1  1
 18 19  1  0
 20 19  1  1
 20 21  1  0
 21 22  1  0
 22 23  1  1
 22 24  1  0
 24 25  1  0
 25 26  1  0
 26 27  1  6
 26 28  1  0
 28 29  1  6
 29 30  1  0
 30 31  1  1
 30 32  1  0
 32 33  1  6
 32 13  1  0
 32 16  1  0
 28 17  1  0
 26 20  1  0
M  END
>  <MS_ID>  (2478) 
MS2563

>  <SMILES>  (2478) 
C[C@H](CCC(=O)/C=C/CC(=O)O)[C@H]1CC[C@H]2[C@@H]3CC[C@@H]4C[C@H](O)CC[C@]4(C)[C@H]3C[C@H](O)[C@]12C

>  <Structure_dimension>  (2478) 
2D

$$$$
MS2564
     RDKit          2D

 32 35  0  0  0  0  0  0  0  0999 V2000
   -3.4546   -3.6059    0.0000 C   0  0  0  0  0  0  0  0  0  0  0  0
   -2.5561   -2.4048    0.0000 C   0  0  0  0  0  0  0  0  0  0  0  0
   -3.1471   -1.0261    0.0000 C   0  0  0  0  0  0  0  0  0  0  0  0
   -4.6366   -0.8486    0.0000 C   0  0  0  0  0  0  0  0  0  0  0  0
   -5.2276    0.5301    0.0000 C   0  0  0  0  0  0  0  0  0  0  0  0
   -4.3291    1.7312    0.0000 O   0  0  0  0  0  0  0  0  0  0  0  0
   -6.7170    0.7076    0.0000 C   0  0  0  0  0  0  0  0  0  0  0  0
   -7.3080    2.0863    0.0000 C   0  0  0  0  0  0  0  0  0  0  0  0
   -8.7975    2.2638    0.0000 C   0  0  0  0  0  0  0  0  0  0  0  0
   -9.3885    3.6424    0.0000 O   0  0  0  0  0  0  0  0  0  0  0  0
   -1.0667   -2.5823    0.0000 C   0  0  0  0  0  0  0  0  0  0  0  0
   -0.3348   -3.8917    0.0000 C   0  0  0  0  0  0  0  0  0  0  0  0
    1.1366   -3.6002    0.0000 C   0  0  0  0  0  0  0  0  0  0  0  0
    1.3141   -2.1108    0.0000 C   0  0  0  0  0  0  0  0  0  0  0  0
    2.5398   -1.2460    0.0000 C   0  0  0  0  0  0  0  0  0  0  0  0
    3.9015   -1.8751    0.0000 C   0  0  0  0  0  0  0  0  0  0  0  0
    4.0375   -3.3690    0.0000 O   0  0  0  0  0  0  0  0  0  0  0  0
    5.1272   -1.0104    0.0000 C   0  0  0  0  0  0  0  0  0  0  0  0
    4.9911    0.4834    0.0000 C   0  0  0  0  0  0  0  0  0  0  0  0
    6.2168    1.3481    0.0000 C   0  0  0  0  0  0  0  0  0  0  0  0
    6.0808    2.8419    0.0000 C   0  0  0  0  0  0  0  0  0  0  0  0
    7.3064    3.7067    0.0000 O   0  0  0  0  0  0  0  0  0  0  0  0
    4.7191    3.4710    0.0000 C   0  0  0  0  0  0  0  0  0  0  0  0
    3.4934    2.6063    0.0000 C   0  0  0  0  0  0  0  0  0  0  0  0
    3.6294    1.1125    0.0000 C   0  0  0  0  0  0  0  0  0  0  0  0
    2.2677    1.7416    0.0000 C   0  0  0  0  0  0  0  0  0  0  0  0
    2.4038    0.2478    0.0000 C   0  0  0  0  0  0  0  0  0  0  0  0
    1.0421    0.8769    0.0000 C   0  0  0  0  0  0  0  0  0  0  0  0
   -0.1836    0.0122    0.0000 C   0  0  0  0  0  0  0  0  0  0  0  0
   -1.5453    0.6413    0.0000 O   0  0  0  0  0  0  0  0  0  0  0  0
   -0.0476   -1.4817    0.0000 C   0  0  0  0  0  0  0  0  0  0  0  0
   -1.4676   -0.9983    0.0000 C   0  0  0  0  0  0  0  0  0  0  0  0
  2  1  1  6
  2  3  1  0
  3  4  1  0
  4  5  1  0
  5  6  2  0
  5  7  1  0
  7  8  2  0
  8  9  1  0
  9 10  1  0
  2 11  1  0
 11 12  1  6
 12 13  1  0
 14 13  1  6
 14 15  1  0
 15 16  1  1
 16 17  1  1
 16 18  1  0
 19 18  1  1
 19 20  1  0
 20 21  1  0
 21 22  1  1
 21 23  1  0
 23 24  1  0
 24 25  1  0
 25 26  1  6
 25 27  1  0
 27 28  1  6
 28 29  1  0
 29 30  1  1
 29 31  1  0
 31 32  1  6
 31 11  1  0
 31 14  1  0
 27 15  1  0
 25 19  1  0
M  END
>  <MS_ID>  (2479) 
MS2564

>  <SMILES>  (2479) 
C[C@H](CCC(=O)/C=C/CO)[C@H]1CC[C@H]2[C@@H]3[C@H](O)C[C@@H]4C[C@H](O)CC[C@]4(C)[C@H]3C[C@H](O)[C@]12C

>  <Structure_dimension>  (2479) 
2D

$$$$
MS2565
     RDKit          2D

 32 36  0  0  0  0  0  0  0  0999 V2000
   -6.4932   -1.4350    0.0000 C   0  0  0  0  0  0  0  0  0  0  0  0
   -5.1891   -0.6940    0.0000 C   0  0  0  0  0  0  0  0  0  0  0  0
   -5.1787    0.8060    0.0000 C   0  0  0  0  0  0  0  0  0  0  0  0
   -6.4726    1.5649    0.0000 C   0  0  0  0  0  0  0  0  0  0  0  0
   -6.4622    3.0649    0.0000 C   0  0  0  0  0  0  0  0  0  0  0  0
   -5.1580    3.8059    0.0000 O   0  0  0  0  0  0  0  0  0  0  0  0
   -7.7561    3.8238    0.0000 O   0  0  0  0  0  0  0  0  0  0  0  0
   -3.8952   -1.4529    0.0000 C   0  0  0  0  0  0  0  0  0  0  0  0
   -3.7487   -2.9458    0.0000 C   0  0  0  0  0  0  0  0  0  0  0  0
   -2.2837   -3.2677    0.0000 C   0  0  0  0  0  0  0  0  0  0  0  0
   -1.5248   -1.9739    0.0000 C   0  0  0  0  0  0  0  0  0  0  0  0
   -0.0554   -1.6722    0.0000 C   0  0  0  0  0  0  0  0  0  0  0  0
    0.9406   -2.7938    0.0000 C   0  0  0  0  0  0  0  0  0  0  0  0
    0.4672   -4.2171    0.0000 O   0  0  0  0  0  0  0  0  0  0  0  0
    2.4099   -2.4920    0.0000 C   0  0  0  0  0  0  0  0  0  0  0  0
    2.8833   -1.0687    0.0000 C   0  0  0  0  0  0  0  0  0  0  0  0
    4.3526   -0.7669    0.0000 C   0  0  0  0  0  0  0  0  0  0  0  0
    4.8259    0.6564    0.0000 C   0  0  0  0  0  0  0  0  0  0  0  0
    6.2953    0.9582    0.0000 C   0  0  0  0  0  0  0  0  0  0  0  0
    6.9148    2.3243    0.0000 C   0  0  0  0  0  0  0  0  0  0  0  0
    8.4055    2.1572    0.0000 C   0  0  0  0  0  0  0  0  0  0  0  0
    8.7072    0.6878    0.0000 C   0  0  0  0  0  0  0  0  0  0  0  0
    7.4031   -0.0532    0.0000 S   0  0  0  0  0  0  0  0  0  0  0  0
    3.8300    1.7780    0.0000 C   0  0  0  0  0  0  0  0  0  0  0  0
    2.3606    1.4763    0.0000 C   0  0  0  0  0  0  0  0  0  0  0  0
    1.8873    0.0529    0.0000 C   0  0  0  0  0  0  0  0  0  0  0  0
    0.8913    1.1746    0.0000 C   0  0  0  0  0  0  0  0  0  0  0  0
    0.4179   -0.2488    0.0000 C   0  0  0  0  0  0  0  0  0  0  0  0
   -0.5781    0.8728    0.0000 C   0  0  0  0  0  0  0  0  0  0  0  0
   -2.0474    0.5711    0.0000 C   0  0  0  0  0  0  0  0  0  0  0  0
   -2.5207   -0.8523    0.0000 C   0  0  0  0  0  0  0  0  0  0  0  0
   -3.6285    0.1591    0.0000 C   0  0  0  0  0  0  0  0  0  0  0  0
  2  1  1  6
  2  3  1  0
  3  4  1  0
  4  5  1  0
  5  6  2  0
  5  7  1  0
  2  8  1  0
  8  9  1  6
  9 10  1  0
 11 10  1  6
 11 12  1  0
 12 13  1  1
 13 14  1  6
 13 15  1  0
 16 15  1  1
 16 17  1  0
 17 18  1  0
 18 19  1  1
 19 20  2  0
 20 21  1  0
 21 22  2  0
 22 23  1  0
 18 24  1  0
 24 25  1  0
 25 26  1  0
 26 27  1  6
 26 28  1  0
 28 29  1  6
 29 30  1  0
 30 31  1  0
 31 32  1  6
 31  8  1  0
 31 11  1  0
 28 12  1  0
 26 16  1  0
 23 19  1  0
M  END
>  <MS_ID>  (2480) 
MS2565

>  <SMILES>  (2480) 
C[C@H](CCC(=O)O)[C@H]1CC[C@H]2[C@@H]3[C@@H](O)C[C@@H]4C[C@H](c5cccs5)CC[C@]4(C)[C@H]3CC[C@]12C

>  <Structure_dimension>  (2480) 
2D

$$$$
MS2566
     RDKit          2D

 32 35  0  0  0  0  0  0  0  0999 V2000
   -3.4546   -3.6059    0.0000 C   0  0  0  0  0  0  0  0  0  0  0  0
   -2.5561   -2.4048    0.0000 C   0  0  0  0  0  0  0  0  0  0  0  0
   -3.1471   -1.0261    0.0000 C   0  0  0  0  0  0  0  0  0  0  0  0
   -4.6366   -0.8486    0.0000 C   0  0  0  0  0  0  0  0  0  0  0  0
   -5.2276    0.5301    0.0000 C   0  0  0  0  0  0  0  0  0  0  0  0
   -4.3291    1.7312    0.0000 O   0  0  0  0  0  0  0  0  0  0  0  0
   -6.7170    0.7076    0.0000 O   0  0  0  0  0  0  0  0  0  0  0  0
   -7.3080    2.0863    0.0000 C   0  0  0  0  0  0  0  0  0  0  0  0
   -8.7975    2.2638    0.0000 C   0  0  0  0  0  0  0  0  0  0  0  0
   -9.3885    3.6424    0.0000 O   0  0  0  0  0  0  0  0  0  0  0  0
   -1.0667   -2.5823    0.0000 C   0  0  0  0  0  0  0  0  0  0  0  0
   -0.3348   -3.8917    0.0000 C   0  0  0  0  0  0  0  0  0  0  0  0
    1.1366   -3.6002    0.0000 C   0  0  0  0  0  0  0  0  0  0  0  0
    1.3141   -2.1108    0.0000 C   0  0  0  0  0  0  0  0  0  0  0  0
    2.5398   -1.2460    0.0000 C   0  0  0  0  0  0  0  0  0  0  0  0
    3.9015   -1.8751    0.0000 C   0  0  0  0  0  0  0  0  0  0  0  0
    4.0375   -3.3690    0.0000 O   0  0  0  0  0  0  0  0  0  0  0  0
    5.1272   -1.0104    0.0000 C   0  0  0  0  0  0  0  0  0  0  0  0
    4.9911    0.4834    0.0000 C   0  0  0  0  0  0  0  0  0  0  0  0
    6.2168    1.3481    0.0000 C   0  0  0  0  0  0  0  0  0  0  0  0
    6.0808    2.8419    0.0000 C   0  0  0  0  0  0  0  0  0  0  0  0
    7.3064    3.7067    0.0000 O   0  0  0  0  0  0  0  0  0  0  0  0
    4.7191    3.4710    0.0000 C   0  0  0  0  0  0  0  0  0  0  0  0
    3.4934    2.6063    0.0000 C   0  0  0  0  0  0  0  0  0  0  0  0
    3.6294    1.1125    0.0000 C   0  0  0  0  0  0  0  0  0  0  0  0
    2.2677    1.7416    0.0000 C   0  0  0  0  0  0  0  0  0  0  0  0
    2.4038    0.2478    0.0000 C   0  0  0  0  0  0  0  0  0  0  0  0
    1.0421    0.8769    0.0000 C   0  0  0  0  0  0  0  0  0  0  0  0
   -0.1836    0.0122    0.0000 C   0  0  0  0  0  0  0  0  0  0  0  0
   -1.5453    0.6413    0.0000 O   0  0  0  0  0  0  0  0  0  0  0  0
   -0.0476   -1.4817    0.0000 C   0  0  0  0  0  0  0  0  0  0  0  0
   -1.4676   -0.9983    0.0000 C   0  0  0  0  0  0  0  0  0  0  0  0
  2  1  1  6
  2  3  1  0
  3  4  1  0
  4  5  1  0
  5  6  2  0
  5  7  1  0
  7  8  1  0
  8  9  1  0
  9 10  1  0
  2 11  1  0
 11 12  1  6
 12 13  1  0
 14 13  1  6
 14 15  1  0
 15 16  1  1
 16 17  1  1
 16 18  1  0
 19 18  1  1
 19 20  1  0
 20 21  1  0
 21 22  2  0
 21 23  1  0
 23 24  1  0
 24 25  1  0
 25 26  1  6
 25 27  1  0
 27 28  1  6
 28 29  1  0
 29 30  1  6
 29 31  1  0
 31 32  1  6
 31 11  1  0
 31 14  1  0
 27 15  1  0
 25 19  1  0
M  END
>  <MS_ID>  (2481) 
MS2566

>  <SMILES>  (2481) 
C[C@H](CCC(=O)OCCO)[C@H]1CC[C@H]2[C@@H]3[C@H](O)C[C@@H]4CC(=O)CC[C@]4(C)[C@H]3C[C@@H](O)[C@]12C

>  <Structure_dimension>  (2481) 
2D

$$$$
MS2567
     RDKit          2D

 29 32  0  0  0  0  0  0  0  0999 V2000
   -5.3431   -2.0646    0.0000 C   0  0  0  0  0  0  0  0  0  0  0  0
   -4.1296   -1.1829    0.0000 C   0  0  0  0  0  0  0  0  0  0  0  0
   -4.2863    0.3088    0.0000 C   0  0  0  0  0  0  0  0  0  0  0  0
   -5.6566    0.9190    0.0000 C   0  0  0  0  0  0  0  0  0  0  0  0
   -5.8134    2.4108    0.0000 C   0  0  0  0  0  0  0  0  0  0  0  0
   -4.5998    3.2924    0.0000 O   0  0  0  0  0  0  0  0  0  0  0  0
   -7.1837    3.0209    0.0000 O   0  0  0  0  0  0  0  0  0  0  0  0
   -2.7593   -1.7931    0.0000 C   0  0  0  0  0  0  0  0  0  0  0  0
   -2.4474   -3.2603    0.0000 C   0  0  0  0  0  0  0  0  0  0  0  0
   -0.9557   -3.4171    0.0000 C   0  0  0  0  0  0  0  0  0  0  0  0
   -0.3455   -2.0468    0.0000 C   0  0  0  0  0  0  0  0  0  0  0  0
    1.0811   -1.5833    0.0000 C   0  0  0  0  0  0  0  0  0  0  0  0
    2.1958   -2.5871    0.0000 C   0  0  0  0  0  0  0  0  0  0  0  0
    3.6224   -2.1236    0.0000 C   0  0  0  0  0  0  0  0  0  0  0  0
    3.9343   -0.6564    0.0000 C   0  0  0  0  0  0  0  0  0  0  0  0
    5.3609   -0.1929    0.0000 C   0  0  0  0  0  0  0  0  0  0  0  0
    5.6728    1.2743    0.0000 C   0  0  0  0  0  0  0  0  0  0  0  0
    7.0994    1.7378    0.0000 C   0  0  0  0  0  0  0  0  0  0  0  0
    8.2141    0.7341    0.0000 O   0  0  0  0  0  0  0  0  0  0  0  0
    4.5581    2.2781    0.0000 C   0  0  0  0  0  0  0  0  0  0  0  0
    3.1315    1.8146    0.0000 C   0  0  0  0  0  0  0  0  0  0  0  0
    2.8196    0.3474    0.0000 C   0  0  0  0  0  0  0  0  0  0  0  0
    1.7049    1.3511    0.0000 C   0  0  0  0  0  0  0  0  0  0  0  0
    1.3930   -0.1161    0.0000 C   0  0  0  0  0  0  0  0  0  0  0  0
    0.2783    0.8876    0.0000 C   0  0  0  0  0  0  0  0  0  0  0  0
   -1.1483    0.4241    0.0000 C   0  0  0  0  0  0  0  0  0  0  0  0
   -2.2630    1.4278    0.0000 O   0  0  0  0  0  0  0  0  0  0  0  0
   -1.4602   -1.0431    0.0000 C   0  0  0  0  0  0  0  0  0  0  0  0
   -2.6737   -0.1614    0.0000 C   0  0  0  0  0  0  0  0  0  0  0  0
  2  1  1  6
  2  3  1  0
  3  4  1  0
  4  5  1  0
  5  6  2  0
  5  7  1  0
  2  8  1  0
  8  9  1  6
  9 10  1  0
 11 10  1  6
 11 12  1  0
 12 13  1  1
 13 14  1  0
 15 14  1  1
 15 16  1  0
 16 17  1  0
 17 18  1  6
 18 19  1  0
 17 20  1  0
 20 21  1  0
 21 22  1  0
 22 23  1  6
 22 24  1  0
 24 25  1  6
 25 26  1  0
 26 27  1  1
 26 28  1  0
 28 29  1  6
 28  8  1  0
 28 11  1  0
 24 12  1  0
 22 15  1  0
M  END
>  <MS_ID>  (2482) 
MS2567

>  <SMILES>  (2482) 
C[C@H](CCC(=O)O)[C@H]1CC[C@H]2[C@@H]3CC[C@@H]4C[C@@H](CO)CC[C@]4(C)[C@H]3C[C@H](O)[C@]12C

>  <Structure_dimension>  (2482) 
2D

$$$$
MS2568
     RDKit          2D

 32 35  0  0  0  0  0  0  0  0999 V2000
   -8.2213    4.0981    0.0000 C   0  0  0  0  0  0  0  0  0  0  0  0
   -8.0101    2.6131    0.0000 O   0  0  0  0  0  0  0  0  0  0  0  0
   -6.6185    2.0534    0.0000 C   0  0  0  0  0  0  0  0  0  0  0  0
   -5.4379    2.9788    0.0000 O   0  0  0  0  0  0  0  0  0  0  0  0
   -6.4073    0.5683    0.0000 C   0  0  0  0  0  0  0  0  0  0  0  0
   -5.0156    0.0086    0.0000 C   0  0  0  0  0  0  0  0  0  0  0  0
   -4.8045   -1.4764    0.0000 C   0  0  0  0  0  0  0  0  0  0  0  0
   -5.9850   -2.4018    0.0000 C   0  0  0  0  0  0  0  0  0  0  0  0
   -3.4128   -2.0361    0.0000 C   0  0  0  0  0  0  0  0  0  0  0  0
   -3.0476   -3.4909    0.0000 C   0  0  0  0  0  0  0  0  0  0  0  0
   -1.5511   -3.5932    0.0000 C   0  0  0  0  0  0  0  0  0  0  0  0
   -0.9914   -2.2015    0.0000 C   0  0  0  0  0  0  0  0  0  0  0  0
    0.4173   -1.6862    0.0000 C   0  0  0  0  0  0  0  0  0  0  0  0
    1.5679   -2.6485    0.0000 C   0  0  0  0  0  0  0  0  0  0  0  0
    2.9766   -2.1332    0.0000 C   0  0  0  0  0  0  0  0  0  0  0  0
    3.2347   -0.6556    0.0000 C   0  0  0  0  0  0  0  0  0  0  0  0
    4.6434   -0.1403    0.0000 C   0  0  0  0  0  0  0  0  0  0  0  0
    4.9015    1.3373    0.0000 C   0  0  0  0  0  0  0  0  0  0  0  0
    6.3102    1.8526    0.0000 N   0  0  0  0  0  0  0  0  0  0  0  0
    7.4609    0.8903    0.0000 C   0  0  0  0  0  0  0  0  0  0  0  0
    7.2028   -0.5874    0.0000 O   0  0  0  0  0  0  0  0  0  0  0  0
    8.8696    1.4056    0.0000 O   0  0  0  0  0  0  0  0  0  0  0  0
   10.0202    0.4432    0.0000 C   0  0  0  0  0  0  0  0  0  0  0  0
    3.7509    2.2996    0.0000 C   0  0  0  0  0  0  0  0  0  0  0  0
    2.3422    1.7843    0.0000 C   0  0  0  0  0  0  0  0  0  0  0  0
    2.0841    0.3067    0.0000 C   0  0  0  0  0  0  0  0  0  0  0  0
    0.9335    1.2691    0.0000 C   0  0  0  0  0  0  0  0  0  0  0  0
    0.6754   -0.2086    0.0000 C   0  0  0  0  0  0  0  0  0  0  0  0
   -0.4752    0.7538    0.0000 C   0  0  0  0  0  0  0  0  0  0  0  0
   -1.8839    0.2385    0.0000 C   0  0  0  0  0  0  0  0  0  0  0  0
   -2.1420   -1.2392    0.0000 C   0  0  0  0  0  0  0  0  0  0  0  0
   -3.3869   -0.4024    0.0000 C   0  0  0  0  0  0  0  0  0  0  0  0
  1  2  1  0
  2  3  1  0
  3  4  2  0
  3  5  1  0
  5  6  1  0
  6  7  1  0
  7  8  1  6
  7  9  1  0
  9 10  1  6
 10 11  1  0
 12 11  1  6
 12 13  1  0
 13 14  1  1
 14 15  1  0
 16 15  1  1
 16 17  1  0
 17 18  1  0
 18 19  1  1
 19 20  1  0
 20 21  2  0
 20 22  1  0
 22 23  1  0
 18 24  1  0
 24 25  1  0
 25 26  1  0
 26 27  1  6
 26 28  1  0
 28 29  1  6
 29 30  1  0
 30 31  1  0
 31 32  1  6
 31  9  1  0
 31 12  1  0
 28 13  1  0
 26 16  1  0
M  END
>  <MS_ID>  (2483) 
MS2568

>  <SMILES>  (2483) 
COC(=O)CC[C@@H](C)[C@H]1CC[C@H]2[C@@H]3CC[C@@H]4C[C@H](NC(=O)OC)CC[C@]4(C)[C@H]3CC[C@]12C

>  <Structure_dimension>  (2483) 
2D

$$$$
MS2569
     RDKit          2D

 31 34  0  0  0  0  0  0  0  0999 V2000
   -4.8398   -2.4224    0.0000 C   0  0  0  0  0  0  0  0  0  0  0  0
   -3.6593   -1.4969    0.0000 C   0  0  0  0  0  0  0  0  0  0  0  0
   -3.8704   -0.0119    0.0000 C   0  0  0  0  0  0  0  0  0  0  0  0
   -5.2621    0.5478    0.0000 C   0  0  0  0  0  0  0  0  0  0  0  0
   -5.4733    2.0328    0.0000 C   0  0  0  0  0  0  0  0  0  0  0  0
   -4.2928    2.9582    0.0000 O   0  0  0  0  0  0  0  0  0  0  0  0
   -6.8650    2.5924    0.0000 O   0  0  0  0  0  0  0  0  0  0  0  0
   -2.2676   -2.0566    0.0000 C   0  0  0  0  0  0  0  0  0  0  0  0
   -1.9023   -3.5114    0.0000 C   0  0  0  0  0  0  0  0  0  0  0  0
   -0.4058   -3.6136    0.0000 C   0  0  0  0  0  0  0  0  0  0  0  0
    0.1538   -2.2219    0.0000 C   0  0  0  0  0  0  0  0  0  0  0  0
    1.5625   -1.7066    0.0000 C   0  0  0  0  0  0  0  0  0  0  0  0
    2.7132   -2.6689    0.0000 C   0  0  0  0  0  0  0  0  0  0  0  0
    4.1219   -2.1536    0.0000 C   0  0  0  0  0  0  0  0  0  0  0  0
    4.3799   -0.6759    0.0000 C   0  0  0  0  0  0  0  0  0  0  0  0
    5.7886   -0.1606    0.0000 C   0  0  0  0  0  0  0  0  0  0  0  0
    6.0467    1.3170    0.0000 C   0  0  0  0  0  0  0  0  0  0  0  0
    7.4554    1.8324    0.0000 O   0  0  0  0  0  0  0  0  0  0  0  0
    4.8961    2.2793    0.0000 C   0  0  0  0  0  0  0  0  0  0  0  0
    3.4874    1.7640    0.0000 C   0  0  0  0  0  0  0  0  0  0  0  0
    3.2293    0.2864    0.0000 C   0  0  0  0  0  0  0  0  0  0  0  0
    2.0787    1.2487    0.0000 C   0  0  0  0  0  0  0  0  0  0  0  0
    1.8206   -0.2290    0.0000 C   0  0  0  0  0  0  0  0  0  0  0  0
    0.6700    0.7333    0.0000 C   0  0  0  0  0  0  0  0  0  0  0  0
   -0.7387    0.2180    0.0000 C   0  0  0  0  0  0  0  0  0  0  0  0
   -2.2279    0.3984    0.0000 C   0  0  0  0  0  0  0  0  0  0  0  0
   -1.0016    1.6948    0.0000 C   0  0  0  0  0  0  0  0  0  0  0  0
   -2.4120    2.2055    0.0000 O   0  0  0  0  0  0  0  0  0  0  0  0
    0.1459    2.6608    0.0000 O   0  0  0  0  0  0  0  0  0  0  0  0
   -0.9968   -1.2596    0.0000 C   0  0  0  0  0  0  0  0  0  0  0  0
   -2.3344   -0.5809    0.0000 C   0  0  0  0  0  0  0  0  0  0  0  0
  2  1  1  6
  2  3  1  0
  3  4  1  0
  4  5  1  0
  5  6  2  0
  5  7  1  0
  2  8  1  0
  8  9  1  6
  9 10  1  0
 11 10  1  6
 11 12  1  0
 12 13  1  1
 13 14  1  0
 15 14  1  1
 15 16  1  0
 16 17  1  0
 17 18  1  1
 17 19  1  0
 19 20  1  0
 20 21  1  0
 21 22  1  6
 21 23  1  0
 23 24  1  6
 24 25  1  0
 25 26  1  6
 25 27  1  0
 27 28  2  0
 27 29  1  0
 25 30  1  0
 30 31  1  6
 30  8  1  0
 30 11  1  0
 23 12  1  0
 21 15  1  0
M  END
>  <MS_ID>  (2484) 
MS2569

>  <SMILES>  (2484) 
C[C@H](CCC(=O)O)[C@H]1CC[C@H]2[C@@H]3CC[C@@H]4C[C@H](O)CC[C@]4(C)[C@H]3C[C@](C)(C(=O)O)[C@]12C

>  <Structure_dimension>  (2484) 
2D

$$$$
MS2570
     RDKit          2D

 30 33  0  0  0  0  0  0  0  0999 V2000
   -5.8176   -1.7103    0.0000 C   0  0  0  0  0  0  0  0  0  0  0  0
   -4.5630   -0.8881    0.0000 C   0  0  0  0  0  0  0  0  0  0  0  0
   -4.6476    0.6095    0.0000 C   0  0  0  0  0  0  0  0  0  0  0  0
   -5.9869    1.2849    0.0000 C   0  0  0  0  0  0  0  0  0  0  0  0
   -6.0716    2.7826    0.0000 C   0  0  0  0  0  0  0  0  0  0  0  0
   -4.8170    3.6047    0.0000 O   0  0  0  0  0  0  0  0  0  0  0  0
   -7.4109    3.4580    0.0000 O   0  0  0  0  0  0  0  0  0  0  0  0
   -3.2237   -1.5636    0.0000 C   0  0  0  0  0  0  0  0  0  0  0  0
   -2.9829   -3.0442    0.0000 C   0  0  0  0  0  0  0  0  0  0  0  0
   -1.5004   -3.2727    0.0000 C   0  0  0  0  0  0  0  0  0  0  0  0
   -0.8249   -1.9334    0.0000 C   0  0  0  0  0  0  0  0  0  0  0  0
    0.6223   -1.5392    0.0000 C   0  0  0  0  0  0  0  0  0  0  0  0
    1.6874   -2.5955    0.0000 C   0  0  0  0  0  0  0  0  0  0  0  0
    1.3051   -4.0460    0.0000 O   0  0  0  0  0  0  0  0  0  0  0  0
    3.1346   -2.2013    0.0000 C   0  0  0  0  0  0  0  0  0  0  0  0
    3.5169   -0.7508    0.0000 C   0  0  0  0  0  0  0  0  0  0  0  0
    4.9642   -0.3567    0.0000 C   0  0  0  0  0  0  0  0  0  0  0  0
    5.3464    1.0938    0.0000 C   0  0  0  0  0  0  0  0  0  0  0  0
    6.7937    1.4880    0.0000 N   0  0  0  0  0  0  0  0  0  0  0  0
    7.8587    0.4317    0.0000 C   0  0  0  0  0  0  0  0  0  0  0  0
    7.1760    2.9385    0.0000 C   0  0  0  0  0  0  0  0  0  0  0  0
    4.2814    2.1501    0.0000 C   0  0  0  0  0  0  0  0  0  0  0  0
    2.8341    1.7559    0.0000 C   0  0  0  0  0  0  0  0  0  0  0  0
    2.4519    0.3054    0.0000 C   0  0  0  0  0  0  0  0  0  0  0  0
    1.3869    1.3617    0.0000 C   0  0  0  0  0  0  0  0  0  0  0  0
    1.0046   -0.0888    0.0000 C   0  0  0  0  0  0  0  0  0  0  0  0
   -0.0604    0.9675    0.0000 C   0  0  0  0  0  0  0  0  0  0  0  0
   -1.5077    0.5733    0.0000 C   0  0  0  0  0  0  0  0  0  0  0  0
   -1.8900   -0.8771    0.0000 C   0  0  0  0  0  0  0  0  0  0  0  0
   -3.0596    0.0620    0.0000 C   0  0  0  0  0  0  0  0  0  0  0  0
  2  1  1  6
  2  3  1  0
  3  4  1  0
  4  5  1  0
  5  6  2  0
  5  7  1  0
  2  8  1  0
  8  9  1  6
  9 10  1  0
 11 10  1  6
 11 12  1  0
 12 13  1  1
 13 14  1  6
 13 15  1  0
 16 15  1  1
 16 17  1  0
 17 18  1  0
 18 19  1  6
 19 20  1  0
 19 21  1  0
 18 22  1  0
 22 23  1  0
 23 24  1  0
 24 25  1  6
 24 26  1  0
 26 27  1  6
 27 28  1  0
 28 29  1  0
 29 30  1  6
 29  8  1  0
 29 11  1  0
 26 12  1  0
 24 16  1  0
M  END
>  <MS_ID>  (2485) 
MS2570

>  <SMILES>  (2485) 
C[C@H](CCC(=O)O)[C@H]1CC[C@H]2[C@@H]3[C@@H](O)C[C@@H]4C[C@@H](N(C)C)CC[C@]4(C)[C@H]3CC[C@]12C

>  <Structure_dimension>  (2485) 
2D

$$$$
MS2571
     RDKit          2D

 39 43  0  0  0  0  0  0  0  0999 V2000
   -0.7363   -4.1828    0.0000 C   0  0  0  0  0  0  0  0  0  0  0  0
   -0.0035   -2.8740    0.0000 C   0  0  0  0  0  0  0  0  0  0  0  0
   -0.7705   -1.5849    0.0000 C   0  0  0  0  0  0  0  0  0  0  0  0
   -2.2704   -1.6047    0.0000 C   0  0  0  0  0  0  0  0  0  0  0  0
   -3.0375   -0.3157    0.0000 C   0  0  0  0  0  0  0  0  0  0  0  0
   -2.3047    0.9931    0.0000 O   0  0  0  0  0  0  0  0  0  0  0  0
   -4.5373   -0.3355    0.0000 O   0  0  0  0  0  0  0  0  0  0  0  0
   -5.3044    0.9535    0.0000 C   0  0  0  0  0  0  0  0  0  0  0  0
   -6.8043    0.9338    0.0000 C   0  0  0  0  0  0  0  0  0  0  0  0
   -7.5714    2.2228    0.0000 C   0  0  0  0  0  0  0  0  0  0  0  0
   -9.0712    2.2030    0.0000 C   0  0  0  0  0  0  0  0  0  0  0  0
   -9.8040    0.8942    0.0000 C   0  0  0  0  0  0  0  0  0  0  0  0
  -11.3039    0.8744    0.0000 N   0  0  0  0  0  0  0  0  0  0  0  0
  -12.0367   -0.4344    0.0000 O   0  0  0  0  0  0  0  0  0  0  0  0
  -12.0710    2.1634    0.0000 O   0  0  0  0  0  0  0  0  0  0  0  0
   -9.0370   -0.3949    0.0000 C   0  0  0  0  0  0  0  0  0  0  0  0
   -7.5371   -0.3751    0.0000 C   0  0  0  0  0  0  0  0  0  0  0  0
    1.4964   -2.8542    0.0000 C   0  0  0  0  0  0  0  0  0  0  0  0
    2.3940   -4.0560    0.0000 C   0  0  0  0  0  0  0  0  0  0  0  0
    3.8144   -3.5737    0.0000 C   0  0  0  0  0  0  0  0  0  0  0  0
    3.7946   -2.0738    0.0000 C   0  0  0  0  0  0  0  0  0  0  0  0
    4.8960   -1.0555    0.0000 C   0  0  0  0  0  0  0  0  0  0  0  0
    6.3285   -1.5002    0.0000 C   0  0  0  0  0  0  0  0  0  0  0  0
    6.6597   -2.9631    0.0000 O   0  0  0  0  0  0  0  0  0  0  0  0
    7.4299   -0.4818    0.0000 C   0  0  0  0  0  0  0  0  0  0  0  0
    7.0987    0.9811    0.0000 C   0  0  0  0  0  0  0  0  0  0  0  0
    8.2001    1.9995    0.0000 C   0  0  0  0  0  0  0  0  0  0  0  0
    7.8689    3.4624    0.0000 C   0  0  0  0  0  0  0  0  0  0  0  0
    8.9703    4.4807    0.0000 O   0  0  0  0  0  0  0  0  0  0  0  0
    6.4363    3.9071    0.0000 C   0  0  0  0  0  0  0  0  0  0  0  0
    5.3349    2.8888    0.0000 C   0  0  0  0  0  0  0  0  0  0  0  0
    5.6661    1.4258    0.0000 C   0  0  0  0  0  0  0  0  0  0  0  0
    4.2336    1.8705    0.0000 C   0  0  0  0  0  0  0  0  0  0  0  0
    4.5648    0.4075    0.0000 C   0  0  0  0  0  0  0  0  0  0  0  0
    3.1322    0.8522    0.0000 C   0  0  0  0  0  0  0  0  0  0  0  0
    2.0308   -0.1662    0.0000 C   0  0  0  0  0  0  0  0  0  0  0  0
    0.5982    0.2785    0.0000 O   0  0  0  0  0  0  0  0  0  0  0  0
    2.3620   -1.6291    0.0000 C   0  0  0  0  0  0  0  0  0  0  0  0
    0.8908   -1.3367    0.0000 C   0  0  0  0  0  0  0  0  0  0  0  0
  2  1  1  6
  2  3  1  0
  3  4  1  0
  4  5  1  0
  5  6  2  0
  5  7  1  0
  7  8  1  0
  8  9  1  0
  9 10  2  0
 10 11  1  0
 11 12  2  0
 12 13  1  0
 13 14  2  0
 13 15  1  0
 12 16  1  0
 16 17  2  0
  2 18  1  0
 18 19  1  6
 19 20  1  0
 21 20  1  6
 21 22  1  0
 22 23  1  1
 23 24  1  1
 23 25  1  0
 26 25  1  1
 26 27  1  0
 27 28  1  0
 28 29  1  1
 28 30  1  0
 30 31  1  0
 31 32  1  0
 32 33  1  6
 32 34  1  0
 34 35  1  6
 35 36  1  0
 36 37  1  1
 36 38  1  0
 38 39  1  6
 17  9  1  0
 38 18  1  0
 38 21  1  0
 34 22  1  0
 32 26  1  0
M  CHG  2  13   1  15  -1
M  END
>  <MS_ID>  (2486) 
MS2571

>  <SMILES>  (2486) 
C[C@H](CCC(=O)OCc1ccc([N+](=O)[O-])cc1)[C@H]1CC[C@H]2[C@@H]3[C@H](O)C[C@@H]4C[C@H](O)CC[C@]4(C)[C@H]3C[C@H](O)[C@]12C

>  <Structure_dimension>  (2486) 
2D

$$$$
MS2572
     RDKit          2D

 34 37  0  0  0  0  0  0  0  0999 V2000
   -2.9621   -2.9104    0.0000 C   0  0  0  0  0  0  0  0  0  0  0  0
   -1.8866   -1.8647    0.0000 C   0  0  0  0  0  0  0  0  0  0  0  0
   -2.2545   -0.4105    0.0000 C   0  0  0  0  0  0  0  0  0  0  0  0
   -3.6978   -0.0020    0.0000 C   0  0  0  0  0  0  0  0  0  0  0  0
   -4.0656    1.4522    0.0000 C   0  0  0  0  0  0  0  0  0  0  0  0
   -2.9901    2.4979    0.0000 O   0  0  0  0  0  0  0  0  0  0  0  0
   -5.5089    1.8608    0.0000 N   0  0  0  0  0  0  0  0  0  0  0  0
   -5.8767    3.3150    0.0000 C   0  0  0  0  0  0  0  0  0  0  0  0
   -6.5843    0.8151    0.0000 C   0  0  0  0  0  0  0  0  0  0  0  0
   -8.0276    1.2237    0.0000 C   0  0  0  0  0  0  0  0  0  0  0  0
   -9.1031    0.1780    0.0000 N   0  0  0  0  0  0  0  0  0  0  0  0
  -10.5464    0.5866    0.0000 C   0  0  0  0  0  0  0  0  0  0  0  0
   -8.7353   -1.2762    0.0000 C   0  0  0  0  0  0  0  0  0  0  0  0
   -0.4434   -2.2733    0.0000 C   0  0  0  0  0  0  0  0  0  0  0  0
    0.0745   -3.6811    0.0000 C   0  0  0  0  0  0  0  0  0  0  0  0
    1.5734   -3.6236    0.0000 C   0  0  0  0  0  0  0  0  0  0  0  0
    1.9819   -2.1803    0.0000 C   0  0  0  0  0  0  0  0  0  0  0  0
    3.3279   -1.5182    0.0000 C   0  0  0  0  0  0  0  0  0  0  0  0
    4.5743   -2.3528    0.0000 C   0  0  0  0  0  0  0  0  0  0  0  0
    5.9202   -1.6906    0.0000 C   0  0  0  0  0  0  0  0  0  0  0  0
    6.0198   -0.1939    0.0000 C   0  0  0  0  0  0  0  0  0  0  0  0
    7.3657    0.4682    0.0000 C   0  0  0  0  0  0  0  0  0  0  0  0
    7.4653    1.9649    0.0000 C   0  0  0  0  0  0  0  0  0  0  0  0
    8.8112    2.6270    0.0000 O   0  0  0  0  0  0  0  0  0  0  0  0
    6.2189    2.7994    0.0000 C   0  0  0  0  0  0  0  0  0  0  0  0
    4.8729    2.1373    0.0000 C   0  0  0  0  0  0  0  0  0  0  0  0
    4.7734    0.6406    0.0000 C   0  0  0  0  0  0  0  0  0  0  0  0
    3.5270    1.4752    0.0000 C   0  0  0  0  0  0  0  0  0  0  0  0
    3.4274   -0.0215    0.0000 C   0  0  0  0  0  0  0  0  0  0  0  0
    2.1810    0.8130    0.0000 C   0  0  0  0  0  0  0  0  0  0  0  0
    0.8351    0.1509    0.0000 C   0  0  0  0  0  0  0  0  0  0  0  0
   -0.4113    0.9855    0.0000 O   0  0  0  0  0  0  0  0  0  0  0  0
    0.7355   -1.3458    0.0000 C   0  0  0  0  0  0  0  0  0  0  0  0
   -0.5913   -0.6461    0.0000 C   0  0  0  0  0  0  0  0  0  0  0  0
  2  1  1  6
  2  3  1  0
  3  4  1  0
  4  5  1  0
  5  6  2  0
  5  7  1  0
  7  8  1  0
  7  9  1  0
  9 10  1  0
 10 11  1  0
 11 12  1  0
 11 13  1  0
  2 14  1  0
 14 15  1  6
 15 16  1  0
 17 16  1  6
 17 18  1  0
 18 19  1  1
 19 20  1  0
 21 20  1  1
 21 22  1  0
 22 23  1  0
 23 24  1  1
 23 25  1  0
 25 26  1  0
 26 27  1  0
 27 28  1  6
 27 29  1  0
 29 30  1  6
 30 31  1  0
 31 32  1  1
 31 33  1  0
 33 34  1  6
 33 14  1  0
 33 17  1  0
 29 18  1  0
 27 21  1  0
M  END
>  <MS_ID>  (2487) 
MS2572

>  <SMILES>  (2487) 
C[C@H](CCC(=O)N(C)CCN(C)C)[C@H]1CC[C@H]2[C@@H]3CC[C@@H]4C[C@H](O)CC[C@]4(C)[C@H]3C[C@H](O)[C@]12C

>  <Structure_dimension>  (2487) 
2D

$$$$
MS2573
     RDKit          2D

 31 34  0  0  0  0  0  0  0  0999 V2000
   -3.5119   -3.5779    0.0000 C   0  0  0  0  0  0  0  0  0  0  0  0
   -2.6109   -2.3787    0.0000 C   0  0  0  0  0  0  0  0  0  0  0  0
   -3.1991   -0.9988    0.0000 C   0  0  0  0  0  0  0  0  0  0  0  0
   -4.6881   -0.8181    0.0000 C   0  0  0  0  0  0  0  0  0  0  0  0
   -5.2762    0.5618    0.0000 C   0  0  0  0  0  0  0  0  0  0  0  0
   -4.3753    1.7610    0.0000 O   0  0  0  0  0  0  0  0  0  0  0  0
   -6.7653    0.7424    0.0000 N   0  0  0  0  0  0  0  0  0  0  0  0
   -7.3534    2.1223    0.0000 C   0  0  0  0  0  0  0  0  0  0  0  0
   -8.8425    2.3029    0.0000 C   0  0  0  0  0  0  0  0  0  0  0  0
   -9.4306    3.6828    0.0000 S   0  0  0  0  0  0  0  0  0  0  0  0
   -1.1219   -2.5593    0.0000 C   0  0  0  0  0  0  0  0  0  0  0  0
   -0.3927   -3.8702    0.0000 C   0  0  0  0  0  0  0  0  0  0  0  0
    1.0793   -3.5818    0.0000 C   0  0  0  0  0  0  0  0  0  0  0  0
    1.2599   -2.0927    0.0000 C   0  0  0  0  0  0  0  0  0  0  0  0
    2.4874   -1.2306    0.0000 C   0  0  0  0  0  0  0  0  0  0  0  0
    3.8478   -1.8625    0.0000 C   0  0  0  0  0  0  0  0  0  0  0  0
    3.9807   -3.3566    0.0000 O   0  0  0  0  0  0  0  0  0  0  0  0
    5.0753   -1.0003    0.0000 C   0  0  0  0  0  0  0  0  0  0  0  0
    4.9423    0.4938    0.0000 C   0  0  0  0  0  0  0  0  0  0  0  0
    6.1698    1.3559    0.0000 C   0  0  0  0  0  0  0  0  0  0  0  0
    6.0369    2.8500    0.0000 C   0  0  0  0  0  0  0  0  0  0  0  0
    7.2644    3.7122    0.0000 O   0  0  0  0  0  0  0  0  0  0  0  0
    4.6765    3.4820    0.0000 C   0  0  0  0  0  0  0  0  0  0  0  0
    3.4490    2.6198    0.0000 C   0  0  0  0  0  0  0  0  0  0  0  0
    3.5820    1.1257    0.0000 C   0  0  0  0  0  0  0  0  0  0  0  0
    2.2216    1.7576    0.0000 C   0  0  0  0  0  0  0  0  0  0  0  0
    2.3545    0.2635    0.0000 C   0  0  0  0  0  0  0  0  0  0  0  0
    0.9941    0.8955    0.0000 C   0  0  0  0  0  0  0  0  0  0  0  0
   -0.2334    0.0333    0.0000 C   0  0  0  0  0  0  0  0  0  0  0  0
   -0.1005   -1.4608    0.0000 C   0  0  0  0  0  0  0  0  0  0  0  0
   -1.5195   -0.9745    0.0000 C   0  0  0  0  0  0  0  0  0  0  0  0
  2  1  1  6
  2  3  1  0
  3  4  1  0
  4  5  1  0
  5  6  2  0
  5  7  1  0
  7  8  1  0
  8  9  1  0
  9 10  1  0
  2 11  1  0
 11 12  1  6
 12 13  1  0
 14 13  1  6
 14 15  1  0
 15 16  1  1
 16 17  1  6
 16 18  1  0
 19 18  1  1
 19 20  1  0
 20 21  1  0
 21 22  1  6
 21 23  1  0
 23 24  1  0
 24 25  1  0
 25 26  1  6
 25 27  1  0
 27 28  1  6
 28 29  1  0
 29 30  1  0
 30 31  1  6
 30 11  1  0
 30 14  1  0
 27 15  1  0
 25 19  1  0
M  END
>  <MS_ID>  (2488) 
MS2573

>  <SMILES>  (2488) 
C[C@H](CCC(=O)NCCS)[C@H]1CC[C@H]2[C@@H]3[C@@H](O)C[C@@H]4C[C@@H](O)CC[C@]4(C)[C@H]3CC[C@]12C

>  <Structure_dimension>  (2488) 
2D

$$$$
MS2574
     RDKit          2D

 30 33  0  0  0  0  0  0  0  0999 V2000
   -4.1099   -3.1124    0.0000 C   0  0  0  0  0  0  0  0  0  0  0  0
   -3.1089   -1.9953    0.0000 C   0  0  0  0  0  0  0  0  0  0  0  0
   -3.5759   -0.5698    0.0000 C   0  0  0  0  0  0  0  0  0  0  0  0
   -5.0438   -0.2615    0.0000 C   0  0  0  0  0  0  0  0  0  0  0  0
   -5.5108    1.1640    0.0000 C   0  0  0  0  0  0  0  0  0  0  0  0
   -4.5097    2.2811    0.0000 O   0  0  0  0  0  0  0  0  0  0  0  0
   -6.9787    1.4724    0.0000 C   0  0  0  0  0  0  0  0  0  0  0  0
   -7.4457    2.8978    0.0000 C   0  0  0  0  0  0  0  0  0  0  0  0
   -8.9136    3.2062    0.0000 O   0  0  0  0  0  0  0  0  0  0  0  0
   -1.6409   -2.3036    0.0000 C   0  0  0  0  0  0  0  0  0  0  0  0
   -1.0276   -3.6725    0.0000 C   0  0  0  0  0  0  0  0  0  0  0  0
    0.4638   -3.5121    0.0000 C   0  0  0  0  0  0  0  0  0  0  0  0
    0.7722   -2.0441    0.0000 C   0  0  0  0  0  0  0  0  0  0  0  0
    2.0694   -1.2910    0.0000 C   0  0  0  0  0  0  0  0  0  0  0  0
    3.3703   -2.0379    0.0000 C   0  0  0  0  0  0  0  0  0  0  0  0
    3.3739   -3.5379    0.0000 O   0  0  0  0  0  0  0  0  0  0  0  0
    4.6675   -1.2848    0.0000 C   0  0  0  0  0  0  0  0  0  0  0  0
    4.6639    0.2152    0.0000 C   0  0  0  0  0  0  0  0  0  0  0  0
    5.9611    0.9683    0.0000 C   0  0  0  0  0  0  0  0  0  0  0  0
    5.9575    2.4683    0.0000 C   0  0  0  0  0  0  0  0  0  0  0  0
    7.2548    3.2214    0.0000 O   0  0  0  0  0  0  0  0  0  0  0  0
    4.6567    3.2152    0.0000 C   0  0  0  0  0  0  0  0  0  0  0  0
    3.3595    2.4621    0.0000 C   0  0  0  0  0  0  0  0  0  0  0  0
    3.3631    0.9621    0.0000 C   0  0  0  0  0  0  0  0  0  0  0  0
    2.0622    1.7090    0.0000 C   0  0  0  0  0  0  0  0  0  0  0  0
    2.0658    0.2090    0.0000 C   0  0  0  0  0  0  0  0  0  0  0  0
    0.7650    0.9559    0.0000 C   0  0  0  0  0  0  0  0  0  0  0  0
   -0.5322    0.2027    0.0000 C   0  0  0  0  0  0  0  0  0  0  0  0
   -0.5286   -1.2973    0.0000 C   0  0  0  0  0  0  0  0  0  0  0  0
   -1.9004   -0.6904    0.0000 C   0  0  0  0  0  0  0  0  0  0  0  0
  2  1  1  6
  2  3  1  0
  3  4  1  0
  4  5  1  0
  5  6  2  0
  5  7  1  0
  7  8  1  0
  8  9  1  0
  2 10  1  0
 10 11  1  6
 11 12  1  0
 13 12  1  6
 13 14  1  0
 14 15  1  1
 15 16  1  6
 15 17  1  0
 18 17  1  1
 18 19  1  0
 19 20  1  0
 20 21  2  0
 20 22  1  0
 22 23  1  0
 23 24  1  0
 24 25  1  6
 24 26  1  0
 26 27  1  6
 27 28  1  0
 28 29  1  0
 29 30  1  6
 29 10  1  0
 29 13  1  0
 26 14  1  0
 24 18  1  0
M  END
>  <MS_ID>  (2489) 
MS2574

>  <SMILES>  (2489) 
C[C@H](CCC(=O)CCO)[C@H]1CC[C@H]2[C@@H]3[C@@H](O)C[C@@H]4CC(=O)CC[C@]4(C)[C@H]3CC[C@]12C

>  <Structure_dimension>  (2489) 
2D

$$$$
MS2575
     RDKit          2D

 33 36  0  0  0  0  0  0  0  0999 V2000
   -3.4872   -3.6667    0.0000 C   0  0  0  0  0  0  0  0  0  0  0  0
   -2.6153   -2.4461    0.0000 C   0  0  0  0  0  0  0  0  0  0  0  0
   -3.2364   -1.0808    0.0000 C   0  0  0  0  0  0  0  0  0  0  0  0
   -4.7294   -0.9360    0.0000 C   0  0  0  0  0  0  0  0  0  0  0  0
   -5.3505    0.4294    0.0000 C   0  0  0  0  0  0  0  0  0  0  0  0
   -4.4787    1.6500    0.0000 O   0  0  0  0  0  0  0  0  0  0  0  0
   -6.8435    0.5742    0.0000 O   0  0  0  0  0  0  0  0  0  0  0  0
   -7.4647    1.9396    0.0000 C   0  0  0  0  0  0  0  0  0  0  0  0
   -8.8300    1.3184    0.0000 C   0  0  0  0  0  0  0  0  0  0  0  0
   -6.0993    2.5607    0.0000 C   0  0  0  0  0  0  0  0  0  0  0  0
   -8.0858    3.3049    0.0000 C   0  0  0  0  0  0  0  0  0  0  0  0
   -1.1223   -2.5909    0.0000 C   0  0  0  0  0  0  0  0  0  0  0  0
   -0.3619   -3.8839    0.0000 C   0  0  0  0  0  0  0  0  0  0  0  0
    1.1027   -3.5602    0.0000 C   0  0  0  0  0  0  0  0  0  0  0  0
    1.2475   -2.0672    0.0000 C   0  0  0  0  0  0  0  0  0  0  0  0
    2.4539   -1.1758    0.0000 C   0  0  0  0  0  0  0  0  0  0  0  0
    3.8291   -1.7749    0.0000 C   0  0  0  0  0  0  0  0  0  0  0  0
    3.9979   -3.2654    0.0000 O   0  0  0  0  0  0  0  0  0  0  0  0
    5.0355   -0.8835    0.0000 C   0  0  0  0  0  0  0  0  0  0  0  0
    6.4107   -1.4825    0.0000 O   0  0  0  0  0  0  0  0  0  0  0  0
    4.8667    0.6070    0.0000 C   0  0  0  0  0  0  0  0  0  0  0  0
    6.0731    1.4984    0.0000 C   0  0  0  0  0  0  0  0  0  0  0  0
    5.9043    2.9889    0.0000 C   0  0  0  0  0  0  0  0  0  0  0  0
    7.1107    3.8803    0.0000 O   0  0  0  0  0  0  0  0  0  0  0  0
    4.5291    3.5880    0.0000 C   0  0  0  0  0  0  0  0  0  0  0  0
    3.3228    2.6965    0.0000 C   0  0  0  0  0  0  0  0  0  0  0  0
    3.4915    1.2061    0.0000 C   0  0  0  0  0  0  0  0  0  0  0  0
    2.1164    1.8051    0.0000 C   0  0  0  0  0  0  0  0  0  0  0  0
    2.2851    0.3147    0.0000 C   0  0  0  0  0  0  0  0  0  0  0  0
    0.9100    0.9137    0.0000 C   0  0  0  0  0  0  0  0  0  0  0  0
   -0.2964    0.0223    0.0000 C   0  0  0  0  0  0  0  0  0  0  0  0
   -0.1276   -1.4682    0.0000 C   0  0  0  0  0  0  0  0  0  0  0  0
   -1.5579   -1.0161    0.0000 C   0  0  0  0  0  0  0  0  0  0  0  0
  2  1  1  6
  2  3  1  0
  3  4  1  0
  4  5  1  0
  5  6  2  0
  5  7  1  0
  7  8  1  0
  8  9  1  0
  8 10  1  0
  8 11  1  0
  2 12  1  0
 12 13  1  6
 13 14  1  0
 15 14  1  6
 15 16  1  0
 16 17  1  1
 17 18  1  1
 17 19  1  0
 19 20  1  1
 19 21  1  0
 21 22  1  1
 22 23  1  0
 23 24  1  1
 23 25  1  0
 25 26  1  0
 26 27  1  0
 27 28  1  6
 27 29  1  0
 29 30  1  6
 30 31  1  0
 31 32  1  0
 32 33  1  6
 32 12  1  0
 32 15  1  0
 29 16  1  0
 27 21  1  0
M  END
>  <MS_ID>  (2490) 
MS2575

>  <SMILES>  (2490) 
C[C@H](CCC(=O)OC(C)(C)C)[C@H]1CC[C@H]2[C@@H]3[C@H](O)[C@H](O)[C@@H]4C[C@H](O)CC[C@]4(C)[C@H]3CC[C@]12C

>  <Structure_dimension>  (2490) 
2D

$$$$
MS2576
     RDKit          2D

 29 32  0  0  0  0  0  0  0  0999 V2000
   -2.1385    1.0819    0.0000 C   0  0  0  0  0  0  0  0  0  0  0  0
   -2.8922   -0.2149    0.0000 C   0  0  0  0  0  0  0  0  0  0  0  0
   -4.3805   -0.0278    0.0000 C   0  0  0  0  0  0  0  0  0  0  0  0
   -4.9625    1.3547    0.0000 C   0  0  0  0  0  0  0  0  0  0  0  0
   -6.4508    1.5418    0.0000 C   0  0  0  0  0  0  0  0  0  0  0  0
   -7.3570    0.3465    0.0000 O   0  0  0  0  0  0  0  0  0  0  0  0
   -7.0329    2.9243    0.0000 O   0  0  0  0  0  0  0  0  0  0  0  0
   -2.3101   -1.5974    0.0000 C   0  0  0  0  0  0  0  0  0  0  0  0
   -3.7459   -2.0318    0.0000 C   0  0  0  0  0  0  0  0  0  0  0  0
   -2.0282   -3.0707    0.0000 C   0  0  0  0  0  0  0  0  0  0  0  0
   -0.5400   -3.2578    0.0000 C   0  0  0  0  0  0  0  0  0  0  0  0
    0.0979   -1.9002    0.0000 C   0  0  0  0  0  0  0  0  0  0  0  0
    1.5337   -1.4659    0.0000 C   0  0  0  0  0  0  0  0  0  0  0  0
    2.6277   -2.4920    0.0000 C   0  0  0  0  0  0  0  0  0  0  0  0
    4.0634   -2.0577    0.0000 C   0  0  0  0  0  0  0  0  0  0  0  0
    4.4051   -0.5971    0.0000 C   0  0  0  0  0  0  0  0  0  0  0  0
    5.8409   -0.1628    0.0000 C   0  0  0  0  0  0  0  0  0  0  0  0
    6.1826    1.2978    0.0000 C   0  0  0  0  0  0  0  0  0  0  0  0
    7.6183    1.7322    0.0000 O   0  0  0  0  0  0  0  0  0  0  0  0
    5.0885    2.3240    0.0000 C   0  0  0  0  0  0  0  0  0  0  0  0
    3.6528    1.8896    0.0000 C   0  0  0  0  0  0  0  0  0  0  0  0
    3.3111    0.4291    0.0000 C   0  0  0  0  0  0  0  0  0  0  0  0
    2.2171    1.4553    0.0000 C   0  0  0  0  0  0  0  0  0  0  0  0
    1.8754   -0.0053    0.0000 C   0  0  0  0  0  0  0  0  0  0  0  0
    0.7813    1.0209    0.0000 C   0  0  0  0  0  0  0  0  0  0  0  0
   -0.6544    0.5865    0.0000 C   0  0  0  0  0  0  0  0  0  0  0  0
   -1.6152    1.7384    0.0000 O   0  0  0  0  0  0  0  0  0  0  0  0
   -0.9961   -0.8740    0.0000 C   0  0  0  0  0  0  0  0  0  0  0  0
   -2.1914    0.0322    0.0000 C   0  0  0  0  0  0  0  0  0  0  0  0
  2  1  1  1
  2  3  1  0
  3  4  1  0
  4  5  1  0
  5  6  2  0
  5  7  1  0
  2  8  1  0
  8  9  1  1
  8 10  1  0
 10 11  1  0
 12 11  1  6
 12 13  1  0
 13 14  1  1
 14 15  1  0
 16 15  1  1
 16 17  1  0
 17 18  1  0
 18 19  1  1
 18 20  1  0
 20 21  1  0
 21 22  1  0
 22 23  1  6
 22 24  1  0
 24 25  1  6
 25 26  1  0
 26 27  1  1
 26 28  1  0
 28 29  1  6
 28  8  1  0
 28 12  1  0
 24 13  1  0
 22 16  1  0
M  END
>  <MS_ID>  (2491) 
MS2576

>  <SMILES>  (2491) 
C[C@H](CCC(=O)O)[C@@]1(C)CC[C@H]2[C@@H]3CC[C@@H]4C[C@H](O)CC[C@]4(C)[C@H]3C[C@H](O)[C@@]21C

>  <Structure_dimension>  (2491) 
2D

$$$$
MS2577
     RDKit          2D

 29 32  0  0  0  0  0  0  0  0999 V2000
   -7.2216    3.6536    0.0000 C   0  0  0  0  0  0  0  0  0  0  0  0
   -6.9111    2.1861    0.0000 O   0  0  0  0  0  0  0  0  0  0  0  0
   -5.4850    1.7213    0.0000 C   0  0  0  0  0  0  0  0  0  0  0  0
   -4.3693    2.7239    0.0000 O   0  0  0  0  0  0  0  0  0  0  0  0
   -5.1744    0.2538    0.0000 C   0  0  0  0  0  0  0  0  0  0  0  0
   -3.7483   -0.2111    0.0000 C   0  0  0  0  0  0  0  0  0  0  0  0
   -3.4378   -1.6786    0.0000 C   0  0  0  0  0  0  0  0  0  0  0  0
   -4.5534   -2.6812    0.0000 C   0  0  0  0  0  0  0  0  0  0  0  0
   -2.0116   -2.1434    0.0000 C   0  0  0  0  0  0  0  0  0  0  0  0
   -1.5494   -3.5704    0.0000 C   0  0  0  0  0  0  0  0  0  0  0  0
   -0.0494   -3.5718    0.0000 C   0  0  0  0  0  0  0  0  0  0  0  0
    0.4155   -2.1456    0.0000 C   0  0  0  0  0  0  0  0  0  0  0  0
    1.7863   -1.5368    0.0000 C   0  0  0  0  0  0  0  0  0  0  0  0
    2.9990   -2.4196    0.0000 C   0  0  0  0  0  0  0  0  0  0  0  0
    4.3699   -1.8107    0.0000 C   0  0  0  0  0  0  0  0  0  0  0  0
    4.5281   -0.3191    0.0000 C   0  0  0  0  0  0  0  0  0  0  0  0
    5.8990    0.2898    0.0000 C   0  0  0  0  0  0  0  0  0  0  0  0
    6.0571    1.7814    0.0000 C   0  0  0  0  0  0  0  0  0  0  0  0
    7.4280    2.3902    0.0000 O   0  0  0  0  0  0  0  0  0  0  0  0
    4.8444    2.6642    0.0000 C   0  0  0  0  0  0  0  0  0  0  0  0
    3.4735    2.0553    0.0000 C   0  0  0  0  0  0  0  0  0  0  0  0
    3.3154    0.5637    0.0000 C   0  0  0  0  0  0  0  0  0  0  0  0
    2.1026    1.4465    0.0000 C   0  0  0  0  0  0  0  0  0  0  0  0
    1.9445   -0.0451    0.0000 C   0  0  0  0  0  0  0  0  0  0  0  0
    0.7318    0.8376    0.0000 C   0  0  0  0  0  0  0  0  0  0  0  0
   -0.6391    0.2288    0.0000 C   0  0  0  0  0  0  0  0  0  0  0  0
   -1.8518    1.1116    0.0000 O   0  0  0  0  0  0  0  0  0  0  0  0
   -0.7973   -1.2628    0.0000 C   0  0  0  0  0  0  0  0  0  0  0  0
   -2.0956   -0.5116    0.0000 C   0  0  0  0  0  0  0  0  0  0  0  0
  1  2  1  0
  2  3  1  0
  3  4  2  0
  3  5  1  0
  5  6  1  0
  6  7  1  0
  7  8  1  6
  7  9  1  0
  9 10  1  6
 10 11  1  0
 12 11  1  6
 12 13  1  0
 13 14  1  1
 14 15  1  0
 16 15  1  1
 16 17  1  0
 17 18  1  0
 18 19  1  6
 18 20  1  0
 20 21  1  0
 21 22  1  0
 22 23  1  6
 22 24  1  0
 24 25  1  6
 25 26  1  0
 26 27  1  1
 26 28  1  0
 28 29  1  6
 28  9  1  0
 28 12  1  0
 24 13  1  0
 22 16  1  0
M  END
>  <MS_ID>  (2492) 
MS2577

>  <SMILES>  (2492) 
COC(=O)CC[C@@H](C)[C@H]1CC[C@H]2[C@@H]3CC[C@@H]4C[C@@H](O)CC[C@]4(C)[C@H]3C[C@H](O)[C@]12C

>  <Structure_dimension>  (2492) 
2D

$$$$
MS2578
     RDKit          2D

 32 36  0  0  0  0  0  0  0  0999 V2000
   -3.4100   -3.2672    0.0000 C   0  0  0  0  0  0  0  0  0  0  0  0
   -2.4025   -2.1559    0.0000 C   0  0  0  0  0  0  0  0  0  0  0  0
   -2.8612   -0.7278    0.0000 C   0  0  0  0  0  0  0  0  0  0  0  0
   -4.3273   -0.4109    0.0000 C   0  0  0  0  0  0  0  0  0  0  0  0
   -4.7860    1.0172    0.0000 C   0  0  0  0  0  0  0  0  0  0  0  0
   -3.7785    2.1285    0.0000 O   0  0  0  0  0  0  0  0  0  0  0  0
   -6.2522    1.3341    0.0000 C   0  0  0  0  0  0  0  0  0  0  0  0
   -7.3703    0.3342    0.0000 C   0  0  0  0  0  0  0  0  0  0  0  0
   -8.6668    1.0886    0.0000 C   0  0  0  0  0  0  0  0  0  0  0  0
   -8.3499    2.5547    0.0000 C   0  0  0  0  0  0  0  0  0  0  0  0
   -6.8576    2.7065    0.0000 S   0  0  0  0  0  0  0  0  0  0  0  0
   -0.9363   -2.4728    0.0000 C   0  0  0  0  0  0  0  0  0  0  0  0
   -0.3309   -3.8451    0.0000 C   0  0  0  0  0  0  0  0  0  0  0  0
    1.1614   -3.6934    0.0000 C   0  0  0  0  0  0  0  0  0  0  0  0
    1.4783   -2.2273    0.0000 C   0  0  0  0  0  0  0  0  0  0  0  0
    2.7798   -1.4817    0.0000 C   0  0  0  0  0  0  0  0  0  0  0  0
    4.0763   -2.2361    0.0000 C   0  0  0  0  0  0  0  0  0  0  0  0
    5.3779   -1.4905    0.0000 C   0  0  0  0  0  0  0  0  0  0  0  0
    5.3830    0.0095    0.0000 C   0  0  0  0  0  0  0  0  0  0  0  0
    6.6846    0.7551    0.0000 C   0  0  0  0  0  0  0  0  0  0  0  0
    6.6897    2.2551    0.0000 C   0  0  0  0  0  0  0  0  0  0  0  0
    7.9912    3.0007    0.0000 O   0  0  0  0  0  0  0  0  0  0  0  0
    5.3932    3.0095    0.0000 C   0  0  0  0  0  0  0  0  0  0  0  0
    4.0916    2.2639    0.0000 C   0  0  0  0  0  0  0  0  0  0  0  0
    4.0865    0.7639    0.0000 C   0  0  0  0  0  0  0  0  0  0  0  0
    2.7900    1.5183    0.0000 C   0  0  0  0  0  0  0  0  0  0  0  0
    2.7849    0.0183    0.0000 C   0  0  0  0  0  0  0  0  0  0  0  0
    1.4884    0.7727    0.0000 C   0  0  0  0  0  0  0  0  0  0  0  0
    0.1869    0.0271    0.0000 C   0  0  0  0  0  0  0  0  0  0  0  0
   -1.1096    0.7815    0.0000 O   0  0  0  0  0  0  0  0  0  0  0  0
    0.1818   -1.4728    0.0000 C   0  0  0  0  0  0  0  0  0  0  0  0
   -1.1865   -0.8581    0.0000 C   0  0  0  0  0  0  0  0  0  0  0  0
  2  1  1  6
  2  3  1  0
  3  4  1  0
  4  5  1  0
  5  6  2  0
  5  7  1  0
  7  8  2  0
  8  9  1  0
  9 10  2  0
 10 11  1  0
  2 12  1  0
 12 13  1  6
 13 14  1  0
 15 14  1  6
 15 16  1  0
 16 17  1  1
 17 18  1  0
 19 18  1  1
 19 20  1  0
 20 21  1  0
 21 22  1  1
 21 23  1  0
 23 24  1  0
 24 25  1  0
 25 26  1  6
 25 27  1  0
 27 28  1  6
 28 29  1  0
 29 30  1  1
 29 31  1  0
 31 32  1  6
 11  7  1  0
 31 12  1  0
 31 15  1  0
 27 16  1  0
 25 19  1  0
M  END
>  <MS_ID>  (2493) 
MS2578

>  <SMILES>  (2493) 
C[C@H](CCC(=O)c1cccs1)[C@H]1CC[C@H]2[C@@H]3CC[C@@H]4C[C@H](O)CC[C@]4(C)[C@H]3C[C@H](O)[C@]12C

>  <Structure_dimension>  (2493) 
2D

$$$$
MS2579
     RDKit          2D

 39 43  0  0  0  0  0  0  0  0999 V2000
   -0.7363   -4.1828    0.0000 C   0  0  0  0  0  0  0  0  0  0  0  0
   -0.0035   -2.8740    0.0000 C   0  0  0  0  0  0  0  0  0  0  0  0
   -0.7705   -1.5849    0.0000 C   0  0  0  0  0  0  0  0  0  0  0  0
   -2.2704   -1.6047    0.0000 C   0  0  0  0  0  0  0  0  0  0  0  0
   -3.0375   -0.3157    0.0000 C   0  0  0  0  0  0  0  0  0  0  0  0
   -2.3047    0.9931    0.0000 O   0  0  0  0  0  0  0  0  0  0  0  0
   -4.5373   -0.3355    0.0000 O   0  0  0  0  0  0  0  0  0  0  0  0
   -5.3044    0.9535    0.0000 C   0  0  0  0  0  0  0  0  0  0  0  0
   -6.8043    0.9338    0.0000 C   0  0  0  0  0  0  0  0  0  0  0  0
   -7.5714    2.2228    0.0000 C   0  0  0  0  0  0  0  0  0  0  0  0
   -9.0712    2.2030    0.0000 C   0  0  0  0  0  0  0  0  0  0  0  0
   -9.8040    0.8942    0.0000 C   0  0  0  0  0  0  0  0  0  0  0  0
  -11.3039    0.8744    0.0000 C   0  0  0  0  0  0  0  0  0  0  0  0
  -12.0367   -0.4344    0.0000 O   0  0  0  0  0  0  0  0  0  0  0  0
  -12.0710    2.1634    0.0000 O   0  0  0  0  0  0  0  0  0  0  0  0
   -9.0370   -0.3949    0.0000 C   0  0  0  0  0  0  0  0  0  0  0  0
   -7.5371   -0.3751    0.0000 C   0  0  0  0  0  0  0  0  0  0  0  0
    1.4964   -2.8542    0.0000 C   0  0  0  0  0  0  0  0  0  0  0  0
    2.3940   -4.0560    0.0000 C   0  0  0  0  0  0  0  0  0  0  0  0
    3.8144   -3.5737    0.0000 C   0  0  0  0  0  0  0  0  0  0  0  0
    3.7946   -2.0738    0.0000 C   0  0  0  0  0  0  0  0  0  0  0  0
    4.8960   -1.0555    0.0000 C   0  0  0  0  0  0  0  0  0  0  0  0
    6.3285   -1.5002    0.0000 C   0  0  0  0  0  0  0  0  0  0  0  0
    6.6597   -2.9631    0.0000 O   0  0  0  0  0  0  0  0  0  0  0  0
    7.4299   -0.4818    0.0000 C   0  0  0  0  0  0  0  0  0  0  0  0
    7.0987    0.9811    0.0000 C   0  0  0  0  0  0  0  0  0  0  0  0
    8.2001    1.9995    0.0000 C   0  0  0  0  0  0  0  0  0  0  0  0
    7.8689    3.4624    0.0000 C   0  0  0  0  0  0  0  0  0  0  0  0
    8.9703    4.4807    0.0000 O   0  0  0  0  0  0  0  0  0  0  0  0
    6.4363    3.9071    0.0000 C   0  0  0  0  0  0  0  0  0  0  0  0
    5.3349    2.8888    0.0000 C   0  0  0  0  0  0  0  0  0  0  0  0
    5.6661    1.4258    0.0000 C   0  0  0  0  0  0  0  0  0  0  0  0
    4.2336    1.8705    0.0000 C   0  0  0  0  0  0  0  0  0  0  0  0
    4.5648    0.4075    0.0000 C   0  0  0  0  0  0  0  0  0  0  0  0
    3.1322    0.8522    0.0000 C   0  0  0  0  0  0  0  0  0  0  0  0
    2.0308   -0.1662    0.0000 C   0  0  0  0  0  0  0  0  0  0  0  0
    0.5982    0.2785    0.0000 O   0  0  0  0  0  0  0  0  0  0  0  0
    2.3620   -1.6291    0.0000 C   0  0  0  0  0  0  0  0  0  0  0  0
    0.8908   -1.3367    0.0000 C   0  0  0  0  0  0  0  0  0  0  0  0
  2  1  1  6
  2  3  1  0
  3  4  1  0
  4  5  1  0
  5  6  2  0
  5  7  1  0
  7  8  1  0
  8  9  1  0
  9 10  2  0
 10 11  1  0
 11 12  2  0
 12 13  1  0
 13 14  2  0
 13 15  1  0
 12 16  1  0
 16 17  2  0
  2 18  1  0
 18 19  1  6
 19 20  1  0
 21 20  1  6
 21 22  1  0
 22 23  1  1
 23 24  1  1
 23 25  1  0
 26 25  1  1
 26 27  1  0
 27 28  1  0
 28 29  1  1
 28 30  1  0
 30 31  1  0
 31 32  1  0
 32 33  1  6
 32 34  1  0
 34 35  1  6
 35 36  1  0
 36 37  1  1
 36 38  1  0
 38 39  1  6
 17  9  1  0
 38 18  1  0
 38 21  1  0
 34 22  1  0
 32 26  1  0
M  END
>  <MS_ID>  (2494) 
MS2579

>  <SMILES>  (2494) 
C[C@H](CCC(=O)OCc1ccc(C(=O)O)cc1)[C@H]1CC[C@H]2[C@@H]3[C@H](O)C[C@@H]4C[C@H](O)CC[C@]4(C)[C@H]3C[C@H](O)[C@]12C

>  <Structure_dimension>  (2494) 
2D

$$$$
MS2580
     RDKit          2D

 32 35  0  0  0  0  0  0  0  0999 V2000
   -2.9090   -3.9078    0.0000 C   0  0  0  0  0  0  0  0  0  0  0  0
   -2.0926   -2.6494    0.0000 C   0  0  0  0  0  0  0  0  0  0  0  0
   -2.7741   -1.3132    0.0000 C   0  0  0  0  0  0  0  0  0  0  0  0
   -4.2721   -1.2353    0.0000 C   0  0  0  0  0  0  0  0  0  0  0  0
   -4.9536    0.1009    0.0000 C   0  0  0  0  0  0  0  0  0  0  0  0
   -4.1372    1.3592    0.0000 O   0  0  0  0  0  0  0  0  0  0  0  0
   -6.4516    0.1788    0.0000 N   0  0  0  0  0  0  0  0  0  0  0  0
   -7.1332    1.5150    0.0000 C   0  0  0  0  0  0  0  0  0  0  0  0
   -8.6311    1.5929    0.0000 C   0  0  0  0  0  0  0  0  0  0  0  0
   -9.3127    2.9291    0.0000 C   0  0  0  0  0  0  0  0  0  0  0  0
  -10.8107    3.0070    0.0000 O   0  0  0  0  0  0  0  0  0  0  0  0
   -0.5946   -2.7273    0.0000 C   0  0  0  0  0  0  0  0  0  0  0  0
    0.2229   -3.9850    0.0000 C   0  0  0  0  0  0  0  0  0  0  0  0
    1.6716   -3.5962    0.0000 C   0  0  0  0  0  0  0  0  0  0  0  0
    1.7495   -2.0982    0.0000 C   0  0  0  0  0  0  0  0  0  0  0  0
    2.9148   -1.1537    0.0000 C   0  0  0  0  0  0  0  0  0  0  0  0
    4.3154   -1.6907    0.0000 C   0  0  0  0  0  0  0  0  0  0  0  0
    4.5507   -3.1721    0.0000 O   0  0  0  0  0  0  0  0  0  0  0  0
    5.4807   -0.7462    0.0000 C   0  0  0  0  0  0  0  0  0  0  0  0
    5.2455    0.7352    0.0000 C   0  0  0  0  0  0  0  0  0  0  0  0
    6.4108    1.6797    0.0000 C   0  0  0  0  0  0  0  0  0  0  0  0
    6.1755    3.1611    0.0000 C   0  0  0  0  0  0  0  0  0  0  0  0
    7.3408    4.1056    0.0000 O   0  0  0  0  0  0  0  0  0  0  0  0
    4.7749    3.6981    0.0000 C   0  0  0  0  0  0  0  0  0  0  0  0
    3.6096    2.7536    0.0000 C   0  0  0  0  0  0  0  0  0  0  0  0
    3.8449    1.2722    0.0000 C   0  0  0  0  0  0  0  0  0  0  0  0
    2.4443    1.8091    0.0000 C   0  0  0  0  0  0  0  0  0  0  0  0
    2.6795    0.3277    0.0000 C   0  0  0  0  0  0  0  0  0  0  0  0
    1.2789    0.8647    0.0000 C   0  0  0  0  0  0  0  0  0  0  0  0
    0.1136   -0.0798    0.0000 C   0  0  0  0  0  0  0  0  0  0  0  0
    0.3489   -1.5612    0.0000 C   0  0  0  0  0  0  0  0  0  0  0  0
   -1.1002   -1.1736    0.0000 C   0  0  0  0  0  0  0  0  0  0  0  0
  2  1  1  6
  2  3  1  0
  3  4  1  0
  4  5  1  0
  5  6  2  0
  5  7  1  0
  7  8  1  0
  8  9  1  0
  9 10  1  0
 10 11  2  0
  2 12  1  0
 12 13  1  6
 13 14  1  0
 15 14  1  6
 15 16  1  0
 16 17  1  1
 17 18  1  1
 17 19  1  0
 20 19  1  1
 20 21  1  0
 21 22  1  0
 22 23  1  1
 22 24  1  0
 24 25  1  0
 25 26  1  0
 26 27  1  6
 26 28  1  0
 28 29  1  6
 29 30  1  0
 30 31  1  0
 31 32  1  6
 31 12  1  0
 31 15  1  0
 28 16  1  0
 26 20  1  0
M  END
>  <MS_ID>  (2495) 
MS2580

>  <SMILES>  (2495) 
C[C@H](CCC(=O)NCCC=O)[C@H]1CC[C@H]2[C@@H]3[C@H](O)C[C@@H]4C[C@H](O)CC[C@]4(C)[C@H]3CC[C@]12C

>  <Structure_dimension>  (2495) 
2D

$$$$
MS2581
     RDKit          2D

 36 39  0  0  0  0  0  0  0  0999 V2000
   -5.2428   -2.7496    0.0000 C   0  0  0  0  0  0  0  0  0  0  0  0
   -4.1158   -1.7597    0.0000 C   0  0  0  0  0  0  0  0  0  0  0  0
   -4.4096   -0.2887    0.0000 C   0  0  0  0  0  0  0  0  0  0  0  0
   -5.8304    0.1923    0.0000 C   0  0  0  0  0  0  0  0  0  0  0  0
   -6.1241    1.6633    0.0000 C   0  0  0  0  0  0  0  0  0  0  0  0
   -4.9971    2.6532    0.0000 O   0  0  0  0  0  0  0  0  0  0  0  0
   -7.5449    2.1443    0.0000 C   0  0  0  0  0  0  0  0  0  0  0  0
   -8.0260    0.7236    0.0000 C   0  0  0  0  0  0  0  0  0  0  0  0
   -7.0638    3.5651    0.0000 C   0  0  0  0  0  0  0  0  0  0  0  0
   -8.9657    2.6254    0.0000 O   0  0  0  0  0  0  0  0  0  0  0  0
   -2.6951   -2.2408    0.0000 C   0  0  0  0  0  0  0  0  0  0  0  0
   -2.2491   -3.6729    0.0000 C   0  0  0  0  0  0  0  0  0  0  0  0
   -0.7492   -3.6914    0.0000 C   0  0  0  0  0  0  0  0  0  0  0  0
   -0.2682   -2.2706    0.0000 C   0  0  0  0  0  0  0  0  0  0  0  0
    1.1095   -1.6775    0.0000 C   0  0  0  0  0  0  0  0  0  0  0  0
    2.3121   -2.5740    0.0000 C   0  0  0  0  0  0  0  0  0  0  0  0
    2.1370   -4.0638    0.0000 O   0  0  0  0  0  0  0  0  0  0  0  0
    3.6898   -1.9808    0.0000 C   0  0  0  0  0  0  0  0  0  0  0  0
    3.8650   -0.4911    0.0000 C   0  0  0  0  0  0  0  0  0  0  0  0
    5.2427    0.1021    0.0000 C   0  0  0  0  0  0  0  0  0  0  0  0
    5.4179    1.5918    0.0000 C   0  0  0  0  0  0  0  0  0  0  0  0
    6.7956    2.1850    0.0000 O   0  0  0  0  0  0  0  0  0  0  0  0
    7.9982    1.2884    0.0000 S   0  0  0  0  0  0  0  0  0  0  0  0
    7.1016    0.0859    0.0000 O   0  0  0  0  0  0  0  0  0  0  0  0
    8.8947    2.4910    0.0000 O   0  0  0  0  0  0  0  0  0  0  0  0
    9.2008    0.3919    0.0000 O   0  0  0  0  0  0  0  0  0  0  0  0
    4.2153    2.4884    0.0000 C   0  0  0  0  0  0  0  0  0  0  0  0
    2.8376    1.8952    0.0000 C   0  0  0  0  0  0  0  0  0  0  0  0
    2.6624    0.4055    0.0000 C   0  0  0  0  0  0  0  0  0  0  0  0
    1.4598    1.3020    0.0000 C   0  0  0  0  0  0  0  0  0  0  0  0
    1.2847   -0.1877    0.0000 C   0  0  0  0  0  0  0  0  0  0  0  0
    0.0821    0.7088    0.0000 C   0  0  0  0  0  0  0  0  0  0  0  0
   -1.2956    0.1156    0.0000 C   0  0  0  0  0  0  0  0  0  0  0  0
   -2.4982    1.0122    0.0000 O   0  0  0  0  0  0  0  0  0  0  0  0
   -1.4708   -1.3741    0.0000 C   0  0  0  0  0  0  0  0  0  0  0  0
   -2.7605   -0.6081    0.0000 C   0  0  0  0  0  0  0  0  0  0  0  0
  2  1  1  6
  2  3  1  0
  3  4  1  0
  4  5  1  0
  5  6  2  0
  5  7  1  0
  7  8  1  0
  7  9  1  0
  7 10  1  0
  2 11  1  0
 11 12  1  6
 12 13  1  0
 14 13  1  6
 14 15  1  0
 15 16  1  1
 16 17  1  1
 16 18  1  0
 19 18  1  1
 19 20  1  0
 20 21  1  0
 21 22  1  1
 22 23  1  0
 23 24  2  0
 23 25  2  0
 23 26  1  0
 21 27  1  0
 27 28  1  0
 28 29  1  0
 29 30  1  6
 29 31  1  0
 31 32  1  6
 32 33  1  0
 33 34  1  1
 33 35  1  0
 35 36  1  6
 35 11  1  0
 35 14  1  0
 31 15  1  0
 29 19  1  0
M  END
>  <MS_ID>  (2496) 
MS2581

>  <SMILES>  (2496) 
C[C@H](CCC(=O)C(C)(C)O)[C@H]1CC[C@H]2[C@@H]3[C@H](O)C[C@@H]4C[C@H](OS(=O)(=O)O)CC[C@]4(C)[C@H]3C[C@H](O)[C@]12C

>  <Structure_dimension>  (2496) 
2D

$$$$
MS2582
     RDKit          2D

 32 35  0  0  0  0  0  0  0  0999 V2000
   -3.0592   -3.7169    0.0000 C   0  0  0  0  0  0  0  0  0  0  0  0
   -2.1499   -2.5239    0.0000 C   0  0  0  0  0  0  0  0  0  0  0  0
   -2.7284   -1.1399    0.0000 C   0  0  0  0  0  0  0  0  0  0  0  0
   -4.2162   -0.9489    0.0000 C   0  0  0  0  0  0  0  0  0  0  0  0
   -4.7946    0.4350    0.0000 C   0  0  0  0  0  0  0  0  0  0  0  0
   -3.8853    1.6280    0.0000 O   0  0  0  0  0  0  0  0  0  0  0  0
   -6.2824    0.6260    0.0000 C   0  0  0  0  0  0  0  0  0  0  0  0
   -6.8609    2.0100    0.0000 C   0  0  0  0  0  0  0  0  0  0  0  0
   -8.3487    2.2010    0.0000 C   0  0  0  0  0  0  0  0  0  0  0  0
   -9.2580    1.0080    0.0000 O   0  0  0  0  0  0  0  0  0  0  0  0
   -8.9272    3.5850    0.0000 O   0  0  0  0  0  0  0  0  0  0  0  0
   -0.6621   -2.7149    0.0000 C   0  0  0  0  0  0  0  0  0  0  0  0
    0.0579   -4.0308    0.0000 C   0  0  0  0  0  0  0  0  0  0  0  0
    1.5319   -3.7527    0.0000 C   0  0  0  0  0  0  0  0  0  0  0  0
    1.7229   -2.2649    0.0000 C   0  0  0  0  0  0  0  0  0  0  0  0
    2.9563   -1.4114    0.0000 C   0  0  0  0  0  0  0  0  0  0  0  0
    4.3123   -2.0528    0.0000 C   0  0  0  0  0  0  0  0  0  0  0  0
    5.5457   -1.1992    0.0000 C   0  0  0  0  0  0  0  0  0  0  0  0
    5.4232    0.2958    0.0000 C   0  0  0  0  0  0  0  0  0  0  0  0
    6.6567    1.1494    0.0000 C   0  0  0  0  0  0  0  0  0  0  0  0
    6.5342    2.6444    0.0000 C   0  0  0  0  0  0  0  0  0  0  0  0
    7.7676    3.4980    0.0000 F   0  0  0  0  0  0  0  0  0  0  0  0
    5.1782    3.2858    0.0000 C   0  0  0  0  0  0  0  0  0  0  0  0
    3.9448    2.4322    0.0000 C   0  0  0  0  0  0  0  0  0  0  0  0
    4.0673    0.9372    0.0000 C   0  0  0  0  0  0  0  0  0  0  0  0
    2.7113    1.5786    0.0000 C   0  0  0  0  0  0  0  0  0  0  0  0
    2.8338    0.0836    0.0000 C   0  0  0  0  0  0  0  0  0  0  0  0
    1.4779    0.7250    0.0000 C   0  0  0  0  0  0  0  0  0  0  0  0
    0.2444   -0.1285    0.0000 C   0  0  0  0  0  0  0  0  0  0  0  0
   -1.1115    0.5129    0.0000 O   0  0  0  0  0  0  0  0  0  0  0  0
    0.3669   -1.6235    0.0000 C   0  0  0  0  0  0  0  0  0  0  0  0
   -1.0486   -1.1274    0.0000 C   0  0  0  0  0  0  0  0  0  0  0  0
  2  1  1  6
  2  3  1  0
  3  4  1  0
  4  5  1  0
  5  6  2  0
  5  7  1  0
  7  8  1  0
  8  9  1  0
  9 10  2  0
  9 11  1  0
  2 12  1  0
 12 13  1  6
 13 14  1  0
 15 14  1  6
 15 16  1  0
 16 17  1  1
 17 18  1  0
 19 18  1  1
 19 20  1  0
 20 21  1  0
 21 22  1  1
 21 23  1  0
 23 24  1  0
 24 25  1  0
 25 26  1  6
 25 27  1  0
 27 28  1  6
 28 29  1  0
 29 30  1  1
 29 31  1  0
 31 32  1  6
 31 12  1  0
 31 15  1  0
 27 16  1  0
 25 19  1  0
M  END
>  <MS_ID>  (2497) 
MS2582

>  <SMILES>  (2497) 
C[C@H](CCC(=O)CCC(=O)O)[C@H]1CC[C@H]2[C@@H]3CC[C@@H]4C[C@H](F)CC[C@]4(C)[C@H]3C[C@H](O)[C@]12C

>  <Structure_dimension>  (2497) 
2D

$$$$
MS2583
     RDKit          2D

 37 41  0  0  0  0  0  0  0  0999 V2000
   -1.6283   -3.9909    0.0000 C   0  0  0  0  0  0  0  0  0  0  0  0
   -0.8318   -2.7198    0.0000 C   0  0  0  0  0  0  0  0  0  0  0  0
   -1.5343   -1.3945    0.0000 C   0  0  0  0  0  0  0  0  0  0  0  0
   -3.0333   -1.3402    0.0000 C   0  0  0  0  0  0  0  0  0  0  0  0
   -3.7358   -0.0148    0.0000 C   0  0  0  0  0  0  0  0  0  0  0  0
   -2.9393    1.2562    0.0000 O   0  0  0  0  0  0  0  0  0  0  0  0
   -5.2348    0.0395    0.0000 N   0  0  0  0  0  0  0  0  0  0  0  0
   -5.9373    1.3648    0.0000 C   0  0  0  0  0  0  0  0  0  0  0  0
   -7.4363    1.4191    0.0000 C   0  0  0  0  0  0  0  0  0  0  0  0
   -8.1388    2.7444    0.0000 C   0  0  0  0  0  0  0  0  0  0  0  0
   -9.6378    2.7987    0.0000 C   0  0  0  0  0  0  0  0  0  0  0  0
  -10.4343    1.5277    0.0000 C   0  0  0  0  0  0  0  0  0  0  0  0
   -9.7319    0.2024    0.0000 C   0  0  0  0  0  0  0  0  0  0  0  0
  -10.5284   -1.0687    0.0000 F   0  0  0  0  0  0  0  0  0  0  0  0
   -8.2328    0.1481    0.0000 C   0  0  0  0  0  0  0  0  0  0  0  0
    0.6672   -2.7741    0.0000 C   0  0  0  0  0  0  0  0  0  0  0  0
    1.5044   -4.0188    0.0000 C   0  0  0  0  0  0  0  0  0  0  0  0
    2.9468   -3.6072    0.0000 C   0  0  0  0  0  0  0  0  0  0  0  0
    3.0011   -2.1082    0.0000 C   0  0  0  0  0  0  0  0  0  0  0  0
    4.1514   -1.1455    0.0000 C   0  0  0  0  0  0  0  0  0  0  0  0
    5.5603   -1.6603    0.0000 C   0  0  0  0  0  0  0  0  0  0  0  0
    5.8189   -3.1379    0.0000 O   0  0  0  0  0  0  0  0  0  0  0  0
    6.7106   -0.6977    0.0000 C   0  0  0  0  0  0  0  0  0  0  0  0
    6.4521    0.7799    0.0000 C   0  0  0  0  0  0  0  0  0  0  0  0
    7.6024    1.7426    0.0000 C   0  0  0  0  0  0  0  0  0  0  0  0
    7.3438    3.2201    0.0000 C   0  0  0  0  0  0  0  0  0  0  0  0
    8.4942    4.1828    0.0000 O   0  0  0  0  0  0  0  0  0  0  0  0
    5.9350    3.7350    0.0000 C   0  0  0  0  0  0  0  0  0  0  0  0
    4.7846    2.7723    0.0000 C   0  0  0  0  0  0  0  0  0  0  0  0
    5.0432    1.2948    0.0000 C   0  0  0  0  0  0  0  0  0  0  0  0
    3.6343    1.8096    0.0000 C   0  0  0  0  0  0  0  0  0  0  0  0
    3.8929    0.3321    0.0000 C   0  0  0  0  0  0  0  0  0  0  0  0
    2.4840    0.8469    0.0000 C   0  0  0  0  0  0  0  0  0  0  0  0
    1.3337   -0.1158    0.0000 C   0  0  0  0  0  0  0  0  0  0  0  0
   -0.0752    0.3991    0.0000 O   0  0  0  0  0  0  0  0  0  0  0  0
    1.5922   -1.5933    0.0000 C   0  0  0  0  0  0  0  0  0  0  0  0
    0.1373   -1.2285    0.0000 C   0  0  0  0  0  0  0  0  0  0  0  0
  2  1  1  6
  2  3  1  0
  3  4  1  0
  4  5  1  0
  5  6  2  0
  5  7  1  0
  7  8  1  0
  8  9  1  0
  9 10  2  0
 10 11  1  0
 11 12  2  0
 12 13  1  0
 13 14  1  0
 13 15  2  0
  2 16  1  0
 16 17  1  6
 17 18  1  0
 19 18  1  6
 19 20  1  0
 20 21  1  1
 21 22  1  1
 21 23  1  0
 24 23  1  1
 24 25  1  0
 25 26  1  0
 26 27  1  1
 26 28  1  0
 28 29  1  0
 29 30  1  0
 30 31  1  6
 30 32  1  0
 32 33  1  6
 33 34  1  0
 34 35  1  1
 34 36  1  0
 36 37  1  6
 15  9  1  0
 36 16  1  0
 36 19  1  0
 32 20  1  0
 30 24  1  0
M  END
>  <MS_ID>  (2498) 
MS2583

>  <SMILES>  (2498) 
C[C@H](CCC(=O)NCc1cccc(F)c1)[C@H]1CC[C@H]2[C@@H]3[C@H](O)C[C@@H]4C[C@H](O)CC[C@]4(C)[C@H]3C[C@H](O)[C@]12C

>  <Structure_dimension>  (2498) 
2D

$$$$
MS2584
     RDKit          2D

 29 32  0  0  0  0  0  0  0  0999 V2000
   -5.2401   -2.0328    0.0000 C   0  0  0  0  0  0  0  0  0  0  0  0
   -4.0410   -1.1316    0.0000 C   0  0  0  0  0  0  0  0  0  0  0  0
   -4.2220    0.3575    0.0000 C   0  0  0  0  0  0  0  0  0  0  0  0
   -5.6020    0.9453    0.0000 C   0  0  0  0  0  0  0  0  0  0  0  0
   -5.7830    2.4343    0.0000 C   0  0  0  0  0  0  0  0  0  0  0  0
   -4.5839    3.3355    0.0000 O   0  0  0  0  0  0  0  0  0  0  0  0
   -7.1630    3.0221    0.0000 O   0  0  0  0  0  0  0  0  0  0  0  0
   -2.6610   -1.7194    0.0000 C   0  0  0  0  0  0  0  0  0  0  0  0
   -2.3254   -3.1813    0.0000 C   0  0  0  0  0  0  0  0  0  0  0  0
   -0.8312   -3.3139    0.0000 C   0  0  0  0  0  0  0  0  0  0  0  0
   -0.2434   -1.9339    0.0000 C   0  0  0  0  0  0  0  0  0  0  0  0
    1.1754   -1.4473    0.0000 C   0  0  0  0  0  0  0  0  0  0  0  0
    2.3063   -2.4327    0.0000 C   0  0  0  0  0  0  0  0  0  0  0  0
    2.0183   -3.9048    0.0000 O   0  0  0  0  0  0  0  0  0  0  0  0
    3.7252   -1.9461    0.0000 C   0  0  0  0  0  0  0  0  0  0  0  0
    4.0132   -0.4740    0.0000 C   0  0  0  0  0  0  0  0  0  0  0  0
    5.4321    0.0126    0.0000 C   0  0  0  0  0  0  0  0  0  0  0  0
    5.7201    1.4846    0.0000 C   0  0  0  0  0  0  0  0  0  0  0  0
    7.1390    1.9713    0.0000 F   0  0  0  0  0  0  0  0  0  0  0  0
    4.5892    2.4701    0.0000 C   0  0  0  0  0  0  0  0  0  0  0  0
    3.1704    1.9835    0.0000 C   0  0  0  0  0  0  0  0  0  0  0  0
    2.8823    0.5114    0.0000 C   0  0  0  0  0  0  0  0  0  0  0  0
    1.7515    1.4969    0.0000 C   0  0  0  0  0  0  0  0  0  0  0  0
    2.0395    2.9690    0.0000 O   0  0  0  0  0  0  0  0  0  0  0  0
    1.4635    0.0248    0.0000 C   0  0  0  0  0  0  0  0  0  0  0  0
    0.3326    1.0103    0.0000 C   0  0  0  0  0  0  0  0  0  0  0  0
   -1.0863    0.5237    0.0000 C   0  0  0  0  0  0  0  0  0  0  0  0
   -1.3743   -0.9484    0.0000 C   0  0  0  0  0  0  0  0  0  0  0  0
   -2.6020   -0.0865    0.0000 C   0  0  0  0  0  0  0  0  0  0  0  0
  2  1  1  6
  2  3  1  0
  3  4  1  0
  4  5  1  0
  5  6  2  0
  5  7  1  0
  2  8  1  0
  8  9  1  6
  9 10  1  0
 11 10  1  6
 11 12  1  0
 12 13  1  1
 13 14  1  6
 13 15  1  0
 16 15  1  1
 16 17  1  0
 17 18  1  0
 18 19  1  1
 18 20  1  0
 20 21  1  0
 21 22  1  0
 22 23  1  6
 23 24  1  0
 22 25  1  0
 25 26  1  6
 26 27  1  0
 27 28  1  0
 28 29  1  6
 28  8  1  0
 28 11  1  0
 25 12  1  0
 22 16  1  0
M  END
>  <MS_ID>  (2499) 
MS2584

>  <SMILES>  (2499) 
C[C@H](CCC(=O)O)[C@H]1CC[C@H]2[C@@H]3[C@@H](O)C[C@@H]4C[C@H](F)CC[C@]4(CO)[C@H]3CC[C@]12C

>  <Structure_dimension>  (2499) 
2D

$$$$
MS2585
     RDKit          2D

 32 35  0  0  0  0  0  0  0  0999 V2000
   -3.1607   -3.8109    0.0000 C   0  0  0  0  0  0  0  0  0  0  0  0
   -2.3083   -2.5766    0.0000 C   0  0  0  0  0  0  0  0  0  0  0  0
   -2.9510   -1.2213    0.0000 C   0  0  0  0  0  0  0  0  0  0  0  0
   -4.4461   -1.1002    0.0000 C   0  0  0  0  0  0  0  0  0  0  0  0
   -5.0888    0.2551    0.0000 C   0  0  0  0  0  0  0  0  0  0  0  0
   -4.2364    1.4894    0.0000 O   0  0  0  0  0  0  0  0  0  0  0  0
   -6.5839    0.3762    0.0000 C   0  0  0  0  0  0  0  0  0  0  0  0
   -7.2266    1.7316    0.0000 C   0  0  0  0  0  0  0  0  0  0  0  0
   -6.3742    2.9658    0.0000 O   0  0  0  0  0  0  0  0  0  0  0  0
   -8.7218    1.8526    0.0000 C   0  0  0  0  0  0  0  0  0  0  0  0
   -9.3644    3.2080    0.0000 O   0  0  0  0  0  0  0  0  0  0  0  0
   -0.8132   -2.6977    0.0000 C   0  0  0  0  0  0  0  0  0  0  0  0
   -0.0324   -3.9784    0.0000 C   0  0  0  0  0  0  0  0  0  0  0  0
    1.4270   -3.6316    0.0000 C   0  0  0  0  0  0  0  0  0  0  0  0
    1.5480   -2.1364    0.0000 C   0  0  0  0  0  0  0  0  0  0  0  0
    2.7401   -1.2260    0.0000 C   0  0  0  0  0  0  0  0  0  0  0  0
    4.1246   -1.8032    0.0000 C   0  0  0  0  0  0  0  0  0  0  0  0
    4.3171   -3.2908    0.0000 O   0  0  0  0  0  0  0  0  0  0  0  0
    5.3167   -0.8927    0.0000 C   0  0  0  0  0  0  0  0  0  0  0  0
    5.1243    0.5949    0.0000 C   0  0  0  0  0  0  0  0  0  0  0  0
    6.3164    1.5053    0.0000 C   0  0  0  0  0  0  0  0  0  0  0  0
    6.1240    2.9929    0.0000 C   0  0  0  0  0  0  0  0  0  0  0  0
    7.3161    3.9034    0.0000 O   0  0  0  0  0  0  0  0  0  0  0  0
    4.7395    3.5701    0.0000 C   0  0  0  0  0  0  0  0  0  0  0  0
    3.5474    2.6597    0.0000 C   0  0  0  0  0  0  0  0  0  0  0  0
    3.7398    1.1721    0.0000 C   0  0  0  0  0  0  0  0  0  0  0  0
    2.3553    1.7492    0.0000 C   0  0  0  0  0  0  0  0  0  0  0  0
    2.5477    0.2616    0.0000 C   0  0  0  0  0  0  0  0  0  0  0  0
    1.1632    0.8388    0.0000 C   0  0  0  0  0  0  0  0  0  0  0  0
   -0.0289   -0.0717    0.0000 C   0  0  0  0  0  0  0  0  0  0  0  0
    0.1635   -1.5593    0.0000 C   0  0  0  0  0  0  0  0  0  0  0  0
   -1.2737   -1.1300    0.0000 C   0  0  0  0  0  0  0  0  0  0  0  0
  2  1  1  6
  2  3  1  0
  3  4  1  0
  4  5  1  0
  5  6  2  0
  5  7  1  0
  7  8  1  0
  8  9  2  0
  8 10  1  0
 10 11  1  0
  2 12  1  0
 12 13  1  6
 13 14  1  0
 15 14  1  6
 15 16  1  0
 16 17  1  1
 17 18  1  6
 17 19  1  0
 20 19  1  1
 20 21  1  0
 21 22  1  0
 22 23  1  1
 22 24  1  0
 24 25  1  0
 25 26  1  0
 26 27  1  6
 26 28  1  0
 28 29  1  6
 29 30  1  0
 30 31  1  0
 31 32  1  6
 31 12  1  0
 31 15  1  0
 28 16  1  0
 26 20  1  0
M  END
>  <MS_ID>  (2500) 
MS2585

>  <SMILES>  (2500) 
C[C@H](CCC(=O)CC(=O)CO)[C@H]1CC[C@H]2[C@@H]3[C@@H](O)C[C@@H]4C[C@H](O)CC[C@]4(C)[C@H]3CC[C@]12C

>  <Structure_dimension>  (2500) 
2D

$$$$
MS2586
     RDKit          2D

 32 35  0  0  0  0  0  0  0  0999 V2000
   -9.0946    1.0175    0.0000 C   0  0  0  0  0  0  0  0  0  0  0  0
   -7.6382    0.6585    0.0000 S   0  0  0  0  0  0  0  0  0  0  0  0
   -6.5991    1.7404    0.0000 C   0  0  0  0  0  0  0  0  0  0  0  0
   -7.0165    3.1811    0.0000 O   0  0  0  0  0  0  0  0  0  0  0  0
   -5.1427    1.3814    0.0000 C   0  0  0  0  0  0  0  0  0  0  0  0
   -4.1036    2.4632    0.0000 O   0  0  0  0  0  0  0  0  0  0  0  0
   -4.7254   -0.0593    0.0000 C   0  0  0  0  0  0  0  0  0  0  0  0
   -3.2689   -0.4183    0.0000 C   0  0  0  0  0  0  0  0  0  0  0  0
   -2.8516   -1.8591    0.0000 C   0  0  0  0  0  0  0  0  0  0  0  0
   -3.8907   -2.9409    0.0000 C   0  0  0  0  0  0  0  0  0  0  0  0
   -1.3952   -2.2180    0.0000 C   0  0  0  0  0  0  0  0  0  0  0  0
   -0.8295   -3.6073    0.0000 C   0  0  0  0  0  0  0  0  0  0  0  0
    0.6666   -3.4986    0.0000 C   0  0  0  0  0  0  0  0  0  0  0  0
    1.0255   -2.0422    0.0000 C   0  0  0  0  0  0  0  0  0  0  0  0
    2.3480   -1.3344    0.0000 C   0  0  0  0  0  0  0  0  0  0  0  0
    3.6222   -2.1258    0.0000 C   0  0  0  0  0  0  0  0  0  0  0  0
    3.5739   -3.6250    0.0000 O   0  0  0  0  0  0  0  0  0  0  0  0
    4.9447   -1.4180    0.0000 C   0  0  0  0  0  0  0  0  0  0  0  0
    4.9930    0.0812    0.0000 C   0  0  0  0  0  0  0  0  0  0  0  0
    6.3156    0.7890    0.0000 C   0  0  0  0  0  0  0  0  0  0  0  0
    6.3639    2.2882    0.0000 C   0  0  0  0  0  0  0  0  0  0  0  0
    7.6864    2.9960    0.0000 O   0  0  0  0  0  0  0  0  0  0  0  0
    5.0896    3.0796    0.0000 C   0  0  0  0  0  0  0  0  0  0  0  0
    3.7671    2.3719    0.0000 C   0  0  0  0  0  0  0  0  0  0  0  0
    3.7188    0.8726    0.0000 C   0  0  0  0  0  0  0  0  0  0  0  0
    2.4446    1.6641    0.0000 C   0  0  0  0  0  0  0  0  0  0  0  0
    2.3963    0.1648    0.0000 C   0  0  0  0  0  0  0  0  0  0  0  0
    1.1221    0.9563    0.0000 C   0  0  0  0  0  0  0  0  0  0  0  0
   -0.2004    0.2485    0.0000 C   0  0  0  0  0  0  0  0  0  0  0  0
   -1.4746    1.0399    0.0000 O   0  0  0  0  0  0  0  0  0  0  0  0
   -0.2487   -1.2507    0.0000 C   0  0  0  0  0  0  0  0  0  0  0  0
   -1.5987   -0.5968    0.0000 C   0  0  0  0  0  0  0  0  0  0  0  0
  1  2  1  0
  2  3  1  0
  3  4  1  6
  3  5  1  0
  5  6  2  0
  5  7  1  0
  7  8  1  0
  8  9  1  0
  9 10  1  6
  9 11  1  0
 11 12  1  6
 12 13  1  0
 14 13  1  6
 14 15  1  0
 15 16  1  1
 16 17  1  1
 16 18  1  0
 19 18  1  1
 19 20  1  0
 20 21  1  0
 21 22  1  1
 21 23  1  0
 23 24  1  0
 24 25  1  0
 25 26  1  6
 25 27  1  0
 27 28  1  6
 28 29  1  0
 29 30  1  1
 29 31  1  0
 31 32  1  6
 31 11  1  0
 31 14  1  0
 27 15  1  0
 25 19  1  0
M  END
>  <MS_ID>  (2501) 
MS2586

>  <SMILES>  (2501) 
CS[C@H](O)C(=O)CC[C@@H](C)[C@H]1CC[C@H]2[C@@H]3[C@H](O)C[C@@H]4C[C@H](O)CC[C@]4(C)[C@H]3C[C@H](O)[C@]12C

>  <Structure_dimension>  (2501) 
2D

$$$$
MS2587
     RDKit          2D

 32 35  0  0  0  0  0  0  0  0999 V2000
   -3.5396   -3.9741    0.0000 C   0  0  0  0  0  0  0  0  0  0  0  0
   -2.6835   -2.7424    0.0000 C   0  0  0  0  0  0  0  0  0  0  0  0
   -3.3221   -1.3851    0.0000 C   0  0  0  0  0  0  0  0  0  0  0  0
   -4.8168   -1.2595    0.0000 C   0  0  0  0  0  0  0  0  0  0  0  0
   -5.4554    0.0978    0.0000 C   0  0  0  0  0  0  0  0  0  0  0  0
   -6.9501    0.2234    0.0000 O   0  0  0  0  0  0  0  0  0  0  0  0
   -4.5992    1.3295    0.0000 O   0  0  0  0  0  0  0  0  0  0  0  0
   -5.2378    2.6867    0.0000 C   0  0  0  0  0  0  0  0  0  0  0  0
   -6.7325    2.8124    0.0000 O   0  0  0  0  0  0  0  0  0  0  0  0
   -4.3816    3.9184    0.0000 C   0  0  0  0  0  0  0  0  0  0  0  0
   -5.0202    5.2757    0.0000 N   0  0  0  0  0  0  0  0  0  0  0  0
   -1.1888   -2.8680    0.0000 C   0  0  0  0  0  0  0  0  0  0  0  0
   -0.4118   -4.1511    0.0000 C   0  0  0  0  0  0  0  0  0  0  0  0
    1.0486   -3.8087    0.0000 C   0  0  0  0  0  0  0  0  0  0  0  0
    1.1742   -2.3140    0.0000 C   0  0  0  0  0  0  0  0  0  0  0  0
    2.3691   -1.4071    0.0000 C   0  0  0  0  0  0  0  0  0  0  0  0
    3.7518   -1.9885    0.0000 C   0  0  0  0  0  0  0  0  0  0  0  0
    3.9397   -3.4767    0.0000 O   0  0  0  0  0  0  0  0  0  0  0  0
    4.9467   -1.0817    0.0000 C   0  0  0  0  0  0  0  0  0  0  0  0
    4.7588    0.4065    0.0000 C   0  0  0  0  0  0  0  0  0  0  0  0
    5.9536    1.3133    0.0000 C   0  0  0  0  0  0  0  0  0  0  0  0
    5.7657    2.8015    0.0000 C   0  0  0  0  0  0  0  0  0  0  0  0
    6.9606    3.7083    0.0000 O   0  0  0  0  0  0  0  0  0  0  0  0
    4.3830    3.3829    0.0000 C   0  0  0  0  0  0  0  0  0  0  0  0
    3.1881    2.4760    0.0000 C   0  0  0  0  0  0  0  0  0  0  0  0
    3.3760    0.9879    0.0000 C   0  0  0  0  0  0  0  0  0  0  0  0
    1.9933    1.5692    0.0000 C   0  0  0  0  0  0  0  0  0  0  0  0
    2.1812    0.0810    0.0000 C   0  0  0  0  0  0  0  0  0  0  0  0
    0.7984    0.6624    0.0000 C   0  0  0  0  0  0  0  0  0  0  0  0
   -0.3964   -0.2444    0.0000 C   0  0  0  0  0  0  0  0  0  0  0  0
   -0.2085   -1.7326    0.0000 C   0  0  0  0  0  0  0  0  0  0  0  0
   -1.6445   -1.2989    0.0000 C   0  0  0  0  0  0  0  0  0  0  0  0
  2  1  1  6
  2  3  1  0
  3  4  1  0
  4  5  1  0
  5  6  2  0
  5  7  1  0
  7  8  1  0
  8  9  2  0
  8 10  1  0
 10 11  1  0
  2 12  1  0
 12 13  1  6
 13 14  1  0
 15 14  1  6
 15 16  1  0
 16 17  1  1
 17 18  1  6
 17 19  1  0
 20 19  1  1
 20 21  1  0
 21 22  1  0
 22 23  1  1
 22 24  1  0
 24 25  1  0
 25 26  1  0
 26 27  1  6
 26 28  1  0
 28 29  1  6
 29 30  1  0
 30 31  1  0
 31 32  1  6
 31 12  1  0
 31 15  1  0
 28 16  1  0
 26 20  1  0
M  END
>  <MS_ID>  (2502) 
MS2587

>  <SMILES>  (2502) 
C[C@H](CCC(=O)OC(=O)CN)[C@H]1CC[C@H]2[C@@H]3[C@@H](O)C[C@@H]4C[C@H](O)CC[C@]4(C)[C@H]3CC[C@]12C

>  <Structure_dimension>  (2502) 
2D

$$$$
MS2588
     RDKit          2D

 32 35  0  0  0  0  0  0  0  0999 V2000
   -6.2276    3.9292    0.0000 C   0  0  0  0  0  0  0  0  0  0  0  0
   -7.2251    2.8089    0.0000 C   0  0  0  0  0  0  0  0  0  0  0  0
   -6.7536    1.3850    0.0000 C   0  0  0  0  0  0  0  0  0  0  0  0
   -7.7511    0.2647    0.0000 C   0  0  0  0  0  0  0  0  0  0  0  0
   -5.2847    1.0813    0.0000 C   0  0  0  0  0  0  0  0  0  0  0  0
   -4.2872    2.2015    0.0000 O   0  0  0  0  0  0  0  0  0  0  0  0
   -4.8133   -0.3427    0.0000 C   0  0  0  0  0  0  0  0  0  0  0  0
   -3.3443   -0.6464    0.0000 C   0  0  0  0  0  0  0  0  0  0  0  0
   -2.8729   -2.0704    0.0000 C   0  0  0  0  0  0  0  0  0  0  0  0
   -3.8704   -3.1907    0.0000 C   0  0  0  0  0  0  0  0  0  0  0  0
   -1.4039   -2.3741    0.0000 C   0  0  0  0  0  0  0  0  0  0  0  0
   -0.7862   -3.7410    0.0000 C   0  0  0  0  0  0  0  0  0  0  0  0
    0.7047   -3.5759    0.0000 C   0  0  0  0  0  0  0  0  0  0  0  0
    1.0084   -2.1070    0.0000 C   0  0  0  0  0  0  0  0  0  0  0  0
    2.3032   -1.3498    0.0000 C   0  0  0  0  0  0  0  0  0  0  0  0
    3.6064   -2.0926    0.0000 C   0  0  0  0  0  0  0  0  0  0  0  0
    3.6147   -3.5925    0.0000 O   0  0  0  0  0  0  0  0  0  0  0  0
    4.9012   -1.3354    0.0000 C   0  0  0  0  0  0  0  0  0  0  0  0
    4.8929    0.1646    0.0000 C   0  0  0  0  0  0  0  0  0  0  0  0
    6.1878    0.9218    0.0000 C   0  0  0  0  0  0  0  0  0  0  0  0
    6.1794    2.4218    0.0000 C   0  0  0  0  0  0  0  0  0  0  0  0
    7.4743    3.1790    0.0000 O   0  0  0  0  0  0  0  0  0  0  0  0
    4.8762    3.1646    0.0000 C   0  0  0  0  0  0  0  0  0  0  0  0
    3.5814    2.4074    0.0000 C   0  0  0  0  0  0  0  0  0  0  0  0
    3.5897    0.9074    0.0000 C   0  0  0  0  0  0  0  0  0  0  0  0
    2.2865    1.6502    0.0000 C   0  0  0  0  0  0  0  0  0  0  0  0
    2.2949    0.1502    0.0000 C   0  0  0  0  0  0  0  0  0  0  0  0
    0.9917    0.8929    0.0000 C   0  0  0  0  0  0  0  0  0  0  0  0
   -0.3032    0.1357    0.0000 C   0  0  0  0  0  0  0  0  0  0  0  0
   -1.6064    0.8785    0.0000 O   0  0  0  0  0  0  0  0  0  0  0  0
   -0.2948   -1.3642    0.0000 C   0  0  0  0  0  0  0  0  0  0  0  0
   -1.6685   -0.7618    0.0000 C   0  0  0  0  0  0  0  0  0  0  0  0
  1  2  1  0
  2  3  2  0
  3  4  1  0
  3  5  1  0
  5  6  2  0
  5  7  1  0
  7  8  1  0
  8  9  1  0
  9 10  1  6
  9 11  1  0
 11 12  1  6
 12 13  1  0
 14 13  1  6
 14 15  1  0
 15 16  1  1
 16 17  1  1
 16 18  1  0
 19 18  1  1
 19 20  1  0
 20 21  1  0
 21 22  1  1
 21 23  1  0
 23 24  1  0
 24 25  1  0
 25 26  1  6
 25 27  1  0
 27 28  1  6
 28 29  1  0
 29 30  1  1
 29 31  1  0
 31 32  1  6
 31 11  1  0
 31 14  1  0
 27 15  1  0
 25 19  1  0
M  END
>  <MS_ID>  (2503) 
MS2588

>  <SMILES>  (2503) 
C/C=C(/C)C(=O)CC[C@@H](C)[C@H]1CC[C@H]2[C@@H]3[C@H](O)C[C@@H]4C[C@H](O)CC[C@]4(C)[C@H]3C[C@H](O)[C@]12C

>  <Structure_dimension>  (2503) 
2D

$$$$
MS2589
     RDKit          2D

 42 45  0  0  0  0  0  0  0  0999 V2000
    0.3707   -4.2403    0.0000 C   0  0  0  0  0  0  0  0  0  0  0  0
    1.0992   -2.9291    0.0000 C   0  0  0  0  0  0  0  0  0  0  0  0
    0.3280   -1.6426    0.0000 C   0  0  0  0  0  0  0  0  0  0  0  0
   -1.1718   -1.6673    0.0000 C   0  0  0  0  0  0  0  0  0  0  0  0
   -1.9431   -0.3808    0.0000 C   0  0  0  0  0  0  0  0  0  0  0  0
   -1.2146    0.9305    0.0000 O   0  0  0  0  0  0  0  0  0  0  0  0
   -3.4429   -0.4055    0.0000 N   0  0  0  0  0  0  0  0  0  0  0  0
   -4.2142    0.8811    0.0000 C   0  0  0  0  0  0  0  0  0  0  0  0
   -5.7140    0.8564    0.0000 C   0  0  0  0  0  0  0  0  0  0  0  0
   -6.4853    2.1429    0.0000 C   0  0  0  0  0  0  0  0  0  0  0  0
   -7.9851    2.1182    0.0000 N   0  0  0  0  0  0  0  0  0  0  0  0
   -7.9604    0.6184    0.0000 C   0  0  0  0  0  0  0  0  0  0  0  0
   -8.0098    3.6180    0.0000 C   0  0  0  0  0  0  0  0  0  0  0  0
   -9.4849    2.0935    0.0000 C   0  0  0  0  0  0  0  0  0  0  0  0
  -10.2134    0.7823    0.0000 C   0  0  0  0  0  0  0  0  0  0  0  0
  -11.7132    0.7576    0.0000 C   0  0  0  0  0  0  0  0  0  0  0  0
  -12.4417   -0.5537    0.0000 S   0  0  0  0  0  0  0  0  0  0  0  0
  -13.7529    0.1748    0.0000 O   0  0  0  0  0  0  0  0  0  0  0  0
  -11.1305   -1.2822    0.0000 O   0  0  0  0  0  0  0  0  0  0  0  0
  -13.1702   -1.8649    0.0000 O   0  0  0  0  0  0  0  0  0  0  0  0
    2.5990   -2.9044    0.0000 C   0  0  0  0  0  0  0  0  0  0  0  0
    3.5006   -4.1032    0.0000 C   0  0  0  0  0  0  0  0  0  0  0  0
    4.9193   -3.6163    0.0000 C   0  0  0  0  0  0  0  0  0  0  0  0
    4.8946   -2.1165    0.0000 C   0  0  0  0  0  0  0  0  0  0  0  0
    5.9927   -1.0946    0.0000 C   0  0  0  0  0  0  0  0  0  0  0  0
    7.4267   -1.5345    0.0000 C   0  0  0  0  0  0  0  0  0  0  0  0
    7.7627   -2.9964    0.0000 O   0  0  0  0  0  0  0  0  0  0  0  0
    8.5247   -0.5126    0.0000 C   0  0  0  0  0  0  0  0  0  0  0  0
    8.1888    0.9493    0.0000 C   0  0  0  0  0  0  0  0  0  0  0  0
    9.2868    1.9712    0.0000 C   0  0  0  0  0  0  0  0  0  0  0  0
    8.9508    3.4331    0.0000 C   0  0  0  0  0  0  0  0  0  0  0  0
   10.0488    4.4550    0.0000 O   0  0  0  0  0  0  0  0  0  0  0  0
    7.5168    3.8731    0.0000 C   0  0  0  0  0  0  0  0  0  0  0  0
    6.4187    2.8511    0.0000 C   0  0  0  0  0  0  0  0  0  0  0  0
    6.7547    1.3892    0.0000 C   0  0  0  0  0  0  0  0  0  0  0  0
    5.3207    1.8292    0.0000 C   0  0  0  0  0  0  0  0  0  0  0  0
    5.6567    0.3673    0.0000 C   0  0  0  0  0  0  0  0  0  0  0  0
    4.2227    0.8073    0.0000 C   0  0  0  0  0  0  0  0  0  0  0  0
    3.1246   -0.2146    0.0000 C   0  0  0  0  0  0  0  0  0  0  0  0
    1.6906    0.2254    0.0000 O   0  0  0  0  0  0  0  0  0  0  0  0
    3.4606   -1.6765    0.0000 C   0  0  0  0  0  0  0  0  0  0  0  0
    1.9885   -1.3888    0.0000 C   0  0  0  0  0  0  0  0  0  0  0  0
  2  1  1  1
  2  3  1  0
  3  4  1  0
  4  5  1  0
  5  6  2  0
  5  7  1  0
  7  8  1  0
  8  9  1  0
  9 10  1  0
 10 11  1  0
 11 12  1  0
 11 13  1  0
 11 14  1  0
 14 15  1  0
 15 16  1  0
 16 17  1  0
 17 18  2  0
 17 19  2  0
 17 20  1  0
  2 21  1  0
 21 22  1  6
 22 23  1  0
 24 23  1  6
 24 25  1  0
 25 26  1  1
 26 27  1  1
 26 28  1  0
 29 28  1  1
 29 30  1  0
 30 31  1  0
 31 32  1  1
 31 33  1  0
 33 34  1  0
 34 35  1  0
 35 36  1  6
 35 37  1  0
 37 38  1  6
 38 39  1  0
 39 40  1  1
 39 41  1  0
 41 42  1  6
 41 21  1  0
 41 24  1  0
 37 25  1  0
 35 29  1  0
M  CHG  2  11   1  20  -1
M  END
>  <MS_ID>  (2504) 
MS2589

>  <SMILES>  (2504) 
C[C@@H](CCC(=O)NCCC[N+](C)(C)CCCS(=O)(=O)[O-])[C@H]1CC[C@H]2[C@@H]3[C@H](O)C[C@@H]4C[C@H](O)CC[C@]4(C)[C@H]3C[C@H](O)[C@]12C

>  <Structure_dimension>  (2504) 
2D

$$$$
MS2590
     RDKit          2D

 30 33  0  0  0  0  0  0  0  0999 V2000
   -9.1926    3.8340    0.0000 C   0  0  0  0  0  0  0  0  0  0  0  0
   -8.6440    2.4379    0.0000 C   0  0  0  0  0  0  0  0  0  0  0  0
   -7.1606    2.2150    0.0000 C   0  0  0  0  0  0  0  0  0  0  0  0
   -6.6120    0.8190    0.0000 N   0  0  0  0  0  0  0  0  0  0  0  0
   -5.1287    0.5960    0.0000 C   0  0  0  0  0  0  0  0  0  0  0  0
   -4.1940    1.7692    0.0000 O   0  0  0  0  0  0  0  0  0  0  0  0
   -4.5801   -0.8000    0.0000 C   0  0  0  0  0  0  0  0  0  0  0  0
   -3.0967   -1.0230    0.0000 C   0  0  0  0  0  0  0  0  0  0  0  0
   -2.5481   -2.4190    0.0000 C   0  0  0  0  0  0  0  0  0  0  0  0
   -3.4828   -3.5922    0.0000 C   0  0  0  0  0  0  0  0  0  0  0  0
   -1.0648   -2.6420    0.0000 C   0  0  0  0  0  0  0  0  0  0  0  0
   -0.3732   -3.9730    0.0000 C   0  0  0  0  0  0  0  0  0  0  0  0
    1.1064   -3.7267    0.0000 C   0  0  0  0  0  0  0  0  0  0  0  0
    1.3293   -2.2433    0.0000 C   0  0  0  0  0  0  0  0  0  0  0  0
    2.5808   -1.4164    0.0000 C   0  0  0  0  0  0  0  0  0  0  0  0
    3.9227   -2.0868    0.0000 C   0  0  0  0  0  0  0  0  0  0  0  0
    5.1742   -1.2599    0.0000 C   0  0  0  0  0  0  0  0  0  0  0  0
    5.0838    0.2373    0.0000 C   0  0  0  0  0  0  0  0  0  0  0  0
    6.3353    1.0642    0.0000 C   0  0  0  0  0  0  0  0  0  0  0  0
    6.2450    2.5615    0.0000 C   0  0  0  0  0  0  0  0  0  0  0  0
    7.4965    3.3884    0.0000 O   0  0  0  0  0  0  0  0  0  0  0  0
    4.9031    3.2319    0.0000 C   0  0  0  0  0  0  0  0  0  0  0  0
    3.6516    2.4050    0.0000 C   0  0  0  0  0  0  0  0  0  0  0  0
    3.7420    0.9077    0.0000 C   0  0  0  0  0  0  0  0  0  0  0  0
    2.4001    1.5781    0.0000 C   0  0  0  0  0  0  0  0  0  0  0  0
    2.4905    0.0808    0.0000 C   0  0  0  0  0  0  0  0  0  0  0  0
    1.1486    0.7512    0.0000 C   0  0  0  0  0  0  0  0  0  0  0  0
   -0.1029   -0.0757    0.0000 C   0  0  0  0  0  0  0  0  0  0  0  0
   -0.0125   -1.5729    0.0000 C   0  0  0  0  0  0  0  0  0  0  0  0
   -1.4171   -1.0465    0.0000 C   0  0  0  0  0  0  0  0  0  0  0  0
  1  2  1  0
  2  3  1  0
  3  4  1  0
  4  5  1  0
  5  6  2  0
  5  7  1  0
  7  8  1  0
  8  9  1  0
  9 10  1  6
  9 11  1  0
 11 12  1  6
 12 13  1  0
 14 13  1  6
 14 15  1  0
 15 16  1  1
 16 17  1  0
 18 17  1  1
 18 19  1  0
 19 20  1  0
 20 21  1  6
 20 22  1  0
 22 23  1  0
 23 24  1  0
 24 25  1  6
 24 26  1  0
 26 27  1  6
 27 28  1  0
 28 29  1  0
 29 30  1  6
 29 11  1  0
 29 14  1  0
 26 15  1  0
 24 18  1  0
M  END
>  <MS_ID>  (2505) 
MS2590

>  <SMILES>  (2505) 
CCCNC(=O)CC[C@@H](C)[C@H]1CC[C@H]2[C@@H]3CC[C@@H]4C[C@@H](O)CC[C@]4(C)[C@H]3CC[C@]12C

>  <Structure_dimension>  (2505) 
2D

$$$$
MS2591
     RDKit          2D

 34 37  0  0  0  0  0  0  0  0999 V2000
   -2.9347   -3.8100    0.0000 C   0  0  0  0  0  0  0  0  0  0  0  0
   -2.1061   -2.5597    0.0000 C   0  0  0  0  0  0  0  0  0  0  0  0
   -2.7747   -1.2169    0.0000 C   0  0  0  0  0  0  0  0  0  0  0  0
   -4.2718   -1.1245    0.0000 C   0  0  0  0  0  0  0  0  0  0  0  0
   -4.9404    0.2183    0.0000 C   0  0  0  0  0  0  0  0  0  0  0  0
   -4.1118    1.4687    0.0000 O   0  0  0  0  0  0  0  0  0  0  0  0
   -6.4375    0.3107    0.0000 N   0  0  0  0  0  0  0  0  0  0  0  0
   -7.1061    1.6535    0.0000 C   0  0  0  0  0  0  0  0  0  0  0  0
   -8.6032    1.7459    0.0000 C   0  0  0  0  0  0  0  0  0  0  0  0
   -8.6956    0.2487    0.0000 C   0  0  0  0  0  0  0  0  0  0  0  0
   -8.5108    3.2430    0.0000 C   0  0  0  0  0  0  0  0  0  0  0  0
  -10.1004    1.8383    0.0000 O   0  0  0  0  0  0  0  0  0  0  0  0
   -0.6090   -2.6521    0.0000 C   0  0  0  0  0  0  0  0  0  0  0  0
    0.1963   -3.9176    0.0000 C   0  0  0  0  0  0  0  0  0  0  0  0
    1.6487   -3.5428    0.0000 C   0  0  0  0  0  0  0  0  0  0  0  0
    1.7411   -2.0457    0.0000 C   0  0  0  0  0  0  0  0  0  0  0  0
    2.9155   -1.1125    0.0000 C   0  0  0  0  0  0  0  0  0  0  0  0
    4.3109   -1.6631    0.0000 C   0  0  0  0  0  0  0  0  0  0  0  0
    4.5317   -3.1467    0.0000 O   0  0  0  0  0  0  0  0  0  0  0  0
    5.4853   -0.7299    0.0000 C   0  0  0  0  0  0  0  0  0  0  0  0
    6.8806   -1.2805    0.0000 O   0  0  0  0  0  0  0  0  0  0  0  0
    5.2644    0.7537    0.0000 C   0  0  0  0  0  0  0  0  0  0  0  0
    6.4388    1.6868    0.0000 C   0  0  0  0  0  0  0  0  0  0  0  0
    6.2179    3.1705    0.0000 C   0  0  0  0  0  0  0  0  0  0  0  0
    7.3923    4.1036    0.0000 O   0  0  0  0  0  0  0  0  0  0  0  0
    4.8226    3.7210    0.0000 C   0  0  0  0  0  0  0  0  0  0  0  0
    3.6482    2.7879    0.0000 C   0  0  0  0  0  0  0  0  0  0  0  0
    3.8691    1.3042    0.0000 C   0  0  0  0  0  0  0  0  0  0  0  0
    2.4737    1.8547    0.0000 C   0  0  0  0  0  0  0  0  0  0  0  0
    2.6946    0.3711    0.0000 C   0  0  0  0  0  0  0  0  0  0  0  0
    1.2993    0.9216    0.0000 C   0  0  0  0  0  0  0  0  0  0  0  0
    0.1249   -0.0115    0.0000 C   0  0  0  0  0  0  0  0  0  0  0  0
    0.3458   -1.4951    0.0000 C   0  0  0  0  0  0  0  0  0  0  0  0
   -1.0994   -1.0935    0.0000 C   0  0  0  0  0  0  0  0  0  0  0  0
  2  1  1  6
  2  3  1  0
  3  4  1  0
  4  5  1  0
  5  6  2  0
  5  7  1  0
  7  8  1  0
  8  9  1  0
  9 10  1  0
  9 11  1  0
  9 12  1  0
  2 13  1  0
 13 14  1  6
 14 15  1  0
 16 15  1  6
 16 17  1  0
 17 18  1  1
 18 19  1  1
 18 20  1  0
 20 21  1  1
 20 22  1  0
 22 23  1  1
 23 24  1  0
 24 25  1  1
 24 26  1  0
 26 27  1  0
 27 28  1  0
 28 29  1  6
 28 30  1  0
 30 31  1  6
 31 32  1  0
 32 33  1  0
 33 34  1  6
 33 13  1  0
 33 16  1  0
 30 17  1  0
 28 22  1  0
M  END
>  <MS_ID>  (2506) 
MS2591

>  <SMILES>  (2506) 
C[C@H](CCC(=O)NCC(C)(C)O)[C@H]1CC[C@H]2[C@@H]3[C@H](O)[C@H](O)[C@@H]4C[C@H](O)CC[C@]4(C)[C@H]3CC[C@]12C

>  <Structure_dimension>  (2506) 
2D

$$$$
MS2592
     RDKit          2D

 34 37  0  0  0  0  0  0  0  0999 V2000
   -1.8061   -4.3079    0.0000 C   0  0  0  0  0  0  0  0  0  0  0  0
   -1.0654   -3.0035    0.0000 C   0  0  0  0  0  0  0  0  0  0  0  0
   -1.8246   -1.7099    0.0000 C   0  0  0  0  0  0  0  0  0  0  0  0
   -3.3246   -1.7206    0.0000 C   0  0  0  0  0  0  0  0  0  0  0  0
   -4.0839   -0.4270    0.0000 C   0  0  0  0  0  0  0  0  0  0  0  0
   -3.3432    0.8774    0.0000 O   0  0  0  0  0  0  0  0  0  0  0  0
   -5.5838   -0.4377    0.0000 C   0  0  0  0  0  0  0  0  0  0  0  0
   -6.3431    0.8559    0.0000 C   0  0  0  0  0  0  0  0  0  0  0  0
   -7.8431    0.8452    0.0000 C   0  0  0  0  0  0  0  0  0  0  0  0
   -8.6024    2.1388    0.0000 C   0  0  0  0  0  0  0  0  0  0  0  0
  -10.1023    2.1281    0.0000 C   0  0  0  0  0  0  0  0  0  0  0  0
  -10.8430    0.8237    0.0000 O   0  0  0  0  0  0  0  0  0  0  0  0
  -10.8616    3.4217    0.0000 O   0  0  0  0  0  0  0  0  0  0  0  0
    0.4346   -2.9928    0.0000 C   0  0  0  0  0  0  0  0  0  0  0  0
    1.3249   -4.2000    0.0000 C   0  0  0  0  0  0  0  0  0  0  0  0
    2.7482   -3.7263    0.0000 C   0  0  0  0  0  0  0  0  0  0  0  0
    2.7374   -2.2263    0.0000 C   0  0  0  0  0  0  0  0  0  0  0  0
    3.8449   -1.2147    0.0000 C   0  0  0  0  0  0  0  0  0  0  0  0
    5.2748   -1.6680    0.0000 C   0  0  0  0  0  0  0  0  0  0  0  0
    6.3823   -0.6563    0.0000 C   0  0  0  0  0  0  0  0  0  0  0  0
    6.0600    0.8086    0.0000 C   0  0  0  0  0  0  0  0  0  0  0  0
    7.1675    1.8203    0.0000 C   0  0  0  0  0  0  0  0  0  0  0  0
    6.8451    3.2852    0.0000 C   0  0  0  0  0  0  0  0  0  0  0  0
    7.9526    4.2969    0.0000 O   0  0  0  0  0  0  0  0  0  0  0  0
    5.4152    3.7385    0.0000 C   0  0  0  0  0  0  0  0  0  0  0  0
    4.3077    2.7269    0.0000 C   0  0  0  0  0  0  0  0  0  0  0  0
    4.6301    1.2619    0.0000 C   0  0  0  0  0  0  0  0  0  0  0  0
    3.2002    1.7152    0.0000 C   0  0  0  0  0  0  0  0  0  0  0  0
    3.5226    0.2503    0.0000 C   0  0  0  0  0  0  0  0  0  0  0  0
    2.0927    0.7036    0.0000 C   0  0  0  0  0  0  0  0  0  0  0  0
    0.9852   -0.3080    0.0000 C   0  0  0  0  0  0  0  0  0  0  0  0
   -0.4447    0.1453    0.0000 O   0  0  0  0  0  0  0  0  0  0  0  0
    1.3076   -1.7730    0.0000 C   0  0  0  0  0  0  0  0  0  0  0  0
   -0.1619   -1.4716    0.0000 C   0  0  0  0  0  0  0  0  0  0  0  0
  2  1  1  6
  2  3  1  0
  3  4  1  0
  4  5  1  0
  5  6  2  0
  5  7  1  0
  7  8  2  0
  8  9  1  0
  9 10  1  0
 10 11  1  0
 11 12  2  0
 11 13  1  0
  2 14  1  0
 14 15  1  6
 15 16  1  0
 17 16  1  6
 17 18  1  0
 18 19  1  1
 19 20  1  0
 21 20  1  1
 21 22  1  0
 22 23  1  0
 23 24  1  1
 23 25  1  0
 25 26  1  0
 26 27  1  0
 27 28  1  6
 27 29  1  0
 29 30  1  6
 30 31  1  0
 31 32  1  1
 31 33  1  0
 33 34  1  6
 33 14  1  0
 33 17  1  0
 29 18  1  0
 27 21  1  0
M  END
>  <MS_ID>  (2507) 
MS2592

>  <SMILES>  (2507) 
C[C@H](CCC(=O)/C=C/CCC(=O)O)[C@H]1CC[C@H]2[C@@H]3CC[C@@H]4C[C@H](O)CC[C@]4(C)[C@H]3C[C@H](O)[C@]12C

>  <Structure_dimension>  (2507) 
2D

$$$$
MS2593
     RDKit          2D

 40 44  0  0  0  0  0  0  0  0999 V2000
   -7.7456   -2.0849    0.0000 C   0  0  0  0  0  0  0  0  0  0  0  0
   -6.5700   -1.1533    0.0000 C   0  0  0  0  0  0  0  0  0  0  0  0
   -6.7891    0.3307    0.0000 C   0  0  0  0  0  0  0  0  0  0  0  0
   -8.1837    0.8829    0.0000 C   0  0  0  0  0  0  0  0  0  0  0  0
   -8.4028    2.3668    0.0000 C   0  0  0  0  0  0  0  0  0  0  0  0
   -7.2273    3.2985    0.0000 O   0  0  0  0  0  0  0  0  0  0  0  0
   -9.7975    2.9190    0.0000 O   0  0  0  0  0  0  0  0  0  0  0  0
   -5.1754   -1.7055    0.0000 C   0  0  0  0  0  0  0  0  0  0  0  0
   -4.8024   -3.1584    0.0000 C   0  0  0  0  0  0  0  0  0  0  0  0
   -3.3053   -3.2526    0.0000 C   0  0  0  0  0  0  0  0  0  0  0  0
   -2.7531   -1.8579    0.0000 C   0  0  0  0  0  0  0  0  0  0  0  0
   -1.3472   -1.3351    0.0000 C   0  0  0  0  0  0  0  0  0  0  0  0
   -0.1914   -2.2913    0.0000 C   0  0  0  0  0  0  0  0  0  0  0  0
   -0.4416   -3.7703    0.0000 O   0  0  0  0  0  0  0  0  0  0  0  0
    1.2145   -1.7685    0.0000 C   0  0  0  0  0  0  0  0  0  0  0  0
    1.4647   -0.2895    0.0000 C   0  0  0  0  0  0  0  0  0  0  0  0
    2.8707    0.2333    0.0000 C   0  0  0  0  0  0  0  0  0  0  0  0
    3.1208    1.7123    0.0000 C   0  0  0  0  0  0  0  0  0  0  0  0
    4.5268    2.2352    0.0000 O   0  0  0  0  0  0  0  0  0  0  0  0
    5.6825    1.2790    0.0000 C   0  0  0  0  0  0  0  0  0  0  0  0
    5.4323   -0.2000    0.0000 O   0  0  0  0  0  0  0  0  0  0  0  0
    6.5881   -1.1562    0.0000 C   0  0  0  0  0  0  0  0  0  0  0  0
    6.3379   -2.6351    0.0000 C   0  0  0  0  0  0  0  0  0  0  0  0
    4.9320   -3.1580    0.0000 O   0  0  0  0  0  0  0  0  0  0  0  0
    7.9940   -0.6333    0.0000 C   0  0  0  0  0  0  0  0  0  0  0  0
    9.1498   -1.5895    0.0000 O   0  0  0  0  0  0  0  0  0  0  0  0
    8.2442    0.8456    0.0000 C   0  0  0  0  0  0  0  0  0  0  0  0
    9.6501    1.3685    0.0000 O   0  0  0  0  0  0  0  0  0  0  0  0
    7.0885    1.8018    0.0000 C   0  0  0  0  0  0  0  0  0  0  0  0
    7.3387    3.2808    0.0000 O   0  0  0  0  0  0  0  0  0  0  0  0
    1.9651    2.6685    0.0000 C   0  0  0  0  0  0  0  0  0  0  0  0
    0.5592    2.1457    0.0000 C   0  0  0  0  0  0  0  0  0  0  0  0
    0.3090    0.6667    0.0000 C   0  0  0  0  0  0  0  0  0  0  0  0
   -0.8468    1.6229    0.0000 C   0  0  0  0  0  0  0  0  0  0  0  0
   -1.0970    0.1439    0.0000 C   0  0  0  0  0  0  0  0  0  0  0  0
   -2.2527    1.1000    0.0000 C   0  0  0  0  0  0  0  0  0  0  0  0
   -3.6586    0.5772    0.0000 C   0  0  0  0  0  0  0  0  0  0  0  0
   -4.8144    1.5334    0.0000 O   0  0  0  0  0  0  0  0  0  0  0  0
   -3.9088   -0.9018    0.0000 C   0  0  0  0  0  0  0  0  0  0  0  0
   -5.1582   -0.0716    0.0000 C   0  0  0  0  0  0  0  0  0  0  0  0
  2  1  1  6
  2  3  1  0
  3  4  1  0
  4  5  1  0
  5  6  2  0
  5  7  1  0
  2  8  1  0
  8  9  1  6
  9 10  1  0
 11 10  1  6
 11 12  1  0
 12 13  1  1
 13 14  1  1
 13 15  1  0
 16 15  1  1
 16 17  1  0
 17 18  1  0
 18 19  1  1
 20 19  1  6
 20 21  1  0
 21 22  1  0
 22 23  1  1
 23 24  1  0
 22 25  1  0
 25 26  1  6
 25 27  1  0
 27 28  1  1
 27 29  1  0
 29 30  1  1
 18 31  1  0
 31 32  1  0
 32 33  1  0
 33 34  1  6
 33 35  1  0
 35 36  1  6
 36 37  1  0
 37 38  1  1
 37 39  1  0
 39 40  1  6
 39  8  1  0
 39 11  1  0
 35 12  1  0
 33 16  1  0
 29 20  1  0
M  END
>  <MS_ID>  (2508) 
MS2593

>  <SMILES>  (2508) 
C[C@H](CCC(=O)O)[C@H]1CC[C@H]2[C@@H]3[C@H](O)C[C@@H]4C[C@H](O[C@H]5O[C@H](CO)[C@@H](O)[C@H](O)[C@@H]5O)CC[C@]4(C)[C@H]3C[C@H](O)[C@]12C

>  <Structure_dimension>  (2508) 
2D

$$$$
MS2594
     RDKit          2D

 26 29  0  0  0  0  0  0  0  0999 V2000
   -6.8678    2.7447    0.0000 C   0  0  0  0  0  0  0  0  0  0  0  0
   -5.4619    2.2219    0.0000 C   0  0  0  0  0  0  0  0  0  0  0  0
   -4.3062    3.1780    0.0000 O   0  0  0  0  0  0  0  0  0  0  0  0
   -5.2117    0.7429    0.0000 C   0  0  0  0  0  0  0  0  0  0  0  0
   -3.8058    0.2201    0.0000 C   0  0  0  0  0  0  0  0  0  0  0  0
   -3.5555   -1.2589    0.0000 C   0  0  0  0  0  0  0  0  0  0  0  0
   -4.7113   -2.2151    0.0000 C   0  0  0  0  0  0  0  0  0  0  0  0
   -2.1496   -1.7817    0.0000 C   0  0  0  0  0  0  0  0  0  0  0  0
   -1.7462   -3.2265    0.0000 C   0  0  0  0  0  0  0  0  0  0  0  0
   -0.2475   -3.2892    0.0000 C   0  0  0  0  0  0  0  0  0  0  0  0
    0.2753   -1.8833    0.0000 C   0  0  0  0  0  0  0  0  0  0  0  0
    1.6700   -1.3310    0.0000 C   0  0  0  0  0  0  0  0  0  0  0  0
    2.8455   -2.2627    0.0000 C   0  0  0  0  0  0  0  0  0  0  0  0
    4.2402   -1.7105    0.0000 C   0  0  0  0  0  0  0  0  0  0  0  0
    4.4593   -0.2265    0.0000 C   0  0  0  0  0  0  0  0  0  0  0  0
    5.8539    0.3257    0.0000 C   0  0  0  0  0  0  0  0  0  0  0  0
    6.0730    1.8096    0.0000 C   0  0  0  0  0  0  0  0  0  0  0  0
    4.8974    2.7413    0.0000 C   0  0  0  0  0  0  0  0  0  0  0  0
    3.5027    2.1891    0.0000 C   0  0  0  0  0  0  0  0  0  0  0  0
    3.2837    0.7051    0.0000 C   0  0  0  0  0  0  0  0  0  0  0  0
    2.1081    1.6368    0.0000 C   0  0  0  0  0  0  0  0  0  0  0  0
    1.8890    0.1529    0.0000 C   0  0  0  0  0  0  0  0  0  0  0  0
    0.7135    1.0846    0.0000 C   0  0  0  0  0  0  0  0  0  0  0  0
   -0.6812    0.5323    0.0000 C   0  0  0  0  0  0  0  0  0  0  0  0
   -0.9002   -0.9516    0.0000 C   0  0  0  0  0  0  0  0  0  0  0  0
   -2.1668   -0.1479    0.0000 C   0  0  0  0  0  0  0  0  0  0  0  0
  1  2  1  0
  2  3  2  0
  2  4  1  0
  4  5  1  0
  5  6  1  0
  6  7  1  6
  6  8  1  0
  8  9  1  6
  9 10  1  0
 11 10  1  6
 11 12  1  0
 12 13  1  1
 13 14  1  0
 15 14  1  1
 15 16  1  0
 16 17  1  0
 17 18  1  0
 18 19  1  0
 19 20  1  0
 20 21  1  6
 20 22  1  0
 22 23  1  6
 23 24  1  0
 24 25  1  0
 25 26  1  6
 25  8  1  0
 25 11  1  0
 22 12  1  0
 20 15  1  0
M  END
>  <MS_ID>  (2509) 
MS2594

>  <SMILES>  (2509) 
CC(=O)CC[C@@H](C)[C@H]1CC[C@H]2[C@@H]3CC[C@@H]4CCCC[C@]4(C)[C@H]3CC[C@]12C

>  <Structure_dimension>  (2509) 
2D

$$$$
MS2595
     RDKit          2D

 30 33  0  0  0  0  0  0  0  0999 V2000
   -4.2255   -2.8134    0.0000 C   0  0  0  0  0  0  0  0  0  0  0  0
   -3.1320   -1.7867    0.0000 C   0  0  0  0  0  0  0  0  0  0  0  0
   -3.4744   -0.3263    0.0000 C   0  0  0  0  0  0  0  0  0  0  0  0
   -4.9104    0.1074    0.0000 C   0  0  0  0  0  0  0  0  0  0  0  0
   -5.2528    1.5677    0.0000 C   0  0  0  0  0  0  0  0  0  0  0  0
   -4.1593    2.5945    0.0000 O   0  0  0  0  0  0  0  0  0  0  0  0
   -6.6888    2.0014    0.0000 N   0  0  0  0  0  0  0  0  0  0  0  0
   -7.0312    3.4618    0.0000 C   0  0  0  0  0  0  0  0  0  0  0  0
   -7.7823    0.9746    0.0000 O   0  0  0  0  0  0  0  0  0  0  0  0
   -1.6961   -2.2203    0.0000 C   0  0  0  0  0  0  0  0  0  0  0  0
   -1.2029   -3.6369    0.0000 C   0  0  0  0  0  0  0  0  0  0  0  0
    0.2968   -3.6056    0.0000 C   0  0  0  0  0  0  0  0  0  0  0  0
    0.7305   -2.1697    0.0000 C   0  0  0  0  0  0  0  0  0  0  0  0
    2.0877   -1.5311    0.0000 C   0  0  0  0  0  0  0  0  0  0  0  0
    3.3194   -2.3873    0.0000 C   0  0  0  0  0  0  0  0  0  0  0  0
    4.6767   -1.7487    0.0000 C   0  0  0  0  0  0  0  0  0  0  0  0
    4.8023   -0.2540    0.0000 C   0  0  0  0  0  0  0  0  0  0  0  0
    6.1596    0.3846    0.0000 C   0  0  0  0  0  0  0  0  0  0  0  0
    6.2852    1.8794    0.0000 C   0  0  0  0  0  0  0  0  0  0  0  0
    7.6425    2.5179    0.0000 O   0  0  0  0  0  0  0  0  0  0  0  0
    5.0536    2.7355    0.0000 C   0  0  0  0  0  0  0  0  0  0  0  0
    3.6963    2.0969    0.0000 C   0  0  0  0  0  0  0  0  0  0  0  0
    3.5706    0.6022    0.0000 C   0  0  0  0  0  0  0  0  0  0  0  0
    2.3390    1.4584    0.0000 C   0  0  0  0  0  0  0  0  0  0  0  0
    2.2134   -0.0364    0.0000 C   0  0  0  0  0  0  0  0  0  0  0  0
    0.9817    0.8198    0.0000 C   0  0  0  0  0  0  0  0  0  0  0  0
   -0.3756    0.1812    0.0000 C   0  0  0  0  0  0  0  0  0  0  0  0
   -1.6072    1.0374    0.0000 O   0  0  0  0  0  0  0  0  0  0  0  0
   -0.5012   -1.3135    0.0000 C   0  0  0  0  0  0  0  0  0  0  0  0
   -1.8156   -0.5908    0.0000 C   0  0  0  0  0  0  0  0  0  0  0  0
  2  1  1  6
  2  3  1  0
  3  4  1  0
  4  5  1  0
  5  6  2  0
  5  7  1  0
  7  8  1  0
  7  9  1  0
  2 10  1  0
 10 11  1  6
 11 12  1  0
 13 12  1  6
 13 14  1  0
 14 15  1  1
 15 16  1  0
 17 16  1  1
 17 18  1  0
 18 19  1  0
 19 20  1  1
 19 21  1  0
 21 22  1  0
 22 23  1  0
 23 24  1  6
 23 25  1  0
 25 26  1  6
 26 27  1  0
 27 28  1  1
 27 29  1  0
 29 30  1  6
 29 10  1  0
 29 13  1  0
 25 14  1  0
 23 17  1  0
M  END
>  <MS_ID>  (2510) 
MS2595

>  <SMILES>  (2510) 
C[C@H](CCC(=O)N(C)O)[C@H]1CC[C@H]2[C@@H]3CC[C@@H]4C[C@H](O)CC[C@]4(C)[C@H]3C[C@H](O)[C@]12C

>  <Structure_dimension>  (2510) 
2D

$$$$
MS2596
     RDKit          2D

 29 32  0  0  0  0  0  0  0  0999 V2000
   -5.1421   -2.1269    0.0000 C   0  0  0  0  0  0  0  0  0  0  0  0
   -4.0091   -1.1439    0.0000 C   0  0  0  0  0  0  0  0  0  0  0  0
   -4.2938    0.3288    0.0000 C   0  0  0  0  0  0  0  0  0  0  0  0
   -5.7116    0.8186    0.0000 C   0  0  0  0  0  0  0  0  0  0  0  0
   -5.9963    2.2913    0.0000 C   0  0  0  0  0  0  0  0  0  0  0  0
   -4.8632    3.2743    0.0000 O   0  0  0  0  0  0  0  0  0  0  0  0
   -7.4141    2.7811    0.0000 O   0  0  0  0  0  0  0  0  0  0  0  0
   -2.5913   -1.6337    0.0000 C   0  0  0  0  0  0  0  0  0  0  0  0
   -2.1542   -3.0686    0.0000 C   0  0  0  0  0  0  0  0  0  0  0  0
   -0.6544   -3.0963    0.0000 C   0  0  0  0  0  0  0  0  0  0  0  0
   -0.1646   -1.6785    0.0000 C   0  0  0  0  0  0  0  0  0  0  0  0
    1.2167   -1.0938    0.0000 C   0  0  0  0  0  0  0  0  0  0  0  0
    2.4137   -1.9977    0.0000 C   0  0  0  0  0  0  0  0  0  0  0  0
    2.2294   -3.4864    0.0000 C   0  0  0  0  0  0  0  0  0  0  0  0
    3.4265   -4.3903    0.0000 O   0  0  0  0  0  0  0  0  0  0  0  0
    3.7951   -1.4130    0.0000 C   0  0  0  0  0  0  0  0  0  0  0  0
    3.9794    0.0756    0.0000 C   0  0  0  0  0  0  0  0  0  0  0  0
    5.3607    0.6603    0.0000 C   0  0  0  0  0  0  0  0  0  0  0  0
    5.5451    2.1489    0.0000 C   0  0  0  0  0  0  0  0  0  0  0  0
    6.9264    2.7336    0.0000 O   0  0  0  0  0  0  0  0  0  0  0  0
    4.3480    3.0529    0.0000 C   0  0  0  0  0  0  0  0  0  0  0  0
    2.9667    2.4682    0.0000 C   0  0  0  0  0  0  0  0  0  0  0  0
    2.7824    0.9795    0.0000 C   0  0  0  0  0  0  0  0  0  0  0  0
    1.5853    1.8835    0.0000 C   0  0  0  0  0  0  0  0  0  0  0  0
    1.4010    0.3948    0.0000 C   0  0  0  0  0  0  0  0  0  0  0  0
    0.2040    1.2988    0.0000 C   0  0  0  0  0  0  0  0  0  0  0  0
   -1.1774    0.7141    0.0000 C   0  0  0  0  0  0  0  0  0  0  0  0
   -1.3617   -0.7746    0.0000 C   0  0  0  0  0  0  0  0  0  0  0  0
   -2.6467   -0.0007    0.0000 C   0  0  0  0  0  0  0  0  0  0  0  0
  2  1  1  6
  2  3  1  0
  3  4  1  0
  4  5  1  0
  5  6  2  0
  5  7  1  0
  2  8  1  0
  8  9  1  6
  9 10  1  0
 11 10  1  6
 11 12  1  0
 12 13  1  1
 13 14  1  6
 14 15  1  0
 13 16  1  0
 17 16  1  1
 17 18  1  0
 18 19  1  0
 19 20  2  0
 19 21  1  0
 21 22  1  0
 22 23  1  0
 23 24  1  6
 23 25  1  0
 25 26  1  6
 26 27  1  0
 27 28  1  0
 28 29  1  6
 28  8  1  0
 28 11  1  0
 25 12  1  0
 23 17  1  0
M  END
>  <MS_ID>  (2511) 
MS2596

>  <SMILES>  (2511) 
C[C@H](CCC(=O)O)[C@H]1CC[C@H]2[C@@H]3[C@@H](CO)C[C@@H]4CC(=O)CC[C@]4(C)[C@H]3CC[C@]12C

>  <Structure_dimension>  (2511) 
2D

$$$$
MS2597
     RDKit          2D

 37 40  0  0  0  0  0  0  0  0999 V2000
   -1.3003   -4.3171    0.0000 C   0  0  0  0  0  0  0  0  0  0  0  0
   -0.6062   -2.9873    0.0000 C   0  0  0  0  0  0  0  0  0  0  0  0
   -1.4108   -1.7213    0.0000 C   0  0  0  0  0  0  0  0  0  0  0  0
   -2.9095   -1.7852    0.0000 C   0  0  0  0  0  0  0  0  0  0  0  0
   -3.7141   -0.5192    0.0000 C   0  0  0  0  0  0  0  0  0  0  0  0
   -3.0200    0.8106    0.0000 O   0  0  0  0  0  0  0  0  0  0  0  0
   -5.2127   -0.5830    0.0000 C   0  0  0  0  0  0  0  0  0  0  0  0
   -6.0173    0.6829    0.0000 C   0  0  0  0  0  0  0  0  0  0  0  0
   -7.5160    0.6191    0.0000 C   0  0  0  0  0  0  0  0  0  0  0  0
   -8.2100   -0.7107    0.0000 O   0  0  0  0  0  0  0  0  0  0  0  0
   -8.3205    1.8850    0.0000 N   0  0  0  0  0  0  0  0  0  0  0  0
   -9.8192    1.8212    0.0000 S   0  0  0  0  0  0  0  0  0  0  0  0
   -9.8830    3.3199    0.0000 O   0  0  0  0  0  0  0  0  0  0  0  0
   -9.7554    0.3226    0.0000 O   0  0  0  0  0  0  0  0  0  0  0  0
  -11.3178    1.7574    0.0000 O   0  0  0  0  0  0  0  0  0  0  0  0
    0.8924   -2.9235    0.0000 C   0  0  0  0  0  0  0  0  0  0  0  0
    1.8249   -4.0984    0.0000 C   0  0  0  0  0  0  0  0  0  0  0  0
    3.2305   -3.5746    0.0000 C   0  0  0  0  0  0  0  0  0  0  0  0
    3.1667   -2.0759    0.0000 C   0  0  0  0  0  0  0  0  0  0  0  0
    4.2377   -1.0257    0.0000 C   0  0  0  0  0  0  0  0  0  0  0  0
    5.6827   -1.4281    0.0000 C   0  0  0  0  0  0  0  0  0  0  0  0
    6.0567   -2.8808    0.0000 O   0  0  0  0  0  0  0  0  0  0  0  0
    6.7537   -0.3779    0.0000 C   0  0  0  0  0  0  0  0  0  0  0  0
    6.3797    1.0747    0.0000 C   0  0  0  0  0  0  0  0  0  0  0  0
    7.4507    2.1249    0.0000 C   0  0  0  0  0  0  0  0  0  0  0  0
    7.0766    3.5775    0.0000 C   0  0  0  0  0  0  0  0  0  0  0  0
    8.1477    4.6278    0.0000 O   0  0  0  0  0  0  0  0  0  0  0  0
    5.6316    3.9800    0.0000 C   0  0  0  0  0  0  0  0  0  0  0  0
    4.5606    2.9297    0.0000 C   0  0  0  0  0  0  0  0  0  0  0  0
    4.9346    1.4771    0.0000 C   0  0  0  0  0  0  0  0  0  0  0  0
    3.4896    1.8795    0.0000 C   0  0  0  0  0  0  0  0  0  0  0  0
    3.8636    0.4269    0.0000 C   0  0  0  0  0  0  0  0  0  0  0  0
    2.4186    0.8293    0.0000 C   0  0  0  0  0  0  0  0  0  0  0  0
    1.3476   -0.2209    0.0000 C   0  0  0  0  0  0  0  0  0  0  0  0
   -0.0974    0.1815    0.0000 O   0  0  0  0  0  0  0  0  0  0  0  0
    1.7216   -1.6735    0.0000 C   0  0  0  0  0  0  0  0  0  0  0  0
    0.2425   -1.4244    0.0000 C   0  0  0  0  0  0  0  0  0  0  0  0
  2  1  1  6
  2  3  1  0
  3  4  1  0
  4  5  1  0
  5  6  2  0
  5  7  1  0
  7  8  1  0
  8  9  1  0
  9 10  2  0
  9 11  1  0
 11 12  1  0
 12 13  2  0
 12 14  2  0
 12 15  1  0
  2 16  1  0
 16 17  1  6
 17 18  1  0
 19 18  1  6
 19 20  1  0
 20 21  1  1
 21 22  1  1
 21 23  1  0
 24 23  1  1
 24 25  1  0
 25 26  1  0
 26 27  1  1
 26 28  1  0
 28 29  1  0
 29 30  1  0
 30 31  1  6
 30 32  1  0
 32 33  1  6
 33 34  1  0
 34 35  1  1
 34 36  1  0
 36 37  1  6
 36 16  1  0
 36 19  1  0
 32 20  1  0
 30 24  1  0
M  END
>  <MS_ID>  (2512) 
MS2597

>  <SMILES>  (2512) 
C[C@H](CCC(=O)CCC(=O)NS(=O)(=O)O)[C@H]1CC[C@H]2[C@@H]3[C@H](O)C[C@@H]4C[C@H](O)CC[C@]4(C)[C@H]3C[C@H](O)[C@]12C

>  <Structure_dimension>  (2512) 
2D

$$$$
MS2598
     RDKit          2D

 32 35  0  0  0  0  0  0  0  0999 V2000
   -4.7512   -2.2590    0.0000 C   0  0  0  0  0  0  0  0  0  0  0  0
   -3.5912   -1.3080    0.0000 C   0  0  0  0  0  0  0  0  0  0  0  0
   -3.8347    0.1721    0.0000 C   0  0  0  0  0  0  0  0  0  0  0  0
   -5.2383    0.7012    0.0000 C   0  0  0  0  0  0  0  0  0  0  0  0
   -5.4818    2.1813    0.0000 C   0  0  0  0  0  0  0  0  0  0  0  0
   -4.3217    3.1323    0.0000 O   0  0  0  0  0  0  0  0  0  0  0  0
   -6.8853    2.7105    0.0000 O   0  0  0  0  0  0  0  0  0  0  0  0
   -2.1876   -1.8372    0.0000 C   0  0  0  0  0  0  0  0  0  0  0  0
   -1.7907   -3.2837    0.0000 C   0  0  0  0  0  0  0  0  0  0  0  0
   -0.2923   -3.3533    0.0000 C   0  0  0  0  0  0  0  0  0  0  0  0
    0.2368   -1.9497    0.0000 C   0  0  0  0  0  0  0  0  0  0  0  0
    1.6340   -1.4038    0.0000 C   0  0  0  0  0  0  0  0  0  0  0  0
    2.8053   -2.3408    0.0000 C   0  0  0  0  0  0  0  0  0  0  0  0
    2.5795   -3.8237    0.0000 O   0  0  0  0  0  0  0  0  0  0  0  0
    4.2024   -1.7948    0.0000 C   0  0  0  0  0  0  0  0  0  0  0  0
    4.4282   -0.3119    0.0000 C   0  0  0  0  0  0  0  0  0  0  0  0
    5.8253    0.2340    0.0000 C   0  0  0  0  0  0  0  0  0  0  0  0
    6.0511    1.7169    0.0000 C   0  0  0  0  0  0  0  0  0  0  0  0
    7.4483    2.2628    0.0000 O   0  0  0  0  0  0  0  0  0  0  0  0
    4.8798    2.6539    0.0000 C   0  0  0  0  0  0  0  0  0  0  0  0
    3.4826    2.1080    0.0000 C   0  0  0  0  0  0  0  0  0  0  0  0
    3.2569    0.6251    0.0000 C   0  0  0  0  0  0  0  0  0  0  0  0
    2.0855    1.5621    0.0000 C   0  0  0  0  0  0  0  0  0  0  0  0
    1.8597    0.0791    0.0000 C   0  0  0  0  0  0  0  0  0  0  0  0
    0.6884    1.0161    0.0000 C   0  0  0  0  0  0  0  0  0  0  0  0
   -0.7087    0.4702    0.0000 C   0  0  0  0  0  0  0  0  0  0  0  0
   -1.0038    1.9409    0.0000 O   0  0  0  0  0  0  0  0  0  0  0  0
   -2.2083    0.4350    0.0000 C   0  0  0  0  0  0  0  0  0  0  0  0
   -3.0317   -0.4584    0.0000 O   0  0  0  0  0  0  0  0  0  0  0  0
   -2.9886    1.7162    0.0000 O   0  0  0  0  0  0  0  0  0  0  0  0
   -0.9345   -1.0127    0.0000 C   0  0  0  0  0  0  0  0  0  0  0  0
   -2.2136   -0.5809    0.0000 C   0  0  0  0  0  0  0  0  0  0  0  0
  2  1  1  6
  2  3  1  0
  3  4  1  0
  4  5  1  0
  5  6  2  0
  5  7  1  0
  2  8  1  0
  8  9  1  6
  9 10  1  0
 11 10  1  6
 11 12  1  0
 12 13  1  1
 13 14  2  0
 13 15  1  0
 16 15  1  1
 16 17  1  0
 17 18  1  0
 18 19  1  1
 18 20  1  0
 20 21  1  0
 21 22  1  0
 22 23  1  6
 22 24  1  0
 24 25  1  6
 25 26  1  0
 26 27  1  1
 26 28  1  0
 28 29  2  0
 28 30  1  0
 26 31  1  0
 31 32  1  6
 31  8  1  0
 31 11  1  0
 24 12  1  0
 22 16  1  0
M  END
>  <MS_ID>  (2513) 
MS2598

>  <SMILES>  (2513) 
C[C@H](CCC(=O)O)[C@H]1CC[C@H]2[C@@H]3C(=O)C[C@@H]4C[C@H](O)CC[C@]4(C)[C@H]3C[C@@](O)(C(=O)O)[C@]12C

>  <Structure_dimension>  (2513) 
2D

$$$$
MS2599
     RDKit          2D

 29 32  0  0  0  0  0  0  0  0999 V2000
   -7.1069    2.8565    0.0000 C   0  0  0  0  0  0  0  0  0  0  0  0
   -5.7095    2.3112    0.0000 C   0  0  0  0  0  0  0  0  0  0  0  0
   -4.5386    3.2487    0.0000 O   0  0  0  0  0  0  0  0  0  0  0  0
   -5.4831    0.8284    0.0000 C   0  0  0  0  0  0  0  0  0  0  0  0
   -4.0858    0.2830    0.0000 C   0  0  0  0  0  0  0  0  0  0  0  0
   -3.8594   -1.1998    0.0000 C   0  0  0  0  0  0  0  0  0  0  0  0
   -5.0303   -2.1373    0.0000 C   0  0  0  0  0  0  0  0  0  0  0  0
   -2.4620   -1.7451    0.0000 C   0  0  0  0  0  0  0  0  0  0  0  0
   -2.0818   -3.1961    0.0000 C   0  0  0  0  0  0  0  0  0  0  0  0
   -0.5844   -3.2830    0.0000 C   0  0  0  0  0  0  0  0  0  0  0  0
   -0.0390   -1.8856    0.0000 C   0  0  0  0  0  0  0  0  0  0  0  0
    1.3643   -1.3559    0.0000 C   0  0  0  0  0  0  0  0  0  0  0  0
    2.5248   -2.3063    0.0000 C   0  0  0  0  0  0  0  0  0  0  0  0
    2.2819   -3.7865    0.0000 O   0  0  0  0  0  0  0  0  0  0  0  0
    3.9281   -1.7765    0.0000 C   0  0  0  0  0  0  0  0  0  0  0  0
    4.1710   -0.2963    0.0000 C   0  0  0  0  0  0  0  0  0  0  0  0
    5.5743    0.2334    0.0000 C   0  0  0  0  0  0  0  0  0  0  0  0
    5.8172    1.7136    0.0000 C   0  0  0  0  0  0  0  0  0  0  0  0
    7.2205    2.2434    0.0000 O   0  0  0  0  0  0  0  0  0  0  0  0
    4.6568    2.6641    0.0000 C   0  0  0  0  0  0  0  0  0  0  0  0
    3.2534    2.1343    0.0000 C   0  0  0  0  0  0  0  0  0  0  0  0
    3.0105    0.6541    0.0000 C   0  0  0  0  0  0  0  0  0  0  0  0
    1.8501    1.6046    0.0000 C   0  0  0  0  0  0  0  0  0  0  0  0
    1.6072    0.1244    0.0000 C   0  0  0  0  0  0  0  0  0  0  0  0
    0.4467    1.0748    0.0000 C   0  0  0  0  0  0  0  0  0  0  0  0
   -0.9566    0.5450    0.0000 C   0  0  0  0  0  0  0  0  0  0  0  0
   -2.1170    1.4955    0.0000 O   0  0  0  0  0  0  0  0  0  0  0  0
   -1.1995   -0.9352    0.0000 C   0  0  0  0  0  0  0  0  0  0  0  0
   -2.4529   -0.1112    0.0000 C   0  0  0  0  0  0  0  0  0  0  0  0
  1  2  1  0
  2  3  2  0
  2  4  1  0
  4  5  1  0
  5  6  1  0
  6  7  1  6
  6  8  1  0
  8  9  1  6
  9 10  1  0
 11 10  1  6
 11 12  1  0
 12 13  1  1
 13 14  1  1
 13 15  1  0
 16 15  1  1
 16 17  1  0
 17 18  1  0
 18 19  1  1
 18 20  1  0
 20 21  1  0
 21 22  1  0
 22 23  1  6
 22 24  1  0
 24 25  1  6
 25 26  1  0
 26 27  1  6
 26 28  1  0
 28 29  1  6
 28  8  1  0
 28 11  1  0
 24 12  1  0
 22 16  1  0
M  END
>  <MS_ID>  (2514) 
MS2599

>  <SMILES>  (2514) 
CC(=O)CC[C@@H](C)[C@H]1CC[C@H]2[C@@H]3[C@H](O)C[C@@H]4C[C@H](O)CC[C@]4(C)[C@H]3C[C@@H](O)[C@]12C

>  <Structure_dimension>  (2514) 
2D

$$$$
MS2600
     RDKit          2D

 32 35  0  0  0  0  0  0  0  0999 V2000
   -4.8407   -2.4489    0.0000 C   0  0  0  0  0  0  0  0  0  0  0  0
   -3.6903   -1.4861    0.0000 C   0  0  0  0  0  0  0  0  0  0  0  0
   -3.9489   -0.0086    0.0000 C   0  0  0  0  0  0  0  0  0  0  0  0
   -5.3578    0.5062    0.0000 C   0  0  0  0  0  0  0  0  0  0  0  0
   -5.6164    1.9838    0.0000 C   0  0  0  0  0  0  0  0  0  0  0  0
   -4.4661    2.9465    0.0000 O   0  0  0  0  0  0  0  0  0  0  0  0
   -7.0252    2.4986    0.0000 O   0  0  0  0  0  0  0  0  0  0  0  0
   -2.2815   -2.0010    0.0000 C   0  0  0  0  0  0  0  0  0  0  0  0
   -1.8699   -3.4434    0.0000 C   0  0  0  0  0  0  0  0  0  0  0  0
   -0.3709   -3.4977    0.0000 C   0  0  0  0  0  0  0  0  0  0  0  0
    0.1440   -2.0888    0.0000 C   0  0  0  0  0  0  0  0  0  0  0  0
    1.5355   -1.5287    0.0000 C   0  0  0  0  0  0  0  0  0  0  0  0
    2.7163   -2.4537    0.0000 C   0  0  0  0  0  0  0  0  0  0  0  0
    2.5056   -3.9388    0.0000 O   0  0  0  0  0  0  0  0  0  0  0  0
    4.1078   -1.8936    0.0000 C   0  0  0  0  0  0  0  0  0  0  0  0
    4.3185   -0.4085    0.0000 C   0  0  0  0  0  0  0  0  0  0  0  0
    5.7100    0.1517    0.0000 C   0  0  0  0  0  0  0  0  0  0  0  0
    5.9207    1.6368    0.0000 C   0  0  0  0  0  0  0  0  0  0  0  0
    7.3122    2.1969    0.0000 O   0  0  0  0  0  0  0  0  0  0  0  0
    4.7398    2.5618    0.0000 C   0  0  0  0  0  0  0  0  0  0  0  0
    3.3483    2.0017    0.0000 C   0  0  0  0  0  0  0  0  0  0  0  0
    3.1377    0.5166    0.0000 C   0  0  0  0  0  0  0  0  0  0  0  0
    1.9568    1.4416    0.0000 C   0  0  0  0  0  0  0  0  0  0  0  0
    1.7462   -0.0436    0.0000 C   0  0  0  0  0  0  0  0  0  0  0  0
    0.5653    0.8814    0.0000 C   0  0  0  0  0  0  0  0  0  0  0  0
   -0.8262    0.3213    0.0000 C   0  0  0  0  0  0  0  0  0  0  0  0
   -2.3203    0.4540    0.0000 C   0  0  0  0  0  0  0  0  0  0  0  0
   -1.1361    1.7889    0.0000 C   0  0  0  0  0  0  0  0  0  0  0  0
   -2.5621    2.2543    0.0000 O   0  0  0  0  0  0  0  0  0  0  0  0
   -0.0201    2.7912    0.0000 O   0  0  0  0  0  0  0  0  0  0  0  0
   -1.0368   -1.1638    0.0000 C   0  0  0  0  0  0  0  0  0  0  0  0
   -2.3955   -0.5282    0.0000 C   0  0  0  0  0  0  0  0  0  0  0  0
  2  1  1  6
  2  3  1  0
  3  4  1  0
  4  5  1  0
  5  6  2  0
  5  7  1  0
  2  8  1  0
  8  9  1  6
  9 10  1  0
 11 10  1  6
 11 12  1  0
 12 13  1  1
 13 14  1  1
 13 15  1  0
 16 15  1  1
 16 17  1  0
 17 18  1  0
 18 19  1  1
 18 20  1  0
 20 21  1  0
 21 22  1  0
 22 23  1  6
 22 24  1  0
 24 25  1  6
 25 26  1  0
 26 27  1  6
 26 28  1  0
 28 29  2  0
 28 30  1  0
 26 31  1  0
 31 32  1  6
 31  8  1  0
 31 11  1  0
 24 12  1  0
 22 16  1  0
M  END
>  <MS_ID>  (2515) 
MS2600

>  <SMILES>  (2515) 
C[C@H](CCC(=O)O)[C@H]1CC[C@H]2[C@@H]3[C@H](O)C[C@@H]4C[C@H](O)CC[C@]4(C)[C@H]3C[C@](C)(C(=O)O)[C@]12C

>  <Structure_dimension>  (2515) 
2D

$$$$
MS2601
     RDKit          2D

 35 38  0  0  0  0  0  0  0  0999 V2000
   -2.0200   -4.3028    0.0000 C   0  0  0  0  0  0  0  0  0  0  0  0
   -1.3087   -2.9822    0.0000 C   0  0  0  0  0  0  0  0  0  0  0  0
   -2.0967   -1.7059    0.0000 C   0  0  0  0  0  0  0  0  0  0  0  0
   -3.5960   -1.7502    0.0000 C   0  0  0  0  0  0  0  0  0  0  0  0
   -4.3840   -0.4738    0.0000 C   0  0  0  0  0  0  0  0  0  0  0  0
   -3.6727    0.8468    0.0000 O   0  0  0  0  0  0  0  0  0  0  0  0
   -5.8834   -0.5181    0.0000 C   0  0  0  0  0  0  0  0  0  0  0  0
   -6.6714    0.7582    0.0000 C   0  0  0  0  0  0  0  0  0  0  0  0
   -8.1707    0.7140    0.0000 C   0  0  0  0  0  0  0  0  0  0  0  0
   -8.9588    1.9903    0.0000 S   0  0  0  0  0  0  0  0  0  0  0  0
  -10.2351    1.2023    0.0000 O   0  0  0  0  0  0  0  0  0  0  0  0
   -7.6824    2.7783    0.0000 O   0  0  0  0  0  0  0  0  0  0  0  0
   -9.7468    3.2667    0.0000 O   0  0  0  0  0  0  0  0  0  0  0  0
    0.1907   -2.9379    0.0000 C   0  0  0  0  0  0  0  0  0  0  0  0
    1.1078   -4.1249    0.0000 C   0  0  0  0  0  0  0  0  0  0  0  0
    2.5201   -3.6195    0.0000 C   0  0  0  0  0  0  0  0  0  0  0  0
    2.4758   -2.1201    0.0000 C   0  0  0  0  0  0  0  0  0  0  0  0
    3.5604   -1.0840    0.0000 C   0  0  0  0  0  0  0  0  0  0  0  0
    5.0001   -1.5052    0.0000 C   0  0  0  0  0  0  0  0  0  0  0  0
    5.3551   -2.9626    0.0000 O   0  0  0  0  0  0  0  0  0  0  0  0
    6.0847   -0.4691    0.0000 C   0  0  0  0  0  0  0  0  0  0  0  0
    5.7296    0.9883    0.0000 C   0  0  0  0  0  0  0  0  0  0  0  0
    6.8142    2.0245    0.0000 C   0  0  0  0  0  0  0  0  0  0  0  0
    6.4592    3.4819    0.0000 C   0  0  0  0  0  0  0  0  0  0  0  0
    7.5438    4.5180    0.0000 O   0  0  0  0  0  0  0  0  0  0  0  0
    5.0196    3.9031    0.0000 C   0  0  0  0  0  0  0  0  0  0  0  0
    3.9350    2.8669    0.0000 C   0  0  0  0  0  0  0  0  0  0  0  0
    4.2900    1.4095    0.0000 C   0  0  0  0  0  0  0  0  0  0  0  0
    2.8503    1.8308    0.0000 C   0  0  0  0  0  0  0  0  0  0  0  0
    3.2054    0.3734    0.0000 C   0  0  0  0  0  0  0  0  0  0  0  0
    1.7657    0.7946    0.0000 C   0  0  0  0  0  0  0  0  0  0  0  0
    0.6811   -0.2416    0.0000 C   0  0  0  0  0  0  0  0  0  0  0  0
   -0.7585    0.1797    0.0000 O   0  0  0  0  0  0  0  0  0  0  0  0
    1.0362   -1.6989    0.0000 C   0  0  0  0  0  0  0  0  0  0  0  0
   -0.4396   -1.4305    0.0000 C   0  0  0  0  0  0  0  0  0  0  0  0
  2  1  1  6
  2  3  1  0
  3  4  1  0
  4  5  1  0
  5  6  2  0
  5  7  1  0
  7  8  2  0
  8  9  1  0
  9 10  1  0
 10 11  2  0
 10 12  2  0
 10 13  1  0
  2 14  1  0
 14 15  1  6
 15 16  1  0
 17 16  1  6
 17 18  1  0
 18 19  1  1
 19 20  1  1
 19 21  1  0
 22 21  1  1
 22 23  1  0
 23 24  1  0
 24 25  1  1
 24 26  1  0
 26 27  1  0
 27 28  1  0
 28 29  1  6
 28 30  1  0
 30 31  1  6
 31 32  1  0
 32 33  1  1
 32 34  1  0
 34 35  1  6
 34 14  1  0
 34 17  1  0
 30 18  1  0
 28 22  1  0
M  END
>  <MS_ID>  (2516) 
MS2601

>  <SMILES>  (2516) 
C[C@H](CCC(=O)/C=C/CS(=O)(=O)O)[C@H]1CC[C@H]2[C@@H]3[C@H](O)C[C@@H]4C[C@H](O)CC[C@]4(C)[C@H]3C[C@H](O)[C@]12C

>  <Structure_dimension>  (2516) 
2D

$$$$
MS2602
     RDKit          2D

 32 35  0  0  0  0  0  0  0  0999 V2000
   -3.2905   -3.6805    0.0000 C   0  0  0  0  0  0  0  0  0  0  0  0
   -2.3609   -2.5033    0.0000 C   0  0  0  0  0  0  0  0  0  0  0  0
   -2.9157   -1.1096    0.0000 C   0  0  0  0  0  0  0  0  0  0  0  0
   -4.4000   -0.8932    0.0000 C   0  0  0  0  0  0  0  0  0  0  0  0
   -4.9547    0.5004    0.0000 C   0  0  0  0  0  0  0  0  0  0  0  0
   -4.0251    1.6776    0.0000 O   0  0  0  0  0  0  0  0  0  0  0  0
   -6.4390    0.7168    0.0000 N   0  0  0  0  0  0  0  0  0  0  0  0
   -6.9938    2.1105    0.0000 S   0  0  0  0  0  0  0  0  0  0  0  0
   -8.3874    1.5557    0.0000 O   0  0  0  0  0  0  0  0  0  0  0  0
   -5.6001    2.6652    0.0000 O   0  0  0  0  0  0  0  0  0  0  0  0
   -7.5485    3.5041    0.0000 O   0  0  0  0  0  0  0  0  0  0  0  0
   -0.8766   -2.7197    0.0000 C   0  0  0  0  0  0  0  0  0  0  0  0
   -0.1792   -4.0477    0.0000 C   0  0  0  0  0  0  0  0  0  0  0  0
    1.2993   -3.7949    0.0000 C   0  0  0  0  0  0  0  0  0  0  0  0
    1.5157   -2.3106    0.0000 C   0  0  0  0  0  0  0  0  0  0  0  0
    2.7636   -1.4782    0.0000 C   0  0  0  0  0  0  0  0  0  0  0  0
    4.1084   -2.1427    0.0000 C   0  0  0  0  0  0  0  0  0  0  0  0
    5.3562   -1.3103    0.0000 C   0  0  0  0  0  0  0  0  0  0  0  0
    5.2593    0.1866    0.0000 C   0  0  0  0  0  0  0  0  0  0  0  0
    6.5071    1.0189    0.0000 C   0  0  0  0  0  0  0  0  0  0  0  0
    6.4102    2.5158    0.0000 C   0  0  0  0  0  0  0  0  0  0  0  0
    7.6581    3.3482    0.0000 O   0  0  0  0  0  0  0  0  0  0  0  0
    5.0654    3.1803    0.0000 C   0  0  0  0  0  0  0  0  0  0  0  0
    3.8176    2.3479    0.0000 C   0  0  0  0  0  0  0  0  0  0  0  0
    3.9145    0.8511    0.0000 C   0  0  0  0  0  0  0  0  0  0  0  0
    2.5697    1.5155    0.0000 C   0  0  0  0  0  0  0  0  0  0  0  0
    2.6666    0.0187    0.0000 C   0  0  0  0  0  0  0  0  0  0  0  0
    1.3218    0.6832    0.0000 C   0  0  0  0  0  0  0  0  0  0  0  0
    0.0740   -0.1492    0.0000 C   0  0  0  0  0  0  0  0  0  0  0  0
   -1.2708    0.5153    0.0000 O   0  0  0  0  0  0  0  0  0  0  0  0
    0.1709   -1.6461    0.0000 C   0  0  0  0  0  0  0  0  0  0  0  0
   -1.2360   -1.1258    0.0000 C   0  0  0  0  0  0  0  0  0  0  0  0
  2  1  1  6
  2  3  1  0
  3  4  1  0
  4  5  1  0
  5  6  2  0
  5  7  1  0
  7  8  1  0
  8  9  2  0
  8 10  2  0
  8 11  1  0
  2 12  1  0
 12 13  1  6
 13 14  1  0
 15 14  1  6
 15 16  1  0
 16 17  1  1
 17 18  1  0
 19 18  1  1
 19 20  1  0
 20 21  1  0
 21 22  1  6
 21 23  1  0
 23 24  1  0
 24 25  1  0
 25 26  1  6
 25 27  1  0
 27 28  1  6
 28 29  1  0
 29 30  1  1
 29 31  1  0
 31 32  1  6
 31 12  1  0
 31 15  1  0
 27 16  1  0
 25 19  1  0
M  END
>  <MS_ID>  (2517) 
MS2602

>  <SMILES>  (2517) 
C[C@H](CCC(=O)NS(=O)(=O)O)[C@H]1CC[C@H]2[C@@H]3CC[C@@H]4C[C@@H](O)CC[C@]4(C)[C@H]3C[C@H](O)[C@]12C

>  <Structure_dimension>  (2517) 
2D

$$$$
MS2603
     RDKit          2D

 35 38  0  0  0  0  0  0  0  0999 V2000
  -12.9086    2.6462    0.0000 C   0  0  0  0  0  0  0  0  0  0  0  0
  -11.4123    2.7524    0.0000 C   0  0  0  0  0  0  0  0  0  0  0  0
  -10.5723    1.5097    0.0000 C   0  0  0  0  0  0  0  0  0  0  0  0
   -9.0760    1.6159    0.0000 C   0  0  0  0  0  0  0  0  0  0  0  0
   -8.2360    0.3732    0.0000 C   0  0  0  0  0  0  0  0  0  0  0  0
   -6.7397    0.4794    0.0000 C   0  0  0  0  0  0  0  0  0  0  0  0
   -5.8997   -0.7633    0.0000 C   0  0  0  0  0  0  0  0  0  0  0  0
   -4.4034   -0.6571    0.0000 C   0  0  0  0  0  0  0  0  0  0  0  0
   -3.7473    0.6917    0.0000 O   0  0  0  0  0  0  0  0  0  0  0  0
   -3.5634   -1.8998    0.0000 C   0  0  0  0  0  0  0  0  0  0  0  0
   -2.0671   -1.7936    0.0000 C   0  0  0  0  0  0  0  0  0  0  0  0
   -1.2271   -3.0363    0.0000 C   0  0  0  0  0  0  0  0  0  0  0  0
   -1.8832   -4.3852    0.0000 C   0  0  0  0  0  0  0  0  0  0  0  0
    0.2692   -2.9302    0.0000 C   0  0  0  0  0  0  0  0  0  0  0  0
    1.2345   -4.0782    0.0000 C   0  0  0  0  0  0  0  0  0  0  0  0
    2.6247   -3.5149    0.0000 C   0  0  0  0  0  0  0  0  0  0  0  0
    2.5186   -2.0187    0.0000 C   0  0  0  0  0  0  0  0  0  0  0  0
    3.5594   -0.9386    0.0000 C   0  0  0  0  0  0  0  0  0  0  0  0
    5.0153   -1.3000    0.0000 C   0  0  0  0  0  0  0  0  0  0  0  0
    5.4302   -2.7414    0.0000 O   0  0  0  0  0  0  0  0  0  0  0  0
    6.0561   -0.2199    0.0000 C   0  0  0  0  0  0  0  0  0  0  0  0
    7.5120   -0.5813    0.0000 O   0  0  0  0  0  0  0  0  0  0  0  0
    5.6412    1.2216    0.0000 C   0  0  0  0  0  0  0  0  0  0  0  0
    6.6821    2.3017    0.0000 C   0  0  0  0  0  0  0  0  0  0  0  0
    6.2671    3.7431    0.0000 C   0  0  0  0  0  0  0  0  0  0  0  0
    7.3080    4.8232    0.0000 O   0  0  0  0  0  0  0  0  0  0  0  0
    4.8113    4.1045    0.0000 C   0  0  0  0  0  0  0  0  0  0  0  0
    3.7704    3.0244    0.0000 C   0  0  0  0  0  0  0  0  0  0  0  0
    4.1854    1.5830    0.0000 C   0  0  0  0  0  0  0  0  0  0  0  0
    2.7296    1.9444    0.0000 C   0  0  0  0  0  0  0  0  0  0  0  0
    3.1445    0.5029    0.0000 C   0  0  0  0  0  0  0  0  0  0  0  0
    1.6887    0.8643    0.0000 C   0  0  0  0  0  0  0  0  0  0  0  0
    0.6478   -0.2158    0.0000 C   0  0  0  0  0  0  0  0  0  0  0  0
    1.0628   -1.6573    0.0000 C   0  0  0  0  0  0  0  0  0  0  0  0
   -0.4229   -1.4500    0.0000 C   0  0  0  0  0  0  0  0  0  0  0  0
  1  2  1  0
  2  3  1  0
  3  4  1  0
  4  5  1  0
  5  6  1  0
  6  7  1  0
  7  8  1  0
  8  9  2  0
  8 10  1  0
 10 11  1  0
 11 12  1  0
 12 13  1  6
 12 14  1  0
 14 15  1  6
 15 16  1  0
 17 16  1  6
 17 18  1  0
 18 19  1  1
 19 20  1  1
 19 21  1  0
 21 22  1  1
 21 23  1  0
 23 24  1  1
 24 25  1  0
 25 26  1  1
 25 27  1  0
 27 28  1  0
 28 29  1  0
 29 30  1  6
 29 31  1  0
 31 32  1  6
 32 33  1  0
 33 34  1  0
 34 35  1  6
 34 14  1  0
 34 17  1  0
 31 18  1  0
 29 23  1  0
M  END
>  <MS_ID>  (2518) 
MS2603

>  <SMILES>  (2518) 
CCCCCCCC(=O)CC[C@@H](C)[C@H]1CC[C@H]2[C@@H]3[C@H](O)[C@H](O)[C@@H]4C[C@H](O)CC[C@]4(C)[C@H]3CC[C@]12C

>  <Structure_dimension>  (2518) 
2D

$$$$
MS2604
     RDKit          2D

 38 42  0  0  0  0  0  0  0  0999 V2000
   -8.0678   -2.1158    0.0000 C   0  0  0  0  0  0  0  0  0  0  0  0
   -6.8975   -1.1776    0.0000 C   0  0  0  0  0  0  0  0  0  0  0  0
   -7.1249    0.3051    0.0000 C   0  0  0  0  0  0  0  0  0  0  0  0
   -8.5226    0.8495    0.0000 C   0  0  0  0  0  0  0  0  0  0  0  0
   -8.7500    2.3322    0.0000 C   0  0  0  0  0  0  0  0  0  0  0  0
   -7.5796    3.2704    0.0000 O   0  0  0  0  0  0  0  0  0  0  0  0
  -10.1477    2.8766    0.0000 O   0  0  0  0  0  0  0  0  0  0  0  0
   -5.4998   -1.7220    0.0000 C   0  0  0  0  0  0  0  0  0  0  0  0
   -5.1187   -3.1728    0.0000 C   0  0  0  0  0  0  0  0  0  0  0  0
   -3.6211   -3.2586    0.0000 C   0  0  0  0  0  0  0  0  0  0  0  0
   -3.0767   -1.8609    0.0000 C   0  0  0  0  0  0  0  0  0  0  0  0
   -1.6737   -1.3302    0.0000 C   0  0  0  0  0  0  0  0  0  0  0  0
   -0.5126   -2.2799    0.0000 C   0  0  0  0  0  0  0  0  0  0  0  0
   -0.7546   -3.7603    0.0000 O   0  0  0  0  0  0  0  0  0  0  0  0
    0.8904   -1.7492    0.0000 C   0  0  0  0  0  0  0  0  0  0  0  0
    1.1323   -0.2689    0.0000 C   0  0  0  0  0  0  0  0  0  0  0  0
    2.5353    0.2618    0.0000 C   0  0  0  0  0  0  0  0  0  0  0  0
    2.7772    1.7422    0.0000 C   0  0  0  0  0  0  0  0  0  0  0  0
    4.1802    2.2728    0.0000 N   0  0  0  0  0  0  0  0  0  0  0  0
    5.3412    1.3232    0.0000 C   0  0  0  0  0  0  0  0  0  0  0  0
    5.0993   -0.1572    0.0000 O   0  0  0  0  0  0  0  0  0  0  0  0
    6.7442    1.8538    0.0000 N   0  0  0  0  0  0  0  0  0  0  0  0
    7.9053    0.9041    0.0000 C   0  0  0  0  0  0  0  0  0  0  0  0
    7.6634   -0.5762    0.0000 C   0  0  0  0  0  0  0  0  0  0  0  0
    8.8245   -1.5259    0.0000 C   0  0  0  0  0  0  0  0  0  0  0  0
   10.2275   -0.9952    0.0000 C   0  0  0  0  0  0  0  0  0  0  0  0
   11.3885   -1.9449    0.0000 O   0  0  0  0  0  0  0  0  0  0  0  0
   10.4694    0.4851    0.0000 C   0  0  0  0  0  0  0  0  0  0  0  0
    9.3083    1.4348    0.0000 C   0  0  0  0  0  0  0  0  0  0  0  0
    1.6161    2.6919    0.0000 C   0  0  0  0  0  0  0  0  0  0  0  0
    0.2131    2.1612    0.0000 C   0  0  0  0  0  0  0  0  0  0  0  0
   -0.0288    0.6808    0.0000 C   0  0  0  0  0  0  0  0  0  0  0  0
   -1.1899    1.6305    0.0000 C   0  0  0  0  0  0  0  0  0  0  0  0
   -1.4318    0.1501    0.0000 C   0  0  0  0  0  0  0  0  0  0  0  0
   -2.5929    1.0998    0.0000 C   0  0  0  0  0  0  0  0  0  0  0  0
   -3.9959    0.5691    0.0000 C   0  0  0  0  0  0  0  0  0  0  0  0
   -4.2378   -0.9112    0.0000 C   0  0  0  0  0  0  0  0  0  0  0  0
   -5.4918   -0.0881    0.0000 C   0  0  0  0  0  0  0  0  0  0  0  0
  2  1  1  6
  2  3  1  0
  3  4  1  0
  4  5  1  0
  5  6  2  0
  5  7  1  0
  2  8  1  0
  8  9  1  6
  9 10  1  0
 11 10  1  6
 11 12  1  0
 12 13  1  1
 13 14  1  6
 13 15  1  0
 16 15  1  1
 16 17  1  0
 17 18  1  0
 18 19  1  1
 19 20  1  0
 20 21  2  0
 20 22  1  0
 22 23  1  0
 23 24  2  0
 24 25  1  0
 25 26  2  0
 26 27  1  0
 26 28  1  0
 28 29  2  0
 18 30  1  0
 30 31  1  0
 31 32  1  0
 32 33  1  6
 32 34  1  0
 34 35  1  6
 35 36  1  0
 36 37  1  0
 37 38  1  6
 37  8  1  0
 37 11  1  0
 34 12  1  0
 32 16  1  0
 29 23  1  0
M  END
>  <MS_ID>  (2519) 
MS2604

>  <SMILES>  (2519) 
C[C@H](CCC(=O)O)[C@H]1CC[C@H]2[C@@H]3[C@@H](O)C[C@@H]4C[C@H](NC(=O)Nc5ccc(O)cc5)CC[C@]4(C)[C@H]3CC[C@]12C

>  <Structure_dimension>  (2519) 
2D

$$$$
MS2605
     RDKit          2D

 34 38  0  0  0  0  0  0  0  0999 V2000
   -2.6584   -3.5322    0.0000 C   0  0  0  0  0  0  0  0  0  0  0  0
   -1.7097   -2.3702    0.0000 C   0  0  0  0  0  0  0  0  0  0  0  0
   -2.2417   -0.9677    0.0000 C   0  0  0  0  0  0  0  0  0  0  0  0
   -3.7222   -0.7271    0.0000 C   0  0  0  0  0  0  0  0  0  0  0  0
   -4.2542    0.6754    0.0000 C   0  0  0  0  0  0  0  0  0  0  0  0
   -3.3055    1.8373    0.0000 O   0  0  0  0  0  0  0  0  0  0  0  0
   -5.7348    0.9160    0.0000 C   0  0  0  0  0  0  0  0  0  0  0  0
   -6.2667    2.3185    0.0000 C   0  0  0  0  0  0  0  0  0  0  0  0
   -7.7473    2.5591    0.0000 C   0  0  0  0  0  0  0  0  0  0  0  0
   -8.6959    1.3971    0.0000 C   0  0  0  0  0  0  0  0  0  0  0  0
  -10.1765    1.6377    0.0000 F   0  0  0  0  0  0  0  0  0  0  0  0
   -8.1640   -0.0054    0.0000 C   0  0  0  0  0  0  0  0  0  0  0  0
   -6.6834   -0.2460    0.0000 C   0  0  0  0  0  0  0  0  0  0  0  0
   -0.2291   -2.6108    0.0000 C   0  0  0  0  0  0  0  0  0  0  0  0
    0.4465   -3.9500    0.0000 C   0  0  0  0  0  0  0  0  0  0  0  0
    1.9290   -3.7213    0.0000 C   0  0  0  0  0  0  0  0  0  0  0  0
    2.1695   -2.2407    0.0000 C   0  0  0  0  0  0  0  0  0  0  0  0
    3.4308   -1.4288    0.0000 C   0  0  0  0  0  0  0  0  0  0  0  0
    4.7646   -2.1152    0.0000 C   0  0  0  0  0  0  0  0  0  0  0  0
    6.0258   -1.3033    0.0000 C   0  0  0  0  0  0  0  0  0  0  0  0
    5.9533    0.1950    0.0000 C   0  0  0  0  0  0  0  0  0  0  0  0
    7.2146    1.0069    0.0000 C   0  0  0  0  0  0  0  0  0  0  0  0
    7.1421    2.5052    0.0000 C   0  0  0  0  0  0  0  0  0  0  0  0
    8.4034    3.3171    0.0000 O   0  0  0  0  0  0  0  0  0  0  0  0
    5.8083    3.1915    0.0000 C   0  0  0  0  0  0  0  0  0  0  0  0
    4.5471    2.3796    0.0000 C   0  0  0  0  0  0  0  0  0  0  0  0
    4.6196    0.8813    0.0000 C   0  0  0  0  0  0  0  0  0  0  0  0
    3.2858    1.5677    0.0000 C   0  0  0  0  0  0  0  0  0  0  0  0
    3.3583    0.0694    0.0000 C   0  0  0  0  0  0  0  0  0  0  0  0
    2.0245    0.7558    0.0000 C   0  0  0  0  0  0  0  0  0  0  0  0
    0.7633   -0.0562    0.0000 C   0  0  0  0  0  0  0  0  0  0  0  0
   -0.5705    0.6302    0.0000 O   0  0  0  0  0  0  0  0  0  0  0  0
    0.8358   -1.5544    0.0000 C   0  0  0  0  0  0  0  0  0  0  0  0
   -0.5624   -1.0113    0.0000 C   0  0  0  0  0  0  0  0  0  0  0  0
  2  1  1  6
  2  3  1  0
  3  4  1  0
  4  5  1  0
  5  6  2  0
  5  7  1  0
  7  8  2  0
  8  9  1  0
  9 10  2  0
 10 11  1  0
 10 12  1  0
 12 13  2  0
  2 14  1  0
 14 15  1  6
 15 16  1  0
 17 16  1  6
 17 18  1  0
 18 19  1  1
 19 20  1  0
 21 20  1  1
 21 22  1  0
 22 23  1  0
 23 24  1  1
 23 25  1  0
 25 26  1  0
 26 27  1  0
 27 28  1  6
 27 29  1  0
 29 30  1  6
 30 31  1  0
 31 32  1  1
 31 33  1  0
 33 34  1  6
 13  7  1  0
 33 14  1  0
 33 17  1  0
 29 18  1  0
 27 21  1  0
M  END
>  <MS_ID>  (2520) 
MS2605

>  <SMILES>  (2520) 
C[C@H](CCC(=O)c1ccc(F)cc1)[C@H]1CC[C@H]2[C@@H]3CC[C@@H]4C[C@H](O)CC[C@]4(C)[C@H]3C[C@H](O)[C@]12C

>  <Structure_dimension>  (2520) 
2D

$$$$
MS2606
     RDKit          2D

 36 41  0  0  0  0  0  0  0  0999 V2000
   -1.8663   -4.1515    0.0000 C   0  0  0  0  0  0  0  0  0  0  0  0
   -1.0618   -2.8854    0.0000 C   0  0  0  0  0  0  0  0  0  0  0  0
   -1.7560   -1.5557    0.0000 C   0  0  0  0  0  0  0  0  0  0  0  0
   -3.2547   -1.4921    0.0000 C   0  0  0  0  0  0  0  0  0  0  0  0
   -3.9489   -0.1624    0.0000 C   0  0  0  0  0  0  0  0  0  0  0  0
   -3.1444    1.1036    0.0000 O   0  0  0  0  0  0  0  0  0  0  0  0
   -5.4475   -0.0987    0.0000 C   0  0  0  0  0  0  0  0  0  0  0  0
   -6.3799   -1.2738    0.0000 C   0  0  0  0  0  0  0  0  0  0  0  0
   -7.7855   -0.7501    0.0000 N   0  0  0  0  0  0  0  0  0  0  0  0
   -7.7219    0.7485    0.0000 C   0  0  0  0  0  0  0  0  0  0  0  0
   -8.7930    1.7986    0.0000 C   0  0  0  0  0  0  0  0  0  0  0  0
   -8.4192    3.2513    0.0000 C   0  0  0  0  0  0  0  0  0  0  0  0
   -6.9742    3.6539    0.0000 C   0  0  0  0  0  0  0  0  0  0  0  0
   -5.9031    2.6038    0.0000 C   0  0  0  0  0  0  0  0  0  0  0  0
   -6.2769    1.1511    0.0000 C   0  0  0  0  0  0  0  0  0  0  0  0
    0.4368   -2.9491    0.0000 C   0  0  0  0  0  0  0  0  0  0  0  0
    1.2662   -4.1989    0.0000 C   0  0  0  0  0  0  0  0  0  0  0  0
    2.7112   -3.7963    0.0000 C   0  0  0  0  0  0  0  0  0  0  0  0
    2.7748   -2.2977    0.0000 C   0  0  0  0  0  0  0  0  0  0  0  0
    3.9311   -1.3422    0.0000 C   0  0  0  0  0  0  0  0  0  0  0  0
    5.3368   -1.8658    0.0000 C   0  0  0  0  0  0  0  0  0  0  0  0
    6.4931   -0.9104    0.0000 C   0  0  0  0  0  0  0  0  0  0  0  0
    6.2437    0.5688    0.0000 C   0  0  0  0  0  0  0  0  0  0  0  0
    7.4000    1.5243    0.0000 C   0  0  0  0  0  0  0  0  0  0  0  0
    7.1507    3.0034    0.0000 C   0  0  0  0  0  0  0  0  0  0  0  0
    8.3070    3.9589    0.0000 O   0  0  0  0  0  0  0  0  0  0  0  0
    5.7451    3.5270    0.0000 C   0  0  0  0  0  0  0  0  0  0  0  0
    4.5888    2.5716    0.0000 C   0  0  0  0  0  0  0  0  0  0  0  0
    4.8381    1.0924    0.0000 C   0  0  0  0  0  0  0  0  0  0  0  0
    3.4325    1.6161    0.0000 C   0  0  0  0  0  0  0  0  0  0  0  0
    3.6818    0.1369    0.0000 C   0  0  0  0  0  0  0  0  0  0  0  0
    2.2762    0.6606    0.0000 C   0  0  0  0  0  0  0  0  0  0  0  0
    1.1199   -0.2949    0.0000 C   0  0  0  0  0  0  0  0  0  0  0  0
   -0.2858    0.2287    0.0000 O   0  0  0  0  0  0  0  0  0  0  0  0
    1.3692   -1.7741    0.0000 C   0  0  0  0  0  0  0  0  0  0  0  0
   -0.0835   -1.4002    0.0000 C   0  0  0  0  0  0  0  0  0  0  0  0
  2  1  1  6
  2  3  1  0
  3  4  1  0
  4  5  1  0
  5  6  2  0
  5  7  1  0
  7  8  2  0
  8  9  1  0
  9 10  1  0
 10 11  2  0
 11 12  1  0
 12 13  2  0
 13 14  1  0
 14 15  2  0
  2 16  1  0
 16 17  1  6
 17 18  1  0
 19 18  1  6
 19 20  1  0
 20 21  1  1
 21 22  1  0
 23 22  1  1
 23 24  1  0
 24 25  1  0
 25 26  1  1
 25 27  1  0
 27 28  1  0
 28 29  1  0
 29 30  1  6
 29 31  1  0
 31 32  1  6
 32 33  1  0
 33 34  1  1
 33 35  1  0
 35 36  1  6
 15  7  1  0
 35 16  1  0
 15 10  1  0
 35 19  1  0
 31 20  1  0
 29 23  1  0
M  END
>  <MS_ID>  (2521) 
MS2606

>  <SMILES>  (2521) 
C[C@H](CCC(=O)c1c[nH]c2ccccc12)[C@H]1CC[C@H]2[C@@H]3CC[C@@H]4C[C@H](O)CC[C@]4(C)[C@H]3C[C@H](O)[C@]12C

>  <Structure_dimension>  (2521) 
2D

$$$$
MS2607
     RDKit          2D

 37 41  0  0  0  0  0  0  0  0999 V2000
   -1.8153   -3.9633    0.0000 C   0  0  0  0  0  0  0  0  0  0  0  0
   -1.0299   -2.6853    0.0000 C   0  0  0  0  0  0  0  0  0  0  0  0
   -1.7439   -1.3662    0.0000 C   0  0  0  0  0  0  0  0  0  0  0  0
   -3.2434   -1.3249    0.0000 C   0  0  0  0  0  0  0  0  0  0  0  0
   -3.9574   -0.0058    0.0000 C   0  0  0  0  0  0  0  0  0  0  0  0
   -3.1719    1.2721    0.0000 O   0  0  0  0  0  0  0  0  0  0  0  0
   -5.4568    0.0354    0.0000 O   0  0  0  0  0  0  0  0  0  0  0  0
   -6.1708    1.3546    0.0000 C   0  0  0  0  0  0  0  0  0  0  0  0
   -7.6702    1.3958    0.0000 C   0  0  0  0  0  0  0  0  0  0  0  0
   -8.3843    2.7150    0.0000 C   0  0  0  0  0  0  0  0  0  0  0  0
   -9.8837    2.7562    0.0000 C   0  0  0  0  0  0  0  0  0  0  0  0
  -10.6691    1.4783    0.0000 C   0  0  0  0  0  0  0  0  0  0  0  0
   -9.9551    0.1591    0.0000 C   0  0  0  0  0  0  0  0  0  0  0  0
  -10.7405   -1.1188    0.0000 O   0  0  0  0  0  0  0  0  0  0  0  0
   -8.4557    0.1179    0.0000 C   0  0  0  0  0  0  0  0  0  0  0  0
    0.4695   -2.7266    0.0000 C   0  0  0  0  0  0  0  0  0  0  0  0
    1.3175   -3.9639    0.0000 C   0  0  0  0  0  0  0  0  0  0  0  0
    2.7563   -3.5397    0.0000 C   0  0  0  0  0  0  0  0  0  0  0  0
    2.7975   -2.0403    0.0000 C   0  0  0  0  0  0  0  0  0  0  0  0
    3.9394   -1.0676    0.0000 C   0  0  0  0  0  0  0  0  0  0  0  0
    5.3527   -1.5702    0.0000 C   0  0  0  0  0  0  0  0  0  0  0  0
    5.6241   -3.0454    0.0000 O   0  0  0  0  0  0  0  0  0  0  0  0
    6.4946   -0.5975    0.0000 C   0  0  0  0  0  0  0  0  0  0  0  0
    7.9079   -1.1001    0.0000 O   0  0  0  0  0  0  0  0  0  0  0  0
    6.2232    0.8777    0.0000 C   0  0  0  0  0  0  0  0  0  0  0  0
    7.3651    1.8504    0.0000 C   0  0  0  0  0  0  0  0  0  0  0  0
    7.0936    3.3257    0.0000 C   0  0  0  0  0  0  0  0  0  0  0  0
    8.2355    4.2983    0.0000 O   0  0  0  0  0  0  0  0  0  0  0  0
    5.6803    3.8282    0.0000 C   0  0  0  0  0  0  0  0  0  0  0  0
    4.5384    2.8555    0.0000 C   0  0  0  0  0  0  0  0  0  0  0  0
    4.8099    1.3803    0.0000 C   0  0  0  0  0  0  0  0  0  0  0  0
    3.3966    1.8829    0.0000 C   0  0  0  0  0  0  0  0  0  0  0  0
    3.6680    0.4076    0.0000 C   0  0  0  0  0  0  0  0  0  0  0  0
    2.2547    0.9102    0.0000 C   0  0  0  0  0  0  0  0  0  0  0  0
    1.1128   -0.0625    0.0000 C   0  0  0  0  0  0  0  0  0  0  0  0
    1.3842   -1.5377    0.0000 C   0  0  0  0  0  0  0  0  0  0  0  0
   -0.0739   -1.1857    0.0000 C   0  0  0  0  0  0  0  0  0  0  0  0
  2  1  1  6
  2  3  1  0
  3  4  1  0
  4  5  1  0
  5  6  2  0
  5  7  1  0
  7  8  1  0
  8  9  1  0
  9 10  2  0
 10 11  1  0
 11 12  2  0
 12 13  1  0
 13 14  1  0
 13 15  2  0
  2 16  1  0
 16 17  1  6
 17 18  1  0
 19 18  1  6
 19 20  1  0
 20 21  1  1
 21 22  1  1
 21 23  1  0
 23 24  1  1
 23 25  1  0
 25 26  1  1
 26 27  1  0
 27 28  1  1
 27 29  1  0
 29 30  1  0
 30 31  1  0
 31 32  1  6
 31 33  1  0
 33 34  1  6
 34 35  1  0
 35 36  1  0
 36 37  1  6
 15  9  1  0
 36 16  1  0
 36 19  1  0
 33 20  1  0
 31 25  1  0
M  END
>  <MS_ID>  (2522) 
MS2607

>  <SMILES>  (2522) 
C[C@H](CCC(=O)OCc1cccc(O)c1)[C@H]1CC[C@H]2[C@@H]3[C@H](O)[C@H](O)[C@@H]4C[C@H](O)CC[C@]4(C)[C@H]3CC[C@]12C

>  <Structure_dimension>  (2522) 
2D

$$$$
MS2608
     RDKit          2D

 33 36  0  0  0  0  0  0  0  0999 V2000
   -6.4151   -1.7464    0.0000 C   0  0  0  0  0  0  0  0  0  0  0  0
   -5.1590   -0.9265    0.0000 C   0  0  0  0  0  0  0  0  0  0  0  0
   -5.2411    0.5713    0.0000 C   0  0  0  0  0  0  0  0  0  0  0  0
   -6.5792    1.2491    0.0000 C   0  0  0  0  0  0  0  0  0  0  0  0
   -6.6612    2.7469    0.0000 C   0  0  0  0  0  0  0  0  0  0  0  0
   -5.4052    3.5668    0.0000 O   0  0  0  0  0  0  0  0  0  0  0  0
   -7.9994    3.4247    0.0000 O   0  0  0  0  0  0  0  0  0  0  0  0
   -3.8209   -1.6043    0.0000 C   0  0  0  0  0  0  0  0  0  0  0  0
   -3.5828   -3.0853    0.0000 C   0  0  0  0  0  0  0  0  0  0  0  0
   -2.1007   -3.3164    0.0000 C   0  0  0  0  0  0  0  0  0  0  0  0
   -1.4229   -1.9783    0.0000 C   0  0  0  0  0  0  0  0  0  0  0  0
    0.0251   -1.5866    0.0000 C   0  0  0  0  0  0  0  0  0  0  0  0
    1.0883   -2.6448    0.0000 C   0  0  0  0  0  0  0  0  0  0  0  0
    0.7035   -4.0946    0.0000 O   0  0  0  0  0  0  0  0  0  0  0  0
    2.5362   -2.2531    0.0000 C   0  0  0  0  0  0  0  0  0  0  0  0
    2.9210   -0.8033    0.0000 C   0  0  0  0  0  0  0  0  0  0  0  0
    4.3690   -0.4117    0.0000 C   0  0  0  0  0  0  0  0  0  0  0  0
    4.7538    1.0381    0.0000 C   0  0  0  0  0  0  0  0  0  0  0  0
    6.2018    1.4298    0.0000 C   0  0  0  0  0  0  0  0  0  0  0  0
    7.2649    0.3716    0.0000 C   0  0  0  0  0  0  0  0  0  0  0  0
    8.7129    0.7633    0.0000 C   0  0  0  0  0  0  0  0  0  0  0  0
    9.0977    2.2131    0.0000 O   0  0  0  0  0  0  0  0  0  0  0  0
    9.7761   -0.2949    0.0000 O   0  0  0  0  0  0  0  0  0  0  0  0
    3.6907    2.0963    0.0000 C   0  0  0  0  0  0  0  0  0  0  0  0
    2.2427    1.7046    0.0000 C   0  0  0  0  0  0  0  0  0  0  0  0
    1.8579    0.2548    0.0000 C   0  0  0  0  0  0  0  0  0  0  0  0
    0.7947    1.3130    0.0000 C   0  0  0  0  0  0  0  0  0  0  0  0
    0.4099   -0.1368    0.0000 C   0  0  0  0  0  0  0  0  0  0  0  0
   -0.6533    0.9213    0.0000 C   0  0  0  0  0  0  0  0  0  0  0  0
   -2.1012    0.5297    0.0000 C   0  0  0  0  0  0  0  0  0  0  0  0
   -3.1644    1.5878    0.0000 O   0  0  0  0  0  0  0  0  0  0  0  0
   -2.4860   -0.9201    0.0000 C   0  0  0  0  0  0  0  0  0  0  0  0
   -3.6540    0.0211    0.0000 C   0  0  0  0  0  0  0  0  0  0  0  0
  2  1  1  6
  2  3  1  0
  3  4  1  0
  4  5  1  0
  5  6  2  0
  5  7  1  0
  2  8  1  0
  8  9  1  6
  9 10  1  0
 11 10  1  6
 11 12  1  0
 12 13  1  1
 13 14  1  6
 13 15  1  0
 16 15  1  1
 16 17  1  0
 17 18  1  0
 18 19  1  1
 19 20  1  0
 20 21  1  0
 21 22  2  0
 21 23  1  0
 18 24  1  0
 24 25  1  0
 25 26  1  0
 26 27  1  6
 26 28  1  0
 28 29  1  6
 29 30  1  0
 30 31  2  0
 30 32  1  0
 32 33  1  6
 32  8  1  0
 32 11  1  0
 28 12  1  0
 26 16  1  0
M  END
>  <MS_ID>  (2523) 
MS2608

>  <SMILES>  (2523) 
C[C@H](CCC(=O)O)[C@H]1CC[C@H]2[C@@H]3[C@@H](O)C[C@@H]4C[C@H](CCC(=O)O)CC[C@]4(C)[C@H]3CC(=O)[C@]12C

>  <Structure_dimension>  (2523) 
2D

$$$$
MS2609
     RDKit          2D

 32 35  0  0  0  0  0  0  0  0999 V2000
   -6.3148   -1.8053    0.0000 C   0  0  0  0  0  0  0  0  0  0  0  0
   -5.0840   -0.9480    0.0000 C   0  0  0  0  0  0  0  0  0  0  0  0
   -5.2110    0.5466    0.0000 C   0  0  0  0  0  0  0  0  0  0  0  0
   -6.5688    1.1840    0.0000 C   0  0  0  0  0  0  0  0  0  0  0  0
   -6.6958    2.6786    0.0000 C   0  0  0  0  0  0  0  0  0  0  0  0
   -5.4650    3.5359    0.0000 O   0  0  0  0  0  0  0  0  0  0  0  0
   -8.0537    3.3159    0.0000 O   0  0  0  0  0  0  0  0  0  0  0  0
   -3.7261   -1.5853    0.0000 C   0  0  0  0  0  0  0  0  0  0  0  0
   -3.4436   -3.0584    0.0000 C   0  0  0  0  0  0  0  0  0  0  0  0
   -1.9552   -3.2450    0.0000 C   0  0  0  0  0  0  0  0  0  0  0  0
   -1.3179   -1.8871    0.0000 C   0  0  0  0  0  0  0  0  0  0  0  0
    0.1177   -1.4521    0.0000 C   0  0  0  0  0  0  0  0  0  0  0  0
    1.2121   -2.4779    0.0000 C   0  0  0  0  0  0  0  0  0  0  0  0
    0.8711   -3.9386    0.0000 N   0  0  0  0  0  0  0  0  0  0  0  0
    2.6477   -2.0429    0.0000 C   0  0  0  0  0  0  0  0  0  0  0  0
    2.9888   -0.5822    0.0000 C   0  0  0  0  0  0  0  0  0  0  0  0
    4.4243   -0.1472    0.0000 C   0  0  0  0  0  0  0  0  0  0  0  0
    4.7654    1.3135    0.0000 C   0  0  0  0  0  0  0  0  0  0  0  0
    6.2009    1.7485    0.0000 O   0  0  0  0  0  0  0  0  0  0  0  0
    7.2954    0.7227    0.0000 S   0  0  0  0  0  0  0  0  0  0  0  0
    6.2697   -0.3717    0.0000 O   0  0  0  0  0  0  0  0  0  0  0  0
    8.3211    1.8172    0.0000 O   0  0  0  0  0  0  0  0  0  0  0  0
    8.3899   -0.3030    0.0000 O   0  0  0  0  0  0  0  0  0  0  0  0
    3.6709    2.3392    0.0000 C   0  0  0  0  0  0  0  0  0  0  0  0
    2.2354    1.9043    0.0000 C   0  0  0  0  0  0  0  0  0  0  0  0
    1.8943    0.4436    0.0000 C   0  0  0  0  0  0  0  0  0  0  0  0
    0.7998    1.4693    0.0000 C   0  0  0  0  0  0  0  0  0  0  0  0
    0.4587    0.0086    0.0000 C   0  0  0  0  0  0  0  0  0  0  0  0
   -0.6357    1.0343    0.0000 C   0  0  0  0  0  0  0  0  0  0  0  0
   -2.0713    0.5993    0.0000 C   0  0  0  0  0  0  0  0  0  0  0  0
   -2.4123   -0.8614    0.0000 C   0  0  0  0  0  0  0  0  0  0  0  0
   -3.6080    0.0444    0.0000 C   0  0  0  0  0  0  0  0  0  0  0  0
  2  1  1  6
  2  3  1  0
  3  4  1  0
  4  5  1  0
  5  6  2  0
  5  7  1  0
  2  8  1  0
  8  9  1  6
  9 10  1  0
 11 10  1  6
 11 12  1  0
 12 13  1  1
 13 14  1  6
 13 15  1  0
 16 15  1  1
 16 17  1  0
 17 18  1  0
 18 19  1  1
 19 20  1  0
 20 21  2  0
 20 22  2  0
 20 23  1  0
 18 24  1  0
 24 25  1  0
 25 26  1  0
 26 27  1  6
 26 28  1  0
 28 29  1  6
 29 30  1  0
 30 31  1  0
 31 32  1  6
 31  8  1  0
 31 11  1  0
 28 12  1  0
 26 16  1  0
M  END
>  <MS_ID>  (2524) 
MS2609

>  <SMILES>  (2524) 
C[C@H](CCC(=O)O)[C@H]1CC[C@H]2[C@@H]3[C@@H](N)C[C@@H]4C[C@H](OS(=O)(=O)O)CC[C@]4(C)[C@H]3CC[C@]12C

>  <Structure_dimension>  (2524) 
2D

$$$$
MS2610
     RDKit          2D

 40 44  0  0  0  0  0  0  0  0999 V2000
   -0.7256   -4.1349    0.0000 C   0  0  0  0  0  0  0  0  0  0  0  0
    0.0217   -2.8343    0.0000 C   0  0  0  0  0  0  0  0  0  0  0  0
   -0.7309   -1.5368    0.0000 C   0  0  0  0  0  0  0  0  0  0  0  0
   -2.2309   -1.5399    0.0000 C   0  0  0  0  0  0  0  0  0  0  0  0
   -2.9836   -0.2424    0.0000 C   0  0  0  0  0  0  0  0  0  0  0  0
   -2.2363    1.0582    0.0000 O   0  0  0  0  0  0  0  0  0  0  0  0
   -4.4836   -0.2455    0.0000 O   0  0  0  0  0  0  0  0  0  0  0  0
   -5.2363    1.0520    0.0000 C   0  0  0  0  0  0  0  0  0  0  0  0
   -6.7363    1.0489    0.0000 C   0  0  0  0  0  0  0  0  0  0  0  0
   -7.4889    2.3464    0.0000 O   0  0  0  0  0  0  0  0  0  0  0  0
   -8.9889    2.3433    0.0000 C   0  0  0  0  0  0  0  0  0  0  0  0
   -9.7416    3.6408    0.0000 C   0  0  0  0  0  0  0  0  0  0  0  0
   -9.7363    1.0427    0.0000 C   0  0  0  0  0  0  0  0  0  0  0  0
  -11.2363    1.0396    0.0000 O   0  0  0  0  0  0  0  0  0  0  0  0
   -8.9836   -0.2547    0.0000 C   0  0  0  0  0  0  0  0  0  0  0  0
   -9.7309   -1.5553    0.0000 O   0  0  0  0  0  0  0  0  0  0  0  0
   -7.4836   -0.2517    0.0000 C   0  0  0  0  0  0  0  0  0  0  0  0
   -6.7309   -1.5491    0.0000 O   0  0  0  0  0  0  0  0  0  0  0  0
    1.5217   -2.8312    0.0000 C   0  0  0  0  0  0  0  0  0  0  0  0
    2.4059   -4.0429    0.0000 C   0  0  0  0  0  0  0  0  0  0  0  0
    3.8315   -3.5764    0.0000 C   0  0  0  0  0  0  0  0  0  0  0  0
    3.8285   -2.0764    0.0000 C   0  0  0  0  0  0  0  0  0  0  0  0
    4.9411   -1.0704    0.0000 C   0  0  0  0  0  0  0  0  0  0  0  0
    6.3686   -1.5310    0.0000 C   0  0  0  0  0  0  0  0  0  0  0  0
    6.6835   -2.9976    0.0000 O   0  0  0  0  0  0  0  0  0  0  0  0
    7.4813   -0.5250    0.0000 C   0  0  0  0  0  0  0  0  0  0  0  0
    7.1664    0.9415    0.0000 C   0  0  0  0  0  0  0  0  0  0  0  0
    8.2790    1.9475    0.0000 C   0  0  0  0  0  0  0  0  0  0  0  0
    7.9642    3.4141    0.0000 C   0  0  0  0  0  0  0  0  0  0  0  0
    9.0768    4.4201    0.0000 O   0  0  0  0  0  0  0  0  0  0  0  0
    6.5366    3.8747    0.0000 C   0  0  0  0  0  0  0  0  0  0  0  0
    5.4240    2.8687    0.0000 C   0  0  0  0  0  0  0  0  0  0  0  0
    5.7389    1.4021    0.0000 C   0  0  0  0  0  0  0  0  0  0  0  0
    4.3113    1.8627    0.0000 C   0  0  0  0  0  0  0  0  0  0  0  0
    4.6262    0.3961    0.0000 C   0  0  0  0  0  0  0  0  0  0  0  0
    3.1987    0.8567    0.0000 C   0  0  0  0  0  0  0  0  0  0  0  0
    2.0860   -0.1493    0.0000 C   0  0  0  0  0  0  0  0  0  0  0  0
    0.6585    0.3113    0.0000 O   0  0  0  0  0  0  0  0  0  0  0  0
    2.4009   -1.6158    0.0000 C   0  0  0  0  0  0  0  0  0  0  0  0
    0.9331   -1.3070    0.0000 C   0  0  0  0  0  0  0  0  0  0  0  0
  2  1  1  6
  2  3  1  0
  3  4  1  0
  4  5  1  0
  5  6  2  0
  5  7  1  0
  7  8  1  0
  9  8  1  1
  9 10  1  0
 10 11  1  0
 11 12  1  1
 11 13  1  0
 13 14  1  1
 13 15  1  0
 15 16  1  6
 15 17  1  0
 17 18  1  6
  2 19  1  0
 19 20  1  6
 20 21  1  0
 22 21  1  6
 22 23  1  0
 23 24  1  1
 24 25  1  1
 24 26  1  0
 27 26  1  1
 27 28  1  0
 28 29  1  0
 29 30  1  1
 29 31  1  0
 31 32  1  0
 32 33  1  0
 33 34  1  6
 33 35  1  0
 35 36  1  6
 36 37  1  0
 37 38  1  1
 37 39  1  0
 39 40  1  6
 17  9  1  0
 39 19  1  0
 39 22  1  0
 35 23  1  0
 33 27  1  0
M  END
>  <MS_ID>  (2525) 
MS2610

>  <SMILES>  (2525) 
C[C@H](CCC(=O)OC[C@@H]1O[C@H](C)[C@H](O)[C@@H](O)[C@H]1O)[C@H]1CC[C@H]2[C@@H]3[C@H](O)C[C@@H]4C[C@H](O)CC[C@]4(C)[C@H]3C[C@H](O)[C@]12C

>  <Structure_dimension>  (2525) 
2D

$$$$
MS2611
     RDKit          2D

 32 35  0  0  0  0  0  0  0  0999 V2000
   -6.5274   -1.6443    0.0000 C   0  0  0  0  0  0  0  0  0  0  0  0
   -5.2648   -0.8345    0.0000 C   0  0  0  0  0  0  0  0  0  0  0  0
   -5.3348    0.6639    0.0000 C   0  0  0  0  0  0  0  0  0  0  0  0
   -6.6674    1.3524    0.0000 C   0  0  0  0  0  0  0  0  0  0  0  0
   -6.7374    2.8508    0.0000 C   0  0  0  0  0  0  0  0  0  0  0  0
   -5.4748    3.6606    0.0000 O   0  0  0  0  0  0  0  0  0  0  0  0
   -8.0700    3.5394    0.0000 O   0  0  0  0  0  0  0  0  0  0  0  0
   -3.9322   -1.5231    0.0000 C   0  0  0  0  0  0  0  0  0  0  0  0
   -3.7060   -3.0059    0.0000 C   0  0  0  0  0  0  0  0  0  0  0  0
   -2.2258   -3.2490    0.0000 C   0  0  0  0  0  0  0  0  0  0  0  0
   -1.5372   -1.9164    0.0000 C   0  0  0  0  0  0  0  0  0  0  0  0
   -0.0861   -1.5364    0.0000 C   0  0  0  0  0  0  0  0  0  0  0  0
    0.9685   -2.6030    0.0000 C   0  0  0  0  0  0  0  0  0  0  0  0
    0.5720   -4.0497    0.0000 O   0  0  0  0  0  0  0  0  0  0  0  0
    2.4195   -2.2231    0.0000 C   0  0  0  0  0  0  0  0  0  0  0  0
    2.8160   -0.7764    0.0000 C   0  0  0  0  0  0  0  0  0  0  0  0
    4.2671   -0.3964    0.0000 C   0  0  0  0  0  0  0  0  0  0  0  0
    4.6635    1.0502    0.0000 C   0  0  0  0  0  0  0  0  0  0  0  0
    6.1146    1.4302    0.0000 C   0  0  0  0  0  0  0  0  0  0  0  0
    7.1692    0.3636    0.0000 C   0  0  0  0  0  0  0  0  0  0  0  0
    8.6203    0.7436    0.0000 C   0  0  0  0  0  0  0  0  0  0  0  0
    9.0167    2.1902    0.0000 O   0  0  0  0  0  0  0  0  0  0  0  0
    9.6749   -0.3231    0.0000 O   0  0  0  0  0  0  0  0  0  0  0  0
    3.6089    2.1169    0.0000 C   0  0  0  0  0  0  0  0  0  0  0  0
    2.1578    1.7369    0.0000 C   0  0  0  0  0  0  0  0  0  0  0  0
    1.7614    0.2903    0.0000 C   0  0  0  0  0  0  0  0  0  0  0  0
    0.7068    1.3569    0.0000 C   0  0  0  0  0  0  0  0  0  0  0  0
    0.3103   -0.0897    0.0000 C   0  0  0  0  0  0  0  0  0  0  0  0
   -0.7443    0.9770    0.0000 C   0  0  0  0  0  0  0  0  0  0  0  0
   -2.1954    0.5970    0.0000 C   0  0  0  0  0  0  0  0  0  0  0  0
   -2.5918   -0.8497    0.0000 C   0  0  0  0  0  0  0  0  0  0  0  0
   -3.7522    0.1009    0.0000 C   0  0  0  0  0  0  0  0  0  0  0  0
  2  1  1  6
  2  3  1  0
  3  4  1  0
  4  5  1  0
  5  6  2  0
  5  7  1  0
  2  8  1  0
  8  9  1  6
  9 10  1  0
 11 10  1  6
 11 12  1  0
 12 13  1  1
 13 14  1  6
 13 15  1  0
 16 15  1  1
 16 17  1  0
 17 18  1  0
 18 19  1  6
 19 20  1  0
 20 21  1  0
 21 22  2  0
 21 23  1  0
 18 24  1  0
 24 25  1  0
 25 26  1  0
 26 27  1  6
 26 28  1  0
 28 29  1  6
 29 30  1  0
 30 31  1  0
 31 32  1  6
 31  8  1  0
 31 11  1  0
 28 12  1  0
 26 16  1  0
M  END
>  <MS_ID>  (2526) 
MS2611

>  <SMILES>  (2526) 
C[C@H](CCC(=O)O)[C@H]1CC[C@H]2[C@@H]3[C@@H](O)C[C@@H]4C[C@@H](CCC(=O)O)CC[C@]4(C)[C@H]3CC[C@]12C

>  <Structure_dimension>  (2526) 
2D

$$$$
MS2612
     RDKit          2D

 36 40  0  0  0  0  0  0  0  0999 V2000
   -7.8960   -1.3766    0.0000 C   0  0  0  0  0  0  0  0  0  0  0  0
   -6.5905   -0.6379    0.0000 C   0  0  0  0  0  0  0  0  0  0  0  0
   -6.5774    0.8621    0.0000 C   0  0  0  0  0  0  0  0  0  0  0  0
   -7.8699    1.6233    0.0000 C   0  0  0  0  0  0  0  0  0  0  0  0
   -7.8569    3.1233    0.0000 C   0  0  0  0  0  0  0  0  0  0  0  0
   -6.5514    3.8620    0.0000 O   0  0  0  0  0  0  0  0  0  0  0  0
   -9.1494    3.8845    0.0000 O   0  0  0  0  0  0  0  0  0  0  0  0
   -5.2980   -1.3991    0.0000 C   0  0  0  0  0  0  0  0  0  0  0  0
   -5.1542   -2.8922    0.0000 C   0  0  0  0  0  0  0  0  0  0  0  0
   -3.6897   -3.2168    0.0000 C   0  0  0  0  0  0  0  0  0  0  0  0
   -2.9285   -1.9243    0.0000 C   0  0  0  0  0  0  0  0  0  0  0  0
   -1.4586   -1.6252    0.0000 C   0  0  0  0  0  0  0  0  0  0  0  0
   -0.4646   -2.7486    0.0000 C   0  0  0  0  0  0  0  0  0  0  0  0
   -0.9405   -4.1711    0.0000 O   0  0  0  0  0  0  0  0  0  0  0  0
    1.0053   -2.4495    0.0000 C   0  0  0  0  0  0  0  0  0  0  0  0
    1.4812   -1.0270    0.0000 C   0  0  0  0  0  0  0  0  0  0  0  0
    2.9510   -0.7279    0.0000 C   0  0  0  0  0  0  0  0  0  0  0  0
    3.4269    0.6946    0.0000 C   0  0  0  0  0  0  0  0  0  0  0  0
    4.8968    0.9937    0.0000 O   0  0  0  0  0  0  0  0  0  0  0  0
    5.8908   -0.1297    0.0000 C   0  0  0  0  0  0  0  0  0  0  0  0
    7.3607    0.1695    0.0000 C   0  0  0  0  0  0  0  0  0  0  0  0
    8.3546   -0.9539    0.0000 C   0  0  0  0  0  0  0  0  0  0  0  0
    9.8245   -0.6548    0.0000 C   0  0  0  0  0  0  0  0  0  0  0  0
   10.3004    0.7677    0.0000 C   0  0  0  0  0  0  0  0  0  0  0  0
   11.7703    1.0668    0.0000 O   0  0  0  0  0  0  0  0  0  0  0  0
    9.3064    1.8911    0.0000 C   0  0  0  0  0  0  0  0  0  0  0  0
    7.8366    1.5920    0.0000 C   0  0  0  0  0  0  0  0  0  0  0  0
    2.4330    1.8180    0.0000 C   0  0  0  0  0  0  0  0  0  0  0  0
    0.9631    1.5189    0.0000 C   0  0  0  0  0  0  0  0  0  0  0  0
    0.4872    0.0964    0.0000 C   0  0  0  0  0  0  0  0  0  0  0  0
   -0.5068    1.2198    0.0000 C   0  0  0  0  0  0  0  0  0  0  0  0
   -0.9827   -0.2027    0.0000 C   0  0  0  0  0  0  0  0  0  0  0  0
   -1.9767    0.9207    0.0000 C   0  0  0  0  0  0  0  0  0  0  0  0
   -3.4465    0.6216    0.0000 C   0  0  0  0  0  0  0  0  0  0  0  0
   -3.9224   -0.8009    0.0000 C   0  0  0  0  0  0  0  0  0  0  0  0
   -5.0284    0.2124    0.0000 C   0  0  0  0  0  0  0  0  0  0  0  0
  2  1  1  6
  2  3  1  0
  3  4  1  0
  4  5  1  0
  5  6  2  0
  5  7  1  0
  2  8  1  0
  8  9  1  6
  9 10  1  0
 11 10  1  6
 11 12  1  0
 12 13  1  1
 13 14  1  6
 13 15  1  0
 16 15  1  1
 16 17  1  0
 17 18  1  0
 18 19  1  1
 19 20  1  0
 20 21  1  0
 21 22  2  0
 22 23  1  0
 23 24  2  0
 24 25  1  0
 24 26  1  0
 26 27  2  0
 18 28  1  0
 28 29  1  0
 29 30  1  0
 30 31  1  6
 30 32  1  0
 32 33  1  6
 33 34  1  0
 34 35  1  0
 35 36  1  6
 35  8  1  0
 35 11  1  0
 32 12  1  0
 30 16  1  0
 27 21  1  0
M  END
>  <MS_ID>  (2527) 
MS2612

>  <SMILES>  (2527) 
C[C@H](CCC(=O)O)[C@H]1CC[C@H]2[C@@H]3[C@@H](O)C[C@@H]4C[C@H](OCc5ccc(O)cc5)CC[C@]4(C)[C@H]3CC[C@]12C

>  <Structure_dimension>  (2527) 
2D

$$$$
MS2613
     RDKit          2D

 28 31  0  0  0  0  0  0  0  0999 V2000
   -5.1275   -2.0302    0.0000 C   0  0  0  0  0  0  0  0  0  0  0  0
   -3.9468   -1.1050    0.0000 C   0  0  0  0  0  0  0  0  0  0  0  0
   -4.1576    0.3801    0.0000 C   0  0  0  0  0  0  0  0  0  0  0  0
   -5.5492    0.9401    0.0000 C   0  0  0  0  0  0  0  0  0  0  0  0
   -5.7600    2.4252    0.0000 C   0  0  0  0  0  0  0  0  0  0  0  0
   -4.5793    3.3503    0.0000 O   0  0  0  0  0  0  0  0  0  0  0  0
   -7.1516    2.9851    0.0000 O   0  0  0  0  0  0  0  0  0  0  0  0
   -2.5552   -1.6650    0.0000 C   0  0  0  0  0  0  0  0  0  0  0  0
   -2.1903   -3.1199    0.0000 C   0  0  0  0  0  0  0  0  0  0  0  0
   -0.6938   -3.2225    0.0000 C   0  0  0  0  0  0  0  0  0  0  0  0
   -0.1339   -1.8309    0.0000 C   0  0  0  0  0  0  0  0  0  0  0  0
    1.2750   -1.3159    0.0000 C   0  0  0  0  0  0  0  0  0  0  0  0
    2.4254   -2.2785    0.0000 C   0  0  0  0  0  0  0  0  0  0  0  0
    2.1670   -3.7560    0.0000 F   0  0  0  0  0  0  0  0  0  0  0  0
    3.8342   -1.7635    0.0000 C   0  0  0  0  0  0  0  0  0  0  0  0
    4.0926   -0.2859    0.0000 C   0  0  0  0  0  0  0  0  0  0  0  0
    5.5014    0.2291    0.0000 C   0  0  0  0  0  0  0  0  0  0  0  0
    5.7598    1.7067    0.0000 C   0  0  0  0  0  0  0  0  0  0  0  0
    7.1687    2.2217    0.0000 O   0  0  0  0  0  0  0  0  0  0  0  0
    4.6094    2.6692    0.0000 C   0  0  0  0  0  0  0  0  0  0  0  0
    3.2006    2.1542    0.0000 C   0  0  0  0  0  0  0  0  0  0  0  0
    2.9422    0.6767    0.0000 C   0  0  0  0  0  0  0  0  0  0  0  0
    1.7918    1.6392    0.0000 C   0  0  0  0  0  0  0  0  0  0  0  0
    1.5334    0.1617    0.0000 C   0  0  0  0  0  0  0  0  0  0  0  0
    0.3830    1.1242    0.0000 C   0  0  0  0  0  0  0  0  0  0  0  0
   -1.0259    0.6093    0.0000 C   0  0  0  0  0  0  0  0  0  0  0  0
   -1.2843   -0.8683    0.0000 C   0  0  0  0  0  0  0  0  0  0  0  0
   -2.5290   -0.0313    0.0000 C   0  0  0  0  0  0  0  0  0  0  0  0
  2  1  1  6
  2  3  1  0
  3  4  1  0
  4  5  1  0
  5  6  2  0
  5  7  1  0
  2  8  1  0
  8  9  1  6
  9 10  1  0
 11 10  1  6
 11 12  1  0
 12 13  1  1
 13 14  1  6
 13 15  1  0
 16 15  1  1
 16 17  1  0
 17 18  1  0
 18 19  1  6
 18 20  1  0
 20 21  1  0
 21 22  1  0
 22 23  1  6
 22 24  1  0
 24 25  1  6
 25 26  1  0
 26 27  1  0
 27 28  1  6
 27  8  1  0
 27 11  1  0
 24 12  1  0
 22 16  1  0
M  END
>  <MS_ID>  (2528) 
MS2613

>  <SMILES>  (2528) 
C[C@H](CCC(=O)O)[C@H]1CC[C@H]2[C@@H]3[C@@H](F)C[C@@H]4C[C@@H](O)CC[C@]4(C)[C@H]3CC[C@]12C

>  <Structure_dimension>  (2528) 
2D

$$$$
MS2614
     RDKit          2D

 31 34  0  0  0  0  0  0  0  0999 V2000
   -9.1886    3.0325    0.0000 C   0  0  0  0  0  0  0  0  0  0  0  0
   -7.7131    2.7626    0.0000 O   0  0  0  0  0  0  0  0  0  0  0  0
   -7.2090    1.3498    0.0000 C   0  0  0  0  0  0  0  0  0  0  0  0
   -5.7335    1.0800    0.0000 C   0  0  0  0  0  0  0  0  0  0  0  0
   -4.7620    2.2229    0.0000 O   0  0  0  0  0  0  0  0  0  0  0  0
   -5.2294   -0.3328    0.0000 C   0  0  0  0  0  0  0  0  0  0  0  0
   -3.7539   -0.6026    0.0000 C   0  0  0  0  0  0  0  0  0  0  0  0
   -3.2498   -2.0154    0.0000 C   0  0  0  0  0  0  0  0  0  0  0  0
   -4.2213   -3.1583    0.0000 C   0  0  0  0  0  0  0  0  0  0  0  0
   -1.7743   -2.2853    0.0000 C   0  0  0  0  0  0  0  0  0  0  0  0
   -1.1253   -3.6376    0.0000 C   0  0  0  0  0  0  0  0  0  0  0  0
    0.3614   -3.4383    0.0000 C   0  0  0  0  0  0  0  0  0  0  0  0
    0.6312   -1.9628    0.0000 C   0  0  0  0  0  0  0  0  0  0  0  0
    1.9083   -1.1760    0.0000 C   0  0  0  0  0  0  0  0  0  0  0  0
    3.2282   -1.8886    0.0000 C   0  0  0  0  0  0  0  0  0  0  0  0
    3.2711   -3.3880    0.0000 O   0  0  0  0  0  0  0  0  0  0  0  0
    4.5053   -1.1018    0.0000 C   0  0  0  0  0  0  0  0  0  0  0  0
    5.8252   -1.8144    0.0000 O   0  0  0  0  0  0  0  0  0  0  0  0
    4.4625    0.3976    0.0000 C   0  0  0  0  0  0  0  0  0  0  0  0
    5.7396    1.1843    0.0000 C   0  0  0  0  0  0  0  0  0  0  0  0
    5.6968    2.6837    0.0000 C   0  0  0  0  0  0  0  0  0  0  0  0
    6.9739    3.4705    0.0000 O   0  0  0  0  0  0  0  0  0  0  0  0
    4.3769    3.3963    0.0000 C   0  0  0  0  0  0  0  0  0  0  0  0
    3.0998    2.6096    0.0000 C   0  0  0  0  0  0  0  0  0  0  0  0
    3.1426    1.1102    0.0000 C   0  0  0  0  0  0  0  0  0  0  0  0
    1.8227    1.8228    0.0000 C   0  0  0  0  0  0  0  0  0  0  0  0
    1.8655    0.3234    0.0000 C   0  0  0  0  0  0  0  0  0  0  0  0
    0.5456    1.0360    0.0000 C   0  0  0  0  0  0  0  0  0  0  0  0
   -0.7315    0.2492    0.0000 C   0  0  0  0  0  0  0  0  0  0  0  0
   -0.6887   -1.2502    0.0000 C   0  0  0  0  0  0  0  0  0  0  0  0
   -2.0759   -0.6794    0.0000 C   0  0  0  0  0  0  0  0  0  0  0  0
  1  2  1  0
  2  3  1  0
  3  4  1  0
  4  5  2  0
  4  6  1  0
  6  7  1  0
  7  8  1  0
  8  9  1  6
  8 10  1  0
 10 11  1  6
 11 12  1  0
 13 12  1  6
 13 14  1  0
 14 15  1  1
 15 16  1  1
 15 17  1  0
 17 18  1  1
 17 19  1  0
 19 20  1  1
 20 21  1  0
 21 22  1  1
 21 23  1  0
 23 24  1  0
 24 25  1  0
 25 26  1  6
 25 27  1  0
 27 28  1  6
 28 29  1  0
 29 30  1  0
 30 31  1  6
 30 10  1  0
 30 13  1  0
 27 14  1  0
 25 19  1  0
M  END
>  <MS_ID>  (2529) 
MS2614

>  <SMILES>  (2529) 
COCC(=O)CC[C@@H](C)[C@H]1CC[C@H]2[C@@H]3[C@H](O)[C@H](O)[C@@H]4C[C@H](O)CC[C@]4(C)[C@H]3CC[C@]12C

>  <Structure_dimension>  (2529) 
2D

$$$$
MS2615
     RDKit          2D

 35 38  0  0  0  0  0  0  0  0999 V2000
   -1.7670   -4.1777    0.0000 C   0  0  0  0  0  0  0  0  0  0  0  0
   -1.0360   -2.8679    0.0000 C   0  0  0  0  0  0  0  0  0  0  0  0
   -1.8049   -1.5799    0.0000 C   0  0  0  0  0  0  0  0  0  0  0  0
   -3.3047   -1.6017    0.0000 C   0  0  0  0  0  0  0  0  0  0  0  0
   -4.0736   -0.3138    0.0000 C   0  0  0  0  0  0  0  0  0  0  0  0
   -3.3426    0.9961    0.0000 O   0  0  0  0  0  0  0  0  0  0  0  0
   -5.5734   -0.3356    0.0000 C   0  0  0  0  0  0  0  0  0  0  0  0
   -6.3044   -1.6455    0.0000 O   0  0  0  0  0  0  0  0  0  0  0  0
   -6.3423    0.9523    0.0000 N   0  0  0  0  0  0  0  0  0  0  0  0
   -7.8421    0.9305    0.0000 C   0  0  0  0  0  0  0  0  0  0  0  0
   -8.6110    2.2184    0.0000 C   0  0  0  0  0  0  0  0  0  0  0  0
  -10.1108    2.1966    0.0000 C   0  0  0  0  0  0  0  0  0  0  0  0
  -10.8418    0.8868    0.0000 O   0  0  0  0  0  0  0  0  0  0  0  0
  -10.8797    3.4846    0.0000 O   0  0  0  0  0  0  0  0  0  0  0  0
    0.4638   -2.8460    0.0000 C   0  0  0  0  0  0  0  0  0  0  0  0
    1.3631   -4.0466    0.0000 C   0  0  0  0  0  0  0  0  0  0  0  0
    2.7827   -3.5623    0.0000 C   0  0  0  0  0  0  0  0  0  0  0  0
    2.7609   -2.0624    0.0000 C   0  0  0  0  0  0  0  0  0  0  0  0
    3.8609   -1.0426    0.0000 C   0  0  0  0  0  0  0  0  0  0  0  0
    5.2940   -1.4853    0.0000 C   0  0  0  0  0  0  0  0  0  0  0  0
    5.6273   -2.9478    0.0000 O   0  0  0  0  0  0  0  0  0  0  0  0
    6.3940   -0.4655    0.0000 C   0  0  0  0  0  0  0  0  0  0  0  0
    6.0608    0.9971    0.0000 C   0  0  0  0  0  0  0  0  0  0  0  0
    7.1608    2.0169    0.0000 C   0  0  0  0  0  0  0  0  0  0  0  0
    6.8276    3.4794    0.0000 C   0  0  0  0  0  0  0  0  0  0  0  0
    7.9275    4.4992    0.0000 O   0  0  0  0  0  0  0  0  0  0  0  0
    5.3944    3.9221    0.0000 C   0  0  0  0  0  0  0  0  0  0  0  0
    4.2944    2.9023    0.0000 C   0  0  0  0  0  0  0  0  0  0  0  0
    4.6276    1.4397    0.0000 C   0  0  0  0  0  0  0  0  0  0  0  0
    3.1944    1.8824    0.0000 C   0  0  0  0  0  0  0  0  0  0  0  0
    3.5276    0.4199    0.0000 C   0  0  0  0  0  0  0  0  0  0  0  0
    2.0944    0.8626    0.0000 C   0  0  0  0  0  0  0  0  0  0  0  0
    0.9945   -0.1572    0.0000 C   0  0  0  0  0  0  0  0  0  0  0  0
    1.3277   -1.6198    0.0000 C   0  0  0  0  0  0  0  0  0  0  0  0
   -0.1439   -1.3293    0.0000 C   0  0  0  0  0  0  0  0  0  0  0  0
  2  1  1  6
  2  3  1  0
  3  4  1  0
  4  5  1  0
  5  6  2  0
  5  7  1  0
  7  8  2  0
  7  9  1  0
  9 10  1  0
 10 11  1  0
 11 12  1  0
 12 13  2  0
 12 14  1  0
  2 15  1  0
 15 16  1  6
 16 17  1  0
 18 17  1  6
 18 19  1  0
 19 20  1  1
 20 21  1  1
 20 22  1  0
 23 22  1  1
 23 24  1  0
 24 25  1  0
 25 26  1  1
 25 27  1  0
 27 28  1  0
 28 29  1  0
 29 30  1  6
 29 31  1  0
 31 32  1  6
 32 33  1  0
 33 34  1  0
 34 35  1  6
 34 15  1  0
 34 18  1  0
 31 19  1  0
 29 23  1  0
M  END
>  <MS_ID>  (2530) 
MS2615

>  <SMILES>  (2530) 
C[C@H](CCC(=O)C(=O)NCCC(=O)O)[C@H]1CC[C@H]2[C@@H]3[C@H](O)C[C@@H]4C[C@H](O)CC[C@]4(C)[C@H]3CC[C@]12C

>  <Structure_dimension>  (2530) 
2D

$$$$
MS2616
     RDKit          2D

 37 41  0  0  0  0  0  0  0  0999 V2000
   -1.5359   -4.6421    0.0000 C   0  0  0  0  0  0  0  0  0  0  0  0
   -0.9114   -3.2783    0.0000 C   0  0  0  0  0  0  0  0  0  0  0  0
   -1.7803   -2.0555    0.0000 C   0  0  0  0  0  0  0  0  0  0  0  0
   -3.2736   -2.1966    0.0000 C   0  0  0  0  0  0  0  0  0  0  0  0
   -4.1424   -0.9738    0.0000 C   0  0  0  0  0  0  0  0  0  0  0  0
   -3.5179    0.3900    0.0000 O   0  0  0  0  0  0  0  0  0  0  0  0
   -5.6358   -1.1149    0.0000 O   0  0  0  0  0  0  0  0  0  0  0  0
   -6.5046    0.1079    0.0000 C   0  0  0  0  0  0  0  0  0  0  0  0
   -8.0045    0.1237    0.0000 O   0  0  0  0  0  0  0  0  0  0  0  0
   -8.4530    1.5551    0.0000 C   0  0  0  0  0  0  0  0  0  0  0  0
   -9.8746    2.0336    0.0000 O   0  0  0  0  0  0  0  0  0  0  0  0
   -7.2303    2.4239    0.0000 C   0  0  0  0  0  0  0  0  0  0  0  0
   -7.2144    3.9239    0.0000 O   0  0  0  0  0  0  0  0  0  0  0  0
   -6.0261    1.5295    0.0000 C   0  0  0  0  0  0  0  0  0  0  0  0
   -4.5947    1.9780    0.0000 O   0  0  0  0  0  0  0  0  0  0  0  0
    0.5819   -3.1372    0.0000 C   0  0  0  0  0  0  0  0  0  0  0  0
    1.5738   -4.2624    0.0000 C   0  0  0  0  0  0  0  0  0  0  0  0
    2.9505   -3.6668    0.0000 C   0  0  0  0  0  0  0  0  0  0  0  0
    2.8094   -2.1735    0.0000 C   0  0  0  0  0  0  0  0  0  0  0  0
    3.8248   -1.0694    0.0000 C   0  0  0  0  0  0  0  0  0  0  0  0
    5.2887   -1.3967    0.0000 C   0  0  0  0  0  0  0  0  0  0  0  0
    5.7371   -2.8281    0.0000 O   0  0  0  0  0  0  0  0  0  0  0  0
    6.3041   -0.2926    0.0000 C   0  0  0  0  0  0  0  0  0  0  0  0
    5.8556    1.1388    0.0000 C   0  0  0  0  0  0  0  0  0  0  0  0
    6.8710    2.2428    0.0000 C   0  0  0  0  0  0  0  0  0  0  0  0
    6.4225    3.6742    0.0000 C   0  0  0  0  0  0  0  0  0  0  0  0
    7.4379    4.7783    0.0000 O   0  0  0  0  0  0  0  0  0  0  0  0
    4.9587    4.0016    0.0000 C   0  0  0  0  0  0  0  0  0  0  0  0
    3.9433    2.8975    0.0000 C   0  0  0  0  0  0  0  0  0  0  0  0
    4.3918    1.4661    0.0000 C   0  0  0  0  0  0  0  0  0  0  0  0
    2.9279    1.7934    0.0000 C   0  0  0  0  0  0  0  0  0  0  0  0
    3.3764    0.3620    0.0000 C   0  0  0  0  0  0  0  0  0  0  0  0
    1.9125    0.6893    0.0000 C   0  0  0  0  0  0  0  0  0  0  0  0
    0.8971   -0.4147    0.0000 C   0  0  0  0  0  0  0  0  0  0  0  0
   -0.5667   -0.0874    0.0000 O   0  0  0  0  0  0  0  0  0  0  0  0
    1.3456   -1.8461    0.0000 C   0  0  0  0  0  0  0  0  0  0  0  0
   -0.1445   -1.6736    0.0000 C   0  0  0  0  0  0  0  0  0  0  0  0
  2  1  1  6
  2  3  1  0
  3  4  1  0
  4  5  1  0
  5  6  2  0
  5  7  1  0
  8  7  1  1
  8  9  1  0
  9 10  1  0
 10 11  1  1
 10 12  1  0
 12 13  1  6
 12 14  1  0
 14 15  1  6
  2 16  1  0
 16 17  1  6
 17 18  1  0
 19 18  1  6
 19 20  1  0
 20 21  1  1
 21 22  1  1
 21 23  1  0
 24 23  1  1
 24 25  1  0
 25 26  1  0
 26 27  1  1
 26 28  1  0
 28 29  1  0
 29 30  1  0
 30 31  1  6
 30 32  1  0
 32 33  1  6
 33 34  1  0
 34 35  1  1
 34 36  1  0
 36 37  1  6
 14  8  1  0
 36 16  1  0
 36 19  1  0
 32 20  1  0
 30 24  1  0
M  END
>  <MS_ID>  (2531) 
MS2616

>  <SMILES>  (2531) 
C[C@H](CCC(=O)O[C@H]1O[C@@H](O)[C@H](O)[C@@H]1O)[C@H]1CC[C@H]2[C@@H]3[C@H](O)C[C@@H]4C[C@H](O)CC[C@]4(C)[C@H]3C[C@H](O)[C@]12C

>  <Structure_dimension>  (2531) 
2D

$$$$
MS2617
     RDKit          2D

 28 31  0  0  0  0  0  0  0  0999 V2000
   -5.1936   -2.1523    0.0000 C   0  0  0  0  0  0  0  0  0  0  0  0
   -4.0282   -1.2079    0.0000 C   0  0  0  0  0  0  0  0  0  0  0  0
   -4.2633    0.2735    0.0000 C   0  0  0  0  0  0  0  0  0  0  0  0
   -5.6638    0.8107    0.0000 C   0  0  0  0  0  0  0  0  0  0  0  0
   -5.8990    2.2921    0.0000 C   0  0  0  0  0  0  0  0  0  0  0  0
   -4.7335    3.2365    0.0000 O   0  0  0  0  0  0  0  0  0  0  0  0
   -7.2995    2.8292    0.0000 O   0  0  0  0  0  0  0  0  0  0  0  0
   -2.6276   -1.7450    0.0000 C   0  0  0  0  0  0  0  0  0  0  0  0
   -2.2390   -3.1938    0.0000 C   0  0  0  0  0  0  0  0  0  0  0  0
   -0.7410   -3.2718    0.0000 C   0  0  0  0  0  0  0  0  0  0  0  0
   -0.2039   -1.8713    0.0000 C   0  0  0  0  0  0  0  0  0  0  0  0
    1.1963   -1.3333    0.0000 C   0  0  0  0  0  0  0  0  0  0  0  0
    2.3623   -2.2769    0.0000 C   0  0  0  0  0  0  0  0  0  0  0  0
    3.7625   -1.7389    0.0000 C   0  0  0  0  0  0  0  0  0  0  0  0
    4.9286   -2.6825    0.0000 O   0  0  0  0  0  0  0  0  0  0  0  0
    3.9967   -0.2573    0.0000 C   0  0  0  0  0  0  0  0  0  0  0  0
    5.3969    0.2807    0.0000 C   0  0  0  0  0  0  0  0  0  0  0  0
    5.6311    1.7623    0.0000 C   0  0  0  0  0  0  0  0  0  0  0  0
    7.0313    2.3003    0.0000 O   0  0  0  0  0  0  0  0  0  0  0  0
    4.4651    2.7059    0.0000 C   0  0  0  0  0  0  0  0  0  0  0  0
    3.0649    2.1679    0.0000 C   0  0  0  0  0  0  0  0  0  0  0  0
    2.8307    0.6863    0.0000 C   0  0  0  0  0  0  0  0  0  0  0  0
    1.6647    1.6299    0.0000 C   0  0  0  0  0  0  0  0  0  0  0  0
    1.4305    0.1483    0.0000 C   0  0  0  0  0  0  0  0  0  0  0  0
    0.2645    1.0919    0.0000 C   0  0  0  0  0  0  0  0  0  0  0  0
   -1.1357    0.5539    0.0000 C   0  0  0  0  0  0  0  0  0  0  0  0
   -1.3699   -0.9277    0.0000 C   0  0  0  0  0  0  0  0  0  0  0  0
   -2.6282   -0.1111    0.0000 C   0  0  0  0  0  0  0  0  0  0  0  0
  2  1  1  6
  2  3  1  0
  3  4  1  0
  4  5  1  0
  5  6  2  0
  5  7  1  0
  2  8  1  0
  8  9  1  6
  9 10  1  0
 11 10  1  6
 11 12  1  0
 12 13  1  1
 13 14  1  0
 14 15  2  0
 14 16  1  0
 16 17  1  6
 17 18  1  0
 18 19  1  1
 18 20  1  0
 20 21  1  0
 21 22  1  0
 22 23  1  6
 22 24  1  0
 24 25  1  6
 25 26  1  0
 26 27  1  0
 27 28  1  6
 27  8  1  0
 27 11  1  0
 24 12  1  0
 22 16  1  0
M  END
>  <MS_ID>  (2532) 
MS2617

>  <SMILES>  (2532) 
C[C@H](CCC(=O)O)[C@H]1CC[C@H]2[C@@H]3CC(=O)[C@H]4C[C@H](O)CC[C@]4(C)[C@H]3CC[C@]12C

>  <Structure_dimension>  (2532) 
2D

$$$$
MS2619
     RDKit          2D

 36 40  0  0  0  0  0  0  0  0999 V2000
   -0.9236   -4.7150    0.0000 C   0  0  0  0  0  0  0  0  0  0  0  0
   -0.3610   -3.3245    0.0000 C   0  0  0  0  0  0  0  0  0  0  0  0
   -1.2839   -2.1421    0.0000 C   0  0  0  0  0  0  0  0  0  0  0  0
   -2.7695   -2.3501    0.0000 C   0  0  0  0  0  0  0  0  0  0  0  0
   -3.6924   -1.1676    0.0000 C   0  0  0  0  0  0  0  0  0  0  0  0
   -3.1298    0.2229    0.0000 O   0  0  0  0  0  0  0  0  0  0  0  0
   -5.1779   -1.3757    0.0000 N   0  0  0  0  0  0  0  0  0  0  0  0
   -6.1008   -0.1932    0.0000 C   0  0  0  0  0  0  0  0  0  0  0  0
   -7.5863   -0.4012    0.0000 C   0  0  0  0  0  0  0  0  0  0  0  0
   -8.5092    0.7812    0.0000 C   0  0  0  0  0  0  0  0  0  0  0  0
   -7.9466    2.1717    0.0000 C   0  0  0  0  0  0  0  0  0  0  0  0
   -8.8695    3.3542    0.0000 C   0  0  0  0  0  0  0  0  0  0  0  0
  -10.3550    3.1461    0.0000 C   0  0  0  0  0  0  0  0  0  0  0  0
  -10.9176    1.7556    0.0000 C   0  0  0  0  0  0  0  0  0  0  0  0
   -9.9947    0.5732    0.0000 C   0  0  0  0  0  0  0  0  0  0  0  0
    1.1245   -3.1165    0.0000 C   0  0  0  0  0  0  0  0  0  0  0  0
    2.1659   -4.1960    0.0000 C   0  0  0  0  0  0  0  0  0  0  0  0
    3.5144   -3.5391    0.0000 C   0  0  0  0  0  0  0  0  0  0  0  0
    3.3064   -2.0536    0.0000 C   0  0  0  0  0  0  0  0  0  0  0  0
    4.2711   -0.9050    0.0000 C   0  0  0  0  0  0  0  0  0  0  0  0
    5.7482   -1.1662    0.0000 C   0  0  0  0  0  0  0  0  0  0  0  0
    6.2606   -2.5760    0.0000 O   0  0  0  0  0  0  0  0  0  0  0  0
    6.7130   -0.0176    0.0000 C   0  0  0  0  0  0  0  0  0  0  0  0
    6.2006    1.3922    0.0000 C   0  0  0  0  0  0  0  0  0  0  0  0
    7.1654    2.5408    0.0000 C   0  0  0  0  0  0  0  0  0  0  0  0
    6.6530    3.9506    0.0000 C   0  0  0  0  0  0  0  0  0  0  0  0
    7.6178    5.0992    0.0000 O   0  0  0  0  0  0  0  0  0  0  0  0
    5.1759    4.2118    0.0000 C   0  0  0  0  0  0  0  0  0  0  0  0
    4.2112    3.0632    0.0000 C   0  0  0  0  0  0  0  0  0  0  0  0
    4.7235    1.6534    0.0000 C   0  0  0  0  0  0  0  0  0  0  0  0
    3.2465    1.9146    0.0000 C   0  0  0  0  0  0  0  0  0  0  0  0
    3.7588    0.5048    0.0000 C   0  0  0  0  0  0  0  0  0  0  0  0
    2.2817    0.7660    0.0000 C   0  0  0  0  0  0  0  0  0  0  0  0
    1.3170   -0.3826    0.0000 C   0  0  0  0  0  0  0  0  0  0  0  0
    1.8293   -1.7924    0.0000 C   0  0  0  0  0  0  0  0  0  0  0  0
    0.3330   -1.6870    0.0000 C   0  0  0  0  0  0  0  0  0  0  0  0
  2  1  1  6
  2  3  1  0
  3  4  1  0
  4  5  1  0
  5  6  2  0
  5  7  1  0
  7  8  1  0
  8  9  1  0
  9 10  1  0
 10 11  2  0
 11 12  1  0
 12 13  2  0
 13 14  1  0
 14 15  2  0
  2 16  1  0
 16 17  1  6
 17 18  1  0
 19 18  1  6
 19 20  1  0
 20 21  1  1
 21 22  1  1
 21 23  1  0
 24 23  1  1
 24 25  1  0
 25 26  1  0
 26 27  1  1
 26 28  1  0
 28 29  1  0
 29 30  1  0
 30 31  1  6
 30 32  1  0
 32 33  1  6
 33 34  1  0
 34 35  1  0
 35 36  1  6
 15 10  1  0
 35 16  1  0
 35 19  1  0
 32 20  1  0
 30 24  1  0
M  END
>  <MS_ID>  (2533) 
MS2619

>  <SMILES>  (2533) 
C[C@H](CCC(=O)NCCc1ccccc1)[C@H]1CC[C@H]2[C@@H]3[C@H](O)C[C@@H]4C[C@H](O)CC[C@]4(C)[C@H]3CC[C@]12C

>  <Structure_dimension>  (2533) 
2D

$$$$
MS2620
     RDKit          2D

 30 33  0  0  0  0  0  0  0  0999 V2000
   -8.9136    3.2062    0.0000 C   0  0  0  0  0  0  0  0  0  0  0  0
   -7.4457    2.8978    0.0000 C   0  0  0  0  0  0  0  0  0  0  0  0
   -6.9787    1.4724    0.0000 N   0  0  0  0  0  0  0  0  0  0  0  0
   -5.5108    1.1640    0.0000 C   0  0  0  0  0  0  0  0  0  0  0  0
   -4.5097    2.2811    0.0000 O   0  0  0  0  0  0  0  0  0  0  0  0
   -5.0438   -0.2615    0.0000 C   0  0  0  0  0  0  0  0  0  0  0  0
   -3.5759   -0.5698    0.0000 C   0  0  0  0  0  0  0  0  0  0  0  0
   -3.1089   -1.9953    0.0000 C   0  0  0  0  0  0  0  0  0  0  0  0
   -4.1099   -3.1124    0.0000 C   0  0  0  0  0  0  0  0  0  0  0  0
   -1.6409   -2.3036    0.0000 C   0  0  0  0  0  0  0  0  0  0  0  0
   -1.0276   -3.6725    0.0000 C   0  0  0  0  0  0  0  0  0  0  0  0
    0.4638   -3.5121    0.0000 C   0  0  0  0  0  0  0  0  0  0  0  0
    0.7722   -2.0441    0.0000 C   0  0  0  0  0  0  0  0  0  0  0  0
    2.0694   -1.2910    0.0000 C   0  0  0  0  0  0  0  0  0  0  0  0
    3.3703   -2.0379    0.0000 C   0  0  0  0  0  0  0  0  0  0  0  0
    3.3739   -3.5379    0.0000 O   0  0  0  0  0  0  0  0  0  0  0  0
    4.6675   -1.2848    0.0000 C   0  0  0  0  0  0  0  0  0  0  0  0
    4.6639    0.2152    0.0000 C   0  0  0  0  0  0  0  0  0  0  0  0
    5.9611    0.9683    0.0000 C   0  0  0  0  0  0  0  0  0  0  0  0
    5.9575    2.4683    0.0000 C   0  0  0  0  0  0  0  0  0  0  0  0
    7.2548    3.2214    0.0000 O   0  0  0  0  0  0  0  0  0  0  0  0
    4.6567    3.2152    0.0000 C   0  0  0  0  0  0  0  0  0  0  0  0
    3.3595    2.4621    0.0000 C   0  0  0  0  0  0  0  0  0  0  0  0
    3.3631    0.9621    0.0000 C   0  0  0  0  0  0  0  0  0  0  0  0
    2.0622    1.7090    0.0000 C   0  0  0  0  0  0  0  0  0  0  0  0
    2.0658    0.2090    0.0000 C   0  0  0  0  0  0  0  0  0  0  0  0
    0.7650    0.9559    0.0000 C   0  0  0  0  0  0  0  0  0  0  0  0
   -0.5322    0.2027    0.0000 C   0  0  0  0  0  0  0  0  0  0  0  0
   -0.5286   -1.2973    0.0000 C   0  0  0  0  0  0  0  0  0  0  0  0
   -1.9004   -0.6904    0.0000 C   0  0  0  0  0  0  0  0  0  0  0  0
  1  2  1  0
  2  3  1  0
  3  4  1  0
  4  5  2  0
  4  6  1  0
  6  7  1  0
  7  8  1  0
  8  9  1  6
  8 10  1  0
 10 11  1  6
 11 12  1  0
 13 12  1  6
 13 14  1  0
 14 15  1  1
 15 16  1  1
 15 17  1  0
 18 17  1  1
 18 19  1  0
 19 20  1  0
 20 21  2  0
 20 22  1  0
 22 23  1  0
 23 24  1  0
 24 25  1  6
 24 26  1  0
 26 27  1  6
 27 28  1  0
 28 29  1  0
 29 30  1  6
 29 10  1  0
 29 13  1  0
 26 14  1  0
 24 18  1  0
M  END
>  <MS_ID>  (2534) 
MS2620

>  <SMILES>  (2534) 
CCNC(=O)CC[C@@H](C)[C@H]1CC[C@H]2[C@@H]3[C@H](O)C[C@@H]4CC(=O)CC[C@]4(C)[C@H]3CC[C@]12C

>  <Structure_dimension>  (2534) 
2D

$$$$
MS2621
     RDKit          2D

 36 39  0  0  0  0  0  0  0  0999 V2000
   -2.1103   -4.2976    0.0000 C   0  0  0  0  0  0  0  0  0  0  0  0
   -1.3784   -2.9883    0.0000 C   0  0  0  0  0  0  0  0  0  0  0  0
   -2.1464   -1.6998    0.0000 C   0  0  0  0  0  0  0  0  0  0  0  0
   -3.6462   -1.7207    0.0000 C   0  0  0  0  0  0  0  0  0  0  0  0
   -4.4142   -0.4322    0.0000 C   0  0  0  0  0  0  0  0  0  0  0  0
   -3.6824    0.8772    0.0000 O   0  0  0  0  0  0  0  0  0  0  0  0
   -5.9141   -0.4530    0.0000 C   0  0  0  0  0  0  0  0  0  0  0  0
   -6.6821    0.8354    0.0000 S   0  0  0  0  0  0  0  0  0  0  0  0
   -7.9706    0.0674    0.0000 O   0  0  0  0  0  0  0  0  0  0  0  0
   -5.3936    1.6034    0.0000 O   0  0  0  0  0  0  0  0  0  0  0  0
   -7.4501    2.1239    0.0000 C   0  0  0  0  0  0  0  0  0  0  0  0
   -6.1616    2.8919    0.0000 F   0  0  0  0  0  0  0  0  0  0  0  0
   -8.7386    1.3559    0.0000 F   0  0  0  0  0  0  0  0  0  0  0  0
   -8.2181    3.4124    0.0000 F   0  0  0  0  0  0  0  0  0  0  0  0
    0.1215   -2.9674    0.0000 C   0  0  0  0  0  0  0  0  0  0  0  0
    1.0199   -4.1686    0.0000 C   0  0  0  0  0  0  0  0  0  0  0  0
    2.4399   -3.6852    0.0000 C   0  0  0  0  0  0  0  0  0  0  0  0
    2.4191   -2.1854    0.0000 C   0  0  0  0  0  0  0  0  0  0  0  0
    3.5197   -1.1663    0.0000 C   0  0  0  0  0  0  0  0  0  0  0  0
    4.9526   -1.6099    0.0000 C   0  0  0  0  0  0  0  0  0  0  0  0
    5.2849   -3.0727    0.0000 O   0  0  0  0  0  0  0  0  0  0  0  0
    6.0533   -0.5908    0.0000 C   0  0  0  0  0  0  0  0  0  0  0  0
    5.7210    0.8719    0.0000 C   0  0  0  0  0  0  0  0  0  0  0  0
    6.8217    1.8910    0.0000 C   0  0  0  0  0  0  0  0  0  0  0  0
    6.4894    3.3538    0.0000 C   0  0  0  0  0  0  0  0  0  0  0  0
    7.5901    4.3729    0.0000 O   0  0  0  0  0  0  0  0  0  0  0  0
    5.0565    3.7974    0.0000 C   0  0  0  0  0  0  0  0  0  0  0  0
    3.9559    2.7783    0.0000 C   0  0  0  0  0  0  0  0  0  0  0  0
    4.2881    1.3156    0.0000 C   0  0  0  0  0  0  0  0  0  0  0  0
    2.8552    1.7592    0.0000 C   0  0  0  0  0  0  0  0  0  0  0  0
    3.1875    0.2965    0.0000 C   0  0  0  0  0  0  0  0  0  0  0  0
    1.7546    0.7401    0.0000 C   0  0  0  0  0  0  0  0  0  0  0  0
    0.6539   -0.2790    0.0000 C   0  0  0  0  0  0  0  0  0  0  0  0
   -0.7790    0.1646    0.0000 O   0  0  0  0  0  0  0  0  0  0  0  0
    0.9862   -1.7417    0.0000 C   0  0  0  0  0  0  0  0  0  0  0  0
   -0.4852   -1.4503    0.0000 C   0  0  0  0  0  0  0  0  0  0  0  0
  2  1  1  6
  2  3  1  0
  3  4  1  0
  4  5  1  0
  5  6  2  0
  5  7  1  0
  7  8  1  0
  8  9  2  0
  8 10  2  0
  8 11  1  0
 11 12  1  0
 11 13  1  0
 11 14  1  0
  2 15  1  0
 15 16  1  6
 16 17  1  0
 18 17  1  6
 18 19  1  0
 19 20  1  1
 20 21  1  1
 20 22  1  0
 23 22  1  1
 23 24  1  0
 24 25  1  0
 25 26  1  1
 25 27  1  0
 27 28  1  0
 28 29  1  0
 29 30  1  6
 29 31  1  0
 31 32  1  6
 32 33  1  0
 33 34  1  1
 33 35  1  0
 35 36  1  6
 35 15  1  0
 35 18  1  0
 31 19  1  0
 29 23  1  0
M  END
>  <MS_ID>  (2535) 
MS2621

>  <SMILES>  (2535) 
C[C@H](CCC(=O)CS(=O)(=O)C(F)(F)F)[C@H]1CC[C@H]2[C@@H]3[C@H](O)C[C@@H]4C[C@H](O)CC[C@]4(C)[C@H]3C[C@H](O)[C@]12C

>  <Structure_dimension>  (2535) 
2D

$$$$
MS2622
     RDKit          2D

 33 36  0  0  0  0  0  0  0  0999 V2000
   -2.4343   -4.1694    0.0000 C   0  0  0  0  0  0  0  0  0  0  0  0
   -1.6856   -2.8696    0.0000 C   0  0  0  0  0  0  0  0  0  0  0  0
   -2.4369   -1.5713    0.0000 C   0  0  0  0  0  0  0  0  0  0  0  0
   -3.9369   -1.5728    0.0000 C   0  0  0  0  0  0  0  0  0  0  0  0
   -4.6882   -0.2745    0.0000 C   0  0  0  0  0  0  0  0  0  0  0  0
   -3.9395    1.0253    0.0000 O   0  0  0  0  0  0  0  0  0  0  0  0
   -6.1882   -0.2760    0.0000 C   0  0  0  0  0  0  0  0  0  0  0  0
   -6.9395    1.0223    0.0000 C   0  0  0  0  0  0  0  0  0  0  0  0
   -8.4395    1.0208    0.0000 C   0  0  0  0  0  0  0  0  0  0  0  0
   -9.1908    2.3191    0.0000 C   0  0  0  0  0  0  0  0  0  0  0  0
   -8.4421    3.6189    0.0000 O   0  0  0  0  0  0  0  0  0  0  0  0
  -10.6908    2.3176    0.0000 O   0  0  0  0  0  0  0  0  0  0  0  0
   -0.1856   -2.8681    0.0000 C   0  0  0  0  0  0  0  0  0  0  0  0
    0.6973   -4.0807    0.0000 C   0  0  0  0  0  0  0  0  0  0  0  0
    2.1234   -3.6158    0.0000 C   0  0  0  0  0  0  0  0  0  0  0  0
    2.1219   -2.1158    0.0000 C   0  0  0  0  0  0  0  0  0  0  0  0
    3.2356   -1.1109    0.0000 C   0  0  0  0  0  0  0  0  0  0  0  0
    4.6626   -1.5730    0.0000 C   0  0  0  0  0  0  0  0  0  0  0  0
    4.9760   -3.0399    0.0000 O   0  0  0  0  0  0  0  0  0  0  0  0
    5.7764   -0.5682    0.0000 C   0  0  0  0  0  0  0  0  0  0  0  0
    5.4630    0.8987    0.0000 C   0  0  0  0  0  0  0  0  0  0  0  0
    6.5767    1.9035    0.0000 C   0  0  0  0  0  0  0  0  0  0  0  0
    6.2634    3.3704    0.0000 C   0  0  0  0  0  0  0  0  0  0  0  0
    7.3771    4.3752    0.0000 O   0  0  0  0  0  0  0  0  0  0  0  0
    4.8363    3.8325    0.0000 C   0  0  0  0  0  0  0  0  0  0  0  0
    3.7226    2.8277    0.0000 C   0  0  0  0  0  0  0  0  0  0  0  0
    4.0360    1.3608    0.0000 C   0  0  0  0  0  0  0  0  0  0  0  0
    2.6089    1.8229    0.0000 C   0  0  0  0  0  0  0  0  0  0  0  0
    2.9223    0.3560    0.0000 C   0  0  0  0  0  0  0  0  0  0  0  0
    1.4952    0.8181    0.0000 C   0  0  0  0  0  0  0  0  0  0  0  0
    0.3815   -0.1867    0.0000 C   0  0  0  0  0  0  0  0  0  0  0  0
    0.6948   -1.6537    0.0000 C   0  0  0  0  0  0  0  0  0  0  0  0
   -0.7727   -1.3433    0.0000 C   0  0  0  0  0  0  0  0  0  0  0  0
  2  1  1  6
  2  3  1  0
  3  4  1  0
  4  5  1  0
  5  6  2  0
  5  7  1  0
  7  8  2  0
  8  9  1  0
  9 10  1  0
 10 11  2  0
 10 12  1  0
  2 13  1  0
 13 14  1  6
 14 15  1  0
 16 15  1  6
 16 17  1  0
 17 18  1  1
 18 19  1  1
 18 20  1  0
 21 20  1  1
 21 22  1  0
 22 23  1  0
 23 24  1  1
 23 25  1  0
 25 26  1  0
 26 27  1  0
 27 28  1  6
 27 29  1  0
 29 30  1  6
 30 31  1  0
 31 32  1  0
 32 33  1  6
 32 13  1  0
 32 16  1  0
 29 17  1  0
 27 21  1  0
M  END
>  <MS_ID>  (2536) 
MS2622

>  <SMILES>  (2536) 
C[C@H](CCC(=O)/C=C/CC(=O)O)[C@H]1CC[C@H]2[C@@H]3[C@H](O)C[C@@H]4C[C@H](O)CC[C@]4(C)[C@H]3CC[C@]12C

>  <Structure_dimension>  (2536) 
2D

$$$$
MS2623
     RDKit          2D

 36 39  0  0  0  0  0  0  0  0999 V2000
   -1.0847   -4.4844    0.0000 C   0  0  0  0  0  0  0  0  0  0  0  0
   -0.4616   -3.1199    0.0000 C   0  0  0  0  0  0  0  0  0  0  0  0
   -1.3317   -1.8981    0.0000 C   0  0  0  0  0  0  0  0  0  0  0  0
   -2.8249   -2.0407    0.0000 C   0  0  0  0  0  0  0  0  0  0  0  0
   -3.6950   -0.8188    0.0000 C   0  0  0  0  0  0  0  0  0  0  0  0
   -3.0719    0.5456    0.0000 O   0  0  0  0  0  0  0  0  0  0  0  0
   -5.1882   -0.9614    0.0000 C   0  0  0  0  0  0  0  0  0  0  0  0
   -5.8113   -2.3259    0.0000 O   0  0  0  0  0  0  0  0  0  0  0  0
   -6.0583    0.2604    0.0000 N   0  0  0  0  0  0  0  0  0  0  0  0
   -7.5515    0.1178    0.0000 C   0  0  0  0  0  0  0  0  0  0  0  0
   -8.4216    1.3397    0.0000 C   0  0  0  0  0  0  0  0  0  0  0  0
   -9.9148    1.1970    0.0000 C   0  0  0  0  0  0  0  0  0  0  0  0
  -10.7849    2.4189    0.0000 C   0  0  0  0  0  0  0  0  0  0  0  0
  -10.1618    3.7834    0.0000 O   0  0  0  0  0  0  0  0  0  0  0  0
  -12.2782    2.2763    0.0000 O   0  0  0  0  0  0  0  0  0  0  0  0
    1.0316   -2.9773    0.0000 C   0  0  0  0  0  0  0  0  0  0  0  0
    2.0247   -4.1015    0.0000 C   0  0  0  0  0  0  0  0  0  0  0  0
    3.4007   -3.5045    0.0000 C   0  0  0  0  0  0  0  0  0  0  0  0
    3.2581   -2.0113    0.0000 C   0  0  0  0  0  0  0  0  0  0  0  0
    4.2724   -0.9061    0.0000 C   0  0  0  0  0  0  0  0  0  0  0  0
    5.7365   -1.2319    0.0000 C   0  0  0  0  0  0  0  0  0  0  0  0
    6.1865   -2.6628    0.0000 O   0  0  0  0  0  0  0  0  0  0  0  0
    6.7508   -0.1268    0.0000 C   0  0  0  0  0  0  0  0  0  0  0  0
    6.3008    1.3041    0.0000 C   0  0  0  0  0  0  0  0  0  0  0  0
    7.3151    2.4093    0.0000 C   0  0  0  0  0  0  0  0  0  0  0  0
    6.8651    3.8402    0.0000 C   0  0  0  0  0  0  0  0  0  0  0  0
    7.8794    4.9453    0.0000 O   0  0  0  0  0  0  0  0  0  0  0  0
    5.4009    4.1660    0.0000 C   0  0  0  0  0  0  0  0  0  0  0  0
    4.3867    3.0609    0.0000 C   0  0  0  0  0  0  0  0  0  0  0  0
    4.8366    1.6299    0.0000 C   0  0  0  0  0  0  0  0  0  0  0  0
    3.3725    1.9557    0.0000 C   0  0  0  0  0  0  0  0  0  0  0  0
    3.8224    0.5248    0.0000 C   0  0  0  0  0  0  0  0  0  0  0  0
    2.3582    0.8506    0.0000 C   0  0  0  0  0  0  0  0  0  0  0  0
    1.3440   -0.2545    0.0000 C   0  0  0  0  0  0  0  0  0  0  0  0
    1.7939   -1.6855    0.0000 C   0  0  0  0  0  0  0  0  0  0  0  0
    0.3037   -1.5145    0.0000 C   0  0  0  0  0  0  0  0  0  0  0  0
  2  1  1  6
  2  3  1  0
  3  4  1  0
  4  5  1  0
  5  6  2  0
  5  7  1  0
  7  8  2  0
  7  9  1  0
  9 10  1  0
 10 11  1  0
 11 12  1  0
 12 13  1  0
 13 14  2  0
 13 15  1  0
  2 16  1  0
 16 17  1  6
 17 18  1  0
 19 18  1  6
 19 20  1  0
 20 21  1  1
 21 22  1  6
 21 23  1  0
 24 23  1  1
 24 25  1  0
 25 26  1  0
 26 27  1  1
 26 28  1  0
 28 29  1  0
 29 30  1  0
 30 31  1  6
 30 32  1  0
 32 33  1  6
 33 34  1  0
 34 35  1  0
 35 36  1  6
 35 16  1  0
 35 19  1  0
 32 20  1  0
 30 24  1  0
M  END
>  <MS_ID>  (2537) 
MS2623

>  <SMILES>  (2537) 
C[C@H](CCC(=O)C(=O)NCCCC(=O)O)[C@H]1CC[C@H]2[C@@H]3[C@@H](O)C[C@@H]4C[C@H](O)CC[C@]4(C)[C@H]3CC[C@]12C

>  <Structure_dimension>  (2537) 
2D

$$$$
MS2624
     RDKit          2D

 32 35  0  0  0  0  0  0  0  0999 V2000
   -4.0566   -3.4043    0.0000 C   0  0  0  0  0  0  0  0  0  0  0  0
   -3.0415   -2.3000    0.0000 C   0  0  0  0  0  0  0  0  0  0  0  0
   -3.4904   -0.8687    0.0000 C   0  0  0  0  0  0  0  0  0  0  0  0
   -4.9543   -0.5418    0.0000 C   0  0  0  0  0  0  0  0  0  0  0  0
   -5.4032    0.8895    0.0000 C   0  0  0  0  0  0  0  0  0  0  0  0
   -4.3881    1.9938    0.0000 O   0  0  0  0  0  0  0  0  0  0  0  0
   -6.8671    1.2164    0.0000 C   0  0  0  0  0  0  0  0  0  0  0  0
   -7.3160    2.6477    0.0000 C   0  0  0  0  0  0  0  0  0  0  0  0
   -6.3009    3.7520    0.0000 O   0  0  0  0  0  0  0  0  0  0  0  0
   -8.7799    2.9746    0.0000 O   0  0  0  0  0  0  0  0  0  0  0  0
   -1.5776   -2.6269    0.0000 C   0  0  0  0  0  0  0  0  0  0  0  0
   -0.9816   -4.0034    0.0000 C   0  0  0  0  0  0  0  0  0  0  0  0
    0.5117   -3.8619    0.0000 C   0  0  0  0  0  0  0  0  0  0  0  0
    0.8386   -2.3980    0.0000 C   0  0  0  0  0  0  0  0  0  0  0  0
    2.1453   -1.6614    0.0000 C   0  0  0  0  0  0  0  0  0  0  0  0
    3.4366   -2.4247    0.0000 C   0  0  0  0  0  0  0  0  0  0  0  0
    4.7433   -1.6880    0.0000 C   0  0  0  0  0  0  0  0  0  0  0  0
    4.7587   -0.1881    0.0000 C   0  0  0  0  0  0  0  0  0  0  0  0
    6.0653    0.5485    0.0000 C   0  0  0  0  0  0  0  0  0  0  0  0
    6.0807    2.0484    0.0000 C   0  0  0  0  0  0  0  0  0  0  0  0
    7.3874    2.7851    0.0000 C   0  0  0  0  0  0  0  0  0  0  0  0
    8.6787    2.0218    0.0000 O   0  0  0  0  0  0  0  0  0  0  0  0
    4.7895    2.8117    0.0000 C   0  0  0  0  0  0  0  0  0  0  0  0
    3.4828    2.0751    0.0000 C   0  0  0  0  0  0  0  0  0  0  0  0
    3.4674    0.5752    0.0000 C   0  0  0  0  0  0  0  0  0  0  0  0
    2.1761    1.3385    0.0000 C   0  0  0  0  0  0  0  0  0  0  0  0
    2.1607   -0.1614    0.0000 C   0  0  0  0  0  0  0  0  0  0  0  0
    0.8694    0.6019    0.0000 C   0  0  0  0  0  0  0  0  0  0  0  0
   -0.4372   -0.1348    0.0000 C   0  0  0  0  0  0  0  0  0  0  0  0
   -1.7285    0.6285    0.0000 O   0  0  0  0  0  0  0  0  0  0  0  0
   -0.4526   -1.6347    0.0000 C   0  0  0  0  0  0  0  0  0  0  0  0
   -1.8166   -1.0105    0.0000 C   0  0  0  0  0  0  0  0  0  0  0  0
  2  1  1  6
  2  3  1  0
  3  4  1  0
  4  5  1  0
  5  6  2  0
  5  7  1  0
  7  8  1  0
  8  9  2  0
  8 10  1  0
  2 11  1  0
 11 12  1  6
 12 13  1  0
 14 13  1  6
 14 15  1  0
 15 16  1  1
 16 17  1  0
 18 17  1  1
 18 19  1  0
 19 20  1  0
 20 21  1  1
 21 22  1  0
 20 23  1  0
 23 24  1  0
 24 25  1  0
 25 26  1  6
 25 27  1  0
 27 28  1  6
 28 29  1  0
 29 30  1  1
 29 31  1  0
 31 32  1  6
 31 11  1  0
 31 14  1  0
 27 15  1  0
 25 18  1  0
M  END
>  <MS_ID>  (2538) 
MS2624

>  <SMILES>  (2538) 
C[C@H](CCC(=O)CC(=O)O)[C@H]1CC[C@H]2[C@@H]3CC[C@@H]4C[C@H](CO)CC[C@]4(C)[C@H]3C[C@H](O)[C@]12C

>  <Structure_dimension>  (2538) 
2D

$$$$
MS2625
     RDKit          2D

 28 31  0  0  0  0  0  0  0  0999 V2000
   -5.1275   -2.0302    0.0000 C   0  0  0  0  0  0  0  0  0  0  0  0
   -3.9468   -1.1050    0.0000 C   0  0  0  0  0  0  0  0  0  0  0  0
   -4.1576    0.3801    0.0000 C   0  0  0  0  0  0  0  0  0  0  0  0
   -5.5492    0.9401    0.0000 C   0  0  0  0  0  0  0  0  0  0  0  0
   -5.7600    2.4252    0.0000 C   0  0  0  0  0  0  0  0  0  0  0  0
   -4.5793    3.3503    0.0000 O   0  0  0  0  0  0  0  0  0  0  0  0
   -7.1516    2.9851    0.0000 O   0  0  0  0  0  0  0  0  0  0  0  0
   -2.5552   -1.6650    0.0000 C   0  0  0  0  0  0  0  0  0  0  0  0
   -2.1903   -3.1199    0.0000 C   0  0  0  0  0  0  0  0  0  0  0  0
   -0.6938   -3.2225    0.0000 C   0  0  0  0  0  0  0  0  0  0  0  0
   -0.1339   -1.8309    0.0000 C   0  0  0  0  0  0  0  0  0  0  0  0
    1.2750   -1.3159    0.0000 C   0  0  0  0  0  0  0  0  0  0  0  0
    2.4254   -2.2785    0.0000 C   0  0  0  0  0  0  0  0  0  0  0  0
    2.1670   -3.7560    0.0000 O   0  0  0  0  0  0  0  0  0  0  0  0
    3.8342   -1.7635    0.0000 C   0  0  0  0  0  0  0  0  0  0  0  0
    4.0926   -0.2859    0.0000 C   0  0  0  0  0  0  0  0  0  0  0  0
    5.5014    0.2291    0.0000 C   0  0  0  0  0  0  0  0  0  0  0  0
    5.7598    1.7067    0.0000 C   0  0  0  0  0  0  0  0  0  0  0  0
    7.1687    2.2217    0.0000 N   0  0  0  0  0  0  0  0  0  0  0  0
    4.6094    2.6692    0.0000 C   0  0  0  0  0  0  0  0  0  0  0  0
    3.2006    2.1542    0.0000 C   0  0  0  0  0  0  0  0  0  0  0  0
    2.9422    0.6767    0.0000 C   0  0  0  0  0  0  0  0  0  0  0  0
    1.7918    1.6392    0.0000 C   0  0  0  0  0  0  0  0  0  0  0  0
    1.5334    0.1617    0.0000 C   0  0  0  0  0  0  0  0  0  0  0  0
    0.3830    1.1242    0.0000 C   0  0  0  0  0  0  0  0  0  0  0  0
   -1.0259    0.6093    0.0000 C   0  0  0  0  0  0  0  0  0  0  0  0
   -1.2843   -0.8683    0.0000 C   0  0  0  0  0  0  0  0  0  0  0  0
   -2.5290   -0.0313    0.0000 C   0  0  0  0  0  0  0  0  0  0  0  0
  2  1  1  6
  2  3  1  0
  3  4  1  0
  4  5  1  0
  5  6  2  0
  5  7  1  0
  2  8  1  0
  8  9  1  6
  9 10  1  0
 11 10  1  6
 11 12  1  0
 12 13  1  1
 13 14  1  1
 13 15  1  0
 16 15  1  1
 16 17  1  0
 17 18  1  0
 18 19  1  6
 18 20  1  0
 20 21  1  0
 21 22  1  0
 22 23  1  6
 22 24  1  0
 24 25  1  6
 25 26  1  0
 26 27  1  0
 27 28  1  6
 27  8  1  0
 27 11  1  0
 24 12  1  0
 22 16  1  0
M  END
>  <MS_ID>  (2539) 
MS2625

>  <SMILES>  (2539) 
C[C@H](CCC(=O)O)[C@H]1CC[C@H]2[C@@H]3[C@H](O)C[C@@H]4C[C@@H](N)CC[C@]4(C)[C@H]3CC[C@]12C

>  <Structure_dimension>  (2539) 
2D

$$$$
MS2626
     RDKit          2D

 36 40  0  0  0  0  0  0  0  0999 V2000
   -1.8695   -4.0446    0.0000 C   0  0  0  0  0  0  0  0  0  0  0  0
   -1.0892   -2.7636    0.0000 C   0  0  0  0  0  0  0  0  0  0  0  0
   -1.8085   -1.4473    0.0000 C   0  0  0  0  0  0  0  0  0  0  0  0
   -3.3081   -1.4120    0.0000 C   0  0  0  0  0  0  0  0  0  0  0  0
   -4.0274   -0.0958    0.0000 C   0  0  0  0  0  0  0  0  0  0  0  0
   -3.2470    1.1853    0.0000 O   0  0  0  0  0  0  0  0  0  0  0  0
   -5.5269   -0.0605    0.0000 O   0  0  0  0  0  0  0  0  0  0  0  0
   -6.2462    1.2558    0.0000 C   0  0  0  0  0  0  0  0  0  0  0  0
   -7.7458    1.2910    0.0000 C   0  0  0  0  0  0  0  0  0  0  0  0
   -8.4651    2.6073    0.0000 C   0  0  0  0  0  0  0  0  0  0  0  0
   -9.9647    2.6425    0.0000 C   0  0  0  0  0  0  0  0  0  0  0  0
  -10.7450    1.3615    0.0000 C   0  0  0  0  0  0  0  0  0  0  0  0
  -10.0257    0.0452    0.0000 N   0  0  0  0  0  0  0  0  0  0  0  0
   -8.5261    0.0099    0.0000 C   0  0  0  0  0  0  0  0  0  0  0  0
    0.4104   -2.7988    0.0000 C   0  0  0  0  0  0  0  0  0  0  0  0
    1.2633   -4.0327    0.0000 C   0  0  0  0  0  0  0  0  0  0  0  0
    2.7004   -3.6028    0.0000 C   0  0  0  0  0  0  0  0  0  0  0  0
    2.7356   -2.1032    0.0000 C   0  0  0  0  0  0  0  0  0  0  0  0
    3.8736   -1.1260    0.0000 C   0  0  0  0  0  0  0  0  0  0  0  0
    5.2889   -1.6229    0.0000 C   0  0  0  0  0  0  0  0  0  0  0  0
    5.5662   -3.0970    0.0000 O   0  0  0  0  0  0  0  0  0  0  0  0
    6.4269   -0.6457    0.0000 C   0  0  0  0  0  0  0  0  0  0  0  0
    6.1496    0.8285    0.0000 C   0  0  0  0  0  0  0  0  0  0  0  0
    7.2876    1.8057    0.0000 C   0  0  0  0  0  0  0  0  0  0  0  0
    7.0102    3.2799    0.0000 C   0  0  0  0  0  0  0  0  0  0  0  0
    8.1482    4.2571    0.0000 O   0  0  0  0  0  0  0  0  0  0  0  0
    5.5949    3.7768    0.0000 C   0  0  0  0  0  0  0  0  0  0  0  0
    4.4570    2.7995    0.0000 C   0  0  0  0  0  0  0  0  0  0  0  0
    4.7343    1.3254    0.0000 C   0  0  0  0  0  0  0  0  0  0  0  0
    3.3190    1.8223    0.0000 C   0  0  0  0  0  0  0  0  0  0  0  0
    3.5963    0.3481    0.0000 C   0  0  0  0  0  0  0  0  0  0  0  0
    2.1810    0.8451    0.0000 C   0  0  0  0  0  0  0  0  0  0  0  0
    1.0430   -0.1322    0.0000 C   0  0  0  0  0  0  0  0  0  0  0  0
   -0.3723    0.3647    0.0000 O   0  0  0  0  0  0  0  0  0  0  0  0
    1.3203   -1.6063    0.0000 C   0  0  0  0  0  0  0  0  0  0  0  0
   -0.1392   -1.2601    0.0000 C   0  0  0  0  0  0  0  0  0  0  0  0
  2  1  1  6
  2  3  1  0
  3  4  1  0
  4  5  1  0
  5  6  2  0
  5  7  1  0
  7  8  1  0
  8  9  1  0
  9 10  2  0
 10 11  1  0
 11 12  2  0
 12 13  1  0
 13 14  2  0
  2 15  1  0
 15 16  1  6
 16 17  1  0
 18 17  1  6
 18 19  1  0
 19 20  1  1
 20 21  1  1
 20 22  1  0
 23 22  1  1
 23 24  1  0
 24 25  1  0
 25 26  1  1
 25 27  1  0
 27 28  1  0
 28 29  1  0
 29 30  1  6
 29 31  1  0
 31 32  1  6
 32 33  1  0
 33 34  1  1
 33 35  1  0
 35 36  1  6
 14  9  1  0
 35 15  1  0
 35 18  1  0
 31 19  1  0
 29 23  1  0
M  END
>  <MS_ID>  (2540) 
MS2626

>  <SMILES>  (2540) 
C[C@H](CCC(=O)OCc1cccnc1)[C@H]1CC[C@H]2[C@@H]3[C@H](O)C[C@@H]4C[C@H](O)CC[C@]4(C)[C@H]3C[C@H](O)[C@]12C

>  <Structure_dimension>  (2540) 
2D

$$$$
MS2627
     RDKit          2D

 34 38  0  0  0  0  0  0  0  0999 V2000
   -2.8489   -4.1271    0.0000 C   0  0  0  0  0  0  0  0  0  0  0  0
   -2.0902   -2.8331    0.0000 C   0  0  0  0  0  0  0  0  0  0  0  0
   -2.8315   -1.5291    0.0000 C   0  0  0  0  0  0  0  0  0  0  0  0
   -4.3315   -1.5191    0.0000 C   0  0  0  0  0  0  0  0  0  0  0  0
   -5.0728   -0.2151    0.0000 C   0  0  0  0  0  0  0  0  0  0  0  0
   -4.3141    1.0789    0.0000 O   0  0  0  0  0  0  0  0  0  0  0  0
   -6.5727   -0.2050    0.0000 N   0  0  0  0  0  0  0  0  0  0  0  0
   -7.3140    1.0990    0.0000 C   0  0  0  0  0  0  0  0  0  0  0  0
   -8.8047    1.2657    0.0000 N   0  0  0  0  0  0  0  0  0  0  0  0
   -9.1068    2.7350    0.0000 N   0  0  0  0  0  0  0  0  0  0  0  0
   -7.8028    3.4763    0.0000 C   0  0  0  0  0  0  0  0  0  0  0  0
   -6.6948    2.4652    0.0000 S   0  0  0  0  0  0  0  0  0  0  0  0
   -0.5902   -2.8432    0.0000 C   0  0  0  0  0  0  0  0  0  0  0  0
    0.2833   -4.0625    0.0000 C   0  0  0  0  0  0  0  0  0  0  0  0
    1.7130   -3.6086    0.0000 C   0  0  0  0  0  0  0  0  0  0  0  0
    1.7230   -2.1086    0.0000 C   0  0  0  0  0  0  0  0  0  0  0  0
    2.8444   -1.1124    0.0000 C   0  0  0  0  0  0  0  0  0  0  0  0
    4.2678   -1.5854    0.0000 C   0  0  0  0  0  0  0  0  0  0  0  0
    4.5699   -3.0547    0.0000 O   0  0  0  0  0  0  0  0  0  0  0  0
    5.3892   -0.5892    0.0000 C   0  0  0  0  0  0  0  0  0  0  0  0
    6.8127   -1.0622    0.0000 O   0  0  0  0  0  0  0  0  0  0  0  0
    5.0872    0.8801    0.0000 C   0  0  0  0  0  0  0  0  0  0  0  0
    6.2086    1.8763    0.0000 C   0  0  0  0  0  0  0  0  0  0  0  0
    5.9065    3.3456    0.0000 C   0  0  0  0  0  0  0  0  0  0  0  0
    7.0279    4.3418    0.0000 O   0  0  0  0  0  0  0  0  0  0  0  0
    4.4831    3.8186    0.0000 C   0  0  0  0  0  0  0  0  0  0  0  0
    3.3617    2.8224    0.0000 C   0  0  0  0  0  0  0  0  0  0  0  0
    3.6637    1.3531    0.0000 C   0  0  0  0  0  0  0  0  0  0  0  0
    2.2403    1.8262    0.0000 C   0  0  0  0  0  0  0  0  0  0  0  0
    2.5423    0.3569    0.0000 C   0  0  0  0  0  0  0  0  0  0  0  0
    1.1189    0.8299    0.0000 C   0  0  0  0  0  0  0  0  0  0  0  0
   -0.0025   -0.1663    0.0000 C   0  0  0  0  0  0  0  0  0  0  0  0
    0.2995   -1.6355    0.0000 C   0  0  0  0  0  0  0  0  0  0  0  0
   -1.1656   -1.3139    0.0000 C   0  0  0  0  0  0  0  0  0  0  0  0
  2  1  1  6
  2  3  1  0
  3  4  1  0
  4  5  1  0
  5  6  2  0
  5  7  1  0
  7  8  1  0
  8  9  2  0
  9 10  1  0
 10 11  2  0
 11 12  1  0
  2 13  1  0
 13 14  1  6
 14 15  1  0
 16 15  1  6
 16 17  1  0
 17 18  1  1
 18 19  1  1
 18 20  1  0
 20 21  1  1
 20 22  1  0
 22 23  1  1
 23 24  1  0
 24 25  1  1
 24 26  1  0
 26 27  1  0
 27 28  1  0
 28 29  1  6
 28 30  1  0
 30 31  1  6
 31 32  1  0
 32 33  1  0
 33 34  1  6
 12  8  1  0
 33 13  1  0
 33 16  1  0
 30 17  1  0
 28 22  1  0
M  END
>  <MS_ID>  (2541) 
MS2627

>  <SMILES>  (2541) 
C[C@H](CCC(=O)Nc1nncs1)[C@H]1CC[C@H]2[C@@H]3[C@H](O)[C@H](O)[C@@H]4C[C@H](O)CC[C@]4(C)[C@H]3CC[C@]12C

>  <Structure_dimension>  (2541) 
2D

$$$$
MS2628
     RDKit          2D

 29 32  0  0  0  0  0  0  0  0999 V2000
   -4.0871   -3.1154    0.0000 C   0  0  0  0  0  0  0  0  0  0  0  0
   -3.0536   -2.0283    0.0000 C   0  0  0  0  0  0  0  0  0  0  0  0
   -3.4784   -0.5897    0.0000 C   0  0  0  0  0  0  0  0  0  0  0  0
   -4.9366   -0.2383    0.0000 C   0  0  0  0  0  0  0  0  0  0  0  0
   -5.3614    1.2003    0.0000 C   0  0  0  0  0  0  0  0  0  0  0  0
   -4.3279    2.2875    0.0000 O   0  0  0  0  0  0  0  0  0  0  0  0
   -6.8197    1.5518    0.0000 C   0  0  0  0  0  0  0  0  0  0  0  0
   -7.2445    2.9904    0.0000 C   0  0  0  0  0  0  0  0  0  0  0  0
   -8.7027    3.3418    0.0000 N   0  0  0  0  0  0  0  0  0  0  0  0
   -1.5953   -2.3797    0.0000 C   0  0  0  0  0  0  0  0  0  0  0  0
   -1.0225   -3.7660    0.0000 C   0  0  0  0  0  0  0  0  0  0  0  0
    0.4730   -3.6496    0.0000 C   0  0  0  0  0  0  0  0  0  0  0  0
    0.8244   -2.1914    0.0000 C   0  0  0  0  0  0  0  0  0  0  0  0
    2.1432   -1.4767    0.0000 C   0  0  0  0  0  0  0  0  0  0  0  0
    3.4215   -2.2616    0.0000 C   0  0  0  0  0  0  0  0  0  0  0  0
    4.7404   -1.5470    0.0000 C   0  0  0  0  0  0  0  0  0  0  0  0
    4.7809   -0.0475    0.0000 C   0  0  0  0  0  0  0  0  0  0  0  0
    6.0998    0.6671    0.0000 C   0  0  0  0  0  0  0  0  0  0  0  0
    6.1403    2.1665    0.0000 C   0  0  0  0  0  0  0  0  0  0  0  0
    7.4592    2.8811    0.0000 O   0  0  0  0  0  0  0  0  0  0  0  0
    4.8620    2.9514    0.0000 C   0  0  0  0  0  0  0  0  0  0  0  0
    3.5432    2.2368    0.0000 C   0  0  0  0  0  0  0  0  0  0  0  0
    3.5026    0.7373    0.0000 C   0  0  0  0  0  0  0  0  0  0  0  0
    2.2243    1.5222    0.0000 C   0  0  0  0  0  0  0  0  0  0  0  0
    2.1838    0.0227    0.0000 C   0  0  0  0  0  0  0  0  0  0  0  0
    0.9055    0.8076    0.0000 C   0  0  0  0  0  0  0  0  0  0  0  0
   -0.4133    0.0929    0.0000 C   0  0  0  0  0  0  0  0  0  0  0  0
   -0.4539   -1.4065    0.0000 C   0  0  0  0  0  0  0  0  0  0  0  0
   -1.8072   -0.7596    0.0000 C   0  0  0  0  0  0  0  0  0  0  0  0
  2  1  1  6
  2  3  1  0
  3  4  1  0
  4  5  1  0
  5  6  2  0
  5  7  1  0
  7  8  1  0
  8  9  1  0
  2 10  1  0
 10 11  1  6
 11 12  1  0
 13 12  1  6
 13 14  1  0
 14 15  1  1
 15 16  1  0
 17 16  1  1
 17 18  1  0
 18 19  1  0
 19 20  1  1
 19 21  1  0
 21 22  1  0
 22 23  1  0
 23 24  1  6
 23 25  1  0
 25 26  1  6
 26 27  1  0
 27 28  1  0
 28 29  1  6
 28 10  1  0
 28 13  1  0
 25 14  1  0
 23 17  1  0
M  END
>  <MS_ID>  (2542) 
MS2628

>  <SMILES>  (2542) 
C[C@H](CCC(=O)CCN)[C@H]1CC[C@H]2[C@@H]3CC[C@@H]4C[C@H](O)CC[C@]4(C)[C@H]3CC[C@]12C

>  <Structure_dimension>  (2542) 
2D

$$$$
MS2629
     RDKit          2D

 34 37  0  0  0  0  0  0  0  0999 V2000
   -2.0431   -4.2971    0.0000 C   0  0  0  0  0  0  0  0  0  0  0  0
   -1.3315   -2.9767    0.0000 C   0  0  0  0  0  0  0  0  0  0  0  0
   -2.1193   -1.7002    0.0000 C   0  0  0  0  0  0  0  0  0  0  0  0
   -3.6187   -1.7442    0.0000 C   0  0  0  0  0  0  0  0  0  0  0  0
   -4.4064   -0.4677    0.0000 C   0  0  0  0  0  0  0  0  0  0  0  0
   -3.6948    0.8528    0.0000 O   0  0  0  0  0  0  0  0  0  0  0  0
   -5.9058   -0.5117    0.0000 N   0  0  0  0  0  0  0  0  0  0  0  0
   -6.6936    0.7648    0.0000 C   0  0  0  0  0  0  0  0  0  0  0  0
   -8.1929    0.7208    0.0000 C   0  0  0  0  0  0  0  0  0  0  0  0
   -8.9807    1.9973    0.0000 S   0  0  0  0  0  0  0  0  0  0  0  0
  -10.2572    1.2096    0.0000 O   0  0  0  0  0  0  0  0  0  0  0  0
   -7.7042    2.7851    0.0000 O   0  0  0  0  0  0  0  0  0  0  0  0
   -9.7684    3.2738    0.0000 O   0  0  0  0  0  0  0  0  0  0  0  0
    0.1678   -2.9327    0.0000 C   0  0  0  0  0  0  0  0  0  0  0  0
    1.0847   -4.1198    0.0000 C   0  0  0  0  0  0  0  0  0  0  0  0
    2.4971   -3.6147    0.0000 C   0  0  0  0  0  0  0  0  0  0  0  0
    2.4531   -2.1153    0.0000 C   0  0  0  0  0  0  0  0  0  0  0  0
    3.5379   -1.0794    0.0000 C   0  0  0  0  0  0  0  0  0  0  0  0
    4.9775   -1.5009    0.0000 C   0  0  0  0  0  0  0  0  0  0  0  0
    5.3322   -2.9583    0.0000 O   0  0  0  0  0  0  0  0  0  0  0  0
    6.0623   -0.4649    0.0000 C   0  0  0  0  0  0  0  0  0  0  0  0
    5.7075    0.9925    0.0000 C   0  0  0  0  0  0  0  0  0  0  0  0
    6.7923    2.0285    0.0000 C   0  0  0  0  0  0  0  0  0  0  0  0
    6.4376    3.4859    0.0000 C   0  0  0  0  0  0  0  0  0  0  0  0
    7.5224    4.5219    0.0000 O   0  0  0  0  0  0  0  0  0  0  0  0
    4.9980    3.9074    0.0000 C   0  0  0  0  0  0  0  0  0  0  0  0
    3.9132    2.8715    0.0000 C   0  0  0  0  0  0  0  0  0  0  0  0
    4.2680    1.4140    0.0000 C   0  0  0  0  0  0  0  0  0  0  0  0
    2.8284    1.8355    0.0000 C   0  0  0  0  0  0  0  0  0  0  0  0
    3.1831    0.3781    0.0000 C   0  0  0  0  0  0  0  0  0  0  0  0
    1.7436    0.7996    0.0000 C   0  0  0  0  0  0  0  0  0  0  0  0
    0.6588   -0.2364    0.0000 C   0  0  0  0  0  0  0  0  0  0  0  0
    1.0135   -1.6938    0.0000 C   0  0  0  0  0  0  0  0  0  0  0  0
   -0.4622   -1.4251    0.0000 C   0  0  0  0  0  0  0  0  0  0  0  0
  2  1  1  6
  2  3  1  0
  3  4  1  0
  4  5  1  0
  5  6  2  0
  5  7  1  0
  7  8  1  0
  8  9  1  0
  9 10  1  0
 10 11  2  0
 10 12  2  0
 10 13  1  0
  2 14  1  0
 14 15  1  6
 15 16  1  0
 17 16  1  6
 17 18  1  0
 18 19  1  1
 19 20  1  6
 19 21  1  0
 22 21  1  1
 22 23  1  0
 23 24  1  0
 24 25  2  0
 24 26  1  0
 26 27  1  0
 27 28  1  0
 28 29  1  6
 28 30  1  0
 30 31  1  6
 31 32  1  0
 32 33  1  0
 33 34  1  6
 33 14  1  0
 33 17  1  0
 30 18  1  0
 28 22  1  0
M  END
>  <MS_ID>  (2543) 
MS2629

>  <SMILES>  (2543) 
C[C@H](CCC(=O)NCCS(=O)(=O)O)[C@H]1CC[C@H]2[C@@H]3[C@@H](O)C[C@@H]4CC(=O)CC[C@]4(C)[C@H]3CC[C@]12C

>  <Structure_dimension>  (2543) 
2D

$$$$
MS2630
     RDKit          2D

 30 33  0  0  0  0  0  0  0  0999 V2000
   -4.7023   -2.6242    0.0000 C   0  0  0  0  0  0  0  0  0  0  0  0
   -3.5985   -1.6085    0.0000 C   0  0  0  0  0  0  0  0  0  0  0  0
   -3.9263   -0.1448    0.0000 C   0  0  0  0  0  0  0  0  0  0  0  0
   -5.3578    0.3033    0.0000 C   0  0  0  0  0  0  0  0  0  0  0  0
   -5.6855    1.7670    0.0000 C   0  0  0  0  0  0  0  0  0  0  0  0
   -7.1171    2.2151    0.0000 O   0  0  0  0  0  0  0  0  0  0  0  0
   -4.5818    2.7827    0.0000 O   0  0  0  0  0  0  0  0  0  0  0  0
   -4.9095    4.2465    0.0000 O   0  0  0  0  0  0  0  0  0  0  0  0
   -2.1670   -2.0566    0.0000 C   0  0  0  0  0  0  0  0  0  0  0  0
   -1.6881   -3.4780    0.0000 C   0  0  0  0  0  0  0  0  0  0  0  0
   -0.1881   -3.4618    0.0000 C   0  0  0  0  0  0  0  0  0  0  0  0
    0.2599   -2.0303    0.0000 C   0  0  0  0  0  0  0  0  0  0  0  0
    1.6235   -1.4054    0.0000 C   0  0  0  0  0  0  0  0  0  0  0  0
    2.8465   -2.2738    0.0000 C   0  0  0  0  0  0  0  0  0  0  0  0
    2.7059   -3.7672    0.0000 O   0  0  0  0  0  0  0  0  0  0  0  0
    4.2102   -1.6489    0.0000 C   0  0  0  0  0  0  0  0  0  0  0  0
    4.3508   -0.1555    0.0000 C   0  0  0  0  0  0  0  0  0  0  0  0
    5.7144    0.4694    0.0000 C   0  0  0  0  0  0  0  0  0  0  0  0
    5.8550    1.9628    0.0000 C   0  0  0  0  0  0  0  0  0  0  0  0
    7.2187    2.5877    0.0000 O   0  0  0  0  0  0  0  0  0  0  0  0
    4.6320    2.8313    0.0000 C   0  0  0  0  0  0  0  0  0  0  0  0
    3.2684    2.2063    0.0000 C   0  0  0  0  0  0  0  0  0  0  0  0
    3.1278    0.7130    0.0000 C   0  0  0  0  0  0  0  0  0  0  0  0
    1.9048    1.5814    0.0000 C   0  0  0  0  0  0  0  0  0  0  0  0
    1.7642    0.0880    0.0000 C   0  0  0  0  0  0  0  0  0  0  0  0
    0.5411    0.9565    0.0000 C   0  0  0  0  0  0  0  0  0  0  0  0
   -0.8225    0.3316    0.0000 C   0  0  0  0  0  0  0  0  0  0  0  0
   -2.0455    1.2001    0.0000 O   0  0  0  0  0  0  0  0  0  0  0  0
   -0.9631   -1.1618    0.0000 C   0  0  0  0  0  0  0  0  0  0  0  0
   -2.2702   -0.4259    0.0000 C   0  0  0  0  0  0  0  0  0  0  0  0
  2  1  1  6
  2  3  1  0
  3  4  1  0
  4  5  1  0
  5  6  2  0
  5  7  1  0
  7  8  1  0
  2  9  1  0
  9 10  1  6
 10 11  1  0
 12 11  1  6
 12 13  1  0
 13 14  1  1
 14 15  1  1
 14 16  1  0
 17 16  1  1
 17 18  1  0
 18 19  1  0
 19 20  2  0
 19 21  1  0
 21 22  1  0
 22 23  1  0
 23 24  1  6
 23 25  1  0
 25 26  1  6
 26 27  1  0
 27 28  1  6
 27 29  1  0
 29 30  1  6
 29  9  1  0
 29 12  1  0
 25 13  1  0
 23 17  1  0
M  END
>  <MS_ID>  (2544) 
MS2630

>  <SMILES>  (2544) 
C[C@H](CCC(=O)OO)[C@H]1CC[C@H]2[C@@H]3[C@H](O)C[C@@H]4CC(=O)CC[C@]4(C)[C@H]3C[C@@H](O)[C@]12C

>  <Structure_dimension>  (2544) 
2D

$$$$
MS2631
     RDKit          2D

 30 33  0  0  0  0  0  0  0  0999 V2000
   -7.4279    3.5601    0.0000 C   0  0  0  0  0  0  0  0  0  0  0  0
   -7.0729    2.1027    0.0000 C   0  0  0  0  0  0  0  0  0  0  0  0
   -5.6333    1.6814    0.0000 C   0  0  0  0  0  0  0  0  0  0  0  0
   -4.5486    2.7174    0.0000 O   0  0  0  0  0  0  0  0  0  0  0  0
   -5.2784    0.2240    0.0000 C   0  0  0  0  0  0  0  0  0  0  0  0
   -3.8388   -0.1974    0.0000 C   0  0  0  0  0  0  0  0  0  0  0  0
   -3.4838   -1.6548    0.0000 C   0  0  0  0  0  0  0  0  0  0  0  0
   -4.5685   -2.6908    0.0000 C   0  0  0  0  0  0  0  0  0  0  0  0
   -2.0442   -2.0761    0.0000 C   0  0  0  0  0  0  0  0  0  0  0  0
   -1.5389   -3.4884    0.0000 C   0  0  0  0  0  0  0  0  0  0  0  0
   -0.0395   -3.4442    0.0000 C   0  0  0  0  0  0  0  0  0  0  0  0
    0.3818   -2.0046    0.0000 C   0  0  0  0  0  0  0  0  0  0  0  0
    1.7336   -1.3544    0.0000 C   0  0  0  0  0  0  0  0  0  0  0  0
    2.9725   -2.1999    0.0000 C   0  0  0  0  0  0  0  0  0  0  0  0
    2.8597   -3.6957    0.0000 O   0  0  0  0  0  0  0  0  0  0  0  0
    4.3243   -1.5497    0.0000 C   0  0  0  0  0  0  0  0  0  0  0  0
    4.4371   -0.0540    0.0000 C   0  0  0  0  0  0  0  0  0  0  0  0
    5.7888    0.5962    0.0000 C   0  0  0  0  0  0  0  0  0  0  0  0
    5.9016    2.0920    0.0000 C   0  0  0  0  0  0  0  0  0  0  0  0
    7.2534    2.7422    0.0000 O   0  0  0  0  0  0  0  0  0  0  0  0
    4.6627    2.9375    0.0000 C   0  0  0  0  0  0  0  0  0  0  0  0
    3.3109    2.2873    0.0000 C   0  0  0  0  0  0  0  0  0  0  0  0
    3.1981    0.7916    0.0000 C   0  0  0  0  0  0  0  0  0  0  0  0
    1.9591    1.6371    0.0000 C   0  0  0  0  0  0  0  0  0  0  0  0
    1.8464    0.1414    0.0000 C   0  0  0  0  0  0  0  0  0  0  0  0
    0.6074    0.9869    0.0000 C   0  0  0  0  0  0  0  0  0  0  0  0
   -0.7444    0.3367    0.0000 C   0  0  0  0  0  0  0  0  0  0  0  0
   -1.9833    1.1823    0.0000 O   0  0  0  0  0  0  0  0  0  0  0  0
   -0.8572   -1.1590    0.0000 C   0  0  0  0  0  0  0  0  0  0  0  0
   -2.1777   -0.4476    0.0000 C   0  0  0  0  0  0  0  0  0  0  0  0
  1  2  1  0
  2  3  1  0
  3  4  2  0
  3  5  1  0
  5  6  1  0
  6  7  1  0
  7  8  1  6
  7  9  1  0
  9 10  1  6
 10 11  1  0
 12 11  1  6
 12 13  1  0
 13 14  1  1
 14 15  1  1
 14 16  1  0
 17 16  1  1
 17 18  1  0
 18 19  1  0
 19 20  2  0
 19 21  1  0
 21 22  1  0
 22 23  1  0
 23 24  1  6
 23 25  1  0
 25 26  1  6
 26 27  1  0
 27 28  1  1
 27 29  1  0
 29 30  1  6
 29  9  1  0
 29 12  1  0
 25 13  1  0
 23 17  1  0
M  END
>  <MS_ID>  (2545) 
MS2631

>  <SMILES>  (2545) 
CCC(=O)CC[C@@H](C)[C@H]1CC[C@H]2[C@@H]3[C@H](O)C[C@@H]4CC(=O)CC[C@]4(C)[C@H]3C[C@H](O)[C@]12C

>  <Structure_dimension>  (2545) 
2D

$$$$
MS2632
     RDKit          2D

 31 34  0  0  0  0  0  0  0  0999 V2000
   -4.3735   -2.9763    0.0000 C   0  0  0  0  0  0  0  0  0  0  0  0
   -3.3227   -1.9059    0.0000 C   0  0  0  0  0  0  0  0  0  0  0  0
   -3.7243   -0.4607    0.0000 C   0  0  0  0  0  0  0  0  0  0  0  0
   -5.1767   -0.0858    0.0000 C   0  0  0  0  0  0  0  0  0  0  0  0
   -5.5783    1.3594    0.0000 C   0  0  0  0  0  0  0  0  0  0  0  0
   -7.0307    1.7342    0.0000 O   0  0  0  0  0  0  0  0  0  0  0  0
   -4.5274    2.4298    0.0000 S   0  0  0  0  0  0  0  0  0  0  0  0
   -3.4766    3.5002    0.0000 C   0  0  0  0  0  0  0  0  0  0  0  0
   -3.4570    1.3790    0.0000 O   0  0  0  0  0  0  0  0  0  0  0  0
   -5.5978    3.4806    0.0000 O   0  0  0  0  0  0  0  0  0  0  0  0
   -1.8703   -2.2808    0.0000 C   0  0  0  0  0  0  0  0  0  0  0  0
   -1.3198   -3.6761    0.0000 C   0  0  0  0  0  0  0  0  0  0  0  0
    0.1774   -3.5838    0.0000 C   0  0  0  0  0  0  0  0  0  0  0  0
    0.5522   -2.1314    0.0000 C   0  0  0  0  0  0  0  0  0  0  0  0
    1.8824   -1.4381    0.0000 C   0  0  0  0  0  0  0  0  0  0  0  0
    3.1478   -2.2434    0.0000 C   0  0  0  0  0  0  0  0  0  0  0  0
    3.0832   -3.7420    0.0000 O   0  0  0  0  0  0  0  0  0  0  0  0
    4.4780   -1.5501    0.0000 C   0  0  0  0  0  0  0  0  0  0  0  0
    4.5427   -0.0515    0.0000 C   0  0  0  0  0  0  0  0  0  0  0  0
    5.8729    0.6418    0.0000 C   0  0  0  0  0  0  0  0  0  0  0  0
    5.9375    2.1404    0.0000 C   0  0  0  0  0  0  0  0  0  0  0  0
    7.2677    2.8337    0.0000 O   0  0  0  0  0  0  0  0  0  0  0  0
    4.6720    2.9457    0.0000 C   0  0  0  0  0  0  0  0  0  0  0  0
    3.3419    2.2524    0.0000 C   0  0  0  0  0  0  0  0  0  0  0  0
    3.2772    0.7538    0.0000 C   0  0  0  0  0  0  0  0  0  0  0  0
    2.0117    1.5591    0.0000 C   0  0  0  0  0  0  0  0  0  0  0  0
    1.9470    0.0605    0.0000 C   0  0  0  0  0  0  0  0  0  0  0  0
    0.6815    0.8658    0.0000 C   0  0  0  0  0  0  0  0  0  0  0  0
   -0.6486    0.1725    0.0000 C   0  0  0  0  0  0  0  0  0  0  0  0
   -0.7133   -1.3261    0.0000 C   0  0  0  0  0  0  0  0  0  0  0  0
   -2.0560   -0.6574    0.0000 C   0  0  0  0  0  0  0  0  0  0  0  0
  2  1  1  6
  2  3  1  0
  3  4  1  0
  4  5  1  0
  5  6  2  0
  5  7  1  0
  7  8  1  0
  7  9  2  0
  7 10  2  0
  2 11  1  0
 11 12  1  6
 12 13  1  0
 14 13  1  6
 14 15  1  0
 15 16  1  1
 16 17  1  1
 16 18  1  0
 19 18  1  1
 19 20  1  0
 20 21  1  0
 21 22  1  1
 21 23  1  0
 23 24  1  0
 24 25  1  0
 25 26  1  6
 25 27  1  0
 27 28  1  6
 28 29  1  0
 29 30  1  0
 30 31  1  6
 30 11  1  0
 30 14  1  0
 27 15  1  0
 25 19  1  0
M  END
>  <MS_ID>  (2546) 
MS2632

>  <SMILES>  (2546) 
C[C@H](CCC(=O)S(C)(=O)=O)[C@H]1CC[C@H]2[C@@H]3[C@H](O)C[C@@H]4C[C@H](O)CC[C@]4(C)[C@H]3CC[C@]12C

>  <Structure_dimension>  (2546) 
2D

$$$$
MS2633
     RDKit          2D

 28 31  0  0  0  0  0  0  0  0999 V2000
   -5.1275   -2.0302    0.0000 C   0  0  0  0  0  0  0  0  0  0  0  0
   -3.9468   -1.1050    0.0000 C   0  0  0  0  0  0  0  0  0  0  0  0
   -4.1576    0.3801    0.0000 C   0  0  0  0  0  0  0  0  0  0  0  0
   -5.5492    0.9401    0.0000 C   0  0  0  0  0  0  0  0  0  0  0  0
   -5.7600    2.4252    0.0000 C   0  0  0  0  0  0  0  0  0  0  0  0
   -4.5793    3.3503    0.0000 O   0  0  0  0  0  0  0  0  0  0  0  0
   -7.1516    2.9851    0.0000 O   0  0  0  0  0  0  0  0  0  0  0  0
   -2.5552   -1.6650    0.0000 C   0  0  0  0  0  0  0  0  0  0  0  0
   -2.1903   -3.1199    0.0000 C   0  0  0  0  0  0  0  0  0  0  0  0
   -0.6938   -3.2225    0.0000 C   0  0  0  0  0  0  0  0  0  0  0  0
   -0.1339   -1.8309    0.0000 C   0  0  0  0  0  0  0  0  0  0  0  0
    1.2750   -1.3159    0.0000 C   0  0  0  0  0  0  0  0  0  0  0  0
    2.4254   -2.2785    0.0000 C   0  0  0  0  0  0  0  0  0  0  0  0
    2.1670   -3.7560    0.0000 O   0  0  0  0  0  0  0  0  0  0  0  0
    3.8342   -1.7635    0.0000 C   0  0  0  0  0  0  0  0  0  0  0  0
    4.0926   -0.2859    0.0000 C   0  0  0  0  0  0  0  0  0  0  0  0
    5.5014    0.2291    0.0000 C   0  0  0  0  0  0  0  0  0  0  0  0
    5.7598    1.7067    0.0000 C   0  0  0  0  0  0  0  0  0  0  0  0
    7.1687    2.2217    0.0000 Cl  0  0  0  0  0  0  0  0  0  0  0  0
    4.6094    2.6692    0.0000 C   0  0  0  0  0  0  0  0  0  0  0  0
    3.2006    2.1542    0.0000 C   0  0  0  0  0  0  0  0  0  0  0  0
    2.9422    0.6767    0.0000 C   0  0  0  0  0  0  0  0  0  0  0  0
    1.7918    1.6392    0.0000 C   0  0  0  0  0  0  0  0  0  0  0  0
    1.5334    0.1617    0.0000 C   0  0  0  0  0  0  0  0  0  0  0  0
    0.3830    1.1242    0.0000 C   0  0  0  0  0  0  0  0  0  0  0  0
   -1.0259    0.6093    0.0000 C   0  0  0  0  0  0  0  0  0  0  0  0
   -1.2843   -0.8683    0.0000 C   0  0  0  0  0  0  0  0  0  0  0  0
   -2.5290   -0.0313    0.0000 C   0  0  0  0  0  0  0  0  0  0  0  0
  2  1  1  6
  2  3  1  0
  3  4  1  0
  4  5  1  0
  5  6  2  0
  5  7  1  0
  2  8  1  0
  8  9  1  6
  9 10  1  0
 11 10  1  6
 11 12  1  0
 12 13  1  1
 13 14  1  6
 13 15  1  0
 16 15  1  1
 16 17  1  0
 17 18  1  0
 18 19  1  6
 18 20  1  0
 20 21  1  0
 21 22  1  0
 22 23  1  6
 22 24  1  0
 24 25  1  6
 25 26  1  0
 26 27  1  0
 27 28  1  6
 27  8  1  0
 27 11  1  0
 24 12  1  0
 22 16  1  0
M  END
>  <MS_ID>  (2547) 
MS2633

>  <SMILES>  (2547) 
C[C@H](CCC(=O)O)[C@H]1CC[C@H]2[C@@H]3[C@@H](O)C[C@@H]4C[C@@H](Cl)CC[C@]4(C)[C@H]3CC[C@]12C

>  <Structure_dimension>  (2547) 
2D

$$$$
MS2634
     RDKit          2D

 34 37  0  0  0  0  0  0  0  0999 V2000
   -1.9522   -5.2583    0.0000 C   0  0  0  0  0  0  0  0  0  0  0  0
   -1.3940   -3.8661    0.0000 C   0  0  0  0  0  0  0  0  0  0  0  0
   -2.3207   -2.6865    0.0000 C   0  0  0  0  0  0  0  0  0  0  0  0
   -3.8055   -2.8993    0.0000 C   0  0  0  0  0  0  0  0  0  0  0  0
   -4.7321   -1.7197    0.0000 C   0  0  0  0  0  0  0  0  0  0  0  0
   -6.2170   -1.9324    0.0000 O   0  0  0  0  0  0  0  0  0  0  0  0
   -4.1740   -0.3274    0.0000 O   0  0  0  0  0  0  0  0  0  0  0  0
   -5.1006    0.8521    0.0000 C   0  0  0  0  0  0  0  0  0  0  0  0
   -6.5854    0.6394    0.0000 O   0  0  0  0  0  0  0  0  0  0  0  0
   -4.5424    2.2444    0.0000 C   0  0  0  0  0  0  0  0  0  0  0  0
   -5.4691    3.4239    0.0000 C   0  0  0  0  0  0  0  0  0  0  0  0
   -4.9109    4.8162    0.0000 C   0  0  0  0  0  0  0  0  0  0  0  0
   -3.4260    5.0289    0.0000 O   0  0  0  0  0  0  0  0  0  0  0  0
   -5.8375    5.9957    0.0000 O   0  0  0  0  0  0  0  0  0  0  0  0
    0.0908   -3.6533    0.0000 C   0  0  0  0  0  0  0  0  0  0  0  0
    1.1357   -4.7296    0.0000 C   0  0  0  0  0  0  0  0  0  0  0  0
    2.4821   -4.0684    0.0000 C   0  0  0  0  0  0  0  0  0  0  0  0
    2.2694   -2.5836    0.0000 C   0  0  0  0  0  0  0  0  0  0  0  0
    3.2305   -1.4319    0.0000 C   0  0  0  0  0  0  0  0  0  0  0  0
    4.7084   -1.6884    0.0000 C   0  0  0  0  0  0  0  0  0  0  0  0
    5.6695   -0.5368    0.0000 C   0  0  0  0  0  0  0  0  0  0  0  0
    5.1527    0.8714    0.0000 C   0  0  0  0  0  0  0  0  0  0  0  0
    6.1138    2.0230    0.0000 C   0  0  0  0  0  0  0  0  0  0  0  0
    5.5970    3.4312    0.0000 C   0  0  0  0  0  0  0  0  0  0  0  0
    6.5581    4.5828    0.0000 O   0  0  0  0  0  0  0  0  0  0  0  0
    4.1191    3.6877    0.0000 C   0  0  0  0  0  0  0  0  0  0  0  0
    3.1580    2.5361    0.0000 C   0  0  0  0  0  0  0  0  0  0  0  0
    3.6748    1.1279    0.0000 C   0  0  0  0  0  0  0  0  0  0  0  0
    2.1969    1.3844    0.0000 C   0  0  0  0  0  0  0  0  0  0  0  0
    2.7137   -0.0237    0.0000 C   0  0  0  0  0  0  0  0  0  0  0  0
    1.2358    0.2328    0.0000 C   0  0  0  0  0  0  0  0  0  0  0  0
    0.2747   -0.9189    0.0000 C   0  0  0  0  0  0  0  0  0  0  0  0
    0.7915   -2.3270    0.0000 C   0  0  0  0  0  0  0  0  0  0  0  0
   -0.7051   -2.2264    0.0000 C   0  0  0  0  0  0  0  0  0  0  0  0
  2  1  1  6
  2  3  1  0
  3  4  1  0
  4  5  1  0
  5  6  2  0
  5  7  1  0
  7  8  1  0
  8  9  2  0
  8 10  1  0
 10 11  1  0
 11 12  1  0
 12 13  2  0
 12 14  1  0
  2 15  1  0
 15 16  1  6
 16 17  1  0
 18 17  1  6
 18 19  1  0
 19 20  1  1
 20 21  1  0
 22 21  1  1
 22 23  1  0
 23 24  1  0
 24 25  2  0
 24 26  1  0
 26 27  1  0
 27 28  1  0
 28 29  1  6
 28 30  1  0
 30 31  1  6
 31 32  1  0
 32 33  1  0
 33 34  1  6
 33 15  1  0
 33 18  1  0
 30 19  1  0
 28 22  1  0
M  END
>  <MS_ID>  (2548) 
MS2634

>  <SMILES>  (2548) 
C[C@H](CCC(=O)OC(=O)CCC(=O)O)[C@H]1CC[C@H]2[C@@H]3CC[C@@H]4CC(=O)CC[C@]4(C)[C@H]3CC[C@]12C

>  <Structure_dimension>  (2548) 
2D

$$$$
MS2635
     RDKit          2D

 33 36  0  0  0  0  0  0  0  0999 V2000
   -9.1319    3.7810    0.0000 C   0  0  0  0  0  0  0  0  0  0  0  0
   -7.6948    3.3511    0.0000 C   0  0  0  0  0  0  0  0  0  0  0  0
   -7.3486    1.8916    0.0000 O   0  0  0  0  0  0  0  0  0  0  0  0
   -5.9116    1.4616    0.0000 C   0  0  0  0  0  0  0  0  0  0  0  0
   -4.8207    2.4912    0.0000 O   0  0  0  0  0  0  0  0  0  0  0  0
   -5.5654    0.0021    0.0000 C   0  0  0  0  0  0  0  0  0  0  0  0
   -4.1283   -0.4279    0.0000 C   0  0  0  0  0  0  0  0  0  0  0  0
   -3.7822   -1.8874    0.0000 C   0  0  0  0  0  0  0  0  0  0  0  0
   -4.8730   -2.9169    0.0000 C   0  0  0  0  0  0  0  0  0  0  0  0
   -2.3451   -2.3173    0.0000 C   0  0  0  0  0  0  0  0  0  0  0  0
   -1.8483   -3.7326    0.0000 C   0  0  0  0  0  0  0  0  0  0  0  0
   -0.3487   -3.6975    0.0000 C   0  0  0  0  0  0  0  0  0  0  0  0
    0.0813   -2.2604    0.0000 C   0  0  0  0  0  0  0  0  0  0  0  0
    1.4369   -1.6183    0.0000 C   0  0  0  0  0  0  0  0  0  0  0  0
    2.6708   -2.4713    0.0000 C   0  0  0  0  0  0  0  0  0  0  0  0
    2.5490   -3.9664    0.0000 O   0  0  0  0  0  0  0  0  0  0  0  0
    4.0264   -1.8293    0.0000 C   0  0  0  0  0  0  0  0  0  0  0  0
    4.1482   -0.3342    0.0000 C   0  0  0  0  0  0  0  0  0  0  0  0
    5.5038    0.3078    0.0000 C   0  0  0  0  0  0  0  0  0  0  0  0
    5.6256    1.8029    0.0000 C   0  0  0  0  0  0  0  0  0  0  0  0
    6.9813    2.4450    0.0000 O   0  0  0  0  0  0  0  0  0  0  0  0
    8.2151    1.5920    0.0000 C   0  0  0  0  0  0  0  0  0  0  0  0
    9.5708    2.2340    0.0000 C   0  0  0  0  0  0  0  0  0  0  0  0
    4.3918    2.6559    0.0000 C   0  0  0  0  0  0  0  0  0  0  0  0
    3.0361    2.0138    0.0000 C   0  0  0  0  0  0  0  0  0  0  0  0
    2.9143    0.5188    0.0000 C   0  0  0  0  0  0  0  0  0  0  0  0
    1.6805    1.3718    0.0000 C   0  0  0  0  0  0  0  0  0  0  0  0
    1.5587   -0.1233    0.0000 C   0  0  0  0  0  0  0  0  0  0  0  0
    0.3248    0.7297    0.0000 C   0  0  0  0  0  0  0  0  0  0  0  0
   -1.0308    0.0876    0.0000 C   0  0  0  0  0  0  0  0  0  0  0  0
   -2.2647    0.9406    0.0000 O   0  0  0  0  0  0  0  0  0  0  0  0
   -1.1526   -1.4074    0.0000 C   0  0  0  0  0  0  0  0  0  0  0  0
   -2.4688   -0.6881    0.0000 C   0  0  0  0  0  0  0  0  0  0  0  0
  1  2  1  0
  2  3  1  0
  3  4  1  0
  4  5  2  0
  4  6  1  0
  6  7  1  0
  7  8  1  0
  8  9  1  6
  8 10  1  0
 10 11  1  6
 11 12  1  0
 13 12  1  6
 13 14  1  0
 14 15  1  1
 15 16  1  1
 15 17  1  0
 18 17  1  1
 18 19  1  0
 19 20  1  0
 20 21  1  1
 21 22  1  0
 22 23  1  0
 20 24  1  0
 24 25  1  0
 25 26  1  0
 26 27  1  6
 26 28  1  0
 28 29  1  6
 29 30  1  0
 30 31  1  1
 30 32  1  0
 32 33  1  6
 32 10  1  0
 32 13  1  0
 28 14  1  0
 26 18  1  0
M  END
>  <MS_ID>  (2549) 
MS2635

>  <SMILES>  (2549) 
CCOC(=O)CC[C@@H](C)[C@H]1CC[C@H]2[C@@H]3[C@H](O)C[C@@H]4C[C@H](OCC)CC[C@]4(C)[C@H]3C[C@H](O)[C@]12C

>  <Structure_dimension>  (2549) 
2D

$$$$
MS2636
     RDKit          2D

 32 35  0  0  0  0  0  0  0  0999 V2000
   -9.0946    1.0175    0.0000 C   0  0  0  0  0  0  0  0  0  0  0  0
   -7.6382    0.6585    0.0000 C   0  0  0  0  0  0  0  0  0  0  0  0
   -6.5991    1.7404    0.0000 N   0  0  0  0  0  0  0  0  0  0  0  0
   -7.0165    3.1811    0.0000 C   0  0  0  0  0  0  0  0  0  0  0  0
   -5.1427    1.3814    0.0000 C   0  0  0  0  0  0  0  0  0  0  0  0
   -4.1036    2.4632    0.0000 O   0  0  0  0  0  0  0  0  0  0  0  0
   -4.7254   -0.0593    0.0000 C   0  0  0  0  0  0  0  0  0  0  0  0
   -3.2689   -0.4183    0.0000 C   0  0  0  0  0  0  0  0  0  0  0  0
   -2.8516   -1.8591    0.0000 C   0  0  0  0  0  0  0  0  0  0  0  0
   -3.8907   -2.9409    0.0000 C   0  0  0  0  0  0  0  0  0  0  0  0
   -1.3952   -2.2180    0.0000 C   0  0  0  0  0  0  0  0  0  0  0  0
   -0.8295   -3.6073    0.0000 C   0  0  0  0  0  0  0  0  0  0  0  0
    0.6666   -3.4986    0.0000 C   0  0  0  0  0  0  0  0  0  0  0  0
    1.0255   -2.0422    0.0000 C   0  0  0  0  0  0  0  0  0  0  0  0
    2.3480   -1.3344    0.0000 C   0  0  0  0  0  0  0  0  0  0  0  0
    3.6222   -2.1258    0.0000 C   0  0  0  0  0  0  0  0  0  0  0  0
    3.5739   -3.6250    0.0000 O   0  0  0  0  0  0  0  0  0  0  0  0
    4.9447   -1.4180    0.0000 C   0  0  0  0  0  0  0  0  0  0  0  0
    4.9930    0.0812    0.0000 C   0  0  0  0  0  0  0  0  0  0  0  0
    6.3156    0.7890    0.0000 C   0  0  0  0  0  0  0  0  0  0  0  0
    6.3639    2.2882    0.0000 C   0  0  0  0  0  0  0  0  0  0  0  0
    7.6864    2.9960    0.0000 O   0  0  0  0  0  0  0  0  0  0  0  0
    5.0896    3.0796    0.0000 C   0  0  0  0  0  0  0  0  0  0  0  0
    3.7671    2.3719    0.0000 C   0  0  0  0  0  0  0  0  0  0  0  0
    3.7188    0.8726    0.0000 C   0  0  0  0  0  0  0  0  0  0  0  0
    2.4446    1.6641    0.0000 C   0  0  0  0  0  0  0  0  0  0  0  0
    2.3963    0.1648    0.0000 C   0  0  0  0  0  0  0  0  0  0  0  0
    1.1221    0.9563    0.0000 C   0  0  0  0  0  0  0  0  0  0  0  0
   -0.2004    0.2485    0.0000 C   0  0  0  0  0  0  0  0  0  0  0  0
   -1.4746    1.0399    0.0000 O   0  0  0  0  0  0  0  0  0  0  0  0
   -0.2487   -1.2507    0.0000 C   0  0  0  0  0  0  0  0  0  0  0  0
   -1.5987   -0.5968    0.0000 C   0  0  0  0  0  0  0  0  0  0  0  0
  1  2  1  0
  2  3  1  0
  3  4  1  0
  3  5  1  0
  5  6  2  0
  5  7  1  0
  7  8  1  0
  8  9  1  0
  9 10  1  6
  9 11  1  0
 11 12  1  6
 12 13  1  0
 14 13  1  6
 14 15  1  0
 15 16  1  1
 16 17  1  1
 16 18  1  0
 19 18  1  1
 19 20  1  0
 20 21  1  0
 21 22  1  1
 21 23  1  0
 23 24  1  0
 24 25  1  0
 25 26  1  6
 25 27  1  0
 27 28  1  6
 28 29  1  0
 29 30  1  1
 29 31  1  0
 31 32  1  6
 31 11  1  0
 31 14  1  0
 27 15  1  0
 25 19  1  0
M  END
>  <MS_ID>  (2550) 
MS2636

>  <SMILES>  (2550) 
CCN(C)C(=O)CC[C@@H](C)[C@H]1CC[C@H]2[C@@H]3[C@H](O)C[C@@H]4C[C@H](O)CC[C@]4(C)[C@H]3C[C@H](O)[C@]12C

>  <Structure_dimension>  (2550) 
2D

$$$$
MS2637
     RDKit          2D

 28 31  0  0  0  0  0  0  0  0999 V2000
   -5.1275   -2.0302    0.0000 C   0  0  0  0  0  0  0  0  0  0  0  0
   -3.9468   -1.1050    0.0000 C   0  0  0  0  0  0  0  0  0  0  0  0
   -4.1576    0.3801    0.0000 C   0  0  0  0  0  0  0  0  0  0  0  0
   -5.5492    0.9401    0.0000 C   0  0  0  0  0  0  0  0  0  0  0  0
   -5.7600    2.4252    0.0000 C   0  0  0  0  0  0  0  0  0  0  0  0
   -4.5793    3.3503    0.0000 O   0  0  0  0  0  0  0  0  0  0  0  0
   -7.1516    2.9851    0.0000 O   0  0  0  0  0  0  0  0  0  0  0  0
   -2.5552   -1.6650    0.0000 C   0  0  0  0  0  0  0  0  0  0  0  0
   -2.1903   -3.1199    0.0000 C   0  0  0  0  0  0  0  0  0  0  0  0
   -0.6938   -3.2225    0.0000 C   0  0  0  0  0  0  0  0  0  0  0  0
   -0.1339   -1.8309    0.0000 C   0  0  0  0  0  0  0  0  0  0  0  0
    1.2750   -1.3159    0.0000 C   0  0  0  0  0  0  0  0  0  0  0  0
    2.4254   -2.2785    0.0000 C   0  0  0  0  0  0  0  0  0  0  0  0
    2.1670   -3.7560    0.0000 N   0  0  0  0  0  0  0  0  0  0  0  0
    3.8342   -1.7635    0.0000 C   0  0  0  0  0  0  0  0  0  0  0  0
    4.0926   -0.2859    0.0000 C   0  0  0  0  0  0  0  0  0  0  0  0
    5.5014    0.2291    0.0000 C   0  0  0  0  0  0  0  0  0  0  0  0
    5.7598    1.7067    0.0000 C   0  0  0  0  0  0  0  0  0  0  0  0
    7.1687    2.2217    0.0000 O   0  0  0  0  0  0  0  0  0  0  0  0
    4.6094    2.6692    0.0000 C   0  0  0  0  0  0  0  0  0  0  0  0
    3.2006    2.1542    0.0000 C   0  0  0  0  0  0  0  0  0  0  0  0
    2.9422    0.6767    0.0000 C   0  0  0  0  0  0  0  0  0  0  0  0
    1.7918    1.6392    0.0000 C   0  0  0  0  0  0  0  0  0  0  0  0
    1.5334    0.1617    0.0000 C   0  0  0  0  0  0  0  0  0  0  0  0
    0.3830    1.1242    0.0000 C   0  0  0  0  0  0  0  0  0  0  0  0
   -1.0259    0.6093    0.0000 C   0  0  0  0  0  0  0  0  0  0  0  0
   -1.2843   -0.8683    0.0000 C   0  0  0  0  0  0  0  0  0  0  0  0
   -2.5290   -0.0313    0.0000 C   0  0  0  0  0  0  0  0  0  0  0  0
  2  1  1  6
  2  3  1  0
  3  4  1  0
  4  5  1  0
  5  6  2  0
  5  7  1  0
  2  8  1  0
  8  9  1  6
  9 10  1  0
 11 10  1  6
 11 12  1  0
 12 13  1  1
 13 14  1  6
 13 15  1  0
 16 15  1  1
 16 17  1  0
 17 18  1  0
 18 19  1  6
 18 20  1  0
 20 21  1  0
 21 22  1  0
 22 23  1  6
 22 24  1  0
 24 25  1  6
 25 26  1  0
 26 27  1  0
 27 28  1  6
 27  8  1  0
 27 11  1  0
 24 12  1  0
 22 16  1  0
M  END
>  <MS_ID>  (2551) 
MS2637

>  <SMILES>  (2551) 
C[C@H](CCC(=O)O)[C@H]1CC[C@H]2[C@@H]3[C@@H](N)C[C@@H]4C[C@@H](O)CC[C@]4(C)[C@H]3CC[C@]12C

>  <Structure_dimension>  (2551) 
2D

$$$$
MS2638
     RDKit          2D

 34 37  0  0  0  0  0  0  0  0999 V2000
   -4.7515   -2.7238    0.0000 C   0  0  0  0  0  0  0  0  0  0  0  0
   -3.9085   -1.4831    0.0000 C   0  0  0  0  0  0  0  0  0  0  0  0
   -4.5614   -0.1327    0.0000 C   0  0  0  0  0  0  0  0  0  0  0  0
   -6.0574   -0.0229    0.0000 C   0  0  0  0  0  0  0  0  0  0  0  0
   -6.7103    1.3275    0.0000 C   0  0  0  0  0  0  0  0  0  0  0  0
   -5.8673    2.5682    0.0000 O   0  0  0  0  0  0  0  0  0  0  0  0
   -8.2063    1.4373    0.0000 O   0  0  0  0  0  0  0  0  0  0  0  0
   -2.4125   -1.5929    0.0000 C   0  0  0  0  0  0  0  0  0  0  0  0
   -1.6220   -2.8677    0.0000 C   0  0  0  0  0  0  0  0  0  0  0  0
   -0.1653   -2.5098    0.0000 C   0  0  0  0  0  0  0  0  0  0  0  0
   -0.0556   -1.0138    0.0000 C   0  0  0  0  0  0  0  0  0  0  0  0
    1.1296   -0.0944    0.0000 C   0  0  0  0  0  0  0  0  0  0  0  0
    2.5185   -0.6611    0.0000 C   0  0  0  0  0  0  0  0  0  0  0  0
    2.7221   -2.1472    0.0000 O   0  0  0  0  0  0  0  0  0  0  0  0
    4.1110   -2.7139    0.0000 C   0  0  0  0  0  0  0  0  0  0  0  0
    4.3146   -4.2000    0.0000 C   0  0  0  0  0  0  0  0  0  0  0  0
    3.1294   -5.1194    0.0000 C   0  0  0  0  0  0  0  0  0  0  0  0
    1.7406   -4.5527    0.0000 O   0  0  0  0  0  0  0  0  0  0  0  0
    3.3331   -6.6055    0.0000 O   0  0  0  0  0  0  0  0  0  0  0  0
    3.7036    0.2584    0.0000 C   0  0  0  0  0  0  0  0  0  0  0  0
    3.5000    1.7445    0.0000 C   0  0  0  0  0  0  0  0  0  0  0  0
    4.6851    2.6639    0.0000 C   0  0  0  0  0  0  0  0  0  0  0  0
    4.4815    4.1500    0.0000 C   0  0  0  0  0  0  0  0  0  0  0  0
    5.6667    5.0694    0.0000 O   0  0  0  0  0  0  0  0  0  0  0  0
    3.0926    4.7167    0.0000 C   0  0  0  0  0  0  0  0  0  0  0  0
    1.9075    3.7973    0.0000 C   0  0  0  0  0  0  0  0  0  0  0  0
    2.1111    2.3111    0.0000 C   0  0  0  0  0  0  0  0  0  0  0  0
    0.7223    2.8778    0.0000 C   0  0  0  0  0  0  0  0  0  0  0  0
    0.9260    1.3917    0.0000 C   0  0  0  0  0  0  0  0  0  0  0  0
   -0.4629    1.9584    0.0000 C   0  0  0  0  0  0  0  0  0  0  0  0
   -1.6481    1.0390    0.0000 C   0  0  0  0  0  0  0  0  0  0  0  0
   -3.0369    1.6056    0.0000 O   0  0  0  0  0  0  0  0  0  0  0  0
   -1.4444   -0.4471    0.0000 C   0  0  0  0  0  0  0  0  0  0  0  0
   -2.8849   -0.0287    0.0000 C   0  0  0  0  0  0  0  0  0  0  0  0
  2  1  1  6
  2  3  1  0
  3  4  1  0
  4  5  1  0
  5  6  2  0
  5  7  1  0
  2  8  1  0
  8  9  1  6
  9 10  1  0
 11 10  1  6
 11 12  1  0
 12 13  1  1
 13 14  1  1
 14 15  1  0
 15 16  2  0
 16 17  1  0
 17 18  2  0
 17 19  1  0
 13 20  1  0
 21 20  1  1
 21 22  1  0
 22 23  1  0
 23 24  1  1
 23 25  1  0
 25 26  1  0
 26 27  1  0
 27 28  1  6
 27 29  1  0
 29 30  1  6
 30 31  1  0
 31 32  1  1
 31 33  1  0
 33 34  1  6
 33  8  1  0
 33 11  1  0
 29 12  1  0
 27 21  1  0
M  END
>  <MS_ID>  (2552) 
MS2638

>  <SMILES>  (2552) 
C[C@H](CCC(=O)O)[C@H]1CC[C@H]2[C@@H]3[C@H](O/C=C\C(=O)O)C[C@@H]4C[C@H](O)CC[C@]4(C)[C@H]3C[C@H](O)[C@]12C

>  <Structure_dimension>  (2552) 
2D

$$$$
MS2639
     RDKit          2D

 35 38  0  0  0  0  0  0  0  0999 V2000
  -10.8538    2.7631    0.0000 C   0  0  0  0  0  0  0  0  0  0  0  0
  -10.0396    1.5033    0.0000 S   0  0  0  0  0  0  0  0  0  0  0  0
   -8.5415    1.5785    0.0000 C   0  0  0  0  0  0  0  0  0  0  0  0
   -7.7274    0.3187    0.0000 C   0  0  0  0  0  0  0  0  0  0  0  0
   -6.2293    0.3939    0.0000 C   0  0  0  0  0  0  0  0  0  0  0  0
   -5.4151   -0.8660    0.0000 N   0  0  0  0  0  0  0  0  0  0  0  0
   -3.9170   -0.7908    0.0000 C   0  0  0  0  0  0  0  0  0  0  0  0
   -3.2330    0.5442    0.0000 O   0  0  0  0  0  0  0  0  0  0  0  0
   -3.1028   -2.0506    0.0000 C   0  0  0  0  0  0  0  0  0  0  0  0
   -1.6047   -1.9754    0.0000 C   0  0  0  0  0  0  0  0  0  0  0  0
   -0.7905   -3.2352    0.0000 C   0  0  0  0  0  0  0  0  0  0  0  0
   -1.4745   -4.5702    0.0000 C   0  0  0  0  0  0  0  0  0  0  0  0
    0.7076   -3.1601    0.0000 C   0  0  0  0  0  0  0  0  0  0  0  0
    1.6490   -4.3279    0.0000 C   0  0  0  0  0  0  0  0  0  0  0  0
    3.0505   -3.7934    0.0000 C   0  0  0  0  0  0  0  0  0  0  0  0
    2.9753   -2.2953    0.0000 C   0  0  0  0  0  0  0  0  0  0  0  0
    4.0384   -1.2370    0.0000 C   0  0  0  0  0  0  0  0  0  0  0  0
    5.4864   -1.6285    0.0000 C   0  0  0  0  0  0  0  0  0  0  0  0
    6.5494   -0.5702    0.0000 C   0  0  0  0  0  0  0  0  0  0  0  0
    6.1644    0.8796    0.0000 C   0  0  0  0  0  0  0  0  0  0  0  0
    7.2274    1.9379    0.0000 C   0  0  0  0  0  0  0  0  0  0  0  0
    6.8424    3.3876    0.0000 C   0  0  0  0  0  0  0  0  0  0  0  0
    7.9054    4.4459    0.0000 O   0  0  0  0  0  0  0  0  0  0  0  0
    5.3944    3.7791    0.0000 C   0  0  0  0  0  0  0  0  0  0  0  0
    4.3314    2.7208    0.0000 C   0  0  0  0  0  0  0  0  0  0  0  0
    4.7164    1.2710    0.0000 C   0  0  0  0  0  0  0  0  0  0  0  0
    3.2683    1.6625    0.0000 C   0  0  0  0  0  0  0  0  0  0  0  0
    3.6534    0.2127    0.0000 C   0  0  0  0  0  0  0  0  0  0  0  0
    2.2053    0.6042    0.0000 C   0  0  0  0  0  0  0  0  0  0  0  0
    1.1423   -0.4541    0.0000 C   0  0  0  0  0  0  0  0  0  0  0  0
    1.5273   -1.9039    0.0000 C   0  0  0  0  0  0  0  0  0  0  0  0
    0.0463   -1.6659    0.0000 C   0  0  0  0  0  0  0  0  0  0  0  0
   -5.5453    1.7289    0.0000 C   0  0  0  0  0  0  0  0  0  0  0  0
   -4.0472    1.8040    0.0000 O   0  0  0  0  0  0  0  0  0  0  0  0
   -6.3595    2.9887    0.0000 O   0  0  0  0  0  0  0  0  0  0  0  0
  1  2  1  0
  2  3  1  0
  3  4  1  0
  5  4  1  6
  5  6  1  0
  6  7  1  0
  7  8  2  0
  7  9  1  0
  9 10  1  0
 10 11  1  0
 11 12  1  6
 11 13  1  0
 13 14  1  6
 14 15  1  0
 16 15  1  6
 16 17  1  0
 17 18  1  1
 18 19  1  0
 20 19  1  1
 20 21  1  0
 21 22  1  0
 22 23  1  1
 22 24  1  0
 24 25  1  0
 25 26  1  0
 26 27  1  6
 26 28  1  0
 28 29  1  6
 29 30  1  0
 30 31  1  0
 31 32  1  6
  5 33  1  0
 33 34  2  0
 33 35  1  0
 31 13  1  0
 31 16  1  0
 28 17  1  0
 26 20  1  0
M  END
>  <MS_ID>  (2553) 
MS2639

>  <SMILES>  (2553) 
CSCC[C@@H](NC(=O)CC[C@@H](C)[C@H]1CC[C@H]2[C@@H]3CC[C@@H]4C[C@H](O)CC[C@]4(C)[C@H]3CC[C@]12C)C(=O)O

>  <Structure_dimension>  (2553) 
2D

$$$$
MS2640
     RDKit          2D

 33 36  0  0  0  0  0  0  0  0999 V2000
   -2.4343   -4.1694    0.0000 C   0  0  0  0  0  0  0  0  0  0  0  0
   -1.6856   -2.8696    0.0000 C   0  0  0  0  0  0  0  0  0  0  0  0
   -2.4369   -1.5713    0.0000 C   0  0  0  0  0  0  0  0  0  0  0  0
   -3.9369   -1.5728    0.0000 C   0  0  0  0  0  0  0  0  0  0  0  0
   -4.6882   -0.2745    0.0000 C   0  0  0  0  0  0  0  0  0  0  0  0
   -3.9395    1.0253    0.0000 O   0  0  0  0  0  0  0  0  0  0  0  0
   -6.1882   -0.2760    0.0000 N   0  0  0  0  0  0  0  0  0  0  0  0
   -6.9395    1.0223    0.0000 C   0  0  0  0  0  0  0  0  0  0  0  0
   -8.4395    1.0208    0.0000 C   0  0  0  0  0  0  0  0  0  0  0  0
   -9.1908    2.3191    0.0000 N   0  0  0  0  0  0  0  0  0  0  0  0
  -10.6908    2.3176    0.0000 C   0  0  0  0  0  0  0  0  0  0  0  0
   -8.4421    3.6189    0.0000 C   0  0  0  0  0  0  0  0  0  0  0  0
   -0.1856   -2.8681    0.0000 C   0  0  0  0  0  0  0  0  0  0  0  0
    0.6973   -4.0807    0.0000 C   0  0  0  0  0  0  0  0  0  0  0  0
    2.1234   -3.6158    0.0000 C   0  0  0  0  0  0  0  0  0  0  0  0
    2.1219   -2.1158    0.0000 C   0  0  0  0  0  0  0  0  0  0  0  0
    3.2356   -1.1109    0.0000 C   0  0  0  0  0  0  0  0  0  0  0  0
    4.6626   -1.5730    0.0000 C   0  0  0  0  0  0  0  0  0  0  0  0
    4.9760   -3.0399    0.0000 O   0  0  0  0  0  0  0  0  0  0  0  0
    5.7764   -0.5682    0.0000 C   0  0  0  0  0  0  0  0  0  0  0  0
    5.4630    0.8987    0.0000 C   0  0  0  0  0  0  0  0  0  0  0  0
    6.5767    1.9035    0.0000 C   0  0  0  0  0  0  0  0  0  0  0  0
    6.2634    3.3704    0.0000 C   0  0  0  0  0  0  0  0  0  0  0  0
    7.3771    4.3752    0.0000 O   0  0  0  0  0  0  0  0  0  0  0  0
    4.8363    3.8325    0.0000 C   0  0  0  0  0  0  0  0  0  0  0  0
    3.7226    2.8277    0.0000 C   0  0  0  0  0  0  0  0  0  0  0  0
    4.0360    1.3608    0.0000 C   0  0  0  0  0  0  0  0  0  0  0  0
    2.6089    1.8229    0.0000 C   0  0  0  0  0  0  0  0  0  0  0  0
    2.9223    0.3560    0.0000 C   0  0  0  0  0  0  0  0  0  0  0  0
    1.4952    0.8181    0.0000 C   0  0  0  0  0  0  0  0  0  0  0  0
    0.3815   -0.1867    0.0000 C   0  0  0  0  0  0  0  0  0  0  0  0
    0.6948   -1.6537    0.0000 C   0  0  0  0  0  0  0  0  0  0  0  0
   -0.7727   -1.3433    0.0000 C   0  0  0  0  0  0  0  0  0  0  0  0
  2  1  1  6
  2  3  1  0
  3  4  1  0
  4  5  1  0
  5  6  2  0
  5  7  1  0
  7  8  1  0
  8  9  1  0
  9 10  1  0
 10 11  1  0
 10 12  1  0
  2 13  1  0
 13 14  1  6
 14 15  1  0
 16 15  1  6
 16 17  1  0
 17 18  1  1
 18 19  1  1
 18 20  1  0
 21 20  1  1
 21 22  1  0
 22 23  1  0
 23 24  1  1
 23 25  1  0
 25 26  1  0
 26 27  1  0
 27 28  1  6
 27 29  1  0
 29 30  1  6
 30 31  1  0
 31 32  1  0
 32 33  1  6
 32 13  1  0
 32 16  1  0
 29 17  1  0
 27 21  1  0
M  END
>  <MS_ID>  (2554) 
MS2640

>  <SMILES>  (2554) 
C[C@H](CCC(=O)NCCN(C)C)[C@H]1CC[C@H]2[C@@H]3[C@H](O)C[C@@H]4C[C@H](O)CC[C@]4(C)[C@H]3CC[C@]12C

>  <Structure_dimension>  (2554) 
2D

$$$$
MS2641
     RDKit          2D

 30 33  0  0  0  0  0  0  0  0999 V2000
   -5.7116   -1.9729    0.0000 C   0  0  0  0  0  0  0  0  0  0  0  0
   -4.4780   -1.1196    0.0000 C   0  0  0  0  0  0  0  0  0  0  0  0
   -4.6002    0.3754    0.0000 C   0  0  0  0  0  0  0  0  0  0  0  0
   -5.9561    1.0171    0.0000 C   0  0  0  0  0  0  0  0  0  0  0  0
   -6.0783    2.5121    0.0000 C   0  0  0  0  0  0  0  0  0  0  0  0
   -4.8447    3.3654    0.0000 O   0  0  0  0  0  0  0  0  0  0  0  0
   -7.4341    3.1538    0.0000 O   0  0  0  0  0  0  0  0  0  0  0  0
   -3.1222   -1.7613    0.0000 C   0  0  0  0  0  0  0  0  0  0  0  0
   -2.8444   -3.2353    0.0000 C   0  0  0  0  0  0  0  0  0  0  0  0
   -1.3566   -3.4266    0.0000 C   0  0  0  0  0  0  0  0  0  0  0  0
   -0.7150   -2.0708    0.0000 C   0  0  0  0  0  0  0  0  0  0  0  0
    0.7220   -1.6404    0.0000 C   0  0  0  0  0  0  0  0  0  0  0  0
    1.8132   -2.6696    0.0000 C   0  0  0  0  0  0  0  0  0  0  0  0
    3.2501   -2.2393    0.0000 C   0  0  0  0  0  0  0  0  0  0  0  0
    3.5958   -0.7797    0.0000 C   0  0  0  0  0  0  0  0  0  0  0  0
    5.0328   -0.3493    0.0000 C   0  0  0  0  0  0  0  0  0  0  0  0
    5.3785    1.1103    0.0000 C   0  0  0  0  0  0  0  0  0  0  0  0
    6.8155    1.5407    0.0000 C   0  0  0  0  0  0  0  0  0  0  0  0
    7.9066    0.5115    0.0000 C   0  0  0  0  0  0  0  0  0  0  0  0
    9.3436    0.9418    0.0000 O   0  0  0  0  0  0  0  0  0  0  0  0
    4.2873    2.1396    0.0000 C   0  0  0  0  0  0  0  0  0  0  0  0
    2.8504    1.7092    0.0000 C   0  0  0  0  0  0  0  0  0  0  0  0
    2.5047    0.2496    0.0000 C   0  0  0  0  0  0  0  0  0  0  0  0
    1.4135    1.2788    0.0000 C   0  0  0  0  0  0  0  0  0  0  0  0
    1.0677   -0.1808    0.0000 C   0  0  0  0  0  0  0  0  0  0  0  0
   -0.0235    0.8484    0.0000 C   0  0  0  0  0  0  0  0  0  0  0  0
   -1.4604    0.4181    0.0000 C   0  0  0  0  0  0  0  0  0  0  0  0
   -2.5516    1.4473    0.0000 O   0  0  0  0  0  0  0  0  0  0  0  0
   -1.8061   -1.0415    0.0000 C   0  0  0  0  0  0  0  0  0  0  0  0
   -2.9989   -0.1320    0.0000 C   0  0  0  0  0  0  0  0  0  0  0  0
  2  1  1  6
  2  3  1  0
  3  4  1  0
  4  5  1  0
  5  6  2  0
  5  7  1  0
  2  8  1  0
  8  9  1  6
  9 10  1  0
 11 10  1  6
 11 12  1  0
 12 13  1  1
 13 14  1  0
 15 14  1  1
 15 16  1  0
 16 17  1  0
 17 18  1  6
 18 19  1  0
 19 20  1  0
 17 21  1  0
 21 22  1  0
 22 23  1  0
 23 24  1  6
 23 25  1  0
 25 26  1  6
 26 27  1  0
 27 28  1  1
 27 29  1  0
 29 30  1  6
 29  8  1  0
 29 11  1  0
 25 12  1  0
 23 15  1  0
M  END
>  <MS_ID>  (2555) 
MS2641

>  <SMILES>  (2555) 
C[C@H](CCC(=O)O)[C@H]1CC[C@H]2[C@@H]3CC[C@@H]4C[C@@H](CCO)CC[C@]4(C)[C@H]3C[C@H](O)[C@]12C

>  <Structure_dimension>  (2555) 
2D

$$$$
MS2642
     RDKit          2D

 33 36  0  0  0  0  0  0  0  0999 V2000
   -2.8344   -3.8565    0.0000 C   0  0  0  0  0  0  0  0  0  0  0  0
   -1.9937   -2.6142    0.0000 C   0  0  0  0  0  0  0  0  0  0  0  0
   -2.6491   -1.2650    0.0000 C   0  0  0  0  0  0  0  0  0  0  0  0
   -4.1453   -1.1580    0.0000 C   0  0  0  0  0  0  0  0  0  0  0  0
   -4.8007    0.1912    0.0000 C   0  0  0  0  0  0  0  0  0  0  0  0
   -3.9600    1.4334    0.0000 O   0  0  0  0  0  0  0  0  0  0  0  0
   -6.2969    0.2982    0.0000 N   0  0  0  0  0  0  0  0  0  0  0  0
   -6.9523    1.6474    0.0000 C   0  0  0  0  0  0  0  0  0  0  0  0
   -6.1116    2.8896    0.0000 F   0  0  0  0  0  0  0  0  0  0  0  0
   -8.4485    1.7544    0.0000 C   0  0  0  0  0  0  0  0  0  0  0  0
   -9.2893    0.5121    0.0000 O   0  0  0  0  0  0  0  0  0  0  0  0
   -9.1040    3.1036    0.0000 O   0  0  0  0  0  0  0  0  0  0  0  0
   -0.4975   -2.7212    0.0000 C   0  0  0  0  0  0  0  0  0  0  0  0
    0.2954   -3.9945    0.0000 C   0  0  0  0  0  0  0  0  0  0  0  0
    1.7514   -3.6340    0.0000 C   0  0  0  0  0  0  0  0  0  0  0  0
    1.8584   -2.1378    0.0000 C   0  0  0  0  0  0  0  0  0  0  0  0
    3.0419   -1.2161    0.0000 C   0  0  0  0  0  0  0  0  0  0  0  0
    4.4317   -1.7802    0.0000 C   0  0  0  0  0  0  0  0  0  0  0  0
    4.6382   -3.2660    0.0000 O   0  0  0  0  0  0  0  0  0  0  0  0
    5.6152   -0.8586    0.0000 C   0  0  0  0  0  0  0  0  0  0  0  0
    5.4088    0.6271    0.0000 C   0  0  0  0  0  0  0  0  0  0  0  0
    6.5922    1.5488    0.0000 C   0  0  0  0  0  0  0  0  0  0  0  0
    6.3858    3.0345    0.0000 C   0  0  0  0  0  0  0  0  0  0  0  0
    7.5693    3.9561    0.0000 O   0  0  0  0  0  0  0  0  0  0  0  0
    4.9959    3.5986    0.0000 C   0  0  0  0  0  0  0  0  0  0  0  0
    3.8125    2.6770    0.0000 C   0  0  0  0  0  0  0  0  0  0  0  0
    4.0189    1.1912    0.0000 C   0  0  0  0  0  0  0  0  0  0  0  0
    2.6290    1.7553    0.0000 C   0  0  0  0  0  0  0  0  0  0  0  0
    2.8354    0.2696    0.0000 C   0  0  0  0  0  0  0  0  0  0  0  0
    1.4455    0.8337    0.0000 C   0  0  0  0  0  0  0  0  0  0  0  0
    0.2621   -0.0879    0.0000 C   0  0  0  0  0  0  0  0  0  0  0  0
    0.4685   -1.5737    0.0000 C   0  0  0  0  0  0  0  0  0  0  0  0
   -0.9727   -1.1580    0.0000 C   0  0  0  0  0  0  0  0  0  0  0  0
  2  1  1  6
  2  3  1  0
  3  4  1  0
  4  5  1  0
  5  6  2  0
  5  7  1  0
  7  8  1  0
  8  9  1  6
  8 10  1  0
 10 11  2  0
 10 12  1  0
  2 13  1  0
 13 14  1  6
 14 15  1  0
 16 15  1  6
 16 17  1  0
 17 18  1  1
 18 19  1  6
 18 20  1  0
 21 20  1  1
 21 22  1  0
 22 23  1  0
 23 24  1  1
 23 25  1  0
 25 26  1  0
 26 27  1  0
 27 28  1  6
 27 29  1  0
 29 30  1  6
 30 31  1  0
 31 32  1  0
 32 33  1  6
 32 13  1  0
 32 16  1  0
 29 17  1  0
 27 21  1  0
M  END
>  <MS_ID>  (2556) 
MS2642

>  <SMILES>  (2556) 
C[C@H](CCC(=O)N[C@@H](F)C(=O)O)[C@H]1CC[C@H]2[C@@H]3[C@@H](O)C[C@@H]4C[C@H](O)CC[C@]4(C)[C@H]3CC[C@]12C

>  <Structure_dimension>  (2556) 
2D

$$$$
MS2643
     RDKit          2D

 33 36  0  0  0  0  0  0  0  0999 V2000
   -4.6075   -2.8945    0.0000 C   0  0  0  0  0  0  0  0  0  0  0  0
   -3.5097   -1.8723    0.0000 C   0  0  0  0  0  0  0  0  0  0  0  0
   -3.8461   -0.4105    0.0000 C   0  0  0  0  0  0  0  0  0  0  0  0
   -5.2802    0.0291    0.0000 C   0  0  0  0  0  0  0  0  0  0  0  0
   -5.6166    1.4909    0.0000 C   0  0  0  0  0  0  0  0  0  0  0  0
   -4.5188    2.5131    0.0000 O   0  0  0  0  0  0  0  0  0  0  0  0
   -7.0507    1.9305    0.0000 O   0  0  0  0  0  0  0  0  0  0  0  0
   -2.0756   -2.3119    0.0000 C   0  0  0  0  0  0  0  0  0  0  0  0
   -1.5882   -3.7305    0.0000 C   0  0  0  0  0  0  0  0  0  0  0  0
   -0.0884   -3.7054    0.0000 C   0  0  0  0  0  0  0  0  0  0  0  0
    0.3512   -2.2713    0.0000 C   0  0  0  0  0  0  0  0  0  0  0  0
    1.7111   -1.6384    0.0000 C   0  0  0  0  0  0  0  0  0  0  0  0
    2.9392   -2.4996    0.0000 C   0  0  0  0  0  0  0  0  0  0  0  0
    2.8074   -3.9938    0.0000 O   0  0  0  0  0  0  0  0  0  0  0  0
    4.2991   -1.8667    0.0000 C   0  0  0  0  0  0  0  0  0  0  0  0
    4.4309   -0.3725    0.0000 C   0  0  0  0  0  0  0  0  0  0  0  0
    5.7908    0.2605    0.0000 C   0  0  0  0  0  0  0  0  0  0  0  0
    5.9227    1.7547    0.0000 C   0  0  0  0  0  0  0  0  0  0  0  0
    7.2826    2.3876    0.0000 O   0  0  0  0  0  0  0  0  0  0  0  0
    4.6946    2.6159    0.0000 C   0  0  0  0  0  0  0  0  0  0  0  0
    3.3346    1.9830    0.0000 C   0  0  0  0  0  0  0  0  0  0  0  0
    3.2028    0.4888    0.0000 C   0  0  0  0  0  0  0  0  0  0  0  0
    1.9747    1.3500    0.0000 C   0  0  0  0  0  0  0  0  0  0  0  0
    1.8429   -0.1442    0.0000 C   0  0  0  0  0  0  0  0  0  0  0  0
    0.6148    0.7171    0.0000 C   0  0  0  0  0  0  0  0  0  0  0  0
   -0.7451    0.0842    0.0000 C   0  0  0  0  0  0  0  0  0  0  0  0
   -1.9732    0.9454    0.0000 O   0  0  0  0  0  0  0  0  0  0  0  0
   -1.8414    2.4396    0.0000 S   0  0  0  0  0  0  0  0  0  0  0  0
   -0.3472    2.3078    0.0000 O   0  0  0  0  0  0  0  0  0  0  0  0
   -3.3356    2.5714    0.0000 O   0  0  0  0  0  0  0  0  0  0  0  0
   -1.7096    3.9338    0.0000 O   0  0  0  0  0  0  0  0  0  0  0  0
   -0.8769   -1.4100    0.0000 C   0  0  0  0  0  0  0  0  0  0  0  0
   -2.1884   -0.6819    0.0000 C   0  0  0  0  0  0  0  0  0  0  0  0
  2  1  1  6
  2  3  1  0
  3  4  1  0
  4  5  1  0
  5  6  2  0
  5  7  1  0
  2  8  1  0
  8  9  1  6
  9 10  1  0
 11 10  1  6
 11 12  1  0
 12 13  1  1
 13 14  1  1
 13 15  1  0
 16 15  1  1
 16 17  1  0
 17 18  1  0
 18 19  2  0
 18 20  1  0
 20 21  1  0
 21 22  1  0
 22 23  1  6
 22 24  1  0
 24 25  1  6
 25 26  1  0
 26 27  1  6
 27 28  1  0
 28 29  2  0
 28 30  2  0
 28 31  1  0
 26 32  1  0
 32 33  1  6
 32  8  1  0
 32 11  1  0
 24 12  1  0
 22 16  1  0
M  END
>  <MS_ID>  (2557) 
MS2643

>  <SMILES>  (2557) 
C[C@H](CCC(=O)O)[C@H]1CC[C@H]2[C@@H]3[C@H](O)C[C@@H]4CC(=O)CC[C@]4(C)[C@H]3C[C@@H](OS(=O)(=O)O)[C@]12C

>  <Structure_dimension>  (2557) 
2D

$$$$
MS2644
     RDKit          2D

 41 45  0  0  0  0  0  0  0  0999 V2000
   -7.8970   -1.7574    0.0000 C   0  0  0  0  0  0  0  0  0  0  0  0
   -6.7187   -0.8292    0.0000 C   0  0  0  0  0  0  0  0  0  0  0  0
   -6.9333    0.6553    0.0000 C   0  0  0  0  0  0  0  0  0  0  0  0
   -8.3263    1.2117    0.0000 C   0  0  0  0  0  0  0  0  0  0  0  0
   -8.5410    2.6962    0.0000 C   0  0  0  0  0  0  0  0  0  0  0  0
   -7.3627    3.6244    0.0000 O   0  0  0  0  0  0  0  0  0  0  0  0
   -9.9340    3.2526    0.0000 O   0  0  0  0  0  0  0  0  0  0  0  0
   -5.3257   -1.3856    0.0000 C   0  0  0  0  0  0  0  0  0  0  0  0
   -4.9570   -2.8396    0.0000 C   0  0  0  0  0  0  0  0  0  0  0  0
   -3.4602   -2.9383    0.0000 C   0  0  0  0  0  0  0  0  0  0  0  0
   -2.9039   -1.5453    0.0000 C   0  0  0  0  0  0  0  0  0  0  0  0
   -1.4964   -1.0266    0.0000 C   0  0  0  0  0  0  0  0  0  0  0  0
   -0.3435   -1.9862    0.0000 C   0  0  0  0  0  0  0  0  0  0  0  0
   -0.5981   -3.4645    0.0000 C   0  0  0  0  0  0  0  0  0  0  0  0
    0.5548   -4.4241    0.0000 C   0  0  0  0  0  0  0  0  0  0  0  0
    0.3002   -5.9023    0.0000 O   0  0  0  0  0  0  0  0  0  0  0  0
    1.0640   -1.4676    0.0000 C   0  0  0  0  0  0  0  0  0  0  0  0
    1.3186    0.0106    0.0000 C   0  0  0  0  0  0  0  0  0  0  0  0
    2.7261    0.5293    0.0000 C   0  0  0  0  0  0  0  0  0  0  0  0
    2.9807    2.0075    0.0000 C   0  0  0  0  0  0  0  0  0  0  0  0
    4.3882    2.5261    0.0000 O   0  0  0  0  0  0  0  0  0  0  0  0
    5.5411    1.5665    0.0000 C   0  0  0  0  0  0  0  0  0  0  0  0
    5.2865    0.0883    0.0000 O   0  0  0  0  0  0  0  0  0  0  0  0
    6.4394   -0.8713    0.0000 C   0  0  0  0  0  0  0  0  0  0  0  0
    6.1848   -2.3495    0.0000 C   0  0  0  0  0  0  0  0  0  0  0  0
    4.7773   -2.8682    0.0000 O   0  0  0  0  0  0  0  0  0  0  0  0
    7.8468   -0.3526    0.0000 C   0  0  0  0  0  0  0  0  0  0  0  0
    8.9997   -1.3122    0.0000 O   0  0  0  0  0  0  0  0  0  0  0  0
    8.1014    1.1256    0.0000 C   0  0  0  0  0  0  0  0  0  0  0  0
    9.5089    1.6442    0.0000 O   0  0  0  0  0  0  0  0  0  0  0  0
    6.9485    2.0852    0.0000 C   0  0  0  0  0  0  0  0  0  0  0  0
    7.2031    3.5634    0.0000 O   0  0  0  0  0  0  0  0  0  0  0  0
    1.8278    2.9671    0.0000 C   0  0  0  0  0  0  0  0  0  0  0  0
    0.4203    2.4485    0.0000 C   0  0  0  0  0  0  0  0  0  0  0  0
    0.1657    0.9702    0.0000 C   0  0  0  0  0  0  0  0  0  0  0  0
   -0.9872    1.9298    0.0000 C   0  0  0  0  0  0  0  0  0  0  0  0
   -1.2418    0.4516    0.0000 C   0  0  0  0  0  0  0  0  0  0  0  0
   -2.3947    1.4112    0.0000 C   0  0  0  0  0  0  0  0  0  0  0  0
   -3.8022    0.8926    0.0000 C   0  0  0  0  0  0  0  0  0  0  0  0
   -4.0568   -0.5857    0.0000 C   0  0  0  0  0  0  0  0  0  0  0  0
   -5.3036    0.2482    0.0000 C   0  0  0  0  0  0  0  0  0  0  0  0
  2  1  1  6
  2  3  1  0
  3  4  1  0
  4  5  1  0
  5  6  2  0
  5  7  1  0
  2  8  1  0
  8  9  1  6
  9 10  1  0
 11 10  1  6
 11 12  1  0
 12 13  1  1
 13 14  1  6
 14 15  1  0
 15 16  1  0
 13 17  1  0
 18 17  1  1
 18 19  1  0
 19 20  1  0
 20 21  1  1
 22 21  1  1
 22 23  1  0
 23 24  1  0
 24 25  1  1
 25 26  1  0
 24 27  1  0
 27 28  1  6
 27 29  1  0
 29 30  1  1
 29 31  1  0
 31 32  1  6
 20 33  1  0
 33 34  1  0
 34 35  1  0
 35 36  1  6
 35 37  1  0
 37 38  1  6
 38 39  1  0
 39 40  1  0
 40 41  1  6
 40  8  1  0
 40 11  1  0
 37 12  1  0
 35 18  1  0
 31 22  1  0
M  END
>  <MS_ID>  (2558) 
MS2644

>  <SMILES>  (2558) 
C[C@H](CCC(=O)O)[C@H]1CC[C@H]2[C@@H]3[C@@H](CCO)C[C@@H]4C[C@H](O[C@@H]5O[C@H](CO)[C@@H](O)[C@H](O)[C@H]5O)CC[C@]4(C)[C@H]3CC[C@]12C

>  <Structure_dimension>  (2558) 
2D

$$$$
MS2645
     RDKit          2D

 31 34  0  0  0  0  0  0  0  0999 V2000
   -4.2495   -2.8115    0.0000 C   0  0  0  0  0  0  0  0  0  0  0  0
   -3.1859   -1.7538    0.0000 C   0  0  0  0  0  0  0  0  0  0  0  0
   -3.5702   -0.3038    0.0000 C   0  0  0  0  0  0  0  0  0  0  0  0
   -5.0180    0.0883    0.0000 C   0  0  0  0  0  0  0  0  0  0  0  0
   -5.4023    1.5383    0.0000 C   0  0  0  0  0  0  0  0  0  0  0  0
   -4.3387    2.5960    0.0000 O   0  0  0  0  0  0  0  0  0  0  0  0
   -6.8501    1.9305    0.0000 N   0  0  0  0  0  0  0  0  0  0  0  0
   -7.2344    3.3804    0.0000 C   0  0  0  0  0  0  0  0  0  0  0  0
   -7.9137    0.8727    0.0000 C   0  0  0  0  0  0  0  0  0  0  0  0
   -1.7381   -2.1460    0.0000 C   0  0  0  0  0  0  0  0  0  0  0  0
   -1.2044   -3.5478    0.0000 C   0  0  0  0  0  0  0  0  0  0  0  0
    0.2938   -3.4734    0.0000 C   0  0  0  0  0  0  0  0  0  0  0  0
    0.6860   -2.0256    0.0000 C   0  0  0  0  0  0  0  0  0  0  0  0
    2.0243   -1.3482    0.0000 C   0  0  0  0  0  0  0  0  0  0  0  0
    3.2801   -2.1686    0.0000 C   0  0  0  0  0  0  0  0  0  0  0  0
    3.1975   -3.6663    0.0000 O   0  0  0  0  0  0  0  0  0  0  0  0
    4.6185   -1.4913    0.0000 C   0  0  0  0  0  0  0  0  0  0  0  0
    4.7010    0.0064    0.0000 C   0  0  0  0  0  0  0  0  0  0  0  0
    6.0394    0.6838    0.0000 C   0  0  0  0  0  0  0  0  0  0  0  0
    6.1220    2.1815    0.0000 C   0  0  0  0  0  0  0  0  0  0  0  0
    7.4604    2.8588    0.0000 O   0  0  0  0  0  0  0  0  0  0  0  0
    4.8662    3.0019    0.0000 C   0  0  0  0  0  0  0  0  0  0  0  0
    3.5279    2.3246    0.0000 C   0  0  0  0  0  0  0  0  0  0  0  0
    3.4453    0.8268    0.0000 C   0  0  0  0  0  0  0  0  0  0  0  0
    2.1895    1.6472    0.0000 C   0  0  0  0  0  0  0  0  0  0  0  0
    2.1069    0.1495    0.0000 C   0  0  0  0  0  0  0  0  0  0  0  0
    0.8511    0.9699    0.0000 C   0  0  0  0  0  0  0  0  0  0  0  0
   -0.4872    0.2925    0.0000 C   0  0  0  0  0  0  0  0  0  0  0  0
   -1.7430    1.1129    0.0000 O   0  0  0  0  0  0  0  0  0  0  0  0
   -0.5698   -1.2052    0.0000 C   0  0  0  0  0  0  0  0  0  0  0  0
   -1.9045   -0.5205    0.0000 C   0  0  0  0  0  0  0  0  0  0  0  0
  2  1  1  6
  2  3  1  0
  3  4  1  0
  4  5  1  0
  5  6  2  0
  5  7  1  0
  7  8  1  0
  7  9  1  0
  2 10  1  0
 10 11  1  6
 11 12  1  0
 13 12  1  6
 13 14  1  0
 14 15  1  1
 15 16  1  6
 15 17  1  0
 18 17  1  1
 18 19  1  0
 19 20  1  0
 20 21  2  0
 20 22  1  0
 22 23  1  0
 23 24  1  0
 24 25  1  6
 24 26  1  0
 26 27  1  6
 27 28  1  0
 28 29  1  1
 28 30  1  0
 30 31  1  6
 30 10  1  0
 30 13  1  0
 26 14  1  0
 24 18  1  0
M  END
>  <MS_ID>  (2559) 
MS2645

>  <SMILES>  (2559) 
C[C@H](CCC(=O)N(C)C)[C@H]1CC[C@H]2[C@@H]3[C@@H](O)C[C@@H]4CC(=O)CC[C@]4(C)[C@H]3C[C@H](O)[C@]12C

>  <Structure_dimension>  (2559) 
2D

$$$$
MS2646
     RDKit          2D

 33 36  0  0  0  0  0  0  0  0999 V2000
   -2.6994   -3.8605    0.0000 C   0  0  0  0  0  0  0  0  0  0  0  0
   -1.8238   -2.6426    0.0000 C   0  0  0  0  0  0  0  0  0  0  0  0
   -2.4407   -1.2753    0.0000 C   0  0  0  0  0  0  0  0  0  0  0  0
   -3.9333   -1.1259    0.0000 C   0  0  0  0  0  0  0  0  0  0  0  0
   -4.5502    0.2413    0.0000 C   0  0  0  0  0  0  0  0  0  0  0  0
   -3.6745    1.4592    0.0000 O   0  0  0  0  0  0  0  0  0  0  0  0
   -6.0427    0.3907    0.0000 N   0  0  0  0  0  0  0  0  0  0  0  0
   -6.6596    1.7580    0.0000 C   0  0  0  0  0  0  0  0  0  0  0  0
   -8.1522    1.9073    0.0000 S   0  0  0  0  0  0  0  0  0  0  0  0
   -8.0028    3.3999    0.0000 O   0  0  0  0  0  0  0  0  0  0  0  0
   -8.3015    0.4148    0.0000 O   0  0  0  0  0  0  0  0  0  0  0  0
   -9.6447    2.0567    0.0000 O   0  0  0  0  0  0  0  0  0  0  0  0
   -0.3313   -2.7920    0.0000 C   0  0  0  0  0  0  0  0  0  0  0  0
    0.4252   -4.0872    0.0000 C   0  0  0  0  0  0  0  0  0  0  0  0
    1.8908   -3.7681    0.0000 C   0  0  0  0  0  0  0  0  0  0  0  0
    2.0402   -2.2755    0.0000 C   0  0  0  0  0  0  0  0  0  0  0  0
    3.2493   -1.3878    0.0000 C   0  0  0  0  0  0  0  0  0  0  0  0
    4.6227   -1.9911    0.0000 C   0  0  0  0  0  0  0  0  0  0  0  0
    5.8318   -1.1034    0.0000 C   0  0  0  0  0  0  0  0  0  0  0  0
    5.6676    0.3876    0.0000 C   0  0  0  0  0  0  0  0  0  0  0  0
    6.8767    1.2753    0.0000 C   0  0  0  0  0  0  0  0  0  0  0  0
    6.7125    2.7663    0.0000 C   0  0  0  0  0  0  0  0  0  0  0  0
    7.9216    3.6540    0.0000 O   0  0  0  0  0  0  0  0  0  0  0  0
    5.3392    3.3695    0.0000 C   0  0  0  0  0  0  0  0  0  0  0  0
    4.1300    2.4818    0.0000 C   0  0  0  0  0  0  0  0  0  0  0  0
    4.2943    0.9909    0.0000 C   0  0  0  0  0  0  0  0  0  0  0  0
    2.9209    1.5941    0.0000 C   0  0  0  0  0  0  0  0  0  0  0  0
    3.0851    0.1031    0.0000 C   0  0  0  0  0  0  0  0  0  0  0  0
    1.7118    0.7064    0.0000 C   0  0  0  0  0  0  0  0  0  0  0  0
    0.5027   -0.1813    0.0000 C   0  0  0  0  0  0  0  0  0  0  0  0
   -0.8707    0.4220    0.0000 O   0  0  0  0  0  0  0  0  0  0  0  0
    0.6669   -1.6723    0.0000 C   0  0  0  0  0  0  0  0  0  0  0  0
   -0.7620   -1.2158    0.0000 C   0  0  0  0  0  0  0  0  0  0  0  0
  2  1  1  6
  2  3  1  0
  3  4  1  0
  4  5  1  0
  5  6  2  0
  5  7  1  0
  7  8  1  0
  8  9  1  0
  9 10  2  0
  9 11  2  0
  9 12  1  0
  2 13  1  0
 13 14  1  6
 14 15  1  0
 16 15  1  6
 16 17  1  0
 17 18  1  1
 18 19  1  0
 20 19  1  1
 20 21  1  0
 21 22  1  0
 22 23  1  1
 22 24  1  0
 24 25  1  0
 25 26  1  0
 26 27  1  6
 26 28  1  0
 28 29  1  6
 29 30  1  0
 30 31  1  1
 30 32  1  0
 32 33  1  6
 32 13  1  0
 32 16  1  0
 28 17  1  0
 26 20  1  0
M  END
>  <MS_ID>  (2560) 
MS2646

>  <SMILES>  (2560) 
C[C@H](CCC(=O)NCS(=O)(=O)O)[C@H]1CC[C@H]2[C@@H]3CC[C@@H]4C[C@H](O)CC[C@]4(C)[C@H]3C[C@H](O)[C@]12C

>  <Structure_dimension>  (2560) 
2D

$$$$
MS2647
     RDKit          2D

 28 31  0  0  0  0  0  0  0  0999 V2000
   -5.1275   -2.0302    0.0000 C   0  0  0  0  0  0  0  0  0  0  0  0
   -3.9468   -1.1050    0.0000 C   0  0  0  0  0  0  0  0  0  0  0  0
   -4.1576    0.3801    0.0000 C   0  0  0  0  0  0  0  0  0  0  0  0
   -5.5492    0.9401    0.0000 C   0  0  0  0  0  0  0  0  0  0  0  0
   -5.7600    2.4252    0.0000 C   0  0  0  0  0  0  0  0  0  0  0  0
   -4.5793    3.3503    0.0000 O   0  0  0  0  0  0  0  0  0  0  0  0
   -7.1516    2.9851    0.0000 O   0  0  0  0  0  0  0  0  0  0  0  0
   -2.5552   -1.6650    0.0000 C   0  0  0  0  0  0  0  0  0  0  0  0
   -2.1903   -3.1199    0.0000 C   0  0  0  0  0  0  0  0  0  0  0  0
   -0.6938   -3.2225    0.0000 C   0  0  0  0  0  0  0  0  0  0  0  0
   -0.1339   -1.8309    0.0000 C   0  0  0  0  0  0  0  0  0  0  0  0
    1.2750   -1.3159    0.0000 C   0  0  0  0  0  0  0  0  0  0  0  0
    2.4254   -2.2785    0.0000 C   0  0  0  0  0  0  0  0  0  0  0  0
    2.1670   -3.7560    0.0000 O   0  0  0  0  0  0  0  0  0  0  0  0
    3.8342   -1.7635    0.0000 C   0  0  0  0  0  0  0  0  0  0  0  0
    4.0926   -0.2859    0.0000 C   0  0  0  0  0  0  0  0  0  0  0  0
    5.5014    0.2291    0.0000 C   0  0  0  0  0  0  0  0  0  0  0  0
    5.7598    1.7067    0.0000 C   0  0  0  0  0  0  0  0  0  0  0  0
    7.1687    2.2217    0.0000 Cl  0  0  0  0  0  0  0  0  0  0  0  0
    4.6094    2.6692    0.0000 C   0  0  0  0  0  0  0  0  0  0  0  0
    3.2006    2.1542    0.0000 C   0  0  0  0  0  0  0  0  0  0  0  0
    2.9422    0.6767    0.0000 C   0  0  0  0  0  0  0  0  0  0  0  0
    1.7918    1.6392    0.0000 C   0  0  0  0  0  0  0  0  0  0  0  0
    1.5334    0.1617    0.0000 C   0  0  0  0  0  0  0  0  0  0  0  0
    0.3830    1.1242    0.0000 C   0  0  0  0  0  0  0  0  0  0  0  0
   -1.0259    0.6093    0.0000 C   0  0  0  0  0  0  0  0  0  0  0  0
   -1.2843   -0.8683    0.0000 C   0  0  0  0  0  0  0  0  0  0  0  0
   -2.5290   -0.0313    0.0000 C   0  0  0  0  0  0  0  0  0  0  0  0
  2  1  1  6
  2  3  1  0
  3  4  1  0
  4  5  1  0
  5  6  2  0
  5  7  1  0
  2  8  1  0
  8  9  1  6
  9 10  1  0
 11 10  1  6
 11 12  1  0
 12 13  1  1
 13 14  1  1
 13 15  1  0
 16 15  1  1
 16 17  1  0
 17 18  1  0
 18 19  1  6
 18 20  1  0
 20 21  1  0
 21 22  1  0
 22 23  1  6
 22 24  1  0
 24 25  1  6
 25 26  1  0
 26 27  1  0
 27 28  1  6
 27  8  1  0
 27 11  1  0
 24 12  1  0
 22 16  1  0
M  END
>  <MS_ID>  (2561) 
MS2647

>  <SMILES>  (2561) 
C[C@H](CCC(=O)O)[C@H]1CC[C@H]2[C@@H]3[C@H](O)C[C@@H]4C[C@@H](Cl)CC[C@]4(C)[C@H]3CC[C@]12C

>  <Structure_dimension>  (2561) 
2D

$$$$
MS2648
     RDKit          2D

 30 33  0  0  0  0  0  0  0  0999 V2000
   -4.2255   -2.8134    0.0000 C   0  0  0  0  0  0  0  0  0  0  0  0
   -3.1320   -1.7867    0.0000 C   0  0  0  0  0  0  0  0  0  0  0  0
   -3.4744   -0.3263    0.0000 C   0  0  0  0  0  0  0  0  0  0  0  0
   -4.9104    0.1074    0.0000 C   0  0  0  0  0  0  0  0  0  0  0  0
   -5.2528    1.5677    0.0000 C   0  0  0  0  0  0  0  0  0  0  0  0
   -4.1593    2.5945    0.0000 O   0  0  0  0  0  0  0  0  0  0  0  0
   -6.6888    2.0014    0.0000 N   0  0  0  0  0  0  0  0  0  0  0  0
   -7.0312    3.4618    0.0000 C   0  0  0  0  0  0  0  0  0  0  0  0
   -7.7823    0.9746    0.0000 C   0  0  0  0  0  0  0  0  0  0  0  0
   -1.6961   -2.2203    0.0000 C   0  0  0  0  0  0  0  0  0  0  0  0
   -1.2029   -3.6369    0.0000 C   0  0  0  0  0  0  0  0  0  0  0  0
    0.2968   -3.6056    0.0000 C   0  0  0  0  0  0  0  0  0  0  0  0
    0.7305   -2.1697    0.0000 C   0  0  0  0  0  0  0  0  0  0  0  0
    2.0877   -1.5311    0.0000 C   0  0  0  0  0  0  0  0  0  0  0  0
    3.3194   -2.3873    0.0000 C   0  0  0  0  0  0  0  0  0  0  0  0
    4.6767   -1.7487    0.0000 C   0  0  0  0  0  0  0  0  0  0  0  0
    4.8023   -0.2540    0.0000 C   0  0  0  0  0  0  0  0  0  0  0  0
    6.1596    0.3846    0.0000 C   0  0  0  0  0  0  0  0  0  0  0  0
    6.2852    1.8794    0.0000 C   0  0  0  0  0  0  0  0  0  0  0  0
    7.6425    2.5179    0.0000 O   0  0  0  0  0  0  0  0  0  0  0  0
    5.0536    2.7355    0.0000 C   0  0  0  0  0  0  0  0  0  0  0  0
    3.6963    2.0969    0.0000 C   0  0  0  0  0  0  0  0  0  0  0  0
    3.5706    0.6022    0.0000 C   0  0  0  0  0  0  0  0  0  0  0  0
    2.3390    1.4584    0.0000 C   0  0  0  0  0  0  0  0  0  0  0  0
    2.2134   -0.0364    0.0000 C   0  0  0  0  0  0  0  0  0  0  0  0
    0.9817    0.8198    0.0000 C   0  0  0  0  0  0  0  0  0  0  0  0
   -0.3756    0.1812    0.0000 C   0  0  0  0  0  0  0  0  0  0  0  0
   -1.6072    1.0374    0.0000 O   0  0  0  0  0  0  0  0  0  0  0  0
   -0.5012   -1.3135    0.0000 C   0  0  0  0  0  0  0  0  0  0  0  0
   -1.8156   -0.5908    0.0000 C   0  0  0  0  0  0  0  0  0  0  0  0
  2  1  1  6
  2  3  1  0
  3  4  1  0
  4  5  1  0
  5  6  2  0
  5  7  1  0
  7  8  1  0
  7  9  1  0
  2 10  1  0
 10 11  1  6
 11 12  1  0
 13 12  1  6
 13 14  1  0
 14 15  1  1
 15 16  1  0
 17 16  1  1
 17 18  1  0
 18 19  1  0
 19 20  2  0
 19 21  1  0
 21 22  1  0
 22 23  1  0
 23 24  1  6
 23 25  1  0
 25 26  1  6
 26 27  1  0
 27 28  1  1
 27 29  1  0
 29 30  1  6
 29 10  1  0
 29 13  1  0
 25 14  1  0
 23 17  1  0
M  END
>  <MS_ID>  (2562) 
MS2648

>  <SMILES>  (2562) 
C[C@H](CCC(=O)N(C)C)[C@H]1CC[C@H]2[C@@H]3CC[C@@H]4CC(=O)CC[C@]4(C)[C@H]3C[C@H](O)[C@]12C

>  <Structure_dimension>  (2562) 
2D

$$$$
MS2649
     RDKit          2D

 30 33  0  0  0  0  0  0  0  0999 V2000
   -7.4279    3.5601    0.0000 C   0  0  0  0  0  0  0  0  0  0  0  0
   -7.0729    2.1027    0.0000 C   0  0  0  0  0  0  0  0  0  0  0  0
   -5.6333    1.6814    0.0000 C   0  0  0  0  0  0  0  0  0  0  0  0
   -4.5486    2.7174    0.0000 O   0  0  0  0  0  0  0  0  0  0  0  0
   -5.2784    0.2240    0.0000 C   0  0  0  0  0  0  0  0  0  0  0  0
   -3.8388   -0.1974    0.0000 C   0  0  0  0  0  0  0  0  0  0  0  0
   -3.4838   -1.6548    0.0000 C   0  0  0  0  0  0  0  0  0  0  0  0
   -4.5685   -2.6908    0.0000 C   0  0  0  0  0  0  0  0  0  0  0  0
   -2.0442   -2.0761    0.0000 C   0  0  0  0  0  0  0  0  0  0  0  0
   -1.5389   -3.4884    0.0000 C   0  0  0  0  0  0  0  0  0  0  0  0
   -0.0395   -3.4442    0.0000 C   0  0  0  0  0  0  0  0  0  0  0  0
    0.3818   -2.0046    0.0000 C   0  0  0  0  0  0  0  0  0  0  0  0
    1.7336   -1.3544    0.0000 C   0  0  0  0  0  0  0  0  0  0  0  0
    2.9725   -2.1999    0.0000 C   0  0  0  0  0  0  0  0  0  0  0  0
    2.8597   -3.6957    0.0000 O   0  0  0  0  0  0  0  0  0  0  0  0
    4.3243   -1.5497    0.0000 C   0  0  0  0  0  0  0  0  0  0  0  0
    4.4371   -0.0540    0.0000 C   0  0  0  0  0  0  0  0  0  0  0  0
    5.7888    0.5962    0.0000 C   0  0  0  0  0  0  0  0  0  0  0  0
    5.9016    2.0920    0.0000 C   0  0  0  0  0  0  0  0  0  0  0  0
    7.2534    2.7422    0.0000 O   0  0  0  0  0  0  0  0  0  0  0  0
    4.6627    2.9375    0.0000 C   0  0  0  0  0  0  0  0  0  0  0  0
    3.3109    2.2873    0.0000 C   0  0  0  0  0  0  0  0  0  0  0  0
    3.1981    0.7916    0.0000 C   0  0  0  0  0  0  0  0  0  0  0  0
    1.9591    1.6371    0.0000 C   0  0  0  0  0  0  0  0  0  0  0  0
    1.8464    0.1414    0.0000 C   0  0  0  0  0  0  0  0  0  0  0  0
    0.6074    0.9869    0.0000 C   0  0  0  0  0  0  0  0  0  0  0  0
   -0.7444    0.3367    0.0000 C   0  0  0  0  0  0  0  0  0  0  0  0
   -1.9833    1.1823    0.0000 O   0  0  0  0  0  0  0  0  0  0  0  0
   -0.8572   -1.1590    0.0000 C   0  0  0  0  0  0  0  0  0  0  0  0
   -2.1777   -0.4476    0.0000 C   0  0  0  0  0  0  0  0  0  0  0  0
  1  2  1  0
  2  3  1  0
  3  4  2  0
  3  5  1  0
  5  6  1  0
  6  7  1  0
  7  8  1  6
  7  9  1  0
  9 10  1  6
 10 11  1  0
 12 11  1  6
 12 13  1  0
 13 14  1  1
 14 15  1  1
 14 16  1  0
 17 16  1  1
 17 18  1  0
 18 19  1  0
 19 20  1  1
 19 21  1  0
 21 22  1  0
 22 23  1  0
 23 24  1  6
 23 25  1  0
 25 26  1  6
 26 27  1  0
 27 28  2  0
 27 29  1  0
 29 30  1  6
 29  9  1  0
 29 12  1  0
 25 13  1  0
 23 17  1  0
M  END
>  <MS_ID>  (2563) 
MS2649

>  <SMILES>  (2563) 
CCC(=O)CC[C@@H](C)[C@H]1CC[C@H]2[C@@H]3[C@H](O)C[C@@H]4C[C@H](O)CC[C@]4(C)[C@H]3CC(=O)[C@]12C

>  <Structure_dimension>  (2563) 
2D

$$$$
MS2650
     RDKit          2D

 33 36  0  0  0  0  0  0  0  0999 V2000
   -3.2878   -3.6766    0.0000 C   0  0  0  0  0  0  0  0  0  0  0  0
   -2.4284   -2.4472    0.0000 C   0  0  0  0  0  0  0  0  0  0  0  0
   -3.0634   -1.0882    0.0000 C   0  0  0  0  0  0  0  0  0  0  0  0
   -4.5578   -0.9586    0.0000 C   0  0  0  0  0  0  0  0  0  0  0  0
   -5.1928    0.4003    0.0000 C   0  0  0  0  0  0  0  0  0  0  0  0
   -4.3333    1.6297    0.0000 O   0  0  0  0  0  0  0  0  0  0  0  0
   -6.6871    0.5299    0.0000 C   0  0  0  0  0  0  0  0  0  0  0  0
   -7.3221    1.8889    0.0000 C   0  0  0  0  0  0  0  0  0  0  0  0
   -8.8165    2.0184    0.0000 C   0  0  0  0  0  0  0  0  0  0  0  0
   -9.4515    3.3774    0.0000 O   0  0  0  0  0  0  0  0  0  0  0  0
   -9.6759    0.7890    0.0000 S   0  0  0  0  0  0  0  0  0  0  0  0
   -0.9340   -2.5767    0.0000 C   0  0  0  0  0  0  0  0  0  0  0  0
   -0.1604   -3.8619    0.0000 C   0  0  0  0  0  0  0  0  0  0  0  0
    1.3009   -3.5233    0.0000 C   0  0  0  0  0  0  0  0  0  0  0  0
    1.4304   -2.0289    0.0000 C   0  0  0  0  0  0  0  0  0  0  0  0
    2.6277   -1.1253    0.0000 C   0  0  0  0  0  0  0  0  0  0  0  0
    4.0089   -1.7103    0.0000 C   0  0  0  0  0  0  0  0  0  0  0  0
    4.1929   -3.1990    0.0000 O   0  0  0  0  0  0  0  0  0  0  0  0
    5.2061   -0.8066    0.0000 C   0  0  0  0  0  0  0  0  0  0  0  0
    6.5874   -1.3916    0.0000 O   0  0  0  0  0  0  0  0  0  0  0  0
    5.0222    0.6820    0.0000 C   0  0  0  0  0  0  0  0  0  0  0  0
    6.2194    1.5857    0.0000 C   0  0  0  0  0  0  0  0  0  0  0  0
    6.0355    3.0744    0.0000 C   0  0  0  0  0  0  0  0  0  0  0  0
    7.2327    3.9780    0.0000 O   0  0  0  0  0  0  0  0  0  0  0  0
    4.6542    3.6594    0.0000 C   0  0  0  0  0  0  0  0  0  0  0  0
    3.4570    2.7557    0.0000 C   0  0  0  0  0  0  0  0  0  0  0  0
    3.6410    1.2671    0.0000 C   0  0  0  0  0  0  0  0  0  0  0  0
    2.2597    1.8521    0.0000 C   0  0  0  0  0  0  0  0  0  0  0  0
    2.4437    0.3634    0.0000 C   0  0  0  0  0  0  0  0  0  0  0  0
    1.0625    0.9484    0.0000 C   0  0  0  0  0  0  0  0  0  0  0  0
   -0.1347    0.0448    0.0000 C   0  0  0  0  0  0  0  0  0  0  0  0
    0.0492   -1.4439    0.0000 C   0  0  0  0  0  0  0  0  0  0  0  0
   -1.3856   -1.0065    0.0000 C   0  0  0  0  0  0  0  0  0  0  0  0
  2  1  1  6
  2  3  1  0
  3  4  1  0
  4  5  1  0
  5  6  2  0
  5  7  1  0
  7  8  1  0
  8  9  1  0
  9 10  2  0
  9 11  1  0
  2 12  1  0
 12 13  1  6
 13 14  1  0
 15 14  1  6
 15 16  1  0
 16 17  1  1
 17 18  1  1
 17 19  1  0
 19 20  1  1
 19 21  1  0
 21 22  1  1
 22 23  1  0
 23 24  1  1
 23 25  1  0
 25 26  1  0
 26 27  1  0
 27 28  1  6
 27 29  1  0
 29 30  1  6
 30 31  1  0
 31 32  1  0
 32 33  1  6
 32 12  1  0
 32 15  1  0
 29 16  1  0
 27 21  1  0
M  END
>  <MS_ID>  (2564) 
MS2650

>  <SMILES>  (2564) 
C[C@H](CCC(=O)CCC(=O)S)[C@H]1CC[C@H]2[C@@H]3[C@H](O)[C@H](O)[C@@H]4C[C@H](O)CC[C@]4(C)[C@H]3CC[C@]12C

>  <Structure_dimension>  (2564) 
2D

$$$$
MS2651
     RDKit          2D

 30 33  0  0  0  0  0  0  0  0999 V2000
   -4.5440   -2.7098    0.0000 C   0  0  0  0  0  0  0  0  0  0  0  0
   -3.5955   -1.5478    0.0000 C   0  0  0  0  0  0  0  0  0  0  0  0
   -4.1277   -0.1453    0.0000 C   0  0  0  0  0  0  0  0  0  0  0  0
   -5.6083    0.0950    0.0000 C   0  0  0  0  0  0  0  0  0  0  0  0
   -6.1404    1.4975    0.0000 C   0  0  0  0  0  0  0  0  0  0  0  0
   -5.1920    2.6595    0.0000 O   0  0  0  0  0  0  0  0  0  0  0  0
   -7.6211    1.7378    0.0000 O   0  0  0  0  0  0  0  0  0  0  0  0
   -2.1149   -1.7881    0.0000 C   0  0  0  0  0  0  0  0  0  0  0  0
   -1.4391   -3.1273    0.0000 C   0  0  0  0  0  0  0  0  0  0  0  0
    0.0433   -2.8983    0.0000 C   0  0  0  0  0  0  0  0  0  0  0  0
    0.2837   -1.4177    0.0000 C   0  0  0  0  0  0  0  0  0  0  0  0
    1.5448   -0.6056    0.0000 C   0  0  0  0  0  0  0  0  0  0  0  0
    2.8787   -1.2918    0.0000 C   0  0  0  0  0  0  0  0  0  0  0  0
    2.9514   -2.7900    0.0000 C   0  0  0  0  0  0  0  0  0  0  0  0
    4.2853   -3.4762    0.0000 C   0  0  0  0  0  0  0  0  0  0  0  0
    4.3580   -4.9744    0.0000 O   0  0  0  0  0  0  0  0  0  0  0  0
    4.1399   -0.4797    0.0000 C   0  0  0  0  0  0  0  0  0  0  0  0
    4.0671    1.0186    0.0000 C   0  0  0  0  0  0  0  0  0  0  0  0
    5.3283    1.8306    0.0000 C   0  0  0  0  0  0  0  0  0  0  0  0
    5.2556    3.3289    0.0000 C   0  0  0  0  0  0  0  0  0  0  0  0
    3.9217    4.0150    0.0000 C   0  0  0  0  0  0  0  0  0  0  0  0
    2.6606    3.2029    0.0000 C   0  0  0  0  0  0  0  0  0  0  0  0
    2.7333    1.7047    0.0000 C   0  0  0  0  0  0  0  0  0  0  0  0
    1.3994    2.3908    0.0000 C   0  0  0  0  0  0  0  0  0  0  0  0
    1.4721    0.8926    0.0000 C   0  0  0  0  0  0  0  0  0  0  0  0
    0.1382    1.5787    0.0000 C   0  0  0  0  0  0  0  0  0  0  0  0
   -1.1229    0.7667    0.0000 C   0  0  0  0  0  0  0  0  0  0  0  0
   -2.4568    1.4528    0.0000 O   0  0  0  0  0  0  0  0  0  0  0  0
   -1.0502   -0.7316    0.0000 C   0  0  0  0  0  0  0  0  0  0  0  0
   -2.4485   -0.1886    0.0000 C   0  0  0  0  0  0  0  0  0  0  0  0
  2  1  1  6
  2  3  1  0
  3  4  1  0
  4  5  1  0
  5  6  2  0
  5  7  1  0
  2  8  1  0
  8  9  1  6
  9 10  1  0
 11 10  1  6
 11 12  1  0
 12 13  1  1
 13 14  1  6
 14 15  1  0
 15 16  1  0
 13 17  1  0
 18 17  1  1
 18 19  1  0
 19 20  1  0
 20 21  1  0
 21 22  1  0
 22 23  1  0
 23 24  1  6
 23 25  1  0
 25 26  1  6
 26 27  1  0
 27 28  1  1
 27 29  1  0
 29 30  1  6
 29  8  1  0
 29 11  1  0
 25 12  1  0
 23 18  1  0
M  END
>  <MS_ID>  (2565) 
MS2651

>  <SMILES>  (2565) 
C[C@H](CCC(=O)O)[C@H]1CC[C@H]2[C@@H]3[C@@H](CCO)C[C@@H]4CCCC[C@]4(C)[C@H]3C[C@H](O)[C@]12C

>  <Structure_dimension>  (2565) 
2D

$$$$
MS2653
     RDKit          2D

 35 38  0  0  0  0  0  0  0  0999 V2000
   -1.5102   -4.3418    0.0000 C   0  0  0  0  0  0  0  0  0  0  0  0
   -0.8246   -3.0077    0.0000 C   0  0  0  0  0  0  0  0  0  0  0  0
   -1.6372   -1.7469    0.0000 C   0  0  0  0  0  0  0  0  0  0  0  0
   -3.1354   -1.8202    0.0000 C   0  0  0  0  0  0  0  0  0  0  0  0
   -3.9480   -0.5594    0.0000 C   0  0  0  0  0  0  0  0  0  0  0  0
   -3.2624    0.7748    0.0000 O   0  0  0  0  0  0  0  0  0  0  0  0
   -5.4462   -0.6327    0.0000 O   0  0  0  0  0  0  0  0  0  0  0  0
   -6.2588    0.6281    0.0000 C   0  0  0  0  0  0  0  0  0  0  0  0
   -7.7570    0.5548    0.0000 C   0  0  0  0  0  0  0  0  0  0  0  0
   -8.5696    1.8156    0.0000 O   0  0  0  0  0  0  0  0  0  0  0  0
  -10.0678    1.7423    0.0000 S   0  0  0  0  0  0  0  0  0  0  0  0
   -9.9945    0.2441    0.0000 O   0  0  0  0  0  0  0  0  0  0  0  0
  -10.1411    3.2405    0.0000 O   0  0  0  0  0  0  0  0  0  0  0  0
  -11.5660    1.6690    0.0000 O   0  0  0  0  0  0  0  0  0  0  0  0
    0.6736   -2.9344    0.0000 C   0  0  0  0  0  0  0  0  0  0  0  0
    1.6136   -4.1034    0.0000 C   0  0  0  0  0  0  0  0  0  0  0  0
    3.0158   -3.5707    0.0000 C   0  0  0  0  0  0  0  0  0  0  0  0
    2.9425   -2.0725    0.0000 C   0  0  0  0  0  0  0  0  0  0  0  0
    4.0068   -1.0155    0.0000 C   0  0  0  0  0  0  0  0  0  0  0  0
    5.4544   -1.4087    0.0000 C   0  0  0  0  0  0  0  0  0  0  0  0
    5.8376   -2.8589    0.0000 O   0  0  0  0  0  0  0  0  0  0  0  0
    6.5187   -0.3517    0.0000 C   0  0  0  0  0  0  0  0  0  0  0  0
    6.1355    1.0985    0.0000 C   0  0  0  0  0  0  0  0  0  0  0  0
    7.1998    2.1555    0.0000 C   0  0  0  0  0  0  0  0  0  0  0  0
    6.8166    3.6057    0.0000 C   0  0  0  0  0  0  0  0  0  0  0  0
    7.8809    4.6627    0.0000 O   0  0  0  0  0  0  0  0  0  0  0  0
    5.3690    3.9989    0.0000 C   0  0  0  0  0  0  0  0  0  0  0  0
    4.3047    2.9420    0.0000 C   0  0  0  0  0  0  0  0  0  0  0  0
    4.6879    1.4917    0.0000 C   0  0  0  0  0  0  0  0  0  0  0  0
    3.2404    1.8850    0.0000 C   0  0  0  0  0  0  0  0  0  0  0  0
    3.6236    0.4347    0.0000 C   0  0  0  0  0  0  0  0  0  0  0  0
    2.1761    0.8280    0.0000 C   0  0  0  0  0  0  0  0  0  0  0  0
    1.1117   -0.2290    0.0000 C   0  0  0  0  0  0  0  0  0  0  0  0
    1.4950   -1.6792    0.0000 C   0  0  0  0  0  0  0  0  0  0  0  0
    0.0142   -1.4394    0.0000 C   0  0  0  0  0  0  0  0  0  0  0  0
  2  1  1  6
  2  3  1  0
  3  4  1  0
  4  5  1  0
  5  6  2  0
  5  7  1  0
  7  8  1  0
  8  9  1  0
  9 10  1  0
 10 11  1  0
 11 12  2  0
 11 13  2  0
 11 14  1  0
  2 15  1  0
 15 16  1  6
 16 17  1  0
 18 17  1  6
 18 19  1  0
 19 20  1  1
 20 21  1  1
 20 22  1  0
 23 22  1  1
 23 24  1  0
 24 25  1  0
 25 26  1  1
 25 27  1  0
 27 28  1  0
 28 29  1  0
 29 30  1  6
 29 31  1  0
 31 32  1  6
 32 33  1  0
 33 34  1  0
 34 35  1  6
 34 15  1  0
 34 18  1  0
 31 19  1  0
 29 23  1  0
M  END
>  <MS_ID>  (2566) 
MS2653

>  <SMILES>  (2566) 
C[C@H](CCC(=O)OCCOS(=O)(=O)O)[C@H]1CC[C@H]2[C@@H]3[C@H](O)C[C@@H]4C[C@H](O)CC[C@]4(C)[C@H]3CC[C@]12C

>  <Structure_dimension>  (2566) 
2D

$$$$
MS2654
     RDKit          2D

 30 33  0  0  0  0  0  0  0  0999 V2000
   -7.4782    4.1980    0.0000 C   0  0  0  0  0  0  0  0  0  0  0  0
   -7.3004    2.7085    0.0000 O   0  0  0  0  0  0  0  0  0  0  0  0
   -5.9216    2.1178    0.0000 C   0  0  0  0  0  0  0  0  0  0  0  0
   -4.7207    3.0165    0.0000 O   0  0  0  0  0  0  0  0  0  0  0  0
   -5.7439    0.6284    0.0000 C   0  0  0  0  0  0  0  0  0  0  0  0
   -4.3651    0.0376    0.0000 C   0  0  0  0  0  0  0  0  0  0  0  0
   -4.1873   -1.4518    0.0000 C   0  0  0  0  0  0  0  0  0  0  0  0
   -5.3883   -2.3505    0.0000 C   0  0  0  0  0  0  0  0  0  0  0  0
   -2.8085   -2.0426    0.0000 C   0  0  0  0  0  0  0  0  0  0  0  0
   -2.4760   -3.5052    0.0000 C   0  0  0  0  0  0  0  0  0  0  0  0
   -0.9822   -3.6410    0.0000 C   0  0  0  0  0  0  0  0  0  0  0  0
   -0.3914   -2.2622    0.0000 C   0  0  0  0  0  0  0  0  0  0  0  0
    1.0285   -1.7787    0.0000 C   0  0  0  0  0  0  0  0  0  0  0  0
    2.1572   -2.7666    0.0000 C   0  0  0  0  0  0  0  0  0  0  0  0
    3.5771   -2.2830    0.0000 C   0  0  0  0  0  0  0  0  0  0  0  0
    3.8683   -0.8115    0.0000 C   0  0  0  0  0  0  0  0  0  0  0  0
    5.2882   -0.3280    0.0000 C   0  0  0  0  0  0  0  0  0  0  0  0
    5.5794    1.1435    0.0000 C   0  0  0  0  0  0  0  0  0  0  0  0
    6.9993    1.6271    0.0000 N   0  0  0  0  0  0  0  0  0  0  0  0
    8.1281    0.6392    0.0000 C   0  0  0  0  0  0  0  0  0  0  0  0
    7.2905    3.0985    0.0000 C   0  0  0  0  0  0  0  0  0  0  0  0
    4.4507    2.1314    0.0000 C   0  0  0  0  0  0  0  0  0  0  0  0
    3.0307    1.6478    0.0000 C   0  0  0  0  0  0  0  0  0  0  0  0
    2.7396    0.1764    0.0000 C   0  0  0  0  0  0  0  0  0  0  0  0
    1.6108    1.1643    0.0000 C   0  0  0  0  0  0  0  0  0  0  0  0
    1.3196   -0.3072    0.0000 C   0  0  0  0  0  0  0  0  0  0  0  0
    0.1909    0.6807    0.0000 C   0  0  0  0  0  0  0  0  0  0  0  0
   -1.2290    0.1971    0.0000 C   0  0  0  0  0  0  0  0  0  0  0  0
   -1.5202   -1.2743    0.0000 C   0  0  0  0  0  0  0  0  0  0  0  0
   -2.7460   -0.4098    0.0000 C   0  0  0  0  0  0  0  0  0  0  0  0
  1  2  1  0
  2  3  1  0
  3  4  2  0
  3  5  1  0
  5  6  1  0
  6  7  1  0
  7  8  1  6
  7  9  1  0
  9 10  1  6
 10 11  1  0
 12 11  1  6
 12 13  1  0
 13 14  1  1
 14 15  1  0
 16 15  1  1
 16 17  1  0
 17 18  1  0
 18 19  1  1
 19 20  1  0
 19 21  1  0
 18 22  1  0
 22 23  1  0
 23 24  1  0
 24 25  1  6
 24 26  1  0
 26 27  1  6
 27 28  1  0
 28 29  1  0
 29 30  1  6
 29  9  1  0
 29 12  1  0
 26 13  1  0
 24 16  1  0
M  END
>  <MS_ID>  (2567) 
MS2654

>  <SMILES>  (2567) 
COC(=O)CC[C@@H](C)[C@H]1CC[C@H]2[C@@H]3CC[C@@H]4C[C@H](N(C)C)CC[C@]4(C)[C@H]3CC[C@]12C

>  <Structure_dimension>  (2567) 
2D

$$$$
MS2655
     RDKit          2D

 29 32  0  0  0  0  0  0  0  0999 V2000
   -5.0303   -2.1373    0.0000 C   0  0  0  0  0  0  0  0  0  0  0  0
   -3.8594   -1.1998    0.0000 C   0  0  0  0  0  0  0  0  0  0  0  0
   -4.0858    0.2830    0.0000 C   0  0  0  0  0  0  0  0  0  0  0  0
   -5.4831    0.8284    0.0000 C   0  0  0  0  0  0  0  0  0  0  0  0
   -5.7095    2.3112    0.0000 C   0  0  0  0  0  0  0  0  0  0  0  0
   -4.5386    3.2487    0.0000 O   0  0  0  0  0  0  0  0  0  0  0  0
   -7.1069    2.8565    0.0000 O   0  0  0  0  0  0  0  0  0  0  0  0
   -2.4620   -1.7451    0.0000 C   0  0  0  0  0  0  0  0  0  0  0  0
   -2.0818   -3.1961    0.0000 C   0  0  0  0  0  0  0  0  0  0  0  0
   -0.5844   -3.2830    0.0000 C   0  0  0  0  0  0  0  0  0  0  0  0
   -0.0390   -1.8856    0.0000 C   0  0  0  0  0  0  0  0  0  0  0  0
    1.3643   -1.3559    0.0000 C   0  0  0  0  0  0  0  0  0  0  0  0
    2.5248   -2.3063    0.0000 C   0  0  0  0  0  0  0  0  0  0  0  0
    2.2819   -3.7865    0.0000 F   0  0  0  0  0  0  0  0  0  0  0  0
    3.9281   -1.7765    0.0000 C   0  0  0  0  0  0  0  0  0  0  0  0
    4.1710   -0.2963    0.0000 C   0  0  0  0  0  0  0  0  0  0  0  0
    5.5743    0.2334    0.0000 C   0  0  0  0  0  0  0  0  0  0  0  0
    5.8172    1.7136    0.0000 C   0  0  0  0  0  0  0  0  0  0  0  0
    7.2205    2.2434    0.0000 O   0  0  0  0  0  0  0  0  0  0  0  0
    4.6568    2.6641    0.0000 C   0  0  0  0  0  0  0  0  0  0  0  0
    3.2534    2.1343    0.0000 C   0  0  0  0  0  0  0  0  0  0  0  0
    3.0105    0.6541    0.0000 C   0  0  0  0  0  0  0  0  0  0  0  0
    1.8501    1.6046    0.0000 C   0  0  0  0  0  0  0  0  0  0  0  0
    1.6072    0.1244    0.0000 C   0  0  0  0  0  0  0  0  0  0  0  0
    0.4467    1.0748    0.0000 C   0  0  0  0  0  0  0  0  0  0  0  0
   -0.9566    0.5450    0.0000 C   0  0  0  0  0  0  0  0  0  0  0  0
   -2.1170    1.4955    0.0000 O   0  0  0  0  0  0  0  0  0  0  0  0
   -1.1995   -0.9352    0.0000 C   0  0  0  0  0  0  0  0  0  0  0  0
   -2.4529   -0.1112    0.0000 C   0  0  0  0  0  0  0  0  0  0  0  0
  2  1  1  6
  2  3  1  0
  3  4  1  0
  4  5  1  0
  5  6  2  0
  5  7  1  0
  2  8  1  0
  8  9  1  6
  9 10  1  0
 11 10  1  6
 11 12  1  0
 12 13  1  1
 13 14  1  1
 13 15  1  0
 16 15  1  1
 16 17  1  0
 17 18  1  0
 18 19  1  6
 18 20  1  0
 20 21  1  0
 21 22  1  0
 22 23  1  6
 22 24  1  0
 24 25  1  6
 25 26  1  0
 26 27  1  6
 26 28  1  0
 28 29  1  6
 28  8  1  0
 28 11  1  0
 24 12  1  0
 22 16  1  0
M  END
>  <MS_ID>  (2568) 
MS2655

>  <SMILES>  (2568) 
C[C@H](CCC(=O)O)[C@H]1CC[C@H]2[C@@H]3[C@H](F)C[C@@H]4C[C@@H](O)CC[C@]4(C)[C@H]3C[C@@H](O)[C@]12C

>  <Structure_dimension>  (2568) 
2D

$$$$
MS2656
     RDKit          2D

 32 35  0  0  0  0  0  0  0  0999 V2000
   -5.1569   -2.5516    0.0000 C   0  0  0  0  0  0  0  0  0  0  0  0
   -4.1971   -1.3989    0.0000 C   0  0  0  0  0  0  0  0  0  0  0  0
   -4.7155    0.0087    0.0000 C   0  0  0  0  0  0  0  0  0  0  0  0
   -6.1937    0.2635    0.0000 C   0  0  0  0  0  0  0  0  0  0  0  0
   -6.7121    1.6711    0.0000 C   0  0  0  0  0  0  0  0  0  0  0  0
   -5.7523    2.8238    0.0000 O   0  0  0  0  0  0  0  0  0  0  0  0
   -8.1903    1.9259    0.0000 O   0  0  0  0  0  0  0  0  0  0  0  0
   -2.7189   -1.6538    0.0000 C   0  0  0  0  0  0  0  0  0  0  0  0
   -2.0562   -2.9994    0.0000 C   0  0  0  0  0  0  0  0  0  0  0  0
   -0.5716   -2.7850    0.0000 C   0  0  0  0  0  0  0  0  0  0  0  0
   -0.3168   -1.3068    0.0000 C   0  0  0  0  0  0  0  0  0  0  0  0
    0.9523   -0.5071    0.0000 C   0  0  0  0  0  0  0  0  0  0  0  0
    2.2794   -1.2062    0.0000 C   0  0  0  0  0  0  0  0  0  0  0  0
    2.3374   -2.7051    0.0000 C   0  0  0  0  0  0  0  0  0  0  0  0
    3.6645   -3.4043    0.0000 S   0  0  0  0  0  0  0  0  0  0  0  0
    2.9654   -4.7314    0.0000 O   0  0  0  0  0  0  0  0  0  0  0  0
    4.3637   -2.0772    0.0000 O   0  0  0  0  0  0  0  0  0  0  0  0
    4.9916   -4.1034    0.0000 O   0  0  0  0  0  0  0  0  0  0  0  0
    3.5484   -0.4065    0.0000 C   0  0  0  0  0  0  0  0  0  0  0  0
    3.4903    1.0923    0.0000 C   0  0  0  0  0  0  0  0  0  0  0  0
    4.7594    1.8921    0.0000 C   0  0  0  0  0  0  0  0  0  0  0  0
    4.7013    3.3909    0.0000 C   0  0  0  0  0  0  0  0  0  0  0  0
    5.9703    4.1907    0.0000 O   0  0  0  0  0  0  0  0  0  0  0  0
    3.3742    4.0901    0.0000 C   0  0  0  0  0  0  0  0  0  0  0  0
    2.1052    3.2904    0.0000 C   0  0  0  0  0  0  0  0  0  0  0  0
    2.1632    1.7915    0.0000 C   0  0  0  0  0  0  0  0  0  0  0  0
    0.8361    2.4907    0.0000 C   0  0  0  0  0  0  0  0  0  0  0  0
    0.8942    0.9918    0.0000 C   0  0  0  0  0  0  0  0  0  0  0  0
   -0.4329    1.6909    0.0000 C   0  0  0  0  0  0  0  0  0  0  0  0
   -1.7019    0.8912    0.0000 C   0  0  0  0  0  0  0  0  0  0  0  0
   -1.6439   -0.6077    0.0000 C   0  0  0  0  0  0  0  0  0  0  0  0
   -3.0368   -0.0511    0.0000 C   0  0  0  0  0  0  0  0  0  0  0  0
  2  1  1  6
  2  3  1  0
  3  4  1  0
  4  5  1  0
  5  6  2  0
  5  7  1  0
  2  8  1  0
  8  9  1  6
  9 10  1  0
 11 10  1  6
 11 12  1  0
 12 13  1  1
 13 14  1  6
 14 15  1  0
 15 16  2  0
 15 17  2  0
 15 18  1  0
 13 19  1  0
 20 19  1  1
 20 21  1  0
 21 22  1  0
 22 23  1  1
 22 24  1  0
 24 25  1  0
 25 26  1  0
 26 27  1  6
 26 28  1  0
 28 29  1  6
 29 30  1  0
 30 31  1  0
 31 32  1  6
 31  8  1  0
 31 11  1  0
 28 12  1  0
 26 20  1  0
M  END
>  <MS_ID>  (2569) 
MS2656

>  <SMILES>  (2569) 
C[C@H](CCC(=O)O)[C@H]1CC[C@H]2[C@@H]3[C@@H](CS(=O)(=O)O)C[C@@H]4C[C@H](O)CC[C@]4(C)[C@H]3CC[C@]12C

>  <Structure_dimension>  (2569) 
2D

$$$$
MS2657
     RDKit          2D

 31 34  0  0  0  0  0  0  0  0999 V2000
   -3.6377   -3.4900    0.0000 C   0  0  0  0  0  0  0  0  0  0  0  0
   -2.6684   -2.3453    0.0000 C   0  0  0  0  0  0  0  0  0  0  0  0
   -3.1751   -0.9335    0.0000 C   0  0  0  0  0  0  0  0  0  0  0  0
   -4.6511   -0.6664    0.0000 C   0  0  0  0  0  0  0  0  0  0  0  0
   -5.1578    0.7454    0.0000 C   0  0  0  0  0  0  0  0  0  0  0  0
   -4.1885    1.8902    0.0000 O   0  0  0  0  0  0  0  0  0  0  0  0
   -6.6339    1.0125    0.0000 C   0  0  0  0  0  0  0  0  0  0  0  0
   -7.1406    2.4243    0.0000 C   0  0  0  0  0  0  0  0  0  0  0  0
   -6.1713    3.5691    0.0000 O   0  0  0  0  0  0  0  0  0  0  0  0
   -8.6166    2.6914    0.0000 O   0  0  0  0  0  0  0  0  0  0  0  0
   -1.1923   -2.6123    0.0000 C   0  0  0  0  0  0  0  0  0  0  0  0
   -0.5408   -3.9635    0.0000 C   0  0  0  0  0  0  0  0  0  0  0  0
    0.9455   -3.7613    0.0000 C   0  0  0  0  0  0  0  0  0  0  0  0
    1.2126   -2.2853    0.0000 C   0  0  0  0  0  0  0  0  0  0  0  0
    2.4882   -1.4961    0.0000 C   0  0  0  0  0  0  0  0  0  0  0  0
    3.8095   -2.2063    0.0000 C   0  0  0  0  0  0  0  0  0  0  0  0
    5.0851   -1.4171    0.0000 C   0  0  0  0  0  0  0  0  0  0  0  0
    5.0394    0.0822    0.0000 C   0  0  0  0  0  0  0  0  0  0  0  0
    6.3151    0.8714    0.0000 C   0  0  0  0  0  0  0  0  0  0  0  0
    6.2694    2.3707    0.0000 C   0  0  0  0  0  0  0  0  0  0  0  0
    7.5450    3.1599    0.0000 O   0  0  0  0  0  0  0  0  0  0  0  0
    4.9481    3.0808    0.0000 C   0  0  0  0  0  0  0  0  0  0  0  0
    3.6725    2.2917    0.0000 C   0  0  0  0  0  0  0  0  0  0  0  0
    3.7182    0.7924    0.0000 C   0  0  0  0  0  0  0  0  0  0  0  0
    2.3969    1.5025    0.0000 C   0  0  0  0  0  0  0  0  0  0  0  0
    2.4426    0.0032    0.0000 C   0  0  0  0  0  0  0  0  0  0  0  0
    1.1213    0.7133    0.0000 C   0  0  0  0  0  0  0  0  0  0  0  0
   -0.1543   -0.0759    0.0000 C   0  0  0  0  0  0  0  0  0  0  0  0
   -1.4756    0.6342    0.0000 O   0  0  0  0  0  0  0  0  0  0  0  0
   -0.1087   -1.5752    0.0000 C   0  0  0  0  0  0  0  0  0  0  0  0
   -1.4969   -1.0071    0.0000 C   0  0  0  0  0  0  0  0  0  0  0  0
  2  1  1  6
  2  3  1  0
  3  4  1  0
  4  5  1  0
  5  6  2  0
  5  7  1  0
  7  8  1  0
  8  9  2  0
  8 10  1  0
  2 11  1  0
 11 12  1  6
 12 13  1  0
 14 13  1  6
 14 15  1  0
 15 16  1  1
 16 17  1  0
 18 17  1  1
 18 19  1  0
 19 20  1  0
 20 21  2  0
 20 22  1  0
 22 23  1  0
 23 24  1  0
 24 25  1  6
 24 26  1  0
 26 27  1  6
 27 28  1  0
 28 29  1  6
 28 30  1  0
 30 31  1  6
 30 11  1  0
 30 14  1  0
 26 15  1  0
 24 18  1  0
M  END
>  <MS_ID>  (2570) 
MS2657

>  <SMILES>  (2570) 
C[C@H](CCC(=O)CC(=O)O)[C@H]1CC[C@H]2[C@@H]3CC[C@@H]4CC(=O)CC[C@]4(C)[C@H]3C[C@@H](O)[C@]12C

>  <Structure_dimension>  (2570) 
2D

$$$$
MS2658
     RDKit          2D

 32 35  0  0  0  0  0  0  0  0999 V2000
   -3.5311   -3.9474    0.0000 C   0  0  0  0  0  0  0  0  0  0  0  0
   -2.6236   -2.7530    0.0000 C   0  0  0  0  0  0  0  0  0  0  0  0
   -3.2042   -1.3699    0.0000 C   0  0  0  0  0  0  0  0  0  0  0  0
   -4.6923   -1.1812    0.0000 C   0  0  0  0  0  0  0  0  0  0  0  0
   -5.2728    0.2019    0.0000 C   0  0  0  0  0  0  0  0  0  0  0  0
   -6.7609    0.3906    0.0000 O   0  0  0  0  0  0  0  0  0  0  0  0
   -4.3653    1.3962    0.0000 O   0  0  0  0  0  0  0  0  0  0  0  0
   -4.9459    2.7793    0.0000 C   0  0  0  0  0  0  0  0  0  0  0  0
   -6.4340    2.9681    0.0000 O   0  0  0  0  0  0  0  0  0  0  0  0
   -4.0384    3.9737    0.0000 C   0  0  0  0  0  0  0  0  0  0  0  0
   -4.6190    5.3567    0.0000 N   0  0  0  0  0  0  0  0  0  0  0  0
   -1.1355   -2.9418    0.0000 C   0  0  0  0  0  0  0  0  0  0  0  0
   -0.4136   -4.2566    0.0000 C   0  0  0  0  0  0  0  0  0  0  0  0
    1.0600   -3.9763    0.0000 C   0  0  0  0  0  0  0  0  0  0  0  0
    1.2488   -2.4882    0.0000 C   0  0  0  0  0  0  0  0  0  0  0  0
    2.4809   -1.6328    0.0000 C   0  0  0  0  0  0  0  0  0  0  0  0
    3.8378   -2.2721    0.0000 C   0  0  0  0  0  0  0  0  0  0  0  0
    5.0700   -1.4167    0.0000 C   0  0  0  0  0  0  0  0  0  0  0  0
    4.9452    0.0781    0.0000 C   0  0  0  0  0  0  0  0  0  0  0  0
    6.1774    0.9336    0.0000 C   0  0  0  0  0  0  0  0  0  0  0  0
    6.0526    2.4284    0.0000 C   0  0  0  0  0  0  0  0  0  0  0  0
    7.2848    3.2838    0.0000 O   0  0  0  0  0  0  0  0  0  0  0  0
    4.6957    3.0678    0.0000 C   0  0  0  0  0  0  0  0  0  0  0  0
    3.4635    2.2123    0.0000 C   0  0  0  0  0  0  0  0  0  0  0  0
    3.5883    0.7175    0.0000 C   0  0  0  0  0  0  0  0  0  0  0  0
    2.2314    1.3569    0.0000 C   0  0  0  0  0  0  0  0  0  0  0  0
    2.3562   -0.1379    0.0000 C   0  0  0  0  0  0  0  0  0  0  0  0
    0.9992    0.5014    0.0000 C   0  0  0  0  0  0  0  0  0  0  0  0
   -0.2329   -0.3540    0.0000 C   0  0  0  0  0  0  0  0  0  0  0  0
   -1.5898    0.2853    0.0000 O   0  0  0  0  0  0  0  0  0  0  0  0
   -0.1082   -1.8488    0.0000 C   0  0  0  0  0  0  0  0  0  0  0  0
   -1.5245   -1.3548    0.0000 C   0  0  0  0  0  0  0  0  0  0  0  0
  2  1  1  6
  2  3  1  0
  3  4  1  0
  4  5  1  0
  5  6  2  0
  5  7  1  0
  7  8  1  0
  8  9  2  0
  8 10  1  0
 10 11  1  0
  2 12  1  0
 12 13  1  6
 13 14  1  0
 15 14  1  6
 15 16  1  0
 16 17  1  1
 17 18  1  0
 19 18  1  1
 19 20  1  0
 20 21  1  0
 21 22  1  1
 21 23  1  0
 23 24  1  0
 24 25  1  0
 25 26  1  6
 25 27  1  0
 27 28  1  6
 28 29  1  0
 29 30  1  1
 29 31  1  0
 31 32  1  6
 31 12  1  0
 31 15  1  0
 27 16  1  0
 25 19  1  0
M  END
>  <MS_ID>  (2571) 
MS2658

>  <SMILES>  (2571) 
C[C@H](CCC(=O)OC(=O)CN)[C@H]1CC[C@H]2[C@@H]3CC[C@@H]4C[C@H](O)CC[C@]4(C)[C@H]3C[C@H](O)[C@]12C

>  <Structure_dimension>  (2571) 
2D

$$$$
MS2659
     RDKit          2D

 32 35  0  0  0  0  0  0  0  0999 V2000
   -3.0592   -3.7169    0.0000 C   0  0  0  0  0  0  0  0  0  0  0  0
   -2.1499   -2.5239    0.0000 C   0  0  0  0  0  0  0  0  0  0  0  0
   -2.7284   -1.1399    0.0000 C   0  0  0  0  0  0  0  0  0  0  0  0
   -4.2162   -0.9489    0.0000 C   0  0  0  0  0  0  0  0  0  0  0  0
   -4.7946    0.4350    0.0000 C   0  0  0  0  0  0  0  0  0  0  0  0
   -3.8853    1.6280    0.0000 O   0  0  0  0  0  0  0  0  0  0  0  0
   -6.2824    0.6260    0.0000 C   0  0  0  0  0  0  0  0  0  0  0  0
   -6.8609    2.0100    0.0000 C   0  0  0  0  0  0  0  0  0  0  0  0
   -8.3487    2.2010    0.0000 C   0  0  0  0  0  0  0  0  0  0  0  0
   -9.2580    1.0080    0.0000 O   0  0  0  0  0  0  0  0  0  0  0  0
   -8.9272    3.5850    0.0000 O   0  0  0  0  0  0  0  0  0  0  0  0
   -0.6621   -2.7149    0.0000 C   0  0  0  0  0  0  0  0  0  0  0  0
    0.0579   -4.0308    0.0000 C   0  0  0  0  0  0  0  0  0  0  0  0
    1.5319   -3.7527    0.0000 C   0  0  0  0  0  0  0  0  0  0  0  0
    1.7229   -2.2649    0.0000 C   0  0  0  0  0  0  0  0  0  0  0  0
    2.9563   -1.4114    0.0000 C   0  0  0  0  0  0  0  0  0  0  0  0
    4.3123   -2.0528    0.0000 C   0  0  0  0  0  0  0  0  0  0  0  0
    5.5457   -1.1992    0.0000 C   0  0  0  0  0  0  0  0  0  0  0  0
    5.4232    0.2958    0.0000 C   0  0  0  0  0  0  0  0  0  0  0  0
    6.6567    1.1494    0.0000 C   0  0  0  0  0  0  0  0  0  0  0  0
    6.5342    2.6444    0.0000 C   0  0  0  0  0  0  0  0  0  0  0  0
    7.7676    3.4980    0.0000 O   0  0  0  0  0  0  0  0  0  0  0  0
    5.1782    3.2858    0.0000 C   0  0  0  0  0  0  0  0  0  0  0  0
    3.9448    2.4322    0.0000 C   0  0  0  0  0  0  0  0  0  0  0  0
    4.0673    0.9372    0.0000 C   0  0  0  0  0  0  0  0  0  0  0  0
    2.7113    1.5786    0.0000 C   0  0  0  0  0  0  0  0  0  0  0  0
    2.8338    0.0836    0.0000 C   0  0  0  0  0  0  0  0  0  0  0  0
    1.4779    0.7250    0.0000 C   0  0  0  0  0  0  0  0  0  0  0  0
    0.2444   -0.1285    0.0000 C   0  0  0  0  0  0  0  0  0  0  0  0
   -1.1115    0.5129    0.0000 O   0  0  0  0  0  0  0  0  0  0  0  0
    0.3669   -1.6235    0.0000 C   0  0  0  0  0  0  0  0  0  0  0  0
   -1.0486   -1.1274    0.0000 C   0  0  0  0  0  0  0  0  0  0  0  0
  2  1  1  6
  2  3  1  0
  3  4  1  0
  4  5  1  0
  5  6  2  0
  5  7  1  0
  7  8  1  0
  8  9  1  0
  9 10  2  0
  9 11  1  0
  2 12  1  0
 12 13  1  6
 13 14  1  0
 15 14  1  6
 15 16  1  0
 16 17  1  1
 17 18  1  0
 19 18  1  1
 19 20  1  0
 20 21  1  0
 21 22  2  0
 21 23  1  0
 23 24  1  0
 24 25  1  0
 25 26  1  6
 25 27  1  0
 27 28  1  6
 28 29  1  0
 29 30  2  0
 29 31  1  0
 31 32  1  6
 31 12  1  0
 31 15  1  0
 27 16  1  0
 25 19  1  0
M  END
>  <MS_ID>  (2572) 
MS2659

>  <SMILES>  (2572) 
C[C@H](CCC(=O)CCC(=O)O)[C@H]1CC[C@H]2[C@@H]3CC[C@@H]4CC(=O)CC[C@]4(C)[C@H]3CC(=O)[C@]12C

>  <Structure_dimension>  (2572) 
2D

$$$$
MS2660
     RDKit          2D

 28 31  0  0  0  0  0  0  0  0999 V2000
   -4.6340   -2.3524    0.0000 C   0  0  0  0  0  0  0  0  0  0  0  0
   -3.5242   -1.3434    0.0000 C   0  0  0  0  0  0  0  0  0  0  0  0
   -3.8431    0.1223    0.0000 C   0  0  0  0  0  0  0  0  0  0  0  0
   -5.2720    0.5789    0.0000 C   0  0  0  0  0  0  0  0  0  0  0  0
   -5.5909    2.0446    0.0000 C   0  0  0  0  0  0  0  0  0  0  0  0
   -4.4811    3.0537    0.0000 O   0  0  0  0  0  0  0  0  0  0  0  0
   -7.0197    2.5012    0.0000 O   0  0  0  0  0  0  0  0  0  0  0  0
   -2.0954   -1.8000    0.0000 C   0  0  0  0  0  0  0  0  0  0  0  0
   -1.6249   -3.2243    0.0000 C   0  0  0  0  0  0  0  0  0  0  0  0
   -0.1249   -3.2170    0.0000 C   0  0  0  0  0  0  0  0  0  0  0  0
    0.3317   -1.7882    0.0000 C   0  0  0  0  0  0  0  0  0  0  0  0
    1.6990   -1.1715    0.0000 C   0  0  0  0  0  0  0  0  0  0  0  0
    2.9168   -2.0473    0.0000 C   0  0  0  0  0  0  0  0  0  0  0  0
    2.7672   -3.5398    0.0000 O   0  0  0  0  0  0  0  0  0  0  0  0
    4.2841   -1.4305    0.0000 C   0  0  0  0  0  0  0  0  0  0  0  0
    4.4337    0.0620    0.0000 C   0  0  0  0  0  0  0  0  0  0  0  0
    5.8011    0.6787    0.0000 C   0  0  0  0  0  0  0  0  0  0  0  0
    5.9506    2.1713    0.0000 C   0  0  0  0  0  0  0  0  0  0  0  0
    4.7328    3.0471    0.0000 C   0  0  0  0  0  0  0  0  0  0  0  0
    3.3655    2.4303    0.0000 C   0  0  0  0  0  0  0  0  0  0  0  0
    3.2159    0.9378    0.0000 C   0  0  0  0  0  0  0  0  0  0  0  0
    1.9981    1.8136    0.0000 C   0  0  0  0  0  0  0  0  0  0  0  0
    1.8486    0.3211    0.0000 C   0  0  0  0  0  0  0  0  0  0  0  0
    0.6308    1.1968    0.0000 C   0  0  0  0  0  0  0  0  0  0  0  0
   -0.7366    0.5801    0.0000 C   0  0  0  0  0  0  0  0  0  0  0  0
   -1.9543    1.4559    0.0000 C   0  0  0  0  0  0  0  0  0  0  0  0
   -0.8861   -0.9124    0.0000 C   0  0  0  0  0  0  0  0  0  0  0  0
   -2.1888   -0.1687    0.0000 C   0  0  0  0  0  0  0  0  0  0  0  0
  2  1  1  6
  2  3  1  0
  3  4  1  0
  4  5  1  0
  5  6  2  0
  5  7  1  0
  2  8  1  0
  8  9  1  6
  9 10  1  0
 11 10  1  6
 11 12  1  0
 12 13  1  1
 13 14  1  6
 13 15  1  0
 16 15  1  1
 16 17  1  0
 17 18  1  0
 18 19  1  0
 19 20  1  0
 20 21  1  0
 21 22  1  6
 21 23  1  0
 23 24  1  6
 24 25  1  0
 25 26  1  1
 25 27  1  0
 27 28  1  6
 27  8  1  0
 27 11  1  0
 23 12  1  0
 21 16  1  0
M  END
>  <MS_ID>  (2573) 
MS2660

>  <SMILES>  (2573) 
C[C@H](CCC(=O)O)[C@H]1CC[C@H]2[C@@H]3[C@@H](O)C[C@@H]4CCCC[C@]4(C)[C@H]3C[C@H](C)[C@]12C

>  <Structure_dimension>  (2573) 
2D

$$$$
MS2661
     RDKit          2D

 30 33  0  0  0  0  0  0  0  0999 V2000
   -5.7116   -1.9729    0.0000 C   0  0  0  0  0  0  0  0  0  0  0  0
   -4.4780   -1.1196    0.0000 C   0  0  0  0  0  0  0  0  0  0  0  0
   -4.6002    0.3754    0.0000 C   0  0  0  0  0  0  0  0  0  0  0  0
   -5.9561    1.0171    0.0000 C   0  0  0  0  0  0  0  0  0  0  0  0
   -6.0783    2.5121    0.0000 C   0  0  0  0  0  0  0  0  0  0  0  0
   -4.8447    3.3654    0.0000 O   0  0  0  0  0  0  0  0  0  0  0  0
   -7.4341    3.1538    0.0000 O   0  0  0  0  0  0  0  0  0  0  0  0
   -3.1222   -1.7613    0.0000 C   0  0  0  0  0  0  0  0  0  0  0  0
   -2.8444   -3.2353    0.0000 C   0  0  0  0  0  0  0  0  0  0  0  0
   -1.3566   -3.4266    0.0000 C   0  0  0  0  0  0  0  0  0  0  0  0
   -0.7150   -2.0708    0.0000 C   0  0  0  0  0  0  0  0  0  0  0  0
    0.7220   -1.6404    0.0000 C   0  0  0  0  0  0  0  0  0  0  0  0
    1.8132   -2.6696    0.0000 C   0  0  0  0  0  0  0  0  0  0  0  0
    3.2501   -2.2393    0.0000 C   0  0  0  0  0  0  0  0  0  0  0  0
    3.5958   -0.7797    0.0000 C   0  0  0  0  0  0  0  0  0  0  0  0
    5.0328   -0.3493    0.0000 C   0  0  0  0  0  0  0  0  0  0  0  0
    5.3785    1.1103    0.0000 C   0  0  0  0  0  0  0  0  0  0  0  0
    6.8155    1.5407    0.0000 C   0  0  0  0  0  0  0  0  0  0  0  0
    7.9066    0.5115    0.0000 C   0  0  0  0  0  0  0  0  0  0  0  0
    9.3436    0.9418    0.0000 O   0  0  0  0  0  0  0  0  0  0  0  0
    4.2873    2.1396    0.0000 C   0  0  0  0  0  0  0  0  0  0  0  0
    2.8504    1.7092    0.0000 C   0  0  0  0  0  0  0  0  0  0  0  0
    2.5047    0.2496    0.0000 C   0  0  0  0  0  0  0  0  0  0  0  0
    1.4135    1.2788    0.0000 C   0  0  0  0  0  0  0  0  0  0  0  0
    1.0677   -0.1808    0.0000 C   0  0  0  0  0  0  0  0  0  0  0  0
   -0.0235    0.8484    0.0000 C   0  0  0  0  0  0  0  0  0  0  0  0
   -1.4604    0.4181    0.0000 C   0  0  0  0  0  0  0  0  0  0  0  0
   -2.5516    1.4473    0.0000 O   0  0  0  0  0  0  0  0  0  0  0  0
   -1.8061   -1.0415    0.0000 C   0  0  0  0  0  0  0  0  0  0  0  0
   -2.9989   -0.1320    0.0000 C   0  0  0  0  0  0  0  0  0  0  0  0
  2  1  1  6
  2  3  1  0
  3  4  1  0
  4  5  1  0
  5  6  2  0
  5  7  1  0
  2  8  1  0
  8  9  1  6
  9 10  1  0
 11 10  1  6
 11 12  1  0
 12 13  1  1
 13 14  1  0
 15 14  1  1
 15 16  1  0
 16 17  1  0
 17 18  1  6
 18 19  1  0
 19 20  1  0
 17 21  1  0
 21 22  1  0
 22 23  1  0
 23 24  1  6
 23 25  1  0
 25 26  1  6
 26 27  1  0
 27 28  1  6
 27 29  1  0
 29 30  1  6
 29  8  1  0
 29 11  1  0
 25 12  1  0
 23 15  1  0
M  END
>  <MS_ID>  (2574) 
MS2661

>  <SMILES>  (2574) 
C[C@H](CCC(=O)O)[C@H]1CC[C@H]2[C@@H]3CC[C@@H]4C[C@@H](CCO)CC[C@]4(C)[C@H]3C[C@@H](O)[C@]12C

>  <Structure_dimension>  (2574) 
2D

$$$$
MS2662
     RDKit          2D

 31 34  0  0  0  0  0  0  0  0999 V2000
   -7.2344    3.3804    0.0000 C   0  0  0  0  0  0  0  0  0  0  0  0
   -6.8501    1.9305    0.0000 C   0  0  0  0  0  0  0  0  0  0  0  0
   -7.9137    0.8727    0.0000 O   0  0  0  0  0  0  0  0  0  0  0  0
   -5.4023    1.5383    0.0000 C   0  0  0  0  0  0  0  0  0  0  0  0
   -4.3387    2.5960    0.0000 O   0  0  0  0  0  0  0  0  0  0  0  0
   -5.0180    0.0883    0.0000 C   0  0  0  0  0  0  0  0  0  0  0  0
   -3.5702   -0.3038    0.0000 C   0  0  0  0  0  0  0  0  0  0  0  0
   -3.1859   -1.7538    0.0000 C   0  0  0  0  0  0  0  0  0  0  0  0
   -4.2495   -2.8115    0.0000 C   0  0  0  0  0  0  0  0  0  0  0  0
   -1.7381   -2.1460    0.0000 C   0  0  0  0  0  0  0  0  0  0  0  0
   -1.2044   -3.5478    0.0000 C   0  0  0  0  0  0  0  0  0  0  0  0
    0.2938   -3.4734    0.0000 C   0  0  0  0  0  0  0  0  0  0  0  0
    0.6860   -2.0256    0.0000 C   0  0  0  0  0  0  0  0  0  0  0  0
    2.0243   -1.3482    0.0000 C   0  0  0  0  0  0  0  0  0  0  0  0
    3.2801   -2.1686    0.0000 C   0  0  0  0  0  0  0  0  0  0  0  0
    3.1975   -3.6663    0.0000 O   0  0  0  0  0  0  0  0  0  0  0  0
    4.6185   -1.4913    0.0000 C   0  0  0  0  0  0  0  0  0  0  0  0
    4.7010    0.0064    0.0000 C   0  0  0  0  0  0  0  0  0  0  0  0
    6.0394    0.6838    0.0000 C   0  0  0  0  0  0  0  0  0  0  0  0
    6.1220    2.1815    0.0000 C   0  0  0  0  0  0  0  0  0  0  0  0
    7.4604    2.8588    0.0000 O   0  0  0  0  0  0  0  0  0  0  0  0
    4.8662    3.0019    0.0000 C   0  0  0  0  0  0  0  0  0  0  0  0
    3.5279    2.3246    0.0000 C   0  0  0  0  0  0  0  0  0  0  0  0
    3.4453    0.8268    0.0000 C   0  0  0  0  0  0  0  0  0  0  0  0
    2.1895    1.6472    0.0000 C   0  0  0  0  0  0  0  0  0  0  0  0
    2.1069    0.1495    0.0000 C   0  0  0  0  0  0  0  0  0  0  0  0
    0.8511    0.9699    0.0000 C   0  0  0  0  0  0  0  0  0  0  0  0
   -0.4872    0.2925    0.0000 C   0  0  0  0  0  0  0  0  0  0  0  0
   -1.7430    1.1129    0.0000 O   0  0  0  0  0  0  0  0  0  0  0  0
   -0.5698   -1.2052    0.0000 C   0  0  0  0  0  0  0  0  0  0  0  0
   -1.9045   -0.5205    0.0000 C   0  0  0  0  0  0  0  0  0  0  0  0
  2  1  1  1
  2  3  1  0
  2  4  1  0
  4  5  2  0
  4  6  1  0
  6  7  1  0
  7  8  1  0
  8  9  1  6
  8 10  1  0
 10 11  1  6
 11 12  1  0
 13 12  1  6
 13 14  1  0
 14 15  1  1
 15 16  1  1
 15 17  1  0
 18 17  1  1
 18 19  1  0
 19 20  1  0
 20 21  1  1
 20 22  1  0
 22 23  1  0
 23 24  1  0
 24 25  1  6
 24 26  1  0
 26 27  1  6
 27 28  1  0
 28 29  1  1
 28 30  1  0
 30 31  1  6
 30 10  1  0
 30 13  1  0
 26 14  1  0
 24 18  1  0
M  END
>  <MS_ID>  (2575) 
MS2662

>  <SMILES>  (2575) 
C[C@H](O)C(=O)CC[C@@H](C)[C@H]1CC[C@H]2[C@@H]3[C@H](O)C[C@@H]4C[C@H](O)CC[C@]4(C)[C@H]3C[C@H](O)[C@]12C

>  <Structure_dimension>  (2575) 
2D

$$$$
MS2663
     RDKit          2D

 40 44  0  0  0  0  0  0  0  0999 V2000
   -0.7701   -5.4130    0.0000 C   0  0  0  0  0  0  0  0  0  0  0  0
   -0.3994   -3.9595    0.0000 C   0  0  0  0  0  0  0  0  0  0  0  0
   -1.4728   -2.9117    0.0000 C   0  0  0  0  0  0  0  0  0  0  0  0
   -2.9169   -3.3174    0.0000 C   0  0  0  0  0  0  0  0  0  0  0  0
   -3.9902   -2.2696    0.0000 C   0  0  0  0  0  0  0  0  0  0  0  0
   -3.6195   -0.8161    0.0000 O   0  0  0  0  0  0  0  0  0  0  0  0
   -5.4343   -2.6753    0.0000 O   0  0  0  0  0  0  0  0  0  0  0  0
    1.0447   -3.5539    0.0000 C   0  0  0  0  0  0  0  0  0  0  0  0
    2.2217   -4.4837    0.0000 C   0  0  0  0  0  0  0  0  0  0  0  0
    3.4698   -3.6517    0.0000 C   0  0  0  0  0  0  0  0  0  0  0  0
    3.0641   -2.2076    0.0000 C   0  0  0  0  0  0  0  0  0  0  0  0
    3.8659   -0.9398    0.0000 C   0  0  0  0  0  0  0  0  0  0  0  0
    5.3646   -1.0002    0.0000 C   0  0  0  0  0  0  0  0  0  0  0  0
    6.0617   -2.3284    0.0000 O   0  0  0  0  0  0  0  0  0  0  0  0
    6.1664    0.2675    0.0000 C   0  0  0  0  0  0  0  0  0  0  0  0
    5.4693    1.5957    0.0000 C   0  0  0  0  0  0  0  0  0  0  0  0
    6.2711    2.8635    0.0000 C   0  0  0  0  0  0  0  0  0  0  0  0
    5.5740    4.1917    0.0000 C   0  0  0  0  0  0  0  0  0  0  0  0
    6.3757    5.4595    0.0000 O   0  0  0  0  0  0  0  0  0  0  0  0
    4.0752    4.2521    0.0000 C   0  0  0  0  0  0  0  0  0  0  0  0
    3.2735    2.9844    0.0000 C   0  0  0  0  0  0  0  0  0  0  0  0
    3.9705    1.6562    0.0000 C   0  0  0  0  0  0  0  0  0  0  0  0
    2.4718    1.7166    0.0000 C   0  0  0  0  0  0  0  0  0  0  0  0
    3.1688    0.3884    0.0000 C   0  0  0  0  0  0  0  0  0  0  0  0
    1.6700    0.4489    0.0000 C   0  0  0  0  0  0  0  0  0  0  0  0
    0.8683   -0.8189    0.0000 C   0  0  0  0  0  0  0  0  0  0  0  0
   -0.6305   -0.7585    0.0000 O   0  0  0  0  0  0  0  0  0  0  0  0
   -1.3275    0.5697    0.0000 C   0  0  0  0  0  0  0  0  0  0  0  0
   -0.5258    1.8375    0.0000 O   0  0  0  0  0  0  0  0  0  0  0  0
   -2.8263    0.6302    0.0000 C   0  0  0  0  0  0  0  0  0  0  0  0
   -3.5234    1.9584    0.0000 C   0  0  0  0  0  0  0  0  0  0  0  0
   -5.0222    2.0188    0.0000 C   0  0  0  0  0  0  0  0  0  0  0  0
   -5.7192    3.3470    0.0000 C   0  0  0  0  0  0  0  0  0  0  0  0
   -7.2180    3.4075    0.0000 C   0  0  0  0  0  0  0  0  0  0  0  0
   -8.0197    2.1397    0.0000 C   0  0  0  0  0  0  0  0  0  0  0  0
   -9.5185    2.2001    0.0000 O   0  0  0  0  0  0  0  0  0  0  0  0
   -7.3227    0.8115    0.0000 C   0  0  0  0  0  0  0  0  0  0  0  0
   -5.8239    0.7511    0.0000 C   0  0  0  0  0  0  0  0  0  0  0  0
    1.5653   -2.1471    0.0000 C   0  0  0  0  0  0  0  0  0  0  0  0
    0.0684   -2.2437    0.0000 C   0  0  0  0  0  0  0  0  0  0  0  0
  2  1  1  6
  2  3  1  0
  3  4  1  0
  4  5  1  0
  5  6  2  0
  5  7  1  0
  2  8  1  0
  8  9  1  6
  9 10  1  0
 11 10  1  6
 11 12  1  0
 12 13  1  1
 13 14  1  1
 13 15  1  0
 16 15  1  1
 16 17  1  0
 17 18  1  0
 18 19  1  1
 18 20  1  0
 20 21  1  0
 21 22  1  0
 22 23  1  6
 22 24  1  0
 24 25  1  6
 25 26  1  0
 26 27  1  1
 27 28  1  0
 28 29  2  0
 28 30  1  0
 30 31  2  0
 31 32  1  0
 32 33  2  0
 33 34  1  0
 34 35  2  0
 35 36  1  0
 35 37  1  0
 37 38  2  0
 26 39  1  0
 39 40  1  6
 39  8  1  0
 39 11  1  0
 24 12  1  0
 38 32  1  0
 22 16  1  0
M  END
>  <MS_ID>  (2576) 
MS2663

>  <SMILES>  (2576) 
C[C@H](CCC(=O)O)[C@H]1CC[C@H]2[C@@H]3[C@H](O)C[C@@H]4C[C@H](O)CC[C@]4(C)[C@H]3C[C@H](OC(=O)/C=C/c3ccc(O)cc3)[C@]12C

>  <Structure_dimension>  (2576) 
2D

$$$$
MS2664
     RDKit          2D

 33 36  0  0  0  0  0  0  0  0999 V2000
   -3.0978   -3.6919    0.0000 C   0  0  0  0  0  0  0  0  0  0  0  0
   -2.2201   -2.4755    0.0000 C   0  0  0  0  0  0  0  0  0  0  0  0
   -2.8347   -1.1072    0.0000 C   0  0  0  0  0  0  0  0  0  0  0  0
   -4.3270   -0.9552    0.0000 C   0  0  0  0  0  0  0  0  0  0  0  0
   -4.9416    0.4131    0.0000 C   0  0  0  0  0  0  0  0  0  0  0  0
   -4.0639    1.6295    0.0000 O   0  0  0  0  0  0  0  0  0  0  0  0
   -6.4339    0.5650    0.0000 O   0  0  0  0  0  0  0  0  0  0  0  0
   -7.0484    1.9333    0.0000 C   0  0  0  0  0  0  0  0  0  0  0  0
   -8.5407    2.0852    0.0000 C   0  0  0  0  0  0  0  0  0  0  0  0
   -9.4184    0.8688    0.0000 O   0  0  0  0  0  0  0  0  0  0  0  0
   -9.1553    3.4535    0.0000 O   0  0  0  0  0  0  0  0  0  0  0  0
   -0.7278   -2.6274    0.0000 C   0  0  0  0  0  0  0  0  0  0  0  0
    0.0264   -3.9240    0.0000 C   0  0  0  0  0  0  0  0  0  0  0  0
    1.4926   -3.6073    0.0000 C   0  0  0  0  0  0  0  0  0  0  0  0
    1.6445   -2.1150    0.0000 C   0  0  0  0  0  0  0  0  0  0  0  0
    2.8552   -1.2294    0.0000 C   0  0  0  0  0  0  0  0  0  0  0  0
    4.2275   -1.8350    0.0000 C   0  0  0  0  0  0  0  0  0  0  0  0
    4.3891   -3.3263    0.0000 O   0  0  0  0  0  0  0  0  0  0  0  0
    5.4381   -0.9494    0.0000 C   0  0  0  0  0  0  0  0  0  0  0  0
    5.2764    0.5419    0.0000 C   0  0  0  0  0  0  0  0  0  0  0  0
    6.4871    1.4275    0.0000 C   0  0  0  0  0  0  0  0  0  0  0  0
    6.3254    2.9188    0.0000 C   0  0  0  0  0  0  0  0  0  0  0  0
    7.5360    3.8044    0.0000 O   0  0  0  0  0  0  0  0  0  0  0  0
    4.9531    3.5244    0.0000 C   0  0  0  0  0  0  0  0  0  0  0  0
    3.7425    2.6388    0.0000 C   0  0  0  0  0  0  0  0  0  0  0  0
    3.9041    1.1475    0.0000 C   0  0  0  0  0  0  0  0  0  0  0  0
    2.5318    1.7531    0.0000 C   0  0  0  0  0  0  0  0  0  0  0  0
    2.6935    0.2619    0.0000 C   0  0  0  0  0  0  0  0  0  0  0  0
    1.3212    0.8675    0.0000 C   0  0  0  0  0  0  0  0  0  0  0  0
    0.1105   -0.0181    0.0000 C   0  0  0  0  0  0  0  0  0  0  0  0
   -1.2618    0.5875    0.0000 O   0  0  0  0  0  0  0  0  0  0  0  0
    0.2722   -1.5094    0.0000 C   0  0  0  0  0  0  0  0  0  0  0  0
   -1.1559   -1.0505    0.0000 C   0  0  0  0  0  0  0  0  0  0  0  0
  2  1  1  6
  2  3  1  0
  3  4  1  0
  4  5  1  0
  5  6  2  0
  5  7  1  0
  7  8  1  0
  8  9  1  0
  9 10  2  0
  9 11  1  0
  2 12  1  0
 12 13  1  6
 13 14  1  0
 15 14  1  6
 15 16  1  0
 16 17  1  1
 17 18  1  6
 17 19  1  0
 20 19  1  1
 20 21  1  0
 21 22  1  0
 22 23  2  0
 22 24  1  0
 24 25  1  0
 25 26  1  0
 26 27  1  6
 26 28  1  0
 28 29  1  6
 29 30  1  0
 30 31  1  1
 30 32  1  0
 32 33  1  6
 32 12  1  0
 32 15  1  0
 28 16  1  0
 26 20  1  0
M  END
>  <MS_ID>  (2577) 
MS2664

>  <SMILES>  (2577) 
C[C@H](CCC(=O)OCC(=O)O)[C@H]1CC[C@H]2[C@@H]3[C@@H](O)C[C@@H]4CC(=O)CC[C@]4(C)[C@H]3C[C@H](O)[C@]12C

>  <Structure_dimension>  (2577) 
2D

$$$$
MS2665
     RDKit          2D

 30 33  0  0  0  0  0  0  0  0999 V2000
   -5.1126   -2.2702    0.0000 C   0  0  0  0  0  0  0  0  0  0  0  0
   -4.0463   -1.2153    0.0000 C   0  0  0  0  0  0  0  0  0  0  0  0
   -4.4268    0.2357    0.0000 C   0  0  0  0  0  0  0  0  0  0  0  0
   -5.8736    0.6316    0.0000 C   0  0  0  0  0  0  0  0  0  0  0  0
   -6.2540    2.0826    0.0000 C   0  0  0  0  0  0  0  0  0  0  0  0
   -5.1877    3.1376    0.0000 O   0  0  0  0  0  0  0  0  0  0  0  0
   -7.7008    2.4786    0.0000 O   0  0  0  0  0  0  0  0  0  0  0  0
   -2.5995   -1.6113    0.0000 C   0  0  0  0  0  0  0  0  0  0  0  0
   -2.0695   -3.0145    0.0000 C   0  0  0  0  0  0  0  0  0  0  0  0
   -0.5711   -2.9440    0.0000 C   0  0  0  0  0  0  0  0  0  0  0  0
   -0.1751   -1.4972    0.0000 C   0  0  0  0  0  0  0  0  0  0  0  0
    1.1650   -0.8234    0.0000 C   0  0  0  0  0  0  0  0  0  0  0  0
    2.4186   -1.6471    0.0000 C   0  0  0  0  0  0  0  0  0  0  0  0
    2.3321   -3.1446    0.0000 C   0  0  0  0  0  0  0  0  0  0  0  0
    3.5857   -3.9682    0.0000 C   0  0  0  0  0  0  0  0  0  0  0  0
    3.4992   -5.4657    0.0000 O   0  0  0  0  0  0  0  0  0  0  0  0
    3.7587   -0.9732    0.0000 C   0  0  0  0  0  0  0  0  0  0  0  0
    3.8453    0.5243    0.0000 C   0  0  0  0  0  0  0  0  0  0  0  0
    5.1854    1.1981    0.0000 C   0  0  0  0  0  0  0  0  0  0  0  0
    5.2719    2.6956    0.0000 C   0  0  0  0  0  0  0  0  0  0  0  0
    6.6121    3.3694    0.0000 O   0  0  0  0  0  0  0  0  0  0  0  0
    4.0183    3.5193    0.0000 C   0  0  0  0  0  0  0  0  0  0  0  0
    2.6782    2.8454    0.0000 C   0  0  0  0  0  0  0  0  0  0  0  0
    2.5917    1.3479    0.0000 C   0  0  0  0  0  0  0  0  0  0  0  0
    1.3380    2.1716    0.0000 C   0  0  0  0  0  0  0  0  0  0  0  0
    1.2515    0.6741    0.0000 C   0  0  0  0  0  0  0  0  0  0  0  0
   -0.0021    1.4978    0.0000 C   0  0  0  0  0  0  0  0  0  0  0  0
   -1.3422    0.8240    0.0000 C   0  0  0  0  0  0  0  0  0  0  0  0
   -1.4288   -0.6735    0.0000 C   0  0  0  0  0  0  0  0  0  0  0  0
   -2.7616    0.0146    0.0000 C   0  0  0  0  0  0  0  0  0  0  0  0
  2  1  1  6
  2  3  1  0
  3  4  1  0
  4  5  1  0
  5  6  2  0
  5  7  1  0
  2  8  1  0
  8  9  1  6
  9 10  1  0
 11 10  1  6
 11 12  1  0
 12 13  1  1
 13 14  1  6
 14 15  1  0
 15 16  1  0
 13 17  1  0
 18 17  1  1
 18 19  1  0
 19 20  1  0
 20 21  1  6
 20 22  1  0
 22 23  1  0
 23 24  1  0
 24 25  1  6
 24 26  1  0
 26 27  1  6
 27 28  1  0
 28 29  1  0
 29 30  1  6
 29  8  1  0
 29 11  1  0
 26 12  1  0
 24 18  1  0
M  END
>  <MS_ID>  (2578) 
MS2665

>  <SMILES>  (2578) 
C[C@H](CCC(=O)O)[C@H]1CC[C@H]2[C@@H]3[C@@H](CCO)C[C@@H]4C[C@@H](O)CC[C@]4(C)[C@H]3CC[C@]12C

>  <Structure_dimension>  (2578) 
2D

$$$$
MS2666
     RDKit          2D

 31 34  0  0  0  0  0  0  0  0999 V2000
   -3.5119   -3.5779    0.0000 C   0  0  0  0  0  0  0  0  0  0  0  0
   -2.6109   -2.3787    0.0000 C   0  0  0  0  0  0  0  0  0  0  0  0
   -3.1991   -0.9988    0.0000 C   0  0  0  0  0  0  0  0  0  0  0  0
   -4.6881   -0.8181    0.0000 C   0  0  0  0  0  0  0  0  0  0  0  0
   -5.2762    0.5618    0.0000 C   0  0  0  0  0  0  0  0  0  0  0  0
   -4.3753    1.7610    0.0000 O   0  0  0  0  0  0  0  0  0  0  0  0
   -6.7653    0.7424    0.0000 C   0  0  0  0  0  0  0  0  0  0  0  0
   -7.3534    2.1223    0.0000 C   0  0  0  0  0  0  0  0  0  0  0  0
   -8.8425    2.3029    0.0000 O   0  0  0  0  0  0  0  0  0  0  0  0
   -9.4306    3.6828    0.0000 N   0  0  0  0  0  0  0  0  0  0  0  0
   -1.1219   -2.5593    0.0000 C   0  0  0  0  0  0  0  0  0  0  0  0
   -0.3927   -3.8702    0.0000 C   0  0  0  0  0  0  0  0  0  0  0  0
    1.0793   -3.5818    0.0000 C   0  0  0  0  0  0  0  0  0  0  0  0
    1.2599   -2.0927    0.0000 C   0  0  0  0  0  0  0  0  0  0  0  0
    2.4874   -1.2306    0.0000 C   0  0  0  0  0  0  0  0  0  0  0  0
    3.8478   -1.8625    0.0000 C   0  0  0  0  0  0  0  0  0  0  0  0
    3.9807   -3.3566    0.0000 O   0  0  0  0  0  0  0  0  0  0  0  0
    5.0753   -1.0003    0.0000 C   0  0  0  0  0  0  0  0  0  0  0  0
    4.9423    0.4938    0.0000 C   0  0  0  0  0  0  0  0  0  0  0  0
    6.1698    1.3559    0.0000 C   0  0  0  0  0  0  0  0  0  0  0  0
    6.0369    2.8500    0.0000 C   0  0  0  0  0  0  0  0  0  0  0  0
    7.2644    3.7122    0.0000 O   0  0  0  0  0  0  0  0  0  0  0  0
    4.6765    3.4820    0.0000 C   0  0  0  0  0  0  0  0  0  0  0  0
    3.4490    2.6198    0.0000 C   0  0  0  0  0  0  0  0  0  0  0  0
    3.5820    1.1257    0.0000 C   0  0  0  0  0  0  0  0  0  0  0  0
    2.2216    1.7576    0.0000 C   0  0  0  0  0  0  0  0  0  0  0  0
    2.3545    0.2635    0.0000 C   0  0  0  0  0  0  0  0  0  0  0  0
    0.9941    0.8955    0.0000 C   0  0  0  0  0  0  0  0  0  0  0  0
   -0.2334    0.0333    0.0000 C   0  0  0  0  0  0  0  0  0  0  0  0
   -0.1005   -1.4608    0.0000 C   0  0  0  0  0  0  0  0  0  0  0  0
   -1.5195   -0.9745    0.0000 C   0  0  0  0  0  0  0  0  0  0  0  0
  2  1  1  6
  2  3  1  0
  3  4  1  0
  4  5  1  0
  5  6  2  0
  5  7  1  0
  7  8  1  0
  8  9  1  0
  9 10  1  0
  2 11  1  0
 11 12  1  6
 12 13  1  0
 14 13  1  6
 14 15  1  0
 15 16  1  1
 16 17  1  6
 16 18  1  0
 19 18  1  1
 19 20  1  0
 20 21  1  0
 21 22  1  1
 21 23  1  0
 23 24  1  0
 24 25  1  0
 25 26  1  6
 25 27  1  0
 27 28  1  6
 28 29  1  0
 29 30  1  0
 30 31  1  6
 30 11  1  0
 30 14  1  0
 27 15  1  0
 25 19  1  0
M  END
>  <MS_ID>  (2579) 
MS2666

>  <SMILES>  (2579) 
C[C@H](CCC(=O)CCON)[C@H]1CC[C@H]2[C@@H]3[C@@H](O)C[C@@H]4C[C@H](O)CC[C@]4(C)[C@H]3CC[C@]12C

>  <Structure_dimension>  (2579) 
2D

$$$$
MS2667
     RDKit          2D

 27 30  0  0  0  0  0  0  0  0999 V2000
   -5.1023   -2.0364    0.0000 C   0  0  0  0  0  0  0  0  0  0  0  0
   -3.8978   -1.1425    0.0000 C   0  0  0  0  0  0  0  0  0  0  0  0
   -4.0697    0.3476    0.0000 C   0  0  0  0  0  0  0  0  0  0  0  0
   -5.4461    0.9438    0.0000 C   0  0  0  0  0  0  0  0  0  0  0  0
   -5.6180    2.4339    0.0000 C   0  0  0  0  0  0  0  0  0  0  0  0
   -6.9944    3.0301    0.0000 O   0  0  0  0  0  0  0  0  0  0  0  0
   -4.4135    3.3278    0.0000 F   0  0  0  0  0  0  0  0  0  0  0  0
   -2.5213   -1.7387    0.0000 C   0  0  0  0  0  0  0  0  0  0  0  0
   -2.1946   -3.2027    0.0000 C   0  0  0  0  0  0  0  0  0  0  0  0
   -0.7013   -3.3444    0.0000 C   0  0  0  0  0  0  0  0  0  0  0  0
   -0.1051   -1.9679    0.0000 C   0  0  0  0  0  0  0  0  0  0  0  0
    1.3167   -1.4900    0.0000 C   0  0  0  0  0  0  0  0  0  0  0  0
    2.4415   -2.4823    0.0000 C   0  0  0  0  0  0  0  0  0  0  0  0
    3.8633   -2.0044    0.0000 C   0  0  0  0  0  0  0  0  0  0  0  0
    4.1603   -0.5341    0.0000 C   0  0  0  0  0  0  0  0  0  0  0  0
    5.5821   -0.0561    0.0000 C   0  0  0  0  0  0  0  0  0  0  0  0
    5.8791    1.4142    0.0000 C   0  0  0  0  0  0  0  0  0  0  0  0
    7.3009    1.8921    0.0000 O   0  0  0  0  0  0  0  0  0  0  0  0
    4.7543    2.4065    0.0000 C   0  0  0  0  0  0  0  0  0  0  0  0
    3.3325    1.9286    0.0000 C   0  0  0  0  0  0  0  0  0  0  0  0
    3.0355    0.4583    0.0000 C   0  0  0  0  0  0  0  0  0  0  0  0
    1.9107    1.4506    0.0000 C   0  0  0  0  0  0  0  0  0  0  0  0
    1.6137   -0.0197    0.0000 C   0  0  0  0  0  0  0  0  0  0  0  0
    0.4888    0.9727    0.0000 C   0  0  0  0  0  0  0  0  0  0  0  0
   -0.9330    0.4947    0.0000 C   0  0  0  0  0  0  0  0  0  0  0  0
   -1.2300   -0.9756    0.0000 C   0  0  0  0  0  0  0  0  0  0  0  0
   -2.4524   -0.1062    0.0000 C   0  0  0  0  0  0  0  0  0  0  0  0
  2  1  1  6
  2  3  1  0
  3  4  1  0
  4  5  1  0
  5  6  2  0
  5  7  1  0
  2  8  1  0
  8  9  1  6
  9 10  1  0
 11 10  1  6
 11 12  1  0
 12 13  1  1
 13 14  1  0
 15 14  1  1
 15 16  1  0
 16 17  1  0
 17 18  2  0
 17 19  1  0
 19 20  1  0
 20 21  1  0
 21 22  1  6
 21 23  1  0
 23 24  1  6
 24 25  1  0
 25 26  1  0
 26 27  1  6
 26  8  1  0
 26 11  1  0
 23 12  1  0
 21 15  1  0
M  END
>  <MS_ID>  (2580) 
MS2667

>  <SMILES>  (2580) 
C[C@H](CCC(=O)F)[C@H]1CC[C@H]2[C@@H]3CC[C@@H]4CC(=O)CC[C@]4(C)[C@H]3CC[C@]12C

>  <Structure_dimension>  (2580) 
2D

$$$$
MS2668
     RDKit          2D

 32 35  0  0  0  0  0  0  0  0999 V2000
   -3.3600   -3.6470    0.0000 C   0  0  0  0  0  0  0  0  0  0  0  0
   -2.4640   -2.4440    0.0000 C   0  0  0  0  0  0  0  0  0  0  0  0
   -3.0579   -1.0666    0.0000 C   0  0  0  0  0  0  0  0  0  0  0  0
   -4.5477   -0.8922    0.0000 C   0  0  0  0  0  0  0  0  0  0  0  0
   -5.1416    0.4852    0.0000 C   0  0  0  0  0  0  0  0  0  0  0  0
   -4.2456    1.6883    0.0000 O   0  0  0  0  0  0  0  0  0  0  0  0
   -6.6314    0.6596    0.0000 N   0  0  0  0  0  0  0  0  0  0  0  0
   -7.2253    2.0371    0.0000 C   0  0  0  0  0  0  0  0  0  0  0  0
   -8.6027    1.4432    0.0000 C   0  0  0  0  0  0  0  0  0  0  0  0
   -5.8479    2.6309    0.0000 C   0  0  0  0  0  0  0  0  0  0  0  0
   -7.8192    3.4145    0.0000 C   0  0  0  0  0  0  0  0  0  0  0  0
   -0.9742   -2.6184    0.0000 C   0  0  0  0  0  0  0  0  0  0  0  0
   -0.2396   -3.9262    0.0000 C   0  0  0  0  0  0  0  0  0  0  0  0
    1.2312   -3.6317    0.0000 C   0  0  0  0  0  0  0  0  0  0  0  0
    1.4056   -2.1419    0.0000 C   0  0  0  0  0  0  0  0  0  0  0  0
    2.6295   -1.2746    0.0000 C   0  0  0  0  0  0  0  0  0  0  0  0
    3.9925   -1.9008    0.0000 C   0  0  0  0  0  0  0  0  0  0  0  0
    4.1317   -3.3944    0.0000 O   0  0  0  0  0  0  0  0  0  0  0  0
    5.2163   -1.0336    0.0000 C   0  0  0  0  0  0  0  0  0  0  0  0
    5.0772    0.4600    0.0000 C   0  0  0  0  0  0  0  0  0  0  0  0
    6.3010    1.3273    0.0000 C   0  0  0  0  0  0  0  0  0  0  0  0
    6.1619    2.8208    0.0000 C   0  0  0  0  0  0  0  0  0  0  0  0
    7.3857    3.6881    0.0000 O   0  0  0  0  0  0  0  0  0  0  0  0
    4.7989    3.4470    0.0000 C   0  0  0  0  0  0  0  0  0  0  0  0
    3.5750    2.5798    0.0000 C   0  0  0  0  0  0  0  0  0  0  0  0
    3.7142    1.0862    0.0000 C   0  0  0  0  0  0  0  0  0  0  0  0
    2.3511    1.7125    0.0000 C   0  0  0  0  0  0  0  0  0  0  0  0
    2.4903    0.2189    0.0000 C   0  0  0  0  0  0  0  0  0  0  0  0
    1.1273    0.8452    0.0000 C   0  0  0  0  0  0  0  0  0  0  0  0
   -0.0966   -0.0221    0.0000 C   0  0  0  0  0  0  0  0  0  0  0  0
    0.0426   -1.5156    0.0000 C   0  0  0  0  0  0  0  0  0  0  0  0
   -1.3784   -1.0353    0.0000 C   0  0  0  0  0  0  0  0  0  0  0  0
  2  1  1  6
  2  3  1  0
  3  4  1  0
  4  5  1  0
  5  6  2  0
  5  7  1  0
  7  8  1  0
  8  9  1  0
  8 10  1  0
  8 11  1  0
  2 12  1  0
 12 13  1  6
 13 14  1  0
 15 14  1  6
 15 16  1  0
 16 17  1  1
 17 18  1  1
 17 19  1  0
 20 19  1  1
 20 21  1  0
 21 22  1  0
 22 23  1  1
 22 24  1  0
 24 25  1  0
 25 26  1  0
 26 27  1  6
 26 28  1  0
 28 29  1  6
 29 30  1  0
 30 31  1  0
 31 32  1  6
 31 12  1  0
 31 15  1  0
 28 16  1  0
 26 20  1  0
M  END
>  <MS_ID>  (2581) 
MS2668

>  <SMILES>  (2581) 
C[C@H](CCC(=O)NC(C)(C)C)[C@H]1CC[C@H]2[C@@H]3[C@H](O)C[C@@H]4C[C@H](O)CC[C@]4(C)[C@H]3CC[C@]12C

>  <Structure_dimension>  (2581) 
2D

$$$$
MS2669
     RDKit          2D

 32 35  0  0  0  0  0  0  0  0999 V2000
   -3.1607   -3.8109    0.0000 C   0  0  0  0  0  0  0  0  0  0  0  0
   -2.3083   -2.5766    0.0000 C   0  0  0  0  0  0  0  0  0  0  0  0
   -2.9510   -1.2213    0.0000 C   0  0  0  0  0  0  0  0  0  0  0  0
   -4.4461   -1.1002    0.0000 C   0  0  0  0  0  0  0  0  0  0  0  0
   -5.0888    0.2551    0.0000 C   0  0  0  0  0  0  0  0  0  0  0  0
   -4.2364    1.4894    0.0000 O   0  0  0  0  0  0  0  0  0  0  0  0
   -6.5839    0.3762    0.0000 C   0  0  0  0  0  0  0  0  0  0  0  0
   -7.2266    1.7316    0.0000 C   0  0  0  0  0  0  0  0  0  0  0  0
   -6.3742    2.9658    0.0000 O   0  0  0  0  0  0  0  0  0  0  0  0
   -8.7218    1.8526    0.0000 N   0  0  0  0  0  0  0  0  0  0  0  0
   -9.3644    3.2080    0.0000 O   0  0  0  0  0  0  0  0  0  0  0  0
   -0.8132   -2.6977    0.0000 C   0  0  0  0  0  0  0  0  0  0  0  0
   -0.0324   -3.9784    0.0000 C   0  0  0  0  0  0  0  0  0  0  0  0
    1.4270   -3.6316    0.0000 C   0  0  0  0  0  0  0  0  0  0  0  0
    1.5480   -2.1364    0.0000 C   0  0  0  0  0  0  0  0  0  0  0  0
    2.7401   -1.2260    0.0000 C   0  0  0  0  0  0  0  0  0  0  0  0
    4.1246   -1.8032    0.0000 C   0  0  0  0  0  0  0  0  0  0  0  0
    4.3171   -3.2908    0.0000 O   0  0  0  0  0  0  0  0  0  0  0  0
    5.3167   -0.8927    0.0000 C   0  0  0  0  0  0  0  0  0  0  0  0
    5.1243    0.5949    0.0000 C   0  0  0  0  0  0  0  0  0  0  0  0
    6.3164    1.5053    0.0000 C   0  0  0  0  0  0  0  0  0  0  0  0
    6.1240    2.9929    0.0000 C   0  0  0  0  0  0  0  0  0  0  0  0
    7.3161    3.9034    0.0000 O   0  0  0  0  0  0  0  0  0  0  0  0
    4.7395    3.5701    0.0000 C   0  0  0  0  0  0  0  0  0  0  0  0
    3.5474    2.6597    0.0000 C   0  0  0  0  0  0  0  0  0  0  0  0
    3.7398    1.1721    0.0000 C   0  0  0  0  0  0  0  0  0  0  0  0
    2.3553    1.7492    0.0000 C   0  0  0  0  0  0  0  0  0  0  0  0
    2.5477    0.2616    0.0000 C   0  0  0  0  0  0  0  0  0  0  0  0
    1.1632    0.8388    0.0000 C   0  0  0  0  0  0  0  0  0  0  0  0
   -0.0289   -0.0717    0.0000 C   0  0  0  0  0  0  0  0  0  0  0  0
    0.1635   -1.5593    0.0000 C   0  0  0  0  0  0  0  0  0  0  0  0
   -1.2737   -1.1300    0.0000 C   0  0  0  0  0  0  0  0  0  0  0  0
  2  1  1  6
  2  3  1  0
  3  4  1  0
  4  5  1  0
  5  6  2  0
  5  7  1  0
  7  8  1  0
  8  9  2  0
  8 10  1  0
 10 11  1  0
  2 12  1  0
 12 13  1  6
 13 14  1  0
 15 14  1  6
 15 16  1  0
 16 17  1  1
 17 18  1  1
 17 19  1  0
 20 19  1  1
 20 21  1  0
 21 22  1  0
 22 23  1  1
 22 24  1  0
 24 25  1  0
 25 26  1  0
 26 27  1  6
 26 28  1  0
 28 29  1  6
 29 30  1  0
 30 31  1  0
 31 32  1  6
 31 12  1  0
 31 15  1  0
 28 16  1  0
 26 20  1  0
M  END
>  <MS_ID>  (2582) 
MS2669

>  <SMILES>  (2582) 
C[C@H](CCC(=O)CC(=O)NO)[C@H]1CC[C@H]2[C@@H]3[C@H](O)C[C@@H]4C[C@H](O)CC[C@]4(C)[C@H]3CC[C@]12C

>  <Structure_dimension>  (2582) 
2D

$$$$
MS2672
     RDKit          2D

 34 37  0  0  0  0  0  0  0  0999 V2000
   -2.7692   -3.9261    0.0000 C   0  0  0  0  0  0  0  0  0  0  0  0
   -1.9736   -2.6545    0.0000 C   0  0  0  0  0  0  0  0  0  0  0  0
   -2.6771   -1.3297    0.0000 C   0  0  0  0  0  0  0  0  0  0  0  0
   -4.1761   -1.2765    0.0000 C   0  0  0  0  0  0  0  0  0  0  0  0
   -4.8796    0.0483    0.0000 C   0  0  0  0  0  0  0  0  0  0  0  0
   -4.0841    1.3199    0.0000 O   0  0  0  0  0  0  0  0  0  0  0  0
   -6.3787    0.1014    0.0000 O   0  0  0  0  0  0  0  0  0  0  0  0
   -7.0822    1.4263    0.0000 C   0  0  0  0  0  0  0  0  0  0  0  0
   -8.5812    1.4794    0.0000 C   0  0  0  0  0  0  0  0  0  0  0  0
   -9.3768    0.2078    0.0000 O   0  0  0  0  0  0  0  0  0  0  0  0
   -9.2847    2.8042    0.0000 C   0  0  0  0  0  0  0  0  0  0  0  0
  -10.7838    2.8574    0.0000 O   0  0  0  0  0  0  0  0  0  0  0  0
   -0.4745   -2.7076    0.0000 C   0  0  0  0  0  0  0  0  0  0  0  0
    0.3636   -3.9516    0.0000 C   0  0  0  0  0  0  0  0  0  0  0  0
    1.8057   -3.5390    0.0000 C   0  0  0  0  0  0  0  0  0  0  0  0
    1.8589   -2.0399    0.0000 C   0  0  0  0  0  0  0  0  0  0  0  0
    3.0084   -1.0763    0.0000 C   0  0  0  0  0  0  0  0  0  0  0  0
    4.4177   -1.5901    0.0000 C   0  0  0  0  0  0  0  0  0  0  0  0
    4.6774   -3.0675    0.0000 O   0  0  0  0  0  0  0  0  0  0  0  0
    5.5673   -0.6266    0.0000 C   0  0  0  0  0  0  0  0  0  0  0  0
    6.9766   -1.1404    0.0000 O   0  0  0  0  0  0  0  0  0  0  0  0
    5.3076    0.8508    0.0000 C   0  0  0  0  0  0  0  0  0  0  0  0
    6.4572    1.8144    0.0000 C   0  0  0  0  0  0  0  0  0  0  0  0
    6.1975    3.2917    0.0000 C   0  0  0  0  0  0  0  0  0  0  0  0
    7.3471    4.2553    0.0000 O   0  0  0  0  0  0  0  0  0  0  0  0
    4.7883    3.8055    0.0000 C   0  0  0  0  0  0  0  0  0  0  0  0
    3.6387    2.8419    0.0000 C   0  0  0  0  0  0  0  0  0  0  0  0
    3.8984    1.3646    0.0000 C   0  0  0  0  0  0  0  0  0  0  0  0
    2.4891    1.8784    0.0000 C   0  0  0  0  0  0  0  0  0  0  0  0
    2.7488    0.4010    0.0000 C   0  0  0  0  0  0  0  0  0  0  0  0
    1.3395    0.9148    0.0000 C   0  0  0  0  0  0  0  0  0  0  0  0
    0.1899   -0.0488    0.0000 C   0  0  0  0  0  0  0  0  0  0  0  0
    0.4496   -1.5261    0.0000 C   0  0  0  0  0  0  0  0  0  0  0  0
   -1.0056   -1.1624    0.0000 C   0  0  0  0  0  0  0  0  0  0  0  0
  2  1  1  6
  2  3  1  0
  3  4  1  0
  4  5  1  0
  5  6  2  0
  5  7  1  0
  7  8  1  0
  8  9  1  0
  9 10  2  0
  9 11  1  0
 11 12  1  0
  2 13  1  0
 13 14  1  6
 14 15  1  0
 16 15  1  6
 16 17  1  0
 17 18  1  1
 18 19  1  1
 18 20  1  0
 20 21  1  1
 20 22  1  0
 22 23  1  1
 23 24  1  0
 24 25  1  1
 24 26  1  0
 26 27  1  0
 27 28  1  0
 28 29  1  6
 28 30  1  0
 30 31  1  6
 31 32  1  0
 32 33  1  0
 33 34  1  6
 33 13  1  0
 33 16  1  0
 30 17  1  0
 28 22  1  0
M  END
>  <MS_ID>  (2583) 
MS2672

>  <SMILES>  (2583) 
C[C@H](CCC(=O)OCC(=O)CO)[C@H]1CC[C@H]2[C@@H]3[C@H](O)[C@H](O)[C@@H]4C[C@H](O)CC[C@]4(C)[C@H]3CC[C@]12C

>  <Structure_dimension>  (2583) 
2D

$$$$
MS2673
     RDKit          2D

 35 38  0  0  0  0  0  0  0  0999 V2000
   -3.0648   -3.1071    0.0000 C   0  0  0  0  0  0  0  0  0  0  0  0
   -2.0572   -1.9959    0.0000 C   0  0  0  0  0  0  0  0  0  0  0  0
   -2.5157   -0.5677    0.0000 C   0  0  0  0  0  0  0  0  0  0  0  0
   -3.9819   -0.2508    0.0000 C   0  0  0  0  0  0  0  0  0  0  0  0
   -4.4404    1.1774    0.0000 C   0  0  0  0  0  0  0  0  0  0  0  0
   -3.4329    2.2886    0.0000 O   0  0  0  0  0  0  0  0  0  0  0  0
   -5.9066    1.4944    0.0000 C   0  0  0  0  0  0  0  0  0  0  0  0
   -5.5896    2.9605    0.0000 C   0  0  0  0  0  0  0  0  0  0  0  0
   -6.2235    0.0283    0.0000 C   0  0  0  0  0  0  0  0  0  0  0  0
   -7.3727    1.8114    0.0000 C   0  0  0  0  0  0  0  0  0  0  0  0
   -8.3803    0.7001    0.0000 N   0  0  0  0  0  0  0  0  0  0  0  0
   -9.8464    1.0171    0.0000 C   0  0  0  0  0  0  0  0  0  0  0  0
   -7.9217   -0.7281    0.0000 C   0  0  0  0  0  0  0  0  0  0  0  0
   -0.5911   -2.3129    0.0000 C   0  0  0  0  0  0  0  0  0  0  0  0
    0.0143   -3.6853    0.0000 C   0  0  0  0  0  0  0  0  0  0  0  0
    1.5066   -3.5337    0.0000 C   0  0  0  0  0  0  0  0  0  0  0  0
    1.8236   -2.0676    0.0000 C   0  0  0  0  0  0  0  0  0  0  0  0
    3.1252   -1.3221    0.0000 C   0  0  0  0  0  0  0  0  0  0  0  0
    4.4216   -2.0766    0.0000 C   0  0  0  0  0  0  0  0  0  0  0  0
    4.4164   -3.5766    0.0000 O   0  0  0  0  0  0  0  0  0  0  0  0
    5.7233   -1.3312    0.0000 C   0  0  0  0  0  0  0  0  0  0  0  0
    5.7285    0.1688    0.0000 C   0  0  0  0  0  0  0  0  0  0  0  0
    7.0301    0.9143    0.0000 C   0  0  0  0  0  0  0  0  0  0  0  0
    7.0353    2.4143    0.0000 C   0  0  0  0  0  0  0  0  0  0  0  0
    8.3370    3.1598    0.0000 O   0  0  0  0  0  0  0  0  0  0  0  0
    5.7389    3.1688    0.0000 C   0  0  0  0  0  0  0  0  0  0  0  0
    4.4373    2.4233    0.0000 C   0  0  0  0  0  0  0  0  0  0  0  0
    4.4321    0.9233    0.0000 C   0  0  0  0  0  0  0  0  0  0  0  0
    3.1356    1.6779    0.0000 C   0  0  0  0  0  0  0  0  0  0  0  0
    3.1304    0.1779    0.0000 C   0  0  0  0  0  0  0  0  0  0  0  0
    1.8340    0.9324    0.0000 C   0  0  0  0  0  0  0  0  0  0  0  0
    0.5324    0.1869    0.0000 C   0  0  0  0  0  0  0  0  0  0  0  0
   -0.7641    0.9414    0.0000 O   0  0  0  0  0  0  0  0  0  0  0  0
    0.5271   -1.3131    0.0000 C   0  0  0  0  0  0  0  0  0  0  0  0
   -0.8410   -0.6982    0.0000 C   0  0  0  0  0  0  0  0  0  0  0  0
  2  1  1  6
  2  3  1  0
  3  4  1  0
  4  5  1  0
  5  6  2  0
  5  7  1  0
  7  8  1  0
  7  9  1  0
  7 10  1  0
 10 11  1  0
 11 12  1  0
 11 13  1  0
  2 14  1  0
 14 15  1  6
 15 16  1  0
 17 16  1  6
 17 18  1  0
 18 19  1  1
 19 20  1  1
 19 21  1  0
 22 21  1  1
 22 23  1  0
 23 24  1  0
 24 25  1  1
 24 26  1  0
 26 27  1  0
 27 28  1  0
 28 29  1  6
 28 30  1  0
 30 31  1  6
 31 32  1  0
 32 33  1  1
 32 34  1  0
 34 35  1  6
 34 14  1  0
 34 17  1  0
 30 18  1  0
 28 22  1  0
M  END
>  <MS_ID>  (2584) 
MS2673

>  <SMILES>  (2584) 
C[C@H](CCC(=O)C(C)(C)CN(C)C)[C@H]1CC[C@H]2[C@@H]3[C@H](O)C[C@@H]4C[C@H](O)CC[C@]4(C)[C@H]3C[C@H](O)[C@]12C

>  <Structure_dimension>  (2584) 
2D

$$$$
MS2675
     RDKit          2D

 29 32  0  0  0  0  0  0  0  0999 V2000
   -5.0303   -2.1373    0.0000 C   0  0  0  0  0  0  0  0  0  0  0  0
   -3.8594   -1.1998    0.0000 C   0  0  0  0  0  0  0  0  0  0  0  0
   -4.0858    0.2830    0.0000 C   0  0  0  0  0  0  0  0  0  0  0  0
   -5.4831    0.8284    0.0000 C   0  0  0  0  0  0  0  0  0  0  0  0
   -5.7095    2.3112    0.0000 C   0  0  0  0  0  0  0  0  0  0  0  0
   -7.1069    2.8565    0.0000 N   0  0  0  0  0  0  0  0  0  0  0  0
   -4.5386    3.2487    0.0000 O   0  0  0  0  0  0  0  0  0  0  0  0
   -2.4620   -1.7451    0.0000 C   0  0  0  0  0  0  0  0  0  0  0  0
   -2.0818   -3.1961    0.0000 C   0  0  0  0  0  0  0  0  0  0  0  0
   -0.5844   -3.2830    0.0000 C   0  0  0  0  0  0  0  0  0  0  0  0
   -0.0390   -1.8856    0.0000 C   0  0  0  0  0  0  0  0  0  0  0  0
    1.3643   -1.3559    0.0000 C   0  0  0  0  0  0  0  0  0  0  0  0
    2.5248   -2.3063    0.0000 C   0  0  0  0  0  0  0  0  0  0  0  0
    2.2819   -3.7865    0.0000 O   0  0  0  0  0  0  0  0  0  0  0  0
    3.9281   -1.7765    0.0000 C   0  0  0  0  0  0  0  0  0  0  0  0
    4.1710   -0.2963    0.0000 C   0  0  0  0  0  0  0  0  0  0  0  0
    5.5743    0.2334    0.0000 C   0  0  0  0  0  0  0  0  0  0  0  0
    5.8172    1.7136    0.0000 C   0  0  0  0  0  0  0  0  0  0  0  0
    7.2205    2.2434    0.0000 O   0  0  0  0  0  0  0  0  0  0  0  0
    4.6568    2.6641    0.0000 C   0  0  0  0  0  0  0  0  0  0  0  0
    3.2534    2.1343    0.0000 C   0  0  0  0  0  0  0  0  0  0  0  0
    3.0105    0.6541    0.0000 C   0  0  0  0  0  0  0  0  0  0  0  0
    1.8501    1.6046    0.0000 C   0  0  0  0  0  0  0  0  0  0  0  0
    1.6072    0.1244    0.0000 C   0  0  0  0  0  0  0  0  0  0  0  0
    0.4467    1.0748    0.0000 C   0  0  0  0  0  0  0  0  0  0  0  0
   -0.9566    0.5450    0.0000 C   0  0  0  0  0  0  0  0  0  0  0  0
   -2.1170    1.4955    0.0000 O   0  0  0  0  0  0  0  0  0  0  0  0
   -1.1995   -0.9352    0.0000 C   0  0  0  0  0  0  0  0  0  0  0  0
   -2.4529   -0.1112    0.0000 C   0  0  0  0  0  0  0  0  0  0  0  0
  2  1  1  6
  2  3  1  0
  3  4  1  0
  4  5  1  0
  5  6  1  0
  5  7  2  0
  2  8  1  0
  8  9  1  6
  9 10  1  0
 11 10  1  6
 11 12  1  0
 12 13  1  1
 13 14  1  6
 13 15  1  0
 16 15  1  1
 16 17  1  0
 17 18  1  0
 18 19  1  1
 18 20  1  0
 20 21  1  0
 21 22  1  0
 22 23  1  6
 22 24  1  0
 24 25  1  6
 25 26  1  0
 26 27  1  1
 26 28  1  0
 28 29  1  6
 28  8  1  0
 28 11  1  0
 24 12  1  0
 22 16  1  0
M  END
>  <MS_ID>  (2585) 
MS2675

>  <SMILES>  (2585) 
C[C@H](CCC(N)=O)[C@H]1CC[C@H]2[C@@H]3[C@@H](O)C[C@@H]4C[C@H](O)CC[C@]4(C)[C@H]3C[C@H](O)[C@]12C

>  <Structure_dimension>  (2585) 
2D

$$$$
MS2676
     RDKit          2D

 39 43  0  0  0  0  0  0  0  0999 V2000
   -0.2777   -4.7875    0.0000 C   0  0  0  0  0  0  0  0  0  0  0  0
    0.2429   -3.3807    0.0000 C   0  0  0  0  0  0  0  0  0  0  0  0
   -0.7151   -2.2265    0.0000 C   0  0  0  0  0  0  0  0  0  0  0  0
   -2.1937   -2.4791    0.0000 C   0  0  0  0  0  0  0  0  0  0  0  0
   -3.1518   -1.3249    0.0000 C   0  0  0  0  0  0  0  0  0  0  0  0
   -2.6312    0.0819    0.0000 O   0  0  0  0  0  0  0  0  0  0  0  0
   -4.6303   -1.5774    0.0000 C   0  0  0  0  0  0  0  0  0  0  0  0
   -5.5884   -0.4232    0.0000 O   0  0  0  0  0  0  0  0  0  0  0  0
   -7.0670   -0.6758    0.0000 C   0  0  0  0  0  0  0  0  0  0  0  0
   -7.5875   -2.0826    0.0000 O   0  0  0  0  0  0  0  0  0  0  0  0
   -8.0250    0.4784    0.0000 C   0  0  0  0  0  0  0  0  0  0  0  0
   -7.5044    1.8852    0.0000 C   0  0  0  0  0  0  0  0  0  0  0  0
   -8.4625    3.0394    0.0000 C   0  0  0  0  0  0  0  0  0  0  0  0
   -9.9410    2.7868    0.0000 C   0  0  0  0  0  0  0  0  0  0  0  0
  -10.8991    3.9410    0.0000 O   0  0  0  0  0  0  0  0  0  0  0  0
  -10.4616    1.3800    0.0000 C   0  0  0  0  0  0  0  0  0  0  0  0
   -9.5036    0.2258    0.0000 C   0  0  0  0  0  0  0  0  0  0  0  0
    1.7215   -3.1281    0.0000 C   0  0  0  0  0  0  0  0  0  0  0  0
    2.7949   -4.1758    0.0000 C   0  0  0  0  0  0  0  0  0  0  0  0
    4.1231   -3.4787    0.0000 C   0  0  0  0  0  0  0  0  0  0  0  0
    3.8705   -2.0001    0.0000 C   0  0  0  0  0  0  0  0  0  0  0  0
    4.8003   -0.8231    0.0000 C   0  0  0  0  0  0  0  0  0  0  0  0
    6.2845   -1.0398    0.0000 C   0  0  0  0  0  0  0  0  0  0  0  0
    6.8390   -2.4335    0.0000 O   0  0  0  0  0  0  0  0  0  0  0  0
    7.2143    0.1373    0.0000 C   0  0  0  0  0  0  0  0  0  0  0  0
    6.6599    1.5311    0.0000 C   0  0  0  0  0  0  0  0  0  0  0  0
    7.5897    2.7081    0.0000 C   0  0  0  0  0  0  0  0  0  0  0  0
    7.0352    4.1019    0.0000 C   0  0  0  0  0  0  0  0  0  0  0  0
    7.9650    5.2789    0.0000 O   0  0  0  0  0  0  0  0  0  0  0  0
    5.5509    4.3186    0.0000 C   0  0  0  0  0  0  0  0  0  0  0  0
    4.6211    3.1415    0.0000 C   0  0  0  0  0  0  0  0  0  0  0  0
    5.1756    1.7477    0.0000 C   0  0  0  0  0  0  0  0  0  0  0  0
    3.6913    1.9644    0.0000 C   0  0  0  0  0  0  0  0  0  0  0  0
    4.2458    0.5707    0.0000 C   0  0  0  0  0  0  0  0  0  0  0  0
    2.7615    0.7874    0.0000 C   0  0  0  0  0  0  0  0  0  0  0  0
    1.8317   -0.3897    0.0000 C   0  0  0  0  0  0  0  0  0  0  0  0
    0.3475   -0.1730    0.0000 O   0  0  0  0  0  0  0  0  0  0  0  0
    2.3862   -1.7835    0.0000 C   0  0  0  0  0  0  0  0  0  0  0  0
    0.8874   -1.7231    0.0000 C   0  0  0  0  0  0  0  0  0  0  0  0
  2  1  1  6
  2  3  1  0
  3  4  1  0
  4  5  1  0
  5  6  2  0
  5  7  1  0
  7  8  1  0
  8  9  1  0
  9 10  2  0
  9 11  1  0
 11 12  2  0
 12 13  1  0
 13 14  2  0
 14 15  1  0
 14 16  1  0
 16 17  2  0
  2 18  1  0
 18 19  1  6
 19 20  1  0
 21 20  1  6
 21 22  1  0
 22 23  1  1
 23 24  1  1
 23 25  1  0
 26 25  1  1
 26 27  1  0
 27 28  1  0
 28 29  1  1
 28 30  1  0
 30 31  1  0
 31 32  1  0
 32 33  1  6
 32 34  1  0
 34 35  1  6
 35 36  1  0
 36 37  1  1
 36 38  1  0
 38 39  1  6
 17 11  1  0
 38 18  1  0
 38 21  1  0
 34 22  1  0
 32 26  1  0
M  END
>  <MS_ID>  (2586) 
MS2676

>  <SMILES>  (2586) 
C[C@H](CCC(=O)COC(=O)c1ccc(O)cc1)[C@H]1CC[C@H]2[C@@H]3[C@H](O)C[C@@H]4C[C@H](O)CC[C@]4(C)[C@H]3C[C@H](O)[C@]12C

>  <Structure_dimension>  (2586) 
2D

$$$$
MS2677
     RDKit          2D

 36 40  0  0  0  0  0  0  0  0999 V2000
   -1.4753   -4.0971    0.0000 C   0  0  0  0  0  0  0  0  0  0  0  0
   -0.7153   -2.8039    0.0000 C   0  0  0  0  0  0  0  0  0  0  0  0
   -1.4552   -1.4991    0.0000 C   0  0  0  0  0  0  0  0  0  0  0  0
   -2.9552   -1.4875    0.0000 C   0  0  0  0  0  0  0  0  0  0  0  0
   -3.6951   -0.1827    0.0000 C   0  0  0  0  0  0  0  0  0  0  0  0
   -2.9351    1.1105    0.0000 O   0  0  0  0  0  0  0  0  0  0  0  0
   -5.1951   -0.1712    0.0000 N   0  0  0  0  0  0  0  0  0  0  0  0
   -5.9351    1.1336    0.0000 C   0  0  0  0  0  0  0  0  0  0  0  0
   -7.4350    1.1452    0.0000 C   0  0  0  0  0  0  0  0  0  0  0  0
   -8.1750    2.4500    0.0000 C   0  0  0  0  0  0  0  0  0  0  0  0
   -9.6749    2.4615    0.0000 C   0  0  0  0  0  0  0  0  0  0  0  0
  -10.4349    1.1683    0.0000 C   0  0  0  0  0  0  0  0  0  0  0  0
  -11.9349    1.1799    0.0000 F   0  0  0  0  0  0  0  0  0  0  0  0
   -9.6950   -0.1365    0.0000 C   0  0  0  0  0  0  0  0  0  0  0  0
   -8.1950   -0.1480    0.0000 C   0  0  0  0  0  0  0  0  0  0  0  0
    0.7847   -2.8154    0.0000 C   0  0  0  0  0  0  0  0  0  0  0  0
    1.6570   -4.0357    0.0000 C   0  0  0  0  0  0  0  0  0  0  0  0
    3.0871   -3.5832    0.0000 C   0  0  0  0  0  0  0  0  0  0  0  0
    3.0987   -2.0833    0.0000 C   0  0  0  0  0  0  0  0  0  0  0  0
    4.2211   -1.0882    0.0000 C   0  0  0  0  0  0  0  0  0  0  0  0
    5.6441   -1.5627    0.0000 C   0  0  0  0  0  0  0  0  0  0  0  0
    5.9446   -3.0323    0.0000 O   0  0  0  0  0  0  0  0  0  0  0  0
    6.7665   -0.5677    0.0000 C   0  0  0  0  0  0  0  0  0  0  0  0
    6.4659    0.9019    0.0000 C   0  0  0  0  0  0  0  0  0  0  0  0
    7.5884    1.8970    0.0000 C   0  0  0  0  0  0  0  0  0  0  0  0
    7.2878    3.3666    0.0000 C   0  0  0  0  0  0  0  0  0  0  0  0
    8.4103    4.3616    0.0000 O   0  0  0  0  0  0  0  0  0  0  0  0
    5.8649    3.8411    0.0000 C   0  0  0  0  0  0  0  0  0  0  0  0
    4.7424    2.8460    0.0000 C   0  0  0  0  0  0  0  0  0  0  0  0
    5.0430    1.3764    0.0000 C   0  0  0  0  0  0  0  0  0  0  0  0
    3.6200    1.8510    0.0000 C   0  0  0  0  0  0  0  0  0  0  0  0
    3.9205    0.3814    0.0000 C   0  0  0  0  0  0  0  0  0  0  0  0
    2.4976    0.8559    0.0000 C   0  0  0  0  0  0  0  0  0  0  0  0
    1.3752   -0.1392    0.0000 C   0  0  0  0  0  0  0  0  0  0  0  0
    1.6757   -1.6088    0.0000 C   0  0  0  0  0  0  0  0  0  0  0  0
    0.2109   -1.2856    0.0000 C   0  0  0  0  0  0  0  0  0  0  0  0
  2  1  1  6
  2  3  1  0
  3  4  1  0
  4  5  1  0
  5  6  2  0
  5  7  1  0
  7  8  1  0
  8  9  1  0
  9 10  2  0
 10 11  1  0
 11 12  2  0
 12 13  1  0
 12 14  1  0
 14 15  2  0
  2 16  1  0
 16 17  1  6
 17 18  1  0
 19 18  1  6
 19 20  1  0
 20 21  1  1
 21 22  1  1
 21 23  1  0
 24 23  1  1
 24 25  1  0
 25 26  1  0
 26 27  1  1
 26 28  1  0
 28 29  1  0
 29 30  1  0
 30 31  1  6
 30 32  1  0
 32 33  1  6
 33 34  1  0
 34 35  1  0
 35 36  1  6
 15  9  1  0
 35 16  1  0
 35 19  1  0
 32 20  1  0
 30 24  1  0
M  END
>  <MS_ID>  (2587) 
MS2677

>  <SMILES>  (2587) 
C[C@H](CCC(=O)NCc1ccc(F)cc1)[C@H]1CC[C@H]2[C@@H]3[C@H](O)C[C@@H]4C[C@H](O)CC[C@]4(C)[C@H]3CC[C@]12C

>  <Structure_dimension>  (2587) 
2D

$$$$
MS2678
     RDKit          2D

 29 32  0  0  0  0  0  0  0  0999 V2000
   -3.9002   -2.8919    0.0000 C   0  0  0  0  0  0  0  0  0  0  0  0
   -2.8960   -1.7777    0.0000 C   0  0  0  0  0  0  0  0  0  0  0  0
   -3.3589   -0.3509    0.0000 C   0  0  0  0  0  0  0  0  0  0  0  0
   -4.8260   -0.0384    0.0000 C   0  0  0  0  0  0  0  0  0  0  0  0
   -5.2889    1.3884    0.0000 C   0  0  0  0  0  0  0  0  0  0  0  0
   -4.2847    2.5027    0.0000 O   0  0  0  0  0  0  0  0  0  0  0  0
   -6.7560    1.7009    0.0000 C   0  0  0  0  0  0  0  0  0  0  0  0
   -7.7602    0.5867    0.0000 O   0  0  0  0  0  0  0  0  0  0  0  0
   -7.2189    3.1277    0.0000 O   0  0  0  0  0  0  0  0  0  0  0  0
   -1.4289   -2.0902    0.0000 C   0  0  0  0  0  0  0  0  0  0  0  0
   -0.8194   -3.4608    0.0000 C   0  0  0  0  0  0  0  0  0  0  0  0
    0.6724   -3.3046    0.0000 C   0  0  0  0  0  0  0  0  0  0  0  0
    0.9849   -1.8376    0.0000 C   0  0  0  0  0  0  0  0  0  0  0  0
    2.2843   -1.0881    0.0000 C   0  0  0  0  0  0  0  0  0  0  0  0
    3.5830   -1.8387    0.0000 C   0  0  0  0  0  0  0  0  0  0  0  0
    3.5824   -3.3387    0.0000 O   0  0  0  0  0  0  0  0  0  0  0  0
    4.8824   -1.0893    0.0000 C   0  0  0  0  0  0  0  0  0  0  0  0
    4.8831    0.4107    0.0000 C   0  0  0  0  0  0  0  0  0  0  0  0
    6.1824    1.1602    0.0000 C   0  0  0  0  0  0  0  0  0  0  0  0
    6.1831    2.6602    0.0000 C   0  0  0  0  0  0  0  0  0  0  0  0
    4.8844    3.4107    0.0000 C   0  0  0  0  0  0  0  0  0  0  0  0
    3.5850    2.6613    0.0000 C   0  0  0  0  0  0  0  0  0  0  0  0
    3.5843    1.1613    0.0000 C   0  0  0  0  0  0  0  0  0  0  0  0
    2.2856    1.9119    0.0000 C   0  0  0  0  0  0  0  0  0  0  0  0
    2.2850    0.4119    0.0000 C   0  0  0  0  0  0  0  0  0  0  0  0
    0.9863    1.1624    0.0000 C   0  0  0  0  0  0  0  0  0  0  0  0
   -0.3131    0.4130    0.0000 C   0  0  0  0  0  0  0  0  0  0  0  0
   -0.3138   -1.0870    0.0000 C   0  0  0  0  0  0  0  0  0  0  0  0
   -1.6838   -0.4763    0.0000 C   0  0  0  0  0  0  0  0  0  0  0  0
  2  1  1  6
  2  3  1  0
  3  4  1  0
  4  5  1  0
  5  6  2  0
  5  7  1  0
  7  8  2  0
  7  9  1  0
  2 10  1  0
 10 11  1  6
 11 12  1  0
 13 12  1  6
 13 14  1  0
 14 15  1  1
 15 16  1  1
 15 17  1  0
 18 17  1  1
 18 19  1  0
 19 20  1  0
 20 21  1  0
 21 22  1  0
 22 23  1  0
 23 24  1  6
 23 25  1  0
 25 26  1  6
 26 27  1  0
 27 28  1  0
 28 29  1  6
 28 10  1  0
 28 13  1  0
 25 14  1  0
 23 18  1  0
M  END
>  <MS_ID>  (2588) 
MS2678

>  <SMILES>  (2588) 
C[C@H](CCC(=O)C(=O)O)[C@H]1CC[C@H]2[C@@H]3[C@H](O)C[C@@H]4CCCC[C@]4(C)[C@H]3CC[C@]12C

>  <Structure_dimension>  (2588) 
2D

$$$$
MS2679
     RDKit          2D

 31 34  0  0  0  0  0  0  0  0999 V2000
   -4.0236   -3.2541    0.0000 C   0  0  0  0  0  0  0  0  0  0  0  0
   -3.0434   -2.1186    0.0000 C   0  0  0  0  0  0  0  0  0  0  0  0
   -3.5366   -0.7020    0.0000 C   0  0  0  0  0  0  0  0  0  0  0  0
   -5.0100   -0.4209    0.0000 C   0  0  0  0  0  0  0  0  0  0  0  0
   -5.5033    0.9957    0.0000 C   0  0  0  0  0  0  0  0  0  0  0  0
   -4.5231    2.1311    0.0000 O   0  0  0  0  0  0  0  0  0  0  0  0
   -6.9767    1.2768    0.0000 N   0  0  0  0  0  0  0  0  0  0  0  0
   -7.4699    2.6934    0.0000 C   0  0  0  0  0  0  0  0  0  0  0  0
   -7.9632    4.1100    0.0000 N   0  0  0  0  0  0  0  0  0  0  0  0
   -1.5700   -2.3998    0.0000 C   0  0  0  0  0  0  0  0  0  0  0  0
   -0.9314   -3.7570    0.0000 C   0  0  0  0  0  0  0  0  0  0  0  0
    0.5568   -3.5691    0.0000 C   0  0  0  0  0  0  0  0  0  0  0  0
    0.8380   -2.0957    0.0000 C   0  0  0  0  0  0  0  0  0  0  0  0
    2.1210   -1.3187    0.0000 C   0  0  0  0  0  0  0  0  0  0  0  0
    3.4355   -2.0414    0.0000 C   0  0  0  0  0  0  0  0  0  0  0  0
    3.4668   -3.5410    0.0000 O   0  0  0  0  0  0  0  0  0  0  0  0
    4.7185   -1.2644    0.0000 C   0  0  0  0  0  0  0  0  0  0  0  0
    4.6872    0.2353    0.0000 C   0  0  0  0  0  0  0  0  0  0  0  0
    5.9703    1.0123    0.0000 C   0  0  0  0  0  0  0  0  0  0  0  0
    5.9389    2.5120    0.0000 C   0  0  0  0  0  0  0  0  0  0  0  0
    7.2220    3.2889    0.0000 O   0  0  0  0  0  0  0  0  0  0  0  0
    4.6245    3.2346    0.0000 C   0  0  0  0  0  0  0  0  0  0  0  0
    3.3414    2.4577    0.0000 C   0  0  0  0  0  0  0  0  0  0  0  0
    3.3728    0.9580    0.0000 C   0  0  0  0  0  0  0  0  0  0  0  0
    2.0583    1.6807    0.0000 C   0  0  0  0  0  0  0  0  0  0  0  0
    2.0897    0.1810    0.0000 C   0  0  0  0  0  0  0  0  0  0  0  0
    0.7753    0.9037    0.0000 C   0  0  0  0  0  0  0  0  0  0  0  0
   -0.5078    0.1267    0.0000 C   0  0  0  0  0  0  0  0  0  0  0  0
   -1.8223    0.8494    0.0000 O   0  0  0  0  0  0  0  0  0  0  0  0
   -0.4765   -1.3730    0.0000 C   0  0  0  0  0  0  0  0  0  0  0  0
   -1.8592   -0.7916    0.0000 C   0  0  0  0  0  0  0  0  0  0  0  0
  2  1  1  6
  2  3  1  0
  3  4  1  0
  4  5  1  0
  5  6  2  0
  5  7  1  0
  7  8  1  0
  8  9  3  0
  2 10  1  0
 10 11  1  6
 11 12  1  0
 13 12  1  6
 13 14  1  0
 14 15  1  1
 15 16  1  1
 15 17  1  0
 18 17  1  1
 18 19  1  0
 19 20  1  0
 20 21  1  1
 20 22  1  0
 22 23  1  0
 23 24  1  0
 24 25  1  6
 24 26  1  0
 26 27  1  6
 27 28  1  0
 28 29  1  1
 28 30  1  0
 30 31  1  6
 30 10  1  0
 30 13  1  0
 26 14  1  0
 24 18  1  0
M  END
>  <MS_ID>  (2589) 
MS2679

>  <SMILES>  (2589) 
C[C@H](CCC(=O)NC#N)[C@H]1CC[C@H]2[C@@H]3[C@H](O)C[C@@H]4C[C@H](O)CC[C@]4(C)[C@H]3C[C@H](O)[C@]12C

>  <Structure_dimension>  (2589) 
2D

$$$$
MS2680
     RDKit          2D

 32 35  0  0  0  0  0  0  0  0999 V2000
   -3.4546   -3.6059    0.0000 C   0  0  0  0  0  0  0  0  0  0  0  0
   -2.5561   -2.4048    0.0000 C   0  0  0  0  0  0  0  0  0  0  0  0
   -3.1471   -1.0261    0.0000 C   0  0  0  0  0  0  0  0  0  0  0  0
   -4.6366   -0.8486    0.0000 C   0  0  0  0  0  0  0  0  0  0  0  0
   -5.2276    0.5301    0.0000 C   0  0  0  0  0  0  0  0  0  0  0  0
   -4.3291    1.7312    0.0000 O   0  0  0  0  0  0  0  0  0  0  0  0
   -6.7170    0.7076    0.0000 C   0  0  0  0  0  0  0  0  0  0  0  0
   -7.3080    2.0863    0.0000 C   0  0  0  0  0  0  0  0  0  0  0  0
   -8.7975    2.2638    0.0000 C   0  0  0  0  0  0  0  0  0  0  0  0
   -9.3885    3.6424    0.0000 O   0  0  0  0  0  0  0  0  0  0  0  0
   -1.0667   -2.5823    0.0000 C   0  0  0  0  0  0  0  0  0  0  0  0
   -0.3348   -3.8917    0.0000 C   0  0  0  0  0  0  0  0  0  0  0  0
    1.1366   -3.6002    0.0000 C   0  0  0  0  0  0  0  0  0  0  0  0
    1.3141   -2.1108    0.0000 C   0  0  0  0  0  0  0  0  0  0  0  0
    2.5398   -1.2460    0.0000 C   0  0  0  0  0  0  0  0  0  0  0  0
    3.9015   -1.8751    0.0000 C   0  0  0  0  0  0  0  0  0  0  0  0
    4.0375   -3.3690    0.0000 O   0  0  0  0  0  0  0  0  0  0  0  0
    5.1272   -1.0104    0.0000 C   0  0  0  0  0  0  0  0  0  0  0  0
    4.9911    0.4834    0.0000 C   0  0  0  0  0  0  0  0  0  0  0  0
    6.2168    1.3481    0.0000 C   0  0  0  0  0  0  0  0  0  0  0  0
    6.0808    2.8419    0.0000 C   0  0  0  0  0  0  0  0  0  0  0  0
    7.3064    3.7067    0.0000 O   0  0  0  0  0  0  0  0  0  0  0  0
    4.7191    3.4710    0.0000 C   0  0  0  0  0  0  0  0  0  0  0  0
    3.4934    2.6063    0.0000 C   0  0  0  0  0  0  0  0  0  0  0  0
    3.6294    1.1125    0.0000 C   0  0  0  0  0  0  0  0  0  0  0  0
    2.2677    1.7416    0.0000 C   0  0  0  0  0  0  0  0  0  0  0  0
    2.4038    0.2478    0.0000 C   0  0  0  0  0  0  0  0  0  0  0  0
    1.0421    0.8769    0.0000 C   0  0  0  0  0  0  0  0  0  0  0  0
   -0.1836    0.0122    0.0000 C   0  0  0  0  0  0  0  0  0  0  0  0
   -1.5453    0.6413    0.0000 O   0  0  0  0  0  0  0  0  0  0  0  0
   -0.0476   -1.4817    0.0000 C   0  0  0  0  0  0  0  0  0  0  0  0
   -1.4676   -0.9983    0.0000 C   0  0  0  0  0  0  0  0  0  0  0  0
  2  1  1  6
  2  3  1  0
  3  4  1  0
  4  5  1  0
  5  6  2  0
  5  7  1  0
  7  8  1  0
  8  9  1  0
  9 10  1  0
  2 11  1  0
 11 12  1  6
 12 13  1  0
 14 13  1  6
 14 15  1  0
 15 16  1  1
 16 17  1  6
 16 18  1  0
 19 18  1  1
 19 20  1  0
 20 21  1  0
 21 22  2  0
 21 23  1  0
 23 24  1  0
 24 25  1  0
 25 26  1  6
 25 27  1  0
 27 28  1  6
 28 29  1  0
 29 30  1  1
 29 31  1  0
 31 32  1  6
 31 11  1  0
 31 14  1  0
 27 15  1  0
 25 19  1  0
M  END
>  <MS_ID>  (2590) 
MS2680

>  <SMILES>  (2590) 
C[C@H](CCC(=O)CCCO)[C@H]1CC[C@H]2[C@@H]3[C@@H](O)C[C@@H]4CC(=O)CC[C@]4(C)[C@H]3C[C@H](O)[C@]12C

>  <Structure_dimension>  (2590) 
2D

$$$$
MS2681
     RDKit          2D

 34 37  0  0  0  0  0  0  0  0999 V2000
   -3.2164   -3.1141    0.0000 C   0  0  0  0  0  0  0  0  0  0  0  0
   -2.2119   -2.0001    0.0000 C   0  0  0  0  0  0  0  0  0  0  0  0
   -2.6744   -0.5732    0.0000 C   0  0  0  0  0  0  0  0  0  0  0  0
   -4.1414   -0.2602    0.0000 C   0  0  0  0  0  0  0  0  0  0  0  0
   -4.6039    1.1667    0.0000 C   0  0  0  0  0  0  0  0  0  0  0  0
   -3.5994    2.2807    0.0000 O   0  0  0  0  0  0  0  0  0  0  0  0
   -6.0709    1.4796    0.0000 N   0  0  0  0  0  0  0  0  0  0  0  0
   -6.5334    2.9066    0.0000 C   0  0  0  0  0  0  0  0  0  0  0  0
   -7.0754    0.3656    0.0000 C   0  0  0  0  0  0  0  0  0  0  0  0
   -8.5424    0.6786    0.0000 C   0  0  0  0  0  0  0  0  0  0  0  0
   -9.0049    2.1055    0.0000 O   0  0  0  0  0  0  0  0  0  0  0  0
   -9.5469   -0.4354    0.0000 O   0  0  0  0  0  0  0  0  0  0  0  0
   -0.7449   -2.3130    0.0000 C   0  0  0  0  0  0  0  0  0  0  0  0
   -0.1358   -3.6838    0.0000 C   0  0  0  0  0  0  0  0  0  0  0  0
    1.3561   -3.5281    0.0000 C   0  0  0  0  0  0  0  0  0  0  0  0
    1.6690   -2.0611    0.0000 C   0  0  0  0  0  0  0  0  0  0  0  0
    2.9686   -1.3120    0.0000 C   0  0  0  0  0  0  0  0  0  0  0  0
    4.2671   -2.0629    0.0000 C   0  0  0  0  0  0  0  0  0  0  0  0
    4.2660   -3.5629    0.0000 O   0  0  0  0  0  0  0  0  0  0  0  0
    5.5667   -1.3139    0.0000 C   0  0  0  0  0  0  0  0  0  0  0  0
    5.5678    0.1861    0.0000 C   0  0  0  0  0  0  0  0  0  0  0  0
    6.8673    0.9352    0.0000 C   0  0  0  0  0  0  0  0  0  0  0  0
    6.8684    2.4352    0.0000 C   0  0  0  0  0  0  0  0  0  0  0  0
    8.1680    3.1842    0.0000 O   0  0  0  0  0  0  0  0  0  0  0  0
    5.5699    3.1861    0.0000 C   0  0  0  0  0  0  0  0  0  0  0  0
    4.2704    2.4371    0.0000 C   0  0  0  0  0  0  0  0  0  0  0  0
    4.2693    0.9371    0.0000 C   0  0  0  0  0  0  0  0  0  0  0  0
    2.9708    1.6880    0.0000 C   0  0  0  0  0  0  0  0  0  0  0  0
    2.9697    0.1880    0.0000 C   0  0  0  0  0  0  0  0  0  0  0  0
    1.6712    0.9389    0.0000 C   0  0  0  0  0  0  0  0  0  0  0  0
    0.3716    0.1899    0.0000 C   0  0  0  0  0  0  0  0  0  0  0  0
   -0.9269    0.9408    0.0000 O   0  0  0  0  0  0  0  0  0  0  0  0
    0.3705   -1.3101    0.0000 C   0  0  0  0  0  0  0  0  0  0  0  0
   -0.9994   -0.6990    0.0000 C   0  0  0  0  0  0  0  0  0  0  0  0
  2  1  1  6
  2  3  1  0
  3  4  1  0
  4  5  1  0
  5  6  2  0
  5  7  1  0
  7  8  1  0
  7  9  1  0
  9 10  1  0
 10 11  2  0
 10 12  1  0
  2 13  1  0
 13 14  1  6
 14 15  1  0
 16 15  1  6
 16 17  1  0
 17 18  1  1
 18 19  1  1
 18 20  1  0
 21 20  1  1
 21 22  1  0
 22 23  1  0
 23 24  2  0
 23 25  1  0
 25 26  1  0
 26 27  1  0
 27 28  1  6
 27 29  1  0
 29 30  1  6
 30 31  1  0
 31 32  1  1
 31 33  1  0
 33 34  1  6
 33 13  1  0
 33 16  1  0
 29 17  1  0
 27 21  1  0
M  END
>  <MS_ID>  (2591) 
MS2681

>  <SMILES>  (2591) 
C[C@H](CCC(=O)N(C)CC(=O)O)[C@H]1CC[C@H]2[C@@H]3[C@H](O)C[C@@H]4CC(=O)CC[C@]4(C)[C@H]3C[C@H](O)[C@]12C

>  <Structure_dimension>  (2591) 
2D

$$$$
MS2682
     RDKit          2D

 36 40  0  0  0  0  0  0  0  0999 V2000
   -1.8695   -4.0446    0.0000 C   0  0  0  0  0  0  0  0  0  0  0  0
   -1.0892   -2.7636    0.0000 C   0  0  0  0  0  0  0  0  0  0  0  0
   -1.8085   -1.4473    0.0000 C   0  0  0  0  0  0  0  0  0  0  0  0
   -3.3081   -1.4120    0.0000 C   0  0  0  0  0  0  0  0  0  0  0  0
   -4.0274   -0.0958    0.0000 C   0  0  0  0  0  0  0  0  0  0  0  0
   -3.2470    1.1853    0.0000 O   0  0  0  0  0  0  0  0  0  0  0  0
   -5.5269   -0.0605    0.0000 C   0  0  0  0  0  0  0  0  0  0  0  0
   -6.2462    1.2558    0.0000 C   0  0  0  0  0  0  0  0  0  0  0  0
   -7.7458    1.2910    0.0000 C   0  0  0  0  0  0  0  0  0  0  0  0
   -8.4651    2.6073    0.0000 C   0  0  0  0  0  0  0  0  0  0  0  0
   -9.9647    2.6425    0.0000 C   0  0  0  0  0  0  0  0  0  0  0  0
  -10.7450    1.3615    0.0000 C   0  0  0  0  0  0  0  0  0  0  0  0
  -10.0257    0.0452    0.0000 C   0  0  0  0  0  0  0  0  0  0  0  0
   -8.5261    0.0099    0.0000 C   0  0  0  0  0  0  0  0  0  0  0  0
    0.4104   -2.7988    0.0000 C   0  0  0  0  0  0  0  0  0  0  0  0
    1.2633   -4.0327    0.0000 C   0  0  0  0  0  0  0  0  0  0  0  0
    2.7004   -3.6028    0.0000 C   0  0  0  0  0  0  0  0  0  0  0  0
    2.7356   -2.1032    0.0000 C   0  0  0  0  0  0  0  0  0  0  0  0
    3.8736   -1.1260    0.0000 C   0  0  0  0  0  0  0  0  0  0  0  0
    5.2889   -1.6229    0.0000 C   0  0  0  0  0  0  0  0  0  0  0  0
    5.5662   -3.0970    0.0000 O   0  0  0  0  0  0  0  0  0  0  0  0
    6.4269   -0.6457    0.0000 C   0  0  0  0  0  0  0  0  0  0  0  0
    6.1496    0.8285    0.0000 C   0  0  0  0  0  0  0  0  0  0  0  0
    7.2876    1.8057    0.0000 C   0  0  0  0  0  0  0  0  0  0  0  0
    7.0102    3.2799    0.0000 C   0  0  0  0  0  0  0  0  0  0  0  0
    8.1482    4.2571    0.0000 O   0  0  0  0  0  0  0  0  0  0  0  0
    5.5949    3.7768    0.0000 C   0  0  0  0  0  0  0  0  0  0  0  0
    4.4570    2.7995    0.0000 C   0  0  0  0  0  0  0  0  0  0  0  0
    4.7343    1.3254    0.0000 C   0  0  0  0  0  0  0  0  0  0  0  0
    3.3190    1.8223    0.0000 C   0  0  0  0  0  0  0  0  0  0  0  0
    3.5963    0.3481    0.0000 C   0  0  0  0  0  0  0  0  0  0  0  0
    2.1810    0.8451    0.0000 C   0  0  0  0  0  0  0  0  0  0  0  0
    1.0430   -0.1322    0.0000 C   0  0  0  0  0  0  0  0  0  0  0  0
   -0.3723    0.3647    0.0000 O   0  0  0  0  0  0  0  0  0  0  0  0
    1.3203   -1.6063    0.0000 C   0  0  0  0  0  0  0  0  0  0  0  0
   -0.1392   -1.2601    0.0000 C   0  0  0  0  0  0  0  0  0  0  0  0
  2  1  1  6
  2  3  1  0
  3  4  1  0
  4  5  1  0
  5  6  2  0
  5  7  1  0
  7  8  1  0
  8  9  1  0
  9 10  2  0
 10 11  1  0
 11 12  2  0
 12 13  1  0
 13 14  2  0
  2 15  1  0
 15 16  1  6
 16 17  1  0
 18 17  1  6
 18 19  1  0
 19 20  1  1
 20 21  1  1
 20 22  1  0
 23 22  1  1
 23 24  1  0
 24 25  1  0
 25 26  1  1
 25 27  1  0
 27 28  1  0
 28 29  1  0
 29 30  1  6
 29 31  1  0
 31 32  1  6
 32 33  1  0
 33 34  1  1
 33 35  1  0
 35 36  1  6
 14  9  1  0
 35 15  1  0
 35 18  1  0
 31 19  1  0
 29 23  1  0
M  END
>  <MS_ID>  (2592) 
MS2682

>  <SMILES>  (2592) 
C[C@H](CCC(=O)CCc1ccccc1)[C@H]1CC[C@H]2[C@@H]3[C@H](O)C[C@@H]4C[C@H](O)CC[C@]4(C)[C@H]3C[C@H](O)[C@]12C

>  <Structure_dimension>  (2592) 
2D

$$$$
MS2683
     RDKit          2D

 29 32  0  0  0  0  0  0  0  0999 V2000
   -5.0303   -2.1373    0.0000 C   0  0  0  0  0  0  0  0  0  0  0  0
   -3.8594   -1.1998    0.0000 C   0  0  0  0  0  0  0  0  0  0  0  0
   -4.0858    0.2830    0.0000 C   0  0  0  0  0  0  0  0  0  0  0  0
   -5.4831    0.8284    0.0000 C   0  0  0  0  0  0  0  0  0  0  0  0
   -5.7095    2.3112    0.0000 C   0  0  0  0  0  0  0  0  0  0  0  0
   -4.5386    3.2487    0.0000 O   0  0  0  0  0  0  0  0  0  0  0  0
   -7.1069    2.8565    0.0000 O   0  0  0  0  0  0  0  0  0  0  0  0
   -2.4620   -1.7451    0.0000 C   0  0  0  0  0  0  0  0  0  0  0  0
   -2.0818   -3.1961    0.0000 C   0  0  0  0  0  0  0  0  0  0  0  0
   -0.5844   -3.2830    0.0000 C   0  0  0  0  0  0  0  0  0  0  0  0
   -0.0390   -1.8856    0.0000 C   0  0  0  0  0  0  0  0  0  0  0  0
    1.3643   -1.3559    0.0000 C   0  0  0  0  0  0  0  0  0  0  0  0
    2.5248   -2.3063    0.0000 C   0  0  0  0  0  0  0  0  0  0  0  0
    2.2819   -3.7865    0.0000 S   0  0  0  0  0  0  0  0  0  0  0  0
    3.9281   -1.7765    0.0000 C   0  0  0  0  0  0  0  0  0  0  0  0
    4.1710   -0.2963    0.0000 C   0  0  0  0  0  0  0  0  0  0  0  0
    5.5743    0.2334    0.0000 C   0  0  0  0  0  0  0  0  0  0  0  0
    5.8172    1.7136    0.0000 C   0  0  0  0  0  0  0  0  0  0  0  0
    7.2205    2.2434    0.0000 O   0  0  0  0  0  0  0  0  0  0  0  0
    4.6568    2.6641    0.0000 C   0  0  0  0  0  0  0  0  0  0  0  0
    3.2534    2.1343    0.0000 C   0  0  0  0  0  0  0  0  0  0  0  0
    3.0105    0.6541    0.0000 C   0  0  0  0  0  0  0  0  0  0  0  0
    1.8501    1.6046    0.0000 C   0  0  0  0  0  0  0  0  0  0  0  0
    1.6072    0.1244    0.0000 C   0  0  0  0  0  0  0  0  0  0  0  0
    0.4467    1.0748    0.0000 C   0  0  0  0  0  0  0  0  0  0  0  0
   -0.9566    0.5450    0.0000 C   0  0  0  0  0  0  0  0  0  0  0  0
   -2.1170    1.4955    0.0000 O   0  0  0  0  0  0  0  0  0  0  0  0
   -1.1995   -0.9352    0.0000 C   0  0  0  0  0  0  0  0  0  0  0  0
   -2.4529   -0.1112    0.0000 C   0  0  0  0  0  0  0  0  0  0  0  0
  2  1  1  6
  2  3  1  0
  3  4  1  0
  4  5  1  0
  5  6  2  0
  5  7  1  0
  2  8  1  0
  8  9  1  6
  9 10  1  0
 11 10  1  6
 11 12  1  0
 12 13  1  1
 13 14  1  6
 13 15  1  0
 16 15  1  1
 16 17  1  0
 17 18  1  0
 18 19  1  1
 18 20  1  0
 20 21  1  0
 21 22  1  0
 22 23  1  6
 22 24  1  0
 24 25  1  6
 25 26  1  0
 26 27  2  0
 26 28  1  0
 28 29  1  6
 28  8  1  0
 28 11  1  0
 24 12  1  0
 22 16  1  0
M  END
>  <MS_ID>  (2593) 
MS2683

>  <SMILES>  (2593) 
C[C@H](CCC(=O)O)[C@H]1CC[C@H]2[C@@H]3[C@@H](S)C[C@@H]4C[C@H](O)CC[C@]4(C)[C@H]3CC(=O)[C@]12C

>  <Structure_dimension>  (2593) 
2D

$$$$
MS2684
     RDKit          2D

 34 37  0  0  0  0  0  0  0  0999 V2000
   -1.8984   -4.2506    0.0000 C   0  0  0  0  0  0  0  0  0  0  0  0
   -1.1842   -2.9316    0.0000 C   0  0  0  0  0  0  0  0  0  0  0  0
   -1.9694   -1.6535    0.0000 C   0  0  0  0  0  0  0  0  0  0  0  0
   -3.4688   -1.6945    0.0000 C   0  0  0  0  0  0  0  0  0  0  0  0
   -4.2540   -0.4165    0.0000 C   0  0  0  0  0  0  0  0  0  0  0  0
   -3.5398    0.9026    0.0000 O   0  0  0  0  0  0  0  0  0  0  0  0
   -5.7535   -0.4574    0.0000 N   0  0  0  0  0  0  0  0  0  0  0  0
   -6.5387    0.8206    0.0000 C   0  0  0  0  0  0  0  0  0  0  0  0
   -8.0381    0.7796    0.0000 C   0  0  0  0  0  0  0  0  0  0  0  0
   -8.8234    2.0577    0.0000 N   0  0  0  0  0  0  0  0  0  0  0  0
  -10.3228    2.0167    0.0000 C   0  0  0  0  0  0  0  0  0  0  0  0
  -11.0370    0.6977    0.0000 O   0  0  0  0  0  0  0  0  0  0  0  0
  -11.1080    3.2948    0.0000 O   0  0  0  0  0  0  0  0  0  0  0  0
    0.3153   -2.8906    0.0000 C   0  0  0  0  0  0  0  0  0  0  0  0
    1.2298   -4.0796    0.0000 C   0  0  0  0  0  0  0  0  0  0  0  0
    2.6432   -3.5773    0.0000 C   0  0  0  0  0  0  0  0  0  0  0  0
    2.6022   -2.0778    0.0000 C   0  0  0  0  0  0  0  0  0  0  0  0
    3.6890   -1.0440    0.0000 C   0  0  0  0  0  0  0  0  0  0  0  0
    5.1278   -1.4684    0.0000 C   0  0  0  0  0  0  0  0  0  0  0  0
    5.4796   -2.9266    0.0000 O   0  0  0  0  0  0  0  0  0  0  0  0
    6.2146   -0.4346    0.0000 C   0  0  0  0  0  0  0  0  0  0  0  0
    5.8628    1.0235    0.0000 C   0  0  0  0  0  0  0  0  0  0  0  0
    6.9497    2.0573    0.0000 C   0  0  0  0  0  0  0  0  0  0  0  0
    6.5978    3.5154    0.0000 C   0  0  0  0  0  0  0  0  0  0  0  0
    7.6847    4.5492    0.0000 O   0  0  0  0  0  0  0  0  0  0  0  0
    5.1591    3.9398    0.0000 C   0  0  0  0  0  0  0  0  0  0  0  0
    4.0722    2.9060    0.0000 C   0  0  0  0  0  0  0  0  0  0  0  0
    4.4241    1.4479    0.0000 C   0  0  0  0  0  0  0  0  0  0  0  0
    2.9854    1.8723    0.0000 C   0  0  0  0  0  0  0  0  0  0  0  0
    3.3372    0.4141    0.0000 C   0  0  0  0  0  0  0  0  0  0  0  0
    1.8985    0.8385    0.0000 C   0  0  0  0  0  0  0  0  0  0  0  0
    0.8116   -0.1953    0.0000 C   0  0  0  0  0  0  0  0  0  0  0  0
    1.1635   -1.6534    0.0000 C   0  0  0  0  0  0  0  0  0  0  0  0
   -0.3117   -1.3818    0.0000 C   0  0  0  0  0  0  0  0  0  0  0  0
  2  1  1  6
  2  3  1  0
  3  4  1  0
  4  5  1  0
  5  6  2  0
  5  7  1  0
  7  8  1  0
  8  9  1  0
  9 10  1  0
 10 11  1  0
 11 12  2  0
 11 13  1  0
  2 14  1  0
 14 15  1  6
 15 16  1  0
 17 16  1  6
 17 18  1  0
 18 19  1  1
 19 20  1  6
 19 21  1  0
 22 21  1  1
 22 23  1  0
 23 24  1  0
 24 25  1  1
 24 26  1  0
 26 27  1  0
 27 28  1  0
 28 29  1  6
 28 30  1  0
 30 31  1  6
 31 32  1  0
 32 33  1  0
 33 34  1  6
 33 14  1  0
 33 17  1  0
 30 18  1  0
 28 22  1  0
M  END
>  <MS_ID>  (2594) 
MS2684

>  <SMILES>  (2594) 
C[C@H](CCC(=O)NCCNC(=O)O)[C@H]1CC[C@H]2[C@@H]3[C@@H](O)C[C@@H]4C[C@H](O)CC[C@]4(C)[C@H]3CC[C@]12C

>  <Structure_dimension>  (2594) 
2D

$$$$
MS2685
     RDKit          2D

 30 33  0  0  0  0  0  0  0  0999 V2000
   -5.1126   -2.2702    0.0000 C   0  0  0  0  0  0  0  0  0  0  0  0
   -4.0463   -1.2153    0.0000 C   0  0  0  0  0  0  0  0  0  0  0  0
   -4.4268    0.2357    0.0000 C   0  0  0  0  0  0  0  0  0  0  0  0
   -5.8736    0.6316    0.0000 C   0  0  0  0  0  0  0  0  0  0  0  0
   -6.2540    2.0826    0.0000 C   0  0  0  0  0  0  0  0  0  0  0  0
   -5.1877    3.1376    0.0000 O   0  0  0  0  0  0  0  0  0  0  0  0
   -7.7008    2.4786    0.0000 O   0  0  0  0  0  0  0  0  0  0  0  0
   -2.5995   -1.6113    0.0000 C   0  0  0  0  0  0  0  0  0  0  0  0
   -2.0695   -3.0145    0.0000 C   0  0  0  0  0  0  0  0  0  0  0  0
   -0.5711   -2.9440    0.0000 C   0  0  0  0  0  0  0  0  0  0  0  0
   -0.1751   -1.4972    0.0000 C   0  0  0  0  0  0  0  0  0  0  0  0
    1.1650   -0.8234    0.0000 C   0  0  0  0  0  0  0  0  0  0  0  0
    2.4186   -1.6471    0.0000 C   0  0  0  0  0  0  0  0  0  0  0  0
    2.3321   -3.1446    0.0000 C   0  0  0  0  0  0  0  0  0  0  0  0
    3.5857   -3.9682    0.0000 N   0  0  0  0  0  0  0  0  0  0  0  0
    3.4992   -5.4657    0.0000 O   0  0  0  0  0  0  0  0  0  0  0  0
    3.7587   -0.9732    0.0000 C   0  0  0  0  0  0  0  0  0  0  0  0
    3.8453    0.5243    0.0000 C   0  0  0  0  0  0  0  0  0  0  0  0
    5.1854    1.1981    0.0000 C   0  0  0  0  0  0  0  0  0  0  0  0
    5.2719    2.6956    0.0000 C   0  0  0  0  0  0  0  0  0  0  0  0
    6.6121    3.3694    0.0000 O   0  0  0  0  0  0  0  0  0  0  0  0
    4.0183    3.5193    0.0000 C   0  0  0  0  0  0  0  0  0  0  0  0
    2.6782    2.8454    0.0000 C   0  0  0  0  0  0  0  0  0  0  0  0
    2.5917    1.3479    0.0000 C   0  0  0  0  0  0  0  0  0  0  0  0
    1.3380    2.1716    0.0000 C   0  0  0  0  0  0  0  0  0  0  0  0
    1.2515    0.6741    0.0000 C   0  0  0  0  0  0  0  0  0  0  0  0
   -0.0021    1.4978    0.0000 C   0  0  0  0  0  0  0  0  0  0  0  0
   -1.3422    0.8240    0.0000 C   0  0  0  0  0  0  0  0  0  0  0  0
   -1.4288   -0.6735    0.0000 C   0  0  0  0  0  0  0  0  0  0  0  0
   -2.7616    0.0146    0.0000 C   0  0  0  0  0  0  0  0  0  0  0  0
  2  1  1  6
  2  3  1  0
  3  4  1  0
  4  5  1  0
  5  6  2  0
  5  7  1  0
  2  8  1  0
  8  9  1  6
  9 10  1  0
 11 10  1  6
 11 12  1  0
 12 13  1  1
 13 14  1  6
 14 15  1  0
 15 16  1  0
 13 17  1  0
 18 17  1  1
 18 19  1  0
 19 20  1  0
 20 21  1  1
 20 22  1  0
 22 23  1  0
 23 24  1  0
 24 25  1  6
 24 26  1  0
 26 27  1  6
 27 28  1  0
 28 29  1  0
 29 30  1  6
 29  8  1  0
 29 11  1  0
 26 12  1  0
 24 18  1  0
M  END
>  <MS_ID>  (2595) 
MS2685

>  <SMILES>  (2595) 
C[C@H](CCC(=O)O)[C@H]1CC[C@H]2[C@@H]3[C@@H](CNO)C[C@@H]4C[C@H](O)CC[C@]4(C)[C@H]3CC[C@]12C

>  <Structure_dimension>  (2595) 
2D

$$$$
MS2686
     RDKit          2D

 30 33  0  0  0  0  0  0  0  0999 V2000
   -9.4058    3.2326    0.0000 C   0  0  0  0  0  0  0  0  0  0  0  0
   -8.7337    1.8916    0.0000 C   0  0  0  0  0  0  0  0  0  0  0  0
   -7.2363    1.8032    0.0000 C   0  0  0  0  0  0  0  0  0  0  0  0
   -6.5642    0.4622    0.0000 O   0  0  0  0  0  0  0  0  0  0  0  0
   -5.0668    0.3737    0.0000 C   0  0  0  0  0  0  0  0  0  0  0  0
   -4.2415    1.6263    0.0000 O   0  0  0  0  0  0  0  0  0  0  0  0
   -4.3947   -0.9673    0.0000 C   0  0  0  0  0  0  0  0  0  0  0  0
   -2.8973   -1.0557    0.0000 C   0  0  0  0  0  0  0  0  0  0  0  0
   -2.2252   -2.3967    0.0000 C   0  0  0  0  0  0  0  0  0  0  0  0
   -3.0505   -3.6493    0.0000 C   0  0  0  0  0  0  0  0  0  0  0  0
   -0.7278   -2.4852    0.0000 C   0  0  0  0  0  0  0  0  0  0  0  0
    0.0808   -3.7486    0.0000 C   0  0  0  0  0  0  0  0  0  0  0  0
    1.5322   -3.3700    0.0000 C   0  0  0  0  0  0  0  0  0  0  0  0
    1.6207   -1.8726    0.0000 C   0  0  0  0  0  0  0  0  0  0  0  0
    2.7926   -0.9364    0.0000 C   0  0  0  0  0  0  0  0  0  0  0  0
    4.1894   -1.4832    0.0000 C   0  0  0  0  0  0  0  0  0  0  0  0
    4.4142   -2.9662    0.0000 O   0  0  0  0  0  0  0  0  0  0  0  0
    5.3613   -0.5470    0.0000 C   0  0  0  0  0  0  0  0  0  0  0  0
    5.1365    0.9361    0.0000 C   0  0  0  0  0  0  0  0  0  0  0  0
    6.3085    1.8723    0.0000 C   0  0  0  0  0  0  0  0  0  0  0  0
    6.0837    3.3554    0.0000 C   0  0  0  0  0  0  0  0  0  0  0  0
    4.6869    3.9022    0.0000 C   0  0  0  0  0  0  0  0  0  0  0  0
    3.5149    2.9660    0.0000 C   0  0  0  0  0  0  0  0  0  0  0  0
    3.7398    1.4829    0.0000 C   0  0  0  0  0  0  0  0  0  0  0  0
    2.3430    2.0298    0.0000 C   0  0  0  0  0  0  0  0  0  0  0  0
    2.5678    0.5467    0.0000 C   0  0  0  0  0  0  0  0  0  0  0  0
    1.1710    1.0935    0.0000 C   0  0  0  0  0  0  0  0  0  0  0  0
   -0.0009    0.1573    0.0000 C   0  0  0  0  0  0  0  0  0  0  0  0
    0.2239   -1.3257    0.0000 C   0  0  0  0  0  0  0  0  0  0  0  0
   -1.2224   -0.9279    0.0000 C   0  0  0  0  0  0  0  0  0  0  0  0
  1  2  1  0
  2  3  1  0
  3  4  1  0
  4  5  1  0
  5  6  2  0
  5  7  1  0
  7  8  1  0
  8  9  1  0
  9 10  1  6
  9 11  1  0
 11 12  1  6
 12 13  1  0
 14 13  1  6
 14 15  1  0
 15 16  1  1
 16 17  1  1
 16 18  1  0
 19 18  1  1
 19 20  1  0
 20 21  1  0
 21 22  1  0
 22 23  1  0
 23 24  1  0
 24 25  1  6
 24 26  1  0
 26 27  1  6
 27 28  1  0
 28 29  1  0
 29 30  1  6
 29 11  1  0
 29 14  1  0
 26 15  1  0
 24 19  1  0
M  END
>  <MS_ID>  (2596) 
MS2686

>  <SMILES>  (2596) 
CCCOC(=O)CC[C@@H](C)[C@H]1CC[C@H]2[C@@H]3[C@H](O)C[C@@H]4CCCC[C@]4(C)[C@H]3CC[C@]12C

>  <Structure_dimension>  (2596) 
2D

$$$$
MS2687
     RDKit          2D

 37 41  0  0  0  0  0  0  0  0999 V2000
   -8.0832   -2.2358    0.0000 C   0  0  0  0  0  0  0  0  0  0  0  0
   -6.9150   -1.2949    0.0000 C   0  0  0  0  0  0  0  0  0  0  0  0
   -7.1457    0.1873    0.0000 C   0  0  0  0  0  0  0  0  0  0  0  0
   -8.5447    0.7285    0.0000 C   0  0  0  0  0  0  0  0  0  0  0  0
   -8.7754    2.2107    0.0000 C   0  0  0  0  0  0  0  0  0  0  0  0
   -7.6072    3.1516    0.0000 O   0  0  0  0  0  0  0  0  0  0  0  0
  -10.1743    2.7519    0.0000 O   0  0  0  0  0  0  0  0  0  0  0  0
   -5.5160   -1.8361    0.0000 C   0  0  0  0  0  0  0  0  0  0  0  0
   -5.1316   -3.2860    0.0000 C   0  0  0  0  0  0  0  0  0  0  0  0
   -3.6339   -3.3685    0.0000 C   0  0  0  0  0  0  0  0  0  0  0  0
   -3.0926   -1.9695    0.0000 C   0  0  0  0  0  0  0  0  0  0  0  0
   -1.6909   -1.4357    0.0000 C   0  0  0  0  0  0  0  0  0  0  0  0
   -0.5276   -2.3827    0.0000 C   0  0  0  0  0  0  0  0  0  0  0  0
    0.8742   -1.8489    0.0000 C   0  0  0  0  0  0  0  0  0  0  0  0
    1.1127   -0.3680    0.0000 C   0  0  0  0  0  0  0  0  0  0  0  0
    2.5145    0.1659    0.0000 C   0  0  0  0  0  0  0  0  0  0  0  0
    2.7531    1.6468    0.0000 C   0  0  0  0  0  0  0  0  0  0  0  0
    4.1548    2.1806    0.0000 N   0  0  0  0  0  0  0  0  0  0  0  0
    5.3181    1.2336    0.0000 C   0  0  0  0  0  0  0  0  0  0  0  0
    5.0795   -0.2473    0.0000 O   0  0  0  0  0  0  0  0  0  0  0  0
    6.7198    1.7674    0.0000 C   0  0  0  0  0  0  0  0  0  0  0  0
    7.8831    0.8204    0.0000 C   0  0  0  0  0  0  0  0  0  0  0  0
    7.6445   -0.6605    0.0000 C   0  0  0  0  0  0  0  0  0  0  0  0
    8.8077   -1.6076    0.0000 C   0  0  0  0  0  0  0  0  0  0  0  0
   10.2095   -1.0737    0.0000 C   0  0  0  0  0  0  0  0  0  0  0  0
   11.3727   -2.0208    0.0000 O   0  0  0  0  0  0  0  0  0  0  0  0
   10.4481    0.4072    0.0000 C   0  0  0  0  0  0  0  0  0  0  0  0
    9.2849    1.3542    0.0000 C   0  0  0  0  0  0  0  0  0  0  0  0
    1.5898    2.5938    0.0000 C   0  0  0  0  0  0  0  0  0  0  0  0
    0.1880    2.0600    0.0000 C   0  0  0  0  0  0  0  0  0  0  0  0
   -0.0505    0.5791    0.0000 C   0  0  0  0  0  0  0  0  0  0  0  0
   -1.2137    1.5261    0.0000 C   0  0  0  0  0  0  0  0  0  0  0  0
   -1.4523    0.0452    0.0000 C   0  0  0  0  0  0  0  0  0  0  0  0
   -2.6155    0.9923    0.0000 C   0  0  0  0  0  0  0  0  0  0  0  0
   -4.0173    0.4584    0.0000 C   0  0  0  0  0  0  0  0  0  0  0  0
   -4.2559   -1.0225    0.0000 C   0  0  0  0  0  0  0  0  0  0  0  0
   -5.5117   -0.2022    0.0000 C   0  0  0  0  0  0  0  0  0  0  0  0
  2  1  1  6
  2  3  1  0
  3  4  1  0
  4  5  1  0
  5  6  2  0
  5  7  1  0
  2  8  1  0
  8  9  1  6
  9 10  1  0
 11 10  1  6
 11 12  1  0
 12 13  1  1
 13 14  1  0
 15 14  1  1
 15 16  1  0
 16 17  1  0
 17 18  1  1
 18 19  1  0
 19 20  2  0
 19 21  1  0
 21 22  1  0
 22 23  2  0
 23 24  1  0
 24 25  2  0
 25 26  1  0
 25 27  1  0
 27 28  2  0
 17 29  1  0
 29 30  1  0
 30 31  1  0
 31 32  1  6
 31 33  1  0
 33 34  1  6
 34 35  1  0
 35 36  1  0
 36 37  1  6
 36  8  1  0
 36 11  1  0
 33 12  1  0
 31 15  1  0
 28 22  1  0
M  END
>  <MS_ID>  (2597) 
MS2687

>  <SMILES>  (2597) 
C[C@H](CCC(=O)O)[C@H]1CC[C@H]2[C@@H]3CC[C@@H]4C[C@H](NC(=O)Cc5ccc(O)cc5)CC[C@]4(C)[C@H]3CC[C@]12C

>  <Structure_dimension>  (2597) 
2D

$$$$
MS2688
     RDKit          2D

 36 40  0  0  0  0  0  0  0  0999 V2000
   -7.6548   -2.0103    0.0000 C   0  0  0  0  0  0  0  0  0  0  0  0
   -6.4646   -1.0974    0.0000 C   0  0  0  0  0  0  0  0  0  0  0  0
   -6.6600    0.3898    0.0000 C   0  0  0  0  0  0  0  0  0  0  0  0
   -8.0457    0.9641    0.0000 C   0  0  0  0  0  0  0  0  0  0  0  0
   -8.2412    2.4513    0.0000 C   0  0  0  0  0  0  0  0  0  0  0  0
   -7.0510    3.3642    0.0000 O   0  0  0  0  0  0  0  0  0  0  0  0
   -9.6269    3.0256    0.0000 O   0  0  0  0  0  0  0  0  0  0  0  0
   -5.0789   -1.6717    0.0000 C   0  0  0  0  0  0  0  0  0  0  0  0
   -4.7290   -3.1303    0.0000 C   0  0  0  0  0  0  0  0  0  0  0  0
   -3.2336   -3.2483    0.0000 C   0  0  0  0  0  0  0  0  0  0  0  0
   -2.6593   -1.8626    0.0000 C   0  0  0  0  0  0  0  0  0  0  0  0
   -1.2453   -1.3622    0.0000 C   0  0  0  0  0  0  0  0  0  0  0  0
   -0.1048   -2.3366    0.0000 C   0  0  0  0  0  0  0  0  0  0  0  0
   -0.3785   -3.8114    0.0000 O   0  0  0  0  0  0  0  0  0  0  0  0
    1.3092   -1.8362    0.0000 C   0  0  0  0  0  0  0  0  0  0  0  0
    1.5829   -0.3613    0.0000 C   0  0  0  0  0  0  0  0  0  0  0  0
    2.9969    0.1391    0.0000 C   0  0  0  0  0  0  0  0  0  0  0  0
    3.2706    1.6139    0.0000 C   0  0  0  0  0  0  0  0  0  0  0  0
    4.6846    2.1143    0.0000 C   0  0  0  0  0  0  0  0  0  0  0  0
    5.8251    1.1399    0.0000 N   0  0  0  0  0  0  0  0  0  0  0  0
    7.2391    1.6404    0.0000 C   0  0  0  0  0  0  0  0  0  0  0  0
    8.3795    0.6659    0.0000 C   0  0  0  0  0  0  0  0  0  0  0  0
    8.1059   -0.8089    0.0000 C   0  0  0  0  0  0  0  0  0  0  0  0
    9.2463   -1.7833    0.0000 C   0  0  0  0  0  0  0  0  0  0  0  0
   10.6604   -1.2829    0.0000 C   0  0  0  0  0  0  0  0  0  0  0  0
   10.9340    0.1920    0.0000 C   0  0  0  0  0  0  0  0  0  0  0  0
    9.7936    1.1664    0.0000 C   0  0  0  0  0  0  0  0  0  0  0  0
    2.1302    2.5883    0.0000 C   0  0  0  0  0  0  0  0  0  0  0  0
    0.7161    2.0879    0.0000 C   0  0  0  0  0  0  0  0  0  0  0  0
    0.4425    0.6131    0.0000 C   0  0  0  0  0  0  0  0  0  0  0  0
   -0.6980    1.5875    0.0000 C   0  0  0  0  0  0  0  0  0  0  0  0
   -0.9716    0.1126    0.0000 C   0  0  0  0  0  0  0  0  0  0  0  0
   -2.1120    1.0870    0.0000 C   0  0  0  0  0  0  0  0  0  0  0  0
   -3.5261    0.5866    0.0000 C   0  0  0  0  0  0  0  0  0  0  0  0
   -3.7997   -0.8882    0.0000 C   0  0  0  0  0  0  0  0  0  0  0  0
   -5.0358   -0.0384    0.0000 C   0  0  0  0  0  0  0  0  0  0  0  0
  2  1  1  6
  2  3  1  0
  3  4  1  0
  4  5  1  0
  5  6  2  0
  5  7  1  0
  2  8  1  0
  8  9  1  6
  9 10  1  0
 11 10  1  6
 11 12  1  0
 12 13  1  1
 13 14  1  6
 13 15  1  0
 16 15  1  1
 16 17  1  0
 17 18  1  0
 18 19  1  1
 19 20  1  0
 20 21  1  0
 21 22  1  0
 22 23  2  0
 23 24  1  0
 24 25  2  0
 25 26  1  0
 26 27  2  0
 18 28  1  0
 28 29  1  0
 29 30  1  0
 30 31  1  6
 30 32  1  0
 32 33  1  6
 33 34  1  0
 34 35  1  0
 35 36  1  6
 35  8  1  0
 35 11  1  0
 32 12  1  0
 30 16  1  0
 27 22  1  0
M  END
>  <MS_ID>  (2598) 
MS2688

>  <SMILES>  (2598) 
C[C@H](CCC(=O)O)[C@H]1CC[C@H]2[C@@H]3[C@@H](O)C[C@@H]4C[C@H](CNCc5ccccc5)CC[C@]4(C)[C@H]3CC[C@]12C

>  <Structure_dimension>  (2598) 
2D

$$$$
MS2690
     RDKit          2D

 35 39  0  0  0  0  0  0  0  0999 V2000
   -2.4249   -4.3282    0.0000 C   0  0  0  0  0  0  0  0  0  0  0  0
   -1.7208   -3.0038    0.0000 C   0  0  0  0  0  0  0  0  0  0  0  0
   -2.5157   -1.7317    0.0000 C   0  0  0  0  0  0  0  0  0  0  0  0
   -4.0147   -1.7841    0.0000 C   0  0  0  0  0  0  0  0  0  0  0  0
   -4.8097   -0.5121    0.0000 C   0  0  0  0  0  0  0  0  0  0  0  0
   -4.1055    0.8124    0.0000 O   0  0  0  0  0  0  0  0  0  0  0  0
   -6.3087   -0.5645    0.0000 C   0  0  0  0  0  0  0  0  0  0  0  0
   -7.1037    0.7076    0.0000 C   0  0  0  0  0  0  0  0  0  0  0  0
   -6.3995    2.0320    0.0000 C   0  0  0  0  0  0  0  0  0  0  0  0
   -7.1944    3.3041    0.0000 C   0  0  0  0  0  0  0  0  0  0  0  0
   -8.6935    3.2517    0.0000 N   0  0  0  0  0  0  0  0  0  0  0  0
   -9.3977    1.9272    0.0000 C   0  0  0  0  0  0  0  0  0  0  0  0
   -8.6027    0.6552    0.0000 C   0  0  0  0  0  0  0  0  0  0  0  0
   -0.2217   -2.9514    0.0000 C   0  0  0  0  0  0  0  0  0  0  0  0
    0.7019   -4.1334    0.0000 C   0  0  0  0  0  0  0  0  0  0  0  0
    2.1114   -3.6203    0.0000 C   0  0  0  0  0  0  0  0  0  0  0  0
    2.0590   -2.1213    0.0000 C   0  0  0  0  0  0  0  0  0  0  0  0
    3.1380   -1.0792    0.0000 C   0  0  0  0  0  0  0  0  0  0  0  0
    4.5799   -1.4927    0.0000 C   0  0  0  0  0  0  0  0  0  0  0  0
    4.9428   -2.9481    0.0000 O   0  0  0  0  0  0  0  0  0  0  0  0
    5.6589   -0.4506    0.0000 C   0  0  0  0  0  0  0  0  0  0  0  0
    7.1008   -0.8641    0.0000 O   0  0  0  0  0  0  0  0  0  0  0  0
    5.2959    1.0048    0.0000 C   0  0  0  0  0  0  0  0  0  0  0  0
    6.3749    2.0468    0.0000 C   0  0  0  0  0  0  0  0  0  0  0  0
    6.0120    3.5022    0.0000 C   0  0  0  0  0  0  0  0  0  0  0  0
    7.0910    4.5443    0.0000 O   0  0  0  0  0  0  0  0  0  0  0  0
    4.5701    3.9157    0.0000 C   0  0  0  0  0  0  0  0  0  0  0  0
    3.4911    2.8736    0.0000 C   0  0  0  0  0  0  0  0  0  0  0  0
    3.8540    1.4182    0.0000 C   0  0  0  0  0  0  0  0  0  0  0  0
    2.4121    1.8316    0.0000 C   0  0  0  0  0  0  0  0  0  0  0  0
    2.7751    0.3762    0.0000 C   0  0  0  0  0  0  0  0  0  0  0  0
    1.3332    0.7896    0.0000 C   0  0  0  0  0  0  0  0  0  0  0  0
    0.2542   -0.2524    0.0000 C   0  0  0  0  0  0  0  0  0  0  0  0
    0.6171   -1.7078    0.0000 C   0  0  0  0  0  0  0  0  0  0  0  0
   -0.8601   -1.4474    0.0000 C   0  0  0  0  0  0  0  0  0  0  0  0
  2  1  1  6
  2  3  1  0
  3  4  1  0
  4  5  1  0
  5  6  2  0
  5  7  1  0
  7  8  1  0
  8  9  2  0
  9 10  1  0
 10 11  2  0
 11 12  1  0
 12 13  2  0
  2 14  1  0
 14 15  1  6
 15 16  1  0
 17 16  1  6
 17 18  1  0
 18 19  1  1
 19 20  1  1
 19 21  1  0
 21 22  1  1
 21 23  1  0
 23 24  1  1
 24 25  1  0
 25 26  1  1
 25 27  1  0
 27 28  1  0
 28 29  1  0
 29 30  1  6
 29 31  1  0
 31 32  1  6
 32 33  1  0
 33 34  1  0
 34 35  1  6
 13  8  1  0
 34 14  1  0
 34 17  1  0
 31 18  1  0
 29 23  1  0
M  END
>  <MS_ID>  (2599) 
MS2690

>  <SMILES>  (2599) 
C[C@H](CCC(=O)Cc1ccncc1)[C@H]1CC[C@H]2[C@@H]3[C@H](O)[C@H](O)[C@@H]4C[C@H](O)CC[C@]4(C)[C@H]3CC[C@]12C

>  <Structure_dimension>  (2599) 
2D

$$$$
MS2691
     RDKit          2D

 33 37  0  0  0  0  0  0  0  0999 V2000
   -3.1427   -3.3426    0.0000 C   0  0  0  0  0  0  0  0  0  0  0  0
   -2.1899   -2.1841    0.0000 C   0  0  0  0  0  0  0  0  0  0  0  0
   -2.7167   -0.7797    0.0000 C   0  0  0  0  0  0  0  0  0  0  0  0
   -4.1964   -0.5338    0.0000 C   0  0  0  0  0  0  0  0  0  0  0  0
   -4.7233    0.8707    0.0000 C   0  0  0  0  0  0  0  0  0  0  0  0
   -3.7705    2.0292    0.0000 O   0  0  0  0  0  0  0  0  0  0  0  0
   -6.2030    1.1166    0.0000 N   0  0  0  0  0  0  0  0  0  0  0  0
   -6.7299    2.5210    0.0000 C   0  0  0  0  0  0  0  0  0  0  0  0
   -8.2096    2.7669    0.0000 C   0  0  0  0  0  0  0  0  0  0  0  0
   -9.1624    1.6084    0.0000 C   0  0  0  0  0  0  0  0  0  0  0  0
   -8.6355    0.2040    0.0000 C   0  0  0  0  0  0  0  0  0  0  0  0
   -7.1558   -0.0419    0.0000 C   0  0  0  0  0  0  0  0  0  0  0  0
   -0.7102   -2.4300    0.0000 C   0  0  0  0  0  0  0  0  0  0  0  0
   -0.0394   -3.7717    0.0000 C   0  0  0  0  0  0  0  0  0  0  0  0
    1.4439   -3.5483    0.0000 C   0  0  0  0  0  0  0  0  0  0  0  0
    1.6898   -2.0686    0.0000 C   0  0  0  0  0  0  0  0  0  0  0  0
    2.9540   -1.2613    0.0000 C   0  0  0  0  0  0  0  0  0  0  0  0
    4.2853   -1.9524    0.0000 C   0  0  0  0  0  0  0  0  0  0  0  0
    4.3524   -3.4509    0.0000 O   0  0  0  0  0  0  0  0  0  0  0  0
    5.5495   -1.1451    0.0000 C   0  0  0  0  0  0  0  0  0  0  0  0
    5.4824    0.3534    0.0000 C   0  0  0  0  0  0  0  0  0  0  0  0
    6.7466    1.1608    0.0000 C   0  0  0  0  0  0  0  0  0  0  0  0
    6.6795    2.6593    0.0000 C   0  0  0  0  0  0  0  0  0  0  0  0
    7.9437    3.4666    0.0000 O   0  0  0  0  0  0  0  0  0  0  0  0
    5.3482    3.3504    0.0000 C   0  0  0  0  0  0  0  0  0  0  0  0
    4.0840    2.5431    0.0000 C   0  0  0  0  0  0  0  0  0  0  0  0
    4.1511    1.0446    0.0000 C   0  0  0  0  0  0  0  0  0  0  0  0
    2.8198    1.7357    0.0000 C   0  0  0  0  0  0  0  0  0  0  0  0
    2.8869    0.2372    0.0000 C   0  0  0  0  0  0  0  0  0  0  0  0
    1.5556    0.9284    0.0000 C   0  0  0  0  0  0  0  0  0  0  0  0
    0.2915    0.1210    0.0000 C   0  0  0  0  0  0  0  0  0  0  0  0
    0.3586   -1.3775    0.0000 C   0  0  0  0  0  0  0  0  0  0  0  0
   -1.0377   -0.8293    0.0000 C   0  0  0  0  0  0  0  0  0  0  0  0
  2  1  1  6
  2  3  1  0
  3  4  1  0
  4  5  1  0
  5  6  2  0
  5  7  1  0
  7  8  1  0
  8  9  1  0
  9 10  1  0
 10 11  1  0
 11 12  1  0
  2 13  1  0
 13 14  1  6
 14 15  1  0
 16 15  1  6
 16 17  1  0
 17 18  1  1
 18 19  1  1
 18 20  1  0
 21 20  1  1
 21 22  1  0
 22 23  1  0
 23 24  1  1
 23 25  1  0
 25 26  1  0
 26 27  1  0
 27 28  1  6
 27 29  1  0
 29 30  1  6
 30 31  1  0
 31 32  1  0
 32 33  1  6
 12  7  1  0
 32 13  1  0
 32 16  1  0
 29 17  1  0
 27 21  1  0
M  END
>  <MS_ID>  (2600) 
MS2691

>  <SMILES>  (2600) 
C[C@H](CCC(=O)N1CCCCC1)[C@H]1CC[C@H]2[C@@H]3[C@H](O)C[C@@H]4C[C@H](O)CC[C@]4(C)[C@H]3CC[C@]12C

>  <Structure_dimension>  (2600) 
2D

$$$$
MS2692
     RDKit          2D

 28 31  0  0  0  0  0  0  0  0999 V2000
   -5.1275   -2.0302    0.0000 C   0  0  0  0  0  0  0  0  0  0  0  0
   -3.9468   -1.1050    0.0000 C   0  0  0  0  0  0  0  0  0  0  0  0
   -4.1576    0.3801    0.0000 C   0  0  0  0  0  0  0  0  0  0  0  0
   -5.5492    0.9401    0.0000 C   0  0  0  0  0  0  0  0  0  0  0  0
   -5.7600    2.4252    0.0000 C   0  0  0  0  0  0  0  0  0  0  0  0
   -4.5793    3.3503    0.0000 O   0  0  0  0  0  0  0  0  0  0  0  0
   -7.1516    2.9851    0.0000 O   0  0  0  0  0  0  0  0  0  0  0  0
   -2.5552   -1.6650    0.0000 C   0  0  0  0  0  0  0  0  0  0  0  0
   -2.1903   -3.1199    0.0000 C   0  0  0  0  0  0  0  0  0  0  0  0
   -0.6938   -3.2225    0.0000 C   0  0  0  0  0  0  0  0  0  0  0  0
   -0.1339   -1.8309    0.0000 C   0  0  0  0  0  0  0  0  0  0  0  0
    1.2750   -1.3159    0.0000 C   0  0  0  0  0  0  0  0  0  0  0  0
    2.4254   -2.2785    0.0000 C   0  0  0  0  0  0  0  0  0  0  0  0
    2.1670   -3.7560    0.0000 O   0  0  0  0  0  0  0  0  0  0  0  0
    3.8342   -1.7635    0.0000 C   0  0  0  0  0  0  0  0  0  0  0  0
    4.0926   -0.2859    0.0000 C   0  0  0  0  0  0  0  0  0  0  0  0
    5.5014    0.2291    0.0000 C   0  0  0  0  0  0  0  0  0  0  0  0
    5.7598    1.7067    0.0000 C   0  0  0  0  0  0  0  0  0  0  0  0
    7.1687    2.2217    0.0000 F   0  0  0  0  0  0  0  0  0  0  0  0
    4.6094    2.6692    0.0000 C   0  0  0  0  0  0  0  0  0  0  0  0
    3.2006    2.1542    0.0000 C   0  0  0  0  0  0  0  0  0  0  0  0
    2.9422    0.6767    0.0000 C   0  0  0  0  0  0  0  0  0  0  0  0
    1.7918    1.6392    0.0000 C   0  0  0  0  0  0  0  0  0  0  0  0
    1.5334    0.1617    0.0000 C   0  0  0  0  0  0  0  0  0  0  0  0
    0.3830    1.1242    0.0000 C   0  0  0  0  0  0  0  0  0  0  0  0
   -1.0259    0.6093    0.0000 C   0  0  0  0  0  0  0  0  0  0  0  0
   -1.2843   -0.8683    0.0000 C   0  0  0  0  0  0  0  0  0  0  0  0
   -2.5290   -0.0313    0.0000 C   0  0  0  0  0  0  0  0  0  0  0  0
  2  1  1  6
  2  3  1  0
  3  4  1  0
  4  5  1  0
  5  6  2  0
  5  7  1  0
  2  8  1  0
  8  9  1  6
  9 10  1  0
 11 10  1  6
 11 12  1  0
 12 13  1  1
 13 14  1  6
 13 15  1  0
 16 15  1  1
 16 17  1  0
 17 18  1  0
 18 19  1  6
 18 20  1  0
 20 21  1  0
 21 22  1  0
 22 23  1  6
 22 24  1  0
 24 25  1  6
 25 26  1  0
 26 27  1  0
 27 28  1  6
 27  8  1  0
 27 11  1  0
 24 12  1  0
 22 16  1  0
M  END
>  <MS_ID>  (2601) 
MS2692

>  <SMILES>  (2601) 
C[C@H](CCC(=O)O)[C@H]1CC[C@H]2[C@@H]3[C@@H](O)C[C@@H]4C[C@@H](F)CC[C@]4(C)[C@H]3CC[C@]12C

>  <Structure_dimension>  (2601) 
2D

$$$$
MS2693
     RDKit          2D

 42 46  0  0  0  0  0  0  0  0999 V2000
   -7.0705   -3.0851    0.0000 C   0  0  0  0  0  0  0  0  0  0  0  0
   -5.9851   -2.0498    0.0000 C   0  0  0  0  0  0  0  0  0  0  0  0
   -6.3390   -0.5921    0.0000 C   0  0  0  0  0  0  0  0  0  0  0  0
   -7.7783   -0.1698    0.0000 C   0  0  0  0  0  0  0  0  0  0  0  0
   -8.1323    1.2879    0.0000 C   0  0  0  0  0  0  0  0  0  0  0  0
   -9.5716    1.7102    0.0000 O   0  0  0  0  0  0  0  0  0  0  0  0
   -7.0469    2.3232    0.0000 O   0  0  0  0  0  0  0  0  0  0  0  0
   -7.4008    3.7808    0.0000 C   0  0  0  0  0  0  0  0  0  0  0  0
   -8.8401    4.2032    0.0000 O   0  0  0  0  0  0  0  0  0  0  0  0
   -6.3154    4.8162    0.0000 O   0  0  0  0  0  0  0  0  0  0  0  0
   -4.5458   -2.4721    0.0000 C   0  0  0  0  0  0  0  0  0  0  0  0
   -4.0415   -3.8848    0.0000 C   0  0  0  0  0  0  0  0  0  0  0  0
   -2.5421   -3.8417    0.0000 C   0  0  0  0  0  0  0  0  0  0  0  0
   -2.1198   -2.4023    0.0000 C   0  0  0  0  0  0  0  0  0  0  0  0
   -0.7675   -1.7531    0.0000 C   0  0  0  0  0  0  0  0  0  0  0  0
    0.4708   -2.5995    0.0000 C   0  0  0  0  0  0  0  0  0  0  0  0
    0.3570   -4.0952    0.0000 O   0  0  0  0  0  0  0  0  0  0  0  0
    1.8230   -1.9503    0.0000 C   0  0  0  0  0  0  0  0  0  0  0  0
    1.9369   -0.4546    0.0000 C   0  0  0  0  0  0  0  0  0  0  0  0
    3.2891    0.1946    0.0000 C   0  0  0  0  0  0  0  0  0  0  0  0
    3.4030    1.6903    0.0000 C   0  0  0  0  0  0  0  0  0  0  0  0
    4.7552    2.3395    0.0000 O   0  0  0  0  0  0  0  0  0  0  0  0
    5.9935    1.4931    0.0000 C   0  0  0  0  0  0  0  0  0  0  0  0
    5.8797   -0.0026    0.0000 O   0  0  0  0  0  0  0  0  0  0  0  0
    7.1181   -0.8490    0.0000 C   0  0  0  0  0  0  0  0  0  0  0  0
    7.0042   -2.3447    0.0000 C   0  0  0  0  0  0  0  0  0  0  0  0
    5.6520   -2.9939    0.0000 O   0  0  0  0  0  0  0  0  0  0  0  0
    8.4703   -0.1998    0.0000 C   0  0  0  0  0  0  0  0  0  0  0  0
    9.7086   -1.0462    0.0000 O   0  0  0  0  0  0  0  0  0  0  0  0
    8.5841    1.2959    0.0000 C   0  0  0  0  0  0  0  0  0  0  0  0
    9.9363    1.9451    0.0000 O   0  0  0  0  0  0  0  0  0  0  0  0
    7.3458    2.1423    0.0000 C   0  0  0  0  0  0  0  0  0  0  0  0
    7.4596    3.6380    0.0000 O   0  0  0  0  0  0  0  0  0  0  0  0
    2.1646    2.5367    0.0000 C   0  0  0  0  0  0  0  0  0  0  0  0
    0.8124    1.8875    0.0000 C   0  0  0  0  0  0  0  0  0  0  0  0
    0.6985    0.3918    0.0000 C   0  0  0  0  0  0  0  0  0  0  0  0
   -0.5398    1.2382    0.0000 C   0  0  0  0  0  0  0  0  0  0  0  0
   -0.6537   -0.2574    0.0000 C   0  0  0  0  0  0  0  0  0  0  0  0
   -1.8921    0.5890    0.0000 C   0  0  0  0  0  0  0  0  0  0  0  0
   -3.2443   -0.0602    0.0000 C   0  0  0  0  0  0  0  0  0  0  0  0
   -3.3581   -1.5559    0.0000 C   0  0  0  0  0  0  0  0  0  0  0  0
   -4.6782   -0.8436    0.0000 C   0  0  0  0  0  0  0  0  0  0  0  0
  2  1  1  6
  2  3  1  0
  3  4  1  0
  4  5  1  0
  5  6  2  0
  5  7  1  0
  7  8  1  0
  8  9  2  0
  8 10  1  0
  2 11  1  0
 11 12  1  6
 12 13  1  0
 14 13  1  6
 14 15  1  0
 15 16  1  1
 16 17  1  6
 16 18  1  0
 19 18  1  1
 19 20  1  0
 20 21  1  0
 21 22  1  1
 23 22  1  1
 23 24  1  0
 24 25  1  0
 25 26  1  1
 26 27  1  0
 25 28  1  0
 28 29  1  6
 28 30  1  0
 30 31  1  1
 30 32  1  0
 32 33  1  6
 21 34  1  0
 34 35  1  0
 35 36  1  0
 36 37  1  6
 36 38  1  0
 38 39  1  6
 39 40  1  0
 40 41  1  0
 41 42  1  6
 41 11  1  0
 41 14  1  0
 38 15  1  0
 36 19  1  0
 32 23  1  0
M  END
>  <MS_ID>  (2602) 
MS2693

>  <SMILES>  (2602) 
C[C@H](CCC(=O)OC(=O)O)[C@H]1CC[C@H]2[C@@H]3[C@@H](O)C[C@@H]4C[C@H](O[C@@H]5O[C@H](CO)[C@@H](O)[C@H](O)[C@H]5O)CC[C@]4(C)[C@H]3CC[C@]12C

>  <Structure_dimension>  (2602) 
2D

$$$$
MS2694
     RDKit          2D

 32 36  0  0  0  0  0  0  0  0999 V2000
   -6.3766   -1.6468    0.0000 C   0  0  0  0  0  0  0  0  0  0  0  0
   -5.0756   -0.9002    0.0000 C   0  0  0  0  0  0  0  0  0  0  0  0
   -5.0716    0.5998    0.0000 C   0  0  0  0  0  0  0  0  0  0  0  0
   -6.3687    1.3532    0.0000 C   0  0  0  0  0  0  0  0  0  0  0  0
   -6.3647    2.8532    0.0000 C   0  0  0  0  0  0  0  0  0  0  0  0
   -5.0637    3.5998    0.0000 O   0  0  0  0  0  0  0  0  0  0  0  0
   -7.6617    3.6066    0.0000 O   0  0  0  0  0  0  0  0  0  0  0  0
   -3.7785   -1.6537    0.0000 C   0  0  0  0  0  0  0  0  0  0  0  0
   -3.6257   -3.1459    0.0000 C   0  0  0  0  0  0  0  0  0  0  0  0
   -2.1593   -3.4616    0.0000 C   0  0  0  0  0  0  0  0  0  0  0  0
   -1.4059   -2.1646    0.0000 C   0  0  0  0  0  0  0  0  0  0  0  0
    0.0622   -1.8566    0.0000 C   0  0  0  0  0  0  0  0  0  0  0  0
    1.0629   -2.9740    0.0000 C   0  0  0  0  0  0  0  0  0  0  0  0
    2.5310   -2.6660    0.0000 C   0  0  0  0  0  0  0  0  0  0  0  0
    2.9983   -1.2406    0.0000 C   0  0  0  0  0  0  0  0  0  0  0  0
    4.4663   -0.9326    0.0000 C   0  0  0  0  0  0  0  0  0  0  0  0
    4.9336    0.4927    0.0000 C   0  0  0  0  0  0  0  0  0  0  0  0
    6.4016    0.8007    0.0000 C   0  0  0  0  0  0  0  0  0  0  0  0
    7.0154    2.1694    0.0000 C   0  0  0  0  0  0  0  0  0  0  0  0
    8.5067    2.0086    0.0000 C   0  0  0  0  0  0  0  0  0  0  0  0
    8.8147    0.5406    0.0000 O   0  0  0  0  0  0  0  0  0  0  0  0
    7.5137   -0.2060    0.0000 C   0  0  0  0  0  0  0  0  0  0  0  0
    3.9329    1.6101    0.0000 C   0  0  0  0  0  0  0  0  0  0  0  0
    2.4648    1.3021    0.0000 C   0  0  0  0  0  0  0  0  0  0  0  0
    1.9975   -0.1233    0.0000 C   0  0  0  0  0  0  0  0  0  0  0  0
    0.9968    0.9941    0.0000 C   0  0  0  0  0  0  0  0  0  0  0  0
    0.5295   -0.4312    0.0000 C   0  0  0  0  0  0  0  0  0  0  0  0
   -0.4713    0.6861    0.0000 C   0  0  0  0  0  0  0  0  0  0  0  0
   -1.9393    0.3782    0.0000 C   0  0  0  0  0  0  0  0  0  0  0  0
   -2.9400    1.4955    0.0000 O   0  0  0  0  0  0  0  0  0  0  0  0
   -2.4066   -1.0472    0.0000 C   0  0  0  0  0  0  0  0  0  0  0  0
   -3.5187   -0.0405    0.0000 C   0  0  0  0  0  0  0  0  0  0  0  0
  2  1  1  6
  2  3  1  0
  3  4  1  0
  4  5  1  0
  5  6  2  0
  5  7  1  0
  2  8  1  0
  8  9  1  6
  9 10  1  0
 11 10  1  6
 11 12  1  0
 12 13  1  1
 13 14  1  0
 15 14  1  1
 15 16  1  0
 16 17  1  0
 17 18  1  1
 18 19  1  0
 19 20  2  0
 20 21  1  0
 21 22  1  0
 17 23  1  0
 23 24  1  0
 24 25  1  0
 25 26  1  6
 25 27  1  0
 27 28  1  6
 28 29  1  0
 29 30  1  1
 29 31  1  0
 31 32  1  6
 31  8  1  0
 31 11  1  0
 27 12  1  0
 25 15  1  0
 22 18  2  0
M  END
>  <MS_ID>  (2603) 
MS2694

>  <SMILES>  (2603) 
C[C@H](CCC(=O)O)[C@H]1CC[C@H]2[C@@H]3CC[C@@H]4C[C@H](c5ccoc5)CC[C@]4(C)[C@H]3C[C@H](O)[C@]12C

>  <Structure_dimension>  (2603) 
2D

$$$$
MS2695
     RDKit          2D

 35 38  0  0  0  0  0  0  0  0999 V2000
   -1.8798   -4.2575    0.0000 C   0  0  0  0  0  0  0  0  0  0  0  0
   -1.1658   -2.9383    0.0000 C   0  0  0  0  0  0  0  0  0  0  0  0
   -1.9512   -1.6604    0.0000 C   0  0  0  0  0  0  0  0  0  0  0  0
   -3.4506   -1.7016    0.0000 C   0  0  0  0  0  0  0  0  0  0  0  0
   -4.2361   -0.4237    0.0000 C   0  0  0  0  0  0  0  0  0  0  0  0
   -3.5221    0.8955    0.0000 O   0  0  0  0  0  0  0  0  0  0  0  0
   -5.7355   -0.4649    0.0000 O   0  0  0  0  0  0  0  0  0  0  0  0
   -6.5209    0.8130    0.0000 C   0  0  0  0  0  0  0  0  0  0  0  0
   -8.0204    0.7717    0.0000 C   0  0  0  0  0  0  0  0  0  0  0  0
   -8.8058    2.0497    0.0000 C   0  0  0  0  0  0  0  0  0  0  0  0
  -10.3052    2.0084    0.0000 C   0  0  0  0  0  0  0  0  0  0  0  0
  -11.0192    0.6893    0.0000 O   0  0  0  0  0  0  0  0  0  0  0  0
  -11.0906    3.2864    0.0000 O   0  0  0  0  0  0  0  0  0  0  0  0
    0.3337   -2.8971    0.0000 C   0  0  0  0  0  0  0  0  0  0  0  0
    1.2484   -4.0859    0.0000 C   0  0  0  0  0  0  0  0  0  0  0  0
    2.6617   -3.5834    0.0000 C   0  0  0  0  0  0  0  0  0  0  0  0
    2.6204   -2.0839    0.0000 C   0  0  0  0  0  0  0  0  0  0  0  0
    3.7071   -1.0500    0.0000 C   0  0  0  0  0  0  0  0  0  0  0  0
    5.1459   -1.4741    0.0000 C   0  0  0  0  0  0  0  0  0  0  0  0
    5.4980   -2.9322    0.0000 O   0  0  0  0  0  0  0  0  0  0  0  0
    6.2326   -0.4401    0.0000 C   0  0  0  0  0  0  0  0  0  0  0  0
    5.8805    1.0180    0.0000 C   0  0  0  0  0  0  0  0  0  0  0  0
    6.9672    2.0519    0.0000 C   0  0  0  0  0  0  0  0  0  0  0  0
    6.6152    3.5100    0.0000 C   0  0  0  0  0  0  0  0  0  0  0  0
    7.7019    4.5440    0.0000 O   0  0  0  0  0  0  0  0  0  0  0  0
    5.1764    3.9341    0.0000 C   0  0  0  0  0  0  0  0  0  0  0  0
    4.0897    2.9002    0.0000 C   0  0  0  0  0  0  0  0  0  0  0  0
    4.4418    1.4421    0.0000 C   0  0  0  0  0  0  0  0  0  0  0  0
    3.0030    1.8662    0.0000 C   0  0  0  0  0  0  0  0  0  0  0  0
    3.3551    0.4081    0.0000 C   0  0  0  0  0  0  0  0  0  0  0  0
    1.9163    0.8323    0.0000 C   0  0  0  0  0  0  0  0  0  0  0  0
    0.8296   -0.2017    0.0000 C   0  0  0  0  0  0  0  0  0  0  0  0
   -0.6092    0.2224    0.0000 O   0  0  0  0  0  0  0  0  0  0  0  0
    1.1816   -1.6598    0.0000 C   0  0  0  0  0  0  0  0  0  0  0  0
   -0.2936   -1.3884    0.0000 C   0  0  0  0  0  0  0  0  0  0  0  0
  2  1  1  6
  2  3  1  0
  3  4  1  0
  4  5  1  0
  5  6  2  0
  5  7  1  0
  7  8  1  0
  8  9  1  0
  9 10  1  0
 10 11  1  0
 11 12  2  0
 11 13  1  0
  2 14  1  0
 14 15  1  6
 15 16  1  0
 17 16  1  6
 17 18  1  0
 18 19  1  1
 19 20  1  1
 19 21  1  0
 22 21  1  1
 22 23  1  0
 23 24  1  0
 24 25  1  1
 24 26  1  0
 26 27  1  0
 27 28  1  0
 28 29  1  6
 28 30  1  0
 30 31  1  6
 31 32  1  0
 32 33  1  1
 32 34  1  0
 34 35  1  6
 34 14  1  0
 34 17  1  0
 30 18  1  0
 28 22  1  0
M  END
>  <MS_ID>  (2604) 
MS2695

>  <SMILES>  (2604) 
C[C@H](CCC(=O)OCCCC(=O)O)[C@H]1CC[C@H]2[C@@H]3[C@H](O)C[C@@H]4C[C@H](O)CC[C@]4(C)[C@H]3C[C@H](O)[C@]12C

>  <Structure_dimension>  (2604) 
2D

$$$$
MS2696
     RDKit          2D

 33 36  0  0  0  0  0  0  0  0999 V2000
   -5.3592   -2.7144    0.0000 C   0  0  0  0  0  0  0  0  0  0  0  0
   -4.4261   -1.5400    0.0000 C   0  0  0  0  0  0  0  0  0  0  0  0
   -4.9766   -0.1446    0.0000 C   0  0  0  0  0  0  0  0  0  0  0  0
   -6.4602    0.0763    0.0000 C   0  0  0  0  0  0  0  0  0  0  0  0
   -7.0108    1.4716    0.0000 C   0  0  0  0  0  0  0  0  0  0  0  0
   -6.0776    2.6460    0.0000 O   0  0  0  0  0  0  0  0  0  0  0  0
   -8.4944    1.6925    0.0000 O   0  0  0  0  0  0  0  0  0  0  0  0
   -2.9424   -1.7609    0.0000 C   0  0  0  0  0  0  0  0  0  0  0  0
   -2.2491   -3.0910    0.0000 C   0  0  0  0  0  0  0  0  0  0  0  0
   -0.7698   -2.8426    0.0000 C   0  0  0  0  0  0  0  0  0  0  0  0
   -0.5489   -1.3589    0.0000 C   0  0  0  0  0  0  0  0  0  0  0  0
    0.7015   -0.5304    0.0000 C   0  0  0  0  0  0  0  0  0  0  0  0
    2.0443   -1.1989    0.0000 C   0  0  0  0  0  0  0  0  0  0  0  0
    2.1367   -2.6961    0.0000 O   0  0  0  0  0  0  0  0  0  0  0  0
    3.2946   -0.3703    0.0000 C   0  0  0  0  0  0  0  0  0  0  0  0
    4.6374   -1.0389    0.0000 O   0  0  0  0  0  0  0  0  0  0  0  0
    4.7298   -2.5360    0.0000 S   0  0  0  0  0  0  0  0  0  0  0  0
    3.2327   -2.6284    0.0000 O   0  0  0  0  0  0  0  0  0  0  0  0
    6.2270   -2.4436    0.0000 O   0  0  0  0  0  0  0  0  0  0  0  0
    4.8222   -4.0332    0.0000 O   0  0  0  0  0  0  0  0  0  0  0  0
    3.2022    1.1268    0.0000 C   0  0  0  0  0  0  0  0  0  0  0  0
    4.4526    1.9554    0.0000 C   0  0  0  0  0  0  0  0  0  0  0  0
    4.3602    3.4526    0.0000 C   0  0  0  0  0  0  0  0  0  0  0  0
    5.6106    4.2812    0.0000 O   0  0  0  0  0  0  0  0  0  0  0  0
    3.0174    4.1211    0.0000 C   0  0  0  0  0  0  0  0  0  0  0  0
    1.7671    3.2925    0.0000 C   0  0  0  0  0  0  0  0  0  0  0  0
    1.8595    1.7954    0.0000 C   0  0  0  0  0  0  0  0  0  0  0  0
    0.5167    2.4640    0.0000 C   0  0  0  0  0  0  0  0  0  0  0  0
    0.6091    0.9668    0.0000 C   0  0  0  0  0  0  0  0  0  0  0  0
   -0.7337    1.6354    0.0000 C   0  0  0  0  0  0  0  0  0  0  0  0
   -1.9841    0.8068    0.0000 C   0  0  0  0  0  0  0  0  0  0  0  0
   -1.8917   -0.6904    0.0000 C   0  0  0  0  0  0  0  0  0  0  0  0
   -3.2970   -0.1659    0.0000 C   0  0  0  0  0  0  0  0  0  0  0  0
  2  1  1  6
  2  3  1  0
  3  4  1  0
  4  5  1  0
  5  6  2  0
  5  7  1  0
  2  8  1  0
  8  9  1  6
  9 10  1  0
 11 10  1  6
 11 12  1  0
 12 13  1  1
 13 14  1  1
 13 15  1  0
 15 16  1  1
 16 17  1  0
 17 18  2  0
 17 19  2  0
 17 20  1  0
 15 21  1  0
 21 22  1  1
 22 23  1  0
 23 24  1  1
 23 25  1  0
 25 26  1  0
 26 27  1  0
 27 28  1  6
 27 29  1  0
 29 30  1  6
 30 31  1  0
 31 32  1  0
 32 33  1  6
 32  8  1  0
 32 11  1  0
 29 12  1  0
 27 21  1  0
M  END
>  <MS_ID>  (2605) 
MS2696

>  <SMILES>  (2605) 
C[C@H](CCC(=O)O)[C@H]1CC[C@H]2[C@@H]3[C@H](O)[C@H](OS(=O)(=O)O)[C@@H]4C[C@H](O)CC[C@]4(C)[C@H]3CC[C@]12C

>  <Structure_dimension>  (2605) 
2D

$$$$
MS2697
     RDKit          2D

 31 34  0  0  0  0  0  0  0  0999 V2000
   -5.0146   -2.6187    0.0000 C   0  0  0  0  0  0  0  0  0  0  0  0
   -4.0672   -1.4557    0.0000 C   0  0  0  0  0  0  0  0  0  0  0  0
   -4.6007   -0.0538    0.0000 C   0  0  0  0  0  0  0  0  0  0  0  0
   -6.0816    0.1851    0.0000 C   0  0  0  0  0  0  0  0  0  0  0  0
   -6.6150    1.5871    0.0000 C   0  0  0  0  0  0  0  0  0  0  0  0
   -5.6677    2.7500    0.0000 O   0  0  0  0  0  0  0  0  0  0  0  0
   -8.0959    1.8260    0.0000 O   0  0  0  0  0  0  0  0  0  0  0  0
   -2.5864   -1.6947    0.0000 C   0  0  0  0  0  0  0  0  0  0  0  0
   -1.9093   -3.0332    0.0000 C   0  0  0  0  0  0  0  0  0  0  0  0
   -0.4271   -2.8029    0.0000 C   0  0  0  0  0  0  0  0  0  0  0  0
   -0.1881   -1.3220    0.0000 C   0  0  0  0  0  0  0  0  0  0  0  0
    1.0722   -0.5087    0.0000 C   0  0  0  0  0  0  0  0  0  0  0  0
    2.4068   -1.1936    0.0000 C   0  0  0  0  0  0  0  0  0  0  0  0
    2.4809   -2.6918    0.0000 N   0  0  0  0  0  0  0  0  0  0  0  0
    3.8154   -3.3767    0.0000 C   0  0  0  0  0  0  0  0  0  0  0  0
    3.8896   -4.8748    0.0000 C   0  0  0  0  0  0  0  0  0  0  0  0
    5.2241   -5.5597    0.0000 N   0  0  0  0  0  0  0  0  0  0  0  0
    3.6671   -0.3803    0.0000 C   0  0  0  0  0  0  0  0  0  0  0  0
    3.5930    1.1178    0.0000 C   0  0  0  0  0  0  0  0  0  0  0  0
    4.8534    1.9311    0.0000 C   0  0  0  0  0  0  0  0  0  0  0  0
    4.7792    3.4293    0.0000 C   0  0  0  0  0  0  0  0  0  0  0  0
    6.0396    4.2426    0.0000 O   0  0  0  0  0  0  0  0  0  0  0  0
    3.4447    4.1142    0.0000 C   0  0  0  0  0  0  0  0  0  0  0  0
    2.1843    3.3009    0.0000 C   0  0  0  0  0  0  0  0  0  0  0  0
    2.2585    1.8027    0.0000 C   0  0  0  0  0  0  0  0  0  0  0  0
    0.9240    2.4876    0.0000 C   0  0  0  0  0  0  0  0  0  0  0  0
    0.9981    0.9894    0.0000 C   0  0  0  0  0  0  0  0  0  0  0  0
   -0.3364    1.6743    0.0000 C   0  0  0  0  0  0  0  0  0  0  0  0
   -1.5968    0.8610    0.0000 C   0  0  0  0  0  0  0  0  0  0  0  0
   -1.5227   -0.6371    0.0000 C   0  0  0  0  0  0  0  0  0  0  0  0
   -2.9215   -0.0955    0.0000 C   0  0  0  0  0  0  0  0  0  0  0  0
  2  1  1  6
  2  3  1  0
  3  4  1  0
  4  5  1  0
  5  6  2  0
  5  7  1  0
  2  8  1  0
  8  9  1  6
  9 10  1  0
 11 10  1  6
 11 12  1  0
 12 13  1  1
 13 14  1  6
 14 15  1  0
 15 16  1  0
 16 17  1  0
 13 18  1  0
 19 18  1  1
 19 20  1  0
 20 21  1  0
 21 22  1  1
 21 23  1  0
 23 24  1  0
 24 25  1  0
 25 26  1  6
 25 27  1  0
 27 28  1  6
 28 29  1  0
 29 30  1  0
 30 31  1  6
 30  8  1  0
 30 11  1  0
 27 12  1  0
 25 19  1  0
M  END
>  <MS_ID>  (2606) 
MS2697

>  <SMILES>  (2606) 
C[C@H](CCC(=O)O)[C@H]1CC[C@H]2[C@@H]3[C@@H](NCCN)C[C@@H]4C[C@H](O)CC[C@]4(C)[C@H]3CC[C@]12C

>  <Structure_dimension>  (2606) 
2D

$$$$
MS2698
     RDKit          2D

 36 39  0  0  0  0  0  0  0  0999 V2000
    0.4642    5.6949    0.0000 C   0  0  0  0  0  0  0  0  0  0  0  0
    0.2146    4.2158    0.0000 C   0  0  0  0  0  0  0  0  0  0  0  0
    1.3708    3.2601    0.0000 C   0  0  0  0  0  0  0  0  0  0  0  0
    2.7765    3.7836    0.0000 C   0  0  0  0  0  0  0  0  0  0  0  0
    3.9327    2.8279    0.0000 C   0  0  0  0  0  0  0  0  0  0  0  0
    5.3384    3.3514    0.0000 O   0  0  0  0  0  0  0  0  0  0  0  0
    3.6831    1.3488    0.0000 O   0  0  0  0  0  0  0  0  0  0  0  0
    4.8393    0.3932    0.0000 C   0  0  0  0  0  0  0  0  0  0  0  0
    6.2450    0.9166    0.0000 O   0  0  0  0  0  0  0  0  0  0  0  0
    4.5898   -1.0859    0.0000 N   0  0  0  0  0  0  0  0  0  0  0  0
    5.7459   -2.0416    0.0000 C   0  0  0  0  0  0  0  0  0  0  0  0
    5.4964   -3.5207    0.0000 C   0  0  0  0  0  0  0  0  0  0  0  0
    6.6526   -4.4763    0.0000 C   0  0  0  0  0  0  0  0  0  0  0  0
    8.0583   -3.9529    0.0000 O   0  0  0  0  0  0  0  0  0  0  0  0
    6.4031   -5.9554    0.0000 O   0  0  0  0  0  0  0  0  0  0  0  0
   -1.1911    3.6923    0.0000 C   0  0  0  0  0  0  0  0  0  0  0  0
   -2.4408    4.5219    0.0000 C   0  0  0  0  0  0  0  0  0  0  0  0
   -3.6160    3.5897    0.0000 C   0  0  0  0  0  0  0  0  0  0  0  0
   -3.0925    2.1840    0.0000 C   0  0  0  0  0  0  0  0  0  0  0  0
   -3.7869    0.8544    0.0000 C   0  0  0  0  0  0  0  0  0  0  0  0
   -5.2856    0.7909    0.0000 C   0  0  0  0  0  0  0  0  0  0  0  0
   -5.9799   -0.5387    0.0000 C   0  0  0  0  0  0  0  0  0  0  0  0
   -5.1757   -1.8048    0.0000 C   0  0  0  0  0  0  0  0  0  0  0  0
   -5.8701   -3.1344    0.0000 C   0  0  0  0  0  0  0  0  0  0  0  0
   -5.0658   -4.4006    0.0000 C   0  0  0  0  0  0  0  0  0  0  0  0
   -5.7602   -5.7302    0.0000 O   0  0  0  0  0  0  0  0  0  0  0  0
   -3.5671   -4.3371    0.0000 C   0  0  0  0  0  0  0  0  0  0  0  0
   -2.8727   -3.0075    0.0000 C   0  0  0  0  0  0  0  0  0  0  0  0
   -3.6770   -1.7414    0.0000 C   0  0  0  0  0  0  0  0  0  0  0  0
   -2.1784   -1.6779    0.0000 C   0  0  0  0  0  0  0  0  0  0  0  0
   -2.9826   -0.4118    0.0000 C   0  0  0  0  0  0  0  0  0  0  0  0
   -1.4840   -0.3483    0.0000 C   0  0  0  0  0  0  0  0  0  0  0  0
   -0.7896    0.9812    0.0000 C   0  0  0  0  0  0  0  0  0  0  0  0
    0.7091    1.0447    0.0000 O   0  0  0  0  0  0  0  0  0  0  0  0
   -1.5939    2.2474    0.0000 C   0  0  0  0  0  0  0  0  0  0  0  0
   -0.1100    2.4671    0.0000 C   0  0  0  0  0  0  0  0  0  0  0  0
  2  1  1  6
  2  3  1  0
  3  4  1  0
  4  5  1  0
  5  6  2  0
  5  7  1  0
  7  8  1  0
  8  9  2  0
  8 10  1  0
 10 11  1  0
 11 12  1  0
 12 13  1  0
 13 14  2  0
 13 15  1  0
  2 16  1  0
 16 17  1  6
 17 18  1  0
 19 18  1  6
 19 20  1  0
 20 21  1  1
 21 22  1  0
 23 22  1  1
 23 24  1  0
 24 25  1  0
 25 26  1  1
 25 27  1  0
 27 28  1  0
 28 29  1  0
 29 30  1  6
 29 31  1  0
 31 32  1  6
 32 33  1  0
 33 34  1  1
 33 35  1  0
 35 36  1  6
 35 16  1  0
 35 19  1  0
 31 20  1  0
 29 23  1  0
M  END
>  <MS_ID>  (2607) 
MS2698

>  <SMILES>  (2607) 
C[C@H](CCC(=O)OC(=O)NCCC(=O)O)[C@H]1CC[C@H]2[C@@H]3CC[C@@H]4C[C@H](O)CC[C@]4(C)[C@H]3C[C@H](O)[C@]12C

>  <Structure_dimension>  (2607) 
2D

$$$$
MS2699
     RDKit          2D

 31 34  0  0  0  0  0  0  0  0999 V2000
   -3.5119   -3.5779    0.0000 C   0  0  0  0  0  0  0  0  0  0  0  0
   -2.6109   -2.3787    0.0000 C   0  0  0  0  0  0  0  0  0  0  0  0
   -3.1991   -0.9988    0.0000 C   0  0  0  0  0  0  0  0  0  0  0  0
   -4.6881   -0.8181    0.0000 C   0  0  0  0  0  0  0  0  0  0  0  0
   -5.2762    0.5618    0.0000 C   0  0  0  0  0  0  0  0  0  0  0  0
   -4.3753    1.7610    0.0000 O   0  0  0  0  0  0  0  0  0  0  0  0
   -6.7653    0.7424    0.0000 N   0  0  0  0  0  0  0  0  0  0  0  0
   -7.3534    2.1223    0.0000 C   0  0  0  0  0  0  0  0  0  0  0  0
   -8.8425    2.3029    0.0000 C   0  0  0  0  0  0  0  0  0  0  0  0
   -9.4306    3.6828    0.0000 O   0  0  0  0  0  0  0  0  0  0  0  0
   -1.1219   -2.5593    0.0000 C   0  0  0  0  0  0  0  0  0  0  0  0
   -0.3927   -3.8702    0.0000 C   0  0  0  0  0  0  0  0  0  0  0  0
    1.0793   -3.5818    0.0000 C   0  0  0  0  0  0  0  0  0  0  0  0
    1.2599   -2.0927    0.0000 C   0  0  0  0  0  0  0  0  0  0  0  0
    2.4874   -1.2306    0.0000 C   0  0  0  0  0  0  0  0  0  0  0  0
    3.8478   -1.8625    0.0000 C   0  0  0  0  0  0  0  0  0  0  0  0
    3.9807   -3.3566    0.0000 O   0  0  0  0  0  0  0  0  0  0  0  0
    5.0753   -1.0003    0.0000 C   0  0  0  0  0  0  0  0  0  0  0  0
    4.9423    0.4938    0.0000 C   0  0  0  0  0  0  0  0  0  0  0  0
    6.1698    1.3559    0.0000 C   0  0  0  0  0  0  0  0  0  0  0  0
    6.0369    2.8500    0.0000 C   0  0  0  0  0  0  0  0  0  0  0  0
    7.2644    3.7122    0.0000 O   0  0  0  0  0  0  0  0  0  0  0  0
    4.6765    3.4820    0.0000 C   0  0  0  0  0  0  0  0  0  0  0  0
    3.4490    2.6198    0.0000 C   0  0  0  0  0  0  0  0  0  0  0  0
    3.5820    1.1257    0.0000 C   0  0  0  0  0  0  0  0  0  0  0  0
    2.2216    1.7576    0.0000 C   0  0  0  0  0  0  0  0  0  0  0  0
    2.3545    0.2635    0.0000 C   0  0  0  0  0  0  0  0  0  0  0  0
    0.9941    0.8955    0.0000 C   0  0  0  0  0  0  0  0  0  0  0  0
   -0.2334    0.0333    0.0000 C   0  0  0  0  0  0  0  0  0  0  0  0
   -0.1005   -1.4608    0.0000 C   0  0  0  0  0  0  0  0  0  0  0  0
   -1.5195   -0.9745    0.0000 C   0  0  0  0  0  0  0  0  0  0  0  0
  2  1  1  6
  2  3  1  0
  3  4  1  0
  4  5  1  0
  5  6  2  0
  5  7  1  0
  7  8  1  0
  8  9  1  0
  9 10  1  0
  2 11  1  0
 11 12  1  6
 12 13  1  0
 14 13  1  6
 14 15  1  0
 15 16  1  1
 16 17  1  6
 16 18  1  0
 19 18  1  1
 19 20  1  0
 20 21  1  0
 21 22  2  0
 21 23  1  0
 23 24  1  0
 24 25  1  0
 25 26  1  6
 25 27  1  0
 27 28  1  6
 28 29  1  0
 29 30  1  0
 30 31  1  6
 30 11  1  0
 30 14  1  0
 27 15  1  0
 25 19  1  0
M  END
>  <MS_ID>  (2608) 
MS2699

>  <SMILES>  (2608) 
C[C@H](CCC(=O)NCCO)[C@H]1CC[C@H]2[C@@H]3[C@@H](O)C[C@@H]4CC(=O)CC[C@]4(C)[C@H]3CC[C@]12C

>  <Structure_dimension>  (2608) 
2D

$$$$
MS2700
     RDKit          2D

 33 36  0  0  0  0  0  0  0  0999 V2000
   -3.1806   -3.8669    0.0000 C   0  0  0  0  0  0  0  0  0  0  0  0
   -2.3309   -2.6308    0.0000 C   0  0  0  0  0  0  0  0  0  0  0  0
   -2.9766   -1.2768    0.0000 C   0  0  0  0  0  0  0  0  0  0  0  0
   -4.4719   -1.1590    0.0000 C   0  0  0  0  0  0  0  0  0  0  0  0
   -5.1176    0.1949    0.0000 C   0  0  0  0  0  0  0  0  0  0  0  0
   -4.2679    1.4310    0.0000 O   0  0  0  0  0  0  0  0  0  0  0  0
   -6.6130    0.3127    0.0000 O   0  0  0  0  0  0  0  0  0  0  0  0
   -7.2586    1.6666    0.0000 C   0  0  0  0  0  0  0  0  0  0  0  0
   -8.7540    1.7844    0.0000 C   0  0  0  0  0  0  0  0  0  0  0  0
   -6.4089    2.9027    0.0000 C   0  0  0  0  0  0  0  0  0  0  0  0
   -7.0546    4.2567    0.0000 O   0  0  0  0  0  0  0  0  0  0  0  0
   -0.8355   -2.7486    0.0000 C   0  0  0  0  0  0  0  0  0  0  0  0
   -0.0519   -4.0276    0.0000 C   0  0  0  0  0  0  0  0  0  0  0  0
    1.4067   -3.6775    0.0000 C   0  0  0  0  0  0  0  0  0  0  0  0
    1.5245   -2.1822    0.0000 C   0  0  0  0  0  0  0  0  0  0  0  0
    2.7146   -1.2691    0.0000 C   0  0  0  0  0  0  0  0  0  0  0  0
    4.1004   -1.8432    0.0000 C   0  0  0  0  0  0  0  0  0  0  0  0
    4.2961   -3.3304    0.0000 O   0  0  0  0  0  0  0  0  0  0  0  0
    5.2905   -0.9302    0.0000 C   0  0  0  0  0  0  0  0  0  0  0  0
    5.0948    0.5570    0.0000 C   0  0  0  0  0  0  0  0  0  0  0  0
    6.2849    1.4700    0.0000 C   0  0  0  0  0  0  0  0  0  0  0  0
    6.0892    2.9572    0.0000 C   0  0  0  0  0  0  0  0  0  0  0  0
    7.2793    3.8703    0.0000 O   0  0  0  0  0  0  0  0  0  0  0  0
    4.7035    3.5313    0.0000 C   0  0  0  0  0  0  0  0  0  0  0  0
    3.5134    2.6183    0.0000 C   0  0  0  0  0  0  0  0  0  0  0  0
    3.7090    1.1311    0.0000 C   0  0  0  0  0  0  0  0  0  0  0  0
    2.3233    1.7052    0.0000 C   0  0  0  0  0  0  0  0  0  0  0  0
    2.5189    0.2181    0.0000 C   0  0  0  0  0  0  0  0  0  0  0  0
    1.1332    0.7922    0.0000 C   0  0  0  0  0  0  0  0  0  0  0  0
   -0.0569   -0.1209    0.0000 C   0  0  0  0  0  0  0  0  0  0  0  0
   -1.4427    0.4533    0.0000 O   0  0  0  0  0  0  0  0  0  0  0  0
    0.1387   -1.6080    0.0000 C   0  0  0  0  0  0  0  0  0  0  0  0
   -1.2995   -1.1819    0.0000 C   0  0  0  0  0  0  0  0  0  0  0  0
  2  1  1  6
  2  3  1  0
  3  4  1  0
  4  5  1  0
  5  6  2  0
  5  7  1  0
  7  8  1  0
  8  9  1  1
  8 10  1  0
 10 11  1  0
  2 12  1  0
 12 13  1  6
 13 14  1  0
 15 14  1  6
 15 16  1  0
 16 17  1  1
 17 18  1  1
 17 19  1  0
 20 19  1  1
 20 21  1  0
 21 22  1  0
 22 23  1  1
 22 24  1  0
 24 25  1  0
 25 26  1  0
 26 27  1  6
 26 28  1  0
 28 29  1  6
 29 30  1  0
 30 31  1  1
 30 32  1  0
 32 33  1  6
 32 12  1  0
 32 15  1  0
 28 16  1  0
 26 20  1  0
M  END
>  <MS_ID>  (2609) 
MS2700

>  <SMILES>  (2609) 
C[C@H](CCC(=O)O[C@@H](C)CO)[C@H]1CC[C@H]2[C@@H]3[C@H](O)C[C@@H]4C[C@H](O)CC[C@]4(C)[C@H]3C[C@H](O)[C@]12C

>  <Structure_dimension>  (2609) 
2D

$$$$
MS2701
     RDKit          2D

 36 41  0  0  0  0  0  0  0  0999 V2000
   -2.0223   -3.6258    0.0000 C   0  0  0  0  0  0  0  0  0  0  0  0
   -1.1389   -2.4135    0.0000 C   0  0  0  0  0  0  0  0  0  0  0  0
   -1.7470   -1.0424    0.0000 C   0  0  0  0  0  0  0  0  0  0  0  0
   -3.2386   -0.8834    0.0000 C   0  0  0  0  0  0  0  0  0  0  0  0
   -3.8467    0.4878    0.0000 C   0  0  0  0  0  0  0  0  0  0  0  0
   -2.9633    1.7000    0.0000 O   0  0  0  0  0  0  0  0  0  0  0  0
   -5.3383    0.6467    0.0000 N   0  0  0  0  0  0  0  0  0  0  0  0
   -6.0864    1.9468    0.0000 C   0  0  0  0  0  0  0  0  0  0  0  0
   -7.5541    1.6371    0.0000 C   0  0  0  0  0  0  0  0  0  0  0  0
   -8.7663    2.5205    0.0000 C   0  0  0  0  0  0  0  0  0  0  0  0
  -10.1375    1.9124    0.0000 C   0  0  0  0  0  0  0  0  0  0  0  0
  -10.2965    0.4208    0.0000 C   0  0  0  0  0  0  0  0  0  0  0  0
   -9.0842   -0.4626    0.0000 C   0  0  0  0  0  0  0  0  0  0  0  0
   -7.7130    0.1455    0.0000 C   0  0  0  0  0  0  0  0  0  0  0  0
   -6.3436   -0.4666    0.0000 C   0  0  0  0  0  0  0  0  0  0  0  0
    0.3526   -2.5725    0.0000 C   0  0  0  0  0  0  0  0  0  0  0  0
    1.1008   -3.8726    0.0000 C   0  0  0  0  0  0  0  0  0  0  0  0
    2.5685   -3.5628    0.0000 C   0  0  0  0  0  0  0  0  0  0  0  0
    2.7274   -2.0713    0.0000 C   0  0  0  0  0  0  0  0  0  0  0  0
    3.9422   -1.1913    0.0000 C   0  0  0  0  0  0  0  0  0  0  0  0
    5.3116   -1.8034    0.0000 C   0  0  0  0  0  0  0  0  0  0  0  0
    5.4663   -3.2954    0.0000 O   0  0  0  0  0  0  0  0  0  0  0  0
    6.5264   -0.9235    0.0000 C   0  0  0  0  0  0  0  0  0  0  0  0
    6.3718    0.5685    0.0000 C   0  0  0  0  0  0  0  0  0  0  0  0
    7.5866    1.4484    0.0000 C   0  0  0  0  0  0  0  0  0  0  0  0
    7.4319    2.9405    0.0000 C   0  0  0  0  0  0  0  0  0  0  0  0
    8.6467    3.8204    0.0000 O   0  0  0  0  0  0  0  0  0  0  0  0
    6.0625    3.5525    0.0000 C   0  0  0  0  0  0  0  0  0  0  0  0
    4.8477    2.6726    0.0000 C   0  0  0  0  0  0  0  0  0  0  0  0
    5.0023    1.1806    0.0000 C   0  0  0  0  0  0  0  0  0  0  0  0
    3.6329    1.7927    0.0000 C   0  0  0  0  0  0  0  0  0  0  0  0
    3.7875    0.3007    0.0000 C   0  0  0  0  0  0  0  0  0  0  0  0
    2.4181    0.9127    0.0000 C   0  0  0  0  0  0  0  0  0  0  0  0
    1.2033    0.0328    0.0000 C   0  0  0  0  0  0  0  0  0  0  0  0
    1.3579   -1.4592    0.0000 C   0  0  0  0  0  0  0  0  0  0  0  0
   -0.0680   -0.9936    0.0000 C   0  0  0  0  0  0  0  0  0  0  0  0
  2  1  1  6
  2  3  1  0
  3  4  1  0
  4  5  1  0
  5  6  2  0
  5  7  1  0
  7  8  1  0
  8  9  1  0
  9 10  2  0
 10 11  1  0
 11 12  2  0
 12 13  1  0
 13 14  2  0
 14 15  1  0
  2 16  1  0
 16 17  1  6
 17 18  1  0
 19 18  1  6
 19 20  1  0
 20 21  1  1
 21 22  1  1
 21 23  1  0
 24 23  1  1
 24 25  1  0
 25 26  1  0
 26 27  1  1
 26 28  1  0
 28 29  1  0
 29 30  1  0
 30 31  1  6
 30 32  1  0
 32 33  1  6
 33 34  1  0
 34 35  1  0
 35 36  1  6
 15  7  1  0
 35 16  1  0
 14  9  1  0
 35 19  1  0
 32 20  1  0
 30 24  1  0
M  END
>  <MS_ID>  (2610) 
MS2701

>  <SMILES>  (2610) 
C[C@H](CCC(=O)N1Cc2ccccc2C1)[C@H]1CC[C@H]2[C@@H]3[C@H](O)C[C@@H]4C[C@H](O)CC[C@]4(C)[C@H]3CC[C@]12C

>  <Structure_dimension>  (2610) 
2D

$$$$
MS2702
     RDKit          2D

 29 32  0  0  0  0  0  0  0  0999 V2000
   -5.1421   -2.1269    0.0000 C   0  0  0  0  0  0  0  0  0  0  0  0
   -4.0091   -1.1439    0.0000 C   0  0  0  0  0  0  0  0  0  0  0  0
   -4.2938    0.3288    0.0000 C   0  0  0  0  0  0  0  0  0  0  0  0
   -5.7116    0.8186    0.0000 C   0  0  0  0  0  0  0  0  0  0  0  0
   -5.9963    2.2913    0.0000 C   0  0  0  0  0  0  0  0  0  0  0  0
   -4.8632    3.2743    0.0000 O   0  0  0  0  0  0  0  0  0  0  0  0
   -7.4141    2.7811    0.0000 O   0  0  0  0  0  0  0  0  0  0  0  0
   -2.5913   -1.6337    0.0000 C   0  0  0  0  0  0  0  0  0  0  0  0
   -2.1542   -3.0686    0.0000 C   0  0  0  0  0  0  0  0  0  0  0  0
   -0.6544   -3.0963    0.0000 C   0  0  0  0  0  0  0  0  0  0  0  0
   -0.1646   -1.6785    0.0000 C   0  0  0  0  0  0  0  0  0  0  0  0
    1.2167   -1.0938    0.0000 C   0  0  0  0  0  0  0  0  0  0  0  0
    2.4137   -1.9977    0.0000 C   0  0  0  0  0  0  0  0  0  0  0  0
    2.2294   -3.4864    0.0000 N   0  0  0  0  0  0  0  0  0  0  0  0
    3.4265   -4.3903    0.0000 O   0  0  0  0  0  0  0  0  0  0  0  0
    3.7951   -1.4130    0.0000 C   0  0  0  0  0  0  0  0  0  0  0  0
    3.9794    0.0756    0.0000 C   0  0  0  0  0  0  0  0  0  0  0  0
    5.3607    0.6603    0.0000 C   0  0  0  0  0  0  0  0  0  0  0  0
    5.5451    2.1489    0.0000 C   0  0  0  0  0  0  0  0  0  0  0  0
    6.9264    2.7336    0.0000 O   0  0  0  0  0  0  0  0  0  0  0  0
    4.3480    3.0529    0.0000 C   0  0  0  0  0  0  0  0  0  0  0  0
    2.9667    2.4682    0.0000 C   0  0  0  0  0  0  0  0  0  0  0  0
    2.7824    0.9795    0.0000 C   0  0  0  0  0  0  0  0  0  0  0  0
    1.5853    1.8835    0.0000 C   0  0  0  0  0  0  0  0  0  0  0  0
    1.4010    0.3948    0.0000 C   0  0  0  0  0  0  0  0  0  0  0  0
    0.2040    1.2988    0.0000 C   0  0  0  0  0  0  0  0  0  0  0  0
   -1.1774    0.7141    0.0000 C   0  0  0  0  0  0  0  0  0  0  0  0
   -1.3617   -0.7746    0.0000 C   0  0  0  0  0  0  0  0  0  0  0  0
   -2.6467   -0.0007    0.0000 C   0  0  0  0  0  0  0  0  0  0  0  0
  2  1  1  6
  2  3  1  0
  3  4  1  0
  4  5  1  0
  5  6  2  0
  5  7  1  0
  2  8  1  0
  8  9  1  6
  9 10  1  0
 11 10  1  6
 11 12  1  0
 12 13  1  1
 13 14  2  3
 14 15  1  0
 13 16  1  0
 17 16  1  1
 17 18  1  0
 18 19  1  0
 19 20  1  1
 19 21  1  0
 21 22  1  0
 22 23  1  0
 23 24  1  6
 23 25  1  0
 25 26  1  6
 26 27  1  0
 27 28  1  0
 28 29  1  6
 28  8  1  0
 28 11  1  0
 25 12  1  0
 23 17  1  0
M  END
>  <MS_ID>  (2611) 
MS2702

>  <SMILES>  (2611) 
C[C@H](CCC(=O)O)[C@H]1CC[C@H]2[C@@H]3C(=NO)C[C@@H]4C[C@H](O)CC[C@]4(C)[C@H]3CC[C@]12C

>  <Structure_dimension>  (2611) 
2D

$$$$
MS2703
     RDKit          2D

 34 38  0  0  0  0  0  0  0  0999 V2000
   -3.1244   -3.4912    0.0000 C   0  0  0  0  0  0  0  0  0  0  0  0
   -2.1932   -2.3152    0.0000 C   0  0  0  0  0  0  0  0  0  0  0  0
   -2.7461   -0.9208    0.0000 C   0  0  0  0  0  0  0  0  0  0  0  0
   -4.2301   -0.7024    0.0000 C   0  0  0  0  0  0  0  0  0  0  0  0
   -4.7830    0.6920    0.0000 C   0  0  0  0  0  0  0  0  0  0  0  0
   -3.8519    1.8680    0.0000 O   0  0  0  0  0  0  0  0  0  0  0  0
   -6.2671    0.9104    0.0000 C   0  0  0  0  0  0  0  0  0  0  0  0
   -7.3160   -0.1619    0.0000 N   0  0  0  0  0  0  0  0  0  0  0  0
   -8.6599    0.5044    0.0000 N   0  0  0  0  0  0  0  0  0  0  0  0
   -8.4415    1.9884    0.0000 N   0  0  0  0  0  0  0  0  0  0  0  0
   -6.9627    2.2393    0.0000 N   0  0  0  0  0  0  0  0  0  0  0  0
   -6.2964    3.5832    0.0000 C   0  0  0  0  0  0  0  0  0  0  0  0
   -0.7092   -2.5335    0.0000 C   0  0  0  0  0  0  0  0  0  0  0  0
   -0.0136   -3.8625    0.0000 C   0  0  0  0  0  0  0  0  0  0  0  0
    1.4653   -3.6116    0.0000 C   0  0  0  0  0  0  0  0  0  0  0  0
    1.6836   -2.1276    0.0000 C   0  0  0  0  0  0  0  0  0  0  0  0
    2.9326   -1.2968    0.0000 C   0  0  0  0  0  0  0  0  0  0  0  0
    4.2765   -1.9631    0.0000 C   0  0  0  0  0  0  0  0  0  0  0  0
    4.3715   -3.4601    0.0000 O   0  0  0  0  0  0  0  0  0  0  0  0
    5.5255   -1.1324    0.0000 C   0  0  0  0  0  0  0  0  0  0  0  0
    5.4305    0.3646    0.0000 C   0  0  0  0  0  0  0  0  0  0  0  0
    6.6795    1.1953    0.0000 C   0  0  0  0  0  0  0  0  0  0  0  0
    6.5845    2.6923    0.0000 C   0  0  0  0  0  0  0  0  0  0  0  0
    7.8335    3.5230    0.0000 O   0  0  0  0  0  0  0  0  0  0  0  0
    5.2406    3.3586    0.0000 C   0  0  0  0  0  0  0  0  0  0  0  0
    3.9917    2.5279    0.0000 C   0  0  0  0  0  0  0  0  0  0  0  0
    4.0866    1.0309    0.0000 C   0  0  0  0  0  0  0  0  0  0  0  0
    2.7427    1.6971    0.0000 C   0  0  0  0  0  0  0  0  0  0  0  0
    2.8377    0.2001    0.0000 C   0  0  0  0  0  0  0  0  0  0  0  0
    1.4938    0.8664    0.0000 C   0  0  0  0  0  0  0  0  0  0  0  0
    0.2448    0.0357    0.0000 C   0  0  0  0  0  0  0  0  0  0  0  0
   -1.0991    0.7020    0.0000 O   0  0  0  0  0  0  0  0  0  0  0  0
    0.3397   -1.4613    0.0000 C   0  0  0  0  0  0  0  0  0  0  0  0
   -1.0664   -0.9391    0.0000 C   0  0  0  0  0  0  0  0  0  0  0  0
  2  1  1  6
  2  3  1  0
  3  4  1  0
  4  5  1  0
  5  6  2  0
  5  7  1  0
  7  8  2  0
  8  9  1  0
  9 10  2  0
 10 11  1  0
 11 12  1  0
  2 13  1  0
 13 14  1  6
 14 15  1  0
 16 15  1  6
 16 17  1  0
 17 18  1  1
 18 19  1  1
 18 20  1  0
 21 20  1  1
 21 22  1  0
 22 23  1  0
 23 24  1  1
 23 25  1  0
 25 26  1  0
 26 27  1  0
 27 28  1  6
 27 29  1  0
 29 30  1  6
 30 31  1  0
 31 32  1  1
 31 33  1  0
 33 34  1  6
 11  7  1  0
 33 13  1  0
 33 16  1  0
 29 17  1  0
 27 21  1  0
M  END
>  <MS_ID>  (2612) 
MS2703

>  <SMILES>  (2612) 
C[C@H](CCC(=O)c1nnnn1C)[C@H]1CC[C@H]2[C@@H]3[C@H](O)C[C@@H]4C[C@H](O)CC[C@]4(C)[C@H]3C[C@H](O)[C@]12C

>  <Structure_dimension>  (2612) 
2D

$$$$
MS2704
     RDKit          2D

 34 37  0  0  0  0  0  0  0  0999 V2000
   -8.6089    2.4497    0.0000 C   0  0  0  0  0  0  0  0  0  0  0  0
   -7.9702    1.0925    0.0000 C   0  0  0  0  0  0  0  0  0  0  0  0
   -6.4754    0.9671    0.0000 C   0  0  0  0  0  0  0  0  0  0  0  0
   -5.6194    2.1989    0.0000 O   0  0  0  0  0  0  0  0  0  0  0  0
   -5.8366   -0.3901    0.0000 C   0  0  0  0  0  0  0  0  0  0  0  0
   -4.3419   -0.5155    0.0000 C   0  0  0  0  0  0  0  0  0  0  0  0
   -3.7031   -1.8727    0.0000 C   0  0  0  0  0  0  0  0  0  0  0  0
   -4.5591   -3.1044    0.0000 C   0  0  0  0  0  0  0  0  0  0  0  0
   -2.2084   -1.9981    0.0000 C   0  0  0  0  0  0  0  0  0  0  0  0
   -1.4312   -3.2811    0.0000 C   0  0  0  0  0  0  0  0  0  0  0  0
    0.0291   -2.9384    0.0000 C   0  0  0  0  0  0  0  0  0  0  0  0
    0.1545   -1.4437    0.0000 C   0  0  0  0  0  0  0  0  0  0  0  0
    1.3492   -0.5367    0.0000 C   0  0  0  0  0  0  0  0  0  0  0  0
    2.7321   -1.1179    0.0000 C   0  0  0  0  0  0  0  0  0  0  0  0
    2.9202   -2.6060    0.0000 O   0  0  0  0  0  0  0  0  0  0  0  0
    4.3030   -3.1872    0.0000 S   0  0  0  0  0  0  0  0  0  0  0  0
    4.8842   -1.8043    0.0000 O   0  0  0  0  0  0  0  0  0  0  0  0
    3.7218   -4.5700    0.0000 O   0  0  0  0  0  0  0  0  0  0  0  0
    5.6859   -3.7684    0.0000 O   0  0  0  0  0  0  0  0  0  0  0  0
    3.9268   -0.2109    0.0000 C   0  0  0  0  0  0  0  0  0  0  0  0
    3.7387    1.2773    0.0000 C   0  0  0  0  0  0  0  0  0  0  0  0
    4.9334    2.1843    0.0000 C   0  0  0  0  0  0  0  0  0  0  0  0
    4.7453    3.6724    0.0000 C   0  0  0  0  0  0  0  0  0  0  0  0
    5.9400    4.5794    0.0000 O   0  0  0  0  0  0  0  0  0  0  0  0
    3.3625    4.2536    0.0000 C   0  0  0  0  0  0  0  0  0  0  0  0
    2.1677    3.3466    0.0000 C   0  0  0  0  0  0  0  0  0  0  0  0
    2.3559    1.8585    0.0000 C   0  0  0  0  0  0  0  0  0  0  0  0
    0.9730    2.4396    0.0000 C   0  0  0  0  0  0  0  0  0  0  0  0
    1.1611    0.9515    0.0000 C   0  0  0  0  0  0  0  0  0  0  0  0
   -0.2217    1.5326    0.0000 C   0  0  0  0  0  0  0  0  0  0  0  0
   -1.4164    0.6257    0.0000 C   0  0  0  0  0  0  0  0  0  0  0  0
   -2.7993    1.2068    0.0000 O   0  0  0  0  0  0  0  0  0  0  0  0
   -1.2283   -0.8625    0.0000 C   0  0  0  0  0  0  0  0  0  0  0  0
   -2.6643   -0.4291    0.0000 C   0  0  0  0  0  0  0  0  0  0  0  0
  1  2  1  0
  2  3  1  0
  3  4  2  0
  3  5  1  0
  5  6  1  0
  6  7  1  0
  7  8  1  6
  7  9  1  0
  9 10  1  6
 10 11  1  0
 12 11  1  6
 12 13  1  0
 13 14  1  1
 14 15  1  1
 15 16  1  0
 16 17  2  0
 16 18  2  0
 16 19  1  0
 14 20  1  0
 21 20  1  1
 21 22  1  0
 22 23  1  0
 23 24  1  1
 23 25  1  0
 25 26  1  0
 26 27  1  0
 27 28  1  6
 27 29  1  0
 29 30  1  6
 30 31  1  0
 31 32  1  1
 31 33  1  0
 33 34  1  6
 33  9  1  0
 33 12  1  0
 29 13  1  0
 27 21  1  0
M  END
>  <MS_ID>  (2613) 
MS2704

>  <SMILES>  (2613) 
CCC(=O)CC[C@@H](C)[C@H]1CC[C@H]2[C@@H]3[C@H](OS(=O)(=O)O)C[C@@H]4C[C@H](O)CC[C@]4(C)[C@H]3C[C@H](O)[C@]12C

>  <Structure_dimension>  (2613) 
2D

$$$$
MS2705
     RDKit          2D

 29 32  0  0  0  0  0  0  0  0999 V2000
   -4.0871   -3.1154    0.0000 C   0  0  0  0  0  0  0  0  0  0  0  0
   -3.0536   -2.0283    0.0000 C   0  0  0  0  0  0  0  0  0  0  0  0
   -3.4784   -0.5897    0.0000 C   0  0  0  0  0  0  0  0  0  0  0  0
   -4.9366   -0.2383    0.0000 C   0  0  0  0  0  0  0  0  0  0  0  0
   -5.3614    1.2003    0.0000 C   0  0  0  0  0  0  0  0  0  0  0  0
   -4.3279    2.2875    0.0000 O   0  0  0  0  0  0  0  0  0  0  0  0
   -6.8197    1.5518    0.0000 N   0  0  0  0  0  0  0  0  0  0  0  0
   -7.2445    2.9904    0.0000 C   0  0  0  0  0  0  0  0  0  0  0  0
   -8.7027    3.3418    0.0000 O   0  0  0  0  0  0  0  0  0  0  0  0
   -1.5953   -2.3797    0.0000 C   0  0  0  0  0  0  0  0  0  0  0  0
   -1.0225   -3.7660    0.0000 C   0  0  0  0  0  0  0  0  0  0  0  0
    0.4730   -3.6496    0.0000 C   0  0  0  0  0  0  0  0  0  0  0  0
    0.8244   -2.1914    0.0000 C   0  0  0  0  0  0  0  0  0  0  0  0
    2.1432   -1.4767    0.0000 C   0  0  0  0  0  0  0  0  0  0  0  0
    3.4215   -2.2616    0.0000 C   0  0  0  0  0  0  0  0  0  0  0  0
    4.7404   -1.5470    0.0000 C   0  0  0  0  0  0  0  0  0  0  0  0
    4.7809   -0.0475    0.0000 C   0  0  0  0  0  0  0  0  0  0  0  0
    6.0998    0.6671    0.0000 C   0  0  0  0  0  0  0  0  0  0  0  0
    6.1403    2.1665    0.0000 C   0  0  0  0  0  0  0  0  0  0  0  0
    7.4592    2.8811    0.0000 O   0  0  0  0  0  0  0  0  0  0  0  0
    4.8620    2.9514    0.0000 C   0  0  0  0  0  0  0  0  0  0  0  0
    3.5432    2.2368    0.0000 C   0  0  0  0  0  0  0  0  0  0  0  0
    3.5026    0.7373    0.0000 C   0  0  0  0  0  0  0  0  0  0  0  0
    2.2243    1.5222    0.0000 C   0  0  0  0  0  0  0  0  0  0  0  0
    2.1838    0.0227    0.0000 C   0  0  0  0  0  0  0  0  0  0  0  0
    0.9055    0.8076    0.0000 C   0  0  0  0  0  0  0  0  0  0  0  0
   -0.4133    0.0929    0.0000 C   0  0  0  0  0  0  0  0  0  0  0  0
   -0.4539   -1.4065    0.0000 C   0  0  0  0  0  0  0  0  0  0  0  0
   -1.8072   -0.7596    0.0000 C   0  0  0  0  0  0  0  0  0  0  0  0
  2  1  1  6
  2  3  1  0
  3  4  1  0
  4  5  1  0
  5  6  2  0
  5  7  1  0
  7  8  1  0
  8  9  1  0
  2 10  1  0
 10 11  1  6
 11 12  1  0
 13 12  1  6
 13 14  1  0
 14 15  1  1
 15 16  1  0
 17 16  1  1
 17 18  1  0
 18 19  1  0
 19 20  1  1
 19 21  1  0
 21 22  1  0
 22 23  1  0
 23 24  1  6
 23 25  1  0
 25 26  1  6
 26 27  1  0
 27 28  1  0
 28 29  1  6
 28 10  1  0
 28 13  1  0
 25 14  1  0
 23 17  1  0
M  END
>  <MS_ID>  (2614) 
MS2705

>  <SMILES>  (2614) 
C[C@H](CCC(=O)NCO)[C@H]1CC[C@H]2[C@@H]3CC[C@@H]4C[C@H](O)CC[C@]4(C)[C@H]3CC[C@]12C

>  <Structure_dimension>  (2614) 
2D

$$$$
MS2706
     RDKit          2D

 35 38  0  0  0  0  0  0  0  0999 V2000
   -8.5409    0.7876    0.0000 C   0  0  0  0  0  0  0  0  0  0  0  0
   -7.0410    0.8040    0.0000 C   0  0  0  0  0  0  0  0  0  0  0  0
   -6.2769   -0.4868    0.0000 O   0  0  0  0  0  0  0  0  0  0  0  0
   -4.7770   -0.4705    0.0000 C   0  0  0  0  0  0  0  0  0  0  0  0
   -4.0412    0.8366    0.0000 O   0  0  0  0  0  0  0  0  0  0  0  0
   -4.0129   -1.7613    0.0000 C   0  0  0  0  0  0  0  0  0  0  0  0
   -2.5130   -1.7450    0.0000 C   0  0  0  0  0  0  0  0  0  0  0  0
   -1.7489   -3.0357    0.0000 C   0  0  0  0  0  0  0  0  0  0  0  0
   -2.4847   -4.3429    0.0000 C   0  0  0  0  0  0  0  0  0  0  0  0
   -0.2490   -3.0194    0.0000 C   0  0  0  0  0  0  0  0  0  0  0  0
    0.6459   -4.2233    0.0000 C   0  0  0  0  0  0  0  0  0  0  0  0
    2.0673   -3.7442    0.0000 C   0  0  0  0  0  0  0  0  0  0  0  0
    2.0510   -2.2443    0.0000 C   0  0  0  0  0  0  0  0  0  0  0  0
    3.1547   -1.2286    0.0000 C   0  0  0  0  0  0  0  0  0  0  0  0
    4.5863   -1.6765    0.0000 C   0  0  0  0  0  0  0  0  0  0  0  0
    4.9141   -3.1403    0.0000 O   0  0  0  0  0  0  0  0  0  0  0  0
    5.6900   -0.6607    0.0000 C   0  0  0  0  0  0  0  0  0  0  0  0
    5.3622    0.8030    0.0000 C   0  0  0  0  0  0  0  0  0  0  0  0
    6.4659    1.8188    0.0000 C   0  0  0  0  0  0  0  0  0  0  0  0
    6.1381    3.2825    0.0000 C   0  0  0  0  0  0  0  0  0  0  0  0
    7.2418    4.2983    0.0000 O   0  0  0  0  0  0  0  0  0  0  0  0
    4.7065    3.7305    0.0000 C   0  0  0  0  0  0  0  0  0  0  0  0
    3.6028    2.7147    0.0000 C   0  0  0  0  0  0  0  0  0  0  0  0
    3.9306    1.2510    0.0000 C   0  0  0  0  0  0  0  0  0  0  0  0
    2.4991    1.6989    0.0000 C   0  0  0  0  0  0  0  0  0  0  0  0
    2.8269    0.2352    0.0000 C   0  0  0  0  0  0  0  0  0  0  0  0
    1.3953    0.6831    0.0000 C   0  0  0  0  0  0  0  0  0  0  0  0
    0.2916   -0.3326    0.0000 C   0  0  0  0  0  0  0  0  0  0  0  0
   -1.1399    0.1153    0.0000 O   0  0  0  0  0  0  0  0  0  0  0  0
    0.6195   -1.7964    0.0000 C   0  0  0  0  0  0  0  0  0  0  0  0
   -0.8511   -1.5005    0.0000 C   0  0  0  0  0  0  0  0  0  0  0  0
   -6.3052    2.1111    0.0000 C   0  0  0  0  0  0  0  0  0  0  0  0
   -4.8053    2.1274    0.0000 O   0  0  0  0  0  0  0  0  0  0  0  0
   -7.0693    3.4019    0.0000 C   0  0  0  0  0  0  0  0  0  0  0  0
   -6.3335    4.7090    0.0000 O   0  0  0  0  0  0  0  0  0  0  0  0
  2  1  1  1
  2  3  1  0
  3  4  1  0
  4  5  2  0
  4  6  1  0
  6  7  1  0
  7  8  1  0
  8  9  1  6
  8 10  1  0
 10 11  1  6
 11 12  1  0
 13 12  1  6
 13 14  1  0
 14 15  1  1
 15 16  1  1
 15 17  1  0
 18 17  1  1
 18 19  1  0
 19 20  1  0
 20 21  1  1
 20 22  1  0
 22 23  1  0
 23 24  1  0
 24 25  1  6
 24 26  1  0
 26 27  1  6
 27 28  1  0
 28 29  1  1
 28 30  1  0
 30 31  1  6
  2 32  1  0
 32 33  2  0
 32 34  1  0
 34 35  1  0
 30 10  1  0
 30 13  1  0
 26 14  1  0
 24 18  1  0
M  END
>  <MS_ID>  (2615) 
MS2706

>  <SMILES>  (2615) 
C[C@H](OC(=O)CC[C@@H](C)[C@H]1CC[C@H]2[C@@H]3[C@H](O)C[C@@H]4C[C@H](O)CC[C@]4(C)[C@H]3C[C@H](O)[C@]12C)C(=O)CO

>  <Structure_dimension>  (2615) 
2D

$$$$
MS2707
     RDKit          2D

 34 37  0  0  0  0  0  0  0  0999 V2000
   -2.1782   -4.1538    0.0000 C   0  0  0  0  0  0  0  0  0  0  0  0
   -1.4251   -2.8566    0.0000 C   0  0  0  0  0  0  0  0  0  0  0  0
   -2.1720   -1.5557    0.0000 C   0  0  0  0  0  0  0  0  0  0  0  0
   -3.6720   -1.5522    0.0000 C   0  0  0  0  0  0  0  0  0  0  0  0
   -4.4189   -0.2513    0.0000 C   0  0  0  0  0  0  0  0  0  0  0  0
   -3.6658    1.0459    0.0000 O   0  0  0  0  0  0  0  0  0  0  0  0
   -5.9189   -0.2477    0.0000 O   0  0  0  0  0  0  0  0  0  0  0  0
   -6.6658    1.0531    0.0000 C   0  0  0  0  0  0  0  0  0  0  0  0
   -8.1658    1.0567    0.0000 C   0  0  0  0  0  0  0  0  0  0  0  0
   -8.9189   -0.2406    0.0000 N   0  0  0  0  0  0  0  0  0  0  0  0
   -8.9127    2.3575    0.0000 C   0  0  0  0  0  0  0  0  0  0  0  0
   -8.1596    3.6547    0.0000 O   0  0  0  0  0  0  0  0  0  0  0  0
  -10.4127    2.3611    0.0000 O   0  0  0  0  0  0  0  0  0  0  0  0
    0.0749   -2.8601    0.0000 C   0  0  0  0  0  0  0  0  0  0  0  0
    0.9537   -4.0758    0.0000 C   0  0  0  0  0  0  0  0  0  0  0  0
    2.3814   -3.6156    0.0000 C   0  0  0  0  0  0  0  0  0  0  0  0
    2.3850   -2.1156    0.0000 C   0  0  0  0  0  0  0  0  0  0  0  0
    3.5021   -1.1146    0.0000 C   0  0  0  0  0  0  0  0  0  0  0  0
    4.9276   -1.5815    0.0000 C   0  0  0  0  0  0  0  0  0  0  0  0
    5.2359   -3.0495    0.0000 O   0  0  0  0  0  0  0  0  0  0  0  0
    6.0447   -0.5805    0.0000 C   0  0  0  0  0  0  0  0  0  0  0  0
    5.7363    0.8875    0.0000 C   0  0  0  0  0  0  0  0  0  0  0  0
    6.8534    1.8885    0.0000 C   0  0  0  0  0  0  0  0  0  0  0  0
    6.5450    3.3565    0.0000 C   0  0  0  0  0  0  0  0  0  0  0  0
    7.6621    4.3575    0.0000 O   0  0  0  0  0  0  0  0  0  0  0  0
    5.1196    3.8234    0.0000 C   0  0  0  0  0  0  0  0  0  0  0  0
    4.0025    2.8224    0.0000 C   0  0  0  0  0  0  0  0  0  0  0  0
    4.3108    1.3544    0.0000 C   0  0  0  0  0  0  0  0  0  0  0  0
    2.8853    1.8213    0.0000 C   0  0  0  0  0  0  0  0  0  0  0  0
    3.1937    0.3534    0.0000 C   0  0  0  0  0  0  0  0  0  0  0  0
    1.7682    0.8203    0.0000 C   0  0  0  0  0  0  0  0  0  0  0  0
    0.6511   -0.1807    0.0000 C   0  0  0  0  0  0  0  0  0  0  0  0
    0.9595   -1.6487    0.0000 C   0  0  0  0  0  0  0  0  0  0  0  0
   -0.5070   -1.3333    0.0000 C   0  0  0  0  0  0  0  0  0  0  0  0
  2  1  1  6
  2  3  1  0
  3  4  1  0
  4  5  1  0
  5  6  2  0
  5  7  1  0
  7  8  1  0
  8  9  1  0
  9 10  1  6
  9 11  1  0
 11 12  2  0
 11 13  1  0
  2 14  1  0
 14 15  1  6
 15 16  1  0
 17 16  1  6
 17 18  1  0
 18 19  1  1
 19 20  1  1
 19 21  1  0
 22 21  1  1
 22 23  1  0
 23 24  1  0
 24 25  1  1
 24 26  1  0
 26 27  1  0
 27 28  1  0
 28 29  1  6
 28 30  1  0
 30 31  1  6
 31 32  1  0
 32 33  1  0
 33 34  1  6
 33 14  1  0
 33 17  1  0
 30 18  1  0
 28 22  1  0
M  END
>  <MS_ID>  (2616) 
MS2707

>  <SMILES>  (2616) 
C[C@H](CCC(=O)OC[C@H](N)C(=O)O)[C@H]1CC[C@H]2[C@@H]3[C@H](O)C[C@@H]4C[C@H](O)CC[C@]4(C)[C@H]3CC[C@]12C

>  <Structure_dimension>  (2616) 
2D

$$$$
MS2708
     RDKit          2D

 36 40  0  0  0  0  0  0  0  0999 V2000
   -2.5093   -3.4218    0.0000 C   0  0  0  0  0  0  0  0  0  0  0  0
   -1.5710   -2.2515    0.0000 C   0  0  0  0  0  0  0  0  0  0  0  0
   -2.1154   -0.8538    0.0000 C   0  0  0  0  0  0  0  0  0  0  0  0
   -3.5980   -0.6264    0.0000 C   0  0  0  0  0  0  0  0  0  0  0  0
   -4.1424    0.7714    0.0000 C   0  0  0  0  0  0  0  0  0  0  0  0
   -3.2042    1.9417    0.0000 O   0  0  0  0  0  0  0  0  0  0  0  0
   -5.6251    0.9988    0.0000 C   0  0  0  0  0  0  0  0  0  0  0  0
   -6.1695    2.3965    0.0000 C   0  0  0  0  0  0  0  0  0  0  0  0
   -7.6521    2.6239    0.0000 C   0  0  0  0  0  0  0  0  0  0  0  0
   -8.5904    1.4536    0.0000 C   0  0  0  0  0  0  0  0  0  0  0  0
  -10.0731    1.6810    0.0000 O   0  0  0  0  0  0  0  0  0  0  0  0
   -8.0460    0.0559    0.0000 C   0  0  0  0  0  0  0  0  0  0  0  0
   -8.9843   -1.1145    0.0000 Cl  0  0  0  0  0  0  0  0  0  0  0  0
   -6.5634   -0.1715    0.0000 C   0  0  0  0  0  0  0  0  0  0  0  0
   -0.0883   -2.4789    0.0000 C   0  0  0  0  0  0  0  0  0  0  0  0
    0.5992   -3.8121    0.0000 C   0  0  0  0  0  0  0  0  0  0  0  0
    2.0796   -3.5702    0.0000 C   0  0  0  0  0  0  0  0  0  0  0  0
    2.3070   -2.0875    0.0000 C   0  0  0  0  0  0  0  0  0  0  0  0
    3.5610   -1.2644    0.0000 C   0  0  0  0  0  0  0  0  0  0  0  0
    4.9008   -1.9389    0.0000 C   0  0  0  0  0  0  0  0  0  0  0  0
    4.9866   -3.4364    0.0000 O   0  0  0  0  0  0  0  0  0  0  0  0
    6.1548   -1.1158    0.0000 C   0  0  0  0  0  0  0  0  0  0  0  0
    6.0690    0.3818    0.0000 C   0  0  0  0  0  0  0  0  0  0  0  0
    7.3229    1.2049    0.0000 C   0  0  0  0  0  0  0  0  0  0  0  0
    7.2371    2.7024    0.0000 C   0  0  0  0  0  0  0  0  0  0  0  0
    8.4911    3.5255    0.0000 O   0  0  0  0  0  0  0  0  0  0  0  0
    5.8973    3.3769    0.0000 C   0  0  0  0  0  0  0  0  0  0  0  0
    4.6433    2.5538    0.0000 C   0  0  0  0  0  0  0  0  0  0  0  0
    4.7291    1.0562    0.0000 C   0  0  0  0  0  0  0  0  0  0  0  0
    3.3893    1.7307    0.0000 C   0  0  0  0  0  0  0  0  0  0  0  0
    3.4751    0.2331    0.0000 C   0  0  0  0  0  0  0  0  0  0  0  0
    2.1353    0.9076    0.0000 C   0  0  0  0  0  0  0  0  0  0  0  0
    0.8813    0.0845    0.0000 C   0  0  0  0  0  0  0  0  0  0  0  0
   -0.4585    0.7589    0.0000 O   0  0  0  0  0  0  0  0  0  0  0  0
    0.9671   -1.4131    0.0000 C   0  0  0  0  0  0  0  0  0  0  0  0
   -0.4358   -0.8824    0.0000 C   0  0  0  0  0  0  0  0  0  0  0  0
  2  1  1  6
  2  3  1  0
  3  4  1  0
  4  5  1  0
  5  6  2  0
  5  7  1  0
  7  8  2  0
  8  9  1  0
  9 10  2  0
 10 11  1  0
 10 12  1  0
 12 13  1  0
 12 14  2  0
  2 15  1  0
 15 16  1  6
 16 17  1  0
 18 17  1  6
 18 19  1  0
 19 20  1  1
 20 21  1  1
 20 22  1  0
 23 22  1  1
 23 24  1  0
 24 25  1  0
 25 26  1  1
 25 27  1  0
 27 28  1  0
 28 29  1  0
 29 30  1  6
 29 31  1  0
 31 32  1  6
 32 33  1  0
 33 34  1  1
 33 35  1  0
 35 36  1  6
 14  7  1  0
 35 15  1  0
 35 18  1  0
 31 19  1  0
 29 23  1  0
M  END
>  <MS_ID>  (2617) 
MS2708

>  <SMILES>  (2617) 
C[C@H](CCC(=O)c1ccc(O)c(Cl)c1)[C@H]1CC[C@H]2[C@@H]3[C@H](O)C[C@@H]4C[C@H](O)CC[C@]4(C)[C@H]3C[C@H](O)[C@]12C

>  <Structure_dimension>  (2617) 
2D

$$$$
MS2709
     RDKit          2D

 29 32  0  0  0  0  0  0  0  0999 V2000
   -4.2923   -2.7601    0.0000 C   0  0  0  0  0  0  0  0  0  0  0  0
   -3.1946   -1.7378    0.0000 C   0  0  0  0  0  0  0  0  0  0  0  0
   -3.5310   -0.2760    0.0000 C   0  0  0  0  0  0  0  0  0  0  0  0
   -4.9652    0.1635    0.0000 C   0  0  0  0  0  0  0  0  0  0  0  0
   -5.3016    1.6253    0.0000 C   0  0  0  0  0  0  0  0  0  0  0  0
   -4.2039    2.6475    0.0000 O   0  0  0  0  0  0  0  0  0  0  0  0
   -6.7358    2.0648    0.0000 N   0  0  0  0  0  0  0  0  0  0  0  0
   -7.0722    3.5266    0.0000 C   0  0  0  0  0  0  0  0  0  0  0  0
   -7.8335    1.0426    0.0000 O   0  0  0  0  0  0  0  0  0  0  0  0
   -1.7604   -2.1774    0.0000 C   0  0  0  0  0  0  0  0  0  0  0  0
   -1.2731   -3.5960    0.0000 C   0  0  0  0  0  0  0  0  0  0  0  0
    0.2267   -3.5708    0.0000 C   0  0  0  0  0  0  0  0  0  0  0  0
    0.6663   -2.1367    0.0000 C   0  0  0  0  0  0  0  0  0  0  0  0
    2.0262   -1.5037    0.0000 C   0  0  0  0  0  0  0  0  0  0  0  0
    3.2543   -2.3649    0.0000 C   0  0  0  0  0  0  0  0  0  0  0  0
    4.6142   -1.7319    0.0000 C   0  0  0  0  0  0  0  0  0  0  0  0
    4.7460   -0.2377    0.0000 C   0  0  0  0  0  0  0  0  0  0  0  0
    6.1059    0.3953    0.0000 C   0  0  0  0  0  0  0  0  0  0  0  0
    6.2376    1.8895    0.0000 C   0  0  0  0  0  0  0  0  0  0  0  0
    7.5975    2.5225    0.0000 O   0  0  0  0  0  0  0  0  0  0  0  0
    5.0095    2.7507    0.0000 C   0  0  0  0  0  0  0  0  0  0  0  0
    3.6496    2.1177    0.0000 C   0  0  0  0  0  0  0  0  0  0  0  0
    3.5178    0.6235    0.0000 C   0  0  0  0  0  0  0  0  0  0  0  0
    2.2897    1.4847    0.0000 C   0  0  0  0  0  0  0  0  0  0  0  0
    2.1579   -0.0095    0.0000 C   0  0  0  0  0  0  0  0  0  0  0  0
    0.9298    0.8517    0.0000 C   0  0  0  0  0  0  0  0  0  0  0  0
   -0.4301    0.2187    0.0000 C   0  0  0  0  0  0  0  0  0  0  0  0
   -0.5619   -1.2755    0.0000 C   0  0  0  0  0  0  0  0  0  0  0  0
   -1.8733   -0.5473    0.0000 C   0  0  0  0  0  0  0  0  0  0  0  0
  2  1  1  6
  2  3  1  0
  3  4  1  0
  4  5  1  0
  5  6  2  0
  5  7  1  0
  7  8  1  0
  7  9  1  0
  2 10  1  0
 10 11  1  6
 11 12  1  0
 13 12  1  6
 13 14  1  0
 14 15  1  1
 15 16  1  0
 17 16  1  1
 17 18  1  0
 18 19  1  0
 19 20  1  1
 19 21  1  0
 21 22  1  0
 22 23  1  0
 23 24  1  6
 23 25  1  0
 25 26  1  6
 26 27  1  0
 27 28  1  0
 28 29  1  6
 28 10  1  0
 28 13  1  0
 25 14  1  0
 23 17  1  0
M  END
>  <MS_ID>  (2618) 
MS2709

>  <SMILES>  (2618) 
C[C@H](CCC(=O)N(C)O)[C@H]1CC[C@H]2[C@@H]3CC[C@@H]4C[C@H](O)CC[C@]4(C)[C@H]3CC[C@]12C

>  <Structure_dimension>  (2618) 
2D

$$$$
MS2710
     RDKit          2D

 32 35  0  0  0  0  0  0  0  0999 V2000
   -3.0592   -3.7169    0.0000 C   0  0  0  0  0  0  0  0  0  0  0  0
   -2.1499   -2.5239    0.0000 C   0  0  0  0  0  0  0  0  0  0  0  0
   -2.7284   -1.1399    0.0000 C   0  0  0  0  0  0  0  0  0  0  0  0
   -4.2162   -0.9489    0.0000 C   0  0  0  0  0  0  0  0  0  0  0  0
   -4.7946    0.4350    0.0000 C   0  0  0  0  0  0  0  0  0  0  0  0
   -3.8853    1.6280    0.0000 O   0  0  0  0  0  0  0  0  0  0  0  0
   -6.2824    0.6260    0.0000 C   0  0  0  0  0  0  0  0  0  0  0  0
   -6.8609    2.0100    0.0000 C   0  0  0  0  0  0  0  0  0  0  0  0
   -8.3487    2.2010    0.0000 C   0  0  0  0  0  0  0  0  0  0  0  0
   -9.2580    1.0080    0.0000 O   0  0  0  0  0  0  0  0  0  0  0  0
   -8.9272    3.5850    0.0000 O   0  0  0  0  0  0  0  0  0  0  0  0
   -0.6621   -2.7149    0.0000 C   0  0  0  0  0  0  0  0  0  0  0  0
    0.0579   -4.0308    0.0000 C   0  0  0  0  0  0  0  0  0  0  0  0
    1.5319   -3.7527    0.0000 C   0  0  0  0  0  0  0  0  0  0  0  0
    1.7229   -2.2649    0.0000 C   0  0  0  0  0  0  0  0  0  0  0  0
    2.9563   -1.4114    0.0000 C   0  0  0  0  0  0  0  0  0  0  0  0
    4.3123   -2.0528    0.0000 C   0  0  0  0  0  0  0  0  0  0  0  0
    5.5457   -1.1992    0.0000 C   0  0  0  0  0  0  0  0  0  0  0  0
    5.4232    0.2958    0.0000 C   0  0  0  0  0  0  0  0  0  0  0  0
    6.6567    1.1494    0.0000 C   0  0  0  0  0  0  0  0  0  0  0  0
    6.5342    2.6444    0.0000 C   0  0  0  0  0  0  0  0  0  0  0  0
    7.7676    3.4980    0.0000 O   0  0  0  0  0  0  0  0  0  0  0  0
    5.1782    3.2858    0.0000 C   0  0  0  0  0  0  0  0  0  0  0  0
    3.9448    2.4322    0.0000 C   0  0  0  0  0  0  0  0  0  0  0  0
    4.0673    0.9372    0.0000 C   0  0  0  0  0  0  0  0  0  0  0  0
    2.7113    1.5786    0.0000 C   0  0  0  0  0  0  0  0  0  0  0  0
    2.8338    0.0836    0.0000 C   0  0  0  0  0  0  0  0  0  0  0  0
    1.4779    0.7250    0.0000 C   0  0  0  0  0  0  0  0  0  0  0  0
    0.2444   -0.1285    0.0000 C   0  0  0  0  0  0  0  0  0  0  0  0
   -1.1115    0.5129    0.0000 O   0  0  0  0  0  0  0  0  0  0  0  0
    0.3669   -1.6235    0.0000 C   0  0  0  0  0  0  0  0  0  0  0  0
   -1.0486   -1.1274    0.0000 C   0  0  0  0  0  0  0  0  0  0  0  0
  2  1  1  6
  2  3  1  0
  3  4  1  0
  4  5  1  0
  5  6  2  0
  5  7  1  0
  7  8  1  0
  8  9  1  0
  9 10  2  0
  9 11  1  0
  2 12  1  0
 12 13  1  6
 13 14  1  0
 15 14  1  6
 15 16  1  0
 16 17  1  1
 17 18  1  0
 19 18  1  1
 19 20  1  0
 20 21  1  0
 21 22  2  0
 21 23  1  0
 23 24  1  0
 24 25  1  0
 25 26  1  6
 25 27  1  0
 27 28  1  6
 28 29  1  0
 29 30  1  6
 29 31  1  0
 31 32  1  6
 31 12  1  0
 31 15  1  0
 27 16  1  0
 25 19  1  0
M  END
>  <MS_ID>  (2619) 
MS2710

>  <SMILES>  (2619) 
C[C@H](CCC(=O)CCC(=O)O)[C@H]1CC[C@H]2[C@@H]3CC[C@@H]4CC(=O)CC[C@]4(C)[C@H]3C[C@@H](O)[C@]12C

>  <Structure_dimension>  (2619) 
2D

$$$$
MS2711
     RDKit          2D

 34 37  0  0  0  0  0  0  0  0999 V2000
   -2.4018   -4.1785    0.0000 C   0  0  0  0  0  0  0  0  0  0  0  0
   -1.6536   -2.8784    0.0000 C   0  0  0  0  0  0  0  0  0  0  0  0
   -2.4055   -1.5804    0.0000 C   0  0  0  0  0  0  0  0  0  0  0  0
   -3.9055   -1.5826    0.0000 C   0  0  0  0  0  0  0  0  0  0  0  0
   -4.6574   -0.2846    0.0000 C   0  0  0  0  0  0  0  0  0  0  0  0
   -3.9092    1.0155    0.0000 O   0  0  0  0  0  0  0  0  0  0  0  0
   -6.1574   -0.2867    0.0000 O   0  0  0  0  0  0  0  0  0  0  0  0
   -6.9092    1.0112    0.0000 C   0  0  0  0  0  0  0  0  0  0  0  0
   -8.4092    1.0091    0.0000 C   0  0  0  0  0  0  0  0  0  0  0  0
   -9.1611    2.3071    0.0000 N   0  0  0  0  0  0  0  0  0  0  0  0
  -10.6611    2.3049    0.0000 C   0  0  0  0  0  0  0  0  0  0  0  0
   -8.4129    3.6072    0.0000 O   0  0  0  0  0  0  0  0  0  0  0  0
   -0.1536   -2.8762    0.0000 C   0  0  0  0  0  0  0  0  0  0  0  0
    0.7298   -4.0885    0.0000 C   0  0  0  0  0  0  0  0  0  0  0  0
    2.1557   -3.6229    0.0000 C   0  0  0  0  0  0  0  0  0  0  0  0
    2.1535   -2.1229    0.0000 C   0  0  0  0  0  0  0  0  0  0  0  0
    3.2668   -1.1176    0.0000 C   0  0  0  0  0  0  0  0  0  0  0  0
    4.6941   -1.5791    0.0000 C   0  0  0  0  0  0  0  0  0  0  0  0
    5.0080   -3.0459    0.0000 O   0  0  0  0  0  0  0  0  0  0  0  0
    5.8073   -0.5738    0.0000 C   0  0  0  0  0  0  0  0  0  0  0  0
    5.4934    0.8929    0.0000 C   0  0  0  0  0  0  0  0  0  0  0  0
    6.6067    1.8982    0.0000 C   0  0  0  0  0  0  0  0  0  0  0  0
    6.2927    3.3650    0.0000 C   0  0  0  0  0  0  0  0  0  0  0  0
    7.4060    4.3703    0.0000 O   0  0  0  0  0  0  0  0  0  0  0  0
    4.8655    3.8265    0.0000 C   0  0  0  0  0  0  0  0  0  0  0  0
    3.7522    2.8212    0.0000 C   0  0  0  0  0  0  0  0  0  0  0  0
    4.0661    1.3544    0.0000 C   0  0  0  0  0  0  0  0  0  0  0  0
    2.6389    1.8159    0.0000 C   0  0  0  0  0  0  0  0  0  0  0  0
    2.9529    0.3491    0.0000 C   0  0  0  0  0  0  0  0  0  0  0  0
    1.5256    0.8106    0.0000 C   0  0  0  0  0  0  0  0  0  0  0  0
    0.4123   -0.1947    0.0000 C   0  0  0  0  0  0  0  0  0  0  0  0
   -1.0149    0.2668    0.0000 O   0  0  0  0  0  0  0  0  0  0  0  0
    0.7263   -1.6614    0.0000 C   0  0  0  0  0  0  0  0  0  0  0  0
   -0.7414   -1.3517    0.0000 C   0  0  0  0  0  0  0  0  0  0  0  0
  2  1  1  6
  2  3  1  0
  3  4  1  0
  4  5  1  0
  5  6  2  0
  5  7  1  0
  7  8  1  0
  8  9  1  0
  9 10  1  0
 10 11  1  0
 10 12  1  0
  2 13  1  0
 13 14  1  6
 14 15  1  0
 16 15  1  6
 16 17  1  0
 17 18  1  1
 18 19  1  1
 18 20  1  0
 21 20  1  1
 21 22  1  0
 22 23  1  0
 23 24  1  1
 23 25  1  0
 25 26  1  0
 26 27  1  0
 27 28  1  6
 27 29  1  0
 29 30  1  6
 30 31  1  0
 31 32  1  1
 31 33  1  0
 33 34  1  6
 33 13  1  0
 33 16  1  0
 29 17  1  0
 27 21  1  0
M  END
>  <MS_ID>  (2620) 
MS2711

>  <SMILES>  (2620) 
C[C@H](CCC(=O)OCCN(C)O)[C@H]1CC[C@H]2[C@@H]3[C@H](O)C[C@@H]4C[C@H](O)CC[C@]4(C)[C@H]3C[C@H](O)[C@]12C

>  <Structure_dimension>  (2620) 
2D

$$$$
MS2712
     RDKit          2D

 32 35  0  0  0  0  0  0  0  0999 V2000
   -3.2905   -3.6805    0.0000 C   0  0  0  0  0  0  0  0  0  0  0  0
   -2.3609   -2.5033    0.0000 C   0  0  0  0  0  0  0  0  0  0  0  0
   -2.9157   -1.1096    0.0000 C   0  0  0  0  0  0  0  0  0  0  0  0
   -4.4000   -0.8932    0.0000 C   0  0  0  0  0  0  0  0  0  0  0  0
   -4.9547    0.5004    0.0000 C   0  0  0  0  0  0  0  0  0  0  0  0
   -4.0251    1.6776    0.0000 O   0  0  0  0  0  0  0  0  0  0  0  0
   -6.4390    0.7168    0.0000 O   0  0  0  0  0  0  0  0  0  0  0  0
   -6.9938    2.1105    0.0000 C   0  0  0  0  0  0  0  0  0  0  0  0
   -8.3874    1.5557    0.0000 C   0  0  0  0  0  0  0  0  0  0  0  0
   -5.6001    2.6652    0.0000 C   0  0  0  0  0  0  0  0  0  0  0  0
   -7.5485    3.5041    0.0000 C   0  0  0  0  0  0  0  0  0  0  0  0
   -0.8766   -2.7197    0.0000 C   0  0  0  0  0  0  0  0  0  0  0  0
   -0.1792   -4.0477    0.0000 C   0  0  0  0  0  0  0  0  0  0  0  0
    1.2993   -3.7949    0.0000 C   0  0  0  0  0  0  0  0  0  0  0  0
    1.5157   -2.3106    0.0000 C   0  0  0  0  0  0  0  0  0  0  0  0
    2.7636   -1.4782    0.0000 C   0  0  0  0  0  0  0  0  0  0  0  0
    4.1084   -2.1427    0.0000 C   0  0  0  0  0  0  0  0  0  0  0  0
    5.3562   -1.3103    0.0000 C   0  0  0  0  0  0  0  0  0  0  0  0
    5.2593    0.1866    0.0000 C   0  0  0  0  0  0  0  0  0  0  0  0
    6.5071    1.0189    0.0000 C   0  0  0  0  0  0  0  0  0  0  0  0
    6.4102    2.5158    0.0000 C   0  0  0  0  0  0  0  0  0  0  0  0
    7.6581    3.3482    0.0000 O   0  0  0  0  0  0  0  0  0  0  0  0
    5.0654    3.1803    0.0000 C   0  0  0  0  0  0  0  0  0  0  0  0
    3.8176    2.3479    0.0000 C   0  0  0  0  0  0  0  0  0  0  0  0
    3.9145    0.8511    0.0000 C   0  0  0  0  0  0  0  0  0  0  0  0
    2.5697    1.5155    0.0000 C   0  0  0  0  0  0  0  0  0  0  0  0
    2.6666    0.0187    0.0000 C   0  0  0  0  0  0  0  0  0  0  0  0
    1.3218    0.6832    0.0000 C   0  0  0  0  0  0  0  0  0  0  0  0
    0.0740   -0.1492    0.0000 C   0  0  0  0  0  0  0  0  0  0  0  0
   -1.2708    0.5153    0.0000 O   0  0  0  0  0  0  0  0  0  0  0  0
    0.1709   -1.6461    0.0000 C   0  0  0  0  0  0  0  0  0  0  0  0
   -1.2360   -1.1258    0.0000 C   0  0  0  0  0  0  0  0  0  0  0  0
  2  1  1  6
  2  3  1  0
  3  4  1  0
  4  5  1  0
  5  6  2  0
  5  7  1  0
  7  8  1  0
  8  9  1  0
  8 10  1  0
  8 11  1  0
  2 12  1  0
 12 13  1  6
 13 14  1  0
 15 14  1  6
 15 16  1  0
 16 17  1  1
 17 18  1  0
 19 18  1  1
 19 20  1  0
 20 21  1  0
 21 22  1  1
 21 23  1  0
 23 24  1  0
 24 25  1  0
 25 26  1  6
 25 27  1  0
 27 28  1  6
 28 29  1  0
 29 30  1  6
 29 31  1  0
 31 32  1  6
 31 12  1  0
 31 15  1  0
 27 16  1  0
 25 19  1  0
M  END
>  <MS_ID>  (2621) 
MS2712

>  <SMILES>  (2621) 
C[C@H](CCC(=O)OC(C)(C)C)[C@H]1CC[C@H]2[C@@H]3CC[C@@H]4C[C@H](O)CC[C@]4(C)[C@H]3C[C@@H](O)[C@]12C

>  <Structure_dimension>  (2621) 
2D

$$$$
MS2713
     RDKit          2D

 34 38  0  0  0  0  0  0  0  0999 V2000
   -2.1988   -4.3667    0.0000 C   0  0  0  0  0  0  0  0  0  0  0  0
   -1.4461   -3.0693    0.0000 C   0  0  0  0  0  0  0  0  0  0  0  0
   -2.1934   -1.7687    0.0000 C   0  0  0  0  0  0  0  0  0  0  0  0
   -3.6934   -1.7656    0.0000 C   0  0  0  0  0  0  0  0  0  0  0  0
   -4.4407   -0.4650    0.0000 C   0  0  0  0  0  0  0  0  0  0  0  0
   -3.6881    0.8325    0.0000 O   0  0  0  0  0  0  0  0  0  0  0  0
   -5.9407   -0.4619    0.0000 O   0  0  0  0  0  0  0  0  0  0  0  0
   -6.6881    0.8387    0.0000 C   0  0  0  0  0  0  0  0  0  0  0  0
   -5.9354    2.1362    0.0000 C   0  0  0  0  0  0  0  0  0  0  0  0
   -6.6827    3.4368    0.0000 C   0  0  0  0  0  0  0  0  0  0  0  0
   -8.1827    3.4399    0.0000 C   0  0  0  0  0  0  0  0  0  0  0  0
   -8.9354    2.1424    0.0000 C   0  0  0  0  0  0  0  0  0  0  0  0
   -8.1880    0.8418    0.0000 C   0  0  0  0  0  0  0  0  0  0  0  0
    0.0539   -3.0724    0.0000 C   0  0  0  0  0  0  0  0  0  0  0  0
    0.9330   -4.2877    0.0000 C   0  0  0  0  0  0  0  0  0  0  0  0
    2.3606   -3.8271    0.0000 C   0  0  0  0  0  0  0  0  0  0  0  0
    2.3637   -2.3272    0.0000 C   0  0  0  0  0  0  0  0  0  0  0  0
    3.4805   -1.3258    0.0000 C   0  0  0  0  0  0  0  0  0  0  0  0
    4.9061   -1.7922    0.0000 C   0  0  0  0  0  0  0  0  0  0  0  0
    6.0229   -0.7909    0.0000 C   0  0  0  0  0  0  0  0  0  0  0  0
    5.7141    0.6770    0.0000 C   0  0  0  0  0  0  0  0  0  0  0  0
    6.8308    1.6784    0.0000 C   0  0  0  0  0  0  0  0  0  0  0  0
    6.5220    3.1462    0.0000 C   0  0  0  0  0  0  0  0  0  0  0  0
    7.6388    4.1476    0.0000 O   0  0  0  0  0  0  0  0  0  0  0  0
    5.0964    3.6127    0.0000 C   0  0  0  0  0  0  0  0  0  0  0  0
    3.9796    2.6113    0.0000 C   0  0  0  0  0  0  0  0  0  0  0  0
    4.2884    1.1435    0.0000 C   0  0  0  0  0  0  0  0  0  0  0  0
    2.8628    1.6100    0.0000 C   0  0  0  0  0  0  0  0  0  0  0  0
    3.1716    0.1421    0.0000 C   0  0  0  0  0  0  0  0  0  0  0  0
    1.7460    0.6086    0.0000 C   0  0  0  0  0  0  0  0  0  0  0  0
    0.6292   -0.3928    0.0000 C   0  0  0  0  0  0  0  0  0  0  0  0
   -0.7964    0.0737    0.0000 O   0  0  0  0  0  0  0  0  0  0  0  0
    0.9380   -1.8607    0.0000 C   0  0  0  0  0  0  0  0  0  0  0  0
   -0.5285   -1.5458    0.0000 C   0  0  0  0  0  0  0  0  0  0  0  0
  2  1  1  6
  2  3  1  0
  3  4  1  0
  4  5  1  0
  5  6  2  0
  5  7  1  0
  7  8  1  0
  8  9  2  0
  9 10  1  0
 10 11  2  0
 11 12  1  0
 12 13  2  0
  2 14  1  0
 14 15  1  6
 15 16  1  0
 17 16  1  6
 17 18  1  0
 18 19  1  1
 19 20  1  0
 21 20  1  1
 21 22  1  0
 22 23  1  0
 23 24  1  1
 23 25  1  0
 25 26  1  0
 26 27  1  0
 27 28  1  6
 27 29  1  0
 29 30  1  6
 30 31  1  0
 31 32  1  1
 31 33  1  0
 33 34  1  6
 13  8  1  0
 33 14  1  0
 33 17  1  0
 29 18  1  0
 27 21  1  0
M  END
>  <MS_ID>  (2622) 
MS2713

>  <SMILES>  (2622) 
C[C@H](CCC(=O)Oc1ccccc1)[C@H]1CC[C@H]2[C@@H]3CC[C@@H]4C[C@H](O)CC[C@]4(C)[C@H]3C[C@H](O)[C@]12C

>  <Structure_dimension>  (2622) 
2D

$$$$
MS2714
     RDKit          2D

 31 34  0  0  0  0  0  0  0  0999 V2000
   -3.9274   -2.9894    0.0000 C   0  0  0  0  0  0  0  0  0  0  0  0
   -2.8631   -1.9324    0.0000 C   0  0  0  0  0  0  0  0  0  0  0  0
   -3.2464   -0.4822    0.0000 C   0  0  0  0  0  0  0  0  0  0  0  0
   -4.6940   -0.0890    0.0000 C   0  0  0  0  0  0  0  0  0  0  0  0
   -5.0773    1.3612    0.0000 C   0  0  0  0  0  0  0  0  0  0  0  0
   -4.0130    2.4182    0.0000 O   0  0  0  0  0  0  0  0  0  0  0  0
   -6.5248    1.7544    0.0000 C   0  0  0  0  0  0  0  0  0  0  0  0
   -6.9180    0.3068    0.0000 C   0  0  0  0  0  0  0  0  0  0  0  0
   -6.1316    3.2019    0.0000 C   0  0  0  0  0  0  0  0  0  0  0  0
   -7.9724    2.1475    0.0000 O   0  0  0  0  0  0  0  0  0  0  0  0
   -1.4156   -2.3256    0.0000 C   0  0  0  0  0  0  0  0  0  0  0  0
   -0.8828   -3.7277    0.0000 C   0  0  0  0  0  0  0  0  0  0  0  0
    0.6154   -3.6544    0.0000 C   0  0  0  0  0  0  0  0  0  0  0  0
    1.0086   -2.2068    0.0000 C   0  0  0  0  0  0  0  0  0  0  0  0
    2.3474   -1.5304    0.0000 C   0  0  0  0  0  0  0  0  0  0  0  0
    3.6026   -2.3516    0.0000 C   0  0  0  0  0  0  0  0  0  0  0  0
    4.9414   -1.6752    0.0000 C   0  0  0  0  0  0  0  0  0  0  0  0
    5.0250   -0.1775    0.0000 C   0  0  0  0  0  0  0  0  0  0  0  0
    6.3639    0.4989    0.0000 C   0  0  0  0  0  0  0  0  0  0  0  0
    6.4475    1.9966    0.0000 C   0  0  0  0  0  0  0  0  0  0  0  0
    7.7863    2.6730    0.0000 O   0  0  0  0  0  0  0  0  0  0  0  0
    5.1923    2.8178    0.0000 C   0  0  0  0  0  0  0  0  0  0  0  0
    3.8534    2.1414    0.0000 C   0  0  0  0  0  0  0  0  0  0  0  0
    3.7698    0.6437    0.0000 C   0  0  0  0  0  0  0  0  0  0  0  0
    2.5146    1.4650    0.0000 C   0  0  0  0  0  0  0  0  0  0  0  0
    2.4310   -0.0327    0.0000 C   0  0  0  0  0  0  0  0  0  0  0  0
    1.1758    0.7885    0.0000 C   0  0  0  0  0  0  0  0  0  0  0  0
   -0.1630    0.1121    0.0000 C   0  0  0  0  0  0  0  0  0  0  0  0
   -1.4182    0.9334    0.0000 O   0  0  0  0  0  0  0  0  0  0  0  0
   -0.2466   -1.3856    0.0000 C   0  0  0  0  0  0  0  0  0  0  0  0
   -1.5808   -0.7000    0.0000 C   0  0  0  0  0  0  0  0  0  0  0  0
  2  1  1  6
  2  3  1  0
  3  4  1  0
  4  5  1  0
  5  6  2  0
  5  7  1  0
  7  8  1  0
  7  9  1  0
  7 10  1  0
  2 11  1  0
 11 12  1  6
 12 13  1  0
 14 13  1  6
 14 15  1  0
 15 16  1  1
 16 17  1  0
 18 17  1  1
 18 19  1  0
 19 20  1  0
 20 21  1  6
 20 22  1  0
 22 23  1  0
 23 24  1  0
 24 25  1  6
 24 26  1  0
 26 27  1  6
 27 28  1  0
 28 29  1  1
 28 30  1  0
 30 31  1  6
 30 11  1  0
 30 14  1  0
 26 15  1  0
 24 18  1  0
M  END
>  <MS_ID>  (2623) 
MS2714

>  <SMILES>  (2623) 
C[C@H](CCC(=O)C(C)(C)O)[C@H]1CC[C@H]2[C@@H]3CC[C@@H]4C[C@@H](O)CC[C@]4(C)[C@H]3C[C@H](O)[C@]12C

>  <Structure_dimension>  (2623) 
2D

$$$$
MS2715
     RDKit          2D

 35 39  0  0  0  0  0  0  0  0999 V2000
   -3.1364   -3.2618    0.0000 C   0  0  0  0  0  0  0  0  0  0  0  0
   -2.1884   -2.0994    0.0000 C   0  0  0  0  0  0  0  0  0  0  0  0
   -2.7211   -0.6972    0.0000 C   0  0  0  0  0  0  0  0  0  0  0  0
   -4.2018   -0.4574    0.0000 C   0  0  0  0  0  0  0  0  0  0  0  0
   -4.7345    0.9448    0.0000 C   0  0  0  0  0  0  0  0  0  0  0  0
   -3.7864    2.1073    0.0000 O   0  0  0  0  0  0  0  0  0  0  0  0
   -6.2152    1.1846    0.0000 C   0  0  0  0  0  0  0  0  0  0  0  0
   -6.7478    2.5869    0.0000 C   0  0  0  0  0  0  0  0  0  0  0  0
   -8.2286    2.8267    0.0000 C   0  0  0  0  0  0  0  0  0  0  0  0
   -9.1766    1.6642    0.0000 C   0  0  0  0  0  0  0  0  0  0  0  0
   -8.6439    0.2620    0.0000 C   0  0  0  0  0  0  0  0  0  0  0  0
   -7.1632    0.0222    0.0000 C   0  0  0  0  0  0  0  0  0  0  0  0
   -6.6305   -1.3800    0.0000 F   0  0  0  0  0  0  0  0  0  0  0  0
   -0.7077   -2.3392    0.0000 C   0  0  0  0  0  0  0  0  0  0  0  0
   -0.0313   -3.6781    0.0000 C   0  0  0  0  0  0  0  0  0  0  0  0
    1.4510   -3.4486    0.0000 C   0  0  0  0  0  0  0  0  0  0  0  0
    1.6908   -1.9679    0.0000 C   0  0  0  0  0  0  0  0  0  0  0  0
    2.9516   -1.1553    0.0000 C   0  0  0  0  0  0  0  0  0  0  0  0
    4.2858   -1.8409    0.0000 C   0  0  0  0  0  0  0  0  0  0  0  0
    4.3591   -3.3391    0.0000 O   0  0  0  0  0  0  0  0  0  0  0  0
    5.5466   -1.0283    0.0000 C   0  0  0  0  0  0  0  0  0  0  0  0
    6.8807   -1.7140    0.0000 O   0  0  0  0  0  0  0  0  0  0  0  0
    5.4733    0.4699    0.0000 C   0  0  0  0  0  0  0  0  0  0  0  0
    6.7342    1.2825    0.0000 C   0  0  0  0  0  0  0  0  0  0  0  0
    6.6609    2.7807    0.0000 C   0  0  0  0  0  0  0  0  0  0  0  0
    7.9217    3.5933    0.0000 O   0  0  0  0  0  0  0  0  0  0  0  0
    5.3267    3.4663    0.0000 C   0  0  0  0  0  0  0  0  0  0  0  0
    4.0659    2.6537    0.0000 C   0  0  0  0  0  0  0  0  0  0  0  0
    4.1392    1.1555    0.0000 C   0  0  0  0  0  0  0  0  0  0  0  0
    2.8050    1.8411    0.0000 C   0  0  0  0  0  0  0  0  0  0  0  0
    2.8783    0.3429    0.0000 C   0  0  0  0  0  0  0  0  0  0  0  0
    1.5442    1.0286    0.0000 C   0  0  0  0  0  0  0  0  0  0  0  0
    0.2834    0.2160    0.0000 C   0  0  0  0  0  0  0  0  0  0  0  0
    0.3567   -1.2822    0.0000 C   0  0  0  0  0  0  0  0  0  0  0  0
   -1.0418   -0.7398    0.0000 C   0  0  0  0  0  0  0  0  0  0  0  0
  2  1  1  6
  2  3  1  0
  3  4  1  0
  4  5  1  0
  5  6  2  0
  5  7  1  0
  7  8  2  0
  8  9  1  0
  9 10  2  0
 10 11  1  0
 11 12  2  0
 12 13  1  0
  2 14  1  0
 14 15  1  6
 15 16  1  0
 17 16  1  6
 17 18  1  0
 18 19  1  1
 19 20  1  1
 19 21  1  0
 21 22  1  1
 21 23  1  0
 23 24  1  1
 24 25  1  0
 25 26  1  1
 25 27  1  0
 27 28  1  0
 28 29  1  0
 29 30  1  6
 29 31  1  0
 31 32  1  6
 32 33  1  0
 33 34  1  0
 34 35  1  6
 12  7  1  0
 34 14  1  0
 34 17  1  0
 31 18  1  0
 29 23  1  0
M  END
>  <MS_ID>  (2624) 
MS2715

>  <SMILES>  (2624) 
C[C@H](CCC(=O)c1ccccc1F)[C@H]1CC[C@H]2[C@@H]3[C@H](O)[C@H](O)[C@@H]4C[C@H](O)CC[C@]4(C)[C@H]3CC[C@]12C

>  <Structure_dimension>  (2624) 
2D

$$$$
MS2716
     RDKit          2D

 31 34  0  0  0  0  0  0  0  0999 V2000
   -4.2495   -2.8115    0.0000 C   0  0  0  0  0  0  0  0  0  0  0  0
   -3.1859   -1.7538    0.0000 C   0  0  0  0  0  0  0  0  0  0  0  0
   -3.5702   -0.3038    0.0000 C   0  0  0  0  0  0  0  0  0  0  0  0
   -5.0180    0.0883    0.0000 C   0  0  0  0  0  0  0  0  0  0  0  0
   -5.4023    1.5383    0.0000 C   0  0  0  0  0  0  0  0  0  0  0  0
   -4.3387    2.5960    0.0000 O   0  0  0  0  0  0  0  0  0  0  0  0
   -6.8501    1.9305    0.0000 N   0  0  0  0  0  0  0  0  0  0  0  0
   -7.2344    3.3804    0.0000 C   0  0  0  0  0  0  0  0  0  0  0  0
   -7.9137    0.8727    0.0000 C   0  0  0  0  0  0  0  0  0  0  0  0
   -1.7381   -2.1460    0.0000 C   0  0  0  0  0  0  0  0  0  0  0  0
   -1.2044   -3.5478    0.0000 C   0  0  0  0  0  0  0  0  0  0  0  0
    0.2938   -3.4734    0.0000 C   0  0  0  0  0  0  0  0  0  0  0  0
    0.6860   -2.0256    0.0000 C   0  0  0  0  0  0  0  0  0  0  0  0
    2.0243   -1.3482    0.0000 C   0  0  0  0  0  0  0  0  0  0  0  0
    3.2801   -2.1686    0.0000 C   0  0  0  0  0  0  0  0  0  0  0  0
    3.1975   -3.6663    0.0000 O   0  0  0  0  0  0  0  0  0  0  0  0
    4.6185   -1.4913    0.0000 C   0  0  0  0  0  0  0  0  0  0  0  0
    4.7010    0.0064    0.0000 C   0  0  0  0  0  0  0  0  0  0  0  0
    6.0394    0.6838    0.0000 C   0  0  0  0  0  0  0  0  0  0  0  0
    6.1220    2.1815    0.0000 C   0  0  0  0  0  0  0  0  0  0  0  0
    7.4604    2.8588    0.0000 O   0  0  0  0  0  0  0  0  0  0  0  0
    4.8662    3.0019    0.0000 C   0  0  0  0  0  0  0  0  0  0  0  0
    3.5279    2.3246    0.0000 C   0  0  0  0  0  0  0  0  0  0  0  0
    3.4453    0.8268    0.0000 C   0  0  0  0  0  0  0  0  0  0  0  0
    2.1895    1.6472    0.0000 C   0  0  0  0  0  0  0  0  0  0  0  0
    2.1069    0.1495    0.0000 C   0  0  0  0  0  0  0  0  0  0  0  0
    0.8511    0.9699    0.0000 C   0  0  0  0  0  0  0  0  0  0  0  0
   -0.4872    0.2925    0.0000 C   0  0  0  0  0  0  0  0  0  0  0  0
   -1.7430    1.1129    0.0000 O   0  0  0  0  0  0  0  0  0  0  0  0
   -0.5698   -1.2052    0.0000 C   0  0  0  0  0  0  0  0  0  0  0  0
   -1.9045   -0.5205    0.0000 C   0  0  0  0  0  0  0  0  0  0  0  0
  2  1  1  6
  2  3  1  0
  3  4  1  0
  4  5  1  0
  5  6  2  0
  5  7  1  0
  7  8  1  0
  7  9  1  0
  2 10  1  0
 10 11  1  6
 11 12  1  0
 13 12  1  6
 13 14  1  0
 14 15  1  1
 15 16  1  1
 15 17  1  0
 18 17  1  1
 18 19  1  0
 19 20  1  0
 20 21  1  6
 20 22  1  0
 22 23  1  0
 23 24  1  0
 24 25  1  6
 24 26  1  0
 26 27  1  6
 27 28  1  0
 28 29  1  1
 28 30  1  0
 30 31  1  6
 30 10  1  0
 30 13  1  0
 26 14  1  0
 24 18  1  0
M  END
>  <MS_ID>  (2625) 
MS2716

>  <SMILES>  (2625) 
C[C@H](CCC(=O)N(C)C)[C@H]1CC[C@H]2[C@@H]3[C@H](O)C[C@@H]4C[C@@H](O)CC[C@]4(C)[C@H]3C[C@H](O)[C@]12C

>  <Structure_dimension>  (2625) 
2D

$$$$
MS2717
     RDKit          2D

 34 37  0  0  0  0  0  0  0  0999 V2000
   -2.9749   -4.4563    0.0000 C   0  0  0  0  0  0  0  0  0  0  0  0
   -2.2212   -3.1594    0.0000 C   0  0  0  0  0  0  0  0  0  0  0  0
   -2.9676   -1.8583    0.0000 C   0  0  0  0  0  0  0  0  0  0  0  0
   -4.4676   -1.8541    0.0000 C   0  0  0  0  0  0  0  0  0  0  0  0
   -5.2139   -0.5529    0.0000 C   0  0  0  0  0  0  0  0  0  0  0  0
   -6.7139   -0.5487    0.0000 O   0  0  0  0  0  0  0  0  0  0  0  0
   -4.4603    0.7440    0.0000 O   0  0  0  0  0  0  0  0  0  0  0  0
   -5.2067    2.0451    0.0000 C   0  0  0  0  0  0  0  0  0  0  0  0
   -6.7067    2.0493    0.0000 O   0  0  0  0  0  0  0  0  0  0  0  0
   -4.4530    3.3421    0.0000 C   0  0  0  0  0  0  0  0  0  0  0  0
   -5.7500    4.0957    0.0000 C   0  0  0  0  0  0  0  0  0  0  0  0
   -3.1561    2.5884    0.0000 C   0  0  0  0  0  0  0  0  0  0  0  0
   -3.6994    4.6390    0.0000 C   0  0  0  0  0  0  0  0  0  0  0  0
   -0.7212   -3.1636    0.0000 C   0  0  0  0  0  0  0  0  0  0  0  0
    0.1570   -4.3796    0.0000 C   0  0  0  0  0  0  0  0  0  0  0  0
    1.5849   -3.9200    0.0000 C   0  0  0  0  0  0  0  0  0  0  0  0
    1.5891   -2.4201    0.0000 C   0  0  0  0  0  0  0  0  0  0  0  0
    2.7066   -1.4195    0.0000 C   0  0  0  0  0  0  0  0  0  0  0  0
    4.1319   -1.8870    0.0000 C   0  0  0  0  0  0  0  0  0  0  0  0
    4.4397   -3.3551    0.0000 O   0  0  0  0  0  0  0  0  0  0  0  0
    5.2495   -0.8864    0.0000 C   0  0  0  0  0  0  0  0  0  0  0  0
    4.9417    0.5817    0.0000 C   0  0  0  0  0  0  0  0  0  0  0  0
    6.0592    1.5822    0.0000 C   0  0  0  0  0  0  0  0  0  0  0  0
    5.7515    3.0503    0.0000 C   0  0  0  0  0  0  0  0  0  0  0  0
    6.8690    4.0509    0.0000 O   0  0  0  0  0  0  0  0  0  0  0  0
    4.3262    3.5178    0.0000 C   0  0  0  0  0  0  0  0  0  0  0  0
    3.2087    2.5173    0.0000 C   0  0  0  0  0  0  0  0  0  0  0  0
    3.5164    1.0492    0.0000 C   0  0  0  0  0  0  0  0  0  0  0  0
    2.0911    1.5167    0.0000 C   0  0  0  0  0  0  0  0  0  0  0  0
    2.3989    0.0486    0.0000 C   0  0  0  0  0  0  0  0  0  0  0  0
    0.9736    0.5161    0.0000 C   0  0  0  0  0  0  0  0  0  0  0  0
   -0.1439   -0.4844    0.0000 C   0  0  0  0  0  0  0  0  0  0  0  0
    0.1638   -1.9525    0.0000 C   0  0  0  0  0  0  0  0  0  0  0  0
   -1.3025   -1.6366    0.0000 C   0  0  0  0  0  0  0  0  0  0  0  0
  2  1  1  6
  2  3  1  0
  3  4  1  0
  4  5  1  0
  5  6  2  0
  5  7  1  0
  7  8  1  0
  8  9  2  0
  8 10  1  0
 10 11  1  0
 10 12  1  0
 10 13  1  0
  2 14  1  0
 14 15  1  6
 15 16  1  0
 17 16  1  6
 17 18  1  0
 18 19  1  1
 19 20  1  1
 19 21  1  0
 22 21  1  1
 22 23  1  0
 23 24  1  0
 24 25  1  1
 24 26  1  0
 26 27  1  0
 27 28  1  0
 28 29  1  6
 28 30  1  0
 30 31  1  6
 31 32  1  0
 32 33  1  0
 33 34  1  6
 33 14  1  0
 33 17  1  0
 30 18  1  0
 28 22  1  0
M  END
>  <MS_ID>  (2626) 
MS2717

>  <SMILES>  (2626) 
C[C@H](CCC(=O)OC(=O)C(C)(C)C)[C@H]1CC[C@H]2[C@@H]3[C@H](O)C[C@@H]4C[C@H](O)CC[C@]4(C)[C@H]3CC[C@]12C

>  <Structure_dimension>  (2626) 
2D

$$$$
MS2718
     RDKit          2D

 32 36  0  0  0  0  0  0  0  0999 V2000
   -6.3766   -1.6468    0.0000 C   0  0  0  0  0  0  0  0  0  0  0  0
   -5.0756   -0.9002    0.0000 C   0  0  0  0  0  0  0  0  0  0  0  0
   -5.0716    0.5998    0.0000 C   0  0  0  0  0  0  0  0  0  0  0  0
   -6.3687    1.3532    0.0000 C   0  0  0  0  0  0  0  0  0  0  0  0
   -6.3647    2.8532    0.0000 C   0  0  0  0  0  0  0  0  0  0  0  0
   -5.0637    3.5998    0.0000 O   0  0  0  0  0  0  0  0  0  0  0  0
   -7.6617    3.6066    0.0000 O   0  0  0  0  0  0  0  0  0  0  0  0
   -3.7785   -1.6537    0.0000 C   0  0  0  0  0  0  0  0  0  0  0  0
   -3.6257   -3.1459    0.0000 C   0  0  0  0  0  0  0  0  0  0  0  0
   -2.1593   -3.4616    0.0000 C   0  0  0  0  0  0  0  0  0  0  0  0
   -1.4059   -2.1646    0.0000 C   0  0  0  0  0  0  0  0  0  0  0  0
    0.0622   -1.8566    0.0000 C   0  0  0  0  0  0  0  0  0  0  0  0
    1.0629   -2.9740    0.0000 C   0  0  0  0  0  0  0  0  0  0  0  0
    2.5310   -2.6660    0.0000 C   0  0  0  0  0  0  0  0  0  0  0  0
    2.9983   -1.2406    0.0000 C   0  0  0  0  0  0  0  0  0  0  0  0
    4.4663   -0.9326    0.0000 C   0  0  0  0  0  0  0  0  0  0  0  0
    4.9336    0.4927    0.0000 C   0  0  0  0  0  0  0  0  0  0  0  0
    6.4016    0.8007    0.0000 N   0  0  0  0  0  0  0  0  0  0  0  0
    7.0154    2.1694    0.0000 C   0  0  0  0  0  0  0  0  0  0  0  0
    8.5067    2.0086    0.0000 N   0  0  0  0  0  0  0  0  0  0  0  0
    8.8147    0.5406    0.0000 N   0  0  0  0  0  0  0  0  0  0  0  0
    7.5137   -0.2060    0.0000 N   0  0  0  0  0  0  0  0  0  0  0  0
    3.9329    1.6101    0.0000 C   0  0  0  0  0  0  0  0  0  0  0  0
    2.4648    1.3021    0.0000 C   0  0  0  0  0  0  0  0  0  0  0  0
    1.9975   -0.1233    0.0000 C   0  0  0  0  0  0  0  0  0  0  0  0
    0.9968    0.9941    0.0000 C   0  0  0  0  0  0  0  0  0  0  0  0
    0.5295   -0.4312    0.0000 C   0  0  0  0  0  0  0  0  0  0  0  0
   -0.4713    0.6861    0.0000 C   0  0  0  0  0  0  0  0  0  0  0  0
   -1.9393    0.3782    0.0000 C   0  0  0  0  0  0  0  0  0  0  0  0
   -2.9400    1.4955    0.0000 O   0  0  0  0  0  0  0  0  0  0  0  0
   -2.4066   -1.0472    0.0000 C   0  0  0  0  0  0  0  0  0  0  0  0
   -3.5187   -0.0405    0.0000 C   0  0  0  0  0  0  0  0  0  0  0  0
  2  1  1  6
  2  3  1  0
  3  4  1  0
  4  5  1  0
  5  6  2  0
  5  7  1  0
  2  8  1  0
  8  9  1  6
  9 10  1  0
 11 10  1  6
 11 12  1  0
 12 13  1  1
 13 14  1  0
 15 14  1  1
 15 16  1  0
 16 17  1  0
 17 18  1  1
 18 19  1  0
 19 20  2  0
 20 21  1  0
 21 22  2  0
 17 23  1  0
 23 24  1  0
 24 25  1  0
 25 26  1  6
 25 27  1  0
 27 28  1  6
 28 29  1  0
 29 30  1  6
 29 31  1  0
 31 32  1  6
 31  8  1  0
 31 11  1  0
 27 12  1  0
 25 15  1  0
 22 18  1  0
M  END
>  <MS_ID>  (2627) 
MS2718

>  <SMILES>  (2627) 
C[C@H](CCC(=O)O)[C@H]1CC[C@H]2[C@@H]3CC[C@@H]4C[C@H](n5cnnn5)CC[C@]4(C)[C@H]3C[C@@H](O)[C@]12C

>  <Structure_dimension>  (2627) 
2D

$$$$
MS2719
     RDKit          2D

 32 35  0  0  0  0  0  0  0  0999 V2000
   -3.6401   -3.7548    0.0000 C   0  0  0  0  0  0  0  0  0  0  0  0
   -2.6957   -2.5895    0.0000 C   0  0  0  0  0  0  0  0  0  0  0  0
   -3.2327   -1.1889    0.0000 C   0  0  0  0  0  0  0  0  0  0  0  0
   -4.7142   -0.9537    0.0000 C   0  0  0  0  0  0  0  0  0  0  0  0
   -5.2512    0.4469    0.0000 C   0  0  0  0  0  0  0  0  0  0  0  0
   -6.7327    0.6821    0.0000 O   0  0  0  0  0  0  0  0  0  0  0  0
   -4.3068    1.6122    0.0000 O   0  0  0  0  0  0  0  0  0  0  0  0
   -4.8438    3.0128    0.0000 C   0  0  0  0  0  0  0  0  0  0  0  0
   -5.3809    4.4134    0.0000 F   0  0  0  0  0  0  0  0  0  0  0  0
   -3.4433    3.5499    0.0000 F   0  0  0  0  0  0  0  0  0  0  0  0
   -6.2444    2.4758    0.0000 F   0  0  0  0  0  0  0  0  0  0  0  0
   -1.2142   -2.8246    0.0000 C   0  0  0  0  0  0  0  0  0  0  0  0
   -0.5337   -4.1614    0.0000 C   0  0  0  0  0  0  0  0  0  0  0  0
    0.9479   -3.9273    0.0000 C   0  0  0  0  0  0  0  0  0  0  0  0
    1.1831   -2.4459    0.0000 C   0  0  0  0  0  0  0  0  0  0  0  0
    2.4414   -1.6294    0.0000 C   0  0  0  0  0  0  0  0  0  0  0  0
    3.7776   -2.3108    0.0000 C   0  0  0  0  0  0  0  0  0  0  0  0
    5.0359   -1.4943    0.0000 C   0  0  0  0  0  0  0  0  0  0  0  0
    4.9580    0.0036    0.0000 C   0  0  0  0  0  0  0  0  0  0  0  0
    6.2163    0.8201    0.0000 C   0  0  0  0  0  0  0  0  0  0  0  0
    6.1383    2.3181    0.0000 C   0  0  0  0  0  0  0  0  0  0  0  0
    7.3966    3.1346    0.0000 O   0  0  0  0  0  0  0  0  0  0  0  0
    4.8021    2.9996    0.0000 C   0  0  0  0  0  0  0  0  0  0  0  0
    3.5438    2.1831    0.0000 C   0  0  0  0  0  0  0  0  0  0  0  0
    3.6217    0.6851    0.0000 C   0  0  0  0  0  0  0  0  0  0  0  0
    2.2855    1.3666    0.0000 C   0  0  0  0  0  0  0  0  0  0  0  0
    2.3634   -0.1314    0.0000 C   0  0  0  0  0  0  0  0  0  0  0  0
    1.0272    0.5501    0.0000 C   0  0  0  0  0  0  0  0  0  0  0  0
   -0.2311   -0.2664    0.0000 C   0  0  0  0  0  0  0  0  0  0  0  0
   -1.5674    0.4151    0.0000 O   0  0  0  0  0  0  0  0  0  0  0  0
   -0.1532   -1.7644    0.0000 C   0  0  0  0  0  0  0  0  0  0  0  0
   -1.5534   -1.2263    0.0000 C   0  0  0  0  0  0  0  0  0  0  0  0
  2  1  1  6
  2  3  1  0
  3  4  1  0
  4  5  1  0
  5  6  2  0
  5  7  1  0
  7  8  1  0
  8  9  1  0
  8 10  1  0
  8 11  1  0
  2 12  1  0
 12 13  1  6
 13 14  1  0
 15 14  1  6
 15 16  1  0
 16 17  1  1
 17 18  1  0
 19 18  1  1
 19 20  1  0
 20 21  1  0
 21 22  1  1
 21 23  1  0
 23 24  1  0
 24 25  1  0
 25 26  1  6
 25 27  1  0
 27 28  1  6
 28 29  1  0
 29 30  1  1
 29 31  1  0
 31 32  1  6
 31 12  1  0
 31 15  1  0
 27 16  1  0
 25 19  1  0
M  END
>  <MS_ID>  (2628) 
MS2719

>  <SMILES>  (2628) 
C[C@H](CCC(=O)OC(F)(F)F)[C@H]1CC[C@H]2[C@@H]3CC[C@@H]4C[C@H](O)CC[C@]4(C)[C@H]3C[C@H](O)[C@]12C

>  <Structure_dimension>  (2628) 
2D

$$$$
MS2720
     RDKit          2D

 31 34  0  0  0  0  0  0  0  0999 V2000
   -2.8633   -3.9386    0.0000 C   0  0  0  0  0  0  0  0  0  0  0  0
   -2.0152   -2.7014    0.0000 C   0  0  0  0  0  0  0  0  0  0  0  0
   -2.6625   -1.3483    0.0000 C   0  0  0  0  0  0  0  0  0  0  0  0
   -4.1580   -1.2323    0.0000 C   0  0  0  0  0  0  0  0  0  0  0  0
   -4.8053    0.1208    0.0000 C   0  0  0  0  0  0  0  0  0  0  0  0
   -3.9572    1.3580    0.0000 O   0  0  0  0  0  0  0  0  0  0  0  0
   -6.3008    0.2368    0.0000 N   0  0  0  0  0  0  0  0  0  0  0  0
   -6.9482    1.5899    0.0000 C   0  0  0  0  0  0  0  0  0  0  0  0
   -8.4437    1.7059    0.0000 C   0  0  0  0  0  0  0  0  0  0  0  0
   -9.0910    3.0590    0.0000 C   0  0  0  0  0  0  0  0  0  0  0  0
  -10.5865    3.1750    0.0000 O   0  0  0  0  0  0  0  0  0  0  0  0
   -0.5197   -2.8173    0.0000 C   0  0  0  0  0  0  0  0  0  0  0  0
    0.2656   -4.0954    0.0000 C   0  0  0  0  0  0  0  0  0  0  0  0
    1.7237   -3.7436    0.0000 C   0  0  0  0  0  0  0  0  0  0  0  0
    1.8397   -2.2480    0.0000 C   0  0  0  0  0  0  0  0  0  0  0  0
    3.0287   -1.3335    0.0000 C   0  0  0  0  0  0  0  0  0  0  0  0
    4.4151   -1.9060    0.0000 C   0  0  0  0  0  0  0  0  0  0  0  0
    5.6041   -0.9914    0.0000 C   0  0  0  0  0  0  0  0  0  0  0  0
    5.4066    0.4955    0.0000 C   0  0  0  0  0  0  0  0  0  0  0  0
    6.5956    1.4100    0.0000 C   0  0  0  0  0  0  0  0  0  0  0  0
    6.3981    2.8970    0.0000 C   0  0  0  0  0  0  0  0  0  0  0  0
    7.5871    3.8115    0.0000 O   0  0  0  0  0  0  0  0  0  0  0  0
    5.0116    3.4694    0.0000 C   0  0  0  0  0  0  0  0  0  0  0  0
    3.8226    2.5549    0.0000 C   0  0  0  0  0  0  0  0  0  0  0  0
    4.0201    1.0679    0.0000 C   0  0  0  0  0  0  0  0  0  0  0  0
    2.6336    1.6404    0.0000 C   0  0  0  0  0  0  0  0  0  0  0  0
    2.8312    0.1534    0.0000 C   0  0  0  0  0  0  0  0  0  0  0  0
    1.4447    0.7258    0.0000 C   0  0  0  0  0  0  0  0  0  0  0  0
    0.2557   -0.1887    0.0000 C   0  0  0  0  0  0  0  0  0  0  0  0
    0.4532   -1.6756    0.0000 C   0  0  0  0  0  0  0  0  0  0  0  0
   -0.9855   -1.2513    0.0000 C   0  0  0  0  0  0  0  0  0  0  0  0
  2  1  1  6
  2  3  1  0
  3  4  1  0
  4  5  1  0
  5  6  2  0
  5  7  1  0
  7  8  1  0
  8  9  1  0
  9 10  1  0
 10 11  1  0
  2 12  1  0
 12 13  1  6
 13 14  1  0
 15 14  1  6
 15 16  1  0
 16 17  1  1
 17 18  1  0
 19 18  1  1
 19 20  1  0
 20 21  1  0
 21 22  1  6
 21 23  1  0
 23 24  1  0
 24 25  1  0
 25 26  1  6
 25 27  1  0
 27 28  1  6
 28 29  1  0
 29 30  1  0
 30 31  1  6
 30 12  1  0
 30 15  1  0
 27 16  1  0
 25 19  1  0
M  END
>  <MS_ID>  (2629) 
MS2720

>  <SMILES>  (2629) 
C[C@H](CCC(=O)NCCCO)[C@H]1CC[C@H]2[C@@H]3CC[C@@H]4C[C@@H](O)CC[C@]4(C)[C@H]3CC[C@]12C

>  <Structure_dimension>  (2629) 
2D

$$$$
MS2721
     RDKit          2D

 30 33  0  0  0  0  0  0  0  0999 V2000
   -4.9192   -2.5888    0.0000 C   0  0  0  0  0  0  0  0  0  0  0  0
   -3.7747   -1.6192    0.0000 C   0  0  0  0  0  0  0  0  0  0  0  0
   -4.0422   -0.1432    0.0000 C   0  0  0  0  0  0  0  0  0  0  0  0
   -5.4542    0.3631    0.0000 C   0  0  0  0  0  0  0  0  0  0  0  0
   -5.7217    1.8391    0.0000 C   0  0  0  0  0  0  0  0  0  0  0  0
   -4.5772    2.8087    0.0000 O   0  0  0  0  0  0  0  0  0  0  0  0
   -7.1336    2.3454    0.0000 C   0  0  0  0  0  0  0  0  0  0  0  0
   -7.4011    3.8214    0.0000 O   0  0  0  0  0  0  0  0  0  0  0  0
   -2.3628   -2.1255    0.0000 C   0  0  0  0  0  0  0  0  0  0  0  0
   -1.9425   -3.5654    0.0000 C   0  0  0  0  0  0  0  0  0  0  0  0
   -0.4431   -3.6106    0.0000 C   0  0  0  0  0  0  0  0  0  0  0  0
    0.0632   -2.1987    0.0000 C   0  0  0  0  0  0  0  0  0  0  0  0
    1.4513   -1.6302    0.0000 C   0  0  0  0  0  0  0  0  0  0  0  0
    2.6377   -2.5480    0.0000 C   0  0  0  0  0  0  0  0  0  0  0  0
    4.0257   -1.9795    0.0000 C   0  0  0  0  0  0  0  0  0  0  0  0
    4.2274   -0.4931    0.0000 C   0  0  0  0  0  0  0  0  0  0  0  0
    5.6155    0.0754    0.0000 C   0  0  0  0  0  0  0  0  0  0  0  0
    5.8172    1.5618    0.0000 C   0  0  0  0  0  0  0  0  0  0  0  0
    7.2053    2.1303    0.0000 C   0  0  0  0  0  0  0  0  0  0  0  0
    8.3917    1.2124    0.0000 O   0  0  0  0  0  0  0  0  0  0  0  0
    4.6308    2.4796    0.0000 C   0  0  0  0  0  0  0  0  0  0  0  0
    3.2428    1.9111    0.0000 C   0  0  0  0  0  0  0  0  0  0  0  0
    3.0411    0.4247    0.0000 C   0  0  0  0  0  0  0  0  0  0  0  0
    1.8547    1.3426    0.0000 C   0  0  0  0  0  0  0  0  0  0  0  0
    1.6530   -0.1438    0.0000 C   0  0  0  0  0  0  0  0  0  0  0  0
    0.4666    0.7741    0.0000 C   0  0  0  0  0  0  0  0  0  0  0  0
   -0.9215    0.2056    0.0000 C   0  0  0  0  0  0  0  0  0  0  0  0
   -2.1079    1.1234    0.0000 O   0  0  0  0  0  0  0  0  0  0  0  0
   -1.1232   -1.2808    0.0000 C   0  0  0  0  0  0  0  0  0  0  0  0
   -2.3990   -0.4920    0.0000 C   0  0  0  0  0  0  0  0  0  0  0  0
  2  1  1  6
  2  3  1  0
  3  4  1  0
  4  5  1  0
  5  6  2  0
  5  7  1  0
  7  8  1  0
  2  9  1  0
  9 10  1  6
 10 11  1  0
 12 11  1  6
 12 13  1  0
 13 14  1  1
 14 15  1  0
 16 15  1  1
 16 17  1  0
 17 18  1  0
 18 19  1  1
 19 20  1  0
 18 21  1  0
 21 22  1  0
 22 23  1  0
 23 24  1  6
 23 25  1  0
 25 26  1  6
 26 27  1  0
 27 28  1  1
 27 29  1  0
 29 30  1  6
 29  9  1  0
 29 12  1  0
 25 13  1  0
 23 16  1  0
M  END
>  <MS_ID>  (2630) 
MS2721

>  <SMILES>  (2630) 
C[C@H](CCC(=O)CO)[C@H]1CC[C@H]2[C@@H]3CC[C@@H]4C[C@H](CO)CC[C@]4(C)[C@H]3C[C@H](O)[C@]12C

>  <Structure_dimension>  (2630) 
2D

$$$$
MS2722
     RDKit          2D

 28 31  0  0  0  0  0  0  0  0999 V2000
   -4.6340   -2.3524    0.0000 C   0  0  0  0  0  0  0  0  0  0  0  0
   -3.5242   -1.3434    0.0000 C   0  0  0  0  0  0  0  0  0  0  0  0
   -3.8431    0.1223    0.0000 C   0  0  0  0  0  0  0  0  0  0  0  0
   -5.2720    0.5789    0.0000 C   0  0  0  0  0  0  0  0  0  0  0  0
   -5.5909    2.0446    0.0000 C   0  0  0  0  0  0  0  0  0  0  0  0
   -4.4811    3.0537    0.0000 O   0  0  0  0  0  0  0  0  0  0  0  0
   -7.0197    2.5012    0.0000 O   0  0  0  0  0  0  0  0  0  0  0  0
   -2.0954   -1.8000    0.0000 C   0  0  0  0  0  0  0  0  0  0  0  0
   -1.6249   -3.2243    0.0000 C   0  0  0  0  0  0  0  0  0  0  0  0
   -0.1249   -3.2170    0.0000 C   0  0  0  0  0  0  0  0  0  0  0  0
    0.3317   -1.7882    0.0000 C   0  0  0  0  0  0  0  0  0  0  0  0
    1.6990   -1.1715    0.0000 C   0  0  0  0  0  0  0  0  0  0  0  0
    2.9168   -2.0473    0.0000 C   0  0  0  0  0  0  0  0  0  0  0  0
    2.7672   -3.5398    0.0000 F   0  0  0  0  0  0  0  0  0  0  0  0
    4.2841   -1.4305    0.0000 C   0  0  0  0  0  0  0  0  0  0  0  0
    4.4337    0.0620    0.0000 C   0  0  0  0  0  0  0  0  0  0  0  0
    5.8011    0.6787    0.0000 C   0  0  0  0  0  0  0  0  0  0  0  0
    5.9506    2.1713    0.0000 C   0  0  0  0  0  0  0  0  0  0  0  0
    4.7328    3.0471    0.0000 C   0  0  0  0  0  0  0  0  0  0  0  0
    3.3655    2.4303    0.0000 C   0  0  0  0  0  0  0  0  0  0  0  0
    3.2159    0.9378    0.0000 C   0  0  0  0  0  0  0  0  0  0  0  0
    1.9981    1.8136    0.0000 C   0  0  0  0  0  0  0  0  0  0  0  0
    1.8486    0.3211    0.0000 C   0  0  0  0  0  0  0  0  0  0  0  0
    0.6308    1.1968    0.0000 C   0  0  0  0  0  0  0  0  0  0  0  0
   -0.7366    0.5801    0.0000 C   0  0  0  0  0  0  0  0  0  0  0  0
   -1.9543    1.4559    0.0000 O   0  0  0  0  0  0  0  0  0  0  0  0
   -0.8861   -0.9124    0.0000 C   0  0  0  0  0  0  0  0  0  0  0  0
   -2.1888   -0.1687    0.0000 C   0  0  0  0  0  0  0  0  0  0  0  0
  2  1  1  6
  2  3  1  0
  3  4  1  0
  4  5  1  0
  5  6  2  0
  5  7  1  0
  2  8  1  0
  8  9  1  6
  9 10  1  0
 11 10  1  6
 11 12  1  0
 12 13  1  1
 13 14  1  6
 13 15  1  0
 16 15  1  1
 16 17  1  0
 17 18  1  0
 18 19  1  0
 19 20  1  0
 20 21  1  0
 21 22  1  6
 21 23  1  0
 23 24  1  6
 24 25  1  0
 25 26  1  1
 25 27  1  0
 27 28  1  6
 27  8  1  0
 27 11  1  0
 23 12  1  0
 21 16  1  0
M  END
>  <MS_ID>  (2631) 
MS2722

>  <SMILES>  (2631) 
C[C@H](CCC(=O)O)[C@H]1CC[C@H]2[C@@H]3[C@@H](F)C[C@@H]4CCCC[C@]4(C)[C@H]3C[C@H](O)[C@]12C

>  <Structure_dimension>  (2631) 
2D

$$$$
MS2723
     RDKit          2D

 37 42  0  0  0  0  0  0  0  0999 V2000
   -1.9216   -4.1072    0.0000 C   0  0  0  0  0  0  0  0  0  0  0  0
   -1.1470   -2.8227    0.0000 C   0  0  0  0  0  0  0  0  0  0  0  0
   -1.8722   -1.5096    0.0000 C   0  0  0  0  0  0  0  0  0  0  0  0
   -3.3719   -1.4811    0.0000 C   0  0  0  0  0  0  0  0  0  0  0  0
   -4.0971   -0.1680    0.0000 C   0  0  0  0  0  0  0  0  0  0  0  0
   -3.3225    1.1165    0.0000 O   0  0  0  0  0  0  0  0  0  0  0  0
   -5.5968   -0.1395    0.0000 C   0  0  0  0  0  0  0  0  0  0  0  0
   -6.5014   -1.3360    0.0000 C   0  0  0  0  0  0  0  0  0  0  0  0
   -7.9189   -0.8455    0.0000 O   0  0  0  0  0  0  0  0  0  0  0  0
   -7.8904    0.6543    0.0000 C   0  0  0  0  0  0  0  0  0  0  0  0
   -8.9858    1.6790    0.0000 C   0  0  0  0  0  0  0  0  0  0  0  0
   -8.6461    3.1400    0.0000 C   0  0  0  0  0  0  0  0  0  0  0  0
   -7.2109    3.5763    0.0000 C   0  0  0  0  0  0  0  0  0  0  0  0
   -6.1155    2.5516    0.0000 C   0  0  0  0  0  0  0  0  0  0  0  0
   -6.4552    1.0906    0.0000 C   0  0  0  0  0  0  0  0  0  0  0  0
    0.3527   -2.8512    0.0000 C   0  0  0  0  0  0  0  0  0  0  0  0
    1.2112   -4.0813    0.0000 C   0  0  0  0  0  0  0  0  0  0  0  0
    2.6463   -3.6450    0.0000 C   0  0  0  0  0  0  0  0  0  0  0  0
    2.6748   -2.1452    0.0000 C   0  0  0  0  0  0  0  0  0  0  0  0
    3.8084   -1.1629    0.0000 C   0  0  0  0  0  0  0  0  0  0  0  0
    5.2259   -1.6535    0.0000 C   0  0  0  0  0  0  0  0  0  0  0  0
    5.5099   -3.1264    0.0000 O   0  0  0  0  0  0  0  0  0  0  0  0
    6.3595   -0.6712    0.0000 C   0  0  0  0  0  0  0  0  0  0  0  0
    6.0756    0.8017    0.0000 C   0  0  0  0  0  0  0  0  0  0  0  0
    7.2092    1.7840    0.0000 C   0  0  0  0  0  0  0  0  0  0  0  0
    6.9253    3.2569    0.0000 C   0  0  0  0  0  0  0  0  0  0  0  0
    8.0589    4.2392    0.0000 O   0  0  0  0  0  0  0  0  0  0  0  0
    5.5078    3.7475    0.0000 C   0  0  0  0  0  0  0  0  0  0  0  0
    4.3742    2.7652    0.0000 C   0  0  0  0  0  0  0  0  0  0  0  0
    4.6581    1.2923    0.0000 C   0  0  0  0  0  0  0  0  0  0  0  0
    3.2406    1.7829    0.0000 C   0  0  0  0  0  0  0  0  0  0  0  0
    3.5245    0.3100    0.0000 C   0  0  0  0  0  0  0  0  0  0  0  0
    2.1070    0.8005    0.0000 C   0  0  0  0  0  0  0  0  0  0  0  0
    0.9734   -0.1818    0.0000 C   0  0  0  0  0  0  0  0  0  0  0  0
   -0.4441    0.3088    0.0000 O   0  0  0  0  0  0  0  0  0  0  0  0
    1.2573   -1.6547    0.0000 C   0  0  0  0  0  0  0  0  0  0  0  0
   -0.2037   -1.3149    0.0000 C   0  0  0  0  0  0  0  0  0  0  0  0
  2  1  1  6
  2  3  1  0
  3  4  1  0
  4  5  1  0
  5  6  2  0
  5  7  1  0
  7  8  2  0
  8  9  1  0
  9 10  1  0
 10 11  2  0
 11 12  1  0
 12 13  2  0
 13 14  1  0
 14 15  2  0
  2 16  1  0
 16 17  1  6
 17 18  1  0
 19 18  1  6
 19 20  1  0
 20 21  1  1
 21 22  1  1
 21 23  1  0
 24 23  1  1
 24 25  1  0
 25 26  1  0
 26 27  1  1
 26 28  1  0
 28 29  1  0
 29 30  1  0
 30 31  1  6
 30 32  1  0
 32 33  1  6
 33 34  1  0
 34 35  1  1
 34 36  1  0
 36 37  1  6
 15  7  1  0
 36 16  1  0
 15 10  1  0
 36 19  1  0
 32 20  1  0
 30 24  1  0
M  END
>  <MS_ID>  (2632) 
MS2723

>  <SMILES>  (2632) 
C[C@H](CCC(=O)c1coc2ccccc12)[C@H]1CC[C@H]2[C@@H]3[C@H](O)C[C@@H]4C[C@H](O)CC[C@]4(C)[C@H]3C[C@H](O)[C@]12C

>  <Structure_dimension>  (2632) 
2D

$$$$
MS2724
     RDKit          2D

 33 36  0  0  0  0  0  0  0  0999 V2000
   -9.1553    3.4535    0.0000 C   0  0  0  0  0  0  0  0  0  0  0  0
   -8.5407    2.0852    0.0000 C   0  0  0  0  0  0  0  0  0  0  0  0
   -9.4184    0.8688    0.0000 O   0  0  0  0  0  0  0  0  0  0  0  0
   -7.0484    1.9333    0.0000 O   0  0  0  0  0  0  0  0  0  0  0  0
   -6.4339    0.5650    0.0000 C   0  0  0  0  0  0  0  0  0  0  0  0
   -4.9416    0.4131    0.0000 C   0  0  0  0  0  0  0  0  0  0  0  0
   -4.0639    1.6295    0.0000 O   0  0  0  0  0  0  0  0  0  0  0  0
   -4.3270   -0.9552    0.0000 C   0  0  0  0  0  0  0  0  0  0  0  0
   -2.8347   -1.1072    0.0000 C   0  0  0  0  0  0  0  0  0  0  0  0
   -2.2201   -2.4755    0.0000 C   0  0  0  0  0  0  0  0  0  0  0  0
   -3.0978   -3.6919    0.0000 C   0  0  0  0  0  0  0  0  0  0  0  0
   -0.7278   -2.6274    0.0000 C   0  0  0  0  0  0  0  0  0  0  0  0
    0.0264   -3.9240    0.0000 C   0  0  0  0  0  0  0  0  0  0  0  0
    1.4926   -3.6073    0.0000 C   0  0  0  0  0  0  0  0  0  0  0  0
    1.6445   -2.1150    0.0000 C   0  0  0  0  0  0  0  0  0  0  0  0
    2.8552   -1.2294    0.0000 C   0  0  0  0  0  0  0  0  0  0  0  0
    4.2275   -1.8350    0.0000 C   0  0  0  0  0  0  0  0  0  0  0  0
    4.3891   -3.3263    0.0000 O   0  0  0  0  0  0  0  0  0  0  0  0
    5.4381   -0.9494    0.0000 C   0  0  0  0  0  0  0  0  0  0  0  0
    5.2764    0.5419    0.0000 C   0  0  0  0  0  0  0  0  0  0  0  0
    6.4871    1.4275    0.0000 C   0  0  0  0  0  0  0  0  0  0  0  0
    6.3254    2.9188    0.0000 C   0  0  0  0  0  0  0  0  0  0  0  0
    7.5360    3.8044    0.0000 O   0  0  0  0  0  0  0  0  0  0  0  0
    4.9531    3.5244    0.0000 C   0  0  0  0  0  0  0  0  0  0  0  0
    3.7425    2.6388    0.0000 C   0  0  0  0  0  0  0  0  0  0  0  0
    3.9041    1.1475    0.0000 C   0  0  0  0  0  0  0  0  0  0  0  0
    2.5318    1.7531    0.0000 C   0  0  0  0  0  0  0  0  0  0  0  0
    2.6935    0.2619    0.0000 C   0  0  0  0  0  0  0  0  0  0  0  0
    1.3212    0.8675    0.0000 C   0  0  0  0  0  0  0  0  0  0  0  0
    0.1105   -0.0181    0.0000 C   0  0  0  0  0  0  0  0  0  0  0  0
   -1.2618    0.5875    0.0000 O   0  0  0  0  0  0  0  0  0  0  0  0
    0.2722   -1.5094    0.0000 C   0  0  0  0  0  0  0  0  0  0  0  0
   -1.1559   -1.0505    0.0000 C   0  0  0  0  0  0  0  0  0  0  0  0
  1  2  1  0
  2  3  2  0
  2  4  1  0
  4  5  1  0
  5  6  1  0
  6  7  2  0
  6  8  1  0
  8  9  1  0
  9 10  1  0
 10 11  1  6
 10 12  1  0
 12 13  1  6
 13 14  1  0
 15 14  1  6
 15 16  1  0
 16 17  1  1
 17 18  1  1
 17 19  1  0
 20 19  1  1
 20 21  1  0
 21 22  1  0
 22 23  1  1
 22 24  1  0
 24 25  1  0
 25 26  1  0
 26 27  1  6
 26 28  1  0
 28 29  1  6
 29 30  1  0
 30 31  1  1
 30 32  1  0
 32 33  1  6
 32 12  1  0
 32 15  1  0
 28 16  1  0
 26 20  1  0
M  END
>  <MS_ID>  (2633) 
MS2724

>  <SMILES>  (2633) 
CC(=O)OCC(=O)CC[C@@H](C)[C@H]1CC[C@H]2[C@@H]3[C@H](O)C[C@@H]4C[C@H](O)CC[C@]4(C)[C@H]3C[C@H](O)[C@]12C

>  <Structure_dimension>  (2633) 
2D

$$$$
MS2725
     RDKit          2D

 34 38  0  0  0  0  0  0  0  0999 V2000
   -3.2993   -3.4751    0.0000 C   0  0  0  0  0  0  0  0  0  0  0  0
   -2.3886   -2.2832    0.0000 C   0  0  0  0  0  0  0  0  0  0  0  0
   -2.9654   -0.8985    0.0000 C   0  0  0  0  0  0  0  0  0  0  0  0
   -4.4530   -0.7058    0.0000 C   0  0  0  0  0  0  0  0  0  0  0  0
   -5.0299    0.6788    0.0000 C   0  0  0  0  0  0  0  0  0  0  0  0
   -4.1192    1.8707    0.0000 O   0  0  0  0  0  0  0  0  0  0  0  0
   -6.5174    0.8716    0.0000 C   0  0  0  0  0  0  0  0  0  0  0  0
   -7.5477   -0.2186    0.0000 N   0  0  0  0  0  0  0  0  0  0  0  0
   -8.9029    0.4244    0.0000 N   0  0  0  0  0  0  0  0  0  0  0  0
   -8.7102    1.9119    0.0000 N   0  0  0  0  0  0  0  0  0  0  0  0
   -7.2359    2.1883    0.0000 N   0  0  0  0  0  0  0  0  0  0  0  0
   -6.5929    3.5435    0.0000 C   0  0  0  0  0  0  0  0  0  0  0  0
   -0.9010   -2.4759    0.0000 C   0  0  0  0  0  0  0  0  0  0  0  0
   -0.1825   -3.7927    0.0000 C   0  0  0  0  0  0  0  0  0  0  0  0
    1.2918   -3.5163    0.0000 C   0  0  0  0  0  0  0  0  0  0  0  0
    1.4845   -2.0287    0.0000 C   0  0  0  0  0  0  0  0  0  0  0  0
    2.7189   -1.1766    0.0000 C   0  0  0  0  0  0  0  0  0  0  0  0
    4.0742   -1.8195    0.0000 C   0  0  0  0  0  0  0  0  0  0  0  0
    4.1949   -3.3147    0.0000 O   0  0  0  0  0  0  0  0  0  0  0  0
    5.3086   -0.9674    0.0000 C   0  0  0  0  0  0  0  0  0  0  0  0
    6.6638   -1.6104    0.0000 O   0  0  0  0  0  0  0  0  0  0  0  0
    5.1878    0.5277    0.0000 C   0  0  0  0  0  0  0  0  0  0  0  0
    6.4223    1.3799    0.0000 C   0  0  0  0  0  0  0  0  0  0  0  0
    6.3015    2.8750    0.0000 C   0  0  0  0  0  0  0  0  0  0  0  0
    7.5360    3.7272    0.0000 O   0  0  0  0  0  0  0  0  0  0  0  0
    4.9463    3.5180    0.0000 C   0  0  0  0  0  0  0  0  0  0  0  0
    3.7119    2.6658    0.0000 C   0  0  0  0  0  0  0  0  0  0  0  0
    3.8326    1.1707    0.0000 C   0  0  0  0  0  0  0  0  0  0  0  0
    2.4774    1.8137    0.0000 C   0  0  0  0  0  0  0  0  0  0  0  0
    2.5982    0.3186    0.0000 C   0  0  0  0  0  0  0  0  0  0  0  0
    1.2430    0.9616    0.0000 C   0  0  0  0  0  0  0  0  0  0  0  0
    0.0085    0.1094    0.0000 C   0  0  0  0  0  0  0  0  0  0  0  0
    0.1293   -1.3857    0.0000 C   0  0  0  0  0  0  0  0  0  0  0  0
   -1.2857   -0.8879    0.0000 C   0  0  0  0  0  0  0  0  0  0  0  0
  2  1  1  6
  2  3  1  0
  3  4  1  0
  4  5  1  0
  5  6  2  0
  5  7  1  0
  7  8  2  0
  8  9  1  0
  9 10  2  0
 10 11  1  0
 11 12  1  0
  2 13  1  0
 13 14  1  6
 14 15  1  0
 16 15  1  6
 16 17  1  0
 17 18  1  1
 18 19  1  1
 18 20  1  0
 20 21  1  1
 20 22  1  0
 22 23  1  1
 23 24  1  0
 24 25  1  1
 24 26  1  0
 26 27  1  0
 27 28  1  0
 28 29  1  6
 28 30  1  0
 30 31  1  6
 31 32  1  0
 32 33  1  0
 33 34  1  6
 11  7  1  0
 33 13  1  0
 33 16  1  0
 30 17  1  0
 28 22  1  0
M  END
>  <MS_ID>  (2634) 
MS2725

>  <SMILES>  (2634) 
C[C@H](CCC(=O)c1nnnn1C)[C@H]1CC[C@H]2[C@@H]3[C@H](O)[C@H](O)[C@@H]4C[C@H](O)CC[C@]4(C)[C@H]3CC[C@]12C

>  <Structure_dimension>  (2634) 
2D

$$$$
MS2726
     RDKit          2D

 32 35  0  0  0  0  0  0  0  0999 V2000
   -3.8307   -3.4888    0.0000 C   0  0  0  0  0  0  0  0  0  0  0  0
   -2.9213   -2.2959    0.0000 C   0  0  0  0  0  0  0  0  0  0  0  0
   -3.4997   -0.9119    0.0000 C   0  0  0  0  0  0  0  0  0  0  0  0
   -4.9875   -0.7208    0.0000 C   0  0  0  0  0  0  0  0  0  0  0  0
   -5.5659    0.6632    0.0000 C   0  0  0  0  0  0  0  0  0  0  0  0
   -4.6565    1.8561    0.0000 O   0  0  0  0  0  0  0  0  0  0  0  0
   -7.0537    0.8543    0.0000 N   0  0  0  0  0  0  0  0  0  0  0  0
   -7.6321    2.2383    0.0000 C   0  0  0  0  0  0  0  0  0  0  0  0
   -9.1199    2.4294    0.0000 N   0  0  0  0  0  0  0  0  0  0  0  0
   -6.7227    3.4312    0.0000 O   0  0  0  0  0  0  0  0  0  0  0  0
   -1.4336   -2.4870    0.0000 C   0  0  0  0  0  0  0  0  0  0  0  0
   -0.7137   -3.8029    0.0000 C   0  0  0  0  0  0  0  0  0  0  0  0
    0.7603   -3.5249    0.0000 C   0  0  0  0  0  0  0  0  0  0  0  0
    0.9514   -2.0372    0.0000 C   0  0  0  0  0  0  0  0  0  0  0  0
    2.1849   -1.1836    0.0000 C   0  0  0  0  0  0  0  0  0  0  0  0
    3.5409   -1.8251    0.0000 C   0  0  0  0  0  0  0  0  0  0  0  0
    3.6633   -3.3201    0.0000 O   0  0  0  0  0  0  0  0  0  0  0  0
    4.7744   -0.9716    0.0000 C   0  0  0  0  0  0  0  0  0  0  0  0
    6.1303   -1.6131    0.0000 O   0  0  0  0  0  0  0  0  0  0  0  0
    4.6520    0.5234    0.0000 C   0  0  0  0  0  0  0  0  0  0  0  0
    5.8855    1.3769    0.0000 C   0  0  0  0  0  0  0  0  0  0  0  0
    5.7630    2.8719    0.0000 C   0  0  0  0  0  0  0  0  0  0  0  0
    6.9966    3.7254    0.0000 O   0  0  0  0  0  0  0  0  0  0  0  0
    4.4071    3.5134    0.0000 C   0  0  0  0  0  0  0  0  0  0  0  0
    3.1736    2.6599    0.0000 C   0  0  0  0  0  0  0  0  0  0  0  0
    3.2960    1.1649    0.0000 C   0  0  0  0  0  0  0  0  0  0  0  0
    1.9401    1.8063    0.0000 C   0  0  0  0  0  0  0  0  0  0  0  0
    2.0625    0.3113    0.0000 C   0  0  0  0  0  0  0  0  0  0  0  0
    0.7066    0.9528    0.0000 C   0  0  0  0  0  0  0  0  0  0  0  0
   -0.5269    0.0993    0.0000 C   0  0  0  0  0  0  0  0  0  0  0  0
   -0.4045   -1.3957    0.0000 C   0  0  0  0  0  0  0  0  0  0  0  0
   -1.8200   -0.8994    0.0000 C   0  0  0  0  0  0  0  0  0  0  0  0
  2  1  1  6
  2  3  1  0
  3  4  1  0
  4  5  1  0
  5  6  2  0
  5  7  1  0
  7  8  1  0
  8  9  1  0
  8 10  2  0
  2 11  1  0
 11 12  1  6
 12 13  1  0
 14 13  1  6
 14 15  1  0
 15 16  1  1
 16 17  1  1
 16 18  1  0
 18 19  1  1
 18 20  1  0
 20 21  1  1
 21 22  1  0
 22 23  1  1
 22 24  1  0
 24 25  1  0
 25 26  1  0
 26 27  1  6
 26 28  1  0
 28 29  1  6
 29 30  1  0
 30 31  1  0
 31 32  1  6
 31 11  1  0
 31 14  1  0
 28 15  1  0
 26 20  1  0
M  END
>  <MS_ID>  (2635) 
MS2726

>  <SMILES>  (2635) 
C[C@H](CCC(=O)NC(N)=O)[C@H]1CC[C@H]2[C@@H]3[C@H](O)[C@H](O)[C@@H]4C[C@H](O)CC[C@]4(C)[C@H]3CC[C@]12C

>  <Structure_dimension>  (2635) 
2D

$$$$
MS2727
     RDKit          2D

 40 44  0  0  0  0  0  0  0  0999 V2000
   -7.7456   -2.0849    0.0000 C   0  0  0  0  0  0  0  0  0  0  0  0
   -6.5700   -1.1533    0.0000 C   0  0  0  0  0  0  0  0  0  0  0  0
   -6.7891    0.3307    0.0000 C   0  0  0  0  0  0  0  0  0  0  0  0
   -8.1837    0.8829    0.0000 C   0  0  0  0  0  0  0  0  0  0  0  0
   -8.4028    2.3668    0.0000 C   0  0  0  0  0  0  0  0  0  0  0  0
   -7.2273    3.2985    0.0000 O   0  0  0  0  0  0  0  0  0  0  0  0
   -9.7975    2.9190    0.0000 O   0  0  0  0  0  0  0  0  0  0  0  0
   -5.1754   -1.7055    0.0000 C   0  0  0  0  0  0  0  0  0  0  0  0
   -4.8024   -3.1584    0.0000 C   0  0  0  0  0  0  0  0  0  0  0  0
   -3.3053   -3.2526    0.0000 C   0  0  0  0  0  0  0  0  0  0  0  0
   -2.7531   -1.8579    0.0000 C   0  0  0  0  0  0  0  0  0  0  0  0
   -1.3472   -1.3351    0.0000 C   0  0  0  0  0  0  0  0  0  0  0  0
   -0.1914   -2.2913    0.0000 C   0  0  0  0  0  0  0  0  0  0  0  0
   -0.4416   -3.7703    0.0000 O   0  0  0  0  0  0  0  0  0  0  0  0
    1.2145   -1.7685    0.0000 C   0  0  0  0  0  0  0  0  0  0  0  0
    1.4647   -0.2895    0.0000 C   0  0  0  0  0  0  0  0  0  0  0  0
    2.8707    0.2333    0.0000 C   0  0  0  0  0  0  0  0  0  0  0  0
    3.1208    1.7123    0.0000 C   0  0  0  0  0  0  0  0  0  0  0  0
    4.5268    2.2352    0.0000 O   0  0  0  0  0  0  0  0  0  0  0  0
    5.6825    1.2790    0.0000 C   0  0  0  0  0  0  0  0  0  0  0  0
    5.4323   -0.2000    0.0000 O   0  0  0  0  0  0  0  0  0  0  0  0
    6.5881   -1.1562    0.0000 C   0  0  0  0  0  0  0  0  0  0  0  0
    6.3379   -2.6351    0.0000 C   0  0  0  0  0  0  0  0  0  0  0  0
    4.9320   -3.1580    0.0000 O   0  0  0  0  0  0  0  0  0  0  0  0
    7.9940   -0.6333    0.0000 C   0  0  0  0  0  0  0  0  0  0  0  0
    9.1498   -1.5895    0.0000 O   0  0  0  0  0  0  0  0  0  0  0  0
    8.2442    0.8456    0.0000 C   0  0  0  0  0  0  0  0  0  0  0  0
    9.6501    1.3685    0.0000 O   0  0  0  0  0  0  0  0  0  0  0  0
    7.0885    1.8018    0.0000 C   0  0  0  0  0  0  0  0  0  0  0  0
    7.3387    3.2808    0.0000 O   0  0  0  0  0  0  0  0  0  0  0  0
    1.9651    2.6685    0.0000 C   0  0  0  0  0  0  0  0  0  0  0  0
    0.5592    2.1457    0.0000 C   0  0  0  0  0  0  0  0  0  0  0  0
    0.3090    0.6667    0.0000 C   0  0  0  0  0  0  0  0  0  0  0  0
   -0.8468    1.6229    0.0000 C   0  0  0  0  0  0  0  0  0  0  0  0
   -1.0970    0.1439    0.0000 C   0  0  0  0  0  0  0  0  0  0  0  0
   -2.2527    1.1000    0.0000 C   0  0  0  0  0  0  0  0  0  0  0  0
   -3.6586    0.5772    0.0000 C   0  0  0  0  0  0  0  0  0  0  0  0
   -4.8144    1.5334    0.0000 O   0  0  0  0  0  0  0  0  0  0  0  0
   -3.9088   -0.9018    0.0000 C   0  0  0  0  0  0  0  0  0  0  0  0
   -5.1582   -0.0716    0.0000 C   0  0  0  0  0  0  0  0  0  0  0  0
  2  1  1  6
  2  3  1  0
  3  4  1  0
  4  5  1  0
  5  6  2  0
  5  7  1  0
  2  8  1  0
  8  9  1  6
  9 10  1  0
 11 10  1  6
 11 12  1  0
 12 13  1  1
 13 14  1  1
 13 15  1  0
 16 15  1  1
 16 17  1  0
 17 18  1  0
 18 19  1  1
 20 19  1  6
 20 21  1  0
 21 22  1  0
 22 23  1  6
 23 24  1  0
 22 25  1  0
 25 26  1  1
 25 27  1  0
 27 28  1  1
 27 29  1  0
 29 30  1  6
 18 31  1  0
 31 32  1  0
 32 33  1  0
 33 34  1  6
 33 35  1  0
 35 36  1  6
 36 37  1  0
 37 38  1  1
 37 39  1  0
 39 40  1  6
 39  8  1  0
 39 11  1  0
 35 12  1  0
 33 16  1  0
 29 20  1  0
M  END
>  <MS_ID>  (2636) 
MS2727

>  <SMILES>  (2636) 
C[C@H](CCC(=O)O)[C@H]1CC[C@H]2[C@@H]3[C@H](O)C[C@@H]4C[C@H](O[C@H]5O[C@@H](CO)[C@H](O)[C@H](O)[C@H]5O)CC[C@]4(C)[C@H]3C[C@H](O)[C@]12C

>  <Structure_dimension>  (2636) 
2D

$$$$
MS2728
     RDKit          2D

 32 35  0  0  0  0  0  0  0  0999 V2000
   -3.6443   -3.5979    0.0000 C   0  0  0  0  0  0  0  0  0  0  0  0
   -2.7666   -2.3815    0.0000 C   0  0  0  0  0  0  0  0  0  0  0  0
   -3.3812   -1.0132    0.0000 C   0  0  0  0  0  0  0  0  0  0  0  0
   -4.8735   -0.8613    0.0000 C   0  0  0  0  0  0  0  0  0  0  0  0
   -5.4882    0.5070    0.0000 C   0  0  0  0  0  0  0  0  0  0  0  0
   -4.6105    1.7234    0.0000 O   0  0  0  0  0  0  0  0  0  0  0  0
   -6.9805    0.6588    0.0000 C   0  0  0  0  0  0  0  0  0  0  0  0
   -7.5951    2.0271    0.0000 C   0  0  0  0  0  0  0  0  0  0  0  0
   -9.0874    2.1790    0.0000 C   0  0  0  0  0  0  0  0  0  0  0  0
   -9.7020    3.5473    0.0000 O   0  0  0  0  0  0  0  0  0  0  0  0
   -1.2743   -2.5333    0.0000 C   0  0  0  0  0  0  0  0  0  0  0  0
   -0.5200   -3.8299    0.0000 C   0  0  0  0  0  0  0  0  0  0  0  0
    0.9462   -3.5132    0.0000 C   0  0  0  0  0  0  0  0  0  0  0  0
    1.0980   -2.0209    0.0000 C   0  0  0  0  0  0  0  0  0  0  0  0
    2.3086   -1.1352    0.0000 C   0  0  0  0  0  0  0  0  0  0  0  0
    3.6809   -1.7408    0.0000 C   0  0  0  0  0  0  0  0  0  0  0  0
    3.8427   -3.2320    0.0000 O   0  0  0  0  0  0  0  0  0  0  0  0
    4.8916   -0.8551    0.0000 C   0  0  0  0  0  0  0  0  0  0  0  0
    6.2639   -1.4607    0.0000 O   0  0  0  0  0  0  0  0  0  0  0  0
    4.7298    0.6362    0.0000 C   0  0  0  0  0  0  0  0  0  0  0  0
    5.9404    1.5218    0.0000 C   0  0  0  0  0  0  0  0  0  0  0  0
    5.7787    3.0131    0.0000 C   0  0  0  0  0  0  0  0  0  0  0  0
    6.9893    3.8988    0.0000 O   0  0  0  0  0  0  0  0  0  0  0  0
    4.4064    3.6187    0.0000 C   0  0  0  0  0  0  0  0  0  0  0  0
    3.1958    2.7330    0.0000 C   0  0  0  0  0  0  0  0  0  0  0  0
    3.3575    1.2417    0.0000 C   0  0  0  0  0  0  0  0  0  0  0  0
    1.9852    1.8473    0.0000 C   0  0  0  0  0  0  0  0  0  0  0  0
    2.1469    0.3561    0.0000 C   0  0  0  0  0  0  0  0  0  0  0  0
    0.7746    0.9616    0.0000 C   0  0  0  0  0  0  0  0  0  0  0  0
   -0.4360    0.0759    0.0000 C   0  0  0  0  0  0  0  0  0  0  0  0
   -0.2743   -1.4153    0.0000 C   0  0  0  0  0  0  0  0  0  0  0  0
   -1.7024   -0.9565    0.0000 C   0  0  0  0  0  0  0  0  0  0  0  0
  2  1  1  6
  2  3  1  0
  3  4  1  0
  4  5  1  0
  5  6  2  0
  5  7  1  0
  7  8  2  0
  8  9  1  0
  9 10  1  0
  2 11  1  0
 11 12  1  6
 12 13  1  0
 14 13  1  6
 14 15  1  0
 15 16  1  1
 16 17  1  1
 16 18  1  0
 18 19  1  1
 18 20  1  0
 20 21  1  1
 21 22  1  0
 22 23  1  1
 22 24  1  0
 24 25  1  0
 25 26  1  0
 26 27  1  6
 26 28  1  0
 28 29  1  6
 29 30  1  0
 30 31  1  0
 31 32  1  6
 31 11  1  0
 31 14  1  0
 28 15  1  0
 26 20  1  0
M  END
>  <MS_ID>  (2637) 
MS2728

>  <SMILES>  (2637) 
C[C@H](CCC(=O)/C=C/CO)[C@H]1CC[C@H]2[C@@H]3[C@H](O)[C@H](O)[C@@H]4C[C@H](O)CC[C@]4(C)[C@H]3CC[C@]12C

>  <Structure_dimension>  (2637) 
2D

$$$$
MS2729
     RDKit          2D

 30 33  0  0  0  0  0  0  0  0999 V2000
   -4.5685   -2.6908    0.0000 C   0  0  0  0  0  0  0  0  0  0  0  0
   -3.4838   -1.6548    0.0000 C   0  0  0  0  0  0  0  0  0  0  0  0
   -3.8388   -0.1974    0.0000 C   0  0  0  0  0  0  0  0  0  0  0  0
   -5.2784    0.2240    0.0000 C   0  0  0  0  0  0  0  0  0  0  0  0
   -5.6333    1.6814    0.0000 C   0  0  0  0  0  0  0  0  0  0  0  0
   -4.5486    2.7174    0.0000 O   0  0  0  0  0  0  0  0  0  0  0  0
   -7.0729    2.1027    0.0000 C   0  0  0  0  0  0  0  0  0  0  0  0
   -7.4279    3.5601    0.0000 O   0  0  0  0  0  0  0  0  0  0  0  0
   -2.0442   -2.0761    0.0000 C   0  0  0  0  0  0  0  0  0  0  0  0
   -1.5389   -3.4884    0.0000 C   0  0  0  0  0  0  0  0  0  0  0  0
   -0.0395   -3.4442    0.0000 C   0  0  0  0  0  0  0  0  0  0  0  0
    0.3818   -2.0046    0.0000 C   0  0  0  0  0  0  0  0  0  0  0  0
    1.7336   -1.3544    0.0000 C   0  0  0  0  0  0  0  0  0  0  0  0
    2.9725   -2.1999    0.0000 C   0  0  0  0  0  0  0  0  0  0  0  0
    2.8597   -3.6957    0.0000 O   0  0  0  0  0  0  0  0  0  0  0  0
    4.3243   -1.5497    0.0000 C   0  0  0  0  0  0  0  0  0  0  0  0
    4.4371   -0.0540    0.0000 C   0  0  0  0  0  0  0  0  0  0  0  0
    5.7888    0.5962    0.0000 C   0  0  0  0  0  0  0  0  0  0  0  0
    5.9016    2.0920    0.0000 C   0  0  0  0  0  0  0  0  0  0  0  0
    7.2534    2.7422    0.0000 O   0  0  0  0  0  0  0  0  0  0  0  0
    4.6627    2.9375    0.0000 C   0  0  0  0  0  0  0  0  0  0  0  0
    3.3109    2.2873    0.0000 C   0  0  0  0  0  0  0  0  0  0  0  0
    3.1981    0.7916    0.0000 C   0  0  0  0  0  0  0  0  0  0  0  0
    1.9591    1.6371    0.0000 C   0  0  0  0  0  0  0  0  0  0  0  0
    1.8464    0.1414    0.0000 C   0  0  0  0  0  0  0  0  0  0  0  0
    0.6074    0.9869    0.0000 C   0  0  0  0  0  0  0  0  0  0  0  0
   -0.7444    0.3367    0.0000 C   0  0  0  0  0  0  0  0  0  0  0  0
   -1.9833    1.1823    0.0000 O   0  0  0  0  0  0  0  0  0  0  0  0
   -0.8572   -1.1590    0.0000 C   0  0  0  0  0  0  0  0  0  0  0  0
   -2.1777   -0.4476    0.0000 C   0  0  0  0  0  0  0  0  0  0  0  0
  2  1  1  6
  2  3  1  0
  3  4  1  0
  4  5  1  0
  5  6  2  0
  5  7  1  0
  7  8  1  0
  2  9  1  0
  9 10  1  6
 10 11  1  0
 12 11  1  6
 12 13  1  0
 13 14  1  1
 14 15  1  1
 14 16  1  0
 17 16  1  1
 17 18  1  0
 18 19  1  0
 19 20  1  6
 19 21  1  0
 21 22  1  0
 22 23  1  0
 23 24  1  6
 23 25  1  0
 25 26  1  6
 26 27  1  0
 27 28  1  6
 27 29  1  0
 29 30  1  6
 29  9  1  0
 29 12  1  0
 25 13  1  0
 23 17  1  0
M  END
>  <MS_ID>  (2638) 
MS2729

>  <SMILES>  (2638) 
C[C@H](CCC(=O)CO)[C@H]1CC[C@H]2[C@@H]3[C@H](O)C[C@@H]4C[C@@H](O)CC[C@]4(C)[C@H]3C[C@@H](O)[C@]12C

>  <Structure_dimension>  (2638) 
2D

$$$$
MS2730
     RDKit          2D

 32 35  0  0  0  0  0  0  0  0999 V2000
   -3.6443   -3.5979    0.0000 C   0  0  0  0  0  0  0  0  0  0  0  0
   -2.7666   -2.3815    0.0000 C   0  0  0  0  0  0  0  0  0  0  0  0
   -3.3812   -1.0132    0.0000 C   0  0  0  0  0  0  0  0  0  0  0  0
   -4.8735   -0.8613    0.0000 C   0  0  0  0  0  0  0  0  0  0  0  0
   -5.4882    0.5070    0.0000 C   0  0  0  0  0  0  0  0  0  0  0  0
   -4.6105    1.7234    0.0000 O   0  0  0  0  0  0  0  0  0  0  0  0
   -6.9805    0.6588    0.0000 N   0  0  0  0  0  0  0  0  0  0  0  0
   -7.5951    2.0271    0.0000 C   0  0  0  0  0  0  0  0  0  0  0  0
   -9.0874    2.1790    0.0000 C   0  0  0  0  0  0  0  0  0  0  0  0
   -9.7020    3.5473    0.0000 O   0  0  0  0  0  0  0  0  0  0  0  0
   -1.2743   -2.5333    0.0000 C   0  0  0  0  0  0  0  0  0  0  0  0
   -0.5200   -3.8299    0.0000 C   0  0  0  0  0  0  0  0  0  0  0  0
    0.9462   -3.5132    0.0000 C   0  0  0  0  0  0  0  0  0  0  0  0
    1.0980   -2.0209    0.0000 C   0  0  0  0  0  0  0  0  0  0  0  0
    2.3086   -1.1352    0.0000 C   0  0  0  0  0  0  0  0  0  0  0  0
    3.6809   -1.7408    0.0000 C   0  0  0  0  0  0  0  0  0  0  0  0
    3.8427   -3.2320    0.0000 O   0  0  0  0  0  0  0  0  0  0  0  0
    4.8916   -0.8551    0.0000 C   0  0  0  0  0  0  0  0  0  0  0  0
    6.2639   -1.4607    0.0000 O   0  0  0  0  0  0  0  0  0  0  0  0
    4.7298    0.6362    0.0000 C   0  0  0  0  0  0  0  0  0  0  0  0
    5.9404    1.5218    0.0000 C   0  0  0  0  0  0  0  0  0  0  0  0
    5.7787    3.0131    0.0000 C   0  0  0  0  0  0  0  0  0  0  0  0
    6.9893    3.8988    0.0000 O   0  0  0  0  0  0  0  0  0  0  0  0
    4.4064    3.6187    0.0000 C   0  0  0  0  0  0  0  0  0  0  0  0
    3.1958    2.7330    0.0000 C   0  0  0  0  0  0  0  0  0  0  0  0
    3.3575    1.2417    0.0000 C   0  0  0  0  0  0  0  0  0  0  0  0
    1.9852    1.8473    0.0000 C   0  0  0  0  0  0  0  0  0  0  0  0
    2.1469    0.3561    0.0000 C   0  0  0  0  0  0  0  0  0  0  0  0
    0.7746    0.9616    0.0000 C   0  0  0  0  0  0  0  0  0  0  0  0
   -0.4360    0.0759    0.0000 C   0  0  0  0  0  0  0  0  0  0  0  0
   -0.2743   -1.4153    0.0000 C   0  0  0  0  0  0  0  0  0  0  0  0
   -1.7024   -0.9565    0.0000 C   0  0  0  0  0  0  0  0  0  0  0  0
  2  1  1  6
  2  3  1  0
  3  4  1  0
  4  5  1  0
  5  6  2  0
  5  7  1  0
  7  8  1  0
  8  9  1  0
  9 10  1  0
  2 11  1  0
 11 12  1  6
 12 13  1  0
 14 13  1  6
 14 15  1  0
 15 16  1  1
 16 17  1  1
 16 18  1  0
 18 19  1  1
 18 20  1  0
 20 21  1  1
 21 22  1  0
 22 23  1  1
 22 24  1  0
 24 25  1  0
 25 26  1  0
 26 27  1  6
 26 28  1  0
 28 29  1  6
 29 30  1  0
 30 31  1  0
 31 32  1  6
 31 11  1  0
 31 14  1  0
 28 15  1  0
 26 20  1  0
M  END
>  <MS_ID>  (2639) 
MS2730

>  <SMILES>  (2639) 
C[C@H](CCC(=O)NCCO)[C@H]1CC[C@H]2[C@@H]3[C@H](O)[C@H](O)[C@@H]4C[C@H](O)CC[C@]4(C)[C@H]3CC[C@]12C

>  <Structure_dimension>  (2639) 
2D

$$$$
MS2731
     RDKit          2D

 38 42  0  0  0  0  0  0  0  0999 V2000
   -0.5853   -4.8947    0.0000 C   0  0  0  0  0  0  0  0  0  0  0  0
   -0.0783   -3.4830    0.0000 C   0  0  0  0  0  0  0  0  0  0  0  0
   -1.0474   -2.3381    0.0000 C   0  0  0  0  0  0  0  0  0  0  0  0
   -2.5235   -2.6049    0.0000 C   0  0  0  0  0  0  0  0  0  0  0  0
   -3.4926   -1.4600    0.0000 C   0  0  0  0  0  0  0  0  0  0  0  0
   -2.9856   -0.0482    0.0000 O   0  0  0  0  0  0  0  0  0  0  0  0
   -4.9687   -1.7268    0.0000 N   0  0  0  0  0  0  0  0  0  0  0  0
   -5.9378   -0.5818    0.0000 S   0  0  0  0  0  0  0  0  0  0  0  0
   -4.7929    0.3873    0.0000 O   0  0  0  0  0  0  0  0  0  0  0  0
   -7.0827   -1.5509    0.0000 O   0  0  0  0  0  0  0  0  0  0  0  0
   -6.9069    0.5631    0.0000 C   0  0  0  0  0  0  0  0  0  0  0  0
   -6.3999    1.9748    0.0000 C   0  0  0  0  0  0  0  0  0  0  0  0
   -7.3690    3.1197    0.0000 C   0  0  0  0  0  0  0  0  0  0  0  0
   -8.8451    2.8529    0.0000 C   0  0  0  0  0  0  0  0  0  0  0  0
   -9.8142    3.9978    0.0000 F   0  0  0  0  0  0  0  0  0  0  0  0
   -9.3521    1.4412    0.0000 C   0  0  0  0  0  0  0  0  0  0  0  0
   -8.3830    0.2963    0.0000 C   0  0  0  0  0  0  0  0  0  0  0  0
    1.3978   -3.2162    0.0000 C   0  0  0  0  0  0  0  0  0  0  0  0
    2.4812   -4.2535    0.0000 C   0  0  0  0  0  0  0  0  0  0  0  0
    3.8026   -3.5437    0.0000 C   0  0  0  0  0  0  0  0  0  0  0  0
    3.5358   -2.0676    0.0000 C   0  0  0  0  0  0  0  0  0  0  0  0
    4.4542   -0.8816    0.0000 C   0  0  0  0  0  0  0  0  0  0  0  0
    5.9405   -1.0840    0.0000 C   0  0  0  0  0  0  0  0  0  0  0  0
    6.5084   -2.4724    0.0000 O   0  0  0  0  0  0  0  0  0  0  0  0
    6.8589    0.1020    0.0000 C   0  0  0  0  0  0  0  0  0  0  0  0
    6.2911    1.4903    0.0000 C   0  0  0  0  0  0  0  0  0  0  0  0
    7.2095    2.6763    0.0000 C   0  0  0  0  0  0  0  0  0  0  0  0
    6.6416    4.0646    0.0000 C   0  0  0  0  0  0  0  0  0  0  0  0
    7.5600    5.2506    0.0000 O   0  0  0  0  0  0  0  0  0  0  0  0
    5.1553    4.2670    0.0000 C   0  0  0  0  0  0  0  0  0  0  0  0
    4.2369    3.0811    0.0000 C   0  0  0  0  0  0  0  0  0  0  0  0
    4.8048    1.6927    0.0000 C   0  0  0  0  0  0  0  0  0  0  0  0
    3.3185    1.8951    0.0000 C   0  0  0  0  0  0  0  0  0  0  0  0
    3.8864    0.5067    0.0000 C   0  0  0  0  0  0  0  0  0  0  0  0
    2.4001    0.7091    0.0000 C   0  0  0  0  0  0  0  0  0  0  0  0
    1.4817   -0.4768    0.0000 C   0  0  0  0  0  0  0  0  0  0  0  0
    2.0495   -1.8652    0.0000 C   0  0  0  0  0  0  0  0  0  0  0  0
    0.5502   -1.8193    0.0000 C   0  0  0  0  0  0  0  0  0  0  0  0
  2  1  1  6
  2  3  1  0
  3  4  1  0
  4  5  1  0
  5  6  2  0
  5  7  1  0
  7  8  1  0
  8  9  2  0
  8 10  2  0
  8 11  1  0
 11 12  2  0
 12 13  1  0
 13 14  2  0
 14 15  1  0
 14 16  1  0
 16 17  2  0
  2 18  1  0
 18 19  1  6
 19 20  1  0
 21 20  1  6
 21 22  1  0
 22 23  1  1
 23 24  1  1
 23 25  1  0
 26 25  1  1
 26 27  1  0
 27 28  1  0
 28 29  1  1
 28 30  1  0
 30 31  1  0
 31 32  1  0
 32 33  1  6
 32 34  1  0
 34 35  1  6
 35 36  1  0
 36 37  1  0
 37 38  1  6
 17 11  1  0
 37 18  1  0
 37 21  1  0
 34 22  1  0
 32 26  1  0
M  END
>  <MS_ID>  (2640) 
MS2731

>  <SMILES>  (2640) 
C[C@H](CCC(=O)NS(=O)(=O)c1ccc(F)cc1)[C@H]1CC[C@H]2[C@@H]3[C@H](O)C[C@@H]4C[C@H](O)CC[C@]4(C)[C@H]3CC[C@]12C

>  <Structure_dimension>  (2640) 
2D

$$$$
MS2732
     RDKit          2D

 29 32  0  0  0  0  0  0  0  0999 V2000
   -4.5534   -2.6812    0.0000 C   0  0  0  0  0  0  0  0  0  0  0  0
   -3.4378   -1.6786    0.0000 C   0  0  0  0  0  0  0  0  0  0  0  0
   -3.7483   -0.2111    0.0000 C   0  0  0  0  0  0  0  0  0  0  0  0
   -5.1744    0.2538    0.0000 C   0  0  0  0  0  0  0  0  0  0  0  0
   -5.4850    1.7213    0.0000 C   0  0  0  0  0  0  0  0  0  0  0  0
   -4.3693    2.7239    0.0000 O   0  0  0  0  0  0  0  0  0  0  0  0
   -6.9111    2.1861    0.0000 C   0  0  0  0  0  0  0  0  0  0  0  0
   -7.2216    3.6536    0.0000 O   0  0  0  0  0  0  0  0  0  0  0  0
   -2.0116   -2.1434    0.0000 C   0  0  0  0  0  0  0  0  0  0  0  0
   -1.5494   -3.5704    0.0000 C   0  0  0  0  0  0  0  0  0  0  0  0
   -0.0494   -3.5718    0.0000 C   0  0  0  0  0  0  0  0  0  0  0  0
    0.4155   -2.1456    0.0000 C   0  0  0  0  0  0  0  0  0  0  0  0
    1.7863   -1.5368    0.0000 C   0  0  0  0  0  0  0  0  0  0  0  0
    2.9990   -2.4196    0.0000 C   0  0  0  0  0  0  0  0  0  0  0  0
    4.3699   -1.8107    0.0000 C   0  0  0  0  0  0  0  0  0  0  0  0
    4.5281   -0.3191    0.0000 C   0  0  0  0  0  0  0  0  0  0  0  0
    5.8990    0.2898    0.0000 C   0  0  0  0  0  0  0  0  0  0  0  0
    6.0571    1.7814    0.0000 C   0  0  0  0  0  0  0  0  0  0  0  0
    7.4280    2.3902    0.0000 O   0  0  0  0  0  0  0  0  0  0  0  0
    4.8444    2.6642    0.0000 C   0  0  0  0  0  0  0  0  0  0  0  0
    3.4735    2.0553    0.0000 C   0  0  0  0  0  0  0  0  0  0  0  0
    3.3154    0.5637    0.0000 C   0  0  0  0  0  0  0  0  0  0  0  0
    2.1026    1.4465    0.0000 C   0  0  0  0  0  0  0  0  0  0  0  0
    1.9445   -0.0451    0.0000 C   0  0  0  0  0  0  0  0  0  0  0  0
    0.7318    0.8376    0.0000 C   0  0  0  0  0  0  0  0  0  0  0  0
   -0.6391    0.2288    0.0000 C   0  0  0  0  0  0  0  0  0  0  0  0
   -1.8518    1.1116    0.0000 O   0  0  0  0  0  0  0  0  0  0  0  0
   -0.7973   -1.2628    0.0000 C   0  0  0  0  0  0  0  0  0  0  0  0
   -2.0956   -0.5116    0.0000 C   0  0  0  0  0  0  0  0  0  0  0  0
  2  1  1  6
  2  3  1  0
  3  4  1  0
  4  5  1  0
  5  6  2  0
  5  7  1  0
  7  8  1  0
  2  9  1  0
  9 10  1  6
 10 11  1  0
 12 11  1  6
 12 13  1  0
 13 14  1  1
 14 15  1  0
 16 15  1  1
 16 17  1  0
 17 18  1  0
 18 19  2  0
 18 20  1  0
 20 21  1  0
 21 22  1  0
 22 23  1  6
 22 24  1  0
 24 25  1  6
 25 26  1  0
 26 27  1  6
 26 28  1  0
 28 29  1  6
 28  9  1  0
 28 12  1  0
 24 13  1  0
 22 16  1  0
M  END
>  <MS_ID>  (2641) 
MS2732

>  <SMILES>  (2641) 
C[C@H](CCC(=O)CO)[C@H]1CC[C@H]2[C@@H]3CC[C@@H]4CC(=O)CC[C@]4(C)[C@H]3C[C@@H](O)[C@]12C

>  <Structure_dimension>  (2641) 
2D

$$$$
MS2733
     RDKit          2D

 25 28  0  0  0  0  0  0  0  0999 V2000
   -4.9887   -1.8226    0.0000 C   0  0  0  0  0  0  0  0  0  0  0  0
   -3.7832   -0.9299    0.0000 C   0  0  0  0  0  0  0  0  0  0  0  0
   -3.9536    0.5604    0.0000 C   0  0  0  0  0  0  0  0  0  0  0  0
   -5.3294    1.1580    0.0000 C   0  0  0  0  0  0  0  0  0  0  0  0
   -5.4998    2.6483    0.0000 C   0  0  0  0  0  0  0  0  0  0  0  0
   -6.8756    3.2459    0.0000 O   0  0  0  0  0  0  0  0  0  0  0  0
   -2.4074   -1.5275    0.0000 C   0  0  0  0  0  0  0  0  0  0  0  0
   -2.0822   -2.9918    0.0000 C   0  0  0  0  0  0  0  0  0  0  0  0
   -0.5890   -3.1350    0.0000 C   0  0  0  0  0  0  0  0  0  0  0  0
    0.0086   -1.7591    0.0000 C   0  0  0  0  0  0  0  0  0  0  0  0
    1.4309   -1.2826    0.0000 C   0  0  0  0  0  0  0  0  0  0  0  0
    2.5547   -2.2761    0.0000 C   0  0  0  0  0  0  0  0  0  0  0  0
    3.9770   -1.7996    0.0000 C   0  0  0  0  0  0  0  0  0  0  0  0
    4.2755   -0.3296    0.0000 C   0  0  0  0  0  0  0  0  0  0  0  0
    5.6978    0.1469    0.0000 C   0  0  0  0  0  0  0  0  0  0  0  0
    5.9963    1.6169    0.0000 C   0  0  0  0  0  0  0  0  0  0  0  0
    4.8724    2.6104    0.0000 C   0  0  0  0  0  0  0  0  0  0  0  0
    3.4501    2.1339    0.0000 C   0  0  0  0  0  0  0  0  0  0  0  0
    3.1517    0.6639    0.0000 C   0  0  0  0  0  0  0  0  0  0  0  0
    2.0278    1.6574    0.0000 C   0  0  0  0  0  0  0  0  0  0  0  0
    1.7294    0.1874    0.0000 C   0  0  0  0  0  0  0  0  0  0  0  0
    0.6055    1.1809    0.0000 C   0  0  0  0  0  0  0  0  0  0  0  0
   -0.8168    0.7044    0.0000 C   0  0  0  0  0  0  0  0  0  0  0  0
   -1.1152   -0.7656    0.0000 C   0  0  0  0  0  0  0  0  0  0  0  0
   -2.3368    0.1049    0.0000 C   0  0  0  0  0  0  0  0  0  0  0  0
  2  1  1  6
  2  3  1  0
  3  4  1  0
  4  5  1  0
  5  6  2  0
  2  7  1  0
  7  8  1  6
  8  9  1  0
 10  9  1  6
 10 11  1  0
 11 12  1  1
 12 13  1  0
 14 13  1  1
 14 15  1  0
 15 16  1  0
 16 17  1  0
 17 18  1  0
 18 19  1  0
 19 20  1  6
 19 21  1  0
 21 22  1  6
 22 23  1  0
 23 24  1  0
 24 25  1  6
 24  7  1  0
 24 10  1  0
 21 11  1  0
 19 14  1  0
M  END
>  <MS_ID>  (2642) 
MS2733

>  <SMILES>  (2642) 
C[C@H](CCC=O)[C@H]1CC[C@H]2[C@@H]3CC[C@@H]4CCCC[C@]4(C)[C@H]3CC[C@]12C

>  <Structure_dimension>  (2642) 
2D

$$$$
MS2734
     RDKit          2D

 29 32  0  0  0  0  0  0  0  0999 V2000
   -4.9165   -2.3086    0.0000 C   0  0  0  0  0  0  0  0  0  0  0  0
   -3.7338   -1.3860    0.0000 C   0  0  0  0  0  0  0  0  0  0  0  0
   -3.9415    0.0996    0.0000 C   0  0  0  0  0  0  0  0  0  0  0  0
   -5.3319    0.6625    0.0000 C   0  0  0  0  0  0  0  0  0  0  0  0
   -5.5396    2.1481    0.0000 C   0  0  0  0  0  0  0  0  0  0  0  0
   -4.3569    3.0707    0.0000 O   0  0  0  0  0  0  0  0  0  0  0  0
   -6.9299    2.7110    0.0000 O   0  0  0  0  0  0  0  0  0  0  0  0
   -2.3435   -1.9489    0.0000 C   0  0  0  0  0  0  0  0  0  0  0  0
   -1.9816   -3.4046    0.0000 C   0  0  0  0  0  0  0  0  0  0  0  0
   -0.4854   -3.5103    0.0000 C   0  0  0  0  0  0  0  0  0  0  0  0
    0.0775   -2.1199    0.0000 C   0  0  0  0  0  0  0  0  0  0  0  0
    1.4875   -1.6079    0.0000 C   0  0  0  0  0  0  0  0  0  0  0  0
    2.6358   -2.5730    0.0000 C   0  0  0  0  0  0  0  0  0  0  0  0
    4.0457   -2.0609    0.0000 C   0  0  0  0  0  0  0  0  0  0  0  0
    4.3073   -0.5839    0.0000 C   0  0  0  0  0  0  0  0  0  0  0  0
    5.7172   -0.0719    0.0000 C   0  0  0  0  0  0  0  0  0  0  0  0
    5.9787    1.4051    0.0000 C   0  0  0  0  0  0  0  0  0  0  0  0
    7.3886    1.9171    0.0000 O   0  0  0  0  0  0  0  0  0  0  0  0
    4.8304    2.3701    0.0000 C   0  0  0  0  0  0  0  0  0  0  0  0
    3.4205    1.8581    0.0000 C   0  0  0  0  0  0  0  0  0  0  0  0
    3.1589    0.3811    0.0000 C   0  0  0  0  0  0  0  0  0  0  0  0
    2.0105    1.3461    0.0000 C   0  0  0  0  0  0  0  0  0  0  0  0
    1.7490   -0.1309    0.0000 C   0  0  0  0  0  0  0  0  0  0  0  0
    0.6006    0.8341    0.0000 C   0  0  0  0  0  0  0  0  0  0  0  0
   -0.8093    0.3221    0.0000 C   0  0  0  0  0  0  0  0  0  0  0  0
   -1.9576    1.2871    0.0000 N   0  0  0  0  0  0  0  0  0  0  0  0
   -1.6961    2.7641    0.0000 O   0  0  0  0  0  0  0  0  0  0  0  0
   -1.0708   -1.1549    0.0000 C   0  0  0  0  0  0  0  0  0  0  0  0
   -2.3138   -0.3152    0.0000 C   0  0  0  0  0  0  0  0  0  0  0  0
  2  1  1  6
  2  3  1  0
  3  4  1  0
  4  5  1  0
  5  6  2  0
  5  7  1  0
  2  8  1  0
  8  9  1  6
  9 10  1  0
 11 10  1  6
 11 12  1  0
 12 13  1  1
 13 14  1  0
 15 14  1  1
 15 16  1  0
 16 17  1  0
 17 18  1  1
 17 19  1  0
 19 20  1  0
 20 21  1  0
 21 22  1  6
 21 23  1  0
 23 24  1  6
 24 25  1  0
 25 26  1  1
 26 27  1  0
 25 28  1  0
 28 29  1  6
 28  8  1  0
 28 11  1  0
 23 12  1  0
 21 15  1  0
M  END
>  <MS_ID>  (2643) 
MS2734

>  <SMILES>  (2643) 
C[C@H](CCC(=O)O)[C@H]1CC[C@H]2[C@@H]3CC[C@@H]4C[C@H](O)CC[C@]4(C)[C@H]3C[C@H](NO)[C@]12C

>  <Structure_dimension>  (2643) 
2D

$$$$
MS2735
     RDKit          2D

 34 37  0  0  0  0  0  0  0  0999 V2000
   -2.5731   -3.9443    0.0000 C   0  0  0  0  0  0  0  0  0  0  0  0
   -1.7632   -2.6818    0.0000 C   0  0  0  0  0  0  0  0  0  0  0  0
   -2.4515   -1.3491    0.0000 C   0  0  0  0  0  0  0  0  0  0  0  0
   -3.9499   -1.2789    0.0000 C   0  0  0  0  0  0  0  0  0  0  0  0
   -4.6383    0.0539    0.0000 C   0  0  0  0  0  0  0  0  0  0  0  0
   -3.8283    1.3164    0.0000 O   0  0  0  0  0  0  0  0  0  0  0  0
   -6.1366    0.1241    0.0000 O   0  0  0  0  0  0  0  0  0  0  0  0
   -6.8250    1.4568    0.0000 C   0  0  0  0  0  0  0  0  0  0  0  0
   -8.3233    1.5270    0.0000 C   0  0  0  0  0  0  0  0  0  0  0  0
   -9.1333    0.2645    0.0000 O   0  0  0  0  0  0  0  0  0  0  0  0
   -9.0117    2.8597    0.0000 C   0  0  0  0  0  0  0  0  0  0  0  0
  -10.5101    2.9299    0.0000 O   0  0  0  0  0  0  0  0  0  0  0  0
   -0.2648   -2.7520    0.0000 C   0  0  0  0  0  0  0  0  0  0  0  0
    0.5591   -4.0055    0.0000 C   0  0  0  0  0  0  0  0  0  0  0  0
    2.0058   -3.6092    0.0000 C   0  0  0  0  0  0  0  0  0  0  0  0
    2.0760   -2.1109    0.0000 C   0  0  0  0  0  0  0  0  0  0  0  0
    3.2365   -1.1605    0.0000 C   0  0  0  0  0  0  0  0  0  0  0  0
    4.6398   -1.6902    0.0000 C   0  0  0  0  0  0  0  0  0  0  0  0
    4.8827   -3.1705    0.0000 O   0  0  0  0  0  0  0  0  0  0  0  0
    5.8003   -0.7398    0.0000 C   0  0  0  0  0  0  0  0  0  0  0  0
    5.5575    0.7404    0.0000 C   0  0  0  0  0  0  0  0  0  0  0  0
    6.7179    1.6908    0.0000 C   0  0  0  0  0  0  0  0  0  0  0  0
    6.4751    3.1710    0.0000 C   0  0  0  0  0  0  0  0  0  0  0  0
    7.6356    4.1214    0.0000 O   0  0  0  0  0  0  0  0  0  0  0  0
    5.0718    3.7008    0.0000 C   0  0  0  0  0  0  0  0  0  0  0  0
    3.9113    2.7504    0.0000 C   0  0  0  0  0  0  0  0  0  0  0  0
    4.1541    1.2702    0.0000 C   0  0  0  0  0  0  0  0  0  0  0  0
    2.7508    1.8000    0.0000 C   0  0  0  0  0  0  0  0  0  0  0  0
    2.9937    0.3198    0.0000 C   0  0  0  0  0  0  0  0  0  0  0  0
    1.5903    0.8496    0.0000 C   0  0  0  0  0  0  0  0  0  0  0  0
    0.4299   -0.1009    0.0000 C   0  0  0  0  0  0  0  0  0  0  0  0
   -0.9735    0.4289    0.0000 O   0  0  0  0  0  0  0  0  0  0  0  0
    0.6727   -1.5811    0.0000 C   0  0  0  0  0  0  0  0  0  0  0  0
   -0.7783   -1.2009    0.0000 C   0  0  0  0  0  0  0  0  0  0  0  0
  2  1  1  6
  2  3  1  0
  3  4  1  0
  4  5  1  0
  5  6  2  0
  5  7  1  0
  7  8  1  0
  8  9  1  0
  9 10  1  6
  9 11  1  0
 11 12  1  0
  2 13  1  0
 13 14  1  6
 14 15  1  0
 16 15  1  6
 16 17  1  0
 17 18  1  1
 18 19  1  1
 18 20  1  0
 21 20  1  1
 21 22  1  0
 22 23  1  0
 23 24  1  1
 23 25  1  0
 25 26  1  0
 26 27  1  0
 27 28  1  6
 27 29  1  0
 29 30  1  6
 30 31  1  0
 31 32  1  1
 31 33  1  0
 33 34  1  6
 33 13  1  0
 33 16  1  0
 29 17  1  0
 27 21  1  0
M  END
>  <MS_ID>  (2644) 
MS2735

>  <SMILES>  (2644) 
C[C@H](CCC(=O)OC[C@H](O)CO)[C@H]1CC[C@H]2[C@@H]3[C@H](O)C[C@@H]4C[C@H](O)CC[C@]4(C)[C@H]3C[C@H](O)[C@]12C

>  <Structure_dimension>  (2644) 
2D

$$$$
MS2736
     RDKit          2D

 34 38  0  0  0  0  0  0  0  0999 V2000
   -2.2608   -4.3306    0.0000 C   0  0  0  0  0  0  0  0  0  0  0  0
   -1.5430   -3.0135    0.0000 C   0  0  0  0  0  0  0  0  0  0  0  0
   -2.3248   -1.7333    0.0000 C   0  0  0  0  0  0  0  0  0  0  0  0
   -3.8244   -1.7702    0.0000 C   0  0  0  0  0  0  0  0  0  0  0  0
   -4.6061   -0.4901    0.0000 C   0  0  0  0  0  0  0  0  0  0  0  0
   -3.8883    0.8271    0.0000 O   0  0  0  0  0  0  0  0  0  0  0  0
   -6.1057   -0.5270    0.0000 N   0  0  0  0  0  0  0  0  0  0  0  0
   -6.8874    0.7532    0.0000 C   0  0  0  0  0  0  0  0  0  0  0  0
   -6.1696    2.0703    0.0000 C   0  0  0  0  0  0  0  0  0  0  0  0
   -6.9514    3.3505    0.0000 N   0  0  0  0  0  0  0  0  0  0  0  0
   -8.4509    3.3135    0.0000 C   0  0  0  0  0  0  0  0  0  0  0  0
   -9.1687    1.9964    0.0000 C   0  0  0  0  0  0  0  0  0  0  0  0
   -8.3870    0.7163    0.0000 N   0  0  0  0  0  0  0  0  0  0  0  0
   -0.0435   -2.9765    0.0000 C   0  0  0  0  0  0  0  0  0  0  0  0
    0.8678   -4.1680    0.0000 C   0  0  0  0  0  0  0  0  0  0  0  0
    2.2825   -3.6695    0.0000 C   0  0  0  0  0  0  0  0  0  0  0  0
    2.2456   -2.1699    0.0000 C   0  0  0  0  0  0  0  0  0  0  0  0
    3.3353   -1.1391    0.0000 C   0  0  0  0  0  0  0  0  0  0  0  0
    4.7728   -1.5673    0.0000 C   0  0  0  0  0  0  0  0  0  0  0  0
    5.1207   -3.0264    0.0000 O   0  0  0  0  0  0  0  0  0  0  0  0
    5.8625   -0.5365    0.0000 C   0  0  0  0  0  0  0  0  0  0  0  0
    5.5146    0.9226    0.0000 C   0  0  0  0  0  0  0  0  0  0  0  0
    6.6043    1.9534    0.0000 C   0  0  0  0  0  0  0  0  0  0  0  0
    6.2564    3.4125    0.0000 C   0  0  0  0  0  0  0  0  0  0  0  0
    7.3460    4.4434    0.0000 O   0  0  0  0  0  0  0  0  0  0  0  0
    4.8188    3.8408    0.0000 C   0  0  0  0  0  0  0  0  0  0  0  0
    3.7291    2.8099    0.0000 C   0  0  0  0  0  0  0  0  0  0  0  0
    4.0770    1.3509    0.0000 C   0  0  0  0  0  0  0  0  0  0  0  0
    2.6395    1.7791    0.0000 C   0  0  0  0  0  0  0  0  0  0  0  0
    2.9874    0.3200    0.0000 C   0  0  0  0  0  0  0  0  0  0  0  0
    1.5498    0.7483    0.0000 C   0  0  0  0  0  0  0  0  0  0  0  0
    0.4601   -0.2826    0.0000 C   0  0  0  0  0  0  0  0  0  0  0  0
    0.8080   -1.7417    0.0000 C   0  0  0  0  0  0  0  0  0  0  0  0
   -0.6664   -1.4660    0.0000 C   0  0  0  0  0  0  0  0  0  0  0  0
  2  1  1  6
  2  3  1  0
  3  4  1  0
  4  5  1  0
  5  6  2  0
  5  7  1  0
  7  8  1  0
  8  9  2  0
  9 10  1  0
 10 11  2  0
 11 12  1  0
 12 13  2  0
  2 14  1  0
 14 15  1  6
 15 16  1  0
 17 16  1  6
 17 18  1  0
 18 19  1  1
 19 20  1  1
 19 21  1  0
 22 21  1  1
 22 23  1  0
 23 24  1  0
 24 25  1  1
 24 26  1  0
 26 27  1  0
 27 28  1  0
 28 29  1  6
 28 30  1  0
 30 31  1  6
 31 32  1  0
 32 33  1  0
 33 34  1  6
 13  8  1  0
 33 14  1  0
 33 17  1  0
 30 18  1  0
 28 22  1  0
M  END
>  <MS_ID>  (2645) 
MS2736

>  <SMILES>  (2645) 
C[C@H](CCC(=O)Nc1cnccn1)[C@H]1CC[C@H]2[C@@H]3[C@H](O)C[C@@H]4C[C@H](O)CC[C@]4(C)[C@H]3CC[C@]12C

>  <Structure_dimension>  (2645) 
2D

$$$$
MS2737
     RDKit          2D

 27 30  0  0  0  0  0  0  0  0999 V2000
   -5.1023   -2.0364    0.0000 C   0  0  0  0  0  0  0  0  0  0  0  0
   -3.8978   -1.1425    0.0000 C   0  0  0  0  0  0  0  0  0  0  0  0
   -4.0697    0.3476    0.0000 C   0  0  0  0  0  0  0  0  0  0  0  0
   -5.4461    0.9438    0.0000 C   0  0  0  0  0  0  0  0  0  0  0  0
   -5.6180    2.4339    0.0000 C   0  0  0  0  0  0  0  0  0  0  0  0
   -4.4135    3.3278    0.0000 O   0  0  0  0  0  0  0  0  0  0  0  0
   -6.9944    3.0301    0.0000 O   0  0  0  0  0  0  0  0  0  0  0  0
   -2.5213   -1.7387    0.0000 C   0  0  0  0  0  0  0  0  0  0  0  0
   -2.1946   -3.2027    0.0000 C   0  0  0  0  0  0  0  0  0  0  0  0
   -0.7013   -3.3444    0.0000 C   0  0  0  0  0  0  0  0  0  0  0  0
   -0.1051   -1.9679    0.0000 C   0  0  0  0  0  0  0  0  0  0  0  0
    1.3167   -1.4900    0.0000 C   0  0  0  0  0  0  0  0  0  0  0  0
    2.4415   -2.4823    0.0000 C   0  0  0  0  0  0  0  0  0  0  0  0
    3.8633   -2.0044    0.0000 C   0  0  0  0  0  0  0  0  0  0  0  0
    4.1603   -0.5341    0.0000 C   0  0  0  0  0  0  0  0  0  0  0  0
    5.5821   -0.0561    0.0000 C   0  0  0  0  0  0  0  0  0  0  0  0
    5.8791    1.4142    0.0000 C   0  0  0  0  0  0  0  0  0  0  0  0
    7.3009    1.8921    0.0000 O   0  0  0  0  0  0  0  0  0  0  0  0
    4.7543    2.4065    0.0000 C   0  0  0  0  0  0  0  0  0  0  0  0
    3.3325    1.9286    0.0000 C   0  0  0  0  0  0  0  0  0  0  0  0
    3.0355    0.4583    0.0000 C   0  0  0  0  0  0  0  0  0  0  0  0
    1.9107    1.4506    0.0000 C   0  0  0  0  0  0  0  0  0  0  0  0
    1.6137   -0.0197    0.0000 C   0  0  0  0  0  0  0  0  0  0  0  0
    0.4888    0.9727    0.0000 C   0  0  0  0  0  0  0  0  0  0  0  0
   -0.9330    0.4947    0.0000 C   0  0  0  0  0  0  0  0  0  0  0  0
   -1.2300   -0.9756    0.0000 C   0  0  0  0  0  0  0  0  0  0  0  0
   -2.4524   -0.1062    0.0000 C   0  0  0  0  0  0  0  0  0  0  0  0
  2  1  1  1
  2  3  1  0
  3  4  1  0
  4  5  1  0
  5  6  2  0
  5  7  1  0
  2  8  1  0
  8  9  1  6
  9 10  1  0
 11 10  1  6
 11 12  1  0
 12 13  1  1
 13 14  1  0
 15 14  1  1
 15 16  1  0
 16 17  1  0
 17 18  1  1
 17 19  1  0
 19 20  1  0
 20 21  1  0
 21 22  1  6
 21 23  1  0
 23 24  1  6
 24 25  1  0
 25 26  1  0
 26 27  1  6
 26  8  1  0
 26 11  1  0
 23 12  1  0
 21 15  1  0
M  END
>  <MS_ID>  (2646) 
MS2737

>  <SMILES>  (2646) 
C[C@@H](CCC(=O)O)[C@H]1CC[C@H]2[C@@H]3CC[C@@H]4C[C@H](O)CC[C@]4(C)[C@H]3CC[C@]12C

>  <Structure_dimension>  (2646) 
2D

$$$$
MS2738
     RDKit          2D

 30 33  0  0  0  0  0  0  0  0999 V2000
   -4.7398   -2.5888    0.0000 C   0  0  0  0  0  0  0  0  0  0  0  0
   -3.5878   -1.6281    0.0000 C   0  0  0  0  0  0  0  0  0  0  0  0
   -3.8439   -0.1501    0.0000 C   0  0  0  0  0  0  0  0  0  0  0  0
   -5.2518    0.3671    0.0000 C   0  0  0  0  0  0  0  0  0  0  0  0
   -5.5079    1.8451    0.0000 C   0  0  0  0  0  0  0  0  0  0  0  0
   -4.3559    2.8058    0.0000 O   0  0  0  0  0  0  0  0  0  0  0  0
   -6.9158    2.3624    0.0000 O   0  0  0  0  0  0  0  0  0  0  0  0
   -2.1799   -2.1454    0.0000 C   0  0  0  0  0  0  0  0  0  0  0  0
   -1.7708   -3.5885    0.0000 C   0  0  0  0  0  0  0  0  0  0  0  0
   -0.2718   -3.6454    0.0000 C   0  0  0  0  0  0  0  0  0  0  0  0
    0.2455   -2.2374    0.0000 C   0  0  0  0  0  0  0  0  0  0  0  0
    1.6379   -1.6797    0.0000 C   0  0  0  0  0  0  0  0  0  0  0  0
    2.8171   -2.6068    0.0000 C   0  0  0  0  0  0  0  0  0  0  0  0
    4.2096   -2.0491    0.0000 C   0  0  0  0  0  0  0  0  0  0  0  0
    4.4228   -0.5643    0.0000 C   0  0  0  0  0  0  0  0  0  0  0  0
    5.8153   -0.0066    0.0000 C   0  0  0  0  0  0  0  0  0  0  0  0
    6.0285    1.4782    0.0000 C   0  0  0  0  0  0  0  0  0  0  0  0
    7.4210    2.0359    0.0000 O   0  0  0  0  0  0  0  0  0  0  0  0
    4.8493    2.4052    0.0000 C   0  0  0  0  0  0  0  0  0  0  0  0
    3.4569    1.8475    0.0000 C   0  0  0  0  0  0  0  0  0  0  0  0
    3.2436    0.3628    0.0000 C   0  0  0  0  0  0  0  0  0  0  0  0
    2.0644    1.2898    0.0000 C   0  0  0  0  0  0  0  0  0  0  0  0
    1.8512   -0.1950    0.0000 C   0  0  0  0  0  0  0  0  0  0  0  0
    0.6719    0.7321    0.0000 C   0  0  0  0  0  0  0  0  0  0  0  0
   -0.7205    0.1744    0.0000 C   0  0  0  0  0  0  0  0  0  0  0  0
   -1.8998    1.1014    0.0000 C   0  0  0  0  0  0  0  0  0  0  0  0
   -1.6865    2.5862    0.0000 C   0  0  0  0  0  0  0  0  0  0  0  0
   -2.8657    3.5133    0.0000 O   0  0  0  0  0  0  0  0  0  0  0  0
   -0.9338   -1.3104    0.0000 C   0  0  0  0  0  0  0  0  0  0  0  0
   -2.2034   -0.5117    0.0000 C   0  0  0  0  0  0  0  0  0  0  0  0
  2  1  1  6
  2  3  1  0
  3  4  1  0
  4  5  1  0
  5  6  2  0
  5  7  1  0
  2  8  1  0
  8  9  1  6
  9 10  1  0
 11 10  1  6
 11 12  1  0
 12 13  1  1
 13 14  1  0
 15 14  1  1
 15 16  1  0
 16 17  1  0
 17 18  1  1
 17 19  1  0
 19 20  1  0
 20 21  1  0
 21 22  1  6
 21 23  1  0
 23 24  1  6
 24 25  1  0
 25 26  1  1
 26 27  1  0
 27 28  1  0
 25 29  1  0
 29 30  1  6
 29  8  1  0
 29 11  1  0
 23 12  1  0
 21 15  1  0
M  END
>  <MS_ID>  (2647) 
MS2738

>  <SMILES>  (2647) 
C[C@H](CCC(=O)O)[C@H]1CC[C@H]2[C@@H]3CC[C@@H]4C[C@H](O)CC[C@]4(C)[C@H]3C[C@H](CCO)[C@]12C

>  <Structure_dimension>  (2647) 
2D

$$$$
MS2739
     RDKit          2D

 30 33  0  0  0  0  0  0  0  0999 V2000
   -4.5685   -2.6908    0.0000 C   0  0  0  0  0  0  0  0  0  0  0  0
   -3.4838   -1.6548    0.0000 C   0  0  0  0  0  0  0  0  0  0  0  0
   -3.8388   -0.1974    0.0000 C   0  0  0  0  0  0  0  0  0  0  0  0
   -5.2784    0.2240    0.0000 C   0  0  0  0  0  0  0  0  0  0  0  0
   -5.6333    1.6814    0.0000 C   0  0  0  0  0  0  0  0  0  0  0  0
   -4.5486    2.7174    0.0000 O   0  0  0  0  0  0  0  0  0  0  0  0
   -7.0729    2.1027    0.0000 C   0  0  0  0  0  0  0  0  0  0  0  0
   -7.4279    3.5601    0.0000 N   0  0  0  0  0  0  0  0  0  0  0  0
   -2.0442   -2.0761    0.0000 C   0  0  0  0  0  0  0  0  0  0  0  0
   -1.5389   -3.4884    0.0000 C   0  0  0  0  0  0  0  0  0  0  0  0
   -0.0395   -3.4442    0.0000 C   0  0  0  0  0  0  0  0  0  0  0  0
    0.3818   -2.0046    0.0000 C   0  0  0  0  0  0  0  0  0  0  0  0
    1.7336   -1.3544    0.0000 C   0  0  0  0  0  0  0  0  0  0  0  0
    2.9725   -2.1999    0.0000 C   0  0  0  0  0  0  0  0  0  0  0  0
    2.8597   -3.6957    0.0000 O   0  0  0  0  0  0  0  0  0  0  0  0
    4.3243   -1.5497    0.0000 C   0  0  0  0  0  0  0  0  0  0  0  0
    4.4371   -0.0540    0.0000 C   0  0  0  0  0  0  0  0  0  0  0  0
    5.7888    0.5962    0.0000 C   0  0  0  0  0  0  0  0  0  0  0  0
    5.9016    2.0920    0.0000 C   0  0  0  0  0  0  0  0  0  0  0  0
    7.2534    2.7422    0.0000 O   0  0  0  0  0  0  0  0  0  0  0  0
    4.6627    2.9375    0.0000 C   0  0  0  0  0  0  0  0  0  0  0  0
    3.3109    2.2873    0.0000 C   0  0  0  0  0  0  0  0  0  0  0  0
    3.1981    0.7916    0.0000 C   0  0  0  0  0  0  0  0  0  0  0  0
    1.9591    1.6371    0.0000 C   0  0  0  0  0  0  0  0  0  0  0  0
    1.8464    0.1414    0.0000 C   0  0  0  0  0  0  0  0  0  0  0  0
    0.6074    0.9869    0.0000 C   0  0  0  0  0  0  0  0  0  0  0  0
   -0.7444    0.3367    0.0000 C   0  0  0  0  0  0  0  0  0  0  0  0
   -1.9833    1.1823    0.0000 O   0  0  0  0  0  0  0  0  0  0  0  0
   -0.8572   -1.1590    0.0000 C   0  0  0  0  0  0  0  0  0  0  0  0
   -2.1777   -0.4476    0.0000 C   0  0  0  0  0  0  0  0  0  0  0  0
  2  1  1  6
  2  3  1  0
  3  4  1  0
  4  5  1  0
  5  6  2  0
  5  7  1  0
  7  8  1  0
  2  9  1  0
  9 10  1  6
 10 11  1  0
 12 11  1  6
 12 13  1  0
 13 14  1  1
 14 15  1  6
 14 16  1  0
 17 16  1  1
 17 18  1  0
 18 19  1  0
 19 20  1  1
 19 21  1  0
 21 22  1  0
 22 23  1  0
 23 24  1  6
 23 25  1  0
 25 26  1  6
 26 27  1  0
 27 28  2  0
 27 29  1  0
 29 30  1  6
 29  9  1  0
 29 12  1  0
 25 13  1  0
 23 17  1  0
M  END
>  <MS_ID>  (2648) 
MS2739

>  <SMILES>  (2648) 
C[C@H](CCC(=O)CN)[C@H]1CC[C@H]2[C@@H]3[C@@H](O)C[C@@H]4C[C@H](O)CC[C@]4(C)[C@H]3CC(=O)[C@]12C

>  <Structure_dimension>  (2648) 
2D

$$$$
MS2740
     RDKit          2D

 33 36  0  0  0  0  0  0  0  0999 V2000
   -3.1929   -3.7271    0.0000 C   0  0  0  0  0  0  0  0  0  0  0  0
   -2.3081   -2.5158    0.0000 C   0  0  0  0  0  0  0  0  0  0  0  0
   -2.9148   -1.1439    0.0000 C   0  0  0  0  0  0  0  0  0  0  0  0
   -4.4061   -0.9834    0.0000 C   0  0  0  0  0  0  0  0  0  0  0  0
   -5.0128    0.3885    0.0000 C   0  0  0  0  0  0  0  0  0  0  0  0
   -4.1280    1.5998    0.0000 O   0  0  0  0  0  0  0  0  0  0  0  0
   -6.5041    0.5491    0.0000 N   0  0  0  0  0  0  0  0  0  0  0  0
   -7.1108    1.9209    0.0000 C   0  0  0  0  0  0  0  0  0  0  0  0
   -8.6022    2.0815    0.0000 C   0  0  0  0  0  0  0  0  0  0  0  0
   -9.4869    0.8702    0.0000 O   0  0  0  0  0  0  0  0  0  0  0  0
   -9.2088    3.4534    0.0000 O   0  0  0  0  0  0  0  0  0  0  0  0
   -0.8168   -2.6764    0.0000 C   0  0  0  0  0  0  0  0  0  0  0  0
   -0.0701   -3.9773    0.0000 C   0  0  0  0  0  0  0  0  0  0  0  0
    1.3979   -3.6692    0.0000 C   0  0  0  0  0  0  0  0  0  0  0  0
    1.5585   -2.1778    0.0000 C   0  0  0  0  0  0  0  0  0  0  0  0
    2.7743   -1.2992    0.0000 C   0  0  0  0  0  0  0  0  0  0  0  0
    4.1431   -1.9128    0.0000 C   0  0  0  0  0  0  0  0  0  0  0  0
    4.2961   -3.4050    0.0000 O   0  0  0  0  0  0  0  0  0  0  0  0
    5.3588   -1.0342    0.0000 C   0  0  0  0  0  0  0  0  0  0  0  0
    5.2058    0.4580    0.0000 C   0  0  0  0  0  0  0  0  0  0  0  0
    6.4216    1.3366    0.0000 C   0  0  0  0  0  0  0  0  0  0  0  0
    6.2686    2.8288    0.0000 C   0  0  0  0  0  0  0  0  0  0  0  0
    7.4843    3.7074    0.0000 O   0  0  0  0  0  0  0  0  0  0  0  0
    4.8998    3.4423    0.0000 C   0  0  0  0  0  0  0  0  0  0  0  0
    3.6840    2.5637    0.0000 C   0  0  0  0  0  0  0  0  0  0  0  0
    3.8370    1.0716    0.0000 C   0  0  0  0  0  0  0  0  0  0  0  0
    2.4683    1.6852    0.0000 C   0  0  0  0  0  0  0  0  0  0  0  0
    1.0995    2.2987    0.0000 N   0  0  0  0  0  0  0  0  0  0  0  0
    2.6213    0.1930    0.0000 C   0  0  0  0  0  0  0  0  0  0  0  0
    1.2525    0.8066    0.0000 C   0  0  0  0  0  0  0  0  0  0  0  0
    0.0368   -0.0720    0.0000 C   0  0  0  0  0  0  0  0  0  0  0  0
    0.1898   -1.5642    0.0000 C   0  0  0  0  0  0  0  0  0  0  0  0
   -1.2356   -1.0971    0.0000 C   0  0  0  0  0  0  0  0  0  0  0  0
  2  1  1  6
  2  3  1  0
  3  4  1  0
  4  5  1  0
  5  6  2  0
  5  7  1  0
  7  8  1  0
  8  9  1  0
  9 10  2  0
  9 11  1  0
  2 12  1  0
 12 13  1  6
 13 14  1  0
 15 14  1  6
 15 16  1  0
 16 17  1  1
 17 18  1  6
 17 19  1  0
 20 19  1  1
 20 21  1  0
 21 22  1  0
 22 23  1  1
 22 24  1  0
 24 25  1  0
 25 26  1  0
 26 27  1  6
 27 28  3  0
 26 29  1  0
 29 30  1  6
 30 31  1  0
 31 32  1  0
 32 33  1  6
 32 12  1  0
 32 15  1  0
 29 16  1  0
 26 20  1  0
M  END
>  <MS_ID>  (2649) 
MS2740

>  <SMILES>  (2649) 
C[C@H](CCC(=O)NCC(=O)O)[C@H]1CC[C@H]2[C@@H]3[C@@H](O)C[C@@H]4C[C@H](O)CC[C@]4(C#N)[C@H]3CC[C@]12C

>  <Structure_dimension>  (2649) 
2D

$$$$
MS2741
     RDKit          2D

 29 32  0  0  0  0  0  0  0  0999 V2000
   -4.6212   -2.5003    0.0000 C   0  0  0  0  0  0  0  0  0  0  0  0
   -3.5781   -1.4224    0.0000 C   0  0  0  0  0  0  0  0  0  0  0  0
   -3.9900    0.0199    0.0000 C   0  0  0  0  0  0  0  0  0  0  0  0
   -5.4450    0.3844    0.0000 C   0  0  0  0  0  0  0  0  0  0  0  0
   -5.8569    1.8267    0.0000 C   0  0  0  0  0  0  0  0  0  0  0  0
   -4.8137    2.9046    0.0000 O   0  0  0  0  0  0  0  0  0  0  0  0
   -7.3119    2.1912    0.0000 O   0  0  0  0  0  0  0  0  0  0  0  0
   -2.1230   -1.7869    0.0000 C   0  0  0  0  0  0  0  0  0  0  0  0
   -1.5626   -3.1783    0.0000 C   0  0  0  0  0  0  0  0  0  0  0  0
   -0.0662   -3.0753    0.0000 C   0  0  0  0  0  0  0  0  0  0  0  0
    0.2983   -1.6202    0.0000 C   0  0  0  0  0  0  0  0  0  0  0  0
    1.6235   -0.9174    0.0000 C   0  0  0  0  0  0  0  0  0  0  0  0
    2.8947   -1.7137    0.0000 C   0  0  0  0  0  0  0  0  0  0  0  0
    2.8407   -3.2127    0.0000 C   0  0  0  0  0  0  0  0  0  0  0  0
    4.1119   -4.0090    0.0000 O   0  0  0  0  0  0  0  0  0  0  0  0
    4.2199   -1.0109    0.0000 C   0  0  0  0  0  0  0  0  0  0  0  0
    4.2739    0.4881    0.0000 C   0  0  0  0  0  0  0  0  0  0  0  0
    5.5990    1.1908    0.0000 C   0  0  0  0  0  0  0  0  0  0  0  0
    5.6530    2.6899    0.0000 C   0  0  0  0  0  0  0  0  0  0  0  0
    4.3818    3.4861    0.0000 C   0  0  0  0  0  0  0  0  0  0  0  0
    3.0566    2.7834    0.0000 C   0  0  0  0  0  0  0  0  0  0  0  0
    3.0026    1.2843    0.0000 C   0  0  0  0  0  0  0  0  0  0  0  0
    1.7314    2.0806    0.0000 C   0  0  0  0  0  0  0  0  0  0  0  0
    1.6775    0.5816    0.0000 C   0  0  0  0  0  0  0  0  0  0  0  0
    0.4063    1.3778    0.0000 C   0  0  0  0  0  0  0  0  0  0  0  0
   -0.9189    0.6751    0.0000 C   0  0  0  0  0  0  0  0  0  0  0  0
   -2.1901    1.4713    0.0000 O   0  0  0  0  0  0  0  0  0  0  0  0
   -0.9729   -0.8239    0.0000 C   0  0  0  0  0  0  0  0  0  0  0  0
   -2.3204   -0.1649    0.0000 C   0  0  0  0  0  0  0  0  0  0  0  0
  2  1  1  6
  2  3  1  0
  3  4  1  0
  4  5  1  0
  5  6  2  0
  5  7  1  0
  2  8  1  0
  8  9  1  6
  9 10  1  0
 11 10  1  6
 11 12  1  0
 12 13  1  1
 13 14  1  6
 14 15  1  0
 13 16  1  0
 17 16  1  1
 17 18  1  0
 18 19  1  0
 19 20  1  0
 20 21  1  0
 21 22  1  0
 22 23  1  6
 22 24  1  0
 24 25  1  6
 25 26  1  0
 26 27  1  6
 26 28  1  0
 28 29  1  6
 28  8  1  0
 28 11  1  0
 24 12  1  0
 22 17  1  0
M  END
>  <MS_ID>  (2650) 
MS2741

>  <SMILES>  (2650) 
C[C@H](CCC(=O)O)[C@H]1CC[C@H]2[C@@H]3[C@@H](CO)C[C@@H]4CCCC[C@]4(C)[C@H]3C[C@@H](O)[C@]12C

>  <Structure_dimension>  (2650) 
2D

$$$$
MS2742
     RDKit          2D

 31 34  0  0  0  0  0  0  0  0999 V2000
   -8.8652    2.5814    0.0000 C   0  0  0  0  0  0  0  0  0  0  0  0
   -7.3822    2.3562    0.0000 C   0  0  0  0  0  0  0  0  0  0  0  0
   -6.4457    3.5279    0.0000 C   0  0  0  0  0  0  0  0  0  0  0  0
   -6.8357    0.9593    0.0000 C   0  0  0  0  0  0  0  0  0  0  0  0
   -5.3527    0.7341    0.0000 C   0  0  0  0  0  0  0  0  0  0  0  0
   -4.4162    1.9059    0.0000 O   0  0  0  0  0  0  0  0  0  0  0  0
   -4.8062   -0.6628    0.0000 C   0  0  0  0  0  0  0  0  0  0  0  0
   -3.3232   -0.8879    0.0000 C   0  0  0  0  0  0  0  0  0  0  0  0
   -2.7767   -2.2848    0.0000 C   0  0  0  0  0  0  0  0  0  0  0  0
   -3.7132   -3.4566    0.0000 C   0  0  0  0  0  0  0  0  0  0  0  0
   -1.2937   -2.5100    0.0000 C   0  0  0  0  0  0  0  0  0  0  0  0
   -0.6042   -3.8421    0.0000 C   0  0  0  0  0  0  0  0  0  0  0  0
    0.8758   -3.5980    0.0000 C   0  0  0  0  0  0  0  0  0  0  0  0
    1.1010   -2.1150    0.0000 C   0  0  0  0  0  0  0  0  0  0  0  0
    2.3537   -1.2900    0.0000 C   0  0  0  0  0  0  0  0  0  0  0  0
    3.6946   -1.9624    0.0000 C   0  0  0  0  0  0  0  0  0  0  0  0
    3.7827   -3.4598    0.0000 O   0  0  0  0  0  0  0  0  0  0  0  0
    4.9473   -1.1374    0.0000 C   0  0  0  0  0  0  0  0  0  0  0  0
    4.8592    0.3600    0.0000 C   0  0  0  0  0  0  0  0  0  0  0  0
    6.1120    1.1850    0.0000 C   0  0  0  0  0  0  0  0  0  0  0  0
    6.0239    2.6824    0.0000 C   0  0  0  0  0  0  0  0  0  0  0  0
    7.2767    3.5074    0.0000 O   0  0  0  0  0  0  0  0  0  0  0  0
    4.6831    3.3548    0.0000 C   0  0  0  0  0  0  0  0  0  0  0  0
    3.4303    2.5298    0.0000 C   0  0  0  0  0  0  0  0  0  0  0  0
    3.5184    1.0324    0.0000 C   0  0  0  0  0  0  0  0  0  0  0  0
    2.1776    1.7048    0.0000 C   0  0  0  0  0  0  0  0  0  0  0  0
    2.2656    0.2074    0.0000 C   0  0  0  0  0  0  0  0  0  0  0  0
    0.9248    0.8798    0.0000 C   0  0  0  0  0  0  0  0  0  0  0  0
   -0.3279    0.0548    0.0000 C   0  0  0  0  0  0  0  0  0  0  0  0
   -0.2399   -1.4426    0.0000 C   0  0  0  0  0  0  0  0  0  0  0  0
   -1.6436   -0.9140    0.0000 C   0  0  0  0  0  0  0  0  0  0  0  0
  1  2  1  0
  2  3  1  0
  2  4  1  0
  4  5  1  0
  5  6  2  0
  5  7  1  0
  7  8  1  0
  8  9  1  0
  9 10  1  6
  9 11  1  0
 11 12  1  6
 12 13  1  0
 14 13  1  6
 14 15  1  0
 15 16  1  1
 16 17  1  1
 16 18  1  0
 19 18  1  1
 19 20  1  0
 20 21  1  0
 21 22  1  1
 21 23  1  0
 23 24  1  0
 24 25  1  0
 25 26  1  6
 25 27  1  0
 27 28  1  6
 28 29  1  0
 29 30  1  0
 30 31  1  6
 30 11  1  0
 30 14  1  0
 27 15  1  0
 25 19  1  0
M  END
>  <MS_ID>  (2651) 
MS2742

>  <SMILES>  (2651) 
CC(C)CC(=O)CC[C@@H](C)[C@H]1CC[C@H]2[C@@H]3[C@H](O)C[C@@H]4C[C@H](O)CC[C@]4(C)[C@H]3CC[C@]12C

>  <Structure_dimension>  (2651) 
2D

$$$$
MS2743
     RDKit          2D

 27 30  0  0  0  0  0  0  0  0999 V2000
   -5.1023   -2.0364    0.0000 C   0  0  0  0  0  0  0  0  0  0  0  0
   -3.8978   -1.1425    0.0000 C   0  0  0  0  0  0  0  0  0  0  0  0
   -4.0697    0.3476    0.0000 C   0  0  0  0  0  0  0  0  0  0  0  0
   -5.4461    0.9438    0.0000 C   0  0  0  0  0  0  0  0  0  0  0  0
   -5.6180    2.4339    0.0000 C   0  0  0  0  0  0  0  0  0  0  0  0
   -6.9944    3.0301    0.0000 N   0  0  0  0  0  0  0  0  0  0  0  0
   -4.4135    3.3278    0.0000 O   0  0  0  0  0  0  0  0  0  0  0  0
   -2.5213   -1.7387    0.0000 C   0  0  0  0  0  0  0  0  0  0  0  0
   -2.1946   -3.2027    0.0000 C   0  0  0  0  0  0  0  0  0  0  0  0
   -0.7013   -3.3444    0.0000 C   0  0  0  0  0  0  0  0  0  0  0  0
   -0.1051   -1.9679    0.0000 C   0  0  0  0  0  0  0  0  0  0  0  0
    1.3167   -1.4900    0.0000 C   0  0  0  0  0  0  0  0  0  0  0  0
    2.4415   -2.4823    0.0000 C   0  0  0  0  0  0  0  0  0  0  0  0
    3.8633   -2.0044    0.0000 C   0  0  0  0  0  0  0  0  0  0  0  0
    4.1603   -0.5341    0.0000 C   0  0  0  0  0  0  0  0  0  0  0  0
    5.5821   -0.0561    0.0000 C   0  0  0  0  0  0  0  0  0  0  0  0
    5.8791    1.4142    0.0000 C   0  0  0  0  0  0  0  0  0  0  0  0
    7.3009    1.8921    0.0000 O   0  0  0  0  0  0  0  0  0  0  0  0
    4.7543    2.4065    0.0000 C   0  0  0  0  0  0  0  0  0  0  0  0
    3.3325    1.9286    0.0000 C   0  0  0  0  0  0  0  0  0  0  0  0
    3.0355    0.4583    0.0000 C   0  0  0  0  0  0  0  0  0  0  0  0
    1.9107    1.4506    0.0000 C   0  0  0  0  0  0  0  0  0  0  0  0
    1.6137   -0.0197    0.0000 C   0  0  0  0  0  0  0  0  0  0  0  0
    0.4888    0.9727    0.0000 C   0  0  0  0  0  0  0  0  0  0  0  0
   -0.9330    0.4947    0.0000 C   0  0  0  0  0  0  0  0  0  0  0  0
   -1.2300   -0.9756    0.0000 C   0  0  0  0  0  0  0  0  0  0  0  0
   -2.4524   -0.1062    0.0000 C   0  0  0  0  0  0  0  0  0  0  0  0
  2  1  1  6
  2  3  1  0
  3  4  1  0
  4  5  1  0
  5  6  1  0
  5  7  2  0
  2  8  1  0
  8  9  1  6
  9 10  1  0
 11 10  1  6
 11 12  1  0
 12 13  1  1
 13 14  1  0
 15 14  1  1
 15 16  1  0
 16 17  1  0
 17 18  1  6
 17 19  1  0
 19 20  1  0
 20 21  1  0
 21 22  1  6
 21 23  1  0
 23 24  1  6
 24 25  1  0
 25 26  1  0
 26 27  1  6
 26  8  1  0
 26 11  1  0
 23 12  1  0
 21 15  1  0
M  END
>  <MS_ID>  (2652) 
MS2743

>  <SMILES>  (2652) 
C[C@H](CCC(N)=O)[C@H]1CC[C@H]2[C@@H]3CC[C@@H]4C[C@@H](O)CC[C@]4(C)[C@H]3CC[C@]12C

>  <Structure_dimension>  (2652) 
2D

$$$$
MS2744
     RDKit          2D

 36 40  0  0  0  0  0  0  0  0999 V2000
   -2.0095   -4.4332    0.0000 C   0  0  0  0  0  0  0  0  0  0  0  0
   -1.3394   -3.0911    0.0000 C   0  0  0  0  0  0  0  0  0  0  0  0
   -2.1666   -1.8398    0.0000 C   0  0  0  0  0  0  0  0  0  0  0  0
   -3.6639   -1.9306    0.0000 C   0  0  0  0  0  0  0  0  0  0  0  0
   -4.4911   -0.6793    0.0000 C   0  0  0  0  0  0  0  0  0  0  0  0
   -3.8210    0.6628    0.0000 O   0  0  0  0  0  0  0  0  0  0  0  0
   -5.9883   -0.7700    0.0000 N   0  0  0  0  0  0  0  0  0  0  0  0
   -6.8155    0.4813    0.0000 C   0  0  0  0  0  0  0  0  0  0  0  0
   -6.1454    1.8234    0.0000 C   0  0  0  0  0  0  0  0  0  0  0  0
   -6.9726    3.0747    0.0000 C   0  0  0  0  0  0  0  0  0  0  0  0
   -8.4699    2.9840    0.0000 C   0  0  0  0  0  0  0  0  0  0  0  0
   -9.1400    1.6419    0.0000 C   0  0  0  0  0  0  0  0  0  0  0  0
  -10.6372    1.5512    0.0000 Cl  0  0  0  0  0  0  0  0  0  0  0  0
   -8.3128    0.3906    0.0000 C   0  0  0  0  0  0  0  0  0  0  0  0
    0.1578   -3.0004    0.0000 C   0  0  0  0  0  0  0  0  0  0  0  0
    1.1113   -4.1584    0.0000 C   0  0  0  0  0  0  0  0  0  0  0  0
    2.5072   -3.6095    0.0000 C   0  0  0  0  0  0  0  0  0  0  0  0
    2.4165   -2.1122    0.0000 C   0  0  0  0  0  0  0  0  0  0  0  0
    3.4685   -1.0429    0.0000 C   0  0  0  0  0  0  0  0  0  0  0  0
    4.9205   -1.4194    0.0000 C   0  0  0  0  0  0  0  0  0  0  0  0
    5.3205   -2.8650    0.0000 O   0  0  0  0  0  0  0  0  0  0  0  0
    5.9725   -0.3501    0.0000 C   0  0  0  0  0  0  0  0  0  0  0  0
    7.4245   -0.7265    0.0000 O   0  0  0  0  0  0  0  0  0  0  0  0
    5.5724    1.0956    0.0000 C   0  0  0  0  0  0  0  0  0  0  0  0
    6.6244    2.1649    0.0000 C   0  0  0  0  0  0  0  0  0  0  0  0
    6.2244    3.6105    0.0000 C   0  0  0  0  0  0  0  0  0  0  0  0
    7.2764    4.6798    0.0000 O   0  0  0  0  0  0  0  0  0  0  0  0
    4.7724    3.9869    0.0000 C   0  0  0  0  0  0  0  0  0  0  0  0
    3.7204    2.9177    0.0000 C   0  0  0  0  0  0  0  0  0  0  0  0
    4.1204    1.4720    0.0000 C   0  0  0  0  0  0  0  0  0  0  0  0
    2.6684    1.8484    0.0000 C   0  0  0  0  0  0  0  0  0  0  0  0
    3.0684    0.4027    0.0000 C   0  0  0  0  0  0  0  0  0  0  0  0
    1.6164    0.7791    0.0000 C   0  0  0  0  0  0  0  0  0  0  0  0
    0.5645   -0.2901    0.0000 C   0  0  0  0  0  0  0  0  0  0  0  0
    0.9645   -1.7358    0.0000 C   0  0  0  0  0  0  0  0  0  0  0  0
   -0.5189   -1.5132    0.0000 C   0  0  0  0  0  0  0  0  0  0  0  0
  2  1  1  6
  2  3  1  0
  3  4  1  0
  4  5  1  0
  5  6  2  0
  5  7  1  0
  7  8  1  0
  8  9  2  0
  9 10  1  0
 10 11  2  0
 11 12  1  0
 12 13  1  0
 12 14  2  0
  2 15  1  0
 15 16  1  6
 16 17  1  0
 18 17  1  6
 18 19  1  0
 19 20  1  1
 20 21  1  1
 20 22  1  0
 22 23  1  1
 22 24  1  0
 24 25  1  1
 25 26  1  0
 26 27  1  1
 26 28  1  0
 28 29  1  0
 29 30  1  0
 30 31  1  6
 30 32  1  0
 32 33  1  6
 33 34  1  0
 34 35  1  0
 35 36  1  6
 14  8  1  0
 35 15  1  0
 35 18  1  0
 32 19  1  0
 30 24  1  0
M  END
>  <MS_ID>  (2653) 
MS2744

>  <SMILES>  (2653) 
C[C@H](CCC(=O)Nc1cccc(Cl)c1)[C@H]1CC[C@H]2[C@@H]3[C@H](O)[C@H](O)[C@@H]4C[C@H](O)CC[C@]4(C)[C@H]3CC[C@]12C

>  <Structure_dimension>  (2653) 
2D

$$$$
MS2745
     RDKit          2D

 38 42  0  0  0  0  0  0  0  0999 V2000
   -0.7209   -4.9059    0.0000 C   0  0  0  0  0  0  0  0  0  0  0  0
   -0.2198   -3.4920    0.0000 C   0  0  0  0  0  0  0  0  0  0  0  0
   -1.1937   -2.3512    0.0000 C   0  0  0  0  0  0  0  0  0  0  0  0
   -2.6687   -2.6242    0.0000 C   0  0  0  0  0  0  0  0  0  0  0  0
   -3.6425   -1.4833    0.0000 C   0  0  0  0  0  0  0  0  0  0  0  0
   -3.1415   -0.0695    0.0000 O   0  0  0  0  0  0  0  0  0  0  0  0
   -5.1175   -1.7563    0.0000 C   0  0  0  0  0  0  0  0  0  0  0  0
   -6.0914   -0.6155    0.0000 C   0  0  0  0  0  0  0  0  0  0  0  0
   -5.5903    0.7983    0.0000 C   0  0  0  0  0  0  0  0  0  0  0  0
   -6.5642    1.9392    0.0000 C   0  0  0  0  0  0  0  0  0  0  0  0
   -8.0392    1.6662    0.0000 C   0  0  0  0  0  0  0  0  0  0  0  0
   -9.0131    2.8070    0.0000 C   0  0  0  0  0  0  0  0  0  0  0  0
  -10.4880    2.5340    0.0000 O   0  0  0  0  0  0  0  0  0  0  0  0
   -8.5120    4.2209    0.0000 O   0  0  0  0  0  0  0  0  0  0  0  0
   -8.5402    0.2524    0.0000 C   0  0  0  0  0  0  0  0  0  0  0  0
   -7.5663   -0.8885    0.0000 C   0  0  0  0  0  0  0  0  0  0  0  0
    1.2551   -3.2190    0.0000 C   0  0  0  0  0  0  0  0  0  0  0  0
    2.3429   -4.2518    0.0000 C   0  0  0  0  0  0  0  0  0  0  0  0
    3.6613   -3.5364    0.0000 C   0  0  0  0  0  0  0  0  0  0  0  0
    3.3884   -2.0615    0.0000 C   0  0  0  0  0  0  0  0  0  0  0  0
    4.3018   -0.8717    0.0000 C   0  0  0  0  0  0  0  0  0  0  0  0
    5.7889   -1.0678    0.0000 C   0  0  0  0  0  0  0  0  0  0  0  0
    6.3626   -2.4538    0.0000 O   0  0  0  0  0  0  0  0  0  0  0  0
    6.7023    0.1220    0.0000 C   0  0  0  0  0  0  0  0  0  0  0  0
    6.1286    1.5080    0.0000 C   0  0  0  0  0  0  0  0  0  0  0  0
    7.0421    2.6978    0.0000 C   0  0  0  0  0  0  0  0  0  0  0  0
    6.4684    4.0837    0.0000 C   0  0  0  0  0  0  0  0  0  0  0  0
    7.3818    5.2735    0.0000 O   0  0  0  0  0  0  0  0  0  0  0  0
    4.9813    4.2799    0.0000 C   0  0  0  0  0  0  0  0  0  0  0  0
    4.0678    3.0901    0.0000 C   0  0  0  0  0  0  0  0  0  0  0  0
    4.6415    1.7041    0.0000 C   0  0  0  0  0  0  0  0  0  0  0  0
    3.1544    1.9003    0.0000 C   0  0  0  0  0  0  0  0  0  0  0  0
    3.7281    0.5143    0.0000 C   0  0  0  0  0  0  0  0  0  0  0  0
    2.2410    0.7104    0.0000 C   0  0  0  0  0  0  0  0  0  0  0  0
    1.3275   -0.4794    0.0000 C   0  0  0  0  0  0  0  0  0  0  0  0
   -0.1596   -0.2832    0.0000 O   0  0  0  0  0  0  0  0  0  0  0  0
    1.9012   -1.8653    0.0000 C   0  0  0  0  0  0  0  0  0  0  0  0
    0.4018   -1.8257    0.0000 C   0  0  0  0  0  0  0  0  0  0  0  0
  2  1  1  6
  2  3  1  0
  3  4  1  0
  4  5  1  0
  5  6  2  0
  5  7  1  0
  7  8  1  0
  8  9  2  0
  9 10  1  0
 10 11  2  0
 11 12  1  0
 12 13  2  0
 12 14  1  0
 11 15  1  0
 15 16  2  0
  2 17  1  0
 17 18  1  6
 18 19  1  0
 20 19  1  6
 20 21  1  0
 21 22  1  1
 22 23  1  1
 22 24  1  0
 25 24  1  1
 25 26  1  0
 26 27  1  0
 27 28  1  1
 27 29  1  0
 29 30  1  0
 30 31  1  0
 31 32  1  6
 31 33  1  0
 33 34  1  6
 34 35  1  0
 35 36  1  1
 35 37  1  0
 37 38  1  6
 16  8  1  0
 37 17  1  0
 37 20  1  0
 33 21  1  0
 31 25  1  0
M  END
>  <MS_ID>  (2654) 
MS2745

>  <SMILES>  (2654) 
C[C@H](CCC(=O)Cc1ccc(C(=O)O)cc1)[C@H]1CC[C@H]2[C@@H]3[C@H](O)C[C@@H]4C[C@H](O)CC[C@]4(C)[C@H]3C[C@H](O)[C@]12C

>  <Structure_dimension>  (2654) 
2D

$$$$
MS2746
     RDKit          2D

 28 31  0  0  0  0  0  0  0  0999 V2000
   -5.0096   -2.1352    0.0000 C   0  0  0  0  0  0  0  0  0  0  0  0
   -3.8132   -1.2303    0.0000 C   0  0  0  0  0  0  0  0  0  0  0  0
   -3.9987    0.2582    0.0000 C   0  0  0  0  0  0  0  0  0  0  0  0
   -5.3805    0.8418    0.0000 C   0  0  0  0  0  0  0  0  0  0  0  0
   -5.5659    2.3303    0.0000 C   0  0  0  0  0  0  0  0  0  0  0  0
   -4.3695    3.2351    0.0000 O   0  0  0  0  0  0  0  0  0  0  0  0
   -6.9477    2.9140    0.0000 O   0  0  0  0  0  0  0  0  0  0  0  0
   -2.4315   -1.8140    0.0000 C   0  0  0  0  0  0  0  0  0  0  0  0
   -2.0914   -3.2749    0.0000 C   0  0  0  0  0  0  0  0  0  0  0  0
   -0.5969   -3.4030    0.0000 C   0  0  0  0  0  0  0  0  0  0  0  0
   -0.0133   -2.0212    0.0000 C   0  0  0  0  0  0  0  0  0  0  0  0
    1.4041   -1.5304    0.0000 C   0  0  0  0  0  0  0  0  0  0  0  0
    2.5379   -2.5125    0.0000 C   0  0  0  0  0  0  0  0  0  0  0  0
    3.9554   -2.0216    0.0000 C   0  0  0  0  0  0  0  0  0  0  0  0
    4.2390   -0.5487    0.0000 C   0  0  0  0  0  0  0  0  0  0  0  0
    5.6564   -0.0578    0.0000 C   0  0  0  0  0  0  0  0  0  0  0  0
    5.9400    1.4151    0.0000 C   0  0  0  0  0  0  0  0  0  0  0  0
    7.3574    1.9060    0.0000 O   0  0  0  0  0  0  0  0  0  0  0  0
    4.8062    2.3972    0.0000 C   0  0  0  0  0  0  0  0  0  0  0  0
    3.3888    1.9064    0.0000 C   0  0  0  0  0  0  0  0  0  0  0  0
    3.1052    0.4334    0.0000 C   0  0  0  0  0  0  0  0  0  0  0  0
    1.9714    1.4155    0.0000 C   0  0  0  0  0  0  0  0  0  0  0  0
    1.6878   -0.0574    0.0000 C   0  0  0  0  0  0  0  0  0  0  0  0
    0.5540    0.9246    0.0000 C   0  0  0  0  0  0  0  0  0  0  0  0
   -0.8635    0.4338    0.0000 C   0  0  0  0  0  0  0  0  0  0  0  0
   -1.9973    1.4159    0.0000 F   0  0  0  0  0  0  0  0  0  0  0  0
   -1.1471   -1.0392    0.0000 C   0  0  0  0  0  0  0  0  0  0  0  0
   -2.3773   -0.1810    0.0000 C   0  0  0  0  0  0  0  0  0  0  0  0
  2  1  1  6
  2  3  1  0
  3  4  1  0
  4  5  1  0
  5  6  2  0
  5  7  1  0
  2  8  1  0
  8  9  1  6
  9 10  1  0
 11 10  1  6
 11 12  1  0
 12 13  1  1
 13 14  1  0
 15 14  1  1
 15 16  1  0
 16 17  1  0
 17 18  1  6
 17 19  1  0
 19 20  1  0
 20 21  1  0
 21 22  1  6
 21 23  1  0
 23 24  1  6
 24 25  1  0
 25 26  1  1
 25 27  1  0
 27 28  1  6
 27  8  1  0
 27 11  1  0
 23 12  1  0
 21 15  1  0
M  END
>  <MS_ID>  (2655) 
MS2746

>  <SMILES>  (2655) 
C[C@H](CCC(=O)O)[C@H]1CC[C@H]2[C@@H]3CC[C@@H]4C[C@@H](O)CC[C@]4(C)[C@H]3C[C@H](F)[C@]12C

>  <Structure_dimension>  (2655) 
2D

$$$$
MS2747
     RDKit          2D

 33 36  0  0  0  0  0  0  0  0999 V2000
   -2.8344   -3.8565    0.0000 C   0  0  0  0  0  0  0  0  0  0  0  0
   -1.9937   -2.6142    0.0000 C   0  0  0  0  0  0  0  0  0  0  0  0
   -2.6491   -1.2650    0.0000 C   0  0  0  0  0  0  0  0  0  0  0  0
   -4.1453   -1.1580    0.0000 C   0  0  0  0  0  0  0  0  0  0  0  0
   -4.8007    0.1912    0.0000 C   0  0  0  0  0  0  0  0  0  0  0  0
   -3.9600    1.4334    0.0000 O   0  0  0  0  0  0  0  0  0  0  0  0
   -6.2969    0.2982    0.0000 C   0  0  0  0  0  0  0  0  0  0  0  0
   -6.9523    1.6474    0.0000 C   0  0  0  0  0  0  0  0  0  0  0  0
   -6.1116    2.8896    0.0000 O   0  0  0  0  0  0  0  0  0  0  0  0
   -8.4485    1.7544    0.0000 C   0  0  0  0  0  0  0  0  0  0  0  0
   -9.2893    0.5121    0.0000 O   0  0  0  0  0  0  0  0  0  0  0  0
   -9.1040    3.1036    0.0000 O   0  0  0  0  0  0  0  0  0  0  0  0
   -0.4975   -2.7212    0.0000 C   0  0  0  0  0  0  0  0  0  0  0  0
    0.2954   -3.9945    0.0000 C   0  0  0  0  0  0  0  0  0  0  0  0
    1.7514   -3.6340    0.0000 C   0  0  0  0  0  0  0  0  0  0  0  0
    1.8584   -2.1378    0.0000 C   0  0  0  0  0  0  0  0  0  0  0  0
    3.0419   -1.2161    0.0000 C   0  0  0  0  0  0  0  0  0  0  0  0
    4.4317   -1.7802    0.0000 C   0  0  0  0  0  0  0  0  0  0  0  0
    4.6382   -3.2660    0.0000 O   0  0  0  0  0  0  0  0  0  0  0  0
    5.6152   -0.8586    0.0000 C   0  0  0  0  0  0  0  0  0  0  0  0
    5.4088    0.6271    0.0000 C   0  0  0  0  0  0  0  0  0  0  0  0
    6.5922    1.5488    0.0000 C   0  0  0  0  0  0  0  0  0  0  0  0
    6.3858    3.0345    0.0000 C   0  0  0  0  0  0  0  0  0  0  0  0
    7.5693    3.9561    0.0000 O   0  0  0  0  0  0  0  0  0  0  0  0
    4.9959    3.5986    0.0000 C   0  0  0  0  0  0  0  0  0  0  0  0
    3.8125    2.6770    0.0000 C   0  0  0  0  0  0  0  0  0  0  0  0
    4.0189    1.1912    0.0000 C   0  0  0  0  0  0  0  0  0  0  0  0
    2.6290    1.7553    0.0000 C   0  0  0  0  0  0  0  0  0  0  0  0
    2.8354    0.2696    0.0000 C   0  0  0  0  0  0  0  0  0  0  0  0
    1.4455    0.8337    0.0000 C   0  0  0  0  0  0  0  0  0  0  0  0
    0.2621   -0.0879    0.0000 C   0  0  0  0  0  0  0  0  0  0  0  0
    0.4685   -1.5737    0.0000 C   0  0  0  0  0  0  0  0  0  0  0  0
   -0.9727   -1.1580    0.0000 C   0  0  0  0  0  0  0  0  0  0  0  0
  2  1  1  6
  2  3  1  0
  3  4  1  0
  4  5  1  0
  5  6  2  0
  5  7  1  0
  7  8  1  0
  8  9  2  0
  8 10  1  0
 10 11  2  0
 10 12  1  0
  2 13  1  0
 13 14  1  6
 14 15  1  0
 16 15  1  6
 16 17  1  0
 17 18  1  1
 18 19  1  1
 18 20  1  0
 21 20  1  1
 21 22  1  0
 22 23  1  0
 23 24  1  1
 23 25  1  0
 25 26  1  0
 26 27  1  0
 27 28  1  6
 27 29  1  0
 29 30  1  6
 30 31  1  0
 31 32  1  0
 32 33  1  6
 32 13  1  0
 32 16  1  0
 29 17  1  0
 27 21  1  0
M  END
>  <MS_ID>  (2656) 
MS2747

>  <SMILES>  (2656) 
C[C@H](CCC(=O)CC(=O)C(=O)O)[C@H]1CC[C@H]2[C@@H]3[C@H](O)C[C@@H]4C[C@H](O)CC[C@]4(C)[C@H]3CC[C@]12C

>  <Structure_dimension>  (2656) 
2D

$$$$
MS2748
     RDKit          2D

 36 40  0  0  0  0  0  0  0  0999 V2000
   -2.0625   -4.0210    0.0000 C   0  0  0  0  0  0  0  0  0  0  0  0
   -1.2935   -2.7331    0.0000 C   0  0  0  0  0  0  0  0  0  0  0  0
   -2.0243   -1.4232    0.0000 C   0  0  0  0  0  0  0  0  0  0  0  0
   -3.5241   -1.4011    0.0000 C   0  0  0  0  0  0  0  0  0  0  0  0
   -4.2549   -0.0912    0.0000 C   0  0  0  0  0  0  0  0  0  0  0  0
   -3.4858    1.1967    0.0000 O   0  0  0  0  0  0  0  0  0  0  0  0
   -5.7547   -0.0691    0.0000 O   0  0  0  0  0  0  0  0  0  0  0  0
   -6.4855    1.2409    0.0000 C   0  0  0  0  0  0  0  0  0  0  0  0
   -7.9854    1.2630    0.0000 C   0  0  0  0  0  0  0  0  0  0  0  0
   -8.7161    2.5729    0.0000 C   0  0  0  0  0  0  0  0  0  0  0  0
  -10.2160    2.5950    0.0000 C   0  0  0  0  0  0  0  0  0  0  0  0
  -10.9850    1.3071    0.0000 C   0  0  0  0  0  0  0  0  0  0  0  0
  -10.2542   -0.0028    0.0000 N   0  0  0  0  0  0  0  0  0  0  0  0
   -8.7544   -0.0249    0.0000 C   0  0  0  0  0  0  0  0  0  0  0  0
    0.2063   -2.7552    0.0000 C   0  0  0  0  0  0  0  0  0  0  0  0
    1.0701   -3.9816    0.0000 C   0  0  0  0  0  0  0  0  0  0  0  0
    2.5033   -3.5392    0.0000 C   0  0  0  0  0  0  0  0  0  0  0  0
    2.5254   -2.0393    0.0000 C   0  0  0  0  0  0  0  0  0  0  0  0
    3.6548   -1.0521    0.0000 C   0  0  0  0  0  0  0  0  0  0  0  0
    5.0744   -1.5366    0.0000 C   0  0  0  0  0  0  0  0  0  0  0  0
    5.3646   -3.0083    0.0000 O   0  0  0  0  0  0  0  0  0  0  0  0
    6.2038   -0.5495    0.0000 C   0  0  0  0  0  0  0  0  0  0  0  0
    7.6234   -1.0339    0.0000 O   0  0  0  0  0  0  0  0  0  0  0  0
    5.9135    0.9222    0.0000 C   0  0  0  0  0  0  0  0  0  0  0  0
    7.0429    1.9094    0.0000 C   0  0  0  0  0  0  0  0  0  0  0  0
    6.7527    3.3810    0.0000 C   0  0  0  0  0  0  0  0  0  0  0  0
    7.8821    4.3682    0.0000 O   0  0  0  0  0  0  0  0  0  0  0  0
    5.3331    3.8655    0.0000 C   0  0  0  0  0  0  0  0  0  0  0  0
    4.2037    2.8783    0.0000 C   0  0  0  0  0  0  0  0  0  0  0  0
    4.4939    1.4067    0.0000 C   0  0  0  0  0  0  0  0  0  0  0  0
    3.0743    1.8912    0.0000 C   0  0  0  0  0  0  0  0  0  0  0  0
    3.3646    0.4195    0.0000 C   0  0  0  0  0  0  0  0  0  0  0  0
    1.9450    0.9040    0.0000 C   0  0  0  0  0  0  0  0  0  0  0  0
    0.8156   -0.0832    0.0000 C   0  0  0  0  0  0  0  0  0  0  0  0
    1.1058   -1.5548    0.0000 C   0  0  0  0  0  0  0  0  0  0  0  0
   -0.3567   -1.2214    0.0000 C   0  0  0  0  0  0  0  0  0  0  0  0
  2  1  1  6
  2  3  1  0
  3  4  1  0
  4  5  1  0
  5  6  2  0
  5  7  1  0
  7  8  1  0
  8  9  1  0
  9 10  2  0
 10 11  1  0
 11 12  2  0
 12 13  1  0
 13 14  2  0
  2 15  1  0
 15 16  1  6
 16 17  1  0
 18 17  1  6
 18 19  1  0
 19 20  1  1
 20 21  1  1
 20 22  1  0
 22 23  1  1
 22 24  1  0
 24 25  1  1
 25 26  1  0
 26 27  1  1
 26 28  1  0
 28 29  1  0
 29 30  1  0
 30 31  1  6
 30 32  1  0
 32 33  1  6
 33 34  1  0
 34 35  1  0
 35 36  1  6
 14  9  1  0
 35 15  1  0
 35 18  1  0
 32 19  1  0
 30 24  1  0
M  END
>  <MS_ID>  (2657) 
MS2748

>  <SMILES>  (2657) 
C[C@H](CCC(=O)OCc1cccnc1)[C@H]1CC[C@H]2[C@@H]3[C@H](O)[C@H](O)[C@@H]4C[C@H](O)CC[C@]4(C)[C@H]3CC[C@]12C

>  <Structure_dimension>  (2657) 
2D

$$$$
MS2749
     RDKit          2D

 37 41  0  0  0  0  0  0  0  0999 V2000
   -1.1345   -4.7100    0.0000 C   0  0  0  0  0  0  0  0  0  0  0  0
   -0.5750   -3.3183    0.0000 C   0  0  0  0  0  0  0  0  0  0  0  0
   -1.5006   -2.1379    0.0000 C   0  0  0  0  0  0  0  0  0  0  0  0
   -2.9856   -2.3492    0.0000 C   0  0  0  0  0  0  0  0  0  0  0  0
   -3.9111   -1.1688    0.0000 C   0  0  0  0  0  0  0  0  0  0  0  0
   -3.3516    0.2230    0.0000 O   0  0  0  0  0  0  0  0  0  0  0  0
   -5.3962   -1.3801    0.0000 N   0  0  0  0  0  0  0  0  0  0  0  0
   -6.3217   -0.1997    0.0000 C   0  0  0  0  0  0  0  0  0  0  0  0
   -7.8068   -0.4111    0.0000 C   0  0  0  0  0  0  0  0  0  0  0  0
   -8.7323    0.7693    0.0000 C   0  0  0  0  0  0  0  0  0  0  0  0
   -8.1728    2.1611    0.0000 C   0  0  0  0  0  0  0  0  0  0  0  0
   -9.0983    3.3415    0.0000 C   0  0  0  0  0  0  0  0  0  0  0  0
  -10.5834    3.1302    0.0000 C   0  0  0  0  0  0  0  0  0  0  0  0
  -11.1429    1.7384    0.0000 C   0  0  0  0  0  0  0  0  0  0  0  0
  -10.2173    0.5580    0.0000 C   0  0  0  0  0  0  0  0  0  0  0  0
    0.9100   -3.1069    0.0000 C   0  0  0  0  0  0  0  0  0  0  0  0
    1.9539   -4.1841    0.0000 C   0  0  0  0  0  0  0  0  0  0  0  0
    3.3009   -3.5242    0.0000 C   0  0  0  0  0  0  0  0  0  0  0  0
    3.0896   -2.0392    0.0000 C   0  0  0  0  0  0  0  0  0  0  0  0
    4.0518   -0.8885    0.0000 C   0  0  0  0  0  0  0  0  0  0  0  0
    5.5294   -1.1464    0.0000 C   0  0  0  0  0  0  0  0  0  0  0  0
    6.0449   -2.5550    0.0000 O   0  0  0  0  0  0  0  0  0  0  0  0
    6.4916    0.0044    0.0000 C   0  0  0  0  0  0  0  0  0  0  0  0
    7.9693   -0.2535    0.0000 O   0  0  0  0  0  0  0  0  0  0  0  0
    5.9761    1.4130    0.0000 C   0  0  0  0  0  0  0  0  0  0  0  0
    6.9383    2.5638    0.0000 C   0  0  0  0  0  0  0  0  0  0  0  0
    6.4229    3.9724    0.0000 C   0  0  0  0  0  0  0  0  0  0  0  0
    7.3850    5.1231    0.0000 O   0  0  0  0  0  0  0  0  0  0  0  0
    4.9452    4.2303    0.0000 C   0  0  0  0  0  0  0  0  0  0  0  0
    3.9830    3.0796    0.0000 C   0  0  0  0  0  0  0  0  0  0  0  0
    4.4985    1.6709    0.0000 C   0  0  0  0  0  0  0  0  0  0  0  0
    3.0208    1.9288    0.0000 C   0  0  0  0  0  0  0  0  0  0  0  0
    3.5363    0.5202    0.0000 C   0  0  0  0  0  0  0  0  0  0  0  0
    2.0586    0.7781    0.0000 C   0  0  0  0  0  0  0  0  0  0  0  0
    1.0965   -0.3726    0.0000 C   0  0  0  0  0  0  0  0  0  0  0  0
    1.6119   -1.7813    0.0000 C   0  0  0  0  0  0  0  0  0  0  0  0
    0.1154   -1.6793    0.0000 C   0  0  0  0  0  0  0  0  0  0  0  0
  2  1  1  6
  2  3  1  0
  3  4  1  0
  4  5  1  0
  5  6  2  0
  5  7  1  0
  7  8  1  0
  8  9  1  0
  9 10  1  0
 10 11  2  0
 11 12  1  0
 12 13  2  0
 13 14  1  0
 14 15  2  0
  2 16  1  0
 16 17  1  6
 17 18  1  0
 19 18  1  6
 19 20  1  0
 20 21  1  1
 21 22  1  1
 21 23  1  0
 23 24  1  1
 23 25  1  0
 25 26  1  1
 26 27  1  0
 27 28  1  1
 27 29  1  0
 29 30  1  0
 30 31  1  0
 31 32  1  6
 31 33  1  0
 33 34  1  6
 34 35  1  0
 35 36  1  0
 36 37  1  6
 15 10  1  0
 36 16  1  0
 36 19  1  0
 33 20  1  0
 31 25  1  0
M  END
>  <MS_ID>  (2658) 
MS2749

>  <SMILES>  (2658) 
C[C@H](CCC(=O)NCCc1ccccc1)[C@H]1CC[C@H]2[C@@H]3[C@H](O)[C@H](O)[C@@H]4C[C@H](O)CC[C@]4(C)[C@H]3CC[C@]12C

>  <Structure_dimension>  (2658) 
2D

$$$$
MS2750
     RDKit          2D

 28 31  0  0  0  0  0  0  0  0999 V2000
   -6.9477    2.9140    0.0000 C   0  0  0  0  0  0  0  0  0  0  0  0
   -5.5659    2.3303    0.0000 C   0  0  0  0  0  0  0  0  0  0  0  0
   -4.3695    3.2351    0.0000 O   0  0  0  0  0  0  0  0  0  0  0  0
   -5.3805    0.8418    0.0000 C   0  0  0  0  0  0  0  0  0  0  0  0
   -3.9987    0.2582    0.0000 C   0  0  0  0  0  0  0  0  0  0  0  0
   -3.8132   -1.2303    0.0000 C   0  0  0  0  0  0  0  0  0  0  0  0
   -5.0096   -2.1352    0.0000 C   0  0  0  0  0  0  0  0  0  0  0  0
   -2.4315   -1.8140    0.0000 C   0  0  0  0  0  0  0  0  0  0  0  0
   -2.0914   -3.2749    0.0000 C   0  0  0  0  0  0  0  0  0  0  0  0
   -0.5969   -3.4030    0.0000 C   0  0  0  0  0  0  0  0  0  0  0  0
   -0.0133   -2.0212    0.0000 C   0  0  0  0  0  0  0  0  0  0  0  0
    1.4041   -1.5304    0.0000 C   0  0  0  0  0  0  0  0  0  0  0  0
    2.5379   -2.5125    0.0000 C   0  0  0  0  0  0  0  0  0  0  0  0
    3.9554   -2.0216    0.0000 C   0  0  0  0  0  0  0  0  0  0  0  0
    4.2390   -0.5487    0.0000 C   0  0  0  0  0  0  0  0  0  0  0  0
    5.6564   -0.0578    0.0000 C   0  0  0  0  0  0  0  0  0  0  0  0
    5.9400    1.4151    0.0000 C   0  0  0  0  0  0  0  0  0  0  0  0
    7.3574    1.9060    0.0000 O   0  0  0  0  0  0  0  0  0  0  0  0
    4.8062    2.3972    0.0000 C   0  0  0  0  0  0  0  0  0  0  0  0
    3.3888    1.9064    0.0000 C   0  0  0  0  0  0  0  0  0  0  0  0
    3.1052    0.4334    0.0000 C   0  0  0  0  0  0  0  0  0  0  0  0
    1.9714    1.4155    0.0000 C   0  0  0  0  0  0  0  0  0  0  0  0
    1.6878   -0.0574    0.0000 C   0  0  0  0  0  0  0  0  0  0  0  0
    0.5540    0.9246    0.0000 C   0  0  0  0  0  0  0  0  0  0  0  0
   -0.8635    0.4338    0.0000 C   0  0  0  0  0  0  0  0  0  0  0  0
   -1.9973    1.4159    0.0000 O   0  0  0  0  0  0  0  0  0  0  0  0
   -1.1471   -1.0392    0.0000 C   0  0  0  0  0  0  0  0  0  0  0  0
   -2.3773   -0.1810    0.0000 C   0  0  0  0  0  0  0  0  0  0  0  0
  1  2  1  0
  2  3  2  0
  2  4  1  0
  4  5  1  0
  5  6  1  0
  6  7  1  6
  6  8  1  0
  8  9  1  6
  9 10  1  0
 11 10  1  6
 11 12  1  0
 12 13  1  1
 13 14  1  0
 15 14  1  1
 15 16  1  0
 16 17  1  0
 17 18  1  1
 17 19  1  0
 19 20  1  0
 20 21  1  0
 21 22  1  6
 21 23  1  0
 23 24  1  6
 24 25  1  0
 25 26  1  6
 25 27  1  0
 27 28  1  6
 27  8  1  0
 27 11  1  0
 23 12  1  0
 21 15  1  0
M  END
>  <MS_ID>  (2659) 
MS2750

>  <SMILES>  (2659) 
CC(=O)CC[C@@H](C)[C@H]1CC[C@H]2[C@@H]3CC[C@@H]4C[C@H](O)CC[C@]4(C)[C@H]3C[C@@H](O)[C@]12C

>  <Structure_dimension>  (2659) 
2D

$$$$
MS2751
     RDKit          2D

 38 42  0  0  0  0  0  0  0  0999 V2000
   -0.7209   -4.9059    0.0000 C   0  0  0  0  0  0  0  0  0  0  0  0
   -0.2198   -3.4920    0.0000 C   0  0  0  0  0  0  0  0  0  0  0  0
   -1.1937   -2.3512    0.0000 C   0  0  0  0  0  0  0  0  0  0  0  0
   -2.6687   -2.6242    0.0000 C   0  0  0  0  0  0  0  0  0  0  0  0
   -3.6425   -1.4833    0.0000 C   0  0  0  0  0  0  0  0  0  0  0  0
   -3.1415   -0.0695    0.0000 O   0  0  0  0  0  0  0  0  0  0  0  0
   -5.1175   -1.7563    0.0000 O   0  0  0  0  0  0  0  0  0  0  0  0
   -6.0914   -0.6155    0.0000 C   0  0  0  0  0  0  0  0  0  0  0  0
   -5.5903    0.7983    0.0000 C   0  0  0  0  0  0  0  0  0  0  0  0
   -6.5642    1.9392    0.0000 C   0  0  0  0  0  0  0  0  0  0  0  0
   -8.0392    1.6662    0.0000 C   0  0  0  0  0  0  0  0  0  0  0  0
   -9.0131    2.8070    0.0000 C   0  0  0  0  0  0  0  0  0  0  0  0
  -10.4880    2.5340    0.0000 O   0  0  0  0  0  0  0  0  0  0  0  0
   -8.5120    4.2209    0.0000 O   0  0  0  0  0  0  0  0  0  0  0  0
   -8.5402    0.2524    0.0000 C   0  0  0  0  0  0  0  0  0  0  0  0
   -7.5663   -0.8885    0.0000 C   0  0  0  0  0  0  0  0  0  0  0  0
    1.2551   -3.2190    0.0000 C   0  0  0  0  0  0  0  0  0  0  0  0
    2.3429   -4.2518    0.0000 C   0  0  0  0  0  0  0  0  0  0  0  0
    3.6613   -3.5364    0.0000 C   0  0  0  0  0  0  0  0  0  0  0  0
    3.3884   -2.0615    0.0000 C   0  0  0  0  0  0  0  0  0  0  0  0
    4.3018   -0.8717    0.0000 C   0  0  0  0  0  0  0  0  0  0  0  0
    5.7889   -1.0678    0.0000 C   0  0  0  0  0  0  0  0  0  0  0  0
    6.3626   -2.4538    0.0000 O   0  0  0  0  0  0  0  0  0  0  0  0
    6.7023    0.1220    0.0000 C   0  0  0  0  0  0  0  0  0  0  0  0
    6.1286    1.5080    0.0000 C   0  0  0  0  0  0  0  0  0  0  0  0
    7.0421    2.6978    0.0000 C   0  0  0  0  0  0  0  0  0  0  0  0
    6.4684    4.0837    0.0000 C   0  0  0  0  0  0  0  0  0  0  0  0
    7.3818    5.2735    0.0000 O   0  0  0  0  0  0  0  0  0  0  0  0
    4.9813    4.2799    0.0000 C   0  0  0  0  0  0  0  0  0  0  0  0
    4.0678    3.0901    0.0000 C   0  0  0  0  0  0  0  0  0  0  0  0
    4.6415    1.7041    0.0000 C   0  0  0  0  0  0  0  0  0  0  0  0
    3.1544    1.9003    0.0000 C   0  0  0  0  0  0  0  0  0  0  0  0
    3.7281    0.5143    0.0000 C   0  0  0  0  0  0  0  0  0  0  0  0
    2.2410    0.7104    0.0000 C   0  0  0  0  0  0  0  0  0  0  0  0
    1.3275   -0.4794    0.0000 C   0  0  0  0  0  0  0  0  0  0  0  0
   -0.1596   -0.2832    0.0000 O   0  0  0  0  0  0  0  0  0  0  0  0
    1.9012   -1.8653    0.0000 C   0  0  0  0  0  0  0  0  0  0  0  0
    0.4018   -1.8257    0.0000 C   0  0  0  0  0  0  0  0  0  0  0  0
  2  1  1  6
  2  3  1  0
  3  4  1  0
  4  5  1  0
  5  6  2  0
  5  7  1  0
  7  8  1  0
  8  9  2  0
  9 10  1  0
 10 11  2  0
 11 12  1  0
 12 13  2  0
 12 14  1  0
 11 15  1  0
 15 16  2  0
  2 17  1  0
 17 18  1  6
 18 19  1  0
 20 19  1  6
 20 21  1  0
 21 22  1  1
 22 23  1  1
 22 24  1  0
 25 24  1  1
 25 26  1  0
 26 27  1  0
 27 28  1  1
 27 29  1  0
 29 30  1  0
 30 31  1  0
 31 32  1  6
 31 33  1  0
 33 34  1  6
 34 35  1  0
 35 36  1  1
 35 37  1  0
 37 38  1  6
 16  8  1  0
 37 17  1  0
 37 20  1  0
 33 21  1  0
 31 25  1  0
M  END
>  <MS_ID>  (2660) 
MS2751

>  <SMILES>  (2660) 
C[C@H](CCC(=O)Oc1ccc(C(=O)O)cc1)[C@H]1CC[C@H]2[C@@H]3[C@H](O)C[C@@H]4C[C@H](O)CC[C@]4(C)[C@H]3C[C@H](O)[C@]12C

>  <Structure_dimension>  (2660) 
2D

$$$$
MS2752
     RDKit          2D

 39 43  0  0  0  0  0  0  0  0999 V2000
   -7.7534   -2.1938    0.0000 C   0  0  0  0  0  0  0  0  0  0  0  0
   -6.5793   -1.2603    0.0000 C   0  0  0  0  0  0  0  0  0  0  0  0
   -6.8008    0.2233    0.0000 C   0  0  0  0  0  0  0  0  0  0  0  0
   -8.1963    0.7733    0.0000 C   0  0  0  0  0  0  0  0  0  0  0  0
   -8.4177    2.2569    0.0000 C   0  0  0  0  0  0  0  0  0  0  0  0
   -7.2436    3.1904    0.0000 O   0  0  0  0  0  0  0  0  0  0  0  0
   -9.8132    2.8069    0.0000 O   0  0  0  0  0  0  0  0  0  0  0  0
   -5.1838   -1.8103    0.0000 C   0  0  0  0  0  0  0  0  0  0  0  0
   -4.8085   -3.2626    0.0000 C   0  0  0  0  0  0  0  0  0  0  0  0
   -3.3114   -3.3545    0.0000 C   0  0  0  0  0  0  0  0  0  0  0  0
   -2.7613   -1.9590    0.0000 C   0  0  0  0  0  0  0  0  0  0  0  0
   -1.3562   -1.4339    0.0000 C   0  0  0  0  0  0  0  0  0  0  0  0
   -0.1990   -2.3883    0.0000 C   0  0  0  0  0  0  0  0  0  0  0  0
    1.2061   -1.8632    0.0000 C   0  0  0  0  0  0  0  0  0  0  0  0
    1.4540   -0.3839    0.0000 C   0  0  0  0  0  0  0  0  0  0  0  0
    2.8591    0.1412    0.0000 C   0  0  0  0  0  0  0  0  0  0  0  0
    3.1070    1.6206    0.0000 C   0  0  0  0  0  0  0  0  0  0  0  0
    4.5121    2.1456    0.0000 O   0  0  0  0  0  0  0  0  0  0  0  0
    5.6693    1.1912    0.0000 C   0  0  0  0  0  0  0  0  0  0  0  0
    5.4215   -0.2881    0.0000 O   0  0  0  0  0  0  0  0  0  0  0  0
    6.5787   -1.2425    0.0000 C   0  0  0  0  0  0  0  0  0  0  0  0
    6.3309   -2.7219    0.0000 C   0  0  0  0  0  0  0  0  0  0  0  0
    4.9257   -3.2469    0.0000 O   0  0  0  0  0  0  0  0  0  0  0  0
    7.9838   -0.7174    0.0000 C   0  0  0  0  0  0  0  0  0  0  0  0
    9.1411   -1.6718    0.0000 O   0  0  0  0  0  0  0  0  0  0  0  0
    8.2317    0.7619    0.0000 C   0  0  0  0  0  0  0  0  0  0  0  0
    9.6368    1.2870    0.0000 O   0  0  0  0  0  0  0  0  0  0  0  0
    7.0744    1.7163    0.0000 C   0  0  0  0  0  0  0  0  0  0  0  0
    7.3223    3.1957    0.0000 O   0  0  0  0  0  0  0  0  0  0  0  0
    1.9497    2.5749    0.0000 C   0  0  0  0  0  0  0  0  0  0  0  0
    0.5446    2.0499    0.0000 C   0  0  0  0  0  0  0  0  0  0  0  0
    0.2967    0.5705    0.0000 C   0  0  0  0  0  0  0  0  0  0  0  0
   -0.8605    1.5248    0.0000 C   0  0  0  0  0  0  0  0  0  0  0  0
   -1.1084    0.0455    0.0000 C   0  0  0  0  0  0  0  0  0  0  0  0
   -2.2656    0.9998    0.0000 C   0  0  0  0  0  0  0  0  0  0  0  0
   -3.6707    0.4748    0.0000 C   0  0  0  0  0  0  0  0  0  0  0  0
   -4.8280    1.4291    0.0000 O   0  0  0  0  0  0  0  0  0  0  0  0
   -3.9186   -1.0046    0.0000 C   0  0  0  0  0  0  0  0  0  0  0  0
   -5.1693   -0.1765    0.0000 C   0  0  0  0  0  0  0  0  0  0  0  0
  2  1  1  6
  2  3  1  0
  3  4  1  0
  4  5  1  0
  5  6  2  0
  5  7  1  0
  2  8  1  0
  8  9  1  6
  9 10  1  0
 11 10  1  6
 11 12  1  0
 12 13  1  1
 13 14  1  0
 15 14  1  1
 15 16  1  0
 16 17  1  0
 17 18  1  1
 19 18  1  1
 19 20  1  0
 20 21  1  0
 21 22  1  1
 22 23  1  0
 21 24  1  0
 24 25  1  1
 24 26  1  0
 26 27  1  6
 26 28  1  0
 28 29  1  6
 17 30  1  0
 30 31  1  0
 31 32  1  0
 32 33  1  6
 32 34  1  0
 34 35  1  6
 35 36  1  0
 36 37  1  1
 36 38  1  0
 38 39  1  6
 38  8  1  0
 38 11  1  0
 34 12  1  0
 32 15  1  0
 28 19  1  0
M  END
>  <MS_ID>  (2661) 
MS2752

>  <SMILES>  (2661) 
C[C@H](CCC(=O)O)[C@H]1CC[C@H]2[C@@H]3CC[C@@H]4C[C@H](O[C@@H]5O[C@H](CO)[C@H](O)[C@@H](O)[C@H]5O)CC[C@]4(C)[C@H]3C[C@H](O)[C@]12C

>  <Structure_dimension>  (2661) 
2D

$$$$
MS2753
     RDKit          2D

 31 34  0  0  0  0  0  0  0  0999 V2000
   -4.3735   -2.9763    0.0000 C   0  0  0  0  0  0  0  0  0  0  0  0
   -3.3227   -1.9059    0.0000 C   0  0  0  0  0  0  0  0  0  0  0  0
   -3.7243   -0.4607    0.0000 C   0  0  0  0  0  0  0  0  0  0  0  0
   -5.1767   -0.0858    0.0000 C   0  0  0  0  0  0  0  0  0  0  0  0
   -5.5783    1.3594    0.0000 C   0  0  0  0  0  0  0  0  0  0  0  0
   -7.0307    1.7342    0.0000 O   0  0  0  0  0  0  0  0  0  0  0  0
   -4.5274    2.4298    0.0000 S   0  0  0  0  0  0  0  0  0  0  0  0
   -5.5978    3.4806    0.0000 O   0  0  0  0  0  0  0  0  0  0  0  0
   -3.4570    1.3790    0.0000 O   0  0  0  0  0  0  0  0  0  0  0  0
   -3.4766    3.5002    0.0000 O   0  0  0  0  0  0  0  0  0  0  0  0
   -1.8703   -2.2808    0.0000 C   0  0  0  0  0  0  0  0  0  0  0  0
   -1.3198   -3.6761    0.0000 C   0  0  0  0  0  0  0  0  0  0  0  0
    0.1774   -3.5838    0.0000 C   0  0  0  0  0  0  0  0  0  0  0  0
    0.5522   -2.1314    0.0000 C   0  0  0  0  0  0  0  0  0  0  0  0
    1.8824   -1.4381    0.0000 C   0  0  0  0  0  0  0  0  0  0  0  0
    3.1478   -2.2434    0.0000 C   0  0  0  0  0  0  0  0  0  0  0  0
    3.0832   -3.7420    0.0000 O   0  0  0  0  0  0  0  0  0  0  0  0
    4.4780   -1.5501    0.0000 C   0  0  0  0  0  0  0  0  0  0  0  0
    4.5427   -0.0515    0.0000 C   0  0  0  0  0  0  0  0  0  0  0  0
    5.8729    0.6418    0.0000 C   0  0  0  0  0  0  0  0  0  0  0  0
    5.9375    2.1404    0.0000 C   0  0  0  0  0  0  0  0  0  0  0  0
    7.2677    2.8337    0.0000 O   0  0  0  0  0  0  0  0  0  0  0  0
    4.6720    2.9457    0.0000 C   0  0  0  0  0  0  0  0  0  0  0  0
    3.3419    2.2524    0.0000 C   0  0  0  0  0  0  0  0  0  0  0  0
    3.2772    0.7538    0.0000 C   0  0  0  0  0  0  0  0  0  0  0  0
    2.0117    1.5591    0.0000 C   0  0  0  0  0  0  0  0  0  0  0  0
    1.9470    0.0605    0.0000 C   0  0  0  0  0  0  0  0  0  0  0  0
    0.6815    0.8658    0.0000 C   0  0  0  0  0  0  0  0  0  0  0  0
   -0.6486    0.1725    0.0000 C   0  0  0  0  0  0  0  0  0  0  0  0
   -0.7133   -1.3261    0.0000 C   0  0  0  0  0  0  0  0  0  0  0  0
   -2.0560   -0.6574    0.0000 C   0  0  0  0  0  0  0  0  0  0  0  0
  2  1  1  6
  2  3  1  0
  3  4  1  0
  4  5  1  0
  5  6  2  0
  5  7  1  0
  7  8  2  0
  7  9  2  0
  7 10  1  0
  2 11  1  0
 11 12  1  6
 12 13  1  0
 14 13  1  6
 14 15  1  0
 15 16  1  1
 16 17  2  0
 16 18  1  0
 19 18  1  1
 19 20  1  0
 20 21  1  0
 21 22  1  1
 21 23  1  0
 23 24  1  0
 24 25  1  0
 25 26  1  6
 25 27  1  0
 27 28  1  6
 28 29  1  0
 29 30  1  0
 30 31  1  6
 30 11  1  0
 30 14  1  0
 27 15  1  0
 25 19  1  0
M  END
>  <MS_ID>  (2662) 
MS2753

>  <SMILES>  (2662) 
C[C@H](CCC(=O)S(=O)(=O)O)[C@H]1CC[C@H]2[C@@H]3C(=O)C[C@@H]4C[C@H](O)CC[C@]4(C)[C@H]3CC[C@]12C

>  <Structure_dimension>  (2662) 
2D

$$$$
MS2754
     RDKit          2D

 37 41  0  0  0  0  0  0  0  0999 V2000
   -1.4739   -4.1062    0.0000 C   0  0  0  0  0  0  0  0  0  0  0  0
   -0.7139   -2.8129    0.0000 C   0  0  0  0  0  0  0  0  0  0  0  0
   -1.4539   -1.5082    0.0000 C   0  0  0  0  0  0  0  0  0  0  0  0
   -2.9539   -1.4966    0.0000 C   0  0  0  0  0  0  0  0  0  0  0  0
   -3.6939   -0.1919    0.0000 C   0  0  0  0  0  0  0  0  0  0  0  0
   -2.9339    1.1014    0.0000 O   0  0  0  0  0  0  0  0  0  0  0  0
   -5.1938   -0.1803    0.0000 O   0  0  0  0  0  0  0  0  0  0  0  0
   -5.9338    1.1245    0.0000 C   0  0  0  0  0  0  0  0  0  0  0  0
   -7.4337    1.1360    0.0000 C   0  0  0  0  0  0  0  0  0  0  0  0
   -8.1737    2.4408    0.0000 C   0  0  0  0  0  0  0  0  0  0  0  0
   -9.6737    2.4523    0.0000 C   0  0  0  0  0  0  0  0  0  0  0  0
  -10.4336    1.1591    0.0000 C   0  0  0  0  0  0  0  0  0  0  0  0
  -11.9336    1.1707    0.0000 N   0  0  0  0  0  0  0  0  0  0  0  0
   -9.6937   -0.1457    0.0000 C   0  0  0  0  0  0  0  0  0  0  0  0
   -8.1937   -0.1572    0.0000 C   0  0  0  0  0  0  0  0  0  0  0  0
    0.7860   -2.8245    0.0000 C   0  0  0  0  0  0  0  0  0  0  0  0
    1.6583   -4.0448    0.0000 C   0  0  0  0  0  0  0  0  0  0  0  0
    3.0884   -3.5922    0.0000 C   0  0  0  0  0  0  0  0  0  0  0  0
    3.1000   -2.0923    0.0000 C   0  0  0  0  0  0  0  0  0  0  0  0
    4.2224   -1.0972    0.0000 C   0  0  0  0  0  0  0  0  0  0  0  0
    5.6454   -1.5717    0.0000 C   0  0  0  0  0  0  0  0  0  0  0  0
    5.9459   -3.0413    0.0000 O   0  0  0  0  0  0  0  0  0  0  0  0
    6.7678   -0.5766    0.0000 C   0  0  0  0  0  0  0  0  0  0  0  0
    6.4672    0.8930    0.0000 C   0  0  0  0  0  0  0  0  0  0  0  0
    7.5896    1.8880    0.0000 C   0  0  0  0  0  0  0  0  0  0  0  0
    7.2891    3.3576    0.0000 C   0  0  0  0  0  0  0  0  0  0  0  0
    8.4115    4.3527    0.0000 O   0  0  0  0  0  0  0  0  0  0  0  0
    5.8661    3.8321    0.0000 C   0  0  0  0  0  0  0  0  0  0  0  0
    4.7437    2.8370    0.0000 C   0  0  0  0  0  0  0  0  0  0  0  0
    5.0442    1.3675    0.0000 C   0  0  0  0  0  0  0  0  0  0  0  0
    3.6213    1.8420    0.0000 C   0  0  0  0  0  0  0  0  0  0  0  0
    3.9218    0.3724    0.0000 C   0  0  0  0  0  0  0  0  0  0  0  0
    2.4989    0.8469    0.0000 C   0  0  0  0  0  0  0  0  0  0  0  0
    1.3764   -0.1482    0.0000 C   0  0  0  0  0  0  0  0  0  0  0  0
   -0.0465    0.3263    0.0000 O   0  0  0  0  0  0  0  0  0  0  0  0
    1.6770   -1.6178    0.0000 C   0  0  0  0  0  0  0  0  0  0  0  0
    0.2122   -1.2946    0.0000 C   0  0  0  0  0  0  0  0  0  0  0  0
  2  1  1  6
  2  3  1  0
  3  4  1  0
  4  5  1  0
  5  6  2  0
  5  7  1  0
  7  8  1  0
  8  9  1  0
  9 10  2  0
 10 11  1  0
 11 12  2  0
 12 13  1  0
 12 14  1  0
 14 15  2  0
  2 16  1  0
 16 17  1  6
 17 18  1  0
 19 18  1  6
 19 20  1  0
 20 21  1  1
 21 22  1  1
 21 23  1  0
 24 23  1  1
 24 25  1  0
 25 26  1  0
 26 27  1  1
 26 28  1  0
 28 29  1  0
 29 30  1  0
 30 31  1  6
 30 32  1  0
 32 33  1  6
 33 34  1  0
 34 35  1  1
 34 36  1  0
 36 37  1  6
 15  9  1  0
 36 16  1  0
 36 19  1  0
 32 20  1  0
 30 24  1  0
M  END
>  <MS_ID>  (2663) 
MS2754

>  <SMILES>  (2663) 
C[C@H](CCC(=O)OCc1ccc(N)cc1)[C@H]1CC[C@H]2[C@@H]3[C@H](O)C[C@@H]4C[C@H](O)CC[C@]4(C)[C@H]3C[C@H](O)[C@]12C

>  <Structure_dimension>  (2663) 
2D

$$$$
MS2755
     RDKit          2D

 29 32  0  0  0  0  0  0  0  0999 V2000
   -4.9165   -2.3086    0.0000 C   0  0  0  0  0  0  0  0  0  0  0  0
   -3.7338   -1.3860    0.0000 C   0  0  0  0  0  0  0  0  0  0  0  0
   -3.9415    0.0996    0.0000 C   0  0  0  0  0  0  0  0  0  0  0  0
   -5.3319    0.6625    0.0000 C   0  0  0  0  0  0  0  0  0  0  0  0
   -5.5396    2.1481    0.0000 C   0  0  0  0  0  0  0  0  0  0  0  0
   -4.3569    3.0707    0.0000 O   0  0  0  0  0  0  0  0  0  0  0  0
   -6.9299    2.7110    0.0000 O   0  0  0  0  0  0  0  0  0  0  0  0
   -2.3435   -1.9489    0.0000 C   0  0  0  0  0  0  0  0  0  0  0  0
   -1.9816   -3.4046    0.0000 C   0  0  0  0  0  0  0  0  0  0  0  0
   -0.4854   -3.5103    0.0000 C   0  0  0  0  0  0  0  0  0  0  0  0
    0.0775   -2.1199    0.0000 C   0  0  0  0  0  0  0  0  0  0  0  0
    1.4875   -1.6079    0.0000 C   0  0  0  0  0  0  0  0  0  0  0  0
    2.6358   -2.5730    0.0000 C   0  0  0  0  0  0  0  0  0  0  0  0
    4.0457   -2.0609    0.0000 C   0  0  0  0  0  0  0  0  0  0  0  0
    4.3073   -0.5839    0.0000 C   0  0  0  0  0  0  0  0  0  0  0  0
    5.7172   -0.0719    0.0000 C   0  0  0  0  0  0  0  0  0  0  0  0
    5.9787    1.4051    0.0000 C   0  0  0  0  0  0  0  0  0  0  0  0
    7.3886    1.9171    0.0000 O   0  0  0  0  0  0  0  0  0  0  0  0
    4.8304    2.3701    0.0000 C   0  0  0  0  0  0  0  0  0  0  0  0
    3.4205    1.8581    0.0000 C   0  0  0  0  0  0  0  0  0  0  0  0
    3.1589    0.3811    0.0000 C   0  0  0  0  0  0  0  0  0  0  0  0
    2.0105    1.3461    0.0000 C   0  0  0  0  0  0  0  0  0  0  0  0
    1.7490   -0.1309    0.0000 C   0  0  0  0  0  0  0  0  0  0  0  0
    0.6006    0.8341    0.0000 C   0  0  0  0  0  0  0  0  0  0  0  0
   -0.8093    0.3221    0.0000 C   0  0  0  0  0  0  0  0  0  0  0  0
   -1.9576    1.2871    0.0000 C   0  0  0  0  0  0  0  0  0  0  0  0
   -1.6961    2.7641    0.0000 O   0  0  0  0  0  0  0  0  0  0  0  0
   -1.0708   -1.1549    0.0000 C   0  0  0  0  0  0  0  0  0  0  0  0
   -2.3138   -0.3152    0.0000 C   0  0  0  0  0  0  0  0  0  0  0  0
  2  1  1  6
  2  3  1  0
  3  4  1  0
  4  5  1  0
  5  6  2  0
  5  7  1  0
  2  8  1  0
  8  9  1  6
  9 10  1  0
 11 10  1  6
 11 12  1  0
 12 13  1  1
 13 14  1  0
 15 14  1  1
 15 16  1  0
 16 17  1  0
 17 18  1  1
 17 19  1  0
 19 20  1  0
 20 21  1  0
 21 22  1  6
 21 23  1  0
 23 24  1  6
 24 25  1  0
 25 26  1  6
 26 27  1  0
 25 28  1  0
 28 29  1  6
 28  8  1  0
 28 11  1  0
 23 12  1  0
 21 15  1  0
M  END
>  <MS_ID>  (2664) 
MS2755

>  <SMILES>  (2664) 
C[C@H](CCC(=O)O)[C@H]1CC[C@H]2[C@@H]3CC[C@@H]4C[C@H](O)CC[C@]4(C)[C@H]3C[C@@H](CO)[C@]12C

>  <Structure_dimension>  (2664) 
2D

$$$$
MS2756
     RDKit          2D

 30 33  0  0  0  0  0  0  0  0999 V2000
   -5.1126   -2.2702    0.0000 C   0  0  0  0  0  0  0  0  0  0  0  0
   -4.0463   -1.2153    0.0000 C   0  0  0  0  0  0  0  0  0  0  0  0
   -4.4268    0.2357    0.0000 C   0  0  0  0  0  0  0  0  0  0  0  0
   -5.8736    0.6316    0.0000 C   0  0  0  0  0  0  0  0  0  0  0  0
   -6.2540    2.0826    0.0000 C   0  0  0  0  0  0  0  0  0  0  0  0
   -5.1877    3.1376    0.0000 O   0  0  0  0  0  0  0  0  0  0  0  0
   -7.7008    2.4786    0.0000 O   0  0  0  0  0  0  0  0  0  0  0  0
   -2.5995   -1.6113    0.0000 C   0  0  0  0  0  0  0  0  0  0  0  0
   -2.0695   -3.0145    0.0000 C   0  0  0  0  0  0  0  0  0  0  0  0
   -0.5711   -2.9440    0.0000 C   0  0  0  0  0  0  0  0  0  0  0  0
   -0.1751   -1.4972    0.0000 C   0  0  0  0  0  0  0  0  0  0  0  0
    1.1650   -0.8234    0.0000 C   0  0  0  0  0  0  0  0  0  0  0  0
    2.4186   -1.6471    0.0000 C   0  0  0  0  0  0  0  0  0  0  0  0
    2.3321   -3.1446    0.0000 O   0  0  0  0  0  0  0  0  0  0  0  0
    3.5857   -3.9682    0.0000 C   0  0  0  0  0  0  0  0  0  0  0  0
    3.4992   -5.4657    0.0000 O   0  0  0  0  0  0  0  0  0  0  0  0
    3.7587   -0.9732    0.0000 C   0  0  0  0  0  0  0  0  0  0  0  0
    3.8453    0.5243    0.0000 C   0  0  0  0  0  0  0  0  0  0  0  0
    5.1854    1.1981    0.0000 C   0  0  0  0  0  0  0  0  0  0  0  0
    5.2719    2.6956    0.0000 C   0  0  0  0  0  0  0  0  0  0  0  0
    6.6121    3.3694    0.0000 O   0  0  0  0  0  0  0  0  0  0  0  0
    4.0183    3.5193    0.0000 C   0  0  0  0  0  0  0  0  0  0  0  0
    2.6782    2.8454    0.0000 C   0  0  0  0  0  0  0  0  0  0  0  0
    2.5917    1.3479    0.0000 C   0  0  0  0  0  0  0  0  0  0  0  0
    1.3380    2.1716    0.0000 C   0  0  0  0  0  0  0  0  0  0  0  0
    1.2515    0.6741    0.0000 C   0  0  0  0  0  0  0  0  0  0  0  0
   -0.0021    1.4978    0.0000 C   0  0  0  0  0  0  0  0  0  0  0  0
   -1.3422    0.8240    0.0000 C   0  0  0  0  0  0  0  0  0  0  0  0
   -1.4288   -0.6735    0.0000 C   0  0  0  0  0  0  0  0  0  0  0  0
   -2.7616    0.0146    0.0000 C   0  0  0  0  0  0  0  0  0  0  0  0
  2  1  1  6
  2  3  1  0
  3  4  1  0
  4  5  1  0
  5  6  2  0
  5  7  1  0
  2  8  1  0
  8  9  1  6
  9 10  1  0
 11 10  1  6
 11 12  1  0
 12 13  1  1
 13 14  1  6
 14 15  1  0
 15 16  2  0
 13 17  1  0
 18 17  1  1
 18 19  1  0
 19 20  1  0
 20 21  1  1
 20 22  1  0
 22 23  1  0
 23 24  1  0
 24 25  1  6
 24 26  1  0
 26 27  1  6
 27 28  1  0
 28 29  1  0
 29 30  1  6
 29  8  1  0
 29 11  1  0
 26 12  1  0
 24 18  1  0
M  END
>  <MS_ID>  (2665) 
MS2756

>  <SMILES>  (2665) 
C[C@H](CCC(=O)O)[C@H]1CC[C@H]2[C@@H]3[C@@H](OC=O)C[C@@H]4C[C@H](O)CC[C@]4(C)[C@H]3CC[C@]12C

>  <Structure_dimension>  (2665) 
2D

$$$$
MS2757
     RDKit          2D

 36 40  0  0  0  0  0  0  0  0999 V2000
   -2.0625   -4.0210    0.0000 C   0  0  0  0  0  0  0  0  0  0  0  0
   -1.2935   -2.7331    0.0000 C   0  0  0  0  0  0  0  0  0  0  0  0
   -2.0243   -1.4232    0.0000 C   0  0  0  0  0  0  0  0  0  0  0  0
   -3.5241   -1.4011    0.0000 C   0  0  0  0  0  0  0  0  0  0  0  0
   -4.2549   -0.0912    0.0000 C   0  0  0  0  0  0  0  0  0  0  0  0
   -3.4858    1.1967    0.0000 O   0  0  0  0  0  0  0  0  0  0  0  0
   -5.7547   -0.0691    0.0000 C   0  0  0  0  0  0  0  0  0  0  0  0
   -6.4855    1.2409    0.0000 O   0  0  0  0  0  0  0  0  0  0  0  0
   -7.9854    1.2630    0.0000 C   0  0  0  0  0  0  0  0  0  0  0  0
   -8.7161    2.5729    0.0000 C   0  0  0  0  0  0  0  0  0  0  0  0
  -10.2160    2.5950    0.0000 C   0  0  0  0  0  0  0  0  0  0  0  0
  -10.9850    1.3071    0.0000 C   0  0  0  0  0  0  0  0  0  0  0  0
  -10.2542   -0.0028    0.0000 C   0  0  0  0  0  0  0  0  0  0  0  0
   -8.7544   -0.0249    0.0000 N   0  0  0  0  0  0  0  0  0  0  0  0
    0.2063   -2.7552    0.0000 C   0  0  0  0  0  0  0  0  0  0  0  0
    1.0701   -3.9816    0.0000 C   0  0  0  0  0  0  0  0  0  0  0  0
    2.5033   -3.5392    0.0000 C   0  0  0  0  0  0  0  0  0  0  0  0
    2.5254   -2.0393    0.0000 C   0  0  0  0  0  0  0  0  0  0  0  0
    3.6548   -1.0521    0.0000 C   0  0  0  0  0  0  0  0  0  0  0  0
    5.0744   -1.5366    0.0000 C   0  0  0  0  0  0  0  0  0  0  0  0
    5.3646   -3.0083    0.0000 O   0  0  0  0  0  0  0  0  0  0  0  0
    6.2038   -0.5495    0.0000 C   0  0  0  0  0  0  0  0  0  0  0  0
    7.6234   -1.0339    0.0000 O   0  0  0  0  0  0  0  0  0  0  0  0
    5.9135    0.9222    0.0000 C   0  0  0  0  0  0  0  0  0  0  0  0
    7.0429    1.9094    0.0000 C   0  0  0  0  0  0  0  0  0  0  0  0
    6.7527    3.3810    0.0000 C   0  0  0  0  0  0  0  0  0  0  0  0
    7.8821    4.3682    0.0000 O   0  0  0  0  0  0  0  0  0  0  0  0
    5.3331    3.8655    0.0000 C   0  0  0  0  0  0  0  0  0  0  0  0
    4.2037    2.8783    0.0000 C   0  0  0  0  0  0  0  0  0  0  0  0
    4.4939    1.4067    0.0000 C   0  0  0  0  0  0  0  0  0  0  0  0
    3.0743    1.8912    0.0000 C   0  0  0  0  0  0  0  0  0  0  0  0
    3.3646    0.4195    0.0000 C   0  0  0  0  0  0  0  0  0  0  0  0
    1.9450    0.9040    0.0000 C   0  0  0  0  0  0  0  0  0  0  0  0
    0.8156   -0.0832    0.0000 C   0  0  0  0  0  0  0  0  0  0  0  0
    1.1058   -1.5548    0.0000 C   0  0  0  0  0  0  0  0  0  0  0  0
   -0.3567   -1.2214    0.0000 C   0  0  0  0  0  0  0  0  0  0  0  0
  2  1  1  6
  2  3  1  0
  3  4  1  0
  4  5  1  0
  5  6  2  0
  5  7  1  0
  7  8  1  0
  8  9  1  0
  9 10  2  0
 10 11  1  0
 11 12  2  0
 12 13  1  0
 13 14  2  0
  2 15  1  0
 15 16  1  6
 16 17  1  0
 18 17  1  6
 18 19  1  0
 19 20  1  1
 20 21  1  1
 20 22  1  0
 22 23  1  1
 22 24  1  0
 24 25  1  1
 25 26  1  0
 26 27  1  1
 26 28  1  0
 28 29  1  0
 29 30  1  0
 30 31  1  6
 30 32  1  0
 32 33  1  6
 33 34  1  0
 34 35  1  0
 35 36  1  6
 14  9  1  0
 35 15  1  0
 35 18  1  0
 32 19  1  0
 30 24  1  0
M  END
>  <MS_ID>  (2666) 
MS2757

>  <SMILES>  (2666) 
C[C@H](CCC(=O)COc1ccccn1)[C@H]1CC[C@H]2[C@@H]3[C@H](O)[C@H](O)[C@@H]4C[C@H](O)CC[C@]4(C)[C@H]3CC[C@]12C

>  <Structure_dimension>  (2666) 
2D

$$$$
MS2758
     RDKit          2D

 33 36  0  0  0  0  0  0  0  0999 V2000
  -11.0589    2.8983    0.0000 C   0  0  0  0  0  0  0  0  0  0  0  0
   -9.5600    2.8405    0.0000 O   0  0  0  0  0  0  0  0  0  0  0  0
   -8.8607    1.5135    0.0000 C   0  0  0  0  0  0  0  0  0  0  0  0
   -7.3618    1.4556    0.0000 C   0  0  0  0  0  0  0  0  0  0  0  0
   -6.6625    0.1286    0.0000 N   0  0  0  0  0  0  0  0  0  0  0  0
   -5.1636    0.0708    0.0000 C   0  0  0  0  0  0  0  0  0  0  0  0
   -4.3640    1.3399    0.0000 O   0  0  0  0  0  0  0  0  0  0  0  0
   -4.4642   -1.2562    0.0000 C   0  0  0  0  0  0  0  0  0  0  0  0
   -2.9654   -1.3141    0.0000 C   0  0  0  0  0  0  0  0  0  0  0  0
   -2.2660   -2.6411    0.0000 C   0  0  0  0  0  0  0  0  0  0  0  0
   -3.0656   -3.9102    0.0000 C   0  0  0  0  0  0  0  0  0  0  0  0
   -0.7671   -2.6989    0.0000 C   0  0  0  0  0  0  0  0  0  0  0  0
    0.0671   -3.9456    0.0000 C   0  0  0  0  0  0  0  0  0  0  0  0
    1.5105   -3.5374    0.0000 C   0  0  0  0  0  0  0  0  0  0  0  0
    1.5683   -2.0385    0.0000 C   0  0  0  0  0  0  0  0  0  0  0  0
    2.7209   -1.0786    0.0000 C   0  0  0  0  0  0  0  0  0  0  0  0
    4.1286   -1.5968    0.0000 C   0  0  0  0  0  0  0  0  0  0  0  0
    4.3836   -3.0749    0.0000 O   0  0  0  0  0  0  0  0  0  0  0  0
    5.2812   -0.6368    0.0000 C   0  0  0  0  0  0  0  0  0  0  0  0
    6.6888   -1.1550    0.0000 O   0  0  0  0  0  0  0  0  0  0  0  0
    5.0261    0.8413    0.0000 C   0  0  0  0  0  0  0  0  0  0  0  0
    6.1787    1.8013    0.0000 C   0  0  0  0  0  0  0  0  0  0  0  0
    5.9237    3.2795    0.0000 C   0  0  0  0  0  0  0  0  0  0  0  0
    7.0763    4.2394    0.0000 O   0  0  0  0  0  0  0  0  0  0  0  0
    4.5160    3.7977    0.0000 C   0  0  0  0  0  0  0  0  0  0  0  0
    3.3634    2.8377    0.0000 C   0  0  0  0  0  0  0  0  0  0  0  0
    3.6185    1.3595    0.0000 C   0  0  0  0  0  0  0  0  0  0  0  0
    2.2108    1.8777    0.0000 C   0  0  0  0  0  0  0  0  0  0  0  0
    2.4659    0.3996    0.0000 C   0  0  0  0  0  0  0  0  0  0  0  0
    1.0582    0.9178    0.0000 C   0  0  0  0  0  0  0  0  0  0  0  0
   -0.0944   -0.0422    0.0000 C   0  0  0  0  0  0  0  0  0  0  0  0
    0.1607   -1.5203    0.0000 C   0  0  0  0  0  0  0  0  0  0  0  0
   -1.2934   -1.1521    0.0000 C   0  0  0  0  0  0  0  0  0  0  0  0
  1  2  1  0
  2  3  1  0
  3  4  1  0
  4  5  1  0
  5  6  1  0
  6  7  2  0
  6  8  1  0
  8  9  1  0
  9 10  1  0
 10 11  1  6
 10 12  1  0
 12 13  1  6
 13 14  1  0
 15 14  1  6
 15 16  1  0
 16 17  1  1
 17 18  1  1
 17 19  1  0
 19 20  1  1
 19 21  1  0
 21 22  1  1
 22 23  1  0
 23 24  1  1
 23 25  1  0
 25 26  1  0
 26 27  1  0
 27 28  1  6
 27 29  1  0
 29 30  1  6
 30 31  1  0
 31 32  1  0
 32 33  1  6
 32 12  1  0
 32 15  1  0
 29 16  1  0
 27 21  1  0
M  END
>  <MS_ID>  (2667) 
MS2758

>  <SMILES>  (2667) 
COCCNC(=O)CC[C@@H](C)[C@H]1CC[C@H]2[C@@H]3[C@H](O)[C@H](O)[C@@H]4C[C@H](O)CC[C@]4(C)[C@H]3CC[C@]12C

>  <Structure_dimension>  (2667) 
2D

$$$$
MS2759
     RDKit          2D

 41 45  0  0  0  0  0  0  0  0999 V2000
    0.0362   -4.8978    0.0000 C   0  0  0  0  0  0  0  0  0  0  0  0
    0.5406   -3.4852    0.0000 C   0  0  0  0  0  0  0  0  0  0  0  0
   -0.4305   -2.3420    0.0000 C   0  0  0  0  0  0  0  0  0  0  0  0
   -1.9061   -2.6115    0.0000 C   0  0  0  0  0  0  0  0  0  0  0  0
   -2.8773   -1.4683    0.0000 C   0  0  0  0  0  0  0  0  0  0  0  0
   -2.3728   -0.0557    0.0000 O   0  0  0  0  0  0  0  0  0  0  0  0
   -4.3529   -1.7378    0.0000 N   0  0  0  0  0  0  0  0  0  0  0  0
   -5.3240   -0.5946    0.0000 C   0  0  0  0  0  0  0  0  0  0  0  0
   -4.8196    0.8181    0.0000 C   0  0  0  0  0  0  0  0  0  0  0  0
   -5.7908    1.9612    0.0000 C   0  0  0  0  0  0  0  0  0  0  0  0
   -7.2664    1.6918    0.0000 C   0  0  0  0  0  0  0  0  0  0  0  0
   -8.2375    2.8349    0.0000 C   0  0  0  0  0  0  0  0  0  0  0  0
   -9.7131    2.5655    0.0000 O   0  0  0  0  0  0  0  0  0  0  0  0
   -7.7331    4.2476    0.0000 O   0  0  0  0  0  0  0  0  0  0  0  0
   -7.7708    0.2791    0.0000 C   0  0  0  0  0  0  0  0  0  0  0  0
   -9.2464    0.0097    0.0000 C   0  0  0  0  0  0  0  0  0  0  0  0
  -10.2176    1.1528    0.0000 O   0  0  0  0  0  0  0  0  0  0  0  0
   -9.7508   -1.4030    0.0000 O   0  0  0  0  0  0  0  0  0  0  0  0
   -6.7996   -0.8641    0.0000 C   0  0  0  0  0  0  0  0  0  0  0  0
    2.0162   -3.2157    0.0000 C   0  0  0  0  0  0  0  0  0  0  0  0
    3.1016   -4.2511    0.0000 C   0  0  0  0  0  0  0  0  0  0  0  0
    4.4217   -3.5388    0.0000 C   0  0  0  0  0  0  0  0  0  0  0  0
    4.1522   -2.0632    0.0000 C   0  0  0  0  0  0  0  0  0  0  0  0
    5.0685   -0.8756    0.0000 C   0  0  0  0  0  0  0  0  0  0  0  0
    6.5551   -1.0753    0.0000 C   0  0  0  0  0  0  0  0  0  0  0  0
    7.1255   -2.4627    0.0000 O   0  0  0  0  0  0  0  0  0  0  0  0
    7.4714    0.1123    0.0000 C   0  0  0  0  0  0  0  0  0  0  0  0
    6.9010    1.4996    0.0000 C   0  0  0  0  0  0  0  0  0  0  0  0
    7.8173    2.6872    0.0000 C   0  0  0  0  0  0  0  0  0  0  0  0
    7.2470    4.0746    0.0000 C   0  0  0  0  0  0  0  0  0  0  0  0
    8.1632    5.2622    0.0000 O   0  0  0  0  0  0  0  0  0  0  0  0
    5.7603    4.2743    0.0000 C   0  0  0  0  0  0  0  0  0  0  0  0
    4.8440    3.0867    0.0000 C   0  0  0  0  0  0  0  0  0  0  0  0
    5.4144    1.6993    0.0000 C   0  0  0  0  0  0  0  0  0  0  0  0
    3.9278    1.8990    0.0000 C   0  0  0  0  0  0  0  0  0  0  0  0
    4.4981    0.5117    0.0000 C   0  0  0  0  0  0  0  0  0  0  0  0
    3.0115    0.7114    0.0000 C   0  0  0  0  0  0  0  0  0  0  0  0
    2.0952   -0.4762    0.0000 C   0  0  0  0  0  0  0  0  0  0  0  0
    0.6086   -0.2765    0.0000 O   0  0  0  0  0  0  0  0  0  0  0  0
    2.6656   -1.8635    0.0000 C   0  0  0  0  0  0  0  0  0  0  0  0
    1.1662   -1.8203    0.0000 C   0  0  0  0  0  0  0  0  0  0  0  0
  2  1  1  6
  2  3  1  0
  3  4  1  0
  4  5  1  0
  5  6  2  0
  5  7  1  0
  7  8  1  0
  8  9  2  0
  9 10  1  0
 10 11  2  0
 11 12  1  0
 12 13  2  0
 12 14  1  0
 11 15  1  0
 15 16  1  0
 16 17  2  0
 16 18  1  0
 15 19  2  0
  2 20  1  0
 20 21  1  6
 21 22  1  0
 23 22  1  6
 23 24  1  0
 24 25  1  1
 25 26  1  1
 25 27  1  0
 28 27  1  1
 28 29  1  0
 29 30  1  0
 30 31  1  1
 30 32  1  0
 32 33  1  0
 33 34  1  0
 34 35  1  6
 34 36  1  0
 36 37  1  6
 37 38  1  0
 38 39  1  1
 38 40  1  0
 40 41  1  6
 19  8  1  0
 40 20  1  0
 40 23  1  0
 36 24  1  0
 34 28  1  0
M  END
>  <MS_ID>  (2668) 
MS2759

>  <SMILES>  (2668) 
C[C@H](CCC(=O)Nc1ccc(C(=O)O)c(C(=O)O)c1)[C@H]1CC[C@H]2[C@@H]3[C@H](O)C[C@@H]4C[C@H](O)CC[C@]4(C)[C@H]3C[C@H](O)[C@]12C

>  <Structure_dimension>  (2668) 
2D

$$$$
MS2760
     RDKit          2D

 29 32  0  0  0  0  0  0  0  0999 V2000
   -7.1069    2.8565    0.0000 C   0  0  0  0  0  0  0  0  0  0  0  0
   -5.7095    2.3112    0.0000 C   0  0  0  0  0  0  0  0  0  0  0  0
   -4.5386    3.2487    0.0000 O   0  0  0  0  0  0  0  0  0  0  0  0
   -5.4831    0.8284    0.0000 C   0  0  0  0  0  0  0  0  0  0  0  0
   -4.0858    0.2830    0.0000 C   0  0  0  0  0  0  0  0  0  0  0  0
   -3.8594   -1.1998    0.0000 C   0  0  0  0  0  0  0  0  0  0  0  0
   -5.0303   -2.1373    0.0000 C   0  0  0  0  0  0  0  0  0  0  0  0
   -2.4620   -1.7451    0.0000 C   0  0  0  0  0  0  0  0  0  0  0  0
   -2.0818   -3.1961    0.0000 C   0  0  0  0  0  0  0  0  0  0  0  0
   -0.5844   -3.2830    0.0000 C   0  0  0  0  0  0  0  0  0  0  0  0
   -0.0390   -1.8856    0.0000 C   0  0  0  0  0  0  0  0  0  0  0  0
    1.3643   -1.3559    0.0000 C   0  0  0  0  0  0  0  0  0  0  0  0
    2.5248   -2.3063    0.0000 C   0  0  0  0  0  0  0  0  0  0  0  0
    2.2819   -3.7865    0.0000 O   0  0  0  0  0  0  0  0  0  0  0  0
    3.9281   -1.7765    0.0000 C   0  0  0  0  0  0  0  0  0  0  0  0
    4.1710   -0.2963    0.0000 C   0  0  0  0  0  0  0  0  0  0  0  0
    5.5743    0.2334    0.0000 C   0  0  0  0  0  0  0  0  0  0  0  0
    5.8172    1.7136    0.0000 C   0  0  0  0  0  0  0  0  0  0  0  0
    7.2205    2.2434    0.0000 O   0  0  0  0  0  0  0  0  0  0  0  0
    4.6568    2.6641    0.0000 C   0  0  0  0  0  0  0  0  0  0  0  0
    3.2534    2.1343    0.0000 C   0  0  0  0  0  0  0  0  0  0  0  0
    3.0105    0.6541    0.0000 C   0  0  0  0  0  0  0  0  0  0  0  0
    1.8501    1.6046    0.0000 C   0  0  0  0  0  0  0  0  0  0  0  0
    1.6072    0.1244    0.0000 C   0  0  0  0  0  0  0  0  0  0  0  0
    0.4467    1.0748    0.0000 C   0  0  0  0  0  0  0  0  0  0  0  0
   -0.9566    0.5450    0.0000 C   0  0  0  0  0  0  0  0  0  0  0  0
   -2.1170    1.4955    0.0000 O   0  0  0  0  0  0  0  0  0  0  0  0
   -1.1995   -0.9352    0.0000 C   0  0  0  0  0  0  0  0  0  0  0  0
   -2.4529   -0.1112    0.0000 C   0  0  0  0  0  0  0  0  0  0  0  0
  1  2  1  0
  2  3  2  0
  2  4  1  0
  4  5  1  0
  5  6  1  0
  6  7  1  6
  6  8  1  0
  8  9  1  6
  9 10  1  0
 11 10  1  6
 11 12  1  0
 12 13  1  1
 13 14  1  1
 13 15  1  0
 16 15  1  1
 16 17  1  0
 17 18  1  0
 18 19  1  6
 18 20  1  0
 20 21  1  0
 21 22  1  0
 22 23  1  6
 22 24  1  0
 24 25  1  6
 25 26  1  0
 26 27  1  1
 26 28  1  0
 28 29  1  6
 28  8  1  0
 28 11  1  0
 24 12  1  0
 22 16  1  0
M  END
>  <MS_ID>  (2669) 
MS2760

>  <SMILES>  (2669) 
CC(=O)CC[C@@H](C)[C@H]1CC[C@H]2[C@@H]3[C@H](O)C[C@@H]4C[C@@H](O)CC[C@]4(C)[C@H]3C[C@H](O)[C@]12C

>  <Structure_dimension>  (2669) 
2D

$$$$
MS2761
     RDKit          2D

 31 34  0  0  0  0  0  0  0  0999 V2000
   -2.2822   -3.8481    0.0000 C   0  0  0  0  0  0  0  0  0  0  0  0
   -1.4686   -2.5879    0.0000 C   0  0  0  0  0  0  0  0  0  0  0  0
   -2.1532   -1.2532    0.0000 C   0  0  0  0  0  0  0  0  0  0  0  0
   -3.6514   -1.1788    0.0000 C   0  0  0  0  0  0  0  0  0  0  0  0
   -4.3360    0.1559    0.0000 C   0  0  0  0  0  0  0  0  0  0  0  0
   -3.5224    1.4161    0.0000 O   0  0  0  0  0  0  0  0  0  0  0  0
   -5.8341    0.2304    0.0000 C   0  0  0  0  0  0  0  0  0  0  0  0
   -6.5187    1.5650    0.0000 O   0  0  0  0  0  0  0  0  0  0  0  0
   -8.0169    1.6395    0.0000 S   0  0  0  0  0  0  0  0  0  0  0  0
   -8.0913    0.1413    0.0000 O   0  0  0  0  0  0  0  0  0  0  0  0
   -7.9424    3.1376    0.0000 O   0  0  0  0  0  0  0  0  0  0  0  0
   -9.5150    1.7139    0.0000 O   0  0  0  0  0  0  0  0  0  0  0  0
    0.0295   -2.6623    0.0000 C   0  0  0  0  0  0  0  0  0  0  0  0
    0.8499   -3.9181    0.0000 C   0  0  0  0  0  0  0  0  0  0  0  0
    2.2977   -3.5260    0.0000 C   0  0  0  0  0  0  0  0  0  0  0  0
    2.3722   -2.0278    0.0000 C   0  0  0  0  0  0  0  0  0  0  0  0
    3.5353   -1.0807    0.0000 C   0  0  0  0  0  0  0  0  0  0  0  0
    4.9372   -1.6145    0.0000 C   0  0  0  0  0  0  0  0  0  0  0  0
    6.1003   -0.6673    0.0000 C   0  0  0  0  0  0  0  0  0  0  0  0
    5.8617    0.8135    0.0000 C   0  0  0  0  0  0  0  0  0  0  0  0
    7.0248    1.7607    0.0000 C   0  0  0  0  0  0  0  0  0  0  0  0
    6.7862    3.2416    0.0000 C   0  0  0  0  0  0  0  0  0  0  0  0
    5.3844    3.7753    0.0000 C   0  0  0  0  0  0  0  0  0  0  0  0
    4.2212    2.8282    0.0000 C   0  0  0  0  0  0  0  0  0  0  0  0
    4.4598    1.3473    0.0000 C   0  0  0  0  0  0  0  0  0  0  0  0
    3.0580    1.8811    0.0000 C   0  0  0  0  0  0  0  0  0  0  0  0
    3.2967    0.4002    0.0000 C   0  0  0  0  0  0  0  0  0  0  0  0
    1.8949    0.9340    0.0000 C   0  0  0  0  0  0  0  0  0  0  0  0
    0.7317   -0.0132    0.0000 C   0  0  0  0  0  0  0  0  0  0  0  0
    0.9704   -1.4941    0.0000 C   0  0  0  0  0  0  0  0  0  0  0  0
   -0.4796   -1.1098    0.0000 C   0  0  0  0  0  0  0  0  0  0  0  0
  2  1  1  6
  2  3  1  0
  3  4  1  0
  4  5  1  0
  5  6  2  0
  5  7  1  0
  7  8  1  0
  8  9  1  0
  9 10  2  0
  9 11  2  0
  9 12  1  0
  2 13  1  0
 13 14  1  6
 14 15  1  0
 16 15  1  6
 16 17  1  0
 17 18  1  1
 18 19  1  0
 20 19  1  1
 20 21  1  0
 21 22  1  0
 22 23  1  0
 23 24  1  0
 24 25  1  0
 25 26  1  6
 25 27  1  0
 27 28  1  6
 28 29  1  0
 29 30  1  0
 30 31  1  6
 30 13  1  0
 30 16  1  0
 27 17  1  0
 25 20  1  0
M  END
>  <MS_ID>  (2670) 
MS2761

>  <SMILES>  (2670) 
C[C@H](CCC(=O)COS(=O)(=O)O)[C@H]1CC[C@H]2[C@@H]3CC[C@@H]4CCCC[C@]4(C)[C@H]3CC[C@]12C

>  <Structure_dimension>  (2670) 
2D

$$$$
MS2762
     RDKit          2D

 33 37  0  0  0  0  0  0  0  0999 V2000
   -3.4505   -3.2444    0.0000 C   0  0  0  0  0  0  0  0  0  0  0  0
   -2.4721   -2.1074    0.0000 C   0  0  0  0  0  0  0  0  0  0  0  0
   -2.9676   -0.6916    0.0000 C   0  0  0  0  0  0  0  0  0  0  0  0
   -4.4415   -0.4128    0.0000 C   0  0  0  0  0  0  0  0  0  0  0  0
   -4.9370    1.0030    0.0000 C   0  0  0  0  0  0  0  0  0  0  0  0
   -3.9586    2.1400    0.0000 O   0  0  0  0  0  0  0  0  0  0  0  0
   -6.4109    1.2817    0.0000 C   0  0  0  0  0  0  0  0  0  0  0  0
   -7.5027    0.2532    0.0000 C   0  0  0  0  0  0  0  0  0  0  0  0
   -8.8183    0.9738    0.0000 N   0  0  0  0  0  0  0  0  0  0  0  0
   -8.5395    2.4477    0.0000 C   0  0  0  0  0  0  0  0  0  0  0  0
   -7.0517    2.6380    0.0000 N   0  0  0  0  0  0  0  0  0  0  0  0
   -0.9983   -2.3862    0.0000 C   0  0  0  0  0  0  0  0  0  0  0  0
   -0.3575   -3.7424    0.0000 C   0  0  0  0  0  0  0  0  0  0  0  0
    1.1304   -3.5521    0.0000 C   0  0  0  0  0  0  0  0  0  0  0  0
    1.4092   -2.0783    0.0000 C   0  0  0  0  0  0  0  0  0  0  0  0
    2.6910   -1.2992    0.0000 C   0  0  0  0  0  0  0  0  0  0  0  0
    4.0066   -2.0198    0.0000 C   0  0  0  0  0  0  0  0  0  0  0  0
    4.0403   -3.5194    0.0000 O   0  0  0  0  0  0  0  0  0  0  0  0
    5.2884   -1.2408    0.0000 C   0  0  0  0  0  0  0  0  0  0  0  0
    5.2547    0.2589    0.0000 C   0  0  0  0  0  0  0  0  0  0  0  0
    6.5365    1.0379    0.0000 C   0  0  0  0  0  0  0  0  0  0  0  0
    6.5028    2.5375    0.0000 C   0  0  0  0  0  0  0  0  0  0  0  0
    7.7846    3.3166    0.0000 O   0  0  0  0  0  0  0  0  0  0  0  0
    5.1872    3.2581    0.0000 C   0  0  0  0  0  0  0  0  0  0  0  0
    3.9054    2.4791    0.0000 C   0  0  0  0  0  0  0  0  0  0  0  0
    3.9391    0.9794    0.0000 C   0  0  0  0  0  0  0  0  0  0  0  0
    2.6235    1.7000    0.0000 C   0  0  0  0  0  0  0  0  0  0  0  0
    2.6573    0.2004    0.0000 C   0  0  0  0  0  0  0  0  0  0  0  0
    1.3417    0.9210    0.0000 C   0  0  0  0  0  0  0  0  0  0  0  0
    0.0598    0.1420    0.0000 C   0  0  0  0  0  0  0  0  0  0  0  0
   -1.2557    0.8625    0.0000 O   0  0  0  0  0  0  0  0  0  0  0  0
    0.0936   -1.3577    0.0000 C   0  0  0  0  0  0  0  0  0  0  0  0
   -1.2901   -0.7785    0.0000 C   0  0  0  0  0  0  0  0  0  0  0  0
  2  1  1  6
  2  3  1  0
  3  4  1  0
  4  5  1  0
  5  6  2  0
  5  7  1  0
  7  8  2  0
  8  9  1  0
  9 10  1  0
 10 11  2  0
  2 12  1  0
 12 13  1  6
 13 14  1  0
 15 14  1  6
 15 16  1  0
 16 17  1  1
 17 18  1  1
 17 19  1  0
 20 19  1  1
 20 21  1  0
 21 22  1  0
 22 23  1  1
 22 24  1  0
 24 25  1  0
 25 26  1  0
 26 27  1  6
 26 28  1  0
 28 29  1  6
 29 30  1  0
 30 31  1  1
 30 32  1  0
 32 33  1  6
 11  7  1  0
 32 12  1  0
 32 15  1  0
 28 16  1  0
 26 20  1  0
M  END
>  <MS_ID>  (2671) 
MS2762

>  <SMILES>  (2671) 
C[C@H](CCC(=O)c1c[nH]cn1)[C@H]1CC[C@H]2[C@@H]3[C@H](O)C[C@@H]4C[C@H](O)CC[C@]4(C)[C@H]3C[C@H](O)[C@]12C

>  <Structure_dimension>  (2671) 
2D

$$$$
MS2763
     RDKit          2D

 27 30  0  0  0  0  0  0  0  0999 V2000
   -5.1023   -2.0364    0.0000 C   0  0  0  0  0  0  0  0  0  0  0  0
   -3.8978   -1.1425    0.0000 C   0  0  0  0  0  0  0  0  0  0  0  0
   -4.0697    0.3476    0.0000 C   0  0  0  0  0  0  0  0  0  0  0  0
   -5.4461    0.9438    0.0000 C   0  0  0  0  0  0  0  0  0  0  0  0
   -5.6180    2.4339    0.0000 C   0  0  0  0  0  0  0  0  0  0  0  0
   -4.4135    3.3278    0.0000 O   0  0  0  0  0  0  0  0  0  0  0  0
   -6.9944    3.0301    0.0000 O   0  0  0  0  0  0  0  0  0  0  0  0
   -2.5213   -1.7387    0.0000 C   0  0  0  0  0  0  0  0  0  0  0  0
   -2.1946   -3.2027    0.0000 C   0  0  0  0  0  0  0  0  0  0  0  0
   -0.7013   -3.3444    0.0000 C   0  0  0  0  0  0  0  0  0  0  0  0
   -0.1051   -1.9679    0.0000 C   0  0  0  0  0  0  0  0  0  0  0  0
    1.3167   -1.4900    0.0000 C   0  0  0  0  0  0  0  0  0  0  0  0
    2.4415   -2.4823    0.0000 C   0  0  0  0  0  0  0  0  0  0  0  0
    3.8633   -2.0044    0.0000 C   0  0  0  0  0  0  0  0  0  0  0  0
    4.1603   -0.5341    0.0000 C   0  0  0  0  0  0  0  0  0  0  0  0
    5.5821   -0.0561    0.0000 C   0  0  0  0  0  0  0  0  0  0  0  0
    5.8791    1.4142    0.0000 C   0  0  0  0  0  0  0  0  0  0  0  0
    7.3009    1.8921    0.0000 S   0  0  0  0  0  0  0  0  0  0  0  0
    4.7543    2.4065    0.0000 C   0  0  0  0  0  0  0  0  0  0  0  0
    3.3325    1.9286    0.0000 C   0  0  0  0  0  0  0  0  0  0  0  0
    3.0355    0.4583    0.0000 C   0  0  0  0  0  0  0  0  0  0  0  0
    1.9107    1.4506    0.0000 C   0  0  0  0  0  0  0  0  0  0  0  0
    1.6137   -0.0197    0.0000 C   0  0  0  0  0  0  0  0  0  0  0  0
    0.4888    0.9727    0.0000 C   0  0  0  0  0  0  0  0  0  0  0  0
   -0.9330    0.4947    0.0000 C   0  0  0  0  0  0  0  0  0  0  0  0
   -1.2300   -0.9756    0.0000 C   0  0  0  0  0  0  0  0  0  0  0  0
   -2.4524   -0.1062    0.0000 C   0  0  0  0  0  0  0  0  0  0  0  0
  2  1  1  6
  2  3  1  0
  3  4  1  0
  4  5  1  0
  5  6  2  0
  5  7  1  0
  2  8  1  0
  8  9  1  6
  9 10  1  0
 11 10  1  6
 11 12  1  0
 12 13  1  1
 13 14  1  0
 15 14  1  1
 15 16  1  0
 16 17  1  0
 17 18  1  1
 17 19  1  0
 19 20  1  0
 20 21  1  0
 21 22  1  6
 21 23  1  0
 23 24  1  6
 24 25  1  0
 25 26  1  0
 26 27  1  6
 26  8  1  0
 26 11  1  0
 23 12  1  0
 21 15  1  0
M  END
>  <MS_ID>  (2672) 
MS2763

>  <SMILES>  (2672) 
C[C@H](CCC(=O)O)[C@H]1CC[C@H]2[C@@H]3CC[C@@H]4C[C@H](S)CC[C@]4(C)[C@H]3CC[C@]12C

>  <Structure_dimension>  (2672) 
2D

$$$$
MS2764
     RDKit          2D

 34 37  0  0  0  0  0  0  0  0999 V2000
   -2.9347   -3.8100    0.0000 C   0  0  0  0  0  0  0  0  0  0  0  0
   -2.1061   -2.5597    0.0000 C   0  0  0  0  0  0  0  0  0  0  0  0
   -2.7747   -1.2169    0.0000 C   0  0  0  0  0  0  0  0  0  0  0  0
   -4.2718   -1.1245    0.0000 C   0  0  0  0  0  0  0  0  0  0  0  0
   -4.9404    0.2183    0.0000 C   0  0  0  0  0  0  0  0  0  0  0  0
   -4.1118    1.4687    0.0000 O   0  0  0  0  0  0  0  0  0  0  0  0
   -6.4375    0.3107    0.0000 C   0  0  0  0  0  0  0  0  0  0  0  0
   -7.1061    1.6535    0.0000 O   0  0  0  0  0  0  0  0  0  0  0  0
   -8.6032    1.7459    0.0000 S   0  0  0  0  0  0  0  0  0  0  0  0
   -8.6956    0.2487    0.0000 O   0  0  0  0  0  0  0  0  0  0  0  0
   -8.5108    3.2430    0.0000 O   0  0  0  0  0  0  0  0  0  0  0  0
  -10.1004    1.8383    0.0000 O   0  0  0  0  0  0  0  0  0  0  0  0
   -0.6090   -2.6521    0.0000 C   0  0  0  0  0  0  0  0  0  0  0  0
    0.1963   -3.9176    0.0000 C   0  0  0  0  0  0  0  0  0  0  0  0
    1.6487   -3.5428    0.0000 C   0  0  0  0  0  0  0  0  0  0  0  0
    1.7411   -2.0457    0.0000 C   0  0  0  0  0  0  0  0  0  0  0  0
    2.9155   -1.1125    0.0000 C   0  0  0  0  0  0  0  0  0  0  0  0
    4.3109   -1.6631    0.0000 C   0  0  0  0  0  0  0  0  0  0  0  0
    4.5317   -3.1467    0.0000 O   0  0  0  0  0  0  0  0  0  0  0  0
    5.4853   -0.7299    0.0000 C   0  0  0  0  0  0  0  0  0  0  0  0
    6.8806   -1.2805    0.0000 O   0  0  0  0  0  0  0  0  0  0  0  0
    5.2644    0.7537    0.0000 C   0  0  0  0  0  0  0  0  0  0  0  0
    6.4388    1.6868    0.0000 C   0  0  0  0  0  0  0  0  0  0  0  0
    6.2179    3.1705    0.0000 C   0  0  0  0  0  0  0  0  0  0  0  0
    7.3923    4.1036    0.0000 O   0  0  0  0  0  0  0  0  0  0  0  0
    4.8226    3.7210    0.0000 C   0  0  0  0  0  0  0  0  0  0  0  0
    3.6482    2.7879    0.0000 C   0  0  0  0  0  0  0  0  0  0  0  0
    3.8691    1.3042    0.0000 C   0  0  0  0  0  0  0  0  0  0  0  0
    2.4737    1.8547    0.0000 C   0  0  0  0  0  0  0  0  0  0  0  0
    2.6946    0.3711    0.0000 C   0  0  0  0  0  0  0  0  0  0  0  0
    1.2993    0.9216    0.0000 C   0  0  0  0  0  0  0  0  0  0  0  0
    0.1249   -0.0115    0.0000 C   0  0  0  0  0  0  0  0  0  0  0  0
    0.3458   -1.4951    0.0000 C   0  0  0  0  0  0  0  0  0  0  0  0
   -1.0994   -1.0935    0.0000 C   0  0  0  0  0  0  0  0  0  0  0  0
  2  1  1  6
  2  3  1  0
  3  4  1  0
  4  5  1  0
  5  6  2  0
  5  7  1  0
  7  8  1  0
  8  9  1  0
  9 10  2  0
  9 11  2  0
  9 12  1  0
  2 13  1  0
 13 14  1  6
 14 15  1  0
 16 15  1  6
 16 17  1  0
 17 18  1  1
 18 19  1  1
 18 20  1  0
 20 21  1  1
 20 22  1  0
 22 23  1  1
 23 24  1  0
 24 25  1  1
 24 26  1  0
 26 27  1  0
 27 28  1  0
 28 29  1  6
 28 30  1  0
 30 31  1  6
 31 32  1  0
 32 33  1  0
 33 34  1  6
 33 13  1  0
 33 16  1  0
 30 17  1  0
 28 22  1  0
M  END
>  <MS_ID>  (2673) 
MS2764

>  <SMILES>  (2673) 
C[C@H](CCC(=O)COS(=O)(=O)O)[C@H]1CC[C@H]2[C@@H]3[C@H](O)[C@H](O)[C@@H]4C[C@H](O)CC[C@]4(C)[C@H]3CC[C@]12C

>  <Structure_dimension>  (2673) 
2D

$$$$
MS2765
     RDKit          2D

 33 36  0  0  0  0  0  0  0  0999 V2000
   -1.2658   -4.3097    0.0000 C   0  0  0  0  0  0  0  0  0  0  0  0
   -0.6631   -2.9361    0.0000 C   0  0  0  0  0  0  0  0  0  0  0  0
   -1.5514   -1.7274    0.0000 C   0  0  0  0  0  0  0  0  0  0  0  0
   -3.0423   -1.8923    0.0000 C   0  0  0  0  0  0  0  0  0  0  0  0
   -3.9305   -0.6836    0.0000 C   0  0  0  0  0  0  0  0  0  0  0  0
   -3.3279    0.6900    0.0000 O   0  0  0  0  0  0  0  0  0  0  0  0
   -5.4214   -0.8485    0.0000 O   0  0  0  0  0  0  0  0  0  0  0  0
   -6.3097    0.3603    0.0000 C   0  0  0  0  0  0  0  0  0  0  0  0
   -7.8006    0.1954    0.0000 C   0  0  0  0  0  0  0  0  0  0  0  0
   -8.6888    1.4041    0.0000 O   0  0  0  0  0  0  0  0  0  0  0  0
  -10.1797    1.2392    0.0000 C   0  0  0  0  0  0  0  0  0  0  0  0
  -11.0680    2.4479    0.0000 C   0  0  0  0  0  0  0  0  0  0  0  0
  -12.5589    2.2830    0.0000 O   0  0  0  0  0  0  0  0  0  0  0  0
    0.8278   -2.7712    0.0000 C   0  0  0  0  0  0  0  0  0  0  0  0
    1.8375   -3.8805    0.0000 C   0  0  0  0  0  0  0  0  0  0  0  0
    3.2045   -3.2630    0.0000 C   0  0  0  0  0  0  0  0  0  0  0  0
    3.0396   -1.7720    0.0000 C   0  0  0  0  0  0  0  0  0  0  0  0
    4.0373   -0.6519    0.0000 C   0  0  0  0  0  0  0  0  0  0  0  0
    5.5062   -0.9558    0.0000 C   0  0  0  0  0  0  0  0  0  0  0  0
    5.9774   -2.3798    0.0000 O   0  0  0  0  0  0  0  0  0  0  0  0
    6.5038    0.1644    0.0000 C   0  0  0  0  0  0  0  0  0  0  0  0
    6.0325    1.5884    0.0000 C   0  0  0  0  0  0  0  0  0  0  0  0
    7.0302    2.7086    0.0000 C   0  0  0  0  0  0  0  0  0  0  0  0
    6.5589    4.1326    0.0000 C   0  0  0  0  0  0  0  0  0  0  0  0
    5.0900    4.4365    0.0000 C   0  0  0  0  0  0  0  0  0  0  0  0
    4.0924    3.3164    0.0000 C   0  0  0  0  0  0  0  0  0  0  0  0
    4.5636    1.8923    0.0000 C   0  0  0  0  0  0  0  0  0  0  0  0
    3.0947    2.1962    0.0000 C   0  0  0  0  0  0  0  0  0  0  0  0
    3.5660    0.7722    0.0000 C   0  0  0  0  0  0  0  0  0  0  0  0
    2.0971    1.0761    0.0000 C   0  0  0  0  0  0  0  0  0  0  0  0
    1.0995   -0.0441    0.0000 C   0  0  0  0  0  0  0  0  0  0  0  0
    1.5707   -1.4681    0.0000 C   0  0  0  0  0  0  0  0  0  0  0  0
    0.0781   -1.3195    0.0000 C   0  0  0  0  0  0  0  0  0  0  0  0
  2  1  1  6
  2  3  1  0
  3  4  1  0
  4  5  1  0
  5  6  2  0
  5  7  1  0
  7  8  1  0
  8  9  1  0
  9 10  1  0
 10 11  1  0
 11 12  1  0
 12 13  1  0
  2 14  1  0
 14 15  1  6
 15 16  1  0
 17 16  1  6
 17 18  1  0
 18 19  1  1
 19 20  1  6
 19 21  1  0
 22 21  1  1
 22 23  1  0
 23 24  1  0
 24 25  1  0
 25 26  1  0
 26 27  1  0
 27 28  1  6
 27 29  1  0
 29 30  1  6
 30 31  1  0
 31 32  1  0
 32 33  1  6
 32 14  1  0
 32 17  1  0
 29 18  1  0
 27 22  1  0
M  END
>  <MS_ID>  (2674) 
MS2765

>  <SMILES>  (2674) 
C[C@H](CCC(=O)OCCOCCO)[C@H]1CC[C@H]2[C@@H]3[C@@H](O)C[C@@H]4CCCC[C@]4(C)[C@H]3CC[C@]12C

>  <Structure_dimension>  (2674) 
2D

$$$$
MS2766
     RDKit          2D

 35 38  0  0  0  0  0  0  0  0999 V2000
   -1.9457   -5.0701    0.0000 C   0  0  0  0  0  0  0  0  0  0  0  0
   -1.4056   -3.6707    0.0000 C   0  0  0  0  0  0  0  0  0  0  0  0
   -2.3474   -2.5033    0.0000 C   0  0  0  0  0  0  0  0  0  0  0  0
   -3.8294   -2.7352    0.0000 C   0  0  0  0  0  0  0  0  0  0  0  0
   -4.7713   -1.5678    0.0000 C   0  0  0  0  0  0  0  0  0  0  0  0
   -6.2532   -1.7997    0.0000 O   0  0  0  0  0  0  0  0  0  0  0  0
   -4.2312   -0.1684    0.0000 O   0  0  0  0  0  0  0  0  0  0  0  0
   -5.1730    0.9990    0.0000 C   0  0  0  0  0  0  0  0  0  0  0  0
   -6.6550    0.7671    0.0000 O   0  0  0  0  0  0  0  0  0  0  0  0
   -4.6329    2.3984    0.0000 C   0  0  0  0  0  0  0  0  0  0  0  0
   -5.5748    3.5659    0.0000 S   0  0  0  0  0  0  0  0  0  0  0  0
   -4.4073    4.5077    0.0000 O   0  0  0  0  0  0  0  0  0  0  0  0
   -6.7422    2.6240    0.0000 O   0  0  0  0  0  0  0  0  0  0  0  0
   -6.5166    4.7333    0.0000 O   0  0  0  0  0  0  0  0  0  0  0  0
    0.0764   -3.4387    0.0000 C   0  0  0  0  0  0  0  0  0  0  0  0
    1.1351   -4.5013    0.0000 C   0  0  0  0  0  0  0  0  0  0  0  0
    2.4728   -3.8228    0.0000 C   0  0  0  0  0  0  0  0  0  0  0  0
    2.2409   -2.3408    0.0000 C   0  0  0  0  0  0  0  0  0  0  0  0
    3.1870   -1.1768    0.0000 C   0  0  0  0  0  0  0  0  0  0  0  0
    4.6681   -1.4142    0.0000 C   0  0  0  0  0  0  0  0  0  0  0  0
    5.2031   -2.8155    0.0000 O   0  0  0  0  0  0  0  0  0  0  0  0
    5.6142   -0.2502    0.0000 C   0  0  0  0  0  0  0  0  0  0  0  0
    5.0792    1.1512    0.0000 C   0  0  0  0  0  0  0  0  0  0  0  0
    6.0253    2.3152    0.0000 C   0  0  0  0  0  0  0  0  0  0  0  0
    5.4903    3.7165    0.0000 C   0  0  0  0  0  0  0  0  0  0  0  0
    6.4364    4.8805    0.0000 O   0  0  0  0  0  0  0  0  0  0  0  0
    4.0092    3.9539    0.0000 C   0  0  0  0  0  0  0  0  0  0  0  0
    3.0631    2.7899    0.0000 C   0  0  0  0  0  0  0  0  0  0  0  0
    3.5981    1.3885    0.0000 C   0  0  0  0  0  0  0  0  0  0  0  0
    2.1170    1.6259    0.0000 C   0  0  0  0  0  0  0  0  0  0  0  0
    2.6520    0.2245    0.0000 C   0  0  0  0  0  0  0  0  0  0  0  0
    1.1709    0.4619    0.0000 C   0  0  0  0  0  0  0  0  0  0  0  0
    0.2248   -0.7021    0.0000 C   0  0  0  0  0  0  0  0  0  0  0  0
    0.7598   -2.1035    0.0000 C   0  0  0  0  0  0  0  0  0  0  0  0
   -0.7380   -2.0222    0.0000 C   0  0  0  0  0  0  0  0  0  0  0  0
  2  1  1  6
  2  3  1  0
  3  4  1  0
  4  5  1  0
  5  6  2  0
  5  7  1  0
  7  8  1  0
  8  9  2  0
  8 10  1  0
 10 11  1  0
 11 12  2  0
 11 13  2  0
 11 14  1  0
  2 15  1  0
 15 16  1  6
 16 17  1  0
 18 17  1  6
 18 19  1  0
 19 20  1  1
 20 21  1  6
 20 22  1  0
 23 22  1  1
 23 24  1  0
 24 25  1  0
 25 26  1  1
 25 27  1  0
 27 28  1  0
 28 29  1  0
 29 30  1  6
 29 31  1  0
 31 32  1  6
 32 33  1  0
 33 34  1  0
 34 35  1  6
 34 15  1  0
 34 18  1  0
 31 19  1  0
 29 23  1  0
M  END
>  <MS_ID>  (2675) 
MS2766

>  <SMILES>  (2675) 
C[C@H](CCC(=O)OC(=O)CS(=O)(=O)O)[C@H]1CC[C@H]2[C@@H]3[C@@H](O)C[C@@H]4C[C@H](O)CC[C@]4(C)[C@H]3CC[C@]12C

>  <Structure_dimension>  (2675) 
2D

$$$$
MS2767
     RDKit          2D

 31 34  0  0  0  0  0  0  0  0999 V2000
   -5.0390   -2.1770    0.0000 C   0  0  0  0  0  0  0  0  0  0  0  0
   -3.9314   -1.1655    0.0000 C   0  0  0  0  0  0  0  0  0  0  0  0
   -4.2536    0.2995    0.0000 C   0  0  0  0  0  0  0  0  0  0  0  0
   -5.6834    0.7530    0.0000 C   0  0  0  0  0  0  0  0  0  0  0  0
   -6.0056    2.2180    0.0000 C   0  0  0  0  0  0  0  0  0  0  0  0
   -4.8980    3.2295    0.0000 O   0  0  0  0  0  0  0  0  0  0  0  0
   -7.4354    2.6714    0.0000 O   0  0  0  0  0  0  0  0  0  0  0  0
   -2.5016   -1.6189    0.0000 C   0  0  0  0  0  0  0  0  0  0  0  0
   -2.0280   -3.0422    0.0000 C   0  0  0  0  0  0  0  0  0  0  0  0
   -0.5280   -3.0316    0.0000 C   0  0  0  0  0  0  0  0  0  0  0  0
   -0.0746   -1.6018    0.0000 C   0  0  0  0  0  0  0  0  0  0  0  0
    1.2914   -0.9820    0.0000 C   0  0  0  0  0  0  0  0  0  0  0  0
    2.5111   -1.8551    0.0000 C   0  0  0  0  0  0  0  0  0  0  0  0
    2.3649   -3.3480    0.0000 N   0  0  0  0  0  0  0  0  0  0  0  0
    3.5846   -4.2211    0.0000 C   0  0  0  0  0  0  0  0  0  0  0  0
    0.9989   -3.9677    0.0000 C   0  0  0  0  0  0  0  0  0  0  0  0
    3.8771   -1.2354    0.0000 C   0  0  0  0  0  0  0  0  0  0  0  0
    4.0234    0.2575    0.0000 C   0  0  0  0  0  0  0  0  0  0  0  0
    5.3894    0.8772    0.0000 C   0  0  0  0  0  0  0  0  0  0  0  0
    5.5356    2.3701    0.0000 C   0  0  0  0  0  0  0  0  0  0  0  0
    6.9016    2.9898    0.0000 O   0  0  0  0  0  0  0  0  0  0  0  0
    4.3159    3.2432    0.0000 C   0  0  0  0  0  0  0  0  0  0  0  0
    2.9499    2.6234    0.0000 C   0  0  0  0  0  0  0  0  0  0  0  0
    2.8037    1.1306    0.0000 C   0  0  0  0  0  0  0  0  0  0  0  0
    1.5839    2.0037    0.0000 C   0  0  0  0  0  0  0  0  0  0  0  0
    1.4377    0.5108    0.0000 C   0  0  0  0  0  0  0  0  0  0  0  0
    0.2180    1.3839    0.0000 C   0  0  0  0  0  0  0  0  0  0  0  0
   -1.1480    0.7642    0.0000 C   0  0  0  0  0  0  0  0  0  0  0  0
   -2.3677    1.6372    0.0000 O   0  0  0  0  0  0  0  0  0  0  0  0
   -1.2943   -0.7287    0.0000 C   0  0  0  0  0  0  0  0  0  0  0  0
   -2.5986    0.0121    0.0000 C   0  0  0  0  0  0  0  0  0  0  0  0
  2  1  1  6
  2  3  1  0
  3  4  1  0
  4  5  1  0
  5  6  2  0
  5  7  1  0
  2  8  1  0
  8  9  1  6
  9 10  1  0
 11 10  1  6
 11 12  1  0
 12 13  1  1
 13 14  1  1
 14 15  1  0
 14 16  1  0
 13 17  1  0
 18 17  1  1
 18 19  1  0
 19 20  1  0
 20 21  1  1
 20 22  1  0
 22 23  1  0
 23 24  1  0
 24 25  1  6
 24 26  1  0
 26 27  1  6
 27 28  1  0
 28 29  1  1
 28 30  1  0
 30 31  1  6
 30  8  1  0
 30 11  1  0
 26 12  1  0
 24 18  1  0
M  END
>  <MS_ID>  (2676) 
MS2767

>  <SMILES>  (2676) 
C[C@H](CCC(=O)O)[C@H]1CC[C@H]2[C@@H]3[C@H](N(C)C)C[C@@H]4C[C@H](O)CC[C@]4(C)[C@H]3C[C@H](O)[C@]12C

>  <Structure_dimension>  (2676) 
2D

$$$$
MS2768
     RDKit          2D

 30 33  0  0  0  0  0  0  0  0999 V2000
   -4.1099   -3.1124    0.0000 C   0  0  0  0  0  0  0  0  0  0  0  0
   -3.1089   -1.9953    0.0000 C   0  0  0  0  0  0  0  0  0  0  0  0
   -3.5759   -0.5698    0.0000 C   0  0  0  0  0  0  0  0  0  0  0  0
   -5.0438   -0.2615    0.0000 C   0  0  0  0  0  0  0  0  0  0  0  0
   -5.5108    1.1640    0.0000 C   0  0  0  0  0  0  0  0  0  0  0  0
   -4.5097    2.2811    0.0000 O   0  0  0  0  0  0  0  0  0  0  0  0
   -6.9787    1.4724    0.0000 C   0  0  0  0  0  0  0  0  0  0  0  0
   -7.4457    2.8978    0.0000 N   0  0  0  0  0  0  0  0  0  0  0  0
   -8.9136    3.2062    0.0000 O   0  0  0  0  0  0  0  0  0  0  0  0
   -1.6409   -2.3036    0.0000 C   0  0  0  0  0  0  0  0  0  0  0  0
   -1.0276   -3.6725    0.0000 C   0  0  0  0  0  0  0  0  0  0  0  0
    0.4638   -3.5121    0.0000 C   0  0  0  0  0  0  0  0  0  0  0  0
    0.7722   -2.0441    0.0000 C   0  0  0  0  0  0  0  0  0  0  0  0
    2.0694   -1.2910    0.0000 C   0  0  0  0  0  0  0  0  0  0  0  0
    3.3703   -2.0379    0.0000 C   0  0  0  0  0  0  0  0  0  0  0  0
    3.3739   -3.5379    0.0000 O   0  0  0  0  0  0  0  0  0  0  0  0
    4.6675   -1.2848    0.0000 C   0  0  0  0  0  0  0  0  0  0  0  0
    4.6639    0.2152    0.0000 C   0  0  0  0  0  0  0  0  0  0  0  0
    5.9611    0.9683    0.0000 C   0  0  0  0  0  0  0  0  0  0  0  0
    5.9575    2.4683    0.0000 C   0  0  0  0  0  0  0  0  0  0  0  0
    7.2548    3.2214    0.0000 O   0  0  0  0  0  0  0  0  0  0  0  0
    4.6567    3.2152    0.0000 C   0  0  0  0  0  0  0  0  0  0  0  0
    3.3595    2.4621    0.0000 C   0  0  0  0  0  0  0  0  0  0  0  0
    3.3631    0.9621    0.0000 C   0  0  0  0  0  0  0  0  0  0  0  0
    2.0622    1.7090    0.0000 C   0  0  0  0  0  0  0  0  0  0  0  0
    2.0658    0.2090    0.0000 C   0  0  0  0  0  0  0  0  0  0  0  0
    0.7650    0.9559    0.0000 C   0  0  0  0  0  0  0  0  0  0  0  0
   -0.5322    0.2027    0.0000 C   0  0  0  0  0  0  0  0  0  0  0  0
   -0.5286   -1.2973    0.0000 C   0  0  0  0  0  0  0  0  0  0  0  0
   -1.9004   -0.6904    0.0000 C   0  0  0  0  0  0  0  0  0  0  0  0
  2  1  1  6
  2  3  1  0
  3  4  1  0
  4  5  1  0
  5  6  2  0
  5  7  1  0
  7  8  1  0
  8  9  1  0
  2 10  1  0
 10 11  1  6
 11 12  1  0
 13 12  1  6
 13 14  1  0
 14 15  1  1
 15 16  1  1
 15 17  1  0
 18 17  1  1
 18 19  1  0
 19 20  1  0
 20 21  1  1
 20 22  1  0
 22 23  1  0
 23 24  1  0
 24 25  1  6
 24 26  1  0
 26 27  1  6
 27 28  1  0
 28 29  1  0
 29 30  1  6
 29 10  1  0
 29 13  1  0
 26 14  1  0
 24 18  1  0
M  END
>  <MS_ID>  (2677) 
MS2768

>  <SMILES>  (2677) 
C[C@H](CCC(=O)CNO)[C@H]1CC[C@H]2[C@@H]3[C@H](O)C[C@@H]4C[C@H](O)CC[C@]4(C)[C@H]3CC[C@]12C

>  <Structure_dimension>  (2677) 
2D

$$$$
MS2769
     RDKit          2D

 28 31  0  0  0  0  0  0  0  0999 V2000
   -4.6340   -2.3524    0.0000 C   0  0  0  0  0  0  0  0  0  0  0  0
   -3.5242   -1.3434    0.0000 C   0  0  0  0  0  0  0  0  0  0  0  0
   -3.8431    0.1223    0.0000 C   0  0  0  0  0  0  0  0  0  0  0  0
   -5.2720    0.5789    0.0000 C   0  0  0  0  0  0  0  0  0  0  0  0
   -5.5909    2.0446    0.0000 C   0  0  0  0  0  0  0  0  0  0  0  0
   -4.4811    3.0537    0.0000 O   0  0  0  0  0  0  0  0  0  0  0  0
   -7.0197    2.5012    0.0000 O   0  0  0  0  0  0  0  0  0  0  0  0
   -2.0954   -1.8000    0.0000 C   0  0  0  0  0  0  0  0  0  0  0  0
   -1.6249   -3.2243    0.0000 C   0  0  0  0  0  0  0  0  0  0  0  0
   -0.1249   -3.2170    0.0000 C   0  0  0  0  0  0  0  0  0  0  0  0
    0.3317   -1.7882    0.0000 C   0  0  0  0  0  0  0  0  0  0  0  0
    1.6990   -1.1715    0.0000 C   0  0  0  0  0  0  0  0  0  0  0  0
    2.9168   -2.0473    0.0000 C   0  0  0  0  0  0  0  0  0  0  0  0
    2.7672   -3.5398    0.0000 N   0  0  0  0  0  0  0  0  0  0  0  0
    4.2841   -1.4305    0.0000 C   0  0  0  0  0  0  0  0  0  0  0  0
    4.4337    0.0620    0.0000 C   0  0  0  0  0  0  0  0  0  0  0  0
    5.8011    0.6787    0.0000 C   0  0  0  0  0  0  0  0  0  0  0  0
    5.9506    2.1713    0.0000 C   0  0  0  0  0  0  0  0  0  0  0  0
    4.7328    3.0471    0.0000 C   0  0  0  0  0  0  0  0  0  0  0  0
    3.3655    2.4303    0.0000 C   0  0  0  0  0  0  0  0  0  0  0  0
    3.2159    0.9378    0.0000 C   0  0  0  0  0  0  0  0  0  0  0  0
    1.9981    1.8136    0.0000 C   0  0  0  0  0  0  0  0  0  0  0  0
    1.8486    0.3211    0.0000 C   0  0  0  0  0  0  0  0  0  0  0  0
    0.6308    1.1968    0.0000 C   0  0  0  0  0  0  0  0  0  0  0  0
   -0.7366    0.5801    0.0000 C   0  0  0  0  0  0  0  0  0  0  0  0
   -1.9543    1.4559    0.0000 O   0  0  0  0  0  0  0  0  0  0  0  0
   -0.8861   -0.9124    0.0000 C   0  0  0  0  0  0  0  0  0  0  0  0
   -2.1888   -0.1687    0.0000 C   0  0  0  0  0  0  0  0  0  0  0  0
  2  1  1  6
  2  3  1  0
  3  4  1  0
  4  5  1  0
  5  6  2  0
  5  7  1  0
  2  8  1  0
  8  9  1  6
  9 10  1  0
 11 10  1  6
 11 12  1  0
 12 13  1  1
 13 14  1  6
 13 15  1  0
 16 15  1  1
 16 17  1  0
 17 18  1  0
 18 19  1  0
 19 20  1  0
 20 21  1  0
 21 22  1  6
 21 23  1  0
 23 24  1  6
 24 25  1  0
 25 26  1  1
 25 27  1  0
 27 28  1  6
 27  8  1  0
 27 11  1  0
 23 12  1  0
 21 16  1  0
M  END
>  <MS_ID>  (2678) 
MS2769

>  <SMILES>  (2678) 
C[C@H](CCC(=O)O)[C@H]1CC[C@H]2[C@@H]3[C@@H](N)C[C@@H]4CCCC[C@]4(C)[C@H]3C[C@H](O)[C@]12C

>  <Structure_dimension>  (2678) 
2D

$$$$
MS2770
     RDKit          2D

 36 40  0  0  0  0  0  0  0  0999 V2000
   -7.5737   -1.7008    0.0000 C   0  0  0  0  0  0  0  0  0  0  0  0
   -6.2914   -0.9225    0.0000 C   0  0  0  0  0  0  0  0  0  0  0  0
   -6.3243    0.5772    0.0000 C   0  0  0  0  0  0  0  0  0  0  0  0
   -7.6395    1.2985    0.0000 C   0  0  0  0  0  0  0  0  0  0  0  0
   -7.6724    2.7982    0.0000 C   0  0  0  0  0  0  0  0  0  0  0  0
   -6.3901    3.5765    0.0000 O   0  0  0  0  0  0  0  0  0  0  0  0
   -8.9875    3.5195    0.0000 O   0  0  0  0  0  0  0  0  0  0  0  0
   -4.9763   -1.6438    0.0000 C   0  0  0  0  0  0  0  0  0  0  0  0
   -4.7868   -3.1318    0.0000 C   0  0  0  0  0  0  0  0  0  0  0  0
   -3.3131   -3.4114    0.0000 C   0  0  0  0  0  0  0  0  0  0  0  0
   -2.5917   -2.0962    0.0000 C   0  0  0  0  0  0  0  0  0  0  0  0
   -1.1317   -1.7523    0.0000 C   0  0  0  0  0  0  0  0  0  0  0  0
   -0.1038   -2.8447    0.0000 C   0  0  0  0  0  0  0  0  0  0  0  0
    1.3562   -2.5007    0.0000 C   0  0  0  0  0  0  0  0  0  0  0  0
    1.7883   -1.0643    0.0000 C   0  0  0  0  0  0  0  0  0  0  0  0
    3.2484   -0.7204    0.0000 C   0  0  0  0  0  0  0  0  0  0  0  0
    3.6805    0.7160    0.0000 C   0  0  0  0  0  0  0  0  0  0  0  0
    5.1405    1.0600    0.0000 O   0  0  0  0  0  0  0  0  0  0  0  0
    6.1684   -0.0325    0.0000 C   0  0  0  0  0  0  0  0  0  0  0  0
    5.7363   -1.4689    0.0000 O   0  0  0  0  0  0  0  0  0  0  0  0
    7.6285    0.3115    0.0000 C   0  0  0  0  0  0  0  0  0  0  0  0
    8.6564   -0.7809    0.0000 C   0  0  0  0  0  0  0  0  0  0  0  0
   10.1164   -0.4370    0.0000 C   0  0  0  0  0  0  0  0  0  0  0  0
   10.5485    0.9994    0.0000 C   0  0  0  0  0  0  0  0  0  0  0  0
    9.5206    2.0919    0.0000 C   0  0  0  0  0  0  0  0  0  0  0  0
    8.0606    1.7479    0.0000 C   0  0  0  0  0  0  0  0  0  0  0  0
    2.6526    1.8085    0.0000 C   0  0  0  0  0  0  0  0  0  0  0  0
    1.1926    1.4645    0.0000 C   0  0  0  0  0  0  0  0  0  0  0  0
    0.7605    0.0281    0.0000 C   0  0  0  0  0  0  0  0  0  0  0  0
   -0.2674    1.1205    0.0000 C   0  0  0  0  0  0  0  0  0  0  0  0
   -0.6996   -0.3159    0.0000 C   0  0  0  0  0  0  0  0  0  0  0  0
   -1.7275    0.7766    0.0000 C   0  0  0  0  0  0  0  0  0  0  0  0
   -3.1875    0.4326    0.0000 C   0  0  0  0  0  0  0  0  0  0  0  0
   -4.2154    1.5251    0.0000 O   0  0  0  0  0  0  0  0  0  0  0  0
   -3.6196   -1.0038    0.0000 C   0  0  0  0  0  0  0  0  0  0  0  0
   -4.7561   -0.0248    0.0000 C   0  0  0  0  0  0  0  0  0  0  0  0
  2  1  1  6
  2  3  1  0
  3  4  1  0
  4  5  1  0
  5  6  2  0
  5  7  1  0
  2  8  1  0
  8  9  1  6
  9 10  1  0
 11 10  1  6
 11 12  1  0
 12 13  1  1
 13 14  1  0
 15 14  1  1
 15 16  1  0
 16 17  1  0
 17 18  1  6
 18 19  1  0
 19 20  2  0
 19 21  1  0
 21 22  2  0
 22 23  1  0
 23 24  2  0
 24 25  1  0
 25 26  2  0
 17 27  1  0
 27 28  1  0
 28 29  1  0
 29 30  1  6
 29 31  1  0
 31 32  1  6
 32 33  1  0
 33 34  1  6
 33 35  1  0
 35 36  1  6
 35  8  1  0
 35 11  1  0
 31 12  1  0
 29 15  1  0
 26 21  1  0
M  END
>  <MS_ID>  (2679) 
MS2770

>  <SMILES>  (2679) 
C[C@H](CCC(=O)O)[C@H]1CC[C@H]2[C@@H]3CC[C@@H]4C[C@@H](OC(=O)c5ccccc5)CC[C@]4(C)[C@H]3C[C@@H](O)[C@]12C

>  <Structure_dimension>  (2679) 
2D

$$$$
MS2771
     RDKit          2D

 29 32  0  0  0  0  0  0  0  0999 V2000
   -5.3431   -2.0646    0.0000 C   0  0  0  0  0  0  0  0  0  0  0  0
   -4.1296   -1.1829    0.0000 C   0  0  0  0  0  0  0  0  0  0  0  0
   -4.2863    0.3088    0.0000 C   0  0  0  0  0  0  0  0  0  0  0  0
   -5.6566    0.9190    0.0000 C   0  0  0  0  0  0  0  0  0  0  0  0
   -5.8134    2.4108    0.0000 C   0  0  0  0  0  0  0  0  0  0  0  0
   -4.5998    3.2924    0.0000 O   0  0  0  0  0  0  0  0  0  0  0  0
   -7.1837    3.0209    0.0000 O   0  0  0  0  0  0  0  0  0  0  0  0
   -2.7593   -1.7931    0.0000 C   0  0  0  0  0  0  0  0  0  0  0  0
   -2.4474   -3.2603    0.0000 C   0  0  0  0  0  0  0  0  0  0  0  0
   -0.9557   -3.4171    0.0000 C   0  0  0  0  0  0  0  0  0  0  0  0
   -0.3455   -2.0468    0.0000 C   0  0  0  0  0  0  0  0  0  0  0  0
    1.0811   -1.5833    0.0000 C   0  0  0  0  0  0  0  0  0  0  0  0
    2.1958   -2.5871    0.0000 C   0  0  0  0  0  0  0  0  0  0  0  0
    3.6224   -2.1236    0.0000 C   0  0  0  0  0  0  0  0  0  0  0  0
    3.9343   -0.6564    0.0000 C   0  0  0  0  0  0  0  0  0  0  0  0
    5.3609   -0.1929    0.0000 C   0  0  0  0  0  0  0  0  0  0  0  0
    5.6728    1.2743    0.0000 C   0  0  0  0  0  0  0  0  0  0  0  0
    7.0994    1.7378    0.0000 C   0  0  0  0  0  0  0  0  0  0  0  0
    8.2141    0.7341    0.0000 O   0  0  0  0  0  0  0  0  0  0  0  0
    4.5581    2.2781    0.0000 C   0  0  0  0  0  0  0  0  0  0  0  0
    3.1315    1.8146    0.0000 C   0  0  0  0  0  0  0  0  0  0  0  0
    2.8196    0.3474    0.0000 C   0  0  0  0  0  0  0  0  0  0  0  0
    1.7049    1.3511    0.0000 C   0  0  0  0  0  0  0  0  0  0  0  0
    1.3930   -0.1161    0.0000 C   0  0  0  0  0  0  0  0  0  0  0  0
    0.2783    0.8876    0.0000 C   0  0  0  0  0  0  0  0  0  0  0  0
   -1.1483    0.4241    0.0000 C   0  0  0  0  0  0  0  0  0  0  0  0
   -2.2630    1.4278    0.0000 O   0  0  0  0  0  0  0  0  0  0  0  0
   -1.4602   -1.0431    0.0000 C   0  0  0  0  0  0  0  0  0  0  0  0
   -2.6737   -0.1614    0.0000 C   0  0  0  0  0  0  0  0  0  0  0  0
  2  1  1  6
  2  3  1  0
  3  4  1  0
  4  5  1  0
  5  6  2  0
  5  7  1  0
  2  8  1  0
  8  9  1  6
  9 10  1  0
 11 10  1  6
 11 12  1  0
 12 13  1  1
 13 14  1  0
 15 14  1  1
 15 16  1  0
 16 17  1  0
 17 18  1  6
 18 19  1  0
 17 20  1  0
 20 21  1  0
 21 22  1  0
 22 23  1  6
 22 24  1  0
 24 25  1  6
 25 26  1  0
 26 27  1  6
 26 28  1  0
 28 29  1  6
 28  8  1  0
 28 11  1  0
 24 12  1  0
 22 15  1  0
M  END
>  <MS_ID>  (2680) 
MS2771

>  <SMILES>  (2680) 
C[C@H](CCC(=O)O)[C@H]1CC[C@H]2[C@@H]3CC[C@@H]4C[C@@H](CO)CC[C@]4(C)[C@H]3C[C@@H](O)[C@]12C

>  <Structure_dimension>  (2680) 
2D

$$$$
MS2772
     RDKit          2D

 30 33  0  0  0  0  0  0  0  0999 V2000
   -6.0547   -1.7139    0.0000 C   0  0  0  0  0  0  0  0  0  0  0  0
   -4.7759   -0.9298    0.0000 C   0  0  0  0  0  0  0  0  0  0  0  0
   -4.8157    0.5697    0.0000 C   0  0  0  0  0  0  0  0  0  0  0  0
   -6.1341    1.2850    0.0000 C   0  0  0  0  0  0  0  0  0  0  0  0
   -6.1738    2.7845    0.0000 C   0  0  0  0  0  0  0  0  0  0  0  0
   -4.8951    3.5686    0.0000 O   0  0  0  0  0  0  0  0  0  0  0  0
   -7.4923    3.4999    0.0000 O   0  0  0  0  0  0  0  0  0  0  0  0
   -3.4575   -1.6451    0.0000 C   0  0  0  0  0  0  0  0  0  0  0  0
   -3.2613   -3.1322    0.0000 C   0  0  0  0  0  0  0  0  0  0  0  0
   -1.7863   -3.4051    0.0000 C   0  0  0  0  0  0  0  0  0  0  0  0
   -1.0710   -2.0867    0.0000 C   0  0  0  0  0  0  0  0  0  0  0  0
    0.3875   -1.7361    0.0000 C   0  0  0  0  0  0  0  0  0  0  0  0
    1.4203   -2.8239    0.0000 C   0  0  0  0  0  0  0  0  0  0  0  0
    2.8788   -2.4732    0.0000 C   0  0  0  0  0  0  0  0  0  0  0  0
    3.3044   -1.0349    0.0000 C   0  0  0  0  0  0  0  0  0  0  0  0
    4.7628   -0.6843    0.0000 C   0  0  0  0  0  0  0  0  0  0  0  0
    5.1884    0.7541    0.0000 C   0  0  0  0  0  0  0  0  0  0  0  0
    6.6469    1.1047    0.0000 S   0  0  0  0  0  0  0  0  0  0  0  0
    6.9975   -0.3538    0.0000 O   0  0  0  0  0  0  0  0  0  0  0  0
    6.2963    2.5631    0.0000 O   0  0  0  0  0  0  0  0  0  0  0  0
    8.1053    1.4553    0.0000 O   0  0  0  0  0  0  0  0  0  0  0  0
    4.1556    1.8418    0.0000 C   0  0  0  0  0  0  0  0  0  0  0  0
    2.6971    1.4912    0.0000 C   0  0  0  0  0  0  0  0  0  0  0  0
    2.2715    0.0529    0.0000 C   0  0  0  0  0  0  0  0  0  0  0  0
    1.2387    1.1406    0.0000 C   0  0  0  0  0  0  0  0  0  0  0  0
    0.8131   -0.2977    0.0000 C   0  0  0  0  0  0  0  0  0  0  0  0
   -0.2198    0.7900    0.0000 C   0  0  0  0  0  0  0  0  0  0  0  0
   -1.6782    0.4394    0.0000 C   0  0  0  0  0  0  0  0  0  0  0  0
   -2.1038   -0.9989    0.0000 C   0  0  0  0  0  0  0  0  0  0  0  0
   -3.2447   -0.0251    0.0000 C   0  0  0  0  0  0  0  0  0  0  0  0
  2  1  1  6
  2  3  1  0
  3  4  1  0
  4  5  1  0
  5  6  2  0
  5  7  1  0
  2  8  1  0
  8  9  1  6
  9 10  1  0
 11 10  1  6
 11 12  1  0
 12 13  1  1
 13 14  1  0
 15 14  1  1
 15 16  1  0
 16 17  1  0
 17 18  1  6
 18 19  2  0
 18 20  2  0
 18 21  1  0
 17 22  1  0
 22 23  1  0
 23 24  1  0
 24 25  1  6
 24 26  1  0
 26 27  1  6
 27 28  1  0
 28 29  1  0
 29 30  1  6
 29  8  1  0
 29 11  1  0
 26 12  1  0
 24 15  1  0
M  END
>  <MS_ID>  (2681) 
MS2772

>  <SMILES>  (2681) 
C[C@H](CCC(=O)O)[C@H]1CC[C@H]2[C@@H]3CC[C@@H]4C[C@@H](S(=O)(=O)O)CC[C@]4(C)[C@H]3CC[C@]12C

>  <Structure_dimension>  (2681) 
2D

$$$$
MS2773
     RDKit          2D

 37 40  0  0  0  0  0  0  0  0999 V2000
   -0.2271    5.8029    0.0000 C   0  0  0  0  0  0  0  0  0  0  0  0
   -0.2980    4.3046    0.0000 C   0  0  0  0  0  0  0  0  0  0  0  0
    0.9641    3.4940    0.0000 C   0  0  0  0  0  0  0  0  0  0  0  0
    2.2971    4.1817    0.0000 C   0  0  0  0  0  0  0  0  0  0  0  0
    3.5592    3.3711    0.0000 C   0  0  0  0  0  0  0  0  0  0  0  0
    4.8923    4.0588    0.0000 O   0  0  0  0  0  0  0  0  0  0  0  0
    3.4883    1.8728    0.0000 O   0  0  0  0  0  0  0  0  0  0  0  0
    4.7504    1.0622    0.0000 C   0  0  0  0  0  0  0  0  0  0  0  0
    6.0834    1.7499    0.0000 O   0  0  0  0  0  0  0  0  0  0  0  0
    4.6794   -0.4362    0.0000 C   0  0  0  0  0  0  0  0  0  0  0  0
    5.9415   -1.2468    0.0000 C   0  0  0  0  0  0  0  0  0  0  0  0
    5.8705   -2.7451    0.0000 O   0  0  0  0  0  0  0  0  0  0  0  0
    7.1327   -3.5557    0.0000 S   0  0  0  0  0  0  0  0  0  0  0  0
    7.9433   -2.2936    0.0000 O   0  0  0  0  0  0  0  0  0  0  0  0
    6.3220   -4.8178    0.0000 O   0  0  0  0  0  0  0  0  0  0  0  0
    8.3948   -4.3663    0.0000 O   0  0  0  0  0  0  0  0  0  0  0  0
   -1.6311    3.6169    0.0000 C   0  0  0  0  0  0  0  0  0  0  0  0
   -2.9710    4.2912    0.0000 C   0  0  0  0  0  0  0  0  0  0  0  0
   -4.0263    3.2252    0.0000 C   0  0  0  0  0  0  0  0  0  0  0  0
   -3.3386    1.8921    0.0000 C   0  0  0  0  0  0  0  0  0  0  0  0
   -3.8691    0.4890    0.0000 C   0  0  0  0  0  0  0  0  0  0  0  0
   -5.3495    0.2469    0.0000 C   0  0  0  0  0  0  0  0  0  0  0  0
   -6.2993    1.4079    0.0000 O   0  0  0  0  0  0  0  0  0  0  0  0
   -5.8800   -1.1561    0.0000 C   0  0  0  0  0  0  0  0  0  0  0  0
   -4.9301   -2.3171    0.0000 C   0  0  0  0  0  0  0  0  0  0  0  0
   -5.4606   -3.7201    0.0000 C   0  0  0  0  0  0  0  0  0  0  0  0
   -4.5108   -4.8811    0.0000 C   0  0  0  0  0  0  0  0  0  0  0  0
   -5.0413   -6.2841    0.0000 O   0  0  0  0  0  0  0  0  0  0  0  0
   -3.0304   -4.6390    0.0000 C   0  0  0  0  0  0  0  0  0  0  0  0
   -2.4999   -3.2359    0.0000 C   0  0  0  0  0  0  0  0  0  0  0  0
   -3.4498   -2.0750    0.0000 C   0  0  0  0  0  0  0  0  0  0  0  0
   -1.9695   -1.8329    0.0000 C   0  0  0  0  0  0  0  0  0  0  0  0
   -2.9193   -0.6719    0.0000 C   0  0  0  0  0  0  0  0  0  0  0  0
   -1.4390   -0.4298    0.0000 C   0  0  0  0  0  0  0  0  0  0  0  0
   -0.9085    0.9733    0.0000 C   0  0  0  0  0  0  0  0  0  0  0  0
   -1.8583    2.1342    0.0000 C   0  0  0  0  0  0  0  0  0  0  0  0
   -0.4114    2.5297    0.0000 C   0  0  0  0  0  0  0  0  0  0  0  0
  2  1  1  6
  2  3  1  0
  3  4  1  0
  4  5  1  0
  5  6  2  0
  5  7  1  0
  7  8  1  0
  8  9  2  0
  8 10  1  0
 10 11  1  0
 11 12  1  0
 12 13  1  0
 13 14  2  0
 13 15  2  0
 13 16  1  0
  2 17  1  0
 17 18  1  6
 18 19  1  0
 20 19  1  6
 20 21  1  0
 21 22  1  1
 22 23  1  6
 22 24  1  0
 25 24  1  1
 25 26  1  0
 26 27  1  0
 27 28  1  1
 27 29  1  0
 29 30  1  0
 30 31  1  0
 31 32  1  6
 31 33  1  0
 33 34  1  6
 34 35  1  0
 35 36  1  0
 36 37  1  6
 36 17  1  0
 36 20  1  0
 33 21  1  0
 31 25  1  0
M  END
>  <MS_ID>  (2682) 
MS2773

>  <SMILES>  (2682) 
C[C@H](CCC(=O)OC(=O)CCOS(=O)(=O)O)[C@H]1CC[C@H]2[C@@H]3[C@@H](O)C[C@@H]4C[C@H](O)CC[C@]4(C)[C@H]3CC[C@]12C

>  <Structure_dimension>  (2682) 
2D

$$$$
MS2774
     RDKit          2D

 28 31  0  0  0  0  0  0  0  0999 V2000
   -5.0096   -2.1352    0.0000 C   0  0  0  0  0  0  0  0  0  0  0  0
   -3.8132   -1.2303    0.0000 C   0  0  0  0  0  0  0  0  0  0  0  0
   -3.9987    0.2582    0.0000 C   0  0  0  0  0  0  0  0  0  0  0  0
   -5.3805    0.8418    0.0000 C   0  0  0  0  0  0  0  0  0  0  0  0
   -5.5659    2.3303    0.0000 C   0  0  0  0  0  0  0  0  0  0  0  0
   -4.3695    3.2351    0.0000 O   0  0  0  0  0  0  0  0  0  0  0  0
   -6.9477    2.9140    0.0000 O   0  0  0  0  0  0  0  0  0  0  0  0
   -2.4315   -1.8140    0.0000 C   0  0  0  0  0  0  0  0  0  0  0  0
   -2.0914   -3.2749    0.0000 C   0  0  0  0  0  0  0  0  0  0  0  0
   -0.5969   -3.4030    0.0000 C   0  0  0  0  0  0  0  0  0  0  0  0
   -0.0133   -2.0212    0.0000 C   0  0  0  0  0  0  0  0  0  0  0  0
    1.4041   -1.5304    0.0000 C   0  0  0  0  0  0  0  0  0  0  0  0
    2.5379   -2.5125    0.0000 C   0  0  0  0  0  0  0  0  0  0  0  0
    3.9554   -2.0216    0.0000 C   0  0  0  0  0  0  0  0  0  0  0  0
    4.2390   -0.5487    0.0000 C   0  0  0  0  0  0  0  0  0  0  0  0
    5.6564   -0.0578    0.0000 C   0  0  0  0  0  0  0  0  0  0  0  0
    5.9400    1.4151    0.0000 C   0  0  0  0  0  0  0  0  0  0  0  0
    7.3574    1.9060    0.0000 O   0  0  0  0  0  0  0  0  0  0  0  0
    4.8062    2.3972    0.0000 C   0  0  0  0  0  0  0  0  0  0  0  0
    3.3888    1.9064    0.0000 C   0  0  0  0  0  0  0  0  0  0  0  0
    3.1052    0.4334    0.0000 C   0  0  0  0  0  0  0  0  0  0  0  0
    1.9714    1.4155    0.0000 C   0  0  0  0  0  0  0  0  0  0  0  0
    1.6878   -0.0574    0.0000 C   0  0  0  0  0  0  0  0  0  0  0  0
    0.5540    0.9246    0.0000 C   0  0  0  0  0  0  0  0  0  0  0  0
   -0.8635    0.4338    0.0000 C   0  0  0  0  0  0  0  0  0  0  0  0
   -1.9973    1.4159    0.0000 F   0  0  0  0  0  0  0  0  0  0  0  0
   -1.1471   -1.0392    0.0000 C   0  0  0  0  0  0  0  0  0  0  0  0
   -2.3773   -0.1810    0.0000 C   0  0  0  0  0  0  0  0  0  0  0  0
  2  1  1  6
  2  3  1  0
  3  4  1  0
  4  5  1  0
  5  6  2  0
  5  7  1  0
  2  8  1  0
  8  9  1  6
  9 10  1  0
 11 10  1  6
 11 12  1  0
 12 13  1  1
 13 14  1  0
 15 14  1  1
 15 16  1  0
 16 17  1  0
 17 18  1  1
 17 19  1  0
 19 20  1  0
 20 21  1  0
 21 22  1  6
 21 23  1  0
 23 24  1  6
 24 25  1  0
 25 26  1  6
 25 27  1  0
 27 28  1  6
 27  8  1  0
 27 11  1  0
 23 12  1  0
 21 15  1  0
M  END
>  <MS_ID>  (2683) 
MS2774

>  <SMILES>  (2683) 
C[C@H](CCC(=O)O)[C@H]1CC[C@H]2[C@@H]3CC[C@@H]4C[C@H](O)CC[C@]4(C)[C@H]3C[C@@H](F)[C@]12C

>  <Structure_dimension>  (2683) 
2D

$$$$
MS2775
     RDKit          2D

 32 35  0  0  0  0  0  0  0  0999 V2000
   -6.4291   -1.5822    0.0000 C   0  0  0  0  0  0  0  0  0  0  0  0
   -5.1768   -0.7566    0.0000 C   0  0  0  0  0  0  0  0  0  0  0  0
   -5.2656    0.7408    0.0000 C   0  0  0  0  0  0  0  0  0  0  0  0
   -6.6068    1.4125    0.0000 C   0  0  0  0  0  0  0  0  0  0  0  0
   -6.6957    2.9099    0.0000 C   0  0  0  0  0  0  0  0  0  0  0  0
   -8.0369    3.5816    0.0000 O   0  0  0  0  0  0  0  0  0  0  0  0
   -3.8356   -1.4283    0.0000 C   0  0  0  0  0  0  0  0  0  0  0  0
   -3.5907   -2.9082    0.0000 C   0  0  0  0  0  0  0  0  0  0  0  0
   -2.1076   -3.1326    0.0000 C   0  0  0  0  0  0  0  0  0  0  0  0
   -1.4359   -1.7914    0.0000 C   0  0  0  0  0  0  0  0  0  0  0  0
    0.0103   -1.3931    0.0000 C   0  0  0  0  0  0  0  0  0  0  0  0
    1.0783   -2.4464    0.0000 C   0  0  0  0  0  0  0  0  0  0  0  0
    0.7001   -3.8980    0.0000 O   0  0  0  0  0  0  0  0  0  0  0  0
    2.5245   -2.0482    0.0000 C   0  0  0  0  0  0  0  0  0  0  0  0
    2.9027   -0.5966    0.0000 C   0  0  0  0  0  0  0  0  0  0  0  0
    4.3488   -0.1984    0.0000 C   0  0  0  0  0  0  0  0  0  0  0  0
    4.7270    1.2531    0.0000 C   0  0  0  0  0  0  0  0  0  0  0  0
    6.1732    1.6514    0.0000 O   0  0  0  0  0  0  0  0  0  0  0  0
    7.2412    0.5981    0.0000 S   0  0  0  0  0  0  0  0  0  0  0  0
    6.1879   -0.4699    0.0000 O   0  0  0  0  0  0  0  0  0  0  0  0
    8.2945    1.6661    0.0000 O   0  0  0  0  0  0  0  0  0  0  0  0
    8.3091   -0.4552    0.0000 O   0  0  0  0  0  0  0  0  0  0  0  0
    3.6590    2.3064    0.0000 C   0  0  0  0  0  0  0  0  0  0  0  0
    2.2129    1.9082    0.0000 C   0  0  0  0  0  0  0  0  0  0  0  0
    1.8347    0.4567    0.0000 C   0  0  0  0  0  0  0  0  0  0  0  0
    0.7667    1.5100    0.0000 C   0  0  0  0  0  0  0  0  0  0  0  0
    0.3885    0.0584    0.0000 C   0  0  0  0  0  0  0  0  0  0  0  0
   -0.6795    1.1117    0.0000 C   0  0  0  0  0  0  0  0  0  0  0  0
   -2.1256    0.7135    0.0000 C   0  0  0  0  0  0  0  0  0  0  0  0
   -3.1936    1.7668    0.0000 O   0  0  0  0  0  0  0  0  0  0  0  0
   -2.5038   -0.7381    0.0000 C   0  0  0  0  0  0  0  0  0  0  0  0
   -3.6760    0.1978    0.0000 C   0  0  0  0  0  0  0  0  0  0  0  0
  2  1  1  6
  2  3  1  0
  3  4  1  0
  4  5  1  0
  5  6  2  0
  2  7  1  0
  7  8  1  6
  8  9  1  0
 10  9  1  6
 10 11  1  0
 11 12  1  1
 12 13  1  1
 12 14  1  0
 15 14  1  1
 15 16  1  0
 16 17  1  0
 17 18  1  1
 18 19  1  0
 19 20  2  0
 19 21  2  0
 19 22  1  0
 17 23  1  0
 23 24  1  0
 24 25  1  0
 25 26  1  6
 25 27  1  0
 27 28  1  6
 28 29  1  0
 29 30  1  6
 29 31  1  0
 31 32  1  6
 31  7  1  0
 31 10  1  0
 27 11  1  0
 25 15  1  0
M  END
>  <MS_ID>  (2684) 
MS2775

>  <SMILES>  (2684) 
C[C@H](CCC=O)[C@H]1CC[C@H]2[C@@H]3[C@H](O)C[C@@H]4C[C@H](OS(=O)(=O)O)CC[C@]4(C)[C@H]3C[C@@H](O)[C@]12C

>  <Structure_dimension>  (2684) 
2D

$$$$
MS2776
     RDKit          2D

 30 33  0  0  0  0  0  0  0  0999 V2000
   -4.7398   -2.5888    0.0000 C   0  0  0  0  0  0  0  0  0  0  0  0
   -3.5878   -1.6281    0.0000 C   0  0  0  0  0  0  0  0  0  0  0  0
   -3.8439   -0.1501    0.0000 C   0  0  0  0  0  0  0  0  0  0  0  0
   -5.2518    0.3671    0.0000 C   0  0  0  0  0  0  0  0  0  0  0  0
   -5.5079    1.8451    0.0000 C   0  0  0  0  0  0  0  0  0  0  0  0
   -4.3559    2.8058    0.0000 O   0  0  0  0  0  0  0  0  0  0  0  0
   -6.9158    2.3624    0.0000 O   0  0  0  0  0  0  0  0  0  0  0  0
   -2.1799   -2.1454    0.0000 C   0  0  0  0  0  0  0  0  0  0  0  0
   -1.7708   -3.5885    0.0000 C   0  0  0  0  0  0  0  0  0  0  0  0
   -0.2718   -3.6454    0.0000 C   0  0  0  0  0  0  0  0  0  0  0  0
    0.2455   -2.2374    0.0000 C   0  0  0  0  0  0  0  0  0  0  0  0
    1.6379   -1.6797    0.0000 C   0  0  0  0  0  0  0  0  0  0  0  0
    2.8171   -2.6068    0.0000 C   0  0  0  0  0  0  0  0  0  0  0  0
    4.2096   -2.0491    0.0000 C   0  0  0  0  0  0  0  0  0  0  0  0
    4.4228   -0.5643    0.0000 C   0  0  0  0  0  0  0  0  0  0  0  0
    5.8153   -0.0066    0.0000 C   0  0  0  0  0  0  0  0  0  0  0  0
    6.0285    1.4782    0.0000 C   0  0  0  0  0  0  0  0  0  0  0  0
    7.4210    2.0359    0.0000 O   0  0  0  0  0  0  0  0  0  0  0  0
    4.8493    2.4052    0.0000 C   0  0  0  0  0  0  0  0  0  0  0  0
    3.4569    1.8475    0.0000 C   0  0  0  0  0  0  0  0  0  0  0  0
    3.2436    0.3628    0.0000 C   0  0  0  0  0  0  0  0  0  0  0  0
    2.0644    1.2898    0.0000 C   0  0  0  0  0  0  0  0  0  0  0  0
    1.8512   -0.1950    0.0000 C   0  0  0  0  0  0  0  0  0  0  0  0
    0.6719    0.7321    0.0000 C   0  0  0  0  0  0  0  0  0  0  0  0
   -0.7205    0.1744    0.0000 C   0  0  0  0  0  0  0  0  0  0  0  0
   -1.8998    1.1014    0.0000 C   0  0  0  0  0  0  0  0  0  0  0  0
   -1.6865    2.5862    0.0000 C   0  0  0  0  0  0  0  0  0  0  0  0
   -2.8657    3.5133    0.0000 O   0  0  0  0  0  0  0  0  0  0  0  0
   -0.9338   -1.3104    0.0000 C   0  0  0  0  0  0  0  0  0  0  0  0
   -2.2034   -0.5117    0.0000 C   0  0  0  0  0  0  0  0  0  0  0  0
  2  1  1  6
  2  3  1  0
  3  4  1  0
  4  5  1  0
  5  6  2  0
  5  7  1  0
  2  8  1  0
  8  9  1  6
  9 10  1  0
 11 10  1  6
 11 12  1  0
 12 13  1  1
 13 14  1  0
 15 14  1  1
 15 16  1  0
 16 17  1  0
 17 18  1  1
 17 19  1  0
 19 20  1  0
 20 21  1  0
 21 22  1  6
 21 23  1  0
 23 24  1  6
 24 25  1  0
 25 26  1  6
 26 27  1  0
 27 28  1  0
 25 29  1  0
 29 30  1  6
 29  8  1  0
 29 11  1  0
 23 12  1  0
 21 15  1  0
M  END
>  <MS_ID>  (2685) 
MS2776

>  <SMILES>  (2685) 
C[C@H](CCC(=O)O)[C@H]1CC[C@H]2[C@@H]3CC[C@@H]4C[C@H](O)CC[C@]4(C)[C@H]3C[C@@H](CCO)[C@]12C

>  <Structure_dimension>  (2685) 
2D

$$$$
MS2777
     RDKit          2D

 35 38  0  0  0  0  0  0  0  0999 V2000
   -1.3034   -5.4705    0.0000 C   0  0  0  0  0  0  0  0  0  0  0  0
   -0.9434   -4.0144    0.0000 C   0  0  0  0  0  0  0  0  0  0  0  0
   -2.0245   -2.9745    0.0000 C   0  0  0  0  0  0  0  0  0  0  0  0
   -3.4656   -3.3909    0.0000 C   0  0  0  0  0  0  0  0  0  0  0  0
   -4.5467   -2.3511    0.0000 C   0  0  0  0  0  0  0  0  0  0  0  0
   -5.9877   -2.7674    0.0000 O   0  0  0  0  0  0  0  0  0  0  0  0
   -4.1867   -0.8949    0.0000 O   0  0  0  0  0  0  0  0  0  0  0  0
   -5.2678    0.1449    0.0000 C   0  0  0  0  0  0  0  0  0  0  0  0
   -6.7089   -0.2714    0.0000 O   0  0  0  0  0  0  0  0  0  0  0  0
   -4.9078    1.6011    0.0000 C   0  0  0  0  0  0  0  0  0  0  0  0
   -5.9889    2.6409    0.0000 O   0  0  0  0  0  0  0  0  0  0  0  0
   -5.6290    4.0971    0.0000 C   0  0  0  0  0  0  0  0  0  0  0  0
   -6.7101    5.1369    0.0000 C   0  0  0  0  0  0  0  0  0  0  0  0
   -6.3501    6.5931    0.0000 O   0  0  0  0  0  0  0  0  0  0  0  0
    0.4976   -3.5980    0.0000 C   0  0  0  0  0  0  0  0  0  0  0  0
    1.6815   -4.5191    0.0000 C   0  0  0  0  0  0  0  0  0  0  0  0
    2.9234   -3.6779    0.0000 C   0  0  0  0  0  0  0  0  0  0  0  0
    2.5070   -2.2368    0.0000 C   0  0  0  0  0  0  0  0  0  0  0  0
    3.2994   -0.9631    0.0000 C   0  0  0  0  0  0  0  0  0  0  0  0
    4.7986   -1.0125    0.0000 C   0  0  0  0  0  0  0  0  0  0  0  0
    5.5054   -2.3355    0.0000 O   0  0  0  0  0  0  0  0  0  0  0  0
    5.5909    0.2612    0.0000 C   0  0  0  0  0  0  0  0  0  0  0  0
    4.8840    1.5842    0.0000 C   0  0  0  0  0  0  0  0  0  0  0  0
    5.6763    2.8579    0.0000 C   0  0  0  0  0  0  0  0  0  0  0  0
    4.9695    4.1809    0.0000 C   0  0  0  0  0  0  0  0  0  0  0  0
    5.7618    5.4545    0.0000 O   0  0  0  0  0  0  0  0  0  0  0  0
    3.4703    4.2302    0.0000 C   0  0  0  0  0  0  0  0  0  0  0  0
    2.6780    2.9565    0.0000 C   0  0  0  0  0  0  0  0  0  0  0  0
    3.3848    1.6335    0.0000 C   0  0  0  0  0  0  0  0  0  0  0  0
    1.8856    1.6829    0.0000 C   0  0  0  0  0  0  0  0  0  0  0  0
    2.5925    0.3599    0.0000 C   0  0  0  0  0  0  0  0  0  0  0  0
    1.0933    0.4092    0.0000 C   0  0  0  0  0  0  0  0  0  0  0  0
    0.3010   -0.8644    0.0000 C   0  0  0  0  0  0  0  0  0  0  0  0
    1.0078   -2.1875    0.0000 C   0  0  0  0  0  0  0  0  0  0  0  0
   -0.4883   -2.2951    0.0000 C   0  0  0  0  0  0  0  0  0  0  0  0
  2  1  1  6
  2  3  1  0
  3  4  1  0
  4  5  1  0
  5  6  2  0
  5  7  1  0
  7  8  1  0
  8  9  2  0
  8 10  1  0
 10 11  1  0
 11 12  1  0
 12 13  1  0
 13 14  1  0
  2 15  1  0
 15 16  1  6
 16 17  1  0
 18 17  1  6
 18 19  1  0
 19 20  1  1
 20 21  1  6
 20 22  1  0
 23 22  1  1
 23 24  1  0
 24 25  1  0
 25 26  1  1
 25 27  1  0
 27 28  1  0
 28 29  1  0
 29 30  1  6
 29 31  1  0
 31 32  1  6
 32 33  1  0
 33 34  1  0
 34 35  1  6
 34 15  1  0
 34 18  1  0
 31 19  1  0
 29 23  1  0
M  END
>  <MS_ID>  (2686) 
MS2777

>  <SMILES>  (2686) 
C[C@H](CCC(=O)OC(=O)COCCO)[C@H]1CC[C@H]2[C@@H]3[C@@H](O)C[C@@H]4C[C@H](O)CC[C@]4(C)[C@H]3CC[C@]12C

>  <Structure_dimension>  (2686) 
2D

$$$$
MS2778
     RDKit          2D

 34 37  0  0  0  0  0  0  0  0999 V2000
   -2.4332   -4.0123    0.0000 C   0  0  0  0  0  0  0  0  0  0  0  0
   -1.6871   -2.7110    0.0000 C   0  0  0  0  0  0  0  0  0  0  0  0
   -2.4410   -1.4142    0.0000 C   0  0  0  0  0  0  0  0  0  0  0  0
   -3.9410   -1.4187    0.0000 C   0  0  0  0  0  0  0  0  0  0  0  0
   -4.6949   -0.1220    0.0000 C   0  0  0  0  0  0  0  0  0  0  0  0
   -3.9488    1.1793    0.0000 O   0  0  0  0  0  0  0  0  0  0  0  0
   -6.1949   -0.1265    0.0000 N   0  0  0  0  0  0  0  0  0  0  0  0
   -6.9488    1.1703    0.0000 C   0  0  0  0  0  0  0  0  0  0  0  0
   -8.4488    1.1657    0.0000 C   0  0  0  0  0  0  0  0  0  0  0  0
   -9.2027    2.4625    0.0000 C   0  0  0  0  0  0  0  0  0  0  0  0
   -8.4567    3.7638    0.0000 O   0  0  0  0  0  0  0  0  0  0  0  0
  -10.7027    2.4580    0.0000 O   0  0  0  0  0  0  0  0  0  0  0  0
   -0.1871   -2.7065    0.0000 C   0  0  0  0  0  0  0  0  0  0  0  0
    0.6982   -3.9173    0.0000 C   0  0  0  0  0  0  0  0  0  0  0  0
    0.2390   -5.3453    0.0000 O   0  0  0  0  0  0  0  0  0  0  0  0
    2.1234   -3.4495    0.0000 C   0  0  0  0  0  0  0  0  0  0  0  0
    2.1189   -1.9495    0.0000 C   0  0  0  0  0  0  0  0  0  0  0  0
    3.2306   -0.9424    0.0000 C   0  0  0  0  0  0  0  0  0  0  0  0
    4.6586   -1.4017    0.0000 C   0  0  0  0  0  0  0  0  0  0  0  0
    4.9749   -2.8679    0.0000 O   0  0  0  0  0  0  0  0  0  0  0  0
    5.7702   -0.3946    0.0000 C   0  0  0  0  0  0  0  0  0  0  0  0
    5.4539    1.0717    0.0000 C   0  0  0  0  0  0  0  0  0  0  0  0
    6.5656    2.0787    0.0000 C   0  0  0  0  0  0  0  0  0  0  0  0
    6.2493    3.5450    0.0000 C   0  0  0  0  0  0  0  0  0  0  0  0
    7.3610    4.5521    0.0000 O   0  0  0  0  0  0  0  0  0  0  0  0
    4.8214    4.0042    0.0000 C   0  0  0  0  0  0  0  0  0  0  0  0
    3.7097    2.9972    0.0000 C   0  0  0  0  0  0  0  0  0  0  0  0
    4.0260    1.5309    0.0000 C   0  0  0  0  0  0  0  0  0  0  0  0
    2.5980    1.9901    0.0000 C   0  0  0  0  0  0  0  0  0  0  0  0
    2.9143    0.5238    0.0000 C   0  0  0  0  0  0  0  0  0  0  0  0
    1.4863    0.9831    0.0000 C   0  0  0  0  0  0  0  0  0  0  0  0
    0.3746   -0.0240    0.0000 C   0  0  0  0  0  0  0  0  0  0  0  0
    0.6909   -1.4903    0.0000 C   0  0  0  0  0  0  0  0  0  0  0  0
   -0.7772   -1.1828    0.0000 C   0  0  0  0  0  0  0  0  0  0  0  0
  2  1  1  6
  2  3  1  0
  3  4  1  0
  4  5  1  0
  5  6  2  0
  5  7  1  0
  7  8  1  0
  8  9  1  0
  9 10  1  0
 10 11  2  0
 10 12  1  0
 13  2  1  6
 13 14  1  0
 14 15  1  1
 14 16  1  0
 17 16  1  6
 17 18  1  0
 18 19  1  1
 19 20  1  1
 19 21  1  0
 22 21  1  1
 22 23  1  0
 23 24  1  0
 24 25  1  1
 24 26  1  0
 26 27  1  0
 27 28  1  0
 28 29  1  6
 28 30  1  0
 30 31  1  6
 31 32  1  0
 32 33  1  0
 33 34  1  6
 33 13  1  0
 33 17  1  0
 30 18  1  0
 28 22  1  0
M  END
>  <MS_ID>  (2687) 
MS2778

>  <SMILES>  (2687) 
C[C@H](CCC(=O)NCCC(=O)O)[C@H]1[C@H](O)C[C@H]2[C@@H]3[C@H](O)C[C@@H]4C[C@H](O)CC[C@]4(C)[C@H]3CC[C@]12C

>  <Structure_dimension>  (2687) 
2D

$$$$
MS2779
     RDKit          2D

 33 37  0  0  0  0  0  0  0  0999 V2000
   -3.0595   -3.4014    0.0000 C   0  0  0  0  0  0  0  0  0  0  0  0
   -2.0799   -2.2654    0.0000 C   0  0  0  0  0  0  0  0  0  0  0  0
   -2.5738   -0.8491    0.0000 C   0  0  0  0  0  0  0  0  0  0  0  0
   -4.0474   -0.5687    0.0000 C   0  0  0  0  0  0  0  0  0  0  0  0
   -4.5414    0.8476    0.0000 C   0  0  0  0  0  0  0  0  0  0  0  0
   -3.5618    1.9836    0.0000 O   0  0  0  0  0  0  0  0  0  0  0  0
   -6.0149    1.1280    0.0000 C   0  0  0  0  0  0  0  0  0  0  0  0
   -6.5089    2.5443    0.0000 C   0  0  0  0  0  0  0  0  0  0  0  0
   -7.9825    2.8247    0.0000 C   0  0  0  0  0  0  0  0  0  0  0  0
   -8.9621    1.6887    0.0000 N   0  0  0  0  0  0  0  0  0  0  0  0
   -8.4681    0.2724    0.0000 C   0  0  0  0  0  0  0  0  0  0  0  0
   -6.9945   -0.0080    0.0000 C   0  0  0  0  0  0  0  0  0  0  0  0
   -0.6063   -2.5458    0.0000 C   0  0  0  0  0  0  0  0  0  0  0  0
    0.0330   -3.9027    0.0000 C   0  0  0  0  0  0  0  0  0  0  0  0
    1.5211   -3.7140    0.0000 C   0  0  0  0  0  0  0  0  0  0  0  0
    1.8015   -2.2404    0.0000 C   0  0  0  0  0  0  0  0  0  0  0  0
    3.0841   -1.4628    0.0000 C   0  0  0  0  0  0  0  0  0  0  0  0
    4.3990   -2.1848    0.0000 C   0  0  0  0  0  0  0  0  0  0  0  0
    5.6816   -1.4072    0.0000 C   0  0  0  0  0  0  0  0  0  0  0  0
    5.6495    0.0925    0.0000 C   0  0  0  0  0  0  0  0  0  0  0  0
    6.9322    0.8702    0.0000 C   0  0  0  0  0  0  0  0  0  0  0  0
    6.9001    2.3698    0.0000 C   0  0  0  0  0  0  0  0  0  0  0  0
    8.1827    3.1475    0.0000 O   0  0  0  0  0  0  0  0  0  0  0  0
    5.5852    3.0918    0.0000 C   0  0  0  0  0  0  0  0  0  0  0  0
    4.3026    2.3142    0.0000 C   0  0  0  0  0  0  0  0  0  0  0  0
    4.3347    0.8145    0.0000 C   0  0  0  0  0  0  0  0  0  0  0  0
    3.0199    1.5365    0.0000 C   0  0  0  0  0  0  0  0  0  0  0  0
    3.0520    0.0369    0.0000 C   0  0  0  0  0  0  0  0  0  0  0  0
    1.7372    0.7589    0.0000 C   0  0  0  0  0  0  0  0  0  0  0  0
    0.4545   -0.0188    0.0000 C   0  0  0  0  0  0  0  0  0  0  0  0
   -0.8603    0.7032    0.0000 O   0  0  0  0  0  0  0  0  0  0  0  0
    0.4867   -1.5184    0.0000 C   0  0  0  0  0  0  0  0  0  0  0  0
   -0.8964   -0.9378    0.0000 C   0  0  0  0  0  0  0  0  0  0  0  0
  2  1  1  6
  2  3  1  0
  3  4  1  0
  4  5  1  0
  5  6  2  0
  5  7  1  0
  7  8  2  0
  8  9  1  0
  9 10  2  0
 10 11  1  0
 11 12  2  0
  2 13  1  0
 13 14  1  6
 14 15  1  0
 16 15  1  6
 16 17  1  0
 17 18  1  1
 18 19  1  0
 20 19  1  1
 20 21  1  0
 21 22  1  0
 22 23  1  1
 22 24  1  0
 24 25  1  0
 25 26  1  0
 26 27  1  6
 26 28  1  0
 28 29  1  6
 29 30  1  0
 30 31  1  1
 30 32  1  0
 32 33  1  6
 12  7  1  0
 32 13  1  0
 32 16  1  0
 28 17  1  0
 26 20  1  0
M  END
>  <MS_ID>  (2688) 
MS2779

>  <SMILES>  (2688) 
C[C@H](CCC(=O)c1ccncc1)[C@H]1CC[C@H]2[C@@H]3CC[C@@H]4C[C@H](O)CC[C@]4(C)[C@H]3C[C@H](O)[C@]12C

>  <Structure_dimension>  (2688) 
2D

$$$$
MS2780
     RDKit          2D

 40 44  0  0  0  0  0  0  0  0999 V2000
   -5.1872   -3.7639    0.0000 C   0  0  0  0  0  0  0  0  0  0  0  0
   -4.7379   -2.3328    0.0000 C   0  0  0  0  0  0  0  0  0  0  0  0
   -5.7526   -1.2281    0.0000 C   0  0  0  0  0  0  0  0  0  0  0  0
   -7.2166   -1.5545    0.0000 C   0  0  0  0  0  0  0  0  0  0  0  0
   -8.2313   -0.4498    0.0000 C   0  0  0  0  0  0  0  0  0  0  0  0
   -7.7820    0.9813    0.0000 O   0  0  0  0  0  0  0  0  0  0  0  0
   -9.6954   -0.7763    0.0000 O   0  0  0  0  0  0  0  0  0  0  0  0
   -3.2738   -2.0064    0.0000 C   0  0  0  0  0  0  0  0  0  0  0  0
   -2.1492   -2.9990    0.0000 C   0  0  0  0  0  0  0  0  0  0  0  0
   -0.8576   -2.2361    0.0000 C   0  0  0  0  0  0  0  0  0  0  0  0
   -1.1841   -0.7721    0.0000 C   0  0  0  0  0  0  0  0  0  0  0  0
   -0.3145    0.4501    0.0000 C   0  0  0  0  0  0  0  0  0  0  0  0
    1.1788    0.3082    0.0000 C   0  0  0  0  0  0  0  0  0  0  0  0
    2.0484    1.5304    0.0000 C   0  0  0  0  0  0  0  0  0  0  0  0
    3.5416    1.3884    0.0000 O   0  0  0  0  0  0  0  0  0  0  0  0
    4.1653    0.0242    0.0000 C   0  0  0  0  0  0  0  0  0  0  0  0
    3.2957   -1.1980    0.0000 O   0  0  0  0  0  0  0  0  0  0  0  0
    3.9194   -2.5622    0.0000 C   0  0  0  0  0  0  0  0  0  0  0  0
    3.0498   -3.7844    0.0000 C   0  0  0  0  0  0  0  0  0  0  0  0
    3.6735   -5.1486    0.0000 O   0  0  0  0  0  0  0  0  0  0  0  0
    1.5566   -3.6424    0.0000 O   0  0  0  0  0  0  0  0  0  0  0  0
    5.4127   -2.7042    0.0000 C   0  0  0  0  0  0  0  0  0  0  0  0
    6.0364   -4.0684    0.0000 O   0  0  0  0  0  0  0  0  0  0  0  0
    6.2823   -1.4820    0.0000 C   0  0  0  0  0  0  0  0  0  0  0  0
    7.7755   -1.6239    0.0000 O   0  0  0  0  0  0  0  0  0  0  0  0
    5.6586   -0.1178    0.0000 C   0  0  0  0  0  0  0  0  0  0  0  0
    6.5282    1.1044    0.0000 O   0  0  0  0  0  0  0  0  0  0  0  0
    1.4247    2.8946    0.0000 C   0  0  0  0  0  0  0  0  0  0  0  0
    2.2943    4.1168    0.0000 C   0  0  0  0  0  0  0  0  0  0  0  0
    1.6706    5.4810    0.0000 C   0  0  0  0  0  0  0  0  0  0  0  0
    2.5402    6.7032    0.0000 O   0  0  0  0  0  0  0  0  0  0  0  0
    0.1774    5.6230    0.0000 C   0  0  0  0  0  0  0  0  0  0  0  0
   -0.6922    4.4007    0.0000 C   0  0  0  0  0  0  0  0  0  0  0  0
   -0.0686    3.0366    0.0000 C   0  0  0  0  0  0  0  0  0  0  0  0
   -1.5618    3.1785    0.0000 C   0  0  0  0  0  0  0  0  0  0  0  0
   -0.9382    1.8143    0.0000 C   0  0  0  0  0  0  0  0  0  0  0  0
   -2.4314    1.9563    0.0000 C   0  0  0  0  0  0  0  0  0  0  0  0
   -3.3010    0.7341    0.0000 C   0  0  0  0  0  0  0  0  0  0  0  0
   -2.6773   -0.6301    0.0000 C   0  0  0  0  0  0  0  0  0  0  0  0
   -4.1773   -0.6450    0.0000 C   0  0  0  0  0  0  0  0  0  0  0  0
  2  1  1  6
  2  3  1  0
  3  4  1  0
  4  5  1  0
  5  6  2  0
  5  7  1  0
  2  8  1  0
  8  9  1  6
  9 10  1  0
 11 10  1  6
 11 12  1  0
 12 13  1  1
 13 14  1  0
 14 15  1  1
 16 15  1  1
 16 17  1  0
 17 18  1  0
 18 19  1  1
 19 20  2  0
 19 21  1  0
 18 22  1  0
 22 23  1  6
 22 24  1  0
 24 25  1  1
 24 26  1  0
 26 27  1  6
 14 28  1  0
 28 29  1  1
 29 30  1  0
 30 31  1  1
 30 32  1  0
 32 33  1  0
 33 34  1  0
 34 35  1  6
 34 36  1  0
 36 37  1  6
 37 38  1  0
 38 39  1  0
 39 40  1  6
 39  8  1  0
 39 11  1  0
 36 12  1  0
 26 16  1  0
 34 28  1  0
M  END
>  <MS_ID>  (2689) 
MS2780

>  <SMILES>  (2689) 
C[C@H](CCC(=O)O)[C@H]1CC[C@H]2[C@@H]3C[C@H](O[C@@H]4O[C@H](C(=O)O)[C@@H](O)[C@H](O)[C@H]4O)[C@@H]4C[C@H](O)CC[C@]4(C)[C@H]3CC[C@]12C

>  <Structure_dimension>  (2689) 
2D

$$$$
MS2781
     RDKit          2D

 34 37  0  0  0  0  0  0  0  0999 V2000
  -11.6490    3.3708    0.0000 C   0  0  0  0  0  0  0  0  0  0  0  0
  -10.8671    2.0907    0.0000 C   0  0  0  0  0  0  0  0  0  0  0  0
   -9.3676    2.1278    0.0000 C   0  0  0  0  0  0  0  0  0  0  0  0
   -8.5857    0.8477    0.0000 C   0  0  0  0  0  0  0  0  0  0  0  0
   -7.0861    0.8848    0.0000 C   0  0  0  0  0  0  0  0  0  0  0  0
   -6.3043   -0.3953    0.0000 C   0  0  0  0  0  0  0  0  0  0  0  0
   -4.8047   -0.3582    0.0000 C   0  0  0  0  0  0  0  0  0  0  0  0
   -4.0871    0.9590    0.0000 O   0  0  0  0  0  0  0  0  0  0  0  0
   -4.0228   -1.6383    0.0000 C   0  0  0  0  0  0  0  0  0  0  0  0
   -2.5233   -1.6012    0.0000 C   0  0  0  0  0  0  0  0  0  0  0  0
   -1.7414   -2.8813    0.0000 C   0  0  0  0  0  0  0  0  0  0  0  0
   -2.4590   -4.1985    0.0000 C   0  0  0  0  0  0  0  0  0  0  0  0
   -0.2418   -2.8442    0.0000 C   0  0  0  0  0  0  0  0  0  0  0  0
    0.6696   -4.0356    0.0000 C   0  0  0  0  0  0  0  0  0  0  0  0
    2.0843   -3.5369    0.0000 C   0  0  0  0  0  0  0  0  0  0  0  0
    2.0472   -2.0374    0.0000 C   0  0  0  0  0  0  0  0  0  0  0  0
    3.1367   -1.0064    0.0000 C   0  0  0  0  0  0  0  0  0  0  0  0
    4.5743   -1.4345    0.0000 C   0  0  0  0  0  0  0  0  0  0  0  0
    4.9224   -2.8936    0.0000 O   0  0  0  0  0  0  0  0  0  0  0  0
    5.6639   -0.4035    0.0000 C   0  0  0  0  0  0  0  0  0  0  0  0
    7.1015   -0.8317    0.0000 O   0  0  0  0  0  0  0  0  0  0  0  0
    5.3158    1.0555    0.0000 C   0  0  0  0  0  0  0  0  0  0  0  0
    6.4054    2.0865    0.0000 C   0  0  0  0  0  0  0  0  0  0  0  0
    6.0573    3.5455    0.0000 C   0  0  0  0  0  0  0  0  0  0  0  0
    7.1469    4.5765    0.0000 O   0  0  0  0  0  0  0  0  0  0  0  0
    4.6197    3.9736    0.0000 C   0  0  0  0  0  0  0  0  0  0  0  0
    3.5302    2.9427    0.0000 C   0  0  0  0  0  0  0  0  0  0  0  0
    3.8782    1.4836    0.0000 C   0  0  0  0  0  0  0  0  0  0  0  0
    2.4406    1.9117    0.0000 C   0  0  0  0  0  0  0  0  0  0  0  0
    2.7887    0.4527    0.0000 C   0  0  0  0  0  0  0  0  0  0  0  0
    1.3511    0.8808    0.0000 C   0  0  0  0  0  0  0  0  0  0  0  0
    0.2615   -0.1502    0.0000 C   0  0  0  0  0  0  0  0  0  0  0  0
    0.6096   -1.6093    0.0000 C   0  0  0  0  0  0  0  0  0  0  0  0
   -0.8649   -1.3338    0.0000 C   0  0  0  0  0  0  0  0  0  0  0  0
  1  2  1  0
  2  3  1  0
  3  4  1  0
  4  5  1  0
  5  6  1  0
  6  7  1  0
  7  8  2  0
  7  9  1  0
  9 10  1  0
 10 11  1  0
 11 12  1  6
 11 13  1  0
 13 14  1  6
 14 15  1  0
 16 15  1  6
 16 17  1  0
 17 18  1  1
 18 19  1  1
 18 20  1  0
 20 21  1  1
 20 22  1  0
 22 23  1  1
 23 24  1  0
 24 25  1  1
 24 26  1  0
 26 27  1  0
 27 28  1  0
 28 29  1  6
 28 30  1  0
 30 31  1  6
 31 32  1  0
 32 33  1  0
 33 34  1  6
 33 13  1  0
 33 16  1  0
 30 17  1  0
 28 22  1  0
M  END
>  <MS_ID>  (2690) 
MS2781

>  <SMILES>  (2690) 
CCCCCCC(=O)CC[C@@H](C)[C@H]1CC[C@H]2[C@@H]3[C@H](O)[C@H](O)[C@@H]4C[C@H](O)CC[C@]4(C)[C@H]3CC[C@]12C

>  <Structure_dimension>  (2690) 
2D

$$$$
MS2782
     RDKit          2D

 29 32  0  0  0  0  0  0  0  0999 V2000
   -5.4679   -1.9280    0.0000 C   0  0  0  0  0  0  0  0  0  0  0  0
   -4.2629   -1.0348    0.0000 C   0  0  0  0  0  0  0  0  0  0  0  0
   -4.4339    0.4554    0.0000 C   0  0  0  0  0  0  0  0  0  0  0  0
   -5.8100    1.0524    0.0000 C   0  0  0  0  0  0  0  0  0  0  0  0
   -5.9810    2.5426    0.0000 C   0  0  0  0  0  0  0  0  0  0  0  0
   -4.7760    3.4359    0.0000 O   0  0  0  0  0  0  0  0  0  0  0  0
   -7.3571    3.1396    0.0000 O   0  0  0  0  0  0  0  0  0  0  0  0
   -2.8868   -1.6318    0.0000 C   0  0  0  0  0  0  0  0  0  0  0  0
   -2.5609   -3.0959    0.0000 C   0  0  0  0  0  0  0  0  0  0  0  0
   -1.0677   -3.2385    0.0000 C   0  0  0  0  0  0  0  0  0  0  0  0
   -0.4707   -1.8624    0.0000 C   0  0  0  0  0  0  0  0  0  0  0  0
    0.9514   -1.3853    0.0000 C   0  0  0  0  0  0  0  0  0  0  0  0
    2.0756   -2.3783    0.0000 C   0  0  0  0  0  0  0  0  0  0  0  0
    1.7778   -3.8484    0.0000 O   0  0  0  0  0  0  0  0  0  0  0  0
    3.4977   -1.9011    0.0000 C   0  0  0  0  0  0  0  0  0  0  0  0
    3.7956   -0.4310    0.0000 C   0  0  0  0  0  0  0  0  0  0  0  0
    5.2177    0.0461    0.0000 C   0  0  0  0  0  0  0  0  0  0  0  0
    5.5155    1.5163    0.0000 C   0  0  0  0  0  0  0  0  0  0  0  0
    6.9376    1.9934    0.0000 C   0  0  0  0  0  0  0  0  0  0  0  0
    8.0618    1.0004    0.0000 F   0  0  0  0  0  0  0  0  0  0  0  0
    4.3912    2.5093    0.0000 C   0  0  0  0  0  0  0  0  0  0  0  0
    2.9692    2.0321    0.0000 C   0  0  0  0  0  0  0  0  0  0  0  0
    2.6713    0.5620    0.0000 C   0  0  0  0  0  0  0  0  0  0  0  0
    1.5471    1.5550    0.0000 C   0  0  0  0  0  0  0  0  0  0  0  0
    1.2492    0.0849    0.0000 C   0  0  0  0  0  0  0  0  0  0  0  0
    0.1250    1.0779    0.0000 C   0  0  0  0  0  0  0  0  0  0  0  0
   -1.2971    0.6007    0.0000 C   0  0  0  0  0  0  0  0  0  0  0  0
   -1.5950   -0.8694    0.0000 C   0  0  0  0  0  0  0  0  0  0  0  0
   -2.8169    0.0007    0.0000 C   0  0  0  0  0  0  0  0  0  0  0  0
  2  1  1  6
  2  3  1  0
  3  4  1  0
  4  5  1  0
  5  6  2  0
  5  7  1  0
  2  8  1  0
  8  9  1  6
  9 10  1  0
 11 10  1  6
 11 12  1  0
 12 13  1  1
 13 14  1  6
 13 15  1  0
 16 15  1  1
 16 17  1  0
 17 18  1  0
 18 19  1  6
 19 20  1  0
 18 21  1  0
 21 22  1  0
 22 23  1  0
 23 24  1  6
 23 25  1  0
 25 26  1  6
 26 27  1  0
 27 28  1  0
 28 29  1  6
 28  8  1  0
 28 11  1  0
 25 12  1  0
 23 16  1  0
M  END
>  <MS_ID>  (2691) 
MS2782

>  <SMILES>  (2691) 
C[C@H](CCC(=O)O)[C@H]1CC[C@H]2[C@@H]3[C@@H](O)C[C@@H]4C[C@@H](CF)CC[C@]4(C)[C@H]3CC[C@]12C

>  <Structure_dimension>  (2691) 
2D

$$$$
MS2783
     RDKit          2D

 29 32  0  0  0  0  0  0  0  0999 V2000
   -5.4679   -1.9280    0.0000 C   0  0  0  0  0  0  0  0  0  0  0  0
   -4.2629   -1.0348    0.0000 C   0  0  0  0  0  0  0  0  0  0  0  0
   -4.4339    0.4554    0.0000 C   0  0  0  0  0  0  0  0  0  0  0  0
   -5.8100    1.0524    0.0000 C   0  0  0  0  0  0  0  0  0  0  0  0
   -5.9810    2.5426    0.0000 C   0  0  0  0  0  0  0  0  0  0  0  0
   -4.7760    3.4359    0.0000 O   0  0  0  0  0  0  0  0  0  0  0  0
   -7.3571    3.1396    0.0000 O   0  0  0  0  0  0  0  0  0  0  0  0
   -2.8868   -1.6318    0.0000 C   0  0  0  0  0  0  0  0  0  0  0  0
   -2.5609   -3.0959    0.0000 C   0  0  0  0  0  0  0  0  0  0  0  0
   -1.0677   -3.2385    0.0000 C   0  0  0  0  0  0  0  0  0  0  0  0
   -0.4707   -1.8624    0.0000 C   0  0  0  0  0  0  0  0  0  0  0  0
    0.9514   -1.3853    0.0000 C   0  0  0  0  0  0  0  0  0  0  0  0
    2.0756   -2.3783    0.0000 C   0  0  0  0  0  0  0  0  0  0  0  0
    1.7778   -3.8484    0.0000 O   0  0  0  0  0  0  0  0  0  0  0  0
    3.4977   -1.9011    0.0000 C   0  0  0  0  0  0  0  0  0  0  0  0
    3.7956   -0.4310    0.0000 C   0  0  0  0  0  0  0  0  0  0  0  0
    5.2177    0.0461    0.0000 C   0  0  0  0  0  0  0  0  0  0  0  0
    5.5155    1.5163    0.0000 C   0  0  0  0  0  0  0  0  0  0  0  0
    6.9376    1.9934    0.0000 C   0  0  0  0  0  0  0  0  0  0  0  0
    8.0618    1.0004    0.0000 O   0  0  0  0  0  0  0  0  0  0  0  0
    4.3912    2.5093    0.0000 C   0  0  0  0  0  0  0  0  0  0  0  0
    2.9692    2.0321    0.0000 C   0  0  0  0  0  0  0  0  0  0  0  0
    2.6713    0.5620    0.0000 C   0  0  0  0  0  0  0  0  0  0  0  0
    1.5471    1.5550    0.0000 C   0  0  0  0  0  0  0  0  0  0  0  0
    1.2492    0.0849    0.0000 C   0  0  0  0  0  0  0  0  0  0  0  0
    0.1250    1.0779    0.0000 C   0  0  0  0  0  0  0  0  0  0  0  0
   -1.2971    0.6007    0.0000 C   0  0  0  0  0  0  0  0  0  0  0  0
   -1.5950   -0.8694    0.0000 C   0  0  0  0  0  0  0  0  0  0  0  0
   -2.8169    0.0007    0.0000 C   0  0  0  0  0  0  0  0  0  0  0  0
  2  1  1  6
  2  3  1  0
  3  4  1  0
  4  5  1  0
  5  6  2  0
  5  7  1  0
  2  8  1  0
  8  9  1  6
  9 10  1  0
 11 10  1  6
 11 12  1  0
 12 13  1  1
 13 14  1  6
 13 15  1  0
 16 15  1  1
 16 17  1  0
 17 18  1  0
 18 19  1  6
 19 20  1  0
 18 21  1  0
 21 22  1  0
 22 23  1  0
 23 24  1  6
 23 25  1  0
 25 26  1  6
 26 27  1  0
 27 28  1  0
 28 29  1  6
 28  8  1  0
 28 11  1  0
 25 12  1  0
 23 16  1  0
M  END
>  <MS_ID>  (2692) 
MS2783

>  <SMILES>  (2692) 
C[C@H](CCC(=O)O)[C@H]1CC[C@H]2[C@@H]3[C@@H](O)C[C@@H]4C[C@@H](CO)CC[C@]4(C)[C@H]3CC[C@]12C

>  <Structure_dimension>  (2692) 
2D

$$$$
MS2784
     RDKit          2D

 30 33  0  0  0  0  0  0  0  0999 V2000
   -4.7398   -2.5888    0.0000 C   0  0  0  0  0  0  0  0  0  0  0  0
   -3.5878   -1.6281    0.0000 C   0  0  0  0  0  0  0  0  0  0  0  0
   -3.8439   -0.1501    0.0000 C   0  0  0  0  0  0  0  0  0  0  0  0
   -5.2518    0.3671    0.0000 C   0  0  0  0  0  0  0  0  0  0  0  0
   -5.5079    1.8451    0.0000 C   0  0  0  0  0  0  0  0  0  0  0  0
   -4.3559    2.8058    0.0000 O   0  0  0  0  0  0  0  0  0  0  0  0
   -6.9158    2.3624    0.0000 O   0  0  0  0  0  0  0  0  0  0  0  0
   -2.1799   -2.1454    0.0000 C   0  0  0  0  0  0  0  0  0  0  0  0
   -1.7708   -3.5885    0.0000 C   0  0  0  0  0  0  0  0  0  0  0  0
   -0.2718   -3.6454    0.0000 C   0  0  0  0  0  0  0  0  0  0  0  0
    0.2455   -2.2374    0.0000 C   0  0  0  0  0  0  0  0  0  0  0  0
    1.6379   -1.6797    0.0000 C   0  0  0  0  0  0  0  0  0  0  0  0
    2.8171   -2.6068    0.0000 C   0  0  0  0  0  0  0  0  0  0  0  0
    4.2096   -2.0491    0.0000 C   0  0  0  0  0  0  0  0  0  0  0  0
    4.4228   -0.5643    0.0000 C   0  0  0  0  0  0  0  0  0  0  0  0
    5.8153   -0.0066    0.0000 C   0  0  0  0  0  0  0  0  0  0  0  0
    6.0285    1.4782    0.0000 C   0  0  0  0  0  0  0  0  0  0  0  0
    7.4210    2.0359    0.0000 O   0  0  0  0  0  0  0  0  0  0  0  0
    4.8493    2.4052    0.0000 C   0  0  0  0  0  0  0  0  0  0  0  0
    3.4569    1.8475    0.0000 C   0  0  0  0  0  0  0  0  0  0  0  0
    3.2436    0.3628    0.0000 C   0  0  0  0  0  0  0  0  0  0  0  0
    2.0644    1.2898    0.0000 C   0  0  0  0  0  0  0  0  0  0  0  0
    1.8512   -0.1950    0.0000 C   0  0  0  0  0  0  0  0  0  0  0  0
    0.6719    0.7321    0.0000 C   0  0  0  0  0  0  0  0  0  0  0  0
   -0.7205    0.1744    0.0000 C   0  0  0  0  0  0  0  0  0  0  0  0
   -1.8998    1.1014    0.0000 C   0  0  0  0  0  0  0  0  0  0  0  0
   -1.6865    2.5862    0.0000 C   0  0  0  0  0  0  0  0  0  0  0  0
   -2.8657    3.5133    0.0000 O   0  0  0  0  0  0  0  0  0  0  0  0
   -0.9338   -1.3104    0.0000 C   0  0  0  0  0  0  0  0  0  0  0  0
   -2.2034   -0.5117    0.0000 C   0  0  0  0  0  0  0  0  0  0  0  0
  2  1  1  6
  2  3  1  0
  3  4  1  0
  4  5  1  0
  5  6  2  0
  5  7  1  0
  2  8  1  0
  8  9  1  6
  9 10  1  0
 11 10  1  6
 11 12  1  0
 12 13  1  1
 13 14  1  0
 15 14  1  1
 15 16  1  0
 16 17  1  0
 17 18  1  6
 17 19  1  0
 19 20  1  0
 20 21  1  0
 21 22  1  6
 21 23  1  0
 23 24  1  6
 24 25  1  0
 25 26  1  1
 26 27  1  0
 27 28  1  0
 25 29  1  0
 29 30  1  6
 29  8  1  0
 29 11  1  0
 23 12  1  0
 21 15  1  0
M  END
>  <MS_ID>  (2693) 
MS2784

>  <SMILES>  (2693) 
C[C@H](CCC(=O)O)[C@H]1CC[C@H]2[C@@H]3CC[C@@H]4C[C@@H](O)CC[C@]4(C)[C@H]3C[C@H](CCO)[C@]12C

>  <Structure_dimension>  (2693) 
2D

$$$$
MS2785
     RDKit          2D

 30 33  0  0  0  0  0  0  0  0999 V2000
   -4.5325   -2.9599    0.0000 C   0  0  0  0  0  0  0  0  0  0  0  0
   -3.7100   -1.7056    0.0000 C   0  0  0  0  0  0  0  0  0  0  0  0
   -4.3850   -0.3660    0.0000 C   0  0  0  0  0  0  0  0  0  0  0  0
   -5.8826   -0.2809    0.0000 C   0  0  0  0  0  0  0  0  0  0  0  0
   -6.5576    1.0587    0.0000 C   0  0  0  0  0  0  0  0  0  0  0  0
   -5.7351    2.3130    0.0000 O   0  0  0  0  0  0  0  0  0  0  0  0
   -8.0552    1.1438    0.0000 O   0  0  0  0  0  0  0  0  0  0  0  0
   -2.2124   -1.7907    0.0000 C   0  0  0  0  0  0  0  0  0  0  0  0
   -1.4010   -3.0523    0.0000 C   0  0  0  0  0  0  0  0  0  0  0  0
    0.0496   -2.6705    0.0000 C   0  0  0  0  0  0  0  0  0  0  0  0
    0.1347   -1.1730    0.0000 C   0  0  0  0  0  0  0  0  0  0  0  0
    1.3046   -0.2342    0.0000 C   0  0  0  0  0  0  0  0  0  0  0  0
    2.7026   -0.7779    0.0000 C   0  0  0  0  0  0  0  0  0  0  0  0
    2.9307   -2.2605    0.0000 C   0  0  0  0  0  0  0  0  0  0  0  0
    4.3286   -2.8043    0.0000 C   0  0  0  0  0  0  0  0  0  0  0  0
    4.5567   -4.2868    0.0000 C   0  0  0  0  0  0  0  0  0  0  0  0
    5.9547   -4.8306    0.0000 O   0  0  0  0  0  0  0  0  0  0  0  0
    3.8725    0.1608    0.0000 C   0  0  0  0  0  0  0  0  0  0  0  0
    3.6444    1.6434    0.0000 C   0  0  0  0  0  0  0  0  0  0  0  0
    4.8143    2.5822    0.0000 C   0  0  0  0  0  0  0  0  0  0  0  0
    4.5863    4.0648    0.0000 C   0  0  0  0  0  0  0  0  0  0  0  0
    3.1883    4.6085    0.0000 C   0  0  0  0  0  0  0  0  0  0  0  0
    2.0184    3.6697    0.0000 C   0  0  0  0  0  0  0  0  0  0  0  0
    2.2465    2.1872    0.0000 C   0  0  0  0  0  0  0  0  0  0  0  0
    0.8485    2.7309    0.0000 C   0  0  0  0  0  0  0  0  0  0  0  0
    1.0766    1.2484    0.0000 C   0  0  0  0  0  0  0  0  0  0  0  0
   -0.3214    1.7922    0.0000 C   0  0  0  0  0  0  0  0  0  0  0  0
   -1.4913    0.8534    0.0000 C   0  0  0  0  0  0  0  0  0  0  0  0
   -1.2632   -0.6292    0.0000 C   0  0  0  0  0  0  0  0  0  0  0  0
   -2.7104   -0.2345    0.0000 C   0  0  0  0  0  0  0  0  0  0  0  0
  2  1  1  6
  2  3  1  0
  3  4  1  0
  4  5  1  0
  5  6  2  0
  5  7  1  0
  2  8  1  0
  8  9  1  6
  9 10  1  0
 11 10  1  6
 11 12  1  0
 12 13  1  1
 13 14  1  1
 14 15  1  0
 15 16  1  0
 16 17  1  0
 13 18  1  0
 19 18  1  1
 19 20  1  0
 20 21  1  0
 21 22  1  0
 22 23  1  0
 23 24  1  0
 24 25  1  6
 24 26  1  0
 26 27  1  6
 27 28  1  0
 28 29  1  0
 29 30  1  6
 29  8  1  0
 29 11  1  0
 26 12  1  0
 24 19  1  0
M  END
>  <MS_ID>  (2694) 
MS2785

>  <SMILES>  (2694) 
C[C@H](CCC(=O)O)[C@H]1CC[C@H]2[C@@H]3[C@H](CCCO)C[C@@H]4CCCC[C@]4(C)[C@H]3CC[C@]12C

>  <Structure_dimension>  (2694) 
2D

$$$$
MS2786
     RDKit          2D

 35 38  0  0  0  0  0  0  0  0999 V2000
   -2.2692   -4.3020    0.0000 C   0  0  0  0  0  0  0  0  0  0  0  0
   -1.5509   -2.9851    0.0000 C   0  0  0  0  0  0  0  0  0  0  0  0
   -2.3322   -1.7047    0.0000 C   0  0  0  0  0  0  0  0  0  0  0  0
   -3.8318   -1.7410    0.0000 C   0  0  0  0  0  0  0  0  0  0  0  0
   -4.6130   -0.4606    0.0000 C   0  0  0  0  0  0  0  0  0  0  0  0
   -3.8947    0.8563    0.0000 O   0  0  0  0  0  0  0  0  0  0  0  0
   -6.1126   -0.4969    0.0000 N   0  0  0  0  0  0  0  0  0  0  0  0
   -6.8939    0.7835    0.0000 C   0  0  0  0  0  0  0  0  0  0  0  0
   -8.3934    0.7472    0.0000 C   0  0  0  0  0  0  0  0  0  0  0  0
   -9.1747    2.0277    0.0000 S   0  0  0  0  0  0  0  0  0  0  0  0
  -10.4552    1.2464    0.0000 O   0  0  0  0  0  0  0  0  0  0  0  0
   -7.8942    2.8089    0.0000 O   0  0  0  0  0  0  0  0  0  0  0  0
   -9.9560    3.3081    0.0000 O   0  0  0  0  0  0  0  0  0  0  0  0
   -0.0514   -2.9488    0.0000 C   0  0  0  0  0  0  0  0  0  0  0  0
    0.8595   -4.1406    0.0000 C   0  0  0  0  0  0  0  0  0  0  0  0
    2.2744   -3.6426    0.0000 C   0  0  0  0  0  0  0  0  0  0  0  0
    2.2380   -2.1431    0.0000 C   0  0  0  0  0  0  0  0  0  0  0  0
    3.3281   -1.1126    0.0000 C   0  0  0  0  0  0  0  0  0  0  0  0
    4.7655   -1.5414    0.0000 C   0  0  0  0  0  0  0  0  0  0  0  0
    5.1128   -3.0007    0.0000 O   0  0  0  0  0  0  0  0  0  0  0  0
    5.8555   -0.5110    0.0000 C   0  0  0  0  0  0  0  0  0  0  0  0
    5.5082    0.9482    0.0000 C   0  0  0  0  0  0  0  0  0  0  0  0
    6.9456    0.5194    0.0000 O   0  0  0  0  0  0  0  0  0  0  0  0
    6.5983    1.9786    0.0000 C   0  0  0  0  0  0  0  0  0  0  0  0
    6.2509    3.4379    0.0000 C   0  0  0  0  0  0  0  0  0  0  0  0
    7.3410    4.4683    0.0000 O   0  0  0  0  0  0  0  0  0  0  0  0
    4.8135    3.8667    0.0000 C   0  0  0  0  0  0  0  0  0  0  0  0
    3.7235    2.8363    0.0000 C   0  0  0  0  0  0  0  0  0  0  0  0
    4.0708    1.3770    0.0000 C   0  0  0  0  0  0  0  0  0  0  0  0
    2.6334    1.8058    0.0000 C   0  0  0  0  0  0  0  0  0  0  0  0
    2.9807    0.3466    0.0000 C   0  0  0  0  0  0  0  0  0  0  0  0
    1.5433    0.7754    0.0000 C   0  0  0  0  0  0  0  0  0  0  0  0
    0.4533   -0.2550    0.0000 C   0  0  0  0  0  0  0  0  0  0  0  0
    0.8006   -1.7142    0.0000 C   0  0  0  0  0  0  0  0  0  0  0  0
   -0.6737   -1.4380    0.0000 C   0  0  0  0  0  0  0  0  0  0  0  0
  2  1  1  6
  2  3  1  0
  3  4  1  0
  4  5  1  0
  5  6  2  0
  5  7  1  0
  7  8  1  0
  8  9  1  0
  9 10  1  0
 10 11  2  0
 10 12  2  0
 10 13  1  0
  2 14  1  0
 14 15  1  6
 15 16  1  0
 17 16  1  6
 17 18  1  0
 18 19  1  1
 19 20  1  1
 19 21  1  0
 21 22  1  0
 22 23  1  6
 22 24  1  0
 24 25  1  0
 25 26  1  1
 25 27  1  0
 27 28  1  0
 28 29  1  0
 29 30  1  6
 29 31  1  0
 31 32  1  6
 32 33  1  0
 33 34  1  0
 34 35  1  6
 34 14  1  0
 34 17  1  0
 31 18  1  0
 29 22  1  0
M  END
>  <MS_ID>  (2695) 
MS2786

>  <SMILES>  (2695) 
C[C@H](CCC(=O)NCCS(=O)(=O)O)[C@H]1CC[C@H]2[C@@H]3[C@H](O)C[C@]4(O)C[C@H](O)CC[C@]4(C)[C@H]3CC[C@]12C

>  <Structure_dimension>  (2695) 
2D

$$$$
MS2787
     RDKit          2D

 29 32  0  0  0  0  0  0  0  0999 V2000
   -4.5534   -2.6812    0.0000 C   0  0  0  0  0  0  0  0  0  0  0  0
   -3.4378   -1.6786    0.0000 C   0  0  0  0  0  0  0  0  0  0  0  0
   -3.7483   -0.2111    0.0000 C   0  0  0  0  0  0  0  0  0  0  0  0
   -5.1744    0.2538    0.0000 C   0  0  0  0  0  0  0  0  0  0  0  0
   -5.4850    1.7213    0.0000 C   0  0  0  0  0  0  0  0  0  0  0  0
   -4.3693    2.7239    0.0000 O   0  0  0  0  0  0  0  0  0  0  0  0
   -6.9111    2.1861    0.0000 C   0  0  0  0  0  0  0  0  0  0  0  0
   -7.2216    3.6536    0.0000 O   0  0  0  0  0  0  0  0  0  0  0  0
   -2.0116   -2.1434    0.0000 C   0  0  0  0  0  0  0  0  0  0  0  0
   -1.5494   -3.5704    0.0000 C   0  0  0  0  0  0  0  0  0  0  0  0
   -0.0494   -3.5718    0.0000 C   0  0  0  0  0  0  0  0  0  0  0  0
    0.4155   -2.1456    0.0000 C   0  0  0  0  0  0  0  0  0  0  0  0
    1.7863   -1.5368    0.0000 C   0  0  0  0  0  0  0  0  0  0  0  0
    2.9990   -2.4196    0.0000 C   0  0  0  0  0  0  0  0  0  0  0  0
    4.3699   -1.8107    0.0000 C   0  0  0  0  0  0  0  0  0  0  0  0
    4.5281   -0.3191    0.0000 C   0  0  0  0  0  0  0  0  0  0  0  0
    5.8990    0.2898    0.0000 C   0  0  0  0  0  0  0  0  0  0  0  0
    6.0571    1.7814    0.0000 C   0  0  0  0  0  0  0  0  0  0  0  0
    7.4280    2.3902    0.0000 O   0  0  0  0  0  0  0  0  0  0  0  0
    4.8444    2.6642    0.0000 C   0  0  0  0  0  0  0  0  0  0  0  0
    3.4735    2.0553    0.0000 C   0  0  0  0  0  0  0  0  0  0  0  0
    3.3154    0.5637    0.0000 C   0  0  0  0  0  0  0  0  0  0  0  0
    2.1026    1.4465    0.0000 C   0  0  0  0  0  0  0  0  0  0  0  0
    1.9445   -0.0451    0.0000 C   0  0  0  0  0  0  0  0  0  0  0  0
    0.7318    0.8376    0.0000 C   0  0  0  0  0  0  0  0  0  0  0  0
   -0.6391    0.2288    0.0000 C   0  0  0  0  0  0  0  0  0  0  0  0
   -1.8518    1.1116    0.0000 O   0  0  0  0  0  0  0  0  0  0  0  0
   -0.7973   -1.2628    0.0000 C   0  0  0  0  0  0  0  0  0  0  0  0
   -2.0956   -0.5116    0.0000 C   0  0  0  0  0  0  0  0  0  0  0  0
  2  1  1  6
  2  3  1  0
  3  4  1  0
  4  5  1  0
  5  6  2  0
  5  7  1  0
  7  8  1  0
  2  9  1  0
  9 10  1  6
 10 11  1  0
 12 11  1  6
 12 13  1  0
 13 14  1  1
 14 15  1  0
 16 15  1  1
 16 17  1  0
 17 18  1  0
 18 19  1  6
 18 20  1  0
 20 21  1  0
 21 22  1  0
 22 23  1  6
 22 24  1  0
 24 25  1  6
 25 26  1  0
 26 27  2  0
 26 28  1  0
 28 29  1  6
 28  9  1  0
 28 12  1  0
 24 13  1  0
 22 16  1  0
M  END
>  <MS_ID>  (2696) 
MS2787

>  <SMILES>  (2696) 
C[C@H](CCC(=O)CO)[C@H]1CC[C@H]2[C@@H]3CC[C@@H]4C[C@@H](O)CC[C@]4(C)[C@H]3CC(=O)[C@]12C

>  <Structure_dimension>  (2696) 
2D

$$$$
MS2788
     RDKit          2D

 33 36  0  0  0  0  0  0  0  0999 V2000
   -2.7599   -3.9009    0.0000 C   0  0  0  0  0  0  0  0  0  0  0  0
   -1.8878   -2.6805    0.0000 C   0  0  0  0  0  0  0  0  0  0  0  0
   -2.5087   -1.3150    0.0000 C   0  0  0  0  0  0  0  0  0  0  0  0
   -4.0016   -1.1699    0.0000 C   0  0  0  0  0  0  0  0  0  0  0  0
   -4.6225    0.1955    0.0000 C   0  0  0  0  0  0  0  0  0  0  0  0
   -3.7504    1.4160    0.0000 O   0  0  0  0  0  0  0  0  0  0  0  0
   -6.1155    0.3406    0.0000 C   0  0  0  0  0  0  0  0  0  0  0  0
   -6.7364    1.7060    0.0000 C   0  0  0  0  0  0  0  0  0  0  0  0
   -5.8643    2.9265    0.0000 O   0  0  0  0  0  0  0  0  0  0  0  0
   -8.2293    1.8511    0.0000 C   0  0  0  0  0  0  0  0  0  0  0  0
   -9.1014    0.6306    0.0000 O   0  0  0  0  0  0  0  0  0  0  0  0
   -8.8502    3.2165    0.0000 O   0  0  0  0  0  0  0  0  0  0  0  0
   -0.3948   -2.8255    0.0000 C   0  0  0  0  0  0  0  0  0  0  0  0
    0.3654   -4.1186    0.0000 C   0  0  0  0  0  0  0  0  0  0  0  0
    1.8301   -3.7952    0.0000 C   0  0  0  0  0  0  0  0  0  0  0  0
    1.9751   -2.3022    0.0000 C   0  0  0  0  0  0  0  0  0  0  0  0
    3.1817   -1.4110    0.0000 C   0  0  0  0  0  0  0  0  0  0  0  0
    4.5568   -2.0103    0.0000 C   0  0  0  0  0  0  0  0  0  0  0  0
    5.7633   -1.1191    0.0000 C   0  0  0  0  0  0  0  0  0  0  0  0
    5.5948    0.3714    0.0000 C   0  0  0  0  0  0  0  0  0  0  0  0
    6.8013    1.2626    0.0000 C   0  0  0  0  0  0  0  0  0  0  0  0
    6.6328    2.7531    0.0000 C   0  0  0  0  0  0  0  0  0  0  0  0
    7.8393    3.6443    0.0000 O   0  0  0  0  0  0  0  0  0  0  0  0
    5.2577    3.3524    0.0000 C   0  0  0  0  0  0  0  0  0  0  0  0
    4.0512    2.4612    0.0000 C   0  0  0  0  0  0  0  0  0  0  0  0
    4.2197    0.9707    0.0000 C   0  0  0  0  0  0  0  0  0  0  0  0
    2.8446    1.5700    0.0000 C   0  0  0  0  0  0  0  0  0  0  0  0
    3.0132    0.0795    0.0000 C   0  0  0  0  0  0  0  0  0  0  0  0
    1.6381    0.6788    0.0000 C   0  0  0  0  0  0  0  0  0  0  0  0
    0.4315   -0.2124    0.0000 C   0  0  0  0  0  0  0  0  0  0  0  0
   -0.9436    0.3869    0.0000 O   0  0  0  0  0  0  0  0  0  0  0  0
    0.6001   -1.7029    0.0000 C   0  0  0  0  0  0  0  0  0  0  0  0
   -0.8301   -1.2506    0.0000 C   0  0  0  0  0  0  0  0  0  0  0  0
  2  1  1  6
  2  3  1  0
  3  4  1  0
  4  5  1  0
  5  6  2  0
  5  7  1  0
  7  8  1  0
  8  9  2  0
  8 10  1  0
 10 11  2  0
 10 12  1  0
  2 13  1  0
 13 14  1  6
 14 15  1  0
 16 15  1  6
 16 17  1  0
 17 18  1  1
 18 19  1  0
 20 19  1  1
 20 21  1  0
 21 22  1  0
 22 23  1  1
 22 24  1  0
 24 25  1  0
 25 26  1  0
 26 27  1  6
 26 28  1  0
 28 29  1  6
 29 30  1  0
 30 31  1  1
 30 32  1  0
 32 33  1  6
 32 13  1  0
 32 16  1  0
 28 17  1  0
 26 20  1  0
M  END
>  <MS_ID>  (2697) 
MS2788

>  <SMILES>  (2697) 
C[C@H](CCC(=O)CC(=O)C(=O)O)[C@H]1CC[C@H]2[C@@H]3CC[C@@H]4C[C@H](O)CC[C@]4(C)[C@H]3C[C@H](O)[C@]12C

>  <Structure_dimension>  (2697) 
2D

$$$$
MS2789
     RDKit          2D

 29 32  0  0  0  0  0  0  0  0999 V2000
   -4.9165   -2.3086    0.0000 C   0  0  0  0  0  0  0  0  0  0  0  0
   -3.7338   -1.3860    0.0000 C   0  0  0  0  0  0  0  0  0  0  0  0
   -3.9415    0.0996    0.0000 C   0  0  0  0  0  0  0  0  0  0  0  0
   -5.3319    0.6625    0.0000 C   0  0  0  0  0  0  0  0  0  0  0  0
   -5.5396    2.1481    0.0000 C   0  0  0  0  0  0  0  0  0  0  0  0
   -4.3569    3.0707    0.0000 O   0  0  0  0  0  0  0  0  0  0  0  0
   -6.9299    2.7110    0.0000 O   0  0  0  0  0  0  0  0  0  0  0  0
   -2.3435   -1.9489    0.0000 C   0  0  0  0  0  0  0  0  0  0  0  0
   -1.9816   -3.4046    0.0000 C   0  0  0  0  0  0  0  0  0  0  0  0
   -0.4854   -3.5103    0.0000 C   0  0  0  0  0  0  0  0  0  0  0  0
    0.0775   -2.1199    0.0000 C   0  0  0  0  0  0  0  0  0  0  0  0
    1.4875   -1.6079    0.0000 C   0  0  0  0  0  0  0  0  0  0  0  0
    2.6358   -2.5730    0.0000 C   0  0  0  0  0  0  0  0  0  0  0  0
    4.0457   -2.0609    0.0000 C   0  0  0  0  0  0  0  0  0  0  0  0
    4.3073   -0.5839    0.0000 C   0  0  0  0  0  0  0  0  0  0  0  0
    5.7172   -0.0719    0.0000 C   0  0  0  0  0  0  0  0  0  0  0  0
    5.9787    1.4051    0.0000 C   0  0  0  0  0  0  0  0  0  0  0  0
    7.3886    1.9171    0.0000 O   0  0  0  0  0  0  0  0  0  0  0  0
    4.8304    2.3701    0.0000 C   0  0  0  0  0  0  0  0  0  0  0  0
    3.4205    1.8581    0.0000 C   0  0  0  0  0  0  0  0  0  0  0  0
    3.1589    0.3811    0.0000 C   0  0  0  0  0  0  0  0  0  0  0  0
    2.0105    1.3461    0.0000 C   0  0  0  0  0  0  0  0  0  0  0  0
    1.7490   -0.1309    0.0000 C   0  0  0  0  0  0  0  0  0  0  0  0
    0.6006    0.8341    0.0000 C   0  0  0  0  0  0  0  0  0  0  0  0
   -0.8093    0.3221    0.0000 C   0  0  0  0  0  0  0  0  0  0  0  0
   -1.9576    1.2871    0.0000 N   0  0  0  0  0  0  0  0  0  0  0  0
   -1.6961    2.7641    0.0000 O   0  0  0  0  0  0  0  0  0  0  0  0
   -1.0708   -1.1549    0.0000 C   0  0  0  0  0  0  0  0  0  0  0  0
   -2.3138   -0.3152    0.0000 C   0  0  0  0  0  0  0  0  0  0  0  0
  2  1  1  6
  2  3  1  0
  3  4  1  0
  4  5  1  0
  5  6  2  0
  5  7  1  0
  2  8  1  0
  8  9  1  6
  9 10  1  0
 11 10  1  6
 11 12  1  0
 12 13  1  1
 13 14  1  0
 15 14  1  1
 15 16  1  0
 16 17  1  0
 17 18  1  1
 17 19  1  0
 19 20  1  0
 20 21  1  0
 21 22  1  6
 21 23  1  0
 23 24  1  6
 24 25  1  0
 25 26  1  6
 26 27  1  0
 25 28  1  0
 28 29  1  6
 28  8  1  0
 28 11  1  0
 23 12  1  0
 21 15  1  0
M  END
>  <MS_ID>  (2698) 
MS2789

>  <SMILES>  (2698) 
C[C@H](CCC(=O)O)[C@H]1CC[C@H]2[C@@H]3CC[C@@H]4C[C@H](O)CC[C@]4(C)[C@H]3C[C@@H](NO)[C@]12C

>  <Structure_dimension>  (2698) 
2D

$$$$
MS2790
     RDKit          2D

 31 34  0  0  0  0  0  0  0  0999 V2000
   -5.0390   -2.1770    0.0000 C   0  0  0  0  0  0  0  0  0  0  0  0
   -3.9314   -1.1655    0.0000 C   0  0  0  0  0  0  0  0  0  0  0  0
   -4.2536    0.2995    0.0000 C   0  0  0  0  0  0  0  0  0  0  0  0
   -5.6834    0.7530    0.0000 C   0  0  0  0  0  0  0  0  0  0  0  0
   -6.0056    2.2180    0.0000 C   0  0  0  0  0  0  0  0  0  0  0  0
   -4.8980    3.2295    0.0000 O   0  0  0  0  0  0  0  0  0  0  0  0
   -7.4354    2.6714    0.0000 O   0  0  0  0  0  0  0  0  0  0  0  0
   -2.5016   -1.6189    0.0000 C   0  0  0  0  0  0  0  0  0  0  0  0
   -2.0280   -3.0422    0.0000 C   0  0  0  0  0  0  0  0  0  0  0  0
   -0.5280   -3.0316    0.0000 C   0  0  0  0  0  0  0  0  0  0  0  0
   -0.0746   -1.6018    0.0000 C   0  0  0  0  0  0  0  0  0  0  0  0
    1.2914   -0.9820    0.0000 C   0  0  0  0  0  0  0  0  0  0  0  0
    2.5111   -1.8551    0.0000 C   0  0  0  0  0  0  0  0  0  0  0  0
    2.3649   -3.3480    0.0000 N   0  0  0  0  0  0  0  0  0  0  0  0
    3.5846   -4.2211    0.0000 C   0  0  0  0  0  0  0  0  0  0  0  0
    0.9989   -3.9677    0.0000 C   0  0  0  0  0  0  0  0  0  0  0  0
    3.8771   -1.2354    0.0000 C   0  0  0  0  0  0  0  0  0  0  0  0
    4.0234    0.2575    0.0000 C   0  0  0  0  0  0  0  0  0  0  0  0
    5.3894    0.8772    0.0000 C   0  0  0  0  0  0  0  0  0  0  0  0
    5.5356    2.3701    0.0000 C   0  0  0  0  0  0  0  0  0  0  0  0
    6.9016    2.9898    0.0000 O   0  0  0  0  0  0  0  0  0  0  0  0
    4.3159    3.2432    0.0000 C   0  0  0  0  0  0  0  0  0  0  0  0
    2.9499    2.6234    0.0000 C   0  0  0  0  0  0  0  0  0  0  0  0
    2.8037    1.1306    0.0000 C   0  0  0  0  0  0  0  0  0  0  0  0
    1.5839    2.0037    0.0000 C   0  0  0  0  0  0  0  0  0  0  0  0
    1.4377    0.5108    0.0000 C   0  0  0  0  0  0  0  0  0  0  0  0
    0.2180    1.3839    0.0000 C   0  0  0  0  0  0  0  0  0  0  0  0
   -1.1480    0.7642    0.0000 C   0  0  0  0  0  0  0  0  0  0  0  0
   -2.3677    1.6372    0.0000 O   0  0  0  0  0  0  0  0  0  0  0  0
   -1.2943   -0.7287    0.0000 C   0  0  0  0  0  0  0  0  0  0  0  0
   -2.5986    0.0121    0.0000 C   0  0  0  0  0  0  0  0  0  0  0  0
  2  1  1  6
  2  3  1  0
  3  4  1  0
  4  5  1  0
  5  6  2  0
  5  7  1  0
  2  8  1  0
  8  9  1  6
  9 10  1  0
 11 10  1  6
 11 12  1  0
 12 13  1  1
 13 14  1  6
 14 15  1  0
 14 16  1  0
 13 17  1  0
 18 17  1  1
 18 19  1  0
 19 20  1  0
 20 21  1  1
 20 22  1  0
 22 23  1  0
 23 24  1  0
 24 25  1  6
 24 26  1  0
 26 27  1  6
 27 28  1  0
 28 29  1  1
 28 30  1  0
 30 31  1  6
 30  8  1  0
 30 11  1  0
 26 12  1  0
 24 18  1  0
M  END
>  <MS_ID>  (2699) 
MS2790

>  <SMILES>  (2699) 
C[C@H](CCC(=O)O)[C@H]1CC[C@H]2[C@@H]3[C@@H](N(C)C)C[C@@H]4C[C@H](O)CC[C@]4(C)[C@H]3C[C@H](O)[C@]12C

>  <Structure_dimension>  (2699) 
2D

$$$$
MS2791
     RDKit          2D

 31 34  0  0  0  0  0  0  0  0999 V2000
   -3.9274   -2.9894    0.0000 C   0  0  0  0  0  0  0  0  0  0  0  0
   -2.8631   -1.9324    0.0000 C   0  0  0  0  0  0  0  0  0  0  0  0
   -3.2464   -0.4822    0.0000 C   0  0  0  0  0  0  0  0  0  0  0  0
   -4.6940   -0.0890    0.0000 C   0  0  0  0  0  0  0  0  0  0  0  0
   -5.0773    1.3612    0.0000 C   0  0  0  0  0  0  0  0  0  0  0  0
   -4.0130    2.4182    0.0000 O   0  0  0  0  0  0  0  0  0  0  0  0
   -6.5248    1.7544    0.0000 C   0  0  0  0  0  0  0  0  0  0  0  0
   -7.9724    2.1475    0.0000 F   0  0  0  0  0  0  0  0  0  0  0  0
   -6.1316    3.2019    0.0000 F   0  0  0  0  0  0  0  0  0  0  0  0
   -6.9180    0.3068    0.0000 F   0  0  0  0  0  0  0  0  0  0  0  0
   -1.4156   -2.3256    0.0000 C   0  0  0  0  0  0  0  0  0  0  0  0
   -0.8828   -3.7277    0.0000 C   0  0  0  0  0  0  0  0  0  0  0  0
    0.6154   -3.6544    0.0000 C   0  0  0  0  0  0  0  0  0  0  0  0
    1.0086   -2.2068    0.0000 C   0  0  0  0  0  0  0  0  0  0  0  0
    2.3474   -1.5304    0.0000 C   0  0  0  0  0  0  0  0  0  0  0  0
    3.6026   -2.3516    0.0000 C   0  0  0  0  0  0  0  0  0  0  0  0
    4.9414   -1.6752    0.0000 C   0  0  0  0  0  0  0  0  0  0  0  0
    5.0250   -0.1775    0.0000 C   0  0  0  0  0  0  0  0  0  0  0  0
    6.3639    0.4989    0.0000 C   0  0  0  0  0  0  0  0  0  0  0  0
    6.4475    1.9966    0.0000 C   0  0  0  0  0  0  0  0  0  0  0  0
    7.7863    2.6730    0.0000 O   0  0  0  0  0  0  0  0  0  0  0  0
    5.1923    2.8178    0.0000 C   0  0  0  0  0  0  0  0  0  0  0  0
    3.8534    2.1414    0.0000 C   0  0  0  0  0  0  0  0  0  0  0  0
    3.7698    0.6437    0.0000 C   0  0  0  0  0  0  0  0  0  0  0  0
    2.5146    1.4650    0.0000 C   0  0  0  0  0  0  0  0  0  0  0  0
    2.4310   -0.0327    0.0000 C   0  0  0  0  0  0  0  0  0  0  0  0
    1.1758    0.7885    0.0000 C   0  0  0  0  0  0  0  0  0  0  0  0
   -0.1630    0.1121    0.0000 C   0  0  0  0  0  0  0  0  0  0  0  0
   -1.4182    0.9334    0.0000 O   0  0  0  0  0  0  0  0  0  0  0  0
   -0.2466   -1.3856    0.0000 C   0  0  0  0  0  0  0  0  0  0  0  0
   -1.5808   -0.7000    0.0000 C   0  0  0  0  0  0  0  0  0  0  0  0
  2  1  1  6
  2  3  1  0
  3  4  1  0
  4  5  1  0
  5  6  2  0
  5  7  1  0
  7  8  1  0
  7  9  1  0
  7 10  1  0
  2 11  1  0
 11 12  1  6
 12 13  1  0
 14 13  1  6
 14 15  1  0
 15 16  1  1
 16 17  1  0
 18 17  1  1
 18 19  1  0
 19 20  1  0
 20 21  1  6
 20 22  1  0
 22 23  1  0
 23 24  1  0
 24 25  1  6
 24 26  1  0
 26 27  1  6
 27 28  1  0
 28 29  1  1
 28 30  1  0
 30 31  1  6
 30 11  1  0
 30 14  1  0
 26 15  1  0
 24 18  1  0
M  END
>  <MS_ID>  (2700) 
MS2791

>  <SMILES>  (2700) 
C[C@H](CCC(=O)C(F)(F)F)[C@H]1CC[C@H]2[C@@H]3CC[C@@H]4C[C@@H](O)CC[C@]4(C)[C@H]3C[C@H](O)[C@]12C

>  <Structure_dimension>  (2700) 
2D

$$$$
MS2792
     RDKit          2D

 33 36  0  0  0  0  0  0  0  0999 V2000
   -4.6730   -3.0234    0.0000 C   0  0  0  0  0  0  0  0  0  0  0  0
   -3.8053   -1.7999    0.0000 C   0  0  0  0  0  0  0  0  0  0  0  0
   -4.4311   -0.4366    0.0000 C   0  0  0  0  0  0  0  0  0  0  0  0
   -5.9246   -0.2970    0.0000 C   0  0  0  0  0  0  0  0  0  0  0  0
   -6.5504    1.0663    0.0000 C   0  0  0  0  0  0  0  0  0  0  0  0
   -5.6827    2.2898    0.0000 O   0  0  0  0  0  0  0  0  0  0  0  0
   -8.0438    1.2059    0.0000 C   0  0  0  0  0  0  0  0  0  0  0  0
   -8.6696    2.5691    0.0000 O   0  0  0  0  0  0  0  0  0  0  0  0
   -2.3118   -1.9395    0.0000 C   0  0  0  0  0  0  0  0  0  0  0  0
   -1.5470   -3.2299    0.0000 C   0  0  0  0  0  0  0  0  0  0  0  0
   -0.0834   -2.9012    0.0000 C   0  0  0  0  0  0  0  0  0  0  0  0
    0.0563   -1.4077    0.0000 C   0  0  0  0  0  0  0  0  0  0  0  0
    1.2596   -0.5122    0.0000 C   0  0  0  0  0  0  0  0  0  0  0  0
    2.6368   -1.1065    0.0000 C   0  0  0  0  0  0  0  0  0  0  0  0
    2.8107   -2.5964    0.0000 O   0  0  0  0  0  0  0  0  0  0  0  0
    4.1879   -3.1907    0.0000 S   0  0  0  0  0  0  0  0  0  0  0  0
    4.7823   -1.8135    0.0000 O   0  0  0  0  0  0  0  0  0  0  0  0
    3.5936   -4.5679    0.0000 O   0  0  0  0  0  0  0  0  0  0  0  0
    5.5652   -3.7851    0.0000 O   0  0  0  0  0  0  0  0  0  0  0  0
    3.8401   -0.2109    0.0000 C   0  0  0  0  0  0  0  0  0  0  0  0
    3.6662    1.2789    0.0000 C   0  0  0  0  0  0  0  0  0  0  0  0
    4.8696    2.1745    0.0000 C   0  0  0  0  0  0  0  0  0  0  0  0
    4.6957    3.6644    0.0000 C   0  0  0  0  0  0  0  0  0  0  0  0
    5.8990    4.5599    0.0000 O   0  0  0  0  0  0  0  0  0  0  0  0
    3.3184    4.2587    0.0000 C   0  0  0  0  0  0  0  0  0  0  0  0
    2.1151    3.3632    0.0000 C   0  0  0  0  0  0  0  0  0  0  0  0
    2.2890    1.8733    0.0000 C   0  0  0  0  0  0  0  0  0  0  0  0
    0.9118    2.4676    0.0000 C   0  0  0  0  0  0  0  0  0  0  0  0
    1.0857    0.9777    0.0000 C   0  0  0  0  0  0  0  0  0  0  0  0
   -0.2916    1.5721    0.0000 C   0  0  0  0  0  0  0  0  0  0  0  0
   -1.4949    0.6765    0.0000 C   0  0  0  0  0  0  0  0  0  0  0  0
   -1.3210   -0.8134    0.0000 C   0  0  0  0  0  0  0  0  0  0  0  0
   -2.7528   -0.3662    0.0000 C   0  0  0  0  0  0  0  0  0  0  0  0
  2  1  1  6
  2  3  1  0
  3  4  1  0
  4  5  1  0
  5  6  2  0
  5  7  1  0
  7  8  1  0
  2  9  1  0
  9 10  1  6
 10 11  1  0
 12 11  1  6
 12 13  1  0
 13 14  1  1
 14 15  1  1
 15 16  1  0
 16 17  2  0
 16 18  2  0
 16 19  1  0
 14 20  1  0
 21 20  1  1
 21 22  1  0
 22 23  1  0
 23 24  2  0
 23 25  1  0
 25 26  1  0
 26 27  1  0
 27 28  1  6
 27 29  1  0
 29 30  1  6
 30 31  1  0
 31 32  1  0
 32 33  1  6
 32  9  1  0
 32 12  1  0
 29 13  1  0
 27 21  1  0
M  END
>  <MS_ID>  (2701) 
MS2792

>  <SMILES>  (2701) 
C[C@H](CCC(=O)CO)[C@H]1CC[C@H]2[C@@H]3[C@H](OS(=O)(=O)O)C[C@@H]4CC(=O)CC[C@]4(C)[C@H]3CC[C@]12C

>  <Structure_dimension>  (2701) 
2D

$$$$
MS2793
     RDKit          2D

 30 33  0  0  0  0  0  0  0  0999 V2000
   -4.3209   -2.7536    0.0000 C   0  0  0  0  0  0  0  0  0  0  0  0
   -3.2523   -1.7010    0.0000 C   0  0  0  0  0  0  0  0  0  0  0  0
   -3.6295   -0.2492    0.0000 C   0  0  0  0  0  0  0  0  0  0  0  0
   -5.0755    0.1499    0.0000 C   0  0  0  0  0  0  0  0  0  0  0  0
   -5.4527    1.6017    0.0000 C   0  0  0  0  0  0  0  0  0  0  0  0
   -4.3841    2.6543    0.0000 O   0  0  0  0  0  0  0  0  0  0  0  0
   -6.8987    2.0009    0.0000 C   0  0  0  0  0  0  0  0  0  0  0  0
   -7.2759    3.4526    0.0000 C   0  0  0  0  0  0  0  0  0  0  0  0
   -7.9673    0.9482    0.0000 O   0  0  0  0  0  0  0  0  0  0  0  0
   -1.8064   -2.1002    0.0000 C   0  0  0  0  0  0  0  0  0  0  0  0
   -1.2794   -3.5046    0.0000 C   0  0  0  0  0  0  0  0  0  0  0  0
    0.2191   -3.4374    0.0000 C   0  0  0  0  0  0  0  0  0  0  0  0
    0.6183   -1.9915    0.0000 C   0  0  0  0  0  0  0  0  0  0  0  0
    1.9599   -1.3206    0.0000 C   0  0  0  0  0  0  0  0  0  0  0  0
    3.2117   -2.1470    0.0000 C   0  0  0  0  0  0  0  0  0  0  0  0
    3.1219   -3.6443    0.0000 O   0  0  0  0  0  0  0  0  0  0  0  0
    4.5533   -1.4762    0.0000 C   0  0  0  0  0  0  0  0  0  0  0  0
    4.6431    0.0211    0.0000 C   0  0  0  0  0  0  0  0  0  0  0  0
    5.9847    0.6920    0.0000 C   0  0  0  0  0  0  0  0  0  0  0  0
    6.0745    2.1893    0.0000 C   0  0  0  0  0  0  0  0  0  0  0  0
    7.4161    2.8602    0.0000 O   0  0  0  0  0  0  0  0  0  0  0  0
    4.8227    3.0158    0.0000 C   0  0  0  0  0  0  0  0  0  0  0  0
    3.4811    2.3449    0.0000 C   0  0  0  0  0  0  0  0  0  0  0  0
    3.3913    0.8476    0.0000 C   0  0  0  0  0  0  0  0  0  0  0  0
    2.1395    1.6740    0.0000 C   0  0  0  0  0  0  0  0  0  0  0  0
    2.0497    0.1767    0.0000 C   0  0  0  0  0  0  0  0  0  0  0  0
    0.7979    1.0031    0.0000 C   0  0  0  0  0  0  0  0  0  0  0  0
   -0.5437    0.3323    0.0000 C   0  0  0  0  0  0  0  0  0  0  0  0
   -0.6335   -1.1650    0.0000 C   0  0  0  0  0  0  0  0  0  0  0  0
   -1.9649   -0.4740    0.0000 C   0  0  0  0  0  0  0  0  0  0  0  0
  2  1  1  6
  2  3  1  0
  3  4  1  0
  4  5  1  0
  5  6  2  0
  5  7  1  0
  7  8  1  6
  7  9  1  0
  2 10  1  0
 10 11  1  6
 11 12  1  0
 13 12  1  6
 13 14  1  0
 14 15  1  1
 15 16  1  1
 15 17  1  0
 18 17  1  1
 18 19  1  0
 19 20  1  0
 20 21  1  1
 20 22  1  0
 22 23  1  0
 23 24  1  0
 24 25  1  6
 24 26  1  0
 26 27  1  6
 27 28  1  0
 28 29  1  0
 29 30  1  6
 29 10  1  0
 29 13  1  0
 26 14  1  0
 24 18  1  0
M  END
>  <MS_ID>  (2702) 
MS2793

>  <SMILES>  (2702) 
C[C@H](CCC(=O)[C@@H](C)O)[C@H]1CC[C@H]2[C@@H]3[C@H](O)C[C@@H]4C[C@H](O)CC[C@]4(C)[C@H]3CC[C@]12C

>  <Structure_dimension>  (2702) 
2D

$$$$
MS2794
     RDKit          2D

 35 39  0  0  0  0  0  0  0  0999 V2000
   -1.3718   -4.5891    0.0000 C   0  0  0  0  0  0  0  0  0  0  0  0
   -0.7616   -3.2188    0.0000 C   0  0  0  0  0  0  0  0  0  0  0  0
   -1.6432   -2.0053    0.0000 C   0  0  0  0  0  0  0  0  0  0  0  0
   -3.1350   -2.1620    0.0000 C   0  0  0  0  0  0  0  0  0  0  0  0
   -4.0166   -0.9484    0.0000 C   0  0  0  0  0  0  0  0  0  0  0  0
   -3.4064    0.4219    0.0000 O   0  0  0  0  0  0  0  0  0  0  0  0
   -5.5084   -1.1051    0.0000 C   0  0  0  0  0  0  0  0  0  0  0  0
   -6.3900    0.1085    0.0000 C   0  0  0  0  0  0  0  0  0  0  0  0
   -7.8818   -0.0482    0.0000 C   0  0  0  0  0  0  0  0  0  0  0  0
   -8.7634    1.1653    0.0000 N   0  0  0  0  0  0  0  0  0  0  0  0
  -10.2634    1.1654    0.0000 C   0  0  0  0  0  0  0  0  0  0  0  0
  -10.7269    2.5920    0.0000 N   0  0  0  0  0  0  0  0  0  0  0  0
   -9.5133    3.4737    0.0000 C   0  0  0  0  0  0  0  0  0  0  0  0
   -8.2998    2.5919    0.0000 N   0  0  0  0  0  0  0  0  0  0  0  0
    0.7302   -3.0621    0.0000 C   0  0  0  0  0  0  0  0  0  0  0  0
    1.7338   -4.1769    0.0000 C   0  0  0  0  0  0  0  0  0  0  0  0
    3.1042   -3.5669    0.0000 C   0  0  0  0  0  0  0  0  0  0  0  0
    2.9474   -2.0751    0.0000 C   0  0  0  0  0  0  0  0  0  0  0  0
    3.9512   -0.9604    0.0000 C   0  0  0  0  0  0  0  0  0  0  0  0
    5.4184   -1.2724    0.0000 C   0  0  0  0  0  0  0  0  0  0  0  0
    5.8819   -2.6990    0.0000 O   0  0  0  0  0  0  0  0  0  0  0  0
    6.4222   -0.1577    0.0000 C   0  0  0  0  0  0  0  0  0  0  0  0
    5.9587    1.2689    0.0000 C   0  0  0  0  0  0  0  0  0  0  0  0
    6.9625    2.3835    0.0000 C   0  0  0  0  0  0  0  0  0  0  0  0
    6.4990    3.8101    0.0000 C   0  0  0  0  0  0  0  0  0  0  0  0
    7.5028    4.9248    0.0000 O   0  0  0  0  0  0  0  0  0  0  0  0
    5.0318    4.1221    0.0000 C   0  0  0  0  0  0  0  0  0  0  0  0
    4.0281    3.0074    0.0000 C   0  0  0  0  0  0  0  0  0  0  0  0
    4.4915    1.5808    0.0000 C   0  0  0  0  0  0  0  0  0  0  0  0
    3.0243    1.8928    0.0000 C   0  0  0  0  0  0  0  0  0  0  0  0
    3.4878    0.4662    0.0000 C   0  0  0  0  0  0  0  0  0  0  0  0
    2.0206    0.7781    0.0000 C   0  0  0  0  0  0  0  0  0  0  0  0
    1.0168   -0.3365    0.0000 C   0  0  0  0  0  0  0  0  0  0  0  0
    1.4802   -1.7631    0.0000 C   0  0  0  0  0  0  0  0  0  0  0  0
   -0.0115   -1.6063    0.0000 C   0  0  0  0  0  0  0  0  0  0  0  0
  2  1  1  6
  2  3  1  0
  3  4  1  0
  4  5  1  0
  5  6  2  0
  5  7  1  0
  7  8  1  0
  8  9  1  0
  9 10  1  0
 10 11  1  0
 11 12  2  0
 12 13  1  0
 13 14  2  0
  2 15  1  0
 15 16  1  6
 16 17  1  0
 18 17  1  6
 18 19  1  0
 19 20  1  1
 20 21  1  1
 20 22  1  0
 23 22  1  1
 23 24  1  0
 24 25  1  0
 25 26  1  1
 25 27  1  0
 27 28  1  0
 28 29  1  0
 29 30  1  6
 29 31  1  0
 31 32  1  6
 32 33  1  0
 33 34  1  0
 34 35  1  6
 14 10  1  0
 34 15  1  0
 34 18  1  0
 31 19  1  0
 29 23  1  0
M  END
>  <MS_ID>  (2703) 
MS2794

>  <SMILES>  (2703) 
C[C@H](CCC(=O)CCCn1cncn1)[C@H]1CC[C@H]2[C@@H]3[C@H](O)C[C@@H]4C[C@H](O)CC[C@]4(C)[C@H]3CC[C@]12C

>  <Structure_dimension>  (2703) 
2D

$$$$
MS2795
     RDKit          2D

 33 37  0  0  0  0  0  0  0  0999 V2000
   -3.6298   -3.2263    0.0000 C   0  0  0  0  0  0  0  0  0  0  0  0
   -2.6726   -2.0715    0.0000 C   0  0  0  0  0  0  0  0  0  0  0  0
   -3.1941   -0.6650    0.0000 C   0  0  0  0  0  0  0  0  0  0  0  0
   -4.6728   -0.4135    0.0000 C   0  0  0  0  0  0  0  0  0  0  0  0
   -5.1944    0.9930    0.0000 C   0  0  0  0  0  0  0  0  0  0  0  0
   -4.2371    2.1478    0.0000 O   0  0  0  0  0  0  0  0  0  0  0  0
   -6.6731    1.2445    0.0000 C   0  0  0  0  0  0  0  0  0  0  0  0
   -7.7458    0.1960    0.0000 N   0  0  0  0  0  0  0  0  0  0  0  0
   -9.0745    0.8923    0.0000 C   0  0  0  0  0  0  0  0  0  0  0  0
   -8.8229    2.3710    0.0000 C   0  0  0  0  0  0  0  0  0  0  0  0
   -7.3388    2.5887    0.0000 S   0  0  0  0  0  0  0  0  0  0  0  0
   -1.1938   -2.3230    0.0000 C   0  0  0  0  0  0  0  0  0  0  0  0
   -0.5281   -3.6672    0.0000 C   0  0  0  0  0  0  0  0  0  0  0  0
    0.9560   -3.4495    0.0000 C   0  0  0  0  0  0  0  0  0  0  0  0
    1.2075   -1.9708    0.0000 C   0  0  0  0  0  0  0  0  0  0  0  0
    2.4748   -1.1682    0.0000 C   0  0  0  0  0  0  0  0  0  0  0  0
    3.8034   -1.8644    0.0000 C   0  0  0  0  0  0  0  0  0  0  0  0
    3.8648   -3.3632    0.0000 O   0  0  0  0  0  0  0  0  0  0  0  0
    5.0707   -1.0619    0.0000 C   0  0  0  0  0  0  0  0  0  0  0  0
    6.3993   -1.7581    0.0000 O   0  0  0  0  0  0  0  0  0  0  0  0
    5.0093    0.4368    0.0000 C   0  0  0  0  0  0  0  0  0  0  0  0
    6.2766    1.2394    0.0000 C   0  0  0  0  0  0  0  0  0  0  0  0
    6.2152    2.7381    0.0000 C   0  0  0  0  0  0  0  0  0  0  0  0
    7.4824    3.5407    0.0000 O   0  0  0  0  0  0  0  0  0  0  0  0
    4.8865    3.4343    0.0000 C   0  0  0  0  0  0  0  0  0  0  0  0
    3.6193    2.6318    0.0000 C   0  0  0  0  0  0  0  0  0  0  0  0
    3.6807    1.1331    0.0000 C   0  0  0  0  0  0  0  0  0  0  0  0
    2.3520    1.8293    0.0000 C   0  0  0  0  0  0  0  0  0  0  0  0
    2.4134    0.3305    0.0000 C   0  0  0  0  0  0  0  0  0  0  0  0
    1.0848    1.0267    0.0000 C   0  0  0  0  0  0  0  0  0  0  0  0
   -0.1825    0.2242    0.0000 C   0  0  0  0  0  0  0  0  0  0  0  0
   -0.1211   -1.2745    0.0000 C   0  0  0  0  0  0  0  0  0  0  0  0
   -1.5152   -0.7210    0.0000 C   0  0  0  0  0  0  0  0  0  0  0  0
  2  1  1  6
  2  3  1  0
  3  4  1  0
  4  5  1  0
  5  6  2  0
  5  7  1  0
  7  8  2  0
  8  9  1  0
  9 10  2  0
 10 11  1  0
  2 12  1  0
 12 13  1  6
 13 14  1  0
 15 14  1  6
 15 16  1  0
 16 17  1  1
 17 18  1  1
 17 19  1  0
 19 20  1  1
 19 21  1  0
 21 22  1  1
 22 23  1  0
 23 24  1  1
 23 25  1  0
 25 26  1  0
 26 27  1  0
 27 28  1  6
 27 29  1  0
 29 30  1  6
 30 31  1  0
 31 32  1  0
 32 33  1  6
 11  7  1  0
 32 12  1  0
 32 15  1  0
 29 16  1  0
 27 21  1  0
M  END
>  <MS_ID>  (2704) 
MS2795

>  <SMILES>  (2704) 
C[C@H](CCC(=O)c1nccs1)[C@H]1CC[C@H]2[C@@H]3[C@H](O)[C@H](O)[C@@H]4C[C@H](O)CC[C@]4(C)[C@H]3CC[C@]12C

>  <Structure_dimension>  (2704) 
2D

$$$$
MS2796
     RDKit          2D

 33 37  0  0  0  0  0  0  0  0999 V2000
   -3.0595   -3.4014    0.0000 C   0  0  0  0  0  0  0  0  0  0  0  0
   -2.0799   -2.2654    0.0000 C   0  0  0  0  0  0  0  0  0  0  0  0
   -2.5738   -0.8491    0.0000 C   0  0  0  0  0  0  0  0  0  0  0  0
   -4.0474   -0.5687    0.0000 C   0  0  0  0  0  0  0  0  0  0  0  0
   -4.5414    0.8476    0.0000 C   0  0  0  0  0  0  0  0  0  0  0  0
   -3.5618    1.9836    0.0000 O   0  0  0  0  0  0  0  0  0  0  0  0
   -6.0149    1.1280    0.0000 C   0  0  0  0  0  0  0  0  0  0  0  0
   -6.5089    2.5443    0.0000 C   0  0  0  0  0  0  0  0  0  0  0  0
   -7.9825    2.8247    0.0000 C   0  0  0  0  0  0  0  0  0  0  0  0
   -8.9621    1.6887    0.0000 C   0  0  0  0  0  0  0  0  0  0  0  0
   -8.4681    0.2724    0.0000 C   0  0  0  0  0  0  0  0  0  0  0  0
   -6.9945   -0.0080    0.0000 C   0  0  0  0  0  0  0  0  0  0  0  0
   -0.6063   -2.5458    0.0000 C   0  0  0  0  0  0  0  0  0  0  0  0
    0.0330   -3.9027    0.0000 C   0  0  0  0  0  0  0  0  0  0  0  0
    1.5211   -3.7140    0.0000 C   0  0  0  0  0  0  0  0  0  0  0  0
    1.8015   -2.2404    0.0000 C   0  0  0  0  0  0  0  0  0  0  0  0
    3.0841   -1.4628    0.0000 C   0  0  0  0  0  0  0  0  0  0  0  0
    4.3990   -2.1848    0.0000 C   0  0  0  0  0  0  0  0  0  0  0  0
    5.6816   -1.4072    0.0000 C   0  0  0  0  0  0  0  0  0  0  0  0
    5.6495    0.0925    0.0000 C   0  0  0  0  0  0  0  0  0  0  0  0
    6.9322    0.8702    0.0000 C   0  0  0  0  0  0  0  0  0  0  0  0
    6.9001    2.3698    0.0000 C   0  0  0  0  0  0  0  0  0  0  0  0
    8.1827    3.1475    0.0000 O   0  0  0  0  0  0  0  0  0  0  0  0
    5.5852    3.0918    0.0000 C   0  0  0  0  0  0  0  0  0  0  0  0
    4.3026    2.3142    0.0000 C   0  0  0  0  0  0  0  0  0  0  0  0
    4.3347    0.8145    0.0000 C   0  0  0  0  0  0  0  0  0  0  0  0
    3.0199    1.5365    0.0000 C   0  0  0  0  0  0  0  0  0  0  0  0
    3.0520    0.0369    0.0000 C   0  0  0  0  0  0  0  0  0  0  0  0
    1.7372    0.7589    0.0000 C   0  0  0  0  0  0  0  0  0  0  0  0
    0.4545   -0.0188    0.0000 C   0  0  0  0  0  0  0  0  0  0  0  0
   -0.8603    0.7032    0.0000 O   0  0  0  0  0  0  0  0  0  0  0  0
    0.4867   -1.5184    0.0000 C   0  0  0  0  0  0  0  0  0  0  0  0
   -0.8964   -0.9378    0.0000 C   0  0  0  0  0  0  0  0  0  0  0  0
  2  1  1  6
  2  3  1  0
  3  4  1  0
  4  5  1  0
  5  6  2  0
  5  7  1  0
  7  8  2  0
  8  9  1  0
  9 10  2  0
 10 11  1  0
 11 12  2  0
  2 13  1  0
 13 14  1  6
 14 15  1  0
 16 15  1  6
 16 17  1  0
 17 18  1  1
 18 19  1  0
 20 19  1  1
 20 21  1  0
 21 22  1  0
 22 23  1  1
 22 24  1  0
 24 25  1  0
 25 26  1  0
 26 27  1  6
 26 28  1  0
 28 29  1  6
 29 30  1  0
 30 31  1  6
 30 32  1  0
 32 33  1  6
 12  7  1  0
 32 13  1  0
 32 16  1  0
 28 17  1  0
 26 20  1  0
M  END
>  <MS_ID>  (2705) 
MS2796

>  <SMILES>  (2705) 
C[C@H](CCC(=O)c1ccccc1)[C@H]1CC[C@H]2[C@@H]3CC[C@@H]4C[C@H](O)CC[C@]4(C)[C@H]3C[C@@H](O)[C@]12C

>  <Structure_dimension>  (2705) 
2D

$$$$
MS2797
     RDKit          2D

 28 31  0  0  0  0  0  0  0  0999 V2000
   -5.1275   -2.0302    0.0000 C   0  0  0  0  0  0  0  0  0  0  0  0
   -3.9468   -1.1050    0.0000 C   0  0  0  0  0  0  0  0  0  0  0  0
   -4.1576    0.3801    0.0000 C   0  0  0  0  0  0  0  0  0  0  0  0
   -5.5492    0.9401    0.0000 C   0  0  0  0  0  0  0  0  0  0  0  0
   -5.7600    2.4252    0.0000 C   0  0  0  0  0  0  0  0  0  0  0  0
   -4.5793    3.3503    0.0000 O   0  0  0  0  0  0  0  0  0  0  0  0
   -7.1516    2.9851    0.0000 O   0  0  0  0  0  0  0  0  0  0  0  0
   -2.5552   -1.6650    0.0000 C   0  0  0  0  0  0  0  0  0  0  0  0
   -2.1903   -3.1199    0.0000 C   0  0  0  0  0  0  0  0  0  0  0  0
   -0.6938   -3.2225    0.0000 C   0  0  0  0  0  0  0  0  0  0  0  0
   -0.1339   -1.8309    0.0000 C   0  0  0  0  0  0  0  0  0  0  0  0
    1.2750   -1.3159    0.0000 C   0  0  0  0  0  0  0  0  0  0  0  0
    2.4254   -2.2785    0.0000 C   0  0  0  0  0  0  0  0  0  0  0  0
    2.1670   -3.7560    0.0000 C   0  0  0  0  0  0  0  0  0  0  0  0
    3.8342   -1.7635    0.0000 C   0  0  0  0  0  0  0  0  0  0  0  0
    4.0926   -0.2859    0.0000 C   0  0  0  0  0  0  0  0  0  0  0  0
    5.5014    0.2291    0.0000 C   0  0  0  0  0  0  0  0  0  0  0  0
    5.7598    1.7067    0.0000 C   0  0  0  0  0  0  0  0  0  0  0  0
    7.1687    2.2217    0.0000 O   0  0  0  0  0  0  0  0  0  0  0  0
    4.6094    2.6692    0.0000 C   0  0  0  0  0  0  0  0  0  0  0  0
    3.2006    2.1542    0.0000 C   0  0  0  0  0  0  0  0  0  0  0  0
    2.9422    0.6767    0.0000 C   0  0  0  0  0  0  0  0  0  0  0  0
    1.7918    1.6392    0.0000 C   0  0  0  0  0  0  0  0  0  0  0  0
    1.5334    0.1617    0.0000 C   0  0  0  0  0  0  0  0  0  0  0  0
    0.3830    1.1242    0.0000 C   0  0  0  0  0  0  0  0  0  0  0  0
   -1.0259    0.6093    0.0000 C   0  0  0  0  0  0  0  0  0  0  0  0
   -1.2843   -0.8683    0.0000 C   0  0  0  0  0  0  0  0  0  0  0  0
   -2.5290   -0.0313    0.0000 C   0  0  0  0  0  0  0  0  0  0  0  0
  2  1  1  6
  2  3  1  0
  3  4  1  0
  4  5  1  0
  5  6  2  0
  5  7  1  0
  2  8  1  0
  8  9  1  6
  9 10  1  0
 11 10  1  6
 11 12  1  0
 12 13  1  1
 13 14  1  6
 13 15  1  0
 16 15  1  1
 16 17  1  0
 17 18  1  0
 18 19  1  1
 18 20  1  0
 20 21  1  0
 21 22  1  0
 22 23  1  6
 22 24  1  0
 24 25  1  6
 25 26  1  0
 26 27  1  0
 27 28  1  6
 27  8  1  0
 27 11  1  0
 24 12  1  0
 22 16  1  0
M  END
>  <MS_ID>  (2706) 
MS2797

>  <SMILES>  (2706) 
C[C@H](CCC(=O)O)[C@H]1CC[C@H]2[C@@H]3[C@@H](C)C[C@@H]4C[C@H](O)CC[C@]4(C)[C@H]3CC[C@]12C

>  <Structure_dimension>  (2706) 
2D

$$$$
MS2798
     RDKit          2D

 28 31  0  0  0  0  0  0  0  0999 V2000
   -5.0096   -2.1352    0.0000 C   0  0  0  0  0  0  0  0  0  0  0  0
   -3.8132   -1.2303    0.0000 C   0  0  0  0  0  0  0  0  0  0  0  0
   -3.9987    0.2582    0.0000 C   0  0  0  0  0  0  0  0  0  0  0  0
   -5.3805    0.8418    0.0000 C   0  0  0  0  0  0  0  0  0  0  0  0
   -5.5659    2.3303    0.0000 C   0  0  0  0  0  0  0  0  0  0  0  0
   -6.9477    2.9140    0.0000 N   0  0  0  0  0  0  0  0  0  0  0  0
   -4.3695    3.2351    0.0000 O   0  0  0  0  0  0  0  0  0  0  0  0
   -2.4315   -1.8140    0.0000 C   0  0  0  0  0  0  0  0  0  0  0  0
   -2.0914   -3.2749    0.0000 C   0  0  0  0  0  0  0  0  0  0  0  0
   -0.5969   -3.4030    0.0000 C   0  0  0  0  0  0  0  0  0  0  0  0
   -0.0133   -2.0212    0.0000 C   0  0  0  0  0  0  0  0  0  0  0  0
    1.4041   -1.5304    0.0000 C   0  0  0  0  0  0  0  0  0  0  0  0
    2.5379   -2.5125    0.0000 C   0  0  0  0  0  0  0  0  0  0  0  0
    3.9554   -2.0216    0.0000 C   0  0  0  0  0  0  0  0  0  0  0  0
    4.2390   -0.5487    0.0000 C   0  0  0  0  0  0  0  0  0  0  0  0
    5.6564   -0.0578    0.0000 C   0  0  0  0  0  0  0  0  0  0  0  0
    5.9400    1.4151    0.0000 C   0  0  0  0  0  0  0  0  0  0  0  0
    7.3574    1.9060    0.0000 O   0  0  0  0  0  0  0  0  0  0  0  0
    4.8062    2.3972    0.0000 C   0  0  0  0  0  0  0  0  0  0  0  0
    3.3888    1.9064    0.0000 C   0  0  0  0  0  0  0  0  0  0  0  0
    3.1052    0.4334    0.0000 C   0  0  0  0  0  0  0  0  0  0  0  0
    1.9714    1.4155    0.0000 C   0  0  0  0  0  0  0  0  0  0  0  0
    1.6878   -0.0574    0.0000 C   0  0  0  0  0  0  0  0  0  0  0  0
    0.5540    0.9246    0.0000 C   0  0  0  0  0  0  0  0  0  0  0  0
   -0.8635    0.4338    0.0000 C   0  0  0  0  0  0  0  0  0  0  0  0
   -1.9973    1.4159    0.0000 O   0  0  0  0  0  0  0  0  0  0  0  0
   -1.1471   -1.0392    0.0000 C   0  0  0  0  0  0  0  0  0  0  0  0
   -2.3773   -0.1810    0.0000 C   0  0  0  0  0  0  0  0  0  0  0  0
  2  1  1  6
  2  3  1  0
  3  4  1  0
  4  5  1  0
  5  6  1  0
  5  7  2  0
  2  8  1  0
  8  9  1  6
  9 10  1  0
 11 10  1  6
 11 12  1  0
 12 13  1  1
 13 14  1  0
 15 14  1  1
 15 16  1  0
 16 17  1  0
 17 18  2  0
 17 19  1  0
 19 20  1  0
 20 21  1  0
 21 22  1  6
 21 23  1  0
 23 24  1  6
 24 25  1  0
 25 26  1  1
 25 27  1  0
 27 28  1  6
 27  8  1  0
 27 11  1  0
 23 12  1  0
 21 15  1  0
M  END
>  <MS_ID>  (2707) 
MS2798

>  <SMILES>  (2707) 
C[C@H](CCC(N)=O)[C@H]1CC[C@H]2[C@@H]3CC[C@@H]4CC(=O)CC[C@]4(C)[C@H]3C[C@H](O)[C@]12C

>  <Structure_dimension>  (2707) 
2D

$$$$
MS2799
     RDKit          2D

 33 36  0  0  0  0  0  0  0  0999 V2000
   -2.7343   -4.0930    0.0000 C   0  0  0  0  0  0  0  0  0  0  0  0
   -1.9487   -2.8152    0.0000 C   0  0  0  0  0  0  0  0  0  0  0  0
   -2.6626   -1.4960    0.0000 C   0  0  0  0  0  0  0  0  0  0  0  0
   -4.1620   -1.4546    0.0000 C   0  0  0  0  0  0  0  0  0  0  0  0
   -4.8759   -0.1353    0.0000 C   0  0  0  0  0  0  0  0  0  0  0  0
   -4.0904    1.1425    0.0000 O   0  0  0  0  0  0  0  0  0  0  0  0
   -6.3753   -0.0940    0.0000 O   0  0  0  0  0  0  0  0  0  0  0  0
   -7.0892    1.2253    0.0000 C   0  0  0  0  0  0  0  0  0  0  0  0
   -8.5886    1.2666    0.0000 C   0  0  0  0  0  0  0  0  0  0  0  0
   -9.3025    2.5859    0.0000 O   0  0  0  0  0  0  0  0  0  0  0  0
   -6.3037    2.5031    0.0000 C   0  0  0  0  0  0  0  0  0  0  0  0
   -7.0176    3.8223    0.0000 O   0  0  0  0  0  0  0  0  0  0  0  0
   -0.4493   -2.8566    0.0000 C   0  0  0  0  0  0  0  0  0  0  0  0
    0.3986   -4.0940    0.0000 C   0  0  0  0  0  0  0  0  0  0  0  0
    1.8374   -3.6700    0.0000 C   0  0  0  0  0  0  0  0  0  0  0  0
    1.8788   -2.1705    0.0000 C   0  0  0  0  0  0  0  0  0  0  0  0
    3.0208   -1.1980    0.0000 C   0  0  0  0  0  0  0  0  0  0  0  0
    4.4340   -1.7007    0.0000 C   0  0  0  0  0  0  0  0  0  0  0  0
    4.7053   -3.1759    0.0000 O   0  0  0  0  0  0  0  0  0  0  0  0
    5.5760   -0.7281    0.0000 C   0  0  0  0  0  0  0  0  0  0  0  0
    5.3047    0.7472    0.0000 C   0  0  0  0  0  0  0  0  0  0  0  0
    6.4467    1.7197    0.0000 C   0  0  0  0  0  0  0  0  0  0  0  0
    6.1754    3.1950    0.0000 C   0  0  0  0  0  0  0  0  0  0  0  0
    7.3174    4.1676    0.0000 O   0  0  0  0  0  0  0  0  0  0  0  0
    4.7622    3.6977    0.0000 C   0  0  0  0  0  0  0  0  0  0  0  0
    3.6202    2.7251    0.0000 C   0  0  0  0  0  0  0  0  0  0  0  0
    3.8915    1.2499    0.0000 C   0  0  0  0  0  0  0  0  0  0  0  0
    2.4782    1.7526    0.0000 C   0  0  0  0  0  0  0  0  0  0  0  0
    2.7495    0.2773    0.0000 C   0  0  0  0  0  0  0  0  0  0  0  0
    1.3362    0.7800    0.0000 C   0  0  0  0  0  0  0  0  0  0  0  0
    0.1943   -0.1926    0.0000 C   0  0  0  0  0  0  0  0  0  0  0  0
    0.4655   -1.6678    0.0000 C   0  0  0  0  0  0  0  0  0  0  0  0
   -0.9925   -1.3156    0.0000 C   0  0  0  0  0  0  0  0  0  0  0  0
  2  1  1  6
  2  3  1  0
  3  4  1  0
  4  5  1  0
  5  6  2  0
  5  7  1  0
  7  8  1  0
  8  9  1  0
  9 10  1  0
  8 11  1  0
 11 12  1  0
  2 13  1  0
 13 14  1  6
 14 15  1  0
 16 15  1  6
 16 17  1  0
 17 18  1  1
 18 19  1  1
 18 20  1  0
 21 20  1  1
 21 22  1  0
 22 23  1  0
 23 24  1  1
 23 25  1  0
 25 26  1  0
 26 27  1  0
 27 28  1  6
 27 29  1  0
 29 30  1  6
 30 31  1  0
 31 32  1  0
 32 33  1  6
 32 13  1  0
 32 16  1  0
 29 17  1  0
 27 21  1  0
M  END
>  <MS_ID>  (2708) 
MS2799

>  <SMILES>  (2708) 
C[C@H](CCC(=O)OC(CO)CO)[C@H]1CC[C@H]2[C@@H]3[C@H](O)C[C@@H]4C[C@H](O)CC[C@]4(C)[C@H]3CC[C@]12C

>  <Structure_dimension>  (2708) 
2D

$$$$
MS2800
     RDKit          2D

 35 39  0  0  0  0  0  0  0  0999 V2000
   -2.7184   -3.4912    0.0000 C   0  0  0  0  0  0  0  0  0  0  0  0
   -1.7962   -2.3082    0.0000 C   0  0  0  0  0  0  0  0  0  0  0  0
   -2.3597   -0.9180    0.0000 C   0  0  0  0  0  0  0  0  0  0  0  0
   -3.8454   -0.7110    0.0000 C   0  0  0  0  0  0  0  0  0  0  0  0
   -4.4088    0.6792    0.0000 C   0  0  0  0  0  0  0  0  0  0  0  0
   -3.4867    1.8622    0.0000 O   0  0  0  0  0  0  0  0  0  0  0  0
   -5.8945    0.8862    0.0000 C   0  0  0  0  0  0  0  0  0  0  0  0
   -6.4580    2.2764    0.0000 C   0  0  0  0  0  0  0  0  0  0  0  0
   -7.9436    2.4834    0.0000 C   0  0  0  0  0  0  0  0  0  0  0  0
   -8.8658    1.3004    0.0000 C   0  0  0  0  0  0  0  0  0  0  0  0
  -10.3514    1.5075    0.0000 O   0  0  0  0  0  0  0  0  0  0  0  0
   -8.3023   -0.0898    0.0000 C   0  0  0  0  0  0  0  0  0  0  0  0
   -6.8166   -0.2968    0.0000 N   0  0  0  0  0  0  0  0  0  0  0  0
   -0.3106   -2.5152    0.0000 C   0  0  0  0  0  0  0  0  0  0  0  0
    0.3951   -3.8389    0.0000 C   0  0  0  0  0  0  0  0  0  0  0  0
    1.8720   -3.5767    0.0000 C   0  0  0  0  0  0  0  0  0  0  0  0
    2.0791   -2.0911    0.0000 C   0  0  0  0  0  0  0  0  0  0  0  0
    3.3217   -1.2509    0.0000 C   0  0  0  0  0  0  0  0  0  0  0  0
    4.6707   -1.9069    0.0000 C   0  0  0  0  0  0  0  0  0  0  0  0
    4.7770   -3.4031    0.0000 O   0  0  0  0  0  0  0  0  0  0  0  0
    5.9133   -1.0667    0.0000 C   0  0  0  0  0  0  0  0  0  0  0  0
    5.8069    0.4296    0.0000 C   0  0  0  0  0  0  0  0  0  0  0  0
    7.0495    1.2698    0.0000 C   0  0  0  0  0  0  0  0  0  0  0  0
    6.9432    2.7660    0.0000 C   0  0  0  0  0  0  0  0  0  0  0  0
    8.1858    3.6062    0.0000 O   0  0  0  0  0  0  0  0  0  0  0  0
    5.5942    3.4220    0.0000 C   0  0  0  0  0  0  0  0  0  0  0  0
    4.3516    2.5818    0.0000 C   0  0  0  0  0  0  0  0  0  0  0  0
    4.4580    1.0856    0.0000 C   0  0  0  0  0  0  0  0  0  0  0  0
    3.1090    1.7416    0.0000 C   0  0  0  0  0  0  0  0  0  0  0  0
    3.2154    0.2454    0.0000 C   0  0  0  0  0  0  0  0  0  0  0  0
    1.8664    0.9014    0.0000 C   0  0  0  0  0  0  0  0  0  0  0  0
    0.6238    0.0612    0.0000 C   0  0  0  0  0  0  0  0  0  0  0  0
   -0.7251    0.7172    0.0000 O   0  0  0  0  0  0  0  0  0  0  0  0
    0.7302   -1.4350    0.0000 C   0  0  0  0  0  0  0  0  0  0  0  0
   -0.6799   -0.9236    0.0000 C   0  0  0  0  0  0  0  0  0  0  0  0
  2  1  1  6
  2  3  1  0
  3  4  1  0
  4  5  1  0
  5  6  2  0
  5  7  1  0
  7  8  2  0
  8  9  1  0
  9 10  2  0
 10 11  1  0
 10 12  1  0
 12 13  2  0
  2 14  1  0
 14 15  1  6
 15 16  1  0
 17 16  1  6
 17 18  1  0
 18 19  1  1
 19 20  1  1
 19 21  1  0
 22 21  1  1
 22 23  1  0
 23 24  1  0
 24 25  1  1
 24 26  1  0
 26 27  1  0
 27 28  1  0
 28 29  1  6
 28 30  1  0
 30 31  1  6
 31 32  1  0
 32 33  1  1
 32 34  1  0
 34 35  1  6
 13  7  1  0
 34 14  1  0
 34 17  1  0
 30 18  1  0
 28 22  1  0
M  END
>  <MS_ID>  (2709) 
MS2800

>  <SMILES>  (2709) 
C[C@H](CCC(=O)c1ccc(O)cn1)[C@H]1CC[C@H]2[C@@H]3[C@H](O)C[C@@H]4C[C@H](O)CC[C@]4(C)[C@H]3C[C@H](O)[C@]12C

>  <Structure_dimension>  (2709) 
2D

$$$$
MS2801
     RDKit          2D

 33 36  0  0  0  0  0  0  0  0999 V2000
   -2.4343   -4.1694    0.0000 C   0  0  0  0  0  0  0  0  0  0  0  0
   -1.6856   -2.8696    0.0000 C   0  0  0  0  0  0  0  0  0  0  0  0
   -2.4369   -1.5713    0.0000 C   0  0  0  0  0  0  0  0  0  0  0  0
   -3.9369   -1.5728    0.0000 C   0  0  0  0  0  0  0  0  0  0  0  0
   -4.6882   -0.2745    0.0000 C   0  0  0  0  0  0  0  0  0  0  0  0
   -3.9395    1.0253    0.0000 O   0  0  0  0  0  0  0  0  0  0  0  0
   -6.1882   -0.2760    0.0000 C   0  0  0  0  0  0  0  0  0  0  0  0
   -6.9395    1.0223    0.0000 C   0  0  0  0  0  0  0  0  0  0  0  0
   -8.4395    1.0208    0.0000 C   0  0  0  0  0  0  0  0  0  0  0  0
   -9.1908    2.3191    0.0000 N   0  0  0  0  0  0  0  0  0  0  0  0
  -10.6908    2.3176    0.0000 C   0  0  0  0  0  0  0  0  0  0  0  0
   -8.4421    3.6189    0.0000 C   0  0  0  0  0  0  0  0  0  0  0  0
   -0.1856   -2.8681    0.0000 C   0  0  0  0  0  0  0  0  0  0  0  0
    0.6973   -4.0807    0.0000 C   0  0  0  0  0  0  0  0  0  0  0  0
    2.1234   -3.6158    0.0000 C   0  0  0  0  0  0  0  0  0  0  0  0
    2.1219   -2.1158    0.0000 C   0  0  0  0  0  0  0  0  0  0  0  0
    3.2356   -1.1109    0.0000 C   0  0  0  0  0  0  0  0  0  0  0  0
    4.6626   -1.5730    0.0000 C   0  0  0  0  0  0  0  0  0  0  0  0
    4.9760   -3.0399    0.0000 O   0  0  0  0  0  0  0  0  0  0  0  0
    5.7764   -0.5682    0.0000 C   0  0  0  0  0  0  0  0  0  0  0  0
    5.4630    0.8987    0.0000 C   0  0  0  0  0  0  0  0  0  0  0  0
    6.5767    1.9035    0.0000 C   0  0  0  0  0  0  0  0  0  0  0  0
    6.2634    3.3704    0.0000 C   0  0  0  0  0  0  0  0  0  0  0  0
    7.3771    4.3752    0.0000 O   0  0  0  0  0  0  0  0  0  0  0  0
    4.8363    3.8325    0.0000 C   0  0  0  0  0  0  0  0  0  0  0  0
    3.7226    2.8277    0.0000 C   0  0  0  0  0  0  0  0  0  0  0  0
    4.0360    1.3608    0.0000 C   0  0  0  0  0  0  0  0  0  0  0  0
    2.6089    1.8229    0.0000 C   0  0  0  0  0  0  0  0  0  0  0  0
    2.9223    0.3560    0.0000 C   0  0  0  0  0  0  0  0  0  0  0  0
    1.4952    0.8181    0.0000 C   0  0  0  0  0  0  0  0  0  0  0  0
    0.3815   -0.1867    0.0000 C   0  0  0  0  0  0  0  0  0  0  0  0
    0.6948   -1.6537    0.0000 C   0  0  0  0  0  0  0  0  0  0  0  0
   -0.7727   -1.3433    0.0000 C   0  0  0  0  0  0  0  0  0  0  0  0
  2  1  1  6
  2  3  1  0
  3  4  1  0
  4  5  1  0
  5  6  2  0
  5  7  1  0
  7  8  1  0
  8  9  1  0
  9 10  1  0
 10 11  1  0
 10 12  1  0
  2 13  1  0
 13 14  1  6
 14 15  1  0
 16 15  1  6
 16 17  1  0
 17 18  1  1
 18 19  1  1
 18 20  1  0
 21 20  1  1
 21 22  1  0
 22 23  1  0
 23 24  1  1
 23 25  1  0
 25 26  1  0
 26 27  1  0
 27 28  1  6
 27 29  1  0
 29 30  1  6
 30 31  1  0
 31 32  1  0
 32 33  1  6
 32 13  1  0
 32 16  1  0
 29 17  1  0
 27 21  1  0
M  END
>  <MS_ID>  (2710) 
MS2801

>  <SMILES>  (2710) 
C[C@H](CCC(=O)CCCN(C)C)[C@H]1CC[C@H]2[C@@H]3[C@H](O)C[C@@H]4C[C@H](O)CC[C@]4(C)[C@H]3CC[C@]12C

>  <Structure_dimension>  (2710) 
2D

$$$$
MS2802
     RDKit          2D

 40 44  0  0  0  0  0  0  0  0999 V2000
   -7.7456   -2.0849    0.0000 C   0  0  0  0  0  0  0  0  0  0  0  0
   -6.5700   -1.1533    0.0000 C   0  0  0  0  0  0  0  0  0  0  0  0
   -6.7891    0.3307    0.0000 C   0  0  0  0  0  0  0  0  0  0  0  0
   -8.1837    0.8829    0.0000 C   0  0  0  0  0  0  0  0  0  0  0  0
   -8.4028    2.3668    0.0000 C   0  0  0  0  0  0  0  0  0  0  0  0
   -7.2273    3.2985    0.0000 O   0  0  0  0  0  0  0  0  0  0  0  0
   -9.7975    2.9190    0.0000 O   0  0  0  0  0  0  0  0  0  0  0  0
   -5.1754   -1.7055    0.0000 C   0  0  0  0  0  0  0  0  0  0  0  0
   -4.8024   -3.1584    0.0000 C   0  0  0  0  0  0  0  0  0  0  0  0
   -3.3053   -3.2526    0.0000 C   0  0  0  0  0  0  0  0  0  0  0  0
   -2.7531   -1.8579    0.0000 C   0  0  0  0  0  0  0  0  0  0  0  0
   -1.3472   -1.3351    0.0000 C   0  0  0  0  0  0  0  0  0  0  0  0
   -0.1914   -2.2913    0.0000 C   0  0  0  0  0  0  0  0  0  0  0  0
   -0.4416   -3.7703    0.0000 O   0  0  0  0  0  0  0  0  0  0  0  0
    1.2145   -1.7685    0.0000 C   0  0  0  0  0  0  0  0  0  0  0  0
    1.4647   -0.2895    0.0000 C   0  0  0  0  0  0  0  0  0  0  0  0
    2.8707    0.2333    0.0000 C   0  0  0  0  0  0  0  0  0  0  0  0
    3.1208    1.7123    0.0000 C   0  0  0  0  0  0  0  0  0  0  0  0
    4.5268    2.2352    0.0000 O   0  0  0  0  0  0  0  0  0  0  0  0
    5.6825    1.2790    0.0000 C   0  0  0  0  0  0  0  0  0  0  0  0
    5.4323   -0.2000    0.0000 O   0  0  0  0  0  0  0  0  0  0  0  0
    6.5881   -1.1562    0.0000 C   0  0  0  0  0  0  0  0  0  0  0  0
    6.3379   -2.6351    0.0000 C   0  0  0  0  0  0  0  0  0  0  0  0
    4.9320   -3.1580    0.0000 O   0  0  0  0  0  0  0  0  0  0  0  0
    7.9940   -0.6333    0.0000 C   0  0  0  0  0  0  0  0  0  0  0  0
    9.1498   -1.5895    0.0000 O   0  0  0  0  0  0  0  0  0  0  0  0
    8.2442    0.8456    0.0000 C   0  0  0  0  0  0  0  0  0  0  0  0
    9.6501    1.3685    0.0000 O   0  0  0  0  0  0  0  0  0  0  0  0
    7.0885    1.8018    0.0000 C   0  0  0  0  0  0  0  0  0  0  0  0
    7.3387    3.2808    0.0000 O   0  0  0  0  0  0  0  0  0  0  0  0
    1.9651    2.6685    0.0000 C   0  0  0  0  0  0  0  0  0  0  0  0
    0.5592    2.1457    0.0000 C   0  0  0  0  0  0  0  0  0  0  0  0
    0.3090    0.6667    0.0000 C   0  0  0  0  0  0  0  0  0  0  0  0
   -0.8468    1.6229    0.0000 C   0  0  0  0  0  0  0  0  0  0  0  0
   -1.0970    0.1439    0.0000 C   0  0  0  0  0  0  0  0  0  0  0  0
   -2.2527    1.1000    0.0000 C   0  0  0  0  0  0  0  0  0  0  0  0
   -3.6586    0.5772    0.0000 C   0  0  0  0  0  0  0  0  0  0  0  0
   -4.8144    1.5334    0.0000 O   0  0  0  0  0  0  0  0  0  0  0  0
   -3.9088   -0.9018    0.0000 C   0  0  0  0  0  0  0  0  0  0  0  0
   -5.1582   -0.0716    0.0000 C   0  0  0  0  0  0  0  0  0  0  0  0
  2  1  1  6
  2  3  1  0
  3  4  1  0
  4  5  1  0
  5  6  2  0
  5  7  1  0
  2  8  1  0
  8  9  1  6
  9 10  1  0
 11 10  1  6
 11 12  1  0
 12 13  1  1
 13 14  1  1
 13 15  1  0
 16 15  1  1
 16 17  1  0
 17 18  1  0
 18 19  1  1
 20 19  1  1
 20 21  1  0
 21 22  1  0
 22 23  1  6
 23 24  1  0
 22 25  1  0
 25 26  1  1
 25 27  1  0
 27 28  1  6
 27 29  1  0
 29 30  1  6
 18 31  1  0
 31 32  1  0
 32 33  1  0
 33 34  1  6
 33 35  1  0
 35 36  1  6
 36 37  1  0
 37 38  1  1
 37 39  1  0
 39 40  1  6
 39  8  1  0
 39 11  1  0
 35 12  1  0
 33 16  1  0
 29 20  1  0
M  END
>  <MS_ID>  (2711) 
MS2802

>  <SMILES>  (2711) 
C[C@H](CCC(=O)O)[C@H]1CC[C@H]2[C@@H]3[C@H](O)C[C@@H]4C[C@H](O[C@@H]5O[C@@H](CO)[C@H](O)[C@@H](O)[C@H]5O)CC[C@]4(C)[C@H]3C[C@H](O)[C@]12C

>  <Structure_dimension>  (2711) 
2D

$$$$
MS2803
     RDKit          2D

 34 37  0  0  0  0  0  0  0  0999 V2000
   -3.0934   -3.6327    0.0000 C   0  0  0  0  0  0  0  0  0  0  0  0
   -2.2247   -2.4099    0.0000 C   0  0  0  0  0  0  0  0  0  0  0  0
   -2.8494   -1.0461    0.0000 C   0  0  0  0  0  0  0  0  0  0  0  0
   -4.3428   -0.9053    0.0000 C   0  0  0  0  0  0  0  0  0  0  0  0
   -4.9675    0.4584    0.0000 C   0  0  0  0  0  0  0  0  0  0  0  0
   -4.0988    1.6813    0.0000 O   0  0  0  0  0  0  0  0  0  0  0  0
   -6.4608    0.5993    0.0000 C   0  0  0  0  0  0  0  0  0  0  0  0
   -7.3295   -0.6236    0.0000 O   0  0  0  0  0  0  0  0  0  0  0  0
   -7.0855    1.9630    0.0000 C   0  0  0  0  0  0  0  0  0  0  0  0
   -8.5789    2.1039    0.0000 C   0  0  0  0  0  0  0  0  0  0  0  0
   -9.4476    0.8810    0.0000 O   0  0  0  0  0  0  0  0  0  0  0  0
   -9.2036    3.4676    0.0000 O   0  0  0  0  0  0  0  0  0  0  0  0
   -0.7313   -2.5507    0.0000 C   0  0  0  0  0  0  0  0  0  0  0  0
    0.0325   -3.8417    0.0000 C   0  0  0  0  0  0  0  0  0  0  0  0
    1.4963   -3.5142    0.0000 C   0  0  0  0  0  0  0  0  0  0  0  0
    1.6372   -2.0208    0.0000 C   0  0  0  0  0  0  0  0  0  0  0  0
    2.8412   -1.1262    0.0000 C   0  0  0  0  0  0  0  0  0  0  0  0
    4.2180   -1.7216    0.0000 C   0  0  0  0  0  0  0  0  0  0  0  0
    4.3907   -3.2117    0.0000 O   0  0  0  0  0  0  0  0  0  0  0  0
    5.4220   -0.8271    0.0000 C   0  0  0  0  0  0  0  0  0  0  0  0
    6.7988   -1.4225    0.0000 O   0  0  0  0  0  0  0  0  0  0  0  0
    5.2493    0.6630    0.0000 C   0  0  0  0  0  0  0  0  0  0  0  0
    6.4533    1.5576    0.0000 C   0  0  0  0  0  0  0  0  0  0  0  0
    6.2806    3.0476    0.0000 C   0  0  0  0  0  0  0  0  0  0  0  0
    7.4847    3.9422    0.0000 O   0  0  0  0  0  0  0  0  0  0  0  0
    4.9039    3.6430    0.0000 C   0  0  0  0  0  0  0  0  0  0  0  0
    3.6998    2.7484    0.0000 C   0  0  0  0  0  0  0  0  0  0  0  0
    3.8725    1.2584    0.0000 C   0  0  0  0  0  0  0  0  0  0  0  0
    2.4958    1.8538    0.0000 C   0  0  0  0  0  0  0  0  0  0  0  0
    2.6685    0.3638    0.0000 C   0  0  0  0  0  0  0  0  0  0  0  0
    1.2917    0.9593    0.0000 C   0  0  0  0  0  0  0  0  0  0  0  0
    0.0877    0.0647    0.0000 C   0  0  0  0  0  0  0  0  0  0  0  0
    0.2604   -1.4253    0.0000 C   0  0  0  0  0  0  0  0  0  0  0  0
   -1.1710   -0.9771    0.0000 C   0  0  0  0  0  0  0  0  0  0  0  0
  2  1  1  6
  2  3  1  0
  3  4  1  0
  4  5  1  0
  5  6  2  0
  5  7  1  0
  7  8  1  1
  7  9  1  0
  9 10  1  0
 10 11  2  0
 10 12  1  0
  2 13  1  0
 13 14  1  6
 14 15  1  0
 16 15  1  6
 16 17  1  0
 17 18  1  1
 18 19  1  1
 18 20  1  0
 20 21  1  1
 20 22  1  0
 22 23  1  1
 23 24  1  0
 24 25  1  1
 24 26  1  0
 26 27  1  0
 27 28  1  0
 28 29  1  6
 28 30  1  0
 30 31  1  6
 31 32  1  0
 32 33  1  0
 33 34  1  6
 33 13  1  0
 33 16  1  0
 30 17  1  0
 28 22  1  0
M  END
>  <MS_ID>  (2712) 
MS2803

>  <SMILES>  (2712) 
C[C@H](CCC(=O)[C@@H](O)CC(=O)O)[C@H]1CC[C@H]2[C@@H]3[C@H](O)[C@H](O)[C@@H]4C[C@H](O)CC[C@]4(C)[C@H]3CC[C@]12C

>  <Structure_dimension>  (2712) 
2D

$$$$
MS2804
     RDKit          2D

 33 37  0  0  0  0  0  0  0  0999 V2000
   -2.6774   -3.5117    0.0000 C   0  0  0  0  0  0  0  0  0  0  0  0
   -1.7282   -2.3503    0.0000 C   0  0  0  0  0  0  0  0  0  0  0  0
   -2.2594   -0.9475    0.0000 C   0  0  0  0  0  0  0  0  0  0  0  0
   -3.7399   -0.7062    0.0000 C   0  0  0  0  0  0  0  0  0  0  0  0
   -4.2711    0.6966    0.0000 C   0  0  0  0  0  0  0  0  0  0  0  0
   -3.3219    1.8581    0.0000 O   0  0  0  0  0  0  0  0  0  0  0  0
   -5.7516    0.9379    0.0000 C   0  0  0  0  0  0  0  0  0  0  0  0
   -6.2828    2.3407    0.0000 C   0  0  0  0  0  0  0  0  0  0  0  0
   -7.7633    2.5820    0.0000 C   0  0  0  0  0  0  0  0  0  0  0  0
   -8.7125    1.4206    0.0000 C   0  0  0  0  0  0  0  0  0  0  0  0
  -10.1930    1.6619    0.0000 O   0  0  0  0  0  0  0  0  0  0  0  0
   -8.1813    0.0178    0.0000 C   0  0  0  0  0  0  0  0  0  0  0  0
   -6.7008   -0.2235    0.0000 C   0  0  0  0  0  0  0  0  0  0  0  0
   -0.2477   -2.5916    0.0000 C   0  0  0  0  0  0  0  0  0  0  0  0
    0.4272   -3.9312    0.0000 C   0  0  0  0  0  0  0  0  0  0  0  0
    1.9098   -3.7032    0.0000 C   0  0  0  0  0  0  0  0  0  0  0  0
    2.1511   -2.2227    0.0000 C   0  0  0  0  0  0  0  0  0  0  0  0
    3.4128   -1.4114    0.0000 C   0  0  0  0  0  0  0  0  0  0  0  0
    4.7462   -2.0984    0.0000 C   0  0  0  0  0  0  0  0  0  0  0  0
    6.0079   -1.2872    0.0000 C   0  0  0  0  0  0  0  0  0  0  0  0
    5.9362    0.2111    0.0000 C   0  0  0  0  0  0  0  0  0  0  0  0
    7.1978    1.0224    0.0000 C   0  0  0  0  0  0  0  0  0  0  0  0
    7.1261    2.5207    0.0000 C   0  0  0  0  0  0  0  0  0  0  0  0
    8.3878    3.3320    0.0000 O   0  0  0  0  0  0  0  0  0  0  0  0
    5.7927    3.2077    0.0000 C   0  0  0  0  0  0  0  0  0  0  0  0
    4.5310    2.3964    0.0000 C   0  0  0  0  0  0  0  0  0  0  0  0
    4.6027    0.8981    0.0000 C   0  0  0  0  0  0  0  0  0  0  0  0
    3.2693    1.5851    0.0000 C   0  0  0  0  0  0  0  0  0  0  0  0
    3.3411    0.0868    0.0000 C   0  0  0  0  0  0  0  0  0  0  0  0
    2.0076    0.7738    0.0000 C   0  0  0  0  0  0  0  0  0  0  0  0
    0.7460   -0.0374    0.0000 C   0  0  0  0  0  0  0  0  0  0  0  0
    0.8177   -1.5357    0.0000 C   0  0  0  0  0  0  0  0  0  0  0  0
   -0.5802   -0.9919    0.0000 C   0  0  0  0  0  0  0  0  0  0  0  0
  2  1  1  6
  2  3  1  0
  3  4  1  0
  4  5  1  0
  5  6  2  0
  5  7  1  0
  7  8  2  0
  8  9  1  0
  9 10  2  0
 10 11  1  0
 10 12  1  0
 12 13  2  0
  2 14  1  0
 14 15  1  6
 15 16  1  0
 17 16  1  6
 17 18  1  0
 18 19  1  1
 19 20  1  0
 21 20  1  1
 21 22  1  0
 22 23  1  0
 23 24  1  6
 23 25  1  0
 25 26  1  0
 26 27  1  0
 27 28  1  6
 27 29  1  0
 29 30  1  6
 30 31  1  0
 31 32  1  0
 32 33  1  6
 13  7  1  0
 32 14  1  0
 32 17  1  0
 29 18  1  0
 27 21  1  0
M  END
>  <MS_ID>  (2713) 
MS2804

>  <SMILES>  (2713) 
C[C@H](CCC(=O)c1ccc(O)cc1)[C@H]1CC[C@H]2[C@@H]3CC[C@@H]4C[C@@H](O)CC[C@]4(C)[C@H]3CC[C@]12C

>  <Structure_dimension>  (2713) 
2D

$$$$
MS2805
     RDKit          2D

 40 44  0  0  0  0  0  0  0  0999 V2000
   -0.5894   -4.5453    0.0000 C   0  0  0  0  0  0  0  0  0  0  0  0
    0.1082   -3.2174    0.0000 C   0  0  0  0  0  0  0  0  0  0  0  0
   -0.6930   -1.9493    0.0000 C   0  0  0  0  0  0  0  0  0  0  0  0
   -2.1918   -2.0091    0.0000 C   0  0  0  0  0  0  0  0  0  0  0  0
   -2.9931   -0.7410    0.0000 C   0  0  0  0  0  0  0  0  0  0  0  0
   -2.2955    0.5869    0.0000 O   0  0  0  0  0  0  0  0  0  0  0  0
   -4.4919   -0.8009    0.0000 O   0  0  0  0  0  0  0  0  0  0  0  0
   -5.2931    0.4672    0.0000 C   0  0  0  0  0  0  0  0  0  0  0  0
   -3.9051    1.0361    0.0000 C   0  0  0  0  0  0  0  0  0  0  0  0
   -6.4028   -0.5420    0.0000 O   0  0  0  0  0  0  0  0  0  0  0  0
   -7.8317   -0.0856    0.0000 C   0  0  0  0  0  0  0  0  0  0  0  0
   -8.9414   -1.0949    0.0000 C   0  0  0  0  0  0  0  0  0  0  0  0
  -10.3702   -0.6385    0.0000 O   0  0  0  0  0  0  0  0  0  0  0  0
   -8.1508    1.3800    0.0000 C   0  0  0  0  0  0  0  0  0  0  0  0
   -9.5797    1.8364    0.0000 O   0  0  0  0  0  0  0  0  0  0  0  0
   -7.0411    2.3893    0.0000 C   0  0  0  0  0  0  0  0  0  0  0  0
   -7.3603    3.8549    0.0000 O   0  0  0  0  0  0  0  0  0  0  0  0
   -5.6123    1.9329    0.0000 C   0  0  0  0  0  0  0  0  0  0  0  0
   -4.5026    2.9421    0.0000 O   0  0  0  0  0  0  0  0  0  0  0  0
    1.6070   -3.1576    0.0000 C   0  0  0  0  0  0  0  0  0  0  0  0
    2.5364   -4.3350    0.0000 C   0  0  0  0  0  0  0  0  0  0  0  0
    3.9433   -3.8149    0.0000 C   0  0  0  0  0  0  0  0  0  0  0  0
    3.8835   -2.3161    0.0000 C   0  0  0  0  0  0  0  0  0  0  0  0
    4.9573   -1.2688    0.0000 C   0  0  0  0  0  0  0  0  0  0  0  0
    6.4012   -1.6750    0.0000 C   0  0  0  0  0  0  0  0  0  0  0  0
    7.4750   -0.6277    0.0000 C   0  0  0  0  0  0  0  0  0  0  0  0
    7.1049    0.8260    0.0000 C   0  0  0  0  0  0  0  0  0  0  0  0
    8.1787    1.8733    0.0000 C   0  0  0  0  0  0  0  0  0  0  0  0
    7.8086    3.3269    0.0000 C   0  0  0  0  0  0  0  0  0  0  0  0
    8.8824    4.3743    0.0000 O   0  0  0  0  0  0  0  0  0  0  0  0
    6.3646    3.7332    0.0000 C   0  0  0  0  0  0  0  0  0  0  0  0
    5.2908    2.6858    0.0000 C   0  0  0  0  0  0  0  0  0  0  0  0
    5.6610    1.2322    0.0000 C   0  0  0  0  0  0  0  0  0  0  0  0
    4.2170    1.6385    0.0000 C   0  0  0  0  0  0  0  0  0  0  0  0
    4.5872    0.1849    0.0000 C   0  0  0  0  0  0  0  0  0  0  0  0
    3.1432    0.5911    0.0000 C   0  0  0  0  0  0  0  0  0  0  0  0
    2.0694   -0.4562    0.0000 C   0  0  0  0  0  0  0  0  0  0  0  0
    0.6255   -0.0500    0.0000 O   0  0  0  0  0  0  0  0  0  0  0  0
    2.4396   -1.9099    0.0000 C   0  0  0  0  0  0  0  0  0  0  0  0
    0.9611   -1.6568    0.0000 C   0  0  0  0  0  0  0  0  0  0  0  0
  2  1  1  6
  2  3  1  0
  3  4  1  0
  4  5  1  0
  5  6  2  0
  5  7  1  0
  7  8  1  0
  8  9  1  1
  8 10  1  0
 10 11  1  0
 11 12  1  6
 12 13  1  0
 11 14  1  0
 14 15  1  1
 14 16  1  0
 16 17  1  1
 16 18  1  0
 18 19  1  1
  2 20  1  0
 20 21  1  6
 21 22  1  0
 23 22  1  6
 23 24  1  0
 24 25  1  1
 25 26  1  0
 27 26  1  1
 27 28  1  0
 28 29  1  0
 29 30  1  1
 29 31  1  0
 31 32  1  0
 32 33  1  0
 33 34  1  6
 33 35  1  0
 35 36  1  6
 36 37  1  0
 37 38  1  1
 37 39  1  0
 39 40  1  6
 18  8  1  0
 39 20  1  0
 39 23  1  0
 35 24  1  0
 33 27  1  0
M  END
>  <MS_ID>  (2714) 
MS2805

>  <SMILES>  (2714) 
C[C@H](CCC(=O)O[C@]1(C)O[C@H](CO)[C@@H](O)[C@@H](O)[C@H]1O)[C@H]1CC[C@H]2[C@@H]3CC[C@@H]4C[C@H](O)CC[C@]4(C)[C@H]3C[C@H](O)[C@]12C

>  <Structure_dimension>  (2714) 
2D

$$$$
MS2806
     RDKit          2D

 38 42  0  0  0  0  0  0  0  0999 V2000
   -0.6114   -4.7499    0.0000 C   0  0  0  0  0  0  0  0  0  0  0  0
    0.0028   -3.3814    0.0000 C   0  0  0  0  0  0  0  0  0  0  0  0
   -0.8754   -2.1653    0.0000 C   0  0  0  0  0  0  0  0  0  0  0  0
   -2.3676   -2.3177    0.0000 C   0  0  0  0  0  0  0  0  0  0  0  0
   -3.2457   -1.1016    0.0000 C   0  0  0  0  0  0  0  0  0  0  0  0
   -2.6316    0.2669    0.0000 O   0  0  0  0  0  0  0  0  0  0  0  0
   -4.7379   -1.2540    0.0000 C   0  0  0  0  0  0  0  0  0  0  0  0
   -5.6161   -0.0379    0.0000 C   0  0  0  0  0  0  0  0  0  0  0  0
   -5.0019    1.3306    0.0000 C   0  0  0  0  0  0  0  0  0  0  0  0
   -5.8801    2.5467    0.0000 C   0  0  0  0  0  0  0  0  0  0  0  0
   -7.3723    2.3943    0.0000 C   0  0  0  0  0  0  0  0  0  0  0  0
   -8.2504    3.6104    0.0000 O   0  0  0  0  0  0  0  0  0  0  0  0
   -7.9864    1.0258    0.0000 C   0  0  0  0  0  0  0  0  0  0  0  0
   -9.4787    0.8733    0.0000 C   0  0  0  0  0  0  0  0  0  0  0  0
  -10.3568    2.0894    0.0000 O   0  0  0  0  0  0  0  0  0  0  0  0
  -10.0928   -0.4952    0.0000 O   0  0  0  0  0  0  0  0  0  0  0  0
   -7.1083   -0.1903    0.0000 C   0  0  0  0  0  0  0  0  0  0  0  0
    1.4950   -3.2290    0.0000 C   0  0  0  0  0  0  0  0  0  0  0  0
    2.4954   -4.3466    0.0000 C   0  0  0  0  0  0  0  0  0  0  0  0
    3.8675   -3.7406    0.0000 C   0  0  0  0  0  0  0  0  0  0  0  0
    3.7151   -2.2483    0.0000 C   0  0  0  0  0  0  0  0  0  0  0  0
    4.7221   -1.1366    0.0000 C   0  0  0  0  0  0  0  0  0  0  0  0
    6.1884   -1.4527    0.0000 C   0  0  0  0  0  0  0  0  0  0  0  0
    7.1953   -0.3410    0.0000 C   0  0  0  0  0  0  0  0  0  0  0  0
    6.7360    1.0870    0.0000 C   0  0  0  0  0  0  0  0  0  0  0  0
    7.7429    2.1988    0.0000 C   0  0  0  0  0  0  0  0  0  0  0  0
    7.2836    3.6267    0.0000 C   0  0  0  0  0  0  0  0  0  0  0  0
    8.2906    4.7385    0.0000 O   0  0  0  0  0  0  0  0  0  0  0  0
    5.8173    3.9429    0.0000 C   0  0  0  0  0  0  0  0  0  0  0  0
    4.8103    2.8311    0.0000 C   0  0  0  0  0  0  0  0  0  0  0  0
    5.2697    1.4032    0.0000 C   0  0  0  0  0  0  0  0  0  0  0  0
    3.8034    1.7193    0.0000 C   0  0  0  0  0  0  0  0  0  0  0  0
    4.2627    0.2914    0.0000 C   0  0  0  0  0  0  0  0  0  0  0  0
    2.7964    0.6075    0.0000 C   0  0  0  0  0  0  0  0  0  0  0  0
    1.7895   -0.5042    0.0000 C   0  0  0  0  0  0  0  0  0  0  0  0
    0.3232   -0.1881    0.0000 O   0  0  0  0  0  0  0  0  0  0  0  0
    2.2488   -1.9322    0.0000 C   0  0  0  0  0  0  0  0  0  0  0  0
    0.7575   -1.7710    0.0000 C   0  0  0  0  0  0  0  0  0  0  0  0
  2  1  1  6
  2  3  1  0
  3  4  1  0
  4  5  1  0
  5  6  2  0
  5  7  1  0
  7  8  1  0
  8  9  2  0
  9 10  1  0
 10 11  2  0
 11 12  1  0
 11 13  1  0
 13 14  1  0
 14 15  2  0
 14 16  1  0
 13 17  2  0
  2 18  1  0
 18 19  1  6
 19 20  1  0
 21 20  1  6
 21 22  1  0
 22 23  1  1
 23 24  1  0
 25 24  1  1
 25 26  1  0
 26 27  1  0
 27 28  1  1
 27 29  1  0
 29 30  1  0
 30 31  1  0
 31 32  1  6
 31 33  1  0
 33 34  1  6
 34 35  1  0
 35 36  1  1
 35 37  1  0
 37 38  1  6
 17  8  1  0
 37 18  1  0
 37 21  1  0
 33 22  1  0
 31 25  1  0
M  END
>  <MS_ID>  (2715) 
MS2806

>  <SMILES>  (2715) 
C[C@H](CCC(=O)Cc1ccc(O)c(C(=O)O)c1)[C@H]1CC[C@H]2[C@@H]3CC[C@@H]4C[C@H](O)CC[C@]4(C)[C@H]3C[C@H](O)[C@]12C

>  <Structure_dimension>  (2715) 
2D

$$$$
MS2807
     RDKit          2D

 32 35  0  0  0  0  0  0  0  0999 V2000
   -5.9513   -1.9491    0.0000 C   0  0  0  0  0  0  0  0  0  0  0  0
   -4.7373   -1.0681    0.0000 C   0  0  0  0  0  0  0  0  0  0  0  0
   -4.8932    0.4238    0.0000 C   0  0  0  0  0  0  0  0  0  0  0  0
   -6.2631    1.0347    0.0000 C   0  0  0  0  0  0  0  0  0  0  0  0
   -6.4191    2.5266    0.0000 C   0  0  0  0  0  0  0  0  0  0  0  0
   -5.2050    3.4075    0.0000 O   0  0  0  0  0  0  0  0  0  0  0  0
   -7.7890    3.1375    0.0000 O   0  0  0  0  0  0  0  0  0  0  0  0
   -3.3673   -1.6790    0.0000 C   0  0  0  0  0  0  0  0  0  0  0  0
   -3.0563   -3.1464    0.0000 C   0  0  0  0  0  0  0  0  0  0  0  0
   -1.5646   -3.3041    0.0000 C   0  0  0  0  0  0  0  0  0  0  0  0
   -0.9537   -1.9341    0.0000 C   0  0  0  0  0  0  0  0  0  0  0  0
    0.4732   -1.4714    0.0000 C   0  0  0  0  0  0  0  0  0  0  0  0
    1.5873   -2.4758    0.0000 C   0  0  0  0  0  0  0  0  0  0  0  0
    1.2746   -3.9428    0.0000 O   0  0  0  0  0  0  0  0  0  0  0  0
    3.0141   -2.0131    0.0000 C   0  0  0  0  0  0  0  0  0  0  0  0
    3.3269   -0.5461    0.0000 C   0  0  0  0  0  0  0  0  0  0  0  0
    4.7537   -0.0834    0.0000 C   0  0  0  0  0  0  0  0  0  0  0  0
    5.0665    1.3837    0.0000 C   0  0  0  0  0  0  0  0  0  0  0  0
    6.4933    1.8464    0.0000 O   0  0  0  0  0  0  0  0  0  0  0  0
    7.6074    0.8420    0.0000 N   0  0  0  0  0  0  0  0  0  0  0  0
    7.2947   -0.6250    0.0000 O   0  0  0  0  0  0  0  0  0  0  0  0
    9.0343    1.3047    0.0000 O   0  0  0  0  0  0  0  0  0  0  0  0
    3.9523    2.3880    0.0000 C   0  0  0  0  0  0  0  0  0  0  0  0
    2.5255    1.9253    0.0000 C   0  0  0  0  0  0  0  0  0  0  0  0
    2.2127    0.4583    0.0000 C   0  0  0  0  0  0  0  0  0  0  0  0
    1.0986    1.4626    0.0000 C   0  0  0  0  0  0  0  0  0  0  0  0
    0.7859   -0.0044    0.0000 C   0  0  0  0  0  0  0  0  0  0  0  0
   -0.3282    1.0000    0.0000 C   0  0  0  0  0  0  0  0  0  0  0  0
   -1.7551    0.5373    0.0000 C   0  0  0  0  0  0  0  0  0  0  0  0
   -2.8692    1.5416    0.0000 O   0  0  0  0  0  0  0  0  0  0  0  0
   -2.0678   -0.9298    0.0000 C   0  0  0  0  0  0  0  0  0  0  0  0
   -3.2808   -0.0474    0.0000 C   0  0  0  0  0  0  0  0  0  0  0  0
  2  1  1  6
  2  3  1  0
  3  4  1  0
  4  5  1  0
  5  6  2  0
  5  7  1  0
  2  8  1  0
  8  9  1  6
  9 10  1  0
 11 10  1  6
 11 12  1  0
 12 13  1  1
 13 14  1  1
 13 15  1  0
 16 15  1  1
 16 17  1  0
 17 18  1  0
 18 19  1  1
 19 20  1  0
 20 21  2  0
 20 22  1  0
 18 23  1  0
 23 24  1  0
 24 25  1  0
 25 26  1  6
 25 27  1  0
 27 28  1  6
 28 29  1  0
 29 30  1  1
 29 31  1  0
 31 32  1  6
 31  8  1  0
 31 11  1  0
 27 12  1  0
 25 16  1  0
M  CHG  2  20   1  22  -1
M  END
>  <MS_ID>  (2716) 
MS2807

>  <SMILES>  (2716) 
C[C@H](CCC(=O)O)[C@H]1CC[C@H]2[C@@H]3[C@H](O)C[C@@H]4C[C@H](O[N+](=O)[O-])CC[C@]4(C)[C@H]3C[C@H](O)[C@]12C

>  <Structure_dimension>  (2716) 
2D

$$$$
MS2808
     RDKit          2D

 28 31  0  0  0  0  0  0  0  0999 V2000
   -5.0096   -2.1352    0.0000 C   0  0  0  0  0  0  0  0  0  0  0  0
   -3.8132   -1.2303    0.0000 C   0  0  0  0  0  0  0  0  0  0  0  0
   -3.9987    0.2582    0.0000 C   0  0  0  0  0  0  0  0  0  0  0  0
   -5.3805    0.8418    0.0000 C   0  0  0  0  0  0  0  0  0  0  0  0
   -5.5659    2.3303    0.0000 C   0  0  0  0  0  0  0  0  0  0  0  0
   -4.3695    3.2351    0.0000 O   0  0  0  0  0  0  0  0  0  0  0  0
   -6.9477    2.9140    0.0000 O   0  0  0  0  0  0  0  0  0  0  0  0
   -2.4315   -1.8140    0.0000 C   0  0  0  0  0  0  0  0  0  0  0  0
   -2.0914   -3.2749    0.0000 C   0  0  0  0  0  0  0  0  0  0  0  0
   -0.5969   -3.4030    0.0000 C   0  0  0  0  0  0  0  0  0  0  0  0
   -0.0133   -2.0212    0.0000 C   0  0  0  0  0  0  0  0  0  0  0  0
    1.4041   -1.5304    0.0000 C   0  0  0  0  0  0  0  0  0  0  0  0
    2.5379   -2.5125    0.0000 C   0  0  0  0  0  0  0  0  0  0  0  0
    3.9554   -2.0216    0.0000 C   0  0  0  0  0  0  0  0  0  0  0  0
    4.2390   -0.5487    0.0000 C   0  0  0  0  0  0  0  0  0  0  0  0
    5.6564   -0.0578    0.0000 C   0  0  0  0  0  0  0  0  0  0  0  0
    5.9400    1.4151    0.0000 C   0  0  0  0  0  0  0  0  0  0  0  0
    7.3574    1.9060    0.0000 O   0  0  0  0  0  0  0  0  0  0  0  0
    4.8062    2.3972    0.0000 C   0  0  0  0  0  0  0  0  0  0  0  0
    3.3888    1.9064    0.0000 C   0  0  0  0  0  0  0  0  0  0  0  0
    3.1052    0.4334    0.0000 C   0  0  0  0  0  0  0  0  0  0  0  0
    1.9714    1.4155    0.0000 C   0  0  0  0  0  0  0  0  0  0  0  0
    1.6878   -0.0574    0.0000 C   0  0  0  0  0  0  0  0  0  0  0  0
    0.5540    0.9246    0.0000 C   0  0  0  0  0  0  0  0  0  0  0  0
   -0.8635    0.4338    0.0000 C   0  0  0  0  0  0  0  0  0  0  0  0
   -1.9973    1.4159    0.0000 C   0  0  0  0  0  0  0  0  0  0  0  0
   -1.1471   -1.0392    0.0000 C   0  0  0  0  0  0  0  0  0  0  0  0
   -2.3773   -0.1810    0.0000 C   0  0  0  0  0  0  0  0  0  0  0  0
  2  1  1  6
  2  3  1  0
  3  4  1  0
  4  5  1  0
  5  6  2  0
  5  7  1  0
  2  8  1  0
  8  9  1  6
  9 10  1  0
 11 10  1  6
 11 12  1  0
 12 13  1  1
 13 14  1  0
 15 14  1  1
 15 16  1  0
 16 17  1  0
 17 18  1  1
 17 19  1  0
 19 20  1  0
 20 21  1  0
 21 22  1  6
 21 23  1  0
 23 24  1  6
 24 25  1  0
 25 26  1  6
 25 27  1  0
 27 28  1  6
 27  8  1  0
 27 11  1  0
 23 12  1  0
 21 15  1  0
M  END
>  <MS_ID>  (2717) 
MS2808

>  <SMILES>  (2717) 
C[C@H](CCC(=O)O)[C@H]1CC[C@H]2[C@@H]3CC[C@@H]4C[C@H](O)CC[C@]4(C)[C@H]3C[C@@H](C)[C@]12C

>  <Structure_dimension>  (2717) 
2D

$$$$
MS2809
     RDKit          2D

 35 38  0  0  0  0  0  0  0  0999 V2000
   -1.9457   -5.0701    0.0000 C   0  0  0  0  0  0  0  0  0  0  0  0
   -1.4056   -3.6707    0.0000 C   0  0  0  0  0  0  0  0  0  0  0  0
   -2.3474   -2.5033    0.0000 C   0  0  0  0  0  0  0  0  0  0  0  0
   -3.8294   -2.7352    0.0000 C   0  0  0  0  0  0  0  0  0  0  0  0
   -4.7713   -1.5678    0.0000 C   0  0  0  0  0  0  0  0  0  0  0  0
   -6.2532   -1.7997    0.0000 O   0  0  0  0  0  0  0  0  0  0  0  0
   -4.2312   -0.1684    0.0000 O   0  0  0  0  0  0  0  0  0  0  0  0
   -5.1730    0.9990    0.0000 C   0  0  0  0  0  0  0  0  0  0  0  0
   -6.6550    0.7671    0.0000 O   0  0  0  0  0  0  0  0  0  0  0  0
   -4.6329    2.3984    0.0000 O   0  0  0  0  0  0  0  0  0  0  0  0
   -5.5748    3.5659    0.0000 C   0  0  0  0  0  0  0  0  0  0  0  0
   -4.4073    4.5077    0.0000 C   0  0  0  0  0  0  0  0  0  0  0  0
   -6.7422    2.6240    0.0000 C   0  0  0  0  0  0  0  0  0  0  0  0
   -6.5166    4.7333    0.0000 C   0  0  0  0  0  0  0  0  0  0  0  0
    0.0764   -3.4387    0.0000 C   0  0  0  0  0  0  0  0  0  0  0  0
    1.1351   -4.5013    0.0000 C   0  0  0  0  0  0  0  0  0  0  0  0
    2.4728   -3.8228    0.0000 C   0  0  0  0  0  0  0  0  0  0  0  0
    2.2409   -2.3408    0.0000 C   0  0  0  0  0  0  0  0  0  0  0  0
    3.1870   -1.1768    0.0000 C   0  0  0  0  0  0  0  0  0  0  0  0
    4.6681   -1.4142    0.0000 C   0  0  0  0  0  0  0  0  0  0  0  0
    5.2031   -2.8155    0.0000 O   0  0  0  0  0  0  0  0  0  0  0  0
    5.6142   -0.2502    0.0000 C   0  0  0  0  0  0  0  0  0  0  0  0
    5.0792    1.1512    0.0000 C   0  0  0  0  0  0  0  0  0  0  0  0
    6.0253    2.3152    0.0000 C   0  0  0  0  0  0  0  0  0  0  0  0
    5.4903    3.7165    0.0000 C   0  0  0  0  0  0  0  0  0  0  0  0
    6.4364    4.8805    0.0000 O   0  0  0  0  0  0  0  0  0  0  0  0
    4.0092    3.9539    0.0000 C   0  0  0  0  0  0  0  0  0  0  0  0
    3.0631    2.7899    0.0000 C   0  0  0  0  0  0  0  0  0  0  0  0
    3.5981    1.3885    0.0000 C   0  0  0  0  0  0  0  0  0  0  0  0
    2.1170    1.6259    0.0000 C   0  0  0  0  0  0  0  0  0  0  0  0
    2.6520    0.2245    0.0000 C   0  0  0  0  0  0  0  0  0  0  0  0
    1.1709    0.4619    0.0000 C   0  0  0  0  0  0  0  0  0  0  0  0
    0.2248   -0.7021    0.0000 C   0  0  0  0  0  0  0  0  0  0  0  0
    0.7598   -2.1035    0.0000 C   0  0  0  0  0  0  0  0  0  0  0  0
   -0.7380   -2.0222    0.0000 C   0  0  0  0  0  0  0  0  0  0  0  0
  2  1  1  6
  2  3  1  0
  3  4  1  0
  4  5  1  0
  5  6  2  0
  5  7  1  0
  7  8  1  0
  8  9  2  0
  8 10  1  0
 10 11  1  0
 11 12  1  0
 11 13  1  0
 11 14  1  0
  2 15  1  0
 15 16  1  6
 16 17  1  0
 18 17  1  6
 18 19  1  0
 19 20  1  1
 20 21  1  1
 20 22  1  0
 23 22  1  1
 23 24  1  0
 24 25  1  0
 25 26  1  1
 25 27  1  0
 27 28  1  0
 28 29  1  0
 29 30  1  6
 29 31  1  0
 31 32  1  6
 32 33  1  0
 33 34  1  0
 34 35  1  6
 34 15  1  0
 34 18  1  0
 31 19  1  0
 29 23  1  0
M  END
>  <MS_ID>  (2718) 
MS2809

>  <SMILES>  (2718) 
C[C@H](CCC(=O)OC(=O)OC(C)(C)C)[C@H]1CC[C@H]2[C@@H]3[C@H](O)C[C@@H]4C[C@H](O)CC[C@]4(C)[C@H]3CC[C@]12C

>  <Structure_dimension>  (2718) 
2D

$$$$
MS2810
     RDKit          2D

 33 37  0  0  0  0  0  0  0  0999 V2000
   -3.6298   -3.2263    0.0000 C   0  0  0  0  0  0  0  0  0  0  0  0
   -2.6726   -2.0715    0.0000 C   0  0  0  0  0  0  0  0  0  0  0  0
   -3.1941   -0.6650    0.0000 C   0  0  0  0  0  0  0  0  0  0  0  0
   -4.6728   -0.4135    0.0000 C   0  0  0  0  0  0  0  0  0  0  0  0
   -5.1944    0.9930    0.0000 C   0  0  0  0  0  0  0  0  0  0  0  0
   -4.2371    2.1478    0.0000 O   0  0  0  0  0  0  0  0  0  0  0  0
   -6.6731    1.2445    0.0000 N   0  0  0  0  0  0  0  0  0  0  0  0
   -7.7458    0.1960    0.0000 C   0  0  0  0  0  0  0  0  0  0  0  0
   -9.0745    0.8923    0.0000 C   0  0  0  0  0  0  0  0  0  0  0  0
   -8.8229    2.3710    0.0000 N   0  0  0  0  0  0  0  0  0  0  0  0
   -7.3388    2.5887    0.0000 N   0  0  0  0  0  0  0  0  0  0  0  0
   -1.1938   -2.3230    0.0000 C   0  0  0  0  0  0  0  0  0  0  0  0
   -0.5281   -3.6672    0.0000 C   0  0  0  0  0  0  0  0  0  0  0  0
    0.9560   -3.4495    0.0000 C   0  0  0  0  0  0  0  0  0  0  0  0
    1.2075   -1.9708    0.0000 C   0  0  0  0  0  0  0  0  0  0  0  0
    2.4748   -1.1682    0.0000 C   0  0  0  0  0  0  0  0  0  0  0  0
    3.8034   -1.8644    0.0000 C   0  0  0  0  0  0  0  0  0  0  0  0
    3.8648   -3.3632    0.0000 O   0  0  0  0  0  0  0  0  0  0  0  0
    5.0707   -1.0619    0.0000 C   0  0  0  0  0  0  0  0  0  0  0  0
    6.3993   -1.7581    0.0000 O   0  0  0  0  0  0  0  0  0  0  0  0
    5.0093    0.4368    0.0000 C   0  0  0  0  0  0  0  0  0  0  0  0
    6.2766    1.2394    0.0000 C   0  0  0  0  0  0  0  0  0  0  0  0
    6.2152    2.7381    0.0000 C   0  0  0  0  0  0  0  0  0  0  0  0
    7.4824    3.5407    0.0000 O   0  0  0  0  0  0  0  0  0  0  0  0
    4.8865    3.4343    0.0000 C   0  0  0  0  0  0  0  0  0  0  0  0
    3.6193    2.6318    0.0000 C   0  0  0  0  0  0  0  0  0  0  0  0
    3.6807    1.1331    0.0000 C   0  0  0  0  0  0  0  0  0  0  0  0
    2.3520    1.8293    0.0000 C   0  0  0  0  0  0  0  0  0  0  0  0
    2.4134    0.3305    0.0000 C   0  0  0  0  0  0  0  0  0  0  0  0
    1.0848    1.0267    0.0000 C   0  0  0  0  0  0  0  0  0  0  0  0
   -0.1825    0.2242    0.0000 C   0  0  0  0  0  0  0  0  0  0  0  0
   -0.1211   -1.2745    0.0000 C   0  0  0  0  0  0  0  0  0  0  0  0
   -1.5152   -0.7210    0.0000 C   0  0  0  0  0  0  0  0  0  0  0  0
  2  1  1  6
  2  3  1  0
  3  4  1  0
  4  5  1  0
  5  6  2  0
  5  7  1  0
  7  8  1  0
  8  9  2  0
  9 10  1  0
 10 11  2  0
  2 12  1  0
 12 13  1  6
 13 14  1  0
 15 14  1  6
 15 16  1  0
 16 17  1  1
 17 18  1  1
 17 19  1  0
 19 20  1  1
 19 21  1  0
 21 22  1  1
 22 23  1  0
 23 24  1  1
 23 25  1  0
 25 26  1  0
 26 27  1  0
 27 28  1  6
 27 29  1  0
 29 30  1  6
 30 31  1  0
 31 32  1  0
 32 33  1  6
 11  7  1  0
 32 12  1  0
 32 15  1  0
 29 16  1  0
 27 21  1  0
M  END
>  <MS_ID>  (2719) 
MS2810

>  <SMILES>  (2719) 
C[C@H](CCC(=O)n1ccnn1)[C@H]1CC[C@H]2[C@@H]3[C@H](O)[C@H](O)[C@@H]4C[C@H](O)CC[C@]4(C)[C@H]3CC[C@]12C

>  <Structure_dimension>  (2719) 
2D

$$$$
MS2812
     RDKit          2D

 36 39  0  0  0  0  0  0  0  0999 V2000
   -0.9910   -4.6177    0.0000 C   0  0  0  0  0  0  0  0  0  0  0  0
   -0.3989   -3.2395    0.0000 C   0  0  0  0  0  0  0  0  0  0  0  0
   -1.2964   -2.0376    0.0000 C   0  0  0  0  0  0  0  0  0  0  0  0
   -2.7860   -2.2140    0.0000 C   0  0  0  0  0  0  0  0  0  0  0  0
   -3.6835   -1.0121    0.0000 C   0  0  0  0  0  0  0  0  0  0  0  0
   -3.0914    0.3661    0.0000 O   0  0  0  0  0  0  0  0  0  0  0  0
   -5.1731   -1.1885    0.0000 C   0  0  0  0  0  0  0  0  0  0  0  0
   -6.0706    0.0134    0.0000 C   0  0  0  0  0  0  0  0  0  0  0  0
   -5.4785    1.3916    0.0000 O   0  0  0  0  0  0  0  0  0  0  0  0
   -7.5602   -0.1630    0.0000 O   0  0  0  0  0  0  0  0  0  0  0  0
   -8.4577    1.0389    0.0000 C   0  0  0  0  0  0  0  0  0  0  0  0
   -9.9473    0.8626    0.0000 C   0  0  0  0  0  0  0  0  0  0  0  0
  -10.8449    2.0644    0.0000 C   0  0  0  0  0  0  0  0  0  0  0  0
  -10.2528    3.4426    0.0000 O   0  0  0  0  0  0  0  0  0  0  0  0
  -12.3345    1.8881    0.0000 O   0  0  0  0  0  0  0  0  0  0  0  0
    1.0907   -3.0632    0.0000 C   0  0  0  0  0  0  0  0  0  0  0  0
    2.1089   -4.1646    0.0000 C   0  0  0  0  0  0  0  0  0  0  0  0
    3.4711   -3.5366    0.0000 C   0  0  0  0  0  0  0  0  0  0  0  0
    3.2948   -2.0470    0.0000 C   0  0  0  0  0  0  0  0  0  0  0  0
    4.2838   -0.9192    0.0000 C   0  0  0  0  0  0  0  0  0  0  0  0
    5.7550   -1.2118    0.0000 C   0  0  0  0  0  0  0  0  0  0  0  0
    6.2372   -2.6322    0.0000 O   0  0  0  0  0  0  0  0  0  0  0  0
    6.7440   -0.0840    0.0000 C   0  0  0  0  0  0  0  0  0  0  0  0
    6.2618    1.3363    0.0000 C   0  0  0  0  0  0  0  0  0  0  0  0
    7.2508    2.4641    0.0000 C   0  0  0  0  0  0  0  0  0  0  0  0
    6.7686    3.8845    0.0000 C   0  0  0  0  0  0  0  0  0  0  0  0
    7.7576    5.0123    0.0000 O   0  0  0  0  0  0  0  0  0  0  0  0
    5.2974    4.1771    0.0000 C   0  0  0  0  0  0  0  0  0  0  0  0
    4.3084    3.0493    0.0000 C   0  0  0  0  0  0  0  0  0  0  0  0
    4.7906    1.6289    0.0000 C   0  0  0  0  0  0  0  0  0  0  0  0
    3.3194    1.9215    0.0000 C   0  0  0  0  0  0  0  0  0  0  0  0
    3.8016    0.5012    0.0000 C   0  0  0  0  0  0  0  0  0  0  0  0
    2.3304    0.7938    0.0000 C   0  0  0  0  0  0  0  0  0  0  0  0
    1.3414   -0.3340    0.0000 C   0  0  0  0  0  0  0  0  0  0  0  0
    1.8236   -1.7544    0.0000 C   0  0  0  0  0  0  0  0  0  0  0  0
    0.3299   -1.6172    0.0000 C   0  0  0  0  0  0  0  0  0  0  0  0
  2  1  1  6
  2  3  1  0
  3  4  1  0
  4  5  1  0
  5  6  2  0
  5  7  1  0
  7  8  1  0
  8  9  2  0
  8 10  1  0
 10 11  1  0
 11 12  1  0
 12 13  1  0
 13 14  2  0
 13 15  1  0
  2 16  1  0
 16 17  1  6
 17 18  1  0
 19 18  1  6
 19 20  1  0
 20 21  1  1
 21 22  1  6
 21 23  1  0
 24 23  1  1
 24 25  1  0
 25 26  1  0
 26 27  1  1
 26 28  1  0
 28 29  1  0
 29 30  1  0
 30 31  1  6
 30 32  1  0
 32 33  1  6
 33 34  1  0
 34 35  1  0
 35 36  1  6
 35 16  1  0
 35 19  1  0
 32 20  1  0
 30 24  1  0
M  END
>  <MS_ID>  (2720) 
MS2812

>  <SMILES>  (2720) 
C[C@H](CCC(=O)CC(=O)OCCC(=O)O)[C@H]1CC[C@H]2[C@@H]3[C@@H](O)C[C@@H]4C[C@H](O)CC[C@]4(C)[C@H]3CC[C@]12C

>  <Structure_dimension>  (2720) 
2D

$$$$
MS2813
     RDKit          2D

 35 39  0  0  0  0  0  0  0  0999 V2000
   -2.4312   -3.9441    0.0000 C   0  0  0  0  0  0  0  0  0  0  0  0
   -1.6409   -2.6691    0.0000 C   0  0  0  0  0  0  0  0  0  0  0  0
   -2.3499   -1.3473    0.0000 C   0  0  0  0  0  0  0  0  0  0  0  0
   -3.8492   -1.3003    0.0000 C   0  0  0  0  0  0  0  0  0  0  0  0
   -4.5582    0.0215    0.0000 C   0  0  0  0  0  0  0  0  0  0  0  0
   -3.7679    1.2965    0.0000 O   0  0  0  0  0  0  0  0  0  0  0  0
   -6.0574    0.0684    0.0000 O   0  0  0  0  0  0  0  0  0  0  0  0
   -6.7664    1.3903    0.0000 C   0  0  0  0  0  0  0  0  0  0  0  0
   -8.2657    1.4372    0.0000 C   0  0  0  0  0  0  0  0  0  0  0  0
   -9.1849    0.2519    0.0000 C   0  0  0  0  0  0  0  0  0  0  0  0
  -10.5963    0.7598    0.0000 C   0  0  0  0  0  0  0  0  0  0  0  0
  -10.5494    2.2591    0.0000 S   0  0  0  0  0  0  0  0  0  0  0  0
   -9.1090    2.6778    0.0000 C   0  0  0  0  0  0  0  0  0  0  0  0
   -0.1417   -2.7161    0.0000 C   0  0  0  0  0  0  0  0  0  0  0  0
    0.7016   -3.9566    0.0000 C   0  0  0  0  0  0  0  0  0  0  0  0
    2.1420   -3.5379    0.0000 C   0  0  0  0  0  0  0  0  0  0  0  0
    2.1889   -2.0387    0.0000 C   0  0  0  0  0  0  0  0  0  0  0  0
    3.3345   -1.0703    0.0000 C   0  0  0  0  0  0  0  0  0  0  0  0
    4.7459   -1.5783    0.0000 C   0  0  0  0  0  0  0  0  0  0  0  0
    5.0117   -3.0545    0.0000 O   0  0  0  0  0  0  0  0  0  0  0  0
    5.8915   -0.6099    0.0000 C   0  0  0  0  0  0  0  0  0  0  0  0
    7.3029   -1.1179    0.0000 O   0  0  0  0  0  0  0  0  0  0  0  0
    5.6257    0.8663    0.0000 C   0  0  0  0  0  0  0  0  0  0  0  0
    6.7712    1.8347    0.0000 C   0  0  0  0  0  0  0  0  0  0  0  0
    6.5054    3.3109    0.0000 C   0  0  0  0  0  0  0  0  0  0  0  0
    7.6510    4.2792    0.0000 O   0  0  0  0  0  0  0  0  0  0  0  0
    5.0940    3.8188    0.0000 C   0  0  0  0  0  0  0  0  0  0  0  0
    3.9485    2.8505    0.0000 C   0  0  0  0  0  0  0  0  0  0  0  0
    4.2143    1.3743    0.0000 C   0  0  0  0  0  0  0  0  0  0  0  0
    2.8029    1.8822    0.0000 C   0  0  0  0  0  0  0  0  0  0  0  0
    3.0687    0.4059    0.0000 C   0  0  0  0  0  0  0  0  0  0  0  0
    1.6573    0.9139    0.0000 C   0  0  0  0  0  0  0  0  0  0  0  0
    0.5117   -0.0545    0.0000 C   0  0  0  0  0  0  0  0  0  0  0  0
    0.7776   -1.5307    0.0000 C   0  0  0  0  0  0  0  0  0  0  0  0
   -0.6792   -1.1731    0.0000 C   0  0  0  0  0  0  0  0  0  0  0  0
  2  1  1  6
  2  3  1  0
  3  4  1  0
  4  5  1  0
  5  6  2  0
  5  7  1  0
  7  8  1  0
  8  9  1  0
  9 10  1  0
 10 11  2  0
 11 12  1  0
 12 13  1  0
  2 14  1  0
 14 15  1  6
 15 16  1  0
 17 16  1  6
 17 18  1  0
 18 19  1  1
 19 20  1  1
 19 21  1  0
 21 22  1  1
 21 23  1  0
 23 24  1  1
 24 25  1  0
 25 26  1  1
 25 27  1  0
 27 28  1  0
 28 29  1  0
 29 30  1  6
 29 31  1  0
 31 32  1  6
 32 33  1  0
 33 34  1  0
 34 35  1  6
 13  9  2  0
 34 14  1  0
 34 17  1  0
 31 18  1  0
 29 23  1  0
M  END
>  <MS_ID>  (2721) 
MS2813

>  <SMILES>  (2721) 
C[C@H](CCC(=O)OCc1ccsc1)[C@H]1CC[C@H]2[C@@H]3[C@H](O)[C@H](O)[C@@H]4C[C@H](O)CC[C@]4(C)[C@H]3CC[C@]12C

>  <Structure_dimension>  (2721) 
2D

$$$$
MS2814
     RDKit          2D

 36 40  0  0  0  0  0  0  0  0999 V2000
   -0.8331   -4.7687    0.0000 C   0  0  0  0  0  0  0  0  0  0  0  0
   -0.2451   -3.3888    0.0000 C   0  0  0  0  0  0  0  0  0  0  0  0
   -1.1461   -2.1895    0.0000 C   0  0  0  0  0  0  0  0  0  0  0  0
   -2.6352   -2.3702    0.0000 C   0  0  0  0  0  0  0  0  0  0  0  0
   -3.5362   -1.1709    0.0000 C   0  0  0  0  0  0  0  0  0  0  0  0
   -2.9481    0.2090    0.0000 O   0  0  0  0  0  0  0  0  0  0  0  0
   -5.0252   -1.3516    0.0000 O   0  0  0  0  0  0  0  0  0  0  0  0
   -5.9262   -0.1524    0.0000 C   0  0  0  0  0  0  0  0  0  0  0  0
   -7.4153   -0.3330    0.0000 C   0  0  0  0  0  0  0  0  0  0  0  0
   -8.3163    0.8662    0.0000 C   0  0  0  0  0  0  0  0  0  0  0  0
   -7.7283    2.2461    0.0000 C   0  0  0  0  0  0  0  0  0  0  0  0
   -8.6293    3.4454    0.0000 C   0  0  0  0  0  0  0  0  0  0  0  0
  -10.1183    3.2647    0.0000 C   0  0  0  0  0  0  0  0  0  0  0  0
  -10.7064    1.8848    0.0000 C   0  0  0  0  0  0  0  0  0  0  0  0
   -9.8054    0.6855    0.0000 C   0  0  0  0  0  0  0  0  0  0  0  0
    1.2440   -3.2081    0.0000 C   0  0  0  0  0  0  0  0  0  0  0  0
    2.2654   -4.3066    0.0000 C   0  0  0  0  0  0  0  0  0  0  0  0
    3.6258   -3.6746    0.0000 C   0  0  0  0  0  0  0  0  0  0  0  0
    3.4451   -2.1855    0.0000 C   0  0  0  0  0  0  0  0  0  0  0  0
    4.4308   -1.0549    0.0000 C   0  0  0  0  0  0  0  0  0  0  0  0
    5.9029   -1.3432    0.0000 C   0  0  0  0  0  0  0  0  0  0  0  0
    6.8886   -0.2126    0.0000 C   0  0  0  0  0  0  0  0  0  0  0  0
    6.4023    1.2064    0.0000 C   0  0  0  0  0  0  0  0  0  0  0  0
    7.3880    2.3371    0.0000 C   0  0  0  0  0  0  0  0  0  0  0  0
    6.9017    3.7561    0.0000 C   0  0  0  0  0  0  0  0  0  0  0  0
    7.8874    4.8867    0.0000 O   0  0  0  0  0  0  0  0  0  0  0  0
    5.4296    4.0444    0.0000 C   0  0  0  0  0  0  0  0  0  0  0  0
    4.4439    2.9137    0.0000 C   0  0  0  0  0  0  0  0  0  0  0  0
    4.9302    1.4947    0.0000 C   0  0  0  0  0  0  0  0  0  0  0  0
    3.4582    1.7831    0.0000 C   0  0  0  0  0  0  0  0  0  0  0  0
    3.9445    0.3641    0.0000 C   0  0  0  0  0  0  0  0  0  0  0  0
    2.4725    0.6524    0.0000 C   0  0  0  0  0  0  0  0  0  0  0  0
    1.4868   -0.4782    0.0000 C   0  0  0  0  0  0  0  0  0  0  0  0
    0.0148   -0.1899    0.0000 O   0  0  0  0  0  0  0  0  0  0  0  0
    1.9731   -1.8972    0.0000 C   0  0  0  0  0  0  0  0  0  0  0  0
    0.4790   -1.7643    0.0000 C   0  0  0  0  0  0  0  0  0  0  0  0
  2  1  1  6
  2  3  1  0
  3  4  1  0
  4  5  1  0
  5  6  2  0
  5  7  1  0
  7  8  1  0
  8  9  1  0
  9 10  1  0
 10 11  2  0
 11 12  1  0
 12 13  2  0
 13 14  1  0
 14 15  2  0
  2 16  1  0
 16 17  1  6
 17 18  1  0
 19 18  1  6
 19 20  1  0
 20 21  1  1
 21 22  1  0
 23 22  1  1
 23 24  1  0
 24 25  1  0
 25 26  1  1
 25 27  1  0
 27 28  1  0
 28 29  1  0
 29 30  1  6
 29 31  1  0
 31 32  1  6
 32 33  1  0
 33 34  1  1
 33 35  1  0
 35 36  1  6
 15 10  1  0
 35 16  1  0
 35 19  1  0
 31 20  1  0
 29 23  1  0
M  END
>  <MS_ID>  (2722) 
MS2814

>  <SMILES>  (2722) 
C[C@H](CCC(=O)OCCc1ccccc1)[C@H]1CC[C@H]2[C@@H]3CC[C@@H]4C[C@H](O)CC[C@]4(C)[C@H]3C[C@H](O)[C@]12C

>  <Structure_dimension>  (2722) 
2D

$$$$
MS2815
     RDKit          2D

 31 34  0  0  0  0  0  0  0  0999 V2000
   -4.4281   -2.8097    0.0000 C   0  0  0  0  0  0  0  0  0  0  0  0
   -3.3906   -1.7263    0.0000 C   0  0  0  0  0  0  0  0  0  0  0  0
   -3.8101   -0.2862    0.0000 C   0  0  0  0  0  0  0  0  0  0  0  0
   -5.2670    0.0707    0.0000 C   0  0  0  0  0  0  0  0  0  0  0  0
   -5.6865    1.5108    0.0000 C   0  0  0  0  0  0  0  0  0  0  0  0
   -4.6490    2.5942    0.0000 O   0  0  0  0  0  0  0  0  0  0  0  0
   -7.1434    1.8677    0.0000 N   0  0  0  0  0  3  0  0  0  0  0  0
   -7.5628    3.3078    0.0000 O   0  0  0  0  0  0  0  0  0  0  0  0
   -8.1809    0.7843    0.0000 O   0  0  0  0  0  0  0  0  0  0  0  0
   -1.9337   -2.0832    0.0000 C   0  0  0  0  0  0  0  0  0  0  0  0
   -1.3660   -3.4716    0.0000 C   0  0  0  0  0  0  0  0  0  0  0  0
    0.1299   -3.3608    0.0000 C   0  0  0  0  0  0  0  0  0  0  0  0
    0.4867   -1.9038    0.0000 C   0  0  0  0  0  0  0  0  0  0  0  0
    1.8082   -1.1941    0.0000 C   0  0  0  0  0  0  0  0  0  0  0  0
    3.0836   -1.9837    0.0000 C   0  0  0  0  0  0  0  0  0  0  0  0
    3.0374   -3.4830    0.0000 O   0  0  0  0  0  0  0  0  0  0  0  0
    4.4050   -1.2740    0.0000 C   0  0  0  0  0  0  0  0  0  0  0  0
    5.6804   -2.0636    0.0000 O   0  0  0  0  0  0  0  0  0  0  0  0
    4.4512    0.2253    0.0000 C   0  0  0  0  0  0  0  0  0  0  0  0
    5.7727    0.9350    0.0000 C   0  0  0  0  0  0  0  0  0  0  0  0
    5.8188    2.4343    0.0000 C   0  0  0  0  0  0  0  0  0  0  0  0
    7.1403    3.1440    0.0000 O   0  0  0  0  0  0  0  0  0  0  0  0
    4.5434    3.2239    0.0000 C   0  0  0  0  0  0  0  0  0  0  0  0
    3.2219    2.5142    0.0000 C   0  0  0  0  0  0  0  0  0  0  0  0
    3.1758    1.0149    0.0000 C   0  0  0  0  0  0  0  0  0  0  0  0
    1.9004    1.8045    0.0000 C   0  0  0  0  0  0  0  0  0  0  0  0
    1.8543    0.3052    0.0000 C   0  0  0  0  0  0  0  0  0  0  0  0
    0.5790    1.0948    0.0000 C   0  0  0  0  0  0  0  0  0  0  0  0
   -0.7425    0.3851    0.0000 C   0  0  0  0  0  0  0  0  0  0  0  0
   -0.7887   -1.1142    0.0000 C   0  0  0  0  0  0  0  0  0  0  0  0
   -2.1396   -0.4623    0.0000 C   0  0  0  0  0  0  0  0  0  0  0  0
  2  1  1  6
  2  3  1  0
  3  4  1  0
  4  5  1  0
  5  6  2  0
  5  7  1  0
  7  8  1  0
  7  9  1  0
  2 10  1  0
 10 11  1  6
 11 12  1  0
 13 12  1  6
 13 14  1  0
 14 15  1  1
 15 16  1  1
 15 17  1  0
 17 18  1  1
 17 19  1  0
 19 20  1  1
 20 21  1  0
 21 22  1  1
 21 23  1  0
 23 24  1  0
 24 25  1  0
 25 26  1  6
 25 27  1  0
 27 28  1  6
 28 29  1  0
 29 30  1  0
 30 31  1  6
 30 10  1  0
 30 13  1  0
 27 14  1  0
 25 19  1  0
M  CHG  3   7   1   8  -1   9  -1
M  RAD  1   7   2
M  END
>  <MS_ID>  (2723) 
MS2815

>  <SMILES>  (2723) 
C[C@H](CCC(=O)[N+]([O-])[O-])[C@H]1CC[C@H]2[C@@H]3[C@H](O)[C@H](O)[C@@H]4C[C@H](O)CC[C@]4(C)[C@H]3CC[C@]12C

>  <Structure_dimension>  (2723) 
2D

$$$$
MS2816
     RDKit          2D

 38 41  0  0  0  0  0  0  0  0999 V2000
   -5.7480   -2.4808    0.0000 C   0  0  0  0  0  0  0  0  0  0  0  0
   -4.6843   -1.4231    0.0000 C   0  0  0  0  0  0  0  0  0  0  0  0
   -5.0684    0.0269    0.0000 C   0  0  0  0  0  0  0  0  0  0  0  0
   -6.5162    0.4192    0.0000 C   0  0  0  0  0  0  0  0  0  0  0  0
   -6.9003    1.8692    0.0000 C   0  0  0  0  0  0  0  0  0  0  0  0
   -5.8367    2.9268    0.0000 O   0  0  0  0  0  0  0  0  0  0  0  0
   -8.3481    2.2615    0.0000 C   0  0  0  0  0  0  0  0  0  0  0  0
   -9.4118    1.2039    0.0000 O   0  0  0  0  0  0  0  0  0  0  0  0
   -8.7322    3.7115    0.0000 O   0  0  0  0  0  0  0  0  0  0  0  0
   -3.2365   -1.8155    0.0000 C   0  0  0  0  0  0  0  0  0  0  0  0
   -2.7029   -3.2173    0.0000 C   0  0  0  0  0  0  0  0  0  0  0  0
   -1.2048   -3.1431    0.0000 C   0  0  0  0  0  0  0  0  0  0  0  0
   -0.8124   -1.6953    0.0000 C   0  0  0  0  0  0  0  0  0  0  0  0
    0.5260   -1.0181    0.0000 C   0  0  0  0  0  0  0  0  0  0  0  0
    1.7817   -1.8386    0.0000 C   0  0  0  0  0  0  0  0  0  0  0  0
    1.6989   -3.3363    0.0000 O   0  0  0  0  0  0  0  0  0  0  0  0
    2.9546   -4.1569    0.0000 S   0  0  0  0  0  0  0  0  0  0  0  0
    3.7751   -2.9012    0.0000 O   0  0  0  0  0  0  0  0  0  0  0  0
    2.1341   -5.4125    0.0000 O   0  0  0  0  0  0  0  0  0  0  0  0
    4.2103   -4.9774    0.0000 O   0  0  0  0  0  0  0  0  0  0  0  0
    3.1201   -1.1614    0.0000 C   0  0  0  0  0  0  0  0  0  0  0  0
    3.2029    0.3363    0.0000 C   0  0  0  0  0  0  0  0  0  0  0  0
    4.5413    1.0135    0.0000 C   0  0  0  0  0  0  0  0  0  0  0  0
    4.6240    2.5112    0.0000 C   0  0  0  0  0  0  0  0  0  0  0  0
    5.9625    3.1884    0.0000 O   0  0  0  0  0  0  0  0  0  0  0  0
    7.2182    2.3679    0.0000 S   0  0  0  0  0  0  0  0  0  0  0  0
    6.3976    1.1122    0.0000 O   0  0  0  0  0  0  0  0  0  0  0  0
    8.0387    3.6236    0.0000 O   0  0  0  0  0  0  0  0  0  0  0  0
    8.4739    1.5474    0.0000 O   0  0  0  0  0  0  0  0  0  0  0  0
    3.3684    3.3317    0.0000 C   0  0  0  0  0  0  0  0  0  0  0  0
    2.0299    2.6545    0.0000 C   0  0  0  0  0  0  0  0  0  0  0  0
    1.9472    1.1568    0.0000 C   0  0  0  0  0  0  0  0  0  0  0  0
    0.6915    1.9773    0.0000 C   0  0  0  0  0  0  0  0  0  0  0  0
    0.6087    0.4796    0.0000 C   0  0  0  0  0  0  0  0  0  0  0  0
   -0.6469    1.3001    0.0000 C   0  0  0  0  0  0  0  0  0  0  0  0
   -1.9854    0.6229    0.0000 C   0  0  0  0  0  0  0  0  0  0  0  0
   -2.0681   -0.8748    0.0000 C   0  0  0  0  0  0  0  0  0  0  0  0
   -3.4027   -0.1900    0.0000 C   0  0  0  0  0  0  0  0  0  0  0  0
  2  1  1  6
  2  3  1  0
  3  4  1  0
  4  5  1  0
  5  6  2  0
  5  7  1  0
  7  8  2  0
  7  9  1  0
  2 10  1  0
 10 11  1  6
 11 12  1  0
 13 12  1  6
 13 14  1  0
 14 15  1  1
 15 16  1  6
 16 17  1  0
 17 18  2  0
 17 19  2  0
 17 20  1  0
 15 21  1  0
 22 21  1  1
 22 23  1  0
 23 24  1  0
 24 25  1  1
 25 26  1  0
 26 27  2  0
 26 28  2  0
 26 29  1  0
 24 30  1  0
 30 31  1  0
 31 32  1  0
 32 33  1  6
 32 34  1  0
 34 35  1  6
 35 36  1  0
 36 37  1  0
 37 38  1  6
 37 10  1  0
 37 13  1  0
 34 14  1  0
 32 22  1  0
M  END
>  <MS_ID>  (2724) 
MS2816

>  <SMILES>  (2724) 
C[C@H](CCC(=O)C(=O)O)[C@H]1CC[C@H]2[C@@H]3[C@@H](OS(=O)(=O)O)C[C@@H]4C[C@H](OS(=O)(=O)O)CC[C@]4(C)[C@H]3CC[C@]12C

>  <Structure_dimension>  (2724) 
2D

$$$$
MS2817
     RDKit          2D

 35 39  0  0  0  0  0  0  0  0999 V2000
   -1.2848   -4.6406    0.0000 C   0  0  0  0  0  0  0  0  0  0  0  0
   -0.6471   -3.2829    0.0000 C   0  0  0  0  0  0  0  0  0  0  0  0
   -1.5040   -2.0518    0.0000 C   0  0  0  0  0  0  0  0  0  0  0  0
   -2.9987   -2.1783    0.0000 C   0  0  0  0  0  0  0  0  0  0  0  0
   -3.8556   -0.9472    0.0000 C   0  0  0  0  0  0  0  0  0  0  0  0
   -3.2179    0.4105    0.0000 O   0  0  0  0  0  0  0  0  0  0  0  0
   -5.3503   -1.0738    0.0000 O   0  0  0  0  0  0  0  0  0  0  0  0
   -6.2072    0.1573    0.0000 C   0  0  0  0  0  0  0  0  0  0  0  0
   -7.7018    0.0307    0.0000 C   0  0  0  0  0  0  0  0  0  0  0  0
   -8.5588    1.2619    0.0000 N   0  0  0  0  0  0  0  0  0  0  0  0
  -10.0585    1.2922    0.0000 C   0  0  0  0  0  0  0  0  0  0  0  0
  -10.4931    2.7279    0.0000 C   0  0  0  0  0  0  0  0  0  0  0  0
   -9.2619    3.5848    0.0000 C   0  0  0  0  0  0  0  0  0  0  0  0
   -8.0665    2.6788    0.0000 N   0  0  0  0  0  0  0  0  0  0  0  0
    0.8476   -3.1563    0.0000 C   0  0  0  0  0  0  0  0  0  0  0  0
    1.8285   -4.2911    0.0000 C   0  0  0  0  0  0  0  0  0  0  0  0
    3.2109   -3.7088    0.0000 C   0  0  0  0  0  0  0  0  0  0  0  0
    3.0843   -2.2142    0.0000 C   0  0  0  0  0  0  0  0  0  0  0  0
    4.1104   -1.1200    0.0000 C   0  0  0  0  0  0  0  0  0  0  0  0
    5.5710   -1.4615    0.0000 C   0  0  0  0  0  0  0  0  0  0  0  0
    6.5970   -0.3673    0.0000 C   0  0  0  0  0  0  0  0  0  0  0  0
    6.1625    1.0684    0.0000 C   0  0  0  0  0  0  0  0  0  0  0  0
    7.1885    2.1625    0.0000 C   0  0  0  0  0  0  0  0  0  0  0  0
    6.7539    3.5982    0.0000 C   0  0  0  0  0  0  0  0  0  0  0  0
    7.7800    4.6924    0.0000 O   0  0  0  0  0  0  0  0  0  0  0  0
    5.2933    3.9397    0.0000 C   0  0  0  0  0  0  0  0  0  0  0  0
    4.2673    2.8455    0.0000 C   0  0  0  0  0  0  0  0  0  0  0  0
    4.7018    1.4098    0.0000 C   0  0  0  0  0  0  0  0  0  0  0  0
    3.2412    1.7513    0.0000 C   0  0  0  0  0  0  0  0  0  0  0  0
    3.6758    0.3157    0.0000 C   0  0  0  0  0  0  0  0  0  0  0  0
    2.2152    0.6572    0.0000 C   0  0  0  0  0  0  0  0  0  0  0  0
    1.1891   -0.4370    0.0000 C   0  0  0  0  0  0  0  0  0  0  0  0
   -0.2715   -0.0955    0.0000 O   0  0  0  0  0  0  0  0  0  0  0  0
    1.6237   -1.8727    0.0000 C   0  0  0  0  0  0  0  0  0  0  0  0
    0.1354   -1.6858    0.0000 C   0  0  0  0  0  0  0  0  0  0  0  0
  2  1  1  6
  2  3  1  0
  3  4  1  0
  4  5  1  0
  5  6  2  0
  5  7  1  0
  7  8  1  0
  8  9  1  0
  9 10  1  0
 10 11  1  0
 11 12  2  0
 12 13  1  0
 13 14  2  0
  2 15  1  0
 15 16  1  6
 16 17  1  0
 18 17  1  6
 18 19  1  0
 19 20  1  1
 20 21  1  0
 22 21  1  1
 22 23  1  0
 23 24  1  0
 24 25  1  1
 24 26  1  0
 26 27  1  0
 27 28  1  0
 28 29  1  6
 28 30  1  0
 30 31  1  6
 31 32  1  0
 32 33  1  1
 32 34  1  0
 34 35  1  6
 14 10  1  0
 34 15  1  0
 34 18  1  0
 30 19  1  0
 28 22  1  0
M  END
>  <MS_ID>  (2725) 
MS2817

>  <SMILES>  (2725) 
C[C@H](CCC(=O)OCCn1cccn1)[C@H]1CC[C@H]2[C@@H]3CC[C@@H]4C[C@H](O)CC[C@]4(C)[C@H]3C[C@H](O)[C@]12C

>  <Structure_dimension>  (2725) 
2D

$$$$
MS2818
     RDKit          2D

 30 33  0  0  0  0  0  0  0  0999 V2000
   -4.3209   -2.7536    0.0000 C   0  0  0  0  0  0  0  0  0  0  0  0
   -3.2523   -1.7010    0.0000 C   0  0  0  0  0  0  0  0  0  0  0  0
   -3.6295   -0.2492    0.0000 C   0  0  0  0  0  0  0  0  0  0  0  0
   -5.0755    0.1499    0.0000 C   0  0  0  0  0  0  0  0  0  0  0  0
   -5.4527    1.6017    0.0000 C   0  0  0  0  0  0  0  0  0  0  0  0
   -4.3841    2.6543    0.0000 O   0  0  0  0  0  0  0  0  0  0  0  0
   -6.8987    2.0009    0.0000 C   0  0  0  0  0  0  0  0  0  0  0  0
   -7.9673    0.9482    0.0000 O   0  0  0  0  0  0  0  0  0  0  0  0
   -7.2759    3.4526    0.0000 O   0  0  0  0  0  0  0  0  0  0  0  0
   -1.8064   -2.1002    0.0000 C   0  0  0  0  0  0  0  0  0  0  0  0
   -1.2794   -3.5046    0.0000 C   0  0  0  0  0  0  0  0  0  0  0  0
    0.2191   -3.4374    0.0000 C   0  0  0  0  0  0  0  0  0  0  0  0
    0.6183   -1.9915    0.0000 C   0  0  0  0  0  0  0  0  0  0  0  0
    1.9599   -1.3206    0.0000 C   0  0  0  0  0  0  0  0  0  0  0  0
    3.2117   -2.1470    0.0000 C   0  0  0  0  0  0  0  0  0  0  0  0
    3.1219   -3.6443    0.0000 O   0  0  0  0  0  0  0  0  0  0  0  0
    4.5533   -1.4762    0.0000 C   0  0  0  0  0  0  0  0  0  0  0  0
    4.6431    0.0211    0.0000 C   0  0  0  0  0  0  0  0  0  0  0  0
    5.9847    0.6920    0.0000 C   0  0  0  0  0  0  0  0  0  0  0  0
    6.0745    2.1893    0.0000 C   0  0  0  0  0  0  0  0  0  0  0  0
    7.4161    2.8602    0.0000 O   0  0  0  0  0  0  0  0  0  0  0  0
    4.8227    3.0158    0.0000 C   0  0  0  0  0  0  0  0  0  0  0  0
    3.4811    2.3449    0.0000 C   0  0  0  0  0  0  0  0  0  0  0  0
    3.3913    0.8476    0.0000 C   0  0  0  0  0  0  0  0  0  0  0  0
    2.1395    1.6740    0.0000 C   0  0  0  0  0  0  0  0  0  0  0  0
    2.0497    0.1767    0.0000 C   0  0  0  0  0  0  0  0  0  0  0  0
    0.7979    1.0031    0.0000 C   0  0  0  0  0  0  0  0  0  0  0  0
   -0.5437    0.3323    0.0000 C   0  0  0  0  0  0  0  0  0  0  0  0
   -0.6335   -1.1650    0.0000 C   0  0  0  0  0  0  0  0  0  0  0  0
   -1.9649   -0.4740    0.0000 C   0  0  0  0  0  0  0  0  0  0  0  0
  2  1  1  6
  2  3  1  0
  3  4  1  0
  4  5  1  0
  5  6  2  0
  5  7  1  0
  7  8  2  0
  7  9  1  0
  2 10  1  0
 10 11  1  6
 11 12  1  0
 13 12  1  6
 13 14  1  0
 14 15  1  1
 15 16  1  1
 15 17  1  0
 18 17  1  1
 18 19  1  0
 19 20  1  0
 20 21  2  0
 20 22  1  0
 22 23  1  0
 23 24  1  0
 24 25  1  6
 24 26  1  0
 26 27  1  6
 27 28  1  0
 28 29  1  0
 29 30  1  6
 29 10  1  0
 29 13  1  0
 26 14  1  0
 24 18  1  0
M  END
>  <MS_ID>  (2726) 
MS2818

>  <SMILES>  (2726) 
C[C@H](CCC(=O)C(=O)O)[C@H]1CC[C@H]2[C@@H]3[C@H](O)C[C@@H]4CC(=O)CC[C@]4(C)[C@H]3CC[C@]12C

>  <Structure_dimension>  (2726) 
2D

$$$$
MS2819
     RDKit          2D

 28 31  0  0  0  0  0  0  0  0999 V2000
   -4.2208   -2.8067    0.0000 C   0  0  0  0  0  0  0  0  0  0  0  0
   -3.1997   -1.7079    0.0000 C   0  0  0  0  0  0  0  0  0  0  0  0
   -3.6407   -0.2742    0.0000 C   0  0  0  0  0  0  0  0  0  0  0  0
   -5.1028    0.0607    0.0000 C   0  0  0  0  0  0  0  0  0  0  0  0
   -5.5438    1.4944    0.0000 C   0  0  0  0  0  0  0  0  0  0  0  0
   -4.5227    2.5932    0.0000 O   0  0  0  0  0  0  0  0  0  0  0  0
   -7.0059    1.8294    0.0000 C   0  0  0  0  0  0  0  0  0  0  0  0
   -7.4469    3.2631    0.0000 S   0  0  0  0  0  0  0  0  0  0  0  0
   -1.7376   -2.0429    0.0000 C   0  0  0  0  0  0  0  0  0  0  0  0
   -1.1491   -3.4226    0.0000 C   0  0  0  0  0  0  0  0  0  0  0  0
    0.3450   -3.2894    0.0000 C   0  0  0  0  0  0  0  0  0  0  0  0
    0.6799   -1.8272    0.0000 C   0  0  0  0  0  0  0  0  0  0  0  0
    1.9906   -1.0978    0.0000 C   0  0  0  0  0  0  0  0  0  0  0  0
    3.2777   -1.8682    0.0000 C   0  0  0  0  0  0  0  0  0  0  0  0
    3.2540   -3.3680    0.0000 O   0  0  0  0  0  0  0  0  0  0  0  0
    4.5883   -1.1387    0.0000 C   0  0  0  0  0  0  0  0  0  0  0  0
    4.6120    0.3611    0.0000 C   0  0  0  0  0  0  0  0  0  0  0  0
    5.9227    1.0905    0.0000 C   0  0  0  0  0  0  0  0  0  0  0  0
    5.9463    2.5904    0.0000 C   0  0  0  0  0  0  0  0  0  0  0  0
    4.6592    3.3607    0.0000 C   0  0  0  0  0  0  0  0  0  0  0  0
    3.3485    2.6313    0.0000 C   0  0  0  0  0  0  0  0  0  0  0  0
    3.3249    1.1315    0.0000 C   0  0  0  0  0  0  0  0  0  0  0  0
    2.0379    1.9018    0.0000 C   0  0  0  0  0  0  0  0  0  0  0  0
    2.0142    0.4020    0.0000 C   0  0  0  0  0  0  0  0  0  0  0  0
    0.7272    1.1724    0.0000 C   0  0  0  0  0  0  0  0  0  0  0  0
   -0.5835    0.4430    0.0000 C   0  0  0  0  0  0  0  0  0  0  0  0
   -0.6072   -1.0569    0.0000 C   0  0  0  0  0  0  0  0  0  0  0  0
   -1.9677   -0.4252    0.0000 C   0  0  0  0  0  0  0  0  0  0  0  0
  2  1  1  6
  2  3  1  0
  3  4  1  0
  4  5  1  0
  5  6  2  0
  5  7  1  0
  7  8  1  0
  2  9  1  0
  9 10  1  6
 10 11  1  0
 12 11  1  6
 12 13  1  0
 13 14  1  1
 14 15  1  6
 14 16  1  0
 17 16  1  1
 17 18  1  0
 18 19  1  0
 19 20  1  0
 20 21  1  0
 21 22  1  0
 22 23  1  6
 22 24  1  0
 24 25  1  6
 25 26  1  0
 26 27  1  0
 27 28  1  6
 27  9  1  0
 27 12  1  0
 24 13  1  0
 22 17  1  0
M  END
>  <MS_ID>  (2727) 
MS2819

>  <SMILES>  (2727) 
C[C@H](CCC(=O)CS)[C@H]1CC[C@H]2[C@@H]3[C@@H](O)C[C@@H]4CCCC[C@]4(C)[C@H]3CC[C@]12C

>  <Structure_dimension>  (2727) 
2D

$$$$
MS2820
     RDKit          2D

 36 39  0  0  0  0  0  0  0  0999 V2000
   -2.1103   -4.2976    0.0000 C   0  0  0  0  0  0  0  0  0  0  0  0
   -1.3784   -2.9883    0.0000 C   0  0  0  0  0  0  0  0  0  0  0  0
   -2.1464   -1.6998    0.0000 C   0  0  0  0  0  0  0  0  0  0  0  0
   -3.6462   -1.7207    0.0000 C   0  0  0  0  0  0  0  0  0  0  0  0
   -4.4142   -0.4322    0.0000 C   0  0  0  0  0  0  0  0  0  0  0  0
   -3.6824    0.8772    0.0000 O   0  0  0  0  0  0  0  0  0  0  0  0
   -5.9141   -0.4530    0.0000 O   0  0  0  0  0  0  0  0  0  0  0  0
   -6.6821    0.8354    0.0000 C   0  0  0  0  0  0  0  0  0  0  0  0
   -7.9706    0.0674    0.0000 C   0  0  0  0  0  0  0  0  0  0  0  0
   -5.3936    1.6034    0.0000 C   0  0  0  0  0  0  0  0  0  0  0  0
   -7.4501    2.1239    0.0000 C   0  0  0  0  0  0  0  0  0  0  0  0
   -8.7386    1.3559    0.0000 C   0  0  0  0  0  0  0  0  0  0  0  0
   -6.1616    2.8919    0.0000 C   0  0  0  0  0  0  0  0  0  0  0  0
   -8.2181    3.4124    0.0000 O   0  0  0  0  0  0  0  0  0  0  0  0
    0.1215   -2.9674    0.0000 C   0  0  0  0  0  0  0  0  0  0  0  0
    1.0199   -4.1686    0.0000 C   0  0  0  0  0  0  0  0  0  0  0  0
    2.4399   -3.6852    0.0000 C   0  0  0  0  0  0  0  0  0  0  0  0
    2.4191   -2.1854    0.0000 C   0  0  0  0  0  0  0  0  0  0  0  0
    3.5197   -1.1663    0.0000 C   0  0  0  0  0  0  0  0  0  0  0  0
    4.9526   -1.6099    0.0000 C   0  0  0  0  0  0  0  0  0  0  0  0
    5.2849   -3.0727    0.0000 O   0  0  0  0  0  0  0  0  0  0  0  0
    6.0533   -0.5908    0.0000 C   0  0  0  0  0  0  0  0  0  0  0  0
    5.7210    0.8719    0.0000 C   0  0  0  0  0  0  0  0  0  0  0  0
    6.8217    1.8910    0.0000 C   0  0  0  0  0  0  0  0  0  0  0  0
    6.4894    3.3538    0.0000 C   0  0  0  0  0  0  0  0  0  0  0  0
    7.5901    4.3729    0.0000 O   0  0  0  0  0  0  0  0  0  0  0  0
    5.0565    3.7974    0.0000 C   0  0  0  0  0  0  0  0  0  0  0  0
    3.9559    2.7783    0.0000 C   0  0  0  0  0  0  0  0  0  0  0  0
    4.2881    1.3156    0.0000 C   0  0  0  0  0  0  0  0  0  0  0  0
    2.8552    1.7592    0.0000 C   0  0  0  0  0  0  0  0  0  0  0  0
    3.1875    0.2965    0.0000 C   0  0  0  0  0  0  0  0  0  0  0  0
    1.7546    0.7401    0.0000 C   0  0  0  0  0  0  0  0  0  0  0  0
    0.6539   -0.2790    0.0000 C   0  0  0  0  0  0  0  0  0  0  0  0
   -0.7790    0.1646    0.0000 O   0  0  0  0  0  0  0  0  0  0  0  0
    0.9862   -1.7417    0.0000 C   0  0  0  0  0  0  0  0  0  0  0  0
   -0.4852   -1.4503    0.0000 C   0  0  0  0  0  0  0  0  0  0  0  0
  2  1  1  6
  2  3  1  0
  3  4  1  0
  4  5  1  0
  5  6  2  0
  5  7  1  0
  7  8  1  0
  8  9  1  0
  8 10  1  0
  8 11  1  0
 11 12  1  0
 11 13  1  0
 11 14  1  0
  2 15  1  0
 15 16  1  6
 16 17  1  0
 18 17  1  6
 18 19  1  0
 19 20  1  1
 20 21  1  1
 20 22  1  0
 23 22  1  1
 23 24  1  0
 24 25  1  0
 25 26  1  1
 25 27  1  0
 27 28  1  0
 28 29  1  0
 29 30  1  6
 29 31  1  0
 31 32  1  6
 32 33  1  0
 33 34  1  1
 33 35  1  0
 35 36  1  6
 35 15  1  0
 35 18  1  0
 31 19  1  0
 29 23  1  0
M  END
>  <MS_ID>  (2728) 
MS2820

>  <SMILES>  (2728) 
C[C@H](CCC(=O)OC(C)(C)C(C)(C)O)[C@H]1CC[C@H]2[C@@H]3[C@H](O)C[C@@H]4C[C@H](O)CC[C@]4(C)[C@H]3C[C@H](O)[C@]12C

>  <Structure_dimension>  (2728) 
2D

$$$$
MS2821
     RDKit          2D

 34 37  0  0  0  0  0  0  0  0999 V2000
   -2.4018   -4.1785    0.0000 C   0  0  0  0  0  0  0  0  0  0  0  0
   -1.6536   -2.8784    0.0000 C   0  0  0  0  0  0  0  0  0  0  0  0
   -2.4055   -1.5804    0.0000 C   0  0  0  0  0  0  0  0  0  0  0  0
   -3.9055   -1.5826    0.0000 C   0  0  0  0  0  0  0  0  0  0  0  0
   -4.6574   -0.2846    0.0000 C   0  0  0  0  0  0  0  0  0  0  0  0
   -3.9092    1.0155    0.0000 O   0  0  0  0  0  0  0  0  0  0  0  0
   -6.1574   -0.2867    0.0000 N   0  0  0  0  0  0  0  0  0  0  0  0
   -6.9092    1.0112    0.0000 C   0  0  0  0  0  0  0  0  0  0  0  0
   -8.4092    1.0091    0.0000 C   0  0  0  0  0  0  0  0  0  0  0  0
   -9.1611    2.3071    0.0000 C   0  0  0  0  0  0  0  0  0  0  0  0
  -10.6611    2.3049    0.0000 C   0  0  0  0  0  0  0  0  0  0  0  0
   -8.4129    3.6072    0.0000 O   0  0  0  0  0  0  0  0  0  0  0  0
   -0.1536   -2.8762    0.0000 C   0  0  0  0  0  0  0  0  0  0  0  0
    0.7298   -4.0885    0.0000 C   0  0  0  0  0  0  0  0  0  0  0  0
    2.1557   -3.6229    0.0000 C   0  0  0  0  0  0  0  0  0  0  0  0
    2.1535   -2.1229    0.0000 C   0  0  0  0  0  0  0  0  0  0  0  0
    3.2668   -1.1176    0.0000 C   0  0  0  0  0  0  0  0  0  0  0  0
    4.6941   -1.5791    0.0000 C   0  0  0  0  0  0  0  0  0  0  0  0
    5.0080   -3.0459    0.0000 O   0  0  0  0  0  0  0  0  0  0  0  0
    5.8073   -0.5738    0.0000 C   0  0  0  0  0  0  0  0  0  0  0  0
    5.4934    0.8929    0.0000 C   0  0  0  0  0  0  0  0  0  0  0  0
    6.6067    1.8982    0.0000 C   0  0  0  0  0  0  0  0  0  0  0  0
    6.2927    3.3650    0.0000 C   0  0  0  0  0  0  0  0  0  0  0  0
    7.4060    4.3703    0.0000 O   0  0  0  0  0  0  0  0  0  0  0  0
    4.8655    3.8265    0.0000 C   0  0  0  0  0  0  0  0  0  0  0  0
    3.7522    2.8212    0.0000 C   0  0  0  0  0  0  0  0  0  0  0  0
    4.0661    1.3544    0.0000 C   0  0  0  0  0  0  0  0  0  0  0  0
    2.6389    1.8159    0.0000 C   0  0  0  0  0  0  0  0  0  0  0  0
    2.9529    0.3491    0.0000 C   0  0  0  0  0  0  0  0  0  0  0  0
    1.5256    0.8106    0.0000 C   0  0  0  0  0  0  0  0  0  0  0  0
    0.4123   -0.1947    0.0000 C   0  0  0  0  0  0  0  0  0  0  0  0
   -1.0149    0.2668    0.0000 O   0  0  0  0  0  0  0  0  0  0  0  0
    0.7263   -1.6614    0.0000 C   0  0  0  0  0  0  0  0  0  0  0  0
   -0.7414   -1.3517    0.0000 C   0  0  0  0  0  0  0  0  0  0  0  0
  2  1  1  6
  2  3  1  0
  3  4  1  0
  4  5  1  0
  5  6  2  0
  5  7  1  0
  7  8  1  0
  8  9  1  0
  9 10  1  0
 10 11  1  1
 10 12  1  0
  2 13  1  0
 13 14  1  6
 14 15  1  0
 16 15  1  6
 16 17  1  0
 17 18  1  1
 18 19  1  1
 18 20  1  0
 21 20  1  1
 21 22  1  0
 22 23  1  0
 23 24  1  1
 23 25  1  0
 25 26  1  0
 26 27  1  0
 27 28  1  6
 27 29  1  0
 29 30  1  6
 30 31  1  0
 31 32  1  1
 31 33  1  0
 33 34  1  6
 33 13  1  0
 33 16  1  0
 29 17  1  0
 27 21  1  0
M  END
>  <MS_ID>  (2729) 
MS2821

>  <SMILES>  (2729) 
C[C@H](CCC(=O)NCC[C@@H](C)O)[C@H]1CC[C@H]2[C@@H]3[C@H](O)C[C@@H]4C[C@H](O)CC[C@]4(C)[C@H]3C[C@H](O)[C@]12C

>  <Structure_dimension>  (2729) 
2D

$$$$
MS2822
     RDKit          2D

 37 41  0  0  0  0  0  0  0  0999 V2000
   -0.7699   -4.6561    0.0000 C   0  0  0  0  0  0  0  0  0  0  0  0
   -0.1875   -3.2738    0.0000 C   0  0  0  0  0  0  0  0  0  0  0  0
   -1.0935   -2.0783    0.0000 C   0  0  0  0  0  0  0  0  0  0  0  0
   -2.5818   -2.2651    0.0000 C   0  0  0  0  0  0  0  0  0  0  0  0
   -3.4877   -1.0696    0.0000 C   0  0  0  0  0  0  0  0  0  0  0  0
   -2.9054    0.3128    0.0000 O   0  0  0  0  0  0  0  0  0  0  0  0
   -4.9761   -1.2564    0.0000 C   0  0  0  0  0  0  0  0  0  0  0  0
   -5.8820   -0.0609    0.0000 O   0  0  0  0  0  0  0  0  0  0  0  0
   -7.3703   -0.2477    0.0000 C   0  0  0  0  0  0  0  0  0  0  0  0
   -7.9527   -1.6301    0.0000 O   0  0  0  0  0  0  0  0  0  0  0  0
   -8.2763    0.9478    0.0000 C   0  0  0  0  0  0  0  0  0  0  0  0
   -7.6939    2.3301    0.0000 C   0  0  0  0  0  0  0  0  0  0  0  0
   -8.5999    3.5256    0.0000 C   0  0  0  0  0  0  0  0  0  0  0  0
  -10.0882    3.3388    0.0000 C   0  0  0  0  0  0  0  0  0  0  0  0
  -10.6706    1.9564    0.0000 C   0  0  0  0  0  0  0  0  0  0  0  0
   -9.7646    0.7609    0.0000 C   0  0  0  0  0  0  0  0  0  0  0  0
    1.3008   -3.0869    0.0000 C   0  0  0  0  0  0  0  0  0  0  0  0
    2.3268   -4.1812    0.0000 C   0  0  0  0  0  0  0  0  0  0  0  0
    3.6845   -3.5436    0.0000 C   0  0  0  0  0  0  0  0  0  0  0  0
    3.4977   -2.0553    0.0000 C   0  0  0  0  0  0  0  0  0  0  0  0
    4.4787   -0.9205    0.0000 C   0  0  0  0  0  0  0  0  0  0  0  0
    5.9519   -1.2028    0.0000 C   0  0  0  0  0  0  0  0  0  0  0  0
    6.4441   -2.6197    0.0000 O   0  0  0  0  0  0  0  0  0  0  0  0
    6.9329   -0.0680    0.0000 C   0  0  0  0  0  0  0  0  0  0  0  0
    6.4408    1.3489    0.0000 C   0  0  0  0  0  0  0  0  0  0  0  0
    7.4218    2.4836    0.0000 C   0  0  0  0  0  0  0  0  0  0  0  0
    6.9296    3.9006    0.0000 C   0  0  0  0  0  0  0  0  0  0  0  0
    7.9106    5.0353    0.0000 O   0  0  0  0  0  0  0  0  0  0  0  0
    5.4564    4.1828    0.0000 C   0  0  0  0  0  0  0  0  0  0  0  0
    4.4754    3.0481    0.0000 C   0  0  0  0  0  0  0  0  0  0  0  0
    4.9675    1.6311    0.0000 C   0  0  0  0  0  0  0  0  0  0  0  0
    3.4943    1.9134    0.0000 C   0  0  0  0  0  0  0  0  0  0  0  0
    3.9865    0.4964    0.0000 C   0  0  0  0  0  0  0  0  0  0  0  0
    2.5133    0.7786    0.0000 C   0  0  0  0  0  0  0  0  0  0  0  0
    1.5323   -0.3561    0.0000 C   0  0  0  0  0  0  0  0  0  0  0  0
    2.0245   -1.7730    0.0000 C   0  0  0  0  0  0  0  0  0  0  0  0
    0.5298   -1.6463    0.0000 C   0  0  0  0  0  0  0  0  0  0  0  0
  2  1  1  6
  2  3  1  0
  3  4  1  0
  4  5  1  0
  5  6  2  0
  5  7  1  0
  7  8  1  0
  8  9  1  0
  9 10  2  0
  9 11  1  0
 11 12  2  0
 12 13  1  0
 13 14  2  0
 14 15  1  0
 15 16  2  0
  2 17  1  0
 17 18  1  6
 18 19  1  0
 20 19  1  6
 20 21  1  0
 21 22  1  1
 22 23  1  1
 22 24  1  0
 25 24  1  1
 25 26  1  0
 26 27  1  0
 27 28  1  1
 27 29  1  0
 29 30  1  0
 30 31  1  0
 31 32  1  6
 31 33  1  0
 33 34  1  6
 34 35  1  0
 35 36  1  0
 36 37  1  6
 16 11  1  0
 36 17  1  0
 36 20  1  0
 33 21  1  0
 31 25  1  0
M  END
>  <MS_ID>  (2730) 
MS2822

>  <SMILES>  (2730) 
C[C@H](CCC(=O)COC(=O)c1ccccc1)[C@H]1CC[C@H]2[C@@H]3[C@H](O)C[C@@H]4C[C@H](O)CC[C@]4(C)[C@H]3CC[C@]12C

>  <Structure_dimension>  (2730) 
2D

$$$$
MS2823
     RDKit          2D

 30 33  0  0  0  0  0  0  0  0999 V2000
   -5.0361   -2.2421    0.0000 C   0  0  0  0  0  0  0  0  0  0  0  0
   -3.9151   -1.2454    0.0000 C   0  0  0  0  0  0  0  0  0  0  0  0
   -4.2177    0.2237    0.0000 C   0  0  0  0  0  0  0  0  0  0  0  0
   -5.6413    0.6963    0.0000 C   0  0  0  0  0  0  0  0  0  0  0  0
   -5.9439    2.1654    0.0000 C   0  0  0  0  0  0  0  0  0  0  0  0
   -4.8228    3.1621    0.0000 O   0  0  0  0  0  0  0  0  0  0  0  0
   -7.3675    2.6380    0.0000 O   0  0  0  0  0  0  0  0  0  0  0  0
   -2.4915   -1.7180    0.0000 C   0  0  0  0  0  0  0  0  0  0  0  0
   -2.0370   -3.1475    0.0000 C   0  0  0  0  0  0  0  0  0  0  0  0
   -0.5370   -3.1570    0.0000 C   0  0  0  0  0  0  0  0  0  0  0  0
   -0.0645   -1.7333    0.0000 C   0  0  0  0  0  0  0  0  0  0  0  0
    1.3097   -1.1319    0.0000 C   0  0  0  0  0  0  0  0  0  0  0  0
    2.5176   -2.0213    0.0000 C   0  0  0  0  0  0  0  0  0  0  0  0
    2.3514   -3.5120    0.0000 N   0  0  0  0  0  0  0  0  0  0  0  0
    3.5593   -4.4014    0.0000 O   0  0  0  0  0  0  0  0  0  0  0  0
    3.8918   -1.4198    0.0000 C   0  0  0  0  0  0  0  0  0  0  0  0
    4.0580    0.0709    0.0000 C   0  0  0  0  0  0  0  0  0  0  0  0
    5.4321    0.6723    0.0000 C   0  0  0  0  0  0  0  0  0  0  0  0
    5.5984    2.1631    0.0000 C   0  0  0  0  0  0  0  0  0  0  0  0
    6.9725    2.7645    0.0000 O   0  0  0  0  0  0  0  0  0  0  0  0
    4.3904    3.0524    0.0000 C   0  0  0  0  0  0  0  0  0  0  0  0
    3.0163    2.4510    0.0000 C   0  0  0  0  0  0  0  0  0  0  0  0
    2.8501    0.9603    0.0000 C   0  0  0  0  0  0  0  0  0  0  0  0
    1.6421    1.8496    0.0000 C   0  0  0  0  0  0  0  0  0  0  0  0
    1.4759    0.3588    0.0000 C   0  0  0  0  0  0  0  0  0  0  0  0
    0.2680    1.2482    0.0000 C   0  0  0  0  0  0  0  0  0  0  0  0
   -1.1062    0.6468    0.0000 C   0  0  0  0  0  0  0  0  0  0  0  0
   -2.3141    1.5361    0.0000 O   0  0  0  0  0  0  0  0  0  0  0  0
   -1.2724   -0.8440    0.0000 C   0  0  0  0  0  0  0  0  0  0  0  0
   -2.5667   -0.0858    0.0000 C   0  0  0  0  0  0  0  0  0  0  0  0
  2  1  1  6
  2  3  1  0
  3  4  1  0
  4  5  1  0
  5  6  2  0
  5  7  1  0
  2  8  1  0
  8  9  1  6
  9 10  1  0
 11 10  1  6
 11 12  1  0
 12 13  1  1
 13 14  1  1
 14 15  1  0
 13 16  1  0
 17 16  1  1
 17 18  1  0
 18 19  1  0
 19 20  1  6
 19 21  1  0
 21 22  1  0
 22 23  1  0
 23 24  1  6
 23 25  1  0
 25 26  1  6
 26 27  1  0
 27 28  1  1
 27 29  1  0
 29 30  1  6
 29  8  1  0
 29 11  1  0
 25 12  1  0
 23 17  1  0
M  END
>  <MS_ID>  (2731) 
MS2823

>  <SMILES>  (2731) 
C[C@H](CCC(=O)O)[C@H]1CC[C@H]2[C@@H]3[C@H](NO)C[C@@H]4C[C@@H](O)CC[C@]4(C)[C@H]3C[C@H](O)[C@]12C

>  <Structure_dimension>  (2731) 
2D

$$$$
MS2824
     RDKit          2D

 31 34  0  0  0  0  0  0  0  0999 V2000
   -9.4306    3.6828    0.0000 C   0  0  0  0  0  0  0  0  0  0  0  0
   -8.8425    2.3029    0.0000 O   0  0  0  0  0  0  0  0  0  0  0  0
   -7.3534    2.1223    0.0000 C   0  0  0  0  0  0  0  0  0  0  0  0
   -6.7653    0.7424    0.0000 O   0  0  0  0  0  0  0  0  0  0  0  0
   -5.2762    0.5618    0.0000 C   0  0  0  0  0  0  0  0  0  0  0  0
   -4.3753    1.7610    0.0000 O   0  0  0  0  0  0  0  0  0  0  0  0
   -4.6881   -0.8181    0.0000 C   0  0  0  0  0  0  0  0  0  0  0  0
   -3.1991   -0.9988    0.0000 C   0  0  0  0  0  0  0  0  0  0  0  0
   -2.6109   -2.3787    0.0000 C   0  0  0  0  0  0  0  0  0  0  0  0
   -3.5119   -3.5779    0.0000 C   0  0  0  0  0  0  0  0  0  0  0  0
   -1.1219   -2.5593    0.0000 C   0  0  0  0  0  0  0  0  0  0  0  0
   -0.3927   -3.8702    0.0000 C   0  0  0  0  0  0  0  0  0  0  0  0
    1.0793   -3.5818    0.0000 C   0  0  0  0  0  0  0  0  0  0  0  0
    1.2599   -2.0927    0.0000 C   0  0  0  0  0  0  0  0  0  0  0  0
    2.4874   -1.2306    0.0000 C   0  0  0  0  0  0  0  0  0  0  0  0
    3.8478   -1.8625    0.0000 C   0  0  0  0  0  0  0  0  0  0  0  0
    3.9807   -3.3566    0.0000 O   0  0  0  0  0  0  0  0  0  0  0  0
    5.0753   -1.0003    0.0000 C   0  0  0  0  0  0  0  0  0  0  0  0
    4.9423    0.4938    0.0000 C   0  0  0  0  0  0  0  0  0  0  0  0
    6.1698    1.3559    0.0000 C   0  0  0  0  0  0  0  0  0  0  0  0
    6.0369    2.8500    0.0000 C   0  0  0  0  0  0  0  0  0  0  0  0
    7.2644    3.7122    0.0000 O   0  0  0  0  0  0  0  0  0  0  0  0
    4.6765    3.4820    0.0000 C   0  0  0  0  0  0  0  0  0  0  0  0
    3.4490    2.6198    0.0000 C   0  0  0  0  0  0  0  0  0  0  0  0
    3.5820    1.1257    0.0000 C   0  0  0  0  0  0  0  0  0  0  0  0
    2.2216    1.7576    0.0000 C   0  0  0  0  0  0  0  0  0  0  0  0
    2.3545    0.2635    0.0000 C   0  0  0  0  0  0  0  0  0  0  0  0
    0.9941    0.8955    0.0000 C   0  0  0  0  0  0  0  0  0  0  0  0
   -0.2334    0.0333    0.0000 C   0  0  0  0  0  0  0  0  0  0  0  0
   -0.1005   -1.4608    0.0000 C   0  0  0  0  0  0  0  0  0  0  0  0
   -1.5195   -0.9745    0.0000 C   0  0  0  0  0  0  0  0  0  0  0  0
  1  2  1  0
  2  3  1  0
  3  4  1  0
  4  5  1  0
  5  6  2  0
  5  7  1  0
  7  8  1  0
  8  9  1  0
  9 10  1  6
  9 11  1  0
 11 12  1  6
 12 13  1  0
 14 13  1  6
 14 15  1  0
 15 16  1  1
 16 17  1  1
 16 18  1  0
 19 18  1  1
 19 20  1  0
 20 21  1  0
 21 22  1  1
 21 23  1  0
 23 24  1  0
 24 25  1  0
 25 26  1  6
 25 27  1  0
 27 28  1  6
 28 29  1  0
 29 30  1  0
 30 31  1  6
 30 11  1  0
 30 14  1  0
 27 15  1  0
 25 19  1  0
M  END
>  <MS_ID>  (2732) 
MS2824

>  <SMILES>  (2732) 
COCOC(=O)CC[C@@H](C)[C@H]1CC[C@H]2[C@@H]3[C@H](O)C[C@@H]4C[C@H](O)CC[C@]4(C)[C@H]3CC[C@]12C

>  <Structure_dimension>  (2732) 
2D

$$$$
MS2825
     RDKit          2D

 34 38  0  0  0  0  0  0  0  0999 V2000
   -2.2608   -4.3306    0.0000 C   0  0  0  0  0  0  0  0  0  0  0  0
   -1.5430   -3.0135    0.0000 C   0  0  0  0  0  0  0  0  0  0  0  0
   -2.3248   -1.7333    0.0000 C   0  0  0  0  0  0  0  0  0  0  0  0
   -3.8244   -1.7702    0.0000 C   0  0  0  0  0  0  0  0  0  0  0  0
   -4.6061   -0.4901    0.0000 C   0  0  0  0  0  0  0  0  0  0  0  0
   -3.8883    0.8271    0.0000 O   0  0  0  0  0  0  0  0  0  0  0  0
   -6.1057   -0.5270    0.0000 N   0  0  0  0  0  0  0  0  0  0  0  0
   -6.8874    0.7532    0.0000 C   0  0  0  0  0  0  0  0  0  0  0  0
   -6.1696    2.0703    0.0000 C   0  0  0  0  0  0  0  0  0  0  0  0
   -6.9514    3.3505    0.0000 C   0  0  0  0  0  0  0  0  0  0  0  0
   -8.4509    3.3135    0.0000 C   0  0  0  0  0  0  0  0  0  0  0  0
   -9.1687    1.9964    0.0000 N   0  0  0  0  0  0  0  0  0  0  0  0
   -8.3870    0.7163    0.0000 C   0  0  0  0  0  0  0  0  0  0  0  0
   -0.0435   -2.9765    0.0000 C   0  0  0  0  0  0  0  0  0  0  0  0
    0.8678   -4.1680    0.0000 C   0  0  0  0  0  0  0  0  0  0  0  0
    2.2825   -3.6695    0.0000 C   0  0  0  0  0  0  0  0  0  0  0  0
    2.2456   -2.1699    0.0000 C   0  0  0  0  0  0  0  0  0  0  0  0
    3.3353   -1.1391    0.0000 C   0  0  0  0  0  0  0  0  0  0  0  0
    4.7728   -1.5673    0.0000 C   0  0  0  0  0  0  0  0  0  0  0  0
    5.1207   -3.0264    0.0000 O   0  0  0  0  0  0  0  0  0  0  0  0
    5.8625   -0.5365    0.0000 C   0  0  0  0  0  0  0  0  0  0  0  0
    5.5146    0.9226    0.0000 C   0  0  0  0  0  0  0  0  0  0  0  0
    6.6043    1.9534    0.0000 C   0  0  0  0  0  0  0  0  0  0  0  0
    6.2564    3.4125    0.0000 C   0  0  0  0  0  0  0  0  0  0  0  0
    7.3460    4.4434    0.0000 O   0  0  0  0  0  0  0  0  0  0  0  0
    4.8188    3.8408    0.0000 C   0  0  0  0  0  0  0  0  0  0  0  0
    3.7291    2.8099    0.0000 C   0  0  0  0  0  0  0  0  0  0  0  0
    4.0770    1.3509    0.0000 C   0  0  0  0  0  0  0  0  0  0  0  0
    2.6395    1.7791    0.0000 C   0  0  0  0  0  0  0  0  0  0  0  0
    2.9874    0.3200    0.0000 C   0  0  0  0  0  0  0  0  0  0  0  0
    1.5498    0.7483    0.0000 C   0  0  0  0  0  0  0  0  0  0  0  0
    0.4601   -0.2826    0.0000 C   0  0  0  0  0  0  0  0  0  0  0  0
    0.8080   -1.7417    0.0000 C   0  0  0  0  0  0  0  0  0  0  0  0
   -0.6664   -1.4660    0.0000 C   0  0  0  0  0  0  0  0  0  0  0  0
  2  1  1  6
  2  3  1  0
  3  4  1  0
  4  5  1  0
  5  6  2  0
  5  7  1  0
  7  8  1  0
  8  9  2  0
  9 10  1  0
 10 11  2  0
 11 12  1  0
 12 13  2  0
  2 14  1  0
 14 15  1  6
 15 16  1  0
 17 16  1  6
 17 18  1  0
 18 19  1  1
 19 20  1  6
 19 21  1  0
 22 21  1  1
 22 23  1  0
 23 24  1  0
 24 25  1  1
 24 26  1  0
 26 27  1  0
 27 28  1  0
 28 29  1  6
 28 30  1  0
 30 31  1  6
 31 32  1  0
 32 33  1  0
 33 34  1  6
 13  8  1  0
 33 14  1  0
 33 17  1  0
 30 18  1  0
 28 22  1  0
M  END
>  <MS_ID>  (2733) 
MS2825

>  <SMILES>  (2733) 
C[C@H](CCC(=O)Nc1cccnc1)[C@H]1CC[C@H]2[C@@H]3[C@@H](O)C[C@@H]4C[C@H](O)CC[C@]4(C)[C@H]3CC[C@]12C

>  <Structure_dimension>  (2733) 
2D

$$$$
MS2826
     RDKit          2D

 29 32  0  0  0  0  0  0  0  0999 V2000
   -4.6958   -2.6034    0.0000 C   0  0  0  0  0  0  0  0  0  0  0  0
   -3.5597   -1.6240    0.0000 C   0  0  0  0  0  0  0  0  0  0  0  0
   -3.8399   -0.1504    0.0000 C   0  0  0  0  0  0  0  0  0  0  0  0
   -5.2561    0.3438    0.0000 C   0  0  0  0  0  0  0  0  0  0  0  0
   -5.5363    1.8174    0.0000 C   0  0  0  0  0  0  0  0  0  0  0  0
   -6.9525    2.3116    0.0000 O   0  0  0  0  0  0  0  0  0  0  0  0
   -4.4002    2.7968    0.0000 O   0  0  0  0  0  0  0  0  0  0  0  0
   -4.6804    4.2704    0.0000 S   0  0  0  0  0  0  0  0  0  0  0  0
   -2.1434   -2.1182    0.0000 C   0  0  0  0  0  0  0  0  0  0  0  0
   -1.7108   -3.5544    0.0000 C   0  0  0  0  0  0  0  0  0  0  0  0
   -0.2111   -3.5867    0.0000 C   0  0  0  0  0  0  0  0  0  0  0  0
    0.2831   -2.1705    0.0000 C   0  0  0  0  0  0  0  0  0  0  0  0
    1.6662   -1.5901    0.0000 C   0  0  0  0  0  0  0  0  0  0  0  0
    2.8605   -2.4977    0.0000 C   0  0  0  0  0  0  0  0  0  0  0  0
    4.2436   -1.9173    0.0000 C   0  0  0  0  0  0  0  0  0  0  0  0
    4.4325   -0.4292    0.0000 C   0  0  0  0  0  0  0  0  0  0  0  0
    5.8157    0.1512    0.0000 C   0  0  0  0  0  0  0  0  0  0  0  0
    6.0046    1.6393    0.0000 C   0  0  0  0  0  0  0  0  0  0  0  0
    7.3877    2.2197    0.0000 O   0  0  0  0  0  0  0  0  0  0  0  0
    4.8103    2.5469    0.0000 C   0  0  0  0  0  0  0  0  0  0  0  0
    3.4272    1.9665    0.0000 C   0  0  0  0  0  0  0  0  0  0  0  0
    3.2383    0.4784    0.0000 C   0  0  0  0  0  0  0  0  0  0  0  0
    2.0440    1.3861    0.0000 C   0  0  0  0  0  0  0  0  0  0  0  0
    1.8551   -0.1020    0.0000 C   0  0  0  0  0  0  0  0  0  0  0  0
    0.6609    0.8056    0.0000 C   0  0  0  0  0  0  0  0  0  0  0  0
   -0.7223    0.2252    0.0000 C   0  0  0  0  0  0  0  0  0  0  0  0
   -1.9165    1.1328    0.0000 O   0  0  0  0  0  0  0  0  0  0  0  0
   -0.9112   -1.2628    0.0000 C   0  0  0  0  0  0  0  0  0  0  0  0
   -2.1937   -0.4850    0.0000 C   0  0  0  0  0  0  0  0  0  0  0  0
  2  1  1  6
  2  3  1  0
  3  4  1  0
  4  5  1  0
  5  6  2  0
  5  7  1  0
  7  8  1  0
  2  9  1  0
  9 10  1  6
 10 11  1  0
 12 11  1  6
 12 13  1  0
 13 14  1  1
 14 15  1  0
 16 15  1  1
 16 17  1  0
 17 18  1  0
 18 19  1  1
 18 20  1  0
 20 21  1  0
 21 22  1  0
 22 23  1  6
 22 24  1  0
 24 25  1  6
 25 26  1  0
 26 27  1  1
 26 28  1  0
 28 29  1  6
 28  9  1  0
 28 12  1  0
 24 13  1  0
 22 16  1  0
M  END
>  <MS_ID>  (2734) 
MS2826

>  <SMILES>  (2734) 
C[C@H](CCC(=O)OS)[C@H]1CC[C@H]2[C@@H]3CC[C@@H]4C[C@H](O)CC[C@]4(C)[C@H]3C[C@H](O)[C@]12C

>  <Structure_dimension>  (2734) 
2D

$$$$
MS2827
     RDKit          2D

 32 35  0  0  0  0  0  0  0  0999 V2000
  -10.8107    3.0070    0.0000 C   0  0  0  0  0  0  0  0  0  0  0  0
   -9.3127    2.9291    0.0000 S   0  0  0  0  0  0  0  0  0  0  0  0
   -8.6311    1.5929    0.0000 C   0  0  0  0  0  0  0  0  0  0  0  0
   -7.1332    1.5150    0.0000 C   0  0  0  0  0  0  0  0  0  0  0  0
   -6.4516    0.1788    0.0000 O   0  0  0  0  0  0  0  0  0  0  0  0
   -4.9536    0.1009    0.0000 C   0  0  0  0  0  0  0  0  0  0  0  0
   -4.1372    1.3592    0.0000 O   0  0  0  0  0  0  0  0  0  0  0  0
   -4.2721   -1.2353    0.0000 C   0  0  0  0  0  0  0  0  0  0  0  0
   -2.7741   -1.3132    0.0000 C   0  0  0  0  0  0  0  0  0  0  0  0
   -2.0926   -2.6494    0.0000 C   0  0  0  0  0  0  0  0  0  0  0  0
   -2.9090   -3.9078    0.0000 C   0  0  0  0  0  0  0  0  0  0  0  0
   -0.5946   -2.7273    0.0000 C   0  0  0  0  0  0  0  0  0  0  0  0
    0.2229   -3.9850    0.0000 C   0  0  0  0  0  0  0  0  0  0  0  0
    1.6716   -3.5962    0.0000 C   0  0  0  0  0  0  0  0  0  0  0  0
    1.7495   -2.0982    0.0000 C   0  0  0  0  0  0  0  0  0  0  0  0
    2.9148   -1.1537    0.0000 C   0  0  0  0  0  0  0  0  0  0  0  0
    4.3154   -1.6907    0.0000 C   0  0  0  0  0  0  0  0  0  0  0  0
    4.5507   -3.1721    0.0000 O   0  0  0  0  0  0  0  0  0  0  0  0
    5.4807   -0.7462    0.0000 C   0  0  0  0  0  0  0  0  0  0  0  0
    5.2455    0.7352    0.0000 C   0  0  0  0  0  0  0  0  0  0  0  0
    6.4108    1.6797    0.0000 C   0  0  0  0  0  0  0  0  0  0  0  0
    6.1755    3.1611    0.0000 C   0  0  0  0  0  0  0  0  0  0  0  0
    7.3408    4.1056    0.0000 O   0  0  0  0  0  0  0  0  0  0  0  0
    4.7749    3.6981    0.0000 C   0  0  0  0  0  0  0  0  0  0  0  0
    3.6096    2.7536    0.0000 C   0  0  0  0  0  0  0  0  0  0  0  0
    3.8449    1.2722    0.0000 C   0  0  0  0  0  0  0  0  0  0  0  0
    2.4443    1.8091    0.0000 C   0  0  0  0  0  0  0  0  0  0  0  0
    2.6795    0.3277    0.0000 C   0  0  0  0  0  0  0  0  0  0  0  0
    1.2789    0.8647    0.0000 C   0  0  0  0  0  0  0  0  0  0  0  0
    0.1136   -0.0798    0.0000 C   0  0  0  0  0  0  0  0  0  0  0  0
    0.3489   -1.5612    0.0000 C   0  0  0  0  0  0  0  0  0  0  0  0
   -1.1002   -1.1736    0.0000 C   0  0  0  0  0  0  0  0  0  0  0  0
  1  2  1  0
  2  3  1  0
  3  4  1  0
  4  5  1  0
  5  6  1  0
  6  7  2  0
  6  8  1  0
  8  9  1  0
  9 10  1  0
 10 11  1  6
 10 12  1  0
 12 13  1  6
 13 14  1  0
 15 14  1  6
 15 16  1  0
 16 17  1  1
 17 18  1  1
 17 19  1  0
 20 19  1  1
 20 21  1  0
 21 22  1  0
 22 23  1  1
 22 24  1  0
 24 25  1  0
 25 26  1  0
 26 27  1  6
 26 28  1  0
 28 29  1  6
 29 30  1  0
 30 31  1  0
 31 32  1  6
 31 12  1  0
 31 15  1  0
 28 16  1  0
 26 20  1  0
M  END
>  <MS_ID>  (2735) 
MS2827

>  <SMILES>  (2735) 
CSCCOC(=O)CC[C@@H](C)[C@H]1CC[C@H]2[C@@H]3[C@H](O)C[C@@H]4C[C@H](O)CC[C@]4(C)[C@H]3CC[C@]12C

>  <Structure_dimension>  (2735) 
2D

$$$$
MS2828
     RDKit          2D

 34 38  0  0  0  0  0  0  0  0999 V2000
   -2.6599   -4.1335    0.0000 C   0  0  0  0  0  0  0  0  0  0  0  0
   -1.8847   -2.8494    0.0000 C   0  0  0  0  0  0  0  0  0  0  0  0
   -2.6091   -1.5360    0.0000 C   0  0  0  0  0  0  0  0  0  0  0  0
   -4.1089   -1.5067    0.0000 C   0  0  0  0  0  0  0  0  0  0  0  0
   -4.8333   -0.1932    0.0000 C   0  0  0  0  0  0  0  0  0  0  0  0
   -4.0581    1.0909    0.0000 O   0  0  0  0  0  0  0  0  0  0  0  0
   -6.3331   -0.1639    0.0000 O   0  0  0  0  0  0  0  0  0  0  0  0
   -7.0575    1.1495    0.0000 C   0  0  0  0  0  0  0  0  0  0  0  0
   -8.5460    1.3354    0.0000 C   0  0  0  0  0  0  0  0  0  0  0  0
   -8.8291    2.8085    0.0000 C   0  0  0  0  0  0  0  0  0  0  0  0
   -7.5157    3.5330    0.0000 O   0  0  0  0  0  0  0  0  0  0  0  0
   -6.4208    2.5077    0.0000 C   0  0  0  0  0  0  0  0  0  0  0  0
   -0.3850   -2.8787    0.0000 C   0  0  0  0  0  0  0  0  0  0  0  0
    0.4728   -4.1092    0.0000 C   0  0  0  0  0  0  0  0  0  0  0  0
    1.9082   -3.6737    0.0000 C   0  0  0  0  0  0  0  0  0  0  0  0
    1.9375   -2.1740    0.0000 C   0  0  0  0  0  0  0  0  0  0  0  0
    3.0716   -1.1922    0.0000 C   0  0  0  0  0  0  0  0  0  0  0  0
    4.4889   -1.6835    0.0000 C   0  0  0  0  0  0  0  0  0  0  0  0
    4.7720   -3.1566    0.0000 O   0  0  0  0  0  0  0  0  0  0  0  0
    5.6230   -0.7018    0.0000 C   0  0  0  0  0  0  0  0  0  0  0  0
    5.3399    0.7712    0.0000 C   0  0  0  0  0  0  0  0  0  0  0  0
    6.4740    1.7530    0.0000 C   0  0  0  0  0  0  0  0  0  0  0  0
    6.1908    3.2260    0.0000 C   0  0  0  0  0  0  0  0  0  0  0  0
    7.3249    4.2077    0.0000 O   0  0  0  0  0  0  0  0  0  0  0  0
    4.7736    3.7173    0.0000 C   0  0  0  0  0  0  0  0  0  0  0  0
    3.6395    2.7356    0.0000 C   0  0  0  0  0  0  0  0  0  0  0  0
    3.9226    1.2625    0.0000 C   0  0  0  0  0  0  0  0  0  0  0  0
    2.5053    1.7538    0.0000 C   0  0  0  0  0  0  0  0  0  0  0  0
    2.7885    0.2808    0.0000 C   0  0  0  0  0  0  0  0  0  0  0  0
    1.3712    0.7721    0.0000 C   0  0  0  0  0  0  0  0  0  0  0  0
    0.2371   -0.2096    0.0000 C   0  0  0  0  0  0  0  0  0  0  0  0
   -1.1801    0.2817    0.0000 O   0  0  0  0  0  0  0  0  0  0  0  0
    0.5203   -1.6826    0.0000 C   0  0  0  0  0  0  0  0  0  0  0  0
   -0.9406   -1.3422    0.0000 C   0  0  0  0  0  0  0  0  0  0  0  0
  2  1  1  6
  2  3  1  0
  3  4  1  0
  4  5  1  0
  5  6  2  0
  5  7  1  0
  7  8  1  0
  8  9  1  0
  9 10  2  0
 10 11  1  0
 11 12  1  0
  2 13  1  0
 13 14  1  6
 14 15  1  0
 16 15  1  6
 16 17  1  0
 17 18  1  1
 18 19  1  1
 18 20  1  0
 21 20  1  1
 21 22  1  0
 22 23  1  0
 23 24  1  1
 23 25  1  0
 25 26  1  0
 26 27  1  0
 27 28  1  6
 27 29  1  0
 29 30  1  6
 30 31  1  0
 31 32  1  1
 31 33  1  0
 33 34  1  6
 12  8  2  0
 33 13  1  0
 33 16  1  0
 29 17  1  0
 27 21  1  0
M  END
>  <MS_ID>  (2736) 
MS2828

>  <SMILES>  (2736) 
C[C@H](CCC(=O)Oc1ccoc1)[C@H]1CC[C@H]2[C@@H]3[C@H](O)C[C@@H]4C[C@H](O)CC[C@]4(C)[C@H]3C[C@H](O)[C@]12C

>  <Structure_dimension>  (2736) 
2D

$$$$
MS2829
     RDKit          2D

 35 38  0  0  0  0  0  0  0  0999 V2000
   -1.8798   -4.2575    0.0000 C   0  0  0  0  0  0  0  0  0  0  0  0
   -1.1658   -2.9383    0.0000 C   0  0  0  0  0  0  0  0  0  0  0  0
   -1.9512   -1.6604    0.0000 C   0  0  0  0  0  0  0  0  0  0  0  0
   -3.4506   -1.7016    0.0000 C   0  0  0  0  0  0  0  0  0  0  0  0
   -4.2361   -0.4237    0.0000 C   0  0  0  0  0  0  0  0  0  0  0  0
   -3.5221    0.8955    0.0000 O   0  0  0  0  0  0  0  0  0  0  0  0
   -5.7355   -0.4649    0.0000 N   0  0  0  0  0  0  0  0  0  0  0  0
   -6.5209    0.8130    0.0000 C   0  0  0  0  0  0  0  0  0  0  0  0
   -8.0204    0.7717    0.0000 C   0  0  0  0  0  0  0  0  0  0  0  0
   -8.8058    2.0497    0.0000 C   0  0  0  0  0  0  0  0  0  0  0  0
  -10.3052    2.0084    0.0000 N   0  0  0  0  0  0  0  0  0  0  0  0
  -11.0906    3.2864    0.0000 C   0  0  0  0  0  0  0  0  0  0  0  0
  -11.0192    0.6893    0.0000 C   0  0  0  0  0  0  0  0  0  0  0  0
    0.3337   -2.8971    0.0000 C   0  0  0  0  0  0  0  0  0  0  0  0
    1.2484   -4.0859    0.0000 C   0  0  0  0  0  0  0  0  0  0  0  0
    2.6617   -3.5834    0.0000 C   0  0  0  0  0  0  0  0  0  0  0  0
    2.6204   -2.0839    0.0000 C   0  0  0  0  0  0  0  0  0  0  0  0
    3.7071   -1.0500    0.0000 C   0  0  0  0  0  0  0  0  0  0  0  0
    5.1459   -1.4741    0.0000 C   0  0  0  0  0  0  0  0  0  0  0  0
    5.4980   -2.9322    0.0000 O   0  0  0  0  0  0  0  0  0  0  0  0
    6.2326   -0.4401    0.0000 C   0  0  0  0  0  0  0  0  0  0  0  0
    5.8805    1.0180    0.0000 C   0  0  0  0  0  0  0  0  0  0  0  0
    6.9672    2.0519    0.0000 C   0  0  0  0  0  0  0  0  0  0  0  0
    6.6152    3.5100    0.0000 C   0  0  0  0  0  0  0  0  0  0  0  0
    7.7019    4.5440    0.0000 O   0  0  0  0  0  0  0  0  0  0  0  0
    5.1764    3.9341    0.0000 C   0  0  0  0  0  0  0  0  0  0  0  0
    4.0897    2.9002    0.0000 C   0  0  0  0  0  0  0  0  0  0  0  0
    4.4418    1.4421    0.0000 C   0  0  0  0  0  0  0  0  0  0  0  0
    3.0030    1.8662    0.0000 C   0  0  0  0  0  0  0  0  0  0  0  0
    3.3551    0.4081    0.0000 C   0  0  0  0  0  0  0  0  0  0  0  0
    1.9163    0.8323    0.0000 C   0  0  0  0  0  0  0  0  0  0  0  0
    0.8296   -0.2017    0.0000 C   0  0  0  0  0  0  0  0  0  0  0  0
   -0.6092    0.2224    0.0000 O   0  0  0  0  0  0  0  0  0  0  0  0
    1.1816   -1.6598    0.0000 C   0  0  0  0  0  0  0  0  0  0  0  0
   -0.2936   -1.3884    0.0000 C   0  0  0  0  0  0  0  0  0  0  0  0
  2  1  1  6
  2  3  1  0
  3  4  1  0
  4  5  1  0
  5  6  2  0
  5  7  1  0
  7  8  1  0
  8  9  1  0
  9 10  1  0
 10 11  1  0
 11 12  1  0
 11 13  1  0
  2 14  1  0
 14 15  1  6
 15 16  1  0
 17 16  1  6
 17 18  1  0
 18 19  1  1
 19 20  1  1
 19 21  1  0
 22 21  1  1
 22 23  1  0
 23 24  1  0
 24 25  1  1
 24 26  1  0
 26 27  1  0
 27 28  1  0
 28 29  1  6
 28 30  1  0
 30 31  1  6
 31 32  1  0
 32 33  1  1
 32 34  1  0
 34 35  1  6
 34 14  1  0
 34 17  1  0
 30 18  1  0
 28 22  1  0
M  END
>  <MS_ID>  (2737) 
MS2829

>  <SMILES>  (2737) 
C[C@H](CCC(=O)NCCCN(C)C)[C@H]1CC[C@H]2[C@@H]3[C@H](O)C[C@@H]4C[C@H](O)CC[C@]4(C)[C@H]3C[C@H](O)[C@]12C

>  <Structure_dimension>  (2737) 
2D

$$$$
MS2830
     RDKit          2D

 29 32  0  0  0  0  0  0  0  0999 V2000
   -4.9165   -2.3086    0.0000 C   0  0  0  0  0  0  0  0  0  0  0  0
   -3.7338   -1.3860    0.0000 C   0  0  0  0  0  0  0  0  0  0  0  0
   -3.9415    0.0996    0.0000 C   0  0  0  0  0  0  0  0  0  0  0  0
   -5.3319    0.6625    0.0000 C   0  0  0  0  0  0  0  0  0  0  0  0
   -5.5396    2.1481    0.0000 C   0  0  0  0  0  0  0  0  0  0  0  0
   -4.3569    3.0707    0.0000 O   0  0  0  0  0  0  0  0  0  0  0  0
   -6.9299    2.7110    0.0000 O   0  0  0  0  0  0  0  0  0  0  0  0
   -2.3435   -1.9489    0.0000 C   0  0  0  0  0  0  0  0  0  0  0  0
   -1.9816   -3.4046    0.0000 C   0  0  0  0  0  0  0  0  0  0  0  0
   -0.4854   -3.5103    0.0000 C   0  0  0  0  0  0  0  0  0  0  0  0
    0.0775   -2.1199    0.0000 C   0  0  0  0  0  0  0  0  0  0  0  0
    1.4875   -1.6079    0.0000 C   0  0  0  0  0  0  0  0  0  0  0  0
    2.6358   -2.5730    0.0000 C   0  0  0  0  0  0  0  0  0  0  0  0
    4.0457   -2.0609    0.0000 C   0  0  0  0  0  0  0  0  0  0  0  0
    4.3073   -0.5839    0.0000 C   0  0  0  0  0  0  0  0  0  0  0  0
    5.7172   -0.0719    0.0000 C   0  0  0  0  0  0  0  0  0  0  0  0
    5.9787    1.4051    0.0000 C   0  0  0  0  0  0  0  0  0  0  0  0
    7.3886    1.9171    0.0000 O   0  0  0  0  0  0  0  0  0  0  0  0
    4.8304    2.3701    0.0000 C   0  0  0  0  0  0  0  0  0  0  0  0
    3.4205    1.8581    0.0000 C   0  0  0  0  0  0  0  0  0  0  0  0
    3.1589    0.3811    0.0000 C   0  0  0  0  0  0  0  0  0  0  0  0
    2.0105    1.3461    0.0000 C   0  0  0  0  0  0  0  0  0  0  0  0
    1.7490   -0.1309    0.0000 C   0  0  0  0  0  0  0  0  0  0  0  0
    0.6006    0.8341    0.0000 C   0  0  0  0  0  0  0  0  0  0  0  0
   -0.8093    0.3221    0.0000 C   0  0  0  0  0  0  0  0  0  0  0  0
   -1.9576    1.2871    0.0000 C   0  0  0  0  0  0  0  0  0  0  0  0
   -1.6961    2.7641    0.0000 O   0  0  0  0  0  0  0  0  0  0  0  0
   -1.0708   -1.1549    0.0000 C   0  0  0  0  0  0  0  0  0  0  0  0
   -2.3138   -0.3152    0.0000 C   0  0  0  0  0  0  0  0  0  0  0  0
  2  1  1  6
  2  3  1  0
  3  4  1  0
  4  5  1  0
  5  6  2  0
  5  7  1  0
  2  8  1  0
  8  9  1  6
  9 10  1  0
 11 10  1  6
 11 12  1  0
 12 13  1  1
 13 14  1  0
 15 14  1  1
 15 16  1  0
 16 17  1  0
 17 18  1  6
 17 19  1  0
 19 20  1  0
 20 21  1  0
 21 22  1  6
 21 23  1  0
 23 24  1  6
 24 25  1  0
 25 26  1  1
 26 27  1  0
 25 28  1  0
 28 29  1  6
 28  8  1  0
 28 11  1  0
 23 12  1  0
 21 15  1  0
M  END
>  <MS_ID>  (2738) 
MS2830

>  <SMILES>  (2738) 
C[C@H](CCC(=O)O)[C@H]1CC[C@H]2[C@@H]3CC[C@@H]4C[C@@H](O)CC[C@]4(C)[C@H]3C[C@H](CO)[C@]12C

>  <Structure_dimension>  (2738) 
2D

$$$$
MS2831
     RDKit          2D

 36 39  0  0  0  0  0  0  0  0999 V2000
   -4.2135   -4.0665    0.0000 C   0  0  0  0  0  0  0  0  0  0  0  0
   -3.8317   -2.6159    0.0000 C   0  0  0  0  0  0  0  0  0  0  0  0
   -4.8970   -1.5600    0.0000 C   0  0  0  0  0  0  0  0  0  0  0  0
   -6.3442   -1.9546    0.0000 C   0  0  0  0  0  0  0  0  0  0  0  0
   -7.4095   -0.8987    0.0000 C   0  0  0  0  0  0  0  0  0  0  0  0
   -7.0277    0.5519    0.0000 O   0  0  0  0  0  0  0  0  0  0  0  0
   -8.8567   -1.2933    0.0000 O   0  0  0  0  0  0  0  0  0  0  0  0
   -2.3845   -2.2213    0.0000 C   0  0  0  0  0  0  0  0  0  0  0  0
   -1.2146   -3.1601    0.0000 C   0  0  0  0  0  0  0  0  0  0  0  0
    0.0397   -2.3375    0.0000 C   0  0  0  0  0  0  0  0  0  0  0  0
   -0.3549   -0.8904    0.0000 C   0  0  0  0  0  0  0  0  0  0  0  0
    0.4565    0.3712    0.0000 C   0  0  0  0  0  0  0  0  0  0  0  0
    1.9547    0.2994    0.0000 C   0  0  0  0  0  0  0  0  0  0  0  0
    2.6416   -1.0341    0.0000 O   0  0  0  0  0  0  0  0  0  0  0  0
    4.1399   -1.1060    0.0000 C   0  0  0  0  0  0  0  0  0  0  0  0
    4.9513    0.1557    0.0000 O   0  0  0  0  0  0  0  0  0  0  0  0
    4.8268   -2.4394    0.0000 C   0  0  0  0  0  0  0  0  0  0  0  0
    6.3251   -2.5113    0.0000 C   0  0  0  0  0  0  0  0  0  0  0  0
    7.0120   -3.8448    0.0000 C   0  0  0  0  0  0  0  0  0  0  0  0
    6.2006   -5.1064    0.0000 O   0  0  0  0  0  0  0  0  0  0  0  0
    8.5103   -3.9166    0.0000 O   0  0  0  0  0  0  0  0  0  0  0  0
    2.7661    1.5610    0.0000 C   0  0  0  0  0  0  0  0  0  0  0  0
    2.0792    2.8945    0.0000 C   0  0  0  0  0  0  0  0  0  0  0  0
    2.8906    4.1561    0.0000 C   0  0  0  0  0  0  0  0  0  0  0  0
    2.2037    5.4896    0.0000 C   0  0  0  0  0  0  0  0  0  0  0  0
    3.0150    6.7512    0.0000 O   0  0  0  0  0  0  0  0  0  0  0  0
    0.7054    5.5614    0.0000 C   0  0  0  0  0  0  0  0  0  0  0  0
   -0.1060    4.2998    0.0000 C   0  0  0  0  0  0  0  0  0  0  0  0
    0.5809    2.9663    0.0000 C   0  0  0  0  0  0  0  0  0  0  0  0
   -0.9174    3.0382    0.0000 C   0  0  0  0  0  0  0  0  0  0  0  0
   -0.2305    1.7047    0.0000 C   0  0  0  0  0  0  0  0  0  0  0  0
   -1.7287    1.7766    0.0000 C   0  0  0  0  0  0  0  0  0  0  0  0
   -2.5401    0.5149    0.0000 C   0  0  0  0  0  0  0  0  0  0  0  0
   -4.0384    0.5868    0.0000 O   0  0  0  0  0  0  0  0  0  0  0  0
   -1.8532   -0.8185    0.0000 C   0  0  0  0  0  0  0  0  0  0  0  0
   -3.3508   -0.9037    0.0000 C   0  0  0  0  0  0  0  0  0  0  0  0
  2  1  1  6
  2  3  1  0
  3  4  1  0
  4  5  1  0
  5  6  2  0
  5  7  1  0
  2  8  1  0
  8  9  1  6
  9 10  1  0
 11 10  1  6
 11 12  1  0
 12 13  1  1
 13 14  1  1
 14 15  1  0
 15 16  2  0
 15 17  1  0
 17 18  1  0
 18 19  1  0
 19 20  2  0
 19 21  1  0
 13 22  1  0
 23 22  1  1
 23 24  1  0
 24 25  1  0
 25 26  1  1
 25 27  1  0
 27 28  1  0
 28 29  1  0
 29 30  1  6
 29 31  1  0
 31 32  1  6
 32 33  1  0
 33 34  1  1
 33 35  1  0
 35 36  1  6
 35  8  1  0
 35 11  1  0
 31 12  1  0
 29 23  1  0
M  END
>  <MS_ID>  (2739) 
MS2831

>  <SMILES>  (2739) 
C[C@H](CCC(=O)O)[C@H]1CC[C@H]2[C@@H]3[C@H](OC(=O)CCC(=O)O)C[C@@H]4C[C@H](O)CC[C@]4(C)[C@H]3C[C@H](O)[C@]12C

>  <Structure_dimension>  (2739) 
2D

$$$$
MS2832
     RDKit          2D

 34 38  0  0  0  0  0  0  0  0999 V2000
   -2.9007   -3.2796    0.0000 C   0  0  0  0  0  0  0  0  0  0  0  0
   -1.9339   -2.1328    0.0000 C   0  0  0  0  0  0  0  0  0  0  0  0
   -2.4437   -0.7220    0.0000 C   0  0  0  0  0  0  0  0  0  0  0  0
   -3.9203   -0.4582    0.0000 C   0  0  0  0  0  0  0  0  0  0  0  0
   -4.4301    0.9525    0.0000 C   0  0  0  0  0  0  0  0  0  0  0  0
   -3.4633    2.0994    0.0000 O   0  0  0  0  0  0  0  0  0  0  0  0
   -5.9067    1.2164    0.0000 C   0  0  0  0  0  0  0  0  0  0  0  0
   -6.4165    2.6271    0.0000 C   0  0  0  0  0  0  0  0  0  0  0  0
   -7.8931    2.8909    0.0000 N   0  0  0  0  0  0  0  0  0  0  0  0
   -8.8599    1.7441    0.0000 C   0  0  0  0  0  0  0  0  0  0  0  0
   -8.3501    0.3334    0.0000 C   0  0  0  0  0  0  0  0  0  0  0  0
   -9.3169   -0.8135    0.0000 O   0  0  0  0  0  0  0  0  0  0  0  0
   -6.8735    0.0695    0.0000 C   0  0  0  0  0  0  0  0  0  0  0  0
   -0.4572   -2.3966    0.0000 C   0  0  0  0  0  0  0  0  0  0  0  0
    0.1972   -3.7463    0.0000 C   0  0  0  0  0  0  0  0  0  0  0  0
    1.6831   -3.5409    0.0000 C   0  0  0  0  0  0  0  0  0  0  0  0
    1.9470   -2.0643    0.0000 C   0  0  0  0  0  0  0  0  0  0  0  0
    3.2208   -1.2724    0.0000 C   0  0  0  0  0  0  0  0  0  0  0  0
    4.5437   -1.9796    0.0000 C   0  0  0  0  0  0  0  0  0  0  0  0
    4.5926   -3.4788    0.0000 O   0  0  0  0  0  0  0  0  0  0  0  0
    5.8175   -1.1876    0.0000 C   0  0  0  0  0  0  0  0  0  0  0  0
    5.7686    0.3116    0.0000 C   0  0  0  0  0  0  0  0  0  0  0  0
    7.0425    1.1035    0.0000 C   0  0  0  0  0  0  0  0  0  0  0  0
    6.9936    2.6027    0.0000 C   0  0  0  0  0  0  0  0  0  0  0  0
    8.2675    3.3947    0.0000 O   0  0  0  0  0  0  0  0  0  0  0  0
    5.6708    3.3100    0.0000 C   0  0  0  0  0  0  0  0  0  0  0  0
    4.3969    2.5180    0.0000 C   0  0  0  0  0  0  0  0  0  0  0  0
    4.4458    1.0188    0.0000 C   0  0  0  0  0  0  0  0  0  0  0  0
    3.1230    1.7260    0.0000 C   0  0  0  0  0  0  0  0  0  0  0  0
    3.1719    0.2268    0.0000 C   0  0  0  0  0  0  0  0  0  0  0  0
    1.8491    0.9341    0.0000 C   0  0  0  0  0  0  0  0  0  0  0  0
    0.5752    0.1421    0.0000 C   0  0  0  0  0  0  0  0  0  0  0  0
    0.6242   -1.3571    0.0000 C   0  0  0  0  0  0  0  0  0  0  0  0
   -0.7653   -0.7920    0.0000 C   0  0  0  0  0  0  0  0  0  0  0  0
  2  1  1  6
  2  3  1  0
  3  4  1  0
  4  5  1  0
  5  6  2  0
  5  7  1  0
  7  8  2  0
  8  9  1  0
  9 10  2  0
 10 11  1  0
 11 12  1  0
 11 13  2  0
  2 14  1  0
 14 15  1  6
 15 16  1  0
 17 16  1  6
 17 18  1  0
 18 19  1  1
 19 20  1  1
 19 21  1  0
 22 21  1  1
 22 23  1  0
 23 24  1  0
 24 25  1  1
 24 26  1  0
 26 27  1  0
 27 28  1  0
 28 29  1  6
 28 30  1  0
 30 31  1  6
 31 32  1  0
 32 33  1  0
 33 34  1  6
 13  7  1  0
 33 14  1  0
 33 17  1  0
 30 18  1  0
 28 22  1  0
M  END
>  <MS_ID>  (2740) 
MS2832

>  <SMILES>  (2740) 
C[C@H](CCC(=O)c1cncc(O)c1)[C@H]1CC[C@H]2[C@@H]3[C@H](O)C[C@@H]4C[C@H](O)CC[C@]4(C)[C@H]3CC[C@]12C

>  <Structure_dimension>  (2740) 
2D

$$$$
MS2833
     RDKit          2D

 30 33  0  0  0  0  0  0  0  0999 V2000
   -5.6962   -1.8759    0.0000 C   0  0  0  0  0  0  0  0  0  0  0  0
   -4.4381   -1.0589    0.0000 C   0  0  0  0  0  0  0  0  0  0  0  0
   -4.5166    0.4390    0.0000 C   0  0  0  0  0  0  0  0  0  0  0  0
   -5.8531    1.1200    0.0000 C   0  0  0  0  0  0  0  0  0  0  0  0
   -5.9315    2.6180    0.0000 C   0  0  0  0  0  0  0  0  0  0  0  0
   -4.6735    3.4349    0.0000 O   0  0  0  0  0  0  0  0  0  0  0  0
   -7.2680    3.2990    0.0000 O   0  0  0  0  0  0  0  0  0  0  0  0
   -3.1016   -1.7400    0.0000 C   0  0  0  0  0  0  0  0  0  0  0  0
   -2.8670   -3.2215    0.0000 C   0  0  0  0  0  0  0  0  0  0  0  0
   -1.3855   -3.4562    0.0000 C   0  0  0  0  0  0  0  0  0  0  0  0
   -0.7045   -2.1197    0.0000 C   0  0  0  0  0  0  0  0  0  0  0  0
    0.7444   -1.7315    0.0000 C   0  0  0  0  0  0  0  0  0  0  0  0
    1.8050   -2.7922    0.0000 C   0  0  0  0  0  0  0  0  0  0  0  0
    3.2540   -2.4040    0.0000 C   0  0  0  0  0  0  0  0  0  0  0  0
    3.6422   -0.9551    0.0000 C   0  0  0  0  0  0  0  0  0  0  0  0
    5.0911   -0.5670    0.0000 C   0  0  0  0  0  0  0  0  0  0  0  0
    5.4794    0.8819    0.0000 C   0  0  0  0  0  0  0  0  0  0  0  0
    6.9283    1.2701    0.0000 C   0  0  0  0  0  0  0  0  0  0  0  0
    7.3166    2.7190    0.0000 O   0  0  0  0  0  0  0  0  0  0  0  0
    7.9889    0.2094    0.0000 O   0  0  0  0  0  0  0  0  0  0  0  0
    4.4188    1.9426    0.0000 C   0  0  0  0  0  0  0  0  0  0  0  0
    2.9699    1.5544    0.0000 C   0  0  0  0  0  0  0  0  0  0  0  0
    2.5816    0.1055    0.0000 C   0  0  0  0  0  0  0  0  0  0  0  0
    1.5210    1.1662    0.0000 C   0  0  0  0  0  0  0  0  0  0  0  0
    1.1327   -0.2826    0.0000 C   0  0  0  0  0  0  0  0  0  0  0  0
    0.0721    0.7781    0.0000 C   0  0  0  0  0  0  0  0  0  0  0  0
   -1.3768    0.3899    0.0000 C   0  0  0  0  0  0  0  0  0  0  0  0
   -2.4375    1.4506    0.0000 O   0  0  0  0  0  0  0  0  0  0  0  0
   -1.7651   -1.0590    0.0000 C   0  0  0  0  0  0  0  0  0  0  0  0
   -2.9308   -0.1150    0.0000 C   0  0  0  0  0  0  0  0  0  0  0  0
  2  1  1  6
  2  3  1  0
  3  4  1  0
  4  5  1  0
  5  6  2  0
  5  7  1  0
  2  8  1  0
  8  9  1  6
  9 10  1  0
 11 10  1  6
 11 12  1  0
 12 13  1  1
 13 14  1  0
 15 14  1  1
 15 16  1  0
 16 17  1  0
 17 18  1  6
 18 19  2  0
 18 20  1  0
 17 21  1  0
 21 22  1  0
 22 23  1  0
 23 24  1  6
 23 25  1  0
 25 26  1  6
 26 27  1  0
 27 28  1  1
 27 29  1  0
 29 30  1  6
 29  8  1  0
 29 11  1  0
 25 12  1  0
 23 15  1  0
M  END
>  <MS_ID>  (2741) 
MS2833

>  <SMILES>  (2741) 
C[C@H](CCC(=O)O)[C@H]1CC[C@H]2[C@@H]3CC[C@@H]4C[C@@H](C(=O)O)CC[C@]4(C)[C@H]3C[C@H](O)[C@]12C

>  <Structure_dimension>  (2741) 
2D

$$$$
MS2834
     RDKit          2D

 36 39  0  0  0  0  0  0  0  0999 V2000
   -0.7786   -4.6475    0.0000 C   0  0  0  0  0  0  0  0  0  0  0  0
   -0.2054   -3.2613    0.0000 C   0  0  0  0  0  0  0  0  0  0  0  0
   -1.1192   -2.0718    0.0000 C   0  0  0  0  0  0  0  0  0  0  0  0
   -2.6062   -2.2684    0.0000 C   0  0  0  0  0  0  0  0  0  0  0  0
   -3.5201   -1.0789    0.0000 C   0  0  0  0  0  0  0  0  0  0  0  0
   -2.9468    0.3072    0.0000 O   0  0  0  0  0  0  0  0  0  0  0  0
   -5.0071   -1.2756    0.0000 N   0  0  0  0  0  0  0  0  0  0  0  0
   -5.9209   -0.0861    0.0000 C   0  0  0  0  0  0  0  0  0  0  0  0
   -7.4080   -0.2827    0.0000 C   0  0  0  0  0  0  0  0  0  0  0  0
   -8.3218    0.9068    0.0000 C   0  0  0  0  0  0  0  0  0  0  0  0
   -9.8089    0.7102    0.0000 O   0  0  0  0  0  0  0  0  0  0  0  0
  -10.7227    1.8997    0.0000 S   0  0  0  0  0  0  0  0  0  0  0  0
   -9.5332    2.8135    0.0000 O   0  0  0  0  0  0  0  0  0  0  0  0
  -11.9122    0.9858    0.0000 O   0  0  0  0  0  0  0  0  0  0  0  0
  -11.6365    3.0892    0.0000 O   0  0  0  0  0  0  0  0  0  0  0  0
    1.2817   -3.0647    0.0000 C   0  0  0  0  0  0  0  0  0  0  0  0
    2.3149   -4.1521    0.0000 C   0  0  0  0  0  0  0  0  0  0  0  0
    3.6684   -3.5056    0.0000 C   0  0  0  0  0  0  0  0  0  0  0  0
    3.4717   -2.0185    0.0000 C   0  0  0  0  0  0  0  0  0  0  0  0
    4.4452   -0.8774    0.0000 C   0  0  0  0  0  0  0  0  0  0  0  0
    5.9203   -1.1499    0.0000 C   0  0  0  0  0  0  0  0  0  0  0  0
    6.4218   -2.5635    0.0000 O   0  0  0  0  0  0  0  0  0  0  0  0
    6.8938   -0.0087    0.0000 C   0  0  0  0  0  0  0  0  0  0  0  0
    6.3923    1.4050    0.0000 C   0  0  0  0  0  0  0  0  0  0  0  0
    7.3658    2.5461    0.0000 C   0  0  0  0  0  0  0  0  0  0  0  0
    6.8643    3.9598    0.0000 C   0  0  0  0  0  0  0  0  0  0  0  0
    7.8378    5.1010    0.0000 O   0  0  0  0  0  0  0  0  0  0  0  0
    5.3892    4.2323    0.0000 C   0  0  0  0  0  0  0  0  0  0  0  0
    4.4157    3.0912    0.0000 C   0  0  0  0  0  0  0  0  0  0  0  0
    4.9172    1.6775    0.0000 C   0  0  0  0  0  0  0  0  0  0  0  0
    3.4422    1.9500    0.0000 C   0  0  0  0  0  0  0  0  0  0  0  0
    3.9437    0.5363    0.0000 C   0  0  0  0  0  0  0  0  0  0  0  0
    2.4687    0.8088    0.0000 C   0  0  0  0  0  0  0  0  0  0  0  0
    1.4952   -0.3324    0.0000 C   0  0  0  0  0  0  0  0  0  0  0  0
    1.9967   -1.7460    0.0000 C   0  0  0  0  0  0  0  0  0  0  0  0
    0.5012   -1.6292    0.0000 C   0  0  0  0  0  0  0  0  0  0  0  0
  2  1  1  6
  2  3  1  0
  3  4  1  0
  4  5  1  0
  5  6  2  0
  5  7  1  0
  7  8  1  0
  8  9  1  0
  9 10  1  0
 10 11  1  0
 11 12  1  0
 12 13  2  0
 12 14  2  0
 12 15  1  0
  2 16  1  0
 16 17  1  6
 17 18  1  0
 19 18  1  6
 19 20  1  0
 20 21  1  1
 21 22  1  6
 21 23  1  0
 24 23  1  1
 24 25  1  0
 25 26  1  0
 26 27  1  1
 26 28  1  0
 28 29  1  0
 29 30  1  0
 30 31  1  6
 30 32  1  0
 32 33  1  6
 33 34  1  0
 34 35  1  0
 35 36  1  6
 35 16  1  0
 35 19  1  0
 32 20  1  0
 30 24  1  0
M  END
>  <MS_ID>  (2742) 
MS2834

>  <SMILES>  (2742) 
C[C@H](CCC(=O)NCCCOS(=O)(=O)O)[C@H]1CC[C@H]2[C@@H]3[C@@H](O)C[C@@H]4C[C@H](O)CC[C@]4(C)[C@H]3CC[C@]12C

>  <Structure_dimension>  (2742) 
2D

$$$$
MS2836
     RDKit          2D

 40 44  0  0  0  0  0  0  0  0999 V2000
   -7.7456   -2.0849    0.0000 C   0  0  0  0  0  0  0  0  0  0  0  0
   -6.5700   -1.1533    0.0000 C   0  0  0  0  0  0  0  0  0  0  0  0
   -6.7891    0.3307    0.0000 C   0  0  0  0  0  0  0  0  0  0  0  0
   -8.1837    0.8829    0.0000 C   0  0  0  0  0  0  0  0  0  0  0  0
   -8.4028    2.3668    0.0000 C   0  0  0  0  0  0  0  0  0  0  0  0
   -7.2273    3.2985    0.0000 O   0  0  0  0  0  0  0  0  0  0  0  0
   -9.7975    2.9190    0.0000 O   0  0  0  0  0  0  0  0  0  0  0  0
   -5.1754   -1.7055    0.0000 C   0  0  0  0  0  0  0  0  0  0  0  0
   -4.8024   -3.1584    0.0000 C   0  0  0  0  0  0  0  0  0  0  0  0
   -3.3053   -3.2526    0.0000 C   0  0  0  0  0  0  0  0  0  0  0  0
   -2.7531   -1.8579    0.0000 C   0  0  0  0  0  0  0  0  0  0  0  0
   -1.3472   -1.3351    0.0000 C   0  0  0  0  0  0  0  0  0  0  0  0
   -0.1914   -2.2913    0.0000 C   0  0  0  0  0  0  0  0  0  0  0  0
   -0.4416   -3.7703    0.0000 O   0  0  0  0  0  0  0  0  0  0  0  0
    1.2145   -1.7685    0.0000 C   0  0  0  0  0  0  0  0  0  0  0  0
    1.4647   -0.2895    0.0000 C   0  0  0  0  0  0  0  0  0  0  0  0
    2.8707    0.2333    0.0000 C   0  0  0  0  0  0  0  0  0  0  0  0
    3.1208    1.7123    0.0000 C   0  0  0  0  0  0  0  0  0  0  0  0
    4.5268    2.2352    0.0000 O   0  0  0  0  0  0  0  0  0  0  0  0
    5.6825    1.2790    0.0000 C   0  0  0  0  0  0  0  0  0  0  0  0
    5.4323   -0.2000    0.0000 O   0  0  0  0  0  0  0  0  0  0  0  0
    6.5881   -1.1562    0.0000 C   0  0  0  0  0  0  0  0  0  0  0  0
    6.3379   -2.6351    0.0000 C   0  0  0  0  0  0  0  0  0  0  0  0
    4.9320   -3.1580    0.0000 O   0  0  0  0  0  0  0  0  0  0  0  0
    7.9940   -0.6333    0.0000 C   0  0  0  0  0  0  0  0  0  0  0  0
    9.1498   -1.5895    0.0000 O   0  0  0  0  0  0  0  0  0  0  0  0
    8.2442    0.8456    0.0000 C   0  0  0  0  0  0  0  0  0  0  0  0
    9.6501    1.3685    0.0000 O   0  0  0  0  0  0  0  0  0  0  0  0
    7.0885    1.8018    0.0000 C   0  0  0  0  0  0  0  0  0  0  0  0
    7.3387    3.2808    0.0000 O   0  0  0  0  0  0  0  0  0  0  0  0
    1.9651    2.6685    0.0000 C   0  0  0  0  0  0  0  0  0  0  0  0
    0.5592    2.1457    0.0000 C   0  0  0  0  0  0  0  0  0  0  0  0
    0.3090    0.6667    0.0000 C   0  0  0  0  0  0  0  0  0  0  0  0
   -0.8468    1.6229    0.0000 C   0  0  0  0  0  0  0  0  0  0  0  0
   -1.0970    0.1439    0.0000 C   0  0  0  0  0  0  0  0  0  0  0  0
   -2.2527    1.1000    0.0000 C   0  0  0  0  0  0  0  0  0  0  0  0
   -3.6586    0.5772    0.0000 C   0  0  0  0  0  0  0  0  0  0  0  0
   -4.8144    1.5334    0.0000 O   0  0  0  0  0  0  0  0  0  0  0  0
   -3.9088   -0.9018    0.0000 C   0  0  0  0  0  0  0  0  0  0  0  0
   -5.1582   -0.0716    0.0000 C   0  0  0  0  0  0  0  0  0  0  0  0
  2  1  1  6
  2  3  1  0
  3  4  1  0
  4  5  1  0
  5  6  2  0
  5  7  1  0
  2  8  1  0
  8  9  1  6
  9 10  1  0
 11 10  1  6
 11 12  1  0
 12 13  1  1
 13 14  1  1
 13 15  1  0
 16 15  1  1
 16 17  1  0
 17 18  1  0
 18 19  1  1
 20 19  1  1
 20 21  1  0
 21 22  1  0
 22 23  1  1
 23 24  1  0
 22 25  1  0
 25 26  1  6
 25 27  1  0
 27 28  1  6
 27 29  1  0
 29 30  1  1
 18 31  1  0
 31 32  1  0
 32 33  1  0
 33 34  1  6
 33 35  1  0
 35 36  1  6
 36 37  1  0
 37 38  1  1
 37 39  1  0
 39 40  1  6
 39  8  1  0
 39 11  1  0
 35 12  1  0
 33 16  1  0
 29 20  1  0
M  END
>  <MS_ID>  (2743) 
MS2836

>  <SMILES>  (2743) 
C[C@H](CCC(=O)O)[C@H]1CC[C@H]2[C@@H]3[C@H](O)C[C@@H]4C[C@H](O[C@@H]5O[C@H](CO)[C@@H](O)[C@@H](O)[C@@H]5O)CC[C@]4(C)[C@H]3C[C@H](O)[C@]12C

>  <Structure_dimension>  (2743) 
2D

$$$$
MS2837
     RDKit          2D

 34 37  0  0  0  0  0  0  0  0999 V2000
  -11.1831    0.1467    0.0000 C   0  0  0  0  0  0  0  0  0  0  0  0
   -9.7194   -0.1813    0.0000 O   0  0  0  0  0  0  0  0  0  0  0  0
   -8.7034    0.9222    0.0000 C   0  0  0  0  0  0  0  0  0  0  0  0
   -7.2397    0.5942    0.0000 C   0  0  0  0  0  0  0  0  0  0  0  0
   -6.2238    1.6978    0.0000 N   0  0  0  0  0  0  0  0  0  0  0  0
   -6.6716    3.1294    0.0000 C   0  0  0  0  0  0  0  0  0  0  0  0
   -4.7601    1.3698    0.0000 C   0  0  0  0  0  0  0  0  0  0  0  0
   -3.7442    2.4733    0.0000 O   0  0  0  0  0  0  0  0  0  0  0  0
   -4.3124   -0.0619    0.0000 C   0  0  0  0  0  0  0  0  0  0  0  0
   -2.8487   -0.3899    0.0000 C   0  0  0  0  0  0  0  0  0  0  0  0
   -2.4009   -1.8215    0.0000 C   0  0  0  0  0  0  0  0  0  0  0  0
   -3.4168   -2.9251    0.0000 C   0  0  0  0  0  0  0  0  0  0  0  0
   -0.9372   -2.1495    0.0000 C   0  0  0  0  0  0  0  0  0  0  0  0
   -0.3423   -3.5265    0.0000 C   0  0  0  0  0  0  0  0  0  0  0  0
    1.1512   -3.3862    0.0000 C   0  0  0  0  0  0  0  0  0  0  0  0
    1.4792   -1.9225    0.0000 C   0  0  0  0  0  0  0  0  0  0  0  0
    2.7864   -1.1869    0.0000 C   0  0  0  0  0  0  0  0  0  0  0  0
    4.0771   -1.9511    0.0000 C   0  0  0  0  0  0  0  0  0  0  0  0
    4.0606   -3.4510    0.0000 O   0  0  0  0  0  0  0  0  0  0  0  0
    5.3843   -1.2155    0.0000 C   0  0  0  0  0  0  0  0  0  0  0  0
    6.6750   -1.9798    0.0000 O   0  0  0  0  0  0  0  0  0  0  0  0
    5.4009    0.2844    0.0000 C   0  0  0  0  0  0  0  0  0  0  0  0
    6.7081    1.0200    0.0000 C   0  0  0  0  0  0  0  0  0  0  0  0
    6.7247    2.5199    0.0000 C   0  0  0  0  0  0  0  0  0  0  0  0
    8.0319    3.2556    0.0000 O   0  0  0  0  0  0  0  0  0  0  0  0
    5.4340    3.2842    0.0000 C   0  0  0  0  0  0  0  0  0  0  0  0
    4.1267    2.5486    0.0000 C   0  0  0  0  0  0  0  0  0  0  0  0
    4.1102    1.0487    0.0000 C   0  0  0  0  0  0  0  0  0  0  0  0
    2.8195    1.8130    0.0000 C   0  0  0  0  0  0  0  0  0  0  0  0
    2.8030    0.3131    0.0000 C   0  0  0  0  0  0  0  0  0  0  0  0
    1.5123    1.0773    0.0000 C   0  0  0  0  0  0  0  0  0  0  0  0
    0.2050    0.3417    0.0000 C   0  0  0  0  0  0  0  0  0  0  0  0
    0.1885   -1.1582    0.0000 C   0  0  0  0  0  0  0  0  0  0  0  0
   -1.1750   -0.5330    0.0000 C   0  0  0  0  0  0  0  0  0  0  0  0
  1  2  1  0
  2  3  1  0
  3  4  1  0
  4  5  1  0
  5  6  1  0
  5  7  1  0
  7  8  2  0
  7  9  1  0
  9 10  1  0
 10 11  1  0
 11 12  1  6
 11 13  1  0
 13 14  1  6
 14 15  1  0
 16 15  1  6
 16 17  1  0
 17 18  1  1
 18 19  1  1
 18 20  1  0
 20 21  1  1
 20 22  1  0
 22 23  1  1
 23 24  1  0
 24 25  1  1
 24 26  1  0
 26 27  1  0
 27 28  1  0
 28 29  1  6
 28 30  1  0
 30 31  1  6
 31 32  1  0
 32 33  1  0
 33 34  1  6
 33 13  1  0
 33 16  1  0
 30 17  1  0
 28 22  1  0
M  END
>  <MS_ID>  (2744) 
MS2837

>  <SMILES>  (2744) 
COCCN(C)C(=O)CC[C@@H](C)[C@H]1CC[C@H]2[C@@H]3[C@H](O)[C@H](O)[C@@H]4C[C@H](O)CC[C@]4(C)[C@H]3CC[C@]12C

>  <Structure_dimension>  (2744) 
2D

$$$$
MS2838
     RDKit          2D

 34 38  0  0  0  0  0  0  0  0999 V2000
   -3.2858   -3.3478    0.0000 C   0  0  0  0  0  0  0  0  0  0  0  0
   -2.3538   -2.1725    0.0000 C   0  0  0  0  0  0  0  0  0  0  0  0
   -2.9057   -0.7777    0.0000 C   0  0  0  0  0  0  0  0  0  0  0  0
   -4.3895   -0.5582    0.0000 C   0  0  0  0  0  0  0  0  0  0  0  0
   -4.9414    0.8366    0.0000 C   0  0  0  0  0  0  0  0  0  0  0  0
   -4.0094    2.0119    0.0000 O   0  0  0  0  0  0  0  0  0  0  0  0
   -6.4253    1.0561    0.0000 C   0  0  0  0  0  0  0  0  0  0  0  0
   -6.9771    2.4509    0.0000 N   0  0  0  0  0  0  0  0  0  0  0  0
   -8.4610    2.6704    0.0000 C   0  0  0  0  0  0  0  0  0  0  0  0
   -9.3930    1.4950    0.0000 C   0  0  0  0  0  0  0  0  0  0  0  0
   -8.8411    0.1002    0.0000 C   0  0  0  0  0  0  0  0  0  0  0  0
   -7.3573   -0.1192    0.0000 N   0  0  0  0  0  0  0  0  0  0  0  0
   -0.8700   -2.3919    0.0000 C   0  0  0  0  0  0  0  0  0  0  0  0
   -0.1754   -3.7214    0.0000 C   0  0  0  0  0  0  0  0  0  0  0  0
    1.3037   -3.4716    0.0000 C   0  0  0  0  0  0  0  0  0  0  0  0
    1.5232   -1.9878    0.0000 C   0  0  0  0  0  0  0  0  0  0  0  0
    2.7728   -1.1580    0.0000 C   0  0  0  0  0  0  0  0  0  0  0  0
    4.1162   -1.8252    0.0000 C   0  0  0  0  0  0  0  0  0  0  0  0
    4.2100   -3.3223    0.0000 O   0  0  0  0  0  0  0  0  0  0  0  0
    5.3657   -0.9955    0.0000 C   0  0  0  0  0  0  0  0  0  0  0  0
    6.7092   -1.6627    0.0000 O   0  0  0  0  0  0  0  0  0  0  0  0
    5.2719    0.5016    0.0000 C   0  0  0  0  0  0  0  0  0  0  0  0
    6.5215    1.3314    0.0000 C   0  0  0  0  0  0  0  0  0  0  0  0
    6.4277    2.8285    0.0000 C   0  0  0  0  0  0  0  0  0  0  0  0
    7.6772    3.6583    0.0000 O   0  0  0  0  0  0  0  0  0  0  0  0
    5.0843    3.4957    0.0000 C   0  0  0  0  0  0  0  0  0  0  0  0
    3.8347    2.6659    0.0000 C   0  0  0  0  0  0  0  0  0  0  0  0
    3.9285    1.1689    0.0000 C   0  0  0  0  0  0  0  0  0  0  0  0
    2.5851    1.8362    0.0000 C   0  0  0  0  0  0  0  0  0  0  0  0
    2.6789    0.3391    0.0000 C   0  0  0  0  0  0  0  0  0  0  0  0
    1.3355    1.0064    0.0000 C   0  0  0  0  0  0  0  0  0  0  0  0
    0.0859    0.1766    0.0000 C   0  0  0  0  0  0  0  0  0  0  0  0
    0.1798   -1.3205    0.0000 C   0  0  0  0  0  0  0  0  0  0  0  0
   -1.2260   -0.7973    0.0000 C   0  0  0  0  0  0  0  0  0  0  0  0
  2  1  1  6
  2  3  1  0
  3  4  1  0
  4  5  1  0
  5  6  2  0
  5  7  1  0
  7  8  2  0
  8  9  1  0
  9 10  2  0
 10 11  1  0
 11 12  2  0
  2 13  1  0
 13 14  1  6
 14 15  1  0
 16 15  1  6
 16 17  1  0
 17 18  1  1
 18 19  1  1
 18 20  1  0
 20 21  1  1
 20 22  1  0
 22 23  1  1
 23 24  1  0
 24 25  1  1
 24 26  1  0
 26 27  1  0
 27 28  1  0
 28 29  1  6
 28 30  1  0
 30 31  1  6
 31 32  1  0
 32 33  1  0
 33 34  1  6
 12  7  1  0
 33 13  1  0
 33 16  1  0
 30 17  1  0
 28 22  1  0
M  END
>  <MS_ID>  (2745) 
MS2838

>  <SMILES>  (2745) 
C[C@H](CCC(=O)c1ncccn1)[C@H]1CC[C@H]2[C@@H]3[C@H](O)[C@H](O)[C@@H]4C[C@H](O)CC[C@]4(C)[C@H]3CC[C@]12C

>  <Structure_dimension>  (2745) 
2D

$$$$
MS2839
     RDKit          2D

 38 42  0  0  0  0  0  0  0  0999 V2000
   -7.4048   -2.1445    0.0000 C   0  0  0  0  0  0  0  0  0  0  0  0
   -6.2371   -1.2029    0.0000 C   0  0  0  0  0  0  0  0  0  0  0  0
   -6.4688    0.2791    0.0000 C   0  0  0  0  0  0  0  0  0  0  0  0
   -7.8680    0.8195    0.0000 C   0  0  0  0  0  0  0  0  0  0  0  0
   -8.0997    2.3015    0.0000 C   0  0  0  0  0  0  0  0  0  0  0  0
   -6.9321    3.2431    0.0000 O   0  0  0  0  0  0  0  0  0  0  0  0
   -9.4990    2.8419    0.0000 O   0  0  0  0  0  0  0  0  0  0  0  0
   -4.8379   -1.7433    0.0000 C   0  0  0  0  0  0  0  0  0  0  0  0
   -4.4526   -3.1930    0.0000 C   0  0  0  0  0  0  0  0  0  0  0  0
   -2.9548   -3.2745    0.0000 C   0  0  0  0  0  0  0  0  0  0  0  0
   -2.4144   -1.8752    0.0000 C   0  0  0  0  0  0  0  0  0  0  0  0
   -1.0129   -1.3405    0.0000 C   0  0  0  0  0  0  0  0  0  0  0  0
    0.1509   -2.2869    0.0000 C   0  0  0  0  0  0  0  0  0  0  0  0
   -0.0868   -3.7679    0.0000 O   0  0  0  0  0  0  0  0  0  0  0  0
    1.5523   -1.7521    0.0000 C   0  0  0  0  0  0  0  0  0  0  0  0
    1.7900   -0.2711    0.0000 C   0  0  0  0  0  0  0  0  0  0  0  0
    3.1914    0.2636    0.0000 C   0  0  0  0  0  0  0  0  0  0  0  0
    3.4291    1.7447    0.0000 C   0  0  0  0  0  0  0  0  0  0  0  0
    4.8306    2.2794    0.0000 O   0  0  0  0  0  0  0  0  0  0  0  0
    5.9944    1.3330    0.0000 C   0  0  0  0  0  0  0  0  0  0  0  0
    5.7567   -0.1480    0.0000 C   0  0  0  0  0  0  0  0  0  0  0  0
    6.9205   -1.0944    0.0000 C   0  0  0  0  0  0  0  0  0  0  0  0
    6.6828   -2.5754    0.0000 O   0  0  0  0  0  0  0  0  0  0  0  0
    8.3220   -0.5597    0.0000 C   0  0  0  0  0  0  0  0  0  0  0  0
    9.4858   -1.5060    0.0000 O   0  0  0  0  0  0  0  0  0  0  0  0
    8.5596    0.9214    0.0000 C   0  0  0  0  0  0  0  0  0  0  0  0
    9.9611    1.4561    0.0000 C   0  0  0  0  0  0  0  0  0  0  0  0
    7.3958    1.8677    0.0000 O   0  0  0  0  0  0  0  0  0  0  0  0
    2.2653    2.6910    0.0000 C   0  0  0  0  0  0  0  0  0  0  0  0
    0.8638    2.1563    0.0000 C   0  0  0  0  0  0  0  0  0  0  0  0
    0.6262    0.6753    0.0000 C   0  0  0  0  0  0  0  0  0  0  0  0
   -0.5376    1.6216    0.0000 C   0  0  0  0  0  0  0  0  0  0  0  0
   -0.7753    0.1405    0.0000 C   0  0  0  0  0  0  0  0  0  0  0  0
   -1.9391    1.0869    0.0000 C   0  0  0  0  0  0  0  0  0  0  0  0
   -3.3405    0.5522    0.0000 C   0  0  0  0  0  0  0  0  0  0  0  0
   -4.5043    1.4985    0.0000 O   0  0  0  0  0  0  0  0  0  0  0  0
   -3.5782   -0.9289    0.0000 C   0  0  0  0  0  0  0  0  0  0  0  0
   -4.8345   -0.1094    0.0000 C   0  0  0  0  0  0  0  0  0  0  0  0
  2  1  1  6
  2  3  1  0
  3  4  1  0
  4  5  1  0
  5  6  2  0
  5  7  1  0
  2  8  1  0
  8  9  1  6
  9 10  1  0
 11 10  1  6
 11 12  1  0
 12 13  1  1
 13 14  1  1
 13 15  1  0
 16 15  1  1
 16 17  1  0
 17 18  1  0
 18 19  1  1
 20 19  1  1
 20 21  1  0
 21 22  1  0
 22 23  1  6
 22 24  1  0
 24 25  1  6
 24 26  1  0
 26 27  1  1
 26 28  1  0
 18 29  1  0
 29 30  1  0
 30 31  1  0
 31 32  1  6
 31 33  1  0
 33 34  1  6
 34 35  1  0
 35 36  1  1
 35 37  1  0
 37 38  1  6
 37  8  1  0
 37 11  1  0
 33 12  1  0
 31 16  1  0
 28 20  1  0
M  END
>  <MS_ID>  (2746) 
MS2839

>  <SMILES>  (2746) 
C[C@H](CCC(=O)O)[C@H]1CC[C@H]2[C@@H]3[C@H](O)C[C@@H]4C[C@H](O[C@@H]5C[C@@H](O)[C@@H](O)[C@H](C)O5)CC[C@]4(C)[C@H]3C[C@H](O)[C@]12C

>  <Structure_dimension>  (2746) 
2D

$$$$
MS2840
     RDKit          2D

 34 38  0  0  0  0  0  0  0  0999 V2000
   -3.1244   -3.4912    0.0000 C   0  0  0  0  0  0  0  0  0  0  0  0
   -2.1932   -2.3152    0.0000 C   0  0  0  0  0  0  0  0  0  0  0  0
   -2.7461   -0.9208    0.0000 C   0  0  0  0  0  0  0  0  0  0  0  0
   -4.2301   -0.7024    0.0000 C   0  0  0  0  0  0  0  0  0  0  0  0
   -4.7830    0.6920    0.0000 C   0  0  0  0  0  0  0  0  0  0  0  0
   -3.8519    1.8680    0.0000 O   0  0  0  0  0  0  0  0  0  0  0  0
   -6.2671    0.9104    0.0000 N   0  0  0  0  0  0  0  0  0  0  0  0
   -7.3160   -0.1619    0.0000 C   0  0  0  0  0  0  0  0  0  0  0  0
   -8.6599    0.5044    0.0000 C   0  0  0  0  0  0  0  0  0  0  0  0
   -8.4415    1.9884    0.0000 C   0  0  0  0  0  0  0  0  0  0  0  0
   -6.9627    2.2393    0.0000 C   0  0  0  0  0  0  0  0  0  0  0  0
   -6.2964    3.5832    0.0000 O   0  0  0  0  0  0  0  0  0  0  0  0
   -0.7092   -2.5335    0.0000 C   0  0  0  0  0  0  0  0  0  0  0  0
   -0.0136   -3.8625    0.0000 C   0  0  0  0  0  0  0  0  0  0  0  0
    1.4653   -3.6116    0.0000 C   0  0  0  0  0  0  0  0  0  0  0  0
    1.6836   -2.1276    0.0000 C   0  0  0  0  0  0  0  0  0  0  0  0
    2.9326   -1.2968    0.0000 C   0  0  0  0  0  0  0  0  0  0  0  0
    4.2765   -1.9631    0.0000 C   0  0  0  0  0  0  0  0  0  0  0  0
    4.3715   -3.4601    0.0000 O   0  0  0  0  0  0  0  0  0  0  0  0
    5.5255   -1.1324    0.0000 C   0  0  0  0  0  0  0  0  0  0  0  0
    5.4305    0.3646    0.0000 C   0  0  0  0  0  0  0  0  0  0  0  0
    6.6795    1.1953    0.0000 C   0  0  0  0  0  0  0  0  0  0  0  0
    6.5845    2.6923    0.0000 C   0  0  0  0  0  0  0  0  0  0  0  0
    7.8335    3.5230    0.0000 O   0  0  0  0  0  0  0  0  0  0  0  0
    5.2406    3.3586    0.0000 C   0  0  0  0  0  0  0  0  0  0  0  0
    3.9917    2.5279    0.0000 C   0  0  0  0  0  0  0  0  0  0  0  0
    4.0866    1.0309    0.0000 C   0  0  0  0  0  0  0  0  0  0  0  0
    2.7427    1.6971    0.0000 C   0  0  0  0  0  0  0  0  0  0  0  0
    2.8377    0.2001    0.0000 C   0  0  0  0  0  0  0  0  0  0  0  0
    1.4938    0.8664    0.0000 C   0  0  0  0  0  0  0  0  0  0  0  0
    0.2448    0.0357    0.0000 C   0  0  0  0  0  0  0  0  0  0  0  0
   -1.0991    0.7020    0.0000 O   0  0  0  0  0  0  0  0  0  0  0  0
    0.3397   -1.4613    0.0000 C   0  0  0  0  0  0  0  0  0  0  0  0
   -1.0664   -0.9391    0.0000 C   0  0  0  0  0  0  0  0  0  0  0  0
  2  1  1  6
  2  3  1  0
  3  4  1  0
  4  5  1  0
  5  6  2  0
  5  7  1  0
  7  8  1  0
  8  9  1  0
  9 10  1  0
 10 11  1  0
 11 12  2  0
  2 13  1  0
 13 14  1  6
 14 15  1  0
 16 15  1  6
 16 17  1  0
 17 18  1  1
 18 19  1  1
 18 20  1  0
 21 20  1  1
 21 22  1  0
 22 23  1  0
 23 24  1  1
 23 25  1  0
 25 26  1  0
 26 27  1  0
 27 28  1  6
 27 29  1  0
 29 30  1  6
 30 31  1  0
 31 32  1  1
 31 33  1  0
 33 34  1  6
 11  7  1  0
 33 13  1  0
 33 16  1  0
 29 17  1  0
 27 21  1  0
M  END
>  <MS_ID>  (2747) 
MS2840

>  <SMILES>  (2747) 
C[C@H](CCC(=O)N1CCCC1=O)[C@H]1CC[C@H]2[C@@H]3[C@H](O)C[C@@H]4C[C@H](O)CC[C@]4(C)[C@H]3C[C@H](O)[C@]12C

>  <Structure_dimension>  (2747) 
2D

$$$$
MS2841
     RDKit          2D

 31 34  0  0  0  0  0  0  0  0999 V2000
   -4.0145   -2.9364    0.0000 C   0  0  0  0  0  0  0  0  0  0  0  0
   -2.9770   -1.8531    0.0000 C   0  0  0  0  0  0  0  0  0  0  0  0
   -3.3964   -0.4129    0.0000 C   0  0  0  0  0  0  0  0  0  0  0  0
   -4.8534   -0.0561    0.0000 C   0  0  0  0  0  0  0  0  0  0  0  0
   -5.2728    1.3841    0.0000 C   0  0  0  0  0  0  0  0  0  0  0  0
   -4.2353    2.4674    0.0000 O   0  0  0  0  0  0  0  0  0  0  0  0
   -6.7297    1.7410    0.0000 C   0  0  0  0  0  0  0  0  0  0  0  0
   -6.3728    3.1979    0.0000 C   0  0  0  0  0  0  0  0  0  0  0  0
   -7.0866    0.2840    0.0000 C   0  0  0  0  0  0  0  0  0  0  0  0
   -8.1866    2.0978    0.0000 C   0  0  0  0  0  0  0  0  0  0  0  0
   -1.5201   -2.2100    0.0000 C   0  0  0  0  0  0  0  0  0  0  0  0
   -0.9524   -3.5984    0.0000 C   0  0  0  0  0  0  0  0  0  0  0  0
    0.5435   -3.4876    0.0000 C   0  0  0  0  0  0  0  0  0  0  0  0
    0.9003   -2.0306    0.0000 C   0  0  0  0  0  0  0  0  0  0  0  0
    2.2218   -1.3210    0.0000 C   0  0  0  0  0  0  0  0  0  0  0  0
    3.4972   -2.1106    0.0000 C   0  0  0  0  0  0  0  0  0  0  0  0
    3.4510   -3.6099    0.0000 O   0  0  0  0  0  0  0  0  0  0  0  0
    4.8187   -1.4009    0.0000 C   0  0  0  0  0  0  0  0  0  0  0  0
    4.8648    0.0984    0.0000 C   0  0  0  0  0  0  0  0  0  0  0  0
    6.1863    0.8081    0.0000 C   0  0  0  0  0  0  0  0  0  0  0  0
    6.2325    2.3074    0.0000 C   0  0  0  0  0  0  0  0  0  0  0  0
    7.5540    3.0170    0.0000 O   0  0  0  0  0  0  0  0  0  0  0  0
    4.9571    3.0970    0.0000 C   0  0  0  0  0  0  0  0  0  0  0  0
    3.6356    2.3873    0.0000 C   0  0  0  0  0  0  0  0  0  0  0  0
    3.5895    0.8880    0.0000 C   0  0  0  0  0  0  0  0  0  0  0  0
    2.3141    1.6776    0.0000 C   0  0  0  0  0  0  0  0  0  0  0  0
    2.2680    0.1783    0.0000 C   0  0  0  0  0  0  0  0  0  0  0  0
    0.9926    0.9679    0.0000 C   0  0  0  0  0  0  0  0  0  0  0  0
   -0.3289    0.2583    0.0000 C   0  0  0  0  0  0  0  0  0  0  0  0
   -0.3750   -1.2410    0.0000 C   0  0  0  0  0  0  0  0  0  0  0  0
   -1.7259   -0.5891    0.0000 C   0  0  0  0  0  0  0  0  0  0  0  0
  2  1  1  6
  2  3  1  0
  3  4  1  0
  4  5  1  0
  5  6  2  0
  5  7  1  0
  7  8  1  0
  7  9  1  0
  7 10  1  0
  2 11  1  0
 11 12  1  6
 12 13  1  0
 14 13  1  6
 14 15  1  0
 15 16  1  1
 16 17  1  1
 16 18  1  0
 19 18  1  1
 19 20  1  0
 20 21  1  0
 21 22  1  1
 21 23  1  0
 23 24  1  0
 24 25  1  0
 25 26  1  6
 25 27  1  0
 27 28  1  6
 28 29  1  0
 29 30  1  0
 30 31  1  6
 30 11  1  0
 30 14  1  0
 27 15  1  0
 25 19  1  0
M  END
>  <MS_ID>  (2748) 
MS2841

>  <SMILES>  (2748) 
C[C@H](CCC(=O)C(C)(C)C)[C@H]1CC[C@H]2[C@@H]3[C@H](O)C[C@@H]4C[C@H](O)CC[C@]4(C)[C@H]3CC[C@]12C

>  <Structure_dimension>  (2748) 
2D

$$$$
MS2842
     RDKit          2D

 33 36  0  0  0  0  0  0  0  0999 V2000
   -1.9813   -4.3426    0.0000 C   0  0  0  0  0  0  0  0  0  0  0  0
   -1.2397   -3.0388    0.0000 C   0  0  0  0  0  0  0  0  0  0  0  0
   -1.9981   -1.7446    0.0000 C   0  0  0  0  0  0  0  0  0  0  0  0
   -3.4981   -1.7543    0.0000 C   0  0  0  0  0  0  0  0  0  0  0  0
   -4.2565   -0.4602    0.0000 C   0  0  0  0  0  0  0  0  0  0  0  0
   -3.5149    0.8437    0.0000 O   0  0  0  0  0  0  0  0  0  0  0  0
   -5.7564   -0.4699    0.0000 N   0  0  0  0  0  0  0  0  0  0  0  0
   -6.5148    0.8243    0.0000 C   0  0  0  0  0  0  0  0  0  0  0  0
   -8.0148    0.8146    0.0000 C   0  0  0  0  0  0  0  0  0  0  0  0
   -8.7732    2.1088    0.0000 S   0  0  0  0  0  0  0  0  0  0  0  0
   -9.5316    3.4029    0.0000 C   0  0  0  0  0  0  0  0  0  0  0  0
   -7.4790    2.8671    0.0000 O   0  0  0  0  0  0  0  0  0  0  0  0
  -10.0673    1.3504    0.0000 O   0  0  0  0  0  0  0  0  0  0  0  0
    0.2602   -3.0291    0.0000 C   0  0  0  0  0  0  0  0  0  0  0  0
    1.1497   -4.2369    0.0000 C   0  0  0  0  0  0  0  0  0  0  0  0
    2.5733   -3.7641    0.0000 C   0  0  0  0  0  0  0  0  0  0  0  0
    2.5636   -2.2642    0.0000 C   0  0  0  0  0  0  0  0  0  0  0  0
    3.6718   -1.2533    0.0000 C   0  0  0  0  0  0  0  0  0  0  0  0
    5.1013   -1.7076    0.0000 C   0  0  0  0  0  0  0  0  0  0  0  0
    6.2095   -0.6967    0.0000 C   0  0  0  0  0  0  0  0  0  0  0  0
    5.8882    0.7685    0.0000 C   0  0  0  0  0  0  0  0  0  0  0  0
    6.9964    1.7794    0.0000 C   0  0  0  0  0  0  0  0  0  0  0  0
    6.6751    3.2445    0.0000 C   0  0  0  0  0  0  0  0  0  0  0  0
    7.7833    4.2554    0.0000 O   0  0  0  0  0  0  0  0  0  0  0  0
    5.2455    3.6988    0.0000 C   0  0  0  0  0  0  0  0  0  0  0  0
    4.1373    2.6879    0.0000 C   0  0  0  0  0  0  0  0  0  0  0  0
    4.4586    1.2228    0.0000 C   0  0  0  0  0  0  0  0  0  0  0  0
    3.0291    1.6771    0.0000 C   0  0  0  0  0  0  0  0  0  0  0  0
    3.3504    0.2119    0.0000 C   0  0  0  0  0  0  0  0  0  0  0  0
    1.9209    0.6662    0.0000 C   0  0  0  0  0  0  0  0  0  0  0  0
    0.8127   -0.3447    0.0000 C   0  0  0  0  0  0  0  0  0  0  0  0
    1.1340   -1.8099    0.0000 C   0  0  0  0  0  0  0  0  0  0  0  0
   -0.3352   -1.5075    0.0000 C   0  0  0  0  0  0  0  0  0  0  0  0
  2  1  1  6
  2  3  1  0
  3  4  1  0
  4  5  1  0
  5  6  2  0
  5  7  1  0
  7  8  1  0
  8  9  1  0
  9 10  1  0
 10 11  1  0
 10 12  2  0
 10 13  2  0
  2 14  1  0
 14 15  1  6
 15 16  1  0
 17 16  1  6
 17 18  1  0
 18 19  1  1
 19 20  1  0
 21 20  1  1
 21 22  1  0
 22 23  1  0
 23 24  1  1
 23 25  1  0
 25 26  1  0
 26 27  1  0
 27 28  1  6
 27 29  1  0
 29 30  1  6
 30 31  1  0
 31 32  1  0
 32 33  1  6
 32 14  1  0
 32 17  1  0
 29 18  1  0
 27 21  1  0
M  END
>  <MS_ID>  (2749) 
MS2842

>  <SMILES>  (2749) 
C[C@H](CCC(=O)NCCS(C)(=O)=O)[C@H]1CC[C@H]2[C@@H]3CC[C@@H]4C[C@H](O)CC[C@]4(C)[C@H]3CC[C@]12C

>  <Structure_dimension>  (2749) 
2D

$$$$
MS2843
     RDKit          2D

 36 40  0  0  0  0  0  0  0  0999 V2000
   -1.9050   -4.5694    0.0000 C   0  0  0  0  0  0  0  0  0  0  0  0
   -1.2772   -3.2071    0.0000 C   0  0  0  0  0  0  0  0  0  0  0  0
   -2.1430   -1.9823    0.0000 C   0  0  0  0  0  0  0  0  0  0  0  0
   -3.6367   -2.1197    0.0000 C   0  0  0  0  0  0  0  0  0  0  0  0
   -4.5026   -0.8948    0.0000 C   0  0  0  0  0  0  0  0  0  0  0  0
   -3.8747    0.4675    0.0000 O   0  0  0  0  0  0  0  0  0  0  0  0
   -5.9962   -1.0322    0.0000 O   0  0  0  0  0  0  0  0  0  0  0  0
   -6.8621    0.1926    0.0000 C   0  0  0  0  0  0  0  0  0  0  0  0
   -6.2343    1.5549    0.0000 C   0  0  0  0  0  0  0  0  0  0  0  0
   -7.1001    2.7798    0.0000 C   0  0  0  0  0  0  0  0  0  0  0  0
   -8.5938    2.6424    0.0000 C   0  0  0  0  0  0  0  0  0  0  0  0
   -9.4597    3.8672    0.0000 O   0  0  0  0  0  0  0  0  0  0  0  0
   -9.2216    1.2801    0.0000 C   0  0  0  0  0  0  0  0  0  0  0  0
   -8.3558    0.0552    0.0000 C   0  0  0  0  0  0  0  0  0  0  0  0
    0.2165   -3.0697    0.0000 C   0  0  0  0  0  0  0  0  0  0  0  0
    1.2057   -4.1974    0.0000 C   0  0  0  0  0  0  0  0  0  0  0  0
    2.5838   -3.6051    0.0000 C   0  0  0  0  0  0  0  0  0  0  0  0
    2.4464   -2.1114    0.0000 C   0  0  0  0  0  0  0  0  0  0  0  0
    3.4645   -1.0098    0.0000 C   0  0  0  0  0  0  0  0  0  0  0  0
    4.9275   -1.3407    0.0000 C   0  0  0  0  0  0  0  0  0  0  0  0
    5.3725   -2.7732    0.0000 O   0  0  0  0  0  0  0  0  0  0  0  0
    5.9456   -0.2391    0.0000 C   0  0  0  0  0  0  0  0  0  0  0  0
    7.4086   -0.5700    0.0000 O   0  0  0  0  0  0  0  0  0  0  0  0
    5.5006    1.1934    0.0000 C   0  0  0  0  0  0  0  0  0  0  0  0
    6.5187    2.2950    0.0000 C   0  0  0  0  0  0  0  0  0  0  0  0
    6.0737    3.7274    0.0000 C   0  0  0  0  0  0  0  0  0  0  0  0
    7.0918    4.8290    0.0000 O   0  0  0  0  0  0  0  0  0  0  0  0
    4.6107    4.0583    0.0000 C   0  0  0  0  0  0  0  0  0  0  0  0
    3.5926    2.9567    0.0000 C   0  0  0  0  0  0  0  0  0  0  0  0
    4.0376    1.5242    0.0000 C   0  0  0  0  0  0  0  0  0  0  0  0
    2.5745    1.8551    0.0000 C   0  0  0  0  0  0  0  0  0  0  0  0
    3.0195    0.4227    0.0000 C   0  0  0  0  0  0  0  0  0  0  0  0
    1.5564    0.7535    0.0000 C   0  0  0  0  0  0  0  0  0  0  0  0
    0.5384   -0.3481    0.0000 C   0  0  0  0  0  0  0  0  0  0  0  0
    0.9833   -1.7805    0.0000 C   0  0  0  0  0  0  0  0  0  0  0  0
   -0.5063   -1.6044    0.0000 C   0  0  0  0  0  0  0  0  0  0  0  0
  2  1  1  6
  2  3  1  0
  3  4  1  0
  4  5  1  0
  5  6  2  0
  5  7  1  0
  7  8  1  0
  8  9  2  0
  9 10  1  0
 10 11  2  0
 11 12  1  0
 11 13  1  0
 13 14  2  0
  2 15  1  0
 15 16  1  6
 16 17  1  0
 18 17  1  6
 18 19  1  0
 19 20  1  1
 20 21  1  1
 20 22  1  0
 22 23  1  1
 22 24  1  0
 24 25  1  1
 25 26  1  0
 26 27  1  1
 26 28  1  0
 28 29  1  0
 29 30  1  0
 30 31  1  6
 30 32  1  0
 32 33  1  6
 33 34  1  0
 34 35  1  0
 35 36  1  6
 14  8  1  0
 35 15  1  0
 35 18  1  0
 32 19  1  0
 30 24  1  0
M  END
>  <MS_ID>  (2750) 
MS2843

>  <SMILES>  (2750) 
C[C@H](CCC(=O)Oc1ccc(O)cc1)[C@H]1CC[C@H]2[C@@H]3[C@H](O)[C@H](O)[C@@H]4C[C@H](O)CC[C@]4(C)[C@H]3CC[C@]12C

>  <Structure_dimension>  (2750) 
2D

$$$$
MS2844
     RDKit          2D

 30 33  0  0  0  0  0  0  0  0999 V2000
   -3.6944   -3.4608    0.0000 C   0  0  0  0  0  0  0  0  0  0  0  0
   -2.7226   -2.3182    0.0000 C   0  0  0  0  0  0  0  0  0  0  0  0
   -3.2262   -0.9053    0.0000 C   0  0  0  0  0  0  0  0  0  0  0  0
   -4.7017   -0.6350    0.0000 C   0  0  0  0  0  0  0  0  0  0  0  0
   -5.2053    0.7779    0.0000 C   0  0  0  0  0  0  0  0  0  0  0  0
   -4.2335    1.9206    0.0000 O   0  0  0  0  0  0  0  0  0  0  0  0
   -6.6808    1.0482    0.0000 C   0  0  0  0  0  0  0  0  0  0  0  0
   -7.1844    2.4611    0.0000 C   0  0  0  0  0  0  0  0  0  0  0  0
   -6.2126    3.6038    0.0000 O   0  0  0  0  0  0  0  0  0  0  0  0
   -8.6599    2.7314    0.0000 O   0  0  0  0  0  0  0  0  0  0  0  0
   -1.2471   -2.5885    0.0000 C   0  0  0  0  0  0  0  0  0  0  0  0
   -0.5986   -3.9410    0.0000 C   0  0  0  0  0  0  0  0  0  0  0  0
    0.8882   -3.7422    0.0000 C   0  0  0  0  0  0  0  0  0  0  0  0
    1.1585   -2.2667    0.0000 C   0  0  0  0  0  0  0  0  0  0  0  0
    2.4358   -1.4803    0.0000 C   0  0  0  0  0  0  0  0  0  0  0  0
    3.7555   -2.1933    0.0000 C   0  0  0  0  0  0  0  0  0  0  0  0
    5.0328   -1.4069    0.0000 C   0  0  0  0  0  0  0  0  0  0  0  0
    4.9905    0.0925    0.0000 C   0  0  0  0  0  0  0  0  0  0  0  0
    6.2678    0.8789    0.0000 C   0  0  0  0  0  0  0  0  0  0  0  0
    6.2254    2.3783    0.0000 C   0  0  0  0  0  0  0  0  0  0  0  0
    7.5027    3.1647    0.0000 N   0  0  0  0  0  0  0  0  0  0  0  0
    4.9057    3.0913    0.0000 C   0  0  0  0  0  0  0  0  0  0  0  0
    3.6284    2.3049    0.0000 C   0  0  0  0  0  0  0  0  0  0  0  0
    3.6708    0.8055    0.0000 C   0  0  0  0  0  0  0  0  0  0  0  0
    2.3510    1.5185    0.0000 C   0  0  0  0  0  0  0  0  0  0  0  0
    2.3934    0.0191    0.0000 C   0  0  0  0  0  0  0  0  0  0  0  0
    1.0737    0.7321    0.0000 C   0  0  0  0  0  0  0  0  0  0  0  0
   -0.2036   -0.0543    0.0000 C   0  0  0  0  0  0  0  0  0  0  0  0
   -0.1612   -1.5537    0.0000 C   0  0  0  0  0  0  0  0  0  0  0  0
   -1.5482   -0.9826    0.0000 C   0  0  0  0  0  0  0  0  0  0  0  0
  2  1  1  6
  2  3  1  0
  3  4  1  0
  4  5  1  0
  5  6  2  0
  5  7  1  0
  7  8  1  0
  8  9  2  0
  8 10  1  0
  2 11  1  0
 11 12  1  6
 12 13  1  0
 14 13  1  6
 14 15  1  0
 15 16  1  1
 16 17  1  0
 18 17  1  1
 18 19  1  0
 19 20  1  0
 20 21  1  1
 20 22  1  0
 22 23  1  0
 23 24  1  0
 24 25  1  6
 24 26  1  0
 26 27  1  6
 27 28  1  0
 28 29  1  0
 29 30  1  6
 29 11  1  0
 29 14  1  0
 26 15  1  0
 24 18  1  0
M  END
>  <MS_ID>  (2751) 
MS2844

>  <SMILES>  (2751) 
C[C@H](CCC(=O)CC(=O)O)[C@H]1CC[C@H]2[C@@H]3CC[C@@H]4C[C@H](N)CC[C@]4(C)[C@H]3CC[C@]12C

>  <Structure_dimension>  (2751) 
2D

$$$$
MS2845
     RDKit          2D

 39 43  0  0  0  0  0  0  0  0999 V2000
   -0.7642   -4.6036    0.0000 C   0  0  0  0  0  0  0  0  0  0  0  0
   -0.1459   -3.2369    0.0000 C   0  0  0  0  0  0  0  0  0  0  0  0
   -1.0204   -2.0182    0.0000 C   0  0  0  0  0  0  0  0  0  0  0  0
   -2.5131   -2.1661    0.0000 C   0  0  0  0  0  0  0  0  0  0  0  0
   -3.3875   -0.9474    0.0000 C   0  0  0  0  0  0  0  0  0  0  0  0
   -2.7693    0.4193    0.0000 O   0  0  0  0  0  0  0  0  0  0  0  0
   -4.8802   -1.0953    0.0000 N   0  0  0  0  0  0  0  0  0  0  0  0
   -5.7547    0.1234    0.0000 C   0  0  0  0  0  0  0  0  0  0  0  0
   -5.1364    1.4901    0.0000 C   0  0  0  0  0  0  0  0  0  0  0  0
   -6.0109    2.7088    0.0000 C   0  0  0  0  0  0  0  0  0  0  0  0
   -7.5036    2.5609    0.0000 C   0  0  0  0  0  0  0  0  0  0  0  0
   -8.1218    1.1942    0.0000 C   0  0  0  0  0  0  0  0  0  0  0  0
   -9.6145    1.0463    0.0000 C   0  0  0  0  0  0  0  0  0  0  0  0
  -11.1072    0.8984    0.0000 F   0  0  0  0  0  0  0  0  0  0  0  0
   -9.7624    2.5390    0.0000 F   0  0  0  0  0  0  0  0  0  0  0  0
   -9.4666   -0.4464    0.0000 F   0  0  0  0  0  0  0  0  0  0  0  0
   -7.2474   -0.0245    0.0000 C   0  0  0  0  0  0  0  0  0  0  0  0
    1.3467   -3.0890    0.0000 C   0  0  0  0  0  0  0  0  0  0  0  0
    2.3438   -4.2097    0.0000 C   0  0  0  0  0  0  0  0  0  0  0  0
    3.7177   -3.6077    0.0000 C   0  0  0  0  0  0  0  0  0  0  0  0
    3.5698   -2.1150    0.0000 C   0  0  0  0  0  0  0  0  0  0  0  0
    4.5801   -1.0063    0.0000 C   0  0  0  0  0  0  0  0  0  0  0  0
    6.0454   -1.3269    0.0000 C   0  0  0  0  0  0  0  0  0  0  0  0
    6.5005   -2.7562    0.0000 O   0  0  0  0  0  0  0  0  0  0  0  0
    7.0557   -0.2181    0.0000 C   0  0  0  0  0  0  0  0  0  0  0  0
    6.6007    1.2112    0.0000 C   0  0  0  0  0  0  0  0  0  0  0  0
    7.6110    2.3199    0.0000 C   0  0  0  0  0  0  0  0  0  0  0  0
    7.1559    3.7492    0.0000 C   0  0  0  0  0  0  0  0  0  0  0  0
    8.1662    4.8580    0.0000 O   0  0  0  0  0  0  0  0  0  0  0  0
    5.6906    4.0698    0.0000 C   0  0  0  0  0  0  0  0  0  0  0  0
    4.6803    2.9611    0.0000 C   0  0  0  0  0  0  0  0  0  0  0  0
    5.1353    1.5318    0.0000 C   0  0  0  0  0  0  0  0  0  0  0  0
    3.6700    1.8523    0.0000 C   0  0  0  0  0  0  0  0  0  0  0  0
    4.1250    0.4230    0.0000 C   0  0  0  0  0  0  0  0  0  0  0  0
    2.6597    0.7436    0.0000 C   0  0  0  0  0  0  0  0  0  0  0  0
    1.6494   -0.3651    0.0000 C   0  0  0  0  0  0  0  0  0  0  0  0
    0.1841   -0.0446    0.0000 O   0  0  0  0  0  0  0  0  0  0  0  0
    2.1045   -1.7944    0.0000 C   0  0  0  0  0  0  0  0  0  0  0  0
    0.6136   -1.6288    0.0000 C   0  0  0  0  0  0  0  0  0  0  0  0
  2  1  1  6
  2  3  1  0
  3  4  1  0
  4  5  1  0
  5  6  2  0
  5  7  1  0
  7  8  1  0
  8  9  2  0
  9 10  1  0
 10 11  2  0
 11 12  1  0
 12 13  1  0
 13 14  1  0
 13 15  1  0
 13 16  1  0
 12 17  2  0
  2 18  1  0
 18 19  1  6
 19 20  1  0
 21 20  1  6
 21 22  1  0
 22 23  1  1
 23 24  1  1
 23 25  1  0
 26 25  1  1
 26 27  1  0
 27 28  1  0
 28 29  1  1
 28 30  1  0
 30 31  1  0
 31 32  1  0
 32 33  1  6
 32 34  1  0
 34 35  1  6
 35 36  1  0
 36 37  1  1
 36 38  1  0
 38 39  1  6
 17  8  1  0
 38 18  1  0
 38 21  1  0
 34 22  1  0
 32 26  1  0
M  END
>  <MS_ID>  (2752) 
MS2845

>  <SMILES>  (2752) 
C[C@H](CCC(=O)Nc1cccc(C(F)(F)F)c1)[C@H]1CC[C@H]2[C@@H]3[C@H](O)C[C@@H]4C[C@H](O)CC[C@]4(C)[C@H]3C[C@H](O)[C@]12C

>  <Structure_dimension>  (2752) 
2D

$$$$
MS2846
     RDKit          2D

 30 33  0  0  0  0  0  0  0  0999 V2000
   -4.3209   -2.7536    0.0000 C   0  0  0  0  0  0  0  0  0  0  0  0
   -3.2523   -1.7010    0.0000 C   0  0  0  0  0  0  0  0  0  0  0  0
   -3.6295   -0.2492    0.0000 C   0  0  0  0  0  0  0  0  0  0  0  0
   -5.0755    0.1499    0.0000 C   0  0  0  0  0  0  0  0  0  0  0  0
   -5.4527    1.6017    0.0000 C   0  0  0  0  0  0  0  0  0  0  0  0
   -4.3841    2.6543    0.0000 O   0  0  0  0  0  0  0  0  0  0  0  0
   -6.8987    2.0009    0.0000 C   0  0  0  0  0  0  0  0  0  0  0  0
   -7.2759    3.4526    0.0000 N   0  0  0  0  0  0  0  0  0  0  0  0
   -7.9673    0.9482    0.0000 O   0  0  0  0  0  0  0  0  0  0  0  0
   -1.8064   -2.1002    0.0000 C   0  0  0  0  0  0  0  0  0  0  0  0
   -1.2794   -3.5046    0.0000 C   0  0  0  0  0  0  0  0  0  0  0  0
    0.2191   -3.4374    0.0000 C   0  0  0  0  0  0  0  0  0  0  0  0
    0.6183   -1.9915    0.0000 C   0  0  0  0  0  0  0  0  0  0  0  0
    1.9599   -1.3206    0.0000 C   0  0  0  0  0  0  0  0  0  0  0  0
    3.2117   -2.1470    0.0000 C   0  0  0  0  0  0  0  0  0  0  0  0
    3.1219   -3.6443    0.0000 O   0  0  0  0  0  0  0  0  0  0  0  0
    4.5533   -1.4762    0.0000 C   0  0  0  0  0  0  0  0  0  0  0  0
    4.6431    0.0211    0.0000 C   0  0  0  0  0  0  0  0  0  0  0  0
    5.9847    0.6920    0.0000 C   0  0  0  0  0  0  0  0  0  0  0  0
    6.0745    2.1893    0.0000 C   0  0  0  0  0  0  0  0  0  0  0  0
    7.4161    2.8602    0.0000 O   0  0  0  0  0  0  0  0  0  0  0  0
    4.8227    3.0158    0.0000 C   0  0  0  0  0  0  0  0  0  0  0  0
    3.4811    2.3449    0.0000 C   0  0  0  0  0  0  0  0  0  0  0  0
    3.3913    0.8476    0.0000 C   0  0  0  0  0  0  0  0  0  0  0  0
    2.1395    1.6740    0.0000 C   0  0  0  0  0  0  0  0  0  0  0  0
    2.0497    0.1767    0.0000 C   0  0  0  0  0  0  0  0  0  0  0  0
    0.7979    1.0031    0.0000 C   0  0  0  0  0  0  0  0  0  0  0  0
   -0.5437    0.3323    0.0000 C   0  0  0  0  0  0  0  0  0  0  0  0
   -0.6335   -1.1650    0.0000 C   0  0  0  0  0  0  0  0  0  0  0  0
   -1.9649   -0.4740    0.0000 C   0  0  0  0  0  0  0  0  0  0  0  0
  2  1  1  6
  2  3  1  0
  3  4  1  0
  4  5  1  0
  5  6  2  0
  5  7  1  0
  7  8  1  0
  7  9  2  0
  2 10  1  0
 10 11  1  6
 11 12  1  0
 13 12  1  6
 13 14  1  0
 14 15  1  1
 15 16  1  1
 15 17  1  0
 18 17  1  1
 18 19  1  0
 19 20  1  0
 20 21  1  1
 20 22  1  0
 22 23  1  0
 23 24  1  0
 24 25  1  6
 24 26  1  0
 26 27  1  6
 27 28  1  0
 28 29  1  0
 29 30  1  6
 29 10  1  0
 29 13  1  0
 26 14  1  0
 24 18  1  0
M  END
>  <MS_ID>  (2753) 
MS2846

>  <SMILES>  (2753) 
C[C@H](CCC(=O)C(N)=O)[C@H]1CC[C@H]2[C@@H]3[C@H](O)C[C@@H]4C[C@H](O)CC[C@]4(C)[C@H]3CC[C@]12C

>  <Structure_dimension>  (2753) 
2D

$$$$
MS2847
     RDKit          2D

 33 37  0  0  0  0  0  0  0  0999 V2000
   -2.6774   -3.5117    0.0000 C   0  0  0  0  0  0  0  0  0  0  0  0
   -1.7282   -2.3503    0.0000 C   0  0  0  0  0  0  0  0  0  0  0  0
   -2.2594   -0.9475    0.0000 C   0  0  0  0  0  0  0  0  0  0  0  0
   -3.7399   -0.7062    0.0000 C   0  0  0  0  0  0  0  0  0  0  0  0
   -4.2711    0.6966    0.0000 C   0  0  0  0  0  0  0  0  0  0  0  0
   -3.3219    1.8581    0.0000 O   0  0  0  0  0  0  0  0  0  0  0  0
   -5.7516    0.9379    0.0000 C   0  0  0  0  0  0  0  0  0  0  0  0
   -6.2828    2.3407    0.0000 C   0  0  0  0  0  0  0  0  0  0  0  0
   -7.7633    2.5820    0.0000 C   0  0  0  0  0  0  0  0  0  0  0  0
   -8.7125    1.4206    0.0000 C   0  0  0  0  0  0  0  0  0  0  0  0
  -10.1930    1.6619    0.0000 O   0  0  0  0  0  0  0  0  0  0  0  0
   -8.1813    0.0178    0.0000 C   0  0  0  0  0  0  0  0  0  0  0  0
   -6.7008   -0.2235    0.0000 C   0  0  0  0  0  0  0  0  0  0  0  0
   -0.2477   -2.5916    0.0000 C   0  0  0  0  0  0  0  0  0  0  0  0
    0.4272   -3.9312    0.0000 C   0  0  0  0  0  0  0  0  0  0  0  0
    1.9098   -3.7032    0.0000 C   0  0  0  0  0  0  0  0  0  0  0  0
    2.1511   -2.2227    0.0000 C   0  0  0  0  0  0  0  0  0  0  0  0
    3.4128   -1.4114    0.0000 C   0  0  0  0  0  0  0  0  0  0  0  0
    4.7462   -2.0984    0.0000 C   0  0  0  0  0  0  0  0  0  0  0  0
    6.0079   -1.2872    0.0000 C   0  0  0  0  0  0  0  0  0  0  0  0
    5.9362    0.2111    0.0000 C   0  0  0  0  0  0  0  0  0  0  0  0
    7.1978    1.0224    0.0000 C   0  0  0  0  0  0  0  0  0  0  0  0
    7.1261    2.5207    0.0000 C   0  0  0  0  0  0  0  0  0  0  0  0
    8.3878    3.3320    0.0000 O   0  0  0  0  0  0  0  0  0  0  0  0
    5.7927    3.2077    0.0000 C   0  0  0  0  0  0  0  0  0  0  0  0
    4.5310    2.3964    0.0000 C   0  0  0  0  0  0  0  0  0  0  0  0
    4.6027    0.8981    0.0000 C   0  0  0  0  0  0  0  0  0  0  0  0
    3.2693    1.5851    0.0000 C   0  0  0  0  0  0  0  0  0  0  0  0
    3.3411    0.0868    0.0000 C   0  0  0  0  0  0  0  0  0  0  0  0
    2.0076    0.7738    0.0000 C   0  0  0  0  0  0  0  0  0  0  0  0
    0.7460   -0.0374    0.0000 C   0  0  0  0  0  0  0  0  0  0  0  0
    0.8177   -1.5357    0.0000 C   0  0  0  0  0  0  0  0  0  0  0  0
   -0.5802   -0.9919    0.0000 C   0  0  0  0  0  0  0  0  0  0  0  0
  2  1  1  6
  2  3  1  0
  3  4  1  0
  4  5  1  0
  5  6  2  0
  5  7  1  0
  7  8  2  0
  8  9  1  0
  9 10  2  0
 10 11  1  0
 10 12  1  0
 12 13  2  0
  2 14  1  0
 14 15  1  6
 15 16  1  0
 17 16  1  6
 17 18  1  0
 18 19  1  1
 19 20  1  0
 21 20  1  1
 21 22  1  0
 22 23  1  0
 23 24  2  0
 23 25  1  0
 25 26  1  0
 26 27  1  0
 27 28  1  6
 27 29  1  0
 29 30  1  6
 30 31  1  0
 31 32  1  0
 32 33  1  6
 13  7  1  0
 32 14  1  0
 32 17  1  0
 29 18  1  0
 27 21  1  0
M  END
>  <MS_ID>  (2754) 
MS2847

>  <SMILES>  (2754) 
C[C@H](CCC(=O)c1ccc(O)cc1)[C@H]1CC[C@H]2[C@@H]3CC[C@@H]4CC(=O)CC[C@]4(C)[C@H]3CC[C@]12C

>  <Structure_dimension>  (2754) 
2D

$$$$
MS2848
     RDKit          2D

 32 35  0  0  0  0  0  0  0  0999 V2000
   -3.0592   -3.7169    0.0000 C   0  0  0  0  0  0  0  0  0  0  0  0
   -2.1499   -2.5239    0.0000 C   0  0  0  0  0  0  0  0  0  0  0  0
   -2.7284   -1.1399    0.0000 C   0  0  0  0  0  0  0  0  0  0  0  0
   -4.2162   -0.9489    0.0000 C   0  0  0  0  0  0  0  0  0  0  0  0
   -4.7946    0.4350    0.0000 C   0  0  0  0  0  0  0  0  0  0  0  0
   -3.8853    1.6280    0.0000 O   0  0  0  0  0  0  0  0  0  0  0  0
   -6.2824    0.6260    0.0000 N   0  0  0  0  0  0  0  0  0  0  0  0
   -6.8609    2.0100    0.0000 C   0  0  0  0  0  0  0  0  0  0  0  0
   -8.3487    2.2010    0.0000 C   0  0  0  0  0  0  0  0  0  0  0  0
   -9.2580    1.0080    0.0000 O   0  0  0  0  0  0  0  0  0  0  0  0
   -8.9272    3.5850    0.0000 O   0  0  0  0  0  0  0  0  0  0  0  0
   -0.6621   -2.7149    0.0000 C   0  0  0  0  0  0  0  0  0  0  0  0
    0.0579   -4.0308    0.0000 C   0  0  0  0  0  0  0  0  0  0  0  0
    1.5319   -3.7527    0.0000 C   0  0  0  0  0  0  0  0  0  0  0  0
    1.7229   -2.2649    0.0000 C   0  0  0  0  0  0  0  0  0  0  0  0
    2.9563   -1.4114    0.0000 C   0  0  0  0  0  0  0  0  0  0  0  0
    4.3123   -2.0528    0.0000 C   0  0  0  0  0  0  0  0  0  0  0  0
    5.5457   -1.1992    0.0000 C   0  0  0  0  0  0  0  0  0  0  0  0
    5.4232    0.2958    0.0000 C   0  0  0  0  0  0  0  0  0  0  0  0
    6.6567    1.1494    0.0000 C   0  0  0  0  0  0  0  0  0  0  0  0
    6.5342    2.6444    0.0000 C   0  0  0  0  0  0  0  0  0  0  0  0
    7.7676    3.4980    0.0000 O   0  0  0  0  0  0  0  0  0  0  0  0
    5.1782    3.2858    0.0000 C   0  0  0  0  0  0  0  0  0  0  0  0
    3.9448    2.4322    0.0000 C   0  0  0  0  0  0  0  0  0  0  0  0
    4.0673    0.9372    0.0000 C   0  0  0  0  0  0  0  0  0  0  0  0
    2.7113    1.5786    0.0000 C   0  0  0  0  0  0  0  0  0  0  0  0
    2.8338    0.0836    0.0000 C   0  0  0  0  0  0  0  0  0  0  0  0
    1.4779    0.7250    0.0000 C   0  0  0  0  0  0  0  0  0  0  0  0
    0.2444   -0.1285    0.0000 C   0  0  0  0  0  0  0  0  0  0  0  0
   -1.1115    0.5129    0.0000 O   0  0  0  0  0  0  0  0  0  0  0  0
    0.3669   -1.6235    0.0000 C   0  0  0  0  0  0  0  0  0  0  0  0
   -1.0486   -1.1274    0.0000 C   0  0  0  0  0  0  0  0  0  0  0  0
  2  1  1  6
  2  3  1  0
  3  4  1  0
  4  5  1  0
  5  6  2  0
  5  7  1  0
  7  8  1  0
  8  9  1  0
  9 10  2  0
  9 11  1  0
  2 12  1  0
 12 13  1  6
 13 14  1  0
 15 14  1  6
 15 16  1  0
 16 17  1  1
 17 18  1  0
 19 18  1  1
 19 20  1  0
 20 21  1  0
 21 22  2  0
 21 23  1  0
 23 24  1  0
 24 25  1  0
 25 26  1  6
 25 27  1  0
 27 28  1  6
 28 29  1  0
 29 30  2  0
 29 31  1  0
 31 32  1  6
 31 12  1  0
 31 15  1  0
 27 16  1  0
 25 19  1  0
M  END
>  <MS_ID>  (2755) 
MS2848

>  <SMILES>  (2755) 
C[C@H](CCC(=O)NCC(=O)O)[C@H]1CC[C@H]2[C@@H]3CC[C@@H]4CC(=O)CC[C@]4(C)[C@H]3CC(=O)[C@]12C

>  <Structure_dimension>  (2755) 
2D

$$$$
MS2850
     RDKit          2D

 34 37  0  0  0  0  0  0  0  0999 V2000
   -1.4216   -4.3999    0.0000 C   0  0  0  0  0  0  0  0  0  0  0  0
   -0.7110   -3.0789    0.0000 C   0  0  0  0  0  0  0  0  0  0  0  0
   -1.4997   -1.8030    0.0000 C   0  0  0  0  0  0  0  0  0  0  0  0
   -2.9990   -1.8481    0.0000 C   0  0  0  0  0  0  0  0  0  0  0  0
   -3.7877   -0.5722    0.0000 C   0  0  0  0  0  0  0  0  0  0  0  0
   -3.0771    0.7488    0.0000 O   0  0  0  0  0  0  0  0  0  0  0  0
   -5.2871   -0.6172    0.0000 N   0  0  0  0  0  0  0  0  0  0  0  0
   -6.0757    0.6587    0.0000 C   0  0  0  0  0  0  0  0  0  0  0  0
   -7.5751    0.6136    0.0000 C   0  0  0  0  0  0  0  0  0  0  0  0
   -8.3638    1.8895    0.0000 O   0  0  0  0  0  0  0  0  0  0  0  0
   -9.8631    1.8444    0.0000 S   0  0  0  0  0  0  0  0  0  0  0  0
   -9.8180    0.3451    0.0000 O   0  0  0  0  0  0  0  0  0  0  0  0
   -9.9082    3.3438    0.0000 O   0  0  0  0  0  0  0  0  0  0  0  0
  -11.3624    1.7994    0.0000 O   0  0  0  0  0  0  0  0  0  0  0  0
    0.7883   -3.0339    0.0000 C   0  0  0  0  0  0  0  0  0  0  0  0
    1.7060   -4.2204    0.0000 C   0  0  0  0  0  0  0  0  0  0  0  0
    3.1181   -3.7142    0.0000 C   0  0  0  0  0  0  0  0  0  0  0  0
    3.0730   -2.2148    0.0000 C   0  0  0  0  0  0  0  0  0  0  0  0
    4.1570   -1.1781    0.0000 C   0  0  0  0  0  0  0  0  0  0  0  0
    5.5969   -1.5986    0.0000 C   0  0  0  0  0  0  0  0  0  0  0  0
    6.6810   -0.5618    0.0000 C   0  0  0  0  0  0  0  0  0  0  0  0
    6.3252    0.8954    0.0000 C   0  0  0  0  0  0  0  0  0  0  0  0
    7.4092    1.9321    0.0000 C   0  0  0  0  0  0  0  0  0  0  0  0
    7.0534    3.3893    0.0000 C   0  0  0  0  0  0  0  0  0  0  0  0
    8.1375    4.4260    0.0000 O   0  0  0  0  0  0  0  0  0  0  0  0
    5.6135    3.8097    0.0000 C   0  0  0  0  0  0  0  0  0  0  0  0
    4.5295    2.7730    0.0000 C   0  0  0  0  0  0  0  0  0  0  0  0
    4.8853    1.3158    0.0000 C   0  0  0  0  0  0  0  0  0  0  0  0
    3.4454    1.7363    0.0000 C   0  0  0  0  0  0  0  0  0  0  0  0
    3.8012    0.2791    0.0000 C   0  0  0  0  0  0  0  0  0  0  0  0
    2.3614    0.6995    0.0000 C   0  0  0  0  0  0  0  0  0  0  0  0
    1.2773   -0.3372    0.0000 C   0  0  0  0  0  0  0  0  0  0  0  0
    1.6331   -1.7944    0.0000 C   0  0  0  0  0  0  0  0  0  0  0  0
    0.1572   -1.5268    0.0000 C   0  0  0  0  0  0  0  0  0  0  0  0
  2  1  1  6
  2  3  1  0
  3  4  1  0
  4  5  1  0
  5  6  2  0
  5  7  1  0
  7  8  1  0
  8  9  1  0
  9 10  1  0
 10 11  1  0
 11 12  2  0
 11 13  2  0
 11 14  1  0
  2 15  1  0
 15 16  1  6
 16 17  1  0
 18 17  1  6
 18 19  1  0
 19 20  1  1
 20 21  1  0
 22 21  1  1
 22 23  1  0
 23 24  1  0
 24 25  1  1
 24 26  1  0
 26 27  1  0
 27 28  1  0
 28 29  1  6
 28 30  1  0
 30 31  1  6
 31 32  1  0
 32 33  1  0
 33 34  1  6
 33 15  1  0
 33 18  1  0
 30 19  1  0
 28 22  1  0
M  END
>  <MS_ID>  (2756) 
MS2850

>  <SMILES>  (2756) 
C[C@H](CCC(=O)NCCOS(=O)(=O)O)[C@H]1CC[C@H]2[C@@H]3CC[C@@H]4C[C@H](O)CC[C@]4(C)[C@H]3CC[C@]12C

>  <Structure_dimension>  (2756) 
2D

$$$$
MS2851
     RDKit          2D

 28 31  0  0  0  0  0  0  0  0999 V2000
   -7.2657    3.7367    0.0000 C   0  0  0  0  0  0  0  0  0  0  0  0
   -6.9639    2.2673    0.0000 O   0  0  0  0  0  0  0  0  0  0  0  0
   -5.5405    1.7940    0.0000 C   0  0  0  0  0  0  0  0  0  0  0  0
   -4.4189    2.7900    0.0000 O   0  0  0  0  0  0  0  0  0  0  0  0
   -5.2387    0.3247    0.0000 C   0  0  0  0  0  0  0  0  0  0  0  0
   -3.8154   -0.1486    0.0000 C   0  0  0  0  0  0  0  0  0  0  0  0
   -3.5136   -1.6180    0.0000 C   0  0  0  0  0  0  0  0  0  0  0  0
   -4.6352   -2.6140    0.0000 C   0  0  0  0  0  0  0  0  0  0  0  0
   -2.0902   -2.0913    0.0000 C   0  0  0  0  0  0  0  0  0  0  0  0
   -1.6365   -3.5210    0.0000 C   0  0  0  0  0  0  0  0  0  0  0  0
   -0.1366   -3.5313    0.0000 C   0  0  0  0  0  0  0  0  0  0  0  0
    0.3368   -2.1080    0.0000 C   0  0  0  0  0  0  0  0  0  0  0  0
    1.7112   -1.5073    0.0000 C   0  0  0  0  0  0  0  0  0  0  0  0
    2.9187   -2.3973    0.0000 C   0  0  0  0  0  0  0  0  0  0  0  0
    4.2932   -1.7966    0.0000 C   0  0  0  0  0  0  0  0  0  0  0  0
    4.4602   -0.3060    0.0000 C   0  0  0  0  0  0  0  0  0  0  0  0
    5.8347    0.2947    0.0000 C   0  0  0  0  0  0  0  0  0  0  0  0
    6.0017    1.7854    0.0000 C   0  0  0  0  0  0  0  0  0  0  0  0
    7.3762    2.3861    0.0000 O   0  0  0  0  0  0  0  0  0  0  0  0
    4.7943    2.6754    0.0000 C   0  0  0  0  0  0  0  0  0  0  0  0
    3.4198    2.0747    0.0000 C   0  0  0  0  0  0  0  0  0  0  0  0
    3.2528    0.5840    0.0000 C   0  0  0  0  0  0  0  0  0  0  0  0
    2.0453    1.4740    0.0000 C   0  0  0  0  0  0  0  0  0  0  0  0
    1.8783   -0.0166    0.0000 C   0  0  0  0  0  0  0  0  0  0  0  0
    0.6708    0.8734    0.0000 C   0  0  0  0  0  0  0  0  0  0  0  0
   -0.7036    0.2727    0.0000 C   0  0  0  0  0  0  0  0  0  0  0  0
   -0.8707   -1.2180    0.0000 C   0  0  0  0  0  0  0  0  0  0  0  0
   -2.1645   -0.4591    0.0000 C   0  0  0  0  0  0  0  0  0  0  0  0
  1  2  1  0
  2  3  1  0
  3  4  2  0
  3  5  1  0
  5  6  1  0
  6  7  1  0
  7  8  1  1
  7  9  1  0
  9 10  1  6
 10 11  1  0
 12 11  1  6
 12 13  1  0
 13 14  1  1
 14 15  1  0
 16 15  1  1
 16 17  1  0
 17 18  1  0
 18 19  1  1
 18 20  1  0
 20 21  1  0
 21 22  1  0
 22 23  1  6
 22 24  1  0
 24 25  1  6
 25 26  1  0
 26 27  1  0
 27 28  1  6
 27  9  1  0
 27 12  1  0
 24 13  1  0
 22 16  1  0
M  END
>  <MS_ID>  (2757) 
MS2851

>  <SMILES>  (2757) 
COC(=O)CC[C@H](C)[C@H]1CC[C@H]2[C@@H]3CC[C@@H]4C[C@H](O)CC[C@]4(C)[C@H]3CC[C@]12C

>  <Structure_dimension>  (2757) 
2D

$$$$
MS2852
     RDKit          2D

 38 42  0  0  0  0  0  0  0  0999 V2000
   -0.1390   -4.8933    0.0000 C   0  0  0  0  0  0  0  0  0  0  0  0
    0.3548   -3.4769    0.0000 C   0  0  0  0  0  0  0  0  0  0  0  0
   -0.6250   -2.3411    0.0000 C   0  0  0  0  0  0  0  0  0  0  0  0
   -2.0985   -2.6217    0.0000 C   0  0  0  0  0  0  0  0  0  0  0  0
   -3.0783   -1.4858    0.0000 C   0  0  0  0  0  0  0  0  0  0  0  0
   -2.5845   -0.0694    0.0000 O   0  0  0  0  0  0  0  0  0  0  0  0
   -4.5518   -1.7664    0.0000 N   0  0  0  0  0  0  0  0  0  0  0  0
   -5.5315   -0.6306    0.0000 C   0  0  0  0  0  0  0  0  0  0  0  0
   -7.0051   -0.9112    0.0000 C   0  0  0  0  0  0  0  0  0  0  0  0
   -7.9848    0.2247    0.0000 C   0  0  0  0  0  0  0  0  0  0  0  0
   -7.4910    1.6411    0.0000 C   0  0  0  0  0  0  0  0  0  0  0  0
   -8.4708    2.7769    0.0000 C   0  0  0  0  0  0  0  0  0  0  0  0
   -7.9770    4.1933    0.0000 O   0  0  0  0  0  0  0  0  0  0  0  0
   -9.9443    2.4963    0.0000 C   0  0  0  0  0  0  0  0  0  0  0  0
  -10.4381    1.0799    0.0000 C   0  0  0  0  0  0  0  0  0  0  0  0
  -11.9116    0.7993    0.0000 O   0  0  0  0  0  0  0  0  0  0  0  0
   -9.4583   -0.0559    0.0000 C   0  0  0  0  0  0  0  0  0  0  0  0
    1.8283   -3.1963    0.0000 C   0  0  0  0  0  0  0  0  0  0  0  0
    2.9214   -4.2235    0.0000 C   0  0  0  0  0  0  0  0  0  0  0  0
    4.2361   -3.5013    0.0000 C   0  0  0  0  0  0  0  0  0  0  0  0
    3.9555   -2.0278    0.0000 C   0  0  0  0  0  0  0  0  0  0  0  0
    4.8628   -0.8333    0.0000 C   0  0  0  0  0  0  0  0  0  0  0  0
    6.3509   -1.0218    0.0000 C   0  0  0  0  0  0  0  0  0  0  0  0
    6.9317   -2.4048    0.0000 O   0  0  0  0  0  0  0  0  0  0  0  0
    7.2582    0.1727    0.0000 C   0  0  0  0  0  0  0  0  0  0  0  0
    6.6774    1.5557    0.0000 C   0  0  0  0  0  0  0  0  0  0  0  0
    7.5847    2.7502    0.0000 C   0  0  0  0  0  0  0  0  0  0  0  0
    7.0039    4.1332    0.0000 C   0  0  0  0  0  0  0  0  0  0  0  0
    7.9112    5.3276    0.0000 O   0  0  0  0  0  0  0  0  0  0  0  0
    5.5158    4.3217    0.0000 C   0  0  0  0  0  0  0  0  0  0  0  0
    4.6085    3.1272    0.0000 C   0  0  0  0  0  0  0  0  0  0  0  0
    5.1893    1.7442    0.0000 C   0  0  0  0  0  0  0  0  0  0  0  0
    3.7012    1.9327    0.0000 C   0  0  0  0  0  0  0  0  0  0  0  0
    4.2820    0.5497    0.0000 C   0  0  0  0  0  0  0  0  0  0  0  0
    2.7939    0.7382    0.0000 C   0  0  0  0  0  0  0  0  0  0  0  0
    1.8866   -0.4563    0.0000 C   0  0  0  0  0  0  0  0  0  0  0  0
    2.4674   -1.8393    0.0000 C   0  0  0  0  0  0  0  0  0  0  0  0
    0.9678   -1.8074    0.0000 C   0  0  0  0  0  0  0  0  0  0  0  0
  2  1  1  6
  2  3  1  0
  3  4  1  0
  4  5  1  0
  5  6  2  0
  5  7  1  0
  7  8  1  0
  8  9  1  0
  9 10  1  0
 10 11  2  0
 11 12  1  0
 12 13  1  0
 12 14  2  0
 14 15  1  0
 15 16  1  0
 15 17  2  0
  2 18  1  0
 18 19  1  6
 19 20  1  0
 21 20  1  6
 21 22  1  0
 22 23  1  1
 23 24  1  6
 23 25  1  0
 26 25  1  1
 26 27  1  0
 27 28  1  0
 28 29  1  1
 28 30  1  0
 30 31  1  0
 31 32  1  0
 32 33  1  6
 32 34  1  0
 34 35  1  6
 35 36  1  0
 36 37  1  0
 37 38  1  6
 17 10  1  0
 37 18  1  0
 37 21  1  0
 34 22  1  0
 32 26  1  0
M  END
>  <MS_ID>  (2758) 
MS2852

>  <SMILES>  (2758) 
C[C@H](CCC(=O)NCCc1cc(O)cc(O)c1)[C@H]1CC[C@H]2[C@@H]3[C@@H](O)C[C@@H]4C[C@H](O)CC[C@]4(C)[C@H]3CC[C@]12C

>  <Structure_dimension>  (2758) 
2D

$$$$
MS2853
     RDKit          2D

 33 37  0  0  0  0  0  0  0  0999 V2000
   -3.4505   -3.2444    0.0000 C   0  0  0  0  0  0  0  0  0  0  0  0
   -2.4721   -2.1074    0.0000 C   0  0  0  0  0  0  0  0  0  0  0  0
   -2.9676   -0.6916    0.0000 C   0  0  0  0  0  0  0  0  0  0  0  0
   -4.4415   -0.4128    0.0000 C   0  0  0  0  0  0  0  0  0  0  0  0
   -4.9370    1.0030    0.0000 C   0  0  0  0  0  0  0  0  0  0  0  0
   -3.9586    2.1400    0.0000 O   0  0  0  0  0  0  0  0  0  0  0  0
   -6.4109    1.2817    0.0000 N   0  0  0  0  0  0  0  0  0  0  0  0
   -7.5027    0.2532    0.0000 C   0  0  0  0  0  0  0  0  0  0  0  0
   -8.8183    0.9738    0.0000 C   0  0  0  0  0  0  0  0  0  0  0  0
   -8.5395    2.4477    0.0000 N   0  0  0  0  0  0  0  0  0  0  0  0
   -7.0517    2.6380    0.0000 N   0  0  0  0  0  0  0  0  0  0  0  0
   -0.9983   -2.3862    0.0000 C   0  0  0  0  0  0  0  0  0  0  0  0
   -0.3575   -3.7424    0.0000 C   0  0  0  0  0  0  0  0  0  0  0  0
    1.1304   -3.5521    0.0000 C   0  0  0  0  0  0  0  0  0  0  0  0
    1.4092   -2.0783    0.0000 C   0  0  0  0  0  0  0  0  0  0  0  0
    2.6910   -1.2992    0.0000 C   0  0  0  0  0  0  0  0  0  0  0  0
    4.0066   -2.0198    0.0000 C   0  0  0  0  0  0  0  0  0  0  0  0
    4.0403   -3.5194    0.0000 O   0  0  0  0  0  0  0  0  0  0  0  0
    5.2884   -1.2408    0.0000 C   0  0  0  0  0  0  0  0  0  0  0  0
    5.2547    0.2589    0.0000 C   0  0  0  0  0  0  0  0  0  0  0  0
    6.5365    1.0379    0.0000 C   0  0  0  0  0  0  0  0  0  0  0  0
    6.5028    2.5375    0.0000 C   0  0  0  0  0  0  0  0  0  0  0  0
    7.7846    3.3166    0.0000 O   0  0  0  0  0  0  0  0  0  0  0  0
    5.1872    3.2581    0.0000 C   0  0  0  0  0  0  0  0  0  0  0  0
    3.9054    2.4791    0.0000 C   0  0  0  0  0  0  0  0  0  0  0  0
    3.9391    0.9794    0.0000 C   0  0  0  0  0  0  0  0  0  0  0  0
    2.6235    1.7000    0.0000 C   0  0  0  0  0  0  0  0  0  0  0  0
    2.6573    0.2004    0.0000 C   0  0  0  0  0  0  0  0  0  0  0  0
    1.3417    0.9210    0.0000 C   0  0  0  0  0  0  0  0  0  0  0  0
    0.0598    0.1420    0.0000 C   0  0  0  0  0  0  0  0  0  0  0  0
   -1.2557    0.8625    0.0000 O   0  0  0  0  0  0  0  0  0  0  0  0
    0.0936   -1.3577    0.0000 C   0  0  0  0  0  0  0  0  0  0  0  0
   -1.2901   -0.7785    0.0000 C   0  0  0  0  0  0  0  0  0  0  0  0
  2  1  1  6
  2  3  1  0
  3  4  1  0
  4  5  1  0
  5  6  2  0
  5  7  1  0
  7  8  1  0
  8  9  2  0
  9 10  1  0
 10 11  2  0
  2 12  1  0
 12 13  1  6
 13 14  1  0
 15 14  1  6
 15 16  1  0
 16 17  1  1
 17 18  1  1
 17 19  1  0
 20 19  1  1
 20 21  1  0
 21 22  1  0
 22 23  1  1
 22 24  1  0
 24 25  1  0
 25 26  1  0
 26 27  1  6
 26 28  1  0
 28 29  1  6
 29 30  1  0
 30 31  1  1
 30 32  1  0
 32 33  1  6
 11  7  1  0
 32 12  1  0
 32 15  1  0
 28 16  1  0
 26 20  1  0
M  END
>  <MS_ID>  (2759) 
MS2853

>  <SMILES>  (2759) 
C[C@H](CCC(=O)n1ccnn1)[C@H]1CC[C@H]2[C@@H]3[C@H](O)C[C@@H]4C[C@H](O)CC[C@]4(C)[C@H]3C[C@H](O)[C@]12C

>  <Structure_dimension>  (2759) 
2D

$$$$
MS2854
     RDKit          2D

 34 38  0  0  0  0  0  0  0  0999 V2000
   -2.1988   -4.3667    0.0000 C   0  0  0  0  0  0  0  0  0  0  0  0
   -1.4461   -3.0693    0.0000 C   0  0  0  0  0  0  0  0  0  0  0  0
   -2.1934   -1.7687    0.0000 C   0  0  0  0  0  0  0  0  0  0  0  0
   -3.6934   -1.7656    0.0000 C   0  0  0  0  0  0  0  0  0  0  0  0
   -4.4407   -0.4650    0.0000 C   0  0  0  0  0  0  0  0  0  0  0  0
   -3.6881    0.8325    0.0000 O   0  0  0  0  0  0  0  0  0  0  0  0
   -5.9407   -0.4619    0.0000 N   0  0  0  0  0  0  0  0  0  0  0  0
   -6.6881    0.8387    0.0000 C   0  0  0  0  0  0  0  0  0  0  0  0
   -5.9354    2.1362    0.0000 C   0  0  0  0  0  0  0  0  0  0  0  0
   -6.6827    3.4368    0.0000 C   0  0  0  0  0  0  0  0  0  0  0  0
   -8.1827    3.4399    0.0000 N   0  0  0  0  0  0  0  0  0  0  0  0
   -8.9354    2.1424    0.0000 C   0  0  0  0  0  0  0  0  0  0  0  0
   -8.1880    0.8418    0.0000 C   0  0  0  0  0  0  0  0  0  0  0  0
    0.0539   -3.0724    0.0000 C   0  0  0  0  0  0  0  0  0  0  0  0
    0.9330   -4.2877    0.0000 C   0  0  0  0  0  0  0  0  0  0  0  0
    2.3606   -3.8271    0.0000 C   0  0  0  0  0  0  0  0  0  0  0  0
    2.3637   -2.3272    0.0000 C   0  0  0  0  0  0  0  0  0  0  0  0
    3.4805   -1.3258    0.0000 C   0  0  0  0  0  0  0  0  0  0  0  0
    4.9061   -1.7922    0.0000 C   0  0  0  0  0  0  0  0  0  0  0  0
    6.0229   -0.7909    0.0000 C   0  0  0  0  0  0  0  0  0  0  0  0
    5.7141    0.6770    0.0000 C   0  0  0  0  0  0  0  0  0  0  0  0
    6.8308    1.6784    0.0000 C   0  0  0  0  0  0  0  0  0  0  0  0
    6.5220    3.1462    0.0000 C   0  0  0  0  0  0  0  0  0  0  0  0
    7.6388    4.1476    0.0000 O   0  0  0  0  0  0  0  0  0  0  0  0
    5.0964    3.6127    0.0000 C   0  0  0  0  0  0  0  0  0  0  0  0
    3.9796    2.6113    0.0000 C   0  0  0  0  0  0  0  0  0  0  0  0
    4.2884    1.1435    0.0000 C   0  0  0  0  0  0  0  0  0  0  0  0
    2.8628    1.6100    0.0000 C   0  0  0  0  0  0  0  0  0  0  0  0
    3.1716    0.1421    0.0000 C   0  0  0  0  0  0  0  0  0  0  0  0
    1.7460    0.6086    0.0000 C   0  0  0  0  0  0  0  0  0  0  0  0
    0.6292   -0.3928    0.0000 C   0  0  0  0  0  0  0  0  0  0  0  0
   -0.7964    0.0737    0.0000 O   0  0  0  0  0  0  0  0  0  0  0  0
    0.9380   -1.8607    0.0000 C   0  0  0  0  0  0  0  0  0  0  0  0
   -0.5285   -1.5458    0.0000 C   0  0  0  0  0  0  0  0  0  0  0  0
  2  1  1  6
  2  3  1  0
  3  4  1  0
  4  5  1  0
  5  6  2  0
  5  7  1  0
  7  8  1  0
  8  9  2  0
  9 10  1  0
 10 11  2  0
 11 12  1  0
 12 13  2  0
  2 14  1  0
 14 15  1  6
 15 16  1  0
 17 16  1  6
 17 18  1  0
 18 19  1  1
 19 20  1  0
 21 20  1  1
 21 22  1  0
 22 23  1  0
 23 24  1  1
 23 25  1  0
 25 26  1  0
 26 27  1  0
 27 28  1  6
 27 29  1  0
 29 30  1  6
 30 31  1  0
 31 32  1  1
 31 33  1  0
 33 34  1  6
 13  8  1  0
 33 14  1  0
 33 17  1  0
 29 18  1  0
 27 21  1  0
M  END
>  <MS_ID>  (2760) 
MS2854

>  <SMILES>  (2760) 
C[C@H](CCC(=O)Nc1ccncc1)[C@H]1CC[C@H]2[C@@H]3CC[C@@H]4C[C@H](O)CC[C@]4(C)[C@H]3C[C@H](O)[C@]12C

>  <Structure_dimension>  (2760) 
2D

$$$$
MS2855
     RDKit          2D

 34 38  0  0  0  0  0  0  0  0999 V2000
   -2.1988   -4.3667    0.0000 C   0  0  0  0  0  0  0  0  0  0  0  0
   -1.4461   -3.0693    0.0000 C   0  0  0  0  0  0  0  0  0  0  0  0
   -2.1934   -1.7687    0.0000 C   0  0  0  0  0  0  0  0  0  0  0  0
   -3.6934   -1.7656    0.0000 C   0  0  0  0  0  0  0  0  0  0  0  0
   -4.4407   -0.4650    0.0000 C   0  0  0  0  0  0  0  0  0  0  0  0
   -3.6881    0.8325    0.0000 O   0  0  0  0  0  0  0  0  0  0  0  0
   -5.9407   -0.4619    0.0000 C   0  0  0  0  0  0  0  0  0  0  0  0
   -6.6881    0.8387    0.0000 C   0  0  0  0  0  0  0  0  0  0  0  0
   -5.9354    2.1362    0.0000 C   0  0  0  0  0  0  0  0  0  0  0  0
   -6.6827    3.4368    0.0000 C   0  0  0  0  0  0  0  0  0  0  0  0
   -8.1827    3.4399    0.0000 C   0  0  0  0  0  0  0  0  0  0  0  0
   -8.9354    2.1424    0.0000 C   0  0  0  0  0  0  0  0  0  0  0  0
   -8.1880    0.8418    0.0000 C   0  0  0  0  0  0  0  0  0  0  0  0
    0.0539   -3.0724    0.0000 C   0  0  0  0  0  0  0  0  0  0  0  0
    0.9330   -4.2877    0.0000 C   0  0  0  0  0  0  0  0  0  0  0  0
    2.3606   -3.8271    0.0000 C   0  0  0  0  0  0  0  0  0  0  0  0
    2.3637   -2.3272    0.0000 C   0  0  0  0  0  0  0  0  0  0  0  0
    3.4805   -1.3258    0.0000 C   0  0  0  0  0  0  0  0  0  0  0  0
    4.9061   -1.7922    0.0000 C   0  0  0  0  0  0  0  0  0  0  0  0
    6.0229   -0.7909    0.0000 C   0  0  0  0  0  0  0  0  0  0  0  0
    5.7141    0.6770    0.0000 C   0  0  0  0  0  0  0  0  0  0  0  0
    6.8308    1.6784    0.0000 C   0  0  0  0  0  0  0  0  0  0  0  0
    6.5220    3.1462    0.0000 C   0  0  0  0  0  0  0  0  0  0  0  0
    7.6388    4.1476    0.0000 O   0  0  0  0  0  0  0  0  0  0  0  0
    5.0964    3.6127    0.0000 C   0  0  0  0  0  0  0  0  0  0  0  0
    3.9796    2.6113    0.0000 C   0  0  0  0  0  0  0  0  0  0  0  0
    4.2884    1.1435    0.0000 C   0  0  0  0  0  0  0  0  0  0  0  0
    2.8628    1.6100    0.0000 C   0  0  0  0  0  0  0  0  0  0  0  0
    3.1716    0.1421    0.0000 C   0  0  0  0  0  0  0  0  0  0  0  0
    1.7460    0.6086    0.0000 C   0  0  0  0  0  0  0  0  0  0  0  0
    0.6292   -0.3928    0.0000 C   0  0  0  0  0  0  0  0  0  0  0  0
   -0.7964    0.0737    0.0000 O   0  0  0  0  0  0  0  0  0  0  0  0
    0.9380   -1.8607    0.0000 C   0  0  0  0  0  0  0  0  0  0  0  0
   -0.5285   -1.5458    0.0000 C   0  0  0  0  0  0  0  0  0  0  0  0
  2  1  1  6
  2  3  1  0
  3  4  1  0
  4  5  1  0
  5  6  2  0
  5  7  1  0
  7  8  1  0
  8  9  2  0
  9 10  1  0
 10 11  2  0
 11 12  1  0
 12 13  2  0
  2 14  1  0
 14 15  1  6
 15 16  1  0
 17 16  1  6
 17 18  1  0
 18 19  1  1
 19 20  1  0
 21 20  1  1
 21 22  1  0
 22 23  1  0
 23 24  1  1
 23 25  1  0
 25 26  1  0
 26 27  1  0
 27 28  1  6
 27 29  1  0
 29 30  1  6
 30 31  1  0
 31 32  1  1
 31 33  1  0
 33 34  1  6
 13  8  1  0
 33 14  1  0
 33 17  1  0
 29 18  1  0
 27 21  1  0
M  END
>  <MS_ID>  (2761) 
MS2855

>  <SMILES>  (2761) 
C[C@H](CCC(=O)Cc1ccccc1)[C@H]1CC[C@H]2[C@@H]3CC[C@@H]4C[C@H](O)CC[C@]4(C)[C@H]3C[C@H](O)[C@]12C

>  <Structure_dimension>  (2761) 
2D

$$$$
MS2856
     RDKit          2D

 35 38  0  0  0  0  0  0  0  0999 V2000
   -3.2335   -3.0780    0.0000 C   0  0  0  0  0  0  0  0  0  0  0  0
   -2.2456   -1.9493    0.0000 C   0  0  0  0  0  0  0  0  0  0  0  0
   -2.7292   -0.5294    0.0000 C   0  0  0  0  0  0  0  0  0  0  0  0
   -4.2007   -0.2382    0.0000 C   0  0  0  0  0  0  0  0  0  0  0  0
   -4.6843    1.1817    0.0000 C   0  0  0  0  0  0  0  0  0  0  0  0
   -3.6965    2.3104    0.0000 O   0  0  0  0  0  0  0  0  0  0  0  0
   -6.1558    1.4728    0.0000 C   0  0  0  0  0  0  0  0  0  0  0  0
   -5.8647    2.9443    0.0000 C   0  0  0  0  0  0  0  0  0  0  0  0
   -6.4469    0.0013    0.0000 C   0  0  0  0  0  0  0  0  0  0  0  0
   -7.6273    1.7639    0.0000 C   0  0  0  0  0  0  0  0  0  0  0  0
   -8.6152    0.6351    0.0000 C   0  0  0  0  0  0  0  0  0  0  0  0
   -8.1315   -0.7848    0.0000 O   0  0  0  0  0  0  0  0  0  0  0  0
  -10.0866    0.9262    0.0000 O   0  0  0  0  0  0  0  0  0  0  0  0
   -0.7741   -2.2404    0.0000 C   0  0  0  0  0  0  0  0  0  0  0  0
   -0.1448   -3.6019    0.0000 C   0  0  0  0  0  0  0  0  0  0  0  0
    1.3447   -3.4241    0.0000 C   0  0  0  0  0  0  0  0  0  0  0  0
    1.6358   -1.9526    0.0000 C   0  0  0  0  0  0  0  0  0  0  0  0
    2.9241   -1.1844    0.0000 C   0  0  0  0  0  0  0  0  0  0  0  0
    4.2336   -1.9159    0.0000 C   0  0  0  0  0  0  0  0  0  0  0  0
    4.2548   -3.4158    0.0000 O   0  0  0  0  0  0  0  0  0  0  0  0
    5.5219   -1.1477    0.0000 C   0  0  0  0  0  0  0  0  0  0  0  0
    6.8314   -1.8793    0.0000 O   0  0  0  0  0  0  0  0  0  0  0  0
    5.5007    0.3522    0.0000 C   0  0  0  0  0  0  0  0  0  0  0  0
    6.7891    1.1204    0.0000 C   0  0  0  0  0  0  0  0  0  0  0  0
    6.7679    2.6203    0.0000 C   0  0  0  0  0  0  0  0  0  0  0  0
    8.0562    3.3886    0.0000 O   0  0  0  0  0  0  0  0  0  0  0  0
    5.4584    3.3519    0.0000 C   0  0  0  0  0  0  0  0  0  0  0  0
    4.1701    2.5836    0.0000 C   0  0  0  0  0  0  0  0  0  0  0  0
    4.1912    1.0838    0.0000 C   0  0  0  0  0  0  0  0  0  0  0  0
    2.8817    1.8153    0.0000 C   0  0  0  0  0  0  0  0  0  0  0  0
    2.9029    0.3155    0.0000 C   0  0  0  0  0  0  0  0  0  0  0  0
    1.5934    1.0471    0.0000 C   0  0  0  0  0  0  0  0  0  0  0  0
    0.3051    0.2788    0.0000 C   0  0  0  0  0  0  0  0  0  0  0  0
    0.3263   -1.2210    0.0000 C   0  0  0  0  0  0  0  0  0  0  0  0
   -1.0525   -0.6303    0.0000 C   0  0  0  0  0  0  0  0  0  0  0  0
  2  1  1  6
  2  3  1  0
  3  4  1  0
  4  5  1  0
  5  6  2  0
  5  7  1  0
  7  8  1  0
  7  9  1  0
  7 10  1  0
 10 11  1  0
 11 12  2  0
 11 13  1  0
  2 14  1  0
 14 15  1  6
 15 16  1  0
 17 16  1  6
 17 18  1  0
 18 19  1  1
 19 20  1  1
 19 21  1  0
 21 22  1  1
 21 23  1  0
 23 24  1  1
 24 25  1  0
 25 26  1  1
 25 27  1  0
 27 28  1  0
 28 29  1  0
 29 30  1  6
 29 31  1  0
 31 32  1  6
 32 33  1  0
 33 34  1  0
 34 35  1  6
 34 14  1  0
 34 17  1  0
 31 18  1  0
 29 23  1  0
M  END
>  <MS_ID>  (2762) 
MS2856

>  <SMILES>  (2762) 
C[C@H](CCC(=O)C(C)(C)CC(=O)O)[C@H]1CC[C@H]2[C@@H]3[C@H](O)[C@H](O)[C@@H]4C[C@H](O)CC[C@]4(C)[C@H]3CC[C@]12C

>  <Structure_dimension>  (2762) 
2D

$$$$
MS2857
     RDKit          2D

 33 36  0  0  0  0  0  0  0  0999 V2000
   -2.9449   -3.6299    0.0000 C   0  0  0  0  0  0  0  0  0  0  0  0
   -2.0571   -2.4209    0.0000 C   0  0  0  0  0  0  0  0  0  0  0  0
   -2.6602   -1.0475    0.0000 C   0  0  0  0  0  0  0  0  0  0  0  0
   -4.1512   -0.8831    0.0000 C   0  0  0  0  0  0  0  0  0  0  0  0
   -4.7543    0.4903    0.0000 C   0  0  0  0  0  0  0  0  0  0  0  0
   -3.8665    1.6993    0.0000 O   0  0  0  0  0  0  0  0  0  0  0  0
   -6.2453    0.6546    0.0000 C   0  0  0  0  0  0  0  0  0  0  0  0
   -7.1331   -0.5544    0.0000 O   0  0  0  0  0  0  0  0  0  0  0  0
   -6.8484    2.0280    0.0000 C   0  0  0  0  0  0  0  0  0  0  0  0
   -8.3394    2.1924    0.0000 C   0  0  0  0  0  0  0  0  0  0  0  0
   -9.2272    0.9834    0.0000 O   0  0  0  0  0  0  0  0  0  0  0  0
   -8.9425    3.5658    0.0000 O   0  0  0  0  0  0  0  0  0  0  0  0
   -0.5661   -2.5852    0.0000 C   0  0  0  0  0  0  0  0  0  0  0  0
    0.1773   -3.8881    0.0000 C   0  0  0  0  0  0  0  0  0  0  0  0
    1.6461   -3.5836    0.0000 C   0  0  0  0  0  0  0  0  0  0  0  0
    1.8105   -2.0927    0.0000 C   0  0  0  0  0  0  0  0  0  0  0  0
    3.0284   -1.2172    0.0000 C   0  0  0  0  0  0  0  0  0  0  0  0
    4.3956   -1.8342    0.0000 C   0  0  0  0  0  0  0  0  0  0  0  0
    4.5449   -3.3268    0.0000 O   0  0  0  0  0  0  0  0  0  0  0  0
    5.6136   -0.9587    0.0000 C   0  0  0  0  0  0  0  0  0  0  0  0
    5.4644    0.5339    0.0000 C   0  0  0  0  0  0  0  0  0  0  0  0
    6.6824    1.4094    0.0000 C   0  0  0  0  0  0  0  0  0  0  0  0
    6.5332    2.9019    0.0000 C   0  0  0  0  0  0  0  0  0  0  0  0
    7.7511    3.7774    0.0000 O   0  0  0  0  0  0  0  0  0  0  0  0
    5.1660    3.5190    0.0000 C   0  0  0  0  0  0  0  0  0  0  0  0
    3.9480    2.6435    0.0000 C   0  0  0  0  0  0  0  0  0  0  0  0
    4.0972    1.1509    0.0000 C   0  0  0  0  0  0  0  0  0  0  0  0
    2.7300    1.7680    0.0000 C   0  0  0  0  0  0  0  0  0  0  0  0
    2.8792    0.2754    0.0000 C   0  0  0  0  0  0  0  0  0  0  0  0
    1.5120    0.8925    0.0000 C   0  0  0  0  0  0  0  0  0  0  0  0
    0.2940    0.0169    0.0000 C   0  0  0  0  0  0  0  0  0  0  0  0
    0.4432   -1.4756    0.0000 C   0  0  0  0  0  0  0  0  0  0  0  0
   -0.9810   -1.0049    0.0000 C   0  0  0  0  0  0  0  0  0  0  0  0
  2  1  1  6
  2  3  1  0
  3  4  1  0
  4  5  1  0
  5  6  2  0
  5  7  1  0
  7  8  1  1
  7  9  1  0
  9 10  1  0
 10 11  2  0
 10 12  1  0
  2 13  1  0
 13 14  1  6
 14 15  1  0
 16 15  1  6
 16 17  1  0
 17 18  1  1
 18 19  1  1
 18 20  1  0
 21 20  1  1
 21 22  1  0
 22 23  1  0
 23 24  1  1
 23 25  1  0
 25 26  1  0
 26 27  1  0
 27 28  1  6
 27 29  1  0
 29 30  1  6
 30 31  1  0
 31 32  1  0
 32 33  1  6
 32 13  1  0
 32 16  1  0
 29 17  1  0
 27 21  1  0
M  END
>  <MS_ID>  (2763) 
MS2857

>  <SMILES>  (2763) 
C[C@H](CCC(=O)[C@@H](O)CC(=O)O)[C@H]1CC[C@H]2[C@@H]3[C@H](O)C[C@@H]4C[C@H](O)CC[C@]4(C)[C@H]3CC[C@]12C

>  <Structure_dimension>  (2763) 
2D

$$$$
MS2858
     RDKit          2D

 32 35  0  0  0  0  0  0  0  0999 V2000
   -3.6687   -3.7654    0.0000 C   0  0  0  0  0  0  0  0  0  0  0  0
   -2.7694   -2.5649    0.0000 C   0  0  0  0  0  0  0  0  0  0  0  0
   -3.3594   -1.1858    0.0000 C   0  0  0  0  0  0  0  0  0  0  0  0
   -4.8488   -1.0072    0.0000 C   0  0  0  0  0  0  0  0  0  0  0  0
   -5.4388    0.3718    0.0000 C   0  0  0  0  0  0  0  0  0  0  0  0
   -6.9281    0.5504    0.0000 O   0  0  0  0  0  0  0  0  0  0  0  0
   -4.5395    1.5724    0.0000 O   0  0  0  0  0  0  0  0  0  0  0  0
   -5.1295    2.9514    0.0000 S   0  0  0  0  0  0  0  0  0  0  0  0
   -6.5086    2.3614    0.0000 O   0  0  0  0  0  0  0  0  0  0  0  0
   -3.7505    3.5415    0.0000 O   0  0  0  0  0  0  0  0  0  0  0  0
   -5.7196    4.3305    0.0000 O   0  0  0  0  0  0  0  0  0  0  0  0
   -1.2801   -2.7434    0.0000 C   0  0  0  0  0  0  0  0  0  0  0  0
   -0.5491   -4.0533    0.0000 C   0  0  0  0  0  0  0  0  0  0  0  0
    0.9225   -3.7629    0.0000 C   0  0  0  0  0  0  0  0  0  0  0  0
    1.1011   -2.2735    0.0000 C   0  0  0  0  0  0  0  0  0  0  0  0
    2.3273   -1.4097    0.0000 C   0  0  0  0  0  0  0  0  0  0  0  0
    3.6886   -2.0397    0.0000 C   0  0  0  0  0  0  0  0  0  0  0  0
    3.8236   -3.5336    0.0000 O   0  0  0  0  0  0  0  0  0  0  0  0
    4.9149   -1.1759    0.0000 C   0  0  0  0  0  0  0  0  0  0  0  0
    4.7799    0.3181    0.0000 C   0  0  0  0  0  0  0  0  0  0  0  0
    6.0061    1.1819    0.0000 C   0  0  0  0  0  0  0  0  0  0  0  0
    5.8711    2.6758    0.0000 C   0  0  0  0  0  0  0  0  0  0  0  0
    7.0974    3.5397    0.0000 O   0  0  0  0  0  0  0  0  0  0  0  0
    4.5099    3.3059    0.0000 C   0  0  0  0  0  0  0  0  0  0  0  0
    3.2836    2.4420    0.0000 C   0  0  0  0  0  0  0  0  0  0  0  0
    3.4186    0.9481    0.0000 C   0  0  0  0  0  0  0  0  0  0  0  0
    2.0573    1.5782    0.0000 C   0  0  0  0  0  0  0  0  0  0  0  0
    2.1923    0.0842    0.0000 C   0  0  0  0  0  0  0  0  0  0  0  0
    0.8311    0.7143    0.0000 C   0  0  0  0  0  0  0  0  0  0  0  0
   -0.3952   -0.1496    0.0000 C   0  0  0  0  0  0  0  0  0  0  0  0
   -0.2602   -1.6435    0.0000 C   0  0  0  0  0  0  0  0  0  0  0  0
   -1.6799   -1.1592    0.0000 C   0  0  0  0  0  0  0  0  0  0  0  0
  2  1  1  6
  2  3  1  0
  3  4  1  0
  4  5  1  0
  5  6  2  0
  5  7  1  0
  7  8  1  0
  8  9  2  0
  8 10  2  0
  8 11  1  0
  2 12  1  0
 12 13  1  6
 13 14  1  0
 15 14  1  6
 15 16  1  0
 16 17  1  1
 17 18  1  6
 17 19  1  0
 20 19  1  1
 20 21  1  0
 21 22  1  0
 22 23  2  0
 22 24  1  0
 24 25  1  0
 25 26  1  0
 26 27  1  6
 26 28  1  0
 28 29  1  6
 29 30  1  0
 30 31  1  0
 31 32  1  6
 31 12  1  0
 31 15  1  0
 28 16  1  0
 26 20  1  0
M  END
>  <MS_ID>  (2764) 
MS2858

>  <SMILES>  (2764) 
C[C@H](CCC(=O)OS(=O)(=O)O)[C@H]1CC[C@H]2[C@@H]3[C@@H](O)C[C@@H]4CC(=O)CC[C@]4(C)[C@H]3CC[C@]12C

>  <Structure_dimension>  (2764) 
2D

$$$$
MS2859
     RDKit          2D

 31 34  0  0  0  0  0  0  0  0999 V2000
   -3.5119   -3.5779    0.0000 C   0  0  0  0  0  0  0  0  0  0  0  0
   -2.6109   -2.3787    0.0000 C   0  0  0  0  0  0  0  0  0  0  0  0
   -3.1991   -0.9988    0.0000 C   0  0  0  0  0  0  0  0  0  0  0  0
   -4.6881   -0.8181    0.0000 C   0  0  0  0  0  0  0  0  0  0  0  0
   -5.2762    0.5618    0.0000 C   0  0  0  0  0  0  0  0  0  0  0  0
   -4.3753    1.7610    0.0000 O   0  0  0  0  0  0  0  0  0  0  0  0
   -6.7653    0.7424    0.0000 O   0  0  0  0  0  0  0  0  0  0  0  0
   -7.3534    2.1223    0.0000 C   0  0  0  0  0  0  0  0  0  0  0  0
   -8.8425    2.3029    0.0000 C   0  0  0  0  0  0  0  0  0  0  0  0
   -9.4306    3.6828    0.0000 S   0  0  0  0  0  0  0  0  0  0  0  0
   -1.1219   -2.5593    0.0000 C   0  0  0  0  0  0  0  0  0  0  0  0
   -0.3927   -3.8702    0.0000 C   0  0  0  0  0  0  0  0  0  0  0  0
    1.0793   -3.5818    0.0000 C   0  0  0  0  0  0  0  0  0  0  0  0
    1.2599   -2.0927    0.0000 C   0  0  0  0  0  0  0  0  0  0  0  0
    2.4874   -1.2306    0.0000 C   0  0  0  0  0  0  0  0  0  0  0  0
    3.8478   -1.8625    0.0000 C   0  0  0  0  0  0  0  0  0  0  0  0
    3.9807   -3.3566    0.0000 O   0  0  0  0  0  0  0  0  0  0  0  0
    5.0753   -1.0003    0.0000 C   0  0  0  0  0  0  0  0  0  0  0  0
    4.9423    0.4938    0.0000 C   0  0  0  0  0  0  0  0  0  0  0  0
    6.1698    1.3559    0.0000 C   0  0  0  0  0  0  0  0  0  0  0  0
    6.0369    2.8500    0.0000 C   0  0  0  0  0  0  0  0  0  0  0  0
    7.2644    3.7122    0.0000 O   0  0  0  0  0  0  0  0  0  0  0  0
    4.6765    3.4820    0.0000 C   0  0  0  0  0  0  0  0  0  0  0  0
    3.4490    2.6198    0.0000 C   0  0  0  0  0  0  0  0  0  0  0  0
    3.5820    1.1257    0.0000 C   0  0  0  0  0  0  0  0  0  0  0  0
    2.2216    1.7576    0.0000 C   0  0  0  0  0  0  0  0  0  0  0  0
    2.3545    0.2635    0.0000 C   0  0  0  0  0  0  0  0  0  0  0  0
    0.9941    0.8955    0.0000 C   0  0  0  0  0  0  0  0  0  0  0  0
   -0.2334    0.0333    0.0000 C   0  0  0  0  0  0  0  0  0  0  0  0
   -0.1005   -1.4608    0.0000 C   0  0  0  0  0  0  0  0  0  0  0  0
   -1.5195   -0.9745    0.0000 C   0  0  0  0  0  0  0  0  0  0  0  0
  2  1  1  6
  2  3  1  0
  3  4  1  0
  4  5  1  0
  5  6  2  0
  5  7  1  0
  7  8  1  0
  8  9  1  0
  9 10  1  0
  2 11  1  0
 11 12  1  6
 12 13  1  0
 14 13  1  6
 14 15  1  0
 15 16  1  1
 16 17  1  1
 16 18  1  0
 19 18  1  1
 19 20  1  0
 20 21  1  0
 21 22  1  1
 21 23  1  0
 23 24  1  0
 24 25  1  0
 25 26  1  6
 25 27  1  0
 27 28  1  6
 28 29  1  0
 29 30  1  0
 30 31  1  6
 30 11  1  0
 30 14  1  0
 27 15  1  0
 25 19  1  0
M  END
>  <MS_ID>  (2765) 
MS2859

>  <SMILES>  (2765) 
C[C@H](CCC(=O)OCCS)[C@H]1CC[C@H]2[C@@H]3[C@H](O)C[C@@H]4C[C@H](O)CC[C@]4(C)[C@H]3CC[C@]12C

>  <Structure_dimension>  (2765) 
2D

$$$$
MS2860
     RDKit          2D

 28 31  0  0  0  0  0  0  0  0999 V2000
   -4.7819   -2.5298    0.0000 C   0  0  0  0  0  0  0  0  0  0  0  0
   -3.6391   -1.5583    0.0000 C   0  0  0  0  0  0  0  0  0  0  0  0
   -3.9090   -0.0827    0.0000 C   0  0  0  0  0  0  0  0  0  0  0  0
   -5.3218    0.4213    0.0000 C   0  0  0  0  0  0  0  0  0  0  0  0
   -5.5917    1.8968    0.0000 C   0  0  0  0  0  0  0  0  0  0  0  0
   -7.0045    2.4008    0.0000 O   0  0  0  0  0  0  0  0  0  0  0  0
   -4.4488    2.8683    0.0000 O   0  0  0  0  0  0  0  0  0  0  0  0
   -4.7187    4.3438    0.0000 O   0  0  0  0  0  0  0  0  0  0  0  0
   -2.2263   -2.0623    0.0000 C   0  0  0  0  0  0  0  0  0  0  0  0
   -1.8036   -3.5015    0.0000 C   0  0  0  0  0  0  0  0  0  0  0  0
   -0.3042   -3.5443    0.0000 C   0  0  0  0  0  0  0  0  0  0  0  0
    0.1998   -2.1315    0.0000 C   0  0  0  0  0  0  0  0  0  0  0  0
    1.5870   -1.5607    0.0000 C   0  0  0  0  0  0  0  0  0  0  0  0
    2.7749   -2.4766    0.0000 C   0  0  0  0  0  0  0  0  0  0  0  0
    4.1620   -1.9058    0.0000 C   0  0  0  0  0  0  0  0  0  0  0  0
    4.3613   -0.4191    0.0000 C   0  0  0  0  0  0  0  0  0  0  0  0
    5.7484    0.1517    0.0000 C   0  0  0  0  0  0  0  0  0  0  0  0
    5.9477    1.6384    0.0000 C   0  0  0  0  0  0  0  0  0  0  0  0
    7.3348    2.2092    0.0000 O   0  0  0  0  0  0  0  0  0  0  0  0
    4.7598    2.5543    0.0000 C   0  0  0  0  0  0  0  0  0  0  0  0
    3.3726    1.9835    0.0000 C   0  0  0  0  0  0  0  0  0  0  0  0
    3.1734    0.4968    0.0000 C   0  0  0  0  0  0  0  0  0  0  0  0
    1.9855    1.4127    0.0000 C   0  0  0  0  0  0  0  0  0  0  0  0
    1.7862   -0.0740    0.0000 C   0  0  0  0  0  0  0  0  0  0  0  0
    0.5983    0.8419    0.0000 C   0  0  0  0  0  0  0  0  0  0  0  0
   -0.7888    0.2712    0.0000 C   0  0  0  0  0  0  0  0  0  0  0  0
   -0.9881   -1.2155    0.0000 C   0  0  0  0  0  0  0  0  0  0  0  0
   -2.2652   -0.4288    0.0000 C   0  0  0  0  0  0  0  0  0  0  0  0
  2  1  1  6
  2  3  1  0
  3  4  1  0
  4  5  1  0
  5  6  2  0
  5  7  1  0
  7  8  1  0
  2  9  1  0
  9 10  1  6
 10 11  1  0
 12 11  1  6
 12 13  1  0
 13 14  1  1
 14 15  1  0
 16 15  1  1
 16 17  1  0
 17 18  1  0
 18 19  2  0
 18 20  1  0
 20 21  1  0
 21 22  1  0
 22 23  1  6
 22 24  1  0
 24 25  1  6
 25 26  1  0
 26 27  1  0
 27 28  1  6
 27  9  1  0
 27 12  1  0
 24 13  1  0
 22 16  1  0
M  END
>  <MS_ID>  (2766) 
MS2860

>  <SMILES>  (2766) 
C[C@H](CCC(=O)OO)[C@H]1CC[C@H]2[C@@H]3CC[C@@H]4CC(=O)CC[C@]4(C)[C@H]3CC[C@]12C

>  <Structure_dimension>  (2766) 
2D

$$$$
MS2861
     RDKit          2D

 34 37  0  0  0  0  0  0  0  0999 V2000
   -2.5731   -3.9443    0.0000 C   0  0  0  0  0  0  0  0  0  0  0  0
   -1.7632   -2.6818    0.0000 C   0  0  0  0  0  0  0  0  0  0  0  0
   -2.4515   -1.3491    0.0000 C   0  0  0  0  0  0  0  0  0  0  0  0
   -3.9499   -1.2789    0.0000 C   0  0  0  0  0  0  0  0  0  0  0  0
   -4.6383    0.0539    0.0000 C   0  0  0  0  0  0  0  0  0  0  0  0
   -3.8283    1.3164    0.0000 O   0  0  0  0  0  0  0  0  0  0  0  0
   -6.1366    0.1241    0.0000 O   0  0  0  0  0  0  0  0  0  0  0  0
   -6.8250    1.4568    0.0000 C   0  0  0  0  0  0  0  0  0  0  0  0
   -8.3233    1.5270    0.0000 C   0  0  0  0  0  0  0  0  0  0  0  0
   -9.1333    0.2645    0.0000 O   0  0  0  0  0  0  0  0  0  0  0  0
   -9.0117    2.8597    0.0000 C   0  0  0  0  0  0  0  0  0  0  0  0
  -10.5101    2.9299    0.0000 O   0  0  0  0  0  0  0  0  0  0  0  0
   -0.2648   -2.7520    0.0000 C   0  0  0  0  0  0  0  0  0  0  0  0
    0.5591   -4.0055    0.0000 C   0  0  0  0  0  0  0  0  0  0  0  0
    2.0058   -3.6092    0.0000 C   0  0  0  0  0  0  0  0  0  0  0  0
    2.0760   -2.1109    0.0000 C   0  0  0  0  0  0  0  0  0  0  0  0
    3.2365   -1.1605    0.0000 C   0  0  0  0  0  0  0  0  0  0  0  0
    4.6398   -1.6902    0.0000 C   0  0  0  0  0  0  0  0  0  0  0  0
    4.8827   -3.1705    0.0000 O   0  0  0  0  0  0  0  0  0  0  0  0
    5.8003   -0.7398    0.0000 C   0  0  0  0  0  0  0  0  0  0  0  0
    5.5575    0.7404    0.0000 C   0  0  0  0  0  0  0  0  0  0  0  0
    6.7179    1.6908    0.0000 C   0  0  0  0  0  0  0  0  0  0  0  0
    6.4751    3.1710    0.0000 C   0  0  0  0  0  0  0  0  0  0  0  0
    7.6356    4.1214    0.0000 O   0  0  0  0  0  0  0  0  0  0  0  0
    5.0718    3.7008    0.0000 C   0  0  0  0  0  0  0  0  0  0  0  0
    3.9113    2.7504    0.0000 C   0  0  0  0  0  0  0  0  0  0  0  0
    4.1541    1.2702    0.0000 C   0  0  0  0  0  0  0  0  0  0  0  0
    2.7508    1.8000    0.0000 C   0  0  0  0  0  0  0  0  0  0  0  0
    2.9937    0.3198    0.0000 C   0  0  0  0  0  0  0  0  0  0  0  0
    1.5903    0.8496    0.0000 C   0  0  0  0  0  0  0  0  0  0  0  0
    0.4299   -0.1009    0.0000 C   0  0  0  0  0  0  0  0  0  0  0  0
   -0.9735    0.4289    0.0000 O   0  0  0  0  0  0  0  0  0  0  0  0
    0.6727   -1.5811    0.0000 C   0  0  0  0  0  0  0  0  0  0  0  0
   -0.7783   -1.2009    0.0000 C   0  0  0  0  0  0  0  0  0  0  0  0
  2  1  1  6
  2  3  1  0
  3  4  1  0
  4  5  1  0
  5  6  2  0
  5  7  1  0
  7  8  1  0
  8  9  1  0
  9 10  2  0
  9 11  1  0
 11 12  1  0
  2 13  1  0
 13 14  1  6
 14 15  1  0
 16 15  1  6
 16 17  1  0
 17 18  1  1
 18 19  1  1
 18 20  1  0
 21 20  1  1
 21 22  1  0
 22 23  1  0
 23 24  1  1
 23 25  1  0
 25 26  1  0
 26 27  1  0
 27 28  1  6
 27 29  1  0
 29 30  1  6
 30 31  1  0
 31 32  1  1
 31 33  1  0
 33 34  1  6
 33 13  1  0
 33 16  1  0
 29 17  1  0
 27 21  1  0
M  END
>  <MS_ID>  (2767) 
MS2861

>  <SMILES>  (2767) 
C[C@H](CCC(=O)OCC(=O)CO)[C@H]1CC[C@H]2[C@@H]3[C@H](O)C[C@@H]4C[C@H](O)CC[C@]4(C)[C@H]3C[C@H](O)[C@]12C

>  <Structure_dimension>  (2767) 
2D

$$$$
MS2862
     RDKit          2D

 33 37  0  0  0  0  0  0  0  0999 V2000
   -3.0300   -3.4798    0.0000 C   0  0  0  0  0  0  0  0  0  0  0  0
   -2.1092   -2.2958    0.0000 C   0  0  0  0  0  0  0  0  0  0  0  0
   -2.6742   -0.9062    0.0000 C   0  0  0  0  0  0  0  0  0  0  0  0
   -4.1600   -0.7008    0.0000 C   0  0  0  0  0  0  0  0  0  0  0  0
   -4.7250    0.6887    0.0000 C   0  0  0  0  0  0  0  0  0  0  0  0
   -3.8041    1.8728    0.0000 O   0  0  0  0  0  0  0  0  0  0  0  0
   -6.2109    0.8942    0.0000 C   0  0  0  0  0  0  0  0  0  0  0  0
   -7.2505   -0.1871    0.0000 C   0  0  0  0  0  0  0  0  0  0  0  0
   -8.6001    0.4675    0.0000 N   0  0  0  0  0  0  0  0  0  0  0  0
   -8.3946    1.9533    0.0000 N   0  0  0  0  0  0  0  0  0  0  0  0
   -9.4760    2.9929    0.0000 C   0  0  0  0  0  0  0  0  0  0  0  0
   -6.9180    2.2171    0.0000 C   0  0  0  0  0  0  0  0  0  0  0  0
   -0.6233   -2.5012    0.0000 C   0  0  0  0  0  0  0  0  0  0  0  0
    0.0838   -3.8241    0.0000 C   0  0  0  0  0  0  0  0  0  0  0  0
    1.5605   -3.5603    0.0000 C   0  0  0  0  0  0  0  0  0  0  0  0
    1.7659   -2.0745    0.0000 C   0  0  0  0  0  0  0  0  0  0  0  0
    3.0076   -1.2329    0.0000 C   0  0  0  0  0  0  0  0  0  0  0  0
    4.3573   -1.8875    0.0000 C   0  0  0  0  0  0  0  0  0  0  0  0
    4.4652   -3.3836    0.0000 O   0  0  0  0  0  0  0  0  0  0  0  0
    5.5990   -1.0460    0.0000 C   0  0  0  0  0  0  0  0  0  0  0  0
    5.4910    0.4502    0.0000 C   0  0  0  0  0  0  0  0  0  0  0  0
    6.7327    1.2917    0.0000 C   0  0  0  0  0  0  0  0  0  0  0  0
    6.6248    2.7878    0.0000 C   0  0  0  0  0  0  0  0  0  0  0  0
    7.8665    3.6294    0.0000 O   0  0  0  0  0  0  0  0  0  0  0  0
    5.2751    3.4424    0.0000 C   0  0  0  0  0  0  0  0  0  0  0  0
    4.0334    2.6008    0.0000 C   0  0  0  0  0  0  0  0  0  0  0  0
    4.1414    1.1047    0.0000 C   0  0  0  0  0  0  0  0  0  0  0  0
    2.7917    1.7593    0.0000 C   0  0  0  0  0  0  0  0  0  0  0  0
    2.8997    0.2632    0.0000 C   0  0  0  0  0  0  0  0  0  0  0  0
    1.5500    0.9177    0.0000 C   0  0  0  0  0  0  0  0  0  0  0  0
    0.3083    0.0762    0.0000 C   0  0  0  0  0  0  0  0  0  0  0  0
    0.4163   -1.4199    0.0000 C   0  0  0  0  0  0  0  0  0  0  0  0
   -0.9944   -0.9100    0.0000 C   0  0  0  0  0  0  0  0  0  0  0  0
  2  1  1  6
  2  3  1  0
  3  4  1  0
  4  5  1  0
  5  6  2  0
  5  7  1  0
  7  8  1  0
  8  9  2  0
  9 10  1  0
 10 11  1  0
 10 12  1  0
  2 13  1  0
 13 14  1  6
 14 15  1  0
 16 15  1  6
 16 17  1  0
 17 18  1  1
 18 19  1  1
 18 20  1  0
 21 20  1  1
 21 22  1  0
 22 23  1  0
 23 24  1  1
 23 25  1  0
 25 26  1  0
 26 27  1  0
 27 28  1  6
 27 29  1  0
 29 30  1  6
 30 31  1  0
 31 32  1  0
 32 33  1  6
 12  7  2  0
 32 13  1  0
 32 16  1  0
 29 17  1  0
 27 21  1  0
M  END
>  <MS_ID>  (2768) 
MS2862

>  <SMILES>  (2768) 
C[C@H](CCC(=O)c1cnn(C)c1)[C@H]1CC[C@H]2[C@@H]3[C@H](O)C[C@@H]4C[C@H](O)CC[C@]4(C)[C@H]3CC[C@]12C

>  <Structure_dimension>  (2768) 
2D

$$$$
MS2863
     RDKit          2D

 31 34  0  0  0  0  0  0  0  0999 V2000
   -3.5119   -3.5779    0.0000 C   0  0  0  0  0  0  0  0  0  0  0  0
   -2.6109   -2.3787    0.0000 C   0  0  0  0  0  0  0  0  0  0  0  0
   -3.1991   -0.9988    0.0000 C   0  0  0  0  0  0  0  0  0  0  0  0
   -4.6881   -0.8181    0.0000 C   0  0  0  0  0  0  0  0  0  0  0  0
   -5.2762    0.5618    0.0000 C   0  0  0  0  0  0  0  0  0  0  0  0
   -4.3753    1.7610    0.0000 O   0  0  0  0  0  0  0  0  0  0  0  0
   -6.7653    0.7424    0.0000 O   0  0  0  0  0  0  0  0  0  0  0  0
   -7.3534    2.1223    0.0000 C   0  0  0  0  0  0  0  0  0  0  0  0
   -8.8425    2.3029    0.0000 C   0  0  0  0  0  0  0  0  0  0  0  0
   -9.4306    3.6828    0.0000 N   0  0  0  0  0  0  0  0  0  0  0  0
   -1.1219   -2.5593    0.0000 C   0  0  0  0  0  0  0  0  0  0  0  0
   -0.3927   -3.8702    0.0000 C   0  0  0  0  0  0  0  0  0  0  0  0
    1.0793   -3.5818    0.0000 C   0  0  0  0  0  0  0  0  0  0  0  0
    1.2599   -2.0927    0.0000 C   0  0  0  0  0  0  0  0  0  0  0  0
    2.4874   -1.2306    0.0000 C   0  0  0  0  0  0  0  0  0  0  0  0
    3.8478   -1.8625    0.0000 C   0  0  0  0  0  0  0  0  0  0  0  0
    3.9807   -3.3566    0.0000 O   0  0  0  0  0  0  0  0  0  0  0  0
    5.0753   -1.0003    0.0000 C   0  0  0  0  0  0  0  0  0  0  0  0
    4.9423    0.4938    0.0000 C   0  0  0  0  0  0  0  0  0  0  0  0
    6.1698    1.3559    0.0000 C   0  0  0  0  0  0  0  0  0  0  0  0
    6.0369    2.8500    0.0000 C   0  0  0  0  0  0  0  0  0  0  0  0
    7.2644    3.7122    0.0000 O   0  0  0  0  0  0  0  0  0  0  0  0
    4.6765    3.4820    0.0000 C   0  0  0  0  0  0  0  0  0  0  0  0
    3.4490    2.6198    0.0000 C   0  0  0  0  0  0  0  0  0  0  0  0
    3.5820    1.1257    0.0000 C   0  0  0  0  0  0  0  0  0  0  0  0
    2.2216    1.7576    0.0000 C   0  0  0  0  0  0  0  0  0  0  0  0
    2.3545    0.2635    0.0000 C   0  0  0  0  0  0  0  0  0  0  0  0
    0.9941    0.8955    0.0000 C   0  0  0  0  0  0  0  0  0  0  0  0
   -0.2334    0.0333    0.0000 C   0  0  0  0  0  0  0  0  0  0  0  0
   -0.1005   -1.4608    0.0000 C   0  0  0  0  0  0  0  0  0  0  0  0
   -1.5195   -0.9745    0.0000 C   0  0  0  0  0  0  0  0  0  0  0  0
  2  1  1  6
  2  3  1  0
  3  4  1  0
  4  5  1  0
  5  6  2  0
  5  7  1  0
  7  8  1  0
  8  9  1  0
  9 10  1  0
  2 11  1  0
 11 12  1  6
 12 13  1  0
 14 13  1  6
 14 15  1  0
 15 16  1  1
 16 17  1  6
 16 18  1  0
 19 18  1  1
 19 20  1  0
 20 21  1  0
 21 22  2  0
 21 23  1  0
 23 24  1  0
 24 25  1  0
 25 26  1  6
 25 27  1  0
 27 28  1  6
 28 29  1  0
 29 30  1  0
 30 31  1  6
 30 11  1  0
 30 14  1  0
 27 15  1  0
 25 19  1  0
M  END
>  <MS_ID>  (2769) 
MS2863

>  <SMILES>  (2769) 
C[C@H](CCC(=O)OCCN)[C@H]1CC[C@H]2[C@@H]3[C@@H](O)C[C@@H]4CC(=O)CC[C@]4(C)[C@H]3CC[C@]12C

>  <Structure_dimension>  (2769) 
2D

$$$$
MS2864
     RDKit          2D

 29 32  0  0  0  0  0  0  0  0999 V2000
   -4.0871   -3.1154    0.0000 C   0  0  0  0  0  0  0  0  0  0  0  0
   -3.0536   -2.0283    0.0000 C   0  0  0  0  0  0  0  0  0  0  0  0
   -3.4784   -0.5897    0.0000 C   0  0  0  0  0  0  0  0  0  0  0  0
   -4.9366   -0.2383    0.0000 C   0  0  0  0  0  0  0  0  0  0  0  0
   -5.3614    1.2003    0.0000 C   0  0  0  0  0  0  0  0  0  0  0  0
   -4.3279    2.2875    0.0000 O   0  0  0  0  0  0  0  0  0  0  0  0
   -6.8197    1.5518    0.0000 C   0  0  0  0  0  0  0  0  0  0  0  0
   -7.2445    2.9904    0.0000 C   0  0  0  0  0  0  0  0  0  0  0  0
   -8.7027    3.3418    0.0000 O   0  0  0  0  0  0  0  0  0  0  0  0
   -1.5953   -2.3797    0.0000 C   0  0  0  0  0  0  0  0  0  0  0  0
   -1.0225   -3.7660    0.0000 C   0  0  0  0  0  0  0  0  0  0  0  0
    0.4730   -3.6496    0.0000 C   0  0  0  0  0  0  0  0  0  0  0  0
    0.8244   -2.1914    0.0000 C   0  0  0  0  0  0  0  0  0  0  0  0
    2.1432   -1.4767    0.0000 C   0  0  0  0  0  0  0  0  0  0  0  0
    3.4215   -2.2616    0.0000 C   0  0  0  0  0  0  0  0  0  0  0  0
    4.7404   -1.5470    0.0000 C   0  0  0  0  0  0  0  0  0  0  0  0
    4.7809   -0.0475    0.0000 C   0  0  0  0  0  0  0  0  0  0  0  0
    6.0998    0.6671    0.0000 C   0  0  0  0  0  0  0  0  0  0  0  0
    6.1403    2.1665    0.0000 C   0  0  0  0  0  0  0  0  0  0  0  0
    7.4592    2.8811    0.0000 O   0  0  0  0  0  0  0  0  0  0  0  0
    4.8620    2.9514    0.0000 C   0  0  0  0  0  0  0  0  0  0  0  0
    3.5432    2.2368    0.0000 C   0  0  0  0  0  0  0  0  0  0  0  0
    3.5026    0.7373    0.0000 C   0  0  0  0  0  0  0  0  0  0  0  0
    2.2243    1.5222    0.0000 C   0  0  0  0  0  0  0  0  0  0  0  0
    2.1838    0.0227    0.0000 C   0  0  0  0  0  0  0  0  0  0  0  0
    0.9055    0.8076    0.0000 C   0  0  0  0  0  0  0  0  0  0  0  0
   -0.4133    0.0929    0.0000 C   0  0  0  0  0  0  0  0  0  0  0  0
   -0.4539   -1.4065    0.0000 C   0  0  0  0  0  0  0  0  0  0  0  0
   -1.8072   -0.7596    0.0000 C   0  0  0  0  0  0  0  0  0  0  0  0
  2  1  1  6
  2  3  1  0
  3  4  1  0
  4  5  1  0
  5  6  2  0
  5  7  1  0
  7  8  1  0
  8  9  1  0
  2 10  1  0
 10 11  1  6
 11 12  1  0
 13 12  1  6
 13 14  1  0
 14 15  1  1
 15 16  1  0
 17 16  1  1
 17 18  1  0
 18 19  1  0
 19 20  2  0
 19 21  1  0
 21 22  1  0
 22 23  1  0
 23 24  1  6
 23 25  1  0
 25 26  1  6
 26 27  1  0
 27 28  1  0
 28 29  1  6
 28 10  1  0
 28 13  1  0
 25 14  1  0
 23 17  1  0
M  END
>  <MS_ID>  (2770) 
MS2864

>  <SMILES>  (2770) 
C[C@H](CCC(=O)CCO)[C@H]1CC[C@H]2[C@@H]3CC[C@@H]4CC(=O)CC[C@]4(C)[C@H]3CC[C@]12C

>  <Structure_dimension>  (2770) 
2D

$$$$
MS2865
     RDKit          2D

 29 32  0  0  0  0  0  0  0  0999 V2000
   -7.4712    3.6525    0.0000 C   0  0  0  0  0  0  0  0  0  0  0  0
   -7.1264    2.1927    0.0000 N   0  0  0  0  0  0  0  0  0  0  0  0
   -5.6897    1.7615    0.0000 C   0  0  0  0  0  0  0  0  0  0  0  0
   -4.5979    2.7900    0.0000 O   0  0  0  0  0  0  0  0  0  0  0  0
   -5.3448    0.3016    0.0000 C   0  0  0  0  0  0  0  0  0  0  0  0
   -3.9081   -0.1296    0.0000 C   0  0  0  0  0  0  0  0  0  0  0  0
   -3.5633   -1.5894    0.0000 C   0  0  0  0  0  0  0  0  0  0  0  0
   -4.6551   -2.6180    0.0000 C   0  0  0  0  0  0  0  0  0  0  0  0
   -2.1266   -2.0207    0.0000 C   0  0  0  0  0  0  0  0  0  0  0  0
   -1.6310   -3.4364    0.0000 C   0  0  0  0  0  0  0  0  0  0  0  0
   -0.1314   -3.4026    0.0000 C   0  0  0  0  0  0  0  0  0  0  0  0
    0.2998   -1.9659    0.0000 C   0  0  0  0  0  0  0  0  0  0  0  0
    1.6561   -1.3251    0.0000 C   0  0  0  0  0  0  0  0  0  0  0  0
    2.8892   -2.1792    0.0000 C   0  0  0  0  0  0  0  0  0  0  0  0
    2.7660   -3.6741    0.0000 O   0  0  0  0  0  0  0  0  0  0  0  0
    4.2454   -1.5383    0.0000 C   0  0  0  0  0  0  0  0  0  0  0  0
    4.3685   -0.0434    0.0000 C   0  0  0  0  0  0  0  0  0  0  0  0
    5.7247    0.5975    0.0000 C   0  0  0  0  0  0  0  0  0  0  0  0
    5.8478    2.0924    0.0000 C   0  0  0  0  0  0  0  0  0  0  0  0
    7.2040    2.7332    0.0000 O   0  0  0  0  0  0  0  0  0  0  0  0
    4.6147    2.9465    0.0000 C   0  0  0  0  0  0  0  0  0  0  0  0
    3.2585    2.3056    0.0000 C   0  0  0  0  0  0  0  0  0  0  0  0
    3.1354    0.8107    0.0000 C   0  0  0  0  0  0  0  0  0  0  0  0
    1.9023    1.6648    0.0000 C   0  0  0  0  0  0  0  0  0  0  0  0
    1.7792    0.1699    0.0000 C   0  0  0  0  0  0  0  0  0  0  0  0
    0.5461    1.0239    0.0000 C   0  0  0  0  0  0  0  0  0  0  0  0
   -0.8101    0.3831    0.0000 C   0  0  0  0  0  0  0  0  0  0  0  0
   -0.9333   -1.1118    0.0000 C   0  0  0  0  0  0  0  0  0  0  0  0
   -2.2489   -0.3913    0.0000 C   0  0  0  0  0  0  0  0  0  0  0  0
  1  2  1  0
  2  3  1  0
  3  4  2  0
  3  5  1  0
  5  6  1  0
  6  7  1  0
  7  8  1  6
  7  9  1  0
  9 10  1  6
 10 11  1  0
 12 11  1  6
 12 13  1  0
 13 14  1  1
 14 15  1  1
 14 16  1  0
 17 16  1  1
 17 18  1  0
 18 19  1  0
 19 20  1  1
 19 21  1  0
 21 22  1  0
 22 23  1  0
 23 24  1  6
 23 25  1  0
 25 26  1  6
 26 27  1  0
 27 28  1  0
 28 29  1  6
 28  9  1  0
 28 12  1  0
 25 13  1  0
 23 17  1  0
M  END
>  <MS_ID>  (2771) 
MS2865

>  <SMILES>  (2771) 
CNC(=O)CC[C@@H](C)[C@H]1CC[C@H]2[C@@H]3[C@H](O)C[C@@H]4C[C@H](O)CC[C@]4(C)[C@H]3CC[C@]12C

>  <Structure_dimension>  (2771) 
2D

$$$$
MS2866
     RDKit          2D

 32 36  0  0  0  0  0  0  0  0999 V2000
   -3.4100   -3.2672    0.0000 C   0  0  0  0  0  0  0  0  0  0  0  0
   -2.4025   -2.1559    0.0000 C   0  0  0  0  0  0  0  0  0  0  0  0
   -2.8612   -0.7278    0.0000 C   0  0  0  0  0  0  0  0  0  0  0  0
   -4.3273   -0.4109    0.0000 C   0  0  0  0  0  0  0  0  0  0  0  0
   -4.7860    1.0172    0.0000 C   0  0  0  0  0  0  0  0  0  0  0  0
   -3.7785    2.1285    0.0000 O   0  0  0  0  0  0  0  0  0  0  0  0
   -6.2522    1.3341    0.0000 C   0  0  0  0  0  0  0  0  0  0  0  0
   -7.3703    0.3342    0.0000 C   0  0  0  0  0  0  0  0  0  0  0  0
   -8.6668    1.0886    0.0000 C   0  0  0  0  0  0  0  0  0  0  0  0
   -8.3499    2.5547    0.0000 C   0  0  0  0  0  0  0  0  0  0  0  0
   -6.8576    2.7065    0.0000 O   0  0  0  0  0  0  0  0  0  0  0  0
   -0.9363   -2.4728    0.0000 C   0  0  0  0  0  0  0  0  0  0  0  0
   -0.3309   -3.8451    0.0000 C   0  0  0  0  0  0  0  0  0  0  0  0
    1.1614   -3.6934    0.0000 C   0  0  0  0  0  0  0  0  0  0  0  0
    1.4783   -2.2273    0.0000 C   0  0  0  0  0  0  0  0  0  0  0  0
    2.7798   -1.4817    0.0000 C   0  0  0  0  0  0  0  0  0  0  0  0
    4.0763   -2.2361    0.0000 C   0  0  0  0  0  0  0  0  0  0  0  0
    5.3779   -1.4905    0.0000 C   0  0  0  0  0  0  0  0  0  0  0  0
    5.3830    0.0095    0.0000 C   0  0  0  0  0  0  0  0  0  0  0  0
    6.6846    0.7551    0.0000 C   0  0  0  0  0  0  0  0  0  0  0  0
    6.6897    2.2551    0.0000 C   0  0  0  0  0  0  0  0  0  0  0  0
    7.9912    3.0007    0.0000 O   0  0  0  0  0  0  0  0  0  0  0  0
    5.3932    3.0095    0.0000 C   0  0  0  0  0  0  0  0  0  0  0  0
    4.0916    2.2639    0.0000 C   0  0  0  0  0  0  0  0  0  0  0  0
    4.0865    0.7639    0.0000 C   0  0  0  0  0  0  0  0  0  0  0  0
    2.7900    1.5183    0.0000 C   0  0  0  0  0  0  0  0  0  0  0  0
    2.7849    0.0183    0.0000 C   0  0  0  0  0  0  0  0  0  0  0  0
    1.4884    0.7727    0.0000 C   0  0  0  0  0  0  0  0  0  0  0  0
    0.1869    0.0271    0.0000 C   0  0  0  0  0  0  0  0  0  0  0  0
   -1.1096    0.7815    0.0000 O   0  0  0  0  0  0  0  0  0  0  0  0
    0.1818   -1.4728    0.0000 C   0  0  0  0  0  0  0  0  0  0  0  0
   -1.1865   -0.8581    0.0000 C   0  0  0  0  0  0  0  0  0  0  0  0
  2  1  1  6
  2  3  1  0
  3  4  1  0
  4  5  1  0
  5  6  2  0
  5  7  1  0
  7  8  2  0
  8  9  1  0
  9 10  2  0
 10 11  1  0
  2 12  1  0
 12 13  1  6
 13 14  1  0
 15 14  1  6
 15 16  1  0
 16 17  1  1
 17 18  1  0
 19 18  1  1
 19 20  1  0
 20 21  1  0
 21 22  1  1
 21 23  1  0
 23 24  1  0
 24 25  1  0
 25 26  1  6
 25 27  1  0
 27 28  1  6
 28 29  1  0
 29 30  1  1
 29 31  1  0
 31 32  1  6
 11  7  1  0
 31 12  1  0
 31 15  1  0
 27 16  1  0
 25 19  1  0
M  END
>  <MS_ID>  (2772) 
MS2866

>  <SMILES>  (2772) 
C[C@H](CCC(=O)c1ccco1)[C@H]1CC[C@H]2[C@@H]3CC[C@@H]4C[C@H](O)CC[C@]4(C)[C@H]3C[C@H](O)[C@]12C

>  <Structure_dimension>  (2772) 
2D

$$$$
MS2867
     RDKit          2D

 39 43  0  0  0  0  0  0  0  0999 V2000
   -9.8298    4.0763    0.0000 C   0  0  0  0  0  0  0  0  0  0  0  0
   -9.5847    2.5965    0.0000 O   0  0  0  0  0  0  0  0  0  0  0  0
   -8.1806    2.0688    0.0000 C   0  0  0  0  0  0  0  0  0  0  0  0
   -7.0216    3.0210    0.0000 O   0  0  0  0  0  0  0  0  0  0  0  0
   -7.9355    0.5890    0.0000 C   0  0  0  0  0  0  0  0  0  0  0  0
   -6.5313    0.0614    0.0000 C   0  0  0  0  0  0  0  0  0  0  0  0
   -6.2862   -1.4185    0.0000 C   0  0  0  0  0  0  0  0  0  0  0  0
   -7.4452   -2.3707    0.0000 C   0  0  0  0  0  0  0  0  0  0  0  0
   -4.8821   -1.9461    0.0000 C   0  0  0  0  0  0  0  0  0  0  0  0
   -4.4836   -3.3922    0.0000 C   0  0  0  0  0  0  0  0  0  0  0  0
   -2.9851   -3.4601    0.0000 C   0  0  0  0  0  0  0  0  0  0  0  0
   -2.4575   -2.0560    0.0000 C   0  0  0  0  0  0  0  0  0  0  0  0
   -1.0610   -1.5085    0.0000 C   0  0  0  0  0  0  0  0  0  0  0  0
    0.1114   -2.4443    0.0000 C   0  0  0  0  0  0  0  0  0  0  0  0
   -0.1128   -3.9274    0.0000 O   0  0  0  0  0  0  0  0  0  0  0  0
    1.5079   -1.8968    0.0000 C   0  0  0  0  0  0  0  0  0  0  0  0
    1.7321   -0.4137    0.0000 C   0  0  0  0  0  0  0  0  0  0  0  0
    3.1286    0.1338    0.0000 C   0  0  0  0  0  0  0  0  0  0  0  0
    3.3528    1.6169    0.0000 C   0  0  0  0  0  0  0  0  0  0  0  0
    4.7493    2.1644    0.0000 O   0  0  0  0  0  0  0  0  0  0  0  0
    5.9217    1.2287    0.0000 C   0  0  0  0  0  0  0  0  0  0  0  0
    5.6975   -0.2545    0.0000 O   0  0  0  0  0  0  0  0  0  0  0  0
    6.8699   -1.1902    0.0000 C   0  0  0  0  0  0  0  0  0  0  0  0
    6.6457   -2.6734    0.0000 C   0  0  0  0  0  0  0  0  0  0  0  0
    8.2664   -0.6428    0.0000 C   0  0  0  0  0  0  0  0  0  0  0  0
    9.4388   -1.5785    0.0000 O   0  0  0  0  0  0  0  0  0  0  0  0
    8.4906    0.8404    0.0000 C   0  0  0  0  0  0  0  0  0  0  0  0
    9.8871    1.3878    0.0000 O   0  0  0  0  0  0  0  0  0  0  0  0
    7.3182    1.7761    0.0000 C   0  0  0  0  0  0  0  0  0  0  0  0
    7.5424    3.2593    0.0000 O   0  0  0  0  0  0  0  0  0  0  0  0
    2.1804    2.5527    0.0000 C   0  0  0  0  0  0  0  0  0  0  0  0
    0.7839    2.0052    0.0000 C   0  0  0  0  0  0  0  0  0  0  0  0
    0.5597    0.5221    0.0000 C   0  0  0  0  0  0  0  0  0  0  0  0
   -0.6126    1.4578    0.0000 C   0  0  0  0  0  0  0  0  0  0  0  0
   -0.8368   -0.0254    0.0000 C   0  0  0  0  0  0  0  0  0  0  0  0
   -2.0092    0.9103    0.0000 C   0  0  0  0  0  0  0  0  0  0  0  0
   -3.4057    0.3629    0.0000 C   0  0  0  0  0  0  0  0  0  0  0  0
   -3.6299   -1.1203    0.0000 C   0  0  0  0  0  0  0  0  0  0  0  0
   -4.8936   -0.3122    0.0000 C   0  0  0  0  0  0  0  0  0  0  0  0
  1  2  1  0
  2  3  1  0
  3  4  2  0
  3  5  1  0
  5  6  1  0
  6  7  1  0
  7  8  1  6
  7  9  1  0
  9 10  1  6
 10 11  1  0
 12 11  1  6
 12 13  1  0
 13 14  1  1
 14 15  1  1
 14 16  1  0
 17 16  1  1
 17 18  1  0
 18 19  1  0
 19 20  1  1
 21 20  1  1
 21 22  1  0
 22 23  1  0
 23 24  1  1
 23 25  1  0
 25 26  1  6
 25 27  1  0
 27 28  1  1
 27 29  1  0
 29 30  1  6
 19 31  1  0
 31 32  1  0
 32 33  1  0
 33 34  1  6
 33 35  1  0
 35 36  1  6
 36 37  1  0
 37 38  1  0
 38 39  1  6
 38  9  1  0
 38 12  1  0
 35 13  1  0
 33 17  1  0
 29 21  1  0
M  END
>  <MS_ID>  (2773) 
MS2867

>  <SMILES>  (2773) 
COC(=O)CC[C@@H](C)[C@H]1CC[C@H]2[C@@H]3[C@H](O)C[C@@H]4C[C@H](O[C@@H]5O[C@H](C)[C@@H](O)[C@H](O)[C@H]5O)CC[C@]4(C)[C@H]3CC[C@]12C

>  <Structure_dimension>  (2773) 
2D

$$$$
MS2868
     RDKit          2D

 30 33  0  0  0  0  0  0  0  0999 V2000
   -5.0361   -2.2421    0.0000 C   0  0  0  0  0  0  0  0  0  0  0  0
   -3.9151   -1.2454    0.0000 C   0  0  0  0  0  0  0  0  0  0  0  0
   -4.2177    0.2237    0.0000 C   0  0  0  0  0  0  0  0  0  0  0  0
   -5.6413    0.6963    0.0000 C   0  0  0  0  0  0  0  0  0  0  0  0
   -5.9439    2.1654    0.0000 C   0  0  0  0  0  0  0  0  0  0  0  0
   -4.8228    3.1621    0.0000 O   0  0  0  0  0  0  0  0  0  0  0  0
   -7.3675    2.6380    0.0000 O   0  0  0  0  0  0  0  0  0  0  0  0
   -2.4915   -1.7180    0.0000 C   0  0  0  0  0  0  0  0  0  0  0  0
   -2.0370   -3.1475    0.0000 C   0  0  0  0  0  0  0  0  0  0  0  0
   -0.5370   -3.1570    0.0000 C   0  0  0  0  0  0  0  0  0  0  0  0
   -0.0645   -1.7333    0.0000 C   0  0  0  0  0  0  0  0  0  0  0  0
    1.3097   -1.1319    0.0000 C   0  0  0  0  0  0  0  0  0  0  0  0
    2.5176   -2.0213    0.0000 C   0  0  0  0  0  0  0  0  0  0  0  0
    2.3514   -3.5120    0.0000 S   0  0  0  0  0  0  0  0  0  0  0  0
    3.5593   -4.4014    0.0000 O   0  0  0  0  0  0  0  0  0  0  0  0
    3.8918   -1.4198    0.0000 C   0  0  0  0  0  0  0  0  0  0  0  0
    4.0580    0.0709    0.0000 C   0  0  0  0  0  0  0  0  0  0  0  0
    5.4321    0.6723    0.0000 C   0  0  0  0  0  0  0  0  0  0  0  0
    5.5984    2.1631    0.0000 C   0  0  0  0  0  0  0  0  0  0  0  0
    6.9725    2.7645    0.0000 O   0  0  0  0  0  0  0  0  0  0  0  0
    4.3904    3.0524    0.0000 C   0  0  0  0  0  0  0  0  0  0  0  0
    3.0163    2.4510    0.0000 C   0  0  0  0  0  0  0  0  0  0  0  0
    2.8501    0.9603    0.0000 C   0  0  0  0  0  0  0  0  0  0  0  0
    1.6421    1.8496    0.0000 C   0  0  0  0  0  0  0  0  0  0  0  0
    1.4759    0.3588    0.0000 C   0  0  0  0  0  0  0  0  0  0  0  0
    0.2680    1.2482    0.0000 C   0  0  0  0  0  0  0  0  0  0  0  0
   -1.1062    0.6468    0.0000 C   0  0  0  0  0  0  0  0  0  0  0  0
   -2.3141    1.5361    0.0000 O   0  0  0  0  0  0  0  0  0  0  0  0
   -1.2724   -0.8440    0.0000 C   0  0  0  0  0  0  0  0  0  0  0  0
   -2.5667   -0.0858    0.0000 C   0  0  0  0  0  0  0  0  0  0  0  0
  2  1  1  6
  2  3  1  0
  3  4  1  0
  4  5  1  0
  5  6  2  0
  5  7  1  0
  2  8  1  0
  8  9  1  6
  9 10  1  0
 11 10  1  6
 11 12  1  0
 12 13  1  1
 13 14  1  6
 14 15  1  0
 13 16  1  0
 17 16  1  1
 17 18  1  0
 18 19  1  0
 19 20  1  6
 19 21  1  0
 21 22  1  0
 22 23  1  0
 23 24  1  6
 23 25  1  0
 25 26  1  6
 26 27  1  0
 27 28  1  1
 27 29  1  0
 29 30  1  6
 29  8  1  0
 29 11  1  0
 25 12  1  0
 23 17  1  0
M  END
>  <MS_ID>  (2774) 
MS2868

>  <SMILES>  (2774) 
C[C@H](CCC(=O)O)[C@H]1CC[C@H]2[C@@H]3[C@@H](SO)C[C@@H]4C[C@@H](O)CC[C@]4(C)[C@H]3C[C@H](O)[C@]12C

>  <Structure_dimension>  (2774) 
2D

$$$$
MS2869
     RDKit          2D

 33 36  0  0  0  0  0  0  0  0999 V2000
   -3.6082   -3.8551    0.0000 C   0  0  0  0  0  0  0  0  0  0  0  0
   -2.7801   -2.6044    0.0000 C   0  0  0  0  0  0  0  0  0  0  0  0
   -3.4491   -1.2619    0.0000 C   0  0  0  0  0  0  0  0  0  0  0  0
   -4.9463   -1.1701    0.0000 C   0  0  0  0  0  0  0  0  0  0  0  0
   -5.6154    0.1725    0.0000 C   0  0  0  0  0  0  0  0  0  0  0  0
   -7.1126    0.2643    0.0000 O   0  0  0  0  0  0  0  0  0  0  0  0
   -4.7873    1.4231    0.0000 O   0  0  0  0  0  0  0  0  0  0  0  0
   -5.4563    2.7657    0.0000 S   0  0  0  0  0  0  0  0  0  0  0  0
   -6.7988    2.0966    0.0000 O   0  0  0  0  0  0  0  0  0  0  0  0
   -4.1138    3.4347    0.0000 O   0  0  0  0  0  0  0  0  0  0  0  0
   -6.1254    4.1082    0.0000 O   0  0  0  0  0  0  0  0  0  0  0  0
   -1.2829   -2.6962    0.0000 C   0  0  0  0  0  0  0  0  0  0  0  0
   -0.4772   -3.9615    0.0000 C   0  0  0  0  0  0  0  0  0  0  0  0
    0.9751   -3.5862    0.0000 C   0  0  0  0  0  0  0  0  0  0  0  0
    1.0670   -2.0890    0.0000 C   0  0  0  0  0  0  0  0  0  0  0  0
    2.2410   -1.1554    0.0000 C   0  0  0  0  0  0  0  0  0  0  0  0
    3.6366   -1.7054    0.0000 C   0  0  0  0  0  0  0  0  0  0  0  0
    3.8580   -3.1890    0.0000 C   0  0  0  0  0  0  0  0  0  0  0  0
    5.2535   -3.7390    0.0000 O   0  0  0  0  0  0  0  0  0  0  0  0
    4.8106   -0.7718    0.0000 C   0  0  0  0  0  0  0  0  0  0  0  0
    4.5892    0.7117    0.0000 C   0  0  0  0  0  0  0  0  0  0  0  0
    5.7633    1.6453    0.0000 C   0  0  0  0  0  0  0  0  0  0  0  0
    5.5418    3.1288    0.0000 C   0  0  0  0  0  0  0  0  0  0  0  0
    6.7159    4.0624    0.0000 O   0  0  0  0  0  0  0  0  0  0  0  0
    4.1463    3.6788    0.0000 C   0  0  0  0  0  0  0  0  0  0  0  0
    2.9722    2.7453    0.0000 C   0  0  0  0  0  0  0  0  0  0  0  0
    3.1937    1.2617    0.0000 C   0  0  0  0  0  0  0  0  0  0  0  0
    1.7981    1.8117    0.0000 C   0  0  0  0  0  0  0  0  0  0  0  0
    2.0196    0.3282    0.0000 C   0  0  0  0  0  0  0  0  0  0  0  0
    0.6241    0.8781    0.0000 C   0  0  0  0  0  0  0  0  0  0  0  0
   -0.5500   -0.0554    0.0000 C   0  0  0  0  0  0  0  0  0  0  0  0
   -0.3286   -1.5390    0.0000 C   0  0  0  0  0  0  0  0  0  0  0  0
   -1.7739   -1.1379    0.0000 C   0  0  0  0  0  0  0  0  0  0  0  0
  2  1  1  6
  2  3  1  0
  3  4  1  0
  4  5  1  0
  5  6  2  0
  5  7  1  0
  7  8  1  0
  8  9  2  0
  8 10  2  0
  8 11  1  0
  2 12  1  0
 12 13  1  6
 13 14  1  0
 15 14  1  6
 15 16  1  0
 16 17  1  1
 17 18  1  6
 18 19  1  0
 17 20  1  0
 21 20  1  1
 21 22  1  0
 22 23  1  0
 23 24  1  1
 23 25  1  0
 25 26  1  0
 26 27  1  0
 27 28  1  6
 27 29  1  0
 29 30  1  6
 30 31  1  0
 31 32  1  0
 32 33  1  6
 32 12  1  0
 32 15  1  0
 29 16  1  0
 27 21  1  0
M  END
>  <MS_ID>  (2775) 
MS2869

>  <SMILES>  (2775) 
C[C@H](CCC(=O)OS(=O)(=O)O)[C@H]1CC[C@H]2[C@@H]3[C@@H](CO)C[C@@H]4C[C@H](O)CC[C@]4(C)[C@H]3CC[C@]12C

>  <Structure_dimension>  (2775) 
2D

$$$$
MS2870
     RDKit          2D

 29 32  0  0  0  0  0  0  0  0999 V2000
   -5.0303   -2.1373    0.0000 C   0  0  0  0  0  0  0  0  0  0  0  0
   -3.8594   -1.1998    0.0000 C   0  0  0  0  0  0  0  0  0  0  0  0
   -4.0858    0.2830    0.0000 C   0  0  0  0  0  0  0  0  0  0  0  0
   -5.4831    0.8284    0.0000 C   0  0  0  0  0  0  0  0  0  0  0  0
   -5.7095    2.3112    0.0000 C   0  0  0  0  0  0  0  0  0  0  0  0
   -7.1069    2.8565    0.0000 O   0  0  0  0  0  0  0  0  0  0  0  0
   -4.5386    3.2487    0.0000 S   0  0  0  0  0  0  0  0  0  0  0  0
   -2.4620   -1.7451    0.0000 C   0  0  0  0  0  0  0  0  0  0  0  0
   -2.0818   -3.1961    0.0000 C   0  0  0  0  0  0  0  0  0  0  0  0
   -0.5844   -3.2830    0.0000 C   0  0  0  0  0  0  0  0  0  0  0  0
   -0.0390   -1.8856    0.0000 C   0  0  0  0  0  0  0  0  0  0  0  0
    1.3643   -1.3559    0.0000 C   0  0  0  0  0  0  0  0  0  0  0  0
    2.5248   -2.3063    0.0000 C   0  0  0  0  0  0  0  0  0  0  0  0
    2.2819   -3.7865    0.0000 O   0  0  0  0  0  0  0  0  0  0  0  0
    3.9281   -1.7765    0.0000 C   0  0  0  0  0  0  0  0  0  0  0  0
    4.1710   -0.2963    0.0000 C   0  0  0  0  0  0  0  0  0  0  0  0
    5.5743    0.2334    0.0000 C   0  0  0  0  0  0  0  0  0  0  0  0
    5.8172    1.7136    0.0000 C   0  0  0  0  0  0  0  0  0  0  0  0
    7.2205    2.2434    0.0000 O   0  0  0  0  0  0  0  0  0  0  0  0
    4.6568    2.6641    0.0000 C   0  0  0  0  0  0  0  0  0  0  0  0
    3.2534    2.1343    0.0000 C   0  0  0  0  0  0  0  0  0  0  0  0
    3.0105    0.6541    0.0000 C   0  0  0  0  0  0  0  0  0  0  0  0
    1.8501    1.6046    0.0000 C   0  0  0  0  0  0  0  0  0  0  0  0
    1.6072    0.1244    0.0000 C   0  0  0  0  0  0  0  0  0  0  0  0
    0.4467    1.0748    0.0000 C   0  0  0  0  0  0  0  0  0  0  0  0
   -0.9566    0.5450    0.0000 C   0  0  0  0  0  0  0  0  0  0  0  0
   -2.1170    1.4955    0.0000 O   0  0  0  0  0  0  0  0  0  0  0  0
   -1.1995   -0.9352    0.0000 C   0  0  0  0  0  0  0  0  0  0  0  0
   -2.4529   -0.1112    0.0000 C   0  0  0  0  0  0  0  0  0  0  0  0
  2  1  1  6
  2  3  1  0
  3  4  1  0
  4  5  1  0
  5  6  2  0
  5  7  1  0
  2  8  1  0
  8  9  1  6
  9 10  1  0
 11 10  1  6
 11 12  1  0
 12 13  1  1
 13 14  1  1
 13 15  1  0
 16 15  1  1
 16 17  1  0
 17 18  1  0
 18 19  2  0
 18 20  1  0
 20 21  1  0
 21 22  1  0
 22 23  1  6
 22 24  1  0
 24 25  1  6
 25 26  1  0
 26 27  2  0
 26 28  1  0
 28 29  1  6
 28  8  1  0
 28 11  1  0
 24 12  1  0
 22 16  1  0
M  END
>  <MS_ID>  (2776) 
MS2870

>  <SMILES>  (2776) 
C[C@H](CCC(=O)S)[C@H]1CC[C@H]2[C@@H]3[C@H](O)C[C@@H]4CC(=O)CC[C@]4(C)[C@H]3CC(=O)[C@]12C

>  <Structure_dimension>  (2776) 
2D

$$$$
MS2871
     RDKit          2D

 36 39  0  0  0  0  0  0  0  0999 V2000
   -1.7591   -4.0808    0.0000 C   0  0  0  0  0  0  0  0  0  0  0  0
   -0.9884   -2.7939    0.0000 C   0  0  0  0  0  0  0  0  0  0  0  0
   -1.7175   -1.4830    0.0000 C   0  0  0  0  0  0  0  0  0  0  0  0
   -3.2174   -1.4590    0.0000 C   0  0  0  0  0  0  0  0  0  0  0  0
   -3.9465   -0.1482    0.0000 C   0  0  0  0  0  0  0  0  0  0  0  0
   -3.1758    1.1387    0.0000 O   0  0  0  0  0  0  0  0  0  0  0  0
   -5.4463   -0.1242    0.0000 C   0  0  0  0  0  0  0  0  0  0  0  0
   -6.2170   -1.4111    0.0000 O   0  0  0  0  0  0  0  0  0  0  0  0
   -6.1755    1.1866    0.0000 N   0  0  0  0  0  0  0  0  0  0  0  0
   -7.6753    1.2106    0.0000 C   0  0  0  0  0  0  0  0  0  0  0  0
   -8.4459   -0.0763    0.0000 C   0  0  0  0  0  0  0  0  0  0  0  0
   -9.9457   -0.0523    0.0000 S   0  0  0  0  0  0  0  0  0  0  0  0
   -8.4044    2.5215    0.0000 C   0  0  0  0  0  0  0  0  0  0  0  0
   -7.6337    3.8084    0.0000 O   0  0  0  0  0  0  0  0  0  0  0  0
   -9.9042    2.5454    0.0000 O   0  0  0  0  0  0  0  0  0  0  0  0
    0.5114   -2.8178    0.0000 C   0  0  0  0  0  0  0  0  0  0  0  0
    1.3736   -4.0453    0.0000 C   0  0  0  0  0  0  0  0  0  0  0  0
    2.8074   -3.6046    0.0000 C   0  0  0  0  0  0  0  0  0  0  0  0
    2.8314   -2.1048    0.0000 C   0  0  0  0  0  0  0  0  0  0  0  0
    3.9620   -1.1191    0.0000 C   0  0  0  0  0  0  0  0  0  0  0  0
    5.3810   -1.6053    0.0000 C   0  0  0  0  0  0  0  0  0  0  0  0
    5.6694   -3.0774    0.0000 O   0  0  0  0  0  0  0  0  0  0  0  0
    6.5116   -0.6196    0.0000 C   0  0  0  0  0  0  0  0  0  0  0  0
    6.2232    0.8524    0.0000 C   0  0  0  0  0  0  0  0  0  0  0  0
    7.3538    1.8382    0.0000 C   0  0  0  0  0  0  0  0  0  0  0  0
    7.0654    3.3102    0.0000 C   0  0  0  0  0  0  0  0  0  0  0  0
    8.1961    4.2960    0.0000 O   0  0  0  0  0  0  0  0  0  0  0  0
    5.6464    3.7965    0.0000 C   0  0  0  0  0  0  0  0  0  0  0  0
    4.5158    2.8107    0.0000 C   0  0  0  0  0  0  0  0  0  0  0  0
    4.8042    1.3387    0.0000 C   0  0  0  0  0  0  0  0  0  0  0  0
    3.3852    1.8250    0.0000 C   0  0  0  0  0  0  0  0  0  0  0  0
    3.6736    0.3529    0.0000 C   0  0  0  0  0  0  0  0  0  0  0  0
    2.2546    0.8392    0.0000 C   0  0  0  0  0  0  0  0  0  0  0  0
    1.1240   -0.1465    0.0000 C   0  0  0  0  0  0  0  0  0  0  0  0
    1.4124   -1.6186    0.0000 C   0  0  0  0  0  0  0  0  0  0  0  0
   -0.0497   -1.2833    0.0000 C   0  0  0  0  0  0  0  0  0  0  0  0
  2  1  1  6
  2  3  1  0
  3  4  1  0
  4  5  1  0
  5  6  2  0
  5  7  1  0
  7  8  2  0
  7  9  1  0
  9 10  1  0
 10 11  1  1
 11 12  1  0
 10 13  1  0
 13 14  2  0
 13 15  1  0
  2 16  1  0
 16 17  1  6
 17 18  1  0
 19 18  1  6
 19 20  1  0
 20 21  1  1
 21 22  1  1
 21 23  1  0
 24 23  1  1
 24 25  1  0
 25 26  1  0
 26 27  1  1
 26 28  1  0
 28 29  1  0
 29 30  1  0
 30 31  1  6
 30 32  1  0
 32 33  1  6
 33 34  1  0
 34 35  1  0
 35 36  1  6
 35 16  1  0
 35 19  1  0
 32 20  1  0
 30 24  1  0
M  END
>  <MS_ID>  (2777) 
MS2871

>  <SMILES>  (2777) 
C[C@H](CCC(=O)C(=O)N[C@@H](CS)C(=O)O)[C@H]1CC[C@H]2[C@@H]3[C@H](O)C[C@@H]4C[C@H](O)CC[C@]4(C)[C@H]3CC[C@]12C

>  <Structure_dimension>  (2777) 
2D

$$$$
MS2872
     RDKit          2D

 32 36  0  0  0  0  0  0  0  0999 V2000
   -3.4960   -3.2106    0.0000 C   0  0  0  0  0  0  0  0  0  0  0  0
   -2.5154   -2.0755    0.0000 C   0  0  0  0  0  0  0  0  0  0  0  0
   -3.0082   -0.6588    0.0000 C   0  0  0  0  0  0  0  0  0  0  0  0
   -4.4815   -0.3771    0.0000 C   0  0  0  0  0  0  0  0  0  0  0  0
   -4.9742    1.0397    0.0000 C   0  0  0  0  0  0  0  0  0  0  0  0
   -3.9936    2.1748    0.0000 O   0  0  0  0  0  0  0  0  0  0  0  0
   -6.4475    1.3214    0.0000 N   0  0  0  0  0  0  0  0  0  0  0  0
   -7.5414    0.2950    0.0000 C   0  0  0  0  0  0  0  0  0  0  0  0
   -8.8556    1.0181    0.0000 N   0  0  0  0  0  0  0  0  0  0  0  0
   -8.5739    2.4915    0.0000 C   0  0  0  0  0  0  0  0  0  0  0  0
   -7.0856    2.6789    0.0000 N   0  0  0  0  0  0  0  0  0  0  0  0
   -1.0421   -2.3572    0.0000 C   0  0  0  0  0  0  0  0  0  0  0  0
   -0.4040   -3.7147    0.0000 C   0  0  0  0  0  0  0  0  0  0  0  0
    1.0842   -3.5273    0.0000 C   0  0  0  0  0  0  0  0  0  0  0  0
    1.3659   -2.0540    0.0000 C   0  0  0  0  0  0  0  0  0  0  0  0
    2.6493   -1.2775    0.0000 C   0  0  0  0  0  0  0  0  0  0  0  0
    3.9634   -2.0006    0.0000 C   0  0  0  0  0  0  0  0  0  0  0  0
    3.9942   -3.5003    0.0000 O   0  0  0  0  0  0  0  0  0  0  0  0
    5.2468   -1.2241    0.0000 C   0  0  0  0  0  0  0  0  0  0  0  0
    5.2160    0.2756    0.0000 C   0  0  0  0  0  0  0  0  0  0  0  0
    6.4994    1.0521    0.0000 C   0  0  0  0  0  0  0  0  0  0  0  0
    6.4685    2.5518    0.0000 C   0  0  0  0  0  0  0  0  0  0  0  0
    7.7519    3.3283    0.0000 O   0  0  0  0  0  0  0  0  0  0  0  0
    5.1544    3.2749    0.0000 C   0  0  0  0  0  0  0  0  0  0  0  0
    3.8710    2.4984    0.0000 C   0  0  0  0  0  0  0  0  0  0  0  0
    3.9018    0.9987    0.0000 C   0  0  0  0  0  0  0  0  0  0  0  0
    2.5877    1.7219    0.0000 C   0  0  0  0  0  0  0  0  0  0  0  0
    2.6185    0.2222    0.0000 C   0  0  0  0  0  0  0  0  0  0  0  0
    1.3043    0.9454    0.0000 C   0  0  0  0  0  0  0  0  0  0  0  0
    0.0209    0.1689    0.0000 C   0  0  0  0  0  0  0  0  0  0  0  0
    0.0517   -1.3308    0.0000 C   0  0  0  0  0  0  0  0  0  0  0  0
   -1.3308   -0.7490    0.0000 C   0  0  0  0  0  0  0  0  0  0  0  0
  2  1  1  6
  2  3  1  0
  3  4  1  0
  4  5  1  0
  5  6  2  0
  5  7  1  0
  7  8  1  0
  8  9  2  0
  9 10  1  0
 10 11  2  0
  2 12  1  0
 12 13  1  6
 13 14  1  0
 15 14  1  6
 15 16  1  0
 16 17  1  1
 17 18  1  1
 17 19  1  0
 20 19  1  1
 20 21  1  0
 21 22  1  0
 22 23  1  1
 22 24  1  0
 24 25  1  0
 25 26  1  0
 26 27  1  6
 26 28  1  0
 28 29  1  6
 29 30  1  0
 30 31  1  0
 31 32  1  6
 11  7  1  0
 31 12  1  0
 31 15  1  0
 28 16  1  0
 26 20  1  0
M  END
>  <MS_ID>  (2778) 
MS2872

>  <SMILES>  (2778) 
C[C@H](CCC(=O)n1cncn1)[C@H]1CC[C@H]2[C@@H]3[C@H](O)C[C@@H]4C[C@H](O)CC[C@]4(C)[C@H]3CC[C@]12C

>  <Structure_dimension>  (2778) 
2D

$$$$
MS2873
     RDKit          2D

 31 34  0  0  0  0  0  0  0  0999 V2000
   -5.3871   -2.1466    0.0000 C   0  0  0  0  0  0  0  0  0  0  0  0
   -4.1570   -1.2883    0.0000 C   0  0  0  0  0  0  0  0  0  0  0  0
   -4.2853    0.2062    0.0000 C   0  0  0  0  0  0  0  0  0  0  0  0
   -5.6437    0.8424    0.0000 C   0  0  0  0  0  0  0  0  0  0  0  0
   -5.7720    2.3369    0.0000 C   0  0  0  0  0  0  0  0  0  0  0  0
   -4.5419    3.1952    0.0000 O   0  0  0  0  0  0  0  0  0  0  0  0
   -7.1305    2.9730    0.0000 O   0  0  0  0  0  0  0  0  0  0  0  0
   -2.7986   -1.9244    0.0000 C   0  0  0  0  0  0  0  0  0  0  0  0
   -2.5148   -3.3973    0.0000 C   0  0  0  0  0  0  0  0  0  0  0  0
   -1.0262   -3.5825    0.0000 C   0  0  0  0  0  0  0  0  0  0  0  0
   -0.3901   -2.2241    0.0000 C   0  0  0  0  0  0  0  0  0  0  0  0
    1.0451   -1.7879    0.0000 C   0  0  0  0  0  0  0  0  0  0  0  0
    2.1404   -2.8127    0.0000 C   0  0  0  0  0  0  0  0  0  0  0  0
    1.8006   -4.2737    0.0000 O   0  0  0  0  0  0  0  0  0  0  0  0
    3.5756   -2.3764    0.0000 C   0  0  0  0  0  0  0  0  0  0  0  0
    3.9154   -0.9154    0.0000 C   0  0  0  0  0  0  0  0  0  0  0  0
    5.3506   -0.4792    0.0000 C   0  0  0  0  0  0  0  0  0  0  0  0
    5.6904    0.9818    0.0000 C   0  0  0  0  0  0  0  0  0  0  0  0
    7.1256    1.4180    0.0000 O   0  0  0  0  0  0  0  0  0  0  0  0
    4.5950    2.0066    0.0000 C   0  0  0  0  0  0  0  0  0  0  0  0
    3.1599    1.5703    0.0000 C   0  0  0  0  0  0  0  0  0  0  0  0
    2.8200    0.1093    0.0000 C   0  0  0  0  0  0  0  0  0  0  0  0
    1.7247    1.1341    0.0000 C   0  0  0  0  0  0  0  0  0  0  0  0
    2.0645    2.5951    0.0000 O   0  0  0  0  0  0  0  0  0  0  0  0
    0.9691    3.6199    0.0000 C   0  0  0  0  0  0  0  0  0  0  0  0
    1.3089    5.0809    0.0000 N   0  0  0  0  0  0  0  0  0  0  0  0
    1.3849   -0.3269    0.0000 C   0  0  0  0  0  0  0  0  0  0  0  0
    0.2895    0.6979    0.0000 C   0  0  0  0  0  0  0  0  0  0  0  0
   -1.1457    0.2617    0.0000 C   0  0  0  0  0  0  0  0  0  0  0  0
   -1.4855   -1.1993    0.0000 C   0  0  0  0  0  0  0  0  0  0  0  0
   -2.6819   -0.2947    0.0000 C   0  0  0  0  0  0  0  0  0  0  0  0
  2  1  1  6
  2  3  1  0
  3  4  1  0
  4  5  1  0
  5  6  2  0
  5  7  1  0
  2  8  1  0
  8  9  1  6
  9 10  1  0
 11 10  1  6
 11 12  1  0
 12 13  1  1
 13 14  1  6
 13 15  1  0
 16 15  1  1
 16 17  1  0
 17 18  1  0
 18 19  1  1
 18 20  1  0
 20 21  1  0
 21 22  1  0
 22 23  1  6
 23 24  1  0
 24 25  1  0
 25 26  1  0
 22 27  1  0
 27 28  1  6
 28 29  1  0
 29 30  1  0
 30 31  1  6
 30  8  1  0
 30 11  1  0
 27 12  1  0
 22 16  1  0
M  END
>  <MS_ID>  (2779) 
MS2873

>  <SMILES>  (2779) 
C[C@H](CCC(=O)O)[C@H]1CC[C@H]2[C@@H]3[C@@H](O)C[C@@H]4C[C@H](O)CC[C@]4(COCN)[C@H]3CC[C@]12C

>  <Structure_dimension>  (2779) 
2D

$$$$
MS2874
     RDKit          2D

 30 33  0  0  0  0  0  0  0  0999 V2000
   -4.9282   -2.3226    0.0000 C   0  0  0  0  0  0  0  0  0  0  0  0
   -3.7737   -1.3649    0.0000 C   0  0  0  0  0  0  0  0  0  0  0  0
   -4.0259    0.1138    0.0000 C   0  0  0  0  0  0  0  0  0  0  0  0
   -5.4325    0.6347    0.0000 C   0  0  0  0  0  0  0  0  0  0  0  0
   -5.6847    2.1133    0.0000 C   0  0  0  0  0  0  0  0  0  0  0  0
   -4.5303    3.0711    0.0000 O   0  0  0  0  0  0  0  0  0  0  0  0
   -7.0914    2.6342    0.0000 O   0  0  0  0  0  0  0  0  0  0  0  0
   -2.3671   -1.8858    0.0000 C   0  0  0  0  0  0  0  0  0  0  0  0
   -1.9617   -3.3300    0.0000 C   0  0  0  0  0  0  0  0  0  0  0  0
   -0.4629   -3.3907    0.0000 C   0  0  0  0  0  0  0  0  0  0  0  0
    0.0580   -1.9841    0.0000 C   0  0  0  0  0  0  0  0  0  0  0  0
    1.4519   -1.4300    0.0000 C   0  0  0  0  0  0  0  0  0  0  0  0
    2.6287   -2.3601    0.0000 C   0  0  0  0  0  0  0  0  0  0  0  0
    2.4116   -3.8443    0.0000 O   0  0  0  0  0  0  0  0  0  0  0  0
    4.0226   -1.8060    0.0000 C   0  0  0  0  0  0  0  0  0  0  0  0
    4.2397   -0.3218    0.0000 C   0  0  0  0  0  0  0  0  0  0  0  0
    5.6336    0.2323    0.0000 C   0  0  0  0  0  0  0  0  0  0  0  0
    5.8507    1.7166    0.0000 C   0  0  0  0  0  0  0  0  0  0  0  0
    7.2446    2.2707    0.0000 O   0  0  0  0  0  0  0  0  0  0  0  0
    4.6739    2.6467    0.0000 C   0  0  0  0  0  0  0  0  0  0  0  0
    3.2800    2.0925    0.0000 C   0  0  0  0  0  0  0  0  0  0  0  0
    3.0629    0.6083    0.0000 C   0  0  0  0  0  0  0  0  0  0  0  0
    1.8861    1.5384    0.0000 C   0  0  0  0  0  0  0  0  0  0  0  0
    1.6690    0.0542    0.0000 C   0  0  0  0  0  0  0  0  0  0  0  0
    0.4922    0.9843    0.0000 C   0  0  0  0  0  0  0  0  0  0  0  0
   -0.9017    0.4302    0.0000 C   0  0  0  0  0  0  0  0  0  0  0  0
   -2.0786    1.3603    0.0000 C   0  0  0  0  0  0  0  0  0  0  0  0
   -1.8615    2.8445    0.0000 O   0  0  0  0  0  0  0  0  0  0  0  0
   -1.1188   -1.0540    0.0000 C   0  0  0  0  0  0  0  0  0  0  0  0
   -2.3864   -0.2520    0.0000 C   0  0  0  0  0  0  0  0  0  0  0  0
  2  1  1  6
  2  3  1  0
  3  4  1  0
  4  5  1  0
  5  6  2  0
  5  7  1  0
  2  8  1  0
  8  9  1  6
  9 10  1  0
 11 10  1  6
 11 12  1  0
 12 13  1  1
 13 14  1  1
 13 15  1  0
 16 15  1  1
 16 17  1  0
 17 18  1  0
 18 19  2  0
 18 20  1  0
 20 21  1  0
 21 22  1  0
 22 23  1  6
 22 24  1  0
 24 25  1  6
 25 26  1  0
 26 27  1  1
 27 28  1  0
 26 29  1  0
 29 30  1  6
 29  8  1  0
 29 11  1  0
 24 12  1  0
 22 16  1  0
M  END
>  <MS_ID>  (2780) 
MS2874

>  <SMILES>  (2780) 
C[C@H](CCC(=O)O)[C@H]1CC[C@H]2[C@@H]3[C@H](O)C[C@@H]4CC(=O)CC[C@]4(C)[C@H]3C[C@H](CO)[C@]12C

>  <Structure_dimension>  (2780) 
2D

$$$$
MS2875
     RDKit          2D

 36 40  0  0  0  0  0  0  0  0999 V2000
   -2.0625   -4.0210    0.0000 C   0  0  0  0  0  0  0  0  0  0  0  0
   -1.2935   -2.7331    0.0000 C   0  0  0  0  0  0  0  0  0  0  0  0
   -2.0243   -1.4232    0.0000 C   0  0  0  0  0  0  0  0  0  0  0  0
   -3.5241   -1.4011    0.0000 C   0  0  0  0  0  0  0  0  0  0  0  0
   -4.2549   -0.0912    0.0000 C   0  0  0  0  0  0  0  0  0  0  0  0
   -3.4858    1.1967    0.0000 O   0  0  0  0  0  0  0  0  0  0  0  0
   -5.7547   -0.0691    0.0000 C   0  0  0  0  0  0  0  0  0  0  0  0
   -6.4855    1.2409    0.0000 C   0  0  0  0  0  0  0  0  0  0  0  0
   -7.9854    1.2630    0.0000 C   0  0  0  0  0  0  0  0  0  0  0  0
   -8.7161    2.5729    0.0000 C   0  0  0  0  0  0  0  0  0  0  0  0
  -10.2160    2.5950    0.0000 C   0  0  0  0  0  0  0  0  0  0  0  0
  -10.9850    1.3071    0.0000 C   0  0  0  0  0  0  0  0  0  0  0  0
  -10.2542   -0.0028    0.0000 C   0  0  0  0  0  0  0  0  0  0  0  0
   -8.7544   -0.0249    0.0000 C   0  0  0  0  0  0  0  0  0  0  0  0
    0.2063   -2.7552    0.0000 C   0  0  0  0  0  0  0  0  0  0  0  0
    1.0701   -3.9816    0.0000 C   0  0  0  0  0  0  0  0  0  0  0  0
    2.5033   -3.5392    0.0000 C   0  0  0  0  0  0  0  0  0  0  0  0
    2.5254   -2.0393    0.0000 C   0  0  0  0  0  0  0  0  0  0  0  0
    3.6548   -1.0521    0.0000 C   0  0  0  0  0  0  0  0  0  0  0  0
    5.0744   -1.5366    0.0000 C   0  0  0  0  0  0  0  0  0  0  0  0
    5.3646   -3.0083    0.0000 O   0  0  0  0  0  0  0  0  0  0  0  0
    6.2038   -0.5495    0.0000 C   0  0  0  0  0  0  0  0  0  0  0  0
    7.6234   -1.0339    0.0000 O   0  0  0  0  0  0  0  0  0  0  0  0
    5.9135    0.9222    0.0000 C   0  0  0  0  0  0  0  0  0  0  0  0
    7.0429    1.9094    0.0000 C   0  0  0  0  0  0  0  0  0  0  0  0
    6.7527    3.3810    0.0000 C   0  0  0  0  0  0  0  0  0  0  0  0
    7.8821    4.3682    0.0000 O   0  0  0  0  0  0  0  0  0  0  0  0
    5.3331    3.8655    0.0000 C   0  0  0  0  0  0  0  0  0  0  0  0
    4.2037    2.8783    0.0000 C   0  0  0  0  0  0  0  0  0  0  0  0
    4.4939    1.4067    0.0000 C   0  0  0  0  0  0  0  0  0  0  0  0
    3.0743    1.8912    0.0000 C   0  0  0  0  0  0  0  0  0  0  0  0
    3.3646    0.4195    0.0000 C   0  0  0  0  0  0  0  0  0  0  0  0
    1.9450    0.9040    0.0000 C   0  0  0  0  0  0  0  0  0  0  0  0
    0.8156   -0.0832    0.0000 C   0  0  0  0  0  0  0  0  0  0  0  0
    1.1058   -1.5548    0.0000 C   0  0  0  0  0  0  0  0  0  0  0  0
   -0.3567   -1.2214    0.0000 C   0  0  0  0  0  0  0  0  0  0  0  0
  2  1  1  6
  2  3  1  0
  3  4  1  0
  4  5  1  0
  5  6  2  0
  5  7  1  0
  7  8  1  0
  8  9  1  0
  9 10  2  0
 10 11  1  0
 11 12  2  0
 12 13  1  0
 13 14  2  0
  2 15  1  0
 15 16  1  6
 16 17  1  0
 18 17  1  6
 18 19  1  0
 19 20  1  1
 20 21  1  1
 20 22  1  0
 22 23  1  1
 22 24  1  0
 24 25  1  1
 25 26  1  0
 26 27  1  1
 26 28  1  0
 28 29  1  0
 29 30  1  0
 30 31  1  6
 30 32  1  0
 32 33  1  6
 33 34  1  0
 34 35  1  0
 35 36  1  6
 14  9  1  0
 35 15  1  0
 35 18  1  0
 32 19  1  0
 30 24  1  0
M  END
>  <MS_ID>  (2781) 
MS2875

>  <SMILES>  (2781) 
C[C@H](CCC(=O)CCc1ccccc1)[C@H]1CC[C@H]2[C@@H]3[C@H](O)[C@H](O)[C@@H]4C[C@H](O)CC[C@]4(C)[C@H]3CC[C@]12C

>  <Structure_dimension>  (2781) 
2D

$$$$
MS2876
     RDKit          2D

 41 45  0  0  0  0  0  0  0  0999 V2000
   -0.5490   -4.2472    0.0000 C   0  0  0  0  0  0  0  0  0  0  0  0
    0.1492   -2.9196    0.0000 C   0  0  0  0  0  0  0  0  0  0  0  0
   -0.6515   -1.6512    0.0000 C   0  0  0  0  0  0  0  0  0  0  0  0
   -2.1503   -1.7104    0.0000 C   0  0  0  0  0  0  0  0  0  0  0  0
   -2.9510   -0.4419    0.0000 C   0  0  0  0  0  0  0  0  0  0  0  0
   -2.2528    0.8857    0.0000 O   0  0  0  0  0  0  0  0  0  0  0  0
   -4.4498   -0.5011    0.0000 O   0  0  0  0  0  0  0  0  0  0  0  0
   -5.2505    0.7673    0.0000 C   0  0  0  0  0  0  0  0  0  0  0  0
   -6.7493    0.7081    0.0000 C   0  0  0  0  0  0  0  0  0  0  0  0
   -7.5500    1.9766    0.0000 O   0  0  0  0  0  0  0  0  0  0  0  0
   -9.0488    1.9174    0.0000 C   0  0  0  0  0  0  0  0  0  0  0  0
   -9.8495    3.1858    0.0000 C   0  0  0  0  0  0  0  0  0  0  0  0
   -9.1513    4.5134    0.0000 O   0  0  0  0  0  0  0  0  0  0  0  0
   -9.7470    0.5898    0.0000 C   0  0  0  0  0  0  0  0  0  0  0  0
  -11.2458    0.5306    0.0000 O   0  0  0  0  0  0  0  0  0  0  0  0
   -8.9463   -0.6787    0.0000 C   0  0  0  0  0  0  0  0  0  0  0  0
   -9.6445   -2.0063    0.0000 O   0  0  0  0  0  0  0  0  0  0  0  0
   -7.4475   -0.6195    0.0000 C   0  0  0  0  0  0  0  0  0  0  0  0
   -6.6468   -1.8879    0.0000 O   0  0  0  0  0  0  0  0  0  0  0  0
    1.6480   -2.8604    0.0000 C   0  0  0  0  0  0  0  0  0  0  0  0
    2.5769   -4.0382    0.0000 C   0  0  0  0  0  0  0  0  0  0  0  0
    3.9841   -3.5188    0.0000 C   0  0  0  0  0  0  0  0  0  0  0  0
    3.9249   -2.0200    0.0000 C   0  0  0  0  0  0  0  0  0  0  0  0
    4.9991   -0.9731    0.0000 C   0  0  0  0  0  0  0  0  0  0  0  0
    6.4429   -1.3799    0.0000 C   0  0  0  0  0  0  0  0  0  0  0  0
    6.8124   -2.8337    0.0000 O   0  0  0  0  0  0  0  0  0  0  0  0
    7.5171   -0.3330    0.0000 C   0  0  0  0  0  0  0  0  0  0  0  0
    8.9609   -0.7399    0.0000 O   0  0  0  0  0  0  0  0  0  0  0  0
    7.1476    1.1207    0.0000 C   0  0  0  0  0  0  0  0  0  0  0  0
    8.2219    2.1676    0.0000 C   0  0  0  0  0  0  0  0  0  0  0  0
    7.8524    3.6214    0.0000 C   0  0  0  0  0  0  0  0  0  0  0  0
    8.9266    4.6683    0.0000 O   0  0  0  0  0  0  0  0  0  0  0  0
    6.4086    4.0283    0.0000 C   0  0  0  0  0  0  0  0  0  0  0  0
    5.3343    2.9814    0.0000 C   0  0  0  0  0  0  0  0  0  0  0  0
    5.7039    1.5276    0.0000 C   0  0  0  0  0  0  0  0  0  0  0  0
    4.2601    1.9345    0.0000 C   0  0  0  0  0  0  0  0  0  0  0  0
    4.6296    0.4807    0.0000 C   0  0  0  0  0  0  0  0  0  0  0  0
    3.1859    0.8876    0.0000 C   0  0  0  0  0  0  0  0  0  0  0  0
    2.1116   -0.1593    0.0000 C   0  0  0  0  0  0  0  0  0  0  0  0
    2.4811   -1.6131    0.0000 C   0  0  0  0  0  0  0  0  0  0  0  0
    1.0027   -1.3593    0.0000 C   0  0  0  0  0  0  0  0  0  0  0  0
  2  1  1  6
  2  3  1  0
  3  4  1  0
  4  5  1  0
  5  6  2  0
  5  7  1  0
  7  8  1  0
  9  8  1  1
  9 10  1  0
 10 11  1  0
 11 12  1  1
 12 13  1  0
 11 14  1  0
 14 15  1  6
 14 16  1  0
 16 17  1  1
 16 18  1  0
 18 19  1  6
  2 20  1  0
 20 21  1  6
 21 22  1  0
 23 22  1  6
 23 24  1  0
 24 25  1  1
 25 26  1  1
 25 27  1  0
 27 28  1  1
 27 29  1  0
 29 30  1  1
 30 31  1  0
 31 32  1  1
 31 33  1  0
 33 34  1  0
 34 35  1  0
 35 36  1  6
 35 37  1  0
 37 38  1  6
 38 39  1  0
 39 40  1  0
 40 41  1  6
 18  9  1  0
 40 20  1  0
 40 23  1  0
 37 24  1  0
 35 29  1  0
M  END
>  <MS_ID>  (2782) 
MS2876

>  <SMILES>  (2782) 
C[C@H](CCC(=O)OC[C@@H]1O[C@H](CO)[C@@H](O)[C@H](O)[C@H]1O)[C@H]1CC[C@H]2[C@@H]3[C@H](O)[C@H](O)[C@@H]4C[C@H](O)CC[C@]4(C)[C@H]3CC[C@]12C

>  <Structure_dimension>  (2782) 
2D

$$$$
MS2877
     RDKit          2D

 36 39  0  0  0  0  0  0  0  0999 V2000
   -1.2089   -5.5262    0.0000 C   0  0  0  0  0  0  0  0  0  0  0  0
   -0.8485   -4.0701    0.0000 C   0  0  0  0  0  0  0  0  0  0  0  0
   -1.9292   -3.0299    0.0000 C   0  0  0  0  0  0  0  0  0  0  0  0
   -3.3704   -3.4458    0.0000 C   0  0  0  0  0  0  0  0  0  0  0  0
   -4.4512   -2.4056    0.0000 C   0  0  0  0  0  0  0  0  0  0  0  0
   -5.8924   -2.8215    0.0000 O   0  0  0  0  0  0  0  0  0  0  0  0
   -4.0907   -0.9496    0.0000 O   0  0  0  0  0  0  0  0  0  0  0  0
   -5.1715    0.0906    0.0000 C   0  0  0  0  0  0  0  0  0  0  0  0
   -6.6127   -0.3252    0.0000 O   0  0  0  0  0  0  0  0  0  0  0  0
   -4.8110    1.5467    0.0000 C   0  0  0  0  0  0  0  0  0  0  0  0
   -5.8918    2.5868    0.0000 O   0  0  0  0  0  0  0  0  0  0  0  0
   -5.5313    4.0429    0.0000 S   0  0  0  0  0  0  0  0  0  0  0  0
   -4.0753    3.6824    0.0000 O   0  0  0  0  0  0  0  0  0  0  0  0
   -6.9874    4.4033    0.0000 O   0  0  0  0  0  0  0  0  0  0  0  0
   -5.1709    5.4989    0.0000 O   0  0  0  0  0  0  0  0  0  0  0  0
    0.5927   -3.6543    0.0000 C   0  0  0  0  0  0  0  0  0  0  0  0
    1.7763   -4.5758    0.0000 C   0  0  0  0  0  0  0  0  0  0  0  0
    3.0184   -3.7349    0.0000 C   0  0  0  0  0  0  0  0  0  0  0  0
    2.6026   -2.2937    0.0000 C   0  0  0  0  0  0  0  0  0  0  0  0
    3.3953   -1.0203    0.0000 C   0  0  0  0  0  0  0  0  0  0  0  0
    4.8945   -1.0701    0.0000 C   0  0  0  0  0  0  0  0  0  0  0  0
    5.6009   -2.3934    0.0000 O   0  0  0  0  0  0  0  0  0  0  0  0
    5.6872    0.2033    0.0000 C   0  0  0  0  0  0  0  0  0  0  0  0
    4.9808    1.5265    0.0000 C   0  0  0  0  0  0  0  0  0  0  0  0
    5.7736    2.7999    0.0000 C   0  0  0  0  0  0  0  0  0  0  0  0
    5.0672    4.1231    0.0000 C   0  0  0  0  0  0  0  0  0  0  0  0
    5.8599    5.3965    0.0000 O   0  0  0  0  0  0  0  0  0  0  0  0
    3.5680    4.1730    0.0000 C   0  0  0  0  0  0  0  0  0  0  0  0
    2.7752    2.8996    0.0000 C   0  0  0  0  0  0  0  0  0  0  0  0
    3.4817    1.5763    0.0000 C   0  0  0  0  0  0  0  0  0  0  0  0
    1.9825    1.6262    0.0000 C   0  0  0  0  0  0  0  0  0  0  0  0
    2.6889    0.3029    0.0000 C   0  0  0  0  0  0  0  0  0  0  0  0
    1.1897    0.3528    0.0000 C   0  0  0  0  0  0  0  0  0  0  0  0
    0.3970   -0.9206    0.0000 C   0  0  0  0  0  0  0  0  0  0  0  0
    1.1034   -2.2439    0.0000 C   0  0  0  0  0  0  0  0  0  0  0  0
   -0.3928   -2.3510    0.0000 C   0  0  0  0  0  0  0  0  0  0  0  0
  2  1  1  6
  2  3  1  0
  3  4  1  0
  4  5  1  0
  5  6  2  0
  5  7  1  0
  7  8  1  0
  8  9  2  0
  8 10  1  0
 10 11  1  0
 11 12  1  0
 12 13  2  0
 12 14  2  0
 12 15  1  0
  2 16  1  0
 16 17  1  6
 17 18  1  0
 19 18  1  6
 19 20  1  0
 20 21  1  1
 21 22  1  6
 21 23  1  0
 24 23  1  1
 24 25  1  0
 25 26  1  0
 26 27  1  1
 26 28  1  0
 28 29  1  0
 29 30  1  0
 30 31  1  6
 30 32  1  0
 32 33  1  6
 33 34  1  0
 34 35  1  0
 35 36  1  6
 35 16  1  0
 35 19  1  0
 32 20  1  0
 30 24  1  0
M  END
>  <MS_ID>  (2783) 
MS2877

>  <SMILES>  (2783) 
C[C@H](CCC(=O)OC(=O)COS(=O)(=O)O)[C@H]1CC[C@H]2[C@@H]3[C@@H](O)C[C@@H]4C[C@H](O)CC[C@]4(C)[C@H]3CC[C@]12C

>  <Structure_dimension>  (2783) 
2D

$$$$
MS2879
     RDKit          2D

 33 37  0  0  0  0  0  0  0  0999 V2000
   -2.6982   -4.1233    0.0000 C   0  0  0  0  0  0  0  0  0  0  0  0
   -1.9222   -2.8397    0.0000 C   0  0  0  0  0  0  0  0  0  0  0  0
   -2.6459   -1.5258    0.0000 C   0  0  0  0  0  0  0  0  0  0  0  0
   -4.1456   -1.4956    0.0000 C   0  0  0  0  0  0  0  0  0  0  0  0
   -4.8692   -0.1817    0.0000 C   0  0  0  0  0  0  0  0  0  0  0  0
   -4.0932    1.1020    0.0000 O   0  0  0  0  0  0  0  0  0  0  0  0
   -6.3689   -0.1514    0.0000 N   0  0  0  0  0  0  0  0  0  0  0  0
   -7.0926    1.1625    0.0000 C   0  0  0  0  0  0  0  0  0  0  0  0
   -8.5809    1.3493    0.0000 C   0  0  0  0  0  0  0  0  0  0  0  0
   -8.8631    2.8225    0.0000 C   0  0  0  0  0  0  0  0  0  0  0  0
   -7.5492    3.5462    0.0000 C   0  0  0  0  0  0  0  0  0  0  0  0
   -6.4550    2.5202    0.0000 O   0  0  0  0  0  0  0  0  0  0  0  0
   -0.4225   -2.8699    0.0000 C   0  0  0  0  0  0  0  0  0  0  0  0
    0.4345   -4.1010    0.0000 C   0  0  0  0  0  0  0  0  0  0  0  0
    1.8702   -3.6663    0.0000 C   0  0  0  0  0  0  0  0  0  0  0  0
    1.9004   -2.1666    0.0000 C   0  0  0  0  0  0  0  0  0  0  0  0
    3.0351   -1.1856    0.0000 C   0  0  0  0  0  0  0  0  0  0  0  0
    4.4521   -1.6778    0.0000 C   0  0  0  0  0  0  0  0  0  0  0  0
    4.7343   -3.1510    0.0000 O   0  0  0  0  0  0  0  0  0  0  0  0
    5.5868   -0.6967    0.0000 C   0  0  0  0  0  0  0  0  0  0  0  0
    5.3046    0.7765    0.0000 C   0  0  0  0  0  0  0  0  0  0  0  0
    6.4393    1.7575    0.0000 C   0  0  0  0  0  0  0  0  0  0  0  0
    6.1571    3.2307    0.0000 C   0  0  0  0  0  0  0  0  0  0  0  0
    7.2918    4.2117    0.0000 O   0  0  0  0  0  0  0  0  0  0  0  0
    4.7401    3.7229    0.0000 C   0  0  0  0  0  0  0  0  0  0  0  0
    3.6054    2.7419    0.0000 C   0  0  0  0  0  0  0  0  0  0  0  0
    3.8876    1.2687    0.0000 C   0  0  0  0  0  0  0  0  0  0  0  0
    2.4707    1.7609    0.0000 C   0  0  0  0  0  0  0  0  0  0  0  0
    2.7529    0.2876    0.0000 C   0  0  0  0  0  0  0  0  0  0  0  0
    1.3360    0.7798    0.0000 C   0  0  0  0  0  0  0  0  0  0  0  0
    0.2012   -0.2012    0.0000 C   0  0  0  0  0  0  0  0  0  0  0  0
    0.4835   -1.6744    0.0000 C   0  0  0  0  0  0  0  0  0  0  0  0
   -0.9772   -1.3330    0.0000 C   0  0  0  0  0  0  0  0  0  0  0  0
  2  1  1  6
  2  3  1  0
  3  4  1  0
  4  5  1  0
  5  6  2  0
  5  7  1  0
  7  8  1  0
  8  9  2  0
  9 10  1  0
 10 11  2  0
 11 12  1  0
  2 13  1  0
 13 14  1  6
 14 15  1  0
 16 15  1  6
 16 17  1  0
 17 18  1  1
 18 19  1  1
 18 20  1  0
 21 20  1  1
 21 22  1  0
 22 23  1  0
 23 24  1  1
 23 25  1  0
 25 26  1  0
 26 27  1  0
 27 28  1  6
 27 29  1  0
 29 30  1  6
 30 31  1  0
 31 32  1  0
 32 33  1  6
 12  8  1  0
 32 13  1  0
 32 16  1  0
 29 17  1  0
 27 21  1  0
M  END
>  <MS_ID>  (2784) 
MS2879

>  <SMILES>  (2784) 
C[C@H](CCC(=O)Nc1ccco1)[C@H]1CC[C@H]2[C@@H]3[C@H](O)C[C@@H]4C[C@H](O)CC[C@]4(C)[C@H]3CC[C@]12C

>  <Structure_dimension>  (2784) 
2D

$$$$
MS2880
     RDKit          2D

 31 34  0  0  0  0  0  0  0  0999 V2000
   -3.4301   -3.6172    0.0000 C   0  0  0  0  0  0  0  0  0  0  0  0
   -2.4973   -2.4425    0.0000 C   0  0  0  0  0  0  0  0  0  0  0  0
   -3.0483   -1.0473    0.0000 C   0  0  0  0  0  0  0  0  0  0  0  0
   -4.5321   -0.8270    0.0000 C   0  0  0  0  0  0  0  0  0  0  0  0
   -5.0831    0.5682    0.0000 C   0  0  0  0  0  0  0  0  0  0  0  0
   -4.1503    1.7429    0.0000 O   0  0  0  0  0  0  0  0  0  0  0  0
   -6.5668    0.7886    0.0000 O   0  0  0  0  0  0  0  0  0  0  0  0
   -7.1178    2.1837    0.0000 C   0  0  0  0  0  0  0  0  0  0  0  0
   -8.6015    2.4041    0.0000 C   0  0  0  0  0  0  0  0  0  0  0  0
   -9.1525    3.7992    0.0000 S   0  0  0  0  0  0  0  0  0  0  0  0
   -1.0136   -2.6629    0.0000 C   0  0  0  0  0  0  0  0  0  0  0  0
   -0.3198   -3.9928    0.0000 C   0  0  0  0  0  0  0  0  0  0  0  0
    1.1594   -3.7439    0.0000 C   0  0  0  0  0  0  0  0  0  0  0  0
    1.3798   -2.2602    0.0000 C   0  0  0  0  0  0  0  0  0  0  0  0
    2.6299   -1.4311    0.0000 C   0  0  0  0  0  0  0  0  0  0  0  0
    3.9729   -2.0992    0.0000 C   0  0  0  0  0  0  0  0  0  0  0  0
    5.2230   -1.2702    0.0000 C   0  0  0  0  0  0  0  0  0  0  0  0
    5.1301    0.2269    0.0000 C   0  0  0  0  0  0  0  0  0  0  0  0
    6.3802    1.0559    0.0000 C   0  0  0  0  0  0  0  0  0  0  0  0
    6.2872    2.5531    0.0000 C   0  0  0  0  0  0  0  0  0  0  0  0
    7.5373    3.3821    0.0000 O   0  0  0  0  0  0  0  0  0  0  0  0
    4.9442    3.2212    0.0000 C   0  0  0  0  0  0  0  0  0  0  0  0
    3.6942    2.3921    0.0000 C   0  0  0  0  0  0  0  0  0  0  0  0
    3.7871    0.8950    0.0000 C   0  0  0  0  0  0  0  0  0  0  0  0
    2.4441    1.5631    0.0000 C   0  0  0  0  0  0  0  0  0  0  0  0
    2.5370    0.0660    0.0000 C   0  0  0  0  0  0  0  0  0  0  0  0
    1.1940    0.7341    0.0000 C   0  0  0  0  0  0  0  0  0  0  0  0
   -0.0561   -0.0949    0.0000 C   0  0  0  0  0  0  0  0  0  0  0  0
   -1.3991    0.5732    0.0000 O   0  0  0  0  0  0  0  0  0  0  0  0
    0.0368   -1.5921    0.0000 C   0  0  0  0  0  0  0  0  0  0  0  0
   -1.3687   -1.0680    0.0000 C   0  0  0  0  0  0  0  0  0  0  0  0
  2  1  1  6
  2  3  1  0
  3  4  1  0
  4  5  1  0
  5  6  2  0
  5  7  1  0
  7  8  1  0
  8  9  1  0
  9 10  1  0
  2 11  1  0
 11 12  1  6
 12 13  1  0
 14 13  1  6
 14 15  1  0
 15 16  1  1
 16 17  1  0
 18 17  1  1
 18 19  1  0
 19 20  1  0
 20 21  1  1
 20 22  1  0
 22 23  1  0
 23 24  1  0
 24 25  1  6
 24 26  1  0
 26 27  1  6
 27 28  1  0
 28 29  1  1
 28 30  1  0
 30 31  1  6
 30 11  1  0
 30 14  1  0
 26 15  1  0
 24 18  1  0
M  END
>  <MS_ID>  (2785) 
MS2880

>  <SMILES>  (2785) 
C[C@H](CCC(=O)OCCS)[C@H]1CC[C@H]2[C@@H]3CC[C@@H]4C[C@H](O)CC[C@]4(C)[C@H]3C[C@H](O)[C@]12C

>  <Structure_dimension>  (2785) 
2D

$$$$
MS2881
     RDKit          2D

 35 39  0  0  0  0  0  0  0  0999 V2000
   -2.1848   -4.4186    0.0000 C   0  0  0  0  0  0  0  0  0  0  0  0
   -1.4894   -3.0896    0.0000 C   0  0  0  0  0  0  0  0  0  0  0  0
   -2.2927   -1.8228    0.0000 C   0  0  0  0  0  0  0  0  0  0  0  0
   -3.7914   -1.8851    0.0000 C   0  0  0  0  0  0  0  0  0  0  0  0
   -4.5947   -0.6183    0.0000 C   0  0  0  0  0  0  0  0  0  0  0  0
   -3.8993    0.7107    0.0000 O   0  0  0  0  0  0  0  0  0  0  0  0
   -6.0934   -0.6806    0.0000 N   0  0  0  0  0  0  0  0  0  0  0  0
   -6.8968    0.5862    0.0000 C   0  0  0  0  0  0  0  0  0  0  0  0
   -8.3938    0.6809    0.0000 C   0  0  0  0  0  0  0  0  0  0  0  0
   -8.7663    2.1339    0.0000 N   0  0  0  0  0  0  0  0  0  0  0  0
   -7.4995    2.9372    0.0000 N   0  0  0  0  0  0  0  0  0  0  0  0
   -7.4048    4.4342    0.0000 C   0  0  0  0  0  0  0  0  0  0  0  0
   -6.3441    1.9806    0.0000 C   0  0  0  0  0  0  0  0  0  0  0  0
    0.0093   -3.0273    0.0000 C   0  0  0  0  0  0  0  0  0  0  0  0
    0.9406   -4.2031    0.0000 C   0  0  0  0  0  0  0  0  0  0  0  0
    2.3467   -3.6807    0.0000 C   0  0  0  0  0  0  0  0  0  0  0  0
    2.2844   -2.1820    0.0000 C   0  0  0  0  0  0  0  0  0  0  0  0
    3.3565   -1.1329    0.0000 C   0  0  0  0  0  0  0  0  0  0  0  0
    4.8011   -1.5368    0.0000 C   0  0  0  0  0  0  0  0  0  0  0  0
    5.1736   -2.9898    0.0000 O   0  0  0  0  0  0  0  0  0  0  0  0
    5.8731   -0.4877    0.0000 C   0  0  0  0  0  0  0  0  0  0  0  0
    5.5006    0.9653    0.0000 C   0  0  0  0  0  0  0  0  0  0  0  0
    6.5727    2.0145    0.0000 C   0  0  0  0  0  0  0  0  0  0  0  0
    6.2001    3.4675    0.0000 C   0  0  0  0  0  0  0  0  0  0  0  0
    7.2722    4.5166    0.0000 O   0  0  0  0  0  0  0  0  0  0  0  0
    4.7555    3.8713    0.0000 C   0  0  0  0  0  0  0  0  0  0  0  0
    3.6835    2.8222    0.0000 C   0  0  0  0  0  0  0  0  0  0  0  0
    4.0560    1.3692    0.0000 C   0  0  0  0  0  0  0  0  0  0  0  0
    2.6114    1.7731    0.0000 C   0  0  0  0  0  0  0  0  0  0  0  0
    2.9839    0.3201    0.0000 C   0  0  0  0  0  0  0  0  0  0  0  0
    1.5393    0.7240    0.0000 C   0  0  0  0  0  0  0  0  0  0  0  0
    0.4673   -0.3252    0.0000 C   0  0  0  0  0  0  0  0  0  0  0  0
   -0.9773    0.0787    0.0000 O   0  0  0  0  0  0  0  0  0  0  0  0
    0.8398   -1.7782    0.0000 C   0  0  0  0  0  0  0  0  0  0  0  0
   -0.6391   -1.5275    0.0000 C   0  0  0  0  0  0  0  0  0  0  0  0
  2  1  1  6
  2  3  1  0
  3  4  1  0
  4  5  1  0
  5  6  2  0
  5  7  1  0
  7  8  1  0
  8  9  1  0
  9 10  2  0
 10 11  1  0
 11 12  1  0
 11 13  1  0
  2 14  1  0
 14 15  1  6
 15 16  1  0
 17 16  1  6
 17 18  1  0
 18 19  1  1
 19 20  1  1
 19 21  1  0
 22 21  1  1
 22 23  1  0
 23 24  1  0
 24 25  1  1
 24 26  1  0
 26 27  1  0
 27 28  1  0
 28 29  1  6
 28 30  1  0
 30 31  1  6
 31 32  1  0
 32 33  1  1
 32 34  1  0
 34 35  1  6
 13  8  2  0
 34 14  1  0
 34 17  1  0
 30 18  1  0
 28 22  1  0
M  END
>  <MS_ID>  (2786) 
MS2881

>  <SMILES>  (2786) 
C[C@H](CCC(=O)Nc1cnn(C)c1)[C@H]1CC[C@H]2[C@@H]3[C@H](O)C[C@@H]4C[C@H](O)CC[C@]4(C)[C@H]3C[C@H](O)[C@]12C

>  <Structure_dimension>  (2786) 
2D

$$$$
MS2882
     RDKit          2D

 34 37  0  0  0  0  0  0  0  0999 V2000
   -3.5177   -3.6398    0.0000 C   0  0  0  0  0  0  0  0  0  0  0  0
   -2.5891   -2.4618    0.0000 C   0  0  0  0  0  0  0  0  0  0  0  0
   -3.1450   -1.0686    0.0000 C   0  0  0  0  0  0  0  0  0  0  0  0
   -4.6294   -0.8534    0.0000 C   0  0  0  0  0  0  0  0  0  0  0  0
   -5.1853    0.5398    0.0000 C   0  0  0  0  0  0  0  0  0  0  0  0
   -4.2567    1.7178    0.0000 O   0  0  0  0  0  0  0  0  0  0  0  0
   -6.6698    0.7551    0.0000 C   0  0  0  0  0  0  0  0  0  0  0  0
   -7.2257    2.1483    0.0000 C   0  0  0  0  0  0  0  0  0  0  0  0
   -8.7102    2.3635    0.0000 C   0  0  0  0  0  0  0  0  0  0  0  0
   -9.6388    1.1855    0.0000 O   0  0  0  0  0  0  0  0  0  0  0  0
   -9.2660    3.7567    0.0000 O   0  0  0  0  0  0  0  0  0  0  0  0
   -1.1046   -2.6770    0.0000 C   0  0  0  0  0  0  0  0  0  0  0  0
   -0.4062   -4.0044    0.0000 C   0  0  0  0  0  0  0  0  0  0  0  0
    1.0722   -3.7504    0.0000 C   0  0  0  0  0  0  0  0  0  0  0  0
    1.2874   -2.2659    0.0000 C   0  0  0  0  0  0  0  0  0  0  0  0
    2.5346   -1.4325    0.0000 C   0  0  0  0  0  0  0  0  0  0  0  0
    3.8799   -2.0959    0.0000 C   0  0  0  0  0  0  0  0  0  0  0  0
    3.9780   -3.5927    0.0000 O   0  0  0  0  0  0  0  0  0  0  0  0
    5.1271   -1.2625    0.0000 C   0  0  0  0  0  0  0  0  0  0  0  0
    5.0289    0.2343    0.0000 C   0  0  0  0  0  0  0  0  0  0  0  0
    6.2761    1.0677    0.0000 C   0  0  0  0  0  0  0  0  0  0  0  0
    6.1780    2.5645    0.0000 C   0  0  0  0  0  0  0  0  0  0  0  0
    7.4251    3.3978    0.0000 C   0  0  0  0  0  0  0  0  0  0  0  0
    8.7705    2.7344    0.0000 O   0  0  0  0  0  0  0  0  0  0  0  0
    4.8326    3.2279    0.0000 C   0  0  0  0  0  0  0  0  0  0  0  0
    3.5855    2.3945    0.0000 C   0  0  0  0  0  0  0  0  0  0  0  0
    3.6836    0.8977    0.0000 C   0  0  0  0  0  0  0  0  0  0  0  0
    2.3383    1.5611    0.0000 C   0  0  0  0  0  0  0  0  0  0  0  0
    2.4364    0.0643    0.0000 C   0  0  0  0  0  0  0  0  0  0  0  0
    1.0911    0.7277    0.0000 C   0  0  0  0  0  0  0  0  0  0  0  0
   -0.1561   -0.1057    0.0000 C   0  0  0  0  0  0  0  0  0  0  0  0
   -1.5014    0.5577    0.0000 O   0  0  0  0  0  0  0  0  0  0  0  0
   -0.0580   -1.6025    0.0000 C   0  0  0  0  0  0  0  0  0  0  0  0
   -1.4653   -1.0833    0.0000 C   0  0  0  0  0  0  0  0  0  0  0  0
  2  1  1  6
  2  3  1  0
  3  4  1  0
  4  5  1  0
  5  6  2  0
  5  7  1  0
  7  8  1  0
  8  9  1  0
  9 10  2  0
  9 11  1  0
  2 12  1  0
 12 13  1  6
 13 14  1  0
 15 14  1  6
 15 16  1  0
 16 17  1  1
 17 18  1  6
 17 19  1  0
 20 19  1  1
 20 21  1  0
 21 22  1  0
 22 23  1  1
 23 24  1  0
 22 25  1  0
 25 26  1  0
 26 27  1  0
 27 28  1  6
 27 29  1  0
 29 30  1  6
 30 31  1  0
 31 32  1  6
 31 33  1  0
 33 34  1  6
 33 12  1  0
 33 15  1  0
 29 16  1  0
 27 20  1  0
M  END
>  <MS_ID>  (2787) 
MS2882

>  <SMILES>  (2787) 
C[C@H](CCC(=O)CCC(=O)O)[C@H]1CC[C@H]2[C@@H]3[C@@H](O)C[C@@H]4C[C@H](CO)CC[C@]4(C)[C@H]3C[C@@H](O)[C@]12C

>  <Structure_dimension>  (2787) 
2D

$$$$
MS2883
     RDKit          2D

 33 36  0  0  0  0  0  0  0  0999 V2000
   -2.6051   -3.9297    0.0000 C   0  0  0  0  0  0  0  0  0  0  0  0
   -1.7943   -2.6677    0.0000 C   0  0  0  0  0  0  0  0  0  0  0  0
   -2.4819   -1.3345    0.0000 C   0  0  0  0  0  0  0  0  0  0  0  0
   -3.9802   -1.2634    0.0000 C   0  0  0  0  0  0  0  0  0  0  0  0
   -4.6677    0.0698    0.0000 C   0  0  0  0  0  0  0  0  0  0  0  0
   -3.8569    1.3318    0.0000 O   0  0  0  0  0  0  0  0  0  0  0  0
   -6.1660    0.1409    0.0000 C   0  0  0  0  0  0  0  0  0  0  0  0
   -6.8536    1.4741    0.0000 C   0  0  0  0  0  0  0  0  0  0  0  0
   -8.3519    1.5453    0.0000 C   0  0  0  0  0  0  0  0  0  0  0  0
   -9.1627    0.2833    0.0000 O   0  0  0  0  0  0  0  0  0  0  0  0
   -9.0394    2.8784    0.0000 C   0  0  0  0  0  0  0  0  0  0  0  0
  -10.5377    2.9496    0.0000 O   0  0  0  0  0  0  0  0  0  0  0  0
   -0.2960   -2.7388    0.0000 C   0  0  0  0  0  0  0  0  0  0  0  0
    0.5271   -3.9928    0.0000 C   0  0  0  0  0  0  0  0  0  0  0  0
    1.9741   -3.5975    0.0000 C   0  0  0  0  0  0  0  0  0  0  0  0
    2.0452   -2.0992    0.0000 C   0  0  0  0  0  0  0  0  0  0  0  0
    3.2063   -1.1495    0.0000 C   0  0  0  0  0  0  0  0  0  0  0  0
    4.6093   -1.6802    0.0000 C   0  0  0  0  0  0  0  0  0  0  0  0
    4.8512   -3.1605    0.0000 O   0  0  0  0  0  0  0  0  0  0  0  0
    5.7704   -0.7305    0.0000 C   0  0  0  0  0  0  0  0  0  0  0  0
    5.5284    0.7499    0.0000 C   0  0  0  0  0  0  0  0  0  0  0  0
    6.6895    1.6996    0.0000 C   0  0  0  0  0  0  0  0  0  0  0  0
    6.4476    3.1800    0.0000 C   0  0  0  0  0  0  0  0  0  0  0  0
    7.6087    4.1296    0.0000 O   0  0  0  0  0  0  0  0  0  0  0  0
    5.0446    3.7106    0.0000 C   0  0  0  0  0  0  0  0  0  0  0  0
    3.8835    2.7609    0.0000 C   0  0  0  0  0  0  0  0  0  0  0  0
    4.1254    1.2806    0.0000 C   0  0  0  0  0  0  0  0  0  0  0  0
    2.7225    1.8113    0.0000 C   0  0  0  0  0  0  0  0  0  0  0  0
    2.9644    0.3309    0.0000 C   0  0  0  0  0  0  0  0  0  0  0  0
    1.5614    0.8616    0.0000 C   0  0  0  0  0  0  0  0  0  0  0  0
    0.4003   -0.0881    0.0000 C   0  0  0  0  0  0  0  0  0  0  0  0
    0.6422   -1.5685    0.0000 C   0  0  0  0  0  0  0  0  0  0  0  0
   -0.8086   -1.1874    0.0000 C   0  0  0  0  0  0  0  0  0  0  0  0
  2  1  1  6
  2  3  1  0
  3  4  1  0
  4  5  1  0
  5  6  2  0
  5  7  1  0
  7  8  1  0
  8  9  1  0
  9 10  2  0
  9 11  1  0
 11 12  1  0
  2 13  1  0
 13 14  1  6
 14 15  1  0
 16 15  1  6
 16 17  1  0
 17 18  1  1
 18 19  1  1
 18 20  1  0
 21 20  1  1
 21 22  1  0
 22 23  1  0
 23 24  1  1
 23 25  1  0
 25 26  1  0
 26 27  1  0
 27 28  1  6
 27 29  1  0
 29 30  1  6
 30 31  1  0
 31 32  1  0
 32 33  1  6
 32 13  1  0
 32 16  1  0
 29 17  1  0
 27 21  1  0
M  END
>  <MS_ID>  (2788) 
MS2883

>  <SMILES>  (2788) 
C[C@H](CCC(=O)CCC(=O)CO)[C@H]1CC[C@H]2[C@@H]3[C@H](O)C[C@@H]4C[C@H](O)CC[C@]4(C)[C@H]3CC[C@]12C

>  <Structure_dimension>  (2788) 
2D

$$$$
MS2884
     RDKit          2D

 38 41  0  0  0  0  0  0  0  0999 V2000
   -3.0071   -4.0292    0.0000 C   0  0  0  0  0  0  0  0  0  0  0  0
   -2.3704   -2.6710    0.0000 C   0  0  0  0  0  0  0  0  0  0  0  0
   -3.2283   -1.4406    0.0000 C   0  0  0  0  0  0  0  0  0  0  0  0
   -4.7229   -1.5683    0.0000 C   0  0  0  0  0  0  0  0  0  0  0  0
   -5.5808   -0.3379    0.0000 C   0  0  0  0  0  0  0  0  0  0  0  0
   -4.9441    1.0203    0.0000 O   0  0  0  0  0  0  0  0  0  0  0  0
   -7.0753   -0.4656    0.0000 O   0  0  0  0  0  0  0  0  0  0  0  0
   -7.9332    0.7648    0.0000 C   0  0  0  0  0  0  0  0  0  0  0  0
   -9.1637   -0.0931    0.0000 C   0  0  0  0  0  0  0  0  0  0  0  0
   -6.7028    1.6227    0.0000 C   0  0  0  0  0  0  0  0  0  0  0  0
   -8.7911    1.9953    0.0000 C   0  0  0  0  0  0  0  0  0  0  0  0
   -8.1545    3.3535    0.0000 O   0  0  0  0  0  0  0  0  0  0  0  0
   -0.8759   -2.5433    0.0000 C   0  0  0  0  0  0  0  0  0  0  0  0
    0.1059   -3.6773    0.0000 C   0  0  0  0  0  0  0  0  0  0  0  0
    1.4879   -3.0940    0.0000 C   0  0  0  0  0  0  0  0  0  0  0  0
    1.3601   -1.5994    0.0000 C   0  0  0  0  0  0  0  0  0  0  0  0
    2.3853   -0.5045    0.0000 C   0  0  0  0  0  0  0  0  0  0  0  0
    3.8462   -0.8448    0.0000 C   0  0  0  0  0  0  0  0  0  0  0  0
    4.2819   -2.2801    0.0000 O   0  0  0  0  0  0  0  0  0  0  0  0
    5.7428   -2.6205    0.0000 S   0  0  0  0  0  0  0  0  0  0  0  0
    6.0831   -1.1596    0.0000 O   0  0  0  0  0  0  0  0  0  0  0  0
    5.4024   -4.0814    0.0000 O   0  0  0  0  0  0  0  0  0  0  0  0
    7.2036   -2.9609    0.0000 O   0  0  0  0  0  0  0  0  0  0  0  0
    4.8714    0.2502    0.0000 C   0  0  0  0  0  0  0  0  0  0  0  0
    4.4357    1.6855    0.0000 C   0  0  0  0  0  0  0  0  0  0  0  0
    5.4609    2.7805    0.0000 C   0  0  0  0  0  0  0  0  0  0  0  0
    5.0252    4.2158    0.0000 C   0  0  0  0  0  0  0  0  0  0  0  0
    6.0504    5.3108    0.0000 O   0  0  0  0  0  0  0  0  0  0  0  0
    3.5644    4.5562    0.0000 C   0  0  0  0  0  0  0  0  0  0  0  0
    2.5392    3.4612    0.0000 C   0  0  0  0  0  0  0  0  0  0  0  0
    2.9748    2.0259    0.0000 C   0  0  0  0  0  0  0  0  0  0  0  0
    1.5140    2.3662    0.0000 C   0  0  0  0  0  0  0  0  0  0  0  0
    1.9496    0.9309    0.0000 C   0  0  0  0  0  0  0  0  0  0  0  0
    0.4888    1.2712    0.0000 C   0  0  0  0  0  0  0  0  0  0  0  0
   -0.5364    0.1763    0.0000 C   0  0  0  0  0  0  0  0  0  0  0  0
   -1.9973    0.5166    0.0000 O   0  0  0  0  0  0  0  0  0  0  0  0
   -0.1007   -1.2591    0.0000 C   0  0  0  0  0  0  0  0  0  0  0  0
   -1.5892   -1.0733    0.0000 C   0  0  0  0  0  0  0  0  0  0  0  0
  2  1  1  6
  2  3  1  0
  3  4  1  0
  4  5  1  0
  5  6  2  0
  5  7  1  0
  7  8  1  0
  8  9  1  0
  8 10  1  0
  8 11  1  0
 11 12  1  0
  2 13  1  0
 13 14  1  6
 14 15  1  0
 16 15  1  6
 16 17  1  0
 17 18  1  1
 18 19  1  1
 19 20  1  0
 20 21  2  0
 20 22  2  0
 20 23  1  0
 18 24  1  0
 25 24  1  1
 25 26  1  0
 26 27  1  0
 27 28  1  1
 27 29  1  0
 29 30  1  0
 30 31  1  0
 31 32  1  6
 31 33  1  0
 33 34  1  6
 34 35  1  0
 35 36  1  1
 35 37  1  0
 37 38  1  6
 37 13  1  0
 37 16  1  0
 33 17  1  0
 31 25  1  0
M  END
>  <MS_ID>  (2789) 
MS2884

>  <SMILES>  (2789) 
C[C@H](CCC(=O)OC(C)(C)CO)[C@H]1CC[C@H]2[C@@H]3[C@H](OS(=O)(=O)O)C[C@@H]4C[C@H](O)CC[C@]4(C)[C@H]3C[C@H](O)[C@]12C

>  <Structure_dimension>  (2789) 
2D

$$$$
MS2885
     RDKit          2D

 31 34  0  0  0  0  0  0  0  0999 V2000
   -7.4149    3.3714    0.0000 C   0  0  0  0  0  0  0  0  0  0  0  0
   -7.0398    1.9191    0.0000 O   0  0  0  0  0  0  0  0  0  0  0  0
   -5.5945    1.5177    0.0000 C   0  0  0  0  0  0  0  0  0  0  0  0
   -4.5243    2.5687    0.0000 O   0  0  0  0  0  0  0  0  0  0  0  0
   -5.2194    0.0654    0.0000 C   0  0  0  0  0  0  0  0  0  0  0  0
   -3.7741   -0.3360    0.0000 C   0  0  0  0  0  0  0  0  0  0  0  0
   -3.3991   -1.7883    0.0000 C   0  0  0  0  0  0  0  0  0  0  0  0
   -4.4693   -2.8393    0.0000 C   0  0  0  0  0  0  0  0  0  0  0  0
   -1.9537   -2.1897    0.0000 C   0  0  0  0  0  0  0  0  0  0  0  0
   -1.4289   -3.5949    0.0000 C   0  0  0  0  0  0  0  0  0  0  0  0
    0.0697   -3.5300    0.0000 C   0  0  0  0  0  0  0  0  0  0  0  0
    0.4710   -2.0847    0.0000 C   0  0  0  0  0  0  0  0  0  0  0  0
    1.8137   -1.4158    0.0000 C   0  0  0  0  0  0  0  0  0  0  0  0
    3.0642   -2.2442    0.0000 C   0  0  0  0  0  0  0  0  0  0  0  0
    2.9721   -3.7413    0.0000 O   0  0  0  0  0  0  0  0  0  0  0  0
    4.4068   -1.5753    0.0000 C   0  0  0  0  0  0  0  0  0  0  0  0
    4.4989   -0.0781    0.0000 C   0  0  0  0  0  0  0  0  0  0  0  0
    5.8416    0.5907    0.0000 C   0  0  0  0  0  0  0  0  0  0  0  0
    5.9336    2.0879    0.0000 C   0  0  0  0  0  0  0  0  0  0  0  0
    7.2763    2.7567    0.0000 O   0  0  0  0  0  0  0  0  0  0  0  0
    4.6831    2.9162    0.0000 C   0  0  0  0  0  0  0  0  0  0  0  0
    3.3405    2.2474    0.0000 C   0  0  0  0  0  0  0  0  0  0  0  0
    3.2484    0.7502    0.0000 C   0  0  0  0  0  0  0  0  0  0  0  0
    1.9978    1.5785    0.0000 C   0  0  0  0  0  0  0  0  0  0  0  0
    1.9057    0.0814    0.0000 C   0  0  0  0  0  0  0  0  0  0  0  0
    0.6552    0.9097    0.0000 C   0  0  0  0  0  0  0  0  0  0  0  0
   -0.6874    0.2408    0.0000 C   0  0  0  0  0  0  0  0  0  0  0  0
   -1.9380    1.0692    0.0000 O   0  0  0  0  0  0  0  0  0  0  0  0
   -1.8459    2.5664    0.0000 Br  0  0  0  0  0  0  0  0  0  0  0  0
   -0.7795   -1.2563    0.0000 C   0  0  0  0  0  0  0  0  0  0  0  0
   -2.1098   -0.5632    0.0000 C   0  0  0  0  0  0  0  0  0  0  0  0
  1  2  1  0
  2  3  1  0
  3  4  2  0
  3  5  1  0
  5  6  1  0
  6  7  1  0
  7  8  1  6
  7  9  1  0
  9 10  1  6
 10 11  1  0
 12 11  1  6
 12 13  1  0
 13 14  1  1
 14 15  1  1
 14 16  1  0
 17 16  1  1
 17 18  1  0
 18 19  1  0
 19 20  1  1
 19 21  1  0
 21 22  1  0
 22 23  1  0
 23 24  1  6
 23 25  1  0
 25 26  1  6
 26 27  1  0
 27 28  1  1
 28 29  1  0
 27 30  1  0
 30 31  1  6
 30  9  1  0
 30 12  1  0
 25 13  1  0
 23 17  1  0
M  END
>  <MS_ID>  (2790) 
MS2885

>  <SMILES>  (2790) 
COC(=O)CC[C@@H](C)[C@H]1CC[C@H]2[C@@H]3[C@H](O)C[C@@H]4C[C@H](O)CC[C@]4(C)[C@H]3C[C@H](OBr)[C@]12C

>  <Structure_dimension>  (2790) 
2D

$$$$
MS2886
     RDKit          2D

 33 36  0  0  0  0  0  0  0  0999 V2000
   -9.4184    0.8688    0.0000 C   0  0  0  0  0  0  0  0  0  0  0  0
   -8.5407    2.0852    0.0000 C   0  0  0  0  0  0  0  0  0  0  0  0
   -9.1553    3.4535    0.0000 C   0  0  0  0  0  0  0  0  0  0  0  0
   -7.0484    1.9333    0.0000 C   0  0  0  0  0  0  0  0  0  0  0  0
   -6.4339    0.5650    0.0000 N   0  0  0  0  0  0  0  0  0  0  0  0
   -4.9416    0.4131    0.0000 C   0  0  0  0  0  0  0  0  0  0  0  0
   -4.0639    1.6295    0.0000 O   0  0  0  0  0  0  0  0  0  0  0  0
   -4.3270   -0.9552    0.0000 C   0  0  0  0  0  0  0  0  0  0  0  0
   -2.8347   -1.1072    0.0000 C   0  0  0  0  0  0  0  0  0  0  0  0
   -2.2201   -2.4755    0.0000 C   0  0  0  0  0  0  0  0  0  0  0  0
   -3.0978   -3.6919    0.0000 C   0  0  0  0  0  0  0  0  0  0  0  0
   -0.7278   -2.6274    0.0000 C   0  0  0  0  0  0  0  0  0  0  0  0
    0.0264   -3.9240    0.0000 C   0  0  0  0  0  0  0  0  0  0  0  0
    1.4926   -3.6073    0.0000 C   0  0  0  0  0  0  0  0  0  0  0  0
    1.6445   -2.1150    0.0000 C   0  0  0  0  0  0  0  0  0  0  0  0
    2.8552   -1.2294    0.0000 C   0  0  0  0  0  0  0  0  0  0  0  0
    4.2275   -1.8350    0.0000 C   0  0  0  0  0  0  0  0  0  0  0  0
    4.3891   -3.3263    0.0000 O   0  0  0  0  0  0  0  0  0  0  0  0
    5.4381   -0.9494    0.0000 C   0  0  0  0  0  0  0  0  0  0  0  0
    5.2764    0.5419    0.0000 C   0  0  0  0  0  0  0  0  0  0  0  0
    6.4871    1.4275    0.0000 C   0  0  0  0  0  0  0  0  0  0  0  0
    6.3254    2.9188    0.0000 C   0  0  0  0  0  0  0  0  0  0  0  0
    7.5360    3.8044    0.0000 O   0  0  0  0  0  0  0  0  0  0  0  0
    4.9531    3.5244    0.0000 C   0  0  0  0  0  0  0  0  0  0  0  0
    3.7425    2.6388    0.0000 C   0  0  0  0  0  0  0  0  0  0  0  0
    3.9041    1.1475    0.0000 C   0  0  0  0  0  0  0  0  0  0  0  0
    2.5318    1.7531    0.0000 C   0  0  0  0  0  0  0  0  0  0  0  0
    2.6935    0.2619    0.0000 C   0  0  0  0  0  0  0  0  0  0  0  0
    1.3212    0.8675    0.0000 C   0  0  0  0  0  0  0  0  0  0  0  0
    0.1105   -0.0181    0.0000 C   0  0  0  0  0  0  0  0  0  0  0  0
   -1.2618    0.5875    0.0000 O   0  0  0  0  0  0  0  0  0  0  0  0
    0.2722   -1.5094    0.0000 C   0  0  0  0  0  0  0  0  0  0  0  0
   -1.1559   -1.0505    0.0000 C   0  0  0  0  0  0  0  0  0  0  0  0
  1  2  2  0
  2  3  1  0
  2  4  1  0
  4  5  1  0
  5  6  1  0
  6  7  2  0
  6  8  1  0
  8  9  1  0
  9 10  1  0
 10 11  1  6
 10 12  1  0
 12 13  1  6
 13 14  1  0
 15 14  1  6
 15 16  1  0
 16 17  1  1
 17 18  1  1
 17 19  1  0
 20 19  1  1
 20 21  1  0
 21 22  1  0
 22 23  1  1
 22 24  1  0
 24 25  1  0
 25 26  1  0
 26 27  1  6
 26 28  1  0
 28 29  1  6
 29 30  1  0
 30 31  1  1
 30 32  1  0
 32 33  1  6
 32 12  1  0
 32 15  1  0
 28 16  1  0
 26 20  1  0
M  END
>  <MS_ID>  (2791) 
MS2886

>  <SMILES>  (2791) 
C=C(C)CNC(=O)CC[C@@H](C)[C@H]1CC[C@H]2[C@@H]3[C@H](O)C[C@@H]4C[C@H](O)CC[C@]4(C)[C@H]3C[C@H](O)[C@]12C

>  <Structure_dimension>  (2791) 
2D

$$$$
MS2887
     RDKit          2D

 33 36  0  0  0  0  0  0  0  0999 V2000
   -6.7983   -1.8285    0.0000 C   0  0  0  0  0  0  0  0  0  0  0  0
   -5.5727   -0.9636    0.0000 C   0  0  0  0  0  0  0  0  0  0  0  0
   -5.7089    0.5302    0.0000 C   0  0  0  0  0  0  0  0  0  0  0  0
   -7.0707    1.1591    0.0000 C   0  0  0  0  0  0  0  0  0  0  0  0
   -7.2069    2.6529    0.0000 C   0  0  0  0  0  0  0  0  0  0  0  0
   -5.9813    3.5178    0.0000 O   0  0  0  0  0  0  0  0  0  0  0  0
   -8.5686    3.2819    0.0000 O   0  0  0  0  0  0  0  0  0  0  0  0
   -4.2110   -1.5926    0.0000 C   0  0  0  0  0  0  0  0  0  0  0  0
   -3.9194   -3.0640    0.0000 C   0  0  0  0  0  0  0  0  0  0  0  0
   -2.4299   -3.2413    0.0000 C   0  0  0  0  0  0  0  0  0  0  0  0
   -1.8009   -1.8796    0.0000 C   0  0  0  0  0  0  0  0  0  0  0  0
   -0.3681   -1.4358    0.0000 C   0  0  0  0  0  0  0  0  0  0  0  0
    0.7327   -2.4548    0.0000 C   0  0  0  0  0  0  0  0  0  0  0  0
    0.4006   -3.9175    0.0000 O   0  0  0  0  0  0  0  0  0  0  0  0
    2.1655   -2.0110    0.0000 C   0  0  0  0  0  0  0  0  0  0  0  0
    2.4976   -0.5482    0.0000 C   0  0  0  0  0  0  0  0  0  0  0  0
    3.9305   -0.1044    0.0000 C   0  0  0  0  0  0  0  0  0  0  0  0
    4.2625    1.3584    0.0000 C   0  0  0  0  0  0  0  0  0  0  0  0
    5.6954    1.8022    0.0000 C   0  0  0  0  0  0  0  0  0  0  0  0
    6.7961    0.7832    0.0000 S   0  0  0  0  0  0  0  0  0  0  0  0
    8.2290    1.2270    0.0000 C   0  0  0  0  0  0  0  0  0  0  0  0
    9.3298    0.2080    0.0000 C   0  0  0  0  0  0  0  0  0  0  0  0
    8.9977   -1.2548    0.0000 O   0  0  0  0  0  0  0  0  0  0  0  0
   10.7626    0.6518    0.0000 O   0  0  0  0  0  0  0  0  0  0  0  0
    3.1618    2.3773    0.0000 C   0  0  0  0  0  0  0  0  0  0  0  0
    1.7289    1.9336    0.0000 C   0  0  0  0  0  0  0  0  0  0  0  0
    1.3969    0.4708    0.0000 C   0  0  0  0  0  0  0  0  0  0  0  0
    0.2961    1.4898    0.0000 C   0  0  0  0  0  0  0  0  0  0  0  0
   -0.0360    0.0270    0.0000 C   0  0  0  0  0  0  0  0  0  0  0  0
   -1.1368    1.0460    0.0000 C   0  0  0  0  0  0  0  0  0  0  0  0
   -2.5696    0.6022    0.0000 C   0  0  0  0  0  0  0  0  0  0  0  0
   -2.9017   -0.8606    0.0000 C   0  0  0  0  0  0  0  0  0  0  0  0
   -4.1029    0.0378    0.0000 C   0  0  0  0  0  0  0  0  0  0  0  0
  2  1  1  6
  2  3  1  0
  3  4  1  0
  4  5  1  0
  5  6  2  0
  5  7  1  0
  2  8  1  0
  8  9  1  6
  9 10  1  0
 11 10  1  6
 11 12  1  0
 12 13  1  1
 13 14  1  6
 13 15  1  0
 16 15  1  1
 16 17  1  0
 17 18  1  0
 18 19  1  1
 19 20  1  0
 20 21  1  0
 21 22  1  0
 22 23  2  0
 22 24  1  0
 18 25  1  0
 25 26  1  0
 26 27  1  0
 27 28  1  6
 27 29  1  0
 29 30  1  6
 30 31  1  0
 31 32  1  0
 32 33  1  6
 32  8  1  0
 32 11  1  0
 29 12  1  0
 27 16  1  0
M  END
>  <MS_ID>  (2792) 
MS2887

>  <SMILES>  (2792) 
C[C@H](CCC(=O)O)[C@H]1CC[C@H]2[C@@H]3[C@@H](O)C[C@@H]4C[C@H](CSCC(=O)O)CC[C@]4(C)[C@H]3CC[C@]12C

>  <Structure_dimension>  (2792) 
2D

$$$$
MS2888
     RDKit          2D

 35 39  0  0  0  0  0  0  0  0999 V2000
   -2.9651   -3.2875    0.0000 C   0  0  0  0  0  0  0  0  0  0  0  0
   -1.9978   -2.1411    0.0000 C   0  0  0  0  0  0  0  0  0  0  0  0
   -2.5070   -0.7301    0.0000 C   0  0  0  0  0  0  0  0  0  0  0  0
   -3.9835   -0.4656    0.0000 C   0  0  0  0  0  0  0  0  0  0  0  0
   -4.4927    0.9453    0.0000 C   0  0  0  0  0  0  0  0  0  0  0  0
   -3.5254    2.0917    0.0000 O   0  0  0  0  0  0  0  0  0  0  0  0
   -5.9692    1.2098    0.0000 C   0  0  0  0  0  0  0  0  0  0  0  0
   -6.4784    2.6207    0.0000 C   0  0  0  0  0  0  0  0  0  0  0  0
   -7.9549    2.8852    0.0000 C   0  0  0  0  0  0  0  0  0  0  0  0
   -8.9222    1.7388    0.0000 C   0  0  0  0  0  0  0  0  0  0  0  0
   -8.4130    0.3279    0.0000 C   0  0  0  0  0  0  0  0  0  0  0  0
   -6.9365    0.0634    0.0000 C   0  0  0  0  0  0  0  0  0  0  0  0
   -6.4273   -1.3476    0.0000 F   0  0  0  0  0  0  0  0  0  0  0  0
   -0.5213   -2.4056    0.0000 C   0  0  0  0  0  0  0  0  0  0  0  0
    0.1326   -3.7555    0.0000 C   0  0  0  0  0  0  0  0  0  0  0  0
    1.6185   -3.5508    0.0000 C   0  0  0  0  0  0  0  0  0  0  0  0
    1.8830   -2.0743    0.0000 C   0  0  0  0  0  0  0  0  0  0  0  0
    3.1573   -1.2829    0.0000 C   0  0  0  0  0  0  0  0  0  0  0  0
    4.4798   -1.9907    0.0000 C   0  0  0  0  0  0  0  0  0  0  0  0
    4.5280   -3.4900    0.0000 O   0  0  0  0  0  0  0  0  0  0  0  0
    5.7540   -1.1993    0.0000 C   0  0  0  0  0  0  0  0  0  0  0  0
    5.7057    0.2999    0.0000 C   0  0  0  0  0  0  0  0  0  0  0  0
    6.9800    1.0913    0.0000 C   0  0  0  0  0  0  0  0  0  0  0  0
    6.9317    2.5905    0.0000 C   0  0  0  0  0  0  0  0  0  0  0  0
    8.2059    3.3819    0.0000 O   0  0  0  0  0  0  0  0  0  0  0  0
    5.6092    3.2983    0.0000 C   0  0  0  0  0  0  0  0  0  0  0  0
    4.3350    2.5069    0.0000 C   0  0  0  0  0  0  0  0  0  0  0  0
    4.3832    1.0077    0.0000 C   0  0  0  0  0  0  0  0  0  0  0  0
    3.0607    1.7155    0.0000 C   0  0  0  0  0  0  0  0  0  0  0  0
    3.1090    0.2163    0.0000 C   0  0  0  0  0  0  0  0  0  0  0  0
    1.7865    0.9241    0.0000 C   0  0  0  0  0  0  0  0  0  0  0  0
    0.5123    0.1327    0.0000 C   0  0  0  0  0  0  0  0  0  0  0  0
   -0.8102    0.8405    0.0000 O   0  0  0  0  0  0  0  0  0  0  0  0
    0.5605   -1.3665    0.0000 C   0  0  0  0  0  0  0  0  0  0  0  0
   -0.8287   -0.8008    0.0000 C   0  0  0  0  0  0  0  0  0  0  0  0
  2  1  1  6
  2  3  1  0
  3  4  1  0
  4  5  1  0
  5  6  2  0
  5  7  1  0
  7  8  2  0
  8  9  1  0
  9 10  2  0
 10 11  1  0
 11 12  2  0
 12 13  1  0
  2 14  1  0
 14 15  1  6
 15 16  1  0
 17 16  1  6
 17 18  1  0
 18 19  1  1
 19 20  1  1
 19 21  1  0
 22 21  1  1
 22 23  1  0
 23 24  1  0
 24 25  1  1
 24 26  1  0
 26 27  1  0
 27 28  1  0
 28 29  1  6
 28 30  1  0
 30 31  1  6
 31 32  1  0
 32 33  1  1
 32 34  1  0
 34 35  1  6
 12  7  1  0
 34 14  1  0
 34 17  1  0
 30 18  1  0
 28 22  1  0
M  END
>  <MS_ID>  (2793) 
MS2888

>  <SMILES>  (2793) 
C[C@H](CCC(=O)c1ccccc1F)[C@H]1CC[C@H]2[C@@H]3[C@H](O)C[C@@H]4C[C@H](O)CC[C@]4(C)[C@H]3C[C@H](O)[C@]12C

>  <Structure_dimension>  (2793) 
2D

$$$$
MS2889
     RDKit          2D

 33 36  0  0  0  0  0  0  0  0999 V2000
    4.6688   -4.2145    0.0000 C   0  0  0  0  0  0  0  0  0  0  0  0
    4.3956   -2.7396    0.0000 C   0  0  0  0  0  0  0  0  0  0  0  0
    2.9817   -2.2388    0.0000 C   0  0  0  0  0  0  0  0  0  0  0  0
    5.5363   -1.7656    0.0000 C   0  0  0  0  0  0  0  0  0  0  0  0
    6.9502   -2.2664    0.0000 C   0  0  0  0  0  0  0  0  0  0  0  0
    5.2631   -0.2907    0.0000 C   0  0  0  0  0  0  0  0  0  0  0  0
    6.4038    0.6834    0.0000 O   0  0  0  0  0  0  0  0  0  0  0  0
    3.8492    0.2102    0.0000 C   0  0  0  0  0  0  0  0  0  0  0  0
    2.7085   -0.7639    0.0000 O   0  0  0  0  0  0  0  0  0  0  0  0
    3.5760    1.6851    0.0000 C   0  0  0  0  0  0  0  0  0  0  0  0
    4.7167    2.6592    0.0000 C   0  0  0  0  0  0  0  0  0  0  0  0
    2.1621    2.1860    0.0000 C   0  0  0  0  0  0  0  0  0  0  0  0
    1.7362    3.6242    0.0000 C   0  0  0  0  0  0  0  0  0  0  0  0
    0.2367    3.6636    0.0000 C   0  0  0  0  0  0  0  0  0  0  0  0
   -0.2641    2.2497    0.0000 C   0  0  0  0  0  0  0  0  0  0  0  0
   -1.6500    1.6758    0.0000 C   0  0  0  0  0  0  0  0  0  0  0  0
   -2.8400    2.5891    0.0000 C   0  0  0  0  0  0  0  0  0  0  0  0
   -4.2258    2.0152    0.0000 C   0  0  0  0  0  0  0  0  0  0  0  0
   -5.4158    2.9285    0.0000 O   0  0  0  0  0  0  0  0  0  0  0  0
   -4.4218    0.5281    0.0000 C   0  0  0  0  0  0  0  0  0  0  0  0
   -5.8077   -0.0458    0.0000 C   0  0  0  0  0  0  0  0  0  0  0  0
   -6.0036   -1.5330    0.0000 C   0  0  0  0  0  0  0  0  0  0  0  0
   -7.3895   -2.1068    0.0000 O   0  0  0  0  0  0  0  0  0  0  0  0
   -4.8137   -2.4462    0.0000 C   0  0  0  0  0  0  0  0  0  0  0  0
   -5.0096   -3.9334    0.0000 O   0  0  0  0  0  0  0  0  0  0  0  0
   -3.4278   -1.8723    0.0000 C   0  0  0  0  0  0  0  0  0  0  0  0
   -3.2318   -0.3852    0.0000 C   0  0  0  0  0  0  0  0  0  0  0  0
   -2.0419   -1.2984    0.0000 C   0  0  0  0  0  0  0  0  0  0  0  0
   -1.8460    0.1887    0.0000 C   0  0  0  0  0  0  0  0  0  0  0  0
   -0.6560   -0.7246    0.0000 C   0  0  0  0  0  0  0  0  0  0  0  0
    0.7299   -0.1507    0.0000 C   0  0  0  0  0  0  0  0  0  0  0  0
    0.9258    1.3365    0.0000 C   0  0  0  0  0  0  0  0  0  0  0  0
    2.2047    0.5526    0.0000 C   0  0  0  0  0  0  0  0  0  0  0  0
  1  2  1  0
  2  3  1  0
  2  4  1  0
  4  5  1  1
  4  6  1  0
  6  7  1  6
  6  8  1  0
  8  9  1  6
  8 10  1  0
 10 11  1  6
 10 12  1  0
 12 13  1  6
 13 14  1  0
 15 14  1  6
 15 16  1  0
 16 17  1  1
 17 18  1  0
 18 19  2  0
 18 20  1  0
 20 21  1  6
 21 22  1  0
 22 23  1  6
 22 24  1  0
 24 25  1  1
 24 26  1  0
 26 27  1  0
 27 28  1  6
 27 29  1  0
 29 30  1  6
 30 31  1  0
 31 32  1  0
 32 33  1  6
 32 12  1  0
 32 15  1  0
 29 16  1  0
 27 20  1  0
M  END
>  <MS_ID>  (2794) 
MS2889

>  <SMILES>  (2794) 
CC(C)[C@H](C)[C@@H](O)[C@H](O)[C@@H](C)[C@H]1CC[C@H]2[C@@H]3CC(=O)[C@H]4C[C@@H](O)[C@H](O)C[C@]4(C)[C@H]3CC[C@]12C

>  <Structure_dimension>  (2794) 
2D

$$$$
MS2890
     RDKit          2D

 32 35  0  0  0  0  0  0  0  0999 V2000
   -4.7287    4.1003    0.0000 C   0  0  0  0  0  0  0  0  0  0  0  0
   -4.3803    2.6414    0.0000 C   0  0  0  0  0  0  0  0  0  0  0  0
   -2.9425    2.2137    0.0000 C   0  0  0  0  0  0  0  0  0  0  0  0
   -5.4695    1.6101    0.0000 C   0  0  0  0  0  0  0  0  0  0  0  0
   -6.9073    2.0378    0.0000 C   0  0  0  0  0  0  0  0  0  0  0  0
   -5.1210    0.1512    0.0000 C   0  0  0  0  0  0  0  0  0  0  0  0
   -6.2103   -0.8801    0.0000 O   0  0  0  0  0  0  0  0  0  0  0  0
   -3.6833   -0.2765    0.0000 C   0  0  0  0  0  0  0  0  0  0  0  0
   -2.5940    0.7547    0.0000 O   0  0  0  0  0  0  0  0  0  0  0  0
   -3.3348   -1.7355    0.0000 C   0  0  0  0  0  0  0  0  0  0  0  0
   -4.4241   -2.7668    0.0000 C   0  0  0  0  0  0  0  0  0  0  0  0
   -1.8971   -2.1632    0.0000 C   0  0  0  0  0  0  0  0  0  0  0  0
   -1.3980   -3.5777    0.0000 C   0  0  0  0  0  0  0  0  0  0  0  0
    0.1015   -3.5402    0.0000 C   0  0  0  0  0  0  0  0  0  0  0  0
    0.5292   -2.1024    0.0000 C   0  0  0  0  0  0  0  0  0  0  0  0
    1.8838   -1.4582    0.0000 C   0  0  0  0  0  0  0  0  0  0  0  0
    3.1190   -2.3093    0.0000 C   0  0  0  0  0  0  0  0  0  0  0  0
    4.4737   -1.6651    0.0000 C   0  0  0  0  0  0  0  0  0  0  0  0
    5.7089   -2.5161    0.0000 O   0  0  0  0  0  0  0  0  0  0  0  0
    4.5931   -0.1698    0.0000 C   0  0  0  0  0  0  0  0  0  0  0  0
    5.9477    0.4744    0.0000 C   0  0  0  0  0  0  0  0  0  0  0  0
    6.0671    1.9696    0.0000 C   0  0  0  0  0  0  0  0  0  0  0  0
    7.4217    2.6138    0.0000 O   0  0  0  0  0  0  0  0  0  0  0  0
    4.8319    2.8206    0.0000 C   0  0  0  0  0  0  0  0  0  0  0  0
    3.4773    2.1764    0.0000 C   0  0  0  0  0  0  0  0  0  0  0  0
    3.3579    0.6812    0.0000 C   0  0  0  0  0  0  0  0  0  0  0  0
    2.1227    1.5322    0.0000 C   0  0  0  0  0  0  0  0  0  0  0  0
    2.0033    0.0370    0.0000 C   0  0  0  0  0  0  0  0  0  0  0  0
    0.7680    0.8880    0.0000 C   0  0  0  0  0  0  0  0  0  0  0  0
   -0.5866    0.2438    0.0000 C   0  0  0  0  0  0  0  0  0  0  0  0
   -0.7060   -1.2514    0.0000 C   0  0  0  0  0  0  0  0  0  0  0  0
   -2.0234   -0.5341    0.0000 C   0  0  0  0  0  0  0  0  0  0  0  0
  1  2  1  0
  2  3  1  0
  2  4  1  0
  4  5  1  1
  4  6  1  0
  6  7  1  6
  6  8  1  0
  8  9  1  6
  8 10  1  0
 10 11  1  6
 10 12  1  0
 12 13  1  6
 13 14  1  0
 15 14  1  6
 15 16  1  0
 16 17  1  1
 17 18  1  0
 18 19  2  0
 18 20  1  0
 20 21  1  6
 21 22  1  0
 22 23  1  6
 22 24  1  0
 24 25  1  0
 25 26  1  0
 26 27  1  6
 26 28  1  0
 28 29  1  6
 29 30  1  0
 30 31  1  0
 31 32  1  6
 31 12  1  0
 31 15  1  0
 28 16  1  0
 26 20  1  0
M  END
>  <MS_ID>  (2795) 
MS2890

>  <SMILES>  (2795) 
CC(C)[C@H](C)[C@@H](O)[C@H](O)[C@@H](C)[C@H]1CC[C@H]2[C@@H]3CC(=O)[C@H]4C[C@@H](O)CC[C@]4(C)[C@H]3CC[C@]12C

>  <Structure_dimension>  (2795) 
2D

$$$$
MS2891
     RDKit          2D

 30 33  0  0  0  0  0  0  0  0999 V2000
   -7.2765    3.6773    0.0000 C   0  0  0  0  0  0  0  0  0  0  0  0
   -6.9340    2.2169    0.0000 C   0  0  0  0  0  0  0  0  0  0  0  0
   -8.0274    1.1901    0.0000 C   0  0  0  0  0  0  0  0  0  0  0  0
   -5.4980    1.7834    0.0000 C   0  0  0  0  0  0  0  0  0  0  0  0
   -5.1555    0.3230    0.0000 C   0  0  0  0  0  0  0  0  0  0  0  0
   -3.7195   -0.1106    0.0000 C   0  0  0  0  0  0  0  0  0  0  0  0
   -3.3770   -1.5710    0.0000 C   0  0  0  0  0  0  0  0  0  0  0  0
   -4.4705   -2.5978    0.0000 C   0  0  0  0  0  0  0  0  0  0  0  0
   -1.9411   -2.0045    0.0000 C   0  0  0  0  0  0  0  0  0  0  0  0
   -1.4478   -3.4211    0.0000 C   0  0  0  0  0  0  0  0  0  0  0  0
    0.0519   -3.3897    0.0000 C   0  0  0  0  0  0  0  0  0  0  0  0
    0.4855   -1.9538    0.0000 C   0  0  0  0  0  0  0  0  0  0  0  0
    1.8427   -1.3151    0.0000 C   0  0  0  0  0  0  0  0  0  0  0  0
    3.0744   -2.1712    0.0000 C   0  0  0  0  0  0  0  0  0  0  0  0
    2.9489   -3.6660    0.0000 O   0  0  0  0  0  0  0  0  0  0  0  0
    4.4317   -1.5326    0.0000 C   0  0  0  0  0  0  0  0  0  0  0  0
    4.5572   -0.0378    0.0000 C   0  0  0  0  0  0  0  0  0  0  0  0
    5.9145    0.6008    0.0000 C   0  0  0  0  0  0  0  0  0  0  0  0
    6.0400    2.0955    0.0000 C   0  0  0  0  0  0  0  0  0  0  0  0
    7.3973    2.7342    0.0000 O   0  0  0  0  0  0  0  0  0  0  0  0
    4.8083    2.9516    0.0000 C   0  0  0  0  0  0  0  0  0  0  0  0
    3.4511    2.3130    0.0000 C   0  0  0  0  0  0  0  0  0  0  0  0
    3.3255    0.8182    0.0000 C   0  0  0  0  0  0  0  0  0  0  0  0
    2.0938    1.6743    0.0000 C   0  0  0  0  0  0  0  0  0  0  0  0
    1.9683    0.1796    0.0000 C   0  0  0  0  0  0  0  0  0  0  0  0
    0.7365    1.0357    0.0000 C   0  0  0  0  0  0  0  0  0  0  0  0
   -0.6207    0.3971    0.0000 C   0  0  0  0  0  0  0  0  0  0  0  0
   -1.8524    1.2532    0.0000 O   0  0  0  0  0  0  0  0  0  0  0  0
   -0.7463   -1.0977    0.0000 C   0  0  0  0  0  0  0  0  0  0  0  0
   -2.0607   -0.3750    0.0000 C   0  0  0  0  0  0  0  0  0  0  0  0
  1  2  1  0
  2  3  1  0
  2  4  1  0
  4  5  1  0
  5  6  1  0
  6  7  1  0
  7  8  1  6
  7  9  1  0
  9 10  1  6
 10 11  1  0
 12 11  1  6
 12 13  1  0
 13 14  1  1
 14 15  1  1
 14 16  1  0
 17 16  1  6
 17 18  1  0
 18 19  1  0
 19 20  1  1
 19 21  1  0
 21 22  1  0
 22 23  1  0
 23 24  1  6
 23 25  1  0
 25 26  1  6
 26 27  1  0
 27 28  1  1
 27 29  1  0
 29 30  1  6
 29  9  1  0
 29 12  1  0
 25 13  1  0
 23 17  1  0
M  END
>  <MS_ID>  (2796) 
MS2891

>  <SMILES>  (2796) 
CC(C)CCC[C@@H](C)[C@H]1CC[C@H]2[C@@H]3[C@H](O)C[C@H]4C[C@H](O)CC[C@]4(C)[C@H]3C[C@H](O)[C@]12C

>  <Structure_dimension>  (2796) 
2D

$$$$
MS2892
     RDKit          2D

 26 29  0  0  0  0  0  0  0  0999 V2000
    2.0291   -1.4220    0.0000 C   0  0  0  0  0  0  0  0  0  0  0  0
    2.7100   -0.0854    0.0000 C   0  0  0  0  0  0  0  0  0  0  0  0
    3.5271   -1.3433    0.0000 C   0  0  0  0  0  0  0  0  0  0  0  0
    5.0250   -1.2646    0.0000 C   0  0  0  0  0  0  0  0  0  0  0  0
    5.7058    0.0720    0.0000 C   0  0  0  0  0  0  0  0  0  0  0  0
    7.2038    0.1507    0.0000 O   0  0  0  0  0  0  0  0  0  0  0  0
    4.8887    1.3299    0.0000 C   0  0  0  0  0  0  0  0  0  0  0  0
    3.3908    1.2512    0.0000 C   0  0  0  0  0  0  0  0  0  0  0  0
    2.5737    2.5091    0.0000 C   0  0  0  0  0  0  0  0  0  0  0  0
    1.0757    2.4304    0.0000 C   0  0  0  0  0  0  0  0  0  0  0  0
    0.3949    1.0938    0.0000 C   0  0  0  0  0  0  0  0  0  0  0  0
    1.2120   -0.1641    0.0000 C   0  0  0  0  0  0  0  0  0  0  0  0
    0.5312   -1.5007    0.0000 C   0  0  0  0  0  0  0  0  0  0  0  0
    1.3483   -2.7586    0.0000 O   0  0  0  0  0  0  0  0  0  0  0  0
   -0.9667   -1.5794    0.0000 C   0  0  0  0  0  0  0  0  0  0  0  0
   -1.7838   -0.3214    0.0000 C   0  0  0  0  0  0  0  0  0  0  0  0
   -2.4412   -1.6697    0.0000 C   0  0  0  0  0  0  0  0  0  0  0  0
   -1.1030    1.0151    0.0000 C   0  0  0  0  0  0  0  0  0  0  0  0
   -2.1638    2.0757    0.0000 C   0  0  0  0  0  0  0  0  0  0  0  0
   -3.5002    1.3945    0.0000 C   0  0  0  0  0  0  0  0  0  0  0  0
   -3.2654   -0.0870    0.0000 C   0  0  0  0  0  0  0  0  0  0  0  0
   -3.5257   -1.5642    0.0000 O   0  0  0  0  0  0  0  0  0  0  0  0
   -4.7633   -0.1657    0.0000 C   0  0  0  0  0  0  0  0  0  0  0  0
   -5.4442   -1.5022    0.0000 O   0  0  0  0  0  0  0  0  0  0  0  0
   -5.5804    1.0923    0.0000 C   0  0  0  0  0  0  0  0  0  0  0  0
   -7.0784    1.0136    0.0000 O   0  0  0  0  0  0  0  0  0  0  0  0
  2  1  1  1
  2  3  1  0
  3  4  1  0
  4  5  1  0
  5  6  1  6
  5  7  1  0
  8  7  1  1
  8  9  1  0
  9 10  1  0
 11 10  1  6
 11 12  1  0
 12 13  1  1
 13 14  2  0
 13 15  1  0
 15 16  1  0
 16 17  1  1
 16 18  1  0
 18 19  1  1
 19 20  1  0
 20 21  1  0
 21 22  1  6
 21 23  1  0
 23 24  2  0
 23 25  1  0
 25 26  1  0
  8  2  1  0
 18 11  1  0
 12  2  1  0
 21 16  1  0
M  END
>  <MS_ID>  (2797) 
MS2892

>  <SMILES>  (2797) 
C[C@]12CC[C@@H](O)C[C@@H]1CC[C@@H]1[C@@H]2C(=O)C[C@@]2(C)[C@H]1CC[C@]2(O)C(=O)CO

>  <Structure_dimension>  (2797) 
2D

$$$$
MS2893
     RDKit          2D

 34 37  0  0  0  0  0  0  0  0999 V2000
    7.2133   -3.2107    0.0000 C   0  0  0  0  0  0  0  0  0  0  0  0
    6.8534   -1.7546    0.0000 C   0  0  0  0  0  0  0  0  0  0  0  0
    5.4124   -1.3381    0.0000 C   0  0  0  0  0  0  0  0  0  0  0  0
    4.3312   -2.3779    0.0000 C   0  0  0  0  0  0  0  0  0  0  0  0
    4.6911   -3.8340    0.0000 C   0  0  0  0  0  0  0  0  0  0  0  0
    2.8902   -1.9614    0.0000 C   0  0  0  0  0  0  0  0  0  0  0  0
    5.0525    0.1181    0.0000 C   0  0  0  0  0  0  0  0  0  0  0  0
    6.1337    1.1578    0.0000 O   0  0  0  0  0  0  0  0  0  0  0  0
    3.6115    0.5345    0.0000 C   0  0  0  0  0  0  0  0  0  0  0  0
    2.5303   -0.5052    0.0000 O   0  0  0  0  0  0  0  0  0  0  0  0
    3.2516    1.9907    0.0000 C   0  0  0  0  0  0  0  0  0  0  0  0
    4.3328    3.0305    0.0000 C   0  0  0  0  0  0  0  0  0  0  0  0
    1.8106    2.4072    0.0000 C   0  0  0  0  0  0  0  0  0  0  0  0
    1.3005    3.8178    0.0000 C   0  0  0  0  0  0  0  0  0  0  0  0
   -0.1987    3.7685    0.0000 C   0  0  0  0  0  0  0  0  0  0  0  0
   -0.6152    2.3275    0.0000 C   0  0  0  0  0  0  0  0  0  0  0  0
   -1.9647    1.6727    0.0000 C   0  0  0  0  0  0  0  0  0  0  0  0
   -3.2066    2.5141    0.0000 C   0  0  0  0  0  0  0  0  0  0  0  0
   -4.5561    1.8593    0.0000 C   0  0  0  0  0  0  0  0  0  0  0  0
   -5.7979    2.7007    0.0000 O   0  0  0  0  0  0  0  0  0  0  0  0
   -4.6638    0.3632    0.0000 C   0  0  0  0  0  0  0  0  0  0  0  0
   -6.0134   -0.2916    0.0000 C   0  0  0  0  0  0  0  0  0  0  0  0
   -6.1211   -1.7877    0.0000 C   0  0  0  0  0  0  0  0  0  0  0  0
   -7.4707   -2.4424    0.0000 O   0  0  0  0  0  0  0  0  0  0  0  0
   -4.8793   -2.6290    0.0000 C   0  0  0  0  0  0  0  0  0  0  0  0
   -4.9870   -4.1252    0.0000 O   0  0  0  0  0  0  0  0  0  0  0  0
   -3.5298   -1.9743    0.0000 C   0  0  0  0  0  0  0  0  0  0  0  0
   -3.4220   -0.4782    0.0000 C   0  0  0  0  0  0  0  0  0  0  0  0
   -2.1802   -1.3195    0.0000 C   0  0  0  0  0  0  0  0  0  0  0  0
   -2.0725    0.1766    0.0000 C   0  0  0  0  0  0  0  0  0  0  0  0
   -0.8307   -0.6648    0.0000 C   0  0  0  0  0  0  0  0  0  0  0  0
    0.5189   -0.0100    0.0000 C   0  0  0  0  0  0  0  0  0  0  0  0
    0.6266    1.4861    0.0000 C   0  0  0  0  0  0  0  0  0  0  0  0
    1.9496    0.7792    0.0000 C   0  0  0  0  0  0  0  0  0  0  0  0
  1  2  1  0
  2  3  2  0
  3  4  1  0
  4  5  1  0
  4  6  1  0
  3  7  1  0
  7  8  1  6
  7  9  1  0
  9 10  1  6
  9 11  1  0
 11 12  1  6
 11 13  1  0
 13 14  1  6
 14 15  1  0
 16 15  1  6
 16 17  1  0
 17 18  1  1
 18 19  1  0
 19 20  2  0
 19 21  1  0
 21 22  1  6
 22 23  1  0
 23 24  1  1
 23 25  1  0
 25 26  1  1
 25 27  1  0
 27 28  1  0
 28 29  1  6
 28 30  1  0
 30 31  1  6
 31 32  1  0
 32 33  1  0
 33 34  1  6
 33 13  1  0
 33 16  1  0
 30 17  1  0
 28 21  1  0
M  END
>  <MS_ID>  (2798) 
MS2893

>  <SMILES>  (2798) 
C/C=C(\C(C)C)[C@@H](O)[C@H](O)[C@@H](C)[C@H]1CC[C@H]2[C@@H]3CC(=O)[C@H]4C[C@H](O)[C@H](O)C[C@]4(C)[C@H]3CC[C@]12C

>  <Structure_dimension>  (2798) 
2D

$$$$
MS2894
     RDKit          2D

 25 28  0  0  0  0  0  0  0  0999 V2000
    2.0644   -1.5574    0.0000 C   0  0  0  0  0  0  0  0  0  0  0  0
    2.7613   -0.2292    0.0000 C   0  0  0  0  0  0  0  0  0  0  0  0
    3.5632   -1.4969    0.0000 C   0  0  0  0  0  0  0  0  0  0  0  0
    5.0619   -1.4363    0.0000 C   0  0  0  0  0  0  0  0  0  0  0  0
    5.7589   -0.1080    0.0000 C   0  0  0  0  0  0  0  0  0  0  0  0
    7.2577   -0.0475    0.0000 O   0  0  0  0  0  0  0  0  0  0  0  0
    4.9571    1.1597    0.0000 C   0  0  0  0  0  0  0  0  0  0  0  0
    3.4583    1.0991    0.0000 C   0  0  0  0  0  0  0  0  0  0  0  0
    2.6564    2.3668    0.0000 C   0  0  0  0  0  0  0  0  0  0  0  0
    1.1577    2.3062    0.0000 C   0  0  0  0  0  0  0  0  0  0  0  0
    0.4607    0.9780    0.0000 C   0  0  0  0  0  0  0  0  0  0  0  0
    1.2626   -0.2897    0.0000 C   0  0  0  0  0  0  0  0  0  0  0  0
    0.5656   -1.6180    0.0000 C   0  0  0  0  0  0  0  0  0  0  0  0
   -0.9332   -1.6785    0.0000 C   0  0  0  0  0  0  0  0  0  0  0  0
   -1.7350   -0.4108    0.0000 C   0  0  0  0  0  0  0  0  0  0  0  0
   -2.4086   -1.7511    0.0000 C   0  0  0  0  0  0  0  0  0  0  0  0
   -1.0381    0.9174    0.0000 C   0  0  0  0  0  0  0  0  0  0  0  0
   -2.0859    1.9907    0.0000 C   0  0  0  0  0  0  0  0  0  0  0  0
   -3.4305    1.3258    0.0000 C   0  0  0  0  0  0  0  0  0  0  0  0
   -3.2136   -0.1585    0.0000 C   0  0  0  0  0  0  0  0  0  0  0  0
   -3.4918   -1.6324    0.0000 O   0  0  0  0  0  0  0  0  0  0  0  0
   -4.7124   -0.2190    0.0000 C   0  0  0  0  0  0  0  0  0  0  0  0
   -5.4093   -1.5473    0.0000 O   0  0  0  0  0  0  0  0  0  0  0  0
   -5.5142    1.0487    0.0000 C   0  0  0  0  0  0  0  0  0  0  0  0
   -7.0130    0.9881    0.0000 O   0  0  0  0  0  0  0  0  0  0  0  0
  2  1  1  1
  2  3  1  0
  3  4  1  0
  4  5  1  0
  5  6  1  1
  5  7  1  0
  8  7  1  1
  8  9  1  0
  9 10  1  0
 11 10  1  6
 11 12  1  0
 12 13  1  1
 13 14  1  0
 14 15  1  0
 15 16  1  1
 15 17  1  0
 17 18  1  1
 18 19  1  0
 19 20  1  0
 20 21  1  6
 20 22  1  0
 22 23  2  0
 22 24  1  0
 24 25  1  0
  8  2  1  0
 17 11  1  0
 12  2  1  0
 20 15  1  0
M  END
>  <MS_ID>  (2799) 
MS2894

>  <SMILES>  (2799) 
C[C@]12CC[C@H](O)C[C@@H]1CC[C@@H]1[C@@H]2CC[C@@]2(C)[C@H]1CC[C@]2(O)C(=O)CO

>  <Structure_dimension>  (2799) 
2D

$$$$
MS2895
     RDKit          2D

 26 29  0  0  0  0  0  0  0  0999 V2000
   -5.9216   -0.5493    0.0000 C   0  0  0  0  0  0  0  0  0  0  0  0
   -4.5773    0.1161    0.0000 C   0  0  0  0  0  0  0  0  0  0  0  0
   -4.4813    1.6130    0.0000 C   0  0  0  0  0  0  0  0  0  0  0  0
   -3.1370    2.2784    0.0000 O   0  0  0  0  0  0  0  0  0  0  0  0
   -5.7297    2.4446    0.0000 O   0  0  0  0  0  0  0  0  0  0  0  0
   -3.3289   -0.7155    0.0000 C   0  0  0  0  0  0  0  0  0  0  0  0
   -3.2678   -2.2142    0.0000 C   0  0  0  0  0  0  0  0  0  0  0  0
   -1.8235   -2.6193    0.0000 C   0  0  0  0  0  0  0  0  0  0  0  0
   -0.9920   -1.3709    0.0000 C   0  0  0  0  0  0  0  0  0  0  0  0
    0.4922   -1.1535    0.0000 C   0  0  0  0  0  0  0  0  0  0  0  0
    1.4225   -2.3302    0.0000 C   0  0  0  0  0  0  0  0  0  0  0  0
    0.8687   -3.7242    0.0000 O   0  0  0  0  0  0  0  0  0  0  0  0
    2.9067   -2.1128    0.0000 C   0  0  0  0  0  0  0  0  0  0  0  0
    3.4605   -0.7188    0.0000 C   0  0  0  0  0  0  0  0  0  0  0  0
    4.9447   -0.5014    0.0000 C   0  0  0  0  0  0  0  0  0  0  0  0
    5.4985    0.8926    0.0000 C   0  0  0  0  0  0  0  0  0  0  0  0
    6.9827    1.1100    0.0000 O   0  0  0  0  0  0  0  0  0  0  0  0
    4.5682    2.0693    0.0000 C   0  0  0  0  0  0  0  0  0  0  0  0
    3.0840    1.8519    0.0000 C   0  0  0  0  0  0  0  0  0  0  0  0
    2.5302    0.4579    0.0000 C   0  0  0  0  0  0  0  0  0  0  0  0
    1.5998    1.6345    0.0000 C   0  0  0  0  0  0  0  0  0  0  0  0
    1.0460    0.2405    0.0000 C   0  0  0  0  0  0  0  0  0  0  0  0
    0.1157    1.4171    0.0000 C   0  0  0  0  0  0  0  0  0  0  0  0
   -1.3685    1.1998    0.0000 C   0  0  0  0  0  0  0  0  0  0  0  0
   -1.9223   -0.1943    0.0000 C   0  0  0  0  0  0  0  0  0  0  0  0
   -2.9705    0.8787    0.0000 C   0  0  0  0  0  0  0  0  0  0  0  0
  2  1  1  6
  2  3  1  0
  3  4  2  0
  3  5  1  0
  2  6  1  0
  6  7  1  6
  7  8  1  0
  9  8  1  6
  9 10  1  0
 10 11  1  1
 11 12  1  1
 11 13  1  0
 14 13  1  1
 14 15  1  0
 15 16  1  0
 16 17  1  1
 16 18  1  0
 18 19  1  0
 19 20  1  0
 20 21  1  6
 20 22  1  0
 22 23  1  6
 23 24  1  0
 24 25  1  0
 25 26  1  6
 25  6  1  0
 25  9  1  0
 22 10  1  0
 20 14  1  0
M  END
>  <MS_ID>  (2800) 
MS2895

>  <SMILES>  (2800) 
C[C@H](C(=O)O)[C@H]1CC[C@H]2[C@@H]3[C@H](O)C[C@@H]4C[C@H](O)CC[C@]4(C)[C@H]3CC[C@]12C

>  <Structure_dimension>  (2800) 
2D

$$$$
MS2896
     RDKit          2D

 27 30  0  0  0  0  0  0  0  0999 V2000
   -4.0796    2.1018    0.0000 C   0  0  0  0  0  0  0  0  0  0  0  0
   -4.2962    0.6175    0.0000 C   0  0  0  0  0  0  0  0  0  0  0  0
   -5.6900    0.0629    0.0000 C   0  0  0  0  0  0  0  0  0  0  0  0
   -5.9065   -1.4213    0.0000 O   0  0  0  0  0  0  0  0  0  0  0  0
   -6.8671    0.9927    0.0000 O   0  0  0  0  0  0  0  0  0  0  0  0
   -3.1191   -0.3122    0.0000 C   0  0  0  0  0  0  0  0  0  0  0  0
   -3.1794   -1.8110    0.0000 C   0  0  0  0  0  0  0  0  0  0  0  0
   -1.7726   -2.3315    0.0000 C   0  0  0  0  0  0  0  0  0  0  0  0
   -0.8428   -1.1543    0.0000 C   0  0  0  0  0  0  0  0  0  0  0  0
    0.6540   -1.0576    0.0000 C   0  0  0  0  0  0  0  0  0  0  0  0
    1.4863   -2.3056    0.0000 C   0  0  0  0  0  0  0  0  0  0  0  0
    0.8216   -3.6503    0.0000 O   0  0  0  0  0  0  0  0  0  0  0  0
    2.9831   -2.2088    0.0000 C   0  0  0  0  0  0  0  0  0  0  0  0
    3.6478   -0.8641    0.0000 C   0  0  0  0  0  0  0  0  0  0  0  0
    5.1447   -0.7674    0.0000 C   0  0  0  0  0  0  0  0  0  0  0  0
    5.8093    0.5773    0.0000 C   0  0  0  0  0  0  0  0  0  0  0  0
    7.3062    0.6741    0.0000 O   0  0  0  0  0  0  0  0  0  0  0  0
    4.9771    1.8253    0.0000 C   0  0  0  0  0  0  0  0  0  0  0  0
    3.4802    1.7286    0.0000 C   0  0  0  0  0  0  0  0  0  0  0  0
    2.8156    0.3839    0.0000 C   0  0  0  0  0  0  0  0  0  0  0  0
    1.9834    1.6318    0.0000 C   0  0  0  0  0  0  0  0  0  0  0  0
    1.3187    0.2871    0.0000 C   0  0  0  0  0  0  0  0  0  0  0  0
    0.4865    1.5351    0.0000 C   0  0  0  0  0  0  0  0  0  0  0  0
   -1.0104    1.4383    0.0000 C   0  0  0  0  0  0  0  0  0  0  0  0
   -1.8426    2.6863    0.0000 O   0  0  0  0  0  0  0  0  0  0  0  0
   -1.6751    0.0936    0.0000 C   0  0  0  0  0  0  0  0  0  0  0  0
   -2.6332    1.2478    0.0000 C   0  0  0  0  0  0  0  0  0  0  0  0
  2  1  1  1
  2  3  1  0
  3  4  2  0
  3  5  1  0
  2  6  1  0
  6  7  1  6
  7  8  1  0
  9  8  1  6
  9 10  1  0
 10 11  1  1
 11 12  1  1
 11 13  1  0
 14 13  1  1
 14 15  1  0
 15 16  1  0
 16 17  1  1
 16 18  1  0
 18 19  1  0
 19 20  1  0
 20 21  1  6
 20 22  1  0
 22 23  1  6
 23 24  1  0
 24 25  2  0
 24 26  1  0
 26 27  1  6
 26  6  1  0
 26  9  1  0
 22 10  1  0
 20 14  1  0
M  END
>  <MS_ID>  (2801) 
MS2896

>  <SMILES>  (2801) 
C[C@H](C(=O)O)[C@H]1CC[C@H]2[C@@H]3[C@H](O)C[C@@H]4C[C@H](O)CC[C@]4(C)[C@H]3CC(=O)[C@]12C

>  <Structure_dimension>  (2801) 
2D

$$$$
MS2897
     RDKit          2D

 30 33  0  0  0  0  0  0  0  0999 V2000
   -4.2235   -2.7529    0.0000 C   0  0  0  0  0  0  0  0  0  0  0  0
   -3.1601   -1.6950    0.0000 C   0  0  0  0  0  0  0  0  0  0  0  0
   -3.5446   -0.2451    0.0000 C   0  0  0  0  0  0  0  0  0  0  0  0
   -4.9924    0.1469    0.0000 C   0  0  0  0  0  0  0  0  0  0  0  0
   -5.3769    1.5968    0.0000 C   0  0  0  0  0  0  0  0  0  0  0  0
   -6.8248    1.9887    0.0000 C   0  0  0  0  0  0  0  0  0  0  0  0
   -7.2168    0.5409    0.0000 C   0  0  0  0  0  0  0  0  0  0  0  0
   -6.4328    3.4366    0.0000 C   0  0  0  0  0  0  0  0  0  0  0  0
   -8.2727    2.3807    0.0000 O   0  0  0  0  0  0  0  0  0  0  0  0
   -1.7122   -2.0869    0.0000 C   0  0  0  0  0  0  0  0  0  0  0  0
   -1.1783   -3.4887    0.0000 C   0  0  0  0  0  0  0  0  0  0  0  0
    0.3199   -3.4141    0.0000 C   0  0  0  0  0  0  0  0  0  0  0  0
    0.7119   -1.9662    0.0000 C   0  0  0  0  0  0  0  0  0  0  0  0
    2.0501   -1.2886    0.0000 C   0  0  0  0  0  0  0  0  0  0  0  0
    3.3060   -2.1089    0.0000 C   0  0  0  0  0  0  0  0  0  0  0  0
    3.2236   -3.6066    0.0000 O   0  0  0  0  0  0  0  0  0  0  0  0
    4.6443   -1.4313    0.0000 C   0  0  0  0  0  0  0  0  0  0  0  0
    4.7266    0.0664    0.0000 C   0  0  0  0  0  0  0  0  0  0  0  0
    6.0649    0.7439    0.0000 C   0  0  0  0  0  0  0  0  0  0  0  0
    6.1473    2.2417    0.0000 C   0  0  0  0  0  0  0  0  0  0  0  0
    7.4856    2.9192    0.0000 O   0  0  0  0  0  0  0  0  0  0  0  0
    4.8914    3.0619    0.0000 C   0  0  0  0  0  0  0  0  0  0  0  0
    3.5531    2.3844    0.0000 C   0  0  0  0  0  0  0  0  0  0  0  0
    3.4708    0.8866    0.0000 C   0  0  0  0  0  0  0  0  0  0  0  0
    2.2149    1.7068    0.0000 C   0  0  0  0  0  0  0  0  0  0  0  0
    2.1325    0.2091    0.0000 C   0  0  0  0  0  0  0  0  0  0  0  0
    0.8766    1.0293    0.0000 C   0  0  0  0  0  0  0  0  0  0  0  0
   -0.4617    0.3518    0.0000 C   0  0  0  0  0  0  0  0  0  0  0  0
   -0.5440   -1.1460    0.0000 C   0  0  0  0  0  0  0  0  0  0  0  0
   -1.8788   -0.4615    0.0000 C   0  0  0  0  0  0  0  0  0  0  0  0
  2  1  1  6
  2  3  1  0
  3  4  1  0
  4  5  1  0
  5  6  1  0
  6  7  1  0
  6  8  1  0
  6  9  1  0
  2 10  1  0
 10 11  1  6
 11 12  1  0
 13 12  1  6
 13 14  1  0
 14 15  1  1
 15 16  1  1
 15 17  1  0
 18 17  1  1
 18 19  1  0
 19 20  1  0
 20 21  1  1
 20 22  1  0
 22 23  1  0
 23 24  1  0
 24 25  1  6
 24 26  1  0
 26 27  1  6
 27 28  1  0
 28 29  1  0
 29 30  1  6
 29 10  1  0
 29 13  1  0
 26 14  1  0
 24 18  1  0
M  END
>  <MS_ID>  (2802) 
MS2897

>  <SMILES>  (2802) 
C[C@H](CCCC(C)(C)O)[C@H]1CC[C@H]2[C@@H]3[C@H](O)C[C@@H]4C[C@H](O)CC[C@]4(C)[C@H]3CC[C@]12C

>  <Structure_dimension>  (2802) 
2D

$$$$
MS2898
     RDKit          2D

 43 48  0  0  0  0  0  0  0  0999 V2000
    0.4499   -4.8246    0.0000 C   0  0  0  0  0  0  0  0  0  0  0  0
    0.9816   -3.4221    0.0000 C   0  0  0  0  0  0  0  0  0  0  0  0
    0.0328   -2.2603    0.0000 C   0  0  0  0  0  0  0  0  0  0  0  0
   -1.4477   -2.5010    0.0000 C   0  0  0  0  0  0  0  0  0  0  0  0
   -2.3965   -1.3393    0.0000 C   0  0  0  0  0  0  0  0  0  0  0  0
   -1.8648    0.0633    0.0000 O   0  0  0  0  0  0  0  0  0  0  0  0
   -3.8771   -1.5800    0.0000 N   0  0  0  0  0  0  0  0  0  0  0  0
   -4.8259   -0.4182    0.0000 C   0  0  0  0  0  0  0  0  0  0  0  0
   -6.3064   -0.6590    0.0000 C   0  0  0  0  0  0  0  0  0  0  0  0
   -7.2552    0.5028    0.0000 C   0  0  0  0  0  0  0  0  0  0  0  0
   -6.8730    1.9532    0.0000 C   0  0  0  0  0  0  0  0  0  0  0  0
   -8.1344    2.7650    0.0000 N   0  0  0  0  0  0  0  0  0  0  0  0
   -9.2962    1.8162    0.0000 C   0  0  0  0  0  0  0  0  0  0  0  0
  -10.7787    2.0447    0.0000 C   0  0  0  0  0  0  0  0  0  0  0  0
  -11.7178    0.8751    0.0000 C   0  0  0  0  0  0  0  0  0  0  0  0
  -11.1745   -0.5231    0.0000 C   0  0  0  0  0  0  0  0  0  0  0  0
   -9.6920   -0.7516    0.0000 C   0  0  0  0  0  0  0  0  0  0  0  0
   -8.7528    0.4180    0.0000 C   0  0  0  0  0  0  0  0  0  0  0  0
   -4.2941    0.9843    0.0000 C   0  0  0  0  0  0  0  0  0  0  0  0
   -2.8136    1.2251    0.0000 O   0  0  0  0  0  0  0  0  0  0  0  0
   -5.2429    2.1461    0.0000 O   0  0  0  0  0  0  0  0  0  0  0  0
    2.4622   -3.1813    0.0000 C   0  0  0  0  0  0  0  0  0  0  0  0
    3.5272   -4.2375    0.0000 C   0  0  0  0  0  0  0  0  0  0  0  0
    4.8609   -3.5510    0.0000 C   0  0  0  0  0  0  0  0  0  0  0  0
    4.6201   -2.0705    0.0000 C   0  0  0  0  0  0  0  0  0  0  0  0
    5.5592   -0.9008    0.0000 C   0  0  0  0  0  0  0  0  0  0  0  0
    7.0417   -1.1293    0.0000 C   0  0  0  0  0  0  0  0  0  0  0  0
    7.5851   -2.5275    0.0000 O   0  0  0  0  0  0  0  0  0  0  0  0
    7.9809    0.0403    0.0000 C   0  0  0  0  0  0  0  0  0  0  0  0
    7.4375    1.4384    0.0000 C   0  0  0  0  0  0  0  0  0  0  0  0
    8.3767    2.6080    0.0000 C   0  0  0  0  0  0  0  0  0  0  0  0
    7.8333    4.0062    0.0000 C   0  0  0  0  0  0  0  0  0  0  0  0
    8.7725    5.1758    0.0000 O   0  0  0  0  0  0  0  0  0  0  0  0
    6.3508    4.2347    0.0000 C   0  0  0  0  0  0  0  0  0  0  0  0
    5.4117    3.0651    0.0000 C   0  0  0  0  0  0  0  0  0  0  0  0
    5.9550    1.6669    0.0000 C   0  0  0  0  0  0  0  0  0  0  0  0
    4.4725    1.8954    0.0000 C   0  0  0  0  0  0  0  0  0  0  0  0
    5.0159    0.4973    0.0000 C   0  0  0  0  0  0  0  0  0  0  0  0
    3.5334    0.7258    0.0000 C   0  0  0  0  0  0  0  0  0  0  0  0
    2.5943   -0.4438    0.0000 C   0  0  0  0  0  0  0  0  0  0  0  0
    1.1118   -0.2153    0.0000 O   0  0  0  0  0  0  0  0  0  0  0  0
    3.1376   -1.8419    0.0000 C   0  0  0  0  0  0  0  0  0  0  0  0
    1.6393   -1.7696    0.0000 C   0  0  0  0  0  0  0  0  0  0  0  0
  2  1  1  6
  2  3  1  0
  3  4  1  0
  4  5  1  0
  5  6  2  0
  5  7  1  0
  7  8  1  0
  8  9  1  1
  9 10  1  0
 10 11  2  0
 11 12  1  0
 12 13  1  0
 13 14  2  0
 14 15  1  0
 15 16  2  0
 16 17  1  0
 17 18  2  0
  8 19  1  0
 19 20  2  0
 19 21  1  0
  2 22  1  0
 22 23  1  6
 23 24  1  0
 25 24  1  6
 25 26  1  0
 26 27  1  1
 27 28  1  1
 27 29  1  0
 30 29  1  1
 30 31  1  0
 31 32  1  0
 32 33  1  1
 32 34  1  0
 34 35  1  0
 35 36  1  0
 36 37  1  6
 36 38  1  0
 38 39  1  6
 39 40  1  0
 40 41  1  1
 40 42  1  0
 42 43  1  6
 18 10  1  0
 42 22  1  0
 18 13  1  0
 42 25  1  0
 38 26  1  0
 36 30  1  0
M  END
>  <MS_ID>  (2803) 
MS2898

>  <SMILES>  (2803) 
C[C@H](CCC(=O)N[C@@H](Cc1c[nH]c2ccccc12)C(=O)O)[C@H]1CC[C@H]2[C@@H]3[C@H](O)C[C@@H]4C[C@H](O)CC[C@]4(C)[C@H]3C[C@H](O)[C@]12C

>  <Structure_dimension>  (2803) 
2D

$$$$
MS2899
     RDKit          2D

 24 27  0  0  0  0  0  0  0  0999 V2000
    1.6887   -1.5390    0.0000 C   0  0  0  0  0  0  0  0  0  0  0  0
    2.5258   -0.2943    0.0000 C   0  0  0  0  0  0  0  0  0  0  0  0
    3.1852   -1.6416    0.0000 C   0  0  0  0  0  0  0  0  0  0  0  0
    4.6817   -1.7441    0.0000 C   0  0  0  0  0  0  0  0  0  0  0  0
    5.5188   -0.4994    0.0000 C   0  0  0  0  0  0  0  0  0  0  0  0
    7.0153   -0.6020    0.0000 O   0  0  0  0  0  0  0  0  0  0  0  0
    4.8594    0.8479    0.0000 C   0  0  0  0  0  0  0  0  0  0  0  0
    3.3629    0.9504    0.0000 C   0  0  0  0  0  0  0  0  0  0  0  0
    2.7034    2.2977    0.0000 C   0  0  0  0  0  0  0  0  0  0  0  0
    1.2070    2.4003    0.0000 C   0  0  0  0  0  0  0  0  0  0  0  0
    0.3699    1.1555    0.0000 C   0  0  0  0  0  0  0  0  0  0  0  0
    1.0293   -0.1917    0.0000 C   0  0  0  0  0  0  0  0  0  0  0  0
    0.1923   -1.4364    0.0000 C   0  0  0  0  0  0  0  0  0  0  0  0
   -1.3042   -1.3339    0.0000 C   0  0  0  0  0  0  0  0  0  0  0  0
   -1.9637    0.0134    0.0000 C   0  0  0  0  0  0  0  0  0  0  0  0
   -2.9262   -1.1370    0.0000 C   0  0  0  0  0  0  0  0  0  0  0  0
   -3.4061    0.4248    0.0000 C   0  0  0  0  0  0  0  0  0  0  0  0
   -4.5869   -0.5003    0.0000 C   0  0  0  0  0  0  0  0  0  0  0  0
   -4.3760   -1.9854    0.0000 O   0  0  0  0  0  0  0  0  0  0  0  0
   -5.9784    0.0597    0.0000 C   0  0  0  0  0  0  0  0  0  0  0  0
   -7.1591   -0.8654    0.0000 O   0  0  0  0  0  0  0  0  0  0  0  0
   -3.4606    1.9239    0.0000 C   0  0  0  0  0  0  0  0  0  0  0  0
   -2.0517    2.4388    0.0000 C   0  0  0  0  0  0  0  0  0  0  0  0
   -1.1266    1.2581    0.0000 C   0  0  0  0  0  0  0  0  0  0  0  0
  2  1  1  1
  2  3  1  0
  3  4  1  0
  4  5  1  0
  5  6  1  1
  5  7  1  0
  8  7  1  1
  8  9  1  0
  9 10  1  0
 11 10  1  6
 11 12  1  0
 12 13  1  1
 13 14  1  0
 14 15  1  0
 15 16  1  1
 15 17  1  0
 17 18  1  1
 18 19  2  0
 18 20  1  0
 20 21  1  0
 17 22  1  0
 22 23  1  0
 24 23  1  1
  8  2  1  0
 24 11  1  0
 12  2  1  0
 24 15  1  0
M  END
>  <MS_ID>  (2804) 
MS2899

>  <SMILES>  (2804) 
C[C@]12CC[C@H](O)C[C@@H]1CC[C@@H]1[C@@H]2CC[C@]2(C)[C@@H](C(=O)CO)CC[C@@H]12

>  <Structure_dimension>  (2804) 
2D

$$$$
MS2900
     RDKit          2D

 32 35  0  0  0  0  0  0  0  0999 V2000
    4.3200   -4.3108    0.0000 C   0  0  0  0  0  0  0  0  0  0  0  0
    4.1098   -2.8256    0.0000 C   0  0  0  0  0  0  0  0  0  0  0  0
    2.7185   -2.2650    0.0000 C   0  0  0  0  0  0  0  0  0  0  0  0
    5.2909   -1.9010    0.0000 C   0  0  0  0  0  0  0  0  0  0  0  0
    6.6822   -2.4616    0.0000 C   0  0  0  0  0  0  0  0  0  0  0  0
    5.0808   -0.4158    0.0000 C   0  0  0  0  0  0  0  0  0  0  0  0
    6.2619    0.5088    0.0000 O   0  0  0  0  0  0  0  0  0  0  0  0
    3.6894    0.1448    0.0000 C   0  0  0  0  0  0  0  0  0  0  0  0
    2.5083   -0.7798    0.0000 O   0  0  0  0  0  0  0  0  0  0  0  0
    3.4793    1.6300    0.0000 C   0  0  0  0  0  0  0  0  0  0  0  0
    4.6604    2.5546    0.0000 C   0  0  0  0  0  0  0  0  0  0  0  0
    2.0880    2.1906    0.0000 C   0  0  0  0  0  0  0  0  0  0  0  0
    1.7237    3.6457    0.0000 C   0  0  0  0  0  0  0  0  0  0  0  0
    0.2272    3.7489    0.0000 C   0  0  0  0  0  0  0  0  0  0  0  0
   -0.3333    2.3576    0.0000 C   0  0  0  0  0  0  0  0  0  0  0  0
   -1.7424    1.8432    0.0000 C   0  0  0  0  0  0  0  0  0  0  0  0
   -2.8924    2.8063    0.0000 C   0  0  0  0  0  0  0  0  0  0  0  0
   -4.3014    2.2919    0.0000 C   0  0  0  0  0  0  0  0  0  0  0  0
   -4.5605    0.8145    0.0000 C   0  0  0  0  0  0  0  0  0  0  0  0
   -5.9695    0.3001    0.0000 C   0  0  0  0  0  0  0  0  0  0  0  0
   -6.2286   -1.1774    0.0000 C   0  0  0  0  0  0  0  0  0  0  0  0
   -7.6377   -1.6917    0.0000 O   0  0  0  0  0  0  0  0  0  0  0  0
   -5.0786   -2.1405    0.0000 C   0  0  0  0  0  0  0  0  0  0  0  0
   -5.3377   -3.6179    0.0000 O   0  0  0  0  0  0  0  0  0  0  0  0
   -3.6696   -1.6261    0.0000 C   0  0  0  0  0  0  0  0  0  0  0  0
   -3.4105   -0.1486    0.0000 C   0  0  0  0  0  0  0  0  0  0  0  0
   -2.2605   -1.1117    0.0000 C   0  0  0  0  0  0  0  0  0  0  0  0
   -2.0015    0.3657    0.0000 C   0  0  0  0  0  0  0  0  0  0  0  0
   -0.8515   -0.5973    0.0000 C   0  0  0  0  0  0  0  0  0  0  0  0
    0.5576   -0.0830    0.0000 C   0  0  0  0  0  0  0  0  0  0  0  0
    0.8166    1.3945    0.0000 C   0  0  0  0  0  0  0  0  0  0  0  0
    2.0610    0.5569    0.0000 C   0  0  0  0  0  0  0  0  0  0  0  0
  1  2  1  0
  2  3  1  0
  2  4  1  0
  4  5  1  6
  4  6  1  0
  6  7  1  6
  6  8  1  0
  8  9  1  6
  8 10  1  0
 10 11  1  6
 10 12  1  0
 12 13  1  6
 13 14  1  0
 15 14  1  6
 15 16  1  0
 16 17  1  1
 17 18  1  0
 19 18  1  6
 19 20  1  0
 20 21  1  0
 21 22  1  1
 21 23  1  0
 23 24  1  1
 23 25  1  0
 25 26  1  0
 26 27  1  6
 26 28  1  0
 28 29  1  6
 29 30  1  0
 30 31  1  0
 31 32  1  6
 31 12  1  0
 31 15  1  0
 28 16  1  0
 26 19  1  0
M  END
>  <MS_ID>  (2805) 
MS2900

>  <SMILES>  (2805) 
CC(C)[C@@H](C)[C@@H](O)[C@H](O)[C@@H](C)[C@H]1CC[C@H]2[C@@H]3CC[C@H]4C[C@H](O)[C@H](O)C[C@]4(C)[C@H]3CC[C@]12C

>  <Structure_dimension>  (2805) 
2D

$$$$
MS2901
     RDKit          2D

 40 44  0  0  0  0  0  0  0  0999 V2000
   -0.3949   -4.8482    0.0000 C   0  0  0  0  0  0  0  0  0  0  0  0
    0.1321   -3.4438    0.0000 C   0  0  0  0  0  0  0  0  0  0  0  0
   -0.8207   -2.2852    0.0000 C   0  0  0  0  0  0  0  0  0  0  0  0
   -2.3004   -2.5311    0.0000 C   0  0  0  0  0  0  0  0  0  0  0  0
   -3.2532   -1.3725    0.0000 C   0  0  0  0  0  0  0  0  0  0  0  0
   -2.7262    0.0319    0.0000 O   0  0  0  0  0  0  0  0  0  0  0  0
   -4.7329   -1.6183    0.0000 N   0  0  0  0  0  0  0  0  0  0  0  0
   -5.6856   -0.4597    0.0000 C   0  0  0  0  0  0  0  0  0  0  0  0
   -7.1653   -0.7056    0.0000 C   0  0  0  0  0  0  0  0  0  0  0  0
   -8.1181    0.4530    0.0000 C   0  0  0  0  0  0  0  0  0  0  0  0
   -7.5911    1.8574    0.0000 C   0  0  0  0  0  0  0  0  0  0  0  0
   -8.5439    3.0160    0.0000 C   0  0  0  0  0  0  0  0  0  0  0  0
  -10.0236    2.7701    0.0000 C   0  0  0  0  0  0  0  0  0  0  0  0
  -10.5506    1.3657    0.0000 C   0  0  0  0  0  0  0  0  0  0  0  0
   -9.5978    0.2072    0.0000 C   0  0  0  0  0  0  0  0  0  0  0  0
   -5.1586    0.9446    0.0000 C   0  0  0  0  0  0  0  0  0  0  0  0
   -3.6789    1.1905    0.0000 O   0  0  0  0  0  0  0  0  0  0  0  0
   -6.1114    2.1032    0.0000 O   0  0  0  0  0  0  0  0  0  0  0  0
    1.6118   -3.1980    0.0000 C   0  0  0  0  0  0  0  0  0  0  0  0
    2.6804   -4.2506    0.0000 C   0  0  0  0  0  0  0  0  0  0  0  0
    4.0117   -3.5596    0.0000 C   0  0  0  0  0  0  0  0  0  0  0  0
    3.7659   -2.0798    0.0000 C   0  0  0  0  0  0  0  0  0  0  0  0
    4.7011   -0.9070    0.0000 C   0  0  0  0  0  0  0  0  0  0  0  0
    6.1843   -1.1305    0.0000 C   0  0  0  0  0  0  0  0  0  0  0  0
    6.7324   -2.5268    0.0000 O   0  0  0  0  0  0  0  0  0  0  0  0
    7.1195    0.0423    0.0000 C   0  0  0  0  0  0  0  0  0  0  0  0
    6.5714    1.4386    0.0000 C   0  0  0  0  0  0  0  0  0  0  0  0
    7.5066    2.6114    0.0000 C   0  0  0  0  0  0  0  0  0  0  0  0
    6.9585    4.0077    0.0000 C   0  0  0  0  0  0  0  0  0  0  0  0
    7.8936    5.1805    0.0000 O   0  0  0  0  0  0  0  0  0  0  0  0
    5.4752    4.2311    0.0000 C   0  0  0  0  0  0  0  0  0  0  0  0
    4.5400    3.0583    0.0000 C   0  0  0  0  0  0  0  0  0  0  0  0
    5.0881    1.6620    0.0000 C   0  0  0  0  0  0  0  0  0  0  0  0
    3.6049    1.8855    0.0000 C   0  0  0  0  0  0  0  0  0  0  0  0
    4.1530    0.4892    0.0000 C   0  0  0  0  0  0  0  0  0  0  0  0
    2.6697    0.7127    0.0000 C   0  0  0  0  0  0  0  0  0  0  0  0
    1.7346   -0.4601    0.0000 C   0  0  0  0  0  0  0  0  0  0  0  0
    0.2513   -0.2366    0.0000 O   0  0  0  0  0  0  0  0  0  0  0  0
    2.2827   -1.8564    0.0000 C   0  0  0  0  0  0  0  0  0  0  0  0
    0.7842   -1.7892    0.0000 C   0  0  0  0  0  0  0  0  0  0  0  0
  2  1  1  6
  2  3  1  0
  3  4  1  0
  4  5  1  0
  5  6  2  0
  5  7  1  0
  7  8  1  0
  8  9  1  1
  9 10  1  0
 10 11  2  0
 11 12  1  0
 12 13  2  0
 13 14  1  0
 14 15  2  0
  8 16  1  0
 16 17  2  0
 16 18  1  0
  2 19  1  0
 19 20  1  6
 20 21  1  0
 22 21  1  6
 22 23  1  0
 23 24  1  1
 24 25  1  1
 24 26  1  0
 27 26  1  1
 27 28  1  0
 28 29  1  0
 29 30  1  1
 29 31  1  0
 31 32  1  0
 32 33  1  0
 33 34  1  6
 33 35  1  0
 35 36  1  6
 36 37  1  0
 37 38  1  1
 37 39  1  0
 39 40  1  6
 15 10  1  0
 39 19  1  0
 39 22  1  0
 35 23  1  0
 33 27  1  0
M  END
>  <MS_ID>  (2806) 
MS2901

>  <SMILES>  (2806) 
C[C@H](CCC(=O)N[C@@H](Cc1ccccc1)C(=O)O)[C@H]1CC[C@H]2[C@@H]3[C@H](O)C[C@@H]4C[C@H](O)CC[C@]4(C)[C@H]3C[C@H](O)[C@]12C

>  <Structure_dimension>  (2806) 
2D

$$$$
MS2902
     RDKit          2D

 40 43  0  0  0  0  0  0  0  0999 V2000
   -0.2104   -4.7315    0.0000 C   0  0  0  0  0  0  0  0  0  0  0  0
    0.3463   -3.3387    0.0000 C   0  0  0  0  0  0  0  0  0  0  0  0
   -0.5815   -2.1601    0.0000 C   0  0  0  0  0  0  0  0  0  0  0  0
   -2.0661   -2.3744    0.0000 C   0  0  0  0  0  0  0  0  0  0  0  0
   -2.9940   -1.1958    0.0000 C   0  0  0  0  0  0  0  0  0  0  0  0
   -2.4372    0.1971    0.0000 O   0  0  0  0  0  0  0  0  0  0  0  0
   -4.4786   -1.4100    0.0000 N   0  0  0  0  0  0  0  0  0  0  0  0
   -5.4065   -0.2314    0.0000 C   0  0  0  0  0  0  0  0  0  0  0  0
   -6.8911   -0.4457    0.0000 C   0  0  0  0  0  0  0  0  0  0  0  0
   -7.8190    0.7329    0.0000 C   0  0  0  0  0  0  0  0  0  0  0  0
   -9.3036    0.5187    0.0000 C   0  0  0  0  0  0  0  0  0  0  0  0
  -10.2314    1.6973    0.0000 N   0  0  0  0  0  0  0  0  0  0  0  0
  -11.7160    1.4830    0.0000 C   0  0  0  0  0  0  0  0  0  0  0  0
  -12.2728    0.0902    0.0000 N   0  0  0  0  0  0  0  0  0  0  0  0
  -12.6439    2.6616    0.0000 N   0  0  0  0  0  0  0  0  0  0  0  0
   -4.8497    1.1614    0.0000 C   0  0  0  0  0  0  0  0  0  0  0  0
   -3.3651    1.3757    0.0000 O   0  0  0  0  0  0  0  0  0  0  0  0
   -5.7776    2.3400    0.0000 O   0  0  0  0  0  0  0  0  0  0  0  0
    1.8310   -3.1244    0.0000 C   0  0  0  0  0  0  0  0  0  0  0  0
    2.8769   -4.1996    0.0000 C   0  0  0  0  0  0  0  0  0  0  0  0
    4.2227   -3.5371    0.0000 C   0  0  0  0  0  0  0  0  0  0  0  0
    4.0084   -2.0524    0.0000 C   0  0  0  0  0  0  0  0  0  0  0  0
    4.9684   -0.8998    0.0000 C   0  0  0  0  0  0  0  0  0  0  0  0
    6.4465   -1.1548    0.0000 C   0  0  0  0  0  0  0  0  0  0  0  0
    6.9648   -2.5625    0.0000 O   0  0  0  0  0  0  0  0  0  0  0  0
    7.4064   -0.0022    0.0000 C   0  0  0  0  0  0  0  0  0  0  0  0
    6.8882    1.4054    0.0000 C   0  0  0  0  0  0  0  0  0  0  0  0
    7.8481    2.5581    0.0000 C   0  0  0  0  0  0  0  0  0  0  0  0
    7.3299    3.9657    0.0000 C   0  0  0  0  0  0  0  0  0  0  0  0
    8.2898    5.1183    0.0000 O   0  0  0  0  0  0  0  0  0  0  0  0
    5.8517    4.2207    0.0000 C   0  0  0  0  0  0  0  0  0  0  0  0
    4.8918    3.0681    0.0000 C   0  0  0  0  0  0  0  0  0  0  0  0
    5.4100    1.6604    0.0000 C   0  0  0  0  0  0  0  0  0  0  0  0
    3.9319    1.9155    0.0000 C   0  0  0  0  0  0  0  0  0  0  0  0
    4.4501    0.5078    0.0000 C   0  0  0  0  0  0  0  0  0  0  0  0
    2.9719    0.7628    0.0000 C   0  0  0  0  0  0  0  0  0  0  0  0
    2.0120   -0.3898    0.0000 C   0  0  0  0  0  0  0  0  0  0  0  0
    0.5339   -0.1348    0.0000 O   0  0  0  0  0  0  0  0  0  0  0  0
    2.5303   -1.7974    0.0000 C   0  0  0  0  0  0  0  0  0  0  0  0
    1.0335   -1.6983    0.0000 C   0  0  0  0  0  0  0  0  0  0  0  0
  2  1  1  6
  2  3  1  0
  3  4  1  0
  4  5  1  0
  5  6  2  0
  5  7  1  0
  7  8  1  0
  8  9  1  1
  9 10  1  0
 10 11  1  0
 11 12  1  0
 12 13  1  0
 13 14  2  0
 13 15  1  0
  8 16  1  0
 16 17  2  0
 16 18  1  0
  2 19  1  0
 19 20  1  6
 20 21  1  0
 22 21  1  6
 22 23  1  0
 23 24  1  1
 24 25  1  1
 24 26  1  0
 27 26  1  1
 27 28  1  0
 28 29  1  0
 29 30  1  1
 29 31  1  0
 31 32  1  0
 32 33  1  0
 33 34  1  6
 33 35  1  0
 35 36  1  6
 36 37  1  0
 37 38  1  1
 37 39  1  0
 39 40  1  6
 39 19  1  0
 39 22  1  0
 35 23  1  0
 33 27  1  0
M  END
>  <MS_ID>  (2807) 
MS2902

>  <SMILES>  (2807) 
C[C@H](CCC(=O)N[C@@H](CCCNC(=N)N)C(=O)O)[C@H]1CC[C@H]2[C@@H]3[C@H](O)C[C@@H]4C[C@H](O)CC[C@]4(C)[C@H]3C[C@H](O)[C@]12C

>  <Structure_dimension>  (2807) 
2D

$$$$
MS2903
     RDKit          2D

 39 43  0  0  0  0  0  0  0  0999 V2000
   -0.3888   -4.8542    0.0000 C   0  0  0  0  0  0  0  0  0  0  0  0
    0.1383   -3.4499    0.0000 C   0  0  0  0  0  0  0  0  0  0  0  0
   -0.8144   -2.2913    0.0000 C   0  0  0  0  0  0  0  0  0  0  0  0
   -2.2941   -2.5370    0.0000 C   0  0  0  0  0  0  0  0  0  0  0  0
   -3.2468   -1.3784    0.0000 C   0  0  0  0  0  0  0  0  0  0  0  0
   -2.7197    0.0260    0.0000 O   0  0  0  0  0  0  0  0  0  0  0  0
   -4.7265   -1.6241    0.0000 N   0  0  0  0  0  0  0  0  0  0  0  0
   -5.6792   -0.4655    0.0000 C   0  0  0  0  0  0  0  0  0  0  0  0
   -7.1589   -0.7112    0.0000 C   0  0  0  0  0  0  0  0  0  0  0  0
   -8.1116    0.4474    0.0000 C   0  0  0  0  0  0  0  0  0  0  0  0
   -7.5846    1.8518    0.0000 C   0  0  0  0  0  0  0  0  0  0  0  0
   -8.5372    3.0104    0.0000 C   0  0  0  0  0  0  0  0  0  0  0  0
  -10.0170    2.7647    0.0000 C   0  0  0  0  0  0  0  0  0  0  0  0
  -10.5440    1.3603    0.0000 C   0  0  0  0  0  0  0  0  0  0  0  0
   -9.5914    0.2017    0.0000 C   0  0  0  0  0  0  0  0  0  0  0  0
   -5.1521    0.9389    0.0000 C   0  0  0  0  0  0  0  0  0  0  0  0
   -3.6724    1.1846    0.0000 O   0  0  0  0  0  0  0  0  0  0  0  0
   -6.1048    2.0975    0.0000 O   0  0  0  0  0  0  0  0  0  0  0  0
    1.6180   -3.2041    0.0000 C   0  0  0  0  0  0  0  0  0  0  0  0
    2.6866   -4.2568    0.0000 C   0  0  0  0  0  0  0  0  0  0  0  0
    4.0180   -3.5659    0.0000 C   0  0  0  0  0  0  0  0  0  0  0  0
    3.7722   -2.0861    0.0000 C   0  0  0  0  0  0  0  0  0  0  0  0
    4.7075   -0.9134    0.0000 C   0  0  0  0  0  0  0  0  0  0  0  0
    6.1907   -1.1369    0.0000 C   0  0  0  0  0  0  0  0  0  0  0  0
    6.7387   -2.5333    0.0000 O   0  0  0  0  0  0  0  0  0  0  0  0
    7.1260    0.0358    0.0000 C   0  0  0  0  0  0  0  0  0  0  0  0
    6.5779    1.4321    0.0000 C   0  0  0  0  0  0  0  0  0  0  0  0
    7.5132    2.6049    0.0000 C   0  0  0  0  0  0  0  0  0  0  0  0
    6.9652    4.0012    0.0000 C   0  0  0  0  0  0  0  0  0  0  0  0
    7.9004    5.1739    0.0000 O   0  0  0  0  0  0  0  0  0  0  0  0
    5.4819    4.2247    0.0000 C   0  0  0  0  0  0  0  0  0  0  0  0
    4.5467    3.0520    0.0000 C   0  0  0  0  0  0  0  0  0  0  0  0
    5.0947    1.6557    0.0000 C   0  0  0  0  0  0  0  0  0  0  0  0
    3.6114    1.8792    0.0000 C   0  0  0  0  0  0  0  0  0  0  0  0
    4.1595    0.4829    0.0000 C   0  0  0  0  0  0  0  0  0  0  0  0
    2.6762    0.7065    0.0000 C   0  0  0  0  0  0  0  0  0  0  0  0
    1.7410   -0.4663    0.0000 C   0  0  0  0  0  0  0  0  0  0  0  0
    2.2890   -1.8626    0.0000 C   0  0  0  0  0  0  0  0  0  0  0  0
    0.7905   -1.7953    0.0000 C   0  0  0  0  0  0  0  0  0  0  0  0
  2  1  1  6
  2  3  1  0
  3  4  1  0
  4  5  1  0
  5  6  2  0
  5  7  1  0
  7  8  1  0
  8  9  1  1
  9 10  1  0
 10 11  2  0
 11 12  1  0
 12 13  2  0
 13 14  1  0
 14 15  2  0
  8 16  1  0
 16 17  2  0
 16 18  1  0
  2 19  1  0
 19 20  1  6
 20 21  1  0
 22 21  1  6
 22 23  1  0
 23 24  1  1
 24 25  1  1
 24 26  1  0
 27 26  1  1
 27 28  1  0
 28 29  1  0
 29 30  1  1
 29 31  1  0
 31 32  1  0
 32 33  1  0
 33 34  1  6
 33 35  1  0
 35 36  1  6
 36 37  1  0
 37 38  1  0
 38 39  1  6
 15 10  1  0
 38 19  1  0
 38 22  1  0
 35 23  1  0
 33 27  1  0
M  END
>  <MS_ID>  (2808) 
MS2903

>  <SMILES>  (2808) 
C[C@H](CCC(=O)N[C@@H](Cc1ccccc1)C(=O)O)[C@H]1CC[C@H]2[C@@H]3[C@H](O)C[C@@H]4C[C@H](O)CC[C@]4(C)[C@H]3CC[C@]12C

>  <Structure_dimension>  (2808) 
2D

$$$$
MS2904
     RDKit          2D

 34 37  0  0  0  0  0  0  0  0999 V2000
    7.2133   -3.2107    0.0000 C   0  0  0  0  0  0  0  0  0  0  0  0
    6.8534   -1.7546    0.0000 C   0  0  0  0  0  0  0  0  0  0  0  0
    5.4124   -1.3381    0.0000 C   0  0  0  0  0  0  0  0  0  0  0  0
    4.3312   -2.3779    0.0000 C   0  0  0  0  0  0  0  0  0  0  0  0
    4.6911   -3.8340    0.0000 C   0  0  0  0  0  0  0  0  0  0  0  0
    2.8902   -1.9614    0.0000 C   0  0  0  0  0  0  0  0  0  0  0  0
    5.0525    0.1181    0.0000 C   0  0  0  0  0  0  0  0  0  0  0  0
    6.1337    1.1578    0.0000 O   0  0  0  0  0  0  0  0  0  0  0  0
    3.6115    0.5345    0.0000 C   0  0  0  0  0  0  0  0  0  0  0  0
    2.5303   -0.5052    0.0000 O   0  0  0  0  0  0  0  0  0  0  0  0
    3.2516    1.9907    0.0000 C   0  0  0  0  0  0  0  0  0  0  0  0
    4.3328    3.0305    0.0000 C   0  0  0  0  0  0  0  0  0  0  0  0
    1.8106    2.4072    0.0000 C   0  0  0  0  0  0  0  0  0  0  0  0
    1.3005    3.8178    0.0000 C   0  0  0  0  0  0  0  0  0  0  0  0
   -0.1987    3.7685    0.0000 C   0  0  0  0  0  0  0  0  0  0  0  0
   -0.6152    2.3275    0.0000 C   0  0  0  0  0  0  0  0  0  0  0  0
   -1.9647    1.6727    0.0000 C   0  0  0  0  0  0  0  0  0  0  0  0
   -3.2066    2.5141    0.0000 C   0  0  0  0  0  0  0  0  0  0  0  0
   -4.5561    1.8593    0.0000 C   0  0  0  0  0  0  0  0  0  0  0  0
   -5.7979    2.7007    0.0000 O   0  0  0  0  0  0  0  0  0  0  0  0
   -4.6638    0.3632    0.0000 C   0  0  0  0  0  0  0  0  0  0  0  0
   -6.0134   -0.2916    0.0000 C   0  0  0  0  0  0  0  0  0  0  0  0
   -6.1211   -1.7877    0.0000 C   0  0  0  0  0  0  0  0  0  0  0  0
   -7.4707   -2.4424    0.0000 O   0  0  0  0  0  0  0  0  0  0  0  0
   -4.8793   -2.6290    0.0000 C   0  0  0  0  0  0  0  0  0  0  0  0
   -4.9870   -4.1252    0.0000 O   0  0  0  0  0  0  0  0  0  0  0  0
   -3.5298   -1.9743    0.0000 C   0  0  0  0  0  0  0  0  0  0  0  0
   -3.4220   -0.4782    0.0000 C   0  0  0  0  0  0  0  0  0  0  0  0
   -2.1802   -1.3195    0.0000 C   0  0  0  0  0  0  0  0  0  0  0  0
   -2.0725    0.1766    0.0000 C   0  0  0  0  0  0  0  0  0  0  0  0
   -0.8307   -0.6648    0.0000 C   0  0  0  0  0  0  0  0  0  0  0  0
    0.5189   -0.0100    0.0000 C   0  0  0  0  0  0  0  0  0  0  0  0
    0.6266    1.4861    0.0000 C   0  0  0  0  0  0  0  0  0  0  0  0
    1.9496    0.7792    0.0000 C   0  0  0  0  0  0  0  0  0  0  0  0
  1  2  1  0
  3  2  1  1
  3  4  1  0
  4  5  1  0
  4  6  1  0
  3  7  1  0
  7  8  1  6
  7  9  1  0
  9 10  1  6
  9 11  1  0
 11 12  1  6
 11 13  1  0
 13 14  1  6
 14 15  1  0
 16 15  1  6
 16 17  1  0
 17 18  1  1
 18 19  1  0
 19 20  2  0
 19 21  1  0
 21 22  1  6
 22 23  1  0
 23 24  1  1
 23 25  1  0
 25 26  1  1
 25 27  1  0
 27 28  1  0
 28 29  1  6
 28 30  1  0
 30 31  1  6
 31 32  1  0
 32 33  1  0
 33 34  1  6
 33 13  1  0
 33 16  1  0
 30 17  1  0
 28 21  1  0
M  END
>  <MS_ID>  (2809) 
MS2904

>  <SMILES>  (2809) 
CC[C@@H](C(C)C)[C@@H](O)[C@H](O)[C@@H](C)[C@H]1CC[C@H]2[C@@H]3CC(=O)[C@H]4C[C@H](O)[C@H](O)C[C@]4(C)[C@H]3CC[C@]12C

>  <Structure_dimension>  (2809) 
2D

$$$$
MS2905
     RDKit          2D

 42 47  0  0  0  0  0  0  0  0999 V2000
    0.4755   -4.8298    0.0000 C   0  0  0  0  0  0  0  0  0  0  0  0
    1.0075   -3.4274    0.0000 C   0  0  0  0  0  0  0  0  0  0  0  0
    0.0589   -2.2654    0.0000 C   0  0  0  0  0  0  0  0  0  0  0  0
   -1.4217   -2.5059    0.0000 C   0  0  0  0  0  0  0  0  0  0  0  0
   -2.3703   -1.3440    0.0000 C   0  0  0  0  0  0  0  0  0  0  0  0
   -1.8383    0.0585    0.0000 O   0  0  0  0  0  0  0  0  0  0  0  0
   -3.8509   -1.5845    0.0000 N   0  0  0  0  0  0  0  0  0  0  0  0
   -4.7995   -0.4226    0.0000 C   0  0  0  0  0  0  0  0  0  0  0  0
   -6.2801   -0.6631    0.0000 C   0  0  0  0  0  0  0  0  0  0  0  0
   -7.2287    0.4989    0.0000 C   0  0  0  0  0  0  0  0  0  0  0  0
   -6.8462    1.9493    0.0000 C   0  0  0  0  0  0  0  0  0  0  0  0
   -8.1075    2.7612    0.0000 N   0  0  0  0  0  0  0  0  0  0  0  0
   -9.2694    1.8126    0.0000 C   0  0  0  0  0  0  0  0  0  0  0  0
  -10.7519    2.0414    0.0000 C   0  0  0  0  0  0  0  0  0  0  0  0
  -11.6912    0.8719    0.0000 C   0  0  0  0  0  0  0  0  0  0  0  0
  -11.1481   -0.5263    0.0000 C   0  0  0  0  0  0  0  0  0  0  0  0
   -9.6656   -0.7550    0.0000 C   0  0  0  0  0  0  0  0  0  0  0  0
   -8.7263    0.4144    0.0000 C   0  0  0  0  0  0  0  0  0  0  0  0
   -4.2675    0.9799    0.0000 C   0  0  0  0  0  0  0  0  0  0  0  0
   -2.7869    1.2205    0.0000 O   0  0  0  0  0  0  0  0  0  0  0  0
   -5.2161    2.1419    0.0000 O   0  0  0  0  0  0  0  0  0  0  0  0
    2.4881   -3.1868    0.0000 C   0  0  0  0  0  0  0  0  0  0  0  0
    3.5530   -4.2433    0.0000 C   0  0  0  0  0  0  0  0  0  0  0  0
    4.8868   -3.5570    0.0000 C   0  0  0  0  0  0  0  0  0  0  0  0
    4.6462   -2.0764    0.0000 C   0  0  0  0  0  0  0  0  0  0  0  0
    5.5856   -0.9069    0.0000 C   0  0  0  0  0  0  0  0  0  0  0  0
    7.0680   -1.1357    0.0000 C   0  0  0  0  0  0  0  0  0  0  0  0
    7.6111   -2.5339    0.0000 O   0  0  0  0  0  0  0  0  0  0  0  0
    8.0073    0.0338    0.0000 C   0  0  0  0  0  0  0  0  0  0  0  0
    7.4642    1.4320    0.0000 C   0  0  0  0  0  0  0  0  0  0  0  0
    8.4036    2.6015    0.0000 C   0  0  0  0  0  0  0  0  0  0  0  0
    7.8605    3.9997    0.0000 C   0  0  0  0  0  0  0  0  0  0  0  0
    8.7998    5.1692    0.0000 O   0  0  0  0  0  0  0  0  0  0  0  0
    6.3780    4.2285    0.0000 C   0  0  0  0  0  0  0  0  0  0  0  0
    5.4387    3.0590    0.0000 C   0  0  0  0  0  0  0  0  0  0  0  0
    5.9818    1.6608    0.0000 C   0  0  0  0  0  0  0  0  0  0  0  0
    4.4993    1.8895    0.0000 C   0  0  0  0  0  0  0  0  0  0  0  0
    5.0424    0.4913    0.0000 C   0  0  0  0  0  0  0  0  0  0  0  0
    3.5600    0.7201    0.0000 C   0  0  0  0  0  0  0  0  0  0  0  0
    2.6206   -0.4494    0.0000 C   0  0  0  0  0  0  0  0  0  0  0  0
    3.1638   -1.8476    0.0000 C   0  0  0  0  0  0  0  0  0  0  0  0
    1.6655   -1.7751    0.0000 C   0  0  0  0  0  0  0  0  0  0  0  0
  2  1  1  6
  2  3  1  0
  3  4  1  0
  4  5  1  0
  5  6  2  0
  5  7  1  0
  7  8  1  0
  8  9  1  1
  9 10  1  0
 10 11  2  0
 11 12  1  0
 12 13  1  0
 13 14  2  0
 14 15  1  0
 15 16  2  0
 16 17  1  0
 17 18  2  0
  8 19  1  0
 19 20  2  0
 19 21  1  0
  2 22  1  0
 22 23  1  6
 23 24  1  0
 25 24  1  6
 25 26  1  0
 26 27  1  1
 27 28  1  1
 27 29  1  0
 30 29  1  1
 30 31  1  0
 31 32  1  0
 32 33  1  1
 32 34  1  0
 34 35  1  0
 35 36  1  0
 36 37  1  6
 36 38  1  0
 38 39  1  6
 39 40  1  0
 40 41  1  0
 41 42  1  6
 18 10  1  0
 41 22  1  0
 18 13  1  0
 41 25  1  0
 38 26  1  0
 36 30  1  0
M  END
>  <MS_ID>  (2810) 
MS2905

>  <SMILES>  (2810) 
C[C@H](CCC(=O)N[C@@H](Cc1c[nH]c2ccccc12)C(=O)O)[C@H]1CC[C@H]2[C@@H]3[C@H](O)C[C@@H]4C[C@H](O)CC[C@]4(C)[C@H]3CC[C@]12C

>  <Structure_dimension>  (2810) 
2D

$$$$
MS2906
     RDKit          2D

 39 42  0  0  0  0  0  0  0  0999 V2000
   -0.1970   -4.7350    0.0000 C   0  0  0  0  0  0  0  0  0  0  0  0
    0.3598   -3.3422    0.0000 C   0  0  0  0  0  0  0  0  0  0  0  0
   -0.5680   -2.1635    0.0000 C   0  0  0  0  0  0  0  0  0  0  0  0
   -2.0526   -2.3777    0.0000 C   0  0  0  0  0  0  0  0  0  0  0  0
   -2.9804   -1.1990    0.0000 C   0  0  0  0  0  0  0  0  0  0  0  0
   -2.4235    0.1938    0.0000 O   0  0  0  0  0  0  0  0  0  0  0  0
   -4.4650   -1.4132    0.0000 N   0  0  0  0  0  0  0  0  0  0  0  0
   -5.3928   -0.2346    0.0000 C   0  0  0  0  0  0  0  0  0  0  0  0
   -6.8774   -0.4487    0.0000 C   0  0  0  0  0  0  0  0  0  0  0  0
   -7.8052    0.7299    0.0000 C   0  0  0  0  0  0  0  0  0  0  0  0
   -9.2899    0.5158    0.0000 C   0  0  0  0  0  0  0  0  0  0  0  0
  -10.2176    1.6944    0.0000 N   0  0  0  0  0  0  0  0  0  0  0  0
  -11.7023    1.4802    0.0000 C   0  0  0  0  0  0  0  0  0  0  0  0
  -12.2591    0.0874    0.0000 N   0  0  0  0  0  0  0  0  0  0  0  0
  -12.6301    2.6589    0.0000 N   0  0  0  0  0  0  0  0  0  0  0  0
   -4.8360    1.1583    0.0000 C   0  0  0  0  0  0  0  0  0  0  0  0
   -3.3513    1.3724    0.0000 O   0  0  0  0  0  0  0  0  0  0  0  0
   -5.7637    2.3369    0.0000 O   0  0  0  0  0  0  0  0  0  0  0  0
    1.8445   -3.1280    0.0000 C   0  0  0  0  0  0  0  0  0  0  0  0
    2.8904   -4.2032    0.0000 C   0  0  0  0  0  0  0  0  0  0  0  0
    4.2362   -3.5408    0.0000 C   0  0  0  0  0  0  0  0  0  0  0  0
    4.0220   -2.0561    0.0000 C   0  0  0  0  0  0  0  0  0  0  0  0
    4.9820   -0.9036    0.0000 C   0  0  0  0  0  0  0  0  0  0  0  0
    6.4601   -1.1587    0.0000 C   0  0  0  0  0  0  0  0  0  0  0  0
    6.9783   -2.5663    0.0000 O   0  0  0  0  0  0  0  0  0  0  0  0
    7.4201   -0.0061    0.0000 C   0  0  0  0  0  0  0  0  0  0  0  0
    6.9020    1.4016    0.0000 C   0  0  0  0  0  0  0  0  0  0  0  0
    7.8620    2.5541    0.0000 C   0  0  0  0  0  0  0  0  0  0  0  0
    7.3438    3.9618    0.0000 C   0  0  0  0  0  0  0  0  0  0  0  0
    8.3038    5.1144    0.0000 O   0  0  0  0  0  0  0  0  0  0  0  0
    5.8657    4.2169    0.0000 C   0  0  0  0  0  0  0  0  0  0  0  0
    4.9057    3.0643    0.0000 C   0  0  0  0  0  0  0  0  0  0  0  0
    5.4238    1.6567    0.0000 C   0  0  0  0  0  0  0  0  0  0  0  0
    3.9457    1.9118    0.0000 C   0  0  0  0  0  0  0  0  0  0  0  0
    4.4638    0.5041    0.0000 C   0  0  0  0  0  0  0  0  0  0  0  0
    2.9857    0.7592    0.0000 C   0  0  0  0  0  0  0  0  0  0  0  0
    2.0257   -0.3934    0.0000 C   0  0  0  0  0  0  0  0  0  0  0  0
    2.5438   -1.8010    0.0000 C   0  0  0  0  0  0  0  0  0  0  0  0
    1.0471   -1.7018    0.0000 C   0  0  0  0  0  0  0  0  0  0  0  0
  2  1  1  6
  2  3  1  0
  3  4  1  0
  4  5  1  0
  5  6  2  0
  5  7  1  0
  7  8  1  0
  8  9  1  1
  9 10  1  0
 10 11  1  0
 11 12  1  0
 12 13  1  0
 13 14  2  0
 13 15  1  0
  8 16  1  0
 16 17  2  0
 16 18  1  0
  2 19  1  0
 19 20  1  6
 20 21  1  0
 22 21  1  6
 22 23  1  0
 23 24  1  1
 24 25  1  1
 24 26  1  0
 27 26  1  1
 27 28  1  0
 28 29  1  0
 29 30  1  1
 29 31  1  0
 31 32  1  0
 32 33  1  0
 33 34  1  6
 33 35  1  0
 35 36  1  6
 36 37  1  0
 37 38  1  0
 38 39  1  6
 38 19  1  0
 38 22  1  0
 35 23  1  0
 33 27  1  0
M  END
>  <MS_ID>  (2811) 
MS2906

>  <SMILES>  (2811) 
C[C@H](CCC(=O)N[C@@H](CCCNC(=N)N)C(=O)O)[C@H]1CC[C@H]2[C@@H]3[C@H](O)C[C@@H]4C[C@H](O)CC[C@]4(C)[C@H]3CC[C@]12C

>  <Structure_dimension>  (2811) 
2D

$$$$
MS2907
     RDKit          2D

 39 43  0  0  0  0  0  0  0  0999 V2000
   -0.7711   -4.7661    0.0000 C   0  0  0  0  0  0  0  0  0  0  0  0
   -0.2075   -3.3760    0.0000 C   0  0  0  0  0  0  0  0  0  0  0  0
   -1.1295   -2.1928    0.0000 C   0  0  0  0  0  0  0  0  0  0  0  0
   -2.6151   -2.3997    0.0000 C   0  0  0  0  0  0  0  0  0  0  0  0
   -3.5371   -1.2165    0.0000 C   0  0  0  0  0  0  0  0  0  0  0  0
   -2.9735    0.1735    0.0000 O   0  0  0  0  0  0  0  0  0  0  0  0
   -5.0228   -1.4234    0.0000 N   0  0  0  0  0  0  0  0  0  0  0  0
   -5.9448   -0.2402    0.0000 C   0  0  0  0  0  0  0  0  0  0  0  0
   -7.4305   -0.4471    0.0000 C   0  0  0  0  0  0  0  0  0  0  0  0
   -8.3525    0.7361    0.0000 C   0  0  0  0  0  0  0  0  0  0  0  0
   -9.8516    0.6856    0.0000 C   0  0  0  0  0  0  0  0  0  0  0  0
  -10.3629    2.0958    0.0000 N   0  0  0  0  0  0  0  0  0  0  0  0
   -9.1797    3.0178    0.0000 C   0  0  0  0  0  0  0  0  0  0  0  0
   -7.9372    2.1774    0.0000 N   0  0  0  0  0  0  0  0  0  0  0  0
   -5.3811    1.1498    0.0000 C   0  0  0  0  0  0  0  0  0  0  0  0
   -3.8955    1.3567    0.0000 O   0  0  0  0  0  0  0  0  0  0  0  0
   -6.3031    2.3330    0.0000 O   0  0  0  0  0  0  0  0  0  0  0  0
    1.2782   -3.1691    0.0000 C   0  0  0  0  0  0  0  0  0  0  0  0
    2.3188   -4.2495    0.0000 C   0  0  0  0  0  0  0  0  0  0  0  0
    3.6678   -3.5936    0.0000 C   0  0  0  0  0  0  0  0  0  0  0  0
    3.4609   -2.1079    0.0000 C   0  0  0  0  0  0  0  0  0  0  0  0
    4.4266   -0.9601    0.0000 C   0  0  0  0  0  0  0  0  0  0  0  0
    5.9035   -1.2224    0.0000 C   0  0  0  0  0  0  0  0  0  0  0  0
    6.4147   -2.6326    0.0000 O   0  0  0  0  0  0  0  0  0  0  0  0
    6.8691   -0.0746    0.0000 C   0  0  0  0  0  0  0  0  0  0  0  0
    6.3578    1.3356    0.0000 C   0  0  0  0  0  0  0  0  0  0  0  0
    7.3235    2.4835    0.0000 C   0  0  0  0  0  0  0  0  0  0  0  0
    6.8122    3.8936    0.0000 C   0  0  0  0  0  0  0  0  0  0  0  0
    7.7779    5.0415    0.0000 O   0  0  0  0  0  0  0  0  0  0  0  0
    5.3353    4.1560    0.0000 C   0  0  0  0  0  0  0  0  0  0  0  0
    4.3697    3.0081    0.0000 C   0  0  0  0  0  0  0  0  0  0  0  0
    4.8810    1.5980    0.0000 C   0  0  0  0  0  0  0  0  0  0  0  0
    3.4041    1.8603    0.0000 C   0  0  0  0  0  0  0  0  0  0  0  0
    3.9153    0.4501    0.0000 C   0  0  0  0  0  0  0  0  0  0  0  0
    2.4384    0.7124    0.0000 C   0  0  0  0  0  0  0  0  0  0  0  0
    1.4728   -0.4354    0.0000 C   0  0  0  0  0  0  0  0  0  0  0  0
   -0.0041   -0.1731    0.0000 O   0  0  0  0  0  0  0  0  0  0  0  0
    1.9841   -1.8456    0.0000 C   0  0  0  0  0  0  0  0  0  0  0  0
    0.4879   -1.7391    0.0000 C   0  0  0  0  0  0  0  0  0  0  0  0
  2  1  1  6
  2  3  1  0
  3  4  1  0
  4  5  1  0
  5  6  2  0
  5  7  1  0
  7  8  1  0
  8  9  1  1
  9 10  1  0
 10 11  2  0
 11 12  1  0
 12 13  1  0
 13 14  2  0
  8 15  1  0
 15 16  2  0
 15 17  1  0
  2 18  1  0
 18 19  1  6
 19 20  1  0
 21 20  1  6
 21 22  1  0
 22 23  1  1
 23 24  1  1
 23 25  1  0
 26 25  1  1
 26 27  1  0
 27 28  1  0
 28 29  1  1
 28 30  1  0
 30 31  1  0
 31 32  1  0
 32 33  1  6
 32 34  1  0
 34 35  1  6
 35 36  1  0
 36 37  1  1
 36 38  1  0
 38 39  1  6
 14 10  1  0
 38 18  1  0
 38 21  1  0
 34 22  1  0
 32 26  1  0
M  END
>  <MS_ID>  (2812) 
MS2907

>  <SMILES>  (2812) 
C[C@H](CCC(=O)N[C@@H](Cc1c[nH]cn1)C(=O)O)[C@H]1CC[C@H]2[C@@H]3[C@H](O)C[C@@H]4C[C@H](O)CC[C@]4(C)[C@H]3C[C@H](O)[C@]12C

>  <Structure_dimension>  (2812) 
2D

$$$$
MS2908
     RDKit          2D

 35 38  0  0  0  0  0  0  0  0999 V2000
   -2.4760   -4.2239    0.0000 C   0  0  0  0  0  0  0  0  0  0  0  0
   -1.7169   -2.9302    0.0000 C   0  0  0  0  0  0  0  0  0  0  0  0
   -2.4577   -1.6259    0.0000 C   0  0  0  0  0  0  0  0  0  0  0  0
   -3.9576   -1.6153    0.0000 C   0  0  0  0  0  0  0  0  0  0  0  0
   -4.6984   -0.3110    0.0000 C   0  0  0  0  0  0  0  0  0  0  0  0
   -3.9393    0.9827    0.0000 O   0  0  0  0  0  0  0  0  0  0  0  0
   -6.1984   -0.3004    0.0000 N   0  0  0  0  0  0  0  0  0  0  0  0
   -6.9392    1.0039    0.0000 C   0  0  0  0  0  0  0  0  0  0  0  0
   -8.4391    1.0145    0.0000 C   0  0  0  0  0  0  0  0  0  0  0  0
   -9.1800    2.3188    0.0000 O   0  0  0  0  0  0  0  0  0  0  0  0
   -6.1800    2.2976    0.0000 C   0  0  0  0  0  0  0  0  0  0  0  0
   -4.6801    2.2870    0.0000 O   0  0  0  0  0  0  0  0  0  0  0  0
   -6.9208    3.6019    0.0000 O   0  0  0  0  0  0  0  0  0  0  0  0
   -0.2169   -2.9408    0.0000 C   0  0  0  0  0  0  0  0  0  0  0  0
    0.6562   -4.1606    0.0000 C   0  0  0  0  0  0  0  0  0  0  0  0
    2.0860   -3.7071    0.0000 C   0  0  0  0  0  0  0  0  0  0  0  0
    2.0966   -2.2072    0.0000 C   0  0  0  0  0  0  0  0  0  0  0  0
    3.2184   -1.2114    0.0000 C   0  0  0  0  0  0  0  0  0  0  0  0
    4.6417   -1.6850    0.0000 C   0  0  0  0  0  0  0  0  0  0  0  0
    4.9432   -3.1544    0.0000 O   0  0  0  0  0  0  0  0  0  0  0  0
    5.7634   -0.6892    0.0000 C   0  0  0  0  0  0  0  0  0  0  0  0
    5.4620    0.7802    0.0000 C   0  0  0  0  0  0  0  0  0  0  0  0
    6.5837    1.7760    0.0000 C   0  0  0  0  0  0  0  0  0  0  0  0
    6.2822    3.2454    0.0000 C   0  0  0  0  0  0  0  0  0  0  0  0
    7.4040    4.2412    0.0000 O   0  0  0  0  0  0  0  0  0  0  0  0
    4.8590    3.7190    0.0000 C   0  0  0  0  0  0  0  0  0  0  0  0
    3.7372    2.7232    0.0000 C   0  0  0  0  0  0  0  0  0  0  0  0
    4.0387    1.2538    0.0000 C   0  0  0  0  0  0  0  0  0  0  0  0
    2.6154    1.7274    0.0000 C   0  0  0  0  0  0  0  0  0  0  0  0
    2.9169    0.2580    0.0000 C   0  0  0  0  0  0  0  0  0  0  0  0
    1.4936    0.7316    0.0000 C   0  0  0  0  0  0  0  0  0  0  0  0
    0.3718   -0.2642    0.0000 C   0  0  0  0  0  0  0  0  0  0  0  0
   -1.0514    0.2094    0.0000 O   0  0  0  0  0  0  0  0  0  0  0  0
    0.6733   -1.7336    0.0000 C   0  0  0  0  0  0  0  0  0  0  0  0
   -0.7916   -1.4113    0.0000 C   0  0  0  0  0  0  0  0  0  0  0  0
  2  1  1  6
  2  3  1  0
  3  4  1  0
  4  5  1  0
  5  6  2  0
  5  7  1  0
  7  8  1  0
  8  9  1  1
  9 10  1  0
  8 11  1  0
 11 12  2  0
 11 13  1  0
  2 14  1  0
 14 15  1  6
 15 16  1  0
 17 16  1  6
 17 18  1  0
 18 19  1  1
 19 20  1  1
 19 21  1  0
 22 21  1  1
 22 23  1  0
 23 24  1  0
 24 25  1  1
 24 26  1  0
 26 27  1  0
 27 28  1  0
 28 29  1  6
 28 30  1  0
 30 31  1  6
 31 32  1  0
 32 33  1  1
 32 34  1  0
 34 35  1  6
 34 14  1  0
 34 17  1  0
 30 18  1  0
 28 22  1  0
M  END
>  <MS_ID>  (2813) 
MS2908

>  <SMILES>  (2813) 
C[C@H](CCC(=O)N[C@@H](CO)C(=O)O)[C@H]1CC[C@H]2[C@@H]3[C@H](O)C[C@@H]4C[C@H](O)CC[C@]4(C)[C@H]3C[C@H](O)[C@]12C

>  <Structure_dimension>  (2813) 
2D

$$$$
MS2909
     RDKit          2D

 42 47  0  0  0  0  0  0  0  0999 V2000
    0.5610   -4.8933    0.0000 C   0  0  0  0  0  0  0  0  0  0  0  0
    1.1126   -3.4984    0.0000 C   0  0  0  0  0  0  0  0  0  0  0  0
    0.1804   -2.3232    0.0000 C   0  0  0  0  0  0  0  0  0  0  0  0
   -1.3034   -2.5429    0.0000 C   0  0  0  0  0  0  0  0  0  0  0  0
   -2.2356   -1.3678    0.0000 C   0  0  0  0  0  0  0  0  0  0  0  0
   -1.6840    0.0271    0.0000 O   0  0  0  0  0  0  0  0  0  0  0  0
   -3.7194   -1.5875    0.0000 N   0  0  0  0  0  0  0  0  0  0  0  0
   -4.6516   -0.4123    0.0000 C   0  0  0  0  0  0  0  0  0  0  0  0
   -6.1354   -0.6320    0.0000 C   0  0  0  0  0  0  0  0  0  0  0  0
   -7.0676    0.5431    0.0000 C   0  0  0  0  0  0  0  0  0  0  0  0
   -6.6648    1.9880    0.0000 C   0  0  0  0  0  0  0  0  0  0  0  0
   -7.9145    2.8176    0.0000 N   0  0  0  0  0  0  0  0  0  0  0  0
   -9.0897    1.8854    0.0000 C   0  0  0  0  0  0  0  0  0  0  0  0
  -10.5688    2.1350    0.0000 C   0  0  0  0  0  0  0  0  0  0  0  0
  -11.5245    0.9789    0.0000 C   0  0  0  0  0  0  0  0  0  0  0  0
  -11.0011   -0.4269    0.0000 C   0  0  0  0  0  0  0  0  0  0  0  0
   -9.5220   -0.6764    0.0000 C   0  0  0  0  0  0  0  0  0  0  0  0
   -8.5663    0.4797    0.0000 C   0  0  0  0  0  0  0  0  0  0  0  0
   -4.1000    0.9826    0.0000 C   0  0  0  0  0  0  0  0  0  0  0  0
   -2.6162    1.2023    0.0000 O   0  0  0  0  0  0  0  0  0  0  0  0
   -5.0322    2.1577    0.0000 O   0  0  0  0  0  0  0  0  0  0  0  0
    2.5964   -3.2787    0.0000 C   0  0  0  0  0  0  0  0  0  0  0  0
    3.6463   -4.3500    0.0000 C   0  0  0  0  0  0  0  0  0  0  0  0
    4.9896   -3.6825    0.0000 C   0  0  0  0  0  0  0  0  0  0  0  0
    4.7699   -2.1987    0.0000 C   0  0  0  0  0  0  0  0  0  0  0  0
    5.7256   -1.0425    0.0000 C   0  0  0  0  0  0  0  0  0  0  0  0
    7.2047   -1.2921    0.0000 C   0  0  0  0  0  0  0  0  0  0  0  0
    8.1604   -0.1359    0.0000 C   0  0  0  0  0  0  0  0  0  0  0  0
    7.6369    1.2698    0.0000 C   0  0  0  0  0  0  0  0  0  0  0  0
    8.5926    2.4259    0.0000 C   0  0  0  0  0  0  0  0  0  0  0  0
    8.0692    3.8316    0.0000 C   0  0  0  0  0  0  0  0  0  0  0  0
    9.0249    4.9878    0.0000 O   0  0  0  0  0  0  0  0  0  0  0  0
    6.5901    4.0812    0.0000 C   0  0  0  0  0  0  0  0  0  0  0  0
    5.6344    2.9251    0.0000 C   0  0  0  0  0  0  0  0  0  0  0  0
    6.1579    1.5193    0.0000 C   0  0  0  0  0  0  0  0  0  0  0  0
    4.6788    1.7689    0.0000 C   0  0  0  0  0  0  0  0  0  0  0  0
    5.2022    0.3632    0.0000 C   0  0  0  0  0  0  0  0  0  0  0  0
    3.7231    0.6128    0.0000 C   0  0  0  0  0  0  0  0  0  0  0  0
    2.7674   -0.5434    0.0000 C   0  0  0  0  0  0  0  0  0  0  0  0
    1.2883   -0.2938    0.0000 O   0  0  0  0  0  0  0  0  0  0  0  0
    3.2908   -1.9491    0.0000 C   0  0  0  0  0  0  0  0  0  0  0  0
    1.7937   -1.8555    0.0000 C   0  0  0  0  0  0  0  0  0  0  0  0
  2  1  1  6
  2  3  1  0
  3  4  1  0
  4  5  1  0
  5  6  2  0
  5  7  1  0
  7  8  1  0
  8  9  1  1
  9 10  1  0
 10 11  2  0
 11 12  1  0
 12 13  1  0
 13 14  2  0
 14 15  1  0
 15 16  2  0
 16 17  1  0
 17 18  2  0
  8 19  1  0
 19 20  2  0
 19 21  1  0
  2 22  1  0
 22 23  1  6
 23 24  1  0
 25 24  1  6
 25 26  1  0
 26 27  1  1
 27 28  1  0
 29 28  1  1
 29 30  1  0
 30 31  1  0
 31 32  1  1
 31 33  1  0
 33 34  1  0
 34 35  1  0
 35 36  1  6
 35 37  1  0
 37 38  1  6
 38 39  1  0
 39 40  1  1
 39 41  1  0
 41 42  1  6
 18 10  1  0
 41 22  1  0
 18 13  1  0
 41 25  1  0
 37 26  1  0
 35 29  1  0
M  END
>  <MS_ID>  (2814) 
MS2909

>  <SMILES>  (2814) 
C[C@H](CCC(=O)N[C@@H](Cc1c[nH]c2ccccc12)C(=O)O)[C@H]1CC[C@H]2[C@@H]3CC[C@@H]4C[C@H](O)CC[C@]4(C)[C@H]3C[C@H](O)[C@]12C

>  <Structure_dimension>  (2814) 
2D

$$$$
MS2910
     RDKit          2D

 38 41  0  0  0  0  0  0  0  0999 V2000
   -1.2384   -4.5207    0.0000 C   0  0  0  0  0  0  0  0  0  0  0  0
   -0.5844   -3.1708    0.0000 C   0  0  0  0  0  0  0  0  0  0  0  0
   -1.4264   -1.9294    0.0000 C   0  0  0  0  0  0  0  0  0  0  0  0
   -2.9224   -2.0379    0.0000 C   0  0  0  0  0  0  0  0  0  0  0  0
   -3.7644   -0.7966    0.0000 C   0  0  0  0  0  0  0  0  0  0  0  0
   -3.1104    0.5533    0.0000 O   0  0  0  0  0  0  0  0  0  0  0  0
   -5.2605   -0.9051    0.0000 N   0  0  0  0  0  0  0  0  0  0  0  0
   -6.1025    0.3363    0.0000 C   0  0  0  0  0  0  0  0  0  0  0  0
   -7.5986    0.2278    0.0000 C   0  0  0  0  0  0  0  0  0  0  0  0
   -8.4406    1.4692    0.0000 C   0  0  0  0  0  0  0  0  0  0  0  0
   -9.9367    1.3607    0.0000 C   0  0  0  0  0  0  0  0  0  0  0  0
  -10.7787    2.6021    0.0000 N   0  0  0  0  0  0  0  0  0  0  0  0
  -10.5907    0.0108    0.0000 O   0  0  0  0  0  0  0  0  0  0  0  0
   -5.4485    1.6862    0.0000 C   0  0  0  0  0  0  0  0  0  0  0  0
   -3.9524    1.7947    0.0000 O   0  0  0  0  0  0  0  0  0  0  0  0
   -6.2905    2.9276    0.0000 O   0  0  0  0  0  0  0  0  0  0  0  0
    0.9117   -3.0623    0.0000 C   0  0  0  0  0  0  0  0  0  0  0  0
    1.8789   -4.2089    0.0000 C   0  0  0  0  0  0  0  0  0  0  0  0
    3.2682   -3.6434    0.0000 C   0  0  0  0  0  0  0  0  0  0  0  0
    3.1597   -2.1473    0.0000 C   0  0  0  0  0  0  0  0  0  0  0  0
    4.1989   -1.0656    0.0000 C   0  0  0  0  0  0  0  0  0  0  0  0
    5.6552   -1.4247    0.0000 C   0  0  0  0  0  0  0  0  0  0  0  0
    6.0724   -2.8655    0.0000 O   0  0  0  0  0  0  0  0  0  0  0  0
    6.6944   -0.3430    0.0000 C   0  0  0  0  0  0  0  0  0  0  0  0
    6.2772    1.0978    0.0000 C   0  0  0  0  0  0  0  0  0  0  0  0
    7.3164    2.1795    0.0000 C   0  0  0  0  0  0  0  0  0  0  0  0
    6.8992    3.6203    0.0000 C   0  0  0  0  0  0  0  0  0  0  0  0
    7.9384    4.7020    0.0000 O   0  0  0  0  0  0  0  0  0  0  0  0
    5.4429    3.9795    0.0000 C   0  0  0  0  0  0  0  0  0  0  0  0
    4.4037    2.8978    0.0000 C   0  0  0  0  0  0  0  0  0  0  0  0
    4.8209    1.4569    0.0000 C   0  0  0  0  0  0  0  0  0  0  0  0
    3.3645    1.8160    0.0000 C   0  0  0  0  0  0  0  0  0  0  0  0
    3.7817    0.3752    0.0000 C   0  0  0  0  0  0  0  0  0  0  0  0
    2.3253    0.7343    0.0000 C   0  0  0  0  0  0  0  0  0  0  0  0
    1.2861   -0.3474    0.0000 C   0  0  0  0  0  0  0  0  0  0  0  0
   -0.1703    0.0118    0.0000 O   0  0  0  0  0  0  0  0  0  0  0  0
    1.7033   -1.7882    0.0000 C   0  0  0  0  0  0  0  0  0  0  0  0
    0.2174   -1.5833    0.0000 C   0  0  0  0  0  0  0  0  0  0  0  0
  2  1  1  6
  2  3  1  0
  3  4  1  0
  4  5  1  0
  5  6  2  0
  5  7  1  0
  7  8  1  0
  8  9  1  1
  9 10  1  0
 10 11  1  0
 11 12  1  0
 11 13  2  0
  8 14  1  0
 14 15  2  0
 14 16  1  0
  2 17  1  0
 17 18  1  6
 18 19  1  0
 20 19  1  6
 20 21  1  0
 21 22  1  1
 22 23  1  1
 22 24  1  0
 25 24  1  1
 25 26  1  0
 26 27  1  0
 27 28  1  1
 27 29  1  0
 29 30  1  0
 30 31  1  0
 31 32  1  6
 31 33  1  0
 33 34  1  6
 34 35  1  0
 35 36  1  1
 35 37  1  0
 37 38  1  6
 37 17  1  0
 37 20  1  0
 33 21  1  0
 31 25  1  0
M  END
>  <MS_ID>  (2815) 
MS2910

>  <SMILES>  (2815) 
C[C@H](CCC(=O)N[C@@H](CCC(N)=O)C(=O)O)[C@H]1CC[C@H]2[C@@H]3[C@H](O)C[C@@H]4C[C@H](O)CC[C@]4(C)[C@H]3C[C@H](O)[C@]12C

>  <Structure_dimension>  (2815) 
2D

$$$$
MS2911
     RDKit          2D

 39 42  0  0  0  0  0  0  0  0999 V2000
   -0.1039   -4.7962    0.0000 C   0  0  0  0  0  0  0  0  0  0  0  0
    0.4737   -3.4119    0.0000 C   0  0  0  0  0  0  0  0  0  0  0  0
   -0.4363   -2.2195    0.0000 C   0  0  0  0  0  0  0  0  0  0  0  0
   -1.9240   -2.4114    0.0000 C   0  0  0  0  0  0  0  0  0  0  0  0
   -2.8340   -1.2190    0.0000 C   0  0  0  0  0  0  0  0  0  0  0  0
   -2.2564    0.1653    0.0000 O   0  0  0  0  0  0  0  0  0  0  0  0
   -4.3217   -1.4110    0.0000 N   0  0  0  0  0  0  0  0  0  0  0  0
   -5.2318   -0.2186    0.0000 C   0  0  0  0  0  0  0  0  0  0  0  0
   -6.7194   -0.4105    0.0000 C   0  0  0  0  0  0  0  0  0  0  0  0
   -7.6295    0.7819    0.0000 C   0  0  0  0  0  0  0  0  0  0  0  0
   -9.1172    0.5900    0.0000 C   0  0  0  0  0  0  0  0  0  0  0  0
  -10.0272    1.7823    0.0000 N   0  0  0  0  0  0  0  0  0  0  0  0
  -11.5149    1.5904    0.0000 C   0  0  0  0  0  0  0  0  0  0  0  0
  -12.0925    0.2061    0.0000 N   0  0  0  0  0  0  0  0  0  0  0  0
  -12.4249    2.7828    0.0000 N   0  0  0  0  0  0  0  0  0  0  0  0
   -4.6541    1.1657    0.0000 C   0  0  0  0  0  0  0  0  0  0  0  0
   -3.1665    1.3577    0.0000 O   0  0  0  0  0  0  0  0  0  0  0  0
   -5.5642    2.3581    0.0000 O   0  0  0  0  0  0  0  0  0  0  0  0
    1.9614   -3.2200    0.0000 C   0  0  0  0  0  0  0  0  0  0  0  0
    2.9911   -4.3107    0.0000 C   0  0  0  0  0  0  0  0  0  0  0  0
    4.3467   -3.6684    0.0000 C   0  0  0  0  0  0  0  0  0  0  0  0
    4.1547   -2.1808    0.0000 C   0  0  0  0  0  0  0  0  0  0  0  0
    5.1319   -1.0427    0.0000 C   0  0  0  0  0  0  0  0  0  0  0  0
    6.6060   -1.3199    0.0000 C   0  0  0  0  0  0  0  0  0  0  0  0
    7.5832   -0.1818    0.0000 C   0  0  0  0  0  0  0  0  0  0  0  0
    7.0861    1.2335    0.0000 C   0  0  0  0  0  0  0  0  0  0  0  0
    8.0632    2.3715    0.0000 C   0  0  0  0  0  0  0  0  0  0  0  0
    7.5662    3.7868    0.0000 C   0  0  0  0  0  0  0  0  0  0  0  0
    8.5433    4.9249    0.0000 O   0  0  0  0  0  0  0  0  0  0  0  0
    6.0920    4.0640    0.0000 C   0  0  0  0  0  0  0  0  0  0  0  0
    5.1149    2.9259    0.0000 C   0  0  0  0  0  0  0  0  0  0  0  0
    5.6119    1.5106    0.0000 C   0  0  0  0  0  0  0  0  0  0  0  0
    4.1378    1.7878    0.0000 C   0  0  0  0  0  0  0  0  0  0  0  0
    4.6348    0.3726    0.0000 C   0  0  0  0  0  0  0  0  0  0  0  0
    3.1606    0.6497    0.0000 C   0  0  0  0  0  0  0  0  0  0  0  0
    2.1835   -0.4883    0.0000 C   0  0  0  0  0  0  0  0  0  0  0  0
    0.7093   -0.2112    0.0000 O   0  0  0  0  0  0  0  0  0  0  0  0
    2.6806   -1.9036    0.0000 C   0  0  0  0  0  0  0  0  0  0  0  0
    1.1855   -1.7820    0.0000 C   0  0  0  0  0  0  0  0  0  0  0  0
  2  1  1  6
  2  3  1  0
  3  4  1  0
  4  5  1  0
  5  6  2  0
  5  7  1  0
  7  8  1  0
  8  9  1  1
  9 10  1  0
 10 11  1  0
 11 12  1  0
 12 13  1  0
 13 14  2  0
 13 15  1  0
  8 16  1  0
 16 17  2  0
 16 18  1  0
  2 19  1  0
 19 20  1  6
 20 21  1  0
 22 21  1  6
 22 23  1  0
 23 24  1  1
 24 25  1  0
 26 25  1  1
 26 27  1  0
 27 28  1  0
 28 29  1  1
 28 30  1  0
 30 31  1  0
 31 32  1  0
 32 33  1  6
 32 34  1  0
 34 35  1  6
 35 36  1  0
 36 37  1  1
 36 38  1  0
 38 39  1  6
 38 19  1  0
 38 22  1  0
 34 23  1  0
 32 26  1  0
M  END
>  <MS_ID>  (2816) 
MS2911

>  <SMILES>  (2816) 
C[C@H](CCC(=O)N[C@@H](CCCNC(=N)N)C(=O)O)[C@H]1CC[C@H]2[C@@H]3CC[C@@H]4C[C@H](O)CC[C@]4(C)[C@H]3C[C@H](O)[C@]12C

>  <Structure_dimension>  (2816) 
2D

$$$$
MS2912
     RDKit          2D

 28 31  0  0  0  0  0  0  0  0999 V2000
   -5.3977   -1.2895    0.0000 C   0  0  0  0  0  0  0  0  0  0  0  0
   -4.1246   -0.4962    0.0000 C   0  0  0  0  0  0  0  0  0  0  0  0
   -4.1751    1.0029    0.0000 C   0  0  0  0  0  0  0  0  0  0  0  0
   -5.4986    1.7088    0.0000 C   0  0  0  0  0  0  0  0  0  0  0  0
   -6.7717    0.9155    0.0000 O   0  0  0  0  0  0  0  0  0  0  0  0
   -5.5490    3.2080    0.0000 O   0  0  0  0  0  0  0  0  0  0  0  0
   -2.8011   -1.2021    0.0000 C   0  0  0  0  0  0  0  0  0  0  0  0
   -2.5942   -2.6878    0.0000 C   0  0  0  0  0  0  0  0  0  0  0  0
   -1.1173   -2.9501    0.0000 C   0  0  0  0  0  0  0  0  0  0  0  0
   -0.4114   -1.6266    0.0000 C   0  0  0  0  0  0  0  0  0  0  0  0
    1.0445   -1.2655    0.0000 C   0  0  0  0  0  0  0  0  0  0  0  0
    2.0851   -2.3459    0.0000 C   0  0  0  0  0  0  0  0  0  0  0  0
    1.6698   -3.7872    0.0000 O   0  0  0  0  0  0  0  0  0  0  0  0
    3.5410   -1.9848    0.0000 C   0  0  0  0  0  0  0  0  0  0  0  0
    3.9563   -0.5434    0.0000 C   0  0  0  0  0  0  0  0  0  0  0  0
    5.4122   -0.1824    0.0000 C   0  0  0  0  0  0  0  0  0  0  0  0
    5.8274    1.2590    0.0000 C   0  0  0  0  0  0  0  0  0  0  0  0
    7.2833    1.6200    0.0000 O   0  0  0  0  0  0  0  0  0  0  0  0
    4.7868    2.3393    0.0000 C   0  0  0  0  0  0  0  0  0  0  0  0
    3.3309    1.9782    0.0000 C   0  0  0  0  0  0  0  0  0  0  0  0
    2.9156    0.5369    0.0000 C   0  0  0  0  0  0  0  0  0  0  0  0
    1.8750    1.6172    0.0000 C   0  0  0  0  0  0  0  0  0  0  0  0
    1.4597    0.1758    0.0000 C   0  0  0  0  0  0  0  0  0  0  0  0
    0.4191    1.2562    0.0000 C   0  0  0  0  0  0  0  0  0  0  0  0
   -1.0368    0.8951    0.0000 C   0  0  0  0  0  0  0  0  0  0  0  0
   -2.0774    1.9754    0.0000 O   0  0  0  0  0  0  0  0  0  0  0  0
   -1.4521   -0.5462    0.0000 C   0  0  0  0  0  0  0  0  0  0  0  0
   -2.5999    0.4194    0.0000 C   0  0  0  0  0  0  0  0  0  0  0  0
  2  1  1  6
  2  3  1  0
  3  4  1  0
  4  5  2  0
  4  6  1  0
  2  7  1  0
  7  8  1  6
  8  9  1  0
 10  9  1  6
 10 11  1  0
 11 12  1  1
 12 13  1  1
 12 14  1  0
 15 14  1  1
 15 16  1  0
 16 17  1  0
 17 18  1  1
 17 19  1  0
 19 20  1  0
 20 21  1  0
 21 22  1  6
 21 23  1  0
 23 24  1  6
 24 25  1  0
 25 26  1  1
 25 27  1  0
 27 28  1  6
 27  7  1  0
 27 10  1  0
 23 11  1  0
 21 15  1  0
M  END
>  <MS_ID>  (2817) 
MS2912

>  <SMILES>  (2817) 
C[C@H](CC(=O)O)[C@H]1CC[C@H]2[C@@H]3[C@H](O)C[C@@H]4C[C@H](O)CC[C@]4(C)[C@H]3C[C@H](O)[C@]12C

>  <Structure_dimension>  (2817) 
2D

$$$$
MS2913
     RDKit          2D

 37 40  0  0  0  0  0  0  0  0999 V2000
   -1.6432   -4.5127    0.0000 C   0  0  0  0  0  0  0  0  0  0  0  0
   -0.9779   -3.1684    0.0000 C   0  0  0  0  0  0  0  0  0  0  0  0
   -1.8095   -1.9200    0.0000 C   0  0  0  0  0  0  0  0  0  0  0  0
   -3.3064   -2.0160    0.0000 C   0  0  0  0  0  0  0  0  0  0  0  0
   -4.1381   -0.7677    0.0000 C   0  0  0  0  0  0  0  0  0  0  0  0
   -3.4728    0.5767    0.0000 O   0  0  0  0  0  0  0  0  0  0  0  0
   -5.6350   -0.8637    0.0000 N   0  0  0  0  0  0  0  0  0  0  0  0
   -6.4666    0.3846    0.0000 C   0  0  0  0  0  0  0  0  0  0  0  0
   -7.9636    0.2886    0.0000 C   0  0  0  0  0  0  0  0  0  0  0  0
   -8.7952    1.5369    0.0000 C   0  0  0  0  0  0  0  0  0  0  0  0
   -8.1299    2.8813    0.0000 O   0  0  0  0  0  0  0  0  0  0  0  0
  -10.2921    1.4409    0.0000 O   0  0  0  0  0  0  0  0  0  0  0  0
   -5.8014    1.7290    0.0000 C   0  0  0  0  0  0  0  0  0  0  0  0
   -4.3044    1.8250    0.0000 O   0  0  0  0  0  0  0  0  0  0  0  0
   -6.6330    2.9774    0.0000 O   0  0  0  0  0  0  0  0  0  0  0  0
    0.5190   -3.0723    0.0000 C   0  0  0  0  0  0  0  0  0  0  0  0
    1.4766   -4.2269    0.0000 C   0  0  0  0  0  0  0  0  0  0  0  0
    2.8706   -3.6730    0.0000 C   0  0  0  0  0  0  0  0  0  0  0  0
    2.7745   -2.1760    0.0000 C   0  0  0  0  0  0  0  0  0  0  0  0
    3.8227   -1.1030    0.0000 C   0  0  0  0  0  0  0  0  0  0  0  0
    5.2760   -1.4743    0.0000 C   0  0  0  0  0  0  0  0  0  0  0  0
    5.6812   -2.9185    0.0000 O   0  0  0  0  0  0  0  0  0  0  0  0
    6.3242   -0.4013    0.0000 C   0  0  0  0  0  0  0  0  0  0  0  0
    5.9190    1.0430    0.0000 C   0  0  0  0  0  0  0  0  0  0  0  0
    6.9672    2.1160    0.0000 C   0  0  0  0  0  0  0  0  0  0  0  0
    6.5620    3.5602    0.0000 C   0  0  0  0  0  0  0  0  0  0  0  0
    7.6102    4.6333    0.0000 O   0  0  0  0  0  0  0  0  0  0  0  0
    5.1087    3.9315    0.0000 C   0  0  0  0  0  0  0  0  0  0  0  0
    4.0605    2.8585    0.0000 C   0  0  0  0  0  0  0  0  0  0  0  0
    4.4657    1.4142    0.0000 C   0  0  0  0  0  0  0  0  0  0  0  0
    3.0124    1.7855    0.0000 C   0  0  0  0  0  0  0  0  0  0  0  0
    3.4175    0.3412    0.0000 C   0  0  0  0  0  0  0  0  0  0  0  0
    1.9642    0.7124    0.0000 C   0  0  0  0  0  0  0  0  0  0  0  0
    0.9160   -0.3606    0.0000 C   0  0  0  0  0  0  0  0  0  0  0  0
   -0.5373    0.0107    0.0000 O   0  0  0  0  0  0  0  0  0  0  0  0
    1.3212   -1.8048    0.0000 C   0  0  0  0  0  0  0  0  0  0  0  0
   -0.1630   -1.5875    0.0000 C   0  0  0  0  0  0  0  0  0  0  0  0
  2  1  1  6
  2  3  1  0
  3  4  1  0
  4  5  1  0
  5  6  2  0
  5  7  1  0
  7  8  1  0
  8  9  1  1
  9 10  1  0
 10 11  2  0
 10 12  1  0
  8 13  1  0
 13 14  2  0
 13 15  1  0
  2 16  1  0
 16 17  1  6
 17 18  1  0
 19 18  1  6
 19 20  1  0
 20 21  1  1
 21 22  1  1
 21 23  1  0
 24 23  1  1
 24 25  1  0
 25 26  1  0
 26 27  1  1
 26 28  1  0
 28 29  1  0
 29 30  1  0
 30 31  1  6
 30 32  1  0
 32 33  1  6
 33 34  1  0
 34 35  1  1
 34 36  1  0
 36 37  1  6
 36 16  1  0
 36 19  1  0
 32 20  1  0
 30 24  1  0
M  END
>  <MS_ID>  (2818) 
MS2913

>  <SMILES>  (2818) 
C[C@H](CCC(=O)N[C@@H](CC(=O)O)C(=O)O)[C@H]1CC[C@H]2[C@@H]3[C@H](O)C[C@@H]4C[C@H](O)CC[C@]4(C)[C@H]3C[C@H](O)[C@]12C

>  <Structure_dimension>  (2818) 
2D

$$$$
MS2914
     RDKit          2D

 37 40  0  0  0  0  0  0  0  0999 V2000
   -0.9051   -4.5546    0.0000 C   0  0  0  0  0  0  0  0  0  0  0  0
   -0.2966   -3.1835    0.0000 C   0  0  0  0  0  0  0  0  0  0  0  0
   -1.1797   -1.9711    0.0000 C   0  0  0  0  0  0  0  0  0  0  0  0
   -2.6713   -2.1296    0.0000 C   0  0  0  0  0  0  0  0  0  0  0  0
   -3.5544   -0.9171    0.0000 C   0  0  0  0  0  0  0  0  0  0  0  0
   -2.9459    0.4539    0.0000 O   0  0  0  0  0  0  0  0  0  0  0  0
   -5.0460   -1.0757    0.0000 N   0  0  0  0  0  0  0  0  0  0  0  0
   -5.9291    0.1368    0.0000 C   0  0  0  0  0  0  0  0  0  0  0  0
   -7.4207   -0.0218    0.0000 C   0  0  0  0  0  0  0  0  0  0  0  0
   -8.3038    1.1907    0.0000 C   0  0  0  0  0  0  0  0  0  0  0  0
   -9.7954    1.0321    0.0000 C   0  0  0  0  0  0  0  0  0  0  0  0
  -10.4039   -0.3389    0.0000 N   0  0  0  0  0  0  0  0  0  0  0  0
  -10.6786    2.2446    0.0000 C   0  0  0  0  0  0  0  0  0  0  0  0
  -10.0701    3.6156    0.0000 O   0  0  0  0  0  0  0  0  0  0  0  0
  -12.1702    2.0860    0.0000 O   0  0  0  0  0  0  0  0  0  0  0  0
    1.1950   -3.0250    0.0000 C   0  0  0  0  0  0  0  0  0  0  0  0
    2.2000   -4.1385    0.0000 C   0  0  0  0  0  0  0  0  0  0  0  0
    3.5696   -3.5268    0.0000 C   0  0  0  0  0  0  0  0  0  0  0  0
    3.4111   -2.0352    0.0000 C   0  0  0  0  0  0  0  0  0  0  0  0
    4.4134   -0.9193    0.0000 C   0  0  0  0  0  0  0  0  0  0  0  0
    5.8810   -1.2294    0.0000 C   0  0  0  0  0  0  0  0  0  0  0  0
    6.3462   -2.6554    0.0000 O   0  0  0  0  0  0  0  0  0  0  0  0
    6.8834   -0.1135    0.0000 C   0  0  0  0  0  0  0  0  0  0  0  0
    6.4182    1.3126    0.0000 C   0  0  0  0  0  0  0  0  0  0  0  0
    7.4205    2.4285    0.0000 C   0  0  0  0  0  0  0  0  0  0  0  0
    6.9553    3.8545    0.0000 C   0  0  0  0  0  0  0  0  0  0  0  0
    7.9577    4.9704    0.0000 O   0  0  0  0  0  0  0  0  0  0  0  0
    5.4877    4.1646    0.0000 C   0  0  0  0  0  0  0  0  0  0  0  0
    4.4854    3.0487    0.0000 C   0  0  0  0  0  0  0  0  0  0  0  0
    4.9506    1.6227    0.0000 C   0  0  0  0  0  0  0  0  0  0  0  0
    3.4830    1.9328    0.0000 C   0  0  0  0  0  0  0  0  0  0  0  0
    3.9482    0.5068    0.0000 C   0  0  0  0  0  0  0  0  0  0  0  0
    2.4806    0.8169    0.0000 C   0  0  0  0  0  0  0  0  0  0  0  0
    1.4782   -0.2990    0.0000 C   0  0  0  0  0  0  0  0  0  0  0  0
    0.0107    0.0111    0.0000 O   0  0  0  0  0  0  0  0  0  0  0  0
    1.9435   -1.7250    0.0000 C   0  0  0  0  0  0  0  0  0  0  0  0
    0.4515   -1.5700    0.0000 C   0  0  0  0  0  0  0  0  0  0  0  0
  2  1  1  6
  2  3  1  0
  3  4  1  0
  4  5  1  0
  5  6  2  0
  5  7  1  0
  7  8  1  0
  8  9  1  0
  9 10  1  0
 10 11  1  0
 11 12  1  6
 11 13  1  0
 13 14  2  0
 13 15  1  0
  2 16  1  0
 16 17  1  6
 17 18  1  0
 19 18  1  6
 19 20  1  0
 20 21  1  1
 21 22  1  1
 21 23  1  0
 24 23  1  1
 24 25  1  0
 25 26  1  0
 26 27  1  1
 26 28  1  0
 28 29  1  0
 29 30  1  0
 30 31  1  6
 30 32  1  0
 32 33  1  6
 33 34  1  0
 34 35  1  1
 34 36  1  0
 36 37  1  6
 36 16  1  0
 36 19  1  0
 32 20  1  0
 30 24  1  0
M  END
>  <MS_ID>  (2819) 
MS2914

>  <SMILES>  (2819) 
C[C@H](CCC(=O)NCCC[C@H](N)C(=O)O)[C@H]1CC[C@H]2[C@@H]3[C@H](O)C[C@@H]4C[C@H](O)CC[C@]4(C)[C@H]3C[C@H](O)[C@]12C

>  <Structure_dimension>  (2819) 
2D

$$$$
MS2915
     RDKit          2D

 38 41  0  0  0  0  0  0  0  0999 V2000
   -1.0459   -4.6221    0.0000 C   0  0  0  0  0  0  0  0  0  0  0  0
   -0.4356   -3.2518    0.0000 C   0  0  0  0  0  0  0  0  0  0  0  0
   -1.3172   -2.0382    0.0000 C   0  0  0  0  0  0  0  0  0  0  0  0
   -2.8090   -2.1948    0.0000 C   0  0  0  0  0  0  0  0  0  0  0  0
   -3.6905   -0.9811    0.0000 C   0  0  0  0  0  0  0  0  0  0  0  0
   -3.0802    0.3891    0.0000 O   0  0  0  0  0  0  0  0  0  0  0  0
   -5.1823   -1.1377    0.0000 N   0  0  0  0  0  0  0  0  0  0  0  0
   -6.0638    0.0759    0.0000 C   0  0  0  0  0  0  0  0  0  0  0  0
   -7.5556   -0.0807    0.0000 C   0  0  0  0  0  0  0  0  0  0  0  0
   -8.4371    1.1330    0.0000 C   0  0  0  0  0  0  0  0  0  0  0  0
   -9.9289    0.9764    0.0000 C   0  0  0  0  0  0  0  0  0  0  0  0
  -10.8104    2.1900    0.0000 C   0  0  0  0  0  0  0  0  0  0  0  0
  -12.3022    2.0334    0.0000 N   0  0  0  0  0  0  0  0  0  0  0  0
   -5.4535    1.4461    0.0000 C   0  0  0  0  0  0  0  0  0  0  0  0
   -3.9617    1.6027    0.0000 O   0  0  0  0  0  0  0  0  0  0  0  0
   -6.3350    2.6598    0.0000 O   0  0  0  0  0  0  0  0  0  0  0  0
    1.0562   -3.0953    0.0000 C   0  0  0  0  0  0  0  0  0  0  0  0
    2.0597   -4.2101    0.0000 C   0  0  0  0  0  0  0  0  0  0  0  0
    3.4301   -3.6002    0.0000 C   0  0  0  0  0  0  0  0  0  0  0  0
    3.2735   -2.1084    0.0000 C   0  0  0  0  0  0  0  0  0  0  0  0
    4.2774   -0.9938    0.0000 C   0  0  0  0  0  0  0  0  0  0  0  0
    5.7445   -1.3059    0.0000 C   0  0  0  0  0  0  0  0  0  0  0  0
    6.2079   -2.7325    0.0000 O   0  0  0  0  0  0  0  0  0  0  0  0
    6.7484   -0.1913    0.0000 C   0  0  0  0  0  0  0  0  0  0  0  0
    6.2851    1.2354    0.0000 C   0  0  0  0  0  0  0  0  0  0  0  0
    7.2889    2.3499    0.0000 C   0  0  0  0  0  0  0  0  0  0  0  0
    6.8256    3.7766    0.0000 C   0  0  0  0  0  0  0  0  0  0  0  0
    7.8294    4.8912    0.0000 O   0  0  0  0  0  0  0  0  0  0  0  0
    5.3584    4.0886    0.0000 C   0  0  0  0  0  0  0  0  0  0  0  0
    4.3546    2.9741    0.0000 C   0  0  0  0  0  0  0  0  0  0  0  0
    4.8179    1.5474    0.0000 C   0  0  0  0  0  0  0  0  0  0  0  0
    3.3507    1.8595    0.0000 C   0  0  0  0  0  0  0  0  0  0  0  0
    3.8140    0.4328    0.0000 C   0  0  0  0  0  0  0  0  0  0  0  0
    2.3469    0.7449    0.0000 C   0  0  0  0  0  0  0  0  0  0  0  0
    1.3430   -0.3697    0.0000 C   0  0  0  0  0  0  0  0  0  0  0  0
   -0.1242   -0.0576    0.0000 O   0  0  0  0  0  0  0  0  0  0  0  0
    1.8063   -1.7963    0.0000 C   0  0  0  0  0  0  0  0  0  0  0  0
    0.3146   -1.6393    0.0000 C   0  0  0  0  0  0  0  0  0  0  0  0
  2  1  1  6
  2  3  1  0
  3  4  1  0
  4  5  1  0
  5  6  2  0
  5  7  1  0
  7  8  1  0
  8  9  1  1
  9 10  1  0
 10 11  1  0
 11 12  1  0
 12 13  1  0
  8 14  1  0
 14 15  2  0
 14 16  1  0
  2 17  1  0
 17 18  1  6
 18 19  1  0
 20 19  1  6
 20 21  1  0
 21 22  1  1
 22 23  1  1
 22 24  1  0
 25 24  1  1
 25 26  1  0
 26 27  1  0
 27 28  1  1
 27 29  1  0
 29 30  1  0
 30 31  1  0
 31 32  1  6
 31 33  1  0
 33 34  1  6
 34 35  1  0
 35 36  1  1
 35 37  1  0
 37 38  1  6
 37 17  1  0
 37 20  1  0
 33 21  1  0
 31 25  1  0
M  END
>  <MS_ID>  (2820) 
MS2915

>  <SMILES>  (2820) 
C[C@H](CCC(=O)N[C@@H](CCCCN)C(=O)O)[C@H]1CC[C@H]2[C@@H]3[C@H](O)C[C@@H]4C[C@H](O)CC[C@]4(C)[C@H]3C[C@H](O)[C@]12C

>  <Structure_dimension>  (2820) 
2D

$$$$
MS2916
     RDKit          2D

 43 47  0  0  0  0  0  0  0  0999 V2000
   -7.2012   -2.6594    0.0000 C   0  0  0  0  0  0  0  0  0  0  0  0
   -6.0948   -1.6466    0.0000 C   0  0  0  0  0  0  0  0  0  0  0  0
   -6.4187   -0.1820    0.0000 C   0  0  0  0  0  0  0  0  0  0  0  0
   -7.8491    0.2698    0.0000 C   0  0  0  0  0  0  0  0  0  0  0  0
   -8.1730    1.7344    0.0000 C   0  0  0  0  0  0  0  0  0  0  0  0
   -9.6034    2.1862    0.0000 C   0  0  0  0  0  0  0  0  0  0  0  0
  -10.0551    0.7558    0.0000 C   0  0  0  0  0  0  0  0  0  0  0  0
   -9.1516    3.6165    0.0000 C   0  0  0  0  0  0  0  0  0  0  0  0
  -11.0337    2.6379    0.0000 O   0  0  0  0  0  0  0  0  0  0  0  0
   -4.6645   -2.0984    0.0000 C   0  0  0  0  0  0  0  0  0  0  0  0
   -4.1892   -3.5211    0.0000 C   0  0  0  0  0  0  0  0  0  0  0  0
   -2.6893   -3.5087    0.0000 C   0  0  0  0  0  0  0  0  0  0  0  0
   -2.2375   -2.0784    0.0000 C   0  0  0  0  0  0  0  0  0  0  0  0
   -0.8722   -1.4570    0.0000 C   0  0  0  0  0  0  0  0  0  0  0  0
    0.3485   -2.3287    0.0000 C   0  0  0  0  0  0  0  0  0  0  0  0
    0.2040   -3.8217    0.0000 O   0  0  0  0  0  0  0  0  0  0  0  0
    1.7138   -1.7073    0.0000 C   0  0  0  0  0  0  0  0  0  0  0  0
    1.8583   -0.2143    0.0000 C   0  0  0  0  0  0  0  0  0  0  0  0
    3.2235    0.4071    0.0000 C   0  0  0  0  0  0  0  0  0  0  0  0
    3.3680    1.9001    0.0000 C   0  0  0  0  0  0  0  0  0  0  0  0
    4.7333    2.5215    0.0000 O   0  0  0  0  0  0  0  0  0  0  0  0
    5.9540    1.6498    0.0000 C   0  0  0  0  0  0  0  0  0  0  0  0
    5.8095    0.1568    0.0000 O   0  0  0  0  0  0  0  0  0  0  0  0
    7.0302   -0.7149    0.0000 C   0  0  0  0  0  0  0  0  0  0  0  0
    6.8857   -2.2079    0.0000 C   0  0  0  0  0  0  0  0  0  0  0  0
    8.1065   -3.0796    0.0000 O   0  0  0  0  0  0  0  0  0  0  0  0
    5.5205   -2.8293    0.0000 O   0  0  0  0  0  0  0  0  0  0  0  0
    8.3955   -0.0935    0.0000 C   0  0  0  0  0  0  0  0  0  0  0  0
    9.6162   -0.9652    0.0000 O   0  0  0  0  0  0  0  0  0  0  0  0
    8.5400    1.3995    0.0000 C   0  0  0  0  0  0  0  0  0  0  0  0
    9.9053    2.0209    0.0000 O   0  0  0  0  0  0  0  0  0  0  0  0
    7.3193    2.2712    0.0000 C   0  0  0  0  0  0  0  0  0  0  0  0
    7.4638    3.7642    0.0000 O   0  0  0  0  0  0  0  0  0  0  0  0
    2.1473    2.7718    0.0000 C   0  0  0  0  0  0  0  0  0  0  0  0
    0.7820    2.1504    0.0000 C   0  0  0  0  0  0  0  0  0  0  0  0
    0.6375    0.6574    0.0000 C   0  0  0  0  0  0  0  0  0  0  0  0
   -0.5832    1.5290    0.0000 C   0  0  0  0  0  0  0  0  0  0  0  0
   -0.7277    0.0360    0.0000 C   0  0  0  0  0  0  0  0  0  0  0  0
   -1.9485    0.9077    0.0000 C   0  0  0  0  0  0  0  0  0  0  0  0
   -3.3137    0.2863    0.0000 C   0  0  0  0  0  0  0  0  0  0  0  0
   -4.5345    1.1580    0.0000 O   0  0  0  0  0  0  0  0  0  0  0  0
   -3.4582   -1.2067    0.0000 C   0  0  0  0  0  0  0  0  0  0  0  0
   -4.7634   -0.4674    0.0000 C   0  0  0  0  0  0  0  0  0  0  0  0
  2  1  1  6
  2  3  1  0
  3  4  1  0
  4  5  1  0
  5  6  1  0
  6  7  1  0
  6  8  1  0
  6  9  1  0
  2 10  1  0
 10 11  1  6
 11 12  1  0
 13 12  1  6
 13 14  1  0
 14 15  1  1
 15 16  1  1
 15 17  1  0
 18 17  1  1
 18 19  1  0
 19 20  1  0
 20 21  1  1
 22 21  1  1
 22 23  1  0
 23 24  1  0
 24 25  1  1
 25 26  2  0
 25 27  1  0
 24 28  1  0
 28 29  1  6
 28 30  1  0
 30 31  1  1
 30 32  1  0
 32 33  1  6
 20 34  1  0
 34 35  1  0
 35 36  1  0
 36 37  1  6
 36 38  1  0
 38 39  1  6
 39 40  1  0
 40 41  1  1
 40 42  1  0
 42 43  1  6
 42 10  1  0
 42 13  1  0
 38 14  1  0
 36 18  1  0
 32 22  1  0
M  END
>  <MS_ID>  (2821) 
MS2916

>  <SMILES>  (2821) 
C[C@H](CCCC(C)(C)O)[C@H]1CC[C@H]2[C@@H]3[C@H](O)C[C@@H]4C[C@H](O[C@@H]5O[C@H](C(=O)O)[C@@H](O)[C@H](O)[C@H]5O)CC[C@]4(C)[C@H]3C[C@H](O)[C@]12C

>  <Structure_dimension>  (2821) 
2D

$$$$
MS2917
     RDKit          2D

 38 41  0  0  0  0  0  0  0  0999 V2000
   -1.2384   -4.5207    0.0000 C   0  0  0  0  0  0  0  0  0  0  0  0
   -0.5844   -3.1708    0.0000 C   0  0  0  0  0  0  0  0  0  0  0  0
   -1.4264   -1.9294    0.0000 C   0  0  0  0  0  0  0  0  0  0  0  0
   -2.9224   -2.0379    0.0000 C   0  0  0  0  0  0  0  0  0  0  0  0
   -3.7644   -0.7966    0.0000 C   0  0  0  0  0  0  0  0  0  0  0  0
   -3.1104    0.5533    0.0000 O   0  0  0  0  0  0  0  0  0  0  0  0
   -5.2605   -0.9051    0.0000 N   0  0  0  0  0  0  0  0  0  0  0  0
   -6.1025    0.3363    0.0000 C   0  0  0  0  0  0  0  0  0  0  0  0
   -7.5986    0.2278    0.0000 C   0  0  0  0  0  0  0  0  0  0  0  0
   -8.4406    1.4692    0.0000 C   0  0  0  0  0  0  0  0  0  0  0  0
   -9.9367    1.3607    0.0000 C   0  0  0  0  0  0  0  0  0  0  0  0
  -10.5907    0.0108    0.0000 O   0  0  0  0  0  0  0  0  0  0  0  0
  -10.7787    2.6021    0.0000 O   0  0  0  0  0  0  0  0  0  0  0  0
   -5.4485    1.6862    0.0000 C   0  0  0  0  0  0  0  0  0  0  0  0
   -3.9524    1.7947    0.0000 O   0  0  0  0  0  0  0  0  0  0  0  0
   -6.2905    2.9276    0.0000 O   0  0  0  0  0  0  0  0  0  0  0  0
    0.9117   -3.0623    0.0000 C   0  0  0  0  0  0  0  0  0  0  0  0
    1.8789   -4.2089    0.0000 C   0  0  0  0  0  0  0  0  0  0  0  0
    3.2682   -3.6434    0.0000 C   0  0  0  0  0  0  0  0  0  0  0  0
    3.1597   -2.1473    0.0000 C   0  0  0  0  0  0  0  0  0  0  0  0
    4.1989   -1.0656    0.0000 C   0  0  0  0  0  0  0  0  0  0  0  0
    5.6552   -1.4247    0.0000 C   0  0  0  0  0  0  0  0  0  0  0  0
    6.0724   -2.8655    0.0000 O   0  0  0  0  0  0  0  0  0  0  0  0
    6.6944   -0.3430    0.0000 C   0  0  0  0  0  0  0  0  0  0  0  0
    6.2772    1.0978    0.0000 C   0  0  0  0  0  0  0  0  0  0  0  0
    7.3164    2.1795    0.0000 C   0  0  0  0  0  0  0  0  0  0  0  0
    6.8992    3.6203    0.0000 C   0  0  0  0  0  0  0  0  0  0  0  0
    7.9384    4.7020    0.0000 O   0  0  0  0  0  0  0  0  0  0  0  0
    5.4429    3.9795    0.0000 C   0  0  0  0  0  0  0  0  0  0  0  0
    4.4037    2.8978    0.0000 C   0  0  0  0  0  0  0  0  0  0  0  0
    4.8209    1.4569    0.0000 C   0  0  0  0  0  0  0  0  0  0  0  0
    3.3645    1.8160    0.0000 C   0  0  0  0  0  0  0  0  0  0  0  0
    3.7817    0.3752    0.0000 C   0  0  0  0  0  0  0  0  0  0  0  0
    2.3253    0.7343    0.0000 C   0  0  0  0  0  0  0  0  0  0  0  0
    1.2861   -0.3474    0.0000 C   0  0  0  0  0  0  0  0  0  0  0  0
   -0.1703    0.0118    0.0000 O   0  0  0  0  0  0  0  0  0  0  0  0
    1.7033   -1.7882    0.0000 C   0  0  0  0  0  0  0  0  0  0  0  0
    0.2174   -1.5833    0.0000 C   0  0  0  0  0  0  0  0  0  0  0  0
  2  1  1  6
  2  3  1  0
  3  4  1  0
  4  5  1  0
  5  6  2  0
  5  7  1  0
  7  8  1  0
  8  9  1  1
  9 10  1  0
 10 11  1  0
 11 12  2  0
 11 13  1  0
  8 14  1  0
 14 15  2  0
 14 16  1  0
  2 17  1  0
 17 18  1  6
 18 19  1  0
 20 19  1  6
 20 21  1  0
 21 22  1  1
 22 23  1  1
 22 24  1  0
 25 24  1  1
 25 26  1  0
 26 27  1  0
 27 28  1  1
 27 29  1  0
 29 30  1  0
 30 31  1  0
 31 32  1  6
 31 33  1  0
 33 34  1  6
 34 35  1  0
 35 36  1  1
 35 37  1  0
 37 38  1  6
 37 17  1  0
 37 20  1  0
 33 21  1  0
 31 25  1  0
M  END
>  <MS_ID>  (2822) 
MS2917

>  <SMILES>  (2822) 
C[C@H](CCC(=O)N[C@@H](CCC(=O)O)C(=O)O)[C@H]1CC[C@H]2[C@@H]3[C@H](O)C[C@@H]4C[C@H](O)CC[C@]4(C)[C@H]3C[C@H](O)[C@]12C

>  <Structure_dimension>  (2822) 
2D

$$$$
MS2918
     RDKit          2D

 35 38  0  0  0  0  0  0  0  0999 V2000
   -2.2222   -4.2903    0.0000 C   0  0  0  0  0  0  0  0  0  0  0  0
   -1.5215   -2.9640    0.0000 C   0  0  0  0  0  0  0  0  0  0  0  0
   -2.3198   -1.6940    0.0000 C   0  0  0  0  0  0  0  0  0  0  0  0
   -3.8187   -1.7503    0.0000 C   0  0  0  0  0  0  0  0  0  0  0  0
   -4.6170   -0.4804    0.0000 C   0  0  0  0  0  0  0  0  0  0  0  0
   -3.9163    0.8459    0.0000 O   0  0  0  0  0  0  0  0  0  0  0  0
   -6.1159   -0.5367    0.0000 N   0  0  0  0  0  0  0  0  0  0  0  0
   -6.9142    0.7333    0.0000 C   0  0  0  0  0  0  0  0  0  0  0  0
   -8.4131    0.6769    0.0000 C   0  0  0  0  0  0  0  0  0  0  0  0
   -9.2114    1.9469    0.0000 S   0  0  0  0  0  0  0  0  0  0  0  0
  -10.4813    1.1486    0.0000 O   0  0  0  0  0  0  0  0  0  0  0  0
   -7.9414    2.7451    0.0000 O   0  0  0  0  0  0  0  0  0  0  0  0
  -10.0096    3.2169    0.0000 O   0  0  0  0  0  0  0  0  0  0  0  0
   -0.0226   -2.9077    0.0000 C   0  0  0  0  0  0  0  0  0  0  0  0
    0.9040   -4.0872    0.0000 C   0  0  0  0  0  0  0  0  0  0  0  0
    2.3122   -3.5705    0.0000 C   0  0  0  0  0  0  0  0  0  0  0  0
    2.2559   -2.0715    0.0000 C   0  0  0  0  0  0  0  0  0  0  0  0
    3.3321   -1.0267    0.0000 C   0  0  0  0  0  0  0  0  0  0  0  0
    4.7751   -1.4363    0.0000 C   0  0  0  0  0  0  0  0  0  0  0  0
    5.1418   -2.8908    0.0000 O   0  0  0  0  0  0  0  0  0  0  0  0
    5.8514   -0.3914    0.0000 C   0  0  0  0  0  0  0  0  0  0  0  0
    7.2943   -0.8011    0.0000 O   0  0  0  0  0  0  0  0  0  0  0  0
    5.4846    1.0630    0.0000 C   0  0  0  0  0  0  0  0  0  0  0  0
    6.5609    2.1079    0.0000 C   0  0  0  0  0  0  0  0  0  0  0  0
    6.1941    3.5623    0.0000 C   0  0  0  0  0  0  0  0  0  0  0  0
    7.2704    4.6072    0.0000 O   0  0  0  0  0  0  0  0  0  0  0  0
    4.7511    3.9720    0.0000 C   0  0  0  0  0  0  0  0  0  0  0  0
    3.6749    2.9271    0.0000 C   0  0  0  0  0  0  0  0  0  0  0  0
    4.0416    1.4727    0.0000 C   0  0  0  0  0  0  0  0  0  0  0  0
    2.5986    1.8823    0.0000 C   0  0  0  0  0  0  0  0  0  0  0  0
    2.9654    0.4278    0.0000 C   0  0  0  0  0  0  0  0  0  0  0  0
    1.5224    0.8374    0.0000 C   0  0  0  0  0  0  0  0  0  0  0  0
    0.4462   -0.2074    0.0000 C   0  0  0  0  0  0  0  0  0  0  0  0
    0.8129   -1.6619    0.0000 C   0  0  0  0  0  0  0  0  0  0  0  0
   -0.6650   -1.4053    0.0000 C   0  0  0  0  0  0  0  0  0  0  0  0
  2  1  1  6
  2  3  1  0
  3  4  1  0
  4  5  1  0
  5  6  2  0
  5  7  1  0
  7  8  1  0
  8  9  1  0
  9 10  1  0
 10 11  2  0
 10 12  2  0
 10 13  1  0
  2 14  1  0
 14 15  1  6
 15 16  1  0
 17 16  1  6
 17 18  1  0
 18 19  1  1
 19 20  1  6
 19 21  1  0
 21 22  1  1
 21 23  1  0
 23 24  1  1
 24 25  1  0
 25 26  1  1
 25 27  1  0
 27 28  1  0
 28 29  1  0
 29 30  1  6
 29 31  1  0
 31 32  1  6
 32 33  1  0
 33 34  1  0
 34 35  1  6
 34 14  1  0
 34 17  1  0
 31 18  1  0
 29 23  1  0
M  END
>  <MS_ID>  (2823) 
MS2918

>  <SMILES>  (2823) 
C[C@H](CCC(=O)NCCS(=O)(=O)O)[C@H]1CC[C@H]2[C@@H]3[C@@H](O)[C@H](O)[C@@H]4C[C@H](O)CC[C@]4(C)[C@H]3CC[C@]12C

>  <Structure_dimension>  (2823) 
2D

$$$$
MS2919
     RDKit          2D

 27 30  0  0  0  0  0  0  0  0999 V2000
   -7.4370   -0.1623    0.0000 C   0  0  0  0  0  0  0  0  0  0  0  0
   -6.0672    0.4489    0.0000 C   0  0  0  0  0  0  0  0  0  0  0  0
   -5.9116    1.9409    0.0000 O   0  0  0  0  0  0  0  0  0  0  0  0
   -4.8529   -0.4318    0.0000 C   0  0  0  0  0  0  0  0  0  0  0  0
   -4.8517   -1.9318    0.0000 C   0  0  0  0  0  0  0  0  0  0  0  0
   -3.4248   -2.3941    0.0000 C   0  0  0  0  0  0  0  0  0  0  0  0
   -2.5441   -1.1799    0.0000 C   0  0  0  0  0  0  0  0  0  0  0  0
   -1.0524   -1.0219    0.0000 C   0  0  0  0  0  0  0  0  0  0  0  0
   -0.1697   -2.2347    0.0000 C   0  0  0  0  0  0  0  0  0  0  0  0
    1.3219   -2.0767    0.0000 C   0  0  0  0  0  0  0  0  0  0  0  0
    1.9309   -0.7059    0.0000 C   0  0  0  0  0  0  0  0  0  0  0  0
    3.4226   -0.5479    0.0000 C   0  0  0  0  0  0  0  0  0  0  0  0
    4.0316    0.8229    0.0000 C   0  0  0  0  0  0  0  0  0  0  0  0
    5.5232    0.9809    0.0000 O   0  0  0  0  0  0  0  0  0  0  0  0
    6.4059   -0.2319    0.0000 S   0  0  0  0  0  0  0  0  0  0  0  0
    5.1931   -1.1146    0.0000 O   0  0  0  0  0  0  0  0  0  0  0  0
    7.6187    0.6507    0.0000 O   0  0  0  0  0  0  0  0  0  0  0  0
    7.2885   -1.4448    0.0000 O   0  0  0  0  0  0  0  0  0  0  0  0
    3.1489    2.0357    0.0000 C   0  0  0  0  0  0  0  0  0  0  0  0
    1.6573    1.8777    0.0000 C   0  0  0  0  0  0  0  0  0  0  0  0
    1.0483    0.5069    0.0000 C   0  0  0  0  0  0  0  0  0  0  0  0
    0.1656    1.7197    0.0000 C   0  0  0  0  0  0  0  0  0  0  0  0
   -0.4434    0.3489    0.0000 C   0  0  0  0  0  0  0  0  0  0  0  0
   -1.3260    1.5617    0.0000 C   0  0  0  0  0  0  0  0  0  0  0  0
   -2.8177    1.4037    0.0000 C   0  0  0  0  0  0  0  0  0  0  0  0
   -3.4267    0.0329    0.0000 C   0  0  0  0  0  0  0  0  0  0  0  0
   -4.4313    1.1468    0.0000 C   0  0  0  0  0  0  0  0  0  0  0  0
  1  2  1  0
  2  3  2  0
  4  2  1  6
  4  5  1  0
  5  6  1  0
  7  6  1  6
  7  8  1  0
  8  9  1  1
  9 10  1  0
 11 10  1  6
 11 12  1  0
 12 13  1  0
 13 14  1  6
 14 15  1  0
 15 16  2  0
 15 17  2  0
 15 18  1  0
 13 19  1  0
 19 20  1  0
 20 21  1  0
 21 22  1  6
 21 23  1  0
 23 24  1  6
 24 25  1  0
 25 26  1  0
 26 27  1  6
 26  4  1  0
 26  7  1  0
 23  8  1  0
 21 11  1  0
M  END
>  <MS_ID>  (2824) 
MS2919

>  <SMILES>  (2824) 
CC(=O)[C@H]1CC[C@H]2[C@@H]3CC[C@H]4C[C@@H](OS(=O)(=O)O)CC[C@]4(C)[C@H]3CC[C@]12C

>  <Structure_dimension>  (2824) 
2D

$$$$
MS2920
     RDKit          2D

 39 43  0  0  0  0  0  0  0  0999 V2000
   -0.3106   -4.9082    0.0000 C   0  0  0  0  0  0  0  0  0  0  0  0
    0.2415   -3.5135    0.0000 C   0  0  0  0  0  0  0  0  0  0  0  0
   -0.6902   -2.3380    0.0000 C   0  0  0  0  0  0  0  0  0  0  0  0
   -2.1741   -2.5572    0.0000 C   0  0  0  0  0  0  0  0  0  0  0  0
   -3.1059   -1.3816    0.0000 C   0  0  0  0  0  0  0  0  0  0  0  0
   -2.5537    0.0130    0.0000 O   0  0  0  0  0  0  0  0  0  0  0  0
   -4.5898   -1.6008    0.0000 N   0  0  0  0  0  0  0  0  0  0  0  0
   -5.5215   -0.4253    0.0000 C   0  0  0  0  0  0  0  0  0  0  0  0
   -7.0054   -0.6445    0.0000 C   0  0  0  0  0  0  0  0  0  0  0  0
   -7.9372    0.5311    0.0000 C   0  0  0  0  0  0  0  0  0  0  0  0
   -7.3850    1.9257    0.0000 C   0  0  0  0  0  0  0  0  0  0  0  0
   -8.3168    3.1013    0.0000 C   0  0  0  0  0  0  0  0  0  0  0  0
   -9.8007    2.8821    0.0000 C   0  0  0  0  0  0  0  0  0  0  0  0
  -10.3528    1.4874    0.0000 C   0  0  0  0  0  0  0  0  0  0  0  0
   -9.4211    0.3119    0.0000 C   0  0  0  0  0  0  0  0  0  0  0  0
   -4.9694    0.9694    0.0000 C   0  0  0  0  0  0  0  0  0  0  0  0
   -3.4855    1.1886    0.0000 O   0  0  0  0  0  0  0  0  0  0  0  0
   -5.9011    2.1449    0.0000 O   0  0  0  0  0  0  0  0  0  0  0  0
    1.7254   -3.2943    0.0000 C   0  0  0  0  0  0  0  0  0  0  0  0
    2.7750   -4.3660    0.0000 C   0  0  0  0  0  0  0  0  0  0  0  0
    4.1185   -3.6990    0.0000 C   0  0  0  0  0  0  0  0  0  0  0  0
    3.8993   -2.2151    0.0000 C   0  0  0  0  0  0  0  0  0  0  0  0
    4.8554   -1.0593    0.0000 C   0  0  0  0  0  0  0  0  0  0  0  0
    6.3344   -1.3094    0.0000 C   0  0  0  0  0  0  0  0  0  0  0  0
    7.2906   -0.1536    0.0000 C   0  0  0  0  0  0  0  0  0  0  0  0
    6.7677    1.2523    0.0000 C   0  0  0  0  0  0  0  0  0  0  0  0
    7.7238    2.4081    0.0000 C   0  0  0  0  0  0  0  0  0  0  0  0
    7.2009    3.8140    0.0000 C   0  0  0  0  0  0  0  0  0  0  0  0
    8.1570    4.9698    0.0000 O   0  0  0  0  0  0  0  0  0  0  0  0
    5.7219    4.0641    0.0000 C   0  0  0  0  0  0  0  0  0  0  0  0
    4.7658    2.9083    0.0000 C   0  0  0  0  0  0  0  0  0  0  0  0
    5.2887    1.5024    0.0000 C   0  0  0  0  0  0  0  0  0  0  0  0
    3.8097    1.7525    0.0000 C   0  0  0  0  0  0  0  0  0  0  0  0
    4.3325    0.3466    0.0000 C   0  0  0  0  0  0  0  0  0  0  0  0
    2.8535    0.5967    0.0000 C   0  0  0  0  0  0  0  0  0  0  0  0
    1.8974   -0.5591    0.0000 C   0  0  0  0  0  0  0  0  0  0  0  0
    0.4184   -0.3090    0.0000 O   0  0  0  0  0  0  0  0  0  0  0  0
    2.4203   -1.9650    0.0000 C   0  0  0  0  0  0  0  0  0  0  0  0
    0.9233   -1.8709    0.0000 C   0  0  0  0  0  0  0  0  0  0  0  0
  2  1  1  6
  2  3  1  0
  3  4  1  0
  4  5  1  0
  5  6  2  0
  5  7  1  0
  7  8  1  0
  8  9  1  1
  9 10  1  0
 10 11  2  0
 11 12  1  0
 12 13  2  0
 13 14  1  0
 14 15  2  0
  8 16  1  0
 16 17  2  0
 16 18  1  0
  2 19  1  0
 19 20  1  6
 20 21  1  0
 22 21  1  6
 22 23  1  0
 23 24  1  1
 24 25  1  0
 26 25  1  1
 26 27  1  0
 27 28  1  0
 28 29  1  1
 28 30  1  0
 30 31  1  0
 31 32  1  0
 32 33  1  6
 32 34  1  0
 34 35  1  6
 35 36  1  0
 36 37  1  1
 36 38  1  0
 38 39  1  6
 15 10  1  0
 38 19  1  0
 38 22  1  0
 34 23  1  0
 32 26  1  0
M  END
>  <MS_ID>  (2825) 
MS2920

>  <SMILES>  (2825) 
C[C@H](CCC(=O)N[C@@H](Cc1ccccc1)C(=O)O)[C@H]1CC[C@H]2[C@@H]3CC[C@@H]4C[C@H](O)CC[C@]4(C)[C@H]3C[C@H](O)[C@]12C

>  <Structure_dimension>  (2825) 
2D

$$$$
MS2921
     RDKit          2D

 36 39  0  0  0  0  0  0  0  0999 V2000
   -0.9048   -4.5543    0.0000 C   0  0  0  0  0  0  0  0  0  0  0  0
   -0.2963   -3.1832    0.0000 C   0  0  0  0  0  0  0  0  0  0  0  0
   -1.1794   -1.9707    0.0000 C   0  0  0  0  0  0  0  0  0  0  0  0
   -2.6710   -2.1293    0.0000 C   0  0  0  0  0  0  0  0  0  0  0  0
   -3.5541   -0.9168    0.0000 C   0  0  0  0  0  0  0  0  0  0  0  0
   -2.9456    0.4542    0.0000 O   0  0  0  0  0  0  0  0  0  0  0  0
   -5.0457   -1.0754    0.0000 N   0  0  0  0  0  0  0  0  0  0  0  0
   -5.9288    0.1371    0.0000 C   0  0  0  0  0  0  0  0  0  0  0  0
   -7.4204   -0.0215    0.0000 C   0  0  0  0  0  0  0  0  0  0  0  0
   -8.3036    1.1910    0.0000 C   0  0  0  0  0  0  0  0  0  0  0  0
   -9.7951    1.0324    0.0000 C   0  0  0  0  0  0  0  0  0  0  0  0
  -10.4036   -0.3386    0.0000 N   0  0  0  0  0  0  0  0  0  0  0  0
  -10.6783    2.2449    0.0000 C   0  0  0  0  0  0  0  0  0  0  0  0
  -10.0698    3.6159    0.0000 O   0  0  0  0  0  0  0  0  0  0  0  0
  -12.1699    2.0863    0.0000 O   0  0  0  0  0  0  0  0  0  0  0  0
    1.1953   -3.0247    0.0000 C   0  0  0  0  0  0  0  0  0  0  0  0
    2.2003   -4.1382    0.0000 C   0  0  0  0  0  0  0  0  0  0  0  0
    3.5699   -3.5264    0.0000 C   0  0  0  0  0  0  0  0  0  0  0  0
    3.4114   -2.0349    0.0000 C   0  0  0  0  0  0  0  0  0  0  0  0
    4.4137   -0.9189    0.0000 C   0  0  0  0  0  0  0  0  0  0  0  0
    5.8813   -1.2291    0.0000 C   0  0  0  0  0  0  0  0  0  0  0  0
    6.3465   -2.6551    0.0000 O   0  0  0  0  0  0  0  0  0  0  0  0
    6.8837   -0.1132    0.0000 C   0  0  0  0  0  0  0  0  0  0  0  0
    6.4185    1.3129    0.0000 C   0  0  0  0  0  0  0  0  0  0  0  0
    7.4208    2.4288    0.0000 C   0  0  0  0  0  0  0  0  0  0  0  0
    6.9556    3.8548    0.0000 C   0  0  0  0  0  0  0  0  0  0  0  0
    7.9580    4.9707    0.0000 O   0  0  0  0  0  0  0  0  0  0  0  0
    5.4880    4.1649    0.0000 C   0  0  0  0  0  0  0  0  0  0  0  0
    4.4857    3.0490    0.0000 C   0  0  0  0  0  0  0  0  0  0  0  0
    4.9509    1.6230    0.0000 C   0  0  0  0  0  0  0  0  0  0  0  0
    3.4833    1.9331    0.0000 C   0  0  0  0  0  0  0  0  0  0  0  0
    3.9485    0.5071    0.0000 C   0  0  0  0  0  0  0  0  0  0  0  0
    2.4809    0.8172    0.0000 C   0  0  0  0  0  0  0  0  0  0  0  0
    1.4785   -0.2987    0.0000 C   0  0  0  0  0  0  0  0  0  0  0  0
    1.9438   -1.7247    0.0000 C   0  0  0  0  0  0  0  0  0  0  0  0
    0.4518   -1.5697    0.0000 C   0  0  0  0  0  0  0  0  0  0  0  0
  2  1  1  6
  2  3  1  0
  3  4  1  0
  4  5  1  0
  5  6  2  0
  5  7  1  0
  7  8  1  0
  8  9  1  0
  9 10  1  0
 10 11  1  0
 11 12  1  6
 11 13  1  0
 13 14  2  0
 13 15  1  0
  2 16  1  0
 16 17  1  6
 17 18  1  0
 19 18  1  6
 19 20  1  0
 20 21  1  1
 21 22  1  1
 21 23  1  0
 24 23  1  1
 24 25  1  0
 25 26  1  0
 26 27  1  1
 26 28  1  0
 28 29  1  0
 29 30  1  0
 30 31  1  6
 30 32  1  0
 32 33  1  6
 33 34  1  0
 34 35  1  0
 35 36  1  6
 35 16  1  0
 35 19  1  0
 32 20  1  0
 30 24  1  0
M  END
>  <MS_ID>  (2826) 
MS2921

>  <SMILES>  (2826) 
C[C@H](CCC(=O)NCCC[C@H](N)C(=O)O)[C@H]1CC[C@H]2[C@@H]3[C@H](O)C[C@@H]4C[C@H](O)CC[C@]4(C)[C@H]3CC[C@]12C

>  <Structure_dimension>  (2826) 
2D

$$$$
MS2922
     RDKit          2D

 29 32  0  0  0  0  0  0  0  0999 V2000
   -4.5794    2.7226    0.0000 C   0  0  0  0  0  0  0  0  0  0  0  0
   -3.3580    1.8519    0.0000 S   0  0  0  0  0  0  0  0  0  0  0  0
   -3.5014    0.3587    0.0000 C   0  0  0  0  0  0  0  0  0  0  0  0
   -4.8662   -0.2637    0.0000 C   0  0  0  0  0  0  0  0  0  0  0  0
   -6.0876    0.6071    0.0000 C   0  0  0  0  0  0  0  0  0  0  0  0
   -7.4524   -0.0153    0.0000 C   0  0  0  0  0  0  0  0  0  0  0  0
   -7.5958   -1.5084    0.0000 O   0  0  0  0  0  0  0  0  0  0  0  0
   -8.6738    0.8554    0.0000 O   0  0  0  0  0  0  0  0  0  0  0  0
   -2.2800   -0.5120    0.0000 C   0  0  0  0  0  0  0  0  0  0  0  0
   -2.2665   -2.0119    0.0000 C   0  0  0  0  0  0  0  0  0  0  0  0
   -0.8358   -2.4626    0.0000 C   0  0  0  0  0  0  0  0  0  0  0  0
    0.0349   -1.2412    0.0000 C   0  0  0  0  0  0  0  0  0  0  0  0
    1.5252   -1.0710    0.0000 C   0  0  0  0  0  0  0  0  0  0  0  0
    2.4178   -2.2766    0.0000 C   0  0  0  0  0  0  0  0  0  0  0  0
    1.8200   -3.6523    0.0000 O   0  0  0  0  0  0  0  0  0  0  0  0
    3.9081   -2.1064    0.0000 C   0  0  0  0  0  0  0  0  0  0  0  0
    4.5058   -0.7307    0.0000 C   0  0  0  0  0  0  0  0  0  0  0  0
    5.9961   -0.5605    0.0000 C   0  0  0  0  0  0  0  0  0  0  0  0
    6.5939    0.8153    0.0000 C   0  0  0  0  0  0  0  0  0  0  0  0
    8.0842    0.9855    0.0000 O   0  0  0  0  0  0  0  0  0  0  0  0
    5.7014    2.0208    0.0000 C   0  0  0  0  0  0  0  0  0  0  0  0
    4.2111    1.8506    0.0000 C   0  0  0  0  0  0  0  0  0  0  0  0
    3.6133    0.4749    0.0000 C   0  0  0  0  0  0  0  0  0  0  0  0
    2.7207    1.6805    0.0000 C   0  0  0  0  0  0  0  0  0  0  0  0
    2.1230    0.3047    0.0000 C   0  0  0  0  0  0  0  0  0  0  0  0
    1.2304    1.5103    0.0000 C   0  0  0  0  0  0  0  0  0  0  0  0
   -0.2599    1.3401    0.0000 C   0  0  0  0  0  0  0  0  0  0  0  0
   -0.8577   -0.0357    0.0000 C   0  0  0  0  0  0  0  0  0  0  0  0
   -1.8713    1.0700    0.0000 C   0  0  0  0  0  0  0  0  0  0  0  0
  1  2  1  0
  2  3  1  0
  3  4  1  1
  4  5  1  0
  5  6  1  0
  6  7  2  0
  6  8  1  0
  3  9  1  0
  9 10  1  6
 10 11  1  0
 12 11  1  6
 12 13  1  0
 13 14  1  1
 14 15  1  6
 14 16  1  0
 17 16  1  1
 17 18  1  0
 18 19  1  0
 19 20  1  1
 19 21  1  0
 21 22  1  0
 22 23  1  0
 23 24  1  6
 23 25  1  0
 25 26  1  6
 26 27  1  0
 27 28  1  0
 28 29  1  6
 28  9  1  0
 28 12  1  0
 25 13  1  0
 23 17  1  0
M  END
>  <MS_ID>  (2827) 
MS2922

>  <SMILES>  (2827) 
CS[C@H](CCC(=O)O)[C@H]1CC[C@H]2[C@@H]3[C@@H](O)C[C@@H]4C[C@H](O)CC[C@]4(C)[C@H]3CC[C@]12C

>  <Structure_dimension>  (2827) 
2D

$$$$
MS2923
     RDKit          2D

 38 42  0  0  0  0  0  0  0  0999 V2000
   -0.7712   -4.7706    0.0000 C   0  0  0  0  0  0  0  0  0  0  0  0
   -0.2076   -3.3806    0.0000 C   0  0  0  0  0  0  0  0  0  0  0  0
   -1.1296   -2.1974    0.0000 C   0  0  0  0  0  0  0  0  0  0  0  0
   -2.6152   -2.4043    0.0000 C   0  0  0  0  0  0  0  0  0  0  0  0
   -3.5372   -1.2211    0.0000 C   0  0  0  0  0  0  0  0  0  0  0  0
   -2.9736    0.1690    0.0000 O   0  0  0  0  0  0  0  0  0  0  0  0
   -5.0229   -1.4280    0.0000 N   0  0  0  0  0  0  0  0  0  0  0  0
   -5.9449   -0.2448    0.0000 C   0  0  0  0  0  0  0  0  0  0  0  0
   -7.4306   -0.4517    0.0000 C   0  0  0  0  0  0  0  0  0  0  0  0
   -8.3526    0.7315    0.0000 C   0  0  0  0  0  0  0  0  0  0  0  0
   -9.8517    0.6810    0.0000 C   0  0  0  0  0  0  0  0  0  0  0  0
  -10.3630    2.0912    0.0000 N   0  0  0  0  0  0  0  0  0  0  0  0
   -9.1798    3.0132    0.0000 C   0  0  0  0  0  0  0  0  0  0  0  0
   -7.9373    2.1729    0.0000 N   0  0  0  0  0  0  0  0  0  0  0  0
   -5.3812    1.1453    0.0000 C   0  0  0  0  0  0  0  0  0  0  0  0
   -3.8956    1.3522    0.0000 O   0  0  0  0  0  0  0  0  0  0  0  0
   -6.3032    2.3285    0.0000 O   0  0  0  0  0  0  0  0  0  0  0  0
    1.2781   -3.1737    0.0000 C   0  0  0  0  0  0  0  0  0  0  0  0
    2.3187   -4.2540    0.0000 C   0  0  0  0  0  0  0  0  0  0  0  0
    3.6677   -3.5981    0.0000 C   0  0  0  0  0  0  0  0  0  0  0  0
    3.4608   -2.1125    0.0000 C   0  0  0  0  0  0  0  0  0  0  0  0
    4.4265   -0.9646    0.0000 C   0  0  0  0  0  0  0  0  0  0  0  0
    5.9034   -1.2270    0.0000 C   0  0  0  0  0  0  0  0  0  0  0  0
    6.4146   -2.6372    0.0000 O   0  0  0  0  0  0  0  0  0  0  0  0
    6.8690   -0.0791    0.0000 C   0  0  0  0  0  0  0  0  0  0  0  0
    6.3577    1.3311    0.0000 C   0  0  0  0  0  0  0  0  0  0  0  0
    7.3234    2.4789    0.0000 C   0  0  0  0  0  0  0  0  0  0  0  0
    6.8121    3.8891    0.0000 C   0  0  0  0  0  0  0  0  0  0  0  0
    7.7777    5.0369    0.0000 O   0  0  0  0  0  0  0  0  0  0  0  0
    5.3352    4.1514    0.0000 C   0  0  0  0  0  0  0  0  0  0  0  0
    4.3696    3.0036    0.0000 C   0  0  0  0  0  0  0  0  0  0  0  0
    4.8809    1.5934    0.0000 C   0  0  0  0  0  0  0  0  0  0  0  0
    3.4040    1.8557    0.0000 C   0  0  0  0  0  0  0  0  0  0  0  0
    3.9152    0.4456    0.0000 C   0  0  0  0  0  0  0  0  0  0  0  0
    2.4383    0.7079    0.0000 C   0  0  0  0  0  0  0  0  0  0  0  0
    1.4727   -0.4400    0.0000 C   0  0  0  0  0  0  0  0  0  0  0  0
    1.9840   -1.8501    0.0000 C   0  0  0  0  0  0  0  0  0  0  0  0
    0.4877   -1.7436    0.0000 C   0  0  0  0  0  0  0  0  0  0  0  0
  2  1  1  6
  2  3  1  0
  3  4  1  0
  4  5  1  0
  5  6  2  0
  5  7  1  0
  7  8  1  0
  8  9  1  1
  9 10  1  0
 10 11  2  0
 11 12  1  0
 12 13  1  0
 13 14  2  0
  8 15  1  0
 15 16  2  0
 15 17  1  0
  2 18  1  0
 18 19  1  6
 19 20  1  0
 21 20  1  6
 21 22  1  0
 22 23  1  1
 23 24  1  1
 23 25  1  0
 26 25  1  1
 26 27  1  0
 27 28  1  0
 28 29  1  1
 28 30  1  0
 30 31  1  0
 31 32  1  0
 32 33  1  6
 32 34  1  0
 34 35  1  6
 35 36  1  0
 36 37  1  0
 37 38  1  6
 14 10  1  0
 37 18  1  0
 37 21  1  0
 34 22  1  0
 32 26  1  0
M  END
>  <MS_ID>  (2828) 
MS2923

>  <SMILES>  (2828) 
C[C@H](CCC(=O)N[C@@H](Cc1c[nH]cn1)C(=O)O)[C@H]1CC[C@H]2[C@@H]3[C@H](O)C[C@@H]4C[C@H](O)CC[C@]4(C)[C@H]3CC[C@]12C

>  <Structure_dimension>  (2828) 
2D

$$$$
MS2924
     RDKit          2D

 37 40  0  0  0  0  0  0  0  0999 V2000
   -1.0493   -4.6236    0.0000 C   0  0  0  0  0  0  0  0  0  0  0  0
   -0.4390   -3.2534    0.0000 C   0  0  0  0  0  0  0  0  0  0  0  0
   -1.3205   -2.0398    0.0000 C   0  0  0  0  0  0  0  0  0  0  0  0
   -2.8123   -2.1964    0.0000 C   0  0  0  0  0  0  0  0  0  0  0  0
   -3.6938   -0.9827    0.0000 C   0  0  0  0  0  0  0  0  0  0  0  0
   -3.0835    0.3875    0.0000 O   0  0  0  0  0  0  0  0  0  0  0  0
   -5.1856   -1.1393    0.0000 N   0  0  0  0  0  0  0  0  0  0  0  0
   -6.0671    0.0743    0.0000 C   0  0  0  0  0  0  0  0  0  0  0  0
   -7.5589   -0.0823    0.0000 C   0  0  0  0  0  0  0  0  0  0  0  0
   -8.4405    1.1313    0.0000 C   0  0  0  0  0  0  0  0  0  0  0  0
   -9.9323    0.9747    0.0000 C   0  0  0  0  0  0  0  0  0  0  0  0
  -10.8138    2.1884    0.0000 C   0  0  0  0  0  0  0  0  0  0  0  0
  -12.3056    2.0318    0.0000 N   0  0  0  0  0  0  0  0  0  0  0  0
   -5.4569    1.4445    0.0000 C   0  0  0  0  0  0  0  0  0  0  0  0
   -3.9651    1.6011    0.0000 O   0  0  0  0  0  0  0  0  0  0  0  0
   -6.3384    2.6582    0.0000 O   0  0  0  0  0  0  0  0  0  0  0  0
    1.0528   -3.0968    0.0000 C   0  0  0  0  0  0  0  0  0  0  0  0
    2.0564   -4.2117    0.0000 C   0  0  0  0  0  0  0  0  0  0  0  0
    3.4268   -3.6017    0.0000 C   0  0  0  0  0  0  0  0  0  0  0  0
    3.2702   -2.1099    0.0000 C   0  0  0  0  0  0  0  0  0  0  0  0
    4.2740   -0.9953    0.0000 C   0  0  0  0  0  0  0  0  0  0  0  0
    5.7412   -1.3074    0.0000 C   0  0  0  0  0  0  0  0  0  0  0  0
    6.2045   -2.7340    0.0000 O   0  0  0  0  0  0  0  0  0  0  0  0
    6.7450   -0.1928    0.0000 C   0  0  0  0  0  0  0  0  0  0  0  0
    6.2817    1.2338    0.0000 C   0  0  0  0  0  0  0  0  0  0  0  0
    7.2855    2.3484    0.0000 C   0  0  0  0  0  0  0  0  0  0  0  0
    6.8222    3.7751    0.0000 C   0  0  0  0  0  0  0  0  0  0  0  0
    7.8260    4.8897    0.0000 O   0  0  0  0  0  0  0  0  0  0  0  0
    5.3550    4.0871    0.0000 C   0  0  0  0  0  0  0  0  0  0  0  0
    4.3512    2.9725    0.0000 C   0  0  0  0  0  0  0  0  0  0  0  0
    4.8145    1.5459    0.0000 C   0  0  0  0  0  0  0  0  0  0  0  0
    3.3473    1.8580    0.0000 C   0  0  0  0  0  0  0  0  0  0  0  0
    3.8107    0.4313    0.0000 C   0  0  0  0  0  0  0  0  0  0  0  0
    2.3435    0.7434    0.0000 C   0  0  0  0  0  0  0  0  0  0  0  0
    1.3397   -0.3712    0.0000 C   0  0  0  0  0  0  0  0  0  0  0  0
    1.8030   -1.7979    0.0000 C   0  0  0  0  0  0  0  0  0  0  0  0
    0.3112   -1.6409    0.0000 C   0  0  0  0  0  0  0  0  0  0  0  0
  2  1  1  6
  2  3  1  0
  3  4  1  0
  4  5  1  0
  5  6  2  0
  5  7  1  0
  7  8  1  0
  8  9  1  1
  9 10  1  0
 10 11  1  0
 11 12  1  0
 12 13  1  0
  8 14  1  0
 14 15  2  0
 14 16  1  0
  2 17  1  0
 17 18  1  6
 18 19  1  0
 20 19  1  6
 20 21  1  0
 21 22  1  1
 22 23  1  1
 22 24  1  0
 25 24  1  1
 25 26  1  0
 26 27  1  0
 27 28  1  1
 27 29  1  0
 29 30  1  0
 30 31  1  0
 31 32  1  6
 31 33  1  0
 33 34  1  6
 34 35  1  0
 35 36  1  0
 36 37  1  6
 36 17  1  0
 36 20  1  0
 33 21  1  0
 31 25  1  0
M  END
>  <MS_ID>  (2829) 
MS2924

>  <SMILES>  (2829) 
C[C@H](CCC(=O)N[C@@H](CCCCN)C(=O)O)[C@H]1CC[C@H]2[C@@H]3[C@H](O)C[C@@H]4C[C@H](O)CC[C@]4(C)[C@H]3CC[C@]12C

>  <Structure_dimension>  (2829) 
2D

$$$$
MS2925
     RDKit          2D

 36 39  0  0  0  0  0  0  0  0999 V2000
   -1.6581   -4.5124    0.0000 C   0  0  0  0  0  0  0  0  0  0  0  0
   -0.9928   -3.1680    0.0000 C   0  0  0  0  0  0  0  0  0  0  0  0
   -1.8245   -1.9197    0.0000 C   0  0  0  0  0  0  0  0  0  0  0  0
   -3.3214   -2.0157    0.0000 C   0  0  0  0  0  0  0  0  0  0  0  0
   -4.1530   -0.7674    0.0000 C   0  0  0  0  0  0  0  0  0  0  0  0
   -3.4877    0.5770    0.0000 O   0  0  0  0  0  0  0  0  0  0  0  0
   -5.6499   -0.8634    0.0000 N   0  0  0  0  0  0  0  0  0  0  0  0
   -6.4816    0.3850    0.0000 C   0  0  0  0  0  0  0  0  0  0  0  0
   -7.9785    0.2889    0.0000 C   0  0  0  0  0  0  0  0  0  0  0  0
   -8.8101    1.5373    0.0000 C   0  0  0  0  0  0  0  0  0  0  0  0
   -8.1448    2.8817    0.0000 O   0  0  0  0  0  0  0  0  0  0  0  0
  -10.3070    1.4412    0.0000 O   0  0  0  0  0  0  0  0  0  0  0  0
   -5.8163    1.7293    0.0000 C   0  0  0  0  0  0  0  0  0  0  0  0
   -4.3194    1.8254    0.0000 O   0  0  0  0  0  0  0  0  0  0  0  0
   -6.6479    2.9777    0.0000 O   0  0  0  0  0  0  0  0  0  0  0  0
    0.5041   -3.0720    0.0000 C   0  0  0  0  0  0  0  0  0  0  0  0
    1.4616   -4.2266    0.0000 C   0  0  0  0  0  0  0  0  0  0  0  0
    2.8556   -3.6727    0.0000 C   0  0  0  0  0  0  0  0  0  0  0  0
    2.7596   -2.1758    0.0000 C   0  0  0  0  0  0  0  0  0  0  0  0
    3.8078   -1.1028    0.0000 C   0  0  0  0  0  0  0  0  0  0  0  0
    5.2611   -1.4740    0.0000 C   0  0  0  0  0  0  0  0  0  0  0  0
    5.6663   -2.9183    0.0000 O   0  0  0  0  0  0  0  0  0  0  0  0
    6.3093   -0.4010    0.0000 C   0  0  0  0  0  0  0  0  0  0  0  0
    5.9041    1.0432    0.0000 C   0  0  0  0  0  0  0  0  0  0  0  0
    6.9523    2.1162    0.0000 C   0  0  0  0  0  0  0  0  0  0  0  0
    6.5471    3.5605    0.0000 C   0  0  0  0  0  0  0  0  0  0  0  0
    7.5953    4.6335    0.0000 O   0  0  0  0  0  0  0  0  0  0  0  0
    5.0938    3.9317    0.0000 C   0  0  0  0  0  0  0  0  0  0  0  0
    4.0456    2.8587    0.0000 C   0  0  0  0  0  0  0  0  0  0  0  0
    4.4508    1.4145    0.0000 C   0  0  0  0  0  0  0  0  0  0  0  0
    2.9974    1.7857    0.0000 C   0  0  0  0  0  0  0  0  0  0  0  0
    3.4026    0.3415    0.0000 C   0  0  0  0  0  0  0  0  0  0  0  0
    1.9493    0.7127    0.0000 C   0  0  0  0  0  0  0  0  0  0  0  0
    0.9011   -0.3603    0.0000 C   0  0  0  0  0  0  0  0  0  0  0  0
    1.3063   -1.8045    0.0000 C   0  0  0  0  0  0  0  0  0  0  0  0
   -0.1779   -1.5872    0.0000 C   0  0  0  0  0  0  0  0  0  0  0  0
  2  1  1  6
  2  3  1  0
  3  4  1  0
  4  5  1  0
  5  6  2  0
  5  7  1  0
  7  8  1  0
  8  9  1  1
  9 10  1  0
 10 11  2  0
 10 12  1  0
  8 13  1  0
 13 14  2  0
 13 15  1  0
  2 16  1  0
 16 17  1  6
 17 18  1  0
 19 18  1  6
 19 20  1  0
 20 21  1  1
 21 22  1  1
 21 23  1  0
 24 23  1  1
 24 25  1  0
 25 26  1  0
 26 27  1  1
 26 28  1  0
 28 29  1  0
 29 30  1  0
 30 31  1  6
 30 32  1  0
 32 33  1  6
 33 34  1  0
 34 35  1  0
 35 36  1  6
 35 16  1  0
 35 19  1  0
 32 20  1  0
 30 24  1  0
M  END
>  <MS_ID>  (2830) 
MS2925

>  <SMILES>  (2830) 
C[C@H](CCC(=O)N[C@@H](CC(=O)O)C(=O)O)[C@H]1CC[C@H]2[C@@H]3[C@H](O)C[C@@H]4C[C@H](O)CC[C@]4(C)[C@H]3CC[C@]12C

>  <Structure_dimension>  (2830) 
2D

$$$$
MS2926
     RDKit          2D

 30 33  0  0  0  0  0  0  0  0999 V2000
   -7.2759    3.4526    0.0000 C   0  0  0  0  0  0  0  0  0  0  0  0
   -6.8987    2.0009    0.0000 C   0  0  0  0  0  0  0  0  0  0  0  0
   -7.9673    0.9482    0.0000 C   0  0  0  0  0  0  0  0  0  0  0  0
   -5.4527    1.6017    0.0000 C   0  0  0  0  0  0  0  0  0  0  0  0
   -4.3841    2.6543    0.0000 O   0  0  0  0  0  0  0  0  0  0  0  0
   -5.0755    0.1499    0.0000 C   0  0  0  0  0  0  0  0  0  0  0  0
   -3.6295   -0.2492    0.0000 C   0  0  0  0  0  0  0  0  0  0  0  0
   -3.2523   -1.7010    0.0000 C   0  0  0  0  0  0  0  0  0  0  0  0
   -4.3209   -2.7536    0.0000 C   0  0  0  0  0  0  0  0  0  0  0  0
   -1.8064   -2.1002    0.0000 C   0  0  0  0  0  0  0  0  0  0  0  0
   -1.2794   -3.5046    0.0000 C   0  0  0  0  0  0  0  0  0  0  0  0
    0.2191   -3.4374    0.0000 C   0  0  0  0  0  0  0  0  0  0  0  0
    0.6183   -1.9915    0.0000 C   0  0  0  0  0  0  0  0  0  0  0  0
    1.9599   -1.3206    0.0000 C   0  0  0  0  0  0  0  0  0  0  0  0
    3.2117   -2.1470    0.0000 C   0  0  0  0  0  0  0  0  0  0  0  0
    3.1219   -3.6443    0.0000 O   0  0  0  0  0  0  0  0  0  0  0  0
    4.5533   -1.4762    0.0000 C   0  0  0  0  0  0  0  0  0  0  0  0
    4.6431    0.0211    0.0000 C   0  0  0  0  0  0  0  0  0  0  0  0
    5.9847    0.6920    0.0000 C   0  0  0  0  0  0  0  0  0  0  0  0
    6.0745    2.1893    0.0000 C   0  0  0  0  0  0  0  0  0  0  0  0
    7.4161    2.8602    0.0000 O   0  0  0  0  0  0  0  0  0  0  0  0
    4.8227    3.0158    0.0000 C   0  0  0  0  0  0  0  0  0  0  0  0
    3.4811    2.3449    0.0000 C   0  0  0  0  0  0  0  0  0  0  0  0
    3.3913    0.8476    0.0000 C   0  0  0  0  0  0  0  0  0  0  0  0
    2.1395    1.6740    0.0000 C   0  0  0  0  0  0  0  0  0  0  0  0
    2.0497    0.1767    0.0000 C   0  0  0  0  0  0  0  0  0  0  0  0
    0.7979    1.0031    0.0000 C   0  0  0  0  0  0  0  0  0  0  0  0
   -0.5437    0.3323    0.0000 C   0  0  0  0  0  0  0  0  0  0  0  0
   -0.6335   -1.1650    0.0000 C   0  0  0  0  0  0  0  0  0  0  0  0
   -1.9649   -0.4740    0.0000 C   0  0  0  0  0  0  0  0  0  0  0  0
  1  2  1  0
  2  3  1  0
  2  4  1  0
  4  5  1  6
  4  6  1  0
  6  7  1  0
  7  8  1  0
  8  9  1  6
  8 10  1  0
 10 11  1  6
 11 12  1  0
 13 12  1  6
 13 14  1  0
 14 15  1  1
 15 16  1  1
 15 17  1  0
 18 17  1  1
 18 19  1  0
 19 20  1  0
 20 21  1  1
 20 22  1  0
 22 23  1  0
 23 24  1  0
 24 25  1  6
 24 26  1  0
 26 27  1  6
 27 28  1  0
 28 29  1  0
 29 30  1  6
 29 10  1  0
 29 13  1  0
 26 14  1  0
 24 18  1  0
M  END
>  <MS_ID>  (2831) 
MS2926

>  <SMILES>  (2831) 
CC(C)[C@H](O)CC[C@@H](C)[C@H]1CC[C@H]2[C@@H]3[C@H](O)C[C@@H]4C[C@H](O)CC[C@]4(C)[C@H]3CC[C@]12C

>  <Structure_dimension>  (2831) 
2D

$$$$
MS2927
     RDKit          2D

 32 35  0  0  0  0  0  0  0  0999 V2000
   -3.8725   -2.7304    0.0000 C   0  0  0  0  0  0  0  0  0  0  0  0
   -2.8031   -1.6786    0.0000 C   0  0  0  0  0  0  0  0  0  0  0  0
   -3.1793   -0.2265    0.0000 C   0  0  0  0  0  0  0  0  0  0  0  0
   -4.6249    0.1737    0.0000 C   0  0  0  0  0  0  0  0  0  0  0  0
   -5.0011    1.6258    0.0000 C   0  0  0  0  0  0  0  0  0  0  0  0
   -6.4467    2.0260    0.0000 C   0  0  0  0  0  0  0  0  0  0  0  0
   -6.8229    3.4780    0.0000 C   0  0  0  0  0  0  0  0  0  0  0  0
   -7.5161    0.9742    0.0000 C   0  0  0  0  0  0  0  0  0  0  0  0
   -7.1399   -0.4779    0.0000 O   0  0  0  0  0  0  0  0  0  0  0  0
   -8.9617    1.3744    0.0000 O   0  0  0  0  0  0  0  0  0  0  0  0
   -1.3574   -2.0788    0.0000 C   0  0  0  0  0  0  0  0  0  0  0  0
   -0.8315   -3.4836    0.0000 C   0  0  0  0  0  0  0  0  0  0  0  0
    0.6670   -3.4175    0.0000 C   0  0  0  0  0  0  0  0  0  0  0  0
    1.0673   -1.9719    0.0000 C   0  0  0  0  0  0  0  0  0  0  0  0
    2.4094   -1.3020    0.0000 C   0  0  0  0  0  0  0  0  0  0  0  0
    3.6606   -2.1294    0.0000 C   0  0  0  0  0  0  0  0  0  0  0  0
    3.5696   -3.6266    0.0000 O   0  0  0  0  0  0  0  0  0  0  0  0
    5.0027   -1.4595    0.0000 C   0  0  0  0  0  0  0  0  0  0  0  0
    5.0936    0.0377    0.0000 C   0  0  0  0  0  0  0  0  0  0  0  0
    6.4357    0.7076    0.0000 C   0  0  0  0  0  0  0  0  0  0  0  0
    6.5266    2.2049    0.0000 C   0  0  0  0  0  0  0  0  0  0  0  0
    7.8687    2.8747    0.0000 O   0  0  0  0  0  0  0  0  0  0  0  0
    5.2754    3.0322    0.0000 C   0  0  0  0  0  0  0  0  0  0  0  0
    3.9333    2.3623    0.0000 C   0  0  0  0  0  0  0  0  0  0  0  0
    3.8424    0.8651    0.0000 C   0  0  0  0  0  0  0  0  0  0  0  0
    2.5912    1.6925    0.0000 C   0  0  0  0  0  0  0  0  0  0  0  0
    2.5003    0.1952    0.0000 C   0  0  0  0  0  0  0  0  0  0  0  0
    1.2491    1.0226    0.0000 C   0  0  0  0  0  0  0  0  0  0  0  0
   -0.0930    0.3527    0.0000 C   0  0  0  0  0  0  0  0  0  0  0  0
   -1.3442    1.1801    0.0000 O   0  0  0  0  0  0  0  0  0  0  0  0
   -0.1839   -1.1445    0.0000 C   0  0  0  0  0  0  0  0  0  0  0  0
   -1.5147   -0.4525    0.0000 C   0  0  0  0  0  0  0  0  0  0  0  0
  2  1  1  6
  2  3  1  0
  3  4  1  0
  4  5  1  0
  5  6  1  0
  6  7  1  1
  6  8  1  0
  8  9  2  0
  8 10  1  0
  2 11  1  0
 11 12  1  6
 12 13  1  0
 14 13  1  6
 14 15  1  0
 15 16  1  1
 16 17  1  1
 16 18  1  0
 19 18  1  1
 19 20  1  0
 20 21  1  0
 21 22  1  1
 21 23  1  0
 23 24  1  0
 24 25  1  0
 25 26  1  6
 25 27  1  0
 27 28  1  6
 28 29  1  0
 29 30  1  1
 29 31  1  0
 31 32  1  6
 31 11  1  0
 31 14  1  0
 27 15  1  0
 25 19  1  0
M  END
>  <MS_ID>  (2832) 
MS2927

>  <SMILES>  (2832) 
C[C@H](CCC[C@H](C)C(=O)O)[C@H]1CC[C@H]2[C@@H]3[C@H](O)C[C@@H]4C[C@H](O)CC[C@]4(C)[C@H]3C[C@H](O)[C@]12C

>  <Structure_dimension>  (2832) 
2D

$$$$
MS2928
     RDKit          2D

 33 36  0  0  0  0  0  0  0  0999 V2000
    6.9502   -2.2664    0.0000 C   0  0  0  0  0  0  0  0  0  0  0  0
    5.5363   -1.7656    0.0000 C   0  0  0  0  0  0  0  0  0  0  0  0
    4.3956   -2.7396    0.0000 C   0  0  0  0  0  0  0  0  0  0  0  0
    4.6688   -4.2145    0.0000 C   0  0  0  0  0  0  0  0  0  0  0  0
    2.9817   -2.2388    0.0000 C   0  0  0  0  0  0  0  0  0  0  0  0
    5.2631   -0.2907    0.0000 C   0  0  0  0  0  0  0  0  0  0  0  0
    6.4038    0.6834    0.0000 O   0  0  0  0  0  0  0  0  0  0  0  0
    3.8492    0.2102    0.0000 C   0  0  0  0  0  0  0  0  0  0  0  0
    2.7085   -0.7639    0.0000 O   0  0  0  0  0  0  0  0  0  0  0  0
    3.5760    1.6851    0.0000 C   0  0  0  0  0  0  0  0  0  0  0  0
    4.7167    2.6592    0.0000 C   0  0  0  0  0  0  0  0  0  0  0  0
    2.1621    2.1860    0.0000 C   0  0  0  0  0  0  0  0  0  0  0  0
    1.7362    3.6242    0.0000 C   0  0  0  0  0  0  0  0  0  0  0  0
    0.2367    3.6636    0.0000 C   0  0  0  0  0  0  0  0  0  0  0  0
   -0.2641    2.2497    0.0000 C   0  0  0  0  0  0  0  0  0  0  0  0
   -1.6500    1.6758    0.0000 C   0  0  0  0  0  0  0  0  0  0  0  0
   -2.8400    2.5891    0.0000 C   0  0  0  0  0  0  0  0  0  0  0  0
   -4.2258    2.0152    0.0000 C   0  0  0  0  0  0  0  0  0  0  0  0
   -5.4158    2.9285    0.0000 O   0  0  0  0  0  0  0  0  0  0  0  0
   -4.4218    0.5281    0.0000 C   0  0  0  0  0  0  0  0  0  0  0  0
   -5.8077   -0.0458    0.0000 C   0  0  0  0  0  0  0  0  0  0  0  0
   -6.0036   -1.5330    0.0000 C   0  0  0  0  0  0  0  0  0  0  0  0
   -7.3895   -2.1068    0.0000 O   0  0  0  0  0  0  0  0  0  0  0  0
   -4.8137   -2.4462    0.0000 C   0  0  0  0  0  0  0  0  0  0  0  0
   -5.0096   -3.9334    0.0000 O   0  0  0  0  0  0  0  0  0  0  0  0
   -3.4278   -1.8723    0.0000 C   0  0  0  0  0  0  0  0  0  0  0  0
   -3.2318   -0.3852    0.0000 C   0  0  0  0  0  0  0  0  0  0  0  0
   -2.0419   -1.2984    0.0000 C   0  0  0  0  0  0  0  0  0  0  0  0
   -1.8460    0.1887    0.0000 C   0  0  0  0  0  0  0  0  0  0  0  0
   -0.6560   -0.7246    0.0000 C   0  0  0  0  0  0  0  0  0  0  0  0
    0.7299   -0.1507    0.0000 C   0  0  0  0  0  0  0  0  0  0  0  0
    0.9258    1.3365    0.0000 C   0  0  0  0  0  0  0  0  0  0  0  0
    2.2047    0.5526    0.0000 C   0  0  0  0  0  0  0  0  0  0  0  0
  1  2  2  0
  2  3  1  0
  3  4  1  0
  3  5  1  0
  2  6  1  0
  6  7  1  6
  6  8  1  0
  8  9  1  6
  8 10  1  0
 10 11  1  6
 10 12  1  0
 12 13  1  6
 13 14  1  0
 15 14  1  6
 15 16  1  0
 16 17  1  1
 17 18  1  0
 18 19  2  0
 18 20  1  0
 20 21  1  6
 21 22  1  0
 22 23  1  1
 22 24  1  0
 24 25  1  1
 24 26  1  0
 26 27  1  0
 27 28  1  6
 27 29  1  0
 29 30  1  6
 30 31  1  0
 31 32  1  0
 32 33  1  6
 32 12  1  0
 32 15  1  0
 29 16  1  0
 27 20  1  0
M  END
>  <MS_ID>  (2833) 
MS2928

>  <SMILES>  (2833) 
C=C(C(C)C)[C@@H](O)[C@H](O)[C@@H](C)[C@H]1CC[C@H]2[C@@H]3CC(=O)[C@H]4C[C@H](O)[C@H](O)C[C@]4(C)[C@H]3CC[C@]12C

>  <Structure_dimension>  (2833) 
2D

$$$$
MS2929
     RDKit          2D

 37 40  0  0  0  0  0  0  0  0999 V2000
   -1.2430   -4.5204    0.0000 C   0  0  0  0  0  0  0  0  0  0  0  0
   -0.5890   -3.1705    0.0000 C   0  0  0  0  0  0  0  0  0  0  0  0
   -1.4310   -1.9291    0.0000 C   0  0  0  0  0  0  0  0  0  0  0  0
   -2.9270   -2.0376    0.0000 C   0  0  0  0  0  0  0  0  0  0  0  0
   -3.7690   -0.7962    0.0000 C   0  0  0  0  0  0  0  0  0  0  0  0
   -3.1150    0.5537    0.0000 O   0  0  0  0  0  0  0  0  0  0  0  0
   -5.2651   -0.9047    0.0000 N   0  0  0  0  0  0  0  0  0  0  0  0
   -6.1071    0.3366    0.0000 C   0  0  0  0  0  0  0  0  0  0  0  0
   -7.6032    0.2281    0.0000 C   0  0  0  0  0  0  0  0  0  0  0  0
   -8.4452    1.4695    0.0000 C   0  0  0  0  0  0  0  0  0  0  0  0
   -9.9413    1.3610    0.0000 C   0  0  0  0  0  0  0  0  0  0  0  0
  -10.5953    0.0111    0.0000 O   0  0  0  0  0  0  0  0  0  0  0  0
  -10.7833    2.6024    0.0000 O   0  0  0  0  0  0  0  0  0  0  0  0
   -5.4531    1.6865    0.0000 C   0  0  0  0  0  0  0  0  0  0  0  0
   -3.9570    1.7950    0.0000 O   0  0  0  0  0  0  0  0  0  0  0  0
   -6.2951    2.9279    0.0000 O   0  0  0  0  0  0  0  0  0  0  0  0
    0.9071   -3.0620    0.0000 C   0  0  0  0  0  0  0  0  0  0  0  0
    1.8742   -4.2086    0.0000 C   0  0  0  0  0  0  0  0  0  0  0  0
    3.2636   -3.6431    0.0000 C   0  0  0  0  0  0  0  0  0  0  0  0
    3.1551   -2.1470    0.0000 C   0  0  0  0  0  0  0  0  0  0  0  0
    4.1943   -1.0653    0.0000 C   0  0  0  0  0  0  0  0  0  0  0  0
    5.6506   -1.4244    0.0000 C   0  0  0  0  0  0  0  0  0  0  0  0
    6.0678   -2.8652    0.0000 O   0  0  0  0  0  0  0  0  0  0  0  0
    6.6898   -0.3427    0.0000 C   0  0  0  0  0  0  0  0  0  0  0  0
    6.2726    1.0981    0.0000 C   0  0  0  0  0  0  0  0  0  0  0  0
    7.3118    2.1798    0.0000 C   0  0  0  0  0  0  0  0  0  0  0  0
    6.8946    3.6206    0.0000 C   0  0  0  0  0  0  0  0  0  0  0  0
    7.9338    4.7023    0.0000 O   0  0  0  0  0  0  0  0  0  0  0  0
    5.4383    3.9798    0.0000 C   0  0  0  0  0  0  0  0  0  0  0  0
    4.3991    2.8981    0.0000 C   0  0  0  0  0  0  0  0  0  0  0  0
    4.8163    1.4572    0.0000 C   0  0  0  0  0  0  0  0  0  0  0  0
    3.3599    1.8164    0.0000 C   0  0  0  0  0  0  0  0  0  0  0  0
    3.7771    0.3755    0.0000 C   0  0  0  0  0  0  0  0  0  0  0  0
    2.3207    0.7347    0.0000 C   0  0  0  0  0  0  0  0  0  0  0  0
    1.2815   -0.3470    0.0000 C   0  0  0  0  0  0  0  0  0  0  0  0
    1.6987   -1.7879    0.0000 C   0  0  0  0  0  0  0  0  0  0  0  0
    0.2127   -1.5829    0.0000 C   0  0  0  0  0  0  0  0  0  0  0  0
  2  1  1  6
  2  3  1  0
  3  4  1  0
  4  5  1  0
  5  6  2  0
  5  7  1  0
  7  8  1  0
  8  9  1  1
  9 10  1  0
 10 11  1  0
 11 12  2  0
 11 13  1  0
  8 14  1  0
 14 15  2  0
 14 16  1  0
  2 17  1  0
 17 18  1  6
 18 19  1  0
 20 19  1  6
 20 21  1  0
 21 22  1  1
 22 23  1  1
 22 24  1  0
 25 24  1  1
 25 26  1  0
 26 27  1  0
 27 28  1  1
 27 29  1  0
 29 30  1  0
 30 31  1  0
 31 32  1  6
 31 33  1  0
 33 34  1  6
 34 35  1  0
 35 36  1  0
 36 37  1  6
 36 17  1  0
 36 20  1  0
 33 21  1  0
 31 25  1  0
M  END
>  <MS_ID>  (2834) 
MS2929

>  <SMILES>  (2834) 
C[C@H](CCC(=O)N[C@@H](CCC(=O)O)C(=O)O)[C@H]1CC[C@H]2[C@@H]3[C@H](O)C[C@@H]4C[C@H](O)CC[C@]4(C)[C@H]3CC[C@]12C

>  <Structure_dimension>  (2834) 
2D

$$$$
MS2930
     RDKit          2D

 33 36  0  0  0  0  0  0  0  0999 V2000
    4.6688   -4.2145    0.0000 C   0  0  0  0  0  0  0  0  0  0  0  0
    4.3956   -2.7396    0.0000 C   0  0  0  0  0  0  0  0  0  0  0  0
    2.9817   -2.2388    0.0000 C   0  0  0  0  0  0  0  0  0  0  0  0
    5.5363   -1.7656    0.0000 C   0  0  0  0  0  0  0  0  0  0  0  0
    6.9502   -2.2664    0.0000 C   0  0  0  0  0  0  0  0  0  0  0  0
    5.2631   -0.2907    0.0000 C   0  0  0  0  0  0  0  0  0  0  0  0
    6.4038    0.6834    0.0000 O   0  0  0  0  0  0  0  0  0  0  0  0
    3.8492    0.2102    0.0000 C   0  0  0  0  0  0  0  0  0  0  0  0
    2.7085   -0.7639    0.0000 O   0  0  0  0  0  0  0  0  0  0  0  0
    3.5760    1.6851    0.0000 C   0  0  0  0  0  0  0  0  0  0  0  0
    4.7167    2.6592    0.0000 C   0  0  0  0  0  0  0  0  0  0  0  0
    2.1621    2.1860    0.0000 C   0  0  0  0  0  0  0  0  0  0  0  0
    1.7362    3.6242    0.0000 C   0  0  0  0  0  0  0  0  0  0  0  0
    0.2367    3.6636    0.0000 C   0  0  0  0  0  0  0  0  0  0  0  0
   -0.2641    2.2497    0.0000 C   0  0  0  0  0  0  0  0  0  0  0  0
   -1.6500    1.6758    0.0000 C   0  0  0  0  0  0  0  0  0  0  0  0
   -2.8400    2.5891    0.0000 C   0  0  0  0  0  0  0  0  0  0  0  0
   -4.2258    2.0152    0.0000 C   0  0  0  0  0  0  0  0  0  0  0  0
   -5.4158    2.9285    0.0000 O   0  0  0  0  0  0  0  0  0  0  0  0
   -4.4218    0.5281    0.0000 C   0  0  0  0  0  0  0  0  0  0  0  0
   -5.8077   -0.0458    0.0000 C   0  0  0  0  0  0  0  0  0  0  0  0
   -6.0036   -1.5330    0.0000 C   0  0  0  0  0  0  0  0  0  0  0  0
   -7.3895   -2.1068    0.0000 O   0  0  0  0  0  0  0  0  0  0  0  0
   -4.8137   -2.4462    0.0000 C   0  0  0  0  0  0  0  0  0  0  0  0
   -5.0096   -3.9334    0.0000 O   0  0  0  0  0  0  0  0  0  0  0  0
   -3.4278   -1.8723    0.0000 C   0  0  0  0  0  0  0  0  0  0  0  0
   -3.2318   -0.3852    0.0000 C   0  0  0  0  0  0  0  0  0  0  0  0
   -2.0419   -1.2984    0.0000 C   0  0  0  0  0  0  0  0  0  0  0  0
   -1.8460    0.1887    0.0000 C   0  0  0  0  0  0  0  0  0  0  0  0
   -0.6560   -0.7246    0.0000 C   0  0  0  0  0  0  0  0  0  0  0  0
    0.7299   -0.1507    0.0000 C   0  0  0  0  0  0  0  0  0  0  0  0
    0.9258    1.3365    0.0000 C   0  0  0  0  0  0  0  0  0  0  0  0
    2.2047    0.5526    0.0000 C   0  0  0  0  0  0  0  0  0  0  0  0
  1  2  1  0
  2  3  1  0
  2  4  1  0
  4  5  1  1
  4  6  1  0
  6  7  1  6
  6  8  1  0
  8  9  1  6
  8 10  1  0
 10 11  1  6
 10 12  1  0
 12 13  1  6
 13 14  1  0
 15 14  1  6
 15 16  1  0
 16 17  1  1
 17 18  1  0
 18 19  2  0
 18 20  1  0
 20 21  1  6
 21 22  1  0
 22 23  1  1
 22 24  1  0
 24 25  1  1
 24 26  1  0
 26 27  1  0
 27 28  1  6
 27 29  1  0
 29 30  1  6
 30 31  1  0
 31 32  1  0
 32 33  1  6
 32 12  1  0
 32 15  1  0
 29 16  1  0
 27 20  1  0
M  END
>  <MS_ID>  (2835) 
MS2930

>  <SMILES>  (2835) 
CC(C)[C@H](C)[C@@H](O)[C@H](O)[C@@H](C)[C@H]1CC[C@H]2[C@@H]3CC(=O)[C@H]4C[C@H](O)[C@H](O)C[C@]4(C)[C@H]3CC[C@]12C

>  <Structure_dimension>  (2835) 
2D

$$$$
MS2931
     RDKit          2D

 37 40  0  0  0  0  0  0  0  0999 V2000
   -1.2430   -4.5204    0.0000 C   0  0  0  0  0  0  0  0  0  0  0  0
   -0.5890   -3.1705    0.0000 C   0  0  0  0  0  0  0  0  0  0  0  0
   -1.4310   -1.9291    0.0000 C   0  0  0  0  0  0  0  0  0  0  0  0
   -2.9270   -2.0376    0.0000 C   0  0  0  0  0  0  0  0  0  0  0  0
   -3.7690   -0.7962    0.0000 C   0  0  0  0  0  0  0  0  0  0  0  0
   -3.1150    0.5537    0.0000 O   0  0  0  0  0  0  0  0  0  0  0  0
   -5.2651   -0.9047    0.0000 N   0  0  0  0  0  0  0  0  0  0  0  0
   -6.1071    0.3366    0.0000 C   0  0  0  0  0  0  0  0  0  0  0  0
   -7.6032    0.2281    0.0000 C   0  0  0  0  0  0  0  0  0  0  0  0
   -8.4452    1.4695    0.0000 C   0  0  0  0  0  0  0  0  0  0  0  0
   -9.9413    1.3610    0.0000 C   0  0  0  0  0  0  0  0  0  0  0  0
  -10.7833    2.6024    0.0000 N   0  0  0  0  0  0  0  0  0  0  0  0
  -10.5953    0.0111    0.0000 O   0  0  0  0  0  0  0  0  0  0  0  0
   -5.4531    1.6865    0.0000 C   0  0  0  0  0  0  0  0  0  0  0  0
   -3.9570    1.7950    0.0000 O   0  0  0  0  0  0  0  0  0  0  0  0
   -6.2951    2.9279    0.0000 O   0  0  0  0  0  0  0  0  0  0  0  0
    0.9071   -3.0620    0.0000 C   0  0  0  0  0  0  0  0  0  0  0  0
    1.8742   -4.2086    0.0000 C   0  0  0  0  0  0  0  0  0  0  0  0
    3.2636   -3.6431    0.0000 C   0  0  0  0  0  0  0  0  0  0  0  0
    3.1551   -2.1470    0.0000 C   0  0  0  0  0  0  0  0  0  0  0  0
    4.1943   -1.0653    0.0000 C   0  0  0  0  0  0  0  0  0  0  0  0
    5.6506   -1.4244    0.0000 C   0  0  0  0  0  0  0  0  0  0  0  0
    6.0678   -2.8652    0.0000 O   0  0  0  0  0  0  0  0  0  0  0  0
    6.6898   -0.3427    0.0000 C   0  0  0  0  0  0  0  0  0  0  0  0
    6.2726    1.0981    0.0000 C   0  0  0  0  0  0  0  0  0  0  0  0
    7.3118    2.1798    0.0000 C   0  0  0  0  0  0  0  0  0  0  0  0
    6.8946    3.6206    0.0000 C   0  0  0  0  0  0  0  0  0  0  0  0
    7.9338    4.7023    0.0000 O   0  0  0  0  0  0  0  0  0  0  0  0
    5.4383    3.9798    0.0000 C   0  0  0  0  0  0  0  0  0  0  0  0
    4.3991    2.8981    0.0000 C   0  0  0  0  0  0  0  0  0  0  0  0
    4.8163    1.4572    0.0000 C   0  0  0  0  0  0  0  0  0  0  0  0
    3.3599    1.8164    0.0000 C   0  0  0  0  0  0  0  0  0  0  0  0
    3.7771    0.3755    0.0000 C   0  0  0  0  0  0  0  0  0  0  0  0
    2.3207    0.7347    0.0000 C   0  0  0  0  0  0  0  0  0  0  0  0
    1.2815   -0.3470    0.0000 C   0  0  0  0  0  0  0  0  0  0  0  0
    1.6987   -1.7879    0.0000 C   0  0  0  0  0  0  0  0  0  0  0  0
    0.2127   -1.5829    0.0000 C   0  0  0  0  0  0  0  0  0  0  0  0
  2  1  1  6
  2  3  1  0
  3  4  1  0
  4  5  1  0
  5  6  2  0
  5  7  1  0
  7  8  1  0
  8  9  1  1
  9 10  1  0
 10 11  1  0
 11 12  1  0
 11 13  2  0
  8 14  1  0
 14 15  2  0
 14 16  1  0
  2 17  1  0
 17 18  1  6
 18 19  1  0
 20 19  1  6
 20 21  1  0
 21 22  1  1
 22 23  1  1
 22 24  1  0
 25 24  1  1
 25 26  1  0
 26 27  1  0
 27 28  1  1
 27 29  1  0
 29 30  1  0
 30 31  1  0
 31 32  1  6
 31 33  1  0
 33 34  1  6
 34 35  1  0
 35 36  1  0
 36 37  1  6
 36 17  1  0
 36 20  1  0
 33 21  1  0
 31 25  1  0
M  END
>  <MS_ID>  (2836) 
MS2931

>  <SMILES>  (2836) 
C[C@H](CCC(=O)N[C@@H](CCC(N)=O)C(=O)O)[C@H]1CC[C@H]2[C@@H]3[C@H](O)C[C@@H]4C[C@H](O)CC[C@]4(C)[C@H]3CC[C@]12C

>  <Structure_dimension>  (2836) 
2D

$$$$
MS2932
     RDKit          2D

 41 45  0  0  0  0  0  0  0  0999 V2000
    0.0595   -4.9453    0.0000 C   0  0  0  0  0  0  0  0  0  0  0  0
    0.5331   -3.5220    0.0000 C   0  0  0  0  0  0  0  0  0  0  0  0
   -0.4627   -2.4002    0.0000 C   0  0  0  0  0  0  0  0  0  0  0  0
   -1.9321   -2.7017    0.0000 C   0  0  0  0  0  0  0  0  0  0  0  0
   -2.9279   -1.5800    0.0000 C   0  0  0  0  0  0  0  0  0  0  0  0
   -2.4543   -0.1567    0.0000 O   0  0  0  0  0  0  0  0  0  0  0  0
   -4.3973   -1.8815    0.0000 N   0  0  0  0  0  0  0  0  0  0  0  0
   -5.3931   -0.7597    0.0000 C   0  0  0  0  0  0  0  0  0  0  0  0
   -6.8625   -1.0612    0.0000 C   0  0  0  0  0  0  0  0  0  0  0  0
   -7.8583    0.0605    0.0000 C   0  0  0  0  0  0  0  0  0  0  0  0
   -7.3847    1.4838    0.0000 C   0  0  0  0  0  0  0  0  0  0  0  0
   -8.3805    2.6056    0.0000 C   0  0  0  0  0  0  0  0  0  0  0  0
   -9.8499    2.3041    0.0000 C   0  0  0  0  0  0  0  0  0  0  0  0
  -10.8457    3.4259    0.0000 O   0  0  0  0  0  0  0  0  0  0  0  0
  -10.3235    0.8808    0.0000 C   0  0  0  0  0  0  0  0  0  0  0  0
   -9.3276   -0.2410    0.0000 C   0  0  0  0  0  0  0  0  0  0  0  0
   -4.9195    0.6636    0.0000 C   0  0  0  0  0  0  0  0  0  0  0  0
   -3.4501    0.9651    0.0000 O   0  0  0  0  0  0  0  0  0  0  0  0
   -5.9153    1.7853    0.0000 O   0  0  0  0  0  0  0  0  0  0  0  0
    2.0025   -3.2205    0.0000 C   0  0  0  0  0  0  0  0  0  0  0  0
    3.1101   -4.2320    0.0000 C   0  0  0  0  0  0  0  0  0  0  0  0
    4.4144   -3.4912    0.0000 C   0  0  0  0  0  0  0  0  0  0  0  0
    4.1129   -2.0218    0.0000 C   0  0  0  0  0  0  0  0  0  0  0  0
    5.0031   -0.8146    0.0000 C   0  0  0  0  0  0  0  0  0  0  0  0
    6.4938   -0.9819    0.0000 C   0  0  0  0  0  0  0  0  0  0  0  0
    7.0942   -2.3565    0.0000 O   0  0  0  0  0  0  0  0  0  0  0  0
    7.3840    0.2254    0.0000 C   0  0  0  0  0  0  0  0  0  0  0  0
    6.7836    1.6000    0.0000 C   0  0  0  0  0  0  0  0  0  0  0  0
    7.6738    2.8073    0.0000 C   0  0  0  0  0  0  0  0  0  0  0  0
    7.0734    4.1819    0.0000 C   0  0  0  0  0  0  0  0  0  0  0  0
    7.9636    5.3891    0.0000 O   0  0  0  0  0  0  0  0  0  0  0  0
    5.5827    4.3492    0.0000 C   0  0  0  0  0  0  0  0  0  0  0  0
    4.6925    3.1419    0.0000 C   0  0  0  0  0  0  0  0  0  0  0  0
    5.2929    1.7673    0.0000 C   0  0  0  0  0  0  0  0  0  0  0  0
    3.8023    1.9346    0.0000 C   0  0  0  0  0  0  0  0  0  0  0  0
    4.4027    0.5600    0.0000 C   0  0  0  0  0  0  0  0  0  0  0  0
    2.9121    0.7273    0.0000 C   0  0  0  0  0  0  0  0  0  0  0  0
    2.0218   -0.4799    0.0000 C   0  0  0  0  0  0  0  0  0  0  0  0
    0.5312   -0.3126    0.0000 O   0  0  0  0  0  0  0  0  0  0  0  0
    2.6223   -1.8545    0.0000 C   0  0  0  0  0  0  0  0  0  0  0  0
    1.1223   -1.8439    0.0000 C   0  0  0  0  0  0  0  0  0  0  0  0
  2  1  1  6
  2  3  1  0
  3  4  1  0
  4  5  1  0
  5  6  2  0
  5  7  1  0
  7  8  1  0
  8  9  1  1
  9 10  1  0
 10 11  2  0
 11 12  1  0
 12 13  2  0
 13 14  1  0
 13 15  1  0
 15 16  2  0
  8 17  1  0
 17 18  2  0
 17 19  1  0
  2 20  1  0
 20 21  1  6
 21 22  1  0
 23 22  1  6
 23 24  1  0
 24 25  1  1
 25 26  1  1
 25 27  1  0
 28 27  1  1
 28 29  1  0
 29 30  1  0
 30 31  1  1
 30 32  1  0
 32 33  1  0
 33 34  1  0
 34 35  1  6
 34 36  1  0
 36 37  1  6
 37 38  1  0
 38 39  1  1
 38 40  1  0
 40 41  1  6
 16 10  1  0
 40 20  1  0
 40 23  1  0
 36 24  1  0
 34 28  1  0
M  END
>  <MS_ID>  (2837) 
MS2932

>  <SMILES>  (2837) 
C[C@H](CCC(=O)N[C@@H](Cc1ccc(O)cc1)C(=O)O)[C@H]1CC[C@H]2[C@@H]3[C@H](O)C[C@@H]4C[C@H](O)CC[C@]4(C)[C@H]3C[C@H](O)[C@]12C

>  <Structure_dimension>  (2837) 
2D

$$$$
MS2933
     RDKit          2D

 31 34  0  0  0  0  0  0  0  0999 V2000
    6.8052   -4.0242    0.0000 C   0  0  0  0  0  0  0  0  0  0  0  0
    6.5844   -2.5406    0.0000 C   0  0  0  0  0  0  0  0  0  0  0  0
    7.7588   -1.6074    0.0000 C   0  0  0  0  0  0  0  0  0  0  0  0
    5.1890   -1.9900    0.0000 C   0  0  0  0  0  0  0  0  0  0  0  0
    4.9682   -0.5064    0.0000 C   0  0  0  0  0  0  0  0  0  0  0  0
    6.1426    0.4267    0.0000 O   0  0  0  0  0  0  0  0  0  0  0  0
    3.5728    0.0442    0.0000 C   0  0  0  0  0  0  0  0  0  0  0  0
    2.3984   -0.8889    0.0000 O   0  0  0  0  0  0  0  0  0  0  0  0
    3.3520    1.5278    0.0000 C   0  0  0  0  0  0  0  0  0  0  0  0
    4.5264    2.4609    0.0000 C   0  0  0  0  0  0  0  0  0  0  0  0
    1.9567    2.0784    0.0000 C   0  0  0  0  0  0  0  0  0  0  0  0
    1.5819    3.5308    0.0000 C   0  0  0  0  0  0  0  0  0  0  0  0
    0.0848    3.6232    0.0000 C   0  0  0  0  0  0  0  0  0  0  0  0
   -0.4658    2.2279    0.0000 C   0  0  0  0  0  0  0  0  0  0  0  0
   -1.8711    1.7034    0.0000 C   0  0  0  0  0  0  0  0  0  0  0  0
   -3.0280    2.6581    0.0000 C   0  0  0  0  0  0  0  0  0  0  0  0
   -4.4333    2.1336    0.0000 C   0  0  0  0  0  0  0  0  0  0  0  0
   -4.6817    0.6543    0.0000 C   0  0  0  0  0  0  0  0  0  0  0  0
   -6.0870    0.1298    0.0000 C   0  0  0  0  0  0  0  0  0  0  0  0
   -6.3354   -1.3495    0.0000 C   0  0  0  0  0  0  0  0  0  0  0  0
   -7.7407   -1.8740    0.0000 O   0  0  0  0  0  0  0  0  0  0  0  0
   -5.1785   -2.3042    0.0000 C   0  0  0  0  0  0  0  0  0  0  0  0
   -5.4269   -3.7835    0.0000 O   0  0  0  0  0  0  0  0  0  0  0  0
   -3.7732   -1.7797    0.0000 C   0  0  0  0  0  0  0  0  0  0  0  0
   -3.5248   -0.3004    0.0000 C   0  0  0  0  0  0  0  0  0  0  0  0
   -2.3679   -1.2552    0.0000 C   0  0  0  0  0  0  0  0  0  0  0  0
   -2.1195    0.2241    0.0000 C   0  0  0  0  0  0  0  0  0  0  0  0
   -0.9626   -0.7307    0.0000 C   0  0  0  0  0  0  0  0  0  0  0  0
    0.4427   -0.2062    0.0000 C   0  0  0  0  0  0  0  0  0  0  0  0
    0.6911    1.2731    0.0000 C   0  0  0  0  0  0  0  0  0  0  0  0
    1.9415    0.4445    0.0000 C   0  0  0  0  0  0  0  0  0  0  0  0
  1  2  1  0
  2  3  1  0
  2  4  1  0
  4  5  1  0
  5  6  1  6
  5  7  1  0
  7  8  1  6
  7  9  1  0
  9 10  1  6
  9 11  1  0
 11 12  1  6
 12 13  1  0
 14 13  1  6
 14 15  1  0
 15 16  1  1
 16 17  1  0
 18 17  1  6
 18 19  1  0
 19 20  1  0
 20 21  1  1
 20 22  1  0
 22 23  1  1
 22 24  1  0
 24 25  1  0
 25 26  1  6
 25 27  1  0
 27 28  1  6
 28 29  1  0
 29 30  1  0
 30 31  1  6
 30 11  1  0
 30 14  1  0
 27 15  1  0
 25 18  1  0
M  END
>  <MS_ID>  (2838) 
MS2933

>  <SMILES>  (2838) 
CC(C)C[C@@H](O)[C@H](O)[C@@H](C)[C@H]1CC[C@H]2[C@@H]3CC[C@H]4C[C@H](O)[C@H](O)C[C@]4(C)[C@H]3CC[C@]12C

>  <Structure_dimension>  (2838) 
2D

$$$$
MS2934
     RDKit          2D

 52 59  0  0  0  0  0  0  0  0999 V2000
  -14.0285   -2.1016    0.0000 C   0  0  0  0  0  0  0  0  0  0  0  0
  -12.6378   -1.5396    0.0000 C   0  0  0  0  0  0  0  0  0  0  0  0
  -12.4291   -0.0542    0.0000 C   0  0  0  0  0  0  0  0  0  0  0  0
  -11.0384    0.5078    0.0000 C   0  0  0  0  0  0  0  0  0  0  0  0
   -9.8563   -0.4157    0.0000 C   0  0  0  0  0  0  0  0  0  0  0  0
  -10.0650   -1.9011    0.0000 O   0  0  0  0  0  0  0  0  0  0  0  0
  -11.4557   -2.4631    0.0000 C   0  0  0  0  0  0  0  0  0  0  0  0
   -9.4935    1.0398    0.0000 O   0  0  0  0  0  0  0  0  0  0  0  0
   -7.9972    1.1445    0.0000 C   0  0  0  0  0  0  0  0  0  0  0  0
   -6.8481    2.1088    0.0000 C   0  0  0  0  0  0  0  0  0  0  0  0
   -5.5760    1.3139    0.0000 C   0  0  0  0  0  0  0  0  0  0  0  0
   -4.1342    1.7275    0.0000 C   0  0  0  0  0  0  0  0  0  0  0  0
   -3.7714    3.1829    0.0000 C   0  0  0  0  0  0  0  0  0  0  0  0
   -2.3295    3.5965    0.0000 C   0  0  0  0  0  0  0  0  0  0  0  0
   -1.2504    2.5546    0.0000 C   0  0  0  0  0  0  0  0  0  0  0  0
    0.1914    2.9681    0.0000 C   0  0  0  0  0  0  0  0  0  0  0  0
    1.2705    1.9262    0.0000 C   0  0  0  0  0  0  0  0  0  0  0  0
    2.7124    2.3397    0.0000 O   0  0  0  0  0  0  0  0  0  0  0  0
    3.7914    1.2978    0.0000 C   0  0  0  0  0  0  0  0  0  0  0  0
    3.4286   -0.1577    0.0000 O   0  0  0  0  0  0  0  0  0  0  0  0
    4.5077   -1.1996    0.0000 C   0  0  0  0  0  0  0  0  0  0  0  0
    4.1449   -2.6551    0.0000 C   0  0  0  0  0  0  0  0  0  0  0  0
    2.7030   -3.0686    0.0000 O   0  0  0  0  0  0  0  0  0  0  0  0
    5.9496   -0.7861    0.0000 C   0  0  0  0  0  0  0  0  0  0  0  0
    7.0286   -1.8280    0.0000 O   0  0  0  0  0  0  0  0  0  0  0  0
    8.4705   -1.4145    0.0000 C   0  0  0  0  0  0  0  0  0  0  0  0
    8.8333    0.0410    0.0000 O   0  0  0  0  0  0  0  0  0  0  0  0
   10.2752    0.4545    0.0000 C   0  0  0  0  0  0  0  0  0  0  0  0
   10.6380    1.9100    0.0000 C   0  0  0  0  0  0  0  0  0  0  0  0
    9.5589    2.9519    0.0000 O   0  0  0  0  0  0  0  0  0  0  0  0
   11.3543   -0.5874    0.0000 C   0  0  0  0  0  0  0  0  0  0  0  0
   12.7961   -0.1739    0.0000 O   0  0  0  0  0  0  0  0  0  0  0  0
   10.9915   -2.0429    0.0000 C   0  0  0  0  0  0  0  0  0  0  0  0
   12.0705   -3.0848    0.0000 O   0  0  0  0  0  0  0  0  0  0  0  0
    9.5496   -2.4564    0.0000 C   0  0  0  0  0  0  0  0  0  0  0  0
    9.1868   -3.9119    0.0000 O   0  0  0  0  0  0  0  0  0  0  0  0
    6.3124    0.6694    0.0000 C   0  0  0  0  0  0  0  0  0  0  0  0
    7.7543    1.0829    0.0000 O   0  0  0  0  0  0  0  0  0  0  0  0
    5.2333    1.7113    0.0000 C   0  0  0  0  0  0  0  0  0  0  0  0
    5.5961    3.1668    0.0000 O   0  0  0  0  0  0  0  0  0  0  0  0
    0.9077    0.4707    0.0000 C   0  0  0  0  0  0  0  0  0  0  0  0
   -0.5342    0.0572    0.0000 C   0  0  0  0  0  0  0  0  0  0  0  0
   -1.6132    1.0991    0.0000 C   0  0  0  0  0  0  0  0  0  0  0  0
   -1.9760   -0.3564    0.0000 C   0  0  0  0  0  0  0  0  0  0  0  0
   -3.0551    0.6856    0.0000 C   0  0  0  0  0  0  0  0  0  0  0  0
   -3.4179   -0.7699    0.0000 C   0  0  0  0  0  0  0  0  0  0  0  0
   -4.8598   -1.1834    0.0000 C   0  0  0  0  0  0  0  0  0  0  0  0
   -5.9388   -0.1415    0.0000 C   0  0  0  0  0  0  0  0  0  0  0  0
   -6.4518   -1.5511    0.0000 C   0  0  0  0  0  0  0  0  0  0  0  0
   -7.4352   -0.2462    0.0000 C   0  0  0  0  0  0  0  0  0  0  0  0
   -8.5842   -1.2105    0.0000 C   0  0  0  0  0  0  0  0  0  0  0  0
   -8.4795   -2.7068    0.0000 C   0  0  0  0  0  0  0  0  0  0  0  0
  2  1  1  6
  2  3  1  0
  3  4  1  0
  5  4  1  1
  5  6  1  0
  6  7  1  0
  5  8  1  0
  8  9  1  0
  9 10  1  1
 11 10  1  1
 11 12  1  0
 12 13  1  6
 13 14  1  0
 15 14  1  6
 15 16  1  0
 16 17  1  0
 17 18  1  1
 19 18  1  1
 19 20  1  0
 20 21  1  0
 21 22  1  1
 22 23  1  0
 21 24  1  0
 24 25  1  1
 26 25  1  6
 26 27  1  0
 27 28  1  0
 28 29  1  6
 29 30  1  0
 28 31  1  0
 31 32  1  1
 31 33  1  0
 33 34  1  6
 33 35  1  0
 35 36  1  1
 24 37  1  0
 37 38  1  1
 37 39  1  0
 39 40  1  6
 17 41  1  0
 41 42  1  0
 42 43  1  0
 43 44  1  1
 43 45  1  0
 45 46  1  1
 46 47  1  0
 47 48  1  0
 48 49  1  1
 48 50  1  0
 50 51  1  0
 51 52  1  6
  7  2  1  0
 50  9  1  1
 51  5  1  0
 48 11  1  0
 45 12  1  0
 43 15  1  0
 39 19  1  0
 35 26  1  0
M  END
>  <MS_ID>  (2839) 
MS2934

>  <SMILES>  (2839) 
C[C@@H]1CC[C@@]2(OC1)O[C@H]1C[C@H]3[C@@H]4CC[C@@H]5C[C@@H](O[C@@H]6O[C@H](CO)[C@H](O[C@@H]7O[C@H](CO)[C@@H](O)[C@H](O)[C@H]7O)[C@H](O)[C@H]6O)CC[C@]5(C)[C@H]4CC[C@]3(C)[C@H]1[C@@H]2C

>  <Structure_dimension>  (2839) 
2D

$$$$
MS2935
     RDKit          2D

 38 42  0  0  0  0  0  0  0  0999 V2000
   -0.6970   -4.8226    0.0000 C   0  0  0  0  0  0  0  0  0  0  0  0
   -0.1062   -3.4439    0.0000 C   0  0  0  0  0  0  0  0  0  0  0  0
   -1.0048   -2.2428    0.0000 C   0  0  0  0  0  0  0  0  0  0  0  0
   -2.4943   -2.4206    0.0000 C   0  0  0  0  0  0  0  0  0  0  0  0
   -3.3929   -1.2195    0.0000 C   0  0  0  0  0  0  0  0  0  0  0  0
   -2.8021    0.1592    0.0000 O   0  0  0  0  0  0  0  0  0  0  0  0
   -4.8823   -1.3972    0.0000 N   0  0  0  0  0  0  0  0  0  0  0  0
   -5.7810   -0.1962    0.0000 C   0  0  0  0  0  0  0  0  0  0  0  0
   -7.2704   -0.3739    0.0000 C   0  0  0  0  0  0  0  0  0  0  0  0
   -8.1690    0.8271    0.0000 C   0  0  0  0  0  0  0  0  0  0  0  0
   -9.6689    0.8060    0.0000 C   0  0  0  0  0  0  0  0  0  0  0  0
  -10.1524    2.2260    0.0000 N   0  0  0  0  0  0  0  0  0  0  0  0
   -8.9513    3.1246    0.0000 C   0  0  0  0  0  0  0  0  0  0  0  0
   -7.7256    2.2601    0.0000 N   0  0  0  0  0  0  0  0  0  0  0  0
   -5.1901    1.1825    0.0000 C   0  0  0  0  0  0  0  0  0  0  0  0
   -3.7007    1.3603    0.0000 O   0  0  0  0  0  0  0  0  0  0  0  0
   -6.0888    2.3836    0.0000 O   0  0  0  0  0  0  0  0  0  0  0  0
    1.3832   -3.2662    0.0000 C   0  0  0  0  0  0  0  0  0  0  0  0
    2.4025   -4.3667    0.0000 C   0  0  0  0  0  0  0  0  0  0  0  0
    3.7641   -3.7374    0.0000 C   0  0  0  0  0  0  0  0  0  0  0  0
    3.5864   -2.2480    0.0000 C   0  0  0  0  0  0  0  0  0  0  0  0
    4.5743   -1.1193    0.0000 C   0  0  0  0  0  0  0  0  0  0  0  0
    6.0458   -1.4105    0.0000 C   0  0  0  0  0  0  0  0  0  0  0  0
    7.0337   -0.2818    0.0000 C   0  0  0  0  0  0  0  0  0  0  0  0
    6.5502    1.1381    0.0000 C   0  0  0  0  0  0  0  0  0  0  0  0
    7.5382    2.2668    0.0000 C   0  0  0  0  0  0  0  0  0  0  0  0
    7.0547    3.6868    0.0000 C   0  0  0  0  0  0  0  0  0  0  0  0
    8.0426    4.8155    0.0000 O   0  0  0  0  0  0  0  0  0  0  0  0
    5.5832    3.9780    0.0000 C   0  0  0  0  0  0  0  0  0  0  0  0
    4.5953    2.8493    0.0000 C   0  0  0  0  0  0  0  0  0  0  0  0
    5.0788    1.4294    0.0000 C   0  0  0  0  0  0  0  0  0  0  0  0
    3.6073    1.7206    0.0000 C   0  0  0  0  0  0  0  0  0  0  0  0
    4.0908    0.3007    0.0000 C   0  0  0  0  0  0  0  0  0  0  0  0
    2.6194    0.5919    0.0000 C   0  0  0  0  0  0  0  0  0  0  0  0
    1.6314   -0.5368    0.0000 C   0  0  0  0  0  0  0  0  0  0  0  0
    0.1600   -0.2455    0.0000 O   0  0  0  0  0  0  0  0  0  0  0  0
    2.1149   -1.9567    0.0000 C   0  0  0  0  0  0  0  0  0  0  0  0
    0.6211   -1.8209    0.0000 C   0  0  0  0  0  0  0  0  0  0  0  0
  2  1  1  6
  2  3  1  0
  3  4  1  0
  4  5  1  0
  5  6  2  0
  5  7  1  0
  7  8  1  0
  8  9  1  1
  9 10  1  0
 10 11  2  0
 11 12  1  0
 12 13  1  0
 13 14  2  0
  8 15  1  0
 15 16  2  0
 15 17  1  0
  2 18  1  0
 18 19  1  6
 19 20  1  0
 21 20  1  6
 21 22  1  0
 22 23  1  1
 23 24  1  0
 25 24  1  1
 25 26  1  0
 26 27  1  0
 27 28  1  1
 27 29  1  0
 29 30  1  0
 30 31  1  0
 31 32  1  6
 31 33  1  0
 33 34  1  6
 34 35  1  0
 35 36  1  1
 35 37  1  0
 37 38  1  6
 14 10  1  0
 37 18  1  0
 37 21  1  0
 33 22  1  0
 31 25  1  0
M  END
>  <MS_ID>  (2840) 
MS2935

>  <SMILES>  (2840) 
C[C@H](CCC(=O)N[C@@H](Cc1c[nH]cn1)C(=O)O)[C@H]1CC[C@H]2[C@@H]3CC[C@@H]4C[C@H](O)CC[C@]4(C)[C@H]3C[C@H](O)[C@]12C

>  <Structure_dimension>  (2840) 
2D

$$$$
MS2936
     RDKit          2D

 32 35  0  0  0  0  0  0  0  0999 V2000
   -3.6450   -3.1073    0.0000 C   0  0  0  0  0  0  0  0  0  0  0  0
   -2.6454   -1.9889    0.0000 C   0  0  0  0  0  0  0  0  0  0  0  0
   -3.1142   -0.5640    0.0000 C   0  0  0  0  0  0  0  0  0  0  0  0
   -4.5825   -0.2575    0.0000 C   0  0  0  0  0  0  0  0  0  0  0  0
   -5.0513    1.1673    0.0000 C   0  0  0  0  0  0  0  0  0  0  0  0
   -6.5196    1.4738    0.0000 C   0  0  0  0  0  0  0  0  0  0  0  0
   -6.9884    2.8987    0.0000 C   0  0  0  0  0  0  0  0  0  0  0  0
   -8.4568    3.2052    0.0000 O   0  0  0  0  0  0  0  0  0  0  0  0
   -7.5192    0.3554    0.0000 C   0  0  0  0  0  0  0  0  0  0  0  0
   -8.9876    0.6619    0.0000 O   0  0  0  0  0  0  0  0  0  0  0  0
   -1.1771   -2.2954    0.0000 C   0  0  0  0  0  0  0  0  0  0  0  0
   -0.5619   -3.6634    0.0000 C   0  0  0  0  0  0  0  0  0  0  0  0
    0.9293   -3.5012    0.0000 C   0  0  0  0  0  0  0  0  0  0  0  0
    1.2358   -2.0328    0.0000 C   0  0  0  0  0  0  0  0  0  0  0  0
    2.5320   -1.2780    0.0000 C   0  0  0  0  0  0  0  0  0  0  0  0
    3.8338   -2.0233    0.0000 C   0  0  0  0  0  0  0  0  0  0  0  0
    3.8393   -3.5232    0.0000 O   0  0  0  0  0  0  0  0  0  0  0  0
    5.1301   -1.2685    0.0000 C   0  0  0  0  0  0  0  0  0  0  0  0
    5.1246    0.2315    0.0000 C   0  0  0  0  0  0  0  0  0  0  0  0
    6.4209    0.9863    0.0000 C   0  0  0  0  0  0  0  0  0  0  0  0
    6.4153    2.4863    0.0000 C   0  0  0  0  0  0  0  0  0  0  0  0
    7.7116    3.2410    0.0000 O   0  0  0  0  0  0  0  0  0  0  0  0
    5.1136    3.2315    0.0000 C   0  0  0  0  0  0  0  0  0  0  0  0
    3.8173    2.4767    0.0000 C   0  0  0  0  0  0  0  0  0  0  0  0
    3.8228    0.9767    0.0000 C   0  0  0  0  0  0  0  0  0  0  0  0
    2.5210    1.7219    0.0000 C   0  0  0  0  0  0  0  0  0  0  0  0
    2.5265    0.2220    0.0000 C   0  0  0  0  0  0  0  0  0  0  0  0
    1.2247    0.9672    0.0000 C   0  0  0  0  0  0  0  0  0  0  0  0
   -0.0715    0.2124    0.0000 C   0  0  0  0  0  0  0  0  0  0  0  0
   -1.3733    0.9576    0.0000 O   0  0  0  0  0  0  0  0  0  0  0  0
   -0.0660   -1.2876    0.0000 C   0  0  0  0  0  0  0  0  0  0  0  0
   -1.4386   -0.6825    0.0000 C   0  0  0  0  0  0  0  0  0  0  0  0
  2  1  1  6
  2  3  1  0
  3  4  1  0
  4  5  1  0
  5  6  1  0
  6  7  1  0
  7  8  1  0
  6  9  1  0
  9 10  1  0
  2 11  1  0
 11 12  1  6
 12 13  1  0
 14 13  1  6
 14 15  1  0
 15 16  1  1
 16 17  1  1
 16 18  1  0
 19 18  1  1
 19 20  1  0
 20 21  1  0
 21 22  1  1
 21 23  1  0
 23 24  1  0
 24 25  1  0
 25 26  1  6
 25 27  1  0
 27 28  1  6
 28 29  1  0
 29 30  1  1
 29 31  1  0
 31 32  1  6
 31 11  1  0
 31 14  1  0
 27 15  1  0
 25 19  1  0
M  END
>  <MS_ID>  (2841) 
MS2936

>  <SMILES>  (2841) 
C[C@H](CCCC(CO)CO)[C@H]1CC[C@H]2[C@@H]3[C@H](O)C[C@@H]4C[C@H](O)CC[C@]4(C)[C@H]3C[C@H](O)[C@]12C

>  <Structure_dimension>  (2841) 
2D

$$$$
MS2937
     RDKit          2D

 24 27  0  0  0  0  0  0  0  0999 V2000
   -6.2943    0.2891    0.0000 C   0  0  0  0  0  0  0  0  0  0  0  0
   -4.8892    0.8143    0.0000 C   0  0  0  0  0  0  0  0  0  0  0  0
   -4.6416    2.2937    0.0000 O   0  0  0  0  0  0  0  0  0  0  0  0
   -3.7319   -0.1399    0.0000 C   0  0  0  0  0  0  0  0  0  0  0  0
   -3.8235   -1.6371    0.0000 C   0  0  0  0  0  0  0  0  0  0  0  0
   -2.4280   -2.1870    0.0000 C   0  0  0  0  0  0  0  0  0  0  0  0
   -1.4738   -1.0296    0.0000 C   0  0  0  0  0  0  0  0  0  0  0  0
    0.0248   -0.9643    0.0000 C   0  0  0  0  0  0  0  0  0  0  0  0
    0.8307   -2.2294    0.0000 C   0  0  0  0  0  0  0  0  0  0  0  0
    0.1380   -3.5599    0.0000 O   0  0  0  0  0  0  0  0  0  0  0  0
    2.3293   -2.1641    0.0000 C   0  0  0  0  0  0  0  0  0  0  0  0
    3.0220   -0.8336    0.0000 C   0  0  0  0  0  0  0  0  0  0  0  0
    4.5205   -0.7683    0.0000 C   0  0  0  0  0  0  0  0  0  0  0  0
    5.2133    0.5622    0.0000 C   0  0  0  0  0  0  0  0  0  0  0  0
    6.7118    0.6275    0.0000 O   0  0  0  0  0  0  0  0  0  0  0  0
    4.4074    1.8273    0.0000 C   0  0  0  0  0  0  0  0  0  0  0  0
    2.9088    1.7620    0.0000 C   0  0  0  0  0  0  0  0  0  0  0  0
    2.2161    0.4315    0.0000 C   0  0  0  0  0  0  0  0  0  0  0  0
    1.4102    1.6967    0.0000 C   0  0  0  0  0  0  0  0  0  0  0  0
    0.7175    0.3662    0.0000 C   0  0  0  0  0  0  0  0  0  0  0  0
   -0.0883    1.6314    0.0000 C   0  0  0  0  0  0  0  0  0  0  0  0
   -1.5869    1.5660    0.0000 C   0  0  0  0  0  0  0  0  0  0  0  0
   -2.2796    0.2356    0.0000 C   0  0  0  0  0  0  0  0  0  0  0  0
   -3.2133    1.4095    0.0000 C   0  0  0  0  0  0  0  0  0  0  0  0
  2  1  1  6
  2  3  1  0
  2  4  1  0
  4  5  1  6
  5  6  1  0
  7  6  1  6
  7  8  1  0
  8  9  1  1
  9 10  1  1
  9 11  1  0
 12 11  1  1
 12 13  1  0
 13 14  1  0
 14 15  1  1
 14 16  1  0
 16 17  1  0
 17 18  1  0
 18 19  1  6
 18 20  1  0
 20 21  1  6
 21 22  1  0
 22 23  1  0
 23 24  1  6
 23  4  1  0
 23  7  1  0
 20  8  1  0
 18 12  1  0
M  END
>  <MS_ID>  (2842) 
MS2937

>  <SMILES>  (2842) 
C[C@H](O)[C@H]1CC[C@H]2[C@@H]3[C@H](O)C[C@@H]4C[C@H](O)CC[C@]4(C)[C@H]3CC[C@]12C

>  <Structure_dimension>  (2842) 
2D

$$$$
MS2938
     RDKit          2D

 33 36  0  0  0  0  0  0  0  0999 V2000
   -5.7471    2.6757    0.0000 C   0  0  0  0  0  0  0  0  0  0  0  0
   -4.5092    1.8287    0.0000 S   0  0  0  0  0  0  0  0  0  0  0  0
   -4.6238    0.3331    0.0000 C   0  0  0  0  0  0  0  0  0  0  0  0
   -5.9764   -0.3155    0.0000 C   0  0  0  0  0  0  0  0  0  0  0  0
   -7.2143    0.5316    0.0000 C   0  0  0  0  0  0  0  0  0  0  0  0
   -8.5669   -0.1169    0.0000 C   0  0  0  0  0  0  0  0  0  0  0  0
   -8.6815   -1.6125    0.0000 O   0  0  0  0  0  0  0  0  0  0  0  0
   -9.8048    0.7301    0.0000 O   0  0  0  0  0  0  0  0  0  0  0  0
   -3.3859   -0.5140    0.0000 C   0  0  0  0  0  0  0  0  0  0  0  0
   -3.3436   -2.0134    0.0000 C   0  0  0  0  0  0  0  0  0  0  0  0
   -1.9045   -2.4365    0.0000 C   0  0  0  0  0  0  0  0  0  0  0  0
   -1.0574   -1.1986    0.0000 C   0  0  0  0  0  0  0  0  0  0  0  0
    0.4294   -0.9998    0.0000 C   0  0  0  0  0  0  0  0  0  0  0  0
    1.3450   -2.1879    0.0000 C   0  0  0  0  0  0  0  0  0  0  0  0
    0.7738   -3.5749    0.0000 O   0  0  0  0  0  0  0  0  0  0  0  0
    2.8317   -1.9891    0.0000 C   0  0  0  0  0  0  0  0  0  0  0  0
    3.4029   -0.6021    0.0000 C   0  0  0  0  0  0  0  0  0  0  0  0
    4.8897   -0.4033    0.0000 C   0  0  0  0  0  0  0  0  0  0  0  0
    5.4609    0.9837    0.0000 C   0  0  0  0  0  0  0  0  0  0  0  0
    6.9476    1.1826    0.0000 O   0  0  0  0  0  0  0  0  0  0  0  0
    7.8632   -0.0056    0.0000 S   0  0  0  0  0  0  0  0  0  0  0  0
    6.6750   -0.9212    0.0000 O   0  0  0  0  0  0  0  0  0  0  0  0
    9.0514    0.9100    0.0000 O   0  0  0  0  0  0  0  0  0  0  0  0
    8.7788   -1.1938    0.0000 O   0  0  0  0  0  0  0  0  0  0  0  0
    4.5453    2.1719    0.0000 C   0  0  0  0  0  0  0  0  0  0  0  0
    3.0585    1.9731    0.0000 C   0  0  0  0  0  0  0  0  0  0  0  0
    2.4873    0.5861    0.0000 C   0  0  0  0  0  0  0  0  0  0  0  0
    1.5718    1.7742    0.0000 C   0  0  0  0  0  0  0  0  0  0  0  0
    1.0006    0.3872    0.0000 C   0  0  0  0  0  0  0  0  0  0  0  0
    0.0850    1.5754    0.0000 C   0  0  0  0  0  0  0  0  0  0  0  0
   -1.4018    1.3766    0.0000 C   0  0  0  0  0  0  0  0  0  0  0  0
   -1.9730   -0.0104    0.0000 C   0  0  0  0  0  0  0  0  0  0  0  0
   -3.0077    1.0755    0.0000 C   0  0  0  0  0  0  0  0  0  0  0  0
  1  2  1  0
  2  3  1  0
  3  4  1  1
  4  5  1  0
  5  6  1  0
  6  7  2  0
  6  8  1  0
  3  9  1  0
  9 10  1  6
 10 11  1  0
 12 11  1  6
 12 13  1  0
 13 14  1  1
 14 15  1  6
 14 16  1  0
 17 16  1  1
 17 18  1  0
 18 19  1  0
 19 20  1  1
 20 21  1  0
 21 22  2  0
 21 23  2  0
 21 24  1  0
 19 25  1  0
 25 26  1  0
 26 27  1  0
 27 28  1  6
 27 29  1  0
 29 30  1  6
 30 31  1  0
 31 32  1  0
 32 33  1  6
 32  9  1  0
 32 12  1  0
 29 13  1  0
 27 17  1  0
M  END
>  <MS_ID>  (2843) 
MS2938

>  <SMILES>  (2843) 
CS[C@H](CCC(=O)O)[C@H]1CC[C@H]2[C@@H]3[C@@H](O)C[C@@H]4C[C@H](OS(=O)(=O)O)CC[C@]4(C)[C@H]3CC[C@]12C

>  <Structure_dimension>  (2843) 
2D

$$$$
MS2939
     RDKit          2D

 28 31  0  0  0  0  0  0  0  0999 V2000
   -7.1175    3.8231    0.0000 C   0  0  0  0  0  0  0  0  0  0  0  0
   -6.8224    2.3524    0.0000 C   0  0  0  0  0  0  0  0  0  0  0  0
   -7.9484    1.3615    0.0000 C   0  0  0  0  0  0  0  0  0  0  0  0
   -5.4012    1.8727    0.0000 C   0  0  0  0  0  0  0  0  0  0  0  0
   -5.1060    0.4020    0.0000 C   0  0  0  0  0  0  0  0  0  0  0  0
   -3.6848   -0.0778    0.0000 C   0  0  0  0  0  0  0  0  0  0  0  0
   -3.3897   -1.5484    0.0000 C   0  0  0  0  0  0  0  0  0  0  0  0
   -4.5158   -2.5394    0.0000 C   0  0  0  0  0  0  0  0  0  0  0  0
   -1.9685   -2.0282    0.0000 C   0  0  0  0  0  0  0  0  0  0  0  0
   -1.5212   -3.4600    0.0000 C   0  0  0  0  0  0  0  0  0  0  0  0
   -0.0213   -3.4770    0.0000 C   0  0  0  0  0  0  0  0  0  0  0  0
    0.4584   -2.0558    0.0000 C   0  0  0  0  0  0  0  0  0  0  0  0
    1.8356   -1.4614    0.0000 C   0  0  0  0  0  0  0  0  0  0  0  0
    3.0390   -2.3568    0.0000 C   0  0  0  0  0  0  0  0  0  0  0  0
    4.4162   -1.7624    0.0000 C   0  0  0  0  0  0  0  0  0  0  0  0
    4.5900   -0.2725    0.0000 C   0  0  0  0  0  0  0  0  0  0  0  0
    5.9671    0.3220    0.0000 C   0  0  0  0  0  0  0  0  0  0  0  0
    6.1409    1.8119    0.0000 C   0  0  0  0  0  0  0  0  0  0  0  0
    7.5181    2.4063    0.0000 O   0  0  0  0  0  0  0  0  0  0  0  0
    4.9375    2.7073    0.0000 C   0  0  0  0  0  0  0  0  0  0  0  0
    3.5603    2.1129    0.0000 C   0  0  0  0  0  0  0  0  0  0  0  0
    3.3866    0.6230    0.0000 C   0  0  0  0  0  0  0  0  0  0  0  0
    2.1832    1.5184    0.0000 C   0  0  0  0  0  0  0  0  0  0  0  0
    2.0094    0.0285    0.0000 C   0  0  0  0  0  0  0  0  0  0  0  0
    0.8060    0.9240    0.0000 C   0  0  0  0  0  0  0  0  0  0  0  0
   -0.5712    0.3295    0.0000 C   0  0  0  0  0  0  0  0  0  0  0  0
   -0.7450   -1.1604    0.0000 C   0  0  0  0  0  0  0  0  0  0  0  0
   -2.0354   -0.3956    0.0000 C   0  0  0  0  0  0  0  0  0  0  0  0
  1  2  1  0
  2  3  1  0
  2  4  2  0
  4  5  1  0
  5  6  1  0
  6  7  1  0
  7  8  1  6
  7  9  1  0
  9 10  1  6
 10 11  1  0
 12 11  1  6
 12 13  1  0
 13 14  1  1
 14 15  1  0
 16 15  1  6
 16 17  1  0
 17 18  1  0
 18 19  1  6
 18 20  1  0
 20 21  1  0
 21 22  1  0
 22 23  1  6
 22 24  1  0
 24 25  1  6
 25 26  1  0
 26 27  1  0
 27 28  1  6
 27  9  1  0
 27 12  1  0
 24 13  1  0
 22 16  1  0
M  END
>  <MS_ID>  (2844) 
MS2939

>  <SMILES>  (2844) 
CC(C)=CCC[C@@H](C)[C@H]1CC[C@H]2[C@@H]3CC[C@H]4C[C@@H](O)CC[C@]4(C)[C@H]3CC[C@]12C

>  <Structure_dimension>  (2844) 
2D

$$$$
MS2940
     RDKit          2D

 37 40  0  0  0  0  0  0  0  0999 V2000
  -11.0645    2.6040    0.0000 C   0  0  0  0  0  0  0  0  0  0  0  0
  -10.2227    1.3625    0.0000 S   0  0  0  0  0  0  0  0  0  0  0  0
   -8.7266    1.4708    0.0000 C   0  0  0  0  0  0  0  0  0  0  0  0
   -7.8848    0.2293    0.0000 C   0  0  0  0  0  0  0  0  0  0  0  0
   -6.3887    0.3375    0.0000 C   0  0  0  0  0  0  0  0  0  0  0  0
   -5.5469   -0.9040    0.0000 N   0  0  0  0  0  0  0  0  0  0  0  0
   -4.0508   -0.7957    0.0000 C   0  0  0  0  0  0  0  0  0  0  0  0
   -3.3965    0.5541    0.0000 O   0  0  0  0  0  0  0  0  0  0  0  0
   -3.2090   -2.0372    0.0000 C   0  0  0  0  0  0  0  0  0  0  0  0
   -1.7129   -1.9289    0.0000 C   0  0  0  0  0  0  0  0  0  0  0  0
   -0.8711   -3.1704    0.0000 C   0  0  0  0  0  0  0  0  0  0  0  0
   -1.5253   -4.5202    0.0000 C   0  0  0  0  0  0  0  0  0  0  0  0
    0.6250   -3.0621    0.0000 C   0  0  0  0  0  0  0  0  0  0  0  0
    1.5920   -4.2088    0.0000 C   0  0  0  0  0  0  0  0  0  0  0  0
    2.9814   -3.6435    0.0000 C   0  0  0  0  0  0  0  0  0  0  0  0
    2.8731   -2.1474    0.0000 C   0  0  0  0  0  0  0  0  0  0  0  0
    3.9125   -1.0659    0.0000 C   0  0  0  0  0  0  0  0  0  0  0  0
    5.3688   -1.4252    0.0000 C   0  0  0  0  0  0  0  0  0  0  0  0
    5.7858   -2.8661    0.0000 O   0  0  0  0  0  0  0  0  0  0  0  0
    6.4081   -0.3437    0.0000 C   0  0  0  0  0  0  0  0  0  0  0  0
    5.9912    1.0972    0.0000 C   0  0  0  0  0  0  0  0  0  0  0  0
    7.0305    2.1788    0.0000 C   0  0  0  0  0  0  0  0  0  0  0  0
    6.6135    3.6197    0.0000 C   0  0  0  0  0  0  0  0  0  0  0  0
    7.6529    4.7012    0.0000 O   0  0  0  0  0  0  0  0  0  0  0  0
    5.1572    3.9790    0.0000 C   0  0  0  0  0  0  0  0  0  0  0  0
    4.1179    2.8974    0.0000 C   0  0  0  0  0  0  0  0  0  0  0  0
    4.5348    1.4566    0.0000 C   0  0  0  0  0  0  0  0  0  0  0  0
    3.0785    1.8159    0.0000 C   0  0  0  0  0  0  0  0  0  0  0  0
    3.4955    0.3750    0.0000 C   0  0  0  0  0  0  0  0  0  0  0  0
    2.0392    0.7343    0.0000 C   0  0  0  0  0  0  0  0  0  0  0  0
    0.9998   -0.3472    0.0000 C   0  0  0  0  0  0  0  0  0  0  0  0
   -0.4565    0.0121    0.0000 O   0  0  0  0  0  0  0  0  0  0  0  0
    1.4168   -1.7881    0.0000 C   0  0  0  0  0  0  0  0  0  0  0  0
   -0.0691   -1.5830    0.0000 C   0  0  0  0  0  0  0  0  0  0  0  0
   -5.7344    1.6873    0.0000 C   0  0  0  0  0  0  0  0  0  0  0  0
   -4.2384    1.7956    0.0000 O   0  0  0  0  0  0  0  0  0  0  0  0
   -6.5763    2.9288    0.0000 O   0  0  0  0  0  0  0  0  0  0  0  0
  1  2  1  0
  2  3  1  0
  3  4  1  0
  5  4  1  1
  5  6  1  0
  6  7  1  0
  7  8  2  0
  7  9  1  0
  9 10  1  0
 10 11  1  0
 11 12  1  6
 11 13  1  0
 13 14  1  6
 14 15  1  0
 16 15  1  6
 16 17  1  0
 17 18  1  1
 18 19  1  1
 18 20  1  0
 21 20  1  1
 21 22  1  0
 22 23  1  0
 23 24  1  1
 23 25  1  0
 25 26  1  0
 26 27  1  0
 27 28  1  6
 27 29  1  0
 29 30  1  6
 30 31  1  0
 31 32  1  1
 31 33  1  0
 33 34  1  6
  5 35  1  0
 35 36  2  0
 35 37  1  0
 33 13  1  0
 33 16  1  0
 29 17  1  0
 27 21  1  0
M  END
>  <MS_ID>  (2845) 
MS2940

>  <SMILES>  (2845) 
CSCC[C@H](NC(=O)CC[C@@H](C)[C@H]1CC[C@H]2[C@@H]3[C@H](O)C[C@@H]4C[C@H](O)CC[C@]4(C)[C@H]3C[C@H](O)[C@]12C)C(=O)O

>  <Structure_dimension>  (2845) 
2D

$$$$
MS2941
     RDKit          2D

 36 39  0  0  0  0  0  0  0  0999 V2000
   -0.8058   -4.6155    0.0000 C   0  0  0  0  0  0  0  0  0  0  0  0
   -0.1746   -3.2548    0.0000 C   0  0  0  0  0  0  0  0  0  0  0  0
   -1.0374   -2.0278    0.0000 C   0  0  0  0  0  0  0  0  0  0  0  0
   -2.5314   -2.1615    0.0000 C   0  0  0  0  0  0  0  0  0  0  0  0
   -3.3942   -0.9345    0.0000 C   0  0  0  0  0  0  0  0  0  0  0  0
   -2.7629    0.4263    0.0000 O   0  0  0  0  0  0  0  0  0  0  0  0
   -4.8882   -1.0681    0.0000 N   0  0  0  0  0  0  0  0  0  0  0  0
   -5.7510    0.1589    0.0000 C   0  0  0  0  0  0  0  0  0  0  0  0
   -7.2450    0.0252    0.0000 C   0  0  0  0  0  0  0  0  0  0  0  0
   -8.1078    1.2522    0.0000 C   0  0  0  0  0  0  0  0  0  0  0  0
   -9.6018    1.1186    0.0000 C   0  0  0  0  0  0  0  0  0  0  0  0
  -10.2331   -0.2421    0.0000 N   0  0  0  0  0  0  0  0  0  0  0  0
  -10.4646    2.3456    0.0000 C   0  0  0  0  0  0  0  0  0  0  0  0
   -9.8334    3.7063    0.0000 O   0  0  0  0  0  0  0  0  0  0  0  0
  -11.9587    2.2119    0.0000 O   0  0  0  0  0  0  0  0  0  0  0  0
    1.3195   -3.1212    0.0000 C   0  0  0  0  0  0  0  0  0  0  0  0
    2.3058   -4.2513    0.0000 C   0  0  0  0  0  0  0  0  0  0  0  0
    3.6854   -3.6625    0.0000 C   0  0  0  0  0  0  0  0  0  0  0  0
    3.5517   -2.1684    0.0000 C   0  0  0  0  0  0  0  0  0  0  0  0
    4.5725   -1.0694    0.0000 C   0  0  0  0  0  0  0  0  0  0  0  0
    6.0347   -1.4039    0.0000 C   0  0  0  0  0  0  0  0  0  0  0  0
    7.0556   -0.3049    0.0000 C   0  0  0  0  0  0  0  0  0  0  0  0
    6.6142    1.1287    0.0000 C   0  0  0  0  0  0  0  0  0  0  0  0
    7.6350    2.2278    0.0000 C   0  0  0  0  0  0  0  0  0  0  0  0
    7.1936    3.6613    0.0000 C   0  0  0  0  0  0  0  0  0  0  0  0
    8.2145    4.7604    0.0000 O   0  0  0  0  0  0  0  0  0  0  0  0
    5.7314    3.9959    0.0000 C   0  0  0  0  0  0  0  0  0  0  0  0
    4.7106    2.8968    0.0000 C   0  0  0  0  0  0  0  0  0  0  0  0
    5.1520    1.4633    0.0000 C   0  0  0  0  0  0  0  0  0  0  0  0
    3.6898    1.7978    0.0000 C   0  0  0  0  0  0  0  0  0  0  0  0
    4.1311    0.3642    0.0000 C   0  0  0  0  0  0  0  0  0  0  0  0
    2.6689    0.6987    0.0000 C   0  0  0  0  0  0  0  0  0  0  0  0
    1.6481   -0.4003    0.0000 C   0  0  0  0  0  0  0  0  0  0  0  0
    0.1859   -0.0658    0.0000 O   0  0  0  0  0  0  0  0  0  0  0  0
    2.0895   -1.8339    0.0000 C   0  0  0  0  0  0  0  0  0  0  0  0
    0.6003   -1.6540    0.0000 C   0  0  0  0  0  0  0  0  0  0  0  0
  2  1  1  6
  2  3  1  0
  3  4  1  0
  4  5  1  0
  5  6  2  0
  5  7  1  0
  7  8  1  0
  8  9  1  0
  9 10  1  0
 10 11  1  0
 11 12  1  6
 11 13  1  0
 13 14  2  0
 13 15  1  0
  2 16  1  0
 16 17  1  6
 17 18  1  0
 19 18  1  6
 19 20  1  0
 20 21  1  1
 21 22  1  0
 23 22  1  1
 23 24  1  0
 24 25  1  0
 25 26  1  1
 25 27  1  0
 27 28  1  0
 28 29  1  0
 29 30  1  6
 29 31  1  0
 31 32  1  6
 32 33  1  0
 33 34  1  1
 33 35  1  0
 35 36  1  6
 35 16  1  0
 35 19  1  0
 31 20  1  0
 29 23  1  0
M  END
>  <MS_ID>  (2846) 
MS2941

>  <SMILES>  (2846) 
C[C@H](CCC(=O)NCCC[C@H](N)C(=O)O)[C@H]1CC[C@H]2[C@@H]3CC[C@@H]4C[C@H](O)CC[C@]4(C)[C@H]3C[C@H](O)[C@]12C

>  <Structure_dimension>  (2846) 
2D

$$$$
MS2942
     RDKit          2D

 28 31  0  0  0  0  0  0  0  0999 V2000
   -8.3497    0.5957    0.0000 C   0  0  0  0  0  0  0  0  0  0  0  0
   -7.1253   -0.2708    0.0000 O   0  0  0  0  0  0  0  0  0  0  0  0
   -5.7627    0.3563    0.0000 C   0  0  0  0  0  0  0  0  0  0  0  0
   -5.6245    1.8499    0.0000 O   0  0  0  0  0  0  0  0  0  0  0  0
   -4.5383   -0.5103    0.0000 C   0  0  0  0  0  0  0  0  0  0  0  0
   -4.5197   -2.0101    0.0000 C   0  0  0  0  0  0  0  0  0  0  0  0
   -3.0874   -2.4559    0.0000 C   0  0  0  0  0  0  0  0  0  0  0  0
   -2.2209   -1.2315    0.0000 C   0  0  0  0  0  0  0  0  0  0  0  0
   -0.7312   -1.0561    0.0000 C   0  0  0  0  0  0  0  0  0  0  0  0
    0.1655   -2.2586    0.0000 C   0  0  0  0  0  0  0  0  0  0  0  0
    1.6552   -2.0833    0.0000 C   0  0  0  0  0  0  0  0  0  0  0  0
    2.2482   -0.7055    0.0000 C   0  0  0  0  0  0  0  0  0  0  0  0
    3.7380   -0.5301    0.0000 C   0  0  0  0  0  0  0  0  0  0  0  0
    4.3310    0.8477    0.0000 C   0  0  0  0  0  0  0  0  0  0  0  0
    5.8207    1.0230    0.0000 O   0  0  0  0  0  0  0  0  0  0  0  0
    6.7174   -0.1795    0.0000 S   0  0  0  0  0  0  0  0  0  0  0  0
    5.5149   -1.0762    0.0000 O   0  0  0  0  0  0  0  0  0  0  0  0
    7.9199    0.7172    0.0000 O   0  0  0  0  0  0  0  0  0  0  0  0
    7.6141   -1.3819    0.0000 O   0  0  0  0  0  0  0  0  0  0  0  0
    3.4343    2.0501    0.0000 C   0  0  0  0  0  0  0  0  0  0  0  0
    1.9446    1.8748    0.0000 C   0  0  0  0  0  0  0  0  0  0  0  0
    1.3515    0.4970    0.0000 C   0  0  0  0  0  0  0  0  0  0  0  0
    0.4548    1.6995    0.0000 C   0  0  0  0  0  0  0  0  0  0  0  0
   -0.1382    0.3217    0.0000 C   0  0  0  0  0  0  0  0  0  0  0  0
   -1.0349    1.5241    0.0000 C   0  0  0  0  0  0  0  0  0  0  0  0
   -2.5246    1.3488    0.0000 C   0  0  0  0  0  0  0  0  0  0  0  0
   -3.1176   -0.0290    0.0000 C   0  0  0  0  0  0  0  0  0  0  0  0
   -4.1351    1.0731    0.0000 C   0  0  0  0  0  0  0  0  0  0  0  0
  1  2  1  0
  2  3  1  0
  3  4  2  0
  5  3  1  6
  5  6  1  0
  6  7  1  0
  8  7  1  6
  8  9  1  0
  9 10  1  1
 10 11  1  0
 12 11  1  1
 12 13  1  0
 13 14  1  0
 14 15  1  1
 15 16  1  0
 16 17  2  0
 16 18  2  0
 16 19  1  0
 14 20  1  0
 20 21  1  0
 21 22  1  0
 22 23  1  6
 22 24  1  0
 24 25  1  6
 25 26  1  0
 26 27  1  0
 27 28  1  6
 27  5  1  0
 27  8  1  0
 24  9  1  0
 22 12  1  0
M  END
>  <MS_ID>  (2847) 
MS2942

>  <SMILES>  (2847) 
COC(=O)[C@H]1CC[C@H]2[C@@H]3CC[C@@H]4C[C@H](OS(=O)(=O)O)CC[C@]4(C)[C@H]3CC[C@]12C

>  <Structure_dimension>  (2847) 
2D

$$$$
MS2944
     RDKit          2D

 27 30  0  0  0  0  0  0  0  0999 V2000
   -5.4905   -1.1424    0.0000 C   0  0  0  0  0  0  0  0  0  0  0  0
   -4.2069   -0.3663    0.0000 C   0  0  0  0  0  0  0  0  0  0  0  0
   -4.2371    1.1334    0.0000 C   0  0  0  0  0  0  0  0  0  0  0  0
   -5.5510    1.8570    0.0000 C   0  0  0  0  0  0  0  0  0  0  0  0
   -6.8346    1.0810    0.0000 O   0  0  0  0  0  0  0  0  0  0  0  0
   -5.5812    3.3567    0.0000 O   0  0  0  0  0  0  0  0  0  0  0  0
   -2.8930   -1.0900    0.0000 C   0  0  0  0  0  0  0  0  0  0  0  0
   -2.7062   -2.5783    0.0000 C   0  0  0  0  0  0  0  0  0  0  0  0
   -1.2330   -2.8606    0.0000 C   0  0  0  0  0  0  0  0  0  0  0  0
   -0.5093   -1.5467    0.0000 C   0  0  0  0  0  0  0  0  0  0  0  0
    0.9513   -1.2053    0.0000 C   0  0  0  0  0  0  0  0  0  0  0  0
    1.9773   -2.2996    0.0000 C   0  0  0  0  0  0  0  0  0  0  0  0
    1.5426   -3.7352    0.0000 O   0  0  0  0  0  0  0  0  0  0  0  0
    3.4379   -1.9582    0.0000 C   0  0  0  0  0  0  0  0  0  0  0  0
    3.8726   -0.5226    0.0000 C   0  0  0  0  0  0  0  0  0  0  0  0
    5.3333   -0.1812    0.0000 C   0  0  0  0  0  0  0  0  0  0  0  0
    5.7680    1.2544    0.0000 C   0  0  0  0  0  0  0  0  0  0  0  0
    7.2286    1.5958    0.0000 O   0  0  0  0  0  0  0  0  0  0  0  0
    4.7420    2.3487    0.0000 C   0  0  0  0  0  0  0  0  0  0  0  0
    3.2814    2.0073    0.0000 C   0  0  0  0  0  0  0  0  0  0  0  0
    2.8467    0.5717    0.0000 C   0  0  0  0  0  0  0  0  0  0  0  0
    1.8207    1.6660    0.0000 C   0  0  0  0  0  0  0  0  0  0  0  0
    1.3860    0.2303    0.0000 C   0  0  0  0  0  0  0  0  0  0  0  0
    0.3601    1.3246    0.0000 C   0  0  0  0  0  0  0  0  0  0  0  0
   -1.1006    0.9832    0.0000 C   0  0  0  0  0  0  0  0  0  0  0  0
   -1.5352   -0.4524    0.0000 C   0  0  0  0  0  0  0  0  0  0  0  0
   -2.6700    0.5286    0.0000 C   0  0  0  0  0  0  0  0  0  0  0  0
  2  1  1  6
  2  3  1  0
  3  4  1  0
  4  5  2  0
  4  6  1  0
  2  7  1  0
  7  8  1  6
  8  9  1  0
 10  9  1  6
 10 11  1  0
 11 12  1  1
 12 13  1  1
 12 14  1  0
 15 14  1  1
 15 16  1  0
 16 17  1  0
 17 18  1  1
 17 19  1  0
 19 20  1  0
 20 21  1  0
 21 22  1  6
 21 23  1  0
 23 24  1  6
 24 25  1  0
 25 26  1  0
 26 27  1  6
 26  7  1  0
 26 10  1  0
 23 11  1  0
 21 15  1  0
M  END
>  <MS_ID>  (2848) 
MS2944

>  <SMILES>  (2848) 
C[C@H](CC(=O)O)[C@H]1CC[C@H]2[C@@H]3[C@H](O)C[C@@H]4C[C@H](O)CC[C@]4(C)[C@H]3CC[C@]12C

>  <Structure_dimension>  (2848) 
2D

$$$$
MS2945
     RDKit          2D

 25 28  0  0  0  0  0  0  0  0999 V2000
   -6.2011   -0.0039    0.0000 C   0  0  0  0  0  0  0  0  0  0  0  0
   -4.8118    0.5619    0.0000 C   0  0  0  0  0  0  0  0  0  0  0  0
   -4.6071    2.0478    0.0000 O   0  0  0  0  0  0  0  0  0  0  0  0
   -3.6273   -0.3584    0.0000 C   0  0  0  0  0  0  0  0  0  0  0  0
   -3.6756   -1.8576    0.0000 C   0  0  0  0  0  0  0  0  0  0  0  0
   -2.2646   -2.3668    0.0000 C   0  0  0  0  0  0  0  0  0  0  0  0
   -1.3444   -1.1823    0.0000 C   0  0  0  0  0  0  0  0  0  0  0  0
    0.1517   -1.0736    0.0000 C   0  0  0  0  0  0  0  0  0  0  0  0
    0.9939   -2.3148    0.0000 C   0  0  0  0  0  0  0  0  0  0  0  0
    0.3400   -3.6648    0.0000 O   0  0  0  0  0  0  0  0  0  0  0  0
    2.4899   -2.2061    0.0000 C   0  0  0  0  0  0  0  0  0  0  0  0
    3.1438   -0.8561    0.0000 C   0  0  0  0  0  0  0  0  0  0  0  0
    4.6399   -0.7474    0.0000 C   0  0  0  0  0  0  0  0  0  0  0  0
    5.2937    0.6026    0.0000 C   0  0  0  0  0  0  0  0  0  0  0  0
    6.7898    0.7113    0.0000 O   0  0  0  0  0  0  0  0  0  0  0  0
    4.4516    1.8438    0.0000 C   0  0  0  0  0  0  0  0  0  0  0  0
    2.9555    1.7351    0.0000 C   0  0  0  0  0  0  0  0  0  0  0  0
    2.3016    0.3851    0.0000 C   0  0  0  0  0  0  0  0  0  0  0  0
    1.4594    1.6264    0.0000 C   0  0  0  0  0  0  0  0  0  0  0  0
    0.8056    0.2764    0.0000 C   0  0  0  0  0  0  0  0  0  0  0  0
   -0.0366    1.5177    0.0000 C   0  0  0  0  0  0  0  0  0  0  0  0
   -1.5327    1.4090    0.0000 C   0  0  0  0  0  0  0  0  0  0  0  0
   -2.3748    2.6502    0.0000 O   0  0  0  0  0  0  0  0  0  0  0  0
   -2.1865    0.0590    0.0000 C   0  0  0  0  0  0  0  0  0  0  0  0
   -3.1539    1.2054    0.0000 C   0  0  0  0  0  0  0  0  0  0  0  0
  1  2  1  0
  2  3  2  0
  4  2  1  6
  4  5  1  0
  5  6  1  0
  7  6  1  6
  7  8  1  0
  8  9  1  1
  9 10  1  1
  9 11  1  0
 12 11  1  1
 12 13  1  0
 13 14  1  0
 14 15  1  1
 14 16  1  0
 16 17  1  0
 17 18  1  0
 18 19  1  6
 18 20  1  0
 20 21  1  6
 21 22  1  0
 22 23  1  1
 22 24  1  0
 24 25  1  6
 24  4  1  0
 24  7  1  0
 20  8  1  0
 18 12  1  0
M  END
>  <MS_ID>  (2849) 
MS2945

>  <SMILES>  (2849) 
CC(=O)[C@H]1CC[C@H]2[C@@H]3[C@H](O)C[C@@H]4C[C@H](O)CC[C@]4(C)[C@H]3C[C@H](O)[C@]12C

>  <Structure_dimension>  (2849) 
2D

$$$$
MS2946
     RDKit          2D

 28 31  0  0  0  0  0  0  0  0999 V2000
   -7.4092    0.0130    0.0000 C   0  0  0  0  0  0  0  0  0  0  0  0
   -6.0356    0.6156    0.0000 C   0  0  0  0  0  0  0  0  0  0  0  0
   -5.8706    2.1065    0.0000 O   0  0  0  0  0  0  0  0  0  0  0  0
   -4.8269   -0.2727    0.0000 C   0  0  0  0  0  0  0  0  0  0  0  0
   -4.8351   -1.7727    0.0000 C   0  0  0  0  0  0  0  0  0  0  0  0
   -3.4111   -2.2440    0.0000 C   0  0  0  0  0  0  0  0  0  0  0  0
   -2.5228   -1.0353    0.0000 C   0  0  0  0  0  0  0  0  0  0  0  0
   -1.0302   -0.8867    0.0000 C   0  0  0  0  0  0  0  0  0  0  0  0
   -0.1551   -2.1050    0.0000 C   0  0  0  0  0  0  0  0  0  0  0  0
   -0.7727   -3.4720    0.0000 O   0  0  0  0  0  0  0  0  0  0  0  0
    1.3375   -1.9564    0.0000 C   0  0  0  0  0  0  0  0  0  0  0  0
    1.9551   -0.5894    0.0000 C   0  0  0  0  0  0  0  0  0  0  0  0
    3.4477   -0.4408    0.0000 C   0  0  0  0  0  0  0  0  0  0  0  0
    4.0653    0.9261    0.0000 C   0  0  0  0  0  0  0  0  0  0  0  0
    5.5579    1.0748    0.0000 O   0  0  0  0  0  0  0  0  0  0  0  0
    6.4329   -0.1436    0.0000 S   0  0  0  0  0  0  0  0  0  0  0  0
    5.2146   -1.0186    0.0000 O   0  0  0  0  0  0  0  0  0  0  0  0
    7.6513    0.7315    0.0000 O   0  0  0  0  0  0  0  0  0  0  0  0
    7.3079   -1.3619    0.0000 O   0  0  0  0  0  0  0  0  0  0  0  0
    3.1903    2.1445    0.0000 C   0  0  0  0  0  0  0  0  0  0  0  0
    1.6976    1.9959    0.0000 C   0  0  0  0  0  0  0  0  0  0  0  0
    1.0800    0.6289    0.0000 C   0  0  0  0  0  0  0  0  0  0  0  0
    0.2050    1.8472    0.0000 C   0  0  0  0  0  0  0  0  0  0  0  0
   -0.4126    0.4803    0.0000 C   0  0  0  0  0  0  0  0  0  0  0  0
   -1.2876    1.6986    0.0000 C   0  0  0  0  0  0  0  0  0  0  0  0
   -2.7802    1.5500    0.0000 C   0  0  0  0  0  0  0  0  0  0  0  0
   -3.3978    0.1830    0.0000 C   0  0  0  0  0  0  0  0  0  0  0  0
   -4.3954    1.3032    0.0000 C   0  0  0  0  0  0  0  0  0  0  0  0
  1  2  1  0
  2  3  2  0
  4  2  1  6
  4  5  1  0
  5  6  1  0
  7  6  1  6
  7  8  1  0
  8  9  1  1
  9 10  1  1
  9 11  1  0
 12 11  1  1
 12 13  1  0
 13 14  1  0
 14 15  1  1
 15 16  1  0
 16 17  2  0
 16 18  2  0
 16 19  1  0
 14 20  1  0
 20 21  1  0
 21 22  1  0
 22 23  1  6
 22 24  1  0
 24 25  1  6
 25 26  1  0
 26 27  1  0
 27 28  1  6
 27  4  1  0
 27  7  1  0
 24  8  1  0
 22 12  1  0
M  END
>  <MS_ID>  (2850) 
MS2946

>  <SMILES>  (2850) 
CC(=O)[C@H]1CC[C@H]2[C@@H]3[C@H](O)C[C@@H]4C[C@H](OS(=O)(=O)O)CC[C@]4(C)[C@H]3CC[C@]12C

>  <Structure_dimension>  (2850) 
2D

$$$$
MS2947
     RDKit          2D

 29 32  0  0  0  0  0  0  0  0999 V2000
   -4.7033    4.1635    0.0000 C   0  0  0  0  0  0  0  0  0  0  0  0
   -4.4022    2.6941    0.0000 C   0  0  0  0  0  0  0  0  0  0  0  0
   -2.9790    2.2201    0.0000 C   0  0  0  0  0  0  0  0  0  0  0  0
   -5.5242    1.6986    0.0000 C   0  0  0  0  0  0  0  0  0  0  0  0
   -6.9474    2.1725    0.0000 C   0  0  0  0  0  0  0  0  0  0  0  0
   -5.2231    0.2291    0.0000 C   0  0  0  0  0  0  0  0  0  0  0  0
   -3.7999   -0.2448    0.0000 C   0  0  0  0  0  0  0  0  0  0  0  0
   -3.4988   -1.7143    0.0000 C   0  0  0  0  0  0  0  0  0  0  0  0
   -4.6209   -2.7098    0.0000 C   0  0  0  0  0  0  0  0  0  0  0  0
   -2.0757   -2.1883    0.0000 C   0  0  0  0  0  0  0  0  0  0  0  0
   -1.6226   -3.6182    0.0000 C   0  0  0  0  0  0  0  0  0  0  0  0
   -0.1226   -3.6292    0.0000 C   0  0  0  0  0  0  0  0  0  0  0  0
    0.3513   -2.2060    0.0000 C   0  0  0  0  0  0  0  0  0  0  0  0
    1.7261   -1.6060    0.0000 C   0  0  0  0  0  0  0  0  0  0  0  0
    2.9331   -2.4965    0.0000 C   0  0  0  0  0  0  0  0  0  0  0  0
    4.3078   -1.8965    0.0000 C   0  0  0  0  0  0  0  0  0  0  0  0
    4.4756   -0.4059    0.0000 C   0  0  0  0  0  0  0  0  0  0  0  0
    5.8503    0.1942    0.0000 C   0  0  0  0  0  0  0  0  0  0  0  0
    6.0180    1.6848    0.0000 C   0  0  0  0  0  0  0  0  0  0  0  0
    7.3928    2.2848    0.0000 O   0  0  0  0  0  0  0  0  0  0  0  0
    4.8110    2.5753    0.0000 C   0  0  0  0  0  0  0  0  0  0  0  0
    3.4362    1.9753    0.0000 C   0  0  0  0  0  0  0  0  0  0  0  0
    3.2685    0.4847    0.0000 C   0  0  0  0  0  0  0  0  0  0  0  0
    2.0615    1.3752    0.0000 C   0  0  0  0  0  0  0  0  0  0  0  0
    1.8938   -0.1154    0.0000 C   0  0  0  0  0  0  0  0  0  0  0  0
    0.6867    0.7751    0.0000 C   0  0  0  0  0  0  0  0  0  0  0  0
   -0.6880    0.1751    0.0000 C   0  0  0  0  0  0  0  0  0  0  0  0
   -0.8557   -1.3155    0.0000 C   0  0  0  0  0  0  0  0  0  0  0  0
   -2.1492   -0.5560    0.0000 C   0  0  0  0  0  0  0  0  0  0  0  0
  1  2  1  0
  2  3  1  0
  2  4  1  0
  4  5  1  6
  4  6  1  0
  6  7  2  0
  7  8  1  0
  8  9  1  6
  8 10  1  0
 10 11  1  6
 11 12  1  0
 13 12  1  6
 13 14  1  0
 14 15  1  1
 15 16  1  0
 17 16  1  6
 17 18  1  0
 18 19  1  0
 19 20  1  6
 19 21  1  0
 21 22  1  0
 22 23  1  0
 23 24  1  6
 23 25  1  0
 25 26  1  6
 26 27  1  0
 27 28  1  0
 28 29  1  6
 28 10  1  0
 28 13  1  0
 25 14  1  0
 23 17  1  0
M  END
>  <MS_ID>  (2851) 
MS2947

>  <SMILES>  (2851) 
CC(C)[C@@H](C)/C=C/[C@@H](C)[C@H]1CC[C@H]2[C@@H]3CC[C@H]4C[C@@H](O)CC[C@]4(C)[C@H]3CC[C@]12C

>  <Structure_dimension>  (2851) 
2D

$$$$
MS2948
     RDKit          2D

 32 35  0  0  0  0  0  0  0  0999 V2000
    6.6822   -2.4616    0.0000 C   0  0  0  0  0  0  0  0  0  0  0  0
    5.2909   -1.9010    0.0000 C   0  0  0  0  0  0  0  0  0  0  0  0
    4.1098   -2.8256    0.0000 C   0  0  0  0  0  0  0  0  0  0  0  0
    4.3200   -4.3108    0.0000 C   0  0  0  0  0  0  0  0  0  0  0  0
    2.7185   -2.2650    0.0000 C   0  0  0  0  0  0  0  0  0  0  0  0
    5.0808   -0.4158    0.0000 C   0  0  0  0  0  0  0  0  0  0  0  0
    6.2619    0.5088    0.0000 O   0  0  0  0  0  0  0  0  0  0  0  0
    3.6894    0.1448    0.0000 C   0  0  0  0  0  0  0  0  0  0  0  0
    2.5083   -0.7798    0.0000 O   0  0  0  0  0  0  0  0  0  0  0  0
    3.4793    1.6300    0.0000 C   0  0  0  0  0  0  0  0  0  0  0  0
    4.6604    2.5546    0.0000 C   0  0  0  0  0  0  0  0  0  0  0  0
    2.0880    2.1906    0.0000 C   0  0  0  0  0  0  0  0  0  0  0  0
    1.7237    3.6457    0.0000 C   0  0  0  0  0  0  0  0  0  0  0  0
    0.2272    3.7489    0.0000 C   0  0  0  0  0  0  0  0  0  0  0  0
   -0.3333    2.3576    0.0000 C   0  0  0  0  0  0  0  0  0  0  0  0
   -1.7424    1.8432    0.0000 C   0  0  0  0  0  0  0  0  0  0  0  0
   -2.8924    2.8063    0.0000 C   0  0  0  0  0  0  0  0  0  0  0  0
   -4.3014    2.2919    0.0000 C   0  0  0  0  0  0  0  0  0  0  0  0
   -4.5605    0.8145    0.0000 C   0  0  0  0  0  0  0  0  0  0  0  0
   -5.9695    0.3001    0.0000 C   0  0  0  0  0  0  0  0  0  0  0  0
   -6.2286   -1.1774    0.0000 C   0  0  0  0  0  0  0  0  0  0  0  0
   -7.6377   -1.6917    0.0000 O   0  0  0  0  0  0  0  0  0  0  0  0
   -5.0786   -2.1405    0.0000 C   0  0  0  0  0  0  0  0  0  0  0  0
   -5.3377   -3.6179    0.0000 O   0  0  0  0  0  0  0  0  0  0  0  0
   -3.6696   -1.6261    0.0000 C   0  0  0  0  0  0  0  0  0  0  0  0
   -3.4105   -0.1486    0.0000 C   0  0  0  0  0  0  0  0  0  0  0  0
   -2.2605   -1.1117    0.0000 C   0  0  0  0  0  0  0  0  0  0  0  0
   -2.0015    0.3657    0.0000 C   0  0  0  0  0  0  0  0  0  0  0  0
   -0.8515   -0.5973    0.0000 C   0  0  0  0  0  0  0  0  0  0  0  0
    0.5576   -0.0830    0.0000 C   0  0  0  0  0  0  0  0  0  0  0  0
    0.8166    1.3945    0.0000 C   0  0  0  0  0  0  0  0  0  0  0  0
    2.0610    0.5569    0.0000 C   0  0  0  0  0  0  0  0  0  0  0  0
  1  2  2  0
  2  3  1  0
  3  4  1  0
  3  5  1  0
  2  6  1  0
  6  7  1  6
  6  8  1  0
  8  9  1  6
  8 10  1  0
 10 11  1  6
 10 12  1  0
 12 13  1  6
 13 14  1  0
 15 14  1  6
 15 16  1  0
 16 17  1  1
 17 18  1  0
 19 18  1  6
 19 20  1  0
 20 21  1  0
 21 22  1  1
 21 23  1  0
 23 24  1  1
 23 25  1  0
 25 26  1  0
 26 27  1  6
 26 28  1  0
 28 29  1  6
 29 30  1  0
 30 31  1  0
 31 32  1  6
 31 12  1  0
 31 15  1  0
 28 16  1  0
 26 19  1  0
M  END
>  <MS_ID>  (2852) 
MS2948

>  <SMILES>  (2852) 
C=C(C(C)C)[C@@H](O)[C@H](O)[C@@H](C)[C@H]1CC[C@H]2[C@@H]3CC[C@H]4C[C@H](O)[C@H](O)C[C@]4(C)[C@H]3CC[C@]12C

>  <Structure_dimension>  (2852) 
2D

$$$$
MS2949
     RDKit          2D

 38 41  0  0  0  0  0  0  0  0999 V2000
   -0.0858   -4.8018    0.0000 C   0  0  0  0  0  0  0  0  0  0  0  0
    0.4920   -3.4175    0.0000 C   0  0  0  0  0  0  0  0  0  0  0  0
   -0.4179   -2.2250    0.0000 C   0  0  0  0  0  0  0  0  0  0  0  0
   -1.9056   -2.4168    0.0000 C   0  0  0  0  0  0  0  0  0  0  0  0
   -2.8155   -1.2242    0.0000 C   0  0  0  0  0  0  0  0  0  0  0  0
   -2.2377    0.1600    0.0000 O   0  0  0  0  0  0  0  0  0  0  0  0
   -4.3032   -1.4160    0.0000 N   0  0  0  0  0  0  0  0  0  0  0  0
   -5.2131   -0.2235    0.0000 C   0  0  0  0  0  0  0  0  0  0  0  0
   -6.7008   -0.4152    0.0000 C   0  0  0  0  0  0  0  0  0  0  0  0
   -7.6107    0.7773    0.0000 C   0  0  0  0  0  0  0  0  0  0  0  0
   -9.0984    0.5855    0.0000 C   0  0  0  0  0  0  0  0  0  0  0  0
  -10.0083    1.7781    0.0000 N   0  0  0  0  0  0  0  0  0  0  0  0
  -11.4960    1.5863    0.0000 C   0  0  0  0  0  0  0  0  0  0  0  0
  -12.0738    0.2021    0.0000 N   0  0  0  0  0  0  0  0  0  0  0  0
  -12.4059    2.7788    0.0000 N   0  0  0  0  0  0  0  0  0  0  0  0
   -4.6353    1.1608    0.0000 C   0  0  0  0  0  0  0  0  0  0  0  0
   -3.1476    1.3525    0.0000 O   0  0  0  0  0  0  0  0  0  0  0  0
   -5.5452    2.3533    0.0000 O   0  0  0  0  0  0  0  0  0  0  0  0
    1.9797   -3.2258    0.0000 C   0  0  0  0  0  0  0  0  0  0  0  0
    3.0092   -4.3166    0.0000 C   0  0  0  0  0  0  0  0  0  0  0  0
    4.3649   -3.6746    0.0000 C   0  0  0  0  0  0  0  0  0  0  0  0
    4.1731   -2.1869    0.0000 C   0  0  0  0  0  0  0  0  0  0  0  0
    5.1504   -1.0489    0.0000 C   0  0  0  0  0  0  0  0  0  0  0  0
    6.6245   -1.3263    0.0000 C   0  0  0  0  0  0  0  0  0  0  0  0
    7.6018   -0.1883    0.0000 C   0  0  0  0  0  0  0  0  0  0  0  0
    7.1049    1.2270    0.0000 C   0  0  0  0  0  0  0  0  0  0  0  0
    8.0822    2.3650    0.0000 C   0  0  0  0  0  0  0  0  0  0  0  0
    7.5853    3.7803    0.0000 C   0  0  0  0  0  0  0  0  0  0  0  0
    8.5626    4.9182    0.0000 O   0  0  0  0  0  0  0  0  0  0  0  0
    6.1112    4.0576    0.0000 C   0  0  0  0  0  0  0  0  0  0  0  0
    5.1339    2.9197    0.0000 C   0  0  0  0  0  0  0  0  0  0  0  0
    5.6308    1.5044    0.0000 C   0  0  0  0  0  0  0  0  0  0  0  0
    4.1567    1.7817    0.0000 C   0  0  0  0  0  0  0  0  0  0  0  0
    4.6535    0.3664    0.0000 C   0  0  0  0  0  0  0  0  0  0  0  0
    3.1794    0.6438    0.0000 C   0  0  0  0  0  0  0  0  0  0  0  0
    2.2021   -0.4942    0.0000 C   0  0  0  0  0  0  0  0  0  0  0  0
    2.6990   -1.9095    0.0000 C   0  0  0  0  0  0  0  0  0  0  0  0
    1.2039   -1.7877    0.0000 C   0  0  0  0  0  0  0  0  0  0  0  0
  2  1  1  6
  2  3  1  0
  3  4  1  0
  4  5  1  0
  5  6  2  0
  5  7  1  0
  7  8  1  0
  8  9  1  1
  9 10  1  0
 10 11  1  0
 11 12  1  0
 12 13  1  0
 13 14  2  0
 13 15  1  0
  8 16  1  0
 16 17  2  0
 16 18  1  0
  2 19  1  0
 19 20  1  6
 20 21  1  0
 22 21  1  6
 22 23  1  0
 23 24  1  1
 24 25  1  0
 26 25  1  1
 26 27  1  0
 27 28  1  0
 28 29  1  1
 28 30  1  0
 30 31  1  0
 31 32  1  0
 32 33  1  6
 32 34  1  0
 34 35  1  6
 35 36  1  0
 36 37  1  0
 37 38  1  6
 37 19  1  0
 37 22  1  0
 34 23  1  0
 32 26  1  0
M  END
>  <MS_ID>  (2853) 
MS2949

>  <SMILES>  (2853) 
C[C@H](CCC(=O)N[C@@H](CCCNC(=N)N)C(=O)O)[C@H]1CC[C@H]2[C@@H]3CC[C@@H]4C[C@H](O)CC[C@]4(C)[C@H]3CC[C@]12C

>  <Structure_dimension>  (2853) 
2D

$$$$
MS2950
     RDKit          2D

 34 37  0  0  0  0  0  0  0  0999 V2000
   -2.4540   -4.2478    0.0000 C   0  0  0  0  0  0  0  0  0  0  0  0
   -1.6579   -2.9765    0.0000 C   0  0  0  0  0  0  0  0  0  0  0  0
   -2.3608   -1.6514    0.0000 C   0  0  0  0  0  0  0  0  0  0  0  0
   -3.8598   -1.5976    0.0000 C   0  0  0  0  0  0  0  0  0  0  0  0
   -4.5628   -0.2725    0.0000 C   0  0  0  0  0  0  0  0  0  0  0  0
   -3.7667    0.9988    0.0000 O   0  0  0  0  0  0  0  0  0  0  0  0
   -6.0618   -0.2187    0.0000 N   0  0  0  0  0  0  0  0  0  0  0  0
   -6.7647    1.1064    0.0000 C   0  0  0  0  0  0  0  0  0  0  0  0
   -8.2638    1.1601    0.0000 C   0  0  0  0  0  0  0  0  0  0  0  0
   -8.9667    2.4852    0.0000 O   0  0  0  0  0  0  0  0  0  0  0  0
   -5.9686    2.3777    0.0000 C   0  0  0  0  0  0  0  0  0  0  0  0
   -4.4696    2.3239    0.0000 O   0  0  0  0  0  0  0  0  0  0  0  0
   -6.6716    3.7028    0.0000 O   0  0  0  0  0  0  0  0  0  0  0  0
   -0.1588   -3.0303    0.0000 C   0  0  0  0  0  0  0  0  0  0  0  0
    0.6788   -4.2747    0.0000 C   0  0  0  0  0  0  0  0  0  0  0  0
    2.1211   -3.8626    0.0000 C   0  0  0  0  0  0  0  0  0  0  0  0
    2.1748   -2.3635    0.0000 C   0  0  0  0  0  0  0  0  0  0  0  0
    3.3248   -1.4005    0.0000 C   0  0  0  0  0  0  0  0  0  0  0  0
    4.7339   -1.9149    0.0000 C   0  0  0  0  0  0  0  0  0  0  0  0
    5.8839   -0.9518    0.0000 C   0  0  0  0  0  0  0  0  0  0  0  0
    5.6248    0.5257    0.0000 C   0  0  0  0  0  0  0  0  0  0  0  0
    6.7748    1.4888    0.0000 C   0  0  0  0  0  0  0  0  0  0  0  0
    6.5157    2.9662    0.0000 C   0  0  0  0  0  0  0  0  0  0  0  0
    7.6657    3.9293    0.0000 O   0  0  0  0  0  0  0  0  0  0  0  0
    5.1067    3.4806    0.0000 C   0  0  0  0  0  0  0  0  0  0  0  0
    3.9567    2.5175    0.0000 C   0  0  0  0  0  0  0  0  0  0  0  0
    4.2158    1.0401    0.0000 C   0  0  0  0  0  0  0  0  0  0  0  0
    2.8067    1.5545    0.0000 C   0  0  0  0  0  0  0  0  0  0  0  0
    3.0658    0.0770    0.0000 C   0  0  0  0  0  0  0  0  0  0  0  0
    1.6567    0.5914    0.0000 C   0  0  0  0  0  0  0  0  0  0  0  0
    0.5067   -0.3717    0.0000 C   0  0  0  0  0  0  0  0  0  0  0  0
   -0.9023    0.1427    0.0000 O   0  0  0  0  0  0  0  0  0  0  0  0
    0.7658   -1.8492    0.0000 C   0  0  0  0  0  0  0  0  0  0  0  0
   -0.6893   -1.4849    0.0000 C   0  0  0  0  0  0  0  0  0  0  0  0
  2  1  1  6
  2  3  1  0
  3  4  1  0
  4  5  1  0
  5  6  2  0
  5  7  1  0
  7  8  1  0
  8  9  1  1
  9 10  1  0
  8 11  1  0
 11 12  2  0
 11 13  1  0
  2 14  1  0
 14 15  1  6
 15 16  1  0
 17 16  1  6
 17 18  1  0
 18 19  1  1
 19 20  1  0
 21 20  1  1
 21 22  1  0
 22 23  1  0
 23 24  1  1
 23 25  1  0
 25 26  1  0
 26 27  1  0
 27 28  1  6
 27 29  1  0
 29 30  1  6
 30 31  1  0
 31 32  1  1
 31 33  1  0
 33 34  1  6
 33 14  1  0
 33 17  1  0
 29 18  1  0
 27 21  1  0
M  END
>  <MS_ID>  (2854) 
MS2950

>  <SMILES>  (2854) 
C[C@H](CCC(=O)N[C@@H](CO)C(=O)O)[C@H]1CC[C@H]2[C@@H]3CC[C@@H]4C[C@H](O)CC[C@]4(C)[C@H]3C[C@H](O)[C@]12C

>  <Structure_dimension>  (2854) 
2D

$$$$
MS2952
     RDKit          2D

 33 36  0  0  0  0  0  0  0  0999 V2000
   -3.2878   -3.6766    0.0000 C   0  0  0  0  0  0  0  0  0  0  0  0
   -2.4284   -2.4472    0.0000 C   0  0  0  0  0  0  0  0  0  0  0  0
   -3.0634   -1.0882    0.0000 C   0  0  0  0  0  0  0  0  0  0  0  0
   -4.5578   -0.9586    0.0000 C   0  0  0  0  0  0  0  0  0  0  0  0
   -5.1928    0.4003    0.0000 C   0  0  0  0  0  0  0  0  0  0  0  0
   -4.3333    1.6297    0.0000 O   0  0  0  0  0  0  0  0  0  0  0  0
   -6.6871    0.5299    0.0000 N   0  0  0  0  0  0  0  0  0  0  0  0
   -7.3221    1.8889    0.0000 C   0  0  0  0  0  0  0  0  0  0  0  0
   -8.8165    2.0184    0.0000 C   0  0  0  0  0  0  0  0  0  0  0  0
   -9.6759    0.7890    0.0000 O   0  0  0  0  0  0  0  0  0  0  0  0
   -9.4515    3.3774    0.0000 O   0  0  0  0  0  0  0  0  0  0  0  0
   -0.9340   -2.5767    0.0000 C   0  0  0  0  0  0  0  0  0  0  0  0
   -0.1604   -3.8619    0.0000 C   0  0  0  0  0  0  0  0  0  0  0  0
    1.3009   -3.5233    0.0000 C   0  0  0  0  0  0  0  0  0  0  0  0
    1.4304   -2.0289    0.0000 C   0  0  0  0  0  0  0  0  0  0  0  0
    2.6277   -1.1253    0.0000 C   0  0  0  0  0  0  0  0  0  0  0  0
    4.0089   -1.7103    0.0000 C   0  0  0  0  0  0  0  0  0  0  0  0
    4.1929   -3.1990    0.0000 O   0  0  0  0  0  0  0  0  0  0  0  0
    5.2061   -0.8066    0.0000 C   0  0  0  0  0  0  0  0  0  0  0  0
    6.5874   -1.3916    0.0000 O   0  0  0  0  0  0  0  0  0  0  0  0
    5.0222    0.6820    0.0000 C   0  0  0  0  0  0  0  0  0  0  0  0
    6.2194    1.5857    0.0000 C   0  0  0  0  0  0  0  0  0  0  0  0
    6.0355    3.0744    0.0000 C   0  0  0  0  0  0  0  0  0  0  0  0
    7.2327    3.9780    0.0000 O   0  0  0  0  0  0  0  0  0  0  0  0
    4.6542    3.6594    0.0000 C   0  0  0  0  0  0  0  0  0  0  0  0
    3.4570    2.7557    0.0000 C   0  0  0  0  0  0  0  0  0  0  0  0
    3.6410    1.2671    0.0000 C   0  0  0  0  0  0  0  0  0  0  0  0
    2.2597    1.8521    0.0000 C   0  0  0  0  0  0  0  0  0  0  0  0
    2.4437    0.3634    0.0000 C   0  0  0  0  0  0  0  0  0  0  0  0
    1.0625    0.9484    0.0000 C   0  0  0  0  0  0  0  0  0  0  0  0
   -0.1347    0.0448    0.0000 C   0  0  0  0  0  0  0  0  0  0  0  0
    0.0492   -1.4439    0.0000 C   0  0  0  0  0  0  0  0  0  0  0  0
   -1.3856   -1.0065    0.0000 C   0  0  0  0  0  0  0  0  0  0  0  0
  2  1  1  6
  2  3  1  0
  3  4  1  0
  4  5  1  0
  5  6  2  0
  5  7  1  0
  7  8  1  0
  8  9  1  0
  9 10  2  0
  9 11  1  0
  2 12  1  0
 12 13  1  6
 13 14  1  0
 15 14  1  6
 15 16  1  0
 16 17  1  1
 17 18  1  6
 17 19  1  0
 19 20  1  6
 19 21  1  0
 21 22  1  1
 22 23  1  0
 23 24  1  1
 23 25  1  0
 25 26  1  0
 26 27  1  0
 27 28  1  6
 27 29  1  0
 29 30  1  6
 30 31  1  0
 31 32  1  0
 32 33  1  6
 32 12  1  0
 32 15  1  0
 29 16  1  0
 27 21  1  0
M  END
>  <MS_ID>  (2855) 
MS2952

>  <SMILES>  (2855) 
C[C@H](CCC(=O)NCC(=O)O)[C@H]1CC[C@H]2[C@@H]3[C@@H](O)[C@@H](O)[C@@H]4C[C@H](O)CC[C@]4(C)[C@H]3CC[C@]12C

>  <Structure_dimension>  (2855) 
2D

$$$$
MS2953
     RDKit          2D

 30 33  0  0  0  0  0  0  0  0999 V2000
   -7.2759    3.4526    0.0000 C   0  0  0  0  0  0  0  0  0  0  0  0
   -6.8987    2.0009    0.0000 C   0  0  0  0  0  0  0  0  0  0  0  0
   -7.9673    0.9482    0.0000 C   0  0  0  0  0  0  0  0  0  0  0  0
   -5.4527    1.6017    0.0000 C   0  0  0  0  0  0  0  0  0  0  0  0
   -4.3841    2.6543    0.0000 O   0  0  0  0  0  0  0  0  0  0  0  0
   -5.0755    0.1499    0.0000 C   0  0  0  0  0  0  0  0  0  0  0  0
   -3.6295   -0.2492    0.0000 C   0  0  0  0  0  0  0  0  0  0  0  0
   -3.2523   -1.7010    0.0000 C   0  0  0  0  0  0  0  0  0  0  0  0
   -4.3209   -2.7536    0.0000 C   0  0  0  0  0  0  0  0  0  0  0  0
   -1.8064   -2.1002    0.0000 C   0  0  0  0  0  0  0  0  0  0  0  0
   -1.2794   -3.5046    0.0000 C   0  0  0  0  0  0  0  0  0  0  0  0
    0.2191   -3.4374    0.0000 C   0  0  0  0  0  0  0  0  0  0  0  0
    0.6183   -1.9915    0.0000 C   0  0  0  0  0  0  0  0  0  0  0  0
    1.9599   -1.3206    0.0000 C   0  0  0  0  0  0  0  0  0  0  0  0
    3.2117   -2.1470    0.0000 C   0  0  0  0  0  0  0  0  0  0  0  0
    3.1219   -3.6443    0.0000 O   0  0  0  0  0  0  0  0  0  0  0  0
    4.5533   -1.4762    0.0000 C   0  0  0  0  0  0  0  0  0  0  0  0
    4.6431    0.0211    0.0000 C   0  0  0  0  0  0  0  0  0  0  0  0
    5.9847    0.6920    0.0000 C   0  0  0  0  0  0  0  0  0  0  0  0
    6.0745    2.1893    0.0000 C   0  0  0  0  0  0  0  0  0  0  0  0
    7.4161    2.8602    0.0000 O   0  0  0  0  0  0  0  0  0  0  0  0
    4.8227    3.0158    0.0000 C   0  0  0  0  0  0  0  0  0  0  0  0
    3.4811    2.3449    0.0000 C   0  0  0  0  0  0  0  0  0  0  0  0
    3.3913    0.8476    0.0000 C   0  0  0  0  0  0  0  0  0  0  0  0
    2.1395    1.6740    0.0000 C   0  0  0  0  0  0  0  0  0  0  0  0
    2.0497    0.1767    0.0000 C   0  0  0  0  0  0  0  0  0  0  0  0
    0.7979    1.0031    0.0000 C   0  0  0  0  0  0  0  0  0  0  0  0
   -0.5437    0.3323    0.0000 C   0  0  0  0  0  0  0  0  0  0  0  0
   -0.6335   -1.1650    0.0000 C   0  0  0  0  0  0  0  0  0  0  0  0
   -1.9649   -0.4740    0.0000 C   0  0  0  0  0  0  0  0  0  0  0  0
  1  2  1  0
  2  3  1  0
  2  4  1  0
  4  5  1  1
  4  6  1  0
  6  7  1  0
  7  8  1  0
  8  9  1  6
  8 10  1  0
 10 11  1  6
 11 12  1  0
 13 12  1  6
 13 14  1  0
 14 15  1  1
 15 16  1  1
 15 17  1  0
 18 17  1  1
 18 19  1  0
 19 20  1  0
 20 21  1  1
 20 22  1  0
 22 23  1  0
 23 24  1  0
 24 25  1  6
 24 26  1  0
 26 27  1  6
 27 28  1  0
 28 29  1  0
 29 30  1  6
 29 10  1  0
 29 13  1  0
 26 14  1  0
 24 18  1  0
M  END
>  <MS_ID>  (2856) 
MS2953

>  <SMILES>  (2856) 
CC(C)[C@@H](O)CC[C@@H](C)[C@H]1CC[C@H]2[C@@H]3[C@H](O)C[C@@H]4C[C@H](O)CC[C@]4(C)[C@H]3CC[C@]12C

>  <Structure_dimension>  (2856) 
2D

$$$$
MS2954
     RDKit          2D

 36 39  0  0  0  0  0  0  0  0999 V2000
   -0.9048   -4.5543    0.0000 C   0  0  0  0  0  0  0  0  0  0  0  0
   -0.2963   -3.1832    0.0000 C   0  0  0  0  0  0  0  0  0  0  0  0
   -1.1794   -1.9707    0.0000 C   0  0  0  0  0  0  0  0  0  0  0  0
   -2.6710   -2.1293    0.0000 C   0  0  0  0  0  0  0  0  0  0  0  0
   -3.5541   -0.9168    0.0000 C   0  0  0  0  0  0  0  0  0  0  0  0
   -2.9456    0.4542    0.0000 O   0  0  0  0  0  0  0  0  0  0  0  0
   -5.0457   -1.0754    0.0000 N   0  0  0  0  0  0  0  0  0  0  0  0
   -5.9288    0.1371    0.0000 C   0  0  0  0  0  0  0  0  0  0  0  0
   -7.4204   -0.0215    0.0000 C   0  0  0  0  0  0  0  0  0  0  0  0
   -8.3036    1.1910    0.0000 C   0  0  0  0  0  0  0  0  0  0  0  0
   -9.7951    1.0324    0.0000 C   0  0  0  0  0  0  0  0  0  0  0  0
  -10.4036   -0.3386    0.0000 N   0  0  0  0  0  0  0  0  0  0  0  0
  -10.6783    2.2449    0.0000 C   0  0  0  0  0  0  0  0  0  0  0  0
  -10.0698    3.6159    0.0000 O   0  0  0  0  0  0  0  0  0  0  0  0
  -12.1699    2.0863    0.0000 O   0  0  0  0  0  0  0  0  0  0  0  0
    1.1953   -3.0247    0.0000 C   0  0  0  0  0  0  0  0  0  0  0  0
    2.2003   -4.1382    0.0000 C   0  0  0  0  0  0  0  0  0  0  0  0
    3.5699   -3.5264    0.0000 C   0  0  0  0  0  0  0  0  0  0  0  0
    3.4114   -2.0349    0.0000 C   0  0  0  0  0  0  0  0  0  0  0  0
    4.4137   -0.9189    0.0000 C   0  0  0  0  0  0  0  0  0  0  0  0
    5.8813   -1.2291    0.0000 C   0  0  0  0  0  0  0  0  0  0  0  0
    6.3465   -2.6551    0.0000 O   0  0  0  0  0  0  0  0  0  0  0  0
    6.8837   -0.1132    0.0000 C   0  0  0  0  0  0  0  0  0  0  0  0
    6.4185    1.3129    0.0000 C   0  0  0  0  0  0  0  0  0  0  0  0
    7.4208    2.4288    0.0000 C   0  0  0  0  0  0  0  0  0  0  0  0
    6.9556    3.8548    0.0000 C   0  0  0  0  0  0  0  0  0  0  0  0
    7.9580    4.9707    0.0000 O   0  0  0  0  0  0  0  0  0  0  0  0
    5.4880    4.1649    0.0000 C   0  0  0  0  0  0  0  0  0  0  0  0
    4.4857    3.0490    0.0000 C   0  0  0  0  0  0  0  0  0  0  0  0
    4.9509    1.6230    0.0000 C   0  0  0  0  0  0  0  0  0  0  0  0
    3.4833    1.9331    0.0000 C   0  0  0  0  0  0  0  0  0  0  0  0
    3.9485    0.5071    0.0000 C   0  0  0  0  0  0  0  0  0  0  0  0
    2.4809    0.8172    0.0000 C   0  0  0  0  0  0  0  0  0  0  0  0
    1.4785   -0.2987    0.0000 C   0  0  0  0  0  0  0  0  0  0  0  0
    1.9438   -1.7247    0.0000 C   0  0  0  0  0  0  0  0  0  0  0  0
    0.4518   -1.5697    0.0000 C   0  0  0  0  0  0  0  0  0  0  0  0
  2  1  1  6
  2  3  1  0
  3  4  1  0
  4  5  1  0
  5  6  2  0
  5  7  1  0
  7  8  1  0
  8  9  1  0
  9 10  1  0
 10 11  1  0
 11 12  1  6
 11 13  1  0
 13 14  2  0
 13 15  1  0
  2 16  1  0
 16 17  1  6
 17 18  1  0
 19 18  1  6
 19 20  1  0
 20 21  1  1
 21 22  1  6
 21 23  1  0
 24 23  1  1
 24 25  1  0
 25 26  1  0
 26 27  1  1
 26 28  1  0
 28 29  1  0
 29 30  1  0
 30 31  1  6
 30 32  1  0
 32 33  1  6
 33 34  1  0
 34 35  1  0
 35 36  1  6
 35 16  1  0
 35 19  1  0
 32 20  1  0
 30 24  1  0
M  END
>  <MS_ID>  (2857) 
MS2954

>  <SMILES>  (2857) 
C[C@H](CCC(=O)NCCC[C@H](N)C(=O)O)[C@H]1CC[C@H]2[C@@H]3[C@@H](O)C[C@@H]4C[C@H](O)CC[C@]4(C)[C@H]3CC[C@]12C

>  <Structure_dimension>  (2857) 
2D

$$$$
MS2955
     RDKit          2D

 31 34  0  0  0  0  0  0  0  0999 V2000
   -6.8556    3.5368    0.0000 C   0  0  0  0  0  0  0  0  0  0  0  0
   -6.4838    2.0836    0.0000 C   0  0  0  0  0  0  0  0  0  0  0  0
   -5.0394    1.6790    0.0000 C   0  0  0  0  0  0  0  0  0  0  0  0
   -4.6676    0.2259    0.0000 C   0  0  0  0  0  0  0  0  0  0  0  0
   -3.2232   -0.1787    0.0000 C   0  0  0  0  0  0  0  0  0  0  0  0
   -2.8514   -1.6319    0.0000 C   0  0  0  0  0  0  0  0  0  0  0  0
   -3.9239   -2.6805    0.0000 C   0  0  0  0  0  0  0  0  0  0  0  0
   -1.4069   -2.0365    0.0000 C   0  0  0  0  0  0  0  0  0  0  0  0
   -0.8853   -3.4429    0.0000 C   0  0  0  0  0  0  0  0  0  0  0  0
    0.6135   -3.3813    0.0000 C   0  0  0  0  0  0  0  0  0  0  0  0
    1.0181   -1.9369    0.0000 C   0  0  0  0  0  0  0  0  0  0  0  0
    2.3622   -1.2711    0.0000 C   0  0  0  0  0  0  0  0  0  0  0  0
    3.6109   -2.1022    0.0000 C   0  0  0  0  0  0  0  0  0  0  0  0
    3.5154   -3.5992    0.0000 O   0  0  0  0  0  0  0  0  0  0  0  0
    4.9550   -1.4364    0.0000 C   0  0  0  0  0  0  0  0  0  0  0  0
    5.0504    0.0606    0.0000 C   0  0  0  0  0  0  0  0  0  0  0  0
    6.3946    0.7264    0.0000 C   0  0  0  0  0  0  0  0  0  0  0  0
    6.4900    2.2234    0.0000 C   0  0  0  0  0  0  0  0  0  0  0  0
    7.8341    2.8892    0.0000 O   0  0  0  0  0  0  0  0  0  0  0  0
    5.2413    3.0545    0.0000 C   0  0  0  0  0  0  0  0  0  0  0  0
    3.8972    2.3887    0.0000 C   0  0  0  0  0  0  0  0  0  0  0  0
    3.8017    0.8917    0.0000 C   0  0  0  0  0  0  0  0  0  0  0  0
    2.5531    1.7228    0.0000 C   0  0  0  0  0  0  0  0  0  0  0  0
    2.4576    0.2259    0.0000 C   0  0  0  0  0  0  0  0  0  0  0  0
    1.2089    1.0570    0.0000 C   0  0  0  0  0  0  0  0  0  0  0  0
   -0.1352    0.3912    0.0000 C   0  0  0  0  0  0  0  0  0  0  0  0
   -0.2306   -1.1058    0.0000 C   0  0  0  0  0  0  0  0  0  0  0  0
   -1.5594   -0.4097    0.0000 C   0  0  0  0  0  0  0  0  0  0  0  0
   -7.5564    1.0350    0.0000 C   0  0  0  0  0  0  0  0  0  0  0  0
   -7.1846   -0.4182    0.0000 O   0  0  0  0  0  0  0  0  0  0  0  0
   -9.0008    1.4396    0.0000 O   0  0  0  0  0  0  0  0  0  0  0  0
  2  1  1  6
  2  3  1  0
  3  4  1  0
  4  5  1  0
  5  6  1  0
  6  7  1  6
  6  8  1  0
  8  9  1  6
  9 10  1  0
 11 10  1  6
 11 12  1  0
 12 13  1  1
 13 14  1  1
 13 15  1  0
 16 15  1  1
 16 17  1  0
 17 18  1  0
 18 19  1  1
 18 20  1  0
 20 21  1  0
 21 22  1  0
 22 23  1  6
 22 24  1  0
 24 25  1  6
 25 26  1  0
 26 27  1  0
 27 28  1  6
  2 29  1  0
 29 30  2  0
 29 31  1  0
 27  8  1  0
 27 11  1  0
 24 12  1  0
 22 16  1  0
M  END
>  <MS_ID>  (2858) 
MS2955

>  <SMILES>  (2858) 
C[C@H](CCC[C@@H](C)[C@H]1CC[C@H]2[C@@H]3[C@H](O)C[C@@H]4C[C@H](O)CC[C@]4(C)[C@H]3CC[C@]12C)C(=O)O

>  <Structure_dimension>  (2858) 
2D

$$$$
MS2956
     RDKit          2D

 37 40  0  0  0  0  0  0  0  0999 V2000
   -0.9676   -4.6783    0.0000 C   0  0  0  0  0  0  0  0  0  0  0  0
   -0.3312   -3.3200    0.0000 C   0  0  0  0  0  0  0  0  0  0  0  0
   -1.1894   -2.0897    0.0000 C   0  0  0  0  0  0  0  0  0  0  0  0
   -2.6840   -2.2179    0.0000 C   0  0  0  0  0  0  0  0  0  0  0  0
   -3.5422   -0.9876    0.0000 C   0  0  0  0  0  0  0  0  0  0  0  0
   -2.9059    0.3707    0.0000 O   0  0  0  0  0  0  0  0  0  0  0  0
   -5.0367   -1.1157    0.0000 N   0  0  0  0  0  0  0  0  0  0  0  0
   -5.8949    0.1145    0.0000 C   0  0  0  0  0  0  0  0  0  0  0  0
   -7.3894   -0.0136    0.0000 C   0  0  0  0  0  0  0  0  0  0  0  0
   -8.2476    1.2167    0.0000 C   0  0  0  0  0  0  0  0  0  0  0  0
   -9.7421    1.0885    0.0000 C   0  0  0  0  0  0  0  0  0  0  0  0
  -10.6003    2.3188    0.0000 C   0  0  0  0  0  0  0  0  0  0  0  0
  -12.0949    2.1907    0.0000 N   0  0  0  0  0  0  0  0  0  0  0  0
   -5.2586    1.4729    0.0000 C   0  0  0  0  0  0  0  0  0  0  0  0
   -3.7641    1.6010    0.0000 O   0  0  0  0  0  0  0  0  0  0  0  0
   -6.1168    2.7031    0.0000 O   0  0  0  0  0  0  0  0  0  0  0  0
    1.1633   -3.1919    0.0000 C   0  0  0  0  0  0  0  0  0  0  0  0
    2.1454   -4.3257    0.0000 C   0  0  0  0  0  0  0  0  0  0  0  0
    3.5272   -3.7420    0.0000 C   0  0  0  0  0  0  0  0  0  0  0  0
    3.3990   -2.2475    0.0000 C   0  0  0  0  0  0  0  0  0  0  0  0
    4.4240   -1.1523    0.0000 C   0  0  0  0  0  0  0  0  0  0  0  0
    5.8849   -1.4922    0.0000 C   0  0  0  0  0  0  0  0  0  0  0  0
    6.9099   -0.3970    0.0000 C   0  0  0  0  0  0  0  0  0  0  0  0
    6.4738    1.0382    0.0000 C   0  0  0  0  0  0  0  0  0  0  0  0
    7.4987    2.1334    0.0000 C   0  0  0  0  0  0  0  0  0  0  0  0
    7.0627    3.5687    0.0000 C   0  0  0  0  0  0  0  0  0  0  0  0
    8.0876    4.6639    0.0000 O   0  0  0  0  0  0  0  0  0  0  0  0
    5.6018    3.9087    0.0000 C   0  0  0  0  0  0  0  0  0  0  0  0
    4.5768    2.8134    0.0000 C   0  0  0  0  0  0  0  0  0  0  0  0
    5.0129    1.3782    0.0000 C   0  0  0  0  0  0  0  0  0  0  0  0
    3.5519    1.7182    0.0000 C   0  0  0  0  0  0  0  0  0  0  0  0
    3.9879    0.2830    0.0000 C   0  0  0  0  0  0  0  0  0  0  0  0
    2.5270    0.6230    0.0000 C   0  0  0  0  0  0  0  0  0  0  0  0
    1.5021   -0.4723    0.0000 C   0  0  0  0  0  0  0  0  0  0  0  0
    0.0411   -0.1323    0.0000 O   0  0  0  0  0  0  0  0  0  0  0  0
    1.9381   -1.9075    0.0000 C   0  0  0  0  0  0  0  0  0  0  0  0
    0.4496   -1.7221    0.0000 C   0  0  0  0  0  0  0  0  0  0  0  0
  2  1  1  6
  2  3  1  0
  3  4  1  0
  4  5  1  0
  5  6  2  0
  5  7  1  0
  7  8  1  0
  8  9  1  1
  9 10  1  0
 10 11  1  0
 11 12  1  0
 12 13  1  0
  8 14  1  0
 14 15  2  0
 14 16  1  0
  2 17  1  0
 17 18  1  6
 18 19  1  0
 20 19  1  6
 20 21  1  0
 21 22  1  1
 22 23  1  0
 24 23  1  1
 24 25  1  0
 25 26  1  0
 26 27  1  1
 26 28  1  0
 28 29  1  0
 29 30  1  0
 30 31  1  6
 30 32  1  0
 32 33  1  6
 33 34  1  0
 34 35  1  1
 34 36  1  0
 36 37  1  6
 36 17  1  0
 36 20  1  0
 32 21  1  0
 30 24  1  0
M  END
>  <MS_ID>  (2859) 
MS2956

>  <SMILES>  (2859) 
C[C@H](CCC(=O)N[C@@H](CCCCN)C(=O)O)[C@H]1CC[C@H]2[C@@H]3CC[C@@H]4C[C@H](O)CC[C@]4(C)[C@H]3C[C@H](O)[C@]12C

>  <Structure_dimension>  (2859) 
2D

$$$$
MS2958
     RDKit          2D

 23 26  0  0  0  0  0  0  0  0999 V2000
   -6.2880    0.1477    0.0000 C   0  0  0  0  0  0  0  0  0  0  0  0
   -4.8818    0.6700    0.0000 C   0  0  0  0  0  0  0  0  0  0  0  0
   -4.6310    2.1488    0.0000 O   0  0  0  0  0  0  0  0  0  0  0  0
   -3.7265   -0.2867    0.0000 C   0  0  0  0  0  0  0  0  0  0  0  0
   -3.8214   -1.7837    0.0000 C   0  0  0  0  0  0  0  0  0  0  0  0
   -2.4270   -2.3365    0.0000 C   0  0  0  0  0  0  0  0  0  0  0  0
   -1.4703   -1.1812    0.0000 C   0  0  0  0  0  0  0  0  0  0  0  0
    0.0284   -1.1191    0.0000 C   0  0  0  0  0  0  0  0  0  0  0  0
    0.8316   -2.3860    0.0000 C   0  0  0  0  0  0  0  0  0  0  0  0
    2.3303   -2.3238    0.0000 C   0  0  0  0  0  0  0  0  0  0  0  0
    3.0258   -0.9949    0.0000 C   0  0  0  0  0  0  0  0  0  0  0  0
    4.5246   -0.9327    0.0000 C   0  0  0  0  0  0  0  0  0  0  0  0
    5.2201    0.3962    0.0000 C   0  0  0  0  0  0  0  0  0  0  0  0
    6.7188    0.4584    0.0000 O   0  0  0  0  0  0  0  0  0  0  0  0
    4.4170    1.6631    0.0000 C   0  0  0  0  0  0  0  0  0  0  0  0
    2.9183    1.6010    0.0000 C   0  0  0  0  0  0  0  0  0  0  0  0
    2.2227    0.2720    0.0000 C   0  0  0  0  0  0  0  0  0  0  0  0
    1.4195    1.5389    0.0000 C   0  0  0  0  0  0  0  0  0  0  0  0
    0.7240    0.2099    0.0000 C   0  0  0  0  0  0  0  0  0  0  0  0
   -0.0792    1.4768    0.0000 C   0  0  0  0  0  0  0  0  0  0  0  0
   -1.5779    1.4146    0.0000 C   0  0  0  0  0  0  0  0  0  0  0  0
   -2.2734    0.0856    0.0000 C   0  0  0  0  0  0  0  0  0  0  0  0
   -3.2046    1.2616    0.0000 C   0  0  0  0  0  0  0  0  0  0  0  0
  2  1  1  6
  2  3  1  0
  2  4  1  0
  4  5  1  6
  5  6  1  0
  7  6  1  6
  7  8  1  0
  8  9  1  1
  9 10  1  0
 11 10  1  1
 11 12  1  0
 12 13  1  0
 13 14  2  0
 13 15  1  0
 15 16  1  0
 16 17  1  0
 17 18  1  6
 17 19  1  0
 19 20  1  6
 20 21  1  0
 21 22  1  0
 22 23  1  6
 22  4  1  0
 22  7  1  0
 19  8  1  0
 17 11  1  0
M  END
>  <MS_ID>  (2860) 
MS2958

>  <SMILES>  (2860) 
C[C@H](O)[C@H]1CC[C@H]2[C@@H]3CC[C@@H]4CC(=O)CC[C@]4(C)[C@H]3CC[C@]12C

>  <Structure_dimension>  (2860) 
2D

$$$$
MS2959
     RDKit          2D

 40 44  0  0  0  0  0  0  0  0999 V2000
    0.0721   -4.9531    0.0000 C   0  0  0  0  0  0  0  0  0  0  0  0
    0.5459   -3.5299    0.0000 C   0  0  0  0  0  0  0  0  0  0  0  0
   -0.4498   -2.4080    0.0000 C   0  0  0  0  0  0  0  0  0  0  0  0
   -1.9192   -2.7093    0.0000 C   0  0  0  0  0  0  0  0  0  0  0  0
   -2.9148   -1.5873    0.0000 C   0  0  0  0  0  0  0  0  0  0  0  0
   -2.4410   -0.1641    0.0000 O   0  0  0  0  0  0  0  0  0  0  0  0
   -4.3843   -1.8886    0.0000 N   0  0  0  0  0  0  0  0  0  0  0  0
   -5.3799   -0.7667    0.0000 C   0  0  0  0  0  0  0  0  0  0  0  0
   -6.8493   -1.0680    0.0000 C   0  0  0  0  0  0  0  0  0  0  0  0
   -7.8450    0.0539    0.0000 C   0  0  0  0  0  0  0  0  0  0  0  0
   -7.3712    1.4771    0.0000 C   0  0  0  0  0  0  0  0  0  0  0  0
   -8.3668    2.5991    0.0000 C   0  0  0  0  0  0  0  0  0  0  0  0
   -9.8362    2.2978    0.0000 C   0  0  0  0  0  0  0  0  0  0  0  0
  -10.8319    3.4197    0.0000 O   0  0  0  0  0  0  0  0  0  0  0  0
  -10.3100    0.8746    0.0000 C   0  0  0  0  0  0  0  0  0  0  0  0
   -9.3144   -0.2474    0.0000 C   0  0  0  0  0  0  0  0  0  0  0  0
   -4.9061    0.6565    0.0000 C   0  0  0  0  0  0  0  0  0  0  0  0
   -3.4367    0.9578    0.0000 O   0  0  0  0  0  0  0  0  0  0  0  0
   -5.9017    1.7784    0.0000 O   0  0  0  0  0  0  0  0  0  0  0  0
    2.0153   -3.2286    0.0000 C   0  0  0  0  0  0  0  0  0  0  0  0
    3.1227   -4.2403    0.0000 C   0  0  0  0  0  0  0  0  0  0  0  0
    4.4272   -3.4997    0.0000 C   0  0  0  0  0  0  0  0  0  0  0  0
    4.1259   -2.0303    0.0000 C   0  0  0  0  0  0  0  0  0  0  0  0
    5.0163   -0.8231    0.0000 C   0  0  0  0  0  0  0  0  0  0  0  0
    6.5069   -0.9907    0.0000 C   0  0  0  0  0  0  0  0  0  0  0  0
    7.1071   -2.3654    0.0000 O   0  0  0  0  0  0  0  0  0  0  0  0
    7.3973    0.2165    0.0000 C   0  0  0  0  0  0  0  0  0  0  0  0
    6.7971    1.5911    0.0000 C   0  0  0  0  0  0  0  0  0  0  0  0
    7.6875    2.7983    0.0000 C   0  0  0  0  0  0  0  0  0  0  0  0
    7.0873    4.1730    0.0000 C   0  0  0  0  0  0  0  0  0  0  0  0
    7.9777    5.3801    0.0000 O   0  0  0  0  0  0  0  0  0  0  0  0
    5.5967    4.3405    0.0000 C   0  0  0  0  0  0  0  0  0  0  0  0
    4.7063    3.1334    0.0000 C   0  0  0  0  0  0  0  0  0  0  0  0
    5.3065    1.7587    0.0000 C   0  0  0  0  0  0  0  0  0  0  0  0
    3.8159    1.9262    0.0000 C   0  0  0  0  0  0  0  0  0  0  0  0
    4.4161    0.5515    0.0000 C   0  0  0  0  0  0  0  0  0  0  0  0
    2.9254    0.7191    0.0000 C   0  0  0  0  0  0  0  0  0  0  0  0
    2.0350   -0.4881    0.0000 C   0  0  0  0  0  0  0  0  0  0  0  0
    2.6353   -1.8627    0.0000 C   0  0  0  0  0  0  0  0  0  0  0  0
    1.1353   -1.8519    0.0000 C   0  0  0  0  0  0  0  0  0  0  0  0
  2  1  1  6
  2  3  1  0
  3  4  1  0
  4  5  1  0
  5  6  2  0
  5  7  1  0
  7  8  1  0
  8  9  1  1
  9 10  1  0
 10 11  2  0
 11 12  1  0
 12 13  2  0
 13 14  1  0
 13 15  1  0
 15 16  2  0
  8 17  1  0
 17 18  2  0
 17 19  1  0
  2 20  1  0
 20 21  1  6
 21 22  1  0
 23 22  1  6
 23 24  1  0
 24 25  1  1
 25 26  1  1
 25 27  1  0
 28 27  1  1
 28 29  1  0
 29 30  1  0
 30 31  1  1
 30 32  1  0
 32 33  1  0
 33 34  1  0
 34 35  1  6
 34 36  1  0
 36 37  1  6
 37 38  1  0
 38 39  1  0
 39 40  1  6
 16 10  1  0
 39 20  1  0
 39 23  1  0
 36 24  1  0
 34 28  1  0
M  END
>  <MS_ID>  (2861) 
MS2959

>  <SMILES>  (2861) 
C[C@H](CCC(=O)N[C@@H](Cc1ccc(O)cc1)C(=O)O)[C@H]1CC[C@H]2[C@@H]3[C@H](O)C[C@@H]4C[C@H](O)CC[C@]4(C)[C@H]3CC[C@]12C

>  <Structure_dimension>  (2861) 
2D

$$$$
MS2960
     RDKit          2D

 37 40  0  0  0  0  0  0  0  0999 V2000
   -1.1673   -4.5754    0.0000 C   0  0  0  0  0  0  0  0  0  0  0  0
   -0.4860   -3.2391    0.0000 C   0  0  0  0  0  0  0  0  0  0  0  0
   -1.3027   -1.9809    0.0000 C   0  0  0  0  0  0  0  0  0  0  0  0
   -2.8006   -2.0590    0.0000 C   0  0  0  0  0  0  0  0  0  0  0  0
   -3.6173   -0.8008    0.0000 C   0  0  0  0  0  0  0  0  0  0  0  0
   -2.9360    0.5355    0.0000 O   0  0  0  0  0  0  0  0  0  0  0  0
   -5.1153   -0.8790    0.0000 N   0  0  0  0  0  0  0  0  0  0  0  0
   -5.9319    0.3792    0.0000 C   0  0  0  0  0  0  0  0  0  0  0  0
   -7.4299    0.3010    0.0000 C   0  0  0  0  0  0  0  0  0  0  0  0
   -8.2466    1.5592    0.0000 C   0  0  0  0  0  0  0  0  0  0  0  0
   -9.7445    1.4811    0.0000 C   0  0  0  0  0  0  0  0  0  0  0  0
  -10.5612    2.7393    0.0000 N   0  0  0  0  0  0  0  0  0  0  0  0
  -10.4258    0.1447    0.0000 O   0  0  0  0  0  0  0  0  0  0  0  0
   -5.2506    1.7156    0.0000 C   0  0  0  0  0  0  0  0  0  0  0  0
   -3.7527    1.7937    0.0000 O   0  0  0  0  0  0  0  0  0  0  0  0
   -6.0673    2.9737    0.0000 O   0  0  0  0  0  0  0  0  0  0  0  0
    1.0120   -3.1609    0.0000 C   0  0  0  0  0  0  0  0  0  0  0  0
    1.9557   -4.3269    0.0000 C   0  0  0  0  0  0  0  0  0  0  0  0
    3.3562   -3.7896    0.0000 C   0  0  0  0  0  0  0  0  0  0  0  0
    3.2780   -2.2917    0.0000 C   0  0  0  0  0  0  0  0  0  0  0  0
    4.3389   -1.2312    0.0000 C   0  0  0  0  0  0  0  0  0  0  0  0
    5.7877   -1.6198    0.0000 C   0  0  0  0  0  0  0  0  0  0  0  0
    6.8486   -0.5594    0.0000 C   0  0  0  0  0  0  0  0  0  0  0  0
    6.4607    0.8896    0.0000 C   0  0  0  0  0  0  0  0  0  0  0  0
    7.5216    1.9500    0.0000 C   0  0  0  0  0  0  0  0  0  0  0  0
    7.1337    3.3990    0.0000 C   0  0  0  0  0  0  0  0  0  0  0  0
    8.1946    4.4594    0.0000 O   0  0  0  0  0  0  0  0  0  0  0  0
    5.6849    3.7875    0.0000 C   0  0  0  0  0  0  0  0  0  0  0  0
    4.6240    2.7271    0.0000 C   0  0  0  0  0  0  0  0  0  0  0  0
    5.0119    1.2781    0.0000 C   0  0  0  0  0  0  0  0  0  0  0  0
    3.5631    1.6667    0.0000 C   0  0  0  0  0  0  0  0  0  0  0  0
    3.9510    0.2177    0.0000 C   0  0  0  0  0  0  0  0  0  0  0  0
    2.5022    0.6063    0.0000 C   0  0  0  0  0  0  0  0  0  0  0  0
    1.4413   -0.4541    0.0000 C   0  0  0  0  0  0  0  0  0  0  0  0
   -0.0075   -0.0656    0.0000 O   0  0  0  0  0  0  0  0  0  0  0  0
    1.8292   -1.9031    0.0000 C   0  0  0  0  0  0  0  0  0  0  0  0
    0.3477   -1.6681    0.0000 C   0  0  0  0  0  0  0  0  0  0  0  0
  2  1  1  6
  2  3  1  0
  3  4  1  0
  4  5  1  0
  5  6  2  0
  5  7  1  0
  7  8  1  0
  8  9  1  1
  9 10  1  0
 10 11  1  0
 11 12  1  0
 11 13  2  0
  8 14  1  0
 14 15  2  0
 14 16  1  0
  2 17  1  0
 17 18  1  6
 18 19  1  0
 20 19  1  6
 20 21  1  0
 21 22  1  1
 22 23  1  0
 24 23  1  1
 24 25  1  0
 25 26  1  0
 26 27  1  1
 26 28  1  0
 28 29  1  0
 29 30  1  0
 30 31  1  6
 30 32  1  0
 32 33  1  6
 33 34  1  0
 34 35  1  1
 34 36  1  0
 36 37  1  6
 36 17  1  0
 36 20  1  0
 32 21  1  0
 30 24  1  0
M  END
>  <MS_ID>  (2862) 
MS2960

>  <SMILES>  (2862) 
C[C@H](CCC(=O)N[C@@H](CCC(N)=O)C(=O)O)[C@H]1CC[C@H]2[C@@H]3CC[C@@H]4C[C@H](O)CC[C@]4(C)[C@H]3C[C@H](O)[C@]12C

>  <Structure_dimension>  (2862) 
2D

$$$$
MS2961
     RDKit          2D

 37 40  0  0  0  0  0  0  0  0999 V2000
   -1.6432   -4.5127    0.0000 C   0  0  0  0  0  0  0  0  0  0  0  0
   -0.9779   -3.1684    0.0000 C   0  0  0  0  0  0  0  0  0  0  0  0
   -1.8095   -1.9200    0.0000 C   0  0  0  0  0  0  0  0  0  0  0  0
   -3.3064   -2.0160    0.0000 C   0  0  0  0  0  0  0  0  0  0  0  0
   -4.1381   -0.7677    0.0000 C   0  0  0  0  0  0  0  0  0  0  0  0
   -3.4728    0.5767    0.0000 O   0  0  0  0  0  0  0  0  0  0  0  0
   -5.6350   -0.8637    0.0000 N   0  0  0  0  0  0  0  0  0  0  0  0
   -6.4666    0.3846    0.0000 C   0  0  0  0  0  0  0  0  0  0  0  0
   -7.9636    0.2886    0.0000 C   0  0  0  0  0  0  0  0  0  0  0  0
   -8.7952    1.5369    0.0000 C   0  0  0  0  0  0  0  0  0  0  0  0
  -10.2921    1.4409    0.0000 N   0  0  0  0  0  0  0  0  0  0  0  0
   -8.1299    2.8813    0.0000 O   0  0  0  0  0  0  0  0  0  0  0  0
   -5.8014    1.7290    0.0000 C   0  0  0  0  0  0  0  0  0  0  0  0
   -4.3044    1.8250    0.0000 O   0  0  0  0  0  0  0  0  0  0  0  0
   -6.6330    2.9774    0.0000 O   0  0  0  0  0  0  0  0  0  0  0  0
    0.5190   -3.0723    0.0000 C   0  0  0  0  0  0  0  0  0  0  0  0
    1.4766   -4.2269    0.0000 C   0  0  0  0  0  0  0  0  0  0  0  0
    2.8706   -3.6730    0.0000 C   0  0  0  0  0  0  0  0  0  0  0  0
    2.7745   -2.1760    0.0000 C   0  0  0  0  0  0  0  0  0  0  0  0
    3.8227   -1.1030    0.0000 C   0  0  0  0  0  0  0  0  0  0  0  0
    5.2760   -1.4743    0.0000 C   0  0  0  0  0  0  0  0  0  0  0  0
    5.6812   -2.9185    0.0000 O   0  0  0  0  0  0  0  0  0  0  0  0
    6.3242   -0.4013    0.0000 C   0  0  0  0  0  0  0  0  0  0  0  0
    5.9190    1.0430    0.0000 C   0  0  0  0  0  0  0  0  0  0  0  0
    6.9672    2.1160    0.0000 C   0  0  0  0  0  0  0  0  0  0  0  0
    6.5620    3.5602    0.0000 C   0  0  0  0  0  0  0  0  0  0  0  0
    7.6102    4.6333    0.0000 O   0  0  0  0  0  0  0  0  0  0  0  0
    5.1087    3.9315    0.0000 C   0  0  0  0  0  0  0  0  0  0  0  0
    4.0605    2.8585    0.0000 C   0  0  0  0  0  0  0  0  0  0  0  0
    4.4657    1.4142    0.0000 C   0  0  0  0  0  0  0  0  0  0  0  0
    3.0124    1.7855    0.0000 C   0  0  0  0  0  0  0  0  0  0  0  0
    3.4175    0.3412    0.0000 C   0  0  0  0  0  0  0  0  0  0  0  0
    1.9642    0.7124    0.0000 C   0  0  0  0  0  0  0  0  0  0  0  0
    0.9160   -0.3606    0.0000 C   0  0  0  0  0  0  0  0  0  0  0  0
   -0.5373    0.0107    0.0000 O   0  0  0  0  0  0  0  0  0  0  0  0
    1.3212   -1.8048    0.0000 C   0  0  0  0  0  0  0  0  0  0  0  0
   -0.1630   -1.5875    0.0000 C   0  0  0  0  0  0  0  0  0  0  0  0
  2  1  1  6
  2  3  1  0
  3  4  1  0
  4  5  1  0
  5  6  2  0
  5  7  1  0
  7  8  1  0
  8  9  1  1
  9 10  1  0
 10 11  1  0
 10 12  2  0
  8 13  1  0
 13 14  2  0
 13 15  1  0
  2 16  1  0
 16 17  1  6
 17 18  1  0
 19 18  1  6
 19 20  1  0
 20 21  1  1
 21 22  1  1
 21 23  1  0
 24 23  1  1
 24 25  1  0
 25 26  1  0
 26 27  1  1
 26 28  1  0
 28 29  1  0
 29 30  1  0
 30 31  1  6
 30 32  1  0
 32 33  1  6
 33 34  1  0
 34 35  1  1
 34 36  1  0
 36 37  1  6
 36 16  1  0
 36 19  1  0
 32 20  1  0
 30 24  1  0
M  END
>  <MS_ID>  (2863) 
MS2961

>  <SMILES>  (2863) 
C[C@H](CCC(=O)N[C@@H](CC(N)=O)C(=O)O)[C@H]1CC[C@H]2[C@@H]3[C@H](O)C[C@@H]4C[C@H](O)CC[C@]4(C)[C@H]3C[C@H](O)[C@]12C

>  <Structure_dimension>  (2863) 
2D

$$$$
MS2962
     RDKit          2D

 24 27  0  0  0  0  0  0  0  0999 V2000
   -6.1877   -0.1229    0.0000 C   0  0  0  0  0  0  0  0  0  0  0  0
   -4.7954    0.4353    0.0000 C   0  0  0  0  0  0  0  0  0  0  0  0
   -4.5826    1.9201    0.0000 O   0  0  0  0  0  0  0  0  0  0  0  0
   -3.6159   -0.4914    0.0000 C   0  0  0  0  0  0  0  0  0  0  0  0
   -3.6723   -1.9904    0.0000 C   0  0  0  0  0  0  0  0  0  0  0  0
   -2.2641   -2.5072    0.0000 C   0  0  0  0  0  0  0  0  0  0  0  0
   -1.3374   -1.3277    0.0000 C   0  0  0  0  0  0  0  0  0  0  0  0
    0.1592   -1.2271    0.0000 C   0  0  0  0  0  0  0  0  0  0  0  0
    0.9946   -2.4730    0.0000 C   0  0  0  0  0  0  0  0  0  0  0  0
    2.4912   -2.3724    0.0000 C   0  0  0  0  0  0  0  0  0  0  0  0
    3.1524   -1.0260    0.0000 C   0  0  0  0  0  0  0  0  0  0  0  0
    4.6491   -0.9254    0.0000 C   0  0  0  0  0  0  0  0  0  0  0  0
    5.3103    0.4210    0.0000 C   0  0  0  0  0  0  0  0  0  0  0  0
    6.8069    0.5216    0.0000 O   0  0  0  0  0  0  0  0  0  0  0  0
    4.4749    1.6668    0.0000 C   0  0  0  0  0  0  0  0  0  0  0  0
    2.9782    1.5662    0.0000 C   0  0  0  0  0  0  0  0  0  0  0  0
    2.3170    0.2198    0.0000 C   0  0  0  0  0  0  0  0  0  0  0  0
    1.4816    1.4657    0.0000 C   0  0  0  0  0  0  0  0  0  0  0  0
    0.8204    0.1193    0.0000 C   0  0  0  0  0  0  0  0  0  0  0  0
   -0.0150    1.3651    0.0000 C   0  0  0  0  0  0  0  0  0  0  0  0
   -1.5116    1.2645    0.0000 C   0  0  0  0  0  0  0  0  0  0  0  0
   -2.3471    2.5103    0.0000 O   0  0  0  0  0  0  0  0  0  0  0  0
   -2.1729   -0.0819    0.0000 C   0  0  0  0  0  0  0  0  0  0  0  0
   -3.1339    1.0698    0.0000 C   0  0  0  0  0  0  0  0  0  0  0  0
  1  2  1  0
  2  3  2  0
  4  2  1  6
  4  5  1  0
  5  6  1  0
  7  6  1  6
  7  8  1  0
  8  9  1  1
  9 10  1  0
 11 10  1  1
 11 12  1  0
 12 13  1  0
 13 14  1  1
 13 15  1  0
 15 16  1  0
 16 17  1  0
 17 18  1  6
 17 19  1  0
 19 20  1  6
 20 21  1  0
 21 22  1  1
 21 23  1  0
 23 24  1  6
 23  4  1  0
 23  7  1  0
 19  8  1  0
 17 11  1  0
M  END
>  <MS_ID>  (2864) 
MS2962

>  <SMILES>  (2864) 
CC(=O)[C@H]1CC[C@H]2[C@@H]3CC[C@@H]4C[C@H](O)CC[C@]4(C)[C@H]3C[C@H](O)[C@]12C

>  <Structure_dimension>  (2864) 
2D

$$$$
MS2963
     RDKit          2D

 24 27  0  0  0  0  0  0  0  0999 V2000
   -7.1591    0.8654    0.0000 C   0  0  0  0  0  0  0  0  0  0  0  0
   -5.9784   -0.0597    0.0000 O   0  0  0  0  0  0  0  0  0  0  0  0
   -4.5869    0.5003    0.0000 C   0  0  0  0  0  0  0  0  0  0  0  0
   -4.3760    1.9854    0.0000 O   0  0  0  0  0  0  0  0  0  0  0  0
   -3.4061   -0.4248    0.0000 C   0  0  0  0  0  0  0  0  0  0  0  0
   -3.4606   -1.9239    0.0000 C   0  0  0  0  0  0  0  0  0  0  0  0
   -2.0517   -2.4388    0.0000 C   0  0  0  0  0  0  0  0  0  0  0  0
   -1.1266   -1.2581    0.0000 C   0  0  0  0  0  0  0  0  0  0  0  0
    0.3699   -1.1555    0.0000 C   0  0  0  0  0  0  0  0  0  0  0  0
    1.2070   -2.4003    0.0000 C   0  0  0  0  0  0  0  0  0  0  0  0
    2.7034   -2.2977    0.0000 C   0  0  0  0  0  0  0  0  0  0  0  0
    3.3629   -0.9504    0.0000 C   0  0  0  0  0  0  0  0  0  0  0  0
    4.8594   -0.8479    0.0000 C   0  0  0  0  0  0  0  0  0  0  0  0
    5.5188    0.4994    0.0000 C   0  0  0  0  0  0  0  0  0  0  0  0
    7.0153    0.6020    0.0000 O   0  0  0  0  0  0  0  0  0  0  0  0
    4.6817    1.7441    0.0000 C   0  0  0  0  0  0  0  0  0  0  0  0
    3.1852    1.6416    0.0000 C   0  0  0  0  0  0  0  0  0  0  0  0
    2.5258    0.2943    0.0000 C   0  0  0  0  0  0  0  0  0  0  0  0
    1.6887    1.5390    0.0000 C   0  0  0  0  0  0  0  0  0  0  0  0
    1.0293    0.1917    0.0000 C   0  0  0  0  0  0  0  0  0  0  0  0
    0.1923    1.4364    0.0000 C   0  0  0  0  0  0  0  0  0  0  0  0
   -1.3042    1.3339    0.0000 C   0  0  0  0  0  0  0  0  0  0  0  0
   -1.9637   -0.0134    0.0000 C   0  0  0  0  0  0  0  0  0  0  0  0
   -2.9262    1.1370    0.0000 C   0  0  0  0  0  0  0  0  0  0  0  0
  1  2  1  0
  2  3  1  0
  3  4  2  0
  5  3  1  6
  5  6  1  0
  6  7  1  0
  8  7  1  6
  8  9  1  0
  9 10  1  1
 10 11  1  0
 12 11  1  6
 12 13  1  0
 13 14  1  0
 14 15  1  1
 14 16  1  0
 16 17  1  0
 17 18  1  0
 18 19  1  6
 18 20  1  0
 20 21  1  6
 21 22  1  0
 22 23  1  0
 23 24  1  6
 23  5  1  0
 23  8  1  0
 20  9  1  0
 18 12  1  0
M  END
>  <MS_ID>  (2865) 
MS2963

>  <SMILES>  (2865) 
COC(=O)[C@H]1CC[C@H]2[C@@H]3CC[C@H]4C[C@H](O)CC[C@]4(C)[C@H]3CC[C@]12C

>  <Structure_dimension>  (2865) 
2D

$$$$
MS2964
     RDKit          2D

 29 32  0  0  0  0  0  0  0  0999 V2000
   -7.0722    3.5266    0.0000 C   0  0  0  0  0  0  0  0  0  0  0  0
   -6.7358    2.0648    0.0000 C   0  0  0  0  0  0  0  0  0  0  0  0
   -7.8335    1.0426    0.0000 C   0  0  0  0  0  0  0  0  0  0  0  0
   -5.3016    1.6253    0.0000 C   0  0  0  0  0  0  0  0  0  0  0  0
   -4.2039    2.6475    0.0000 O   0  0  0  0  0  0  0  0  0  0  0  0
   -4.9652    0.1635    0.0000 C   0  0  0  0  0  0  0  0  0  0  0  0
   -3.5310   -0.2760    0.0000 C   0  0  0  0  0  0  0  0  0  0  0  0
   -3.1946   -1.7378    0.0000 C   0  0  0  0  0  0  0  0  0  0  0  0
   -4.2923   -2.7601    0.0000 C   0  0  0  0  0  0  0  0  0  0  0  0
   -1.7604   -2.1774    0.0000 C   0  0  0  0  0  0  0  0  0  0  0  0
   -1.2731   -3.5960    0.0000 C   0  0  0  0  0  0  0  0  0  0  0  0
    0.2267   -3.5708    0.0000 C   0  0  0  0  0  0  0  0  0  0  0  0
    0.6663   -2.1367    0.0000 C   0  0  0  0  0  0  0  0  0  0  0  0
    2.0262   -1.5037    0.0000 C   0  0  0  0  0  0  0  0  0  0  0  0
    3.2543   -2.3649    0.0000 C   0  0  0  0  0  0  0  0  0  0  0  0
    4.6142   -1.7319    0.0000 C   0  0  0  0  0  0  0  0  0  0  0  0
    4.7460   -0.2377    0.0000 C   0  0  0  0  0  0  0  0  0  0  0  0
    6.1059    0.3953    0.0000 C   0  0  0  0  0  0  0  0  0  0  0  0
    6.2376    1.8895    0.0000 C   0  0  0  0  0  0  0  0  0  0  0  0
    7.5975    2.5225    0.0000 O   0  0  0  0  0  0  0  0  0  0  0  0
    5.0095    2.7507    0.0000 C   0  0  0  0  0  0  0  0  0  0  0  0
    3.6496    2.1177    0.0000 C   0  0  0  0  0  0  0  0  0  0  0  0
    3.5178    0.6235    0.0000 C   0  0  0  0  0  0  0  0  0  0  0  0
    2.2897    1.4847    0.0000 C   0  0  0  0  0  0  0  0  0  0  0  0
    2.1579   -0.0095    0.0000 C   0  0  0  0  0  0  0  0  0  0  0  0
    0.9298    0.8517    0.0000 C   0  0  0  0  0  0  0  0  0  0  0  0
   -0.4301    0.2187    0.0000 C   0  0  0  0  0  0  0  0  0  0  0  0
   -0.5619   -1.2755    0.0000 C   0  0  0  0  0  0  0  0  0  0  0  0
   -1.8733   -0.5473    0.0000 C   0  0  0  0  0  0  0  0  0  0  0  0
  1  2  1  0
  2  3  1  0
  2  4  1  0
  4  5  1  6
  4  6  1  0
  6  7  1  0
  7  8  1  0
  8  9  1  6
  8 10  1  0
 10 11  1  6
 11 12  1  0
 13 12  1  6
 13 14  1  0
 14 15  1  1
 15 16  1  0
 17 16  1  6
 17 18  1  0
 18 19  1  0
 19 20  1  1
 19 21  1  0
 21 22  1  0
 22 23  1  0
 23 24  1  6
 23 25  1  0
 25 26  1  6
 26 27  1  0
 27 28  1  0
 28 29  1  6
 28 10  1  0
 28 13  1  0
 25 14  1  0
 23 17  1  0
M  END
>  <MS_ID>  (2866) 
MS2964

>  <SMILES>  (2866) 
CC(C)[C@H](O)CC[C@@H](C)[C@H]1CC[C@H]2[C@@H]3CC[C@H]4C[C@H](O)CC[C@]4(C)[C@H]3CC[C@]12C

>  <Structure_dimension>  (2866) 
2D

$$$$
MS2965
     RDKit          2D

 25 28  0  0  0  0  0  0  0  0999 V2000
    1.6660   -1.4144    0.0000 C   0  0  0  0  0  0  0  0  0  0  0  0
    2.4931   -0.1630    0.0000 C   0  0  0  0  0  0  0  0  0  0  0  0
    3.1633   -1.5050    0.0000 C   0  0  0  0  0  0  0  0  0  0  0  0
    4.6605   -1.5956    0.0000 C   0  0  0  0  0  0  0  0  0  0  0  0
    5.4876   -0.3443    0.0000 C   0  0  0  0  0  0  0  0  0  0  0  0
    6.9849   -0.4349    0.0000 O   0  0  0  0  0  0  0  0  0  0  0  0
    4.8175    0.9977    0.0000 C   0  0  0  0  0  0  0  0  0  0  0  0
    3.3202    1.0883    0.0000 C   0  0  0  0  0  0  0  0  0  0  0  0
    2.6501    2.4303    0.0000 C   0  0  0  0  0  0  0  0  0  0  0  0
    1.1528    2.5209    0.0000 C   0  0  0  0  0  0  0  0  0  0  0  0
    0.3257    1.2695    0.0000 C   0  0  0  0  0  0  0  0  0  0  0  0
    0.9959   -0.0724    0.0000 C   0  0  0  0  0  0  0  0  0  0  0  0
    0.1688   -1.3238    0.0000 C   0  0  0  0  0  0  0  0  0  0  0  0
    0.8389   -2.6658    0.0000 O   0  0  0  0  0  0  0  0  0  0  0  0
   -1.3285   -1.2332    0.0000 C   0  0  0  0  0  0  0  0  0  0  0  0
   -1.9987    0.1088    0.0000 C   0  0  0  0  0  0  0  0  0  0  0  0
   -2.9520   -1.0493    0.0000 C   0  0  0  0  0  0  0  0  0  0  0  0
   -3.4444    0.5087    0.0000 C   0  0  0  0  0  0  0  0  0  0  0  0
   -4.6177   -0.4258    0.0000 C   0  0  0  0  0  0  0  0  0  0  0  0
   -4.3950   -1.9092    0.0000 O   0  0  0  0  0  0  0  0  0  0  0  0
   -6.0137    0.1231    0.0000 C   0  0  0  0  0  0  0  0  0  0  0  0
   -7.1870   -0.8115    0.0000 O   0  0  0  0  0  0  0  0  0  0  0  0
   -3.5108    2.0073    0.0000 C   0  0  0  0  0  0  0  0  0  0  0  0
   -2.1061    2.5335    0.0000 C   0  0  0  0  0  0  0  0  0  0  0  0
   -1.1716    1.3601    0.0000 C   0  0  0  0  0  0  0  0  0  0  0  0
  2  1  1  1
  2  3  1  0
  3  4  1  0
  4  5  1  0
  5  6  1  6
  5  7  1  0
  8  7  1  6
  8  9  1  0
  9 10  1  0
 11 10  1  6
 11 12  1  0
 12 13  1  1
 13 14  1  1
 13 15  1  0
 15 16  1  0
 16 17  1  1
 16 18  1  0
 18 19  1  6
 19 20  2  0
 19 21  1  0
 21 22  1  0
 18 23  1  0
 23 24  1  0
 25 24  1  1
  8  2  1  0
 25 11  1  0
 12  2  1  0
 25 16  1  0
M  END
>  <MS_ID>  (2867) 
MS2965

>  <SMILES>  (2867) 
C[C@]12CC[C@@H](O)C[C@H]1CC[C@@H]1[C@@H]2[C@@H](O)C[C@]2(C)[C@H](C(=O)CO)CC[C@@H]12

>  <Structure_dimension>  (2867) 
2D

$$$$
MS2966
     RDKit          2D

 29 32  0  0  0  0  0  0  0  0999 V2000
   -7.3181    3.7641    0.0000 C   0  0  0  0  0  0  0  0  0  0  0  0
   -6.9843    2.3017    0.0000 C   0  0  0  0  0  0  0  0  0  0  0  0
   -8.0838    1.2815    0.0000 C   0  0  0  0  0  0  0  0  0  0  0  0
   -5.5509    1.8596    0.0000 C   0  0  0  0  0  0  0  0  0  0  0  0
   -5.2171    0.3972    0.0000 C   0  0  0  0  0  0  0  0  0  0  0  0
   -3.7837   -0.0449    0.0000 C   0  0  0  0  0  0  0  0  0  0  0  0
   -3.4499   -1.5073    0.0000 C   0  0  0  0  0  0  0  0  0  0  0  0
   -4.5495   -2.5275    0.0000 C   0  0  0  0  0  0  0  0  0  0  0  0
   -2.0166   -1.9494    0.0000 C   0  0  0  0  0  0  0  0  0  0  0  0
   -1.5317   -3.3689    0.0000 C   0  0  0  0  0  0  0  0  0  0  0  0
   -0.0319   -3.3464    0.0000 C   0  0  0  0  0  0  0  0  0  0  0  0
    0.4102   -1.9130    0.0000 C   0  0  0  0  0  0  0  0  0  0  0  0
    1.7712   -1.2825    0.0000 C   0  0  0  0  0  0  0  0  0  0  0  0
    2.9978   -2.1459    0.0000 C   0  0  0  0  0  0  0  0  0  0  0  0
    2.8634   -3.6398    0.0000 O   0  0  0  0  0  0  0  0  0  0  0  0
    4.3589   -1.5153    0.0000 C   0  0  0  0  0  0  0  0  0  0  0  0
    4.4933   -0.0214    0.0000 C   0  0  0  0  0  0  0  0  0  0  0  0
    5.8543    0.6092    0.0000 C   0  0  0  0  0  0  0  0  0  0  0  0
    5.9888    2.1032    0.0000 C   0  0  0  0  0  0  0  0  0  0  0  0
    7.3498    2.7337    0.0000 O   0  0  0  0  0  0  0  0  0  0  0  0
    4.7622    2.9666    0.0000 C   0  0  0  0  0  0  0  0  0  0  0  0
    3.4011    2.3360    0.0000 C   0  0  0  0  0  0  0  0  0  0  0  0
    3.2667    0.8420    0.0000 C   0  0  0  0  0  0  0  0  0  0  0  0
    2.0401    1.7055    0.0000 C   0  0  0  0  0  0  0  0  0  0  0  0
    1.9057    0.2115    0.0000 C   0  0  0  0  0  0  0  0  0  0  0  0
    0.6791    1.0749    0.0000 C   0  0  0  0  0  0  0  0  0  0  0  0
   -0.6820    0.4443    0.0000 C   0  0  0  0  0  0  0  0  0  0  0  0
   -0.8164   -1.0496    0.0000 C   0  0  0  0  0  0  0  0  0  0  0  0
   -2.1265   -0.3192    0.0000 C   0  0  0  0  0  0  0  0  0  0  0  0
  1  2  1  0
  2  3  1  0
  2  4  1  0
  4  5  1  0
  5  6  1  0
  6  7  1  0
  7  8  1  6
  7  9  1  0
  9 10  1  6
 10 11  1  0
 12 11  1  6
 12 13  1  0
 13 14  1  1
 14 15  1  1
 14 16  1  0
 17 16  1  6
 17 18  1  0
 18 19  1  0
 19 20  1  6
 19 21  1  0
 21 22  1  0
 22 23  1  0
 23 24  1  6
 23 25  1  0
 25 26  1  6
 26 27  1  0
 27 28  1  0
 28 29  1  6
 28  9  1  0
 28 12  1  0
 25 13  1  0
 23 17  1  0
M  END
>  <MS_ID>  (2868) 
MS2966

>  <SMILES>  (2868) 
CC(C)CCC[C@@H](C)[C@H]1CC[C@H]2[C@@H]3[C@H](O)C[C@H]4C[C@@H](O)CC[C@]4(C)[C@H]3CC[C@]12C

>  <Structure_dimension>  (2868) 
2D

$$$$
MS2967
     RDKit          2D

 24 27  0  0  0  0  0  0  0  0999 V2000
   -7.1591    0.8654    0.0000 C   0  0  0  0  0  0  0  0  0  0  0  0
   -5.9784   -0.0597    0.0000 O   0  0  0  0  0  0  0  0  0  0  0  0
   -4.5869    0.5003    0.0000 C   0  0  0  0  0  0  0  0  0  0  0  0
   -4.3760    1.9854    0.0000 O   0  0  0  0  0  0  0  0  0  0  0  0
   -3.4061   -0.4248    0.0000 C   0  0  0  0  0  0  0  0  0  0  0  0
   -3.4606   -1.9239    0.0000 C   0  0  0  0  0  0  0  0  0  0  0  0
   -2.0517   -2.4388    0.0000 C   0  0  0  0  0  0  0  0  0  0  0  0
   -1.1266   -1.2581    0.0000 C   0  0  0  0  0  0  0  0  0  0  0  0
    0.3699   -1.1555    0.0000 C   0  0  0  0  0  0  0  0  0  0  0  0
    1.2070   -2.4003    0.0000 C   0  0  0  0  0  0  0  0  0  0  0  0
    2.7034   -2.2977    0.0000 C   0  0  0  0  0  0  0  0  0  0  0  0
    3.3629   -0.9504    0.0000 C   0  0  0  0  0  0  0  0  0  0  0  0
    4.8594   -0.8479    0.0000 C   0  0  0  0  0  0  0  0  0  0  0  0
    5.5188    0.4994    0.0000 C   0  0  0  0  0  0  0  0  0  0  0  0
    7.0153    0.6020    0.0000 O   0  0  0  0  0  0  0  0  0  0  0  0
    4.6817    1.7441    0.0000 C   0  0  0  0  0  0  0  0  0  0  0  0
    3.1852    1.6416    0.0000 C   0  0  0  0  0  0  0  0  0  0  0  0
    2.5258    0.2943    0.0000 C   0  0  0  0  0  0  0  0  0  0  0  0
    1.6887    1.5390    0.0000 C   0  0  0  0  0  0  0  0  0  0  0  0
    1.0293    0.1917    0.0000 C   0  0  0  0  0  0  0  0  0  0  0  0
    0.1923    1.4364    0.0000 C   0  0  0  0  0  0  0  0  0  0  0  0
   -1.3042    1.3339    0.0000 C   0  0  0  0  0  0  0  0  0  0  0  0
   -1.9637   -0.0134    0.0000 C   0  0  0  0  0  0  0  0  0  0  0  0
   -2.9262    1.1370    0.0000 C   0  0  0  0  0  0  0  0  0  0  0  0
  1  2  1  0
  2  3  1  0
  3  4  2  0
  5  3  1  6
  5  6  1  0
  6  7  1  0
  8  7  1  6
  8  9  1  0
  9 10  1  1
 10 11  1  0
 12 11  1  1
 12 13  1  0
 13 14  1  0
 14 15  1  1
 14 16  1  0
 16 17  1  0
 17 18  1  0
 18 19  1  6
 18 20  1  0
 20 21  1  6
 21 22  1  0
 22 23  1  0
 23 24  1  6
 23  5  1  0
 23  8  1  0
 20  9  1  0
 18 12  1  0
M  END
>  <MS_ID>  (2869) 
MS2967

>  <SMILES>  (2869) 
COC(=O)[C@H]1CC[C@H]2[C@@H]3CC[C@@H]4C[C@H](O)CC[C@]4(C)[C@H]3CC[C@]12C

>  <Structure_dimension>  (2869) 
2D

$$$$
MS2968
     RDKit          2D

 30 33  0  0  0  0  0  0  0  0999 V2000
   -4.6381    4.1116    0.0000 C   0  0  0  0  0  0  0  0  0  0  0  0
   -4.3284    2.6439    0.0000 C   0  0  0  0  0  0  0  0  0  0  0  0
   -2.9025    2.1782    0.0000 C   0  0  0  0  0  0  0  0  0  0  0  0
   -5.4446    1.6419    0.0000 C   0  0  0  0  0  0  0  0  0  0  0  0
   -6.8705    2.1075    0.0000 C   0  0  0  0  0  0  0  0  0  0  0  0
   -5.1349    0.1742    0.0000 C   0  0  0  0  0  0  0  0  0  0  0  0
   -3.7090   -0.2915    0.0000 C   0  0  0  0  0  0  0  0  0  0  0  0
   -2.5928    0.7105    0.0000 O   0  0  0  0  0  0  0  0  0  0  0  0
   -3.3994   -1.7592    0.0000 C   0  0  0  0  0  0  0  0  0  0  0  0
   -4.5156   -2.7612    0.0000 C   0  0  0  0  0  0  0  0  0  0  0  0
   -1.9735   -2.2248    0.0000 C   0  0  0  0  0  0  0  0  0  0  0  0
   -1.5121   -3.6521    0.0000 C   0  0  0  0  0  0  0  0  0  0  0  0
   -0.0121   -3.6543    0.0000 C   0  0  0  0  0  0  0  0  0  0  0  0
    0.4536   -2.2285    0.0000 C   0  0  0  0  0  0  0  0  0  0  0  0
    1.8248   -1.6204    0.0000 C   0  0  0  0  0  0  0  0  0  0  0  0
    3.0370   -2.5039    0.0000 C   0  0  0  0  0  0  0  0  0  0  0  0
    4.4082   -1.8958    0.0000 C   0  0  0  0  0  0  0  0  0  0  0  0
    4.5673   -0.4043    0.0000 C   0  0  0  0  0  0  0  0  0  0  0  0
    5.9385    0.2038    0.0000 C   0  0  0  0  0  0  0  0  0  0  0  0
    6.0975    1.6953    0.0000 C   0  0  0  0  0  0  0  0  0  0  0  0
    7.4687    2.3034    0.0000 O   0  0  0  0  0  0  0  0  0  0  0  0
    4.8853    2.5788    0.0000 C   0  0  0  0  0  0  0  0  0  0  0  0
    3.5141    1.9707    0.0000 C   0  0  0  0  0  0  0  0  0  0  0  0
    3.3550    0.4792    0.0000 C   0  0  0  0  0  0  0  0  0  0  0  0
    2.1428    1.3627    0.0000 C   0  0  0  0  0  0  0  0  0  0  0  0
    1.9838   -0.1289    0.0000 C   0  0  0  0  0  0  0  0  0  0  0  0
    0.7716    0.7546    0.0000 C   0  0  0  0  0  0  0  0  0  0  0  0
   -0.5996    0.1466    0.0000 C   0  0  0  0  0  0  0  0  0  0  0  0
   -0.7586   -1.3450    0.0000 C   0  0  0  0  0  0  0  0  0  0  0  0
   -2.0566   -0.5930    0.0000 C   0  0  0  0  0  0  0  0  0  0  0  0
  1  2  1  0
  2  3  1  0
  2  4  1  0
  4  5  1  1
  4  6  1  0
  6  7  1  0
  7  8  1  6
  7  9  1  0
  9 10  1  6
  9 11  1  0
 11 12  1  6
 12 13  1  0
 14 13  1  6
 14 15  1  0
 15 16  1  1
 16 17  1  0
 18 17  1  6
 18 19  1  0
 19 20  1  0
 20 21  1  1
 20 22  1  0
 22 23  1  0
 23 24  1  0
 24 25  1  6
 24 26  1  0
 26 27  1  6
 27 28  1  0
 28 29  1  0
 29 30  1  6
 29 11  1  0
 29 14  1  0
 26 15  1  0
 24 18  1  0
M  END
>  <MS_ID>  (2870) 
MS2968

>  <SMILES>  (2870) 
CC(C)[C@H](C)C[C@H](O)[C@@H](C)[C@H]1CC[C@H]2[C@@H]3CC[C@H]4C[C@H](O)CC[C@]4(C)[C@H]3CC[C@]12C

>  <Structure_dimension>  (2870) 
2D

$$$$
MS2969
     RDKit          2D

 35 39  0  0  0  0  0  0  0  0999 V2000
   -2.4626   -3.9620    0.0000 C   0  0  0  0  0  0  0  0  0  0  0  0
   -1.5918   -2.7407    0.0000 C   0  0  0  0  0  0  0  0  0  0  0  0
   -2.2141   -1.3759    0.0000 C   0  0  0  0  0  0  0  0  0  0  0  0
   -3.7072   -1.2324    0.0000 C   0  0  0  0  0  0  0  0  0  0  0  0
   -4.3295    0.1324    0.0000 C   0  0  0  0  0  0  0  0  0  0  0  0
   -3.4587    1.3538    0.0000 O   0  0  0  0  0  0  0  0  0  0  0  0
   -5.8226    0.2759    0.0000 N   0  0  0  0  0  0  0  0  0  0  0  0
   -6.8163   -0.8478    0.0000 C   0  0  0  0  0  0  0  0  0  0  0  0
   -8.1921   -0.2499    0.0000 C   0  0  0  0  0  0  0  0  0  0  0  0
   -8.0486    1.2432    0.0000 C   0  0  0  0  0  0  0  0  0  0  0  0
   -6.5842    1.5682    0.0000 C   0  0  0  0  0  0  0  0  0  0  0  0
   -5.9864    2.9439    0.0000 C   0  0  0  0  0  0  0  0  0  0  0  0
   -4.4960    3.1140    0.0000 O   0  0  0  0  0  0  0  0  0  0  0  0
   -6.8788    4.1495    0.0000 O   0  0  0  0  0  0  0  0  0  0  0  0
   -0.0986   -2.8842    0.0000 C   0  0  0  0  0  0  0  0  0  0  0  0
    0.6629   -4.1764    0.0000 C   0  0  0  0  0  0  0  0  0  0  0  0
    2.1273   -3.8515    0.0000 C   0  0  0  0  0  0  0  0  0  0  0  0
    2.2708   -2.3584    0.0000 C   0  0  0  0  0  0  0  0  0  0  0  0
    3.4764   -1.4659    0.0000 C   0  0  0  0  0  0  0  0  0  0  0  0
    4.8521   -2.0637    0.0000 C   0  0  0  0  0  0  0  0  0  0  0  0
    6.0577   -1.1713    0.0000 C   0  0  0  0  0  0  0  0  0  0  0  0
    5.8876    0.3191    0.0000 C   0  0  0  0  0  0  0  0  0  0  0  0
    7.0932    1.2115    0.0000 C   0  0  0  0  0  0  0  0  0  0  0  0
    6.9231    2.7019    0.0000 C   0  0  0  0  0  0  0  0  0  0  0  0
    8.1287    3.5943    0.0000 O   0  0  0  0  0  0  0  0  0  0  0  0
    5.5474    3.2997    0.0000 C   0  0  0  0  0  0  0  0  0  0  0  0
    4.3418    2.4072    0.0000 C   0  0  0  0  0  0  0  0  0  0  0  0
    4.5119    0.9169    0.0000 C   0  0  0  0  0  0  0  0  0  0  0  0
    3.1362    1.5148    0.0000 C   0  0  0  0  0  0  0  0  0  0  0  0
    3.3063    0.0244    0.0000 C   0  0  0  0  0  0  0  0  0  0  0  0
    1.9306    0.6223    0.0000 C   0  0  0  0  0  0  0  0  0  0  0  0
    0.7250   -0.2702    0.0000 C   0  0  0  0  0  0  0  0  0  0  0  0
   -0.6507    0.3276    0.0000 O   0  0  0  0  0  0  0  0  0  0  0  0
    0.8951   -1.7605    0.0000 C   0  0  0  0  0  0  0  0  0  0  0  0
   -0.5356   -1.3098    0.0000 C   0  0  0  0  0  0  0  0  0  0  0  0
  2  1  1  6
  2  3  1  0
  3  4  1  0
  4  5  1  0
  5  6  2  0
  5  7  1  0
  7  8  1  0
  8  9  1  0
  9 10  1  0
 10 11  1  0
 11 12  1  1
 12 13  2  0
 12 14  1  0
  2 15  1  0
 15 16  1  6
 16 17  1  0
 18 17  1  6
 18 19  1  0
 19 20  1  1
 20 21  1  0
 22 21  1  1
 22 23  1  0
 23 24  1  0
 24 25  1  1
 24 26  1  0
 26 27  1  0
 27 28  1  0
 28 29  1  6
 28 30  1  0
 30 31  1  6
 31 32  1  0
 32 33  1  1
 32 34  1  0
 34 35  1  6
 11  7  1  0
 34 15  1  0
 34 18  1  0
 30 19  1  0
 28 22  1  0
M  END
>  <MS_ID>  (2871) 
MS2969

>  <SMILES>  (2871) 
C[C@H](CCC(=O)N1CCC[C@H]1C(=O)O)[C@H]1CC[C@H]2[C@@H]3CC[C@@H]4C[C@H](O)CC[C@]4(C)[C@H]3C[C@H](O)[C@]12C

>  <Structure_dimension>  (2871) 
2D

$$$$
MS2970
     RDKit          2D

 27 30  0  0  0  0  0  0  0  0999 V2000
   -5.3634   -1.3228    0.0000 C   0  0  0  0  0  0  0  0  0  0  0  0
   -4.0747   -0.5551    0.0000 C   0  0  0  0  0  0  0  0  0  0  0  0
   -4.0951    0.9447    0.0000 C   0  0  0  0  0  0  0  0  0  0  0  0
   -5.4043    1.6770    0.0000 C   0  0  0  0  0  0  0  0  0  0  0  0
   -6.6930    0.9093    0.0000 O   0  0  0  0  0  0  0  0  0  0  0  0
   -5.4248    3.1768    0.0000 O   0  0  0  0  0  0  0  0  0  0  0  0
   -2.7655   -1.2873    0.0000 C   0  0  0  0  0  0  0  0  0  0  0  0
   -2.5884   -2.7768    0.0000 C   0  0  0  0  0  0  0  0  0  0  0  0
   -1.1171   -3.0686    0.0000 C   0  0  0  0  0  0  0  0  0  0  0  0
   -0.3849   -1.7595    0.0000 C   0  0  0  0  0  0  0  0  0  0  0  0
    1.0780   -1.4276    0.0000 C   0  0  0  0  0  0  0  0  0  0  0  0
    2.0968   -2.5286    0.0000 C   0  0  0  0  0  0  0  0  0  0  0  0
    3.5596   -2.1967    0.0000 C   0  0  0  0  0  0  0  0  0  0  0  0
    4.0036   -0.7639    0.0000 C   0  0  0  0  0  0  0  0  0  0  0  0
    5.4665   -0.4321    0.0000 C   0  0  0  0  0  0  0  0  0  0  0  0
    5.9105    1.0007    0.0000 C   0  0  0  0  0  0  0  0  0  0  0  0
    7.3733    1.3326    0.0000 O   0  0  0  0  0  0  0  0  0  0  0  0
    4.8917    2.1016    0.0000 C   0  0  0  0  0  0  0  0  0  0  0  0
    3.4288    1.7698    0.0000 C   0  0  0  0  0  0  0  0  0  0  0  0
    2.9848    0.3370    0.0000 C   0  0  0  0  0  0  0  0  0  0  0  0
    1.9660    1.4379    0.0000 C   0  0  0  0  0  0  0  0  0  0  0  0
    1.5220    0.0051    0.0000 C   0  0  0  0  0  0  0  0  0  0  0  0
    0.5032    1.1061    0.0000 C   0  0  0  0  0  0  0  0  0  0  0  0
   -0.9596    0.7742    0.0000 C   0  0  0  0  0  0  0  0  0  0  0  0
   -1.9785    1.8751    0.0000 O   0  0  0  0  0  0  0  0  0  0  0  0
   -1.4037   -0.6586    0.0000 C   0  0  0  0  0  0  0  0  0  0  0  0
   -2.5320    0.3298    0.0000 C   0  0  0  0  0  0  0  0  0  0  0  0
  2  1  1  6
  2  3  1  0
  3  4  1  0
  4  5  2  0
  4  6  1  0
  2  7  1  0
  7  8  1  6
  8  9  1  0
 10  9  1  6
 10 11  1  0
 11 12  1  1
 12 13  1  0
 14 13  1  1
 14 15  1  0
 15 16  1  0
 16 17  1  1
 16 18  1  0
 18 19  1  0
 19 20  1  0
 20 21  1  6
 20 22  1  0
 22 23  1  6
 23 24  1  0
 24 25  1  1
 24 26  1  0
 26 27  1  6
 26  7  1  0
 26 10  1  0
 22 11  1  0
 20 14  1  0
M  END
>  <MS_ID>  (2872) 
MS2970

>  <SMILES>  (2872) 
C[C@H](CC(=O)O)[C@H]1CC[C@H]2[C@@H]3CC[C@@H]4C[C@H](O)CC[C@]4(C)[C@H]3C[C@H](O)[C@]12C

>  <Structure_dimension>  (2872) 
2D

$$$$
MS2971
     RDKit          2D

 37 40  0  0  0  0  0  0  0  0999 V2000
   -1.1168   -4.5462    0.0000 C   0  0  0  0  0  0  0  0  0  0  0  0
   -0.5124   -3.1733    0.0000 C   0  0  0  0  0  0  0  0  0  0  0  0
   -1.3992   -1.9635    0.0000 C   0  0  0  0  0  0  0  0  0  0  0  0
   -2.8903   -2.1266    0.0000 C   0  0  0  0  0  0  0  0  0  0  0  0
   -3.7771   -0.9168    0.0000 C   0  0  0  0  0  0  0  0  0  0  0  0
   -3.1727    0.4561    0.0000 O   0  0  0  0  0  0  0  0  0  0  0  0
   -5.2682   -1.0799    0.0000 N   0  0  0  0  0  0  0  0  0  0  0  0
   -6.1550    0.1300    0.0000 C   0  0  0  0  0  0  0  0  0  0  0  0
   -7.6461   -0.0331    0.0000 C   0  0  0  0  0  0  0  0  0  0  0  0
   -8.5328    1.1767    0.0000 C   0  0  0  0  0  0  0  0  0  0  0  0
  -10.0240    1.0136    0.0000 C   0  0  0  0  0  0  0  0  0  0  0  0
  -10.6283   -0.3592    0.0000 N   0  0  0  0  0  0  0  0  0  0  0  0
  -10.9107    2.2234    0.0000 C   0  0  0  0  0  0  0  0  0  0  0  0
  -10.3064    3.5963    0.0000 O   0  0  0  0  0  0  0  0  0  0  0  0
  -12.4018    2.0604    0.0000 O   0  0  0  0  0  0  0  0  0  0  0  0
    0.9787   -3.0103    0.0000 C   0  0  0  0  0  0  0  0  0  0  0  0
    1.9871   -4.1208    0.0000 C   0  0  0  0  0  0  0  0  0  0  0  0
    3.3548   -3.5049    0.0000 C   0  0  0  0  0  0  0  0  0  0  0  0
    3.1917   -2.0138    0.0000 C   0  0  0  0  0  0  0  0  0  0  0  0
    4.1907   -0.8949    0.0000 C   0  0  0  0  0  0  0  0  0  0  0  0
    5.6593   -1.2006    0.0000 C   0  0  0  0  0  0  0  0  0  0  0  0
    6.1288   -2.6252    0.0000 O   0  0  0  0  0  0  0  0  0  0  0  0
    6.6583   -0.0816    0.0000 C   0  0  0  0  0  0  0  0  0  0  0  0
    8.1268   -0.3873    0.0000 O   0  0  0  0  0  0  0  0  0  0  0  0
    6.1887    1.3430    0.0000 C   0  0  0  0  0  0  0  0  0  0  0  0
    7.1877    2.4619    0.0000 C   0  0  0  0  0  0  0  0  0  0  0  0
    6.7182    3.8865    0.0000 C   0  0  0  0  0  0  0  0  0  0  0  0
    7.7172    5.0055    0.0000 O   0  0  0  0  0  0  0  0  0  0  0  0
    5.2497    4.1922    0.0000 C   0  0  0  0  0  0  0  0  0  0  0  0
    4.2507    3.0733    0.0000 C   0  0  0  0  0  0  0  0  0  0  0  0
    4.7202    1.6487    0.0000 C   0  0  0  0  0  0  0  0  0  0  0  0
    3.2517    1.9544    0.0000 C   0  0  0  0  0  0  0  0  0  0  0  0
    3.7212    0.5298    0.0000 C   0  0  0  0  0  0  0  0  0  0  0  0
    2.2527    0.8355    0.0000 C   0  0  0  0  0  0  0  0  0  0  0  0
    1.2537   -0.2835    0.0000 C   0  0  0  0  0  0  0  0  0  0  0  0
    1.7232   -1.7081    0.0000 C   0  0  0  0  0  0  0  0  0  0  0  0
    0.2308   -1.5576    0.0000 C   0  0  0  0  0  0  0  0  0  0  0  0
  2  1  1  6
  2  3  1  0
  3  4  1  0
  4  5  1  0
  5  6  2  0
  5  7  1  0
  7  8  1  0
  8  9  1  0
  9 10  1  0
 10 11  1  0
 11 12  1  6
 11 13  1  0
 13 14  2  0
 13 15  1  0
  2 16  1  0
 16 17  1  6
 17 18  1  0
 19 18  1  6
 19 20  1  0
 20 21  1  1
 21 22  1  1
 21 23  1  0
 23 24  1  1
 23 25  1  0
 25 26  1  1
 26 27  1  0
 27 28  1  1
 27 29  1  0
 29 30  1  0
 30 31  1  0
 31 32  1  6
 31 33  1  0
 33 34  1  6
 34 35  1  0
 35 36  1  0
 36 37  1  6
 36 16  1  0
 36 19  1  0
 33 20  1  0
 31 25  1  0
M  END
>  <MS_ID>  (2873) 
MS2971

>  <SMILES>  (2873) 
C[C@H](CCC(=O)NCCC[C@H](N)C(=O)O)[C@H]1CC[C@H]2[C@@H]3[C@H](O)[C@H](O)[C@@H]4C[C@H](O)CC[C@]4(C)[C@H]3CC[C@]12C

>  <Structure_dimension>  (2873) 
2D

$$$$
MS2972
     RDKit          2D

 36 39  0  0  0  0  0  0  0  0999 V2000
  -11.0772    2.6044    0.0000 C   0  0  0  0  0  0  0  0  0  0  0  0
  -10.2354    1.3629    0.0000 S   0  0  0  0  0  0  0  0  0  0  0  0
   -8.7393    1.4712    0.0000 C   0  0  0  0  0  0  0  0  0  0  0  0
   -7.8975    0.2297    0.0000 C   0  0  0  0  0  0  0  0  0  0  0  0
   -6.4014    0.3379    0.0000 C   0  0  0  0  0  0  0  0  0  0  0  0
   -5.5596   -0.9036    0.0000 N   0  0  0  0  0  0  0  0  0  0  0  0
   -4.0635   -0.7953    0.0000 C   0  0  0  0  0  0  0  0  0  0  0  0
   -3.4092    0.5545    0.0000 O   0  0  0  0  0  0  0  0  0  0  0  0
   -3.2217   -2.0368    0.0000 C   0  0  0  0  0  0  0  0  0  0  0  0
   -1.7256   -1.9285    0.0000 C   0  0  0  0  0  0  0  0  0  0  0  0
   -0.8838   -3.1700    0.0000 C   0  0  0  0  0  0  0  0  0  0  0  0
   -1.5380   -4.5198    0.0000 C   0  0  0  0  0  0  0  0  0  0  0  0
    0.6123   -3.0618    0.0000 C   0  0  0  0  0  0  0  0  0  0  0  0
    1.5793   -4.2085    0.0000 C   0  0  0  0  0  0  0  0  0  0  0  0
    2.9687   -3.6432    0.0000 C   0  0  0  0  0  0  0  0  0  0  0  0
    2.8604   -2.1471    0.0000 C   0  0  0  0  0  0  0  0  0  0  0  0
    3.8998   -1.0656    0.0000 C   0  0  0  0  0  0  0  0  0  0  0  0
    5.3561   -1.4249    0.0000 C   0  0  0  0  0  0  0  0  0  0  0  0
    5.7731   -2.8658    0.0000 O   0  0  0  0  0  0  0  0  0  0  0  0
    6.3955   -0.3434    0.0000 C   0  0  0  0  0  0  0  0  0  0  0  0
    5.9785    1.0975    0.0000 C   0  0  0  0  0  0  0  0  0  0  0  0
    7.0179    2.1791    0.0000 C   0  0  0  0  0  0  0  0  0  0  0  0
    6.6009    3.6199    0.0000 C   0  0  0  0  0  0  0  0  0  0  0  0
    7.6402    4.7015    0.0000 O   0  0  0  0  0  0  0  0  0  0  0  0
    5.1446    3.9793    0.0000 C   0  0  0  0  0  0  0  0  0  0  0  0
    4.1052    2.8977    0.0000 C   0  0  0  0  0  0  0  0  0  0  0  0
    4.5222    1.4569    0.0000 C   0  0  0  0  0  0  0  0  0  0  0  0
    3.0658    1.8162    0.0000 C   0  0  0  0  0  0  0  0  0  0  0  0
    3.4828    0.3753    0.0000 C   0  0  0  0  0  0  0  0  0  0  0  0
    2.0265    0.7347    0.0000 C   0  0  0  0  0  0  0  0  0  0  0  0
    0.9871   -0.3469    0.0000 C   0  0  0  0  0  0  0  0  0  0  0  0
    1.4041   -1.7878    0.0000 C   0  0  0  0  0  0  0  0  0  0  0  0
   -0.0818   -1.5826    0.0000 C   0  0  0  0  0  0  0  0  0  0  0  0
   -5.7471    1.6877    0.0000 C   0  0  0  0  0  0  0  0  0  0  0  0
   -4.2510    1.7960    0.0000 O   0  0  0  0  0  0  0  0  0  0  0  0
   -6.5889    2.9292    0.0000 O   0  0  0  0  0  0  0  0  0  0  0  0
  1  2  1  0
  2  3  1  0
  3  4  1  0
  5  4  1  1
  5  6  1  0
  6  7  1  0
  7  8  2  0
  7  9  1  0
  9 10  1  0
 10 11  1  0
 11 12  1  6
 11 13  1  0
 13 14  1  6
 14 15  1  0
 16 15  1  6
 16 17  1  0
 17 18  1  1
 18 19  1  1
 18 20  1  0
 21 20  1  1
 21 22  1  0
 22 23  1  0
 23 24  1  1
 23 25  1  0
 25 26  1  0
 26 27  1  0
 27 28  1  6
 27 29  1  0
 29 30  1  6
 30 31  1  0
 31 32  1  0
 32 33  1  6
  5 34  1  0
 34 35  2  0
 34 36  1  0
 32 13  1  0
 32 16  1  0
 29 17  1  0
 27 21  1  0
M  END
>  <MS_ID>  (2874) 
MS2972

>  <SMILES>  (2874) 
CSCC[C@H](NC(=O)CC[C@@H](C)[C@H]1CC[C@H]2[C@@H]3[C@H](O)C[C@@H]4C[C@H](O)CC[C@]4(C)[C@H]3CC[C@]12C)C(=O)O

>  <Structure_dimension>  (2874) 
2D

$$$$
MS2973
     RDKit          2D

 27 30  0  0  0  0  0  0  0  0999 V2000
   -5.4905   -1.1424    0.0000 C   0  0  0  0  0  0  0  0  0  0  0  0
   -4.2069   -0.3663    0.0000 C   0  0  0  0  0  0  0  0  0  0  0  0
   -4.2371    1.1334    0.0000 C   0  0  0  0  0  0  0  0  0  0  0  0
   -5.5510    1.8570    0.0000 C   0  0  0  0  0  0  0  0  0  0  0  0
   -6.8346    1.0810    0.0000 O   0  0  0  0  0  0  0  0  0  0  0  0
   -5.5812    3.3567    0.0000 O   0  0  0  0  0  0  0  0  0  0  0  0
   -2.8930   -1.0900    0.0000 C   0  0  0  0  0  0  0  0  0  0  0  0
   -2.7062   -2.5783    0.0000 C   0  0  0  0  0  0  0  0  0  0  0  0
   -1.2330   -2.8606    0.0000 C   0  0  0  0  0  0  0  0  0  0  0  0
   -0.5093   -1.5467    0.0000 C   0  0  0  0  0  0  0  0  0  0  0  0
    0.9513   -1.2053    0.0000 C   0  0  0  0  0  0  0  0  0  0  0  0
    1.9773   -2.2996    0.0000 C   0  0  0  0  0  0  0  0  0  0  0  0
    1.5426   -3.7352    0.0000 O   0  0  0  0  0  0  0  0  0  0  0  0
    3.4379   -1.9582    0.0000 C   0  0  0  0  0  0  0  0  0  0  0  0
    3.8726   -0.5226    0.0000 C   0  0  0  0  0  0  0  0  0  0  0  0
    5.3333   -0.1812    0.0000 C   0  0  0  0  0  0  0  0  0  0  0  0
    5.7680    1.2544    0.0000 C   0  0  0  0  0  0  0  0  0  0  0  0
    7.2286    1.5958    0.0000 O   0  0  0  0  0  0  0  0  0  0  0  0
    4.7420    2.3487    0.0000 C   0  0  0  0  0  0  0  0  0  0  0  0
    3.2814    2.0073    0.0000 C   0  0  0  0  0  0  0  0  0  0  0  0
    2.8467    0.5717    0.0000 C   0  0  0  0  0  0  0  0  0  0  0  0
    1.8207    1.6660    0.0000 C   0  0  0  0  0  0  0  0  0  0  0  0
    1.3860    0.2303    0.0000 C   0  0  0  0  0  0  0  0  0  0  0  0
    0.3601    1.3246    0.0000 C   0  0  0  0  0  0  0  0  0  0  0  0
   -1.1006    0.9832    0.0000 C   0  0  0  0  0  0  0  0  0  0  0  0
   -1.5352   -0.4524    0.0000 C   0  0  0  0  0  0  0  0  0  0  0  0
   -2.6700    0.5286    0.0000 C   0  0  0  0  0  0  0  0  0  0  0  0
  2  1  1  6
  2  3  1  0
  3  4  1  0
  4  5  2  0
  4  6  1  0
  2  7  1  0
  7  8  1  6
  8  9  1  0
 10  9  1  6
 10 11  1  0
 11 12  1  1
 12 13  1  6
 12 14  1  0
 15 14  1  1
 15 16  1  0
 16 17  1  0
 17 18  1  1
 17 19  1  0
 19 20  1  0
 20 21  1  0
 21 22  1  6
 21 23  1  0
 23 24  1  6
 24 25  1  0
 25 26  1  0
 26 27  1  6
 26  7  1  0
 26 10  1  0
 23 11  1  0
 21 15  1  0
M  END
>  <MS_ID>  (2875) 
MS2973

>  <SMILES>  (2875) 
C[C@H](CC(=O)O)[C@H]1CC[C@H]2[C@@H]3[C@@H](O)C[C@@H]4C[C@H](O)CC[C@]4(C)[C@H]3CC[C@]12C

>  <Structure_dimension>  (2875) 
2D

$$$$
MS2974
     RDKit          2D

 39 43  0  0  0  0  0  0  0  0999 V2000
   -0.4436   -4.8247    0.0000 C   0  0  0  0  0  0  0  0  0  0  0  0
    0.1038   -3.4282    0.0000 C   0  0  0  0  0  0  0  0  0  0  0  0
   -0.8319   -2.2559    0.0000 C   0  0  0  0  0  0  0  0  0  0  0  0
   -2.3151   -2.4801    0.0000 C   0  0  0  0  0  0  0  0  0  0  0  0
   -3.2508   -1.3077    0.0000 C   0  0  0  0  0  0  0  0  0  0  0  0
   -2.7034    0.0888    0.0000 O   0  0  0  0  0  0  0  0  0  0  0  0
   -4.7339   -1.5319    0.0000 N   0  0  0  0  0  0  0  0  0  0  0  0
   -5.6697   -0.3596    0.0000 C   0  0  0  0  0  0  0  0  0  0  0  0
   -7.1528   -0.5838    0.0000 C   0  0  0  0  0  0  0  0  0  0  0  0
   -7.7002   -1.9803    0.0000 O   0  0  0  0  0  0  0  0  0  0  0  0
   -8.0886    0.5886    0.0000 N   0  0  0  0  0  0  0  0  0  0  0  0
   -9.5870    0.5206    0.0000 C   0  0  0  0  0  0  0  0  0  0  0  0
  -10.1147    1.9247    0.0000 C   0  0  0  0  0  0  0  0  0  0  0  0
   -8.9424    2.8605    0.0000 C   0  0  0  0  0  0  0  0  0  0  0  0
   -7.6901    2.0347    0.0000 C   0  0  0  0  0  0  0  0  0  0  0  0
   -6.2860    2.5623    0.0000 C   0  0  0  0  0  0  0  0  0  0  0  0
   -5.1270    1.6102    0.0000 O   0  0  0  0  0  0  0  0  0  0  0  0
   -6.0409    4.0422    0.0000 O   0  0  0  0  0  0  0  0  0  0  0  0
    1.5870   -3.2040    0.0000 C   0  0  0  0  0  0  0  0  0  0  0  0
    2.6401   -4.2721    0.0000 C   0  0  0  0  0  0  0  0  0  0  0  0
    3.9814   -3.6006    0.0000 C   0  0  0  0  0  0  0  0  0  0  0  0
    3.7572   -2.1174    0.0000 C   0  0  0  0  0  0  0  0  0  0  0  0
    4.7094   -0.9584    0.0000 C   0  0  0  0  0  0  0  0  0  0  0  0
    6.1892   -1.2035    0.0000 C   0  0  0  0  0  0  0  0  0  0  0  0
    6.7169   -2.6076    0.0000 O   0  0  0  0  0  0  0  0  0  0  0  0
    7.1414   -0.0444    0.0000 C   0  0  0  0  0  0  0  0  0  0  0  0
    6.6137    1.3597    0.0000 C   0  0  0  0  0  0  0  0  0  0  0  0
    7.5659    2.5187    0.0000 C   0  0  0  0  0  0  0  0  0  0  0  0
    7.0382    3.9229    0.0000 C   0  0  0  0  0  0  0  0  0  0  0  0
    7.9904    5.0819    0.0000 O   0  0  0  0  0  0  0  0  0  0  0  0
    5.5584    4.1679    0.0000 C   0  0  0  0  0  0  0  0  0  0  0  0
    4.6062    3.0089    0.0000 C   0  0  0  0  0  0  0  0  0  0  0  0
    5.1339    1.6048    0.0000 C   0  0  0  0  0  0  0  0  0  0  0  0
    3.6541    1.8499    0.0000 C   0  0  0  0  0  0  0  0  0  0  0  0
    4.1817    0.4457    0.0000 C   0  0  0  0  0  0  0  0  0  0  0  0
    2.7019    0.6908    0.0000 C   0  0  0  0  0  0  0  0  0  0  0  0
    1.7497   -0.4682    0.0000 C   0  0  0  0  0  0  0  0  0  0  0  0
    2.2774   -1.8723    0.0000 C   0  0  0  0  0  0  0  0  0  0  0  0
    0.7800   -1.7833    0.0000 C   0  0  0  0  0  0  0  0  0  0  0  0
  2  1  1  6
  2  3  1  0
  3  4  1  0
  4  5  1  0
  5  6  2  0
  5  7  1  0
  7  8  1  0
  8  9  1  0
  9 10  2  0
  9 11  1  0
 11 12  1  0
 12 13  1  0
 13 14  1  0
 14 15  1  0
 15 16  1  1
 16 17  2  0
 16 18  1  0
  2 19  1  0
 19 20  1  6
 20 21  1  0
 22 21  1  6
 22 23  1  0
 23 24  1  1
 24 25  1  1
 24 26  1  0
 27 26  1  1
 27 28  1  0
 28 29  1  0
 29 30  1  1
 29 31  1  0
 31 32  1  0
 32 33  1  0
 33 34  1  6
 33 35  1  0
 35 36  1  6
 36 37  1  0
 37 38  1  0
 38 39  1  6
 15 11  1  0
 38 19  1  0
 38 22  1  0
 35 23  1  0
 33 27  1  0
M  END
>  <MS_ID>  (2876) 
MS2974

>  <SMILES>  (2876) 
C[C@H](CCC(=O)NCC(=O)N1CCC[C@H]1C(=O)O)[C@H]1CC[C@H]2[C@@H]3[C@H](O)C[C@@H]4C[C@H](O)CC[C@]4(C)[C@H]3CC[C@]12C

>  <Structure_dimension>  (2876) 
2D

$$$$
MS2975
     RDKit          2D

 35 39  0  0  0  0  0  0  0  0999 V2000
   -2.5210   -3.9198    0.0000 C   0  0  0  0  0  0  0  0  0  0  0  0
   -1.6831   -2.6756    0.0000 C   0  0  0  0  0  0  0  0  0  0  0  0
   -2.3416   -1.3279    0.0000 C   0  0  0  0  0  0  0  0  0  0  0  0
   -3.8380   -1.2243    0.0000 C   0  0  0  0  0  0  0  0  0  0  0  0
   -4.4965    0.1234    0.0000 C   0  0  0  0  0  0  0  0  0  0  0  0
   -3.6586    1.3675    0.0000 O   0  0  0  0  0  0  0  0  0  0  0  0
   -5.9929    0.2270    0.0000 N   0  0  0  0  0  0  0  0  0  0  0  0
   -6.9563   -0.9228    0.0000 C   0  0  0  0  0  0  0  0  0  0  0  0
   -8.3475   -0.3618    0.0000 C   0  0  0  0  0  0  0  0  0  0  0  0
   -8.2439    1.1346    0.0000 C   0  0  0  0  0  0  0  0  0  0  0  0
   -6.7887    1.4985    0.0000 C   0  0  0  0  0  0  0  0  0  0  0  0
   -6.2277    2.8897    0.0000 C   0  0  0  0  0  0  0  0  0  0  0  0
   -4.7425    3.0995    0.0000 O   0  0  0  0  0  0  0  0  0  0  0  0
   -7.1521    4.0710    0.0000 O   0  0  0  0  0  0  0  0  0  0  0  0
   -0.1866   -2.7792    0.0000 C   0  0  0  0  0  0  0  0  0  0  0  0
    0.6091   -4.0507    0.0000 C   0  0  0  0  0  0  0  0  0  0  0  0
    2.0643   -3.6868    0.0000 C   0  0  0  0  0  0  0  0  0  0  0  0
    2.1679   -2.1904    0.0000 C   0  0  0  0  0  0  0  0  0  0  0  0
    3.3493   -1.2661    0.0000 C   0  0  0  0  0  0  0  0  0  0  0  0
    4.7404   -1.8270    0.0000 C   0  0  0  0  0  0  0  0  0  0  0  0
    4.9502   -3.3123    0.0000 O   0  0  0  0  0  0  0  0  0  0  0  0
    5.9218   -0.9027    0.0000 C   0  0  0  0  0  0  0  0  0  0  0  0
    5.7120    0.5826    0.0000 C   0  0  0  0  0  0  0  0  0  0  0  0
    6.8934    1.5069    0.0000 C   0  0  0  0  0  0  0  0  0  0  0  0
    6.6836    2.9921    0.0000 C   0  0  0  0  0  0  0  0  0  0  0  0
    7.8649    3.9165    0.0000 O   0  0  0  0  0  0  0  0  0  0  0  0
    5.2924    3.5531    0.0000 C   0  0  0  0  0  0  0  0  0  0  0  0
    4.1110    2.6287    0.0000 C   0  0  0  0  0  0  0  0  0  0  0  0
    4.3208    1.1435    0.0000 C   0  0  0  0  0  0  0  0  0  0  0  0
    2.9297    1.7044    0.0000 C   0  0  0  0  0  0  0  0  0  0  0  0
    3.1395    0.2192    0.0000 C   0  0  0  0  0  0  0  0  0  0  0  0
    1.7483    0.7801    0.0000 C   0  0  0  0  0  0  0  0  0  0  0  0
    0.5669   -0.1442    0.0000 C   0  0  0  0  0  0  0  0  0  0  0  0
    0.7767   -1.6295    0.0000 C   0  0  0  0  0  0  0  0  0  0  0  0
   -0.6655   -1.2170    0.0000 C   0  0  0  0  0  0  0  0  0  0  0  0
  2  1  1  6
  2  3  1  0
  3  4  1  0
  4  5  1  0
  5  6  2  0
  5  7  1  0
  7  8  1  0
  8  9  1  0
  9 10  1  0
 10 11  1  0
 11 12  1  1
 12 13  2  0
 12 14  1  0
  2 15  1  0
 15 16  1  6
 16 17  1  0
 18 17  1  6
 18 19  1  0
 19 20  1  1
 20 21  1  1
 20 22  1  0
 23 22  1  1
 23 24  1  0
 24 25  1  0
 25 26  1  1
 25 27  1  0
 27 28  1  0
 28 29  1  0
 29 30  1  6
 29 31  1  0
 31 32  1  6
 32 33  1  0
 33 34  1  0
 34 35  1  6
 11  7  1  0
 34 15  1  0
 34 18  1  0
 31 19  1  0
 29 23  1  0
M  END
>  <MS_ID>  (2877) 
MS2975

>  <SMILES>  (2877) 
C[C@H](CCC(=O)N1CCC[C@H]1C(=O)O)[C@H]1CC[C@H]2[C@@H]3[C@H](O)C[C@@H]4C[C@H](O)CC[C@]4(C)[C@H]3CC[C@]12C

>  <Structure_dimension>  (2877) 
2D

$$$$
MS2977
     RDKit          2D

 24 27  0  0  0  0  0  0  0  0999 V2000
   -6.2943    0.2891    0.0000 C   0  0  0  0  0  0  0  0  0  0  0  0
   -4.8892    0.8143    0.0000 C   0  0  0  0  0  0  0  0  0  0  0  0
   -4.6416    2.2937    0.0000 O   0  0  0  0  0  0  0  0  0  0  0  0
   -3.7319   -0.1399    0.0000 C   0  0  0  0  0  0  0  0  0  0  0  0
   -3.8235   -1.6371    0.0000 C   0  0  0  0  0  0  0  0  0  0  0  0
   -2.4280   -2.1870    0.0000 C   0  0  0  0  0  0  0  0  0  0  0  0
   -1.4738   -1.0296    0.0000 C   0  0  0  0  0  0  0  0  0  0  0  0
    0.0248   -0.9643    0.0000 C   0  0  0  0  0  0  0  0  0  0  0  0
    0.8307   -2.2294    0.0000 C   0  0  0  0  0  0  0  0  0  0  0  0
    0.1380   -3.5599    0.0000 O   0  0  0  0  0  0  0  0  0  0  0  0
    2.3293   -2.1641    0.0000 C   0  0  0  0  0  0  0  0  0  0  0  0
    3.0220   -0.8336    0.0000 C   0  0  0  0  0  0  0  0  0  0  0  0
    4.5205   -0.7683    0.0000 C   0  0  0  0  0  0  0  0  0  0  0  0
    5.2133    0.5622    0.0000 C   0  0  0  0  0  0  0  0  0  0  0  0
    6.7118    0.6275    0.0000 O   0  0  0  0  0  0  0  0  0  0  0  0
    4.4074    1.8273    0.0000 C   0  0  0  0  0  0  0  0  0  0  0  0
    2.9088    1.7620    0.0000 C   0  0  0  0  0  0  0  0  0  0  0  0
    2.2161    0.4315    0.0000 C   0  0  0  0  0  0  0  0  0  0  0  0
    1.4102    1.6967    0.0000 C   0  0  0  0  0  0  0  0  0  0  0  0
    0.7175    0.3662    0.0000 C   0  0  0  0  0  0  0  0  0  0  0  0
   -0.0883    1.6314    0.0000 C   0  0  0  0  0  0  0  0  0  0  0  0
   -1.5869    1.5660    0.0000 C   0  0  0  0  0  0  0  0  0  0  0  0
   -2.2796    0.2356    0.0000 C   0  0  0  0  0  0  0  0  0  0  0  0
   -3.2133    1.4095    0.0000 C   0  0  0  0  0  0  0  0  0  0  0  0
  1  2  1  0
  2  3  2  0
  4  2  1  6
  4  5  1  0
  5  6  1  0
  7  6  1  6
  7  8  1  0
  8  9  1  1
  9 10  1  1
  9 11  1  0
 12 11  1  1
 12 13  1  0
 13 14  1  0
 14 15  1  1
 14 16  1  0
 16 17  1  0
 17 18  1  0
 18 19  1  6
 18 20  1  0
 20 21  1  6
 21 22  1  0
 22 23  1  0
 23 24  1  6
 23  4  1  0
 23  7  1  0
 20  8  1  0
 18 12  1  0
M  END
>  <MS_ID>  (2878) 
MS2977

>  <SMILES>  (2878) 
CC(=O)[C@H]1CC[C@H]2[C@@H]3[C@H](O)C[C@@H]4C[C@H](O)CC[C@]4(C)[C@H]3CC[C@]12C

>  <Structure_dimension>  (2878) 
2D

$$$$
MS2978
     RDKit          2D

 40 44  0  0  0  0  0  0  0  0999 V2000
   -0.4500   -4.8192    0.0000 C   0  0  0  0  0  0  0  0  0  0  0  0
    0.0973   -3.4226    0.0000 C   0  0  0  0  0  0  0  0  0  0  0  0
   -0.8385   -2.2503    0.0000 C   0  0  0  0  0  0  0  0  0  0  0  0
   -2.3217   -2.4746    0.0000 C   0  0  0  0  0  0  0  0  0  0  0  0
   -3.2575   -1.3023    0.0000 C   0  0  0  0  0  0  0  0  0  0  0  0
   -2.7101    0.0942    0.0000 O   0  0  0  0  0  0  0  0  0  0  0  0
   -4.7406   -1.5266    0.0000 N   0  0  0  0  0  0  0  0  0  0  0  0
   -5.6764   -0.3543    0.0000 C   0  0  0  0  0  0  0  0  0  0  0  0
   -7.1595   -0.5786    0.0000 C   0  0  0  0  0  0  0  0  0  0  0  0
   -7.7069   -1.9752    0.0000 O   0  0  0  0  0  0  0  0  0  0  0  0
   -8.0954    0.5937    0.0000 N   0  0  0  0  0  0  0  0  0  0  0  0
   -9.5938    0.5256    0.0000 C   0  0  0  0  0  0  0  0  0  0  0  0
  -10.1216    1.9297    0.0000 C   0  0  0  0  0  0  0  0  0  0  0  0
   -8.9493    2.8655    0.0000 C   0  0  0  0  0  0  0  0  0  0  0  0
   -7.6970    2.0398    0.0000 C   0  0  0  0  0  0  0  0  0  0  0  0
   -6.2929    2.5675    0.0000 C   0  0  0  0  0  0  0  0  0  0  0  0
   -5.1338    1.6154    0.0000 O   0  0  0  0  0  0  0  0  0  0  0  0
   -6.0479    4.0474    0.0000 O   0  0  0  0  0  0  0  0  0  0  0  0
    1.5804   -3.1983    0.0000 C   0  0  0  0  0  0  0  0  0  0  0  0
    2.6337   -4.2664    0.0000 C   0  0  0  0  0  0  0  0  0  0  0  0
    3.9749   -3.5947    0.0000 C   0  0  0  0  0  0  0  0  0  0  0  0
    3.7506   -2.1116    0.0000 C   0  0  0  0  0  0  0  0  0  0  0  0
    4.7027   -0.9525    0.0000 C   0  0  0  0  0  0  0  0  0  0  0  0
    6.1826   -1.1975    0.0000 C   0  0  0  0  0  0  0  0  0  0  0  0
    6.7103   -2.6016    0.0000 O   0  0  0  0  0  0  0  0  0  0  0  0
    7.1347   -0.0384    0.0000 C   0  0  0  0  0  0  0  0  0  0  0  0
    6.6069    1.3657    0.0000 C   0  0  0  0  0  0  0  0  0  0  0  0
    7.5590    2.5248    0.0000 C   0  0  0  0  0  0  0  0  0  0  0  0
    7.0313    3.9289    0.0000 C   0  0  0  0  0  0  0  0  0  0  0  0
    7.9834    5.0879    0.0000 O   0  0  0  0  0  0  0  0  0  0  0  0
    5.5514    4.1739    0.0000 C   0  0  0  0  0  0  0  0  0  0  0  0
    4.5993    3.0148    0.0000 C   0  0  0  0  0  0  0  0  0  0  0  0
    5.1271    1.6107    0.0000 C   0  0  0  0  0  0  0  0  0  0  0  0
    3.6472    1.8557    0.0000 C   0  0  0  0  0  0  0  0  0  0  0  0
    4.1749    0.4516    0.0000 C   0  0  0  0  0  0  0  0  0  0  0  0
    2.6951    0.6966    0.0000 C   0  0  0  0  0  0  0  0  0  0  0  0
    1.7430   -0.4625    0.0000 C   0  0  0  0  0  0  0  0  0  0  0  0
    0.2631   -0.2175    0.0000 O   0  0  0  0  0  0  0  0  0  0  0  0
    2.2707   -1.8666    0.0000 C   0  0  0  0  0  0  0  0  0  0  0  0
    0.7734   -1.7776    0.0000 C   0  0  0  0  0  0  0  0  0  0  0  0
  2  1  1  6
  2  3  1  0
  3  4  1  0
  4  5  1  0
  5  6  2  0
  5  7  1  0
  7  8  1  0
  8  9  1  0
  9 10  2  0
  9 11  1  0
 11 12  1  0
 12 13  1  0
 13 14  1  0
 14 15  1  0
 15 16  1  1
 16 17  2  0
 16 18  1  0
  2 19  1  0
 19 20  1  6
 20 21  1  0
 22 21  1  6
 22 23  1  0
 23 24  1  1
 24 25  1  1
 24 26  1  0
 27 26  1  1
 27 28  1  0
 28 29  1  0
 29 30  1  1
 29 31  1  0
 31 32  1  0
 32 33  1  0
 33 34  1  6
 33 35  1  0
 35 36  1  6
 36 37  1  0
 37 38  1  1
 37 39  1  0
 39 40  1  6
 15 11  1  0
 39 19  1  0
 39 22  1  0
 35 23  1  0
 33 27  1  0
M  END
>  <MS_ID>  (2879) 
MS2978

>  <SMILES>  (2879) 
C[C@H](CCC(=O)NCC(=O)N1CCC[C@H]1C(=O)O)[C@H]1CC[C@H]2[C@@H]3[C@H](O)C[C@@H]4C[C@H](O)CC[C@]4(C)[C@H]3C[C@H](O)[C@]12C

>  <Structure_dimension>  (2879) 
2D

$$$$
MS2979
     RDKit          2D

 33 36  0  0  0  0  0  0  0  0999 V2000
   -3.4710   -3.2324    0.0000 C   0  0  0  0  0  0  0  0  0  0  0  0
   -2.4894   -2.0982    0.0000 C   0  0  0  0  0  0  0  0  0  0  0  0
   -2.9809   -0.6810    0.0000 C   0  0  0  0  0  0  0  0  0  0  0  0
   -4.4540   -0.3980    0.0000 C   0  0  0  0  0  0  0  0  0  0  0  0
   -4.9454    1.0192    0.0000 C   0  0  0  0  0  0  0  0  0  0  0  0
   -3.9638    2.1534    0.0000 O   0  0  0  0  0  0  0  0  0  0  0  0
   -6.4185    1.3021    0.0000 C   0  0  0  0  0  0  0  0  0  0  0  0
   -6.9100    2.7193    0.0000 C   0  0  0  0  0  0  0  0  0  0  0  0
   -8.3831    3.0023    0.0000 O   0  0  0  0  0  0  0  0  0  0  0  0
   -7.4001    0.1679    0.0000 C   0  0  0  0  0  0  0  0  0  0  0  0
   -8.8732    0.4509    0.0000 O   0  0  0  0  0  0  0  0  0  0  0  0
   -1.0163   -2.3812    0.0000 C   0  0  0  0  0  0  0  0  0  0  0  0
   -0.3794   -3.7392    0.0000 C   0  0  0  0  0  0  0  0  0  0  0  0
    1.1090   -3.5531    0.0000 C   0  0  0  0  0  0  0  0  0  0  0  0
    1.3920   -2.0801    0.0000 C   0  0  0  0  0  0  0  0  0  0  0  0
    2.6760   -1.3047    0.0000 C   0  0  0  0  0  0  0  0  0  0  0  0
    3.9895   -2.0290    0.0000 C   0  0  0  0  0  0  0  0  0  0  0  0
    4.0190   -3.5287    0.0000 O   0  0  0  0  0  0  0  0  0  0  0  0
    5.2736   -1.2536    0.0000 C   0  0  0  0  0  0  0  0  0  0  0  0
    5.2441    0.2461    0.0000 C   0  0  0  0  0  0  0  0  0  0  0  0
    6.5281    1.0215    0.0000 C   0  0  0  0  0  0  0  0  0  0  0  0
    6.4986    2.5212    0.0000 C   0  0  0  0  0  0  0  0  0  0  0  0
    7.7827    3.2966    0.0000 O   0  0  0  0  0  0  0  0  0  0  0  0
    5.1851    3.2455    0.0000 C   0  0  0  0  0  0  0  0  0  0  0  0
    3.9011    2.4701    0.0000 C   0  0  0  0  0  0  0  0  0  0  0  0
    3.9306    0.9704    0.0000 C   0  0  0  0  0  0  0  0  0  0  0  0
    2.6170    1.6947    0.0000 C   0  0  0  0  0  0  0  0  0  0  0  0
    2.6465    0.1950    0.0000 C   0  0  0  0  0  0  0  0  0  0  0  0
    1.3330    0.9193    0.0000 C   0  0  0  0  0  0  0  0  0  0  0  0
    0.0489    0.1440    0.0000 C   0  0  0  0  0  0  0  0  0  0  0  0
   -1.2646    0.8683    0.0000 O   0  0  0  0  0  0  0  0  0  0  0  0
    0.0784   -1.3558    0.0000 C   0  0  0  0  0  0  0  0  0  0  0  0
   -1.3036   -0.7727    0.0000 C   0  0  0  0  0  0  0  0  0  0  0  0
  2  1  1  6
  2  3  1  0
  3  4  1  0
  4  5  1  0
  5  6  1  1
  5  7  1  0
  7  8  1  0
  8  9  1  0
  7 10  1  0
 10 11  1  0
  2 12  1  0
 12 13  1  6
 13 14  1  0
 15 14  1  6
 15 16  1  0
 16 17  1  1
 17 18  1  1
 17 19  1  0
 20 19  1  1
 20 21  1  0
 21 22  1  0
 22 23  1  1
 22 24  1  0
 24 25  1  0
 25 26  1  0
 26 27  1  6
 26 28  1  0
 28 29  1  6
 29 30  1  0
 30 31  1  1
 30 32  1  0
 32 33  1  6
 32 12  1  0
 32 15  1  0
 28 16  1  0
 26 20  1  0
M  END
>  <MS_ID>  (2880) 
MS2979

>  <SMILES>  (2880) 
C[C@H](CC[C@H](O)C(CO)CO)[C@H]1CC[C@H]2[C@@H]3[C@H](O)C[C@@H]4C[C@H](O)CC[C@]4(C)[C@H]3C[C@H](O)[C@]12C

>  <Structure_dimension>  (2880) 
2D

$$$$
MS2980
     RDKit          2D

 40 43  0  0  0  0  0  0  0  0999 V2000
   -0.2104   -4.7315    0.0000 C   0  0  0  0  0  0  0  0  0  0  0  0
    0.3463   -3.3387    0.0000 C   0  0  0  0  0  0  0  0  0  0  0  0
   -0.5815   -2.1601    0.0000 C   0  0  0  0  0  0  0  0  0  0  0  0
   -2.0661   -2.3744    0.0000 C   0  0  0  0  0  0  0  0  0  0  0  0
   -2.9940   -1.1958    0.0000 C   0  0  0  0  0  0  0  0  0  0  0  0
   -2.4372    0.1971    0.0000 O   0  0  0  0  0  0  0  0  0  0  0  0
   -4.4786   -1.4100    0.0000 N   0  0  0  0  0  0  0  0  0  0  0  0
   -5.4065   -0.2314    0.0000 C   0  0  0  0  0  0  0  0  0  0  0  0
   -6.8911   -0.4457    0.0000 C   0  0  0  0  0  0  0  0  0  0  0  0
   -7.8190    0.7329    0.0000 C   0  0  0  0  0  0  0  0  0  0  0  0
   -9.3036    0.5187    0.0000 C   0  0  0  0  0  0  0  0  0  0  0  0
  -10.2314    1.6973    0.0000 N   0  0  0  0  0  0  0  0  0  0  0  0
  -11.7160    1.4830    0.0000 C   0  0  0  0  0  0  0  0  0  0  0  0
  -12.6439    2.6616    0.0000 N   0  0  0  0  0  0  0  0  0  0  0  0
  -12.2728    0.0902    0.0000 O   0  0  0  0  0  0  0  0  0  0  0  0
   -4.8497    1.1614    0.0000 C   0  0  0  0  0  0  0  0  0  0  0  0
   -3.3651    1.3757    0.0000 O   0  0  0  0  0  0  0  0  0  0  0  0
   -5.7776    2.3400    0.0000 O   0  0  0  0  0  0  0  0  0  0  0  0
    1.8310   -3.1244    0.0000 C   0  0  0  0  0  0  0  0  0  0  0  0
    2.8769   -4.1996    0.0000 C   0  0  0  0  0  0  0  0  0  0  0  0
    4.2227   -3.5371    0.0000 C   0  0  0  0  0  0  0  0  0  0  0  0
    4.0084   -2.0524    0.0000 C   0  0  0  0  0  0  0  0  0  0  0  0
    4.9684   -0.8998    0.0000 C   0  0  0  0  0  0  0  0  0  0  0  0
    6.4465   -1.1548    0.0000 C   0  0  0  0  0  0  0  0  0  0  0  0
    6.9648   -2.5625    0.0000 O   0  0  0  0  0  0  0  0  0  0  0  0
    7.4064   -0.0022    0.0000 C   0  0  0  0  0  0  0  0  0  0  0  0
    6.8882    1.4054    0.0000 C   0  0  0  0  0  0  0  0  0  0  0  0
    7.8481    2.5581    0.0000 C   0  0  0  0  0  0  0  0  0  0  0  0
    7.3299    3.9657    0.0000 C   0  0  0  0  0  0  0  0  0  0  0  0
    8.2898    5.1183    0.0000 O   0  0  0  0  0  0  0  0  0  0  0  0
    5.8517    4.2207    0.0000 C   0  0  0  0  0  0  0  0  0  0  0  0
    4.8918    3.0681    0.0000 C   0  0  0  0  0  0  0  0  0  0  0  0
    5.4100    1.6604    0.0000 C   0  0  0  0  0  0  0  0  0  0  0  0
    3.9319    1.9155    0.0000 C   0  0  0  0  0  0  0  0  0  0  0  0
    4.4501    0.5078    0.0000 C   0  0  0  0  0  0  0  0  0  0  0  0
    2.9719    0.7628    0.0000 C   0  0  0  0  0  0  0  0  0  0  0  0
    2.0120   -0.3898    0.0000 C   0  0  0  0  0  0  0  0  0  0  0  0
    0.5339   -0.1348    0.0000 O   0  0  0  0  0  0  0  0  0  0  0  0
    2.5303   -1.7974    0.0000 C   0  0  0  0  0  0  0  0  0  0  0  0
    1.0335   -1.6983    0.0000 C   0  0  0  0  0  0  0  0  0  0  0  0
  2  1  1  6
  2  3  1  0
  3  4  1  0
  4  5  1  0
  5  6  2  0
  5  7  1  0
  7  8  1  0
  8  9  1  1
  9 10  1  0
 10 11  1  0
 11 12  1  0
 12 13  1  0
 13 14  1  0
 13 15  2  0
  8 16  1  0
 16 17  2  0
 16 18  1  0
  2 19  1  0
 19 20  1  6
 20 21  1  0
 22 21  1  6
 22 23  1  0
 23 24  1  1
 24 25  1  1
 24 26  1  0
 27 26  1  1
 27 28  1  0
 28 29  1  0
 29 30  1  1
 29 31  1  0
 31 32  1  0
 32 33  1  0
 33 34  1  6
 33 35  1  0
 35 36  1  6
 36 37  1  0
 37 38  1  1
 37 39  1  0
 39 40  1  6
 39 19  1  0
 39 22  1  0
 35 23  1  0
 33 27  1  0
M  END
>  <MS_ID>  (2881) 
MS2980

>  <SMILES>  (2881) 
C[C@H](CCC(=O)N[C@@H](CCCNC(N)=O)C(=O)O)[C@H]1CC[C@H]2[C@@H]3[C@H](O)C[C@@H]4C[C@H](O)CC[C@]4(C)[C@H]3C[C@H](O)[C@]12C

>  <Structure_dimension>  (2881) 
2D

$$$$
MS2981
     RDKit          2D

 32 35  0  0  0  0  0  0  0  0999 V2000
   -4.7287    4.1003    0.0000 C   0  0  0  0  0  0  0  0  0  0  0  0
   -4.3803    2.6414    0.0000 C   0  0  0  0  0  0  0  0  0  0  0  0
   -2.9425    2.2137    0.0000 C   0  0  0  0  0  0  0  0  0  0  0  0
   -5.4695    1.6101    0.0000 C   0  0  0  0  0  0  0  0  0  0  0  0
   -6.9073    2.0378    0.0000 C   0  0  0  0  0  0  0  0  0  0  0  0
   -5.1210    0.1512    0.0000 C   0  0  0  0  0  0  0  0  0  0  0  0
   -6.2103   -0.8801    0.0000 O   0  0  0  0  0  0  0  0  0  0  0  0
   -3.6833   -0.2765    0.0000 C   0  0  0  0  0  0  0  0  0  0  0  0
   -2.5940    0.7547    0.0000 O   0  0  0  0  0  0  0  0  0  0  0  0
   -3.3348   -1.7355    0.0000 C   0  0  0  0  0  0  0  0  0  0  0  0
   -4.4241   -2.7668    0.0000 C   0  0  0  0  0  0  0  0  0  0  0  0
   -1.8971   -2.1632    0.0000 C   0  0  0  0  0  0  0  0  0  0  0  0
   -1.3980   -3.5777    0.0000 C   0  0  0  0  0  0  0  0  0  0  0  0
    0.1015   -3.5402    0.0000 C   0  0  0  0  0  0  0  0  0  0  0  0
    0.5292   -2.1024    0.0000 C   0  0  0  0  0  0  0  0  0  0  0  0
    1.8838   -1.4582    0.0000 C   0  0  0  0  0  0  0  0  0  0  0  0
    3.1190   -2.3093    0.0000 C   0  0  0  0  0  0  0  0  0  0  0  0
    4.4737   -1.6651    0.0000 C   0  0  0  0  0  0  0  0  0  0  0  0
    5.7089   -2.5161    0.0000 O   0  0  0  0  0  0  0  0  0  0  0  0
    4.5931   -0.1698    0.0000 C   0  0  0  0  0  0  0  0  0  0  0  0
    5.9477    0.4744    0.0000 C   0  0  0  0  0  0  0  0  0  0  0  0
    6.0671    1.9696    0.0000 C   0  0  0  0  0  0  0  0  0  0  0  0
    7.4217    2.6138    0.0000 O   0  0  0  0  0  0  0  0  0  0  0  0
    4.8319    2.8206    0.0000 C   0  0  0  0  0  0  0  0  0  0  0  0
    3.4773    2.1764    0.0000 C   0  0  0  0  0  0  0  0  0  0  0  0
    3.3579    0.6812    0.0000 C   0  0  0  0  0  0  0  0  0  0  0  0
    2.1227    1.5322    0.0000 C   0  0  0  0  0  0  0  0  0  0  0  0
    2.0033    0.0370    0.0000 C   0  0  0  0  0  0  0  0  0  0  0  0
    0.7680    0.8880    0.0000 C   0  0  0  0  0  0  0  0  0  0  0  0
   -0.5866    0.2438    0.0000 C   0  0  0  0  0  0  0  0  0  0  0  0
   -0.7060   -1.2514    0.0000 C   0  0  0  0  0  0  0  0  0  0  0  0
   -2.0234   -0.5341    0.0000 C   0  0  0  0  0  0  0  0  0  0  0  0
  1  2  1  0
  2  3  1  0
  2  4  1  0
  4  5  1  6
  4  6  1  0
  6  7  1  6
  6  8  1  0
  8  9  1  6
  8 10  1  0
 10 11  1  6
 10 12  1  0
 12 13  1  6
 13 14  1  0
 15 14  1  6
 15 16  1  0
 16 17  1  1
 17 18  1  0
 18 19  2  0
 18 20  1  0
 20 21  1  6
 21 22  1  0
 22 23  1  1
 22 24  1  0
 24 25  1  0
 25 26  1  0
 26 27  1  6
 26 28  1  0
 28 29  1  6
 29 30  1  0
 30 31  1  0
 31 32  1  6
 31 12  1  0
 31 15  1  0
 28 16  1  0
 26 20  1  0
M  END
>  <MS_ID>  (2882) 
MS2981

>  <SMILES>  (2882) 
CC(C)[C@@H](C)[C@@H](O)[C@H](O)[C@@H](C)[C@H]1CC[C@H]2[C@@H]3CC(=O)[C@H]4C[C@H](O)CC[C@]4(C)[C@H]3CC[C@]12C

>  <Structure_dimension>  (2882) 
2D

$$$$
MS2982
     RDKit          2D

 35 38  0  0  0  0  0  0  0  0999 V2000
   -2.2222   -4.2903    0.0000 C   0  0  0  0  0  0  0  0  0  0  0  0
   -1.5215   -2.9640    0.0000 C   0  0  0  0  0  0  0  0  0  0  0  0
   -2.3198   -1.6940    0.0000 C   0  0  0  0  0  0  0  0  0  0  0  0
   -3.8187   -1.7503    0.0000 C   0  0  0  0  0  0  0  0  0  0  0  0
   -4.6170   -0.4804    0.0000 C   0  0  0  0  0  0  0  0  0  0  0  0
   -3.9163    0.8459    0.0000 O   0  0  0  0  0  0  0  0  0  0  0  0
   -6.1159   -0.5367    0.0000 N   0  0  0  0  0  0  0  0  0  0  0  0
   -6.9142    0.7333    0.0000 C   0  0  0  0  0  0  0  0  0  0  0  0
   -8.4131    0.6769    0.0000 C   0  0  0  0  0  0  0  0  0  0  0  0
   -9.2114    1.9469    0.0000 S   0  0  0  0  0  0  0  0  0  0  0  0
  -10.4813    1.1486    0.0000 O   0  0  0  0  0  0  0  0  0  0  0  0
   -7.9414    2.7451    0.0000 O   0  0  0  0  0  0  0  0  0  0  0  0
  -10.0096    3.2169    0.0000 O   0  0  0  0  0  0  0  0  0  0  0  0
   -0.0226   -2.9077    0.0000 C   0  0  0  0  0  0  0  0  0  0  0  0
    0.9040   -4.0872    0.0000 C   0  0  0  0  0  0  0  0  0  0  0  0
    2.3122   -3.5705    0.0000 C   0  0  0  0  0  0  0  0  0  0  0  0
    2.2559   -2.0715    0.0000 C   0  0  0  0  0  0  0  0  0  0  0  0
    3.3321   -1.0267    0.0000 C   0  0  0  0  0  0  0  0  0  0  0  0
    4.7751   -1.4363    0.0000 C   0  0  0  0  0  0  0  0  0  0  0  0
    5.1418   -2.8908    0.0000 O   0  0  0  0  0  0  0  0  0  0  0  0
    5.8514   -0.3914    0.0000 C   0  0  0  0  0  0  0  0  0  0  0  0
    7.2943   -0.8011    0.0000 O   0  0  0  0  0  0  0  0  0  0  0  0
    5.4846    1.0630    0.0000 C   0  0  0  0  0  0  0  0  0  0  0  0
    6.5609    2.1079    0.0000 C   0  0  0  0  0  0  0  0  0  0  0  0
    6.1941    3.5623    0.0000 C   0  0  0  0  0  0  0  0  0  0  0  0
    7.2704    4.6072    0.0000 O   0  0  0  0  0  0  0  0  0  0  0  0
    4.7511    3.9720    0.0000 C   0  0  0  0  0  0  0  0  0  0  0  0
    3.6749    2.9271    0.0000 C   0  0  0  0  0  0  0  0  0  0  0  0
    4.0416    1.4727    0.0000 C   0  0  0  0  0  0  0  0  0  0  0  0
    2.5986    1.8823    0.0000 C   0  0  0  0  0  0  0  0  0  0  0  0
    2.9654    0.4278    0.0000 C   0  0  0  0  0  0  0  0  0  0  0  0
    1.5224    0.8374    0.0000 C   0  0  0  0  0  0  0  0  0  0  0  0
    0.4462   -0.2074    0.0000 C   0  0  0  0  0  0  0  0  0  0  0  0
    0.8129   -1.6619    0.0000 C   0  0  0  0  0  0  0  0  0  0  0  0
   -0.6650   -1.4053    0.0000 C   0  0  0  0  0  0  0  0  0  0  0  0
  2  1  1  6
  2  3  1  0
  3  4  1  0
  4  5  1  0
  5  6  2  0
  5  7  1  0
  7  8  1  0
  8  9  1  0
  9 10  1  0
 10 11  2  0
 10 12  2  0
 10 13  1  0
  2 14  1  0
 14 15  1  6
 15 16  1  0
 17 16  1  6
 17 18  1  0
 18 19  1  1
 19 20  1  1
 19 21  1  0
 21 22  1  6
 21 23  1  0
 23 24  1  1
 24 25  1  0
 25 26  1  1
 25 27  1  0
 27 28  1  0
 28 29  1  0
 29 30  1  6
 29 31  1  0
 31 32  1  6
 32 33  1  0
 33 34  1  0
 34 35  1  6
 34 14  1  0
 34 17  1  0
 31 18  1  0
 29 23  1  0
M  END
>  <MS_ID>  (2883) 
MS2982

>  <SMILES>  (2883) 
C[C@H](CCC(=O)NCCS(=O)(=O)O)[C@H]1CC[C@H]2[C@@H]3[C@H](O)[C@@H](O)[C@@H]4C[C@H](O)CC[C@]4(C)[C@H]3CC[C@]12C

>  <Structure_dimension>  (2883) 
2D

$$$$
MS2983
     RDKit          2D

 35 38  0  0  0  0  0  0  0  0999 V2000
   -0.8006   -4.6174    0.0000 C   0  0  0  0  0  0  0  0  0  0  0  0
   -0.1693   -3.2567    0.0000 C   0  0  0  0  0  0  0  0  0  0  0  0
   -1.0321   -2.0297    0.0000 C   0  0  0  0  0  0  0  0  0  0  0  0
   -2.5261   -2.1633    0.0000 C   0  0  0  0  0  0  0  0  0  0  0  0
   -3.3889   -0.9363    0.0000 C   0  0  0  0  0  0  0  0  0  0  0  0
   -2.7576    0.4244    0.0000 O   0  0  0  0  0  0  0  0  0  0  0  0
   -4.8829   -1.0700    0.0000 N   0  0  0  0  0  0  0  0  0  0  0  0
   -5.7457    0.1571    0.0000 C   0  0  0  0  0  0  0  0  0  0  0  0
   -7.2397    0.0234    0.0000 C   0  0  0  0  0  0  0  0  0  0  0  0
   -8.1025    1.2505    0.0000 C   0  0  0  0  0  0  0  0  0  0  0  0
   -9.5965    1.1168    0.0000 C   0  0  0  0  0  0  0  0  0  0  0  0
  -10.2278   -0.2439    0.0000 N   0  0  0  0  0  0  0  0  0  0  0  0
  -10.4593    2.3438    0.0000 C   0  0  0  0  0  0  0  0  0  0  0  0
   -9.8280    3.7045    0.0000 O   0  0  0  0  0  0  0  0  0  0  0  0
  -11.9533    2.2102    0.0000 O   0  0  0  0  0  0  0  0  0  0  0  0
    1.3247   -3.1231    0.0000 C   0  0  0  0  0  0  0  0  0  0  0  0
    2.3110   -4.2532    0.0000 C   0  0  0  0  0  0  0  0  0  0  0  0
    3.6906   -3.6644    0.0000 C   0  0  0  0  0  0  0  0  0  0  0  0
    3.5570   -2.1704    0.0000 C   0  0  0  0  0  0  0  0  0  0  0  0
    4.5778   -1.0713    0.0000 C   0  0  0  0  0  0  0  0  0  0  0  0
    6.0400   -1.4059    0.0000 C   0  0  0  0  0  0  0  0  0  0  0  0
    7.0609   -0.3068    0.0000 C   0  0  0  0  0  0  0  0  0  0  0  0
    6.6195    1.1267    0.0000 C   0  0  0  0  0  0  0  0  0  0  0  0
    7.6404    2.2258    0.0000 C   0  0  0  0  0  0  0  0  0  0  0  0
    7.1990    3.6594    0.0000 C   0  0  0  0  0  0  0  0  0  0  0  0
    8.2198    4.7584    0.0000 O   0  0  0  0  0  0  0  0  0  0  0  0
    5.7368    3.9939    0.0000 C   0  0  0  0  0  0  0  0  0  0  0  0
    4.7159    2.8949    0.0000 C   0  0  0  0  0  0  0  0  0  0  0  0
    5.1573    1.4613    0.0000 C   0  0  0  0  0  0  0  0  0  0  0  0
    3.6951    1.7959    0.0000 C   0  0  0  0  0  0  0  0  0  0  0  0
    4.1365    0.3623    0.0000 C   0  0  0  0  0  0  0  0  0  0  0  0
    2.6742    0.6968    0.0000 C   0  0  0  0  0  0  0  0  0  0  0  0
    1.6534   -0.4022    0.0000 C   0  0  0  0  0  0  0  0  0  0  0  0
    2.0948   -1.8358    0.0000 C   0  0  0  0  0  0  0  0  0  0  0  0
    0.6056   -1.6559    0.0000 C   0  0  0  0  0  0  0  0  0  0  0  0
  2  1  1  6
  2  3  1  0
  3  4  1  0
  4  5  1  0
  5  6  2  0
  5  7  1  0
  7  8  1  0
  8  9  1  0
  9 10  1  0
 10 11  1  0
 11 12  1  6
 11 13  1  0
 13 14  2  0
 13 15  1  0
  2 16  1  0
 16 17  1  6
 17 18  1  0
 19 18  1  6
 19 20  1  0
 20 21  1  1
 21 22  1  0
 23 22  1  1
 23 24  1  0
 24 25  1  0
 25 26  1  1
 25 27  1  0
 27 28  1  0
 28 29  1  0
 29 30  1  6
 29 31  1  0
 31 32  1  6
 32 33  1  0
 33 34  1  0
 34 35  1  6
 34 16  1  0
 34 19  1  0
 31 20  1  0
 29 23  1  0
M  END
>  <MS_ID>  (2884) 
MS2983

>  <SMILES>  (2884) 
C[C@H](CCC(=O)NCCC[C@H](N)C(=O)O)[C@H]1CC[C@H]2[C@@H]3CC[C@@H]4C[C@H](O)CC[C@]4(C)[C@H]3CC[C@]12C

>  <Structure_dimension>  (2884) 
2D

$$$$
MS2984
     RDKit          2D

 29 32  0  0  0  0  0  0  0  0999 V2000
   -4.7033    4.1635    0.0000 C   0  0  0  0  0  0  0  0  0  0  0  0
   -4.4022    2.6941    0.0000 C   0  0  0  0  0  0  0  0  0  0  0  0
   -2.9790    2.2201    0.0000 C   0  0  0  0  0  0  0  0  0  0  0  0
   -5.5242    1.6986    0.0000 C   0  0  0  0  0  0  0  0  0  0  0  0
   -6.9474    2.1725    0.0000 C   0  0  0  0  0  0  0  0  0  0  0  0
   -5.2231    0.2291    0.0000 C   0  0  0  0  0  0  0  0  0  0  0  0
   -3.7999   -0.2448    0.0000 C   0  0  0  0  0  0  0  0  0  0  0  0
   -3.4988   -1.7143    0.0000 C   0  0  0  0  0  0  0  0  0  0  0  0
   -4.6209   -2.7098    0.0000 C   0  0  0  0  0  0  0  0  0  0  0  0
   -2.0757   -2.1883    0.0000 C   0  0  0  0  0  0  0  0  0  0  0  0
   -1.6226   -3.6182    0.0000 C   0  0  0  0  0  0  0  0  0  0  0  0
   -0.1226   -3.6292    0.0000 C   0  0  0  0  0  0  0  0  0  0  0  0
    0.3513   -2.2060    0.0000 C   0  0  0  0  0  0  0  0  0  0  0  0
    1.7261   -1.6060    0.0000 C   0  0  0  0  0  0  0  0  0  0  0  0
    2.9331   -2.4965    0.0000 C   0  0  0  0  0  0  0  0  0  0  0  0
    4.3078   -1.8965    0.0000 C   0  0  0  0  0  0  0  0  0  0  0  0
    4.4756   -0.4059    0.0000 C   0  0  0  0  0  0  0  0  0  0  0  0
    5.8503    0.1942    0.0000 C   0  0  0  0  0  0  0  0  0  0  0  0
    6.0180    1.6848    0.0000 C   0  0  0  0  0  0  0  0  0  0  0  0
    7.3928    2.2848    0.0000 O   0  0  0  0  0  0  0  0  0  0  0  0
    4.8110    2.5753    0.0000 C   0  0  0  0  0  0  0  0  0  0  0  0
    3.4362    1.9753    0.0000 C   0  0  0  0  0  0  0  0  0  0  0  0
    3.2685    0.4847    0.0000 C   0  0  0  0  0  0  0  0  0  0  0  0
    2.0615    1.3752    0.0000 C   0  0  0  0  0  0  0  0  0  0  0  0
    1.8938   -0.1154    0.0000 C   0  0  0  0  0  0  0  0  0  0  0  0
    0.6867    0.7751    0.0000 C   0  0  0  0  0  0  0  0  0  0  0  0
   -0.6880    0.1751    0.0000 C   0  0  0  0  0  0  0  0  0  0  0  0
   -0.8557   -1.3155    0.0000 C   0  0  0  0  0  0  0  0  0  0  0  0
   -2.1492   -0.5560    0.0000 C   0  0  0  0  0  0  0  0  0  0  0  0
  1  2  1  0
  2  3  1  0
  2  4  1  0
  4  5  1  1
  4  6  1  0
  6  7  2  0
  7  8  1  0
  8  9  1  6
  8 10  1  0
 10 11  1  6
 11 12  1  0
 13 12  1  6
 13 14  1  0
 14 15  1  1
 15 16  1  0
 17 16  1  6
 17 18  1  0
 18 19  1  0
 19 20  1  6
 19 21  1  0
 21 22  1  0
 22 23  1  0
 23 24  1  6
 23 25  1  0
 25 26  1  6
 26 27  1  0
 27 28  1  0
 28 29  1  6
 28 10  1  0
 28 13  1  0
 25 14  1  0
 23 17  1  0
M  END
>  <MS_ID>  (2885) 
MS2984

>  <SMILES>  (2885) 
CC(C)[C@H](C)/C=C/[C@@H](C)[C@H]1CC[C@H]2[C@@H]3CC[C@H]4C[C@@H](O)CC[C@]4(C)[C@H]3CC[C@]12C

>  <Structure_dimension>  (2885) 
2D

$$$$
MS2985
     RDKit          2D

 31 34  0  0  0  0  0  0  0  0999 V2000
   -5.2977    4.0041    0.0000 C   0  0  0  0  0  0  0  0  0  0  0  0
   -4.9145    2.5539    0.0000 C   0  0  0  0  0  0  0  0  0  0  0  0
   -3.4670    2.1606    0.0000 C   0  0  0  0  0  0  0  0  0  0  0  0
   -5.9789    1.4970    0.0000 C   0  0  0  0  0  0  0  0  0  0  0  0
   -7.4264    1.8903    0.0000 C   0  0  0  0  0  0  0  0  0  0  0  0
   -5.5958    0.0467    0.0000 C   0  0  0  0  0  0  0  0  0  0  0  0
   -4.1482   -0.3466    0.0000 C   0  0  0  0  0  0  0  0  0  0  0  0
   -3.7651   -1.7968    0.0000 C   0  0  0  0  0  0  0  0  0  0  0  0
   -4.8295   -2.8538    0.0000 C   0  0  0  0  0  0  0  0  0  0  0  0
   -2.3176   -2.1901    0.0000 C   0  0  0  0  0  0  0  0  0  0  0  0
   -1.7849   -3.5924    0.0000 C   0  0  0  0  0  0  0  0  0  0  0  0
   -0.2867   -3.5191    0.0000 C   0  0  0  0  0  0  0  0  0  0  0  0
    0.1066   -2.0716    0.0000 C   0  0  0  0  0  0  0  0  0  0  0  0
    1.4455   -1.3953    0.0000 C   0  0  0  0  0  0  0  0  0  0  0  0
    2.7006   -2.2167    0.0000 C   0  0  0  0  0  0  0  0  0  0  0  0
    4.0395   -1.5404    0.0000 C   0  0  0  0  0  0  0  0  0  0  0  0
    5.2946   -2.3617    0.0000 O   0  0  0  0  0  0  0  0  0  0  0  0
    4.1233   -0.0427    0.0000 C   0  0  0  0  0  0  0  0  0  0  0  0
    5.3784   -0.8641    0.0000 O   0  0  0  0  0  0  0  0  0  0  0  0
    5.4621    0.6336    0.0000 C   0  0  0  0  0  0  0  0  0  0  0  0
    5.5459    2.1313    0.0000 C   0  0  0  0  0  0  0  0  0  0  0  0
    6.8848    2.8076    0.0000 O   0  0  0  0  0  0  0  0  0  0  0  0
    4.2908    2.9526    0.0000 C   0  0  0  0  0  0  0  0  0  0  0  0
    2.9519    2.2763    0.0000 C   0  0  0  0  0  0  0  0  0  0  0  0
    2.8681    0.7787    0.0000 C   0  0  0  0  0  0  0  0  0  0  0  0
    1.6130    1.6000    0.0000 C   0  0  0  0  0  0  0  0  0  0  0  0
    1.5292    0.1024    0.0000 C   0  0  0  0  0  0  0  0  0  0  0  0
    0.2741    0.9237    0.0000 C   0  0  0  0  0  0  0  0  0  0  0  0
   -1.0648    0.2474    0.0000 C   0  0  0  0  0  0  0  0  0  0  0  0
   -1.1485   -1.2502    0.0000 C   0  0  0  0  0  0  0  0  0  0  0  0
   -2.4827   -0.5646    0.0000 C   0  0  0  0  0  0  0  0  0  0  0  0
  1  2  1  0
  2  3  1  0
  2  4  1  0
  4  5  1  1
  4  6  1  0
  6  7  1  0
  7  8  1  0
  8  9  1  6
  8 10  1  0
 10 11  1  6
 11 12  1  0
 13 12  1  6
 13 14  1  0
 14 15  1  1
 15 16  1  0
 16 17  1  6
 16 18  1  0
 18 19  1  1
 18 20  1  0
 20 21  1  0
 21 22  1  6
 21 23  1  0
 23 24  1  0
 24 25  1  0
 25 26  1  6
 25 27  1  0
 27 28  1  6
 28 29  1  0
 29 30  1  0
 30 31  1  6
 30 10  1  0
 30 13  1  0
 27 14  1  0
 25 18  1  0
M  END
>  <MS_ID>  (2886) 
MS2985

>  <SMILES>  (2886) 
CC(C)[C@H](C)CC[C@@H](C)[C@H]1CC[C@H]2[C@@H]3C[C@@H](O)[C@@]4(O)C[C@@H](O)CC[C@]4(C)[C@H]3CC[C@]12C

>  <Structure_dimension>  (2886) 
2D

$$$$
MS2986
     RDKit          2D

 39 42  0  0  0  0  0  0  0  0999 V2000
   -0.1970   -4.7350    0.0000 C   0  0  0  0  0  0  0  0  0  0  0  0
    0.3598   -3.3422    0.0000 C   0  0  0  0  0  0  0  0  0  0  0  0
   -0.5680   -2.1635    0.0000 C   0  0  0  0  0  0  0  0  0  0  0  0
   -2.0526   -2.3777    0.0000 C   0  0  0  0  0  0  0  0  0  0  0  0
   -2.9804   -1.1990    0.0000 C   0  0  0  0  0  0  0  0  0  0  0  0
   -2.4235    0.1938    0.0000 O   0  0  0  0  0  0  0  0  0  0  0  0
   -4.4650   -1.4132    0.0000 N   0  0  0  0  0  0  0  0  0  0  0  0
   -5.3928   -0.2346    0.0000 C   0  0  0  0  0  0  0  0  0  0  0  0
   -6.8774   -0.4487    0.0000 C   0  0  0  0  0  0  0  0  0  0  0  0
   -7.8052    0.7299    0.0000 C   0  0  0  0  0  0  0  0  0  0  0  0
   -9.2899    0.5158    0.0000 C   0  0  0  0  0  0  0  0  0  0  0  0
  -10.2176    1.6944    0.0000 N   0  0  0  0  0  0  0  0  0  0  0  0
  -11.7023    1.4802    0.0000 C   0  0  0  0  0  0  0  0  0  0  0  0
  -12.2591    0.0874    0.0000 N   0  0  0  0  0  0  0  0  0  0  0  0
  -12.6301    2.6589    0.0000 N   0  0  0  0  0  0  0  0  0  0  0  0
   -4.8360    1.1583    0.0000 C   0  0  0  0  0  0  0  0  0  0  0  0
   -3.3513    1.3724    0.0000 O   0  0  0  0  0  0  0  0  0  0  0  0
   -5.7637    2.3369    0.0000 O   0  0  0  0  0  0  0  0  0  0  0  0
    1.8445   -3.1280    0.0000 C   0  0  0  0  0  0  0  0  0  0  0  0
    2.8904   -4.2032    0.0000 C   0  0  0  0  0  0  0  0  0  0  0  0
    4.2362   -3.5408    0.0000 C   0  0  0  0  0  0  0  0  0  0  0  0
    4.0220   -2.0561    0.0000 C   0  0  0  0  0  0  0  0  0  0  0  0
    4.9820   -0.9036    0.0000 C   0  0  0  0  0  0  0  0  0  0  0  0
    6.4601   -1.1587    0.0000 C   0  0  0  0  0  0  0  0  0  0  0  0
    6.9783   -2.5663    0.0000 O   0  0  0  0  0  0  0  0  0  0  0  0
    7.4201   -0.0061    0.0000 C   0  0  0  0  0  0  0  0  0  0  0  0
    6.9020    1.4016    0.0000 C   0  0  0  0  0  0  0  0  0  0  0  0
    7.8620    2.5541    0.0000 C   0  0  0  0  0  0  0  0  0  0  0  0
    7.3438    3.9618    0.0000 C   0  0  0  0  0  0  0  0  0  0  0  0
    8.3038    5.1144    0.0000 O   0  0  0  0  0  0  0  0  0  0  0  0
    5.8657    4.2169    0.0000 C   0  0  0  0  0  0  0  0  0  0  0  0
    4.9057    3.0643    0.0000 C   0  0  0  0  0  0  0  0  0  0  0  0
    5.4238    1.6567    0.0000 C   0  0  0  0  0  0  0  0  0  0  0  0
    3.9457    1.9118    0.0000 C   0  0  0  0  0  0  0  0  0  0  0  0
    4.4638    0.5041    0.0000 C   0  0  0  0  0  0  0  0  0  0  0  0
    2.9857    0.7592    0.0000 C   0  0  0  0  0  0  0  0  0  0  0  0
    2.0257   -0.3934    0.0000 C   0  0  0  0  0  0  0  0  0  0  0  0
    2.5438   -1.8010    0.0000 C   0  0  0  0  0  0  0  0  0  0  0  0
    1.0471   -1.7018    0.0000 C   0  0  0  0  0  0  0  0  0  0  0  0
  2  1  1  6
  2  3  1  0
  3  4  1  0
  4  5  1  0
  5  6  2  0
  5  7  1  0
  7  8  1  0
  8  9  1  1
  9 10  1  0
 10 11  1  0
 11 12  1  0
 12 13  1  0
 13 14  2  0
 13 15  1  0
  8 16  1  0
 16 17  2  0
 16 18  1  0
  2 19  1  0
 19 20  1  6
 20 21  1  0
 22 21  1  6
 22 23  1  0
 23 24  1  1
 24 25  1  6
 24 26  1  0
 27 26  1  1
 27 28  1  0
 28 29  1  0
 29 30  1  1
 29 31  1  0
 31 32  1  0
 32 33  1  0
 33 34  1  6
 33 35  1  0
 35 36  1  6
 36 37  1  0
 37 38  1  0
 38 39  1  6
 38 19  1  0
 38 22  1  0
 35 23  1  0
 33 27  1  0
M  END
>  <MS_ID>  (2887) 
MS2986

>  <SMILES>  (2887) 
C[C@H](CCC(=O)N[C@@H](CCCNC(=N)N)C(=O)O)[C@H]1CC[C@H]2[C@@H]3[C@@H](O)C[C@@H]4C[C@H](O)CC[C@]4(C)[C@H]3CC[C@]12C

>  <Structure_dimension>  (2887) 
2D

$$$$
MS2987
     RDKit          2D

 31 34  0  0  0  0  0  0  0  0999 V2000
   -7.4264    1.8903    0.0000 C   0  0  0  0  0  0  0  0  0  0  0  0
   -5.9789    1.4970    0.0000 C   0  0  0  0  0  0  0  0  0  0  0  0
   -5.5958    0.0467    0.0000 C   0  0  0  0  0  0  0  0  0  0  0  0
   -4.1482   -0.3466    0.0000 C   0  0  0  0  0  0  0  0  0  0  0  0
   -3.7651   -1.7968    0.0000 C   0  0  0  0  0  0  0  0  0  0  0  0
   -4.8295   -2.8538    0.0000 C   0  0  0  0  0  0  0  0  0  0  0  0
   -2.3176   -2.1901    0.0000 C   0  0  0  0  0  0  0  0  0  0  0  0
   -1.7849   -3.5924    0.0000 C   0  0  0  0  0  0  0  0  0  0  0  0
   -0.2867   -3.5191    0.0000 C   0  0  0  0  0  0  0  0  0  0  0  0
    0.1066   -2.0716    0.0000 C   0  0  0  0  0  0  0  0  0  0  0  0
    1.4455   -1.3953    0.0000 C   0  0  0  0  0  0  0  0  0  0  0  0
    2.7006   -2.2167    0.0000 C   0  0  0  0  0  0  0  0  0  0  0  0
    4.0395   -1.5404    0.0000 C   0  0  0  0  0  0  0  0  0  0  0  0
    5.2946   -2.3617    0.0000 O   0  0  0  0  0  0  0  0  0  0  0  0
    4.1233   -0.0427    0.0000 C   0  0  0  0  0  0  0  0  0  0  0  0
    5.3784   -0.8641    0.0000 O   0  0  0  0  0  0  0  0  0  0  0  0
    5.4621    0.6336    0.0000 C   0  0  0  0  0  0  0  0  0  0  0  0
    5.5459    2.1313    0.0000 C   0  0  0  0  0  0  0  0  0  0  0  0
    6.8848    2.8076    0.0000 O   0  0  0  0  0  0  0  0  0  0  0  0
    4.2908    2.9526    0.0000 C   0  0  0  0  0  0  0  0  0  0  0  0
    2.9519    2.2763    0.0000 C   0  0  0  0  0  0  0  0  0  0  0  0
    2.8681    0.7787    0.0000 C   0  0  0  0  0  0  0  0  0  0  0  0
    1.6130    1.6000    0.0000 C   0  0  0  0  0  0  0  0  0  0  0  0
    1.5292    0.1024    0.0000 C   0  0  0  0  0  0  0  0  0  0  0  0
    0.2741    0.9237    0.0000 C   0  0  0  0  0  0  0  0  0  0  0  0
   -1.0648    0.2474    0.0000 C   0  0  0  0  0  0  0  0  0  0  0  0
   -1.1485   -1.2502    0.0000 C   0  0  0  0  0  0  0  0  0  0  0  0
   -2.4827   -0.5646    0.0000 C   0  0  0  0  0  0  0  0  0  0  0  0
   -4.9145    2.5539    0.0000 C   0  0  0  0  0  0  0  0  0  0  0  0
   -5.2977    4.0041    0.0000 C   0  0  0  0  0  0  0  0  0  0  0  0
   -3.4670    2.1606    0.0000 C   0  0  0  0  0  0  0  0  0  0  0  0
  1  2  2  0
  2  3  1  0
  3  4  1  0
  4  5  1  0
  5  6  1  6
  5  7  1  0
  7  8  1  6
  8  9  1  0
 10  9  1  6
 10 11  1  0
 11 12  1  1
 12 13  1  0
 13 14  1  6
 13 15  1  0
 15 16  1  1
 15 17  1  0
 17 18  1  0
 18 19  1  6
 18 20  1  0
 20 21  1  0
 21 22  1  0
 22 23  1  6
 22 24  1  0
 24 25  1  6
 25 26  1  0
 26 27  1  0
 27 28  1  6
  2 29  1  0
 29 30  1  0
 29 31  1  0
 27  7  1  0
 27 10  1  0
 24 11  1  0
 22 15  1  0
M  END
>  <MS_ID>  (2888) 
MS2987

>  <SMILES>  (2888) 
C=C(CC[C@@H](C)[C@H]1CC[C@H]2[C@@H]3C[C@@H](O)[C@@]4(O)C[C@@H](O)CC[C@]4(C)[C@H]3CC[C@]12C)C(C)C

>  <Structure_dimension>  (2888) 
2D

$$$$
MS2988
     RDKit          2D

 27 30  0  0  0  0  0  0  0  0999 V2000
   -7.4370   -0.1623    0.0000 C   0  0  0  0  0  0  0  0  0  0  0  0
   -6.0672    0.4489    0.0000 C   0  0  0  0  0  0  0  0  0  0  0  0
   -5.9116    1.9409    0.0000 O   0  0  0  0  0  0  0  0  0  0  0  0
   -4.8529   -0.4318    0.0000 C   0  0  0  0  0  0  0  0  0  0  0  0
   -4.8517   -1.9318    0.0000 C   0  0  0  0  0  0  0  0  0  0  0  0
   -3.4248   -2.3941    0.0000 C   0  0  0  0  0  0  0  0  0  0  0  0
   -2.5441   -1.1799    0.0000 C   0  0  0  0  0  0  0  0  0  0  0  0
   -1.0524   -1.0219    0.0000 C   0  0  0  0  0  0  0  0  0  0  0  0
   -0.1697   -2.2347    0.0000 C   0  0  0  0  0  0  0  0  0  0  0  0
    1.3219   -2.0767    0.0000 C   0  0  0  0  0  0  0  0  0  0  0  0
    1.9309   -0.7059    0.0000 C   0  0  0  0  0  0  0  0  0  0  0  0
    3.4226   -0.5479    0.0000 C   0  0  0  0  0  0  0  0  0  0  0  0
    4.0316    0.8229    0.0000 C   0  0  0  0  0  0  0  0  0  0  0  0
    5.5232    0.9809    0.0000 O   0  0  0  0  0  0  0  0  0  0  0  0
    6.4059   -0.2319    0.0000 S   0  0  0  0  0  0  0  0  0  0  0  0
    5.1931   -1.1146    0.0000 O   0  0  0  0  0  0  0  0  0  0  0  0
    7.6187    0.6507    0.0000 O   0  0  0  0  0  0  0  0  0  0  0  0
    7.2885   -1.4448    0.0000 O   0  0  0  0  0  0  0  0  0  0  0  0
    3.1489    2.0357    0.0000 C   0  0  0  0  0  0  0  0  0  0  0  0
    1.6573    1.8777    0.0000 C   0  0  0  0  0  0  0  0  0  0  0  0
    1.0483    0.5069    0.0000 C   0  0  0  0  0  0  0  0  0  0  0  0
    0.1656    1.7197    0.0000 C   0  0  0  0  0  0  0  0  0  0  0  0
   -0.4434    0.3489    0.0000 C   0  0  0  0  0  0  0  0  0  0  0  0
   -1.3260    1.5617    0.0000 C   0  0  0  0  0  0  0  0  0  0  0  0
   -2.8177    1.4037    0.0000 C   0  0  0  0  0  0  0  0  0  0  0  0
   -3.4267    0.0329    0.0000 C   0  0  0  0  0  0  0  0  0  0  0  0
   -4.4313    1.1468    0.0000 C   0  0  0  0  0  0  0  0  0  0  0  0
  1  2  1  0
  2  3  2  0
  4  2  1  6
  4  5  1  0
  5  6  1  0
  7  6  1  6
  7  8  1  0
  8  9  1  1
  9 10  1  0
 11 10  1  1
 11 12  1  0
 12 13  1  0
 13 14  1  6
 14 15  1  0
 15 16  2  0
 15 17  2  0
 15 18  1  0
 13 19  1  0
 19 20  1  0
 20 21  1  0
 21 22  1  6
 21 23  1  0
 23 24  1  6
 24 25  1  0
 25 26  1  0
 26 27  1  6
 26  4  1  0
 26  7  1  0
 23  8  1  0
 21 11  1  0
M  END
>  <MS_ID>  (2889) 
MS2988

>  <SMILES>  (2889) 
CC(=O)[C@H]1CC[C@H]2[C@@H]3CC[C@@H]4C[C@@H](OS(=O)(=O)O)CC[C@]4(C)[C@H]3CC[C@]12C

>  <Structure_dimension>  (2889) 
2D

$$$$
MS2989
     RDKit          2D

 26 29  0  0  0  0  0  0  0  0999 V2000
    2.0291   -1.4220    0.0000 C   0  0  0  0  0  0  0  0  0  0  0  0
    2.7100   -0.0854    0.0000 C   0  0  0  0  0  0  0  0  0  0  0  0
    3.5271   -1.3433    0.0000 C   0  0  0  0  0  0  0  0  0  0  0  0
    5.0250   -1.2646    0.0000 C   0  0  0  0  0  0  0  0  0  0  0  0
    5.7058    0.0720    0.0000 C   0  0  0  0  0  0  0  0  0  0  0  0
    7.2038    0.1507    0.0000 O   0  0  0  0  0  0  0  0  0  0  0  0
    4.8887    1.3299    0.0000 C   0  0  0  0  0  0  0  0  0  0  0  0
    3.3908    1.2512    0.0000 C   0  0  0  0  0  0  0  0  0  0  0  0
    2.5737    2.5091    0.0000 C   0  0  0  0  0  0  0  0  0  0  0  0
    1.0757    2.4304    0.0000 C   0  0  0  0  0  0  0  0  0  0  0  0
    0.3949    1.0938    0.0000 C   0  0  0  0  0  0  0  0  0  0  0  0
    1.2120   -0.1641    0.0000 C   0  0  0  0  0  0  0  0  0  0  0  0
    0.5312   -1.5007    0.0000 C   0  0  0  0  0  0  0  0  0  0  0  0
    1.3483   -2.7586    0.0000 O   0  0  0  0  0  0  0  0  0  0  0  0
   -0.9667   -1.5794    0.0000 C   0  0  0  0  0  0  0  0  0  0  0  0
   -1.7838   -0.3214    0.0000 C   0  0  0  0  0  0  0  0  0  0  0  0
   -2.4412   -1.6697    0.0000 C   0  0  0  0  0  0  0  0  0  0  0  0
   -1.1030    1.0151    0.0000 C   0  0  0  0  0  0  0  0  0  0  0  0
   -2.1638    2.0757    0.0000 C   0  0  0  0  0  0  0  0  0  0  0  0
   -3.5002    1.3945    0.0000 C   0  0  0  0  0  0  0  0  0  0  0  0
   -3.2654   -0.0870    0.0000 C   0  0  0  0  0  0  0  0  0  0  0  0
   -3.5257   -1.5642    0.0000 O   0  0  0  0  0  0  0  0  0  0  0  0
   -4.7633   -0.1657    0.0000 C   0  0  0  0  0  0  0  0  0  0  0  0
   -5.4442   -1.5022    0.0000 O   0  0  0  0  0  0  0  0  0  0  0  0
   -5.5804    1.0923    0.0000 C   0  0  0  0  0  0  0  0  0  0  0  0
   -7.0784    1.0136    0.0000 O   0  0  0  0  0  0  0  0  0  0  0  0
  2  1  1  1
  2  3  1  0
  3  4  1  0
  4  5  1  0
  5  6  2  0
  5  7  1  0
  8  7  1  1
  8  9  1  0
  9 10  1  0
 11 10  1  6
 11 12  1  0
 12 13  1  1
 13 14  1  1
 13 15  1  0
 15 16  1  0
 16 17  1  1
 16 18  1  0
 18 19  1  1
 19 20  1  0
 20 21  1  0
 21 22  1  6
 21 23  1  0
 23 24  2  0
 23 25  1  0
 25 26  1  0
  8  2  1  0
 18 11  1  0
 12  2  1  0
 21 16  1  0
M  END
>  <MS_ID>  (2890) 
MS2989

>  <SMILES>  (2890) 
C[C@]12CCC(=O)C[C@@H]1CC[C@@H]1[C@@H]2[C@@H](O)C[C@@]2(C)[C@H]1CC[C@]2(O)C(=O)CO

>  <Structure_dimension>  (2890) 
2D

$$$$
MS2990
     RDKit          2D

 30 33  0  0  0  0  0  0  0  0999 V2000
   -4.5558    2.6122    0.0000 C   0  0  0  0  0  0  0  0  0  0  0  0
   -3.3295    1.7483    0.0000 S   0  0  0  0  0  0  0  0  0  0  0  0
   -3.4645    0.2544    0.0000 C   0  0  0  0  0  0  0  0  0  0  0  0
   -4.8257   -0.3757    0.0000 C   0  0  0  0  0  0  0  0  0  0  0  0
   -6.0520    0.4882    0.0000 C   0  0  0  0  0  0  0  0  0  0  0  0
   -7.4133   -0.1419    0.0000 C   0  0  0  0  0  0  0  0  0  0  0  0
   -7.5483   -1.6358    0.0000 O   0  0  0  0  0  0  0  0  0  0  0  0
   -8.6396    0.7220    0.0000 O   0  0  0  0  0  0  0  0  0  0  0  0
   -2.2382   -0.6095    0.0000 C   0  0  0  0  0  0  0  0  0  0  0  0
   -2.2163   -2.1093    0.0000 C   0  0  0  0  0  0  0  0  0  0  0  0
   -0.7831   -2.5519    0.0000 C   0  0  0  0  0  0  0  0  0  0  0  0
    0.0808   -1.3256    0.0000 C   0  0  0  0  0  0  0  0  0  0  0  0
    1.5701   -1.1471    0.0000 C   0  0  0  0  0  0  0  0  0  0  0  0
    2.4694   -2.3476    0.0000 C   0  0  0  0  0  0  0  0  0  0  0  0
    1.8794   -3.7267    0.0000 O   0  0  0  0  0  0  0  0  0  0  0  0
    3.9588   -2.1690    0.0000 C   0  0  0  0  0  0  0  0  0  0  0  0
    4.5488   -0.7899    0.0000 C   0  0  0  0  0  0  0  0  0  0  0  0
    6.0381   -0.6113    0.0000 C   0  0  0  0  0  0  0  0  0  0  0  0
    6.6281    0.7677    0.0000 C   0  0  0  0  0  0  0  0  0  0  0  0
    8.1174    0.9463    0.0000 O   0  0  0  0  0  0  0  0  0  0  0  0
    5.7288    1.9683    0.0000 C   0  0  0  0  0  0  0  0  0  0  0  0
    4.2395    1.7897    0.0000 C   0  0  0  0  0  0  0  0  0  0  0  0
    3.6494    0.4106    0.0000 C   0  0  0  0  0  0  0  0  0  0  0  0
    2.7501    1.6111    0.0000 C   0  0  0  0  0  0  0  0  0  0  0  0
    2.1601    0.2320    0.0000 C   0  0  0  0  0  0  0  0  0  0  0  0
    1.2608    1.4325    0.0000 C   0  0  0  0  0  0  0  0  0  0  0  0
   -0.2285    1.2540    0.0000 C   0  0  0  0  0  0  0  0  0  0  0  0
   -1.1279    2.4545    0.0000 O   0  0  0  0  0  0  0  0  0  0  0  0
   -0.8185   -0.1251    0.0000 C   0  0  0  0  0  0  0  0  0  0  0  0
   -1.8384    0.9748    0.0000 C   0  0  0  0  0  0  0  0  0  0  0  0
  1  2  1  0
  2  3  1  0
  3  4  1  1
  4  5  1  0
  5  6  1  0
  6  7  2  0
  6  8  1  0
  3  9  1  0
  9 10  1  6
 10 11  1  0
 12 11  1  6
 12 13  1  0
 13 14  1  1
 14 15  1  6
 14 16  1  0
 17 16  1  1
 17 18  1  0
 18 19  1  0
 19 20  1  1
 19 21  1  0
 21 22  1  0
 22 23  1  0
 23 24  1  6
 23 25  1  0
 25 26  1  6
 26 27  1  0
 27 28  2  0
 27 29  1  0
 29 30  1  6
 29  9  1  0
 29 12  1  0
 25 13  1  0
 23 17  1  0
M  END
>  <MS_ID>  (2891) 
MS2990

>  <SMILES>  (2891) 
CS[C@H](CCC(=O)O)[C@H]1CC[C@H]2[C@@H]3[C@@H](O)C[C@@H]4C[C@H](O)CC[C@]4(C)[C@H]3CC(=O)[C@]12C

>  <Structure_dimension>  (2891) 
2D

$$$$
MS2991
     RDKit          2D

 25 28  0  0  0  0  0  0  0  0999 V2000
    2.0644   -1.5574    0.0000 C   0  0  0  0  0  0  0  0  0  0  0  0
    2.7613   -0.2292    0.0000 C   0  0  0  0  0  0  0  0  0  0  0  0
    3.5632   -1.4969    0.0000 C   0  0  0  0  0  0  0  0  0  0  0  0
    5.0619   -1.4363    0.0000 C   0  0  0  0  0  0  0  0  0  0  0  0
    5.7589   -0.1080    0.0000 C   0  0  0  0  0  0  0  0  0  0  0  0
    7.2577   -0.0475    0.0000 O   0  0  0  0  0  0  0  0  0  0  0  0
    4.9571    1.1597    0.0000 C   0  0  0  0  0  0  0  0  0  0  0  0
    3.4583    1.0991    0.0000 C   0  0  0  0  0  0  0  0  0  0  0  0
    2.6564    2.3668    0.0000 C   0  0  0  0  0  0  0  0  0  0  0  0
    1.1577    2.3062    0.0000 C   0  0  0  0  0  0  0  0  0  0  0  0
    0.4607    0.9780    0.0000 C   0  0  0  0  0  0  0  0  0  0  0  0
    1.2626   -0.2897    0.0000 C   0  0  0  0  0  0  0  0  0  0  0  0
    0.5656   -1.6180    0.0000 C   0  0  0  0  0  0  0  0  0  0  0  0
   -0.9332   -1.6785    0.0000 C   0  0  0  0  0  0  0  0  0  0  0  0
   -1.7350   -0.4108    0.0000 C   0  0  0  0  0  0  0  0  0  0  0  0
   -2.4086   -1.7511    0.0000 C   0  0  0  0  0  0  0  0  0  0  0  0
   -1.0381    0.9174    0.0000 C   0  0  0  0  0  0  0  0  0  0  0  0
   -2.0859    1.9907    0.0000 C   0  0  0  0  0  0  0  0  0  0  0  0
   -3.4305    1.3258    0.0000 C   0  0  0  0  0  0  0  0  0  0  0  0
   -3.2136   -0.1585    0.0000 C   0  0  0  0  0  0  0  0  0  0  0  0
   -3.4918   -1.6324    0.0000 O   0  0  0  0  0  0  0  0  0  0  0  0
   -4.7124   -0.2190    0.0000 C   0  0  0  0  0  0  0  0  0  0  0  0
   -5.4093   -1.5473    0.0000 O   0  0  0  0  0  0  0  0  0  0  0  0
   -5.5142    1.0487    0.0000 C   0  0  0  0  0  0  0  0  0  0  0  0
   -7.0130    0.9881    0.0000 O   0  0  0  0  0  0  0  0  0  0  0  0
  2  1  1  1
  2  3  1  0
  3  4  1  0
  4  5  1  0
  5  6  1  6
  5  7  1  0
  8  7  1  1
  8  9  1  0
  9 10  1  0
 11 10  1  6
 11 12  1  0
 12 13  1  1
 13 14  1  0
 14 15  1  0
 15 16  1  1
 15 17  1  0
 17 18  1  1
 18 19  1  0
 19 20  1  0
 20 21  1  6
 20 22  1  0
 22 23  2  0
 22 24  1  0
 24 25  1  0
  8  2  1  0
 17 11  1  0
 12  2  1  0
 20 15  1  0
M  END
>  <MS_ID>  (2892) 
MS2991

>  <SMILES>  (2892) 
C[C@]12CC[C@@H](O)C[C@@H]1CC[C@@H]1[C@@H]2CC[C@@]2(C)[C@H]1CC[C@]2(O)C(=O)CO

>  <Structure_dimension>  (2892) 
2D

$$$$
MS2992
     RDKit          2D

 35 38  0  0  0  0  0  0  0  0999 V2000
   -2.2222   -4.2903    0.0000 C   0  0  0  0  0  0  0  0  0  0  0  0
   -1.5215   -2.9640    0.0000 C   0  0  0  0  0  0  0  0  0  0  0  0
   -2.3198   -1.6940    0.0000 C   0  0  0  0  0  0  0  0  0  0  0  0
   -3.8187   -1.7503    0.0000 C   0  0  0  0  0  0  0  0  0  0  0  0
   -4.6170   -0.4804    0.0000 C   0  0  0  0  0  0  0  0  0  0  0  0
   -3.9163    0.8459    0.0000 O   0  0  0  0  0  0  0  0  0  0  0  0
   -6.1159   -0.5367    0.0000 N   0  0  0  0  0  0  0  0  0  0  0  0
   -6.9142    0.7333    0.0000 C   0  0  0  0  0  0  0  0  0  0  0  0
   -8.4131    0.6769    0.0000 C   0  0  0  0  0  0  0  0  0  0  0  0
   -9.2114    1.9469    0.0000 S   0  0  0  0  0  0  0  0  0  0  0  0
  -10.4813    1.1486    0.0000 O   0  0  0  0  0  0  0  0  0  0  0  0
   -7.9414    2.7451    0.0000 O   0  0  0  0  0  0  0  0  0  0  0  0
  -10.0096    3.2169    0.0000 O   0  0  0  0  0  0  0  0  0  0  0  0
   -0.0226   -2.9077    0.0000 C   0  0  0  0  0  0  0  0  0  0  0  0
    0.9040   -4.0872    0.0000 C   0  0  0  0  0  0  0  0  0  0  0  0
    2.3122   -3.5705    0.0000 C   0  0  0  0  0  0  0  0  0  0  0  0
    2.2559   -2.0715    0.0000 C   0  0  0  0  0  0  0  0  0  0  0  0
    3.3321   -1.0267    0.0000 C   0  0  0  0  0  0  0  0  0  0  0  0
    4.7751   -1.4363    0.0000 C   0  0  0  0  0  0  0  0  0  0  0  0
    5.1418   -2.8908    0.0000 O   0  0  0  0  0  0  0  0  0  0  0  0
    5.8514   -0.3914    0.0000 C   0  0  0  0  0  0  0  0  0  0  0  0
    7.2943   -0.8011    0.0000 O   0  0  0  0  0  0  0  0  0  0  0  0
    5.4846    1.0630    0.0000 C   0  0  0  0  0  0  0  0  0  0  0  0
    6.5609    2.1079    0.0000 C   0  0  0  0  0  0  0  0  0  0  0  0
    6.1941    3.5623    0.0000 C   0  0  0  0  0  0  0  0  0  0  0  0
    7.2704    4.6072    0.0000 O   0  0  0  0  0  0  0  0  0  0  0  0
    4.7511    3.9720    0.0000 C   0  0  0  0  0  0  0  0  0  0  0  0
    3.6749    2.9271    0.0000 C   0  0  0  0  0  0  0  0  0  0  0  0
    4.0416    1.4727    0.0000 C   0  0  0  0  0  0  0  0  0  0  0  0
    2.5986    1.8823    0.0000 C   0  0  0  0  0  0  0  0  0  0  0  0
    2.9654    0.4278    0.0000 C   0  0  0  0  0  0  0  0  0  0  0  0
    1.5224    0.8374    0.0000 C   0  0  0  0  0  0  0  0  0  0  0  0
    0.4462   -0.2074    0.0000 C   0  0  0  0  0  0  0  0  0  0  0  0
    0.8129   -1.6619    0.0000 C   0  0  0  0  0  0  0  0  0  0  0  0
   -0.6650   -1.4053    0.0000 C   0  0  0  0  0  0  0  0  0  0  0  0
  2  1  1  6
  2  3  1  0
  3  4  1  0
  4  5  1  0
  5  6  2  0
  5  7  1  0
  7  8  1  0
  8  9  1  0
  9 10  1  0
 10 11  2  0
 10 12  2  0
 10 13  1  0
  2 14  1  0
 14 15  1  6
 15 16  1  0
 17 16  1  6
 17 18  1  0
 18 19  1  1
 19 20  1  6
 19 21  1  0
 21 22  1  6
 21 23  1  0
 23 24  1  1
 24 25  1  0
 25 26  1  1
 25 27  1  0
 27 28  1  0
 28 29  1  0
 29 30  1  6
 29 31  1  0
 31 32  1  6
 32 33  1  0
 33 34  1  0
 34 35  1  6
 34 14  1  0
 34 17  1  0
 31 18  1  0
 29 23  1  0
M  END
>  <MS_ID>  (2893) 
MS2992

>  <SMILES>  (2893) 
C[C@H](CCC(=O)NCCS(=O)(=O)O)[C@H]1CC[C@H]2[C@@H]3[C@@H](O)[C@@H](O)[C@@H]4C[C@H](O)CC[C@]4(C)[C@H]3CC[C@]12C

>  <Structure_dimension>  (2893) 
2D

$$$$
MS2993
     RDKit          2D

 35 38  0  0  0  0  0  0  0  0999 V2000
   -2.2222   -4.2903    0.0000 C   0  0  0  0  0  0  0  0  0  0  0  0
   -1.5215   -2.9640    0.0000 C   0  0  0  0  0  0  0  0  0  0  0  0
   -2.3198   -1.6940    0.0000 C   0  0  0  0  0  0  0  0  0  0  0  0
   -3.8187   -1.7503    0.0000 C   0  0  0  0  0  0  0  0  0  0  0  0
   -4.6170   -0.4804    0.0000 C   0  0  0  0  0  0  0  0  0  0  0  0
   -3.9163    0.8459    0.0000 O   0  0  0  0  0  0  0  0  0  0  0  0
   -6.1159   -0.5367    0.0000 N   0  0  0  0  0  0  0  0  0  0  0  0
   -6.9142    0.7333    0.0000 C   0  0  0  0  0  0  0  0  0  0  0  0
   -8.4131    0.6769    0.0000 C   0  0  0  0  0  0  0  0  0  0  0  0
   -9.2114    1.9469    0.0000 S   0  0  0  0  0  0  0  0  0  0  0  0
  -10.4813    1.1486    0.0000 O   0  0  0  0  0  0  0  0  0  0  0  0
   -7.9414    2.7451    0.0000 O   0  0  0  0  0  0  0  0  0  0  0  0
  -10.0096    3.2169    0.0000 O   0  0  0  0  0  0  0  0  0  0  0  0
   -0.0226   -2.9077    0.0000 C   0  0  0  0  0  0  0  0  0  0  0  0
    0.9040   -4.0872    0.0000 C   0  0  0  0  0  0  0  0  0  0  0  0
    2.3122   -3.5705    0.0000 C   0  0  0  0  0  0  0  0  0  0  0  0
    2.2559   -2.0715    0.0000 C   0  0  0  0  0  0  0  0  0  0  0  0
    3.3321   -1.0267    0.0000 C   0  0  0  0  0  0  0  0  0  0  0  0
    4.7751   -1.4363    0.0000 C   0  0  0  0  0  0  0  0  0  0  0  0
    5.1418   -2.8908    0.0000 O   0  0  0  0  0  0  0  0  0  0  0  0
    5.8514   -0.3914    0.0000 C   0  0  0  0  0  0  0  0  0  0  0  0
    7.2943   -0.8011    0.0000 O   0  0  0  0  0  0  0  0  0  0  0  0
    5.4846    1.0630    0.0000 C   0  0  0  0  0  0  0  0  0  0  0  0
    6.5609    2.1079    0.0000 C   0  0  0  0  0  0  0  0  0  0  0  0
    6.1941    3.5623    0.0000 C   0  0  0  0  0  0  0  0  0  0  0  0
    7.2704    4.6072    0.0000 O   0  0  0  0  0  0  0  0  0  0  0  0
    4.7511    3.9720    0.0000 C   0  0  0  0  0  0  0  0  0  0  0  0
    3.6749    2.9271    0.0000 C   0  0  0  0  0  0  0  0  0  0  0  0
    4.0416    1.4727    0.0000 C   0  0  0  0  0  0  0  0  0  0  0  0
    2.5986    1.8823    0.0000 C   0  0  0  0  0  0  0  0  0  0  0  0
    2.9654    0.4278    0.0000 C   0  0  0  0  0  0  0  0  0  0  0  0
    1.5224    0.8374    0.0000 C   0  0  0  0  0  0  0  0  0  0  0  0
    0.4462   -0.2074    0.0000 C   0  0  0  0  0  0  0  0  0  0  0  0
    0.8129   -1.6619    0.0000 C   0  0  0  0  0  0  0  0  0  0  0  0
   -0.6650   -1.4053    0.0000 C   0  0  0  0  0  0  0  0  0  0  0  0
  2  1  1  6
  2  3  1  0
  3  4  1  0
  4  5  1  0
  5  6  2  0
  5  7  1  0
  7  8  1  0
  8  9  1  0
  9 10  1  0
 10 11  2  0
 10 12  2  0
 10 13  1  0
  2 14  1  0
 14 15  1  6
 15 16  1  0
 17 16  1  6
 17 18  1  0
 18 19  1  1
 19 20  1  6
 19 21  1  0
 21 22  1  6
 21 23  1  0
 23 24  1  1
 24 25  1  0
 25 26  1  1
 25 27  1  0
 27 28  1  0
 28 29  1  0
 29 30  1  6
 29 31  1  0
 31 32  1  6
 32 33  1  0
 33 34  1  0
 34 35  1  6
 34 14  1  0
 34 17  1  0
 31 18  1  0
 29 23  1  0
M  END
>  <MS_ID>  (2894) 
MS2993

>  <SMILES>  (2894) 
C[C@H](CCC(=O)NCCS(=O)(=O)O)[C@H]1CC[C@H]2[C@@H]3[C@@H](O)[C@@H](O)[C@@H]4C[C@H](O)CC[C@]4(C)[C@H]3CC[C@]12C

>  <Structure_dimension>  (2894) 
2D

$$$$
MS2994
     RDKit          2D

 35 38  0  0  0  0  0  0  0  0999 V2000
   -2.6584   -4.2186    0.0000 C   0  0  0  0  0  0  0  0  0  0  0  0
   -1.9156   -2.9154    0.0000 C   0  0  0  0  0  0  0  0  0  0  0  0
   -2.6728   -1.6206    0.0000 C   0  0  0  0  0  0  0  0  0  0  0  0
   -4.1728   -1.6289    0.0000 C   0  0  0  0  0  0  0  0  0  0  0  0
   -4.9300   -0.3341    0.0000 C   0  0  0  0  0  0  0  0  0  0  0  0
   -4.1872    0.9691    0.0000 O   0  0  0  0  0  0  0  0  0  0  0  0
   -6.4300   -0.3424    0.0000 N   0  0  0  0  0  0  0  0  0  0  0  0
   -7.1872    0.9525    0.0000 C   0  0  0  0  0  0  0  0  0  0  0  0
   -8.6871    0.9441    0.0000 C   0  0  0  0  0  0  0  0  0  0  0  0
   -9.4443    2.2390    0.0000 O   0  0  0  0  0  0  0  0  0  0  0  0
   -6.4444    2.2556    0.0000 C   0  0  0  0  0  0  0  0  0  0  0  0
   -4.9444    2.2640    0.0000 O   0  0  0  0  0  0  0  0  0  0  0  0
   -7.2016    3.5505    0.0000 O   0  0  0  0  0  0  0  0  0  0  0  0
   -0.4156   -2.9071    0.0000 C   0  0  0  0  0  0  0  0  0  0  0  0
    0.4728   -4.1157    0.0000 C   0  0  0  0  0  0  0  0  0  0  0  0
    1.8968   -3.6443    0.0000 C   0  0  0  0  0  0  0  0  0  0  0  0
    1.8884   -2.1443    0.0000 C   0  0  0  0  0  0  0  0  0  0  0  0
    2.9976   -1.1344    0.0000 C   0  0  0  0  0  0  0  0  0  0  0  0
    4.4267   -1.5900    0.0000 C   0  0  0  0  0  0  0  0  0  0  0  0
    4.7467   -3.0555    0.0000 O   0  0  0  0  0  0  0  0  0  0  0  0
    5.5358   -0.5802    0.0000 C   0  0  0  0  0  0  0  0  0  0  0  0
    6.9650   -1.0357    0.0000 O   0  0  0  0  0  0  0  0  0  0  0  0
    5.2158    0.8853    0.0000 C   0  0  0  0  0  0  0  0  0  0  0  0
    6.3249    1.8952    0.0000 C   0  0  0  0  0  0  0  0  0  0  0  0
    6.0049    3.3607    0.0000 C   0  0  0  0  0  0  0  0  0  0  0  0
    7.1141    4.3705    0.0000 O   0  0  0  0  0  0  0  0  0  0  0  0
    4.5758    3.8162    0.0000 C   0  0  0  0  0  0  0  0  0  0  0  0
    3.4667    2.8064    0.0000 C   0  0  0  0  0  0  0  0  0  0  0  0
    3.7867    1.3409    0.0000 C   0  0  0  0  0  0  0  0  0  0  0  0
    2.3575    1.7965    0.0000 C   0  0  0  0  0  0  0  0  0  0  0  0
    2.6776    0.3310    0.0000 C   0  0  0  0  0  0  0  0  0  0  0  0
    1.2484    0.7866    0.0000 C   0  0  0  0  0  0  0  0  0  0  0  0
    0.1393   -0.2232    0.0000 C   0  0  0  0  0  0  0  0  0  0  0  0
    0.4593   -1.6887    0.0000 C   0  0  0  0  0  0  0  0  0  0  0  0
   -1.0096   -1.3850    0.0000 C   0  0  0  0  0  0  0  0  0  0  0  0
  2  1  1  6
  2  3  1  0
  3  4  1  0
  4  5  1  0
  5  6  2  0
  5  7  1  0
  7  8  1  0
  8  9  1  1
  9 10  1  0
  8 11  1  0
 11 12  2  0
 11 13  1  0
  2 14  1  0
 14 15  1  6
 15 16  1  0
 17 16  1  6
 17 18  1  0
 18 19  1  1
 19 20  1  1
 19 21  1  0
 21 22  1  6
 21 23  1  0
 23 24  1  1
 24 25  1  0
 25 26  1  1
 25 27  1  0
 27 28  1  0
 28 29  1  0
 29 30  1  6
 29 31  1  0
 31 32  1  6
 32 33  1  0
 33 34  1  0
 34 35  1  6
 34 14  1  0
 34 17  1  0
 31 18  1  0
 29 23  1  0
M  END
>  <MS_ID>  (2895) 
MS2994

>  <SMILES>  (2895) 
C[C@H](CCC(=O)N[C@@H](CO)C(=O)O)[C@H]1CC[C@H]2[C@@H]3[C@H](O)[C@@H](O)[C@@H]4C[C@H](O)CC[C@]4(C)[C@H]3CC[C@]12C

>  <Structure_dimension>  (2895) 
2D

$$$$
MS2995
     RDKit          2D

 37 41  0  0  0  0  0  0  0  0999 V2000
   -0.6929   -4.8292    0.0000 C   0  0  0  0  0  0  0  0  0  0  0  0
   -0.1020   -3.4505    0.0000 C   0  0  0  0  0  0  0  0  0  0  0  0
   -1.0006   -2.2494    0.0000 C   0  0  0  0  0  0  0  0  0  0  0  0
   -2.4901   -2.4271    0.0000 C   0  0  0  0  0  0  0  0  0  0  0  0
   -3.3886   -1.2260    0.0000 C   0  0  0  0  0  0  0  0  0  0  0  0
   -2.7978    0.1527    0.0000 O   0  0  0  0  0  0  0  0  0  0  0  0
   -4.8781   -1.4037    0.0000 N   0  0  0  0  0  0  0  0  0  0  0  0
   -5.7766   -0.2026    0.0000 C   0  0  0  0  0  0  0  0  0  0  0  0
   -7.2661   -0.3802    0.0000 C   0  0  0  0  0  0  0  0  0  0  0  0
   -8.1647    0.8208    0.0000 C   0  0  0  0  0  0  0  0  0  0  0  0
   -9.6645    0.7998    0.0000 C   0  0  0  0  0  0  0  0  0  0  0  0
  -10.1479    2.2198    0.0000 N   0  0  0  0  0  0  0  0  0  0  0  0
   -8.9469    3.1184    0.0000 C   0  0  0  0  0  0  0  0  0  0  0  0
   -7.7211    2.2538    0.0000 N   0  0  0  0  0  0  0  0  0  0  0  0
   -5.1858    1.1761    0.0000 C   0  0  0  0  0  0  0  0  0  0  0  0
   -3.6963    1.3538    0.0000 O   0  0  0  0  0  0  0  0  0  0  0  0
   -6.0843    2.3772    0.0000 O   0  0  0  0  0  0  0  0  0  0  0  0
    1.3874   -3.2729    0.0000 C   0  0  0  0  0  0  0  0  0  0  0  0
    2.4066   -4.3734    0.0000 C   0  0  0  0  0  0  0  0  0  0  0  0
    3.7682   -3.7442    0.0000 C   0  0  0  0  0  0  0  0  0  0  0  0
    3.5906   -2.2548    0.0000 C   0  0  0  0  0  0  0  0  0  0  0  0
    4.5786   -1.1261    0.0000 C   0  0  0  0  0  0  0  0  0  0  0  0
    6.0500   -1.4174    0.0000 C   0  0  0  0  0  0  0  0  0  0  0  0
    7.0380   -0.2888    0.0000 C   0  0  0  0  0  0  0  0  0  0  0  0
    6.5546    1.1312    0.0000 C   0  0  0  0  0  0  0  0  0  0  0  0
    7.5426    2.2598    0.0000 C   0  0  0  0  0  0  0  0  0  0  0  0
    7.0592    3.6798    0.0000 C   0  0  0  0  0  0  0  0  0  0  0  0
    8.0472    4.8085    0.0000 O   0  0  0  0  0  0  0  0  0  0  0  0
    5.5877    3.9711    0.0000 C   0  0  0  0  0  0  0  0  0  0  0  0
    4.5997    2.8425    0.0000 C   0  0  0  0  0  0  0  0  0  0  0  0
    5.0832    1.4225    0.0000 C   0  0  0  0  0  0  0  0  0  0  0  0
    3.6117    1.7138    0.0000 C   0  0  0  0  0  0  0  0  0  0  0  0
    4.0952    0.2939    0.0000 C   0  0  0  0  0  0  0  0  0  0  0  0
    2.6237    0.5852    0.0000 C   0  0  0  0  0  0  0  0  0  0  0  0
    1.6357   -0.5435    0.0000 C   0  0  0  0  0  0  0  0  0  0  0  0
    2.1192   -1.9634    0.0000 C   0  0  0  0  0  0  0  0  0  0  0  0
    0.6253   -1.8275    0.0000 C   0  0  0  0  0  0  0  0  0  0  0  0
  2  1  1  6
  2  3  1  0
  3  4  1  0
  4  5  1  0
  5  6  2  0
  5  7  1  0
  7  8  1  0
  8  9  1  1
  9 10  1  0
 10 11  2  0
 11 12  1  0
 12 13  1  0
 13 14  2  0
  8 15  1  0
 15 16  2  0
 15 17  1  0
  2 18  1  0
 18 19  1  6
 19 20  1  0
 21 20  1  6
 21 22  1  0
 22 23  1  1
 23 24  1  0
 25 24  1  1
 25 26  1  0
 26 27  1  0
 27 28  1  1
 27 29  1  0
 29 30  1  0
 30 31  1  0
 31 32  1  6
 31 33  1  0
 33 34  1  6
 34 35  1  0
 35 36  1  0
 36 37  1  6
 14 10  1  0
 36 18  1  0
 36 21  1  0
 33 22  1  0
 31 25  1  0
M  END
>  <MS_ID>  (2896) 
MS2995

>  <SMILES>  (2896) 
C[C@H](CCC(=O)N[C@@H](Cc1c[nH]cn1)C(=O)O)[C@H]1CC[C@H]2[C@@H]3CC[C@@H]4C[C@H](O)CC[C@]4(C)[C@H]3CC[C@]12C

>  <Structure_dimension>  (2896) 
2D

$$$$
MS2996
     RDKit          2D

 38 41  0  0  0  0  0  0  0  0999 V2000
   -1.2469   -4.6154    0.0000 C   0  0  0  0  0  0  0  0  0  0  0  0
   -0.6421   -3.2427    0.0000 C   0  0  0  0  0  0  0  0  0  0  0  0
   -1.5285   -2.0326    0.0000 C   0  0  0  0  0  0  0  0  0  0  0  0
   -3.0197   -2.1952    0.0000 C   0  0  0  0  0  0  0  0  0  0  0  0
   -3.9060   -0.9851    0.0000 C   0  0  0  0  0  0  0  0  0  0  0  0
   -3.3012    0.3876    0.0000 O   0  0  0  0  0  0  0  0  0  0  0  0
   -5.3972   -1.1476    0.0000 N   0  0  0  0  0  0  0  0  0  0  0  0
   -6.2836    0.0625    0.0000 C   0  0  0  0  0  0  0  0  0  0  0  0
   -7.7747   -0.1001    0.0000 C   0  0  0  0  0  0  0  0  0  0  0  0
   -8.6611    1.1100    0.0000 C   0  0  0  0  0  0  0  0  0  0  0  0
  -10.1523    0.9475    0.0000 C   0  0  0  0  0  0  0  0  0  0  0  0
  -11.0386    2.1576    0.0000 C   0  0  0  0  0  0  0  0  0  0  0  0
  -12.5298    1.9950    0.0000 N   0  0  0  0  0  0  0  0  0  0  0  0
   -5.6788    1.4351    0.0000 C   0  0  0  0  0  0  0  0  0  0  0  0
   -4.1876    1.5977    0.0000 O   0  0  0  0  0  0  0  0  0  0  0  0
   -6.5651    2.6453    0.0000 O   0  0  0  0  0  0  0  0  0  0  0  0
    0.8490   -3.0802    0.0000 C   0  0  0  0  0  0  0  0  0  0  0  0
    1.8570   -4.1910    0.0000 C   0  0  0  0  0  0  0  0  0  0  0  0
    3.2250   -3.5756    0.0000 C   0  0  0  0  0  0  0  0  0  0  0  0
    3.0624   -2.0844    0.0000 C   0  0  0  0  0  0  0  0  0  0  0  0
    4.0618   -0.9658    0.0000 C   0  0  0  0  0  0  0  0  0  0  0  0
    5.5302   -1.2720    0.0000 C   0  0  0  0  0  0  0  0  0  0  0  0
    5.9993   -2.6968    0.0000 O   0  0  0  0  0  0  0  0  0  0  0  0
    6.5296   -0.1534    0.0000 C   0  0  0  0  0  0  0  0  0  0  0  0
    7.9980   -0.4596    0.0000 O   0  0  0  0  0  0  0  0  0  0  0  0
    6.0606    1.2714    0.0000 C   0  0  0  0  0  0  0  0  0  0  0  0
    7.0599    2.3900    0.0000 C   0  0  0  0  0  0  0  0  0  0  0  0
    6.5909    3.8147    0.0000 C   0  0  0  0  0  0  0  0  0  0  0  0
    7.5903    4.9333    0.0000 O   0  0  0  0  0  0  0  0  0  0  0  0
    5.1225    4.1209    0.0000 C   0  0  0  0  0  0  0  0  0  0  0  0
    4.1231    3.0023    0.0000 C   0  0  0  0  0  0  0  0  0  0  0  0
    4.5921    1.5776    0.0000 C   0  0  0  0  0  0  0  0  0  0  0  0
    3.1237    1.8837    0.0000 C   0  0  0  0  0  0  0  0  0  0  0  0
    3.5928    0.4590    0.0000 C   0  0  0  0  0  0  0  0  0  0  0  0
    2.1243    0.7651    0.0000 C   0  0  0  0  0  0  0  0  0  0  0  0
    1.1250   -0.3534    0.0000 C   0  0  0  0  0  0  0  0  0  0  0  0
    1.5940   -1.7782    0.0000 C   0  0  0  0  0  0  0  0  0  0  0  0
    0.1016   -1.6272    0.0000 C   0  0  0  0  0  0  0  0  0  0  0  0
  2  1  1  6
  2  3  1  0
  3  4  1  0
  4  5  1  0
  5  6  2  0
  5  7  1  0
  7  8  1  0
  8  9  1  1
  9 10  1  0
 10 11  1  0
 11 12  1  0
 12 13  1  0
  8 14  1  0
 14 15  2  0
 14 16  1  0
  2 17  1  0
 17 18  1  6
 18 19  1  0
 20 19  1  6
 20 21  1  0
 21 22  1  1
 22 23  1  1
 22 24  1  0
 24 25  1  6
 24 26  1  0
 26 27  1  1
 27 28  1  0
 28 29  1  1
 28 30  1  0
 30 31  1  0
 31 32  1  0
 32 33  1  6
 32 34  1  0
 34 35  1  6
 35 36  1  0
 36 37  1  0
 37 38  1  6
 37 17  1  0
 37 20  1  0
 34 21  1  0
 32 26  1  0
M  END
>  <MS_ID>  (2897) 
MS2996

>  <SMILES>  (2897) 
C[C@H](CCC(=O)N[C@@H](CCCCN)C(=O)O)[C@H]1CC[C@H]2[C@@H]3[C@H](O)[C@@H](O)[C@@H]4C[C@H](O)CC[C@]4(C)[C@H]3CC[C@]12C

>  <Structure_dimension>  (2897) 
2D

$$$$
MS2997
     RDKit          2D

 24 27  0  0  0  0  0  0  0  0999 V2000
    1.6887   -1.5390    0.0000 C   0  0  0  0  0  0  0  0  0  0  0  0
    2.5258   -0.2943    0.0000 C   0  0  0  0  0  0  0  0  0  0  0  0
    3.1852   -1.6416    0.0000 C   0  0  0  0  0  0  0  0  0  0  0  0
    4.6817   -1.7441    0.0000 C   0  0  0  0  0  0  0  0  0  0  0  0
    5.5188   -0.4994    0.0000 C   0  0  0  0  0  0  0  0  0  0  0  0
    7.0153   -0.6020    0.0000 O   0  0  0  0  0  0  0  0  0  0  0  0
    4.8594    0.8479    0.0000 C   0  0  0  0  0  0  0  0  0  0  0  0
    3.3629    0.9504    0.0000 C   0  0  0  0  0  0  0  0  0  0  0  0
    2.7034    2.2977    0.0000 C   0  0  0  0  0  0  0  0  0  0  0  0
    1.2070    2.4003    0.0000 C   0  0  0  0  0  0  0  0  0  0  0  0
    0.3699    1.1555    0.0000 C   0  0  0  0  0  0  0  0  0  0  0  0
    1.0293   -0.1917    0.0000 C   0  0  0  0  0  0  0  0  0  0  0  0
    0.1923   -1.4364    0.0000 C   0  0  0  0  0  0  0  0  0  0  0  0
   -1.3042   -1.3339    0.0000 C   0  0  0  0  0  0  0  0  0  0  0  0
   -1.9637    0.0134    0.0000 C   0  0  0  0  0  0  0  0  0  0  0  0
   -2.9262   -1.1370    0.0000 C   0  0  0  0  0  0  0  0  0  0  0  0
   -3.4061    0.4248    0.0000 C   0  0  0  0  0  0  0  0  0  0  0  0
   -4.5869   -0.5003    0.0000 C   0  0  0  0  0  0  0  0  0  0  0  0
   -4.3760   -1.9854    0.0000 O   0  0  0  0  0  0  0  0  0  0  0  0
   -5.9784    0.0597    0.0000 C   0  0  0  0  0  0  0  0  0  0  0  0
   -7.1591   -0.8654    0.0000 O   0  0  0  0  0  0  0  0  0  0  0  0
   -3.4606    1.9239    0.0000 C   0  0  0  0  0  0  0  0  0  0  0  0
   -2.0517    2.4388    0.0000 C   0  0  0  0  0  0  0  0  0  0  0  0
   -1.1266    1.2581    0.0000 C   0  0  0  0  0  0  0  0  0  0  0  0
  2  1  1  1
  2  3  1  0
  3  4  1  0
  4  5  1  0
  5  6  1  6
  5  7  1  0
  8  7  1  6
  8  9  1  0
  9 10  1  0
 11 10  1  6
 11 12  1  0
 12 13  1  1
 13 14  1  0
 14 15  1  0
 15 16  1  1
 15 17  1  0
 17 18  1  1
 18 19  2  0
 18 20  1  0
 20 21  1  0
 17 22  1  0
 22 23  1  0
 24 23  1  1
  8  2  1  0
 24 11  1  0
 12  2  1  0
 24 15  1  0
M  END
>  <MS_ID>  (2898) 
MS2997

>  <SMILES>  (2898) 
C[C@]12CC[C@@H](O)C[C@H]1CC[C@@H]1[C@@H]2CC[C@]2(C)[C@@H](C(=O)CO)CC[C@@H]12

>  <Structure_dimension>  (2898) 
2D

$$$$
MS2998
     RDKit          2D

 34 37  0  0  0  0  0  0  0  0999 V2000
    6.8796   -1.9936    0.0000 C   0  0  0  0  0  0  0  0  0  0  0  0
    5.4522   -1.5326    0.0000 C   0  0  0  0  0  0  0  0  0  0  0  0
    5.1377   -0.0660    0.0000 C   0  0  0  0  0  0  0  0  0  0  0  0
    6.2506    0.9397    0.0000 O   0  0  0  0  0  0  0  0  0  0  0  0
    3.7103    0.3950    0.0000 C   0  0  0  0  0  0  0  0  0  0  0  0
    2.5973   -0.6107    0.0000 O   0  0  0  0  0  0  0  0  0  0  0  0
    3.3958    1.8617    0.0000 C   0  0  0  0  0  0  0  0  0  0  0  0
    4.5087    2.8674    0.0000 C   0  0  0  0  0  0  0  0  0  0  0  0
    1.9684    2.3227    0.0000 C   0  0  0  0  0  0  0  0  0  0  0  0
    1.5023    3.7484    0.0000 C   0  0  0  0  0  0  0  0  0  0  0  0
    0.0023    3.7458    0.0000 C   0  0  0  0  0  0  0  0  0  0  0  0
   -0.4587    2.3184    0.0000 C   0  0  0  0  0  0  0  0  0  0  0  0
   -1.8279    1.7058    0.0000 C   0  0  0  0  0  0  0  0  0  0  0  0
   -3.0430    2.5853    0.0000 C   0  0  0  0  0  0  0  0  0  0  0  0
   -4.4122    1.9728    0.0000 C   0  0  0  0  0  0  0  0  0  0  0  0
   -5.6273    2.8523    0.0000 O   0  0  0  0  0  0  0  0  0  0  0  0
   -4.5663    0.4807    0.0000 C   0  0  0  0  0  0  0  0  0  0  0  0
   -5.9356   -0.1318    0.0000 C   0  0  0  0  0  0  0  0  0  0  0  0
   -6.0897   -1.6239    0.0000 C   0  0  0  0  0  0  0  0  0  0  0  0
   -7.4589   -2.2364    0.0000 O   0  0  0  0  0  0  0  0  0  0  0  0
   -4.8746   -2.5034    0.0000 C   0  0  0  0  0  0  0  0  0  0  0  0
   -5.0288   -3.9955    0.0000 O   0  0  0  0  0  0  0  0  0  0  0  0
   -3.5054   -1.8909    0.0000 C   0  0  0  0  0  0  0  0  0  0  0  0
   -3.3513   -0.3988    0.0000 C   0  0  0  0  0  0  0  0  0  0  0  0
   -2.1362   -1.2783    0.0000 C   0  0  0  0  0  0  0  0  0  0  0  0
   -1.9820    0.2137    0.0000 C   0  0  0  0  0  0  0  0  0  0  0  0
   -0.7669   -0.6658    0.0000 C   0  0  0  0  0  0  0  0  0  0  0  0
    0.6023   -0.0532    0.0000 C   0  0  0  0  0  0  0  0  0  0  0  0
    0.7564    1.4388    0.0000 C   0  0  0  0  0  0  0  0  0  0  0  0
    2.0568    0.6912    0.0000 C   0  0  0  0  0  0  0  0  0  0  0  0
    4.3392   -2.5383    0.0000 C   0  0  0  0  0  0  0  0  0  0  0  0
    5.3449   -3.6512    0.0000 C   0  0  0  0  0  0  0  0  0  0  0  0
    3.3336   -1.4254    0.0000 C   0  0  0  0  0  0  0  0  0  0  0  0
    3.2263   -3.5440    0.0000 C   0  0  0  0  0  0  0  0  0  0  0  0
  1  2  2  0
  2  3  1  0
  3  4  1  6
  3  5  1  0
  5  6  1  6
  5  7  1  0
  7  8  1  6
  7  9  1  0
  9 10  1  6
 10 11  1  0
 12 11  1  6
 12 13  1  0
 13 14  1  1
 14 15  1  0
 15 16  2  0
 15 17  1  0
 17 18  1  6
 18 19  1  0
 19 20  1  1
 19 21  1  0
 21 22  1  1
 21 23  1  0
 23 24  1  0
 24 25  1  6
 24 26  1  0
 26 27  1  6
 27 28  1  0
 28 29  1  0
 29 30  1  6
  2 31  1  0
 31 32  1  0
 31 33  1  0
 31 34  1  0
 29  9  1  0
 29 12  1  0
 26 13  1  0
 24 17  1  0
M  END
>  <MS_ID>  (2899) 
MS2998

>  <SMILES>  (2899) 
C=C([C@@H](O)[C@H](O)[C@@H](C)[C@H]1CC[C@H]2[C@@H]3CC(=O)[C@H]4C[C@H](O)[C@H](O)C[C@]4(C)[C@H]3CC[C@]12C)C(C)(C)C

>  <Structure_dimension>  (2899) 
2D

$$$$
MS2999
     RDKit          2D

 33 36  0  0  0  0  0  0  0  0999 V2000
   -7.1717    2.7930    0.0000 C   0  0  0  0  0  0  0  0  0  0  0  0
   -6.7067    1.3669    0.0000 C   0  0  0  0  0  0  0  0  0  0  0  0
   -7.7092    0.2511    0.0000 C   0  0  0  0  0  0  0  0  0  0  0  0
   -5.2391    1.0566    0.0000 C   0  0  0  0  0  0  0  0  0  0  0  0
   -4.7741   -0.3695    0.0000 C   0  0  0  0  0  0  0  0  0  0  0  0
   -3.3065   -0.6798    0.0000 C   0  0  0  0  0  0  0  0  0  0  0  0
   -2.8415   -2.1059    0.0000 C   0  0  0  0  0  0  0  0  0  0  0  0
   -3.8440   -3.2217    0.0000 C   0  0  0  0  0  0  0  0  0  0  0  0
   -1.3740   -2.4163    0.0000 C   0  0  0  0  0  0  0  0  0  0  0  0
   -0.7624   -3.7859    0.0000 C   0  0  0  0  0  0  0  0  0  0  0  0
    0.7292   -3.6276    0.0000 C   0  0  0  0  0  0  0  0  0  0  0  0
    1.0395   -2.1600    0.0000 C   0  0  0  0  0  0  0  0  0  0  0  0
    2.3378   -1.4087    0.0000 C   0  0  0  0  0  0  0  0  0  0  0  0
    3.6376   -2.1573    0.0000 C   0  0  0  0  0  0  0  0  0  0  0  0
    3.6392   -3.6573    0.0000 O   0  0  0  0  0  0  0  0  0  0  0  0
    4.9358   -1.4059    0.0000 C   0  0  0  0  0  0  0  0  0  0  0  0
    4.9343    0.0941    0.0000 C   0  0  0  0  0  0  0  0  0  0  0  0
    6.2325    0.8454    0.0000 C   0  0  0  0  0  0  0  0  0  0  0  0
    6.2309    2.3454    0.0000 C   0  0  0  0  0  0  0  0  0  0  0  0
    7.5292    3.0968    0.0000 O   0  0  0  0  0  0  0  0  0  0  0  0
    4.9311    3.0941    0.0000 C   0  0  0  0  0  0  0  0  0  0  0  0
    3.6329    2.3427    0.0000 C   0  0  0  0  0  0  0  0  0  0  0  0
    3.6344    0.8427    0.0000 C   0  0  0  0  0  0  0  0  0  0  0  0
    2.3346    1.5913    0.0000 C   0  0  0  0  0  0  0  0  0  0  0  0
    2.3362    0.0913    0.0000 C   0  0  0  0  0  0  0  0  0  0  0  0
    1.0364    0.8400    0.0000 C   0  0  0  0  0  0  0  0  0  0  0  0
   -0.2619    0.0886    0.0000 C   0  0  0  0  0  0  0  0  0  0  0  0
   -1.5617    0.8372    0.0000 O   0  0  0  0  0  0  0  0  0  0  0  0
   -0.2603   -1.4114    0.0000 C   0  0  0  0  0  0  0  0  0  0  0  0
   -1.6313   -0.8027    0.0000 C   0  0  0  0  0  0  0  0  0  0  0  0
   -4.2366    2.1723    0.0000 C   0  0  0  0  0  0  0  0  0  0  0  0
   -2.7690    1.8620    0.0000 O   0  0  0  0  0  0  0  0  0  0  0  0
   -4.7016    3.5984    0.0000 O   0  0  0  0  0  0  0  0  0  0  0  0
  1  2  1  0
  2  3  1  0
  2  4  1  0
  4  5  1  6
  5  6  1  0
  6  7  1  0
  7  8  1  6
  7  9  1  0
  9 10  1  6
 10 11  1  0
 12 11  1  6
 12 13  1  0
 13 14  1  1
 14 15  1  1
 14 16  1  0
 17 16  1  1
 17 18  1  0
 18 19  1  0
 19 20  1  1
 19 21  1  0
 21 22  1  0
 22 23  1  0
 23 24  1  6
 23 25  1  0
 25 26  1  6
 26 27  1  0
 27 28  1  1
 27 29  1  0
 29 30  1  6
  4 31  1  0
 31 32  2  0
 31 33  1  0
 29  9  1  0
 29 12  1  0
 25 13  1  0
 23 17  1  0
M  END
>  <MS_ID>  (2900) 
MS2999

>  <SMILES>  (2900) 
CC(C)[C@@H](CC[C@@H](C)[C@H]1CC[C@H]2[C@@H]3[C@H](O)C[C@@H]4C[C@H](O)CC[C@]4(C)[C@H]3C[C@H](O)[C@]12C)C(=O)O

>  <Structure_dimension>  (2900) 
2D

$$$$
MS3000
     RDKit          2D

 28 31  0  0  0  0  0  0  0  0999 V2000
   -7.1175    3.8231    0.0000 C   0  0  0  0  0  0  0  0  0  0  0  0
   -6.8224    2.3524    0.0000 C   0  0  0  0  0  0  0  0  0  0  0  0
   -7.9484    1.3615    0.0000 C   0  0  0  0  0  0  0  0  0  0  0  0
   -5.4012    1.8727    0.0000 C   0  0  0  0  0  0  0  0  0  0  0  0
   -5.1060    0.4020    0.0000 C   0  0  0  0  0  0  0  0  0  0  0  0
   -3.6848   -0.0778    0.0000 C   0  0  0  0  0  0  0  0  0  0  0  0
   -3.3897   -1.5484    0.0000 C   0  0  0  0  0  0  0  0  0  0  0  0
   -4.5158   -2.5394    0.0000 C   0  0  0  0  0  0  0  0  0  0  0  0
   -1.9685   -2.0282    0.0000 C   0  0  0  0  0  0  0  0  0  0  0  0
   -1.5212   -3.4600    0.0000 C   0  0  0  0  0  0  0  0  0  0  0  0
   -0.0213   -3.4770    0.0000 C   0  0  0  0  0  0  0  0  0  0  0  0
    0.4584   -2.0558    0.0000 C   0  0  0  0  0  0  0  0  0  0  0  0
    1.8356   -1.4614    0.0000 C   0  0  0  0  0  0  0  0  0  0  0  0
    3.0390   -2.3568    0.0000 C   0  0  0  0  0  0  0  0  0  0  0  0
    4.4162   -1.7624    0.0000 C   0  0  0  0  0  0  0  0  0  0  0  0
    4.5900   -0.2725    0.0000 C   0  0  0  0  0  0  0  0  0  0  0  0
    5.9671    0.3220    0.0000 C   0  0  0  0  0  0  0  0  0  0  0  0
    6.1409    1.8119    0.0000 C   0  0  0  0  0  0  0  0  0  0  0  0
    7.5181    2.4063    0.0000 O   0  0  0  0  0  0  0  0  0  0  0  0
    4.9375    2.7073    0.0000 C   0  0  0  0  0  0  0  0  0  0  0  0
    3.5603    2.1129    0.0000 C   0  0  0  0  0  0  0  0  0  0  0  0
    3.3866    0.6230    0.0000 C   0  0  0  0  0  0  0  0  0  0  0  0
    2.1832    1.5184    0.0000 C   0  0  0  0  0  0  0  0  0  0  0  0
    2.0094    0.0285    0.0000 C   0  0  0  0  0  0  0  0  0  0  0  0
    0.8060    0.9240    0.0000 C   0  0  0  0  0  0  0  0  0  0  0  0
   -0.5712    0.3295    0.0000 C   0  0  0  0  0  0  0  0  0  0  0  0
   -0.7450   -1.1604    0.0000 C   0  0  0  0  0  0  0  0  0  0  0  0
   -2.0354   -0.3956    0.0000 C   0  0  0  0  0  0  0  0  0  0  0  0
  1  2  1  0
  2  3  1  0
  2  4  1  0
  4  5  1  0
  5  6  1  0
  6  7  1  0
  7  8  1  6
  7  9  1  0
  9 10  1  6
 10 11  1  0
 12 11  1  6
 12 13  1  0
 13 14  1  1
 14 15  1  0
 16 15  1  1
 16 17  1  0
 17 18  1  0
 18 19  1  1
 18 20  1  0
 20 21  1  0
 21 22  1  0
 22 23  1  6
 22 24  1  0
 24 25  1  6
 25 26  1  0
 26 27  1  0
 27 28  1  6
 27  9  1  0
 27 12  1  0
 24 13  1  0
 22 16  1  0
M  END
>  <MS_ID>  (2901) 
MS3000

>  <SMILES>  (2901) 
CC(C)CCC[C@@H](C)[C@H]1CC[C@H]2[C@@H]3CC[C@@H]4C[C@H](O)CC[C@]4(C)[C@H]3CC[C@]12C

>  <Structure_dimension>  (2901) 
2D

$$$$
MS3001
     RDKit          2D

 36 39  0  0  0  0  0  0  0  0999 V2000
   -1.1675   -4.5772    0.0000 C   0  0  0  0  0  0  0  0  0  0  0  0
   -0.4862   -3.2409    0.0000 C   0  0  0  0  0  0  0  0  0  0  0  0
   -1.3029   -1.9827    0.0000 C   0  0  0  0  0  0  0  0  0  0  0  0
   -2.8008   -2.0609    0.0000 C   0  0  0  0  0  0  0  0  0  0  0  0
   -3.6175   -0.8027    0.0000 C   0  0  0  0  0  0  0  0  0  0  0  0
   -2.9362    0.5337    0.0000 O   0  0  0  0  0  0  0  0  0  0  0  0
   -5.1155   -0.8808    0.0000 N   0  0  0  0  0  0  0  0  0  0  0  0
   -5.9321    0.3774    0.0000 C   0  0  0  0  0  0  0  0  0  0  0  0
   -7.4301    0.2992    0.0000 C   0  0  0  0  0  0  0  0  0  0  0  0
   -8.2468    1.5574    0.0000 C   0  0  0  0  0  0  0  0  0  0  0  0
   -9.7447    1.4793    0.0000 C   0  0  0  0  0  0  0  0  0  0  0  0
  -10.4260    0.1429    0.0000 O   0  0  0  0  0  0  0  0  0  0  0  0
  -10.5614    2.7374    0.0000 O   0  0  0  0  0  0  0  0  0  0  0  0
   -5.2508    1.7137    0.0000 C   0  0  0  0  0  0  0  0  0  0  0  0
   -3.7529    1.7919    0.0000 O   0  0  0  0  0  0  0  0  0  0  0  0
   -6.0675    2.9719    0.0000 O   0  0  0  0  0  0  0  0  0  0  0  0
    1.0117   -3.1627    0.0000 C   0  0  0  0  0  0  0  0  0  0  0  0
    1.9555   -4.3287    0.0000 C   0  0  0  0  0  0  0  0  0  0  0  0
    3.3560   -3.7914    0.0000 C   0  0  0  0  0  0  0  0  0  0  0  0
    3.2778   -2.2935    0.0000 C   0  0  0  0  0  0  0  0  0  0  0  0
    4.3387   -1.2331    0.0000 C   0  0  0  0  0  0  0  0  0  0  0  0
    5.7875   -1.6216    0.0000 C   0  0  0  0  0  0  0  0  0  0  0  0
    6.8484   -0.5612    0.0000 C   0  0  0  0  0  0  0  0  0  0  0  0
    6.4605    0.8878    0.0000 C   0  0  0  0  0  0  0  0  0  0  0  0
    7.5214    1.9482    0.0000 C   0  0  0  0  0  0  0  0  0  0  0  0
    7.1335    3.3972    0.0000 C   0  0  0  0  0  0  0  0  0  0  0  0
    8.1944    4.4576    0.0000 O   0  0  0  0  0  0  0  0  0  0  0  0
    5.6847    3.7857    0.0000 C   0  0  0  0  0  0  0  0  0  0  0  0
    4.6238    2.7253    0.0000 C   0  0  0  0  0  0  0  0  0  0  0  0
    5.0117    1.2763    0.0000 C   0  0  0  0  0  0  0  0  0  0  0  0
    3.5629    1.6649    0.0000 C   0  0  0  0  0  0  0  0  0  0  0  0
    3.9508    0.2159    0.0000 C   0  0  0  0  0  0  0  0  0  0  0  0
    2.5020    0.6045    0.0000 C   0  0  0  0  0  0  0  0  0  0  0  0
    1.4411   -0.4559    0.0000 C   0  0  0  0  0  0  0  0  0  0  0  0
    1.8290   -1.9049    0.0000 C   0  0  0  0  0  0  0  0  0  0  0  0
    0.3475   -1.6699    0.0000 C   0  0  0  0  0  0  0  0  0  0  0  0
  2  1  1  6
  2  3  1  0
  3  4  1  0
  4  5  1  0
  5  6  2  0
  5  7  1  0
  7  8  1  0
  8  9  1  1
  9 10  1  0
 10 11  1  0
 11 12  2  0
 11 13  1  0
  8 14  1  0
 14 15  2  0
 14 16  1  0
  2 17  1  0
 17 18  1  6
 18 19  1  0
 20 19  1  6
 20 21  1  0
 21 22  1  1
 22 23  1  0
 24 23  1  1
 24 25  1  0
 25 26  1  0
 26 27  1  1
 26 28  1  0
 28 29  1  0
 29 30  1  0
 30 31  1  6
 30 32  1  0
 32 33  1  6
 33 34  1  0
 34 35  1  0
 35 36  1  6
 35 17  1  0
 35 20  1  0
 32 21  1  0
 30 24  1  0
M  END
>  <MS_ID>  (2902) 
MS3001

>  <SMILES>  (2902) 
C[C@H](CCC(=O)N[C@@H](CCC(=O)O)C(=O)O)[C@H]1CC[C@H]2[C@@H]3CC[C@@H]4C[C@H](O)CC[C@]4(C)[C@H]3CC[C@]12C

>  <Structure_dimension>  (2902) 
2D

$$$$
MS3002
     RDKit          2D

 22 25  0  0  0  0  0  0  0  0999 V2000
   -5.9846    0.0686    0.0000 C   0  0  0  0  0  0  0  0  0  0  0  0
   -4.5873    0.6142    0.0000 C   0  0  0  0  0  0  0  0  0  0  0  0
   -4.3612    2.0971    0.0000 O   0  0  0  0  0  0  0  0  0  0  0  0
   -3.4162   -0.3230    0.0000 C   0  0  0  0  0  0  0  0  0  0  0  0
   -3.4860   -1.8214    0.0000 C   0  0  0  0  0  0  0  0  0  0  0  0
   -2.0826   -2.3508    0.0000 C   0  0  0  0  0  0  0  0  0  0  0  0
   -1.1453   -1.1797    0.0000 C   0  0  0  0  0  0  0  0  0  0  0  0
    0.3521   -1.0925    0.0000 C   0  0  0  0  0  0  0  0  0  0  0  0
    1.1763   -2.3458    0.0000 C   0  0  0  0  0  0  0  0  0  0  0  0
    2.6738   -2.2586    0.0000 C   0  0  0  0  0  0  0  0  0  0  0  0
    3.3471   -0.9182    0.0000 C   0  0  0  0  0  0  0  0  0  0  0  0
    4.8445   -0.8311    0.0000 C   0  0  0  0  0  0  0  0  0  0  0  0
    5.5178    0.5094    0.0000 C   0  0  0  0  0  0  0  0  0  0  0  0
    4.6936    1.7626    0.0000 C   0  0  0  0  0  0  0  0  0  0  0  0
    3.1961    1.6755    0.0000 C   0  0  0  0  0  0  0  0  0  0  0  0
    2.5228    0.3350    0.0000 C   0  0  0  0  0  0  0  0  0  0  0  0
    1.6986    1.5883    0.0000 C   0  0  0  0  0  0  0  0  0  0  0  0
    1.0254    0.2479    0.0000 C   0  0  0  0  0  0  0  0  0  0  0  0
    0.2012    1.5012    0.0000 C   0  0  0  0  0  0  0  0  0  0  0  0
   -1.2963    1.4140    0.0000 C   0  0  0  0  0  0  0  0  0  0  0  0
   -1.9696    0.0736    0.0000 C   0  0  0  0  0  0  0  0  0  0  0  0
   -2.9202    1.2338    0.0000 C   0  0  0  0  0  0  0  0  0  0  0  0
  1  2  1  0
  2  3  2  0
  4  2  1  6
  4  5  1  0
  5  6  1  0
  7  6  1  6
  7  8  1  0
  8  9  1  1
  9 10  1  0
 11 10  1  1
 11 12  1  0
 12 13  1  0
 13 14  1  0
 14 15  1  0
 15 16  1  0
 16 17  1  6
 16 18  1  0
 18 19  1  6
 19 20  1  0
 20 21  1  0
 21 22  1  6
 21  4  1  0
 21  7  1  0
 18  8  1  0
 16 11  1  0
M  END
>  <MS_ID>  (2903) 
MS3002

>  <SMILES>  (2903) 
CC(=O)[C@H]1CC[C@H]2[C@@H]3CC[C@@H]4CCCC[C@]4(C)[C@H]3CC[C@]12C

>  <Structure_dimension>  (2903) 
2D

$$$$
MS3003
     RDKit          2D

 32 35  0  0  0  0  0  0  0  0999 V2000
   -7.0165    3.1811    0.0000 C   0  0  0  0  0  0  0  0  0  0  0  0
   -6.5991    1.7404    0.0000 C   0  0  0  0  0  0  0  0  0  0  0  0
   -7.6382    0.6585    0.0000 C   0  0  0  0  0  0  0  0  0  0  0  0
   -9.0946    1.0175    0.0000 O   0  0  0  0  0  0  0  0  0  0  0  0
   -5.1427    1.3814    0.0000 C   0  0  0  0  0  0  0  0  0  0  0  0
   -4.1036    2.4632    0.0000 O   0  0  0  0  0  0  0  0  0  0  0  0
   -4.7254   -0.0593    0.0000 C   0  0  0  0  0  0  0  0  0  0  0  0
   -3.2689   -0.4183    0.0000 C   0  0  0  0  0  0  0  0  0  0  0  0
   -2.8516   -1.8591    0.0000 C   0  0  0  0  0  0  0  0  0  0  0  0
   -3.8907   -2.9409    0.0000 C   0  0  0  0  0  0  0  0  0  0  0  0
   -1.3952   -2.2180    0.0000 C   0  0  0  0  0  0  0  0  0  0  0  0
   -0.8295   -3.6073    0.0000 C   0  0  0  0  0  0  0  0  0  0  0  0
    0.6666   -3.4986    0.0000 C   0  0  0  0  0  0  0  0  0  0  0  0
    1.0255   -2.0422    0.0000 C   0  0  0  0  0  0  0  0  0  0  0  0
    2.3480   -1.3344    0.0000 C   0  0  0  0  0  0  0  0  0  0  0  0
    3.6222   -2.1258    0.0000 C   0  0  0  0  0  0  0  0  0  0  0  0
    3.5739   -3.6250    0.0000 O   0  0  0  0  0  0  0  0  0  0  0  0
    4.9447   -1.4180    0.0000 C   0  0  0  0  0  0  0  0  0  0  0  0
    4.9930    0.0812    0.0000 C   0  0  0  0  0  0  0  0  0  0  0  0
    6.3156    0.7890    0.0000 C   0  0  0  0  0  0  0  0  0  0  0  0
    6.3639    2.2882    0.0000 C   0  0  0  0  0  0  0  0  0  0  0  0
    7.6864    2.9960    0.0000 O   0  0  0  0  0  0  0  0  0  0  0  0
    5.0896    3.0796    0.0000 C   0  0  0  0  0  0  0  0  0  0  0  0
    3.7671    2.3719    0.0000 C   0  0  0  0  0  0  0  0  0  0  0  0
    3.7188    0.8726    0.0000 C   0  0  0  0  0  0  0  0  0  0  0  0
    2.4446    1.6641    0.0000 C   0  0  0  0  0  0  0  0  0  0  0  0
    2.3963    0.1648    0.0000 C   0  0  0  0  0  0  0  0  0  0  0  0
    1.1221    0.9563    0.0000 C   0  0  0  0  0  0  0  0  0  0  0  0
   -0.2004    0.2485    0.0000 C   0  0  0  0  0  0  0  0  0  0  0  0
   -1.4746    1.0399    0.0000 O   0  0  0  0  0  0  0  0  0  0  0  0
   -0.2487   -1.2507    0.0000 C   0  0  0  0  0  0  0  0  0  0  0  0
   -1.5987   -0.5968    0.0000 C   0  0  0  0  0  0  0  0  0  0  0  0
  2  1  1  1
  2  3  1  0
  3  4  1  0
  2  5  1  0
  5  6  1  6
  5  7  1  0
  7  8  1  0
  8  9  1  0
  9 10  1  6
  9 11  1  0
 11 12  1  6
 12 13  1  0
 14 13  1  6
 14 15  1  0
 15 16  1  1
 16 17  1  1
 16 18  1  0
 19 18  1  1
 19 20  1  0
 20 21  1  0
 21 22  1  1
 21 23  1  0
 23 24  1  0
 24 25  1  0
 25 26  1  6
 25 27  1  0
 27 28  1  6
 28 29  1  0
 29 30  1  1
 29 31  1  0
 31 32  1  6
 31 11  1  0
 31 14  1  0
 27 15  1  0
 25 19  1  0
M  END
>  <MS_ID>  (2904) 
MS3003

>  <SMILES>  (2904) 
C[C@H](CO)[C@H](O)CC[C@@H](C)[C@H]1CC[C@H]2[C@@H]3[C@H](O)C[C@@H]4C[C@H](O)CC[C@]4(C)[C@H]3C[C@H](O)[C@]12C

>  <Structure_dimension>  (2904) 
2D

$$$$
MS3004
     RDKit          2D

 36 39  0  0  0  0  0  0  0  0999 V2000
   -0.9665   -4.6820    0.0000 C   0  0  0  0  0  0  0  0  0  0  0  0
   -0.3301   -3.3237    0.0000 C   0  0  0  0  0  0  0  0  0  0  0  0
   -1.1883   -2.0934    0.0000 C   0  0  0  0  0  0  0  0  0  0  0  0
   -2.6828   -2.2215    0.0000 C   0  0  0  0  0  0  0  0  0  0  0  0
   -3.5410   -0.9913    0.0000 C   0  0  0  0  0  0  0  0  0  0  0  0
   -2.9047    0.3671    0.0000 O   0  0  0  0  0  0  0  0  0  0  0  0
   -5.0356   -1.1194    0.0000 N   0  0  0  0  0  0  0  0  0  0  0  0
   -5.8938    0.1109    0.0000 C   0  0  0  0  0  0  0  0  0  0  0  0
   -7.3883   -0.0172    0.0000 C   0  0  0  0  0  0  0  0  0  0  0  0
   -8.2465    1.2130    0.0000 C   0  0  0  0  0  0  0  0  0  0  0  0
   -9.7410    1.0849    0.0000 C   0  0  0  0  0  0  0  0  0  0  0  0
  -10.5992    2.3152    0.0000 C   0  0  0  0  0  0  0  0  0  0  0  0
  -12.0937    2.1871    0.0000 N   0  0  0  0  0  0  0  0  0  0  0  0
   -5.2574    1.4692    0.0000 C   0  0  0  0  0  0  0  0  0  0  0  0
   -3.7629    1.5973    0.0000 O   0  0  0  0  0  0  0  0  0  0  0  0
   -6.1156    2.6995    0.0000 O   0  0  0  0  0  0  0  0  0  0  0  0
    1.1644   -3.1956    0.0000 C   0  0  0  0  0  0  0  0  0  0  0  0
    2.1465   -4.3294    0.0000 C   0  0  0  0  0  0  0  0  0  0  0  0
    3.5283   -3.7457    0.0000 C   0  0  0  0  0  0  0  0  0  0  0  0
    3.4002   -2.2512    0.0000 C   0  0  0  0  0  0  0  0  0  0  0  0
    4.4251   -1.1560    0.0000 C   0  0  0  0  0  0  0  0  0  0  0  0
    5.8861   -1.4960    0.0000 C   0  0  0  0  0  0  0  0  0  0  0  0
    6.9110   -0.4007    0.0000 C   0  0  0  0  0  0  0  0  0  0  0  0
    6.4750    1.0345    0.0000 C   0  0  0  0  0  0  0  0  0  0  0  0
    7.4999    2.1297    0.0000 C   0  0  0  0  0  0  0  0  0  0  0  0
    7.0639    3.5649    0.0000 C   0  0  0  0  0  0  0  0  0  0  0  0
    8.0888    4.6602    0.0000 O   0  0  0  0  0  0  0  0  0  0  0  0
    5.6029    3.9050    0.0000 C   0  0  0  0  0  0  0  0  0  0  0  0
    4.5780    2.8097    0.0000 C   0  0  0  0  0  0  0  0  0  0  0  0
    5.0140    1.3745    0.0000 C   0  0  0  0  0  0  0  0  0  0  0  0
    3.5531    1.7145    0.0000 C   0  0  0  0  0  0  0  0  0  0  0  0
    3.9891    0.2793    0.0000 C   0  0  0  0  0  0  0  0  0  0  0  0
    2.5281    0.6193    0.0000 C   0  0  0  0  0  0  0  0  0  0  0  0
    1.5032   -0.4759    0.0000 C   0  0  0  0  0  0  0  0  0  0  0  0
    1.9392   -1.9112    0.0000 C   0  0  0  0  0  0  0  0  0  0  0  0
    0.4507   -1.7257    0.0000 C   0  0  0  0  0  0  0  0  0  0  0  0
  2  1  1  6
  2  3  1  0
  3  4  1  0
  4  5  1  0
  5  6  2  0
  5  7  1  0
  7  8  1  0
  8  9  1  1
  9 10  1  0
 10 11  1  0
 11 12  1  0
 12 13  1  0
  8 14  1  0
 14 15  2  0
 14 16  1  0
  2 17  1  0
 17 18  1  6
 18 19  1  0
 20 19  1  6
 20 21  1  0
 21 22  1  1
 22 23  1  0
 24 23  1  1
 24 25  1  0
 25 26  1  0
 26 27  1  1
 26 28  1  0
 28 29  1  0
 29 30  1  0
 30 31  1  6
 30 32  1  0
 32 33  1  6
 33 34  1  0
 34 35  1  0
 35 36  1  6
 35 17  1  0
 35 20  1  0
 32 21  1  0
 30 24  1  0
M  END
>  <MS_ID>  (2905) 
MS3004

>  <SMILES>  (2905) 
C[C@H](CCC(=O)N[C@@H](CCCCN)C(=O)O)[C@H]1CC[C@H]2[C@@H]3CC[C@@H]4C[C@H](O)CC[C@]4(C)[C@H]3CC[C@]12C

>  <Structure_dimension>  (2905) 
2D

$$$$
MS3005
     RDKit          2D

 33 36  0  0  0  0  0  0  0  0999 V2000
   -3.3299    2.4388    0.0000 C   0  0  0  0  0  0  0  0  0  0  0  0
   -2.0698    1.6249    0.0000 S   0  0  0  0  0  0  0  0  0  0  0  0
   -2.1446    0.1268    0.0000 C   0  0  0  0  0  0  0  0  0  0  0  0
   -3.4795   -0.5575    0.0000 C   0  0  0  0  0  0  0  0  0  0  0  0
   -4.7395    0.2563    0.0000 C   0  0  0  0  0  0  0  0  0  0  0  0
   -6.0743   -0.4279    0.0000 C   0  0  0  0  0  0  0  0  0  0  0  0
   -6.1491   -1.9261    0.0000 O   0  0  0  0  0  0  0  0  0  0  0  0
   -7.3343    0.3859    0.0000 N   0  0  0  0  0  0  0  0  0  0  0  0
   -8.6691   -0.2984    0.0000 C   0  0  0  0  0  0  0  0  0  0  0  0
   -9.9292    0.5155    0.0000 C   0  0  0  0  0  0  0  0  0  0  0  0
   -9.8544    2.0136    0.0000 O   0  0  0  0  0  0  0  0  0  0  0  0
  -11.2640   -0.1688    0.0000 O   0  0  0  0  0  0  0  0  0  0  0  0
   -0.8846   -0.6871    0.0000 C   0  0  0  0  0  0  0  0  0  0  0  0
   -0.8024   -2.1848    0.0000 C   0  0  0  0  0  0  0  0  0  0  0  0
    0.6474   -2.5694    0.0000 C   0  0  0  0  0  0  0  0  0  0  0  0
    1.4613   -1.3094    0.0000 C   0  0  0  0  0  0  0  0  0  0  0  0
    2.9422   -1.0711    0.0000 C   0  0  0  0  0  0  0  0  0  0  0  0
    3.8891   -2.2345    0.0000 C   0  0  0  0  0  0  0  0  0  0  0  0
    3.3550   -3.6362    0.0000 O   0  0  0  0  0  0  0  0  0  0  0  0
    5.3700   -1.9962    0.0000 C   0  0  0  0  0  0  0  0  0  0  0  0
    5.9041   -0.5945    0.0000 C   0  0  0  0  0  0  0  0  0  0  0  0
    7.3851   -0.3562    0.0000 C   0  0  0  0  0  0  0  0  0  0  0  0
    7.9192    1.0455    0.0000 C   0  0  0  0  0  0  0  0  0  0  0  0
    9.4001    1.2839    0.0000 O   0  0  0  0  0  0  0  0  0  0  0  0
    6.9723    2.2089    0.0000 C   0  0  0  0  0  0  0  0  0  0  0  0
    5.4914    1.9706    0.0000 C   0  0  0  0  0  0  0  0  0  0  0  0
    4.9573    0.5689    0.0000 C   0  0  0  0  0  0  0  0  0  0  0  0
    4.0104    1.7323    0.0000 C   0  0  0  0  0  0  0  0  0  0  0  0
    3.4763    0.3306    0.0000 C   0  0  0  0  0  0  0  0  0  0  0  0
    2.5295    1.4940    0.0000 C   0  0  0  0  0  0  0  0  0  0  0  0
    1.0485    1.2557    0.0000 C   0  0  0  0  0  0  0  0  0  0  0  0
    0.5144   -0.1460    0.0000 C   0  0  0  0  0  0  0  0  0  0  0  0
   -0.5489    0.9120    0.0000 C   0  0  0  0  0  0  0  0  0  0  0  0
  1  2  1  0
  2  3  1  0
  3  4  1  1
  4  5  1  0
  5  6  1  0
  6  7  2  0
  6  8  1  0
  8  9  1  0
  9 10  1  0
 10 11  2  0
 10 12  1  0
  3 13  1  0
 13 14  1  6
 14 15  1  0
 16 15  1  6
 16 17  1  0
 17 18  1  1
 18 19  1  6
 18 20  1  0
 21 20  1  1
 21 22  1  0
 22 23  1  0
 23 24  1  1
 23 25  1  0
 25 26  1  0
 26 27  1  0
 27 28  1  6
 27 29  1  0
 29 30  1  6
 30 31  1  0
 31 32  1  0
 32 33  1  6
 32 13  1  0
 32 16  1  0
 29 17  1  0
 27 21  1  0
M  END
>  <MS_ID>  (2906) 
MS3005

>  <SMILES>  (2906) 
CS[C@H](CCC(=O)NCC(=O)O)[C@H]1CC[C@H]2[C@@H]3[C@@H](O)C[C@@H]4C[C@H](O)CC[C@]4(C)[C@H]3CC[C@]12C

>  <Structure_dimension>  (2906) 
2D

$$$$
MS3006
     RDKit          2D

 28 31  0  0  0  0  0  0  0  0999 V2000
   -4.4797    2.6518    0.0000 C   0  0  0  0  0  0  0  0  0  0  0  0
   -3.2699    1.7649    0.0000 S   0  0  0  0  0  0  0  0  0  0  0  0
   -3.4331    0.2738    0.0000 C   0  0  0  0  0  0  0  0  0  0  0  0
   -4.8060   -0.3304    0.0000 C   0  0  0  0  0  0  0  0  0  0  0  0
   -6.0157    0.5564    0.0000 C   0  0  0  0  0  0  0  0  0  0  0  0
   -7.3887   -0.0478    0.0000 C   0  0  0  0  0  0  0  0  0  0  0  0
   -7.5518   -1.5389    0.0000 O   0  0  0  0  0  0  0  0  0  0  0  0
   -8.5984    0.8390    0.0000 O   0  0  0  0  0  0  0  0  0  0  0  0
   -2.2233   -0.6130    0.0000 C   0  0  0  0  0  0  0  0  0  0  0  0
   -2.2297   -2.1130    0.0000 C   0  0  0  0  0  0  0  0  0  0  0  0
   -0.8052   -2.5826    0.0000 C   0  0  0  0  0  0  0  0  0  0  0  0
    0.0817   -1.3729    0.0000 C   0  0  0  0  0  0  0  0  0  0  0  0
    1.5741   -1.2225    0.0000 C   0  0  0  0  0  0  0  0  0  0  0  0
    2.4506   -2.4397    0.0000 C   0  0  0  0  0  0  0  0  0  0  0  0
    3.9431   -2.2893    0.0000 C   0  0  0  0  0  0  0  0  0  0  0  0
    4.5590   -0.9216    0.0000 C   0  0  0  0  0  0  0  0  0  0  0  0
    6.0515   -0.7712    0.0000 C   0  0  0  0  0  0  0  0  0  0  0  0
    6.6674    0.5965    0.0000 C   0  0  0  0  0  0  0  0  0  0  0  0
    8.1598    0.7469    0.0000 O   0  0  0  0  0  0  0  0  0  0  0  0
    5.7909    1.8138    0.0000 C   0  0  0  0  0  0  0  0  0  0  0  0
    4.2985    1.6634    0.0000 C   0  0  0  0  0  0  0  0  0  0  0  0
    3.6825    0.2957    0.0000 C   0  0  0  0  0  0  0  0  0  0  0  0
    2.8060    1.5129    0.0000 C   0  0  0  0  0  0  0  0  0  0  0  0
    2.1901    0.1452    0.0000 C   0  0  0  0  0  0  0  0  0  0  0  0
    1.3136    1.3625    0.0000 C   0  0  0  0  0  0  0  0  0  0  0  0
   -0.1788    1.2121    0.0000 C   0  0  0  0  0  0  0  0  0  0  0  0
   -0.7948   -0.1556    0.0000 C   0  0  0  0  0  0  0  0  0  0  0  0
   -1.7937    0.9634    0.0000 C   0  0  0  0  0  0  0  0  0  0  0  0
  1  2  1  0
  2  3  1  0
  3  4  1  1
  4  5  1  0
  5  6  1  0
  6  7  2  0
  6  8  1  0
  3  9  1  0
  9 10  1  6
 10 11  1  0
 12 11  1  6
 12 13  1  0
 13 14  1  1
 14 15  1  0
 16 15  1  1
 16 17  1  0
 17 18  1  0
 18 19  1  1
 18 20  1  0
 20 21  1  0
 21 22  1  0
 22 23  1  6
 22 24  1  0
 24 25  1  6
 25 26  1  0
 26 27  1  0
 27 28  1  6
 27  9  1  0
 27 12  1  0
 24 13  1  0
 22 16  1  0
M  END
>  <MS_ID>  (2907) 
MS3006

>  <SMILES>  (2907) 
CS[C@H](CCC(=O)O)[C@H]1CC[C@H]2[C@@H]3CC[C@@H]4C[C@H](O)CC[C@]4(C)[C@H]3CC[C@]12C

>  <Structure_dimension>  (2907) 
2D

$$$$
MS3007
     RDKit          2D

 34 38  0  0  0  0  0  0  0  0999 V2000
   -2.4831   -3.9515    0.0000 C   0  0  0  0  0  0  0  0  0  0  0  0
   -1.6119   -2.7305    0.0000 C   0  0  0  0  0  0  0  0  0  0  0  0
   -2.2337   -1.3655    0.0000 C   0  0  0  0  0  0  0  0  0  0  0  0
   -3.7268   -1.2215    0.0000 C   0  0  0  0  0  0  0  0  0  0  0  0
   -4.3486    0.1436    0.0000 C   0  0  0  0  0  0  0  0  0  0  0  0
   -3.4774    1.3646    0.0000 O   0  0  0  0  0  0  0  0  0  0  0  0
   -5.8417    0.2876    0.0000 N   0  0  0  0  0  0  0  0  0  0  0  0
   -6.8358   -0.8357    0.0000 C   0  0  0  0  0  0  0  0  0  0  0  0
   -8.2113   -0.2374    0.0000 C   0  0  0  0  0  0  0  0  0  0  0  0
   -8.0673    1.2557    0.0000 C   0  0  0  0  0  0  0  0  0  0  0  0
   -6.6028    1.5801    0.0000 C   0  0  0  0  0  0  0  0  0  0  0  0
   -6.0045    2.9556    0.0000 C   0  0  0  0  0  0  0  0  0  0  0  0
   -4.5141    3.1252    0.0000 O   0  0  0  0  0  0  0  0  0  0  0  0
   -6.8965    4.1615    0.0000 O   0  0  0  0  0  0  0  0  0  0  0  0
   -0.1188   -2.8745    0.0000 C   0  0  0  0  0  0  0  0  0  0  0  0
    0.6423   -4.1670    0.0000 C   0  0  0  0  0  0  0  0  0  0  0  0
    2.1068   -3.8426    0.0000 C   0  0  0  0  0  0  0  0  0  0  0  0
    2.2508   -2.3495    0.0000 C   0  0  0  0  0  0  0  0  0  0  0  0
    3.4567   -1.4575    0.0000 C   0  0  0  0  0  0  0  0  0  0  0  0
    4.8322   -2.0558    0.0000 C   0  0  0  0  0  0  0  0  0  0  0  0
    6.0382   -1.1637    0.0000 C   0  0  0  0  0  0  0  0  0  0  0  0
    5.8686    0.3266    0.0000 C   0  0  0  0  0  0  0  0  0  0  0  0
    7.0745    1.2187    0.0000 C   0  0  0  0  0  0  0  0  0  0  0  0
    6.9049    2.7091    0.0000 C   0  0  0  0  0  0  0  0  0  0  0  0
    8.1108    3.6011    0.0000 O   0  0  0  0  0  0  0  0  0  0  0  0
    5.5294    3.3074    0.0000 C   0  0  0  0  0  0  0  0  0  0  0  0
    4.3235    2.4154    0.0000 C   0  0  0  0  0  0  0  0  0  0  0  0
    4.4931    0.9250    0.0000 C   0  0  0  0  0  0  0  0  0  0  0  0
    3.1176    1.5233    0.0000 C   0  0  0  0  0  0  0  0  0  0  0  0
    3.2871    0.0329    0.0000 C   0  0  0  0  0  0  0  0  0  0  0  0
    1.9116    0.6312    0.0000 C   0  0  0  0  0  0  0  0  0  0  0  0
    0.7057   -0.2608    0.0000 C   0  0  0  0  0  0  0  0  0  0  0  0
    0.8753   -1.7512    0.0000 C   0  0  0  0  0  0  0  0  0  0  0  0
   -0.5552   -1.2999    0.0000 C   0  0  0  0  0  0  0  0  0  0  0  0
  2  1  1  6
  2  3  1  0
  3  4  1  0
  4  5  1  0
  5  6  2  0
  5  7  1  0
  7  8  1  0
  8  9  1  0
  9 10  1  0
 10 11  1  0
 11 12  1  1
 12 13  2  0
 12 14  1  0
  2 15  1  0
 15 16  1  6
 16 17  1  0
 18 17  1  6
 18 19  1  0
 19 20  1  1
 20 21  1  0
 22 21  1  1
 22 23  1  0
 23 24  1  0
 24 25  1  1
 24 26  1  0
 26 27  1  0
 27 28  1  0
 28 29  1  6
 28 30  1  0
 30 31  1  6
 31 32  1  0
 32 33  1  0
 33 34  1  6
 11  7  1  0
 33 15  1  0
 33 18  1  0
 30 19  1  0
 28 22  1  0
M  END
>  <MS_ID>  (2908) 
MS3007

>  <SMILES>  (2908) 
C[C@H](CCC(=O)N1CCC[C@H]1C(=O)O)[C@H]1CC[C@H]2[C@@H]3CC[C@@H]4C[C@H](O)CC[C@]4(C)[C@H]3CC[C@]12C

>  <Structure_dimension>  (2908) 
2D

$$$$
MS3009
     RDKit          2D

 26 29  0  0  0  0  0  0  0  0999 V2000
   -5.4538   -1.1866    0.0000 C   0  0  0  0  0  0  0  0  0  0  0  0
   -4.1562   -0.4342    0.0000 C   0  0  0  0  0  0  0  0  0  0  0  0
   -4.1590    1.0658    0.0000 C   0  0  0  0  0  0  0  0  0  0  0  0
   -5.4594    1.8134    0.0000 C   0  0  0  0  0  0  0  0  0  0  0  0
   -6.7571    1.0609    0.0000 O   0  0  0  0  0  0  0  0  0  0  0  0
   -5.4623    3.3134    0.0000 O   0  0  0  0  0  0  0  0  0  0  0  0
   -2.8557   -1.1817    0.0000 C   0  0  0  0  0  0  0  0  0  0  0  0
   -2.6961   -2.6732    0.0000 C   0  0  0  0  0  0  0  0  0  0  0  0
   -1.2283   -2.9823    0.0000 C   0  0  0  0  0  0  0  0  0  0  0  0
   -0.4808   -1.6818    0.0000 C   0  0  0  0  0  0  0  0  0  0  0  0
    0.9859   -1.3672    0.0000 C   0  0  0  0  0  0  0  0  0  0  0  0
    1.9917   -2.4800    0.0000 C   0  0  0  0  0  0  0  0  0  0  0  0
    3.4583   -2.1654    0.0000 C   0  0  0  0  0  0  0  0  0  0  0  0
    3.9191   -0.7379    0.0000 C   0  0  0  0  0  0  0  0  0  0  0  0
    5.3858   -0.4233    0.0000 C   0  0  0  0  0  0  0  0  0  0  0  0
    5.8466    1.0042    0.0000 C   0  0  0  0  0  0  0  0  0  0  0  0
    7.3132    1.3188    0.0000 O   0  0  0  0  0  0  0  0  0  0  0  0
    4.8408    2.1170    0.0000 C   0  0  0  0  0  0  0  0  0  0  0  0
    3.3742    1.8023    0.0000 C   0  0  0  0  0  0  0  0  0  0  0  0
    2.9133    0.3749    0.0000 C   0  0  0  0  0  0  0  0  0  0  0  0
    1.9075    1.4877    0.0000 C   0  0  0  0  0  0  0  0  0  0  0  0
    1.4467    0.0602    0.0000 C   0  0  0  0  0  0  0  0  0  0  0  0
    0.4409    1.1731    0.0000 C   0  0  0  0  0  0  0  0  0  0  0  0
   -1.0257    0.8584    0.0000 C   0  0  0  0  0  0  0  0  0  0  0  0
   -1.4866   -0.5690    0.0000 C   0  0  0  0  0  0  0  0  0  0  0  0
   -2.6032    0.4326    0.0000 C   0  0  0  0  0  0  0  0  0  0  0  0
  2  1  1  6
  2  3  1  0
  3  4  1  0
  4  5  2  0
  4  6  1  0
  2  7  1  0
  7  8  1  6
  8  9  1  0
 10  9  1  6
 10 11  1  0
 11 12  1  1
 12 13  1  0
 14 13  1  1
 14 15  1  0
 15 16  1  0
 16 17  1  1
 16 18  1  0
 18 19  1  0
 19 20  1  0
 20 21  1  6
 20 22  1  0
 22 23  1  6
 23 24  1  0
 24 25  1  0
 25 26  1  6
 25  7  1  0
 25 10  1  0
 22 11  1  0
 20 14  1  0
M  END
>  <MS_ID>  (2909) 
MS3009

>  <SMILES>  (2909) 
C[C@H](CC(=O)O)[C@H]1CC[C@H]2[C@@H]3CC[C@@H]4C[C@H](O)CC[C@]4(C)[C@H]3CC[C@]12C

>  <Structure_dimension>  (2909) 
2D

$$$$
MS3010
     RDKit          2D

 24 27  0  0  0  0  0  0  0  0999 V2000
   -7.1591    0.8654    0.0000 C   0  0  0  0  0  0  0  0  0  0  0  0
   -5.9784   -0.0597    0.0000 C   0  0  0  0  0  0  0  0  0  0  0  0
   -4.5869    0.5003    0.0000 C   0  0  0  0  0  0  0  0  0  0  0  0
   -4.3760    1.9854    0.0000 O   0  0  0  0  0  0  0  0  0  0  0  0
   -3.4061   -0.4248    0.0000 C   0  0  0  0  0  0  0  0  0  0  0  0
   -3.4606   -1.9239    0.0000 C   0  0  0  0  0  0  0  0  0  0  0  0
   -2.0517   -2.4388    0.0000 C   0  0  0  0  0  0  0  0  0  0  0  0
   -1.1266   -1.2581    0.0000 C   0  0  0  0  0  0  0  0  0  0  0  0
    0.3699   -1.1555    0.0000 C   0  0  0  0  0  0  0  0  0  0  0  0
    1.2070   -2.4003    0.0000 C   0  0  0  0  0  0  0  0  0  0  0  0
    2.7034   -2.2977    0.0000 C   0  0  0  0  0  0  0  0  0  0  0  0
    3.3629   -0.9504    0.0000 C   0  0  0  0  0  0  0  0  0  0  0  0
    4.8594   -0.8479    0.0000 C   0  0  0  0  0  0  0  0  0  0  0  0
    5.5188    0.4994    0.0000 C   0  0  0  0  0  0  0  0  0  0  0  0
    7.0153    0.6020    0.0000 O   0  0  0  0  0  0  0  0  0  0  0  0
    4.6817    1.7441    0.0000 C   0  0  0  0  0  0  0  0  0  0  0  0
    3.1852    1.6416    0.0000 C   0  0  0  0  0  0  0  0  0  0  0  0
    2.5258    0.2943    0.0000 C   0  0  0  0  0  0  0  0  0  0  0  0
    1.6887    1.5390    0.0000 C   0  0  0  0  0  0  0  0  0  0  0  0
    1.0293    0.1917    0.0000 C   0  0  0  0  0  0  0  0  0  0  0  0
    0.1923    1.4364    0.0000 C   0  0  0  0  0  0  0  0  0  0  0  0
   -1.3042    1.3339    0.0000 C   0  0  0  0  0  0  0  0  0  0  0  0
   -1.9637   -0.0134    0.0000 C   0  0  0  0  0  0  0  0  0  0  0  0
   -2.9262    1.1370    0.0000 C   0  0  0  0  0  0  0  0  0  0  0  0
  1  2  1  0
  2  3  1  0
  3  4  2  0
  5  3  1  6
  5  6  1  0
  6  7  1  0
  8  7  1  6
  8  9  1  0
  9 10  1  1
 10 11  1  0
 12 11  1  1
 12 13  1  0
 13 14  1  0
 14 15  1  1
 14 16  1  0
 16 17  1  0
 17 18  1  0
 18 19  1  6
 18 20  1  0
 20 21  1  6
 21 22  1  0
 22 23  1  0
 23 24  1  6
 23  5  1  0
 23  8  1  0
 20  9  1  0
 18 12  1  0
M  END
>  <MS_ID>  (2910) 
MS3010

>  <SMILES>  (2910) 
CCC(=O)[C@H]1CC[C@H]2[C@@H]3CC[C@@H]4C[C@H](O)CC[C@]4(C)[C@H]3CC[C@]12C

>  <Structure_dimension>  (2910) 
2D

$$$$
MS3011
     RDKit          2D

 38 42  0  0  0  0  0  0  0  0999 V2000
   -0.7712   -4.7706    0.0000 C   0  0  0  0  0  0  0  0  0  0  0  0
   -0.2076   -3.3806    0.0000 C   0  0  0  0  0  0  0  0  0  0  0  0
   -1.1296   -2.1974    0.0000 C   0  0  0  0  0  0  0  0  0  0  0  0
   -2.6152   -2.4043    0.0000 C   0  0  0  0  0  0  0  0  0  0  0  0
   -3.5372   -1.2211    0.0000 C   0  0  0  0  0  0  0  0  0  0  0  0
   -2.9736    0.1690    0.0000 O   0  0  0  0  0  0  0  0  0  0  0  0
   -5.0229   -1.4280    0.0000 N   0  0  0  0  0  0  0  0  0  0  0  0
   -5.9449   -0.2448    0.0000 C   0  0  0  0  0  0  0  0  0  0  0  0
   -7.4306   -0.4517    0.0000 C   0  0  0  0  0  0  0  0  0  0  0  0
   -8.3526    0.7315    0.0000 C   0  0  0  0  0  0  0  0  0  0  0  0
   -9.8517    0.6810    0.0000 C   0  0  0  0  0  0  0  0  0  0  0  0
  -10.3630    2.0912    0.0000 N   0  0  0  0  0  0  0  0  0  0  0  0
   -9.1798    3.0132    0.0000 C   0  0  0  0  0  0  0  0  0  0  0  0
   -7.9373    2.1729    0.0000 N   0  0  0  0  0  0  0  0  0  0  0  0
   -5.3812    1.1453    0.0000 C   0  0  0  0  0  0  0  0  0  0  0  0
   -3.8956    1.3522    0.0000 O   0  0  0  0  0  0  0  0  0  0  0  0
   -6.3032    2.3285    0.0000 O   0  0  0  0  0  0  0  0  0  0  0  0
    1.2781   -3.1737    0.0000 C   0  0  0  0  0  0  0  0  0  0  0  0
    2.3187   -4.2540    0.0000 C   0  0  0  0  0  0  0  0  0  0  0  0
    3.6677   -3.5981    0.0000 C   0  0  0  0  0  0  0  0  0  0  0  0
    3.4608   -2.1125    0.0000 C   0  0  0  0  0  0  0  0  0  0  0  0
    4.4265   -0.9646    0.0000 C   0  0  0  0  0  0  0  0  0  0  0  0
    5.9034   -1.2270    0.0000 C   0  0  0  0  0  0  0  0  0  0  0  0
    6.4146   -2.6372    0.0000 O   0  0  0  0  0  0  0  0  0  0  0  0
    6.8690   -0.0791    0.0000 C   0  0  0  0  0  0  0  0  0  0  0  0
    6.3577    1.3311    0.0000 C   0  0  0  0  0  0  0  0  0  0  0  0
    7.3234    2.4789    0.0000 C   0  0  0  0  0  0  0  0  0  0  0  0
    6.8121    3.8891    0.0000 C   0  0  0  0  0  0  0  0  0  0  0  0
    7.7777    5.0369    0.0000 O   0  0  0  0  0  0  0  0  0  0  0  0
    5.3352    4.1514    0.0000 C   0  0  0  0  0  0  0  0  0  0  0  0
    4.3696    3.0036    0.0000 C   0  0  0  0  0  0  0  0  0  0  0  0
    4.8809    1.5934    0.0000 C   0  0  0  0  0  0  0  0  0  0  0  0
    3.4040    1.8557    0.0000 C   0  0  0  0  0  0  0  0  0  0  0  0
    3.9152    0.4456    0.0000 C   0  0  0  0  0  0  0  0  0  0  0  0
    2.4383    0.7079    0.0000 C   0  0  0  0  0  0  0  0  0  0  0  0
    1.4727   -0.4400    0.0000 C   0  0  0  0  0  0  0  0  0  0  0  0
    1.9840   -1.8501    0.0000 C   0  0  0  0  0  0  0  0  0  0  0  0
    0.4877   -1.7436    0.0000 C   0  0  0  0  0  0  0  0  0  0  0  0
  2  1  1  6
  2  3  1  0
  3  4  1  0
  4  5  1  0
  5  6  2  0
  5  7  1  0
  7  8  1  0
  8  9  1  1
  9 10  1  0
 10 11  2  0
 11 12  1  0
 12 13  1  0
 13 14  2  0
  8 15  1  0
 15 16  2  0
 15 17  1  0
  2 18  1  0
 18 19  1  6
 19 20  1  0
 21 20  1  6
 21 22  1  0
 22 23  1  1
 23 24  1  6
 23 25  1  0
 26 25  1  1
 26 27  1  0
 27 28  1  0
 28 29  1  1
 28 30  1  0
 30 31  1  0
 31 32  1  0
 32 33  1  6
 32 34  1  0
 34 35  1  6
 35 36  1  0
 36 37  1  0
 37 38  1  6
 14 10  1  0
 37 18  1  0
 37 21  1  0
 34 22  1  0
 32 26  1  0
M  END
>  <MS_ID>  (2911) 
MS3011

>  <SMILES>  (2911) 
C[C@H](CCC(=O)N[C@@H](Cc1c[nH]cn1)C(=O)O)[C@H]1CC[C@H]2[C@@H]3[C@@H](O)C[C@@H]4C[C@H](O)CC[C@]4(C)[C@H]3CC[C@]12C

>  <Structure_dimension>  (2911) 
2D

$$$$
MS3012
     RDKit          2D

 24 27  0  0  0  0  0  0  0  0999 V2000
   -6.2943    0.2891    0.0000 C   0  0  0  0  0  0  0  0  0  0  0  0
   -4.8892    0.8143    0.0000 C   0  0  0  0  0  0  0  0  0  0  0  0
   -4.6416    2.2937    0.0000 O   0  0  0  0  0  0  0  0  0  0  0  0
   -3.7319   -0.1399    0.0000 C   0  0  0  0  0  0  0  0  0  0  0  0
   -3.8235   -1.6371    0.0000 C   0  0  0  0  0  0  0  0  0  0  0  0
   -2.4280   -2.1870    0.0000 C   0  0  0  0  0  0  0  0  0  0  0  0
   -1.4738   -1.0296    0.0000 C   0  0  0  0  0  0  0  0  0  0  0  0
    0.0248   -0.9643    0.0000 C   0  0  0  0  0  0  0  0  0  0  0  0
    0.8307   -2.2294    0.0000 C   0  0  0  0  0  0  0  0  0  0  0  0
    0.1380   -3.5599    0.0000 O   0  0  0  0  0  0  0  0  0  0  0  0
    2.3293   -2.1641    0.0000 C   0  0  0  0  0  0  0  0  0  0  0  0
    3.0220   -0.8336    0.0000 C   0  0  0  0  0  0  0  0  0  0  0  0
    4.5205   -0.7683    0.0000 C   0  0  0  0  0  0  0  0  0  0  0  0
    5.2133    0.5622    0.0000 C   0  0  0  0  0  0  0  0  0  0  0  0
    6.7118    0.6275    0.0000 O   0  0  0  0  0  0  0  0  0  0  0  0
    4.4074    1.8273    0.0000 C   0  0  0  0  0  0  0  0  0  0  0  0
    2.9088    1.7620    0.0000 C   0  0  0  0  0  0  0  0  0  0  0  0
    2.2161    0.4315    0.0000 C   0  0  0  0  0  0  0  0  0  0  0  0
    1.4102    1.6967    0.0000 C   0  0  0  0  0  0  0  0  0  0  0  0
    0.7175    0.3662    0.0000 C   0  0  0  0  0  0  0  0  0  0  0  0
   -0.0883    1.6314    0.0000 C   0  0  0  0  0  0  0  0  0  0  0  0
   -1.5869    1.5660    0.0000 C   0  0  0  0  0  0  0  0  0  0  0  0
   -2.2796    0.2356    0.0000 C   0  0  0  0  0  0  0  0  0  0  0  0
   -3.2133    1.4095    0.0000 C   0  0  0  0  0  0  0  0  0  0  0  0
  1  2  1  0
  2  3  2  0
  4  2  1  6
  4  5  1  0
  5  6  1  0
  7  6  1  6
  7  8  1  0
  8  9  1  1
  9 10  1  1
  9 11  1  0
 12 11  1  1
 12 13  1  0
 13 14  1  0
 14 15  2  0
 14 16  1  0
 16 17  1  0
 17 18  1  0
 18 19  1  6
 18 20  1  0
 20 21  1  6
 21 22  1  0
 22 23  1  0
 23 24  1  6
 23  4  1  0
 23  7  1  0
 20  8  1  0
 18 12  1  0
M  END
>  <MS_ID>  (2912) 
MS3012

>  <SMILES>  (2912) 
CC(=O)[C@H]1CC[C@H]2[C@@H]3[C@H](O)C[C@@H]4CC(=O)CC[C@]4(C)[C@H]3CC[C@]12C

>  <Structure_dimension>  (2912) 
2D

$$$$
MS3013
     RDKit          2D

 31 34  0  0  0  0  0  0  0  0999 V2000
   -4.3801    4.1978    0.0000 C   0  0  0  0  0  0  0  0  0  0  0  0
   -4.0903    2.7261    0.0000 C   0  0  0  0  0  0  0  0  0  0  0  0
   -2.6708    2.2412    0.0000 C   0  0  0  0  0  0  0  0  0  0  0  0
   -5.2199    1.7392    0.0000 C   0  0  0  0  0  0  0  0  0  0  0  0
   -6.6394    2.2241    0.0000 C   0  0  0  0  0  0  0  0  0  0  0  0
   -4.9301    0.2675    0.0000 C   0  0  0  0  0  0  0  0  0  0  0  0
   -6.0598   -0.7194    0.0000 O   0  0  0  0  0  0  0  0  0  0  0  0
   -3.5106   -0.2174    0.0000 C   0  0  0  0  0  0  0  0  0  0  0  0
   -2.3810    0.7695    0.0000 O   0  0  0  0  0  0  0  0  0  0  0  0
   -3.2208   -1.6891    0.0000 C   0  0  0  0  0  0  0  0  0  0  0  0
   -4.3505   -2.6760    0.0000 C   0  0  0  0  0  0  0  0  0  0  0  0
   -1.8014   -2.1740    0.0000 C   0  0  0  0  0  0  0  0  0  0  0  0
   -1.3593   -3.6074    0.0000 C   0  0  0  0  0  0  0  0  0  0  0  0
    0.1405   -3.6299    0.0000 C   0  0  0  0  0  0  0  0  0  0  0  0
    0.6254   -2.2104    0.0000 C   0  0  0  0  0  0  0  0  0  0  0  0
    2.0047   -1.6209    0.0000 C   0  0  0  0  0  0  0  0  0  0  0  0
    3.2049   -2.5207    0.0000 C   0  0  0  0  0  0  0  0  0  0  0  0
    4.5842   -1.9312    0.0000 C   0  0  0  0  0  0  0  0  0  0  0  0
    4.7634   -0.4420    0.0000 C   0  0  0  0  0  0  0  0  0  0  0  0
    6.1427    0.1475    0.0000 C   0  0  0  0  0  0  0  0  0  0  0  0
    6.3218    1.6368    0.0000 C   0  0  0  0  0  0  0  0  0  0  0  0
    7.7012    2.2263    0.0000 O   0  0  0  0  0  0  0  0  0  0  0  0
    5.1217    2.5366    0.0000 C   0  0  0  0  0  0  0  0  0  0  0  0
    3.7424    1.9471    0.0000 C   0  0  0  0  0  0  0  0  0  0  0  0
    3.5632    0.4578    0.0000 C   0  0  0  0  0  0  0  0  0  0  0  0
    2.3630    1.3576    0.0000 C   0  0  0  0  0  0  0  0  0  0  0  0
    2.1839   -0.1317    0.0000 C   0  0  0  0  0  0  0  0  0  0  0  0
    0.9837    0.7681    0.0000 C   0  0  0  0  0  0  0  0  0  0  0  0
   -0.3956    0.1786    0.0000 C   0  0  0  0  0  0  0  0  0  0  0  0
   -0.5747   -1.3106    0.0000 C   0  0  0  0  0  0  0  0  0  0  0  0
   -1.8624   -0.5412    0.0000 C   0  0  0  0  0  0  0  0  0  0  0  0
  1  2  1  0
  2  3  1  0
  2  4  1  0
  4  5  1  1
  4  6  1  0
  6  7  1  6
  6  8  1  0
  8  9  1  6
  8 10  1  0
 10 11  1  6
 10 12  1  0
 12 13  1  6
 13 14  1  0
 15 14  1  6
 15 16  1  0
 16 17  1  1
 17 18  1  0
 19 18  1  6
 19 20  1  0
 20 21  1  0
 21 22  2  0
 21 23  1  0
 23 24  1  0
 24 25  1  0
 25 26  1  6
 25 27  1  0
 27 28  1  6
 28 29  1  0
 29 30  1  0
 30 31  1  6
 30 12  1  0
 30 15  1  0
 27 16  1  0
 25 19  1  0
M  END
>  <MS_ID>  (2913) 
MS3013

>  <SMILES>  (2913) 
CC(C)[C@H](C)[C@@H](O)[C@H](O)[C@@H](C)[C@H]1CC[C@H]2[C@@H]3CC[C@H]4CC(=O)CC[C@]4(C)[C@H]3CC[C@]12C

>  <Structure_dimension>  (2913) 
2D

$$$$
MS3014
     RDKit          2D

 33 36  0  0  0  0  0  0  0  0999 V2000
    3.9335    3.0875    0.0000 C   0  0  0  0  0  0  0  0  0  0  0  0
    2.8876    2.0123    0.0000 C   0  0  0  0  0  0  0  0  0  0  0  0
    3.2959    0.5689    0.0000 C   0  0  0  0  0  0  0  0  0  0  0  0
    4.7500    0.2008    0.0000 C   0  0  0  0  0  0  0  0  0  0  0  0
    5.1583   -1.2426    0.0000 C   0  0  0  0  0  0  0  0  0  0  0  0
    6.6124   -1.6107    0.0000 C   0  0  0  0  0  0  0  0  0  0  0  0
    7.0207   -3.0541    0.0000 C   0  0  0  0  0  0  0  0  0  0  0  0
    8.4748   -3.4222    0.0000 O   0  0  0  0  0  0  0  0  0  0  0  0
    7.6583   -0.5355    0.0000 C   0  0  0  0  0  0  0  0  0  0  0  0
    9.1124   -0.9036    0.0000 O   0  0  0  0  0  0  0  0  0  0  0  0
    1.4335    2.3804    0.0000 C   0  0  0  0  0  0  0  0  0  0  0  0
    0.8766    3.7732    0.0000 C   0  0  0  0  0  0  0  0  0  0  0  0
   -0.6201    3.6739    0.0000 C   0  0  0  0  0  0  0  0  0  0  0  0
   -0.9882    2.2198    0.0000 C   0  0  0  0  0  0  0  0  0  0  0  0
   -2.3152    1.5204    0.0000 C   0  0  0  0  0  0  0  0  0  0  0  0
   -3.5844    2.3198    0.0000 C   0  0  0  0  0  0  0  0  0  0  0  0
   -3.5266    3.8187    0.0000 O   0  0  0  0  0  0  0  0  0  0  0  0
   -4.9113    1.6204    0.0000 C   0  0  0  0  0  0  0  0  0  0  0  0
   -4.9691    0.1215    0.0000 C   0  0  0  0  0  0  0  0  0  0  0  0
   -6.2960   -0.5779    0.0000 C   0  0  0  0  0  0  0  0  0  0  0  0
   -6.3538   -2.0768    0.0000 C   0  0  0  0  0  0  0  0  0  0  0  0
   -7.6807   -2.7762    0.0000 O   0  0  0  0  0  0  0  0  0  0  0  0
   -5.0846   -2.8763    0.0000 C   0  0  0  0  0  0  0  0  0  0  0  0
   -5.1423   -4.3751    0.0000 O   0  0  0  0  0  0  0  0  0  0  0  0
   -3.7576   -2.1768    0.0000 C   0  0  0  0  0  0  0  0  0  0  0  0
   -3.6999   -0.6779    0.0000 C   0  0  0  0  0  0  0  0  0  0  0  0
   -2.4307   -1.4774    0.0000 C   0  0  0  0  0  0  0  0  0  0  0  0
   -2.3729    0.0215    0.0000 C   0  0  0  0  0  0  0  0  0  0  0  0
   -1.1037   -0.7780    0.0000 C   0  0  0  0  0  0  0  0  0  0  0  0
    0.2232   -0.0785    0.0000 C   0  0  0  0  0  0  0  0  0  0  0  0
    1.4924   -0.8780    0.0000 O   0  0  0  0  0  0  0  0  0  0  0  0
    0.2810    1.4204    0.0000 C   0  0  0  0  0  0  0  0  0  0  0  0
    1.6268    0.7580    0.0000 C   0  0  0  0  0  0  0  0  0  0  0  0
  2  1  1  6
  2  3  1  0
  3  4  1  0
  4  5  1  0
  5  6  1  0
  6  7  1  0
  7  8  1  0
  6  9  1  0
  9 10  1  0
  2 11  1  0
 11 12  1  6
 12 13  1  0
 14 13  1  6
 14 15  1  0
 15 16  1  1
 16 17  1  1
 16 18  1  0
 19 18  1  1
 19 20  1  0
 20 21  1  0
 21 22  1  1
 21 23  1  0
 23 24  1  6
 23 25  1  0
 25 26  1  0
 26 27  1  6
 26 28  1  0
 28 29  1  6
 29 30  1  0
 30 31  1  1
 30 32  1  0
 32 33  1  6
 32 11  1  0
 32 14  1  0
 28 15  1  0
 26 19  1  0
M  END
>  <MS_ID>  (2914) 
MS3014

>  <SMILES>  (2914) 
C[C@H](CCCC(CO)CO)[C@H]1CC[C@H]2[C@@H]3[C@H](O)C[C@@H]4C[C@H](O)[C@@H](O)C[C@]4(C)[C@H]3C[C@H](O)[C@]12C

>  <Structure_dimension>  (2914) 
2D

$$$$
MS3015
     RDKit          2D

 39 43  0  0  0  0  0  0  0  0999 V2000
   -0.3704   -4.8798    0.0000 C   0  0  0  0  0  0  0  0  0  0  0  0
    0.2033   -3.4938    0.0000 C   0  0  0  0  0  0  0  0  0  0  0  0
   -0.7102   -2.3040    0.0000 C   0  0  0  0  0  0  0  0  0  0  0  0
   -2.1973   -2.5002    0.0000 C   0  0  0  0  0  0  0  0  0  0  0  0
   -3.1108   -1.3104    0.0000 C   0  0  0  0  0  0  0  0  0  0  0  0
   -2.5371    0.0756    0.0000 O   0  0  0  0  0  0  0  0  0  0  0  0
   -4.5979   -1.5066    0.0000 N   0  0  0  0  0  0  0  0  0  0  0  0
   -5.5113   -0.3168    0.0000 C   0  0  0  0  0  0  0  0  0  0  0  0
   -6.9984   -0.5130    0.0000 C   0  0  0  0  0  0  0  0  0  0  0  0
   -7.5721   -1.8989    0.0000 O   0  0  0  0  0  0  0  0  0  0  0  0
   -7.9119    0.6768    0.0000 N   0  0  0  0  0  0  0  0  0  0  0  0
   -9.4114    0.6372    0.0000 C   0  0  0  0  0  0  0  0  0  0  0  0
   -9.9125    2.0510    0.0000 C   0  0  0  0  0  0  0  0  0  0  0  0
   -8.7227    2.9645    0.0000 C   0  0  0  0  0  0  0  0  0  0  0  0
   -7.4863    2.1152    0.0000 C   0  0  0  0  0  0  0  0  0  0  0  0
   -6.0724    2.6162    0.0000 C   0  0  0  0  0  0  0  0  0  0  0  0
   -4.9316    1.6424    0.0000 O   0  0  0  0  0  0  0  0  0  0  0  0
   -5.7995    4.0912    0.0000 O   0  0  0  0  0  0  0  0  0  0  0  0
    1.6904   -3.2976    0.0000 C   0  0  0  0  0  0  0  0  0  0  0  0
    2.7232   -4.3854    0.0000 C   0  0  0  0  0  0  0  0  0  0  0  0
    4.0769   -3.7393    0.0000 C   0  0  0  0  0  0  0  0  0  0  0  0
    3.8807   -2.2522    0.0000 C   0  0  0  0  0  0  0  0  0  0  0  0
    4.8546   -1.1113    0.0000 C   0  0  0  0  0  0  0  0  0  0  0  0
    6.3295   -1.3843    0.0000 C   0  0  0  0  0  0  0  0  0  0  0  0
    7.3034   -0.2434    0.0000 C   0  0  0  0  0  0  0  0  0  0  0  0
    6.8023    1.1704    0.0000 C   0  0  0  0  0  0  0  0  0  0  0  0
    7.7762    2.3113    0.0000 C   0  0  0  0  0  0  0  0  0  0  0  0
    7.2751    3.7251    0.0000 C   0  0  0  0  0  0  0  0  0  0  0  0
    8.2490    4.8660    0.0000 O   0  0  0  0  0  0  0  0  0  0  0  0
    5.8002    3.9981    0.0000 C   0  0  0  0  0  0  0  0  0  0  0  0
    4.8263    2.8572    0.0000 C   0  0  0  0  0  0  0  0  0  0  0  0
    5.3274    1.4434    0.0000 C   0  0  0  0  0  0  0  0  0  0  0  0
    3.8524    1.7163    0.0000 C   0  0  0  0  0  0  0  0  0  0  0  0
    4.3535    0.3025    0.0000 C   0  0  0  0  0  0  0  0  0  0  0  0
    2.8786    0.5755    0.0000 C   0  0  0  0  0  0  0  0  0  0  0  0
    1.9047   -0.5654    0.0000 C   0  0  0  0  0  0  0  0  0  0  0  0
    0.4297   -0.2924    0.0000 O   0  0  0  0  0  0  0  0  0  0  0  0
    2.4058   -1.9792    0.0000 C   0  0  0  0  0  0  0  0  0  0  0  0
    0.9104   -1.8619    0.0000 C   0  0  0  0  0  0  0  0  0  0  0  0
  2  1  1  6
  2  3  1  0
  3  4  1  0
  4  5  1  0
  5  6  2  0
  5  7  1  0
  7  8  1  0
  8  9  1  0
  9 10  2  0
  9 11  1  0
 11 12  1  0
 12 13  1  0
 13 14  1  0
 14 15  1  0
 15 16  1  1
 16 17  2  0
 16 18  1  0
  2 19  1  0
 19 20  1  6
 20 21  1  0
 22 21  1  6
 22 23  1  0
 23 24  1  1
 24 25  1  0
 26 25  1  1
 26 27  1  0
 27 28  1  0
 28 29  1  1
 28 30  1  0
 30 31  1  0
 31 32  1  0
 32 33  1  6
 32 34  1  0
 34 35  1  6
 35 36  1  0
 36 37  1  1
 36 38  1  0
 38 39  1  6
 15 11  1  0
 38 19  1  0
 38 22  1  0
 34 23  1  0
 32 26  1  0
M  END
>  <MS_ID>  (2915) 
MS3015

>  <SMILES>  (2915) 
C[C@H](CCC(=O)NCC(=O)N1CCC[C@H]1C(=O)O)[C@H]1CC[C@H]2[C@@H]3CC[C@@H]4C[C@H](O)CC[C@]4(C)[C@H]3C[C@H](O)[C@]12C

>  <Structure_dimension>  (2915) 
2D

$$$$
MS3016
     RDKit          2D

 36 39  0  0  0  0  0  0  0  0999 V2000
   -1.6581   -4.5124    0.0000 C   0  0  0  0  0  0  0  0  0  0  0  0
   -0.9928   -3.1680    0.0000 C   0  0  0  0  0  0  0  0  0  0  0  0
   -1.8245   -1.9197    0.0000 C   0  0  0  0  0  0  0  0  0  0  0  0
   -3.3214   -2.0157    0.0000 C   0  0  0  0  0  0  0  0  0  0  0  0
   -4.1530   -0.7674    0.0000 C   0  0  0  0  0  0  0  0  0  0  0  0
   -3.4877    0.5770    0.0000 O   0  0  0  0  0  0  0  0  0  0  0  0
   -5.6499   -0.8634    0.0000 N   0  0  0  0  0  0  0  0  0  0  0  0
   -6.4816    0.3850    0.0000 C   0  0  0  0  0  0  0  0  0  0  0  0
   -7.9785    0.2889    0.0000 C   0  0  0  0  0  0  0  0  0  0  0  0
   -8.8101    1.5373    0.0000 C   0  0  0  0  0  0  0  0  0  0  0  0
  -10.3070    1.4412    0.0000 N   0  0  0  0  0  0  0  0  0  0  0  0
   -8.1448    2.8817    0.0000 O   0  0  0  0  0  0  0  0  0  0  0  0
   -5.8163    1.7293    0.0000 C   0  0  0  0  0  0  0  0  0  0  0  0
   -4.3194    1.8254    0.0000 O   0  0  0  0  0  0  0  0  0  0  0  0
   -6.6479    2.9777    0.0000 O   0  0  0  0  0  0  0  0  0  0  0  0
    0.5041   -3.0720    0.0000 C   0  0  0  0  0  0  0  0  0  0  0  0
    1.4616   -4.2266    0.0000 C   0  0  0  0  0  0  0  0  0  0  0  0
    2.8556   -3.6727    0.0000 C   0  0  0  0  0  0  0  0  0  0  0  0
    2.7596   -2.1758    0.0000 C   0  0  0  0  0  0  0  0  0  0  0  0
    3.8078   -1.1028    0.0000 C   0  0  0  0  0  0  0  0  0  0  0  0
    5.2611   -1.4740    0.0000 C   0  0  0  0  0  0  0  0  0  0  0  0
    5.6663   -2.9183    0.0000 O   0  0  0  0  0  0  0  0  0  0  0  0
    6.3093   -0.4010    0.0000 C   0  0  0  0  0  0  0  0  0  0  0  0
    5.9041    1.0432    0.0000 C   0  0  0  0  0  0  0  0  0  0  0  0
    6.9523    2.1162    0.0000 C   0  0  0  0  0  0  0  0  0  0  0  0
    6.5471    3.5605    0.0000 C   0  0  0  0  0  0  0  0  0  0  0  0
    7.5953    4.6335    0.0000 O   0  0  0  0  0  0  0  0  0  0  0  0
    5.0938    3.9317    0.0000 C   0  0  0  0  0  0  0  0  0  0  0  0
    4.0456    2.8587    0.0000 C   0  0  0  0  0  0  0  0  0  0  0  0
    4.4508    1.4145    0.0000 C   0  0  0  0  0  0  0  0  0  0  0  0
    2.9974    1.7857    0.0000 C   0  0  0  0  0  0  0  0  0  0  0  0
    3.4026    0.3415    0.0000 C   0  0  0  0  0  0  0  0  0  0  0  0
    1.9493    0.7127    0.0000 C   0  0  0  0  0  0  0  0  0  0  0  0
    0.9011   -0.3603    0.0000 C   0  0  0  0  0  0  0  0  0  0  0  0
    1.3063   -1.8045    0.0000 C   0  0  0  0  0  0  0  0  0  0  0  0
   -0.1779   -1.5872    0.0000 C   0  0  0  0  0  0  0  0  0  0  0  0
  2  1  1  6
  2  3  1  0
  3  4  1  0
  4  5  1  0
  5  6  2  0
  5  7  1  0
  7  8  1  0
  8  9  1  1
  9 10  1  0
 10 11  1  0
 10 12  2  0
  8 13  1  0
 13 14  2  0
 13 15  1  0
  2 16  1  0
 16 17  1  6
 17 18  1  0
 19 18  1  6
 19 20  1  0
 20 21  1  1
 21 22  1  1
 21 23  1  0
 24 23  1  1
 24 25  1  0
 25 26  1  0
 26 27  1  1
 26 28  1  0
 28 29  1  0
 29 30  1  0
 30 31  1  6
 30 32  1  0
 32 33  1  6
 33 34  1  0
 34 35  1  0
 35 36  1  6
 35 16  1  0
 35 19  1  0
 32 20  1  0
 30 24  1  0
M  END
>  <MS_ID>  (2916) 
MS3016

>  <SMILES>  (2916) 
C[C@H](CCC(=O)N[C@@H](CC(N)=O)C(=O)O)[C@H]1CC[C@H]2[C@@H]3[C@H](O)C[C@@H]4C[C@H](O)CC[C@]4(C)[C@H]3CC[C@]12C

>  <Structure_dimension>  (2916) 
2D

$$$$
MS3017
     RDKit          2D

 26 29  0  0  0  0  0  0  0  0999 V2000
    2.1052   -1.4736    0.0000 C   0  0  0  0  0  0  0  0  0  0  0  0
    2.8220   -0.1559    0.0000 C   0  0  0  0  0  0  0  0  0  0  0  0
    3.6047   -1.4355    0.0000 C   0  0  0  0  0  0  0  0  0  0  0  0
    5.1042   -1.3975    0.0000 C   0  0  0  0  0  0  0  0  0  0  0  0
    5.8210   -0.0798    0.0000 C   0  0  0  0  0  0  0  0  0  0  0  0
    7.3206   -0.0418    0.0000 O   0  0  0  0  0  0  0  0  0  0  0  0
    5.0383    1.1998    0.0000 C   0  0  0  0  0  0  0  0  0  0  0  0
    3.5388    1.1617    0.0000 C   0  0  0  0  0  0  0  0  0  0  0  0
    2.7561    2.4413    0.0000 C   0  0  0  0  0  0  0  0  0  0  0  0
    1.2566    2.4033    0.0000 C   0  0  0  0  0  0  0  0  0  0  0  0
    0.5398    1.0856    0.0000 C   0  0  0  0  0  0  0  0  0  0  0  0
    1.3225   -0.1940    0.0000 C   0  0  0  0  0  0  0  0  0  0  0  0
    0.6057   -1.5116    0.0000 C   0  0  0  0  0  0  0  0  0  0  0  0
   -0.8938   -1.5496    0.0000 C   0  0  0  0  0  0  0  0  0  0  0  0
   -1.6107   -2.8673    0.0000 O   0  0  0  0  0  0  0  0  0  0  0  0
   -1.6765   -0.2700    0.0000 C   0  0  0  0  0  0  0  0  0  0  0  0
   -2.3702   -1.6000    0.0000 C   0  0  0  0  0  0  0  0  0  0  0  0
   -0.9597    1.0476    0.0000 C   0  0  0  0  0  0  0  0  0  0  0  0
   -1.9914    2.1365    0.0000 C   0  0  0  0  0  0  0  0  0  0  0  0
   -3.3458    1.4919    0.0000 C   0  0  0  0  0  0  0  0  0  0  0  0
   -3.1512    0.0045    0.0000 C   0  0  0  0  0  0  0  0  0  0  0  0
   -3.4515   -1.4651    0.0000 O   0  0  0  0  0  0  0  0  0  0  0  0
   -4.6507   -0.0335    0.0000 C   0  0  0  0  0  0  0  0  0  0  0  0
   -5.3675   -1.3512    0.0000 O   0  0  0  0  0  0  0  0  0  0  0  0
   -5.4334    1.2461    0.0000 C   0  0  0  0  0  0  0  0  0  0  0  0
   -6.9329    1.2080    0.0000 O   0  0  0  0  0  0  0  0  0  0  0  0
  2  1  1  1
  2  3  1  0
  3  4  1  0
  4  5  1  0
  5  6  2  0
  5  7  1  0
  8  7  1  6
  8  9  1  0
  9 10  1  0
 11 10  1  6
 11 12  1  0
 12 13  1  1
 13 14  1  0
 14 15  1  1
 14 16  1  0
 16 17  1  1
 16 18  1  0
 18 19  1  1
 19 20  1  0
 20 21  1  0
 21 22  1  6
 21 23  1  0
 23 24  2  0
 23 25  1  0
 25 26  1  0
  8  2  1  0
 18 11  1  0
 12  2  1  0
 21 16  1  0
M  END
>  <MS_ID>  (2917) 
MS3017

>  <SMILES>  (2917) 
C[C@]12CCC(=O)C[C@H]1CC[C@@H]1[C@@H]2C[C@@H](O)[C@@]2(C)[C@H]1CC[C@]2(O)C(=O)CO

>  <Structure_dimension>  (2917) 
2D

$$$$
MS3018
     RDKit          2D

 24 27  0  0  0  0  0  0  0  0999 V2000
   -6.2943    0.2891    0.0000 C   0  0  0  0  0  0  0  0  0  0  0  0
   -4.8892    0.8143    0.0000 C   0  0  0  0  0  0  0  0  0  0  0  0
   -4.6416    2.2937    0.0000 O   0  0  0  0  0  0  0  0  0  0  0  0
   -3.7319   -0.1399    0.0000 C   0  0  0  0  0  0  0  0  0  0  0  0
   -3.8235   -1.6371    0.0000 C   0  0  0  0  0  0  0  0  0  0  0  0
   -2.4280   -2.1870    0.0000 C   0  0  0  0  0  0  0  0  0  0  0  0
   -1.4738   -1.0296    0.0000 C   0  0  0  0  0  0  0  0  0  0  0  0
    0.0248   -0.9643    0.0000 C   0  0  0  0  0  0  0  0  0  0  0  0
    0.8307   -2.2294    0.0000 C   0  0  0  0  0  0  0  0  0  0  0  0
    0.1380   -3.5599    0.0000 O   0  0  0  0  0  0  0  0  0  0  0  0
    2.3293   -2.1641    0.0000 C   0  0  0  0  0  0  0  0  0  0  0  0
    3.0220   -0.8336    0.0000 C   0  0  0  0  0  0  0  0  0  0  0  0
    4.5205   -0.7683    0.0000 C   0  0  0  0  0  0  0  0  0  0  0  0
    5.2133    0.5622    0.0000 C   0  0  0  0  0  0  0  0  0  0  0  0
    6.7118    0.6275    0.0000 O   0  0  0  0  0  0  0  0  0  0  0  0
    4.4074    1.8273    0.0000 C   0  0  0  0  0  0  0  0  0  0  0  0
    2.9088    1.7620    0.0000 C   0  0  0  0  0  0  0  0  0  0  0  0
    2.2161    0.4315    0.0000 C   0  0  0  0  0  0  0  0  0  0  0  0
    1.4102    1.6967    0.0000 C   0  0  0  0  0  0  0  0  0  0  0  0
    0.7175    0.3662    0.0000 C   0  0  0  0  0  0  0  0  0  0  0  0
   -0.0883    1.6314    0.0000 C   0  0  0  0  0  0  0  0  0  0  0  0
   -1.5869    1.5660    0.0000 C   0  0  0  0  0  0  0  0  0  0  0  0
   -2.2796    0.2356    0.0000 C   0  0  0  0  0  0  0  0  0  0  0  0
   -3.2133    1.4095    0.0000 C   0  0  0  0  0  0  0  0  0  0  0  0
  1  2  1  0
  2  3  2  0
  4  2  1  6
  4  5  1  0
  5  6  1  0
  7  6  1  6
  7  8  1  0
  8  9  1  1
  9 10  1  6
  9 11  1  0
 12 11  1  1
 12 13  1  0
 13 14  1  0
 14 15  1  1
 14 16  1  0
 16 17  1  0
 17 18  1  0
 18 19  1  6
 18 20  1  0
 20 21  1  6
 21 22  1  0
 22 23  1  0
 23 24  1  6
 23  4  1  0
 23  7  1  0
 20  8  1  0
 18 12  1  0
M  END
>  <MS_ID>  (2918) 
MS3018

>  <SMILES>  (2918) 
CC(=O)[C@H]1CC[C@H]2[C@@H]3[C@@H](O)C[C@@H]4C[C@H](O)CC[C@]4(C)[C@H]3CC[C@]12C

>  <Structure_dimension>  (2918) 
2D

$$$$
MS3019
     RDKit          2D

 41 45  0  0  0  0  0  0  0  0999 V2000
   -9.8348    3.3838    0.0000 C   0  0  0  0  0  0  0  0  0  0  0  0
   -9.5134    1.9187    0.0000 C   0  0  0  0  0  0  0  0  0  0  0  0
   -8.0838    1.4644    0.0000 C   0  0  0  0  0  0  0  0  0  0  0  0
   -7.7624   -0.0007    0.0000 C   0  0  0  0  0  0  0  0  0  0  0  0
   -6.3328   -0.4549    0.0000 C   0  0  0  0  0  0  0  0  0  0  0  0
   -6.0114   -1.9201    0.0000 C   0  0  0  0  0  0  0  0  0  0  0  0
   -7.1195   -2.9310    0.0000 C   0  0  0  0  0  0  0  0  0  0  0  0
   -4.5818   -2.3743    0.0000 C   0  0  0  0  0  0  0  0  0  0  0  0
   -4.1090   -3.7979    0.0000 C   0  0  0  0  0  0  0  0  0  0  0  0
   -2.6090   -3.7881    0.0000 C   0  0  0  0  0  0  0  0  0  0  0  0
   -2.1548   -2.3585    0.0000 C   0  0  0  0  0  0  0  0  0  0  0  0
   -0.7885   -1.7395    0.0000 C   0  0  0  0  0  0  0  0  0  0  0  0
    0.4307   -2.6133    0.0000 C   0  0  0  0  0  0  0  0  0  0  0  0
    1.7971   -1.9943    0.0000 C   0  0  0  0  0  0  0  0  0  0  0  0
    1.9441   -0.5015    0.0000 C   0  0  0  0  0  0  0  0  0  0  0  0
    3.3105    0.1175    0.0000 C   0  0  0  0  0  0  0  0  0  0  0  0
    3.4575    1.6103    0.0000 C   0  0  0  0  0  0  0  0  0  0  0  0
    4.8239    2.2293    0.0000 O   0  0  0  0  0  0  0  0  0  0  0  0
    6.0431    1.3555    0.0000 C   0  0  0  0  0  0  0  0  0  0  0  0
    5.8960   -0.1372    0.0000 O   0  0  0  0  0  0  0  0  0  0  0  0
    7.1153   -1.0110    0.0000 C   0  0  0  0  0  0  0  0  0  0  0  0
    6.9682   -2.5038    0.0000 C   0  0  0  0  0  0  0  0  0  0  0  0
    5.6019   -3.1228    0.0000 O   0  0  0  0  0  0  0  0  0  0  0  0
    8.4816   -0.3920    0.0000 C   0  0  0  0  0  0  0  0  0  0  0  0
    9.7008   -1.2657    0.0000 O   0  0  0  0  0  0  0  0  0  0  0  0
    8.6286    1.1008    0.0000 C   0  0  0  0  0  0  0  0  0  0  0  0
    9.9950    1.7198    0.0000 O   0  0  0  0  0  0  0  0  0  0  0  0
    7.4094    1.9746    0.0000 C   0  0  0  0  0  0  0  0  0  0  0  0
    7.5565    3.4673    0.0000 O   0  0  0  0  0  0  0  0  0  0  0  0
    2.2383    2.4840    0.0000 C   0  0  0  0  0  0  0  0  0  0  0  0
    0.8720    1.8650    0.0000 C   0  0  0  0  0  0  0  0  0  0  0  0
    0.7249    0.3723    0.0000 C   0  0  0  0  0  0  0  0  0  0  0  0
   -0.4943    1.2460    0.0000 C   0  0  0  0  0  0  0  0  0  0  0  0
   -0.6414   -0.2468    0.0000 C   0  0  0  0  0  0  0  0  0  0  0  0
   -1.8607    0.6270    0.0000 C   0  0  0  0  0  0  0  0  0  0  0  0
   -3.2270    0.0080    0.0000 C   0  0  0  0  0  0  0  0  0  0  0  0
   -3.3741   -1.4848    0.0000 C   0  0  0  0  0  0  0  0  0  0  0  0
   -4.6779   -0.7432    0.0000 C   0  0  0  0  0  0  0  0  0  0  0  0
   -6.9756    2.4754    0.0000 C   0  0  0  0  0  0  0  0  0  0  0  0
   -7.2970    3.9405    0.0000 C   0  0  0  0  0  0  0  0  0  0  0  0
   -5.5460    2.0211    0.0000 C   0  0  0  0  0  0  0  0  0  0  0  0
  1  2  1  0
  3  2  1  1
  3  4  1  0
  4  5  1  0
  5  6  1  0
  6  7  1  6
  6  8  1  0
  8  9  1  6
  9 10  1  0
 11 10  1  6
 11 12  1  0
 12 13  1  1
 13 14  1  0
 15 14  1  6
 15 16  1  0
 16 17  1  0
 17 18  1  6
 19 18  1  1
 19 20  1  0
 20 21  1  0
 21 22  1  1
 22 23  1  0
 21 24  1  0
 24 25  1  6
 24 26  1  0
 26 27  1  1
 26 28  1  0
 28 29  1  6
 17 30  1  0
 30 31  1  0
 31 32  1  0
 32 33  1  6
 32 34  1  0
 34 35  1  6
 35 36  1  0
 36 37  1  0
 37 38  1  6
  3 39  1  0
 39 40  1  0
 39 41  1  0
 37  8  1  0
 37 11  1  0
 34 12  1  0
 32 15  1  0
 28 19  1  0
M  END
>  <MS_ID>  (2919) 
MS3019

>  <SMILES>  (2919) 
CC[C@H](CC[C@@H](C)[C@H]1CC[C@H]2[C@@H]3CC[C@H]4C[C@@H](O[C@@H]5O[C@H](CO)[C@@H](O)[C@H](O)[C@H]5O)CC[C@]4(C)[C@H]3CC[C@]12C)C(C)C

>  <Structure_dimension>  (2919) 
2D

$$$$
MS3020
     RDKit          2D

 24 27  0  0  0  0  0  0  0  0999 V2000
   -6.1877   -0.1229    0.0000 C   0  0  0  0  0  0  0  0  0  0  0  0
   -4.7954    0.4353    0.0000 C   0  0  0  0  0  0  0  0  0  0  0  0
   -4.5826    1.9201    0.0000 O   0  0  0  0  0  0  0  0  0  0  0  0
   -3.6159   -0.4914    0.0000 C   0  0  0  0  0  0  0  0  0  0  0  0
   -3.6723   -1.9904    0.0000 C   0  0  0  0  0  0  0  0  0  0  0  0
   -2.2641   -2.5072    0.0000 C   0  0  0  0  0  0  0  0  0  0  0  0
   -1.3374   -1.3277    0.0000 C   0  0  0  0  0  0  0  0  0  0  0  0
    0.1592   -1.2271    0.0000 C   0  0  0  0  0  0  0  0  0  0  0  0
    0.9946   -2.4730    0.0000 C   0  0  0  0  0  0  0  0  0  0  0  0
    2.4912   -2.3724    0.0000 C   0  0  0  0  0  0  0  0  0  0  0  0
    3.1524   -1.0260    0.0000 C   0  0  0  0  0  0  0  0  0  0  0  0
    4.6491   -0.9254    0.0000 C   0  0  0  0  0  0  0  0  0  0  0  0
    5.3103    0.4210    0.0000 C   0  0  0  0  0  0  0  0  0  0  0  0
    6.8069    0.5216    0.0000 O   0  0  0  0  0  0  0  0  0  0  0  0
    4.4749    1.6668    0.0000 C   0  0  0  0  0  0  0  0  0  0  0  0
    2.9782    1.5662    0.0000 C   0  0  0  0  0  0  0  0  0  0  0  0
    2.3170    0.2198    0.0000 C   0  0  0  0  0  0  0  0  0  0  0  0
    1.4816    1.4657    0.0000 C   0  0  0  0  0  0  0  0  0  0  0  0
    0.8204    0.1193    0.0000 C   0  0  0  0  0  0  0  0  0  0  0  0
   -0.0150    1.3651    0.0000 C   0  0  0  0  0  0  0  0  0  0  0  0
   -1.5116    1.2645    0.0000 C   0  0  0  0  0  0  0  0  0  0  0  0
   -2.3471    2.5103    0.0000 O   0  0  0  0  0  0  0  0  0  0  0  0
   -2.1729   -0.0819    0.0000 C   0  0  0  0  0  0  0  0  0  0  0  0
   -3.1339    1.0698    0.0000 C   0  0  0  0  0  0  0  0  0  0  0  0
  2  1  1  6
  2  3  1  0
  2  4  1  0
  4  5  1  6
  5  6  1  0
  7  6  1  6
  7  8  1  0
  8  9  1  1
  9 10  1  0
 11 10  1  1
 11 12  1  0
 12 13  1  0
 13 14  1  1
 13 15  1  0
 15 16  1  0
 16 17  1  0
 17 18  1  6
 17 19  1  0
 19 20  1  6
 20 21  1  0
 21 22  1  1
 21 23  1  0
 23 24  1  6
 23  4  1  0
 23  7  1  0
 19  8  1  0
 17 11  1  0
M  END
>  <MS_ID>  (2920) 
MS3020

>  <SMILES>  (2920) 
C[C@H](O)[C@H]1CC[C@H]2[C@@H]3CC[C@@H]4C[C@H](O)CC[C@]4(C)[C@H]3C[C@H](O)[C@]12C

>  <Structure_dimension>  (2920) 
2D

$$$$
MS3021
     RDKit          2D

 34 37  0  0  0  0  0  0  0  0999 V2000
   -2.8110   -3.6430    0.0000 C   0  0  0  0  0  0  0  0  0  0  0  0
   -1.9340   -2.4261    0.0000 C   0  0  0  0  0  0  0  0  0  0  0  0
   -2.5493   -1.0581    0.0000 C   0  0  0  0  0  0  0  0  0  0  0  0
   -4.0417   -0.9071    0.0000 C   0  0  0  0  0  0  0  0  0  0  0  0
   -4.9187   -2.1240    0.0000 O   0  0  0  0  0  0  0  0  0  0  0  0
   -4.6571    0.4609    0.0000 N   0  0  0  0  0  0  0  0  0  0  0  0
   -6.1495    0.6120    0.0000 C   0  0  0  0  0  0  0  0  0  0  0  0
   -6.7648    1.9799    0.0000 C   0  0  0  0  0  0  0  0  0  0  0  0
   -8.2572    2.1310    0.0000 S   0  0  0  0  0  0  0  0  0  0  0  0
   -8.1061    3.6234    0.0000 O   0  0  0  0  0  0  0  0  0  0  0  0
   -8.4083    0.6386    0.0000 O   0  0  0  0  0  0  0  0  0  0  0  0
   -9.7496    2.2821    0.0000 O   0  0  0  0  0  0  0  0  0  0  0  0
   -0.4416   -2.5772    0.0000 C   0  0  0  0  0  0  0  0  0  0  0  0
    0.3134   -3.8733    0.0000 C   0  0  0  0  0  0  0  0  0  0  0  0
    1.7794   -3.5558    0.0000 C   0  0  0  0  0  0  0  0  0  0  0  0
    1.9304   -2.0635    0.0000 C   0  0  0  0  0  0  0  0  0  0  0  0
    3.1406   -1.1771    0.0000 C   0  0  0  0  0  0  0  0  0  0  0  0
    4.5132   -1.7820    0.0000 C   0  0  0  0  0  0  0  0  0  0  0  0
    4.6757   -3.2732    0.0000 O   0  0  0  0  0  0  0  0  0  0  0  0
    5.7234   -0.8957    0.0000 C   0  0  0  0  0  0  0  0  0  0  0  0
    5.5608    0.5955    0.0000 C   0  0  0  0  0  0  0  0  0  0  0  0
    6.7710    1.4818    0.0000 C   0  0  0  0  0  0  0  0  0  0  0  0
    6.6085    2.9730    0.0000 C   0  0  0  0  0  0  0  0  0  0  0  0
    7.8186    3.8593    0.0000 O   0  0  0  0  0  0  0  0  0  0  0  0
    5.2358    3.5779    0.0000 C   0  0  0  0  0  0  0  0  0  0  0  0
    4.0257    2.6915    0.0000 C   0  0  0  0  0  0  0  0  0  0  0  0
    4.1882    1.2004    0.0000 C   0  0  0  0  0  0  0  0  0  0  0  0
    2.8156    1.8052    0.0000 C   0  0  0  0  0  0  0  0  0  0  0  0
    2.9781    0.3140    0.0000 C   0  0  0  0  0  0  0  0  0  0  0  0
    1.6054    0.9189    0.0000 C   0  0  0  0  0  0  0  0  0  0  0  0
    0.3953    0.0325    0.0000 C   0  0  0  0  0  0  0  0  0  0  0  0
   -0.9774    0.6374    0.0000 O   0  0  0  0  0  0  0  0  0  0  0  0
    0.5578   -1.4586    0.0000 C   0  0  0  0  0  0  0  0  0  0  0  0
   -0.8706   -1.0006    0.0000 C   0  0  0  0  0  0  0  0  0  0  0  0
  2  1  1  6
  2  3  1  0
  3  4  1  0
  4  5  2  0
  4  6  1  0
  6  7  1  0
  7  8  1  0
  8  9  1  0
  9 10  2  0
  9 11  2  0
  9 12  1  0
  2 13  1  0
 13 14  1  6
 14 15  1  0
 16 15  1  6
 16 17  1  0
 17 18  1  1
 18 19  1  1
 18 20  1  0
 21 20  1  1
 21 22  1  0
 22 23  1  0
 23 24  1  1
 23 25  1  0
 25 26  1  0
 26 27  1  0
 27 28  1  6
 27 29  1  0
 29 30  1  6
 30 31  1  0
 31 32  1  1
 31 33  1  0
 33 34  1  6
 33 13  1  0
 33 16  1  0
 29 17  1  0
 27 21  1  0
M  END
>  <MS_ID>  (2921) 
MS3021

>  <SMILES>  (2921) 
C[C@H](CC(=O)NCCS(=O)(=O)O)[C@H]1CC[C@H]2[C@@H]3[C@H](O)C[C@@H]4C[C@H](O)CC[C@]4(C)[C@H]3C[C@H](O)[C@]12C

>  <Structure_dimension>  (2921) 
2D

$$$$
MS3022
     RDKit          2D

 24 27  0  0  0  0  0  0  0  0999 V2000
   -5.7398    1.3531    0.0000 C   0  0  0  0  0  0  0  0  0  0  0  0
   -5.0076    0.0439    0.0000 C   0  0  0  0  0  0  0  0  0  0  0  0
   -5.7752   -1.2448    0.0000 O   0  0  0  0  0  0  0  0  0  0  0  0
   -3.5077    0.0235    0.0000 C   0  0  0  0  0  0  0  0  0  0  0  0
   -3.8252    1.4895    0.0000 O   0  0  0  0  0  0  0  0  0  0  0  0
   -3.6848   -1.4660    0.0000 C   0  0  0  0  0  0  0  0  0  0  0  0
   -2.3229   -2.0948    0.0000 C   0  0  0  0  0  0  0  0  0  0  0  0
   -1.3042   -0.9938    0.0000 C   0  0  0  0  0  0  0  0  0  0  0  0
    0.1957   -1.0143    0.0000 C   0  0  0  0  0  0  0  0  0  0  0  0
    0.9279   -2.3234    0.0000 C   0  0  0  0  0  0  0  0  0  0  0  0
    2.4278   -2.3439    0.0000 C   0  0  0  0  0  0  0  0  0  0  0  0
    3.1954   -1.0552    0.0000 C   0  0  0  0  0  0  0  0  0  0  0  0
    4.6953   -1.0756    0.0000 C   0  0  0  0  0  0  0  0  0  0  0  0
    5.4629    0.2131    0.0000 C   0  0  0  0  0  0  0  0  0  0  0  0
    6.9628    0.1926    0.0000 O   0  0  0  0  0  0  0  0  0  0  0  0
    4.7307    1.5222    0.0000 C   0  0  0  0  0  0  0  0  0  0  0  0
    3.2308    1.5427    0.0000 C   0  0  0  0  0  0  0  0  0  0  0  0
    2.4632    0.2540    0.0000 C   0  0  0  0  0  0  0  0  0  0  0  0
    1.7310    1.5631    0.0000 C   0  0  0  0  0  0  0  0  0  0  0  0
    0.9633    0.2744    0.0000 C   0  0  0  0  0  0  0  0  0  0  0  0
    0.2311    1.5835    0.0000 C   0  0  0  0  0  0  0  0  0  0  0  0
   -1.2687    1.6040    0.0000 C   0  0  0  0  0  0  0  0  0  0  0  0
   -2.0364    0.3153    0.0000 C   0  0  0  0  0  0  0  0  0  0  0  0
   -2.7456    1.6370    0.0000 C   0  0  0  0  0  0  0  0  0  0  0  0
  1  2  1  0
  2  3  2  0
  2  4  1  0
  4  5  1  1
  4  6  1  0
  6  7  1  0
  8  7  1  6
  8  9  1  0
  9 10  1  1
 10 11  1  0
 12 11  1  1
 12 13  1  0
 13 14  1  0
 14 15  1  1
 14 16  1  0
 16 17  1  0
 17 18  1  0
 18 19  1  6
 18 20  1  0
 20 21  1  6
 21 22  1  0
 22 23  1  0
 23 24  1  6
 23  4  1  0
 23  8  1  0
 20  9  1  0
 18 12  1  0
M  END
>  <MS_ID>  (2922) 
MS3022

>  <SMILES>  (2922) 
CC(=O)[C@@]1(O)CC[C@H]2[C@@H]3CC[C@@H]4C[C@H](O)CC[C@]4(C)[C@H]3CC[C@@]21C

>  <Structure_dimension>  (2922) 
2D

$$$$
MS3023
     RDKit          2D

 39 43  0  0  0  0  0  0  0  0999 V2000
   -0.3888   -4.8542    0.0000 C   0  0  0  0  0  0  0  0  0  0  0  0
    0.1383   -3.4499    0.0000 C   0  0  0  0  0  0  0  0  0  0  0  0
   -0.8144   -2.2913    0.0000 C   0  0  0  0  0  0  0  0  0  0  0  0
   -2.2941   -2.5370    0.0000 C   0  0  0  0  0  0  0  0  0  0  0  0
   -3.2468   -1.3784    0.0000 C   0  0  0  0  0  0  0  0  0  0  0  0
   -2.7197    0.0260    0.0000 O   0  0  0  0  0  0  0  0  0  0  0  0
   -4.7265   -1.6241    0.0000 N   0  0  0  0  0  0  0  0  0  0  0  0
   -5.6792   -0.4655    0.0000 C   0  0  0  0  0  0  0  0  0  0  0  0
   -7.1589   -0.7112    0.0000 C   0  0  0  0  0  0  0  0  0  0  0  0
   -8.1116    0.4474    0.0000 C   0  0  0  0  0  0  0  0  0  0  0  0
   -7.5846    1.8518    0.0000 C   0  0  0  0  0  0  0  0  0  0  0  0
   -8.5372    3.0104    0.0000 C   0  0  0  0  0  0  0  0  0  0  0  0
  -10.0170    2.7647    0.0000 C   0  0  0  0  0  0  0  0  0  0  0  0
  -10.5440    1.3603    0.0000 C   0  0  0  0  0  0  0  0  0  0  0  0
   -9.5914    0.2017    0.0000 C   0  0  0  0  0  0  0  0  0  0  0  0
   -5.1521    0.9389    0.0000 C   0  0  0  0  0  0  0  0  0  0  0  0
   -3.6724    1.1846    0.0000 O   0  0  0  0  0  0  0  0  0  0  0  0
   -6.1048    2.0975    0.0000 O   0  0  0  0  0  0  0  0  0  0  0  0
    1.6180   -3.2041    0.0000 C   0  0  0  0  0  0  0  0  0  0  0  0
    2.6866   -4.2568    0.0000 C   0  0  0  0  0  0  0  0  0  0  0  0
    4.0180   -3.5659    0.0000 C   0  0  0  0  0  0  0  0  0  0  0  0
    3.7722   -2.0861    0.0000 C   0  0  0  0  0  0  0  0  0  0  0  0
    4.7075   -0.9134    0.0000 C   0  0  0  0  0  0  0  0  0  0  0  0
    6.1907   -1.1369    0.0000 C   0  0  0  0  0  0  0  0  0  0  0  0
    6.7387   -2.5333    0.0000 O   0  0  0  0  0  0  0  0  0  0  0  0
    7.1260    0.0358    0.0000 C   0  0  0  0  0  0  0  0  0  0  0  0
    6.5779    1.4321    0.0000 C   0  0  0  0  0  0  0  0  0  0  0  0
    7.5132    2.6049    0.0000 C   0  0  0  0  0  0  0  0  0  0  0  0
    6.9652    4.0012    0.0000 C   0  0  0  0  0  0  0  0  0  0  0  0
    7.9004    5.1739    0.0000 O   0  0  0  0  0  0  0  0  0  0  0  0
    5.4819    4.2247    0.0000 C   0  0  0  0  0  0  0  0  0  0  0  0
    4.5467    3.0520    0.0000 C   0  0  0  0  0  0  0  0  0  0  0  0
    5.0947    1.6557    0.0000 C   0  0  0  0  0  0  0  0  0  0  0  0
    3.6114    1.8792    0.0000 C   0  0  0  0  0  0  0  0  0  0  0  0
    4.1595    0.4829    0.0000 C   0  0  0  0  0  0  0  0  0  0  0  0
    2.6762    0.7065    0.0000 C   0  0  0  0  0  0  0  0  0  0  0  0
    1.7410   -0.4663    0.0000 C   0  0  0  0  0  0  0  0  0  0  0  0
    2.2890   -1.8626    0.0000 C   0  0  0  0  0  0  0  0  0  0  0  0
    0.7905   -1.7953    0.0000 C   0  0  0  0  0  0  0  0  0  0  0  0
  2  1  1  6
  2  3  1  0
  3  4  1  0
  4  5  1  0
  5  6  2  0
  5  7  1  0
  7  8  1  0
  8  9  1  1
  9 10  1  0
 10 11  2  0
 11 12  1  0
 12 13  2  0
 13 14  1  0
 14 15  2  0
  8 16  1  0
 16 17  2  0
 16 18  1  0
  2 19  1  0
 19 20  1  6
 20 21  1  0
 22 21  1  6
 22 23  1  0
 23 24  1  1
 24 25  1  6
 24 26  1  0
 27 26  1  1
 27 28  1  0
 28 29  1  0
 29 30  1  1
 29 31  1  0
 31 32  1  0
 32 33  1  0
 33 34  1  6
 33 35  1  0
 35 36  1  6
 36 37  1  0
 37 38  1  0
 38 39  1  6
 15 10  1  0
 38 19  1  0
 38 22  1  0
 35 23  1  0
 33 27  1  0
M  END
>  <MS_ID>  (2923) 
MS3023

>  <SMILES>  (2923) 
C[C@H](CCC(=O)N[C@@H](Cc1ccccc1)C(=O)O)[C@H]1CC[C@H]2[C@@H]3[C@@H](O)C[C@@H]4C[C@H](O)CC[C@]4(C)[C@H]3CC[C@]12C

>  <Structure_dimension>  (2923) 
2D

$$$$
MS3024
     RDKit          2D

 39 43  0  0  0  0  0  0  0  0999 V2000
   -9.9175    3.9818    0.0000 C   0  0  0  0  0  0  0  0  0  0  0  0
   -9.6557    2.5048    0.0000 C   0  0  0  0  0  0  0  0  0  0  0  0
  -10.8039    1.5396    0.0000 C   0  0  0  0  0  0  0  0  0  0  0  0
   -8.2457    1.9931    0.0000 C   0  0  0  0  0  0  0  0  0  0  0  0
   -7.9838    0.5161    0.0000 C   0  0  0  0  0  0  0  0  0  0  0  0
   -6.5738    0.0043    0.0000 C   0  0  0  0  0  0  0  0  0  0  0  0
   -6.3120   -1.4726    0.0000 C   0  0  0  0  0  0  0  0  0  0  0  0
   -7.4602   -2.4379    0.0000 C   0  0  0  0  0  0  0  0  0  0  0  0
   -4.9020   -1.9844    0.0000 C   0  0  0  0  0  0  0  0  0  0  0  0
   -4.4873   -3.4259    0.0000 C   0  0  0  0  0  0  0  0  0  0  0  0
   -2.9881   -3.4769    0.0000 C   0  0  0  0  0  0  0  0  0  0  0  0
   -2.4764   -2.0669    0.0000 C   0  0  0  0  0  0  0  0  0  0  0  0
   -1.0861   -1.5037    0.0000 C   0  0  0  0  0  0  0  0  0  0  0  0
    0.0967   -2.4261    0.0000 C   0  0  0  0  0  0  0  0  0  0  0  0
    1.4870   -1.8630    0.0000 C   0  0  0  0  0  0  0  0  0  0  0  0
    1.6944   -0.3774    0.0000 C   0  0  0  0  0  0  0  0  0  0  0  0
    3.0847    0.1858    0.0000 C   0  0  0  0  0  0  0  0  0  0  0  0
    3.2921    1.6714    0.0000 C   0  0  0  0  0  0  0  0  0  0  0  0
    4.6824    2.2346    0.0000 O   0  0  0  0  0  0  0  0  0  0  0  0
    5.8652    1.3122    0.0000 C   0  0  0  0  0  0  0  0  0  0  0  0
    5.6578   -0.1734    0.0000 O   0  0  0  0  0  0  0  0  0  0  0  0
    6.8407   -1.0959    0.0000 C   0  0  0  0  0  0  0  0  0  0  0  0
    6.6333   -2.5814    0.0000 C   0  0  0  0  0  0  0  0  0  0  0  0
    5.2430   -3.1446    0.0000 O   0  0  0  0  0  0  0  0  0  0  0  0
    8.2309   -0.5327    0.0000 C   0  0  0  0  0  0  0  0  0  0  0  0
    9.4138   -1.4551    0.0000 O   0  0  0  0  0  0  0  0  0  0  0  0
    8.4383    0.9529    0.0000 C   0  0  0  0  0  0  0  0  0  0  0  0
    9.8286    1.5161    0.0000 O   0  0  0  0  0  0  0  0  0  0  0  0
    7.2555    1.8753    0.0000 C   0  0  0  0  0  0  0  0  0  0  0  0
    7.4629    3.3609    0.0000 O   0  0  0  0  0  0  0  0  0  0  0  0
    2.1092    2.5938    0.0000 C   0  0  0  0  0  0  0  0  0  0  0  0
    0.7190    2.0306    0.0000 C   0  0  0  0  0  0  0  0  0  0  0  0
    0.5116    0.5451    0.0000 C   0  0  0  0  0  0  0  0  0  0  0  0
   -0.6713    1.4675    0.0000 C   0  0  0  0  0  0  0  0  0  0  0  0
   -0.8787   -0.0181    0.0000 C   0  0  0  0  0  0  0  0  0  0  0  0
   -2.0616    0.9043    0.0000 C   0  0  0  0  0  0  0  0  0  0  0  0
   -3.4518    0.3411    0.0000 C   0  0  0  0  0  0  0  0  0  0  0  0
   -3.6592   -1.1445    0.0000 C   0  0  0  0  0  0  0  0  0  0  0  0
   -4.9320   -0.3507    0.0000 C   0  0  0  0  0  0  0  0  0  0  0  0
  1  2  1  0
  2  3  1  0
  2  4  1  0
  4  5  1  0
  5  6  1  0
  6  7  1  0
  7  8  1  6
  7  9  1  0
  9 10  1  6
 10 11  1  0
 12 11  1  6
 12 13  1  0
 13 14  1  1
 14 15  1  0
 16 15  1  6
 16 17  1  0
 17 18  1  0
 18 19  1  6
 20 19  1  1
 20 21  1  0
 21 22  1  0
 22 23  1  1
 23 24  1  0
 22 25  1  0
 25 26  1  6
 25 27  1  0
 27 28  1  1
 27 29  1  0
 29 30  1  6
 18 31  1  0
 31 32  1  0
 32 33  1  0
 33 34  1  6
 33 35  1  0
 35 36  1  6
 36 37  1  0
 37 38  1  0
 38 39  1  6
 38  9  1  0
 38 12  1  0
 35 13  1  0
 33 16  1  0
 29 20  1  0
M  END
>  <MS_ID>  (2924) 
MS3024

>  <SMILES>  (2924) 
CC(C)CCC[C@@H](C)[C@H]1CC[C@H]2[C@@H]3CC[C@H]4C[C@@H](O[C@@H]5O[C@H](CO)[C@@H](O)[C@H](O)[C@H]5O)CC[C@]4(C)[C@H]3CC[C@]12C

>  <Structure_dimension>  (2924) 
2D

$$$$
MS3025
     RDKit          2D

 25 28  0  0  0  0  0  0  0  0999 V2000
   -6.2011   -0.0039    0.0000 C   0  0  0  0  0  0  0  0  0  0  0  0
   -4.8118    0.5619    0.0000 C   0  0  0  0  0  0  0  0  0  0  0  0
   -4.6071    2.0478    0.0000 O   0  0  0  0  0  0  0  0  0  0  0  0
   -3.6273   -0.3584    0.0000 C   0  0  0  0  0  0  0  0  0  0  0  0
   -3.6756   -1.8576    0.0000 C   0  0  0  0  0  0  0  0  0  0  0  0
   -2.2646   -2.3668    0.0000 C   0  0  0  0  0  0  0  0  0  0  0  0
   -1.3444   -1.1823    0.0000 C   0  0  0  0  0  0  0  0  0  0  0  0
    0.1517   -1.0736    0.0000 C   0  0  0  0  0  0  0  0  0  0  0  0
    0.9939   -2.3148    0.0000 C   0  0  0  0  0  0  0  0  0  0  0  0
    0.3400   -3.6648    0.0000 O   0  0  0  0  0  0  0  0  0  0  0  0
    2.4899   -2.2061    0.0000 C   0  0  0  0  0  0  0  0  0  0  0  0
    3.1438   -0.8561    0.0000 C   0  0  0  0  0  0  0  0  0  0  0  0
    4.6399   -0.7474    0.0000 C   0  0  0  0  0  0  0  0  0  0  0  0
    5.2937    0.6026    0.0000 C   0  0  0  0  0  0  0  0  0  0  0  0
    6.7898    0.7113    0.0000 O   0  0  0  0  0  0  0  0  0  0  0  0
    4.4516    1.8438    0.0000 C   0  0  0  0  0  0  0  0  0  0  0  0
    2.9555    1.7351    0.0000 C   0  0  0  0  0  0  0  0  0  0  0  0
    2.3016    0.3851    0.0000 C   0  0  0  0  0  0  0  0  0  0  0  0
    1.4594    1.6264    0.0000 C   0  0  0  0  0  0  0  0  0  0  0  0
    0.8056    0.2764    0.0000 C   0  0  0  0  0  0  0  0  0  0  0  0
   -0.0366    1.5177    0.0000 C   0  0  0  0  0  0  0  0  0  0  0  0
   -1.5327    1.4090    0.0000 C   0  0  0  0  0  0  0  0  0  0  0  0
   -2.3748    2.6502    0.0000 O   0  0  0  0  0  0  0  0  0  0  0  0
   -2.1865    0.0590    0.0000 C   0  0  0  0  0  0  0  0  0  0  0  0
   -3.1539    1.2054    0.0000 C   0  0  0  0  0  0  0  0  0  0  0  0
  1  2  1  0
  2  3  2  0
  4  2  1  6
  4  5  1  0
  5  6  1  0
  7  6  1  6
  7  8  1  0
  8  9  1  1
  9 10  1  6
  9 11  1  0
 12 11  1  1
 12 13  1  0
 13 14  1  0
 14 15  1  1
 14 16  1  0
 16 17  1  0
 17 18  1  0
 18 19  1  6
 18 20  1  0
 20 21  1  6
 21 22  1  0
 22 23  1  1
 22 24  1  0
 24 25  1  6
 24  4  1  0
 24  7  1  0
 20  8  1  0
 18 12  1  0
M  END
>  <MS_ID>  (2925) 
MS3025

>  <SMILES>  (2925) 
CC(=O)[C@H]1CC[C@H]2[C@@H]3[C@@H](O)C[C@@H]4C[C@H](O)CC[C@]4(C)[C@H]3C[C@H](O)[C@]12C

>  <Structure_dimension>  (2925) 
2D

$$$$
MS3026
     RDKit          2D

 33 36  0  0  0  0  0  0  0  0999 V2000
   -3.4191   -3.2414    0.0000 C   0  0  0  0  0  0  0  0  0  0  0  0
   -2.4415   -2.1038    0.0000 C   0  0  0  0  0  0  0  0  0  0  0  0
   -2.9379   -0.6883    0.0000 C   0  0  0  0  0  0  0  0  0  0  0  0
   -4.4119   -0.4104    0.0000 C   0  0  0  0  0  0  0  0  0  0  0  0
   -4.9083    1.0051    0.0000 C   0  0  0  0  0  0  0  0  0  0  0  0
   -6.3823    1.2829    0.0000 C   0  0  0  0  0  0  0  0  0  0  0  0
   -6.6602   -0.1911    0.0000 O   0  0  0  0  0  0  0  0  0  0  0  0
   -7.8564    1.5608    0.0000 C   0  0  0  0  0  0  0  0  0  0  0  0
   -8.8340    0.4232    0.0000 O   0  0  0  0  0  0  0  0  0  0  0  0
   -6.1045    2.7570    0.0000 C   0  0  0  0  0  0  0  0  0  0  0  0
   -7.2421    3.7346    0.0000 O   0  0  0  0  0  0  0  0  0  0  0  0
   -0.9674   -2.3816    0.0000 C   0  0  0  0  0  0  0  0  0  0  0  0
   -0.3258   -3.7375    0.0000 C   0  0  0  0  0  0  0  0  0  0  0  0
    1.1619   -3.5462    0.0000 C   0  0  0  0  0  0  0  0  0  0  0  0
    1.4398   -2.0722    0.0000 C   0  0  0  0  0  0  0  0  0  0  0  0
    2.7211   -1.2923    0.0000 C   0  0  0  0  0  0  0  0  0  0  0  0
    4.0372   -2.0121    0.0000 C   0  0  0  0  0  0  0  0  0  0  0  0
    4.0719   -3.5117    0.0000 O   0  0  0  0  0  0  0  0  0  0  0  0
    5.3185   -1.2322    0.0000 C   0  0  0  0  0  0  0  0  0  0  0  0
    5.2838    0.2674    0.0000 C   0  0  0  0  0  0  0  0  0  0  0  0
    6.5652    1.0472    0.0000 C   0  0  0  0  0  0  0  0  0  0  0  0
    6.5305    2.5468    0.0000 C   0  0  0  0  0  0  0  0  0  0  0  0
    7.8119    3.3266    0.0000 O   0  0  0  0  0  0  0  0  0  0  0  0
    5.2145    3.2666    0.0000 C   0  0  0  0  0  0  0  0  0  0  0  0
    3.9331    2.4867    0.0000 C   0  0  0  0  0  0  0  0  0  0  0  0
    3.9678    0.9871    0.0000 C   0  0  0  0  0  0  0  0  0  0  0  0
    2.6518    1.7069    0.0000 C   0  0  0  0  0  0  0  0  0  0  0  0
    2.6865    0.2073    0.0000 C   0  0  0  0  0  0  0  0  0  0  0  0
    1.3704    0.9270    0.0000 C   0  0  0  0  0  0  0  0  0  0  0  0
    0.0891    0.1472    0.0000 C   0  0  0  0  0  0  0  0  0  0  0  0
   -1.2270    0.8670    0.0000 O   0  0  0  0  0  0  0  0  0  0  0  0
    0.1238   -1.3524    0.0000 C   0  0  0  0  0  0  0  0  0  0  0  0
   -1.2603   -0.7741    0.0000 C   0  0  0  0  0  0  0  0  0  0  0  0
  2  1  1  6
  2  3  1  0
  3  4  1  0
  4  5  1  0
  5  6  1  0
  6  7  1  0
  6  8  1  0
  8  9  1  0
  6 10  1  0
 10 11  1  0
  2 12  1  0
 12 13  1  6
 13 14  1  0
 15 14  1  6
 15 16  1  0
 16 17  1  1
 17 18  1  1
 17 19  1  0
 20 19  1  1
 20 21  1  0
 21 22  1  0
 22 23  1  1
 22 24  1  0
 24 25  1  0
 25 26  1  0
 26 27  1  6
 26 28  1  0
 28 29  1  6
 29 30  1  0
 30 31  1  1
 30 32  1  0
 32 33  1  6
 32 12  1  0
 32 15  1  0
 28 16  1  0
 26 20  1  0
M  END
>  <MS_ID>  (2926) 
MS3026

>  <SMILES>  (2926) 
C[C@H](CCCC(O)(CO)CO)[C@H]1CC[C@H]2[C@@H]3[C@H](O)C[C@@H]4C[C@H](O)CC[C@]4(C)[C@H]3C[C@H](O)[C@]12C

>  <Structure_dimension>  (2926) 
2D

$$$$
MS3027
     RDKit          2D

 36 39  0  0  0  0  0  0  0  0999 V2000
   -1.1768   -4.5685    0.0000 C   0  0  0  0  0  0  0  0  0  0  0  0
   -0.5735   -3.1951    0.0000 C   0  0  0  0  0  0  0  0  0  0  0  0
   -1.4612   -1.9860    0.0000 C   0  0  0  0  0  0  0  0  0  0  0  0
   -2.9522   -2.1502    0.0000 C   0  0  0  0  0  0  0  0  0  0  0  0
   -3.8399   -0.9410    0.0000 C   0  0  0  0  0  0  0  0  0  0  0  0
   -3.2366    0.4323    0.0000 O   0  0  0  0  0  0  0  0  0  0  0  0
   -5.3309   -1.1052    0.0000 N   0  0  0  0  0  0  0  0  0  0  0  0
   -6.2186    0.1039    0.0000 C   0  0  0  0  0  0  0  0  0  0  0  0
   -7.7096   -0.0603    0.0000 C   0  0  0  0  0  0  0  0  0  0  0  0
   -8.5972    1.1489    0.0000 C   0  0  0  0  0  0  0  0  0  0  0  0
  -10.0882    0.9847    0.0000 C   0  0  0  0  0  0  0  0  0  0  0  0
  -10.9759    2.1938    0.0000 C   0  0  0  0  0  0  0  0  0  0  0  0
  -10.3726    3.5671    0.0000 O   0  0  0  0  0  0  0  0  0  0  0  0
  -12.4669    2.0296    0.0000 O   0  0  0  0  0  0  0  0  0  0  0  0
    0.9174   -3.0309    0.0000 C   0  0  0  0  0  0  0  0  0  0  0  0
    1.9267   -4.1407    0.0000 C   0  0  0  0  0  0  0  0  0  0  0  0
    3.2939   -3.5238    0.0000 C   0  0  0  0  0  0  0  0  0  0  0  0
    3.1297   -2.0328    0.0000 C   0  0  0  0  0  0  0  0  0  0  0  0
    4.1279   -0.9131    0.0000 C   0  0  0  0  0  0  0  0  0  0  0  0
    5.5967   -1.2177    0.0000 C   0  0  0  0  0  0  0  0  0  0  0  0
    6.0672   -2.6420    0.0000 O   0  0  0  0  0  0  0  0  0  0  0  0
    6.5948   -0.0980    0.0000 C   0  0  0  0  0  0  0  0  0  0  0  0
    6.1242    1.3262    0.0000 C   0  0  0  0  0  0  0  0  0  0  0  0
    7.1224    2.4459    0.0000 C   0  0  0  0  0  0  0  0  0  0  0  0
    6.6518    3.8702    0.0000 C   0  0  0  0  0  0  0  0  0  0  0  0
    7.6499    4.9899    0.0000 O   0  0  0  0  0  0  0  0  0  0  0  0
    5.1830    4.1748    0.0000 C   0  0  0  0  0  0  0  0  0  0  0  0
    4.1849    3.0551    0.0000 C   0  0  0  0  0  0  0  0  0  0  0  0
    4.6555    1.6308    0.0000 C   0  0  0  0  0  0  0  0  0  0  0  0
    3.1867    1.9354    0.0000 C   0  0  0  0  0  0  0  0  0  0  0  0
    3.6573    0.5112    0.0000 C   0  0  0  0  0  0  0  0  0  0  0  0
    2.1886    0.8157    0.0000 C   0  0  0  0  0  0  0  0  0  0  0  0
    1.1904   -0.3039    0.0000 C   0  0  0  0  0  0  0  0  0  0  0  0
   -0.2783    0.0007    0.0000 O   0  0  0  0  0  0  0  0  0  0  0  0
    1.6610   -1.7282    0.0000 C   0  0  0  0  0  0  0  0  0  0  0  0
    0.1685   -1.5788    0.0000 C   0  0  0  0  0  0  0  0  0  0  0  0
  2  1  1  6
  2  3  1  0
  3  4  1  0
  4  5  1  0
  5  6  2  0
  5  7  1  0
  7  8  1  0
  8  9  1  0
  9 10  1  0
 10 11  1  0
 11 12  1  0
 12 13  2  0
 12 14  1  0
  2 15  1  0
 15 16  1  6
 16 17  1  0
 18 17  1  6
 18 19  1  0
 19 20  1  1
 20 21  1  1
 20 22  1  0
 23 22  1  1
 23 24  1  0
 24 25  1  0
 25 26  1  1
 25 27  1  0
 27 28  1  0
 28 29  1  0
 29 30  1  6
 29 31  1  0
 31 32  1  6
 32 33  1  0
 33 34  1  1
 33 35  1  0
 35 36  1  6
 35 15  1  0
 35 18  1  0
 31 19  1  0
 29 23  1  0
M  END
>  <MS_ID>  (2927) 
MS3027

>  <SMILES>  (2927) 
C[C@H](CCC(=O)NCCCCC(=O)O)[C@H]1CC[C@H]2[C@@H]3[C@H](O)C[C@@H]4C[C@H](O)CC[C@]4(C)[C@H]3C[C@H](O)[C@]12C

>  <Structure_dimension>  (2927) 
2D

$$$$
MS3028
     RDKit          2D

 43 48  0  0  0  0  0  0  0  0999 V2000
    0.2606   -4.8250    0.0000 C   0  0  0  0  0  0  0  0  0  0  0  0
    0.7909   -3.4219    0.0000 C   0  0  0  0  0  0  0  0  0  0  0  0
   -0.1591   -2.2611    0.0000 C   0  0  0  0  0  0  0  0  0  0  0  0
   -1.6394   -2.5033    0.0000 C   0  0  0  0  0  0  0  0  0  0  0  0
   -2.5894   -1.3425    0.0000 C   0  0  0  0  0  0  0  0  0  0  0  0
   -2.0591    0.0606    0.0000 O   0  0  0  0  0  0  0  0  0  0  0  0
   -4.0697   -1.5848    0.0000 N   0  0  0  0  0  0  0  0  0  0  0  0
   -5.0197   -0.4240    0.0000 C   0  0  0  0  0  0  0  0  0  0  0  0
   -6.5000   -0.6663    0.0000 C   0  0  0  0  0  0  0  0  0  0  0  0
   -7.4500    0.4945    0.0000 C   0  0  0  0  0  0  0  0  0  0  0  0
   -7.0692    1.9454    0.0000 C   0  0  0  0  0  0  0  0  0  0  0  0
   -8.3314    2.7559    0.0000 N   0  0  0  0  0  0  0  0  0  0  0  0
   -9.4923    1.8059    0.0000 C   0  0  0  0  0  0  0  0  0  0  0  0
  -10.9750    2.0329    0.0000 C   0  0  0  0  0  0  0  0  0  0  0  0
  -11.9129    0.8623    0.0000 C   0  0  0  0  0  0  0  0  0  0  0  0
  -11.3682   -0.5353    0.0000 C   0  0  0  0  0  0  0  0  0  0  0  0
   -9.8854   -0.7623    0.0000 C   0  0  0  0  0  0  0  0  0  0  0  0
   -8.9475    0.4083    0.0000 C   0  0  0  0  0  0  0  0  0  0  0  0
   -4.4894    0.9791    0.0000 C   0  0  0  0  0  0  0  0  0  0  0  0
   -3.0091    1.2214    0.0000 O   0  0  0  0  0  0  0  0  0  0  0  0
   -5.4394    2.1400    0.0000 O   0  0  0  0  0  0  0  0  0  0  0  0
    2.2712   -3.1796    0.0000 C   0  0  0  0  0  0  0  0  0  0  0  0
    3.3373   -4.2348    0.0000 C   0  0  0  0  0  0  0  0  0  0  0  0
    4.6703   -3.5469    0.0000 C   0  0  0  0  0  0  0  0  0  0  0  0
    4.4280   -2.0666    0.0000 C   0  0  0  0  0  0  0  0  0  0  0  0
    5.3659   -0.8960    0.0000 C   0  0  0  0  0  0  0  0  0  0  0  0
    6.8487   -1.1230    0.0000 C   0  0  0  0  0  0  0  0  0  0  0  0
    7.3934   -2.5206    0.0000 O   0  0  0  0  0  0  0  0  0  0  0  0
    7.7866    0.0476    0.0000 C   0  0  0  0  0  0  0  0  0  0  0  0
    9.2693   -0.1794    0.0000 O   0  0  0  0  0  0  0  0  0  0  0  0
    7.2418    1.4452    0.0000 C   0  0  0  0  0  0  0  0  0  0  0  0
    8.1798    2.6157    0.0000 C   0  0  0  0  0  0  0  0  0  0  0  0
    7.6350    4.0133    0.0000 C   0  0  0  0  0  0  0  0  0  0  0  0
    8.5730    5.1839    0.0000 O   0  0  0  0  0  0  0  0  0  0  0  0
    6.1523    4.2403    0.0000 C   0  0  0  0  0  0  0  0  0  0  0  0
    5.2143    3.0697    0.0000 C   0  0  0  0  0  0  0  0  0  0  0  0
    5.7591    1.6722    0.0000 C   0  0  0  0  0  0  0  0  0  0  0  0
    4.2764    1.8992    0.0000 C   0  0  0  0  0  0  0  0  0  0  0  0
    4.8212    0.5016    0.0000 C   0  0  0  0  0  0  0  0  0  0  0  0
    3.3384    0.7286    0.0000 C   0  0  0  0  0  0  0  0  0  0  0  0
    2.4005   -0.4420    0.0000 C   0  0  0  0  0  0  0  0  0  0  0  0
    2.9453   -1.8396    0.0000 C   0  0  0  0  0  0  0  0  0  0  0  0
    1.4469   -1.7688    0.0000 C   0  0  0  0  0  0  0  0  0  0  0  0
  2  1  1  6
  2  3  1  0
  3  4  1  0
  4  5  1  0
  5  6  2  0
  5  7  1  0
  7  8  1  0
  8  9  1  1
  9 10  1  0
 10 11  2  0
 11 12  1  0
 12 13  1  0
 13 14  2  0
 14 15  1  0
 15 16  2  0
 16 17  1  0
 17 18  2  0
  8 19  1  0
 19 20  2  0
 19 21  1  0
  2 22  1  0
 22 23  1  6
 23 24  1  0
 25 24  1  6
 25 26  1  0
 26 27  1  1
 27 28  1  1
 27 29  1  0
 29 30  1  6
 29 31  1  0
 31 32  1  1
 32 33  1  0
 33 34  1  1
 33 35  1  0
 35 36  1  0
 36 37  1  0
 37 38  1  6
 37 39  1  0
 39 40  1  6
 40 41  1  0
 41 42  1  0
 42 43  1  6
 18 10  1  0
 42 22  1  0
 18 13  1  0
 42 25  1  0
 39 26  1  0
 37 31  1  0
M  END
>  <MS_ID>  (2928) 
MS3028

>  <SMILES>  (2928) 
C[C@H](CCC(=O)N[C@@H](Cc1c[nH]c2ccccc12)C(=O)O)[C@H]1CC[C@H]2[C@@H]3[C@H](O)[C@@H](O)[C@@H]4C[C@H](O)CC[C@]4(C)[C@H]3CC[C@]12C

>  <Structure_dimension>  (2928) 
2D

$$$$
MS3029
     RDKit          2D

 32 35  0  0  0  0  0  0  0  0999 V2000
   -3.1421   -3.6694    0.0000 C   0  0  0  0  0  0  0  0  0  0  0  0
   -2.2628   -2.4541    0.0000 C   0  0  0  0  0  0  0  0  0  0  0  0
   -2.8756   -1.0850    0.0000 C   0  0  0  0  0  0  0  0  0  0  0  0
   -4.3676   -0.9311    0.0000 C   0  0  0  0  0  0  0  0  0  0  0  0
   -4.9804    0.4380    0.0000 C   0  0  0  0  0  0  0  0  0  0  0  0
   -4.1011    1.6532    0.0000 O   0  0  0  0  0  0  0  0  0  0  0  0
   -6.4725    0.5919    0.0000 N   0  0  0  0  0  0  0  0  0  0  0  0
   -7.0853    1.9610    0.0000 C   0  0  0  0  0  0  0  0  0  0  0  0
   -8.5774    2.1149    0.0000 C   0  0  0  0  0  0  0  0  0  0  0  0
   -9.4567    0.8996    0.0000 O   0  0  0  0  0  0  0  0  0  0  0  0
   -9.1901    3.4840    0.0000 O   0  0  0  0  0  0  0  0  0  0  0  0
   -0.7707   -2.6080    0.0000 C   0  0  0  0  0  0  0  0  0  0  0  0
   -0.0182   -3.9056    0.0000 C   0  0  0  0  0  0  0  0  0  0  0  0
    1.4484   -3.5909    0.0000 C   0  0  0  0  0  0  0  0  0  0  0  0
    1.6023   -2.0988    0.0000 C   0  0  0  0  0  0  0  0  0  0  0  0
    2.8141   -1.2147    0.0000 C   0  0  0  0  0  0  0  0  0  0  0  0
    4.1856   -1.8222    0.0000 C   0  0  0  0  0  0  0  0  0  0  0  0
    4.3453   -3.3136    0.0000 O   0  0  0  0  0  0  0  0  0  0  0  0
    5.3974   -0.9381    0.0000 C   0  0  0  0  0  0  0  0  0  0  0  0
    5.2377    0.5533    0.0000 C   0  0  0  0  0  0  0  0  0  0  0  0
    6.4495    1.4374    0.0000 C   0  0  0  0  0  0  0  0  0  0  0  0
    6.2898    2.9289    0.0000 C   0  0  0  0  0  0  0  0  0  0  0  0
    7.5016    3.8129    0.0000 O   0  0  0  0  0  0  0  0  0  0  0  0
    4.9183    3.5363    0.0000 C   0  0  0  0  0  0  0  0  0  0  0  0
    3.7065    2.6522    0.0000 C   0  0  0  0  0  0  0  0  0  0  0  0
    3.8662    1.1608    0.0000 C   0  0  0  0  0  0  0  0  0  0  0  0
    2.4947    1.7682    0.0000 C   0  0  0  0  0  0  0  0  0  0  0  0
    2.6544    0.2767    0.0000 C   0  0  0  0  0  0  0  0  0  0  0  0
    1.2829    0.8842    0.0000 C   0  0  0  0  0  0  0  0  0  0  0  0
    0.0711    0.0001    0.0000 C   0  0  0  0  0  0  0  0  0  0  0  0
    0.2308   -1.4914    0.0000 C   0  0  0  0  0  0  0  0  0  0  0  0
   -1.1967   -1.0306    0.0000 C   0  0  0  0  0  0  0  0  0  0  0  0
  2  1  1  6
  2  3  1  0
  3  4  1  0
  4  5  1  0
  5  6  2  0
  5  7  1  0
  7  8  1  0
  8  9  1  0
  9 10  2  0
  9 11  1  0
  2 12  1  0
 12 13  1  6
 13 14  1  0
 15 14  1  6
 15 16  1  0
 16 17  1  1
 17 18  1  6
 17 19  1  0
 20 19  1  1
 20 21  1  0
 21 22  1  0
 22 23  1  6
 22 24  1  0
 24 25  1  0
 25 26  1  0
 26 27  1  6
 26 28  1  0
 28 29  1  6
 29 30  1  0
 30 31  1  0
 31 32  1  6
 31 12  1  0
 31 15  1  0
 28 16  1  0
 26 20  1  0
M  END
>  <MS_ID>  (2929) 
MS3029

>  <SMILES>  (2929) 
C[C@H](CCC(=O)NCC(=O)O)[C@H]1CC[C@H]2[C@@H]3[C@@H](O)C[C@@H]4C[C@@H](O)CC[C@]4(C)[C@H]3CC[C@]12C

>  <Structure_dimension>  (2929) 
2D

$$$$
MS3030
     RDKit          2D

 39 42  0  0  0  0  0  0  0  0999 V2000
   -0.1970   -4.7350    0.0000 C   0  0  0  0  0  0  0  0  0  0  0  0
    0.3598   -3.3422    0.0000 C   0  0  0  0  0  0  0  0  0  0  0  0
   -0.5680   -2.1635    0.0000 C   0  0  0  0  0  0  0  0  0  0  0  0
   -2.0526   -2.3777    0.0000 C   0  0  0  0  0  0  0  0  0  0  0  0
   -2.9804   -1.1990    0.0000 C   0  0  0  0  0  0  0  0  0  0  0  0
   -2.4235    0.1938    0.0000 O   0  0  0  0  0  0  0  0  0  0  0  0
   -4.4650   -1.4132    0.0000 N   0  0  0  0  0  0  0  0  0  0  0  0
   -5.3928   -0.2346    0.0000 C   0  0  0  0  0  0  0  0  0  0  0  0
   -6.8774   -0.4487    0.0000 C   0  0  0  0  0  0  0  0  0  0  0  0
   -7.8052    0.7299    0.0000 C   0  0  0  0  0  0  0  0  0  0  0  0
   -9.2899    0.5158    0.0000 C   0  0  0  0  0  0  0  0  0  0  0  0
  -10.2176    1.6944    0.0000 N   0  0  0  0  0  0  0  0  0  0  0  0
  -11.7023    1.4802    0.0000 C   0  0  0  0  0  0  0  0  0  0  0  0
  -12.6301    2.6589    0.0000 N   0  0  0  0  0  0  0  0  0  0  0  0
  -12.2591    0.0874    0.0000 O   0  0  0  0  0  0  0  0  0  0  0  0
   -4.8360    1.1583    0.0000 C   0  0  0  0  0  0  0  0  0  0  0  0
   -3.3513    1.3724    0.0000 O   0  0  0  0  0  0  0  0  0  0  0  0
   -5.7637    2.3369    0.0000 O   0  0  0  0  0  0  0  0  0  0  0  0
    1.8445   -3.1280    0.0000 C   0  0  0  0  0  0  0  0  0  0  0  0
    2.8904   -4.2032    0.0000 C   0  0  0  0  0  0  0  0  0  0  0  0
    4.2362   -3.5408    0.0000 C   0  0  0  0  0  0  0  0  0  0  0  0
    4.0220   -2.0561    0.0000 C   0  0  0  0  0  0  0  0  0  0  0  0
    4.9820   -0.9036    0.0000 C   0  0  0  0  0  0  0  0  0  0  0  0
    6.4601   -1.1587    0.0000 C   0  0  0  0  0  0  0  0  0  0  0  0
    6.9783   -2.5663    0.0000 O   0  0  0  0  0  0  0  0  0  0  0  0
    7.4201   -0.0061    0.0000 C   0  0  0  0  0  0  0  0  0  0  0  0
    6.9020    1.4016    0.0000 C   0  0  0  0  0  0  0  0  0  0  0  0
    7.8620    2.5541    0.0000 C   0  0  0  0  0  0  0  0  0  0  0  0
    7.3438    3.9618    0.0000 C   0  0  0  0  0  0  0  0  0  0  0  0
    8.3038    5.1144    0.0000 O   0  0  0  0  0  0  0  0  0  0  0  0
    5.8657    4.2169    0.0000 C   0  0  0  0  0  0  0  0  0  0  0  0
    4.9057    3.0643    0.0000 C   0  0  0  0  0  0  0  0  0  0  0  0
    5.4238    1.6567    0.0000 C   0  0  0  0  0  0  0  0  0  0  0  0
    3.9457    1.9118    0.0000 C   0  0  0  0  0  0  0  0  0  0  0  0
    4.4638    0.5041    0.0000 C   0  0  0  0  0  0  0  0  0  0  0  0
    2.9857    0.7592    0.0000 C   0  0  0  0  0  0  0  0  0  0  0  0
    2.0257   -0.3934    0.0000 C   0  0  0  0  0  0  0  0  0  0  0  0
    2.5438   -1.8010    0.0000 C   0  0  0  0  0  0  0  0  0  0  0  0
    1.0471   -1.7018    0.0000 C   0  0  0  0  0  0  0  0  0  0  0  0
  2  1  1  6
  2  3  1  0
  3  4  1  0
  4  5  1  0
  5  6  2  0
  5  7  1  0
  7  8  1  0
  8  9  1  1
  9 10  1  0
 10 11  1  0
 11 12  1  0
 12 13  1  0
 13 14  1  0
 13 15  2  0
  8 16  1  0
 16 17  2  0
 16 18  1  0
  2 19  1  0
 19 20  1  6
 20 21  1  0
 22 21  1  6
 22 23  1  0
 23 24  1  1
 24 25  1  1
 24 26  1  0
 27 26  1  1
 27 28  1  0
 28 29  1  0
 29 30  1  1
 29 31  1  0
 31 32  1  0
 32 33  1  0
 33 34  1  6
 33 35  1  0
 35 36  1  6
 36 37  1  0
 37 38  1  0
 38 39  1  6
 38 19  1  0
 38 22  1  0
 35 23  1  0
 33 27  1  0
M  END
>  <MS_ID>  (2930) 
MS3030

>  <SMILES>  (2930) 
C[C@H](CCC(=O)N[C@@H](CCCNC(N)=O)C(=O)O)[C@H]1CC[C@H]2[C@@H]3[C@H](O)C[C@@H]4C[C@H](O)CC[C@]4(C)[C@H]3CC[C@]12C

>  <Structure_dimension>  (2930) 
2D

$$$$
MS3031
     RDKit          2D

 35 38  0  0  0  0  0  0  0  0999 V2000
   -1.1848   -4.5684    0.0000 C   0  0  0  0  0  0  0  0  0  0  0  0
   -0.5815   -3.1951    0.0000 C   0  0  0  0  0  0  0  0  0  0  0  0
   -1.4692   -1.9860    0.0000 C   0  0  0  0  0  0  0  0  0  0  0  0
   -2.9602   -2.1502    0.0000 C   0  0  0  0  0  0  0  0  0  0  0  0
   -3.8478   -0.9410    0.0000 C   0  0  0  0  0  0  0  0  0  0  0  0
   -3.2445    0.4323    0.0000 O   0  0  0  0  0  0  0  0  0  0  0  0
   -5.3388   -1.1052    0.0000 N   0  0  0  0  0  0  0  0  0  0  0  0
   -6.2265    0.1039    0.0000 C   0  0  0  0  0  0  0  0  0  0  0  0
   -7.7175   -0.0603    0.0000 C   0  0  0  0  0  0  0  0  0  0  0  0
   -8.6052    1.1489    0.0000 C   0  0  0  0  0  0  0  0  0  0  0  0
  -10.0962    0.9847    0.0000 C   0  0  0  0  0  0  0  0  0  0  0  0
  -10.9839    2.1938    0.0000 C   0  0  0  0  0  0  0  0  0  0  0  0
  -10.3806    3.5672    0.0000 O   0  0  0  0  0  0  0  0  0  0  0  0
  -12.4748    2.0297    0.0000 O   0  0  0  0  0  0  0  0  0  0  0  0
    0.9095   -3.0309    0.0000 C   0  0  0  0  0  0  0  0  0  0  0  0
    1.9187   -4.1407    0.0000 C   0  0  0  0  0  0  0  0  0  0  0  0
    3.2860   -3.5238    0.0000 C   0  0  0  0  0  0  0  0  0  0  0  0
    3.1218   -2.0328    0.0000 C   0  0  0  0  0  0  0  0  0  0  0  0
    4.1199   -0.9131    0.0000 C   0  0  0  0  0  0  0  0  0  0  0  0
    5.5887   -1.2177    0.0000 C   0  0  0  0  0  0  0  0  0  0  0  0
    6.0593   -2.6420    0.0000 O   0  0  0  0  0  0  0  0  0  0  0  0
    6.5869   -0.0980    0.0000 C   0  0  0  0  0  0  0  0  0  0  0  0
    6.1163    1.3263    0.0000 C   0  0  0  0  0  0  0  0  0  0  0  0
    7.1144    2.4459    0.0000 C   0  0  0  0  0  0  0  0  0  0  0  0
    6.6438    3.8702    0.0000 C   0  0  0  0  0  0  0  0  0  0  0  0
    7.6420    4.9899    0.0000 O   0  0  0  0  0  0  0  0  0  0  0  0
    5.1751    4.1748    0.0000 C   0  0  0  0  0  0  0  0  0  0  0  0
    4.1769    3.0551    0.0000 C   0  0  0  0  0  0  0  0  0  0  0  0
    4.6475    1.6309    0.0000 C   0  0  0  0  0  0  0  0  0  0  0  0
    3.1788    1.9354    0.0000 C   0  0  0  0  0  0  0  0  0  0  0  0
    3.6494    0.5112    0.0000 C   0  0  0  0  0  0  0  0  0  0  0  0
    2.1806    0.8158    0.0000 C   0  0  0  0  0  0  0  0  0  0  0  0
    1.1825   -0.3039    0.0000 C   0  0  0  0  0  0  0  0  0  0  0  0
    1.6530   -1.7282    0.0000 C   0  0  0  0  0  0  0  0  0  0  0  0
    0.1605   -1.5788    0.0000 C   0  0  0  0  0  0  0  0  0  0  0  0
  2  1  1  6
  2  3  1  0
  3  4  1  0
  4  5  1  0
  5  6  2  0
  5  7  1  0
  7  8  1  0
  8  9  1  0
  9 10  1  0
 10 11  1  0
 11 12  1  0
 12 13  2  0
 12 14  1  0
  2 15  1  0
 15 16  1  6
 16 17  1  0
 18 17  1  6
 18 19  1  0
 19 20  1  1
 20 21  1  1
 20 22  1  0
 23 22  1  1
 23 24  1  0
 24 25  1  0
 25 26  1  1
 25 27  1  0
 27 28  1  0
 28 29  1  0
 29 30  1  6
 29 31  1  0
 31 32  1  6
 32 33  1  0
 33 34  1  0
 34 35  1  6
 34 15  1  0
 34 18  1  0
 31 19  1  0
 29 23  1  0
M  END
>  <MS_ID>  (2931) 
MS3031

>  <SMILES>  (2931) 
C[C@H](CCC(=O)NCCCCC(=O)O)[C@H]1CC[C@H]2[C@@H]3[C@H](O)C[C@@H]4C[C@H](O)CC[C@]4(C)[C@H]3CC[C@]12C

>  <Structure_dimension>  (2931) 
2D

$$$$
MS3032
     RDKit          2D

 36 40  0  0  0  0  0  0  0  0999 V2000
   -2.6651   -3.9199    0.0000 C   0  0  0  0  0  0  0  0  0  0  0  0
   -1.8461   -2.6632    0.0000 C   0  0  0  0  0  0  0  0  0  0  0  0
   -2.5249   -1.3256    0.0000 C   0  0  0  0  0  0  0  0  0  0  0  0
   -4.0228   -1.2447    0.0000 C   0  0  0  0  0  0  0  0  0  0  0  0
   -4.7016    0.0929    0.0000 C   0  0  0  0  0  0  0  0  0  0  0  0
   -3.8826    1.3496    0.0000 O   0  0  0  0  0  0  0  0  0  0  0  0
   -6.1994    0.1739    0.0000 N   0  0  0  0  0  0  0  0  0  0  0  0
   -7.1453   -0.9903    0.0000 C   0  0  0  0  0  0  0  0  0  0  0  0
   -8.5448   -0.4505    0.0000 C   0  0  0  0  0  0  0  0  0  0  0  0
   -8.4638    1.0473    0.0000 C   0  0  0  0  0  0  0  0  0  0  0  0
   -7.0143    1.4332    0.0000 C   0  0  0  0  0  0  0  0  0  0  0  0
   -6.4745    2.8327    0.0000 C   0  0  0  0  0  0  0  0  0  0  0  0
   -4.9926    3.0650    0.0000 O   0  0  0  0  0  0  0  0  0  0  0  0
   -7.4166    4.0000    0.0000 O   0  0  0  0  0  0  0  0  0  0  0  0
   -0.3483   -2.7441    0.0000 C   0  0  0  0  0  0  0  0  0  0  0  0
    0.4666   -4.0035    0.0000 C   0  0  0  0  0  0  0  0  0  0  0  0
    1.9161   -3.6176    0.0000 C   0  0  0  0  0  0  0  0  0  0  0  0
    1.9971   -2.1198    0.0000 C   0  0  0  0  0  0  0  0  0  0  0  0
    3.1643   -1.1777    0.0000 C   0  0  0  0  0  0  0  0  0  0  0  0
    4.5638   -1.7175    0.0000 C   0  0  0  0  0  0  0  0  0  0  0  0
    4.7961   -3.1994    0.0000 O   0  0  0  0  0  0  0  0  0  0  0  0
    5.7311   -0.7754    0.0000 C   0  0  0  0  0  0  0  0  0  0  0  0
    7.1305   -1.3153    0.0000 O   0  0  0  0  0  0  0  0  0  0  0  0
    5.4988    0.7065    0.0000 C   0  0  0  0  0  0  0  0  0  0  0  0
    6.6661    1.6486    0.0000 C   0  0  0  0  0  0  0  0  0  0  0  0
    6.4338    3.1305    0.0000 C   0  0  0  0  0  0  0  0  0  0  0  0
    7.6011    4.0726    0.0000 O   0  0  0  0  0  0  0  0  0  0  0  0
    5.0343    3.6703    0.0000 C   0  0  0  0  0  0  0  0  0  0  0  0
    3.8671    2.7282    0.0000 C   0  0  0  0  0  0  0  0  0  0  0  0
    4.0993    1.2463    0.0000 C   0  0  0  0  0  0  0  0  0  0  0  0
    2.6998    1.7861    0.0000 C   0  0  0  0  0  0  0  0  0  0  0  0
    2.9321    0.3042    0.0000 C   0  0  0  0  0  0  0  0  0  0  0  0
    1.5326    0.8440    0.0000 C   0  0  0  0  0  0  0  0  0  0  0  0
    0.3653   -0.0981    0.0000 C   0  0  0  0  0  0  0  0  0  0  0  0
    0.5976   -1.5800    0.0000 C   0  0  0  0  0  0  0  0  0  0  0  0
   -0.8507   -1.1894    0.0000 C   0  0  0  0  0  0  0  0  0  0  0  0
  2  1  1  6
  2  3  1  0
  3  4  1  0
  4  5  1  0
  5  6  2  0
  5  7  1  0
  7  8  1  0
  8  9  1  0
  9 10  1  0
 10 11  1  0
 11 12  1  1
 12 13  2  0
 12 14  1  0
  2 15  1  0
 15 16  1  6
 16 17  1  0
 18 17  1  6
 18 19  1  0
 19 20  1  1
 20 21  1  1
 20 22  1  0
 22 23  1  6
 22 24  1  0
 24 25  1  1
 25 26  1  0
 26 27  1  1
 26 28  1  0
 28 29  1  0
 29 30  1  0
 30 31  1  6
 30 32  1  0
 32 33  1  6
 33 34  1  0
 34 35  1  0
 35 36  1  6
 11  7  1  0
 35 15  1  0
 35 18  1  0
 32 19  1  0
 30 24  1  0
M  END
>  <MS_ID>  (2932) 
MS3032

>  <SMILES>  (2932) 
C[C@H](CCC(=O)N1CCC[C@H]1C(=O)O)[C@H]1CC[C@H]2[C@@H]3[C@H](O)[C@@H](O)[C@@H]4C[C@H](O)CC[C@]4(C)[C@H]3CC[C@]12C

>  <Structure_dimension>  (2932) 
2D

$$$$
MS3033
     RDKit          2D

 24 27  0  0  0  0  0  0  0  0999 V2000
   -7.1591    0.8654    0.0000 C   0  0  0  0  0  0  0  0  0  0  0  0
   -5.9784   -0.0597    0.0000 C   0  0  0  0  0  0  0  0  0  0  0  0
   -4.5869    0.5003    0.0000 C   0  0  0  0  0  0  0  0  0  0  0  0
   -4.3760    1.9854    0.0000 O   0  0  0  0  0  0  0  0  0  0  0  0
   -3.4061   -0.4248    0.0000 C   0  0  0  0  0  0  0  0  0  0  0  0
   -3.4606   -1.9239    0.0000 C   0  0  0  0  0  0  0  0  0  0  0  0
   -2.0517   -2.4388    0.0000 C   0  0  0  0  0  0  0  0  0  0  0  0
   -1.1266   -1.2581    0.0000 C   0  0  0  0  0  0  0  0  0  0  0  0
    0.3699   -1.1555    0.0000 C   0  0  0  0  0  0  0  0  0  0  0  0
    1.2070   -2.4003    0.0000 C   0  0  0  0  0  0  0  0  0  0  0  0
    2.7034   -2.2977    0.0000 C   0  0  0  0  0  0  0  0  0  0  0  0
    3.3629   -0.9504    0.0000 C   0  0  0  0  0  0  0  0  0  0  0  0
    4.8594   -0.8479    0.0000 C   0  0  0  0  0  0  0  0  0  0  0  0
    5.5188    0.4994    0.0000 C   0  0  0  0  0  0  0  0  0  0  0  0
    7.0153    0.6020    0.0000 O   0  0  0  0  0  0  0  0  0  0  0  0
    4.6817    1.7441    0.0000 C   0  0  0  0  0  0  0  0  0  0  0  0
    3.1852    1.6416    0.0000 C   0  0  0  0  0  0  0  0  0  0  0  0
    2.5258    0.2943    0.0000 C   0  0  0  0  0  0  0  0  0  0  0  0
    1.6887    1.5390    0.0000 C   0  0  0  0  0  0  0  0  0  0  0  0
    1.0293    0.1917    0.0000 C   0  0  0  0  0  0  0  0  0  0  0  0
    0.1923    1.4364    0.0000 C   0  0  0  0  0  0  0  0  0  0  0  0
   -1.3042    1.3339    0.0000 C   0  0  0  0  0  0  0  0  0  0  0  0
   -1.9637   -0.0134    0.0000 C   0  0  0  0  0  0  0  0  0  0  0  0
   -2.9262    1.1370    0.0000 C   0  0  0  0  0  0  0  0  0  0  0  0
  1  2  1  0
  2  3  1  0
  3  4  2  0
  5  3  1  6
  5  6  1  0
  6  7  1  0
  8  7  1  6
  8  9  1  0
  9 10  1  1
 10 11  1  0
 12 11  1  1
 12 13  1  0
 13 14  1  0
 14 15  1  6
 14 16  1  0
 16 17  1  0
 17 18  1  0
 18 19  1  6
 18 20  1  0
 20 21  1  6
 21 22  1  0
 22 23  1  0
 23 24  1  6
 23  5  1  0
 23  8  1  0
 20  9  1  0
 18 12  1  0
M  END
>  <MS_ID>  (2933) 
MS3033

>  <SMILES>  (2933) 
CCC(=O)[C@H]1CC[C@H]2[C@@H]3CC[C@@H]4C[C@@H](O)CC[C@]4(C)[C@H]3CC[C@]12C

>  <Structure_dimension>  (2933) 
2D

$$$$
MS3034
     RDKit          2D

 28 31  0  0  0  0  0  0  0  0999 V2000
   -7.4092    0.0130    0.0000 C   0  0  0  0  0  0  0  0  0  0  0  0
   -6.0356    0.6156    0.0000 C   0  0  0  0  0  0  0  0  0  0  0  0
   -5.8706    2.1065    0.0000 O   0  0  0  0  0  0  0  0  0  0  0  0
   -4.8269   -0.2727    0.0000 C   0  0  0  0  0  0  0  0  0  0  0  0
   -4.8351   -1.7727    0.0000 C   0  0  0  0  0  0  0  0  0  0  0  0
   -3.4111   -2.2440    0.0000 C   0  0  0  0  0  0  0  0  0  0  0  0
   -2.5228   -1.0353    0.0000 C   0  0  0  0  0  0  0  0  0  0  0  0
   -1.0302   -0.8867    0.0000 C   0  0  0  0  0  0  0  0  0  0  0  0
   -0.1551   -2.1050    0.0000 C   0  0  0  0  0  0  0  0  0  0  0  0
   -0.7727   -3.4720    0.0000 O   0  0  0  0  0  0  0  0  0  0  0  0
    1.3375   -1.9564    0.0000 C   0  0  0  0  0  0  0  0  0  0  0  0
    1.9551   -0.5894    0.0000 C   0  0  0  0  0  0  0  0  0  0  0  0
    3.4477   -0.4408    0.0000 C   0  0  0  0  0  0  0  0  0  0  0  0
    4.0653    0.9261    0.0000 C   0  0  0  0  0  0  0  0  0  0  0  0
    5.5579    1.0748    0.0000 O   0  0  0  0  0  0  0  0  0  0  0  0
    6.4329   -0.1436    0.0000 S   0  0  0  0  0  0  0  0  0  0  0  0
    5.2146   -1.0186    0.0000 O   0  0  0  0  0  0  0  0  0  0  0  0
    7.6513    0.7315    0.0000 O   0  0  0  0  0  0  0  0  0  0  0  0
    7.3079   -1.3619    0.0000 O   0  0  0  0  0  0  0  0  0  0  0  0
    3.1903    2.1445    0.0000 C   0  0  0  0  0  0  0  0  0  0  0  0
    1.6976    1.9959    0.0000 C   0  0  0  0  0  0  0  0  0  0  0  0
    1.0800    0.6289    0.0000 C   0  0  0  0  0  0  0  0  0  0  0  0
    0.2050    1.8472    0.0000 C   0  0  0  0  0  0  0  0  0  0  0  0
   -0.4126    0.4803    0.0000 C   0  0  0  0  0  0  0  0  0  0  0  0
   -1.2876    1.6986    0.0000 C   0  0  0  0  0  0  0  0  0  0  0  0
   -2.7802    1.5500    0.0000 C   0  0  0  0  0  0  0  0  0  0  0  0
   -3.3978    0.1830    0.0000 C   0  0  0  0  0  0  0  0  0  0  0  0
   -4.3954    1.3032    0.0000 C   0  0  0  0  0  0  0  0  0  0  0  0
  1  2  1  0
  2  3  2  0
  4  2  1  6
  4  5  1  0
  5  6  1  0
  7  6  1  6
  7  8  1  0
  8  9  1  1
  9 10  1  6
  9 11  1  0
 12 11  1  1
 12 13  1  0
 13 14  1  0
 14 15  1  1
 15 16  1  0
 16 17  2  0
 16 18  2  0
 16 19  1  0
 14 20  1  0
 20 21  1  0
 21 22  1  0
 22 23  1  6
 22 24  1  0
 24 25  1  6
 25 26  1  0
 26 27  1  0
 27 28  1  6
 27  4  1  0
 27  7  1  0
 24  8  1  0
 22 12  1  0
M  END
>  <MS_ID>  (2934) 
MS3034

>  <SMILES>  (2934) 
CC(=O)[C@H]1CC[C@H]2[C@@H]3[C@@H](O)C[C@@H]4C[C@H](OS(=O)(=O)O)CC[C@]4(C)[C@H]3CC[C@]12C

>  <Structure_dimension>  (2934) 
2D

$$$$
MS3035
     RDKit          2D

 30 33  0  0  0  0  0  0  0  0999 V2000
   -7.6633    3.6195    0.0000 C   0  0  0  0  0  0  0  0  0  0  0  0
   -7.3042    2.1631    0.0000 C   0  0  0  0  0  0  0  0  0  0  0  0
   -8.3859    1.1240    0.0000 C   0  0  0  0  0  0  0  0  0  0  0  0
   -5.8634    1.7459    0.0000 C   0  0  0  0  0  0  0  0  0  0  0  0
   -5.5043    0.2895    0.0000 C   0  0  0  0  0  0  0  0  0  0  0  0
   -4.0635   -0.1278    0.0000 C   0  0  0  0  0  0  0  0  0  0  0  0
   -3.7045   -1.5841    0.0000 C   0  0  0  0  0  0  0  0  0  0  0  0
   -4.7862   -2.6233    0.0000 C   0  0  0  0  0  0  0  0  0  0  0  0
   -2.2637   -2.0014    0.0000 C   0  0  0  0  0  0  0  0  0  0  0  0
   -1.7544   -3.4123    0.0000 C   0  0  0  0  0  0  0  0  0  0  0  0
   -0.2551   -3.3639    0.0000 C   0  0  0  0  0  0  0  0  0  0  0  0
    0.1621   -1.9231    0.0000 C   0  0  0  0  0  0  0  0  0  0  0  0
    1.5120   -1.2690    0.0000 C   0  0  0  0  0  0  0  0  0  0  0  0
    2.7534   -2.1111    0.0000 C   0  0  0  0  0  0  0  0  0  0  0  0
    4.1033   -1.4571    0.0000 C   0  0  0  0  0  0  0  0  0  0  0  0
    5.3446   -2.2991    0.0000 O   0  0  0  0  0  0  0  0  0  0  0  0
    4.2118    0.0390    0.0000 C   0  0  0  0  0  0  0  0  0  0  0  0
    5.4532   -0.8031    0.0000 O   0  0  0  0  0  0  0  0  0  0  0  0
    5.5618    0.6930    0.0000 C   0  0  0  0  0  0  0  0  0  0  0  0
    5.6703    2.1891    0.0000 C   0  0  0  0  0  0  0  0  0  0  0  0
    7.0202    2.8431    0.0000 O   0  0  0  0  0  0  0  0  0  0  0  0
    4.4290    3.0311    0.0000 C   0  0  0  0  0  0  0  0  0  0  0  0
    3.0791    2.3771    0.0000 C   0  0  0  0  0  0  0  0  0  0  0  0
    2.9705    0.8810    0.0000 C   0  0  0  0  0  0  0  0  0  0  0  0
    1.7292    1.7231    0.0000 C   0  0  0  0  0  0  0  0  0  0  0  0
    1.6206    0.2270    0.0000 C   0  0  0  0  0  0  0  0  0  0  0  0
    0.3792    1.0691    0.0000 C   0  0  0  0  0  0  0  0  0  0  0  0
   -0.9707    0.4151    0.0000 C   0  0  0  0  0  0  0  0  0  0  0  0
   -1.0792   -1.0810    0.0000 C   0  0  0  0  0  0  0  0  0  0  0  0
   -2.4018   -0.3733    0.0000 C   0  0  0  0  0  0  0  0  0  0  0  0
  1  2  1  0
  2  3  1  0
  2  4  2  0
  4  5  1  0
  5  6  1  0
  6  7  1  0
  7  8  1  6
  7  9  1  0
  9 10  1  6
 10 11  1  0
 12 11  1  6
 12 13  1  0
 13 14  1  1
 14 15  1  0
 15 16  1  6
 15 17  1  0
 17 18  1  1
 17 19  1  0
 19 20  1  0
 20 21  1  6
 20 22  1  0
 22 23  1  0
 23 24  1  0
 24 25  1  6
 24 26  1  0
 26 27  1  6
 27 28  1  0
 28 29  1  0
 29 30  1  6
 29  9  1  0
 29 12  1  0
 26 13  1  0
 24 17  1  0
M  END
>  <MS_ID>  (2935) 
MS3035

>  <SMILES>  (2935) 
CC(C)=CCC[C@@H](C)[C@H]1CC[C@H]2[C@@H]3C[C@@H](O)[C@@]4(O)C[C@@H](O)CC[C@]4(C)[C@H]3CC[C@]12C

>  <Structure_dimension>  (2935) 
2D

$$$$
MS3037
     RDKit          2D

 35 39  0  0  0  0  0  0  0  0999 V2000
   -2.5210   -3.9198    0.0000 C   0  0  0  0  0  0  0  0  0  0  0  0
   -1.6831   -2.6756    0.0000 C   0  0  0  0  0  0  0  0  0  0  0  0
   -2.3416   -1.3279    0.0000 C   0  0  0  0  0  0  0  0  0  0  0  0
   -3.8380   -1.2243    0.0000 C   0  0  0  0  0  0  0  0  0  0  0  0
   -4.4965    0.1234    0.0000 C   0  0  0  0  0  0  0  0  0  0  0  0
   -3.6586    1.3675    0.0000 O   0  0  0  0  0  0  0  0  0  0  0  0
   -5.9929    0.2270    0.0000 N   0  0  0  0  0  0  0  0  0  0  0  0
   -6.9563   -0.9228    0.0000 C   0  0  0  0  0  0  0  0  0  0  0  0
   -8.3475   -0.3618    0.0000 C   0  0  0  0  0  0  0  0  0  0  0  0
   -8.2439    1.1346    0.0000 C   0  0  0  0  0  0  0  0  0  0  0  0
   -6.7887    1.4985    0.0000 C   0  0  0  0  0  0  0  0  0  0  0  0
   -6.2277    2.8897    0.0000 C   0  0  0  0  0  0  0  0  0  0  0  0
   -4.7425    3.0995    0.0000 O   0  0  0  0  0  0  0  0  0  0  0  0
   -7.1521    4.0710    0.0000 O   0  0  0  0  0  0  0  0  0  0  0  0
   -0.1866   -2.7792    0.0000 C   0  0  0  0  0  0  0  0  0  0  0  0
    0.6091   -4.0507    0.0000 C   0  0  0  0  0  0  0  0  0  0  0  0
    2.0643   -3.6868    0.0000 C   0  0  0  0  0  0  0  0  0  0  0  0
    2.1679   -2.1904    0.0000 C   0  0  0  0  0  0  0  0  0  0  0  0
    3.3493   -1.2661    0.0000 C   0  0  0  0  0  0  0  0  0  0  0  0
    4.7404   -1.8270    0.0000 C   0  0  0  0  0  0  0  0  0  0  0  0
    4.9502   -3.3123    0.0000 O   0  0  0  0  0  0  0  0  0  0  0  0
    5.9218   -0.9027    0.0000 C   0  0  0  0  0  0  0  0  0  0  0  0
    5.7120    0.5826    0.0000 C   0  0  0  0  0  0  0  0  0  0  0  0
    6.8934    1.5069    0.0000 C   0  0  0  0  0  0  0  0  0  0  0  0
    6.6836    2.9921    0.0000 C   0  0  0  0  0  0  0  0  0  0  0  0
    7.8649    3.9165    0.0000 O   0  0  0  0  0  0  0  0  0  0  0  0
    5.2924    3.5531    0.0000 C   0  0  0  0  0  0  0  0  0  0  0  0
    4.1110    2.6287    0.0000 C   0  0  0  0  0  0  0  0  0  0  0  0
    4.3208    1.1435    0.0000 C   0  0  0  0  0  0  0  0  0  0  0  0
    2.9297    1.7044    0.0000 C   0  0  0  0  0  0  0  0  0  0  0  0
    3.1395    0.2192    0.0000 C   0  0  0  0  0  0  0  0  0  0  0  0
    1.7483    0.7801    0.0000 C   0  0  0  0  0  0  0  0  0  0  0  0
    0.5669   -0.1442    0.0000 C   0  0  0  0  0  0  0  0  0  0  0  0
    0.7767   -1.6295    0.0000 C   0  0  0  0  0  0  0  0  0  0  0  0
   -0.6655   -1.2170    0.0000 C   0  0  0  0  0  0  0  0  0  0  0  0
  2  1  1  6
  2  3  1  0
  3  4  1  0
  4  5  1  0
  5  6  2  0
  5  7  1  0
  7  8  1  0
  8  9  1  0
  9 10  1  0
 10 11  1  0
 11 12  1  1
 12 13  2  0
 12 14  1  0
  2 15  1  0
 15 16  1  6
 16 17  1  0
 18 17  1  6
 18 19  1  0
 19 20  1  1
 20 21  1  6
 20 22  1  0
 23 22  1  1
 23 24  1  0
 24 25  1  0
 25 26  1  1
 25 27  1  0
 27 28  1  0
 28 29  1  0
 29 30  1  6
 29 31  1  0
 31 32  1  6
 32 33  1  0
 33 34  1  0
 34 35  1  6
 11  7  1  0
 34 15  1  0
 34 18  1  0
 31 19  1  0
 29 23  1  0
M  END
>  <MS_ID>  (2936) 
MS3037

>  <SMILES>  (2936) 
C[C@H](CCC(=O)N1CCC[C@H]1C(=O)O)[C@H]1CC[C@H]2[C@@H]3[C@@H](O)C[C@@H]4C[C@H](O)CC[C@]4(C)[C@H]3CC[C@]12C

>  <Structure_dimension>  (2936) 
2D

$$$$
MS3038
     RDKit          2D

 39 42  0  0  0  0  0  0  0  0999 V2000
   -5.1305   -3.2769    0.0000 C   0  0  0  0  0  0  0  0  0  0  0  0
   -4.1886   -2.1095    0.0000 C   0  0  0  0  0  0  0  0  0  0  0  0
   -4.7286   -0.7101    0.0000 C   0  0  0  0  0  0  0  0  0  0  0  0
   -6.2105   -0.4780    0.0000 C   0  0  0  0  0  0  0  0  0  0  0  0
   -6.7506    0.9214    0.0000 C   0  0  0  0  0  0  0  0  0  0  0  0
   -8.2325    1.1534    0.0000 O   0  0  0  0  0  0  0  0  0  0  0  0
   -8.7725    2.5528    0.0000 S   0  0  0  0  0  0  0  0  0  0  0  0
   -7.3731    3.0929    0.0000 O   0  0  0  0  0  0  0  0  0  0  0  0
  -10.1720    2.0128    0.0000 O   0  0  0  0  0  0  0  0  0  0  0  0
   -9.3126    3.9523    0.0000 O   0  0  0  0  0  0  0  0  0  0  0  0
   -2.7066   -2.3415    0.0000 C   0  0  0  0  0  0  0  0  0  0  0  0
   -2.0233   -3.6768    0.0000 C   0  0  0  0  0  0  0  0  0  0  0  0
   -0.5422   -3.4395    0.0000 C   0  0  0  0  0  0  0  0  0  0  0  0
   -0.3101   -1.9576    0.0000 C   0  0  0  0  0  0  0  0  0  0  0  0
    0.9464   -1.1384    0.0000 C   0  0  0  0  0  0  0  0  0  0  0  0
    2.2841   -1.8170    0.0000 C   0  0  0  0  0  0  0  0  0  0  0  0
    2.3653   -3.3148    0.0000 O   0  0  0  0  0  0  0  0  0  0  0  0
    3.7030   -3.9934    0.0000 S   0  0  0  0  0  0  0  0  0  0  0  0
    4.3816   -2.6557    0.0000 O   0  0  0  0  0  0  0  0  0  0  0  0
    3.0244   -5.3312    0.0000 O   0  0  0  0  0  0  0  0  0  0  0  0
    5.0407   -4.6721    0.0000 O   0  0  0  0  0  0  0  0  0  0  0  0
    3.5407   -0.9978    0.0000 C   0  0  0  0  0  0  0  0  0  0  0  0
    3.4595    0.5000    0.0000 C   0  0  0  0  0  0  0  0  0  0  0  0
    4.7161    1.3191    0.0000 C   0  0  0  0  0  0  0  0  0  0  0  0
    4.6350    2.8169    0.0000 C   0  0  0  0  0  0  0  0  0  0  0  0
    5.8915    3.6361    0.0000 O   0  0  0  0  0  0  0  0  0  0  0  0
    7.2292    2.9575    0.0000 S   0  0  0  0  0  0  0  0  0  0  0  0
    6.5506    1.6198    0.0000 O   0  0  0  0  0  0  0  0  0  0  0  0
    7.9078    4.2952    0.0000 O   0  0  0  0  0  0  0  0  0  0  0  0
    8.5669    2.2789    0.0000 O   0  0  0  0  0  0  0  0  0  0  0  0
    3.2972    3.4956    0.0000 C   0  0  0  0  0  0  0  0  0  0  0  0
    2.0407    2.6764    0.0000 C   0  0  0  0  0  0  0  0  0  0  0  0
    2.1218    1.1786    0.0000 C   0  0  0  0  0  0  0  0  0  0  0  0
    0.7841    1.8572    0.0000 C   0  0  0  0  0  0  0  0  0  0  0  0
    0.8653    0.3594    0.0000 C   0  0  0  0  0  0  0  0  0  0  0  0
   -0.4724    1.0380    0.0000 C   0  0  0  0  0  0  0  0  0  0  0  0
   -1.7290    0.2188    0.0000 C   0  0  0  0  0  0  0  0  0  0  0  0
   -1.6478   -1.2790    0.0000 C   0  0  0  0  0  0  0  0  0  0  0  0
   -3.0492   -0.7439    0.0000 C   0  0  0  0  0  0  0  0  0  0  0  0
  2  1  1  6
  2  3  1  0
  3  4  1  0
  4  5  1  0
  5  6  1  0
  6  7  1  0
  7  8  2  0
  7  9  2  0
  7 10  1  0
  2 11  1  0
 11 12  1  6
 12 13  1  0
 14 13  1  6
 14 15  1  0
 15 16  1  1
 16 17  1  1
 17 18  1  0
 18 19  2  0
 18 20  2  0
 18 21  1  0
 16 22  1  0
 23 22  1  1
 23 24  1  0
 24 25  1  0
 25 26  1  1
 26 27  1  0
 27 28  2  0
 27 29  2  0
 27 30  1  0
 25 31  1  0
 31 32  1  0
 32 33  1  0
 33 34  1  6
 33 35  1  0
 35 36  1  6
 36 37  1  0
 37 38  1  0
 38 39  1  6
 38 11  1  0
 38 14  1  0
 35 15  1  0
 33 23  1  0
M  END
>  <MS_ID>  (2937) 
MS3038

>  <SMILES>  (2937) 
C[C@H](CCCOS(=O)(=O)O)[C@H]1CC[C@H]2[C@@H]3[C@H](OS(=O)(=O)O)C[C@@H]4C[C@H](OS(=O)(=O)O)CC[C@]4(C)[C@H]3CC[C@]12C

>  <Structure_dimension>  (2937) 
2D

$$$$
MS3039
     RDKit          2D

 25 28  0  0  0  0  0  0  0  0999 V2000
   -6.9864    1.1099    0.0000 C   0  0  0  0  0  0  0  0  0  0  0  0
   -5.4866    1.1344    0.0000 C   0  0  0  0  0  0  0  0  0  0  0  0
   -4.7155   -0.1522    0.0000 C   0  0  0  0  0  0  0  0  0  0  0  0
   -5.4443   -1.4633    0.0000 O   0  0  0  0  0  0  0  0  0  0  0  0
   -3.2157   -0.1278    0.0000 C   0  0  0  0  0  0  0  0  0  0  0  0
   -3.5770    1.3281    0.0000 O   0  0  0  0  0  0  0  0  0  0  0  0
   -3.3482   -1.6219    0.0000 C   0  0  0  0  0  0  0  0  0  0  0  0
   -1.9681   -2.2096    0.0000 C   0  0  0  0  0  0  0  0  0  0  0  0
   -0.9827   -1.0787    0.0000 C   0  0  0  0  0  0  0  0  0  0  0  0
    0.5171   -1.0542    0.0000 C   0  0  0  0  0  0  0  0  0  0  0  0
    1.2882   -2.3409    0.0000 C   0  0  0  0  0  0  0  0  0  0  0  0
    2.7880   -2.3164    0.0000 C   0  0  0  0  0  0  0  0  0  0  0  0
    3.5167   -1.0053    0.0000 C   0  0  0  0  0  0  0  0  0  0  0  0
    5.0165   -0.9809    0.0000 C   0  0  0  0  0  0  0  0  0  0  0  0
    5.7452    0.3302    0.0000 C   0  0  0  0  0  0  0  0  0  0  0  0
    7.2450    0.3547    0.0000 O   0  0  0  0  0  0  0  0  0  0  0  0
    4.9741    1.6169    0.0000 C   0  0  0  0  0  0  0  0  0  0  0  0
    3.4743    1.5924    0.0000 C   0  0  0  0  0  0  0  0  0  0  0  0
    2.7456    0.2813    0.0000 C   0  0  0  0  0  0  0  0  0  0  0  0
    1.9745    1.5680    0.0000 C   0  0  0  0  0  0  0  0  0  0  0  0
    1.2458    0.2569    0.0000 C   0  0  0  0  0  0  0  0  0  0  0  0
    0.4747    1.5435    0.0000 C   0  0  0  0  0  0  0  0  0  0  0  0
   -1.0251    1.5191    0.0000 C   0  0  0  0  0  0  0  0  0  0  0  0
   -1.7538    0.2080    0.0000 C   0  0  0  0  0  0  0  0  0  0  0  0
   -2.5023    1.5079    0.0000 C   0  0  0  0  0  0  0  0  0  0  0  0
  1  2  1  0
  2  3  1  0
  3  4  2  0
  3  5  1  0
  5  6  1  1
  5  7  1  0
  7  8  1  0
  9  8  1  6
  9 10  1  0
 10 11  1  1
 11 12  1  0
 13 12  1  1
 13 14  1  0
 14 15  1  0
 15 16  1  1
 15 17  1  0
 17 18  1  0
 18 19  1  0
 19 20  1  6
 19 21  1  0
 21 22  1  6
 22 23  1  0
 23 24  1  0
 24 25  1  6
 24  5  1  0
 24  9  1  0
 21 10  1  0
 19 13  1  0
M  END
>  <MS_ID>  (2938) 
MS3039

>  <SMILES>  (2938) 
CCC(=O)[C@@]1(O)CC[C@H]2[C@@H]3CC[C@@H]4C[C@H](O)CC[C@]4(C)[C@H]3CC[C@@]21C

>  <Structure_dimension>  (2938) 
2D

$$$$
MS3040
     RDKit          2D

 23 26  0  0  0  0  0  0  0  0999 V2000
   -6.2880    0.1477    0.0000 C   0  0  0  0  0  0  0  0  0  0  0  0
   -4.8818    0.6700    0.0000 C   0  0  0  0  0  0  0  0  0  0  0  0
   -4.6310    2.1488    0.0000 O   0  0  0  0  0  0  0  0  0  0  0  0
   -3.7265   -0.2867    0.0000 C   0  0  0  0  0  0  0  0  0  0  0  0
   -3.8214   -1.7837    0.0000 C   0  0  0  0  0  0  0  0  0  0  0  0
   -2.4270   -2.3365    0.0000 C   0  0  0  0  0  0  0  0  0  0  0  0
   -1.4703   -1.1812    0.0000 C   0  0  0  0  0  0  0  0  0  0  0  0
    0.0284   -1.1191    0.0000 C   0  0  0  0  0  0  0  0  0  0  0  0
    0.8316   -2.3860    0.0000 C   0  0  0  0  0  0  0  0  0  0  0  0
    2.3303   -2.3238    0.0000 C   0  0  0  0  0  0  0  0  0  0  0  0
    3.0258   -0.9949    0.0000 C   0  0  0  0  0  0  0  0  0  0  0  0
    4.5246   -0.9327    0.0000 C   0  0  0  0  0  0  0  0  0  0  0  0
    5.2201    0.3962    0.0000 C   0  0  0  0  0  0  0  0  0  0  0  0
    6.7188    0.4584    0.0000 O   0  0  0  0  0  0  0  0  0  0  0  0
    4.4170    1.6631    0.0000 C   0  0  0  0  0  0  0  0  0  0  0  0
    2.9183    1.6010    0.0000 C   0  0  0  0  0  0  0  0  0  0  0  0
    2.2227    0.2720    0.0000 C   0  0  0  0  0  0  0  0  0  0  0  0
    1.4195    1.5389    0.0000 C   0  0  0  0  0  0  0  0  0  0  0  0
    0.7240    0.2099    0.0000 C   0  0  0  0  0  0  0  0  0  0  0  0
   -0.0792    1.4768    0.0000 C   0  0  0  0  0  0  0  0  0  0  0  0
   -1.5779    1.4146    0.0000 C   0  0  0  0  0  0  0  0  0  0  0  0
   -2.2734    0.0856    0.0000 C   0  0  0  0  0  0  0  0  0  0  0  0
   -3.2046    1.2616    0.0000 C   0  0  0  0  0  0  0  0  0  0  0  0
  2  1  1  1
  2  3  1  0
  2  4  1  0
  4  5  1  6
  5  6  1  0
  7  6  1  6
  7  8  1  0
  8  9  1  1
  9 10  1  0
 11 10  1  6
 11 12  1  0
 12 13  1  0
 13 14  1  1
 13 15  1  0
 15 16  1  0
 16 17  1  0
 17 18  1  6
 17 19  1  0
 19 20  1  6
 20 21  1  0
 21 22  1  0
 22 23  1  6
 22  4  1  0
 22  7  1  0
 19  8  1  0
 17 11  1  0
M  END
>  <MS_ID>  (2939) 
MS3040

>  <SMILES>  (2939) 
C[C@@H](O)[C@H]1CC[C@H]2[C@@H]3CC[C@H]4C[C@H](O)CC[C@]4(C)[C@H]3CC[C@]12C

>  <Structure_dimension>  (2939) 
2D

$$$$
MS3041
     RDKit          2D

 36 39  0  0  0  0  0  0  0  0999 V2000
   -1.1675   -4.5772    0.0000 C   0  0  0  0  0  0  0  0  0  0  0  0
   -0.4862   -3.2409    0.0000 C   0  0  0  0  0  0  0  0  0  0  0  0
   -1.3029   -1.9827    0.0000 C   0  0  0  0  0  0  0  0  0  0  0  0
   -2.8008   -2.0609    0.0000 C   0  0  0  0  0  0  0  0  0  0  0  0
   -3.6175   -0.8027    0.0000 C   0  0  0  0  0  0  0  0  0  0  0  0
   -2.9362    0.5337    0.0000 O   0  0  0  0  0  0  0  0  0  0  0  0
   -5.1155   -0.8808    0.0000 N   0  0  0  0  0  0  0  0  0  0  0  0
   -5.9321    0.3774    0.0000 C   0  0  0  0  0  0  0  0  0  0  0  0
   -7.4301    0.2992    0.0000 C   0  0  0  0  0  0  0  0  0  0  0  0
   -8.2468    1.5574    0.0000 C   0  0  0  0  0  0  0  0  0  0  0  0
   -9.7447    1.4793    0.0000 C   0  0  0  0  0  0  0  0  0  0  0  0
  -10.5614    2.7374    0.0000 N   0  0  0  0  0  0  0  0  0  0  0  0
  -10.4260    0.1429    0.0000 O   0  0  0  0  0  0  0  0  0  0  0  0
   -5.2508    1.7137    0.0000 C   0  0  0  0  0  0  0  0  0  0  0  0
   -3.7529    1.7919    0.0000 O   0  0  0  0  0  0  0  0  0  0  0  0
   -6.0675    2.9719    0.0000 O   0  0  0  0  0  0  0  0  0  0  0  0
    1.0117   -3.1627    0.0000 C   0  0  0  0  0  0  0  0  0  0  0  0
    1.9555   -4.3287    0.0000 C   0  0  0  0  0  0  0  0  0  0  0  0
    3.3560   -3.7914    0.0000 C   0  0  0  0  0  0  0  0  0  0  0  0
    3.2778   -2.2935    0.0000 C   0  0  0  0  0  0  0  0  0  0  0  0
    4.3387   -1.2331    0.0000 C   0  0  0  0  0  0  0  0  0  0  0  0
    5.7875   -1.6216    0.0000 C   0  0  0  0  0  0  0  0  0  0  0  0
    6.8484   -0.5612    0.0000 C   0  0  0  0  0  0  0  0  0  0  0  0
    6.4605    0.8878    0.0000 C   0  0  0  0  0  0  0  0  0  0  0  0
    7.5214    1.9482    0.0000 C   0  0  0  0  0  0  0  0  0  0  0  0
    7.1335    3.3972    0.0000 C   0  0  0  0  0  0  0  0  0  0  0  0
    8.1944    4.4576    0.0000 O   0  0  0  0  0  0  0  0  0  0  0  0
    5.6847    3.7857    0.0000 C   0  0  0  0  0  0  0  0  0  0  0  0
    4.6238    2.7253    0.0000 C   0  0  0  0  0  0  0  0  0  0  0  0
    5.0117    1.2763    0.0000 C   0  0  0  0  0  0  0  0  0  0  0  0
    3.5629    1.6649    0.0000 C   0  0  0  0  0  0  0  0  0  0  0  0
    3.9508    0.2159    0.0000 C   0  0  0  0  0  0  0  0  0  0  0  0
    2.5020    0.6045    0.0000 C   0  0  0  0  0  0  0  0  0  0  0  0
    1.4411   -0.4559    0.0000 C   0  0  0  0  0  0  0  0  0  0  0  0
    1.8290   -1.9049    0.0000 C   0  0  0  0  0  0  0  0  0  0  0  0
    0.3475   -1.6699    0.0000 C   0  0  0  0  0  0  0  0  0  0  0  0
  2  1  1  6
  2  3  1  0
  3  4  1  0
  4  5  1  0
  5  6  2  0
  5  7  1  0
  7  8  1  0
  8  9  1  1
  9 10  1  0
 10 11  1  0
 11 12  1  0
 11 13  2  0
  8 14  1  0
 14 15  2  0
 14 16  1  0
  2 17  1  0
 17 18  1  6
 18 19  1  0
 20 19  1  6
 20 21  1  0
 21 22  1  1
 22 23  1  0
 24 23  1  1
 24 25  1  0
 25 26  1  0
 26 27  1  1
 26 28  1  0
 28 29  1  0
 29 30  1  0
 30 31  1  6
 30 32  1  0
 32 33  1  6
 33 34  1  0
 34 35  1  0
 35 36  1  6
 35 17  1  0
 35 20  1  0
 32 21  1  0
 30 24  1  0
M  END
>  <MS_ID>  (2940) 
MS3041

>  <SMILES>  (2940) 
C[C@H](CCC(=O)N[C@@H](CCC(N)=O)C(=O)O)[C@H]1CC[C@H]2[C@@H]3CC[C@@H]4C[C@H](O)CC[C@]4(C)[C@H]3CC[C@]12C

>  <Structure_dimension>  (2940) 
2D

$$$$
MS3042
     RDKit          2D

 37 40  0  0  0  0  0  0  0  0999 V2000
   -1.0493   -4.6236    0.0000 C   0  0  0  0  0  0  0  0  0  0  0  0
   -0.4390   -3.2534    0.0000 C   0  0  0  0  0  0  0  0  0  0  0  0
   -1.3205   -2.0398    0.0000 C   0  0  0  0  0  0  0  0  0  0  0  0
   -2.8123   -2.1964    0.0000 C   0  0  0  0  0  0  0  0  0  0  0  0
   -3.6938   -0.9827    0.0000 C   0  0  0  0  0  0  0  0  0  0  0  0
   -3.0835    0.3875    0.0000 O   0  0  0  0  0  0  0  0  0  0  0  0
   -5.1856   -1.1393    0.0000 N   0  0  0  0  0  0  0  0  0  0  0  0
   -6.0671    0.0743    0.0000 C   0  0  0  0  0  0  0  0  0  0  0  0
   -7.5589   -0.0823    0.0000 C   0  0  0  0  0  0  0  0  0  0  0  0
   -8.4405    1.1313    0.0000 C   0  0  0  0  0  0  0  0  0  0  0  0
   -9.9323    0.9747    0.0000 C   0  0  0  0  0  0  0  0  0  0  0  0
  -10.8138    2.1884    0.0000 C   0  0  0  0  0  0  0  0  0  0  0  0
  -12.3056    2.0318    0.0000 N   0  0  0  0  0  0  0  0  0  0  0  0
   -5.4569    1.4445    0.0000 C   0  0  0  0  0  0  0  0  0  0  0  0
   -3.9651    1.6011    0.0000 O   0  0  0  0  0  0  0  0  0  0  0  0
   -6.3384    2.6582    0.0000 O   0  0  0  0  0  0  0  0  0  0  0  0
    1.0528   -3.0968    0.0000 C   0  0  0  0  0  0  0  0  0  0  0  0
    2.0564   -4.2117    0.0000 C   0  0  0  0  0  0  0  0  0  0  0  0
    3.4268   -3.6017    0.0000 C   0  0  0  0  0  0  0  0  0  0  0  0
    3.2702   -2.1099    0.0000 C   0  0  0  0  0  0  0  0  0  0  0  0
    4.2740   -0.9953    0.0000 C   0  0  0  0  0  0  0  0  0  0  0  0
    5.7412   -1.3074    0.0000 C   0  0  0  0  0  0  0  0  0  0  0  0
    6.2045   -2.7340    0.0000 O   0  0  0  0  0  0  0  0  0  0  0  0
    6.7450   -0.1928    0.0000 C   0  0  0  0  0  0  0  0  0  0  0  0
    6.2817    1.2338    0.0000 C   0  0  0  0  0  0  0  0  0  0  0  0
    7.2855    2.3484    0.0000 C   0  0  0  0  0  0  0  0  0  0  0  0
    6.8222    3.7751    0.0000 C   0  0  0  0  0  0  0  0  0  0  0  0
    7.8260    4.8897    0.0000 O   0  0  0  0  0  0  0  0  0  0  0  0
    5.3550    4.0871    0.0000 C   0  0  0  0  0  0  0  0  0  0  0  0
    4.3512    2.9725    0.0000 C   0  0  0  0  0  0  0  0  0  0  0  0
    4.8145    1.5459    0.0000 C   0  0  0  0  0  0  0  0  0  0  0  0
    3.3473    1.8580    0.0000 C   0  0  0  0  0  0  0  0  0  0  0  0
    3.8107    0.4313    0.0000 C   0  0  0  0  0  0  0  0  0  0  0  0
    2.3435    0.7434    0.0000 C   0  0  0  0  0  0  0  0  0  0  0  0
    1.3397   -0.3712    0.0000 C   0  0  0  0  0  0  0  0  0  0  0  0
    1.8030   -1.7979    0.0000 C   0  0  0  0  0  0  0  0  0  0  0  0
    0.3112   -1.6409    0.0000 C   0  0  0  0  0  0  0  0  0  0  0  0
  2  1  1  6
  2  3  1  0
  3  4  1  0
  4  5  1  0
  5  6  2  0
  5  7  1  0
  7  8  1  0
  8  9  1  1
  9 10  1  0
 10 11  1  0
 11 12  1  0
 12 13  1  0
  8 14  1  0
 14 15  2  0
 14 16  1  0
  2 17  1  0
 17 18  1  6
 18 19  1  0
 20 19  1  6
 20 21  1  0
 21 22  1  1
 22 23  1  6
 22 24  1  0
 25 24  1  1
 25 26  1  0
 26 27  1  0
 27 28  1  1
 27 29  1  0
 29 30  1  0
 30 31  1  0
 31 32  1  6
 31 33  1  0
 33 34  1  6
 34 35  1  0
 35 36  1  0
 36 37  1  6
 36 17  1  0
 36 20  1  0
 33 21  1  0
 31 25  1  0
M  END
>  <MS_ID>  (2941) 
MS3042

>  <SMILES>  (2941) 
C[C@H](CCC(=O)N[C@@H](CCCCN)C(=O)O)[C@H]1CC[C@H]2[C@@H]3[C@@H](O)C[C@@H]4C[C@H](O)CC[C@]4(C)[C@H]3CC[C@]12C

>  <Structure_dimension>  (2941) 
2D

$$$$
MS3043
     RDKit          2D

 23 26  0  0  0  0  0  0  0  0999 V2000
   -5.3951    1.8003    0.0000 C   0  0  0  0  0  0  0  0  0  0  0  0
   -4.0051    1.2365    0.0000 O   0  0  0  0  0  0  0  0  0  0  0  0
   -3.7983   -0.2491    0.0000 C   0  0  0  0  0  0  0  0  0  0  0  0
   -5.2974   -0.2995    0.0000 O   0  0  0  0  0  0  0  0  0  0  0  0
   -3.9049   -1.7453    0.0000 C   0  0  0  0  0  0  0  0  0  0  0  0
   -2.5149   -2.3091    0.0000 C   0  0  0  0  0  0  0  0  0  0  0  0
   -1.5492   -1.1614    0.0000 C   0  0  0  0  0  0  0  0  0  0  0  0
   -0.0500   -1.1110    0.0000 C   0  0  0  0  0  0  0  0  0  0  0  0
    0.7431   -2.3842    0.0000 C   0  0  0  0  0  0  0  0  0  0  0  0
    2.2423   -2.3338    0.0000 C   0  0  0  0  0  0  0  0  0  0  0  0
    2.9483   -1.0103    0.0000 C   0  0  0  0  0  0  0  0  0  0  0  0
    4.4474   -0.9600    0.0000 C   0  0  0  0  0  0  0  0  0  0  0  0
    5.1534    0.3635    0.0000 C   0  0  0  0  0  0  0  0  0  0  0  0
    6.6526    0.4138    0.0000 O   0  0  0  0  0  0  0  0  0  0  0  0
    4.3602    1.6366    0.0000 C   0  0  0  0  0  0  0  0  0  0  0  0
    2.8611    1.5863    0.0000 C   0  0  0  0  0  0  0  0  0  0  0  0
    2.1551    0.2628    0.0000 C   0  0  0  0  0  0  0  0  0  0  0  0
    1.3619    1.5359    0.0000 C   0  0  0  0  0  0  0  0  0  0  0  0
    0.6559    0.2125    0.0000 C   0  0  0  0  0  0  0  0  0  0  0  0
   -0.1372    1.4856    0.0000 C   0  0  0  0  0  0  0  0  0  0  0  0
   -1.6364    1.4353    0.0000 C   0  0  0  0  0  0  0  0  0  0  0  0
   -2.3424    0.1118    0.0000 C   0  0  0  0  0  0  0  0  0  0  0  0
   -2.9506    1.4830    0.0000 C   0  0  0  0  0  0  0  0  0  0  0  0
  1  2  1  0
  2  3  1  0
  3  4  1  1
  3  5  1  0
  5  6  1  0
  7  6  1  6
  7  8  1  0
  8  9  1  1
  9 10  1  0
 11 10  1  1
 11 12  1  0
 12 13  1  0
 13 14  1  1
 13 15  1  0
 15 16  1  0
 16 17  1  0
 17 18  1  6
 17 19  1  0
 19 20  1  6
 20 21  1  0
 21 22  1  0
 22 23  1  6
 22  3  1  0
 22  7  1  0
 19  8  1  0
 17 11  1  0
M  END
>  <MS_ID>  (2942) 
MS3043

>  <SMILES>  (2942) 
CO[C@@]1(O)CC[C@H]2[C@@H]3CC[C@@H]4C[C@H](O)CC[C@]4(C)[C@H]3CC[C@@]21C

>  <Structure_dimension>  (2942) 
2D

$$$$
MS3044
     RDKit          2D

 37 40  0  0  0  0  0  0  0  0999 V2000
   -1.1168   -4.5462    0.0000 C   0  0  0  0  0  0  0  0  0  0  0  0
   -0.5124   -3.1733    0.0000 C   0  0  0  0  0  0  0  0  0  0  0  0
   -1.3992   -1.9635    0.0000 C   0  0  0  0  0  0  0  0  0  0  0  0
   -2.8903   -2.1266    0.0000 C   0  0  0  0  0  0  0  0  0  0  0  0
   -3.7771   -0.9168    0.0000 C   0  0  0  0  0  0  0  0  0  0  0  0
   -3.1727    0.4561    0.0000 O   0  0  0  0  0  0  0  0  0  0  0  0
   -5.2682   -1.0799    0.0000 N   0  0  0  0  0  0  0  0  0  0  0  0
   -6.1550    0.1300    0.0000 C   0  0  0  0  0  0  0  0  0  0  0  0
   -7.6461   -0.0331    0.0000 C   0  0  0  0  0  0  0  0  0  0  0  0
   -8.5328    1.1767    0.0000 C   0  0  0  0  0  0  0  0  0  0  0  0
  -10.0240    1.0136    0.0000 C   0  0  0  0  0  0  0  0  0  0  0  0
  -10.6283   -0.3592    0.0000 N   0  0  0  0  0  0  0  0  0  0  0  0
  -10.9107    2.2234    0.0000 C   0  0  0  0  0  0  0  0  0  0  0  0
  -10.3064    3.5963    0.0000 O   0  0  0  0  0  0  0  0  0  0  0  0
  -12.4018    2.0604    0.0000 O   0  0  0  0  0  0  0  0  0  0  0  0
    0.9787   -3.0103    0.0000 C   0  0  0  0  0  0  0  0  0  0  0  0
    1.9871   -4.1208    0.0000 C   0  0  0  0  0  0  0  0  0  0  0  0
    3.3548   -3.5049    0.0000 C   0  0  0  0  0  0  0  0  0  0  0  0
    3.1917   -2.0138    0.0000 C   0  0  0  0  0  0  0  0  0  0  0  0
    4.1907   -0.8949    0.0000 C   0  0  0  0  0  0  0  0  0  0  0  0
    5.6593   -1.2006    0.0000 C   0  0  0  0  0  0  0  0  0  0  0  0
    6.1288   -2.6252    0.0000 O   0  0  0  0  0  0  0  0  0  0  0  0
    6.6583   -0.0816    0.0000 C   0  0  0  0  0  0  0  0  0  0  0  0
    8.1268   -0.3873    0.0000 O   0  0  0  0  0  0  0  0  0  0  0  0
    6.1887    1.3430    0.0000 C   0  0  0  0  0  0  0  0  0  0  0  0
    7.1877    2.4619    0.0000 C   0  0  0  0  0  0  0  0  0  0  0  0
    6.7182    3.8865    0.0000 C   0  0  0  0  0  0  0  0  0  0  0  0
    7.7172    5.0055    0.0000 O   0  0  0  0  0  0  0  0  0  0  0  0
    5.2497    4.1922    0.0000 C   0  0  0  0  0  0  0  0  0  0  0  0
    4.2507    3.0733    0.0000 C   0  0  0  0  0  0  0  0  0  0  0  0
    4.7202    1.6487    0.0000 C   0  0  0  0  0  0  0  0  0  0  0  0
    3.2517    1.9544    0.0000 C   0  0  0  0  0  0  0  0  0  0  0  0
    3.7212    0.5298    0.0000 C   0  0  0  0  0  0  0  0  0  0  0  0
    2.2527    0.8355    0.0000 C   0  0  0  0  0  0  0  0  0  0  0  0
    1.2537   -0.2835    0.0000 C   0  0  0  0  0  0  0  0  0  0  0  0
    1.7232   -1.7081    0.0000 C   0  0  0  0  0  0  0  0  0  0  0  0
    0.2308   -1.5576    0.0000 C   0  0  0  0  0  0  0  0  0  0  0  0
  2  1  1  6
  2  3  1  0
  3  4  1  0
  4  5  1  0
  5  6  2  0
  5  7  1  0
  7  8  1  0
  8  9  1  0
  9 10  1  0
 10 11  1  0
 11 12  1  6
 11 13  1  0
 13 14  2  0
 13 15  1  0
  2 16  1  0
 16 17  1  6
 17 18  1  0
 19 18  1  6
 19 20  1  0
 20 21  1  1
 21 22  1  1
 21 23  1  0
 23 24  1  6
 23 25  1  0
 25 26  1  1
 26 27  1  0
 27 28  1  1
 27 29  1  0
 29 30  1  0
 30 31  1  0
 31 32  1  6
 31 33  1  0
 33 34  1  6
 34 35  1  0
 35 36  1  0
 36 37  1  6
 36 16  1  0
 36 19  1  0
 33 20  1  0
 31 25  1  0
M  END
>  <MS_ID>  (2943) 
MS3044

>  <SMILES>  (2943) 
C[C@H](CCC(=O)NCCC[C@H](N)C(=O)O)[C@H]1CC[C@H]2[C@@H]3[C@H](O)[C@@H](O)[C@@H]4C[C@H](O)CC[C@]4(C)[C@H]3CC[C@]12C

>  <Structure_dimension>  (2943) 
2D

$$$$
MS3045
     RDKit          2D

 30 33  0  0  0  0  0  0  0  0999 V2000
   -3.9284   -3.3141    0.0000 C   0  0  0  0  0  0  0  0  0  0  0  0
   -2.9683   -2.1616    0.0000 C   0  0  0  0  0  0  0  0  0  0  0  0
   -3.4864   -0.7539    0.0000 C   0  0  0  0  0  0  0  0  0  0  0  0
   -4.9646   -0.4987    0.0000 C   0  0  0  0  0  0  0  0  0  0  0  0
   -5.4826    0.9090    0.0000 C   0  0  0  0  0  0  0  0  0  0  0  0
   -6.9608    1.1642    0.0000 C   0  0  0  0  0  0  0  0  0  0  0  0
   -7.4788    2.5719    0.0000 C   0  0  0  0  0  0  0  0  0  0  0  0
   -6.5188    3.7244    0.0000 O   0  0  0  0  0  0  0  0  0  0  0  0
   -8.9570    2.8270    0.0000 O   0  0  0  0  0  0  0  0  0  0  0  0
   -1.4902   -2.4168    0.0000 C   0  0  0  0  0  0  0  0  0  0  0  0
   -0.8278   -3.7626    0.0000 C   0  0  0  0  0  0  0  0  0  0  0  0
    0.6568   -3.5485    0.0000 C   0  0  0  0  0  0  0  0  0  0  0  0
    0.9120   -2.0704    0.0000 C   0  0  0  0  0  0  0  0  0  0  0  0
    2.1812   -1.2709    0.0000 C   0  0  0  0  0  0  0  0  0  0  0  0
    3.5081   -1.9704    0.0000 C   0  0  0  0  0  0  0  0  0  0  0  0
    3.5659   -3.4693    0.0000 O   0  0  0  0  0  0  0  0  0  0  0  0
    4.7774   -1.1710    0.0000 C   0  0  0  0  0  0  0  0  0  0  0  0
    4.7196    0.3279    0.0000 C   0  0  0  0  0  0  0  0  0  0  0  0
    5.9889    1.1273    0.0000 C   0  0  0  0  0  0  0  0  0  0  0  0
    5.9311    2.6262    0.0000 C   0  0  0  0  0  0  0  0  0  0  0  0
    7.2004    3.4257    0.0000 O   0  0  0  0  0  0  0  0  0  0  0  0
    4.6042    3.3257    0.0000 C   0  0  0  0  0  0  0  0  0  0  0  0
    3.3350    2.5263    0.0000 C   0  0  0  0  0  0  0  0  0  0  0  0
    3.3927    1.0274    0.0000 C   0  0  0  0  0  0  0  0  0  0  0  0
    2.0658    1.7268    0.0000 C   0  0  0  0  0  0  0  0  0  0  0  0
    2.1235    0.2279    0.0000 C   0  0  0  0  0  0  0  0  0  0  0  0
    0.7966    0.9274    0.0000 C   0  0  0  0  0  0  0  0  0  0  0  0
   -0.4727    0.1280    0.0000 C   0  0  0  0  0  0  0  0  0  0  0  0
   -0.4149   -1.3709    0.0000 C   0  0  0  0  0  0  0  0  0  0  0  0
   -1.8077   -0.8140    0.0000 C   0  0  0  0  0  0  0  0  0  0  0  0
  2  1  1  6
  2  3  1  0
  3  4  1  0
  4  5  1  0
  5  6  1  0
  6  7  1  0
  7  8  2  0
  7  9  1  0
  2 10  1  0
 10 11  1  6
 11 12  1  0
 13 12  1  6
 13 14  1  0
 14 15  1  1
 15 16  1  1
 15 17  1  0
 18 17  1  1
 18 19  1  0
 19 20  1  0
 20 21  1  1
 20 22  1  0
 22 23  1  0
 23 24  1  0
 24 25  1  6
 24 26  1  0
 26 27  1  6
 27 28  1  0
 28 29  1  0
 29 30  1  6
 29 10  1  0
 29 13  1  0
 26 14  1  0
 24 18  1  0
M  END
>  <MS_ID>  (2944) 
MS3045

>  <SMILES>  (2944) 
C[C@H](CCCCC(=O)O)[C@H]1CC[C@H]2[C@@H]3[C@H](O)C[C@@H]4C[C@H](O)CC[C@]4(C)[C@H]3CC[C@]12C

>  <Structure_dimension>  (2944) 
2D

$$$$
MS3046
     RDKit          2D

 24 27  0  0  0  0  0  0  0  0999 V2000
   -6.2943    0.2891    0.0000 C   0  0  0  0  0  0  0  0  0  0  0  0
   -4.8892    0.8143    0.0000 C   0  0  0  0  0  0  0  0  0  0  0  0
   -4.6416    2.2937    0.0000 O   0  0  0  0  0  0  0  0  0  0  0  0
   -3.7319   -0.1399    0.0000 C   0  0  0  0  0  0  0  0  0  0  0  0
   -3.8235   -1.6371    0.0000 C   0  0  0  0  0  0  0  0  0  0  0  0
   -2.4280   -2.1870    0.0000 C   0  0  0  0  0  0  0  0  0  0  0  0
   -1.4738   -1.0296    0.0000 C   0  0  0  0  0  0  0  0  0  0  0  0
    0.0248   -0.9643    0.0000 C   0  0  0  0  0  0  0  0  0  0  0  0
    0.8307   -2.2294    0.0000 C   0  0  0  0  0  0  0  0  0  0  0  0
    0.1380   -3.5599    0.0000 O   0  0  0  0  0  0  0  0  0  0  0  0
    2.3293   -2.1641    0.0000 C   0  0  0  0  0  0  0  0  0  0  0  0
    3.0220   -0.8336    0.0000 C   0  0  0  0  0  0  0  0  0  0  0  0
    4.5205   -0.7683    0.0000 C   0  0  0  0  0  0  0  0  0  0  0  0
    5.2133    0.5622    0.0000 C   0  0  0  0  0  0  0  0  0  0  0  0
    6.7118    0.6275    0.0000 O   0  0  0  0  0  0  0  0  0  0  0  0
    4.4074    1.8273    0.0000 C   0  0  0  0  0  0  0  0  0  0  0  0
    2.9088    1.7620    0.0000 C   0  0  0  0  0  0  0  0  0  0  0  0
    2.2161    0.4315    0.0000 C   0  0  0  0  0  0  0  0  0  0  0  0
    1.4102    1.6967    0.0000 C   0  0  0  0  0  0  0  0  0  0  0  0
    0.7175    0.3662    0.0000 C   0  0  0  0  0  0  0  0  0  0  0  0
   -0.0883    1.6314    0.0000 C   0  0  0  0  0  0  0  0  0  0  0  0
   -1.5869    1.5660    0.0000 C   0  0  0  0  0  0  0  0  0  0  0  0
   -2.2796    0.2356    0.0000 C   0  0  0  0  0  0  0  0  0  0  0  0
   -3.2133    1.4095    0.0000 C   0  0  0  0  0  0  0  0  0  0  0  0
  2  1  1  1
  2  3  1  0
  2  4  1  0
  4  5  1  6
  5  6  1  0
  7  6  1  6
  7  8  1  0
  8  9  1  1
  9 10  1  1
  9 11  1  0
 12 11  1  1
 12 13  1  0
 13 14  1  0
 14 15  1  1
 14 16  1  0
 16 17  1  0
 17 18  1  0
 18 19  1  6
 18 20  1  0
 20 21  1  6
 21 22  1  0
 22 23  1  0
 23 24  1  6
 23  4  1  0
 23  7  1  0
 20  8  1  0
 18 12  1  0
M  END
>  <MS_ID>  (2945) 
MS3046

>  <SMILES>  (2945) 
C[C@@H](O)[C@H]1CC[C@H]2[C@@H]3[C@H](O)C[C@@H]4C[C@H](O)CC[C@]4(C)[C@H]3CC[C@]12C

>  <Structure_dimension>  (2945) 
2D

$$$$
MS3047
     RDKit          2D

 32 35  0  0  0  0  0  0  0  0999 V2000
   -6.8229    3.4780    0.0000 C   0  0  0  0  0  0  0  0  0  0  0  0
   -6.4467    2.0260    0.0000 C   0  0  0  0  0  0  0  0  0  0  0  0
   -5.0011    1.6258    0.0000 C   0  0  0  0  0  0  0  0  0  0  0  0
   -4.6249    0.1737    0.0000 C   0  0  0  0  0  0  0  0  0  0  0  0
   -3.1793   -0.2265    0.0000 C   0  0  0  0  0  0  0  0  0  0  0  0
   -2.8031   -1.6786    0.0000 C   0  0  0  0  0  0  0  0  0  0  0  0
   -3.8725   -2.7304    0.0000 C   0  0  0  0  0  0  0  0  0  0  0  0
   -1.3574   -2.0788    0.0000 C   0  0  0  0  0  0  0  0  0  0  0  0
   -0.8315   -3.4836    0.0000 C   0  0  0  0  0  0  0  0  0  0  0  0
    0.6670   -3.4175    0.0000 C   0  0  0  0  0  0  0  0  0  0  0  0
    1.0673   -1.9719    0.0000 C   0  0  0  0  0  0  0  0  0  0  0  0
    2.4094   -1.3020    0.0000 C   0  0  0  0  0  0  0  0  0  0  0  0
    3.6606   -2.1294    0.0000 C   0  0  0  0  0  0  0  0  0  0  0  0
    3.5696   -3.6266    0.0000 O   0  0  0  0  0  0  0  0  0  0  0  0
    5.0027   -1.4595    0.0000 C   0  0  0  0  0  0  0  0  0  0  0  0
    5.0936    0.0377    0.0000 C   0  0  0  0  0  0  0  0  0  0  0  0
    6.4357    0.7076    0.0000 C   0  0  0  0  0  0  0  0  0  0  0  0
    6.5266    2.2049    0.0000 C   0  0  0  0  0  0  0  0  0  0  0  0
    7.8687    2.8747    0.0000 O   0  0  0  0  0  0  0  0  0  0  0  0
    5.2754    3.0322    0.0000 C   0  0  0  0  0  0  0  0  0  0  0  0
    3.9333    2.3623    0.0000 C   0  0  0  0  0  0  0  0  0  0  0  0
    3.8424    0.8651    0.0000 C   0  0  0  0  0  0  0  0  0  0  0  0
    2.5912    1.6925    0.0000 C   0  0  0  0  0  0  0  0  0  0  0  0
    2.5003    0.1952    0.0000 C   0  0  0  0  0  0  0  0  0  0  0  0
    1.2491    1.0226    0.0000 C   0  0  0  0  0  0  0  0  0  0  0  0
   -0.0930    0.3527    0.0000 C   0  0  0  0  0  0  0  0  0  0  0  0
   -1.3442    1.1801    0.0000 O   0  0  0  0  0  0  0  0  0  0  0  0
   -0.1839   -1.1445    0.0000 C   0  0  0  0  0  0  0  0  0  0  0  0
   -1.5147   -0.4525    0.0000 C   0  0  0  0  0  0  0  0  0  0  0  0
   -7.5161    0.9742    0.0000 C   0  0  0  0  0  0  0  0  0  0  0  0
   -7.1399   -0.4779    0.0000 O   0  0  0  0  0  0  0  0  0  0  0  0
   -8.9617    1.3744    0.0000 O   0  0  0  0  0  0  0  0  0  0  0  0
  2  1  1  6
  2  3  1  0
  3  4  1  0
  4  5  1  0
  5  6  1  0
  6  7  1  6
  6  8  1  0
  8  9  1  6
  9 10  1  0
 11 10  1  6
 11 12  1  0
 12 13  1  1
 13 14  1  1
 13 15  1  0
 16 15  1  1
 16 17  1  0
 17 18  1  0
 18 19  1  1
 18 20  1  0
 20 21  1  0
 21 22  1  0
 22 23  1  6
 22 24  1  0
 24 25  1  6
 25 26  1  0
 26 27  1  1
 26 28  1  0
 28 29  1  6
  2 30  1  0
 30 31  2  0
 30 32  1  0
 28  8  1  0
 28 11  1  0
 24 12  1  0
 22 16  1  0
M  END
>  <MS_ID>  (2946) 
MS3047

>  <SMILES>  (2946) 
C[C@H](CCC[C@@H](C)[C@H]1CC[C@H]2[C@@H]3[C@H](O)C[C@@H]4C[C@H](O)CC[C@]4(C)[C@H]3C[C@H](O)[C@]12C)C(=O)O

>  <Structure_dimension>  (2946) 
2D

$$$$
MS3048
     RDKit          2D

 40 44  0  0  0  0  0  0  0  0999 V2000
    0.1567   -5.0073    0.0000 C   0  0  0  0  0  0  0  0  0  0  0  0
    0.6530   -3.5918    0.0000 C   0  0  0  0  0  0  0  0  0  0  0  0
   -0.3247   -2.4543    0.0000 C   0  0  0  0  0  0  0  0  0  0  0  0
   -1.7987   -2.7322    0.0000 C   0  0  0  0  0  0  0  0  0  0  0  0
   -2.7764   -1.5946    0.0000 C   0  0  0  0  0  0  0  0  0  0  0  0
   -2.2801   -0.1791    0.0000 O   0  0  0  0  0  0  0  0  0  0  0  0
   -4.2504   -1.8725    0.0000 N   0  0  0  0  0  0  0  0  0  0  0  0
   -5.2282   -0.7350    0.0000 C   0  0  0  0  0  0  0  0  0  0  0  0
   -6.7022   -1.0129    0.0000 C   0  0  0  0  0  0  0  0  0  0  0  0
   -7.6799    0.1247    0.0000 C   0  0  0  0  0  0  0  0  0  0  0  0
   -7.1836    1.5402    0.0000 C   0  0  0  0  0  0  0  0  0  0  0  0
   -8.1613    2.6778    0.0000 C   0  0  0  0  0  0  0  0  0  0  0  0
   -9.6353    2.3998    0.0000 C   0  0  0  0  0  0  0  0  0  0  0  0
  -10.6130    3.5374    0.0000 O   0  0  0  0  0  0  0  0  0  0  0  0
  -10.1316    0.9843    0.0000 C   0  0  0  0  0  0  0  0  0  0  0  0
   -9.1539   -0.1533    0.0000 C   0  0  0  0  0  0  0  0  0  0  0  0
   -4.7318    0.6805    0.0000 C   0  0  0  0  0  0  0  0  0  0  0  0
   -3.2578    0.9585    0.0000 O   0  0  0  0  0  0  0  0  0  0  0  0
   -5.7096    1.8181    0.0000 O   0  0  0  0  0  0  0  0  0  0  0  0
    2.1271   -3.3139    0.0000 C   0  0  0  0  0  0  0  0  0  0  0  0
    3.2183   -4.3431    0.0000 C   0  0  0  0  0  0  0  0  0  0  0  0
    4.5343   -3.6232    0.0000 C   0  0  0  0  0  0  0  0  0  0  0  0
    4.2564   -2.1492    0.0000 C   0  0  0  0  0  0  0  0  0  0  0  0
    5.1658   -0.9563    0.0000 C   0  0  0  0  0  0  0  0  0  0  0  0
    6.6536   -1.1475    0.0000 C   0  0  0  0  0  0  0  0  0  0  0  0
    7.5630    0.0454    0.0000 C   0  0  0  0  0  0  0  0  0  0  0  0
    6.9847    1.4294    0.0000 C   0  0  0  0  0  0  0  0  0  0  0  0
    7.8941    2.6222    0.0000 C   0  0  0  0  0  0  0  0  0  0  0  0
    7.3158    4.0063    0.0000 C   0  0  0  0  0  0  0  0  0  0  0  0
    8.2253    5.1991    0.0000 O   0  0  0  0  0  0  0  0  0  0  0  0
    5.8281    4.1974    0.0000 C   0  0  0  0  0  0  0  0  0  0  0  0
    4.9186    3.0046    0.0000 C   0  0  0  0  0  0  0  0  0  0  0  0
    5.4969    1.6206    0.0000 C   0  0  0  0  0  0  0  0  0  0  0  0
    4.0092    1.8117    0.0000 C   0  0  0  0  0  0  0  0  0  0  0  0
    4.5875    0.4277    0.0000 C   0  0  0  0  0  0  0  0  0  0  0  0
    3.0997    0.6189    0.0000 C   0  0  0  0  0  0  0  0  0  0  0  0
    2.1903   -0.5740    0.0000 C   0  0  0  0  0  0  0  0  0  0  0  0
    0.7025   -0.3828    0.0000 O   0  0  0  0  0  0  0  0  0  0  0  0
    2.7686   -1.9580    0.0000 C   0  0  0  0  0  0  0  0  0  0  0  0
    1.2690   -1.9234    0.0000 C   0  0  0  0  0  0  0  0  0  0  0  0
  2  1  1  6
  2  3  1  0
  3  4  1  0
  4  5  1  0
  5  6  2  0
  5  7  1  0
  7  8  1  0
  8  9  1  1
  9 10  1  0
 10 11  2  0
 11 12  1  0
 12 13  2  0
 13 14  1  0
 13 15  1  0
 15 16  2  0
  8 17  1  0
 17 18  2  0
 17 19  1  0
  2 20  1  0
 20 21  1  6
 21 22  1  0
 23 22  1  6
 23 24  1  0
 24 25  1  1
 25 26  1  0
 27 26  1  1
 27 28  1  0
 28 29  1  0
 29 30  1  1
 29 31  1  0
 31 32  1  0
 32 33  1  0
 33 34  1  6
 33 35  1  0
 35 36  1  6
 36 37  1  0
 37 38  1  1
 37 39  1  0
 39 40  1  6
 16 10  1  0
 39 20  1  0
 39 23  1  0
 35 24  1  0
 33 27  1  0
M  END
>  <MS_ID>  (2947) 
MS3048

>  <SMILES>  (2947) 
C[C@H](CCC(=O)N[C@@H](Cc1ccc(O)cc1)C(=O)O)[C@H]1CC[C@H]2[C@@H]3CC[C@@H]4C[C@H](O)CC[C@]4(C)[C@H]3C[C@H](O)[C@]12C

>  <Structure_dimension>  (2947) 
2D

$$$$
MS3049
     RDKit          2D

 44 49  0  0  0  0  0  0  0  0999 V2000
    0.6642   -4.7950    0.0000 C   0  0  0  0  0  0  0  0  0  0  0  0
    1.2137   -3.3993    0.0000 C   0  0  0  0  0  0  0  0  0  0  0  0
    0.2798   -2.2255    0.0000 C   0  0  0  0  0  0  0  0  0  0  0  0
   -1.2037   -2.4474    0.0000 C   0  0  0  0  0  0  0  0  0  0  0  0
   -2.1376   -1.2737    0.0000 C   0  0  0  0  0  0  0  0  0  0  0  0
   -1.5881    0.1220    0.0000 O   0  0  0  0  0  0  0  0  0  0  0  0
   -3.6211   -1.4956    0.0000 N   0  0  0  0  0  0  0  0  0  0  0  0
   -4.5550   -0.3218    0.0000 C   0  0  0  0  0  0  0  0  0  0  0  0
   -6.0385   -0.5437    0.0000 C   0  0  0  0  0  0  0  0  0  0  0  0
   -6.9725    0.6301    0.0000 C   0  0  0  0  0  0  0  0  0  0  0  0
   -6.5718    2.0756    0.0000 C   0  0  0  0  0  0  0  0  0  0  0  0
   -7.8227    2.9033    0.0000 N   0  0  0  0  0  0  0  0  0  0  0  0
   -8.9965    1.9694    0.0000 C   0  0  0  0  0  0  0  0  0  0  0  0
  -10.4760    2.2168    0.0000 C   0  0  0  0  0  0  0  0  0  0  0  0
  -11.4300    1.0592    0.0000 C   0  0  0  0  0  0  0  0  0  0  0  0
  -10.9045   -0.3457    0.0000 C   0  0  0  0  0  0  0  0  0  0  0  0
  -11.8584   -1.5033    0.0000 O   0  0  0  0  0  0  0  0  0  0  0  0
   -9.4250   -0.5931    0.0000 C   0  0  0  0  0  0  0  0  0  0  0  0
   -8.4710    0.5645    0.0000 C   0  0  0  0  0  0  0  0  0  0  0  0
   -4.0055    1.0739    0.0000 C   0  0  0  0  0  0  0  0  0  0  0  0
   -2.5220    1.2958    0.0000 O   0  0  0  0  0  0  0  0  0  0  0  0
   -4.9394    2.2477    0.0000 O   0  0  0  0  0  0  0  0  0  0  0  0
    2.6972   -3.1774    0.0000 C   0  0  0  0  0  0  0  0  0  0  0  0
    3.7487   -4.2471    0.0000 C   0  0  0  0  0  0  0  0  0  0  0  0
    5.0910   -3.5777    0.0000 C   0  0  0  0  0  0  0  0  0  0  0  0
    4.8691   -2.0942    0.0000 C   0  0  0  0  0  0  0  0  0  0  0  0
    5.8231   -0.9366    0.0000 C   0  0  0  0  0  0  0  0  0  0  0  0
    7.3026   -1.1840    0.0000 C   0  0  0  0  0  0  0  0  0  0  0  0
    7.8281   -2.5889    0.0000 O   0  0  0  0  0  0  0  0  0  0  0  0
    8.2565   -0.0264    0.0000 C   0  0  0  0  0  0  0  0  0  0  0  0
    7.7310    1.3785    0.0000 C   0  0  0  0  0  0  0  0  0  0  0  0
    8.6850    2.5361    0.0000 C   0  0  0  0  0  0  0  0  0  0  0  0
    8.1595    3.9410    0.0000 C   0  0  0  0  0  0  0  0  0  0  0  0
    9.1134    5.0986    0.0000 O   0  0  0  0  0  0  0  0  0  0  0  0
    6.6800    4.1884    0.0000 C   0  0  0  0  0  0  0  0  0  0  0  0
    5.7261    3.0308    0.0000 C   0  0  0  0  0  0  0  0  0  0  0  0
    6.2516    1.6259    0.0000 C   0  0  0  0  0  0  0  0  0  0  0  0
    4.7721    1.8733    0.0000 C   0  0  0  0  0  0  0  0  0  0  0  0
    5.2976    0.4683    0.0000 C   0  0  0  0  0  0  0  0  0  0  0  0
    3.8181    0.7157    0.0000 C   0  0  0  0  0  0  0  0  0  0  0  0
    2.8642   -0.4419    0.0000 C   0  0  0  0  0  0  0  0  0  0  0  0
    1.3847   -0.1945    0.0000 O   0  0  0  0  0  0  0  0  0  0  0  0
    3.3897   -1.8468    0.0000 C   0  0  0  0  0  0  0  0  0  0  0  0
    1.8925   -1.7554    0.0000 C   0  0  0  0  0  0  0  0  0  0  0  0
  2  1  1  6
  2  3  1  0
  3  4  1  0
  4  5  1  0
  5  6  2  0
  5  7  1  0
  7  8  1  0
  8  9  1  1
  9 10  1  0
 10 11  2  0
 11 12  1  0
 12 13  1  0
 13 14  2  0
 14 15  1  0
 15 16  2  0
 16 17  1  0
 16 18  1  0
 18 19  2  0
  8 20  1  0
 20 21  2  0
 20 22  1  0
  2 23  1  0
 23 24  1  6
 24 25  1  0
 26 25  1  6
 26 27  1  0
 27 28  1  1
 28 29  1  1
 28 30  1  0
 31 30  1  1
 31 32  1  0
 32 33  1  0
 33 34  1  1
 33 35  1  0
 35 36  1  0
 36 37  1  0
 37 38  1  6
 37 39  1  0
 39 40  1  6
 40 41  1  0
 41 42  1  1
 41 43  1  0
 43 44  1  6
 19 10  1  0
 43 23  1  0
 19 13  1  0
 43 26  1  0
 39 27  1  0
 37 31  1  0
M  END
>  <MS_ID>  (2948) 
MS3049

>  <SMILES>  (2948) 
C[C@H](CCC(=O)N[C@@H](Cc1c[nH]c2ccc(O)cc12)C(=O)O)[C@H]1CC[C@H]2[C@@H]3[C@H](O)C[C@@H]4C[C@H](O)CC[C@]4(C)[C@H]3C[C@H](O)[C@]12C

>  <Structure_dimension>  (2948) 
2D

$$$$
MS3050
     RDKit          2D

 22 25  0  0  0  0  0  0  0  0999 V2000
   -5.9846    0.0686    0.0000 C   0  0  0  0  0  0  0  0  0  0  0  0
   -4.5873    0.6142    0.0000 C   0  0  0  0  0  0  0  0  0  0  0  0
   -4.3612    2.0971    0.0000 O   0  0  0  0  0  0  0  0  0  0  0  0
   -3.4162   -0.3230    0.0000 C   0  0  0  0  0  0  0  0  0  0  0  0
   -3.4860   -1.8214    0.0000 C   0  0  0  0  0  0  0  0  0  0  0  0
   -2.0826   -2.3508    0.0000 C   0  0  0  0  0  0  0  0  0  0  0  0
   -1.1453   -1.1797    0.0000 C   0  0  0  0  0  0  0  0  0  0  0  0
    0.3521   -1.0925    0.0000 C   0  0  0  0  0  0  0  0  0  0  0  0
    1.1763   -2.3458    0.0000 C   0  0  0  0  0  0  0  0  0  0  0  0
    2.6738   -2.2586    0.0000 C   0  0  0  0  0  0  0  0  0  0  0  0
    3.3471   -0.9182    0.0000 C   0  0  0  0  0  0  0  0  0  0  0  0
    4.8445   -0.8311    0.0000 C   0  0  0  0  0  0  0  0  0  0  0  0
    5.5178    0.5094    0.0000 C   0  0  0  0  0  0  0  0  0  0  0  0
    4.6936    1.7626    0.0000 C   0  0  0  0  0  0  0  0  0  0  0  0
    3.1961    1.6755    0.0000 C   0  0  0  0  0  0  0  0  0  0  0  0
    2.5228    0.3350    0.0000 C   0  0  0  0  0  0  0  0  0  0  0  0
    1.6986    1.5883    0.0000 C   0  0  0  0  0  0  0  0  0  0  0  0
    1.0254    0.2479    0.0000 C   0  0  0  0  0  0  0  0  0  0  0  0
    0.2012    1.5012    0.0000 C   0  0  0  0  0  0  0  0  0  0  0  0
   -1.2963    1.4140    0.0000 C   0  0  0  0  0  0  0  0  0  0  0  0
   -1.9696    0.0736    0.0000 C   0  0  0  0  0  0  0  0  0  0  0  0
   -2.9202    1.2338    0.0000 C   0  0  0  0  0  0  0  0  0  0  0  0
  1  2  1  0
  2  3  2  0
  4  2  1  6
  4  5  1  0
  5  6  1  0
  7  6  1  6
  7  8  1  0
  8  9  1  1
  9 10  1  0
 11 10  1  6
 11 12  1  0
 12 13  1  0
 13 14  1  0
 14 15  1  0
 15 16  1  0
 16 17  1  6
 16 18  1  0
 18 19  1  6
 19 20  1  0
 20 21  1  0
 21 22  1  6
 21  4  1  0
 21  7  1  0
 18  8  1  0
 16 11  1  0
M  END
>  <MS_ID>  (2949) 
MS3050

>  <SMILES>  (2949) 
CC(=O)[C@H]1CC[C@H]2[C@@H]3CC[C@H]4CCCC[C@]4(C)[C@H]3CC[C@]12C

>  <Structure_dimension>  (2949) 
2D

$$$$
MS3051
     RDKit          2D

 28 31  0  0  0  0  0  0  0  0999 V2000
   -4.3414    2.6773    0.0000 C   0  0  0  0  0  0  0  0  0  0  0  0
   -3.1040    1.8295    0.0000 S   0  0  0  0  0  0  0  0  0  0  0  0
   -3.2195    0.3339    0.0000 C   0  0  0  0  0  0  0  0  0  0  0  0
   -4.5724   -0.3138    0.0000 C   0  0  0  0  0  0  0  0  0  0  0  0
   -5.8098    0.5340    0.0000 C   0  0  0  0  0  0  0  0  0  0  0  0
   -7.1628   -0.1137    0.0000 C   0  0  0  0  0  0  0  0  0  0  0  0
   -7.2783   -1.6093    0.0000 O   0  0  0  0  0  0  0  0  0  0  0  0
   -8.4002    0.7341    0.0000 O   0  0  0  0  0  0  0  0  0  0  0  0
   -1.9821   -0.5139    0.0000 C   0  0  0  0  0  0  0  0  0  0  0  0
   -1.9406   -2.0133    0.0000 C   0  0  0  0  0  0  0  0  0  0  0  0
   -0.5018   -2.4372    0.0000 C   0  0  0  0  0  0  0  0  0  0  0  0
    0.3461   -1.1998    0.0000 C   0  0  0  0  0  0  0  0  0  0  0  0
    1.8329   -1.0018    0.0000 C   0  0  0  0  0  0  0  0  0  0  0  0
    2.7478   -2.1905    0.0000 C   0  0  0  0  0  0  0  0  0  0  0  0
    2.1758   -3.5772    0.0000 O   0  0  0  0  0  0  0  0  0  0  0  0
    4.2347   -1.9926    0.0000 C   0  0  0  0  0  0  0  0  0  0  0  0
    4.8067   -0.6059    0.0000 C   0  0  0  0  0  0  0  0  0  0  0  0
    6.2936   -0.4079    0.0000 C   0  0  0  0  0  0  0  0  0  0  0  0
    6.8656    0.9787    0.0000 C   0  0  0  0  0  0  0  0  0  0  0  0
    5.9507    2.1674    0.0000 C   0  0  0  0  0  0  0  0  0  0  0  0
    4.4638    1.9694    0.0000 C   0  0  0  0  0  0  0  0  0  0  0  0
    3.8918    0.5828    0.0000 C   0  0  0  0  0  0  0  0  0  0  0  0
    2.9769    1.7715    0.0000 C   0  0  0  0  0  0  0  0  0  0  0  0
    2.4049    0.3848    0.0000 C   0  0  0  0  0  0  0  0  0  0  0  0
    1.4901    1.5735    0.0000 C   0  0  0  0  0  0  0  0  0  0  0  0
    0.0032    1.3756    0.0000 C   0  0  0  0  0  0  0  0  0  0  0  0
   -0.5688   -0.0111    0.0000 C   0  0  0  0  0  0  0  0  0  0  0  0
   -1.6029    1.0755    0.0000 C   0  0  0  0  0  0  0  0  0  0  0  0
  1  2  1  0
  2  3  1  0
  3  4  1  1
  4  5  1  0
  5  6  1  0
  6  7  2  0
  6  8  1  0
  3  9  1  0
  9 10  1  6
 10 11  1  0
 12 11  1  6
 12 13  1  0
 13 14  1  1
 14 15  1  6
 14 16  1  0
 17 16  1  1
 17 18  1  0
 18 19  1  0
 19 20  1  0
 20 21  1  0
 21 22  1  0
 22 23  1  6
 22 24  1  0
 24 25  1  6
 25 26  1  0
 26 27  1  0
 27 28  1  6
 27  9  1  0
 27 12  1  0
 24 13  1  0
 22 17  1  0
M  END
>  <MS_ID>  (2950) 
MS3051

>  <SMILES>  (2950) 
CS[C@H](CCC(=O)O)[C@H]1CC[C@H]2[C@@H]3[C@@H](O)C[C@@H]4CCCC[C@]4(C)[C@H]3CC[C@]12C

>  <Structure_dimension>  (2950) 
2D

$$$$
MS3052
     RDKit          2D

 24 27  0  0  0  0  0  0  0  0999 V2000
   -7.1591    0.8654    0.0000 C   0  0  0  0  0  0  0  0  0  0  0  0
   -5.9784   -0.0597    0.0000 O   0  0  0  0  0  0  0  0  0  0  0  0
   -4.5869    0.5003    0.0000 C   0  0  0  0  0  0  0  0  0  0  0  0
   -4.3760    1.9854    0.0000 O   0  0  0  0  0  0  0  0  0  0  0  0
   -3.4061   -0.4248    0.0000 C   0  0  0  0  0  0  0  0  0  0  0  0
   -3.4606   -1.9239    0.0000 C   0  0  0  0  0  0  0  0  0  0  0  0
   -2.0517   -2.4388    0.0000 C   0  0  0  0  0  0  0  0  0  0  0  0
   -1.1266   -1.2581    0.0000 C   0  0  0  0  0  0  0  0  0  0  0  0
    0.3699   -1.1555    0.0000 C   0  0  0  0  0  0  0  0  0  0  0  0
    1.2070   -2.4003    0.0000 C   0  0  0  0  0  0  0  0  0  0  0  0
    2.7034   -2.2977    0.0000 C   0  0  0  0  0  0  0  0  0  0  0  0
    3.3629   -0.9504    0.0000 C   0  0  0  0  0  0  0  0  0  0  0  0
    4.8594   -0.8479    0.0000 C   0  0  0  0  0  0  0  0  0  0  0  0
    5.5188    0.4994    0.0000 C   0  0  0  0  0  0  0  0  0  0  0  0
    7.0153    0.6020    0.0000 O   0  0  0  0  0  0  0  0  0  0  0  0
    4.6817    1.7441    0.0000 C   0  0  0  0  0  0  0  0  0  0  0  0
    3.1852    1.6416    0.0000 C   0  0  0  0  0  0  0  0  0  0  0  0
    2.5258    0.2943    0.0000 C   0  0  0  0  0  0  0  0  0  0  0  0
    1.6887    1.5390    0.0000 C   0  0  0  0  0  0  0  0  0  0  0  0
    1.0293    0.1917    0.0000 C   0  0  0  0  0  0  0  0  0  0  0  0
    0.1923    1.4364    0.0000 C   0  0  0  0  0  0  0  0  0  0  0  0
   -1.3042    1.3339    0.0000 C   0  0  0  0  0  0  0  0  0  0  0  0
   -1.9637   -0.0134    0.0000 C   0  0  0  0  0  0  0  0  0  0  0  0
   -2.9262    1.1370    0.0000 C   0  0  0  0  0  0  0  0  0  0  0  0
  1  2  1  0
  2  3  1  0
  3  4  2  0
  5  3  1  6
  5  6  1  0
  6  7  1  0
  8  7  1  6
  8  9  1  0
  9 10  1  1
 10 11  1  0
 12 11  1  6
 12 13  1  0
 13 14  1  0
 14 15  2  0
 14 16  1  0
 16 17  1  0
 17 18  1  0
 18 19  1  6
 18 20  1  0
 20 21  1  6
 21 22  1  0
 22 23  1  0
 23 24  1  6
 23  5  1  0
 23  8  1  0
 20  9  1  0
 18 12  1  0
M  END
>  <MS_ID>  (2951) 
MS3052

>  <SMILES>  (2951) 
COC(=O)[C@H]1CC[C@H]2[C@@H]3CC[C@H]4CC(=O)CC[C@]4(C)[C@H]3CC[C@]12C

>  <Structure_dimension>  (2951) 
2D

$$$$
MS3054
     RDKit          2D

 24 27  0  0  0  0  0  0  0  0999 V2000
   -7.1591    0.8654    0.0000 C   0  0  0  0  0  0  0  0  0  0  0  0
   -5.9784   -0.0597    0.0000 O   0  0  0  0  0  0  0  0  0  0  0  0
   -4.5869    0.5003    0.0000 C   0  0  0  0  0  0  0  0  0  0  0  0
   -4.3760    1.9854    0.0000 O   0  0  0  0  0  0  0  0  0  0  0  0
   -3.4061   -0.4248    0.0000 C   0  0  0  0  0  0  0  0  0  0  0  0
   -3.4606   -1.9239    0.0000 C   0  0  0  0  0  0  0  0  0  0  0  0
   -2.0517   -2.4388    0.0000 C   0  0  0  0  0  0  0  0  0  0  0  0
   -1.1266   -1.2581    0.0000 C   0  0  0  0  0  0  0  0  0  0  0  0
    0.3699   -1.1555    0.0000 C   0  0  0  0  0  0  0  0  0  0  0  0
    1.2070   -2.4003    0.0000 C   0  0  0  0  0  0  0  0  0  0  0  0
    2.7034   -2.2977    0.0000 C   0  0  0  0  0  0  0  0  0  0  0  0
    3.3629   -0.9504    0.0000 C   0  0  0  0  0  0  0  0  0  0  0  0
    4.8594   -0.8479    0.0000 C   0  0  0  0  0  0  0  0  0  0  0  0
    5.5188    0.4994    0.0000 C   0  0  0  0  0  0  0  0  0  0  0  0
    7.0153    0.6020    0.0000 O   0  0  0  0  0  0  0  0  0  0  0  0
    4.6817    1.7441    0.0000 C   0  0  0  0  0  0  0  0  0  0  0  0
    3.1852    1.6416    0.0000 C   0  0  0  0  0  0  0  0  0  0  0  0
    2.5258    0.2943    0.0000 C   0  0  0  0  0  0  0  0  0  0  0  0
    1.6887    1.5390    0.0000 C   0  0  0  0  0  0  0  0  0  0  0  0
    1.0293    0.1917    0.0000 C   0  0  0  0  0  0  0  0  0  0  0  0
    0.1923    1.4364    0.0000 C   0  0  0  0  0  0  0  0  0  0  0  0
   -1.3042    1.3339    0.0000 C   0  0  0  0  0  0  0  0  0  0  0  0
   -1.9637   -0.0134    0.0000 C   0  0  0  0  0  0  0  0  0  0  0  0
   -2.9262    1.1370    0.0000 C   0  0  0  0  0  0  0  0  0  0  0  0
  1  2  1  0
  2  3  1  0
  3  4  2  0
  5  3  1  6
  5  6  1  0
  6  7  1  0
  8  7  1  6
  8  9  1  0
  9 10  1  1
 10 11  1  0
 12 11  1  1
 12 13  1  0
 13 14  1  0
 14 15  1  6
 14 16  1  0
 16 17  1  0
 17 18  1  0
 18 19  1  6
 18 20  1  0
 20 21  1  6
 21 22  1  0
 22 23  1  0
 23 24  1  6
 23  5  1  0
 23  8  1  0
 20  9  1  0
 18 12  1  0
M  END
>  <MS_ID>  (2952) 
MS3054

>  <SMILES>  (2952) 
COC(=O)[C@H]1CC[C@H]2[C@@H]3CC[C@@H]4C[C@@H](O)CC[C@]4(C)[C@H]3CC[C@]12C

>  <Structure_dimension>  (2952) 
2D

$$$$
MS3055
     RDKit          2D

 36 39  0  0  0  0  0  0  0  0999 V2000
   -1.5948   -4.5570    0.0000 C   0  0  0  0  0  0  0  0  0  0  0  0
   -0.8975   -3.2289    0.0000 C   0  0  0  0  0  0  0  0  0  0  0  0
   -1.6991   -1.9610    0.0000 C   0  0  0  0  0  0  0  0  0  0  0  0
   -3.1979   -2.0212    0.0000 C   0  0  0  0  0  0  0  0  0  0  0  0
   -3.9994   -0.7534    0.0000 C   0  0  0  0  0  0  0  0  0  0  0  0
   -3.3022    0.5747    0.0000 O   0  0  0  0  0  0  0  0  0  0  0  0
   -5.4982   -0.8136    0.0000 N   0  0  0  0  0  0  0  0  0  0  0  0
   -6.2998    0.4543    0.0000 C   0  0  0  0  0  0  0  0  0  0  0  0
   -7.7986    0.3940    0.0000 C   0  0  0  0  0  0  0  0  0  0  0  0
   -8.6001    1.6619    0.0000 C   0  0  0  0  0  0  0  0  0  0  0  0
  -10.0989    1.6017    0.0000 N   0  0  0  0  0  0  0  0  0  0  0  0
   -7.9029    2.9900    0.0000 O   0  0  0  0  0  0  0  0  0  0  0  0
   -5.6025    1.7824    0.0000 C   0  0  0  0  0  0  0  0  0  0  0  0
   -4.1038    1.8426    0.0000 O   0  0  0  0  0  0  0  0  0  0  0  0
   -6.4041    3.0502    0.0000 O   0  0  0  0  0  0  0  0  0  0  0  0
    0.6013   -3.1687    0.0000 C   0  0  0  0  0  0  0  0  0  0  0  0
    1.5310   -4.3458    0.0000 C   0  0  0  0  0  0  0  0  0  0  0  0
    2.9378   -3.8254    0.0000 C   0  0  0  0  0  0  0  0  0  0  0  0
    2.8776   -2.3266    0.0000 C   0  0  0  0  0  0  0  0  0  0  0  0
    3.9511   -1.2789    0.0000 C   0  0  0  0  0  0  0  0  0  0  0  0
    5.3951   -1.6848    0.0000 C   0  0  0  0  0  0  0  0  0  0  0  0
    6.4686   -0.6371    0.0000 C   0  0  0  0  0  0  0  0  0  0  0  0
    6.0981    0.8164    0.0000 C   0  0  0  0  0  0  0  0  0  0  0  0
    7.1716    1.8640    0.0000 C   0  0  0  0  0  0  0  0  0  0  0  0
    6.8011    3.3175    0.0000 C   0  0  0  0  0  0  0  0  0  0  0  0
    7.8746    4.3652    0.0000 O   0  0  0  0  0  0  0  0  0  0  0  0
    5.3570    3.7234    0.0000 C   0  0  0  0  0  0  0  0  0  0  0  0
    4.2835    2.6758    0.0000 C   0  0  0  0  0  0  0  0  0  0  0  0
    4.6540    1.2222    0.0000 C   0  0  0  0  0  0  0  0  0  0  0  0
    3.2100    1.6281    0.0000 C   0  0  0  0  0  0  0  0  0  0  0  0
    3.5805    0.1746    0.0000 C   0  0  0  0  0  0  0  0  0  0  0  0
    2.1365    0.5805    0.0000 C   0  0  0  0  0  0  0  0  0  0  0  0
    1.0630   -0.4672    0.0000 C   0  0  0  0  0  0  0  0  0  0  0  0
   -0.3811   -0.0613    0.0000 O   0  0  0  0  0  0  0  0  0  0  0  0
    1.4335   -1.9207    0.0000 C   0  0  0  0  0  0  0  0  0  0  0  0
   -0.0451   -1.6680    0.0000 C   0  0  0  0  0  0  0  0  0  0  0  0
  2  1  1  6
  2  3  1  0
  3  4  1  0
  4  5  1  0
  5  6  2  0
  5  7  1  0
  7  8  1  0
  8  9  1  1
  9 10  1  0
 10 11  1  0
 10 12  2  0
  8 13  1  0
 13 14  2  0
 13 15  1  0
  2 16  1  0
 16 17  1  6
 17 18  1  0
 19 18  1  6
 19 20  1  0
 20 21  1  1
 21 22  1  0
 23 22  1  1
 23 24  1  0
 24 25  1  0
 25 26  1  1
 25 27  1  0
 27 28  1  0
 28 29  1  0
 29 30  1  6
 29 31  1  0
 31 32  1  6
 32 33  1  0
 33 34  1  1
 33 35  1  0
 35 36  1  6
 35 16  1  0
 35 19  1  0
 31 20  1  0
 29 23  1  0
M  END
>  <MS_ID>  (2953) 
MS3055

>  <SMILES>  (2953) 
C[C@H](CCC(=O)N[C@@H](CC(N)=O)C(=O)O)[C@H]1CC[C@H]2[C@@H]3CC[C@@H]4C[C@H](O)CC[C@]4(C)[C@H]3C[C@H](O)[C@]12C

>  <Structure_dimension>  (2953) 
2D

$$$$
MS3056
     RDKit          2D

 28 31  0  0  0  0  0  0  0  0999 V2000
   -8.7753   -1.1161    0.0000 C   0  0  0  0  0  0  0  0  0  0  0  0
   -7.3580   -0.6249    0.0000 C   0  0  0  0  0  0  0  0  0  0  0  0
   -6.2239   -1.6067    0.0000 C   0  0  0  0  0  0  0  0  0  0  0  0
   -7.0748    0.8481    0.0000 C   0  0  0  0  0  0  0  0  0  0  0  0
   -8.2088    1.8299    0.0000 C   0  0  0  0  0  0  0  0  0  0  0  0
   -5.6575    1.3393    0.0000 C   0  0  0  0  0  0  0  0  0  0  0  0
   -4.5234    0.3575    0.0000 C   0  0  0  0  0  0  0  0  0  0  0  0
   -3.1061    0.8488    0.0000 C   0  0  0  0  0  0  0  0  0  0  0  0
   -1.9721   -0.1330    0.0000 C   0  0  0  0  0  0  0  0  0  0  0  0
   -2.0998   -1.6276    0.0000 C   0  0  0  0  0  0  0  0  0  0  0  0
   -0.7179   -2.2109    0.0000 C   0  0  0  0  0  0  0  0  0  0  0  0
    0.2639   -1.0768    0.0000 C   0  0  0  0  0  0  0  0  0  0  0  0
    1.7637   -1.0476    0.0000 C   0  0  0  0  0  0  0  0  0  0  0  0
    2.5388   -2.3318    0.0000 C   0  0  0  0  0  0  0  0  0  0  0  0
    4.0385   -2.3026    0.0000 C   0  0  0  0  0  0  0  0  0  0  0  0
    4.7631   -0.9892    0.0000 C   0  0  0  0  0  0  0  0  0  0  0  0
    6.2628   -0.9600    0.0000 C   0  0  0  0  0  0  0  0  0  0  0  0
    6.9874    0.3534    0.0000 C   0  0  0  0  0  0  0  0  0  0  0  0
    8.4871    0.3827    0.0000 O   0  0  0  0  0  0  0  0  0  0  0  0
    6.2122    1.6376    0.0000 C   0  0  0  0  0  0  0  0  0  0  0  0
    4.7125    1.6084    0.0000 C   0  0  0  0  0  0  0  0  0  0  0  0
    3.9879    0.2950    0.0000 C   0  0  0  0  0  0  0  0  0  0  0  0
    3.2128    1.5792    0.0000 C   0  0  0  0  0  0  0  0  0  0  0  0
    2.4882    0.2658    0.0000 C   0  0  0  0  0  0  0  0  0  0  0  0
    1.7130    1.5500    0.0000 C   0  0  0  0  0  0  0  0  0  0  0  0
    0.2133    1.5208    0.0000 C   0  0  0  0  0  0  0  0  0  0  0  0
   -0.5112    0.2074    0.0000 C   0  0  0  0  0  0  0  0  0  0  0  0
   -1.4164    1.4035    0.0000 C   0  0  0  0  0  0  0  0  0  0  0  0
  1  2  1  0
  2  3  1  0
  2  4  1  0
  4  5  1  6
  4  6  1  0
  6  7  2  0
  7  8  1  0
  9  8  1  6
  9 10  1  0
 10 11  1  0
 12 11  1  6
 12 13  1  0
 13 14  1  1
 14 15  1  0
 16 15  1  6
 16 17  1  0
 17 18  1  0
 18 19  1  6
 18 20  1  0
 20 21  1  0
 21 22  1  0
 22 23  1  6
 22 24  1  0
 24 25  1  6
 25 26  1  0
 26 27  1  0
 27 28  1  6
 27  9  1  0
 27 12  1  0
 24 13  1  0
 22 16  1  0
M  END
>  <MS_ID>  (2954) 
MS3056

>  <SMILES>  (2954) 
CC(C)[C@H](C)/C=C/C[C@H]1CC[C@H]2[C@@H]3CC[C@H]4C[C@@H](O)CC[C@]4(C)[C@H]3CC[C@]12C

>  <Structure_dimension>  (2954) 
2D

$$$$
MS3057
     RDKit          2D

 30 33  0  0  0  0  0  0  0  0999 V2000
   -3.9284   -3.3141    0.0000 C   0  0  0  0  0  0  0  0  0  0  0  0
   -2.9683   -2.1616    0.0000 C   0  0  0  0  0  0  0  0  0  0  0  0
   -3.4864   -0.7539    0.0000 C   0  0  0  0  0  0  0  0  0  0  0  0
   -4.9646   -0.4987    0.0000 C   0  0  0  0  0  0  0  0  0  0  0  0
   -5.4826    0.9090    0.0000 C   0  0  0  0  0  0  0  0  0  0  0  0
   -6.9608    1.1642    0.0000 C   0  0  0  0  0  0  0  0  0  0  0  0
   -7.4788    2.5719    0.0000 C   0  0  0  0  0  0  0  0  0  0  0  0
   -6.5188    3.7244    0.0000 O   0  0  0  0  0  0  0  0  0  0  0  0
   -8.9570    2.8270    0.0000 O   0  0  0  0  0  0  0  0  0  0  0  0
   -1.4902   -2.4168    0.0000 C   0  0  0  0  0  0  0  0  0  0  0  0
   -0.8278   -3.7626    0.0000 C   0  0  0  0  0  0  0  0  0  0  0  0
    0.6568   -3.5485    0.0000 C   0  0  0  0  0  0  0  0  0  0  0  0
    0.9120   -2.0704    0.0000 C   0  0  0  0  0  0  0  0  0  0  0  0
    2.1812   -1.2709    0.0000 C   0  0  0  0  0  0  0  0  0  0  0  0
    3.5081   -1.9704    0.0000 C   0  0  0  0  0  0  0  0  0  0  0  0
    3.5659   -3.4693    0.0000 O   0  0  0  0  0  0  0  0  0  0  0  0
    4.7774   -1.1710    0.0000 C   0  0  0  0  0  0  0  0  0  0  0  0
    4.7196    0.3279    0.0000 C   0  0  0  0  0  0  0  0  0  0  0  0
    5.9889    1.1273    0.0000 C   0  0  0  0  0  0  0  0  0  0  0  0
    5.9311    2.6262    0.0000 C   0  0  0  0  0  0  0  0  0  0  0  0
    7.2004    3.4257    0.0000 O   0  0  0  0  0  0  0  0  0  0  0  0
    4.6042    3.3257    0.0000 C   0  0  0  0  0  0  0  0  0  0  0  0
    3.3350    2.5263    0.0000 C   0  0  0  0  0  0  0  0  0  0  0  0
    3.3927    1.0274    0.0000 C   0  0  0  0  0  0  0  0  0  0  0  0
    2.0658    1.7268    0.0000 C   0  0  0  0  0  0  0  0  0  0  0  0
    2.1235    0.2279    0.0000 C   0  0  0  0  0  0  0  0  0  0  0  0
    0.7966    0.9274    0.0000 C   0  0  0  0  0  0  0  0  0  0  0  0
   -0.4727    0.1280    0.0000 C   0  0  0  0  0  0  0  0  0  0  0  0
   -0.4149   -1.3709    0.0000 C   0  0  0  0  0  0  0  0  0  0  0  0
   -1.8077   -0.8140    0.0000 C   0  0  0  0  0  0  0  0  0  0  0  0
  2  1  1  6
  2  3  1  0
  3  4  1  0
  4  5  1  0
  5  6  1  0
  6  7  1  0
  7  8  2  0
  7  9  1  0
  2 10  1  0
 10 11  1  6
 11 12  1  0
 13 12  1  6
 13 14  1  0
 14 15  1  1
 15 16  1  6
 15 17  1  0
 18 17  1  1
 18 19  1  0
 19 20  1  0
 20 21  1  1
 20 22  1  0
 22 23  1  0
 23 24  1  0
 24 25  1  6
 24 26  1  0
 26 27  1  6
 27 28  1  0
 28 29  1  0
 29 30  1  6
 29 10  1  0
 29 13  1  0
 26 14  1  0
 24 18  1  0
M  END
>  <MS_ID>  (2955) 
MS3057

>  <SMILES>  (2955) 
C[C@H](CCCCC(=O)O)[C@H]1CC[C@H]2[C@@H]3[C@@H](O)C[C@@H]4C[C@H](O)CC[C@]4(C)[C@H]3CC[C@]12C

>  <Structure_dimension>  (2955) 
2D

$$$$
MS3060
     RDKit          2D

 31 34  0  0  0  0  0  0  0  0999 V2000
   -3.8035   -3.1834    0.0000 C   0  0  0  0  0  0  0  0  0  0  0  0
   -2.8200   -2.0508    0.0000 C   0  0  0  0  0  0  0  0  0  0  0  0
   -3.3090   -0.6328    0.0000 C   0  0  0  0  0  0  0  0  0  0  0  0
   -4.7816   -0.3473    0.0000 C   0  0  0  0  0  0  0  0  0  0  0  0
   -5.7651   -1.4798    0.0000 O   0  0  0  0  0  0  0  0  0  0  0  0
   -5.2706    1.0708    0.0000 N   0  0  0  0  0  0  0  0  0  0  0  0
   -6.7432    1.3563    0.0000 C   0  0  0  0  0  0  0  0  0  0  0  0
   -7.2323    2.7743    0.0000 C   0  0  0  0  0  0  0  0  0  0  0  0
   -6.2487    3.9068    0.0000 O   0  0  0  0  0  0  0  0  0  0  0  0
   -8.7048    3.0598    0.0000 O   0  0  0  0  0  0  0  0  0  0  0  0
   -1.3474   -2.3363    0.0000 C   0  0  0  0  0  0  0  0  0  0  0  0
   -0.7128   -3.6955    0.0000 C   0  0  0  0  0  0  0  0  0  0  0  0
    0.7759   -3.5119    0.0000 C   0  0  0  0  0  0  0  0  0  0  0  0
    1.0614   -2.0393    0.0000 C   0  0  0  0  0  0  0  0  0  0  0  0
    2.3468   -1.2662    0.0000 C   0  0  0  0  0  0  0  0  0  0  0  0
    3.6591   -1.9927    0.0000 C   0  0  0  0  0  0  0  0  0  0  0  0
    3.6860   -3.4925    0.0000 O   0  0  0  0  0  0  0  0  0  0  0  0
    4.9445   -1.2196    0.0000 C   0  0  0  0  0  0  0  0  0  0  0  0
    4.9176    0.2802    0.0000 C   0  0  0  0  0  0  0  0  0  0  0  0
    6.2029    1.0534    0.0000 C   0  0  0  0  0  0  0  0  0  0  0  0
    6.1760    2.5532    0.0000 C   0  0  0  0  0  0  0  0  0  0  0  0
    7.4614    3.3263    0.0000 O   0  0  0  0  0  0  0  0  0  0  0  0
    4.8637    3.2797    0.0000 C   0  0  0  0  0  0  0  0  0  0  0  0
    3.5784    2.5065    0.0000 C   0  0  0  0  0  0  0  0  0  0  0  0
    3.6053    1.0068    0.0000 C   0  0  0  0  0  0  0  0  0  0  0  0
    2.2930    1.7334    0.0000 C   0  0  0  0  0  0  0  0  0  0  0  0
    2.3199    0.2336    0.0000 C   0  0  0  0  0  0  0  0  0  0  0  0
    1.0076    0.9602    0.0000 C   0  0  0  0  0  0  0  0  0  0  0  0
   -0.2778    0.1870    0.0000 C   0  0  0  0  0  0  0  0  0  0  0  0
   -0.2508   -1.3128    0.0000 C   0  0  0  0  0  0  0  0  0  0  0  0
   -1.6319   -0.7274    0.0000 C   0  0  0  0  0  0  0  0  0  0  0  0
  2  1  1  6
  2  3  1  0
  3  4  1  0
  4  5  2  0
  4  6  1  0
  6  7  1  0
  7  8  1  0
  8  9  2  0
  8 10  1  0
  2 11  1  0
 11 12  1  6
 12 13  1  0
 14 13  1  6
 14 15  1  0
 15 16  1  1
 16 17  1  6
 16 18  1  0
 19 18  1  1
 19 20  1  0
 20 21  1  0
 21 22  1  1
 21 23  1  0
 23 24  1  0
 24 25  1  0
 25 26  1  6
 25 27  1  0
 27 28  1  6
 28 29  1  0
 29 30  1  0
 30 31  1  6
 30 11  1  0
 30 14  1  0
 27 15  1  0
 25 19  1  0
M  END
>  <MS_ID>  (2956) 
MS3060

>  <SMILES>  (2956) 
C[C@H](CC(=O)NCC(=O)O)[C@H]1CC[C@H]2[C@@H]3[C@@H](O)C[C@@H]4C[C@H](O)CC[C@]4(C)[C@H]3CC[C@]12C

>  <Structure_dimension>  (2956) 
2D

$$$$
MS3061
     RDKit          2D

 22 25  0  0  0  0  0  0  0  0999 V2000
   -6.4799    0.5487    0.0000 C   0  0  0  0  0  0  0  0  0  0  0  0
   -5.0509    1.0047    0.0000 O   0  0  0  0  0  0  0  0  0  0  0  0
   -3.9415   -0.0049    0.0000 C   0  0  0  0  0  0  0  0  0  0  0  0
   -4.1062   -1.4958    0.0000 C   0  0  0  0  0  0  0  0  0  0  0  0
   -2.7392   -2.1132    0.0000 C   0  0  0  0  0  0  0  0  0  0  0  0
   -1.7296   -1.0038    0.0000 C   0  0  0  0  0  0  0  0  0  0  0  0
   -0.2296   -1.0118    0.0000 C   0  0  0  0  0  0  0  0  0  0  0  0
    0.5135   -2.3148    0.0000 C   0  0  0  0  0  0  0  0  0  0  0  0
    2.0135   -2.3228    0.0000 C   0  0  0  0  0  0  0  0  0  0  0  0
    2.7704   -1.0277    0.0000 C   0  0  0  0  0  0  0  0  0  0  0  0
    4.2703   -1.0357    0.0000 C   0  0  0  0  0  0  0  0  0  0  0  0
    5.0272    0.2594    0.0000 C   0  0  0  0  0  0  0  0  0  0  0  0
    6.5272    0.2514    0.0000 O   0  0  0  0  0  0  0  0  0  0  0  0
    4.2841    1.5624    0.0000 C   0  0  0  0  0  0  0  0  0  0  0  0
    2.7841    1.5703    0.0000 C   0  0  0  0  0  0  0  0  0  0  0  0
    2.0273    0.2753    0.0000 C   0  0  0  0  0  0  0  0  0  0  0  0
    1.2842    1.5783    0.0000 C   0  0  0  0  0  0  0  0  0  0  0  0
    0.5273    0.2832    0.0000 C   0  0  0  0  0  0  0  0  0  0  0  0
   -0.2158    1.5862    0.0000 C   0  0  0  0  0  0  0  0  0  0  0  0
   -1.7158    1.5942    0.0000 C   0  0  0  0  0  0  0  0  0  0  0  0
   -2.4727    0.2992    0.0000 C   0  0  0  0  0  0  0  0  0  0  0  0
   -3.3479    1.5173    0.0000 C   0  0  0  0  0  0  0  0  0  0  0  0
  1  2  1  0
  3  2  1  6
  3  4  1  0
  4  5  1  0
  6  5  1  6
  6  7  1  0
  7  8  1  1
  8  9  1  0
 10  9  1  1
 10 11  1  0
 11 12  1  0
 12 13  1  1
 12 14  1  0
 14 15  1  0
 15 16  1  0
 16 17  1  6
 16 18  1  0
 18 19  1  6
 19 20  1  0
 20 21  1  0
 21 22  1  6
 21  3  1  0
 21  6  1  0
 18  7  1  0
 16 10  1  0
M  END
>  <MS_ID>  (2957) 
MS3061

>  <SMILES>  (2957) 
CO[C@H]1CC[C@H]2[C@@H]3CC[C@@H]4C[C@H](O)CC[C@]4(C)[C@H]3CC[C@]12C

>  <Structure_dimension>  (2957) 
2D

$$$$
MS3064
     RDKit          2D

 24 27  0  0  0  0  0  0  0  0999 V2000
   -7.1591    0.8654    0.0000 C   0  0  0  0  0  0  0  0  0  0  0  0
   -5.9784   -0.0597    0.0000 O   0  0  0  0  0  0  0  0  0  0  0  0
   -4.5869    0.5003    0.0000 C   0  0  0  0  0  0  0  0  0  0  0  0
   -4.3760    1.9854    0.0000 O   0  0  0  0  0  0  0  0  0  0  0  0
   -3.4061   -0.4248    0.0000 C   0  0  0  0  0  0  0  0  0  0  0  0
   -3.4606   -1.9239    0.0000 C   0  0  0  0  0  0  0  0  0  0  0  0
   -2.0517   -2.4388    0.0000 C   0  0  0  0  0  0  0  0  0  0  0  0
   -1.1266   -1.2581    0.0000 C   0  0  0  0  0  0  0  0  0  0  0  0
    0.3699   -1.1555    0.0000 C   0  0  0  0  0  0  0  0  0  0  0  0
    1.2070   -2.4003    0.0000 C   0  0  0  0  0  0  0  0  0  0  0  0
    2.7034   -2.2977    0.0000 C   0  0  0  0  0  0  0  0  0  0  0  0
    3.3629   -0.9504    0.0000 C   0  0  0  0  0  0  0  0  0  0  0  0
    4.8594   -0.8479    0.0000 C   0  0  0  0  0  0  0  0  0  0  0  0
    5.5188    0.4994    0.0000 C   0  0  0  0  0  0  0  0  0  0  0  0
    7.0153    0.6020    0.0000 O   0  0  0  0  0  0  0  0  0  0  0  0
    4.6817    1.7441    0.0000 C   0  0  0  0  0  0  0  0  0  0  0  0
    3.1852    1.6416    0.0000 C   0  0  0  0  0  0  0  0  0  0  0  0
    2.5258    0.2943    0.0000 C   0  0  0  0  0  0  0  0  0  0  0  0
    1.6887    1.5390    0.0000 C   0  0  0  0  0  0  0  0  0  0  0  0
    1.0293    0.1917    0.0000 C   0  0  0  0  0  0  0  0  0  0  0  0
    0.1923    1.4364    0.0000 C   0  0  0  0  0  0  0  0  0  0  0  0
   -1.3042    1.3339    0.0000 C   0  0  0  0  0  0  0  0  0  0  0  0
   -1.9637   -0.0134    0.0000 C   0  0  0  0  0  0  0  0  0  0  0  0
   -2.9262    1.1370    0.0000 C   0  0  0  0  0  0  0  0  0  0  0  0
  1  2  1  0
  2  3  1  0
  3  4  2  0
  5  3  1  6
  5  6  1  0
  6  7  1  0
  8  7  1  6
  8  9  1  0
  9 10  1  1
 10 11  1  0
 12 11  1  1
 12 13  1  0
 13 14  1  0
 14 15  2  0
 14 16  1  0
 16 17  1  0
 17 18  1  0
 18 19  1  6
 18 20  1  0
 20 21  1  6
 21 22  1  0
 22 23  1  0
 23 24  1  6
 23  5  1  0
 23  8  1  0
 20  9  1  0
 18 12  1  0
M  END
>  <MS_ID>  (2958) 
MS3064

>  <SMILES>  (2958) 
COC(=O)[C@H]1CC[C@H]2[C@@H]3CC[C@@H]4CC(=O)CC[C@]4(C)[C@H]3CC[C@]12C

>  <Structure_dimension>  (2958) 
2D

$$$$
MS3065
     RDKit          2D

 28 31  0  0  0  0  0  0  0  0999 V2000
    0.7117   -1.1345    0.0000 C   0  0  0  0  0  0  0  0  0  0  0  0
    1.3916    0.2026    0.0000 C   0  0  0  0  0  0  0  0  0  0  0  0
    2.2095   -1.0548    0.0000 C   0  0  0  0  0  0  0  0  0  0  0  0
    3.7074   -0.9751    0.0000 C   0  0  0  0  0  0  0  0  0  0  0  0
    4.3873    0.3619    0.0000 C   0  0  0  0  0  0  0  0  0  0  0  0
    5.8852    0.4416    0.0000 O   0  0  0  0  0  0  0  0  0  0  0  0
    6.7032   -0.8157    0.0000 S   0  0  0  0  0  0  0  0  0  0  0  0
    5.4458   -1.6337    0.0000 O   0  0  0  0  0  0  0  0  0  0  0  0
    7.9605    0.0022    0.0000 O   0  0  0  0  0  0  0  0  0  0  0  0
    7.5211   -2.0731    0.0000 O   0  0  0  0  0  0  0  0  0  0  0  0
    3.5694    1.6193    0.0000 C   0  0  0  0  0  0  0  0  0  0  0  0
    2.0715    1.5396    0.0000 C   0  0  0  0  0  0  0  0  0  0  0  0
    1.2535    2.7970    0.0000 C   0  0  0  0  0  0  0  0  0  0  0  0
   -0.2443    2.7173    0.0000 C   0  0  0  0  0  0  0  0  0  0  0  0
   -0.9243    1.3802    0.0000 C   0  0  0  0  0  0  0  0  0  0  0  0
   -0.1063    0.1229    0.0000 C   0  0  0  0  0  0  0  0  0  0  0  0
   -0.7862   -1.2142    0.0000 C   0  0  0  0  0  0  0  0  0  0  0  0
   -2.2841   -1.2939    0.0000 C   0  0  0  0  0  0  0  0  0  0  0  0
   -3.1021   -0.0365    0.0000 C   0  0  0  0  0  0  0  0  0  0  0  0
   -3.9180   -1.2952    0.0000 C   0  0  0  0  0  0  0  0  0  0  0  0
   -4.5838    0.1969    0.0000 C   0  0  0  0  0  0  0  0  0  0  0  0
   -5.6436   -0.8646    0.0000 C   0  0  0  0  0  0  0  0  0  0  0  0
   -5.2542   -2.3131    0.0000 O   0  0  0  0  0  0  0  0  0  0  0  0
   -7.0928   -0.4775    0.0000 C   0  0  0  0  0  0  0  0  0  0  0  0
   -8.1526   -1.5390    0.0000 O   0  0  0  0  0  0  0  0  0  0  0  0
   -4.8196    1.6783    0.0000 C   0  0  0  0  0  0  0  0  0  0  0  0
   -3.4836    2.3603    0.0000 C   0  0  0  0  0  0  0  0  0  0  0  0
   -2.4221    1.3005    0.0000 C   0  0  0  0  0  0  0  0  0  0  0  0
  2  1  1  1
  2  3  1  0
  3  4  1  0
  4  5  1  0
  5  6  1  6
  6  7  1  0
  7  8  2  0
  7  9  2  0
  7 10  1  0
  5 11  1  0
 12 11  1  6
 12 13  1  0
 13 14  1  0
 15 14  1  6
 15 16  1  0
 16 17  1  1
 17 18  1  0
 18 19  1  0
 19 20  1  1
 19 21  1  0
 21 22  1  1
 22 23  2  0
 22 24  1  0
 24 25  1  0
 21 26  1  0
 26 27  1  0
 28 27  1  1
 12  2  1  0
 28 15  1  0
 16  2  1  0
 28 19  1  0
M  END
>  <MS_ID>  (2959) 
MS3065

>  <SMILES>  (2959) 
C[C@]12CC[C@@H](OS(=O)(=O)O)C[C@H]1CC[C@@H]1[C@@H]2CC[C@]2(C)[C@@H](C(=O)CO)CC[C@@H]12

>  <Structure_dimension>  (2959) 
2D

$$$$
MS3066
     RDKit          2D

 36 39  0  0  0  0  0  0  0  0999 V2000
   -2.0251   -4.3636    0.0000 C   0  0  0  0  0  0  0  0  0  0  0  0
   -1.3125   -3.0437    0.0000 C   0  0  0  0  0  0  0  0  0  0  0  0
   -2.0994   -1.7666    0.0000 C   0  0  0  0  0  0  0  0  0  0  0  0
   -3.5987   -1.8095    0.0000 C   0  0  0  0  0  0  0  0  0  0  0  0
   -4.3856   -0.5324    0.0000 C   0  0  0  0  0  0  0  0  0  0  0  0
   -3.6730    0.7876    0.0000 O   0  0  0  0  0  0  0  0  0  0  0  0
   -5.8850   -0.5753    0.0000 N   0  0  0  0  0  0  0  0  0  0  0  0
   -6.6718    0.7018    0.0000 C   0  0  0  0  0  0  0  0  0  0  0  0
   -8.1712    0.6589    0.0000 C   0  0  0  0  0  0  0  0  0  0  0  0
   -8.9580    1.9360    0.0000 C   0  0  0  0  0  0  0  0  0  0  0  0
  -10.4574    1.8931    0.0000 O   0  0  0  0  0  0  0  0  0  0  0  0
   -5.9592    2.0218    0.0000 C   0  0  0  0  0  0  0  0  0  0  0  0
   -4.4598    2.0646    0.0000 O   0  0  0  0  0  0  0  0  0  0  0  0
   -6.7460    3.2988    0.0000 O   0  0  0  0  0  0  0  0  0  0  0  0
    0.1869   -3.0008    0.0000 C   0  0  0  0  0  0  0  0  0  0  0  0
    1.1029   -4.1886    0.0000 C   0  0  0  0  0  0  0  0  0  0  0  0
    2.5156   -3.6845    0.0000 C   0  0  0  0  0  0  0  0  0  0  0  0
    2.4727   -2.1851    0.0000 C   0  0  0  0  0  0  0  0  0  0  0  0
    3.5583   -1.1500    0.0000 C   0  0  0  0  0  0  0  0  0  0  0  0
    4.9976   -1.5725    0.0000 C   0  0  0  0  0  0  0  0  0  0  0  0
    5.3512   -3.0302    0.0000 O   0  0  0  0  0  0  0  0  0  0  0  0
    6.0831   -0.5374    0.0000 C   0  0  0  0  0  0  0  0  0  0  0  0
    5.7295    0.9203    0.0000 C   0  0  0  0  0  0  0  0  0  0  0  0
    6.8150    1.9555    0.0000 C   0  0  0  0  0  0  0  0  0  0  0  0
    6.4614    3.4132    0.0000 C   0  0  0  0  0  0  0  0  0  0  0  0
    7.5469    4.4483    0.0000 O   0  0  0  0  0  0  0  0  0  0  0  0
    5.0221    3.8357    0.0000 C   0  0  0  0  0  0  0  0  0  0  0  0
    3.9365    2.8006    0.0000 C   0  0  0  0  0  0  0  0  0  0  0  0
    4.2902    1.3429    0.0000 C   0  0  0  0  0  0  0  0  0  0  0  0
    2.8510    1.7654    0.0000 C   0  0  0  0  0  0  0  0  0  0  0  0
    3.2046    0.3077    0.0000 C   0  0  0  0  0  0  0  0  0  0  0  0
    1.7654    0.7303    0.0000 C   0  0  0  0  0  0  0  0  0  0  0  0
    0.6798   -0.3048    0.0000 C   0  0  0  0  0  0  0  0  0  0  0  0
   -0.7594    0.1177    0.0000 O   0  0  0  0  0  0  0  0  0  0  0  0
    1.0335   -1.7626    0.0000 C   0  0  0  0  0  0  0  0  0  0  0  0
   -0.4421   -1.4928    0.0000 C   0  0  0  0  0  0  0  0  0  0  0  0
  2  1  1  6
  2  3  1  0
  3  4  1  0
  4  5  1  0
  5  6  2  0
  5  7  1  0
  7  8  1  0
  8  9  1  1
  9 10  1  0
 10 11  1  0
  8 12  1  0
 12 13  2  0
 12 14  1  0
  2 15  1  0
 15 16  1  6
 16 17  1  0
 18 17  1  6
 18 19  1  0
 19 20  1  1
 20 21  1  1
 20 22  1  0
 23 22  1  1
 23 24  1  0
 24 25  1  0
 25 26  1  1
 25 27  1  0
 27 28  1  0
 28 29  1  0
 29 30  1  6
 29 31  1  0
 31 32  1  6
 32 33  1  0
 33 34  1  1
 33 35  1  0
 35 36  1  6
 35 15  1  0
 35 18  1  0
 31 19  1  0
 29 23  1  0
M  END
>  <MS_ID>  (2960) 
MS3066

>  <SMILES>  (2960) 
C[C@H](CCC(=O)N[C@@H](CCO)C(=O)O)[C@H]1CC[C@H]2[C@@H]3[C@H](O)C[C@@H]4C[C@H](O)CC[C@]4(C)[C@H]3C[C@H](O)[C@]12C

>  <Structure_dimension>  (2960) 
2D

$$$$
MS3067
     RDKit          2D

 25 28  0  0  0  0  0  0  0  0999 V2000
    2.0825   -1.5799    0.0000 C   0  0  0  0  0  0  0  0  0  0  0  0
    2.8559   -0.2947    0.0000 C   0  0  0  0  0  0  0  0  0  0  0  0
    3.5822   -1.6071    0.0000 C   0  0  0  0  0  0  0  0  0  0  0  0
    5.0820   -1.6342    0.0000 C   0  0  0  0  0  0  0  0  0  0  0  0
    5.8554   -0.3490    0.0000 C   0  0  0  0  0  0  0  0  0  0  0  0
    7.3552   -0.3762    0.0000 O   0  0  0  0  0  0  0  0  0  0  0  0
    5.1291    0.9634    0.0000 C   0  0  0  0  0  0  0  0  0  0  0  0
    3.6293    0.9906    0.0000 C   0  0  0  0  0  0  0  0  0  0  0  0
    2.9030    2.3030    0.0000 C   0  0  0  0  0  0  0  0  0  0  0  0
    1.4032    2.3302    0.0000 C   0  0  0  0  0  0  0  0  0  0  0  0
    0.6298    1.0449    0.0000 C   0  0  0  0  0  0  0  0  0  0  0  0
    1.3561   -0.2675    0.0000 C   0  0  0  0  0  0  0  0  0  0  0  0
    0.5827   -1.5527    0.0000 C   0  0  0  0  0  0  0  0  0  0  0  0
   -0.9170   -1.5255    0.0000 C   0  0  0  0  0  0  0  0  0  0  0  0
   -1.6434   -0.2131    0.0000 C   0  0  0  0  0  0  0  0  0  0  0  0
   -2.5469   -1.4105    0.0000 C   0  0  0  0  0  0  0  0  0  0  0  0
   -3.1047    0.1253    0.0000 C   0  0  0  0  0  0  0  0  0  0  0  0
   -4.2374   -0.8580    0.0000 O   0  0  0  0  0  0  0  0  0  0  0  0
   -5.6554   -0.3687    0.0000 S   0  0  0  0  0  0  0  0  0  0  0  0
   -5.1661    1.0492    0.0000 O   0  0  0  0  0  0  0  0  0  0  0  0
   -6.1447   -1.7867    0.0000 O   0  0  0  0  0  0  0  0  0  0  0  0
   -7.0733    0.1206    0.0000 O   0  0  0  0  0  0  0  0  0  0  0  0
   -3.2344    1.6197    0.0000 C   0  0  0  0  0  0  0  0  0  0  0  0
   -1.8533    2.2048    0.0000 C   0  0  0  0  0  0  0  0  0  0  0  0
   -0.8699    1.0721    0.0000 C   0  0  0  0  0  0  0  0  0  0  0  0
  2  1  1  1
  2  3  1  0
  3  4  1  0
  4  5  1  0
  5  6  2  0
  5  7  1  0
  8  7  1  6
  8  9  1  0
  9 10  1  0
 11 10  1  6
 11 12  1  0
 12 13  1  1
 13 14  1  0
 14 15  1  0
 15 16  1  1
 15 17  1  0
 17 18  1  1
 18 19  1  0
 19 20  2  0
 19 21  2  0
 19 22  1  0
 17 23  1  0
 23 24  1  0
 25 24  1  1
  8  2  1  0
 25 11  1  0
 12  2  1  0
 25 15  1  0
M  END
>  <MS_ID>  (2961) 
MS3067

>  <SMILES>  (2961) 
C[C@]12CCC(=O)C[C@H]1CC[C@@H]1[C@@H]2CC[C@]2(C)[C@@H](OS(=O)(=O)O)CC[C@@H]12

>  <Structure_dimension>  (2961) 
2D

$$$$
MS3068
     RDKit          2D

 23 26  0  0  0  0  0  0  0  0999 V2000
    1.3456   -1.4945    0.0000 C   0  0  0  0  0  0  0  0  0  0  0  0
    2.1286   -0.2150    0.0000 C   0  0  0  0  0  0  0  0  0  0  0  0
    2.8452   -1.5328    0.0000 C   0  0  0  0  0  0  0  0  0  0  0  0
    4.3447   -1.5711    0.0000 C   0  0  0  0  0  0  0  0  0  0  0  0
    5.1276   -0.2916    0.0000 C   0  0  0  0  0  0  0  0  0  0  0  0
    6.6271   -0.3299    0.0000 O   0  0  0  0  0  0  0  0  0  0  0  0
    4.4110    1.0261    0.0000 C   0  0  0  0  0  0  0  0  0  0  0  0
    2.9115    1.0644    0.0000 C   0  0  0  0  0  0  0  0  0  0  0  0
    2.1949    2.3822    0.0000 C   0  0  0  0  0  0  0  0  0  0  0  0
    0.6954    2.4205    0.0000 C   0  0  0  0  0  0  0  0  0  0  0  0
   -0.0876    1.1410    0.0000 C   0  0  0  0  0  0  0  0  0  0  0  0
    0.6290   -0.1768    0.0000 C   0  0  0  0  0  0  0  0  0  0  0  0
   -0.1539   -1.4562    0.0000 C   0  0  0  0  0  0  0  0  0  0  0  0
   -1.6534   -1.4179    0.0000 C   0  0  0  0  0  0  0  0  0  0  0  0
   -2.4363   -2.6974    0.0000 O   0  0  0  0  0  0  0  0  0  0  0  0
   -2.3700   -0.1002    0.0000 C   0  0  0  0  0  0  0  0  0  0  0  0
   -3.2823   -1.2908    0.0000 C   0  0  0  0  0  0  0  0  0  0  0  0
   -3.8288    0.2490    0.0000 C   0  0  0  0  0  0  0  0  0  0  0  0
   -4.9687   -0.7259    0.0000 C   0  0  0  0  0  0  0  0  0  0  0  0
   -6.3830   -0.2261    0.0000 O   0  0  0  0  0  0  0  0  0  0  0  0
   -3.9474    1.7443    0.0000 C   0  0  0  0  0  0  0  0  0  0  0  0
   -2.5620    2.3193    0.0000 C   0  0  0  0  0  0  0  0  0  0  0  0
   -1.5871    1.1793    0.0000 C   0  0  0  0  0  0  0  0  0  0  0  0
  2  1  1  1
  2  3  1  0
  3  4  1  0
  4  5  1  0
  5  6  2  0
  5  7  1  0
  8  7  1  6
  8  9  1  0
  9 10  1  0
 11 10  1  6
 11 12  1  0
 12 13  1  1
 13 14  1  0
 14 15  1  1
 14 16  1  0
 16 17  1  1
 16 18  1  0
 18 19  1  1
 19 20  1  0
 18 21  1  0
 21 22  1  0
 23 22  1  1
  8  2  1  0
 23 11  1  0
 12  2  1  0
 23 16  1  0
M  END
>  <MS_ID>  (2962) 
MS3068

>  <SMILES>  (2962) 
C[C@]12CCC(=O)C[C@H]1CC[C@@H]1[C@@H]2C[C@@H](O)[C@]2(C)[C@@H](CO)CC[C@@H]12

>  <Structure_dimension>  (2962) 
2D

$$$$
MS3069
     RDKit          2D

 28 31  0  0  0  0  0  0  0  0999 V2000
   -5.1275   -2.0302    0.0000 C   0  0  0  0  0  0  0  0  0  0  0  0
   -3.9468   -1.1050    0.0000 C   0  0  0  0  0  0  0  0  0  0  0  0
   -4.1576    0.3801    0.0000 N   0  0  0  0  0  0  0  0  0  0  0  0
   -5.5492    0.9401    0.0000 C   0  0  0  0  0  0  0  0  0  0  0  0
   -5.7600    2.4252    0.0000 C   0  0  0  0  0  0  0  0  0  0  0  0
   -4.5793    3.3503    0.0000 O   0  0  0  0  0  0  0  0  0  0  0  0
   -7.1516    2.9851    0.0000 O   0  0  0  0  0  0  0  0  0  0  0  0
   -2.5552   -1.6650    0.0000 C   0  0  0  0  0  0  0  0  0  0  0  0
   -2.1903   -3.1199    0.0000 C   0  0  0  0  0  0  0  0  0  0  0  0
   -0.6938   -3.2225    0.0000 C   0  0  0  0  0  0  0  0  0  0  0  0
   -0.1339   -1.8309    0.0000 C   0  0  0  0  0  0  0  0  0  0  0  0
    1.2750   -1.3159    0.0000 C   0  0  0  0  0  0  0  0  0  0  0  0
    2.4254   -2.2785    0.0000 C   0  0  0  0  0  0  0  0  0  0  0  0
    2.1670   -3.7560    0.0000 O   0  0  0  0  0  0  0  0  0  0  0  0
    3.8342   -1.7635    0.0000 C   0  0  0  0  0  0  0  0  0  0  0  0
    4.0926   -0.2859    0.0000 C   0  0  0  0  0  0  0  0  0  0  0  0
    5.5014    0.2291    0.0000 C   0  0  0  0  0  0  0  0  0  0  0  0
    5.7598    1.7067    0.0000 C   0  0  0  0  0  0  0  0  0  0  0  0
    7.1687    2.2217    0.0000 O   0  0  0  0  0  0  0  0  0  0  0  0
    4.6094    2.6692    0.0000 C   0  0  0  0  0  0  0  0  0  0  0  0
    3.2006    2.1542    0.0000 C   0  0  0  0  0  0  0  0  0  0  0  0
    2.9422    0.6767    0.0000 C   0  0  0  0  0  0  0  0  0  0  0  0
    1.7918    1.6392    0.0000 C   0  0  0  0  0  0  0  0  0  0  0  0
    1.5334    0.1617    0.0000 C   0  0  0  0  0  0  0  0  0  0  0  0
    0.3830    1.1242    0.0000 C   0  0  0  0  0  0  0  0  0  0  0  0
   -1.0259    0.6093    0.0000 C   0  0  0  0  0  0  0  0  0  0  0  0
   -1.2843   -0.8683    0.0000 C   0  0  0  0  0  0  0  0  0  0  0  0
   -2.5290   -0.0313    0.0000 C   0  0  0  0  0  0  0  0  0  0  0  0
  2  1  1  6
  2  3  1  0
  3  4  1  0
  4  5  1  0
  5  6  2  0
  5  7  1  0
  2  8  1  0
  8  9  1  6
  9 10  1  0
 11 10  1  6
 11 12  1  0
 12 13  1  1
 13 14  1  6
 13 15  1  0
 16 15  1  1
 16 17  1  0
 17 18  1  0
 18 19  1  1
 18 20  1  0
 20 21  1  0
 21 22  1  0
 22 23  1  6
 22 24  1  0
 24 25  1  6
 25 26  1  0
 26 27  1  0
 27 28  1  6
 27  8  1  0
 27 11  1  0
 24 12  1  0
 22 16  1  0
M  END
>  <MS_ID>  (2963) 
MS3069

>  <SMILES>  (2963) 
C[C@H](NCC(=O)O)[C@H]1CC[C@H]2[C@@H]3[C@@H](O)C[C@@H]4C[C@H](O)CC[C@]4(C)[C@H]3CC[C@]12C

>  <Structure_dimension>  (2963) 
2D

$$$$
MS3070
     RDKit          2D

 24 27  0  0  0  0  0  0  0  0999 V2000
    1.6887   -1.5390    0.0000 C   0  0  0  0  0  0  0  0  0  0  0  0
    2.5258   -0.2943    0.0000 C   0  0  0  0  0  0  0  0  0  0  0  0
    3.1852   -1.6416    0.0000 C   0  0  0  0  0  0  0  0  0  0  0  0
    4.6817   -1.7441    0.0000 C   0  0  0  0  0  0  0  0  0  0  0  0
    5.5188   -0.4994    0.0000 C   0  0  0  0  0  0  0  0  0  0  0  0
    7.0153   -0.6020    0.0000 O   0  0  0  0  0  0  0  0  0  0  0  0
    4.8594    0.8479    0.0000 C   0  0  0  0  0  0  0  0  0  0  0  0
    3.3629    0.9504    0.0000 C   0  0  0  0  0  0  0  0  0  0  0  0
    2.7034    2.2977    0.0000 C   0  0  0  0  0  0  0  0  0  0  0  0
    1.2070    2.4003    0.0000 C   0  0  0  0  0  0  0  0  0  0  0  0
    0.3699    1.1555    0.0000 C   0  0  0  0  0  0  0  0  0  0  0  0
    1.0293   -0.1917    0.0000 C   0  0  0  0  0  0  0  0  0  0  0  0
    0.1923   -1.4364    0.0000 C   0  0  0  0  0  0  0  0  0  0  0  0
   -1.3042   -1.3339    0.0000 C   0  0  0  0  0  0  0  0  0  0  0  0
   -1.9637    0.0134    0.0000 C   0  0  0  0  0  0  0  0  0  0  0  0
   -2.9262   -1.1370    0.0000 C   0  0  0  0  0  0  0  0  0  0  0  0
   -3.4061    0.4248    0.0000 C   0  0  0  0  0  0  0  0  0  0  0  0
   -4.5869   -0.5003    0.0000 C   0  0  0  0  0  0  0  0  0  0  0  0
   -4.3760   -1.9854    0.0000 O   0  0  0  0  0  0  0  0  0  0  0  0
   -5.9784    0.0597    0.0000 C   0  0  0  0  0  0  0  0  0  0  0  0
   -7.1591   -0.8654    0.0000 O   0  0  0  0  0  0  0  0  0  0  0  0
   -3.4606    1.9239    0.0000 C   0  0  0  0  0  0  0  0  0  0  0  0
   -2.0517    2.4388    0.0000 C   0  0  0  0  0  0  0  0  0  0  0  0
   -1.1266    1.2581    0.0000 C   0  0  0  0  0  0  0  0  0  0  0  0
  2  1  1  1
  2  3  1  0
  3  4  1  0
  4  5  1  0
  5  6  2  0
  5  7  1  0
  8  7  1  6
  8  9  1  0
  9 10  1  0
 11 10  1  6
 11 12  1  0
 12 13  1  1
 13 14  1  0
 14 15  1  0
 15 16  1  1
 15 17  1  0
 17 18  1  6
 18 19  2  0
 18 20  1  0
 20 21  1  0
 17 22  1  0
 22 23  1  0
 24 23  1  1
  8  2  1  0
 24 11  1  0
 12  2  1  0
 24 15  1  0
M  END
>  <MS_ID>  (2964) 
MS3070

>  <SMILES>  (2964) 
C[C@]12CCC(=O)C[C@H]1CC[C@@H]1[C@@H]2CC[C@]2(C)[C@H](C(=O)CO)CC[C@@H]12

>  <Structure_dimension>  (2964) 
2D

$$$$
MS3071
     RDKit          2D

 39 43  0  0  0  0  0  0  0  0999 V2000
   -0.4436   -4.8247    0.0000 C   0  0  0  0  0  0  0  0  0  0  0  0
    0.1038   -3.4282    0.0000 C   0  0  0  0  0  0  0  0  0  0  0  0
   -0.8319   -2.2559    0.0000 C   0  0  0  0  0  0  0  0  0  0  0  0
   -2.3151   -2.4801    0.0000 C   0  0  0  0  0  0  0  0  0  0  0  0
   -3.2508   -1.3077    0.0000 C   0  0  0  0  0  0  0  0  0  0  0  0
   -2.7034    0.0888    0.0000 O   0  0  0  0  0  0  0  0  0  0  0  0
   -4.7339   -1.5319    0.0000 N   0  0  0  0  0  0  0  0  0  0  0  0
   -5.6697   -0.3596    0.0000 C   0  0  0  0  0  0  0  0  0  0  0  0
   -7.1528   -0.5838    0.0000 C   0  0  0  0  0  0  0  0  0  0  0  0
   -7.7002   -1.9803    0.0000 O   0  0  0  0  0  0  0  0  0  0  0  0
   -8.0886    0.5886    0.0000 N   0  0  0  0  0  0  0  0  0  0  0  0
   -9.5870    0.5206    0.0000 C   0  0  0  0  0  0  0  0  0  0  0  0
  -10.1147    1.9247    0.0000 C   0  0  0  0  0  0  0  0  0  0  0  0
   -8.9424    2.8605    0.0000 C   0  0  0  0  0  0  0  0  0  0  0  0
   -7.6901    2.0347    0.0000 C   0  0  0  0  0  0  0  0  0  0  0  0
   -6.2860    2.5623    0.0000 C   0  0  0  0  0  0  0  0  0  0  0  0
   -5.1270    1.6102    0.0000 O   0  0  0  0  0  0  0  0  0  0  0  0
   -6.0409    4.0422    0.0000 O   0  0  0  0  0  0  0  0  0  0  0  0
    1.5870   -3.2040    0.0000 C   0  0  0  0  0  0  0  0  0  0  0  0
    2.6401   -4.2721    0.0000 C   0  0  0  0  0  0  0  0  0  0  0  0
    3.9814   -3.6006    0.0000 C   0  0  0  0  0  0  0  0  0  0  0  0
    3.7572   -2.1174    0.0000 C   0  0  0  0  0  0  0  0  0  0  0  0
    4.7094   -0.9584    0.0000 C   0  0  0  0  0  0  0  0  0  0  0  0
    6.1892   -1.2035    0.0000 C   0  0  0  0  0  0  0  0  0  0  0  0
    6.7169   -2.6076    0.0000 O   0  0  0  0  0  0  0  0  0  0  0  0
    7.1414   -0.0444    0.0000 C   0  0  0  0  0  0  0  0  0  0  0  0
    6.6137    1.3597    0.0000 C   0  0  0  0  0  0  0  0  0  0  0  0
    7.5659    2.5187    0.0000 C   0  0  0  0  0  0  0  0  0  0  0  0
    7.0382    3.9229    0.0000 C   0  0  0  0  0  0  0  0  0  0  0  0
    7.9904    5.0819    0.0000 O   0  0  0  0  0  0  0  0  0  0  0  0
    5.5584    4.1679    0.0000 C   0  0  0  0  0  0  0  0  0  0  0  0
    4.6062    3.0089    0.0000 C   0  0  0  0  0  0  0  0  0  0  0  0
    5.1339    1.6048    0.0000 C   0  0  0  0  0  0  0  0  0  0  0  0
    3.6541    1.8499    0.0000 C   0  0  0  0  0  0  0  0  0  0  0  0
    4.1817    0.4457    0.0000 C   0  0  0  0  0  0  0  0  0  0  0  0
    2.7019    0.6908    0.0000 C   0  0  0  0  0  0  0  0  0  0  0  0
    1.7497   -0.4682    0.0000 C   0  0  0  0  0  0  0  0  0  0  0  0
    2.2774   -1.8723    0.0000 C   0  0  0  0  0  0  0  0  0  0  0  0
    0.7800   -1.7833    0.0000 C   0  0  0  0  0  0  0  0  0  0  0  0
  2  1  1  6
  2  3  1  0
  3  4  1  0
  4  5  1  0
  5  6  2  0
  5  7  1  0
  7  8  1  0
  8  9  1  0
  9 10  2  0
  9 11  1  0
 11 12  1  0
 12 13  1  0
 13 14  1  0
 14 15  1  0
 15 16  1  1
 16 17  2  0
 16 18  1  0
  2 19  1  0
 19 20  1  6
 20 21  1  0
 22 21  1  6
 22 23  1  0
 23 24  1  1
 24 25  1  6
 24 26  1  0
 27 26  1  1
 27 28  1  0
 28 29  1  0
 29 30  1  1
 29 31  1  0
 31 32  1  0
 32 33  1  0
 33 34  1  6
 33 35  1  0
 35 36  1  6
 36 37  1  0
 37 38  1  0
 38 39  1  6
 15 11  1  0
 38 19  1  0
 38 22  1  0
 35 23  1  0
 33 27  1  0
M  END
>  <MS_ID>  (2965) 
MS3071

>  <SMILES>  (2965) 
C[C@H](CCC(=O)NCC(=O)N1CCC[C@H]1C(=O)O)[C@H]1CC[C@H]2[C@@H]3[C@@H](O)C[C@@H]4C[C@H](O)CC[C@]4(C)[C@H]3CC[C@]12C

>  <Structure_dimension>  (2965) 
2D

$$$$
MS3072
     RDKit          2D

 25 28  0  0  0  0  0  0  0  0999 V2000
   -6.2011   -0.0039    0.0000 C   0  0  0  0  0  0  0  0  0  0  0  0
   -4.8118    0.5619    0.0000 C   0  0  0  0  0  0  0  0  0  0  0  0
   -4.6071    2.0478    0.0000 O   0  0  0  0  0  0  0  0  0  0  0  0
   -3.6273   -0.3584    0.0000 C   0  0  0  0  0  0  0  0  0  0  0  0
   -3.6756   -1.8576    0.0000 C   0  0  0  0  0  0  0  0  0  0  0  0
   -2.2646   -2.3668    0.0000 C   0  0  0  0  0  0  0  0  0  0  0  0
   -1.3444   -1.1823    0.0000 C   0  0  0  0  0  0  0  0  0  0  0  0
    0.1517   -1.0736    0.0000 C   0  0  0  0  0  0  0  0  0  0  0  0
    0.9939   -2.3148    0.0000 C   0  0  0  0  0  0  0  0  0  0  0  0
    0.3400   -3.6648    0.0000 O   0  0  0  0  0  0  0  0  0  0  0  0
    2.4899   -2.2061    0.0000 C   0  0  0  0  0  0  0  0  0  0  0  0
    3.1438   -0.8561    0.0000 C   0  0  0  0  0  0  0  0  0  0  0  0
    4.6399   -0.7474    0.0000 C   0  0  0  0  0  0  0  0  0  0  0  0
    5.2937    0.6026    0.0000 C   0  0  0  0  0  0  0  0  0  0  0  0
    6.7898    0.7113    0.0000 O   0  0  0  0  0  0  0  0  0  0  0  0
    4.4516    1.8438    0.0000 C   0  0  0  0  0  0  0  0  0  0  0  0
    2.9555    1.7351    0.0000 C   0  0  0  0  0  0  0  0  0  0  0  0
    2.3016    0.3851    0.0000 C   0  0  0  0  0  0  0  0  0  0  0  0
    1.4594    1.6264    0.0000 C   0  0  0  0  0  0  0  0  0  0  0  0
    0.8056    0.2764    0.0000 C   0  0  0  0  0  0  0  0  0  0  0  0
   -0.0366    1.5177    0.0000 C   0  0  0  0  0  0  0  0  0  0  0  0
   -1.5327    1.4090    0.0000 C   0  0  0  0  0  0  0  0  0  0  0  0
   -2.3748    2.6502    0.0000 O   0  0  0  0  0  0  0  0  0  0  0  0
   -2.1865    0.0590    0.0000 C   0  0  0  0  0  0  0  0  0  0  0  0
   -3.1539    1.2054    0.0000 C   0  0  0  0  0  0  0  0  0  0  0  0
  1  2  1  0
  2  3  2  0
  4  2  1  6
  4  5  1  0
  5  6  1  0
  7  6  1  6
  7  8  1  0
  8  9  1  1
  9 10  1  1
  9 11  1  0
 12 11  1  1
 12 13  1  0
 13 14  1  0
 14 15  2  0
 14 16  1  0
 16 17  1  0
 17 18  1  0
 18 19  1  6
 18 20  1  0
 20 21  1  6
 21 22  1  0
 22 23  1  1
 22 24  1  0
 24 25  1  6
 24  4  1  0
 24  7  1  0
 20  8  1  0
 18 12  1  0
M  END
>  <MS_ID>  (2966) 
MS3072

>  <SMILES>  (2966) 
CC(=O)[C@H]1CC[C@H]2[C@@H]3[C@H](O)C[C@@H]4CC(=O)CC[C@]4(C)[C@H]3C[C@H](O)[C@]12C

>  <Structure_dimension>  (2966) 
2D

$$$$
MS3073
     RDKit          2D

 26 29  0  0  0  0  0  0  0  0999 V2000
   -5.9216   -0.5493    0.0000 C   0  0  0  0  0  0  0  0  0  0  0  0
   -4.5773    0.1161    0.0000 C   0  0  0  0  0  0  0  0  0  0  0  0
   -4.4813    1.6130    0.0000 C   0  0  0  0  0  0  0  0  0  0  0  0
   -3.1370    2.2784    0.0000 O   0  0  0  0  0  0  0  0  0  0  0  0
   -5.7297    2.4446    0.0000 O   0  0  0  0  0  0  0  0  0  0  0  0
   -3.3289   -0.7155    0.0000 C   0  0  0  0  0  0  0  0  0  0  0  0
   -3.2678   -2.2142    0.0000 C   0  0  0  0  0  0  0  0  0  0  0  0
   -1.8235   -2.6193    0.0000 C   0  0  0  0  0  0  0  0  0  0  0  0
   -0.9920   -1.3709    0.0000 C   0  0  0  0  0  0  0  0  0  0  0  0
    0.4922   -1.1535    0.0000 C   0  0  0  0  0  0  0  0  0  0  0  0
    1.4225   -2.3302    0.0000 C   0  0  0  0  0  0  0  0  0  0  0  0
    0.8687   -3.7242    0.0000 O   0  0  0  0  0  0  0  0  0  0  0  0
    2.9067   -2.1128    0.0000 C   0  0  0  0  0  0  0  0  0  0  0  0
    3.4605   -0.7188    0.0000 C   0  0  0  0  0  0  0  0  0  0  0  0
    4.9447   -0.5014    0.0000 C   0  0  0  0  0  0  0  0  0  0  0  0
    5.4985    0.8926    0.0000 C   0  0  0  0  0  0  0  0  0  0  0  0
    6.9827    1.1100    0.0000 O   0  0  0  0  0  0  0  0  0  0  0  0
    4.5682    2.0693    0.0000 C   0  0  0  0  0  0  0  0  0  0  0  0
    3.0840    1.8519    0.0000 C   0  0  0  0  0  0  0  0  0  0  0  0
    2.5302    0.4579    0.0000 C   0  0  0  0  0  0  0  0  0  0  0  0
    1.5998    1.6345    0.0000 C   0  0  0  0  0  0  0  0  0  0  0  0
    1.0460    0.2405    0.0000 C   0  0  0  0  0  0  0  0  0  0  0  0
    0.1157    1.4171    0.0000 C   0  0  0  0  0  0  0  0  0  0  0  0
   -1.3685    1.1998    0.0000 C   0  0  0  0  0  0  0  0  0  0  0  0
   -1.9223   -0.1943    0.0000 C   0  0  0  0  0  0  0  0  0  0  0  0
   -2.9705    0.8787    0.0000 C   0  0  0  0  0  0  0  0  0  0  0  0
  2  1  1  6
  2  3  1  0
  3  4  2  0
  3  5  1  0
  2  6  1  0
  6  7  1  6
  7  8  1  0
  9  8  1  6
  9 10  1  0
 10 11  1  1
 11 12  1  6
 11 13  1  0
 14 13  1  1
 14 15  1  0
 15 16  1  0
 16 17  1  1
 16 18  1  0
 18 19  1  0
 19 20  1  0
 20 21  1  6
 20 22  1  0
 22 23  1  6
 23 24  1  0
 24 25  1  0
 25 26  1  6
 25  6  1  0
 25  9  1  0
 22 10  1  0
 20 14  1  0
M  END
>  <MS_ID>  (2967) 
MS3073

>  <SMILES>  (2967) 
C[C@H](C(=O)O)[C@H]1CC[C@H]2[C@@H]3[C@@H](O)C[C@@H]4C[C@H](O)CC[C@]4(C)[C@H]3CC[C@]12C

>  <Structure_dimension>  (2967) 
2D

$$$$
MS3074
     RDKit          2D

 34 37  0  0  0  0  0  0  0  0999 V2000
   -1.8061   -4.3079    0.0000 C   0  0  0  0  0  0  0  0  0  0  0  0
   -1.0654   -3.0035    0.0000 C   0  0  0  0  0  0  0  0  0  0  0  0
   -1.8246   -1.7099    0.0000 C   0  0  0  0  0  0  0  0  0  0  0  0
   -3.3246   -1.7206    0.0000 C   0  0  0  0  0  0  0  0  0  0  0  0
   -4.0839   -0.4270    0.0000 C   0  0  0  0  0  0  0  0  0  0  0  0
   -3.3432    0.8774    0.0000 O   0  0  0  0  0  0  0  0  0  0  0  0
   -5.5838   -0.4377    0.0000 N   0  0  0  0  0  0  0  0  0  0  0  0
   -6.3431    0.8559    0.0000 C   0  0  0  0  0  0  0  0  0  0  0  0
   -7.8431    0.8452    0.0000 C   0  0  0  0  0  0  0  0  0  0  0  0
   -8.6024    2.1388    0.0000 C   0  0  0  0  0  0  0  0  0  0  0  0
  -10.1023    2.1281    0.0000 C   0  0  0  0  0  0  0  0  0  0  0  0
  -10.8430    0.8237    0.0000 O   0  0  0  0  0  0  0  0  0  0  0  0
  -10.8616    3.4217    0.0000 O   0  0  0  0  0  0  0  0  0  0  0  0
    0.4346   -2.9928    0.0000 C   0  0  0  0  0  0  0  0  0  0  0  0
    1.3249   -4.2000    0.0000 C   0  0  0  0  0  0  0  0  0  0  0  0
    2.7482   -3.7263    0.0000 C   0  0  0  0  0  0  0  0  0  0  0  0
    2.7374   -2.2263    0.0000 C   0  0  0  0  0  0  0  0  0  0  0  0
    3.8449   -1.2147    0.0000 C   0  0  0  0  0  0  0  0  0  0  0  0
    5.2748   -1.6680    0.0000 C   0  0  0  0  0  0  0  0  0  0  0  0
    6.3823   -0.6563    0.0000 C   0  0  0  0  0  0  0  0  0  0  0  0
    6.0600    0.8086    0.0000 C   0  0  0  0  0  0  0  0  0  0  0  0
    7.1675    1.8203    0.0000 C   0  0  0  0  0  0  0  0  0  0  0  0
    6.8451    3.2852    0.0000 C   0  0  0  0  0  0  0  0  0  0  0  0
    7.9526    4.2969    0.0000 O   0  0  0  0  0  0  0  0  0  0  0  0
    5.4152    3.7385    0.0000 C   0  0  0  0  0  0  0  0  0  0  0  0
    4.3077    2.7269    0.0000 C   0  0  0  0  0  0  0  0  0  0  0  0
    4.6301    1.2619    0.0000 C   0  0  0  0  0  0  0  0  0  0  0  0
    3.2002    1.7152    0.0000 C   0  0  0  0  0  0  0  0  0  0  0  0
    3.5226    0.2503    0.0000 C   0  0  0  0  0  0  0  0  0  0  0  0
    2.0927    0.7036    0.0000 C   0  0  0  0  0  0  0  0  0  0  0  0
    0.9852   -0.3080    0.0000 C   0  0  0  0  0  0  0  0  0  0  0  0
   -0.4447    0.1453    0.0000 O   0  0  0  0  0  0  0  0  0  0  0  0
    1.3076   -1.7730    0.0000 C   0  0  0  0  0  0  0  0  0  0  0  0
   -0.1619   -1.4716    0.0000 C   0  0  0  0  0  0  0  0  0  0  0  0
  2  1  1  6
  2  3  1  0
  3  4  1  0
  4  5  1  0
  5  6  2  0
  5  7  1  0
  7  8  1  0
  8  9  1  0
  9 10  1  0
 10 11  1  0
 11 12  2  0
 11 13  1  0
  2 14  1  0
 14 15  1  6
 15 16  1  0
 17 16  1  6
 17 18  1  0
 18 19  1  1
 19 20  1  0
 21 20  1  1
 21 22  1  0
 22 23  1  0
 23 24  1  1
 23 25  1  0
 25 26  1  0
 26 27  1  0
 27 28  1  6
 27 29  1  0
 29 30  1  6
 30 31  1  0
 31 32  1  1
 31 33  1  0
 33 34  1  6
 33 14  1  0
 33 17  1  0
 29 18  1  0
 27 21  1  0
M  END
>  <MS_ID>  (2968) 
MS3074

>  <SMILES>  (2968) 
C[C@H](CCC(=O)NCCCC(=O)O)[C@H]1CC[C@H]2[C@@H]3CC[C@@H]4C[C@H](O)CC[C@]4(C)[C@H]3C[C@H](O)[C@]12C

>  <Structure_dimension>  (2968) 
2D

$$$$
MS3075
     RDKit          2D

 29 32  0  0  0  0  0  0  0  0999 V2000
   -8.6398    1.0078    0.0000 C   0  0  0  0  0  0  0  0  0  0  0  0
   -7.1525    1.2022    0.0000 C   0  0  0  0  0  0  0  0  0  0  0  0
   -6.5772    2.5875    0.0000 O   0  0  0  0  0  0  0  0  0  0  0  0
   -6.2404    0.0114    0.0000 O   0  0  0  0  0  0  0  0  0  0  0  0
   -4.7531    0.2058    0.0000 C   0  0  0  0  0  0  0  0  0  0  0  0
   -3.8410   -0.9851    0.0000 C   0  0  0  0  0  0  0  0  0  0  0  0
   -4.4163   -2.3703    0.0000 O   0  0  0  0  0  0  0  0  0  0  0  0
   -2.3537   -0.7906    0.0000 C   0  0  0  0  0  0  0  0  0  0  0  0
   -2.8777    0.6149    0.0000 O   0  0  0  0  0  0  0  0  0  0  0  0
   -2.3158   -2.2901    0.0000 C   0  0  0  0  0  0  0  0  0  0  0  0
   -0.8779   -2.7175    0.0000 C   0  0  0  0  0  0  0  0  0  0  0  0
   -0.0272   -1.4820    0.0000 C   0  0  0  0  0  0  0  0  0  0  0  0
    1.4602   -1.2876    0.0000 C   0  0  0  0  0  0  0  0  0  0  0  0
    2.3722   -2.4785    0.0000 C   0  0  0  0  0  0  0  0  0  0  0  0
    3.8596   -2.2840    0.0000 C   0  0  0  0  0  0  0  0  0  0  0  0
    4.4349   -0.8987    0.0000 C   0  0  0  0  0  0  0  0  0  0  0  0
    5.9222   -0.7043    0.0000 C   0  0  0  0  0  0  0  0  0  0  0  0
    6.4975    0.6810    0.0000 C   0  0  0  0  0  0  0  0  0  0  0  0
    7.9848    0.8754    0.0000 O   0  0  0  0  0  0  0  0  0  0  0  0
    5.5854    1.8719    0.0000 C   0  0  0  0  0  0  0  0  0  0  0  0
    4.0981    1.6774    0.0000 C   0  0  0  0  0  0  0  0  0  0  0  0
    3.5228    0.2921    0.0000 C   0  0  0  0  0  0  0  0  0  0  0  0
    2.6107    1.4830    0.0000 C   0  0  0  0  0  0  0  0  0  0  0  0
    2.0355    0.0977    0.0000 C   0  0  0  0  0  0  0  0  0  0  0  0
    1.1234    1.2885    0.0000 C   0  0  0  0  0  0  0  0  0  0  0  0
    1.6987    2.6738    0.0000 O   0  0  0  0  0  0  0  0  0  0  0  0
   -0.3640    1.0941    0.0000 C   0  0  0  0  0  0  0  0  0  0  0  0
   -0.9392   -0.2912    0.0000 C   0  0  0  0  0  0  0  0  0  0  0  0
   -1.8303    0.9154    0.0000 C   0  0  0  0  0  0  0  0  0  0  0  0
  1  2  1  0
  2  3  2  0
  2  4  1  0
  4  5  1  0
  5  6  1  0
  6  7  2  0
  6  8  1  0
  8  9  1  1
  8 10  1  0
 10 11  1  0
 12 11  1  6
 12 13  1  0
 13 14  1  1
 14 15  1  0
 16 15  1  1
 16 17  1  0
 17 18  1  0
 18 19  1  1
 18 20  1  0
 20 21  1  0
 21 22  1  0
 22 23  1  6
 22 24  1  0
 24 25  1  6
 25 26  2  0
 25 27  1  0
 27 28  1  0
 28 29  1  6
 28  8  1  0
 28 12  1  0
 24 13  1  0
 22 16  1  0
M  END
>  <MS_ID>  (2969) 
MS3075

>  <SMILES>  (2969) 
CC(=O)OCC(=O)[C@@]1(O)CC[C@H]2[C@@H]3CC[C@@H]4C[C@H](O)CC[C@]4(C)[C@H]3C(=O)C[C@@]21C

>  <Structure_dimension>  (2969) 
2D

$$$$
MS3076
     RDKit          2D

 23 26  0  0  0  0  0  0  0  0999 V2000
   -0.3818   -3.4467    0.0000 C   0  0  0  0  0  0  0  0  0  0  0  0
    0.3987   -2.1658    0.0000 C   0  0  0  0  0  0  0  0  0  0  0  0
    1.8983   -2.2012    0.0000 C   0  0  0  0  0  0  0  0  0  0  0  0
    2.6787   -0.9203    0.0000 C   0  0  0  0  0  0  0  0  0  0  0  0
    4.1783   -0.9557    0.0000 C   0  0  0  0  0  0  0  0  0  0  0  0
    4.9588    0.3253    0.0000 C   0  0  0  0  0  0  0  0  0  0  0  0
    6.4584    0.2898    0.0000 O   0  0  0  0  0  0  0  0  0  0  0  0
    4.2397    1.6417    0.0000 C   0  0  0  0  0  0  0  0  0  0  0  0
    2.7401    1.6771    0.0000 C   0  0  0  0  0  0  0  0  0  0  0  0
    1.9596    0.3961    0.0000 C   0  0  0  0  0  0  0  0  0  0  0  0
    1.2406    1.7125    0.0000 C   0  0  0  0  0  0  0  0  0  0  0  0
    0.4601    0.4316    0.0000 C   0  0  0  0  0  0  0  0  0  0  0  0
   -0.2590    1.7480    0.0000 C   0  0  0  0  0  0  0  0  0  0  0  0
   -1.7586    1.7834    0.0000 C   0  0  0  0  0  0  0  0  0  0  0  0
   -2.5391    0.5025    0.0000 C   0  0  0  0  0  0  0  0  0  0  0  0
   -3.2351    1.8312    0.0000 C   0  0  0  0  0  0  0  0  0  0  0  0
   -1.8200   -0.8139    0.0000 C   0  0  0  0  0  0  0  0  0  0  0  0
   -2.8498   -1.9046    0.0000 C   0  0  0  0  0  0  0  0  0  0  0  0
   -4.2053   -1.2623    0.0000 C   0  0  0  0  0  0  0  0  0  0  0  0
   -4.0133    0.2254    0.0000 C   0  0  0  0  0  0  0  0  0  0  0  0
   -5.5129    0.2608    0.0000 C   0  0  0  0  0  0  0  0  0  0  0  0
   -4.3161    1.6945    0.0000 O   0  0  0  0  0  0  0  0  0  0  0  0
   -0.3204   -0.8494    0.0000 C   0  0  0  0  0  0  0  0  0  0  0  0
  2  1  1  1
  2  3  1  0
  4  3  1  1
  4  5  1  0
  5  6  1  0
  6  7  1  6
  6  8  1  0
  8  9  1  0
  9 10  1  0
 10 11  1  6
 10 12  1  0
 12 13  1  6
 13 14  1  0
 14 15  1  0
 15 16  1  6
 15 17  1  0
 17 18  1  6
 18 19  1  0
 19 20  1  0
 20 21  1  1
 20 22  1  0
 17 23  1  0
 23  2  1  1
 10  4  1  0
 23 12  1  0
 20 15  1  0
M  END
>  <MS_ID>  (2970) 
MS3076

>  <SMILES>  (2970) 
C[C@@H]1C[C@@H]2C[C@@H](O)CC[C@]2(C)[C@H]2CC[C@@]3(C)[C@@H](CC[C@]3(C)O)[C@H]12

>  <Structure_dimension>  (2970) 
2D

$$$$
MS3077
     RDKit          2D

 36 39  0  0  0  0  0  0  0  0999 V2000
   -1.6581   -4.5124    0.0000 C   0  0  0  0  0  0  0  0  0  0  0  0
   -0.9928   -3.1680    0.0000 C   0  0  0  0  0  0  0  0  0  0  0  0
   -1.8245   -1.9197    0.0000 C   0  0  0  0  0  0  0  0  0  0  0  0
   -3.3214   -2.0157    0.0000 C   0  0  0  0  0  0  0  0  0  0  0  0
   -4.1530   -0.7674    0.0000 C   0  0  0  0  0  0  0  0  0  0  0  0
   -3.4877    0.5770    0.0000 O   0  0  0  0  0  0  0  0  0  0  0  0
   -5.6499   -0.8634    0.0000 N   0  0  0  0  0  0  0  0  0  0  0  0
   -6.4816    0.3850    0.0000 C   0  0  0  0  0  0  0  0  0  0  0  0
   -7.9785    0.2889    0.0000 C   0  0  0  0  0  0  0  0  0  0  0  0
   -8.8101    1.5373    0.0000 C   0  0  0  0  0  0  0  0  0  0  0  0
   -8.1448    2.8817    0.0000 O   0  0  0  0  0  0  0  0  0  0  0  0
  -10.3070    1.4412    0.0000 O   0  0  0  0  0  0  0  0  0  0  0  0
   -5.8163    1.7293    0.0000 C   0  0  0  0  0  0  0  0  0  0  0  0
   -4.3194    1.8254    0.0000 O   0  0  0  0  0  0  0  0  0  0  0  0
   -6.6479    2.9777    0.0000 O   0  0  0  0  0  0  0  0  0  0  0  0
    0.5041   -3.0720    0.0000 C   0  0  0  0  0  0  0  0  0  0  0  0
    1.4616   -4.2266    0.0000 C   0  0  0  0  0  0  0  0  0  0  0  0
    2.8556   -3.6727    0.0000 C   0  0  0  0  0  0  0  0  0  0  0  0
    2.7596   -2.1758    0.0000 C   0  0  0  0  0  0  0  0  0  0  0  0
    3.8078   -1.1028    0.0000 C   0  0  0  0  0  0  0  0  0  0  0  0
    5.2611   -1.4740    0.0000 C   0  0  0  0  0  0  0  0  0  0  0  0
    5.6663   -2.9183    0.0000 O   0  0  0  0  0  0  0  0  0  0  0  0
    6.3093   -0.4010    0.0000 C   0  0  0  0  0  0  0  0  0  0  0  0
    5.9041    1.0432    0.0000 C   0  0  0  0  0  0  0  0  0  0  0  0
    6.9523    2.1162    0.0000 C   0  0  0  0  0  0  0  0  0  0  0  0
    6.5471    3.5605    0.0000 C   0  0  0  0  0  0  0  0  0  0  0  0
    7.5953    4.6335    0.0000 O   0  0  0  0  0  0  0  0  0  0  0  0
    5.0938    3.9317    0.0000 C   0  0  0  0  0  0  0  0  0  0  0  0
    4.0456    2.8587    0.0000 C   0  0  0  0  0  0  0  0  0  0  0  0
    4.4508    1.4145    0.0000 C   0  0  0  0  0  0  0  0  0  0  0  0
    2.9974    1.7857    0.0000 C   0  0  0  0  0  0  0  0  0  0  0  0
    3.4026    0.3415    0.0000 C   0  0  0  0  0  0  0  0  0  0  0  0
    1.9493    0.7127    0.0000 C   0  0  0  0  0  0  0  0  0  0  0  0
    0.9011   -0.3603    0.0000 C   0  0  0  0  0  0  0  0  0  0  0  0
    1.3063   -1.8045    0.0000 C   0  0  0  0  0  0  0  0  0  0  0  0
   -0.1779   -1.5872    0.0000 C   0  0  0  0  0  0  0  0  0  0  0  0
  2  1  1  6
  2  3  1  0
  3  4  1  0
  4  5  1  0
  5  6  2  0
  5  7  1  0
  7  8  1  0
  8  9  1  1
  9 10  1  0
 10 11  2  0
 10 12  1  0
  8 13  1  0
 13 14  2  0
 13 15  1  0
  2 16  1  0
 16 17  1  6
 17 18  1  0
 19 18  1  6
 19 20  1  0
 20 21  1  1
 21 22  1  6
 21 23  1  0
 24 23  1  1
 24 25  1  0
 25 26  1  0
 26 27  1  1
 26 28  1  0
 28 29  1  0
 29 30  1  0
 30 31  1  6
 30 32  1  0
 32 33  1  6
 33 34  1  0
 34 35  1  0
 35 36  1  6
 35 16  1  0
 35 19  1  0
 32 20  1  0
 30 24  1  0
M  END
>  <MS_ID>  (2971) 
MS3077

>  <SMILES>  (2971) 
C[C@H](CCC(=O)N[C@@H](CC(=O)O)C(=O)O)[C@H]1CC[C@H]2[C@@H]3[C@@H](O)C[C@@H]4C[C@H](O)CC[C@]4(C)[C@H]3CC[C@]12C

>  <Structure_dimension>  (2971) 
2D

$$$$
MS3078
     RDKit          2D

 39 42  0  0  0  0  0  0  0  0999 V2000
   -0.1039   -4.7962    0.0000 C   0  0  0  0  0  0  0  0  0  0  0  0
    0.4737   -3.4119    0.0000 C   0  0  0  0  0  0  0  0  0  0  0  0
   -0.4363   -2.2195    0.0000 C   0  0  0  0  0  0  0  0  0  0  0  0
   -1.9240   -2.4114    0.0000 C   0  0  0  0  0  0  0  0  0  0  0  0
   -2.8340   -1.2190    0.0000 C   0  0  0  0  0  0  0  0  0  0  0  0
   -2.2564    0.1653    0.0000 O   0  0  0  0  0  0  0  0  0  0  0  0
   -4.3217   -1.4110    0.0000 N   0  0  0  0  0  0  0  0  0  0  0  0
   -5.2318   -0.2186    0.0000 C   0  0  0  0  0  0  0  0  0  0  0  0
   -6.7194   -0.4105    0.0000 C   0  0  0  0  0  0  0  0  0  0  0  0
   -7.6295    0.7819    0.0000 C   0  0  0  0  0  0  0  0  0  0  0  0
   -9.1172    0.5900    0.0000 C   0  0  0  0  0  0  0  0  0  0  0  0
  -10.0272    1.7823    0.0000 N   0  0  0  0  0  0  0  0  0  0  0  0
  -11.5149    1.5904    0.0000 C   0  0  0  0  0  0  0  0  0  0  0  0
  -12.4249    2.7828    0.0000 N   0  0  0  0  0  0  0  0  0  0  0  0
  -12.0925    0.2061    0.0000 O   0  0  0  0  0  0  0  0  0  0  0  0
   -4.6541    1.1657    0.0000 C   0  0  0  0  0  0  0  0  0  0  0  0
   -3.1665    1.3577    0.0000 O   0  0  0  0  0  0  0  0  0  0  0  0
   -5.5642    2.3581    0.0000 O   0  0  0  0  0  0  0  0  0  0  0  0
    1.9614   -3.2200    0.0000 C   0  0  0  0  0  0  0  0  0  0  0  0
    2.9911   -4.3107    0.0000 C   0  0  0  0  0  0  0  0  0  0  0  0
    4.3467   -3.6684    0.0000 C   0  0  0  0  0  0  0  0  0  0  0  0
    4.1547   -2.1808    0.0000 C   0  0  0  0  0  0  0  0  0  0  0  0
    5.1319   -1.0427    0.0000 C   0  0  0  0  0  0  0  0  0  0  0  0
    6.6060   -1.3199    0.0000 C   0  0  0  0  0  0  0  0  0  0  0  0
    7.5832   -0.1818    0.0000 C   0  0  0  0  0  0  0  0  0  0  0  0
    7.0861    1.2335    0.0000 C   0  0  0  0  0  0  0  0  0  0  0  0
    8.0632    2.3715    0.0000 C   0  0  0  0  0  0  0  0  0  0  0  0
    7.5662    3.7868    0.0000 C   0  0  0  0  0  0  0  0  0  0  0  0
    8.5433    4.9249    0.0000 O   0  0  0  0  0  0  0  0  0  0  0  0
    6.0920    4.0640    0.0000 C   0  0  0  0  0  0  0  0  0  0  0  0
    5.1149    2.9259    0.0000 C   0  0  0  0  0  0  0  0  0  0  0  0
    5.6119    1.5106    0.0000 C   0  0  0  0  0  0  0  0  0  0  0  0
    4.1378    1.7878    0.0000 C   0  0  0  0  0  0  0  0  0  0  0  0
    4.6348    0.3726    0.0000 C   0  0  0  0  0  0  0  0  0  0  0  0
    3.1606    0.6497    0.0000 C   0  0  0  0  0  0  0  0  0  0  0  0
    2.1835   -0.4883    0.0000 C   0  0  0  0  0  0  0  0  0  0  0  0
    0.7093   -0.2112    0.0000 O   0  0  0  0  0  0  0  0  0  0  0  0
    2.6806   -1.9036    0.0000 C   0  0  0  0  0  0  0  0  0  0  0  0
    1.1855   -1.7820    0.0000 C   0  0  0  0  0  0  0  0  0  0  0  0
  2  1  1  6
  2  3  1  0
  3  4  1  0
  4  5  1  0
  5  6  2  0
  5  7  1  0
  7  8  1  0
  8  9  1  1
  9 10  1  0
 10 11  1  0
 11 12  1  0
 12 13  1  0
 13 14  1  0
 13 15  2  0
  8 16  1  0
 16 17  2  0
 16 18  1  0
  2 19  1  0
 19 20  1  6
 20 21  1  0
 22 21  1  6
 22 23  1  0
 23 24  1  1
 24 25  1  0
 26 25  1  1
 26 27  1  0
 27 28  1  0
 28 29  1  1
 28 30  1  0
 30 31  1  0
 31 32  1  0
 32 33  1  6
 32 34  1  0
 34 35  1  6
 35 36  1  0
 36 37  1  1
 36 38  1  0
 38 39  1  6
 38 19  1  0
 38 22  1  0
 34 23  1  0
 32 26  1  0
M  END
>  <MS_ID>  (2972) 
MS3078

>  <SMILES>  (2972) 
C[C@H](CCC(=O)N[C@@H](CCCNC(N)=O)C(=O)O)[C@H]1CC[C@H]2[C@@H]3CC[C@@H]4C[C@H](O)CC[C@]4(C)[C@H]3C[C@H](O)[C@]12C

>  <Structure_dimension>  (2972) 
2D

$$$$
MS3079
     RDKit          2D

 37 40  0  0  0  0  0  0  0  0999 V2000
   -0.6868   -4.5861    0.0000 C   0  0  0  0  0  0  0  0  0  0  0  0
   -0.1004   -3.2055    0.0000 C   0  0  0  0  0  0  0  0  0  0  0  0
   -1.0029   -2.0073    0.0000 C   0  0  0  0  0  0  0  0  0  0  0  0
   -2.4917   -2.1897    0.0000 C   0  0  0  0  0  0  0  0  0  0  0  0
   -3.3942   -0.9916    0.0000 C   0  0  0  0  0  0  0  0  0  0  0  0
   -2.8077    0.3890    0.0000 O   0  0  0  0  0  0  0  0  0  0  0  0
   -4.8830   -1.1740    0.0000 N   0  0  0  0  0  0  0  0  0  0  0  0
   -5.7855    0.0241    0.0000 C   0  0  0  0  0  0  0  0  0  0  0  0
   -7.2743   -0.1583    0.0000 C   0  0  0  0  0  0  0  0  0  0  0  0
   -8.1768    1.0399    0.0000 C   0  0  0  0  0  0  0  0  0  0  0  0
   -9.6656    0.8574    0.0000 C   0  0  0  0  0  0  0  0  0  0  0  0
  -10.5681    2.0556    0.0000 C   0  0  0  0  0  0  0  0  0  0  0  0
  -12.0569    1.8731    0.0000 C   0  0  0  0  0  0  0  0  0  0  0  0
  -12.6433    0.4925    0.0000 O   0  0  0  0  0  0  0  0  0  0  0  0
  -12.9594    3.0713    0.0000 O   0  0  0  0  0  0  0  0  0  0  0  0
    1.3884   -3.0230    0.0000 C   0  0  0  0  0  0  0  0  0  0  0  0
    2.4112   -4.1203    0.0000 C   0  0  0  0  0  0  0  0  0  0  0  0
    3.7708   -3.4867    0.0000 C   0  0  0  0  0  0  0  0  0  0  0  0
    3.5883   -1.9978    0.0000 C   0  0  0  0  0  0  0  0  0  0  0  0
    4.5727   -0.8660    0.0000 C   0  0  0  0  0  0  0  0  0  0  0  0
    6.0451   -1.1526    0.0000 C   0  0  0  0  0  0  0  0  0  0  0  0
    6.5331   -2.5710    0.0000 O   0  0  0  0  0  0  0  0  0  0  0  0
    7.0294   -0.0207    0.0000 C   0  0  0  0  0  0  0  0  0  0  0  0
    6.5414    1.3977    0.0000 C   0  0  0  0  0  0  0  0  0  0  0  0
    7.5258    2.5295    0.0000 C   0  0  0  0  0  0  0  0  0  0  0  0
    7.0378    3.9479    0.0000 C   0  0  0  0  0  0  0  0  0  0  0  0
    8.0221    5.0797    0.0000 O   0  0  0  0  0  0  0  0  0  0  0  0
    5.5654    4.2345    0.0000 C   0  0  0  0  0  0  0  0  0  0  0  0
    4.5810    3.1026    0.0000 C   0  0  0  0  0  0  0  0  0  0  0  0
    5.0690    1.6842    0.0000 C   0  0  0  0  0  0  0  0  0  0  0  0
    3.5967    1.9708    0.0000 C   0  0  0  0  0  0  0  0  0  0  0  0
    4.0847    0.5524    0.0000 C   0  0  0  0  0  0  0  0  0  0  0  0
    2.6123    0.8390    0.0000 C   0  0  0  0  0  0  0  0  0  0  0  0
    1.6280   -0.2929    0.0000 C   0  0  0  0  0  0  0  0  0  0  0  0
    0.1556   -0.0063    0.0000 O   0  0  0  0  0  0  0  0  0  0  0  0
    2.1160   -1.7113    0.0000 C   0  0  0  0  0  0  0  0  0  0  0  0
    0.6217   -1.5802    0.0000 C   0  0  0  0  0  0  0  0  0  0  0  0
  2  1  1  6
  2  3  1  0
  3  4  1  0
  4  5  1  0
  5  6  2  0
  5  7  1  0
  7  8  1  0
  8  9  1  0
  9 10  1  0
 10 11  1  0
 11 12  1  0
 12 13  1  0
 13 14  2  0
 13 15  1  0
  2 16  1  0
 16 17  1  6
 17 18  1  0
 19 18  1  6
 19 20  1  0
 20 21  1  1
 21 22  1  1
 21 23  1  0
 24 23  1  1
 24 25  1  0
 25 26  1  0
 26 27  1  1
 26 28  1  0
 28 29  1  0
 29 30  1  0
 30 31  1  6
 30 32  1  0
 32 33  1  6
 33 34  1  0
 34 35  1  1
 34 36  1  0
 36 37  1  6
 36 16  1  0
 36 19  1  0
 32 20  1  0
 30 24  1  0
M  END
>  <MS_ID>  (2973) 
MS3079

>  <SMILES>  (2973) 
C[C@H](CCC(=O)NCCCCCC(=O)O)[C@H]1CC[C@H]2[C@@H]3[C@H](O)C[C@@H]4C[C@H](O)CC[C@]4(C)[C@H]3C[C@H](O)[C@]12C

>  <Structure_dimension>  (2973) 
2D

$$$$
MS3080
     RDKit          2D

 25 28  0  0  0  0  0  0  0  0999 V2000
    2.0644   -1.5574    0.0000 C   0  0  0  0  0  0  0  0  0  0  0  0
    2.7613   -0.2292    0.0000 C   0  0  0  0  0  0  0  0  0  0  0  0
    3.5632   -1.4969    0.0000 C   0  0  0  0  0  0  0  0  0  0  0  0
    5.0619   -1.4363    0.0000 C   0  0  0  0  0  0  0  0  0  0  0  0
    5.7589   -0.1080    0.0000 C   0  0  0  0  0  0  0  0  0  0  0  0
    7.2577   -0.0475    0.0000 O   0  0  0  0  0  0  0  0  0  0  0  0
    4.9571    1.1597    0.0000 C   0  0  0  0  0  0  0  0  0  0  0  0
    3.4583    1.0991    0.0000 C   0  0  0  0  0  0  0  0  0  0  0  0
    2.6564    2.3668    0.0000 C   0  0  0  0  0  0  0  0  0  0  0  0
    1.1577    2.3062    0.0000 C   0  0  0  0  0  0  0  0  0  0  0  0
    0.4607    0.9780    0.0000 C   0  0  0  0  0  0  0  0  0  0  0  0
    1.2626   -0.2897    0.0000 C   0  0  0  0  0  0  0  0  0  0  0  0
    0.5656   -1.6180    0.0000 C   0  0  0  0  0  0  0  0  0  0  0  0
   -0.9332   -1.6785    0.0000 C   0  0  0  0  0  0  0  0  0  0  0  0
   -1.7350   -0.4108    0.0000 C   0  0  0  0  0  0  0  0  0  0  0  0
   -2.4086   -1.7511    0.0000 C   0  0  0  0  0  0  0  0  0  0  0  0
   -1.0381    0.9174    0.0000 C   0  0  0  0  0  0  0  0  0  0  0  0
   -2.0859    1.9907    0.0000 C   0  0  0  0  0  0  0  0  0  0  0  0
   -3.4305    1.3258    0.0000 C   0  0  0  0  0  0  0  0  0  0  0  0
   -3.2136   -0.1585    0.0000 C   0  0  0  0  0  0  0  0  0  0  0  0
   -3.4918   -1.6324    0.0000 O   0  0  0  0  0  0  0  0  0  0  0  0
   -4.7124   -0.2190    0.0000 C   0  0  0  0  0  0  0  0  0  0  0  0
   -5.4093   -1.5473    0.0000 O   0  0  0  0  0  0  0  0  0  0  0  0
   -5.5142    1.0487    0.0000 C   0  0  0  0  0  0  0  0  0  0  0  0
   -7.0130    0.9881    0.0000 O   0  0  0  0  0  0  0  0  0  0  0  0
  2  1  1  1
  2  3  1  0
  3  4  1  0
  4  5  1  0
  5  6  2  0
  5  7  1  0
  8  7  1  6
  8  9  1  0
  9 10  1  0
 11 10  1  6
 11 12  1  0
 12 13  1  1
 13 14  1  0
 14 15  1  0
 15 16  1  1
 15 17  1  0
 17 18  1  1
 18 19  1  0
 19 20  1  0
 20 21  1  6
 20 22  1  0
 22 23  2  0
 22 24  1  0
 24 25  1  0
  8  2  1  0
 17 11  1  0
 12  2  1  0
 20 15  1  0
M  END
>  <MS_ID>  (2974) 
MS3080

>  <SMILES>  (2974) 
C[C@]12CCC(=O)C[C@H]1CC[C@@H]1[C@@H]2CC[C@@]2(C)[C@H]1CC[C@]2(O)C(=O)CO

>  <Structure_dimension>  (2974) 
2D

$$$$
MS3081
     RDKit          2D

 34 38  0  0  0  0  0  0  0  0999 V2000
   -8.5054   -1.1437    0.0000 C   0  0  0  0  0  0  0  0  0  0  0  0
   -7.3020   -0.2482    0.0000 C   0  0  0  0  0  0  0  0  0  0  0  0
   -5.9248   -0.8426    0.0000 C   0  0  0  0  0  0  0  0  0  0  0  0
   -4.7214    0.0529    0.0000 C   0  0  0  0  0  0  0  0  0  0  0  0
   -3.3442   -0.5414    0.0000 C   0  0  0  0  0  0  0  0  0  0  0  0
   -3.1704   -2.0313    0.0000 C   0  0  0  0  0  0  0  0  0  0  0  0
   -1.7932   -2.6257    0.0000 O   0  0  0  0  0  0  0  0  0  0  0  0
   -4.3737   -2.9268    0.0000 O   0  0  0  0  0  0  0  0  0  0  0  0
   -2.1409    0.3541    0.0000 C   0  0  0  0  0  0  0  0  0  0  0  0
   -2.1581    1.8540    0.0000 C   0  0  0  0  0  0  0  0  0  0  0  0
   -0.7369    2.3338    0.0000 C   0  0  0  0  0  0  0  0  0  0  0  0
    0.1586    1.1304    0.0000 C   0  0  0  0  0  0  0  0  0  0  0  0
    0.8937    2.4380    0.0000 C   0  0  0  0  0  0  0  0  0  0  0  0
    1.6521    0.9907    0.0000 C   0  0  0  0  0  0  0  0  0  0  0  0
    2.5199    2.2143    0.0000 C   0  0  0  0  0  0  0  0  0  0  0  0
    4.0133    2.0746    0.0000 C   0  0  0  0  0  0  0  0  0  0  0  0
    4.6391    0.7113    0.0000 C   0  0  0  0  0  0  0  0  0  0  0  0
    6.1326    0.5716    0.0000 C   0  0  0  0  0  0  0  0  0  0  0  0
    7.5838    0.9512    0.0000 C   0  0  0  0  0  0  0  0  0  0  0  0
    6.0108    2.0667    0.0000 C   0  0  0  0  0  0  0  0  0  0  0  0
    6.7583   -0.7916    0.0000 C   0  0  0  0  0  0  0  0  0  0  0  0
    8.2518   -0.9313    0.0000 O   0  0  0  0  0  0  0  0  0  0  0  0
    5.8906   -2.0152    0.0000 C   0  0  0  0  0  0  0  0  0  0  0  0
    4.3971   -1.8754    0.0000 C   0  0  0  0  0  0  0  0  0  0  0  0
    3.7714   -0.5122    0.0000 C   0  0  0  0  0  0  0  0  0  0  0  0
    2.9036   -1.7357    0.0000 C   0  0  0  0  0  0  0  0  0  0  0  0
    2.2779   -0.3725    0.0000 C   0  0  0  0  0  0  0  0  0  0  0  0
    1.4102   -1.5960    0.0000 C   0  0  0  0  0  0  0  0  0  0  0  0
   -0.0833   -1.4563    0.0000 C   0  0  0  0  0  0  0  0  0  0  0  0
   -0.7091   -0.0931    0.0000 C   0  0  0  0  0  0  0  0  0  0  0  0
   -1.7000   -1.2192    0.0000 C   0  0  0  0  0  0  0  0  0  0  0  0
   -7.4759    1.2417    0.0000 C   0  0  0  0  0  0  0  0  0  0  0  0
   -8.8531    1.8361    0.0000 C   0  0  0  0  0  0  0  0  0  0  0  0
   -6.2725    2.1372    0.0000 C   0  0  0  0  0  0  0  0  0  0  0  0
  1  2  2  0
  2  3  1  0
  3  4  1  0
  5  4  1  6
  5  6  1  0
  6  7  2  0
  6  8  1  0
  5  9  1  0
  9 10  1  1
 10 11  1  0
 11 12  1  0
 12 13  1  6
 12 14  1  0
 14 15  1  6
 15 16  1  0
 17 16  1  1
 17 18  1  0
 18 19  1  0
 18 20  1  0
 18 21  1  0
 21 22  1  1
 21 23  1  0
 23 24  1  0
 25 24  1  6
 25 26  1  0
 27 26  1  1
 27 28  1  0
 28 29  1  0
 29 30  1  0
 30 31  1  1
  2 32  1  0
 32 33  1  0
 32 34  1  0
 30  9  1  0
 30 12  1  0
 27 14  1  0
 25 17  1  0
 27 25  1  0
M  END
>  <MS_ID>  (2975) 
MS3081

>  <SMILES>  (2975) 
C=C(CC[C@@H](C(=O)O)[C@H]1CC[C@@]2(C)[C@@H]3CC[C@H]4C(C)(C)[C@@H](O)CC[C@@]45C[C@@]35CC[C@]12C)C(C)C

>  <Structure_dimension>  (2975) 
2D

$$$$
MS3082
     RDKit          2D

 32 36  0  0  0  0  0  0  0  0999 V2000
   -8.2441   -0.6686    0.0000 C   0  0  0  0  0  0  0  0  0  0  0  0
   -7.2036   -1.7490    0.0000 C   0  0  0  0  0  0  0  0  0  0  0  0
   -7.6189   -3.1903    0.0000 C   0  0  0  0  0  0  0  0  0  0  0  0
   -9.0748   -3.5513    0.0000 O   0  0  0  0  0  0  0  0  0  0  0  0
   -5.7476   -1.3880    0.0000 C   0  0  0  0  0  0  0  0  0  0  0  0
   -5.3323    0.0534    0.0000 C   0  0  0  0  0  0  0  0  0  0  0  0
   -3.8764    0.4144    0.0000 C   0  0  0  0  0  0  0  0  0  0  0  0
   -3.4610    1.8557    0.0000 C   0  0  0  0  0  0  0  0  0  0  0  0
   -4.5016    2.9361    0.0000 C   0  0  0  0  0  0  0  0  0  0  0  0
   -2.0051    2.2167    0.0000 C   0  0  0  0  0  0  0  0  0  0  0  0
   -1.4414    3.6067    0.0000 C   0  0  0  0  0  0  0  0  0  0  0  0
    0.0548    3.5001    0.0000 C   0  0  0  0  0  0  0  0  0  0  0  0
    0.4158    2.0442    0.0000 C   0  0  0  0  0  0  0  0  0  0  0  0
    1.5990    2.9662    0.0000 C   0  0  0  0  0  0  0  0  0  0  0  0
    1.7393    1.3383    0.0000 C   0  0  0  0  0  0  0  0  0  0  0  0
    3.0124    2.1315    0.0000 C   0  0  0  0  0  0  0  0  0  0  0  0
    4.3359    1.4256    0.0000 C   0  0  0  0  0  0  0  0  0  0  0  0
    4.3863   -0.0736    0.0000 C   0  0  0  0  0  0  0  0  0  0  0  0
    5.7098   -0.7795    0.0000 C   0  0  0  0  0  0  0  0  0  0  0  0
    7.1949   -0.9902    0.0000 C   0  0  0  0  0  0  0  0  0  0  0  0
    6.1752    0.6464    0.0000 C   0  0  0  0  0  0  0  0  0  0  0  0
    5.7602   -2.2787    0.0000 C   0  0  0  0  0  0  0  0  0  0  0  0
    7.0837   -2.9846    0.0000 O   0  0  0  0  0  0  0  0  0  0  0  0
    4.4871   -3.0719    0.0000 C   0  0  0  0  0  0  0  0  0  0  0  0
    3.1636   -2.3660    0.0000 C   0  0  0  0  0  0  0  0  0  0  0  0
    3.1132   -0.8668    0.0000 C   0  0  0  0  0  0  0  0  0  0  0  0
    1.8401   -1.6600    0.0000 C   0  0  0  0  0  0  0  0  0  0  0  0
    1.7897   -0.1609    0.0000 C   0  0  0  0  0  0  0  0  0  0  0  0
    0.5166   -0.9541    0.0000 C   0  0  0  0  0  0  0  0  0  0  0  0
   -0.8069   -0.2481    0.0000 C   0  0  0  0  0  0  0  0  0  0  0  0
   -0.8573    1.2510    0.0000 C   0  0  0  0  0  0  0  0  0  0  0  0
   -2.2064    0.5952    0.0000 C   0  0  0  0  0  0  0  0  0  0  0  0
  1  2  1  0
  2  3  1  0
  3  4  2  0
  2  5  2  0
  5  6  1  0
  6  7  1  0
  7  8  1  0
  8  9  1  1
  8 10  1  0
 10 11  1  1
 11 12  1  0
 12 13  1  0
 13 14  1  6
 13 15  1  0
 15 16  1  6
 16 17  1  0
 18 17  1  1
 18 19  1  0
 19 20  1  0
 19 21  1  0
 19 22  1  0
 22 23  1  1
 22 24  1  0
 24 25  1  0
 26 25  1  6
 26 27  1  0
 28 27  1  1
 28 29  1  0
 29 30  1  0
 30 31  1  0
 31 32  1  1
 31 10  1  0
 31 13  1  0
 28 15  1  0
 26 18  1  0
 28 26  1  0
M  END
>  <MS_ID>  (2976) 
MS3082

>  <SMILES>  (2976) 
C/C(C=O)=C\CC[C@@H](C)[C@H]1CC[C@@]2(C)[C@@H]3CC[C@H]4C(C)(C)[C@@H](O)CC[C@@]45C[C@@]35CC[C@]12C

>  <Structure_dimension>  (2976) 
2D

$$$$
MS3083
     RDKit          2D

 33 37  0  0  0  0  0  0  0  0999 V2000
   -4.4584    2.8915    0.0000 C   0  0  0  0  0  0  0  0  0  0  0  0
   -3.4021    1.8264    0.0000 C   0  0  0  0  0  0  0  0  0  0  0  0
   -3.7964    0.3791    0.0000 C   0  0  0  0  0  0  0  0  0  0  0  0
   -5.2469   -0.0031    0.0000 C   0  0  0  0  0  0  0  0  0  0  0  0
   -5.6411   -1.4503    0.0000 C   0  0  0  0  0  0  0  0  0  0  0  0
   -4.5849   -2.5154    0.0000 O   0  0  0  0  0  0  0  0  0  0  0  0
   -7.0916   -1.8325    0.0000 C   0  0  0  0  0  0  0  0  0  0  0  0
   -7.4738   -0.3821    0.0000 C   0  0  0  0  0  0  0  0  0  0  0  0
   -6.7094   -3.2830    0.0000 C   0  0  0  0  0  0  0  0  0  0  0  0
   -8.5421   -2.2147    0.0000 O   0  0  0  0  0  0  0  0  0  0  0  0
   -1.9517    2.2086    0.0000 C   0  0  0  0  0  0  0  0  0  0  0  0
   -1.4083    3.6067    0.0000 C   0  0  0  0  0  0  0  0  0  0  0  0
    0.0893    3.5220    0.0000 C   0  0  0  0  0  0  0  0  0  0  0  0
    0.4715    2.0715    0.0000 C   0  0  0  0  0  0  0  0  0  0  0  0
    1.6412    3.0106    0.0000 C   0  0  0  0  0  0  0  0  0  0  0  0
    1.8052    1.3850    0.0000 C   0  0  0  0  0  0  0  0  0  0  0  0
    3.0666    2.1967    0.0000 C   0  0  0  0  0  0  0  0  0  0  0  0
    4.4002    1.5102    0.0000 C   0  0  0  0  0  0  0  0  0  0  0  0
    4.4725    0.0119    0.0000 C   0  0  0  0  0  0  0  0  0  0  0  0
    5.8062   -0.6746    0.0000 C   0  0  0  0  0  0  0  0  0  0  0  0
    7.2942   -0.8636    0.0000 C   0  0  0  0  0  0  0  0  0  0  0  0
    6.2507    0.7580    0.0000 C   0  0  0  0  0  0  0  0  0  0  0  0
    5.8785   -2.1729    0.0000 C   0  0  0  0  0  0  0  0  0  0  0  0
    7.2121   -2.8594    0.0000 O   0  0  0  0  0  0  0  0  0  0  0  0
    4.6171   -2.9846    0.0000 C   0  0  0  0  0  0  0  0  0  0  0  0
    3.2834   -2.2981    0.0000 C   0  0  0  0  0  0  0  0  0  0  0  0
    3.2111   -0.7998    0.0000 C   0  0  0  0  0  0  0  0  0  0  0  0
    1.9498   -1.6115    0.0000 C   0  0  0  0  0  0  0  0  0  0  0  0
    1.8775   -0.1133    0.0000 C   0  0  0  0  0  0  0  0  0  0  0  0
    0.6161   -0.9250    0.0000 C   0  0  0  0  0  0  0  0  0  0  0  0
   -0.7176   -0.2385    0.0000 C   0  0  0  0  0  0  0  0  0  0  0  0
   -0.7899    1.2598    0.0000 C   0  0  0  0  0  0  0  0  0  0  0  0
   -2.1292    0.5844    0.0000 C   0  0  0  0  0  0  0  0  0  0  0  0
  2  1  1  1
  2  3  1  0
  3  4  1  0
  4  5  1  0
  5  6  1  6
  5  7  1  0
  7  8  1  0
  7  9  1  0
  7 10  1  0
  2 11  1  0
 11 12  1  1
 12 13  1  0
 13 14  1  0
 14 15  1  6
 14 16  1  0
 16 17  1  6
 17 18  1  0
 19 18  1  1
 19 20  1  0
 20 21  1  0
 20 22  1  0
 20 23  1  0
 23 24  1  1
 23 25  1  0
 25 26  1  0
 27 26  1  6
 27 28  1  0
 29 28  1  1
 29 30  1  0
 30 31  1  0
 31 32  1  0
 32 33  1  1
 32 11  1  0
 32 14  1  0
 29 16  1  0
 27 19  1  0
 29 27  1  0
M  END
>  <MS_ID>  (2977) 
MS3083

>  <SMILES>  (2977) 
C[C@H](CC[C@H](O)C(C)(C)O)[C@H]1CC[C@@]2(C)[C@@H]3CC[C@H]4C(C)(C)[C@@H](O)CC[C@@]45C[C@@]35CC[C@]12C

>  <Structure_dimension>  (2977) 
2D

$$$$
MS3084
     RDKit          2D

 40 44  0  0  0  0  0  0  0  0999 V2000
   -0.6480   -4.8190    0.0000 C   0  0  0  0  0  0  0  0  0  0  0  0
   -0.1038   -3.4212    0.0000 C   0  0  0  0  0  0  0  0  0  0  0  0
   -1.0423   -2.2510    0.0000 C   0  0  0  0  0  0  0  0  0  0  0  0
   -2.5249   -2.4786    0.0000 C   0  0  0  0  0  0  0  0  0  0  0  0
   -3.4633   -1.3085    0.0000 C   0  0  0  0  0  0  0  0  0  0  0  0
   -2.9191    0.0893    0.0000 O   0  0  0  0  0  0  0  0  0  0  0  0
   -4.9460   -1.5361    0.0000 N   0  0  0  0  0  0  0  0  0  0  0  0
   -5.8844   -0.3659    0.0000 C   0  0  0  0  0  0  0  0  0  0  0  0
   -7.3670   -0.5935    0.0000 C   0  0  0  0  0  0  0  0  0  0  0  0
   -7.9112   -1.9913    0.0000 O   0  0  0  0  0  0  0  0  0  0  0  0
   -8.3055    0.5767    0.0000 N   0  0  0  0  0  0  0  0  0  0  0  0
   -9.8038    0.5053    0.0000 C   0  0  0  0  0  0  0  0  0  0  0  0
  -10.3347    1.9082    0.0000 C   0  0  0  0  0  0  0  0  0  0  0  0
   -9.1645    2.8466    0.0000 C   0  0  0  0  0  0  0  0  0  0  0  0
   -7.9104    2.0237    0.0000 C   0  0  0  0  0  0  0  0  0  0  0  0
   -6.5074    2.5546    0.0000 C   0  0  0  0  0  0  0  0  0  0  0  0
   -5.3462    1.6051    0.0000 O   0  0  0  0  0  0  0  0  0  0  0  0
   -6.2658    4.0350    0.0000 O   0  0  0  0  0  0  0  0  0  0  0  0
    1.3788   -3.1936    0.0000 C   0  0  0  0  0  0  0  0  0  0  0  0
    2.4344   -4.2593    0.0000 C   0  0  0  0  0  0  0  0  0  0  0  0
    3.7742   -3.5846    0.0000 C   0  0  0  0  0  0  0  0  0  0  0  0
    3.5465   -2.1020    0.0000 C   0  0  0  0  0  0  0  0  0  0  0  0
    4.4960   -0.9408    0.0000 C   0  0  0  0  0  0  0  0  0  0  0  0
    5.9764   -1.1825    0.0000 C   0  0  0  0  0  0  0  0  0  0  0  0
    6.5073   -2.5854    0.0000 O   0  0  0  0  0  0  0  0  0  0  0  0
    6.9259   -0.0212    0.0000 C   0  0  0  0  0  0  0  0  0  0  0  0
    8.4063   -0.2629    0.0000 O   0  0  0  0  0  0  0  0  0  0  0  0
    6.3950    1.3817    0.0000 C   0  0  0  0  0  0  0  0  0  0  0  0
    7.3445    2.5429    0.0000 C   0  0  0  0  0  0  0  0  0  0  0  0
    6.8136    3.9458    0.0000 C   0  0  0  0  0  0  0  0  0  0  0  0
    7.7632    5.1070    0.0000 O   0  0  0  0  0  0  0  0  0  0  0  0
    5.3332    4.1875    0.0000 C   0  0  0  0  0  0  0  0  0  0  0  0
    4.3837    3.0262    0.0000 C   0  0  0  0  0  0  0  0  0  0  0  0
    4.9146    1.6233    0.0000 C   0  0  0  0  0  0  0  0  0  0  0  0
    3.4342    1.8650    0.0000 C   0  0  0  0  0  0  0  0  0  0  0  0
    3.9651    0.4621    0.0000 C   0  0  0  0  0  0  0  0  0  0  0  0
    2.4847    0.7038    0.0000 C   0  0  0  0  0  0  0  0  0  0  0  0
    1.5352   -0.4574    0.0000 C   0  0  0  0  0  0  0  0  0  0  0  0
    2.0661   -1.8603    0.0000 C   0  0  0  0  0  0  0  0  0  0  0  0
    0.5686   -1.7747    0.0000 C   0  0  0  0  0  0  0  0  0  0  0  0
  2  1  1  6
  2  3  1  0
  3  4  1  0
  4  5  1  0
  5  6  2  0
  5  7  1  0
  7  8  1  0
  8  9  1  0
  9 10  2  0
  9 11  1  0
 11 12  1  0
 12 13  1  0
 13 14  1  0
 14 15  1  0
 15 16  1  1
 16 17  2  0
 16 18  1  0
  2 19  1  0
 19 20  1  6
 20 21  1  0
 22 21  1  6
 22 23  1  0
 23 24  1  1
 24 25  1  1
 24 26  1  0
 26 27  1  1
 26 28  1  0
 28 29  1  1
 29 30  1  0
 30 31  1  1
 30 32  1  0
 32 33  1  0
 33 34  1  0
 34 35  1  6
 34 36  1  0
 36 37  1  6
 37 38  1  0
 38 39  1  0
 39 40  1  6
 15 11  1  0
 39 19  1  0
 39 22  1  0
 36 23  1  0
 34 28  1  0
M  END
>  <MS_ID>  (2978) 
MS3084

>  <SMILES>  (2978) 
C[C@H](CCC(=O)NCC(=O)N1CCC[C@H]1C(=O)O)[C@H]1CC[C@H]2[C@@H]3[C@H](O)[C@H](O)[C@@H]4C[C@H](O)CC[C@]4(C)[C@H]3CC[C@]12C

>  <Structure_dimension>  (2978) 
2D

$$$$
MS3085
     RDKit          2D

 36 39  0  0  0  0  0  0  0  0999 V2000
   -0.6825   -4.5863    0.0000 C   0  0  0  0  0  0  0  0  0  0  0  0
   -0.0961   -3.2056    0.0000 C   0  0  0  0  0  0  0  0  0  0  0  0
   -0.9985   -2.0075    0.0000 C   0  0  0  0  0  0  0  0  0  0  0  0
   -2.4874   -2.1899    0.0000 C   0  0  0  0  0  0  0  0  0  0  0  0
   -3.3898   -0.9918    0.0000 C   0  0  0  0  0  0  0  0  0  0  0  0
   -2.8034    0.3889    0.0000 O   0  0  0  0  0  0  0  0  0  0  0  0
   -4.8787   -1.1742    0.0000 N   0  0  0  0  0  0  0  0  0  0  0  0
   -5.7811    0.0240    0.0000 C   0  0  0  0  0  0  0  0  0  0  0  0
   -7.2700   -0.1585    0.0000 C   0  0  0  0  0  0  0  0  0  0  0  0
   -8.1724    1.0397    0.0000 C   0  0  0  0  0  0  0  0  0  0  0  0
   -9.6613    0.8572    0.0000 C   0  0  0  0  0  0  0  0  0  0  0  0
  -10.5637    2.0554    0.0000 C   0  0  0  0  0  0  0  0  0  0  0  0
  -12.0526    1.8730    0.0000 C   0  0  0  0  0  0  0  0  0  0  0  0
  -12.6390    0.4923    0.0000 O   0  0  0  0  0  0  0  0  0  0  0  0
  -12.9550    3.0711    0.0000 O   0  0  0  0  0  0  0  0  0  0  0  0
    1.3928   -3.0232    0.0000 C   0  0  0  0  0  0  0  0  0  0  0  0
    2.4155   -4.1205    0.0000 C   0  0  0  0  0  0  0  0  0  0  0  0
    3.7751   -3.4869    0.0000 C   0  0  0  0  0  0  0  0  0  0  0  0
    3.5927   -1.9980    0.0000 C   0  0  0  0  0  0  0  0  0  0  0  0
    4.5770   -0.8662    0.0000 C   0  0  0  0  0  0  0  0  0  0  0  0
    6.0494   -1.1527    0.0000 C   0  0  0  0  0  0  0  0  0  0  0  0
    6.5374   -2.5711    0.0000 O   0  0  0  0  0  0  0  0  0  0  0  0
    7.0338   -0.0209    0.0000 C   0  0  0  0  0  0  0  0  0  0  0  0
    6.5457    1.3975    0.0000 C   0  0  0  0  0  0  0  0  0  0  0  0
    7.5301    2.5293    0.0000 C   0  0  0  0  0  0  0  0  0  0  0  0
    7.0421    3.9477    0.0000 C   0  0  0  0  0  0  0  0  0  0  0  0
    8.0264    5.0795    0.0000 O   0  0  0  0  0  0  0  0  0  0  0  0
    5.5697    4.2343    0.0000 C   0  0  0  0  0  0  0  0  0  0  0  0
    4.5854    3.1024    0.0000 C   0  0  0  0  0  0  0  0  0  0  0  0
    5.0734    1.6840    0.0000 C   0  0  0  0  0  0  0  0  0  0  0  0
    3.6010    1.9706    0.0000 C   0  0  0  0  0  0  0  0  0  0  0  0
    4.0890    0.5522    0.0000 C   0  0  0  0  0  0  0  0  0  0  0  0
    2.6166    0.8388    0.0000 C   0  0  0  0  0  0  0  0  0  0  0  0
    1.6323   -0.2930    0.0000 C   0  0  0  0  0  0  0  0  0  0  0  0
    2.1203   -1.7114    0.0000 C   0  0  0  0  0  0  0  0  0  0  0  0
    0.6260   -1.5803    0.0000 C   0  0  0  0  0  0  0  0  0  0  0  0
  2  1  1  6
  2  3  1  0
  3  4  1  0
  4  5  1  0
  5  6  2  0
  5  7  1  0
  7  8  1  0
  8  9  1  0
  9 10  1  0
 10 11  1  0
 11 12  1  0
 12 13  1  0
 13 14  2  0
 13 15  1  0
  2 16  1  0
 16 17  1  6
 17 18  1  0
 19 18  1  6
 19 20  1  0
 20 21  1  1
 21 22  1  6
 21 23  1  0
 24 23  1  1
 24 25  1  0
 25 26  1  0
 26 27  1  1
 26 28  1  0
 28 29  1  0
 29 30  1  0
 30 31  1  6
 30 32  1  0
 32 33  1  6
 33 34  1  0
 34 35  1  0
 35 36  1  6
 35 16  1  0
 35 19  1  0
 32 20  1  0
 30 24  1  0
M  END
>  <MS_ID>  (2979) 
MS3085

>  <SMILES>  (2979) 
C[C@H](CCC(=O)NCCCCCC(=O)O)[C@H]1CC[C@H]2[C@@H]3[C@@H](O)C[C@@H]4C[C@H](O)CC[C@]4(C)[C@H]3CC[C@]12C

>  <Structure_dimension>  (2979) 
2D

$$$$
MS3086
     RDKit          2D

 23 26  0  0  0  0  0  0  0  0999 V2000
   -5.3951    1.8003    0.0000 C   0  0  0  0  0  0  0  0  0  0  0  0
   -4.0051    1.2365    0.0000 O   0  0  0  0  0  0  0  0  0  0  0  0
   -3.7983   -0.2491    0.0000 C   0  0  0  0  0  0  0  0  0  0  0  0
   -5.2974   -0.2995    0.0000 O   0  0  0  0  0  0  0  0  0  0  0  0
   -3.9049   -1.7453    0.0000 C   0  0  0  0  0  0  0  0  0  0  0  0
   -2.5149   -2.3091    0.0000 C   0  0  0  0  0  0  0  0  0  0  0  0
   -1.5492   -1.1614    0.0000 C   0  0  0  0  0  0  0  0  0  0  0  0
   -0.0500   -1.1110    0.0000 C   0  0  0  0  0  0  0  0  0  0  0  0
    0.7431   -2.3842    0.0000 C   0  0  0  0  0  0  0  0  0  0  0  0
    2.2423   -2.3338    0.0000 C   0  0  0  0  0  0  0  0  0  0  0  0
    2.9483   -1.0103    0.0000 C   0  0  0  0  0  0  0  0  0  0  0  0
    4.4474   -0.9600    0.0000 C   0  0  0  0  0  0  0  0  0  0  0  0
    5.1534    0.3635    0.0000 C   0  0  0  0  0  0  0  0  0  0  0  0
    6.6526    0.4138    0.0000 O   0  0  0  0  0  0  0  0  0  0  0  0
    4.3602    1.6366    0.0000 C   0  0  0  0  0  0  0  0  0  0  0  0
    2.8611    1.5863    0.0000 C   0  0  0  0  0  0  0  0  0  0  0  0
    2.1551    0.2628    0.0000 C   0  0  0  0  0  0  0  0  0  0  0  0
    1.3619    1.5359    0.0000 C   0  0  0  0  0  0  0  0  0  0  0  0
    0.6559    0.2125    0.0000 C   0  0  0  0  0  0  0  0  0  0  0  0
   -0.1372    1.4856    0.0000 C   0  0  0  0  0  0  0  0  0  0  0  0
   -1.6364    1.4353    0.0000 C   0  0  0  0  0  0  0  0  0  0  0  0
   -2.3424    0.1118    0.0000 C   0  0  0  0  0  0  0  0  0  0  0  0
   -2.9506    1.4830    0.0000 C   0  0  0  0  0  0  0  0  0  0  0  0
  1  2  1  0
  2  3  1  0
  3  4  1  6
  3  5  1  0
  5  6  1  0
  7  6  1  6
  7  8  1  0
  8  9  1  1
  9 10  1  0
 11 10  1  1
 11 12  1  0
 12 13  1  0
 13 14  1  1
 13 15  1  0
 15 16  1  0
 16 17  1  0
 17 18  1  6
 17 19  1  0
 19 20  1  6
 20 21  1  0
 21 22  1  0
 22 23  1  6
 22  3  1  0
 22  7  1  0
 19  8  1  0
 17 11  1  0
M  END
>  <MS_ID>  (2980) 
MS3086

>  <SMILES>  (2980) 
CO[C@]1(O)CC[C@H]2[C@@H]3CC[C@@H]4C[C@H](O)CC[C@]4(C)[C@H]3CC[C@@]21C

>  <Structure_dimension>  (2980) 
2D

$$$$
MS3088
     RDKit          2D

 26 29  0  0  0  0  0  0  0  0999 V2000
   -3.8405    2.0512    0.0000 C   0  0  0  0  0  0  0  0  0  0  0  0
   -4.0273    0.5629    0.0000 C   0  0  0  0  0  0  0  0  0  0  0  0
   -5.4096   -0.0195    0.0000 C   0  0  0  0  0  0  0  0  0  0  0  0
   -5.5965   -1.5078    0.0000 O   0  0  0  0  0  0  0  0  0  0  0  0
   -6.6052    0.8864    0.0000 O   0  0  0  0  0  0  0  0  0  0  0  0
   -2.8318   -0.3431    0.0000 C   0  0  0  0  0  0  0  0  0  0  0  0
   -2.8620   -1.8428    0.0000 C   0  0  0  0  0  0  0  0  0  0  0  0
   -1.4450   -2.3350    0.0000 C   0  0  0  0  0  0  0  0  0  0  0  0
   -0.5391   -1.1394    0.0000 C   0  0  0  0  0  0  0  0  0  0  0  0
    0.9555   -1.0127    0.0000 C   0  0  0  0  0  0  0  0  0  0  0  0
    1.8126   -2.2438    0.0000 C   0  0  0  0  0  0  0  0  0  0  0  0
    1.1750   -3.6015    0.0000 O   0  0  0  0  0  0  0  0  0  0  0  0
    3.3072   -2.1171    0.0000 C   0  0  0  0  0  0  0  0  0  0  0  0
    3.9448   -0.7593    0.0000 C   0  0  0  0  0  0  0  0  0  0  0  0
    5.4394   -0.6326    0.0000 C   0  0  0  0  0  0  0  0  0  0  0  0
    6.0770    0.7252    0.0000 C   0  0  0  0  0  0  0  0  0  0  0  0
    5.2200    1.9562    0.0000 C   0  0  0  0  0  0  0  0  0  0  0  0
    3.7253    1.8295    0.0000 C   0  0  0  0  0  0  0  0  0  0  0  0
    3.0878    0.4717    0.0000 C   0  0  0  0  0  0  0  0  0  0  0  0
    2.2307    1.7028    0.0000 C   0  0  0  0  0  0  0  0  0  0  0  0
    1.5931    0.3450    0.0000 C   0  0  0  0  0  0  0  0  0  0  0  0
    0.7361    1.5761    0.0000 C   0  0  0  0  0  0  0  0  0  0  0  0
   -0.7586    1.4494    0.0000 C   0  0  0  0  0  0  0  0  0  0  0  0
   -1.6156    2.6804    0.0000 O   0  0  0  0  0  0  0  0  0  0  0  0
   -1.3962    0.0916    0.0000 C   0  0  0  0  0  0  0  0  0  0  0  0
   -2.3772    1.2263    0.0000 C   0  0  0  0  0  0  0  0  0  0  0  0
  2  1  1  1
  2  3  1  0
  3  4  2  0
  3  5  1  0
  2  6  1  0
  6  7  1  6
  7  8  1  0
  9  8  1  6
  9 10  1  0
 10 11  1  1
 11 12  1  1
 11 13  1  0
 14 13  1  1
 14 15  1  0
 15 16  1  0
 16 17  1  0
 17 18  1  0
 18 19  1  0
 19 20  1  6
 19 21  1  0
 21 22  1  6
 22 23  1  0
 23 24  1  1
 23 25  1  0
 25 26  1  6
 25  6  1  0
 25  9  1  0
 21 10  1  0
 19 14  1  0
M  END
>  <MS_ID>  (2981) 
MS3088

>  <SMILES>  (2981) 
C[C@H](C(=O)O)[C@H]1CC[C@H]2[C@@H]3[C@H](O)C[C@@H]4CCCC[C@]4(C)[C@H]3C[C@H](O)[C@]12C

>  <Structure_dimension>  (2981) 
2D

$$$$
MS3089
     RDKit          2D

 26 29  0  0  0  0  0  0  0  0999 V2000
    2.0291   -1.4220    0.0000 C   0  0  0  0  0  0  0  0  0  0  0  0
    2.7100   -0.0854    0.0000 C   0  0  0  0  0  0  0  0  0  0  0  0
    3.5271   -1.3433    0.0000 C   0  0  0  0  0  0  0  0  0  0  0  0
    5.0250   -1.2646    0.0000 C   0  0  0  0  0  0  0  0  0  0  0  0
    5.7058    0.0720    0.0000 C   0  0  0  0  0  0  0  0  0  0  0  0
    7.2038    0.1507    0.0000 O   0  0  0  0  0  0  0  0  0  0  0  0
    4.8887    1.3299    0.0000 C   0  0  0  0  0  0  0  0  0  0  0  0
    3.3908    1.2512    0.0000 C   0  0  0  0  0  0  0  0  0  0  0  0
    2.5737    2.5091    0.0000 C   0  0  0  0  0  0  0  0  0  0  0  0
    1.0757    2.4304    0.0000 C   0  0  0  0  0  0  0  0  0  0  0  0
    0.3949    1.0938    0.0000 C   0  0  0  0  0  0  0  0  0  0  0  0
    1.2120   -0.1641    0.0000 C   0  0  0  0  0  0  0  0  0  0  0  0
    0.5312   -1.5007    0.0000 C   0  0  0  0  0  0  0  0  0  0  0  0
    1.3483   -2.7586    0.0000 O   0  0  0  0  0  0  0  0  0  0  0  0
   -0.9667   -1.5794    0.0000 C   0  0  0  0  0  0  0  0  0  0  0  0
   -1.7838   -0.3214    0.0000 C   0  0  0  0  0  0  0  0  0  0  0  0
   -2.4412   -1.6697    0.0000 C   0  0  0  0  0  0  0  0  0  0  0  0
   -1.1030    1.0151    0.0000 C   0  0  0  0  0  0  0  0  0  0  0  0
   -2.1638    2.0757    0.0000 C   0  0  0  0  0  0  0  0  0  0  0  0
   -3.5002    1.3945    0.0000 C   0  0  0  0  0  0  0  0  0  0  0  0
   -3.2654   -0.0870    0.0000 C   0  0  0  0  0  0  0  0  0  0  0  0
   -3.5257   -1.5642    0.0000 O   0  0  0  0  0  0  0  0  0  0  0  0
   -4.7633   -0.1657    0.0000 C   0  0  0  0  0  0  0  0  0  0  0  0
   -5.4442   -1.5022    0.0000 O   0  0  0  0  0  0  0  0  0  0  0  0
   -5.5804    1.0923    0.0000 C   0  0  0  0  0  0  0  0  0  0  0  0
   -7.0784    1.0136    0.0000 O   0  0  0  0  0  0  0  0  0  0  0  0
  2  1  1  1
  2  3  1  0
  3  4  1  0
  4  5  1  0
  5  6  1  6
  5  7  1  0
  8  7  1  6
  8  9  1  0
  9 10  1  0
 11 10  1  6
 11 12  1  0
 12 13  1  1
 13 14  1  1
 13 15  1  0
 15 16  1  0
 16 17  1  1
 16 18  1  0
 18 19  1  1
 19 20  1  0
 20 21  1  0
 21 22  1  6
 21 23  1  0
 23 24  2  0
 23 25  1  0
 25 26  1  0
  8  2  1  0
 18 11  1  0
 12  2  1  0
 21 16  1  0
M  END
>  <MS_ID>  (2982) 
MS3089

>  <SMILES>  (2982) 
C[C@]12CC[C@@H](O)C[C@H]1CC[C@@H]1[C@@H]2[C@@H](O)C[C@@]2(C)[C@H]1CC[C@]2(O)C(=O)CO

>  <Structure_dimension>  (2982) 
2D

$$$$
MS3090
     RDKit          2D

 41 45  0  0  0  0  0  0  0  0999 V2000
   -9.8348    3.3838    0.0000 C   0  0  0  0  0  0  0  0  0  0  0  0
   -9.5134    1.9187    0.0000 C   0  0  0  0  0  0  0  0  0  0  0  0
   -8.0838    1.4644    0.0000 C   0  0  0  0  0  0  0  0  0  0  0  0
   -7.7624   -0.0007    0.0000 C   0  0  0  0  0  0  0  0  0  0  0  0
   -6.3328   -0.4549    0.0000 C   0  0  0  0  0  0  0  0  0  0  0  0
   -6.0114   -1.9201    0.0000 C   0  0  0  0  0  0  0  0  0  0  0  0
   -7.1195   -2.9310    0.0000 C   0  0  0  0  0  0  0  0  0  0  0  0
   -4.5818   -2.3743    0.0000 C   0  0  0  0  0  0  0  0  0  0  0  0
   -4.1090   -3.7979    0.0000 C   0  0  0  0  0  0  0  0  0  0  0  0
   -2.6090   -3.7881    0.0000 C   0  0  0  0  0  0  0  0  0  0  0  0
   -2.1548   -2.3585    0.0000 C   0  0  0  0  0  0  0  0  0  0  0  0
   -0.7885   -1.7395    0.0000 C   0  0  0  0  0  0  0  0  0  0  0  0
    0.4307   -2.6133    0.0000 C   0  0  0  0  0  0  0  0  0  0  0  0
    1.7971   -1.9943    0.0000 C   0  0  0  0  0  0  0  0  0  0  0  0
    1.9441   -0.5015    0.0000 C   0  0  0  0  0  0  0  0  0  0  0  0
    3.3105    0.1175    0.0000 C   0  0  0  0  0  0  0  0  0  0  0  0
    3.4575    1.6103    0.0000 C   0  0  0  0  0  0  0  0  0  0  0  0
    4.8239    2.2293    0.0000 O   0  0  0  0  0  0  0  0  0  0  0  0
    6.0431    1.3555    0.0000 C   0  0  0  0  0  0  0  0  0  0  0  0
    5.8960   -0.1372    0.0000 O   0  0  0  0  0  0  0  0  0  0  0  0
    7.1153   -1.0110    0.0000 C   0  0  0  0  0  0  0  0  0  0  0  0
    6.9682   -2.5038    0.0000 C   0  0  0  0  0  0  0  0  0  0  0  0
    5.6019   -3.1228    0.0000 O   0  0  0  0  0  0  0  0  0  0  0  0
    8.4816   -0.3920    0.0000 C   0  0  0  0  0  0  0  0  0  0  0  0
    9.7008   -1.2657    0.0000 O   0  0  0  0  0  0  0  0  0  0  0  0
    8.6286    1.1008    0.0000 C   0  0  0  0  0  0  0  0  0  0  0  0
    9.9950    1.7198    0.0000 O   0  0  0  0  0  0  0  0  0  0  0  0
    7.4094    1.9746    0.0000 C   0  0  0  0  0  0  0  0  0  0  0  0
    7.5565    3.4673    0.0000 O   0  0  0  0  0  0  0  0  0  0  0  0
    2.2383    2.4840    0.0000 C   0  0  0  0  0  0  0  0  0  0  0  0
    0.8720    1.8650    0.0000 C   0  0  0  0  0  0  0  0  0  0  0  0
    0.7249    0.3723    0.0000 C   0  0  0  0  0  0  0  0  0  0  0  0
   -0.4943    1.2460    0.0000 C   0  0  0  0  0  0  0  0  0  0  0  0
   -0.6414   -0.2468    0.0000 C   0  0  0  0  0  0  0  0  0  0  0  0
   -1.8607    0.6270    0.0000 C   0  0  0  0  0  0  0  0  0  0  0  0
   -3.2270    0.0080    0.0000 C   0  0  0  0  0  0  0  0  0  0  0  0
   -3.3741   -1.4848    0.0000 C   0  0  0  0  0  0  0  0  0  0  0  0
   -4.6779   -0.7432    0.0000 C   0  0  0  0  0  0  0  0  0  0  0  0
   -6.9756    2.4754    0.0000 C   0  0  0  0  0  0  0  0  0  0  0  0
   -7.2970    3.9405    0.0000 C   0  0  0  0  0  0  0  0  0  0  0  0
   -5.5460    2.0211    0.0000 C   0  0  0  0  0  0  0  0  0  0  0  0
  1  2  1  0
  3  2  1  1
  3  4  1  0
  4  5  1  0
  5  6  1  0
  6  7  1  6
  6  8  1  0
  8  9  1  6
  9 10  1  0
 11 10  1  6
 11 12  1  0
 12 13  1  1
 13 14  1  0
 15 14  1  1
 15 16  1  0
 16 17  1  0
 17 18  1  6
 19 18  1  1
 19 20  1  0
 20 21  1  0
 21 22  1  1
 22 23  1  0
 21 24  1  0
 24 25  1  6
 24 26  1  0
 26 27  1  1
 26 28  1  0
 28 29  1  6
 17 30  1  0
 30 31  1  0
 31 32  1  0
 32 33  1  6
 32 34  1  0
 34 35  1  6
 35 36  1  0
 36 37  1  0
 37 38  1  6
  3 39  1  0
 39 40  1  0
 39 41  1  0
 37  8  1  0
 37 11  1  0
 34 12  1  0
 32 15  1  0
 28 19  1  0
M  END
>  <MS_ID>  (2983) 
MS3090

>  <SMILES>  (2983) 
CC[C@H](CC[C@@H](C)[C@H]1CC[C@H]2[C@@H]3CC[C@@H]4C[C@@H](O[C@@H]5O[C@H](CO)[C@@H](O)[C@H](O)[C@H]5O)CC[C@]4(C)[C@H]3CC[C@]12C)C(C)C

>  <Structure_dimension>  (2983) 
2D

$$$$
MS3091
     RDKit          2D

 33 36  0  0  0  0  0  0  0  0999 V2000
   -3.2878   -3.6766    0.0000 C   0  0  0  0  0  0  0  0  0  0  0  0
   -2.4284   -2.4472    0.0000 C   0  0  0  0  0  0  0  0  0  0  0  0
   -3.0634   -1.0882    0.0000 C   0  0  0  0  0  0  0  0  0  0  0  0
   -4.5578   -0.9586    0.0000 C   0  0  0  0  0  0  0  0  0  0  0  0
   -5.1928    0.4003    0.0000 C   0  0  0  0  0  0  0  0  0  0  0  0
   -4.3333    1.6297    0.0000 O   0  0  0  0  0  0  0  0  0  0  0  0
   -6.6871    0.5299    0.0000 N   0  0  0  0  0  0  0  0  0  0  0  0
   -7.3221    1.8889    0.0000 C   0  0  0  0  0  0  0  0  0  0  0  0
   -8.8165    2.0184    0.0000 C   0  0  0  0  0  0  0  0  0  0  0  0
   -9.6759    0.7890    0.0000 O   0  0  0  0  0  0  0  0  0  0  0  0
   -9.4515    3.3774    0.0000 O   0  0  0  0  0  0  0  0  0  0  0  0
   -0.9340   -2.5767    0.0000 C   0  0  0  0  0  0  0  0  0  0  0  0
   -0.1604   -3.8619    0.0000 C   0  0  0  0  0  0  0  0  0  0  0  0
    1.3009   -3.5233    0.0000 C   0  0  0  0  0  0  0  0  0  0  0  0
    1.4304   -2.0289    0.0000 C   0  0  0  0  0  0  0  0  0  0  0  0
    2.6277   -1.1253    0.0000 C   0  0  0  0  0  0  0  0  0  0  0  0
    4.0089   -1.7103    0.0000 C   0  0  0  0  0  0  0  0  0  0  0  0
    4.1929   -3.1990    0.0000 O   0  0  0  0  0  0  0  0  0  0  0  0
    5.2061   -0.8066    0.0000 C   0  0  0  0  0  0  0  0  0  0  0  0
    6.5874   -1.3916    0.0000 O   0  0  0  0  0  0  0  0  0  0  0  0
    5.0222    0.6820    0.0000 C   0  0  0  0  0  0  0  0  0  0  0  0
    6.2194    1.5857    0.0000 C   0  0  0  0  0  0  0  0  0  0  0  0
    6.0355    3.0744    0.0000 C   0  0  0  0  0  0  0  0  0  0  0  0
    7.2327    3.9780    0.0000 O   0  0  0  0  0  0  0  0  0  0  0  0
    4.6542    3.6594    0.0000 C   0  0  0  0  0  0  0  0  0  0  0  0
    3.4570    2.7557    0.0000 C   0  0  0  0  0  0  0  0  0  0  0  0
    3.6410    1.2671    0.0000 C   0  0  0  0  0  0  0  0  0  0  0  0
    2.2597    1.8521    0.0000 C   0  0  0  0  0  0  0  0  0  0  0  0
    2.4437    0.3634    0.0000 C   0  0  0  0  0  0  0  0  0  0  0  0
    1.0625    0.9484    0.0000 C   0  0  0  0  0  0  0  0  0  0  0  0
   -0.1347    0.0448    0.0000 C   0  0  0  0  0  0  0  0  0  0  0  0
    0.0492   -1.4439    0.0000 C   0  0  0  0  0  0  0  0  0  0  0  0
   -1.3856   -1.0065    0.0000 C   0  0  0  0  0  0  0  0  0  0  0  0
  2  1  1  6
  2  3  1  0
  3  4  1  0
  4  5  1  0
  5  6  2  0
  5  7  1  0
  7  8  1  0
  8  9  1  0
  9 10  2  0
  9 11  1  0
  2 12  1  0
 12 13  1  6
 13 14  1  0
 15 14  1  6
 15 16  1  0
 16 17  1  1
 17 18  1  1
 17 19  1  0
 19 20  1  6
 19 21  1  0
 21 22  1  1
 22 23  1  0
 23 24  1  1
 23 25  1  0
 25 26  1  0
 26 27  1  0
 27 28  1  6
 27 29  1  0
 29 30  1  6
 30 31  1  0
 31 32  1  0
 32 33  1  6
 32 12  1  0
 32 15  1  0
 29 16  1  0
 27 21  1  0
M  END
>  <MS_ID>  (2984) 
MS3091

>  <SMILES>  (2984) 
C[C@H](CCC(=O)NCC(=O)O)[C@H]1CC[C@H]2[C@@H]3[C@H](O)[C@@H](O)[C@@H]4C[C@H](O)CC[C@]4(C)[C@H]3CC[C@]12C

>  <Structure_dimension>  (2984) 
2D

$$$$
MS3092
     RDKit          2D

 33 36  0  0  0  0  0  0  0  0999 V2000
   -2.0225   -4.2153    0.0000 C   0  0  0  0  0  0  0  0  0  0  0  0
   -1.3030   -2.8991    0.0000 C   0  0  0  0  0  0  0  0  0  0  0  0
   -2.0831   -1.6179    0.0000 C   0  0  0  0  0  0  0  0  0  0  0  0
   -3.5827   -1.6529    0.0000 C   0  0  0  0  0  0  0  0  0  0  0  0
   -4.3628   -0.3717    0.0000 C   0  0  0  0  0  0  0  0  0  0  0  0
   -5.8624   -0.4067    0.0000 C   0  0  0  0  0  0  0  0  0  0  0  0
   -6.6425    0.8745    0.0000 C   0  0  0  0  0  0  0  0  0  0  0  0
   -8.1421    0.8395    0.0000 C   0  0  0  0  0  0  0  0  0  0  0  0
   -8.9222    2.1206    0.0000 C   0  0  0  0  0  0  0  0  0  0  0  0
  -10.4218    2.0856    0.0000 C   0  0  0  0  0  0  0  0  0  0  0  0
  -11.1413    0.7694    0.0000 O   0  0  0  0  0  0  0  0  0  0  0  0
  -11.2019    3.3668    0.0000 O   0  0  0  0  0  0  0  0  0  0  0  0
    0.1966   -2.8641    0.0000 C   0  0  0  0  0  0  0  0  0  0  0  0
    1.1063   -4.0567    0.0000 C   0  0  0  0  0  0  0  0  0  0  0  0
    2.5217   -3.5600    0.0000 C   0  0  0  0  0  0  0  0  0  0  0  0
    2.4867   -2.0604    0.0000 C   0  0  0  0  0  0  0  0  0  0  0  0
    3.5777   -1.0310    0.0000 C   0  0  0  0  0  0  0  0  0  0  0  0
    5.0147   -1.4611    0.0000 C   0  0  0  0  0  0  0  0  0  0  0  0
    5.3607   -2.9206    0.0000 O   0  0  0  0  0  0  0  0  0  0  0  0
    6.1057   -0.4316    0.0000 C   0  0  0  0  0  0  0  0  0  0  0  0
    5.7597    1.0279    0.0000 C   0  0  0  0  0  0  0  0  0  0  0  0
    6.8507    2.0573    0.0000 C   0  0  0  0  0  0  0  0  0  0  0  0
    6.5046    3.5169    0.0000 C   0  0  0  0  0  0  0  0  0  0  0  0
    7.5956    4.5463    0.0000 O   0  0  0  0  0  0  0  0  0  0  0  0
    5.0676    3.9470    0.0000 C   0  0  0  0  0  0  0  0  0  0  0  0
    3.9766    2.9176    0.0000 C   0  0  0  0  0  0  0  0  0  0  0  0
    4.3227    1.4580    0.0000 C   0  0  0  0  0  0  0  0  0  0  0  0
    2.8856    1.8881    0.0000 C   0  0  0  0  0  0  0  0  0  0  0  0
    3.2317    0.4286    0.0000 C   0  0  0  0  0  0  0  0  0  0  0  0
    1.7947    0.8587    0.0000 C   0  0  0  0  0  0  0  0  0  0  0  0
    0.7037   -0.1708    0.0000 C   0  0  0  0  0  0  0  0  0  0  0  0
    1.0497   -1.6303    0.0000 C   0  0  0  0  0  0  0  0  0  0  0  0
   -0.4244   -1.3528    0.0000 C   0  0  0  0  0  0  0  0  0  0  0  0
  2  1  1  6
  2  3  1  0
  3  4  1  0
  4  5  1  0
  5  6  1  0
  6  7  1  0
  7  8  1  0
  8  9  1  0
  9 10  1  0
 10 11  2  0
 10 12  1  0
  2 13  1  0
 13 14  1  6
 14 15  1  0
 16 15  1  6
 16 17  1  0
 17 18  1  1
 18 19  1  6
 18 20  1  0
 21 20  1  1
 21 22  1  0
 22 23  1  0
 23 24  1  1
 23 25  1  0
 25 26  1  0
 26 27  1  0
 27 28  1  6
 27 29  1  0
 29 30  1  6
 30 31  1  0
 31 32  1  0
 32 33  1  6
 32 13  1  0
 32 16  1  0
 29 17  1  0
 27 21  1  0
M  END
>  <MS_ID>  (2985) 
MS3092

>  <SMILES>  (2985) 
C[C@H](CCCCCCCC(=O)O)[C@H]1CC[C@H]2[C@@H]3[C@@H](O)C[C@@H]4C[C@H](O)CC[C@]4(C)[C@H]3CC[C@]12C

>  <Structure_dimension>  (2985) 
2D

$$$$
MS3093
     RDKit          2D

 38 42  0  0  0  0  0  0  0  0999 V2000
   -0.3598   -4.8874    0.0000 C   0  0  0  0  0  0  0  0  0  0  0  0
    0.2141   -3.5015    0.0000 C   0  0  0  0  0  0  0  0  0  0  0  0
   -0.6992   -2.3116    0.0000 C   0  0  0  0  0  0  0  0  0  0  0  0
   -2.1863   -2.5076    0.0000 C   0  0  0  0  0  0  0  0  0  0  0  0
   -3.0996   -1.3177    0.0000 C   0  0  0  0  0  0  0  0  0  0  0  0
   -2.5258    0.0682    0.0000 O   0  0  0  0  0  0  0  0  0  0  0  0
   -4.5868   -1.5136    0.0000 N   0  0  0  0  0  0  0  0  0  0  0  0
   -5.5001   -0.3237    0.0000 C   0  0  0  0  0  0  0  0  0  0  0  0
   -6.9872   -0.5197    0.0000 C   0  0  0  0  0  0  0  0  0  0  0  0
   -7.5611   -1.9056    0.0000 O   0  0  0  0  0  0  0  0  0  0  0  0
   -7.9005    0.6702    0.0000 N   0  0  0  0  0  0  0  0  0  0  0  0
   -9.4000    0.6308    0.0000 C   0  0  0  0  0  0  0  0  0  0  0  0
   -9.9009    2.0447    0.0000 C   0  0  0  0  0  0  0  0  0  0  0  0
   -8.7110    2.9579    0.0000 C   0  0  0  0  0  0  0  0  0  0  0  0
   -7.4747    2.1085    0.0000 C   0  0  0  0  0  0  0  0  0  0  0  0
   -6.0608    2.6094    0.0000 C   0  0  0  0  0  0  0  0  0  0  0  0
   -4.9200    1.6354    0.0000 O   0  0  0  0  0  0  0  0  0  0  0  0
   -5.7876    4.0843    0.0000 O   0  0  0  0  0  0  0  0  0  0  0  0
    1.7012   -3.3055    0.0000 C   0  0  0  0  0  0  0  0  0  0  0  0
    2.7339   -4.3935    0.0000 C   0  0  0  0  0  0  0  0  0  0  0  0
    4.0877   -3.7475    0.0000 C   0  0  0  0  0  0  0  0  0  0  0  0
    3.8917   -2.2604    0.0000 C   0  0  0  0  0  0  0  0  0  0  0  0
    4.8658   -1.1197    0.0000 C   0  0  0  0  0  0  0  0  0  0  0  0
    6.3407   -1.3928    0.0000 C   0  0  0  0  0  0  0  0  0  0  0  0
    7.3147   -0.2521    0.0000 C   0  0  0  0  0  0  0  0  0  0  0  0
    6.8138    1.1618    0.0000 C   0  0  0  0  0  0  0  0  0  0  0  0
    7.7878    2.3025    0.0000 C   0  0  0  0  0  0  0  0  0  0  0  0
    7.2870    3.7164    0.0000 C   0  0  0  0  0  0  0  0  0  0  0  0
    8.2610    4.8572    0.0000 O   0  0  0  0  0  0  0  0  0  0  0  0
    5.8120    3.9896    0.0000 C   0  0  0  0  0  0  0  0  0  0  0  0
    4.8380    2.8489    0.0000 C   0  0  0  0  0  0  0  0  0  0  0  0
    5.3389    1.4350    0.0000 C   0  0  0  0  0  0  0  0  0  0  0  0
    3.8640    1.7081    0.0000 C   0  0  0  0  0  0  0  0  0  0  0  0
    4.3649    0.2942    0.0000 C   0  0  0  0  0  0  0  0  0  0  0  0
    2.8899    0.5674    0.0000 C   0  0  0  0  0  0  0  0  0  0  0  0
    1.9159   -0.5733    0.0000 C   0  0  0  0  0  0  0  0  0  0  0  0
    2.4168   -1.9872    0.0000 C   0  0  0  0  0  0  0  0  0  0  0  0
    0.9214   -1.8697    0.0000 C   0  0  0  0  0  0  0  0  0  0  0  0
  2  1  1  6
  2  3  1  0
  3  4  1  0
  4  5  1  0
  5  6  2  0
  5  7  1  0
  7  8  1  0
  8  9  1  0
  9 10  2  0
  9 11  1  0
 11 12  1  0
 12 13  1  0
 13 14  1  0
 14 15  1  0
 15 16  1  1
 16 17  2  0
 16 18  1  0
  2 19  1  0
 19 20  1  6
 20 21  1  0
 22 21  1  6
 22 23  1  0
 23 24  1  1
 24 25  1  0
 26 25  1  1
 26 27  1  0
 27 28  1  0
 28 29  1  1
 28 30  1  0
 30 31  1  0
 31 32  1  0
 32 33  1  6
 32 34  1  0
 34 35  1  6
 35 36  1  0
 36 37  1  0
 37 38  1  6
 15 11  1  0
 37 19  1  0
 37 22  1  0
 34 23  1  0
 32 26  1  0
M  END
>  <MS_ID>  (2986) 
MS3093

>  <SMILES>  (2986) 
C[C@H](CCC(=O)NCC(=O)N1CCC[C@H]1C(=O)O)[C@H]1CC[C@H]2[C@@H]3CC[C@@H]4C[C@H](O)CC[C@]4(C)[C@H]3CC[C@]12C

>  <Structure_dimension>  (2986) 
2D

$$$$
MS3094
     RDKit          2D

 26 29  0  0  0  0  0  0  0  0999 V2000
    2.0291   -1.4220    0.0000 C   0  0  0  0  0  0  0  0  0  0  0  0
    2.7100   -0.0854    0.0000 C   0  0  0  0  0  0  0  0  0  0  0  0
    3.5271   -1.3433    0.0000 C   0  0  0  0  0  0  0  0  0  0  0  0
    5.0250   -1.2646    0.0000 C   0  0  0  0  0  0  0  0  0  0  0  0
    5.7058    0.0720    0.0000 C   0  0  0  0  0  0  0  0  0  0  0  0
    7.2038    0.1507    0.0000 O   0  0  0  0  0  0  0  0  0  0  0  0
    4.8887    1.3299    0.0000 C   0  0  0  0  0  0  0  0  0  0  0  0
    3.3908    1.2512    0.0000 C   0  0  0  0  0  0  0  0  0  0  0  0
    2.5737    2.5091    0.0000 C   0  0  0  0  0  0  0  0  0  0  0  0
    1.0757    2.4304    0.0000 C   0  0  0  0  0  0  0  0  0  0  0  0
    0.3949    1.0938    0.0000 C   0  0  0  0  0  0  0  0  0  0  0  0
    1.2120   -0.1641    0.0000 C   0  0  0  0  0  0  0  0  0  0  0  0
    0.5312   -1.5007    0.0000 C   0  0  0  0  0  0  0  0  0  0  0  0
    1.3483   -2.7586    0.0000 O   0  0  0  0  0  0  0  0  0  0  0  0
   -0.9667   -1.5794    0.0000 C   0  0  0  0  0  0  0  0  0  0  0  0
   -1.7838   -0.3214    0.0000 C   0  0  0  0  0  0  0  0  0  0  0  0
   -2.4412   -1.6697    0.0000 C   0  0  0  0  0  0  0  0  0  0  0  0
   -1.1030    1.0151    0.0000 C   0  0  0  0  0  0  0  0  0  0  0  0
   -2.1638    2.0757    0.0000 C   0  0  0  0  0  0  0  0  0  0  0  0
   -3.5002    1.3945    0.0000 C   0  0  0  0  0  0  0  0  0  0  0  0
   -3.2654   -0.0870    0.0000 C   0  0  0  0  0  0  0  0  0  0  0  0
   -3.5257   -1.5642    0.0000 O   0  0  0  0  0  0  0  0  0  0  0  0
   -4.7633   -0.1657    0.0000 C   0  0  0  0  0  0  0  0  0  0  0  0
   -5.4442   -1.5022    0.0000 O   0  0  0  0  0  0  0  0  0  0  0  0
   -5.5804    1.0923    0.0000 C   0  0  0  0  0  0  0  0  0  0  0  0
   -7.0784    1.0136    0.0000 O   0  0  0  0  0  0  0  0  0  0  0  0
  2  1  1  1
  2  3  1  0
  3  4  1  0
  4  5  1  0
  5  6  1  6
  5  7  1  0
  8  7  1  6
  8  9  1  0
  9 10  1  0
 11 10  1  6
 11 12  1  0
 12 13  1  1
 13 14  2  0
 13 15  1  0
 15 16  1  0
 16 17  1  1
 16 18  1  0
 18 19  1  1
 19 20  1  0
 20 21  1  0
 21 22  1  6
 21 23  1  0
 23 24  2  0
 23 25  1  0
 25 26  1  0
  8  2  1  0
 18 11  1  0
 12  2  1  0
 21 16  1  0
M  END
>  <MS_ID>  (2987) 
MS3094

>  <SMILES>  (2987) 
C[C@]12CC[C@@H](O)C[C@H]1CC[C@@H]1[C@@H]2C(=O)C[C@@]2(C)[C@H]1CC[C@]2(O)C(=O)CO

>  <Structure_dimension>  (2987) 
2D

$$$$
MS3095
     RDKit          2D

 28 31  0  0  0  0  0  0  0  0999 V2000
   -5.1275   -2.0302    0.0000 C   0  0  0  0  0  0  0  0  0  0  0  0
   -3.9468   -1.1050    0.0000 C   0  0  0  0  0  0  0  0  0  0  0  0
   -4.1576    0.3801    0.0000 C   0  0  0  0  0  0  0  0  0  0  0  0
   -5.5492    0.9401    0.0000 C   0  0  0  0  0  0  0  0  0  0  0  0
   -5.7600    2.4252    0.0000 C   0  0  0  0  0  0  0  0  0  0  0  0
   -4.5793    3.3503    0.0000 O   0  0  0  0  0  0  0  0  0  0  0  0
   -7.1516    2.9851    0.0000 O   0  0  0  0  0  0  0  0  0  0  0  0
   -2.5552   -1.6650    0.0000 C   0  0  0  0  0  0  0  0  0  0  0  0
   -2.1903   -3.1199    0.0000 C   0  0  0  0  0  0  0  0  0  0  0  0
   -0.6938   -3.2225    0.0000 C   0  0  0  0  0  0  0  0  0  0  0  0
   -0.1339   -1.8309    0.0000 C   0  0  0  0  0  0  0  0  0  0  0  0
    1.2750   -1.3159    0.0000 C   0  0  0  0  0  0  0  0  0  0  0  0
    2.4254   -2.2785    0.0000 C   0  0  0  0  0  0  0  0  0  0  0  0
    2.1670   -3.7560    0.0000 O   0  0  0  0  0  0  0  0  0  0  0  0
    3.8342   -1.7635    0.0000 C   0  0  0  0  0  0  0  0  0  0  0  0
    4.0926   -0.2859    0.0000 C   0  0  0  0  0  0  0  0  0  0  0  0
    5.5014    0.2291    0.0000 C   0  0  0  0  0  0  0  0  0  0  0  0
    5.7598    1.7067    0.0000 C   0  0  0  0  0  0  0  0  0  0  0  0
    7.1687    2.2217    0.0000 O   0  0  0  0  0  0  0  0  0  0  0  0
    4.6094    2.6692    0.0000 C   0  0  0  0  0  0  0  0  0  0  0  0
    3.2006    2.1542    0.0000 C   0  0  0  0  0  0  0  0  0  0  0  0
    2.9422    0.6767    0.0000 C   0  0  0  0  0  0  0  0  0  0  0  0
    1.7918    1.6392    0.0000 O   0  0  0  0  0  0  0  0  0  0  0  0
    1.5334    0.1617    0.0000 C   0  0  0  0  0  0  0  0  0  0  0  0
    0.3830    1.1242    0.0000 C   0  0  0  0  0  0  0  0  0  0  0  0
   -1.0259    0.6093    0.0000 C   0  0  0  0  0  0  0  0  0  0  0  0
   -1.2843   -0.8683    0.0000 C   0  0  0  0  0  0  0  0  0  0  0  0
   -2.5290   -0.0313    0.0000 C   0  0  0  0  0  0  0  0  0  0  0  0
  2  1  1  6
  2  3  1  0
  3  4  1  0
  4  5  1  0
  5  6  2  0
  5  7  1  0
  2  8  1  0
  8  9  1  6
  9 10  1  0
 11 10  1  6
 11 12  1  0
 12 13  1  1
 13 14  1  6
 13 15  1  0
 16 15  1  1
 16 17  1  0
 17 18  1  0
 18 19  1  1
 18 20  1  0
 20 21  1  0
 21 22  1  0
 22 23  1  6
 22 24  1  0
 24 25  1  6
 25 26  1  0
 26 27  1  0
 27 28  1  6
 27  8  1  0
 27 11  1  0
 24 12  1  0
 22 16  1  0
M  END
>  <MS_ID>  (2988) 
MS3095

>  <SMILES>  (2988) 
C[C@H](CCC(=O)O)[C@H]1CC[C@H]2[C@@H]3[C@@H](O)C[C@@H]4C[C@H](O)CC[C@]4(O)[C@H]3CC[C@]12C

>  <Structure_dimension>  (2988) 
2D

$$$$
MS3096
     RDKit          2D

 24 27  0  0  0  0  0  0  0  0999 V2000
   -6.1877   -0.1229    0.0000 C   0  0  0  0  0  0  0  0  0  0  0  0
   -4.7954    0.4353    0.0000 C   0  0  0  0  0  0  0  0  0  0  0  0
   -4.5826    1.9201    0.0000 O   0  0  0  0  0  0  0  0  0  0  0  0
   -3.6159   -0.4914    0.0000 C   0  0  0  0  0  0  0  0  0  0  0  0
   -3.6723   -1.9904    0.0000 C   0  0  0  0  0  0  0  0  0  0  0  0
   -2.2641   -2.5072    0.0000 C   0  0  0  0  0  0  0  0  0  0  0  0
   -1.3374   -1.3277    0.0000 C   0  0  0  0  0  0  0  0  0  0  0  0
    0.1592   -1.2271    0.0000 C   0  0  0  0  0  0  0  0  0  0  0  0
    0.9946   -2.4730    0.0000 C   0  0  0  0  0  0  0  0  0  0  0  0
    2.4912   -2.3724    0.0000 C   0  0  0  0  0  0  0  0  0  0  0  0
    3.1524   -1.0260    0.0000 C   0  0  0  0  0  0  0  0  0  0  0  0
    4.6491   -0.9254    0.0000 C   0  0  0  0  0  0  0  0  0  0  0  0
    5.3103    0.4210    0.0000 C   0  0  0  0  0  0  0  0  0  0  0  0
    6.8069    0.5216    0.0000 O   0  0  0  0  0  0  0  0  0  0  0  0
    4.4749    1.6668    0.0000 C   0  0  0  0  0  0  0  0  0  0  0  0
    2.9782    1.5662    0.0000 C   0  0  0  0  0  0  0  0  0  0  0  0
    2.3170    0.2198    0.0000 C   0  0  0  0  0  0  0  0  0  0  0  0
    1.4816    1.4657    0.0000 C   0  0  0  0  0  0  0  0  0  0  0  0
    0.8204    0.1193    0.0000 C   0  0  0  0  0  0  0  0  0  0  0  0
   -0.0150    1.3651    0.0000 C   0  0  0  0  0  0  0  0  0  0  0  0
   -1.5116    1.2645    0.0000 C   0  0  0  0  0  0  0  0  0  0  0  0
   -2.3471    2.5103    0.0000 O   0  0  0  0  0  0  0  0  0  0  0  0
   -2.1729   -0.0819    0.0000 C   0  0  0  0  0  0  0  0  0  0  0  0
   -3.1339    1.0698    0.0000 C   0  0  0  0  0  0  0  0  0  0  0  0
  1  2  1  0
  2  3  2  0
  4  2  1  6
  4  5  1  0
  5  6  1  0
  7  6  1  6
  7  8  1  0
  8  9  1  1
  9 10  1  0
 11 10  1  1
 11 12  1  0
 12 13  1  0
 13 14  1  1
 13 15  1  0
 15 16  1  0
 16 17  1  0
 17 18  1  6
 17 19  1  0
 19 20  1  6
 20 21  1  0
 21 22  1  6
 21 23  1  0
 23 24  1  6
 23  4  1  0
 23  7  1  0
 19  8  1  0
 17 11  1  0
M  END
>  <MS_ID>  (2989) 
MS3096

>  <SMILES>  (2989) 
CC(=O)[C@H]1CC[C@H]2[C@@H]3CC[C@@H]4C[C@H](O)CC[C@]4(C)[C@H]3C[C@@H](O)[C@]12C

>  <Structure_dimension>  (2989) 
2D

$$$$
MS3097
     RDKit          2D

 21 24  0  0  0  0  0  0  0  0999 V2000
    1.0087   -1.5838    0.0000 C   0  0  0  0  0  0  0  0  0  0  0  0
    1.7246   -0.2657    0.0000 C   0  0  0  0  0  0  0  0  0  0  0  0
    2.5082   -1.5447    0.0000 C   0  0  0  0  0  0  0  0  0  0  0  0
    4.0077   -1.5056    0.0000 C   0  0  0  0  0  0  0  0  0  0  0  0
    4.7236   -0.1874    0.0000 C   0  0  0  0  0  0  0  0  0  0  0  0
    6.2231   -0.1483    0.0000 O   0  0  0  0  0  0  0  0  0  0  0  0
    3.9400    1.0916    0.0000 C   0  0  0  0  0  0  0  0  0  0  0  0
    2.4405    1.0525    0.0000 C   0  0  0  0  0  0  0  0  0  0  0  0
    1.6569    2.3315    0.0000 C   0  0  0  0  0  0  0  0  0  0  0  0
    0.1574    2.2924    0.0000 C   0  0  0  0  0  0  0  0  0  0  0  0
   -0.5585    0.9743    0.0000 C   0  0  0  0  0  0  0  0  0  0  0  0
    0.2251   -0.3048    0.0000 C   0  0  0  0  0  0  0  0  0  0  0  0
   -0.4908   -1.6229    0.0000 C   0  0  0  0  0  0  0  0  0  0  0  0
   -1.9903   -1.6620    0.0000 C   0  0  0  0  0  0  0  0  0  0  0  0
   -2.7739   -0.3830    0.0000 C   0  0  0  0  0  0  0  0  0  0  0  0
   -3.6236   -1.6191    0.0000 C   0  0  0  0  0  0  0  0  0  0  0  0
   -4.2487   -0.1095    0.0000 C   0  0  0  0  0  0  0  0  0  0  0  0
   -5.3369   -1.1419    0.0000 O   0  0  0  0  0  0  0  0  0  0  0  0
   -4.4444    1.3777    0.0000 C   0  0  0  0  0  0  0  0  0  0  0  0
   -3.0904    2.0233    0.0000 C   0  0  0  0  0  0  0  0  0  0  0  0
   -2.0580    0.9352    0.0000 C   0  0  0  0  0  0  0  0  0  0  0  0
  2  1  1  1
  2  3  1  0
  3  4  1  0
  4  5  1  0
  5  6  2  0
  5  7  1  0
  8  7  1  6
  8  9  1  0
  9 10  1  0
 11 10  1  6
 11 12  1  0
 12 13  1  1
 13 14  1  0
 14 15  1  0
 15 16  1  1
 15 17  1  0
 17 18  1  1
 17 19  1  0
 19 20  1  0
 21 20  1  1
  8  2  1  0
 21 11  1  0
 12  2  1  0
 21 15  1  0
M  END
>  <MS_ID>  (2990) 
MS3097

>  <SMILES>  (2990) 
C[C@]12CCC(=O)C[C@H]1CC[C@@H]1[C@@H]2CC[C@]2(C)[C@@H](O)CC[C@@H]12

>  <Structure_dimension>  (2990) 
2D

$$$$
MS3098
     RDKit          2D

 36 39  0  0  0  0  0  0  0  0999 V2000
   -0.6825   -4.5863    0.0000 C   0  0  0  0  0  0  0  0  0  0  0  0
   -0.0961   -3.2056    0.0000 C   0  0  0  0  0  0  0  0  0  0  0  0
   -0.9985   -2.0075    0.0000 C   0  0  0  0  0  0  0  0  0  0  0  0
   -2.4874   -2.1899    0.0000 C   0  0  0  0  0  0  0  0  0  0  0  0
   -3.3898   -0.9918    0.0000 C   0  0  0  0  0  0  0  0  0  0  0  0
   -2.8034    0.3889    0.0000 O   0  0  0  0  0  0  0  0  0  0  0  0
   -4.8787   -1.1742    0.0000 N   0  0  0  0  0  0  0  0  0  0  0  0
   -5.7811    0.0240    0.0000 C   0  0  0  0  0  0  0  0  0  0  0  0
   -7.2700   -0.1585    0.0000 C   0  0  0  0  0  0  0  0  0  0  0  0
   -8.1724    1.0397    0.0000 C   0  0  0  0  0  0  0  0  0  0  0  0
   -9.6613    0.8572    0.0000 C   0  0  0  0  0  0  0  0  0  0  0  0
  -10.5637    2.0554    0.0000 C   0  0  0  0  0  0  0  0  0  0  0  0
  -12.0526    1.8730    0.0000 C   0  0  0  0  0  0  0  0  0  0  0  0
  -12.6390    0.4923    0.0000 O   0  0  0  0  0  0  0  0  0  0  0  0
  -12.9550    3.0711    0.0000 O   0  0  0  0  0  0  0  0  0  0  0  0
    1.3928   -3.0232    0.0000 C   0  0  0  0  0  0  0  0  0  0  0  0
    2.4155   -4.1205    0.0000 C   0  0  0  0  0  0  0  0  0  0  0  0
    3.7751   -3.4869    0.0000 C   0  0  0  0  0  0  0  0  0  0  0  0
    3.5927   -1.9980    0.0000 C   0  0  0  0  0  0  0  0  0  0  0  0
    4.5770   -0.8662    0.0000 C   0  0  0  0  0  0  0  0  0  0  0  0
    6.0494   -1.1527    0.0000 C   0  0  0  0  0  0  0  0  0  0  0  0
    6.5374   -2.5711    0.0000 O   0  0  0  0  0  0  0  0  0  0  0  0
    7.0338   -0.0209    0.0000 C   0  0  0  0  0  0  0  0  0  0  0  0
    6.5457    1.3975    0.0000 C   0  0  0  0  0  0  0  0  0  0  0  0
    7.5301    2.5293    0.0000 C   0  0  0  0  0  0  0  0  0  0  0  0
    7.0421    3.9477    0.0000 C   0  0  0  0  0  0  0  0  0  0  0  0
    8.0264    5.0795    0.0000 O   0  0  0  0  0  0  0  0  0  0  0  0
    5.5697    4.2343    0.0000 C   0  0  0  0  0  0  0  0  0  0  0  0
    4.5854    3.1024    0.0000 C   0  0  0  0  0  0  0  0  0  0  0  0
    5.0734    1.6840    0.0000 C   0  0  0  0  0  0  0  0  0  0  0  0
    3.6010    1.9706    0.0000 C   0  0  0  0  0  0  0  0  0  0  0  0
    4.0890    0.5522    0.0000 C   0  0  0  0  0  0  0  0  0  0  0  0
    2.6166    0.8388    0.0000 C   0  0  0  0  0  0  0  0  0  0  0  0
    1.6323   -0.2930    0.0000 C   0  0  0  0  0  0  0  0  0  0  0  0
    2.1203   -1.7114    0.0000 C   0  0  0  0  0  0  0  0  0  0  0  0
    0.6260   -1.5803    0.0000 C   0  0  0  0  0  0  0  0  0  0  0  0
  2  1  1  6
  2  3  1  0
  3  4  1  0
  4  5  1  0
  5  6  2  0
  5  7  1  0
  7  8  1  0
  8  9  1  0
  9 10  1  0
 10 11  1  0
 11 12  1  0
 12 13  1  0
 13 14  2  0
 13 15  1  0
  2 16  1  0
 16 17  1  6
 17 18  1  0
 19 18  1  6
 19 20  1  0
 20 21  1  1
 21 22  1  1
 21 23  1  0
 24 23  1  1
 24 25  1  0
 25 26  1  0
 26 27  1  1
 26 28  1  0
 28 29  1  0
 29 30  1  0
 30 31  1  6
 30 32  1  0
 32 33  1  6
 33 34  1  0
 34 35  1  0
 35 36  1  6
 35 16  1  0
 35 19  1  0
 32 20  1  0
 30 24  1  0
M  END
>  <MS_ID>  (2991) 
MS3098

>  <SMILES>  (2991) 
C[C@H](CCC(=O)NCCCCCC(=O)O)[C@H]1CC[C@H]2[C@@H]3[C@H](O)C[C@@H]4C[C@H](O)CC[C@]4(C)[C@H]3CC[C@]12C

>  <Structure_dimension>  (2991) 
2D

$$$$
MS3100
     RDKit          2D

 31 34  0  0  0  0  0  0  0  0999 V2000
   -3.8035   -3.1834    0.0000 C   0  0  0  0  0  0  0  0  0  0  0  0
   -2.8200   -2.0508    0.0000 C   0  0  0  0  0  0  0  0  0  0  0  0
   -3.3090   -0.6328    0.0000 N   0  0  0  0  0  0  0  0  0  0  0  0
   -4.7816   -0.3473    0.0000 C   0  0  0  0  0  0  0  0  0  0  0  0
   -5.7651   -1.4798    0.0000 O   0  0  0  0  0  0  0  0  0  0  0  0
   -5.2706    1.0708    0.0000 C   0  0  0  0  0  0  0  0  0  0  0  0
   -6.7432    1.3563    0.0000 C   0  0  0  0  0  0  0  0  0  0  0  0
   -7.2323    2.7743    0.0000 C   0  0  0  0  0  0  0  0  0  0  0  0
   -6.2487    3.9068    0.0000 O   0  0  0  0  0  0  0  0  0  0  0  0
   -8.7048    3.0598    0.0000 O   0  0  0  0  0  0  0  0  0  0  0  0
   -1.3474   -2.3363    0.0000 C   0  0  0  0  0  0  0  0  0  0  0  0
   -0.7128   -3.6955    0.0000 C   0  0  0  0  0  0  0  0  0  0  0  0
    0.7759   -3.5119    0.0000 C   0  0  0  0  0  0  0  0  0  0  0  0
    1.0614   -2.0393    0.0000 C   0  0  0  0  0  0  0  0  0  0  0  0
    2.3468   -1.2662    0.0000 C   0  0  0  0  0  0  0  0  0  0  0  0
    3.6591   -1.9927    0.0000 C   0  0  0  0  0  0  0  0  0  0  0  0
    3.6860   -3.4925    0.0000 O   0  0  0  0  0  0  0  0  0  0  0  0
    4.9445   -1.2196    0.0000 C   0  0  0  0  0  0  0  0  0  0  0  0
    4.9176    0.2802    0.0000 C   0  0  0  0  0  0  0  0  0  0  0  0
    6.2029    1.0534    0.0000 C   0  0  0  0  0  0  0  0  0  0  0  0
    6.1760    2.5532    0.0000 C   0  0  0  0  0  0  0  0  0  0  0  0
    7.4614    3.3263    0.0000 O   0  0  0  0  0  0  0  0  0  0  0  0
    4.8637    3.2797    0.0000 C   0  0  0  0  0  0  0  0  0  0  0  0
    3.5784    2.5065    0.0000 C   0  0  0  0  0  0  0  0  0  0  0  0
    3.6053    1.0068    0.0000 C   0  0  0  0  0  0  0  0  0  0  0  0
    2.2930    1.7334    0.0000 C   0  0  0  0  0  0  0  0  0  0  0  0
    2.3199    0.2336    0.0000 C   0  0  0  0  0  0  0  0  0  0  0  0
    1.0076    0.9602    0.0000 C   0  0  0  0  0  0  0  0  0  0  0  0
   -0.2778    0.1870    0.0000 C   0  0  0  0  0  0  0  0  0  0  0  0
   -0.2508   -1.3128    0.0000 C   0  0  0  0  0  0  0  0  0  0  0  0
   -1.6319   -0.7274    0.0000 C   0  0  0  0  0  0  0  0  0  0  0  0
  2  1  1  6
  2  3  1  0
  3  4  1  0
  4  5  2  0
  4  6  1  0
  6  7  1  0
  7  8  1  0
  8  9  2  0
  8 10  1  0
  2 11  1  0
 11 12  1  6
 12 13  1  0
 14 13  1  6
 14 15  1  0
 15 16  1  1
 16 17  1  6
 16 18  1  0
 19 18  1  1
 19 20  1  0
 20 21  1  0
 21 22  1  1
 21 23  1  0
 23 24  1  0
 24 25  1  0
 25 26  1  6
 25 27  1  0
 27 28  1  6
 28 29  1  0
 29 30  1  0
 30 31  1  6
 30 11  1  0
 30 14  1  0
 27 15  1  0
 25 19  1  0
M  END
>  <MS_ID>  (2992) 
MS3100

>  <SMILES>  (2992) 
C[C@H](NC(=O)CCC(=O)O)[C@H]1CC[C@H]2[C@@H]3[C@@H](O)C[C@@H]4C[C@H](O)CC[C@]4(C)[C@H]3CC[C@]12C

>  <Structure_dimension>  (2992) 
2D

$$$$
MS3102
     RDKit          2D

 35 38  0  0  0  0  0  0  0  0999 V2000
   -2.0474   -4.3600    0.0000 C   0  0  0  0  0  0  0  0  0  0  0  0
   -1.3346   -3.0401    0.0000 C   0  0  0  0  0  0  0  0  0  0  0  0
   -2.1213   -1.7629    0.0000 C   0  0  0  0  0  0  0  0  0  0  0  0
   -3.6207   -1.8056    0.0000 C   0  0  0  0  0  0  0  0  0  0  0  0
   -4.4073   -0.5284    0.0000 C   0  0  0  0  0  0  0  0  0  0  0  0
   -3.6946    0.7914    0.0000 O   0  0  0  0  0  0  0  0  0  0  0  0
   -5.9067   -0.5711    0.0000 N   0  0  0  0  0  0  0  0  0  0  0  0
   -6.6934    0.7061    0.0000 C   0  0  0  0  0  0  0  0  0  0  0  0
   -8.1928    0.6634    0.0000 C   0  0  0  0  0  0  0  0  0  0  0  0
   -8.9794    1.9406    0.0000 C   0  0  0  0  0  0  0  0  0  0  0  0
  -10.4788    1.8979    0.0000 O   0  0  0  0  0  0  0  0  0  0  0  0
   -5.9806    2.0259    0.0000 C   0  0  0  0  0  0  0  0  0  0  0  0
   -4.4812    2.0686    0.0000 O   0  0  0  0  0  0  0  0  0  0  0  0
   -6.7673    3.3031    0.0000 O   0  0  0  0  0  0  0  0  0  0  0  0
    0.1647   -2.9974    0.0000 C   0  0  0  0  0  0  0  0  0  0  0  0
    1.0806   -4.1854    0.0000 C   0  0  0  0  0  0  0  0  0  0  0  0
    2.4934   -3.6815    0.0000 C   0  0  0  0  0  0  0  0  0  0  0  0
    2.4507   -2.1821    0.0000 C   0  0  0  0  0  0  0  0  0  0  0  0
    3.5365   -1.1471    0.0000 C   0  0  0  0  0  0  0  0  0  0  0  0
    4.9756   -1.5698    0.0000 C   0  0  0  0  0  0  0  0  0  0  0  0
    5.3291   -3.0276    0.0000 O   0  0  0  0  0  0  0  0  0  0  0  0
    6.0614   -0.5348    0.0000 C   0  0  0  0  0  0  0  0  0  0  0  0
    5.7079    0.9229    0.0000 C   0  0  0  0  0  0  0  0  0  0  0  0
    6.7936    1.9579    0.0000 C   0  0  0  0  0  0  0  0  0  0  0  0
    6.4401    3.4157    0.0000 C   0  0  0  0  0  0  0  0  0  0  0  0
    7.5258    4.4507    0.0000 O   0  0  0  0  0  0  0  0  0  0  0  0
    5.0009    3.8384    0.0000 C   0  0  0  0  0  0  0  0  0  0  0  0
    3.9152    2.8034    0.0000 C   0  0  0  0  0  0  0  0  0  0  0  0
    4.2687    1.3457    0.0000 C   0  0  0  0  0  0  0  0  0  0  0  0
    2.8295    1.7684    0.0000 C   0  0  0  0  0  0  0  0  0  0  0  0
    3.1830    0.3107    0.0000 C   0  0  0  0  0  0  0  0  0  0  0  0
    1.7438    0.7334    0.0000 C   0  0  0  0  0  0  0  0  0  0  0  0
    0.6581   -0.3016    0.0000 C   0  0  0  0  0  0  0  0  0  0  0  0
    1.0115   -1.7593    0.0000 C   0  0  0  0  0  0  0  0  0  0  0  0
   -0.4640   -1.4893    0.0000 C   0  0  0  0  0  0  0  0  0  0  0  0
  2  1  1  6
  2  3  1  0
  3  4  1  0
  4  5  1  0
  5  6  2  0
  5  7  1  0
  7  8  1  0
  8  9  1  1
  9 10  1  0
 10 11  1  0
  8 12  1  0
 12 13  2  0
 12 14  1  0
  2 15  1  0
 15 16  1  6
 16 17  1  0
 18 17  1  6
 18 19  1  0
 19 20  1  1
 20 21  1  1
 20 22  1  0
 23 22  1  1
 23 24  1  0
 24 25  1  0
 25 26  1  1
 25 27  1  0
 27 28  1  0
 28 29  1  0
 29 30  1  6
 29 31  1  0
 31 32  1  6
 32 33  1  0
 33 34  1  0
 34 35  1  6
 34 15  1  0
 34 18  1  0
 31 19  1  0
 29 23  1  0
M  END
>  <MS_ID>  (2993) 
MS3102

>  <SMILES>  (2993) 
C[C@H](CCC(=O)N[C@@H](CCO)C(=O)O)[C@H]1CC[C@H]2[C@@H]3[C@H](O)C[C@@H]4C[C@H](O)CC[C@]4(C)[C@H]3CC[C@]12C

>  <Structure_dimension>  (2993) 
2D

$$$$
MS3103
     RDKit          2D

 26 29  0  0  0  0  0  0  0  0999 V2000
   -7.6637    0.1344    0.0000 C   0  0  0  0  0  0  0  0  0  0  0  0
   -6.2767    0.7057    0.0000 O   0  0  0  0  0  0  0  0  0  0  0  0
   -5.0885   -0.2098    0.0000 C   0  0  0  0  0  0  0  0  0  0  0  0
   -5.1307   -1.7092    0.0000 C   0  0  0  0  0  0  0  0  0  0  0  0
   -3.7178   -2.2128    0.0000 C   0  0  0  0  0  0  0  0  0  0  0  0
   -2.8023   -1.0245    0.0000 C   0  0  0  0  0  0  0  0  0  0  0  0
   -1.3067   -0.9098    0.0000 C   0  0  0  0  0  0  0  0  0  0  0  0
   -0.4595   -2.1477    0.0000 C   0  0  0  0  0  0  0  0  0  0  0  0
    1.0361   -2.0329    0.0000 C   0  0  0  0  0  0  0  0  0  0  0  0
    1.6846   -0.6803    0.0000 C   0  0  0  0  0  0  0  0  0  0  0  0
    3.1802   -0.5656    0.0000 C   0  0  0  0  0  0  0  0  0  0  0  0
    3.8286    0.7870    0.0000 C   0  0  0  0  0  0  0  0  0  0  0  0
    5.3242    0.9017    0.0000 O   0  0  0  0  0  0  0  0  0  0  0  0
    6.1714   -0.3362    0.0000 S   0  0  0  0  0  0  0  0  0  0  0  0
    4.9335   -1.1833    0.0000 O   0  0  0  0  0  0  0  0  0  0  0  0
    7.4092    0.5110    0.0000 O   0  0  0  0  0  0  0  0  0  0  0  0
    7.0185   -1.5740    0.0000 O   0  0  0  0  0  0  0  0  0  0  0  0
    2.9814    2.0249    0.0000 C   0  0  0  0  0  0  0  0  0  0  0  0
    1.4858    1.9101    0.0000 C   0  0  0  0  0  0  0  0  0  0  0  0
    0.8374    0.5575    0.0000 C   0  0  0  0  0  0  0  0  0  0  0  0
   -0.0098    1.7954    0.0000 C   0  0  0  0  0  0  0  0  0  0  0  0
   -0.6582    0.4428    0.0000 C   0  0  0  0  0  0  0  0  0  0  0  0
   -1.5054    1.6807    0.0000 C   0  0  0  0  0  0  0  0  0  0  0  0
   -3.0010    1.5659    0.0000 C   0  0  0  0  0  0  0  0  0  0  0  0
   -3.6494    0.2133    0.0000 C   0  0  0  0  0  0  0  0  0  0  0  0
   -4.6213    1.3559    0.0000 C   0  0  0  0  0  0  0  0  0  0  0  0
  1  2  1  0
  3  2  1  6
  3  4  1  0
  4  5  1  0
  6  5  1  6
  6  7  1  0
  7  8  1  1
  8  9  1  0
 10  9  1  1
 10 11  1  0
 11 12  1  0
 12 13  1  1
 13 14  1  0
 14 15  2  0
 14 16  2  0
 14 17  1  0
 12 18  1  0
 18 19  1  0
 19 20  1  0
 20 21  1  6
 20 22  1  0
 22 23  1  6
 23 24  1  0
 24 25  1  0
 25 26  1  6
 25  3  1  0
 25  6  1  0
 22  7  1  0
 20 10  1  0
M  END
>  <MS_ID>  (2994) 
MS3103

>  <SMILES>  (2994) 
CO[C@H]1CC[C@H]2[C@@H]3CC[C@@H]4C[C@H](OS(=O)(=O)O)CC[C@]4(C)[C@H]3CC[C@]12C

>  <Structure_dimension>  (2994) 
2D

$$$$
MS3104
     RDKit          2D

 31 34  0  0  0  0  0  0  0  0999 V2000
   -3.8035   -3.1834    0.0000 C   0  0  0  0  0  0  0  0  0  0  0  0
   -2.8200   -2.0508    0.0000 C   0  0  0  0  0  0  0  0  0  0  0  0
   -3.3090   -0.6328    0.0000 O   0  0  0  0  0  0  0  0  0  0  0  0
   -4.7816   -0.3473    0.0000 C   0  0  0  0  0  0  0  0  0  0  0  0
   -5.7651   -1.4798    0.0000 O   0  0  0  0  0  0  0  0  0  0  0  0
   -5.2706    1.0708    0.0000 C   0  0  0  0  0  0  0  0  0  0  0  0
   -6.7432    1.3563    0.0000 C   0  0  0  0  0  0  0  0  0  0  0  0
   -7.2323    2.7743    0.0000 C   0  0  0  0  0  0  0  0  0  0  0  0
   -6.2487    3.9068    0.0000 O   0  0  0  0  0  0  0  0  0  0  0  0
   -8.7048    3.0598    0.0000 O   0  0  0  0  0  0  0  0  0  0  0  0
   -1.3474   -2.3363    0.0000 C   0  0  0  0  0  0  0  0  0  0  0  0
   -0.7128   -3.6955    0.0000 C   0  0  0  0  0  0  0  0  0  0  0  0
    0.7759   -3.5119    0.0000 C   0  0  0  0  0  0  0  0  0  0  0  0
    1.0614   -2.0393    0.0000 C   0  0  0  0  0  0  0  0  0  0  0  0
    2.3468   -1.2662    0.0000 C   0  0  0  0  0  0  0  0  0  0  0  0
    3.6591   -1.9927    0.0000 C   0  0  0  0  0  0  0  0  0  0  0  0
    3.6860   -3.4925    0.0000 O   0  0  0  0  0  0  0  0  0  0  0  0
    4.9445   -1.2196    0.0000 C   0  0  0  0  0  0  0  0  0  0  0  0
    4.9176    0.2802    0.0000 C   0  0  0  0  0  0  0  0  0  0  0  0
    6.2029    1.0534    0.0000 C   0  0  0  0  0  0  0  0  0  0  0  0
    6.1760    2.5532    0.0000 C   0  0  0  0  0  0  0  0  0  0  0  0
    7.4614    3.3263    0.0000 O   0  0  0  0  0  0  0  0  0  0  0  0
    4.8637    3.2797    0.0000 C   0  0  0  0  0  0  0  0  0  0  0  0
    3.5784    2.5065    0.0000 C   0  0  0  0  0  0  0  0  0  0  0  0
    3.6053    1.0068    0.0000 C   0  0  0  0  0  0  0  0  0  0  0  0
    2.2930    1.7334    0.0000 C   0  0  0  0  0  0  0  0  0  0  0  0
    2.3199    0.2336    0.0000 C   0  0  0  0  0  0  0  0  0  0  0  0
    1.0076    0.9602    0.0000 C   0  0  0  0  0  0  0  0  0  0  0  0
   -0.2778    0.1870    0.0000 C   0  0  0  0  0  0  0  0  0  0  0  0
   -0.2508   -1.3128    0.0000 C   0  0  0  0  0  0  0  0  0  0  0  0
   -1.6319   -0.7274    0.0000 C   0  0  0  0  0  0  0  0  0  0  0  0
  2  1  1  6
  2  3  1  0
  3  4  1  0
  4  5  2  0
  4  6  1  0
  6  7  1  0
  7  8  1  0
  8  9  2  0
  8 10  1  0
  2 11  1  0
 11 12  1  6
 12 13  1  0
 14 13  1  6
 14 15  1  0
 15 16  1  1
 16 17  1  6
 16 18  1  0
 19 18  1  1
 19 20  1  0
 20 21  1  0
 21 22  1  1
 21 23  1  0
 23 24  1  0
 24 25  1  0
 25 26  1  6
 25 27  1  0
 27 28  1  6
 28 29  1  0
 29 30  1  0
 30 31  1  6
 30 11  1  0
 30 14  1  0
 27 15  1  0
 25 19  1  0
M  END
>  <MS_ID>  (2995) 
MS3104

>  <SMILES>  (2995) 
C[C@H](OC(=O)CCC(=O)O)[C@H]1CC[C@H]2[C@@H]3[C@@H](O)C[C@@H]4C[C@H](O)CC[C@]4(C)[C@H]3CC[C@]12C

>  <Structure_dimension>  (2995) 
2D

$$$$
MS3105
     RDKit          2D

 37 40  0  0  0  0  0  0  0  0999 V2000
   -1.2430   -4.5204    0.0000 C   0  0  0  0  0  0  0  0  0  0  0  0
   -0.5890   -3.1705    0.0000 C   0  0  0  0  0  0  0  0  0  0  0  0
   -1.4310   -1.9291    0.0000 C   0  0  0  0  0  0  0  0  0  0  0  0
   -2.9270   -2.0376    0.0000 C   0  0  0  0  0  0  0  0  0  0  0  0
   -3.7690   -0.7962    0.0000 C   0  0  0  0  0  0  0  0  0  0  0  0
   -3.1150    0.5537    0.0000 O   0  0  0  0  0  0  0  0  0  0  0  0
   -5.2651   -0.9047    0.0000 N   0  0  0  0  0  0  0  0  0  0  0  0
   -6.1071    0.3366    0.0000 C   0  0  0  0  0  0  0  0  0  0  0  0
   -7.6032    0.2281    0.0000 C   0  0  0  0  0  0  0  0  0  0  0  0
   -8.4452    1.4695    0.0000 C   0  0  0  0  0  0  0  0  0  0  0  0
   -9.9413    1.3610    0.0000 C   0  0  0  0  0  0  0  0  0  0  0  0
  -10.7833    2.6024    0.0000 N   0  0  0  0  0  0  0  0  0  0  0  0
  -10.5953    0.0111    0.0000 O   0  0  0  0  0  0  0  0  0  0  0  0
   -5.4531    1.6865    0.0000 C   0  0  0  0  0  0  0  0  0  0  0  0
   -3.9570    1.7950    0.0000 O   0  0  0  0  0  0  0  0  0  0  0  0
   -6.2951    2.9279    0.0000 O   0  0  0  0  0  0  0  0  0  0  0  0
    0.9071   -3.0620    0.0000 C   0  0  0  0  0  0  0  0  0  0  0  0
    1.8742   -4.2086    0.0000 C   0  0  0  0  0  0  0  0  0  0  0  0
    3.2636   -3.6431    0.0000 C   0  0  0  0  0  0  0  0  0  0  0  0
    3.1551   -2.1470    0.0000 C   0  0  0  0  0  0  0  0  0  0  0  0
    4.1943   -1.0653    0.0000 C   0  0  0  0  0  0  0  0  0  0  0  0
    5.6506   -1.4244    0.0000 C   0  0  0  0  0  0  0  0  0  0  0  0
    6.0678   -2.8652    0.0000 O   0  0  0  0  0  0  0  0  0  0  0  0
    6.6898   -0.3427    0.0000 C   0  0  0  0  0  0  0  0  0  0  0  0
    6.2726    1.0981    0.0000 C   0  0  0  0  0  0  0  0  0  0  0  0
    7.3118    2.1798    0.0000 C   0  0  0  0  0  0  0  0  0  0  0  0
    6.8946    3.6206    0.0000 C   0  0  0  0  0  0  0  0  0  0  0  0
    7.9338    4.7023    0.0000 O   0  0  0  0  0  0  0  0  0  0  0  0
    5.4383    3.9798    0.0000 C   0  0  0  0  0  0  0  0  0  0  0  0
    4.3991    2.8981    0.0000 C   0  0  0  0  0  0  0  0  0  0  0  0
    4.8163    1.4572    0.0000 C   0  0  0  0  0  0  0  0  0  0  0  0
    3.3599    1.8164    0.0000 C   0  0  0  0  0  0  0  0  0  0  0  0
    3.7771    0.3755    0.0000 C   0  0  0  0  0  0  0  0  0  0  0  0
    2.3207    0.7347    0.0000 C   0  0  0  0  0  0  0  0  0  0  0  0
    1.2815   -0.3470    0.0000 C   0  0  0  0  0  0  0  0  0  0  0  0
    1.6987   -1.7879    0.0000 C   0  0  0  0  0  0  0  0  0  0  0  0
    0.2127   -1.5829    0.0000 C   0  0  0  0  0  0  0  0  0  0  0  0
  2  1  1  6
  2  3  1  0
  3  4  1  0
  4  5  1  0
  5  6  2  0
  5  7  1  0
  7  8  1  0
  8  9  1  1
  9 10  1  0
 10 11  1  0
 11 12  1  0
 11 13  2  0
  8 14  1  0
 14 15  2  0
 14 16  1  0
  2 17  1  0
 17 18  1  6
 18 19  1  0
 20 19  1  6
 20 21  1  0
 21 22  1  1
 22 23  1  6
 22 24  1  0
 25 24  1  1
 25 26  1  0
 26 27  1  0
 27 28  1  1
 27 29  1  0
 29 30  1  0
 30 31  1  0
 31 32  1  6
 31 33  1  0
 33 34  1  6
 34 35  1  0
 35 36  1  0
 36 37  1  6
 36 17  1  0
 36 20  1  0
 33 21  1  0
 31 25  1  0
M  END
>  <MS_ID>  (2996) 
MS3105

>  <SMILES>  (2996) 
C[C@H](CCC(=O)N[C@@H](CCC(N)=O)C(=O)O)[C@H]1CC[C@H]2[C@@H]3[C@@H](O)C[C@@H]4C[C@H](O)CC[C@]4(C)[C@H]3CC[C@]12C

>  <Structure_dimension>  (2996) 
2D

$$$$
MS3106
     RDKit          2D

 36 39  0  0  0  0  0  0  0  0999 V2000
   -1.0153   -4.6045    0.0000 C   0  0  0  0  0  0  0  0  0  0  0  0
   -0.3905   -3.2408    0.0000 C   0  0  0  0  0  0  0  0  0  0  0  0
   -1.2592   -2.0179    0.0000 C   0  0  0  0  0  0  0  0  0  0  0  0
   -2.7526   -2.1587    0.0000 C   0  0  0  0  0  0  0  0  0  0  0  0
   -3.6212   -0.9358    0.0000 C   0  0  0  0  0  0  0  0  0  0  0  0
   -2.9965    0.4279    0.0000 O   0  0  0  0  0  0  0  0  0  0  0  0
   -5.1146   -1.0767    0.0000 N   0  0  0  0  0  0  0  0  0  0  0  0
   -5.9832    0.1462    0.0000 C   0  0  0  0  0  0  0  0  0  0  0  0
   -7.4766    0.0054    0.0000 C   0  0  0  0  0  0  0  0  0  0  0  0
   -8.3452    1.2283    0.0000 C   0  0  0  0  0  0  0  0  0  0  0  0
   -9.8386    1.0875    0.0000 C   0  0  0  0  0  0  0  0  0  0  0  0
  -10.4633   -0.2762    0.0000 N   0  0  0  0  0  0  0  0  0  0  0  0
  -10.7072    2.3104    0.0000 C   0  0  0  0  0  0  0  0  0  0  0  0
  -10.0825    3.6741    0.0000 O   0  0  0  0  0  0  0  0  0  0  0  0
  -12.2006    2.1696    0.0000 O   0  0  0  0  0  0  0  0  0  0  0  0
    1.1028   -3.1000    0.0000 C   0  0  0  0  0  0  0  0  0  0  0  0
    2.0945   -4.2254    0.0000 C   0  0  0  0  0  0  0  0  0  0  0  0
    3.4713   -3.6300    0.0000 C   0  0  0  0  0  0  0  0  0  0  0  0
    3.3305   -2.1366    0.0000 C   0  0  0  0  0  0  0  0  0  0  0  0
    4.3461   -1.0327    0.0000 C   0  0  0  0  0  0  0  0  0  0  0  0
    5.8099   -1.3602    0.0000 C   0  0  0  0  0  0  0  0  0  0  0  0
    6.8254   -0.2563    0.0000 C   0  0  0  0  0  0  0  0  0  0  0  0
    8.2892   -0.5839    0.0000 O   0  0  0  0  0  0  0  0  0  0  0  0
    6.3772    1.1751    0.0000 C   0  0  0  0  0  0  0  0  0  0  0  0
    7.3928    2.2790    0.0000 C   0  0  0  0  0  0  0  0  0  0  0  0
    6.9445    3.7105    0.0000 C   0  0  0  0  0  0  0  0  0  0  0  0
    7.9601    4.8144    0.0000 O   0  0  0  0  0  0  0  0  0  0  0  0
    5.4807    4.0381    0.0000 C   0  0  0  0  0  0  0  0  0  0  0  0
    4.4652    2.9341    0.0000 C   0  0  0  0  0  0  0  0  0  0  0  0
    4.9134    1.5027    0.0000 C   0  0  0  0  0  0  0  0  0  0  0  0
    3.4496    1.8302    0.0000 C   0  0  0  0  0  0  0  0  0  0  0  0
    3.8978    0.3988    0.0000 C   0  0  0  0  0  0  0  0  0  0  0  0
    2.4340    0.7263    0.0000 C   0  0  0  0  0  0  0  0  0  0  0  0
    1.4185   -0.3776    0.0000 C   0  0  0  0  0  0  0  0  0  0  0  0
    1.8667   -1.8090    0.0000 C   0  0  0  0  0  0  0  0  0  0  0  0
    0.3767   -1.6363    0.0000 C   0  0  0  0  0  0  0  0  0  0  0  0
  2  1  1  6
  2  3  1  0
  3  4  1  0
  4  5  1  0
  5  6  2  0
  5  7  1  0
  7  8  1  0
  8  9  1  0
  9 10  1  0
 10 11  1  0
 11 12  1  6
 11 13  1  0
 13 14  2  0
 13 15  1  0
  2 16  1  0
 16 17  1  6
 17 18  1  0
 19 18  1  6
 19 20  1  0
 20 21  1  1
 21 22  1  0
 22 23  1  1
 22 24  1  0
 24 25  1  1
 25 26  1  0
 26 27  1  1
 26 28  1  0
 28 29  1  0
 29 30  1  0
 30 31  1  6
 30 32  1  0
 32 33  1  6
 33 34  1  0
 34 35  1  0
 35 36  1  6
 35 16  1  0
 35 19  1  0
 32 20  1  0
 30 24  1  0
M  END
>  <MS_ID>  (2997) 
MS3106

>  <SMILES>  (2997) 
C[C@H](CCC(=O)NCCC[C@H](N)C(=O)O)[C@H]1CC[C@H]2[C@@H]3C[C@H](O)[C@@H]4C[C@H](O)CC[C@]4(C)[C@H]3CC[C@]12C

>  <Structure_dimension>  (2997) 
2D

$$$$
MS3107
     RDKit          2D

 27 30  0  0  0  0  0  0  0  0999 V2000
   -5.1023   -2.0364    0.0000 C   0  0  0  0  0  0  0  0  0  0  0  0
   -3.8978   -1.1425    0.0000 C   0  0  0  0  0  0  0  0  0  0  0  0
   -4.0697    0.3476    0.0000 N   0  0  0  0  0  0  0  0  0  0  0  0
   -5.4461    0.9438    0.0000 C   0  0  0  0  0  0  0  0  0  0  0  0
   -5.6180    2.4339    0.0000 C   0  0  0  0  0  0  0  0  0  0  0  0
   -4.4135    3.3278    0.0000 O   0  0  0  0  0  0  0  0  0  0  0  0
   -6.9944    3.0301    0.0000 O   0  0  0  0  0  0  0  0  0  0  0  0
   -2.5213   -1.7387    0.0000 C   0  0  0  0  0  0  0  0  0  0  0  0
   -2.1946   -3.2027    0.0000 C   0  0  0  0  0  0  0  0  0  0  0  0
   -0.7013   -3.3444    0.0000 C   0  0  0  0  0  0  0  0  0  0  0  0
   -0.1051   -1.9679    0.0000 C   0  0  0  0  0  0  0  0  0  0  0  0
    1.3167   -1.4900    0.0000 C   0  0  0  0  0  0  0  0  0  0  0  0
    2.4415   -2.4823    0.0000 C   0  0  0  0  0  0  0  0  0  0  0  0
    3.8633   -2.0044    0.0000 C   0  0  0  0  0  0  0  0  0  0  0  0
    4.1603   -0.5341    0.0000 C   0  0  0  0  0  0  0  0  0  0  0  0
    5.5821   -0.0561    0.0000 C   0  0  0  0  0  0  0  0  0  0  0  0
    5.8791    1.4142    0.0000 C   0  0  0  0  0  0  0  0  0  0  0  0
    7.3009    1.8921    0.0000 O   0  0  0  0  0  0  0  0  0  0  0  0
    4.7543    2.4065    0.0000 C   0  0  0  0  0  0  0  0  0  0  0  0
    3.3325    1.9286    0.0000 C   0  0  0  0  0  0  0  0  0  0  0  0
    3.0355    0.4583    0.0000 C   0  0  0  0  0  0  0  0  0  0  0  0
    1.9107    1.4506    0.0000 C   0  0  0  0  0  0  0  0  0  0  0  0
    1.6137   -0.0197    0.0000 C   0  0  0  0  0  0  0  0  0  0  0  0
    0.4888    0.9727    0.0000 C   0  0  0  0  0  0  0  0  0  0  0  0
   -0.9330    0.4947    0.0000 C   0  0  0  0  0  0  0  0  0  0  0  0
   -1.2300   -0.9756    0.0000 C   0  0  0  0  0  0  0  0  0  0  0  0
   -2.4524   -0.1062    0.0000 C   0  0  0  0  0  0  0  0  0  0  0  0
  2  1  1  6
  2  3  1  0
  3  4  1  0
  4  5  1  0
  5  6  2  0
  5  7  1  0
  2  8  1  0
  8  9  1  6
  9 10  1  0
 11 10  1  6
 11 12  1  0
 12 13  1  1
 13 14  1  0
 15 14  1  1
 15 16  1  0
 16 17  1  0
 17 18  1  1
 17 19  1  0
 19 20  1  0
 20 21  1  0
 21 22  1  6
 21 23  1  0
 23 24  1  6
 24 25  1  0
 25 26  1  0
 26 27  1  6
 26  8  1  0
 26 11  1  0
 23 12  1  0
 21 15  1  0
M  END
>  <MS_ID>  (2998) 
MS3107

>  <SMILES>  (2998) 
C[C@H](NCC(=O)O)[C@H]1CC[C@H]2[C@@H]3CC[C@@H]4C[C@H](O)CC[C@]4(C)[C@H]3CC[C@]12C

>  <Structure_dimension>  (2998) 
2D

$$$$
MS3108
     RDKit          2D

 22 25  0  0  0  0  0  0  0  0999 V2000
   -5.9846    0.0686    0.0000 C   0  0  0  0  0  0  0  0  0  0  0  0
   -4.5873    0.6142    0.0000 C   0  0  0  0  0  0  0  0  0  0  0  0
   -4.3612    2.0971    0.0000 O   0  0  0  0  0  0  0  0  0  0  0  0
   -3.4162   -0.3230    0.0000 C   0  0  0  0  0  0  0  0  0  0  0  0
   -3.4860   -1.8214    0.0000 C   0  0  0  0  0  0  0  0  0  0  0  0
   -2.0826   -2.3508    0.0000 C   0  0  0  0  0  0  0  0  0  0  0  0
   -1.1453   -1.1797    0.0000 C   0  0  0  0  0  0  0  0  0  0  0  0
    0.3521   -1.0925    0.0000 C   0  0  0  0  0  0  0  0  0  0  0  0
    1.1763   -2.3458    0.0000 C   0  0  0  0  0  0  0  0  0  0  0  0
    2.6738   -2.2586    0.0000 C   0  0  0  0  0  0  0  0  0  0  0  0
    3.3471   -0.9182    0.0000 C   0  0  0  0  0  0  0  0  0  0  0  0
    4.8445   -0.8311    0.0000 C   0  0  0  0  0  0  0  0  0  0  0  0
    5.5178    0.5094    0.0000 C   0  0  0  0  0  0  0  0  0  0  0  0
    4.6936    1.7626    0.0000 C   0  0  0  0  0  0  0  0  0  0  0  0
    3.1961    1.6755    0.0000 C   0  0  0  0  0  0  0  0  0  0  0  0
    2.5228    0.3350    0.0000 C   0  0  0  0  0  0  0  0  0  0  0  0
    1.6986    1.5883    0.0000 C   0  0  0  0  0  0  0  0  0  0  0  0
    1.0254    0.2479    0.0000 C   0  0  0  0  0  0  0  0  0  0  0  0
    0.2012    1.5012    0.0000 C   0  0  0  0  0  0  0  0  0  0  0  0
   -1.2963    1.4140    0.0000 C   0  0  0  0  0  0  0  0  0  0  0  0
   -1.9696    0.0736    0.0000 C   0  0  0  0  0  0  0  0  0  0  0  0
   -2.9202    1.2338    0.0000 C   0  0  0  0  0  0  0  0  0  0  0  0
  2  1  1  6
  2  3  1  0
  2  4  1  0
  4  5  1  6
  5  6  1  0
  7  6  1  6
  7  8  1  0
  8  9  1  1
  9 10  1  0
 11 10  1  1
 11 12  1  0
 12 13  1  0
 13 14  1  0
 14 15  1  0
 15 16  1  0
 16 17  1  6
 16 18  1  0
 18 19  1  6
 19 20  1  0
 20 21  1  0
 21 22  1  6
 21  4  1  0
 21  7  1  0
 18  8  1  0
 16 11  1  0
M  END
>  <MS_ID>  (2999) 
MS3108

>  <SMILES>  (2999) 
C[C@H](O)[C@H]1CC[C@H]2[C@@H]3CC[C@@H]4CCCC[C@]4(C)[C@H]3CC[C@]12C

>  <Structure_dimension>  (2999) 
2D

$$$$
MS3109
     RDKit          2D

 30 33  0  0  0  0  0  0  0  0999 V2000
   -7.1173    3.4778    0.0000 C   0  0  0  0  0  0  0  0  0  0  0  0
   -6.7363    2.0270    0.0000 C   0  0  0  0  0  0  0  0  0  0  0  0
   -7.8022    0.9716    0.0000 C   0  0  0  0  0  0  0  0  0  0  0  0
   -9.2491    1.3671    0.0000 O   0  0  0  0  0  0  0  0  0  0  0  0
   -5.2893    1.6316    0.0000 C   0  0  0  0  0  0  0  0  0  0  0  0
   -4.9083    0.1808    0.0000 C   0  0  0  0  0  0  0  0  0  0  0  0
   -3.4614   -0.2146    0.0000 C   0  0  0  0  0  0  0  0  0  0  0  0
   -3.0803   -1.6654    0.0000 C   0  0  0  0  0  0  0  0  0  0  0  0
   -4.1463   -2.7208    0.0000 C   0  0  0  0  0  0  0  0  0  0  0  0
   -1.6334   -2.0609    0.0000 C   0  0  0  0  0  0  0  0  0  0  0  0
   -1.1028   -3.4639    0.0000 C   0  0  0  0  0  0  0  0  0  0  0  0
    0.3955   -3.3928    0.0000 C   0  0  0  0  0  0  0  0  0  0  0  0
    0.7909   -1.9459    0.0000 C   0  0  0  0  0  0  0  0  0  0  0  0
    2.1308   -1.2715    0.0000 C   0  0  0  0  0  0  0  0  0  0  0  0
    3.3847   -2.0947    0.0000 C   0  0  0  0  0  0  0  0  0  0  0  0
    3.2988   -3.5923    0.0000 O   0  0  0  0  0  0  0  0  0  0  0  0
    4.7246   -1.4204    0.0000 C   0  0  0  0  0  0  0  0  0  0  0  0
    4.8106    0.0771    0.0000 C   0  0  0  0  0  0  0  0  0  0  0  0
    6.1504    0.7515    0.0000 C   0  0  0  0  0  0  0  0  0  0  0  0
    6.2364    2.2490    0.0000 C   0  0  0  0  0  0  0  0  0  0  0  0
    7.5763    2.9234    0.0000 O   0  0  0  0  0  0  0  0  0  0  0  0
    4.9824    3.0722    0.0000 C   0  0  0  0  0  0  0  0  0  0  0  0
    3.6426    2.3979    0.0000 C   0  0  0  0  0  0  0  0  0  0  0  0
    3.5566    0.9003    0.0000 C   0  0  0  0  0  0  0  0  0  0  0  0
    2.3027    1.7235    0.0000 C   0  0  0  0  0  0  0  0  0  0  0  0
    2.2167    0.2260    0.0000 C   0  0  0  0  0  0  0  0  0  0  0  0
    0.9628    1.0492    0.0000 C   0  0  0  0  0  0  0  0  0  0  0  0
   -0.3771    0.3749    0.0000 C   0  0  0  0  0  0  0  0  0  0  0  0
   -0.4630   -1.1227    0.0000 C   0  0  0  0  0  0  0  0  0  0  0  0
   -1.7961   -0.4351    0.0000 C   0  0  0  0  0  0  0  0  0  0  0  0
  2  1  1  1
  2  3  1  0
  3  4  1  0
  2  5  1  0
  5  6  1  0
  6  7  1  0
  7  8  1  0
  8  9  1  6
  8 10  1  0
 10 11  1  6
 11 12  1  0
 13 12  1  6
 13 14  1  0
 14 15  1  1
 15 16  1  1
 15 17  1  0
 18 17  1  1
 18 19  1  0
 19 20  1  0
 20 21  1  1
 20 22  1  0
 22 23  1  0
 23 24  1  0
 24 25  1  6
 24 26  1  0
 26 27  1  6
 27 28  1  0
 28 29  1  0
 29 30  1  6
 29 10  1  0
 29 13  1  0
 26 14  1  0
 24 18  1  0
M  END
>  <MS_ID>  (3000) 
MS3109

>  <SMILES>  (3000) 
C[C@H](CO)CCC[C@@H](C)[C@H]1CC[C@H]2[C@@H]3[C@H](O)C[C@@H]4C[C@H](O)CC[C@]4(C)[C@H]3CC[C@]12C

>  <Structure_dimension>  (3000) 
2D

$$$$
MS3111
     RDKit          2D

 25 28  0  0  0  0  0  0  0  0999 V2000
    1.6660   -1.4144    0.0000 C   0  0  0  0  0  0  0  0  0  0  0  0
    2.4931   -0.1630    0.0000 C   0  0  0  0  0  0  0  0  0  0  0  0
    3.1633   -1.5050    0.0000 C   0  0  0  0  0  0  0  0  0  0  0  0
    4.6605   -1.5956    0.0000 C   0  0  0  0  0  0  0  0  0  0  0  0
    5.4876   -0.3443    0.0000 C   0  0  0  0  0  0  0  0  0  0  0  0
    6.9849   -0.4349    0.0000 O   0  0  0  0  0  0  0  0  0  0  0  0
    4.8175    0.9977    0.0000 C   0  0  0  0  0  0  0  0  0  0  0  0
    3.3202    1.0883    0.0000 C   0  0  0  0  0  0  0  0  0  0  0  0
    2.6501    2.4303    0.0000 C   0  0  0  0  0  0  0  0  0  0  0  0
    1.1528    2.5209    0.0000 C   0  0  0  0  0  0  0  0  0  0  0  0
    0.3257    1.2695    0.0000 C   0  0  0  0  0  0  0  0  0  0  0  0
    0.9959   -0.0724    0.0000 C   0  0  0  0  0  0  0  0  0  0  0  0
    0.1688   -1.3238    0.0000 C   0  0  0  0  0  0  0  0  0  0  0  0
    0.8389   -2.6658    0.0000 O   0  0  0  0  0  0  0  0  0  0  0  0
   -1.3285   -1.2332    0.0000 C   0  0  0  0  0  0  0  0  0  0  0  0
   -1.9987    0.1088    0.0000 C   0  0  0  0  0  0  0  0  0  0  0  0
   -2.9520   -1.0493    0.0000 C   0  0  0  0  0  0  0  0  0  0  0  0
   -3.4444    0.5087    0.0000 C   0  0  0  0  0  0  0  0  0  0  0  0
   -4.6177   -0.4258    0.0000 C   0  0  0  0  0  0  0  0  0  0  0  0
   -4.3950   -1.9092    0.0000 O   0  0  0  0  0  0  0  0  0  0  0  0
   -6.0137    0.1231    0.0000 C   0  0  0  0  0  0  0  0  0  0  0  0
   -7.1870   -0.8115    0.0000 O   0  0  0  0  0  0  0  0  0  0  0  0
   -3.5108    2.0073    0.0000 C   0  0  0  0  0  0  0  0  0  0  0  0
   -2.1061    2.5335    0.0000 C   0  0  0  0  0  0  0  0  0  0  0  0
   -1.1716    1.3601    0.0000 C   0  0  0  0  0  0  0  0  0  0  0  0
  2  1  1  1
  2  3  1  0
  3  4  1  0
  4  5  1  0
  5  6  1  6
  5  7  1  0
  8  7  1  6
  8  9  1  0
  9 10  1  0
 11 10  1  6
 11 12  1  0
 12 13  1  1
 13 14  1  6
 13 15  1  0
 15 16  1  0
 16 17  1  1
 16 18  1  0
 18 19  1  1
 19 20  2  0
 19 21  1  0
 21 22  1  0
 18 23  1  0
 23 24  1  0
 25 24  1  1
  8  2  1  0
 25 11  1  0
 12  2  1  0
 25 16  1  0
M  END
>  <MS_ID>  (3001) 
MS3111

>  <SMILES>  (3001) 
C[C@]12CC[C@@H](O)C[C@H]1CC[C@@H]1[C@@H]2[C@H](O)C[C@]2(C)[C@@H](C(=O)CO)CC[C@@H]12

>  <Structure_dimension>  (3001) 
2D

$$$$
MS3112
     RDKit          2D

 27 30  0  0  0  0  0  0  0  0999 V2000
   -8.7389    1.1502    0.0000 C   0  0  0  0  0  0  0  0  0  0  0  0
   -7.5511    0.2342    0.0000 C   0  0  0  0  0  0  0  0  0  0  0  0
   -7.7505   -1.2525    0.0000 O   0  0  0  0  0  0  0  0  0  0  0  0
   -6.1639    0.8049    0.0000 O   0  0  0  0  0  0  0  0  0  0  0  0
   -4.9761   -0.1112    0.0000 C   0  0  0  0  0  0  0  0  0  0  0  0
   -3.5889    0.4595    0.0000 C   0  0  0  0  0  0  0  0  0  0  0  0
   -3.3895    1.9462    0.0000 O   0  0  0  0  0  0  0  0  0  0  0  0
   -2.4011   -0.4565    0.0000 C   0  0  0  0  0  0  0  0  0  0  0  0
   -2.4440   -1.9559    0.0000 C   0  0  0  0  0  0  0  0  0  0  0  0
   -1.0312   -2.4600    0.0000 C   0  0  0  0  0  0  0  0  0  0  0  0
   -0.1152   -1.2722    0.0000 C   0  0  0  0  0  0  0  0  0  0  0  0
    1.3805   -1.1582    0.0000 C   0  0  0  0  0  0  0  0  0  0  0  0
    2.2271   -2.3964    0.0000 C   0  0  0  0  0  0  0  0  0  0  0  0
    3.7227   -2.2823    0.0000 C   0  0  0  0  0  0  0  0  0  0  0  0
    4.3718   -0.9300    0.0000 C   0  0  0  0  0  0  0  0  0  0  0  0
    5.8674   -0.8160    0.0000 C   0  0  0  0  0  0  0  0  0  0  0  0
    6.5165    0.5363    0.0000 C   0  0  0  0  0  0  0  0  0  0  0  0
    8.0121    0.6504    0.0000 O   0  0  0  0  0  0  0  0  0  0  0  0
    5.6699    1.7746    0.0000 C   0  0  0  0  0  0  0  0  0  0  0  0
    4.1742    1.6605    0.0000 C   0  0  0  0  0  0  0  0  0  0  0  0
    3.5252    0.3082    0.0000 C   0  0  0  0  0  0  0  0  0  0  0  0
    2.6785    1.5465    0.0000 C   0  0  0  0  0  0  0  0  0  0  0  0
    2.0295    0.1941    0.0000 C   0  0  0  0  0  0  0  0  0  0  0  0
    1.1829    1.4324    0.0000 C   0  0  0  0  0  0  0  0  0  0  0  0
   -0.3128    1.3183    0.0000 C   0  0  0  0  0  0  0  0  0  0  0  0
   -0.9618   -0.0340    0.0000 C   0  0  0  0  0  0  0  0  0  0  0  0
   -1.9332    1.1090    0.0000 C   0  0  0  0  0  0  0  0  0  0  0  0
  1  2  1  0
  2  3  2  0
  2  4  1  0
  4  5  1  0
  5  6  1  0
  6  7  2  0
  8  6  1  6
  8  9  1  0
  9 10  1  0
 11 10  1  6
 11 12  1  0
 12 13  1  1
 13 14  1  0
 15 14  1  1
 15 16  1  0
 16 17  1  0
 17 18  1  1
 17 19  1  0
 19 20  1  0
 20 21  1  0
 21 22  1  6
 21 23  1  0
 23 24  1  6
 24 25  1  0
 25 26  1  0
 26 27  1  6
 26  8  1  0
 26 11  1  0
 23 12  1  0
 21 15  1  0
M  END
>  <MS_ID>  (3002) 
MS3112

>  <SMILES>  (3002) 
CC(=O)OCC(=O)[C@H]1CC[C@H]2[C@@H]3CC[C@@H]4C[C@H](O)CC[C@]4(C)[C@H]3CC[C@]12C

>  <Structure_dimension>  (3002) 
2D

$$$$
MS3113
     RDKit          2D

 40 43  0  0  0  0  0  0  0  0999 V2000
   -0.4115   -4.7292    0.0000 C   0  0  0  0  0  0  0  0  0  0  0  0
    0.1430   -3.3354    0.0000 C   0  0  0  0  0  0  0  0  0  0  0  0
   -0.7868   -2.1583    0.0000 C   0  0  0  0  0  0  0  0  0  0  0  0
   -2.2710   -2.3750    0.0000 C   0  0  0  0  0  0  0  0  0  0  0  0
   -3.2008   -1.1979    0.0000 C   0  0  0  0  0  0  0  0  0  0  0  0
   -2.6463    0.1958    0.0000 O   0  0  0  0  0  0  0  0  0  0  0  0
   -4.6851   -1.4146    0.0000 N   0  0  0  0  0  0  0  0  0  0  0  0
   -5.6149   -0.2375    0.0000 C   0  0  0  0  0  0  0  0  0  0  0  0
   -7.0991   -0.4542    0.0000 C   0  0  0  0  0  0  0  0  0  0  0  0
   -8.0289    0.7229    0.0000 C   0  0  0  0  0  0  0  0  0  0  0  0
   -9.5132    0.5062    0.0000 C   0  0  0  0  0  0  0  0  0  0  0  0
  -10.4430    1.6833    0.0000 N   0  0  0  0  0  0  0  0  0  0  0  0
  -11.9272    1.4666    0.0000 C   0  0  0  0  0  0  0  0  0  0  0  0
  -12.4817    0.0728    0.0000 N   0  0  0  0  0  0  0  0  0  0  0  0
  -12.8570    2.6437    0.0000 N   0  0  0  0  0  0  0  0  0  0  0  0
   -5.0604    1.1562    0.0000 C   0  0  0  0  0  0  0  0  0  0  0  0
   -3.5761    1.3729    0.0000 O   0  0  0  0  0  0  0  0  0  0  0  0
   -5.9902    2.3333    0.0000 O   0  0  0  0  0  0  0  0  0  0  0  0
    1.6273   -3.1187    0.0000 C   0  0  0  0  0  0  0  0  0  0  0  0
    2.6750   -4.1922    0.0000 C   0  0  0  0  0  0  0  0  0  0  0  0
    4.0197   -3.5274    0.0000 C   0  0  0  0  0  0  0  0  0  0  0  0
    3.8030   -2.0432    0.0000 C   0  0  0  0  0  0  0  0  0  0  0  0
    4.7610   -0.8890    0.0000 C   0  0  0  0  0  0  0  0  0  0  0  0
    6.2396   -1.1416    0.0000 C   0  0  0  0  0  0  0  0  0  0  0  0
    6.7602   -2.5483    0.0000 O   0  0  0  0  0  0  0  0  0  0  0  0
    7.1977    0.0126    0.0000 C   0  0  0  0  0  0  0  0  0  0  0  0
    8.6762   -0.2400    0.0000 O   0  0  0  0  0  0  0  0  0  0  0  0
    6.6771    1.4194    0.0000 C   0  0  0  0  0  0  0  0  0  0  0  0
    7.6352    2.5736    0.0000 C   0  0  0  0  0  0  0  0  0  0  0  0
    7.1146    3.9804    0.0000 C   0  0  0  0  0  0  0  0  0  0  0  0
    8.0727    5.1346    0.0000 O   0  0  0  0  0  0  0  0  0  0  0  0
    5.6360    4.2330    0.0000 C   0  0  0  0  0  0  0  0  0  0  0  0
    4.6780    3.0788    0.0000 C   0  0  0  0  0  0  0  0  0  0  0  0
    5.1985    1.6720    0.0000 C   0  0  0  0  0  0  0  0  0  0  0  0
    3.7200    1.9246    0.0000 C   0  0  0  0  0  0  0  0  0  0  0  0
    4.2405    0.5178    0.0000 C   0  0  0  0  0  0  0  0  0  0  0  0
    2.7619    0.7704    0.0000 C   0  0  0  0  0  0  0  0  0  0  0  0
    1.8039   -0.3838    0.0000 C   0  0  0  0  0  0  0  0  0  0  0  0
    2.3244   -1.7906    0.0000 C   0  0  0  0  0  0  0  0  0  0  0  0
    0.8275   -1.6939    0.0000 C   0  0  0  0  0  0  0  0  0  0  0  0
  2  1  1  6
  2  3  1  0
  3  4  1  0
  4  5  1  0
  5  6  2  0
  5  7  1  0
  7  8  1  0
  8  9  1  1
  9 10  1  0
 10 11  1  0
 11 12  1  0
 12 13  1  0
 13 14  2  0
 13 15  1  0
  8 16  1  0
 16 17  2  0
 16 18  1  0
  2 19  1  0
 19 20  1  6
 20 21  1  0
 22 21  1  6
 22 23  1  0
 23 24  1  1
 24 25  1  1
 24 26  1  0
 26 27  1  6
 26 28  1  0
 28 29  1  1
 29 30  1  0
 30 31  1  1
 30 32  1  0
 32 33  1  0
 33 34  1  0
 34 35  1  6
 34 36  1  0
 36 37  1  6
 37 38  1  0
 38 39  1  0
 39 40  1  6
 39 19  1  0
 39 22  1  0
 36 23  1  0
 34 28  1  0
M  END
>  <MS_ID>  (3003) 
MS3113

>  <SMILES>  (3003) 
C[C@H](CCC(=O)N[C@@H](CCCNC(=N)N)C(=O)O)[C@H]1CC[C@H]2[C@@H]3[C@H](O)[C@@H](O)[C@@H]4C[C@H](O)CC[C@]4(C)[C@H]3CC[C@]12C

>  <Structure_dimension>  (3003) 
2D

$$$$
MS3114
     RDKit          2D

 36 39  0  0  0  0  0  0  0  0999 V2000
  -10.4574    1.8931    0.0000 C   0  0  0  0  0  0  0  0  0  0  0  0
   -8.9580    1.9360    0.0000 C   0  0  0  0  0  0  0  0  0  0  0  0
   -8.1712    0.6589    0.0000 C   0  0  0  0  0  0  0  0  0  0  0  0
   -6.6718    0.7018    0.0000 C   0  0  0  0  0  0  0  0  0  0  0  0
   -5.8850   -0.5753    0.0000 N   0  0  0  0  0  0  0  0  0  0  0  0
   -4.3856   -0.5324    0.0000 C   0  0  0  0  0  0  0  0  0  0  0  0
   -3.6730    0.7876    0.0000 O   0  0  0  0  0  0  0  0  0  0  0  0
   -3.5987   -1.8095    0.0000 C   0  0  0  0  0  0  0  0  0  0  0  0
   -2.0994   -1.7666    0.0000 C   0  0  0  0  0  0  0  0  0  0  0  0
   -1.3125   -3.0437    0.0000 C   0  0  0  0  0  0  0  0  0  0  0  0
   -2.0251   -4.3636    0.0000 C   0  0  0  0  0  0  0  0  0  0  0  0
    0.1869   -3.0008    0.0000 C   0  0  0  0  0  0  0  0  0  0  0  0
    1.1029   -4.1886    0.0000 C   0  0  0  0  0  0  0  0  0  0  0  0
    2.5156   -3.6845    0.0000 C   0  0  0  0  0  0  0  0  0  0  0  0
    2.4727   -2.1851    0.0000 C   0  0  0  0  0  0  0  0  0  0  0  0
    3.5583   -1.1500    0.0000 C   0  0  0  0  0  0  0  0  0  0  0  0
    4.9976   -1.5725    0.0000 C   0  0  0  0  0  0  0  0  0  0  0  0
    5.3512   -3.0302    0.0000 O   0  0  0  0  0  0  0  0  0  0  0  0
    6.0831   -0.5374    0.0000 C   0  0  0  0  0  0  0  0  0  0  0  0
    5.7295    0.9203    0.0000 C   0  0  0  0  0  0  0  0  0  0  0  0
    6.8150    1.9555    0.0000 C   0  0  0  0  0  0  0  0  0  0  0  0
    6.4614    3.4132    0.0000 C   0  0  0  0  0  0  0  0  0  0  0  0
    7.5469    4.4483    0.0000 O   0  0  0  0  0  0  0  0  0  0  0  0
    5.0221    3.8357    0.0000 C   0  0  0  0  0  0  0  0  0  0  0  0
    3.9365    2.8006    0.0000 C   0  0  0  0  0  0  0  0  0  0  0  0
    4.2902    1.3429    0.0000 C   0  0  0  0  0  0  0  0  0  0  0  0
    2.8510    1.7654    0.0000 C   0  0  0  0  0  0  0  0  0  0  0  0
    3.2046    0.3077    0.0000 C   0  0  0  0  0  0  0  0  0  0  0  0
    1.7654    0.7303    0.0000 C   0  0  0  0  0  0  0  0  0  0  0  0
    0.6798   -0.3048    0.0000 C   0  0  0  0  0  0  0  0  0  0  0  0
   -0.7594    0.1177    0.0000 O   0  0  0  0  0  0  0  0  0  0  0  0
    1.0335   -1.7626    0.0000 C   0  0  0  0  0  0  0  0  0  0  0  0
   -0.4421   -1.4928    0.0000 C   0  0  0  0  0  0  0  0  0  0  0  0
   -5.9592    2.0218    0.0000 C   0  0  0  0  0  0  0  0  0  0  0  0
   -4.4598    2.0646    0.0000 O   0  0  0  0  0  0  0  0  0  0  0  0
   -6.7460    3.2988    0.0000 O   0  0  0  0  0  0  0  0  0  0  0  0
  1  2  1  0
  2  3  1  0
  4  3  1  6
  4  5  1  0
  5  6  1  0
  6  7  2  0
  6  8  1  0
  8  9  1  0
  9 10  1  0
 10 11  1  6
 10 12  1  0
 12 13  1  6
 13 14  1  0
 15 14  1  6
 15 16  1  0
 16 17  1  1
 17 18  1  1
 17 19  1  0
 20 19  1  1
 20 21  1  0
 21 22  1  0
 22 23  1  1
 22 24  1  0
 24 25  1  0
 25 26  1  0
 26 27  1  6
 26 28  1  0
 28 29  1  6
 29 30  1  0
 30 31  1  1
 30 32  1  0
 32 33  1  6
  4 34  1  0
 34 35  2  0
 34 36  1  0
 32 12  1  0
 32 15  1  0
 28 16  1  0
 26 20  1  0
M  END
>  <MS_ID>  (3004) 
MS3114

>  <SMILES>  (3004) 
CCC[C@@H](NC(=O)CC[C@@H](C)[C@H]1CC[C@H]2[C@@H]3[C@H](O)C[C@@H]4C[C@H](O)CC[C@]4(C)[C@H]3C[C@H](O)[C@]12C)C(=O)O

>  <Structure_dimension>  (3004) 
2D

$$$$
MS3115
     RDKit          2D

 35 38  0  0  0  0  0  0  0  0999 V2000
   -5.1840   -2.9253    0.0000 C   0  0  0  0  0  0  0  0  0  0  0  0
   -4.0856   -1.9037    0.0000 C   0  0  0  0  0  0  0  0  0  0  0  0
   -4.4212   -0.4417    0.0000 O   0  0  0  0  0  0  0  0  0  0  0  0
   -5.8551   -0.0013    0.0000 C   0  0  0  0  0  0  0  0  0  0  0  0
   -6.9534   -1.0229    0.0000 O   0  0  0  0  0  0  0  0  0  0  0  0
   -6.1907    1.4606    0.0000 C   0  0  0  0  0  0  0  0  0  0  0  0
   -7.6246    1.9010    0.0000 C   0  0  0  0  0  0  0  0  0  0  0  0
   -7.9601    3.3630    0.0000 C   0  0  0  0  0  0  0  0  0  0  0  0
   -6.8618    4.3846    0.0000 O   0  0  0  0  0  0  0  0  0  0  0  0
   -9.3940    3.8034    0.0000 O   0  0  0  0  0  0  0  0  0  0  0  0
   -2.6517   -2.3441    0.0000 C   0  0  0  0  0  0  0  0  0  0  0  0
   -2.1652   -3.7630    0.0000 C   0  0  0  0  0  0  0  0  0  0  0  0
   -0.6654   -3.7387    0.0000 C   0  0  0  0  0  0  0  0  0  0  0  0
   -0.2250   -2.3048    0.0000 C   0  0  0  0  0  0  0  0  0  0  0  0
    1.1353   -1.6727    0.0000 C   0  0  0  0  0  0  0  0  0  0  0  0
    2.3629   -2.5346    0.0000 C   0  0  0  0  0  0  0  0  0  0  0  0
    2.2303   -4.0287    0.0000 O   0  0  0  0  0  0  0  0  0  0  0  0
    3.7232   -1.9024    0.0000 C   0  0  0  0  0  0  0  0  0  0  0  0
    3.8558   -0.4083    0.0000 C   0  0  0  0  0  0  0  0  0  0  0  0
    5.2161    0.2239    0.0000 C   0  0  0  0  0  0  0  0  0  0  0  0
    5.3487    1.7180    0.0000 C   0  0  0  0  0  0  0  0  0  0  0  0
    6.7090    2.3502    0.0000 O   0  0  0  0  0  0  0  0  0  0  0  0
    7.9366    1.4883    0.0000 S   0  0  0  0  0  0  0  0  0  0  0  0
    7.0747    0.2607    0.0000 O   0  0  0  0  0  0  0  0  0  0  0  0
    8.7985    2.7159    0.0000 O   0  0  0  0  0  0  0  0  0  0  0  0
    9.1642    0.6264    0.0000 O   0  0  0  0  0  0  0  0  0  0  0  0
    4.1211    2.5800    0.0000 C   0  0  0  0  0  0  0  0  0  0  0  0
    2.7608    1.9478    0.0000 C   0  0  0  0  0  0  0  0  0  0  0  0
    2.6282    0.4537    0.0000 C   0  0  0  0  0  0  0  0  0  0  0  0
    1.4005    1.3156    0.0000 C   0  0  0  0  0  0  0  0  0  0  0  0
    1.2679   -0.1785    0.0000 C   0  0  0  0  0  0  0  0  0  0  0  0
    0.0403    0.6834    0.0000 C   0  0  0  0  0  0  0  0  0  0  0  0
   -1.3200    0.0512    0.0000 C   0  0  0  0  0  0  0  0  0  0  0  0
   -1.4526   -1.4429    0.0000 C   0  0  0  0  0  0  0  0  0  0  0  0
   -2.7636   -0.7140    0.0000 C   0  0  0  0  0  0  0  0  0  0  0  0
  2  1  1  6
  2  3  1  0
  3  4  1  0
  4  5  2  0
  4  6  1  0
  6  7  1  0
  7  8  1  0
  8  9  2  0
  8 10  1  0
  2 11  1  0
 11 12  1  6
 12 13  1  0
 14 13  1  6
 14 15  1  0
 15 16  1  1
 16 17  1  6
 16 18  1  0
 19 18  1  1
 19 20  1  0
 20 21  1  0
 21 22  1  1
 22 23  1  0
 23 24  2  0
 23 25  2  0
 23 26  1  0
 21 27  1  0
 27 28  1  0
 28 29  1  0
 29 30  1  6
 29 31  1  0
 31 32  1  6
 32 33  1  0
 33 34  1  0
 34 35  1  6
 34 11  1  0
 34 14  1  0
 31 15  1  0
 29 19  1  0
M  END
>  <MS_ID>  (3005) 
MS3115

>  <SMILES>  (3005) 
C[C@H](OC(=O)CCC(=O)O)[C@H]1CC[C@H]2[C@@H]3[C@@H](O)C[C@@H]4C[C@H](OS(=O)(=O)O)CC[C@]4(C)[C@H]3CC[C@]12C

>  <Structure_dimension>  (3005) 
2D

$$$$
MS3116
     RDKit          2D

 23 26  0  0  0  0  0  0  0  0999 V2000
   -0.3818   -3.4467    0.0000 C   0  0  0  0  0  0  0  0  0  0  0  0
    0.3987   -2.1658    0.0000 C   0  0  0  0  0  0  0  0  0  0  0  0
    1.8983   -2.2012    0.0000 C   0  0  0  0  0  0  0  0  0  0  0  0
    2.6787   -0.9203    0.0000 C   0  0  0  0  0  0  0  0  0  0  0  0
    4.1783   -0.9557    0.0000 C   0  0  0  0  0  0  0  0  0  0  0  0
    4.9588    0.3253    0.0000 C   0  0  0  0  0  0  0  0  0  0  0  0
    6.4584    0.2898    0.0000 O   0  0  0  0  0  0  0  0  0  0  0  0
    4.2397    1.6417    0.0000 C   0  0  0  0  0  0  0  0  0  0  0  0
    2.7401    1.6771    0.0000 C   0  0  0  0  0  0  0  0  0  0  0  0
    1.9596    0.3961    0.0000 C   0  0  0  0  0  0  0  0  0  0  0  0
    1.2406    1.7125    0.0000 C   0  0  0  0  0  0  0  0  0  0  0  0
    0.4601    0.4316    0.0000 C   0  0  0  0  0  0  0  0  0  0  0  0
   -0.2590    1.7480    0.0000 C   0  0  0  0  0  0  0  0  0  0  0  0
   -1.7586    1.7834    0.0000 C   0  0  0  0  0  0  0  0  0  0  0  0
   -2.5391    0.5025    0.0000 C   0  0  0  0  0  0  0  0  0  0  0  0
   -3.2351    1.8312    0.0000 C   0  0  0  0  0  0  0  0  0  0  0  0
   -1.8200   -0.8139    0.0000 C   0  0  0  0  0  0  0  0  0  0  0  0
   -2.8498   -1.9046    0.0000 C   0  0  0  0  0  0  0  0  0  0  0  0
   -4.2053   -1.2623    0.0000 C   0  0  0  0  0  0  0  0  0  0  0  0
   -4.0133    0.2254    0.0000 C   0  0  0  0  0  0  0  0  0  0  0  0
   -5.5129    0.2608    0.0000 C   0  0  0  0  0  0  0  0  0  0  0  0
   -4.3161    1.6945    0.0000 O   0  0  0  0  0  0  0  0  0  0  0  0
   -0.3204   -0.8494    0.0000 C   0  0  0  0  0  0  0  0  0  0  0  0
  2  1  1  1
  2  3  1  0
  4  3  1  6
  4  5  1  0
  5  6  1  0
  6  7  1  6
  6  8  1  0
  8  9  1  0
  9 10  1  0
 10 11  1  6
 10 12  1  0
 12 13  1  6
 13 14  1  0
 14 15  1  0
 15 16  1  6
 15 17  1  0
 17 18  1  6
 18 19  1  0
 19 20  1  0
 20 21  1  1
 20 22  1  0
 17 23  1  0
 23  2  1  1
 10  4  1  0
 23 12  1  0
 20 15  1  0
M  END
>  <MS_ID>  (3006) 
MS3116

>  <SMILES>  (3006) 
C[C@@H]1C[C@H]2C[C@@H](O)CC[C@]2(C)[C@H]2CC[C@@]3(C)[C@@H](CC[C@]3(C)O)[C@H]12

>  <Structure_dimension>  (3006) 
2D

$$$$
MS3118
     RDKit          2D

 36 40  0  0  0  0  0  0  0  0999 V2000
   -2.6651   -3.9199    0.0000 C   0  0  0  0  0  0  0  0  0  0  0  0
   -1.8461   -2.6632    0.0000 C   0  0  0  0  0  0  0  0  0  0  0  0
   -2.5249   -1.3256    0.0000 C   0  0  0  0  0  0  0  0  0  0  0  0
   -4.0228   -1.2447    0.0000 C   0  0  0  0  0  0  0  0  0  0  0  0
   -4.7016    0.0929    0.0000 C   0  0  0  0  0  0  0  0  0  0  0  0
   -3.8826    1.3496    0.0000 O   0  0  0  0  0  0  0  0  0  0  0  0
   -6.1994    0.1739    0.0000 N   0  0  0  0  0  0  0  0  0  0  0  0
   -7.1453   -0.9903    0.0000 C   0  0  0  0  0  0  0  0  0  0  0  0
   -8.5448   -0.4505    0.0000 C   0  0  0  0  0  0  0  0  0  0  0  0
   -8.4638    1.0473    0.0000 C   0  0  0  0  0  0  0  0  0  0  0  0
   -7.0143    1.4332    0.0000 C   0  0  0  0  0  0  0  0  0  0  0  0
   -6.4745    2.8327    0.0000 C   0  0  0  0  0  0  0  0  0  0  0  0
   -4.9926    3.0650    0.0000 O   0  0  0  0  0  0  0  0  0  0  0  0
   -7.4166    4.0000    0.0000 O   0  0  0  0  0  0  0  0  0  0  0  0
   -0.3483   -2.7441    0.0000 C   0  0  0  0  0  0  0  0  0  0  0  0
    0.4666   -4.0035    0.0000 C   0  0  0  0  0  0  0  0  0  0  0  0
    1.9161   -3.6176    0.0000 C   0  0  0  0  0  0  0  0  0  0  0  0
    1.9971   -2.1198    0.0000 C   0  0  0  0  0  0  0  0  0  0  0  0
    3.1643   -1.1777    0.0000 C   0  0  0  0  0  0  0  0  0  0  0  0
    4.5638   -1.7175    0.0000 C   0  0  0  0  0  0  0  0  0  0  0  0
    4.7961   -3.1994    0.0000 O   0  0  0  0  0  0  0  0  0  0  0  0
    5.7311   -0.7754    0.0000 C   0  0  0  0  0  0  0  0  0  0  0  0
    7.1305   -1.3153    0.0000 O   0  0  0  0  0  0  0  0  0  0  0  0
    5.4988    0.7065    0.0000 C   0  0  0  0  0  0  0  0  0  0  0  0
    6.6661    1.6486    0.0000 C   0  0  0  0  0  0  0  0  0  0  0  0
    6.4338    3.1305    0.0000 C   0  0  0  0  0  0  0  0  0  0  0  0
    7.6011    4.0726    0.0000 O   0  0  0  0  0  0  0  0  0  0  0  0
    5.0343    3.6703    0.0000 C   0  0  0  0  0  0  0  0  0  0  0  0
    3.8671    2.7282    0.0000 C   0  0  0  0  0  0  0  0  0  0  0  0
    4.0993    1.2463    0.0000 C   0  0  0  0  0  0  0  0  0  0  0  0
    2.6998    1.7861    0.0000 C   0  0  0  0  0  0  0  0  0  0  0  0
    2.9321    0.3042    0.0000 C   0  0  0  0  0  0  0  0  0  0  0  0
    1.5326    0.8440    0.0000 C   0  0  0  0  0  0  0  0  0  0  0  0
    0.3653   -0.0981    0.0000 C   0  0  0  0  0  0  0  0  0  0  0  0
    0.5976   -1.5800    0.0000 C   0  0  0  0  0  0  0  0  0  0  0  0
   -0.8507   -1.1894    0.0000 C   0  0  0  0  0  0  0  0  0  0  0  0
  2  1  1  6
  2  3  1  0
  3  4  1  0
  4  5  1  0
  5  6  2  0
  5  7  1  0
  7  8  1  0
  8  9  1  0
  9 10  1  0
 10 11  1  0
 11 12  1  1
 12 13  2  0
 12 14  1  0
  2 15  1  0
 15 16  1  6
 16 17  1  0
 18 17  1  6
 18 19  1  0
 19 20  1  1
 20 21  1  6
 20 22  1  0
 22 23  1  6
 22 24  1  0
 24 25  1  1
 25 26  1  0
 26 27  1  1
 26 28  1  0
 28 29  1  0
 29 30  1  0
 30 31  1  6
 30 32  1  0
 32 33  1  6
 33 34  1  0
 34 35  1  0
 35 36  1  6
 11  7  1  0
 35 15  1  0
 35 18  1  0
 32 19  1  0
 30 24  1  0
M  END
>  <MS_ID>  (3007) 
MS3118

>  <SMILES>  (3007) 
C[C@H](CCC(=O)N1CCC[C@H]1C(=O)O)[C@H]1CC[C@H]2[C@@H]3[C@@H](O)[C@@H](O)[C@@H]4C[C@H](O)CC[C@]4(C)[C@H]3CC[C@]12C

>  <Structure_dimension>  (3007) 
2D

$$$$
MS3119
     RDKit          2D

 32 35  0  0  0  0  0  0  0  0999 V2000
   -3.7440   -3.2233    0.0000 C   0  0  0  0  0  0  0  0  0  0  0  0
   -2.7639   -2.0878    0.0000 C   0  0  0  0  0  0  0  0  0  0  0  0
   -3.2573   -0.6712    0.0000 C   0  0  0  0  0  0  0  0  0  0  0  0
   -4.7307   -0.3902    0.0000 C   0  0  0  0  0  0  0  0  0  0  0  0
   -5.7108   -1.5258    0.0000 O   0  0  0  0  0  0  0  0  0  0  0  0
   -5.2241    1.0263    0.0000 N   0  0  0  0  0  0  0  0  0  0  0  0
   -6.6975    1.3073    0.0000 C   0  0  0  0  0  0  0  0  0  0  0  0
   -7.1909    2.7239    0.0000 C   0  0  0  0  0  0  0  0  0  0  0  0
   -6.2108    3.8594    0.0000 O   0  0  0  0  0  0  0  0  0  0  0  0
   -8.6643    3.0049    0.0000 O   0  0  0  0  0  0  0  0  0  0  0  0
   -1.2905   -2.3688    0.0000 C   0  0  0  0  0  0  0  0  0  0  0  0
   -0.6518   -3.7260    0.0000 C   0  0  0  0  0  0  0  0  0  0  0  0
    0.8364   -3.5379    0.0000 C   0  0  0  0  0  0  0  0  0  0  0  0
    1.1174   -2.0645    0.0000 C   0  0  0  0  0  0  0  0  0  0  0  0
    2.4004   -1.2874    0.0000 C   0  0  0  0  0  0  0  0  0  0  0  0
    3.7149   -2.0100    0.0000 C   0  0  0  0  0  0  0  0  0  0  0  0
    3.7464   -3.5097    0.0000 O   0  0  0  0  0  0  0  0  0  0  0  0
    4.9979   -1.2329    0.0000 C   0  0  0  0  0  0  0  0  0  0  0  0
    4.9665    0.2668    0.0000 C   0  0  0  0  0  0  0  0  0  0  0  0
    6.2495    1.0439    0.0000 C   0  0  0  0  0  0  0  0  0  0  0  0
    6.2180    2.5435    0.0000 C   0  0  0  0  0  0  0  0  0  0  0  0
    7.5010    3.3206    0.0000 O   0  0  0  0  0  0  0  0  0  0  0  0
    4.9035    3.2661    0.0000 C   0  0  0  0  0  0  0  0  0  0  0  0
    3.6205    2.4890    0.0000 C   0  0  0  0  0  0  0  0  0  0  0  0
    3.6520    0.9893    0.0000 C   0  0  0  0  0  0  0  0  0  0  0  0
    2.3375    1.7119    0.0000 C   0  0  0  0  0  0  0  0  0  0  0  0
    2.3690    0.2123    0.0000 C   0  0  0  0  0  0  0  0  0  0  0  0
    1.0545    0.9348    0.0000 C   0  0  0  0  0  0  0  0  0  0  0  0
   -0.2286    0.1577    0.0000 C   0  0  0  0  0  0  0  0  0  0  0  0
   -1.5430    0.8803    0.0000 O   0  0  0  0  0  0  0  0  0  0  0  0
   -0.1971   -1.3419    0.0000 C   0  0  0  0  0  0  0  0  0  0  0  0
   -1.5799   -0.7607    0.0000 C   0  0  0  0  0  0  0  0  0  0  0  0
  2  1  1  6
  2  3  1  0
  3  4  1  0
  4  5  2  0
  4  6  1  0
  6  7  1  0
  7  8  1  0
  8  9  2  0
  8 10  1  0
  2 11  1  0
 11 12  1  6
 12 13  1  0
 14 13  1  6
 14 15  1  0
 15 16  1  1
 16 17  1  1
 16 18  1  0
 19 18  1  1
 19 20  1  0
 20 21  1  0
 21 22  1  1
 21 23  1  0
 23 24  1  0
 24 25  1  0
 25 26  1  6
 25 27  1  0
 27 28  1  6
 28 29  1  0
 29 30  1  1
 29 31  1  0
 31 32  1  6
 31 11  1  0
 31 14  1  0
 27 15  1  0
 25 19  1  0
M  END
>  <MS_ID>  (3008) 
MS3119

>  <SMILES>  (3008) 
C[C@H](CC(=O)NCC(=O)O)[C@H]1CC[C@H]2[C@@H]3[C@H](O)C[C@@H]4C[C@H](O)CC[C@]4(C)[C@H]3C[C@H](O)[C@]12C

>  <Structure_dimension>  (3008) 
2D

$$$$
MS3120
     RDKit          2D

 30 33  0  0  0  0  0  0  0  0999 V2000
   -4.4441   -2.5875    0.0000 C   0  0  0  0  0  0  0  0  0  0  0  0
   -3.3509   -1.5605    0.0000 C   0  0  0  0  0  0  0  0  0  0  0  0
   -3.6937   -0.1002    0.0000 C   0  0  0  0  0  0  0  0  0  0  0  0
   -2.6005    0.9268    0.0000 O   0  0  0  0  0  0  0  0  0  0  0  0
   -5.1298    0.3330    0.0000 N   0  0  0  0  0  0  0  0  0  0  0  0
   -5.4726    1.7933    0.0000 C   0  0  0  0  0  0  0  0  0  0  0  0
   -6.9087    2.2266    0.0000 C   0  0  0  0  0  0  0  0  0  0  0  0
   -8.0019    1.1995    0.0000 O   0  0  0  0  0  0  0  0  0  0  0  0
   -7.2515    3.6869    0.0000 O   0  0  0  0  0  0  0  0  0  0  0  0
   -1.9148   -1.9938    0.0000 C   0  0  0  0  0  0  0  0  0  0  0  0
   -1.4212   -3.4102    0.0000 C   0  0  0  0  0  0  0  0  0  0  0  0
    0.0784   -3.3785    0.0000 C   0  0  0  0  0  0  0  0  0  0  0  0
    0.5117   -1.9424    0.0000 C   0  0  0  0  0  0  0  0  0  0  0  0
    1.8688   -1.3035    0.0000 C   0  0  0  0  0  0  0  0  0  0  0  0
    3.1007   -2.1593    0.0000 C   0  0  0  0  0  0  0  0  0  0  0  0
    2.9755   -3.6541    0.0000 O   0  0  0  0  0  0  0  0  0  0  0  0
    4.4578   -1.5203    0.0000 C   0  0  0  0  0  0  0  0  0  0  0  0
    4.5830   -0.0256    0.0000 C   0  0  0  0  0  0  0  0  0  0  0  0
    5.9401    0.6134    0.0000 C   0  0  0  0  0  0  0  0  0  0  0  0
    6.0653    2.1081    0.0000 C   0  0  0  0  0  0  0  0  0  0  0  0
    7.4224    2.7471    0.0000 O   0  0  0  0  0  0  0  0  0  0  0  0
    4.8334    2.9640    0.0000 C   0  0  0  0  0  0  0  0  0  0  0  0
    3.4763    2.3250    0.0000 C   0  0  0  0  0  0  0  0  0  0  0  0
    3.3511    0.8302    0.0000 C   0  0  0  0  0  0  0  0  0  0  0  0
    2.1192    1.6861    0.0000 C   0  0  0  0  0  0  0  0  0  0  0  0
    1.9940    0.1913    0.0000 C   0  0  0  0  0  0  0  0  0  0  0  0
    0.7621    1.0471    0.0000 C   0  0  0  0  0  0  0  0  0  0  0  0
   -0.5950    0.4082    0.0000 C   0  0  0  0  0  0  0  0  0  0  0  0
   -0.7202   -1.0866    0.0000 C   0  0  0  0  0  0  0  0  0  0  0  0
   -2.0348   -0.3642    0.0000 C   0  0  0  0  0  0  0  0  0  0  0  0
  2  1  1  6
  2  3  1  0
  3  4  2  0
  3  5  1  0
  5  6  1  0
  6  7  1  0
  7  8  2  0
  7  9  1  0
  2 10  1  0
 10 11  1  6
 11 12  1  0
 13 12  1  6
 13 14  1  0
 14 15  1  1
 15 16  1  6
 15 17  1  0
 18 17  1  1
 18 19  1  0
 19 20  1  0
 20 21  1  1
 20 22  1  0
 22 23  1  0
 23 24  1  0
 24 25  1  6
 24 26  1  0
 26 27  1  6
 27 28  1  0
 28 29  1  0
 29 30  1  6
 29 10  1  0
 29 13  1  0
 26 14  1  0
 24 18  1  0
M  END
>  <MS_ID>  (3009) 
MS3120

>  <SMILES>  (3009) 
C[C@H](C(=O)NCC(=O)O)[C@H]1CC[C@H]2[C@@H]3[C@@H](O)C[C@@H]4C[C@H](O)CC[C@]4(C)[C@H]3CC[C@]12C

>  <Structure_dimension>  (3009) 
2D

$$$$
MS3121
     RDKit          2D

 29 32  0  0  0  0  0  0  0  0999 V2000
    1.0310   -1.2521    0.0000 C   0  0  0  0  0  0  0  0  0  0  0  0
    1.6169    0.1287    0.0000 C   0  0  0  0  0  0  0  0  0  0  0  0
    2.5198   -1.0692    0.0000 C   0  0  0  0  0  0  0  0  0  0  0  0
    4.0086   -0.8862    0.0000 C   0  0  0  0  0  0  0  0  0  0  0  0
    4.5945    0.4946    0.0000 C   0  0  0  0  0  0  0  0  0  0  0  0
    6.0833    0.6776    0.0000 O   0  0  0  0  0  0  0  0  0  0  0  0
    6.9862   -0.5202    0.0000 S   0  0  0  0  0  0  0  0  0  0  0  0
    5.7883   -1.4231    0.0000 O   0  0  0  0  0  0  0  0  0  0  0  0
    8.1840    0.3826    0.0000 O   0  0  0  0  0  0  0  0  0  0  0  0
    7.8890   -1.7181    0.0000 O   0  0  0  0  0  0  0  0  0  0  0  0
    3.6917    1.6925    0.0000 C   0  0  0  0  0  0  0  0  0  0  0  0
    2.2029    1.5095    0.0000 C   0  0  0  0  0  0  0  0  0  0  0  0
    1.3000    2.7074    0.0000 C   0  0  0  0  0  0  0  0  0  0  0  0
   -0.1888    2.5244    0.0000 C   0  0  0  0  0  0  0  0  0  0  0  0
   -0.7747    1.1436    0.0000 C   0  0  0  0  0  0  0  0  0  0  0  0
    0.1281   -0.0543    0.0000 C   0  0  0  0  0  0  0  0  0  0  0  0
   -0.4578   -1.4351    0.0000 C   0  0  0  0  0  0  0  0  0  0  0  0
   -1.9466   -1.6181    0.0000 C   0  0  0  0  0  0  0  0  0  0  0  0
   -2.8495   -0.4203    0.0000 C   0  0  0  0  0  0  0  0  0  0  0  0
   -3.4112   -1.8111    0.0000 C   0  0  0  0  0  0  0  0  0  0  0  0
   -2.2635    0.9606    0.0000 C   0  0  0  0  0  0  0  0  0  0  0  0
   -3.3957    1.9445    0.0000 C   0  0  0  0  0  0  0  0  0  0  0  0
   -4.6814    1.1718    0.0000 C   0  0  0  0  0  0  0  0  0  0  0  0
   -4.3438   -0.2897    0.0000 C   0  0  0  0  0  0  0  0  0  0  0  0
   -4.5004   -1.7815    0.0000 O   0  0  0  0  0  0  0  0  0  0  0  0
   -5.8326   -0.4727    0.0000 C   0  0  0  0  0  0  0  0  0  0  0  0
   -6.4185   -1.8535    0.0000 O   0  0  0  0  0  0  0  0  0  0  0  0
   -6.7354    0.7252    0.0000 C   0  0  0  0  0  0  0  0  0  0  0  0
   -8.2242    0.5422    0.0000 O   0  0  0  0  0  0  0  0  0  0  0  0
  2  1  1  1
  2  3  1  0
  3  4  1  0
  4  5  1  0
  5  6  1  6
  6  7  1  0
  7  8  2  0
  7  9  2  0
  7 10  1  0
  5 11  1  0
 12 11  1  6
 12 13  1  0
 13 14  1  0
 15 14  1  6
 15 16  1  0
 16 17  1  1
 17 18  1  0
 18 19  1  0
 19 20  1  1
 19 21  1  0
 21 22  1  1
 22 23  1  0
 23 24  1  0
 24 25  1  6
 24 26  1  0
 26 27  2  0
 26 28  1  0
 28 29  1  0
 12  2  1  0
 21 15  1  0
 16  2  1  0
 24 19  1  0
M  END
>  <MS_ID>  (3010) 
MS3121

>  <SMILES>  (3010) 
C[C@]12CC[C@@H](OS(=O)(=O)O)C[C@H]1CC[C@@H]1[C@@H]2CC[C@@]2(C)[C@H]1CC[C@]2(O)C(=O)CO

>  <Structure_dimension>  (3010) 
2D

$$$$
MS3122
     RDKit          2D

 24 27  0  0  0  0  0  0  0  0999 V2000
   -7.1591    0.8654    0.0000 C   0  0  0  0  0  0  0  0  0  0  0  0
   -5.9784   -0.0597    0.0000 C   0  0  0  0  0  0  0  0  0  0  0  0
   -4.5869    0.5003    0.0000 C   0  0  0  0  0  0  0  0  0  0  0  0
   -4.3760    1.9854    0.0000 O   0  0  0  0  0  0  0  0  0  0  0  0
   -3.4061   -0.4248    0.0000 C   0  0  0  0  0  0  0  0  0  0  0  0
   -3.4606   -1.9239    0.0000 C   0  0  0  0  0  0  0  0  0  0  0  0
   -2.0517   -2.4388    0.0000 C   0  0  0  0  0  0  0  0  0  0  0  0
   -1.1266   -1.2581    0.0000 C   0  0  0  0  0  0  0  0  0  0  0  0
    0.3699   -1.1555    0.0000 C   0  0  0  0  0  0  0  0  0  0  0  0
    1.2070   -2.4003    0.0000 C   0  0  0  0  0  0  0  0  0  0  0  0
    2.7034   -2.2977    0.0000 C   0  0  0  0  0  0  0  0  0  0  0  0
    3.3629   -0.9504    0.0000 C   0  0  0  0  0  0  0  0  0  0  0  0
    4.8594   -0.8479    0.0000 C   0  0  0  0  0  0  0  0  0  0  0  0
    5.5188    0.4994    0.0000 C   0  0  0  0  0  0  0  0  0  0  0  0
    7.0153    0.6020    0.0000 O   0  0  0  0  0  0  0  0  0  0  0  0
    4.6817    1.7441    0.0000 C   0  0  0  0  0  0  0  0  0  0  0  0
    3.1852    1.6416    0.0000 C   0  0  0  0  0  0  0  0  0  0  0  0
    2.5258    0.2943    0.0000 C   0  0  0  0  0  0  0  0  0  0  0  0
    1.6887    1.5390    0.0000 C   0  0  0  0  0  0  0  0  0  0  0  0
    1.0293    0.1917    0.0000 C   0  0  0  0  0  0  0  0  0  0  0  0
    0.1923    1.4364    0.0000 C   0  0  0  0  0  0  0  0  0  0  0  0
   -1.3042    1.3339    0.0000 C   0  0  0  0  0  0  0  0  0  0  0  0
   -1.9637   -0.0134    0.0000 C   0  0  0  0  0  0  0  0  0  0  0  0
   -2.9262    1.1370    0.0000 C   0  0  0  0  0  0  0  0  0  0  0  0
  1  2  1  0
  2  3  1  0
  3  4  2  0
  5  3  1  6
  5  6  1  0
  6  7  1  0
  8  7  1  6
  8  9  1  0
  9 10  1  1
 10 11  1  0
 12 11  1  1
 12 13  1  0
 13 14  1  0
 14 15  2  0
 14 16  1  0
 16 17  1  0
 17 18  1  0
 18 19  1  6
 18 20  1  0
 20 21  1  6
 21 22  1  0
 22 23  1  0
 23 24  1  6
 23  5  1  0
 23  8  1  0
 20  9  1  0
 18 12  1  0
M  END
>  <MS_ID>  (3011) 
MS3122

>  <SMILES>  (3011) 
CCC(=O)[C@H]1CC[C@H]2[C@@H]3CC[C@@H]4CC(=O)CC[C@]4(C)[C@H]3CC[C@]12C

>  <Structure_dimension>  (3011) 
2D

$$$$
MS3125
     RDKit          2D

 24 27  0  0  0  0  0  0  0  0999 V2000
   -6.2943    0.2891    0.0000 C   0  0  0  0  0  0  0  0  0  0  0  0
   -4.8892    0.8143    0.0000 C   0  0  0  0  0  0  0  0  0  0  0  0
   -4.6416    2.2937    0.0000 O   0  0  0  0  0  0  0  0  0  0  0  0
   -3.7319   -0.1399    0.0000 C   0  0  0  0  0  0  0  0  0  0  0  0
   -3.8235   -1.6371    0.0000 C   0  0  0  0  0  0  0  0  0  0  0  0
   -2.4280   -2.1870    0.0000 C   0  0  0  0  0  0  0  0  0  0  0  0
   -1.4738   -1.0296    0.0000 C   0  0  0  0  0  0  0  0  0  0  0  0
    0.0248   -0.9643    0.0000 C   0  0  0  0  0  0  0  0  0  0  0  0
    0.8307   -2.2294    0.0000 C   0  0  0  0  0  0  0  0  0  0  0  0
    0.1380   -3.5599    0.0000 O   0  0  0  0  0  0  0  0  0  0  0  0
    2.3293   -2.1641    0.0000 C   0  0  0  0  0  0  0  0  0  0  0  0
    3.0220   -0.8336    0.0000 C   0  0  0  0  0  0  0  0  0  0  0  0
    4.5205   -0.7683    0.0000 C   0  0  0  0  0  0  0  0  0  0  0  0
    5.2133    0.5622    0.0000 C   0  0  0  0  0  0  0  0  0  0  0  0
    6.7118    0.6275    0.0000 O   0  0  0  0  0  0  0  0  0  0  0  0
    4.4074    1.8273    0.0000 C   0  0  0  0  0  0  0  0  0  0  0  0
    2.9088    1.7620    0.0000 C   0  0  0  0  0  0  0  0  0  0  0  0
    2.2161    0.4315    0.0000 C   0  0  0  0  0  0  0  0  0  0  0  0
    1.4102    1.6967    0.0000 C   0  0  0  0  0  0  0  0  0  0  0  0
    0.7175    0.3662    0.0000 C   0  0  0  0  0  0  0  0  0  0  0  0
   -0.0883    1.6314    0.0000 C   0  0  0  0  0  0  0  0  0  0  0  0
   -1.5869    1.5660    0.0000 C   0  0  0  0  0  0  0  0  0  0  0  0
   -2.2796    0.2356    0.0000 C   0  0  0  0  0  0  0  0  0  0  0  0
   -3.2133    1.4095    0.0000 C   0  0  0  0  0  0  0  0  0  0  0  0
  2  1  1  1
  2  3  1  0
  2  4  1  0
  4  5  1  6
  5  6  1  0
  7  6  1  6
  7  8  1  0
  8  9  1  1
  9 10  2  0
  9 11  1  0
 12 11  1  1
 12 13  1  0
 13 14  1  0
 14 15  1  1
 14 16  1  0
 16 17  1  0
 17 18  1  0
 18 19  1  6
 18 20  1  0
 20 21  1  6
 21 22  1  0
 22 23  1  0
 23 24  1  6
 23  4  1  0
 23  7  1  0
 20  8  1  0
 18 12  1  0
M  END
>  <MS_ID>  (3012) 
MS3125

>  <SMILES>  (3012) 
C[C@@H](O)[C@H]1CC[C@H]2[C@@H]3C(=O)C[C@@H]4C[C@H](O)CC[C@]4(C)[C@H]3CC[C@]12C

>  <Structure_dimension>  (3012) 
2D

$$$$
MS3126
     RDKit          2D

 27 30  0  0  0  0  0  0  0  0999 V2000
   -8.7389    1.1502    0.0000 C   0  0  0  0  0  0  0  0  0  0  0  0
   -7.5511    0.2342    0.0000 C   0  0  0  0  0  0  0  0  0  0  0  0
   -7.7505   -1.2525    0.0000 O   0  0  0  0  0  0  0  0  0  0  0  0
   -6.1639    0.8049    0.0000 O   0  0  0  0  0  0  0  0  0  0  0  0
   -4.9761   -0.1112    0.0000 C   0  0  0  0  0  0  0  0  0  0  0  0
   -3.5889    0.4595    0.0000 C   0  0  0  0  0  0  0  0  0  0  0  0
   -3.3895    1.9462    0.0000 O   0  0  0  0  0  0  0  0  0  0  0  0
   -2.4011   -0.4565    0.0000 C   0  0  0  0  0  0  0  0  0  0  0  0
   -2.4440   -1.9559    0.0000 C   0  0  0  0  0  0  0  0  0  0  0  0
   -1.0312   -2.4600    0.0000 C   0  0  0  0  0  0  0  0  0  0  0  0
   -0.1152   -1.2722    0.0000 C   0  0  0  0  0  0  0  0  0  0  0  0
    1.3805   -1.1582    0.0000 C   0  0  0  0  0  0  0  0  0  0  0  0
    2.2271   -2.3964    0.0000 C   0  0  0  0  0  0  0  0  0  0  0  0
    3.7227   -2.2823    0.0000 C   0  0  0  0  0  0  0  0  0  0  0  0
    4.3718   -0.9300    0.0000 C   0  0  0  0  0  0  0  0  0  0  0  0
    5.8674   -0.8160    0.0000 C   0  0  0  0  0  0  0  0  0  0  0  0
    6.5165    0.5363    0.0000 C   0  0  0  0  0  0  0  0  0  0  0  0
    8.0121    0.6504    0.0000 O   0  0  0  0  0  0  0  0  0  0  0  0
    5.6699    1.7746    0.0000 C   0  0  0  0  0  0  0  0  0  0  0  0
    4.1742    1.6605    0.0000 C   0  0  0  0  0  0  0  0  0  0  0  0
    3.5252    0.3082    0.0000 C   0  0  0  0  0  0  0  0  0  0  0  0
    2.6785    1.5465    0.0000 C   0  0  0  0  0  0  0  0  0  0  0  0
    2.0295    0.1941    0.0000 C   0  0  0  0  0  0  0  0  0  0  0  0
    1.1829    1.4324    0.0000 C   0  0  0  0  0  0  0  0  0  0  0  0
   -0.3128    1.3183    0.0000 C   0  0  0  0  0  0  0  0  0  0  0  0
   -0.9618   -0.0340    0.0000 C   0  0  0  0  0  0  0  0  0  0  0  0
   -1.9332    1.1090    0.0000 C   0  0  0  0  0  0  0  0  0  0  0  0
  1  2  1  0
  2  3  2  0
  2  4  1  0
  4  5  1  0
  5  6  1  0
  6  7  2  0
  8  6  1  6
  8  9  1  0
  9 10  1  0
 11 10  1  6
 11 12  1  0
 12 13  1  1
 13 14  1  0
 15 14  1  6
 15 16  1  0
 16 17  1  0
 17 18  1  1
 17 19  1  0
 19 20  1  0
 20 21  1  0
 21 22  1  6
 21 23  1  0
 23 24  1  6
 24 25  1  0
 25 26  1  0
 26 27  1  6
 26  8  1  0
 26 11  1  0
 23 12  1  0
 21 15  1  0
M  END
>  <MS_ID>  (3013) 
MS3126

>  <SMILES>  (3013) 
CC(=O)OCC(=O)[C@H]1CC[C@H]2[C@@H]3CC[C@H]4C[C@H](O)CC[C@]4(C)[C@H]3CC[C@]12C

>  <Structure_dimension>  (3013) 
2D

$$$$
MS3128
     RDKit          2D

 25 28  0  0  0  0  0  0  0  0999 V2000
   -6.2011   -0.0039    0.0000 C   0  0  0  0  0  0  0  0  0  0  0  0
   -4.8118    0.5619    0.0000 C   0  0  0  0  0  0  0  0  0  0  0  0
   -4.6071    2.0478    0.0000 O   0  0  0  0  0  0  0  0  0  0  0  0
   -3.6273   -0.3584    0.0000 C   0  0  0  0  0  0  0  0  0  0  0  0
   -3.6756   -1.8576    0.0000 C   0  0  0  0  0  0  0  0  0  0  0  0
   -2.2646   -2.3668    0.0000 C   0  0  0  0  0  0  0  0  0  0  0  0
   -1.3444   -1.1823    0.0000 C   0  0  0  0  0  0  0  0  0  0  0  0
    0.1517   -1.0736    0.0000 C   0  0  0  0  0  0  0  0  0  0  0  0
    0.9939   -2.3148    0.0000 C   0  0  0  0  0  0  0  0  0  0  0  0
    0.3400   -3.6648    0.0000 O   0  0  0  0  0  0  0  0  0  0  0  0
    2.4899   -2.2061    0.0000 C   0  0  0  0  0  0  0  0  0  0  0  0
    3.1438   -0.8561    0.0000 C   0  0  0  0  0  0  0  0  0  0  0  0
    4.6399   -0.7474    0.0000 C   0  0  0  0  0  0  0  0  0  0  0  0
    5.2937    0.6026    0.0000 C   0  0  0  0  0  0  0  0  0  0  0  0
    6.7898    0.7113    0.0000 O   0  0  0  0  0  0  0  0  0  0  0  0
    4.4516    1.8438    0.0000 C   0  0  0  0  0  0  0  0  0  0  0  0
    2.9555    1.7351    0.0000 C   0  0  0  0  0  0  0  0  0  0  0  0
    2.3016    0.3851    0.0000 C   0  0  0  0  0  0  0  0  0  0  0  0
    1.4594    1.6264    0.0000 C   0  0  0  0  0  0  0  0  0  0  0  0
    0.8056    0.2764    0.0000 C   0  0  0  0  0  0  0  0  0  0  0  0
   -0.0366    1.5177    0.0000 C   0  0  0  0  0  0  0  0  0  0  0  0
   -1.5327    1.4090    0.0000 C   0  0  0  0  0  0  0  0  0  0  0  0
   -2.3748    2.6502    0.0000 O   0  0  0  0  0  0  0  0  0  0  0  0
   -2.1865    0.0590    0.0000 C   0  0  0  0  0  0  0  0  0  0  0  0
   -3.1539    1.2054    0.0000 C   0  0  0  0  0  0  0  0  0  0  0  0
  1  2  1  0
  2  3  2  0
  4  2  1  6
  4  5  1  0
  5  6  1  0
  7  6  1  6
  7  8  1  0
  8  9  1  1
  9 10  1  1
  9 11  1  0
 12 11  1  1
 12 13  1  0
 13 14  1  0
 14 15  1  1
 14 16  1  0
 16 17  1  0
 17 18  1  0
 18 19  1  6
 18 20  1  0
 20 21  1  6
 21 22  1  0
 22 23  1  6
 22 24  1  0
 24 25  1  6
 24  4  1  0
 24  7  1  0
 20  8  1  0
 18 12  1  0
M  END
>  <MS_ID>  (3014) 
MS3128

>  <SMILES>  (3014) 
CC(=O)[C@H]1CC[C@H]2[C@@H]3[C@H](O)C[C@@H]4C[C@H](O)CC[C@]4(C)[C@H]3C[C@@H](O)[C@]12C

>  <Structure_dimension>  (3014) 
2D

$$$$
MS3129
     RDKit          2D

 35 38  0  0  0  0  0  0  0  0999 V2000
   -1.0855   -4.6255    0.0000 C   0  0  0  0  0  0  0  0  0  0  0  0
   -0.4580   -3.2630    0.0000 C   0  0  0  0  0  0  0  0  0  0  0  0
   -1.3242   -2.0384    0.0000 C   0  0  0  0  0  0  0  0  0  0  0  0
   -2.8178   -2.1761    0.0000 C   0  0  0  0  0  0  0  0  0  0  0  0
   -3.6840   -0.9515    0.0000 C   0  0  0  0  0  0  0  0  0  0  0  0
   -3.0564    0.4110    0.0000 O   0  0  0  0  0  0  0  0  0  0  0  0
   -5.1776   -1.0892    0.0000 N   0  0  0  0  0  0  0  0  0  0  0  0
   -6.0438    0.1354    0.0000 C   0  0  0  0  0  0  0  0  0  0  0  0
   -7.5374   -0.0023    0.0000 C   0  0  0  0  0  0  0  0  0  0  0  0
   -8.4036    1.2223    0.0000 C   0  0  0  0  0  0  0  0  0  0  0  0
   -9.8972    1.0846    0.0000 C   0  0  0  0  0  0  0  0  0  0  0  0
  -10.7634    2.3092    0.0000 C   0  0  0  0  0  0  0  0  0  0  0  0
  -10.1358    3.6717    0.0000 O   0  0  0  0  0  0  0  0  0  0  0  0
  -12.2570    2.1715    0.0000 O   0  0  0  0  0  0  0  0  0  0  0  0
    1.0356   -3.1253    0.0000 C   0  0  0  0  0  0  0  0  0  0  0  0
    2.0250   -4.2527    0.0000 C   0  0  0  0  0  0  0  0  0  0  0  0
    3.4030   -3.6601    0.0000 C   0  0  0  0  0  0  0  0  0  0  0  0
    3.2653   -2.1664    0.0000 C   0  0  0  0  0  0  0  0  0  0  0  0
    4.2831   -1.0646    0.0000 C   0  0  0  0  0  0  0  0  0  0  0  0
    5.7462   -1.3951    0.0000 C   0  0  0  0  0  0  0  0  0  0  0  0
    6.7640   -0.2933    0.0000 C   0  0  0  0  0  0  0  0  0  0  0  0
    6.3187    1.1391    0.0000 C   0  0  0  0  0  0  0  0  0  0  0  0
    7.3365    2.2409    0.0000 C   0  0  0  0  0  0  0  0  0  0  0  0
    6.8912    3.6733    0.0000 C   0  0  0  0  0  0  0  0  0  0  0  0
    7.9091    4.7751    0.0000 O   0  0  0  0  0  0  0  0  0  0  0  0
    5.4281    4.0038    0.0000 C   0  0  0  0  0  0  0  0  0  0  0  0
    4.4103    2.9020    0.0000 C   0  0  0  0  0  0  0  0  0  0  0  0
    4.8556    1.4696    0.0000 C   0  0  0  0  0  0  0  0  0  0  0  0
    3.3925    1.8002    0.0000 C   0  0  0  0  0  0  0  0  0  0  0  0
    3.8378    0.3678    0.0000 C   0  0  0  0  0  0  0  0  0  0  0  0
    2.3746    0.6983    0.0000 C   0  0  0  0  0  0  0  0  0  0  0  0
    1.3568   -0.4035    0.0000 C   0  0  0  0  0  0  0  0  0  0  0  0
   -0.1063   -0.0730    0.0000 O   0  0  0  0  0  0  0  0  0  0  0  0
    1.8021   -1.8359    0.0000 C   0  0  0  0  0  0  0  0  0  0  0  0
    0.3125   -1.6601    0.0000 C   0  0  0  0  0  0  0  0  0  0  0  0
  2  1  1  6
  2  3  1  0
  3  4  1  0
  4  5  1  0
  5  6  2  0
  5  7  1  0
  7  8  1  0
  8  9  1  0
  9 10  1  0
 10 11  1  0
 11 12  1  0
 12 13  2  0
 12 14  1  0
  2 15  1  0
 15 16  1  6
 16 17  1  0
 18 17  1  6
 18 19  1  0
 19 20  1  1
 20 21  1  0
 22 21  1  1
 22 23  1  0
 23 24  1  0
 24 25  1  1
 24 26  1  0
 26 27  1  0
 27 28  1  0
 28 29  1  6
 28 30  1  0
 30 31  1  6
 31 32  1  0
 32 33  1  1
 32 34  1  0
 34 35  1  6
 34 15  1  0
 34 18  1  0
 30 19  1  0
 28 22  1  0
M  END
>  <MS_ID>  (3015) 
MS3129

>  <SMILES>  (3015) 
C[C@H](CCC(=O)NCCCCC(=O)O)[C@H]1CC[C@H]2[C@@H]3CC[C@@H]4C[C@H](O)CC[C@]4(C)[C@H]3C[C@H](O)[C@]12C

>  <Structure_dimension>  (3015) 
2D

$$$$
MS3130
     RDKit          2D

 29 32  0  0  0  0  0  0  0  0999 V2000
   -4.5794    2.7226    0.0000 C   0  0  0  0  0  0  0  0  0  0  0  0
   -3.3580    1.8519    0.0000 O   0  0  0  0  0  0  0  0  0  0  0  0
   -3.5014    0.3587    0.0000 C   0  0  0  0  0  0  0  0  0  0  0  0
   -4.8662   -0.2637    0.0000 C   0  0  0  0  0  0  0  0  0  0  0  0
   -6.0876    0.6071    0.0000 C   0  0  0  0  0  0  0  0  0  0  0  0
   -7.4524   -0.0153    0.0000 C   0  0  0  0  0  0  0  0  0  0  0  0
   -7.5958   -1.5084    0.0000 O   0  0  0  0  0  0  0  0  0  0  0  0
   -8.6738    0.8554    0.0000 O   0  0  0  0  0  0  0  0  0  0  0  0
   -2.2800   -0.5120    0.0000 C   0  0  0  0  0  0  0  0  0  0  0  0
   -2.2665   -2.0119    0.0000 C   0  0  0  0  0  0  0  0  0  0  0  0
   -0.8358   -2.4626    0.0000 C   0  0  0  0  0  0  0  0  0  0  0  0
    0.0349   -1.2412    0.0000 C   0  0  0  0  0  0  0  0  0  0  0  0
    1.5252   -1.0710    0.0000 C   0  0  0  0  0  0  0  0  0  0  0  0
    2.4178   -2.2766    0.0000 C   0  0  0  0  0  0  0  0  0  0  0  0
    1.8200   -3.6523    0.0000 O   0  0  0  0  0  0  0  0  0  0  0  0
    3.9081   -2.1064    0.0000 C   0  0  0  0  0  0  0  0  0  0  0  0
    4.5058   -0.7307    0.0000 C   0  0  0  0  0  0  0  0  0  0  0  0
    5.9961   -0.5605    0.0000 C   0  0  0  0  0  0  0  0  0  0  0  0
    6.5939    0.8153    0.0000 C   0  0  0  0  0  0  0  0  0  0  0  0
    8.0842    0.9855    0.0000 O   0  0  0  0  0  0  0  0  0  0  0  0
    5.7014    2.0208    0.0000 C   0  0  0  0  0  0  0  0  0  0  0  0
    4.2111    1.8506    0.0000 C   0  0  0  0  0  0  0  0  0  0  0  0
    3.6133    0.4749    0.0000 C   0  0  0  0  0  0  0  0  0  0  0  0
    2.7207    1.6805    0.0000 C   0  0  0  0  0  0  0  0  0  0  0  0
    2.1230    0.3047    0.0000 C   0  0  0  0  0  0  0  0  0  0  0  0
    1.2304    1.5103    0.0000 C   0  0  0  0  0  0  0  0  0  0  0  0
   -0.2599    1.3401    0.0000 C   0  0  0  0  0  0  0  0  0  0  0  0
   -0.8577   -0.0357    0.0000 C   0  0  0  0  0  0  0  0  0  0  0  0
   -1.8713    1.0700    0.0000 C   0  0  0  0  0  0  0  0  0  0  0  0
  1  2  1  0
  2  3  1  0
  3  4  1  1
  4  5  1  0
  5  6  1  0
  6  7  2  0
  6  8  1  0
  3  9  1  0
  9 10  1  6
 10 11  1  0
 12 11  1  6
 12 13  1  0
 13 14  1  1
 14 15  1  6
 14 16  1  0
 17 16  1  1
 17 18  1  0
 18 19  1  0
 19 20  1  1
 19 21  1  0
 21 22  1  0
 22 23  1  0
 23 24  1  6
 23 25  1  0
 25 26  1  6
 26 27  1  0
 27 28  1  0
 28 29  1  6
 28  9  1  0
 28 12  1  0
 25 13  1  0
 23 17  1  0
M  END
>  <MS_ID>  (3016) 
MS3130

>  <SMILES>  (3016) 
CO[C@H](CCC(=O)O)[C@H]1CC[C@H]2[C@@H]3[C@@H](O)C[C@@H]4C[C@H](O)CC[C@]4(C)[C@H]3CC[C@]12C

>  <Structure_dimension>  (3016) 
2D

$$$$
MS3131
     RDKit          2D

 24 27  0  0  0  0  0  0  0  0999 V2000
   -6.1877   -0.1229    0.0000 C   0  0  0  0  0  0  0  0  0  0  0  0
   -4.7954    0.4353    0.0000 C   0  0  0  0  0  0  0  0  0  0  0  0
   -4.5826    1.9201    0.0000 O   0  0  0  0  0  0  0  0  0  0  0  0
   -3.6159   -0.4914    0.0000 C   0  0  0  0  0  0  0  0  0  0  0  0
   -3.6723   -1.9904    0.0000 C   0  0  0  0  0  0  0  0  0  0  0  0
   -2.2641   -2.5072    0.0000 C   0  0  0  0  0  0  0  0  0  0  0  0
   -1.3374   -1.3277    0.0000 C   0  0  0  0  0  0  0  0  0  0  0  0
    0.1592   -1.2271    0.0000 C   0  0  0  0  0  0  0  0  0  0  0  0
    0.9946   -2.4730    0.0000 C   0  0  0  0  0  0  0  0  0  0  0  0
    2.4912   -2.3724    0.0000 C   0  0  0  0  0  0  0  0  0  0  0  0
    3.1524   -1.0260    0.0000 C   0  0  0  0  0  0  0  0  0  0  0  0
    4.6491   -0.9254    0.0000 C   0  0  0  0  0  0  0  0  0  0  0  0
    5.3103    0.4210    0.0000 C   0  0  0  0  0  0  0  0  0  0  0  0
    6.8069    0.5216    0.0000 O   0  0  0  0  0  0  0  0  0  0  0  0
    4.4749    1.6668    0.0000 C   0  0  0  0  0  0  0  0  0  0  0  0
    2.9782    1.5662    0.0000 C   0  0  0  0  0  0  0  0  0  0  0  0
    2.3170    0.2198    0.0000 C   0  0  0  0  0  0  0  0  0  0  0  0
    1.4816    1.4657    0.0000 C   0  0  0  0  0  0  0  0  0  0  0  0
    0.8204    0.1193    0.0000 C   0  0  0  0  0  0  0  0  0  0  0  0
   -0.0150    1.3651    0.0000 C   0  0  0  0  0  0  0  0  0  0  0  0
   -1.5116    1.2645    0.0000 C   0  0  0  0  0  0  0  0  0  0  0  0
   -2.3471    2.5103    0.0000 O   0  0  0  0  0  0  0  0  0  0  0  0
   -2.1729   -0.0819    0.0000 C   0  0  0  0  0  0  0  0  0  0  0  0
   -3.1339    1.0698    0.0000 C   0  0  0  0  0  0  0  0  0  0  0  0
  2  1  1  6
  2  3  1  0
  2  4  1  0
  4  5  1  6
  5  6  1  0
  7  6  1  6
  7  8  1  0
  8  9  1  1
  9 10  1  0
 11 10  1  1
 11 12  1  0
 12 13  1  0
 13 14  1  1
 13 15  1  0
 15 16  1  0
 16 17  1  0
 17 18  1  6
 17 19  1  0
 19 20  1  6
 20 21  1  0
 21 22  2  0
 21 23  1  0
 23 24  1  6
 23  4  1  0
 23  7  1  0
 19  8  1  0
 17 11  1  0
M  END
>  <MS_ID>  (3017) 
MS3131

>  <SMILES>  (3017) 
C[C@H](O)[C@H]1CC[C@H]2[C@@H]3CC[C@@H]4C[C@H](O)CC[C@]4(C)[C@H]3CC(=O)[C@]12C

>  <Structure_dimension>  (3017) 
2D

$$$$
MS3132
     RDKit          2D

 27 30  0  0  0  0  0  0  0  0999 V2000
   -6.9944    3.0301    0.0000 C   0  0  0  0  0  0  0  0  0  0  0  0
   -5.6180    2.4339    0.0000 C   0  0  0  0  0  0  0  0  0  0  0  0
   -4.4135    3.3278    0.0000 C   0  0  0  0  0  0  0  0  0  0  0  0
   -5.4461    0.9438    0.0000 C   0  0  0  0  0  0  0  0  0  0  0  0
   -4.0697    0.3476    0.0000 C   0  0  0  0  0  0  0  0  0  0  0  0
   -3.8978   -1.1425    0.0000 C   0  0  0  0  0  0  0  0  0  0  0  0
   -5.1023   -2.0364    0.0000 C   0  0  0  0  0  0  0  0  0  0  0  0
   -2.5213   -1.7387    0.0000 C   0  0  0  0  0  0  0  0  0  0  0  0
   -2.1946   -3.2027    0.0000 C   0  0  0  0  0  0  0  0  0  0  0  0
   -0.7013   -3.3444    0.0000 C   0  0  0  0  0  0  0  0  0  0  0  0
   -0.1051   -1.9679    0.0000 C   0  0  0  0  0  0  0  0  0  0  0  0
    1.3167   -1.4900    0.0000 C   0  0  0  0  0  0  0  0  0  0  0  0
    2.4415   -2.4823    0.0000 C   0  0  0  0  0  0  0  0  0  0  0  0
    3.8633   -2.0044    0.0000 C   0  0  0  0  0  0  0  0  0  0  0  0
    4.1603   -0.5341    0.0000 C   0  0  0  0  0  0  0  0  0  0  0  0
    5.5821   -0.0561    0.0000 C   0  0  0  0  0  0  0  0  0  0  0  0
    5.8791    1.4142    0.0000 C   0  0  0  0  0  0  0  0  0  0  0  0
    7.3009    1.8921    0.0000 O   0  0  0  0  0  0  0  0  0  0  0  0
    4.7543    2.4065    0.0000 C   0  0  0  0  0  0  0  0  0  0  0  0
    3.3325    1.9286    0.0000 C   0  0  0  0  0  0  0  0  0  0  0  0
    3.0355    0.4583    0.0000 C   0  0  0  0  0  0  0  0  0  0  0  0
    1.9107    1.4506    0.0000 C   0  0  0  0  0  0  0  0  0  0  0  0
    1.6137   -0.0197    0.0000 C   0  0  0  0  0  0  0  0  0  0  0  0
    0.4888    0.9727    0.0000 C   0  0  0  0  0  0  0  0  0  0  0  0
   -0.9330    0.4947    0.0000 C   0  0  0  0  0  0  0  0  0  0  0  0
   -1.2300   -0.9756    0.0000 C   0  0  0  0  0  0  0  0  0  0  0  0
   -2.4524   -0.1062    0.0000 C   0  0  0  0  0  0  0  0  0  0  0  0
  1  2  1  0
  2  3  1  0
  2  4  1  0
  4  5  1  0
  5  6  1  0
  6  7  1  6
  6  8  1  0
  8  9  1  6
  9 10  1  0
 11 10  1  6
 11 12  1  0
 12 13  1  1
 13 14  1  0
 15 14  1  6
 15 16  1  0
 16 17  1  0
 17 18  1  6
 17 19  1  0
 19 20  1  0
 20 21  1  0
 21 22  1  6
 21 23  1  0
 23 24  1  6
 24 25  1  0
 25 26  1  0
 26 27  1  6
 26  8  1  0
 26 11  1  0
 23 12  1  0
 21 15  1  0
M  END
>  <MS_ID>  (3018) 
MS3132

>  <SMILES>  (3018) 
CC(C)CC[C@@H](C)[C@H]1CC[C@H]2[C@@H]3CC[C@H]4C[C@@H](O)CC[C@]4(C)[C@H]3CC[C@]12C

>  <Structure_dimension>  (3018) 
2D

$$$$
MS3133
     RDKit          2D

 29 32  0  0  0  0  0  0  0  0999 V2000
   -7.4373    3.6696    0.0000 C   0  0  0  0  0  0  0  0  0  0  0  0
   -7.0935    2.2096    0.0000 C   0  0  0  0  0  0  0  0  0  0  0  0
   -8.1860    1.1818    0.0000 C   0  0  0  0  0  0  0  0  0  0  0  0
   -5.6571    1.7773    0.0000 C   0  0  0  0  0  0  0  0  0  0  0  0
   -5.3133    0.3173    0.0000 C   0  0  0  0  0  0  0  0  0  0  0  0
   -3.8769   -0.1150    0.0000 C   0  0  0  0  0  0  0  0  0  0  0  0
   -3.5331   -1.5751    0.0000 C   0  0  0  0  0  0  0  0  0  0  0  0
   -4.6256   -2.6029    0.0000 C   0  0  0  0  0  0  0  0  0  0  0  0
   -2.0967   -2.0073    0.0000 C   0  0  0  0  0  0  0  0  0  0  0  0
   -1.6021   -3.4234    0.0000 C   0  0  0  0  0  0  0  0  0  0  0  0
   -0.1025   -3.3907    0.0000 C   0  0  0  0  0  0  0  0  0  0  0  0
    0.3298   -1.9543    0.0000 C   0  0  0  0  0  0  0  0  0  0  0  0
    1.6864   -1.3144    0.0000 C   0  0  0  0  0  0  0  0  0  0  0  0
    2.9189   -2.1694    0.0000 C   0  0  0  0  0  0  0  0  0  0  0  0
    4.2756   -1.5295    0.0000 C   0  0  0  0  0  0  0  0  0  0  0  0
    5.5081   -2.3844    0.0000 O   0  0  0  0  0  0  0  0  0  0  0  0
    4.3998   -0.0346    0.0000 C   0  0  0  0  0  0  0  0  0  0  0  0
    5.7564    0.6053    0.0000 C   0  0  0  0  0  0  0  0  0  0  0  0
    5.8806    2.1001    0.0000 C   0  0  0  0  0  0  0  0  0  0  0  0
    7.2373    2.7400    0.0000 O   0  0  0  0  0  0  0  0  0  0  0  0
    4.6481    2.9551    0.0000 C   0  0  0  0  0  0  0  0  0  0  0  0
    3.2914    2.3152    0.0000 C   0  0  0  0  0  0  0  0  0  0  0  0
    3.1673    0.8203    0.0000 C   0  0  0  0  0  0  0  0  0  0  0  0
    1.9348    1.6753    0.0000 C   0  0  0  0  0  0  0  0  0  0  0  0
    1.8106    0.1804    0.0000 C   0  0  0  0  0  0  0  0  0  0  0  0
    0.5781    1.0354    0.0000 C   0  0  0  0  0  0  0  0  0  0  0  0
   -0.7786    0.3955    0.0000 C   0  0  0  0  0  0  0  0  0  0  0  0
   -0.9027   -1.0993    0.0000 C   0  0  0  0  0  0  0  0  0  0  0  0
   -2.2178   -0.3779    0.0000 C   0  0  0  0  0  0  0  0  0  0  0  0
  1  2  1  0
  2  3  1  0
  2  4  1  0
  4  5  1  0
  5  6  1  0
  6  7  1  0
  7  8  1  6
  7  9  1  0
  9 10  1  6
 10 11  1  0
 12 11  1  6
 12 13  1  0
 13 14  1  1
 14 15  1  0
 15 16  1  1
 15 17  1  0
 17 18  1  6
 18 19  1  0
 19 20  1  6
 19 21  1  0
 21 22  1  0
 22 23  1  0
 23 24  1  6
 23 25  1  0
 25 26  1  6
 26 27  1  0
 27 28  1  0
 28 29  1  6
 28  9  1  0
 28 12  1  0
 25 13  1  0
 23 17  1  0
M  END
>  <MS_ID>  (3019) 
MS3133

>  <SMILES>  (3019) 
CC(C)CCC[C@@H](C)[C@H]1CC[C@H]2[C@@H]3C[C@H](O)[C@H]4C[C@@H](O)CC[C@]4(C)[C@H]3CC[C@]12C

>  <Structure_dimension>  (3019) 
2D

$$$$
MS3134
     RDKit          2D

 29 32  0  0  0  0  0  0  0  0999 V2000
   -7.3181    3.7641    0.0000 C   0  0  0  0  0  0  0  0  0  0  0  0
   -6.9843    2.3017    0.0000 C   0  0  0  0  0  0  0  0  0  0  0  0
   -8.0838    1.2815    0.0000 C   0  0  0  0  0  0  0  0  0  0  0  0
   -5.5509    1.8596    0.0000 C   0  0  0  0  0  0  0  0  0  0  0  0
   -5.2171    0.3972    0.0000 C   0  0  0  0  0  0  0  0  0  0  0  0
   -3.7837   -0.0449    0.0000 C   0  0  0  0  0  0  0  0  0  0  0  0
   -3.4499   -1.5073    0.0000 C   0  0  0  0  0  0  0  0  0  0  0  0
   -4.5495   -2.5275    0.0000 C   0  0  0  0  0  0  0  0  0  0  0  0
   -2.0166   -1.9494    0.0000 C   0  0  0  0  0  0  0  0  0  0  0  0
   -1.5317   -3.3689    0.0000 C   0  0  0  0  0  0  0  0  0  0  0  0
   -0.0319   -3.3464    0.0000 C   0  0  0  0  0  0  0  0  0  0  0  0
    0.4102   -1.9130    0.0000 C   0  0  0  0  0  0  0  0  0  0  0  0
    1.7712   -1.2825    0.0000 C   0  0  0  0  0  0  0  0  0  0  0  0
    2.9978   -2.1459    0.0000 C   0  0  0  0  0  0  0  0  0  0  0  0
    2.8634   -3.6398    0.0000 O   0  0  0  0  0  0  0  0  0  0  0  0
    4.3589   -1.5153    0.0000 C   0  0  0  0  0  0  0  0  0  0  0  0
    4.4933   -0.0214    0.0000 C   0  0  0  0  0  0  0  0  0  0  0  0
    5.8543    0.6092    0.0000 C   0  0  0  0  0  0  0  0  0  0  0  0
    5.9888    2.1032    0.0000 C   0  0  0  0  0  0  0  0  0  0  0  0
    7.3498    2.7337    0.0000 O   0  0  0  0  0  0  0  0  0  0  0  0
    4.7622    2.9666    0.0000 C   0  0  0  0  0  0  0  0  0  0  0  0
    3.4011    2.3360    0.0000 C   0  0  0  0  0  0  0  0  0  0  0  0
    3.2667    0.8420    0.0000 C   0  0  0  0  0  0  0  0  0  0  0  0
    2.0401    1.7055    0.0000 C   0  0  0  0  0  0  0  0  0  0  0  0
    1.9057    0.2115    0.0000 C   0  0  0  0  0  0  0  0  0  0  0  0
    0.6791    1.0749    0.0000 C   0  0  0  0  0  0  0  0  0  0  0  0
   -0.6820    0.4443    0.0000 C   0  0  0  0  0  0  0  0  0  0  0  0
   -0.8164   -1.0496    0.0000 C   0  0  0  0  0  0  0  0  0  0  0  0
   -2.1265   -0.3192    0.0000 C   0  0  0  0  0  0  0  0  0  0  0  0
  1  2  1  0
  2  3  1  0
  2  4  1  0
  4  5  1  0
  5  6  1  0
  6  7  1  0
  7  8  1  6
  7  9  1  0
  9 10  1  6
 10 11  1  0
 12 11  1  6
 12 13  1  0
 13 14  1  1
 14 15  1  6
 14 16  1  0
 17 16  1  6
 17 18  1  0
 18 19  1  0
 19 20  1  6
 19 21  1  0
 21 22  1  0
 22 23  1  0
 23 24  1  6
 23 25  1  0
 25 26  1  6
 26 27  1  0
 27 28  1  0
 28 29  1  6
 28  9  1  0
 28 12  1  0
 25 13  1  0
 23 17  1  0
M  END
>  <MS_ID>  (3020) 
MS3134

>  <SMILES>  (3020) 
CC(C)CCC[C@@H](C)[C@H]1CC[C@H]2[C@@H]3[C@@H](O)C[C@H]4C[C@@H](O)CC[C@]4(C)[C@H]3CC[C@]12C

>  <Structure_dimension>  (3020) 
2D

$$$$
MS3135
     RDKit          2D

 24 27  0  0  0  0  0  0  0  0999 V2000
   -7.0141    1.4158    0.0000 C   0  0  0  0  0  0  0  0  0  0  0  0
   -5.8882    0.4247    0.0000 C   0  0  0  0  0  0  0  0  0  0  0  0
   -6.1836   -1.0459    0.0000 O   0  0  0  0  0  0  0  0  0  0  0  0
   -4.4669    0.9042    0.0000 O   0  0  0  0  0  0  0  0  0  0  0  0
   -3.3410   -0.0869    0.0000 C   0  0  0  0  0  0  0  0  0  0  0  0
   -3.4810   -1.5803    0.0000 C   0  0  0  0  0  0  0  0  0  0  0  0
   -2.1040   -2.1750    0.0000 C   0  0  0  0  0  0  0  0  0  0  0  0
   -1.1128   -1.0491    0.0000 C   0  0  0  0  0  0  0  0  0  0  0  0
    0.3871   -1.0323    0.0000 C   0  0  0  0  0  0  0  0  0  0  0  0
    1.1516   -2.3228    0.0000 C   0  0  0  0  0  0  0  0  0  0  0  0
    2.6515   -2.3060    0.0000 C   0  0  0  0  0  0  0  0  0  0  0  0
    3.3869   -0.9986    0.0000 C   0  0  0  0  0  0  0  0  0  0  0  0
    4.8868   -0.9818    0.0000 C   0  0  0  0  0  0  0  0  0  0  0  0
    5.6221    0.3256    0.0000 C   0  0  0  0  0  0  0  0  0  0  0  0
    7.1221    0.3425    0.0000 O   0  0  0  0  0  0  0  0  0  0  0  0
    4.8576    1.6162    0.0000 C   0  0  0  0  0  0  0  0  0  0  0  0
    3.3577    1.5993    0.0000 C   0  0  0  0  0  0  0  0  0  0  0  0
    2.6223    0.2919    0.0000 C   0  0  0  0  0  0  0  0  0  0  0  0
    1.8578    1.5825    0.0000 C   0  0  0  0  0  0  0  0  0  0  0  0
    1.1224    0.2751    0.0000 C   0  0  0  0  0  0  0  0  0  0  0  0
    0.3579    1.5656    0.0000 C   0  0  0  0  0  0  0  0  0  0  0  0
   -1.1420    1.5488    0.0000 C   0  0  0  0  0  0  0  0  0  0  0  0
   -1.8774    0.2414    0.0000 C   0  0  0  0  0  0  0  0  0  0  0  0
   -2.7726    1.4450    0.0000 C   0  0  0  0  0  0  0  0  0  0  0  0
  1  2  1  0
  2  3  2  0
  2  4  1  0
  5  4  1  6
  5  6  1  0
  6  7  1  0
  8  7  1  6
  8  9  1  0
  9 10  1  1
 10 11  1  0
 12 11  1  1
 12 13  1  0
 13 14  1  0
 14 15  1  1
 14 16  1  0
 16 17  1  0
 17 18  1  0
 18 19  1  6
 18 20  1  0
 20 21  1  6
 21 22  1  0
 22 23  1  0
 23 24  1  6
 23  5  1  0
 23  8  1  0
 20  9  1  0
 18 12  1  0
M  END
>  <MS_ID>  (3021) 
MS3135

>  <SMILES>  (3021) 
CC(=O)O[C@H]1CC[C@H]2[C@@H]3CC[C@@H]4C[C@H](O)CC[C@]4(C)[C@H]3CC[C@]12C

>  <Structure_dimension>  (3021) 
2D

$$$$
MS3136
     RDKit          2D

 31 34  0  0  0  0  0  0  0  0999 V2000
   -6.8556    3.5368    0.0000 C   0  0  0  0  0  0  0  0  0  0  0  0
   -6.4838    2.0836    0.0000 C   0  0  0  0  0  0  0  0  0  0  0  0
   -5.0394    1.6790    0.0000 C   0  0  0  0  0  0  0  0  0  0  0  0
   -4.6676    0.2259    0.0000 C   0  0  0  0  0  0  0  0  0  0  0  0
   -3.2232   -0.1787    0.0000 C   0  0  0  0  0  0  0  0  0  0  0  0
   -2.8514   -1.6319    0.0000 C   0  0  0  0  0  0  0  0  0  0  0  0
   -3.9239   -2.6805    0.0000 C   0  0  0  0  0  0  0  0  0  0  0  0
   -1.4069   -2.0365    0.0000 C   0  0  0  0  0  0  0  0  0  0  0  0
   -0.8853   -3.4429    0.0000 C   0  0  0  0  0  0  0  0  0  0  0  0
    0.6135   -3.3813    0.0000 C   0  0  0  0  0  0  0  0  0  0  0  0
    1.0181   -1.9369    0.0000 C   0  0  0  0  0  0  0  0  0  0  0  0
    2.3622   -1.2711    0.0000 C   0  0  0  0  0  0  0  0  0  0  0  0
    3.6109   -2.1022    0.0000 C   0  0  0  0  0  0  0  0  0  0  0  0
    3.5154   -3.5992    0.0000 O   0  0  0  0  0  0  0  0  0  0  0  0
    4.9550   -1.4364    0.0000 C   0  0  0  0  0  0  0  0  0  0  0  0
    5.0504    0.0606    0.0000 C   0  0  0  0  0  0  0  0  0  0  0  0
    6.3946    0.7264    0.0000 C   0  0  0  0  0  0  0  0  0  0  0  0
    6.4900    2.2234    0.0000 C   0  0  0  0  0  0  0  0  0  0  0  0
    7.8341    2.8892    0.0000 O   0  0  0  0  0  0  0  0  0  0  0  0
    5.2413    3.0545    0.0000 C   0  0  0  0  0  0  0  0  0  0  0  0
    3.8972    2.3887    0.0000 C   0  0  0  0  0  0  0  0  0  0  0  0
    3.8017    0.8917    0.0000 C   0  0  0  0  0  0  0  0  0  0  0  0
    2.5531    1.7228    0.0000 C   0  0  0  0  0  0  0  0  0  0  0  0
    2.4576    0.2259    0.0000 C   0  0  0  0  0  0  0  0  0  0  0  0
    1.2089    1.0570    0.0000 C   0  0  0  0  0  0  0  0  0  0  0  0
   -0.1352    0.3912    0.0000 C   0  0  0  0  0  0  0  0  0  0  0  0
   -0.2306   -1.1058    0.0000 C   0  0  0  0  0  0  0  0  0  0  0  0
   -1.5594   -0.4097    0.0000 C   0  0  0  0  0  0  0  0  0  0  0  0
   -7.5564    1.0350    0.0000 C   0  0  0  0  0  0  0  0  0  0  0  0
   -7.1846   -0.4182    0.0000 O   0  0  0  0  0  0  0  0  0  0  0  0
   -9.0008    1.4396    0.0000 O   0  0  0  0  0  0  0  0  0  0  0  0
  2  1  1  1
  2  3  1  0
  3  4  1  0
  4  5  1  0
  5  6  1  0
  6  7  1  1
  6  8  1  0
  8  9  1  6
  9 10  1  0
 11 10  1  6
 11 12  1  0
 12 13  1  1
 13 14  1  1
 13 15  1  0
 16 15  1  1
 16 17  1  0
 17 18  1  0
 18 19  1  1
 18 20  1  0
 20 21  1  0
 21 22  1  0
 22 23  1  6
 22 24  1  0
 24 25  1  6
 25 26  1  0
 26 27  1  0
 27 28  1  6
  2 29  1  0
 29 30  2  0
 29 31  1  0
 27  8  1  0
 27 11  1  0
 24 12  1  0
 22 16  1  0
M  END
>  <MS_ID>  (3022) 
MS3136

>  <SMILES>  (3022) 
C[C@@H](CCC[C@H](C)[C@H]1CC[C@H]2[C@@H]3[C@H](O)C[C@@H]4C[C@H](O)CC[C@]4(C)[C@H]3CC[C@]12C)C(=O)O

>  <Structure_dimension>  (3022) 
2D

$$$$
MS3137
     RDKit          2D

 25 28  0  0  0  0  0  0  0  0999 V2000
    2.0644   -1.5574    0.0000 C   0  0  0  0  0  0  0  0  0  0  0  0
    2.7613   -0.2292    0.0000 C   0  0  0  0  0  0  0  0  0  0  0  0
    3.5632   -1.4969    0.0000 C   0  0  0  0  0  0  0  0  0  0  0  0
    5.0619   -1.4363    0.0000 C   0  0  0  0  0  0  0  0  0  0  0  0
    5.7589   -0.1080    0.0000 C   0  0  0  0  0  0  0  0  0  0  0  0
    7.2577   -0.0475    0.0000 O   0  0  0  0  0  0  0  0  0  0  0  0
    4.9571    1.1597    0.0000 C   0  0  0  0  0  0  0  0  0  0  0  0
    3.4583    1.0991    0.0000 C   0  0  0  0  0  0  0  0  0  0  0  0
    2.6564    2.3668    0.0000 C   0  0  0  0  0  0  0  0  0  0  0  0
    1.1577    2.3062    0.0000 C   0  0  0  0  0  0  0  0  0  0  0  0
    0.4607    0.9780    0.0000 C   0  0  0  0  0  0  0  0  0  0  0  0
    1.2626   -0.2897    0.0000 C   0  0  0  0  0  0  0  0  0  0  0  0
    0.5656   -1.6180    0.0000 C   0  0  0  0  0  0  0  0  0  0  0  0
   -0.9332   -1.6785    0.0000 C   0  0  0  0  0  0  0  0  0  0  0  0
   -1.7350   -0.4108    0.0000 C   0  0  0  0  0  0  0  0  0  0  0  0
   -2.4086   -1.7511    0.0000 C   0  0  0  0  0  0  0  0  0  0  0  0
   -1.0381    0.9174    0.0000 C   0  0  0  0  0  0  0  0  0  0  0  0
   -2.0859    1.9907    0.0000 C   0  0  0  0  0  0  0  0  0  0  0  0
   -3.4305    1.3258    0.0000 C   0  0  0  0  0  0  0  0  0  0  0  0
   -3.2136   -0.1585    0.0000 C   0  0  0  0  0  0  0  0  0  0  0  0
   -3.4918   -1.6324    0.0000 O   0  0  0  0  0  0  0  0  0  0  0  0
   -4.7124   -0.2190    0.0000 C   0  0  0  0  0  0  0  0  0  0  0  0
   -5.4093   -1.5473    0.0000 O   0  0  0  0  0  0  0  0  0  0  0  0
   -5.5142    1.0487    0.0000 C   0  0  0  0  0  0  0  0  0  0  0  0
   -7.0130    0.9881    0.0000 O   0  0  0  0  0  0  0  0  0  0  0  0
  2  1  1  1
  2  3  1  0
  3  4  1  0
  4  5  1  0
  5  6  1  1
  5  7  1  0
  8  7  1  6
  8  9  1  0
  9 10  1  0
 11 10  1  6
 11 12  1  0
 12 13  1  1
 13 14  1  0
 14 15  1  0
 15 16  1  1
 15 17  1  0
 17 18  1  1
 18 19  1  0
 19 20  1  0
 20 21  1  6
 20 22  1  0
 22 23  2  0
 22 24  1  0
 24 25  1  0
  8  2  1  0
 17 11  1  0
 12  2  1  0
 20 15  1  0
M  END
>  <MS_ID>  (3023) 
MS3137

>  <SMILES>  (3023) 
C[C@]12CC[C@H](O)C[C@H]1CC[C@@H]1[C@@H]2CC[C@@]2(C)[C@H]1CC[C@]2(O)C(=O)CO

>  <Structure_dimension>  (3023) 
2D

$$$$
MS3138
     RDKit          2D

 29 32  0  0  0  0  0  0  0  0999 V2000
    1.0310   -1.2521    0.0000 C   0  0  0  0  0  0  0  0  0  0  0  0
    1.6169    0.1287    0.0000 C   0  0  0  0  0  0  0  0  0  0  0  0
    2.5198   -1.0692    0.0000 C   0  0  0  0  0  0  0  0  0  0  0  0
    4.0086   -0.8862    0.0000 C   0  0  0  0  0  0  0  0  0  0  0  0
    4.5945    0.4946    0.0000 C   0  0  0  0  0  0  0  0  0  0  0  0
    6.0833    0.6776    0.0000 O   0  0  0  0  0  0  0  0  0  0  0  0
    6.9862   -0.5202    0.0000 S   0  0  0  0  0  0  0  0  0  0  0  0
    5.7883   -1.4231    0.0000 O   0  0  0  0  0  0  0  0  0  0  0  0
    8.1840    0.3826    0.0000 O   0  0  0  0  0  0  0  0  0  0  0  0
    7.8890   -1.7181    0.0000 O   0  0  0  0  0  0  0  0  0  0  0  0
    3.6917    1.6925    0.0000 C   0  0  0  0  0  0  0  0  0  0  0  0
    2.2029    1.5095    0.0000 C   0  0  0  0  0  0  0  0  0  0  0  0
    1.3000    2.7074    0.0000 C   0  0  0  0  0  0  0  0  0  0  0  0
   -0.1888    2.5244    0.0000 C   0  0  0  0  0  0  0  0  0  0  0  0
   -0.7747    1.1436    0.0000 C   0  0  0  0  0  0  0  0  0  0  0  0
    0.1281   -0.0543    0.0000 C   0  0  0  0  0  0  0  0  0  0  0  0
   -0.4578   -1.4351    0.0000 C   0  0  0  0  0  0  0  0  0  0  0  0
   -1.9466   -1.6181    0.0000 C   0  0  0  0  0  0  0  0  0  0  0  0
   -2.8495   -0.4203    0.0000 C   0  0  0  0  0  0  0  0  0  0  0  0
   -3.4112   -1.8111    0.0000 C   0  0  0  0  0  0  0  0  0  0  0  0
   -2.2635    0.9606    0.0000 C   0  0  0  0  0  0  0  0  0  0  0  0
   -3.3957    1.9445    0.0000 C   0  0  0  0  0  0  0  0  0  0  0  0
   -4.6814    1.1718    0.0000 C   0  0  0  0  0  0  0  0  0  0  0  0
   -4.3438   -0.2897    0.0000 C   0  0  0  0  0  0  0  0  0  0  0  0
   -4.5004   -1.7815    0.0000 O   0  0  0  0  0  0  0  0  0  0  0  0
   -5.8326   -0.4727    0.0000 C   0  0  0  0  0  0  0  0  0  0  0  0
   -6.4185   -1.8535    0.0000 O   0  0  0  0  0  0  0  0  0  0  0  0
   -6.7354    0.7252    0.0000 C   0  0  0  0  0  0  0  0  0  0  0  0
   -8.2242    0.5422    0.0000 O   0  0  0  0  0  0  0  0  0  0  0  0
  2  1  1  1
  2  3  1  0
  3  4  1  0
  4  5  1  0
  5  6  1  1
  6  7  1  0
  7  8  2  0
  7  9  2  0
  7 10  1  0
  5 11  1  0
 12 11  1  6
 12 13  1  0
 13 14  1  0
 15 14  1  6
 15 16  1  0
 16 17  1  1
 17 18  1  0
 18 19  1  0
 19 20  1  1
 19 21  1  0
 21 22  1  1
 22 23  1  0
 23 24  1  0
 24 25  1  6
 24 26  1  0
 26 27  2  0
 26 28  1  0
 28 29  1  0
 12  2  1  0
 21 15  1  0
 16  2  1  0
 24 19  1  0
M  END
>  <MS_ID>  (3024) 
MS3138

>  <SMILES>  (3024) 
C[C@]12CC[C@H](OS(=O)(=O)O)C[C@H]1CC[C@@H]1[C@@H]2CC[C@@]2(C)[C@H]1CC[C@]2(O)C(=O)CO

>  <Structure_dimension>  (3024) 
2D

$$$$
MS3139
     RDKit          2D

 24 27  0  0  0  0  0  0  0  0999 V2000
   -6.2943    0.2891    0.0000 C   0  0  0  0  0  0  0  0  0  0  0  0
   -4.8892    0.8143    0.0000 C   0  0  0  0  0  0  0  0  0  0  0  0
   -4.6416    2.2937    0.0000 O   0  0  0  0  0  0  0  0  0  0  0  0
   -3.7319   -0.1399    0.0000 C   0  0  0  0  0  0  0  0  0  0  0  0
   -3.8235   -1.6371    0.0000 C   0  0  0  0  0  0  0  0  0  0  0  0
   -2.4280   -2.1870    0.0000 C   0  0  0  0  0  0  0  0  0  0  0  0
   -1.4738   -1.0296    0.0000 C   0  0  0  0  0  0  0  0  0  0  0  0
    0.0248   -0.9643    0.0000 C   0  0  0  0  0  0  0  0  0  0  0  0
    0.8307   -2.2294    0.0000 C   0  0  0  0  0  0  0  0  0  0  0  0
    0.1380   -3.5599    0.0000 O   0  0  0  0  0  0  0  0  0  0  0  0
    2.3293   -2.1641    0.0000 C   0  0  0  0  0  0  0  0  0  0  0  0
    3.0220   -0.8336    0.0000 C   0  0  0  0  0  0  0  0  0  0  0  0
    4.5205   -0.7683    0.0000 C   0  0  0  0  0  0  0  0  0  0  0  0
    5.2133    0.5622    0.0000 C   0  0  0  0  0  0  0  0  0  0  0  0
    6.7118    0.6275    0.0000 O   0  0  0  0  0  0  0  0  0  0  0  0
    4.4074    1.8273    0.0000 C   0  0  0  0  0  0  0  0  0  0  0  0
    2.9088    1.7620    0.0000 C   0  0  0  0  0  0  0  0  0  0  0  0
    2.2161    0.4315    0.0000 C   0  0  0  0  0  0  0  0  0  0  0  0
    1.4102    1.6967    0.0000 C   0  0  0  0  0  0  0  0  0  0  0  0
    0.7175    0.3662    0.0000 C   0  0  0  0  0  0  0  0  0  0  0  0
   -0.0883    1.6314    0.0000 C   0  0  0  0  0  0  0  0  0  0  0  0
   -1.5869    1.5660    0.0000 C   0  0  0  0  0  0  0  0  0  0  0  0
   -2.2796    0.2356    0.0000 C   0  0  0  0  0  0  0  0  0  0  0  0
   -3.2133    1.4095    0.0000 C   0  0  0  0  0  0  0  0  0  0  0  0
  2  1  1  6
  2  3  1  0
  2  4  1  0
  4  5  1  6
  5  6  1  0
  7  6  1  6
  7  8  1  0
  8  9  1  1
  9 10  2  0
  9 11  1  0
 12 11  1  1
 12 13  1  0
 13 14  1  0
 14 15  1  1
 14 16  1  0
 16 17  1  0
 17 18  1  0
 18 19  1  6
 18 20  1  0
 20 21  1  6
 21 22  1  0
 22 23  1  0
 23 24  1  6
 23  4  1  0
 23  7  1  0
 20  8  1  0
 18 12  1  0
M  END
>  <MS_ID>  (3025) 
MS3139

>  <SMILES>  (3025) 
C[C@H](O)[C@H]1CC[C@H]2[C@@H]3C(=O)C[C@@H]4C[C@H](O)CC[C@]4(C)[C@H]3CC[C@]12C

>  <Structure_dimension>  (3025) 
2D

$$$$
MS3140
     RDKit          2D

 29 32  0  0  0  0  0  0  0  0999 V2000
   -4.7033    4.1635    0.0000 C   0  0  0  0  0  0  0  0  0  0  0  0
   -4.4022    2.6941    0.0000 C   0  0  0  0  0  0  0  0  0  0  0  0
   -2.9790    2.2201    0.0000 C   0  0  0  0  0  0  0  0  0  0  0  0
   -5.5242    1.6986    0.0000 C   0  0  0  0  0  0  0  0  0  0  0  0
   -6.9474    2.1725    0.0000 C   0  0  0  0  0  0  0  0  0  0  0  0
   -5.2231    0.2291    0.0000 C   0  0  0  0  0  0  0  0  0  0  0  0
   -3.7999   -0.2448    0.0000 C   0  0  0  0  0  0  0  0  0  0  0  0
   -3.4988   -1.7143    0.0000 C   0  0  0  0  0  0  0  0  0  0  0  0
   -4.6209   -2.7098    0.0000 C   0  0  0  0  0  0  0  0  0  0  0  0
   -2.0757   -2.1883    0.0000 C   0  0  0  0  0  0  0  0  0  0  0  0
   -1.6226   -3.6182    0.0000 C   0  0  0  0  0  0  0  0  0  0  0  0
   -0.1226   -3.6292    0.0000 C   0  0  0  0  0  0  0  0  0  0  0  0
    0.3513   -2.2060    0.0000 C   0  0  0  0  0  0  0  0  0  0  0  0
    1.7261   -1.6060    0.0000 C   0  0  0  0  0  0  0  0  0  0  0  0
    2.9331   -2.4965    0.0000 C   0  0  0  0  0  0  0  0  0  0  0  0
    4.3078   -1.8965    0.0000 C   0  0  0  0  0  0  0  0  0  0  0  0
    4.4756   -0.4059    0.0000 C   0  0  0  0  0  0  0  0  0  0  0  0
    5.8503    0.1942    0.0000 C   0  0  0  0  0  0  0  0  0  0  0  0
    6.0180    1.6848    0.0000 C   0  0  0  0  0  0  0  0  0  0  0  0
    7.3928    2.2848    0.0000 O   0  0  0  0  0  0  0  0  0  0  0  0
    4.8110    2.5753    0.0000 C   0  0  0  0  0  0  0  0  0  0  0  0
    3.4362    1.9753    0.0000 C   0  0  0  0  0  0  0  0  0  0  0  0
    3.2685    0.4847    0.0000 C   0  0  0  0  0  0  0  0  0  0  0  0
    2.0615    1.3752    0.0000 C   0  0  0  0  0  0  0  0  0  0  0  0
    1.8938   -0.1154    0.0000 C   0  0  0  0  0  0  0  0  0  0  0  0
    0.6867    0.7751    0.0000 C   0  0  0  0  0  0  0  0  0  0  0  0
   -0.6880    0.1751    0.0000 C   0  0  0  0  0  0  0  0  0  0  0  0
   -0.8557   -1.3155    0.0000 C   0  0  0  0  0  0  0  0  0  0  0  0
   -2.1492   -0.5560    0.0000 C   0  0  0  0  0  0  0  0  0  0  0  0
  1  2  1  0
  2  3  1  0
  2  4  1  0
  4  5  1  6
  4  6  1  0
  6  7  2  0
  7  8  1  0
  8  9  1  6
  8 10  1  0
 10 11  1  6
 11 12  1  0
 13 12  1  6
 13 14  1  0
 14 15  1  1
 15 16  1  0
 17 16  1  6
 17 18  1  0
 18 19  1  0
 19 20  1  1
 19 21  1  0
 21 22  1  0
 22 23  1  0
 23 24  1  6
 23 25  1  0
 25 26  1  6
 26 27  1  0
 27 28  1  0
 28 29  1  6
 28 10  1  0
 28 13  1  0
 25 14  1  0
 23 17  1  0
M  END
>  <MS_ID>  (3026) 
MS3140

>  <SMILES>  (3026) 
CC(C)[C@@H](C)/C=C/[C@@H](C)[C@H]1CC[C@H]2[C@@H]3CC[C@H]4C[C@H](O)CC[C@]4(C)[C@H]3CC[C@]12C

>  <Structure_dimension>  (3026) 
2D

$$$$
MS3141
     RDKit          2D

 38 41  0  0  0  0  0  0  0  0999 V2000
   -1.4317   -4.5102    0.0000 C   0  0  0  0  0  0  0  0  0  0  0  0
   -0.7853   -3.1566    0.0000 C   0  0  0  0  0  0  0  0  0  0  0  0
   -1.6344   -1.9200    0.0000 C   0  0  0  0  0  0  0  0  0  0  0  0
   -3.1298   -2.0371    0.0000 C   0  0  0  0  0  0  0  0  0  0  0  0
   -3.9789   -0.8005    0.0000 C   0  0  0  0  0  0  0  0  0  0  0  0
   -3.3326    0.5531    0.0000 O   0  0  0  0  0  0  0  0  0  0  0  0
   -5.4743   -0.9176    0.0000 N   0  0  0  0  0  0  0  0  0  0  0  0
   -6.3234    0.3190    0.0000 C   0  0  0  0  0  0  0  0  0  0  0  0
   -7.8188    0.2020    0.0000 C   0  0  0  0  0  0  0  0  0  0  0  0
   -8.6679    1.4385    0.0000 C   0  0  0  0  0  0  0  0  0  0  0  0
  -10.1634    1.3215    0.0000 C   0  0  0  0  0  0  0  0  0  0  0  0
  -11.0124    2.5580    0.0000 N   0  0  0  0  0  0  0  0  0  0  0  0
  -10.8097   -0.0321    0.0000 O   0  0  0  0  0  0  0  0  0  0  0  0
   -5.6771    1.6726    0.0000 C   0  0  0  0  0  0  0  0  0  0  0  0
   -4.1816    1.7897    0.0000 O   0  0  0  0  0  0  0  0  0  0  0  0
   -6.5262    2.9092    0.0000 O   0  0  0  0  0  0  0  0  0  0  0  0
    0.7101   -3.0395    0.0000 C   0  0  0  0  0  0  0  0  0  0  0  0
    1.6838   -4.1805    0.0000 C   0  0  0  0  0  0  0  0  0  0  0  0
    3.0698   -3.6071    0.0000 C   0  0  0  0  0  0  0  0  0  0  0  0
    2.9528   -2.1117    0.0000 C   0  0  0  0  0  0  0  0  0  0  0  0
    3.9858   -1.0241    0.0000 C   0  0  0  0  0  0  0  0  0  0  0  0
    5.4442   -1.3749    0.0000 C   0  0  0  0  0  0  0  0  0  0  0  0
    5.8696   -2.8133    0.0000 O   0  0  0  0  0  0  0  0  0  0  0  0
    6.4772   -0.2872    0.0000 C   0  0  0  0  0  0  0  0  0  0  0  0
    7.9356   -0.6380    0.0000 O   0  0  0  0  0  0  0  0  0  0  0  0
    6.0518    1.1512    0.0000 C   0  0  0  0  0  0  0  0  0  0  0  0
    7.0848    2.2388    0.0000 C   0  0  0  0  0  0  0  0  0  0  0  0
    6.6594    3.6772    0.0000 C   0  0  0  0  0  0  0  0  0  0  0  0
    7.6924    4.7648    0.0000 O   0  0  0  0  0  0  0  0  0  0  0  0
    5.2010    4.0280    0.0000 C   0  0  0  0  0  0  0  0  0  0  0  0
    4.1680    2.9404    0.0000 C   0  0  0  0  0  0  0  0  0  0  0  0
    4.5934    1.5020    0.0000 C   0  0  0  0  0  0  0  0  0  0  0  0
    3.1350    1.8528    0.0000 C   0  0  0  0  0  0  0  0  0  0  0  0
    3.5604    0.4144    0.0000 C   0  0  0  0  0  0  0  0  0  0  0  0
    2.1020    0.7651    0.0000 C   0  0  0  0  0  0  0  0  0  0  0  0
    1.0690   -0.3225    0.0000 C   0  0  0  0  0  0  0  0  0  0  0  0
    1.4944   -1.7609    0.0000 C   0  0  0  0  0  0  0  0  0  0  0  0
    0.0073   -1.5645    0.0000 C   0  0  0  0  0  0  0  0  0  0  0  0
  2  1  1  6
  2  3  1  0
  3  4  1  0
  4  5  1  0
  5  6  2  0
  5  7  1  0
  7  8  1  0
  8  9  1  1
  9 10  1  0
 10 11  1  0
 11 12  1  0
 11 13  2  0
  8 14  1  0
 14 15  2  0
 14 16  1  0
  2 17  1  0
 17 18  1  6
 18 19  1  0
 20 19  1  6
 20 21  1  0
 21 22  1  1
 22 23  1  1
 22 24  1  0
 24 25  1  6
 24 26  1  0
 26 27  1  1
 27 28  1  0
 28 29  1  1
 28 30  1  0
 30 31  1  0
 31 32  1  0
 32 33  1  6
 32 34  1  0
 34 35  1  6
 35 36  1  0
 36 37  1  0
 37 38  1  6
 37 17  1  0
 37 20  1  0
 34 21  1  0
 32 26  1  0
M  END
>  <MS_ID>  (3027) 
MS3141

>  <SMILES>  (3027) 
C[C@H](CCC(=O)N[C@@H](CCC(N)=O)C(=O)O)[C@H]1CC[C@H]2[C@@H]3[C@H](O)[C@@H](O)[C@@H]4C[C@H](O)CC[C@]4(C)[C@H]3CC[C@]12C

>  <Structure_dimension>  (3027) 
2D

$$$$
MS3142
     RDKit          2D

 24 27  0  0  0  0  0  0  0  0999 V2000
   -6.2943    0.2891    0.0000 C   0  0  0  0  0  0  0  0  0  0  0  0
   -4.8892    0.8143    0.0000 C   0  0  0  0  0  0  0  0  0  0  0  0
   -4.6416    2.2937    0.0000 O   0  0  0  0  0  0  0  0  0  0  0  0
   -3.7319   -0.1399    0.0000 C   0  0  0  0  0  0  0  0  0  0  0  0
   -3.8235   -1.6371    0.0000 C   0  0  0  0  0  0  0  0  0  0  0  0
   -2.4280   -2.1870    0.0000 C   0  0  0  0  0  0  0  0  0  0  0  0
   -1.4738   -1.0296    0.0000 C   0  0  0  0  0  0  0  0  0  0  0  0
    0.0248   -0.9643    0.0000 C   0  0  0  0  0  0  0  0  0  0  0  0
    0.8307   -2.2294    0.0000 C   0  0  0  0  0  0  0  0  0  0  0  0
    0.1380   -3.5599    0.0000 O   0  0  0  0  0  0  0  0  0  0  0  0
    2.3293   -2.1641    0.0000 C   0  0  0  0  0  0  0  0  0  0  0  0
    3.0220   -0.8336    0.0000 C   0  0  0  0  0  0  0  0  0  0  0  0
    4.5205   -0.7683    0.0000 C   0  0  0  0  0  0  0  0  0  0  0  0
    5.2133    0.5622    0.0000 C   0  0  0  0  0  0  0  0  0  0  0  0
    6.7118    0.6275    0.0000 O   0  0  0  0  0  0  0  0  0  0  0  0
    4.4074    1.8273    0.0000 C   0  0  0  0  0  0  0  0  0  0  0  0
    2.9088    1.7620    0.0000 C   0  0  0  0  0  0  0  0  0  0  0  0
    2.2161    0.4315    0.0000 C   0  0  0  0  0  0  0  0  0  0  0  0
    1.4102    1.6967    0.0000 C   0  0  0  0  0  0  0  0  0  0  0  0
    0.7175    0.3662    0.0000 C   0  0  0  0  0  0  0  0  0  0  0  0
   -0.0883    1.6314    0.0000 C   0  0  0  0  0  0  0  0  0  0  0  0
   -1.5869    1.5660    0.0000 C   0  0  0  0  0  0  0  0  0  0  0  0
   -2.2796    0.2356    0.0000 C   0  0  0  0  0  0  0  0  0  0  0  0
   -3.2133    1.4095    0.0000 C   0  0  0  0  0  0  0  0  0  0  0  0
  2  1  1  6
  2  3  1  0
  2  4  1  0
  4  5  1  6
  5  6  1  0
  7  6  1  6
  7  8  1  0
  8  9  1  1
  9 10  1  1
  9 11  1  0
 12 11  1  1
 12 13  1  0
 13 14  1  0
 14 15  2  0
 14 16  1  0
 16 17  1  0
 17 18  1  0
 18 19  1  6
 18 20  1  0
 20 21  1  6
 21 22  1  0
 22 23  1  0
 23 24  1  6
 23  4  1  0
 23  7  1  0
 20  8  1  0
 18 12  1  0
M  END
>  <MS_ID>  (3028) 
MS3142

>  <SMILES>  (3028) 
C[C@H](O)[C@H]1CC[C@H]2[C@@H]3[C@H](O)C[C@@H]4CC(=O)CC[C@]4(C)[C@H]3CC[C@]12C

>  <Structure_dimension>  (3028) 
2D

$$$$
MS3144
     RDKit          2D

 30 33  0  0  0  0  0  0  0  0999 V2000
   -4.6389    2.7103    0.0000 C   0  0  0  0  0  0  0  0  0  0  0  0
   -3.4344    1.8163    0.0000 S   0  0  0  0  0  0  0  0  0  0  0  0
   -3.6064    0.3262    0.0000 C   0  0  0  0  0  0  0  0  0  0  0  0
   -4.9829   -0.2699    0.0000 C   0  0  0  0  0  0  0  0  0  0  0  0
   -6.1874    0.6241    0.0000 C   0  0  0  0  0  0  0  0  0  0  0  0
   -7.5638    0.0280    0.0000 C   0  0  0  0  0  0  0  0  0  0  0  0
   -7.7359   -1.4621    0.0000 O   0  0  0  0  0  0  0  0  0  0  0  0
   -8.7683    0.9220    0.0000 O   0  0  0  0  0  0  0  0  0  0  0  0
   -2.4020   -0.5679    0.0000 C   0  0  0  0  0  0  0  0  0  0  0  0
   -2.4173   -2.0678    0.0000 C   0  0  0  0  0  0  0  0  0  0  0  0
   -0.9955   -2.5459    0.0000 C   0  0  0  0  0  0  0  0  0  0  0  0
   -0.1015   -1.3414    0.0000 C   0  0  0  0  0  0  0  0  0  0  0  0
    1.3918   -1.1998    0.0000 C   0  0  0  0  0  0  0  0  0  0  0  0
    2.2611   -2.4223    0.0000 C   0  0  0  0  0  0  0  0  0  0  0  0
    1.6370   -3.7863    0.0000 O   0  0  0  0  0  0  0  0  0  0  0  0
    3.7544   -2.2808    0.0000 C   0  0  0  0  0  0  0  0  0  0  0  0
    4.3784   -0.9167    0.0000 C   0  0  0  0  0  0  0  0  0  0  0  0
    5.8717   -0.7752    0.0000 C   0  0  0  0  0  0  0  0  0  0  0  0
    6.4958    0.5888    0.0000 C   0  0  0  0  0  0  0  0  0  0  0  0
    7.9891    0.7304    0.0000 O   0  0  0  0  0  0  0  0  0  0  0  0
    5.6266    1.8113    0.0000 C   0  0  0  0  0  0  0  0  0  0  0  0
    4.1333    1.6697    0.0000 C   0  0  0  0  0  0  0  0  0  0  0  0
    3.5092    0.3057    0.0000 C   0  0  0  0  0  0  0  0  0  0  0  0
    2.6399    1.5282    0.0000 C   0  0  0  0  0  0  0  0  0  0  0  0
    3.2640    2.8922    0.0000 O   0  0  0  0  0  0  0  0  0  0  0  0
    2.0159    0.1642    0.0000 C   0  0  0  0  0  0  0  0  0  0  0  0
    1.1466    1.3866    0.0000 C   0  0  0  0  0  0  0  0  0  0  0  0
   -0.3467    1.2451    0.0000 C   0  0  0  0  0  0  0  0  0  0  0  0
   -0.9707   -0.1189    0.0000 C   0  0  0  0  0  0  0  0  0  0  0  0
   -1.9630    1.0060    0.0000 C   0  0  0  0  0  0  0  0  0  0  0  0
  1  2  1  0
  2  3  1  0
  3  4  1  1
  4  5  1  0
  5  6  1  0
  6  7  2  0
  6  8  1  0
  3  9  1  0
  9 10  1  6
 10 11  1  0
 12 11  1  6
 12 13  1  0
 13 14  1  1
 14 15  1  6
 14 16  1  0
 17 16  1  1
 17 18  1  0
 18 19  1  0
 19 20  1  1
 19 21  1  0
 21 22  1  0
 22 23  1  0
 23 24  1  6
 24 25  1  0
 23 26  1  0
 26 27  1  6
 27 28  1  0
 28 29  1  0
 29 30  1  6
 29  9  1  0
 29 12  1  0
 26 13  1  0
 23 17  1  0
M  END
>  <MS_ID>  (3029) 
MS3144

>  <SMILES>  (3029) 
CS[C@H](CCC(=O)O)[C@H]1CC[C@H]2[C@@H]3[C@@H](O)C[C@@H]4C[C@H](O)CC[C@]4(CO)[C@H]3CC[C@]12C

>  <Structure_dimension>  (3029) 
2D

$$$$
MS3145
     RDKit          2D

 33 36  0  0  0  0  0  0  0  0999 V2000
   -7.1717    2.7930    0.0000 C   0  0  0  0  0  0  0  0  0  0  0  0
   -6.7067    1.3669    0.0000 C   0  0  0  0  0  0  0  0  0  0  0  0
   -7.7092    0.2511    0.0000 C   0  0  0  0  0  0  0  0  0  0  0  0
   -5.2391    1.0566    0.0000 C   0  0  0  0  0  0  0  0  0  0  0  0
   -4.7741   -0.3695    0.0000 C   0  0  0  0  0  0  0  0  0  0  0  0
   -3.3065   -0.6798    0.0000 C   0  0  0  0  0  0  0  0  0  0  0  0
   -2.8415   -2.1059    0.0000 C   0  0  0  0  0  0  0  0  0  0  0  0
   -3.8440   -3.2217    0.0000 C   0  0  0  0  0  0  0  0  0  0  0  0
   -1.3740   -2.4163    0.0000 C   0  0  0  0  0  0  0  0  0  0  0  0
   -0.7624   -3.7859    0.0000 C   0  0  0  0  0  0  0  0  0  0  0  0
    0.7292   -3.6276    0.0000 C   0  0  0  0  0  0  0  0  0  0  0  0
    1.0395   -2.1600    0.0000 C   0  0  0  0  0  0  0  0  0  0  0  0
    2.3378   -1.4087    0.0000 C   0  0  0  0  0  0  0  0  0  0  0  0
    3.6376   -2.1573    0.0000 C   0  0  0  0  0  0  0  0  0  0  0  0
    3.6392   -3.6573    0.0000 O   0  0  0  0  0  0  0  0  0  0  0  0
    4.9358   -1.4059    0.0000 C   0  0  0  0  0  0  0  0  0  0  0  0
    4.9343    0.0941    0.0000 C   0  0  0  0  0  0  0  0  0  0  0  0
    6.2325    0.8454    0.0000 C   0  0  0  0  0  0  0  0  0  0  0  0
    6.2309    2.3454    0.0000 C   0  0  0  0  0  0  0  0  0  0  0  0
    7.5292    3.0968    0.0000 O   0  0  0  0  0  0  0  0  0  0  0  0
    4.9311    3.0941    0.0000 C   0  0  0  0  0  0  0  0  0  0  0  0
    3.6329    2.3427    0.0000 C   0  0  0  0  0  0  0  0  0  0  0  0
    3.6344    0.8427    0.0000 C   0  0  0  0  0  0  0  0  0  0  0  0
    2.3346    1.5913    0.0000 C   0  0  0  0  0  0  0  0  0  0  0  0
    2.3362    0.0913    0.0000 C   0  0  0  0  0  0  0  0  0  0  0  0
    1.0364    0.8400    0.0000 C   0  0  0  0  0  0  0  0  0  0  0  0
   -0.2619    0.0886    0.0000 C   0  0  0  0  0  0  0  0  0  0  0  0
   -1.5617    0.8372    0.0000 O   0  0  0  0  0  0  0  0  0  0  0  0
   -0.2603   -1.4114    0.0000 C   0  0  0  0  0  0  0  0  0  0  0  0
   -1.6313   -0.8027    0.0000 C   0  0  0  0  0  0  0  0  0  0  0  0
   -4.2366    2.1723    0.0000 C   0  0  0  0  0  0  0  0  0  0  0  0
   -2.7690    1.8620    0.0000 O   0  0  0  0  0  0  0  0  0  0  0  0
   -4.7016    3.5984    0.0000 O   0  0  0  0  0  0  0  0  0  0  0  0
  1  2  1  0
  2  3  1  0
  4  2  1  6
  4  5  1  0
  5  6  2  0
  6  7  1  0
  7  8  1  6
  7  9  1  0
  9 10  1  6
 10 11  1  0
 12 11  1  6
 12 13  1  0
 13 14  1  1
 14 15  1  1
 14 16  1  0
 17 16  1  1
 17 18  1  0
 18 19  1  0
 19 20  1  1
 19 21  1  0
 21 22  1  0
 22 23  1  0
 23 24  1  6
 23 25  1  0
 25 26  1  6
 26 27  1  0
 27 28  1  1
 27 29  1  0
 29 30  1  6
  4 31  1  0
 31 32  2  0
 31 33  1  0
 29  9  1  0
 29 12  1  0
 25 13  1  0
 23 17  1  0
M  END
>  <MS_ID>  (3030) 
MS3145

>  <SMILES>  (3030) 
CC(C)[C@@H](/C=C/[C@@H](C)[C@H]1CC[C@H]2[C@@H]3[C@H](O)C[C@@H]4C[C@H](O)CC[C@]4(C)[C@H]3C[C@H](O)[C@]12C)C(=O)O

>  <Structure_dimension>  (3030) 
2D

$$$$
MS3146
     RDKit          2D

 35 38  0  0  0  0  0  0  0  0999 V2000
  -10.4788    1.8979    0.0000 C   0  0  0  0  0  0  0  0  0  0  0  0
   -8.9794    1.9406    0.0000 C   0  0  0  0  0  0  0  0  0  0  0  0
   -8.1928    0.6634    0.0000 C   0  0  0  0  0  0  0  0  0  0  0  0
   -6.6934    0.7061    0.0000 C   0  0  0  0  0  0  0  0  0  0  0  0
   -5.9067   -0.5711    0.0000 N   0  0  0  0  0  0  0  0  0  0  0  0
   -4.4073   -0.5284    0.0000 C   0  0  0  0  0  0  0  0  0  0  0  0
   -3.6946    0.7914    0.0000 O   0  0  0  0  0  0  0  0  0  0  0  0
   -3.6207   -1.8056    0.0000 C   0  0  0  0  0  0  0  0  0  0  0  0
   -2.1213   -1.7629    0.0000 C   0  0  0  0  0  0  0  0  0  0  0  0
   -1.3346   -3.0401    0.0000 C   0  0  0  0  0  0  0  0  0  0  0  0
   -2.0474   -4.3600    0.0000 C   0  0  0  0  0  0  0  0  0  0  0  0
    0.1647   -2.9974    0.0000 C   0  0  0  0  0  0  0  0  0  0  0  0
    1.0806   -4.1854    0.0000 C   0  0  0  0  0  0  0  0  0  0  0  0
    2.4934   -3.6815    0.0000 C   0  0  0  0  0  0  0  0  0  0  0  0
    2.4507   -2.1821    0.0000 C   0  0  0  0  0  0  0  0  0  0  0  0
    3.5365   -1.1471    0.0000 C   0  0  0  0  0  0  0  0  0  0  0  0
    4.9756   -1.5698    0.0000 C   0  0  0  0  0  0  0  0  0  0  0  0
    5.3291   -3.0276    0.0000 O   0  0  0  0  0  0  0  0  0  0  0  0
    6.0614   -0.5348    0.0000 C   0  0  0  0  0  0  0  0  0  0  0  0
    5.7079    0.9229    0.0000 C   0  0  0  0  0  0  0  0  0  0  0  0
    6.7936    1.9579    0.0000 C   0  0  0  0  0  0  0  0  0  0  0  0
    6.4401    3.4157    0.0000 C   0  0  0  0  0  0  0  0  0  0  0  0
    7.5258    4.4507    0.0000 O   0  0  0  0  0  0  0  0  0  0  0  0
    5.0009    3.8384    0.0000 C   0  0  0  0  0  0  0  0  0  0  0  0
    3.9152    2.8034    0.0000 C   0  0  0  0  0  0  0  0  0  0  0  0
    4.2687    1.3457    0.0000 C   0  0  0  0  0  0  0  0  0  0  0  0
    2.8295    1.7684    0.0000 C   0  0  0  0  0  0  0  0  0  0  0  0
    3.1830    0.3107    0.0000 C   0  0  0  0  0  0  0  0  0  0  0  0
    1.7438    0.7334    0.0000 C   0  0  0  0  0  0  0  0  0  0  0  0
    0.6581   -0.3016    0.0000 C   0  0  0  0  0  0  0  0  0  0  0  0
    1.0115   -1.7593    0.0000 C   0  0  0  0  0  0  0  0  0  0  0  0
   -0.4640   -1.4893    0.0000 C   0  0  0  0  0  0  0  0  0  0  0  0
   -5.9806    2.0259    0.0000 C   0  0  0  0  0  0  0  0  0  0  0  0
   -4.4812    2.0686    0.0000 O   0  0  0  0  0  0  0  0  0  0  0  0
   -6.7673    3.3031    0.0000 O   0  0  0  0  0  0  0  0  0  0  0  0
  1  2  1  0
  2  3  1  0
  4  3  1  6
  4  5  1  0
  5  6  1  0
  6  7  2  0
  6  8  1  0
  8  9  1  0
  9 10  1  0
 10 11  1  6
 10 12  1  0
 12 13  1  6
 13 14  1  0
 15 14  1  6
 15 16  1  0
 16 17  1  1
 17 18  1  1
 17 19  1  0
 20 19  1  1
 20 21  1  0
 21 22  1  0
 22 23  1  1
 22 24  1  0
 24 25  1  0
 25 26  1  0
 26 27  1  6
 26 28  1  0
 28 29  1  6
 29 30  1  0
 30 31  1  0
 31 32  1  6
  4 33  1  0
 33 34  2  0
 33 35  1  0
 31 12  1  0
 31 15  1  0
 28 16  1  0
 26 20  1  0
M  END
>  <MS_ID>  (3031) 
MS3146

>  <SMILES>  (3031) 
CCC[C@@H](NC(=O)CC[C@@H](C)[C@H]1CC[C@H]2[C@@H]3[C@H](O)C[C@@H]4C[C@H](O)CC[C@]4(C)[C@H]3CC[C@]12C)C(=O)O

>  <Structure_dimension>  (3031) 
2D

$$$$
MS3147
     RDKit          2D

 29 32  0  0  0  0  0  0  0  0999 V2000
   -5.0926   -2.2535    0.0000 C   0  0  0  0  0  0  0  0  0  0  0  0
   -3.9364   -1.2979    0.0000 C   0  0  0  0  0  0  0  0  0  0  0  0
   -4.1859    0.1812    0.0000 C   0  0  0  0  0  0  0  0  0  0  0  0
   -5.5916    0.7047    0.0000 C   0  0  0  0  0  0  0  0  0  0  0  0
   -5.8411    2.1838    0.0000 C   0  0  0  0  0  0  0  0  0  0  0  0
   -4.6849    3.1394    0.0000 O   0  0  0  0  0  0  0  0  0  0  0  0
   -7.2468    2.7072    0.0000 O   0  0  0  0  0  0  0  0  0  0  0  0
   -2.5307   -1.8214    0.0000 C   0  0  0  0  0  0  0  0  0  0  0  0
   -2.1279   -3.2663    0.0000 C   0  0  0  0  0  0  0  0  0  0  0  0
   -0.6293   -3.3297    0.0000 C   0  0  0  0  0  0  0  0  0  0  0  0
   -0.1058   -1.9240    0.0000 C   0  0  0  0  0  0  0  0  0  0  0  0
    1.2891   -1.3724    0.0000 C   0  0  0  0  0  0  0  0  0  0  0  0
    2.4642   -2.3047    0.0000 C   0  0  0  0  0  0  0  0  0  0  0  0
    3.8591   -1.7531    0.0000 C   0  0  0  0  0  0  0  0  0  0  0  0
    5.0343   -2.6853    0.0000 O   0  0  0  0  0  0  0  0  0  0  0  0
    4.0789   -0.2693    0.0000 C   0  0  0  0  0  0  0  0  0  0  0  0
    5.4738    0.2823    0.0000 C   0  0  0  0  0  0  0  0  0  0  0  0
    5.6936    1.7661    0.0000 C   0  0  0  0  0  0  0  0  0  0  0  0
    7.0885    2.3177    0.0000 O   0  0  0  0  0  0  0  0  0  0  0  0
    4.5184    2.6984    0.0000 C   0  0  0  0  0  0  0  0  0  0  0  0
    3.1235    2.1468    0.0000 C   0  0  0  0  0  0  0  0  0  0  0  0
    2.9038    0.6630    0.0000 C   0  0  0  0  0  0  0  0  0  0  0  0
    1.7286    1.5952    0.0000 C   0  0  0  0  0  0  0  0  0  0  0  0
    1.5089    0.1114    0.0000 C   0  0  0  0  0  0  0  0  0  0  0  0
    0.3337    1.0436    0.0000 C   0  0  0  0  0  0  0  0  0  0  0  0
   -1.0612    0.4920    0.0000 C   0  0  0  0  0  0  0  0  0  0  0  0
   -2.2363    1.4242    0.0000 O   0  0  0  0  0  0  0  0  0  0  0  0
   -1.2809   -0.9918    0.0000 C   0  0  0  0  0  0  0  0  0  0  0  0
   -2.5471   -0.1875    0.0000 C   0  0  0  0  0  0  0  0  0  0  0  0
  2  1  1  6
  2  3  1  0
  3  4  1  0
  4  5  1  0
  5  6  2  0
  5  7  1  0
  2  8  1  0
  8  9  1  6
  9 10  1  0
 11 10  1  6
 11 12  1  0
 12 13  1  1
 13 14  1  0
 14 15  1  1
 14 16  1  0
 16 17  1  1
 17 18  1  0
 18 19  1  1
 18 20  1  0
 20 21  1  0
 21 22  1  0
 22 23  1  6
 22 24  1  0
 24 25  1  6
 25 26  1  0
 26 27  1  6
 26 28  1  0
 28 29  1  6
 28  8  1  0
 28 11  1  0
 24 12  1  0
 22 16  1  0
M  END
>  <MS_ID>  (3032) 
MS3147

>  <SMILES>  (3032) 
C[C@H](CCC(=O)O)[C@H]1CC[C@H]2[C@@H]3C[C@H](O)[C@@H]4C[C@H](O)CC[C@]4(C)[C@H]3C[C@@H](O)[C@]12C

>  <Structure_dimension>  (3032) 
2D

$$$$
MS3148
     RDKit          2D

 29 32  0  0  0  0  0  0  0  0999 V2000
   -5.0303   -2.1373    0.0000 C   0  0  0  0  0  0  0  0  0  0  0  0
   -3.8594   -1.1998    0.0000 C   0  0  0  0  0  0  0  0  0  0  0  0
   -4.0858    0.2830    0.0000 C   0  0  0  0  0  0  0  0  0  0  0  0
   -5.4831    0.8284    0.0000 C   0  0  0  0  0  0  0  0  0  0  0  0
   -5.7095    2.3112    0.0000 C   0  0  0  0  0  0  0  0  0  0  0  0
   -4.5386    3.2487    0.0000 O   0  0  0  0  0  0  0  0  0  0  0  0
   -7.1069    2.8565    0.0000 O   0  0  0  0  0  0  0  0  0  0  0  0
   -2.4620   -1.7451    0.0000 C   0  0  0  0  0  0  0  0  0  0  0  0
   -2.0818   -3.1961    0.0000 C   0  0  0  0  0  0  0  0  0  0  0  0
   -0.5844   -3.2830    0.0000 C   0  0  0  0  0  0  0  0  0  0  0  0
   -0.0390   -1.8856    0.0000 C   0  0  0  0  0  0  0  0  0  0  0  0
    1.3643   -1.3559    0.0000 C   0  0  0  0  0  0  0  0  0  0  0  0
    2.5248   -2.3063    0.0000 C   0  0  0  0  0  0  0  0  0  0  0  0
    2.2819   -3.7865    0.0000 O   0  0  0  0  0  0  0  0  0  0  0  0
    3.9281   -1.7765    0.0000 C   0  0  0  0  0  0  0  0  0  0  0  0
    4.1710   -0.2963    0.0000 C   0  0  0  0  0  0  0  0  0  0  0  0
    5.5743    0.2334    0.0000 C   0  0  0  0  0  0  0  0  0  0  0  0
    5.8172    1.7136    0.0000 C   0  0  0  0  0  0  0  0  0  0  0  0
    7.2205    2.2434    0.0000 O   0  0  0  0  0  0  0  0  0  0  0  0
    4.6568    2.6641    0.0000 C   0  0  0  0  0  0  0  0  0  0  0  0
    3.2534    2.1343    0.0000 C   0  0  0  0  0  0  0  0  0  0  0  0
    3.0105    0.6541    0.0000 C   0  0  0  0  0  0  0  0  0  0  0  0
    1.8501    1.6046    0.0000 C   0  0  0  0  0  0  0  0  0  0  0  0
    1.6072    0.1244    0.0000 C   0  0  0  0  0  0  0  0  0  0  0  0
    0.4467    1.0748    0.0000 N   0  0  0  0  0  0  0  0  0  0  0  0
   -0.9566    0.5450    0.0000 C   0  0  0  0  0  0  0  0  0  0  0  0
   -2.1170    1.4955    0.0000 O   0  0  0  0  0  0  0  0  0  0  0  0
   -1.1995   -0.9352    0.0000 C   0  0  0  0  0  0  0  0  0  0  0  0
   -2.4529   -0.1112    0.0000 C   0  0  0  0  0  0  0  0  0  0  0  0
  2  1  1  6
  2  3  1  0
  3  4  1  0
  4  5  1  0
  5  6  2  0
  5  7  1  0
  2  8  1  0
  8  9  1  6
  9 10  1  0
 11 10  1  6
 11 12  1  0
 12 13  1  1
 13 14  1  6
 13 15  1  0
 16 15  1  1
 16 17  1  0
 17 18  1  0
 18 19  1  1
 18 20  1  0
 20 21  1  0
 21 22  1  0
 22 23  1  6
 22 24  1  0
 24 25  1  6
 25 26  1  0
 26 27  2  0
 26 28  1  0
 28 29  1  6
 28  8  1  0
 28 11  1  0
 24 12  1  0
 22 16  1  0
M  END
>  <MS_ID>  (3033) 
MS3148

>  <SMILES>  (3033) 
C[C@H](CCC(=O)O)[C@H]1CC[C@H]2[C@@H]3[C@@H](O)C[C@@H]4C[C@H](O)CC[C@]4(C)[C@H]3NC(=O)[C@]12C

>  <Structure_dimension>  (3033) 
2D

$$$$
MS3149
     RDKit          2D

 25 28  0  0  0  0  0  0  0  0999 V2000
    1.6660   -1.4144    0.0000 C   0  0  0  0  0  0  0  0  0  0  0  0
    2.4931   -0.1630    0.0000 C   0  0  0  0  0  0  0  0  0  0  0  0
    3.1633   -1.5050    0.0000 C   0  0  0  0  0  0  0  0  0  0  0  0
    4.6605   -1.5956    0.0000 C   0  0  0  0  0  0  0  0  0  0  0  0
    5.4876   -0.3443    0.0000 C   0  0  0  0  0  0  0  0  0  0  0  0
    6.9849   -0.4349    0.0000 O   0  0  0  0  0  0  0  0  0  0  0  0
    4.8175    0.9977    0.0000 C   0  0  0  0  0  0  0  0  0  0  0  0
    3.3202    1.0883    0.0000 C   0  0  0  0  0  0  0  0  0  0  0  0
    2.6501    2.4303    0.0000 C   0  0  0  0  0  0  0  0  0  0  0  0
    1.1528    2.5209    0.0000 C   0  0  0  0  0  0  0  0  0  0  0  0
    0.3257    1.2695    0.0000 C   0  0  0  0  0  0  0  0  0  0  0  0
    0.9959   -0.0724    0.0000 C   0  0  0  0  0  0  0  0  0  0  0  0
    0.1688   -1.3238    0.0000 C   0  0  0  0  0  0  0  0  0  0  0  0
    0.8389   -2.6658    0.0000 O   0  0  0  0  0  0  0  0  0  0  0  0
   -1.3285   -1.2332    0.0000 C   0  0  0  0  0  0  0  0  0  0  0  0
   -1.9987    0.1088    0.0000 C   0  0  0  0  0  0  0  0  0  0  0  0
   -2.9520   -1.0493    0.0000 C   0  0  0  0  0  0  0  0  0  0  0  0
   -3.4444    0.5087    0.0000 C   0  0  0  0  0  0  0  0  0  0  0  0
   -4.6177   -0.4258    0.0000 C   0  0  0  0  0  0  0  0  0  0  0  0
   -4.3950   -1.9092    0.0000 O   0  0  0  0  0  0  0  0  0  0  0  0
   -6.0137    0.1231    0.0000 C   0  0  0  0  0  0  0  0  0  0  0  0
   -7.1870   -0.8115    0.0000 O   0  0  0  0  0  0  0  0  0  0  0  0
   -3.5108    2.0073    0.0000 C   0  0  0  0  0  0  0  0  0  0  0  0
   -2.1061    2.5335    0.0000 C   0  0  0  0  0  0  0  0  0  0  0  0
   -1.1716    1.3601    0.0000 C   0  0  0  0  0  0  0  0  0  0  0  0
  2  1  1  1
  2  3  1  0
  3  4  1  0
  4  5  1  0
  5  6  1  1
  5  7  1  0
  8  7  1  6
  8  9  1  0
  9 10  1  0
 11 10  1  6
 11 12  1  0
 12 13  1  1
 13 14  1  1
 13 15  1  0
 15 16  1  0
 16 17  1  1
 16 18  1  0
 18 19  1  1
 19 20  2  0
 19 21  1  0
 21 22  1  0
 18 23  1  0
 23 24  1  0
 25 24  1  1
  8  2  1  0
 25 11  1  0
 12  2  1  0
 25 16  1  0
M  END
>  <MS_ID>  (3034) 
MS3149

>  <SMILES>  (3034) 
C[C@]12CC[C@H](O)C[C@H]1CC[C@@H]1[C@@H]2[C@@H](O)C[C@]2(C)[C@@H](C(=O)CO)CC[C@@H]12

>  <Structure_dimension>  (3034) 
2D

$$$$
MS3150
     RDKit          2D

 24 27  0  0  0  0  0  0  0  0999 V2000
   -6.2943    0.2891    0.0000 C   0  0  0  0  0  0  0  0  0  0  0  0
   -4.8892    0.8143    0.0000 C   0  0  0  0  0  0  0  0  0  0  0  0
   -4.6416    2.2937    0.0000 O   0  0  0  0  0  0  0  0  0  0  0  0
   -3.7319   -0.1399    0.0000 C   0  0  0  0  0  0  0  0  0  0  0  0
   -3.8235   -1.6371    0.0000 C   0  0  0  0  0  0  0  0  0  0  0  0
   -2.4280   -2.1870    0.0000 C   0  0  0  0  0  0  0  0  0  0  0  0
   -1.4738   -1.0296    0.0000 C   0  0  0  0  0  0  0  0  0  0  0  0
    0.0248   -0.9643    0.0000 C   0  0  0  0  0  0  0  0  0  0  0  0
    0.8307   -2.2294    0.0000 C   0  0  0  0  0  0  0  0  0  0  0  0
    0.1380   -3.5599    0.0000 O   0  0  0  0  0  0  0  0  0  0  0  0
    2.3293   -2.1641    0.0000 C   0  0  0  0  0  0  0  0  0  0  0  0
    3.0220   -0.8336    0.0000 C   0  0  0  0  0  0  0  0  0  0  0  0
    4.5205   -0.7683    0.0000 C   0  0  0  0  0  0  0  0  0  0  0  0
    5.2133    0.5622    0.0000 C   0  0  0  0  0  0  0  0  0  0  0  0
    6.7118    0.6275    0.0000 O   0  0  0  0  0  0  0  0  0  0  0  0
    4.4074    1.8273    0.0000 C   0  0  0  0  0  0  0  0  0  0  0  0
    2.9088    1.7620    0.0000 C   0  0  0  0  0  0  0  0  0  0  0  0
    2.2161    0.4315    0.0000 C   0  0  0  0  0  0  0  0  0  0  0  0
    1.4102    1.6967    0.0000 C   0  0  0  0  0  0  0  0  0  0  0  0
    0.7175    0.3662    0.0000 C   0  0  0  0  0  0  0  0  0  0  0  0
   -0.0883    1.6314    0.0000 C   0  0  0  0  0  0  0  0  0  0  0  0
   -1.5869    1.5660    0.0000 C   0  0  0  0  0  0  0  0  0  0  0  0
   -2.2796    0.2356    0.0000 C   0  0  0  0  0  0  0  0  0  0  0  0
   -3.2133    1.4095    0.0000 C   0  0  0  0  0  0  0  0  0  0  0  0
  2  1  1  6
  2  3  1  0
  2  4  1  0
  4  5  1  6
  5  6  1  0
  7  6  1  6
  7  8  1  0
  8  9  1  1
  9 10  1  6
  9 11  1  0
 12 11  1  1
 12 13  1  0
 13 14  1  0
 14 15  1  1
 14 16  1  0
 16 17  1  0
 17 18  1  0
 18 19  1  6
 18 20  1  0
 20 21  1  6
 21 22  1  0
 22 23  1  0
 23 24  1  6
 23  4  1  0
 23  7  1  0
 20  8  1  0
 18 12  1  0
M  END
>  <MS_ID>  (3035) 
MS3150

>  <SMILES>  (3035) 
C[C@H](O)[C@H]1CC[C@H]2[C@@H]3[C@@H](O)C[C@@H]4C[C@H](O)CC[C@]4(C)[C@H]3CC[C@]12C

>  <Structure_dimension>  (3035) 
2D

$$$$
MS3151
     RDKit          2D

 32 35  0  0  0  0  0  0  0  0999 V2000
   -4.7287    4.1003    0.0000 C   0  0  0  0  0  0  0  0  0  0  0  0
   -4.3803    2.6414    0.0000 C   0  0  0  0  0  0  0  0  0  0  0  0
   -2.9425    2.2137    0.0000 C   0  0  0  0  0  0  0  0  0  0  0  0
   -5.4695    1.6101    0.0000 C   0  0  0  0  0  0  0  0  0  0  0  0
   -6.9073    2.0378    0.0000 C   0  0  0  0  0  0  0  0  0  0  0  0
   -5.1210    0.1512    0.0000 C   0  0  0  0  0  0  0  0  0  0  0  0
   -6.2103   -0.8801    0.0000 O   0  0  0  0  0  0  0  0  0  0  0  0
   -3.6833   -0.2765    0.0000 C   0  0  0  0  0  0  0  0  0  0  0  0
   -2.5940    0.7547    0.0000 O   0  0  0  0  0  0  0  0  0  0  0  0
   -3.3348   -1.7355    0.0000 C   0  0  0  0  0  0  0  0  0  0  0  0
   -4.4241   -2.7668    0.0000 C   0  0  0  0  0  0  0  0  0  0  0  0
   -1.8971   -2.1632    0.0000 C   0  0  0  0  0  0  0  0  0  0  0  0
   -1.3980   -3.5777    0.0000 C   0  0  0  0  0  0  0  0  0  0  0  0
    0.1015   -3.5402    0.0000 C   0  0  0  0  0  0  0  0  0  0  0  0
    0.5292   -2.1024    0.0000 C   0  0  0  0  0  0  0  0  0  0  0  0
    1.8838   -1.4582    0.0000 C   0  0  0  0  0  0  0  0  0  0  0  0
    3.1190   -2.3093    0.0000 C   0  0  0  0  0  0  0  0  0  0  0  0
    4.4737   -1.6651    0.0000 C   0  0  0  0  0  0  0  0  0  0  0  0
    5.7089   -2.5161    0.0000 O   0  0  0  0  0  0  0  0  0  0  0  0
    4.5931   -0.1698    0.0000 C   0  0  0  0  0  0  0  0  0  0  0  0
    5.9477    0.4744    0.0000 C   0  0  0  0  0  0  0  0  0  0  0  0
    6.0671    1.9696    0.0000 C   0  0  0  0  0  0  0  0  0  0  0  0
    7.4217    2.6138    0.0000 O   0  0  0  0  0  0  0  0  0  0  0  0
    4.8319    2.8206    0.0000 C   0  0  0  0  0  0  0  0  0  0  0  0
    3.4773    2.1764    0.0000 C   0  0  0  0  0  0  0  0  0  0  0  0
    3.3579    0.6812    0.0000 C   0  0  0  0  0  0  0  0  0  0  0  0
    2.1227    1.5322    0.0000 C   0  0  0  0  0  0  0  0  0  0  0  0
    2.0033    0.0370    0.0000 C   0  0  0  0  0  0  0  0  0  0  0  0
    0.7680    0.8880    0.0000 C   0  0  0  0  0  0  0  0  0  0  0  0
   -0.5866    0.2438    0.0000 C   0  0  0  0  0  0  0  0  0  0  0  0
   -0.7060   -1.2514    0.0000 C   0  0  0  0  0  0  0  0  0  0  0  0
   -2.0234   -0.5341    0.0000 C   0  0  0  0  0  0  0  0  0  0  0  0
  1  2  1  0
  2  3  1  0
  2  4  1  0
  4  5  1  1
  4  6  1  0
  6  7  1  6
  6  8  1  0
  8  9  1  6
  8 10  1  0
 10 11  1  6
 10 12  1  0
 12 13  1  6
 13 14  1  0
 15 14  1  6
 15 16  1  0
 16 17  1  1
 17 18  1  0
 18 19  2  0
 18 20  1  0
 20 21  1  6
 21 22  1  0
 22 23  2  0
 22 24  1  0
 24 25  1  0
 25 26  1  0
 26 27  1  6
 26 28  1  0
 28 29  1  6
 29 30  1  0
 30 31  1  0
 31 32  1  6
 31 12  1  0
 31 15  1  0
 28 16  1  0
 26 20  1  0
M  END
>  <MS_ID>  (3036) 
MS3151

>  <SMILES>  (3036) 
CC(C)[C@H](C)[C@@H](O)[C@H](O)[C@@H](C)[C@H]1CC[C@H]2[C@@H]3CC(=O)[C@H]4CC(=O)CC[C@]4(C)[C@H]3CC[C@]12C

>  <Structure_dimension>  (3036) 
2D

$$$$
MS3152
     RDKit          2D

 38 41  0  0  0  0  0  0  0  0999 V2000
   -0.3025   -4.6860    0.0000 C   0  0  0  0  0  0  0  0  0  0  0  0
    0.2478   -3.2906    0.0000 C   0  0  0  0  0  0  0  0  0  0  0  0
   -0.6854   -2.1162    0.0000 C   0  0  0  0  0  0  0  0  0  0  0  0
   -2.1690   -2.3373    0.0000 C   0  0  0  0  0  0  0  0  0  0  0  0
   -3.1023   -1.1630    0.0000 C   0  0  0  0  0  0  0  0  0  0  0  0
   -2.5520    0.2324    0.0000 O   0  0  0  0  0  0  0  0  0  0  0  0
   -4.5859   -1.3841    0.0000 N   0  0  0  0  0  0  0  0  0  0  0  0
   -5.5192   -0.2098    0.0000 C   0  0  0  0  0  0  0  0  0  0  0  0
   -7.0028   -0.4308    0.0000 C   0  0  0  0  0  0  0  0  0  0  0  0
   -7.9361    0.7435    0.0000 C   0  0  0  0  0  0  0  0  0  0  0  0
   -9.4197    0.5224    0.0000 C   0  0  0  0  0  0  0  0  0  0  0  0
  -10.3530    1.6967    0.0000 C   0  0  0  0  0  0  0  0  0  0  0  0
   -9.8026    3.0921    0.0000 N   0  0  0  0  0  0  0  0  0  0  0  0
  -11.8366    1.4756    0.0000 C   0  0  0  0  0  0  0  0  0  0  0  0
  -12.3869    0.0802    0.0000 O   0  0  0  0  0  0  0  0  0  0  0  0
  -12.7698    2.6499    0.0000 O   0  0  0  0  0  0  0  0  0  0  0  0
    1.7315   -3.0695    0.0000 C   0  0  0  0  0  0  0  0  0  0  0  0
    2.7824   -4.1398    0.0000 C   0  0  0  0  0  0  0  0  0  0  0  0
    4.1251   -3.4711    0.0000 C   0  0  0  0  0  0  0  0  0  0  0  0
    3.9040   -1.9875    0.0000 C   0  0  0  0  0  0  0  0  0  0  0  0
    4.8586   -0.8305    0.0000 C   0  0  0  0  0  0  0  0  0  0  0  0
    6.3379   -1.0787    0.0000 C   0  0  0  0  0  0  0  0  0  0  0  0
    6.8626   -2.4839    0.0000 O   0  0  0  0  0  0  0  0  0  0  0  0
    7.2925    0.0784    0.0000 C   0  0  0  0  0  0  0  0  0  0  0  0
    6.7678    1.4836    0.0000 C   0  0  0  0  0  0  0  0  0  0  0  0
    7.7224    2.6406    0.0000 C   0  0  0  0  0  0  0  0  0  0  0  0
    7.1977    4.0459    0.0000 C   0  0  0  0  0  0  0  0  0  0  0  0
    8.1524    5.2029    0.0000 O   0  0  0  0  0  0  0  0  0  0  0  0
    5.7184    4.2941    0.0000 C   0  0  0  0  0  0  0  0  0  0  0  0
    4.7638    3.1370    0.0000 C   0  0  0  0  0  0  0  0  0  0  0  0
    5.2885    1.7318    0.0000 C   0  0  0  0  0  0  0  0  0  0  0  0
    3.8092    1.9800    0.0000 C   0  0  0  0  0  0  0  0  0  0  0  0
    4.3339    0.5748    0.0000 C   0  0  0  0  0  0  0  0  0  0  0  0
    2.8546    0.8230    0.0000 C   0  0  0  0  0  0  0  0  0  0  0  0
    1.9000   -0.3340    0.0000 C   0  0  0  0  0  0  0  0  0  0  0  0
    0.4206   -0.0858    0.0000 O   0  0  0  0  0  0  0  0  0  0  0  0
    2.4247   -1.7393    0.0000 C   0  0  0  0  0  0  0  0  0  0  0  0
    0.9275   -1.6471    0.0000 C   0  0  0  0  0  0  0  0  0  0  0  0
  2  1  1  6
  2  3  1  0
  3  4  1  0
  4  5  1  0
  5  6  2  0
  5  7  1  0
  7  8  1  0
  8  9  1  0
  9 10  1  0
 10 11  1  0
 11 12  1  0
 12 13  1  1
 12 14  1  0
 14 15  2  0
 14 16  1  0
  2 17  1  0
 17 18  1  6
 18 19  1  0
 20 19  1  6
 20 21  1  0
 21 22  1  1
 22 23  1  1
 22 24  1  0
 25 24  1  1
 25 26  1  0
 26 27  1  0
 27 28  1  1
 27 29  1  0
 29 30  1  0
 30 31  1  0
 31 32  1  6
 31 33  1  0
 33 34  1  6
 34 35  1  0
 35 36  1  1
 35 37  1  0
 37 38  1  6
 37 17  1  0
 37 20  1  0
 33 21  1  0
 31 25  1  0
M  END
>  <MS_ID>  (3037) 
MS3152

>  <SMILES>  (3037) 
C[C@H](CCC(=O)NCCCC[C@H](N)C(=O)O)[C@H]1CC[C@H]2[C@@H]3[C@H](O)C[C@@H]4C[C@H](O)CC[C@]4(C)[C@H]3C[C@H](O)[C@]12C

>  <Structure_dimension>  (3037) 
2D

$$$$
MS3153
     RDKit          2D

 32 35  0  0  0  0  0  0  0  0999 V2000
   -4.7287    4.1003    0.0000 C   0  0  0  0  0  0  0  0  0  0  0  0
   -4.3803    2.6414    0.0000 C   0  0  0  0  0  0  0  0  0  0  0  0
   -2.9425    2.2137    0.0000 C   0  0  0  0  0  0  0  0  0  0  0  0
   -5.4695    1.6101    0.0000 C   0  0  0  0  0  0  0  0  0  0  0  0
   -6.9073    2.0378    0.0000 C   0  0  0  0  0  0  0  0  0  0  0  0
   -5.1210    0.1512    0.0000 C   0  0  0  0  0  0  0  0  0  0  0  0
   -6.2103   -0.8801    0.0000 O   0  0  0  0  0  0  0  0  0  0  0  0
   -3.6833   -0.2765    0.0000 C   0  0  0  0  0  0  0  0  0  0  0  0
   -2.5940    0.7547    0.0000 O   0  0  0  0  0  0  0  0  0  0  0  0
   -3.3348   -1.7355    0.0000 C   0  0  0  0  0  0  0  0  0  0  0  0
   -4.4241   -2.7668    0.0000 C   0  0  0  0  0  0  0  0  0  0  0  0
   -1.8971   -2.1632    0.0000 C   0  0  0  0  0  0  0  0  0  0  0  0
   -1.3980   -3.5777    0.0000 C   0  0  0  0  0  0  0  0  0  0  0  0
    0.1015   -3.5402    0.0000 C   0  0  0  0  0  0  0  0  0  0  0  0
    0.5292   -2.1024    0.0000 C   0  0  0  0  0  0  0  0  0  0  0  0
    1.8838   -1.4582    0.0000 C   0  0  0  0  0  0  0  0  0  0  0  0
    3.1190   -2.3093    0.0000 C   0  0  0  0  0  0  0  0  0  0  0  0
    4.4737   -1.6651    0.0000 C   0  0  0  0  0  0  0  0  0  0  0  0
    5.7089   -2.5161    0.0000 O   0  0  0  0  0  0  0  0  0  0  0  0
    4.5931   -0.1698    0.0000 C   0  0  0  0  0  0  0  0  0  0  0  0
    5.9477    0.4744    0.0000 C   0  0  0  0  0  0  0  0  0  0  0  0
    6.0671    1.9696    0.0000 C   0  0  0  0  0  0  0  0  0  0  0  0
    7.4217    2.6138    0.0000 O   0  0  0  0  0  0  0  0  0  0  0  0
    4.8319    2.8206    0.0000 C   0  0  0  0  0  0  0  0  0  0  0  0
    3.4773    2.1764    0.0000 C   0  0  0  0  0  0  0  0  0  0  0  0
    3.3579    0.6812    0.0000 C   0  0  0  0  0  0  0  0  0  0  0  0
    2.1227    1.5322    0.0000 C   0  0  0  0  0  0  0  0  0  0  0  0
    2.0033    0.0370    0.0000 C   0  0  0  0  0  0  0  0  0  0  0  0
    0.7680    0.8880    0.0000 C   0  0  0  0  0  0  0  0  0  0  0  0
   -0.5866    0.2438    0.0000 C   0  0  0  0  0  0  0  0  0  0  0  0
   -0.7060   -1.2514    0.0000 C   0  0  0  0  0  0  0  0  0  0  0  0
   -2.0234   -0.5341    0.0000 C   0  0  0  0  0  0  0  0  0  0  0  0
  1  2  1  0
  2  3  1  0
  2  4  1  0
  4  5  1  6
  4  6  1  0
  6  7  1  6
  6  8  1  0
  8  9  1  6
  8 10  1  0
 10 11  1  6
 10 12  1  0
 12 13  1  6
 13 14  1  0
 15 14  1  6
 15 16  1  0
 16 17  1  1
 17 18  1  0
 18 19  2  0
 18 20  1  0
 20 21  1  6
 21 22  1  0
 22 23  1  6
 22 24  1  0
 24 25  1  0
 25 26  1  0
 26 27  1  6
 26 28  1  0
 28 29  1  6
 29 30  1  0
 30 31  1  0
 31 32  1  6
 31 12  1  0
 31 15  1  0
 28 16  1  0
 26 20  1  0
M  END
>  <MS_ID>  (3038) 
MS3153

>  <SMILES>  (3038) 
CC(C)[C@@H](C)[C@@H](O)[C@H](O)[C@@H](C)[C@H]1CC[C@H]2[C@@H]3CC(=O)[C@H]4C[C@@H](O)CC[C@]4(C)[C@H]3CC[C@]12C

>  <Structure_dimension>  (3038) 
2D

$$$$
MS3154
     RDKit          2D

 25 28  0  0  0  0  0  0  0  0999 V2000
    2.0644   -1.5574    0.0000 C   0  0  0  0  0  0  0  0  0  0  0  0
    2.7613   -0.2292    0.0000 C   0  0  0  0  0  0  0  0  0  0  0  0
    3.5632   -1.4969    0.0000 C   0  0  0  0  0  0  0  0  0  0  0  0
    5.0619   -1.4363    0.0000 C   0  0  0  0  0  0  0  0  0  0  0  0
    5.7589   -0.1080    0.0000 C   0  0  0  0  0  0  0  0  0  0  0  0
    7.2577   -0.0475    0.0000 O   0  0  0  0  0  0  0  0  0  0  0  0
    4.9571    1.1597    0.0000 C   0  0  0  0  0  0  0  0  0  0  0  0
    3.4583    1.0991    0.0000 C   0  0  0  0  0  0  0  0  0  0  0  0
    2.6564    2.3668    0.0000 C   0  0  0  0  0  0  0  0  0  0  0  0
    1.1577    2.3062    0.0000 C   0  0  0  0  0  0  0  0  0  0  0  0
    0.4607    0.9780    0.0000 C   0  0  0  0  0  0  0  0  0  0  0  0
    1.2626   -0.2897    0.0000 C   0  0  0  0  0  0  0  0  0  0  0  0
    0.5656   -1.6180    0.0000 C   0  0  0  0  0  0  0  0  0  0  0  0
   -0.9332   -1.6785    0.0000 C   0  0  0  0  0  0  0  0  0  0  0  0
   -1.7350   -0.4108    0.0000 C   0  0  0  0  0  0  0  0  0  0  0  0
   -2.4086   -1.7511    0.0000 C   0  0  0  0  0  0  0  0  0  0  0  0
   -1.0381    0.9174    0.0000 C   0  0  0  0  0  0  0  0  0  0  0  0
   -2.0859    1.9907    0.0000 C   0  0  0  0  0  0  0  0  0  0  0  0
   -3.4305    1.3258    0.0000 C   0  0  0  0  0  0  0  0  0  0  0  0
   -3.2136   -0.1585    0.0000 C   0  0  0  0  0  0  0  0  0  0  0  0
   -3.4918   -1.6324    0.0000 O   0  0  0  0  0  0  0  0  0  0  0  0
   -4.7124   -0.2190    0.0000 C   0  0  0  0  0  0  0  0  0  0  0  0
   -5.4093   -1.5473    0.0000 O   0  0  0  0  0  0  0  0  0  0  0  0
   -5.5142    1.0487    0.0000 C   0  0  0  0  0  0  0  0  0  0  0  0
   -7.0130    0.9881    0.0000 O   0  0  0  0  0  0  0  0  0  0  0  0
  2  1  1  1
  2  3  1  0
  3  4  1  0
  4  5  1  0
  5  6  1  6
  5  7  1  0
  8  7  1  6
  8  9  1  0
  9 10  1  0
 11 10  1  6
 11 12  1  0
 12 13  1  1
 13 14  1  0
 14 15  1  0
 15 16  1  1
 15 17  1  0
 17 18  1  1
 18 19  1  0
 19 20  1  0
 20 21  1  6
 20 22  1  0
 22 23  1  6
 22 24  1  0
 24 25  1  0
  8  2  1  0
 17 11  1  0
 12  2  1  0
 20 15  1  0
M  END
>  <MS_ID>  (3039) 
MS3154

>  <SMILES>  (3039) 
C[C@]12CC[C@@H](O)C[C@H]1CC[C@@H]1[C@@H]2CC[C@@]2(C)[C@H]1CC[C@]2(O)[C@H](O)CO

>  <Structure_dimension>  (3039) 
2D

$$$$
MS3155
     RDKit          2D

 23 26  0  0  0  0  0  0  0  0999 V2000
   -6.2880    0.1477    0.0000 C   0  0  0  0  0  0  0  0  0  0  0  0
   -4.8818    0.6700    0.0000 C   0  0  0  0  0  0  0  0  0  0  0  0
   -4.6310    2.1488    0.0000 O   0  0  0  0  0  0  0  0  0  0  0  0
   -3.7265   -0.2867    0.0000 C   0  0  0  0  0  0  0  0  0  0  0  0
   -3.8214   -1.7837    0.0000 C   0  0  0  0  0  0  0  0  0  0  0  0
   -2.4270   -2.3365    0.0000 C   0  0  0  0  0  0  0  0  0  0  0  0
   -1.4703   -1.1812    0.0000 C   0  0  0  0  0  0  0  0  0  0  0  0
    0.0284   -1.1191    0.0000 C   0  0  0  0  0  0  0  0  0  0  0  0
    0.8316   -2.3860    0.0000 C   0  0  0  0  0  0  0  0  0  0  0  0
    2.3303   -2.3238    0.0000 C   0  0  0  0  0  0  0  0  0  0  0  0
    3.0258   -0.9949    0.0000 C   0  0  0  0  0  0  0  0  0  0  0  0
    4.5246   -0.9327    0.0000 C   0  0  0  0  0  0  0  0  0  0  0  0
    5.2201    0.3962    0.0000 C   0  0  0  0  0  0  0  0  0  0  0  0
    6.7188    0.4584    0.0000 O   0  0  0  0  0  0  0  0  0  0  0  0
    4.4170    1.6631    0.0000 C   0  0  0  0  0  0  0  0  0  0  0  0
    2.9183    1.6010    0.0000 C   0  0  0  0  0  0  0  0  0  0  0  0
    2.2227    0.2720    0.0000 C   0  0  0  0  0  0  0  0  0  0  0  0
    1.4195    1.5389    0.0000 C   0  0  0  0  0  0  0  0  0  0  0  0
    0.7240    0.2099    0.0000 C   0  0  0  0  0  0  0  0  0  0  0  0
   -0.0792    1.4768    0.0000 C   0  0  0  0  0  0  0  0  0  0  0  0
   -1.5779    1.4146    0.0000 C   0  0  0  0  0  0  0  0  0  0  0  0
   -2.2734    0.0856    0.0000 C   0  0  0  0  0  0  0  0  0  0  0  0
   -3.2046    1.2616    0.0000 C   0  0  0  0  0  0  0  0  0  0  0  0
  2  1  1  1
  2  3  1  0
  2  4  1  0
  4  5  1  6
  5  6  1  0
  7  6  1  6
  7  8  1  0
  8  9  1  1
  9 10  1  0
 11 10  1  1
 11 12  1  0
 12 13  1  0
 13 14  1  1
 13 15  1  0
 15 16  1  0
 16 17  1  0
 17 18  1  6
 17 19  1  0
 19 20  1  6
 20 21  1  0
 21 22  1  0
 22 23  1  6
 22  4  1  0
 22  7  1  0
 19  8  1  0
 17 11  1  0
M  END
>  <MS_ID>  (3040) 
MS3155

>  <SMILES>  (3040) 
C[C@@H](O)[C@H]1CC[C@H]2[C@@H]3CC[C@@H]4C[C@H](O)CC[C@]4(C)[C@H]3CC[C@]12C

>  <Structure_dimension>  (3040) 
2D

$$$$
MS3156
     RDKit          2D

 28 31  0  0  0  0  0  0  0  0999 V2000
   -8.2527    1.0784    0.0000 C   0  0  0  0  0  0  0  0  0  0  0  0
   -7.0664    0.1604    0.0000 C   0  0  0  0  0  0  0  0  0  0  0  0
   -7.2683   -1.3260    0.0000 O   0  0  0  0  0  0  0  0  0  0  0  0
   -5.6782    0.7287    0.0000 O   0  0  0  0  0  0  0  0  0  0  0  0
   -4.4920   -0.1894    0.0000 C   0  0  0  0  0  0  0  0  0  0  0  0
   -4.5374   -1.6887    0.0000 C   0  0  0  0  0  0  0  0  0  0  0  0
   -3.1256   -2.1952    0.0000 C   0  0  0  0  0  0  0  0  0  0  0  0
   -2.2075   -1.0090    0.0000 C   0  0  0  0  0  0  0  0  0  0  0  0
   -0.7117   -0.8975    0.0000 C   0  0  0  0  0  0  0  0  0  0  0  0
    0.1328   -2.1372    0.0000 C   0  0  0  0  0  0  0  0  0  0  0  0
    1.6287   -2.0256    0.0000 C   0  0  0  0  0  0  0  0  0  0  0  0
    2.2800   -0.6744    0.0000 C   0  0  0  0  0  0  0  0  0  0  0  0
    3.7759   -0.5629    0.0000 C   0  0  0  0  0  0  0  0  0  0  0  0
    4.4272    0.7883    0.0000 C   0  0  0  0  0  0  0  0  0  0  0  0
    5.9231    0.8998    0.0000 O   0  0  0  0  0  0  0  0  0  0  0  0
    6.7676   -0.3399    0.0000 S   0  0  0  0  0  0  0  0  0  0  0  0
    5.5279   -1.1844    0.0000 O   0  0  0  0  0  0  0  0  0  0  0  0
    8.0073    0.5046    0.0000 O   0  0  0  0  0  0  0  0  0  0  0  0
    7.6121   -1.5796    0.0000 O   0  0  0  0  0  0  0  0  0  0  0  0
    3.5827    2.0280    0.0000 C   0  0  0  0  0  0  0  0  0  0  0  0
    2.0869    1.9164    0.0000 C   0  0  0  0  0  0  0  0  0  0  0  0
    1.4355    0.5652    0.0000 C   0  0  0  0  0  0  0  0  0  0  0  0
    0.5911    1.8049    0.0000 C   0  0  0  0  0  0  0  0  0  0  0  0
   -0.0603    0.4537    0.0000 C   0  0  0  0  0  0  0  0  0  0  0  0
   -0.9048    1.6934    0.0000 C   0  0  0  0  0  0  0  0  0  0  0  0
   -2.4006    1.5819    0.0000 C   0  0  0  0  0  0  0  0  0  0  0  0
   -3.0520    0.2307    0.0000 C   0  0  0  0  0  0  0  0  0  0  0  0
   -4.0215    1.3753    0.0000 C   0  0  0  0  0  0  0  0  0  0  0  0
  1  2  1  0
  2  3  2  0
  2  4  1  0
  5  4  1  6
  5  6  1  0
  6  7  1  0
  8  7  1  6
  8  9  1  0
  9 10  1  1
 10 11  1  0
 12 11  1  1
 12 13  1  0
 13 14  1  0
 14 15  1  1
 15 16  1  0
 16 17  2  0
 16 18  2  0
 16 19  1  0
 14 20  1  0
 20 21  1  0
 21 22  1  0
 22 23  1  6
 22 24  1  0
 24 25  1  6
 25 26  1  0
 26 27  1  0
 27 28  1  6
 27  5  1  0
 27  8  1  0
 24  9  1  0
 22 12  1  0
M  END
>  <MS_ID>  (3041) 
MS3156

>  <SMILES>  (3041) 
CC(=O)O[C@H]1CC[C@H]2[C@@H]3CC[C@@H]4C[C@H](OS(=O)(=O)O)CC[C@]4(C)[C@H]3CC[C@]12C

>  <Structure_dimension>  (3041) 
2D

$$$$
MS3157
     RDKit          2D

 30 33  0  0  0  0  0  0  0  0999 V2000
   -3.7745   -3.1920    0.0000 C   0  0  0  0  0  0  0  0  0  0  0  0
   -2.7586   -2.0883    0.0000 C   0  0  0  0  0  0  0  0  0  0  0  0
   -3.2065   -0.6567    0.0000 C   0  0  0  0  0  0  0  0  0  0  0  0
   -4.6702   -0.3288    0.0000 C   0  0  0  0  0  0  0  0  0  0  0  0
   -5.6861   -1.4324    0.0000 O   0  0  0  0  0  0  0  0  0  0  0  0
   -5.1180    1.1028    0.0000 N   0  0  0  0  0  0  0  0  0  0  0  0
   -6.5817    1.4308    0.0000 C   0  0  0  0  0  0  0  0  0  0  0  0
   -7.0296    2.8623    0.0000 C   0  0  0  0  0  0  0  0  0  0  0  0
   -6.0137    3.9660    0.0000 O   0  0  0  0  0  0  0  0  0  0  0  0
   -8.4933    3.1903    0.0000 O   0  0  0  0  0  0  0  0  0  0  0  0
   -1.2949   -2.4163    0.0000 C   0  0  0  0  0  0  0  0  0  0  0  0
   -0.6999   -3.7932    0.0000 C   0  0  0  0  0  0  0  0  0  0  0  0
    0.7935   -3.6528    0.0000 C   0  0  0  0  0  0  0  0  0  0  0  0
    1.1215   -2.1891    0.0000 C   0  0  0  0  0  0  0  0  0  0  0  0
    2.4287   -1.4534    0.0000 C   0  0  0  0  0  0  0  0  0  0  0  0
    3.7194   -2.2176    0.0000 C   0  0  0  0  0  0  0  0  0  0  0  0
    5.0266   -1.4819    0.0000 C   0  0  0  0  0  0  0  0  0  0  0  0
    5.0431    0.0180    0.0000 C   0  0  0  0  0  0  0  0  0  0  0  0
    6.3502    0.7537    0.0000 C   0  0  0  0  0  0  0  0  0  0  0  0
    6.3667    2.2536    0.0000 C   0  0  0  0  0  0  0  0  0  0  0  0
    7.6739    2.9893    0.0000 O   0  0  0  0  0  0  0  0  0  0  0  0
    5.0760    3.0178    0.0000 C   0  0  0  0  0  0  0  0  0  0  0  0
    3.7688    2.2821    0.0000 C   0  0  0  0  0  0  0  0  0  0  0  0
    3.7523    0.7822    0.0000 C   0  0  0  0  0  0  0  0  0  0  0  0
    2.4616    1.5464    0.0000 C   0  0  0  0  0  0  0  0  0  0  0  0
    2.4451    0.0465    0.0000 C   0  0  0  0  0  0  0  0  0  0  0  0
    1.1544    0.8107    0.0000 C   0  0  0  0  0  0  0  0  0  0  0  0
   -0.1528    0.0750    0.0000 C   0  0  0  0  0  0  0  0  0  0  0  0
   -0.1693   -1.4249    0.0000 C   0  0  0  0  0  0  0  0  0  0  0  0
   -1.5328   -0.7998    0.0000 C   0  0  0  0  0  0  0  0  0  0  0  0
  2  1  1  6
  2  3  1  0
  3  4  1  0
  4  5  2  0
  4  6  1  0
  6  7  1  0
  7  8  1  0
  8  9  2  0
  8 10  1  0
  2 11  1  0
 11 12  1  6
 12 13  1  0
 14 13  1  6
 14 15  1  0
 15 16  1  1
 16 17  1  0
 18 17  1  1
 18 19  1  0
 19 20  1  0
 20 21  1  1
 20 22  1  0
 22 23  1  0
 23 24  1  0
 24 25  1  6
 24 26  1  0
 26 27  1  6
 27 28  1  0
 28 29  1  0
 29 30  1  6
 29 11  1  0
 29 14  1  0
 26 15  1  0
 24 18  1  0
M  END
>  <MS_ID>  (3042) 
MS3157

>  <SMILES>  (3042) 
C[C@H](CC(=O)NCC(=O)O)[C@H]1CC[C@H]2[C@@H]3CC[C@@H]4C[C@H](O)CC[C@]4(C)[C@H]3CC[C@]12C

>  <Structure_dimension>  (3042) 
2D

$$$$
MS3158
     RDKit          2D

 32 35  0  0  0  0  0  0  0  0999 V2000
   -3.1421   -3.6694    0.0000 C   0  0  0  0  0  0  0  0  0  0  0  0
   -2.2628   -2.4541    0.0000 C   0  0  0  0  0  0  0  0  0  0  0  0
   -2.8756   -1.0850    0.0000 C   0  0  0  0  0  0  0  0  0  0  0  0
   -4.3676   -0.9311    0.0000 C   0  0  0  0  0  0  0  0  0  0  0  0
   -4.9804    0.4380    0.0000 C   0  0  0  0  0  0  0  0  0  0  0  0
   -4.1011    1.6532    0.0000 O   0  0  0  0  0  0  0  0  0  0  0  0
   -6.4725    0.5919    0.0000 N   0  0  0  0  0  0  0  0  0  0  0  0
   -7.0853    1.9610    0.0000 C   0  0  0  0  0  0  0  0  0  0  0  0
   -8.5774    2.1149    0.0000 C   0  0  0  0  0  0  0  0  0  0  0  0
   -9.4567    0.8996    0.0000 O   0  0  0  0  0  0  0  0  0  0  0  0
   -9.1901    3.4840    0.0000 O   0  0  0  0  0  0  0  0  0  0  0  0
   -0.7707   -2.6080    0.0000 C   0  0  0  0  0  0  0  0  0  0  0  0
   -0.0182   -3.9056    0.0000 O   0  0  0  0  0  0  0  0  0  0  0  0
    1.4484   -3.5909    0.0000 C   0  0  0  0  0  0  0  0  0  0  0  0
    1.6023   -2.0988    0.0000 C   0  0  0  0  0  0  0  0  0  0  0  0
    2.8141   -1.2147    0.0000 C   0  0  0  0  0  0  0  0  0  0  0  0
    4.1856   -1.8222    0.0000 C   0  0  0  0  0  0  0  0  0  0  0  0
    4.3453   -3.3136    0.0000 O   0  0  0  0  0  0  0  0  0  0  0  0
    5.3974   -0.9381    0.0000 C   0  0  0  0  0  0  0  0  0  0  0  0
    5.2377    0.5533    0.0000 C   0  0  0  0  0  0  0  0  0  0  0  0
    6.4495    1.4374    0.0000 C   0  0  0  0  0  0  0  0  0  0  0  0
    6.2898    2.9289    0.0000 C   0  0  0  0  0  0  0  0  0  0  0  0
    7.5016    3.8129    0.0000 O   0  0  0  0  0  0  0  0  0  0  0  0
    4.9183    3.5363    0.0000 C   0  0  0  0  0  0  0  0  0  0  0  0
    3.7065    2.6522    0.0000 C   0  0  0  0  0  0  0  0  0  0  0  0
    3.8662    1.1608    0.0000 C   0  0  0  0  0  0  0  0  0  0  0  0
    2.4947    1.7682    0.0000 C   0  0  0  0  0  0  0  0  0  0  0  0
    2.6544    0.2767    0.0000 C   0  0  0  0  0  0  0  0  0  0  0  0
    1.2829    0.8842    0.0000 C   0  0  0  0  0  0  0  0  0  0  0  0
    0.0711    0.0001    0.0000 C   0  0  0  0  0  0  0  0  0  0  0  0
    0.2308   -1.4914    0.0000 C   0  0  0  0  0  0  0  0  0  0  0  0
   -1.1967   -1.0306    0.0000 C   0  0  0  0  0  0  0  0  0  0  0  0
  2  1  1  6
  2  3  1  0
  3  4  1  0
  4  5  1  0
  5  6  2  0
  5  7  1  0
  7  8  1  0
  8  9  1  0
  9 10  2  0
  9 11  1  0
  2 12  1  0
 12 13  1  6
 13 14  1  0
 15 14  1  6
 15 16  1  0
 16 17  1  1
 17 18  1  6
 17 19  1  0
 20 19  1  1
 20 21  1  0
 21 22  1  0
 22 23  1  1
 22 24  1  0
 24 25  1  0
 25 26  1  0
 26 27  1  6
 26 28  1  0
 28 29  1  6
 29 30  1  0
 30 31  1  0
 31 32  1  6
 31 12  1  0
 31 15  1  0
 28 16  1  0
 26 20  1  0
M  END
>  <MS_ID>  (3043) 
MS3158

>  <SMILES>  (3043) 
C[C@H](CCC(=O)NCC(=O)O)[C@H]1OC[C@H]2[C@@H]3[C@@H](O)C[C@@H]4C[C@H](O)CC[C@]4(C)[C@H]3CC[C@]12C

>  <Structure_dimension>  (3043) 
2D

$$$$
MS3159
     RDKit          2D

 24 27  0  0  0  0  0  0  0  0999 V2000
   -6.2943    0.2891    0.0000 C   0  0  0  0  0  0  0  0  0  0  0  0
   -4.8892    0.8143    0.0000 C   0  0  0  0  0  0  0  0  0  0  0  0
   -4.6416    2.2937    0.0000 O   0  0  0  0  0  0  0  0  0  0  0  0
   -3.7319   -0.1399    0.0000 C   0  0  0  0  0  0  0  0  0  0  0  0
   -3.8235   -1.6371    0.0000 C   0  0  0  0  0  0  0  0  0  0  0  0
   -2.4280   -2.1870    0.0000 C   0  0  0  0  0  0  0  0  0  0  0  0
   -1.4738   -1.0296    0.0000 C   0  0  0  0  0  0  0  0  0  0  0  0
    0.0248   -0.9643    0.0000 C   0  0  0  0  0  0  0  0  0  0  0  0
    0.8307   -2.2294    0.0000 C   0  0  0  0  0  0  0  0  0  0  0  0
    0.1380   -3.5599    0.0000 O   0  0  0  0  0  0  0  0  0  0  0  0
    2.3293   -2.1641    0.0000 C   0  0  0  0  0  0  0  0  0  0  0  0
    3.0220   -0.8336    0.0000 C   0  0  0  0  0  0  0  0  0  0  0  0
    4.5205   -0.7683    0.0000 C   0  0  0  0  0  0  0  0  0  0  0  0
    5.2133    0.5622    0.0000 C   0  0  0  0  0  0  0  0  0  0  0  0
    6.7118    0.6275    0.0000 O   0  0  0  0  0  0  0  0  0  0  0  0
    4.4074    1.8273    0.0000 C   0  0  0  0  0  0  0  0  0  0  0  0
    2.9088    1.7620    0.0000 C   0  0  0  0  0  0  0  0  0  0  0  0
    2.2161    0.4315    0.0000 C   0  0  0  0  0  0  0  0  0  0  0  0
    1.4102    1.6967    0.0000 C   0  0  0  0  0  0  0  0  0  0  0  0
    0.7175    0.3662    0.0000 C   0  0  0  0  0  0  0  0  0  0  0  0
   -0.0883    1.6314    0.0000 C   0  0  0  0  0  0  0  0  0  0  0  0
   -1.5869    1.5660    0.0000 C   0  0  0  0  0  0  0  0  0  0  0  0
   -2.2796    0.2356    0.0000 C   0  0  0  0  0  0  0  0  0  0  0  0
   -3.2133    1.4095    0.0000 C   0  0  0  0  0  0  0  0  0  0  0  0
  1  2  1  0
  2  3  2  0
  4  2  1  6
  4  5  1  0
  5  6  1  0
  7  6  1  6
  7  8  1  0
  8  9  1  1
  9 10  1  6
  9 11  1  0
 12 11  1  1
 12 13  1  0
 13 14  1  0
 14 15  2  0
 14 16  1  0
 16 17  1  0
 17 18  1  0
 18 19  1  6
 18 20  1  0
 20 21  1  6
 21 22  1  0
 22 23  1  0
 23 24  1  6
 23  4  1  0
 23  7  1  0
 20  8  1  0
 18 12  1  0
M  END
>  <MS_ID>  (3044) 
MS3159

>  <SMILES>  (3044) 
CC(=O)[C@H]1CC[C@H]2[C@@H]3[C@@H](O)C[C@@H]4CC(=O)CC[C@]4(C)[C@H]3CC[C@]12C

>  <Structure_dimension>  (3044) 
2D

$$$$
MS3160
     RDKit          2D

 29 32  0  0  0  0  0  0  0  0999 V2000
   -7.4373    3.6696    0.0000 C   0  0  0  0  0  0  0  0  0  0  0  0
   -7.0935    2.2096    0.0000 C   0  0  0  0  0  0  0  0  0  0  0  0
   -8.1860    1.1818    0.0000 C   0  0  0  0  0  0  0  0  0  0  0  0
   -5.6571    1.7773    0.0000 C   0  0  0  0  0  0  0  0  0  0  0  0
   -5.3133    0.3173    0.0000 C   0  0  0  0  0  0  0  0  0  0  0  0
   -3.8769   -0.1150    0.0000 C   0  0  0  0  0  0  0  0  0  0  0  0
   -3.5331   -1.5751    0.0000 C   0  0  0  0  0  0  0  0  0  0  0  0
   -4.6256   -2.6029    0.0000 C   0  0  0  0  0  0  0  0  0  0  0  0
   -2.0967   -2.0073    0.0000 C   0  0  0  0  0  0  0  0  0  0  0  0
   -1.6021   -3.4234    0.0000 C   0  0  0  0  0  0  0  0  0  0  0  0
   -0.1025   -3.3907    0.0000 C   0  0  0  0  0  0  0  0  0  0  0  0
    0.3298   -1.9543    0.0000 C   0  0  0  0  0  0  0  0  0  0  0  0
    1.6864   -1.3144    0.0000 C   0  0  0  0  0  0  0  0  0  0  0  0
    2.9189   -2.1694    0.0000 C   0  0  0  0  0  0  0  0  0  0  0  0
    4.2756   -1.5295    0.0000 C   0  0  0  0  0  0  0  0  0  0  0  0
    5.5081   -2.3844    0.0000 O   0  0  0  0  0  0  0  0  0  0  0  0
    4.3998   -0.0346    0.0000 C   0  0  0  0  0  0  0  0  0  0  0  0
    5.7564    0.6053    0.0000 C   0  0  0  0  0  0  0  0  0  0  0  0
    5.8806    2.1001    0.0000 C   0  0  0  0  0  0  0  0  0  0  0  0
    7.2373    2.7400    0.0000 O   0  0  0  0  0  0  0  0  0  0  0  0
    4.6481    2.9551    0.0000 C   0  0  0  0  0  0  0  0  0  0  0  0
    3.2914    2.3152    0.0000 C   0  0  0  0  0  0  0  0  0  0  0  0
    3.1673    0.8203    0.0000 C   0  0  0  0  0  0  0  0  0  0  0  0
    1.9348    1.6753    0.0000 C   0  0  0  0  0  0  0  0  0  0  0  0
    1.8106    0.1804    0.0000 C   0  0  0  0  0  0  0  0  0  0  0  0
    0.5781    1.0354    0.0000 C   0  0  0  0  0  0  0  0  0  0  0  0
   -0.7786    0.3955    0.0000 C   0  0  0  0  0  0  0  0  0  0  0  0
   -0.9027   -1.0993    0.0000 C   0  0  0  0  0  0  0  0  0  0  0  0
   -2.2178   -0.3779    0.0000 C   0  0  0  0  0  0  0  0  0  0  0  0
  1  2  1  0
  2  3  1  0
  2  4  1  0
  4  5  1  0
  5  6  1  0
  6  7  1  0
  7  8  1  6
  7  9  1  0
  9 10  1  6
 10 11  1  0
 12 11  1  6
 12 13  1  0
 13 14  1  1
 14 15  1  0
 15 16  1  6
 15 17  1  0
 17 18  1  6
 18 19  1  0
 19 20  1  6
 19 21  1  0
 21 22  1  0
 22 23  1  0
 23 24  1  6
 23 25  1  0
 25 26  1  6
 26 27  1  0
 27 28  1  0
 28 29  1  6
 28  9  1  0
 28 12  1  0
 25 13  1  0
 23 17  1  0
M  END
>  <MS_ID>  (3045) 
MS3160

>  <SMILES>  (3045) 
CC(C)CCC[C@@H](C)[C@H]1CC[C@H]2[C@@H]3C[C@@H](O)[C@H]4C[C@@H](O)CC[C@]4(C)[C@H]3CC[C@]12C

>  <Structure_dimension>  (3045) 
2D

$$$$
MS3162
     RDKit          2D

 31 34  0  0  0  0  0  0  0  0999 V2000
   -7.5336    2.8357    0.0000 C   0  0  0  0  0  0  0  0  0  0  0  0
   -7.0792    1.4062    0.0000 C   0  0  0  0  0  0  0  0  0  0  0  0
   -5.6140    1.0850    0.0000 C   0  0  0  0  0  0  0  0  0  0  0  0
   -5.1596   -0.3445    0.0000 C   0  0  0  0  0  0  0  0  0  0  0  0
   -3.6944   -0.6658    0.0000 C   0  0  0  0  0  0  0  0  0  0  0  0
   -3.2400   -2.0953    0.0000 C   0  0  0  0  0  0  0  0  0  0  0  0
   -4.2508   -3.2036    0.0000 C   0  0  0  0  0  0  0  0  0  0  0  0
   -1.7748   -2.4165    0.0000 C   0  0  0  0  0  0  0  0  0  0  0  0
   -1.1735   -3.7907    0.0000 C   0  0  0  0  0  0  0  0  0  0  0  0
    0.3193   -3.6434    0.0000 C   0  0  0  0  0  0  0  0  0  0  0  0
    0.6405   -2.1782    0.0000 C   0  0  0  0  0  0  0  0  0  0  0  0
    1.9443   -1.4365    0.0000 C   0  0  0  0  0  0  0  0  0  0  0  0
    3.2385   -2.1948    0.0000 C   0  0  0  0  0  0  0  0  0  0  0  0
    4.5423   -1.4531    0.0000 C   0  0  0  0  0  0  0  0  0  0  0  0
    5.8366   -2.2114    0.0000 O   0  0  0  0  0  0  0  0  0  0  0  0
    4.5519    0.0469    0.0000 C   0  0  0  0  0  0  0  0  0  0  0  0
    5.8557    0.7885    0.0000 C   0  0  0  0  0  0  0  0  0  0  0  0
    5.8653    2.2885    0.0000 C   0  0  0  0  0  0  0  0  0  0  0  0
    7.1691    3.0302    0.0000 O   0  0  0  0  0  0  0  0  0  0  0  0
    4.5711    3.0468    0.0000 C   0  0  0  0  0  0  0  0  0  0  0  0
    3.2673    2.3051    0.0000 C   0  0  0  0  0  0  0  0  0  0  0  0
    3.2577    0.8051    0.0000 C   0  0  0  0  0  0  0  0  0  0  0  0
    1.9635    1.5634    0.0000 C   0  0  0  0  0  0  0  0  0  0  0  0
    1.9539    0.0634    0.0000 C   0  0  0  0  0  0  0  0  0  0  0  0
    0.6597    0.8217    0.0000 C   0  0  0  0  0  0  0  0  0  0  0  0
   -0.6441    0.0800    0.0000 C   0  0  0  0  0  0  0  0  0  0  0  0
   -0.6537   -1.4199    0.0000 C   0  0  0  0  0  0  0  0  0  0  0  0
   -2.0201   -0.8011    0.0000 C   0  0  0  0  0  0  0  0  0  0  0  0
   -4.6032    2.1933    0.0000 C   0  0  0  0  0  0  0  0  0  0  0  0
   -5.0576    3.6228    0.0000 C   0  0  0  0  0  0  0  0  0  0  0  0
   -3.1380    1.8720    0.0000 C   0  0  0  0  0  0  0  0  0  0  0  0
  1  2  1  0
  3  2  1  1
  3  4  1  0
  4  5  2  0
  5  6  1  0
  6  7  1  6
  6  8  1  0
  8  9  1  6
  9 10  1  0
 11 10  1  6
 11 12  1  0
 12 13  1  1
 13 14  1  0
 14 15  2  0
 14 16  1  0
 16 17  1  6
 17 18  1  0
 18 19  1  6
 18 20  1  0
 20 21  1  0
 21 22  1  0
 22 23  1  6
 22 24  1  0
 24 25  1  6
 25 26  1  0
 26 27  1  0
 27 28  1  6
  3 29  1  0
 29 30  1  0
 29 31  1  0
 27  8  1  0
 27 11  1  0
 24 12  1  0
 22 16  1  0
M  END
>  <MS_ID>  (3046) 
MS3162

>  <SMILES>  (3046) 
CC[C@H](/C=C/[C@@H](C)[C@H]1CC[C@H]2[C@@H]3CC(=O)[C@H]4C[C@@H](O)CC[C@]4(C)[C@H]3CC[C@]12C)C(C)C

>  <Structure_dimension>  (3046) 
2D

$$$$
MS3163
     RDKit          2D

 35 38  0  0  0  0  0  0  0  0999 V2000
   -1.9841   -4.4014    0.0000 C   0  0  0  0  0  0  0  0  0  0  0  0
   -1.2384   -3.0999    0.0000 C   0  0  0  0  0  0  0  0  0  0  0  0
   -1.9927   -1.8034    0.0000 C   0  0  0  0  0  0  0  0  0  0  0  0
   -3.4927   -1.8083    0.0000 C   0  0  0  0  0  0  0  0  0  0  0  0
   -4.2470   -0.5117    0.0000 C   0  0  0  0  0  0  0  0  0  0  0  0
   -3.5013    0.7898    0.0000 O   0  0  0  0  0  0  0  0  0  0  0  0
   -5.7470   -0.5167    0.0000 N   0  0  0  0  0  0  0  0  0  0  0  0
   -6.5012    0.7799    0.0000 C   0  0  0  0  0  0  0  0  0  0  0  0
   -8.0012    0.7749    0.0000 C   0  0  0  0  0  0  0  0  0  0  0  0
   -8.7555    2.0715    0.0000 C   0  0  0  0  0  0  0  0  0  0  0  0
  -10.2555    2.0665    0.0000 O   0  0  0  0  0  0  0  0  0  0  0  0
   -5.7555    2.0814    0.0000 C   0  0  0  0  0  0  0  0  0  0  0  0
   -4.2555    2.0863    0.0000 O   0  0  0  0  0  0  0  0  0  0  0  0
   -6.5098    3.3779    0.0000 O   0  0  0  0  0  0  0  0  0  0  0  0
    0.2616   -3.0950    0.0000 C   0  0  0  0  0  0  0  0  0  0  0  0
    1.1472   -4.3056    0.0000 C   0  0  0  0  0  0  0  0  0  0  0  0
    2.5723   -3.8374    0.0000 C   0  0  0  0  0  0  0  0  0  0  0  0
    2.5673   -2.3374    0.0000 C   0  0  0  0  0  0  0  0  0  0  0  0
    3.6787   -1.3300    0.0000 C   0  0  0  0  0  0  0  0  0  0  0  0
    5.1069   -1.7888    0.0000 C   0  0  0  0  0  0  0  0  0  0  0  0
    6.2183   -0.7815    0.0000 C   0  0  0  0  0  0  0  0  0  0  0  0
    5.9016    0.6847    0.0000 C   0  0  0  0  0  0  0  0  0  0  0  0
    7.0130    1.6921    0.0000 C   0  0  0  0  0  0  0  0  0  0  0  0
    6.6962    3.1583    0.0000 C   0  0  0  0  0  0  0  0  0  0  0  0
    7.8077    4.1656    0.0000 O   0  0  0  0  0  0  0  0  0  0  0  0
    5.2681    3.6171    0.0000 C   0  0  0  0  0  0  0  0  0  0  0  0
    4.1567    2.6097    0.0000 C   0  0  0  0  0  0  0  0  0  0  0  0
    4.4734    1.1436    0.0000 C   0  0  0  0  0  0  0  0  0  0  0  0
    3.0453    1.6024    0.0000 C   0  0  0  0  0  0  0  0  0  0  0  0
    3.3620    0.1362    0.0000 C   0  0  0  0  0  0  0  0  0  0  0  0
    1.9339    0.5950    0.0000 C   0  0  0  0  0  0  0  0  0  0  0  0
    0.8225   -0.4124    0.0000 C   0  0  0  0  0  0  0  0  0  0  0  0
   -0.6056    0.0465    0.0000 O   0  0  0  0  0  0  0  0  0  0  0  0
    1.1392   -1.8785    0.0000 C   0  0  0  0  0  0  0  0  0  0  0  0
   -0.3290   -1.5715    0.0000 C   0  0  0  0  0  0  0  0  0  0  0  0
  2  1  1  6
  2  3  1  0
  3  4  1  0
  4  5  1  0
  5  6  2  0
  5  7  1  0
  7  8  1  0
  8  9  1  1
  9 10  1  0
 10 11  1  0
  8 12  1  0
 12 13  2  0
 12 14  1  0
  2 15  1  0
 15 16  1  6
 16 17  1  0
 18 17  1  6
 18 19  1  0
 19 20  1  1
 20 21  1  0
 22 21  1  1
 22 23  1  0
 23 24  1  0
 24 25  1  1
 24 26  1  0
 26 27  1  0
 27 28  1  0
 28 29  1  6
 28 30  1  0
 30 31  1  6
 31 32  1  0
 32 33  1  1
 32 34  1  0
 34 35  1  6
 34 15  1  0
 34 18  1  0
 30 19  1  0
 28 22  1  0
M  END
>  <MS_ID>  (3047) 
MS3163

>  <SMILES>  (3047) 
C[C@H](CCC(=O)N[C@@H](CCO)C(=O)O)[C@H]1CC[C@H]2[C@@H]3CC[C@@H]4C[C@H](O)CC[C@]4(C)[C@H]3C[C@H](O)[C@]12C

>  <Structure_dimension>  (3047) 
2D

$$$$
MS3164
     RDKit          2D

 24 27  0  0  0  0  0  0  0  0999 V2000
   -5.7398    1.3531    0.0000 C   0  0  0  0  0  0  0  0  0  0  0  0
   -5.0076    0.0439    0.0000 C   0  0  0  0  0  0  0  0  0  0  0  0
   -5.7752   -1.2448    0.0000 O   0  0  0  0  0  0  0  0  0  0  0  0
   -3.5077    0.0235    0.0000 C   0  0  0  0  0  0  0  0  0  0  0  0
   -3.8252    1.4895    0.0000 O   0  0  0  0  0  0  0  0  0  0  0  0
   -3.6848   -1.4660    0.0000 C   0  0  0  0  0  0  0  0  0  0  0  0
   -2.3229   -2.0948    0.0000 C   0  0  0  0  0  0  0  0  0  0  0  0
   -1.3042   -0.9938    0.0000 C   0  0  0  0  0  0  0  0  0  0  0  0
    0.1957   -1.0143    0.0000 C   0  0  0  0  0  0  0  0  0  0  0  0
    0.9279   -2.3234    0.0000 C   0  0  0  0  0  0  0  0  0  0  0  0
    2.4278   -2.3439    0.0000 C   0  0  0  0  0  0  0  0  0  0  0  0
    3.1954   -1.0552    0.0000 C   0  0  0  0  0  0  0  0  0  0  0  0
    4.6953   -1.0756    0.0000 C   0  0  0  0  0  0  0  0  0  0  0  0
    5.4629    0.2131    0.0000 C   0  0  0  0  0  0  0  0  0  0  0  0
    6.9628    0.1926    0.0000 O   0  0  0  0  0  0  0  0  0  0  0  0
    4.7307    1.5222    0.0000 C   0  0  0  0  0  0  0  0  0  0  0  0
    3.2308    1.5427    0.0000 C   0  0  0  0  0  0  0  0  0  0  0  0
    2.4632    0.2540    0.0000 C   0  0  0  0  0  0  0  0  0  0  0  0
    1.7310    1.5631    0.0000 C   0  0  0  0  0  0  0  0  0  0  0  0
    0.9633    0.2744    0.0000 C   0  0  0  0  0  0  0  0  0  0  0  0
    0.2311    1.5835    0.0000 C   0  0  0  0  0  0  0  0  0  0  0  0
   -1.2687    1.6040    0.0000 C   0  0  0  0  0  0  0  0  0  0  0  0
   -2.0364    0.3153    0.0000 C   0  0  0  0  0  0  0  0  0  0  0  0
   -2.7456    1.6370    0.0000 C   0  0  0  0  0  0  0  0  0  0  0  0
  1  2  1  0
  2  3  2  0
  2  4  1  0
  4  5  1  6
  4  6  1  0
  6  7  1  0
  8  7  1  6
  8  9  1  0
  9 10  1  1
 10 11  1  0
 12 11  1  1
 12 13  1  0
 13 14  1  0
 14 15  1  1
 14 16  1  0
 16 17  1  0
 17 18  1  0
 18 19  1  6
 18 20  1  0
 20 21  1  6
 21 22  1  0
 22 23  1  0
 23 24  1  6
 23  4  1  0
 23  8  1  0
 20  9  1  0
 18 12  1  0
M  END
>  <MS_ID>  (3048) 
MS3164

>  <SMILES>  (3048) 
CC(=O)[C@]1(O)CC[C@H]2[C@@H]3CC[C@@H]4C[C@H](O)CC[C@]4(C)[C@H]3CC[C@@]21C

>  <Structure_dimension>  (3048) 
2D

$$$$
MS3166
     RDKit          2D

 25 28  0  0  0  0  0  0  0  0999 V2000
   -6.2011   -0.0039    0.0000 C   0  0  0  0  0  0  0  0  0  0  0  0
   -4.8118    0.5619    0.0000 C   0  0  0  0  0  0  0  0  0  0  0  0
   -4.6071    2.0478    0.0000 O   0  0  0  0  0  0  0  0  0  0  0  0
   -3.6273   -0.3584    0.0000 C   0  0  0  0  0  0  0  0  0  0  0  0
   -3.6756   -1.8576    0.0000 C   0  0  0  0  0  0  0  0  0  0  0  0
   -2.2646   -2.3668    0.0000 C   0  0  0  0  0  0  0  0  0  0  0  0
   -1.3444   -1.1823    0.0000 C   0  0  0  0  0  0  0  0  0  0  0  0
    0.1517   -1.0736    0.0000 C   0  0  0  0  0  0  0  0  0  0  0  0
    0.9939   -2.3148    0.0000 C   0  0  0  0  0  0  0  0  0  0  0  0
    0.3400   -3.6648    0.0000 O   0  0  0  0  0  0  0  0  0  0  0  0
    2.4899   -2.2061    0.0000 C   0  0  0  0  0  0  0  0  0  0  0  0
    3.1438   -0.8561    0.0000 C   0  0  0  0  0  0  0  0  0  0  0  0
    4.6399   -0.7474    0.0000 C   0  0  0  0  0  0  0  0  0  0  0  0
    5.2937    0.6026    0.0000 C   0  0  0  0  0  0  0  0  0  0  0  0
    6.7898    0.7113    0.0000 O   0  0  0  0  0  0  0  0  0  0  0  0
    4.4516    1.8438    0.0000 C   0  0  0  0  0  0  0  0  0  0  0  0
    2.9555    1.7351    0.0000 C   0  0  0  0  0  0  0  0  0  0  0  0
    2.3016    0.3851    0.0000 C   0  0  0  0  0  0  0  0  0  0  0  0
    1.4594    1.6264    0.0000 C   0  0  0  0  0  0  0  0  0  0  0  0
    0.8056    0.2764    0.0000 C   0  0  0  0  0  0  0  0  0  0  0  0
   -0.0366    1.5177    0.0000 C   0  0  0  0  0  0  0  0  0  0  0  0
   -1.5327    1.4090    0.0000 C   0  0  0  0  0  0  0  0  0  0  0  0
   -2.3748    2.6502    0.0000 O   0  0  0  0  0  0  0  0  0  0  0  0
   -2.1865    0.0590    0.0000 C   0  0  0  0  0  0  0  0  0  0  0  0
   -3.1539    1.2054    0.0000 C   0  0  0  0  0  0  0  0  0  0  0  0
  1  2  1  0
  2  3  2  0
  4  2  1  6
  4  5  1  0
  5  6  1  0
  7  6  1  6
  7  8  1  0
  8  9  1  1
  9 10  1  1
  9 11  1  0
 12 11  1  1
 12 13  1  0
 13 14  1  0
 14 15  1  6
 14 16  1  0
 16 17  1  0
 17 18  1  0
 18 19  1  6
 18 20  1  0
 20 21  1  6
 21 22  1  0
 22 23  1  1
 22 24  1  0
 24 25  1  6
 24  4  1  0
 24  7  1  0
 20  8  1  0
 18 12  1  0
M  END
>  <MS_ID>  (3049) 
MS3166

>  <SMILES>  (3049) 
CC(=O)[C@H]1CC[C@H]2[C@@H]3[C@H](O)C[C@@H]4C[C@@H](O)CC[C@]4(C)[C@H]3C[C@H](O)[C@]12C

>  <Structure_dimension>  (3049) 
2D

$$$$
MS3167
     RDKit          2D

 29 32  0  0  0  0  0  0  0  0999 V2000
   -4.8410   -2.3079    0.0000 C   0  0  0  0  0  0  0  0  0  0  0  0
   -3.6980   -1.3366    0.0000 C   0  0  0  0  0  0  0  0  0  0  0  0
   -3.9677    0.1390    0.0000 C   0  0  0  0  0  0  0  0  0  0  0  0
   -5.3804    0.6432    0.0000 C   0  0  0  0  0  0  0  0  0  0  0  0
   -5.6500    2.1188    0.0000 P   0  0  0  0  0  0  0  0  0  0  0  0
   -5.9197    3.5944    0.0000 O   0  0  0  0  0  0  0  0  0  0  0  0
   -7.1256    1.8492    0.0000 O   0  0  0  0  0  0  0  0  0  0  0  0
   -4.1744    2.3885    0.0000 O   0  0  0  0  0  0  0  0  0  0  0  0
   -2.2853   -1.8408    0.0000 C   0  0  0  0  0  0  0  0  0  0  0  0
   -1.8629   -3.2801    0.0000 C   0  0  0  0  0  0  0  0  0  0  0  0
   -0.3635   -3.3231    0.0000 C   0  0  0  0  0  0  0  0  0  0  0  0
    0.1408   -1.9104    0.0000 C   0  0  0  0  0  0  0  0  0  0  0  0
    1.5280   -1.3399    0.0000 C   0  0  0  0  0  0  0  0  0  0  0  0
    2.7157   -2.2560    0.0000 C   0  0  0  0  0  0  0  0  0  0  0  0
    2.5162   -3.7427    0.0000 O   0  0  0  0  0  0  0  0  0  0  0  0
    4.1030   -1.6855    0.0000 C   0  0  0  0  0  0  0  0  0  0  0  0
    4.3025   -0.1988    0.0000 C   0  0  0  0  0  0  0  0  0  0  0  0
    5.6898    0.3717    0.0000 C   0  0  0  0  0  0  0  0  0  0  0  0
    5.8893    1.8584    0.0000 C   0  0  0  0  0  0  0  0  0  0  0  0
    7.2765    2.4290    0.0000 O   0  0  0  0  0  0  0  0  0  0  0  0
    4.7016    2.7745    0.0000 C   0  0  0  0  0  0  0  0  0  0  0  0
    3.3143    2.2040    0.0000 C   0  0  0  0  0  0  0  0  0  0  0  0
    3.1148    0.7173    0.0000 C   0  0  0  0  0  0  0  0  0  0  0  0
    1.9270    1.6334    0.0000 C   0  0  0  0  0  0  0  0  0  0  0  0
    1.7275    0.1468    0.0000 C   0  0  0  0  0  0  0  0  0  0  0  0
    0.5398    1.0629    0.0000 C   0  0  0  0  0  0  0  0  0  0  0  0
   -0.8475    0.4924    0.0000 C   0  0  0  0  0  0  0  0  0  0  0  0
   -1.0470   -0.9943    0.0000 C   0  0  0  0  0  0  0  0  0  0  0  0
   -2.3240   -0.2074    0.0000 C   0  0  0  0  0  0  0  0  0  0  0  0
  2  1  1  6
  2  3  1  0
  3  4  1  0
  4  5  1  0
  5  6  2  0
  5  7  1  0
  5  8  1  0
  2  9  1  0
  9 10  1  6
 10 11  1  0
 12 11  1  6
 12 13  1  0
 13 14  1  1
 14 15  1  6
 14 16  1  0
 17 16  1  1
 17 18  1  0
 18 19  1  0
 19 20  1  1
 19 21  1  0
 21 22  1  0
 22 23  1  0
 23 24  1  6
 23 25  1  0
 25 26  1  6
 26 27  1  0
 27 28  1  0
 28 29  1  6
 28  9  1  0
 28 12  1  0
 25 13  1  0
 23 17  1  0
M  END
>  <MS_ID>  (3050) 
MS3167

>  <SMILES>  (3050) 
C[C@H](CCP(=O)(O)O)[C@H]1CC[C@H]2[C@@H]3[C@@H](O)C[C@@H]4C[C@H](O)CC[C@]4(C)[C@H]3CC[C@]12C

>  <Structure_dimension>  (3050) 
2D

$$$$
MS3168
     RDKit          2D

 32 35  0  0  0  0  0  0  0  0999 V2000
   -3.6450   -3.1073    0.0000 C   0  0  0  0  0  0  0  0  0  0  0  0
   -2.6454   -1.9889    0.0000 C   0  0  0  0  0  0  0  0  0  0  0  0
   -3.1142   -0.5640    0.0000 C   0  0  0  0  0  0  0  0  0  0  0  0
   -4.5825   -0.2575    0.0000 C   0  0  0  0  0  0  0  0  0  0  0  0
   -5.0513    1.1673    0.0000 C   0  0  0  0  0  0  0  0  0  0  0  0
   -6.5196    1.4738    0.0000 C   0  0  0  0  0  0  0  0  0  0  0  0
   -6.9884    2.8987    0.0000 C   0  0  0  0  0  0  0  0  0  0  0  0
   -8.4568    3.2052    0.0000 O   0  0  0  0  0  0  0  0  0  0  0  0
   -7.5192    0.3554    0.0000 C   0  0  0  0  0  0  0  0  0  0  0  0
   -8.9876    0.6619    0.0000 O   0  0  0  0  0  0  0  0  0  0  0  0
   -1.1771   -2.2954    0.0000 C   0  0  0  0  0  0  0  0  0  0  0  0
   -0.5619   -3.6634    0.0000 C   0  0  0  0  0  0  0  0  0  0  0  0
    0.9293   -3.5012    0.0000 C   0  0  0  0  0  0  0  0  0  0  0  0
    1.2358   -2.0328    0.0000 C   0  0  0  0  0  0  0  0  0  0  0  0
    2.5320   -1.2780    0.0000 C   0  0  0  0  0  0  0  0  0  0  0  0
    3.8338   -2.0233    0.0000 C   0  0  0  0  0  0  0  0  0  0  0  0
    3.8393   -3.5232    0.0000 O   0  0  0  0  0  0  0  0  0  0  0  0
    5.1301   -1.2685    0.0000 C   0  0  0  0  0  0  0  0  0  0  0  0
    5.1246    0.2315    0.0000 C   0  0  0  0  0  0  0  0  0  0  0  0
    6.4209    0.9863    0.0000 C   0  0  0  0  0  0  0  0  0  0  0  0
    6.4153    2.4863    0.0000 C   0  0  0  0  0  0  0  0  0  0  0  0
    7.7116    3.2410    0.0000 O   0  0  0  0  0  0  0  0  0  0  0  0
    5.1136    3.2315    0.0000 C   0  0  0  0  0  0  0  0  0  0  0  0
    3.8173    2.4767    0.0000 C   0  0  0  0  0  0  0  0  0  0  0  0
    3.8228    0.9767    0.0000 C   0  0  0  0  0  0  0  0  0  0  0  0
    2.5210    1.7219    0.0000 C   0  0  0  0  0  0  0  0  0  0  0  0
    2.5265    0.2220    0.0000 C   0  0  0  0  0  0  0  0  0  0  0  0
    1.2247    0.9672    0.0000 C   0  0  0  0  0  0  0  0  0  0  0  0
   -0.0715    0.2124    0.0000 C   0  0  0  0  0  0  0  0  0  0  0  0
   -1.3733    0.9576    0.0000 O   0  0  0  0  0  0  0  0  0  0  0  0
   -0.0660   -1.2876    0.0000 C   0  0  0  0  0  0  0  0  0  0  0  0
   -1.4386   -0.6825    0.0000 C   0  0  0  0  0  0  0  0  0  0  0  0
  2  1  1  6
  2  3  1  0
  3  4  1  0
  4  5  1  0
  5  6  1  0
  6  7  1  0
  7  8  1  0
  6  9  1  0
  9 10  1  0
  2 11  1  0
 11 12  1  6
 12 13  1  0
 14 13  1  6
 14 15  1  0
 15 16  1  1
 16 17  1  1
 16 18  1  0
 19 18  1  6
 19 20  1  0
 20 21  1  0
 21 22  1  1
 21 23  1  0
 23 24  1  0
 24 25  1  0
 25 26  1  6
 25 27  1  0
 27 28  1  6
 28 29  1  0
 29 30  1  1
 29 31  1  0
 31 32  1  6
 31 11  1  0
 31 14  1  0
 27 15  1  0
 25 19  1  0
M  END
>  <MS_ID>  (3051) 
MS3168

>  <SMILES>  (3051) 
C[C@H](CCCC(CO)CO)[C@H]1CC[C@H]2[C@@H]3[C@H](O)C[C@H]4C[C@H](O)CC[C@]4(C)[C@H]3C[C@H](O)[C@]12C

>  <Structure_dimension>  (3051) 
2D

$$$$
MS3169
     RDKit          2D

 25 28  0  0  0  0  0  0  0  0999 V2000
   -6.2011   -0.0039    0.0000 C   0  0  0  0  0  0  0  0  0  0  0  0
   -4.8118    0.5619    0.0000 C   0  0  0  0  0  0  0  0  0  0  0  0
   -4.6071    2.0478    0.0000 O   0  0  0  0  0  0  0  0  0  0  0  0
   -3.6273   -0.3584    0.0000 C   0  0  0  0  0  0  0  0  0  0  0  0
   -3.6756   -1.8576    0.0000 C   0  0  0  0  0  0  0  0  0  0  0  0
   -2.2646   -2.3668    0.0000 C   0  0  0  0  0  0  0  0  0  0  0  0
   -1.3444   -1.1823    0.0000 C   0  0  0  0  0  0  0  0  0  0  0  0
    0.1517   -1.0736    0.0000 C   0  0  0  0  0  0  0  0  0  0  0  0
    0.9939   -2.3148    0.0000 C   0  0  0  0  0  0  0  0  0  0  0  0
    0.3400   -3.6648    0.0000 O   0  0  0  0  0  0  0  0  0  0  0  0
    2.4899   -2.2061    0.0000 C   0  0  0  0  0  0  0  0  0  0  0  0
    3.1438   -0.8561    0.0000 C   0  0  0  0  0  0  0  0  0  0  0  0
    4.6399   -0.7474    0.0000 C   0  0  0  0  0  0  0  0  0  0  0  0
    5.2937    0.6026    0.0000 C   0  0  0  0  0  0  0  0  0  0  0  0
    6.7898    0.7113    0.0000 O   0  0  0  0  0  0  0  0  0  0  0  0
    4.4516    1.8438    0.0000 C   0  0  0  0  0  0  0  0  0  0  0  0
    2.9555    1.7351    0.0000 C   0  0  0  0  0  0  0  0  0  0  0  0
    2.3016    0.3851    0.0000 C   0  0  0  0  0  0  0  0  0  0  0  0
    1.4594    1.6264    0.0000 C   0  0  0  0  0  0  0  0  0  0  0  0
    0.8056    0.2764    0.0000 C   0  0  0  0  0  0  0  0  0  0  0  0
   -0.0366    1.5177    0.0000 C   0  0  0  0  0  0  0  0  0  0  0  0
   -1.5327    1.4090    0.0000 C   0  0  0  0  0  0  0  0  0  0  0  0
   -2.3748    2.6502    0.0000 O   0  0  0  0  0  0  0  0  0  0  0  0
   -2.1865    0.0590    0.0000 C   0  0  0  0  0  0  0  0  0  0  0  0
   -3.1539    1.2054    0.0000 C   0  0  0  0  0  0  0  0  0  0  0  0
  1  2  1  0
  2  3  2  0
  4  2  1  6
  4  5  1  0
  5  6  1  0
  7  6  1  6
  7  8  1  0
  8  9  1  1
  9 10  1  6
  9 11  1  0
 12 11  1  1
 12 13  1  0
 13 14  1  0
 14 15  1  1
 14 16  1  0
 16 17  1  0
 17 18  1  0
 18 19  1  6
 18 20  1  0
 20 21  1  6
 21 22  1  0
 22 23  1  6
 22 24  1  0
 24 25  1  6
 24  4  1  0
 24  7  1  0
 20  8  1  0
 18 12  1  0
M  END
>  <MS_ID>  (3052) 
MS3169

>  <SMILES>  (3052) 
CC(=O)[C@H]1CC[C@H]2[C@@H]3[C@@H](O)C[C@@H]4C[C@H](O)CC[C@]4(C)[C@H]3C[C@@H](O)[C@]12C

>  <Structure_dimension>  (3052) 
2D

$$$$
MS3170
     RDKit          2D

 36 39  0  0  0  0  0  0  0  0999 V2000
   -0.5745   -4.6495    0.0000 C   0  0  0  0  0  0  0  0  0  0  0  0
    0.0324   -3.2777    0.0000 C   0  0  0  0  0  0  0  0  0  0  0  0
   -0.8522   -2.0663    0.0000 C   0  0  0  0  0  0  0  0  0  0  0  0
   -2.3436   -2.2266    0.0000 C   0  0  0  0  0  0  0  0  0  0  0  0
   -3.2281   -1.0151    0.0000 C   0  0  0  0  0  0  0  0  0  0  0  0
   -2.6212    0.3566    0.0000 O   0  0  0  0  0  0  0  0  0  0  0  0
   -4.7195   -1.1754    0.0000 N   0  0  0  0  0  0  0  0  0  0  0  0
   -5.6041    0.0360    0.0000 C   0  0  0  0  0  0  0  0  0  0  0  0
   -7.0955   -0.1243    0.0000 C   0  0  0  0  0  0  0  0  0  0  0  0
   -7.9800    1.0871    0.0000 C   0  0  0  0  0  0  0  0  0  0  0  0
   -9.4714    0.9268    0.0000 C   0  0  0  0  0  0  0  0  0  0  0  0
  -10.3559    2.1383    0.0000 C   0  0  0  0  0  0  0  0  0  0  0  0
  -11.8474    1.9780    0.0000 C   0  0  0  0  0  0  0  0  0  0  0  0
  -12.4542    0.6062    0.0000 O   0  0  0  0  0  0  0  0  0  0  0  0
  -12.7319    3.1894    0.0000 O   0  0  0  0  0  0  0  0  0  0  0  0
    1.5238   -3.1174    0.0000 C   0  0  0  0  0  0  0  0  0  0  0  0
    2.5301   -4.2298    0.0000 C   0  0  0  0  0  0  0  0  0  0  0  0
    3.8990   -3.6164    0.0000 C   0  0  0  0  0  0  0  0  0  0  0  0
    3.7387   -2.1250    0.0000 C   0  0  0  0  0  0  0  0  0  0  0  0
    4.7397   -1.0080    0.0000 C   0  0  0  0  0  0  0  0  0  0  0  0
    6.2077   -1.3164    0.0000 C   0  0  0  0  0  0  0  0  0  0  0  0
    7.2087   -0.1993    0.0000 C   0  0  0  0  0  0  0  0  0  0  0  0
    6.7419    1.2262    0.0000 C   0  0  0  0  0  0  0  0  0  0  0  0
    7.7429    2.3433    0.0000 C   0  0  0  0  0  0  0  0  0  0  0  0
    7.2760    3.7688    0.0000 C   0  0  0  0  0  0  0  0  0  0  0  0
    8.2771    4.8858    0.0000 O   0  0  0  0  0  0  0  0  0  0  0  0
    5.8081    4.0772    0.0000 C   0  0  0  0  0  0  0  0  0  0  0  0
    4.8070    2.9601    0.0000 C   0  0  0  0  0  0  0  0  0  0  0  0
    5.2739    1.5346    0.0000 C   0  0  0  0  0  0  0  0  0  0  0  0
    3.8060    1.8430    0.0000 C   0  0  0  0  0  0  0  0  0  0  0  0
    4.2728    0.4175    0.0000 C   0  0  0  0  0  0  0  0  0  0  0  0
    2.8049    0.7259    0.0000 C   0  0  0  0  0  0  0  0  0  0  0  0
    1.8038   -0.3911    0.0000 C   0  0  0  0  0  0  0  0  0  0  0  0
    0.3359   -0.0827    0.0000 O   0  0  0  0  0  0  0  0  0  0  0  0
    2.2707   -1.8166    0.0000 C   0  0  0  0  0  0  0  0  0  0  0  0
    0.7786   -1.6633    0.0000 C   0  0  0  0  0  0  0  0  0  0  0  0
  2  1  1  6
  2  3  1  0
  3  4  1  0
  4  5  1  0
  5  6  2  0
  5  7  1  0
  7  8  1  0
  8  9  1  0
  9 10  1  0
 10 11  1  0
 11 12  1  0
 12 13  1  0
 13 14  2  0
 13 15  1  0
  2 16  1  0
 16 17  1  6
 17 18  1  0
 19 18  1  6
 19 20  1  0
 20 21  1  1
 21 22  1  0
 23 22  1  1
 23 24  1  0
 24 25  1  0
 25 26  1  1
 25 27  1  0
 27 28  1  0
 28 29  1  0
 29 30  1  6
 29 31  1  0
 31 32  1  6
 32 33  1  0
 33 34  1  1
 33 35  1  0
 35 36  1  6
 35 16  1  0
 35 19  1  0
 31 20  1  0
 29 23  1  0
M  END
>  <MS_ID>  (3053) 
MS3170

>  <SMILES>  (3053) 
C[C@H](CCC(=O)NCCCCCC(=O)O)[C@H]1CC[C@H]2[C@@H]3CC[C@@H]4C[C@H](O)CC[C@]4(C)[C@H]3C[C@H](O)[C@]12C

>  <Structure_dimension>  (3053) 
2D

$$$$
MS3171
     RDKit          2D

 32 35  0  0  0  0  0  0  0  0999 V2000
   -3.6450   -3.1073    0.0000 C   0  0  0  0  0  0  0  0  0  0  0  0
   -2.6454   -1.9889    0.0000 C   0  0  0  0  0  0  0  0  0  0  0  0
   -3.1142   -0.5640    0.0000 C   0  0  0  0  0  0  0  0  0  0  0  0
   -4.5825   -0.2575    0.0000 C   0  0  0  0  0  0  0  0  0  0  0  0
   -5.0513    1.1673    0.0000 C   0  0  0  0  0  0  0  0  0  0  0  0
   -6.5196    1.4738    0.0000 C   0  0  0  0  0  0  0  0  0  0  0  0
   -6.9884    2.8987    0.0000 C   0  0  0  0  0  0  0  0  0  0  0  0
   -8.4568    3.2052    0.0000 O   0  0  0  0  0  0  0  0  0  0  0  0
   -7.5192    0.3554    0.0000 C   0  0  0  0  0  0  0  0  0  0  0  0
   -8.9876    0.6619    0.0000 O   0  0  0  0  0  0  0  0  0  0  0  0
   -1.1771   -2.2954    0.0000 C   0  0  0  0  0  0  0  0  0  0  0  0
   -0.5619   -3.6634    0.0000 C   0  0  0  0  0  0  0  0  0  0  0  0
    0.9293   -3.5012    0.0000 C   0  0  0  0  0  0  0  0  0  0  0  0
    1.2358   -2.0328    0.0000 C   0  0  0  0  0  0  0  0  0  0  0  0
    2.5320   -1.2780    0.0000 C   0  0  0  0  0  0  0  0  0  0  0  0
    3.8338   -2.0233    0.0000 C   0  0  0  0  0  0  0  0  0  0  0  0
    3.8393   -3.5232    0.0000 O   0  0  0  0  0  0  0  0  0  0  0  0
    5.1301   -1.2685    0.0000 C   0  0  0  0  0  0  0  0  0  0  0  0
    5.1246    0.2315    0.0000 C   0  0  0  0  0  0  0  0  0  0  0  0
    6.4209    0.9863    0.0000 C   0  0  0  0  0  0  0  0  0  0  0  0
    6.4153    2.4863    0.0000 C   0  0  0  0  0  0  0  0  0  0  0  0
    7.7116    3.2410    0.0000 O   0  0  0  0  0  0  0  0  0  0  0  0
    5.1136    3.2315    0.0000 C   0  0  0  0  0  0  0  0  0  0  0  0
    3.8173    2.4767    0.0000 C   0  0  0  0  0  0  0  0  0  0  0  0
    3.8228    0.9767    0.0000 C   0  0  0  0  0  0  0  0  0  0  0  0
    2.5210    1.7219    0.0000 C   0  0  0  0  0  0  0  0  0  0  0  0
    2.5265    0.2220    0.0000 C   0  0  0  0  0  0  0  0  0  0  0  0
    1.2247    0.9672    0.0000 C   0  0  0  0  0  0  0  0  0  0  0  0
   -0.0715    0.2124    0.0000 C   0  0  0  0  0  0  0  0  0  0  0  0
   -1.3733    0.9576    0.0000 O   0  0  0  0  0  0  0  0  0  0  0  0
   -0.0660   -1.2876    0.0000 C   0  0  0  0  0  0  0  0  0  0  0  0
   -1.4386   -0.6825    0.0000 C   0  0  0  0  0  0  0  0  0  0  0  0
  2  1  1  6
  2  3  1  0
  3  4  1  0
  4  5  1  0
  5  6  1  0
  6  7  1  0
  7  8  1  0
  6  9  1  0
  9 10  1  0
  2 11  1  0
 11 12  1  6
 12 13  1  0
 14 13  1  6
 14 15  1  0
 15 16  1  1
 16 17  1  1
 16 18  1  0
 19 18  1  6
 19 20  1  0
 20 21  1  0
 21 22  1  6
 21 23  1  0
 23 24  1  0
 24 25  1  0
 25 26  1  6
 25 27  1  0
 27 28  1  6
 28 29  1  0
 29 30  1  1
 29 31  1  0
 31 32  1  6
 31 11  1  0
 31 14  1  0
 27 15  1  0
 25 19  1  0
M  END
>  <MS_ID>  (3054) 
MS3171

>  <SMILES>  (3054) 
C[C@H](CCCC(CO)CO)[C@H]1CC[C@H]2[C@@H]3[C@H](O)C[C@H]4C[C@@H](O)CC[C@]4(C)[C@H]3C[C@H](O)[C@]12C

>  <Structure_dimension>  (3054) 
2D

$$$$
MS3172
     RDKit          2D

 30 33  0  0  0  0  0  0  0  0999 V2000
   -4.3209   -2.7536    0.0000 C   0  0  0  0  0  0  0  0  0  0  0  0
   -3.2523   -1.7010    0.0000 C   0  0  0  0  0  0  0  0  0  0  0  0
   -3.6295   -0.2492    0.0000 C   0  0  0  0  0  0  0  0  0  0  0  0
   -5.0755    0.1499    0.0000 C   0  0  0  0  0  0  0  0  0  0  0  0
   -5.4527    1.6017    0.0000 C   0  0  0  0  0  0  0  0  0  0  0  0
   -4.3841    2.6543    0.0000 N   0  0  0  0  0  0  0  0  0  0  0  0
   -6.8987    2.0009    0.0000 C   0  0  0  0  0  0  0  0  0  0  0  0
   -7.9673    0.9482    0.0000 O   0  0  0  0  0  0  0  0  0  0  0  0
   -7.2759    3.4526    0.0000 O   0  0  0  0  0  0  0  0  0  0  0  0
   -1.8064   -2.1002    0.0000 C   0  0  0  0  0  0  0  0  0  0  0  0
   -1.2794   -3.5046    0.0000 C   0  0  0  0  0  0  0  0  0  0  0  0
    0.2191   -3.4374    0.0000 C   0  0  0  0  0  0  0  0  0  0  0  0
    0.6183   -1.9915    0.0000 C   0  0  0  0  0  0  0  0  0  0  0  0
    1.9599   -1.3206    0.0000 C   0  0  0  0  0  0  0  0  0  0  0  0
    3.2117   -2.1470    0.0000 C   0  0  0  0  0  0  0  0  0  0  0  0
    3.1219   -3.6443    0.0000 O   0  0  0  0  0  0  0  0  0  0  0  0
    4.5533   -1.4762    0.0000 C   0  0  0  0  0  0  0  0  0  0  0  0
    4.6431    0.0211    0.0000 C   0  0  0  0  0  0  0  0  0  0  0  0
    5.9847    0.6920    0.0000 C   0  0  0  0  0  0  0  0  0  0  0  0
    6.0745    2.1893    0.0000 C   0  0  0  0  0  0  0  0  0  0  0  0
    7.4161    2.8602    0.0000 O   0  0  0  0  0  0  0  0  0  0  0  0
    4.8227    3.0158    0.0000 C   0  0  0  0  0  0  0  0  0  0  0  0
    3.4811    2.3449    0.0000 C   0  0  0  0  0  0  0  0  0  0  0  0
    3.3913    0.8476    0.0000 C   0  0  0  0  0  0  0  0  0  0  0  0
    2.1395    1.6740    0.0000 C   0  0  0  0  0  0  0  0  0  0  0  0
    2.0497    0.1767    0.0000 C   0  0  0  0  0  0  0  0  0  0  0  0
    0.7979    1.0031    0.0000 C   0  0  0  0  0  0  0  0  0  0  0  0
   -0.5437    0.3323    0.0000 C   0  0  0  0  0  0  0  0  0  0  0  0
   -0.6335   -1.1650    0.0000 C   0  0  0  0  0  0  0  0  0  0  0  0
   -1.9649   -0.4740    0.0000 C   0  0  0  0  0  0  0  0  0  0  0  0
  2  1  1  6
  2  3  1  0
  3  4  1  0
  4  5  1  0
  5  6  1  1
  5  7  1  0
  7  8  2  0
  7  9  1  0
  2 10  1  0
 10 11  1  6
 11 12  1  0
 13 12  1  6
 13 14  1  0
 14 15  1  1
 15 16  1  6
 15 17  1  0
 18 17  1  1
 18 19  1  0
 19 20  1  0
 20 21  1  1
 20 22  1  0
 22 23  1  0
 23 24  1  0
 24 25  1  6
 24 26  1  0
 26 27  1  6
 27 28  1  0
 28 29  1  0
 29 30  1  6
 29 10  1  0
 29 13  1  0
 26 14  1  0
 24 18  1  0
M  END
>  <MS_ID>  (3055) 
MS3172

>  <SMILES>  (3055) 
C[C@H](CC[C@H](N)C(=O)O)[C@H]1CC[C@H]2[C@@H]3[C@@H](O)C[C@@H]4C[C@H](O)CC[C@]4(C)[C@H]3CC[C@]12C

>  <Structure_dimension>  (3055) 
2D

$$$$
MS3173
     RDKit          2D

 27 30  0  0  0  0  0  0  0  0999 V2000
   -6.0371   -0.7103    0.0000 C   0  0  0  0  0  0  0  0  0  0  0  0
   -4.7253    0.0172    0.0000 C   0  0  0  0  0  0  0  0  0  0  0  0
   -4.6994    1.5169    0.0000 C   0  0  0  0  0  0  0  0  0  0  0  0
   -3.3876    2.2444    0.0000 O   0  0  0  0  0  0  0  0  0  0  0  0
   -5.9853    2.2893    0.0000 O   0  0  0  0  0  0  0  0  0  0  0  0
   -3.4394   -0.7552    0.0000 C   0  0  0  0  0  0  0  0  0  0  0  0
   -3.3084   -2.2494    0.0000 C   0  0  0  0  0  0  0  0  0  0  0  0
   -1.8468   -2.5866    0.0000 C   0  0  0  0  0  0  0  0  0  0  0  0
   -1.0745   -1.3007    0.0000 C   0  0  0  0  0  0  0  0  0  0  0  0
    0.3979   -1.0142    0.0000 C   0  0  0  0  0  0  0  0  0  0  0  0
    1.3822   -2.1461    0.0000 C   0  0  0  0  0  0  0  0  0  0  0  0
    0.8941   -3.5645    0.0000 O   0  0  0  0  0  0  0  0  0  0  0  0
    2.8546   -1.8596    0.0000 C   0  0  0  0  0  0  0  0  0  0  0  0
    3.8389   -2.9915    0.0000 O   0  0  0  0  0  0  0  0  0  0  0  0
    3.3427   -0.4412    0.0000 C   0  0  0  0  0  0  0  0  0  0  0  0
    4.8151   -0.1548    0.0000 C   0  0  0  0  0  0  0  0  0  0  0  0
    5.3032    1.2636    0.0000 C   0  0  0  0  0  0  0  0  0  0  0  0
    6.7755    1.5501    0.0000 O   0  0  0  0  0  0  0  0  0  0  0  0
    4.3189    2.3955    0.0000 C   0  0  0  0  0  0  0  0  0  0  0  0
    2.8465    2.1090    0.0000 C   0  0  0  0  0  0  0  0  0  0  0  0
    2.3584    0.6906    0.0000 C   0  0  0  0  0  0  0  0  0  0  0  0
    1.3741    1.8225    0.0000 C   0  0  0  0  0  0  0  0  0  0  0  0
    0.8860    0.4042    0.0000 C   0  0  0  0  0  0  0  0  0  0  0  0
   -0.0983    1.5360    0.0000 C   0  0  0  0  0  0  0  0  0  0  0  0
   -1.5707    1.2496    0.0000 C   0  0  0  0  0  0  0  0  0  0  0  0
   -2.0588   -0.1688    0.0000 C   0  0  0  0  0  0  0  0  0  0  0  0
   -3.1560    0.8540    0.0000 C   0  0  0  0  0  0  0  0  0  0  0  0
  2  1  1  6
  2  3  1  0
  3  4  2  0
  3  5  1  0
  2  6  1  0
  6  7  1  6
  7  8  1  0
  9  8  1  6
  9 10  1  0
 10 11  1  1
 11 12  1  1
 11 13  1  0
 13 14  1  1
 13 15  1  0
 15 16  1  1
 16 17  1  0
 17 18  1  1
 17 19  1  0
 19 20  1  0
 20 21  1  0
 21 22  1  6
 21 23  1  0
 23 24  1  6
 24 25  1  0
 25 26  1  0
 26 27  1  6
 26  6  1  0
 26  9  1  0
 23 10  1  0
 21 15  1  0
M  END
>  <MS_ID>  (3056) 
MS3173

>  <SMILES>  (3056) 
C[C@H](C(=O)O)[C@H]1CC[C@H]2[C@@H]3[C@H](O)[C@H](O)[C@@H]4C[C@H](O)CC[C@]4(C)[C@H]3CC[C@]12C

>  <Structure_dimension>  (3056) 
2D

$$$$
MS3174
     RDKit          2D

 25 28  0  0  0  0  0  0  0  0999 V2000
    1.7479   -1.4680    0.0000 C   0  0  0  0  0  0  0  0  0  0  0  0
    2.6075   -0.2388    0.0000 C   0  0  0  0  0  0  0  0  0  0  0  0
    3.2422   -1.5979    0.0000 C   0  0  0  0  0  0  0  0  0  0  0  0
    4.7366   -1.7278    0.0000 C   0  0  0  0  0  0  0  0  0  0  0  0
    5.5963   -0.4986    0.0000 C   0  0  0  0  0  0  0  0  0  0  0  0
    7.0906   -0.6285    0.0000 O   0  0  0  0  0  0  0  0  0  0  0  0
    4.9616    0.8605    0.0000 C   0  0  0  0  0  0  0  0  0  0  0  0
    3.4672    0.9904    0.0000 C   0  0  0  0  0  0  0  0  0  0  0  0
    2.8325    2.3495    0.0000 C   0  0  0  0  0  0  0  0  0  0  0  0
    1.3381    2.4794    0.0000 C   0  0  0  0  0  0  0  0  0  0  0  0
    0.4785    1.2502    0.0000 C   0  0  0  0  0  0  0  0  0  0  0  0
    1.1132   -0.1089    0.0000 C   0  0  0  0  0  0  0  0  0  0  0  0
    0.2535   -1.3382    0.0000 C   0  0  0  0  0  0  0  0  0  0  0  0
   -1.2409   -1.2083    0.0000 C   0  0  0  0  0  0  0  0  0  0  0  0
   -2.1005   -2.4375    0.0000 O   0  0  0  0  0  0  0  0  0  0  0  0
   -1.8756    0.1508    0.0000 C   0  0  0  0  0  0  0  0  0  0  0  0
   -2.8590   -0.9818    0.0000 C   0  0  0  0  0  0  0  0  0  0  0  0
   -3.3103    0.5886    0.0000 C   0  0  0  0  0  0  0  0  0  0  0  0
   -4.5077   -0.3148    0.0000 C   0  0  0  0  0  0  0  0  0  0  0  0
   -4.3241   -1.8035    0.0000 O   0  0  0  0  0  0  0  0  0  0  0  0
   -5.8888    0.2705    0.0000 C   0  0  0  0  0  0  0  0  0  0  0  0
   -7.0862   -0.6329    0.0000 O   0  0  0  0  0  0  0  0  0  0  0  0
   -3.3373    2.0883    0.0000 C   0  0  0  0  0  0  0  0  0  0  0  0
   -1.9193    2.5775    0.0000 C   0  0  0  0  0  0  0  0  0  0  0  0
   -1.0159    1.3800    0.0000 C   0  0  0  0  0  0  0  0  0  0  0  0
  2  1  1  1
  2  3  1  0
  3  4  1  0
  4  5  1  0
  5  6  1  6
  5  7  1  0
  8  7  1  6
  8  9  1  0
  9 10  1  0
 11 10  1  6
 11 12  1  0
 12 13  1  1
 13 14  1  0
 14 15  1  1
 14 16  1  0
 16 17  1  1
 16 18  1  0
 18 19  1  1
 19 20  2  0
 19 21  1  0
 21 22  1  0
 18 23  1  0
 23 24  1  0
 25 24  1  1
  8  2  1  0
 25 11  1  0
 12  2  1  0
 25 16  1  0
M  END
>  <MS_ID>  (3057) 
MS3174

>  <SMILES>  (3057) 
C[C@]12CC[C@@H](O)C[C@H]1CC[C@@H]1[C@@H]2C[C@@H](O)[C@]2(C)[C@@H](C(=O)CO)CC[C@@H]12

>  <Structure_dimension>  (3057) 
2D

$$$$
MS3175
     RDKit          2D

 24 27  0  0  0  0  0  0  0  0999 V2000
   -6.3735    0.1852    0.0000 C   0  0  0  0  0  0  0  0  0  0  0  0
   -4.9549    0.6726    0.0000 C   0  0  0  0  0  0  0  0  0  0  0  0
   -4.6677    2.1449    0.0000 O   0  0  0  0  0  0  0  0  0  0  0  0
   -3.8235   -0.3122    0.0000 C   0  0  0  0  0  0  0  0  0  0  0  0
   -3.9552   -1.8064    0.0000 C   0  0  0  0  0  0  0  0  0  0  0  0
   -2.5748   -2.3934    0.0000 C   0  0  0  0  0  0  0  0  0  0  0  0
   -1.5900   -1.2620    0.0000 C   0  0  0  0  0  0  0  0  0  0  0  0
   -0.0902   -1.2367    0.0000 C   0  0  0  0  0  0  0  0  0  0  0  0
    0.6816   -2.5230    0.0000 C   0  0  0  0  0  0  0  0  0  0  0  0
    2.1813   -2.4978    0.0000 C   0  0  0  0  0  0  0  0  0  0  0  0
    2.9094   -1.1863    0.0000 C   0  0  0  0  0  0  0  0  0  0  0  0
    4.4092   -1.1611    0.0000 C   0  0  0  0  0  0  0  0  0  0  0  0
    5.1372    0.1504    0.0000 C   0  0  0  0  0  0  0  0  0  0  0  0
    6.6370    0.1756    0.0000 O   0  0  0  0  0  0  0  0  0  0  0  0
    4.3655    1.4366    0.0000 C   0  0  0  0  0  0  0  0  0  0  0  0
    2.8657    1.4114    0.0000 C   0  0  0  0  0  0  0  0  0  0  0  0
    2.1377    0.0999    0.0000 C   0  0  0  0  0  0  0  0  0  0  0  0
    1.3659    1.3862    0.0000 C   0  0  0  0  0  0  0  0  0  0  0  0
    2.0940    2.6976    0.0000 O   0  0  0  0  0  0  0  0  0  0  0  0
    0.6379    0.0747    0.0000 C   0  0  0  0  0  0  0  0  0  0  0  0
   -0.1338    1.3610    0.0000 C   0  0  0  0  0  0  0  0  0  0  0  0
   -1.6336    1.3357    0.0000 C   0  0  0  0  0  0  0  0  0  0  0  0
   -2.3617    0.0243    0.0000 C   0  0  0  0  0  0  0  0  0  0  0  0
   -3.2636    1.2228    0.0000 C   0  0  0  0  0  0  0  0  0  0  0  0
  1  2  1  0
  2  3  2  0
  4  2  1  6
  4  5  1  0
  5  6  1  0
  7  6  1  6
  7  8  1  0
  8  9  1  1
  9 10  1  0
 11 10  1  6
 11 12  1  0
 12 13  1  0
 13 14  1  1
 13 15  1  0
 15 16  1  0
 16 17  1  0
 17 18  1  6
 18 19  1  0
 17 20  1  0
 20 21  1  6
 21 22  1  0
 22 23  1  0
 23 24  1  6
 23  4  1  0
 23  7  1  0
 20  8  1  0
 17 11  1  0
M  END
>  <MS_ID>  (3058) 
MS3175

>  <SMILES>  (3058) 
CC(=O)[C@H]1CC[C@H]2[C@@H]3CC[C@H]4C[C@H](O)CC[C@]4(CO)[C@H]3CC[C@]12C

>  <Structure_dimension>  (3058) 
2D

$$$$
MS3176
     RDKit          2D

 32 35  0  0  0  0  0  0  0  0999 V2000
   -3.8831   -2.8164    0.0000 C   0  0  0  0  0  0  0  0  0  0  0  0
   -2.8257   -1.7525    0.0000 C   0  0  0  0  0  0  0  0  0  0  0  0
   -3.2184   -0.3048    0.0000 C   0  0  0  0  0  0  0  0  0  0  0  0
   -4.6684    0.0790    0.0000 C   0  0  0  0  0  0  0  0  0  0  0  0
   -5.0611    1.5267    0.0000 C   0  0  0  0  0  0  0  0  0  0  0  0
   -6.5112    1.9105    0.0000 C   0  0  0  0  0  0  0  0  0  0  0  0
   -7.9613    2.2943    0.0000 C   0  0  0  0  0  0  0  0  0  0  0  0
   -6.1274    3.3606    0.0000 O   0  0  0  0  0  0  0  0  0  0  0  0
   -6.8950    0.4604    0.0000 C   0  0  0  0  0  0  0  0  0  0  0  0
   -8.3427    0.0678    0.0000 O   0  0  0  0  0  0  0  0  0  0  0  0
   -1.3756   -2.1363    0.0000 C   0  0  0  0  0  0  0  0  0  0  0  0
   -0.8338   -3.5350    0.0000 C   0  0  0  0  0  0  0  0  0  0  0  0
    0.6639   -3.4519    0.0000 C   0  0  0  0  0  0  0  0  0  0  0  0
    1.0477   -2.0018    0.0000 C   0  0  0  0  0  0  0  0  0  0  0  0
    2.3821   -1.3167    0.0000 C   0  0  0  0  0  0  0  0  0  0  0  0
    3.6426   -2.1298    0.0000 C   0  0  0  0  0  0  0  0  0  0  0  0
    3.5687   -3.6280    0.0000 O   0  0  0  0  0  0  0  0  0  0  0  0
    4.9770   -1.4448    0.0000 C   0  0  0  0  0  0  0  0  0  0  0  0
    5.0509    0.0534    0.0000 C   0  0  0  0  0  0  0  0  0  0  0  0
    6.3854    0.7385    0.0000 C   0  0  0  0  0  0  0  0  0  0  0  0
    6.4593    2.2367    0.0000 C   0  0  0  0  0  0  0  0  0  0  0  0
    7.7937    2.9218    0.0000 O   0  0  0  0  0  0  0  0  0  0  0  0
    5.1988    3.0498    0.0000 C   0  0  0  0  0  0  0  0  0  0  0  0
    3.8643    2.3647    0.0000 C   0  0  0  0  0  0  0  0  0  0  0  0
    3.7904    0.8665    0.0000 C   0  0  0  0  0  0  0  0  0  0  0  0
    2.5299    1.6796    0.0000 C   0  0  0  0  0  0  0  0  0  0  0  0
    2.4560    0.1814    0.0000 C   0  0  0  0  0  0  0  0  0  0  0  0
    1.1955    0.9946    0.0000 C   0  0  0  0  0  0  0  0  0  0  0  0
   -0.1389    0.3095    0.0000 C   0  0  0  0  0  0  0  0  0  0  0  0
   -1.3994    1.1226    0.0000 O   0  0  0  0  0  0  0  0  0  0  0  0
   -0.2128   -1.1887    0.0000 C   0  0  0  0  0  0  0  0  0  0  0  0
   -1.5514   -0.5118    0.0000 C   0  0  0  0  0  0  0  0  0  0  0  0
  2  1  1  6
  2  3  1  0
  3  4  1  0
  4  5  1  0
  5  6  1  0
  6  7  1  1
  6  8  1  0
  6  9  1  0
  9 10  1  0
  2 11  1  0
 11 12  1  6
 12 13  1  0
 14 13  1  6
 14 15  1  0
 15 16  1  1
 16 17  1  1
 16 18  1  0
 19 18  1  1
 19 20  1  0
 20 21  1  0
 21 22  1  1
 21 23  1  0
 23 24  1  0
 24 25  1  0
 25 26  1  6
 25 27  1  0
 27 28  1  6
 28 29  1  0
 29 30  1  1
 29 31  1  0
 31 32  1  6
 31 11  1  0
 31 14  1  0
 27 15  1  0
 25 19  1  0
M  END
>  <MS_ID>  (3059) 
MS3176

>  <SMILES>  (3059) 
C[C@H](CCC[C@@](C)(O)CO)[C@H]1CC[C@H]2[C@@H]3[C@H](O)C[C@@H]4C[C@H](O)CC[C@]4(C)[C@H]3C[C@H](O)[C@]12C

>  <Structure_dimension>  (3059) 
2D

$$$$
MS3177
     RDKit          2D

 24 27  0  0  0  0  0  0  0  0999 V2000
   -6.3133    0.0759    0.0000 C   0  0  0  0  0  0  0  0  0  0  0  0
   -4.9034    0.5880    0.0000 C   0  0  0  0  0  0  0  0  0  0  0  0
   -4.6421    2.0651    0.0000 O   0  0  0  0  0  0  0  0  0  0  0  0
   -3.7550   -0.3769    0.0000 C   0  0  0  0  0  0  0  0  0  0  0  0
   -3.8605   -1.8731    0.0000 C   0  0  0  0  0  0  0  0  0  0  0  0
   -2.4701   -2.4359    0.0000 C   0  0  0  0  0  0  0  0  0  0  0  0
   -1.5052   -1.2874    0.0000 C   0  0  0  0  0  0  0  0  0  0  0  0
   -0.0061   -1.2360    0.0000 C   0  0  0  0  0  0  0  0  0  0  0  0
    0.7880   -2.5085    0.0000 C   0  0  0  0  0  0  0  0  0  0  0  0
    2.2871   -2.4571    0.0000 C   0  0  0  0  0  0  0  0  0  0  0  0
    2.9922   -1.1331    0.0000 C   0  0  0  0  0  0  0  0  0  0  0  0
    4.4913   -1.0817    0.0000 C   0  0  0  0  0  0  0  0  0  0  0  0
    5.1963    0.2423    0.0000 C   0  0  0  0  0  0  0  0  0  0  0  0
    6.6954    0.2937    0.0000 O   0  0  0  0  0  0  0  0  0  0  0  0
    4.4022    1.5149    0.0000 C   0  0  0  0  0  0  0  0  0  0  0  0
    2.9031    1.4634    0.0000 C   0  0  0  0  0  0  0  0  0  0  0  0
    2.1981    0.1394    0.0000 C   0  0  0  0  0  0  0  0  0  0  0  0
    1.4040    1.4120    0.0000 C   0  0  0  0  0  0  0  0  0  0  0  0
    0.6989    0.0880    0.0000 C   0  0  0  0  0  0  0  0  0  0  0  0
   -0.0952    1.3606    0.0000 C   0  0  0  0  0  0  0  0  0  0  0  0
    0.6099    2.6845    0.0000 O   0  0  0  0  0  0  0  0  0  0  0  0
   -1.5943    1.3091    0.0000 C   0  0  0  0  0  0  0  0  0  0  0  0
   -2.2993   -0.0149    0.0000 C   0  0  0  0  0  0  0  0  0  0  0  0
   -3.2221    1.1677    0.0000 C   0  0  0  0  0  0  0  0  0  0  0  0
  1  2  1  0
  2  3  2  0
  4  2  1  6
  4  5  1  0
  5  6  1  0
  7  6  1  6
  7  8  1  0
  8  9  1  1
  9 10  1  0
 11 10  1  1
 11 12  1  0
 12 13  1  0
 13 14  1  1
 13 15  1  0
 15 16  1  0
 16 17  1  0
 17 18  1  6
 17 19  1  0
 19 20  1  6
 20 21  2  0
 20 22  1  0
 22 23  1  0
 23 24  1  6
 23  4  1  0
 23  7  1  0
 19  8  1  0
 17 11  1  0
M  END
>  <MS_ID>  (3060) 
MS3177

>  <SMILES>  (3060) 
CC(=O)[C@H]1CC[C@H]2[C@@H]3CC[C@@H]4C[C@H](O)CC[C@]4(C)[C@H]3C(=O)C[C@]12C

>  <Structure_dimension>  (3060) 
2D

$$$$
MS3178
     RDKit          2D

 36 40  0  0  0  0  0  0  0  0999 V2000
   -8.8959    0.2703    0.0000 C   0  0  0  0  0  0  0  0  0  0  0  0
   -7.8687   -0.8228    0.0000 C   0  0  0  0  0  0  0  0  0  0  0  0
   -8.3018   -2.2589    0.0000 O   0  0  0  0  0  0  0  0  0  0  0  0
   -6.4085   -0.4798    0.0000 C   0  0  0  0  0  0  0  0  0  0  0  0
   -7.0712    0.8659    0.0000 O   0  0  0  0  0  0  0  0  0  0  0  0
   -6.2200   -1.9679    0.0000 C   0  0  0  0  0  0  0  0  0  0  0  0
   -4.7465   -2.2484    0.0000 C   0  0  0  0  0  0  0  0  0  0  0  0
   -4.0243   -0.9337    0.0000 C   0  0  0  0  0  0  0  0  0  0  0  0
   -2.5640   -0.5907    0.0000 C   0  0  0  0  0  0  0  0  0  0  0  0
   -1.5368   -1.6838    0.0000 C   0  0  0  0  0  0  0  0  0  0  0  0
   -0.0766   -1.3408    0.0000 C   0  0  0  0  0  0  0  0  0  0  0  0
    0.3565    0.0953    0.0000 C   0  0  0  0  0  0  0  0  0  0  0  0
    1.8168    0.4383    0.0000 C   0  0  0  0  0  0  0  0  0  0  0  0
    2.2498    1.8744    0.0000 C   0  0  0  0  0  0  0  0  0  0  0  0
    3.7101    2.2175    0.0000 O   0  0  0  0  0  0  0  0  0  0  0  0
    4.7373    1.1243    0.0000 C   0  0  0  0  0  0  0  0  0  0  0  0
    4.3042   -0.3118    0.0000 O   0  0  0  0  0  0  0  0  0  0  0  0
    5.3314   -1.4049    0.0000 C   0  0  0  0  0  0  0  0  0  0  0  0
    4.8983   -2.8410    0.0000 C   0  0  0  0  0  0  0  0  0  0  0  0
    5.9255   -3.9341    0.0000 O   0  0  0  0  0  0  0  0  0  0  0  0
    3.4381   -3.1840    0.0000 O   0  0  0  0  0  0  0  0  0  0  0  0
    6.7916   -1.0619    0.0000 C   0  0  0  0  0  0  0  0  0  0  0  0
    7.8188   -2.1550    0.0000 O   0  0  0  0  0  0  0  0  0  0  0  0
    7.2247    0.3743    0.0000 C   0  0  0  0  0  0  0  0  0  0  0  0
    8.6850    0.7173    0.0000 O   0  0  0  0  0  0  0  0  0  0  0  0
    6.1975    1.4674    0.0000 C   0  0  0  0  0  0  0  0  0  0  0  0
    6.6306    2.9035    0.0000 O   0  0  0  0  0  0  0  0  0  0  0  0
    1.2226    2.9676    0.0000 C   0  0  0  0  0  0  0  0  0  0  0  0
   -0.2376    2.6245    0.0000 C   0  0  0  0  0  0  0  0  0  0  0  0
   -0.6707    1.1884    0.0000 C   0  0  0  0  0  0  0  0  0  0  0  0
   -1.6979    2.2815    0.0000 C   0  0  0  0  0  0  0  0  0  0  0  0
   -2.1309    0.8454    0.0000 C   0  0  0  0  0  0  0  0  0  0  0  0
   -3.1581    1.9385    0.0000 C   0  0  0  0  0  0  0  0  0  0  0  0
   -4.6184    1.5955    0.0000 C   0  0  0  0  0  0  0  0  0  0  0  0
   -5.0514    0.1594    0.0000 C   0  0  0  0  0  0  0  0  0  0  0  0
   -6.0594    1.2703    0.0000 C   0  0  0  0  0  0  0  0  0  0  0  0
  1  2  1  0
  2  3  2  0
  2  4  1  0
  4  5  1  1
  4  6  1  0
  6  7  1  0
  8  7  1  6
  8  9  1  0
  9 10  1  1
 10 11  1  0
 12 11  1  1
 12 13  1  0
 13 14  1  0
 14 15  1  1
 16 15  1  1
 16 17  1  0
 17 18  1  0
 18 19  1  1
 19 20  2  0
 19 21  1  0
 18 22  1  0
 22 23  1  6
 22 24  1  0
 24 25  1  1
 24 26  1  0
 26 27  1  6
 14 28  1  0
 28 29  1  0
 29 30  1  0
 30 31  1  6
 30 32  1  0
 32 33  1  6
 33 34  1  0
 34 35  1  0
 35 36  1  6
 35  4  1  0
 35  8  1  0
 32  9  1  0
 30 12  1  0
 26 16  1  0
M  END
>  <MS_ID>  (3061) 
MS3178

>  <SMILES>  (3061) 
CC(=O)[C@@]1(O)CC[C@H]2[C@@H]3CC[C@@H]4C[C@H](O[C@@H]5O[C@H](C(=O)O)[C@@H](O)[C@H](O)[C@H]5O)CC[C@]4(C)[C@H]3CC[C@@]21C

>  <Structure_dimension>  (3061) 
2D

$$$$
MS3179
     RDKit          2D

 35 38  0  0  0  0  0  0  0  0999 V2000
   -5.0140   -3.2776    0.0000 C   0  0  0  0  0  0  0  0  0  0  0  0
   -3.9623   -2.2080    0.0000 C   0  0  0  0  0  0  0  0  0  0  0  0
   -4.3628   -0.7624    0.0000 C   0  0  0  0  0  0  0  0  0  0  0  0
   -5.8149   -0.3865    0.0000 C   0  0  0  0  0  0  0  0  0  0  0  0
   -6.2153    1.0591    0.0000 C   0  0  0  0  0  0  0  0  0  0  0  0
   -7.6674    1.4351    0.0000 O   0  0  0  0  0  0  0  0  0  0  0  0
   -8.0679    2.8806    0.0000 S   0  0  0  0  0  0  0  0  0  0  0  0
   -6.6223    3.2811    0.0000 O   0  0  0  0  0  0  0  0  0  0  0  0
   -9.5135    2.4802    0.0000 O   0  0  0  0  0  0  0  0  0  0  0  0
   -8.4684    4.3262    0.0000 O   0  0  0  0  0  0  0  0  0  0  0  0
   -2.5102   -2.5840    0.0000 C   0  0  0  0  0  0  0  0  0  0  0  0
   -1.9608   -3.9798    0.0000 C   0  0  0  0  0  0  0  0  0  0  0  0
   -0.4636   -3.8886    0.0000 C   0  0  0  0  0  0  0  0  0  0  0  0
   -0.0876   -2.4365    0.0000 C   0  0  0  0  0  0  0  0  0  0  0  0
    1.2431   -1.7442    0.0000 C   0  0  0  0  0  0  0  0  0  0  0  0
    2.5079   -2.5505    0.0000 C   0  0  0  0  0  0  0  0  0  0  0  0
    2.4421   -4.0491    0.0000 O   0  0  0  0  0  0  0  0  0  0  0  0
    3.8387   -1.8583    0.0000 C   0  0  0  0  0  0  0  0  0  0  0  0
    3.9045   -0.3597    0.0000 C   0  0  0  0  0  0  0  0  0  0  0  0
    5.2352    0.3325    0.0000 C   0  0  0  0  0  0  0  0  0  0  0  0
    5.3011    1.8311    0.0000 C   0  0  0  0  0  0  0  0  0  0  0  0
    6.6318    2.5233    0.0000 O   0  0  0  0  0  0  0  0  0  0  0  0
    7.8966    1.7170    0.0000 S   0  0  0  0  0  0  0  0  0  0  0  0
    7.0903    0.4521    0.0000 O   0  0  0  0  0  0  0  0  0  0  0  0
    8.7029    2.9819    0.0000 O   0  0  0  0  0  0  0  0  0  0  0  0
    9.1615    0.9107    0.0000 O   0  0  0  0  0  0  0  0  0  0  0  0
    4.0362    2.6374    0.0000 C   0  0  0  0  0  0  0  0  0  0  0  0
    2.7055    1.9451    0.0000 C   0  0  0  0  0  0  0  0  0  0  0  0
    2.6396    0.4466    0.0000 C   0  0  0  0  0  0  0  0  0  0  0  0
    1.3748    1.2529    0.0000 C   0  0  0  0  0  0  0  0  0  0  0  0
    1.3089   -0.2457    0.0000 C   0  0  0  0  0  0  0  0  0  0  0  0
    0.0441    0.5606    0.0000 C   0  0  0  0  0  0  0  0  0  0  0  0
   -1.2866   -0.1316    0.0000 C   0  0  0  0  0  0  0  0  0  0  0  0
   -1.3525   -1.6302    0.0000 C   0  0  0  0  0  0  0  0  0  0  0  0
   -2.6947   -0.9605    0.0000 C   0  0  0  0  0  0  0  0  0  0  0  0
  2  1  1  6
  2  3  1  0
  3  4  1  0
  4  5  1  0
  5  6  1  0
  6  7  1  0
  7  8  2  0
  7  9  2  0
  7 10  1  0
  2 11  1  0
 11 12  1  6
 12 13  1  0
 14 13  1  6
 14 15  1  0
 15 16  1  1
 16 17  1  6
 16 18  1  0
 19 18  1  1
 19 20  1  0
 20 21  1  0
 21 22  1  1
 22 23  1  0
 23 24  2  0
 23 25  2  0
 23 26  1  0
 21 27  1  0
 27 28  1  0
 28 29  1  0
 29 30  1  6
 29 31  1  0
 31 32  1  6
 32 33  1  0
 33 34  1  0
 34 35  1  6
 34 11  1  0
 34 14  1  0
 31 15  1  0
 29 19  1  0
M  END
>  <MS_ID>  (3062) 
MS3179

>  <SMILES>  (3062) 
C[C@H](CCCOS(=O)(=O)O)[C@H]1CC[C@H]2[C@@H]3[C@@H](O)C[C@@H]4C[C@H](OS(=O)(=O)O)CC[C@]4(C)[C@H]3CC[C@]12C

>  <Structure_dimension>  (3062) 
2D

$$$$
MS3180
     RDKit          2D

 32 35  0  0  0  0  0  0  0  0999 V2000
   -3.1421   -3.6694    0.0000 C   0  0  0  0  0  0  0  0  0  0  0  0
   -2.2628   -2.4541    0.0000 C   0  0  0  0  0  0  0  0  0  0  0  0
   -2.8756   -1.0850    0.0000 C   0  0  0  0  0  0  0  0  0  0  0  0
   -4.3676   -0.9311    0.0000 C   0  0  0  0  0  0  0  0  0  0  0  0
   -4.9804    0.4380    0.0000 C   0  0  0  0  0  0  0  0  0  0  0  0
   -4.1011    1.6532    0.0000 S   0  0  0  0  0  0  0  0  0  0  0  0
   -6.4725    0.5919    0.0000 N   0  0  0  0  0  0  0  0  0  0  0  0
   -7.0853    1.9610    0.0000 C   0  0  0  0  0  0  0  0  0  0  0  0
   -8.5774    2.1149    0.0000 C   0  0  0  0  0  0  0  0  0  0  0  0
   -9.4567    0.8996    0.0000 O   0  0  0  0  0  0  0  0  0  0  0  0
   -9.1901    3.4840    0.0000 O   0  0  0  0  0  0  0  0  0  0  0  0
   -0.7707   -2.6080    0.0000 C   0  0  0  0  0  0  0  0  0  0  0  0
   -0.0182   -3.9056    0.0000 C   0  0  0  0  0  0  0  0  0  0  0  0
    1.4484   -3.5909    0.0000 C   0  0  0  0  0  0  0  0  0  0  0  0
    1.6023   -2.0988    0.0000 C   0  0  0  0  0  0  0  0  0  0  0  0
    2.8141   -1.2147    0.0000 C   0  0  0  0  0  0  0  0  0  0  0  0
    4.1856   -1.8222    0.0000 C   0  0  0  0  0  0  0  0  0  0  0  0
    4.3453   -3.3136    0.0000 O   0  0  0  0  0  0  0  0  0  0  0  0
    5.3974   -0.9381    0.0000 C   0  0  0  0  0  0  0  0  0  0  0  0
    5.2377    0.5533    0.0000 C   0  0  0  0  0  0  0  0  0  0  0  0
    6.4495    1.4374    0.0000 C   0  0  0  0  0  0  0  0  0  0  0  0
    6.2898    2.9289    0.0000 C   0  0  0  0  0  0  0  0  0  0  0  0
    7.5016    3.8129    0.0000 O   0  0  0  0  0  0  0  0  0  0  0  0
    4.9183    3.5363    0.0000 C   0  0  0  0  0  0  0  0  0  0  0  0
    3.7065    2.6522    0.0000 C   0  0  0  0  0  0  0  0  0  0  0  0
    3.8662    1.1608    0.0000 C   0  0  0  0  0  0  0  0  0  0  0  0
    2.4947    1.7682    0.0000 C   0  0  0  0  0  0  0  0  0  0  0  0
    2.6544    0.2767    0.0000 C   0  0  0  0  0  0  0  0  0  0  0  0
    1.2829    0.8842    0.0000 C   0  0  0  0  0  0  0  0  0  0  0  0
    0.0711    0.0001    0.0000 C   0  0  0  0  0  0  0  0  0  0  0  0
    0.2308   -1.4914    0.0000 C   0  0  0  0  0  0  0  0  0  0  0  0
   -1.1967   -1.0306    0.0000 C   0  0  0  0  0  0  0  0  0  0  0  0
  2  1  1  6
  2  3  1  0
  3  4  1  0
  4  5  1  0
  5  6  2  0
  5  7  1  0
  7  8  1  0
  8  9  1  0
  9 10  2  0
  9 11  1  0
  2 12  1  0
 12 13  1  6
 13 14  1  0
 15 14  1  6
 15 16  1  0
 16 17  1  1
 17 18  1  6
 17 19  1  0
 20 19  1  1
 20 21  1  0
 21 22  1  0
 22 23  1  1
 22 24  1  0
 24 25  1  0
 25 26  1  0
 26 27  1  6
 26 28  1  0
 28 29  1  6
 29 30  1  0
 30 31  1  0
 31 32  1  6
 31 12  1  0
 31 15  1  0
 28 16  1  0
 26 20  1  0
M  END
>  <MS_ID>  (3063) 
MS3180

>  <SMILES>  (3063) 
C[C@H](CCC(=S)NCC(=O)O)[C@H]1CC[C@H]2[C@@H]3[C@@H](O)C[C@@H]4C[C@H](O)CC[C@]4(C)[C@H]3CC[C@]12C

>  <Structure_dimension>  (3063) 
2D

$$$$
MS3181
     RDKit          2D

 29 32  0  0  0  0  0  0  0  0999 V2000
    1.0647   -1.2040    0.0000 C   0  0  0  0  0  0  0  0  0  0  0  0
    1.7097    0.1503    0.0000 C   0  0  0  0  0  0  0  0  0  0  0  0
    2.5600   -1.0854    0.0000 C   0  0  0  0  0  0  0  0  0  0  0  0
    4.0553   -0.9668    0.0000 C   0  0  0  0  0  0  0  0  0  0  0  0
    4.7003    0.3875    0.0000 C   0  0  0  0  0  0  0  0  0  0  0  0
    6.1956    0.5061    0.0000 O   0  0  0  0  0  0  0  0  0  0  0  0
    7.0459   -0.7295    0.0000 S   0  0  0  0  0  0  0  0  0  0  0  0
    5.8103   -1.5799    0.0000 O   0  0  0  0  0  0  0  0  0  0  0  0
    8.2816    0.1208    0.0000 O   0  0  0  0  0  0  0  0  0  0  0  0
    7.8963   -1.9652    0.0000 O   0  0  0  0  0  0  0  0  0  0  0  0
    3.8499    1.6232    0.0000 C   0  0  0  0  0  0  0  0  0  0  0  0
    2.3546    1.5046    0.0000 C   0  0  0  0  0  0  0  0  0  0  0  0
    1.5042    2.7402    0.0000 C   0  0  0  0  0  0  0  0  0  0  0  0
    0.0089    2.6216    0.0000 C   0  0  0  0  0  0  0  0  0  0  0  0
   -0.6360    1.2673    0.0000 C   0  0  0  0  0  0  0  0  0  0  0  0
    0.2143    0.0317    0.0000 C   0  0  0  0  0  0  0  0  0  0  0  0
   -0.4306   -1.3226    0.0000 C   0  0  0  0  0  0  0  0  0  0  0  0
   -1.9259   -1.4412    0.0000 C   0  0  0  0  0  0  0  0  0  0  0  0
   -2.7763   -0.2056    0.0000 C   0  0  0  0  0  0  0  0  0  0  0  0
   -3.5592   -1.4850    0.0000 C   0  0  0  0  0  0  0  0  0  0  0  0
   -4.2635   -0.0107    0.0000 C   0  0  0  0  0  0  0  0  0  0  0  0
   -5.2954   -1.0994    0.0000 O   0  0  0  0  0  0  0  0  0  0  0  0
   -6.7542   -0.7501    0.0000 S   0  0  0  0  0  0  0  0  0  0  0  0
   -6.4049    0.7086    0.0000 O   0  0  0  0  0  0  0  0  0  0  0  0
   -7.1034   -2.2089    0.0000 O   0  0  0  0  0  0  0  0  0  0  0  0
   -8.2129   -0.4009    0.0000 O   0  0  0  0  0  0  0  0  0  0  0  0
   -4.5378    1.4640    0.0000 C   0  0  0  0  0  0  0  0  0  0  0  0
   -3.2200    2.1806    0.0000 C   0  0  0  0  0  0  0  0  0  0  0  0
   -2.1313    1.1487    0.0000 C   0  0  0  0  0  0  0  0  0  0  0  0
  2  1  1  1
  2  3  1  0
  3  4  1  0
  4  5  1  0
  5  6  1  6
  6  7  1  0
  7  8  2  0
  7  9  2  0
  7 10  1  0
  5 11  1  0
 12 11  1  6
 12 13  1  0
 13 14  1  0
 15 14  1  6
 15 16  1  0
 16 17  1  1
 17 18  1  0
 18 19  1  0
 19 20  1  1
 19 21  1  0
 21 22  1  1
 22 23  1  0
 23 24  2  0
 23 25  2  0
 23 26  1  0
 21 27  1  0
 27 28  1  0
 29 28  1  1
 12  2  1  0
 29 15  1  0
 16  2  1  0
 29 19  1  0
M  END
>  <MS_ID>  (3064) 
MS3181

>  <SMILES>  (3064) 
C[C@]12CC[C@@H](OS(=O)(=O)O)C[C@H]1CC[C@@H]1[C@@H]2CC[C@]2(C)[C@@H](OS(=O)(=O)O)CC[C@@H]12

>  <Structure_dimension>  (3064) 
2D

$$$$
MS3182
     RDKit          2D

 35 38  0  0  0  0  0  0  0  0999 V2000
   -0.5650   -4.6518    0.0000 C   0  0  0  0  0  0  0  0  0  0  0  0
    0.0419   -3.2801    0.0000 C   0  0  0  0  0  0  0  0  0  0  0  0
   -0.8426   -2.0686    0.0000 C   0  0  0  0  0  0  0  0  0  0  0  0
   -2.3340   -2.2289    0.0000 C   0  0  0  0  0  0  0  0  0  0  0  0
   -3.2185   -1.0174    0.0000 C   0  0  0  0  0  0  0  0  0  0  0  0
   -2.6116    0.3543    0.0000 O   0  0  0  0  0  0  0  0  0  0  0  0
   -4.7100   -1.1777    0.0000 N   0  0  0  0  0  0  0  0  0  0  0  0
   -5.5945    0.0338    0.0000 C   0  0  0  0  0  0  0  0  0  0  0  0
   -7.0859   -0.1265    0.0000 C   0  0  0  0  0  0  0  0  0  0  0  0
   -7.9704    1.0850    0.0000 C   0  0  0  0  0  0  0  0  0  0  0  0
   -9.4618    0.9247    0.0000 C   0  0  0  0  0  0  0  0  0  0  0  0
  -10.3463    2.1362    0.0000 C   0  0  0  0  0  0  0  0  0  0  0  0
  -11.8377    1.9759    0.0000 C   0  0  0  0  0  0  0  0  0  0  0  0
  -12.4446    0.6042    0.0000 O   0  0  0  0  0  0  0  0  0  0  0  0
  -12.7222    3.1874    0.0000 O   0  0  0  0  0  0  0  0  0  0  0  0
    1.5333   -3.1198    0.0000 C   0  0  0  0  0  0  0  0  0  0  0  0
    2.5396   -4.2322    0.0000 C   0  0  0  0  0  0  0  0  0  0  0  0
    3.9085   -3.6189    0.0000 C   0  0  0  0  0  0  0  0  0  0  0  0
    3.7482   -2.1275    0.0000 C   0  0  0  0  0  0  0  0  0  0  0  0
    4.7493   -1.0104    0.0000 C   0  0  0  0  0  0  0  0  0  0  0  0
    6.2172   -1.3189    0.0000 C   0  0  0  0  0  0  0  0  0  0  0  0
    7.2183   -0.2018    0.0000 C   0  0  0  0  0  0  0  0  0  0  0  0
    6.7515    1.2237    0.0000 C   0  0  0  0  0  0  0  0  0  0  0  0
    7.7526    2.3407    0.0000 C   0  0  0  0  0  0  0  0  0  0  0  0
    7.2857    3.7662    0.0000 C   0  0  0  0  0  0  0  0  0  0  0  0
    8.2868    4.8833    0.0000 O   0  0  0  0  0  0  0  0  0  0  0  0
    5.8178    4.0747    0.0000 C   0  0  0  0  0  0  0  0  0  0  0  0
    4.8167    2.9576    0.0000 C   0  0  0  0  0  0  0  0  0  0  0  0
    5.2835    1.5321    0.0000 C   0  0  0  0  0  0  0  0  0  0  0  0
    3.8156    1.8406    0.0000 C   0  0  0  0  0  0  0  0  0  0  0  0
    4.2824    0.4151    0.0000 C   0  0  0  0  0  0  0  0  0  0  0  0
    2.8145    0.7235    0.0000 C   0  0  0  0  0  0  0  0  0  0  0  0
    1.8134   -0.3935    0.0000 C   0  0  0  0  0  0  0  0  0  0  0  0
    2.2803   -1.8190    0.0000 C   0  0  0  0  0  0  0  0  0  0  0  0
    0.7881   -1.6657    0.0000 C   0  0  0  0  0  0  0  0  0  0  0  0
  2  1  1  6
  2  3  1  0
  3  4  1  0
  4  5  1  0
  5  6  2  0
  5  7  1  0
  7  8  1  0
  8  9  1  0
  9 10  1  0
 10 11  1  0
 11 12  1  0
 12 13  1  0
 13 14  2  0
 13 15  1  0
  2 16  1  0
 16 17  1  6
 17 18  1  0
 19 18  1  6
 19 20  1  0
 20 21  1  1
 21 22  1  0
 23 22  1  1
 23 24  1  0
 24 25  1  0
 25 26  1  1
 25 27  1  0
 27 28  1  0
 28 29  1  0
 29 30  1  6
 29 31  1  0
 31 32  1  6
 32 33  1  0
 33 34  1  0
 34 35  1  6
 34 16  1  0
 34 19  1  0
 31 20  1  0
 29 23  1  0
M  END
>  <MS_ID>  (3065) 
MS3182

>  <SMILES>  (3065) 
C[C@H](CCC(=O)NCCCCCC(=O)O)[C@H]1CC[C@H]2[C@@H]3CC[C@@H]4C[C@H](O)CC[C@]4(C)[C@H]3CC[C@]12C

>  <Structure_dimension>  (3065) 
2D

$$$$
MS3183
     RDKit          2D

 38 41  0  0  0  0  0  0  0  0999 V2000
   -0.0858   -4.8018    0.0000 C   0  0  0  0  0  0  0  0  0  0  0  0
    0.4920   -3.4175    0.0000 C   0  0  0  0  0  0  0  0  0  0  0  0
   -0.4179   -2.2250    0.0000 C   0  0  0  0  0  0  0  0  0  0  0  0
   -1.9056   -2.4168    0.0000 C   0  0  0  0  0  0  0  0  0  0  0  0
   -2.8155   -1.2242    0.0000 C   0  0  0  0  0  0  0  0  0  0  0  0
   -2.2377    0.1600    0.0000 O   0  0  0  0  0  0  0  0  0  0  0  0
   -4.3032   -1.4160    0.0000 N   0  0  0  0  0  0  0  0  0  0  0  0
   -5.2131   -0.2235    0.0000 C   0  0  0  0  0  0  0  0  0  0  0  0
   -6.7008   -0.4152    0.0000 C   0  0  0  0  0  0  0  0  0  0  0  0
   -7.6107    0.7773    0.0000 C   0  0  0  0  0  0  0  0  0  0  0  0
   -9.0984    0.5855    0.0000 C   0  0  0  0  0  0  0  0  0  0  0  0
  -10.0083    1.7781    0.0000 N   0  0  0  0  0  0  0  0  0  0  0  0
  -11.4960    1.5863    0.0000 C   0  0  0  0  0  0  0  0  0  0  0  0
  -12.4059    2.7788    0.0000 N   0  0  0  0  0  0  0  0  0  0  0  0
  -12.0738    0.2021    0.0000 O   0  0  0  0  0  0  0  0  0  0  0  0
   -4.6353    1.1608    0.0000 C   0  0  0  0  0  0  0  0  0  0  0  0
   -3.1476    1.3525    0.0000 O   0  0  0  0  0  0  0  0  0  0  0  0
   -5.5452    2.3533    0.0000 O   0  0  0  0  0  0  0  0  0  0  0  0
    1.9797   -3.2258    0.0000 C   0  0  0  0  0  0  0  0  0  0  0  0
    3.0092   -4.3166    0.0000 C   0  0  0  0  0  0  0  0  0  0  0  0
    4.3649   -3.6746    0.0000 C   0  0  0  0  0  0  0  0  0  0  0  0
    4.1731   -2.1869    0.0000 C   0  0  0  0  0  0  0  0  0  0  0  0
    5.1504   -1.0489    0.0000 C   0  0  0  0  0  0  0  0  0  0  0  0
    6.6245   -1.3263    0.0000 C   0  0  0  0  0  0  0  0  0  0  0  0
    7.6018   -0.1883    0.0000 C   0  0  0  0  0  0  0  0  0  0  0  0
    7.1049    1.2270    0.0000 C   0  0  0  0  0  0  0  0  0  0  0  0
    8.0822    2.3650    0.0000 C   0  0  0  0  0  0  0  0  0  0  0  0
    7.5853    3.7803    0.0000 C   0  0  0  0  0  0  0  0  0  0  0  0
    8.5626    4.9182    0.0000 O   0  0  0  0  0  0  0  0  0  0  0  0
    6.1112    4.0576    0.0000 C   0  0  0  0  0  0  0  0  0  0  0  0
    5.1339    2.9197    0.0000 C   0  0  0  0  0  0  0  0  0  0  0  0
    5.6308    1.5044    0.0000 C   0  0  0  0  0  0  0  0  0  0  0  0
    4.1567    1.7817    0.0000 C   0  0  0  0  0  0  0  0  0  0  0  0
    4.6535    0.3664    0.0000 C   0  0  0  0  0  0  0  0  0  0  0  0
    3.1794    0.6438    0.0000 C   0  0  0  0  0  0  0  0  0  0  0  0
    2.2021   -0.4942    0.0000 C   0  0  0  0  0  0  0  0  0  0  0  0
    2.6990   -1.9095    0.0000 C   0  0  0  0  0  0  0  0  0  0  0  0
    1.2039   -1.7877    0.0000 C   0  0  0  0  0  0  0  0  0  0  0  0
  2  1  1  6
  2  3  1  0
  3  4  1  0
  4  5  1  0
  5  6  2  0
  5  7  1  0
  7  8  1  0
  8  9  1  1
  9 10  1  0
 10 11  1  0
 11 12  1  0
 12 13  1  0
 13 14  1  0
 13 15  2  0
  8 16  1  0
 16 17  2  0
 16 18  1  0
  2 19  1  0
 19 20  1  6
 20 21  1  0
 22 21  1  6
 22 23  1  0
 23 24  1  1
 24 25  1  0
 26 25  1  1
 26 27  1  0
 27 28  1  0
 28 29  1  1
 28 30  1  0
 30 31  1  0
 31 32  1  0
 32 33  1  6
 32 34  1  0
 34 35  1  6
 35 36  1  0
 36 37  1  0
 37 38  1  6
 37 19  1  0
 37 22  1  0
 34 23  1  0
 32 26  1  0
M  END
>  <MS_ID>  (3066) 
MS3183

>  <SMILES>  (3066) 
C[C@H](CCC(=O)N[C@@H](CCCNC(N)=O)C(=O)O)[C@H]1CC[C@H]2[C@@H]3CC[C@@H]4C[C@H](O)CC[C@]4(C)[C@H]3CC[C@]12C

>  <Structure_dimension>  (3066) 
2D

$$$$
MS3184
     RDKit          2D

 37 40  0  0  0  0  0  0  0  0999 V2000
   -1.8349   -4.5052    0.0000 C   0  0  0  0  0  0  0  0  0  0  0  0
   -1.1795   -3.1559    0.0000 C   0  0  0  0  0  0  0  0  0  0  0  0
   -2.0203   -1.9137    0.0000 C   0  0  0  0  0  0  0  0  0  0  0  0
   -3.5164   -2.0207    0.0000 C   0  0  0  0  0  0  0  0  0  0  0  0
   -4.3572   -0.7785    0.0000 C   0  0  0  0  0  0  0  0  0  0  0  0
   -3.7018    0.5707    0.0000 O   0  0  0  0  0  0  0  0  0  0  0  0
   -5.8534   -0.8855    0.0000 N   0  0  0  0  0  0  0  0  0  0  0  0
   -6.6942    0.3567    0.0000 C   0  0  0  0  0  0  0  0  0  0  0  0
   -8.1903    0.2497    0.0000 C   0  0  0  0  0  0  0  0  0  0  0  0
   -9.0311    1.4919    0.0000 C   0  0  0  0  0  0  0  0  0  0  0  0
   -8.3757    2.8411    0.0000 O   0  0  0  0  0  0  0  0  0  0  0  0
  -10.5273    1.3849    0.0000 O   0  0  0  0  0  0  0  0  0  0  0  0
   -6.0388    1.7059    0.0000 C   0  0  0  0  0  0  0  0  0  0  0  0
   -4.5426    1.8129    0.0000 O   0  0  0  0  0  0  0  0  0  0  0  0
   -6.8795    2.9481    0.0000 O   0  0  0  0  0  0  0  0  0  0  0  0
    0.3167   -3.0489    0.0000 C   0  0  0  0  0  0  0  0  0  0  0  0
    1.2827   -4.1964    0.0000 C   0  0  0  0  0  0  0  0  0  0  0  0
    2.6726   -3.6323    0.0000 C   0  0  0  0  0  0  0  0  0  0  0  0
    2.5655   -2.1361    0.0000 C   0  0  0  0  0  0  0  0  0  0  0  0
    3.6058   -1.0555    0.0000 C   0  0  0  0  0  0  0  0  0  0  0  0
    5.0618   -1.4160    0.0000 C   0  0  0  0  0  0  0  0  0  0  0  0
    5.4776   -2.8572    0.0000 O   0  0  0  0  0  0  0  0  0  0  0  0
    6.1021   -0.3353    0.0000 C   0  0  0  0  0  0  0  0  0  0  0  0
    7.5581   -0.6959    0.0000 O   0  0  0  0  0  0  0  0  0  0  0  0
    5.6863    1.1059    0.0000 C   0  0  0  0  0  0  0  0  0  0  0  0
    6.7266    2.1866    0.0000 C   0  0  0  0  0  0  0  0  0  0  0  0
    6.3109    3.6278    0.0000 C   0  0  0  0  0  0  0  0  0  0  0  0
    7.3511    4.7085    0.0000 O   0  0  0  0  0  0  0  0  0  0  0  0
    4.8548    3.9884    0.0000 C   0  0  0  0  0  0  0  0  0  0  0  0
    3.8146    2.9077    0.0000 C   0  0  0  0  0  0  0  0  0  0  0  0
    4.2303    1.4664    0.0000 C   0  0  0  0  0  0  0  0  0  0  0  0
    2.7743    1.8270    0.0000 C   0  0  0  0  0  0  0  0  0  0  0  0
    3.1901    0.3858    0.0000 C   0  0  0  0  0  0  0  0  0  0  0  0
    1.7340    0.7463    0.0000 C   0  0  0  0  0  0  0  0  0  0  0  0
    0.6938   -0.3343    0.0000 C   0  0  0  0  0  0  0  0  0  0  0  0
    1.1095   -1.7756    0.0000 C   0  0  0  0  0  0  0  0  0  0  0  0
   -0.3762   -1.5692    0.0000 C   0  0  0  0  0  0  0  0  0  0  0  0
  2  1  1  6
  2  3  1  0
  3  4  1  0
  4  5  1  0
  5  6  2  0
  5  7  1  0
  7  8  1  0
  8  9  1  1
  9 10  1  0
 10 11  2  0
 10 12  1  0
  8 13  1  0
 13 14  2  0
 13 15  1  0
  2 16  1  0
 16 17  1  6
 17 18  1  0
 19 18  1  6
 19 20  1  0
 20 21  1  1
 21 22  1  1
 21 23  1  0
 23 24  1  6
 23 25  1  0
 25 26  1  1
 26 27  1  0
 27 28  1  1
 27 29  1  0
 29 30  1  0
 30 31  1  0
 31 32  1  6
 31 33  1  0
 33 34  1  6
 34 35  1  0
 35 36  1  0
 36 37  1  6
 36 16  1  0
 36 19  1  0
 33 20  1  0
 31 25  1  0
M  END
>  <MS_ID>  (3067) 
MS3184

>  <SMILES>  (3067) 
C[C@H](CCC(=O)N[C@@H](CC(=O)O)C(=O)O)[C@H]1CC[C@H]2[C@@H]3[C@H](O)[C@@H](O)[C@@H]4C[C@H](O)CC[C@]4(C)[C@H]3CC[C@]12C

>  <Structure_dimension>  (3067) 
2D

$$$$
MS3185
     RDKit          2D

 32 35  0  0  0  0  0  0  0  0999 V2000
   -3.1421   -3.6694    0.0000 C   0  0  0  0  0  0  0  0  0  0  0  0
   -2.2628   -2.4541    0.0000 C   0  0  0  0  0  0  0  0  0  0  0  0
   -2.8756   -1.0850    0.0000 C   0  0  0  0  0  0  0  0  0  0  0  0
   -4.3676   -0.9311    0.0000 C   0  0  0  0  0  0  0  0  0  0  0  0
   -4.9804    0.4380    0.0000 C   0  0  0  0  0  0  0  0  0  0  0  0
   -4.1011    1.6532    0.0000 O   0  0  0  0  0  0  0  0  0  0  0  0
   -6.4725    0.5919    0.0000 N   0  0  0  0  0  0  0  0  0  0  0  0
   -7.0853    1.9610    0.0000 C   0  0  0  0  0  0  0  0  0  0  0  0
   -8.5774    2.1149    0.0000 C   0  0  0  0  0  0  0  0  0  0  0  0
   -9.4567    0.8996    0.0000 O   0  0  0  0  0  0  0  0  0  0  0  0
   -9.1901    3.4840    0.0000 O   0  0  0  0  0  0  0  0  0  0  0  0
   -0.7707   -2.6080    0.0000 C   0  0  0  0  0  0  0  0  0  0  0  0
   -0.0182   -3.9056    0.0000 C   0  0  0  0  0  0  0  0  0  0  0  0
    1.4484   -3.5909    0.0000 O   0  0  0  0  0  0  0  0  0  0  0  0
    1.6023   -2.0988    0.0000 C   0  0  0  0  0  0  0  0  0  0  0  0
    2.8141   -1.2147    0.0000 C   0  0  0  0  0  0  0  0  0  0  0  0
    4.1856   -1.8222    0.0000 C   0  0  0  0  0  0  0  0  0  0  0  0
    4.3453   -3.3136    0.0000 O   0  0  0  0  0  0  0  0  0  0  0  0
    5.3974   -0.9381    0.0000 C   0  0  0  0  0  0  0  0  0  0  0  0
    5.2377    0.5533    0.0000 C   0  0  0  0  0  0  0  0  0  0  0  0
    6.4495    1.4374    0.0000 C   0  0  0  0  0  0  0  0  0  0  0  0
    6.2898    2.9289    0.0000 C   0  0  0  0  0  0  0  0  0  0  0  0
    7.5016    3.8129    0.0000 O   0  0  0  0  0  0  0  0  0  0  0  0
    4.9183    3.5363    0.0000 C   0  0  0  0  0  0  0  0  0  0  0  0
    3.7065    2.6522    0.0000 C   0  0  0  0  0  0  0  0  0  0  0  0
    3.8662    1.1608    0.0000 C   0  0  0  0  0  0  0  0  0  0  0  0
    2.4947    1.7682    0.0000 C   0  0  0  0  0  0  0  0  0  0  0  0
    2.6544    0.2767    0.0000 C   0  0  0  0  0  0  0  0  0  0  0  0
    1.2829    0.8842    0.0000 C   0  0  0  0  0  0  0  0  0  0  0  0
    0.0711    0.0001    0.0000 C   0  0  0  0  0  0  0  0  0  0  0  0
    0.2308   -1.4914    0.0000 C   0  0  0  0  0  0  0  0  0  0  0  0
   -1.1967   -1.0306    0.0000 C   0  0  0  0  0  0  0  0  0  0  0  0
  2  1  1  6
  2  3  1  0
  3  4  1  0
  4  5  1  0
  5  6  2  0
  5  7  1  0
  7  8  1  0
  8  9  1  0
  9 10  2  0
  9 11  1  0
  2 12  1  0
 12 13  1  6
 13 14  1  0
 15 14  1  6
 15 16  1  0
 16 17  1  1
 17 18  1  6
 17 19  1  0
 20 19  1  1
 20 21  1  0
 21 22  1  0
 22 23  1  1
 22 24  1  0
 24 25  1  0
 25 26  1  0
 26 27  1  6
 26 28  1  0
 28 29  1  6
 29 30  1  0
 30 31  1  0
 31 32  1  6
 31 12  1  0
 31 15  1  0
 28 16  1  0
 26 20  1  0
M  END
>  <MS_ID>  (3068) 
MS3185

>  <SMILES>  (3068) 
C[C@H](CCC(=O)NCC(=O)O)[C@H]1CO[C@H]2[C@@H]3[C@@H](O)C[C@@H]4C[C@H](O)CC[C@]4(C)[C@H]3CC[C@]12C

>  <Structure_dimension>  (3068) 
2D

$$$$
MS3186
     RDKit          2D

 43 47  0  0  0  0  0  0  0  0999 V2000
   -7.1646    4.2749    0.0000 C   0  0  0  0  0  0  0  0  0  0  0  0
   -6.8795    2.8023    0.0000 C   0  0  0  0  0  0  0  0  0  0  0  0
   -5.4616    2.3128    0.0000 C   0  0  0  0  0  0  0  0  0  0  0  0
   -8.0123    1.8190    0.0000 C   0  0  0  0  0  0  0  0  0  0  0  0
   -9.4302    2.3085    0.0000 C   0  0  0  0  0  0  0  0  0  0  0  0
   -7.7272    0.3464    0.0000 C   0  0  0  0  0  0  0  0  0  0  0  0
   -8.8600   -0.6368    0.0000 O   0  0  0  0  0  0  0  0  0  0  0  0
   -6.3093   -0.1430    0.0000 C   0  0  0  0  0  0  0  0  0  0  0  0
   -5.1765    0.8402    0.0000 O   0  0  0  0  0  0  0  0  0  0  0  0
   -6.0242   -1.6157    0.0000 C   0  0  0  0  0  0  0  0  0  0  0  0
   -7.1570   -2.5989    0.0000 C   0  0  0  0  0  0  0  0  0  0  0  0
   -4.6063   -2.1051    0.0000 C   0  0  0  0  0  0  0  0  0  0  0  0
   -4.1689   -3.5399    0.0000 C   0  0  0  0  0  0  0  0  0  0  0  0
   -2.6691   -3.5672    0.0000 C   0  0  0  0  0  0  0  0  0  0  0  0
   -2.1797   -2.1493    0.0000 C   0  0  0  0  0  0  0  0  0  0  0  0
   -0.7985   -1.5643    0.0000 C   0  0  0  0  0  0  0  0  0  0  0  0
    0.3988   -2.4679    0.0000 C   0  0  0  0  0  0  0  0  0  0  0  0
    1.7800   -1.8829    0.0000 C   0  0  0  0  0  0  0  0  0  0  0  0
    2.9773   -2.7865    0.0000 O   0  0  0  0  0  0  0  0  0  0  0  0
    1.9639   -0.3942    0.0000 C   0  0  0  0  0  0  0  0  0  0  0  0
    3.3451    0.1909    0.0000 C   0  0  0  0  0  0  0  0  0  0  0  0
    3.5291    1.6796    0.0000 C   0  0  0  0  0  0  0  0  0  0  0  0
    4.9103    2.2646    0.0000 O   0  0  0  0  0  0  0  0  0  0  0  0
    6.1075    1.3610    0.0000 C   0  0  0  0  0  0  0  0  0  0  0  0
    5.9236   -0.1277    0.0000 O   0  0  0  0  0  0  0  0  0  0  0  0
    7.1209   -1.0313    0.0000 C   0  0  0  0  0  0  0  0  0  0  0  0
    6.9369   -2.5200    0.0000 C   0  0  0  0  0  0  0  0  0  0  0  0
    5.5557   -3.1051    0.0000 O   0  0  0  0  0  0  0  0  0  0  0  0
    8.5021   -0.4463    0.0000 C   0  0  0  0  0  0  0  0  0  0  0  0
    9.6993   -1.3499    0.0000 O   0  0  0  0  0  0  0  0  0  0  0  0
    8.6860    1.0424    0.0000 C   0  0  0  0  0  0  0  0  0  0  0  0
   10.0672    1.6274    0.0000 O   0  0  0  0  0  0  0  0  0  0  0  0
    7.4887    1.9460    0.0000 C   0  0  0  0  0  0  0  0  0  0  0  0
    7.6727    3.4347    0.0000 O   0  0  0  0  0  0  0  0  0  0  0  0
    2.3318    2.5832    0.0000 C   0  0  0  0  0  0  0  0  0  0  0  0
    0.9506    1.9981    0.0000 C   0  0  0  0  0  0  0  0  0  0  0  0
    0.7667    0.5095    0.0000 C   0  0  0  0  0  0  0  0  0  0  0  0
   -0.4306    1.4131    0.0000 C   0  0  0  0  0  0  0  0  0  0  0  0
   -0.6145   -0.0756    0.0000 C   0  0  0  0  0  0  0  0  0  0  0  0
   -1.8118    0.8280    0.0000 C   0  0  0  0  0  0  0  0  0  0  0  0
   -3.1930    0.2430    0.0000 C   0  0  0  0  0  0  0  0  0  0  0  0
   -3.3769   -1.2457    0.0000 C   0  0  0  0  0  0  0  0  0  0  0  0
   -4.6621   -0.4722    0.0000 C   0  0  0  0  0  0  0  0  0  0  0  0
  1  2  1  0
  2  3  1  0
  2  4  1  0
  4  5  1  1
  4  6  1  0
  6  7  1  6
  6  8  1  0
  8  9  1  6
  8 10  1  0
 10 11  1  6
 10 12  1  0
 12 13  1  6
 13 14  1  0
 15 14  1  6
 15 16  1  0
 16 17  1  1
 17 18  1  0
 18 19  2  0
 18 20  1  0
 20 21  1  6
 21 22  1  0
 22 23  1  6
 24 23  1  1
 24 25  1  0
 25 26  1  0
 26 27  1  1
 27 28  1  0
 26 29  1  0
 29 30  1  6
 29 31  1  0
 31 32  1  1
 31 33  1  0
 33 34  1  6
 22 35  1  0
 35 36  1  0
 36 37  1  0
 37 38  1  6
 37 39  1  0
 39 40  1  6
 40 41  1  0
 41 42  1  0
 42 43  1  6
 42 12  1  0
 42 15  1  0
 39 16  1  0
 37 20  1  0
 33 24  1  0
M  END
>  <MS_ID>  (3069) 
MS3186

>  <SMILES>  (3069) 
CC(C)[C@H](C)[C@@H](O)[C@H](O)[C@@H](C)[C@H]1CC[C@H]2[C@@H]3CC(=O)[C@H]4C[C@@H](O[C@@H]5O[C@H](CO)[C@@H](O)[C@H](O)[C@H]5O)CC[C@]4(C)[C@H]3CC[C@]12C

>  <Structure_dimension>  (3069) 
2D

$$$$
MS3187
     RDKit          2D

 32 35  0  0  0  0  0  0  0  0999 V2000
   -3.9539   -2.9832    0.0000 C   0  0  0  0  0  0  0  0  0  0  0  0
   -2.9202   -1.8962    0.0000 C   0  0  0  0  0  0  0  0  0  0  0  0
   -3.3447   -0.4575    0.0000 C   0  0  0  0  0  0  0  0  0  0  0  0
   -4.8029   -0.1058    0.0000 C   0  0  0  0  0  0  0  0  0  0  0  0
   -5.2274    1.3329    0.0000 C   0  0  0  0  0  0  0  0  0  0  0  0
   -4.1937    2.4198    0.0000 O   0  0  0  0  0  0  0  0  0  0  0  0
   -6.6856    1.6846    0.0000 C   0  0  0  0  0  0  0  0  0  0  0  0
   -7.0373    0.2264    0.0000 C   0  0  0  0  0  0  0  0  0  0  0  0
   -6.3339    3.1427    0.0000 C   0  0  0  0  0  0  0  0  0  0  0  0
   -8.1438    2.0363    0.0000 O   0  0  0  0  0  0  0  0  0  0  0  0
   -1.4620   -2.2479    0.0000 C   0  0  0  0  0  0  0  0  0  0  0  0
   -0.8894   -3.6343    0.0000 C   0  0  0  0  0  0  0  0  0  0  0  0
    0.6061   -3.5182    0.0000 C   0  0  0  0  0  0  0  0  0  0  0  0
    0.9578   -2.0600    0.0000 C   0  0  0  0  0  0  0  0  0  0  0  0
    2.2768   -1.3457    0.0000 C   0  0  0  0  0  0  0  0  0  0  0  0
    3.5549   -2.1307    0.0000 C   0  0  0  0  0  0  0  0  0  0  0  0
    3.5141   -3.6302    0.0000 O   0  0  0  0  0  0  0  0  0  0  0  0
    4.8739   -1.4164    0.0000 C   0  0  0  0  0  0  0  0  0  0  0  0
    4.9147    0.0830    0.0000 C   0  0  0  0  0  0  0  0  0  0  0  0
    6.2337    0.7974    0.0000 C   0  0  0  0  0  0  0  0  0  0  0  0
    6.2745    2.2968    0.0000 C   0  0  0  0  0  0  0  0  0  0  0  0
    7.5935    3.0112    0.0000 O   0  0  0  0  0  0  0  0  0  0  0  0
    4.9964    3.0819    0.0000 C   0  0  0  0  0  0  0  0  0  0  0  0
    3.6774    2.3676    0.0000 C   0  0  0  0  0  0  0  0  0  0  0  0
    3.6366    0.8681    0.0000 C   0  0  0  0  0  0  0  0  0  0  0  0
    2.3584    1.6532    0.0000 C   0  0  0  0  0  0  0  0  0  0  0  0
    2.3176    0.1538    0.0000 C   0  0  0  0  0  0  0  0  0  0  0  0
    1.0395    0.9389    0.0000 C   0  0  0  0  0  0  0  0  0  0  0  0
   -0.2795    0.2245    0.0000 C   0  0  0  0  0  0  0  0  0  0  0  0
   -1.5577    1.0096    0.0000 O   0  0  0  0  0  0  0  0  0  0  0  0
   -0.3204   -1.2749    0.0000 C   0  0  0  0  0  0  0  0  0  0  0  0
   -1.6736   -0.6277    0.0000 C   0  0  0  0  0  0  0  0  0  0  0  0
  2  1  1  6
  2  3  1  0
  3  4  1  0
  4  5  1  0
  5  6  1  1
  5  7  1  0
  7  8  1  0
  7  9  1  0
  7 10  1  0
  2 11  1  0
 11 12  1  6
 12 13  1  0
 14 13  1  6
 14 15  1  0
 15 16  1  1
 16 17  1  1
 16 18  1  0
 19 18  1  1
 19 20  1  0
 20 21  1  0
 21 22  1  1
 21 23  1  0
 23 24  1  0
 24 25  1  0
 25 26  1  6
 25 27  1  0
 27 28  1  1
 28 29  1  0
 29 30  1  1
 29 31  1  0
 31 32  1  6
 31 11  1  0
 31 14  1  0
 27 15  1  0
 25 19  1  0
M  END
>  <MS_ID>  (3070) 
MS3187

>  <SMILES>  (3070) 
C[C@H](CC[C@H](O)C(C)(C)O)[C@H]1CC[C@H]2[C@@H]3[C@H](O)C[C@@H]4C[C@H](O)CC[C@]4(C)[C@@H]3C[C@H](O)[C@]12C

>  <Structure_dimension>  (3070) 
2D

$$$$
MS3188
     RDKit          2D

 25 28  0  0  0  0  0  0  0  0999 V2000
   -6.5811    0.7311    0.0000 C   0  0  0  0  0  0  0  0  0  0  0  0
   -5.3956   -0.1880    0.0000 C   0  0  0  0  0  0  0  0  0  0  0  0
   -5.4425   -1.6873    0.0000 C   0  0  0  0  0  0  0  0  0  0  0  0
   -4.0310   -2.1951    0.0000 C   0  0  0  0  0  0  0  0  0  0  0  0
   -3.1119   -1.0097    0.0000 C   0  0  0  0  0  0  0  0  0  0  0  0
   -1.6160   -0.8995    0.0000 C   0  0  0  0  0  0  0  0  0  0  0  0
   -0.7726   -2.1399    0.0000 C   0  0  0  0  0  0  0  0  0  0  0  0
    0.7234   -2.0298    0.0000 C   0  0  0  0  0  0  0  0  0  0  0  0
    1.3759   -0.6792    0.0000 C   0  0  0  0  0  0  0  0  0  0  0  0
    2.8719   -0.5690    0.0000 C   0  0  0  0  0  0  0  0  0  0  0  0
    3.5245    0.7816    0.0000 C   0  0  0  0  0  0  0  0  0  0  0  0
    5.0204    0.8918    0.0000 O   0  0  0  0  0  0  0  0  0  0  0  0
    5.8638   -0.3487    0.0000 S   0  0  0  0  0  0  0  0  0  0  0  0
    4.6233   -1.1921    0.0000 O   0  0  0  0  0  0  0  0  0  0  0  0
    7.1042    0.4947    0.0000 O   0  0  0  0  0  0  0  0  0  0  0  0
    6.7072   -1.5891    0.0000 O   0  0  0  0  0  0  0  0  0  0  0  0
    2.6811    2.0220    0.0000 C   0  0  0  0  0  0  0  0  0  0  0  0
    1.1851    1.9119    0.0000 C   0  0  0  0  0  0  0  0  0  0  0  0
    0.5326    0.5613    0.0000 C   0  0  0  0  0  0  0  0  0  0  0  0
   -0.3108    1.8017    0.0000 C   0  0  0  0  0  0  0  0  0  0  0  0
   -0.9634    0.4511    0.0000 C   0  0  0  0  0  0  0  0  0  0  0  0
   -1.8068    1.6916    0.0000 C   0  0  0  0  0  0  0  0  0  0  0  0
   -3.3027    1.5814    0.0000 C   0  0  0  0  0  0  0  0  0  0  0  0
   -3.9553    0.2308    0.0000 C   0  0  0  0  0  0  0  0  0  0  0  0
   -4.9237    1.3763    0.0000 C   0  0  0  0  0  0  0  0  0  0  0  0
  2  1  1  6
  2  3  1  0
  3  4  1  0
  5  4  1  6
  5  6  1  0
  6  7  1  1
  7  8  1  0
  9  8  1  1
  9 10  1  0
 10 11  1  0
 11 12  1  6
 12 13  1  0
 13 14  2  0
 13 15  2  0
 13 16  1  0
 11 17  1  0
 17 18  1  0
 18 19  1  0
 19 20  1  6
 19 21  1  0
 21 22  1  6
 22 23  1  0
 23 24  1  0
 24 25  1  6
 24  2  1  0
 24  5  1  0
 21  6  1  0
 19  9  1  0
M  END
>  <MS_ID>  (3071) 
MS3188

>  <SMILES>  (3071) 
C[C@H]1CC[C@H]2[C@@H]3CC[C@@H]4C[C@@H](OS(=O)(=O)O)CC[C@]4(C)[C@H]3CC[C@]12C

>  <Structure_dimension>  (3071) 
2D

$$$$
MS3189
     RDKit          2D

 31 34  0  0  0  0  0  0  0  0999 V2000
   -4.1740   -3.1460    0.0000 C   0  0  0  0  0  0  0  0  0  0  0  0
   -3.1607   -2.0401    0.0000 C   0  0  0  0  0  0  0  0  0  0  0  0
   -3.6117   -0.6095    0.0000 C   0  0  0  0  0  0  0  0  0  0  0  0
   -5.0762   -0.2848    0.0000 C   0  0  0  0  0  0  0  0  0  0  0  0
   -5.5272    1.1457    0.0000 C   0  0  0  0  0  0  0  0  0  0  0  0
   -6.9917    1.4704    0.0000 C   0  0  0  0  0  0  0  0  0  0  0  0
   -7.4428    2.9010    0.0000 O   0  0  0  0  0  0  0  0  0  0  0  0
   -4.5139    2.2517    0.0000 C   0  0  0  0  0  0  0  0  0  0  0  0
   -3.0494    1.9270    0.0000 O   0  0  0  0  0  0  0  0  0  0  0  0
   -4.9649    3.6822    0.0000 O   0  0  0  0  0  0  0  0  0  0  0  0
   -1.6962   -2.3647    0.0000 C   0  0  0  0  0  0  0  0  0  0  0  0
   -1.0981   -3.7403    0.0000 C   0  0  0  0  0  0  0  0  0  0  0  0
    0.3950   -3.5965    0.0000 C   0  0  0  0  0  0  0  0  0  0  0  0
    0.7197   -2.1321    0.0000 C   0  0  0  0  0  0  0  0  0  0  0  0
    2.0252   -1.3934    0.0000 C   0  0  0  0  0  0  0  0  0  0  0  0
    3.3176   -2.1547    0.0000 C   0  0  0  0  0  0  0  0  0  0  0  0
    3.3046   -3.6546    0.0000 O   0  0  0  0  0  0  0  0  0  0  0  0
    4.6232   -1.4161    0.0000 C   0  0  0  0  0  0  0  0  0  0  0  0
    4.6362    0.0839    0.0000 C   0  0  0  0  0  0  0  0  0  0  0  0
    5.9418    0.8225    0.0000 C   0  0  0  0  0  0  0  0  0  0  0  0
    5.9548    2.3225    0.0000 C   0  0  0  0  0  0  0  0  0  0  0  0
    7.2604    3.0611    0.0000 O   0  0  0  0  0  0  0  0  0  0  0  0
    4.6624    3.0838    0.0000 C   0  0  0  0  0  0  0  0  0  0  0  0
    3.3569    2.3451    0.0000 C   0  0  0  0  0  0  0  0  0  0  0  0
    3.3438    0.8452    0.0000 C   0  0  0  0  0  0  0  0  0  0  0  0
    2.0513    1.6065    0.0000 C   0  0  0  0  0  0  0  0  0  0  0  0
    2.0383    0.1065    0.0000 C   0  0  0  0  0  0  0  0  0  0  0  0
    0.7458    0.8678    0.0000 C   0  0  0  0  0  0  0  0  0  0  0  0
   -0.5597    0.1292    0.0000 C   0  0  0  0  0  0  0  0  0  0  0  0
   -0.5728   -1.3708    0.0000 C   0  0  0  0  0  0  0  0  0  0  0  0
   -1.9377   -0.7487    0.0000 C   0  0  0  0  0  0  0  0  0  0  0  0
  2  1  1  6
  2  3  1  0
  3  4  1  0
  5  4  1  6
  5  6  1  0
  6  7  1  0
  5  8  1  0
  8  9  2  0
  8 10  1  0
  2 11  1  0
 11 12  1  6
 12 13  1  0
 14 13  1  6
 14 15  1  0
 15 16  1  1
 16 17  1  6
 16 18  1  0
 19 18  1  1
 19 20  1  0
 20 21  1  0
 21 22  1  1
 21 23  1  0
 23 24  1  0
 24 25  1  0
 25 26  1  6
 25 27  1  0
 27 28  1  6
 28 29  1  0
 29 30  1  0
 30 31  1  6
 30 11  1  0
 30 14  1  0
 27 15  1  0
 25 19  1  0
M  END
>  <MS_ID>  (3072) 
MS3189

>  <SMILES>  (3072) 
C[C@H](CC[C@H](CO)C(=O)O)[C@H]1CC[C@H]2[C@@H]3[C@@H](O)C[C@@H]4C[C@H](O)CC[C@]4(C)[C@H]3CC[C@]12C

>  <Structure_dimension>  (3072) 
2D

$$$$
MS3190
     RDKit          2D

 37 40  0  0  0  0  0  0  0  0999 V2000
   -0.2913   -4.6883    0.0000 C   0  0  0  0  0  0  0  0  0  0  0  0
    0.2591   -3.2929    0.0000 C   0  0  0  0  0  0  0  0  0  0  0  0
   -0.6741   -2.1185    0.0000 C   0  0  0  0  0  0  0  0  0  0  0  0
   -2.1577   -2.3396    0.0000 C   0  0  0  0  0  0  0  0  0  0  0  0
   -3.0910   -1.1652    0.0000 C   0  0  0  0  0  0  0  0  0  0  0  0
   -2.5406    0.2301    0.0000 O   0  0  0  0  0  0  0  0  0  0  0  0
   -4.5746   -1.3863    0.0000 N   0  0  0  0  0  0  0  0  0  0  0  0
   -5.5078   -0.2119    0.0000 C   0  0  0  0  0  0  0  0  0  0  0  0
   -6.9915   -0.4330    0.0000 C   0  0  0  0  0  0  0  0  0  0  0  0
   -7.9247    0.7414    0.0000 C   0  0  0  0  0  0  0  0  0  0  0  0
   -9.4083    0.5203    0.0000 C   0  0  0  0  0  0  0  0  0  0  0  0
  -10.3415    1.6947    0.0000 C   0  0  0  0  0  0  0  0  0  0  0  0
   -9.7912    3.0901    0.0000 N   0  0  0  0  0  0  0  0  0  0  0  0
  -11.8252    1.4737    0.0000 C   0  0  0  0  0  0  0  0  0  0  0  0
  -12.3756    0.0783    0.0000 O   0  0  0  0  0  0  0  0  0  0  0  0
  -12.7584    2.6480    0.0000 O   0  0  0  0  0  0  0  0  0  0  0  0
    1.7427   -3.0719    0.0000 C   0  0  0  0  0  0  0  0  0  0  0  0
    2.7936   -4.1422    0.0000 C   0  0  0  0  0  0  0  0  0  0  0  0
    4.1363   -3.4735    0.0000 C   0  0  0  0  0  0  0  0  0  0  0  0
    3.9153   -1.9899    0.0000 C   0  0  0  0  0  0  0  0  0  0  0  0
    4.8699   -0.8329    0.0000 C   0  0  0  0  0  0  0  0  0  0  0  0
    6.3493   -1.0812    0.0000 C   0  0  0  0  0  0  0  0  0  0  0  0
    6.8739   -2.4864    0.0000 O   0  0  0  0  0  0  0  0  0  0  0  0
    7.3039    0.0758    0.0000 C   0  0  0  0  0  0  0  0  0  0  0  0
    6.7792    1.4811    0.0000 C   0  0  0  0  0  0  0  0  0  0  0  0
    7.7339    2.6381    0.0000 C   0  0  0  0  0  0  0  0  0  0  0  0
    7.2092    4.0433    0.0000 C   0  0  0  0  0  0  0  0  0  0  0  0
    8.1639    5.2003    0.0000 O   0  0  0  0  0  0  0  0  0  0  0  0
    5.7299    4.2916    0.0000 C   0  0  0  0  0  0  0  0  0  0  0  0
    4.7753    3.1346    0.0000 C   0  0  0  0  0  0  0  0  0  0  0  0
    5.2999    1.7293    0.0000 C   0  0  0  0  0  0  0  0  0  0  0  0
    3.8206    1.9776    0.0000 C   0  0  0  0  0  0  0  0  0  0  0  0
    4.3453    0.5723    0.0000 C   0  0  0  0  0  0  0  0  0  0  0  0
    2.8660    0.8206    0.0000 C   0  0  0  0  0  0  0  0  0  0  0  0
    1.9113   -0.3364    0.0000 C   0  0  0  0  0  0  0  0  0  0  0  0
    2.4360   -1.7417    0.0000 C   0  0  0  0  0  0  0  0  0  0  0  0
    0.9388   -1.6494    0.0000 C   0  0  0  0  0  0  0  0  0  0  0  0
  2  1  1  6
  2  3  1  0
  3  4  1  0
  4  5  1  0
  5  6  2  0
  5  7  1  0
  7  8  1  0
  8  9  1  0
  9 10  1  0
 10 11  1  0
 11 12  1  0
 12 13  1  1
 12 14  1  0
 14 15  2  0
 14 16  1  0
  2 17  1  0
 17 18  1  6
 18 19  1  0
 20 19  1  6
 20 21  1  0
 21 22  1  1
 22 23  1  1
 22 24  1  0
 25 24  1  1
 25 26  1  0
 26 27  1  0
 27 28  1  1
 27 29  1  0
 29 30  1  0
 30 31  1  0
 31 32  1  6
 31 33  1  0
 33 34  1  6
 34 35  1  0
 35 36  1  0
 36 37  1  6
 36 17  1  0
 36 20  1  0
 33 21  1  0
 31 25  1  0
M  END
>  <MS_ID>  (3073) 
MS3190

>  <SMILES>  (3073) 
C[C@H](CCC(=O)NCCCC[C@H](N)C(=O)O)[C@H]1CC[C@H]2[C@@H]3[C@H](O)C[C@@H]4C[C@H](O)CC[C@]4(C)[C@H]3CC[C@]12C

>  <Structure_dimension>  (3073) 
2D

$$$$
MS3191
     RDKit          2D

 29 32  0  0  0  0  0  0  0  0999 V2000
   -4.5794    2.7226    0.0000 C   0  0  0  0  0  0  0  0  0  0  0  0
   -3.3580    1.8519    0.0000 N   0  0  0  0  0  0  0  0  0  0  0  0
   -3.5014    0.3587    0.0000 C   0  0  0  0  0  0  0  0  0  0  0  0
   -4.8662   -0.2637    0.0000 C   0  0  0  0  0  0  0  0  0  0  0  0
   -6.0876    0.6071    0.0000 C   0  0  0  0  0  0  0  0  0  0  0  0
   -7.4524   -0.0153    0.0000 C   0  0  0  0  0  0  0  0  0  0  0  0
   -7.5958   -1.5084    0.0000 O   0  0  0  0  0  0  0  0  0  0  0  0
   -8.6738    0.8554    0.0000 O   0  0  0  0  0  0  0  0  0  0  0  0
   -2.2800   -0.5120    0.0000 C   0  0  0  0  0  0  0  0  0  0  0  0
   -2.2665   -2.0119    0.0000 C   0  0  0  0  0  0  0  0  0  0  0  0
   -0.8358   -2.4626    0.0000 C   0  0  0  0  0  0  0  0  0  0  0  0
    0.0349   -1.2412    0.0000 C   0  0  0  0  0  0  0  0  0  0  0  0
    1.5252   -1.0710    0.0000 C   0  0  0  0  0  0  0  0  0  0  0  0
    2.4178   -2.2766    0.0000 C   0  0  0  0  0  0  0  0  0  0  0  0
    1.8200   -3.6523    0.0000 O   0  0  0  0  0  0  0  0  0  0  0  0
    3.9081   -2.1064    0.0000 C   0  0  0  0  0  0  0  0  0  0  0  0
    4.5058   -0.7307    0.0000 C   0  0  0  0  0  0  0  0  0  0  0  0
    5.9961   -0.5605    0.0000 C   0  0  0  0  0  0  0  0  0  0  0  0
    6.5939    0.8153    0.0000 C   0  0  0  0  0  0  0  0  0  0  0  0
    8.0842    0.9855    0.0000 O   0  0  0  0  0  0  0  0  0  0  0  0
    5.7014    2.0208    0.0000 C   0  0  0  0  0  0  0  0  0  0  0  0
    4.2111    1.8506    0.0000 C   0  0  0  0  0  0  0  0  0  0  0  0
    3.6133    0.4749    0.0000 C   0  0  0  0  0  0  0  0  0  0  0  0
    2.7207    1.6805    0.0000 C   0  0  0  0  0  0  0  0  0  0  0  0
    2.1230    0.3047    0.0000 C   0  0  0  0  0  0  0  0  0  0  0  0
    1.2304    1.5103    0.0000 C   0  0  0  0  0  0  0  0  0  0  0  0
   -0.2599    1.3401    0.0000 C   0  0  0  0  0  0  0  0  0  0  0  0
   -0.8577   -0.0357    0.0000 C   0  0  0  0  0  0  0  0  0  0  0  0
   -1.8713    1.0700    0.0000 C   0  0  0  0  0  0  0  0  0  0  0  0
  1  2  1  0
  2  3  1  0
  3  4  1  1
  4  5  1  0
  5  6  1  0
  6  7  2  0
  6  8  1  0
  3  9  1  0
  9 10  1  6
 10 11  1  0
 12 11  1  6
 12 13  1  0
 13 14  1  1
 14 15  1  6
 14 16  1  0
 17 16  1  1
 17 18  1  0
 18 19  1  0
 19 20  1  1
 19 21  1  0
 21 22  1  0
 22 23  1  0
 23 24  1  6
 23 25  1  0
 25 26  1  6
 26 27  1  0
 27 28  1  0
 28 29  1  6
 28  9  1  0
 28 12  1  0
 25 13  1  0
 23 17  1  0
M  END
>  <MS_ID>  (3074) 
MS3191

>  <SMILES>  (3074) 
CN[C@H](CCC(=O)O)[C@H]1CC[C@H]2[C@@H]3[C@@H](O)C[C@@H]4C[C@H](O)CC[C@]4(C)[C@H]3CC[C@]12C

>  <Structure_dimension>  (3074) 
2D

$$$$
MS3192
     RDKit          2D

 36 39  0  0  0  0  0  0  0  0999 V2000
   -2.2143   -4.3547    0.0000 C   0  0  0  0  0  0  0  0  0  0  0  0
   -1.5142   -3.0281    0.0000 C   0  0  0  0  0  0  0  0  0  0  0  0
   -2.3130   -1.7585    0.0000 C   0  0  0  0  0  0  0  0  0  0  0  0
   -3.8119   -1.8154    0.0000 C   0  0  0  0  0  0  0  0  0  0  0  0
   -4.6107   -0.5458    0.0000 C   0  0  0  0  0  0  0  0  0  0  0  0
   -3.9106    0.7808    0.0000 O   0  0  0  0  0  0  0  0  0  0  0  0
   -6.1096   -0.6028    0.0000 N   0  0  0  0  0  0  0  0  0  0  0  0
   -6.9084    0.6668    0.0000 C   0  0  0  0  0  0  0  0  0  0  0  0
   -8.4073    0.6099    0.0000 C   0  0  0  0  0  0  0  0  0  0  0  0
   -9.2061    1.8795    0.0000 C   0  0  0  0  0  0  0  0  0  0  0  0
  -10.7050    1.8225    0.0000 O   0  0  0  0  0  0  0  0  0  0  0  0
   -6.2083    1.9934    0.0000 C   0  0  0  0  0  0  0  0  0  0  0  0
   -4.7094    2.0504    0.0000 O   0  0  0  0  0  0  0  0  0  0  0  0
   -7.0071    3.2630    0.0000 O   0  0  0  0  0  0  0  0  0  0  0  0
   -0.0153   -2.9711    0.0000 C   0  0  0  0  0  0  0  0  0  0  0  0
    0.9119   -4.1503    0.0000 C   0  0  0  0  0  0  0  0  0  0  0  0
    2.3198   -3.6329    0.0000 C   0  0  0  0  0  0  0  0  0  0  0  0
    2.2628   -2.1340    0.0000 C   0  0  0  0  0  0  0  0  0  0  0  0
    3.3386   -1.0887    0.0000 C   0  0  0  0  0  0  0  0  0  0  0  0
    4.7818   -1.4977    0.0000 C   0  0  0  0  0  0  0  0  0  0  0  0
    5.1492   -2.9520    0.0000 O   0  0  0  0  0  0  0  0  0  0  0  0
    5.8576   -0.4524    0.0000 C   0  0  0  0  0  0  0  0  0  0  0  0
    7.3008   -0.8614    0.0000 O   0  0  0  0  0  0  0  0  0  0  0  0
    5.4902    1.0019    0.0000 C   0  0  0  0  0  0  0  0  0  0  0  0
    6.5660    2.0472    0.0000 C   0  0  0  0  0  0  0  0  0  0  0  0
    6.1987    3.5015    0.0000 C   0  0  0  0  0  0  0  0  0  0  0  0
    7.2745    4.5468    0.0000 O   0  0  0  0  0  0  0  0  0  0  0  0
    4.7555    3.9105    0.0000 C   0  0  0  0  0  0  0  0  0  0  0  0
    3.6797    2.8652    0.0000 C   0  0  0  0  0  0  0  0  0  0  0  0
    4.0471    1.4109    0.0000 C   0  0  0  0  0  0  0  0  0  0  0  0
    2.6039    1.8199    0.0000 C   0  0  0  0  0  0  0  0  0  0  0  0
    2.9713    0.3656    0.0000 C   0  0  0  0  0  0  0  0  0  0  0  0
    1.5281    0.7746    0.0000 C   0  0  0  0  0  0  0  0  0  0  0  0
    0.4523   -0.2707    0.0000 C   0  0  0  0  0  0  0  0  0  0  0  0
    0.8197   -1.7250    0.0000 C   0  0  0  0  0  0  0  0  0  0  0  0
   -0.6583   -1.4691    0.0000 C   0  0  0  0  0  0  0  0  0  0  0  0
  2  1  1  6
  2  3  1  0
  3  4  1  0
  4  5  1  0
  5  6  2  0
  5  7  1  0
  7  8  1  0
  8  9  1  1
  9 10  1  0
 10 11  1  0
  8 12  1  0
 12 13  2  0
 12 14  1  0
  2 15  1  0
 15 16  1  6
 16 17  1  0
 18 17  1  6
 18 19  1  0
 19 20  1  1
 20 21  1  1
 20 22  1  0
 22 23  1  6
 22 24  1  0
 24 25  1  1
 25 26  1  0
 26 27  1  1
 26 28  1  0
 28 29  1  0
 29 30  1  0
 30 31  1  6
 30 32  1  0
 32 33  1  6
 33 34  1  0
 34 35  1  0
 35 36  1  6
 35 15  1  0
 35 18  1  0
 32 19  1  0
 30 24  1  0
M  END
>  <MS_ID>  (3075) 
MS3192

>  <SMILES>  (3075) 
C[C@H](CCC(=O)N[C@@H](CCO)C(=O)O)[C@H]1CC[C@H]2[C@@H]3[C@H](O)[C@@H](O)[C@@H]4C[C@H](O)CC[C@]4(C)[C@H]3CC[C@]12C

>  <Structure_dimension>  (3075) 
2D

$$$$
MS3193
     RDKit          2D

 25 28  0  0  0  0  0  0  0  0999 V2000
    1.7479   -1.4680    0.0000 C   0  0  0  0  0  0  0  0  0  0  0  0
    2.6075   -0.2388    0.0000 C   0  0  0  0  0  0  0  0  0  0  0  0
    3.2422   -1.5979    0.0000 C   0  0  0  0  0  0  0  0  0  0  0  0
    4.7366   -1.7278    0.0000 C   0  0  0  0  0  0  0  0  0  0  0  0
    5.5963   -0.4986    0.0000 C   0  0  0  0  0  0  0  0  0  0  0  0
    7.0906   -0.6285    0.0000 O   0  0  0  0  0  0  0  0  0  0  0  0
    4.9616    0.8605    0.0000 C   0  0  0  0  0  0  0  0  0  0  0  0
    3.4672    0.9904    0.0000 C   0  0  0  0  0  0  0  0  0  0  0  0
    2.8325    2.3495    0.0000 C   0  0  0  0  0  0  0  0  0  0  0  0
    1.3381    2.4794    0.0000 C   0  0  0  0  0  0  0  0  0  0  0  0
    0.4785    1.2502    0.0000 C   0  0  0  0  0  0  0  0  0  0  0  0
    1.1132   -0.1089    0.0000 C   0  0  0  0  0  0  0  0  0  0  0  0
    0.2535   -1.3382    0.0000 C   0  0  0  0  0  0  0  0  0  0  0  0
   -1.2409   -1.2083    0.0000 C   0  0  0  0  0  0  0  0  0  0  0  0
   -2.1005   -2.4375    0.0000 O   0  0  0  0  0  0  0  0  0  0  0  0
   -1.8756    0.1508    0.0000 C   0  0  0  0  0  0  0  0  0  0  0  0
   -2.8590   -0.9818    0.0000 C   0  0  0  0  0  0  0  0  0  0  0  0
   -3.3103    0.5886    0.0000 C   0  0  0  0  0  0  0  0  0  0  0  0
   -4.5077   -0.3148    0.0000 C   0  0  0  0  0  0  0  0  0  0  0  0
   -4.3241   -1.8035    0.0000 O   0  0  0  0  0  0  0  0  0  0  0  0
   -5.8888    0.2705    0.0000 C   0  0  0  0  0  0  0  0  0  0  0  0
   -7.0862   -0.6329    0.0000 O   0  0  0  0  0  0  0  0  0  0  0  0
   -3.3373    2.0883    0.0000 C   0  0  0  0  0  0  0  0  0  0  0  0
   -1.9193    2.5775    0.0000 C   0  0  0  0  0  0  0  0  0  0  0  0
   -1.0159    1.3800    0.0000 C   0  0  0  0  0  0  0  0  0  0  0  0
  2  1  1  1
  2  3  1  0
  3  4  1  0
  4  5  1  0
  5  6  2  0
  5  7  1  0
  8  7  1  6
  8  9  1  0
  9 10  1  0
 11 10  1  6
 11 12  1  0
 12 13  1  1
 13 14  1  0
 14 15  1  1
 14 16  1  0
 16 17  1  1
 16 18  1  0
 18 19  1  0
 19 20  1  6
 19 21  1  0
 21 22  1  0
 18 23  1  1
 23 24  1  0
 25 24  1  1
  8  2  1  0
 25 11  1  0
 12  2  1  0
 25 16  1  0
M  END
>  <MS_ID>  (3076) 
MS3193

>  <SMILES>  (3076) 
C[C@]12CCC(=O)C[C@H]1CC[C@@H]1[C@@H]2C[C@@H](O)[C@]2(C)[C@@H]([C@H](O)CO)CC[C@@H]12

>  <Structure_dimension>  (3076) 
2D

$$$$
MS3195
     RDKit          2D

 38 41  0  0  0  0  0  0  0  0999 V2000
   -1.3866   -4.6165    0.0000 C   0  0  0  0  0  0  0  0  0  0  0  0
   -0.7454   -3.2605    0.0000 C   0  0  0  0  0  0  0  0  0  0  0  0
   -1.5991   -2.0272    0.0000 C   0  0  0  0  0  0  0  0  0  0  0  0
   -3.0941   -2.1498    0.0000 C   0  0  0  0  0  0  0  0  0  0  0  0
   -3.9478   -0.9165    0.0000 C   0  0  0  0  0  0  0  0  0  0  0  0
   -3.3066    0.4395    0.0000 O   0  0  0  0  0  0  0  0  0  0  0  0
   -5.4428   -1.0392    0.0000 N   0  0  0  0  0  0  0  0  0  0  0  0
   -6.2966    0.1941    0.0000 C   0  0  0  0  0  0  0  0  0  0  0  0
   -5.6553    1.5502    0.0000 C   0  0  0  0  0  0  0  0  0  0  0  0
   -6.5091    2.7835    0.0000 S   0  0  0  0  0  0  0  0  0  0  0  0
   -5.2757    3.6372    0.0000 O   0  0  0  0  0  0  0  0  0  0  0  0
   -7.7424    1.9298    0.0000 O   0  0  0  0  0  0  0  0  0  0  0  0
   -7.3628    4.0168    0.0000 O   0  0  0  0  0  0  0  0  0  0  0  0
   -7.7915    0.0714    0.0000 C   0  0  0  0  0  0  0  0  0  0  0  0
   -8.4328   -1.2846    0.0000 O   0  0  0  0  0  0  0  0  0  0  0  0
   -8.6453    1.3048    0.0000 O   0  0  0  0  0  0  0  0  0  0  0  0
    0.7496   -3.1378    0.0000 C   0  0  0  0  0  0  0  0  0  0  0  0
    1.7276   -4.2751    0.0000 C   0  0  0  0  0  0  0  0  0  0  0  0
    3.1115   -3.6965    0.0000 C   0  0  0  0  0  0  0  0  0  0  0  0
    2.9888   -2.2015    0.0000 C   0  0  0  0  0  0  0  0  0  0  0  0
    4.0177   -1.1100    0.0000 C   0  0  0  0  0  0  0  0  0  0  0  0
    5.4774   -1.4553    0.0000 C   0  0  0  0  0  0  0  0  0  0  0  0
    5.9082   -2.8921    0.0000 O   0  0  0  0  0  0  0  0  0  0  0  0
    6.5063   -0.3638    0.0000 C   0  0  0  0  0  0  0  0  0  0  0  0
    6.0754    1.0730    0.0000 C   0  0  0  0  0  0  0  0  0  0  0  0
    7.1043    2.1645    0.0000 C   0  0  0  0  0  0  0  0  0  0  0  0
    6.6735    3.6013    0.0000 C   0  0  0  0  0  0  0  0  0  0  0  0
    7.7024    4.6928    0.0000 O   0  0  0  0  0  0  0  0  0  0  0  0
    5.2138    3.9466    0.0000 C   0  0  0  0  0  0  0  0  0  0  0  0
    4.1849    2.8551    0.0000 C   0  0  0  0  0  0  0  0  0  0  0  0
    4.6157    1.4183    0.0000 C   0  0  0  0  0  0  0  0  0  0  0  0
    3.1560    1.7636    0.0000 C   0  0  0  0  0  0  0  0  0  0  0  0
    3.5868    0.3268    0.0000 C   0  0  0  0  0  0  0  0  0  0  0  0
    2.1271    0.6721    0.0000 C   0  0  0  0  0  0  0  0  0  0  0  0
    1.0982   -0.4194    0.0000 C   0  0  0  0  0  0  0  0  0  0  0  0
   -0.3615   -0.0741    0.0000 O   0  0  0  0  0  0  0  0  0  0  0  0
    1.5291   -1.8562    0.0000 C   0  0  0  0  0  0  0  0  0  0  0  0
    0.0412   -1.6654    0.0000 C   0  0  0  0  0  0  0  0  0  0  0  0
  2  1  1  6
  2  3  1  0
  3  4  1  0
  4  5  1  0
  5  6  2  0
  5  7  1  0
  7  8  1  0
  8  9  1  6
  9 10  1  0
 10 11  2  0
 10 12  2  0
 10 13  1  0
  8 14  1  0
 14 15  2  0
 14 16  1  0
  2 17  1  0
 17 18  1  6
 18 19  1  0
 20 19  1  6
 20 21  1  0
 21 22  1  1
 22 23  1  1
 22 24  1  0
 25 24  1  1
 25 26  1  0
 26 27  1  0
 27 28  1  1
 27 29  1  0
 29 30  1  0
 30 31  1  0
 31 32  1  6
 31 33  1  0
 33 34  1  6
 34 35  1  0
 35 36  1  1
 35 37  1  0
 37 38  1  6
 37 17  1  0
 37 20  1  0
 33 21  1  0
 31 25  1  0
M  END
>  <MS_ID>  (3077) 
MS3195

>  <SMILES>  (3077) 
C[C@H](CCC(=O)N[C@@H](CS(=O)(=O)O)C(=O)O)[C@H]1CC[C@H]2[C@@H]3[C@H](O)C[C@@H]4C[C@H](O)CC[C@]4(C)[C@H]3C[C@H](O)[C@]12C

>  <Structure_dimension>  (3077) 
2D

$$$$
MS3196
     RDKit          2D

 21 24  0  0  0  0  0  0  0  0999 V2000
   -5.3369    1.1419    0.0000 C   0  0  0  0  0  0  0  0  0  0  0  0
   -4.2487    0.1095    0.0000 C   0  0  0  0  0  0  0  0  0  0  0  0
   -4.4444   -1.3777    0.0000 C   0  0  0  0  0  0  0  0  0  0  0  0
   -3.0904   -2.0233    0.0000 C   0  0  0  0  0  0  0  0  0  0  0  0
   -2.0580   -0.9352    0.0000 C   0  0  0  0  0  0  0  0  0  0  0  0
   -0.5585   -0.9743    0.0000 C   0  0  0  0  0  0  0  0  0  0  0  0
    0.1574   -2.2924    0.0000 C   0  0  0  0  0  0  0  0  0  0  0  0
    1.6569   -2.3315    0.0000 C   0  0  0  0  0  0  0  0  0  0  0  0
    2.4405   -1.0525    0.0000 C   0  0  0  0  0  0  0  0  0  0  0  0
    3.9400   -1.0916    0.0000 C   0  0  0  0  0  0  0  0  0  0  0  0
    4.7236    0.1874    0.0000 C   0  0  0  0  0  0  0  0  0  0  0  0
    6.2231    0.1483    0.0000 O   0  0  0  0  0  0  0  0  0  0  0  0
    4.0077    1.5056    0.0000 C   0  0  0  0  0  0  0  0  0  0  0  0
    2.5082    1.5447    0.0000 C   0  0  0  0  0  0  0  0  0  0  0  0
    1.7246    0.2657    0.0000 C   0  0  0  0  0  0  0  0  0  0  0  0
    1.0087    1.5838    0.0000 C   0  0  0  0  0  0  0  0  0  0  0  0
    0.2251    0.3048    0.0000 C   0  0  0  0  0  0  0  0  0  0  0  0
   -0.4908    1.6229    0.0000 C   0  0  0  0  0  0  0  0  0  0  0  0
   -1.9903    1.6620    0.0000 C   0  0  0  0  0  0  0  0  0  0  0  0
   -2.7739    0.3830    0.0000 C   0  0  0  0  0  0  0  0  0  0  0  0
   -3.6236    1.6191    0.0000 C   0  0  0  0  0  0  0  0  0  0  0  0
  2  1  1  6
  2  3  1  0
  3  4  1  0
  5  4  1  6
  5  6  1  0
  6  7  1  1
  7  8  1  0
  9  8  1  1
  9 10  1  0
 10 11  1  0
 11 12  1  1
 11 13  1  0
 13 14  1  0
 14 15  1  0
 15 16  1  6
 15 17  1  0
 17 18  1  6
 18 19  1  0
 19 20  1  0
 20 21  1  6
 20  2  1  0
 20  5  1  0
 17  6  1  0
 15  9  1  0
M  END
>  <MS_ID>  (3078) 
MS3196

>  <SMILES>  (3078) 
C[C@H]1CC[C@H]2[C@@H]3CC[C@@H]4C[C@H](O)CC[C@]4(C)[C@H]3CC[C@]12C

>  <Structure_dimension>  (3078) 
2D

$$$$
MS3197
     RDKit          2D

 24 27  0  0  0  0  0  0  0  0999 V2000
   -6.1877   -0.1229    0.0000 C   0  0  0  0  0  0  0  0  0  0  0  0
   -4.7954    0.4353    0.0000 C   0  0  0  0  0  0  0  0  0  0  0  0
   -4.5826    1.9201    0.0000 O   0  0  0  0  0  0  0  0  0  0  0  0
   -3.6159   -0.4914    0.0000 C   0  0  0  0  0  0  0  0  0  0  0  0
   -3.6723   -1.9904    0.0000 C   0  0  0  0  0  0  0  0  0  0  0  0
   -2.2641   -2.5072    0.0000 C   0  0  0  0  0  0  0  0  0  0  0  0
   -1.3374   -1.3277    0.0000 C   0  0  0  0  0  0  0  0  0  0  0  0
    0.1592   -1.2271    0.0000 C   0  0  0  0  0  0  0  0  0  0  0  0
    0.9946   -2.4730    0.0000 C   0  0  0  0  0  0  0  0  0  0  0  0
    2.4912   -2.3724    0.0000 C   0  0  0  0  0  0  0  0  0  0  0  0
    3.1524   -1.0260    0.0000 C   0  0  0  0  0  0  0  0  0  0  0  0
    4.6491   -0.9254    0.0000 C   0  0  0  0  0  0  0  0  0  0  0  0
    5.3103    0.4210    0.0000 C   0  0  0  0  0  0  0  0  0  0  0  0
    6.8069    0.5216    0.0000 O   0  0  0  0  0  0  0  0  0  0  0  0
    4.4749    1.6668    0.0000 C   0  0  0  0  0  0  0  0  0  0  0  0
    2.9782    1.5662    0.0000 C   0  0  0  0  0  0  0  0  0  0  0  0
    2.3170    0.2198    0.0000 C   0  0  0  0  0  0  0  0  0  0  0  0
    1.4816    1.4657    0.0000 C   0  0  0  0  0  0  0  0  0  0  0  0
    0.8204    0.1193    0.0000 C   0  0  0  0  0  0  0  0  0  0  0  0
   -0.0150    1.3651    0.0000 C   0  0  0  0  0  0  0  0  0  0  0  0
   -1.5116    1.2645    0.0000 C   0  0  0  0  0  0  0  0  0  0  0  0
   -2.3471    2.5103    0.0000 O   0  0  0  0  0  0  0  0  0  0  0  0
   -2.1729   -0.0819    0.0000 C   0  0  0  0  0  0  0  0  0  0  0  0
   -3.1339    1.0698    0.0000 C   0  0  0  0  0  0  0  0  0  0  0  0
  2  1  1  6
  2  3  1  0
  2  4  1  0
  4  5  1  6
  5  6  1  0
  7  6  1  6
  7  8  1  0
  8  9  1  1
  9 10  1  0
 11 10  1  1
 11 12  1  0
 12 13  1  0
 13 14  1  1
 13 15  1  0
 15 16  1  0
 16 17  1  0
 17 18  1  6
 17 19  1  0
 19 20  1  6
 20 21  1  0
 21 22  1  6
 21 23  1  0
 23 24  1  6
 23  4  1  0
 23  7  1  0
 19  8  1  0
 17 11  1  0
M  END
>  <MS_ID>  (3079) 
MS3197

>  <SMILES>  (3079) 
C[C@H](O)[C@H]1CC[C@H]2[C@@H]3CC[C@@H]4C[C@H](O)CC[C@]4(C)[C@H]3C[C@@H](O)[C@]12C

>  <Structure_dimension>  (3079) 
2D

$$$$
MS3198
     RDKit          2D

 30 33  0  0  0  0  0  0  0  0999 V2000
   -5.0634    4.0451    0.0000 C   0  0  0  0  0  0  0  0  0  0  0  0
   -4.7002    2.5898    0.0000 C   0  0  0  0  0  0  0  0  0  0  0  0
   -3.2582    2.1767    0.0000 C   0  0  0  0  0  0  0  0  0  0  0  0
   -5.7790    1.5475    0.0000 C   0  0  0  0  0  0  0  0  0  0  0  0
   -7.2209    1.9606    0.0000 C   0  0  0  0  0  0  0  0  0  0  0  0
   -5.4157    0.0922    0.0000 C   0  0  0  0  0  0  0  0  0  0  0  0
   -3.9737   -0.3209    0.0000 C   0  0  0  0  0  0  0  0  0  0  0  0
   -3.6105   -1.7763    0.0000 C   0  0  0  0  0  0  0  0  0  0  0  0
   -4.6893   -2.8185    0.0000 C   0  0  0  0  0  0  0  0  0  0  0  0
   -2.1685   -2.1894    0.0000 C   0  0  0  0  0  0  0  0  0  0  0  0
   -1.6551   -3.5988    0.0000 C   0  0  0  0  0  0  0  0  0  0  0  0
   -0.1561   -3.5461    0.0000 C   0  0  0  0  0  0  0  0  0  0  0  0
    0.2570   -2.1041    0.0000 C   0  0  0  0  0  0  0  0  0  0  0  0
    1.6051   -1.4462    0.0000 C   0  0  0  0  0  0  0  0  0  0  0  0
    2.8488   -2.2847    0.0000 C   0  0  0  0  0  0  0  0  0  0  0  0
    4.1969   -1.6269    0.0000 C   0  0  0  0  0  0  0  0  0  0  0  0
    5.4406   -2.4654    0.0000 O   0  0  0  0  0  0  0  0  0  0  0  0
    4.3011   -0.1305    0.0000 C   0  0  0  0  0  0  0  0  0  0  0  0
    5.6492    0.5274    0.0000 C   0  0  0  0  0  0  0  0  0  0  0  0
    5.7535    2.0238    0.0000 C   0  0  0  0  0  0  0  0  0  0  0  0
    7.1015    2.6816    0.0000 O   0  0  0  0  0  0  0  0  0  0  0  0
    4.5097    2.8623    0.0000 C   0  0  0  0  0  0  0  0  0  0  0  0
    3.1617    2.2044    0.0000 C   0  0  0  0  0  0  0  0  0  0  0  0
    3.0574    0.7080    0.0000 C   0  0  0  0  0  0  0  0  0  0  0  0
    1.8136    1.5465    0.0000 C   0  0  0  0  0  0  0  0  0  0  0  0
    1.7094    0.0501    0.0000 C   0  0  0  0  0  0  0  0  0  0  0  0
    0.4656    0.8886    0.0000 C   0  0  0  0  0  0  0  0  0  0  0  0
   -0.8824    0.2307    0.0000 C   0  0  0  0  0  0  0  0  0  0  0  0
   -0.9867   -1.2656    0.0000 C   0  0  0  0  0  0  0  0  0  0  0  0
   -2.3113   -0.5617    0.0000 C   0  0  0  0  0  0  0  0  0  0  0  0
  1  2  1  0
  2  3  1  0
  2  4  1  0
  4  5  1  6
  4  6  1  0
  6  7  2  0
  7  8  1  0
  8  9  1  6
  8 10  1  0
 10 11  1  6
 11 12  1  0
 13 12  1  6
 13 14  1  0
 14 15  1  1
 15 16  1  0
 16 17  2  0
 16 18  1  0
 18 19  1  6
 19 20  1  0
 20 21  1  6
 20 22  1  0
 22 23  1  0
 23 24  1  0
 24 25  1  6
 24 26  1  0
 26 27  1  6
 27 28  1  0
 28 29  1  0
 29 30  1  6
 29 10  1  0
 29 13  1  0
 26 14  1  0
 24 18  1  0
M  END
>  <MS_ID>  (3080) 
MS3198

>  <SMILES>  (3080) 
CC(C)[C@@H](C)/C=C/[C@@H](C)[C@H]1CC[C@H]2[C@@H]3CC(=O)[C@H]4C[C@@H](O)CC[C@]4(C)[C@H]3CC[C@]12C

>  <Structure_dimension>  (3080) 
2D

$$$$
MS3199
     RDKit          2D

 29 32  0  0  0  0  0  0  0  0999 V2000
   -9.3775   -0.0258    0.0000 C   0  0  0  0  0  0  0  0  0  0  0  0
   -8.0145    0.6007    0.0000 C   0  0  0  0  0  0  0  0  0  0  0  0
   -6.7906   -0.2665    0.0000 C   0  0  0  0  0  0  0  0  0  0  0  0
   -5.4276    0.3600    0.0000 C   0  0  0  0  0  0  0  0  0  0  0  0
   -5.2887    1.8535    0.0000 O   0  0  0  0  0  0  0  0  0  0  0  0
   -4.2037   -0.5071    0.0000 C   0  0  0  0  0  0  0  0  0  0  0  0
   -4.1857   -2.0070    0.0000 C   0  0  0  0  0  0  0  0  0  0  0  0
   -2.7537   -2.4535    0.0000 C   0  0  0  0  0  0  0  0  0  0  0  0
   -1.8866   -1.2295    0.0000 C   0  0  0  0  0  0  0  0  0  0  0  0
   -0.3968   -1.0549    0.0000 C   0  0  0  0  0  0  0  0  0  0  0  0
    0.4993   -2.2578    0.0000 C   0  0  0  0  0  0  0  0  0  0  0  0
    1.9891   -2.0832    0.0000 C   0  0  0  0  0  0  0  0  0  0  0  0
    2.5828   -0.7056    0.0000 C   0  0  0  0  0  0  0  0  0  0  0  0
    4.0726   -0.5310    0.0000 C   0  0  0  0  0  0  0  0  0  0  0  0
    4.6663    0.8465    0.0000 C   0  0  0  0  0  0  0  0  0  0  0  0
    6.1561    1.0211    0.0000 O   0  0  0  0  0  0  0  0  0  0  0  0
    7.0522   -0.1818    0.0000 S   0  0  0  0  0  0  0  0  0  0  0  0
    5.8493   -1.0779    0.0000 O   0  0  0  0  0  0  0  0  0  0  0  0
    8.2551    0.7143    0.0000 O   0  0  0  0  0  0  0  0  0  0  0  0
    7.9483   -1.3847    0.0000 O   0  0  0  0  0  0  0  0  0  0  0  0
    3.7702    2.0494    0.0000 C   0  0  0  0  0  0  0  0  0  0  0  0
    2.2804    1.8748    0.0000 C   0  0  0  0  0  0  0  0  0  0  0  0
    1.6867    0.4973    0.0000 C   0  0  0  0  0  0  0  0  0  0  0  0
    0.7906    1.7002    0.0000 C   0  0  0  0  0  0  0  0  0  0  0  0
    0.1969    0.3226    0.0000 C   0  0  0  0  0  0  0  0  0  0  0  0
   -0.6992    1.5255    0.0000 C   0  0  0  0  0  0  0  0  0  0  0  0
   -2.1890    1.3509    0.0000 C   0  0  0  0  0  0  0  0  0  0  0  0
   -2.7827   -0.0266    0.0000 C   0  0  0  0  0  0  0  0  0  0  0  0
   -3.7997    1.0761    0.0000 C   0  0  0  0  0  0  0  0  0  0  0  0
  1  2  1  0
  2  3  1  0
  3  4  1  0
  4  5  2  0
  6  4  1  6
  6  7  1  0
  7  8  1  0
  9  8  1  6
  9 10  1  0
 10 11  1  1
 11 12  1  0
 13 12  1  1
 13 14  1  0
 14 15  1  0
 15 16  1  1
 16 17  1  0
 17 18  2  0
 17 19  2  0
 17 20  1  0
 15 21  1  0
 21 22  1  0
 22 23  1  0
 23 24  1  6
 23 25  1  0
 25 26  1  6
 26 27  1  0
 27 28  1  0
 28 29  1  6
 28  6  1  0
 28  9  1  0
 25 10  1  0
 23 13  1  0
M  END
>  <MS_ID>  (3081) 
MS3199

>  <SMILES>  (3081) 
CCCC(=O)[C@H]1CC[C@H]2[C@@H]3CC[C@@H]4C[C@H](OS(=O)(=O)O)CC[C@]4(C)[C@H]3CC[C@]12C

>  <Structure_dimension>  (3081) 
2D

$$$$
MS3200
     RDKit          2D

 24 27  0  0  0  0  0  0  0  0999 V2000
   -6.2943    0.2891    0.0000 C   0  0  0  0  0  0  0  0  0  0  0  0
   -4.8892    0.8143    0.0000 C   0  0  0  0  0  0  0  0  0  0  0  0
   -4.6416    2.2937    0.0000 O   0  0  0  0  0  0  0  0  0  0  0  0
   -3.7319   -0.1399    0.0000 C   0  0  0  0  0  0  0  0  0  0  0  0
   -3.8235   -1.6371    0.0000 C   0  0  0  0  0  0  0  0  0  0  0  0
   -2.4280   -2.1870    0.0000 C   0  0  0  0  0  0  0  0  0  0  0  0
   -1.4738   -1.0296    0.0000 C   0  0  0  0  0  0  0  0  0  0  0  0
    0.0248   -0.9643    0.0000 C   0  0  0  0  0  0  0  0  0  0  0  0
    0.8307   -2.2294    0.0000 C   0  0  0  0  0  0  0  0  0  0  0  0
    0.1380   -3.5599    0.0000 O   0  0  0  0  0  0  0  0  0  0  0  0
    2.3293   -2.1641    0.0000 C   0  0  0  0  0  0  0  0  0  0  0  0
    3.0220   -0.8336    0.0000 C   0  0  0  0  0  0  0  0  0  0  0  0
    4.5205   -0.7683    0.0000 C   0  0  0  0  0  0  0  0  0  0  0  0
    5.2133    0.5622    0.0000 C   0  0  0  0  0  0  0  0  0  0  0  0
    6.7118    0.6275    0.0000 O   0  0  0  0  0  0  0  0  0  0  0  0
    4.4074    1.8273    0.0000 C   0  0  0  0  0  0  0  0  0  0  0  0
    2.9088    1.7620    0.0000 C   0  0  0  0  0  0  0  0  0  0  0  0
    2.2161    0.4315    0.0000 C   0  0  0  0  0  0  0  0  0  0  0  0
    1.4102    1.6967    0.0000 C   0  0  0  0  0  0  0  0  0  0  0  0
    0.7175    0.3662    0.0000 C   0  0  0  0  0  0  0  0  0  0  0  0
   -0.0883    1.6314    0.0000 C   0  0  0  0  0  0  0  0  0  0  0  0
   -1.5869    1.5660    0.0000 C   0  0  0  0  0  0  0  0  0  0  0  0
   -2.2796    0.2356    0.0000 C   0  0  0  0  0  0  0  0  0  0  0  0
   -3.2133    1.4095    0.0000 C   0  0  0  0  0  0  0  0  0  0  0  0
  1  2  1  0
  2  3  2  0
  4  2  1  6
  4  5  1  0
  5  6  1  0
  7  6  1  6
  7  8  1  0
  8  9  1  1
  9 10  1  1
  9 11  1  0
 12 11  1  1
 12 13  1  0
 13 14  1  0
 14 15  1  6
 14 16  1  0
 16 17  1  0
 17 18  1  0
 18 19  1  6
 18 20  1  0
 20 21  1  6
 21 22  1  0
 22 23  1  0
 23 24  1  6
 23  4  1  0
 23  7  1  0
 20  8  1  0
 18 12  1  0
M  END
>  <MS_ID>  (3082) 
MS3200

>  <SMILES>  (3082) 
CC(=O)[C@H]1CC[C@H]2[C@@H]3[C@H](O)C[C@@H]4C[C@@H](O)CC[C@]4(C)[C@H]3CC[C@]12C

>  <Structure_dimension>  (3082) 
2D

$$$$
MS3201
     RDKit          2D

 31 34  0  0  0  0  0  0  0  0999 V2000
   -3.5521   -3.5381    0.0000 C   0  0  0  0  0  0  0  0  0  0  0  0
   -2.6376   -2.3490    0.0000 C   0  0  0  0  0  0  0  0  0  0  0  0
   -3.2101   -0.9626    0.0000 C   0  0  0  0  0  0  0  0  0  0  0  0
   -4.6971   -0.7652    0.0000 C   0  0  0  0  0  0  0  0  0  0  0  0
   -5.2696    0.6213    0.0000 C   0  0  0  0  0  0  0  0  0  0  0  0
   -6.7565    0.8187    0.0000 O   0  0  0  0  0  0  0  0  0  0  0  0
   -7.3290    2.2052    0.0000 S   0  0  0  0  0  0  0  0  0  0  0  0
   -5.9426    2.7777    0.0000 O   0  0  0  0  0  0  0  0  0  0  0  0
   -8.7155    1.6327    0.0000 O   0  0  0  0  0  0  0  0  0  0  0  0
   -7.9015    3.5916    0.0000 O   0  0  0  0  0  0  0  0  0  0  0  0
   -1.1507   -2.5465    0.0000 C   0  0  0  0  0  0  0  0  0  0  0  0
   -0.4364   -3.8655    0.0000 C   0  0  0  0  0  0  0  0  0  0  0  0
    1.0388   -3.5937    0.0000 C   0  0  0  0  0  0  0  0  0  0  0  0
    1.2362   -2.1068    0.0000 C   0  0  0  0  0  0  0  0  0  0  0  0
    2.4733   -1.2585    0.0000 C   0  0  0  0  0  0  0  0  0  0  0  0
    3.8265   -1.9058    0.0000 C   0  0  0  0  0  0  0  0  0  0  0  0
    3.9426   -3.4013    0.0000 O   0  0  0  0  0  0  0  0  0  0  0  0
    5.0636   -1.0576    0.0000 C   0  0  0  0  0  0  0  0  0  0  0  0
    4.9476    0.4380    0.0000 C   0  0  0  0  0  0  0  0  0  0  0  0
    6.1847    1.2862    0.0000 C   0  0  0  0  0  0  0  0  0  0  0  0
    6.0687    2.7817    0.0000 C   0  0  0  0  0  0  0  0  0  0  0  0
    7.3058    3.6300    0.0000 O   0  0  0  0  0  0  0  0  0  0  0  0
    4.7155    3.4290    0.0000 C   0  0  0  0  0  0  0  0  0  0  0  0
    3.4784    2.5807    0.0000 C   0  0  0  0  0  0  0  0  0  0  0  0
    3.5944    1.0852    0.0000 C   0  0  0  0  0  0  0  0  0  0  0  0
    2.2413    1.7325    0.0000 C   0  0  0  0  0  0  0  0  0  0  0  0
    2.3573    0.2370    0.0000 C   0  0  0  0  0  0  0  0  0  0  0  0
    1.0041    0.8842    0.0000 C   0  0  0  0  0  0  0  0  0  0  0  0
   -0.2330    0.0360    0.0000 C   0  0  0  0  0  0  0  0  0  0  0  0
   -0.1169   -1.4595    0.0000 C   0  0  0  0  0  0  0  0  0  0  0  0
   -1.5304   -0.9573    0.0000 C   0  0  0  0  0  0  0  0  0  0  0  0
  2  1  1  6
  2  3  1  0
  3  4  1  0
  4  5  1  0
  5  6  1  0
  6  7  1  0
  7  8  2  0
  7  9  2  0
  7 10  1  0
  2 11  1  0
 11 12  1  6
 12 13  1  0
 14 13  1  6
 14 15  1  0
 15 16  1  1
 16 17  1  1
 16 18  1  0
 19 18  1  1
 19 20  1  0
 20 21  1  0
 21 22  1  1
 21 23  1  0
 23 24  1  0
 24 25  1  0
 25 26  1  6
 25 27  1  0
 27 28  1  6
 28 29  1  0
 29 30  1  0
 30 31  1  6
 30 11  1  0
 30 14  1  0
 27 15  1  0
 25 19  1  0
M  END
>  <MS_ID>  (3083) 
MS3201

>  <SMILES>  (3083) 
C[C@H](CCCOS(=O)(=O)O)[C@H]1CC[C@H]2[C@@H]3[C@H](O)C[C@@H]4C[C@H](O)CC[C@]4(C)[C@H]3CC[C@]12C

>  <Structure_dimension>  (3083) 
2D

$$$$
MS3202
     RDKit          2D

 24 27  0  0  0  0  0  0  0  0999 V2000
   -6.1877   -0.1229    0.0000 C   0  0  0  0  0  0  0  0  0  0  0  0
   -4.7954    0.4353    0.0000 C   0  0  0  0  0  0  0  0  0  0  0  0
   -4.5826    1.9201    0.0000 O   0  0  0  0  0  0  0  0  0  0  0  0
   -3.6159   -0.4914    0.0000 C   0  0  0  0  0  0  0  0  0  0  0  0
   -3.6723   -1.9904    0.0000 C   0  0  0  0  0  0  0  0  0  0  0  0
   -2.2641   -2.5072    0.0000 C   0  0  0  0  0  0  0  0  0  0  0  0
   -1.3374   -1.3277    0.0000 C   0  0  0  0  0  0  0  0  0  0  0  0
    0.1592   -1.2271    0.0000 C   0  0  0  0  0  0  0  0  0  0  0  0
    0.9946   -2.4730    0.0000 C   0  0  0  0  0  0  0  0  0  0  0  0
    2.4912   -2.3724    0.0000 C   0  0  0  0  0  0  0  0  0  0  0  0
    3.1524   -1.0260    0.0000 C   0  0  0  0  0  0  0  0  0  0  0  0
    4.6491   -0.9254    0.0000 C   0  0  0  0  0  0  0  0  0  0  0  0
    5.3103    0.4210    0.0000 C   0  0  0  0  0  0  0  0  0  0  0  0
    6.8069    0.5216    0.0000 O   0  0  0  0  0  0  0  0  0  0  0  0
    4.4749    1.6668    0.0000 C   0  0  0  0  0  0  0  0  0  0  0  0
    2.9782    1.5662    0.0000 C   0  0  0  0  0  0  0  0  0  0  0  0
    2.3170    0.2198    0.0000 C   0  0  0  0  0  0  0  0  0  0  0  0
    1.4816    1.4657    0.0000 C   0  0  0  0  0  0  0  0  0  0  0  0
    0.8204    0.1193    0.0000 C   0  0  0  0  0  0  0  0  0  0  0  0
   -0.0150    1.3651    0.0000 C   0  0  0  0  0  0  0  0  0  0  0  0
   -1.5116    1.2645    0.0000 C   0  0  0  0  0  0  0  0  0  0  0  0
   -2.3471    2.5103    0.0000 O   0  0  0  0  0  0  0  0  0  0  0  0
   -2.1729   -0.0819    0.0000 C   0  0  0  0  0  0  0  0  0  0  0  0
   -3.1339    1.0698    0.0000 C   0  0  0  0  0  0  0  0  0  0  0  0
  1  2  1  0
  2  3  2  0
  4  2  1  6
  4  5  1  0
  5  6  1  0
  7  6  1  6
  7  8  1  0
  8  9  1  1
  9 10  1  0
 11 10  1  1
 11 12  1  0
 12 13  1  0
 13 14  1  6
 13 15  1  0
 15 16  1  0
 16 17  1  0
 17 18  1  6
 17 19  1  0
 19 20  1  6
 20 21  1  0
 21 22  1  1
 21 23  1  0
 23 24  1  6
 23  4  1  0
 23  7  1  0
 19  8  1  0
 17 11  1  0
M  END
>  <MS_ID>  (3084) 
MS3202

>  <SMILES>  (3084) 
CC(=O)[C@H]1CC[C@H]2[C@@H]3CC[C@@H]4C[C@@H](O)CC[C@]4(C)[C@H]3C[C@H](O)[C@]12C

>  <Structure_dimension>  (3084) 
2D

$$$$
MS3203
     RDKit          2D

 24 27  0  0  0  0  0  0  0  0999 V2000
   -6.2943    0.2891    0.0000 C   0  0  0  0  0  0  0  0  0  0  0  0
   -4.8892    0.8143    0.0000 C   0  0  0  0  0  0  0  0  0  0  0  0
   -4.6416    2.2937    0.0000 O   0  0  0  0  0  0  0  0  0  0  0  0
   -3.7319   -0.1399    0.0000 C   0  0  0  0  0  0  0  0  0  0  0  0
   -3.8235   -1.6371    0.0000 C   0  0  0  0  0  0  0  0  0  0  0  0
   -2.4280   -2.1870    0.0000 C   0  0  0  0  0  0  0  0  0  0  0  0
   -1.4738   -1.0296    0.0000 C   0  0  0  0  0  0  0  0  0  0  0  0
    0.0248   -0.9643    0.0000 C   0  0  0  0  0  0  0  0  0  0  0  0
    0.8307   -2.2294    0.0000 C   0  0  0  0  0  0  0  0  0  0  0  0
    0.1380   -3.5599    0.0000 O   0  0  0  0  0  0  0  0  0  0  0  0
    2.3293   -2.1641    0.0000 C   0  0  0  0  0  0  0  0  0  0  0  0
    3.0220   -0.8336    0.0000 C   0  0  0  0  0  0  0  0  0  0  0  0
    4.5205   -0.7683    0.0000 C   0  0  0  0  0  0  0  0  0  0  0  0
    5.2133    0.5622    0.0000 C   0  0  0  0  0  0  0  0  0  0  0  0
    6.7118    0.6275    0.0000 O   0  0  0  0  0  0  0  0  0  0  0  0
    4.4074    1.8273    0.0000 C   0  0  0  0  0  0  0  0  0  0  0  0
    2.9088    1.7620    0.0000 C   0  0  0  0  0  0  0  0  0  0  0  0
    2.2161    0.4315    0.0000 C   0  0  0  0  0  0  0  0  0  0  0  0
    1.4102    1.6967    0.0000 C   0  0  0  0  0  0  0  0  0  0  0  0
    0.7175    0.3662    0.0000 C   0  0  0  0  0  0  0  0  0  0  0  0
   -0.0883    1.6314    0.0000 C   0  0  0  0  0  0  0  0  0  0  0  0
   -1.5869    1.5660    0.0000 C   0  0  0  0  0  0  0  0  0  0  0  0
   -2.2796    0.2356    0.0000 C   0  0  0  0  0  0  0  0  0  0  0  0
   -3.2133    1.4095    0.0000 C   0  0  0  0  0  0  0  0  0  0  0  0
  1  2  1  0
  2  3  2  0
  4  2  1  6
  4  5  1  0
  5  6  1  0
  7  6  1  6
  7  8  1  0
  8  9  1  1
  9 10  1  6
  9 11  1  0
 12 11  1  1
 12 13  1  0
 13 14  1  0
 14 15  1  6
 14 16  1  0
 16 17  1  0
 17 18  1  0
 18 19  1  6
 18 20  1  0
 20 21  1  6
 21 22  1  0
 22 23  1  0
 23 24  1  6
 23  4  1  0
 23  7  1  0
 20  8  1  0
 18 12  1  0
M  END
>  <MS_ID>  (3085) 
MS3203

>  <SMILES>  (3085) 
CC(=O)[C@H]1CC[C@H]2[C@@H]3[C@@H](O)C[C@@H]4C[C@@H](O)CC[C@]4(C)[C@H]3CC[C@]12C

>  <Structure_dimension>  (3085) 
2D

$$$$
MS3204
     RDKit          2D

 30 33  0  0  0  0  0  0  0  0999 V2000
   -4.3209   -2.7536    0.0000 C   0  0  0  0  0  0  0  0  0  0  0  0
   -3.2523   -1.7010    0.0000 C   0  0  0  0  0  0  0  0  0  0  0  0
   -3.6295   -0.2492    0.0000 C   0  0  0  0  0  0  0  0  0  0  0  0
   -5.0755    0.1499    0.0000 C   0  0  0  0  0  0  0  0  0  0  0  0
   -5.4527    1.6017    0.0000 C   0  0  0  0  0  0  0  0  0  0  0  0
   -4.3841    2.6543    0.0000 S   0  0  0  0  0  0  0  0  0  0  0  0
   -6.8987    2.0009    0.0000 C   0  0  0  0  0  0  0  0  0  0  0  0
   -7.9673    0.9482    0.0000 O   0  0  0  0  0  0  0  0  0  0  0  0
   -7.2759    3.4526    0.0000 O   0  0  0  0  0  0  0  0  0  0  0  0
   -1.8064   -2.1002    0.0000 C   0  0  0  0  0  0  0  0  0  0  0  0
   -1.2794   -3.5046    0.0000 C   0  0  0  0  0  0  0  0  0  0  0  0
    0.2191   -3.4374    0.0000 C   0  0  0  0  0  0  0  0  0  0  0  0
    0.6183   -1.9915    0.0000 C   0  0  0  0  0  0  0  0  0  0  0  0
    1.9599   -1.3206    0.0000 C   0  0  0  0  0  0  0  0  0  0  0  0
    3.2117   -2.1470    0.0000 C   0  0  0  0  0  0  0  0  0  0  0  0
    3.1219   -3.6443    0.0000 O   0  0  0  0  0  0  0  0  0  0  0  0
    4.5533   -1.4762    0.0000 C   0  0  0  0  0  0  0  0  0  0  0  0
    4.6431    0.0211    0.0000 C   0  0  0  0  0  0  0  0  0  0  0  0
    5.9847    0.6920    0.0000 C   0  0  0  0  0  0  0  0  0  0  0  0
    6.0745    2.1893    0.0000 C   0  0  0  0  0  0  0  0  0  0  0  0
    7.4161    2.8602    0.0000 O   0  0  0  0  0  0  0  0  0  0  0  0
    4.8227    3.0158    0.0000 C   0  0  0  0  0  0  0  0  0  0  0  0
    3.4811    2.3449    0.0000 C   0  0  0  0  0  0  0  0  0  0  0  0
    3.3913    0.8476    0.0000 C   0  0  0  0  0  0  0  0  0  0  0  0
    2.1395    1.6740    0.0000 C   0  0  0  0  0  0  0  0  0  0  0  0
    2.0497    0.1767    0.0000 C   0  0  0  0  0  0  0  0  0  0  0  0
    0.7979    1.0031    0.0000 C   0  0  0  0  0  0  0  0  0  0  0  0
   -0.5437    0.3323    0.0000 C   0  0  0  0  0  0  0  0  0  0  0  0
   -0.6335   -1.1650    0.0000 C   0  0  0  0  0  0  0  0  0  0  0  0
   -1.9649   -0.4740    0.0000 C   0  0  0  0  0  0  0  0  0  0  0  0
  2  1  1  6
  2  3  1  0
  3  4  1  0
  4  5  1  0
  5  6  2  0
  5  7  1  0
  7  8  2  0
  7  9  1  0
  2 10  1  0
 10 11  1  6
 11 12  1  0
 13 12  1  6
 13 14  1  0
 14 15  1  1
 15 16  1  6
 15 17  1  0
 18 17  1  1
 18 19  1  0
 19 20  1  0
 20 21  1  1
 20 22  1  0
 22 23  1  0
 23 24  1  0
 24 25  1  6
 24 26  1  0
 26 27  1  6
 27 28  1  0
 28 29  1  0
 29 30  1  6
 29 10  1  0
 29 13  1  0
 26 14  1  0
 24 18  1  0
M  END
>  <MS_ID>  (3086) 
MS3204

>  <SMILES>  (3086) 
C[C@H](CCC(=S)C(=O)O)[C@H]1CC[C@H]2[C@@H]3[C@@H](O)C[C@@H]4C[C@H](O)CC[C@]4(C)[C@H]3CC[C@]12C

>  <Structure_dimension>  (3086) 
2D

$$$$
MS3206
     RDKit          2D

 31 34  0  0  0  0  0  0  0  0999 V2000
   -4.3801    4.1978    0.0000 C   0  0  0  0  0  0  0  0  0  0  0  0
   -4.0903    2.7261    0.0000 C   0  0  0  0  0  0  0  0  0  0  0  0
   -2.6708    2.2412    0.0000 C   0  0  0  0  0  0  0  0  0  0  0  0
   -5.2199    1.7392    0.0000 C   0  0  0  0  0  0  0  0  0  0  0  0
   -6.6394    2.2241    0.0000 C   0  0  0  0  0  0  0  0  0  0  0  0
   -4.9301    0.2675    0.0000 C   0  0  0  0  0  0  0  0  0  0  0  0
   -6.0598   -0.7194    0.0000 O   0  0  0  0  0  0  0  0  0  0  0  0
   -3.5106   -0.2174    0.0000 C   0  0  0  0  0  0  0  0  0  0  0  0
   -2.3810    0.7695    0.0000 O   0  0  0  0  0  0  0  0  0  0  0  0
   -3.2208   -1.6891    0.0000 C   0  0  0  0  0  0  0  0  0  0  0  0
   -4.3505   -2.6760    0.0000 C   0  0  0  0  0  0  0  0  0  0  0  0
   -1.8014   -2.1740    0.0000 C   0  0  0  0  0  0  0  0  0  0  0  0
   -1.3593   -3.6074    0.0000 C   0  0  0  0  0  0  0  0  0  0  0  0
    0.1405   -3.6299    0.0000 C   0  0  0  0  0  0  0  0  0  0  0  0
    0.6254   -2.2104    0.0000 C   0  0  0  0  0  0  0  0  0  0  0  0
    2.0047   -1.6209    0.0000 C   0  0  0  0  0  0  0  0  0  0  0  0
    3.2049   -2.5207    0.0000 C   0  0  0  0  0  0  0  0  0  0  0  0
    4.5842   -1.9312    0.0000 C   0  0  0  0  0  0  0  0  0  0  0  0
    4.7634   -0.4420    0.0000 C   0  0  0  0  0  0  0  0  0  0  0  0
    6.1427    0.1475    0.0000 C   0  0  0  0  0  0  0  0  0  0  0  0
    6.3218    1.6368    0.0000 C   0  0  0  0  0  0  0  0  0  0  0  0
    7.7012    2.2263    0.0000 O   0  0  0  0  0  0  0  0  0  0  0  0
    5.1217    2.5366    0.0000 C   0  0  0  0  0  0  0  0  0  0  0  0
    3.7424    1.9471    0.0000 C   0  0  0  0  0  0  0  0  0  0  0  0
    3.5632    0.4578    0.0000 C   0  0  0  0  0  0  0  0  0  0  0  0
    2.3630    1.3576    0.0000 C   0  0  0  0  0  0  0  0  0  0  0  0
    2.1839   -0.1317    0.0000 C   0  0  0  0  0  0  0  0  0  0  0  0
    0.9837    0.7681    0.0000 C   0  0  0  0  0  0  0  0  0  0  0  0
   -0.3956    0.1786    0.0000 C   0  0  0  0  0  0  0  0  0  0  0  0
   -0.5747   -1.3106    0.0000 C   0  0  0  0  0  0  0  0  0  0  0  0
   -1.8624   -0.5412    0.0000 C   0  0  0  0  0  0  0  0  0  0  0  0
  1  2  1  0
  2  3  1  0
  2  4  1  0
  4  5  1  1
  4  6  1  0
  6  7  1  6
  6  8  1  0
  8  9  1  6
  8 10  1  0
 10 11  1  6
 10 12  1  0
 12 13  1  6
 13 14  1  0
 15 14  1  6
 15 16  1  0
 16 17  1  1
 17 18  1  0
 19 18  1  6
 19 20  1  0
 20 21  1  0
 21 22  1  1
 21 23  1  0
 23 24  1  0
 24 25  1  0
 25 26  1  6
 25 27  1  0
 27 28  1  6
 28 29  1  0
 29 30  1  0
 30 31  1  6
 30 12  1  0
 30 15  1  0
 27 16  1  0
 25 19  1  0
M  END
>  <MS_ID>  (3087) 
MS3206

>  <SMILES>  (3087) 
CC(C)[C@H](C)[C@@H](O)[C@H](O)[C@@H](C)[C@H]1CC[C@H]2[C@@H]3CC[C@H]4C[C@H](O)CC[C@]4(C)[C@H]3CC[C@]12C

>  <Structure_dimension>  (3087) 
2D

$$$$
MS3207
     RDKit          2D

 23 26  0  0  0  0  0  0  0  0999 V2000
   -5.2305    0.9812    0.0000 C   0  0  0  0  0  0  0  0  0  0  0  0
   -4.1061   -0.0117    0.0000 C   0  0  0  0  0  0  0  0  0  0  0  0
   -4.2484   -1.5049    0.0000 C   0  0  0  0  0  0  0  0  0  0  0  0
   -2.8722   -2.1017    0.0000 C   0  0  0  0  0  0  0  0  0  0  0  0
   -1.8794   -0.9773    0.0000 C   0  0  0  0  0  0  0  0  0  0  0  0
   -0.3794   -0.9628    0.0000 C   0  0  0  0  0  0  0  0  0  0  0  0
    0.3831   -2.2545    0.0000 C   0  0  0  0  0  0  0  0  0  0  0  0
   -0.3542   -3.5607    0.0000 O   0  0  0  0  0  0  0  0  0  0  0  0
    1.8831   -2.2399    0.0000 C   0  0  0  0  0  0  0  0  0  0  0  0
    2.6204   -0.9337    0.0000 C   0  0  0  0  0  0  0  0  0  0  0  0
    4.1203   -0.9191    0.0000 C   0  0  0  0  0  0  0  0  0  0  0  0
    4.8577    0.3871    0.0000 C   0  0  0  0  0  0  0  0  0  0  0  0
    6.3576    0.4017    0.0000 O   0  0  0  0  0  0  0  0  0  0  0  0
    4.0952    1.6788    0.0000 C   0  0  0  0  0  0  0  0  0  0  0  0
    2.5952    1.6643    0.0000 C   0  0  0  0  0  0  0  0  0  0  0  0
    1.8579    0.3580    0.0000 C   0  0  0  0  0  0  0  0  0  0  0  0
    1.0953    1.6497    0.0000 C   0  0  0  0  0  0  0  0  0  0  0  0
    0.3579    0.3435    0.0000 C   0  0  0  0  0  0  0  0  0  0  0  0
   -0.4046    1.6352    0.0000 C   0  0  0  0  0  0  0  0  0  0  0  0
   -1.9046    1.6206    0.0000 C   0  0  0  0  0  0  0  0  0  0  0  0
   -2.6671    2.9124    0.0000 O   0  0  0  0  0  0  0  0  0  0  0  0
   -2.6419    0.3144    0.0000 C   0  0  0  0  0  0  0  0  0  0  0  0
   -3.5353    1.5193    0.0000 C   0  0  0  0  0  0  0  0  0  0  0  0
  2  1  1  6
  2  3  1  0
  3  4  1  0
  5  4  1  6
  5  6  1  0
  6  7  1  1
  7  8  1  1
  7  9  1  0
 10  9  1  1
 10 11  1  0
 11 12  1  0
 12 13  1  1
 12 14  1  0
 14 15  1  0
 15 16  1  0
 16 17  1  6
 16 18  1  0
 18 19  1  6
 19 20  1  0
 20 21  1  1
 20 22  1  0
 22 23  1  6
 22  2  1  0
 22  5  1  0
 18  6  1  0
 16 10  1  0
M  END
>  <MS_ID>  (3088) 
MS3207

>  <SMILES>  (3088) 
C[C@H]1CC[C@H]2[C@@H]3[C@H](O)C[C@@H]4C[C@H](O)CC[C@]4(C)[C@H]3C[C@H](O)[C@]12C

>  <Structure_dimension>  (3088) 
2D

$$$$
MS3208
     RDKit          2D

 24 27  0  0  0  0  0  0  0  0999 V2000
   -6.1877   -0.1229    0.0000 C   0  0  0  0  0  0  0  0  0  0  0  0
   -4.7954    0.4353    0.0000 C   0  0  0  0  0  0  0  0  0  0  0  0
   -4.5826    1.9201    0.0000 O   0  0  0  0  0  0  0  0  0  0  0  0
   -3.6159   -0.4914    0.0000 C   0  0  0  0  0  0  0  0  0  0  0  0
   -3.6723   -1.9904    0.0000 C   0  0  0  0  0  0  0  0  0  0  0  0
   -2.2641   -2.5072    0.0000 C   0  0  0  0  0  0  0  0  0  0  0  0
   -1.3374   -1.3277    0.0000 C   0  0  0  0  0  0  0  0  0  0  0  0
    0.1592   -1.2271    0.0000 C   0  0  0  0  0  0  0  0  0  0  0  0
    0.9946   -2.4730    0.0000 C   0  0  0  0  0  0  0  0  0  0  0  0
    2.4912   -2.3724    0.0000 C   0  0  0  0  0  0  0  0  0  0  0  0
    3.1524   -1.0260    0.0000 C   0  0  0  0  0  0  0  0  0  0  0  0
    4.6491   -0.9254    0.0000 C   0  0  0  0  0  0  0  0  0  0  0  0
    5.3103    0.4210    0.0000 C   0  0  0  0  0  0  0  0  0  0  0  0
    6.8069    0.5216    0.0000 O   0  0  0  0  0  0  0  0  0  0  0  0
    4.4749    1.6668    0.0000 C   0  0  0  0  0  0  0  0  0  0  0  0
    2.9782    1.5662    0.0000 C   0  0  0  0  0  0  0  0  0  0  0  0
    2.3170    0.2198    0.0000 C   0  0  0  0  0  0  0  0  0  0  0  0
    1.4816    1.4657    0.0000 C   0  0  0  0  0  0  0  0  0  0  0  0
    0.8204    0.1193    0.0000 C   0  0  0  0  0  0  0  0  0  0  0  0
   -0.0150    1.3651    0.0000 C   0  0  0  0  0  0  0  0  0  0  0  0
   -1.5116    1.2645    0.0000 C   0  0  0  0  0  0  0  0  0  0  0  0
   -2.3471    2.5103    0.0000 O   0  0  0  0  0  0  0  0  0  0  0  0
   -2.1729   -0.0819    0.0000 C   0  0  0  0  0  0  0  0  0  0  0  0
   -3.1339    1.0698    0.0000 C   0  0  0  0  0  0  0  0  0  0  0  0
  1  2  1  0
  2  3  2  0
  4  2  1  6
  4  5  1  0
  5  6  1  0
  7  6  1  6
  7  8  1  0
  8  9  1  1
  9 10  1  0
 11 10  1  1
 11 12  1  0
 12 13  1  0
 13 14  1  1
 13 15  1  0
 15 16  1  0
 16 17  1  0
 17 18  1  6
 17 19  1  0
 19 20  1  6
 20 21  1  0
 21 22  2  0
 21 23  1  0
 23 24  1  6
 23  4  1  0
 23  7  1  0
 19  8  1  0
 17 11  1  0
M  END
>  <MS_ID>  (3089) 
MS3208

>  <SMILES>  (3089) 
CC(=O)[C@H]1CC[C@H]2[C@@H]3CC[C@@H]4C[C@H](O)CC[C@]4(C)[C@H]3CC(=O)[C@]12C

>  <Structure_dimension>  (3089) 
2D

$$$$
MS3209
     RDKit          2D

 21 24  0  0  0  0  0  0  0  0999 V2000
   -5.3369    1.1419    0.0000 C   0  0  0  0  0  0  0  0  0  0  0  0
   -4.2487    0.1095    0.0000 C   0  0  0  0  0  0  0  0  0  0  0  0
   -4.4444   -1.3777    0.0000 C   0  0  0  0  0  0  0  0  0  0  0  0
   -3.0904   -2.0233    0.0000 C   0  0  0  0  0  0  0  0  0  0  0  0
   -2.0580   -0.9352    0.0000 C   0  0  0  0  0  0  0  0  0  0  0  0
   -0.5585   -0.9743    0.0000 C   0  0  0  0  0  0  0  0  0  0  0  0
    0.1574   -2.2924    0.0000 C   0  0  0  0  0  0  0  0  0  0  0  0
    1.6569   -2.3315    0.0000 C   0  0  0  0  0  0  0  0  0  0  0  0
    2.4405   -1.0525    0.0000 C   0  0  0  0  0  0  0  0  0  0  0  0
    3.9400   -1.0916    0.0000 C   0  0  0  0  0  0  0  0  0  0  0  0
    4.7236    0.1874    0.0000 C   0  0  0  0  0  0  0  0  0  0  0  0
    6.2231    0.1483    0.0000 O   0  0  0  0  0  0  0  0  0  0  0  0
    4.0077    1.5056    0.0000 C   0  0  0  0  0  0  0  0  0  0  0  0
    2.5082    1.5447    0.0000 C   0  0  0  0  0  0  0  0  0  0  0  0
    1.7246    0.2657    0.0000 C   0  0  0  0  0  0  0  0  0  0  0  0
    1.0087    1.5838    0.0000 C   0  0  0  0  0  0  0  0  0  0  0  0
    0.2251    0.3048    0.0000 C   0  0  0  0  0  0  0  0  0  0  0  0
   -0.4908    1.6229    0.0000 C   0  0  0  0  0  0  0  0  0  0  0  0
   -1.9903    1.6620    0.0000 C   0  0  0  0  0  0  0  0  0  0  0  0
   -2.7739    0.3830    0.0000 C   0  0  0  0  0  0  0  0  0  0  0  0
   -3.6236    1.6191    0.0000 C   0  0  0  0  0  0  0  0  0  0  0  0
  2  1  1  6
  2  3  1  0
  3  4  1  0
  5  4  1  6
  5  6  1  0
  6  7  1  1
  7  8  1  0
  9  8  1  1
  9 10  1  0
 10 11  1  0
 11 12  1  6
 11 13  1  0
 13 14  1  0
 14 15  1  0
 15 16  1  6
 15 17  1  0
 17 18  1  6
 18 19  1  0
 19 20  1  0
 20 21  1  6
 20  2  1  0
 20  5  1  0
 17  6  1  0
 15  9  1  0
M  END
>  <MS_ID>  (3090) 
MS3209

>  <SMILES>  (3090) 
C[C@H]1CC[C@H]2[C@@H]3CC[C@@H]4C[C@@H](O)CC[C@]4(C)[C@H]3CC[C@]12C

>  <Structure_dimension>  (3090) 
2D

$$$$
MS3210
     RDKit          2D

 29 32  0  0  0  0  0  0  0  0999 V2000
   -5.0303   -2.1373    0.0000 C   0  0  0  0  0  0  0  0  0  0  0  0
   -3.8594   -1.1998    0.0000 C   0  0  0  0  0  0  0  0  0  0  0  0
   -4.0858    0.2830    0.0000 C   0  0  0  0  0  0  0  0  0  0  0  0
   -5.4831    0.8284    0.0000 C   0  0  0  0  0  0  0  0  0  0  0  0
   -5.7095    2.3112    0.0000 C   0  0  0  0  0  0  0  0  0  0  0  0
   -4.5386    3.2487    0.0000 O   0  0  0  0  0  0  0  0  0  0  0  0
   -7.1069    2.8565    0.0000 O   0  0  0  0  0  0  0  0  0  0  0  0
   -2.4620   -1.7451    0.0000 C   0  0  0  0  0  0  0  0  0  0  0  0
   -2.0818   -3.1961    0.0000 C   0  0  0  0  0  0  0  0  0  0  0  0
   -0.5844   -3.2830    0.0000 C   0  0  0  0  0  0  0  0  0  0  0  0
   -0.0390   -1.8856    0.0000 C   0  0  0  0  0  0  0  0  0  0  0  0
    1.3643   -1.3559    0.0000 C   0  0  0  0  0  0  0  0  0  0  0  0
    2.5248   -2.3063    0.0000 C   0  0  0  0  0  0  0  0  0  0  0  0
    2.2819   -3.7865    0.0000 O   0  0  0  0  0  0  0  0  0  0  0  0
    3.9281   -1.7765    0.0000 O   0  0  0  0  0  0  0  0  0  0  0  0
    4.1710   -0.2963    0.0000 C   0  0  0  0  0  0  0  0  0  0  0  0
    5.5743    0.2334    0.0000 C   0  0  0  0  0  0  0  0  0  0  0  0
    5.8172    1.7136    0.0000 C   0  0  0  0  0  0  0  0  0  0  0  0
    7.2205    2.2434    0.0000 O   0  0  0  0  0  0  0  0  0  0  0  0
    4.6568    2.6641    0.0000 C   0  0  0  0  0  0  0  0  0  0  0  0
    3.2534    2.1343    0.0000 C   0  0  0  0  0  0  0  0  0  0  0  0
    3.0105    0.6541    0.0000 C   0  0  0  0  0  0  0  0  0  0  0  0
    1.8501    1.6046    0.0000 C   0  0  0  0  0  0  0  0  0  0  0  0
    1.6072    0.1244    0.0000 C   0  0  0  0  0  0  0  0  0  0  0  0
    0.4467    1.0748    0.0000 C   0  0  0  0  0  0  0  0  0  0  0  0
   -0.9566    0.5450    0.0000 C   0  0  0  0  0  0  0  0  0  0  0  0
   -2.1170    1.4955    0.0000 O   0  0  0  0  0  0  0  0  0  0  0  0
   -1.1995   -0.9352    0.0000 C   0  0  0  0  0  0  0  0  0  0  0  0
   -2.4529   -0.1112    0.0000 C   0  0  0  0  0  0  0  0  0  0  0  0
  2  1  1  6
  2  3  1  0
  3  4  1  0
  4  5  1  0
  5  6  2  0
  5  7  1  0
  2  8  1  0
  8  9  1  6
  9 10  1  0
 11 10  1  6
 11 12  1  0
 12 13  1  1
 13 14  1  6
 13 15  1  0
 15 16  1  0
 16 17  1  1
 17 18  1  0
 18 19  1  1
 18 20  1  0
 20 21  1  0
 21 22  1  0
 22 23  1  6
 22 24  1  0
 24 25  1  6
 25 26  1  0
 26 27  2  0
 26 28  1  0
 28 29  1  6
 28  8  1  0
 28 11  1  0
 24 12  1  0
 22 16  1  0
M  END
>  <MS_ID>  (3091) 
MS3210

>  <SMILES>  (3091) 
C[C@H](CCC(=O)O)[C@H]1CC[C@H]2[C@@H]3[C@@H](O)O[C@@H]4C[C@H](O)CC[C@]4(C)[C@H]3CC(=O)[C@]12C

>  <Structure_dimension>  (3091) 
2D

$$$$
MS3211
     RDKit          2D

 31 34  0  0  0  0  0  0  0  0999 V2000
   -4.0609    2.5137    0.0000 C   0  0  0  0  0  0  0  0  0  0  0  0
   -2.8129    1.6816    0.0000 S   0  0  0  0  0  0  0  0  0  0  0  0
   -2.9096    0.1847    0.0000 C   0  0  0  0  0  0  0  0  0  0  0  0
   -4.2543   -0.4800    0.0000 C   0  0  0  0  0  0  0  0  0  0  0  0
   -5.5023    0.3521    0.0000 C   0  0  0  0  0  0  0  0  0  0  0  0
   -6.8470   -0.3126    0.0000 C   0  0  0  0  0  0  0  0  0  0  0  0
   -6.9436   -1.8095    0.0000 O   0  0  0  0  0  0  0  0  0  0  0  0
   -8.0950    0.5196    0.0000 C   0  0  0  0  0  0  0  0  0  0  0  0
   -7.9983    2.0165    0.0000 O   0  0  0  0  0  0  0  0  0  0  0  0
   -9.4396   -0.1451    0.0000 O   0  0  0  0  0  0  0  0  0  0  0  0
   -1.6616   -0.6475    0.0000 C   0  0  0  0  0  0  0  0  0  0  0  0
   -1.6013   -2.1463    0.0000 C   0  0  0  0  0  0  0  0  0  0  0  0
   -0.1572   -2.5521    0.0000 C   0  0  0  0  0  0  0  0  0  0  0  0
    0.6749   -1.3041    0.0000 C   0  0  0  0  0  0  0  0  0  0  0  0
    2.1592   -1.0874    0.0000 C   0  0  0  0  0  0  0  0  0  0  0  0
    3.0890   -2.2645    0.0000 C   0  0  0  0  0  0  0  0  0  0  0  0
    2.5345   -3.6582    0.0000 O   0  0  0  0  0  0  0  0  0  0  0  0
    4.5733   -2.0478    0.0000 C   0  0  0  0  0  0  0  0  0  0  0  0
    5.1278   -0.6541    0.0000 C   0  0  0  0  0  0  0  0  0  0  0  0
    6.6120   -0.4375    0.0000 C   0  0  0  0  0  0  0  0  0  0  0  0
    7.1665    0.9563    0.0000 C   0  0  0  0  0  0  0  0  0  0  0  0
    8.6508    1.1729    0.0000 O   0  0  0  0  0  0  0  0  0  0  0  0
    6.2368    2.1334    0.0000 C   0  0  0  0  0  0  0  0  0  0  0  0
    4.7525    1.9167    0.0000 C   0  0  0  0  0  0  0  0  0  0  0  0
    4.1980    0.5230    0.0000 C   0  0  0  0  0  0  0  0  0  0  0  0
    3.2682    1.7001    0.0000 C   0  0  0  0  0  0  0  0  0  0  0  0
    2.7137    0.3063    0.0000 C   0  0  0  0  0  0  0  0  0  0  0  0
    1.7840    1.4834    0.0000 C   0  0  0  0  0  0  0  0  0  0  0  0
    0.2997    1.2668    0.0000 C   0  0  0  0  0  0  0  0  0  0  0  0
   -0.2548   -0.1270    0.0000 C   0  0  0  0  0  0  0  0  0  0  0  0
   -1.3025    0.9465    0.0000 C   0  0  0  0  0  0  0  0  0  0  0  0
  1  2  1  0
  2  3  1  0
  3  4  1  1
  4  5  1  0
  5  6  1  0
  6  7  2  0
  6  8  1  0
  8  9  2  0
  8 10  1  0
  3 11  1  0
 11 12  1  6
 12 13  1  0
 14 13  1  6
 14 15  1  0
 15 16  1  1
 16 17  1  6
 16 18  1  0
 19 18  1  1
 19 20  1  0
 20 21  1  0
 21 22  1  1
 21 23  1  0
 23 24  1  0
 24 25  1  0
 25 26  1  6
 25 27  1  0
 27 28  1  6
 28 29  1  0
 29 30  1  0
 30 31  1  6
 30 11  1  0
 30 14  1  0
 27 15  1  0
 25 19  1  0
M  END
>  <MS_ID>  (3092) 
MS3211

>  <SMILES>  (3092) 
CS[C@H](CCC(=O)C(=O)O)[C@H]1CC[C@H]2[C@@H]3[C@@H](O)C[C@@H]4C[C@H](O)CC[C@]4(C)[C@H]3CC[C@]12C

>  <Structure_dimension>  (3092) 
2D

$$$$
MS3212
     RDKit          2D

 32 35  0  0  0  0  0  0  0  0999 V2000
   -3.1421   -3.6694    0.0000 C   0  0  0  0  0  0  0  0  0  0  0  0
   -2.2628   -2.4541    0.0000 C   0  0  0  0  0  0  0  0  0  0  0  0
   -2.8756   -1.0850    0.0000 C   0  0  0  0  0  0  0  0  0  0  0  0
   -4.3676   -0.9311    0.0000 C   0  0  0  0  0  0  0  0  0  0  0  0
   -4.9804    0.4380    0.0000 C   0  0  0  0  0  0  0  0  0  0  0  0
   -4.1011    1.6532    0.0000 O   0  0  0  0  0  0  0  0  0  0  0  0
   -6.4725    0.5919    0.0000 N   0  0  0  0  0  0  0  0  0  0  0  0
   -7.0853    1.9610    0.0000 C   0  0  0  0  0  0  0  0  0  0  0  0
   -8.5774    2.1149    0.0000 C   0  0  0  0  0  0  0  0  0  0  0  0
   -9.4567    0.8996    0.0000 O   0  0  0  0  0  0  0  0  0  0  0  0
   -9.1901    3.4840    0.0000 O   0  0  0  0  0  0  0  0  0  0  0  0
   -0.7707   -2.6080    0.0000 C   0  0  0  0  0  0  0  0  0  0  0  0
   -0.0182   -3.9056    0.0000 N   0  0  0  0  0  0  0  0  0  0  0  0
    1.4484   -3.5909    0.0000 C   0  0  0  0  0  0  0  0  0  0  0  0
    1.6023   -2.0988    0.0000 C   0  0  0  0  0  0  0  0  0  0  0  0
    2.8141   -1.2147    0.0000 C   0  0  0  0  0  0  0  0  0  0  0  0
    4.1856   -1.8222    0.0000 C   0  0  0  0  0  0  0  0  0  0  0  0
    4.3453   -3.3136    0.0000 O   0  0  0  0  0  0  0  0  0  0  0  0
    5.3974   -0.9381    0.0000 C   0  0  0  0  0  0  0  0  0  0  0  0
    5.2377    0.5533    0.0000 C   0  0  0  0  0  0  0  0  0  0  0  0
    6.4495    1.4374    0.0000 C   0  0  0  0  0  0  0  0  0  0  0  0
    6.2898    2.9289    0.0000 C   0  0  0  0  0  0  0  0  0  0  0  0
    7.5016    3.8129    0.0000 O   0  0  0  0  0  0  0  0  0  0  0  0
    4.9183    3.5363    0.0000 C   0  0  0  0  0  0  0  0  0  0  0  0
    3.7065    2.6522    0.0000 C   0  0  0  0  0  0  0  0  0  0  0  0
    3.8662    1.1608    0.0000 C   0  0  0  0  0  0  0  0  0  0  0  0
    2.4947    1.7682    0.0000 C   0  0  0  0  0  0  0  0  0  0  0  0
    2.6544    0.2767    0.0000 C   0  0  0  0  0  0  0  0  0  0  0  0
    1.2829    0.8842    0.0000 C   0  0  0  0  0  0  0  0  0  0  0  0
    0.0711    0.0001    0.0000 C   0  0  0  0  0  0  0  0  0  0  0  0
    0.2308   -1.4914    0.0000 C   0  0  0  0  0  0  0  0  0  0  0  0
   -1.1967   -1.0306    0.0000 C   0  0  0  0  0  0  0  0  0  0  0  0
  2  1  1  6
  2  3  1  0
  3  4  1  0
  4  5  1  0
  5  6  2  0
  5  7  1  0
  7  8  1  0
  8  9  1  0
  9 10  2  0
  9 11  1  0
  2 12  1  0
 12 13  1  6
 13 14  1  0
 15 14  1  6
 15 16  1  0
 16 17  1  1
 17 18  1  6
 17 19  1  0
 20 19  1  1
 20 21  1  0
 21 22  1  0
 22 23  1  1
 22 24  1  0
 24 25  1  0
 25 26  1  0
 26 27  1  6
 26 28  1  0
 28 29  1  6
 29 30  1  0
 30 31  1  0
 31 32  1  6
 31 12  1  0
 31 15  1  0
 28 16  1  0
 26 20  1  0
M  END
>  <MS_ID>  (3093) 
MS3212

>  <SMILES>  (3093) 
C[C@H](CCC(=O)NCC(=O)O)[C@H]1NC[C@H]2[C@@H]3[C@@H](O)C[C@@H]4C[C@H](O)CC[C@]4(C)[C@H]3CC[C@]12C

>  <Structure_dimension>  (3093) 
2D

$$$$
MS3213
     RDKit          2D

 37 40  0  0  0  0  0  0  0  0999 V2000
  -11.0645    2.6040    0.0000 C   0  0  0  0  0  0  0  0  0  0  0  0
  -10.2227    1.3625    0.0000 C   0  0  0  0  0  0  0  0  0  0  0  0
   -8.7266    1.4708    0.0000 C   0  0  0  0  0  0  0  0  0  0  0  0
   -7.8848    0.2293    0.0000 C   0  0  0  0  0  0  0  0  0  0  0  0
   -6.3887    0.3375    0.0000 C   0  0  0  0  0  0  0  0  0  0  0  0
   -5.5469   -0.9040    0.0000 N   0  0  0  0  0  0  0  0  0  0  0  0
   -4.0508   -0.7957    0.0000 C   0  0  0  0  0  0  0  0  0  0  0  0
   -3.3965    0.5541    0.0000 O   0  0  0  0  0  0  0  0  0  0  0  0
   -3.2090   -2.0372    0.0000 C   0  0  0  0  0  0  0  0  0  0  0  0
   -1.7129   -1.9289    0.0000 C   0  0  0  0  0  0  0  0  0  0  0  0
   -0.8711   -3.1704    0.0000 C   0  0  0  0  0  0  0  0  0  0  0  0
   -1.5253   -4.5202    0.0000 C   0  0  0  0  0  0  0  0  0  0  0  0
    0.6250   -3.0621    0.0000 C   0  0  0  0  0  0  0  0  0  0  0  0
    1.5920   -4.2088    0.0000 C   0  0  0  0  0  0  0  0  0  0  0  0
    2.9814   -3.6435    0.0000 C   0  0  0  0  0  0  0  0  0  0  0  0
    2.8731   -2.1474    0.0000 C   0  0  0  0  0  0  0  0  0  0  0  0
    3.9125   -1.0659    0.0000 C   0  0  0  0  0  0  0  0  0  0  0  0
    5.3688   -1.4252    0.0000 C   0  0  0  0  0  0  0  0  0  0  0  0
    5.7858   -2.8661    0.0000 O   0  0  0  0  0  0  0  0  0  0  0  0
    6.4081   -0.3437    0.0000 C   0  0  0  0  0  0  0  0  0  0  0  0
    5.9912    1.0972    0.0000 C   0  0  0  0  0  0  0  0  0  0  0  0
    7.0305    2.1788    0.0000 C   0  0  0  0  0  0  0  0  0  0  0  0
    6.6135    3.6197    0.0000 C   0  0  0  0  0  0  0  0  0  0  0  0
    7.6529    4.7012    0.0000 O   0  0  0  0  0  0  0  0  0  0  0  0
    5.1572    3.9790    0.0000 C   0  0  0  0  0  0  0  0  0  0  0  0
    4.1179    2.8974    0.0000 C   0  0  0  0  0  0  0  0  0  0  0  0
    4.5348    1.4566    0.0000 C   0  0  0  0  0  0  0  0  0  0  0  0
    3.0785    1.8159    0.0000 C   0  0  0  0  0  0  0  0  0  0  0  0
    3.4955    0.3750    0.0000 C   0  0  0  0  0  0  0  0  0  0  0  0
    2.0392    0.7343    0.0000 C   0  0  0  0  0  0  0  0  0  0  0  0
    0.9998   -0.3472    0.0000 C   0  0  0  0  0  0  0  0  0  0  0  0
   -0.4565    0.0121    0.0000 O   0  0  0  0  0  0  0  0  0  0  0  0
    1.4168   -1.7881    0.0000 C   0  0  0  0  0  0  0  0  0  0  0  0
   -0.0691   -1.5830    0.0000 C   0  0  0  0  0  0  0  0  0  0  0  0
   -5.7344    1.6873    0.0000 C   0  0  0  0  0  0  0  0  0  0  0  0
   -4.2384    1.7956    0.0000 O   0  0  0  0  0  0  0  0  0  0  0  0
   -6.5763    2.9288    0.0000 O   0  0  0  0  0  0  0  0  0  0  0  0
  1  2  1  0
  2  3  1  0
  3  4  1  0
  5  4  1  1
  5  6  1  0
  6  7  1  0
  7  8  2  0
  7  9  1  0
  9 10  1  0
 10 11  1  0
 11 12  1  6
 11 13  1  0
 13 14  1  6
 14 15  1  0
 16 15  1  6
 16 17  1  0
 17 18  1  1
 18 19  1  1
 18 20  1  0
 21 20  1  1
 21 22  1  0
 22 23  1  0
 23 24  1  1
 23 25  1  0
 25 26  1  0
 26 27  1  0
 27 28  1  6
 27 29  1  0
 29 30  1  6
 30 31  1  0
 31 32  1  1
 31 33  1  0
 33 34  1  6
  5 35  1  0
 35 36  2  0
 35 37  1  0
 33 13  1  0
 33 16  1  0
 29 17  1  0
 27 21  1  0
M  END
>  <MS_ID>  (3094) 
MS3213

>  <SMILES>  (3094) 
CCCC[C@H](NC(=O)CC[C@@H](C)[C@H]1CC[C@H]2[C@@H]3[C@H](O)C[C@@H]4C[C@H](O)CC[C@]4(C)[C@H]3C[C@H](O)[C@]12C)C(=O)O

>  <Structure_dimension>  (3094) 
2D

$$$$
MS3214
     RDKit          2D

 32 35  0  0  0  0  0  0  0  0999 V2000
   -6.3148   -1.8053    0.0000 C   0  0  0  0  0  0  0  0  0  0  0  0
   -5.0840   -0.9480    0.0000 C   0  0  0  0  0  0  0  0  0  0  0  0
   -5.2110    0.5466    0.0000 C   0  0  0  0  0  0  0  0  0  0  0  0
   -6.5688    1.1840    0.0000 C   0  0  0  0  0  0  0  0  0  0  0  0
   -6.6958    2.6786    0.0000 C   0  0  0  0  0  0  0  0  0  0  0  0
   -5.4650    3.5359    0.0000 O   0  0  0  0  0  0  0  0  0  0  0  0
   -8.0537    3.3159    0.0000 O   0  0  0  0  0  0  0  0  0  0  0  0
   -3.7261   -1.5853    0.0000 C   0  0  0  0  0  0  0  0  0  0  0  0
   -3.4436   -3.0584    0.0000 C   0  0  0  0  0  0  0  0  0  0  0  0
   -1.9552   -3.2450    0.0000 C   0  0  0  0  0  0  0  0  0  0  0  0
   -1.3179   -1.8871    0.0000 C   0  0  0  0  0  0  0  0  0  0  0  0
    0.1177   -1.4521    0.0000 C   0  0  0  0  0  0  0  0  0  0  0  0
    1.2121   -2.4779    0.0000 C   0  0  0  0  0  0  0  0  0  0  0  0
    0.8711   -3.9386    0.0000 O   0  0  0  0  0  0  0  0  0  0  0  0
    2.6477   -2.0429    0.0000 O   0  0  0  0  0  0  0  0  0  0  0  0
    2.9888   -0.5822    0.0000 C   0  0  0  0  0  0  0  0  0  0  0  0
    4.4243   -0.1472    0.0000 C   0  0  0  0  0  0  0  0  0  0  0  0
    4.7654    1.3135    0.0000 C   0  0  0  0  0  0  0  0  0  0  0  0
    6.2009    1.7485    0.0000 O   0  0  0  0  0  0  0  0  0  0  0  0
    7.2954    0.7227    0.0000 S   0  0  0  0  0  0  0  0  0  0  0  0
    6.2697   -0.3717    0.0000 O   0  0  0  0  0  0  0  0  0  0  0  0
    8.3211    1.8172    0.0000 O   0  0  0  0  0  0  0  0  0  0  0  0
    8.3899   -0.3030    0.0000 O   0  0  0  0  0  0  0  0  0  0  0  0
    3.6709    2.3392    0.0000 C   0  0  0  0  0  0  0  0  0  0  0  0
    2.2354    1.9043    0.0000 C   0  0  0  0  0  0  0  0  0  0  0  0
    1.8943    0.4436    0.0000 C   0  0  0  0  0  0  0  0  0  0  0  0
    0.7998    1.4693    0.0000 C   0  0  0  0  0  0  0  0  0  0  0  0
    0.4587    0.0086    0.0000 C   0  0  0  0  0  0  0  0  0  0  0  0
   -0.6357    1.0343    0.0000 C   0  0  0  0  0  0  0  0  0  0  0  0
   -2.0713    0.5993    0.0000 C   0  0  0  0  0  0  0  0  0  0  0  0
   -2.4123   -0.8614    0.0000 C   0  0  0  0  0  0  0  0  0  0  0  0
   -3.6080    0.0444    0.0000 C   0  0  0  0  0  0  0  0  0  0  0  0
  2  1  1  6
  2  3  1  0
  3  4  1  0
  4  5  1  0
  5  6  2  0
  5  7  1  0
  2  8  1  0
  8  9  1  6
  9 10  1  0
 11 10  1  6
 11 12  1  0
 12 13  1  1
 13 14  1  6
 13 15  1  0
 15 16  1  0
 16 17  1  1
 17 18  1  0
 18 19  1  1
 19 20  1  0
 20 21  2  0
 20 22  2  0
 20 23  1  0
 18 24  1  0
 24 25  1  0
 25 26  1  0
 26 27  1  6
 26 28  1  0
 28 29  1  6
 29 30  1  0
 30 31  1  0
 31 32  1  6
 31  8  1  0
 31 11  1  0
 28 12  1  0
 26 16  1  0
M  END
>  <MS_ID>  (3095) 
MS3214

>  <SMILES>  (3095) 
C[C@H](CCC(=O)O)[C@H]1CC[C@H]2[C@@H]3[C@@H](O)O[C@@H]4C[C@H](OS(=O)(=O)O)CC[C@]4(C)[C@H]3CC[C@]12C

>  <Structure_dimension>  (3095) 
2D

$$$$
MS3215
     RDKit          2D

 37 40  0  0  0  0  0  0  0  0999 V2000
   -1.5253   -4.5202    0.0000 C   0  0  0  0  0  0  0  0  0  0  0  0
   -0.8711   -3.1704    0.0000 C   0  0  0  0  0  0  0  0  0  0  0  0
   -1.7129   -1.9289    0.0000 C   0  0  0  0  0  0  0  0  0  0  0  0
   -3.2090   -2.0372    0.0000 C   0  0  0  0  0  0  0  0  0  0  0  0
   -4.0508   -0.7957    0.0000 C   0  0  0  0  0  0  0  0  0  0  0  0
   -3.3965    0.5541    0.0000 O   0  0  0  0  0  0  0  0  0  0  0  0
   -5.5469   -0.9040    0.0000 N   0  0  0  0  0  0  0  0  0  0  0  0
   -6.3887    0.3375    0.0000 C   0  0  0  0  0  0  0  0  0  0  0  0
   -7.8848    0.2293    0.0000 C   0  0  0  0  0  0  0  0  0  0  0  0
   -8.7266    1.4708    0.0000 C   0  0  0  0  0  0  0  0  0  0  0  0
  -10.2227    1.3625    0.0000 C   0  0  0  0  0  0  0  0  0  0  0  0
  -11.0645    2.6040    0.0000 N   0  0  0  0  0  0  0  0  0  0  0  0
   -5.7344    1.6873    0.0000 C   0  0  0  0  0  0  0  0  0  0  0  0
   -4.2384    1.7956    0.0000 O   0  0  0  0  0  0  0  0  0  0  0  0
   -6.5763    2.9288    0.0000 O   0  0  0  0  0  0  0  0  0  0  0  0
    0.6250   -3.0621    0.0000 C   0  0  0  0  0  0  0  0  0  0  0  0
    1.5920   -4.2088    0.0000 C   0  0  0  0  0  0  0  0  0  0  0  0
    2.9814   -3.6435    0.0000 C   0  0  0  0  0  0  0  0  0  0  0  0
    2.8731   -2.1474    0.0000 C   0  0  0  0  0  0  0  0  0  0  0  0
    3.9125   -1.0659    0.0000 C   0  0  0  0  0  0  0  0  0  0  0  0
    5.3688   -1.4252    0.0000 C   0  0  0  0  0  0  0  0  0  0  0  0
    5.7858   -2.8661    0.0000 O   0  0  0  0  0  0  0  0  0  0  0  0
    6.4081   -0.3437    0.0000 C   0  0  0  0  0  0  0  0  0  0  0  0
    5.9912    1.0972    0.0000 C   0  0  0  0  0  0  0  0  0  0  0  0
    7.0305    2.1788    0.0000 C   0  0  0  0  0  0  0  0  0  0  0  0
    6.6135    3.6197    0.0000 C   0  0  0  0  0  0  0  0  0  0  0  0
    7.6529    4.7012    0.0000 O   0  0  0  0  0  0  0  0  0  0  0  0
    5.1572    3.9790    0.0000 C   0  0  0  0  0  0  0  0  0  0  0  0
    4.1179    2.8974    0.0000 C   0  0  0  0  0  0  0  0  0  0  0  0
    4.5348    1.4566    0.0000 C   0  0  0  0  0  0  0  0  0  0  0  0
    3.0785    1.8159    0.0000 C   0  0  0  0  0  0  0  0  0  0  0  0
    3.4955    0.3750    0.0000 C   0  0  0  0  0  0  0  0  0  0  0  0
    2.0392    0.7343    0.0000 C   0  0  0  0  0  0  0  0  0  0  0  0
    0.9998   -0.3472    0.0000 C   0  0  0  0  0  0  0  0  0  0  0  0
   -0.4565    0.0121    0.0000 O   0  0  0  0  0  0  0  0  0  0  0  0
    1.4168   -1.7881    0.0000 C   0  0  0  0  0  0  0  0  0  0  0  0
   -0.0691   -1.5830    0.0000 C   0  0  0  0  0  0  0  0  0  0  0  0
  2  1  1  6
  2  3  1  0
  3  4  1  0
  4  5  1  0
  5  6  2  0
  5  7  1  0
  7  8  1  0
  8  9  1  1
  9 10  1  0
 10 11  1  0
 11 12  1  0
  8 13  1  0
 13 14  2  0
 13 15  1  0
  2 16  1  0
 16 17  1  6
 17 18  1  0
 19 18  1  6
 19 20  1  0
 20 21  1  1
 21 22  1  1
 21 23  1  0
 24 23  1  1
 24 25  1  0
 25 26  1  0
 26 27  1  1
 26 28  1  0
 28 29  1  0
 29 30  1  0
 30 31  1  6
 30 32  1  0
 32 33  1  6
 33 34  1  0
 34 35  1  1
 34 36  1  0
 36 37  1  6
 36 16  1  0
 36 19  1  0
 32 20  1  0
 30 24  1  0
M  END
>  <MS_ID>  (3096) 
MS3215

>  <SMILES>  (3096) 
C[C@H](CCC(=O)N[C@@H](CCCN)C(=O)O)[C@H]1CC[C@H]2[C@@H]3[C@H](O)C[C@@H]4C[C@H](O)CC[C@]4(C)[C@H]3C[C@H](O)[C@]12C

>  <Structure_dimension>  (3096) 
2D

$$$$
MS3216
     RDKit          2D

 32 35  0  0  0  0  0  0  0  0999 V2000
    4.3200   -4.3108    0.0000 C   0  0  0  0  0  0  0  0  0  0  0  0
    4.1098   -2.8256    0.0000 C   0  0  0  0  0  0  0  0  0  0  0  0
    2.7185   -2.2650    0.0000 C   0  0  0  0  0  0  0  0  0  0  0  0
    5.2909   -1.9010    0.0000 C   0  0  0  0  0  0  0  0  0  0  0  0
    6.6822   -2.4616    0.0000 C   0  0  0  0  0  0  0  0  0  0  0  0
    5.0808   -0.4158    0.0000 C   0  0  0  0  0  0  0  0  0  0  0  0
    6.2619    0.5088    0.0000 O   0  0  0  0  0  0  0  0  0  0  0  0
    3.6894    0.1448    0.0000 C   0  0  0  0  0  0  0  0  0  0  0  0
    2.5083   -0.7798    0.0000 O   0  0  0  0  0  0  0  0  0  0  0  0
    3.4793    1.6300    0.0000 C   0  0  0  0  0  0  0  0  0  0  0  0
    4.6604    2.5546    0.0000 C   0  0  0  0  0  0  0  0  0  0  0  0
    2.0880    2.1906    0.0000 C   0  0  0  0  0  0  0  0  0  0  0  0
    1.7237    3.6457    0.0000 C   0  0  0  0  0  0  0  0  0  0  0  0
    0.2272    3.7489    0.0000 C   0  0  0  0  0  0  0  0  0  0  0  0
   -0.3333    2.3576    0.0000 C   0  0  0  0  0  0  0  0  0  0  0  0
   -1.7424    1.8432    0.0000 C   0  0  0  0  0  0  0  0  0  0  0  0
   -2.8924    2.8063    0.0000 C   0  0  0  0  0  0  0  0  0  0  0  0
   -4.3014    2.2919    0.0000 C   0  0  0  0  0  0  0  0  0  0  0  0
   -4.5605    0.8145    0.0000 C   0  0  0  0  0  0  0  0  0  0  0  0
   -5.9695    0.3001    0.0000 C   0  0  0  0  0  0  0  0  0  0  0  0
   -6.2286   -1.1774    0.0000 C   0  0  0  0  0  0  0  0  0  0  0  0
   -7.6377   -1.6917    0.0000 O   0  0  0  0  0  0  0  0  0  0  0  0
   -5.0786   -2.1405    0.0000 C   0  0  0  0  0  0  0  0  0  0  0  0
   -5.3377   -3.6179    0.0000 O   0  0  0  0  0  0  0  0  0  0  0  0
   -3.6696   -1.6261    0.0000 C   0  0  0  0  0  0  0  0  0  0  0  0
   -3.4105   -0.1486    0.0000 C   0  0  0  0  0  0  0  0  0  0  0  0
   -2.2605   -1.1117    0.0000 C   0  0  0  0  0  0  0  0  0  0  0  0
   -2.0015    0.3657    0.0000 C   0  0  0  0  0  0  0  0  0  0  0  0
   -0.8515   -0.5973    0.0000 C   0  0  0  0  0  0  0  0  0  0  0  0
    0.5576   -0.0830    0.0000 C   0  0  0  0  0  0  0  0  0  0  0  0
    0.8166    1.3945    0.0000 C   0  0  0  0  0  0  0  0  0  0  0  0
    2.0610    0.5569    0.0000 C   0  0  0  0  0  0  0  0  0  0  0  0
  1  2  1  0
  2  3  1  0
  2  4  1  0
  4  5  1  1
  4  6  1  0
  6  7  1  6
  6  8  1  0
  8  9  1  6
  8 10  1  0
 10 11  1  6
 10 12  1  0
 12 13  1  6
 13 14  1  0
 15 14  1  6
 15 16  1  0
 16 17  1  1
 17 18  1  0
 19 18  1  6
 19 20  1  0
 20 21  1  0
 21 22  1  1
 21 23  1  0
 23 24  1  1
 23 25  1  0
 25 26  1  0
 26 27  1  6
 26 28  1  0
 28 29  1  1
 29 30  1  0
 30 31  1  0
 31 32  1  6
 31 12  1  0
 31 15  1  0
 28 16  1  0
 26 19  1  0
M  END
>  <MS_ID>  (3097) 
MS3216

>  <SMILES>  (3097) 
CC(C)[C@H](C)[C@@H](O)[C@H](O)[C@@H](C)[C@H]1CC[C@H]2[C@@H]3CC[C@H]4C[C@H](O)[C@H](O)C[C@]4(C)[C@@H]3CC[C@]12C

>  <Structure_dimension>  (3097) 
2D

$$$$
MS3217
     RDKit          2D

 24 27  0  0  0  0  0  0  0  0999 V2000
   -5.7275    2.6082    0.0000 C   0  0  0  0  0  0  0  0  0  0  0  0
   -4.5122    1.7289    0.0000 N   0  0  0  0  0  0  0  0  0  0  0  0
   -4.6661    0.2368    0.0000 C   0  0  0  0  0  0  0  0  0  0  0  0
   -6.0352   -0.3760    0.0000 C   0  0  0  0  0  0  0  0  0  0  0  0
   -3.4508   -0.6425    0.0000 C   0  0  0  0  0  0  0  0  0  0  0  0
   -3.4479   -2.1425    0.0000 C   0  0  0  0  0  0  0  0  0  0  0  0
   -2.0204   -2.6032    0.0000 C   0  0  0  0  0  0  0  0  0  0  0  0
   -1.1411   -1.3880    0.0000 C   0  0  0  0  0  0  0  0  0  0  0  0
    0.3504   -1.2283    0.0000 C   0  0  0  0  0  0  0  0  0  0  0  0
    1.2344   -2.4401    0.0000 C   0  0  0  0  0  0  0  0  0  0  0  0
    2.7259   -2.2803    0.0000 C   0  0  0  0  0  0  0  0  0  0  0  0
    3.3333   -0.9088    0.0000 C   0  0  0  0  0  0  0  0  0  0  0  0
    4.8248   -0.7491    0.0000 C   0  0  0  0  0  0  0  0  0  0  0  0
    5.4322    0.6224    0.0000 C   0  0  0  0  0  0  0  0  0  0  0  0
    6.9237    0.7821    0.0000 O   0  0  0  0  0  0  0  0  0  0  0  0
    4.5481    1.8342    0.0000 C   0  0  0  0  0  0  0  0  0  0  0  0
    3.0567    1.6745    0.0000 C   0  0  0  0  0  0  0  0  0  0  0  0
    2.4492    0.3030    0.0000 C   0  0  0  0  0  0  0  0  0  0  0  0
    1.5652    1.5148    0.0000 C   0  0  0  0  0  0  0  0  0  0  0  0
    0.9578    0.1432    0.0000 C   0  0  0  0  0  0  0  0  0  0  0  0
    0.0737    1.3550    0.0000 C   0  0  0  0  0  0  0  0  0  0  0  0
   -1.4178    1.1953    0.0000 C   0  0  0  0  0  0  0  0  0  0  0  0
   -2.0252   -0.1762    0.0000 C   0  0  0  0  0  0  0  0  0  0  0  0
   -3.0310    0.9366    0.0000 C   0  0  0  0  0  0  0  0  0  0  0  0
  1  2  1  0
  2  3  1  0
  3  4  1  6
  3  5  1  0
  5  6  1  6
  6  7  1  0
  8  7  1  6
  8  9  1  0
  9 10  1  1
 10 11  1  0
 12 11  1  6
 12 13  1  0
 13 14  1  0
 14 15  1  6
 14 16  1  0
 16 17  1  0
 17 18  1  0
 18 19  1  6
 18 20  1  0
 20 21  1  6
 21 22  1  0
 22 23  1  0
 23 24  1  6
 23  5  1  0
 23  8  1  0
 20  9  1  0
 18 12  1  0
M  END
>  <MS_ID>  (3098) 
MS3217

>  <SMILES>  (3098) 
CN[C@@H](C)[C@H]1CC[C@H]2[C@@H]3CC[C@H]4C[C@@H](O)CC[C@]4(C)[C@H]3CC[C@]12C

>  <Structure_dimension>  (3098) 
2D

$$$$
MS3218
     RDKit          2D

 24 27  0  0  0  0  0  0  0  0999 V2000
   -6.4254    0.0055    0.0000 C   0  0  0  0  0  0  0  0  0  0  0  0
   -5.0444    0.5910    0.0000 C   0  0  0  0  0  0  0  0  0  0  0  0
   -4.8610    2.0798    0.0000 O   0  0  0  0  0  0  0  0  0  0  0  0
   -3.8468   -0.3122    0.0000 C   0  0  0  0  0  0  0  0  0  0  0  0
   -3.8736   -1.8119    0.0000 C   0  0  0  0  0  0  0  0  0  0  0  0
   -2.4555   -2.3009    0.0000 C   0  0  0  0  0  0  0  0  0  0  0  0
   -1.5523   -1.1033    0.0000 C   0  0  0  0  0  0  0  0  0  0  0  0
   -0.0580   -0.9731    0.0000 C   0  0  0  0  0  0  0  0  0  0  0  0
    0.8019   -2.2022    0.0000 C   0  0  0  0  0  0  0  0  0  0  0  0
    2.2962   -2.0721    0.0000 C   0  0  0  0  0  0  0  0  0  0  0  0
    3.1561   -3.3011    0.0000 O   0  0  0  0  0  0  0  0  0  0  0  0
    2.9307   -0.7128    0.0000 C   0  0  0  0  0  0  0  0  0  0  0  0
    4.4250   -0.5827    0.0000 C   0  0  0  0  0  0  0  0  0  0  0  0
    5.0595    0.7765    0.0000 C   0  0  0  0  0  0  0  0  0  0  0  0
    6.5539    0.9066    0.0000 O   0  0  0  0  0  0  0  0  0  0  0  0
    4.1996    2.0056    0.0000 C   0  0  0  0  0  0  0  0  0  0  0  0
    2.7053    1.8754    0.0000 C   0  0  0  0  0  0  0  0  0  0  0  0
    2.0708    0.5162    0.0000 C   0  0  0  0  0  0  0  0  0  0  0  0
    1.2109    1.7453    0.0000 C   0  0  0  0  0  0  0  0  0  0  0  0
    0.5765    0.3861    0.0000 C   0  0  0  0  0  0  0  0  0  0  0  0
   -0.2834    1.6152    0.0000 C   0  0  0  0  0  0  0  0  0  0  0  0
   -1.7777    1.4850    0.0000 C   0  0  0  0  0  0  0  0  0  0  0  0
   -2.4122    0.1258    0.0000 C   0  0  0  0  0  0  0  0  0  0  0  0
   -3.3959    1.2583    0.0000 C   0  0  0  0  0  0  0  0  0  0  0  0
  1  2  1  0
  2  3  2  0
  4  2  1  6
  4  5  1  0
  5  6  1  0
  7  6  1  6
  7  8  1  0
  8  9  1  1
  9 10  1  0
 10 11  1  1
 10 12  1  0
 12 13  1  1
 13 14  1  0
 14 15  1  1
 14 16  1  0
 16 17  1  0
 17 18  1  0
 18 19  1  6
 18 20  1  0
 20 21  1  6
 21 22  1  0
 22 23  1  0
 23 24  1  6
 23  4  1  0
 23  7  1  0
 20  8  1  0
 18 12  1  0
M  END
>  <MS_ID>  (3099) 
MS3218

>  <SMILES>  (3099) 
CC(=O)[C@H]1CC[C@H]2[C@@H]3C[C@H](O)[C@@H]4C[C@H](O)CC[C@]4(C)[C@H]3CC[C@]12C

>  <Structure_dimension>  (3099) 
2D

$$$$
MS3219
     RDKit          2D

 25 28  0  0  0  0  0  0  0  0999 V2000
    2.0825   -1.5799    0.0000 C   0  0  0  0  0  0  0  0  0  0  0  0
    2.8559   -0.2947    0.0000 C   0  0  0  0  0  0  0  0  0  0  0  0
    3.5822   -1.6071    0.0000 C   0  0  0  0  0  0  0  0  0  0  0  0
    5.0820   -1.6342    0.0000 C   0  0  0  0  0  0  0  0  0  0  0  0
    5.8554   -0.3490    0.0000 C   0  0  0  0  0  0  0  0  0  0  0  0
    7.3552   -0.3762    0.0000 O   0  0  0  0  0  0  0  0  0  0  0  0
    5.1291    0.9634    0.0000 C   0  0  0  0  0  0  0  0  0  0  0  0
    3.6293    0.9906    0.0000 C   0  0  0  0  0  0  0  0  0  0  0  0
    2.9030    2.3030    0.0000 C   0  0  0  0  0  0  0  0  0  0  0  0
    1.4032    2.3302    0.0000 C   0  0  0  0  0  0  0  0  0  0  0  0
    0.6298    1.0449    0.0000 C   0  0  0  0  0  0  0  0  0  0  0  0
    1.3561   -0.2675    0.0000 C   0  0  0  0  0  0  0  0  0  0  0  0
    0.5827   -1.5527    0.0000 C   0  0  0  0  0  0  0  0  0  0  0  0
   -0.9170   -1.5255    0.0000 C   0  0  0  0  0  0  0  0  0  0  0  0
   -1.6434   -0.2131    0.0000 C   0  0  0  0  0  0  0  0  0  0  0  0
   -2.5469   -1.4105    0.0000 C   0  0  0  0  0  0  0  0  0  0  0  0
   -3.1047    0.1253    0.0000 C   0  0  0  0  0  0  0  0  0  0  0  0
   -4.2374   -0.8580    0.0000 O   0  0  0  0  0  0  0  0  0  0  0  0
   -5.6554   -0.3687    0.0000 S   0  0  0  0  0  0  0  0  0  0  0  0
   -5.1661    1.0492    0.0000 O   0  0  0  0  0  0  0  0  0  0  0  0
   -6.1447   -1.7867    0.0000 O   0  0  0  0  0  0  0  0  0  0  0  0
   -7.0733    0.1206    0.0000 O   0  0  0  0  0  0  0  0  0  0  0  0
   -3.2344    1.6197    0.0000 C   0  0  0  0  0  0  0  0  0  0  0  0
   -1.8533    2.2048    0.0000 C   0  0  0  0  0  0  0  0  0  0  0  0
   -0.8699    1.0721    0.0000 C   0  0  0  0  0  0  0  0  0  0  0  0
  2  1  1  1
  2  3  1  0
  3  4  1  0
  4  5  1  0
  5  6  2  0
  5  7  1  0
  8  7  1  6
  8  9  1  0
  9 10  1  0
 11 10  1  6
 11 12  1  0
 12 13  1  1
 13 14  1  0
 14 15  1  0
 15 16  1  1
 15 17  1  0
 17 18  1  6
 18 19  1  0
 19 20  2  0
 19 21  2  0
 19 22  1  0
 17 23  1  0
 23 24  1  0
 25 24  1  1
  8  2  1  0
 25 11  1  0
 12  2  1  0
 25 15  1  0
M  END
>  <MS_ID>  (3100) 
MS3219

>  <SMILES>  (3100) 
C[C@]12CCC(=O)C[C@H]1CC[C@@H]1[C@@H]2CC[C@]2(C)[C@H](OS(=O)(=O)O)CC[C@@H]12

>  <Structure_dimension>  (3100) 
2D

$$$$
MS3220
     RDKit          2D

 28 31  0  0  0  0  0  0  0  0999 V2000
   -5.1275   -2.0302    0.0000 C   0  0  0  0  0  0  0  0  0  0  0  0
   -3.9468   -1.1050    0.0000 C   0  0  0  0  0  0  0  0  0  0  0  0
   -4.1576    0.3801    0.0000 C   0  0  0  0  0  0  0  0  0  0  0  0
   -5.5492    0.9401    0.0000 C   0  0  0  0  0  0  0  0  0  0  0  0
   -5.7600    2.4252    0.0000 C   0  0  0  0  0  0  0  0  0  0  0  0
   -4.5793    3.3503    0.0000 O   0  0  0  0  0  0  0  0  0  0  0  0
   -7.1516    2.9851    0.0000 O   0  0  0  0  0  0  0  0  0  0  0  0
   -2.5552   -1.6650    0.0000 C   0  0  0  0  0  0  0  0  0  0  0  0
   -2.1903   -3.1199    0.0000 C   0  0  0  0  0  0  0  0  0  0  0  0
   -0.6938   -3.2225    0.0000 C   0  0  0  0  0  0  0  0  0  0  0  0
   -0.1339   -1.8309    0.0000 C   0  0  0  0  0  0  0  0  0  0  0  0
    1.2750   -1.3159    0.0000 C   0  0  0  0  0  0  0  0  0  0  0  0
    2.4254   -2.2785    0.0000 C   0  0  0  0  0  0  0  0  0  0  0  0
    2.1670   -3.7560    0.0000 O   0  0  0  0  0  0  0  0  0  0  0  0
    3.8342   -1.7635    0.0000 O   0  0  0  0  0  0  0  0  0  0  0  0
    4.0926   -0.2859    0.0000 C   0  0  0  0  0  0  0  0  0  0  0  0
    5.5014    0.2291    0.0000 C   0  0  0  0  0  0  0  0  0  0  0  0
    5.7598    1.7067    0.0000 C   0  0  0  0  0  0  0  0  0  0  0  0
    7.1687    2.2217    0.0000 O   0  0  0  0  0  0  0  0  0  0  0  0
    4.6094    2.6692    0.0000 C   0  0  0  0  0  0  0  0  0  0  0  0
    3.2006    2.1542    0.0000 C   0  0  0  0  0  0  0  0  0  0  0  0
    2.9422    0.6767    0.0000 C   0  0  0  0  0  0  0  0  0  0  0  0
    1.7918    1.6392    0.0000 C   0  0  0  0  0  0  0  0  0  0  0  0
    1.5334    0.1617    0.0000 C   0  0  0  0  0  0  0  0  0  0  0  0
    0.3830    1.1242    0.0000 C   0  0  0  0  0  0  0  0  0  0  0  0
   -1.0259    0.6093    0.0000 C   0  0  0  0  0  0  0  0  0  0  0  0
   -1.2843   -0.8683    0.0000 C   0  0  0  0  0  0  0  0  0  0  0  0
   -2.5290   -0.0313    0.0000 C   0  0  0  0  0  0  0  0  0  0  0  0
  2  1  1  6
  2  3  1  0
  3  4  1  0
  4  5  1  0
  5  6  2  0
  5  7  1  0
  2  8  1  0
  8  9  1  6
  9 10  1  0
 11 10  1  6
 11 12  1  0
 12 13  1  1
 13 14  1  6
 13 15  1  0
 15 16  1  0
 16 17  1  1
 17 18  1  0
 18 19  1  1
 18 20  1  0
 20 21  1  0
 21 22  1  0
 22 23  1  6
 22 24  1  0
 24 25  1  6
 25 26  1  0
 26 27  1  0
 27 28  1  6
 27  8  1  0
 27 11  1  0
 24 12  1  0
 22 16  1  0
M  END
>  <MS_ID>  (3101) 
MS3220

>  <SMILES>  (3101) 
C[C@H](CCC(=O)O)[C@H]1CC[C@H]2[C@@H]3[C@@H](O)O[C@@H]4C[C@H](O)CC[C@]4(C)[C@H]3CC[C@]12C

>  <Structure_dimension>  (3101) 
2D

$$$$
MS3221
     RDKit          2D

 23 26  0  0  0  0  0  0  0  0999 V2000
   -0.3818   -3.4467    0.0000 C   0  0  0  0  0  0  0  0  0  0  0  0
    0.3987   -2.1658    0.0000 C   0  0  0  0  0  0  0  0  0  0  0  0
    1.8983   -2.2012    0.0000 C   0  0  0  0  0  0  0  0  0  0  0  0
    2.6787   -0.9203    0.0000 C   0  0  0  0  0  0  0  0  0  0  0  0
    4.1783   -0.9557    0.0000 C   0  0  0  0  0  0  0  0  0  0  0  0
    4.9588    0.3253    0.0000 C   0  0  0  0  0  0  0  0  0  0  0  0
    6.4584    0.2898    0.0000 O   0  0  0  0  0  0  0  0  0  0  0  0
    4.2397    1.6417    0.0000 C   0  0  0  0  0  0  0  0  0  0  0  0
    2.7401    1.6771    0.0000 C   0  0  0  0  0  0  0  0  0  0  0  0
    1.9596    0.3961    0.0000 C   0  0  0  0  0  0  0  0  0  0  0  0
    1.2406    1.7125    0.0000 C   0  0  0  0  0  0  0  0  0  0  0  0
    0.4601    0.4316    0.0000 C   0  0  0  0  0  0  0  0  0  0  0  0
   -0.2590    1.7480    0.0000 C   0  0  0  0  0  0  0  0  0  0  0  0
   -1.7586    1.7834    0.0000 C   0  0  0  0  0  0  0  0  0  0  0  0
   -2.5391    0.5025    0.0000 C   0  0  0  0  0  0  0  0  0  0  0  0
   -3.2351    1.8312    0.0000 C   0  0  0  0  0  0  0  0  0  0  0  0
   -1.8200   -0.8139    0.0000 C   0  0  0  0  0  0  0  0  0  0  0  0
   -2.8498   -1.9046    0.0000 C   0  0  0  0  0  0  0  0  0  0  0  0
   -4.2053   -1.2623    0.0000 C   0  0  0  0  0  0  0  0  0  0  0  0
   -4.0133    0.2254    0.0000 C   0  0  0  0  0  0  0  0  0  0  0  0
   -5.5129    0.2608    0.0000 C   0  0  0  0  0  0  0  0  0  0  0  0
   -4.3161    1.6945    0.0000 O   0  0  0  0  0  0  0  0  0  0  0  0
   -0.3204   -0.8494    0.0000 C   0  0  0  0  0  0  0  0  0  0  0  0
  2  1  1  6
  2  3  1  0
  4  3  1  1
  4  5  1  0
  5  6  1  0
  6  7  1  1
  6  8  1  0
  8  9  1  0
  9 10  1  0
 10 11  1  6
 10 12  1  0
 12 13  1  6
 13 14  1  0
 14 15  1  0
 15 16  1  6
 15 17  1  0
 17 18  1  6
 18 19  1  0
 19 20  1  0
 20 21  1  1
 20 22  1  0
 17 23  1  0
 23  2  1  1
 10  4  1  0
 23 12  1  0
 20 15  1  0
M  END
>  <MS_ID>  (3102) 
MS3221

>  <SMILES>  (3102) 
C[C@H]1C[C@@H]2C[C@H](O)CC[C@]2(C)[C@H]2CC[C@@]3(C)[C@@H](CC[C@]3(C)O)[C@H]12

>  <Structure_dimension>  (3102) 
2D

$$$$
MS3222
     RDKit          2D

 24 27  0  0  0  0  0  0  0  0999 V2000
   -7.0141    1.4158    0.0000 C   0  0  0  0  0  0  0  0  0  0  0  0
   -5.8882    0.4247    0.0000 C   0  0  0  0  0  0  0  0  0  0  0  0
   -6.1836   -1.0459    0.0000 O   0  0  0  0  0  0  0  0  0  0  0  0
   -4.4669    0.9042    0.0000 O   0  0  0  0  0  0  0  0  0  0  0  0
   -3.3410   -0.0869    0.0000 C   0  0  0  0  0  0  0  0  0  0  0  0
   -3.4810   -1.5803    0.0000 C   0  0  0  0  0  0  0  0  0  0  0  0
   -2.1040   -2.1750    0.0000 C   0  0  0  0  0  0  0  0  0  0  0  0
   -1.1128   -1.0491    0.0000 C   0  0  0  0  0  0  0  0  0  0  0  0
    0.3871   -1.0323    0.0000 C   0  0  0  0  0  0  0  0  0  0  0  0
    1.1516   -2.3228    0.0000 C   0  0  0  0  0  0  0  0  0  0  0  0
    2.6515   -2.3060    0.0000 C   0  0  0  0  0  0  0  0  0  0  0  0
    3.3869   -0.9986    0.0000 C   0  0  0  0  0  0  0  0  0  0  0  0
    4.8868   -0.9818    0.0000 C   0  0  0  0  0  0  0  0  0  0  0  0
    5.6221    0.3256    0.0000 C   0  0  0  0  0  0  0  0  0  0  0  0
    7.1221    0.3425    0.0000 O   0  0  0  0  0  0  0  0  0  0  0  0
    4.8576    1.6162    0.0000 C   0  0  0  0  0  0  0  0  0  0  0  0
    3.3577    1.5993    0.0000 C   0  0  0  0  0  0  0  0  0  0  0  0
    2.6223    0.2919    0.0000 C   0  0  0  0  0  0  0  0  0  0  0  0
    1.8578    1.5825    0.0000 C   0  0  0  0  0  0  0  0  0  0  0  0
    1.1224    0.2751    0.0000 C   0  0  0  0  0  0  0  0  0  0  0  0
    0.3579    1.5656    0.0000 C   0  0  0  0  0  0  0  0  0  0  0  0
   -1.1420    1.5488    0.0000 C   0  0  0  0  0  0  0  0  0  0  0  0
   -1.8774    0.2414    0.0000 C   0  0  0  0  0  0  0  0  0  0  0  0
   -2.7726    1.4450    0.0000 C   0  0  0  0  0  0  0  0  0  0  0  0
  1  2  1  0
  2  3  2  0
  2  4  1  0
  5  4  1  6
  5  6  1  0
  6  7  1  0
  8  7  1  6
  8  9  1  0
  9 10  1  1
 10 11  1  0
 12 11  1  1
 12 13  1  0
 13 14  1  0
 14 15  2  0
 14 16  1  0
 16 17  1  0
 17 18  1  0
 18 19  1  6
 18 20  1  0
 20 21  1  6
 21 22  1  0
 22 23  1  0
 23 24  1  6
 23  5  1  0
 23  8  1  0
 20  9  1  0
 18 12  1  0
M  END
>  <MS_ID>  (3103) 
MS3222

>  <SMILES>  (3103) 
CC(=O)O[C@H]1CC[C@H]2[C@@H]3CC[C@@H]4CC(=O)CC[C@]4(C)[C@H]3CC[C@]12C

>  <Structure_dimension>  (3103) 
2D

$$$$
MS3223
     RDKit          2D

 31 34  0  0  0  0  0  0  0  0999 V2000
   -5.0766    2.7897    0.0000 C   0  0  0  0  0  0  0  0  0  0  0  0
   -3.8788    1.8867    0.0000 S   0  0  0  0  0  0  0  0  0  0  0  0
   -4.0619    0.3980    0.0000 C   0  0  0  0  0  0  0  0  0  0  0  0
   -5.4428   -0.1879    0.0000 C   0  0  0  0  0  0  0  0  0  0  0  0
   -6.6405    0.7151    0.0000 C   0  0  0  0  0  0  0  0  0  0  0  0
   -8.0214    0.1292    0.0000 C   0  0  0  0  0  0  0  0  0  0  0  0
   -8.2045   -1.3595    0.0000 O   0  0  0  0  0  0  0  0  0  0  0  0
   -9.2192    1.0322    0.0000 O   0  0  0  0  0  0  0  0  0  0  0  0
   -2.8641   -0.5050    0.0000 C   0  0  0  0  0  0  0  0  0  0  0  0
   -2.8906   -2.0048    0.0000 C   0  0  0  0  0  0  0  0  0  0  0  0
   -1.4724   -2.4934    0.0000 C   0  0  0  0  0  0  0  0  0  0  0  0
   -0.5694   -1.2956    0.0000 C   0  0  0  0  0  0  0  0  0  0  0  0
    0.9249   -1.1651    0.0000 C   0  0  0  0  0  0  0  0  0  0  0  0
    1.7850   -2.3940    0.0000 C   0  0  0  0  0  0  0  0  0  0  0  0
    1.1508   -3.7534    0.0000 O   0  0  0  0  0  0  0  0  0  0  0  0
    3.2793   -2.2636    0.0000 C   0  0  0  0  0  0  0  0  0  0  0  0
    3.9135   -0.9042    0.0000 C   0  0  0  0  0  0  0  0  0  0  0  0
    5.4078   -0.7738    0.0000 C   0  0  0  0  0  0  0  0  0  0  0  0
    6.0420    0.5856    0.0000 C   0  0  0  0  0  0  0  0  0  0  0  0
    7.5363    0.7160    0.0000 C   0  0  0  0  0  0  0  0  0  0  0  0
    8.1705    2.0753    0.0000 O   0  0  0  0  0  0  0  0  0  0  0  0
    8.3965   -0.5129    0.0000 O   0  0  0  0  0  0  0  0  0  0  0  0
    5.1819    1.8144    0.0000 C   0  0  0  0  0  0  0  0  0  0  0  0
    3.6876    1.6840    0.0000 C   0  0  0  0  0  0  0  0  0  0  0  0
    3.0534    0.3246    0.0000 C   0  0  0  0  0  0  0  0  0  0  0  0
    2.1932    1.5535    0.0000 C   0  0  0  0  0  0  0  0  0  0  0  0
    1.5591    0.1942    0.0000 C   0  0  0  0  0  0  0  0  0  0  0  0
    0.6989    1.4231    0.0000 C   0  0  0  0  0  0  0  0  0  0  0  0
   -0.7954    1.2926    0.0000 C   0  0  0  0  0  0  0  0  0  0  0  0
   -1.4296   -0.0667    0.0000 C   0  0  0  0  0  0  0  0  0  0  0  0
   -2.4134    1.0655    0.0000 C   0  0  0  0  0  0  0  0  0  0  0  0
  1  2  1  0
  2  3  1  0
  3  4  1  1
  4  5  1  0
  5  6  1  0
  6  7  2  0
  6  8  1  0
  3  9  1  0
  9 10  1  6
 10 11  1  0
 12 11  1  6
 12 13  1  0
 13 14  1  1
 14 15  1  6
 14 16  1  0
 17 16  1  1
 17 18  1  0
 18 19  1  0
 19 20  1  1
 20 21  2  0
 20 22  1  0
 19 23  1  0
 23 24  1  0
 24 25  1  0
 25 26  1  6
 25 27  1  0
 27 28  1  6
 28 29  1  0
 29 30  1  0
 30 31  1  6
 30  9  1  0
 30 12  1  0
 27 13  1  0
 25 17  1  0
M  END
>  <MS_ID>  (3104) 
MS3223

>  <SMILES>  (3104) 
CS[C@H](CCC(=O)O)[C@H]1CC[C@H]2[C@@H]3[C@@H](O)C[C@@H]4C[C@H](C(=O)O)CC[C@]4(C)[C@H]3CC[C@]12C

>  <Structure_dimension>  (3104) 
2D

$$$$
MS3224
     RDKit          2D

 30 33  0  0  0  0  0  0  0  0999 V2000
   -6.8124    3.8339    0.0000 C   0  0  0  0  0  0  0  0  0  0  0  0
   -6.5219    2.3623    0.0000 C   0  0  0  0  0  0  0  0  0  0  0  0
   -7.6511    1.3749    0.0000 C   0  0  0  0  0  0  0  0  0  0  0  0
   -5.1022    1.8780    0.0000 C   0  0  0  0  0  0  0  0  0  0  0  0
   -4.8117    0.4064    0.0000 C   0  0  0  0  0  0  0  0  0  0  0  0
   -5.9409   -0.5809    0.0000 O   0  0  0  0  0  0  0  0  0  0  0  0
   -3.3920   -0.0778    0.0000 C   0  0  0  0  0  0  0  0  0  0  0  0
   -2.2628    0.9095    0.0000 O   0  0  0  0  0  0  0  0  0  0  0  0
   -3.1016   -1.5494    0.0000 C   0  0  0  0  0  0  0  0  0  0  0  0
   -4.2308   -2.5368    0.0000 C   0  0  0  0  0  0  0  0  0  0  0  0
   -1.6819   -2.0337    0.0000 C   0  0  0  0  0  0  0  0  0  0  0  0
   -1.2392   -3.4669    0.0000 C   0  0  0  0  0  0  0  0  0  0  0  0
    0.2607   -3.4887    0.0000 C   0  0  0  0  0  0  0  0  0  0  0  0
    0.7449   -2.0690    0.0000 C   0  0  0  0  0  0  0  0  0  0  0  0
    2.1240   -1.4789    0.0000 C   0  0  0  0  0  0  0  0  0  0  0  0
    3.3245   -2.3782    0.0000 C   0  0  0  0  0  0  0  0  0  0  0  0
    4.7036   -1.7881    0.0000 C   0  0  0  0  0  0  0  0  0  0  0  0
    4.8821   -0.2987    0.0000 C   0  0  0  0  0  0  0  0  0  0  0  0
    6.2611    0.2914    0.0000 C   0  0  0  0  0  0  0  0  0  0  0  0
    6.4396    1.7807    0.0000 C   0  0  0  0  0  0  0  0  0  0  0  0
    7.8187    2.3708    0.0000 O   0  0  0  0  0  0  0  0  0  0  0  0
    5.2391    2.6800    0.0000 C   0  0  0  0  0  0  0  0  0  0  0  0
    3.8600    2.0899    0.0000 C   0  0  0  0  0  0  0  0  0  0  0  0
    3.6815    0.6005    0.0000 C   0  0  0  0  0  0  0  0  0  0  0  0
    2.4809    1.4998    0.0000 C   0  0  0  0  0  0  0  0  0  0  0  0
    2.3025    0.0104    0.0000 C   0  0  0  0  0  0  0  0  0  0  0  0
    1.1019    0.9097    0.0000 C   0  0  0  0  0  0  0  0  0  0  0  0
   -0.2772    0.3196    0.0000 C   0  0  0  0  0  0  0  0  0  0  0  0
   -0.4557   -1.1698    0.0000 C   0  0  0  0  0  0  0  0  0  0  0  0
   -1.7436   -0.4009    0.0000 C   0  0  0  0  0  0  0  0  0  0  0  0
  1  2  1  0
  2  3  1  0
  2  4  1  0
  4  5  1  0
  5  6  1  6
  5  7  1  0
  7  8  1  6
  7  9  1  0
  9 10  1  6
  9 11  1  0
 11 12  1  6
 12 13  1  0
 14 13  1  6
 14 15  1  0
 15 16  1  1
 16 17  1  0
 18 17  1  6
 18 19  1  0
 19 20  1  0
 20 21  1  1
 20 22  1  0
 22 23  1  0
 23 24  1  0
 24 25  1  6
 24 26  1  0
 26 27  1  6
 27 28  1  0
 28 29  1  0
 29 30  1  6
 29 11  1  0
 29 14  1  0
 26 15  1  0
 24 18  1  0
M  END
>  <MS_ID>  (3105) 
MS3224

>  <SMILES>  (3105) 
CC(C)C[C@@H](O)[C@H](O)[C@@H](C)[C@H]1CC[C@H]2[C@@H]3CC[C@H]4C[C@H](O)CC[C@]4(C)[C@H]3CC[C@]12C

>  <Structure_dimension>  (3105) 
2D

$$$$
MS3225
     RDKit          2D

 40 44  0  0  0  0  0  0  0  0999 V2000
   -0.5969   -4.8504    0.0000 C   0  0  0  0  0  0  0  0  0  0  0  0
   -0.0719   -3.4453    0.0000 C   0  0  0  0  0  0  0  0  0  0  0  0
   -1.0263   -2.2881    0.0000 C   0  0  0  0  0  0  0  0  0  0  0  0
   -2.5057   -2.5359    0.0000 C   0  0  0  0  0  0  0  0  0  0  0  0
   -3.4600   -1.3787    0.0000 C   0  0  0  0  0  0  0  0  0  0  0  0
   -2.9350    0.0264    0.0000 O   0  0  0  0  0  0  0  0  0  0  0  0
   -4.9394   -1.6266    0.0000 N   0  0  0  0  0  0  0  0  0  0  0  0
   -5.8938   -0.4694    0.0000 C   0  0  0  0  0  0  0  0  0  0  0  0
   -7.3731   -0.7172    0.0000 C   0  0  0  0  0  0  0  0  0  0  0  0
   -8.3275    0.4400    0.0000 C   0  0  0  0  0  0  0  0  0  0  0  0
   -7.8025    1.8451    0.0000 C   0  0  0  0  0  0  0  0  0  0  0  0
   -8.7568    3.0023    0.0000 C   0  0  0  0  0  0  0  0  0  0  0  0
  -10.2362    2.7545    0.0000 C   0  0  0  0  0  0  0  0  0  0  0  0
  -10.7612    1.3493    0.0000 C   0  0  0  0  0  0  0  0  0  0  0  0
   -9.8069    0.1921    0.0000 C   0  0  0  0  0  0  0  0  0  0  0  0
   -5.3687    0.9358    0.0000 C   0  0  0  0  0  0  0  0  0  0  0  0
   -3.8894    1.1836    0.0000 O   0  0  0  0  0  0  0  0  0  0  0  0
   -6.3231    2.0930    0.0000 O   0  0  0  0  0  0  0  0  0  0  0  0
    1.4075   -3.1974    0.0000 C   0  0  0  0  0  0  0  0  0  0  0  0
    2.4776   -4.2485    0.0000 C   0  0  0  0  0  0  0  0  0  0  0  0
    3.8079   -3.5556    0.0000 C   0  0  0  0  0  0  0  0  0  0  0  0
    3.5600   -2.0763    0.0000 C   0  0  0  0  0  0  0  0  0  0  0  0
    4.4936   -0.9021    0.0000 C   0  0  0  0  0  0  0  0  0  0  0  0
    5.9771   -1.1235    0.0000 C   0  0  0  0  0  0  0  0  0  0  0  0
    6.5272   -2.5191    0.0000 O   0  0  0  0  0  0  0  0  0  0  0  0
    6.9107    0.0506    0.0000 C   0  0  0  0  0  0  0  0  0  0  0  0
    8.3942   -0.1708    0.0000 O   0  0  0  0  0  0  0  0  0  0  0  0
    6.3606    1.4461    0.0000 C   0  0  0  0  0  0  0  0  0  0  0  0
    7.2941    2.6202    0.0000 C   0  0  0  0  0  0  0  0  0  0  0  0
    6.7441    4.0157    0.0000 C   0  0  0  0  0  0  0  0  0  0  0  0
    7.6776    5.1898    0.0000 O   0  0  0  0  0  0  0  0  0  0  0  0
    5.2605    4.2371    0.0000 C   0  0  0  0  0  0  0  0  0  0  0  0
    4.3270    3.0630    0.0000 C   0  0  0  0  0  0  0  0  0  0  0  0
    4.8770    1.6675    0.0000 C   0  0  0  0  0  0  0  0  0  0  0  0
    3.3935    1.8889    0.0000 C   0  0  0  0  0  0  0  0  0  0  0  0
    3.9435    0.4934    0.0000 C   0  0  0  0  0  0  0  0  0  0  0  0
    2.4599    0.7148    0.0000 C   0  0  0  0  0  0  0  0  0  0  0  0
    1.5264   -0.4594    0.0000 C   0  0  0  0  0  0  0  0  0  0  0  0
    2.0765   -1.8549    0.0000 C   0  0  0  0  0  0  0  0  0  0  0  0
    0.5779   -1.7897    0.0000 C   0  0  0  0  0  0  0  0  0  0  0  0
  2  1  1  6
  2  3  1  0
  3  4  1  0
  4  5  1  0
  5  6  2  0
  5  7  1  0
  7  8  1  0
  8  9  1  1
  9 10  1  0
 10 11  2  0
 11 12  1  0
 12 13  2  0
 13 14  1  0
 14 15  2  0
  8 16  1  0
 16 17  2  0
 16 18  1  0
  2 19  1  0
 19 20  1  6
 20 21  1  0
 22 21  1  6
 22 23  1  0
 23 24  1  1
 24 25  1  1
 24 26  1  0
 26 27  1  6
 26 28  1  0
 28 29  1  1
 29 30  1  0
 30 31  1  1
 30 32  1  0
 32 33  1  0
 33 34  1  0
 34 35  1  6
 34 36  1  0
 36 37  1  6
 37 38  1  0
 38 39  1  0
 39 40  1  6
 15 10  1  0
 39 19  1  0
 39 22  1  0
 36 23  1  0
 34 28  1  0
M  END
>  <MS_ID>  (3106) 
MS3225

>  <SMILES>  (3106) 
C[C@H](CCC(=O)N[C@@H](Cc1ccccc1)C(=O)O)[C@H]1CC[C@H]2[C@@H]3[C@H](O)[C@@H](O)[C@@H]4C[C@H](O)CC[C@]4(C)[C@H]3CC[C@]12C

>  <Structure_dimension>  (3106) 
2D

$$$$
MS3227
     RDKit          2D

 29 32  0  0  0  0  0  0  0  0999 V2000
   -4.5794    2.7226    0.0000 C   0  0  0  0  0  0  0  0  0  0  0  0
   -3.3580    1.8519    0.0000 S   0  0  0  0  0  0  0  0  0  0  0  0
   -3.5014    0.3587    0.0000 C   0  0  0  0  0  0  0  0  0  0  0  0
   -4.8662   -0.2637    0.0000 C   0  0  0  0  0  0  0  0  0  0  0  0
   -6.0876    0.6071    0.0000 C   0  0  0  0  0  0  0  0  0  0  0  0
   -7.4524   -0.0153    0.0000 C   0  0  0  0  0  0  0  0  0  0  0  0
   -7.5958   -1.5084    0.0000 O   0  0  0  0  0  0  0  0  0  0  0  0
   -8.6738    0.8554    0.0000 O   0  0  0  0  0  0  0  0  0  0  0  0
   -2.2800   -0.5120    0.0000 C   0  0  0  0  0  0  0  0  0  0  0  0
   -2.2665   -2.0119    0.0000 C   0  0  0  0  0  0  0  0  0  0  0  0
   -0.8358   -2.4626    0.0000 C   0  0  0  0  0  0  0  0  0  0  0  0
    0.0349   -1.2412    0.0000 C   0  0  0  0  0  0  0  0  0  0  0  0
    1.5252   -1.0710    0.0000 C   0  0  0  0  0  0  0  0  0  0  0  0
    2.4178   -2.2766    0.0000 C   0  0  0  0  0  0  0  0  0  0  0  0
    1.8200   -3.6523    0.0000 O   0  0  0  0  0  0  0  0  0  0  0  0
    3.9081   -2.1064    0.0000 C   0  0  0  0  0  0  0  0  0  0  0  0
    4.5058   -0.7307    0.0000 C   0  0  0  0  0  0  0  0  0  0  0  0
    5.9961   -0.5605    0.0000 C   0  0  0  0  0  0  0  0  0  0  0  0
    6.5939    0.8153    0.0000 C   0  0  0  0  0  0  0  0  0  0  0  0
    8.0842    0.9855    0.0000 Cl  0  0  0  0  0  0  0  0  0  0  0  0
    5.7014    2.0208    0.0000 C   0  0  0  0  0  0  0  0  0  0  0  0
    4.2111    1.8506    0.0000 C   0  0  0  0  0  0  0  0  0  0  0  0
    3.6133    0.4749    0.0000 C   0  0  0  0  0  0  0  0  0  0  0  0
    2.7207    1.6805    0.0000 C   0  0  0  0  0  0  0  0  0  0  0  0
    2.1230    0.3047    0.0000 C   0  0  0  0  0  0  0  0  0  0  0  0
    1.2304    1.5103    0.0000 C   0  0  0  0  0  0  0  0  0  0  0  0
   -0.2599    1.3401    0.0000 C   0  0  0  0  0  0  0  0  0  0  0  0
   -0.8577   -0.0357    0.0000 C   0  0  0  0  0  0  0  0  0  0  0  0
   -1.8713    1.0700    0.0000 C   0  0  0  0  0  0  0  0  0  0  0  0
  1  2  1  0
  2  3  1  0
  3  4  1  1
  4  5  1  0
  5  6  1  0
  6  7  2  0
  6  8  1  0
  3  9  1  0
  9 10  1  6
 10 11  1  0
 12 11  1  6
 12 13  1  0
 13 14  1  1
 14 15  1  6
 14 16  1  0
 17 16  1  1
 17 18  1  0
 18 19  1  0
 19 20  1  1
 19 21  1  0
 21 22  1  0
 22 23  1  0
 23 24  1  6
 23 25  1  0
 25 26  1  6
 26 27  1  0
 27 28  1  0
 28 29  1  6
 28  9  1  0
 28 12  1  0
 25 13  1  0
 23 17  1  0
M  END
>  <MS_ID>  (3107) 
MS3227

>  <SMILES>  (3107) 
CS[C@H](CCC(=O)O)[C@H]1CC[C@H]2[C@@H]3[C@@H](O)C[C@@H]4C[C@H](Cl)CC[C@]4(C)[C@H]3CC[C@]12C

>  <Structure_dimension>  (3107) 
2D

$$$$
MS3228
     RDKit          2D

 35 38  0  0  0  0  0  0  0  0999 V2000
   -2.6584   -4.2186    0.0000 C   0  0  0  0  0  0  0  0  0  0  0  0
   -1.9156   -2.9154    0.0000 C   0  0  0  0  0  0  0  0  0  0  0  0
   -2.6728   -1.6206    0.0000 C   0  0  0  0  0  0  0  0  0  0  0  0
   -4.1728   -1.6289    0.0000 C   0  0  0  0  0  0  0  0  0  0  0  0
   -4.9300   -0.3341    0.0000 C   0  0  0  0  0  0  0  0  0  0  0  0
   -4.1872    0.9691    0.0000 O   0  0  0  0  0  0  0  0  0  0  0  0
   -6.4300   -0.3424    0.0000 N   0  0  0  0  0  0  0  0  0  0  0  0
   -7.1872    0.9525    0.0000 C   0  0  0  0  0  0  0  0  0  0  0  0
   -8.6871    0.9441    0.0000 C   0  0  0  0  0  0  0  0  0  0  0  0
   -9.4443    2.2390    0.0000 O   0  0  0  0  0  0  0  0  0  0  0  0
   -6.4444    2.2556    0.0000 C   0  0  0  0  0  0  0  0  0  0  0  0
   -4.9444    2.2640    0.0000 O   0  0  0  0  0  0  0  0  0  0  0  0
   -7.2016    3.5505    0.0000 O   0  0  0  0  0  0  0  0  0  0  0  0
   -0.4156   -2.9071    0.0000 C   0  0  0  0  0  0  0  0  0  0  0  0
    0.4728   -4.1157    0.0000 C   0  0  0  0  0  0  0  0  0  0  0  0
    1.8968   -3.6443    0.0000 C   0  0  0  0  0  0  0  0  0  0  0  0
    1.8884   -2.1443    0.0000 C   0  0  0  0  0  0  0  0  0  0  0  0
    2.9976   -1.1344    0.0000 C   0  0  0  0  0  0  0  0  0  0  0  0
    4.4267   -1.5900    0.0000 C   0  0  0  0  0  0  0  0  0  0  0  0
    4.7467   -3.0555    0.0000 O   0  0  0  0  0  0  0  0  0  0  0  0
    5.5358   -0.5802    0.0000 C   0  0  0  0  0  0  0  0  0  0  0  0
    6.9650   -1.0357    0.0000 O   0  0  0  0  0  0  0  0  0  0  0  0
    5.2158    0.8853    0.0000 C   0  0  0  0  0  0  0  0  0  0  0  0
    6.3249    1.8952    0.0000 C   0  0  0  0  0  0  0  0  0  0  0  0
    6.0049    3.3607    0.0000 C   0  0  0  0  0  0  0  0  0  0  0  0
    7.1141    4.3705    0.0000 O   0  0  0  0  0  0  0  0  0  0  0  0
    4.5758    3.8162    0.0000 C   0  0  0  0  0  0  0  0  0  0  0  0
    3.4667    2.8064    0.0000 C   0  0  0  0  0  0  0  0  0  0  0  0
    3.7867    1.3409    0.0000 C   0  0  0  0  0  0  0  0  0  0  0  0
    2.3575    1.7965    0.0000 C   0  0  0  0  0  0  0  0  0  0  0  0
    2.6776    0.3310    0.0000 C   0  0  0  0  0  0  0  0  0  0  0  0
    1.2484    0.7866    0.0000 C   0  0  0  0  0  0  0  0  0  0  0  0
    0.1393   -0.2232    0.0000 C   0  0  0  0  0  0  0  0  0  0  0  0
    0.4593   -1.6887    0.0000 C   0  0  0  0  0  0  0  0  0  0  0  0
   -1.0096   -1.3850    0.0000 C   0  0  0  0  0  0  0  0  0  0  0  0
  2  1  1  6
  2  3  1  0
  3  4  1  0
  4  5  1  0
  5  6  2  0
  5  7  1  0
  7  8  1  0
  8  9  1  1
  9 10  1  0
  8 11  1  0
 11 12  2  0
 11 13  1  0
  2 14  1  0
 14 15  1  6
 15 16  1  0
 17 16  1  6
 17 18  1  0
 18 19  1  1
 19 20  1  6
 19 21  1  0
 21 22  1  6
 21 23  1  0
 23 24  1  1
 24 25  1  0
 25 26  1  1
 25 27  1  0
 27 28  1  0
 28 29  1  0
 29 30  1  6
 29 31  1  0
 31 32  1  6
 32 33  1  0
 33 34  1  0
 34 35  1  6
 34 14  1  0
 34 17  1  0
 31 18  1  0
 29 23  1  0
M  END
>  <MS_ID>  (3108) 
MS3228

>  <SMILES>  (3108) 
C[C@H](CCC(=O)N[C@@H](CO)C(=O)O)[C@H]1CC[C@H]2[C@@H]3[C@@H](O)[C@@H](O)[C@@H]4C[C@H](O)CC[C@]4(C)[C@H]3CC[C@]12C

>  <Structure_dimension>  (3108) 
2D

$$$$
MS3229
     RDKit          2D

 27 30  0  0  0  0  0  0  0  0999 V2000
   -5.1023   -2.0364    0.0000 C   0  0  0  0  0  0  0  0  0  0  0  0
   -3.8978   -1.1425    0.0000 C   0  0  0  0  0  0  0  0  0  0  0  0
   -4.0697    0.3476    0.0000 N   0  0  0  0  0  0  0  0  0  0  0  0
   -5.4461    0.9438    0.0000 C   0  0  0  0  0  0  0  0  0  0  0  0
   -5.6180    2.4339    0.0000 C   0  0  0  0  0  0  0  0  0  0  0  0
   -4.4135    3.3278    0.0000 O   0  0  0  0  0  0  0  0  0  0  0  0
   -6.9944    3.0301    0.0000 O   0  0  0  0  0  0  0  0  0  0  0  0
   -2.5213   -1.7387    0.0000 C   0  0  0  0  0  0  0  0  0  0  0  0
   -2.1946   -3.2027    0.0000 C   0  0  0  0  0  0  0  0  0  0  0  0
   -0.7013   -3.3444    0.0000 C   0  0  0  0  0  0  0  0  0  0  0  0
   -0.1051   -1.9679    0.0000 C   0  0  0  0  0  0  0  0  0  0  0  0
    1.3167   -1.4900    0.0000 C   0  0  0  0  0  0  0  0  0  0  0  0
    2.4415   -2.4823    0.0000 C   0  0  0  0  0  0  0  0  0  0  0  0
    3.8633   -2.0044    0.0000 C   0  0  0  0  0  0  0  0  0  0  0  0
    4.1603   -0.5341    0.0000 C   0  0  0  0  0  0  0  0  0  0  0  0
    5.5821   -0.0561    0.0000 C   0  0  0  0  0  0  0  0  0  0  0  0
    5.8791    1.4142    0.0000 C   0  0  0  0  0  0  0  0  0  0  0  0
    7.3009    1.8921    0.0000 O   0  0  0  0  0  0  0  0  0  0  0  0
    4.7543    2.4065    0.0000 C   0  0  0  0  0  0  0  0  0  0  0  0
    3.3325    1.9286    0.0000 C   0  0  0  0  0  0  0  0  0  0  0  0
    3.0355    0.4583    0.0000 C   0  0  0  0  0  0  0  0  0  0  0  0
    1.9107    1.4506    0.0000 C   0  0  0  0  0  0  0  0  0  0  0  0
    1.6137   -0.0197    0.0000 C   0  0  0  0  0  0  0  0  0  0  0  0
    0.4888    0.9727    0.0000 C   0  0  0  0  0  0  0  0  0  0  0  0
   -0.9330    0.4947    0.0000 C   0  0  0  0  0  0  0  0  0  0  0  0
   -1.2300   -0.9756    0.0000 C   0  0  0  0  0  0  0  0  0  0  0  0
   -2.4524   -0.1062    0.0000 C   0  0  0  0  0  0  0  0  0  0  0  0
  2  1  1  6
  2  3  1  0
  3  4  1  0
  4  5  1  0
  5  6  2  0
  5  7  1  0
  2  8  1  0
  8  9  1  6
  9 10  1  0
 11 10  1  6
 11 12  1  0
 12 13  1  1
 13 14  1  0
 15 14  1  1
 15 16  1  0
 16 17  1  0
 17 18  1  6
 17 19  1  0
 19 20  1  0
 20 21  1  0
 21 22  1  6
 21 23  1  0
 23 24  1  6
 24 25  1  0
 25 26  1  0
 26 27  1  6
 26  8  1  0
 26 11  1  0
 23 12  1  0
 21 15  1  0
M  END
>  <MS_ID>  (3109) 
MS3229

>  <SMILES>  (3109) 
C[C@H](NCC(=O)O)[C@H]1CC[C@H]2[C@@H]3CC[C@@H]4C[C@@H](O)CC[C@]4(C)[C@H]3CC[C@]12C

>  <Structure_dimension>  (3109) 
2D

$$$$
MS3230
     RDKit          2D

 26 29  0  0  0  0  0  0  0  0999 V2000
    2.0291   -1.4220    0.0000 C   0  0  0  0  0  0  0  0  0  0  0  0
    2.7100   -0.0854    0.0000 C   0  0  0  0  0  0  0  0  0  0  0  0
    3.5271   -1.3433    0.0000 C   0  0  0  0  0  0  0  0  0  0  0  0
    5.0250   -1.2646    0.0000 C   0  0  0  0  0  0  0  0  0  0  0  0
    5.7058    0.0720    0.0000 C   0  0  0  0  0  0  0  0  0  0  0  0
    7.2038    0.1507    0.0000 O   0  0  0  0  0  0  0  0  0  0  0  0
    4.8887    1.3299    0.0000 C   0  0  0  0  0  0  0  0  0  0  0  0
    3.3908    1.2512    0.0000 C   0  0  0  0  0  0  0  0  0  0  0  0
    2.5737    2.5091    0.0000 C   0  0  0  0  0  0  0  0  0  0  0  0
    1.0757    2.4304    0.0000 C   0  0  0  0  0  0  0  0  0  0  0  0
    0.3949    1.0938    0.0000 C   0  0  0  0  0  0  0  0  0  0  0  0
    1.2120   -0.1641    0.0000 C   0  0  0  0  0  0  0  0  0  0  0  0
    0.5312   -1.5007    0.0000 C   0  0  0  0  0  0  0  0  0  0  0  0
    1.3483   -2.7586    0.0000 O   0  0  0  0  0  0  0  0  0  0  0  0
   -0.9667   -1.5794    0.0000 C   0  0  0  0  0  0  0  0  0  0  0  0
   -1.7838   -0.3214    0.0000 C   0  0  0  0  0  0  0  0  0  0  0  0
   -2.4412   -1.6697    0.0000 C   0  0  0  0  0  0  0  0  0  0  0  0
   -1.1030    1.0151    0.0000 C   0  0  0  0  0  0  0  0  0  0  0  0
   -2.1638    2.0757    0.0000 C   0  0  0  0  0  0  0  0  0  0  0  0
   -3.5002    1.3945    0.0000 C   0  0  0  0  0  0  0  0  0  0  0  0
   -3.2654   -0.0870    0.0000 C   0  0  0  0  0  0  0  0  0  0  0  0
   -3.5257   -1.5642    0.0000 O   0  0  0  0  0  0  0  0  0  0  0  0
   -4.7633   -0.1657    0.0000 C   0  0  0  0  0  0  0  0  0  0  0  0
   -5.4442   -1.5022    0.0000 O   0  0  0  0  0  0  0  0  0  0  0  0
   -5.5804    1.0923    0.0000 C   0  0  0  0  0  0  0  0  0  0  0  0
   -7.0784    1.0136    0.0000 O   0  0  0  0  0  0  0  0  0  0  0  0
  2  1  1  1
  2  3  1  0
  3  4  1  0
  4  5  1  0
  5  6  1  1
  5  7  1  0
  8  7  1  1
  8  9  1  0
  9 10  1  0
 11 10  1  6
 11 12  1  0
 12 13  1  1
 13 14  1  1
 13 15  1  0
 15 16  1  0
 16 17  1  1
 16 18  1  0
 18 19  1  1
 19 20  1  0
 20 21  1  0
 21 22  1  6
 21 23  1  0
 23 24  1  6
 23 25  1  0
 25 26  1  0
  8  2  1  0
 18 11  1  0
 12  2  1  0
 21 16  1  0
M  END
>  <MS_ID>  (3110) 
MS3230

>  <SMILES>  (3110) 
C[C@]12CC[C@H](O)C[C@@H]1CC[C@@H]1[C@@H]2[C@@H](O)C[C@@]2(C)[C@H]1CC[C@]2(O)[C@H](O)CO

>  <Structure_dimension>  (3110) 
2D

$$$$
MS3232
     RDKit          2D

 24 27  0  0  0  0  0  0  0  0999 V2000
    1.6887   -1.5390    0.0000 C   0  0  0  0  0  0  0  0  0  0  0  0
    2.5258   -0.2943    0.0000 C   0  0  0  0  0  0  0  0  0  0  0  0
    3.1852   -1.6416    0.0000 C   0  0  0  0  0  0  0  0  0  0  0  0
    4.6817   -1.7441    0.0000 C   0  0  0  0  0  0  0  0  0  0  0  0
    5.5188   -0.4994    0.0000 C   0  0  0  0  0  0  0  0  0  0  0  0
    7.0153   -0.6020    0.0000 O   0  0  0  0  0  0  0  0  0  0  0  0
    4.8594    0.8479    0.0000 C   0  0  0  0  0  0  0  0  0  0  0  0
    3.3629    0.9504    0.0000 C   0  0  0  0  0  0  0  0  0  0  0  0
    2.7034    2.2977    0.0000 C   0  0  0  0  0  0  0  0  0  0  0  0
    1.2070    2.4003    0.0000 C   0  0  0  0  0  0  0  0  0  0  0  0
    0.3699    1.1555    0.0000 C   0  0  0  0  0  0  0  0  0  0  0  0
    1.0293   -0.1917    0.0000 C   0  0  0  0  0  0  0  0  0  0  0  0
    0.1923   -1.4364    0.0000 C   0  0  0  0  0  0  0  0  0  0  0  0
   -1.3042   -1.3339    0.0000 C   0  0  0  0  0  0  0  0  0  0  0  0
   -1.9637    0.0134    0.0000 C   0  0  0  0  0  0  0  0  0  0  0  0
   -2.9262   -1.1370    0.0000 C   0  0  0  0  0  0  0  0  0  0  0  0
   -3.4061    0.4248    0.0000 C   0  0  0  0  0  0  0  0  0  0  0  0
   -4.5869   -0.5003    0.0000 C   0  0  0  0  0  0  0  0  0  0  0  0
   -4.3760   -1.9854    0.0000 O   0  0  0  0  0  0  0  0  0  0  0  0
   -5.9784    0.0597    0.0000 C   0  0  0  0  0  0  0  0  0  0  0  0
   -7.1591   -0.8654    0.0000 O   0  0  0  0  0  0  0  0  0  0  0  0
   -3.4606    1.9239    0.0000 C   0  0  0  0  0  0  0  0  0  0  0  0
   -2.0517    2.4388    0.0000 C   0  0  0  0  0  0  0  0  0  0  0  0
   -1.1266    1.2581    0.0000 C   0  0  0  0  0  0  0  0  0  0  0  0
  2  1  1  1
  2  3  1  0
  3  4  1  0
  4  5  1  0
  5  6  1  6
  5  7  1  0
  8  7  1  6
  8  9  1  0
  9 10  1  0
 11 10  1  6
 11 12  1  0
 12 13  1  1
 13 14  1  0
 14 15  1  0
 15 16  1  1
 15 17  1  0
 17 18  1  6
 18 19  2  0
 18 20  1  0
 20 21  1  0
 17 22  1  0
 22 23  1  0
 24 23  1  1
  8  2  1  0
 24 11  1  0
 12  2  1  0
 24 15  1  0
M  END
>  <MS_ID>  (3111) 
MS3232

>  <SMILES>  (3111) 
C[C@]12CC[C@@H](O)C[C@H]1CC[C@@H]1[C@@H]2CC[C@]2(C)[C@H](C(=O)CO)CC[C@@H]12

>  <Structure_dimension>  (3111) 
2D

$$$$
MS3233
     RDKit          2D

 34 37  0  0  0  0  0  0  0  0999 V2000
   -2.4676   -4.1641    0.0000 C   0  0  0  0  0  0  0  0  0  0  0  0
   -1.7000   -2.8754    0.0000 C   0  0  0  0  0  0  0  0  0  0  0  0
   -2.4324   -1.5663    0.0000 C   0  0  0  0  0  0  0  0  0  0  0  0
   -3.9322   -1.5459    0.0000 C   0  0  0  0  0  0  0  0  0  0  0  0
   -4.6645   -0.2368    0.0000 C   0  0  0  0  0  0  0  0  0  0  0  0
   -3.8970    1.0519    0.0000 O   0  0  0  0  0  0  0  0  0  0  0  0
   -6.1644   -0.2165    0.0000 N   0  0  0  0  0  0  0  0  0  0  0  0
   -6.8967    1.0926    0.0000 C   0  0  0  0  0  0  0  0  0  0  0  0
   -8.2058    0.3603    0.0000 C   0  0  0  0  0  0  0  0  0  0  0  0
   -5.5876    1.8249    0.0000 C   0  0  0  0  0  0  0  0  0  0  0  0
   -7.6290    2.4017    0.0000 C   0  0  0  0  0  0  0  0  0  0  0  0
   -9.1289    2.4220    0.0000 O   0  0  0  0  0  0  0  0  0  0  0  0
   -6.8615    3.6904    0.0000 O   0  0  0  0  0  0  0  0  0  0  0  0
   -0.2002   -2.8957    0.0000 C   0  0  0  0  0  0  0  0  0  0  0  0
    0.6650   -4.1211    0.0000 C   0  0  0  0  0  0  0  0  0  0  0  0
    2.0977   -3.6769    0.0000 C   0  0  0  0  0  0  0  0  0  0  0  0
    2.1180   -2.1771    0.0000 C   0  0  0  0  0  0  0  0  0  0  0  0
    3.2463   -1.1886    0.0000 C   0  0  0  0  0  0  0  0  0  0  0  0
    4.6664   -1.6714    0.0000 C   0  0  0  0  0  0  0  0  0  0  0  0
    4.9584   -3.1427    0.0000 O   0  0  0  0  0  0  0  0  0  0  0  0
    5.7947   -0.6829    0.0000 C   0  0  0  0  0  0  0  0  0  0  0  0
    5.5027    0.7884    0.0000 C   0  0  0  0  0  0  0  0  0  0  0  0
    6.6309    1.7769    0.0000 C   0  0  0  0  0  0  0  0  0  0  0  0
    6.3390    3.2482    0.0000 C   0  0  0  0  0  0  0  0  0  0  0  0
    7.4672    4.2367    0.0000 O   0  0  0  0  0  0  0  0  0  0  0  0
    4.9188    3.7310    0.0000 C   0  0  0  0  0  0  0  0  0  0  0  0
    3.7906    2.7425    0.0000 C   0  0  0  0  0  0  0  0  0  0  0  0
    4.0825    1.2712    0.0000 C   0  0  0  0  0  0  0  0  0  0  0  0
    2.6624    1.7540    0.0000 C   0  0  0  0  0  0  0  0  0  0  0  0
    2.9543    0.2827    0.0000 C   0  0  0  0  0  0  0  0  0  0  0  0
    1.5342    0.7656    0.0000 C   0  0  0  0  0  0  0  0  0  0  0  0
    0.4059   -0.2229    0.0000 C   0  0  0  0  0  0  0  0  0  0  0  0
    0.6979   -1.6942    0.0000 C   0  0  0  0  0  0  0  0  0  0  0  0
   -0.7650   -1.3625    0.0000 C   0  0  0  0  0  0  0  0  0  0  0  0
  2  1  1  6
  2  3  1  0
  3  4  1  0
  4  5  1  0
  5  6  2  0
  5  7  1  0
  7  8  1  0
  8  9  1  0
  8 10  1  0
  8 11  1  0
 11 12  2  0
 11 13  1  0
  2 14  1  0
 14 15  1  6
 15 16  1  0
 17 16  1  6
 17 18  1  0
 18 19  1  1
 19 20  1  6
 19 21  1  0
 22 21  1  1
 22 23  1  0
 23 24  1  0
 24 25  1  1
 24 26  1  0
 26 27  1  0
 27 28  1  0
 28 29  1  6
 28 30  1  0
 30 31  1  6
 31 32  1  0
 32 33  1  0
 33 34  1  6
 33 14  1  0
 33 17  1  0
 30 18  1  0
 28 22  1  0
M  END
>  <MS_ID>  (3112) 
MS3233

>  <SMILES>  (3112) 
C[C@H](CCC(=O)NC(C)(C)C(=O)O)[C@H]1CC[C@H]2[C@@H]3[C@@H](O)C[C@@H]4C[C@H](O)CC[C@]4(C)[C@H]3CC[C@]12C

>  <Structure_dimension>  (3112) 
2D

$$$$
MS3235
     RDKit          2D

 37 40  0  0  0  0  0  0  0  0999 V2000
   -0.1839   -4.7510    0.0000 C   0  0  0  0  0  0  0  0  0  0  0  0
    0.3860   -3.3635    0.0000 C   0  0  0  0  0  0  0  0  0  0  0  0
   -0.5306   -2.1761    0.0000 C   0  0  0  0  0  0  0  0  0  0  0  0
   -2.0172   -2.3763    0.0000 C   0  0  0  0  0  0  0  0  0  0  0  0
   -2.9339   -1.1890    0.0000 C   0  0  0  0  0  0  0  0  0  0  0  0
   -2.3639    0.1985    0.0000 O   0  0  0  0  0  0  0  0  0  0  0  0
   -4.4204   -1.3891    0.0000 N   0  0  0  0  0  0  0  0  0  0  0  0
   -5.3371   -0.2018    0.0000 C   0  0  0  0  0  0  0  0  0  0  0  0
   -6.8237   -0.4020    0.0000 C   0  0  0  0  0  0  0  0  0  0  0  0
   -7.7403    0.7853    0.0000 C   0  0  0  0  0  0  0  0  0  0  0  0
   -9.2269    0.5852    0.0000 C   0  0  0  0  0  0  0  0  0  0  0  0
  -10.1435    1.7725    0.0000 C   0  0  0  0  0  0  0  0  0  0  0  0
   -9.5736    3.1600    0.0000 N   0  0  0  0  0  0  0  0  0  0  0  0
  -11.6301    1.5723    0.0000 C   0  0  0  0  0  0  0  0  0  0  0  0
  -12.2001    0.1848    0.0000 O   0  0  0  0  0  0  0  0  0  0  0  0
  -12.5468    2.7597    0.0000 O   0  0  0  0  0  0  0  0  0  0  0  0
    1.8726   -3.1633    0.0000 C   0  0  0  0  0  0  0  0  0  0  0  0
    2.9083   -4.2483    0.0000 C   0  0  0  0  0  0  0  0  0  0  0  0
    4.2603   -3.5985    0.0000 C   0  0  0  0  0  0  0  0  0  0  0  0
    4.0601   -2.1120    0.0000 C   0  0  0  0  0  0  0  0  0  0  0  0
    5.0309   -0.9685    0.0000 C   0  0  0  0  0  0  0  0  0  0  0  0
    6.5066   -1.2375    0.0000 C   0  0  0  0  0  0  0  0  0  0  0  0
    7.4774   -0.0940    0.0000 C   0  0  0  0  0  0  0  0  0  0  0  0
    6.9726    1.3185    0.0000 C   0  0  0  0  0  0  0  0  0  0  0  0
    7.9434    2.4619    0.0000 C   0  0  0  0  0  0  0  0  0  0  0  0
    7.4385    3.8744    0.0000 C   0  0  0  0  0  0  0  0  0  0  0  0
    8.4093    5.0179    0.0000 O   0  0  0  0  0  0  0  0  0  0  0  0
    5.9628    4.1434    0.0000 C   0  0  0  0  0  0  0  0  0  0  0  0
    4.9920    3.0000    0.0000 C   0  0  0  0  0  0  0  0  0  0  0  0
    5.4969    1.5875    0.0000 C   0  0  0  0  0  0  0  0  0  0  0  0
    4.0212    1.8565    0.0000 C   0  0  0  0  0  0  0  0  0  0  0  0
    4.5261    0.4440    0.0000 C   0  0  0  0  0  0  0  0  0  0  0  0
    3.0504    0.7130    0.0000 C   0  0  0  0  0  0  0  0  0  0  0  0
    2.0796   -0.4305    0.0000 C   0  0  0  0  0  0  0  0  0  0  0  0
    0.6039   -0.1615    0.0000 O   0  0  0  0  0  0  0  0  0  0  0  0
    2.5845   -1.8430    0.0000 C   0  0  0  0  0  0  0  0  0  0  0  0
    1.0887   -1.7297    0.0000 C   0  0  0  0  0  0  0  0  0  0  0  0
  2  1  1  6
  2  3  1  0
  3  4  1  0
  4  5  1  0
  5  6  2  0
  5  7  1  0
  7  8  1  0
  8  9  1  0
  9 10  1  0
 10 11  1  0
 11 12  1  0
 12 13  1  1
 12 14  1  0
 14 15  2  0
 14 16  1  0
  2 17  1  0
 17 18  1  6
 18 19  1  0
 20 19  1  6
 20 21  1  0
 21 22  1  1
 22 23  1  0
 24 23  1  1
 24 25  1  0
 25 26  1  0
 26 27  1  1
 26 28  1  0
 28 29  1  0
 29 30  1  0
 30 31  1  6
 30 32  1  0
 32 33  1  6
 33 34  1  0
 34 35  1  1
 34 36  1  0
 36 37  1  6
 36 17  1  0
 36 20  1  0
 32 21  1  0
 30 24  1  0
M  END
>  <MS_ID>  (3113) 
MS3235

>  <SMILES>  (3113) 
C[C@H](CCC(=O)NCCCC[C@H](N)C(=O)O)[C@H]1CC[C@H]2[C@@H]3CC[C@@H]4C[C@H](O)CC[C@]4(C)[C@H]3C[C@H](O)[C@]12C

>  <Structure_dimension>  (3113) 
2D

$$$$
MS3236
     RDKit          2D

 39 43  0  0  0  0  0  0  0  0999 V2000
   -0.9718   -4.7646    0.0000 C   0  0  0  0  0  0  0  0  0  0  0  0
   -0.4121   -3.3730    0.0000 C   0  0  0  0  0  0  0  0  0  0  0  0
   -1.3374   -2.1924    0.0000 C   0  0  0  0  0  0  0  0  0  0  0  0
   -2.8225   -2.4035    0.0000 C   0  0  0  0  0  0  0  0  0  0  0  0
   -3.7478   -1.2229    0.0000 C   0  0  0  0  0  0  0  0  0  0  0  0
   -3.1881    0.1688    0.0000 O   0  0  0  0  0  0  0  0  0  0  0  0
   -5.2329   -1.4340    0.0000 N   0  0  0  0  0  0  0  0  0  0  0  0
   -6.1582   -0.2534    0.0000 C   0  0  0  0  0  0  0  0  0  0  0  0
   -7.6433   -0.4644    0.0000 C   0  0  0  0  0  0  0  0  0  0  0  0
   -8.5686    0.7161    0.0000 C   0  0  0  0  0  0  0  0  0  0  0  0
  -10.0676    0.6615    0.0000 C   0  0  0  0  0  0  0  0  0  0  0  0
  -10.5828    2.0702    0.0000 N   0  0  0  0  0  0  0  0  0  0  0  0
   -9.4023    2.9955    0.0000 C   0  0  0  0  0  0  0  0  0  0  0  0
   -8.1574    2.1587    0.0000 N   0  0  0  0  0  0  0  0  0  0  0  0
   -5.5985    1.1383    0.0000 C   0  0  0  0  0  0  0  0  0  0  0  0
   -4.1134    1.3493    0.0000 O   0  0  0  0  0  0  0  0  0  0  0  0
   -6.5238    2.3189    0.0000 O   0  0  0  0  0  0  0  0  0  0  0  0
    1.0730   -3.1619    0.0000 C   0  0  0  0  0  0  0  0  0  0  0  0
    2.1167   -4.2393    0.0000 C   0  0  0  0  0  0  0  0  0  0  0  0
    3.4638   -3.5797    0.0000 C   0  0  0  0  0  0  0  0  0  0  0  0
    3.2528   -2.0946    0.0000 C   0  0  0  0  0  0  0  0  0  0  0  0
    4.2151   -0.9440    0.0000 C   0  0  0  0  0  0  0  0  0  0  0  0
    5.6928   -1.2022    0.0000 C   0  0  0  0  0  0  0  0  0  0  0  0
    6.2080   -2.6109    0.0000 O   0  0  0  0  0  0  0  0  0  0  0  0
    6.6552   -0.0516    0.0000 C   0  0  0  0  0  0  0  0  0  0  0  0
    8.1328   -0.3098    0.0000 O   0  0  0  0  0  0  0  0  0  0  0  0
    6.1399    1.3571    0.0000 C   0  0  0  0  0  0  0  0  0  0  0  0
    7.1023    2.5077    0.0000 C   0  0  0  0  0  0  0  0  0  0  0  0
    6.5871    3.9164    0.0000 C   0  0  0  0  0  0  0  0  0  0  0  0
    7.5495    5.0670    0.0000 O   0  0  0  0  0  0  0  0  0  0  0  0
    5.1095    4.1746    0.0000 C   0  0  0  0  0  0  0  0  0  0  0  0
    4.1471    3.0240    0.0000 C   0  0  0  0  0  0  0  0  0  0  0  0
    4.6623    1.6153    0.0000 C   0  0  0  0  0  0  0  0  0  0  0  0
    3.1847    1.8735    0.0000 C   0  0  0  0  0  0  0  0  0  0  0  0
    3.6999    0.4647    0.0000 C   0  0  0  0  0  0  0  0  0  0  0  0
    2.2223    0.7229    0.0000 C   0  0  0  0  0  0  0  0  0  0  0  0
    1.2599   -0.4277    0.0000 C   0  0  0  0  0  0  0  0  0  0  0  0
    1.7751   -1.8364    0.0000 C   0  0  0  0  0  0  0  0  0  0  0  0
    0.2786   -1.7341    0.0000 C   0  0  0  0  0  0  0  0  0  0  0  0
  2  1  1  6
  2  3  1  0
  3  4  1  0
  4  5  1  0
  5  6  2  0
  5  7  1  0
  7  8  1  0
  8  9  1  1
  9 10  1  0
 10 11  2  0
 11 12  1  0
 12 13  1  0
 13 14  2  0
  8 15  1  0
 15 16  2  0
 15 17  1  0
  2 18  1  0
 18 19  1  6
 19 20  1  0
 21 20  1  6
 21 22  1  0
 22 23  1  1
 23 24  1  1
 23 25  1  0
 25 26  1  6
 25 27  1  0
 27 28  1  1
 28 29  1  0
 29 30  1  1
 29 31  1  0
 31 32  1  0
 32 33  1  0
 33 34  1  6
 33 35  1  0
 35 36  1  6
 36 37  1  0
 37 38  1  0
 38 39  1  6
 14 10  1  0
 38 18  1  0
 38 21  1  0
 35 22  1  0
 33 27  1  0
M  END
>  <MS_ID>  (3114) 
MS3236

>  <SMILES>  (3114) 
C[C@H](CCC(=O)N[C@@H](Cc1c[nH]cn1)C(=O)O)[C@H]1CC[C@H]2[C@@H]3[C@H](O)[C@@H](O)[C@@H]4C[C@H](O)CC[C@]4(C)[C@H]3CC[C@]12C

>  <Structure_dimension>  (3114) 
2D

$$$$
MS3237
     RDKit          2D

 26 29  0  0  0  0  0  0  0  0999 V2000
    2.1277   -1.5002    0.0000 C   0  0  0  0  0  0  0  0  0  0  0  0
    2.9182   -0.2254    0.0000 C   0  0  0  0  0  0  0  0  0  0  0  0
    3.6270   -1.5473    0.0000 C   0  0  0  0  0  0  0  0  0  0  0  0
    5.1263   -1.5945    0.0000 C   0  0  0  0  0  0  0  0  0  0  0  0
    5.9167   -0.3196    0.0000 C   0  0  0  0  0  0  0  0  0  0  0  0
    7.4160   -0.3668    0.0000 O   0  0  0  0  0  0  0  0  0  0  0  0
    5.2079    1.0023    0.0000 C   0  0  0  0  0  0  0  0  0  0  0  0
    3.7086    1.0495    0.0000 C   0  0  0  0  0  0  0  0  0  0  0  0
    2.9998    2.3714    0.0000 C   0  0  0  0  0  0  0  0  0  0  0  0
    1.5005    2.4185    0.0000 C   0  0  0  0  0  0  0  0  0  0  0  0
    0.7101    1.1437    0.0000 C   0  0  0  0  0  0  0  0  0  0  0  0
    1.4189   -0.1783    0.0000 C   0  0  0  0  0  0  0  0  0  0  0  0
    0.6285   -1.4531    0.0000 C   0  0  0  0  0  0  0  0  0  0  0  0
   -0.8708   -1.4060    0.0000 C   0  0  0  0  0  0  0  0  0  0  0  0
   -1.6612   -2.6808    0.0000 O   0  0  0  0  0  0  0  0  0  0  0  0
   -1.5796   -0.0840    0.0000 C   0  0  0  0  0  0  0  0  0  0  0  0
   -2.4990   -1.2692    0.0000 C   0  0  0  0  0  0  0  0  0  0  0  0
   -3.0363    0.2738    0.0000 C   0  0  0  0  0  0  0  0  0  0  0  0
   -4.1820   -0.6944    0.0000 O   0  0  0  0  0  0  0  0  0  0  0  0
   -5.5933   -0.1863    0.0000 S   0  0  0  0  0  0  0  0  0  0  0  0
   -5.0852    1.2251    0.0000 O   0  0  0  0  0  0  0  0  0  0  0  0
   -6.1014   -1.5976    0.0000 O   0  0  0  0  0  0  0  0  0  0  0  0
   -7.0046    0.3219    0.0000 O   0  0  0  0  0  0  0  0  0  0  0  0
   -3.1461    1.7698    0.0000 C   0  0  0  0  0  0  0  0  0  0  0  0
   -1.7573    2.3365    0.0000 C   0  0  0  0  0  0  0  0  0  0  0  0
   -0.7892    1.1908    0.0000 C   0  0  0  0  0  0  0  0  0  0  0  0
  2  1  1  1
  2  3  1  0
  3  4  1  0
  4  5  1  0
  5  6  2  0
  5  7  1  0
  8  7  1  6
  8  9  1  0
  9 10  1  0
 11 10  1  6
 11 12  1  0
 12 13  1  1
 13 14  1  0
 14 15  1  1
 14 16  1  0
 16 17  1  1
 16 18  1  0
 18 19  1  1
 19 20  1  0
 20 21  2  0
 20 22  2  0
 20 23  1  0
 18 24  1  0
 24 25  1  0
 26 25  1  1
  8  2  1  0
 26 11  1  0
 12  2  1  0
 26 16  1  0
M  END
>  <MS_ID>  (3115) 
MS3237

>  <SMILES>  (3115) 
C[C@]12CCC(=O)C[C@H]1CC[C@@H]1[C@@H]2C[C@@H](O)[C@]2(C)[C@@H](OS(=O)(=O)O)CC[C@@H]12

>  <Structure_dimension>  (3115) 
2D

$$$$
MS3238
     RDKit          2D

 31 34  0  0  0  0  0  0  0  0999 V2000
   -5.2977    4.0041    0.0000 C   0  0  0  0  0  0  0  0  0  0  0  0
   -4.9145    2.5539    0.0000 C   0  0  0  0  0  0  0  0  0  0  0  0
   -3.4670    2.1606    0.0000 C   0  0  0  0  0  0  0  0  0  0  0  0
   -5.9789    1.4970    0.0000 C   0  0  0  0  0  0  0  0  0  0  0  0
   -7.4264    1.8903    0.0000 C   0  0  0  0  0  0  0  0  0  0  0  0
   -5.5958    0.0467    0.0000 C   0  0  0  0  0  0  0  0  0  0  0  0
   -4.1482   -0.3466    0.0000 C   0  0  0  0  0  0  0  0  0  0  0  0
   -3.7651   -1.7968    0.0000 C   0  0  0  0  0  0  0  0  0  0  0  0
   -4.8295   -2.8538    0.0000 C   0  0  0  0  0  0  0  0  0  0  0  0
   -2.3176   -2.1901    0.0000 C   0  0  0  0  0  0  0  0  0  0  0  0
   -1.7849   -3.5924    0.0000 C   0  0  0  0  0  0  0  0  0  0  0  0
   -0.2867   -3.5191    0.0000 C   0  0  0  0  0  0  0  0  0  0  0  0
    0.1066   -2.0716    0.0000 C   0  0  0  0  0  0  0  0  0  0  0  0
    1.4455   -1.3953    0.0000 C   0  0  0  0  0  0  0  0  0  0  0  0
    2.7006   -2.2167    0.0000 C   0  0  0  0  0  0  0  0  0  0  0  0
    4.0395   -1.5404    0.0000 C   0  0  0  0  0  0  0  0  0  0  0  0
    5.2946   -2.3617    0.0000 O   0  0  0  0  0  0  0  0  0  0  0  0
    4.1233   -0.0427    0.0000 C   0  0  0  0  0  0  0  0  0  0  0  0
    5.3784   -0.8641    0.0000 O   0  0  0  0  0  0  0  0  0  0  0  0
    5.4621    0.6336    0.0000 C   0  0  0  0  0  0  0  0  0  0  0  0
    5.5459    2.1313    0.0000 C   0  0  0  0  0  0  0  0  0  0  0  0
    6.8848    2.8076    0.0000 O   0  0  0  0  0  0  0  0  0  0  0  0
    4.2908    2.9526    0.0000 C   0  0  0  0  0  0  0  0  0  0  0  0
    2.9519    2.2763    0.0000 C   0  0  0  0  0  0  0  0  0  0  0  0
    2.8681    0.7787    0.0000 C   0  0  0  0  0  0  0  0  0  0  0  0
    1.6130    1.6000    0.0000 C   0  0  0  0  0  0  0  0  0  0  0  0
    1.5292    0.1024    0.0000 C   0  0  0  0  0  0  0  0  0  0  0  0
    0.2741    0.9237    0.0000 C   0  0  0  0  0  0  0  0  0  0  0  0
   -1.0648    0.2474    0.0000 C   0  0  0  0  0  0  0  0  0  0  0  0
   -1.1485   -1.2502    0.0000 C   0  0  0  0  0  0  0  0  0  0  0  0
   -2.4827   -0.5646    0.0000 C   0  0  0  0  0  0  0  0  0  0  0  0
  1  2  1  0
  2  3  1  0
  2  4  1  0
  4  5  1  6
  4  6  1  0
  6  7  1  0
  7  8  1  0
  8  9  1  6
  8 10  1  0
 10 11  1  6
 11 12  1  0
 13 12  1  6
 13 14  1  0
 14 15  1  1
 15 16  1  0
 16 17  1  6
 16 18  1  0
 18 19  1  1
 18 20  1  0
 20 21  1  0
 21 22  1  6
 21 23  1  0
 23 24  1  0
 24 25  1  0
 25 26  1  6
 25 27  1  0
 27 28  1  6
 28 29  1  0
 29 30  1  0
 30 31  1  6
 30 10  1  0
 30 13  1  0
 27 14  1  0
 25 18  1  0
M  END
>  <MS_ID>  (3116) 
MS3238

>  <SMILES>  (3116) 
CC(C)[C@@H](C)CC[C@@H](C)[C@H]1CC[C@H]2[C@@H]3C[C@@H](O)[C@@]4(O)C[C@@H](O)CC[C@]4(C)[C@H]3CC[C@]12C

>  <Structure_dimension>  (3116) 
2D

$$$$
MS3239
     RDKit          2D

 38 41  0  0  0  0  0  0  0  0999 V2000
   -0.5173   -4.6843    0.0000 C   0  0  0  0  0  0  0  0  0  0  0  0
    0.0315   -3.2883    0.0000 C   0  0  0  0  0  0  0  0  0  0  0  0
   -0.9030   -2.1150    0.0000 C   0  0  0  0  0  0  0  0  0  0  0  0
   -2.3863   -2.3376    0.0000 C   0  0  0  0  0  0  0  0  0  0  0  0
   -3.3208   -1.1643    0.0000 C   0  0  0  0  0  0  0  0  0  0  0  0
   -2.7720    0.2317    0.0000 O   0  0  0  0  0  0  0  0  0  0  0  0
   -4.8042   -1.3869    0.0000 N   0  0  0  0  0  0  0  0  0  0  0  0
   -5.7387   -0.2136    0.0000 C   0  0  0  0  0  0  0  0  0  0  0  0
   -7.2221   -0.4363    0.0000 C   0  0  0  0  0  0  0  0  0  0  0  0
   -8.1566    0.7371    0.0000 C   0  0  0  0  0  0  0  0  0  0  0  0
   -9.6400    0.5144    0.0000 C   0  0  0  0  0  0  0  0  0  0  0  0
  -10.5745    1.6878    0.0000 C   0  0  0  0  0  0  0  0  0  0  0  0
  -10.0256    3.0837    0.0000 N   0  0  0  0  0  0  0  0  0  0  0  0
  -12.0579    1.4651    0.0000 C   0  0  0  0  0  0  0  0  0  0  0  0
  -12.6068    0.0692    0.0000 O   0  0  0  0  0  0  0  0  0  0  0  0
  -12.9924    2.6385    0.0000 O   0  0  0  0  0  0  0  0  0  0  0  0
    1.5149   -3.0657    0.0000 C   0  0  0  0  0  0  0  0  0  0  0  0
    2.5670   -4.1349    0.0000 C   0  0  0  0  0  0  0  0  0  0  0  0
    3.9089   -3.4648    0.0000 C   0  0  0  0  0  0  0  0  0  0  0  0
    3.6863   -1.9814    0.0000 C   0  0  0  0  0  0  0  0  0  0  0  0
    4.6397   -0.8233    0.0000 C   0  0  0  0  0  0  0  0  0  0  0  0
    6.1193   -1.0700    0.0000 C   0  0  0  0  0  0  0  0  0  0  0  0
    6.6455   -2.4747    0.0000 O   0  0  0  0  0  0  0  0  0  0  0  0
    7.0727    0.0880    0.0000 C   0  0  0  0  0  0  0  0  0  0  0  0
    8.5523   -0.1586    0.0000 O   0  0  0  0  0  0  0  0  0  0  0  0
    6.5465    1.4927    0.0000 C   0  0  0  0  0  0  0  0  0  0  0  0
    7.4999    2.6507    0.0000 C   0  0  0  0  0  0  0  0  0  0  0  0
    6.9737    4.0554    0.0000 C   0  0  0  0  0  0  0  0  0  0  0  0
    7.9271    5.2135    0.0000 O   0  0  0  0  0  0  0  0  0  0  0  0
    5.4941    4.3021    0.0000 C   0  0  0  0  0  0  0  0  0  0  0  0
    4.5407    3.1440    0.0000 C   0  0  0  0  0  0  0  0  0  0  0  0
    5.0669    1.7394    0.0000 C   0  0  0  0  0  0  0  0  0  0  0  0
    3.5873    1.9860    0.0000 C   0  0  0  0  0  0  0  0  0  0  0  0
    4.1135    0.5813    0.0000 C   0  0  0  0  0  0  0  0  0  0  0  0
    2.6339    0.8280    0.0000 C   0  0  0  0  0  0  0  0  0  0  0  0
    1.6805   -0.3301    0.0000 C   0  0  0  0  0  0  0  0  0  0  0  0
    2.2067   -1.7347    0.0000 C   0  0  0  0  0  0  0  0  0  0  0  0
    0.7095   -1.6441    0.0000 C   0  0  0  0  0  0  0  0  0  0  0  0
  2  1  1  6
  2  3  1  0
  3  4  1  0
  4  5  1  0
  5  6  2  0
  5  7  1  0
  7  8  1  0
  8  9  1  0
  9 10  1  0
 10 11  1  0
 11 12  1  0
 12 13  1  1
 12 14  1  0
 14 15  2  0
 14 16  1  0
  2 17  1  0
 17 18  1  6
 18 19  1  0
 20 19  1  6
 20 21  1  0
 21 22  1  1
 22 23  1  1
 22 24  1  0
 24 25  1  1
 24 26  1  0
 26 27  1  1
 27 28  1  0
 28 29  1  1
 28 30  1  0
 30 31  1  0
 31 32  1  0
 32 33  1  6
 32 34  1  0
 34 35  1  6
 35 36  1  0
 36 37  1  0
 37 38  1  6
 37 17  1  0
 37 20  1  0
 34 21  1  0
 32 26  1  0
M  END
>  <MS_ID>  (3117) 
MS3239

>  <SMILES>  (3117) 
C[C@H](CCC(=O)NCCCC[C@H](N)C(=O)O)[C@H]1CC[C@H]2[C@@H]3[C@H](O)[C@H](O)[C@@H]4C[C@H](O)CC[C@]4(C)[C@H]3CC[C@]12C

>  <Structure_dimension>  (3117) 
2D

$$$$
MS3240
     RDKit          2D

 24 27  0  0  0  0  0  0  0  0999 V2000
   -7.0141    1.4158    0.0000 C   0  0  0  0  0  0  0  0  0  0  0  0
   -5.8882    0.4247    0.0000 C   0  0  0  0  0  0  0  0  0  0  0  0
   -6.1836   -1.0459    0.0000 O   0  0  0  0  0  0  0  0  0  0  0  0
   -4.4669    0.9042    0.0000 O   0  0  0  0  0  0  0  0  0  0  0  0
   -3.3410   -0.0869    0.0000 C   0  0  0  0  0  0  0  0  0  0  0  0
   -3.4810   -1.5803    0.0000 C   0  0  0  0  0  0  0  0  0  0  0  0
   -2.1040   -2.1750    0.0000 C   0  0  0  0  0  0  0  0  0  0  0  0
   -1.1128   -1.0491    0.0000 C   0  0  0  0  0  0  0  0  0  0  0  0
    0.3871   -1.0323    0.0000 C   0  0  0  0  0  0  0  0  0  0  0  0
    1.1516   -2.3228    0.0000 C   0  0  0  0  0  0  0  0  0  0  0  0
    2.6515   -2.3060    0.0000 C   0  0  0  0  0  0  0  0  0  0  0  0
    3.3869   -0.9986    0.0000 C   0  0  0  0  0  0  0  0  0  0  0  0
    4.8868   -0.9818    0.0000 C   0  0  0  0  0  0  0  0  0  0  0  0
    5.6221    0.3256    0.0000 C   0  0  0  0  0  0  0  0  0  0  0  0
    7.1221    0.3425    0.0000 O   0  0  0  0  0  0  0  0  0  0  0  0
    4.8576    1.6162    0.0000 C   0  0  0  0  0  0  0  0  0  0  0  0
    3.3577    1.5993    0.0000 C   0  0  0  0  0  0  0  0  0  0  0  0
    2.6223    0.2919    0.0000 C   0  0  0  0  0  0  0  0  0  0  0  0
    1.8578    1.5825    0.0000 C   0  0  0  0  0  0  0  0  0  0  0  0
    1.1224    0.2751    0.0000 C   0  0  0  0  0  0  0  0  0  0  0  0
    0.3579    1.5656    0.0000 C   0  0  0  0  0  0  0  0  0  0  0  0
   -1.1420    1.5488    0.0000 C   0  0  0  0  0  0  0  0  0  0  0  0
   -1.8774    0.2414    0.0000 C   0  0  0  0  0  0  0  0  0  0  0  0
   -2.7726    1.4450    0.0000 C   0  0  0  0  0  0  0  0  0  0  0  0
  1  2  1  0
  2  3  2  0
  2  4  1  0
  5  4  1  6
  5  6  1  0
  6  7  1  0
  8  7  1  6
  8  9  1  0
  9 10  1  1
 10 11  1  0
 12 11  1  1
 12 13  1  0
 13 14  1  0
 14 15  1  6
 14 16  1  0
 16 17  1  0
 17 18  1  0
 18 19  1  6
 18 20  1  0
 20 21  1  6
 21 22  1  0
 22 23  1  0
 23 24  1  6
 23  5  1  0
 23  8  1  0
 20  9  1  0
 18 12  1  0
M  END
>  <MS_ID>  (3118) 
MS3240

>  <SMILES>  (3118) 
CC(=O)O[C@H]1CC[C@H]2[C@@H]3CC[C@@H]4C[C@@H](O)CC[C@]4(C)[C@H]3CC[C@]12C

>  <Structure_dimension>  (3118) 
2D

$$$$
MS3241
     RDKit          2D

 27 30  0  0  0  0  0  0  0  0999 V2000
   -8.7389    1.1502    0.0000 C   0  0  0  0  0  0  0  0  0  0  0  0
   -7.5511    0.2342    0.0000 C   0  0  0  0  0  0  0  0  0  0  0  0
   -7.7505   -1.2525    0.0000 O   0  0  0  0  0  0  0  0  0  0  0  0
   -6.1639    0.8049    0.0000 O   0  0  0  0  0  0  0  0  0  0  0  0
   -4.9761   -0.1112    0.0000 C   0  0  0  0  0  0  0  0  0  0  0  0
   -3.5889    0.4595    0.0000 C   0  0  0  0  0  0  0  0  0  0  0  0
   -3.3895    1.9462    0.0000 O   0  0  0  0  0  0  0  0  0  0  0  0
   -2.4011   -0.4565    0.0000 C   0  0  0  0  0  0  0  0  0  0  0  0
   -2.4440   -1.9559    0.0000 C   0  0  0  0  0  0  0  0  0  0  0  0
   -1.0312   -2.4600    0.0000 C   0  0  0  0  0  0  0  0  0  0  0  0
   -0.1152   -1.2722    0.0000 C   0  0  0  0  0  0  0  0  0  0  0  0
    1.3805   -1.1582    0.0000 C   0  0  0  0  0  0  0  0  0  0  0  0
    2.2271   -2.3964    0.0000 C   0  0  0  0  0  0  0  0  0  0  0  0
    3.7227   -2.2823    0.0000 C   0  0  0  0  0  0  0  0  0  0  0  0
    4.3718   -0.9300    0.0000 C   0  0  0  0  0  0  0  0  0  0  0  0
    5.8674   -0.8160    0.0000 C   0  0  0  0  0  0  0  0  0  0  0  0
    6.5165    0.5363    0.0000 C   0  0  0  0  0  0  0  0  0  0  0  0
    8.0121    0.6504    0.0000 O   0  0  0  0  0  0  0  0  0  0  0  0
    5.6699    1.7746    0.0000 C   0  0  0  0  0  0  0  0  0  0  0  0
    4.1742    1.6605    0.0000 C   0  0  0  0  0  0  0  0  0  0  0  0
    3.5252    0.3082    0.0000 C   0  0  0  0  0  0  0  0  0  0  0  0
    2.6785    1.5465    0.0000 C   0  0  0  0  0  0  0  0  0  0  0  0
    2.0295    0.1941    0.0000 C   0  0  0  0  0  0  0  0  0  0  0  0
    1.1829    1.4324    0.0000 C   0  0  0  0  0  0  0  0  0  0  0  0
   -0.3128    1.3183    0.0000 C   0  0  0  0  0  0  0  0  0  0  0  0
   -0.9618   -0.0340    0.0000 C   0  0  0  0  0  0  0  0  0  0  0  0
   -1.9332    1.1090    0.0000 C   0  0  0  0  0  0  0  0  0  0  0  0
  1  2  1  0
  2  3  2  0
  2  4  1  0
  4  5  1  0
  5  6  1  0
  6  7  2  0
  8  6  1  6
  8  9  1  0
  9 10  1  0
 11 10  1  6
 11 12  1  0
 12 13  1  1
 13 14  1  0
 15 14  1  1
 15 16  1  0
 16 17  1  0
 17 18  2  0
 17 19  1  0
 19 20  1  0
 20 21  1  0
 21 22  1  6
 21 23  1  0
 23 24  1  6
 24 25  1  0
 25 26  1  0
 26 27  1  6
 26  8  1  0
 26 11  1  0
 23 12  1  0
 21 15  1  0
M  END
>  <MS_ID>  (3119) 
MS3241

>  <SMILES>  (3119) 
CC(=O)OCC(=O)[C@H]1CC[C@H]2[C@@H]3CC[C@@H]4CC(=O)CC[C@]4(C)[C@H]3CC[C@]12C

>  <Structure_dimension>  (3119) 
2D

$$$$
MS3242
     RDKit          2D

 26 29  0  0  0  0  0  0  0  0999 V2000
   -3.8405    2.0512    0.0000 C   0  0  0  0  0  0  0  0  0  0  0  0
   -4.0273    0.5629    0.0000 C   0  0  0  0  0  0  0  0  0  0  0  0
   -5.4096   -0.0195    0.0000 C   0  0  0  0  0  0  0  0  0  0  0  0
   -5.5965   -1.5078    0.0000 O   0  0  0  0  0  0  0  0  0  0  0  0
   -6.6052    0.8864    0.0000 O   0  0  0  0  0  0  0  0  0  0  0  0
   -2.8318   -0.3431    0.0000 C   0  0  0  0  0  0  0  0  0  0  0  0
   -2.8620   -1.8428    0.0000 C   0  0  0  0  0  0  0  0  0  0  0  0
   -1.4450   -2.3350    0.0000 C   0  0  0  0  0  0  0  0  0  0  0  0
   -0.5391   -1.1394    0.0000 C   0  0  0  0  0  0  0  0  0  0  0  0
    0.9555   -1.0127    0.0000 C   0  0  0  0  0  0  0  0  0  0  0  0
    1.8126   -2.2438    0.0000 C   0  0  0  0  0  0  0  0  0  0  0  0
    1.1750   -3.6015    0.0000 O   0  0  0  0  0  0  0  0  0  0  0  0
    3.3072   -2.1171    0.0000 C   0  0  0  0  0  0  0  0  0  0  0  0
    3.9448   -0.7593    0.0000 C   0  0  0  0  0  0  0  0  0  0  0  0
    5.4394   -0.6326    0.0000 C   0  0  0  0  0  0  0  0  0  0  0  0
    6.0770    0.7252    0.0000 C   0  0  0  0  0  0  0  0  0  0  0  0
    5.2200    1.9562    0.0000 C   0  0  0  0  0  0  0  0  0  0  0  0
    3.7253    1.8295    0.0000 C   0  0  0  0  0  0  0  0  0  0  0  0
    3.0878    0.4717    0.0000 C   0  0  0  0  0  0  0  0  0  0  0  0
    2.2307    1.7028    0.0000 C   0  0  0  0  0  0  0  0  0  0  0  0
    1.5931    0.3450    0.0000 C   0  0  0  0  0  0  0  0  0  0  0  0
    0.7361    1.5761    0.0000 C   0  0  0  0  0  0  0  0  0  0  0  0
   -0.7586    1.4494    0.0000 C   0  0  0  0  0  0  0  0  0  0  0  0
   -1.6156    2.6804    0.0000 O   0  0  0  0  0  0  0  0  0  0  0  0
   -1.3962    0.0916    0.0000 C   0  0  0  0  0  0  0  0  0  0  0  0
   -2.3772    1.2263    0.0000 C   0  0  0  0  0  0  0  0  0  0  0  0
  2  1  1  1
  2  3  1  0
  3  4  2  0
  3  5  1  0
  2  6  1  0
  6  7  1  6
  7  8  1  0
  9  8  1  6
  9 10  1  0
 10 11  1  1
 11 12  1  1
 11 13  1  0
 14 13  1  1
 14 15  1  0
 15 16  1  0
 16 17  1  0
 17 18  1  0
 18 19  1  0
 19 20  1  6
 19 21  1  0
 21 22  1  6
 22 23  1  0
 23 24  1  6
 23 25  1  0
 25 26  1  6
 25  6  1  0
 25  9  1  0
 21 10  1  0
 19 14  1  0
M  END
>  <MS_ID>  (3120) 
MS3242

>  <SMILES>  (3120) 
C[C@H](C(=O)O)[C@H]1CC[C@H]2[C@@H]3[C@H](O)C[C@@H]4CCCC[C@]4(C)[C@H]3C[C@@H](O)[C@]12C

>  <Structure_dimension>  (3120) 
2D

$$$$
MS3243
     RDKit          2D

 40 44  0  0  0  0  0  0  0  0999 V2000
    0.0721   -4.9531    0.0000 C   0  0  0  0  0  0  0  0  0  0  0  0
    0.5459   -3.5299    0.0000 C   0  0  0  0  0  0  0  0  0  0  0  0
   -0.4498   -2.4080    0.0000 C   0  0  0  0  0  0  0  0  0  0  0  0
   -1.9192   -2.7093    0.0000 C   0  0  0  0  0  0  0  0  0  0  0  0
   -2.9148   -1.5873    0.0000 C   0  0  0  0  0  0  0  0  0  0  0  0
   -2.4410   -0.1641    0.0000 O   0  0  0  0  0  0  0  0  0  0  0  0
   -4.3843   -1.8886    0.0000 N   0  0  0  0  0  0  0  0  0  0  0  0
   -5.3799   -0.7667    0.0000 C   0  0  0  0  0  0  0  0  0  0  0  0
   -6.8493   -1.0680    0.0000 C   0  0  0  0  0  0  0  0  0  0  0  0
   -7.8450    0.0539    0.0000 C   0  0  0  0  0  0  0  0  0  0  0  0
   -7.3712    1.4771    0.0000 C   0  0  0  0  0  0  0  0  0  0  0  0
   -8.3668    2.5991    0.0000 C   0  0  0  0  0  0  0  0  0  0  0  0
   -9.8362    2.2978    0.0000 C   0  0  0  0  0  0  0  0  0  0  0  0
  -10.8319    3.4197    0.0000 O   0  0  0  0  0  0  0  0  0  0  0  0
  -10.3100    0.8746    0.0000 C   0  0  0  0  0  0  0  0  0  0  0  0
   -9.3144   -0.2474    0.0000 C   0  0  0  0  0  0  0  0  0  0  0  0
   -4.9061    0.6565    0.0000 C   0  0  0  0  0  0  0  0  0  0  0  0
   -3.4367    0.9578    0.0000 O   0  0  0  0  0  0  0  0  0  0  0  0
   -5.9017    1.7784    0.0000 O   0  0  0  0  0  0  0  0  0  0  0  0
    2.0153   -3.2286    0.0000 C   0  0  0  0  0  0  0  0  0  0  0  0
    3.1227   -4.2403    0.0000 C   0  0  0  0  0  0  0  0  0  0  0  0
    4.4272   -3.4997    0.0000 C   0  0  0  0  0  0  0  0  0  0  0  0
    4.1259   -2.0303    0.0000 C   0  0  0  0  0  0  0  0  0  0  0  0
    5.0163   -0.8231    0.0000 C   0  0  0  0  0  0  0  0  0  0  0  0
    6.5069   -0.9907    0.0000 C   0  0  0  0  0  0  0  0  0  0  0  0
    7.1071   -2.3654    0.0000 O   0  0  0  0  0  0  0  0  0  0  0  0
    7.3973    0.2165    0.0000 C   0  0  0  0  0  0  0  0  0  0  0  0
    6.7971    1.5911    0.0000 C   0  0  0  0  0  0  0  0  0  0  0  0
    7.6875    2.7983    0.0000 C   0  0  0  0  0  0  0  0  0  0  0  0
    7.0873    4.1730    0.0000 C   0  0  0  0  0  0  0  0  0  0  0  0
    7.9777    5.3801    0.0000 O   0  0  0  0  0  0  0  0  0  0  0  0
    5.5967    4.3405    0.0000 C   0  0  0  0  0  0  0  0  0  0  0  0
    4.7063    3.1334    0.0000 C   0  0  0  0  0  0  0  0  0  0  0  0
    5.3065    1.7587    0.0000 C   0  0  0  0  0  0  0  0  0  0  0  0
    3.8159    1.9262    0.0000 C   0  0  0  0  0  0  0  0  0  0  0  0
    4.4161    0.5515    0.0000 C   0  0  0  0  0  0  0  0  0  0  0  0
    2.9254    0.7191    0.0000 C   0  0  0  0  0  0  0  0  0  0  0  0
    2.0350   -0.4881    0.0000 C   0  0  0  0  0  0  0  0  0  0  0  0
    2.6353   -1.8627    0.0000 C   0  0  0  0  0  0  0  0  0  0  0  0
    1.1353   -1.8519    0.0000 C   0  0  0  0  0  0  0  0  0  0  0  0
  2  1  1  6
  2  3  1  0
  3  4  1  0
  4  5  1  0
  5  6  2  0
  5  7  1  0
  7  8  1  0
  8  9  1  1
  9 10  1  0
 10 11  2  0
 11 12  1  0
 12 13  2  0
 13 14  1  0
 13 15  1  0
 15 16  2  0
  8 17  1  0
 17 18  2  0
 17 19  1  0
  2 20  1  0
 20 21  1  6
 21 22  1  0
 23 22  1  6
 23 24  1  0
 24 25  1  1
 25 26  1  6
 25 27  1  0
 28 27  1  1
 28 29  1  0
 29 30  1  0
 30 31  1  1
 30 32  1  0
 32 33  1  0
 33 34  1  0
 34 35  1  6
 34 36  1  0
 36 37  1  6
 37 38  1  0
 38 39  1  0
 39 40  1  6
 16 10  1  0
 39 20  1  0
 39 23  1  0
 36 24  1  0
 34 28  1  0
M  END
>  <MS_ID>  (3121) 
MS3243

>  <SMILES>  (3121) 
C[C@H](CCC(=O)N[C@@H](Cc1ccc(O)cc1)C(=O)O)[C@H]1CC[C@H]2[C@@H]3[C@@H](O)C[C@@H]4C[C@H](O)CC[C@]4(C)[C@H]3CC[C@]12C

>  <Structure_dimension>  (3121) 
2D

$$$$
MS3244
     RDKit          2D

 25 28  0  0  0  0  0  0  0  0999 V2000
   -5.7665    1.2986    0.0000 C   0  0  0  0  0  0  0  0  0  0  0  0
   -5.0480   -0.0181    0.0000 C   0  0  0  0  0  0  0  0  0  0  0  0
   -5.8291   -1.2987    0.0000 O   0  0  0  0  0  0  0  0  0  0  0  0
   -3.5484   -0.0543    0.0000 C   0  0  0  0  0  0  0  0  0  0  0  0
   -3.8506    1.4150    0.0000 O   0  0  0  0  0  0  0  0  0  0  0  0
   -3.7411   -1.5418    0.0000 C   0  0  0  0  0  0  0  0  0  0  0  0
   -2.3859   -2.1848    0.0000 C   0  0  0  0  0  0  0  0  0  0  0  0
   -1.3556   -1.0946    0.0000 C   0  0  0  0  0  0  0  0  0  0  0  0
    0.1439   -1.1307    0.0000 C   0  0  0  0  0  0  0  0  0  0  0  0
    0.8624   -2.4475    0.0000 C   0  0  0  0  0  0  0  0  0  0  0  0
    2.3620   -2.4836    0.0000 C   0  0  0  0  0  0  0  0  0  0  0  0
    3.1431   -1.2030    0.0000 C   0  0  0  0  0  0  0  0  0  0  0  0
    4.6426   -1.2392    0.0000 C   0  0  0  0  0  0  0  0  0  0  0  0
    5.4237    0.0414    0.0000 C   0  0  0  0  0  0  0  0  0  0  0  0
    6.9233    0.0052    0.0000 O   0  0  0  0  0  0  0  0  0  0  0  0
    4.7052    1.3581    0.0000 C   0  0  0  0  0  0  0  0  0  0  0  0
    3.2057    1.3943    0.0000 C   0  0  0  0  0  0  0  0  0  0  0  0
    2.4246    0.1137    0.0000 C   0  0  0  0  0  0  0  0  0  0  0  0
    1.7061    1.4304    0.0000 C   0  0  0  0  0  0  0  0  0  0  0  0
    0.9250    0.1498    0.0000 C   0  0  0  0  0  0  0  0  0  0  0  0
    0.2065    1.4666    0.0000 C   0  0  0  0  0  0  0  0  0  0  0  0
    0.9876    2.7472    0.0000 O   0  0  0  0  0  0  0  0  0  0  0  0
   -1.2930    1.5027    0.0000 C   0  0  0  0  0  0  0  0  0  0  0  0
   -2.0741    0.2221    0.0000 C   0  0  0  0  0  0  0  0  0  0  0  0
   -2.7695    1.5512    0.0000 C   0  0  0  0  0  0  0  0  0  0  0  0
  1  2  1  0
  2  3  2  0
  2  4  1  0
  4  5  1  1
  4  6  1  0
  6  7  1  0
  8  7  1  6
  8  9  1  0
  9 10  1  1
 10 11  1  0
 12 11  1  1
 12 13  1  0
 13 14  1  0
 14 15  1  1
 14 16  1  0
 16 17  1  0
 17 18  1  0
 18 19  1  6
 18 20  1  0
 20 21  1  6
 21 22  2  0
 21 23  1  0
 23 24  1  0
 24 25  1  6
 24  4  1  0
 24  8  1  0
 20  9  1  0
 18 12  1  0
M  END
>  <MS_ID>  (3122) 
MS3244

>  <SMILES>  (3122) 
CC(=O)[C@@]1(O)CC[C@H]2[C@@H]3CC[C@@H]4C[C@H](O)CC[C@]4(C)[C@H]3C(=O)C[C@@]21C

>  <Structure_dimension>  (3122) 
2D

$$$$
MS3245
     RDKit          2D

 34 37  0  0  0  0  0  0  0  0999 V2000
   -2.0021   -4.4000    0.0000 C   0  0  0  0  0  0  0  0  0  0  0  0
   -1.2564   -3.0985    0.0000 C   0  0  0  0  0  0  0  0  0  0  0  0
   -2.0106   -1.8019    0.0000 C   0  0  0  0  0  0  0  0  0  0  0  0
   -3.5106   -1.8068    0.0000 C   0  0  0  0  0  0  0  0  0  0  0  0
   -4.2648   -0.5102    0.0000 C   0  0  0  0  0  0  0  0  0  0  0  0
   -3.5190    0.7913    0.0000 O   0  0  0  0  0  0  0  0  0  0  0  0
   -5.7648   -0.5151    0.0000 N   0  0  0  0  0  0  0  0  0  0  0  0
   -6.5190    0.7815    0.0000 C   0  0  0  0  0  0  0  0  0  0  0  0
   -8.0190    0.7766    0.0000 C   0  0  0  0  0  0  0  0  0  0  0  0
   -8.7732    2.0732    0.0000 C   0  0  0  0  0  0  0  0  0  0  0  0
  -10.2732    2.0684    0.0000 O   0  0  0  0  0  0  0  0  0  0  0  0
   -5.7733    2.0830    0.0000 C   0  0  0  0  0  0  0  0  0  0  0  0
   -4.2733    2.0879    0.0000 O   0  0  0  0  0  0  0  0  0  0  0  0
   -6.5275    3.3796    0.0000 O   0  0  0  0  0  0  0  0  0  0  0  0
    0.2436   -3.0936    0.0000 C   0  0  0  0  0  0  0  0  0  0  0  0
    1.1292   -4.3043    0.0000 C   0  0  0  0  0  0  0  0  0  0  0  0
    2.5543   -3.8361    0.0000 C   0  0  0  0  0  0  0  0  0  0  0  0
    2.5494   -2.3361    0.0000 C   0  0  0  0  0  0  0  0  0  0  0  0
    3.6609   -1.3288    0.0000 C   0  0  0  0  0  0  0  0  0  0  0  0
    5.0890   -1.7877    0.0000 C   0  0  0  0  0  0  0  0  0  0  0  0
    6.2004   -0.7804    0.0000 C   0  0  0  0  0  0  0  0  0  0  0  0
    5.8838    0.6858    0.0000 C   0  0  0  0  0  0  0  0  0  0  0  0
    6.9952    1.6932    0.0000 C   0  0  0  0  0  0  0  0  0  0  0  0
    6.6786    3.1594    0.0000 C   0  0  0  0  0  0  0  0  0  0  0  0
    7.7900    4.1667    0.0000 O   0  0  0  0  0  0  0  0  0  0  0  0
    5.2505    3.6182    0.0000 C   0  0  0  0  0  0  0  0  0  0  0  0
    4.1390    2.6109    0.0000 C   0  0  0  0  0  0  0  0  0  0  0  0
    4.4557    1.1447    0.0000 C   0  0  0  0  0  0  0  0  0  0  0  0
    3.0276    1.6036    0.0000 C   0  0  0  0  0  0  0  0  0  0  0  0
    3.3442    0.1374    0.0000 C   0  0  0  0  0  0  0  0  0  0  0  0
    1.9162    0.5963    0.0000 C   0  0  0  0  0  0  0  0  0  0  0  0
    0.8047   -0.4110    0.0000 C   0  0  0  0  0  0  0  0  0  0  0  0
    1.1213   -1.8772    0.0000 C   0  0  0  0  0  0  0  0  0  0  0  0
   -0.3469   -1.5701    0.0000 C   0  0  0  0  0  0  0  0  0  0  0  0
  2  1  1  6
  2  3  1  0
  3  4  1  0
  4  5  1  0
  5  6  2  0
  5  7  1  0
  7  8  1  0
  8  9  1  1
  9 10  1  0
 10 11  1  0
  8 12  1  0
 12 13  2  0
 12 14  1  0
  2 15  1  0
 15 16  1  6
 16 17  1  0
 18 17  1  6
 18 19  1  0
 19 20  1  1
 20 21  1  0
 22 21  1  1
 22 23  1  0
 23 24  1  0
 24 25  1  1
 24 26  1  0
 26 27  1  0
 27 28  1  0
 28 29  1  6
 28 30  1  0
 30 31  1  6
 31 32  1  0
 32 33  1  0
 33 34  1  6
 33 15  1  0
 33 18  1  0
 30 19  1  0
 28 22  1  0
M  END
>  <MS_ID>  (3123) 
MS3245

>  <SMILES>  (3123) 
C[C@H](CCC(=O)N[C@@H](CCO)C(=O)O)[C@H]1CC[C@H]2[C@@H]3CC[C@@H]4C[C@H](O)CC[C@]4(C)[C@H]3CC[C@]12C

>  <Structure_dimension>  (3123) 
2D

$$$$
MS3246
     RDKit          2D

 29 32  0  0  0  0  0  0  0  0999 V2000
   -5.5775    2.8248    0.0000 C   0  0  0  0  0  0  0  0  0  0  0  0
   -4.6134    1.6757    0.0000 C   0  0  0  0  0  0  0  0  0  0  0  0
   -5.1265    0.2662    0.0000 C   0  0  0  0  0  0  0  0  0  0  0  0
   -6.6037    0.0058    0.0000 C   0  0  0  0  0  0  0  0  0  0  0  0
   -7.1168   -1.4037    0.0000 C   0  0  0  0  0  0  0  0  0  0  0  0
   -6.1527   -2.5529    0.0000 O   0  0  0  0  0  0  0  0  0  0  0  0
   -8.5940   -1.6641    0.0000 O   0  0  0  0  0  0  0  0  0  0  0  0
   -3.1362    1.9361    0.0000 O   0  0  0  0  0  0  0  0  0  0  0  0
   -2.1720    0.7870    0.0000 C   0  0  0  0  0  0  0  0  0  0  0  0
   -2.5350   -0.6684    0.0000 C   0  0  0  0  0  0  0  0  0  0  0  0
   -1.2630   -1.4634    0.0000 C   0  0  0  0  0  0  0  0  0  0  0  0
   -0.1139   -0.4992    0.0000 C   0  0  0  0  0  0  0  0  0  0  0  0
    1.3715   -0.7081    0.0000 C   0  0  0  0  0  0  0  0  0  0  0  0
    1.9334   -2.0989    0.0000 C   0  0  0  0  0  0  0  0  0  0  0  0
    1.0098   -3.2808    0.0000 O   0  0  0  0  0  0  0  0  0  0  0  0
    3.4188   -2.3077    0.0000 C   0  0  0  0  0  0  0  0  0  0  0  0
    4.3423   -1.1257    0.0000 C   0  0  0  0  0  0  0  0  0  0  0  0
    5.8277   -1.3345    0.0000 C   0  0  0  0  0  0  0  0  0  0  0  0
    6.7513   -0.1526    0.0000 C   0  0  0  0  0  0  0  0  0  0  0  0
    8.2367   -0.3614    0.0000 O   0  0  0  0  0  0  0  0  0  0  0  0
    6.1894    1.2382    0.0000 C   0  0  0  0  0  0  0  0  0  0  0  0
    4.7040    1.4471    0.0000 C   0  0  0  0  0  0  0  0  0  0  0  0
    3.7805    0.2651    0.0000 C   0  0  0  0  0  0  0  0  0  0  0  0
    3.2186    1.6559    0.0000 C   0  0  0  0  0  0  0  0  0  0  0  0
    2.2951    0.4739    0.0000 C   0  0  0  0  0  0  0  0  0  0  0  0
    1.7332    1.8647    0.0000 C   0  0  0  0  0  0  0  0  0  0  0  0
    0.2478    2.0735    0.0000 C   0  0  0  0  0  0  0  0  0  0  0  0
   -0.6757    0.8916    0.0000 C   0  0  0  0  0  0  0  0  0  0  0  0
   -1.3798    2.2160    0.0000 C   0  0  0  0  0  0  0  0  0  0  0  0
  2  1  1  1
  2  3  1  0
  3  4  1  0
  4  5  1  0
  5  6  2  0
  5  7  1  0
  2  8  1  0
  9  8  1  6
  9 10  1  0
 10 11  1  0
 12 11  1  6
 12 13  1  0
 13 14  1  1
 14 15  1  6
 14 16  1  0
 17 16  1  1
 17 18  1  0
 18 19  1  0
 19 20  1  1
 19 21  1  0
 21 22  1  0
 22 23  1  0
 23 24  1  6
 23 25  1  0
 25 26  1  6
 26 27  1  0
 27 28  1  0
 28 29  1  6
 28  9  1  0
 28 12  1  0
 25 13  1  0
 23 17  1  0
M  END
>  <MS_ID>  (3124) 
MS3246

>  <SMILES>  (3124) 
C[C@H](CCC(=O)O)O[C@H]1CC[C@H]2[C@@H]3[C@@H](O)C[C@@H]4C[C@H](O)CC[C@]4(C)[C@H]3CC[C@]12C

>  <Structure_dimension>  (3124) 
2D

$$$$
MS3247
     RDKit          2D

 31 34  0  0  0  0  0  0  0  0999 V2000
   -3.5521   -3.5381    0.0000 C   0  0  0  0  0  0  0  0  0  0  0  0
   -2.6376   -2.3490    0.0000 C   0  0  0  0  0  0  0  0  0  0  0  0
   -3.2101   -0.9626    0.0000 C   0  0  0  0  0  0  0  0  0  0  0  0
   -4.6971   -0.7652    0.0000 C   0  0  0  0  0  0  0  0  0  0  0  0
   -5.2696    0.6213    0.0000 C   0  0  0  0  0  0  0  0  0  0  0  0
   -6.7565    0.8187    0.0000 O   0  0  0  0  0  0  0  0  0  0  0  0
   -7.3290    2.2052    0.0000 S   0  0  0  0  0  0  0  0  0  0  0  0
   -5.9426    2.7777    0.0000 O   0  0  0  0  0  0  0  0  0  0  0  0
   -8.7155    1.6327    0.0000 O   0  0  0  0  0  0  0  0  0  0  0  0
   -7.9015    3.5916    0.0000 O   0  0  0  0  0  0  0  0  0  0  0  0
   -1.1507   -2.5465    0.0000 C   0  0  0  0  0  0  0  0  0  0  0  0
   -0.4364   -3.8655    0.0000 C   0  0  0  0  0  0  0  0  0  0  0  0
    1.0388   -3.5937    0.0000 C   0  0  0  0  0  0  0  0  0  0  0  0
    1.2362   -2.1068    0.0000 C   0  0  0  0  0  0  0  0  0  0  0  0
    2.4733   -1.2585    0.0000 C   0  0  0  0  0  0  0  0  0  0  0  0
    3.8265   -1.9058    0.0000 C   0  0  0  0  0  0  0  0  0  0  0  0
    3.9426   -3.4013    0.0000 O   0  0  0  0  0  0  0  0  0  0  0  0
    5.0636   -1.0576    0.0000 C   0  0  0  0  0  0  0  0  0  0  0  0
    4.9476    0.4380    0.0000 C   0  0  0  0  0  0  0  0  0  0  0  0
    6.1847    1.2862    0.0000 C   0  0  0  0  0  0  0  0  0  0  0  0
    6.0687    2.7817    0.0000 C   0  0  0  0  0  0  0  0  0  0  0  0
    7.3058    3.6300    0.0000 O   0  0  0  0  0  0  0  0  0  0  0  0
    4.7155    3.4290    0.0000 C   0  0  0  0  0  0  0  0  0  0  0  0
    3.4784    2.5807    0.0000 C   0  0  0  0  0  0  0  0  0  0  0  0
    3.5944    1.0852    0.0000 C   0  0  0  0  0  0  0  0  0  0  0  0
    2.2413    1.7325    0.0000 C   0  0  0  0  0  0  0  0  0  0  0  0
    2.3573    0.2370    0.0000 C   0  0  0  0  0  0  0  0  0  0  0  0
    1.0041    0.8842    0.0000 C   0  0  0  0  0  0  0  0  0  0  0  0
   -0.2330    0.0360    0.0000 C   0  0  0  0  0  0  0  0  0  0  0  0
   -0.1169   -1.4595    0.0000 C   0  0  0  0  0  0  0  0  0  0  0  0
   -1.5304   -0.9573    0.0000 C   0  0  0  0  0  0  0  0  0  0  0  0
  2  1  1  6
  2  3  1  0
  3  4  1  0
  4  5  1  0
  5  6  1  0
  6  7  1  0
  7  8  2  0
  7  9  2  0
  7 10  1  0
  2 11  1  0
 11 12  1  6
 12 13  1  0
 14 13  1  6
 14 15  1  0
 15 16  1  1
 16 17  1  6
 16 18  1  0
 19 18  1  1
 19 20  1  0
 20 21  1  0
 21 22  1  1
 21 23  1  0
 23 24  1  0
 24 25  1  0
 25 26  1  6
 25 27  1  0
 27 28  1  6
 28 29  1  0
 29 30  1  0
 30 31  1  6
 30 11  1  0
 30 14  1  0
 27 15  1  0
 25 19  1  0
M  END
>  <MS_ID>  (3125) 
MS3247

>  <SMILES>  (3125) 
C[C@H](CCCOS(=O)(=O)O)[C@H]1CC[C@H]2[C@@H]3[C@@H](O)C[C@@H]4C[C@H](O)CC[C@]4(C)[C@H]3CC[C@]12C

>  <Structure_dimension>  (3125) 
2D

$$$$
MS3248
     RDKit          2D

 31 34  0  0  0  0  0  0  0  0999 V2000
   -4.0382   -3.1592    0.0000 C   0  0  0  0  0  0  0  0  0  0  0  0
   -3.0416   -2.0381    0.0000 C   0  0  0  0  0  0  0  0  0  0  0  0
   -3.5143   -0.6145    0.0000 C   0  0  0  0  0  0  0  0  0  0  0  0
   -4.9835   -0.3121    0.0000 C   0  0  0  0  0  0  0  0  0  0  0  0
   -5.4561    1.1115    0.0000 C   0  0  0  0  0  0  0  0  0  0  0  0
   -4.4596    2.2326    0.0000 O   0  0  0  0  0  0  0  0  0  0  0  0
   -6.9253    1.4140    0.0000 C   0  0  0  0  0  0  0  0  0  0  0  0
   -7.3980    2.8376    0.0000 C   0  0  0  0  0  0  0  0  0  0  0  0
   -8.8672    3.1400    0.0000 O   0  0  0  0  0  0  0  0  0  0  0  0
   -1.5724   -2.3406    0.0000 C   0  0  0  0  0  0  0  0  0  0  0  0
   -0.9536   -3.7070    0.0000 C   0  0  0  0  0  0  0  0  0  0  0  0
    0.5372   -3.5406    0.0000 C   0  0  0  0  0  0  0  0  0  0  0  0
    0.8396   -2.0714    0.0000 C   0  0  0  0  0  0  0  0  0  0  0  0
    2.1338   -1.3131    0.0000 C   0  0  0  0  0  0  0  0  0  0  0  0
    3.4377   -2.0548    0.0000 C   0  0  0  0  0  0  0  0  0  0  0  0
    3.4473   -3.5547    0.0000 O   0  0  0  0  0  0  0  0  0  0  0  0
    4.7319   -1.2965    0.0000 C   0  0  0  0  0  0  0  0  0  0  0  0
    4.7223    0.2035    0.0000 C   0  0  0  0  0  0  0  0  0  0  0  0
    6.0165    0.9618    0.0000 C   0  0  0  0  0  0  0  0  0  0  0  0
    6.0069    2.4618    0.0000 C   0  0  0  0  0  0  0  0  0  0  0  0
    7.3011    3.2201    0.0000 O   0  0  0  0  0  0  0  0  0  0  0  0
    4.7030    3.2034    0.0000 C   0  0  0  0  0  0  0  0  0  0  0  0
    3.4088    2.4451    0.0000 C   0  0  0  0  0  0  0  0  0  0  0  0
    3.4184    0.9452    0.0000 C   0  0  0  0  0  0  0  0  0  0  0  0
    2.1146    1.6868    0.0000 C   0  0  0  0  0  0  0  0  0  0  0  0
    2.1242    0.1869    0.0000 C   0  0  0  0  0  0  0  0  0  0  0  0
    0.8204    0.9285    0.0000 C   0  0  0  0  0  0  0  0  0  0  0  0
   -0.4738    0.1702    0.0000 C   0  0  0  0  0  0  0  0  0  0  0  0
   -1.7776    0.9119    0.0000 O   0  0  0  0  0  0  0  0  0  0  0  0
   -0.4642   -1.3298    0.0000 C   0  0  0  0  0  0  0  0  0  0  0  0
   -1.8384   -0.7284    0.0000 C   0  0  0  0  0  0  0  0  0  0  0  0
  2  1  1  6
  2  3  1  0
  3  4  1  0
  4  5  1  0
  5  6  1  1
  5  7  1  0
  7  8  1  0
  8  9  1  0
  2 10  1  0
 10 11  1  6
 11 12  1  0
 13 12  1  6
 13 14  1  0
 14 15  1  1
 15 16  1  1
 15 17  1  0
 18 17  1  1
 18 19  1  0
 19 20  1  0
 20 21  1  1
 20 22  1  0
 22 23  1  0
 23 24  1  0
 24 25  1  6
 24 26  1  0
 26 27  1  6
 27 28  1  0
 28 29  1  1
 28 30  1  0
 30 31  1  6
 30 10  1  0
 30 13  1  0
 26 14  1  0
 24 18  1  0
M  END
>  <MS_ID>  (3126) 
MS3248

>  <SMILES>  (3126) 
C[C@H](CC[C@H](O)CCO)[C@H]1CC[C@H]2[C@@H]3[C@H](O)C[C@@H]4C[C@H](O)CC[C@]4(C)[C@H]3C[C@H](O)[C@]12C

>  <Structure_dimension>  (3126) 
2D

$$$$
MS3249
     RDKit          2D

 37 40  0  0  0  0  0  0  0  0999 V2000
   -1.3962   -4.6186    0.0000 C   0  0  0  0  0  0  0  0  0  0  0  0
   -0.7550   -3.2625    0.0000 C   0  0  0  0  0  0  0  0  0  0  0  0
   -1.6088   -2.0292    0.0000 C   0  0  0  0  0  0  0  0  0  0  0  0
   -3.1038   -2.1520    0.0000 C   0  0  0  0  0  0  0  0  0  0  0  0
   -3.9576   -0.9187    0.0000 C   0  0  0  0  0  0  0  0  0  0  0  0
   -3.3164    0.4374    0.0000 O   0  0  0  0  0  0  0  0  0  0  0  0
   -5.4525   -1.0414    0.0000 N   0  0  0  0  0  0  0  0  0  0  0  0
   -6.3063    0.1919    0.0000 C   0  0  0  0  0  0  0  0  0  0  0  0
   -5.6651    1.5480    0.0000 C   0  0  0  0  0  0  0  0  0  0  0  0
   -6.5189    2.7813    0.0000 S   0  0  0  0  0  0  0  0  0  0  0  0
   -5.2856    3.6350    0.0000 O   0  0  0  0  0  0  0  0  0  0  0  0
   -7.7522    1.9275    0.0000 O   0  0  0  0  0  0  0  0  0  0  0  0
   -7.3727    4.0146    0.0000 O   0  0  0  0  0  0  0  0  0  0  0  0
   -7.8013    0.0692    0.0000 C   0  0  0  0  0  0  0  0  0  0  0  0
   -8.4425   -1.2869    0.0000 O   0  0  0  0  0  0  0  0  0  0  0  0
   -8.6551    1.3025    0.0000 O   0  0  0  0  0  0  0  0  0  0  0  0
    0.7399   -3.1398    0.0000 C   0  0  0  0  0  0  0  0  0  0  0  0
    1.7180   -4.2771    0.0000 C   0  0  0  0  0  0  0  0  0  0  0  0
    3.1018   -3.6984    0.0000 C   0  0  0  0  0  0  0  0  0  0  0  0
    2.9791   -2.2034    0.0000 C   0  0  0  0  0  0  0  0  0  0  0  0
    4.0079   -1.1119    0.0000 C   0  0  0  0  0  0  0  0  0  0  0  0
    5.4677   -1.4571    0.0000 C   0  0  0  0  0  0  0  0  0  0  0  0
    5.8986   -2.8939    0.0000 O   0  0  0  0  0  0  0  0  0  0  0  0
    6.4965   -0.3655    0.0000 C   0  0  0  0  0  0  0  0  0  0  0  0
    6.0656    1.0712    0.0000 C   0  0  0  0  0  0  0  0  0  0  0  0
    7.0945    2.1628    0.0000 C   0  0  0  0  0  0  0  0  0  0  0  0
    6.6636    3.5996    0.0000 C   0  0  0  0  0  0  0  0  0  0  0  0
    7.6924    4.6911    0.0000 O   0  0  0  0  0  0  0  0  0  0  0  0
    5.2038    3.9448    0.0000 C   0  0  0  0  0  0  0  0  0  0  0  0
    4.1750    2.8533    0.0000 C   0  0  0  0  0  0  0  0  0  0  0  0
    4.6059    1.4165    0.0000 C   0  0  0  0  0  0  0  0  0  0  0  0
    3.1462    1.7617    0.0000 C   0  0  0  0  0  0  0  0  0  0  0  0
    3.5770    0.3249    0.0000 C   0  0  0  0  0  0  0  0  0  0  0  0
    2.1173    0.6702    0.0000 C   0  0  0  0  0  0  0  0  0  0  0  0
    1.0885   -0.4214    0.0000 C   0  0  0  0  0  0  0  0  0  0  0  0
    1.5194   -1.8582    0.0000 C   0  0  0  0  0  0  0  0  0  0  0  0
    0.0315   -1.6674    0.0000 C   0  0  0  0  0  0  0  0  0  0  0  0
  2  1  1  6
  2  3  1  0
  3  4  1  0
  4  5  1  0
  5  6  2  0
  5  7  1  0
  7  8  1  0
  8  9  1  6
  9 10  1  0
 10 11  2  0
 10 12  2  0
 10 13  1  0
  8 14  1  0
 14 15  2  0
 14 16  1  0
  2 17  1  0
 17 18  1  6
 18 19  1  0
 20 19  1  6
 20 21  1  0
 21 22  1  1
 22 23  1  1
 22 24  1  0
 25 24  1  1
 25 26  1  0
 26 27  1  0
 27 28  1  1
 27 29  1  0
 29 30  1  0
 30 31  1  0
 31 32  1  6
 31 33  1  0
 33 34  1  6
 34 35  1  0
 35 36  1  0
 36 37  1  6
 36 17  1  0
 36 20  1  0
 33 21  1  0
 31 25  1  0
M  END
>  <MS_ID>  (3127) 
MS3249

>  <SMILES>  (3127) 
C[C@H](CCC(=O)N[C@@H](CS(=O)(=O)O)C(=O)O)[C@H]1CC[C@H]2[C@@H]3[C@H](O)C[C@@H]4C[C@H](O)CC[C@]4(C)[C@H]3CC[C@]12C

>  <Structure_dimension>  (3127) 
2D

$$$$
MS3250
     RDKit          2D

 32 35  0  0  0  0  0  0  0  0999 V2000
   -3.1421   -3.6694    0.0000 C   0  0  0  0  0  0  0  0  0  0  0  0
   -2.2628   -2.4541    0.0000 C   0  0  0  0  0  0  0  0  0  0  0  0
   -2.8756   -1.0850    0.0000 C   0  0  0  0  0  0  0  0  0  0  0  0
   -4.3676   -0.9311    0.0000 C   0  0  0  0  0  0  0  0  0  0  0  0
   -4.9804    0.4380    0.0000 C   0  0  0  0  0  0  0  0  0  0  0  0
   -4.1011    1.6532    0.0000 O   0  0  0  0  0  0  0  0  0  0  0  0
   -6.4725    0.5919    0.0000 N   0  0  0  0  0  0  0  0  0  0  0  0
   -7.0853    1.9610    0.0000 C   0  0  0  0  0  0  0  0  0  0  0  0
   -8.5774    2.1149    0.0000 C   0  0  0  0  0  0  0  0  0  0  0  0
   -9.4567    0.8996    0.0000 O   0  0  0  0  0  0  0  0  0  0  0  0
   -9.1901    3.4840    0.0000 O   0  0  0  0  0  0  0  0  0  0  0  0
   -0.7707   -2.6080    0.0000 C   0  0  0  0  0  0  0  0  0  0  0  0
   -0.0182   -3.9056    0.0000 C   0  0  0  0  0  0  0  0  0  0  0  0
    1.4484   -3.5909    0.0000 C   0  0  0  0  0  0  0  0  0  0  0  0
    1.6023   -2.0988    0.0000 C   0  0  0  0  0  0  0  0  0  0  0  0
    2.8141   -1.2147    0.0000 C   0  0  0  0  0  0  0  0  0  0  0  0
    4.1856   -1.8222    0.0000 C   0  0  0  0  0  0  0  0  0  0  0  0
    4.3453   -3.3136    0.0000 O   0  0  0  0  0  0  0  0  0  0  0  0
    5.3974   -0.9381    0.0000 C   0  0  0  0  0  0  0  0  0  0  0  0
    5.2377    0.5533    0.0000 C   0  0  0  0  0  0  0  0  0  0  0  0
    6.4495    1.4374    0.0000 C   0  0  0  0  0  0  0  0  0  0  0  0
    6.2898    2.9289    0.0000 C   0  0  0  0  0  0  0  0  0  0  0  0
    7.5016    3.8129    0.0000 O   0  0  0  0  0  0  0  0  0  0  0  0
    4.9183    3.5363    0.0000 C   0  0  0  0  0  0  0  0  0  0  0  0
    3.7065    2.6522    0.0000 C   0  0  0  0  0  0  0  0  0  0  0  0
    3.8662    1.1608    0.0000 C   0  0  0  0  0  0  0  0  0  0  0  0
    2.4947    1.7682    0.0000 C   0  0  0  0  0  0  0  0  0  0  0  0
    2.6544    0.2767    0.0000 C   0  0  0  0  0  0  0  0  0  0  0  0
    1.2829    0.8842    0.0000 C   0  0  0  0  0  0  0  0  0  0  0  0
    0.0711    0.0001    0.0000 O   0  0  0  0  0  0  0  0  0  0  0  0
    0.2308   -1.4914    0.0000 C   0  0  0  0  0  0  0  0  0  0  0  0
   -1.1967   -1.0306    0.0000 C   0  0  0  0  0  0  0  0  0  0  0  0
  2  1  1  6
  2  3  1  0
  3  4  1  0
  4  5  1  0
  5  6  2  0
  5  7  1  0
  7  8  1  0
  8  9  1  0
  9 10  2  0
  9 11  1  0
  2 12  1  0
 12 13  1  6
 13 14  1  0
 15 14  1  6
 15 16  1  0
 16 17  1  1
 17 18  1  6
 17 19  1  0
 20 19  1  1
 20 21  1  0
 21 22  1  0
 22 23  1  1
 22 24  1  0
 24 25  1  0
 25 26  1  0
 26 27  1  6
 26 28  1  0
 28 29  1  6
 29 30  1  0
 30 31  1  0
 31 32  1  6
 31 12  1  0
 31 15  1  0
 28 16  1  0
 26 20  1  0
M  END
>  <MS_ID>  (3128) 
MS3250

>  <SMILES>  (3128) 
C[C@H](CCC(=O)NCC(=O)O)[C@H]1CC[C@H]2[C@@H]3[C@@H](O)C[C@@H]4C[C@H](O)CC[C@]4(C)[C@H]3CO[C@]12C

>  <Structure_dimension>  (3128) 
2D

$$$$
MS3251
     RDKit          2D

 24 27  0  0  0  0  0  0  0  0999 V2000
   -5.7398    1.3531    0.0000 C   0  0  0  0  0  0  0  0  0  0  0  0
   -5.0076    0.0439    0.0000 C   0  0  0  0  0  0  0  0  0  0  0  0
   -5.7752   -1.2448    0.0000 O   0  0  0  0  0  0  0  0  0  0  0  0
   -3.5077    0.0235    0.0000 C   0  0  0  0  0  0  0  0  0  0  0  0
   -3.8252    1.4895    0.0000 O   0  0  0  0  0  0  0  0  0  0  0  0
   -3.6848   -1.4660    0.0000 C   0  0  0  0  0  0  0  0  0  0  0  0
   -2.3229   -2.0948    0.0000 C   0  0  0  0  0  0  0  0  0  0  0  0
   -1.3042   -0.9938    0.0000 C   0  0  0  0  0  0  0  0  0  0  0  0
    0.1957   -1.0143    0.0000 C   0  0  0  0  0  0  0  0  0  0  0  0
    0.9279   -2.3234    0.0000 C   0  0  0  0  0  0  0  0  0  0  0  0
    2.4278   -2.3439    0.0000 C   0  0  0  0  0  0  0  0  0  0  0  0
    3.1954   -1.0552    0.0000 C   0  0  0  0  0  0  0  0  0  0  0  0
    4.6953   -1.0756    0.0000 C   0  0  0  0  0  0  0  0  0  0  0  0
    5.4629    0.2131    0.0000 C   0  0  0  0  0  0  0  0  0  0  0  0
    6.9628    0.1926    0.0000 O   0  0  0  0  0  0  0  0  0  0  0  0
    4.7307    1.5222    0.0000 C   0  0  0  0  0  0  0  0  0  0  0  0
    3.2308    1.5427    0.0000 C   0  0  0  0  0  0  0  0  0  0  0  0
    2.4632    0.2540    0.0000 C   0  0  0  0  0  0  0  0  0  0  0  0
    1.7310    1.5631    0.0000 C   0  0  0  0  0  0  0  0  0  0  0  0
    0.9633    0.2744    0.0000 C   0  0  0  0  0  0  0  0  0  0  0  0
    0.2311    1.5835    0.0000 C   0  0  0  0  0  0  0  0  0  0  0  0
   -1.2687    1.6040    0.0000 C   0  0  0  0  0  0  0  0  0  0  0  0
   -2.0364    0.3153    0.0000 C   0  0  0  0  0  0  0  0  0  0  0  0
   -2.7456    1.6370    0.0000 C   0  0  0  0  0  0  0  0  0  0  0  0
  2  1  1  1
  2  3  1  0
  2  4  1  0
  4  5  1  1
  4  6  1  0
  6  7  1  0
  8  7  1  6
  8  9  1  0
  9 10  1  1
 10 11  1  0
 12 11  1  1
 12 13  1  0
 13 14  1  0
 14 15  1  1
 14 16  1  0
 16 17  1  0
 17 18  1  0
 18 19  1  6
 18 20  1  0
 20 21  1  6
 21 22  1  0
 22 23  1  0
 23 24  1  6
 23  4  1  0
 23  8  1  0
 20  9  1  0
 18 12  1  0
M  END
>  <MS_ID>  (3129) 
MS3251

>  <SMILES>  (3129) 
C[C@H](O)[C@@]1(O)CC[C@H]2[C@@H]3CC[C@@H]4C[C@H](O)CC[C@]4(C)[C@H]3CC[C@@]21C

>  <Structure_dimension>  (3129) 
2D

$$$$
MS3252
     RDKit          2D

 24 27  0  0  0  0  0  0  0  0999 V2000
   -7.8824    0.0701    0.0000 C   0  0  0  0  0  0  0  0  0  0  0  0
   -6.3825    0.0522    0.0000 C   0  0  0  0  0  0  0  0  0  0  0  0
   -4.8826    0.0342    0.0000 C   0  0  0  0  0  0  0  0  0  0  0  0
   -3.3828    0.0162    0.0000 C   0  0  0  0  0  0  0  0  0  0  0  0
   -3.7027    1.4817    0.0000 O   0  0  0  0  0  0  0  0  0  0  0  0
   -3.5574   -1.4736    0.0000 C   0  0  0  0  0  0  0  0  0  0  0  0
   -2.1945   -2.1001    0.0000 C   0  0  0  0  0  0  0  0  0  0  0  0
   -1.1775   -0.9975    0.0000 C   0  0  0  0  0  0  0  0  0  0  0  0
    0.3224   -1.0155    0.0000 C   0  0  0  0  0  0  0  0  0  0  0  0
    1.0567   -2.3234    0.0000 C   0  0  0  0  0  0  0  0  0  0  0  0
    2.5566   -2.3414    0.0000 C   0  0  0  0  0  0  0  0  0  0  0  0
    3.3222   -1.0514    0.0000 C   0  0  0  0  0  0  0  0  0  0  0  0
    4.8220   -1.0694    0.0000 C   0  0  0  0  0  0  0  0  0  0  0  0
    5.5876    0.2206    0.0000 C   0  0  0  0  0  0  0  0  0  0  0  0
    7.0875    0.2026    0.0000 O   0  0  0  0  0  0  0  0  0  0  0  0
    4.8532    1.5285    0.0000 C   0  0  0  0  0  0  0  0  0  0  0  0
    3.3533    1.5465    0.0000 C   0  0  0  0  0  0  0  0  0  0  0  0
    2.5878    0.2565    0.0000 C   0  0  0  0  0  0  0  0  0  0  0  0
    1.8534    1.5644    0.0000 C   0  0  0  0  0  0  0  0  0  0  0  0
    1.0879    0.2745    0.0000 C   0  0  0  0  0  0  0  0  0  0  0  0
    0.3535    1.5824    0.0000 C   0  0  0  0  0  0  0  0  0  0  0  0
   -1.1464    1.6004    0.0000 C   0  0  0  0  0  0  0  0  0  0  0  0
   -1.9119    0.3105    0.0000 C   0  0  0  0  0  0  0  0  0  0  0  0
   -2.6233    1.6310    0.0000 C   0  0  0  0  0  0  0  0  0  0  0  0
  1  2  1  0
  2  3  3  0
  3  4  1  0
  4  5  1  6
  4  6  1  0
  6  7  1  0
  8  7  1  6
  8  9  1  0
  9 10  1  1
 10 11  1  0
 12 11  1  1
 12 13  1  0
 13 14  1  0
 14 15  1  1
 14 16  1  0
 16 17  1  0
 17 18  1  0
 18 19  1  6
 18 20  1  0
 20 21  1  6
 21 22  1  0
 22 23  1  0
 23 24  1  6
 23  4  1  0
 23  8  1  0
 20  9  1  0
 18 12  1  0
M  END
>  <MS_ID>  (3130) 
MS3252

>  <SMILES>  (3130) 
CC#C[C@]1(O)CC[C@H]2[C@@H]3CC[C@@H]4C[C@H](O)CC[C@]4(C)[C@H]3CC[C@@]21C

>  <Structure_dimension>  (3130) 
2D

$$$$
MS3253
     RDKit          2D

 33 37  0  0  0  0  0  0  0  0999 V2000
   -7.3798   -2.0783    0.0000 C   0  0  0  0  0  0  0  0  0  0  0  0
   -5.9444   -1.6430    0.0000 C   0  0  0  0  0  0  0  0  0  0  0  0
   -5.6037   -0.1822    0.0000 C   0  0  0  0  0  0  0  0  0  0  0  0
   -4.1683    0.2532    0.0000 C   0  0  0  0  0  0  0  0  0  0  0  0
   -3.0735   -0.7723    0.0000 O   0  0  0  0  0  0  0  0  0  0  0  0
   -3.8276    1.7140    0.0000 C   0  0  0  0  0  0  0  0  0  0  0  0
   -4.9223    2.7394    0.0000 C   0  0  0  0  0  0  0  0  0  0  0  0
   -2.3921    2.1493    0.0000 C   0  0  0  0  0  0  0  0  0  0  0  0
   -1.9006    3.5665    0.0000 C   0  0  0  0  0  0  0  0  0  0  0  0
   -0.4009    3.5370    0.0000 C   0  0  0  0  0  0  0  0  0  0  0  0
    0.0344    2.1015    0.0000 C   0  0  0  0  0  0  0  0  0  0  0  0
    1.1687    3.0831    0.0000 C   0  0  0  0  0  0  0  0  0  0  0  0
    1.3925    1.4646    0.0000 C   0  0  0  0  0  0  0  0  0  0  0  0
    2.6231    2.3222    0.0000 C   0  0  0  0  0  0  0  0  0  0  0  0
    3.9812    1.6852    0.0000 C   0  0  0  0  0  0  0  0  0  0  0  0
    4.1086    0.1906    0.0000 C   0  0  0  0  0  0  0  0  0  0  0  0
    5.4666   -0.4463    0.0000 C   0  0  0  0  0  0  0  0  0  0  0  0
    6.9606   -0.5804    0.0000 C   0  0  0  0  0  0  0  0  0  0  0  0
    5.8581    1.0017    0.0000 C   0  0  0  0  0  0  0  0  0  0  0  0
    5.5940   -1.9409    0.0000 C   0  0  0  0  0  0  0  0  0  0  0  0
    6.9520   -2.5779    0.0000 O   0  0  0  0  0  0  0  0  0  0  0  0
    4.3633   -2.7985    0.0000 C   0  0  0  0  0  0  0  0  0  0  0  0
    3.0053   -2.1616    0.0000 C   0  0  0  0  0  0  0  0  0  0  0  0
    2.8779   -0.6670    0.0000 C   0  0  0  0  0  0  0  0  0  0  0  0
    1.6472   -1.5246    0.0000 C   0  0  0  0  0  0  0  0  0  0  0  0
    1.5199   -0.0300    0.0000 C   0  0  0  0  0  0  0  0  0  0  0  0
    0.2892   -0.8876    0.0000 C   0  0  0  0  0  0  0  0  0  0  0  0
   -1.0688   -0.2507    0.0000 C   0  0  0  0  0  0  0  0  0  0  0  0
   -1.1962    1.2439    0.0000 C   0  0  0  0  0  0  0  0  0  0  0  0
   -2.5098    0.5197    0.0000 C   0  0  0  0  0  0  0  0  0  0  0  0
   -4.8497   -2.6684    0.0000 C   0  0  0  0  0  0  0  0  0  0  0  0
   -5.1904   -4.1292    0.0000 C   0  0  0  0  0  0  0  0  0  0  0  0
   -3.4142   -2.2331    0.0000 C   0  0  0  0  0  0  0  0  0  0  0  0
  1  2  2  0
  2  3  1  0
  3  4  1  0
  4  5  1  1
  4  6  1  0
  6  7  1  1
  6  8  1  0
  8  9  1  1
  9 10  1  0
 10 11  1  0
 11 12  1  6
 11 13  1  0
 13 14  1  6
 14 15  1  0
 16 15  1  1
 16 17  1  0
 17 18  1  0
 17 19  1  0
 17 20  1  0
 20 21  1  1
 20 22  1  0
 22 23  1  0
 24 23  1  6
 24 25  1  0
 26 25  1  1
 26 27  1  0
 27 28  1  0
 28 29  1  0
 29 30  1  1
  2 31  1  0
 31 32  1  0
 31 33  1  0
 29  8  1  0
 29 11  1  0
 26 13  1  0
 24 16  1  0
 26 24  1  0
M  END
>  <MS_ID>  (3131) 
MS3253

>  <SMILES>  (3131) 
C=C(C[C@H](O)[C@@H](C)[C@H]1CC[C@@]2(C)[C@@H]3CC[C@H]4C(C)(C)[C@@H](O)CC[C@@]45C[C@@]35CC[C@]12C)C(C)C

>  <Structure_dimension>  (3131) 
2D

$$$$
MS3254
     RDKit          2D

 21 24  0  0  0  0  0  0  0  0999 V2000
    1.0087   -1.5838    0.0000 C   0  0  0  0  0  0  0  0  0  0  0  0
    1.7246   -0.2657    0.0000 C   0  0  0  0  0  0  0  0  0  0  0  0
    2.5082   -1.5447    0.0000 C   0  0  0  0  0  0  0  0  0  0  0  0
    4.0077   -1.5056    0.0000 C   0  0  0  0  0  0  0  0  0  0  0  0
    4.7236   -0.1874    0.0000 C   0  0  0  0  0  0  0  0  0  0  0  0
    6.2231   -0.1483    0.0000 O   0  0  0  0  0  0  0  0  0  0  0  0
    3.9400    1.0916    0.0000 C   0  0  0  0  0  0  0  0  0  0  0  0
    2.4405    1.0525    0.0000 C   0  0  0  0  0  0  0  0  0  0  0  0
    1.6569    2.3315    0.0000 C   0  0  0  0  0  0  0  0  0  0  0  0
    0.1574    2.2924    0.0000 C   0  0  0  0  0  0  0  0  0  0  0  0
   -0.5585    0.9743    0.0000 C   0  0  0  0  0  0  0  0  0  0  0  0
    0.2251   -0.3048    0.0000 C   0  0  0  0  0  0  0  0  0  0  0  0
   -0.4908   -1.6229    0.0000 C   0  0  0  0  0  0  0  0  0  0  0  0
   -1.9903   -1.6620    0.0000 C   0  0  0  0  0  0  0  0  0  0  0  0
   -2.7739   -0.3830    0.0000 C   0  0  0  0  0  0  0  0  0  0  0  0
   -3.6236   -1.6191    0.0000 C   0  0  0  0  0  0  0  0  0  0  0  0
   -4.2487   -0.1095    0.0000 C   0  0  0  0  0  0  0  0  0  0  0  0
   -5.3369   -1.1419    0.0000 O   0  0  0  0  0  0  0  0  0  0  0  0
   -4.4444    1.3777    0.0000 C   0  0  0  0  0  0  0  0  0  0  0  0
   -3.0904    2.0233    0.0000 C   0  0  0  0  0  0  0  0  0  0  0  0
   -2.0580    0.9352    0.0000 C   0  0  0  0  0  0  0  0  0  0  0  0
  2  1  1  1
  2  3  1  0
  3  4  1  0
  4  5  1  0
  5  6  2  0
  5  7  1  0
  8  7  1  6
  8  9  1  0
  9 10  1  0
 11 10  1  6
 11 12  1  0
 12 13  1  1
 13 14  1  0
 14 15  1  0
 15 16  1  1
 15 17  1  0
 17 18  1  6
 17 19  1  0
 19 20  1  0
 21 20  1  1
  8  2  1  0
 21 11  1  0
 12  2  1  0
 21 15  1  0
M  END
>  <MS_ID>  (3132) 
MS3254

>  <SMILES>  (3132) 
C[C@]12CCC(=O)C[C@H]1CC[C@@H]1[C@@H]2CC[C@]2(C)[C@H](O)CC[C@@H]12

>  <Structure_dimension>  (3132) 
2D

$$$$
MS3255
     RDKit          2D

 30 33  0  0  0  0  0  0  0  0999 V2000
   -4.8875    2.7140    0.0000 C   0  0  0  0  0  0  0  0  0  0  0  0
   -3.6633    1.8473    0.0000 S   0  0  0  0  0  0  0  0  0  0  0  0
   -3.8018    0.3537    0.0000 C   0  0  0  0  0  0  0  0  0  0  0  0
   -5.1646   -0.2731    0.0000 C   0  0  0  0  0  0  0  0  0  0  0  0
   -6.3888    0.5936    0.0000 C   0  0  0  0  0  0  0  0  0  0  0  0
   -7.7515   -0.0332    0.0000 C   0  0  0  0  0  0  0  0  0  0  0  0
   -7.8901   -1.5268    0.0000 O   0  0  0  0  0  0  0  0  0  0  0  0
   -8.9758    0.8336    0.0000 O   0  0  0  0  0  0  0  0  0  0  0  0
   -2.5776   -0.5131    0.0000 C   0  0  0  0  0  0  0  0  0  0  0  0
   -2.5592   -2.0129    0.0000 C   0  0  0  0  0  0  0  0  0  0  0  0
   -1.1271   -2.4590    0.0000 C   0  0  0  0  0  0  0  0  0  0  0  0
   -0.2603   -1.2347    0.0000 C   0  0  0  0  0  0  0  0  0  0  0  0
    1.2294   -1.0597    0.0000 C   0  0  0  0  0  0  0  0  0  0  0  0
    2.1259   -2.2623    0.0000 C   0  0  0  0  0  0  0  0  0  0  0  0
    1.5326   -3.6400    0.0000 O   0  0  0  0  0  0  0  0  0  0  0  0
    3.6157   -2.0873    0.0000 C   0  0  0  0  0  0  0  0  0  0  0  0
    4.2089   -0.7096    0.0000 C   0  0  0  0  0  0  0  0  0  0  0  0
    5.6987   -0.5346    0.0000 C   0  0  0  0  0  0  0  0  0  0  0  0
    6.2920    0.8431    0.0000 C   0  0  0  0  0  0  0  0  0  0  0  0
    7.7817    1.0181    0.0000 C   0  0  0  0  0  0  0  0  0  0  0  0
    8.6782   -0.1845    0.0000 O   0  0  0  0  0  0  0  0  0  0  0  0
    5.3955    2.0457    0.0000 C   0  0  0  0  0  0  0  0  0  0  0  0
    3.9058    1.8707    0.0000 C   0  0  0  0  0  0  0  0  0  0  0  0
    3.3125    0.4930    0.0000 C   0  0  0  0  0  0  0  0  0  0  0  0
    2.4160    1.6957    0.0000 C   0  0  0  0  0  0  0  0  0  0  0  0
    1.8227    0.3180    0.0000 C   0  0  0  0  0  0  0  0  0  0  0  0
    0.9263    1.5206    0.0000 C   0  0  0  0  0  0  0  0  0  0  0  0
   -0.5635    1.3456    0.0000 C   0  0  0  0  0  0  0  0  0  0  0  0
   -1.1568   -0.0321    0.0000 C   0  0  0  0  0  0  0  0  0  0  0  0
   -2.1740    1.0702    0.0000 C   0  0  0  0  0  0  0  0  0  0  0  0
  1  2  1  0
  2  3  1  0
  3  4  1  1
  4  5  1  0
  5  6  1  0
  6  7  2  0
  6  8  1  0
  3  9  1  0
  9 10  1  6
 10 11  1  0
 12 11  1  6
 12 13  1  0
 13 14  1  1
 14 15  1  6
 14 16  1  0
 17 16  1  1
 17 18  1  0
 18 19  1  0
 19 20  1  1
 20 21  1  0
 19 22  1  0
 22 23  1  0
 23 24  1  0
 24 25  1  6
 24 26  1  0
 26 27  1  6
 27 28  1  0
 28 29  1  0
 29 30  1  6
 29  9  1  0
 29 12  1  0
 26 13  1  0
 24 17  1  0
M  END
>  <MS_ID>  (3133) 
MS3255

>  <SMILES>  (3133) 
CS[C@H](CCC(=O)O)[C@H]1CC[C@H]2[C@@H]3[C@@H](O)C[C@@H]4C[C@H](CO)CC[C@]4(C)[C@H]3CC[C@]12C

>  <Structure_dimension>  (3133) 
2D

$$$$
MS3256
     RDKit          2D

 28 31  0  0  0  0  0  0  0  0999 V2000
   -5.1275   -2.0302    0.0000 C   0  0  0  0  0  0  0  0  0  0  0  0
   -3.9468   -1.1050    0.0000 C   0  0  0  0  0  0  0  0  0  0  0  0
   -4.1576    0.3801    0.0000 C   0  0  0  0  0  0  0  0  0  0  0  0
   -5.5492    0.9401    0.0000 C   0  0  0  0  0  0  0  0  0  0  0  0
   -5.7600    2.4252    0.0000 C   0  0  0  0  0  0  0  0  0  0  0  0
   -4.5793    3.3503    0.0000 O   0  0  0  0  0  0  0  0  0  0  0  0
   -7.1516    2.9851    0.0000 O   0  0  0  0  0  0  0  0  0  0  0  0
   -2.5552   -1.6650    0.0000 C   0  0  0  0  0  0  0  0  0  0  0  0
   -2.1903   -3.1199    0.0000 C   0  0  0  0  0  0  0  0  0  0  0  0
   -0.6938   -3.2225    0.0000 C   0  0  0  0  0  0  0  0  0  0  0  0
   -0.1339   -1.8309    0.0000 C   0  0  0  0  0  0  0  0  0  0  0  0
    1.2750   -1.3159    0.0000 C   0  0  0  0  0  0  0  0  0  0  0  0
    2.4254   -2.2785    0.0000 C   0  0  0  0  0  0  0  0  0  0  0  0
    2.1670   -3.7560    0.0000 O   0  0  0  0  0  0  0  0  0  0  0  0
    3.8342   -1.7635    0.0000 C   0  0  0  0  0  0  0  0  0  0  0  0
    4.0926   -0.2859    0.0000 C   0  0  0  0  0  0  0  0  0  0  0  0
    5.5014    0.2291    0.0000 C   0  0  0  0  0  0  0  0  0  0  0  0
    5.7598    1.7067    0.0000 C   0  0  0  0  0  0  0  0  0  0  0  0
    7.1687    2.2217    0.0000 O   0  0  0  0  0  0  0  0  0  0  0  0
    4.6094    2.6692    0.0000 C   0  0  0  0  0  0  0  0  0  0  0  0
    3.2006    2.1542    0.0000 C   0  0  0  0  0  0  0  0  0  0  0  0
    2.9422    0.6767    0.0000 C   0  0  0  0  0  0  0  0  0  0  0  0
    1.7918    1.6392    0.0000 F   0  0  0  0  0  0  0  0  0  0  0  0
    1.5334    0.1617    0.0000 C   0  0  0  0  0  0  0  0  0  0  0  0
    0.3830    1.1242    0.0000 C   0  0  0  0  0  0  0  0  0  0  0  0
   -1.0259    0.6093    0.0000 C   0  0  0  0  0  0  0  0  0  0  0  0
   -1.2843   -0.8683    0.0000 C   0  0  0  0  0  0  0  0  0  0  0  0
   -2.5290   -0.0313    0.0000 C   0  0  0  0  0  0  0  0  0  0  0  0
  2  1  1  6
  2  3  1  0
  3  4  1  0
  4  5  1  0
  5  6  2  0
  5  7  1  0
  2  8  1  0
  8  9  1  6
  9 10  1  0
 11 10  1  6
 11 12  1  0
 12 13  1  1
 13 14  1  6
 13 15  1  0
 16 15  1  1
 16 17  1  0
 17 18  1  0
 18 19  1  1
 18 20  1  0
 20 21  1  0
 21 22  1  0
 22 23  1  6
 22 24  1  0
 24 25  1  6
 25 26  1  0
 26 27  1  0
 27 28  1  6
 27  8  1  0
 27 11  1  0
 24 12  1  0
 22 16  1  0
M  END
>  <MS_ID>  (3134) 
MS3256

>  <SMILES>  (3134) 
C[C@H](CCC(=O)O)[C@H]1CC[C@H]2[C@@H]3[C@@H](O)C[C@@H]4C[C@H](O)CC[C@]4(F)[C@H]3CC[C@]12C

>  <Structure_dimension>  (3134) 
2D

$$$$
MS3257
     RDKit          2D

 25 28  0  0  0  0  0  0  0  0999 V2000
    2.0644   -1.5574    0.0000 C   0  0  0  0  0  0  0  0  0  0  0  0
    2.7613   -0.2292    0.0000 C   0  0  0  0  0  0  0  0  0  0  0  0
    3.5632   -1.4969    0.0000 C   0  0  0  0  0  0  0  0  0  0  0  0
    5.0619   -1.4363    0.0000 C   0  0  0  0  0  0  0  0  0  0  0  0
    5.7589   -0.1080    0.0000 C   0  0  0  0  0  0  0  0  0  0  0  0
    7.2577   -0.0475    0.0000 O   0  0  0  0  0  0  0  0  0  0  0  0
    4.9571    1.1597    0.0000 C   0  0  0  0  0  0  0  0  0  0  0  0
    3.4583    1.0991    0.0000 C   0  0  0  0  0  0  0  0  0  0  0  0
    2.6564    2.3668    0.0000 C   0  0  0  0  0  0  0  0  0  0  0  0
    1.1577    2.3062    0.0000 C   0  0  0  0  0  0  0  0  0  0  0  0
    0.4607    0.9780    0.0000 C   0  0  0  0  0  0  0  0  0  0  0  0
    1.2626   -0.2897    0.0000 C   0  0  0  0  0  0  0  0  0  0  0  0
    0.5656   -1.6180    0.0000 C   0  0  0  0  0  0  0  0  0  0  0  0
   -0.9332   -1.6785    0.0000 C   0  0  0  0  0  0  0  0  0  0  0  0
   -1.7350   -0.4108    0.0000 C   0  0  0  0  0  0  0  0  0  0  0  0
   -2.4086   -1.7511    0.0000 C   0  0  0  0  0  0  0  0  0  0  0  0
   -1.0381    0.9174    0.0000 C   0  0  0  0  0  0  0  0  0  0  0  0
   -2.0859    1.9907    0.0000 C   0  0  0  0  0  0  0  0  0  0  0  0
   -3.4305    1.3258    0.0000 C   0  0  0  0  0  0  0  0  0  0  0  0
   -3.2136   -0.1585    0.0000 C   0  0  0  0  0  0  0  0  0  0  0  0
   -3.4918   -1.6324    0.0000 O   0  0  0  0  0  0  0  0  0  0  0  0
   -4.7124   -0.2190    0.0000 C   0  0  0  0  0  0  0  0  0  0  0  0
   -5.4093   -1.5473    0.0000 O   0  0  0  0  0  0  0  0  0  0  0  0
   -5.5142    1.0487    0.0000 C   0  0  0  0  0  0  0  0  0  0  0  0
   -7.0130    0.9881    0.0000 O   0  0  0  0  0  0  0  0  0  0  0  0
  2  1  1  1
  2  3  1  0
  3  4  1  0
  4  5  1  0
  5  6  2  0
  5  7  1  0
  8  7  1  1
  8  9  1  0
  9 10  1  0
 11 10  1  6
 11 12  1  0
 12 13  1  1
 13 14  1  0
 14 15  1  0
 15 16  1  1
 15 17  1  0
 17 18  1  1
 18 19  1  0
 19 20  1  0
 20 21  1  6
 20 22  1  0
 22 23  2  0
 22 24  1  0
 24 25  1  0
  8  2  1  0
 17 11  1  0
 12  2  1  0
 20 15  1  0
M  END
>  <MS_ID>  (3135) 
MS3257

>  <SMILES>  (3135) 
C[C@]12CCC(=O)C[C@@H]1CC[C@@H]1[C@@H]2CC[C@@]2(C)[C@H]1CC[C@]2(O)C(=O)CO

>  <Structure_dimension>  (3135) 
2D

$$$$
MS3259
     RDKit          2D

 23 26  0  0  0  0  0  0  0  0999 V2000
   -6.2880    0.1477    0.0000 C   0  0  0  0  0  0  0  0  0  0  0  0
   -4.8818    0.6700    0.0000 C   0  0  0  0  0  0  0  0  0  0  0  0
   -4.6310    2.1488    0.0000 N   0  0  0  0  0  0  0  0  0  0  0  0
   -3.7265   -0.2867    0.0000 C   0  0  0  0  0  0  0  0  0  0  0  0
   -3.8214   -1.7837    0.0000 C   0  0  0  0  0  0  0  0  0  0  0  0
   -2.4270   -2.3365    0.0000 C   0  0  0  0  0  0  0  0  0  0  0  0
   -1.4703   -1.1812    0.0000 C   0  0  0  0  0  0  0  0  0  0  0  0
    0.0284   -1.1191    0.0000 C   0  0  0  0  0  0  0  0  0  0  0  0
    0.8316   -2.3860    0.0000 C   0  0  0  0  0  0  0  0  0  0  0  0
    2.3303   -2.3238    0.0000 C   0  0  0  0  0  0  0  0  0  0  0  0
    3.0258   -0.9949    0.0000 C   0  0  0  0  0  0  0  0  0  0  0  0
    4.5246   -0.9327    0.0000 C   0  0  0  0  0  0  0  0  0  0  0  0
    5.2201    0.3962    0.0000 C   0  0  0  0  0  0  0  0  0  0  0  0
    6.7188    0.4584    0.0000 O   0  0  0  0  0  0  0  0  0  0  0  0
    4.4170    1.6631    0.0000 C   0  0  0  0  0  0  0  0  0  0  0  0
    2.9183    1.6010    0.0000 C   0  0  0  0  0  0  0  0  0  0  0  0
    2.2227    0.2720    0.0000 C   0  0  0  0  0  0  0  0  0  0  0  0
    1.4195    1.5389    0.0000 C   0  0  0  0  0  0  0  0  0  0  0  0
    0.7240    0.2099    0.0000 C   0  0  0  0  0  0  0  0  0  0  0  0
   -0.0792    1.4768    0.0000 C   0  0  0  0  0  0  0  0  0  0  0  0
   -1.5779    1.4146    0.0000 C   0  0  0  0  0  0  0  0  0  0  0  0
   -2.2734    0.0856    0.0000 C   0  0  0  0  0  0  0  0  0  0  0  0
   -3.2046    1.2616    0.0000 C   0  0  0  0  0  0  0  0  0  0  0  0
  2  1  1  6
  2  3  1  0
  2  4  1  0
  4  5  1  6
  5  6  1  0
  7  6  1  6
  7  8  1  0
  8  9  1  1
  9 10  1  0
 11 10  1  6
 11 12  1  0
 12 13  1  0
 13 14  1  1
 13 15  1  0
 15 16  1  0
 16 17  1  0
 17 18  1  6
 17 19  1  0
 19 20  1  6
 20 21  1  0
 21 22  1  0
 22 23  1  6
 22  4  1  0
 22  7  1  0
 19  8  1  0
 17 11  1  0
M  END
>  <MS_ID>  (3136) 
MS3259

>  <SMILES>  (3136) 
C[C@H](N)[C@H]1CC[C@H]2[C@@H]3CC[C@H]4C[C@H](O)CC[C@]4(C)[C@H]3CC[C@]12C

>  <Structure_dimension>  (3136) 
2D

$$$$
MS3260
     RDKit          2D

 24 27  0  0  0  0  0  0  0  0999 V2000
   -6.1877   -0.1229    0.0000 C   0  0  0  0  0  0  0  0  0  0  0  0
   -4.7954    0.4353    0.0000 C   0  0  0  0  0  0  0  0  0  0  0  0
   -4.5826    1.9201    0.0000 O   0  0  0  0  0  0  0  0  0  0  0  0
   -3.6159   -0.4914    0.0000 C   0  0  0  0  0  0  0  0  0  0  0  0
   -3.6723   -1.9904    0.0000 C   0  0  0  0  0  0  0  0  0  0  0  0
   -2.2641   -2.5072    0.0000 C   0  0  0  0  0  0  0  0  0  0  0  0
   -1.3374   -1.3277    0.0000 C   0  0  0  0  0  0  0  0  0  0  0  0
    0.1592   -1.2271    0.0000 C   0  0  0  0  0  0  0  0  0  0  0  0
    0.9946   -2.4730    0.0000 C   0  0  0  0  0  0  0  0  0  0  0  0
    2.4912   -2.3724    0.0000 C   0  0  0  0  0  0  0  0  0  0  0  0
    3.1524   -1.0260    0.0000 C   0  0  0  0  0  0  0  0  0  0  0  0
    4.6491   -0.9254    0.0000 C   0  0  0  0  0  0  0  0  0  0  0  0
    5.3103    0.4210    0.0000 C   0  0  0  0  0  0  0  0  0  0  0  0
    6.8069    0.5216    0.0000 O   0  0  0  0  0  0  0  0  0  0  0  0
    4.4749    1.6668    0.0000 C   0  0  0  0  0  0  0  0  0  0  0  0
    2.9782    1.5662    0.0000 C   0  0  0  0  0  0  0  0  0  0  0  0
    2.3170    0.2198    0.0000 C   0  0  0  0  0  0  0  0  0  0  0  0
    1.4816    1.4657    0.0000 C   0  0  0  0  0  0  0  0  0  0  0  0
    0.8204    0.1193    0.0000 C   0  0  0  0  0  0  0  0  0  0  0  0
   -0.0150    1.3651    0.0000 C   0  0  0  0  0  0  0  0  0  0  0  0
   -1.5116    1.2645    0.0000 C   0  0  0  0  0  0  0  0  0  0  0  0
   -2.3471    2.5103    0.0000 O   0  0  0  0  0  0  0  0  0  0  0  0
   -2.1729   -0.0819    0.0000 C   0  0  0  0  0  0  0  0  0  0  0  0
   -3.1339    1.0698    0.0000 C   0  0  0  0  0  0  0  0  0  0  0  0
  1  2  1  0
  2  3  2  0
  4  2  1  6
  4  5  1  0
  5  6  1  0
  7  6  1  6
  7  8  1  0
  8  9  1  1
  9 10  1  0
 11 10  1  1
 11 12  1  0
 12 13  1  0
 13 14  2  0
 13 15  1  0
 15 16  1  0
 16 17  1  0
 17 18  1  6
 17 19  1  0
 19 20  1  6
 20 21  1  0
 21 22  1  1
 21 23  1  0
 23 24  1  6
 23  4  1  0
 23  7  1  0
 19  8  1  0
 17 11  1  0
M  END
>  <MS_ID>  (3137) 
MS3260

>  <SMILES>  (3137) 
CC(=O)[C@H]1CC[C@H]2[C@@H]3CC[C@@H]4CC(=O)CC[C@]4(C)[C@H]3C[C@H](O)[C@]12C

>  <Structure_dimension>  (3137) 
2D

$$$$
MS3262
     RDKit          2D

 39 42  0  0  0  0  0  0  0  0999 V2000
   -0.1970   -4.7350    0.0000 C   0  0  0  0  0  0  0  0  0  0  0  0
    0.3598   -3.3422    0.0000 C   0  0  0  0  0  0  0  0  0  0  0  0
   -0.5680   -2.1635    0.0000 C   0  0  0  0  0  0  0  0  0  0  0  0
   -2.0526   -2.3777    0.0000 C   0  0  0  0  0  0  0  0  0  0  0  0
   -2.9804   -1.1990    0.0000 C   0  0  0  0  0  0  0  0  0  0  0  0
   -2.4235    0.1938    0.0000 O   0  0  0  0  0  0  0  0  0  0  0  0
   -4.4650   -1.4132    0.0000 N   0  0  0  0  0  0  0  0  0  0  0  0
   -5.3928   -0.2346    0.0000 C   0  0  0  0  0  0  0  0  0  0  0  0
   -6.8774   -0.4487    0.0000 C   0  0  0  0  0  0  0  0  0  0  0  0
   -7.8052    0.7299    0.0000 C   0  0  0  0  0  0  0  0  0  0  0  0
   -9.2899    0.5158    0.0000 C   0  0  0  0  0  0  0  0  0  0  0  0
  -10.2176    1.6944    0.0000 N   0  0  0  0  0  0  0  0  0  0  0  0
  -11.7023    1.4802    0.0000 C   0  0  0  0  0  0  0  0  0  0  0  0
  -12.6301    2.6589    0.0000 N   0  0  0  0  0  0  0  0  0  0  0  0
  -12.2591    0.0874    0.0000 O   0  0  0  0  0  0  0  0  0  0  0  0
   -4.8360    1.1583    0.0000 C   0  0  0  0  0  0  0  0  0  0  0  0
   -3.3513    1.3724    0.0000 O   0  0  0  0  0  0  0  0  0  0  0  0
   -5.7637    2.3369    0.0000 O   0  0  0  0  0  0  0  0  0  0  0  0
    1.8445   -3.1280    0.0000 C   0  0  0  0  0  0  0  0  0  0  0  0
    2.8904   -4.2032    0.0000 C   0  0  0  0  0  0  0  0  0  0  0  0
    4.2362   -3.5408    0.0000 C   0  0  0  0  0  0  0  0  0  0  0  0
    4.0220   -2.0561    0.0000 C   0  0  0  0  0  0  0  0  0  0  0  0
    4.9820   -0.9036    0.0000 C   0  0  0  0  0  0  0  0  0  0  0  0
    6.4601   -1.1587    0.0000 C   0  0  0  0  0  0  0  0  0  0  0  0
    6.9783   -2.5663    0.0000 O   0  0  0  0  0  0  0  0  0  0  0  0
    7.4201   -0.0061    0.0000 C   0  0  0  0  0  0  0  0  0  0  0  0
    6.9020    1.4016    0.0000 C   0  0  0  0  0  0  0  0  0  0  0  0
    7.8620    2.5541    0.0000 C   0  0  0  0  0  0  0  0  0  0  0  0
    7.3438    3.9618    0.0000 C   0  0  0  0  0  0  0  0  0  0  0  0
    8.3038    5.1144    0.0000 O   0  0  0  0  0  0  0  0  0  0  0  0
    5.8657    4.2169    0.0000 C   0  0  0  0  0  0  0  0  0  0  0  0
    4.9057    3.0643    0.0000 C   0  0  0  0  0  0  0  0  0  0  0  0
    5.4238    1.6567    0.0000 C   0  0  0  0  0  0  0  0  0  0  0  0
    3.9457    1.9118    0.0000 C   0  0  0  0  0  0  0  0  0  0  0  0
    4.4638    0.5041    0.0000 C   0  0  0  0  0  0  0  0  0  0  0  0
    2.9857    0.7592    0.0000 C   0  0  0  0  0  0  0  0  0  0  0  0
    2.0257   -0.3934    0.0000 C   0  0  0  0  0  0  0  0  0  0  0  0
    2.5438   -1.8010    0.0000 C   0  0  0  0  0  0  0  0  0  0  0  0
    1.0471   -1.7018    0.0000 C   0  0  0  0  0  0  0  0  0  0  0  0
  2  1  1  6
  2  3  1  0
  3  4  1  0
  4  5  1  0
  5  6  2  0
  5  7  1  0
  7  8  1  0
  8  9  1  1
  9 10  1  0
 10 11  1  0
 11 12  1  0
 12 13  1  0
 13 14  1  0
 13 15  2  0
  8 16  1  0
 16 17  2  0
 16 18  1  0
  2 19  1  0
 19 20  1  6
 20 21  1  0
 22 21  1  6
 22 23  1  0
 23 24  1  1
 24 25  1  6
 24 26  1  0
 27 26  1  1
 27 28  1  0
 28 29  1  0
 29 30  1  1
 29 31  1  0
 31 32  1  0
 32 33  1  0
 33 34  1  6
 33 35  1  0
 35 36  1  6
 36 37  1  0
 37 38  1  0
 38 39  1  6
 38 19  1  0
 38 22  1  0
 35 23  1  0
 33 27  1  0
M  END
>  <MS_ID>  (3138) 
MS3262

>  <SMILES>  (3138) 
C[C@H](CCC(=O)N[C@@H](CCCNC(N)=O)C(=O)O)[C@H]1CC[C@H]2[C@@H]3[C@@H](O)C[C@@H]4C[C@H](O)CC[C@]4(C)[C@H]3CC[C@]12C

>  <Structure_dimension>  (3138) 
2D

$$$$
MS3263
     RDKit          2D

 28 31  0  0  0  0  0  0  0  0999 V2000
   -7.4595   -0.8553    0.0000 C   0  0  0  0  0  0  0  0  0  0  0  0
   -6.1398   -0.1423    0.0000 C   0  0  0  0  0  0  0  0  0  0  0  0
   -4.8625   -0.9286    0.0000 O   0  0  0  0  0  0  0  0  0  0  0  0
   -3.5428   -0.2156    0.0000 C   0  0  0  0  0  0  0  0  0  0  0  0
   -3.5005    1.2838    0.0000 O   0  0  0  0  0  0  0  0  0  0  0  0
   -2.2654   -1.0020    0.0000 C   0  0  0  0  0  0  0  0  0  0  0  0
   -2.1508   -2.4976    0.0000 C   0  0  0  0  0  0  0  0  0  0  0  0
   -0.6930   -2.8507    0.0000 C   0  0  0  0  0  0  0  0  0  0  0  0
    0.0934   -1.5734    0.0000 C   0  0  0  0  0  0  0  0  0  0  0  0
    1.5688   -1.3031    0.0000 C   0  0  0  0  0  0  0  0  0  0  0  0
    2.5407   -2.4457    0.0000 C   0  0  0  0  0  0  0  0  0  0  0  0
    4.0161   -2.1753    0.0000 C   0  0  0  0  0  0  0  0  0  0  0  0
    4.5197   -0.7624    0.0000 C   0  0  0  0  0  0  0  0  0  0  0  0
    5.9951   -0.4921    0.0000 C   0  0  0  0  0  0  0  0  0  0  0  0
    6.4988    0.9209    0.0000 C   0  0  0  0  0  0  0  0  0  0  0  0
    7.9742    1.1912    0.0000 O   0  0  0  0  0  0  0  0  0  0  0  0
    5.5269    2.0635    0.0000 C   0  0  0  0  0  0  0  0  0  0  0  0
    4.0515    1.7931    0.0000 C   0  0  0  0  0  0  0  0  0  0  0  0
    3.5479    0.3802    0.0000 C   0  0  0  0  0  0  0  0  0  0  0  0
    2.5760    1.5228    0.0000 C   0  0  0  0  0  0  0  0  0  0  0  0
    2.0724    0.1099    0.0000 C   0  0  0  0  0  0  0  0  0  0  0  0
    1.1006    1.2525    0.0000 C   0  0  0  0  0  0  0  0  0  0  0  0
   -0.3748    0.9821    0.0000 C   0  0  0  0  0  0  0  0  0  0  0  0
   -0.8784   -0.4308    0.0000 C   0  0  0  0  0  0  0  0  0  0  0  0
   -1.9644    0.6040    0.0000 C   0  0  0  0  0  0  0  0  0  0  0  0
   -6.0975    1.3571    0.0000 C   0  0  0  0  0  0  0  0  0  0  0  0
   -4.7778    2.0702    0.0000 O   0  0  0  0  0  0  0  0  0  0  0  0
   -7.3748    2.1435    0.0000 O   0  0  0  0  0  0  0  0  0  0  0  0
  2  1  1  1
  2  3  1  0
  3  4  1  0
  4  5  2  0
  6  4  1  6
  6  7  1  0
  7  8  1  0
  9  8  1  6
  9 10  1  0
 10 11  1  1
 11 12  1  0
 13 12  1  1
 13 14  1  0
 14 15  1  0
 15 16  1  1
 15 17  1  0
 17 18  1  0
 18 19  1  0
 19 20  1  6
 19 21  1  0
 21 22  1  6
 22 23  1  0
 23 24  1  0
 24 25  1  6
  2 26  1  0
 26 27  2  0
 26 28  1  0
 24  6  1  0
 24  9  1  0
 21 10  1  0
 19 13  1  0
M  END
>  <MS_ID>  (3139) 
MS3263

>  <SMILES>  (3139) 
C[C@H](OC(=O)[C@H]1CC[C@H]2[C@@H]3CC[C@@H]4C[C@H](O)CC[C@]4(C)[C@H]3CC[C@]12C)C(=O)O

>  <Structure_dimension>  (3139) 
2D

$$$$
MS3265
     RDKit          2D

 28 31  0  0  0  0  0  0  0  0999 V2000
   -7.1175    3.8231    0.0000 C   0  0  0  0  0  0  0  0  0  0  0  0
   -6.8224    2.3524    0.0000 C   0  0  0  0  0  0  0  0  0  0  0  0
   -7.9484    1.3615    0.0000 C   0  0  0  0  0  0  0  0  0  0  0  0
   -5.4012    1.8727    0.0000 C   0  0  0  0  0  0  0  0  0  0  0  0
   -5.1060    0.4020    0.0000 C   0  0  0  0  0  0  0  0  0  0  0  0
   -3.6848   -0.0778    0.0000 C   0  0  0  0  0  0  0  0  0  0  0  0
   -3.3897   -1.5484    0.0000 C   0  0  0  0  0  0  0  0  0  0  0  0
   -4.5158   -2.5394    0.0000 C   0  0  0  0  0  0  0  0  0  0  0  0
   -1.9685   -2.0282    0.0000 C   0  0  0  0  0  0  0  0  0  0  0  0
   -1.5212   -3.4600    0.0000 C   0  0  0  0  0  0  0  0  0  0  0  0
   -0.0213   -3.4770    0.0000 C   0  0  0  0  0  0  0  0  0  0  0  0
    0.4584   -2.0558    0.0000 C   0  0  0  0  0  0  0  0  0  0  0  0
    1.8356   -1.4614    0.0000 C   0  0  0  0  0  0  0  0  0  0  0  0
    3.0390   -2.3568    0.0000 C   0  0  0  0  0  0  0  0  0  0  0  0
    4.4162   -1.7624    0.0000 C   0  0  0  0  0  0  0  0  0  0  0  0
    4.5900   -0.2725    0.0000 C   0  0  0  0  0  0  0  0  0  0  0  0
    5.9671    0.3220    0.0000 C   0  0  0  0  0  0  0  0  0  0  0  0
    6.1409    1.8119    0.0000 C   0  0  0  0  0  0  0  0  0  0  0  0
    7.5181    2.4063    0.0000 O   0  0  0  0  0  0  0  0  0  0  0  0
    4.9375    2.7073    0.0000 C   0  0  0  0  0  0  0  0  0  0  0  0
    3.5603    2.1129    0.0000 C   0  0  0  0  0  0  0  0  0  0  0  0
    3.3866    0.6230    0.0000 C   0  0  0  0  0  0  0  0  0  0  0  0
    2.1832    1.5184    0.0000 C   0  0  0  0  0  0  0  0  0  0  0  0
    2.0094    0.0285    0.0000 C   0  0  0  0  0  0  0  0  0  0  0  0
    0.8060    0.9240    0.0000 C   0  0  0  0  0  0  0  0  0  0  0  0
   -0.5712    0.3295    0.0000 C   0  0  0  0  0  0  0  0  0  0  0  0
   -0.7450   -1.1604    0.0000 C   0  0  0  0  0  0  0  0  0  0  0  0
   -2.0354   -0.3956    0.0000 C   0  0  0  0  0  0  0  0  0  0  0  0
  1  2  1  0
  2  3  1  0
  2  4  1  0
  4  5  1  0
  5  6  2  0
  6  7  1  0
  7  8  1  6
  7  9  1  0
  9 10  1  6
 10 11  1  0
 12 11  1  6
 12 13  1  0
 13 14  1  1
 14 15  1  0
 16 15  1  6
 16 17  1  0
 17 18  1  0
 18 19  1  6
 18 20  1  0
 20 21  1  0
 21 22  1  0
 22 23  1  6
 22 24  1  0
 24 25  1  6
 25 26  1  0
 26 27  1  0
 27 28  1  6
 27  9  1  0
 27 12  1  0
 24 13  1  0
 22 16  1  0
M  END
>  <MS_ID>  (3140) 
MS3265

>  <SMILES>  (3140) 
CC(C)C/C=C/[C@@H](C)[C@H]1CC[C@H]2[C@@H]3CC[C@H]4C[C@@H](O)CC[C@]4(C)[C@H]3CC[C@]12C

>  <Structure_dimension>  (3140) 
2D

$$$$
MS3266
     RDKit          2D

 40 43  0  0  0  0  0  0  0  0999 V2000
   -0.4115   -4.7292    0.0000 C   0  0  0  0  0  0  0  0  0  0  0  0
    0.1430   -3.3354    0.0000 C   0  0  0  0  0  0  0  0  0  0  0  0
   -0.7868   -2.1583    0.0000 C   0  0  0  0  0  0  0  0  0  0  0  0
   -2.2710   -2.3750    0.0000 C   0  0  0  0  0  0  0  0  0  0  0  0
   -3.2008   -1.1979    0.0000 C   0  0  0  0  0  0  0  0  0  0  0  0
   -2.6463    0.1958    0.0000 O   0  0  0  0  0  0  0  0  0  0  0  0
   -4.6851   -1.4146    0.0000 N   0  0  0  0  0  0  0  0  0  0  0  0
   -5.6149   -0.2375    0.0000 C   0  0  0  0  0  0  0  0  0  0  0  0
   -7.0991   -0.4542    0.0000 C   0  0  0  0  0  0  0  0  0  0  0  0
   -8.0289    0.7229    0.0000 C   0  0  0  0  0  0  0  0  0  0  0  0
   -9.5132    0.5062    0.0000 C   0  0  0  0  0  0  0  0  0  0  0  0
  -10.4430    1.6833    0.0000 N   0  0  0  0  0  0  0  0  0  0  0  0
  -11.9272    1.4666    0.0000 C   0  0  0  0  0  0  0  0  0  0  0  0
  -12.8570    2.6437    0.0000 N   0  0  0  0  0  0  0  0  0  0  0  0
  -12.4817    0.0728    0.0000 O   0  0  0  0  0  0  0  0  0  0  0  0
   -5.0604    1.1562    0.0000 C   0  0  0  0  0  0  0  0  0  0  0  0
   -3.5761    1.3729    0.0000 O   0  0  0  0  0  0  0  0  0  0  0  0
   -5.9902    2.3333    0.0000 O   0  0  0  0  0  0  0  0  0  0  0  0
    1.6273   -3.1187    0.0000 C   0  0  0  0  0  0  0  0  0  0  0  0
    2.6750   -4.1922    0.0000 C   0  0  0  0  0  0  0  0  0  0  0  0
    4.0197   -3.5274    0.0000 C   0  0  0  0  0  0  0  0  0  0  0  0
    3.8030   -2.0432    0.0000 C   0  0  0  0  0  0  0  0  0  0  0  0
    4.7610   -0.8890    0.0000 C   0  0  0  0  0  0  0  0  0  0  0  0
    6.2396   -1.1416    0.0000 C   0  0  0  0  0  0  0  0  0  0  0  0
    6.7602   -2.5483    0.0000 O   0  0  0  0  0  0  0  0  0  0  0  0
    7.1977    0.0126    0.0000 C   0  0  0  0  0  0  0  0  0  0  0  0
    8.6762   -0.2400    0.0000 O   0  0  0  0  0  0  0  0  0  0  0  0
    6.6771    1.4194    0.0000 C   0  0  0  0  0  0  0  0  0  0  0  0
    7.6352    2.5736    0.0000 C   0  0  0  0  0  0  0  0  0  0  0  0
    7.1146    3.9804    0.0000 C   0  0  0  0  0  0  0  0  0  0  0  0
    8.0727    5.1346    0.0000 O   0  0  0  0  0  0  0  0  0  0  0  0
    5.6360    4.2330    0.0000 C   0  0  0  0  0  0  0  0  0  0  0  0
    4.6780    3.0788    0.0000 C   0  0  0  0  0  0  0  0  0  0  0  0
    5.1985    1.6720    0.0000 C   0  0  0  0  0  0  0  0  0  0  0  0
    3.7200    1.9246    0.0000 C   0  0  0  0  0  0  0  0  0  0  0  0
    4.2405    0.5178    0.0000 C   0  0  0  0  0  0  0  0  0  0  0  0
    2.7619    0.7704    0.0000 C   0  0  0  0  0  0  0  0  0  0  0  0
    1.8039   -0.3838    0.0000 C   0  0  0  0  0  0  0  0  0  0  0  0
    2.3244   -1.7906    0.0000 C   0  0  0  0  0  0  0  0  0  0  0  0
    0.8275   -1.6939    0.0000 C   0  0  0  0  0  0  0  0  0  0  0  0
  2  1  1  6
  2  3  1  0
  3  4  1  0
  4  5  1  0
  5  6  2  0
  5  7  1  0
  7  8  1  0
  8  9  1  1
  9 10  1  0
 10 11  1  0
 11 12  1  0
 12 13  1  0
 13 14  1  0
 13 15  2  0
  8 16  1  0
 16 17  2  0
 16 18  1  0
  2 19  1  0
 19 20  1  6
 20 21  1  0
 22 21  1  6
 22 23  1  0
 23 24  1  1
 24 25  1  1
 24 26  1  0
 26 27  1  6
 26 28  1  0
 28 29  1  1
 29 30  1  0
 30 31  1  1
 30 32  1  0
 32 33  1  0
 33 34  1  0
 34 35  1  6
 34 36  1  0
 36 37  1  6
 37 38  1  0
 38 39  1  0
 39 40  1  6
 39 19  1  0
 39 22  1  0
 36 23  1  0
 34 28  1  0
M  END
>  <MS_ID>  (3141) 
MS3266

>  <SMILES>  (3141) 
C[C@H](CCC(=O)N[C@@H](CCCNC(N)=O)C(=O)O)[C@H]1CC[C@H]2[C@@H]3[C@H](O)[C@@H](O)[C@@H]4C[C@H](O)CC[C@]4(C)[C@H]3CC[C@]12C

>  <Structure_dimension>  (3141) 
2D

$$$$
MS3267
     RDKit          2D

 27 30  0  0  0  0  0  0  0  0999 V2000
    2.2674   -1.4675    0.0000 C   0  0  0  0  0  0  0  0  0  0  0  0
    3.1694   -0.2689    0.0000 C   0  0  0  0  0  0  0  0  0  0  0  0
    3.7564   -1.6492    0.0000 C   0  0  0  0  0  0  0  0  0  0  0  0
    5.2453   -1.8310    0.0000 C   0  0  0  0  0  0  0  0  0  0  0  0
    6.1472   -0.6325    0.0000 C   0  0  0  0  0  0  0  0  0  0  0  0
    7.6362   -0.8143    0.0000 O   0  0  0  0  0  0  0  0  0  0  0  0
    5.5602    0.7479    0.0000 C   0  0  0  0  0  0  0  0  0  0  0  0
    4.0713    0.9297    0.0000 C   0  0  0  0  0  0  0  0  0  0  0  0
    3.4842    2.3100    0.0000 C   0  0  0  0  0  0  0  0  0  0  0  0
    1.9953    2.4918    0.0000 C   0  0  0  0  0  0  0  0  0  0  0  0
    1.0934    1.2933    0.0000 C   0  0  0  0  0  0  0  0  0  0  0  0
    1.6804   -0.0871    0.0000 C   0  0  0  0  0  0  0  0  0  0  0  0
    0.7785   -1.2857    0.0000 C   0  0  0  0  0  0  0  0  0  0  0  0
   -0.7104   -1.1039    0.0000 C   0  0  0  0  0  0  0  0  0  0  0  0
   -1.6123   -2.3025    0.0000 O   0  0  0  0  0  0  0  0  0  0  0  0
   -1.2975    0.2765    0.0000 C   0  0  0  0  0  0  0  0  0  0  0  0
   -2.3197   -0.8213    0.0000 C   0  0  0  0  0  0  0  0  0  0  0  0
   -2.7161    0.7639    0.0000 C   0  0  0  0  0  0  0  0  0  0  0  0
   -3.9442   -0.0973    0.0000 C   0  0  0  0  0  0  0  0  0  0  0  0
   -3.8125   -1.5916    0.0000 O   0  0  0  0  0  0  0  0  0  0  0  0
   -5.3041    0.5356    0.0000 C   0  0  0  0  0  0  0  0  0  0  0  0
   -6.5323   -0.3256    0.0000 C   0  0  0  0  0  0  0  0  0  0  0  0
   -6.4005   -1.8198    0.0000 O   0  0  0  0  0  0  0  0  0  0  0  0
   -7.8922    0.3074    0.0000 O   0  0  0  0  0  0  0  0  0  0  0  0
   -2.6909    2.2636    0.0000 C   0  0  0  0  0  0  0  0  0  0  0  0
   -1.2568    2.7032    0.0000 C   0  0  0  0  0  0  0  0  0  0  0  0
   -0.3956    1.4750    0.0000 C   0  0  0  0  0  0  0  0  0  0  0  0
  2  1  1  1
  2  3  1  0
  3  4  1  0
  4  5  1  0
  5  6  2  0
  5  7  1  0
  8  7  1  6
  8  9  1  0
  9 10  1  0
 11 10  1  6
 11 12  1  0
 12 13  1  1
 13 14  1  0
 14 15  1  1
 14 16  1  0
 16 17  1  1
 16 18  1  0
 18 19  1  0
 19 20  1  6
 19 21  1  0
 21 22  1  0
 22 23  2  0
 22 24  1  0
 18 25  1  1
 25 26  1  0
 27 26  1  1
  8  2  1  0
 27 11  1  0
 12  2  1  0
 27 16  1  0
M  END
>  <MS_ID>  (3142) 
MS3267

>  <SMILES>  (3142) 
C[C@]12CCC(=O)C[C@H]1CC[C@@H]1[C@@H]2C[C@@H](O)[C@]2(C)[C@@H]([C@H](O)CC(=O)O)CC[C@@H]12

>  <Structure_dimension>  (3142) 
2D

$$$$
MS3268
     RDKit          2D

 32 35  0  0  0  0  0  0  0  0999 V2000
   -3.1421   -3.6694    0.0000 C   0  0  0  0  0  0  0  0  0  0  0  0
   -2.2628   -2.4541    0.0000 C   0  0  0  0  0  0  0  0  0  0  0  0
   -2.8756   -1.0850    0.0000 C   0  0  0  0  0  0  0  0  0  0  0  0
   -4.3676   -0.9311    0.0000 C   0  0  0  0  0  0  0  0  0  0  0  0
   -4.9804    0.4380    0.0000 C   0  0  0  0  0  0  0  0  0  0  0  0
   -4.1011    1.6532    0.0000 O   0  0  0  0  0  0  0  0  0  0  0  0
   -6.4725    0.5919    0.0000 N   0  0  0  0  0  0  0  0  0  0  0  0
   -7.0853    1.9610    0.0000 C   0  0  0  0  0  0  0  0  0  0  0  0
   -8.5774    2.1149    0.0000 C   0  0  0  0  0  0  0  0  0  0  0  0
   -9.4567    0.8996    0.0000 O   0  0  0  0  0  0  0  0  0  0  0  0
   -9.1901    3.4840    0.0000 O   0  0  0  0  0  0  0  0  0  0  0  0
   -0.7707   -2.6080    0.0000 C   0  0  0  0  0  0  0  0  0  0  0  0
   -0.0182   -3.9056    0.0000 C   0  0  0  0  0  0  0  0  0  0  0  0
    1.4484   -3.5909    0.0000 C   0  0  0  0  0  0  0  0  0  0  0  0
    1.6023   -2.0988    0.0000 C   0  0  0  0  0  0  0  0  0  0  0  0
    2.8141   -1.2147    0.0000 C   0  0  0  0  0  0  0  0  0  0  0  0
    4.1856   -1.8222    0.0000 C   0  0  0  0  0  0  0  0  0  0  0  0
    4.3453   -3.3136    0.0000 O   0  0  0  0  0  0  0  0  0  0  0  0
    5.3974   -0.9381    0.0000 C   0  0  0  0  0  0  0  0  0  0  0  0
    5.2377    0.5533    0.0000 C   0  0  0  0  0  0  0  0  0  0  0  0
    6.4495    1.4374    0.0000 O   0  0  0  0  0  0  0  0  0  0  0  0
    6.2898    2.9289    0.0000 C   0  0  0  0  0  0  0  0  0  0  0  0
    7.5016    3.8129    0.0000 O   0  0  0  0  0  0  0  0  0  0  0  0
    4.9183    3.5363    0.0000 C   0  0  0  0  0  0  0  0  0  0  0  0
    3.7065    2.6522    0.0000 C   0  0  0  0  0  0  0  0  0  0  0  0
    3.8662    1.1608    0.0000 C   0  0  0  0  0  0  0  0  0  0  0  0
    2.4947    1.7682    0.0000 C   0  0  0  0  0  0  0  0  0  0  0  0
    2.6544    0.2767    0.0000 C   0  0  0  0  0  0  0  0  0  0  0  0
    1.2829    0.8842    0.0000 C   0  0  0  0  0  0  0  0  0  0  0  0
    0.0711    0.0001    0.0000 C   0  0  0  0  0  0  0  0  0  0  0  0
    0.2308   -1.4914    0.0000 C   0  0  0  0  0  0  0  0  0  0  0  0
   -1.1967   -1.0306    0.0000 C   0  0  0  0  0  0  0  0  0  0  0  0
  2  1  1  6
  2  3  1  0
  3  4  1  0
  4  5  1  0
  5  6  2  0
  5  7  1  0
  7  8  1  0
  8  9  1  0
  9 10  2  0
  9 11  1  0
  2 12  1  0
 12 13  1  6
 13 14  1  0
 15 14  1  6
 15 16  1  0
 16 17  1  1
 17 18  1  6
 17 19  1  0
 20 19  1  1
 20 21  1  0
 21 22  1  0
 22 23  1  1
 22 24  1  0
 24 25  1  0
 25 26  1  0
 26 27  1  6
 26 28  1  0
 28 29  1  6
 29 30  1  0
 30 31  1  0
 31 32  1  6
 31 12  1  0
 31 15  1  0
 28 16  1  0
 26 20  1  0
M  END
>  <MS_ID>  (3143) 
MS3268

>  <SMILES>  (3143) 
C[C@H](CCC(=O)NCC(=O)O)[C@H]1CC[C@H]2[C@@H]3[C@@H](O)C[C@@H]4O[C@H](O)CC[C@]4(C)[C@H]3CC[C@]12C

>  <Structure_dimension>  (3143) 
2D

$$$$
MS3269
     RDKit          2D

 24 27  0  0  0  0  0  0  0  0999 V2000
   -6.0563    0.5513    0.0000 C   0  0  0  0  0  0  0  0  0  0  0  0
   -4.6264    1.0044    0.0000 C   0  0  0  0  0  0  0  0  0  0  0  0
   -4.3038    2.4693    0.0000 O   0  0  0  0  0  0  0  0  0  0  0  0
   -3.5190   -0.0075    0.0000 C   0  0  0  0  0  0  0  0  0  0  0  0
   -3.6867   -1.4981    0.0000 C   0  0  0  0  0  0  0  0  0  0  0  0
   -4.9912   -2.2385    0.0000 O   0  0  0  0  0  0  0  0  0  0  0  0
   -2.3209   -2.1182    0.0000 C   0  0  0  0  0  0  0  0  0  0  0  0
   -1.3091   -1.0108    0.0000 C   0  0  0  0  0  0  0  0  0  0  0  0
    0.1909   -1.0218    0.0000 C   0  0  0  0  0  0  0  0  0  0  0  0
    0.9313   -2.3263    0.0000 C   0  0  0  0  0  0  0  0  0  0  0  0
    2.4313   -2.3373    0.0000 C   0  0  0  0  0  0  0  0  0  0  0  0
    3.1908   -1.0438    0.0000 C   0  0  0  0  0  0  0  0  0  0  0  0
    4.6907   -1.0548    0.0000 C   0  0  0  0  0  0  0  0  0  0  0  0
    5.4502    0.2388    0.0000 C   0  0  0  0  0  0  0  0  0  0  0  0
    6.9502    0.2278    0.0000 O   0  0  0  0  0  0  0  0  0  0  0  0
    4.7098    1.5432    0.0000 C   0  0  0  0  0  0  0  0  0  0  0  0
    3.2098    1.5542    0.0000 C   0  0  0  0  0  0  0  0  0  0  0  0
    2.4503    0.2607    0.0000 C   0  0  0  0  0  0  0  0  0  0  0  0
    1.7098    1.5652    0.0000 C   0  0  0  0  0  0  0  0  0  0  0  0
    0.9504    0.2717    0.0000 C   0  0  0  0  0  0  0  0  0  0  0  0
    0.2099    1.5762    0.0000 C   0  0  0  0  0  0  0  0  0  0  0  0
   -1.2901    1.5872    0.0000 C   0  0  0  0  0  0  0  0  0  0  0  0
   -2.0496    0.2936    0.0000 C   0  0  0  0  0  0  0  0  0  0  0  0
   -2.9223    1.5136    0.0000 C   0  0  0  0  0  0  0  0  0  0  0  0
  1  2  1  0
  2  3  2  0
  4  2  1  6
  4  5  1  0
  5  6  1  1
  5  7  1  0
  8  7  1  6
  8  9  1  0
  9 10  1  1
 10 11  1  0
 12 11  1  6
 12 13  1  0
 13 14  1  0
 14 15  1  1
 14 16  1  0
 16 17  1  0
 17 18  1  0
 18 19  1  6
 18 20  1  0
 20 21  1  6
 21 22  1  0
 22 23  1  0
 23 24  1  6
 23  4  1  0
 23  8  1  0
 20  9  1  0
 18 12  1  0
M  END
>  <MS_ID>  (3144) 
MS3269

>  <SMILES>  (3144) 
CC(=O)[C@H]1[C@H](O)C[C@H]2[C@@H]3CC[C@H]4C[C@H](O)CC[C@]4(C)[C@H]3CC[C@@]21C

>  <Structure_dimension>  (3144) 
2D

$$$$
MS3270
     RDKit          2D

 29 32  0  0  0  0  0  0  0  0999 V2000
   -5.0303   -2.1373    0.0000 C   0  0  0  0  0  0  0  0  0  0  0  0
   -3.8594   -1.1998    0.0000 C   0  0  0  0  0  0  0  0  0  0  0  0
   -4.0858    0.2830    0.0000 C   0  0  0  0  0  0  0  0  0  0  0  0
   -5.4831    0.8284    0.0000 C   0  0  0  0  0  0  0  0  0  0  0  0
   -5.7095    2.3112    0.0000 C   0  0  0  0  0  0  0  0  0  0  0  0
   -4.5386    3.2487    0.0000 O   0  0  0  0  0  0  0  0  0  0  0  0
   -7.1069    2.8565    0.0000 O   0  0  0  0  0  0  0  0  0  0  0  0
   -2.4620   -1.7451    0.0000 C   0  0  0  0  0  0  0  0  0  0  0  0
   -2.0818   -3.1961    0.0000 C   0  0  0  0  0  0  0  0  0  0  0  0
   -0.5844   -3.2830    0.0000 C   0  0  0  0  0  0  0  0  0  0  0  0
   -0.0390   -1.8856    0.0000 C   0  0  0  0  0  0  0  0  0  0  0  0
    1.3643   -1.3559    0.0000 C   0  0  0  0  0  0  0  0  0  0  0  0
    2.5248   -2.3063    0.0000 C   0  0  0  0  0  0  0  0  0  0  0  0
    2.2819   -3.7865    0.0000 O   0  0  0  0  0  0  0  0  0  0  0  0
    3.9281   -1.7765    0.0000 C   0  0  0  0  0  0  0  0  0  0  0  0
    4.1710   -0.2963    0.0000 C   0  0  0  0  0  0  0  0  0  0  0  0
    5.5743    0.2334    0.0000 C   0  0  0  0  0  0  0  0  0  0  0  0
    5.8172    1.7136    0.0000 C   0  0  0  0  0  0  0  0  0  0  0  0
    7.2205    2.2434    0.0000 O   0  0  0  0  0  0  0  0  0  0  0  0
    4.6568    2.6641    0.0000 C   0  0  0  0  0  0  0  0  0  0  0  0
    3.2534    2.1343    0.0000 C   0  0  0  0  0  0  0  0  0  0  0  0
    3.0105    0.6541    0.0000 C   0  0  0  0  0  0  0  0  0  0  0  0
    1.8501    1.6046    0.0000 O   0  0  0  0  0  0  0  0  0  0  0  0
    1.6072    0.1244    0.0000 C   0  0  0  0  0  0  0  0  0  0  0  0
    0.4467    1.0748    0.0000 C   0  0  0  0  0  0  0  0  0  0  0  0
   -0.9566    0.5450    0.0000 C   0  0  0  0  0  0  0  0  0  0  0  0
   -2.1170    1.4955    0.0000 O   0  0  0  0  0  0  0  0  0  0  0  0
   -1.1995   -0.9352    0.0000 C   0  0  0  0  0  0  0  0  0  0  0  0
   -2.4529   -0.1112    0.0000 C   0  0  0  0  0  0  0  0  0  0  0  0
  2  1  1  6
  2  3  1  0
  3  4  1  0
  4  5  1  0
  5  6  2  0
  5  7  1  0
  2  8  1  0
  8  9  1  6
  9 10  1  0
 11 10  1  6
 11 12  1  0
 12 13  1  1
 13 14  1  6
 13 15  1  0
 16 15  1  1
 16 17  1  0
 17 18  1  0
 18 19  1  1
 18 20  1  0
 20 21  1  0
 21 22  1  0
 22 23  1  6
 22 24  1  0
 24 25  1  6
 25 26  1  0
 26 27  2  0
 26 28  1  0
 28 29  1  6
 28  8  1  0
 28 11  1  0
 24 12  1  0
 22 16  1  0
M  END
>  <MS_ID>  (3145) 
MS3270

>  <SMILES>  (3145) 
C[C@H](CCC(=O)O)[C@H]1CC[C@H]2[C@@H]3[C@@H](O)C[C@@H]4C[C@H](O)CC[C@]4(O)[C@H]3CC(=O)[C@]12C

>  <Structure_dimension>  (3145) 
2D

$$$$
MS3271
     RDKit          2D

 23 26  0  0  0  0  0  0  0  0999 V2000
   -6.2880    0.1477    0.0000 C   0  0  0  0  0  0  0  0  0  0  0  0
   -4.8818    0.6700    0.0000 C   0  0  0  0  0  0  0  0  0  0  0  0
   -4.6310    2.1488    0.0000 O   0  0  0  0  0  0  0  0  0  0  0  0
   -3.7265   -0.2867    0.0000 C   0  0  0  0  0  0  0  0  0  0  0  0
   -3.8214   -1.7837    0.0000 C   0  0  0  0  0  0  0  0  0  0  0  0
   -2.4270   -2.3365    0.0000 C   0  0  0  0  0  0  0  0  0  0  0  0
   -1.4703   -1.1812    0.0000 C   0  0  0  0  0  0  0  0  0  0  0  0
    0.0284   -1.1191    0.0000 C   0  0  0  0  0  0  0  0  0  0  0  0
    0.8316   -2.3860    0.0000 C   0  0  0  0  0  0  0  0  0  0  0  0
    2.3303   -2.3238    0.0000 C   0  0  0  0  0  0  0  0  0  0  0  0
    3.0258   -0.9949    0.0000 C   0  0  0  0  0  0  0  0  0  0  0  0
    4.5246   -0.9327    0.0000 C   0  0  0  0  0  0  0  0  0  0  0  0
    5.2201    0.3962    0.0000 C   0  0  0  0  0  0  0  0  0  0  0  0
    6.7188    0.4584    0.0000 N   0  0  0  0  0  0  0  0  0  0  0  0
    4.4170    1.6631    0.0000 C   0  0  0  0  0  0  0  0  0  0  0  0
    2.9183    1.6010    0.0000 C   0  0  0  0  0  0  0  0  0  0  0  0
    2.2227    0.2720    0.0000 C   0  0  0  0  0  0  0  0  0  0  0  0
    1.4195    1.5389    0.0000 C   0  0  0  0  0  0  0  0  0  0  0  0
    0.7240    0.2099    0.0000 C   0  0  0  0  0  0  0  0  0  0  0  0
   -0.0792    1.4768    0.0000 C   0  0  0  0  0  0  0  0  0  0  0  0
   -1.5779    1.4146    0.0000 C   0  0  0  0  0  0  0  0  0  0  0  0
   -2.2734    0.0856    0.0000 C   0  0  0  0  0  0  0  0  0  0  0  0
   -3.2046    1.2616    0.0000 C   0  0  0  0  0  0  0  0  0  0  0  0
  1  2  1  0
  2  3  2  0
  4  2  1  6
  4  5  1  0
  5  6  1  0
  7  6  1  6
  7  8  1  0
  8  9  1  1
  9 10  1  0
 11 10  1  6
 11 12  1  0
 12 13  1  0
 13 14  1  1
 13 15  1  0
 15 16  1  0
 16 17  1  0
 17 18  1  6
 17 19  1  0
 19 20  1  6
 20 21  1  0
 21 22  1  0
 22 23  1  6
 22  4  1  0
 22  7  1  0
 19  8  1  0
 17 11  1  0
M  END
>  <MS_ID>  (3146) 
MS3271

>  <SMILES>  (3146) 
CC(=O)[C@H]1CC[C@H]2[C@@H]3CC[C@H]4C[C@H](N)CC[C@]4(C)[C@H]3CC[C@]12C

>  <Structure_dimension>  (3146) 
2D

$$$$
MS3272
     RDKit          2D

 37 40  0  0  0  0  0  0  0  0999 V2000
   -0.2913   -4.6883    0.0000 C   0  0  0  0  0  0  0  0  0  0  0  0
    0.2591   -3.2929    0.0000 C   0  0  0  0  0  0  0  0  0  0  0  0
   -0.6741   -2.1185    0.0000 C   0  0  0  0  0  0  0  0  0  0  0  0
   -2.1577   -2.3396    0.0000 C   0  0  0  0  0  0  0  0  0  0  0  0
   -3.0910   -1.1652    0.0000 C   0  0  0  0  0  0  0  0  0  0  0  0
   -2.5406    0.2301    0.0000 O   0  0  0  0  0  0  0  0  0  0  0  0
   -4.5746   -1.3863    0.0000 N   0  0  0  0  0  0  0  0  0  0  0  0
   -5.5078   -0.2119    0.0000 C   0  0  0  0  0  0  0  0  0  0  0  0
   -6.9915   -0.4330    0.0000 C   0  0  0  0  0  0  0  0  0  0  0  0
   -7.9247    0.7414    0.0000 C   0  0  0  0  0  0  0  0  0  0  0  0
   -9.4083    0.5203    0.0000 C   0  0  0  0  0  0  0  0  0  0  0  0
  -10.3415    1.6947    0.0000 C   0  0  0  0  0  0  0  0  0  0  0  0
   -9.7912    3.0901    0.0000 N   0  0  0  0  0  0  0  0  0  0  0  0
  -11.8252    1.4737    0.0000 C   0  0  0  0  0  0  0  0  0  0  0  0
  -12.3756    0.0783    0.0000 O   0  0  0  0  0  0  0  0  0  0  0  0
  -12.7584    2.6480    0.0000 O   0  0  0  0  0  0  0  0  0  0  0  0
    1.7427   -3.0719    0.0000 C   0  0  0  0  0  0  0  0  0  0  0  0
    2.7936   -4.1422    0.0000 C   0  0  0  0  0  0  0  0  0  0  0  0
    4.1363   -3.4735    0.0000 C   0  0  0  0  0  0  0  0  0  0  0  0
    3.9153   -1.9899    0.0000 C   0  0  0  0  0  0  0  0  0  0  0  0
    4.8699   -0.8329    0.0000 C   0  0  0  0  0  0  0  0  0  0  0  0
    6.3493   -1.0812    0.0000 C   0  0  0  0  0  0  0  0  0  0  0  0
    6.8739   -2.4864    0.0000 O   0  0  0  0  0  0  0  0  0  0  0  0
    7.3039    0.0758    0.0000 C   0  0  0  0  0  0  0  0  0  0  0  0
    6.7792    1.4811    0.0000 C   0  0  0  0  0  0  0  0  0  0  0  0
    7.7339    2.6381    0.0000 C   0  0  0  0  0  0  0  0  0  0  0  0
    7.2092    4.0433    0.0000 C   0  0  0  0  0  0  0  0  0  0  0  0
    8.1639    5.2003    0.0000 O   0  0  0  0  0  0  0  0  0  0  0  0
    5.7299    4.2916    0.0000 C   0  0  0  0  0  0  0  0  0  0  0  0
    4.7753    3.1346    0.0000 C   0  0  0  0  0  0  0  0  0  0  0  0
    5.2999    1.7293    0.0000 C   0  0  0  0  0  0  0  0  0  0  0  0
    3.8206    1.9776    0.0000 C   0  0  0  0  0  0  0  0  0  0  0  0
    4.3453    0.5723    0.0000 C   0  0  0  0  0  0  0  0  0  0  0  0
    2.8660    0.8206    0.0000 C   0  0  0  0  0  0  0  0  0  0  0  0
    1.9113   -0.3364    0.0000 C   0  0  0  0  0  0  0  0  0  0  0  0
    2.4360   -1.7417    0.0000 C   0  0  0  0  0  0  0  0  0  0  0  0
    0.9388   -1.6494    0.0000 C   0  0  0  0  0  0  0  0  0  0  0  0
  2  1  1  6
  2  3  1  0
  3  4  1  0
  4  5  1  0
  5  6  2  0
  5  7  1  0
  7  8  1  0
  8  9  1  0
  9 10  1  0
 10 11  1  0
 11 12  1  0
 12 13  1  1
 12 14  1  0
 14 15  2  0
 14 16  1  0
  2 17  1  0
 17 18  1  6
 18 19  1  0
 20 19  1  6
 20 21  1  0
 21 22  1  1
 22 23  1  6
 22 24  1  0
 25 24  1  1
 25 26  1  0
 26 27  1  0
 27 28  1  1
 27 29  1  0
 29 30  1  0
 30 31  1  0
 31 32  1  6
 31 33  1  0
 33 34  1  6
 34 35  1  0
 35 36  1  0
 36 37  1  6
 36 17  1  0
 36 20  1  0
 33 21  1  0
 31 25  1  0
M  END
>  <MS_ID>  (3147) 
MS3272

>  <SMILES>  (3147) 
C[C@H](CCC(=O)NCCCC[C@H](N)C(=O)O)[C@H]1CC[C@H]2[C@@H]3[C@@H](O)C[C@@H]4C[C@H](O)CC[C@]4(C)[C@H]3CC[C@]12C

>  <Structure_dimension>  (3147) 
2D

$$$$
MS3273
     RDKit          2D

 34 37  0  0  0  0  0  0  0  0999 V2000
   -1.8984   -4.2506    0.0000 C   0  0  0  0  0  0  0  0  0  0  0  0
   -1.1842   -2.9316    0.0000 C   0  0  0  0  0  0  0  0  0  0  0  0
   -1.9694   -1.6535    0.0000 C   0  0  0  0  0  0  0  0  0  0  0  0
   -3.4688   -1.6945    0.0000 C   0  0  0  0  0  0  0  0  0  0  0  0
   -4.2540   -0.4165    0.0000 C   0  0  0  0  0  0  0  0  0  0  0  0
   -3.5398    0.9026    0.0000 O   0  0  0  0  0  0  0  0  0  0  0  0
   -5.7535   -0.4574    0.0000 N   0  0  0  0  0  0  0  0  0  0  0  0
   -6.5387    0.8206    0.0000 C   0  0  0  0  0  0  0  0  0  0  0  0
   -8.0381    0.7796    0.0000 C   0  0  0  0  0  0  0  0  0  0  0  0
   -8.8234    2.0577    0.0000 C   0  0  0  0  0  0  0  0  0  0  0  0
  -10.3228    2.0167    0.0000 C   0  0  0  0  0  0  0  0  0  0  0  0
  -11.0370    0.6977    0.0000 O   0  0  0  0  0  0  0  0  0  0  0  0
  -11.1080    3.2948    0.0000 O   0  0  0  0  0  0  0  0  0  0  0  0
    0.3153   -2.8906    0.0000 C   0  0  0  0  0  0  0  0  0  0  0  0
    1.2298   -4.0796    0.0000 C   0  0  0  0  0  0  0  0  0  0  0  0
    2.6432   -3.5773    0.0000 C   0  0  0  0  0  0  0  0  0  0  0  0
    2.6022   -2.0778    0.0000 C   0  0  0  0  0  0  0  0  0  0  0  0
    3.6890   -1.0440    0.0000 C   0  0  0  0  0  0  0  0  0  0  0  0
    5.1278   -1.4684    0.0000 C   0  0  0  0  0  0  0  0  0  0  0  0
    5.4796   -2.9266    0.0000 O   0  0  0  0  0  0  0  0  0  0  0  0
    6.2146   -0.4346    0.0000 C   0  0  0  0  0  0  0  0  0  0  0  0
    5.8628    1.0235    0.0000 C   0  0  0  0  0  0  0  0  0  0  0  0
    6.9497    2.0573    0.0000 C   0  0  0  0  0  0  0  0  0  0  0  0
    6.5978    3.5154    0.0000 C   0  0  0  0  0  0  0  0  0  0  0  0
    7.6847    4.5492    0.0000 O   0  0  0  0  0  0  0  0  0  0  0  0
    5.1591    3.9398    0.0000 C   0  0  0  0  0  0  0  0  0  0  0  0
    4.0722    2.9060    0.0000 C   0  0  0  0  0  0  0  0  0  0  0  0
    4.4241    1.4479    0.0000 C   0  0  0  0  0  0  0  0  0  0  0  0
    2.9854    1.8723    0.0000 C   0  0  0  0  0  0  0  0  0  0  0  0
    3.3372    0.4141    0.0000 C   0  0  0  0  0  0  0  0  0  0  0  0
    1.8985    0.8385    0.0000 C   0  0  0  0  0  0  0  0  0  0  0  0
    0.8116   -0.1953    0.0000 C   0  0  0  0  0  0  0  0  0  0  0  0
    1.1635   -1.6534    0.0000 C   0  0  0  0  0  0  0  0  0  0  0  0
   -0.3117   -1.3818    0.0000 C   0  0  0  0  0  0  0  0  0  0  0  0
  2  1  1  6
  2  3  1  0
  3  4  1  0
  4  5  1  0
  5  6  2  0
  5  7  1  0
  7  8  1  0
  8  9  1  0
  9 10  1  0
 10 11  1  0
 11 12  2  0
 11 13  1  0
  2 14  1  0
 14 15  1  6
 15 16  1  0
 17 16  1  6
 17 18  1  0
 18 19  1  1
 19 20  1  6
 19 21  1  0
 22 21  1  1
 22 23  1  0
 23 24  1  0
 24 25  1  6
 24 26  1  0
 26 27  1  0
 27 28  1  0
 28 29  1  6
 28 30  1  0
 30 31  1  6
 31 32  1  0
 32 33  1  0
 33 34  1  6
 33 14  1  0
 33 17  1  0
 30 18  1  0
 28 22  1  0
M  END
>  <MS_ID>  (3148) 
MS3273

>  <SMILES>  (3148) 
C[C@H](CCC(=O)NCCCC(=O)O)[C@H]1CC[C@H]2[C@@H]3[C@@H](O)C[C@@H]4C[C@@H](O)CC[C@]4(C)[C@H]3CC[C@]12C

>  <Structure_dimension>  (3148) 
2D

$$$$
MS3276
     RDKit          2D

 24 27  0  0  0  0  0  0  0  0999 V2000
   -5.7398    1.3531    0.0000 C   0  0  0  0  0  0  0  0  0  0  0  0
   -5.0076    0.0439    0.0000 C   0  0  0  0  0  0  0  0  0  0  0  0
   -5.7752   -1.2448    0.0000 O   0  0  0  0  0  0  0  0  0  0  0  0
   -3.5077    0.0235    0.0000 C   0  0  0  0  0  0  0  0  0  0  0  0
   -3.8252    1.4895    0.0000 O   0  0  0  0  0  0  0  0  0  0  0  0
   -3.6848   -1.4660    0.0000 C   0  0  0  0  0  0  0  0  0  0  0  0
   -2.3229   -2.0948    0.0000 C   0  0  0  0  0  0  0  0  0  0  0  0
   -1.3042   -0.9938    0.0000 C   0  0  0  0  0  0  0  0  0  0  0  0
    0.1957   -1.0143    0.0000 C   0  0  0  0  0  0  0  0  0  0  0  0
    0.9279   -2.3234    0.0000 C   0  0  0  0  0  0  0  0  0  0  0  0
    2.4278   -2.3439    0.0000 C   0  0  0  0  0  0  0  0  0  0  0  0
    3.1954   -1.0552    0.0000 C   0  0  0  0  0  0  0  0  0  0  0  0
    4.6953   -1.0756    0.0000 C   0  0  0  0  0  0  0  0  0  0  0  0
    5.4629    0.2131    0.0000 C   0  0  0  0  0  0  0  0  0  0  0  0
    6.9628    0.1926    0.0000 O   0  0  0  0  0  0  0  0  0  0  0  0
    4.7307    1.5222    0.0000 C   0  0  0  0  0  0  0  0  0  0  0  0
    3.2308    1.5427    0.0000 C   0  0  0  0  0  0  0  0  0  0  0  0
    2.4632    0.2540    0.0000 C   0  0  0  0  0  0  0  0  0  0  0  0
    1.7310    1.5631    0.0000 C   0  0  0  0  0  0  0  0  0  0  0  0
    0.9633    0.2744    0.0000 C   0  0  0  0  0  0  0  0  0  0  0  0
    0.2311    1.5835    0.0000 C   0  0  0  0  0  0  0  0  0  0  0  0
   -1.2687    1.6040    0.0000 C   0  0  0  0  0  0  0  0  0  0  0  0
   -2.0364    0.3153    0.0000 C   0  0  0  0  0  0  0  0  0  0  0  0
   -2.7456    1.6370    0.0000 C   0  0  0  0  0  0  0  0  0  0  0  0
  1  2  1  0
  2  3  2  0
  2  4  1  0
  4  5  1  1
  4  6  1  0
  6  7  1  0
  8  7  1  6
  8  9  1  0
  9 10  1  1
 10 11  1  0
 12 11  1  6
 12 13  1  0
 13 14  1  0
 14 15  1  1
 14 16  1  0
 16 17  1  0
 17 18  1  0
 18 19  1  6
 18 20  1  0
 20 21  1  6
 21 22  1  0
 22 23  1  0
 23 24  1  6
 23  4  1  0
 23  8  1  0
 20  9  1  0
 18 12  1  0
M  END
>  <MS_ID>  (3149) 
MS3276

>  <SMILES>  (3149) 
CC(=O)[C@@]1(O)CC[C@H]2[C@@H]3CC[C@H]4C[C@H](O)CC[C@]4(C)[C@H]3CC[C@@]21C

>  <Structure_dimension>  (3149) 
2D

$$$$
MS3277
     RDKit          2D

 24 27  0  0  0  0  0  0  0  0999 V2000
   -6.4254    0.0055    0.0000 C   0  0  0  0  0  0  0  0  0  0  0  0
   -5.0444    0.5910    0.0000 C   0  0  0  0  0  0  0  0  0  0  0  0
   -4.8610    2.0798    0.0000 O   0  0  0  0  0  0  0  0  0  0  0  0
   -3.8468   -0.3122    0.0000 C   0  0  0  0  0  0  0  0  0  0  0  0
   -3.8736   -1.8119    0.0000 C   0  0  0  0  0  0  0  0  0  0  0  0
   -2.4555   -2.3009    0.0000 C   0  0  0  0  0  0  0  0  0  0  0  0
   -1.5523   -1.1033    0.0000 C   0  0  0  0  0  0  0  0  0  0  0  0
   -0.0580   -0.9731    0.0000 C   0  0  0  0  0  0  0  0  0  0  0  0
    0.8019   -2.2022    0.0000 C   0  0  0  0  0  0  0  0  0  0  0  0
    2.2962   -2.0721    0.0000 C   0  0  0  0  0  0  0  0  0  0  0  0
    3.1561   -3.3011    0.0000 O   0  0  0  0  0  0  0  0  0  0  0  0
    2.9307   -0.7128    0.0000 C   0  0  0  0  0  0  0  0  0  0  0  0
    4.4250   -0.5827    0.0000 C   0  0  0  0  0  0  0  0  0  0  0  0
    5.0595    0.7765    0.0000 C   0  0  0  0  0  0  0  0  0  0  0  0
    6.5539    0.9066    0.0000 O   0  0  0  0  0  0  0  0  0  0  0  0
    4.1996    2.0056    0.0000 C   0  0  0  0  0  0  0  0  0  0  0  0
    2.7053    1.8754    0.0000 C   0  0  0  0  0  0  0  0  0  0  0  0
    2.0708    0.5162    0.0000 C   0  0  0  0  0  0  0  0  0  0  0  0
    1.2109    1.7453    0.0000 C   0  0  0  0  0  0  0  0  0  0  0  0
    0.5765    0.3861    0.0000 C   0  0  0  0  0  0  0  0  0  0  0  0
   -0.2834    1.6152    0.0000 C   0  0  0  0  0  0  0  0  0  0  0  0
   -1.7777    1.4850    0.0000 C   0  0  0  0  0  0  0  0  0  0  0  0
   -2.4122    0.1258    0.0000 C   0  0  0  0  0  0  0  0  0  0  0  0
   -3.3959    1.2583    0.0000 C   0  0  0  0  0  0  0  0  0  0  0  0
  1  2  1  0
  2  3  2  0
  4  2  1  6
  4  5  1  0
  5  6  1  0
  7  6  1  6
  7  8  1  0
  8  9  1  1
  9 10  1  0
 10 11  1  1
 10 12  1  0
 12 13  1  6
 13 14  1  0
 14 15  1  1
 14 16  1  0
 16 17  1  0
 17 18  1  0
 18 19  1  6
 18 20  1  0
 20 21  1  6
 21 22  1  0
 22 23  1  0
 23 24  1  6
 23  4  1  0
 23  7  1  0
 20  8  1  0
 18 12  1  0
M  END
>  <MS_ID>  (3150) 
MS3277

>  <SMILES>  (3150) 
CC(=O)[C@H]1CC[C@H]2[C@@H]3C[C@H](O)[C@H]4C[C@H](O)CC[C@]4(C)[C@H]3CC[C@]12C

>  <Structure_dimension>  (3150) 
2D

$$$$
MS3278
     RDKit          2D

 37 40  0  0  0  0  0  0  0  0999 V2000
   -1.1168   -4.5462    0.0000 C   0  0  0  0  0  0  0  0  0  0  0  0
   -0.5124   -3.1733    0.0000 C   0  0  0  0  0  0  0  0  0  0  0  0
   -1.3992   -1.9635    0.0000 C   0  0  0  0  0  0  0  0  0  0  0  0
   -2.8903   -2.1266    0.0000 C   0  0  0  0  0  0  0  0  0  0  0  0
   -3.7771   -0.9168    0.0000 C   0  0  0  0  0  0  0  0  0  0  0  0
   -3.1727    0.4561    0.0000 O   0  0  0  0  0  0  0  0  0  0  0  0
   -5.2682   -1.0799    0.0000 N   0  0  0  0  0  0  0  0  0  0  0  0
   -6.1550    0.1300    0.0000 C   0  0  0  0  0  0  0  0  0  0  0  0
   -7.6461   -0.0331    0.0000 C   0  0  0  0  0  0  0  0  0  0  0  0
   -8.5328    1.1767    0.0000 C   0  0  0  0  0  0  0  0  0  0  0  0
  -10.0240    1.0136    0.0000 C   0  0  0  0  0  0  0  0  0  0  0  0
  -10.6283   -0.3592    0.0000 N   0  0  0  0  0  0  0  0  0  0  0  0
  -10.9107    2.2234    0.0000 C   0  0  0  0  0  0  0  0  0  0  0  0
  -10.3064    3.5963    0.0000 O   0  0  0  0  0  0  0  0  0  0  0  0
  -12.4018    2.0604    0.0000 O   0  0  0  0  0  0  0  0  0  0  0  0
    0.9787   -3.0103    0.0000 C   0  0  0  0  0  0  0  0  0  0  0  0
    1.9871   -4.1208    0.0000 C   0  0  0  0  0  0  0  0  0  0  0  0
    3.3548   -3.5049    0.0000 C   0  0  0  0  0  0  0  0  0  0  0  0
    3.1917   -2.0138    0.0000 C   0  0  0  0  0  0  0  0  0  0  0  0
    4.1907   -0.8949    0.0000 C   0  0  0  0  0  0  0  0  0  0  0  0
    5.6593   -1.2006    0.0000 C   0  0  0  0  0  0  0  0  0  0  0  0
    6.1288   -2.6252    0.0000 O   0  0  0  0  0  0  0  0  0  0  0  0
    6.6583   -0.0816    0.0000 C   0  0  0  0  0  0  0  0  0  0  0  0
    8.1268   -0.3873    0.0000 O   0  0  0  0  0  0  0  0  0  0  0  0
    6.1887    1.3430    0.0000 C   0  0  0  0  0  0  0  0  0  0  0  0
    7.1877    2.4619    0.0000 C   0  0  0  0  0  0  0  0  0  0  0  0
    6.7182    3.8865    0.0000 C   0  0  0  0  0  0  0  0  0  0  0  0
    7.7172    5.0055    0.0000 O   0  0  0  0  0  0  0  0  0  0  0  0
    5.2497    4.1922    0.0000 C   0  0  0  0  0  0  0  0  0  0  0  0
    4.2507    3.0733    0.0000 C   0  0  0  0  0  0  0  0  0  0  0  0
    4.7202    1.6487    0.0000 C   0  0  0  0  0  0  0  0  0  0  0  0
    3.2517    1.9544    0.0000 C   0  0  0  0  0  0  0  0  0  0  0  0
    3.7212    0.5298    0.0000 C   0  0  0  0  0  0  0  0  0  0  0  0
    2.2527    0.8355    0.0000 C   0  0  0  0  0  0  0  0  0  0  0  0
    1.2537   -0.2835    0.0000 C   0  0  0  0  0  0  0  0  0  0  0  0
    1.7232   -1.7081    0.0000 C   0  0  0  0  0  0  0  0  0  0  0  0
    0.2308   -1.5576    0.0000 C   0  0  0  0  0  0  0  0  0  0  0  0
  2  1  1  6
  2  3  1  0
  3  4  1  0
  4  5  1  0
  5  6  2  0
  5  7  1  0
  7  8  1  0
  8  9  1  0
  9 10  1  0
 10 11  1  0
 11 12  1  6
 11 13  1  0
 13 14  2  0
 13 15  1  0
  2 16  1  0
 16 17  1  6
 17 18  1  0
 19 18  1  6
 19 20  1  0
 20 21  1  1
 21 22  1  6
 21 23  1  0
 23 24  1  6
 23 25  1  0
 25 26  1  1
 26 27  1  0
 27 28  1  1
 27 29  1  0
 29 30  1  0
 30 31  1  0
 31 32  1  6
 31 33  1  0
 33 34  1  6
 34 35  1  0
 35 36  1  0
 36 37  1  6
 36 16  1  0
 36 19  1  0
 33 20  1  0
 31 25  1  0
M  END
>  <MS_ID>  (3151) 
MS3278

>  <SMILES>  (3151) 
C[C@H](CCC(=O)NCCC[C@H](N)C(=O)O)[C@H]1CC[C@H]2[C@@H]3[C@@H](O)[C@@H](O)[C@@H]4C[C@H](O)CC[C@]4(C)[C@H]3CC[C@]12C

>  <Structure_dimension>  (3151) 
2D

$$$$
MS3279
     RDKit          2D

 30 33  0  0  0  0  0  0  0  0999 V2000
   -7.6633    3.6195    0.0000 C   0  0  0  0  0  0  0  0  0  0  0  0
   -7.3042    2.1631    0.0000 C   0  0  0  0  0  0  0  0  0  0  0  0
   -8.3859    1.1240    0.0000 C   0  0  0  0  0  0  0  0  0  0  0  0
   -5.8634    1.7459    0.0000 C   0  0  0  0  0  0  0  0  0  0  0  0
   -5.5043    0.2895    0.0000 C   0  0  0  0  0  0  0  0  0  0  0  0
   -4.0635   -0.1278    0.0000 C   0  0  0  0  0  0  0  0  0  0  0  0
   -3.7045   -1.5841    0.0000 C   0  0  0  0  0  0  0  0  0  0  0  0
   -4.7862   -2.6233    0.0000 C   0  0  0  0  0  0  0  0  0  0  0  0
   -2.2637   -2.0014    0.0000 C   0  0  0  0  0  0  0  0  0  0  0  0
   -1.7544   -3.4123    0.0000 C   0  0  0  0  0  0  0  0  0  0  0  0
   -0.2551   -3.3639    0.0000 C   0  0  0  0  0  0  0  0  0  0  0  0
    0.1621   -1.9231    0.0000 C   0  0  0  0  0  0  0  0  0  0  0  0
    1.5120   -1.2690    0.0000 C   0  0  0  0  0  0  0  0  0  0  0  0
    2.7534   -2.1111    0.0000 C   0  0  0  0  0  0  0  0  0  0  0  0
    4.1033   -1.4571    0.0000 C   0  0  0  0  0  0  0  0  0  0  0  0
    5.3446   -2.2991    0.0000 O   0  0  0  0  0  0  0  0  0  0  0  0
    4.2118    0.0390    0.0000 C   0  0  0  0  0  0  0  0  0  0  0  0
    5.4532   -0.8031    0.0000 O   0  0  0  0  0  0  0  0  0  0  0  0
    5.5618    0.6930    0.0000 C   0  0  0  0  0  0  0  0  0  0  0  0
    5.6703    2.1891    0.0000 C   0  0  0  0  0  0  0  0  0  0  0  0
    7.0202    2.8431    0.0000 O   0  0  0  0  0  0  0  0  0  0  0  0
    4.4290    3.0311    0.0000 C   0  0  0  0  0  0  0  0  0  0  0  0
    3.0791    2.3771    0.0000 C   0  0  0  0  0  0  0  0  0  0  0  0
    2.9705    0.8810    0.0000 C   0  0  0  0  0  0  0  0  0  0  0  0
    1.7292    1.7231    0.0000 C   0  0  0  0  0  0  0  0  0  0  0  0
    1.6206    0.2270    0.0000 C   0  0  0  0  0  0  0  0  0  0  0  0
    0.3792    1.0691    0.0000 C   0  0  0  0  0  0  0  0  0  0  0  0
   -0.9707    0.4151    0.0000 C   0  0  0  0  0  0  0  0  0  0  0  0
   -1.0792   -1.0810    0.0000 C   0  0  0  0  0  0  0  0  0  0  0  0
   -2.4018   -0.3733    0.0000 C   0  0  0  0  0  0  0  0  0  0  0  0
  1  2  1  0
  2  3  1  0
  2  4  1  0
  4  5  1  0
  5  6  1  0
  6  7  1  0
  7  8  1  6
  7  9  1  0
  9 10  1  6
 10 11  1  0
 12 11  1  1
 12 13  1  0
 13 14  1  1
 14 15  1  0
 15 16  1  6
 15 17  1  0
 17 18  1  1
 17 19  1  0
 19 20  1  0
 20 21  1  6
 20 22  1  0
 22 23  1  0
 23 24  1  0
 24 25  1  6
 24 26  1  0
 26 27  1  6
 27 28  1  0
 28 29  1  0
 29 30  1  6
 29  9  1  0
 29 12  1  0
 26 13  1  0
 24 17  1  0
M  END
>  <MS_ID>  (3152) 
MS3279

>  <SMILES>  (3152) 
CC(C)CCC[C@@H](C)[C@H]1CC[C@@H]2[C@@H]3C[C@@H](O)[C@@]4(O)C[C@@H](O)CC[C@]4(C)[C@H]3CC[C@@]21C

>  <Structure_dimension>  (3152) 
2D

$$$$
MS3280
     RDKit          2D

 27 30  0  0  0  0  0  0  0  0999 V2000
   -8.7389    1.1502    0.0000 C   0  0  0  0  0  0  0  0  0  0  0  0
   -7.5511    0.2342    0.0000 C   0  0  0  0  0  0  0  0  0  0  0  0
   -7.7505   -1.2525    0.0000 O   0  0  0  0  0  0  0  0  0  0  0  0
   -6.1639    0.8049    0.0000 O   0  0  0  0  0  0  0  0  0  0  0  0
   -4.9761   -0.1112    0.0000 C   0  0  0  0  0  0  0  0  0  0  0  0
   -3.5889    0.4595    0.0000 C   0  0  0  0  0  0  0  0  0  0  0  0
   -3.3895    1.9462    0.0000 O   0  0  0  0  0  0  0  0  0  0  0  0
   -2.4011   -0.4565    0.0000 C   0  0  0  0  0  0  0  0  0  0  0  0
   -2.4440   -1.9559    0.0000 C   0  0  0  0  0  0  0  0  0  0  0  0
   -1.0312   -2.4600    0.0000 C   0  0  0  0  0  0  0  0  0  0  0  0
   -0.1152   -1.2722    0.0000 C   0  0  0  0  0  0  0  0  0  0  0  0
    1.3805   -1.1582    0.0000 C   0  0  0  0  0  0  0  0  0  0  0  0
    2.2271   -2.3964    0.0000 C   0  0  0  0  0  0  0  0  0  0  0  0
    3.7227   -2.2823    0.0000 C   0  0  0  0  0  0  0  0  0  0  0  0
    4.3718   -0.9300    0.0000 C   0  0  0  0  0  0  0  0  0  0  0  0
    5.8674   -0.8160    0.0000 C   0  0  0  0  0  0  0  0  0  0  0  0
    6.5165    0.5363    0.0000 C   0  0  0  0  0  0  0  0  0  0  0  0
    8.0121    0.6504    0.0000 O   0  0  0  0  0  0  0  0  0  0  0  0
    5.6699    1.7746    0.0000 C   0  0  0  0  0  0  0  0  0  0  0  0
    4.1742    1.6605    0.0000 C   0  0  0  0  0  0  0  0  0  0  0  0
    3.5252    0.3082    0.0000 C   0  0  0  0  0  0  0  0  0  0  0  0
    2.6785    1.5465    0.0000 C   0  0  0  0  0  0  0  0  0  0  0  0
    2.0295    0.1941    0.0000 C   0  0  0  0  0  0  0  0  0  0  0  0
    1.1829    1.4324    0.0000 C   0  0  0  0  0  0  0  0  0  0  0  0
   -0.3128    1.3183    0.0000 C   0  0  0  0  0  0  0  0  0  0  0  0
   -0.9618   -0.0340    0.0000 C   0  0  0  0  0  0  0  0  0  0  0  0
   -1.9332    1.1090    0.0000 C   0  0  0  0  0  0  0  0  0  0  0  0
  1  2  1  0
  2  3  2  0
  2  4  1  0
  4  5  1  0
  5  6  1  0
  6  7  2  0
  8  6  1  6
  8  9  1  0
  9 10  1  0
 11 10  1  6
 11 12  1  0
 12 13  1  1
 13 14  1  0
 15 14  1  6
 15 16  1  0
 16 17  1  0
 17 18  2  0
 17 19  1  0
 19 20  1  0
 20 21  1  0
 21 22  1  6
 21 23  1  0
 23 24  1  6
 24 25  1  0
 25 26  1  0
 26 27  1  6
 26  8  1  0
 26 11  1  0
 23 12  1  0
 21 15  1  0
M  END
>  <MS_ID>  (3153) 
MS3280

>  <SMILES>  (3153) 
CC(=O)OCC(=O)[C@H]1CC[C@H]2[C@@H]3CC[C@H]4CC(=O)CC[C@]4(C)[C@H]3CC[C@]12C

>  <Structure_dimension>  (3153) 
2D

$$$$
MS3282
     RDKit          2D

 25 28  0  0  0  0  0  0  0  0999 V2000
   -8.1142    0.7383    0.0000 C   0  0  0  0  0  0  0  0  0  0  0  0
   -6.7027    1.2458    0.0000 C   0  0  0  0  0  0  0  0  0  0  0  0
   -5.5574    0.2772    0.0000 C   0  0  0  0  0  0  0  0  0  0  0  0
   -5.8236   -1.1990    0.0000 O   0  0  0  0  0  0  0  0  0  0  0  0
   -4.1459    0.7848    0.0000 O   0  0  0  0  0  0  0  0  0  0  0  0
   -3.0005   -0.1838    0.0000 C   0  0  0  0  0  0  0  0  0  0  0  0
   -3.1110   -1.6798    0.0000 C   0  0  0  0  0  0  0  0  0  0  0  0
   -1.7224   -2.2470    0.0000 C   0  0  0  0  0  0  0  0  0  0  0  0
   -0.7538   -1.1017    0.0000 C   0  0  0  0  0  0  0  0  0  0  0  0
    0.7455   -1.0552    0.0000 C   0  0  0  0  0  0  0  0  0  0  0  0
    1.5355   -2.3303    0.0000 C   0  0  0  0  0  0  0  0  0  0  0  0
    3.0348   -2.2838    0.0000 C   0  0  0  0  0  0  0  0  0  0  0  0
    3.7441   -0.9621    0.0000 C   0  0  0  0  0  0  0  0  0  0  0  0
    5.2434   -0.9155    0.0000 C   0  0  0  0  0  0  0  0  0  0  0  0
    5.9527    0.4062    0.0000 C   0  0  0  0  0  0  0  0  0  0  0  0
    7.4520    0.4527    0.0000 O   0  0  0  0  0  0  0  0  0  0  0  0
    5.1627    1.6813    0.0000 C   0  0  0  0  0  0  0  0  0  0  0  0
    3.6635    1.6348    0.0000 C   0  0  0  0  0  0  0  0  0  0  0  0
    2.9541    0.3131    0.0000 C   0  0  0  0  0  0  0  0  0  0  0  0
    2.1642    1.5882    0.0000 C   0  0  0  0  0  0  0  0  0  0  0  0
    1.4549    0.2665    0.0000 C   0  0  0  0  0  0  0  0  0  0  0  0
    0.6649    1.5417    0.0000 C   0  0  0  0  0  0  0  0  0  0  0  0
   -0.8344    1.4951    0.0000 C   0  0  0  0  0  0  0  0  0  0  0  0
   -1.5437    0.1734    0.0000 C   0  0  0  0  0  0  0  0  0  0  0  0
   -2.4626    1.3590    0.0000 C   0  0  0  0  0  0  0  0  0  0  0  0
  1  2  1  0
  2  3  1  0
  3  4  2  0
  3  5  1  0
  6  5  1  6
  6  7  1  0
  7  8  1  0
  9  8  1  6
  9 10  1  0
 10 11  1  1
 11 12  1  0
 13 12  1  1
 13 14  1  0
 14 15  1  0
 15 16  1  1
 15 17  1  0
 17 18  1  0
 18 19  1  0
 19 20  1  6
 19 21  1  0
 21 22  1  6
 22 23  1  0
 23 24  1  0
 24 25  1  6
 24  6  1  0
 24  9  1  0
 21 10  1  0
 19 13  1  0
M  END
>  <MS_ID>  (3154) 
MS3282

>  <SMILES>  (3154) 
CCC(=O)O[C@H]1CC[C@H]2[C@@H]3CC[C@@H]4C[C@H](O)CC[C@]4(C)[C@H]3CC[C@]12C

>  <Structure_dimension>  (3154) 
2D

$$$$
MS3283
     RDKit          2D

 22 25  0  0  0  0  0  0  0  0999 V2000
    1.0682   -1.4958    0.0000 C   0  0  0  0  0  0  0  0  0  0  0  0
    1.8403   -0.2098    0.0000 C   0  0  0  0  0  0  0  0  0  0  0  0
    2.5680   -1.5214    0.0000 C   0  0  0  0  0  0  0  0  0  0  0  0
    4.0677   -1.5471    0.0000 C   0  0  0  0  0  0  0  0  0  0  0  0
    4.8398   -0.2610    0.0000 C   0  0  0  0  0  0  0  0  0  0  0  0
    6.3396   -0.2866    0.0000 O   0  0  0  0  0  0  0  0  0  0  0  0
    4.1121    1.0506    0.0000 C   0  0  0  0  0  0  0  0  0  0  0  0
    2.6123    1.0763    0.0000 C   0  0  0  0  0  0  0  0  0  0  0  0
    1.8846    2.3879    0.0000 C   0  0  0  0  0  0  0  0  0  0  0  0
    0.3849    2.4135    0.0000 C   0  0  0  0  0  0  0  0  0  0  0  0
   -0.3872    1.1275    0.0000 C   0  0  0  0  0  0  0  0  0  0  0  0
    0.3405   -0.1842    0.0000 C   0  0  0  0  0  0  0  0  0  0  0  0
   -0.4316   -1.4702    0.0000 C   0  0  0  0  0  0  0  0  0  0  0  0
   -1.9314   -1.4446    0.0000 C   0  0  0  0  0  0  0  0  0  0  0  0
   -2.7035   -2.7306    0.0000 O   0  0  0  0  0  0  0  0  0  0  0  0
   -2.6591   -0.1329    0.0000 C   0  0  0  0  0  0  0  0  0  0  0  0
   -3.5614   -1.3312    0.0000 C   0  0  0  0  0  0  0  0  0  0  0  0
   -4.1208    0.2040    0.0000 C   0  0  0  0  0  0  0  0  0  0  0  0
   -5.2525   -0.7805    0.0000 O   0  0  0  0  0  0  0  0  0  0  0  0
   -4.2521    1.6982    0.0000 C   0  0  0  0  0  0  0  0  0  0  0  0
   -2.8715    2.2848    0.0000 C   0  0  0  0  0  0  0  0  0  0  0  0
   -1.8870    1.1531    0.0000 C   0  0  0  0  0  0  0  0  0  0  0  0
  2  1  1  1
  2  3  1  0
  3  4  1  0
  4  5  1  0
  5  6  2  0
  5  7  1  0
  8  7  1  6
  8  9  1  0
  9 10  1  0
 11 10  1  6
 11 12  1  0
 12 13  1  1
 13 14  1  0
 14 15  1  1
 14 16  1  0
 16 17  1  1
 16 18  1  0
 18 19  1  1
 18 20  1  0
 20 21  1  0
 22 21  1  1
  8  2  1  0
 22 11  1  0
 12  2  1  0
 22 16  1  0
M  END
>  <MS_ID>  (3155) 
MS3283

>  <SMILES>  (3155) 
C[C@]12CCC(=O)C[C@H]1CC[C@@H]1[C@@H]2C[C@@H](O)[C@]2(C)[C@@H](O)CC[C@@H]12

>  <Structure_dimension>  (3155) 
2D

$$$$
MS3285
     RDKit          2D

 29 32  0  0  0  0  0  0  0  0999 V2000
   -4.5495   -2.5275    0.0000 C   0  0  0  0  0  0  0  0  0  0  0  0
   -3.4499   -1.5073    0.0000 C   0  0  0  0  0  0  0  0  0  0  0  0
   -3.7837   -0.0449    0.0000 C   0  0  0  0  0  0  0  0  0  0  0  0
   -5.2171    0.3972    0.0000 C   0  0  0  0  0  0  0  0  0  0  0  0
   -5.5509    1.8596    0.0000 C   0  0  0  0  0  0  0  0  0  0  0  0
   -6.9843    2.3017    0.0000 C   0  0  0  0  0  0  0  0  0  0  0  0
   -8.0838    1.2815    0.0000 O   0  0  0  0  0  0  0  0  0  0  0  0
   -7.3181    3.7641    0.0000 O   0  0  0  0  0  0  0  0  0  0  0  0
   -2.0166   -1.9494    0.0000 C   0  0  0  0  0  0  0  0  0  0  0  0
   -1.5317   -3.3689    0.0000 C   0  0  0  0  0  0  0  0  0  0  0  0
   -0.0319   -3.3464    0.0000 C   0  0  0  0  0  0  0  0  0  0  0  0
    0.4102   -1.9130    0.0000 C   0  0  0  0  0  0  0  0  0  0  0  0
    1.7712   -1.2825    0.0000 C   0  0  0  0  0  0  0  0  0  0  0  0
    2.9978   -2.1459    0.0000 C   0  0  0  0  0  0  0  0  0  0  0  0
    2.8634   -3.6398    0.0000 O   0  0  0  0  0  0  0  0  0  0  0  0
    4.3589   -1.5153    0.0000 C   0  0  0  0  0  0  0  0  0  0  0  0
    4.4933   -0.0214    0.0000 C   0  0  0  0  0  0  0  0  0  0  0  0
    5.8543    0.6092    0.0000 C   0  0  0  0  0  0  0  0  0  0  0  0
    5.9888    2.1032    0.0000 C   0  0  0  0  0  0  0  0  0  0  0  0
    7.3498    2.7337    0.0000 O   0  0  0  0  0  0  0  0  0  0  0  0
    4.7622    2.9666    0.0000 C   0  0  0  0  0  0  0  0  0  0  0  0
    3.4011    2.3360    0.0000 C   0  0  0  0  0  0  0  0  0  0  0  0
    3.2667    0.8420    0.0000 C   0  0  0  0  0  0  0  0  0  0  0  0
    2.0401    1.7055    0.0000 C   0  0  0  0  0  0  0  0  0  0  0  0
    1.9057    0.2115    0.0000 C   0  0  0  0  0  0  0  0  0  0  0  0
    0.6791    1.0749    0.0000 C   0  0  0  0  0  0  0  0  0  0  0  0
   -0.6820    0.4443    0.0000 C   0  0  0  0  0  0  0  0  0  0  0  0
   -0.8164   -1.0496    0.0000 C   0  0  0  0  0  0  0  0  0  0  0  0
   -2.1265   -0.3192    0.0000 C   0  0  0  0  0  0  0  0  0  0  0  0
  2  1  1  6
  2  3  1  0
  3  4  1  0
  4  5  1  0
  5  6  1  0
  6  7  2  0
  6  8  1  0
  2  9  1  0
  9 10  1  6
 10 11  1  0
 12 11  1  6
 12 13  1  0
 13 14  1  1
 14 15  1  6
 14 16  1  0
 17 16  1  1
 17 18  1  0
 18 19  1  0
 19 20  1  1
 19 21  1  0
 21 22  1  0
 22 23  1  0
 23 24  1  6
 23 25  1  0
 25 26  1  6
 26 27  1  0
 27 28  1  0
 28 29  1  6
 28  9  1  0
 28 12  1  0
 25 13  1  0
 23 17  1  0
M  END
>  <MS_ID>  (3156) 
MS3285

>  <SMILES>  (3156) 
C[C@H](CCCC(=O)O)[C@H]1CC[C@H]2[C@@H]3[C@@H](O)C[C@@H]4C[C@H](O)CC[C@]4(C)[C@H]3CC[C@]12C

>  <Structure_dimension>  (3156) 
2D

$$$$
MS3286
     RDKit          2D

 36 39  0  0  0  0  0  0  0  0999 V2000
   -1.3945   -4.5616    0.0000 C   0  0  0  0  0  0  0  0  0  0  0  0
   -0.7955   -3.1864    0.0000 C   0  0  0  0  0  0  0  0  0  0  0  0
   -1.6869   -1.9800    0.0000 C   0  0  0  0  0  0  0  0  0  0  0  0
   -3.1773   -2.1488    0.0000 C   0  0  0  0  0  0  0  0  0  0  0  0
   -4.0687   -0.9424    0.0000 C   0  0  0  0  0  0  0  0  0  0  0  0
   -3.4697    0.4328    0.0000 O   0  0  0  0  0  0  0  0  0  0  0  0
   -5.5592   -1.1111    0.0000 N   0  0  0  0  0  0  0  0  0  0  0  0
   -6.4506    0.0953    0.0000 C   0  0  0  0  0  0  0  0  0  0  0  0
   -7.9411   -0.0735    0.0000 C   0  0  0  0  0  0  0  0  0  0  0  0
   -8.8325    1.1329    0.0000 C   0  0  0  0  0  0  0  0  0  0  0  0
  -10.3230    0.9641    0.0000 C   0  0  0  0  0  0  0  0  0  0  0  0
  -11.2144    2.1705    0.0000 C   0  0  0  0  0  0  0  0  0  0  0  0
  -10.6153    3.5457    0.0000 O   0  0  0  0  0  0  0  0  0  0  0  0
  -12.7048    2.0017    0.0000 O   0  0  0  0  0  0  0  0  0  0  0  0
    0.6950   -3.0176    0.0000 C   0  0  0  0  0  0  0  0  0  0  0  0
    1.7076   -4.1242    0.0000 C   0  0  0  0  0  0  0  0  0  0  0  0
    3.0730   -3.5031    0.0000 C   0  0  0  0  0  0  0  0  0  0  0  0
    2.9042   -2.0127    0.0000 C   0  0  0  0  0  0  0  0  0  0  0  0
    3.8989   -0.8899    0.0000 C   0  0  0  0  0  0  0  0  0  0  0  0
    5.3686   -1.1900    0.0000 C   0  0  0  0  0  0  0  0  0  0  0  0
    5.8436   -2.6128    0.0000 O   0  0  0  0  0  0  0  0  0  0  0  0
    6.3633   -0.0672    0.0000 C   0  0  0  0  0  0  0  0  0  0  0  0
    7.8330   -0.3673    0.0000 O   0  0  0  0  0  0  0  0  0  0  0  0
    5.8884    1.3556    0.0000 C   0  0  0  0  0  0  0  0  0  0  0  0
    6.8831    2.4783    0.0000 C   0  0  0  0  0  0  0  0  0  0  0  0
    6.4081    3.9011    0.0000 C   0  0  0  0  0  0  0  0  0  0  0  0
    7.4028    5.0239    0.0000 O   0  0  0  0  0  0  0  0  0  0  0  0
    4.9384    4.2012    0.0000 C   0  0  0  0  0  0  0  0  0  0  0  0
    3.9437    3.0785    0.0000 C   0  0  0  0  0  0  0  0  0  0  0  0
    4.4187    1.6556    0.0000 C   0  0  0  0  0  0  0  0  0  0  0  0
    2.9490    1.9557    0.0000 C   0  0  0  0  0  0  0  0  0  0  0  0
    3.4240    0.5329    0.0000 C   0  0  0  0  0  0  0  0  0  0  0  0
    1.9543    0.8330    0.0000 C   0  0  0  0  0  0  0  0  0  0  0  0
    0.9596   -0.2898    0.0000 C   0  0  0  0  0  0  0  0  0  0  0  0
    1.4346   -1.7126    0.0000 C   0  0  0  0  0  0  0  0  0  0  0  0
   -0.0584   -1.5678    0.0000 C   0  0  0  0  0  0  0  0  0  0  0  0
  2  1  1  6
  2  3  1  0
  3  4  1  0
  4  5  1  0
  5  6  2  0
  5  7  1  0
  7  8  1  0
  8  9  1  0
  9 10  1  0
 10 11  1  0
 11 12  1  0
 12 13  2  0
 12 14  1  0
  2 15  1  0
 15 16  1  6
 16 17  1  0
 18 17  1  6
 18 19  1  0
 19 20  1  1
 20 21  1  6
 20 22  1  0
 22 23  1  6
 22 24  1  0
 24 25  1  1
 25 26  1  0
 26 27  1  1
 26 28  1  0
 28 29  1  0
 29 30  1  0
 30 31  1  6
 30 32  1  0
 32 33  1  6
 33 34  1  0
 34 35  1  0
 35 36  1  6
 35 15  1  0
 35 18  1  0
 32 19  1  0
 30 24  1  0
M  END
>  <MS_ID>  (3157) 
MS3286

>  <SMILES>  (3157) 
C[C@H](CCC(=O)NCCCCC(=O)O)[C@H]1CC[C@H]2[C@@H]3[C@@H](O)[C@@H](O)[C@@H]4C[C@H](O)CC[C@]4(C)[C@H]3CC[C@]12C

>  <Structure_dimension>  (3157) 
2D

$$$$
MS3287
     RDKit          2D

 31 36  0  0  0  0  0  0  0  0999 V2000
   -8.8610   -0.1587    0.0000 C   0  0  0  0  0  0  0  0  0  0  0  0
   -7.3693   -0.0009    0.0000 C   0  0  0  0  0  0  0  0  0  0  0  0
   -6.7601    1.3698    0.0000 C   0  0  0  0  0  0  0  0  0  0  0  0
   -5.2685    1.5276    0.0000 C   0  0  0  0  0  0  0  0  0  0  0  0
   -4.3860    0.3147    0.0000 C   0  0  0  0  0  0  0  0  0  0  0  0
   -4.9952   -1.0560    0.0000 O   0  0  0  0  0  0  0  0  0  0  0  0
   -6.4869   -1.2138    0.0000 C   0  0  0  0  0  0  0  0  0  0  0  0
   -3.6368    1.6142    0.0000 O   0  0  0  0  0  0  0  0  0  0  0  0
   -2.1694    1.3033    0.0000 C   0  0  0  0  0  0  0  0  0  0  0  0
   -0.7995    1.9143    0.0000 C   0  0  0  0  0  0  0  0  0  0  0  0
    0.2049    0.8003    0.0000 C   0  0  0  0  0  0  0  0  0  0  0  0
    1.7049    0.8013    0.0000 C   0  0  0  0  0  0  0  0  0  0  0  0
    2.4541    2.1008    0.0000 C   0  0  0  0  0  0  0  0  0  0  0  0
    3.9541    2.1018    0.0000 C   0  0  0  0  0  0  0  0  0  0  0  0
    4.7032    3.4013    0.0000 O   0  0  0  0  0  0  0  0  0  0  0  0
    4.7049    0.8032    0.0000 C   0  0  0  0  0  0  0  0  0  0  0  0
    6.2049    0.8042    0.0000 C   0  0  0  0  0  0  0  0  0  0  0  0
    6.9558   -0.4943    0.0000 C   0  0  0  0  0  0  0  0  0  0  0  0
    8.4558   -0.4933    0.0000 O   0  0  0  0  0  0  0  0  0  0  0  0
    6.2067   -1.7938    0.0000 C   0  0  0  0  0  0  0  0  0  0  0  0
    4.7067   -1.7948    0.0000 C   0  0  0  0  0  0  0  0  0  0  0  0
    3.9558   -0.4963    0.0000 C   0  0  0  0  0  0  0  0  0  0  0  0
    3.2067   -1.7958    0.0000 C   0  0  0  0  0  0  0  0  0  0  0  0
    2.4558   -0.4973    0.0000 C   0  0  0  0  0  0  0  0  0  0  0  0
    1.7067   -1.7968    0.0000 C   0  0  0  0  0  0  0  0  0  0  0  0
    0.2067   -1.7978    0.0000 C   0  0  0  0  0  0  0  0  0  0  0  0
   -0.5442   -0.4993    0.0000 C   0  0  0  0  0  0  0  0  0  0  0  0
   -1.4251   -1.7134    0.0000 C   0  0  0  0  0  0  0  0  0  0  0  0
   -2.0116   -0.1884    0.0000 C   0  0  0  0  0  0  0  0  0  0  0  0
   -3.3815   -0.7994    0.0000 C   0  0  0  0  0  0  0  0  0  0  0  0
   -3.6924   -2.2668    0.0000 C   0  0  0  0  0  0  0  0  0  0  0  0
  2  1  1  1
  2  3  1  0
  3  4  1  0
  5  4  1  1
  5  6  1  0
  6  7  1  0
  5  8  1  0
  8  9  1  0
  9 10  1  6
 11 10  1  1
 11 12  1  0
 12 13  1  6
 13 14  1  0
 14 15  1  6
 14 16  1  0
 16 17  1  1
 17 18  1  0
 18 19  1  1
 18 20  1  0
 20 21  1  0
 21 22  1  0
 22 23  1  1
 22 24  1  0
 24 25  1  1
 25 26  1  0
 26 27  1  0
 27 28  1  1
 27 29  1  0
 29 30  1  0
 30 31  1  6
  7  2  1  0
 29  9  1  1
 30  5  1  0
 27 11  1  0
 24 12  1  0
 22 16  1  0
M  END
>  <MS_ID>  (3158) 
MS3287

>  <SMILES>  (3158) 
C[C@H]1CC[C@@]2(OC1)O[C@@H]1C[C@H]3[C@@H]4C[C@H](O)[C@H]5C[C@@H](O)CC[C@]5(C)[C@H]4CC[C@]3(C)[C@H]1[C@@H]2C

>  <Structure_dimension>  (3158) 
2D

$$$$
MS3288
     RDKit          2D

 23 26  0  0  0  0  0  0  0  0999 V2000
   -6.2880    0.1477    0.0000 C   0  0  0  0  0  0  0  0  0  0  0  0
   -4.8818    0.6700    0.0000 C   0  0  0  0  0  0  0  0  0  0  0  0
   -4.6310    2.1488    0.0000 O   0  0  0  0  0  0  0  0  0  0  0  0
   -3.7265   -0.2867    0.0000 C   0  0  0  0  0  0  0  0  0  0  0  0
   -3.8214   -1.7837    0.0000 C   0  0  0  0  0  0  0  0  0  0  0  0
   -2.4270   -2.3365    0.0000 C   0  0  0  0  0  0  0  0  0  0  0  0
   -1.4703   -1.1812    0.0000 C   0  0  0  0  0  0  0  0  0  0  0  0
    0.0284   -1.1191    0.0000 C   0  0  0  0  0  0  0  0  0  0  0  0
    0.8316   -2.3860    0.0000 C   0  0  0  0  0  0  0  0  0  0  0  0
    2.3303   -2.3238    0.0000 C   0  0  0  0  0  0  0  0  0  0  0  0
    3.0258   -0.9949    0.0000 C   0  0  0  0  0  0  0  0  0  0  0  0
    4.5246   -0.9327    0.0000 C   0  0  0  0  0  0  0  0  0  0  0  0
    5.2201    0.3962    0.0000 C   0  0  0  0  0  0  0  0  0  0  0  0
    6.7188    0.4584    0.0000 N   0  0  0  0  0  0  0  0  0  0  0  0
    4.4170    1.6631    0.0000 C   0  0  0  0  0  0  0  0  0  0  0  0
    2.9183    1.6010    0.0000 C   0  0  0  0  0  0  0  0  0  0  0  0
    2.2227    0.2720    0.0000 C   0  0  0  0  0  0  0  0  0  0  0  0
    1.4195    1.5389    0.0000 C   0  0  0  0  0  0  0  0  0  0  0  0
    0.7240    0.2099    0.0000 C   0  0  0  0  0  0  0  0  0  0  0  0
   -0.0792    1.4768    0.0000 C   0  0  0  0  0  0  0  0  0  0  0  0
   -1.5779    1.4146    0.0000 C   0  0  0  0  0  0  0  0  0  0  0  0
   -2.2734    0.0856    0.0000 C   0  0  0  0  0  0  0  0  0  0  0  0
   -3.2046    1.2616    0.0000 C   0  0  0  0  0  0  0  0  0  0  0  0
  1  2  1  0
  2  3  2  0
  4  2  1  6
  4  5  1  0
  5  6  1  0
  7  6  1  6
  7  8  1  0
  8  9  1  1
  9 10  1  0
 11 10  1  1
 11 12  1  0
 12 13  1  0
 13 14  1  1
 13 15  1  0
 15 16  1  0
 16 17  1  0
 17 18  1  6
 17 19  1  0
 19 20  1  6
 20 21  1  0
 21 22  1  0
 22 23  1  6
 22  4  1  0
 22  7  1  0
 19  8  1  0
 17 11  1  0
M  END
>  <MS_ID>  (3159) 
MS3288

>  <SMILES>  (3159) 
CC(=O)[C@H]1CC[C@H]2[C@@H]3CC[C@@H]4C[C@H](N)CC[C@]4(C)[C@H]3CC[C@]12C

>  <Structure_dimension>  (3159) 
2D

$$$$
MS3289
     RDKit          2D

 42 47  0  0  0  0  0  0  0  0999 V2000
    0.4755   -4.8298    0.0000 C   0  0  0  0  0  0  0  0  0  0  0  0
    1.0075   -3.4274    0.0000 C   0  0  0  0  0  0  0  0  0  0  0  0
    0.0589   -2.2654    0.0000 C   0  0  0  0  0  0  0  0  0  0  0  0
   -1.4217   -2.5059    0.0000 C   0  0  0  0  0  0  0  0  0  0  0  0
   -2.3703   -1.3440    0.0000 C   0  0  0  0  0  0  0  0  0  0  0  0
   -1.8383    0.0585    0.0000 O   0  0  0  0  0  0  0  0  0  0  0  0
   -3.8509   -1.5845    0.0000 N   0  0  0  0  0  0  0  0  0  0  0  0
   -4.7995   -0.4226    0.0000 C   0  0  0  0  0  0  0  0  0  0  0  0
   -6.2801   -0.6631    0.0000 C   0  0  0  0  0  0  0  0  0  0  0  0
   -7.2287    0.4989    0.0000 C   0  0  0  0  0  0  0  0  0  0  0  0
   -6.8462    1.9493    0.0000 C   0  0  0  0  0  0  0  0  0  0  0  0
   -8.1075    2.7612    0.0000 N   0  0  0  0  0  0  0  0  0  0  0  0
   -9.2694    1.8126    0.0000 C   0  0  0  0  0  0  0  0  0  0  0  0
  -10.7519    2.0414    0.0000 C   0  0  0  0  0  0  0  0  0  0  0  0
  -11.6912    0.8719    0.0000 C   0  0  0  0  0  0  0  0  0  0  0  0
  -11.1481   -0.5263    0.0000 C   0  0  0  0  0  0  0  0  0  0  0  0
   -9.6656   -0.7550    0.0000 C   0  0  0  0  0  0  0  0  0  0  0  0
   -8.7263    0.4144    0.0000 C   0  0  0  0  0  0  0  0  0  0  0  0
   -4.2675    0.9799    0.0000 C   0  0  0  0  0  0  0  0  0  0  0  0
   -2.7869    1.2205    0.0000 O   0  0  0  0  0  0  0  0  0  0  0  0
   -5.2161    2.1419    0.0000 O   0  0  0  0  0  0  0  0  0  0  0  0
    2.4881   -3.1868    0.0000 C   0  0  0  0  0  0  0  0  0  0  0  0
    3.5530   -4.2433    0.0000 C   0  0  0  0  0  0  0  0  0  0  0  0
    4.8868   -3.5570    0.0000 C   0  0  0  0  0  0  0  0  0  0  0  0
    4.6462   -2.0764    0.0000 C   0  0  0  0  0  0  0  0  0  0  0  0
    5.5856   -0.9069    0.0000 C   0  0  0  0  0  0  0  0  0  0  0  0
    7.0680   -1.1357    0.0000 C   0  0  0  0  0  0  0  0  0  0  0  0
    7.6111   -2.5339    0.0000 O   0  0  0  0  0  0  0  0  0  0  0  0
    8.0073    0.0338    0.0000 C   0  0  0  0  0  0  0  0  0  0  0  0
    7.4642    1.4320    0.0000 C   0  0  0  0  0  0  0  0  0  0  0  0
    8.4036    2.6015    0.0000 C   0  0  0  0  0  0  0  0  0  0  0  0
    7.8605    3.9997    0.0000 C   0  0  0  0  0  0  0  0  0  0  0  0
    8.7998    5.1692    0.0000 O   0  0  0  0  0  0  0  0  0  0  0  0
    6.3780    4.2285    0.0000 C   0  0  0  0  0  0  0  0  0  0  0  0
    5.4387    3.0590    0.0000 C   0  0  0  0  0  0  0  0  0  0  0  0
    5.9818    1.6608    0.0000 C   0  0  0  0  0  0  0  0  0  0  0  0
    4.4993    1.8895    0.0000 C   0  0  0  0  0  0  0  0  0  0  0  0
    5.0424    0.4913    0.0000 C   0  0  0  0  0  0  0  0  0  0  0  0
    3.5600    0.7201    0.0000 C   0  0  0  0  0  0  0  0  0  0  0  0
    2.6206   -0.4494    0.0000 C   0  0  0  0  0  0  0  0  0  0  0  0
    3.1638   -1.8476    0.0000 C   0  0  0  0  0  0  0  0  0  0  0  0
    1.6655   -1.7751    0.0000 C   0  0  0  0  0  0  0  0  0  0  0  0
  2  1  1  6
  2  3  1  0
  3  4  1  0
  4  5  1  0
  5  6  2  0
  5  7  1  0
  7  8  1  0
  8  9  1  1
  9 10  1  0
 10 11  2  0
 11 12  1  0
 12 13  1  0
 13 14  2  0
 14 15  1  0
 15 16  2  0
 16 17  1  0
 17 18  2  0
  8 19  1  0
 19 20  2  0
 19 21  1  0
  2 22  1  0
 22 23  1  6
 23 24  1  0
 25 24  1  6
 25 26  1  0
 26 27  1  1
 27 28  1  6
 27 29  1  0
 30 29  1  1
 30 31  1  0
 31 32  1  0
 32 33  1  1
 32 34  1  0
 34 35  1  0
 35 36  1  0
 36 37  1  6
 36 38  1  0
 38 39  1  6
 39 40  1  0
 40 41  1  0
 41 42  1  6
 18 10  1  0
 41 22  1  0
 18 13  1  0
 41 25  1  0
 38 26  1  0
 36 30  1  0
M  END
>  <MS_ID>  (3160) 
MS3289

>  <SMILES>  (3160) 
C[C@H](CCC(=O)N[C@@H](Cc1c[nH]c2ccccc12)C(=O)O)[C@H]1CC[C@H]2[C@@H]3[C@@H](O)C[C@@H]4C[C@H](O)CC[C@]4(C)[C@H]3CC[C@]12C

>  <Structure_dimension>  (3160) 
2D

$$$$
MS3290
     RDKit          2D

 24 27  0  0  0  0  0  0  0  0999 V2000
   -7.1591    0.8654    0.0000 C   0  0  0  0  0  0  0  0  0  0  0  0
   -5.9784   -0.0597    0.0000 C   0  0  0  0  0  0  0  0  0  0  0  0
   -4.5869    0.5003    0.0000 C   0  0  0  0  0  0  0  0  0  0  0  0
   -4.3760    1.9854    0.0000 O   0  0  0  0  0  0  0  0  0  0  0  0
   -3.4061   -0.4248    0.0000 C   0  0  0  0  0  0  0  0  0  0  0  0
   -3.4606   -1.9239    0.0000 C   0  0  0  0  0  0  0  0  0  0  0  0
   -2.0517   -2.4388    0.0000 C   0  0  0  0  0  0  0  0  0  0  0  0
   -1.1266   -1.2581    0.0000 C   0  0  0  0  0  0  0  0  0  0  0  0
    0.3699   -1.1555    0.0000 C   0  0  0  0  0  0  0  0  0  0  0  0
    1.2070   -2.4003    0.0000 C   0  0  0  0  0  0  0  0  0  0  0  0
    2.7034   -2.2977    0.0000 C   0  0  0  0  0  0  0  0  0  0  0  0
    3.3629   -0.9504    0.0000 C   0  0  0  0  0  0  0  0  0  0  0  0
    4.8594   -0.8479    0.0000 C   0  0  0  0  0  0  0  0  0  0  0  0
    5.5188    0.4994    0.0000 C   0  0  0  0  0  0  0  0  0  0  0  0
    7.0153    0.6020    0.0000 O   0  0  0  0  0  0  0  0  0  0  0  0
    4.6817    1.7441    0.0000 C   0  0  0  0  0  0  0  0  0  0  0  0
    3.1852    1.6416    0.0000 C   0  0  0  0  0  0  0  0  0  0  0  0
    2.5258    0.2943    0.0000 C   0  0  0  0  0  0  0  0  0  0  0  0
    1.6887    1.5390    0.0000 C   0  0  0  0  0  0  0  0  0  0  0  0
    1.0293    0.1917    0.0000 C   0  0  0  0  0  0  0  0  0  0  0  0
    0.1923    1.4364    0.0000 C   0  0  0  0  0  0  0  0  0  0  0  0
   -1.3042    1.3339    0.0000 C   0  0  0  0  0  0  0  0  0  0  0  0
   -1.9637   -0.0134    0.0000 C   0  0  0  0  0  0  0  0  0  0  0  0
   -2.9262    1.1370    0.0000 C   0  0  0  0  0  0  0  0  0  0  0  0
  1  2  1  0
  2  3  1  0
  3  4  1  6
  3  5  1  0
  5  6  1  6
  6  7  1  0
  8  7  1  6
  8  9  1  0
  9 10  1  1
 10 11  1  0
 12 11  1  1
 12 13  1  0
 13 14  1  0
 14 15  1  1
 14 16  1  0
 16 17  1  0
 17 18  1  0
 18 19  1  6
 18 20  1  0
 20 21  1  6
 21 22  1  0
 22 23  1  0
 23 24  1  6
 23  5  1  0
 23  8  1  0
 20  9  1  0
 18 12  1  0
M  END
>  <MS_ID>  (3161) 
MS3290

>  <SMILES>  (3161) 
CC[C@H](O)[C@H]1CC[C@H]2[C@@H]3CC[C@@H]4C[C@H](O)CC[C@]4(C)[C@H]3CC[C@]12C

>  <Structure_dimension>  (3161) 
2D

$$$$
MS3291
     RDKit          2D

 36 39  0  0  0  0  0  0  0  0999 V2000
   -1.5380   -4.5198    0.0000 C   0  0  0  0  0  0  0  0  0  0  0  0
   -0.8838   -3.1700    0.0000 C   0  0  0  0  0  0  0  0  0  0  0  0
   -1.7256   -1.9285    0.0000 C   0  0  0  0  0  0  0  0  0  0  0  0
   -3.2217   -2.0368    0.0000 C   0  0  0  0  0  0  0  0  0  0  0  0
   -4.0635   -0.7953    0.0000 C   0  0  0  0  0  0  0  0  0  0  0  0
   -3.4092    0.5545    0.0000 O   0  0  0  0  0  0  0  0  0  0  0  0
   -5.5596   -0.9036    0.0000 N   0  0  0  0  0  0  0  0  0  0  0  0
   -6.4014    0.3379    0.0000 C   0  0  0  0  0  0  0  0  0  0  0  0
   -7.8975    0.2297    0.0000 C   0  0  0  0  0  0  0  0  0  0  0  0
   -8.7393    1.4712    0.0000 C   0  0  0  0  0  0  0  0  0  0  0  0
  -10.2354    1.3629    0.0000 C   0  0  0  0  0  0  0  0  0  0  0  0
  -11.0772    2.6044    0.0000 N   0  0  0  0  0  0  0  0  0  0  0  0
   -5.7471    1.6877    0.0000 C   0  0  0  0  0  0  0  0  0  0  0  0
   -4.2510    1.7960    0.0000 O   0  0  0  0  0  0  0  0  0  0  0  0
   -6.5889    2.9292    0.0000 O   0  0  0  0  0  0  0  0  0  0  0  0
    0.6123   -3.0618    0.0000 C   0  0  0  0  0  0  0  0  0  0  0  0
    1.5793   -4.2085    0.0000 C   0  0  0  0  0  0  0  0  0  0  0  0
    2.9687   -3.6432    0.0000 C   0  0  0  0  0  0  0  0  0  0  0  0
    2.8604   -2.1471    0.0000 C   0  0  0  0  0  0  0  0  0  0  0  0
    3.8998   -1.0656    0.0000 C   0  0  0  0  0  0  0  0  0  0  0  0
    5.3561   -1.4249    0.0000 C   0  0  0  0  0  0  0  0  0  0  0  0
    5.7731   -2.8658    0.0000 O   0  0  0  0  0  0  0  0  0  0  0  0
    6.3955   -0.3434    0.0000 C   0  0  0  0  0  0  0  0  0  0  0  0
    5.9785    1.0975    0.0000 C   0  0  0  0  0  0  0  0  0  0  0  0
    7.0179    2.1791    0.0000 C   0  0  0  0  0  0  0  0  0  0  0  0
    6.6009    3.6199    0.0000 C   0  0  0  0  0  0  0  0  0  0  0  0
    7.6402    4.7015    0.0000 O   0  0  0  0  0  0  0  0  0  0  0  0
    5.1446    3.9793    0.0000 C   0  0  0  0  0  0  0  0  0  0  0  0
    4.1052    2.8977    0.0000 C   0  0  0  0  0  0  0  0  0  0  0  0
    4.5222    1.4569    0.0000 C   0  0  0  0  0  0  0  0  0  0  0  0
    3.0658    1.8162    0.0000 C   0  0  0  0  0  0  0  0  0  0  0  0
    3.4828    0.3753    0.0000 C   0  0  0  0  0  0  0  0  0  0  0  0
    2.0265    0.7347    0.0000 C   0  0  0  0  0  0  0  0  0  0  0  0
    0.9871   -0.3469    0.0000 C   0  0  0  0  0  0  0  0  0  0  0  0
    1.4041   -1.7878    0.0000 C   0  0  0  0  0  0  0  0  0  0  0  0
   -0.0818   -1.5826    0.0000 C   0  0  0  0  0  0  0  0  0  0  0  0
  2  1  1  6
  2  3  1  0
  3  4  1  0
  4  5  1  0
  5  6  2  0
  5  7  1  0
  7  8  1  0
  8  9  1  1
  9 10  1  0
 10 11  1  0
 11 12  1  0
  8 13  1  0
 13 14  2  0
 13 15  1  0
  2 16  1  0
 16 17  1  6
 17 18  1  0
 19 18  1  6
 19 20  1  0
 20 21  1  1
 21 22  1  1
 21 23  1  0
 24 23  1  1
 24 25  1  0
 25 26  1  0
 26 27  1  1
 26 28  1  0
 28 29  1  0
 29 30  1  0
 30 31  1  6
 30 32  1  0
 32 33  1  6
 33 34  1  0
 34 35  1  0
 35 36  1  6
 35 16  1  0
 35 19  1  0
 32 20  1  0
 30 24  1  0
M  END
>  <MS_ID>  (3162) 
MS3291

>  <SMILES>  (3162) 
C[C@H](CCC(=O)N[C@@H](CCCN)C(=O)O)[C@H]1CC[C@H]2[C@@H]3[C@H](O)C[C@@H]4C[C@H](O)CC[C@]4(C)[C@H]3CC[C@]12C

>  <Structure_dimension>  (3162) 
2D

$$$$
MS3292
     RDKit          2D

 23 26  0  0  0  0  0  0  0  0999 V2000
   -5.2305    0.9812    0.0000 C   0  0  0  0  0  0  0  0  0  0  0  0
   -4.1061   -0.0117    0.0000 C   0  0  0  0  0  0  0  0  0  0  0  0
   -4.2484   -1.5049    0.0000 C   0  0  0  0  0  0  0  0  0  0  0  0
   -2.8722   -2.1017    0.0000 C   0  0  0  0  0  0  0  0  0  0  0  0
   -1.8794   -0.9773    0.0000 C   0  0  0  0  0  0  0  0  0  0  0  0
   -0.3794   -0.9628    0.0000 C   0  0  0  0  0  0  0  0  0  0  0  0
    0.3831   -2.2545    0.0000 C   0  0  0  0  0  0  0  0  0  0  0  0
   -0.3542   -3.5607    0.0000 O   0  0  0  0  0  0  0  0  0  0  0  0
    1.8831   -2.2399    0.0000 C   0  0  0  0  0  0  0  0  0  0  0  0
    2.6204   -0.9337    0.0000 C   0  0  0  0  0  0  0  0  0  0  0  0
    4.1203   -0.9191    0.0000 C   0  0  0  0  0  0  0  0  0  0  0  0
    4.8577    0.3871    0.0000 C   0  0  0  0  0  0  0  0  0  0  0  0
    6.3576    0.4017    0.0000 O   0  0  0  0  0  0  0  0  0  0  0  0
    4.0952    1.6788    0.0000 C   0  0  0  0  0  0  0  0  0  0  0  0
    2.5952    1.6643    0.0000 C   0  0  0  0  0  0  0  0  0  0  0  0
    1.8579    0.3580    0.0000 C   0  0  0  0  0  0  0  0  0  0  0  0
    1.0953    1.6497    0.0000 C   0  0  0  0  0  0  0  0  0  0  0  0
    0.3579    0.3435    0.0000 C   0  0  0  0  0  0  0  0  0  0  0  0
   -0.4046    1.6352    0.0000 C   0  0  0  0  0  0  0  0  0  0  0  0
   -1.9046    1.6206    0.0000 C   0  0  0  0  0  0  0  0  0  0  0  0
   -2.6671    2.9124    0.0000 O   0  0  0  0  0  0  0  0  0  0  0  0
   -2.6419    0.3144    0.0000 C   0  0  0  0  0  0  0  0  0  0  0  0
   -3.5353    1.5193    0.0000 C   0  0  0  0  0  0  0  0  0  0  0  0
  2  1  1  6
  2  3  1  0
  3  4  1  0
  5  4  1  6
  5  6  1  0
  6  7  1  1
  7  8  1  6
  7  9  1  0
 10  9  1  1
 10 11  1  0
 11 12  1  0
 12 13  1  1
 12 14  1  0
 14 15  1  0
 15 16  1  0
 16 17  1  6
 16 18  1  0
 18 19  1  6
 19 20  1  0
 20 21  1  1
 20 22  1  0
 22 23  1  6
 22  2  1  0
 22  5  1  0
 18  6  1  0
 16 10  1  0
M  END
>  <MS_ID>  (3163) 
MS3292

>  <SMILES>  (3163) 
C[C@H]1CC[C@H]2[C@@H]3[C@@H](O)C[C@@H]4C[C@H](O)CC[C@]4(C)[C@H]3C[C@H](O)[C@]12C

>  <Structure_dimension>  (3163) 
2D

$$$$
MS3293
     RDKit          2D

 21 24  0  0  0  0  0  0  0  0999 V2000
   -5.3369    1.1419    0.0000 C   0  0  0  0  0  0  0  0  0  0  0  0
   -4.2487    0.1095    0.0000 C   0  0  0  0  0  0  0  0  0  0  0  0
   -4.4444   -1.3777    0.0000 C   0  0  0  0  0  0  0  0  0  0  0  0
   -3.0904   -2.0233    0.0000 C   0  0  0  0  0  0  0  0  0  0  0  0
   -2.0580   -0.9352    0.0000 C   0  0  0  0  0  0  0  0  0  0  0  0
   -0.5585   -0.9743    0.0000 C   0  0  0  0  0  0  0  0  0  0  0  0
    0.1574   -2.2924    0.0000 C   0  0  0  0  0  0  0  0  0  0  0  0
    1.6569   -2.3315    0.0000 C   0  0  0  0  0  0  0  0  0  0  0  0
    2.4405   -1.0525    0.0000 C   0  0  0  0  0  0  0  0  0  0  0  0
    3.9400   -1.0916    0.0000 C   0  0  0  0  0  0  0  0  0  0  0  0
    4.7236    0.1874    0.0000 C   0  0  0  0  0  0  0  0  0  0  0  0
    6.2231    0.1483    0.0000 O   0  0  0  0  0  0  0  0  0  0  0  0
    4.0077    1.5056    0.0000 C   0  0  0  0  0  0  0  0  0  0  0  0
    2.5082    1.5447    0.0000 C   0  0  0  0  0  0  0  0  0  0  0  0
    1.7246    0.2657    0.0000 C   0  0  0  0  0  0  0  0  0  0  0  0
    1.0087    1.5838    0.0000 C   0  0  0  0  0  0  0  0  0  0  0  0
    0.2251    0.3048    0.0000 C   0  0  0  0  0  0  0  0  0  0  0  0
   -0.4908    1.6229    0.0000 C   0  0  0  0  0  0  0  0  0  0  0  0
   -1.9903    1.6620    0.0000 C   0  0  0  0  0  0  0  0  0  0  0  0
   -2.7739    0.3830    0.0000 C   0  0  0  0  0  0  0  0  0  0  0  0
   -3.6236    1.6191    0.0000 C   0  0  0  0  0  0  0  0  0  0  0  0
  1  2  2  0
  2  3  1  0
  3  4  1  0
  5  4  1  6
  5  6  1  0
  6  7  1  1
  7  8  1  0
  9  8  1  1
  9 10  1  0
 10 11  1  0
 11 12  1  1
 11 13  1  0
 13 14  1  0
 14 15  1  0
 15 16  1  6
 15 17  1  0
 17 18  1  6
 18 19  1  0
 19 20  1  0
 20 21  1  6
 20  2  1  0
 20  5  1  0
 17  6  1  0
 15  9  1  0
M  END
>  <MS_ID>  (3164) 
MS3293

>  <SMILES>  (3164) 
C=C1CC[C@H]2[C@@H]3CC[C@@H]4C[C@H](O)CC[C@]4(C)[C@H]3CC[C@]12C

>  <Structure_dimension>  (3164) 
2D

$$$$
MS3294
     RDKit          2D

 21 24  0  0  0  0  0  0  0  0999 V2000
    1.0087   -1.5838    0.0000 C   0  0  0  0  0  0  0  0  0  0  0  0
    1.7246   -0.2657    0.0000 C   0  0  0  0  0  0  0  0  0  0  0  0
    2.5082   -1.5447    0.0000 C   0  0  0  0  0  0  0  0  0  0  0  0
    4.0077   -1.5056    0.0000 C   0  0  0  0  0  0  0  0  0  0  0  0
    4.7236   -0.1874    0.0000 C   0  0  0  0  0  0  0  0  0  0  0  0
    6.2231   -0.1483    0.0000 O   0  0  0  0  0  0  0  0  0  0  0  0
    3.9400    1.0916    0.0000 C   0  0  0  0  0  0  0  0  0  0  0  0
    2.4405    1.0525    0.0000 C   0  0  0  0  0  0  0  0  0  0  0  0
    1.6569    2.3315    0.0000 C   0  0  0  0  0  0  0  0  0  0  0  0
    0.1574    2.2924    0.0000 C   0  0  0  0  0  0  0  0  0  0  0  0
   -0.5585    0.9743    0.0000 C   0  0  0  0  0  0  0  0  0  0  0  0
    0.2251   -0.3048    0.0000 C   0  0  0  0  0  0  0  0  0  0  0  0
   -0.4908   -1.6229    0.0000 C   0  0  0  0  0  0  0  0  0  0  0  0
   -1.9903   -1.6620    0.0000 C   0  0  0  0  0  0  0  0  0  0  0  0
   -2.7739   -0.3830    0.0000 C   0  0  0  0  0  0  0  0  0  0  0  0
   -3.6236   -1.6191    0.0000 C   0  0  0  0  0  0  0  0  0  0  0  0
   -4.2487   -0.1095    0.0000 C   0  0  0  0  0  0  0  0  0  0  0  0
   -5.3369   -1.1419    0.0000 O   0  0  0  0  0  0  0  0  0  0  0  0
   -4.4444    1.3777    0.0000 C   0  0  0  0  0  0  0  0  0  0  0  0
   -3.0904    2.0233    0.0000 C   0  0  0  0  0  0  0  0  0  0  0  0
   -2.0580    0.9352    0.0000 C   0  0  0  0  0  0  0  0  0  0  0  0
  2  1  1  1
  2  3  1  0
  3  4  1  0
  4  5  1  0
  5  6  2  0
  5  7  1  0
  8  7  1  6
  8  9  1  0
  9 10  1  0
 11 10  1  6
 11 12  1  0
 12 13  1  1
 13 14  1  0
 14 15  1  0
 15 16  1  1
 15 17  1  0
 17 18  2  0
 17 19  1  0
 19 20  1  0
 21 20  1  1
  8  2  1  0
 21 11  1  0
 12  2  1  0
 21 15  1  0
M  END
>  <MS_ID>  (3165) 
MS3294

>  <SMILES>  (3165) 
C[C@]12CCC(=O)C[C@H]1CC[C@@H]1[C@@H]2CC[C@]2(C)C(=O)CC[C@@H]12

>  <Structure_dimension>  (3165) 
2D

$$$$
MS3295
     RDKit          2D

 31 34  0  0  0  0  0  0  0  0999 V2000
   -3.8035   -3.1834    0.0000 C   0  0  0  0  0  0  0  0  0  0  0  0
   -2.8200   -2.0508    0.0000 C   0  0  0  0  0  0  0  0  0  0  0  0
   -3.3090   -0.6328    0.0000 C   0  0  0  0  0  0  0  0  0  0  0  0
   -4.7816   -0.3473    0.0000 C   0  0  0  0  0  0  0  0  0  0  0  0
   -5.7651   -1.4798    0.0000 O   0  0  0  0  0  0  0  0  0  0  0  0
   -5.2706    1.0708    0.0000 C   0  0  0  0  0  0  0  0  0  0  0  0
   -6.7432    1.3563    0.0000 C   0  0  0  0  0  0  0  0  0  0  0  0
   -7.2323    2.7743    0.0000 C   0  0  0  0  0  0  0  0  0  0  0  0
   -6.2487    3.9068    0.0000 O   0  0  0  0  0  0  0  0  0  0  0  0
   -8.7048    3.0598    0.0000 O   0  0  0  0  0  0  0  0  0  0  0  0
   -1.3474   -2.3363    0.0000 C   0  0  0  0  0  0  0  0  0  0  0  0
   -0.7128   -3.6955    0.0000 C   0  0  0  0  0  0  0  0  0  0  0  0
    0.7759   -3.5119    0.0000 C   0  0  0  0  0  0  0  0  0  0  0  0
    1.0614   -2.0393    0.0000 C   0  0  0  0  0  0  0  0  0  0  0  0
    2.3468   -1.2662    0.0000 C   0  0  0  0  0  0  0  0  0  0  0  0
    3.6591   -1.9927    0.0000 C   0  0  0  0  0  0  0  0  0  0  0  0
    3.6860   -3.4925    0.0000 O   0  0  0  0  0  0  0  0  0  0  0  0
    4.9445   -1.2196    0.0000 C   0  0  0  0  0  0  0  0  0  0  0  0
    4.9176    0.2802    0.0000 C   0  0  0  0  0  0  0  0  0  0  0  0
    6.2029    1.0534    0.0000 C   0  0  0  0  0  0  0  0  0  0  0  0
    6.1760    2.5532    0.0000 C   0  0  0  0  0  0  0  0  0  0  0  0
    7.4614    3.3263    0.0000 O   0  0  0  0  0  0  0  0  0  0  0  0
    4.8637    3.2797    0.0000 C   0  0  0  0  0  0  0  0  0  0  0  0
    3.5784    2.5065    0.0000 C   0  0  0  0  0  0  0  0  0  0  0  0
    3.6053    1.0068    0.0000 C   0  0  0  0  0  0  0  0  0  0  0  0
    2.2930    1.7334    0.0000 C   0  0  0  0  0  0  0  0  0  0  0  0
    2.3199    0.2336    0.0000 C   0  0  0  0  0  0  0  0  0  0  0  0
    1.0076    0.9602    0.0000 C   0  0  0  0  0  0  0  0  0  0  0  0
   -0.2778    0.1870    0.0000 C   0  0  0  0  0  0  0  0  0  0  0  0
   -0.2508   -1.3128    0.0000 C   0  0  0  0  0  0  0  0  0  0  0  0
   -1.6319   -0.7274    0.0000 C   0  0  0  0  0  0  0  0  0  0  0  0
  2  1  1  6
  2  3  1  0
  3  4  1  0
  4  5  2  0
  4  6  1  0
  6  7  1  0
  7  8  1  0
  8  9  2  0
  8 10  1  0
  2 11  1  0
 11 12  1  6
 12 13  1  0
 14 13  1  6
 14 15  1  0
 15 16  1  1
 16 17  1  6
 16 18  1  0
 19 18  1  1
 19 20  1  0
 20 21  1  0
 21 22  1  1
 21 23  1  0
 23 24  1  0
 24 25  1  0
 25 26  1  6
 25 27  1  0
 27 28  1  6
 28 29  1  0
 29 30  1  0
 30 31  1  6
 30 11  1  0
 30 14  1  0
 27 15  1  0
 25 19  1  0
M  END
>  <MS_ID>  (3166) 
MS3295

>  <SMILES>  (3166) 
C[C@H](CC(=O)CCC(=O)O)[C@H]1CC[C@H]2[C@@H]3[C@@H](O)C[C@@H]4C[C@H](O)CC[C@]4(C)[C@H]3CC[C@]12C

>  <Structure_dimension>  (3166) 
2D

$$$$
MS3296
     RDKit          2D

 31 34  0  0  0  0  0  0  0  0999 V2000
   -4.1559   -2.8088    0.0000 C   0  0  0  0  0  0  0  0  0  0  0  0
   -3.0971   -1.7462    0.0000 C   0  0  0  0  0  0  0  0  0  0  0  0
   -3.4879   -0.2980    0.0000 C   0  0  0  0  0  0  0  0  0  0  0  0
   -4.9375    0.0876    0.0000 C   0  0  0  0  0  0  0  0  0  0  0  0
   -5.3282    1.5358    0.0000 C   0  0  0  0  0  0  0  0  0  0  0  0
   -6.7778    1.9215    0.0000 C   0  0  0  0  0  0  0  0  0  0  0  0
   -7.1635    0.4719    0.0000 C   0  0  0  0  0  0  0  0  0  0  0  0
   -6.3921    3.3711    0.0000 C   0  0  0  0  0  0  0  0  0  0  0  0
   -8.2274    2.3072    0.0000 O   0  0  0  0  0  0  0  0  0  0  0  0
   -1.6475   -2.1319    0.0000 C   0  0  0  0  0  0  0  0  0  0  0  0
   -1.1075   -3.5313    0.0000 C   0  0  0  0  0  0  0  0  0  0  0  0
    0.3903   -3.4502    0.0000 C   0  0  0  0  0  0  0  0  0  0  0  0
    0.7760   -2.0006    0.0000 C   0  0  0  0  0  0  0  0  0  0  0  0
    2.1113   -1.3173    0.0000 C   0  0  0  0  0  0  0  0  0  0  0  0
    3.3707   -2.1320    0.0000 C   0  0  0  0  0  0  0  0  0  0  0  0
    3.2948   -3.6301    0.0000 O   0  0  0  0  0  0  0  0  0  0  0  0
    4.7060   -1.4487    0.0000 C   0  0  0  0  0  0  0  0  0  0  0  0
    4.7819    0.0494    0.0000 C   0  0  0  0  0  0  0  0  0  0  0  0
    6.1172    0.7327    0.0000 C   0  0  0  0  0  0  0  0  0  0  0  0
    6.1931    2.2308    0.0000 C   0  0  0  0  0  0  0  0  0  0  0  0
    7.5284    2.9141    0.0000 O   0  0  0  0  0  0  0  0  0  0  0  0
    4.9336    3.0455    0.0000 C   0  0  0  0  0  0  0  0  0  0  0  0
    3.5983    2.3622    0.0000 C   0  0  0  0  0  0  0  0  0  0  0  0
    3.5224    0.8641    0.0000 C   0  0  0  0  0  0  0  0  0  0  0  0
    2.2630    1.6789    0.0000 C   0  0  0  0  0  0  0  0  0  0  0  0
    2.1871    0.1808    0.0000 C   0  0  0  0  0  0  0  0  0  0  0  0
    0.9277    0.9955    0.0000 C   0  0  0  0  0  0  0  0  0  0  0  0
   -0.4076    0.3122    0.0000 C   0  0  0  0  0  0  0  0  0  0  0  0
   -1.6671    1.1269    0.0000 O   0  0  0  0  0  0  0  0  0  0  0  0
   -0.4835   -1.1859    0.0000 C   0  0  0  0  0  0  0  0  0  0  0  0
   -1.8212   -0.5073    0.0000 C   0  0  0  0  0  0  0  0  0  0  0  0
  2  1  1  6
  2  3  1  0
  3  4  1  0
  4  5  1  0
  5  6  1  0
  6  7  1  0
  6  8  1  0
  6  9  1  0
  2 10  1  0
 10 11  1  6
 11 12  1  0
 13 12  1  6
 13 14  1  0
 14 15  1  1
 15 16  1  1
 15 17  1  0
 18 17  1  1
 18 19  1  0
 19 20  1  0
 20 21  1  1
 20 22  1  0
 22 23  1  0
 23 24  1  0
 24 25  1  6
 24 26  1  0
 26 27  1  1
 27 28  1  0
 28 29  1  1
 28 30  1  0
 30 31  1  6
 30 10  1  0
 30 13  1  0
 26 14  1  0
 24 18  1  0
M  END
>  <MS_ID>  (3167) 
MS3296

>  <SMILES>  (3167) 
C[C@H](CCCC(C)(C)O)[C@H]1CC[C@H]2[C@@H]3[C@H](O)C[C@@H]4C[C@H](O)CC[C@]4(C)[C@@H]3C[C@H](O)[C@]12C

>  <Structure_dimension>  (3167) 
2D

$$$$
MS3297
     RDKit          2D

 24 27  0  0  0  0  0  0  0  0999 V2000
   -6.4254    0.0055    0.0000 C   0  0  0  0  0  0  0  0  0  0  0  0
   -5.0444    0.5910    0.0000 C   0  0  0  0  0  0  0  0  0  0  0  0
   -4.8610    2.0798    0.0000 O   0  0  0  0  0  0  0  0  0  0  0  0
   -3.8468   -0.3122    0.0000 C   0  0  0  0  0  0  0  0  0  0  0  0
   -3.8736   -1.8119    0.0000 C   0  0  0  0  0  0  0  0  0  0  0  0
   -2.4555   -2.3009    0.0000 C   0  0  0  0  0  0  0  0  0  0  0  0
   -1.5523   -1.1033    0.0000 C   0  0  0  0  0  0  0  0  0  0  0  0
   -0.0580   -0.9731    0.0000 C   0  0  0  0  0  0  0  0  0  0  0  0
    0.8019   -2.2022    0.0000 C   0  0  0  0  0  0  0  0  0  0  0  0
    2.2962   -2.0721    0.0000 C   0  0  0  0  0  0  0  0  0  0  0  0
    3.1561   -3.3011    0.0000 O   0  0  0  0  0  0  0  0  0  0  0  0
    2.9307   -0.7128    0.0000 C   0  0  0  0  0  0  0  0  0  0  0  0
    4.4250   -0.5827    0.0000 C   0  0  0  0  0  0  0  0  0  0  0  0
    5.0595    0.7765    0.0000 C   0  0  0  0  0  0  0  0  0  0  0  0
    6.5539    0.9066    0.0000 O   0  0  0  0  0  0  0  0  0  0  0  0
    4.1996    2.0056    0.0000 C   0  0  0  0  0  0  0  0  0  0  0  0
    2.7053    1.8754    0.0000 C   0  0  0  0  0  0  0  0  0  0  0  0
    2.0708    0.5162    0.0000 C   0  0  0  0  0  0  0  0  0  0  0  0
    1.2109    1.7453    0.0000 C   0  0  0  0  0  0  0  0  0  0  0  0
    0.5765    0.3861    0.0000 C   0  0  0  0  0  0  0  0  0  0  0  0
   -0.2834    1.6152    0.0000 C   0  0  0  0  0  0  0  0  0  0  0  0
   -1.7777    1.4850    0.0000 C   0  0  0  0  0  0  0  0  0  0  0  0
   -2.4122    0.1258    0.0000 C   0  0  0  0  0  0  0  0  0  0  0  0
   -3.3959    1.2583    0.0000 C   0  0  0  0  0  0  0  0  0  0  0  0
  1  2  1  0
  2  3  2  0
  4  2  1  6
  4  5  1  0
  5  6  1  0
  7  6  1  6
  7  8  1  0
  8  9  1  1
  9 10  1  0
 10 11  1  1
 10 12  1  0
 12 13  1  6
 13 14  1  0
 14 15  1  6
 14 16  1  0
 16 17  1  0
 17 18  1  0
 18 19  1  6
 18 20  1  0
 20 21  1  6
 21 22  1  0
 22 23  1  0
 23 24  1  6
 23  4  1  0
 23  7  1  0
 20  8  1  0
 18 12  1  0
M  END
>  <MS_ID>  (3168) 
MS3297

>  <SMILES>  (3168) 
CC(=O)[C@H]1CC[C@H]2[C@@H]3C[C@H](O)[C@H]4C[C@@H](O)CC[C@]4(C)[C@H]3CC[C@]12C

>  <Structure_dimension>  (3168) 
2D

$$$$
MS3298
     RDKit          2D

 32 35  0  0  0  0  0  0  0  0999 V2000
   -5.5012    2.6759    0.0000 C   0  0  0  0  0  0  0  0  0  0  0  0
   -4.2634    1.8288    0.0000 S   0  0  0  0  0  0  0  0  0  0  0  0
   -4.3781    0.3331    0.0000 C   0  0  0  0  0  0  0  0  0  0  0  0
   -5.7307   -0.3153    0.0000 C   0  0  0  0  0  0  0  0  0  0  0  0
   -6.9685    0.5318    0.0000 C   0  0  0  0  0  0  0  0  0  0  0  0
   -8.3211   -0.1166    0.0000 C   0  0  0  0  0  0  0  0  0  0  0  0
   -8.4359   -1.6122    0.0000 O   0  0  0  0  0  0  0  0  0  0  0  0
   -9.5590    0.7306    0.0000 O   0  0  0  0  0  0  0  0  0  0  0  0
   -3.1402   -0.5140    0.0000 C   0  0  0  0  0  0  0  0  0  0  0  0
   -3.0980   -2.0134    0.0000 C   0  0  0  0  0  0  0  0  0  0  0  0
   -1.6589   -2.4366    0.0000 C   0  0  0  0  0  0  0  0  0  0  0  0
   -0.8117   -1.1987    0.0000 C   0  0  0  0  0  0  0  0  0  0  0  0
    0.6750   -1.0000    0.0000 C   0  0  0  0  0  0  0  0  0  0  0  0
    1.5905   -2.1882    0.0000 C   0  0  0  0  0  0  0  0  0  0  0  0
    1.0193   -3.5751    0.0000 O   0  0  0  0  0  0  0  0  0  0  0  0
    3.0773   -1.9894    0.0000 C   0  0  0  0  0  0  0  0  0  0  0  0
    3.6486   -0.6025    0.0000 C   0  0  0  0  0  0  0  0  0  0  0  0
    5.1354   -0.4037    0.0000 C   0  0  0  0  0  0  0  0  0  0  0  0
    5.7066    0.9832    0.0000 C   0  0  0  0  0  0  0  0  0  0  0  0
    7.1934    1.1819    0.0000 N   0  0  0  0  0  0  0  0  0  0  0  0
    8.1089   -0.0063    0.0000 C   0  0  0  0  0  0  0  0  0  0  0  0
    9.5957    0.1925    0.0000 C   0  0  0  0  0  0  0  0  0  0  0  0
    7.5376   -1.3932    0.0000 O   0  0  0  0  0  0  0  0  0  0  0  0
    4.7911    2.1714    0.0000 C   0  0  0  0  0  0  0  0  0  0  0  0
    3.3044    1.9727    0.0000 C   0  0  0  0  0  0  0  0  0  0  0  0
    2.7331    0.5857    0.0000 C   0  0  0  0  0  0  0  0  0  0  0  0
    1.8176    1.7739    0.0000 C   0  0  0  0  0  0  0  0  0  0  0  0
    1.2463    0.3870    0.0000 C   0  0  0  0  0  0  0  0  0  0  0  0
    0.3308    1.5752    0.0000 C   0  0  0  0  0  0  0  0  0  0  0  0
   -1.1560    1.3765    0.0000 C   0  0  0  0  0  0  0  0  0  0  0  0
   -1.7272   -0.0105    0.0000 C   0  0  0  0  0  0  0  0  0  0  0  0
   -2.7619    1.0755    0.0000 C   0  0  0  0  0  0  0  0  0  0  0  0
  1  2  1  0
  2  3  1  0
  3  4  1  1
  4  5  1  0
  5  6  1  0
  6  7  2  0
  6  8  1  0
  3  9  1  0
  9 10  1  6
 10 11  1  0
 12 11  1  6
 12 13  1  0
 13 14  1  1
 14 15  1  6
 14 16  1  0
 17 16  1  1
 17 18  1  0
 18 19  1  0
 19 20  1  1
 20 21  1  0
 21 22  1  0
 21 23  2  0
 19 24  1  0
 24 25  1  0
 25 26  1  0
 26 27  1  6
 26 28  1  0
 28 29  1  6
 29 30  1  0
 30 31  1  0
 31 32  1  6
 31  9  1  0
 31 12  1  0
 28 13  1  0
 26 17  1  0
M  END
>  <MS_ID>  (3169) 
MS3298

>  <SMILES>  (3169) 
CS[C@H](CCC(=O)O)[C@H]1CC[C@H]2[C@@H]3[C@@H](O)C[C@@H]4C[C@H](NC(C)=O)CC[C@]4(C)[C@H]3CC[C@]12C

>  <Structure_dimension>  (3169) 
2D

$$$$
MS3299
     RDKit          2D

 26 29  0  0  0  0  0  0  0  0999 V2000
   -7.1804   -1.0164    0.0000 C   0  0  0  0  0  0  0  0  0  0  0  0
   -5.7361   -0.6115    0.0000 C   0  0  0  0  0  0  0  0  0  0  0  0
   -4.6633   -1.6598    0.0000 C   0  0  0  0  0  0  0  0  0  0  0  0
   -5.3647    0.8418    0.0000 C   0  0  0  0  0  0  0  0  0  0  0  0
   -6.4375    1.8901    0.0000 C   0  0  0  0  0  0  0  0  0  0  0  0
   -3.9204    1.2468    0.0000 O   0  0  0  0  0  0  0  0  0  0  0  0
   -2.8475    0.1984    0.0000 C   0  0  0  0  0  0  0  0  0  0  0  0
   -3.0650   -1.2857    0.0000 C   0  0  0  0  0  0  0  0  0  0  0  0
   -1.7207   -1.9512    0.0000 C   0  0  0  0  0  0  0  0  0  0  0  0
   -0.6724   -0.8783    0.0000 C   0  0  0  0  0  0  0  0  0  0  0  0
    0.8264   -0.9395    0.0000 C   0  0  0  0  0  0  0  0  0  0  0  0
    1.5228   -2.2680    0.0000 C   0  0  0  0  0  0  0  0  0  0  0  0
    3.0215   -2.3292    0.0000 C   0  0  0  0  0  0  0  0  0  0  0  0
    3.8239   -1.0618    0.0000 C   0  0  0  0  0  0  0  0  0  0  0  0
    5.3226   -1.1230    0.0000 C   0  0  0  0  0  0  0  0  0  0  0  0
    6.1250    0.1444    0.0000 C   0  0  0  0  0  0  0  0  0  0  0  0
    7.6237    0.0832    0.0000 O   0  0  0  0  0  0  0  0  0  0  0  0
    5.4286    1.4729    0.0000 C   0  0  0  0  0  0  0  0  0  0  0  0
    3.9298    1.5341    0.0000 C   0  0  0  0  0  0  0  0  0  0  0  0
    3.1275    0.2667    0.0000 C   0  0  0  0  0  0  0  0  0  0  0  0
    2.4311    1.5953    0.0000 C   0  0  0  0  0  0  0  0  0  0  0  0
    1.6287    0.3279    0.0000 C   0  0  0  0  0  0  0  0  0  0  0  0
    0.9323    1.6564    0.0000 C   0  0  0  0  0  0  0  0  0  0  0  0
   -0.5665    1.7176    0.0000 C   0  0  0  0  0  0  0  0  0  0  0  0
   -1.3688    0.4502    0.0000 C   0  0  0  0  0  0  0  0  0  0  0  0
   -2.2003    1.6987    0.0000 C   0  0  0  0  0  0  0  0  0  0  0  0
  1  2  1  0
  2  3  1  0
  2  4  1  0
  4  5  1  6
  4  6  1  0
  7  6  1  6
  7  8  1  0
  8  9  1  0
 10  9  1  6
 10 11  1  0
 11 12  1  1
 12 13  1  0
 14 13  1  1
 14 15  1  0
 15 16  1  0
 16 17  1  6
 16 18  1  0
 18 19  1  0
 19 20  1  0
 20 21  1  6
 20 22  1  0
 22 23  1  6
 23 24  1  0
 24 25  1  0
 25 26  1  6
 25  7  1  0
 25 10  1  0
 22 11  1  0
 20 14  1  0
M  END
>  <MS_ID>  (3170) 
MS3299

>  <SMILES>  (3170) 
CC(C)[C@H](C)O[C@H]1CC[C@H]2[C@@H]3CC[C@@H]4C[C@@H](O)CC[C@]4(C)[C@H]3CC[C@]12C

>  <Structure_dimension>  (3170) 
2D

$$$$
MS3300
     RDKit          2D

 28 31  0  0  0  0  0  0  0  0999 V2000
   -7.1175    3.8231    0.0000 C   0  0  0  0  0  0  0  0  0  0  0  0
   -6.8224    2.3524    0.0000 C   0  0  0  0  0  0  0  0  0  0  0  0
   -7.9484    1.3615    0.0000 C   0  0  0  0  0  0  0  0  0  0  0  0
   -5.4012    1.8727    0.0000 C   0  0  0  0  0  0  0  0  0  0  0  0
   -5.1060    0.4020    0.0000 C   0  0  0  0  0  0  0  0  0  0  0  0
   -3.6848   -0.0778    0.0000 C   0  0  0  0  0  0  0  0  0  0  0  0
   -3.3897   -1.5484    0.0000 C   0  0  0  0  0  0  0  0  0  0  0  0
   -4.5158   -2.5394    0.0000 C   0  0  0  0  0  0  0  0  0  0  0  0
   -1.9685   -2.0282    0.0000 C   0  0  0  0  0  0  0  0  0  0  0  0
   -1.5212   -3.4600    0.0000 C   0  0  0  0  0  0  0  0  0  0  0  0
   -0.0213   -3.4770    0.0000 C   0  0  0  0  0  0  0  0  0  0  0  0
    0.4584   -2.0558    0.0000 C   0  0  0  0  0  0  0  0  0  0  0  0
    1.8356   -1.4614    0.0000 C   0  0  0  0  0  0  0  0  0  0  0  0
    3.0390   -2.3568    0.0000 C   0  0  0  0  0  0  0  0  0  0  0  0
    4.4162   -1.7624    0.0000 C   0  0  0  0  0  0  0  0  0  0  0  0
    4.5900   -0.2725    0.0000 C   0  0  0  0  0  0  0  0  0  0  0  0
    5.9671    0.3220    0.0000 C   0  0  0  0  0  0  0  0  0  0  0  0
    6.1409    1.8119    0.0000 C   0  0  0  0  0  0  0  0  0  0  0  0
    7.5181    2.4063    0.0000 N   0  0  0  0  0  0  0  0  0  0  0  0
    4.9375    2.7073    0.0000 C   0  0  0  0  0  0  0  0  0  0  0  0
    3.5603    2.1129    0.0000 C   0  0  0  0  0  0  0  0  0  0  0  0
    3.3866    0.6230    0.0000 C   0  0  0  0  0  0  0  0  0  0  0  0
    2.1832    1.5184    0.0000 C   0  0  0  0  0  0  0  0  0  0  0  0
    2.0094    0.0285    0.0000 C   0  0  0  0  0  0  0  0  0  0  0  0
    0.8060    0.9240    0.0000 C   0  0  0  0  0  0  0  0  0  0  0  0
   -0.5712    0.3295    0.0000 C   0  0  0  0  0  0  0  0  0  0  0  0
   -0.7450   -1.1604    0.0000 C   0  0  0  0  0  0  0  0  0  0  0  0
   -2.0354   -0.3956    0.0000 C   0  0  0  0  0  0  0  0  0  0  0  0
  1  2  1  0
  2  3  1  0
  2  4  1  0
  4  5  1  0
  5  6  1  0
  6  7  1  0
  7  8  1  6
  7  9  1  0
  9 10  1  6
 10 11  1  0
 12 11  1  6
 12 13  1  0
 13 14  1  1
 14 15  1  0
 16 15  1  6
 16 17  1  0
 17 18  1  0
 18 19  1  1
 18 20  1  0
 20 21  1  0
 21 22  1  0
 22 23  1  6
 22 24  1  0
 24 25  1  6
 25 26  1  0
 26 27  1  0
 27 28  1  6
 27  9  1  0
 27 12  1  0
 24 13  1  0
 22 16  1  0
M  END
>  <MS_ID>  (3171) 
MS3300

>  <SMILES>  (3171) 
CC(C)CCC[C@@H](C)[C@H]1CC[C@H]2[C@@H]3CC[C@H]4C[C@H](N)CC[C@]4(C)[C@H]3CC[C@]12C

>  <Structure_dimension>  (3171) 
2D

$$$$
MS3301
     RDKit          2D

 33 36  0  0  0  0  0  0  0  0999 V2000
    4.6688   -4.2145    0.0000 C   0  0  0  0  0  0  0  0  0  0  0  0
    4.3956   -2.7396    0.0000 C   0  0  0  0  0  0  0  0  0  0  0  0
    2.9817   -2.2388    0.0000 C   0  0  0  0  0  0  0  0  0  0  0  0
    5.5363   -1.7656    0.0000 C   0  0  0  0  0  0  0  0  0  0  0  0
    6.9502   -2.2664    0.0000 C   0  0  0  0  0  0  0  0  0  0  0  0
    5.2631   -0.2907    0.0000 C   0  0  0  0  0  0  0  0  0  0  0  0
    6.4038    0.6834    0.0000 O   0  0  0  0  0  0  0  0  0  0  0  0
    3.8492    0.2102    0.0000 C   0  0  0  0  0  0  0  0  0  0  0  0
    2.7085   -0.7639    0.0000 O   0  0  0  0  0  0  0  0  0  0  0  0
    3.5760    1.6851    0.0000 C   0  0  0  0  0  0  0  0  0  0  0  0
    4.7167    2.6592    0.0000 C   0  0  0  0  0  0  0  0  0  0  0  0
    2.1621    2.1860    0.0000 C   0  0  0  0  0  0  0  0  0  0  0  0
    1.7362    3.6242    0.0000 C   0  0  0  0  0  0  0  0  0  0  0  0
    0.2367    3.6636    0.0000 C   0  0  0  0  0  0  0  0  0  0  0  0
   -0.2641    2.2497    0.0000 C   0  0  0  0  0  0  0  0  0  0  0  0
   -1.6500    1.6758    0.0000 C   0  0  0  0  0  0  0  0  0  0  0  0
   -2.8400    2.5891    0.0000 C   0  0  0  0  0  0  0  0  0  0  0  0
   -4.2258    2.0152    0.0000 C   0  0  0  0  0  0  0  0  0  0  0  0
   -5.4158    2.9285    0.0000 O   0  0  0  0  0  0  0  0  0  0  0  0
   -4.4218    0.5281    0.0000 C   0  0  0  0  0  0  0  0  0  0  0  0
   -5.8077   -0.0458    0.0000 C   0  0  0  0  0  0  0  0  0  0  0  0
   -6.0036   -1.5330    0.0000 C   0  0  0  0  0  0  0  0  0  0  0  0
   -7.3895   -2.1068    0.0000 O   0  0  0  0  0  0  0  0  0  0  0  0
   -4.8137   -2.4462    0.0000 C   0  0  0  0  0  0  0  0  0  0  0  0
   -5.0096   -3.9334    0.0000 O   0  0  0  0  0  0  0  0  0  0  0  0
   -3.4278   -1.8723    0.0000 C   0  0  0  0  0  0  0  0  0  0  0  0
   -3.2318   -0.3852    0.0000 C   0  0  0  0  0  0  0  0  0  0  0  0
   -2.0419   -1.2984    0.0000 C   0  0  0  0  0  0  0  0  0  0  0  0
   -1.8460    0.1887    0.0000 C   0  0  0  0  0  0  0  0  0  0  0  0
   -0.6560   -0.7246    0.0000 C   0  0  0  0  0  0  0  0  0  0  0  0
    0.7299   -0.1507    0.0000 C   0  0  0  0  0  0  0  0  0  0  0  0
    0.9258    1.3365    0.0000 C   0  0  0  0  0  0  0  0  0  0  0  0
    2.2047    0.5526    0.0000 C   0  0  0  0  0  0  0  0  0  0  0  0
  1  2  1  0
  2  3  1  0
  2  4  1  0
  4  5  1  1
  4  6  1  0
  6  7  1  6
  6  8  1  0
  8  9  1  6
  8 10  1  0
 10 11  1  6
 10 12  1  0
 12 13  1  6
 13 14  1  0
 15 14  1  6
 15 16  1  0
 16 17  1  1
 17 18  1  0
 18 19  2  0
 18 20  1  0
 20 21  1  6
 21 22  1  0
 22 23  1  1
 22 24  1  0
 24 25  1  6
 24 26  1  0
 26 27  1  0
 27 28  1  6
 27 29  1  0
 29 30  1  6
 30 31  1  0
 31 32  1  0
 32 33  1  6
 32 12  1  0
 32 15  1  0
 29 16  1  0
 27 20  1  0
M  END
>  <MS_ID>  (3172) 
MS3301

>  <SMILES>  (3172) 
CC(C)[C@H](C)[C@@H](O)[C@H](O)[C@@H](C)[C@H]1CC[C@H]2[C@@H]3CC(=O)[C@H]4C[C@H](O)[C@@H](O)C[C@]4(C)[C@H]3CC[C@]12C

>  <Structure_dimension>  (3172) 
2D

$$$$
MS3302
     RDKit          2D

 36 39  0  0  0  0  0  0  0  0999 V2000
   -1.6581   -4.5124    0.0000 C   0  0  0  0  0  0  0  0  0  0  0  0
   -0.9928   -3.1680    0.0000 C   0  0  0  0  0  0  0  0  0  0  0  0
   -1.8245   -1.9197    0.0000 C   0  0  0  0  0  0  0  0  0  0  0  0
   -3.3214   -2.0157    0.0000 C   0  0  0  0  0  0  0  0  0  0  0  0
   -4.1530   -0.7674    0.0000 C   0  0  0  0  0  0  0  0  0  0  0  0
   -3.4877    0.5770    0.0000 O   0  0  0  0  0  0  0  0  0  0  0  0
   -5.6499   -0.8634    0.0000 N   0  0  0  0  0  0  0  0  0  0  0  0
   -6.4816    0.3850    0.0000 C   0  0  0  0  0  0  0  0  0  0  0  0
   -7.9785    0.2889    0.0000 C   0  0  0  0  0  0  0  0  0  0  0  0
   -8.8101    1.5373    0.0000 C   0  0  0  0  0  0  0  0  0  0  0  0
  -10.3070    1.4412    0.0000 N   0  0  0  0  0  0  0  0  0  0  0  0
   -8.1448    2.8817    0.0000 O   0  0  0  0  0  0  0  0  0  0  0  0
   -5.8163    1.7293    0.0000 C   0  0  0  0  0  0  0  0  0  0  0  0
   -4.3194    1.8254    0.0000 O   0  0  0  0  0  0  0  0  0  0  0  0
   -6.6479    2.9777    0.0000 O   0  0  0  0  0  0  0  0  0  0  0  0
    0.5041   -3.0720    0.0000 C   0  0  0  0  0  0  0  0  0  0  0  0
    1.4616   -4.2266    0.0000 C   0  0  0  0  0  0  0  0  0  0  0  0
    2.8556   -3.6727    0.0000 C   0  0  0  0  0  0  0  0  0  0  0  0
    2.7596   -2.1758    0.0000 C   0  0  0  0  0  0  0  0  0  0  0  0
    3.8078   -1.1028    0.0000 C   0  0  0  0  0  0  0  0  0  0  0  0
    5.2611   -1.4740    0.0000 C   0  0  0  0  0  0  0  0  0  0  0  0
    5.6663   -2.9183    0.0000 O   0  0  0  0  0  0  0  0  0  0  0  0
    6.3093   -0.4010    0.0000 C   0  0  0  0  0  0  0  0  0  0  0  0
    5.9041    1.0432    0.0000 C   0  0  0  0  0  0  0  0  0  0  0  0
    6.9523    2.1162    0.0000 C   0  0  0  0  0  0  0  0  0  0  0  0
    6.5471    3.5605    0.0000 C   0  0  0  0  0  0  0  0  0  0  0  0
    7.5953    4.6335    0.0000 O   0  0  0  0  0  0  0  0  0  0  0  0
    5.0938    3.9317    0.0000 C   0  0  0  0  0  0  0  0  0  0  0  0
    4.0456    2.8587    0.0000 C   0  0  0  0  0  0  0  0  0  0  0  0
    4.4508    1.4145    0.0000 C   0  0  0  0  0  0  0  0  0  0  0  0
    2.9974    1.7857    0.0000 C   0  0  0  0  0  0  0  0  0  0  0  0
    3.4026    0.3415    0.0000 C   0  0  0  0  0  0  0  0  0  0  0  0
    1.9493    0.7127    0.0000 C   0  0  0  0  0  0  0  0  0  0  0  0
    0.9011   -0.3603    0.0000 C   0  0  0  0  0  0  0  0  0  0  0  0
    1.3063   -1.8045    0.0000 C   0  0  0  0  0  0  0  0  0  0  0  0
   -0.1779   -1.5872    0.0000 C   0  0  0  0  0  0  0  0  0  0  0  0
  2  1  1  6
  2  3  1  0
  3  4  1  0
  4  5  1  0
  5  6  2  0
  5  7  1  0
  7  8  1  0
  8  9  1  1
  9 10  1  0
 10 11  1  0
 10 12  2  0
  8 13  1  0
 13 14  2  0
 13 15  1  0
  2 16  1  0
 16 17  1  6
 17 18  1  0
 19 18  1  6
 19 20  1  0
 20 21  1  1
 21 22  1  6
 21 23  1  0
 24 23  1  1
 24 25  1  0
 25 26  1  0
 26 27  1  1
 26 28  1  0
 28 29  1  0
 29 30  1  0
 30 31  1  6
 30 32  1  0
 32 33  1  6
 33 34  1  0
 34 35  1  0
 35 36  1  6
 35 16  1  0
 35 19  1  0
 32 20  1  0
 30 24  1  0
M  END
>  <MS_ID>  (3173) 
MS3302

>  <SMILES>  (3173) 
C[C@H](CCC(=O)N[C@@H](CC(N)=O)C(=O)O)[C@H]1CC[C@H]2[C@@H]3[C@@H](O)C[C@@H]4C[C@H](O)CC[C@]4(C)[C@H]3CC[C@]12C

>  <Structure_dimension>  (3173) 
2D

$$$$
MS3304
     RDKit          2D

 50 55  0  0  0  0  0  0  0  0999 V2000
  -12.6992    3.9541    0.0000 C   0  0  0  0  0  0  0  0  0  0  0  0
  -12.4332    2.4779    0.0000 C   0  0  0  0  0  0  0  0  0  0  0  0
  -13.5786    1.5093    0.0000 C   0  0  0  0  0  0  0  0  0  0  0  0
  -11.0217    1.9702    0.0000 C   0  0  0  0  0  0  0  0  0  0  0  0
  -10.7556    0.4940    0.0000 C   0  0  0  0  0  0  0  0  0  0  0  0
   -9.3442   -0.0137    0.0000 C   0  0  0  0  0  0  0  0  0  0  0  0
   -9.0781   -1.4899    0.0000 C   0  0  0  0  0  0  0  0  0  0  0  0
  -10.2235   -2.4585    0.0000 C   0  0  0  0  0  0  0  0  0  0  0  0
   -7.6666   -1.9976    0.0000 C   0  0  0  0  0  0  0  0  0  0  0  0
   -7.2477   -3.4379    0.0000 C   0  0  0  0  0  0  0  0  0  0  0  0
   -5.7484   -3.4846    0.0000 C   0  0  0  0  0  0  0  0  0  0  0  0
   -5.2407   -2.0732    0.0000 C   0  0  0  0  0  0  0  0  0  0  0  0
   -3.8521   -1.5060    0.0000 C   0  0  0  0  0  0  0  0  0  0  0  0
   -2.6666   -2.4250    0.0000 C   0  0  0  0  0  0  0  0  0  0  0  0
   -1.2780   -1.8578    0.0000 C   0  0  0  0  0  0  0  0  0  0  0  0
   -1.0748   -0.3716    0.0000 C   0  0  0  0  0  0  0  0  0  0  0  0
    0.3138    0.1955    0.0000 C   0  0  0  0  0  0  0  0  0  0  0  0
    0.5169    1.6817    0.0000 C   0  0  0  0  0  0  0  0  0  0  0  0
    1.9056    2.2489    0.0000 O   0  0  0  0  0  0  0  0  0  0  0  0
    3.0911    1.3299    0.0000 C   0  0  0  0  0  0  0  0  0  0  0  0
    2.8880   -0.1563    0.0000 O   0  0  0  0  0  0  0  0  0  0  0  0
    4.0735   -1.0753    0.0000 C   0  0  0  0  0  0  0  0  0  0  0  0
    3.8703   -2.5615    0.0000 C   0  0  0  0  0  0  0  0  0  0  0  0
    2.4817   -3.1287    0.0000 O   0  0  0  0  0  0  0  0  0  0  0  0
    5.4621   -0.5081    0.0000 C   0  0  0  0  0  0  0  0  0  0  0  0
    6.6476   -1.4272    0.0000 O   0  0  0  0  0  0  0  0  0  0  0  0
    8.0362   -0.8600    0.0000 C   0  0  0  0  0  0  0  0  0  0  0  0
    8.2394    0.6262    0.0000 O   0  0  0  0  0  0  0  0  0  0  0  0
    9.6280    1.1934    0.0000 C   0  0  0  0  0  0  0  0  0  0  0  0
    9.8311    2.6796    0.0000 C   0  0  0  0  0  0  0  0  0  0  0  0
    8.6456    3.5986    0.0000 O   0  0  0  0  0  0  0  0  0  0  0  0
   10.8135    0.2744    0.0000 C   0  0  0  0  0  0  0  0  0  0  0  0
   12.2022    0.8415    0.0000 O   0  0  0  0  0  0  0  0  0  0  0  0
   10.6104   -1.2118    0.0000 C   0  0  0  0  0  0  0  0  0  0  0  0
   11.7959   -2.1308    0.0000 O   0  0  0  0  0  0  0  0  0  0  0  0
    9.2217   -1.7790    0.0000 C   0  0  0  0  0  0  0  0  0  0  0  0
    9.0186   -3.2652    0.0000 O   0  0  0  0  0  0  0  0  0  0  0  0
    5.6652    0.9780    0.0000 C   0  0  0  0  0  0  0  0  0  0  0  0
    7.0539    1.5452    0.0000 O   0  0  0  0  0  0  0  0  0  0  0  0
    4.4797    1.8970    0.0000 C   0  0  0  0  0  0  0  0  0  0  0  0
    4.6829    3.3832    0.0000 O   0  0  0  0  0  0  0  0  0  0  0  0
   -0.6686    2.6007    0.0000 C   0  0  0  0  0  0  0  0  0  0  0  0
   -2.0572    2.0336    0.0000 C   0  0  0  0  0  0  0  0  0  0  0  0
   -2.2603    0.5474    0.0000 C   0  0  0  0  0  0  0  0  0  0  0  0
   -3.4458    1.4664    0.0000 C   0  0  0  0  0  0  0  0  0  0  0  0
   -3.6490   -0.0198    0.0000 C   0  0  0  0  0  0  0  0  0  0  0  0
   -4.8345    0.8992    0.0000 C   0  0  0  0  0  0  0  0  0  0  0  0
   -6.2231    0.3320    0.0000 C   0  0  0  0  0  0  0  0  0  0  0  0
   -6.4262   -1.1541    0.0000 C   0  0  0  0  0  0  0  0  0  0  0  0
   -7.7013   -0.3641    0.0000 C   0  0  0  0  0  0  0  0  0  0  0  0
  1  2  1  0
  2  3  1  0
  2  4  1  0
  4  5  1  0
  5  6  1  0
  6  7  1  0
  7  8  1  6
  7  9  1  0
  9 10  1  6
 10 11  1  0
 12 11  1  6
 12 13  1  0
 13 14  1  1
 14 15  1  0
 16 15  1  6
 16 17  1  0
 17 18  1  0
 18 19  1  6
 20 19  1  1
 20 21  1  0
 21 22  1  0
 22 23  1  1
 23 24  1  0
 22 25  1  0
 25 26  1  6
 27 26  1  6
 27 28  1  0
 28 29  1  0
 29 30  1  6
 30 31  1  0
 29 32  1  0
 32 33  1  1
 32 34  1  0
 34 35  1  6
 34 36  1  0
 36 37  1  1
 25 38  1  0
 38 39  1  1
 38 40  1  0
 40 41  1  6
 18 42  1  0
 42 43  1  0
 43 44  1  0
 44 45  1  6
 44 46  1  0
 46 47  1  6
 47 48  1  0
 48 49  1  0
 49 50  1  6
 49  9  1  0
 49 12  1  0
 46 13  1  0
 44 16  1  0
 40 20  1  0
 36 27  1  0
M  END
>  <MS_ID>  (3174) 
MS3304

>  <SMILES>  (3174) 
CC(C)CCC[C@@H](C)[C@H]1CC[C@H]2[C@@H]3CC[C@H]4C[C@@H](O[C@@H]5O[C@H](CO)[C@@H](O[C@@H]6O[C@H](CO)[C@@H](O)[C@H](O)[C@H]6O)[C@H](O)[C@H]5O)CC[C@]4(C)[C@H]3CC[C@]12C

>  <Structure_dimension>  (3174) 
2D

$$$$
MS3305
     RDKit          2D

 23 26  0  0  0  0  0  0  0  0999 V2000
   -6.2880    0.1477    0.0000 C   0  0  0  0  0  0  0  0  0  0  0  0
   -4.8818    0.6700    0.0000 C   0  0  0  0  0  0  0  0  0  0  0  0
   -4.6310    2.1488    0.0000 N   0  0  0  0  0  0  0  0  0  0  0  0
   -3.7265   -0.2867    0.0000 C   0  0  0  0  0  0  0  0  0  0  0  0
   -3.8214   -1.7837    0.0000 C   0  0  0  0  0  0  0  0  0  0  0  0
   -2.4270   -2.3365    0.0000 C   0  0  0  0  0  0  0  0  0  0  0  0
   -1.4703   -1.1812    0.0000 C   0  0  0  0  0  0  0  0  0  0  0  0
    0.0284   -1.1191    0.0000 C   0  0  0  0  0  0  0  0  0  0  0  0
    0.8316   -2.3860    0.0000 C   0  0  0  0  0  0  0  0  0  0  0  0
    2.3303   -2.3238    0.0000 C   0  0  0  0  0  0  0  0  0  0  0  0
    3.0258   -0.9949    0.0000 C   0  0  0  0  0  0  0  0  0  0  0  0
    4.5246   -0.9327    0.0000 C   0  0  0  0  0  0  0  0  0  0  0  0
    5.2201    0.3962    0.0000 C   0  0  0  0  0  0  0  0  0  0  0  0
    6.7188    0.4584    0.0000 O   0  0  0  0  0  0  0  0  0  0  0  0
    4.4170    1.6631    0.0000 C   0  0  0  0  0  0  0  0  0  0  0  0
    2.9183    1.6010    0.0000 C   0  0  0  0  0  0  0  0  0  0  0  0
    2.2227    0.2720    0.0000 C   0  0  0  0  0  0  0  0  0  0  0  0
    1.4195    1.5389    0.0000 C   0  0  0  0  0  0  0  0  0  0  0  0
    0.7240    0.2099    0.0000 C   0  0  0  0  0  0  0  0  0  0  0  0
   -0.0792    1.4768    0.0000 C   0  0  0  0  0  0  0  0  0  0  0  0
   -1.5779    1.4146    0.0000 C   0  0  0  0  0  0  0  0  0  0  0  0
   -2.2734    0.0856    0.0000 C   0  0  0  0  0  0  0  0  0  0  0  0
   -3.2046    1.2616    0.0000 C   0  0  0  0  0  0  0  0  0  0  0  0
  2  1  1  6
  2  3  1  0
  2  4  1  0
  4  5  1  6
  5  6  1  0
  7  6  1  6
  7  8  1  0
  8  9  1  1
  9 10  1  0
 11 10  1  1
 11 12  1  0
 12 13  1  0
 13 14  1  1
 13 15  1  0
 15 16  1  0
 16 17  1  0
 17 18  1  6
 17 19  1  0
 19 20  1  6
 20 21  1  0
 21 22  1  0
 22 23  1  6
 22  4  1  0
 22  7  1  0
 19  8  1  0
 17 11  1  0
M  END
>  <MS_ID>  (3175) 
MS3305

>  <SMILES>  (3175) 
C[C@H](N)[C@H]1CC[C@H]2[C@@H]3CC[C@@H]4C[C@H](O)CC[C@]4(C)[C@H]3CC[C@]12C

>  <Structure_dimension>  (3175) 
2D

$$$$
MS3306
     RDKit          2D

 31 34  0  0  0  0  0  0  0  0999 V2000
   -4.1559   -2.8088    0.0000 C   0  0  0  0  0  0  0  0  0  0  0  0
   -3.0971   -1.7462    0.0000 C   0  0  0  0  0  0  0  0  0  0  0  0
   -3.4879   -0.2980    0.0000 C   0  0  0  0  0  0  0  0  0  0  0  0
   -4.9375    0.0876    0.0000 C   0  0  0  0  0  0  0  0  0  0  0  0
   -5.3282    1.5358    0.0000 C   0  0  0  0  0  0  0  0  0  0  0  0
   -6.7778    1.9215    0.0000 S   0  0  0  0  0  0  0  0  0  0  0  0
   -6.3921    3.3711    0.0000 O   0  0  0  0  0  0  0  0  0  0  0  0
   -7.1635    0.4719    0.0000 O   0  0  0  0  0  0  0  0  0  0  0  0
   -8.2274    2.3072    0.0000 O   0  0  0  0  0  0  0  0  0  0  0  0
   -1.6475   -2.1319    0.0000 C   0  0  0  0  0  0  0  0  0  0  0  0
   -1.1075   -3.5313    0.0000 C   0  0  0  0  0  0  0  0  0  0  0  0
    0.3903   -3.4502    0.0000 C   0  0  0  0  0  0  0  0  0  0  0  0
    0.7760   -2.0006    0.0000 C   0  0  0  0  0  0  0  0  0  0  0  0
    2.1113   -1.3173    0.0000 C   0  0  0  0  0  0  0  0  0  0  0  0
    3.3707   -2.1320    0.0000 C   0  0  0  0  0  0  0  0  0  0  0  0
    3.2948   -3.6301    0.0000 O   0  0  0  0  0  0  0  0  0  0  0  0
    4.7060   -1.4487    0.0000 C   0  0  0  0  0  0  0  0  0  0  0  0
    4.7819    0.0494    0.0000 C   0  0  0  0  0  0  0  0  0  0  0  0
    6.1172    0.7327    0.0000 C   0  0  0  0  0  0  0  0  0  0  0  0
    6.1931    2.2308    0.0000 C   0  0  0  0  0  0  0  0  0  0  0  0
    7.5284    2.9141    0.0000 O   0  0  0  0  0  0  0  0  0  0  0  0
    4.9336    3.0455    0.0000 C   0  0  0  0  0  0  0  0  0  0  0  0
    3.5983    2.3622    0.0000 C   0  0  0  0  0  0  0  0  0  0  0  0
    3.5224    0.8641    0.0000 C   0  0  0  0  0  0  0  0  0  0  0  0
    2.2630    1.6789    0.0000 C   0  0  0  0  0  0  0  0  0  0  0  0
    2.1871    0.1808    0.0000 C   0  0  0  0  0  0  0  0  0  0  0  0
    0.9277    0.9955    0.0000 C   0  0  0  0  0  0  0  0  0  0  0  0
   -0.4076    0.3122    0.0000 C   0  0  0  0  0  0  0  0  0  0  0  0
   -1.6671    1.1269    0.0000 O   0  0  0  0  0  0  0  0  0  0  0  0
   -0.4835   -1.1859    0.0000 C   0  0  0  0  0  0  0  0  0  0  0  0
   -1.8212   -0.5073    0.0000 C   0  0  0  0  0  0  0  0  0  0  0  0
  2  1  1  6
  2  3  1  0
  3  4  1  0
  4  5  1  0
  5  6  1  0
  6  7  2  0
  6  8  2  0
  6  9  1  0
  2 10  1  0
 10 11  1  6
 11 12  1  0
 13 12  1  6
 13 14  1  0
 14 15  1  1
 15 16  1  1
 15 17  1  0
 18 17  1  1
 18 19  1  0
 19 20  1  0
 20 21  1  1
 20 22  1  0
 22 23  1  0
 23 24  1  0
 24 25  1  6
 24 26  1  0
 26 27  1  6
 27 28  1  0
 28 29  1  1
 28 30  1  0
 30 31  1  6
 30 10  1  0
 30 13  1  0
 26 14  1  0
 24 18  1  0
M  END
>  <MS_ID>  (3176) 
MS3306

>  <SMILES>  (3176) 
C[C@H](CCCS(=O)(=O)O)[C@H]1CC[C@H]2[C@@H]3[C@H](O)C[C@@H]4C[C@H](O)CC[C@]4(C)[C@H]3C[C@H](O)[C@]12C

>  <Structure_dimension>  (3176) 
2D

$$$$
MS3307
     RDKit          2D

 34 37  0  0  0  0  0  0  0  0999 V2000
   -5.6093   -2.2588    0.0000 C   0  0  0  0  0  0  0  0  0  0  0  0
   -4.4310   -1.3305    0.0000 C   0  0  0  0  0  0  0  0  0  0  0  0
   -4.6457    0.1541    0.0000 C   0  0  0  0  0  0  0  0  0  0  0  0
   -6.0388    0.7103    0.0000 C   0  0  0  0  0  0  0  0  0  0  0  0
   -7.2170   -0.2179    0.0000 O   0  0  0  0  0  0  0  0  0  0  0  0
   -6.2535    2.1949    0.0000 C   0  0  0  0  0  0  0  0  0  0  0  0
   -7.6466    2.7512    0.0000 C   0  0  0  0  0  0  0  0  0  0  0  0
   -8.8248    1.8229    0.0000 O   0  0  0  0  0  0  0  0  0  0  0  0
   -7.8613    4.2357    0.0000 O   0  0  0  0  0  0  0  0  0  0  0  0
   -3.0379   -1.8868    0.0000 C   0  0  0  0  0  0  0  0  0  0  0  0
   -2.6692   -3.3408    0.0000 C   0  0  0  0  0  0  0  0  0  0  0  0
   -1.1724   -3.4393    0.0000 C   0  0  0  0  0  0  0  0  0  0  0  0
   -0.6161   -2.0463    0.0000 C   0  0  0  0  0  0  0  0  0  0  0  0
    0.7913   -1.5276    0.0000 C   0  0  0  0  0  0  0  0  0  0  0  0
    1.9443   -2.4871    0.0000 C   0  0  0  0  0  0  0  0  0  0  0  0
    1.6898   -3.9654    0.0000 O   0  0  0  0  0  0  0  0  0  0  0  0
    3.3517   -1.9684    0.0000 C   0  0  0  0  0  0  0  0  0  0  0  0
    3.6062   -0.4902    0.0000 C   0  0  0  0  0  0  0  0  0  0  0  0
    5.0137    0.0285    0.0000 C   0  0  0  0  0  0  0  0  0  0  0  0
    5.2682    1.5068    0.0000 C   0  0  0  0  0  0  0  0  0  0  0  0
    6.6756    2.0255    0.0000 O   0  0  0  0  0  0  0  0  0  0  0  0
    7.8286    1.0660    0.0000 S   0  0  0  0  0  0  0  0  0  0  0  0
    6.8691   -0.0870    0.0000 O   0  0  0  0  0  0  0  0  0  0  0  0
    8.7881    2.2189    0.0000 O   0  0  0  0  0  0  0  0  0  0  0  0
    8.9815    0.1064    0.0000 O   0  0  0  0  0  0  0  0  0  0  0  0
    4.1152    2.4663    0.0000 C   0  0  0  0  0  0  0  0  0  0  0  0
    2.7078    1.9476    0.0000 C   0  0  0  0  0  0  0  0  0  0  0  0
    2.4533    0.4694    0.0000 C   0  0  0  0  0  0  0  0  0  0  0  0
    1.3003    1.4289    0.0000 C   0  0  0  0  0  0  0  0  0  0  0  0
    1.0458   -0.0493    0.0000 C   0  0  0  0  0  0  0  0  0  0  0  0
   -0.1071    0.9102    0.0000 C   0  0  0  0  0  0  0  0  0  0  0  0
   -1.5146    0.3915    0.0000 C   0  0  0  0  0  0  0  0  0  0  0  0
   -1.7691   -1.0868    0.0000 C   0  0  0  0  0  0  0  0  0  0  0  0
   -3.0160   -0.2530    0.0000 C   0  0  0  0  0  0  0  0  0  0  0  0
  2  1  1  6
  2  3  1  0
  3  4  1  0
  4  5  2  0
  4  6  1  0
  6  7  1  0
  7  8  2  0
  7  9  1  0
  2 10  1  0
 10 11  1  6
 11 12  1  0
 13 12  1  6
 13 14  1  0
 14 15  1  1
 15 16  1  6
 15 17  1  0
 18 17  1  1
 18 19  1  0
 19 20  1  0
 20 21  1  1
 21 22  1  0
 22 23  2  0
 22 24  2  0
 22 25  1  0
 20 26  1  0
 26 27  1  0
 27 28  1  0
 28 29  1  6
 28 30  1  0
 30 31  1  6
 31 32  1  0
 32 33  1  0
 33 34  1  6
 33 10  1  0
 33 13  1  0
 30 14  1  0
 28 18  1  0
M  END
>  <MS_ID>  (3177) 
MS3307

>  <SMILES>  (3177) 
C[C@H](CC(=O)CC(=O)O)[C@H]1CC[C@H]2[C@@H]3[C@@H](O)C[C@@H]4C[C@H](OS(=O)(=O)O)CC[C@]4(C)[C@H]3CC[C@]12C

>  <Structure_dimension>  (3177) 
2D

$$$$
MS3308
     RDKit          2D

 36 39  0  0  0  0  0  0  0  0999 V2000
  -10.8453    2.7651    0.0000 C   0  0  0  0  0  0  0  0  0  0  0  0
  -10.0311    1.5053    0.0000 S   0  0  0  0  0  0  0  0  0  0  0  0
   -8.5330    1.5804    0.0000 C   0  0  0  0  0  0  0  0  0  0  0  0
   -7.7189    0.3206    0.0000 C   0  0  0  0  0  0  0  0  0  0  0  0
   -6.2208    0.3958    0.0000 C   0  0  0  0  0  0  0  0  0  0  0  0
   -5.4066   -0.8641    0.0000 N   0  0  0  0  0  0  0  0  0  0  0  0
   -3.9085   -0.7889    0.0000 C   0  0  0  0  0  0  0  0  0  0  0  0
   -3.2245    0.5460    0.0000 O   0  0  0  0  0  0  0  0  0  0  0  0
   -3.0944   -2.0488    0.0000 C   0  0  0  0  0  0  0  0  0  0  0  0
   -1.5963   -1.9736    0.0000 C   0  0  0  0  0  0  0  0  0  0  0  0
   -0.7821   -3.2335    0.0000 C   0  0  0  0  0  0  0  0  0  0  0  0
   -1.4661   -4.5685    0.0000 C   0  0  0  0  0  0  0  0  0  0  0  0
    0.7160   -3.1583    0.0000 C   0  0  0  0  0  0  0  0  0  0  0  0
    1.6574   -4.3262    0.0000 C   0  0  0  0  0  0  0  0  0  0  0  0
    3.0589   -3.7918    0.0000 C   0  0  0  0  0  0  0  0  0  0  0  0
    2.9838   -2.2937    0.0000 C   0  0  0  0  0  0  0  0  0  0  0  0
    4.0468   -1.2354    0.0000 C   0  0  0  0  0  0  0  0  0  0  0  0
    5.4948   -1.6269    0.0000 C   0  0  0  0  0  0  0  0  0  0  0  0
    6.5579   -0.5686    0.0000 C   0  0  0  0  0  0  0  0  0  0  0  0
    6.1729    0.8812    0.0000 C   0  0  0  0  0  0  0  0  0  0  0  0
    7.2359    1.9394    0.0000 C   0  0  0  0  0  0  0  0  0  0  0  0
    6.8510    3.3892    0.0000 C   0  0  0  0  0  0  0  0  0  0  0  0
    7.9140    4.4475    0.0000 O   0  0  0  0  0  0  0  0  0  0  0  0
    5.4030    3.7807    0.0000 C   0  0  0  0  0  0  0  0  0  0  0  0
    4.3399    2.7224    0.0000 C   0  0  0  0  0  0  0  0  0  0  0  0
    4.7249    1.2727    0.0000 C   0  0  0  0  0  0  0  0  0  0  0  0
    3.2769    1.6641    0.0000 C   0  0  0  0  0  0  0  0  0  0  0  0
    3.6618    0.2144    0.0000 C   0  0  0  0  0  0  0  0  0  0  0  0
    2.2138    0.6059    0.0000 C   0  0  0  0  0  0  0  0  0  0  0  0
    1.1508   -0.4524    0.0000 C   0  0  0  0  0  0  0  0  0  0  0  0
   -0.2972   -0.0609    0.0000 O   0  0  0  0  0  0  0  0  0  0  0  0
    1.5358   -1.9022    0.0000 C   0  0  0  0  0  0  0  0  0  0  0  0
    0.0548   -1.6642    0.0000 C   0  0  0  0  0  0  0  0  0  0  0  0
   -5.5368    1.7307    0.0000 C   0  0  0  0  0  0  0  0  0  0  0  0
   -4.0387    1.8059    0.0000 O   0  0  0  0  0  0  0  0  0  0  0  0
   -6.3509    2.9906    0.0000 O   0  0  0  0  0  0  0  0  0  0  0  0
  1  2  1  0
  2  3  1  0
  3  4  1  0
  5  4  1  1
  5  6  1  0
  6  7  1  0
  7  8  2  0
  7  9  1  0
  9 10  1  0
 10 11  1  0
 11 12  1  6
 11 13  1  0
 13 14  1  6
 14 15  1  0
 16 15  1  6
 16 17  1  0
 17 18  1  1
 18 19  1  0
 20 19  1  1
 20 21  1  0
 21 22  1  0
 22 23  1  1
 22 24  1  0
 24 25  1  0
 25 26  1  0
 26 27  1  6
 26 28  1  0
 28 29  1  6
 29 30  1  0
 30 31  1  1
 30 32  1  0
 32 33  1  6
  5 34  1  0
 34 35  2  0
 34 36  1  0
 32 13  1  0
 32 16  1  0
 28 17  1  0
 26 20  1  0
M  END
>  <MS_ID>  (3178) 
MS3308

>  <SMILES>  (3178) 
CSCC[C@H](NC(=O)CC[C@@H](C)[C@H]1CC[C@H]2[C@@H]3CC[C@@H]4C[C@H](O)CC[C@]4(C)[C@H]3C[C@H](O)[C@]12C)C(=O)O

>  <Structure_dimension>  (3178) 
2D

$$$$
MS3309
     RDKit          2D

 39 43  0  0  0  0  0  0  0  0999 V2000
   -7.8836   -1.9888    0.0000 C   0  0  0  0  0  0  0  0  0  0  0  0
   -6.7013   -1.0656    0.0000 C   0  0  0  0  0  0  0  0  0  0  0  0
   -6.9097    0.4199    0.0000 C   0  0  0  0  0  0  0  0  0  0  0  0
   -8.3003    0.9822    0.0000 C   0  0  0  0  0  0  0  0  0  0  0  0
   -8.5087    2.4676    0.0000 C   0  0  0  0  0  0  0  0  0  0  0  0
   -7.3264    3.3908    0.0000 O   0  0  0  0  0  0  0  0  0  0  0  0
   -9.8993    3.0299    0.0000 O   0  0  0  0  0  0  0  0  0  0  0  0
   -5.3107   -1.6279    0.0000 C   0  0  0  0  0  0  0  0  0  0  0  0
   -4.9482   -3.0834    0.0000 C   0  0  0  0  0  0  0  0  0  0  0  0
   -3.4519   -3.1884    0.0000 C   0  0  0  0  0  0  0  0  0  0  0  0
   -2.8896   -1.7978    0.0000 C   0  0  0  0  0  0  0  0  0  0  0  0
   -1.4799   -1.2851    0.0000 C   0  0  0  0  0  0  0  0  0  0  0  0
   -0.3311   -2.2496    0.0000 C   0  0  0  0  0  0  0  0  0  0  0  0
   -0.5920   -3.7268    0.0000 O   0  0  0  0  0  0  0  0  0  0  0  0
    1.0786   -1.7370    0.0000 O   0  0  0  0  0  0  0  0  0  0  0  0
    1.3394   -0.2598    0.0000 C   0  0  0  0  0  0  0  0  0  0  0  0
    2.7491    0.2528    0.0000 C   0  0  0  0  0  0  0  0  0  0  0  0
    3.0100    1.7300    0.0000 C   0  0  0  0  0  0  0  0  0  0  0  0
    4.4196    2.2426    0.0000 O   0  0  0  0  0  0  0  0  0  0  0  0
    5.5685    1.2781    0.0000 C   0  0  0  0  0  0  0  0  0  0  0  0
    5.3076   -0.1990    0.0000 O   0  0  0  0  0  0  0  0  0  0  0  0
    6.4564   -1.1635    0.0000 C   0  0  0  0  0  0  0  0  0  0  0  0
    6.1955   -2.6406    0.0000 C   0  0  0  0  0  0  0  0  0  0  0  0
    4.7859   -3.1533    0.0000 O   0  0  0  0  0  0  0  0  0  0  0  0
    7.8661   -0.6508    0.0000 C   0  0  0  0  0  0  0  0  0  0  0  0
    9.0149   -1.6153    0.0000 O   0  0  0  0  0  0  0  0  0  0  0  0
    8.1269    0.8263    0.0000 C   0  0  0  0  0  0  0  0  0  0  0  0
    9.5366    1.3390    0.0000 O   0  0  0  0  0  0  0  0  0  0  0  0
    6.9781    1.7908    0.0000 C   0  0  0  0  0  0  0  0  0  0  0  0
    7.2390    3.2679    0.0000 O   0  0  0  0  0  0  0  0  0  0  0  0
    1.8612    2.6945    0.0000 C   0  0  0  0  0  0  0  0  0  0  0  0
    0.4515    2.1818    0.0000 C   0  0  0  0  0  0  0  0  0  0  0  0
    0.1906    0.7047    0.0000 C   0  0  0  0  0  0  0  0  0  0  0  0
   -0.9582    1.6691    0.0000 C   0  0  0  0  0  0  0  0  0  0  0  0
   -1.2191    0.1920    0.0000 C   0  0  0  0  0  0  0  0  0  0  0  0
   -2.3679    1.1565    0.0000 C   0  0  0  0  0  0  0  0  0  0  0  0
   -3.7775    0.6438    0.0000 C   0  0  0  0  0  0  0  0  0  0  0  0
   -4.0384   -0.8333    0.0000 C   0  0  0  0  0  0  0  0  0  0  0  0
   -5.2817    0.0058    0.0000 C   0  0  0  0  0  0  0  0  0  0  0  0
  2  1  1  6
  2  3  1  0
  3  4  1  0
  4  5  1  0
  5  6  2  0
  5  7  1  0
  2  8  1  0
  8  9  1  6
  9 10  1  0
 11 10  1  6
 11 12  1  0
 12 13  1  1
 13 14  1  6
 13 15  1  0
 15 16  1  0
 16 17  1  1
 17 18  1  0
 18 19  1  1
 20 19  1  1
 20 21  1  0
 21 22  1  0
 22 23  1  1
 23 24  1  0
 22 25  1  0
 25 26  1  6
 25 27  1  0
 27 28  1  1
 27 29  1  0
 29 30  1  6
 18 31  1  0
 31 32  1  0
 32 33  1  0
 33 34  1  6
 33 35  1  0
 35 36  1  6
 36 37  1  0
 37 38  1  0
 38 39  1  6
 38  8  1  0
 38 11  1  0
 35 12  1  0
 33 16  1  0
 29 20  1  0
M  END
>  <MS_ID>  (3179) 
MS3309

>  <SMILES>  (3179) 
C[C@H](CCC(=O)O)[C@H]1CC[C@H]2[C@@H]3[C@@H](O)O[C@@H]4C[C@H](O[C@@H]5O[C@H](CO)[C@@H](O)[C@H](O)[C@H]5O)CC[C@]4(C)[C@H]3CC[C@]12C

>  <Structure_dimension>  (3179) 
2D

$$$$
MS3310
     RDKit          2D

 27 30  0  0  0  0  0  0  0  0999 V2000
   -5.1023   -2.0364    0.0000 C   0  0  0  0  0  0  0  0  0  0  0  0
   -3.8978   -1.1425    0.0000 C   0  0  0  0  0  0  0  0  0  0  0  0
   -4.0697    0.3476    0.0000 C   0  0  0  0  0  0  0  0  0  0  0  0
   -5.4461    0.9438    0.0000 C   0  0  0  0  0  0  0  0  0  0  0  0
   -5.6180    2.4339    0.0000 C   0  0  0  0  0  0  0  0  0  0  0  0
   -4.4135    3.3278    0.0000 O   0  0  0  0  0  0  0  0  0  0  0  0
   -6.9944    3.0301    0.0000 O   0  0  0  0  0  0  0  0  0  0  0  0
   -2.5213   -1.7387    0.0000 C   0  0  0  0  0  0  0  0  0  0  0  0
   -2.1946   -3.2027    0.0000 C   0  0  0  0  0  0  0  0  0  0  0  0
   -0.7013   -3.3444    0.0000 C   0  0  0  0  0  0  0  0  0  0  0  0
   -0.1051   -1.9679    0.0000 C   0  0  0  0  0  0  0  0  0  0  0  0
    1.3167   -1.4900    0.0000 C   0  0  0  0  0  0  0  0  0  0  0  0
    2.4415   -2.4823    0.0000 C   0  0  0  0  0  0  0  0  0  0  0  0
    3.8633   -2.0044    0.0000 O   0  0  0  0  0  0  0  0  0  0  0  0
    4.1603   -0.5341    0.0000 C   0  0  0  0  0  0  0  0  0  0  0  0
    5.5821   -0.0561    0.0000 C   0  0  0  0  0  0  0  0  0  0  0  0
    5.8791    1.4142    0.0000 C   0  0  0  0  0  0  0  0  0  0  0  0
    7.3009    1.8921    0.0000 O   0  0  0  0  0  0  0  0  0  0  0  0
    4.7543    2.4065    0.0000 C   0  0  0  0  0  0  0  0  0  0  0  0
    3.3325    1.9286    0.0000 C   0  0  0  0  0  0  0  0  0  0  0  0
    3.0355    0.4583    0.0000 C   0  0  0  0  0  0  0  0  0  0  0  0
    1.9107    1.4506    0.0000 C   0  0  0  0  0  0  0  0  0  0  0  0
    1.6137   -0.0197    0.0000 C   0  0  0  0  0  0  0  0  0  0  0  0
    0.4888    0.9727    0.0000 C   0  0  0  0  0  0  0  0  0  0  0  0
   -0.9330    0.4947    0.0000 C   0  0  0  0  0  0  0  0  0  0  0  0
   -1.2300   -0.9756    0.0000 C   0  0  0  0  0  0  0  0  0  0  0  0
   -2.4524   -0.1062    0.0000 C   0  0  0  0  0  0  0  0  0  0  0  0
  2  1  1  6
  2  3  1  0
  3  4  1  0
  4  5  1  0
  5  6  2  0
  5  7  1  0
  2  8  1  0
  8  9  1  6
  9 10  1  0
 11 10  1  6
 11 12  1  0
 12 13  1  1
 13 14  1  0
 14 15  1  0
 15 16  1  1
 16 17  1  0
 17 18  1  1
 17 19  1  0
 19 20  1  0
 20 21  1  0
 21 22  1  6
 21 23  1  0
 23 24  1  6
 24 25  1  0
 25 26  1  0
 26 27  1  6
 26  8  1  0
 26 11  1  0
 23 12  1  0
 21 15  1  0
M  END
>  <MS_ID>  (3180) 
MS3310

>  <SMILES>  (3180) 
C[C@H](CCC(=O)O)[C@H]1CC[C@H]2[C@@H]3CO[C@@H]4C[C@H](O)CC[C@]4(C)[C@H]3CC[C@]12C

>  <Structure_dimension>  (3180) 
2D

$$$$
MS3311
     RDKit          2D

 28 31  0  0  0  0  0  0  0  0999 V2000
   -5.1275   -2.0302    0.0000 C   0  0  0  0  0  0  0  0  0  0  0  0
   -3.9468   -1.1050    0.0000 C   0  0  0  0  0  0  0  0  0  0  0  0
   -4.1576    0.3801    0.0000 C   0  0  0  0  0  0  0  0  0  0  0  0
   -5.5492    0.9401    0.0000 C   0  0  0  0  0  0  0  0  0  0  0  0
   -5.7600    2.4252    0.0000 C   0  0  0  0  0  0  0  0  0  0  0  0
   -4.5793    3.3503    0.0000 O   0  0  0  0  0  0  0  0  0  0  0  0
   -7.1516    2.9851    0.0000 O   0  0  0  0  0  0  0  0  0  0  0  0
   -2.5552   -1.6650    0.0000 C   0  0  0  0  0  0  0  0  0  0  0  0
   -2.1903   -3.1199    0.0000 C   0  0  0  0  0  0  0  0  0  0  0  0
   -0.6938   -3.2225    0.0000 C   0  0  0  0  0  0  0  0  0  0  0  0
   -0.1339   -1.8309    0.0000 C   0  0  0  0  0  0  0  0  0  0  0  0
    1.2750   -1.3159    0.0000 C   0  0  0  0  0  0  0  0  0  0  0  0
    2.4254   -2.2785    0.0000 C   0  0  0  0  0  0  0  0  0  0  0  0
    2.1670   -3.7560    0.0000 O   0  0  0  0  0  0  0  0  0  0  0  0
    3.8342   -1.7635    0.0000 N   0  0  0  0  0  0  0  0  0  0  0  0
    4.0926   -0.2859    0.0000 C   0  0  0  0  0  0  0  0  0  0  0  0
    5.5014    0.2291    0.0000 C   0  0  0  0  0  0  0  0  0  0  0  0
    5.7598    1.7067    0.0000 C   0  0  0  0  0  0  0  0  0  0  0  0
    7.1687    2.2217    0.0000 O   0  0  0  0  0  0  0  0  0  0  0  0
    4.6094    2.6692    0.0000 C   0  0  0  0  0  0  0  0  0  0  0  0
    3.2006    2.1542    0.0000 C   0  0  0  0  0  0  0  0  0  0  0  0
    2.9422    0.6767    0.0000 C   0  0  0  0  0  0  0  0  0  0  0  0
    1.7918    1.6392    0.0000 C   0  0  0  0  0  0  0  0  0  0  0  0
    1.5334    0.1617    0.0000 C   0  0  0  0  0  0  0  0  0  0  0  0
    0.3830    1.1242    0.0000 C   0  0  0  0  0  0  0  0  0  0  0  0
   -1.0259    0.6093    0.0000 C   0  0  0  0  0  0  0  0  0  0  0  0
   -1.2843   -0.8683    0.0000 C   0  0  0  0  0  0  0  0  0  0  0  0
   -2.5290   -0.0313    0.0000 C   0  0  0  0  0  0  0  0  0  0  0  0
  2  1  1  6
  2  3  1  0
  3  4  1  0
  4  5  1  0
  5  6  2  0
  5  7  1  0
  2  8  1  0
  8  9  1  6
  9 10  1  0
 11 10  1  6
 11 12  1  0
 12 13  1  1
 13 14  1  6
 13 15  1  0
 15 16  1  0
 16 17  1  1
 17 18  1  0
 18 19  1  1
 18 20  1  0
 20 21  1  0
 21 22  1  0
 22 23  1  6
 22 24  1  0
 24 25  1  6
 25 26  1  0
 26 27  1  0
 27 28  1  6
 27  8  1  0
 27 11  1  0
 24 12  1  0
 22 16  1  0
M  END
>  <MS_ID>  (3181) 
MS3311

>  <SMILES>  (3181) 
C[C@H](CCC(=O)O)[C@H]1CC[C@H]2[C@@H]3[C@@H](O)N[C@@H]4C[C@H](O)CC[C@]4(C)[C@H]3CC[C@]12C

>  <Structure_dimension>  (3181) 
2D

$$$$
MS3312
     RDKit          2D

 26 29  0  0  0  0  0  0  0  0999 V2000
    2.0291   -1.4220    0.0000 C   0  0  0  0  0  0  0  0  0  0  0  0
    2.7100   -0.0854    0.0000 C   0  0  0  0  0  0  0  0  0  0  0  0
    3.5271   -1.3433    0.0000 C   0  0  0  0  0  0  0  0  0  0  0  0
    5.0250   -1.2646    0.0000 C   0  0  0  0  0  0  0  0  0  0  0  0
    5.7058    0.0720    0.0000 C   0  0  0  0  0  0  0  0  0  0  0  0
    7.2038    0.1507    0.0000 O   0  0  0  0  0  0  0  0  0  0  0  0
    4.8887    1.3299    0.0000 C   0  0  0  0  0  0  0  0  0  0  0  0
    3.3908    1.2512    0.0000 C   0  0  0  0  0  0  0  0  0  0  0  0
    2.5737    2.5091    0.0000 C   0  0  0  0  0  0  0  0  0  0  0  0
    1.0757    2.4304    0.0000 C   0  0  0  0  0  0  0  0  0  0  0  0
    0.3949    1.0938    0.0000 C   0  0  0  0  0  0  0  0  0  0  0  0
    1.2120   -0.1641    0.0000 C   0  0  0  0  0  0  0  0  0  0  0  0
    0.5312   -1.5007    0.0000 C   0  0  0  0  0  0  0  0  0  0  0  0
    1.3483   -2.7586    0.0000 O   0  0  0  0  0  0  0  0  0  0  0  0
   -0.9667   -1.5794    0.0000 C   0  0  0  0  0  0  0  0  0  0  0  0
   -1.7838   -0.3214    0.0000 C   0  0  0  0  0  0  0  0  0  0  0  0
   -2.4412   -1.6697    0.0000 C   0  0  0  0  0  0  0  0  0  0  0  0
   -1.1030    1.0151    0.0000 C   0  0  0  0  0  0  0  0  0  0  0  0
   -2.1638    2.0757    0.0000 C   0  0  0  0  0  0  0  0  0  0  0  0
   -3.5002    1.3945    0.0000 C   0  0  0  0  0  0  0  0  0  0  0  0
   -3.2654   -0.0870    0.0000 C   0  0  0  0  0  0  0  0  0  0  0  0
   -3.5257   -1.5642    0.0000 O   0  0  0  0  0  0  0  0  0  0  0  0
   -4.7633   -0.1657    0.0000 C   0  0  0  0  0  0  0  0  0  0  0  0
   -5.4442   -1.5022    0.0000 O   0  0  0  0  0  0  0  0  0  0  0  0
   -5.5804    1.0923    0.0000 C   0  0  0  0  0  0  0  0  0  0  0  0
   -7.0784    1.0136    0.0000 O   0  0  0  0  0  0  0  0  0  0  0  0
  2  1  1  1
  2  3  1  0
  3  4  1  0
  4  5  1  0
  5  6  1  6
  5  7  1  0
  8  7  1  6
  8  9  1  0
  9 10  1  0
 11 10  1  6
 11 12  1  0
 12 13  1  6
 13 14  1  1
 13 15  1  0
 15 16  1  0
 16 17  1  1
 16 18  1  0
 18 19  1  1
 19 20  1  0
 20 21  1  0
 21 22  1  6
 21 23  1  0
 23 24  1  6
 23 25  1  0
 25 26  1  0
  8  2  1  0
 18 11  1  0
 12  2  1  0
 21 16  1  0
M  END
>  <MS_ID>  (3182) 
MS3312

>  <SMILES>  (3182) 
C[C@]12CC[C@@H](O)C[C@H]1CC[C@@H]1[C@H]2[C@@H](O)C[C@@]2(C)[C@H]1CC[C@]2(O)[C@H](O)CO

>  <Structure_dimension>  (3182) 
2D

$$$$
MS3313
     RDKit          2D

 22 25  0  0  0  0  0  0  0  0999 V2000
    1.2125   -1.5642    0.0000 C   0  0  0  0  0  0  0  0  0  0  0  0
    1.9406   -0.2528    0.0000 C   0  0  0  0  0  0  0  0  0  0  0  0
    2.7123   -1.5390    0.0000 C   0  0  0  0  0  0  0  0  0  0  0  0
    4.2121   -1.5138    0.0000 C   0  0  0  0  0  0  0  0  0  0  0  0
    4.9402   -0.2024    0.0000 C   0  0  0  0  0  0  0  0  0  0  0  0
    6.4400   -0.1772    0.0000 O   0  0  0  0  0  0  0  0  0  0  0  0
    4.1685    1.0839    0.0000 C   0  0  0  0  0  0  0  0  0  0  0  0
    2.6687    1.0587    0.0000 C   0  0  0  0  0  0  0  0  0  0  0  0
    1.8970    2.3449    0.0000 C   0  0  0  0  0  0  0  0  0  0  0  0
    0.3972    2.3198    0.0000 C   0  0  0  0  0  0  0  0  0  0  0  0
   -0.3309    1.0083    0.0000 C   0  0  0  0  0  0  0  0  0  0  0  0
    0.4408   -0.2779    0.0000 C   0  0  0  0  0  0  0  0  0  0  0  0
   -0.2873   -1.5894    0.0000 C   0  0  0  0  0  0  0  0  0  0  0  0
   -1.7871   -1.6146    0.0000 C   0  0  0  0  0  0  0  0  0  0  0  0
   -2.5588   -0.3283    0.0000 C   0  0  0  0  0  0  0  0  0  0  0  0
   -3.2638   -1.6523    0.0000 C   0  0  0  0  0  0  0  0  0  0  0  0
   -1.8307    0.9831    0.0000 C   0  0  0  0  0  0  0  0  0  0  0  0
   -2.8529    2.0809    0.0000 C   0  0  0  0  0  0  0  0  0  0  0  0
   -4.2128    1.4478    0.0000 C   0  0  0  0  0  0  0  0  0  0  0  0
   -4.0310   -0.0411    0.0000 C   0  0  0  0  0  0  0  0  0  0  0  0
   -5.5308   -0.0663    0.0000 C   0  0  0  0  0  0  0  0  0  0  0  0
   -4.3439   -1.5081    0.0000 O   0  0  0  0  0  0  0  0  0  0  0  0
  2  1  1  1
  2  3  1  0
  3  4  1  0
  4  5  1  0
  5  6  1  6
  5  7  1  0
  8  7  1  6
  8  9  1  0
  9 10  1  0
 11 10  1  6
 11 12  1  0
 12 13  1  1
 13 14  1  0
 14 15  1  0
 15 16  1  1
 15 17  1  0
 17 18  1  1
 18 19  1  0
 19 20  1  0
 20 21  1  6
 20 22  1  0
  8  2  1  0
 17 11  1  0
 12  2  1  0
 20 15  1  0
M  END
>  <MS_ID>  (3183) 
MS3313

>  <SMILES>  (3183) 
C[C@]12CC[C@@H](O)C[C@H]1CC[C@@H]1[C@@H]2CC[C@@]2(C)[C@H]1CC[C@]2(C)O

>  <Structure_dimension>  (3183) 
2D

$$$$
MS3314
     RDKit          2D

 29 32  0  0  0  0  0  0  0  0999 V2000
   -4.5495   -2.5275    0.0000 C   0  0  0  0  0  0  0  0  0  0  0  0
   -3.4499   -1.5073    0.0000 C   0  0  0  0  0  0  0  0  0  0  0  0
   -3.7837   -0.0449    0.0000 S   0  0  0  0  0  0  0  0  0  0  0  0
   -5.2171    0.3972    0.0000 C   0  0  0  0  0  0  0  0  0  0  0  0
   -5.5509    1.8596    0.0000 C   0  0  0  0  0  0  0  0  0  0  0  0
   -6.9843    2.3017    0.0000 C   0  0  0  0  0  0  0  0  0  0  0  0
   -8.0838    1.2815    0.0000 O   0  0  0  0  0  0  0  0  0  0  0  0
   -7.3181    3.7641    0.0000 O   0  0  0  0  0  0  0  0  0  0  0  0
   -2.0166   -1.9494    0.0000 C   0  0  0  0  0  0  0  0  0  0  0  0
   -1.5317   -3.3689    0.0000 C   0  0  0  0  0  0  0  0  0  0  0  0
   -0.0319   -3.3464    0.0000 C   0  0  0  0  0  0  0  0  0  0  0  0
    0.4102   -1.9130    0.0000 C   0  0  0  0  0  0  0  0  0  0  0  0
    1.7712   -1.2825    0.0000 C   0  0  0  0  0  0  0  0  0  0  0  0
    2.9978   -2.1459    0.0000 C   0  0  0  0  0  0  0  0  0  0  0  0
    2.8634   -3.6398    0.0000 O   0  0  0  0  0  0  0  0  0  0  0  0
    4.3589   -1.5153    0.0000 C   0  0  0  0  0  0  0  0  0  0  0  0
    4.4933   -0.0214    0.0000 C   0  0  0  0  0  0  0  0  0  0  0  0
    5.8543    0.6092    0.0000 C   0  0  0  0  0  0  0  0  0  0  0  0
    5.9888    2.1032    0.0000 C   0  0  0  0  0  0  0  0  0  0  0  0
    7.3498    2.7337    0.0000 O   0  0  0  0  0  0  0  0  0  0  0  0
    4.7622    2.9666    0.0000 C   0  0  0  0  0  0  0  0  0  0  0  0
    3.4011    2.3360    0.0000 C   0  0  0  0  0  0  0  0  0  0  0  0
    3.2667    0.8420    0.0000 C   0  0  0  0  0  0  0  0  0  0  0  0
    2.0401    1.7055    0.0000 C   0  0  0  0  0  0  0  0  0  0  0  0
    1.9057    0.2115    0.0000 C   0  0  0  0  0  0  0  0  0  0  0  0
    0.6791    1.0749    0.0000 C   0  0  0  0  0  0  0  0  0  0  0  0
   -0.6820    0.4443    0.0000 C   0  0  0  0  0  0  0  0  0  0  0  0
   -0.8164   -1.0496    0.0000 C   0  0  0  0  0  0  0  0  0  0  0  0
   -2.1265   -0.3192    0.0000 C   0  0  0  0  0  0  0  0  0  0  0  0
  2  1  1  6
  2  3  1  0
  3  4  1  0
  4  5  1  0
  5  6  1  0
  6  7  2  0
  6  8  1  0
  2  9  1  0
  9 10  1  6
 10 11  1  0
 12 11  1  6
 12 13  1  0
 13 14  1  1
 14 15  1  6
 14 16  1  0
 17 16  1  1
 17 18  1  0
 18 19  1  0
 19 20  1  1
 19 21  1  0
 21 22  1  0
 22 23  1  0
 23 24  1  6
 23 25  1  0
 25 26  1  6
 26 27  1  0
 27 28  1  0
 28 29  1  6
 28  9  1  0
 28 12  1  0
 25 13  1  0
 23 17  1  0
M  END
>  <MS_ID>  (3184) 
MS3314

>  <SMILES>  (3184) 
C[C@H](SCCC(=O)O)[C@H]1CC[C@H]2[C@@H]3[C@@H](O)C[C@@H]4C[C@H](O)CC[C@]4(C)[C@H]3CC[C@]12C

>  <Structure_dimension>  (3184) 
2D

$$$$
MS3315
     RDKit          2D

 25 28  0  0  0  0  0  0  0  0999 V2000
   -6.8820    0.2425    0.0000 C   0  0  0  0  0  0  0  0  0  0  0  0
   -5.4660    0.7373    0.0000 C   0  0  0  0  0  0  0  0  0  0  0  0
   -5.1864    2.2110    0.0000 O   0  0  0  0  0  0  0  0  0  0  0  0
   -4.3295   -0.2417    0.0000 C   0  0  0  0  0  0  0  0  0  0  0  0
   -4.4534   -1.7366    0.0000 C   0  0  0  0  0  0  0  0  0  0  0  0
   -3.0701   -2.3164    0.0000 C   0  0  0  0  0  0  0  0  0  0  0  0
   -2.0911   -1.1799    0.0000 C   0  0  0  0  0  0  0  0  0  0  0  0
   -0.5915   -1.1470    0.0000 C   0  0  0  0  0  0  0  0  0  0  0  0
    0.1869   -2.4292    0.0000 C   0  0  0  0  0  0  0  0  0  0  0  0
    1.6865   -2.3963    0.0000 C   0  0  0  0  0  0  0  0  0  0  0  0
    2.4078   -1.0811    0.0000 C   0  0  0  0  0  0  0  0  0  0  0  0
    3.9075   -1.0481    0.0000 C   0  0  0  0  0  0  0  0  0  0  0  0
    4.6287    0.2671    0.0000 C   0  0  0  0  0  0  0  0  0  0  0  0
    6.1284    0.3001    0.0000 N   0  0  0  0  0  0  0  0  0  0  0  0
    6.9067   -0.9822    0.0000 C   0  0  0  0  0  0  0  0  0  0  0  0
    6.8497    1.6153    0.0000 C   0  0  0  0  0  0  0  0  0  0  0  0
    3.8504    1.5494    0.0000 C   0  0  0  0  0  0  0  0  0  0  0  0
    2.3507    1.5164    0.0000 C   0  0  0  0  0  0  0  0  0  0  0  0
    1.6295    0.2012    0.0000 C   0  0  0  0  0  0  0  0  0  0  0  0
    0.8511    1.4834    0.0000 C   0  0  0  0  0  0  0  0  0  0  0  0
    0.1298    0.1682    0.0000 C   0  0  0  0  0  0  0  0  0  0  0  0
   -0.6485    1.4505    0.0000 C   0  0  0  0  0  0  0  0  0  0  0  0
   -2.1482    1.4175    0.0000 C   0  0  0  0  0  0  0  0  0  0  0  0
   -2.8695    0.1023    0.0000 C   0  0  0  0  0  0  0  0  0  0  0  0
   -3.7776    1.2962    0.0000 C   0  0  0  0  0  0  0  0  0  0  0  0
  1  2  1  0
  2  3  2  0
  4  2  1  6
  4  5  1  0
  5  6  1  0
  7  6  1  6
  7  8  1  0
  8  9  1  1
  9 10  1  0
 11 10  1  1
 11 12  1  0
 12 13  1  0
 13 14  1  1
 14 15  1  0
 14 16  1  0
 13 17  1  0
 17 18  1  0
 18 19  1  0
 19 20  1  6
 19 21  1  0
 21 22  1  6
 22 23  1  0
 23 24  1  0
 24 25  1  6
 24  4  1  0
 24  7  1  0
 21  8  1  0
 19 11  1  0
M  END
>  <MS_ID>  (3185) 
MS3315

>  <SMILES>  (3185) 
CC(=O)[C@H]1CC[C@H]2[C@@H]3CC[C@@H]4C[C@H](N(C)C)CC[C@]4(C)[C@H]3CC[C@]12C

>  <Structure_dimension>  (3185) 
2D

$$$$
MS3316
     RDKit          2D

 29 32  0  0  0  0  0  0  0  0999 V2000
   -5.0303   -2.1373    0.0000 C   0  0  0  0  0  0  0  0  0  0  0  0
   -3.8594   -1.1998    0.0000 C   0  0  0  0  0  0  0  0  0  0  0  0
   -4.0858    0.2830    0.0000 C   0  0  0  0  0  0  0  0  0  0  0  0
   -5.4831    0.8284    0.0000 C   0  0  0  0  0  0  0  0  0  0  0  0
   -5.7095    2.3112    0.0000 C   0  0  0  0  0  0  0  0  0  0  0  0
   -4.5386    3.2487    0.0000 O   0  0  0  0  0  0  0  0  0  0  0  0
   -7.1069    2.8565    0.0000 O   0  0  0  0  0  0  0  0  0  0  0  0
   -2.4620   -1.7451    0.0000 C   0  0  0  0  0  0  0  0  0  0  0  0
   -2.0818   -3.1961    0.0000 C   0  0  0  0  0  0  0  0  0  0  0  0
   -0.5844   -3.2830    0.0000 C   0  0  0  0  0  0  0  0  0  0  0  0
   -0.0390   -1.8856    0.0000 C   0  0  0  0  0  0  0  0  0  0  0  0
    1.3643   -1.3559    0.0000 C   0  0  0  0  0  0  0  0  0  0  0  0
    2.5248   -2.3063    0.0000 C   0  0  0  0  0  0  0  0  0  0  0  0
    2.2819   -3.7865    0.0000 O   0  0  0  0  0  0  0  0  0  0  0  0
    3.9281   -1.7765    0.0000 N   0  0  0  0  0  0  0  0  0  0  0  0
    4.1710   -0.2963    0.0000 C   0  0  0  0  0  0  0  0  0  0  0  0
    5.5743    0.2334    0.0000 C   0  0  0  0  0  0  0  0  0  0  0  0
    5.8172    1.7136    0.0000 C   0  0  0  0  0  0  0  0  0  0  0  0
    7.2205    2.2434    0.0000 O   0  0  0  0  0  0  0  0  0  0  0  0
    4.6568    2.6641    0.0000 C   0  0  0  0  0  0  0  0  0  0  0  0
    3.2534    2.1343    0.0000 C   0  0  0  0  0  0  0  0  0  0  0  0
    3.0105    0.6541    0.0000 C   0  0  0  0  0  0  0  0  0  0  0  0
    1.8501    1.6046    0.0000 C   0  0  0  0  0  0  0  0  0  0  0  0
    1.6072    0.1244    0.0000 C   0  0  0  0  0  0  0  0  0  0  0  0
    0.4467    1.0748    0.0000 C   0  0  0  0  0  0  0  0  0  0  0  0
   -0.9566    0.5450    0.0000 C   0  0  0  0  0  0  0  0  0  0  0  0
   -2.1170    1.4955    0.0000 O   0  0  0  0  0  0  0  0  0  0  0  0
   -1.1995   -0.9352    0.0000 C   0  0  0  0  0  0  0  0  0  0  0  0
   -2.4529   -0.1112    0.0000 C   0  0  0  0  0  0  0  0  0  0  0  0
  2  1  1  6
  2  3  1  0
  3  4  1  0
  4  5  1  0
  5  6  2  0
  5  7  1  0
  2  8  1  0
  8  9  1  6
  9 10  1  0
 11 10  1  6
 11 12  1  0
 12 13  1  1
 13 14  1  6
 13 15  1  0
 15 16  1  0
 16 17  1  1
 17 18  1  0
 18 19  1  1
 18 20  1  0
 20 21  1  0
 21 22  1  0
 22 23  1  6
 22 24  1  0
 24 25  1  6
 25 26  1  0
 26 27  2  0
 26 28  1  0
 28 29  1  6
 28  8  1  0
 28 11  1  0
 24 12  1  0
 22 16  1  0
M  END
>  <MS_ID>  (3186) 
MS3316

>  <SMILES>  (3186) 
C[C@H](CCC(=O)O)[C@H]1CC[C@H]2[C@@H]3[C@@H](O)N[C@@H]4C[C@H](O)CC[C@]4(C)[C@H]3CC(=O)[C@]12C

>  <Structure_dimension>  (3186) 
2D

$$$$
MS3317
     RDKit          2D

 28 31  0  0  0  0  0  0  0  0999 V2000
    0.7117   -1.1345    0.0000 C   0  0  0  0  0  0  0  0  0  0  0  0
    1.3916    0.2026    0.0000 C   0  0  0  0  0  0  0  0  0  0  0  0
    2.2095   -1.0548    0.0000 C   0  0  0  0  0  0  0  0  0  0  0  0
    3.7074   -0.9751    0.0000 C   0  0  0  0  0  0  0  0  0  0  0  0
    4.3873    0.3619    0.0000 C   0  0  0  0  0  0  0  0  0  0  0  0
    5.8852    0.4416    0.0000 O   0  0  0  0  0  0  0  0  0  0  0  0
    6.7032   -0.8157    0.0000 S   0  0  0  0  0  0  0  0  0  0  0  0
    5.4458   -1.6337    0.0000 O   0  0  0  0  0  0  0  0  0  0  0  0
    7.9605    0.0022    0.0000 O   0  0  0  0  0  0  0  0  0  0  0  0
    7.5211   -2.0731    0.0000 O   0  0  0  0  0  0  0  0  0  0  0  0
    3.5694    1.6193    0.0000 C   0  0  0  0  0  0  0  0  0  0  0  0
    2.0715    1.5396    0.0000 C   0  0  0  0  0  0  0  0  0  0  0  0
    1.2535    2.7970    0.0000 C   0  0  0  0  0  0  0  0  0  0  0  0
   -0.2443    2.7173    0.0000 C   0  0  0  0  0  0  0  0  0  0  0  0
   -0.9243    1.3802    0.0000 C   0  0  0  0  0  0  0  0  0  0  0  0
   -0.1063    0.1229    0.0000 C   0  0  0  0  0  0  0  0  0  0  0  0
   -0.7862   -1.2142    0.0000 C   0  0  0  0  0  0  0  0  0  0  0  0
   -2.2841   -1.2939    0.0000 C   0  0  0  0  0  0  0  0  0  0  0  0
   -3.1021   -0.0365    0.0000 C   0  0  0  0  0  0  0  0  0  0  0  0
   -3.9180   -1.2952    0.0000 C   0  0  0  0  0  0  0  0  0  0  0  0
   -4.5838    0.1969    0.0000 C   0  0  0  0  0  0  0  0  0  0  0  0
   -5.6436   -0.8646    0.0000 C   0  0  0  0  0  0  0  0  0  0  0  0
   -5.2542   -2.3131    0.0000 O   0  0  0  0  0  0  0  0  0  0  0  0
   -7.0928   -0.4775    0.0000 C   0  0  0  0  0  0  0  0  0  0  0  0
   -8.1526   -1.5390    0.0000 O   0  0  0  0  0  0  0  0  0  0  0  0
   -4.8196    1.6783    0.0000 C   0  0  0  0  0  0  0  0  0  0  0  0
   -3.4836    2.3603    0.0000 C   0  0  0  0  0  0  0  0  0  0  0  0
   -2.4221    1.3005    0.0000 C   0  0  0  0  0  0  0  0  0  0  0  0
  2  1  1  1
  2  3  1  0
  3  4  1  0
  4  5  1  0
  5  6  1  1
  6  7  1  0
  7  8  2  0
  7  9  2  0
  7 10  1  0
  5 11  1  0
 12 11  1  6
 12 13  1  0
 13 14  1  0
 15 14  1  6
 15 16  1  0
 16 17  1  1
 17 18  1  0
 18 19  1  0
 19 20  1  1
 19 21  1  0
 21 22  1  1
 22 23  2  0
 22 24  1  0
 24 25  1  0
 21 26  1  0
 26 27  1  0
 28 27  1  1
 12  2  1  0
 28 15  1  0
 16  2  1  0
 28 19  1  0
M  END
>  <MS_ID>  (3187) 
MS3317

>  <SMILES>  (3187) 
C[C@]12CC[C@H](OS(=O)(=O)O)C[C@H]1CC[C@@H]1[C@@H]2CC[C@]2(C)[C@@H](C(=O)CO)CC[C@@H]12

>  <Structure_dimension>  (3187) 
2D

$$$$
MS3318
     RDKit          2D

 29 32  0  0  0  0  0  0  0  0999 V2000
   -5.5775    2.8248    0.0000 C   0  0  0  0  0  0  0  0  0  0  0  0
   -4.6134    1.6757    0.0000 C   0  0  0  0  0  0  0  0  0  0  0  0
   -5.1265    0.2662    0.0000 C   0  0  0  0  0  0  0  0  0  0  0  0
   -6.6037    0.0058    0.0000 C   0  0  0  0  0  0  0  0  0  0  0  0
   -7.1168   -1.4037    0.0000 C   0  0  0  0  0  0  0  0  0  0  0  0
   -6.1527   -2.5529    0.0000 O   0  0  0  0  0  0  0  0  0  0  0  0
   -8.5940   -1.6641    0.0000 O   0  0  0  0  0  0  0  0  0  0  0  0
   -3.1362    1.9361    0.0000 C   0  0  0  0  0  0  0  0  0  0  0  0
   -2.1720    0.7870    0.0000 C   0  0  0  0  0  0  0  0  0  0  0  0
   -2.5350   -0.6684    0.0000 C   0  0  0  0  0  0  0  0  0  0  0  0
   -1.2630   -1.4634    0.0000 C   0  0  0  0  0  0  0  0  0  0  0  0
   -0.1139   -0.4992    0.0000 C   0  0  0  0  0  0  0  0  0  0  0  0
    1.3715   -0.7081    0.0000 C   0  0  0  0  0  0  0  0  0  0  0  0
    1.9334   -2.0989    0.0000 C   0  0  0  0  0  0  0  0  0  0  0  0
    1.0098   -3.2808    0.0000 O   0  0  0  0  0  0  0  0  0  0  0  0
    3.4188   -2.3077    0.0000 C   0  0  0  0  0  0  0  0  0  0  0  0
    4.3423   -1.1257    0.0000 C   0  0  0  0  0  0  0  0  0  0  0  0
    5.8277   -1.3345    0.0000 C   0  0  0  0  0  0  0  0  0  0  0  0
    6.7513   -0.1526    0.0000 C   0  0  0  0  0  0  0  0  0  0  0  0
    8.2367   -0.3614    0.0000 O   0  0  0  0  0  0  0  0  0  0  0  0
    6.1894    1.2382    0.0000 C   0  0  0  0  0  0  0  0  0  0  0  0
    4.7040    1.4471    0.0000 C   0  0  0  0  0  0  0  0  0  0  0  0
    3.7805    0.2651    0.0000 C   0  0  0  0  0  0  0  0  0  0  0  0
    3.2186    1.6559    0.0000 C   0  0  0  0  0  0  0  0  0  0  0  0
    2.2951    0.4739    0.0000 C   0  0  0  0  0  0  0  0  0  0  0  0
    1.7332    1.8647    0.0000 C   0  0  0  0  0  0  0  0  0  0  0  0
    0.2478    2.0735    0.0000 C   0  0  0  0  0  0  0  0  0  0  0  0
   -0.6757    0.8916    0.0000 C   0  0  0  0  0  0  0  0  0  0  0  0
   -1.3798    2.2160    0.0000 C   0  0  0  0  0  0  0  0  0  0  0  0
  2  1  1  1
  2  3  1  0
  3  4  1  0
  4  5  1  0
  5  6  2  0
  5  7  1  0
  2  8  1  0
  9  8  1  6
  9 10  1  0
 10 11  1  0
 12 11  1  6
 12 13  1  0
 13 14  1  1
 14 15  1  6
 14 16  1  0
 17 16  1  1
 17 18  1  0
 18 19  1  0
 19 20  1  1
 19 21  1  0
 21 22  1  0
 22 23  1  0
 23 24  1  6
 23 25  1  0
 25 26  1  6
 26 27  1  0
 27 28  1  0
 28 29  1  6
 28  9  1  0
 28 12  1  0
 25 13  1  0
 23 17  1  0
M  END
>  <MS_ID>  (3188) 
MS3318

>  <SMILES>  (3188) 
C[C@H](CCC(=O)O)C[C@H]1CC[C@H]2[C@@H]3[C@@H](O)C[C@@H]4C[C@H](O)CC[C@]4(C)[C@H]3CC[C@]12C

>  <Structure_dimension>  (3188) 
2D

$$$$
MS3319
     RDKit          2D

 40 44  0  0  0  0  0  0  0  0999 V2000
   -7.6483    2.4400    0.0000 C   0  0  0  0  0  0  0  0  0  0  0  0
   -6.3413    1.7041    0.0000 S   0  0  0  0  0  0  0  0  0  0  0  0
   -6.3251    0.2041    0.0000 C   0  0  0  0  0  0  0  0  0  0  0  0
   -7.6159   -0.5599    0.0000 C   0  0  0  0  0  0  0  0  0  0  0  0
   -8.9230    0.1761    0.0000 C   0  0  0  0  0  0  0  0  0  0  0  0
  -10.2138   -0.5879    0.0000 C   0  0  0  0  0  0  0  0  0  0  0  0
  -10.1976   -2.0879    0.0000 O   0  0  0  0  0  0  0  0  0  0  0  0
  -11.5209    0.1480    0.0000 O   0  0  0  0  0  0  0  0  0  0  0  0
   -5.0180   -0.5318    0.0000 C   0  0  0  0  0  0  0  0  0  0  0  0
   -4.8451   -2.0218    0.0000 C   0  0  0  0  0  0  0  0  0  0  0  0
   -3.3746   -2.3178    0.0000 C   0  0  0  0  0  0  0  0  0  0  0  0
   -2.6387   -1.0107    0.0000 C   0  0  0  0  0  0  0  0  0  0  0  0
   -1.1749   -0.6830    0.0000 C   0  0  0  0  0  0  0  0  0  0  0  0
   -0.1592   -1.7868    0.0000 C   0  0  0  0  0  0  0  0  0  0  0  0
   -0.6073   -3.2183    0.0000 O   0  0  0  0  0  0  0  0  0  0  0  0
    1.3046   -1.4591    0.0000 C   0  0  0  0  0  0  0  0  0  0  0  0
    1.7526   -0.0276    0.0000 C   0  0  0  0  0  0  0  0  0  0  0  0
    3.2164    0.3001    0.0000 C   0  0  0  0  0  0  0  0  0  0  0  0
    3.6645    1.7316    0.0000 C   0  0  0  0  0  0  0  0  0  0  0  0
    5.1282    2.0594    0.0000 O   0  0  0  0  0  0  0  0  0  0  0  0
    6.1439    0.9556    0.0000 C   0  0  0  0  0  0  0  0  0  0  0  0
    5.6959   -0.4760    0.0000 O   0  0  0  0  0  0  0  0  0  0  0  0
    6.7115   -1.5798    0.0000 C   0  0  0  0  0  0  0  0  0  0  0  0
    6.2635   -3.0113    0.0000 C   0  0  0  0  0  0  0  0  0  0  0  0
    4.7997   -3.3390    0.0000 O   0  0  0  0  0  0  0  0  0  0  0  0
    8.1753   -1.2520    0.0000 C   0  0  0  0  0  0  0  0  0  0  0  0
    9.1910   -2.3559    0.0000 O   0  0  0  0  0  0  0  0  0  0  0  0
    8.6234    0.1795    0.0000 C   0  0  0  0  0  0  0  0  0  0  0  0
   10.0872    0.5072    0.0000 O   0  0  0  0  0  0  0  0  0  0  0  0
    7.6077    1.2833    0.0000 C   0  0  0  0  0  0  0  0  0  0  0  0
    8.0558    2.7148    0.0000 O   0  0  0  0  0  0  0  0  0  0  0  0
    2.6488    2.8355    0.0000 C   0  0  0  0  0  0  0  0  0  0  0  0
    1.1850    2.5077    0.0000 C   0  0  0  0  0  0  0  0  0  0  0  0
    0.7370    1.0762    0.0000 C   0  0  0  0  0  0  0  0  0  0  0  0
   -0.2787    2.1800    0.0000 C   0  0  0  0  0  0  0  0  0  0  0  0
   -0.7268    0.7485    0.0000 C   0  0  0  0  0  0  0  0  0  0  0  0
   -1.7425    1.8523    0.0000 C   0  0  0  0  0  0  0  0  0  0  0  0
   -3.2063    1.5246    0.0000 C   0  0  0  0  0  0  0  0  0  0  0  0
   -3.6543    0.0931    0.0000 C   0  0  0  0  0  0  0  0  0  0  0  0
   -4.7798    1.0847    0.0000 C   0  0  0  0  0  0  0  0  0  0  0  0
  1  2  1  0
  2  3  1  0
  3  4  1  1
  4  5  1  0
  5  6  1  0
  6  7  2  0
  6  8  1  0
  3  9  1  0
  9 10  1  6
 10 11  1  0
 12 11  1  6
 12 13  1  0
 13 14  1  1
 14 15  1  6
 14 16  1  0
 17 16  1  1
 17 18  1  0
 18 19  1  0
 19 20  1  1
 21 20  1  1
 21 22  1  0
 22 23  1  0
 23 24  1  1
 24 25  1  0
 23 26  1  0
 26 27  1  6
 26 28  1  0
 28 29  1  1
 28 30  1  0
 30 31  1  6
 19 32  1  0
 32 33  1  0
 33 34  1  0
 34 35  1  6
 34 36  1  0
 36 37  1  6
 37 38  1  0
 38 39  1  0
 39 40  1  6
 39  9  1  0
 39 12  1  0
 36 13  1  0
 34 17  1  0
 30 21  1  0
M  END
>  <MS_ID>  (3189) 
MS3319

>  <SMILES>  (3189) 
CS[C@H](CCC(=O)O)[C@H]1CC[C@H]2[C@@H]3[C@@H](O)C[C@@H]4C[C@H](O[C@@H]5O[C@H](CO)[C@@H](O)[C@H](O)[C@H]5O)CC[C@]4(C)[C@H]3CC[C@]12C

>  <Structure_dimension>  (3189) 
2D

$$$$
MS3320
     RDKit          2D

 26 29  0  0  0  0  0  0  0  0999 V2000
    2.2096   -1.5070    0.0000 C   0  0  0  0  0  0  0  0  0  0  0  0
    3.0140   -0.2410    0.0000 C   0  0  0  0  0  0  0  0  0  0  0  0
    3.7082   -1.5707    0.0000 C   0  0  0  0  0  0  0  0  0  0  0  0
    5.2068   -1.6344    0.0000 C   0  0  0  0  0  0  0  0  0  0  0  0
    6.0113   -0.3684    0.0000 C   0  0  0  0  0  0  0  0  0  0  0  0
    7.5100   -0.4321    0.0000 O   0  0  0  0  0  0  0  0  0  0  0  0
    5.3172    0.9613    0.0000 C   0  0  0  0  0  0  0  0  0  0  0  0
    3.8185    1.0250    0.0000 C   0  0  0  0  0  0  0  0  0  0  0  0
    3.1244    2.3547    0.0000 C   0  0  0  0  0  0  0  0  0  0  0  0
    1.6257    2.4184    0.0000 C   0  0  0  0  0  0  0  0  0  0  0  0
    0.8212    1.1524    0.0000 C   0  0  0  0  0  0  0  0  0  0  0  0
    1.5154   -0.1773    0.0000 C   0  0  0  0  0  0  0  0  0  0  0  0
    0.7109   -1.4433    0.0000 C   0  0  0  0  0  0  0  0  0  0  0  0
   -0.7877   -1.3796    0.0000 C   0  0  0  0  0  0  0  0  0  0  0  0
   -1.5922   -2.6457    0.0000 O   0  0  0  0  0  0  0  0  0  0  0  0
   -1.4819   -0.0499    0.0000 C   0  0  0  0  0  0  0  0  0  0  0  0
   -2.4143   -1.2249    0.0000 C   0  0  0  0  0  0  0  0  0  0  0  0
   -2.9346    0.3240    0.0000 C   0  0  0  0  0  0  0  0  0  0  0  0
   -4.0909   -0.6315    0.0000 C   0  0  0  0  0  0  0  0  0  0  0  0
   -5.4965   -0.1078    0.0000 C   0  0  0  0  0  0  0  0  0  0  0  0
   -5.7458    1.3714    0.0000 O   0  0  0  0  0  0  0  0  0  0  0  0
   -6.6528   -1.0632    0.0000 C   0  0  0  0  0  0  0  0  0  0  0  0
   -8.0585   -0.5395    0.0000 O   0  0  0  0  0  0  0  0  0  0  0  0
   -3.0278    1.8211    0.0000 C   0  0  0  0  0  0  0  0  0  0  0  0
   -1.6329    2.3724    0.0000 C   0  0  0  0  0  0  0  0  0  0  0  0
   -0.6774    1.2161    0.0000 C   0  0  0  0  0  0  0  0  0  0  0  0
  2  1  1  1
  2  3  1  0
  3  4  1  0
  4  5  1  0
  5  6  2  0
  5  7  1  0
  8  7  1  6
  8  9  1  0
  9 10  1  0
 11 10  1  6
 11 12  1  0
 12 13  1  1
 13 14  1  0
 14 15  1  1
 14 16  1  0
 16 17  1  1
 16 18  1  0
 18 19  1  1
 19 20  1  0
 20 21  2  0
 20 22  1  0
 22 23  1  0
 18 24  1  0
 24 25  1  0
 26 25  1  1
  8  2  1  0
 26 11  1  0
 12  2  1  0
 26 16  1  0
M  END
>  <MS_ID>  (3190) 
MS3320

>  <SMILES>  (3190) 
C[C@]12CCC(=O)C[C@H]1CC[C@@H]1[C@@H]2C[C@@H](O)[C@]2(C)[C@@H](CC(=O)CO)CC[C@@H]12

>  <Structure_dimension>  (3190) 
2D

$$$$
MS3321
     RDKit          2D

 35 38  0  0  0  0  0  0  0  0999 V2000
   -2.0474   -4.3600    0.0000 C   0  0  0  0  0  0  0  0  0  0  0  0
   -1.3346   -3.0401    0.0000 C   0  0  0  0  0  0  0  0  0  0  0  0
   -2.1213   -1.7629    0.0000 C   0  0  0  0  0  0  0  0  0  0  0  0
   -3.6207   -1.8056    0.0000 C   0  0  0  0  0  0  0  0  0  0  0  0
   -4.4073   -0.5284    0.0000 C   0  0  0  0  0  0  0  0  0  0  0  0
   -3.6946    0.7914    0.0000 O   0  0  0  0  0  0  0  0  0  0  0  0
   -5.9067   -0.5711    0.0000 N   0  0  0  0  0  0  0  0  0  0  0  0
   -6.6934    0.7061    0.0000 C   0  0  0  0  0  0  0  0  0  0  0  0
   -8.1928    0.6634    0.0000 C   0  0  0  0  0  0  0  0  0  0  0  0
   -8.9794    1.9406    0.0000 C   0  0  0  0  0  0  0  0  0  0  0  0
  -10.4788    1.8979    0.0000 O   0  0  0  0  0  0  0  0  0  0  0  0
   -5.9806    2.0259    0.0000 C   0  0  0  0  0  0  0  0  0  0  0  0
   -4.4812    2.0686    0.0000 O   0  0  0  0  0  0  0  0  0  0  0  0
   -6.7673    3.3031    0.0000 O   0  0  0  0  0  0  0  0  0  0  0  0
    0.1647   -2.9974    0.0000 C   0  0  0  0  0  0  0  0  0  0  0  0
    1.0806   -4.1854    0.0000 C   0  0  0  0  0  0  0  0  0  0  0  0
    2.4934   -3.6815    0.0000 C   0  0  0  0  0  0  0  0  0  0  0  0
    2.4507   -2.1821    0.0000 C   0  0  0  0  0  0  0  0  0  0  0  0
    3.5365   -1.1471    0.0000 C   0  0  0  0  0  0  0  0  0  0  0  0
    4.9756   -1.5698    0.0000 C   0  0  0  0  0  0  0  0  0  0  0  0
    5.3291   -3.0276    0.0000 O   0  0  0  0  0  0  0  0  0  0  0  0
    6.0614   -0.5348    0.0000 C   0  0  0  0  0  0  0  0  0  0  0  0
    5.7079    0.9229    0.0000 C   0  0  0  0  0  0  0  0  0  0  0  0
    6.7936    1.9579    0.0000 C   0  0  0  0  0  0  0  0  0  0  0  0
    6.4401    3.4157    0.0000 C   0  0  0  0  0  0  0  0  0  0  0  0
    7.5258    4.4507    0.0000 O   0  0  0  0  0  0  0  0  0  0  0  0
    5.0009    3.8384    0.0000 C   0  0  0  0  0  0  0  0  0  0  0  0
    3.9152    2.8034    0.0000 C   0  0  0  0  0  0  0  0  0  0  0  0
    4.2687    1.3457    0.0000 C   0  0  0  0  0  0  0  0  0  0  0  0
    2.8295    1.7684    0.0000 C   0  0  0  0  0  0  0  0  0  0  0  0
    3.1830    0.3107    0.0000 C   0  0  0  0  0  0  0  0  0  0  0  0
    1.7438    0.7334    0.0000 C   0  0  0  0  0  0  0  0  0  0  0  0
    0.6581   -0.3016    0.0000 C   0  0  0  0  0  0  0  0  0  0  0  0
    1.0115   -1.7593    0.0000 C   0  0  0  0  0  0  0  0  0  0  0  0
   -0.4640   -1.4893    0.0000 C   0  0  0  0  0  0  0  0  0  0  0  0
  2  1  1  6
  2  3  1  0
  3  4  1  0
  4  5  1  0
  5  6  2  0
  5  7  1  0
  7  8  1  0
  8  9  1  1
  9 10  1  0
 10 11  1  0
  8 12  1  0
 12 13  2  0
 12 14  1  0
  2 15  1  0
 15 16  1  6
 16 17  1  0
 18 17  1  6
 18 19  1  0
 19 20  1  1
 20 21  1  6
 20 22  1  0
 23 22  1  1
 23 24  1  0
 24 25  1  0
 25 26  1  1
 25 27  1  0
 27 28  1  0
 28 29  1  0
 29 30  1  6
 29 31  1  0
 31 32  1  6
 32 33  1  0
 33 34  1  0
 34 35  1  6
 34 15  1  0
 34 18  1  0
 31 19  1  0
 29 23  1  0
M  END
>  <MS_ID>  (3191) 
MS3321

>  <SMILES>  (3191) 
C[C@H](CCC(=O)N[C@@H](CCO)C(=O)O)[C@H]1CC[C@H]2[C@@H]3[C@@H](O)C[C@@H]4C[C@H](O)CC[C@]4(C)[C@H]3CC[C@]12C

>  <Structure_dimension>  (3191) 
2D

$$$$
MS3322
     RDKit          2D

 32 35  0  0  0  0  0  0  0  0999 V2000
   -3.1421   -3.6694    0.0000 C   0  0  0  0  0  0  0  0  0  0  0  0
   -2.2628   -2.4541    0.0000 C   0  0  0  0  0  0  0  0  0  0  0  0
   -2.8756   -1.0850    0.0000 C   0  0  0  0  0  0  0  0  0  0  0  0
   -4.3676   -0.9311    0.0000 C   0  0  0  0  0  0  0  0  0  0  0  0
   -4.9804    0.4380    0.0000 C   0  0  0  0  0  0  0  0  0  0  0  0
   -4.1011    1.6532    0.0000 O   0  0  0  0  0  0  0  0  0  0  0  0
   -6.4725    0.5919    0.0000 N   0  0  0  0  0  0  0  0  0  0  0  0
   -7.0853    1.9610    0.0000 C   0  0  0  0  0  0  0  0  0  0  0  0
   -8.5774    2.1149    0.0000 C   0  0  0  0  0  0  0  0  0  0  0  0
   -9.4567    0.8996    0.0000 O   0  0  0  0  0  0  0  0  0  0  0  0
   -9.1901    3.4840    0.0000 O   0  0  0  0  0  0  0  0  0  0  0  0
   -0.7707   -2.6080    0.0000 C   0  0  0  0  0  0  0  0  0  0  0  0
   -0.0182   -3.9056    0.0000 C   0  0  0  0  0  0  0  0  0  0  0  0
    1.4484   -3.5909    0.0000 C   0  0  0  0  0  0  0  0  0  0  0  0
    1.6023   -2.0988    0.0000 C   0  0  0  0  0  0  0  0  0  0  0  0
    2.8141   -1.2147    0.0000 C   0  0  0  0  0  0  0  0  0  0  0  0
    4.1856   -1.8222    0.0000 C   0  0  0  0  0  0  0  0  0  0  0  0
    4.3453   -3.3136    0.0000 O   0  0  0  0  0  0  0  0  0  0  0  0
    5.3974   -0.9381    0.0000 C   0  0  0  0  0  0  0  0  0  0  0  0
    5.2377    0.5533    0.0000 C   0  0  0  0  0  0  0  0  0  0  0  0
    6.4495    1.4374    0.0000 N   0  0  0  0  0  0  0  0  0  0  0  0
    6.2898    2.9289    0.0000 C   0  0  0  0  0  0  0  0  0  0  0  0
    7.5016    3.8129    0.0000 O   0  0  0  0  0  0  0  0  0  0  0  0
    4.9183    3.5363    0.0000 C   0  0  0  0  0  0  0  0  0  0  0  0
    3.7065    2.6522    0.0000 C   0  0  0  0  0  0  0  0  0  0  0  0
    3.8662    1.1608    0.0000 C   0  0  0  0  0  0  0  0  0  0  0  0
    2.4947    1.7682    0.0000 C   0  0  0  0  0  0  0  0  0  0  0  0
    2.6544    0.2767    0.0000 C   0  0  0  0  0  0  0  0  0  0  0  0
    1.2829    0.8842    0.0000 C   0  0  0  0  0  0  0  0  0  0  0  0
    0.0711    0.0001    0.0000 C   0  0  0  0  0  0  0  0  0  0  0  0
    0.2308   -1.4914    0.0000 C   0  0  0  0  0  0  0  0  0  0  0  0
   -1.1967   -1.0306    0.0000 C   0  0  0  0  0  0  0  0  0  0  0  0
  2  1  1  6
  2  3  1  0
  3  4  1  0
  4  5  1  0
  5  6  2  0
  5  7  1  0
  7  8  1  0
  8  9  1  0
  9 10  2  0
  9 11  1  0
  2 12  1  0
 12 13  1  6
 13 14  1  0
 15 14  1  6
 15 16  1  0
 16 17  1  1
 17 18  1  6
 17 19  1  0
 20 19  1  1
 20 21  1  0
 21 22  1  0
 22 23  1  1
 22 24  1  0
 24 25  1  0
 25 26  1  0
 26 27  1  6
 26 28  1  0
 28 29  1  6
 29 30  1  0
 30 31  1  0
 31 32  1  6
 31 12  1  0
 31 15  1  0
 28 16  1  0
 26 20  1  0
M  END
>  <MS_ID>  (3192) 
MS3322

>  <SMILES>  (3192) 
C[C@H](CCC(=O)NCC(=O)O)[C@H]1CC[C@H]2[C@@H]3[C@@H](O)C[C@@H]4N[C@H](O)CC[C@]4(C)[C@H]3CC[C@]12C

>  <Structure_dimension>  (3192) 
2D

$$$$
MS3323
     RDKit          2D

 26 29  0  0  0  0  0  0  0  0999 V2000
   -5.4538   -1.1866    0.0000 C   0  0  0  0  0  0  0  0  0  0  0  0
   -4.1562   -0.4342    0.0000 C   0  0  0  0  0  0  0  0  0  0  0  0
   -4.1590    1.0658    0.0000 C   0  0  0  0  0  0  0  0  0  0  0  0
   -5.4594    1.8134    0.0000 C   0  0  0  0  0  0  0  0  0  0  0  0
   -6.7571    1.0609    0.0000 O   0  0  0  0  0  0  0  0  0  0  0  0
   -5.4623    3.3134    0.0000 O   0  0  0  0  0  0  0  0  0  0  0  0
   -2.8557   -1.1817    0.0000 C   0  0  0  0  0  0  0  0  0  0  0  0
   -2.6961   -2.6732    0.0000 C   0  0  0  0  0  0  0  0  0  0  0  0
   -1.2283   -2.9823    0.0000 C   0  0  0  0  0  0  0  0  0  0  0  0
   -0.4808   -1.6818    0.0000 C   0  0  0  0  0  0  0  0  0  0  0  0
    0.9859   -1.3672    0.0000 C   0  0  0  0  0  0  0  0  0  0  0  0
    1.9917   -2.4800    0.0000 C   0  0  0  0  0  0  0  0  0  0  0  0
    3.4583   -2.1654    0.0000 C   0  0  0  0  0  0  0  0  0  0  0  0
    3.9191   -0.7379    0.0000 C   0  0  0  0  0  0  0  0  0  0  0  0
    5.3858   -0.4233    0.0000 C   0  0  0  0  0  0  0  0  0  0  0  0
    5.8466    1.0042    0.0000 C   0  0  0  0  0  0  0  0  0  0  0  0
    7.3132    1.3188    0.0000 O   0  0  0  0  0  0  0  0  0  0  0  0
    4.8408    2.1170    0.0000 C   0  0  0  0  0  0  0  0  0  0  0  0
    3.3742    1.8023    0.0000 C   0  0  0  0  0  0  0  0  0  0  0  0
    2.9133    0.3749    0.0000 C   0  0  0  0  0  0  0  0  0  0  0  0
    1.9075    1.4877    0.0000 C   0  0  0  0  0  0  0  0  0  0  0  0
    1.4467    0.0602    0.0000 C   0  0  0  0  0  0  0  0  0  0  0  0
    0.4409    1.1731    0.0000 C   0  0  0  0  0  0  0  0  0  0  0  0
   -1.0257    0.8584    0.0000 C   0  0  0  0  0  0  0  0  0  0  0  0
   -1.4866   -0.5690    0.0000 C   0  0  0  0  0  0  0  0  0  0  0  0
   -2.6032    0.4326    0.0000 C   0  0  0  0  0  0  0  0  0  0  0  0
  2  1  1  6
  2  3  1  0
  3  4  1  0
  4  5  2  0
  4  6  1  0
  2  7  1  0
  7  8  1  6
  8  9  1  0
 10  9  1  6
 10 11  1  0
 11 12  1  1
 12 13  1  0
 14 13  1  1
 14 15  1  0
 15 16  1  0
 16 17  2  0
 16 18  1  0
 18 19  1  0
 19 20  1  0
 20 21  1  6
 20 22  1  0
 22 23  1  6
 23 24  1  0
 24 25  1  0
 25 26  1  6
 25  7  1  0
 25 10  1  0
 22 11  1  0
 20 14  1  0
M  END
>  <MS_ID>  (3193) 
MS3323

>  <SMILES>  (3193) 
C[C@H](CC(=O)O)[C@H]1CC[C@H]2[C@@H]3CC[C@@H]4CC(=O)CC[C@]4(C)[C@H]3CC[C@]12C

>  <Structure_dimension>  (3193) 
2D

$$$$
MS3324
     RDKit          2D

 32 35  0  0  0  0  0  0  0  0999 V2000
   -4.7094   -2.5059    0.0000 C   0  0  0  0  0  0  0  0  0  0  0  0
   -3.5755   -1.5238    0.0000 C   0  0  0  0  0  0  0  0  0  0  0  0
   -3.8591   -0.0509    0.0000 C   0  0  0  0  0  0  0  0  0  0  0  0
   -5.2765    0.4400    0.0000 C   0  0  0  0  0  0  0  0  0  0  0  0
   -5.5600    1.9130    0.0000 C   0  0  0  0  0  0  0  0  0  0  0  0
   -4.4261    2.8950    0.0000 O   0  0  0  0  0  0  0  0  0  0  0  0
   -6.9774    2.4039    0.0000 O   0  0  0  0  0  0  0  0  0  0  0  0
   -2.1581   -2.0148    0.0000 C   0  0  0  0  0  0  0  0  0  0  0  0
   -1.7222   -3.4500    0.0000 C   0  0  0  0  0  0  0  0  0  0  0  0
   -0.2225   -3.4789    0.0000 C   0  0  0  0  0  0  0  0  0  0  0  0
    0.2685   -2.0615    0.0000 C   0  0  0  0  0  0  0  0  0  0  0  0
    1.6503   -1.4779    0.0000 C   0  0  0  0  0  0  0  0  0  0  0  0
    2.8466   -2.3828    0.0000 C   0  0  0  0  0  0  0  0  0  0  0  0
    2.6611   -3.8713    0.0000 O   0  0  0  0  0  0  0  0  0  0  0  0
    4.2284   -1.7992    0.0000 C   0  0  0  0  0  0  0  0  0  0  0  0
    4.4139   -0.3108    0.0000 C   0  0  0  0  0  0  0  0  0  0  0  0
    5.7957    0.2728    0.0000 C   0  0  0  0  0  0  0  0  0  0  0  0
    5.9812    1.7613    0.0000 C   0  0  0  0  0  0  0  0  0  0  0  0
    7.3631    2.3449    0.0000 O   0  0  0  0  0  0  0  0  0  0  0  0
    4.7849    2.6662    0.0000 C   0  0  0  0  0  0  0  0  0  0  0  0
    3.4031    2.0826    0.0000 C   0  0  0  0  0  0  0  0  0  0  0  0
    3.2176    0.5941    0.0000 C   0  0  0  0  0  0  0  0  0  0  0  0
    2.0213    1.4990    0.0000 C   0  0  0  0  0  0  0  0  0  0  0  0
    1.8358    0.0105    0.0000 C   0  0  0  0  0  0  0  0  0  0  0  0
    0.6395    0.9154    0.0000 C   0  0  0  0  0  0  0  0  0  0  0  0
   -0.7423    0.3319    0.0000 C   0  0  0  0  0  0  0  0  0  0  0  0
   -0.9279   -1.1566    0.0000 C   0  0  0  0  0  0  0  0  0  0  0  0
   -2.2122   -0.3817    0.0000 O   0  0  0  0  0  0  0  0  0  0  0  0
   -2.1833    1.1180    0.0000 S   0  0  0  0  0  0  0  0  0  0  0  0
   -0.7211    1.4528    0.0000 O   0  0  0  0  0  0  0  0  0  0  0  0
   -3.6830    1.1469    0.0000 O   0  0  0  0  0  0  0  0  0  0  0  0
   -2.1544    2.6177    0.0000 O   0  0  0  0  0  0  0  0  0  0  0  0
  2  1  1  6
  2  3  1  0
  3  4  1  0
  4  5  1  0
  5  6  2  0
  5  7  1  0
  2  8  1  0
  8  9  1  6
  9 10  1  0
 11 10  1  6
 11 12  1  0
 12 13  1  1
 13 14  1  6
 13 15  1  0
 16 15  1  1
 16 17  1  0
 17 18  1  0
 18 19  1  1
 18 20  1  0
 20 21  1  0
 21 22  1  0
 22 23  1  6
 22 24  1  0
 24 25  1  6
 25 26  1  0
 26 27  1  0
 27 28  1  6
 28 29  1  0
 29 30  2  0
 29 31  2  0
 29 32  1  0
 27  8  1  0
 27 11  1  0
 24 12  1  0
 22 16  1  0
M  END
>  <MS_ID>  (3194) 
MS3324

>  <SMILES>  (3194) 
C[C@H](CCC(=O)O)[C@H]1CC[C@H]2[C@@H]3[C@@H](O)C[C@@H]4C[C@H](O)CC[C@]4(C)[C@H]3CC[C@]12OS(=O)(=O)O

>  <Structure_dimension>  (3194) 
2D

$$$$
MS3325
     RDKit          2D

 29 32  0  0  0  0  0  0  0  0999 V2000
    1.0647   -1.2040    0.0000 C   0  0  0  0  0  0  0  0  0  0  0  0
    1.7097    0.1503    0.0000 C   0  0  0  0  0  0  0  0  0  0  0  0
    2.5600   -1.0854    0.0000 C   0  0  0  0  0  0  0  0  0  0  0  0
    4.0553   -0.9668    0.0000 C   0  0  0  0  0  0  0  0  0  0  0  0
    4.7003    0.3875    0.0000 C   0  0  0  0  0  0  0  0  0  0  0  0
    6.1956    0.5061    0.0000 O   0  0  0  0  0  0  0  0  0  0  0  0
    7.0459   -0.7295    0.0000 S   0  0  0  0  0  0  0  0  0  0  0  0
    5.8103   -1.5799    0.0000 O   0  0  0  0  0  0  0  0  0  0  0  0
    8.2816    0.1208    0.0000 O   0  0  0  0  0  0  0  0  0  0  0  0
    7.8963   -1.9652    0.0000 O   0  0  0  0  0  0  0  0  0  0  0  0
    3.8499    1.6232    0.0000 C   0  0  0  0  0  0  0  0  0  0  0  0
    2.3546    1.5046    0.0000 C   0  0  0  0  0  0  0  0  0  0  0  0
    1.5042    2.7402    0.0000 C   0  0  0  0  0  0  0  0  0  0  0  0
    0.0089    2.6216    0.0000 C   0  0  0  0  0  0  0  0  0  0  0  0
   -0.6360    1.2673    0.0000 C   0  0  0  0  0  0  0  0  0  0  0  0
    0.2143    0.0317    0.0000 C   0  0  0  0  0  0  0  0  0  0  0  0
   -0.4306   -1.3226    0.0000 C   0  0  0  0  0  0  0  0  0  0  0  0
   -1.9259   -1.4412    0.0000 C   0  0  0  0  0  0  0  0  0  0  0  0
   -2.7763   -0.2056    0.0000 C   0  0  0  0  0  0  0  0  0  0  0  0
   -3.5592   -1.4850    0.0000 C   0  0  0  0  0  0  0  0  0  0  0  0
   -4.2635   -0.0107    0.0000 C   0  0  0  0  0  0  0  0  0  0  0  0
   -5.2954   -1.0994    0.0000 O   0  0  0  0  0  0  0  0  0  0  0  0
   -6.7542   -0.7501    0.0000 S   0  0  0  0  0  0  0  0  0  0  0  0
   -6.4049    0.7086    0.0000 O   0  0  0  0  0  0  0  0  0  0  0  0
   -7.1034   -2.2089    0.0000 O   0  0  0  0  0  0  0  0  0  0  0  0
   -8.2129   -0.4009    0.0000 O   0  0  0  0  0  0  0  0  0  0  0  0
   -4.5378    1.4640    0.0000 C   0  0  0  0  0  0  0  0  0  0  0  0
   -3.2200    2.1806    0.0000 C   0  0  0  0  0  0  0  0  0  0  0  0
   -2.1313    1.1487    0.0000 C   0  0  0  0  0  0  0  0  0  0  0  0
  2  1  1  1
  2  3  1  0
  3  4  1  0
  4  5  1  0
  5  6  1  6
  6  7  1  0
  7  8  2  0
  7  9  2  0
  7 10  1  0
  5 11  1  0
 12 11  1  6
 12 13  1  0
 13 14  1  0
 15 14  1  6
 15 16  1  0
 16 17  1  1
 17 18  1  0
 18 19  1  0
 19 20  1  1
 19 21  1  0
 21 22  1  6
 22 23  1  0
 23 24  2  0
 23 25  2  0
 23 26  1  0
 21 27  1  0
 27 28  1  0
 29 28  1  1
 12  2  1  0
 29 15  1  0
 16  2  1  0
 29 19  1  0
M  END
>  <MS_ID>  (3195) 
MS3325

>  <SMILES>  (3195) 
C[C@]12CC[C@@H](OS(=O)(=O)O)C[C@H]1CC[C@@H]1[C@@H]2CC[C@]2(C)[C@H](OS(=O)(=O)O)CC[C@@H]12

>  <Structure_dimension>  (3195) 
2D

$$$$
MS3326
     RDKit          2D

 28 31  0  0  0  0  0  0  0  0999 V2000
   -5.1275   -2.0302    0.0000 C   0  0  0  0  0  0  0  0  0  0  0  0
   -3.9468   -1.1050    0.0000 C   0  0  0  0  0  0  0  0  0  0  0  0
   -4.1576    0.3801    0.0000 C   0  0  0  0  0  0  0  0  0  0  0  0
   -5.5492    0.9401    0.0000 O   0  0  0  0  0  0  0  0  0  0  0  0
   -5.7600    2.4252    0.0000 C   0  0  0  0  0  0  0  0  0  0  0  0
   -4.5793    3.3503    0.0000 O   0  0  0  0  0  0  0  0  0  0  0  0
   -7.1516    2.9851    0.0000 O   0  0  0  0  0  0  0  0  0  0  0  0
   -2.5552   -1.6650    0.0000 C   0  0  0  0  0  0  0  0  0  0  0  0
   -2.1903   -3.1199    0.0000 C   0  0  0  0  0  0  0  0  0  0  0  0
   -0.6938   -3.2225    0.0000 C   0  0  0  0  0  0  0  0  0  0  0  0
   -0.1339   -1.8309    0.0000 C   0  0  0  0  0  0  0  0  0  0  0  0
    1.2750   -1.3159    0.0000 C   0  0  0  0  0  0  0  0  0  0  0  0
    2.4254   -2.2785    0.0000 C   0  0  0  0  0  0  0  0  0  0  0  0
    2.1670   -3.7560    0.0000 O   0  0  0  0  0  0  0  0  0  0  0  0
    3.8342   -1.7635    0.0000 C   0  0  0  0  0  0  0  0  0  0  0  0
    4.0926   -0.2859    0.0000 C   0  0  0  0  0  0  0  0  0  0  0  0
    5.5014    0.2291    0.0000 C   0  0  0  0  0  0  0  0  0  0  0  0
    5.7598    1.7067    0.0000 C   0  0  0  0  0  0  0  0  0  0  0  0
    7.1687    2.2217    0.0000 O   0  0  0  0  0  0  0  0  0  0  0  0
    4.6094    2.6692    0.0000 C   0  0  0  0  0  0  0  0  0  0  0  0
    3.2006    2.1542    0.0000 C   0  0  0  0  0  0  0  0  0  0  0  0
    2.9422    0.6767    0.0000 C   0  0  0  0  0  0  0  0  0  0  0  0
    1.7918    1.6392    0.0000 C   0  0  0  0  0  0  0  0  0  0  0  0
    1.5334    0.1617    0.0000 C   0  0  0  0  0  0  0  0  0  0  0  0
    0.3830    1.1242    0.0000 C   0  0  0  0  0  0  0  0  0  0  0  0
   -1.0259    0.6093    0.0000 C   0  0  0  0  0  0  0  0  0  0  0  0
   -1.2843   -0.8683    0.0000 C   0  0  0  0  0  0  0  0  0  0  0  0
   -2.5290   -0.0313    0.0000 C   0  0  0  0  0  0  0  0  0  0  0  0
  2  1  1  6
  2  3  1  0
  3  4  1  0
  4  5  1  0
  5  6  2  0
  5  7  1  0
  2  8  1  0
  8  9  1  6
  9 10  1  0
 11 10  1  6
 11 12  1  0
 12 13  1  1
 13 14  1  6
 13 15  1  0
 16 15  1  1
 16 17  1  0
 17 18  1  0
 18 19  1  1
 18 20  1  0
 20 21  1  0
 21 22  1  0
 22 23  1  6
 22 24  1  0
 24 25  1  6
 25 26  1  0
 26 27  1  0
 27 28  1  6
 27  8  1  0
 27 11  1  0
 24 12  1  0
 22 16  1  0
M  END
>  <MS_ID>  (3196) 
MS3326

>  <SMILES>  (3196) 
C[C@H](COC(=O)O)[C@H]1CC[C@H]2[C@@H]3[C@@H](O)C[C@@H]4C[C@H](O)CC[C@]4(C)[C@H]3CC[C@]12C

>  <Structure_dimension>  (3196) 
2D

$$$$
MS3327
     RDKit          2D

 34 37  0  0  0  0  0  0  0  0999 V2000
   -4.7361   -2.9142    0.0000 C   0  0  0  0  0  0  0  0  0  0  0  0
   -3.6169   -1.9155    0.0000 C   0  0  0  0  0  0  0  0  0  0  0  0
   -3.9221   -0.4469    0.0000 C   0  0  0  0  0  0  0  0  0  0  0  0
   -5.3466    0.0231    0.0000 C   0  0  0  0  0  0  0  0  0  0  0  0
   -5.6518    1.4917    0.0000 C   0  0  0  0  0  0  0  0  0  0  0  0
   -4.5326    2.4903    0.0000 O   0  0  0  0  0  0  0  0  0  0  0  0
   -7.0763    1.9617    0.0000 O   0  0  0  0  0  0  0  0  0  0  0  0
   -2.1924   -2.3855    0.0000 C   0  0  0  0  0  0  0  0  0  0  0  0
   -1.7353   -3.8141    0.0000 C   0  0  0  0  0  0  0  0  0  0  0  0
   -0.2353   -3.8209    0.0000 C   0  0  0  0  0  0  0  0  0  0  0  0
    0.2346   -2.3964    0.0000 C   0  0  0  0  0  0  0  0  0  0  0  0
    1.6077   -1.7925    0.0000 C   0  0  0  0  0  0  0  0  0  0  0  0
    2.8172   -2.6797    0.0000 C   0  0  0  0  0  0  0  0  0  0  0  0
    2.6537   -4.1707    0.0000 O   0  0  0  0  0  0  0  0  0  0  0  0
    4.1903   -2.0757    0.0000 C   0  0  0  0  0  0  0  0  0  0  0  0
    4.3538   -0.5847    0.0000 C   0  0  0  0  0  0  0  0  0  0  0  0
    5.7269    0.0192    0.0000 C   0  0  0  0  0  0  0  0  0  0  0  0
    5.8904    1.5103    0.0000 C   0  0  0  0  0  0  0  0  0  0  0  0
    7.2635    2.1142    0.0000 O   0  0  0  0  0  0  0  0  0  0  0  0
    4.6809    2.3974    0.0000 C   0  0  0  0  0  0  0  0  0  0  0  0
    3.3078    1.7935    0.0000 C   0  0  0  0  0  0  0  0  0  0  0  0
    3.1443    0.3025    0.0000 C   0  0  0  0  0  0  0  0  0  0  0  0
    1.9348    1.1896    0.0000 C   0  0  0  0  0  0  0  0  0  0  0  0
    1.7712   -0.3015    0.0000 C   0  0  0  0  0  0  0  0  0  0  0  0
    0.5617    0.5857    0.0000 C   0  0  0  0  0  0  0  0  0  0  0  0
   -0.8114   -0.0182    0.0000 C   0  0  0  0  0  0  0  0  0  0  0  0
   -0.9749   -1.5093    0.0000 C   0  0  0  0  0  0  0  0  0  0  0  0
   -2.2705   -0.7534    0.0000 O   0  0  0  0  0  0  0  0  0  0  0  0
   -2.2638    0.7466    0.0000 C   0  0  0  0  0  0  0  0  0  0  0  0
   -0.9613    1.4907    0.0000 O   0  0  0  0  0  0  0  0  0  0  0  0
   -0.9546    2.9907    0.0000 P   0  0  0  0  0  0  0  0  0  0  0  0
    0.5454    2.9839    0.0000 O   0  0  0  0  0  0  0  0  0  0  0  0
   -2.4546    2.9975    0.0000 O   0  0  0  0  0  0  0  0  0  0  0  0
   -0.9478    4.4907    0.0000 O   0  0  0  0  0  0  0  0  0  0  0  0
  2  1  1  6
  2  3  1  0
  3  4  1  0
  4  5  1  0
  5  6  2  0
  5  7  1  0
  2  8  1  0
  8  9  1  6
  9 10  1  0
 11 10  1  6
 11 12  1  0
 12 13  1  1
 13 14  1  6
 13 15  1  0
 16 15  1  1
 16 17  1  0
 17 18  1  0
 18 19  1  1
 18 20  1  0
 20 21  1  0
 21 22  1  0
 22 23  1  6
 22 24  1  0
 24 25  1  6
 25 26  1  0
 26 27  1  0
 27 28  1  6
 28 29  1  0
 29 30  1  0
 30 31  1  0
 31 32  2  0
 31 33  1  0
 31 34  1  0
 27  8  1  0
 27 11  1  0
 24 12  1  0
 22 16  1  0
M  END
>  <MS_ID>  (3197) 
MS3327

>  <SMILES>  (3197) 
C[C@H](CCC(=O)O)[C@H]1CC[C@H]2[C@@H]3[C@@H](O)C[C@@H]4C[C@H](O)CC[C@]4(C)[C@H]3CC[C@]12OCOP(=O)(O)O

>  <Structure_dimension>  (3197) 
2D

$$$$
MS3328
     RDKit          2D

 29 32  0  0  0  0  0  0  0  0999 V2000
   -4.5794    2.7226    0.0000 C   0  0  0  0  0  0  0  0  0  0  0  0
   -3.3580    1.8519    0.0000 S   0  0  0  0  0  0  0  0  0  0  0  0
   -3.5014    0.3587    0.0000 C   0  0  0  0  0  0  0  0  0  0  0  0
   -4.8662   -0.2637    0.0000 C   0  0  0  0  0  0  0  0  0  0  0  0
   -6.0876    0.6071    0.0000 C   0  0  0  0  0  0  0  0  0  0  0  0
   -7.4524   -0.0153    0.0000 C   0  0  0  0  0  0  0  0  0  0  0  0
   -7.5958   -1.5084    0.0000 O   0  0  0  0  0  0  0  0  0  0  0  0
   -8.6738    0.8554    0.0000 O   0  0  0  0  0  0  0  0  0  0  0  0
   -2.2800   -0.5120    0.0000 C   0  0  0  0  0  0  0  0  0  0  0  0
   -2.2665   -2.0119    0.0000 C   0  0  0  0  0  0  0  0  0  0  0  0
   -0.8358   -2.4626    0.0000 C   0  0  0  0  0  0  0  0  0  0  0  0
    0.0349   -1.2412    0.0000 C   0  0  0  0  0  0  0  0  0  0  0  0
    1.5252   -1.0710    0.0000 C   0  0  0  0  0  0  0  0  0  0  0  0
    2.4178   -2.2766    0.0000 C   0  0  0  0  0  0  0  0  0  0  0  0
    1.8200   -3.6523    0.0000 O   0  0  0  0  0  0  0  0  0  0  0  0
    3.9081   -2.1064    0.0000 C   0  0  0  0  0  0  0  0  0  0  0  0
    4.5058   -0.7307    0.0000 C   0  0  0  0  0  0  0  0  0  0  0  0
    5.9961   -0.5605    0.0000 C   0  0  0  0  0  0  0  0  0  0  0  0
    6.5939    0.8153    0.0000 C   0  0  0  0  0  0  0  0  0  0  0  0
    8.0842    0.9855    0.0000 N   0  0  0  0  0  0  0  0  0  0  0  0
    5.7014    2.0208    0.0000 C   0  0  0  0  0  0  0  0  0  0  0  0
    4.2111    1.8506    0.0000 C   0  0  0  0  0  0  0  0  0  0  0  0
    3.6133    0.4749    0.0000 C   0  0  0  0  0  0  0  0  0  0  0  0
    2.7207    1.6805    0.0000 C   0  0  0  0  0  0  0  0  0  0  0  0
    2.1230    0.3047    0.0000 C   0  0  0  0  0  0  0  0  0  0  0  0
    1.2304    1.5103    0.0000 C   0  0  0  0  0  0  0  0  0  0  0  0
   -0.2599    1.3401    0.0000 C   0  0  0  0  0  0  0  0  0  0  0  0
   -0.8577   -0.0357    0.0000 C   0  0  0  0  0  0  0  0  0  0  0  0
   -1.8713    1.0700    0.0000 C   0  0  0  0  0  0  0  0  0  0  0  0
  1  2  1  0
  2  3  1  0
  3  4  1  1
  4  5  1  0
  5  6  1  0
  6  7  2  0
  6  8  1  0
  3  9  1  0
  9 10  1  6
 10 11  1  0
 12 11  1  6
 12 13  1  0
 13 14  1  1
 14 15  1  6
 14 16  1  0
 17 16  1  1
 17 18  1  0
 18 19  1  0
 19 20  1  1
 19 21  1  0
 21 22  1  0
 22 23  1  0
 23 24  1  6
 23 25  1  0
 25 26  1  6
 26 27  1  0
 27 28  1  0
 28 29  1  6
 28  9  1  0
 28 12  1  0
 25 13  1  0
 23 17  1  0
M  END
>  <MS_ID>  (3198) 
MS3328

>  <SMILES>  (3198) 
CS[C@H](CCC(=O)O)[C@H]1CC[C@H]2[C@@H]3[C@@H](O)C[C@@H]4C[C@H](N)CC[C@]4(C)[C@H]3CC[C@]12C

>  <Structure_dimension>  (3198) 
2D

$$$$
MS3329
     RDKit          2D

 40 43  0  0  0  0  0  0  0  0999 V2000
   -0.4115   -4.7292    0.0000 C   0  0  0  0  0  0  0  0  0  0  0  0
    0.1430   -3.3354    0.0000 C   0  0  0  0  0  0  0  0  0  0  0  0
   -0.7868   -2.1583    0.0000 C   0  0  0  0  0  0  0  0  0  0  0  0
   -2.2710   -2.3750    0.0000 C   0  0  0  0  0  0  0  0  0  0  0  0
   -3.2008   -1.1979    0.0000 C   0  0  0  0  0  0  0  0  0  0  0  0
   -2.6463    0.1958    0.0000 O   0  0  0  0  0  0  0  0  0  0  0  0
   -4.6851   -1.4146    0.0000 N   0  0  0  0  0  0  0  0  0  0  0  0
   -5.6149   -0.2375    0.0000 C   0  0  0  0  0  0  0  0  0  0  0  0
   -7.0991   -0.4542    0.0000 C   0  0  0  0  0  0  0  0  0  0  0  0
   -8.0289    0.7229    0.0000 C   0  0  0  0  0  0  0  0  0  0  0  0
   -9.5132    0.5062    0.0000 C   0  0  0  0  0  0  0  0  0  0  0  0
  -10.4430    1.6833    0.0000 N   0  0  0  0  0  0  0  0  0  0  0  0
  -11.9272    1.4666    0.0000 C   0  0  0  0  0  0  0  0  0  0  0  0
  -12.4817    0.0728    0.0000 N   0  0  0  0  0  0  0  0  0  0  0  0
  -12.8570    2.6437    0.0000 N   0  0  0  0  0  0  0  0  0  0  0  0
   -5.0604    1.1562    0.0000 C   0  0  0  0  0  0  0  0  0  0  0  0
   -3.5761    1.3729    0.0000 O   0  0  0  0  0  0  0  0  0  0  0  0
   -5.9902    2.3333    0.0000 O   0  0  0  0  0  0  0  0  0  0  0  0
    1.6273   -3.1187    0.0000 C   0  0  0  0  0  0  0  0  0  0  0  0
    2.6750   -4.1922    0.0000 C   0  0  0  0  0  0  0  0  0  0  0  0
    4.0197   -3.5274    0.0000 C   0  0  0  0  0  0  0  0  0  0  0  0
    3.8030   -2.0432    0.0000 C   0  0  0  0  0  0  0  0  0  0  0  0
    4.7610   -0.8890    0.0000 C   0  0  0  0  0  0  0  0  0  0  0  0
    6.2396   -1.1416    0.0000 C   0  0  0  0  0  0  0  0  0  0  0  0
    6.7602   -2.5483    0.0000 O   0  0  0  0  0  0  0  0  0  0  0  0
    7.1977    0.0126    0.0000 C   0  0  0  0  0  0  0  0  0  0  0  0
    8.6762   -0.2400    0.0000 O   0  0  0  0  0  0  0  0  0  0  0  0
    6.6771    1.4194    0.0000 C   0  0  0  0  0  0  0  0  0  0  0  0
    7.6352    2.5736    0.0000 C   0  0  0  0  0  0  0  0  0  0  0  0
    7.1146    3.9804    0.0000 C   0  0  0  0  0  0  0  0  0  0  0  0
    8.0727    5.1346    0.0000 O   0  0  0  0  0  0  0  0  0  0  0  0
    5.6360    4.2330    0.0000 C   0  0  0  0  0  0  0  0  0  0  0  0
    4.6780    3.0788    0.0000 C   0  0  0  0  0  0  0  0  0  0  0  0
    5.1985    1.6720    0.0000 C   0  0  0  0  0  0  0  0  0  0  0  0
    3.7200    1.9246    0.0000 C   0  0  0  0  0  0  0  0  0  0  0  0
    4.2405    0.5178    0.0000 C   0  0  0  0  0  0  0  0  0  0  0  0
    2.7619    0.7704    0.0000 C   0  0  0  0  0  0  0  0  0  0  0  0
    1.8039   -0.3838    0.0000 C   0  0  0  0  0  0  0  0  0  0  0  0
    2.3244   -1.7906    0.0000 C   0  0  0  0  0  0  0  0  0  0  0  0
    0.8275   -1.6939    0.0000 C   0  0  0  0  0  0  0  0  0  0  0  0
  2  1  1  6
  2  3  1  0
  3  4  1  0
  4  5  1  0
  5  6  2  0
  5  7  1  0
  7  8  1  0
  8  9  1  1
  9 10  1  0
 10 11  1  0
 11 12  1  0
 12 13  1  0
 13 14  2  0
 13 15  1  0
  8 16  1  0
 16 17  2  0
 16 18  1  0
  2 19  1  0
 19 20  1  6
 20 21  1  0
 22 21  1  6
 22 23  1  0
 23 24  1  1
 24 25  1  6
 24 26  1  0
 26 27  1  6
 26 28  1  0
 28 29  1  1
 29 30  1  0
 30 31  1  1
 30 32  1  0
 32 33  1  0
 33 34  1  0
 34 35  1  6
 34 36  1  0
 36 37  1  6
 37 38  1  0
 38 39  1  0
 39 40  1  6
 39 19  1  0
 39 22  1  0
 36 23  1  0
 34 28  1  0
M  END
>  <MS_ID>  (3199) 
MS3329

>  <SMILES>  (3199) 
C[C@H](CCC(=O)N[C@@H](CCCNC(=N)N)C(=O)O)[C@H]1CC[C@H]2[C@@H]3[C@@H](O)[C@@H](O)[C@@H]4C[C@H](O)CC[C@]4(C)[C@H]3CC[C@]12C

>  <Structure_dimension>  (3199) 
2D

$$$$
MS3330
     RDKit          2D

 23 26  0  0  0  0  0  0  0  0999 V2000
   -5.8886   -0.2148    0.0000 C   0  0  0  0  0  0  0  0  0  0  0  0
   -4.5075    0.3703    0.0000 C   0  0  0  0  0  0  0  0  0  0  0  0
   -4.3236    1.8590    0.0000 O   0  0  0  0  0  0  0  0  0  0  0  0
   -3.3102   -0.5332    0.0000 C   0  0  0  0  0  0  0  0  0  0  0  0
   -3.3374   -2.0330    0.0000 C   0  0  0  0  0  0  0  0  0  0  0  0
   -1.9195   -2.5224    0.0000 C   0  0  0  0  0  0  0  0  0  0  0  0
   -1.0159   -1.3251    0.0000 C   0  0  0  0  0  0  0  0  0  0  0  0
    0.4785   -1.1954    0.0000 C   0  0  0  0  0  0  0  0  0  0  0  0
    1.3380   -2.4247    0.0000 C   0  0  0  0  0  0  0  0  0  0  0  0
    2.8323   -2.2951    0.0000 C   0  0  0  0  0  0  0  0  0  0  0  0
    3.4672   -0.9361    0.0000 C   0  0  0  0  0  0  0  0  0  0  0  0
    4.9616   -0.8064    0.0000 C   0  0  0  0  0  0  0  0  0  0  0  0
    5.5965    0.5526    0.0000 C   0  0  0  0  0  0  0  0  0  0  0  0
    4.7370    1.7820    0.0000 C   0  0  0  0  0  0  0  0  0  0  0  0
    3.2427    1.6523    0.0000 C   0  0  0  0  0  0  0  0  0  0  0  0
    2.6078    0.2933    0.0000 C   0  0  0  0  0  0  0  0  0  0  0  0
    1.7483    1.5226    0.0000 C   0  0  0  0  0  0  0  0  0  0  0  0
    1.1134    0.1636    0.0000 C   0  0  0  0  0  0  0  0  0  0  0  0
    0.2539    1.3930    0.0000 C   0  0  0  0  0  0  0  0  0  0  0  0
   -1.2405    1.2633    0.0000 C   0  0  0  0  0  0  0  0  0  0  0  0
   -2.1000    2.4926    0.0000 O   0  0  0  0  0  0  0  0  0  0  0  0
   -1.8754   -0.0957    0.0000 C   0  0  0  0  0  0  0  0  0  0  0  0
   -2.8587    1.0371    0.0000 C   0  0  0  0  0  0  0  0  0  0  0  0
  1  2  1  0
  2  3  2  0
  4  2  1  6
  4  5  1  0
  5  6  1  0
  7  6  1  6
  7  8  1  0
  8  9  1  1
  9 10  1  0
 11 10  1  1
 11 12  1  0
 12 13  1  0
 13 14  1  0
 14 15  1  0
 15 16  1  0
 16 17  1  6
 16 18  1  0
 18 19  1  6
 19 20  1  0
 20 21  1  6
 20 22  1  0
 22 23  1  6
 22  4  1  0
 22  7  1  0
 18  8  1  0
 16 11  1  0
M  END
>  <MS_ID>  (3200) 
MS3330

>  <SMILES>  (3200) 
CC(=O)[C@H]1CC[C@H]2[C@@H]3CC[C@@H]4CCCC[C@]4(C)[C@H]3C[C@@H](O)[C@]12C

>  <Structure_dimension>  (3200) 
2D

$$$$
MS3331
     RDKit          2D

 32 35  0  0  0  0  0  0  0  0999 V2000
   -3.6450   -3.1073    0.0000 C   0  0  0  0  0  0  0  0  0  0  0  0
   -2.6454   -1.9889    0.0000 C   0  0  0  0  0  0  0  0  0  0  0  0
   -3.1142   -0.5640    0.0000 C   0  0  0  0  0  0  0  0  0  0  0  0
   -4.5825   -0.2575    0.0000 C   0  0  0  0  0  0  0  0  0  0  0  0
   -5.0513    1.1673    0.0000 C   0  0  0  0  0  0  0  0  0  0  0  0
   -6.5196    1.4738    0.0000 C   0  0  0  0  0  0  0  0  0  0  0  0
   -6.9884    2.8987    0.0000 C   0  0  0  0  0  0  0  0  0  0  0  0
   -8.4568    3.2052    0.0000 O   0  0  0  0  0  0  0  0  0  0  0  0
   -7.5192    0.3554    0.0000 C   0  0  0  0  0  0  0  0  0  0  0  0
   -8.9876    0.6619    0.0000 O   0  0  0  0  0  0  0  0  0  0  0  0
   -1.1771   -2.2954    0.0000 C   0  0  0  0  0  0  0  0  0  0  0  0
   -0.5619   -3.6634    0.0000 C   0  0  0  0  0  0  0  0  0  0  0  0
    0.9293   -3.5012    0.0000 C   0  0  0  0  0  0  0  0  0  0  0  0
    1.2358   -2.0328    0.0000 C   0  0  0  0  0  0  0  0  0  0  0  0
    2.5320   -1.2780    0.0000 C   0  0  0  0  0  0  0  0  0  0  0  0
    3.8338   -2.0233    0.0000 C   0  0  0  0  0  0  0  0  0  0  0  0
    3.8393   -3.5232    0.0000 O   0  0  0  0  0  0  0  0  0  0  0  0
    5.1301   -1.2685    0.0000 C   0  0  0  0  0  0  0  0  0  0  0  0
    5.1246    0.2315    0.0000 C   0  0  0  0  0  0  0  0  0  0  0  0
    6.4209    0.9863    0.0000 C   0  0  0  0  0  0  0  0  0  0  0  0
    6.4153    2.4863    0.0000 C   0  0  0  0  0  0  0  0  0  0  0  0
    7.7116    3.2410    0.0000 O   0  0  0  0  0  0  0  0  0  0  0  0
    5.1136    3.2315    0.0000 C   0  0  0  0  0  0  0  0  0  0  0  0
    3.8173    2.4767    0.0000 C   0  0  0  0  0  0  0  0  0  0  0  0
    3.8228    0.9767    0.0000 C   0  0  0  0  0  0  0  0  0  0  0  0
    2.5210    1.7219    0.0000 C   0  0  0  0  0  0  0  0  0  0  0  0
    2.5265    0.2220    0.0000 C   0  0  0  0  0  0  0  0  0  0  0  0
    1.2247    0.9672    0.0000 C   0  0  0  0  0  0  0  0  0  0  0  0
   -0.0715    0.2124    0.0000 C   0  0  0  0  0  0  0  0  0  0  0  0
   -1.3733    0.9576    0.0000 O   0  0  0  0  0  0  0  0  0  0  0  0
   -0.0660   -1.2876    0.0000 C   0  0  0  0  0  0  0  0  0  0  0  0
   -1.4386   -0.6825    0.0000 C   0  0  0  0  0  0  0  0  0  0  0  0
  2  1  1  1
  2  3  1  0
  3  4  1  0
  4  5  1  0
  5  6  1  0
  6  7  1  0
  7  8  1  0
  6  9  1  0
  9 10  1  0
  2 11  1  0
 11 12  1  6
 12 13  1  0
 14 13  1  6
 14 15  1  0
 15 16  1  1
 16 17  1  1
 16 18  1  0
 19 18  1  1
 19 20  1  0
 20 21  1  0
 21 22  1  1
 21 23  1  0
 23 24  1  0
 24 25  1  0
 25 26  1  6
 25 27  1  0
 27 28  1  6
 28 29  1  0
 29 30  1  1
 29 31  1  0
 31 32  1  6
 31 11  1  0
 31 14  1  0
 27 15  1  0
 25 19  1  0
M  END
>  <MS_ID>  (3201) 
MS3331

>  <SMILES>  (3201) 
C[C@@H](CCCC(CO)CO)[C@H]1CC[C@H]2[C@@H]3[C@H](O)C[C@@H]4C[C@H](O)CC[C@]4(C)[C@H]3C[C@H](O)[C@]12C

>  <Structure_dimension>  (3201) 
2D

$$$$
MS3332
     RDKit          2D

 32 36  0  0  0  0  0  0  0  0999 V2000
   -1.5246   -0.9367    0.0000 C   0  0  0  0  0  0  0  0  0  0  0  0
   -1.1894    0.5254    0.0000 C   0  0  0  0  0  0  0  0  0  0  0  0
   -0.0908   -0.4959    0.0000 C   0  0  0  0  0  0  0  0  0  0  0  0
    1.3430   -0.0552    0.0000 C   0  0  0  0  0  0  0  0  0  0  0  0
    1.6782    1.4069    0.0000 C   0  0  0  0  0  0  0  0  0  0  0  0
    3.1120    1.8476    0.0000 O   0  0  0  0  0  0  0  0  0  0  0  0
    4.2105    0.8263    0.0000 C   0  0  0  0  0  0  0  0  0  0  0  0
    3.8753   -0.6358    0.0000 O   0  0  0  0  0  0  0  0  0  0  0  0
    4.9739   -1.6571    0.0000 C   0  0  0  0  0  0  0  0  0  0  0  0
    4.6387   -3.1192    0.0000 C   0  0  0  0  0  0  0  0  0  0  0  0
    3.2049   -3.5599    0.0000 O   0  0  0  0  0  0  0  0  0  0  0  0
    6.4077   -1.2164    0.0000 C   0  0  0  0  0  0  0  0  0  0  0  0
    7.5063   -2.2378    0.0000 O   0  0  0  0  0  0  0  0  0  0  0  0
    6.7429    0.2456    0.0000 C   0  0  0  0  0  0  0  0  0  0  0  0
    8.1767    0.6864    0.0000 O   0  0  0  0  0  0  0  0  0  0  0  0
    5.6443    1.2670    0.0000 C   0  0  0  0  0  0  0  0  0  0  0  0
    5.9795    2.7290    0.0000 O   0  0  0  0  0  0  0  0  0  0  0  0
    0.5796    2.4282    0.0000 C   0  0  0  0  0  0  0  0  0  0  0  0
   -0.8542    1.9875    0.0000 C   0  0  0  0  0  0  0  0  0  0  0  0
   -1.9528    3.0088    0.0000 C   0  0  0  0  0  0  0  0  0  0  0  0
   -3.3866    2.5681    0.0000 C   0  0  0  0  0  0  0  0  0  0  0  0
   -3.7218    1.1060    0.0000 C   0  0  0  0  0  0  0  0  0  0  0  0
   -2.6232    0.0847    0.0000 C   0  0  0  0  0  0  0  0  0  0  0  0
   -2.9584   -1.3774    0.0000 C   0  0  0  0  0  0  0  0  0  0  0  0
   -4.3922   -1.8181    0.0000 C   0  0  0  0  0  0  0  0  0  0  0  0
   -5.4908   -0.7968    0.0000 C   0  0  0  0  0  0  0  0  0  0  0  0
   -5.9770   -2.2158    0.0000 C   0  0  0  0  0  0  0  0  0  0  0  0
   -6.9849   -0.9298    0.0000 C   0  0  0  0  0  0  0  0  0  0  0  0
   -7.7555   -2.2167    0.0000 O   0  0  0  0  0  0  0  0  0  0  0  0
   -7.5731    0.4501    0.0000 C   0  0  0  0  0  0  0  0  0  0  0  0
   -6.4425    1.4359    0.0000 C   0  0  0  0  0  0  0  0  0  0  0  0
   -5.1556    0.6653    0.0000 C   0  0  0  0  0  0  0  0  0  0  0  0
  2  1  1  1
  2  3  1  0
  3  4  1  0
  4  5  1  0
  5  6  1  6
  7  6  1  6
  7  8  1  0
  8  9  1  0
  9 10  1  1
 10 11  1  0
  9 12  1  0
 12 13  1  6
 12 14  1  0
 14 15  1  1
 14 16  1  0
 16 17  1  6
  5 18  1  0
 19 18  1  6
 19 20  1  0
 20 21  1  0
 22 21  1  6
 22 23  1  0
 23 24  1  1
 24 25  1  0
 25 26  1  0
 26 27  1  1
 26 28  1  0
 28 29  1  6
 28 30  1  0
 30 31  1  0
 32 31  1  1
 19  2  1  0
 32 22  1  0
 23  2  1  0
 32 26  1  0
 16  7  1  0
M  END
>  <MS_ID>  (3202) 
MS3332

>  <SMILES>  (3202) 
C[C@]12CC[C@@H](O[C@H]3O[C@H](CO)[C@@H](O)[C@H](O)[C@H]3O)C[C@H]1CC[C@@H]1[C@@H]2CC[C@]2(C)[C@H](O)CC[C@@H]12

>  <Structure_dimension>  (3202) 
2D

$$$$
MS3333
     RDKit          2D

 32 35  0  0  0  0  0  0  0  0999 V2000
   -3.1421   -3.6694    0.0000 C   0  0  0  0  0  0  0  0  0  0  0  0
   -2.2628   -2.4541    0.0000 C   0  0  0  0  0  0  0  0  0  0  0  0
   -2.8756   -1.0850    0.0000 C   0  0  0  0  0  0  0  0  0  0  0  0
   -4.3676   -0.9311    0.0000 C   0  0  0  0  0  0  0  0  0  0  0  0
   -4.9804    0.4380    0.0000 C   0  0  0  0  0  0  0  0  0  0  0  0
   -4.1011    1.6532    0.0000 O   0  0  0  0  0  0  0  0  0  0  0  0
   -6.4725    0.5919    0.0000 N   0  0  0  0  0  0  0  0  0  0  0  0
   -7.0853    1.9610    0.0000 C   0  0  0  0  0  0  0  0  0  0  0  0
   -8.5774    2.1149    0.0000 C   0  0  0  0  0  0  0  0  0  0  0  0
   -9.4567    0.8996    0.0000 O   0  0  0  0  0  0  0  0  0  0  0  0
   -9.1901    3.4840    0.0000 O   0  0  0  0  0  0  0  0  0  0  0  0
   -0.7707   -2.6080    0.0000 C   0  0  0  0  0  0  0  0  0  0  0  0
   -0.0182   -3.9056    0.0000 C   0  0  0  0  0  0  0  0  0  0  0  0
    1.4484   -3.5909    0.0000 C   0  0  0  0  0  0  0  0  0  0  0  0
    1.6023   -2.0988    0.0000 C   0  0  0  0  0  0  0  0  0  0  0  0
    2.8141   -1.2147    0.0000 C   0  0  0  0  0  0  0  0  0  0  0  0
    4.1856   -1.8222    0.0000 C   0  0  0  0  0  0  0  0  0  0  0  0
    4.3453   -3.3136    0.0000 O   0  0  0  0  0  0  0  0  0  0  0  0
    5.3974   -0.9381    0.0000 C   0  0  0  0  0  0  0  0  0  0  0  0
    5.2377    0.5533    0.0000 C   0  0  0  0  0  0  0  0  0  0  0  0
    6.4495    1.4374    0.0000 C   0  0  0  0  0  0  0  0  0  0  0  0
    6.2898    2.9289    0.0000 C   0  0  0  0  0  0  0  0  0  0  0  0
    7.5016    3.8129    0.0000 O   0  0  0  0  0  0  0  0  0  0  0  0
    4.9183    3.5363    0.0000 C   0  0  0  0  0  0  0  0  0  0  0  0
    3.7065    2.6522    0.0000 C   0  0  0  0  0  0  0  0  0  0  0  0
    3.8662    1.1608    0.0000 C   0  0  0  0  0  0  0  0  0  0  0  0
    2.4947    1.7682    0.0000 C   0  0  0  0  0  0  0  0  0  0  0  0
    2.6544    0.2767    0.0000 C   0  0  0  0  0  0  0  0  0  0  0  0
    1.2829    0.8842    0.0000 O   0  0  0  0  0  0  0  0  0  0  0  0
    0.0711    0.0001    0.0000 C   0  0  0  0  0  0  0  0  0  0  0  0
    0.2308   -1.4914    0.0000 C   0  0  0  0  0  0  0  0  0  0  0  0
   -1.1967   -1.0306    0.0000 C   0  0  0  0  0  0  0  0  0  0  0  0
  2  1  1  6
  2  3  1  0
  3  4  1  0
  4  5  1  0
  5  6  2  0
  5  7  1  0
  7  8  1  0
  8  9  1  0
  9 10  2  0
  9 11  1  0
  2 12  1  0
 12 13  1  6
 13 14  1  0
 15 14  1  6
 15 16  1  0
 16 17  1  1
 17 18  1  6
 17 19  1  0
 20 19  1  1
 20 21  1  0
 21 22  1  0
 22 23  1  1
 22 24  1  0
 24 25  1  0
 25 26  1  0
 26 27  1  6
 26 28  1  0
 28 29  1  6
 29 30  1  0
 30 31  1  0
 31 32  1  6
 31 12  1  0
 31 15  1  0
 28 16  1  0
 26 20  1  0
M  END
>  <MS_ID>  (3203) 
MS3333

>  <SMILES>  (3203) 
C[C@H](CCC(=O)NCC(=O)O)[C@H]1CC[C@H]2[C@@H]3[C@@H](O)C[C@@H]4C[C@H](O)CC[C@]4(C)[C@H]3OC[C@]12C

>  <Structure_dimension>  (3203) 
2D

$$$$
MS3334
     RDKit          2D

 29 32  0  0  0  0  0  0  0  0999 V2000
   -5.0303   -2.1373    0.0000 C   0  0  0  0  0  0  0  0  0  0  0  0
   -3.8594   -1.1998    0.0000 C   0  0  0  0  0  0  0  0  0  0  0  0
   -4.0858    0.2830    0.0000 C   0  0  0  0  0  0  0  0  0  0  0  0
   -5.4831    0.8284    0.0000 C   0  0  0  0  0  0  0  0  0  0  0  0
   -5.7095    2.3112    0.0000 C   0  0  0  0  0  0  0  0  0  0  0  0
   -4.5386    3.2487    0.0000 O   0  0  0  0  0  0  0  0  0  0  0  0
   -7.1069    2.8565    0.0000 O   0  0  0  0  0  0  0  0  0  0  0  0
   -2.4620   -1.7451    0.0000 C   0  0  0  0  0  0  0  0  0  0  0  0
   -2.0818   -3.1961    0.0000 C   0  0  0  0  0  0  0  0  0  0  0  0
   -0.5844   -3.2830    0.0000 C   0  0  0  0  0  0  0  0  0  0  0  0
   -0.0390   -1.8856    0.0000 C   0  0  0  0  0  0  0  0  0  0  0  0
    1.3643   -1.3559    0.0000 C   0  0  0  0  0  0  0  0  0  0  0  0
    2.5248   -2.3063    0.0000 C   0  0  0  0  0  0  0  0  0  0  0  0
    2.2819   -3.7865    0.0000 O   0  0  0  0  0  0  0  0  0  0  0  0
    3.9281   -1.7765    0.0000 C   0  0  0  0  0  0  0  0  0  0  0  0
    4.1710   -0.2963    0.0000 C   0  0  0  0  0  0  0  0  0  0  0  0
    5.5743    0.2334    0.0000 C   0  0  0  0  0  0  0  0  0  0  0  0
    5.8172    1.7136    0.0000 C   0  0  0  0  0  0  0  0  0  0  0  0
    7.2205    2.2434    0.0000 O   0  0  0  0  0  0  0  0  0  0  0  0
    4.6568    2.6641    0.0000 C   0  0  0  0  0  0  0  0  0  0  0  0
    3.2534    2.1343    0.0000 C   0  0  0  0  0  0  0  0  0  0  0  0
    3.0105    0.6541    0.0000 C   0  0  0  0  0  0  0  0  0  0  0  0
    1.8501    1.6046    0.0000 C   0  0  0  0  0  0  0  0  0  0  0  0
    1.6072    0.1244    0.0000 C   0  0  0  0  0  0  0  0  0  0  0  0
    0.4467    1.0748    0.0000 O   0  0  0  0  0  0  0  0  0  0  0  0
   -0.9566    0.5450    0.0000 C   0  0  0  0  0  0  0  0  0  0  0  0
   -2.1170    1.4955    0.0000 O   0  0  0  0  0  0  0  0  0  0  0  0
   -1.1995   -0.9352    0.0000 C   0  0  0  0  0  0  0  0  0  0  0  0
   -2.4529   -0.1112    0.0000 C   0  0  0  0  0  0  0  0  0  0  0  0
  2  1  1  6
  2  3  1  0
  3  4  1  0
  4  5  1  0
  5  6  2  0
  5  7  1  0
  2  8  1  0
  8  9  1  6
  9 10  1  0
 11 10  1  6
 11 12  1  0
 12 13  1  1
 13 14  1  6
 13 15  1  0
 16 15  1  1
 16 17  1  0
 17 18  1  0
 18 19  1  1
 18 20  1  0
 20 21  1  0
 21 22  1  0
 22 23  1  6
 22 24  1  0
 24 25  1  6
 25 26  1  0
 26 27  2  0
 26 28  1  0
 28 29  1  6
 28  8  1  0
 28 11  1  0
 24 12  1  0
 22 16  1  0
M  END
>  <MS_ID>  (3204) 
MS3334

>  <SMILES>  (3204) 
C[C@H](CCC(=O)O)[C@H]1CC[C@H]2[C@@H]3[C@@H](O)C[C@@H]4C[C@H](O)CC[C@]4(C)[C@H]3OC(=O)[C@]12C

>  <Structure_dimension>  (3204) 
2D

$$$$
MS3335
     RDKit          2D

 33 36  0  0  0  0  0  0  0  0999 V2000
   -2.4330   -4.1943    0.0000 C   0  0  0  0  0  0  0  0  0  0  0  0
   -1.6305   -2.9271    0.0000 C   0  0  0  0  0  0  0  0  0  0  0  0
   -2.3267   -1.5984    0.0000 C   0  0  0  0  0  0  0  0  0  0  0  0
   -3.8255   -1.5370    0.0000 C   0  0  0  0  0  0  0  0  0  0  0  0
   -4.5217   -0.2084    0.0000 C   0  0  0  0  0  0  0  0  0  0  0  0
   -3.7192    1.0589    0.0000 O   0  0  0  0  0  0  0  0  0  0  0  0
   -6.0204   -0.1470    0.0000 N   0  0  0  0  0  0  0  0  0  0  0  0
   -6.7166    1.1816    0.0000 C   0  0  0  0  0  0  0  0  0  0  0  0
   -8.0453    0.4854    0.0000 C   0  0  0  0  0  0  0  0  0  0  0  0
   -5.3880    1.8778    0.0000 C   0  0  0  0  0  0  0  0  0  0  0  0
   -7.4129    2.5103    0.0000 C   0  0  0  0  0  0  0  0  0  0  0  0
   -8.9116    2.5717    0.0000 O   0  0  0  0  0  0  0  0  0  0  0  0
   -6.6103    3.7775    0.0000 O   0  0  0  0  0  0  0  0  0  0  0  0
   -0.1318   -2.9884    0.0000 C   0  0  0  0  0  0  0  0  0  0  0  0
    0.6995   -4.2370    0.0000 C   0  0  0  0  0  0  0  0  0  0  0  0
    2.1439   -3.8323    0.0000 C   0  0  0  0  0  0  0  0  0  0  0  0
    2.2052   -2.3335    0.0000 C   0  0  0  0  0  0  0  0  0  0  0  0
    3.3601   -1.3763    0.0000 C   0  0  0  0  0  0  0  0  0  0  0  0
    4.7665   -1.8978    0.0000 C   0  0  0  0  0  0  0  0  0  0  0  0
    5.9214   -0.9406    0.0000 C   0  0  0  0  0  0  0  0  0  0  0  0
    5.6698    0.5382    0.0000 C   0  0  0  0  0  0  0  0  0  0  0  0
    6.8247    1.4954    0.0000 C   0  0  0  0  0  0  0  0  0  0  0  0
    6.5731    2.9742    0.0000 C   0  0  0  0  0  0  0  0  0  0  0  0
    7.7280    3.9314    0.0000 O   0  0  0  0  0  0  0  0  0  0  0  0
    5.1667    3.4957    0.0000 C   0  0  0  0  0  0  0  0  0  0  0  0
    4.0118    2.5385    0.0000 C   0  0  0  0  0  0  0  0  0  0  0  0
    4.2634    1.0597    0.0000 C   0  0  0  0  0  0  0  0  0  0  0  0
    2.8570    1.5812    0.0000 C   0  0  0  0  0  0  0  0  0  0  0  0
    3.1085    0.1025    0.0000 C   0  0  0  0  0  0  0  0  0  0  0  0
    1.7021    0.6240    0.0000 C   0  0  0  0  0  0  0  0  0  0  0  0
    0.5473   -0.3333    0.0000 C   0  0  0  0  0  0  0  0  0  0  0  0
    0.7988   -1.8120    0.0000 C   0  0  0  0  0  0  0  0  0  0  0  0
   -0.6544   -1.4404    0.0000 C   0  0  0  0  0  0  0  0  0  0  0  0
  2  1  1  6
  2  3  1  0
  3  4  1  0
  4  5  1  0
  5  6  2  0
  5  7  1  0
  7  8  1  0
  8  9  1  0
  8 10  1  0
  8 11  1  0
 11 12  2  0
 11 13  1  0
  2 14  1  0
 14 15  1  6
 15 16  1  0
 17 16  1  6
 17 18  1  0
 18 19  1  1
 19 20  1  0
 21 20  1  1
 21 22  1  0
 22 23  1  0
 23 24  1  1
 23 25  1  0
 25 26  1  0
 26 27  1  0
 27 28  1  6
 27 29  1  0
 29 30  1  6
 30 31  1  0
 31 32  1  0
 32 33  1  6
 32 14  1  0
 32 17  1  0
 29 18  1  0
 27 21  1  0
M  END
>  <MS_ID>  (3205) 
MS3335

>  <SMILES>  (3205) 
C[C@H](CCC(=O)NC(C)(C)C(=O)O)[C@H]1CC[C@H]2[C@@H]3CC[C@@H]4C[C@H](O)CC[C@]4(C)[C@H]3CC[C@]12C

>  <Structure_dimension>  (3205) 
2D

$$$$
MS3337
     RDKit          2D

 32 35  0  0  0  0  0  0  0  0999 V2000
   -4.7287    4.1003    0.0000 C   0  0  0  0  0  0  0  0  0  0  0  0
   -4.3803    2.6414    0.0000 C   0  0  0  0  0  0  0  0  0  0  0  0
   -2.9425    2.2137    0.0000 C   0  0  0  0  0  0  0  0  0  0  0  0
   -5.4695    1.6101    0.0000 C   0  0  0  0  0  0  0  0  0  0  0  0
   -6.9073    2.0378    0.0000 C   0  0  0  0  0  0  0  0  0  0  0  0
   -5.1210    0.1512    0.0000 C   0  0  0  0  0  0  0  0  0  0  0  0
   -6.2103   -0.8801    0.0000 O   0  0  0  0  0  0  0  0  0  0  0  0
   -3.6833   -0.2765    0.0000 C   0  0  0  0  0  0  0  0  0  0  0  0
   -2.5940    0.7547    0.0000 O   0  0  0  0  0  0  0  0  0  0  0  0
   -3.3348   -1.7355    0.0000 C   0  0  0  0  0  0  0  0  0  0  0  0
   -4.4241   -2.7668    0.0000 C   0  0  0  0  0  0  0  0  0  0  0  0
   -1.8971   -2.1632    0.0000 C   0  0  0  0  0  0  0  0  0  0  0  0
   -1.3980   -3.5777    0.0000 C   0  0  0  0  0  0  0  0  0  0  0  0
    0.1015   -3.5402    0.0000 C   0  0  0  0  0  0  0  0  0  0  0  0
    0.5292   -2.1024    0.0000 C   0  0  0  0  0  0  0  0  0  0  0  0
    1.8838   -1.4582    0.0000 C   0  0  0  0  0  0  0  0  0  0  0  0
    3.1190   -2.3093    0.0000 C   0  0  0  0  0  0  0  0  0  0  0  0
    4.4737   -1.6651    0.0000 C   0  0  0  0  0  0  0  0  0  0  0  0
    5.7089   -2.5161    0.0000 O   0  0  0  0  0  0  0  0  0  0  0  0
    4.5931   -0.1698    0.0000 C   0  0  0  0  0  0  0  0  0  0  0  0
    5.9477    0.4744    0.0000 C   0  0  0  0  0  0  0  0  0  0  0  0
    6.0671    1.9696    0.0000 C   0  0  0  0  0  0  0  0  0  0  0  0
    7.4217    2.6138    0.0000 F   0  0  0  0  0  0  0  0  0  0  0  0
    4.8319    2.8206    0.0000 C   0  0  0  0  0  0  0  0  0  0  0  0
    3.4773    2.1764    0.0000 C   0  0  0  0  0  0  0  0  0  0  0  0
    3.3579    0.6812    0.0000 C   0  0  0  0  0  0  0  0  0  0  0  0
    2.1227    1.5322    0.0000 C   0  0  0  0  0  0  0  0  0  0  0  0
    2.0033    0.0370    0.0000 C   0  0  0  0  0  0  0  0  0  0  0  0
    0.7680    0.8880    0.0000 C   0  0  0  0  0  0  0  0  0  0  0  0
   -0.5866    0.2438    0.0000 C   0  0  0  0  0  0  0  0  0  0  0  0
   -0.7060   -1.2514    0.0000 C   0  0  0  0  0  0  0  0  0  0  0  0
   -2.0234   -0.5341    0.0000 C   0  0  0  0  0  0  0  0  0  0  0  0
  1  2  1  0
  2  3  1  0
  2  4  1  0
  4  5  1  6
  4  6  1  0
  6  7  1  6
  6  8  1  0
  8  9  1  6
  8 10  1  0
 10 11  1  6
 10 12  1  0
 12 13  1  6
 13 14  1  0
 15 14  1  6
 15 16  1  0
 16 17  1  1
 17 18  1  0
 18 19  2  0
 18 20  1  0
 20 21  1  6
 21 22  1  0
 22 23  1  1
 22 24  1  0
 24 25  1  0
 25 26  1  0
 26 27  1  6
 26 28  1  0
 28 29  1  6
 29 30  1  0
 30 31  1  0
 31 32  1  6
 31 12  1  0
 31 15  1  0
 28 16  1  0
 26 20  1  0
M  END
>  <MS_ID>  (3206) 
MS3337

>  <SMILES>  (3206) 
CC(C)[C@@H](C)[C@@H](O)[C@H](O)[C@@H](C)[C@H]1CC[C@H]2[C@@H]3CC(=O)[C@H]4C[C@H](F)CC[C@]4(C)[C@H]3CC[C@]12C

>  <Structure_dimension>  (3206) 
2D

$$$$
MS3338
     RDKit          2D

 28 31  0  0  0  0  0  0  0  0999 V2000
   -5.1275   -2.0302    0.0000 C   0  0  0  0  0  0  0  0  0  0  0  0
   -3.9468   -1.1050    0.0000 C   0  0  0  0  0  0  0  0  0  0  0  0
   -4.1576    0.3801    0.0000 C   0  0  0  0  0  0  0  0  0  0  0  0
   -5.5492    0.9401    0.0000 C   0  0  0  0  0  0  0  0  0  0  0  0
   -5.7600    2.4252    0.0000 C   0  0  0  0  0  0  0  0  0  0  0  0
   -4.5793    3.3503    0.0000 O   0  0  0  0  0  0  0  0  0  0  0  0
   -7.1516    2.9851    0.0000 O   0  0  0  0  0  0  0  0  0  0  0  0
   -2.5552   -1.6650    0.0000 C   0  0  0  0  0  0  0  0  0  0  0  0
   -2.1903   -3.1199    0.0000 C   0  0  0  0  0  0  0  0  0  0  0  0
   -0.6938   -3.2225    0.0000 C   0  0  0  0  0  0  0  0  0  0  0  0
   -0.1339   -1.8309    0.0000 C   0  0  0  0  0  0  0  0  0  0  0  0
    1.2750   -1.3159    0.0000 C   0  0  0  0  0  0  0  0  0  0  0  0
    2.4254   -2.2785    0.0000 C   0  0  0  0  0  0  0  0  0  0  0  0
    2.1670   -3.7560    0.0000 O   0  0  0  0  0  0  0  0  0  0  0  0
    3.8342   -1.7635    0.0000 C   0  0  0  0  0  0  0  0  0  0  0  0
    4.0926   -0.2859    0.0000 C   0  0  0  0  0  0  0  0  0  0  0  0
    5.5014    0.2291    0.0000 C   0  0  0  0  0  0  0  0  0  0  0  0
    5.7598    1.7067    0.0000 C   0  0  0  0  0  0  0  0  0  0  0  0
    7.1687    2.2217    0.0000 O   0  0  0  0  0  0  0  0  0  0  0  0
    4.6094    2.6692    0.0000 C   0  0  0  0  0  0  0  0  0  0  0  0
    3.2006    2.1542    0.0000 C   0  0  0  0  0  0  0  0  0  0  0  0
    2.9422    0.6767    0.0000 C   0  0  0  0  0  0  0  0  0  0  0  0
    1.7918    1.6392    0.0000 Cl  0  0  0  0  0  0  0  0  0  0  0  0
    1.5334    0.1617    0.0000 C   0  0  0  0  0  0  0  0  0  0  0  0
    0.3830    1.1242    0.0000 C   0  0  0  0  0  0  0  0  0  0  0  0
   -1.0259    0.6093    0.0000 C   0  0  0  0  0  0  0  0  0  0  0  0
   -1.2843   -0.8683    0.0000 C   0  0  0  0  0  0  0  0  0  0  0  0
   -2.5290   -0.0313    0.0000 C   0  0  0  0  0  0  0  0  0  0  0  0
  2  1  1  6
  2  3  1  0
  3  4  1  0
  4  5  1  0
  5  6  2  0
  5  7  1  0
  2  8  1  0
  8  9  1  6
  9 10  1  0
 11 10  1  6
 11 12  1  0
 12 13  1  1
 13 14  1  6
 13 15  1  0
 16 15  1  1
 16 17  1  0
 17 18  1  0
 18 19  1  1
 18 20  1  0
 20 21  1  0
 21 22  1  0
 22 23  1  6
 22 24  1  0
 24 25  1  6
 25 26  1  0
 26 27  1  0
 27 28  1  6
 27  8  1  0
 27 11  1  0
 24 12  1  0
 22 16  1  0
M  END
>  <MS_ID>  (3207) 
MS3338

>  <SMILES>  (3207) 
C[C@H](CCC(=O)O)[C@H]1CC[C@H]2[C@@H]3[C@@H](O)C[C@@H]4C[C@H](O)CC[C@]4(Cl)[C@H]3CC[C@]12C

>  <Structure_dimension>  (3207) 
2D

$$$$
MS3339
     RDKit          2D

 36 39  0  0  0  0  0  0  0  0999 V2000
  -11.0772    2.6044    0.0000 C   0  0  0  0  0  0  0  0  0  0  0  0
  -10.2354    1.3629    0.0000 C   0  0  0  0  0  0  0  0  0  0  0  0
   -8.7393    1.4712    0.0000 C   0  0  0  0  0  0  0  0  0  0  0  0
   -7.8975    0.2297    0.0000 C   0  0  0  0  0  0  0  0  0  0  0  0
   -6.4014    0.3379    0.0000 C   0  0  0  0  0  0  0  0  0  0  0  0
   -5.5596   -0.9036    0.0000 N   0  0  0  0  0  0  0  0  0  0  0  0
   -4.0635   -0.7953    0.0000 C   0  0  0  0  0  0  0  0  0  0  0  0
   -3.4092    0.5545    0.0000 O   0  0  0  0  0  0  0  0  0  0  0  0
   -3.2217   -2.0368    0.0000 C   0  0  0  0  0  0  0  0  0  0  0  0
   -1.7256   -1.9285    0.0000 C   0  0  0  0  0  0  0  0  0  0  0  0
   -0.8838   -3.1700    0.0000 C   0  0  0  0  0  0  0  0  0  0  0  0
   -1.5380   -4.5198    0.0000 C   0  0  0  0  0  0  0  0  0  0  0  0
    0.6123   -3.0618    0.0000 C   0  0  0  0  0  0  0  0  0  0  0  0
    1.5793   -4.2085    0.0000 C   0  0  0  0  0  0  0  0  0  0  0  0
    2.9687   -3.6432    0.0000 C   0  0  0  0  0  0  0  0  0  0  0  0
    2.8604   -2.1471    0.0000 C   0  0  0  0  0  0  0  0  0  0  0  0
    3.8998   -1.0656    0.0000 C   0  0  0  0  0  0  0  0  0  0  0  0
    5.3561   -1.4249    0.0000 C   0  0  0  0  0  0  0  0  0  0  0  0
    5.7731   -2.8658    0.0000 O   0  0  0  0  0  0  0  0  0  0  0  0
    6.3955   -0.3434    0.0000 C   0  0  0  0  0  0  0  0  0  0  0  0
    5.9785    1.0975    0.0000 C   0  0  0  0  0  0  0  0  0  0  0  0
    7.0179    2.1791    0.0000 C   0  0  0  0  0  0  0  0  0  0  0  0
    6.6009    3.6199    0.0000 C   0  0  0  0  0  0  0  0  0  0  0  0
    7.6402    4.7015    0.0000 O   0  0  0  0  0  0  0  0  0  0  0  0
    5.1446    3.9793    0.0000 C   0  0  0  0  0  0  0  0  0  0  0  0
    4.1052    2.8977    0.0000 C   0  0  0  0  0  0  0  0  0  0  0  0
    4.5222    1.4569    0.0000 C   0  0  0  0  0  0  0  0  0  0  0  0
    3.0658    1.8162    0.0000 C   0  0  0  0  0  0  0  0  0  0  0  0
    3.4828    0.3753    0.0000 C   0  0  0  0  0  0  0  0  0  0  0  0
    2.0265    0.7347    0.0000 C   0  0  0  0  0  0  0  0  0  0  0  0
    0.9871   -0.3469    0.0000 C   0  0  0  0  0  0  0  0  0  0  0  0
    1.4041   -1.7878    0.0000 C   0  0  0  0  0  0  0  0  0  0  0  0
   -0.0818   -1.5826    0.0000 C   0  0  0  0  0  0  0  0  0  0  0  0
   -5.7471    1.6877    0.0000 C   0  0  0  0  0  0  0  0  0  0  0  0
   -4.2510    1.7960    0.0000 O   0  0  0  0  0  0  0  0  0  0  0  0
   -6.5889    2.9292    0.0000 O   0  0  0  0  0  0  0  0  0  0  0  0
  1  2  1  0
  2  3  1  0
  3  4  1  0
  5  4  1  1
  5  6  1  0
  6  7  1  0
  7  8  2  0
  7  9  1  0
  9 10  1  0
 10 11  1  0
 11 12  1  6
 11 13  1  0
 13 14  1  6
 14 15  1  0
 16 15  1  6
 16 17  1  0
 17 18  1  1
 18 19  1  1
 18 20  1  0
 21 20  1  1
 21 22  1  0
 22 23  1  0
 23 24  1  1
 23 25  1  0
 25 26  1  0
 26 27  1  0
 27 28  1  6
 27 29  1  0
 29 30  1  6
 30 31  1  0
 31 32  1  0
 32 33  1  6
  5 34  1  0
 34 35  2  0
 34 36  1  0
 32 13  1  0
 32 16  1  0
 29 17  1  0
 27 21  1  0
M  END
>  <MS_ID>  (3208) 
MS3339

>  <SMILES>  (3208) 
CCCC[C@H](NC(=O)CC[C@@H](C)[C@H]1CC[C@H]2[C@@H]3[C@H](O)C[C@@H]4C[C@H](O)CC[C@]4(C)[C@H]3CC[C@]12C)C(=O)O

>  <Structure_dimension>  (3208) 
2D

$$$$
MS3340
     RDKit          2D

 28 31  0  0  0  0  0  0  0  0999 V2000
   -5.1275   -2.0302    0.0000 C   0  0  0  0  0  0  0  0  0  0  0  0
   -3.9468   -1.1050    0.0000 C   0  0  0  0  0  0  0  0  0  0  0  0
   -4.1576    0.3801    0.0000 C   0  0  0  0  0  0  0  0  0  0  0  0
   -5.5492    0.9401    0.0000 C   0  0  0  0  0  0  0  0  0  0  0  0
   -5.7600    2.4252    0.0000 C   0  0  0  0  0  0  0  0  0  0  0  0
   -4.5793    3.3503    0.0000 O   0  0  0  0  0  0  0  0  0  0  0  0
   -7.1516    2.9851    0.0000 O   0  0  0  0  0  0  0  0  0  0  0  0
   -2.5552   -1.6650    0.0000 C   0  0  0  0  0  0  0  0  0  0  0  0
   -2.1903   -3.1199    0.0000 C   0  0  0  0  0  0  0  0  0  0  0  0
   -0.6938   -3.2225    0.0000 C   0  0  0  0  0  0  0  0  0  0  0  0
   -0.1339   -1.8309    0.0000 C   0  0  0  0  0  0  0  0  0  0  0  0
    1.2750   -1.3159    0.0000 C   0  0  0  0  0  0  0  0  0  0  0  0
    2.4254   -2.2785    0.0000 C   0  0  0  0  0  0  0  0  0  0  0  0
    2.1670   -3.7560    0.0000 O   0  0  0  0  0  0  0  0  0  0  0  0
    3.8342   -1.7635    0.0000 S   0  0  0  0  0  0  0  0  0  0  0  0
    4.0926   -0.2859    0.0000 C   0  0  0  0  0  0  0  0  0  0  0  0
    5.5014    0.2291    0.0000 C   0  0  0  0  0  0  0  0  0  0  0  0
    5.7598    1.7067    0.0000 C   0  0  0  0  0  0  0  0  0  0  0  0
    7.1687    2.2217    0.0000 O   0  0  0  0  0  0  0  0  0  0  0  0
    4.6094    2.6692    0.0000 C   0  0  0  0  0  0  0  0  0  0  0  0
    3.2006    2.1542    0.0000 C   0  0  0  0  0  0  0  0  0  0  0  0
    2.9422    0.6767    0.0000 C   0  0  0  0  0  0  0  0  0  0  0  0
    1.7918    1.6392    0.0000 C   0  0  0  0  0  0  0  0  0  0  0  0
    1.5334    0.1617    0.0000 C   0  0  0  0  0  0  0  0  0  0  0  0
    0.3830    1.1242    0.0000 C   0  0  0  0  0  0  0  0  0  0  0  0
   -1.0259    0.6093    0.0000 C   0  0  0  0  0  0  0  0  0  0  0  0
   -1.2843   -0.8683    0.0000 C   0  0  0  0  0  0  0  0  0  0  0  0
   -2.5290   -0.0313    0.0000 C   0  0  0  0  0  0  0  0  0  0  0  0
  2  1  1  6
  2  3  1  0
  3  4  1  0
  4  5  1  0
  5  6  2  0
  5  7  1  0
  2  8  1  0
  8  9  1  6
  9 10  1  0
 11 10  1  6
 11 12  1  0
 12 13  1  1
 13 14  1  6
 13 15  1  0
 15 16  1  0
 16 17  1  1
 17 18  1  0
 18 19  1  1
 18 20  1  0
 20 21  1  0
 21 22  1  0
 22 23  1  6
 22 24  1  0
 24 25  1  6
 25 26  1  0
 26 27  1  0
 27 28  1  6
 27  8  1  0
 27 11  1  0
 24 12  1  0
 22 16  1  0
M  END
>  <MS_ID>  (3209) 
MS3340

>  <SMILES>  (3209) 
C[C@H](CCC(=O)O)[C@H]1CC[C@H]2[C@@H]3[C@@H](O)S[C@@H]4C[C@H](O)CC[C@]4(C)[C@H]3CC[C@]12C

>  <Structure_dimension>  (3209) 
2D

$$$$
MS3341
     RDKit          2D

 24 27  0  0  0  0  0  0  0  0999 V2000
   -5.7398    1.3531    0.0000 C   0  0  0  0  0  0  0  0  0  0  0  0
   -5.0076    0.0439    0.0000 C   0  0  0  0  0  0  0  0  0  0  0  0
   -5.7752   -1.2448    0.0000 O   0  0  0  0  0  0  0  0  0  0  0  0
   -3.5077    0.0235    0.0000 C   0  0  0  0  0  0  0  0  0  0  0  0
   -3.8252    1.4895    0.0000 O   0  0  0  0  0  0  0  0  0  0  0  0
   -3.6848   -1.4660    0.0000 C   0  0  0  0  0  0  0  0  0  0  0  0
   -2.3229   -2.0948    0.0000 C   0  0  0  0  0  0  0  0  0  0  0  0
   -1.3042   -0.9938    0.0000 C   0  0  0  0  0  0  0  0  0  0  0  0
    0.1957   -1.0143    0.0000 C   0  0  0  0  0  0  0  0  0  0  0  0
    0.9279   -2.3234    0.0000 C   0  0  0  0  0  0  0  0  0  0  0  0
    2.4278   -2.3439    0.0000 C   0  0  0  0  0  0  0  0  0  0  0  0
    3.1954   -1.0552    0.0000 C   0  0  0  0  0  0  0  0  0  0  0  0
    4.6953   -1.0756    0.0000 C   0  0  0  0  0  0  0  0  0  0  0  0
    5.4629    0.2131    0.0000 C   0  0  0  0  0  0  0  0  0  0  0  0
    6.9628    0.1926    0.0000 O   0  0  0  0  0  0  0  0  0  0  0  0
    4.7307    1.5222    0.0000 C   0  0  0  0  0  0  0  0  0  0  0  0
    3.2308    1.5427    0.0000 C   0  0  0  0  0  0  0  0  0  0  0  0
    2.4632    0.2540    0.0000 C   0  0  0  0  0  0  0  0  0  0  0  0
    1.7310    1.5631    0.0000 C   0  0  0  0  0  0  0  0  0  0  0  0
    0.9633    0.2744    0.0000 C   0  0  0  0  0  0  0  0  0  0  0  0
    0.2311    1.5835    0.0000 C   0  0  0  0  0  0  0  0  0  0  0  0
   -1.2687    1.6040    0.0000 C   0  0  0  0  0  0  0  0  0  0  0  0
   -2.0364    0.3153    0.0000 C   0  0  0  0  0  0  0  0  0  0  0  0
   -2.7456    1.6370    0.0000 C   0  0  0  0  0  0  0  0  0  0  0  0
  1  2  1  0
  2  3  2  0
  2  4  1  0
  4  5  1  1
  4  6  1  0
  6  7  1  0
  8  7  1  6
  8  9  1  0
  9 10  1  1
 10 11  1  0
 12 11  1  1
 12 13  1  0
 13 14  1  0
 14 15  1  6
 14 16  1  0
 16 17  1  0
 17 18  1  0
 18 19  1  6
 18 20  1  0
 20 21  1  6
 21 22  1  0
 22 23  1  0
 23 24  1  6
 23  4  1  0
 23  8  1  0
 20  9  1  0
 18 12  1  0
M  END
>  <MS_ID>  (3210) 
MS3341

>  <SMILES>  (3210) 
CC(=O)[C@@]1(O)CC[C@H]2[C@@H]3CC[C@@H]4C[C@@H](O)CC[C@]4(C)[C@H]3CC[C@@]21C

>  <Structure_dimension>  (3210) 
2D

$$$$
MS3342
     RDKit          2D

 33 38  0  0  0  0  0  0  0  0999 V2000
   -3.5094   -3.1563    0.0000 C   0  0  0  0  0  0  0  0  0  0  0  0
   -2.5118   -2.0362    0.0000 C   0  0  0  0  0  0  0  0  0  0  0  0
   -2.9830   -0.6121    0.0000 C   0  0  0  0  0  0  0  0  0  0  0  0
   -4.4518   -0.3082    0.0000 C   0  0  0  0  0  0  0  0  0  0  0  0
   -5.5611   -1.3179    0.0000 C   0  0  0  0  0  0  0  0  0  0  0  0
   -6.8642   -0.5749    0.0000 N   0  0  0  0  0  0  0  0  0  0  0  0
   -6.5602    0.8940    0.0000 C   0  0  0  0  0  0  0  0  0  0  0  0
   -7.4484    2.1028    0.0000 C   0  0  0  0  0  0  0  0  0  0  0  0
   -6.8457    3.4763    0.0000 C   0  0  0  0  0  0  0  0  0  0  0  0
   -5.3548    3.6412    0.0000 C   0  0  0  0  0  0  0  0  0  0  0  0
   -4.4666    2.4324    0.0000 C   0  0  0  0  0  0  0  0  0  0  0  0
   -5.0693    1.0588    0.0000 C   0  0  0  0  0  0  0  0  0  0  0  0
   -1.0429   -2.3402    0.0000 C   0  0  0  0  0  0  0  0  0  0  0  0
   -0.4254   -3.7072    0.0000 C   0  0  0  0  0  0  0  0  0  0  0  0
    1.0655   -3.5423    0.0000 C   0  0  0  0  0  0  0  0  0  0  0  0
    1.3695   -2.0735    0.0000 C   0  0  0  0  0  0  0  0  0  0  0  0
    2.6645   -1.3165    0.0000 C   0  0  0  0  0  0  0  0  0  0  0  0
    3.9675   -2.0595    0.0000 C   0  0  0  0  0  0  0  0  0  0  0  0
    3.9756   -3.5594    0.0000 O   0  0  0  0  0  0  0  0  0  0  0  0
    5.2625   -1.3025    0.0000 C   0  0  0  0  0  0  0  0  0  0  0  0
    5.2544    0.1975    0.0000 C   0  0  0  0  0  0  0  0  0  0  0  0
    6.5494    0.9545    0.0000 C   0  0  0  0  0  0  0  0  0  0  0  0
    6.5413    2.4545    0.0000 C   0  0  0  0  0  0  0  0  0  0  0  0
    7.8363    3.2115    0.0000 O   0  0  0  0  0  0  0  0  0  0  0  0
    5.2382    3.1975    0.0000 C   0  0  0  0  0  0  0  0  0  0  0  0
    3.9433    2.4405    0.0000 C   0  0  0  0  0  0  0  0  0  0  0  0
    3.9513    0.9405    0.0000 C   0  0  0  0  0  0  0  0  0  0  0  0
    2.6483    1.6835    0.0000 C   0  0  0  0  0  0  0  0  0  0  0  0
    2.6564    0.1835    0.0000 C   0  0  0  0  0  0  0  0  0  0  0  0
    1.3533    0.9265    0.0000 C   0  0  0  0  0  0  0  0  0  0  0  0
    0.0583    0.1695    0.0000 C   0  0  0  0  0  0  0  0  0  0  0  0
    0.0664   -1.3305    0.0000 C   0  0  0  0  0  0  0  0  0  0  0  0
   -1.3072   -0.7278    0.0000 C   0  0  0  0  0  0  0  0  0  0  0  0
  2  1  1  6
  2  3  1  0
  3  4  1  0
  4  5  2  0
  5  6  1  0
  6  7  1  0
  7  8  2  0
  8  9  1  0
  9 10  2  0
 10 11  1  0
 11 12  2  0
  2 13  1  0
 13 14  1  6
 14 15  1  0
 16 15  1  6
 16 17  1  0
 17 18  1  1
 18 19  1  6
 18 20  1  0
 21 20  1  1
 21 22  1  0
 22 23  1  0
 23 24  1  1
 23 25  1  0
 25 26  1  0
 26 27  1  0
 27 28  1  6
 27 29  1  0
 29 30  1  6
 30 31  1  0
 31 32  1  0
 32 33  1  6
 12  4  1  0
 32 13  1  0
 12  7  1  0
 32 16  1  0
 29 17  1  0
 27 21  1  0
M  END
>  <MS_ID>  (3211) 
MS3342

>  <SMILES>  (3211) 
C[C@H](Cc1c[nH]c2ccccc12)[C@H]1CC[C@H]2[C@@H]3[C@@H](O)C[C@@H]4C[C@H](O)CC[C@]4(C)[C@H]3CC[C@]12C

>  <Structure_dimension>  (3211) 
2D

$$$$
MS3343
     RDKit          2D

 31 34  0  0  0  0  0  0  0  0999 V2000
   -4.8549   -2.6011    0.0000 C   0  0  0  0  0  0  0  0  0  0  0  0
   -3.9108   -1.4355    0.0000 C   0  0  0  0  0  0  0  0  0  0  0  0
   -4.4482   -0.0351    0.0000 C   0  0  0  0  0  0  0  0  0  0  0  0
   -5.9297    0.1997    0.0000 C   0  0  0  0  0  0  0  0  0  0  0  0
   -6.4670    1.6002    0.0000 C   0  0  0  0  0  0  0  0  0  0  0  0
   -5.5229    2.7658    0.0000 O   0  0  0  0  0  0  0  0  0  0  0  0
   -7.9485    1.8350    0.0000 O   0  0  0  0  0  0  0  0  0  0  0  0
   -2.4293   -1.6704    0.0000 C   0  0  0  0  0  0  0  0  0  0  0  0
   -1.7485   -3.0070    0.0000 C   0  0  0  0  0  0  0  0  0  0  0  0
   -0.2669   -2.7725    0.0000 C   0  0  0  0  0  0  0  0  0  0  0  0
   -0.0321   -1.2910    0.0000 C   0  0  0  0  0  0  0  0  0  0  0  0
    1.3946   -0.8277    0.0000 C   0  0  0  0  0  0  0  0  0  0  0  0
    2.2114   -2.0858    0.0000 C   0  0  0  0  0  0  0  0  0  0  0  0
    1.5302   -3.4222    0.0000 O   0  0  0  0  0  0  0  0  0  0  0  0
    3.7093   -2.0075    0.0000 C   0  0  0  0  0  0  0  0  0  0  0  0
    4.3905   -0.6711    0.0000 C   0  0  0  0  0  0  0  0  0  0  0  0
    5.8884   -0.5928    0.0000 C   0  0  0  0  0  0  0  0  0  0  0  0
    6.5696    0.7437    0.0000 C   0  0  0  0  0  0  0  0  0  0  0  0
    8.0676    0.8220    0.0000 O   0  0  0  0  0  0  0  0  0  0  0  0
    5.7528    2.0018    0.0000 C   0  0  0  0  0  0  0  0  0  0  0  0
    4.2549    1.9235    0.0000 C   0  0  0  0  0  0  0  0  0  0  0  0
    3.5737    0.5870    0.0000 C   0  0  0  0  0  0  0  0  0  0  0  0
    2.7569    1.8452    0.0000 C   0  0  0  0  0  0  0  0  0  0  0  0
    2.0757    0.5087    0.0000 C   0  0  0  0  0  0  0  0  0  0  0  0
    1.6124    1.9354    0.0000 C   0  0  0  0  0  0  0  0  0  0  0  0
    0.2760    2.6165    0.0000 C   0  0  0  0  0  0  0  0  0  0  0  0
   -1.1507    2.1532    0.0000 O   0  0  0  0  0  0  0  0  0  0  0  0
   -1.8318    0.8168    0.0000 C   0  0  0  0  0  0  0  0  0  0  0  0
   -3.3272    0.9347    0.0000 O   0  0  0  0  0  0  0  0  0  0  0  0
   -1.3685   -0.6099    0.0000 C   0  0  0  0  0  0  0  0  0  0  0  0
   -2.8270   -0.2595    0.0000 C   0  0  0  0  0  0  0  0  0  0  0  0
  2  1  1  6
  2  3  1  0
  3  4  1  0
  4  5  1  0
  5  6  2  0
  5  7  1  0
  2  8  1  0
  8  9  1  6
  9 10  1  0
 11 10  1  6
 11 12  1  0
 12 13  1  1
 13 14  1  6
 13 15  1  0
 16 15  1  1
 16 17  1  0
 17 18  1  0
 18 19  1  1
 18 20  1  0
 20 21  1  0
 21 22  1  0
 22 23  1  6
 22 24  1  0
 24 25  1  6
 25 26  1  0
 26 27  1  0
 27 28  1  0
 28 29  2  0
 28 30  1  0
 30 31  1  6
 30  8  1  0
 30 11  1  0
 24 12  1  0
 22 16  1  0
M  END
>  <MS_ID>  (3212) 
MS3343

>  <SMILES>  (3212) 
C[C@H](CCC(=O)O)[C@H]1CC[C@H]2[C@@H]3[C@@H](O)C[C@@H]4C[C@H](O)CC[C@]4(C)[C@H]3CCOC(=O)[C@]12C

>  <Structure_dimension>  (3212) 
2D

$$$$
MS3344
     RDKit          2D

 24 27  0  0  0  0  0  0  0  0999 V2000
   -6.1877   -0.1229    0.0000 C   0  0  0  0  0  0  0  0  0  0  0  0
   -4.7954    0.4353    0.0000 C   0  0  0  0  0  0  0  0  0  0  0  0
   -4.5826    1.9201    0.0000 O   0  0  0  0  0  0  0  0  0  0  0  0
   -3.6159   -0.4914    0.0000 C   0  0  0  0  0  0  0  0  0  0  0  0
   -3.6723   -1.9904    0.0000 C   0  0  0  0  0  0  0  0  0  0  0  0
   -2.2641   -2.5072    0.0000 C   0  0  0  0  0  0  0  0  0  0  0  0
   -1.3374   -1.3277    0.0000 C   0  0  0  0  0  0  0  0  0  0  0  0
    0.1592   -1.2271    0.0000 C   0  0  0  0  0  0  0  0  0  0  0  0
    0.9946   -2.4730    0.0000 C   0  0  0  0  0  0  0  0  0  0  0  0
    2.4912   -2.3724    0.0000 C   0  0  0  0  0  0  0  0  0  0  0  0
    3.1524   -1.0260    0.0000 C   0  0  0  0  0  0  0  0  0  0  0  0
    4.6491   -0.9254    0.0000 C   0  0  0  0  0  0  0  0  0  0  0  0
    5.3103    0.4210    0.0000 C   0  0  0  0  0  0  0  0  0  0  0  0
    6.8069    0.5216    0.0000 C   0  0  0  0  0  0  0  0  0  0  0  0
    4.4749    1.6668    0.0000 C   0  0  0  0  0  0  0  0  0  0  0  0
    2.9782    1.5662    0.0000 C   0  0  0  0  0  0  0  0  0  0  0  0
    2.3170    0.2198    0.0000 C   0  0  0  0  0  0  0  0  0  0  0  0
    1.4816    1.4657    0.0000 C   0  0  0  0  0  0  0  0  0  0  0  0
    0.8204    0.1193    0.0000 C   0  0  0  0  0  0  0  0  0  0  0  0
   -0.0150    1.3651    0.0000 C   0  0  0  0  0  0  0  0  0  0  0  0
   -1.5116    1.2645    0.0000 C   0  0  0  0  0  0  0  0  0  0  0  0
   -2.3471    2.5103    0.0000 O   0  0  0  0  0  0  0  0  0  0  0  0
   -2.1729   -0.0819    0.0000 C   0  0  0  0  0  0  0  0  0  0  0  0
   -3.1339    1.0698    0.0000 C   0  0  0  0  0  0  0  0  0  0  0  0
  1  2  1  0
  2  3  2  0
  4  2  1  6
  4  5  1  0
  5  6  1  0
  7  6  1  6
  7  8  1  0
  8  9  1  1
  9 10  1  0
 11 10  1  1
 11 12  1  0
 12 13  1  0
 13 14  1  1
 13 15  1  0
 15 16  1  0
 16 17  1  0
 17 18  1  6
 17 19  1  0
 19 20  1  6
 20 21  1  0
 21 22  1  1
 21 23  1  0
 23 24  1  6
 23  4  1  0
 23  7  1  0
 19  8  1  0
 17 11  1  0
M  END
>  <MS_ID>  (3213) 
MS3344

>  <SMILES>  (3213) 
CC(=O)[C@H]1CC[C@H]2[C@@H]3CC[C@@H]4C[C@H](C)CC[C@]4(C)[C@H]3C[C@H](O)[C@]12C

>  <Structure_dimension>  (3213) 
2D

$$$$
MS3345
     RDKit          2D

 31 34  0  0  0  0  0  0  0  0999 V2000
   -7.6779    3.6120    0.0000 C   0  0  0  0  0  0  0  0  0  0  0  0
   -7.3371    2.1513    0.0000 C   0  0  0  0  0  0  0  0  0  0  0  0
   -8.4318    1.1257    0.0000 C   0  0  0  0  0  0  0  0  0  0  0  0
   -5.9017    1.7160    0.0000 C   0  0  0  0  0  0  0  0  0  0  0  0
   -5.5609    0.2552    0.0000 C   0  0  0  0  0  0  0  0  0  0  0  0
   -4.1254   -0.1800    0.0000 C   0  0  0  0  0  0  0  0  0  0  0  0
   -3.7846   -1.6408    0.0000 C   0  0  0  0  0  0  0  0  0  0  0  0
   -4.8793   -2.6663    0.0000 C   0  0  0  0  0  0  0  0  0  0  0  0
   -2.3491   -2.0760    0.0000 C   0  0  0  0  0  0  0  0  0  0  0  0
   -1.8575   -3.4931    0.0000 C   0  0  0  0  0  0  0  0  0  0  0  0
   -0.3578   -3.4635    0.0000 C   0  0  0  0  0  0  0  0  0  0  0  0
    0.0775   -2.0280    0.0000 C   0  0  0  0  0  0  0  0  0  0  0  0
    1.4354   -1.3910    0.0000 C   0  0  0  0  0  0  0  0  0  0  0  0
    2.6662   -2.2485    0.0000 C   0  0  0  0  0  0  0  0  0  0  0  0
    4.0242   -1.6114    0.0000 C   0  0  0  0  0  0  0  0  0  0  0  0
    5.2549   -2.4689    0.0000 O   0  0  0  0  0  0  0  0  0  0  0  0
    4.1514   -0.1168    0.0000 C   0  0  0  0  0  0  0  0  0  0  0  0
    5.3821   -0.9743    0.0000 O   0  0  0  0  0  0  0  0  0  0  0  0
    5.5094    0.5202    0.0000 C   0  0  0  0  0  0  0  0  0  0  0  0
    5.6367    2.0148    0.0000 C   0  0  0  0  0  0  0  0  0  0  0  0
    6.9947    2.6519    0.0000 O   0  0  0  0  0  0  0  0  0  0  0  0
    4.4060    2.8724    0.0000 C   0  0  0  0  0  0  0  0  0  0  0  0
    3.0480    2.2353    0.0000 C   0  0  0  0  0  0  0  0  0  0  0  0
    2.9207    0.7407    0.0000 C   0  0  0  0  0  0  0  0  0  0  0  0
    1.6900    1.5982    0.0000 C   0  0  0  0  0  0  0  0  0  0  0  0
    1.8173    3.0928    0.0000 O   0  0  0  0  0  0  0  0  0  0  0  0
    1.5627    0.1036    0.0000 C   0  0  0  0  0  0  0  0  0  0  0  0
    0.3320    0.9612    0.0000 C   0  0  0  0  0  0  0  0  0  0  0  0
   -1.0260    0.3241    0.0000 C   0  0  0  0  0  0  0  0  0  0  0  0
   -1.1533   -1.1705    0.0000 C   0  0  0  0  0  0  0  0  0  0  0  0
   -2.4669   -0.4463    0.0000 C   0  0  0  0  0  0  0  0  0  0  0  0
  1  2  1  0
  2  3  1  0
  2  4  1  0
  4  5  1  0
  5  6  1  0
  6  7  1  0
  7  8  1  6
  7  9  1  0
  9 10  1  6
 10 11  1  0
 12 11  1  6
 12 13  1  0
 13 14  1  1
 14 15  1  0
 15 16  1  6
 15 17  1  0
 17 18  1  1
 17 19  1  0
 19 20  1  0
 20 21  1  6
 20 22  1  0
 22 23  1  0
 23 24  1  0
 24 25  1  6
 25 26  1  0
 24 27  1  0
 27 28  1  6
 28 29  1  0
 29 30  1  0
 30 31  1  6
 30  9  1  0
 30 12  1  0
 27 13  1  0
 24 17  1  0
M  END
>  <MS_ID>  (3214) 
MS3345

>  <SMILES>  (3214) 
CC(C)CCC[C@@H](C)[C@H]1CC[C@H]2[C@@H]3C[C@@H](O)[C@@]4(O)C[C@@H](O)CC[C@]4(CO)[C@H]3CC[C@]12C

>  <Structure_dimension>  (3214) 
2D

$$$$
MS3346
     RDKit          2D

 29 32  0  0  0  0  0  0  0  0999 V2000
   -9.3118    0.4222    0.0000 C   0  0  0  0  0  0  0  0  0  0  0  0
   -7.9280    1.0010    0.0000 C   0  0  0  0  0  0  0  0  0  0  0  0
   -6.7348    0.0919    0.0000 C   0  0  0  0  0  0  0  0  0  0  0  0
   -6.9255   -1.3959    0.0000 O   0  0  0  0  0  0  0  0  0  0  0  0
   -5.3510    0.6707    0.0000 O   0  0  0  0  0  0  0  0  0  0  0  0
   -4.1579   -0.2384    0.0000 C   0  0  0  0  0  0  0  0  0  0  0  0
   -4.1920   -1.7380    0.0000 C   0  0  0  0  0  0  0  0  0  0  0  0
   -2.7763   -2.2339    0.0000 C   0  0  0  0  0  0  0  0  0  0  0  0
   -1.8673   -1.0407    0.0000 C   0  0  0  0  0  0  0  0  0  0  0  0
   -0.3723   -0.9179    0.0000 C   0  0  0  0  0  0  0  0  0  0  0  0
    0.4816   -2.1512    0.0000 C   0  0  0  0  0  0  0  0  0  0  0  0
    1.9765   -2.0284    0.0000 C   0  0  0  0  0  0  0  0  0  0  0  0
    2.6176   -0.6723    0.0000 C   0  0  0  0  0  0  0  0  0  0  0  0
    4.1126   -0.5495    0.0000 C   0  0  0  0  0  0  0  0  0  0  0  0
    4.7537    0.8066    0.0000 C   0  0  0  0  0  0  0  0  0  0  0  0
    6.2487    0.9294    0.0000 O   0  0  0  0  0  0  0  0  0  0  0  0
    7.1025   -0.3038    0.0000 S   0  0  0  0  0  0  0  0  0  0  0  0
    5.8693   -1.1577    0.0000 O   0  0  0  0  0  0  0  0  0  0  0  0
    8.3358    0.5500    0.0000 O   0  0  0  0  0  0  0  0  0  0  0  0
    7.9564   -1.5371    0.0000 O   0  0  0  0  0  0  0  0  0  0  0  0
    3.8999    2.0399    0.0000 C   0  0  0  0  0  0  0  0  0  0  0  0
    2.4049    1.9171    0.0000 C   0  0  0  0  0  0  0  0  0  0  0  0
    1.7638    0.5610    0.0000 C   0  0  0  0  0  0  0  0  0  0  0  0
    0.9100    1.7943    0.0000 C   0  0  0  0  0  0  0  0  0  0  0  0
    0.2688    0.4382    0.0000 C   0  0  0  0  0  0  0  0  0  0  0  0
   -0.5850    1.6715    0.0000 C   0  0  0  0  0  0  0  0  0  0  0  0
   -2.0800    1.5486    0.0000 C   0  0  0  0  0  0  0  0  0  0  0  0
   -2.7211    0.1926    0.0000 C   0  0  0  0  0  0  0  0  0  0  0  0
   -3.6992    1.3298    0.0000 C   0  0  0  0  0  0  0  0  0  0  0  0
  1  2  1  0
  2  3  1  0
  3  4  2  0
  3  5  1  0
  6  5  1  6
  6  7  1  0
  7  8  1  0
  9  8  1  6
  9 10  1  0
 10 11  1  1
 11 12  1  0
 13 12  1  1
 13 14  1  0
 14 15  1  0
 15 16  1  1
 16 17  1  0
 17 18  2  0
 17 19  2  0
 17 20  1  0
 15 21  1  0
 21 22  1  0
 22 23  1  0
 23 24  1  6
 23 25  1  0
 25 26  1  6
 26 27  1  0
 27 28  1  0
 28 29  1  6
 28  6  1  0
 28  9  1  0
 25 10  1  0
 23 13  1  0
M  END
>  <MS_ID>  (3215) 
MS3346

>  <SMILES>  (3215) 
CCC(=O)O[C@H]1CC[C@H]2[C@@H]3CC[C@@H]4C[C@H](OS(=O)(=O)O)CC[C@]4(C)[C@H]3CC[C@]12C

>  <Structure_dimension>  (3215) 
2D

$$$$
MS3347
     RDKit          2D

 30 33  0  0  0  0  0  0  0  0999 V2000
    1.1000   -1.1669    0.0000 C   0  0  0  0  0  0  0  0  0  0  0  0
    1.7042    0.2060    0.0000 C   0  0  0  0  0  0  0  0  0  0  0  0
    2.5911   -1.0037    0.0000 C   0  0  0  0  0  0  0  0  0  0  0  0
    4.0822   -0.8406    0.0000 C   0  0  0  0  0  0  0  0  0  0  0  0
    4.6864    0.5323    0.0000 C   0  0  0  0  0  0  0  0  0  0  0  0
    6.1775    0.6955    0.0000 O   0  0  0  0  0  0  0  0  0  0  0  0
    7.0644   -0.5142    0.0000 S   0  0  0  0  0  0  0  0  0  0  0  0
    5.8546   -1.4011    0.0000 O   0  0  0  0  0  0  0  0  0  0  0  0
    8.2741    0.3726    0.0000 O   0  0  0  0  0  0  0  0  0  0  0  0
    7.9512   -1.7240    0.0000 O   0  0  0  0  0  0  0  0  0  0  0  0
    3.7996    1.7421    0.0000 C   0  0  0  0  0  0  0  0  0  0  0  0
    2.3085    1.5789    0.0000 C   0  0  0  0  0  0  0  0  0  0  0  0
    1.4216    2.7887    0.0000 C   0  0  0  0  0  0  0  0  0  0  0  0
   -0.0695    2.6255    0.0000 C   0  0  0  0  0  0  0  0  0  0  0  0
   -0.6737    1.2526    0.0000 C   0  0  0  0  0  0  0  0  0  0  0  0
    0.2131    0.0428    0.0000 C   0  0  0  0  0  0  0  0  0  0  0  0
   -0.3911   -1.3301    0.0000 C   0  0  0  0  0  0  0  0  0  0  0  0
   -1.8822   -1.4932    0.0000 C   0  0  0  0  0  0  0  0  0  0  0  0
   -2.4865   -2.8662    0.0000 O   0  0  0  0  0  0  0  0  0  0  0  0
   -2.7691   -0.2835    0.0000 C   0  0  0  0  0  0  0  0  0  0  0  0
   -3.3492   -1.6668    0.0000 C   0  0  0  0  0  0  0  0  0  0  0  0
   -2.1648    1.0894    0.0000 C   0  0  0  0  0  0  0  0  0  0  0  0
   -3.2838    2.0883    0.0000 C   0  0  0  0  0  0  0  0  0  0  0  0
   -4.5796    1.3328    0.0000 C   0  0  0  0  0  0  0  0  0  0  0  0
   -4.2615   -0.1331    0.0000 C   0  0  0  0  0  0  0  0  0  0  0  0
   -4.4380   -1.6227    0.0000 O   0  0  0  0  0  0  0  0  0  0  0  0
   -5.7526   -0.2962    0.0000 C   0  0  0  0  0  0  0  0  0  0  0  0
   -6.3569   -1.6692    0.0000 O   0  0  0  0  0  0  0  0  0  0  0  0
   -6.6395    0.9135    0.0000 C   0  0  0  0  0  0  0  0  0  0  0  0
   -8.1306    0.7503    0.0000 O   0  0  0  0  0  0  0  0  0  0  0  0
  2  1  1  1
  2  3  1  0
  3  4  1  0
  4  5  1  0
  5  6  1  1
  6  7  1  0
  7  8  2  0
  7  9  2  0
  7 10  1  0
  5 11  1  0
 12 11  1  6
 12 13  1  0
 13 14  1  0
 15 14  1  6
 15 16  1  0
 16 17  1  1
 17 18  1  0
 18 19  1  6
 18 20  1  0
 20 21  1  1
 20 22  1  0
 22 23  1  1
 23 24  1  0
 24 25  1  0
 25 26  1  6
 25 27  1  0
 27 28  2  0
 27 29  1  0
 29 30  1  0
 12  2  1  0
 22 15  1  0
 16  2  1  0
 25 20  1  0
M  END
>  <MS_ID>  (3216) 
MS3347

>  <SMILES>  (3216) 
C[C@]12CC[C@H](OS(=O)(=O)O)C[C@H]1CC[C@@H]1[C@@H]2C[C@H](O)[C@@]2(C)[C@H]1CC[C@]2(O)C(=O)CO

>  <Structure_dimension>  (3216) 
2D

$$$$
MS3348
     RDKit          2D

 25 28  0  0  0  0  0  0  0  0999 V2000
    2.0644   -1.5574    0.0000 C   0  0  0  0  0  0  0  0  0  0  0  0
    2.7613   -0.2292    0.0000 C   0  0  0  0  0  0  0  0  0  0  0  0
    3.5632   -1.4969    0.0000 C   0  0  0  0  0  0  0  0  0  0  0  0
    5.0619   -1.4363    0.0000 C   0  0  0  0  0  0  0  0  0  0  0  0
    5.7589   -0.1080    0.0000 C   0  0  0  0  0  0  0  0  0  0  0  0
    7.2577   -0.0475    0.0000 O   0  0  0  0  0  0  0  0  0  0  0  0
    4.9571    1.1597    0.0000 C   0  0  0  0  0  0  0  0  0  0  0  0
    3.4583    1.0991    0.0000 C   0  0  0  0  0  0  0  0  0  0  0  0
    2.6564    2.3668    0.0000 C   0  0  0  0  0  0  0  0  0  0  0  0
    1.1577    2.3062    0.0000 C   0  0  0  0  0  0  0  0  0  0  0  0
    0.4607    0.9780    0.0000 C   0  0  0  0  0  0  0  0  0  0  0  0
    1.2626   -0.2897    0.0000 C   0  0  0  0  0  0  0  0  0  0  0  0
    0.5656   -1.6180    0.0000 C   0  0  0  0  0  0  0  0  0  0  0  0
   -0.9332   -1.6785    0.0000 C   0  0  0  0  0  0  0  0  0  0  0  0
   -1.7350   -0.4108    0.0000 C   0  0  0  0  0  0  0  0  0  0  0  0
   -2.4086   -1.7511    0.0000 C   0  0  0  0  0  0  0  0  0  0  0  0
   -1.0381    0.9174    0.0000 C   0  0  0  0  0  0  0  0  0  0  0  0
   -2.0859    1.9907    0.0000 C   0  0  0  0  0  0  0  0  0  0  0  0
   -3.4305    1.3258    0.0000 C   0  0  0  0  0  0  0  0  0  0  0  0
   -3.2136   -0.1585    0.0000 C   0  0  0  0  0  0  0  0  0  0  0  0
   -3.4918   -1.6324    0.0000 O   0  0  0  0  0  0  0  0  0  0  0  0
   -4.7124   -0.2190    0.0000 C   0  0  0  0  0  0  0  0  0  0  0  0
   -5.4093   -1.5473    0.0000 O   0  0  0  0  0  0  0  0  0  0  0  0
   -5.5142    1.0487    0.0000 C   0  0  0  0  0  0  0  0  0  0  0  0
   -7.0130    0.9881    0.0000 O   0  0  0  0  0  0  0  0  0  0  0  0
  2  1  1  1
  2  3  1  0
  3  4  1  0
  4  5  1  0
  5  6  1  6
  5  7  1  0
  8  7  1  6
  8  9  1  0
  9 10  1  0
 11 10  1  6
 11 12  1  0
 12 13  1  1
 13 14  1  0
 14 15  1  0
 15 16  1  1
 15 17  1  0
 17 18  1  1
 18 19  1  0
 19 20  1  0
 20 21  1  1
 20 22  1  0
 22 23  2  0
 22 24  1  0
 24 25  1  0
  8  2  1  0
 17 11  1  0
 12  2  1  0
 20 15  1  0
M  END
>  <MS_ID>  (3217) 
MS3348

>  <SMILES>  (3217) 
C[C@]12CC[C@@H](O)C[C@H]1CC[C@@H]1[C@@H]2CC[C@@]2(C)[C@H]1CC[C@@]2(O)C(=O)CO

>  <Structure_dimension>  (3217) 
2D

$$$$
MS3349
     RDKit          2D

 24 27  0  0  0  0  0  0  0  0999 V2000
   -7.1591    0.8654    0.0000 C   0  0  0  0  0  0  0  0  0  0  0  0
   -5.9784   -0.0597    0.0000 C   0  0  0  0  0  0  0  0  0  0  0  0
   -4.5869    0.5003    0.0000 C   0  0  0  0  0  0  0  0  0  0  0  0
   -4.3760    1.9854    0.0000 O   0  0  0  0  0  0  0  0  0  0  0  0
   -3.4061   -0.4248    0.0000 C   0  0  0  0  0  0  0  0  0  0  0  0
   -3.4606   -1.9239    0.0000 C   0  0  0  0  0  0  0  0  0  0  0  0
   -2.0517   -2.4388    0.0000 C   0  0  0  0  0  0  0  0  0  0  0  0
   -1.1266   -1.2581    0.0000 C   0  0  0  0  0  0  0  0  0  0  0  0
    0.3699   -1.1555    0.0000 C   0  0  0  0  0  0  0  0  0  0  0  0
    1.2070   -2.4003    0.0000 C   0  0  0  0  0  0  0  0  0  0  0  0
    2.7034   -2.2977    0.0000 C   0  0  0  0  0  0  0  0  0  0  0  0
    3.3629   -0.9504    0.0000 C   0  0  0  0  0  0  0  0  0  0  0  0
    4.8594   -0.8479    0.0000 C   0  0  0  0  0  0  0  0  0  0  0  0
    5.5188    0.4994    0.0000 C   0  0  0  0  0  0  0  0  0  0  0  0
    7.0153    0.6020    0.0000 O   0  0  0  0  0  0  0  0  0  0  0  0
    4.6817    1.7441    0.0000 C   0  0  0  0  0  0  0  0  0  0  0  0
    3.1852    1.6416    0.0000 C   0  0  0  0  0  0  0  0  0  0  0  0
    2.5258    0.2943    0.0000 C   0  0  0  0  0  0  0  0  0  0  0  0
    1.6887    1.5390    0.0000 C   0  0  0  0  0  0  0  0  0  0  0  0
    1.0293    0.1917    0.0000 C   0  0  0  0  0  0  0  0  0  0  0  0
    0.1923    1.4364    0.0000 C   0  0  0  0  0  0  0  0  0  0  0  0
   -1.3042    1.3339    0.0000 C   0  0  0  0  0  0  0  0  0  0  0  0
   -1.9637   -0.0134    0.0000 C   0  0  0  0  0  0  0  0  0  0  0  0
   -2.9262    1.1370    0.0000 C   0  0  0  0  0  0  0  0  0  0  0  0
  1  2  1  0
  2  3  1  0
  3  4  2  0
  5  3  1  1
  5  6  1  0
  6  7  1  0
  8  7  1  6
  8  9  1  0
  9 10  1  1
 10 11  1  0
 12 11  1  1
 12 13  1  0
 13 14  1  0
 14 15  1  1
 14 16  1  0
 16 17  1  0
 17 18  1  0
 18 19  1  6
 18 20  1  0
 20 21  1  6
 21 22  1  0
 22 23  1  0
 23 24  1  6
 23  5  1  0
 23  8  1  0
 20  9  1  0
 18 12  1  0
M  END
>  <MS_ID>  (3218) 
MS3349

>  <SMILES>  (3218) 
CCC(=O)[C@@H]1CC[C@H]2[C@@H]3CC[C@@H]4C[C@H](O)CC[C@]4(C)[C@H]3CC[C@]12C

>  <Structure_dimension>  (3218) 
2D

$$$$
MS3350
     RDKit          2D

 24 27  0  0  0  0  0  0  0  0999 V2000
   -6.1877   -0.1229    0.0000 C   0  0  0  0  0  0  0  0  0  0  0  0
   -4.7954    0.4353    0.0000 C   0  0  0  0  0  0  0  0  0  0  0  0
   -4.5826    1.9201    0.0000 O   0  0  0  0  0  0  0  0  0  0  0  0
   -3.6159   -0.4914    0.0000 C   0  0  0  0  0  0  0  0  0  0  0  0
   -3.6723   -1.9904    0.0000 C   0  0  0  0  0  0  0  0  0  0  0  0
   -2.2641   -2.5072    0.0000 C   0  0  0  0  0  0  0  0  0  0  0  0
   -1.3374   -1.3277    0.0000 C   0  0  0  0  0  0  0  0  0  0  0  0
    0.1592   -1.2271    0.0000 C   0  0  0  0  0  0  0  0  0  0  0  0
    0.9946   -2.4730    0.0000 C   0  0  0  0  0  0  0  0  0  0  0  0
    2.4912   -2.3724    0.0000 C   0  0  0  0  0  0  0  0  0  0  0  0
    3.1524   -1.0260    0.0000 C   0  0  0  0  0  0  0  0  0  0  0  0
    4.6491   -0.9254    0.0000 C   0  0  0  0  0  0  0  0  0  0  0  0
    5.3103    0.4210    0.0000 C   0  0  0  0  0  0  0  0  0  0  0  0
    6.8069    0.5216    0.0000 C   0  0  0  0  0  0  0  0  0  0  0  0
    4.4749    1.6668    0.0000 C   0  0  0  0  0  0  0  0  0  0  0  0
    2.9782    1.5662    0.0000 C   0  0  0  0  0  0  0  0  0  0  0  0
    2.3170    0.2198    0.0000 C   0  0  0  0  0  0  0  0  0  0  0  0
    1.4816    1.4657    0.0000 C   0  0  0  0  0  0  0  0  0  0  0  0
    0.8204    0.1193    0.0000 C   0  0  0  0  0  0  0  0  0  0  0  0
   -0.0150    1.3651    0.0000 C   0  0  0  0  0  0  0  0  0  0  0  0
   -1.5116    1.2645    0.0000 C   0  0  0  0  0  0  0  0  0  0  0  0
   -2.3471    2.5103    0.0000 O   0  0  0  0  0  0  0  0  0  0  0  0
   -2.1729   -0.0819    0.0000 C   0  0  0  0  0  0  0  0  0  0  0  0
   -3.1339    1.0698    0.0000 C   0  0  0  0  0  0  0  0  0  0  0  0
  1  2  1  0
  2  3  2  0
  4  2  1  6
  4  5  1  0
  5  6  1  0
  7  6  1  6
  7  8  1  0
  8  9  1  1
  9 10  1  0
 11 10  1  1
 11 12  1  0
 12 13  1  0
 13 14  1  1
 13 15  1  0
 15 16  1  0
 16 17  1  0
 17 18  1  6
 17 19  1  0
 19 20  1  6
 20 21  1  0
 21 22  1  6
 21 23  1  0
 23 24  1  6
 23  4  1  0
 23  7  1  0
 19  8  1  0
 17 11  1  0
M  END
>  <MS_ID>  (3219) 
MS3350

>  <SMILES>  (3219) 
CC(=O)[C@H]1CC[C@H]2[C@@H]3CC[C@@H]4C[C@H](C)CC[C@]4(C)[C@H]3C[C@@H](O)[C@]12C

>  <Structure_dimension>  (3219) 
2D

$$$$
MS3351
     RDKit          2D

 26 29  0  0  0  0  0  0  0  0999 V2000
    2.0439   -1.7030    0.0000 C   0  0  0  0  0  0  0  0  0  0  0  0
    2.7462   -0.3775    0.0000 C   0  0  0  0  0  0  0  0  0  0  0  0
    3.5430   -1.6484    0.0000 C   0  0  0  0  0  0  0  0  0  0  0  0
    5.0420   -1.5938    0.0000 C   0  0  0  0  0  0  0  0  0  0  0  0
    5.7442   -0.2683    0.0000 C   0  0  0  0  0  0  0  0  0  0  0  0
    7.2432   -0.2137    0.0000 O   0  0  0  0  0  0  0  0  0  0  0  0
    4.9474    1.0025    0.0000 C   0  0  0  0  0  0  0  0  0  0  0  0
    3.4484    0.9479    0.0000 C   0  0  0  0  0  0  0  0  0  0  0  0
    2.6516    2.2188    0.0000 C   0  0  0  0  0  0  0  0  0  0  0  0
    1.1526    2.1642    0.0000 C   0  0  0  0  0  0  0  0  0  0  0  0
    0.3558    3.4351    0.0000 O   0  0  0  0  0  0  0  0  0  0  0  0
    0.4504    0.8387    0.0000 C   0  0  0  0  0  0  0  0  0  0  0  0
    1.2472   -0.4321    0.0000 C   0  0  0  0  0  0  0  0  0  0  0  0
    0.5449   -1.7576    0.0000 C   0  0  0  0  0  0  0  0  0  0  0  0
   -0.9541   -1.8122    0.0000 C   0  0  0  0  0  0  0  0  0  0  0  0
   -1.7509   -0.5413    0.0000 C   0  0  0  0  0  0  0  0  0  0  0  0
   -2.4298   -1.8789    0.0000 C   0  0  0  0  0  0  0  0  0  0  0  0
   -1.0486    0.7841    0.0000 C   0  0  0  0  0  0  0  0  0  0  0  0
   -2.0922    1.8616    0.0000 C   0  0  0  0  0  0  0  0  0  0  0  0
   -3.4394    1.2020    0.0000 C   0  0  0  0  0  0  0  0  0  0  0  0
   -3.2285   -0.2831    0.0000 C   0  0  0  0  0  0  0  0  0  0  0  0
   -3.5125   -1.7559    0.0000 O   0  0  0  0  0  0  0  0  0  0  0  0
   -4.7275   -0.3377    0.0000 C   0  0  0  0  0  0  0  0  0  0  0  0
   -5.4297   -1.6632    0.0000 O   0  0  0  0  0  0  0  0  0  0  0  0
   -5.5242    0.9332    0.0000 C   0  0  0  0  0  0  0  0  0  0  0  0
   -7.0233    0.8786    0.0000 O   0  0  0  0  0  0  0  0  0  0  0  0
  2  1  1  1
  2  3  1  0
  3  4  1  0
  4  5  1  0
  5  6  1  6
  5  7  1  0
  8  7  1  6
  8  9  1  0
  9 10  1  0
 10 11  1  1
 12 10  1  6
 12 13  1  0
 13 14  1  1
 14 15  1  0
 15 16  1  0
 16 17  1  1
 16 18  1  0
 18 19  1  1
 19 20  1  0
 20 21  1  0
 21 22  1  6
 21 23  1  0
 23 24  2  0
 23 25  1  0
 25 26  1  0
  8  2  1  0
 18 12  1  0
 13  2  1  0
 21 16  1  0
M  END
>  <MS_ID>  (3220) 
MS3351

>  <SMILES>  (3220) 
C[C@]12CC[C@@H](O)C[C@H]1C[C@H](O)[C@@H]1[C@@H]2CC[C@@]2(C)[C@H]1CC[C@]2(O)C(=O)CO

>  <Structure_dimension>  (3220) 
2D

$$$$
MS3352
     RDKit          2D

 34 37  0  0  0  0  0  0  0  0999 V2000
   -5.5217   -2.5174    0.0000 C   0  0  0  0  0  0  0  0  0  0  0  0
   -4.3726   -1.5533    0.0000 C   0  0  0  0  0  0  0  0  0  0  0  0
   -4.6330   -0.0760    0.0000 C   0  0  0  0  0  0  0  0  0  0  0  0
   -6.0425    0.4371    0.0000 C   0  0  0  0  0  0  0  0  0  0  0  0
   -6.3029    1.9143    0.0000 O   0  0  0  0  0  0  0  0  0  0  0  0
   -7.7124    2.4274    0.0000 S   0  0  0  0  0  0  0  0  0  0  0  0
   -8.2255    1.0179    0.0000 O   0  0  0  0  0  0  0  0  0  0  0  0
   -7.1993    3.8369    0.0000 O   0  0  0  0  0  0  0  0  0  0  0  0
   -9.1219    2.9405    0.0000 O   0  0  0  0  0  0  0  0  0  0  0  0
   -2.9631   -2.0664    0.0000 C   0  0  0  0  0  0  0  0  0  0  0  0
   -2.5497   -3.5083    0.0000 C   0  0  0  0  0  0  0  0  0  0  0  0
   -1.0506   -3.5607    0.0000 C   0  0  0  0  0  0  0  0  0  0  0  0
   -0.5375   -2.1512    0.0000 C   0  0  0  0  0  0  0  0  0  0  0  0
    0.8533   -1.5894    0.0000 C   0  0  0  0  0  0  0  0  0  0  0  0
    2.0353   -2.5130    0.0000 C   0  0  0  0  0  0  0  0  0  0  0  0
    1.8264   -3.9983    0.0000 O   0  0  0  0  0  0  0  0  0  0  0  0
    3.4261   -1.9511    0.0000 C   0  0  0  0  0  0  0  0  0  0  0  0
    3.6349   -0.4657    0.0000 C   0  0  0  0  0  0  0  0  0  0  0  0
    5.0257    0.0961    0.0000 C   0  0  0  0  0  0  0  0  0  0  0  0
    5.2346    1.5815    0.0000 C   0  0  0  0  0  0  0  0  0  0  0  0
    6.6254    2.1433    0.0000 O   0  0  0  0  0  0  0  0  0  0  0  0
    7.8074    1.2198    0.0000 S   0  0  0  0  0  0  0  0  0  0  0  0
    6.8838    0.0378    0.0000 O   0  0  0  0  0  0  0  0  0  0  0  0
    8.7309    2.4017    0.0000 O   0  0  0  0  0  0  0  0  0  0  0  0
    8.9893    0.2962    0.0000 O   0  0  0  0  0  0  0  0  0  0  0  0
    4.0526    2.5051    0.0000 C   0  0  0  0  0  0  0  0  0  0  0  0
    2.6618    1.9432    0.0000 C   0  0  0  0  0  0  0  0  0  0  0  0
    2.4530    0.4578    0.0000 C   0  0  0  0  0  0  0  0  0  0  0  0
    1.2710    1.3814    0.0000 C   0  0  0  0  0  0  0  0  0  0  0  0
    1.0622   -0.1040    0.0000 C   0  0  0  0  0  0  0  0  0  0  0  0
   -0.1198    0.8196    0.0000 C   0  0  0  0  0  0  0  0  0  0  0  0
   -1.5106    0.2577    0.0000 C   0  0  0  0  0  0  0  0  0  0  0  0
   -1.7195   -1.2277    0.0000 C   0  0  0  0  0  0  0  0  0  0  0  0
   -2.9915   -0.4327    0.0000 C   0  0  0  0  0  0  0  0  0  0  0  0
  2  1  1  6
  2  3  1  0
  3  4  1  0
  4  5  1  0
  5  6  1  0
  6  7  2  0
  6  8  2  0
  6  9  1  0
  2 10  1  0
 10 11  1  6
 11 12  1  0
 13 12  1  6
 13 14  1  0
 14 15  1  1
 15 16  1  6
 15 17  1  0
 18 17  1  1
 18 19  1  0
 19 20  1  0
 20 21  1  1
 21 22  1  0
 22 23  2  0
 22 24  2  0
 22 25  1  0
 20 26  1  0
 26 27  1  0
 27 28  1  0
 28 29  1  6
 28 30  1  0
 30 31  1  6
 31 32  1  0
 32 33  1  0
 33 34  1  6
 33 10  1  0
 33 13  1  0
 30 14  1  0
 28 18  1  0
M  END
>  <MS_ID>  (3221) 
MS3352

>  <SMILES>  (3221) 
C[C@H](CCOS(=O)(=O)O)[C@H]1CC[C@H]2[C@@H]3[C@@H](O)C[C@@H]4C[C@H](OS(=O)(=O)O)CC[C@]4(C)[C@H]3CC[C@]12C

>  <Structure_dimension>  (3221) 
2D

$$$$
MS3353
     RDKit          2D

 35 38  0  0  0  0  0  0  0  0999 V2000
   -2.5267    2.3919    0.0000 C   0  0  0  0  0  0  0  0  0  0  0  0
   -1.2584    1.5910    0.0000 S   0  0  0  0  0  0  0  0  0  0  0  0
   -1.3177    0.0922    0.0000 C   0  0  0  0  0  0  0  0  0  0  0  0
   -2.6454   -0.6058    0.0000 C   0  0  0  0  0  0  0  0  0  0  0  0
   -3.9138    0.1950    0.0000 C   0  0  0  0  0  0  0  0  0  0  0  0
   -5.2415   -0.5030    0.0000 C   0  0  0  0  0  0  0  0  0  0  0  0
   -5.3008   -2.0018    0.0000 O   0  0  0  0  0  0  0  0  0  0  0  0
   -6.5098    0.2979    0.0000 N   0  0  0  0  0  0  0  0  0  0  0  0
   -7.8375   -0.4001    0.0000 C   0  0  0  0  0  0  0  0  0  0  0  0
   -9.1058    0.4007    0.0000 C   0  0  0  0  0  0  0  0  0  0  0  0
  -10.4335   -0.2973    0.0000 C   0  0  0  0  0  0  0  0  0  0  0  0
  -11.7019    0.5035    0.0000 C   0  0  0  0  0  0  0  0  0  0  0  0
  -11.6425    2.0023    0.0000 O   0  0  0  0  0  0  0  0  0  0  0  0
  -13.0296   -0.1945    0.0000 O   0  0  0  0  0  0  0  0  0  0  0  0
   -0.0494   -0.7086    0.0000 C   0  0  0  0  0  0  0  0  0  0  0  0
    0.0482   -2.2054    0.0000 C   0  0  0  0  0  0  0  0  0  0  0  0
    1.5020   -2.5751    0.0000 C   0  0  0  0  0  0  0  0  0  0  0  0
    2.3028   -1.3068    0.0000 C   0  0  0  0  0  0  0  0  0  0  0  0
    3.7812   -1.0532    0.0000 C   0  0  0  0  0  0  0  0  0  0  0  0
    4.7400   -2.2068    0.0000 C   0  0  0  0  0  0  0  0  0  0  0  0
    4.2204   -3.6139    0.0000 O   0  0  0  0  0  0  0  0  0  0  0  0
    6.2184   -1.9532    0.0000 C   0  0  0  0  0  0  0  0  0  0  0  0
    6.7380   -0.5461    0.0000 C   0  0  0  0  0  0  0  0  0  0  0  0
    8.2165   -0.2926    0.0000 C   0  0  0  0  0  0  0  0  0  0  0  0
    8.7361    1.1146    0.0000 C   0  0  0  0  0  0  0  0  0  0  0  0
   10.2145    1.3681    0.0000 O   0  0  0  0  0  0  0  0  0  0  0  0
    7.7773    2.2681    0.0000 C   0  0  0  0  0  0  0  0  0  0  0  0
    6.2989    2.0146    0.0000 C   0  0  0  0  0  0  0  0  0  0  0  0
    5.7792    0.6075    0.0000 C   0  0  0  0  0  0  0  0  0  0  0  0
    4.8205    1.7610    0.0000 C   0  0  0  0  0  0  0  0  0  0  0  0
    4.3008    0.3539    0.0000 C   0  0  0  0  0  0  0  0  0  0  0  0
    3.3420    1.5075    0.0000 C   0  0  0  0  0  0  0  0  0  0  0  0
    1.8636    1.2539    0.0000 C   0  0  0  0  0  0  0  0  0  0  0  0
    1.3440   -0.1532    0.0000 C   0  0  0  0  0  0  0  0  0  0  0  0
    0.2699    0.8938    0.0000 C   0  0  0  0  0  0  0  0  0  0  0  0
  1  2  1  0
  2  3  1  0
  3  4  1  1
  4  5  1  0
  5  6  1  0
  6  7  2  0
  6  8  1  0
  8  9  1  0
  9 10  1  0
 10 11  1  0
 11 12  1  0
 12 13  2  0
 12 14  1  0
  3 15  1  0
 15 16  1  6
 16 17  1  0
 18 17  1  6
 18 19  1  0
 19 20  1  1
 20 21  1  6
 20 22  1  0
 23 22  1  1
 23 24  1  0
 24 25  1  0
 25 26  1  1
 25 27  1  0
 27 28  1  0
 28 29  1  0
 29 30  1  6
 29 31  1  0
 31 32  1  6
 32 33  1  0
 33 34  1  0
 34 35  1  6
 34 15  1  0
 34 18  1  0
 31 19  1  0
 29 23  1  0
M  END
>  <MS_ID>  (3222) 
MS3353

>  <SMILES>  (3222) 
CS[C@H](CCC(=O)NCCCC(=O)O)[C@H]1CC[C@H]2[C@@H]3[C@@H](O)C[C@@H]4C[C@H](O)CC[C@]4(C)[C@H]3CC[C@]12C

>  <Structure_dimension>  (3222) 
2D

$$$$
MS3354
     RDKit          2D

 24 27  0  0  0  0  0  0  0  0999 V2000
   -6.1877   -0.1229    0.0000 C   0  0  0  0  0  0  0  0  0  0  0  0
   -4.7954    0.4353    0.0000 C   0  0  0  0  0  0  0  0  0  0  0  0
   -4.5826    1.9201    0.0000 O   0  0  0  0  0  0  0  0  0  0  0  0
   -3.6159   -0.4914    0.0000 C   0  0  0  0  0  0  0  0  0  0  0  0
   -3.6723   -1.9904    0.0000 C   0  0  0  0  0  0  0  0  0  0  0  0
   -2.2641   -2.5072    0.0000 C   0  0  0  0  0  0  0  0  0  0  0  0
   -1.3374   -1.3277    0.0000 C   0  0  0  0  0  0  0  0  0  0  0  0
    0.1592   -1.2271    0.0000 C   0  0  0  0  0  0  0  0  0  0  0  0
    0.9946   -2.4730    0.0000 C   0  0  0  0  0  0  0  0  0  0  0  0
    2.4912   -2.3724    0.0000 C   0  0  0  0  0  0  0  0  0  0  0  0
    3.1524   -1.0260    0.0000 C   0  0  0  0  0  0  0  0  0  0  0  0
    4.6491   -0.9254    0.0000 C   0  0  0  0  0  0  0  0  0  0  0  0
    5.3103    0.4210    0.0000 C   0  0  0  0  0  0  0  0  0  0  0  0
    6.8069    0.5216    0.0000 O   0  0  0  0  0  0  0  0  0  0  0  0
    4.4749    1.6668    0.0000 C   0  0  0  0  0  0  0  0  0  0  0  0
    2.9782    1.5662    0.0000 C   0  0  0  0  0  0  0  0  0  0  0  0
    2.3170    0.2198    0.0000 C   0  0  0  0  0  0  0  0  0  0  0  0
    1.4816    1.4657    0.0000 C   0  0  0  0  0  0  0  0  0  0  0  0
    0.8204    0.1193    0.0000 C   0  0  0  0  0  0  0  0  0  0  0  0
   -0.0150    1.3651    0.0000 C   0  0  0  0  0  0  0  0  0  0  0  0
   -1.5116    1.2645    0.0000 C   0  0  0  0  0  0  0  0  0  0  0  0
   -2.3471    2.5103    0.0000 O   0  0  0  0  0  0  0  0  0  0  0  0
   -2.1729   -0.0819    0.0000 C   0  0  0  0  0  0  0  0  0  0  0  0
   -3.1339    1.0698    0.0000 C   0  0  0  0  0  0  0  0  0  0  0  0
  1  2  1  0
  2  3  2  0
  4  2  1  6
  4  5  1  0
  5  6  1  0
  7  6  1  6
  7  8  1  0
  8  9  1  1
  9 10  1  0
 11 10  1  6
 11 12  1  0
 12 13  1  0
 13 14  1  1
 13 15  1  0
 15 16  1  0
 16 17  1  0
 17 18  1  6
 17 19  1  0
 19 20  1  6
 20 21  1  0
 21 22  1  1
 21 23  1  0
 23 24  1  6
 23  4  1  0
 23  7  1  0
 19  8  1  0
 17 11  1  0
M  END
>  <MS_ID>  (3223) 
MS3354

>  <SMILES>  (3223) 
CC(=O)[C@H]1CC[C@H]2[C@@H]3CC[C@H]4C[C@H](O)CC[C@]4(C)[C@H]3C[C@H](O)[C@]12C

>  <Structure_dimension>  (3223) 
2D

$$$$
MS3355
     RDKit          2D

 37 40  0  0  0  0  0  0  0  0999 V2000
   -1.8349   -4.5052    0.0000 C   0  0  0  0  0  0  0  0  0  0  0  0
   -1.1795   -3.1559    0.0000 C   0  0  0  0  0  0  0  0  0  0  0  0
   -2.0203   -1.9137    0.0000 C   0  0  0  0  0  0  0  0  0  0  0  0
   -3.5164   -2.0207    0.0000 C   0  0  0  0  0  0  0  0  0  0  0  0
   -4.3572   -0.7785    0.0000 C   0  0  0  0  0  0  0  0  0  0  0  0
   -3.7018    0.5707    0.0000 O   0  0  0  0  0  0  0  0  0  0  0  0
   -5.8534   -0.8855    0.0000 N   0  0  0  0  0  0  0  0  0  0  0  0
   -6.6942    0.3567    0.0000 C   0  0  0  0  0  0  0  0  0  0  0  0
   -8.1903    0.2497    0.0000 C   0  0  0  0  0  0  0  0  0  0  0  0
   -9.0311    1.4919    0.0000 C   0  0  0  0  0  0  0  0  0  0  0  0
   -8.3757    2.8411    0.0000 O   0  0  0  0  0  0  0  0  0  0  0  0
  -10.5273    1.3849    0.0000 O   0  0  0  0  0  0  0  0  0  0  0  0
   -6.0388    1.7059    0.0000 C   0  0  0  0  0  0  0  0  0  0  0  0
   -4.5426    1.8129    0.0000 O   0  0  0  0  0  0  0  0  0  0  0  0
   -6.8795    2.9481    0.0000 O   0  0  0  0  0  0  0  0  0  0  0  0
    0.3167   -3.0489    0.0000 C   0  0  0  0  0  0  0  0  0  0  0  0
    1.2827   -4.1964    0.0000 C   0  0  0  0  0  0  0  0  0  0  0  0
    2.6726   -3.6323    0.0000 C   0  0  0  0  0  0  0  0  0  0  0  0
    2.5655   -2.1361    0.0000 C   0  0  0  0  0  0  0  0  0  0  0  0
    3.6058   -1.0555    0.0000 C   0  0  0  0  0  0  0  0  0  0  0  0
    5.0618   -1.4160    0.0000 C   0  0  0  0  0  0  0  0  0  0  0  0
    5.4776   -2.8572    0.0000 O   0  0  0  0  0  0  0  0  0  0  0  0
    6.1021   -0.3353    0.0000 C   0  0  0  0  0  0  0  0  0  0  0  0
    7.5581   -0.6959    0.0000 O   0  0  0  0  0  0  0  0  0  0  0  0
    5.6863    1.1059    0.0000 C   0  0  0  0  0  0  0  0  0  0  0  0
    6.7266    2.1866    0.0000 C   0  0  0  0  0  0  0  0  0  0  0  0
    6.3109    3.6278    0.0000 C   0  0  0  0  0  0  0  0  0  0  0  0
    7.3511    4.7085    0.0000 O   0  0  0  0  0  0  0  0  0  0  0  0
    4.8548    3.9884    0.0000 C   0  0  0  0  0  0  0  0  0  0  0  0
    3.8146    2.9077    0.0000 C   0  0  0  0  0  0  0  0  0  0  0  0
    4.2303    1.4664    0.0000 C   0  0  0  0  0  0  0  0  0  0  0  0
    2.7743    1.8270    0.0000 C   0  0  0  0  0  0  0  0  0  0  0  0
    3.1901    0.3858    0.0000 C   0  0  0  0  0  0  0  0  0  0  0  0
    1.7340    0.7463    0.0000 C   0  0  0  0  0  0  0  0  0  0  0  0
    0.6938   -0.3343    0.0000 C   0  0  0  0  0  0  0  0  0  0  0  0
    1.1095   -1.7756    0.0000 C   0  0  0  0  0  0  0  0  0  0  0  0
   -0.3762   -1.5692    0.0000 C   0  0  0  0  0  0  0  0  0  0  0  0
  2  1  1  6
  2  3  1  0
  3  4  1  0
  4  5  1  0
  5  6  2  0
  5  7  1  0
  7  8  1  0
  8  9  1  1
  9 10  1  0
 10 11  2  0
 10 12  1  0
  8 13  1  0
 13 14  2  0
 13 15  1  0
  2 16  1  0
 16 17  1  6
 17 18  1  0
 19 18  1  6
 19 20  1  0
 20 21  1  1
 21 22  1  6
 21 23  1  0
 23 24  1  6
 23 25  1  0
 25 26  1  1
 26 27  1  0
 27 28  1  1
 27 29  1  0
 29 30  1  0
 30 31  1  0
 31 32  1  6
 31 33  1  0
 33 34  1  6
 34 35  1  0
 35 36  1  0
 36 37  1  6
 36 16  1  0
 36 19  1  0
 33 20  1  0
 31 25  1  0
M  END
>  <MS_ID>  (3224) 
MS3355

>  <SMILES>  (3224) 
C[C@H](CCC(=O)N[C@@H](CC(=O)O)C(=O)O)[C@H]1CC[C@H]2[C@@H]3[C@@H](O)[C@@H](O)[C@@H]4C[C@H](O)CC[C@]4(C)[C@H]3CC[C@]12C

>  <Structure_dimension>  (3224) 
2D

$$$$
MS3356
     RDKit          2D

 30 33  0  0  0  0  0  0  0  0999 V2000
   -6.8124    3.8339    0.0000 C   0  0  0  0  0  0  0  0  0  0  0  0
   -6.5219    2.3623    0.0000 C   0  0  0  0  0  0  0  0  0  0  0  0
   -7.6511    1.3749    0.0000 C   0  0  0  0  0  0  0  0  0  0  0  0
   -5.1022    1.8780    0.0000 C   0  0  0  0  0  0  0  0  0  0  0  0
   -4.8117    0.4064    0.0000 C   0  0  0  0  0  0  0  0  0  0  0  0
   -5.9409   -0.5809    0.0000 O   0  0  0  0  0  0  0  0  0  0  0  0
   -3.3920   -0.0778    0.0000 C   0  0  0  0  0  0  0  0  0  0  0  0
   -2.2628    0.9095    0.0000 O   0  0  0  0  0  0  0  0  0  0  0  0
   -3.1016   -1.5494    0.0000 C   0  0  0  0  0  0  0  0  0  0  0  0
   -4.2308   -2.5368    0.0000 C   0  0  0  0  0  0  0  0  0  0  0  0
   -1.6819   -2.0337    0.0000 C   0  0  0  0  0  0  0  0  0  0  0  0
   -1.2392   -3.4669    0.0000 C   0  0  0  0  0  0  0  0  0  0  0  0
    0.2607   -3.4887    0.0000 C   0  0  0  0  0  0  0  0  0  0  0  0
    0.7449   -2.0690    0.0000 C   0  0  0  0  0  0  0  0  0  0  0  0
    2.1240   -1.4789    0.0000 C   0  0  0  0  0  0  0  0  0  0  0  0
    3.3245   -2.3782    0.0000 C   0  0  0  0  0  0  0  0  0  0  0  0
    4.7036   -1.7881    0.0000 C   0  0  0  0  0  0  0  0  0  0  0  0
    4.8821   -0.2987    0.0000 C   0  0  0  0  0  0  0  0  0  0  0  0
    6.2611    0.2914    0.0000 C   0  0  0  0  0  0  0  0  0  0  0  0
    6.4396    1.7807    0.0000 C   0  0  0  0  0  0  0  0  0  0  0  0
    7.8187    2.3708    0.0000 O   0  0  0  0  0  0  0  0  0  0  0  0
    5.2391    2.6800    0.0000 C   0  0  0  0  0  0  0  0  0  0  0  0
    3.8600    2.0899    0.0000 C   0  0  0  0  0  0  0  0  0  0  0  0
    3.6815    0.6005    0.0000 C   0  0  0  0  0  0  0  0  0  0  0  0
    2.4809    1.4998    0.0000 C   0  0  0  0  0  0  0  0  0  0  0  0
    2.3025    0.0104    0.0000 C   0  0  0  0  0  0  0  0  0  0  0  0
    1.1019    0.9097    0.0000 C   0  0  0  0  0  0  0  0  0  0  0  0
   -0.2772    0.3196    0.0000 C   0  0  0  0  0  0  0  0  0  0  0  0
   -0.4557   -1.1698    0.0000 C   0  0  0  0  0  0  0  0  0  0  0  0
   -1.7436   -0.4009    0.0000 C   0  0  0  0  0  0  0  0  0  0  0  0
  1  2  1  0
  2  3  1  0
  2  4  1  0
  4  5  1  0
  5  6  1  6
  5  7  1  0
  7  8  1  6
  7  9  1  0
  9 10  1  6
  9 11  1  0
 11 12  1  6
 12 13  1  0
 14 13  1  6
 14 15  1  0
 15 16  1  1
 16 17  1  0
 18 17  1  6
 18 19  1  0
 19 20  1  0
 20 21  1  6
 20 22  1  0
 22 23  1  0
 23 24  1  0
 24 25  1  6
 24 26  1  0
 26 27  1  6
 27 28  1  0
 28 29  1  0
 29 30  1  6
 29 11  1  0
 29 14  1  0
 26 15  1  0
 24 18  1  0
M  END
>  <MS_ID>  (3225) 
MS3356

>  <SMILES>  (3225) 
CC(C)C[C@@H](O)[C@H](O)[C@@H](C)[C@H]1CC[C@H]2[C@@H]3CC[C@H]4C[C@@H](O)CC[C@]4(C)[C@H]3CC[C@]12C

>  <Structure_dimension>  (3225) 
2D

$$$$
MS3357
     RDKit          2D

 27 30  0  0  0  0  0  0  0  0999 V2000
   -4.7316   -2.2462    0.0000 C   0  0  0  0  0  0  0  0  0  0  0  0
   -3.6106   -1.2495    0.0000 C   0  0  0  0  0  0  0  0  0  0  0  0
   -3.9133    0.2196    0.0000 C   0  0  0  0  0  0  0  0  0  0  0  0
   -5.3370    0.6920    0.0000 C   0  0  0  0  0  0  0  0  0  0  0  0
   -5.6397    2.1612    0.0000 C   0  0  0  0  0  0  0  0  0  0  0  0
   -4.5188    3.1579    0.0000 O   0  0  0  0  0  0  0  0  0  0  0  0
   -7.0634    2.6336    0.0000 O   0  0  0  0  0  0  0  0  0  0  0  0
   -2.1870   -1.7219    0.0000 C   0  0  0  0  0  0  0  0  0  0  0  0
   -1.7323   -3.1514    0.0000 C   0  0  0  0  0  0  0  0  0  0  0  0
   -0.2324   -3.1607    0.0000 C   0  0  0  0  0  0  0  0  0  0  0  0
    0.2401   -1.7371    0.0000 C   0  0  0  0  0  0  0  0  0  0  0  0
    1.6141   -1.1355    0.0000 C   0  0  0  0  0  0  0  0  0  0  0  0
    2.8222   -2.0247    0.0000 C   0  0  0  0  0  0  0  0  0  0  0  0
    2.6561   -3.5155    0.0000 O   0  0  0  0  0  0  0  0  0  0  0  0
    4.1962   -1.4232    0.0000 C   0  0  0  0  0  0  0  0  0  0  0  0
    4.3623    0.0676    0.0000 C   0  0  0  0  0  0  0  0  0  0  0  0
    5.7364    0.6691    0.0000 C   0  0  0  0  0  0  0  0  0  0  0  0
    5.9025    2.1599    0.0000 N   0  0  0  0  0  0  0  0  0  0  0  0
    4.6945    3.0491    0.0000 C   0  0  0  0  0  0  0  0  0  0  0  0
    3.3204    2.4476    0.0000 C   0  0  0  0  0  0  0  0  0  0  0  0
    3.1543    0.9568    0.0000 C   0  0  0  0  0  0  0  0  0  0  0  0
    1.9463    1.8460    0.0000 C   0  0  0  0  0  0  0  0  0  0  0  0
    1.7802    0.3553    0.0000 C   0  0  0  0  0  0  0  0  0  0  0  0
    0.5722    1.2445    0.0000 C   0  0  0  0  0  0  0  0  0  0  0  0
   -0.8019    0.6429    0.0000 C   0  0  0  0  0  0  0  0  0  0  0  0
   -0.9680   -0.8478    0.0000 C   0  0  0  0  0  0  0  0  0  0  0  0
   -2.2623   -0.0897    0.0000 C   0  0  0  0  0  0  0  0  0  0  0  0
  2  1  1  6
  2  3  1  0
  3  4  1  0
  4  5  1  0
  5  6  2  0
  5  7  1  0
  2  8  1  0
  8  9  1  6
  9 10  1  0
 11 10  1  6
 11 12  1  0
 12 13  1  1
 13 14  1  6
 13 15  1  0
 16 15  1  1
 16 17  1  0
 17 18  1  0
 18 19  1  0
 19 20  1  0
 20 21  1  0
 21 22  1  6
 21 23  1  0
 23 24  1  6
 24 25  1  0
 25 26  1  0
 26 27  1  6
 26  8  1  0
 26 11  1  0
 23 12  1  0
 21 16  1  0
M  END
>  <MS_ID>  (3226) 
MS3357

>  <SMILES>  (3226) 
C[C@H](CCC(=O)O)[C@H]1CC[C@H]2[C@@H]3[C@@H](O)C[C@@H]4CNCC[C@]4(C)[C@H]3CC[C@]12C

>  <Structure_dimension>  (3226) 
2D

$$$$
MS3358
     RDKit          2D

 23 26  0  0  0  0  0  0  0  0999 V2000
   -6.2880    0.1477    0.0000 C   0  0  0  0  0  0  0  0  0  0  0  0
   -4.8818    0.6700    0.0000 C   0  0  0  0  0  0  0  0  0  0  0  0
   -4.6310    2.1488    0.0000 C   0  0  0  0  0  0  0  0  0  0  0  0
   -3.7265   -0.2867    0.0000 C   0  0  0  0  0  0  0  0  0  0  0  0
   -3.8214   -1.7837    0.0000 C   0  0  0  0  0  0  0  0  0  0  0  0
   -2.4270   -2.3365    0.0000 C   0  0  0  0  0  0  0  0  0  0  0  0
   -1.4703   -1.1812    0.0000 C   0  0  0  0  0  0  0  0  0  0  0  0
    0.0284   -1.1191    0.0000 C   0  0  0  0  0  0  0  0  0  0  0  0
    0.8316   -2.3860    0.0000 C   0  0  0  0  0  0  0  0  0  0  0  0
    2.3303   -2.3238    0.0000 C   0  0  0  0  0  0  0  0  0  0  0  0
    3.0258   -0.9949    0.0000 C   0  0  0  0  0  0  0  0  0  0  0  0
    4.5246   -0.9327    0.0000 C   0  0  0  0  0  0  0  0  0  0  0  0
    5.2201    0.3962    0.0000 C   0  0  0  0  0  0  0  0  0  0  0  0
    6.7188    0.4584    0.0000 O   0  0  0  0  0  0  0  0  0  0  0  0
    4.4170    1.6631    0.0000 C   0  0  0  0  0  0  0  0  0  0  0  0
    2.9183    1.6010    0.0000 C   0  0  0  0  0  0  0  0  0  0  0  0
    2.2227    0.2720    0.0000 C   0  0  0  0  0  0  0  0  0  0  0  0
    1.4195    1.5389    0.0000 C   0  0  0  0  0  0  0  0  0  0  0  0
    0.7240    0.2099    0.0000 C   0  0  0  0  0  0  0  0  0  0  0  0
   -0.0792    1.4768    0.0000 C   0  0  0  0  0  0  0  0  0  0  0  0
   -1.5779    1.4146    0.0000 C   0  0  0  0  0  0  0  0  0  0  0  0
   -2.2734    0.0856    0.0000 C   0  0  0  0  0  0  0  0  0  0  0  0
   -3.2046    1.2616    0.0000 C   0  0  0  0  0  0  0  0  0  0  0  0
  1  2  1  0
  2  3  1  0
  4  2  1  6
  4  5  1  0
  5  6  1  0
  7  6  1  6
  7  8  1  0
  8  9  1  1
  9 10  1  0
 11 10  1  6
 11 12  1  0
 12 13  1  0
 13 14  1  6
 13 15  1  0
 15 16  1  0
 16 17  1  0
 17 18  1  6
 17 19  1  0
 19 20  1  6
 20 21  1  0
 21 22  1  0
 22 23  1  6
 22  4  1  0
 22  7  1  0
 19  8  1  0
 17 11  1  0
M  END
>  <MS_ID>  (3227) 
MS3358

>  <SMILES>  (3227) 
CC(C)[C@H]1CC[C@H]2[C@@H]3CC[C@H]4C[C@@H](O)CC[C@]4(C)[C@H]3CC[C@]12C

>  <Structure_dimension>  (3227) 
2D

$$$$
MS3361
     RDKit          2D

 32 35  0  0  0  0  0  0  0  0999 V2000
   -3.1421   -3.6694    0.0000 C   0  0  0  0  0  0  0  0  0  0  0  0
   -2.2628   -2.4541    0.0000 C   0  0  0  0  0  0  0  0  0  0  0  0
   -2.8756   -1.0850    0.0000 C   0  0  0  0  0  0  0  0  0  0  0  0
   -4.3676   -0.9311    0.0000 C   0  0  0  0  0  0  0  0  0  0  0  0
   -4.9804    0.4380    0.0000 C   0  0  0  0  0  0  0  0  0  0  0  0
   -4.1011    1.6532    0.0000 O   0  0  0  0  0  0  0  0  0  0  0  0
   -6.4725    0.5919    0.0000 N   0  0  0  0  0  0  0  0  0  0  0  0
   -7.0853    1.9610    0.0000 C   0  0  0  0  0  0  0  0  0  0  0  0
   -8.5774    2.1149    0.0000 C   0  0  0  0  0  0  0  0  0  0  0  0
   -9.4567    0.8996    0.0000 O   0  0  0  0  0  0  0  0  0  0  0  0
   -9.1901    3.4840    0.0000 O   0  0  0  0  0  0  0  0  0  0  0  0
   -0.7707   -2.6080    0.0000 C   0  0  0  0  0  0  0  0  0  0  0  0
   -0.0182   -3.9056    0.0000 C   0  0  0  0  0  0  0  0  0  0  0  0
    1.4484   -3.5909    0.0000 C   0  0  0  0  0  0  0  0  0  0  0  0
    1.6023   -2.0988    0.0000 C   0  0  0  0  0  0  0  0  0  0  0  0
    2.8141   -1.2147    0.0000 C   0  0  0  0  0  0  0  0  0  0  0  0
    4.1856   -1.8222    0.0000 C   0  0  0  0  0  0  0  0  0  0  0  0
    4.3453   -3.3136    0.0000 O   0  0  0  0  0  0  0  0  0  0  0  0
    5.3974   -0.9381    0.0000 C   0  0  0  0  0  0  0  0  0  0  0  0
    5.2377    0.5533    0.0000 C   0  0  0  0  0  0  0  0  0  0  0  0
    6.4495    1.4374    0.0000 C   0  0  0  0  0  0  0  0  0  0  0  0
    6.2898    2.9289    0.0000 C   0  0  0  0  0  0  0  0  0  0  0  0
    7.5016    3.8129    0.0000 O   0  0  0  0  0  0  0  0  0  0  0  0
    4.9183    3.5363    0.0000 C   0  0  0  0  0  0  0  0  0  0  0  0
    3.7065    2.6522    0.0000 C   0  0  0  0  0  0  0  0  0  0  0  0
    3.8662    1.1608    0.0000 C   0  0  0  0  0  0  0  0  0  0  0  0
    2.4947    1.7682    0.0000 O   0  0  0  0  0  0  0  0  0  0  0  0
    2.6544    0.2767    0.0000 C   0  0  0  0  0  0  0  0  0  0  0  0
    1.2829    0.8842    0.0000 C   0  0  0  0  0  0  0  0  0  0  0  0
    0.0711    0.0001    0.0000 C   0  0  0  0  0  0  0  0  0  0  0  0
    0.2308   -1.4914    0.0000 C   0  0  0  0  0  0  0  0  0  0  0  0
   -1.1967   -1.0306    0.0000 C   0  0  0  0  0  0  0  0  0  0  0  0
  2  1  1  6
  2  3  1  0
  3  4  1  0
  4  5  1  0
  5  6  2  0
  5  7  1  0
  7  8  1  0
  8  9  1  0
  9 10  2  0
  9 11  1  0
  2 12  1  0
 12 13  1  6
 13 14  1  0
 15 14  1  6
 15 16  1  0
 16 17  1  1
 17 18  1  6
 17 19  1  0
 20 19  1  1
 20 21  1  0
 21 22  1  0
 22 23  1  1
 22 24  1  0
 24 25  1  0
 25 26  1  0
 26 27  1  6
 26 28  1  0
 28 29  1  6
 29 30  1  0
 30 31  1  0
 31 32  1  6
 31 12  1  0
 31 15  1  0
 28 16  1  0
 26 20  1  0
M  END
>  <MS_ID>  (3228) 
MS3361

>  <SMILES>  (3228) 
C[C@H](CCC(=O)NCC(=O)O)[C@H]1CC[C@H]2[C@@H]3[C@@H](O)C[C@@H]4C[C@H](O)CC[C@]4(O)[C@H]3CC[C@]12C

>  <Structure_dimension>  (3228) 
2D

$$$$
MS3362
     RDKit          2D

 29 32  0  0  0  0  0  0  0  0999 V2000
   -4.5794    2.7226    0.0000 C   0  0  0  0  0  0  0  0  0  0  0  0
   -3.3580    1.8519    0.0000 S   0  0  0  0  0  0  0  0  0  0  0  0
   -3.5014    0.3587    0.0000 C   0  0  0  0  0  0  0  0  0  0  0  0
   -4.8662   -0.2637    0.0000 C   0  0  0  0  0  0  0  0  0  0  0  0
   -6.0876    0.6071    0.0000 C   0  0  0  0  0  0  0  0  0  0  0  0
   -7.4524   -0.0153    0.0000 C   0  0  0  0  0  0  0  0  0  0  0  0
   -7.5958   -1.5084    0.0000 O   0  0  0  0  0  0  0  0  0  0  0  0
   -8.6738    0.8554    0.0000 O   0  0  0  0  0  0  0  0  0  0  0  0
   -2.2800   -0.5120    0.0000 C   0  0  0  0  0  0  0  0  0  0  0  0
   -2.2665   -2.0119    0.0000 C   0  0  0  0  0  0  0  0  0  0  0  0
   -0.8358   -2.4626    0.0000 C   0  0  0  0  0  0  0  0  0  0  0  0
    0.0349   -1.2412    0.0000 C   0  0  0  0  0  0  0  0  0  0  0  0
    1.5252   -1.0710    0.0000 C   0  0  0  0  0  0  0  0  0  0  0  0
    2.4178   -2.2766    0.0000 C   0  0  0  0  0  0  0  0  0  0  0  0
    1.8200   -3.6523    0.0000 O   0  0  0  0  0  0  0  0  0  0  0  0
    3.9081   -2.1064    0.0000 C   0  0  0  0  0  0  0  0  0  0  0  0
    4.5058   -0.7307    0.0000 C   0  0  0  0  0  0  0  0  0  0  0  0
    5.9961   -0.5605    0.0000 C   0  0  0  0  0  0  0  0  0  0  0  0
    6.5939    0.8153    0.0000 C   0  0  0  0  0  0  0  0  0  0  0  0
    8.0842    0.9855    0.0000 F   0  0  0  0  0  0  0  0  0  0  0  0
    5.7014    2.0208    0.0000 C   0  0  0  0  0  0  0  0  0  0  0  0
    4.2111    1.8506    0.0000 C   0  0  0  0  0  0  0  0  0  0  0  0
    3.6133    0.4749    0.0000 C   0  0  0  0  0  0  0  0  0  0  0  0
    2.7207    1.6805    0.0000 C   0  0  0  0  0  0  0  0  0  0  0  0
    2.1230    0.3047    0.0000 C   0  0  0  0  0  0  0  0  0  0  0  0
    1.2304    1.5103    0.0000 C   0  0  0  0  0  0  0  0  0  0  0  0
   -0.2599    1.3401    0.0000 C   0  0  0  0  0  0  0  0  0  0  0  0
   -0.8577   -0.0357    0.0000 C   0  0  0  0  0  0  0  0  0  0  0  0
   -1.8713    1.0700    0.0000 C   0  0  0  0  0  0  0  0  0  0  0  0
  1  2  1  0
  2  3  1  0
  3  4  1  1
  4  5  1  0
  5  6  1  0
  6  7  2  0
  6  8  1  0
  3  9  1  0
  9 10  1  6
 10 11  1  0
 12 11  1  6
 12 13  1  0
 13 14  1  1
 14 15  1  6
 14 16  1  0
 17 16  1  1
 17 18  1  0
 18 19  1  0
 19 20  1  1
 19 21  1  0
 21 22  1  0
 22 23  1  0
 23 24  1  6
 23 25  1  0
 25 26  1  6
 26 27  1  0
 27 28  1  0
 28 29  1  6
 28  9  1  0
 28 12  1  0
 25 13  1  0
 23 17  1  0
M  END
>  <MS_ID>  (3229) 
MS3362

>  <SMILES>  (3229) 
CS[C@H](CCC(=O)O)[C@H]1CC[C@H]2[C@@H]3[C@@H](O)C[C@@H]4C[C@H](F)CC[C@]4(C)[C@H]3CC[C@]12C

>  <Structure_dimension>  (3229) 
2D

$$$$
MS3363
     RDKit          2D

 23 26  0  0  0  0  0  0  0  0999 V2000
   -6.7251    0.0708    0.0000 C   0  0  0  0  0  0  0  0  0  0  0  0
   -5.2253    0.0494    0.0000 C   0  0  0  0  0  0  0  0  0  0  0  0
   -3.7254    0.0279    0.0000 C   0  0  0  0  0  0  0  0  0  0  0  0
   -4.0419    1.4941    0.0000 O   0  0  0  0  0  0  0  0  0  0  0  0
   -3.9035   -1.4615    0.0000 C   0  0  0  0  0  0  0  0  0  0  0  0
   -2.5421   -2.0911    0.0000 C   0  0  0  0  0  0  0  0  0  0  0  0
   -1.5225   -0.9909    0.0000 C   0  0  0  0  0  0  0  0  0  0  0  0
   -0.0227   -1.0124    0.0000 C   0  0  0  0  0  0  0  0  0  0  0  0
    0.7086   -2.3220    0.0000 C   0  0  0  0  0  0  0  0  0  0  0  0
    2.2085   -2.3435    0.0000 C   0  0  0  0  0  0  0  0  0  0  0  0
    2.9770   -1.0553    0.0000 C   0  0  0  0  0  0  0  0  0  0  0  0
    4.4768   -1.0768    0.0000 C   0  0  0  0  0  0  0  0  0  0  0  0
    5.2454    0.2114    0.0000 C   0  0  0  0  0  0  0  0  0  0  0  0
    6.7452    0.1900    0.0000 O   0  0  0  0  0  0  0  0  0  0  0  0
    4.5140    1.5211    0.0000 C   0  0  0  0  0  0  0  0  0  0  0  0
    3.0142    1.5425    0.0000 C   0  0  0  0  0  0  0  0  0  0  0  0
    2.2457    0.2543    0.0000 C   0  0  0  0  0  0  0  0  0  0  0  0
    1.5143    1.5640    0.0000 C   0  0  0  0  0  0  0  0  0  0  0  0
    0.7458    0.2758    0.0000 C   0  0  0  0  0  0  0  0  0  0  0  0
    0.0145    1.5854    0.0000 C   0  0  0  0  0  0  0  0  0  0  0  0
   -1.4854    1.6069    0.0000 C   0  0  0  0  0  0  0  0  0  0  0  0
   -2.2539    0.3187    0.0000 C   0  0  0  0  0  0  0  0  0  0  0  0
   -2.9622    1.6410    0.0000 C   0  0  0  0  0  0  0  0  0  0  0  0
  1  2  3  0
  2  3  1  0
  3  4  1  6
  3  5  1  0
  5  6  1  0
  7  6  1  6
  7  8  1  0
  8  9  1  1
  9 10  1  0
 11 10  1  1
 11 12  1  0
 12 13  1  0
 13 14  1  1
 13 15  1  0
 15 16  1  0
 16 17  1  0
 17 18  1  6
 17 19  1  0
 19 20  1  6
 20 21  1  0
 21 22  1  0
 22 23  1  6
 22  3  1  0
 22  7  1  0
 19  8  1  0
 17 11  1  0
M  END
>  <MS_ID>  (3230) 
MS3363

>  <SMILES>  (3230) 
C#C[C@]1(O)CC[C@H]2[C@@H]3CC[C@@H]4C[C@H](O)CC[C@]4(C)[C@H]3CC[C@@]21C

>  <Structure_dimension>  (3230) 
2D

$$$$
MS3364
     RDKit          2D

 29 32  0  0  0  0  0  0  0  0999 V2000
   -4.5495   -2.5275    0.0000 C   0  0  0  0  0  0  0  0  0  0  0  0
   -3.4499   -1.5073    0.0000 C   0  0  0  0  0  0  0  0  0  0  0  0
   -3.7837   -0.0449    0.0000 C   0  0  0  0  0  0  0  0  0  0  0  0
   -5.2171    0.3972    0.0000 C   0  0  0  0  0  0  0  0  0  0  0  0
   -5.5509    1.8596    0.0000 N   0  0  0  0  0  0  0  0  0  0  0  0
   -6.9843    2.3017    0.0000 C   0  0  0  0  0  0  0  0  0  0  0  0
   -8.0838    1.2815    0.0000 O   0  0  0  0  0  0  0  0  0  0  0  0
   -7.3181    3.7641    0.0000 O   0  0  0  0  0  0  0  0  0  0  0  0
   -2.0166   -1.9494    0.0000 C   0  0  0  0  0  0  0  0  0  0  0  0
   -1.5317   -3.3689    0.0000 C   0  0  0  0  0  0  0  0  0  0  0  0
   -0.0319   -3.3464    0.0000 C   0  0  0  0  0  0  0  0  0  0  0  0
    0.4102   -1.9130    0.0000 C   0  0  0  0  0  0  0  0  0  0  0  0
    1.7712   -1.2825    0.0000 C   0  0  0  0  0  0  0  0  0  0  0  0
    2.9978   -2.1459    0.0000 C   0  0  0  0  0  0  0  0  0  0  0  0
    2.8634   -3.6398    0.0000 O   0  0  0  0  0  0  0  0  0  0  0  0
    4.3589   -1.5153    0.0000 C   0  0  0  0  0  0  0  0  0  0  0  0
    4.4933   -0.0214    0.0000 C   0  0  0  0  0  0  0  0  0  0  0  0
    5.8543    0.6092    0.0000 C   0  0  0  0  0  0  0  0  0  0  0  0
    5.9888    2.1032    0.0000 C   0  0  0  0  0  0  0  0  0  0  0  0
    7.3498    2.7337    0.0000 O   0  0  0  0  0  0  0  0  0  0  0  0
    4.7622    2.9666    0.0000 C   0  0  0  0  0  0  0  0  0  0  0  0
    3.4011    2.3360    0.0000 C   0  0  0  0  0  0  0  0  0  0  0  0
    3.2667    0.8420    0.0000 C   0  0  0  0  0  0  0  0  0  0  0  0
    2.0401    1.7055    0.0000 C   0  0  0  0  0  0  0  0  0  0  0  0
    1.9057    0.2115    0.0000 C   0  0  0  0  0  0  0  0  0  0  0  0
    0.6791    1.0749    0.0000 C   0  0  0  0  0  0  0  0  0  0  0  0
   -0.6820    0.4443    0.0000 C   0  0  0  0  0  0  0  0  0  0  0  0
   -0.8164   -1.0496    0.0000 C   0  0  0  0  0  0  0  0  0  0  0  0
   -2.1265   -0.3192    0.0000 C   0  0  0  0  0  0  0  0  0  0  0  0
  2  1  1  6
  2  3  1  0
  3  4  1  0
  4  5  1  0
  5  6  1  0
  6  7  2  0
  6  8  1  0
  2  9  1  0
  9 10  1  6
 10 11  1  0
 12 11  1  6
 12 13  1  0
 13 14  1  1
 14 15  1  6
 14 16  1  0
 17 16  1  1
 17 18  1  0
 18 19  1  0
 19 20  1  1
 19 21  1  0
 21 22  1  0
 22 23  1  0
 23 24  1  6
 23 25  1  0
 25 26  1  6
 26 27  1  0
 27 28  1  0
 28 29  1  6
 28  9  1  0
 28 12  1  0
 25 13  1  0
 23 17  1  0
M  END
>  <MS_ID>  (3231) 
MS3364

>  <SMILES>  (3231) 
C[C@H](CCNC(=O)O)[C@H]1CC[C@H]2[C@@H]3[C@@H](O)C[C@@H]4C[C@H](O)CC[C@]4(C)[C@H]3CC[C@]12C

>  <Structure_dimension>  (3231) 
2D

$$$$
MS3365
     RDKit          2D

 25 28  0  0  0  0  0  0  0  0999 V2000
   -5.6845    1.1171    0.0000 C   0  0  0  0  0  0  0  0  0  0  0  0
   -4.9249   -0.1763    0.0000 C   0  0  0  0  0  0  0  0  0  0  0  0
   -5.6653   -1.4809    0.0000 O   0  0  0  0  0  0  0  0  0  0  0  0
   -3.4250   -0.1652    0.0000 C   0  0  0  0  0  0  0  0  0  0  0  0
   -3.7732    1.2938    0.0000 O   0  0  0  0  0  0  0  0  0  0  0  0
   -3.5707   -1.6581    0.0000 C   0  0  0  0  0  0  0  0  0  0  0  0
   -2.1959   -2.2580    0.0000 C   0  0  0  0  0  0  0  0  0  0  0  0
   -1.2005   -1.1359    0.0000 C   0  0  0  0  0  0  0  0  0  0  0  0
    0.2995   -1.1248    0.0000 C   0  0  0  0  0  0  0  0  0  0  0  0
    1.0591   -2.4182    0.0000 C   0  0  0  0  0  0  0  0  0  0  0  0
    2.5591   -2.4071    0.0000 C   0  0  0  0  0  0  0  0  0  0  0  0
    3.2994   -1.1025    0.0000 C   0  0  0  0  0  0  0  0  0  0  0  0
    4.7994   -1.0914    0.0000 C   0  0  0  0  0  0  0  0  0  0  0  0
    5.5397    0.2132    0.0000 C   0  0  0  0  0  0  0  0  0  0  0  0
    7.0397    0.2243    0.0000 O   0  0  0  0  0  0  0  0  0  0  0  0
    4.7801    1.5066    0.0000 C   0  0  0  0  0  0  0  0  0  0  0  0
    3.2801    1.4955    0.0000 C   0  0  0  0  0  0  0  0  0  0  0  0
    2.5398    0.1909    0.0000 C   0  0  0  0  0  0  0  0  0  0  0  0
    1.7802    1.4844    0.0000 C   0  0  0  0  0  0  0  0  0  0  0  0
    1.0398    0.1798    0.0000 C   0  0  0  0  0  0  0  0  0  0  0  0
    0.2802    1.4732    0.0000 C   0  0  0  0  0  0  0  0  0  0  0  0
   -1.2197    1.4621    0.0000 C   0  0  0  0  0  0  0  0  0  0  0  0
   -1.9794    2.7556    0.0000 O   0  0  0  0  0  0  0  0  0  0  0  0
   -1.9601    0.1576    0.0000 C   0  0  0  0  0  0  0  0  0  0  0  0
   -2.6970    1.4641    0.0000 C   0  0  0  0  0  0  0  0  0  0  0  0
  2  1  1  1
  2  3  1  0
  2  4  1  0
  4  5  1  1
  4  6  1  0
  6  7  1  0
  8  7  1  6
  8  9  1  0
  9 10  1  1
 10 11  1  0
 12 11  1  1
 12 13  1  0
 13 14  1  0
 14 15  1  1
 14 16  1  0
 16 17  1  0
 17 18  1  0
 18 19  1  6
 18 20  1  0
 20 21  1  6
 21 22  1  0
 22 23  1  1
 22 24  1  0
 24 25  1  6
 24  4  1  0
 24  8  1  0
 20  9  1  0
 18 12  1  0
M  END
>  <MS_ID>  (3232) 
MS3365

>  <SMILES>  (3232) 
C[C@H](O)[C@@]1(O)CC[C@H]2[C@@H]3CC[C@@H]4C[C@H](O)CC[C@]4(C)[C@H]3C[C@H](O)[C@@]21C

>  <Structure_dimension>  (3232) 
2D

$$$$
MS3366
     RDKit          2D

 25 28  0  0  0  0  0  0  0  0999 V2000
   -5.3420    2.7117    0.0000 C   0  0  0  0  0  0  0  0  0  0  0  0
   -5.0202    1.2466    0.0000 C   0  0  0  0  0  0  0  0  0  0  0  0
   -6.1281    0.2353    0.0000 O   0  0  0  0  0  0  0  0  0  0  0  0
   -3.5905    0.7928    0.0000 O   0  0  0  0  0  0  0  0  0  0  0  0
   -3.2687   -0.6723    0.0000 C   0  0  0  0  0  0  0  0  0  0  0  0
   -4.7593   -0.8392    0.0000 C   0  0  0  0  0  0  0  0  0  0  0  0
   -3.2585   -2.1723    0.0000 C   0  0  0  0  0  0  0  0  0  0  0  0
   -1.8288   -2.6261    0.0000 C   0  0  0  0  0  0  0  0  0  0  0  0
   -0.9553   -1.4066    0.0000 C   0  0  0  0  0  0  0  0  0  0  0  0
    0.5353   -1.2397    0.0000 C   0  0  0  0  0  0  0  0  0  0  0  0
    1.4252   -2.4472    0.0000 C   0  0  0  0  0  0  0  0  0  0  0  0
    2.9159   -2.2802    0.0000 C   0  0  0  0  0  0  0  0  0  0  0  0
    3.5167   -0.9058    0.0000 C   0  0  0  0  0  0  0  0  0  0  0  0
    5.0074   -0.7389    0.0000 C   0  0  0  0  0  0  0  0  0  0  0  0
    5.6082    0.6355    0.0000 C   0  0  0  0  0  0  0  0  0  0  0  0
    7.0988    0.8025    0.0000 O   0  0  0  0  0  0  0  0  0  0  0  0
    4.7183    1.8431    0.0000 C   0  0  0  0  0  0  0  0  0  0  0  0
    3.2276    1.6761    0.0000 C   0  0  0  0  0  0  0  0  0  0  0  0
    2.6268    0.3017    0.0000 C   0  0  0  0  0  0  0  0  0  0  0  0
    1.7369    1.5092    0.0000 C   0  0  0  0  0  0  0  0  0  0  0  0
    1.1361    0.1348    0.0000 C   0  0  0  0  0  0  0  0  0  0  0  0
    0.2462    1.3423    0.0000 C   0  0  0  0  0  0  0  0  0  0  0  0
   -1.2445    1.1753    0.0000 C   0  0  0  0  0  0  0  0  0  0  0  0
   -1.8453   -0.1991    0.0000 C   0  0  0  0  0  0  0  0  0  0  0  0
   -2.5584    1.1206    0.0000 C   0  0  0  0  0  0  0  0  0  0  0  0
  1  2  1  0
  2  3  2  0
  2  4  1  0
  4  5  1  0
  5  6  1  6
  5  7  1  0
  7  8  1  0
  9  8  1  6
  9 10  1  0
 10 11  1  1
 11 12  1  0
 13 12  1  1
 13 14  1  0
 14 15  1  0
 15 16  1  1
 15 17  1  0
 17 18  1  0
 18 19  1  0
 19 20  1  6
 19 21  1  0
 21 22  1  6
 22 23  1  0
 23 24  1  0
 24 25  1  6
 24  5  1  0
 24  9  1  0
 21 10  1  0
 19 13  1  0
M  END
>  <MS_ID>  (3233) 
MS3366

>  <SMILES>  (3233) 
CC(=O)O[C@]1(C)CC[C@H]2[C@@H]3CC[C@@H]4C[C@H](O)CC[C@]4(C)[C@H]3CC[C@@]21C

>  <Structure_dimension>  (3233) 
2D

$$$$
MS3367
     RDKit          2D

 26 29  0  0  0  0  0  0  0  0999 V2000
   -6.9319    0.8954    0.0000 C   0  0  0  0  0  0  0  0  0  0  0  0
   -5.4327    0.9429    0.0000 C   0  0  0  0  0  0  0  0  0  0  0  0
   -4.6419   -0.3317    0.0000 C   0  0  0  0  0  0  0  0  0  0  0  0
   -5.3503   -1.6538    0.0000 O   0  0  0  0  0  0  0  0  0  0  0  0
   -3.1427   -0.2841    0.0000 C   0  0  0  0  0  0  0  0  0  0  0  0
   -3.5263    1.1660    0.0000 O   0  0  0  0  0  0  0  0  0  0  0  0
   -3.2521   -1.7801    0.0000 C   0  0  0  0  0  0  0  0  0  0  0  0
   -1.8631   -2.3465    0.0000 C   0  0  0  0  0  0  0  0  0  0  0  0
   -0.8953   -1.2005    0.0000 C   0  0  0  0  0  0  0  0  0  0  0  0
    0.6040   -1.1530    0.0000 C   0  0  0  0  0  0  0  0  0  0  0  0
    1.3948   -2.4276    0.0000 C   0  0  0  0  0  0  0  0  0  0  0  0
    2.8940   -2.3800    0.0000 C   0  0  0  0  0  0  0  0  0  0  0  0
    3.6025   -1.0579    0.0000 C   0  0  0  0  0  0  0  0  0  0  0  0
    5.1017   -1.0103    0.0000 C   0  0  0  0  0  0  0  0  0  0  0  0
    5.8102    0.3118    0.0000 C   0  0  0  0  0  0  0  0  0  0  0  0
    7.3094    0.3594    0.0000 O   0  0  0  0  0  0  0  0  0  0  0  0
    5.0194    1.5864    0.0000 C   0  0  0  0  0  0  0  0  0  0  0  0
    3.5201    1.5389    0.0000 C   0  0  0  0  0  0  0  0  0  0  0  0
    2.8117    0.2167    0.0000 C   0  0  0  0  0  0  0  0  0  0  0  0
    2.0209    1.4913    0.0000 C   0  0  0  0  0  0  0  0  0  0  0  0
    1.3124    0.1692    0.0000 C   0  0  0  0  0  0  0  0  0  0  0  0
    0.5216    1.4438    0.0000 C   0  0  0  0  0  0  0  0  0  0  0  0
   -0.9776    1.3963    0.0000 C   0  0  0  0  0  0  0  0  0  0  0  0
   -1.7684    2.6709    0.0000 O   0  0  0  0  0  0  0  0  0  0  0  0
   -1.6861    0.0741    0.0000 C   0  0  0  0  0  0  0  0  0  0  0  0
   -2.4545    1.3623    0.0000 C   0  0  0  0  0  0  0  0  0  0  0  0
  1  2  2  0
  2  3  1  0
  3  4  1  1
  3  5  1  0
  5  6  1  1
  5  7  1  0
  7  8  1  0
  9  8  1  6
  9 10  1  0
 10 11  1  1
 11 12  1  0
 13 12  1  1
 13 14  1  0
 14 15  1  0
 15 16  1  1
 15 17  1  0
 17 18  1  0
 18 19  1  0
 19 20  1  6
 19 21  1  0
 21 22  1  6
 22 23  1  0
 23 24  1  1
 23 25  1  0
 25 26  1  6
 25  5  1  0
 25  9  1  0
 21 10  1  0
 19 13  1  0
M  END
>  <MS_ID>  (3234) 
MS3367

>  <SMILES>  (3234) 
C=C[C@H](O)[C@@]1(O)CC[C@H]2[C@@H]3CC[C@@H]4C[C@H](O)CC[C@]4(C)[C@H]3C[C@H](O)[C@@]21C

>  <Structure_dimension>  (3234) 
2D

$$$$
MS3368
     RDKit          2D

 23 26  0  0  0  0  0  0  0  0999 V2000
   -6.2880    0.1477    0.0000 C   0  0  0  0  0  0  0  0  0  0  0  0
   -4.8818    0.6700    0.0000 C   0  0  0  0  0  0  0  0  0  0  0  0
   -4.6310    2.1488    0.0000 N   0  0  0  0  0  0  0  0  0  0  0  0
   -3.7265   -0.2867    0.0000 C   0  0  0  0  0  0  0  0  0  0  0  0
   -3.8214   -1.7837    0.0000 C   0  0  0  0  0  0  0  0  0  0  0  0
   -2.4270   -2.3365    0.0000 C   0  0  0  0  0  0  0  0  0  0  0  0
   -1.4703   -1.1812    0.0000 C   0  0  0  0  0  0  0  0  0  0  0  0
    0.0284   -1.1191    0.0000 C   0  0  0  0  0  0  0  0  0  0  0  0
    0.8316   -2.3860    0.0000 C   0  0  0  0  0  0  0  0  0  0  0  0
    2.3303   -2.3238    0.0000 C   0  0  0  0  0  0  0  0  0  0  0  0
    3.0258   -0.9949    0.0000 C   0  0  0  0  0  0  0  0  0  0  0  0
    4.5246   -0.9327    0.0000 C   0  0  0  0  0  0  0  0  0  0  0  0
    5.2201    0.3962    0.0000 C   0  0  0  0  0  0  0  0  0  0  0  0
    6.7188    0.4584    0.0000 O   0  0  0  0  0  0  0  0  0  0  0  0
    4.4170    1.6631    0.0000 C   0  0  0  0  0  0  0  0  0  0  0  0
    2.9183    1.6010    0.0000 C   0  0  0  0  0  0  0  0  0  0  0  0
    2.2227    0.2720    0.0000 C   0  0  0  0  0  0  0  0  0  0  0  0
    1.4195    1.5389    0.0000 C   0  0  0  0  0  0  0  0  0  0  0  0
    0.7240    0.2099    0.0000 C   0  0  0  0  0  0  0  0  0  0  0  0
   -0.0792    1.4768    0.0000 C   0  0  0  0  0  0  0  0  0  0  0  0
   -1.5779    1.4146    0.0000 C   0  0  0  0  0  0  0  0  0  0  0  0
   -2.2734    0.0856    0.0000 C   0  0  0  0  0  0  0  0  0  0  0  0
   -3.2046    1.2616    0.0000 C   0  0  0  0  0  0  0  0  0  0  0  0
  2  1  1  6
  2  3  1  0
  2  4  1  0
  4  5  1  6
  5  6  1  0
  7  6  1  6
  7  8  1  0
  8  9  1  1
  9 10  1  0
 11 10  1  6
 11 12  1  0
 12 13  1  0
 13 14  2  0
 13 15  1  0
 15 16  1  0
 16 17  1  0
 17 18  1  6
 17 19  1  0
 19 20  1  6
 20 21  1  0
 21 22  1  0
 22 23  1  6
 22  4  1  0
 22  7  1  0
 19  8  1  0
 17 11  1  0
M  END
>  <MS_ID>  (3235) 
MS3368

>  <SMILES>  (3235) 
C[C@H](N)[C@H]1CC[C@H]2[C@@H]3CC[C@H]4CC(=O)CC[C@]4(C)[C@H]3CC[C@]12C

>  <Structure_dimension>  (3235) 
2D

$$$$
MS3369
     RDKit          2D

 36 39  0  0  0  0  0  0  0  0999 V2000
   -8.9155    2.3606    0.0000 C   0  0  0  0  0  0  0  0  0  0  0  0
   -8.1797    1.0535    0.0000 C   0  0  0  0  0  0  0  0  0  0  0  0
   -8.9438   -0.2373    0.0000 C   0  0  0  0  0  0  0  0  0  0  0  0
   -6.6798    1.0372    0.0000 C   0  0  0  0  0  0  0  0  0  0  0  0
   -5.9440   -0.2700    0.0000 N   0  0  0  0  0  0  0  0  0  0  0  0
   -4.4440   -0.2863    0.0000 C   0  0  0  0  0  0  0  0  0  0  0  0
   -3.6799    1.0045    0.0000 O   0  0  0  0  0  0  0  0  0  0  0  0
   -3.7082   -1.5934    0.0000 C   0  0  0  0  0  0  0  0  0  0  0  0
   -2.2083   -1.6098    0.0000 C   0  0  0  0  0  0  0  0  0  0  0  0
   -1.4725   -2.9169    0.0000 C   0  0  0  0  0  0  0  0  0  0  0  0
   -2.2366   -4.2077    0.0000 C   0  0  0  0  0  0  0  0  0  0  0  0
    0.0274   -2.9332    0.0000 C   0  0  0  0  0  0  0  0  0  0  0  0
    0.8958   -4.1563    0.0000 C   0  0  0  0  0  0  0  0  0  0  0  0
    2.3274   -3.7083    0.0000 C   0  0  0  0  0  0  0  0  0  0  0  0
    2.3437   -2.2084    0.0000 C   0  0  0  0  0  0  0  0  0  0  0  0
    3.4693   -1.2169    0.0000 C   0  0  0  0  0  0  0  0  0  0  0  0
    4.8907   -1.6959    0.0000 C   0  0  0  0  0  0  0  0  0  0  0  0
    5.1866   -3.1664    0.0000 O   0  0  0  0  0  0  0  0  0  0  0  0
    6.0163   -0.7044    0.0000 C   0  0  0  0  0  0  0  0  0  0  0  0
    5.7204    0.7661    0.0000 C   0  0  0  0  0  0  0  0  0  0  0  0
    6.8460    1.7576    0.0000 C   0  0  0  0  0  0  0  0  0  0  0  0
    6.5501    3.2282    0.0000 C   0  0  0  0  0  0  0  0  0  0  0  0
    7.6757    4.2197    0.0000 O   0  0  0  0  0  0  0  0  0  0  0  0
    5.1287    3.7072    0.0000 C   0  0  0  0  0  0  0  0  0  0  0  0
    4.0031    2.7157    0.0000 C   0  0  0  0  0  0  0  0  0  0  0  0
    4.2990    1.2452    0.0000 C   0  0  0  0  0  0  0  0  0  0  0  0
    2.8775    1.7242    0.0000 C   0  0  0  0  0  0  0  0  0  0  0  0
    3.1734    0.2537    0.0000 C   0  0  0  0  0  0  0  0  0  0  0  0
    1.7519    0.7327    0.0000 C   0  0  0  0  0  0  0  0  0  0  0  0
    0.6264   -0.2588    0.0000 C   0  0  0  0  0  0  0  0  0  0  0  0
   -0.7951    0.2202    0.0000 O   0  0  0  0  0  0  0  0  0  0  0  0
    0.9222   -1.7293    0.0000 C   0  0  0  0  0  0  0  0  0  0  0  0
   -0.5415   -1.4015    0.0000 C   0  0  0  0  0  0  0  0  0  0  0  0
   -5.9157    2.3280    0.0000 C   0  0  0  0  0  0  0  0  0  0  0  0
   -4.4158    2.3116    0.0000 O   0  0  0  0  0  0  0  0  0  0  0  0
   -6.6515    3.6351    0.0000 O   0  0  0  0  0  0  0  0  0  0  0  0
  1  2  1  0
  2  3  1  0
  2  4  1  0
  4  5  1  1
  5  6  1  0
  6  7  2  0
  6  8  1  0
  8  9  1  0
  9 10  1  0
 10 11  1  6
 10 12  1  0
 12 13  1  6
 13 14  1  0
 15 14  1  6
 15 16  1  0
 16 17  1  1
 17 18  1  1
 17 19  1  0
 20 19  1  1
 20 21  1  0
 21 22  1  0
 22 23  1  1
 22 24  1  0
 24 25  1  0
 25 26  1  0
 26 27  1  6
 26 28  1  0
 28 29  1  6
 29 30  1  0
 30 31  1  1
 30 32  1  0
 32 33  1  6
  4 34  1  0
 34 35  2  0
 34 36  1  0
 32 12  1  0
 32 15  1  0
 28 16  1  0
 26 20  1  0
M  END
>  <MS_ID>  (3236) 
MS3369

>  <SMILES>  (3236) 
CC(C)[C@H](NC(=O)CC[C@@H](C)[C@H]1CC[C@H]2[C@@H]3[C@H](O)C[C@@H]4C[C@H](O)CC[C@]4(C)[C@H]3C[C@H](O)[C@]12C)C(=O)O

>  <Structure_dimension>  (3236) 
2D

$$$$
MS3370
     RDKit          2D

 34 37  0  0  0  0  0  0  0  0999 V2000
   -4.1404   -3.2755    0.0000 C   0  0  0  0  0  0  0  0  0  0  0  0
   -3.1201   -2.1760    0.0000 C   0  0  0  0  0  0  0  0  0  0  0  0
   -3.5622   -0.7426    0.0000 C   0  0  0  0  0  0  0  0  0  0  0  0
   -5.0246   -0.4088    0.0000 C   0  0  0  0  0  0  0  0  0  0  0  0
   -5.4666    1.0246    0.0000 C   0  0  0  0  0  0  0  0  0  0  0  0
   -4.4463    2.1242    0.0000 O   0  0  0  0  0  0  0  0  0  0  0  0
   -6.9290    1.3585    0.0000 O   0  0  0  0  0  0  0  0  0  0  0  0
   -1.6577   -2.5098    0.0000 C   0  0  0  0  0  0  0  0  0  0  0  0
   -1.0683   -3.8892    0.0000 C   0  0  0  0  0  0  0  0  0  0  0  0
    0.4257   -3.7548    0.0000 C   0  0  0  0  0  0  0  0  0  0  0  0
    0.7596   -2.2924    0.0000 C   0  0  0  0  0  0  0  0  0  0  0  0
    2.0697   -1.5620    0.0000 C   0  0  0  0  0  0  0  0  0  0  0  0
    3.3573   -2.3314    0.0000 C   0  0  0  0  0  0  0  0  0  0  0  0
    3.3348   -3.8312    0.0000 O   0  0  0  0  0  0  0  0  0  0  0  0
    4.6675   -1.6010    0.0000 C   0  0  0  0  0  0  0  0  0  0  0  0
    4.6900   -0.1011    0.0000 C   0  0  0  0  0  0  0  0  0  0  0  0
    6.0001    0.6293    0.0000 C   0  0  0  0  0  0  0  0  0  0  0  0
    6.0226    2.1291    0.0000 C   0  0  0  0  0  0  0  0  0  0  0  0
    7.3328    2.8596    0.0000 O   0  0  0  0  0  0  0  0  0  0  0  0
    4.7350    2.8985    0.0000 C   0  0  0  0  0  0  0  0  0  0  0  0
    3.4249    2.1681    0.0000 C   0  0  0  0  0  0  0  0  0  0  0  0
    3.4024    0.6683    0.0000 C   0  0  0  0  0  0  0  0  0  0  0  0
    2.1147    1.4377    0.0000 C   0  0  0  0  0  0  0  0  0  0  0  0
    2.0922   -0.0621    0.0000 C   0  0  0  0  0  0  0  0  0  0  0  0
    0.8046    0.7073    0.0000 C   0  0  0  0  0  0  0  0  0  0  0  0
   -0.5056   -0.0231    0.0000 C   0  0  0  0  0  0  0  0  0  0  0  0
   -0.5281   -1.5230    0.0000 C   0  0  0  0  0  0  0  0  0  0  0  0
   -1.8891   -0.8924    0.0000 O   0  0  0  0  0  0  0  0  0  0  0  0
   -2.0235    0.6016    0.0000 C   0  0  0  0  0  0  0  0  0  0  0  0
   -0.7969    1.4650    0.0000 O   0  0  0  0  0  0  0  0  0  0  0  0
   -3.3845    1.2322    0.0000 C   0  0  0  0  0  0  0  0  0  0  0  0
   -3.5189    2.7262    0.0000 C   0  0  0  0  0  0  0  0  0  0  0  0
   -2.2923    3.5895    0.0000 O   0  0  0  0  0  0  0  0  0  0  0  0
   -4.8799    3.3568    0.0000 O   0  0  0  0  0  0  0  0  0  0  0  0
  2  1  1  6
  2  3  1  0
  3  4  1  0
  4  5  1  0
  5  6  2  0
  5  7  1  0
  2  8  1  0
  8  9  1  6
  9 10  1  0
 11 10  1  6
 11 12  1  0
 12 13  1  1
 13 14  1  6
 13 15  1  0
 16 15  1  1
 16 17  1  0
 17 18  1  0
 18 19  1  1
 18 20  1  0
 20 21  1  0
 21 22  1  0
 22 23  1  6
 22 24  1  0
 24 25  1  6
 25 26  1  0
 26 27  1  0
 27 28  1  6
 28 29  1  0
 29 30  2  0
 29 31  1  0
 31 32  1  0
 32 33  2  0
 32 34  1  0
 27  8  1  0
 27 11  1  0
 24 12  1  0
 22 16  1  0
M  END
>  <MS_ID>  (3237) 
MS3370

>  <SMILES>  (3237) 
C[C@H](CCC(=O)O)[C@H]1CC[C@H]2[C@@H]3[C@@H](O)C[C@@H]4C[C@H](O)CC[C@]4(C)[C@H]3CC[C@]12OC(=O)CC(=O)O

>  <Structure_dimension>  (3237) 
2D

$$$$
MS3371
     RDKit          2D

 32 35  0  0  0  0  0  0  0  0999 V2000
   -4.4526   -2.7099    0.0000 C   0  0  0  0  0  0  0  0  0  0  0  0
   -3.3556   -1.6869    0.0000 C   0  0  0  0  0  0  0  0  0  0  0  0
   -3.6930   -0.2253    0.0000 C   0  0  0  0  0  0  0  0  0  0  0  0
   -5.1275    0.2132    0.0000 C   0  0  0  0  0  0  0  0  0  0  0  0
   -5.4649    1.6748    0.0000 C   0  0  0  0  0  0  0  0  0  0  0  0
   -4.3679    2.6978    0.0000 O   0  0  0  0  0  0  0  0  0  0  0  0
   -6.8994    2.1133    0.0000 O   0  0  0  0  0  0  0  0  0  0  0  0
   -1.9211   -2.1254    0.0000 C   0  0  0  0  0  0  0  0  0  0  0  0
   -1.4327   -3.5437    0.0000 C   0  0  0  0  0  0  0  0  0  0  0  0
    0.0670   -3.5175    0.0000 C   0  0  0  0  0  0  0  0  0  0  0  0
    0.5056   -2.0830    0.0000 C   0  0  0  0  0  0  0  0  0  0  0  0
    1.8650   -1.4490    0.0000 C   0  0  0  0  0  0  0  0  0  0  0  0
    3.0938   -2.3094    0.0000 C   0  0  0  0  0  0  0  0  0  0  0  0
    2.9631   -3.8037    0.0000 O   0  0  0  0  0  0  0  0  0  0  0  0
    4.4532   -1.6754    0.0000 C   0  0  0  0  0  0  0  0  0  0  0  0
    4.5839   -0.1811    0.0000 C   0  0  0  0  0  0  0  0  0  0  0  0
    5.9434    0.4528    0.0000 C   0  0  0  0  0  0  0  0  0  0  0  0
    6.0741    1.9471    0.0000 C   0  0  0  0  0  0  0  0  0  0  0  0
    7.4335    2.5811    0.0000 O   0  0  0  0  0  0  0  0  0  0  0  0
    4.8454    2.8074    0.0000 C   0  0  0  0  0  0  0  0  0  0  0  0
    3.4859    2.1735    0.0000 C   0  0  0  0  0  0  0  0  0  0  0  0
    3.3552    0.6792    0.0000 C   0  0  0  0  0  0  0  0  0  0  0  0
    2.1265    1.5395    0.0000 C   0  0  0  0  0  0  0  0  0  0  0  0
    1.9957    0.0453    0.0000 C   0  0  0  0  0  0  0  0  0  0  0  0
    0.7670    0.9056    0.0000 C   0  0  0  0  0  0  0  0  0  0  0  0
   -0.5924    0.2716    0.0000 C   0  0  0  0  0  0  0  0  0  0  0  0
   -0.7232   -1.2226    0.0000 C   0  0  0  0  0  0  0  0  0  0  0  0
   -2.0351   -0.4955    0.0000 O   0  0  0  0  0  0  0  0  0  0  0  0
   -2.0613    1.0043    0.0000 C   0  0  0  0  0  0  0  0  0  0  0  0
   -3.3732    1.7315    0.0000 C   0  0  0  0  0  0  0  0  0  0  0  0
   -4.6590    0.9589    0.0000 O   0  0  0  0  0  0  0  0  0  0  0  0
   -3.3994    3.2313    0.0000 O   0  0  0  0  0  0  0  0  0  0  0  0
  2  1  1  6
  2  3  1  0
  3  4  1  0
  4  5  1  0
  5  6  2  0
  5  7  1  0
  2  8  1  0
  8  9  1  6
  9 10  1  0
 11 10  1  6
 11 12  1  0
 12 13  1  1
 13 14  1  6
 13 15  1  0
 16 15  1  1
 16 17  1  0
 17 18  1  0
 18 19  1  1
 18 20  1  0
 20 21  1  0
 21 22  1  0
 22 23  1  6
 22 24  1  0
 24 25  1  6
 25 26  1  0
 26 27  1  0
 27 28  1  6
 28 29  1  0
 29 30  1  0
 30 31  2  0
 30 32  1  0
 27  8  1  0
 27 11  1  0
 24 12  1  0
 22 16  1  0
M  END
>  <MS_ID>  (3238) 
MS3371

>  <SMILES>  (3238) 
C[C@H](CCC(=O)O)[C@H]1CC[C@H]2[C@@H]3[C@@H](O)C[C@@H]4C[C@H](O)CC[C@]4(C)[C@H]3CC[C@]12OCC(=O)O

>  <Structure_dimension>  (3238) 
2D

$$$$
MS3372
     RDKit          2D

 28 31  0  0  0  0  0  0  0  0999 V2000
   -5.1275   -2.0302    0.0000 C   0  0  0  0  0  0  0  0  0  0  0  0
   -3.9468   -1.1050    0.0000 C   0  0  0  0  0  0  0  0  0  0  0  0
   -4.1576    0.3801    0.0000 C   0  0  0  0  0  0  0  0  0  0  0  0
   -5.5492    0.9401    0.0000 C   0  0  0  0  0  0  0  0  0  0  0  0
   -5.7600    2.4252    0.0000 C   0  0  0  0  0  0  0  0  0  0  0  0
   -4.5793    3.3503    0.0000 O   0  0  0  0  0  0  0  0  0  0  0  0
   -7.1516    2.9851    0.0000 O   0  0  0  0  0  0  0  0  0  0  0  0
   -2.5552   -1.6650    0.0000 C   0  0  0  0  0  0  0  0  0  0  0  0
   -2.1903   -3.1199    0.0000 C   0  0  0  0  0  0  0  0  0  0  0  0
   -0.6938   -3.2225    0.0000 C   0  0  0  0  0  0  0  0  0  0  0  0
   -0.1339   -1.8309    0.0000 C   0  0  0  0  0  0  0  0  0  0  0  0
    1.2750   -1.3159    0.0000 C   0  0  0  0  0  0  0  0  0  0  0  0
    2.4254   -2.2785    0.0000 C   0  0  0  0  0  0  0  0  0  0  0  0
    2.1670   -3.7560    0.0000 O   0  0  0  0  0  0  0  0  0  0  0  0
    3.8342   -1.7635    0.0000 C   0  0  0  0  0  0  0  0  0  0  0  0
    4.0926   -0.2859    0.0000 C   0  0  0  0  0  0  0  0  0  0  0  0
    5.5014    0.2291    0.0000 C   0  0  0  0  0  0  0  0  0  0  0  0
    5.7598    1.7067    0.0000 C   0  0  0  0  0  0  0  0  0  0  0  0
    7.1687    2.2217    0.0000 Cl  0  0  0  0  0  0  0  0  0  0  0  0
    4.6094    2.6692    0.0000 C   0  0  0  0  0  0  0  0  0  0  0  0
    3.2006    2.1542    0.0000 C   0  0  0  0  0  0  0  0  0  0  0  0
    2.9422    0.6767    0.0000 C   0  0  0  0  0  0  0  0  0  0  0  0
    1.7918    1.6392    0.0000 O   0  0  0  0  0  0  0  0  0  0  0  0
    1.5334    0.1617    0.0000 C   0  0  0  0  0  0  0  0  0  0  0  0
    0.3830    1.1242    0.0000 C   0  0  0  0  0  0  0  0  0  0  0  0
   -1.0259    0.6093    0.0000 C   0  0  0  0  0  0  0  0  0  0  0  0
   -1.2843   -0.8683    0.0000 C   0  0  0  0  0  0  0  0  0  0  0  0
   -2.5290   -0.0313    0.0000 C   0  0  0  0  0  0  0  0  0  0  0  0
  2  1  1  6
  2  3  1  0
  3  4  1  0
  4  5  1  0
  5  6  2  0
  5  7  1  0
  2  8  1  0
  8  9  1  6
  9 10  1  0
 11 10  1  6
 11 12  1  0
 12 13  1  1
 13 14  1  6
 13 15  1  0
 16 15  1  1
 16 17  1  0
 17 18  1  0
 18 19  1  1
 18 20  1  0
 20 21  1  0
 21 22  1  0
 22 23  1  6
 22 24  1  0
 24 25  1  6
 25 26  1  0
 26 27  1  0
 27 28  1  6
 27  8  1  0
 27 11  1  0
 24 12  1  0
 22 16  1  0
M  END
>  <MS_ID>  (3239) 
MS3372

>  <SMILES>  (3239) 
C[C@H](CCC(=O)O)[C@H]1CC[C@H]2[C@@H]3[C@@H](O)C[C@@H]4C[C@H](Cl)CC[C@]4(O)[C@H]3CC[C@]12C

>  <Structure_dimension>  (3239) 
2D

$$$$
MS3373
     RDKit          2D

 20 23  0  0  0  0  0  0  0  0999 V2000
   -3.8161   -1.8392    0.0000 C   0  0  0  0  0  0  0  0  0  0  0  0
   -3.0194   -0.5683    0.0000 C   0  0  0  0  0  0  0  0  0  0  0  0
   -4.5045   -0.3574    0.0000 C   0  0  0  0  0  0  0  0  0  0  0  0
   -4.7629    1.1202    0.0000 C   0  0  0  0  0  0  0  0  0  0  0  0
   -3.4374    1.8225    0.0000 C   0  0  0  0  0  0  0  0  0  0  0  0
   -2.3599    0.7790    0.0000 C   0  0  0  0  0  0  0  0  0  0  0  0
   -0.8634    0.8815    0.0000 C   0  0  0  0  0  0  0  0  0  0  0  0
   -0.2039    2.2287    0.0000 C   0  0  0  0  0  0  0  0  0  0  0  0
    1.2926    2.3312    0.0000 C   0  0  0  0  0  0  0  0  0  0  0  0
    2.1296    1.0864    0.0000 C   0  0  0  0  0  0  0  0  0  0  0  0
    3.6261    1.1889    0.0000 C   0  0  0  0  0  0  0  0  0  0  0  0
    4.4631   -0.0558    0.0000 C   0  0  0  0  0  0  0  0  0  0  0  0
    5.9596    0.0467    0.0000 O   0  0  0  0  0  0  0  0  0  0  0  0
    3.8036   -1.4031    0.0000 C   0  0  0  0  0  0  0  0  0  0  0  0
    2.3071   -1.5056    0.0000 C   0  0  0  0  0  0  0  0  0  0  0  0
    1.4701   -0.2608    0.0000 C   0  0  0  0  0  0  0  0  0  0  0  0
    0.8106   -1.6081    0.0000 C   0  0  0  0  0  0  0  0  0  0  0  0
   -0.0264   -0.3633    0.0000 C   0  0  0  0  0  0  0  0  0  0  0  0
   -0.6859   -1.7105    0.0000 C   0  0  0  0  0  0  0  0  0  0  0  0
   -2.1824   -1.8130    0.0000 C   0  0  0  0  0  0  0  0  0  0  0  0
  2  1  1  1
  2  3  1  0
  3  4  1  0
  4  5  1  0
  6  5  1  1
  6  7  1  0
  7  8  1  6
  8  9  1  0
 10  9  1  6
 10 11  1  0
 11 12  1  0
 12 13  1  1
 12 14  1  0
 14 15  1  0
 15 16  1  0
 16 17  1  1
 16 18  1  0
 18 19  1  1
 19 20  1  0
  6  2  1  0
 18  7  1  0
 20  2  1  0
 16 10  1  0
M  END
>  <MS_ID>  (3240) 
MS3373

>  <SMILES>  (3240) 
C[C@@]12CCC[C@H]1[C@@H]1CC[C@@H]3C[C@@H](O)CC[C@]3(C)[C@H]1CC2

>  <Structure_dimension>  (3240) 
2D

$$$$
MS3374
     RDKit          2D

 24 27  0  0  0  0  0  0  0  0999 V2000
   -6.0563    0.5513    0.0000 C   0  0  0  0  0  0  0  0  0  0  0  0
   -4.6264    1.0044    0.0000 C   0  0  0  0  0  0  0  0  0  0  0  0
   -4.3038    2.4693    0.0000 O   0  0  0  0  0  0  0  0  0  0  0  0
   -3.5190   -0.0075    0.0000 C   0  0  0  0  0  0  0  0  0  0  0  0
   -3.6867   -1.4981    0.0000 C   0  0  0  0  0  0  0  0  0  0  0  0
   -4.9912   -2.2385    0.0000 O   0  0  0  0  0  0  0  0  0  0  0  0
   -2.3209   -2.1182    0.0000 C   0  0  0  0  0  0  0  0  0  0  0  0
   -1.3091   -1.0108    0.0000 C   0  0  0  0  0  0  0  0  0  0  0  0
    0.1909   -1.0218    0.0000 C   0  0  0  0  0  0  0  0  0  0  0  0
    0.9313   -2.3263    0.0000 C   0  0  0  0  0  0  0  0  0  0  0  0
    2.4313   -2.3373    0.0000 C   0  0  0  0  0  0  0  0  0  0  0  0
    3.1908   -1.0438    0.0000 C   0  0  0  0  0  0  0  0  0  0  0  0
    4.6907   -1.0548    0.0000 C   0  0  0  0  0  0  0  0  0  0  0  0
    5.4502    0.2388    0.0000 C   0  0  0  0  0  0  0  0  0  0  0  0
    6.9502    0.2278    0.0000 O   0  0  0  0  0  0  0  0  0  0  0  0
    4.7098    1.5432    0.0000 C   0  0  0  0  0  0  0  0  0  0  0  0
    3.2098    1.5542    0.0000 C   0  0  0  0  0  0  0  0  0  0  0  0
    2.4503    0.2607    0.0000 C   0  0  0  0  0  0  0  0  0  0  0  0
    1.7098    1.5652    0.0000 C   0  0  0  0  0  0  0  0  0  0  0  0
    0.9504    0.2717    0.0000 C   0  0  0  0  0  0  0  0  0  0  0  0
    0.2099    1.5762    0.0000 C   0  0  0  0  0  0  0  0  0  0  0  0
   -1.2901    1.5872    0.0000 C   0  0  0  0  0  0  0  0  0  0  0  0
   -2.0496    0.2936    0.0000 C   0  0  0  0  0  0  0  0  0  0  0  0
   -2.9223    1.5136    0.0000 C   0  0  0  0  0  0  0  0  0  0  0  0
  1  2  1  0
  2  3  2  0
  4  2  1  6
  4  5  1  0
  5  6  1  1
  5  7  1  0
  8  7  1  6
  8  9  1  0
  9 10  1  1
 10 11  1  0
 12 11  1  6
 12 13  1  0
 13 14  1  0
 14 15  1  6
 14 16  1  0
 16 17  1  0
 17 18  1  0
 18 19  1  6
 18 20  1  0
 20 21  1  6
 21 22  1  0
 22 23  1  0
 23 24  1  6
 23  4  1  0
 23  8  1  0
 20  9  1  0
 18 12  1  0
M  END
>  <MS_ID>  (3241) 
MS3374

>  <SMILES>  (3241) 
CC(=O)[C@H]1[C@H](O)C[C@H]2[C@@H]3CC[C@H]4C[C@@H](O)CC[C@]4(C)[C@H]3CC[C@@]21C

>  <Structure_dimension>  (3241) 
2D

$$$$
MS3375
     RDKit          2D

 26 29  0  0  0  0  0  0  0  0999 V2000
   -3.8405    2.0512    0.0000 C   0  0  0  0  0  0  0  0  0  0  0  0
   -4.0273    0.5629    0.0000 C   0  0  0  0  0  0  0  0  0  0  0  0
   -5.4096   -0.0195    0.0000 C   0  0  0  0  0  0  0  0  0  0  0  0
   -5.5965   -1.5078    0.0000 O   0  0  0  0  0  0  0  0  0  0  0  0
   -6.6052    0.8864    0.0000 O   0  0  0  0  0  0  0  0  0  0  0  0
   -2.8318   -0.3431    0.0000 C   0  0  0  0  0  0  0  0  0  0  0  0
   -2.8620   -1.8428    0.0000 C   0  0  0  0  0  0  0  0  0  0  0  0
   -1.4450   -2.3350    0.0000 C   0  0  0  0  0  0  0  0  0  0  0  0
   -0.5391   -1.1394    0.0000 C   0  0  0  0  0  0  0  0  0  0  0  0
    0.9555   -1.0127    0.0000 C   0  0  0  0  0  0  0  0  0  0  0  0
    1.8126   -2.2438    0.0000 C   0  0  0  0  0  0  0  0  0  0  0  0
    1.1750   -3.6015    0.0000 O   0  0  0  0  0  0  0  0  0  0  0  0
    3.3072   -2.1171    0.0000 C   0  0  0  0  0  0  0  0  0  0  0  0
    3.9448   -0.7593    0.0000 C   0  0  0  0  0  0  0  0  0  0  0  0
    5.4394   -0.6326    0.0000 C   0  0  0  0  0  0  0  0  0  0  0  0
    6.0770    0.7252    0.0000 C   0  0  0  0  0  0  0  0  0  0  0  0
    5.2200    1.9562    0.0000 C   0  0  0  0  0  0  0  0  0  0  0  0
    3.7253    1.8295    0.0000 C   0  0  0  0  0  0  0  0  0  0  0  0
    3.0878    0.4717    0.0000 C   0  0  0  0  0  0  0  0  0  0  0  0
    2.2307    1.7028    0.0000 C   0  0  0  0  0  0  0  0  0  0  0  0
    1.5931    0.3450    0.0000 C   0  0  0  0  0  0  0  0  0  0  0  0
    0.7361    1.5761    0.0000 C   0  0  0  0  0  0  0  0  0  0  0  0
   -0.7586    1.4494    0.0000 C   0  0  0  0  0  0  0  0  0  0  0  0
   -1.6156    2.6804    0.0000 O   0  0  0  0  0  0  0  0  0  0  0  0
   -1.3962    0.0916    0.0000 C   0  0  0  0  0  0  0  0  0  0  0  0
   -2.3772    1.2263    0.0000 C   0  0  0  0  0  0  0  0  0  0  0  0
  2  1  1  6
  2  3  1  0
  3  4  2  0
  3  5  1  0
  2  6  1  0
  6  7  1  6
  7  8  1  0
  9  8  1  6
  9 10  1  0
 10 11  1  1
 11 12  1  1
 11 13  1  0
 14 13  1  1
 14 15  1  0
 15 16  1  0
 16 17  1  0
 17 18  1  0
 18 19  1  0
 19 20  1  6
 19 21  1  0
 21 22  1  6
 22 23  1  0
 23 24  1  1
 23 25  1  0
 25 26  1  6
 25  6  1  0
 25  9  1  0
 21 10  1  0
 19 14  1  0
M  END
>  <MS_ID>  (3242) 
MS3375

>  <SMILES>  (3242) 
C[C@@H](C(=O)O)[C@H]1CC[C@H]2[C@@H]3[C@H](O)C[C@@H]4CCCC[C@]4(C)[C@H]3C[C@H](O)[C@]12C

>  <Structure_dimension>  (3242) 
2D

$$$$
MS3376
     RDKit          2D

 25 28  0  0  0  0  0  0  0  0999 V2000
    1.7479   -1.4680    0.0000 C   0  0  0  0  0  0  0  0  0  0  0  0
    2.6075   -0.2388    0.0000 C   0  0  0  0  0  0  0  0  0  0  0  0
    3.2422   -1.5979    0.0000 C   0  0  0  0  0  0  0  0  0  0  0  0
    4.7366   -1.7278    0.0000 C   0  0  0  0  0  0  0  0  0  0  0  0
    5.5963   -0.4986    0.0000 C   0  0  0  0  0  0  0  0  0  0  0  0
    7.0906   -0.6285    0.0000 O   0  0  0  0  0  0  0  0  0  0  0  0
    4.9616    0.8605    0.0000 C   0  0  0  0  0  0  0  0  0  0  0  0
    3.4672    0.9904    0.0000 C   0  0  0  0  0  0  0  0  0  0  0  0
    2.8325    2.3495    0.0000 C   0  0  0  0  0  0  0  0  0  0  0  0
    1.3381    2.4794    0.0000 C   0  0  0  0  0  0  0  0  0  0  0  0
    0.4785    1.2502    0.0000 C   0  0  0  0  0  0  0  0  0  0  0  0
    1.1132   -0.1089    0.0000 C   0  0  0  0  0  0  0  0  0  0  0  0
    0.2535   -1.3382    0.0000 C   0  0  0  0  0  0  0  0  0  0  0  0
   -1.2409   -1.2083    0.0000 C   0  0  0  0  0  0  0  0  0  0  0  0
   -2.1005   -2.4375    0.0000 O   0  0  0  0  0  0  0  0  0  0  0  0
   -1.8756    0.1508    0.0000 C   0  0  0  0  0  0  0  0  0  0  0  0
   -2.8590   -0.9818    0.0000 C   0  0  0  0  0  0  0  0  0  0  0  0
   -3.3103    0.5886    0.0000 C   0  0  0  0  0  0  0  0  0  0  0  0
   -4.5077   -0.3148    0.0000 C   0  0  0  0  0  0  0  0  0  0  0  0
   -4.3241   -1.8035    0.0000 O   0  0  0  0  0  0  0  0  0  0  0  0
   -5.8888    0.2705    0.0000 C   0  0  0  0  0  0  0  0  0  0  0  0
   -7.0862   -0.6329    0.0000 O   0  0  0  0  0  0  0  0  0  0  0  0
   -3.3373    2.0883    0.0000 C   0  0  0  0  0  0  0  0  0  0  0  0
   -1.9193    2.5775    0.0000 C   0  0  0  0  0  0  0  0  0  0  0  0
   -1.0159    1.3800    0.0000 C   0  0  0  0  0  0  0  0  0  0  0  0
  2  1  1  1
  2  3  1  0
  3  4  1  0
  4  5  1  0
  5  6  2  0
  5  7  1  0
  8  7  1  6
  8  9  1  0
  9 10  1  0
 11 10  1  6
 11 12  1  0
 12 13  1  1
 13 14  1  0
 14 15  1  1
 14 16  1  0
 16 17  1  1
 16 18  1  0
 18 19  1  1
 19 20  2  0
 19 21  1  0
 21 22  1  0
 18 23  1  0
 23 24  1  0
 25 24  1  1
  8  2  1  0
 25 11  1  0
 12  2  1  0
 25 16  1  0
M  END
>  <MS_ID>  (3243) 
MS3376

>  <SMILES>  (3243) 
C[C@]12CCC(=O)C[C@H]1CC[C@@H]1[C@@H]2C[C@@H](O)[C@]2(C)[C@@H](C(=O)CO)CC[C@@H]12

>  <Structure_dimension>  (3243) 
2D

$$$$
MS3377
     RDKit          2D

 23 26  0  0  0  0  0  0  0  0999 V2000
   -6.8693    0.7662    0.0000 C   0  0  0  0  0  0  0  0  0  0  0  0
   -5.6718   -0.1372    0.0000 O   0  0  0  0  0  0  0  0  0  0  0  0
   -4.2908    0.4481    0.0000 C   0  0  0  0  0  0  0  0  0  0  0  0
   -4.1071    1.9368    0.0000 O   0  0  0  0  0  0  0  0  0  0  0  0
   -3.0933   -0.4553    0.0000 C   0  0  0  0  0  0  0  0  0  0  0  0
   -3.1203   -1.9550    0.0000 C   0  0  0  0  0  0  0  0  0  0  0  0
   -1.7023   -2.4442    0.0000 C   0  0  0  0  0  0  0  0  0  0  0  0
   -0.7989   -1.2467    0.0000 C   0  0  0  0  0  0  0  0  0  0  0  0
    0.6954   -1.1169    0.0000 C   0  0  0  0  0  0  0  0  0  0  0  0
    1.5551   -2.3461    0.0000 C   0  0  0  0  0  0  0  0  0  0  0  0
    3.0495   -2.2162    0.0000 C   0  0  0  0  0  0  0  0  0  0  0  0
    3.6842   -0.8571    0.0000 C   0  0  0  0  0  0  0  0  0  0  0  0
    5.1785   -0.7272    0.0000 C   0  0  0  0  0  0  0  0  0  0  0  0
    5.8132    0.6319    0.0000 C   0  0  0  0  0  0  0  0  0  0  0  0
    4.9535    1.8612    0.0000 C   0  0  0  0  0  0  0  0  0  0  0  0
    3.4592    1.7313    0.0000 C   0  0  0  0  0  0  0  0  0  0  0  0
    2.8245    0.3722    0.0000 C   0  0  0  0  0  0  0  0  0  0  0  0
    1.9648    1.6014    0.0000 C   0  0  0  0  0  0  0  0  0  0  0  0
    1.3301    0.2423    0.0000 C   0  0  0  0  0  0  0  0  0  0  0  0
    0.4704    1.4715    0.0000 C   0  0  0  0  0  0  0  0  0  0  0  0
   -1.0239    1.3416    0.0000 C   0  0  0  0  0  0  0  0  0  0  0  0
   -1.6586   -0.0175    0.0000 C   0  0  0  0  0  0  0  0  0  0  0  0
   -2.6421    1.1151    0.0000 C   0  0  0  0  0  0  0  0  0  0  0  0
  1  2  1  0
  2  3  1  0
  3  4  2  0
  5  3  1  6
  5  6  1  0
  6  7  1  0
  8  7  1  6
  8  9  1  0
  9 10  1  1
 10 11  1  0
 12 11  1  1
 12 13  1  0
 13 14  1  0
 14 15  1  0
 15 16  1  0
 16 17  1  0
 17 18  1  6
 17 19  1  0
 19 20  1  6
 20 21  1  0
 21 22  1  0
 22 23  1  6
 22  5  1  0
 22  8  1  0
 19  9  1  0
 17 12  1  0
M  END
>  <MS_ID>  (3244) 
MS3377

>  <SMILES>  (3244) 
COC(=O)[C@H]1CC[C@H]2[C@@H]3CC[C@@H]4CCCC[C@]4(C)[C@H]3CC[C@]12C

>  <Structure_dimension>  (3244) 
2D

$$$$
MS3378
     RDKit          2D

 30 33  0  0  0  0  0  0  0  0999 V2000
   -5.0634    4.0451    0.0000 C   0  0  0  0  0  0  0  0  0  0  0  0
   -4.7002    2.5898    0.0000 C   0  0  0  0  0  0  0  0  0  0  0  0
   -3.2582    2.1767    0.0000 C   0  0  0  0  0  0  0  0  0  0  0  0
   -5.7790    1.5475    0.0000 C   0  0  0  0  0  0  0  0  0  0  0  0
   -7.2209    1.9606    0.0000 C   0  0  0  0  0  0  0  0  0  0  0  0
   -5.4157    0.0922    0.0000 C   0  0  0  0  0  0  0  0  0  0  0  0
   -3.9737   -0.3209    0.0000 C   0  0  0  0  0  0  0  0  0  0  0  0
   -3.6105   -1.7763    0.0000 C   0  0  0  0  0  0  0  0  0  0  0  0
   -4.6893   -2.8185    0.0000 C   0  0  0  0  0  0  0  0  0  0  0  0
   -2.1685   -2.1894    0.0000 C   0  0  0  0  0  0  0  0  0  0  0  0
   -1.6551   -3.5988    0.0000 C   0  0  0  0  0  0  0  0  0  0  0  0
   -0.1561   -3.5461    0.0000 C   0  0  0  0  0  0  0  0  0  0  0  0
    0.2570   -2.1041    0.0000 C   0  0  0  0  0  0  0  0  0  0  0  0
    1.6051   -1.4462    0.0000 C   0  0  0  0  0  0  0  0  0  0  0  0
    2.8488   -2.2847    0.0000 C   0  0  0  0  0  0  0  0  0  0  0  0
    4.1969   -1.6269    0.0000 C   0  0  0  0  0  0  0  0  0  0  0  0
    5.4406   -2.4654    0.0000 O   0  0  0  0  0  0  0  0  0  0  0  0
    4.3011   -0.1305    0.0000 C   0  0  0  0  0  0  0  0  0  0  0  0
    5.6492    0.5274    0.0000 C   0  0  0  0  0  0  0  0  0  0  0  0
    5.7535    2.0238    0.0000 C   0  0  0  0  0  0  0  0  0  0  0  0
    7.1015    2.6816    0.0000 O   0  0  0  0  0  0  0  0  0  0  0  0
    4.5097    2.8623    0.0000 C   0  0  0  0  0  0  0  0  0  0  0  0
    3.1617    2.2044    0.0000 C   0  0  0  0  0  0  0  0  0  0  0  0
    3.0574    0.7080    0.0000 C   0  0  0  0  0  0  0  0  0  0  0  0
    1.8136    1.5465    0.0000 C   0  0  0  0  0  0  0  0  0  0  0  0
    1.7094    0.0501    0.0000 C   0  0  0  0  0  0  0  0  0  0  0  0
    0.4656    0.8886    0.0000 C   0  0  0  0  0  0  0  0  0  0  0  0
   -0.8824    0.2307    0.0000 C   0  0  0  0  0  0  0  0  0  0  0  0
   -0.9867   -1.2656    0.0000 C   0  0  0  0  0  0  0  0  0  0  0  0
   -2.3113   -0.5617    0.0000 C   0  0  0  0  0  0  0  0  0  0  0  0
  1  2  1  0
  2  3  1  0
  2  4  1  0
  4  5  1  1
  4  6  1  0
  6  7  1  0
  7  8  1  0
  8  9  1  6
  8 10  1  0
 10 11  1  6
 11 12  1  0
 13 12  1  6
 13 14  1  0
 14 15  1  1
 15 16  1  0
 16 17  1  1
 16 18  1  0
 18 19  1  6
 19 20  1  0
 20 21  1  6
 20 22  1  0
 22 23  1  0
 23 24  1  0
 24 25  1  6
 24 26  1  0
 26 27  1  6
 27 28  1  0
 28 29  1  0
 29 30  1  6
 29 10  1  0
 29 13  1  0
 26 14  1  0
 24 18  1  0
M  END
>  <MS_ID>  (3245) 
MS3378

>  <SMILES>  (3245) 
CC(C)[C@H](C)CC[C@@H](C)[C@H]1CC[C@H]2[C@@H]3C[C@H](O)[C@H]4C[C@@H](O)CC[C@]4(C)[C@H]3CC[C@]12C

>  <Structure_dimension>  (3245) 
2D

$$$$
MS3379
     RDKit          2D

 24 27  0  0  0  0  0  0  0  0999 V2000
   -7.1591    0.8654    0.0000 C   0  0  0  0  0  0  0  0  0  0  0  0
   -5.9784   -0.0597    0.0000 C   0  0  0  0  0  0  0  0  0  0  0  0
   -4.5869    0.5003    0.0000 C   0  0  0  0  0  0  0  0  0  0  0  0
   -4.3760    1.9854    0.0000 O   0  0  0  0  0  0  0  0  0  0  0  0
   -3.4061   -0.4248    0.0000 C   0  0  0  0  0  0  0  0  0  0  0  0
   -3.4606   -1.9239    0.0000 C   0  0  0  0  0  0  0  0  0  0  0  0
   -2.0517   -2.4388    0.0000 C   0  0  0  0  0  0  0  0  0  0  0  0
   -1.1266   -1.2581    0.0000 C   0  0  0  0  0  0  0  0  0  0  0  0
    0.3699   -1.1555    0.0000 C   0  0  0  0  0  0  0  0  0  0  0  0
    1.2070   -2.4003    0.0000 C   0  0  0  0  0  0  0  0  0  0  0  0
    2.7034   -2.2977    0.0000 C   0  0  0  0  0  0  0  0  0  0  0  0
    3.3629   -0.9504    0.0000 C   0  0  0  0  0  0  0  0  0  0  0  0
    4.8594   -0.8479    0.0000 C   0  0  0  0  0  0  0  0  0  0  0  0
    5.5188    0.4994    0.0000 C   0  0  0  0  0  0  0  0  0  0  0  0
    7.0153    0.6020    0.0000 O   0  0  0  0  0  0  0  0  0  0  0  0
    4.6817    1.7441    0.0000 C   0  0  0  0  0  0  0  0  0  0  0  0
    3.1852    1.6416    0.0000 C   0  0  0  0  0  0  0  0  0  0  0  0
    2.5258    0.2943    0.0000 C   0  0  0  0  0  0  0  0  0  0  0  0
    1.6887    1.5390    0.0000 C   0  0  0  0  0  0  0  0  0  0  0  0
    1.0293    0.1917    0.0000 C   0  0  0  0  0  0  0  0  0  0  0  0
    0.1923    1.4364    0.0000 C   0  0  0  0  0  0  0  0  0  0  0  0
   -1.3042    1.3339    0.0000 C   0  0  0  0  0  0  0  0  0  0  0  0
   -1.9637   -0.0134    0.0000 C   0  0  0  0  0  0  0  0  0  0  0  0
   -2.9262    1.1370    0.0000 C   0  0  0  0  0  0  0  0  0  0  0  0
  1  2  1  0
  2  3  1  0
  3  4  2  0
  5  3  1  1
  5  6  1  0
  6  7  1  0
  8  7  1  6
  8  9  1  0
  9 10  1  1
 10 11  1  0
 12 11  1  1
 12 13  1  0
 13 14  1  0
 14 15  1  6
 14 16  1  0
 16 17  1  0
 17 18  1  0
 18 19  1  6
 18 20  1  0
 20 21  1  6
 21 22  1  0
 22 23  1  0
 23 24  1  6
 23  5  1  0
 23  8  1  0
 20  9  1  0
 18 12  1  0
M  END
>  <MS_ID>  (3246) 
MS3379

>  <SMILES>  (3246) 
CCC(=O)[C@@H]1CC[C@H]2[C@@H]3CC[C@@H]4C[C@@H](O)CC[C@]4(C)[C@H]3CC[C@]12C

>  <Structure_dimension>  (3246) 
2D

$$$$
MS3380
     RDKit          2D

 32 35  0  0  0  0  0  0  0  0999 V2000
   -3.1421   -3.6694    0.0000 C   0  0  0  0  0  0  0  0  0  0  0  0
   -2.2628   -2.4541    0.0000 C   0  0  0  0  0  0  0  0  0  0  0  0
   -2.8756   -1.0850    0.0000 C   0  0  0  0  0  0  0  0  0  0  0  0
   -4.3676   -0.9311    0.0000 C   0  0  0  0  0  0  0  0  0  0  0  0
   -4.9804    0.4380    0.0000 C   0  0  0  0  0  0  0  0  0  0  0  0
   -4.1011    1.6532    0.0000 O   0  0  0  0  0  0  0  0  0  0  0  0
   -6.4725    0.5919    0.0000 N   0  0  0  0  0  0  0  0  0  0  0  0
   -7.0853    1.9610    0.0000 C   0  0  0  0  0  0  0  0  0  0  0  0
   -8.5774    2.1149    0.0000 C   0  0  0  0  0  0  0  0  0  0  0  0
   -9.4567    0.8996    0.0000 O   0  0  0  0  0  0  0  0  0  0  0  0
   -9.1901    3.4840    0.0000 O   0  0  0  0  0  0  0  0  0  0  0  0
   -0.7707   -2.6080    0.0000 C   0  0  0  0  0  0  0  0  0  0  0  0
   -0.0182   -3.9056    0.0000 C   0  0  0  0  0  0  0  0  0  0  0  0
    1.4484   -3.5909    0.0000 C   0  0  0  0  0  0  0  0  0  0  0  0
    1.6023   -2.0988    0.0000 C   0  0  0  0  0  0  0  0  0  0  0  0
    2.8141   -1.2147    0.0000 C   0  0  0  0  0  0  0  0  0  0  0  0
    4.1856   -1.8222    0.0000 C   0  0  0  0  0  0  0  0  0  0  0  0
    4.3453   -3.3136    0.0000 O   0  0  0  0  0  0  0  0  0  0  0  0
    5.3974   -0.9381    0.0000 C   0  0  0  0  0  0  0  0  0  0  0  0
    5.2377    0.5533    0.0000 C   0  0  0  0  0  0  0  0  0  0  0  0
    6.4495    1.4374    0.0000 C   0  0  0  0  0  0  0  0  0  0  0  0
    6.2898    2.9289    0.0000 C   0  0  0  0  0  0  0  0  0  0  0  0
    7.5016    3.8129    0.0000 O   0  0  0  0  0  0  0  0  0  0  0  0
    4.9183    3.5363    0.0000 C   0  0  0  0  0  0  0  0  0  0  0  0
    3.7065    2.6522    0.0000 C   0  0  0  0  0  0  0  0  0  0  0  0
    3.8662    1.1608    0.0000 C   0  0  0  0  0  0  0  0  0  0  0  0
    2.4947    1.7682    0.0000 Br  0  0  0  0  0  0  0  0  0  0  0  0
    2.6544    0.2767    0.0000 C   0  0  0  0  0  0  0  0  0  0  0  0
    1.2829    0.8842    0.0000 C   0  0  0  0  0  0  0  0  0  0  0  0
    0.0711    0.0001    0.0000 C   0  0  0  0  0  0  0  0  0  0  0  0
    0.2308   -1.4914    0.0000 C   0  0  0  0  0  0  0  0  0  0  0  0
   -1.1967   -1.0306    0.0000 C   0  0  0  0  0  0  0  0  0  0  0  0
  2  1  1  6
  2  3  1  0
  3  4  1  0
  4  5  1  0
  5  6  2  0
  5  7  1  0
  7  8  1  0
  8  9  1  0
  9 10  2  0
  9 11  1  0
  2 12  1  0
 12 13  1  6
 13 14  1  0
 15 14  1  6
 15 16  1  0
 16 17  1  1
 17 18  1  6
 17 19  1  0
 20 19  1  1
 20 21  1  0
 21 22  1  0
 22 23  1  1
 22 24  1  0
 24 25  1  0
 25 26  1  0
 26 27  1  6
 26 28  1  0
 28 29  1  6
 29 30  1  0
 30 31  1  0
 31 32  1  6
 31 12  1  0
 31 15  1  0
 28 16  1  0
 26 20  1  0
M  END
>  <MS_ID>  (3247) 
MS3380

>  <SMILES>  (3247) 
C[C@H](CCC(=O)NCC(=O)O)[C@H]1CC[C@H]2[C@@H]3[C@@H](O)C[C@@H]4C[C@H](O)CC[C@]4(Br)[C@H]3CC[C@]12C

>  <Structure_dimension>  (3247) 
2D

$$$$
MS3381
     RDKit          2D

 38 41  0  0  0  0  0  0  0  0999 V2000
   -1.2469   -4.6154    0.0000 C   0  0  0  0  0  0  0  0  0  0  0  0
   -0.6421   -3.2427    0.0000 C   0  0  0  0  0  0  0  0  0  0  0  0
   -1.5285   -2.0326    0.0000 C   0  0  0  0  0  0  0  0  0  0  0  0
   -3.0197   -2.1952    0.0000 C   0  0  0  0  0  0  0  0  0  0  0  0
   -3.9060   -0.9851    0.0000 C   0  0  0  0  0  0  0  0  0  0  0  0
   -3.3012    0.3876    0.0000 O   0  0  0  0  0  0  0  0  0  0  0  0
   -5.3972   -1.1476    0.0000 N   0  0  0  0  0  0  0  0  0  0  0  0
   -6.2836    0.0625    0.0000 C   0  0  0  0  0  0  0  0  0  0  0  0
   -7.7747   -0.1001    0.0000 C   0  0  0  0  0  0  0  0  0  0  0  0
   -8.6611    1.1100    0.0000 C   0  0  0  0  0  0  0  0  0  0  0  0
  -10.1523    0.9475    0.0000 C   0  0  0  0  0  0  0  0  0  0  0  0
  -11.0386    2.1576    0.0000 C   0  0  0  0  0  0  0  0  0  0  0  0
  -12.5298    1.9950    0.0000 N   0  0  0  0  0  0  0  0  0  0  0  0
   -5.6788    1.4351    0.0000 C   0  0  0  0  0  0  0  0  0  0  0  0
   -4.1876    1.5977    0.0000 O   0  0  0  0  0  0  0  0  0  0  0  0
   -6.5651    2.6453    0.0000 O   0  0  0  0  0  0  0  0  0  0  0  0
    0.8490   -3.0802    0.0000 C   0  0  0  0  0  0  0  0  0  0  0  0
    1.8570   -4.1910    0.0000 C   0  0  0  0  0  0  0  0  0  0  0  0
    3.2250   -3.5756    0.0000 C   0  0  0  0  0  0  0  0  0  0  0  0
    3.0624   -2.0844    0.0000 C   0  0  0  0  0  0  0  0  0  0  0  0
    4.0618   -0.9658    0.0000 C   0  0  0  0  0  0  0  0  0  0  0  0
    5.5302   -1.2720    0.0000 C   0  0  0  0  0  0  0  0  0  0  0  0
    5.9993   -2.6968    0.0000 O   0  0  0  0  0  0  0  0  0  0  0  0
    6.5296   -0.1534    0.0000 C   0  0  0  0  0  0  0  0  0  0  0  0
    7.9980   -0.4596    0.0000 O   0  0  0  0  0  0  0  0  0  0  0  0
    6.0606    1.2714    0.0000 C   0  0  0  0  0  0  0  0  0  0  0  0
    7.0599    2.3900    0.0000 C   0  0  0  0  0  0  0  0  0  0  0  0
    6.5909    3.8147    0.0000 C   0  0  0  0  0  0  0  0  0  0  0  0
    7.5903    4.9333    0.0000 O   0  0  0  0  0  0  0  0  0  0  0  0
    5.1225    4.1209    0.0000 C   0  0  0  0  0  0  0  0  0  0  0  0
    4.1231    3.0023    0.0000 C   0  0  0  0  0  0  0  0  0  0  0  0
    4.5921    1.5776    0.0000 C   0  0  0  0  0  0  0  0  0  0  0  0
    3.1237    1.8837    0.0000 C   0  0  0  0  0  0  0  0  0  0  0  0
    3.5928    0.4590    0.0000 C   0  0  0  0  0  0  0  0  0  0  0  0
    2.1243    0.7651    0.0000 C   0  0  0  0  0  0  0  0  0  0  0  0
    1.1250   -0.3534    0.0000 C   0  0  0  0  0  0  0  0  0  0  0  0
    1.5940   -1.7782    0.0000 C   0  0  0  0  0  0  0  0  0  0  0  0
    0.1016   -1.6272    0.0000 C   0  0  0  0  0  0  0  0  0  0  0  0
  2  1  1  6
  2  3  1  0
  3  4  1  0
  4  5  1  0
  5  6  2  0
  5  7  1  0
  7  8  1  0
  8  9  1  1
  9 10  1  0
 10 11  1  0
 11 12  1  0
 12 13  1  0
  8 14  1  0
 14 15  2  0
 14 16  1  0
  2 17  1  0
 17 18  1  6
 18 19  1  0
 20 19  1  6
 20 21  1  0
 21 22  1  1
 22 23  1  6
 22 24  1  0
 24 25  1  6
 24 26  1  0
 26 27  1  1
 27 28  1  0
 28 29  1  1
 28 30  1  0
 30 31  1  0
 31 32  1  0
 32 33  1  6
 32 34  1  0
 34 35  1  6
 35 36  1  0
 36 37  1  0
 37 38  1  6
 37 17  1  0
 37 20  1  0
 34 21  1  0
 32 26  1  0
M  END
>  <MS_ID>  (3248) 
MS3381

>  <SMILES>  (3248) 
C[C@H](CCC(=O)N[C@@H](CCCCN)C(=O)O)[C@H]1CC[C@H]2[C@@H]3[C@@H](O)[C@@H](O)[C@@H]4C[C@H](O)CC[C@]4(C)[C@H]3CC[C@]12C

>  <Structure_dimension>  (3248) 
2D

$$$$
MS3382
     RDKit          2D

 32 35  0  0  0  0  0  0  0  0999 V2000
   -3.1421   -3.6694    0.0000 C   0  0  0  0  0  0  0  0  0  0  0  0
   -2.2628   -2.4541    0.0000 C   0  0  0  0  0  0  0  0  0  0  0  0
   -2.8756   -1.0850    0.0000 C   0  0  0  0  0  0  0  0  0  0  0  0
   -4.3676   -0.9311    0.0000 C   0  0  0  0  0  0  0  0  0  0  0  0
   -4.9804    0.4380    0.0000 C   0  0  0  0  0  0  0  0  0  0  0  0
   -4.1011    1.6532    0.0000 O   0  0  0  0  0  0  0  0  0  0  0  0
   -6.4725    0.5919    0.0000 N   0  0  0  0  0  0  0  0  0  0  0  0
   -7.0853    1.9610    0.0000 C   0  0  0  0  0  0  0  0  0  0  0  0
   -8.5774    2.1149    0.0000 C   0  0  0  0  0  0  0  0  0  0  0  0
   -9.4567    0.8996    0.0000 O   0  0  0  0  0  0  0  0  0  0  0  0
   -9.1901    3.4840    0.0000 O   0  0  0  0  0  0  0  0  0  0  0  0
   -0.7707   -2.6080    0.0000 C   0  0  0  0  0  0  0  0  0  0  0  0
   -0.0182   -3.9056    0.0000 C   0  0  0  0  0  0  0  0  0  0  0  0
    1.4484   -3.5909    0.0000 C   0  0  0  0  0  0  0  0  0  0  0  0
    1.6023   -2.0988    0.0000 C   0  0  0  0  0  0  0  0  0  0  0  0
    2.8141   -1.2147    0.0000 C   0  0  0  0  0  0  0  0  0  0  0  0
    4.1856   -1.8222    0.0000 C   0  0  0  0  0  0  0  0  0  0  0  0
    4.3453   -3.3136    0.0000 O   0  0  0  0  0  0  0  0  0  0  0  0
    5.3974   -0.9381    0.0000 C   0  0  0  0  0  0  0  0  0  0  0  0
    5.2377    0.5533    0.0000 C   0  0  0  0  0  0  0  0  0  0  0  0
    6.4495    1.4374    0.0000 C   0  0  0  0  0  0  0  0  0  0  0  0
    6.2898    2.9289    0.0000 C   0  0  0  0  0  0  0  0  0  0  0  0
    7.5016    3.8129    0.0000 O   0  0  0  0  0  0  0  0  0  0  0  0
    4.9183    3.5363    0.0000 O   0  0  0  0  0  0  0  0  0  0  0  0
    3.7065    2.6522    0.0000 C   0  0  0  0  0  0  0  0  0  0  0  0
    3.8662    1.1608    0.0000 C   0  0  0  0  0  0  0  0  0  0  0  0
    2.4947    1.7682    0.0000 C   0  0  0  0  0  0  0  0  0  0  0  0
    2.6544    0.2767    0.0000 C   0  0  0  0  0  0  0  0  0  0  0  0
    1.2829    0.8842    0.0000 C   0  0  0  0  0  0  0  0  0  0  0  0
    0.0711    0.0001    0.0000 C   0  0  0  0  0  0  0  0  0  0  0  0
    0.2308   -1.4914    0.0000 C   0  0  0  0  0  0  0  0  0  0  0  0
   -1.1967   -1.0306    0.0000 C   0  0  0  0  0  0  0  0  0  0  0  0
  2  1  1  6
  2  3  1  0
  3  4  1  0
  4  5  1  0
  5  6  2  0
  5  7  1  0
  7  8  1  0
  8  9  1  0
  9 10  2  0
  9 11  1  0
  2 12  1  0
 12 13  1  6
 13 14  1  0
 15 14  1  6
 15 16  1  0
 16 17  1  1
 17 18  1  6
 17 19  1  0
 20 19  1  1
 20 21  1  0
 21 22  1  0
 22 23  1  1
 22 24  1  0
 24 25  1  0
 25 26  1  0
 26 27  1  6
 26 28  1  0
 28 29  1  6
 29 30  1  0
 30 31  1  0
 31 32  1  6
 31 12  1  0
 31 15  1  0
 28 16  1  0
 26 20  1  0
M  END
>  <MS_ID>  (3249) 
MS3382

>  <SMILES>  (3249) 
C[C@H](CCC(=O)NCC(=O)O)[C@H]1CC[C@H]2[C@@H]3[C@@H](O)C[C@@H]4C[C@H](O)OC[C@]4(C)[C@H]3CC[C@]12C

>  <Structure_dimension>  (3249) 
2D

$$$$
MS3383
     RDKit          2D

 32 35  0  0  0  0  0  0  0  0999 V2000
   -3.1421   -3.6694    0.0000 C   0  0  0  0  0  0  0  0  0  0  0  0
   -2.2628   -2.4541    0.0000 C   0  0  0  0  0  0  0  0  0  0  0  0
   -2.8756   -1.0850    0.0000 C   0  0  0  0  0  0  0  0  0  0  0  0
   -4.3676   -0.9311    0.0000 C   0  0  0  0  0  0  0  0  0  0  0  0
   -4.9804    0.4380    0.0000 C   0  0  0  0  0  0  0  0  0  0  0  0
   -4.1011    1.6532    0.0000 O   0  0  0  0  0  0  0  0  0  0  0  0
   -6.4725    0.5919    0.0000 N   0  0  0  0  0  0  0  0  0  0  0  0
   -7.0853    1.9610    0.0000 C   0  0  0  0  0  0  0  0  0  0  0  0
   -8.5774    2.1149    0.0000 C   0  0  0  0  0  0  0  0  0  0  0  0
   -9.4567    0.8996    0.0000 O   0  0  0  0  0  0  0  0  0  0  0  0
   -9.1901    3.4840    0.0000 O   0  0  0  0  0  0  0  0  0  0  0  0
   -0.7707   -2.6080    0.0000 C   0  0  0  0  0  0  0  0  0  0  0  0
   -0.0182   -3.9056    0.0000 C   0  0  0  0  0  0  0  0  0  0  0  0
    1.4484   -3.5909    0.0000 C   0  0  0  0  0  0  0  0  0  0  0  0
    1.6023   -2.0988    0.0000 C   0  0  0  0  0  0  0  0  0  0  0  0
    2.8141   -1.2147    0.0000 C   0  0  0  0  0  0  0  0  0  0  0  0
    4.1856   -1.8222    0.0000 C   0  0  0  0  0  0  0  0  0  0  0  0
    4.3453   -3.3136    0.0000 O   0  0  0  0  0  0  0  0  0  0  0  0
    5.3974   -0.9381    0.0000 C   0  0  0  0  0  0  0  0  0  0  0  0
    5.2377    0.5533    0.0000 C   0  0  0  0  0  0  0  0  0  0  0  0
    6.4495    1.4374    0.0000 C   0  0  0  0  0  0  0  0  0  0  0  0
    6.2898    2.9289    0.0000 C   0  0  0  0  0  0  0  0  0  0  0  0
    7.5016    3.8129    0.0000 O   0  0  0  0  0  0  0  0  0  0  0  0
    4.9183    3.5363    0.0000 C   0  0  0  0  0  0  0  0  0  0  0  0
    3.7065    2.6522    0.0000 C   0  0  0  0  0  0  0  0  0  0  0  0
    3.8662    1.1608    0.0000 C   0  0  0  0  0  0  0  0  0  0  0  0
    2.4947    1.7682    0.0000 Cl  0  0  0  0  0  0  0  0  0  0  0  0
    2.6544    0.2767    0.0000 C   0  0  0  0  0  0  0  0  0  0  0  0
    1.2829    0.8842    0.0000 C   0  0  0  0  0  0  0  0  0  0  0  0
    0.0711    0.0001    0.0000 C   0  0  0  0  0  0  0  0  0  0  0  0
    0.2308   -1.4914    0.0000 C   0  0  0  0  0  0  0  0  0  0  0  0
   -1.1967   -1.0306    0.0000 C   0  0  0  0  0  0  0  0  0  0  0  0
  2  1  1  6
  2  3  1  0
  3  4  1  0
  4  5  1  0
  5  6  2  0
  5  7  1  0
  7  8  1  0
  8  9  1  0
  9 10  2  0
  9 11  1  0
  2 12  1  0
 12 13  1  6
 13 14  1  0
 15 14  1  6
 15 16  1  0
 16 17  1  1
 17 18  1  6
 17 19  1  0
 20 19  1  1
 20 21  1  0
 21 22  1  0
 22 23  1  1
 22 24  1  0
 24 25  1  0
 25 26  1  0
 26 27  1  6
 26 28  1  0
 28 29  1  6
 29 30  1  0
 30 31  1  0
 31 32  1  6
 31 12  1  0
 31 15  1  0
 28 16  1  0
 26 20  1  0
M  END
>  <MS_ID>  (3250) 
MS3383

>  <SMILES>  (3250) 
C[C@H](CCC(=O)NCC(=O)O)[C@H]1CC[C@H]2[C@@H]3[C@@H](O)C[C@@H]4C[C@H](O)CC[C@]4(Cl)[C@H]3CC[C@]12C

>  <Structure_dimension>  (3250) 
2D

$$$$
MS3384
     RDKit          2D

 32 35  0  0  0  0  0  0  0  0999 V2000
   -3.1421   -3.6694    0.0000 C   0  0  0  0  0  0  0  0  0  0  0  0
   -2.2628   -2.4541    0.0000 C   0  0  0  0  0  0  0  0  0  0  0  0
   -2.8756   -1.0850    0.0000 C   0  0  0  0  0  0  0  0  0  0  0  0
   -4.3676   -0.9311    0.0000 C   0  0  0  0  0  0  0  0  0  0  0  0
   -4.9804    0.4380    0.0000 C   0  0  0  0  0  0  0  0  0  0  0  0
   -4.1011    1.6532    0.0000 O   0  0  0  0  0  0  0  0  0  0  0  0
   -6.4725    0.5919    0.0000 N   0  0  0  0  0  0  0  0  0  0  0  0
   -7.0853    1.9610    0.0000 C   0  0  0  0  0  0  0  0  0  0  0  0
   -8.5774    2.1149    0.0000 C   0  0  0  0  0  0  0  0  0  0  0  0
   -9.4567    0.8996    0.0000 O   0  0  0  0  0  0  0  0  0  0  0  0
   -9.1901    3.4840    0.0000 O   0  0  0  0  0  0  0  0  0  0  0  0
   -0.7707   -2.6080    0.0000 C   0  0  0  0  0  0  0  0  0  0  0  0
   -0.0182   -3.9056    0.0000 C   0  0  0  0  0  0  0  0  0  0  0  0
    1.4484   -3.5909    0.0000 C   0  0  0  0  0  0  0  0  0  0  0  0
    1.6023   -2.0988    0.0000 C   0  0  0  0  0  0  0  0  0  0  0  0
    2.8141   -1.2147    0.0000 C   0  0  0  0  0  0  0  0  0  0  0  0
    4.1856   -1.8222    0.0000 C   0  0  0  0  0  0  0  0  0  0  0  0
    4.3453   -3.3136    0.0000 O   0  0  0  0  0  0  0  0  0  0  0  0
    5.3974   -0.9381    0.0000 N   0  0  0  0  0  0  0  0  0  0  0  0
    5.2377    0.5533    0.0000 C   0  0  0  0  0  0  0  0  0  0  0  0
    6.4495    1.4374    0.0000 C   0  0  0  0  0  0  0  0  0  0  0  0
    6.2898    2.9289    0.0000 C   0  0  0  0  0  0  0  0  0  0  0  0
    7.5016    3.8129    0.0000 O   0  0  0  0  0  0  0  0  0  0  0  0
    4.9183    3.5363    0.0000 C   0  0  0  0  0  0  0  0  0  0  0  0
    3.7065    2.6522    0.0000 C   0  0  0  0  0  0  0  0  0  0  0  0
    3.8662    1.1608    0.0000 C   0  0  0  0  0  0  0  0  0  0  0  0
    2.4947    1.7682    0.0000 C   0  0  0  0  0  0  0  0  0  0  0  0
    2.6544    0.2767    0.0000 C   0  0  0  0  0  0  0  0  0  0  0  0
    1.2829    0.8842    0.0000 C   0  0  0  0  0  0  0  0  0  0  0  0
    0.0711    0.0001    0.0000 C   0  0  0  0  0  0  0  0  0  0  0  0
    0.2308   -1.4914    0.0000 C   0  0  0  0  0  0  0  0  0  0  0  0
   -1.1967   -1.0306    0.0000 C   0  0  0  0  0  0  0  0  0  0  0  0
  2  1  1  6
  2  3  1  0
  3  4  1  0
  4  5  1  0
  5  6  2  0
  5  7  1  0
  7  8  1  0
  8  9  1  0
  9 10  2  0
  9 11  1  0
  2 12  1  0
 12 13  1  6
 13 14  1  0
 15 14  1  6
 15 16  1  0
 16 17  1  1
 17 18  1  6
 17 19  1  0
 19 20  1  0
 20 21  1  1
 21 22  1  0
 22 23  1  1
 22 24  1  0
 24 25  1  0
 25 26  1  0
 26 27  1  6
 26 28  1  0
 28 29  1  6
 29 30  1  0
 30 31  1  0
 31 32  1  6
 31 12  1  0
 31 15  1  0
 28 16  1  0
 26 20  1  0
M  END
>  <MS_ID>  (3251) 
MS3384

>  <SMILES>  (3251) 
C[C@H](CCC(=O)NCC(=O)O)[C@H]1CC[C@H]2[C@@H]3[C@@H](O)N[C@@H]4C[C@H](O)CC[C@]4(C)[C@H]3CC[C@]12C

>  <Structure_dimension>  (3251) 
2D

$$$$
MS3386
     RDKit          2D

 30 33  0  0  0  0  0  0  0  0999 V2000
   -7.2765    3.6773    0.0000 C   0  0  0  0  0  0  0  0  0  0  0  0
   -6.9340    2.2169    0.0000 C   0  0  0  0  0  0  0  0  0  0  0  0
   -8.0274    1.1901    0.0000 C   0  0  0  0  0  0  0  0  0  0  0  0
   -5.4980    1.7834    0.0000 C   0  0  0  0  0  0  0  0  0  0  0  0
   -5.1555    0.3230    0.0000 C   0  0  0  0  0  0  0  0  0  0  0  0
   -3.7195   -0.1106    0.0000 C   0  0  0  0  0  0  0  0  0  0  0  0
   -3.3770   -1.5710    0.0000 C   0  0  0  0  0  0  0  0  0  0  0  0
   -4.4705   -2.5978    0.0000 C   0  0  0  0  0  0  0  0  0  0  0  0
   -1.9411   -2.0045    0.0000 C   0  0  0  0  0  0  0  0  0  0  0  0
   -1.4478   -3.4211    0.0000 C   0  0  0  0  0  0  0  0  0  0  0  0
    0.0519   -3.3897    0.0000 C   0  0  0  0  0  0  0  0  0  0  0  0
    0.4855   -1.9538    0.0000 C   0  0  0  0  0  0  0  0  0  0  0  0
    1.8427   -1.3151    0.0000 C   0  0  0  0  0  0  0  0  0  0  0  0
    3.0744   -2.1712    0.0000 C   0  0  0  0  0  0  0  0  0  0  0  0
    2.9489   -3.6660    0.0000 O   0  0  0  0  0  0  0  0  0  0  0  0
    4.4317   -1.5326    0.0000 C   0  0  0  0  0  0  0  0  0  0  0  0
    4.5572   -0.0378    0.0000 C   0  0  0  0  0  0  0  0  0  0  0  0
    5.9145    0.6008    0.0000 C   0  0  0  0  0  0  0  0  0  0  0  0
    6.0400    2.0955    0.0000 C   0  0  0  0  0  0  0  0  0  0  0  0
    7.3973    2.7342    0.0000 O   0  0  0  0  0  0  0  0  0  0  0  0
    4.8083    2.9516    0.0000 C   0  0  0  0  0  0  0  0  0  0  0  0
    3.4511    2.3130    0.0000 C   0  0  0  0  0  0  0  0  0  0  0  0
    3.3255    0.8182    0.0000 C   0  0  0  0  0  0  0  0  0  0  0  0
    2.0938    1.6743    0.0000 C   0  0  0  0  0  0  0  0  0  0  0  0
    1.9683    0.1796    0.0000 C   0  0  0  0  0  0  0  0  0  0  0  0
    0.7365    1.0357    0.0000 C   0  0  0  0  0  0  0  0  0  0  0  0
   -0.6207    0.3971    0.0000 C   0  0  0  0  0  0  0  0  0  0  0  0
   -1.8524    1.2532    0.0000 O   0  0  0  0  0  0  0  0  0  0  0  0
   -0.7463   -1.0977    0.0000 C   0  0  0  0  0  0  0  0  0  0  0  0
   -2.0607   -0.3750    0.0000 C   0  0  0  0  0  0  0  0  0  0  0  0
  1  2  1  0
  2  3  1  0
  2  4  1  0
  4  5  1  0
  5  6  1  0
  6  7  1  0
  7  8  1  6
  7  9  1  0
  9 10  1  6
 10 11  1  0
 12 11  1  6
 12 13  1  0
 13 14  1  1
 14 15  1  1
 14 16  1  0
 17 16  1  1
 17 18  1  0
 18 19  1  0
 19 20  1  1
 19 21  1  0
 21 22  1  0
 22 23  1  0
 23 24  1  6
 23 25  1  0
 25 26  1  1
 26 27  1  0
 27 28  1  1
 27 29  1  0
 29 30  1  6
 29  9  1  0
 29 12  1  0
 25 13  1  0
 23 17  1  0
M  END
>  <MS_ID>  (3252) 
MS3386

>  <SMILES>  (3252) 
CC(C)CCC[C@@H](C)[C@H]1CC[C@H]2[C@@H]3[C@H](O)C[C@@H]4C[C@H](O)CC[C@]4(C)[C@@H]3C[C@H](O)[C@]12C

>  <Structure_dimension>  (3252) 
2D

$$$$
MS3387
     RDKit          2D

 32 35  0  0  0  0  0  0  0  0999 V2000
   -6.3148   -1.8053    0.0000 C   0  0  0  0  0  0  0  0  0  0  0  0
   -5.0840   -0.9480    0.0000 C   0  0  0  0  0  0  0  0  0  0  0  0
   -5.2110    0.5466    0.0000 C   0  0  0  0  0  0  0  0  0  0  0  0
   -6.5688    1.1840    0.0000 C   0  0  0  0  0  0  0  0  0  0  0  0
   -6.6958    2.6786    0.0000 C   0  0  0  0  0  0  0  0  0  0  0  0
   -5.4650    3.5359    0.0000 O   0  0  0  0  0  0  0  0  0  0  0  0
   -8.0537    3.3159    0.0000 O   0  0  0  0  0  0  0  0  0  0  0  0
   -3.7261   -1.5853    0.0000 C   0  0  0  0  0  0  0  0  0  0  0  0
   -3.4436   -3.0584    0.0000 C   0  0  0  0  0  0  0  0  0  0  0  0
   -1.9552   -3.2450    0.0000 C   0  0  0  0  0  0  0  0  0  0  0  0
   -1.3179   -1.8871    0.0000 C   0  0  0  0  0  0  0  0  0  0  0  0
    0.1177   -1.4521    0.0000 C   0  0  0  0  0  0  0  0  0  0  0  0
    1.2121   -2.4779    0.0000 C   0  0  0  0  0  0  0  0  0  0  0  0
    0.8711   -3.9386    0.0000 O   0  0  0  0  0  0  0  0  0  0  0  0
    2.6477   -2.0429    0.0000 N   0  0  0  0  0  0  0  0  0  0  0  0
    2.9888   -0.5822    0.0000 C   0  0  0  0  0  0  0  0  0  0  0  0
    4.4243   -0.1472    0.0000 C   0  0  0  0  0  0  0  0  0  0  0  0
    4.7654    1.3135    0.0000 C   0  0  0  0  0  0  0  0  0  0  0  0
    6.2009    1.7485    0.0000 O   0  0  0  0  0  0  0  0  0  0  0  0
    7.2954    0.7227    0.0000 S   0  0  0  0  0  0  0  0  0  0  0  0
    6.2697   -0.3717    0.0000 O   0  0  0  0  0  0  0  0  0  0  0  0
    8.3211    1.8172    0.0000 O   0  0  0  0  0  0  0  0  0  0  0  0
    8.3899   -0.3030    0.0000 O   0  0  0  0  0  0  0  0  0  0  0  0
    3.6709    2.3392    0.0000 C   0  0  0  0  0  0  0  0  0  0  0  0
    2.2354    1.9043    0.0000 C   0  0  0  0  0  0  0  0  0  0  0  0
    1.8943    0.4436    0.0000 C   0  0  0  0  0  0  0  0  0  0  0  0
    0.7998    1.4693    0.0000 C   0  0  0  0  0  0  0  0  0  0  0  0
    0.4587    0.0086    0.0000 C   0  0  0  0  0  0  0  0  0  0  0  0
   -0.6357    1.0343    0.0000 C   0  0  0  0  0  0  0  0  0  0  0  0
   -2.0713    0.5993    0.0000 C   0  0  0  0  0  0  0  0  0  0  0  0
   -2.4123   -0.8614    0.0000 C   0  0  0  0  0  0  0  0  0  0  0  0
   -3.6080    0.0444    0.0000 C   0  0  0  0  0  0  0  0  0  0  0  0
  2  1  1  6
  2  3  1  0
  3  4  1  0
  4  5  1  0
  5  6  2  0
  5  7  1  0
  2  8  1  0
  8  9  1  6
  9 10  1  0
 11 10  1  6
 11 12  1  0
 12 13  1  1
 13 14  1  6
 13 15  1  0
 15 16  1  0
 16 17  1  1
 17 18  1  0
 18 19  1  1
 19 20  1  0
 20 21  2  0
 20 22  2  0
 20 23  1  0
 18 24  1  0
 24 25  1  0
 25 26  1  0
 26 27  1  6
 26 28  1  0
 28 29  1  6
 29 30  1  0
 30 31  1  0
 31 32  1  6
 31  8  1  0
 31 11  1  0
 28 12  1  0
 26 16  1  0
M  END
>  <MS_ID>  (3253) 
MS3387

>  <SMILES>  (3253) 
C[C@H](CCC(=O)O)[C@H]1CC[C@H]2[C@@H]3[C@@H](O)N[C@@H]4C[C@H](OS(=O)(=O)O)CC[C@]4(C)[C@H]3CC[C@]12C

>  <Structure_dimension>  (3253) 
2D

$$$$
MS3388
     RDKit          2D

 26 29  0  0  0  0  0  0  0  0999 V2000
    2.4239   -1.5741    0.0000 C   0  0  0  0  0  0  0  0  0  0  0  0
    3.3149   -0.3674    0.0000 C   0  0  0  0  0  0  0  0  0  0  0  0
    3.9144   -1.7424    0.0000 C   0  0  0  0  0  0  0  0  0  0  0  0
    5.4050   -1.9107    0.0000 C   0  0  0  0  0  0  0  0  0  0  0  0
    6.2960   -0.7041    0.0000 C   0  0  0  0  0  0  0  0  0  0  0  0
    7.7865   -0.8724    0.0000 O   0  0  0  0  0  0  0  0  0  0  0  0
    5.6965    0.6709    0.0000 C   0  0  0  0  0  0  0  0  0  0  0  0
    4.2060    0.8392    0.0000 C   0  0  0  0  0  0  0  0  0  0  0  0
    3.6065    2.2142    0.0000 C   0  0  0  0  0  0  0  0  0  0  0  0
    2.1160    2.3826    0.0000 C   0  0  0  0  0  0  0  0  0  0  0  0
    1.2249    1.1759    0.0000 C   0  0  0  0  0  0  0  0  0  0  0  0
    1.8244   -0.1991    0.0000 C   0  0  0  0  0  0  0  0  0  0  0  0
    0.9334   -1.4058    0.0000 C   0  0  0  0  0  0  0  0  0  0  0  0
   -0.5571   -1.2374    0.0000 C   0  0  0  0  0  0  0  0  0  0  0  0
   -1.1566    0.1376    0.0000 C   0  0  0  0  0  0  0  0  0  0  0  0
   -2.1689   -0.9694    0.0000 C   0  0  0  0  0  0  0  0  0  0  0  0
   -2.5796    0.6121    0.0000 C   0  0  0  0  0  0  0  0  0  0  0  0
   -3.7999   -0.2602    0.0000 C   0  0  0  0  0  0  0  0  0  0  0  0
   -5.1655    0.3605    0.0000 O   0  0  0  0  0  0  0  0  0  0  0  0
   -6.3858   -0.5117    0.0000 C   0  0  0  0  0  0  0  0  0  0  0  0
   -6.2405   -2.0047    0.0000 O   0  0  0  0  0  0  0  0  0  0  0  0
   -7.7513    0.1089    0.0000 C   0  0  0  0  0  0  0  0  0  0  0  0
   -8.9716   -0.7633    0.0000 O   0  0  0  0  0  0  0  0  0  0  0  0
   -2.5680    2.1121    0.0000 C   0  0  0  0  0  0  0  0  0  0  0  0
   -1.1379    2.5645    0.0000 C   0  0  0  0  0  0  0  0  0  0  0  0
   -0.2656    1.3442    0.0000 C   0  0  0  0  0  0  0  0  0  0  0  0
  2  1  1  1
  2  3  1  0
  3  4  1  0
  4  5  1  0
  5  6  2  0
  5  7  1  0
  8  7  1  6
  8  9  1  0
  9 10  1  0
 11 10  1  6
 11 12  1  0
 12 13  1  1
 13 14  1  0
 14 15  1  0
 15 16  1  1
 15 17  1  0
 17 18  1  1
 18 19  1  0
 19 20  1  0
 20 21  2  0
 20 22  1  0
 22 23  1  0
 17 24  1  0
 24 25  1  0
 26 25  1  1
  8  2  1  0
 26 11  1  0
 12  2  1  0
 26 15  1  0
M  END
>  <MS_ID>  (3254) 
MS3388

>  <SMILES>  (3254) 
C[C@]12CCC(=O)C[C@H]1CC[C@@H]1[C@@H]2CC[C@]2(C)[C@@H](COC(=O)CO)CC[C@@H]12

>  <Structure_dimension>  (3254) 
2D

$$$$
MS3389
     RDKit          2D

 32 35  0  0  0  0  0  0  0  0999 V2000
   -3.1421   -3.6694    0.0000 C   0  0  0  0  0  0  0  0  0  0  0  0
   -2.2628   -2.4541    0.0000 C   0  0  0  0  0  0  0  0  0  0  0  0
   -2.8756   -1.0850    0.0000 C   0  0  0  0  0  0  0  0  0  0  0  0
   -4.3676   -0.9311    0.0000 C   0  0  0  0  0  0  0  0  0  0  0  0
   -4.9804    0.4380    0.0000 C   0  0  0  0  0  0  0  0  0  0  0  0
   -4.1011    1.6532    0.0000 O   0  0  0  0  0  0  0  0  0  0  0  0
   -6.4725    0.5919    0.0000 N   0  0  0  0  0  0  0  0  0  0  0  0
   -7.0853    1.9610    0.0000 C   0  0  0  0  0  0  0  0  0  0  0  0
   -8.5774    2.1149    0.0000 C   0  0  0  0  0  0  0  0  0  0  0  0
   -9.4567    0.8996    0.0000 O   0  0  0  0  0  0  0  0  0  0  0  0
   -9.1901    3.4840    0.0000 O   0  0  0  0  0  0  0  0  0  0  0  0
   -0.7707   -2.6080    0.0000 C   0  0  0  0  0  0  0  0  0  0  0  0
   -0.0182   -3.9056    0.0000 C   0  0  0  0  0  0  0  0  0  0  0  0
    1.4484   -3.5909    0.0000 C   0  0  0  0  0  0  0  0  0  0  0  0
    1.6023   -2.0988    0.0000 C   0  0  0  0  0  0  0  0  0  0  0  0
    2.8141   -1.2147    0.0000 C   0  0  0  0  0  0  0  0  0  0  0  0
    4.1856   -1.8222    0.0000 C   0  0  0  0  0  0  0  0  0  0  0  0
    4.3453   -3.3136    0.0000 O   0  0  0  0  0  0  0  0  0  0  0  0
    5.3974   -0.9381    0.0000 C   0  0  0  0  0  0  0  0  0  0  0  0
    5.2377    0.5533    0.0000 C   0  0  0  0  0  0  0  0  0  0  0  0
    6.4495    1.4374    0.0000 C   0  0  0  0  0  0  0  0  0  0  0  0
    6.2898    2.9289    0.0000 C   0  0  0  0  0  0  0  0  0  0  0  0
    7.5016    3.8129    0.0000 O   0  0  0  0  0  0  0  0  0  0  0  0
    4.9183    3.5363    0.0000 C   0  0  0  0  0  0  0  0  0  0  0  0
    3.7065    2.6522    0.0000 C   0  0  0  0  0  0  0  0  0  0  0  0
    3.8662    1.1608    0.0000 C   0  0  0  0  0  0  0  0  0  0  0  0
    2.4947    1.7682    0.0000 C   0  0  0  0  0  0  0  0  0  0  0  0
    2.6544    0.2767    0.0000 C   0  0  0  0  0  0  0  0  0  0  0  0
    1.2829    0.8842    0.0000 C   0  0  0  0  0  0  0  0  0  0  0  0
    0.0711    0.0001    0.0000 C   0  0  0  0  0  0  0  0  0  0  0  0
    0.2308   -1.4914    0.0000 C   0  0  0  0  0  0  0  0  0  0  0  0
   -1.1967   -1.0306    0.0000 O   0  0  0  0  0  0  0  0  0  0  0  0
  2  1  1  6
  2  3  1  0
  3  4  1  0
  4  5  1  0
  5  6  2  0
  5  7  1  0
  7  8  1  0
  8  9  1  0
  9 10  2  0
  9 11  1  0
  2 12  1  0
 12 13  1  6
 13 14  1  0
 15 14  1  6
 15 16  1  0
 16 17  1  1
 17 18  1  6
 17 19  1  0
 20 19  1  1
 20 21  1  0
 21 22  1  0
 22 23  1  1
 22 24  1  0
 24 25  1  0
 25 26  1  0
 26 27  1  6
 26 28  1  0
 28 29  1  6
 29 30  1  0
 30 31  1  0
 31 32  1  6
 31 12  1  0
 31 15  1  0
 28 16  1  0
 26 20  1  0
M  END
>  <MS_ID>  (3255) 
MS3389

>  <SMILES>  (3255) 
C[C@H](CCC(=O)NCC(=O)O)[C@H]1CC[C@H]2[C@@H]3[C@@H](O)C[C@@H]4C[C@H](O)CC[C@]4(C)[C@H]3CC[C@]12O

>  <Structure_dimension>  (3255) 
2D

$$$$
MS3390
     RDKit          2D

 32 35  0  0  0  0  0  0  0  0999 V2000
   -3.1421   -3.6694    0.0000 C   0  0  0  0  0  0  0  0  0  0  0  0
   -2.2628   -2.4541    0.0000 C   0  0  0  0  0  0  0  0  0  0  0  0
   -2.8756   -1.0850    0.0000 C   0  0  0  0  0  0  0  0  0  0  0  0
   -4.3676   -0.9311    0.0000 C   0  0  0  0  0  0  0  0  0  0  0  0
   -4.9804    0.4380    0.0000 C   0  0  0  0  0  0  0  0  0  0  0  0
   -4.1011    1.6532    0.0000 O   0  0  0  0  0  0  0  0  0  0  0  0
   -6.4725    0.5919    0.0000 N   0  0  0  0  0  0  0  0  0  0  0  0
   -7.0853    1.9610    0.0000 C   0  0  0  0  0  0  0  0  0  0  0  0
   -8.5774    2.1149    0.0000 C   0  0  0  0  0  0  0  0  0  0  0  0
   -9.4567    0.8996    0.0000 O   0  0  0  0  0  0  0  0  0  0  0  0
   -9.1901    3.4840    0.0000 O   0  0  0  0  0  0  0  0  0  0  0  0
   -0.7707   -2.6080    0.0000 C   0  0  0  0  0  0  0  0  0  0  0  0
   -0.0182   -3.9056    0.0000 C   0  0  0  0  0  0  0  0  0  0  0  0
    1.4484   -3.5909    0.0000 C   0  0  0  0  0  0  0  0  0  0  0  0
    1.6023   -2.0988    0.0000 C   0  0  0  0  0  0  0  0  0  0  0  0
    2.8141   -1.2147    0.0000 C   0  0  0  0  0  0  0  0  0  0  0  0
    4.1856   -1.8222    0.0000 C   0  0  0  0  0  0  0  0  0  0  0  0
    4.3453   -3.3136    0.0000 O   0  0  0  0  0  0  0  0  0  0  0  0
    5.3974   -0.9381    0.0000 C   0  0  0  0  0  0  0  0  0  0  0  0
    5.2377    0.5533    0.0000 C   0  0  0  0  0  0  0  0  0  0  0  0
    6.4495    1.4374    0.0000 C   0  0  0  0  0  0  0  0  0  0  0  0
    6.2898    2.9289    0.0000 C   0  0  0  0  0  0  0  0  0  0  0  0
    7.5016    3.8129    0.0000 O   0  0  0  0  0  0  0  0  0  0  0  0
    4.9183    3.5363    0.0000 C   0  0  0  0  0  0  0  0  0  0  0  0
    3.7065    2.6522    0.0000 C   0  0  0  0  0  0  0  0  0  0  0  0
    3.8662    1.1608    0.0000 C   0  0  0  0  0  0  0  0  0  0  0  0
    2.4947    1.7682    0.0000 C   0  0  0  0  0  0  0  0  0  0  0  0
    2.6544    0.2767    0.0000 C   0  0  0  0  0  0  0  0  0  0  0  0
    1.2829    0.8842    0.0000 C   0  0  0  0  0  0  0  0  0  0  0  0
    0.0711    0.0001    0.0000 C   0  0  0  0  0  0  0  0  0  0  0  0
    0.2308   -1.4914    0.0000 C   0  0  0  0  0  0  0  0  0  0  0  0
   -1.1967   -1.0306    0.0000 F   0  0  0  0  0  0  0  0  0  0  0  0
  2  1  1  6
  2  3  1  0
  3  4  1  0
  4  5  1  0
  5  6  2  0
  5  7  1  0
  7  8  1  0
  8  9  1  0
  9 10  2  0
  9 11  1  0
  2 12  1  0
 12 13  1  6
 13 14  1  0
 15 14  1  6
 15 16  1  0
 16 17  1  1
 17 18  1  6
 17 19  1  0
 20 19  1  1
 20 21  1  0
 21 22  1  0
 22 23  1  1
 22 24  1  0
 24 25  1  0
 25 26  1  0
 26 27  1  6
 26 28  1  0
 28 29  1  6
 29 30  1  0
 30 31  1  0
 31 32  1  6
 31 12  1  0
 31 15  1  0
 28 16  1  0
 26 20  1  0
M  END
>  <MS_ID>  (3256) 
MS3390

>  <SMILES>  (3256) 
C[C@H](CCC(=O)NCC(=O)O)[C@H]1CC[C@H]2[C@@H]3[C@@H](O)C[C@@H]4C[C@H](O)CC[C@]4(C)[C@H]3CC[C@]12F

>  <Structure_dimension>  (3256) 
2D

$$$$
MS3391
     RDKit          2D

 32 35  0  0  0  0  0  0  0  0999 V2000
   -3.1421   -3.6694    0.0000 C   0  0  0  0  0  0  0  0  0  0  0  0
   -2.2628   -2.4541    0.0000 C   0  0  0  0  0  0  0  0  0  0  0  0
   -2.8756   -1.0850    0.0000 C   0  0  0  0  0  0  0  0  0  0  0  0
   -4.3676   -0.9311    0.0000 C   0  0  0  0  0  0  0  0  0  0  0  0
   -4.9804    0.4380    0.0000 C   0  0  0  0  0  0  0  0  0  0  0  0
   -4.1011    1.6532    0.0000 O   0  0  0  0  0  0  0  0  0  0  0  0
   -6.4725    0.5919    0.0000 N   0  0  0  0  0  0  0  0  0  0  0  0
   -7.0853    1.9610    0.0000 C   0  0  0  0  0  0  0  0  0  0  0  0
   -8.5774    2.1149    0.0000 C   0  0  0  0  0  0  0  0  0  0  0  0
   -9.4567    0.8996    0.0000 O   0  0  0  0  0  0  0  0  0  0  0  0
   -9.1901    3.4840    0.0000 O   0  0  0  0  0  0  0  0  0  0  0  0
   -0.7707   -2.6080    0.0000 C   0  0  0  0  0  0  0  0  0  0  0  0
   -0.0182   -3.9056    0.0000 C   0  0  0  0  0  0  0  0  0  0  0  0
    1.4484   -3.5909    0.0000 C   0  0  0  0  0  0  0  0  0  0  0  0
    1.6023   -2.0988    0.0000 C   0  0  0  0  0  0  0  0  0  0  0  0
    2.8141   -1.2147    0.0000 C   0  0  0  0  0  0  0  0  0  0  0  0
    4.1856   -1.8222    0.0000 C   0  0  0  0  0  0  0  0  0  0  0  0
    4.3453   -3.3136    0.0000 O   0  0  0  0  0  0  0  0  0  0  0  0
    5.3974   -0.9381    0.0000 C   0  0  0  0  0  0  0  0  0  0  0  0
    5.2377    0.5533    0.0000 C   0  0  0  0  0  0  0  0  0  0  0  0
    6.4495    1.4374    0.0000 C   0  0  0  0  0  0  0  0  0  0  0  0
    6.2898    2.9289    0.0000 C   0  0  0  0  0  0  0  0  0  0  0  0
    7.5016    3.8129    0.0000 O   0  0  0  0  0  0  0  0  0  0  0  0
    4.9183    3.5363    0.0000 C   0  0  0  0  0  0  0  0  0  0  0  0
    3.7065    2.6522    0.0000 C   0  0  0  0  0  0  0  0  0  0  0  0
    3.8662    1.1608    0.0000 C   0  0  0  0  0  0  0  0  0  0  0  0
    2.4947    1.7682    0.0000 C   0  0  0  0  0  0  0  0  0  0  0  0
    2.6544    0.2767    0.0000 C   0  0  0  0  0  0  0  0  0  0  0  0
    1.2829    0.8842    0.0000 C   0  0  0  0  0  0  0  0  0  0  0  0
    0.0711    0.0001    0.0000 C   0  0  0  0  0  0  0  0  0  0  0  0
    0.2308   -1.4914    0.0000 C   0  0  0  0  0  0  0  0  0  0  0  0
   -1.1967   -1.0306    0.0000 N   0  0  0  0  0  0  0  0  0  0  0  0
  2  1  1  6
  2  3  1  0
  3  4  1  0
  4  5  1  0
  5  6  2  0
  5  7  1  0
  7  8  1  0
  8  9  1  0
  9 10  2  0
  9 11  1  0
  2 12  1  0
 12 13  1  6
 13 14  1  0
 15 14  1  6
 15 16  1  0
 16 17  1  1
 17 18  1  6
 17 19  1  0
 20 19  1  1
 20 21  1  0
 21 22  1  0
 22 23  1  1
 22 24  1  0
 24 25  1  0
 25 26  1  0
 26 27  1  6
 26 28  1  0
 28 29  1  6
 29 30  1  0
 30 31  1  0
 31 32  1  6
 31 12  1  0
 31 15  1  0
 28 16  1  0
 26 20  1  0
M  END
>  <MS_ID>  (3257) 
MS3391

>  <SMILES>  (3257) 
C[C@H](CCC(=O)NCC(=O)O)[C@H]1CC[C@H]2[C@@H]3[C@@H](O)C[C@@H]4C[C@H](O)CC[C@]4(C)[C@H]3CC[C@]12N

>  <Structure_dimension>  (3257) 
2D

$$$$
MS3392
     RDKit          2D

 32 35  0  0  0  0  0  0  0  0999 V2000
   -3.1421   -3.6694    0.0000 C   0  0  0  0  0  0  0  0  0  0  0  0
   -2.2628   -2.4541    0.0000 C   0  0  0  0  0  0  0  0  0  0  0  0
   -2.8756   -1.0850    0.0000 C   0  0  0  0  0  0  0  0  0  0  0  0
   -4.3676   -0.9311    0.0000 C   0  0  0  0  0  0  0  0  0  0  0  0
   -4.9804    0.4380    0.0000 C   0  0  0  0  0  0  0  0  0  0  0  0
   -4.1011    1.6532    0.0000 O   0  0  0  0  0  0  0  0  0  0  0  0
   -6.4725    0.5919    0.0000 N   0  0  0  0  0  0  0  0  0  0  0  0
   -7.0853    1.9610    0.0000 C   0  0  0  0  0  0  0  0  0  0  0  0
   -8.5774    2.1149    0.0000 C   0  0  0  0  0  0  0  0  0  0  0  0
   -9.4567    0.8996    0.0000 O   0  0  0  0  0  0  0  0  0  0  0  0
   -9.1901    3.4840    0.0000 O   0  0  0  0  0  0  0  0  0  0  0  0
   -0.7707   -2.6080    0.0000 C   0  0  0  0  0  0  0  0  0  0  0  0
   -0.0182   -3.9056    0.0000 C   0  0  0  0  0  0  0  0  0  0  0  0
    1.4484   -3.5909    0.0000 C   0  0  0  0  0  0  0  0  0  0  0  0
    1.6023   -2.0988    0.0000 C   0  0  0  0  0  0  0  0  0  0  0  0
    2.8141   -1.2147    0.0000 C   0  0  0  0  0  0  0  0  0  0  0  0
    4.1856   -1.8222    0.0000 C   0  0  0  0  0  0  0  0  0  0  0  0
    4.3453   -3.3136    0.0000 O   0  0  0  0  0  0  0  0  0  0  0  0
    5.3974   -0.9381    0.0000 C   0  0  0  0  0  0  0  0  0  0  0  0
    5.2377    0.5533    0.0000 C   0  0  0  0  0  0  0  0  0  0  0  0
    6.4495    1.4374    0.0000 C   0  0  0  0  0  0  0  0  0  0  0  0
    6.2898    2.9289    0.0000 C   0  0  0  0  0  0  0  0  0  0  0  0
    7.5016    3.8129    0.0000 O   0  0  0  0  0  0  0  0  0  0  0  0
    4.9183    3.5363    0.0000 C   0  0  0  0  0  0  0  0  0  0  0  0
    3.7065    2.6522    0.0000 C   0  0  0  0  0  0  0  0  0  0  0  0
    3.8662    1.1608    0.0000 C   0  0  0  0  0  0  0  0  0  0  0  0
    2.4947    1.7682    0.0000 C   0  0  0  0  0  0  0  0  0  0  0  0
    2.6544    0.2767    0.0000 C   0  0  0  0  0  0  0  0  0  0  0  0
    1.2829    0.8842    0.0000 C   0  0  0  0  0  0  0  0  0  0  0  0
    0.0711    0.0001    0.0000 C   0  0  0  0  0  0  0  0  0  0  0  0
    0.2308   -1.4914    0.0000 C   0  0  0  0  0  0  0  0  0  0  0  0
   -1.1967   -1.0306    0.0000 Br  0  0  0  0  0  0  0  0  0  0  0  0
  2  1  1  6
  2  3  1  0
  3  4  1  0
  4  5  1  0
  5  6  2  0
  5  7  1  0
  7  8  1  0
  8  9  1  0
  9 10  2  0
  9 11  1  0
  2 12  1  0
 12 13  1  6
 13 14  1  0
 15 14  1  6
 15 16  1  0
 16 17  1  1
 17 18  1  6
 17 19  1  0
 20 19  1  1
 20 21  1  0
 21 22  1  0
 22 23  1  1
 22 24  1  0
 24 25  1  0
 25 26  1  0
 26 27  1  6
 26 28  1  0
 28 29  1  6
 29 30  1  0
 30 31  1  0
 31 32  1  6
 31 12  1  0
 31 15  1  0
 28 16  1  0
 26 20  1  0
M  END
>  <MS_ID>  (3258) 
MS3392

>  <SMILES>  (3258) 
C[C@H](CCC(=O)NCC(=O)O)[C@H]1CC[C@H]2[C@@H]3[C@@H](O)C[C@@H]4C[C@H](O)CC[C@]4(C)[C@H]3CC[C@]12Br

>  <Structure_dimension>  (3258) 
2D

$$$$
MS3393
     RDKit          2D

 32 35  0  0  0  0  0  0  0  0999 V2000
   -3.1421   -3.6694    0.0000 C   0  0  0  0  0  0  0  0  0  0  0  0
   -2.2628   -2.4541    0.0000 C   0  0  0  0  0  0  0  0  0  0  0  0
   -2.8756   -1.0850    0.0000 C   0  0  0  0  0  0  0  0  0  0  0  0
   -4.3676   -0.9311    0.0000 C   0  0  0  0  0  0  0  0  0  0  0  0
   -4.9804    0.4380    0.0000 C   0  0  0  0  0  0  0  0  0  0  0  0
   -4.1011    1.6532    0.0000 O   0  0  0  0  0  0  0  0  0  0  0  0
   -6.4725    0.5919    0.0000 N   0  0  0  0  0  0  0  0  0  0  0  0
   -7.0853    1.9610    0.0000 C   0  0  0  0  0  0  0  0  0  0  0  0
   -8.5774    2.1149    0.0000 C   0  0  0  0  0  0  0  0  0  0  0  0
   -9.4567    0.8996    0.0000 O   0  0  0  0  0  0  0  0  0  0  0  0
   -9.1901    3.4840    0.0000 O   0  0  0  0  0  0  0  0  0  0  0  0
   -0.7707   -2.6080    0.0000 C   0  0  0  0  0  0  0  0  0  0  0  0
   -0.0182   -3.9056    0.0000 C   0  0  0  0  0  0  0  0  0  0  0  0
    1.4484   -3.5909    0.0000 C   0  0  0  0  0  0  0  0  0  0  0  0
    1.6023   -2.0988    0.0000 C   0  0  0  0  0  0  0  0  0  0  0  0
    2.8141   -1.2147    0.0000 C   0  0  0  0  0  0  0  0  0  0  0  0
    4.1856   -1.8222    0.0000 C   0  0  0  0  0  0  0  0  0  0  0  0
    4.3453   -3.3136    0.0000 O   0  0  0  0  0  0  0  0  0  0  0  0
    5.3974   -0.9381    0.0000 C   0  0  0  0  0  0  0  0  0  0  0  0
    5.2377    0.5533    0.0000 C   0  0  0  0  0  0  0  0  0  0  0  0
    6.4495    1.4374    0.0000 C   0  0  0  0  0  0  0  0  0  0  0  0
    6.2898    2.9289    0.0000 C   0  0  0  0  0  0  0  0  0  0  0  0
    7.5016    3.8129    0.0000 O   0  0  0  0  0  0  0  0  0  0  0  0
    4.9183    3.5363    0.0000 C   0  0  0  0  0  0  0  0  0  0  0  0
    3.7065    2.6522    0.0000 C   0  0  0  0  0  0  0  0  0  0  0  0
    3.8662    1.1608    0.0000 C   0  0  0  0  0  0  0  0  0  0  0  0
    2.4947    1.7682    0.0000 C   0  0  0  0  0  0  0  0  0  0  0  0
    2.6544    0.2767    0.0000 C   0  0  0  0  0  0  0  0  0  0  0  0
    1.2829    0.8842    0.0000 C   0  0  0  0  0  0  0  0  0  0  0  0
    0.0711    0.0001    0.0000 C   0  0  0  0  0  0  0  0  0  0  0  0
    0.2308   -1.4914    0.0000 C   0  0  0  0  0  0  0  0  0  0  0  0
   -1.1967   -1.0306    0.0000 Cl  0  0  0  0  0  0  0  0  0  0  0  0
  2  1  1  6
  2  3  1  0
  3  4  1  0
  4  5  1  0
  5  6  2  0
  5  7  1  0
  7  8  1  0
  8  9  1  0
  9 10  2  0
  9 11  1  0
  2 12  1  0
 12 13  1  6
 13 14  1  0
 15 14  1  6
 15 16  1  0
 16 17  1  1
 17 18  1  6
 17 19  1  0
 20 19  1  1
 20 21  1  0
 21 22  1  0
 22 23  1  1
 22 24  1  0
 24 25  1  0
 25 26  1  0
 26 27  1  6
 26 28  1  0
 28 29  1  6
 29 30  1  0
 30 31  1  0
 31 32  1  6
 31 12  1  0
 31 15  1  0
 28 16  1  0
 26 20  1  0
M  END
>  <MS_ID>  (3259) 
MS3393

>  <SMILES>  (3259) 
C[C@H](CCC(=O)NCC(=O)O)[C@H]1CC[C@H]2[C@@H]3[C@@H](O)C[C@@H]4C[C@H](O)CC[C@]4(C)[C@H]3CC[C@]12Cl

>  <Structure_dimension>  (3259) 
2D

$$$$
MS3394
     RDKit          2D

 32 35  0  0  0  0  0  0  0  0999 V2000
   -3.1421   -3.6694    0.0000 C   0  0  0  0  0  0  0  0  0  0  0  0
   -2.2628   -2.4541    0.0000 C   0  0  0  0  0  0  0  0  0  0  0  0
   -2.8756   -1.0850    0.0000 C   0  0  0  0  0  0  0  0  0  0  0  0
   -4.3676   -0.9311    0.0000 C   0  0  0  0  0  0  0  0  0  0  0  0
   -4.9804    0.4380    0.0000 C   0  0  0  0  0  0  0  0  0  0  0  0
   -4.1011    1.6532    0.0000 O   0  0  0  0  0  0  0  0  0  0  0  0
   -6.4725    0.5919    0.0000 N   0  0  0  0  0  0  0  0  0  0  0  0
   -7.0853    1.9610    0.0000 C   0  0  0  0  0  0  0  0  0  0  0  0
   -8.5774    2.1149    0.0000 C   0  0  0  0  0  0  0  0  0  0  0  0
   -9.4567    0.8996    0.0000 O   0  0  0  0  0  0  0  0  0  0  0  0
   -9.1901    3.4840    0.0000 O   0  0  0  0  0  0  0  0  0  0  0  0
   -0.7707   -2.6080    0.0000 C   0  0  0  0  0  0  0  0  0  0  0  0
   -0.0182   -3.9056    0.0000 C   0  0  0  0  0  0  0  0  0  0  0  0
    1.4484   -3.5909    0.0000 C   0  0  0  0  0  0  0  0  0  0  0  0
    1.6023   -2.0988    0.0000 C   0  0  0  0  0  0  0  0  0  0  0  0
    2.8141   -1.2147    0.0000 C   0  0  0  0  0  0  0  0  0  0  0  0
    4.1856   -1.8222    0.0000 C   0  0  0  0  0  0  0  0  0  0  0  0
    4.3453   -3.3136    0.0000 O   0  0  0  0  0  0  0  0  0  0  0  0
    5.3974   -0.9381    0.0000 C   0  0  0  0  0  0  0  0  0  0  0  0
    5.2377    0.5533    0.0000 C   0  0  0  0  0  0  0  0  0  0  0  0
    6.4495    1.4374    0.0000 C   0  0  0  0  0  0  0  0  0  0  0  0
    6.2898    2.9289    0.0000 C   0  0  0  0  0  0  0  0  0  0  0  0
    7.5016    3.8129    0.0000 O   0  0  0  0  0  0  0  0  0  0  0  0
    4.9183    3.5363    0.0000 C   0  0  0  0  0  0  0  0  0  0  0  0
    3.7065    2.6522    0.0000 C   0  0  0  0  0  0  0  0  0  0  0  0
    3.8662    1.1608    0.0000 C   0  0  0  0  0  0  0  0  0  0  0  0
    2.4947    1.7682    0.0000 F   0  0  0  0  0  0  0  0  0  0  0  0
    2.6544    0.2767    0.0000 C   0  0  0  0  0  0  0  0  0  0  0  0
    1.2829    0.8842    0.0000 C   0  0  0  0  0  0  0  0  0  0  0  0
    0.0711    0.0001    0.0000 C   0  0  0  0  0  0  0  0  0  0  0  0
    0.2308   -1.4914    0.0000 C   0  0  0  0  0  0  0  0  0  0  0  0
   -1.1967   -1.0306    0.0000 C   0  0  0  0  0  0  0  0  0  0  0  0
  2  1  1  6
  2  3  1  0
  3  4  1  0
  4  5  1  0
  5  6  2  0
  5  7  1  0
  7  8  1  0
  8  9  1  0
  9 10  2  0
  9 11  1  0
  2 12  1  0
 12 13  1  6
 13 14  1  0
 15 14  1  6
 15 16  1  0
 16 17  1  1
 17 18  1  6
 17 19  1  0
 20 19  1  1
 20 21  1  0
 21 22  1  0
 22 23  1  1
 22 24  1  0
 24 25  1  0
 25 26  1  0
 26 27  1  6
 26 28  1  0
 28 29  1  6
 29 30  1  0
 30 31  1  0
 31 32  1  6
 31 12  1  0
 31 15  1  0
 28 16  1  0
 26 20  1  0
M  END
>  <MS_ID>  (3260) 
MS3394

>  <SMILES>  (3260) 
C[C@H](CCC(=O)NCC(=O)O)[C@H]1CC[C@H]2[C@@H]3[C@@H](O)C[C@@H]4C[C@H](O)CC[C@]4(F)[C@H]3CC[C@]12C

>  <Structure_dimension>  (3260) 
2D

$$$$
MS3395
     RDKit          2D

 33 36  0  0  0  0  0  0  0  0999 V2000
   -9.7286    0.2651    0.0000 C   0  0  0  0  0  0  0  0  0  0  0  0
   -8.6643    1.3222    0.0000 O   0  0  0  0  0  0  0  0  0  0  0  0
   -7.2168    0.9290    0.0000 C   0  0  0  0  0  0  0  0  0  0  0  0
   -6.8335   -0.5212    0.0000 O   0  0  0  0  0  0  0  0  0  0  0  0
   -6.1525    1.9861    0.0000 C   0  0  0  0  0  0  0  0  0  0  0  0
   -6.5358    3.4363    0.0000 C   0  0  0  0  0  0  0  0  0  0  0  0
   -4.7050    1.5930    0.0000 C   0  0  0  0  0  0  0  0  0  0  0  0
   -4.3217    0.1428    0.0000 C   0  0  0  0  0  0  0  0  0  0  0  0
   -2.8741   -0.2504    0.0000 C   0  0  0  0  0  0  0  0  0  0  0  0
   -2.4908   -1.7006    0.0000 C   0  0  0  0  0  0  0  0  0  0  0  0
   -3.5550   -2.7576    0.0000 C   0  0  0  0  0  0  0  0  0  0  0  0
   -1.0432   -2.0937    0.0000 C   0  0  0  0  0  0  0  0  0  0  0  0
   -0.5104   -3.4959    0.0000 C   0  0  0  0  0  0  0  0  0  0  0  0
    0.9878   -3.4225    0.0000 C   0  0  0  0  0  0  0  0  0  0  0  0
    1.3809   -1.9749    0.0000 C   0  0  0  0  0  0  0  0  0  0  0  0
    2.7197   -1.2985    0.0000 C   0  0  0  0  0  0  0  0  0  0  0  0
    3.9750   -2.1197    0.0000 C   0  0  0  0  0  0  0  0  0  0  0  0
    3.8914   -3.6174    0.0000 O   0  0  0  0  0  0  0  0  0  0  0  0
    5.3138   -1.4433    0.0000 C   0  0  0  0  0  0  0  0  0  0  0  0
    5.3974    0.0544    0.0000 C   0  0  0  0  0  0  0  0  0  0  0  0
    6.7362    0.7309    0.0000 C   0  0  0  0  0  0  0  0  0  0  0  0
    6.8198    2.2285    0.0000 C   0  0  0  0  0  0  0  0  0  0  0  0
    8.1586    2.9050    0.0000 O   0  0  0  0  0  0  0  0  0  0  0  0
    5.5645    3.0497    0.0000 C   0  0  0  0  0  0  0  0  0  0  0  0
    4.2257    2.3733    0.0000 C   0  0  0  0  0  0  0  0  0  0  0  0
    4.1421    0.8756    0.0000 C   0  0  0  0  0  0  0  0  0  0  0  0
    2.8869    1.6969    0.0000 C   0  0  0  0  0  0  0  0  0  0  0  0
    2.8033    0.1992    0.0000 C   0  0  0  0  0  0  0  0  0  0  0  0
    1.5481    1.0204    0.0000 C   0  0  0  0  0  0  0  0  0  0  0  0
    0.2093    0.3440    0.0000 C   0  0  0  0  0  0  0  0  0  0  0  0
   -1.0459    1.1652    0.0000 O   0  0  0  0  0  0  0  0  0  0  0  0
    0.1257   -1.1537    0.0000 C   0  0  0  0  0  0  0  0  0  0  0  0
   -1.2085   -0.4682    0.0000 C   0  0  0  0  0  0  0  0  0  0  0  0
  1  2  1  0
  2  3  1  0
  3  4  2  0
  3  5  1  0
  5  6  1  6
  5  7  1  0
  7  8  1  0
  8  9  1  0
  9 10  1  0
 10 11  1  6
 10 12  1  0
 12 13  1  6
 13 14  1  0
 15 14  1  6
 15 16  1  0
 16 17  1  1
 17 18  1  1
 17 19  1  0
 20 19  1  1
 20 21  1  0
 21 22  1  0
 22 23  1  1
 22 24  1  0
 24 25  1  0
 25 26  1  0
 26 27  1  6
 26 28  1  0
 28 29  1  6
 29 30  1  0
 30 31  1  1
 30 32  1  0
 32 33  1  6
 32 12  1  0
 32 15  1  0
 28 16  1  0
 26 20  1  0
M  END
>  <MS_ID>  (3261) 
MS3395

>  <SMILES>  (3261) 
COC(=O)[C@H](C)CCC[C@@H](C)[C@H]1CC[C@H]2[C@@H]3[C@H](O)C[C@@H]4C[C@H](O)CC[C@]4(C)[C@H]3C[C@H](O)[C@]12C

>  <Structure_dimension>  (3261) 
2D

$$$$
MS3396
     RDKit          2D

 32 35  0  0  0  0  0  0  0  0999 V2000
   -3.1421   -3.6694    0.0000 C   0  0  0  0  0  0  0  0  0  0  0  0
   -2.2628   -2.4541    0.0000 C   0  0  0  0  0  0  0  0  0  0  0  0
   -2.8756   -1.0850    0.0000 C   0  0  0  0  0  0  0  0  0  0  0  0
   -4.3676   -0.9311    0.0000 C   0  0  0  0  0  0  0  0  0  0  0  0
   -4.9804    0.4380    0.0000 C   0  0  0  0  0  0  0  0  0  0  0  0
   -4.1011    1.6532    0.0000 O   0  0  0  0  0  0  0  0  0  0  0  0
   -6.4725    0.5919    0.0000 N   0  0  0  0  0  0  0  0  0  0  0  0
   -7.0853    1.9610    0.0000 C   0  0  0  0  0  0  0  0  0  0  0  0
   -8.5774    2.1149    0.0000 C   0  0  0  0  0  0  0  0  0  0  0  0
   -9.4567    0.8996    0.0000 O   0  0  0  0  0  0  0  0  0  0  0  0
   -9.1901    3.4840    0.0000 O   0  0  0  0  0  0  0  0  0  0  0  0
   -0.7707   -2.6080    0.0000 C   0  0  0  0  0  0  0  0  0  0  0  0
   -0.0182   -3.9056    0.0000 C   0  0  0  0  0  0  0  0  0  0  0  0
    1.4484   -3.5909    0.0000 C   0  0  0  0  0  0  0  0  0  0  0  0
    1.6023   -2.0988    0.0000 C   0  0  0  0  0  0  0  0  0  0  0  0
    2.8141   -1.2147    0.0000 C   0  0  0  0  0  0  0  0  0  0  0  0
    4.1856   -1.8222    0.0000 C   0  0  0  0  0  0  0  0  0  0  0  0
    4.3453   -3.3136    0.0000 O   0  0  0  0  0  0  0  0  0  0  0  0
    5.3974   -0.9381    0.0000 C   0  0  0  0  0  0  0  0  0  0  0  0
    5.2377    0.5533    0.0000 C   0  0  0  0  0  0  0  0  0  0  0  0
    6.4495    1.4374    0.0000 C   0  0  0  0  0  0  0  0  0  0  0  0
    6.2898    2.9289    0.0000 C   0  0  0  0  0  0  0  0  0  0  0  0
    7.5016    3.8129    0.0000 O   0  0  0  0  0  0  0  0  0  0  0  0
    4.9183    3.5363    0.0000 C   0  0  0  0  0  0  0  0  0  0  0  0
    3.7065    2.6522    0.0000 C   0  0  0  0  0  0  0  0  0  0  0  0
    3.8662    1.1608    0.0000 C   0  0  0  0  0  0  0  0  0  0  0  0
    2.4947    1.7682    0.0000 N   0  0  0  0  0  0  0  0  0  0  0  0
    2.6544    0.2767    0.0000 C   0  0  0  0  0  0  0  0  0  0  0  0
    1.2829    0.8842    0.0000 C   0  0  0  0  0  0  0  0  0  0  0  0
    0.0711    0.0001    0.0000 C   0  0  0  0  0  0  0  0  0  0  0  0
    0.2308   -1.4914    0.0000 C   0  0  0  0  0  0  0  0  0  0  0  0
   -1.1967   -1.0306    0.0000 C   0  0  0  0  0  0  0  0  0  0  0  0
  2  1  1  6
  2  3  1  0
  3  4  1  0
  4  5  1  0
  5  6  2  0
  5  7  1  0
  7  8  1  0
  8  9  1  0
  9 10  2  0
  9 11  1  0
  2 12  1  0
 12 13  1  6
 13 14  1  0
 15 14  1  6
 15 16  1  0
 16 17  1  1
 17 18  1  6
 17 19  1  0
 20 19  1  1
 20 21  1  0
 21 22  1  0
 22 23  1  1
 22 24  1  0
 24 25  1  0
 25 26  1  0
 26 27  1  6
 26 28  1  0
 28 29  1  6
 29 30  1  0
 30 31  1  0
 31 32  1  6
 31 12  1  0
 31 15  1  0
 28 16  1  0
 26 20  1  0
M  END
>  <MS_ID>  (3262) 
MS3396

>  <SMILES>  (3262) 
C[C@H](CCC(=O)NCC(=O)O)[C@H]1CC[C@H]2[C@@H]3[C@@H](O)C[C@@H]4C[C@H](O)CC[C@]4(N)[C@H]3CC[C@]12C

>  <Structure_dimension>  (3262) 
2D

$$$$
MS3397
     RDKit          2D

 27 30  0  0  0  0  0  0  0  0999 V2000
   -7.4370   -0.1623    0.0000 C   0  0  0  0  0  0  0  0  0  0  0  0
   -6.0672    0.4489    0.0000 C   0  0  0  0  0  0  0  0  0  0  0  0
   -5.9116    1.9409    0.0000 O   0  0  0  0  0  0  0  0  0  0  0  0
   -4.8529   -0.4318    0.0000 C   0  0  0  0  0  0  0  0  0  0  0  0
   -4.8517   -1.9318    0.0000 C   0  0  0  0  0  0  0  0  0  0  0  0
   -3.4248   -2.3941    0.0000 C   0  0  0  0  0  0  0  0  0  0  0  0
   -2.5441   -1.1799    0.0000 C   0  0  0  0  0  0  0  0  0  0  0  0
   -1.0524   -1.0219    0.0000 C   0  0  0  0  0  0  0  0  0  0  0  0
   -0.1697   -2.2347    0.0000 C   0  0  0  0  0  0  0  0  0  0  0  0
    1.3219   -2.0767    0.0000 C   0  0  0  0  0  0  0  0  0  0  0  0
    1.9309   -0.7059    0.0000 C   0  0  0  0  0  0  0  0  0  0  0  0
    3.4226   -0.5479    0.0000 C   0  0  0  0  0  0  0  0  0  0  0  0
    4.0316    0.8229    0.0000 C   0  0  0  0  0  0  0  0  0  0  0  0
    5.5232    0.9809    0.0000 O   0  0  0  0  0  0  0  0  0  0  0  0
    6.4059   -0.2319    0.0000 S   0  0  0  0  0  0  0  0  0  0  0  0
    5.1931   -1.1146    0.0000 O   0  0  0  0  0  0  0  0  0  0  0  0
    7.6187    0.6507    0.0000 O   0  0  0  0  0  0  0  0  0  0  0  0
    7.2885   -1.4448    0.0000 O   0  0  0  0  0  0  0  0  0  0  0  0
    3.1489    2.0357    0.0000 C   0  0  0  0  0  0  0  0  0  0  0  0
    1.6573    1.8777    0.0000 C   0  0  0  0  0  0  0  0  0  0  0  0
    1.0483    0.5069    0.0000 C   0  0  0  0  0  0  0  0  0  0  0  0
    0.1656    1.7197    0.0000 C   0  0  0  0  0  0  0  0  0  0  0  0
   -0.4434    0.3489    0.0000 C   0  0  0  0  0  0  0  0  0  0  0  0
   -1.3260    1.5617    0.0000 C   0  0  0  0  0  0  0  0  0  0  0  0
   -2.8177    1.4037    0.0000 C   0  0  0  0  0  0  0  0  0  0  0  0
   -3.4267    0.0329    0.0000 C   0  0  0  0  0  0  0  0  0  0  0  0
   -4.4313    1.1468    0.0000 C   0  0  0  0  0  0  0  0  0  0  0  0
  1  2  1  0
  2  3  2  0
  4  2  1  1
  4  5  1  0
  5  6  1  0
  7  6  1  6
  7  8  1  0
  8  9  1  1
  9 10  1  0
 11 10  1  1
 11 12  1  0
 12 13  1  0
 13 14  1  1
 14 15  1  0
 15 16  2  0
 15 17  2  0
 15 18  1  0
 13 19  1  0
 19 20  1  0
 20 21  1  0
 21 22  1  6
 21 23  1  0
 23 24  1  6
 24 25  1  0
 25 26  1  0
 26 27  1  6
 26  4  1  0
 26  7  1  0
 23  8  1  0
 21 11  1  0
M  END
>  <MS_ID>  (3263) 
MS3397

>  <SMILES>  (3263) 
CC(=O)[C@@H]1CC[C@H]2[C@@H]3CC[C@@H]4C[C@H](OS(=O)(=O)O)CC[C@]4(C)[C@H]3CC[C@]12C

>  <Structure_dimension>  (3263) 
2D

$$$$
MS3398
     RDKit          2D

 28 31  0  0  0  0  0  0  0  0999 V2000
   -3.4696    2.0403    0.0000 C   0  0  0  0  0  0  0  0  0  0  0  0
   -3.6518    0.5514    0.0000 C   0  0  0  0  0  0  0  0  0  0  0  0
   -5.0324   -0.0352    0.0000 C   0  0  0  0  0  0  0  0  0  0  0  0
   -6.2307    0.8671    0.0000 C   0  0  0  0  0  0  0  0  0  0  0  0
   -7.6112    0.2805    0.0000 C   0  0  0  0  0  0  0  0  0  0  0  0
   -7.7935   -1.2084    0.0000 O   0  0  0  0  0  0  0  0  0  0  0  0
   -8.8095    1.1828    0.0000 O   0  0  0  0  0  0  0  0  0  0  0  0
   -2.4536   -0.3509    0.0000 C   0  0  0  0  0  0  0  0  0  0  0  0
   -2.4792   -1.8507    0.0000 C   0  0  0  0  0  0  0  0  0  0  0  0
   -1.0607   -2.3385    0.0000 C   0  0  0  0  0  0  0  0  0  0  0  0
   -0.1584   -1.1402    0.0000 C   0  0  0  0  0  0  0  0  0  0  0  0
    1.3358   -1.0090    0.0000 C   0  0  0  0  0  0  0  0  0  0  0  0
    2.1966   -2.2374    0.0000 C   0  0  0  0  0  0  0  0  0  0  0  0
    1.5632   -3.5971    0.0000 O   0  0  0  0  0  0  0  0  0  0  0  0
    3.6909   -2.1061    0.0000 C   0  0  0  0  0  0  0  0  0  0  0  0
    4.3243   -0.7464    0.0000 C   0  0  0  0  0  0  0  0  0  0  0  0
    5.8185   -0.6151    0.0000 C   0  0  0  0  0  0  0  0  0  0  0  0
    6.4520    0.7446    0.0000 C   0  0  0  0  0  0  0  0  0  0  0  0
    7.9462    0.8758    0.0000 O   0  0  0  0  0  0  0  0  0  0  0  0
    5.5912    1.9730    0.0000 C   0  0  0  0  0  0  0  0  0  0  0  0
    4.0969    1.8417    0.0000 C   0  0  0  0  0  0  0  0  0  0  0  0
    3.4635    0.4820    0.0000 C   0  0  0  0  0  0  0  0  0  0  0  0
    2.6027    1.7104    0.0000 C   0  0  0  0  0  0  0  0  0  0  0  0
    1.9692    0.3507    0.0000 C   0  0  0  0  0  0  0  0  0  0  0  0
    1.1084    1.5791    0.0000 C   0  0  0  0  0  0  0  0  0  0  0  0
   -0.3858    1.4479    0.0000 C   0  0  0  0  0  0  0  0  0  0  0  0
   -1.0193    0.0882    0.0000 C   0  0  0  0  0  0  0  0  0  0  0  0
   -2.0038    1.2199    0.0000 C   0  0  0  0  0  0  0  0  0  0  0  0
  1  2  2  0
  2  3  1  0
  3  4  1  0
  4  5  1  0
  5  6  2  0
  5  7  1  0
  8  2  1  6
  8  9  1  0
  9 10  1  0
 11 10  1  6
 11 12  1  0
 12 13  1  1
 13 14  1  6
 13 15  1  0
 16 15  1  1
 16 17  1  0
 17 18  1  0
 18 19  1  1
 18 20  1  0
 20 21  1  0
 21 22  1  0
 22 23  1  6
 22 24  1  0
 24 25  1  6
 25 26  1  0
 26 27  1  0
 27 28  1  6
 27  8  1  0
 27 11  1  0
 24 12  1  0
 22 16  1  0
M  END
>  <MS_ID>  (3264) 
MS3398

>  <SMILES>  (3264) 
C=C(CCC(=O)O)[C@H]1CC[C@H]2[C@@H]3[C@@H](O)C[C@@H]4C[C@H](O)CC[C@]4(C)[C@H]3CC[C@]12C

>  <Structure_dimension>  (3264) 
2D

$$$$
MS3399
     RDKit          2D

 32 35  0  0  0  0  0  0  0  0999 V2000
   -3.1421   -3.6694    0.0000 C   0  0  0  0  0  0  0  0  0  0  0  0
   -2.2628   -2.4541    0.0000 C   0  0  0  0  0  0  0  0  0  0  0  0
   -2.8756   -1.0850    0.0000 C   0  0  0  0  0  0  0  0  0  0  0  0
   -4.3676   -0.9311    0.0000 C   0  0  0  0  0  0  0  0  0  0  0  0
   -4.9804    0.4380    0.0000 C   0  0  0  0  0  0  0  0  0  0  0  0
   -4.1011    1.6532    0.0000 O   0  0  0  0  0  0  0  0  0  0  0  0
   -6.4725    0.5919    0.0000 N   0  0  0  0  0  0  0  0  0  0  0  0
   -7.0853    1.9610    0.0000 C   0  0  0  0  0  0  0  0  0  0  0  0
   -8.5774    2.1149    0.0000 C   0  0  0  0  0  0  0  0  0  0  0  0
   -9.4567    0.8996    0.0000 O   0  0  0  0  0  0  0  0  0  0  0  0
   -9.1901    3.4840    0.0000 O   0  0  0  0  0  0  0  0  0  0  0  0
   -0.7707   -2.6080    0.0000 C   0  0  0  0  0  0  0  0  0  0  0  0
   -0.0182   -3.9056    0.0000 C   0  0  0  0  0  0  0  0  0  0  0  0
    1.4484   -3.5909    0.0000 C   0  0  0  0  0  0  0  0  0  0  0  0
    1.6023   -2.0988    0.0000 C   0  0  0  0  0  0  0  0  0  0  0  0
    2.8141   -1.2147    0.0000 C   0  0  0  0  0  0  0  0  0  0  0  0
    4.1856   -1.8222    0.0000 C   0  0  0  0  0  0  0  0  0  0  0  0
    4.3453   -3.3136    0.0000 O   0  0  0  0  0  0  0  0  0  0  0  0
    5.3974   -0.9381    0.0000 C   0  0  0  0  0  0  0  0  0  0  0  0
    5.2377    0.5533    0.0000 C   0  0  0  0  0  0  0  0  0  0  0  0
    6.4495    1.4374    0.0000 C   0  0  0  0  0  0  0  0  0  0  0  0
    6.2898    2.9289    0.0000 C   0  0  0  0  0  0  0  0  0  0  0  0
    7.5016    3.8129    0.0000 O   0  0  0  0  0  0  0  0  0  0  0  0
    4.9183    3.5363    0.0000 N   0  0  0  0  0  0  0  0  0  0  0  0
    3.7065    2.6522    0.0000 C   0  0  0  0  0  0  0  0  0  0  0  0
    3.8662    1.1608    0.0000 C   0  0  0  0  0  0  0  0  0  0  0  0
    2.4947    1.7682    0.0000 C   0  0  0  0  0  0  0  0  0  0  0  0
    2.6544    0.2767    0.0000 C   0  0  0  0  0  0  0  0  0  0  0  0
    1.2829    0.8842    0.0000 C   0  0  0  0  0  0  0  0  0  0  0  0
    0.0711    0.0001    0.0000 C   0  0  0  0  0  0  0  0  0  0  0  0
    0.2308   -1.4914    0.0000 C   0  0  0  0  0  0  0  0  0  0  0  0
   -1.1967   -1.0306    0.0000 C   0  0  0  0  0  0  0  0  0  0  0  0
  2  1  1  6
  2  3  1  0
  3  4  1  0
  4  5  1  0
  5  6  2  0
  5  7  1  0
  7  8  1  0
  8  9  1  0
  9 10  2  0
  9 11  1  0
  2 12  1  0
 12 13  1  6
 13 14  1  0
 15 14  1  6
 15 16  1  0
 16 17  1  1
 17 18  1  6
 17 19  1  0
 20 19  1  1
 20 21  1  0
 21 22  1  0
 22 23  1  1
 22 24  1  0
 24 25  1  0
 25 26  1  0
 26 27  1  6
 26 28  1  0
 28 29  1  6
 29 30  1  0
 30 31  1  0
 31 32  1  6
 31 12  1  0
 31 15  1  0
 28 16  1  0
 26 20  1  0
M  END
>  <MS_ID>  (3265) 
MS3399

>  <SMILES>  (3265) 
C[C@H](CCC(=O)NCC(=O)O)[C@H]1CC[C@H]2[C@@H]3[C@@H](O)C[C@@H]4C[C@H](O)NC[C@]4(C)[C@H]3CC[C@]12C

>  <Structure_dimension>  (3265) 
2D

$$$$
MS3400
     RDKit          2D

 25 28  0  0  0  0  0  0  0  0999 V2000
   -6.2011   -0.0039    0.0000 C   0  0  0  0  0  0  0  0  0  0  0  0
   -4.8118    0.5619    0.0000 C   0  0  0  0  0  0  0  0  0  0  0  0
   -4.6071    2.0478    0.0000 O   0  0  0  0  0  0  0  0  0  0  0  0
   -3.6273   -0.3584    0.0000 C   0  0  0  0  0  0  0  0  0  0  0  0
   -3.6756   -1.8576    0.0000 C   0  0  0  0  0  0  0  0  0  0  0  0
   -2.2646   -2.3668    0.0000 C   0  0  0  0  0  0  0  0  0  0  0  0
   -1.3444   -1.1823    0.0000 C   0  0  0  0  0  0  0  0  0  0  0  0
    0.1517   -1.0736    0.0000 C   0  0  0  0  0  0  0  0  0  0  0  0
    0.9939   -2.3148    0.0000 C   0  0  0  0  0  0  0  0  0  0  0  0
    0.3400   -3.6648    0.0000 O   0  0  0  0  0  0  0  0  0  0  0  0
    2.4899   -2.2061    0.0000 C   0  0  0  0  0  0  0  0  0  0  0  0
    3.1438   -0.8561    0.0000 C   0  0  0  0  0  0  0  0  0  0  0  0
    4.6399   -0.7474    0.0000 C   0  0  0  0  0  0  0  0  0  0  0  0
    5.2937    0.6026    0.0000 C   0  0  0  0  0  0  0  0  0  0  0  0
    6.7898    0.7113    0.0000 O   0  0  0  0  0  0  0  0  0  0  0  0
    4.4516    1.8438    0.0000 C   0  0  0  0  0  0  0  0  0  0  0  0
    2.9555    1.7351    0.0000 C   0  0  0  0  0  0  0  0  0  0  0  0
    2.3016    0.3851    0.0000 C   0  0  0  0  0  0  0  0  0  0  0  0
    1.4594    1.6264    0.0000 C   0  0  0  0  0  0  0  0  0  0  0  0
    0.8056    0.2764    0.0000 C   0  0  0  0  0  0  0  0  0  0  0  0
   -0.0366    1.5177    0.0000 C   0  0  0  0  0  0  0  0  0  0  0  0
   -1.5327    1.4090    0.0000 C   0  0  0  0  0  0  0  0  0  0  0  0
   -2.3748    2.6502    0.0000 O   0  0  0  0  0  0  0  0  0  0  0  0
   -2.1865    0.0590    0.0000 C   0  0  0  0  0  0  0  0  0  0  0  0
   -3.1539    1.2054    0.0000 C   0  0  0  0  0  0  0  0  0  0  0  0
  2  1  1  6
  2  3  1  0
  2  4  1  0
  4  5  1  6
  5  6  1  0
  7  6  1  6
  7  8  1  0
  8  9  1  1
  9 10  2  0
  9 11  1  0
 12 11  1  1
 12 13  1  0
 13 14  1  0
 14 15  1  1
 14 16  1  0
 16 17  1  0
 17 18  1  0
 18 19  1  6
 18 20  1  0
 20 21  1  6
 21 22  1  0
 22 23  1  1
 22 24  1  0
 24 25  1  6
 24  4  1  0
 24  7  1  0
 20  8  1  0
 18 12  1  0
M  END
>  <MS_ID>  (3266) 
MS3400

>  <SMILES>  (3266) 
C[C@H](O)[C@H]1CC[C@H]2[C@@H]3C(=O)C[C@@H]4C[C@H](O)CC[C@]4(C)[C@H]3C[C@H](O)[C@]12C

>  <Structure_dimension>  (3266) 
2D

$$$$
MS3401
     RDKit          2D

 28 31  0  0  0  0  0  0  0  0999 V2000
   -5.1275   -2.0302    0.0000 C   0  0  0  0  0  0  0  0  0  0  0  0
   -3.9468   -1.1050    0.0000 C   0  0  0  0  0  0  0  0  0  0  0  0
   -4.1576    0.3801    0.0000 C   0  0  0  0  0  0  0  0  0  0  0  0
   -5.5492    0.9401    0.0000 C   0  0  0  0  0  0  0  0  0  0  0  0
   -5.7600    2.4252    0.0000 C   0  0  0  0  0  0  0  0  0  0  0  0
   -4.5793    3.3503    0.0000 O   0  0  0  0  0  0  0  0  0  0  0  0
   -7.1516    2.9851    0.0000 O   0  0  0  0  0  0  0  0  0  0  0  0
   -2.5552   -1.6650    0.0000 C   0  0  0  0  0  0  0  0  0  0  0  0
   -2.1903   -3.1199    0.0000 C   0  0  0  0  0  0  0  0  0  0  0  0
   -0.6938   -3.2225    0.0000 C   0  0  0  0  0  0  0  0  0  0  0  0
   -0.1339   -1.8309    0.0000 C   0  0  0  0  0  0  0  0  0  0  0  0
    1.2750   -1.3159    0.0000 C   0  0  0  0  0  0  0  0  0  0  0  0
    2.4254   -2.2785    0.0000 C   0  0  0  0  0  0  0  0  0  0  0  0
    2.1670   -3.7560    0.0000 O   0  0  0  0  0  0  0  0  0  0  0  0
    3.8342   -1.7635    0.0000 C   0  0  0  0  0  0  0  0  0  0  0  0
    4.0926   -0.2859    0.0000 C   0  0  0  0  0  0  0  0  0  0  0  0
    5.5014    0.2291    0.0000 C   0  0  0  0  0  0  0  0  0  0  0  0
    5.7598    1.7067    0.0000 C   0  0  0  0  0  0  0  0  0  0  0  0
    7.1687    2.2217    0.0000 O   0  0  0  0  0  0  0  0  0  0  0  0
    4.6094    2.6692    0.0000 C   0  0  0  0  0  0  0  0  0  0  0  0
    3.2006    2.1542    0.0000 C   0  0  0  0  0  0  0  0  0  0  0  0
    2.9422    0.6767    0.0000 C   0  0  0  0  0  0  0  0  0  0  0  0
    1.7918    1.6392    0.0000 N   0  0  0  0  0  0  0  0  0  0  0  0
    1.5334    0.1617    0.0000 C   0  0  0  0  0  0  0  0  0  0  0  0
    0.3830    1.1242    0.0000 C   0  0  0  0  0  0  0  0  0  0  0  0
   -1.0259    0.6093    0.0000 C   0  0  0  0  0  0  0  0  0  0  0  0
   -1.2843   -0.8683    0.0000 C   0  0  0  0  0  0  0  0  0  0  0  0
   -2.5290   -0.0313    0.0000 C   0  0  0  0  0  0  0  0  0  0  0  0
  2  1  1  6
  2  3  1  0
  3  4  1  0
  4  5  1  0
  5  6  2  0
  5  7  1  0
  2  8  1  0
  8  9  1  6
  9 10  1  0
 11 10  1  6
 11 12  1  0
 12 13  1  1
 13 14  1  6
 13 15  1  0
 16 15  1  1
 16 17  1  0
 17 18  1  0
 18 19  1  1
 18 20  1  0
 20 21  1  0
 21 22  1  0
 22 23  1  6
 22 24  1  0
 24 25  1  6
 25 26  1  0
 26 27  1  0
 27 28  1  6
 27  8  1  0
 27 11  1  0
 24 12  1  0
 22 16  1  0
M  END
>  <MS_ID>  (3267) 
MS3401

>  <SMILES>  (3267) 
C[C@H](CCC(=O)O)[C@H]1CC[C@H]2[C@@H]3[C@@H](O)C[C@@H]4C[C@H](O)CC[C@]4(N)[C@H]3CC[C@]12C

>  <Structure_dimension>  (3267) 
2D

$$$$
MS3402
     RDKit          2D

 32 35  0  0  0  0  0  0  0  0999 V2000
   -3.1421   -3.6694    0.0000 C   0  0  0  0  0  0  0  0  0  0  0  0
   -2.2628   -2.4541    0.0000 C   0  0  0  0  0  0  0  0  0  0  0  0
   -2.8756   -1.0850    0.0000 C   0  0  0  0  0  0  0  0  0  0  0  0
   -4.3676   -0.9311    0.0000 C   0  0  0  0  0  0  0  0  0  0  0  0
   -4.9804    0.4380    0.0000 C   0  0  0  0  0  0  0  0  0  0  0  0
   -4.1011    1.6532    0.0000 O   0  0  0  0  0  0  0  0  0  0  0  0
   -6.4725    0.5919    0.0000 N   0  0  0  0  0  0  0  0  0  0  0  0
   -7.0853    1.9610    0.0000 C   0  0  0  0  0  0  0  0  0  0  0  0
   -8.5774    2.1149    0.0000 C   0  0  0  0  0  0  0  0  0  0  0  0
   -9.4567    0.8996    0.0000 O   0  0  0  0  0  0  0  0  0  0  0  0
   -9.1901    3.4840    0.0000 O   0  0  0  0  0  0  0  0  0  0  0  0
   -0.7707   -2.6080    0.0000 C   0  0  0  0  0  0  0  0  0  0  0  0
   -0.0182   -3.9056    0.0000 C   0  0  0  0  0  0  0  0  0  0  0  0
    1.4484   -3.5909    0.0000 C   0  0  0  0  0  0  0  0  0  0  0  0
    1.6023   -2.0988    0.0000 C   0  0  0  0  0  0  0  0  0  0  0  0
    2.8141   -1.2147    0.0000 C   0  0  0  0  0  0  0  0  0  0  0  0
    4.1856   -1.8222    0.0000 C   0  0  0  0  0  0  0  0  0  0  0  0
    4.3453   -3.3136    0.0000 O   0  0  0  0  0  0  0  0  0  0  0  0
    5.3974   -0.9381    0.0000 O   0  0  0  0  0  0  0  0  0  0  0  0
    5.2377    0.5533    0.0000 C   0  0  0  0  0  0  0  0  0  0  0  0
    6.4495    1.4374    0.0000 C   0  0  0  0  0  0  0  0  0  0  0  0
    6.2898    2.9289    0.0000 C   0  0  0  0  0  0  0  0  0  0  0  0
    7.5016    3.8129    0.0000 O   0  0  0  0  0  0  0  0  0  0  0  0
    4.9183    3.5363    0.0000 C   0  0  0  0  0  0  0  0  0  0  0  0
    3.7065    2.6522    0.0000 C   0  0  0  0  0  0  0  0  0  0  0  0
    3.8662    1.1608    0.0000 C   0  0  0  0  0  0  0  0  0  0  0  0
    2.4947    1.7682    0.0000 C   0  0  0  0  0  0  0  0  0  0  0  0
    2.6544    0.2767    0.0000 C   0  0  0  0  0  0  0  0  0  0  0  0
    1.2829    0.8842    0.0000 C   0  0  0  0  0  0  0  0  0  0  0  0
    0.0711    0.0001    0.0000 C   0  0  0  0  0  0  0  0  0  0  0  0
    0.2308   -1.4914    0.0000 C   0  0  0  0  0  0  0  0  0  0  0  0
   -1.1967   -1.0306    0.0000 C   0  0  0  0  0  0  0  0  0  0  0  0
  2  1  1  6
  2  3  1  0
  3  4  1  0
  4  5  1  0
  5  6  2  0
  5  7  1  0
  7  8  1  0
  8  9  1  0
  9 10  2  0
  9 11  1  0
  2 12  1  0
 12 13  1  6
 13 14  1  0
 15 14  1  6
 15 16  1  0
 16 17  1  1
 17 18  1  6
 17 19  1  0
 19 20  1  0
 20 21  1  1
 21 22  1  0
 22 23  1  1
 22 24  1  0
 24 25  1  0
 25 26  1  0
 26 27  1  6
 26 28  1  0
 28 29  1  6
 29 30  1  0
 30 31  1  0
 31 32  1  6
 31 12  1  0
 31 15  1  0
 28 16  1  0
 26 20  1  0
M  END
>  <MS_ID>  (3268) 
MS3402

>  <SMILES>  (3268) 
C[C@H](CCC(=O)NCC(=O)O)[C@H]1CC[C@H]2[C@@H]3[C@@H](O)O[C@@H]4C[C@H](O)CC[C@]4(C)[C@H]3CC[C@]12C

>  <Structure_dimension>  (3268) 
2D

$$$$
MS3403
     RDKit          2D

 24 27  0  0  0  0  0  0  0  0999 V2000
   -5.7398    1.3531    0.0000 C   0  0  0  0  0  0  0  0  0  0  0  0
   -5.0076    0.0439    0.0000 C   0  0  0  0  0  0  0  0  0  0  0  0
   -5.7752   -1.2448    0.0000 O   0  0  0  0  0  0  0  0  0  0  0  0
   -3.5077    0.0235    0.0000 C   0  0  0  0  0  0  0  0  0  0  0  0
   -3.8252    1.4895    0.0000 O   0  0  0  0  0  0  0  0  0  0  0  0
   -3.6848   -1.4660    0.0000 C   0  0  0  0  0  0  0  0  0  0  0  0
   -2.3229   -2.0948    0.0000 C   0  0  0  0  0  0  0  0  0  0  0  0
   -1.3042   -0.9938    0.0000 C   0  0  0  0  0  0  0  0  0  0  0  0
    0.1957   -1.0143    0.0000 C   0  0  0  0  0  0  0  0  0  0  0  0
    0.9279   -2.3234    0.0000 C   0  0  0  0  0  0  0  0  0  0  0  0
    2.4278   -2.3439    0.0000 C   0  0  0  0  0  0  0  0  0  0  0  0
    3.1954   -1.0552    0.0000 C   0  0  0  0  0  0  0  0  0  0  0  0
    4.6953   -1.0756    0.0000 C   0  0  0  0  0  0  0  0  0  0  0  0
    5.4629    0.2131    0.0000 C   0  0  0  0  0  0  0  0  0  0  0  0
    6.9628    0.1926    0.0000 O   0  0  0  0  0  0  0  0  0  0  0  0
    4.7307    1.5222    0.0000 C   0  0  0  0  0  0  0  0  0  0  0  0
    3.2308    1.5427    0.0000 C   0  0  0  0  0  0  0  0  0  0  0  0
    2.4632    0.2540    0.0000 C   0  0  0  0  0  0  0  0  0  0  0  0
    1.7310    1.5631    0.0000 C   0  0  0  0  0  0  0  0  0  0  0  0
    0.9633    0.2744    0.0000 C   0  0  0  0  0  0  0  0  0  0  0  0
    0.2311    1.5835    0.0000 C   0  0  0  0  0  0  0  0  0  0  0  0
   -1.2687    1.6040    0.0000 C   0  0  0  0  0  0  0  0  0  0  0  0
   -2.0364    0.3153    0.0000 C   0  0  0  0  0  0  0  0  0  0  0  0
   -2.7456    1.6370    0.0000 C   0  0  0  0  0  0  0  0  0  0  0  0
  1  2  1  0
  2  3  2  0
  2  4  1  0
  4  5  1  1
  4  6  1  0
  6  7  1  0
  8  7  1  6
  8  9  1  0
  9 10  1  1
 10 11  1  0
 12 11  1  6
 12 13  1  0
 13 14  1  0
 14 15  1  6
 14 16  1  0
 16 17  1  0
 17 18  1  0
 18 19  1  6
 18 20  1  0
 20 21  1  6
 21 22  1  0
 22 23  1  0
 23 24  1  6
 23  4  1  0
 23  8  1  0
 20  9  1  0
 18 12  1  0
M  END
>  <MS_ID>  (3269) 
MS3403

>  <SMILES>  (3269) 
CC(=O)[C@@]1(O)CC[C@H]2[C@@H]3CC[C@H]4C[C@@H](O)CC[C@]4(C)[C@H]3CC[C@@]21C

>  <Structure_dimension>  (3269) 
2D

$$$$
MS3406
     RDKit          2D

 28 31  0  0  0  0  0  0  0  0999 V2000
   -5.1275   -2.0302    0.0000 C   0  0  0  0  0  0  0  0  0  0  0  0
   -3.9468   -1.1050    0.0000 C   0  0  0  0  0  0  0  0  0  0  0  0
   -4.1576    0.3801    0.0000 C   0  0  0  0  0  0  0  0  0  0  0  0
   -5.5492    0.9401    0.0000 C   0  0  0  0  0  0  0  0  0  0  0  0
   -5.7600    2.4252    0.0000 C   0  0  0  0  0  0  0  0  0  0  0  0
   -4.5793    3.3503    0.0000 O   0  0  0  0  0  0  0  0  0  0  0  0
   -7.1516    2.9851    0.0000 O   0  0  0  0  0  0  0  0  0  0  0  0
   -2.5552   -1.6650    0.0000 C   0  0  0  0  0  0  0  0  0  0  0  0
   -2.1903   -3.1199    0.0000 C   0  0  0  0  0  0  0  0  0  0  0  0
   -0.6938   -3.2225    0.0000 C   0  0  0  0  0  0  0  0  0  0  0  0
   -0.1339   -1.8309    0.0000 C   0  0  0  0  0  0  0  0  0  0  0  0
    1.2750   -1.3159    0.0000 C   0  0  0  0  0  0  0  0  0  0  0  0
    2.4254   -2.2785    0.0000 C   0  0  0  0  0  0  0  0  0  0  0  0
    2.1670   -3.7560    0.0000 O   0  0  0  0  0  0  0  0  0  0  0  0
    3.8342   -1.7635    0.0000 C   0  0  0  0  0  0  0  0  0  0  0  0
    4.0926   -0.2859    0.0000 C   0  0  0  0  0  0  0  0  0  0  0  0
    5.5014    0.2291    0.0000 N   0  0  0  0  0  0  0  0  0  0  0  0
    5.7598    1.7067    0.0000 C   0  0  0  0  0  0  0  0  0  0  0  0
    7.1687    2.2217    0.0000 O   0  0  0  0  0  0  0  0  0  0  0  0
    4.6094    2.6692    0.0000 C   0  0  0  0  0  0  0  0  0  0  0  0
    3.2006    2.1542    0.0000 C   0  0  0  0  0  0  0  0  0  0  0  0
    2.9422    0.6767    0.0000 C   0  0  0  0  0  0  0  0  0  0  0  0
    1.7918    1.6392    0.0000 C   0  0  0  0  0  0  0  0  0  0  0  0
    1.5334    0.1617    0.0000 C   0  0  0  0  0  0  0  0  0  0  0  0
    0.3830    1.1242    0.0000 C   0  0  0  0  0  0  0  0  0  0  0  0
   -1.0259    0.6093    0.0000 C   0  0  0  0  0  0  0  0  0  0  0  0
   -1.2843   -0.8683    0.0000 C   0  0  0  0  0  0  0  0  0  0  0  0
   -2.5290   -0.0313    0.0000 C   0  0  0  0  0  0  0  0  0  0  0  0
  2  1  1  6
  2  3  1  0
  3  4  1  0
  4  5  1  0
  5  6  2  0
  5  7  1  0
  2  8  1  0
  8  9  1  6
  9 10  1  0
 11 10  1  6
 11 12  1  0
 12 13  1  1
 13 14  1  6
 13 15  1  0
 16 15  1  1
 16 17  1  0
 17 18  1  0
 18 19  2  0
 18 20  1  0
 20 21  1  0
 21 22  1  0
 22 23  1  6
 22 24  1  0
 24 25  1  6
 25 26  1  0
 26 27  1  0
 27 28  1  6
 27  8  1  0
 27 11  1  0
 24 12  1  0
 22 16  1  0
M  END
>  <MS_ID>  (3270) 
MS3406

>  <SMILES>  (3270) 
C[C@H](CCC(=O)O)[C@H]1CC[C@H]2[C@@H]3[C@@H](O)C[C@@H]4NC(=O)CC[C@]4(C)[C@H]3CC[C@]12C

>  <Structure_dimension>  (3270) 
2D

$$$$
MS3407
     RDKit          2D

 35 38  0  0  0  0  0  0  0  0999 V2000
   -5.0140   -3.2776    0.0000 C   0  0  0  0  0  0  0  0  0  0  0  0
   -3.9623   -2.2080    0.0000 C   0  0  0  0  0  0  0  0  0  0  0  0
   -4.3628   -0.7624    0.0000 C   0  0  0  0  0  0  0  0  0  0  0  0
   -5.8149   -0.3865    0.0000 C   0  0  0  0  0  0  0  0  0  0  0  0
   -6.2153    1.0591    0.0000 C   0  0  0  0  0  0  0  0  0  0  0  0
   -7.6674    1.4351    0.0000 S   0  0  0  0  0  0  0  0  0  0  0  0
   -8.0679    2.8806    0.0000 S   0  0  0  0  0  0  0  0  0  0  0  0
   -6.6223    3.2811    0.0000 O   0  0  0  0  0  0  0  0  0  0  0  0
   -8.4684    4.3262    0.0000 O   0  0  0  0  0  0  0  0  0  0  0  0
   -9.5135    2.4802    0.0000 O   0  0  0  0  0  0  0  0  0  0  0  0
   -2.5102   -2.5840    0.0000 C   0  0  0  0  0  0  0  0  0  0  0  0
   -1.9608   -3.9798    0.0000 C   0  0  0  0  0  0  0  0  0  0  0  0
   -0.4636   -3.8886    0.0000 C   0  0  0  0  0  0  0  0  0  0  0  0
   -0.0876   -2.4365    0.0000 C   0  0  0  0  0  0  0  0  0  0  0  0
    1.2431   -1.7442    0.0000 C   0  0  0  0  0  0  0  0  0  0  0  0
    2.5079   -2.5505    0.0000 C   0  0  0  0  0  0  0  0  0  0  0  0
    2.4421   -4.0491    0.0000 O   0  0  0  0  0  0  0  0  0  0  0  0
    3.8387   -1.8583    0.0000 C   0  0  0  0  0  0  0  0  0  0  0  0
    3.9045   -0.3597    0.0000 C   0  0  0  0  0  0  0  0  0  0  0  0
    5.2352    0.3325    0.0000 C   0  0  0  0  0  0  0  0  0  0  0  0
    5.3011    1.8311    0.0000 C   0  0  0  0  0  0  0  0  0  0  0  0
    6.6318    2.5233    0.0000 O   0  0  0  0  0  0  0  0  0  0  0  0
    7.8966    1.7170    0.0000 S   0  0  0  0  0  0  0  0  0  0  0  0
    7.0903    0.4521    0.0000 O   0  0  0  0  0  0  0  0  0  0  0  0
    8.7029    2.9819    0.0000 O   0  0  0  0  0  0  0  0  0  0  0  0
    9.1615    0.9107    0.0000 O   0  0  0  0  0  0  0  0  0  0  0  0
    4.0362    2.6374    0.0000 C   0  0  0  0  0  0  0  0  0  0  0  0
    2.7055    1.9451    0.0000 C   0  0  0  0  0  0  0  0  0  0  0  0
    2.6396    0.4466    0.0000 C   0  0  0  0  0  0  0  0  0  0  0  0
    1.3748    1.2529    0.0000 C   0  0  0  0  0  0  0  0  0  0  0  0
    1.3089   -0.2457    0.0000 C   0  0  0  0  0  0  0  0  0  0  0  0
    0.0441    0.5606    0.0000 C   0  0  0  0  0  0  0  0  0  0  0  0
   -1.2866   -0.1316    0.0000 C   0  0  0  0  0  0  0  0  0  0  0  0
   -1.3525   -1.6302    0.0000 C   0  0  0  0  0  0  0  0  0  0  0  0
   -2.6947   -0.9605    0.0000 C   0  0  0  0  0  0  0  0  0  0  0  0
  2  1  1  6
  2  3  1  0
  3  4  1  0
  4  5  1  0
  5  6  1  0
  6  7  1  0
  7  8  2  0
  7  9  2  0
  7 10  1  0
  2 11  1  0
 11 12  1  6
 12 13  1  0
 14 13  1  6
 14 15  1  0
 15 16  1  1
 16 17  1  6
 16 18  1  0
 19 18  1  1
 19 20  1  0
 20 21  1  0
 21 22  1  1
 22 23  1  0
 23 24  2  0
 23 25  2  0
 23 26  1  0
 21 27  1  0
 27 28  1  0
 28 29  1  0
 29 30  1  6
 29 31  1  0
 31 32  1  6
 32 33  1  0
 33 34  1  0
 34 35  1  6
 34 11  1  0
 34 14  1  0
 31 15  1  0
 29 19  1  0
M  END
>  <MS_ID>  (3271) 
MS3407

>  <SMILES>  (3271) 
C[C@H](CCCSS(=O)(=O)O)[C@H]1CC[C@H]2[C@@H]3[C@@H](O)C[C@@H]4C[C@H](OS(=O)(=O)O)CC[C@]4(C)[C@H]3CC[C@]12C

>  <Structure_dimension>  (3271) 
2D

$$$$
MS3409
     RDKit          2D

 37 40  0  0  0  0  0  0  0  0999 V2000
  -10.0718   -1.7348    0.0000 C   0  0  0  0  0  0  0  0  0  0  0  0
   -8.7991   -0.9410    0.0000 C   0  0  0  0  0  0  0  0  0  0  0  0
   -8.8503    0.5582    0.0000 C   0  0  0  0  0  0  0  0  0  0  0  0
   -7.4753   -1.6462    0.0000 C   0  0  0  0  0  0  0  0  0  0  0  0
   -6.2026   -0.8523    0.0000 C   0  0  0  0  0  0  0  0  0  0  0  0
   -4.8787   -1.5575    0.0000 C   0  0  0  0  0  0  0  0  0  0  0  0
   -3.6060   -0.7637    0.0000 C   0  0  0  0  0  0  0  0  0  0  0  0
   -3.6572    0.7355    0.0000 C   0  0  0  0  0  0  0  0  0  0  0  0
   -4.9811    1.4407    0.0000 O   0  0  0  0  0  0  0  0  0  0  0  0
   -5.0323    2.9398    0.0000 S   0  0  0  0  0  0  0  0  0  0  0  0
   -3.5331    2.9910    0.0000 O   0  0  0  0  0  0  0  0  0  0  0  0
   -6.5314    2.8887    0.0000 O   0  0  0  0  0  0  0  0  0  0  0  0
   -5.0834    4.4390    0.0000 O   0  0  0  0  0  0  0  0  0  0  0  0
   -2.2821   -1.4689    0.0000 C   0  0  0  0  0  0  0  0  0  0  0  0
   -2.0745   -2.9545    0.0000 C   0  0  0  0  0  0  0  0  0  0  0  0
   -0.5975   -3.2161    0.0000 C   0  0  0  0  0  0  0  0  0  0  0  0
    0.1077   -1.8922    0.0000 C   0  0  0  0  0  0  0  0  0  0  0  0
    1.5634   -1.5305    0.0000 C   0  0  0  0  0  0  0  0  0  0  0  0
    2.6046   -2.6103    0.0000 C   0  0  0  0  0  0  0  0  0  0  0  0
    4.0603   -2.2485    0.0000 C   0  0  0  0  0  0  0  0  0  0  0  0
    4.4749   -0.8069    0.0000 C   0  0  0  0  0  0  0  0  0  0  0  0
    5.9306   -0.4452    0.0000 C   0  0  0  0  0  0  0  0  0  0  0  0
    6.3452    0.9964    0.0000 C   0  0  0  0  0  0  0  0  0  0  0  0
    7.8009    1.3581    0.0000 O   0  0  0  0  0  0  0  0  0  0  0  0
    8.8421    0.2783    0.0000 S   0  0  0  0  0  0  0  0  0  0  0  0
    7.7622   -0.7628    0.0000 O   0  0  0  0  0  0  0  0  0  0  0  0
    9.9219    1.3194    0.0000 O   0  0  0  0  0  0  0  0  0  0  0  0
    9.8832   -0.8015    0.0000 O   0  0  0  0  0  0  0  0  0  0  0  0
    5.3040    2.0762    0.0000 C   0  0  0  0  0  0  0  0  0  0  0  0
    3.8483    1.7144    0.0000 C   0  0  0  0  0  0  0  0  0  0  0  0
    3.4337    0.2729    0.0000 C   0  0  0  0  0  0  0  0  0  0  0  0
    2.3926    1.3527    0.0000 C   0  0  0  0  0  0  0  0  0  0  0  0
    1.9780   -0.0889    0.0000 C   0  0  0  0  0  0  0  0  0  0  0  0
    0.9369    0.9909    0.0000 C   0  0  0  0  0  0  0  0  0  0  0  0
   -0.5189    0.6292    0.0000 C   0  0  0  0  0  0  0  0  0  0  0  0
   -0.9334   -0.8124    0.0000 C   0  0  0  0  0  0  0  0  0  0  0  0
   -2.0818    0.1527    0.0000 C   0  0  0  0  0  0  0  0  0  0  0  0
  1  2  1  0
  2  3  1  0
  2  4  1  0
  4  5  1  0
  5  6  1  0
  7  6  1  1
  7  8  1  0
  8  9  1  0
  9 10  1  0
 10 11  2  0
 10 12  2  0
 10 13  1  0
  7 14  1  0
 14 15  1  6
 15 16  1  0
 17 16  1  6
 17 18  1  0
 18 19  1  1
 19 20  1  0
 21 20  1  6
 21 22  1  0
 22 23  1  0
 23 24  1  1
 24 25  1  0
 25 26  2  0
 25 27  2  0
 25 28  1  0
 23 29  1  0
 29 30  1  0
 30 31  1  0
 31 32  1  6
 31 33  1  0
 33 34  1  6
 34 35  1  0
 35 36  1  0
 36 37  1  6
 36 14  1  0
 36 17  1  0
 33 18  1  0
 31 21  1  0
M  END
>  <MS_ID>  (3272) 
MS3409

>  <SMILES>  (3272) 
CC(C)CCC[C@@H](COS(=O)(=O)O)[C@H]1CC[C@H]2[C@@H]3CC[C@H]4C[C@H](OS(=O)(=O)O)CC[C@]4(C)[C@H]3CC[C@]12C

>  <Structure_dimension>  (3272) 
2D

$$$$
MS3410
     RDKit          2D

 36 39  0  0  0  0  0  0  0  0999 V2000
   -0.9048   -4.5543    0.0000 C   0  0  0  0  0  0  0  0  0  0  0  0
   -0.2963   -3.1832    0.0000 C   0  0  0  0  0  0  0  0  0  0  0  0
   -1.1794   -1.9707    0.0000 C   0  0  0  0  0  0  0  0  0  0  0  0
   -2.6710   -2.1293    0.0000 C   0  0  0  0  0  0  0  0  0  0  0  0
   -3.5541   -0.9168    0.0000 C   0  0  0  0  0  0  0  0  0  0  0  0
   -2.9456    0.4542    0.0000 O   0  0  0  0  0  0  0  0  0  0  0  0
   -5.0457   -1.0754    0.0000 N   0  0  0  0  0  0  0  0  0  0  0  0
   -5.9288    0.1371    0.0000 C   0  0  0  0  0  0  0  0  0  0  0  0
   -7.4204   -0.0215    0.0000 C   0  0  0  0  0  0  0  0  0  0  0  0
   -8.3036    1.1910    0.0000 C   0  0  0  0  0  0  0  0  0  0  0  0
   -9.7951    1.0324    0.0000 C   0  0  0  0  0  0  0  0  0  0  0  0
  -10.4036   -0.3386    0.0000 N   0  0  0  0  0  0  0  0  0  0  0  0
  -10.6783    2.2449    0.0000 C   0  0  0  0  0  0  0  0  0  0  0  0
  -10.0698    3.6159    0.0000 O   0  0  0  0  0  0  0  0  0  0  0  0
  -12.1699    2.0863    0.0000 O   0  0  0  0  0  0  0  0  0  0  0  0
    1.1953   -3.0247    0.0000 C   0  0  0  0  0  0  0  0  0  0  0  0
    2.2003   -4.1382    0.0000 C   0  0  0  0  0  0  0  0  0  0  0  0
    3.5699   -3.5264    0.0000 C   0  0  0  0  0  0  0  0  0  0  0  0
    3.4114   -2.0349    0.0000 C   0  0  0  0  0  0  0  0  0  0  0  0
    4.4137   -0.9189    0.0000 C   0  0  0  0  0  0  0  0  0  0  0  0
    5.8813   -1.2291    0.0000 C   0  0  0  0  0  0  0  0  0  0  0  0
    6.3465   -2.6551    0.0000 O   0  0  0  0  0  0  0  0  0  0  0  0
    6.8837   -0.1132    0.0000 C   0  0  0  0  0  0  0  0  0  0  0  0
    6.4185    1.3129    0.0000 C   0  0  0  0  0  0  0  0  0  0  0  0
    7.4208    2.4288    0.0000 C   0  0  0  0  0  0  0  0  0  0  0  0
    6.9556    3.8548    0.0000 C   0  0  0  0  0  0  0  0  0  0  0  0
    7.9580    4.9707    0.0000 O   0  0  0  0  0  0  0  0  0  0  0  0
    5.4880    4.1649    0.0000 C   0  0  0  0  0  0  0  0  0  0  0  0
    4.4857    3.0490    0.0000 C   0  0  0  0  0  0  0  0  0  0  0  0
    4.9509    1.6230    0.0000 C   0  0  0  0  0  0  0  0  0  0  0  0
    3.4833    1.9331    0.0000 C   0  0  0  0  0  0  0  0  0  0  0  0
    3.9485    0.5071    0.0000 C   0  0  0  0  0  0  0  0  0  0  0  0
    2.4809    0.8172    0.0000 C   0  0  0  0  0  0  0  0  0  0  0  0
    1.4785   -0.2987    0.0000 C   0  0  0  0  0  0  0  0  0  0  0  0
    1.9438   -1.7247    0.0000 C   0  0  0  0  0  0  0  0  0  0  0  0
    0.4518   -1.5697    0.0000 C   0  0  0  0  0  0  0  0  0  0  0  0
  2  1  1  6
  2  3  1  0
  3  4  1  0
  4  5  1  0
  5  6  2  0
  5  7  1  0
  7  8  1  0
  8  9  1  0
  9 10  1  0
 10 11  1  0
 11 12  1  6
 11 13  1  0
 13 14  2  0
 13 15  1  0
  2 16  1  0
 16 17  1  6
 17 18  1  0
 19 18  1  6
 19 20  1  0
 20 21  1  1
 21 22  1  6
 21 23  1  0
 24 23  1  1
 24 25  1  0
 25 26  1  0
 26 27  1  6
 26 28  1  0
 28 29  1  0
 29 30  1  0
 30 31  1  6
 30 32  1  0
 32 33  1  6
 33 34  1  0
 34 35  1  0
 35 36  1  6
 35 16  1  0
 35 19  1  0
 32 20  1  0
 30 24  1  0
M  END
>  <MS_ID>  (3273) 
MS3410

>  <SMILES>  (3273) 
C[C@H](CCC(=O)NCCC[C@H](N)C(=O)O)[C@H]1CC[C@H]2[C@@H]3[C@@H](O)C[C@@H]4C[C@@H](O)CC[C@]4(C)[C@H]3CC[C@]12C

>  <Structure_dimension>  (3273) 
2D

$$$$
MS3411
     RDKit          2D

 32 36  0  0  0  0  0  0  0  0999 V2000
   -3.9957   -2.3161    0.0000 C   0  0  0  0  0  0  0  0  0  0  0  0
   -2.8654   -1.3299    0.0000 C   0  0  0  0  0  0  0  0  0  0  0  0
   -3.1543    0.1420    0.0000 C   0  0  0  0  0  0  0  0  0  0  0  0
   -4.5735    0.6277    0.0000 C   0  0  0  0  0  0  0  0  0  0  0  0
   -4.8624    2.0996    0.0000 C   0  0  0  0  0  0  0  0  0  0  0  0
   -6.2816    2.5854    0.0000 C   0  0  0  0  0  0  0  0  0  0  0  0
   -6.5705    4.0573    0.0000 O   0  0  0  0  0  0  0  0  0  0  0  0
   -7.4118    1.5992    0.0000 C   0  0  0  0  0  0  0  0  0  0  0  0
   -7.1229    0.1273    0.0000 C   0  0  0  0  0  0  0  0  0  0  0  0
   -5.7038   -0.3584    0.0000 C   0  0  0  0  0  0  0  0  0  0  0  0
   -5.4148   -1.8304    0.0000 O   0  0  0  0  0  0  0  0  0  0  0  0
   -1.4462   -1.8157    0.0000 C   0  0  0  0  0  0  0  0  0  0  0  0
   -1.0051   -3.2493    0.0000 C   0  0  0  0  0  0  0  0  0  0  0  0
    0.4948   -3.2728    0.0000 C   0  0  0  0  0  0  0  0  0  0  0  0
    0.9805   -1.8536    0.0000 C   0  0  0  0  0  0  0  0  0  0  0  0
    2.3602   -1.2650    0.0000 C   0  0  0  0  0  0  0  0  0  0  0  0
    3.5598   -2.1655    0.0000 C   0  0  0  0  0  0  0  0  0  0  0  0
    3.3797   -3.6546    0.0000 O   0  0  0  0  0  0  0  0  0  0  0  0
    4.9395   -1.5769    0.0000 C   0  0  0  0  0  0  0  0  0  0  0  0
    5.1196   -0.0877    0.0000 C   0  0  0  0  0  0  0  0  0  0  0  0
    6.4992    0.5009    0.0000 C   0  0  0  0  0  0  0  0  0  0  0  0
    6.6793    1.9901    0.0000 C   0  0  0  0  0  0  0  0  0  0  0  0
    8.0590    2.5787    0.0000 O   0  0  0  0  0  0  0  0  0  0  0  0
    5.4797    2.8906    0.0000 C   0  0  0  0  0  0  0  0  0  0  0  0
    4.1000    2.3020    0.0000 C   0  0  0  0  0  0  0  0  0  0  0  0
    3.9199    0.8128    0.0000 C   0  0  0  0  0  0  0  0  0  0  0  0
    2.7203    1.7133    0.0000 C   0  0  0  0  0  0  0  0  0  0  0  0
    2.5403    0.2242    0.0000 C   0  0  0  0  0  0  0  0  0  0  0  0
    1.3407    1.1247    0.0000 C   0  0  0  0  0  0  0  0  0  0  0  0
   -0.0390    0.5361    0.0000 C   0  0  0  0  0  0  0  0  0  0  0  0
   -0.2191   -0.9531    0.0000 C   0  0  0  0  0  0  0  0  0  0  0  0
   -1.5063   -0.1829    0.0000 C   0  0  0  0  0  0  0  0  0  0  0  0
  2  1  1  6
  2  3  1  0
  3  4  1  0
  4  5  2  0
  5  6  1  0
  6  7  1  0
  6  8  2  0
  8  9  1  0
  9 10  2  0
 10 11  1  0
  2 12  1  0
 12 13  1  6
 13 14  1  0
 15 14  1  6
 15 16  1  0
 16 17  1  1
 17 18  1  6
 17 19  1  0
 20 19  1  1
 20 21  1  0
 21 22  1  0
 22 23  1  1
 22 24  1  0
 24 25  1  0
 25 26  1  0
 26 27  1  6
 26 28  1  0
 28 29  1  6
 29 30  1  0
 30 31  1  0
 31 32  1  6
 10  4  1  0
 31 12  1  0
 31 15  1  0
 28 16  1  0
 26 20  1  0
M  END
>  <MS_ID>  (3274) 
MS3411

>  <SMILES>  (3274) 
C[C@H](Cc1cc(O)ccc1O)[C@H]1CC[C@H]2[C@@H]3[C@@H](O)C[C@@H]4C[C@H](O)CC[C@]4(C)[C@H]3CC[C@]12C

>  <Structure_dimension>  (3274) 
2D

$$$$
MS3412
     RDKit          2D

 34 37  0  0  0  0  0  0  0  0999 V2000
    6.8796   -1.9936    0.0000 C   0  0  0  0  0  0  0  0  0  0  0  0
    5.4522   -1.5326    0.0000 C   0  0  0  0  0  0  0  0  0  0  0  0
    5.1377   -0.0660    0.0000 C   0  0  0  0  0  0  0  0  0  0  0  0
    6.2506    0.9397    0.0000 O   0  0  0  0  0  0  0  0  0  0  0  0
    3.7103    0.3950    0.0000 C   0  0  0  0  0  0  0  0  0  0  0  0
    2.5973   -0.6107    0.0000 O   0  0  0  0  0  0  0  0  0  0  0  0
    3.3958    1.8617    0.0000 C   0  0  0  0  0  0  0  0  0  0  0  0
    4.5087    2.8674    0.0000 C   0  0  0  0  0  0  0  0  0  0  0  0
    1.9684    2.3227    0.0000 C   0  0  0  0  0  0  0  0  0  0  0  0
    1.5023    3.7484    0.0000 C   0  0  0  0  0  0  0  0  0  0  0  0
    0.0023    3.7458    0.0000 C   0  0  0  0  0  0  0  0  0  0  0  0
   -0.4587    2.3184    0.0000 C   0  0  0  0  0  0  0  0  0  0  0  0
   -1.8279    1.7058    0.0000 C   0  0  0  0  0  0  0  0  0  0  0  0
   -3.0430    2.5853    0.0000 C   0  0  0  0  0  0  0  0  0  0  0  0
   -4.4122    1.9728    0.0000 C   0  0  0  0  0  0  0  0  0  0  0  0
   -5.6273    2.8523    0.0000 O   0  0  0  0  0  0  0  0  0  0  0  0
   -4.5663    0.4807    0.0000 C   0  0  0  0  0  0  0  0  0  0  0  0
   -5.9356   -0.1318    0.0000 C   0  0  0  0  0  0  0  0  0  0  0  0
   -6.0897   -1.6239    0.0000 C   0  0  0  0  0  0  0  0  0  0  0  0
   -7.4589   -2.2364    0.0000 O   0  0  0  0  0  0  0  0  0  0  0  0
   -4.8746   -2.5034    0.0000 C   0  0  0  0  0  0  0  0  0  0  0  0
   -5.0288   -3.9955    0.0000 O   0  0  0  0  0  0  0  0  0  0  0  0
   -3.5054   -1.8909    0.0000 C   0  0  0  0  0  0  0  0  0  0  0  0
   -3.3513   -0.3988    0.0000 C   0  0  0  0  0  0  0  0  0  0  0  0
   -2.1362   -1.2783    0.0000 C   0  0  0  0  0  0  0  0  0  0  0  0
   -1.9820    0.2137    0.0000 C   0  0  0  0  0  0  0  0  0  0  0  0
   -0.7669   -0.6658    0.0000 C   0  0  0  0  0  0  0  0  0  0  0  0
    0.6023   -0.0532    0.0000 C   0  0  0  0  0  0  0  0  0  0  0  0
    0.7564    1.4388    0.0000 C   0  0  0  0  0  0  0  0  0  0  0  0
    2.0568    0.6912    0.0000 C   0  0  0  0  0  0  0  0  0  0  0  0
    4.3392   -2.5383    0.0000 C   0  0  0  0  0  0  0  0  0  0  0  0
    5.3449   -3.6512    0.0000 C   0  0  0  0  0  0  0  0  0  0  0  0
    3.3336   -1.4254    0.0000 C   0  0  0  0  0  0  0  0  0  0  0  0
    3.2263   -3.5440    0.0000 C   0  0  0  0  0  0  0  0  0  0  0  0
  1  2  2  0
  2  3  1  0
  3  4  1  6
  3  5  1  0
  5  6  1  6
  5  7  1  0
  7  8  1  6
  7  9  1  0
  9 10  1  6
 10 11  1  0
 12 11  1  6
 12 13  1  0
 13 14  1  1
 14 15  1  0
 15 16  2  0
 15 17  1  0
 17 18  1  6
 18 19  1  0
 19 20  1  1
 19 21  1  0
 21 22  1  6
 21 23  1  0
 23 24  1  0
 24 25  1  6
 24 26  1  0
 26 27  1  6
 27 28  1  0
 28 29  1  0
 29 30  1  6
  2 31  1  0
 31 32  1  0
 31 33  1  0
 31 34  1  0
 29  9  1  0
 29 12  1  0
 26 13  1  0
 24 17  1  0
M  END
>  <MS_ID>  (3275) 
MS3412

>  <SMILES>  (3275) 
C=C([C@@H](O)[C@H](O)[C@@H](C)[C@H]1CC[C@H]2[C@@H]3CC(=O)[C@H]4C[C@H](O)[C@@H](O)C[C@]4(C)[C@H]3CC[C@]12C)C(C)(C)C

>  <Structure_dimension>  (3275) 
2D

$$$$
MS3413
     RDKit          2D

 36 39  0  0  0  0  0  0  0  0999 V2000
   -1.4661   -4.5685    0.0000 C   0  0  0  0  0  0  0  0  0  0  0  0
   -0.7821   -3.2335    0.0000 C   0  0  0  0  0  0  0  0  0  0  0  0
   -1.5963   -1.9736    0.0000 C   0  0  0  0  0  0  0  0  0  0  0  0
   -3.0944   -2.0488    0.0000 C   0  0  0  0  0  0  0  0  0  0  0  0
   -3.9085   -0.7889    0.0000 C   0  0  0  0  0  0  0  0  0  0  0  0
   -3.2245    0.5460    0.0000 O   0  0  0  0  0  0  0  0  0  0  0  0
   -5.4066   -0.8641    0.0000 N   0  0  0  0  0  0  0  0  0  0  0  0
   -6.2208    0.3958    0.0000 C   0  0  0  0  0  0  0  0  0  0  0  0
   -7.7189    0.3206    0.0000 C   0  0  0  0  0  0  0  0  0  0  0  0
   -8.5330    1.5804    0.0000 C   0  0  0  0  0  0  0  0  0  0  0  0
  -10.0311    1.5053    0.0000 C   0  0  0  0  0  0  0  0  0  0  0  0
  -10.8453    2.7651    0.0000 N   0  0  0  0  0  0  0  0  0  0  0  0
   -5.5368    1.7307    0.0000 C   0  0  0  0  0  0  0  0  0  0  0  0
   -4.0387    1.8059    0.0000 O   0  0  0  0  0  0  0  0  0  0  0  0
   -6.3509    2.9906    0.0000 O   0  0  0  0  0  0  0  0  0  0  0  0
    0.7160   -3.1583    0.0000 C   0  0  0  0  0  0  0  0  0  0  0  0
    1.6574   -4.3262    0.0000 C   0  0  0  0  0  0  0  0  0  0  0  0
    3.0589   -3.7918    0.0000 C   0  0  0  0  0  0  0  0  0  0  0  0
    2.9838   -2.2937    0.0000 C   0  0  0  0  0  0  0  0  0  0  0  0
    4.0468   -1.2354    0.0000 C   0  0  0  0  0  0  0  0  0  0  0  0
    5.4948   -1.6269    0.0000 C   0  0  0  0  0  0  0  0  0  0  0  0
    6.5579   -0.5686    0.0000 C   0  0  0  0  0  0  0  0  0  0  0  0
    6.1729    0.8812    0.0000 C   0  0  0  0  0  0  0  0  0  0  0  0
    7.2359    1.9394    0.0000 C   0  0  0  0  0  0  0  0  0  0  0  0
    6.8510    3.3892    0.0000 C   0  0  0  0  0  0  0  0  0  0  0  0
    7.9140    4.4475    0.0000 O   0  0  0  0  0  0  0  0  0  0  0  0
    5.4030    3.7807    0.0000 C   0  0  0  0  0  0  0  0  0  0  0  0
    4.3399    2.7224    0.0000 C   0  0  0  0  0  0  0  0  0  0  0  0
    4.7249    1.2727    0.0000 C   0  0  0  0  0  0  0  0  0  0  0  0
    3.2769    1.6641    0.0000 C   0  0  0  0  0  0  0  0  0  0  0  0
    3.6618    0.2144    0.0000 C   0  0  0  0  0  0  0  0  0  0  0  0
    2.2138    0.6059    0.0000 C   0  0  0  0  0  0  0  0  0  0  0  0
    1.1508   -0.4524    0.0000 C   0  0  0  0  0  0  0  0  0  0  0  0
   -0.2972   -0.0609    0.0000 O   0  0  0  0  0  0  0  0  0  0  0  0
    1.5358   -1.9022    0.0000 C   0  0  0  0  0  0  0  0  0  0  0  0
    0.0548   -1.6642    0.0000 C   0  0  0  0  0  0  0  0  0  0  0  0
  2  1  1  6
  2  3  1  0
  3  4  1  0
  4  5  1  0
  5  6  2  0
  5  7  1  0
  7  8  1  0
  8  9  1  1
  9 10  1  0
 10 11  1  0
 11 12  1  0
  8 13  1  0
 13 14  2  0
 13 15  1  0
  2 16  1  0
 16 17  1  6
 17 18  1  0
 19 18  1  6
 19 20  1  0
 20 21  1  1
 21 22  1  0
 23 22  1  1
 23 24  1  0
 24 25  1  0
 25 26  1  1
 25 27  1  0
 27 28  1  0
 28 29  1  0
 29 30  1  6
 29 31  1  0
 31 32  1  6
 32 33  1  0
 33 34  1  1
 33 35  1  0
 35 36  1  6
 35 16  1  0
 35 19  1  0
 31 20  1  0
 29 23  1  0
M  END
>  <MS_ID>  (3276) 
MS3413

>  <SMILES>  (3276) 
C[C@H](CCC(=O)N[C@@H](CCCN)C(=O)O)[C@H]1CC[C@H]2[C@@H]3CC[C@@H]4C[C@H](O)CC[C@]4(C)[C@H]3C[C@H](O)[C@]12C

>  <Structure_dimension>  (3276) 
2D

$$$$
MS3414
     RDKit          2D

 29 32  0  0  0  0  0  0  0  0999 V2000
   -4.5495   -2.5275    0.0000 C   0  0  0  0  0  0  0  0  0  0  0  0
   -3.4499   -1.5073    0.0000 C   0  0  0  0  0  0  0  0  0  0  0  0
   -3.7837   -0.0449    0.0000 C   0  0  0  0  0  0  0  0  0  0  0  0
   -5.2171    0.3972    0.0000 S   0  0  0  0  0  0  0  0  0  0  0  0
   -5.5509    1.8596    0.0000 C   0  0  0  0  0  0  0  0  0  0  0  0
   -6.9843    2.3017    0.0000 C   0  0  0  0  0  0  0  0  0  0  0  0
   -8.0838    1.2815    0.0000 O   0  0  0  0  0  0  0  0  0  0  0  0
   -7.3181    3.7641    0.0000 O   0  0  0  0  0  0  0  0  0  0  0  0
   -2.0166   -1.9494    0.0000 C   0  0  0  0  0  0  0  0  0  0  0  0
   -1.5317   -3.3689    0.0000 C   0  0  0  0  0  0  0  0  0  0  0  0
   -0.0319   -3.3464    0.0000 C   0  0  0  0  0  0  0  0  0  0  0  0
    0.4102   -1.9130    0.0000 C   0  0  0  0  0  0  0  0  0  0  0  0
    1.7712   -1.2825    0.0000 C   0  0  0  0  0  0  0  0  0  0  0  0
    2.9978   -2.1459    0.0000 C   0  0  0  0  0  0  0  0  0  0  0  0
    2.8634   -3.6398    0.0000 O   0  0  0  0  0  0  0  0  0  0  0  0
    4.3589   -1.5153    0.0000 C   0  0  0  0  0  0  0  0  0  0  0  0
    4.4933   -0.0214    0.0000 C   0  0  0  0  0  0  0  0  0  0  0  0
    5.8543    0.6092    0.0000 C   0  0  0  0  0  0  0  0  0  0  0  0
    5.9888    2.1032    0.0000 C   0  0  0  0  0  0  0  0  0  0  0  0
    7.3498    2.7337    0.0000 O   0  0  0  0  0  0  0  0  0  0  0  0
    4.7622    2.9666    0.0000 C   0  0  0  0  0  0  0  0  0  0  0  0
    3.4011    2.3360    0.0000 C   0  0  0  0  0  0  0  0  0  0  0  0
    3.2667    0.8420    0.0000 C   0  0  0  0  0  0  0  0  0  0  0  0
    2.0401    1.7055    0.0000 C   0  0  0  0  0  0  0  0  0  0  0  0
    1.9057    0.2115    0.0000 C   0  0  0  0  0  0  0  0  0  0  0  0
    0.6791    1.0749    0.0000 C   0  0  0  0  0  0  0  0  0  0  0  0
   -0.6820    0.4443    0.0000 C   0  0  0  0  0  0  0  0  0  0  0  0
   -0.8164   -1.0496    0.0000 C   0  0  0  0  0  0  0  0  0  0  0  0
   -2.1265   -0.3192    0.0000 C   0  0  0  0  0  0  0  0  0  0  0  0
  2  1  1  6
  2  3  1  0
  3  4  1  0
  4  5  1  0
  5  6  1  0
  6  7  2  0
  6  8  1  0
  2  9  1  0
  9 10  1  6
 10 11  1  0
 12 11  1  6
 12 13  1  0
 13 14  1  1
 14 15  1  6
 14 16  1  0
 17 16  1  1
 17 18  1  0
 18 19  1  0
 19 20  1  1
 19 21  1  0
 21 22  1  0
 22 23  1  0
 23 24  1  6
 23 25  1  0
 25 26  1  6
 26 27  1  0
 27 28  1  0
 28 29  1  6
 28  9  1  0
 28 12  1  0
 25 13  1  0
 23 17  1  0
M  END
>  <MS_ID>  (3277) 
MS3414

>  <SMILES>  (3277) 
C[C@H](CSCC(=O)O)[C@H]1CC[C@H]2[C@@H]3[C@@H](O)C[C@@H]4C[C@H](O)CC[C@]4(C)[C@H]3CC[C@]12C

>  <Structure_dimension>  (3277) 
2D

$$$$
MS3416
     RDKit          2D

 31 34  0  0  0  0  0  0  0  0999 V2000
   -3.3188   -3.5753    0.0000 C   0  0  0  0  0  0  0  0  0  0  0  0
   -2.4246   -2.3710    0.0000 C   0  0  0  0  0  0  0  0  0  0  0  0
   -3.0204   -0.9944    0.0000 C   0  0  0  0  0  0  0  0  0  0  0  0
   -4.5104   -0.8221    0.0000 C   0  0  0  0  0  0  0  0  0  0  0  0
   -5.1063    0.5545    0.0000 S   0  0  0  0  0  0  0  0  0  0  0  0
   -6.5963    0.7268    0.0000 C   0  0  0  0  0  0  0  0  0  0  0  0
   -7.1921    2.1034    0.0000 C   0  0  0  0  0  0  0  0  0  0  0  0
   -8.6822    2.2757    0.0000 C   0  0  0  0  0  0  0  0  0  0  0  0
   -9.5765    1.0714    0.0000 O   0  0  0  0  0  0  0  0  0  0  0  0
   -9.2780    3.6523    0.0000 O   0  0  0  0  0  0  0  0  0  0  0  0
   -0.9345   -2.5433    0.0000 C   0  0  0  0  0  0  0  0  0  0  0  0
   -0.1981   -3.8501    0.0000 C   0  0  0  0  0  0  0  0  0  0  0  0
    1.2723   -3.5535    0.0000 C   0  0  0  0  0  0  0  0  0  0  0  0
    1.4446   -2.0635    0.0000 C   0  0  0  0  0  0  0  0  0  0  0  0
    2.6673   -1.1945    0.0000 C   0  0  0  0  0  0  0  0  0  0  0  0
    4.0312   -1.8188    0.0000 C   0  0  0  0  0  0  0  0  0  0  0  0
    4.1724   -3.3121    0.0000 O   0  0  0  0  0  0  0  0  0  0  0  0
    5.2538   -0.9498    0.0000 C   0  0  0  0  0  0  0  0  0  0  0  0
    5.1126    0.5435    0.0000 C   0  0  0  0  0  0  0  0  0  0  0  0
    6.3352    1.4125    0.0000 C   0  0  0  0  0  0  0  0  0  0  0  0
    6.1939    2.9059    0.0000 C   0  0  0  0  0  0  0  0  0  0  0  0
    7.4166    3.7749    0.0000 O   0  0  0  0  0  0  0  0  0  0  0  0
    4.8300    3.5302    0.0000 C   0  0  0  0  0  0  0  0  0  0  0  0
    3.6074    2.6612    0.0000 C   0  0  0  0  0  0  0  0  0  0  0  0
    3.7487    1.1679    0.0000 C   0  0  0  0  0  0  0  0  0  0  0  0
    2.3848    1.7922    0.0000 C   0  0  0  0  0  0  0  0  0  0  0  0
    2.5260    0.2989    0.0000 C   0  0  0  0  0  0  0  0  0  0  0  0
    1.1621    0.9232    0.0000 C   0  0  0  0  0  0  0  0  0  0  0  0
   -0.0605    0.0542    0.0000 C   0  0  0  0  0  0  0  0  0  0  0  0
    0.0807   -1.4391    0.0000 C   0  0  0  0  0  0  0  0  0  0  0  0
   -1.3409   -0.9608    0.0000 C   0  0  0  0  0  0  0  0  0  0  0  0
  2  1  1  6
  2  3  1  0
  3  4  1  0
  4  5  1  0
  5  6  1  0
  6  7  1  0
  7  8  1  0
  8  9  2  0
  8 10  1  0
  2 11  1  0
 11 12  1  6
 12 13  1  0
 14 13  1  6
 14 15  1  0
 15 16  1  1
 16 17  1  6
 16 18  1  0
 19 18  1  1
 19 20  1  0
 20 21  1  0
 21 22  1  1
 21 23  1  0
 23 24  1  0
 24 25  1  0
 25 26  1  6
 25 27  1  0
 27 28  1  6
 28 29  1  0
 29 30  1  0
 30 31  1  6
 30 11  1  0
 30 14  1  0
 27 15  1  0
 25 19  1  0
M  END
>  <MS_ID>  (3278) 
MS3416

>  <SMILES>  (3278) 
C[C@H](CCSCCC(=O)O)[C@H]1CC[C@H]2[C@@H]3[C@@H](O)C[C@@H]4C[C@H](O)CC[C@]4(C)[C@H]3CC[C@]12C

>  <Structure_dimension>  (3278) 
2D

$$$$
MS3417
     RDKit          2D

 40 44  0  0  0  0  0  0  0  0999 V2000
   -0.6480   -4.8190    0.0000 C   0  0  0  0  0  0  0  0  0  0  0  0
   -0.1038   -3.4212    0.0000 C   0  0  0  0  0  0  0  0  0  0  0  0
   -1.0423   -2.2510    0.0000 C   0  0  0  0  0  0  0  0  0  0  0  0
   -2.5249   -2.4786    0.0000 C   0  0  0  0  0  0  0  0  0  0  0  0
   -3.4633   -1.3085    0.0000 C   0  0  0  0  0  0  0  0  0  0  0  0
   -2.9191    0.0893    0.0000 O   0  0  0  0  0  0  0  0  0  0  0  0
   -4.9460   -1.5361    0.0000 N   0  0  0  0  0  0  0  0  0  0  0  0
   -5.8844   -0.3659    0.0000 C   0  0  0  0  0  0  0  0  0  0  0  0
   -7.3670   -0.5935    0.0000 C   0  0  0  0  0  0  0  0  0  0  0  0
   -7.9112   -1.9913    0.0000 O   0  0  0  0  0  0  0  0  0  0  0  0
   -8.3055    0.5767    0.0000 N   0  0  0  0  0  0  0  0  0  0  0  0
   -9.8038    0.5053    0.0000 C   0  0  0  0  0  0  0  0  0  0  0  0
  -10.3347    1.9082    0.0000 C   0  0  0  0  0  0  0  0  0  0  0  0
   -9.1645    2.8466    0.0000 C   0  0  0  0  0  0  0  0  0  0  0  0
   -7.9104    2.0237    0.0000 C   0  0  0  0  0  0  0  0  0  0  0  0
   -6.5074    2.5546    0.0000 C   0  0  0  0  0  0  0  0  0  0  0  0
   -5.3462    1.6051    0.0000 O   0  0  0  0  0  0  0  0  0  0  0  0
   -6.2658    4.0350    0.0000 O   0  0  0  0  0  0  0  0  0  0  0  0
    1.3788   -3.1936    0.0000 C   0  0  0  0  0  0  0  0  0  0  0  0
    2.4344   -4.2593    0.0000 C   0  0  0  0  0  0  0  0  0  0  0  0
    3.7742   -3.5846    0.0000 C   0  0  0  0  0  0  0  0  0  0  0  0
    3.5465   -2.1020    0.0000 C   0  0  0  0  0  0  0  0  0  0  0  0
    4.4960   -0.9408    0.0000 C   0  0  0  0  0  0  0  0  0  0  0  0
    5.9764   -1.1825    0.0000 C   0  0  0  0  0  0  0  0  0  0  0  0
    6.5073   -2.5854    0.0000 O   0  0  0  0  0  0  0  0  0  0  0  0
    6.9259   -0.0212    0.0000 C   0  0  0  0  0  0  0  0  0  0  0  0
    8.4063   -0.2629    0.0000 O   0  0  0  0  0  0  0  0  0  0  0  0
    6.3950    1.3817    0.0000 C   0  0  0  0  0  0  0  0  0  0  0  0
    7.3445    2.5429    0.0000 C   0  0  0  0  0  0  0  0  0  0  0  0
    6.8136    3.9458    0.0000 C   0  0  0  0  0  0  0  0  0  0  0  0
    7.7632    5.1070    0.0000 O   0  0  0  0  0  0  0  0  0  0  0  0
    5.3332    4.1875    0.0000 C   0  0  0  0  0  0  0  0  0  0  0  0
    4.3837    3.0262    0.0000 C   0  0  0  0  0  0  0  0  0  0  0  0
    4.9146    1.6233    0.0000 C   0  0  0  0  0  0  0  0  0  0  0  0
    3.4342    1.8650    0.0000 C   0  0  0  0  0  0  0  0  0  0  0  0
    3.9651    0.4621    0.0000 C   0  0  0  0  0  0  0  0  0  0  0  0
    2.4847    0.7038    0.0000 C   0  0  0  0  0  0  0  0  0  0  0  0
    1.5352   -0.4574    0.0000 C   0  0  0  0  0  0  0  0  0  0  0  0
    2.0661   -1.8603    0.0000 C   0  0  0  0  0  0  0  0  0  0  0  0
    0.5686   -1.7747    0.0000 C   0  0  0  0  0  0  0  0  0  0  0  0
  2  1  1  6
  2  3  1  0
  3  4  1  0
  4  5  1  0
  5  6  2  0
  5  7  1  0
  7  8  1  0
  8  9  1  0
  9 10  2  0
  9 11  1  0
 11 12  1  0
 12 13  1  0
 13 14  1  0
 14 15  1  0
 15 16  1  1
 16 17  2  0
 16 18  1  0
  2 19  1  0
 19 20  1  6
 20 21  1  0
 22 21  1  6
 22 23  1  0
 23 24  1  1
 24 25  1  1
 24 26  1  0
 26 27  1  6
 26 28  1  0
 28 29  1  1
 29 30  1  0
 30 31  1  1
 30 32  1  0
 32 33  1  0
 33 34  1  0
 34 35  1  6
 34 36  1  0
 36 37  1  6
 37 38  1  0
 38 39  1  0
 39 40  1  6
 15 11  1  0
 39 19  1  0
 39 22  1  0
 36 23  1  0
 34 28  1  0
M  END
>  <MS_ID>  (3279) 
MS3417

>  <SMILES>  (3279) 
C[C@H](CCC(=O)NCC(=O)N1CCC[C@H]1C(=O)O)[C@H]1CC[C@H]2[C@@H]3[C@H](O)[C@@H](O)[C@@H]4C[C@H](O)CC[C@]4(C)[C@H]3CC[C@]12C

>  <Structure_dimension>  (3279) 
2D

$$$$
MS3419
     RDKit          2D

 24 27  0  0  0  0  0  0  0  0999 V2000
   -6.1877   -0.1229    0.0000 C   0  0  0  0  0  0  0  0  0  0  0  0
   -4.7954    0.4353    0.0000 C   0  0  0  0  0  0  0  0  0  0  0  0
   -4.5826    1.9201    0.0000 O   0  0  0  0  0  0  0  0  0  0  0  0
   -3.6159   -0.4914    0.0000 C   0  0  0  0  0  0  0  0  0  0  0  0
   -3.6723   -1.9904    0.0000 C   0  0  0  0  0  0  0  0  0  0  0  0
   -2.2641   -2.5072    0.0000 C   0  0  0  0  0  0  0  0  0  0  0  0
   -1.3374   -1.3277    0.0000 C   0  0  0  0  0  0  0  0  0  0  0  0
    0.1592   -1.2271    0.0000 C   0  0  0  0  0  0  0  0  0  0  0  0
    0.9946   -2.4730    0.0000 C   0  0  0  0  0  0  0  0  0  0  0  0
    2.4912   -2.3724    0.0000 C   0  0  0  0  0  0  0  0  0  0  0  0
    3.1524   -1.0260    0.0000 C   0  0  0  0  0  0  0  0  0  0  0  0
    4.6491   -0.9254    0.0000 C   0  0  0  0  0  0  0  0  0  0  0  0
    5.3103    0.4210    0.0000 C   0  0  0  0  0  0  0  0  0  0  0  0
    6.8069    0.5216    0.0000 O   0  0  0  0  0  0  0  0  0  0  0  0
    4.4749    1.6668    0.0000 C   0  0  0  0  0  0  0  0  0  0  0  0
    2.9782    1.5662    0.0000 C   0  0  0  0  0  0  0  0  0  0  0  0
    2.3170    0.2198    0.0000 C   0  0  0  0  0  0  0  0  0  0  0  0
    1.4816    1.4657    0.0000 C   0  0  0  0  0  0  0  0  0  0  0  0
    0.8204    0.1193    0.0000 C   0  0  0  0  0  0  0  0  0  0  0  0
   -0.0150    1.3651    0.0000 C   0  0  0  0  0  0  0  0  0  0  0  0
   -1.5116    1.2645    0.0000 C   0  0  0  0  0  0  0  0  0  0  0  0
   -2.3471    2.5103    0.0000 O   0  0  0  0  0  0  0  0  0  0  0  0
   -2.1729   -0.0819    0.0000 C   0  0  0  0  0  0  0  0  0  0  0  0
   -3.1339    1.0698    0.0000 C   0  0  0  0  0  0  0  0  0  0  0  0
  1  2  1  0
  2  3  2  0
  4  2  1  6
  4  5  1  0
  5  6  1  0
  7  6  1  6
  7  8  1  0
  8  9  1  1
  9 10  1  0
 11 10  1  1
 11 12  1  0
 12 13  1  0
 13 14  1  6
 13 15  1  0
 15 16  1  0
 16 17  1  0
 17 18  1  6
 17 19  1  0
 19 20  1  6
 20 21  1  0
 21 22  1  6
 21 23  1  0
 23 24  1  6
 23  4  1  0
 23  7  1  0
 19  8  1  0
 17 11  1  0
M  END
>  <MS_ID>  (3280) 
MS3419

>  <SMILES>  (3280) 
CC(=O)[C@H]1CC[C@H]2[C@@H]3CC[C@@H]4C[C@@H](O)CC[C@]4(C)[C@H]3C[C@@H](O)[C@]12C

>  <Structure_dimension>  (3280) 
2D

$$$$
MS3420
     RDKit          2D

 32 35  0  0  0  0  0  0  0  0999 V2000
   -8.8037    1.6275    0.0000 C   0  0  0  0  0  0  0  0  0  0  0  0
   -7.3067    1.5316    0.0000 C   0  0  0  0  0  0  0  0  0  0  0  0
   -6.6413    0.1873    0.0000 C   0  0  0  0  0  0  0  0  0  0  0  0
   -5.1444    0.0914    0.0000 C   0  0  0  0  0  0  0  0  0  0  0  0
   -4.4790   -1.2529    0.0000 C   0  0  0  0  0  0  0  0  0  0  0  0
   -2.9820   -1.3488    0.0000 C   0  0  0  0  0  0  0  0  0  0  0  0
   -2.3166   -2.6931    0.0000 C   0  0  0  0  0  0  0  0  0  0  0  0
   -3.1481   -3.9416    0.0000 C   0  0  0  0  0  0  0  0  0  0  0  0
   -0.8197   -2.7890    0.0000 C   0  0  0  0  0  0  0  0  0  0  0  0
   -0.0174   -4.0564    0.0000 C   0  0  0  0  0  0  0  0  0  0  0  0
    1.4359   -3.6850    0.0000 C   0  0  0  0  0  0  0  0  0  0  0  0
    1.5318   -2.1881    0.0000 C   0  0  0  0  0  0  0  0  0  0  0  0
    2.7084   -1.2577    0.0000 C   0  0  0  0  0  0  0  0  0  0  0  0
    4.1024   -1.8115    0.0000 C   0  0  0  0  0  0  0  0  0  0  0  0
    4.3199   -3.2957    0.0000 O   0  0  0  0  0  0  0  0  0  0  0  0
    5.2790   -0.8811    0.0000 C   0  0  0  0  0  0  0  0  0  0  0  0
    5.0616    0.6030    0.0000 C   0  0  0  0  0  0  0  0  0  0  0  0
    6.2382    1.5334    0.0000 C   0  0  0  0  0  0  0  0  0  0  0  0
    6.0208    3.0176    0.0000 C   0  0  0  0  0  0  0  0  0  0  0  0
    7.1974    3.9479    0.0000 O   0  0  0  0  0  0  0  0  0  0  0  0
    4.6267    3.5713    0.0000 C   0  0  0  0  0  0  0  0  0  0  0  0
    3.4501    2.6410    0.0000 C   0  0  0  0  0  0  0  0  0  0  0  0
    3.6676    1.1568    0.0000 C   0  0  0  0  0  0  0  0  0  0  0  0
    2.2735    1.7106    0.0000 C   0  0  0  0  0  0  0  0  0  0  0  0
    2.4910    0.2264    0.0000 C   0  0  0  0  0  0  0  0  0  0  0  0
    1.0969    0.7802    0.0000 C   0  0  0  0  0  0  0  0  0  0  0  0
   -0.0797   -0.1502    0.0000 C   0  0  0  0  0  0  0  0  0  0  0  0
    0.1378   -1.6343    0.0000 C   0  0  0  0  0  0  0  0  0  0  0  0
   -1.3065   -1.2293    0.0000 C   0  0  0  0  0  0  0  0  0  0  0  0
   -6.4752    2.7801    0.0000 C   0  0  0  0  0  0  0  0  0  0  0  0
   -4.9783    2.6842    0.0000 O   0  0  0  0  0  0  0  0  0  0  0  0
   -7.1406    4.1244    0.0000 O   0  0  0  0  0  0  0  0  0  0  0  0
  2  1  1  1
  2  3  1  0
  3  4  1  0
  4  5  1  0
  5  6  1  0
  6  7  1  0
  7  8  1  6
  7  9  1  0
  9 10  1  6
 10 11  1  0
 12 11  1  6
 12 13  1  0
 13 14  1  1
 14 15  1  6
 14 16  1  0
 17 16  1  1
 17 18  1  0
 18 19  1  0
 19 20  1  1
 19 21  1  0
 21 22  1  0
 22 23  1  0
 23 24  1  6
 23 25  1  0
 25 26  1  6
 26 27  1  0
 27 28  1  0
 28 29  1  6
  2 30  1  0
 30 31  2  0
 30 32  1  0
 28  9  1  0
 28 12  1  0
 25 13  1  0
 23 17  1  0
M  END
>  <MS_ID>  (3281) 
MS3420

>  <SMILES>  (3281) 
C[C@H](CCCC[C@@H](C)[C@H]1CC[C@H]2[C@@H]3[C@@H](O)C[C@@H]4C[C@H](O)CC[C@]4(C)[C@H]3CC[C@]12C)C(=O)O

>  <Structure_dimension>  (3281) 
2D

$$$$
MS3421
     RDKit          2D

 22 25  0  0  0  0  0  0  0  0999 V2000
    1.2125   -1.5642    0.0000 C   0  0  0  0  0  0  0  0  0  0  0  0
    1.9406   -0.2528    0.0000 C   0  0  0  0  0  0  0  0  0  0  0  0
    2.7123   -1.5390    0.0000 C   0  0  0  0  0  0  0  0  0  0  0  0
    4.2121   -1.5138    0.0000 C   0  0  0  0  0  0  0  0  0  0  0  0
    4.9402   -0.2024    0.0000 C   0  0  0  0  0  0  0  0  0  0  0  0
    6.4400   -0.1772    0.0000 O   0  0  0  0  0  0  0  0  0  0  0  0
    4.1685    1.0839    0.0000 C   0  0  0  0  0  0  0  0  0  0  0  0
    2.6687    1.0587    0.0000 C   0  0  0  0  0  0  0  0  0  0  0  0
    1.8970    2.3449    0.0000 C   0  0  0  0  0  0  0  0  0  0  0  0
    0.3972    2.3198    0.0000 C   0  0  0  0  0  0  0  0  0  0  0  0
   -0.3309    1.0083    0.0000 C   0  0  0  0  0  0  0  0  0  0  0  0
    0.4408   -0.2779    0.0000 C   0  0  0  0  0  0  0  0  0  0  0  0
   -0.2873   -1.5894    0.0000 C   0  0  0  0  0  0  0  0  0  0  0  0
   -1.7871   -1.6146    0.0000 C   0  0  0  0  0  0  0  0  0  0  0  0
   -2.5588   -0.3283    0.0000 C   0  0  0  0  0  0  0  0  0  0  0  0
   -3.2638   -1.6523    0.0000 C   0  0  0  0  0  0  0  0  0  0  0  0
   -1.8307    0.9831    0.0000 C   0  0  0  0  0  0  0  0  0  0  0  0
   -2.8529    2.0809    0.0000 C   0  0  0  0  0  0  0  0  0  0  0  0
   -4.2128    1.4478    0.0000 C   0  0  0  0  0  0  0  0  0  0  0  0
   -4.0310   -0.0411    0.0000 C   0  0  0  0  0  0  0  0  0  0  0  0
   -5.5308   -0.0663    0.0000 C   0  0  0  0  0  0  0  0  0  0  0  0
   -4.3439   -1.5081    0.0000 O   0  0  0  0  0  0  0  0  0  0  0  0
  2  1  1  1
  2  3  1  0
  3  4  1  0
  4  5  1  0
  5  6  1  1
  5  7  1  0
  8  7  1  1
  8  9  1  0
  9 10  1  0
 11 10  1  6
 11 12  1  0
 12 13  1  1
 13 14  1  0
 14 15  1  0
 15 16  1  1
 15 17  1  0
 17 18  1  1
 18 19  1  0
 19 20  1  0
 20 21  1  6
 20 22  1  0
  8  2  1  0
 17 11  1  0
 12  2  1  0
 20 15  1  0
M  END
>  <MS_ID>  (3282) 
MS3421

>  <SMILES>  (3282) 
C[C@]12CC[C@H](O)C[C@@H]1CC[C@@H]1[C@@H]2CC[C@@]2(C)[C@H]1CC[C@]2(C)O

>  <Structure_dimension>  (3282) 
2D

$$$$
MS3422
     RDKit          2D

 29 32  0  0  0  0  0  0  0  0999 V2000
   -5.4679   -1.9280    0.0000 C   0  0  0  0  0  0  0  0  0  0  0  0
   -4.2629   -1.0348    0.0000 C   0  0  0  0  0  0  0  0  0  0  0  0
   -4.4339    0.4554    0.0000 C   0  0  0  0  0  0  0  0  0  0  0  0
   -5.8100    1.0524    0.0000 C   0  0  0  0  0  0  0  0  0  0  0  0
   -5.9810    2.5426    0.0000 C   0  0  0  0  0  0  0  0  0  0  0  0
   -4.7760    3.4359    0.0000 O   0  0  0  0  0  0  0  0  0  0  0  0
   -7.3571    3.1396    0.0000 O   0  0  0  0  0  0  0  0  0  0  0  0
   -2.8868   -1.6318    0.0000 C   0  0  0  0  0  0  0  0  0  0  0  0
   -2.5609   -3.0959    0.0000 C   0  0  0  0  0  0  0  0  0  0  0  0
   -1.0677   -3.2385    0.0000 C   0  0  0  0  0  0  0  0  0  0  0  0
   -0.4707   -1.8624    0.0000 C   0  0  0  0  0  0  0  0  0  0  0  0
    0.9514   -1.3853    0.0000 C   0  0  0  0  0  0  0  0  0  0  0  0
    2.0756   -2.3783    0.0000 C   0  0  0  0  0  0  0  0  0  0  0  0
    1.7778   -3.8484    0.0000 O   0  0  0  0  0  0  0  0  0  0  0  0
    3.4977   -1.9011    0.0000 C   0  0  0  0  0  0  0  0  0  0  0  0
    3.7956   -0.4310    0.0000 C   0  0  0  0  0  0  0  0  0  0  0  0
    5.2177    0.0461    0.0000 C   0  0  0  0  0  0  0  0  0  0  0  0
    5.5155    1.5163    0.0000 C   0  0  0  0  0  0  0  0  0  0  0  0
    6.9376    1.9934    0.0000 C   0  0  0  0  0  0  0  0  0  0  0  0
    8.0618    1.0004    0.0000 O   0  0  0  0  0  0  0  0  0  0  0  0
    4.3912    2.5093    0.0000 C   0  0  0  0  0  0  0  0  0  0  0  0
    2.9692    2.0321    0.0000 C   0  0  0  0  0  0  0  0  0  0  0  0
    2.6713    0.5620    0.0000 C   0  0  0  0  0  0  0  0  0  0  0  0
    1.5471    1.5550    0.0000 O   0  0  0  0  0  0  0  0  0  0  0  0
    1.2492    0.0849    0.0000 C   0  0  0  0  0  0  0  0  0  0  0  0
    0.1250    1.0779    0.0000 C   0  0  0  0  0  0  0  0  0  0  0  0
   -1.2971    0.6007    0.0000 C   0  0  0  0  0  0  0  0  0  0  0  0
   -1.5950   -0.8694    0.0000 C   0  0  0  0  0  0  0  0  0  0  0  0
   -2.8169    0.0007    0.0000 C   0  0  0  0  0  0  0  0  0  0  0  0
  2  1  1  6
  2  3  1  0
  3  4  1  0
  4  5  1  0
  5  6  2  0
  5  7  1  0
  2  8  1  0
  8  9  1  6
  9 10  1  0
 11 10  1  6
 11 12  1  0
 12 13  1  1
 13 14  1  6
 13 15  1  0
 16 15  1  1
 16 17  1  0
 17 18  1  0
 18 19  1  1
 19 20  1  0
 18 21  1  0
 21 22  1  0
 22 23  1  0
 23 24  1  6
 23 25  1  0
 25 26  1  6
 26 27  1  0
 27 28  1  0
 28 29  1  6
 28  8  1  0
 28 11  1  0
 25 12  1  0
 23 16  1  0
M  END
>  <MS_ID>  (3283) 
MS3422

>  <SMILES>  (3283) 
C[C@H](CCC(=O)O)[C@H]1CC[C@H]2[C@@H]3[C@@H](O)C[C@@H]4C[C@H](CO)CC[C@]4(O)[C@H]3CC[C@]12C

>  <Structure_dimension>  (3283) 
2D

$$$$
MS3423
     RDKit          2D

 24 27  0  0  0  0  0  0  0  0999 V2000
    1.6887   -1.5390    0.0000 C   0  0  0  0  0  0  0  0  0  0  0  0
    2.5258   -0.2943    0.0000 C   0  0  0  0  0  0  0  0  0  0  0  0
    3.1852   -1.6416    0.0000 C   0  0  0  0  0  0  0  0  0  0  0  0
    4.6817   -1.7441    0.0000 C   0  0  0  0  0  0  0  0  0  0  0  0
    5.5188   -0.4994    0.0000 C   0  0  0  0  0  0  0  0  0  0  0  0
    7.0153   -0.6020    0.0000 O   0  0  0  0  0  0  0  0  0  0  0  0
    4.8594    0.8479    0.0000 C   0  0  0  0  0  0  0  0  0  0  0  0
    3.3629    0.9504    0.0000 C   0  0  0  0  0  0  0  0  0  0  0  0
    2.7034    2.2977    0.0000 C   0  0  0  0  0  0  0  0  0  0  0  0
    1.2070    2.4003    0.0000 C   0  0  0  0  0  0  0  0  0  0  0  0
    0.3699    1.1555    0.0000 C   0  0  0  0  0  0  0  0  0  0  0  0
    1.0293   -0.1917    0.0000 C   0  0  0  0  0  0  0  0  0  0  0  0
    0.1923   -1.4364    0.0000 C   0  0  0  0  0  0  0  0  0  0  0  0
   -1.3042   -1.3339    0.0000 C   0  0  0  0  0  0  0  0  0  0  0  0
   -1.9637    0.0134    0.0000 C   0  0  0  0  0  0  0  0  0  0  0  0
   -2.9262   -1.1370    0.0000 C   0  0  0  0  0  0  0  0  0  0  0  0
   -3.4061    0.4248    0.0000 C   0  0  0  0  0  0  0  0  0  0  0  0
   -4.5869   -0.5003    0.0000 C   0  0  0  0  0  0  0  0  0  0  0  0
   -4.3760   -1.9854    0.0000 O   0  0  0  0  0  0  0  0  0  0  0  0
   -5.9784    0.0597    0.0000 C   0  0  0  0  0  0  0  0  0  0  0  0
   -7.1591   -0.8654    0.0000 Cl  0  0  0  0  0  0  0  0  0  0  0  0
   -3.4606    1.9239    0.0000 C   0  0  0  0  0  0  0  0  0  0  0  0
   -2.0517    2.4388    0.0000 C   0  0  0  0  0  0  0  0  0  0  0  0
   -1.1266    1.2581    0.0000 C   0  0  0  0  0  0  0  0  0  0  0  0
  2  1  1  1
  2  3  1  0
  3  4  1  0
  4  5  1  0
  5  6  1  1
  5  7  1  0
  8  7  1  1
  8  9  1  0
  9 10  1  0
 11 10  1  6
 11 12  1  0
 12 13  1  1
 13 14  1  0
 14 15  1  0
 15 16  1  1
 15 17  1  0
 17 18  1  1
 18 19  2  0
 18 20  1  0
 20 21  1  0
 17 22  1  0
 22 23  1  0
 24 23  1  1
  8  2  1  0
 24 11  1  0
 12  2  1  0
 24 15  1  0
M  END
>  <MS_ID>  (3284) 
MS3423

>  <SMILES>  (3284) 
C[C@]12CC[C@H](O)C[C@@H]1CC[C@@H]1[C@@H]2CC[C@]2(C)[C@@H](C(=O)CCl)CC[C@@H]12

>  <Structure_dimension>  (3284) 
2D

$$$$
MS3424
     RDKit          2D

 31 34  0  0  0  0  0  0  0  0999 V2000
   -4.9927    3.9937    0.0000 C   0  0  0  0  0  0  0  0  0  0  0  0
   -4.6212    2.5405    0.0000 C   0  0  0  0  0  0  0  0  0  0  0  0
   -3.1769    2.1355    0.0000 C   0  0  0  0  0  0  0  0  0  0  0  0
   -5.6941    1.4921    0.0000 C   0  0  0  0  0  0  0  0  0  0  0  0
   -7.1384    1.8971    0.0000 C   0  0  0  0  0  0  0  0  0  0  0  0
   -5.3226    0.0389    0.0000 C   0  0  0  0  0  0  0  0  0  0  0  0
   -3.8783   -0.3661    0.0000 C   0  0  0  0  0  0  0  0  0  0  0  0
   -2.8055    0.6822    0.0000 O   0  0  0  0  0  0  0  0  0  0  0  0
   -3.5069   -1.8194    0.0000 C   0  0  0  0  0  0  0  0  0  0  0  0
   -4.5798   -2.8677    0.0000 C   0  0  0  0  0  0  0  0  0  0  0  0
   -2.0626   -2.2244    0.0000 C   0  0  0  0  0  0  0  0  0  0  0  0
   -1.5413   -3.6309    0.0000 C   0  0  0  0  0  0  0  0  0  0  0  0
   -0.0425   -3.5697    0.0000 C   0  0  0  0  0  0  0  0  0  0  0  0
    0.3624   -2.1254    0.0000 C   0  0  0  0  0  0  0  0  0  0  0  0
    1.7067   -1.4599    0.0000 C   0  0  0  0  0  0  0  0  0  0  0  0
    2.9552   -2.2914    0.0000 C   0  0  0  0  0  0  0  0  0  0  0  0
    4.2995   -1.6259    0.0000 C   0  0  0  0  0  0  0  0  0  0  0  0
    5.5480   -2.4573    0.0000 O   0  0  0  0  0  0  0  0  0  0  0  0
    4.3953   -0.1289    0.0000 C   0  0  0  0  0  0  0  0  0  0  0  0
    5.7396    0.5365    0.0000 C   0  0  0  0  0  0  0  0  0  0  0  0
    5.8355    2.0335    0.0000 C   0  0  0  0  0  0  0  0  0  0  0  0
    7.1798    2.6990    0.0000 O   0  0  0  0  0  0  0  0  0  0  0  0
    4.5870    2.8649    0.0000 C   0  0  0  0  0  0  0  0  0  0  0  0
    3.2427    2.1995    0.0000 C   0  0  0  0  0  0  0  0  0  0  0  0
    3.1469    0.7025    0.0000 C   0  0  0  0  0  0  0  0  0  0  0  0
    1.8984    1.5340    0.0000 C   0  0  0  0  0  0  0  0  0  0  0  0
    1.8026    0.0370    0.0000 C   0  0  0  0  0  0  0  0  0  0  0  0
    0.5541    0.8685    0.0000 C   0  0  0  0  0  0  0  0  0  0  0  0
   -0.7902    0.2030    0.0000 C   0  0  0  0  0  0  0  0  0  0  0  0
   -0.8860   -1.2939    0.0000 C   0  0  0  0  0  0  0  0  0  0  0  0
   -2.2146   -0.5975    0.0000 C   0  0  0  0  0  0  0  0  0  0  0  0
  1  2  1  0
  2  3  1  0
  2  4  1  0
  4  5  1  1
  4  6  1  0
  6  7  1  0
  7  8  1  6
  7  9  1  0
  9 10  1  6
  9 11  1  0
 11 12  1  6
 12 13  1  0
 14 13  1  6
 14 15  1  0
 15 16  1  1
 16 17  1  0
 17 18  2  0
 17 19  1  0
 19 20  1  6
 20 21  1  0
 21 22  1  6
 21 23  1  0
 23 24  1  0
 24 25  1  0
 25 26  1  6
 25 27  1  0
 27 28  1  6
 28 29  1  0
 29 30  1  0
 30 31  1  6
 30 11  1  0
 30 14  1  0
 27 15  1  0
 25 19  1  0
M  END
>  <MS_ID>  (3285) 
MS3424

>  <SMILES>  (3285) 
CC(C)[C@H](C)C[C@H](O)[C@@H](C)[C@H]1CC[C@H]2[C@@H]3CC(=O)[C@H]4C[C@@H](O)CC[C@]4(C)[C@H]3CC[C@]12C

>  <Structure_dimension>  (3285) 
2D

$$$$
MS3425
     RDKit          2D

 24 27  0  0  0  0  0  0  0  0999 V2000
    1.6887   -1.5390    0.0000 C   0  0  0  0  0  0  0  0  0  0  0  0
    2.5258   -0.2943    0.0000 C   0  0  0  0  0  0  0  0  0  0  0  0
    3.1852   -1.6416    0.0000 C   0  0  0  0  0  0  0  0  0  0  0  0
    4.6817   -1.7441    0.0000 C   0  0  0  0  0  0  0  0  0  0  0  0
    5.5188   -0.4994    0.0000 C   0  0  0  0  0  0  0  0  0  0  0  0
    7.0153   -0.6020    0.0000 O   0  0  0  0  0  0  0  0  0  0  0  0
    4.8594    0.8479    0.0000 C   0  0  0  0  0  0  0  0  0  0  0  0
    3.3629    0.9504    0.0000 C   0  0  0  0  0  0  0  0  0  0  0  0
    2.7034    2.2977    0.0000 C   0  0  0  0  0  0  0  0  0  0  0  0
    1.2070    2.4003    0.0000 C   0  0  0  0  0  0  0  0  0  0  0  0
    0.3699    1.1555    0.0000 C   0  0  0  0  0  0  0  0  0  0  0  0
    1.0293   -0.1917    0.0000 C   0  0  0  0  0  0  0  0  0  0  0  0
    0.1923   -1.4364    0.0000 C   0  0  0  0  0  0  0  0  0  0  0  0
   -1.3042   -1.3339    0.0000 C   0  0  0  0  0  0  0  0  0  0  0  0
   -1.9637    0.0134    0.0000 C   0  0  0  0  0  0  0  0  0  0  0  0
   -2.9262   -1.1370    0.0000 C   0  0  0  0  0  0  0  0  0  0  0  0
   -3.4061    0.4248    0.0000 C   0  0  0  0  0  0  0  0  0  0  0  0
   -4.5869   -0.5003    0.0000 C   0  0  0  0  0  0  0  0  0  0  0  0
   -4.3760   -1.9854    0.0000 O   0  0  0  0  0  0  0  0  0  0  0  0
   -5.9784    0.0597    0.0000 C   0  0  0  0  0  0  0  0  0  0  0  0
   -7.1591   -0.8654    0.0000 O   0  0  0  0  0  0  0  0  0  0  0  0
   -3.4606    1.9239    0.0000 C   0  0  0  0  0  0  0  0  0  0  0  0
   -2.0517    2.4388    0.0000 C   0  0  0  0  0  0  0  0  0  0  0  0
   -1.1266    1.2581    0.0000 C   0  0  0  0  0  0  0  0  0  0  0  0
  2  1  1  1
  2  3  1  0
  3  4  1  0
  4  5  1  0
  5  6  2  0
  5  7  1  0
  8  7  1  6
  8  9  1  0
  9 10  1  0
 11 10  1  6
 11 12  1  0
 12 13  1  1
 13 14  1  0
 14 15  1  0
 15 16  1  1
 15 17  1  0
 17 18  1  0
 18 19  1  6
 18 20  1  0
 20 21  1  0
 17 22  1  1
 22 23  1  0
 24 23  1  1
  8  2  1  0
 24 11  1  0
 12  2  1  0
 24 15  1  0
M  END
>  <MS_ID>  (3286) 
MS3425

>  <SMILES>  (3286) 
C[C@]12CCC(=O)C[C@H]1CC[C@@H]1[C@@H]2CC[C@]2(C)[C@@H]([C@H](O)CO)CC[C@@H]12

>  <Structure_dimension>  (3286) 
2D

$$$$
MS3426
     RDKit          2D

 26 29  0  0  0  0  0  0  0  0999 V2000
    2.1052   -1.4736    0.0000 C   0  0  0  0  0  0  0  0  0  0  0  0
    2.8220   -0.1559    0.0000 C   0  0  0  0  0  0  0  0  0  0  0  0
    3.6047   -1.4355    0.0000 C   0  0  0  0  0  0  0  0  0  0  0  0
    5.1042   -1.3975    0.0000 C   0  0  0  0  0  0  0  0  0  0  0  0
    5.8210   -0.0798    0.0000 C   0  0  0  0  0  0  0  0  0  0  0  0
    7.3206   -0.0418    0.0000 O   0  0  0  0  0  0  0  0  0  0  0  0
    5.0383    1.1998    0.0000 C   0  0  0  0  0  0  0  0  0  0  0  0
    3.5388    1.1617    0.0000 C   0  0  0  0  0  0  0  0  0  0  0  0
    2.7561    2.4413    0.0000 C   0  0  0  0  0  0  0  0  0  0  0  0
    1.2566    2.4033    0.0000 C   0  0  0  0  0  0  0  0  0  0  0  0
    0.5398    1.0856    0.0000 C   0  0  0  0  0  0  0  0  0  0  0  0
    1.3225   -0.1940    0.0000 C   0  0  0  0  0  0  0  0  0  0  0  0
    0.6057   -1.5116    0.0000 C   0  0  0  0  0  0  0  0  0  0  0  0
   -0.8938   -1.5496    0.0000 C   0  0  0  0  0  0  0  0  0  0  0  0
   -1.6107   -2.8673    0.0000 O   0  0  0  0  0  0  0  0  0  0  0  0
   -1.6765   -0.2700    0.0000 C   0  0  0  0  0  0  0  0  0  0  0  0
   -2.3702   -1.6000    0.0000 C   0  0  0  0  0  0  0  0  0  0  0  0
   -0.9597    1.0476    0.0000 C   0  0  0  0  0  0  0  0  0  0  0  0
   -1.9914    2.1365    0.0000 C   0  0  0  0  0  0  0  0  0  0  0  0
   -3.3458    1.4919    0.0000 C   0  0  0  0  0  0  0  0  0  0  0  0
   -3.1512    0.0045    0.0000 C   0  0  0  0  0  0  0  0  0  0  0  0
   -3.4515   -1.4651    0.0000 O   0  0  0  0  0  0  0  0  0  0  0  0
   -4.6507   -0.0335    0.0000 C   0  0  0  0  0  0  0  0  0  0  0  0
   -5.3675   -1.3512    0.0000 O   0  0  0  0  0  0  0  0  0  0  0  0
   -5.4334    1.2461    0.0000 C   0  0  0  0  0  0  0  0  0  0  0  0
   -6.9329    1.2080    0.0000 O   0  0  0  0  0  0  0  0  0  0  0  0
  2  1  1  1
  2  3  1  0
  3  4  1  0
  4  5  1  0
  5  6  2  0
  5  7  1  0
  8  7  1  6
  8  9  1  0
  9 10  1  0
 11 10  1  6
 11 12  1  0
 12 13  1  1
 13 14  1  0
 14 15  1  6
 14 16  1  0
 16 17  1  1
 16 18  1  0
 18 19  1  1
 19 20  1  0
 20 21  1  0
 21 22  1  6
 21 23  1  0
 23 24  2  0
 23 25  1  0
 25 26  1  0
  8  2  1  0
 18 11  1  0
 12  2  1  0
 21 16  1  0
M  END
>  <MS_ID>  (3287) 
MS3426

>  <SMILES>  (3287) 
C[C@]12CCC(=O)C[C@H]1CC[C@@H]1[C@@H]2C[C@H](O)[C@@]2(C)[C@H]1CC[C@]2(O)C(=O)CO

>  <Structure_dimension>  (3287) 
2D

$$$$
MS3427
     RDKit          2D

 35 38  0  0  0  0  0  0  0  0999 V2000
   -1.1848   -4.5684    0.0000 C   0  0  0  0  0  0  0  0  0  0  0  0
   -0.5815   -3.1951    0.0000 C   0  0  0  0  0  0  0  0  0  0  0  0
   -1.4692   -1.9860    0.0000 C   0  0  0  0  0  0  0  0  0  0  0  0
   -2.9602   -2.1502    0.0000 C   0  0  0  0  0  0  0  0  0  0  0  0
   -3.8478   -0.9410    0.0000 C   0  0  0  0  0  0  0  0  0  0  0  0
   -3.2445    0.4323    0.0000 O   0  0  0  0  0  0  0  0  0  0  0  0
   -5.3388   -1.1052    0.0000 N   0  0  0  0  0  0  0  0  0  0  0  0
   -6.2265    0.1039    0.0000 C   0  0  0  0  0  0  0  0  0  0  0  0
   -7.7175   -0.0603    0.0000 C   0  0  0  0  0  0  0  0  0  0  0  0
   -8.6052    1.1489    0.0000 C   0  0  0  0  0  0  0  0  0  0  0  0
  -10.0962    0.9847    0.0000 C   0  0  0  0  0  0  0  0  0  0  0  0
  -10.9839    2.1938    0.0000 C   0  0  0  0  0  0  0  0  0  0  0  0
  -10.3806    3.5672    0.0000 O   0  0  0  0  0  0  0  0  0  0  0  0
  -12.4748    2.0297    0.0000 O   0  0  0  0  0  0  0  0  0  0  0  0
    0.9095   -3.0309    0.0000 C   0  0  0  0  0  0  0  0  0  0  0  0
    1.9187   -4.1407    0.0000 C   0  0  0  0  0  0  0  0  0  0  0  0
    3.2860   -3.5238    0.0000 C   0  0  0  0  0  0  0  0  0  0  0  0
    3.1218   -2.0328    0.0000 C   0  0  0  0  0  0  0  0  0  0  0  0
    4.1199   -0.9131    0.0000 C   0  0  0  0  0  0  0  0  0  0  0  0
    5.5887   -1.2177    0.0000 C   0  0  0  0  0  0  0  0  0  0  0  0
    6.0593   -2.6420    0.0000 O   0  0  0  0  0  0  0  0  0  0  0  0
    6.5869   -0.0980    0.0000 C   0  0  0  0  0  0  0  0  0  0  0  0
    6.1163    1.3263    0.0000 C   0  0  0  0  0  0  0  0  0  0  0  0
    7.1144    2.4459    0.0000 C   0  0  0  0  0  0  0  0  0  0  0  0
    6.6438    3.8702    0.0000 C   0  0  0  0  0  0  0  0  0  0  0  0
    7.6420    4.9899    0.0000 O   0  0  0  0  0  0  0  0  0  0  0  0
    5.1751    4.1748    0.0000 C   0  0  0  0  0  0  0  0  0  0  0  0
    4.1769    3.0551    0.0000 C   0  0  0  0  0  0  0  0  0  0  0  0
    4.6475    1.6309    0.0000 C   0  0  0  0  0  0  0  0  0  0  0  0
    3.1788    1.9354    0.0000 C   0  0  0  0  0  0  0  0  0  0  0  0
    3.6494    0.5112    0.0000 C   0  0  0  0  0  0  0  0  0  0  0  0
    2.1806    0.8158    0.0000 C   0  0  0  0  0  0  0  0  0  0  0  0
    1.1825   -0.3039    0.0000 C   0  0  0  0  0  0  0  0  0  0  0  0
    1.6530   -1.7282    0.0000 C   0  0  0  0  0  0  0  0  0  0  0  0
    0.1605   -1.5788    0.0000 C   0  0  0  0  0  0  0  0  0  0  0  0
  2  1  1  6
  2  3  1  0
  3  4  1  0
  4  5  1  0
  5  6  2  0
  5  7  1  0
  7  8  1  0
  8  9  1  0
  9 10  1  0
 10 11  1  0
 11 12  1  0
 12 13  2  0
 12 14  1  0
  2 15  1  0
 15 16  1  6
 16 17  1  0
 18 17  1  6
 18 19  1  0
 19 20  1  1
 20 21  1  6
 20 22  1  0
 23 22  1  1
 23 24  1  0
 24 25  1  0
 25 26  1  6
 25 27  1  0
 27 28  1  0
 28 29  1  0
 29 30  1  6
 29 31  1  0
 31 32  1  6
 32 33  1  0
 33 34  1  0
 34 35  1  6
 34 15  1  0
 34 18  1  0
 31 19  1  0
 29 23  1  0
M  END
>  <MS_ID>  (3288) 
MS3427

>  <SMILES>  (3288) 
C[C@H](CCC(=O)NCCCCC(=O)O)[C@H]1CC[C@H]2[C@@H]3[C@@H](O)C[C@@H]4C[C@@H](O)CC[C@]4(C)[C@H]3CC[C@]12C

>  <Structure_dimension>  (3288) 
2D

$$$$
MS3428
     RDKit          2D

 39 42  0  0  0  0  0  0  0  0999 V2000
   -5.1305   -3.2769    0.0000 C   0  0  0  0  0  0  0  0  0  0  0  0
   -4.1886   -2.1095    0.0000 C   0  0  0  0  0  0  0  0  0  0  0  0
   -4.7286   -0.7101    0.0000 C   0  0  0  0  0  0  0  0  0  0  0  0
   -6.2105   -0.4780    0.0000 C   0  0  0  0  0  0  0  0  0  0  0  0
   -6.7506    0.9214    0.0000 C   0  0  0  0  0  0  0  0  0  0  0  0
   -8.2325    1.1534    0.0000 O   0  0  0  0  0  0  0  0  0  0  0  0
   -8.7725    2.5528    0.0000 S   0  0  0  0  0  0  0  0  0  0  0  0
   -7.3731    3.0929    0.0000 O   0  0  0  0  0  0  0  0  0  0  0  0
  -10.1720    2.0128    0.0000 O   0  0  0  0  0  0  0  0  0  0  0  0
   -9.3126    3.9523    0.0000 O   0  0  0  0  0  0  0  0  0  0  0  0
   -2.7066   -2.3415    0.0000 C   0  0  0  0  0  0  0  0  0  0  0  0
   -2.0233   -3.6768    0.0000 C   0  0  0  0  0  0  0  0  0  0  0  0
   -0.5422   -3.4395    0.0000 C   0  0  0  0  0  0  0  0  0  0  0  0
   -0.3101   -1.9576    0.0000 C   0  0  0  0  0  0  0  0  0  0  0  0
    0.9464   -1.1384    0.0000 C   0  0  0  0  0  0  0  0  0  0  0  0
    2.2841   -1.8170    0.0000 C   0  0  0  0  0  0  0  0  0  0  0  0
    2.3653   -3.3148    0.0000 O   0  0  0  0  0  0  0  0  0  0  0  0
    3.7030   -3.9934    0.0000 S   0  0  0  0  0  0  0  0  0  0  0  0
    4.3816   -2.6557    0.0000 O   0  0  0  0  0  0  0  0  0  0  0  0
    3.0244   -5.3312    0.0000 O   0  0  0  0  0  0  0  0  0  0  0  0
    5.0407   -4.6721    0.0000 O   0  0  0  0  0  0  0  0  0  0  0  0
    3.5407   -0.9978    0.0000 C   0  0  0  0  0  0  0  0  0  0  0  0
    3.4595    0.5000    0.0000 C   0  0  0  0  0  0  0  0  0  0  0  0
    4.7161    1.3191    0.0000 C   0  0  0  0  0  0  0  0  0  0  0  0
    4.6350    2.8169    0.0000 C   0  0  0  0  0  0  0  0  0  0  0  0
    5.8915    3.6361    0.0000 O   0  0  0  0  0  0  0  0  0  0  0  0
    7.2292    2.9575    0.0000 S   0  0  0  0  0  0  0  0  0  0  0  0
    6.5506    1.6198    0.0000 O   0  0  0  0  0  0  0  0  0  0  0  0
    7.9078    4.2952    0.0000 O   0  0  0  0  0  0  0  0  0  0  0  0
    8.5669    2.2789    0.0000 O   0  0  0  0  0  0  0  0  0  0  0  0
    3.2972    3.4956    0.0000 C   0  0  0  0  0  0  0  0  0  0  0  0
    2.0407    2.6764    0.0000 C   0  0  0  0  0  0  0  0  0  0  0  0
    2.1218    1.1786    0.0000 C   0  0  0  0  0  0  0  0  0  0  0  0
    0.7841    1.8572    0.0000 C   0  0  0  0  0  0  0  0  0  0  0  0
    0.8653    0.3594    0.0000 C   0  0  0  0  0  0  0  0  0  0  0  0
   -0.4724    1.0380    0.0000 C   0  0  0  0  0  0  0  0  0  0  0  0
   -1.7290    0.2188    0.0000 C   0  0  0  0  0  0  0  0  0  0  0  0
   -1.6478   -1.2790    0.0000 C   0  0  0  0  0  0  0  0  0  0  0  0
   -3.0492   -0.7439    0.0000 C   0  0  0  0  0  0  0  0  0  0  0  0
  2  1  1  6
  2  3  1  0
  3  4  1  0
  4  5  1  0
  5  6  1  0
  6  7  1  0
  7  8  2  0
  7  9  2  0
  7 10  1  0
  2 11  1  0
 11 12  1  6
 12 13  1  0
 14 13  1  6
 14 15  1  0
 15 16  1  1
 16 17  1  6
 17 18  1  0
 18 19  2  0
 18 20  2  0
 18 21  1  0
 16 22  1  0
 23 22  1  1
 23 24  1  0
 24 25  1  0
 25 26  1  1
 26 27  1  0
 27 28  2  0
 27 29  2  0
 27 30  1  0
 25 31  1  0
 31 32  1  0
 32 33  1  0
 33 34  1  6
 33 35  1  0
 35 36  1  6
 36 37  1  0
 37 38  1  0
 38 39  1  6
 38 11  1  0
 38 14  1  0
 35 15  1  0
 33 23  1  0
M  END
>  <MS_ID>  (3289) 
MS3428

>  <SMILES>  (3289) 
C[C@H](CCCOS(=O)(=O)O)[C@H]1CC[C@H]2[C@@H]3[C@@H](OS(=O)(=O)O)C[C@@H]4C[C@H](OS(=O)(=O)O)CC[C@]4(C)[C@H]3CC[C@]12C

>  <Structure_dimension>  (3289) 
2D

$$$$
MS3429
     RDKit          2D

 26 29  0  0  0  0  0  0  0  0999 V2000
   -3.8405    2.0512    0.0000 C   0  0  0  0  0  0  0  0  0  0  0  0
   -4.0273    0.5629    0.0000 C   0  0  0  0  0  0  0  0  0  0  0  0
   -5.4096   -0.0195    0.0000 C   0  0  0  0  0  0  0  0  0  0  0  0
   -5.5965   -1.5078    0.0000 O   0  0  0  0  0  0  0  0  0  0  0  0
   -6.6052    0.8864    0.0000 O   0  0  0  0  0  0  0  0  0  0  0  0
   -2.8318   -0.3431    0.0000 C   0  0  0  0  0  0  0  0  0  0  0  0
   -2.8620   -1.8428    0.0000 C   0  0  0  0  0  0  0  0  0  0  0  0
   -1.4450   -2.3350    0.0000 C   0  0  0  0  0  0  0  0  0  0  0  0
   -0.5391   -1.1394    0.0000 C   0  0  0  0  0  0  0  0  0  0  0  0
    0.9555   -1.0127    0.0000 C   0  0  0  0  0  0  0  0  0  0  0  0
    1.8126   -2.2438    0.0000 C   0  0  0  0  0  0  0  0  0  0  0  0
    1.1750   -3.6015    0.0000 O   0  0  0  0  0  0  0  0  0  0  0  0
    3.3072   -2.1171    0.0000 C   0  0  0  0  0  0  0  0  0  0  0  0
    3.9448   -0.7593    0.0000 C   0  0  0  0  0  0  0  0  0  0  0  0
    5.4394   -0.6326    0.0000 C   0  0  0  0  0  0  0  0  0  0  0  0
    6.0770    0.7252    0.0000 C   0  0  0  0  0  0  0  0  0  0  0  0
    5.2200    1.9562    0.0000 C   0  0  0  0  0  0  0  0  0  0  0  0
    3.7253    1.8295    0.0000 C   0  0  0  0  0  0  0  0  0  0  0  0
    3.0878    0.4717    0.0000 C   0  0  0  0  0  0  0  0  0  0  0  0
    2.2307    1.7028    0.0000 C   0  0  0  0  0  0  0  0  0  0  0  0
    1.5931    0.3450    0.0000 C   0  0  0  0  0  0  0  0  0  0  0  0
    0.7361    1.5761    0.0000 C   0  0  0  0  0  0  0  0  0  0  0  0
   -0.7586    1.4494    0.0000 C   0  0  0  0  0  0  0  0  0  0  0  0
   -1.6156    2.6804    0.0000 O   0  0  0  0  0  0  0  0  0  0  0  0
   -1.3962    0.0916    0.0000 C   0  0  0  0  0  0  0  0  0  0  0  0
   -2.3772    1.2263    0.0000 C   0  0  0  0  0  0  0  0  0  0  0  0
  2  1  1  1
  2  3  1  0
  3  4  2  0
  3  5  1  0
  2  6  1  0
  6  7  1  6
  7  8  1  0
  9  8  1  6
  9 10  1  0
 10 11  1  1
 11 12  1  6
 11 13  1  0
 14 13  1  1
 14 15  1  0
 15 16  1  0
 16 17  1  0
 17 18  1  0
 18 19  1  0
 19 20  1  6
 19 21  1  0
 21 22  1  6
 22 23  1  0
 23 24  1  1
 23 25  1  0
 25 26  1  6
 25  6  1  0
 25  9  1  0
 21 10  1  0
 19 14  1  0
M  END
>  <MS_ID>  (3290) 
MS3429

>  <SMILES>  (3290) 
C[C@H](C(=O)O)[C@H]1CC[C@H]2[C@@H]3[C@@H](O)C[C@@H]4CCCC[C@]4(C)[C@H]3C[C@H](O)[C@]12C

>  <Structure_dimension>  (3290) 
2D

$$$$
MS3430
     RDKit          2D

 22 25  0  0  0  0  0  0  0  0999 V2000
    1.2125   -1.5642    0.0000 C   0  0  0  0  0  0  0  0  0  0  0  0
    1.9406   -0.2528    0.0000 C   0  0  0  0  0  0  0  0  0  0  0  0
    2.7123   -1.5390    0.0000 C   0  0  0  0  0  0  0  0  0  0  0  0
    4.2121   -1.5138    0.0000 C   0  0  0  0  0  0  0  0  0  0  0  0
    4.9402   -0.2024    0.0000 C   0  0  0  0  0  0  0  0  0  0  0  0
    6.4400   -0.1772    0.0000 O   0  0  0  0  0  0  0  0  0  0  0  0
    4.1685    1.0839    0.0000 C   0  0  0  0  0  0  0  0  0  0  0  0
    2.6687    1.0587    0.0000 C   0  0  0  0  0  0  0  0  0  0  0  0
    1.8970    2.3449    0.0000 C   0  0  0  0  0  0  0  0  0  0  0  0
    0.3972    2.3198    0.0000 C   0  0  0  0  0  0  0  0  0  0  0  0
   -0.3309    1.0083    0.0000 C   0  0  0  0  0  0  0  0  0  0  0  0
    0.4408   -0.2779    0.0000 C   0  0  0  0  0  0  0  0  0  0  0  0
   -0.2873   -1.5894    0.0000 C   0  0  0  0  0  0  0  0  0  0  0  0
   -1.7871   -1.6146    0.0000 C   0  0  0  0  0  0  0  0  0  0  0  0
   -2.5588   -0.3283    0.0000 C   0  0  0  0  0  0  0  0  0  0  0  0
   -3.2638   -1.6523    0.0000 C   0  0  0  0  0  0  0  0  0  0  0  0
   -1.8307    0.9831    0.0000 C   0  0  0  0  0  0  0  0  0  0  0  0
   -2.8529    2.0809    0.0000 C   0  0  0  0  0  0  0  0  0  0  0  0
   -4.2128    1.4478    0.0000 C   0  0  0  0  0  0  0  0  0  0  0  0
   -4.0310   -0.0411    0.0000 C   0  0  0  0  0  0  0  0  0  0  0  0
   -5.5308   -0.0663    0.0000 C   0  0  0  0  0  0  0  0  0  0  0  0
   -4.3439   -1.5081    0.0000 O   0  0  0  0  0  0  0  0  0  0  0  0
  2  1  1  1
  2  3  1  0
  3  4  1  0
  4  5  1  0
  5  6  2  0
  5  7  1  0
  8  7  1  6
  8  9  1  0
  9 10  1  0
 11 10  1  6
 11 12  1  0
 12 13  1  1
 13 14  1  0
 14 15  1  0
 15 16  1  1
 15 17  1  0
 17 18  1  1
 18 19  1  0
 19 20  1  0
 20 21  1  6
 20 22  1  0
  8  2  1  0
 17 11  1  0
 12  2  1  0
 20 15  1  0
M  END
>  <MS_ID>  (3291) 
MS3430

>  <SMILES>  (3291) 
C[C@]12CCC(=O)C[C@H]1CC[C@@H]1[C@@H]2CC[C@@]2(C)[C@H]1CC[C@]2(C)O

>  <Structure_dimension>  (3291) 
2D

$$$$
MS3431
     RDKit          2D

 32 35  0  0  0  0  0  0  0  0999 V2000
   -4.7287    4.1003    0.0000 C   0  0  0  0  0  0  0  0  0  0  0  0
   -4.3803    2.6414    0.0000 C   0  0  0  0  0  0  0  0  0  0  0  0
   -2.9425    2.2137    0.0000 C   0  0  0  0  0  0  0  0  0  0  0  0
   -5.4695    1.6101    0.0000 C   0  0  0  0  0  0  0  0  0  0  0  0
   -6.9073    2.0378    0.0000 C   0  0  0  0  0  0  0  0  0  0  0  0
   -5.1210    0.1512    0.0000 C   0  0  0  0  0  0  0  0  0  0  0  0
   -6.2103   -0.8801    0.0000 O   0  0  0  0  0  0  0  0  0  0  0  0
   -3.6833   -0.2765    0.0000 C   0  0  0  0  0  0  0  0  0  0  0  0
   -2.5940    0.7547    0.0000 O   0  0  0  0  0  0  0  0  0  0  0  0
   -3.3348   -1.7355    0.0000 C   0  0  0  0  0  0  0  0  0  0  0  0
   -4.4241   -2.7668    0.0000 C   0  0  0  0  0  0  0  0  0  0  0  0
   -1.8971   -2.1632    0.0000 C   0  0  0  0  0  0  0  0  0  0  0  0
   -1.3980   -3.5777    0.0000 C   0  0  0  0  0  0  0  0  0  0  0  0
    0.1015   -3.5402    0.0000 C   0  0  0  0  0  0  0  0  0  0  0  0
    0.5292   -2.1024    0.0000 C   0  0  0  0  0  0  0  0  0  0  0  0
    1.8838   -1.4582    0.0000 C   0  0  0  0  0  0  0  0  0  0  0  0
    3.1190   -2.3093    0.0000 C   0  0  0  0  0  0  0  0  0  0  0  0
    4.4737   -1.6651    0.0000 C   0  0  0  0  0  0  0  0  0  0  0  0
    5.7089   -2.5161    0.0000 O   0  0  0  0  0  0  0  0  0  0  0  0
    4.5931   -0.1698    0.0000 C   0  0  0  0  0  0  0  0  0  0  0  0
    5.9477    0.4744    0.0000 C   0  0  0  0  0  0  0  0  0  0  0  0
    6.0671    1.9696    0.0000 C   0  0  0  0  0  0  0  0  0  0  0  0
    7.4217    2.6138    0.0000 O   0  0  0  0  0  0  0  0  0  0  0  0
    4.8319    2.8206    0.0000 C   0  0  0  0  0  0  0  0  0  0  0  0
    3.4773    2.1764    0.0000 C   0  0  0  0  0  0  0  0  0  0  0  0
    3.3579    0.6812    0.0000 C   0  0  0  0  0  0  0  0  0  0  0  0
    2.1227    1.5322    0.0000 C   0  0  0  0  0  0  0  0  0  0  0  0
    2.0033    0.0370    0.0000 C   0  0  0  0  0  0  0  0  0  0  0  0
    0.7680    0.8880    0.0000 C   0  0  0  0  0  0  0  0  0  0  0  0
   -0.5866    0.2438    0.0000 C   0  0  0  0  0  0  0  0  0  0  0  0
   -0.7060   -1.2514    0.0000 C   0  0  0  0  0  0  0  0  0  0  0  0
   -2.0234   -0.5341    0.0000 C   0  0  0  0  0  0  0  0  0  0  0  0
  1  2  1  0
  2  3  1  0
  2  4  1  0
  4  5  1  1
  4  6  1  0
  6  7  1  6
  6  8  1  0
  8  9  1  6
  8 10  1  0
 10 11  1  6
 10 12  1  0
 12 13  1  6
 13 14  1  0
 15 14  1  6
 15 16  1  0
 16 17  1  1
 17 18  1  0
 18 19  2  0
 18 20  1  0
 20 21  1  6
 21 22  1  0
 22 23  1  6
 22 24  1  0
 24 25  1  0
 25 26  1  0
 26 27  1  6
 26 28  1  0
 28 29  1  1
 29 30  1  0
 30 31  1  0
 31 32  1  6
 31 12  1  0
 31 15  1  0
 28 16  1  0
 26 20  1  0
M  END
>  <MS_ID>  (3292) 
MS3431

>  <SMILES>  (3292) 
CC(C)[C@H](C)[C@@H](O)[C@H](O)[C@@H](C)[C@H]1CC[C@H]2[C@@H]3CC(=O)[C@H]4C[C@@H](O)CC[C@]4(C)[C@@H]3CC[C@]12C

>  <Structure_dimension>  (3292) 
2D

$$$$
MS3432
     RDKit          2D

 26 29  0  0  0  0  0  0  0  0999 V2000
   -5.4538   -1.1866    0.0000 C   0  0  0  0  0  0  0  0  0  0  0  0
   -4.1562   -0.4342    0.0000 C   0  0  0  0  0  0  0  0  0  0  0  0
   -4.1590    1.0658    0.0000 C   0  0  0  0  0  0  0  0  0  0  0  0
   -5.4594    1.8134    0.0000 C   0  0  0  0  0  0  0  0  0  0  0  0
   -5.4623    3.3134    0.0000 N   0  0  0  0  0  0  0  0  0  0  0  0
   -6.7571    1.0609    0.0000 O   0  0  0  0  0  0  0  0  0  0  0  0
   -2.8557   -1.1817    0.0000 C   0  0  0  0  0  0  0  0  0  0  0  0
   -2.6961   -2.6732    0.0000 C   0  0  0  0  0  0  0  0  0  0  0  0
   -1.2283   -2.9823    0.0000 C   0  0  0  0  0  0  0  0  0  0  0  0
   -0.4808   -1.6818    0.0000 C   0  0  0  0  0  0  0  0  0  0  0  0
    0.9859   -1.3672    0.0000 C   0  0  0  0  0  0  0  0  0  0  0  0
    1.9917   -2.4800    0.0000 C   0  0  0  0  0  0  0  0  0  0  0  0
    3.4583   -2.1654    0.0000 C   0  0  0  0  0  0  0  0  0  0  0  0
    3.9191   -0.7379    0.0000 C   0  0  0  0  0  0  0  0  0  0  0  0
    5.3858   -0.4233    0.0000 C   0  0  0  0  0  0  0  0  0  0  0  0
    5.8466    1.0042    0.0000 C   0  0  0  0  0  0  0  0  0  0  0  0
    7.3132    1.3188    0.0000 O   0  0  0  0  0  0  0  0  0  0  0  0
    4.8408    2.1170    0.0000 C   0  0  0  0  0  0  0  0  0  0  0  0
    3.3742    1.8023    0.0000 C   0  0  0  0  0  0  0  0  0  0  0  0
    2.9133    0.3749    0.0000 C   0  0  0  0  0  0  0  0  0  0  0  0
    1.9075    1.4877    0.0000 C   0  0  0  0  0  0  0  0  0  0  0  0
    1.4467    0.0602    0.0000 C   0  0  0  0  0  0  0  0  0  0  0  0
    0.4409    1.1731    0.0000 C   0  0  0  0  0  0  0  0  0  0  0  0
   -1.0257    0.8584    0.0000 C   0  0  0  0  0  0  0  0  0  0  0  0
   -1.4866   -0.5690    0.0000 C   0  0  0  0  0  0  0  0  0  0  0  0
   -2.6032    0.4326    0.0000 C   0  0  0  0  0  0  0  0  0  0  0  0
  2  1  1  6
  2  3  1  0
  3  4  1  0
  4  5  1  0
  4  6  2  0
  2  7  1  0
  7  8  1  6
  8  9  1  0
 10  9  1  6
 10 11  1  0
 11 12  1  1
 12 13  1  0
 14 13  1  1
 14 15  1  0
 15 16  1  0
 16 17  1  1
 16 18  1  0
 18 19  1  0
 19 20  1  0
 20 21  1  6
 20 22  1  0
 22 23  1  6
 23 24  1  0
 24 25  1  0
 25 26  1  6
 25  7  1  0
 25 10  1  0
 22 11  1  0
 20 14  1  0
M  END
>  <MS_ID>  (3293) 
MS3432

>  <SMILES>  (3293) 
C[C@H](CC(N)=O)[C@H]1CC[C@H]2[C@@H]3CC[C@@H]4C[C@H](O)CC[C@]4(C)[C@H]3CC[C@]12C

>  <Structure_dimension>  (3293) 
2D

$$$$
MS3433
     RDKit          2D

 25 28  0  0  0  0  0  0  0  0999 V2000
   -8.2105    0.2364    0.0000 C   0  0  0  0  0  0  0  0  0  0  0  0
   -6.8229    0.8060    0.0000 C   0  0  0  0  0  0  0  0  0  0  0  0
   -5.6358   -0.1109    0.0000 C   0  0  0  0  0  0  0  0  0  0  0  0
   -4.2481    0.4587    0.0000 C   0  0  0  0  0  0  0  0  0  0  0  0
   -4.0476    1.9452    0.0000 O   0  0  0  0  0  0  0  0  0  0  0  0
   -3.0610   -0.4583    0.0000 C   0  0  0  0  0  0  0  0  0  0  0  0
   -3.1050   -1.9576    0.0000 C   0  0  0  0  0  0  0  0  0  0  0  0
   -1.6927   -2.4628    0.0000 C   0  0  0  0  0  0  0  0  0  0  0  0
   -0.7758   -1.2757    0.0000 C   0  0  0  0  0  0  0  0  0  0  0  0
    0.7200   -1.1628    0.0000 C   0  0  0  0  0  0  0  0  0  0  0  0
    1.5657   -2.4017    0.0000 C   0  0  0  0  0  0  0  0  0  0  0  0
    3.0614   -2.2888    0.0000 C   0  0  0  0  0  0  0  0  0  0  0  0
    3.7115   -0.9370    0.0000 C   0  0  0  0  0  0  0  0  0  0  0  0
    5.2072   -0.8240    0.0000 C   0  0  0  0  0  0  0  0  0  0  0  0
    5.8573    0.5278    0.0000 C   0  0  0  0  0  0  0  0  0  0  0  0
    7.3530    0.6407    0.0000 O   0  0  0  0  0  0  0  0  0  0  0  0
    5.0116    1.7667    0.0000 C   0  0  0  0  0  0  0  0  0  0  0  0
    3.5159    1.6537    0.0000 C   0  0  0  0  0  0  0  0  0  0  0  0
    2.8658    0.3019    0.0000 C   0  0  0  0  0  0  0  0  0  0  0  0
    2.0201    1.5408    0.0000 C   0  0  0  0  0  0  0  0  0  0  0  0
    1.3701    0.1890    0.0000 C   0  0  0  0  0  0  0  0  0  0  0  0
    0.5244    1.4279    0.0000 C   0  0  0  0  0  0  0  0  0  0  0  0
   -0.9713    1.3150    0.0000 C   0  0  0  0  0  0  0  0  0  0  0  0
   -1.6214   -0.0368    0.0000 C   0  0  0  0  0  0  0  0  0  0  0  0
   -2.5919    1.1069    0.0000 C   0  0  0  0  0  0  0  0  0  0  0  0
  1  2  1  0
  2  3  1  0
  3  4  1  0
  4  5  1  6
  4  6  1  0
  6  7  1  6
  7  8  1  0
  9  8  1  6
  9 10  1  0
 10 11  1  1
 11 12  1  0
 13 12  1  1
 13 14  1  0
 14 15  1  0
 15 16  1  1
 15 17  1  0
 17 18  1  0
 18 19  1  0
 19 20  1  6
 19 21  1  0
 21 22  1  6
 22 23  1  0
 23 24  1  0
 24 25  1  6
 24  6  1  0
 24  9  1  0
 21 10  1  0
 19 13  1  0
M  END
>  <MS_ID>  (3294) 
MS3433

>  <SMILES>  (3294) 
CCC[C@H](O)[C@H]1CC[C@H]2[C@@H]3CC[C@@H]4C[C@H](O)CC[C@]4(C)[C@H]3CC[C@]12C

>  <Structure_dimension>  (3294) 
2D

$$$$
MS3434
     RDKit          2D

 26 29  0  0  0  0  0  0  0  0999 V2000
   -7.1804   -1.0164    0.0000 C   0  0  0  0  0  0  0  0  0  0  0  0
   -5.7361   -0.6115    0.0000 C   0  0  0  0  0  0  0  0  0  0  0  0
   -4.6633   -1.6598    0.0000 C   0  0  0  0  0  0  0  0  0  0  0  0
   -5.3647    0.8418    0.0000 C   0  0  0  0  0  0  0  0  0  0  0  0
   -6.4375    1.8901    0.0000 C   0  0  0  0  0  0  0  0  0  0  0  0
   -3.9204    1.2468    0.0000 O   0  0  0  0  0  0  0  0  0  0  0  0
   -2.8475    0.1984    0.0000 C   0  0  0  0  0  0  0  0  0  0  0  0
   -3.0650   -1.2857    0.0000 C   0  0  0  0  0  0  0  0  0  0  0  0
   -1.7207   -1.9512    0.0000 C   0  0  0  0  0  0  0  0  0  0  0  0
   -0.6724   -0.8783    0.0000 C   0  0  0  0  0  0  0  0  0  0  0  0
    0.8264   -0.9395    0.0000 C   0  0  0  0  0  0  0  0  0  0  0  0
    1.5228   -2.2680    0.0000 C   0  0  0  0  0  0  0  0  0  0  0  0
    3.0215   -2.3292    0.0000 C   0  0  0  0  0  0  0  0  0  0  0  0
    3.8239   -1.0618    0.0000 C   0  0  0  0  0  0  0  0  0  0  0  0
    5.3226   -1.1230    0.0000 C   0  0  0  0  0  0  0  0  0  0  0  0
    6.1250    0.1444    0.0000 C   0  0  0  0  0  0  0  0  0  0  0  0
    7.6237    0.0832    0.0000 O   0  0  0  0  0  0  0  0  0  0  0  0
    5.4286    1.4729    0.0000 C   0  0  0  0  0  0  0  0  0  0  0  0
    3.9298    1.5341    0.0000 C   0  0  0  0  0  0  0  0  0  0  0  0
    3.1275    0.2667    0.0000 C   0  0  0  0  0  0  0  0  0  0  0  0
    2.4311    1.5953    0.0000 C   0  0  0  0  0  0  0  0  0  0  0  0
    1.6287    0.3279    0.0000 C   0  0  0  0  0  0  0  0  0  0  0  0
    0.9323    1.6564    0.0000 C   0  0  0  0  0  0  0  0  0  0  0  0
   -0.5665    1.7176    0.0000 C   0  0  0  0  0  0  0  0  0  0  0  0
   -1.3688    0.4502    0.0000 C   0  0  0  0  0  0  0  0  0  0  0  0
   -2.2003    1.6987    0.0000 C   0  0  0  0  0  0  0  0  0  0  0  0
  1  2  1  0
  2  3  1  0
  2  4  1  0
  4  5  1  6
  4  6  1  0
  7  6  1  6
  7  8  1  0
  8  9  1  0
 10  9  1  6
 10 11  1  0
 11 12  1  1
 12 13  1  0
 14 13  1  1
 14 15  1  0
 15 16  1  0
 16 17  1  1
 16 18  1  0
 18 19  1  0
 19 20  1  0
 20 21  1  6
 20 22  1  0
 22 23  1  6
 23 24  1  0
 24 25  1  0
 25 26  1  6
 25  7  1  0
 25 10  1  0
 22 11  1  0
 20 14  1  0
M  END
>  <MS_ID>  (3295) 
MS3434

>  <SMILES>  (3295) 
CC(C)[C@H](C)O[C@H]1CC[C@H]2[C@@H]3CC[C@@H]4C[C@H](O)CC[C@]4(C)[C@H]3CC[C@]12C

>  <Structure_dimension>  (3295) 
2D

$$$$
MS3435
     RDKit          2D

 25 28  0  0  0  0  0  0  0  0999 V2000
   -6.9864    1.1099    0.0000 C   0  0  0  0  0  0  0  0  0  0  0  0
   -5.4866    1.1344    0.0000 C   0  0  0  0  0  0  0  0  0  0  0  0
   -4.7155   -0.1522    0.0000 C   0  0  0  0  0  0  0  0  0  0  0  0
   -5.4443   -1.4633    0.0000 O   0  0  0  0  0  0  0  0  0  0  0  0
   -3.2157   -0.1278    0.0000 C   0  0  0  0  0  0  0  0  0  0  0  0
   -3.5770    1.3281    0.0000 O   0  0  0  0  0  0  0  0  0  0  0  0
   -3.3482   -1.6219    0.0000 C   0  0  0  0  0  0  0  0  0  0  0  0
   -1.9681   -2.2096    0.0000 C   0  0  0  0  0  0  0  0  0  0  0  0
   -0.9827   -1.0787    0.0000 C   0  0  0  0  0  0  0  0  0  0  0  0
    0.5171   -1.0542    0.0000 C   0  0  0  0  0  0  0  0  0  0  0  0
    1.2882   -2.3409    0.0000 C   0  0  0  0  0  0  0  0  0  0  0  0
    2.7880   -2.3164    0.0000 C   0  0  0  0  0  0  0  0  0  0  0  0
    3.5167   -1.0053    0.0000 C   0  0  0  0  0  0  0  0  0  0  0  0
    5.0165   -0.9809    0.0000 C   0  0  0  0  0  0  0  0  0  0  0  0
    5.7452    0.3302    0.0000 C   0  0  0  0  0  0  0  0  0  0  0  0
    7.2450    0.3547    0.0000 O   0  0  0  0  0  0  0  0  0  0  0  0
    4.9741    1.6169    0.0000 C   0  0  0  0  0  0  0  0  0  0  0  0
    3.4743    1.5924    0.0000 C   0  0  0  0  0  0  0  0  0  0  0  0
    2.7456    0.2813    0.0000 C   0  0  0  0  0  0  0  0  0  0  0  0
    1.9745    1.5680    0.0000 C   0  0  0  0  0  0  0  0  0  0  0  0
    1.2458    0.2569    0.0000 C   0  0  0  0  0  0  0  0  0  0  0  0
    0.4747    1.5435    0.0000 C   0  0  0  0  0  0  0  0  0  0  0  0
   -1.0251    1.5191    0.0000 C   0  0  0  0  0  0  0  0  0  0  0  0
   -1.7538    0.2080    0.0000 C   0  0  0  0  0  0  0  0  0  0  0  0
   -2.5023    1.5079    0.0000 C   0  0  0  0  0  0  0  0  0  0  0  0
  1  2  2  0
  2  3  1  0
  3  4  1  1
  3  5  1  0
  5  6  1  1
  5  7  1  0
  7  8  1  0
  9  8  1  6
  9 10  1  0
 10 11  1  1
 11 12  1  0
 13 12  1  1
 13 14  1  0
 14 15  1  0
 15 16  1  1
 15 17  1  0
 17 18  1  0
 18 19  1  0
 19 20  1  6
 19 21  1  0
 21 22  1  6
 22 23  1  0
 23 24  1  0
 24 25  1  6
 24  5  1  0
 24  9  1  0
 21 10  1  0
 19 13  1  0
M  END
>  <MS_ID>  (3296) 
MS3435

>  <SMILES>  (3296) 
C=C[C@H](O)[C@@]1(O)CC[C@H]2[C@@H]3CC[C@@H]4C[C@H](O)CC[C@]4(C)[C@H]3CC[C@@]21C

>  <Structure_dimension>  (3296) 
2D

$$$$
MS3436
     RDKit          2D

 26 29  0  0  0  0  0  0  0  0999 V2000
    0.2187   -1.2730    0.0000 C   0  0  0  0  0  0  0  0  0  0  0  0
    0.7938    0.1124    0.0000 C   0  0  0  0  0  0  0  0  0  0  0  0
    1.7061   -1.0784    0.0000 C   0  0  0  0  0  0  0  0  0  0  0  0
    3.1934   -0.8837    0.0000 C   0  0  0  0  0  0  0  0  0  0  0  0
    3.7685    0.5017    0.0000 C   0  0  0  0  0  0  0  0  0  0  0  0
    5.2558    0.6963    0.0000 O   0  0  0  0  0  0  0  0  0  0  0  0
    6.1680   -0.4944    0.0000 S   0  0  0  0  0  0  0  0  0  0  0  0
    4.9773   -1.4066    0.0000 O   0  0  0  0  0  0  0  0  0  0  0  0
    7.3587    0.4178    0.0000 O   0  0  0  0  0  0  0  0  0  0  0  0
    7.0802   -1.6851    0.0000 O   0  0  0  0  0  0  0  0  0  0  0  0
    2.8562    1.6924    0.0000 C   0  0  0  0  0  0  0  0  0  0  0  0
    1.3689    1.4977    0.0000 C   0  0  0  0  0  0  0  0  0  0  0  0
    0.4567    2.6885    0.0000 C   0  0  0  0  0  0  0  0  0  0  0  0
   -1.0306    2.4938    0.0000 C   0  0  0  0  0  0  0  0  0  0  0  0
   -1.6057    1.1084    0.0000 C   0  0  0  0  0  0  0  0  0  0  0  0
   -0.6935   -0.0823    0.0000 C   0  0  0  0  0  0  0  0  0  0  0  0
   -1.2686   -1.4677    0.0000 C   0  0  0  0  0  0  0  0  0  0  0  0
   -2.7559   -1.6623    0.0000 C   0  0  0  0  0  0  0  0  0  0  0  0
   -3.6681   -0.4716    0.0000 C   0  0  0  0  0  0  0  0  0  0  0  0
   -4.2189   -1.8668    0.0000 C   0  0  0  0  0  0  0  0  0  0  0  0
   -3.0930    0.9138    0.0000 C   0  0  0  0  0  0  0  0  0  0  0  0
   -4.2329    1.8888    0.0000 C   0  0  0  0  0  0  0  0  0  0  0  0
   -5.5125    1.1061    0.0000 C   0  0  0  0  0  0  0  0  0  0  0  0
   -5.1634   -0.3527    0.0000 C   0  0  0  0  0  0  0  0  0  0  0  0
   -6.6507   -0.5474    0.0000 C   0  0  0  0  0  0  0  0  0  0  0  0
   -5.3084   -1.8457    0.0000 O   0  0  0  0  0  0  0  0  0  0  0  0
  2  1  1  1
  2  3  1  0
  3  4  1  0
  4  5  1  0
  5  6  1  6
  6  7  1  0
  7  8  2  0
  7  9  2  0
  7 10  1  0
  5 11  1  0
 12 11  1  6
 12 13  1  0
 13 14  1  0
 15 14  1  6
 15 16  1  0
 16 17  1  1
 17 18  1  0
 18 19  1  0
 19 20  1  1
 19 21  1  0
 21 22  1  1
 22 23  1  0
 23 24  1  0
 24 25  1  6
 24 26  1  0
 12  2  1  0
 21 15  1  0
 16  2  1  0
 24 19  1  0
M  END
>  <MS_ID>  (3297) 
MS3436

>  <SMILES>  (3297) 
C[C@]12CC[C@@H](OS(=O)(=O)O)C[C@H]1CC[C@@H]1[C@@H]2CC[C@@]2(C)[C@H]1CC[C@]2(C)O

>  <Structure_dimension>  (3297) 
2D

$$$$
MS3437
     RDKit          2D

 25 28  0  0  0  0  0  0  0  0999 V2000
   -5.7665    1.2986    0.0000 C   0  0  0  0  0  0  0  0  0  0  0  0
   -5.0480   -0.0181    0.0000 C   0  0  0  0  0  0  0  0  0  0  0  0
   -5.8291   -1.2987    0.0000 O   0  0  0  0  0  0  0  0  0  0  0  0
   -3.5484   -0.0543    0.0000 C   0  0  0  0  0  0  0  0  0  0  0  0
   -3.8506    1.4150    0.0000 O   0  0  0  0  0  0  0  0  0  0  0  0
   -3.7411   -1.5418    0.0000 C   0  0  0  0  0  0  0  0  0  0  0  0
   -2.3859   -2.1848    0.0000 C   0  0  0  0  0  0  0  0  0  0  0  0
   -1.3556   -1.0946    0.0000 C   0  0  0  0  0  0  0  0  0  0  0  0
    0.1439   -1.1307    0.0000 C   0  0  0  0  0  0  0  0  0  0  0  0
    0.8624   -2.4475    0.0000 C   0  0  0  0  0  0  0  0  0  0  0  0
    2.3620   -2.4836    0.0000 C   0  0  0  0  0  0  0  0  0  0  0  0
    3.1431   -1.2030    0.0000 C   0  0  0  0  0  0  0  0  0  0  0  0
    4.6426   -1.2392    0.0000 C   0  0  0  0  0  0  0  0  0  0  0  0
    5.4237    0.0414    0.0000 C   0  0  0  0  0  0  0  0  0  0  0  0
    6.9233    0.0052    0.0000 O   0  0  0  0  0  0  0  0  0  0  0  0
    4.7052    1.3581    0.0000 C   0  0  0  0  0  0  0  0  0  0  0  0
    3.2057    1.3943    0.0000 C   0  0  0  0  0  0  0  0  0  0  0  0
    2.4246    0.1137    0.0000 C   0  0  0  0  0  0  0  0  0  0  0  0
    1.7061    1.4304    0.0000 C   0  0  0  0  0  0  0  0  0  0  0  0
    0.9250    0.1498    0.0000 C   0  0  0  0  0  0  0  0  0  0  0  0
    0.2065    1.4666    0.0000 C   0  0  0  0  0  0  0  0  0  0  0  0
    0.9876    2.7472    0.0000 O   0  0  0  0  0  0  0  0  0  0  0  0
   -1.2930    1.5027    0.0000 C   0  0  0  0  0  0  0  0  0  0  0  0
   -2.0741    0.2221    0.0000 C   0  0  0  0  0  0  0  0  0  0  0  0
   -2.7695    1.5512    0.0000 C   0  0  0  0  0  0  0  0  0  0  0  0
  2  1  1  6
  2  3  1  0
  2  4  1  0
  4  5  1  6
  4  6  1  0
  6  7  1  0
  8  7  1  6
  8  9  1  0
  9 10  1  1
 10 11  1  0
 12 11  1  1
 12 13  1  0
 13 14  1  0
 14 15  1  1
 14 16  1  0
 16 17  1  0
 17 18  1  0
 18 19  1  6
 18 20  1  0
 20 21  1  6
 21 22  2  0
 21 23  1  0
 23 24  1  0
 24 25  1  6
 24  4  1  0
 24  8  1  0
 20  9  1  0
 18 12  1  0
M  END
>  <MS_ID>  (3298) 
MS3437

>  <SMILES>  (3298) 
C[C@@H](O)[C@]1(O)CC[C@H]2[C@@H]3CC[C@@H]4C[C@H](O)CC[C@]4(C)[C@H]3C(=O)C[C@@]21C

>  <Structure_dimension>  (3298) 
2D

$$$$
MS3438
     RDKit          2D

 28 31  0  0  0  0  0  0  0  0999 V2000
   -5.1275   -2.0302    0.0000 C   0  0  0  0  0  0  0  0  0  0  0  0
   -3.9468   -1.1050    0.0000 C   0  0  0  0  0  0  0  0  0  0  0  0
   -4.1576    0.3801    0.0000 C   0  0  0  0  0  0  0  0  0  0  0  0
   -5.5492    0.9401    0.0000 C   0  0  0  0  0  0  0  0  0  0  0  0
   -5.7600    2.4252    0.0000 C   0  0  0  0  0  0  0  0  0  0  0  0
   -7.1516    2.9851    0.0000 O   0  0  0  0  0  0  0  0  0  0  0  0
   -4.5793    3.3503    0.0000 O   0  0  0  0  0  0  0  0  0  0  0  0
   -2.5552   -1.6650    0.0000 C   0  0  0  0  0  0  0  0  0  0  0  0
   -2.1903   -3.1199    0.0000 C   0  0  0  0  0  0  0  0  0  0  0  0
   -0.6938   -3.2225    0.0000 C   0  0  0  0  0  0  0  0  0  0  0  0
   -0.1339   -1.8309    0.0000 C   0  0  0  0  0  0  0  0  0  0  0  0
    1.2750   -1.3159    0.0000 C   0  0  0  0  0  0  0  0  0  0  0  0
    2.4254   -2.2785    0.0000 C   0  0  0  0  0  0  0  0  0  0  0  0
    2.1670   -3.7560    0.0000 O   0  0  0  0  0  0  0  0  0  0  0  0
    3.8342   -1.7635    0.0000 C   0  0  0  0  0  0  0  0  0  0  0  0
    4.0926   -0.2859    0.0000 C   0  0  0  0  0  0  0  0  0  0  0  0
    5.5014    0.2291    0.0000 C   0  0  0  0  0  0  0  0  0  0  0  0
    5.7598    1.7067    0.0000 C   0  0  0  0  0  0  0  0  0  0  0  0
    7.1687    2.2217    0.0000 O   0  0  0  0  0  0  0  0  0  0  0  0
    4.6094    2.6692    0.0000 C   0  0  0  0  0  0  0  0  0  0  0  0
    3.2006    2.1542    0.0000 C   0  0  0  0  0  0  0  0  0  0  0  0
    2.9422    0.6767    0.0000 C   0  0  0  0  0  0  0  0  0  0  0  0
    1.7918    1.6392    0.0000 C   0  0  0  0  0  0  0  0  0  0  0  0
    1.5334    0.1617    0.0000 C   0  0  0  0  0  0  0  0  0  0  0  0
    0.3830    1.1242    0.0000 C   0  0  0  0  0  0  0  0  0  0  0  0
   -1.0259    0.6093    0.0000 C   0  0  0  0  0  0  0  0  0  0  0  0
   -1.2843   -0.8683    0.0000 C   0  0  0  0  0  0  0  0  0  0  0  0
   -2.5290   -0.0313    0.0000 C   0  0  0  0  0  0  0  0  0  0  0  0
  2  1  1  6
  2  3  1  0
  3  4  1  0
  4  5  1  0
  5  6  1  0
  5  7  1  0
  2  8  1  0
  8  9  1  6
  9 10  1  0
 11 10  1  6
 11 12  1  0
 12 13  1  1
 13 14  1  6
 13 15  1  0
 16 15  1  1
 16 17  1  0
 17 18  1  0
 18 19  1  1
 18 20  1  0
 20 21  1  0
 21 22  1  0
 22 23  1  6
 22 24  1  0
 24 25  1  6
 25 26  1  0
 26 27  1  0
 27 28  1  6
 27  8  1  0
 27 11  1  0
 24 12  1  0
 22 16  1  0
M  END
>  <MS_ID>  (3299) 
MS3438

>  <SMILES>  (3299) 
C[C@H](CCC(O)O)[C@H]1CC[C@H]2[C@@H]3[C@@H](O)C[C@@H]4C[C@H](O)CC[C@]4(C)[C@H]3CC[C@]12C

>  <Structure_dimension>  (3299) 
2D

$$$$
MS3439
     RDKit          2D

 24 27  0  0  0  0  0  0  0  0999 V2000
   -6.2943    0.2891    0.0000 C   0  0  0  0  0  0  0  0  0  0  0  0
   -4.8892    0.8143    0.0000 C   0  0  0  0  0  0  0  0  0  0  0  0
   -4.6416    2.2937    0.0000 O   0  0  0  0  0  0  0  0  0  0  0  0
   -3.7319   -0.1399    0.0000 C   0  0  0  0  0  0  0  0  0  0  0  0
   -3.8235   -1.6371    0.0000 C   0  0  0  0  0  0  0  0  0  0  0  0
   -2.4280   -2.1870    0.0000 C   0  0  0  0  0  0  0  0  0  0  0  0
   -1.4738   -1.0296    0.0000 C   0  0  0  0  0  0  0  0  0  0  0  0
    0.0248   -0.9643    0.0000 C   0  0  0  0  0  0  0  0  0  0  0  0
    0.8307   -2.2294    0.0000 C   0  0  0  0  0  0  0  0  0  0  0  0
    0.1380   -3.5599    0.0000 O   0  0  0  0  0  0  0  0  0  0  0  0
    2.3293   -2.1641    0.0000 C   0  0  0  0  0  0  0  0  0  0  0  0
    3.0220   -0.8336    0.0000 C   0  0  0  0  0  0  0  0  0  0  0  0
    4.5205   -0.7683    0.0000 C   0  0  0  0  0  0  0  0  0  0  0  0
    5.2133    0.5622    0.0000 C   0  0  0  0  0  0  0  0  0  0  0  0
    6.7118    0.6275    0.0000 O   0  0  0  0  0  0  0  0  0  0  0  0
    4.4074    1.8273    0.0000 C   0  0  0  0  0  0  0  0  0  0  0  0
    2.9088    1.7620    0.0000 C   0  0  0  0  0  0  0  0  0  0  0  0
    2.2161    0.4315    0.0000 C   0  0  0  0  0  0  0  0  0  0  0  0
    1.4102    1.6967    0.0000 C   0  0  0  0  0  0  0  0  0  0  0  0
    0.7175    0.3662    0.0000 C   0  0  0  0  0  0  0  0  0  0  0  0
   -0.0883    1.6314    0.0000 C   0  0  0  0  0  0  0  0  0  0  0  0
   -1.5869    1.5660    0.0000 C   0  0  0  0  0  0  0  0  0  0  0  0
   -2.2796    0.2356    0.0000 C   0  0  0  0  0  0  0  0  0  0  0  0
   -3.2133    1.4095    0.0000 C   0  0  0  0  0  0  0  0  0  0  0  0
  1  2  1  0
  2  3  2  0
  4  2  1  6
  4  5  1  0
  5  6  1  0
  7  6  1  6
  7  8  1  0
  8  9  1  1
  9 10  2  0
  9 11  1  0
 12 11  1  1
 12 13  1  0
 13 14  1  0
 14 15  1  1
 14 16  1  0
 16 17  1  0
 17 18  1  0
 18 19  1  6
 18 20  1  0
 20 21  1  6
 21 22  1  0
 22 23  1  0
 23 24  1  6
 23  4  1  0
 23  7  1  0
 20  8  1  0
 18 12  1  0
M  END
>  <MS_ID>  (3300) 
MS3439

>  <SMILES>  (3300) 
CC(=O)[C@H]1CC[C@H]2[C@@H]3C(=O)C[C@@H]4C[C@H](O)CC[C@]4(C)[C@H]3CC[C@]12C

>  <Structure_dimension>  (3300) 
2D

$$$$
MS3440
     RDKit          2D

 30 33  0  0  0  0  0  0  0  0999 V2000
   -4.3604   -2.4693    0.0000 C   0  0  0  0  0  0  0  0  0  0  0  0
   -3.2521   -1.4586    0.0000 C   0  0  0  0  0  0  0  0  0  0  0  0
   -3.5733    0.0066    0.0000 C   0  0  0  0  0  0  0  0  0  0  0  0
   -5.0028    0.4611    0.0000 C   0  0  0  0  0  0  0  0  0  0  0  0
   -6.1111   -0.5497    0.0000 O   0  0  0  0  0  0  0  0  0  0  0  0
   -5.3240    1.9263    0.0000 C   0  0  0  0  0  0  0  0  0  0  0  0
   -6.7535    2.3807    0.0000 C   0  0  0  0  0  0  0  0  0  0  0  0
   -7.8618    1.3699    0.0000 O   0  0  0  0  0  0  0  0  0  0  0  0
   -7.0747    3.8459    0.0000 O   0  0  0  0  0  0  0  0  0  0  0  0
   -1.8226   -1.9130    0.0000 C   0  0  0  0  0  0  0  0  0  0  0  0
   -1.3499   -3.3366    0.0000 C   0  0  0  0  0  0  0  0  0  0  0  0
    0.1500   -3.3270    0.0000 C   0  0  0  0  0  0  0  0  0  0  0  0
    0.6045   -1.8975    0.0000 C   0  0  0  0  0  0  0  0  0  0  0  0
    1.9709   -1.2787    0.0000 C   0  0  0  0  0  0  0  0  0  0  0  0
    3.1900   -2.1526    0.0000 C   0  0  0  0  0  0  0  0  0  0  0  0
    3.0427   -3.6454    0.0000 O   0  0  0  0  0  0  0  0  0  0  0  0
    4.5564   -1.5338    0.0000 C   0  0  0  0  0  0  0  0  0  0  0  0
    4.7037   -0.0411    0.0000 C   0  0  0  0  0  0  0  0  0  0  0  0
    6.0701    0.5777    0.0000 C   0  0  0  0  0  0  0  0  0  0  0  0
    6.2174    2.0705    0.0000 C   0  0  0  0  0  0  0  0  0  0  0  0
    7.5838    2.6893    0.0000 O   0  0  0  0  0  0  0  0  0  0  0  0
    4.9982    2.9444    0.0000 C   0  0  0  0  0  0  0  0  0  0  0  0
    3.6318    2.3256    0.0000 C   0  0  0  0  0  0  0  0  0  0  0  0
    3.4846    0.8329    0.0000 C   0  0  0  0  0  0  0  0  0  0  0  0
    2.2654    1.7068    0.0000 C   0  0  0  0  0  0  0  0  0  0  0  0
    2.1181    0.2140    0.0000 C   0  0  0  0  0  0  0  0  0  0  0  0
    0.8990    1.0880    0.0000 C   0  0  0  0  0  0  0  0  0  0  0  0
   -0.4674    0.4691    0.0000 C   0  0  0  0  0  0  0  0  0  0  0  0
   -0.6147   -1.0236    0.0000 C   0  0  0  0  0  0  0  0  0  0  0  0
   -1.9185   -0.2819    0.0000 C   0  0  0  0  0  0  0  0  0  0  0  0
  2  1  1  6
  2  3  1  0
  3  4  1  0
  4  5  2  0
  4  6  1  0
  6  7  1  0
  7  8  2  0
  7  9  1  0
  2 10  1  0
 10 11  1  6
 11 12  1  0
 13 12  1  6
 13 14  1  0
 14 15  1  1
 15 16  1  6
 15 17  1  0
 18 17  1  1
 18 19  1  0
 19 20  1  0
 20 21  1  1
 20 22  1  0
 22 23  1  0
 23 24  1  0
 24 25  1  6
 24 26  1  0
 26 27  1  6
 27 28  1  0
 28 29  1  0
 29 30  1  6
 29 10  1  0
 29 13  1  0
 26 14  1  0
 24 18  1  0
M  END
>  <MS_ID>  (3301) 
MS3440

>  <SMILES>  (3301) 
C[C@H](CC(=O)CC(=O)O)[C@H]1CC[C@H]2[C@@H]3[C@@H](O)C[C@@H]4C[C@H](O)CC[C@]4(C)[C@H]3CC[C@]12C

>  <Structure_dimension>  (3301) 
2D

$$$$
MS3441
     RDKit          2D

 28 31  0  0  0  0  0  0  0  0999 V2000
   -4.7187    4.3438    0.0000 C   0  0  0  0  0  0  0  0  0  0  0  0
   -4.4488    2.8683    0.0000 C   0  0  0  0  0  0  0  0  0  0  0  0
   -5.5917    1.8968    0.0000 C   0  0  0  0  0  0  0  0  0  0  0  0
   -7.0045    2.4008    0.0000 C   0  0  0  0  0  0  0  0  0  0  0  0
   -5.3218    0.4213    0.0000 C   0  0  0  0  0  0  0  0  0  0  0  0
   -3.9090   -0.0827    0.0000 C   0  0  0  0  0  0  0  0  0  0  0  0
   -3.6391   -1.5583    0.0000 C   0  0  0  0  0  0  0  0  0  0  0  0
   -4.7819   -2.5298    0.0000 C   0  0  0  0  0  0  0  0  0  0  0  0
   -2.2263   -2.0623    0.0000 C   0  0  0  0  0  0  0  0  0  0  0  0
   -1.8036   -3.5015    0.0000 C   0  0  0  0  0  0  0  0  0  0  0  0
   -0.3042   -3.5443    0.0000 C   0  0  0  0  0  0  0  0  0  0  0  0
    0.1998   -2.1315    0.0000 C   0  0  0  0  0  0  0  0  0  0  0  0
    1.5870   -1.5607    0.0000 C   0  0  0  0  0  0  0  0  0  0  0  0
    2.7749   -2.4766    0.0000 C   0  0  0  0  0  0  0  0  0  0  0  0
    4.1620   -1.9058    0.0000 C   0  0  0  0  0  0  0  0  0  0  0  0
    4.3613   -0.4191    0.0000 C   0  0  0  0  0  0  0  0  0  0  0  0
    5.7484    0.1517    0.0000 C   0  0  0  0  0  0  0  0  0  0  0  0
    5.9477    1.6384    0.0000 C   0  0  0  0  0  0  0  0  0  0  0  0
    7.3348    2.2092    0.0000 O   0  0  0  0  0  0  0  0  0  0  0  0
    4.7598    2.5543    0.0000 C   0  0  0  0  0  0  0  0  0  0  0  0
    3.3726    1.9835    0.0000 C   0  0  0  0  0  0  0  0  0  0  0  0
    3.1734    0.4968    0.0000 C   0  0  0  0  0  0  0  0  0  0  0  0
    1.9855    1.4127    0.0000 C   0  0  0  0  0  0  0  0  0  0  0  0
    1.7862   -0.0740    0.0000 C   0  0  0  0  0  0  0  0  0  0  0  0
    0.5983    0.8419    0.0000 C   0  0  0  0  0  0  0  0  0  0  0  0
   -0.7888    0.2712    0.0000 C   0  0  0  0  0  0  0  0  0  0  0  0
   -0.9881   -1.2155    0.0000 C   0  0  0  0  0  0  0  0  0  0  0  0
   -2.2652   -0.4288    0.0000 C   0  0  0  0  0  0  0  0  0  0  0  0
  1  2  1  0
  2  3  1  0
  3  4  1  1
  3  5  1  0
  5  6  1  0
  6  7  1  0
  7  8  1  6
  7  9  1  0
  9 10  1  6
 10 11  1  0
 12 11  1  6
 12 13  1  0
 13 14  1  1
 14 15  1  0
 16 15  1  6
 16 17  1  0
 17 18  1  0
 18 19  1  6
 18 20  1  0
 20 21  1  0
 21 22  1  0
 22 23  1  6
 22 24  1  0
 24 25  1  6
 25 26  1  0
 26 27  1  0
 27 28  1  6
 27  9  1  0
 27 12  1  0
 24 13  1  0
 22 16  1  0
M  END
>  <MS_ID>  (3302) 
MS3441

>  <SMILES>  (3302) 
CC[C@H](C)CC[C@@H](C)[C@H]1CC[C@H]2[C@@H]3CC[C@H]4C[C@@H](O)CC[C@]4(C)[C@H]3CC[C@]12C

>  <Structure_dimension>  (3302) 
2D

$$$$
MS3442
     RDKit          2D

 25 28  0  0  0  0  0  0  0  0999 V2000
   -7.0382    1.5273    0.0000 C   0  0  0  0  0  0  0  0  0  0  0  0
   -5.9075    0.5416    0.0000 C   0  0  0  0  0  0  0  0  0  0  0  0
   -6.1959   -0.9304    0.0000 O   0  0  0  0  0  0  0  0  0  0  0  0
   -4.4886    1.0279    0.0000 O   0  0  0  0  0  0  0  0  0  0  0  0
   -3.3579    0.0422    0.0000 C   0  0  0  0  0  0  0  0  0  0  0  0
   -3.4908   -1.4519    0.0000 C   0  0  0  0  0  0  0  0  0  0  0  0
   -2.1109   -2.0400    0.0000 C   0  0  0  0  0  0  0  0  0  0  0  0
   -1.1252   -0.9093    0.0000 C   0  0  0  0  0  0  0  0  0  0  0  0
    0.3747   -0.8853    0.0000 C   0  0  0  0  0  0  0  0  0  0  0  0
    1.1454   -2.1721    0.0000 C   0  0  0  0  0  0  0  0  0  0  0  0
    0.4163   -3.4830    0.0000 O   0  0  0  0  0  0  0  0  0  0  0  0
    2.6452   -2.1481    0.0000 C   0  0  0  0  0  0  0  0  0  0  0  0
    3.3743   -0.8372    0.0000 C   0  0  0  0  0  0  0  0  0  0  0  0
    4.8741   -0.8132    0.0000 C   0  0  0  0  0  0  0  0  0  0  0  0
    5.6032    0.4977    0.0000 C   0  0  0  0  0  0  0  0  0  0  0  0
    7.1030    0.5217    0.0000 O   0  0  0  0  0  0  0  0  0  0  0  0
    4.8325    1.7845    0.0000 C   0  0  0  0  0  0  0  0  0  0  0  0
    3.3327    1.7605    0.0000 C   0  0  0  0  0  0  0  0  0  0  0  0
    2.6036    0.4496    0.0000 C   0  0  0  0  0  0  0  0  0  0  0  0
    1.8328    1.7365    0.0000 C   0  0  0  0  0  0  0  0  0  0  0  0
    1.1038    0.4256    0.0000 C   0  0  0  0  0  0  0  0  0  0  0  0
    0.3330    1.7125    0.0000 C   0  0  0  0  0  0  0  0  0  0  0  0
   -1.1668    1.6884    0.0000 C   0  0  0  0  0  0  0  0  0  0  0  0
   -1.8959    0.3775    0.0000 C   0  0  0  0  0  0  0  0  0  0  0  0
   -2.7969    1.5768    0.0000 C   0  0  0  0  0  0  0  0  0  0  0  0
  1  2  1  0
  2  3  2  0
  2  4  1  0
  5  4  1  6
  5  6  1  0
  6  7  1  0
  8  7  1  6
  8  9  1  0
  9 10  1  1
 10 11  1  1
 10 12  1  0
 13 12  1  1
 13 14  1  0
 14 15  1  0
 15 16  1  1
 15 17  1  0
 17 18  1  0
 18 19  1  0
 19 20  1  6
 19 21  1  0
 21 22  1  6
 22 23  1  0
 23 24  1  0
 24 25  1  6
 24  5  1  0
 24  8  1  0
 21  9  1  0
 19 13  1  0
M  END
>  <MS_ID>  (3303) 
MS3442

>  <SMILES>  (3303) 
CC(=O)O[C@H]1CC[C@H]2[C@@H]3[C@H](O)C[C@@H]4C[C@H](O)CC[C@]4(C)[C@H]3CC[C@]12C

>  <Structure_dimension>  (3303) 
2D

$$$$
MS3443
     RDKit          2D

 31 34  0  0  0  0  0  0  0  0999 V2000
   -9.1135   -0.6668    0.0000 C   0  0  0  0  0  0  0  0  0  0  0  0
   -7.7905    0.0399    0.0000 C   0  0  0  0  0  0  0  0  0  0  0  0
   -6.5169   -0.7526    0.0000 C   0  0  0  0  0  0  0  0  0  0  0  0
   -5.1938   -0.0459    0.0000 C   0  0  0  0  0  0  0  0  0  0  0  0
   -3.9202   -0.8383    0.0000 C   0  0  0  0  0  0  0  0  0  0  0  0
   -3.9697   -2.3375    0.0000 O   0  0  0  0  0  0  0  0  0  0  0  0
   -2.5971   -0.1316    0.0000 O   0  0  0  0  0  0  0  0  0  0  0  0
   -1.3236   -0.9241    0.0000 C   0  0  0  0  0  0  0  0  0  0  0  0
   -1.2161   -2.4202    0.0000 C   0  0  0  0  0  0  0  0  0  0  0  0
    0.2400   -2.7804    0.0000 C   0  0  0  0  0  0  0  0  0  0  0  0
    1.0325   -1.5068    0.0000 C   0  0  0  0  0  0  0  0  0  0  0  0
    2.5092   -1.2435    0.0000 C   0  0  0  0  0  0  0  0  0  0  0  0
    3.4756   -2.3908    0.0000 C   0  0  0  0  0  0  0  0  0  0  0  0
    4.9523   -2.1275    0.0000 C   0  0  0  0  0  0  0  0  0  0  0  0
    5.4626   -0.7170    0.0000 C   0  0  0  0  0  0  0  0  0  0  0  0
    6.9394   -0.4537    0.0000 C   0  0  0  0  0  0  0  0  0  0  0  0
    7.4497    0.9568    0.0000 C   0  0  0  0  0  0  0  0  0  0  0  0
    8.9264    1.2200    0.0000 O   0  0  0  0  0  0  0  0  0  0  0  0
    6.4834    2.1040    0.0000 C   0  0  0  0  0  0  0  0  0  0  0  0
    5.0067    1.8408    0.0000 C   0  0  0  0  0  0  0  0  0  0  0  0
    4.4963    0.4302    0.0000 C   0  0  0  0  0  0  0  0  0  0  0  0
    3.5299    1.5775    0.0000 C   0  0  0  0  0  0  0  0  0  0  0  0
    3.0196    0.1670    0.0000 C   0  0  0  0  0  0  0  0  0  0  0  0
    2.0532    1.3142    0.0000 C   0  0  0  0  0  0  0  0  0  0  0  0
    0.5765    1.0510    0.0000 C   0  0  0  0  0  0  0  0  0  0  0  0
   -0.3898    2.1982    0.0000 O   0  0  0  0  0  0  0  0  0  0  0  0
    0.0661   -0.3596    0.0000 C   0  0  0  0  0  0  0  0  0  0  0  0
   -1.0148    0.6804    0.0000 C   0  0  0  0  0  0  0  0  0  0  0  0
   -7.7409    1.5391    0.0000 C   0  0  0  0  0  0  0  0  0  0  0  0
   -6.4179    2.2458    0.0000 O   0  0  0  0  0  0  0  0  0  0  0  0
   -9.0145    2.3315    0.0000 O   0  0  0  0  0  0  0  0  0  0  0  0
  2  1  1  1
  2  3  1  0
  3  4  1  0
  4  5  1  0
  5  6  2  0
  5  7  1  0
  8  7  1  6
  8  9  1  0
  9 10  1  0
 11 10  1  6
 11 12  1  0
 12 13  1  1
 13 14  1  0
 15 14  1  1
 15 16  1  0
 16 17  1  0
 17 18  2  0
 17 19  1  0
 19 20  1  0
 20 21  1  0
 21 22  1  6
 21 23  1  0
 23 24  1  6
 24 25  1  0
 25 26  1  1
 25 27  1  0
 27 28  1  6
  2 29  1  0
 29 30  2  0
 29 31  1  0
 27  8  1  0
 27 11  1  0
 23 12  1  0
 21 15  1  0
M  END
>  <MS_ID>  (3304) 
MS3443

>  <SMILES>  (3304) 
C[C@H](CCC(=O)O[C@H]1CC[C@H]2[C@@H]3CC[C@@H]4CC(=O)CC[C@]4(C)[C@H]3C[C@H](O)[C@]12C)C(=O)O

>  <Structure_dimension>  (3304) 
2D

$$$$
MS3444
     RDKit          2D

 30 33  0  0  0  0  0  0  0  0999 V2000
   -4.3209   -2.7536    0.0000 C   0  0  0  0  0  0  0  0  0  0  0  0
   -3.2523   -1.7010    0.0000 C   0  0  0  0  0  0  0  0  0  0  0  0
   -3.6295   -0.2492    0.0000 C   0  0  0  0  0  0  0  0  0  0  0  0
   -5.0755    0.1499    0.0000 C   0  0  0  0  0  0  0  0  0  0  0  0
   -5.4527    1.6017    0.0000 C   0  0  0  0  0  0  0  0  0  0  0  0
   -4.3841    2.6543    0.0000 O   0  0  0  0  0  0  0  0  0  0  0  0
   -6.8987    2.0009    0.0000 C   0  0  0  0  0  0  0  0  0  0  0  0
   -7.2759    3.4526    0.0000 C   0  0  0  0  0  0  0  0  0  0  0  0
   -7.9673    0.9482    0.0000 O   0  0  0  0  0  0  0  0  0  0  0  0
   -1.8064   -2.1002    0.0000 C   0  0  0  0  0  0  0  0  0  0  0  0
   -1.2794   -3.5046    0.0000 C   0  0  0  0  0  0  0  0  0  0  0  0
    0.2191   -3.4374    0.0000 C   0  0  0  0  0  0  0  0  0  0  0  0
    0.6183   -1.9915    0.0000 C   0  0  0  0  0  0  0  0  0  0  0  0
    1.9599   -1.3206    0.0000 C   0  0  0  0  0  0  0  0  0  0  0  0
    3.2117   -2.1470    0.0000 C   0  0  0  0  0  0  0  0  0  0  0  0
    3.1219   -3.6443    0.0000 O   0  0  0  0  0  0  0  0  0  0  0  0
    4.5533   -1.4762    0.0000 C   0  0  0  0  0  0  0  0  0  0  0  0
    4.6431    0.0211    0.0000 C   0  0  0  0  0  0  0  0  0  0  0  0
    5.9847    0.6920    0.0000 C   0  0  0  0  0  0  0  0  0  0  0  0
    6.0745    2.1893    0.0000 C   0  0  0  0  0  0  0  0  0  0  0  0
    7.4161    2.8602    0.0000 O   0  0  0  0  0  0  0  0  0  0  0  0
    4.8227    3.0158    0.0000 C   0  0  0  0  0  0  0  0  0  0  0  0
    3.4811    2.3449    0.0000 C   0  0  0  0  0  0  0  0  0  0  0  0
    3.3913    0.8476    0.0000 C   0  0  0  0  0  0  0  0  0  0  0  0
    2.1395    1.6740    0.0000 C   0  0  0  0  0  0  0  0  0  0  0  0
    2.0497    0.1767    0.0000 C   0  0  0  0  0  0  0  0  0  0  0  0
    0.7979    1.0031    0.0000 C   0  0  0  0  0  0  0  0  0  0  0  0
   -0.5437    0.3323    0.0000 C   0  0  0  0  0  0  0  0  0  0  0  0
   -0.6335   -1.1650    0.0000 C   0  0  0  0  0  0  0  0  0  0  0  0
   -1.9649   -0.4740    0.0000 C   0  0  0  0  0  0  0  0  0  0  0  0
  2  1  1  6
  2  3  1  0
  3  4  1  0
  4  5  1  0
  5  6  1  6
  5  7  1  0
  7  8  1  6
  7  9  1  0
  2 10  1  0
 10 11  1  6
 11 12  1  0
 13 12  1  6
 13 14  1  0
 14 15  1  1
 15 16  1  6
 15 17  1  0
 18 17  1  1
 18 19  1  0
 19 20  1  0
 20 21  1  1
 20 22  1  0
 22 23  1  0
 23 24  1  0
 24 25  1  6
 24 26  1  0
 26 27  1  6
 27 28  1  0
 28 29  1  0
 29 30  1  6
 29 10  1  0
 29 13  1  0
 26 14  1  0
 24 18  1  0
M  END
>  <MS_ID>  (3305) 
MS3444

>  <SMILES>  (3305) 
C[C@H](CC[C@@H](O)[C@@H](C)O)[C@H]1CC[C@H]2[C@@H]3[C@@H](O)C[C@@H]4C[C@H](O)CC[C@]4(C)[C@H]3CC[C@]12C

>  <Structure_dimension>  (3305) 
2D

$$$$
MS3445
     RDKit          2D

 26 29  0  0  0  0  0  0  0  0999 V2000
    0.5604   -3.5080    0.0000 C   0  0  0  0  0  0  0  0  0  0  0  0
    1.2807   -2.1922    0.0000 C   0  0  0  0  0  0  0  0  0  0  0  0
    2.7803   -2.1582    0.0000 C   0  0  0  0  0  0  0  0  0  0  0  0
    3.5006   -0.8424    0.0000 C   0  0  0  0  0  0  0  0  0  0  0  0
    5.0003   -0.8084    0.0000 C   0  0  0  0  0  0  0  0  0  0  0  0
    5.7206    0.5074    0.0000 C   0  0  0  0  0  0  0  0  0  0  0  0
    7.2202    0.5414    0.0000 O   0  0  0  0  0  0  0  0  0  0  0  0
    4.9412    1.7890    0.0000 C   0  0  0  0  0  0  0  0  0  0  0  0
    3.4416    1.7550    0.0000 C   0  0  0  0  0  0  0  0  0  0  0  0
    2.7213    0.4392    0.0000 C   0  0  0  0  0  0  0  0  0  0  0  0
    1.9420    1.7209    0.0000 C   0  0  0  0  0  0  0  0  0  0  0  0
    1.2217    0.4052    0.0000 C   0  0  0  0  0  0  0  0  0  0  0  0
    0.4424    1.6868    0.0000 C   0  0  0  0  0  0  0  0  0  0  0  0
   -1.0572    1.6528    0.0000 C   0  0  0  0  0  0  0  0  0  0  0  0
   -1.7775    0.3370    0.0000 C   0  0  0  0  0  0  0  0  0  0  0  0
   -2.5343    1.6321    0.0000 C   0  0  0  0  0  0  0  0  0  0  0  0
   -0.9982   -0.9446    0.0000 C   0  0  0  0  0  0  0  0  0  0  0  0
   -1.9763   -2.0819    0.0000 C   0  0  0  0  0  0  0  0  0  0  0  0
   -3.3601   -1.5030    0.0000 C   0  0  0  0  0  0  0  0  0  0  0  0
   -3.2373   -0.0081    0.0000 C   0  0  0  0  0  0  0  0  0  0  0  0
   -3.6078    1.4454    0.0000 O   0  0  0  0  0  0  0  0  0  0  0  0
   -4.7369   -0.0421    0.0000 C   0  0  0  0  0  0  0  0  0  0  0  0
   -5.4572   -1.3579    0.0000 O   0  0  0  0  0  0  0  0  0  0  0  0
   -5.5162    1.2395    0.0000 C   0  0  0  0  0  0  0  0  0  0  0  0
   -7.0158    1.2055    0.0000 O   0  0  0  0  0  0  0  0  0  0  0  0
    0.5014   -0.9106    0.0000 C   0  0  0  0  0  0  0  0  0  0  0  0
  2  1  1  1
  2  3  1  0
  4  3  1  1
  4  5  1  0
  5  6  1  0
  6  7  1  1
  6  8  1  0
  8  9  1  0
  9 10  1  0
 10 11  1  6
 10 12  1  0
 12 13  1  6
 13 14  1  0
 14 15  1  0
 15 16  1  6
 15 17  1  0
 17 18  1  6
 18 19  1  0
 19 20  1  0
 20 21  1  1
 20 22  1  0
 22 23  2  0
 22 24  1  0
 24 25  1  0
 17 26  1  0
 26  2  1  1
 10  4  1  0
 26 12  1  0
 20 15  1  0
M  END
>  <MS_ID>  (3306) 
MS3445

>  <SMILES>  (3306) 
C[C@@H]1C[C@@H]2C[C@H](O)CC[C@]2(C)[C@H]2CC[C@@]3(C)[C@@H](CC[C@]3(O)C(=O)CO)[C@H]12

>  <Structure_dimension>  (3306) 
2D

$$$$
MS3446
     RDKit          2D

 29 32  0  0  0  0  0  0  0  0999 V2000
   -4.5794    2.7226    0.0000 C   0  0  0  0  0  0  0  0  0  0  0  0
   -3.3580    1.8519    0.0000 S   0  0  0  0  0  0  0  0  0  0  0  0
   -3.5014    0.3587    0.0000 C   0  0  0  0  0  0  0  0  0  0  0  0
   -4.8662   -0.2637    0.0000 C   0  0  0  0  0  0  0  0  0  0  0  0
   -6.0876    0.6071    0.0000 C   0  0  0  0  0  0  0  0  0  0  0  0
   -7.4524   -0.0153    0.0000 C   0  0  0  0  0  0  0  0  0  0  0  0
   -7.5958   -1.5084    0.0000 O   0  0  0  0  0  0  0  0  0  0  0  0
   -8.6738    0.8554    0.0000 O   0  0  0  0  0  0  0  0  0  0  0  0
   -2.2800   -0.5120    0.0000 C   0  0  0  0  0  0  0  0  0  0  0  0
   -2.2665   -2.0119    0.0000 C   0  0  0  0  0  0  0  0  0  0  0  0
   -0.8358   -2.4626    0.0000 C   0  0  0  0  0  0  0  0  0  0  0  0
    0.0349   -1.2412    0.0000 C   0  0  0  0  0  0  0  0  0  0  0  0
    1.5252   -1.0710    0.0000 C   0  0  0  0  0  0  0  0  0  0  0  0
    2.4178   -2.2766    0.0000 C   0  0  0  0  0  0  0  0  0  0  0  0
    1.8200   -3.6523    0.0000 O   0  0  0  0  0  0  0  0  0  0  0  0
    3.9081   -2.1064    0.0000 C   0  0  0  0  0  0  0  0  0  0  0  0
    4.5058   -0.7307    0.0000 C   0  0  0  0  0  0  0  0  0  0  0  0
    5.9961   -0.5605    0.0000 C   0  0  0  0  0  0  0  0  0  0  0  0
    6.5939    0.8153    0.0000 C   0  0  0  0  0  0  0  0  0  0  0  0
    8.0842    0.9855    0.0000 C   0  0  0  0  0  0  0  0  0  0  0  0
    5.7014    2.0208    0.0000 C   0  0  0  0  0  0  0  0  0  0  0  0
    4.2111    1.8506    0.0000 C   0  0  0  0  0  0  0  0  0  0  0  0
    3.6133    0.4749    0.0000 C   0  0  0  0  0  0  0  0  0  0  0  0
    2.7207    1.6805    0.0000 C   0  0  0  0  0  0  0  0  0  0  0  0
    2.1230    0.3047    0.0000 C   0  0  0  0  0  0  0  0  0  0  0  0
    1.2304    1.5103    0.0000 C   0  0  0  0  0  0  0  0  0  0  0  0
   -0.2599    1.3401    0.0000 C   0  0  0  0  0  0  0  0  0  0  0  0
   -0.8577   -0.0357    0.0000 C   0  0  0  0  0  0  0  0  0  0  0  0
   -1.8713    1.0700    0.0000 C   0  0  0  0  0  0  0  0  0  0  0  0
  1  2  1  0
  2  3  1  0
  3  4  1  1
  4  5  1  0
  5  6  1  0
  6  7  2  0
  6  8  1  0
  3  9  1  0
  9 10  1  6
 10 11  1  0
 12 11  1  6
 12 13  1  0
 13 14  1  1
 14 15  1  6
 14 16  1  0
 17 16  1  1
 17 18  1  0
 18 19  1  0
 19 20  1  1
 19 21  1  0
 21 22  1  0
 22 23  1  0
 23 24  1  6
 23 25  1  0
 25 26  1  6
 26 27  1  0
 27 28  1  0
 28 29  1  6
 28  9  1  0
 28 12  1  0
 25 13  1  0
 23 17  1  0
M  END
>  <MS_ID>  (3307) 
MS3446

>  <SMILES>  (3307) 
CS[C@H](CCC(=O)O)[C@H]1CC[C@H]2[C@@H]3[C@@H](O)C[C@@H]4C[C@H](C)CC[C@]4(C)[C@H]3CC[C@]12C

>  <Structure_dimension>  (3307) 
2D

$$$$
MS3447
     RDKit          2D

 23 26  0  0  0  0  0  0  0  0999 V2000
   -0.3818   -3.4467    0.0000 C   0  0  0  0  0  0  0  0  0  0  0  0
    0.3987   -2.1658    0.0000 C   0  0  0  0  0  0  0  0  0  0  0  0
    1.8983   -2.2012    0.0000 C   0  0  0  0  0  0  0  0  0  0  0  0
    2.6787   -0.9203    0.0000 C   0  0  0  0  0  0  0  0  0  0  0  0
    4.1783   -0.9557    0.0000 C   0  0  0  0  0  0  0  0  0  0  0  0
    4.9588    0.3253    0.0000 C   0  0  0  0  0  0  0  0  0  0  0  0
    6.4584    0.2898    0.0000 O   0  0  0  0  0  0  0  0  0  0  0  0
    4.2397    1.6417    0.0000 C   0  0  0  0  0  0  0  0  0  0  0  0
    2.7401    1.6771    0.0000 C   0  0  0  0  0  0  0  0  0  0  0  0
    1.9596    0.3961    0.0000 C   0  0  0  0  0  0  0  0  0  0  0  0
    1.2406    1.7125    0.0000 C   0  0  0  0  0  0  0  0  0  0  0  0
    0.4601    0.4316    0.0000 C   0  0  0  0  0  0  0  0  0  0  0  0
   -0.2590    1.7480    0.0000 C   0  0  0  0  0  0  0  0  0  0  0  0
   -1.7586    1.7834    0.0000 C   0  0  0  0  0  0  0  0  0  0  0  0
   -2.5391    0.5025    0.0000 C   0  0  0  0  0  0  0  0  0  0  0  0
   -3.2351    1.8312    0.0000 C   0  0  0  0  0  0  0  0  0  0  0  0
   -1.8200   -0.8139    0.0000 C   0  0  0  0  0  0  0  0  0  0  0  0
   -2.8498   -1.9046    0.0000 C   0  0  0  0  0  0  0  0  0  0  0  0
   -4.2053   -1.2623    0.0000 C   0  0  0  0  0  0  0  0  0  0  0  0
   -4.0133    0.2254    0.0000 C   0  0  0  0  0  0  0  0  0  0  0  0
   -5.5129    0.2608    0.0000 C   0  0  0  0  0  0  0  0  0  0  0  0
   -4.3161    1.6945    0.0000 O   0  0  0  0  0  0  0  0  0  0  0  0
   -0.3204   -0.8494    0.0000 C   0  0  0  0  0  0  0  0  0  0  0  0
  2  1  1  1
  2  3  1  0
  4  3  1  1
  4  5  1  0
  5  6  1  0
  6  7  1  1
  6  8  1  0
  8  9  1  0
  9 10  1  0
 10 11  1  6
 10 12  1  0
 12 13  1  6
 13 14  1  0
 14 15  1  0
 15 16  1  6
 15 17  1  0
 17 18  1  6
 18 19  1  0
 19 20  1  0
 20 21  1  6
 20 22  1  0
 17 23  1  0
 23  2  1  1
 10  4  1  0
 23 12  1  0
 20 15  1  0
M  END
>  <MS_ID>  (3308) 
MS3447

>  <SMILES>  (3308) 
C[C@@H]1C[C@@H]2C[C@H](O)CC[C@]2(C)[C@H]2CC[C@@]3(C)[C@@H](CC[C@@]3(C)O)[C@H]12

>  <Structure_dimension>  (3308) 
2D

$$$$
MS3448
     RDKit          2D

 21 24  0  0  0  0  0  0  0  0999 V2000
    1.0087   -1.5838    0.0000 C   0  0  0  0  0  0  0  0  0  0  0  0
    1.7246   -0.2657    0.0000 C   0  0  0  0  0  0  0  0  0  0  0  0
    2.5082   -1.5447    0.0000 C   0  0  0  0  0  0  0  0  0  0  0  0
    4.0077   -1.5056    0.0000 C   0  0  0  0  0  0  0  0  0  0  0  0
    4.7236   -0.1874    0.0000 C   0  0  0  0  0  0  0  0  0  0  0  0
    6.2231   -0.1483    0.0000 O   0  0  0  0  0  0  0  0  0  0  0  0
    3.9400    1.0916    0.0000 C   0  0  0  0  0  0  0  0  0  0  0  0
    2.4405    1.0525    0.0000 C   0  0  0  0  0  0  0  0  0  0  0  0
    1.6569    2.3315    0.0000 C   0  0  0  0  0  0  0  0  0  0  0  0
    0.1574    2.2924    0.0000 C   0  0  0  0  0  0  0  0  0  0  0  0
   -0.5585    0.9743    0.0000 C   0  0  0  0  0  0  0  0  0  0  0  0
    0.2251   -0.3048    0.0000 C   0  0  0  0  0  0  0  0  0  0  0  0
   -0.4908   -1.6229    0.0000 C   0  0  0  0  0  0  0  0  0  0  0  0
   -1.9903   -1.6620    0.0000 C   0  0  0  0  0  0  0  0  0  0  0  0
   -2.7739   -0.3830    0.0000 C   0  0  0  0  0  0  0  0  0  0  0  0
   -3.6236   -1.6191    0.0000 C   0  0  0  0  0  0  0  0  0  0  0  0
   -4.2487   -0.1095    0.0000 C   0  0  0  0  0  0  0  0  0  0  0  0
   -5.3369   -1.1419    0.0000 O   0  0  0  0  0  0  0  0  0  0  0  0
   -4.4444    1.3777    0.0000 C   0  0  0  0  0  0  0  0  0  0  0  0
   -3.0904    2.0233    0.0000 C   0  0  0  0  0  0  0  0  0  0  0  0
   -2.0580    0.9352    0.0000 C   0  0  0  0  0  0  0  0  0  0  0  0
  2  1  1  1
  2  3  1  0
  3  4  1  0
  4  5  1  0
  5  6  1  6
  5  7  1  0
  8  7  1  6
  8  9  1  0
  9 10  1  0
 11 10  1  6
 11 12  1  0
 12 13  1  1
 13 14  1  0
 14 15  1  0
 15 16  1  1
 15 17  1  0
 17 18  1  1
 17 19  1  0
 19 20  1  0
 21 20  1  1
  8  2  1  0
 21 11  1  0
 12  2  1  0
 21 15  1  0
M  END
>  <MS_ID>  (3309) 
MS3448

>  <SMILES>  (3309) 
C[C@]12CC[C@@H](O)C[C@H]1CC[C@@H]1[C@@H]2CC[C@]2(C)[C@@H](O)CC[C@@H]12

>  <Structure_dimension>  (3309) 
2D

$$$$
MS3449
     RDKit          2D

 25 28  0  0  0  0  0  0  0  0999 V2000
   -6.2011   -0.0039    0.0000 C   0  0  0  0  0  0  0  0  0  0  0  0
   -4.8118    0.5619    0.0000 C   0  0  0  0  0  0  0  0  0  0  0  0
   -4.6071    2.0478    0.0000 O   0  0  0  0  0  0  0  0  0  0  0  0
   -3.6273   -0.3584    0.0000 C   0  0  0  0  0  0  0  0  0  0  0  0
   -3.6756   -1.8576    0.0000 C   0  0  0  0  0  0  0  0  0  0  0  0
   -2.2646   -2.3668    0.0000 C   0  0  0  0  0  0  0  0  0  0  0  0
   -1.3444   -1.1823    0.0000 C   0  0  0  0  0  0  0  0  0  0  0  0
    0.1517   -1.0736    0.0000 C   0  0  0  0  0  0  0  0  0  0  0  0
    0.9939   -2.3148    0.0000 C   0  0  0  0  0  0  0  0  0  0  0  0
    0.3400   -3.6648    0.0000 O   0  0  0  0  0  0  0  0  0  0  0  0
    2.4899   -2.2061    0.0000 C   0  0  0  0  0  0  0  0  0  0  0  0
    3.1438   -0.8561    0.0000 C   0  0  0  0  0  0  0  0  0  0  0  0
    4.6399   -0.7474    0.0000 C   0  0  0  0  0  0  0  0  0  0  0  0
    5.2937    0.6026    0.0000 C   0  0  0  0  0  0  0  0  0  0  0  0
    6.7898    0.7113    0.0000 O   0  0  0  0  0  0  0  0  0  0  0  0
    4.4516    1.8438    0.0000 C   0  0  0  0  0  0  0  0  0  0  0  0
    2.9555    1.7351    0.0000 C   0  0  0  0  0  0  0  0  0  0  0  0
    2.3016    0.3851    0.0000 C   0  0  0  0  0  0  0  0  0  0  0  0
    1.4594    1.6264    0.0000 C   0  0  0  0  0  0  0  0  0  0  0  0
    0.8056    0.2764    0.0000 C   0  0  0  0  0  0  0  0  0  0  0  0
   -0.0366    1.5177    0.0000 C   0  0  0  0  0  0  0  0  0  0  0  0
   -1.5327    1.4090    0.0000 C   0  0  0  0  0  0  0  0  0  0  0  0
   -2.3748    2.6502    0.0000 O   0  0  0  0  0  0  0  0  0  0  0  0
   -2.1865    0.0590    0.0000 C   0  0  0  0  0  0  0  0  0  0  0  0
   -3.1539    1.2054    0.0000 C   0  0  0  0  0  0  0  0  0  0  0  0
  1  2  1  0
  2  3  2  0
  4  2  1  6
  4  5  1  0
  5  6  1  0
  7  6  1  6
  7  8  1  0
  8  9  1  1
  9 10  1  6
  9 11  1  0
 12 11  1  1
 12 13  1  0
 13 14  1  0
 14 15  1  6
 14 16  1  0
 16 17  1  0
 17 18  1  0
 18 19  1  6
 18 20  1  0
 20 21  1  6
 21 22  1  0
 22 23  1  1
 22 24  1  0
 24 25  1  6
 24  4  1  0
 24  7  1  0
 20  8  1  0
 18 12  1  0
M  END
>  <MS_ID>  (3310) 
MS3449

>  <SMILES>  (3310) 
CC(=O)[C@H]1CC[C@H]2[C@@H]3[C@@H](O)C[C@@H]4C[C@@H](O)CC[C@]4(C)[C@H]3C[C@H](O)[C@]12C

>  <Structure_dimension>  (3310) 
2D

$$$$
MS3450
     RDKit          2D

 27 30  0  0  0  0  0  0  0  0999 V2000
   -4.7316   -2.2462    0.0000 C   0  0  0  0  0  0  0  0  0  0  0  0
   -3.6106   -1.2495    0.0000 C   0  0  0  0  0  0  0  0  0  0  0  0
   -3.9133    0.2196    0.0000 C   0  0  0  0  0  0  0  0  0  0  0  0
   -5.3370    0.6920    0.0000 C   0  0  0  0  0  0  0  0  0  0  0  0
   -5.6397    2.1612    0.0000 C   0  0  0  0  0  0  0  0  0  0  0  0
   -4.5188    3.1579    0.0000 O   0  0  0  0  0  0  0  0  0  0  0  0
   -7.0634    2.6336    0.0000 O   0  0  0  0  0  0  0  0  0  0  0  0
   -2.1870   -1.7219    0.0000 C   0  0  0  0  0  0  0  0  0  0  0  0
   -1.7323   -3.1514    0.0000 C   0  0  0  0  0  0  0  0  0  0  0  0
   -0.2324   -3.1607    0.0000 C   0  0  0  0  0  0  0  0  0  0  0  0
    0.2401   -1.7371    0.0000 C   0  0  0  0  0  0  0  0  0  0  0  0
    1.6141   -1.1355    0.0000 C   0  0  0  0  0  0  0  0  0  0  0  0
    2.8222   -2.0247    0.0000 C   0  0  0  0  0  0  0  0  0  0  0  0
    2.6561   -3.5155    0.0000 O   0  0  0  0  0  0  0  0  0  0  0  0
    4.1962   -1.4232    0.0000 C   0  0  0  0  0  0  0  0  0  0  0  0
    4.3623    0.0676    0.0000 C   0  0  0  0  0  0  0  0  0  0  0  0
    5.7364    0.6691    0.0000 C   0  0  0  0  0  0  0  0  0  0  0  0
    5.9025    2.1599    0.0000 C   0  0  0  0  0  0  0  0  0  0  0  0
    4.6945    3.0491    0.0000 C   0  0  0  0  0  0  0  0  0  0  0  0
    3.3204    2.4476    0.0000 O   0  0  0  0  0  0  0  0  0  0  0  0
    3.1543    0.9568    0.0000 C   0  0  0  0  0  0  0  0  0  0  0  0
    1.9463    1.8460    0.0000 C   0  0  0  0  0  0  0  0  0  0  0  0
    1.7802    0.3553    0.0000 C   0  0  0  0  0  0  0  0  0  0  0  0
    0.5722    1.2445    0.0000 C   0  0  0  0  0  0  0  0  0  0  0  0
   -0.8019    0.6429    0.0000 C   0  0  0  0  0  0  0  0  0  0  0  0
   -0.9680   -0.8478    0.0000 C   0  0  0  0  0  0  0  0  0  0  0  0
   -2.2623   -0.0897    0.0000 C   0  0  0  0  0  0  0  0  0  0  0  0
  2  1  1  6
  2  3  1  0
  3  4  1  0
  4  5  1  0
  5  6  2  0
  5  7  1  0
  2  8  1  0
  8  9  1  6
  9 10  1  0
 11 10  1  6
 11 12  1  0
 12 13  1  1
 13 14  1  6
 13 15  1  0
 16 15  1  1
 16 17  1  0
 17 18  1  0
 18 19  1  0
 19 20  1  0
 20 21  1  0
 21 22  1  6
 21 23  1  0
 23 24  1  6
 24 25  1  0
 25 26  1  0
 26 27  1  6
 26  8  1  0
 26 11  1  0
 23 12  1  0
 21 16  1  0
M  END
>  <MS_ID>  (3311) 
MS3450

>  <SMILES>  (3311) 
C[C@H](CCC(=O)O)[C@H]1CC[C@H]2[C@@H]3[C@@H](O)C[C@@H]4CCCO[C@]4(C)[C@H]3CC[C@]12C

>  <Structure_dimension>  (3311) 
2D

$$$$
MS3451
     RDKit          2D

 25 28  0  0  0  0  0  0  0  0999 V2000
    1.6660   -1.4144    0.0000 C   0  0  0  0  0  0  0  0  0  0  0  0
    2.4931   -0.1630    0.0000 C   0  0  0  0  0  0  0  0  0  0  0  0
    3.1633   -1.5050    0.0000 C   0  0  0  0  0  0  0  0  0  0  0  0
    4.6605   -1.5956    0.0000 C   0  0  0  0  0  0  0  0  0  0  0  0
    5.4876   -0.3443    0.0000 C   0  0  0  0  0  0  0  0  0  0  0  0
    6.9849   -0.4349    0.0000 O   0  0  0  0  0  0  0  0  0  0  0  0
    4.8175    0.9977    0.0000 C   0  0  0  0  0  0  0  0  0  0  0  0
    3.3202    1.0883    0.0000 C   0  0  0  0  0  0  0  0  0  0  0  0
    2.6501    2.4303    0.0000 C   0  0  0  0  0  0  0  0  0  0  0  0
    1.1528    2.5209    0.0000 C   0  0  0  0  0  0  0  0  0  0  0  0
    0.3257    1.2695    0.0000 C   0  0  0  0  0  0  0  0  0  0  0  0
    0.9959   -0.0724    0.0000 C   0  0  0  0  0  0  0  0  0  0  0  0
    0.1688   -1.3238    0.0000 C   0  0  0  0  0  0  0  0  0  0  0  0
    0.8389   -2.6658    0.0000 O   0  0  0  0  0  0  0  0  0  0  0  0
   -1.3285   -1.2332    0.0000 C   0  0  0  0  0  0  0  0  0  0  0  0
   -1.9987    0.1088    0.0000 C   0  0  0  0  0  0  0  0  0  0  0  0
   -2.9520   -1.0493    0.0000 C   0  0  0  0  0  0  0  0  0  0  0  0
   -3.4444    0.5087    0.0000 C   0  0  0  0  0  0  0  0  0  0  0  0
   -4.6177   -0.4258    0.0000 C   0  0  0  0  0  0  0  0  0  0  0  0
   -4.3950   -1.9092    0.0000 O   0  0  0  0  0  0  0  0  0  0  0  0
   -6.0137    0.1231    0.0000 C   0  0  0  0  0  0  0  0  0  0  0  0
   -7.1870   -0.8115    0.0000 O   0  0  0  0  0  0  0  0  0  0  0  0
   -3.5108    2.0073    0.0000 C   0  0  0  0  0  0  0  0  0  0  0  0
   -2.1061    2.5335    0.0000 C   0  0  0  0  0  0  0  0  0  0  0  0
   -1.1716    1.3601    0.0000 C   0  0  0  0  0  0  0  0  0  0  0  0
  2  1  1  1
  2  3  1  0
  3  4  1  0
  4  5  1  0
  5  6  1  6
  5  7  1  0
  8  7  1  6
  8  9  1  0
  9 10  1  0
 11 10  1  6
 11 12  1  0
 12 13  1  6
 13 14  1  1
 13 15  1  0
 15 16  1  0
 16 17  1  1
 16 18  1  0
 18 19  1  1
 19 20  2  0
 19 21  1  0
 21 22  1  0
 18 23  1  0
 23 24  1  0
 25 24  1  1
  8  2  1  0
 25 11  1  0
 12  2  1  0
 25 16  1  0
M  END
>  <MS_ID>  (3312) 
MS3451

>  <SMILES>  (3312) 
C[C@]12CC[C@@H](O)C[C@H]1CC[C@@H]1[C@H]2[C@@H](O)C[C@]2(C)[C@@H](C(=O)CO)CC[C@@H]12

>  <Structure_dimension>  (3312) 
2D

$$$$
MS3452
     RDKit          2D

 25 28  0  0  0  0  0  0  0  0999 V2000
   -6.5811    0.7311    0.0000 C   0  0  0  0  0  0  0  0  0  0  0  0
   -5.3956   -0.1880    0.0000 C   0  0  0  0  0  0  0  0  0  0  0  0
   -5.4425   -1.6873    0.0000 C   0  0  0  0  0  0  0  0  0  0  0  0
   -4.0310   -2.1951    0.0000 C   0  0  0  0  0  0  0  0  0  0  0  0
   -3.1119   -1.0097    0.0000 C   0  0  0  0  0  0  0  0  0  0  0  0
   -1.6160   -0.8995    0.0000 C   0  0  0  0  0  0  0  0  0  0  0  0
   -0.7726   -2.1399    0.0000 C   0  0  0  0  0  0  0  0  0  0  0  0
    0.7234   -2.0298    0.0000 C   0  0  0  0  0  0  0  0  0  0  0  0
    1.3759   -0.6792    0.0000 C   0  0  0  0  0  0  0  0  0  0  0  0
    2.8719   -0.5690    0.0000 C   0  0  0  0  0  0  0  0  0  0  0  0
    3.5245    0.7816    0.0000 C   0  0  0  0  0  0  0  0  0  0  0  0
    5.0204    0.8918    0.0000 O   0  0  0  0  0  0  0  0  0  0  0  0
    5.8638   -0.3487    0.0000 S   0  0  0  0  0  0  0  0  0  0  0  0
    4.6233   -1.1921    0.0000 O   0  0  0  0  0  0  0  0  0  0  0  0
    7.1042    0.4947    0.0000 O   0  0  0  0  0  0  0  0  0  0  0  0
    6.7072   -1.5891    0.0000 O   0  0  0  0  0  0  0  0  0  0  0  0
    2.6811    2.0220    0.0000 C   0  0  0  0  0  0  0  0  0  0  0  0
    1.1851    1.9119    0.0000 C   0  0  0  0  0  0  0  0  0  0  0  0
    0.5326    0.5613    0.0000 C   0  0  0  0  0  0  0  0  0  0  0  0
   -0.3108    1.8017    0.0000 C   0  0  0  0  0  0  0  0  0  0  0  0
   -0.9634    0.4511    0.0000 C   0  0  0  0  0  0  0  0  0  0  0  0
   -1.8068    1.6916    0.0000 C   0  0  0  0  0  0  0  0  0  0  0  0
   -3.3027    1.5814    0.0000 C   0  0  0  0  0  0  0  0  0  0  0  0
   -3.9553    0.2308    0.0000 C   0  0  0  0  0  0  0  0  0  0  0  0
   -4.9237    1.3763    0.0000 C   0  0  0  0  0  0  0  0  0  0  0  0
  2  1  1  6
  2  3  1  0
  3  4  1  0
  5  4  1  6
  5  6  1  0
  6  7  1  1
  7  8  1  0
  9  8  1  1
  9 10  1  0
 10 11  1  0
 11 12  1  1
 12 13  1  0
 13 14  2  0
 13 15  2  0
 13 16  1  0
 11 17  1  0
 17 18  1  0
 18 19  1  0
 19 20  1  6
 19 21  1  0
 21 22  1  6
 22 23  1  0
 23 24  1  0
 24 25  1  6
 24  2  1  0
 24  5  1  0
 21  6  1  0
 19  9  1  0
M  END
>  <MS_ID>  (3313) 
MS3452

>  <SMILES>  (3313) 
C[C@H]1CC[C@H]2[C@@H]3CC[C@@H]4C[C@H](OS(=O)(=O)O)CC[C@]4(C)[C@H]3CC[C@]12C

>  <Structure_dimension>  (3313) 
2D

$$$$
MS3453
     RDKit          2D

 31 34  0  0  0  0  0  0  0  0999 V2000
   -7.5336    2.8357    0.0000 C   0  0  0  0  0  0  0  0  0  0  0  0
   -7.0792    1.4062    0.0000 C   0  0  0  0  0  0  0  0  0  0  0  0
   -5.6140    1.0850    0.0000 C   0  0  0  0  0  0  0  0  0  0  0  0
   -5.1596   -0.3445    0.0000 C   0  0  0  0  0  0  0  0  0  0  0  0
   -3.6944   -0.6658    0.0000 C   0  0  0  0  0  0  0  0  0  0  0  0
   -3.2400   -2.0953    0.0000 C   0  0  0  0  0  0  0  0  0  0  0  0
   -4.2508   -3.2036    0.0000 C   0  0  0  0  0  0  0  0  0  0  0  0
   -1.7748   -2.4165    0.0000 C   0  0  0  0  0  0  0  0  0  0  0  0
   -1.1735   -3.7907    0.0000 C   0  0  0  0  0  0  0  0  0  0  0  0
    0.3193   -3.6434    0.0000 C   0  0  0  0  0  0  0  0  0  0  0  0
    0.6405   -2.1782    0.0000 C   0  0  0  0  0  0  0  0  0  0  0  0
    1.9443   -1.4365    0.0000 C   0  0  0  0  0  0  0  0  0  0  0  0
    3.2385   -2.1948    0.0000 C   0  0  0  0  0  0  0  0  0  0  0  0
    4.5423   -1.4531    0.0000 C   0  0  0  0  0  0  0  0  0  0  0  0
    5.8366   -2.2114    0.0000 O   0  0  0  0  0  0  0  0  0  0  0  0
    4.5519    0.0469    0.0000 C   0  0  0  0  0  0  0  0  0  0  0  0
    5.8557    0.7885    0.0000 C   0  0  0  0  0  0  0  0  0  0  0  0
    5.8653    2.2885    0.0000 C   0  0  0  0  0  0  0  0  0  0  0  0
    7.1691    3.0302    0.0000 O   0  0  0  0  0  0  0  0  0  0  0  0
    4.5711    3.0468    0.0000 C   0  0  0  0  0  0  0  0  0  0  0  0
    3.2673    2.3051    0.0000 C   0  0  0  0  0  0  0  0  0  0  0  0
    3.2577    0.8051    0.0000 C   0  0  0  0  0  0  0  0  0  0  0  0
    1.9635    1.5634    0.0000 C   0  0  0  0  0  0  0  0  0  0  0  0
    1.9539    0.0634    0.0000 C   0  0  0  0  0  0  0  0  0  0  0  0
    0.6597    0.8217    0.0000 C   0  0  0  0  0  0  0  0  0  0  0  0
   -0.6441    0.0800    0.0000 C   0  0  0  0  0  0  0  0  0  0  0  0
   -0.6537   -1.4199    0.0000 C   0  0  0  0  0  0  0  0  0  0  0  0
   -2.0201   -0.8011    0.0000 C   0  0  0  0  0  0  0  0  0  0  0  0
   -4.6032    2.1933    0.0000 C   0  0  0  0  0  0  0  0  0  0  0  0
   -5.0576    3.6228    0.0000 C   0  0  0  0  0  0  0  0  0  0  0  0
   -3.1380    1.8720    0.0000 C   0  0  0  0  0  0  0  0  0  0  0  0
  1  2  1  0
  3  2  1  1
  3  4  1  0
  4  5  1  0
  5  6  1  0
  6  7  1  6
  6  8  1  0
  8  9  1  6
  9 10  1  0
 11 10  1  6
 11 12  1  0
 12 13  1  1
 13 14  1  0
 14 15  1  1
 14 16  1  0
 16 17  1  6
 17 18  1  0
 18 19  1  6
 18 20  1  0
 20 21  1  0
 21 22  1  0
 22 23  1  6
 22 24  1  0
 24 25  1  6
 25 26  1  0
 26 27  1  0
 27 28  1  6
  3 29  1  0
 29 30  1  0
 29 31  1  0
 27  8  1  0
 27 11  1  0
 24 12  1  0
 22 16  1  0
M  END
>  <MS_ID>  (3314) 
MS3453

>  <SMILES>  (3314) 
CC[C@H](CC[C@@H](C)[C@H]1CC[C@H]2[C@@H]3C[C@H](O)[C@H]4C[C@@H](O)CC[C@]4(C)[C@H]3CC[C@]12C)C(C)C

>  <Structure_dimension>  (3314) 
2D

$$$$
MS3454
     RDKit          2D

 33 36  0  0  0  0  0  0  0  0999 V2000
   -3.3299    2.4388    0.0000 C   0  0  0  0  0  0  0  0  0  0  0  0
   -2.0698    1.6249    0.0000 S   0  0  0  0  0  0  0  0  0  0  0  0
   -2.1446    0.1268    0.0000 C   0  0  0  0  0  0  0  0  0  0  0  0
   -3.4795   -0.5575    0.0000 C   0  0  0  0  0  0  0  0  0  0  0  0
   -4.7395    0.2563    0.0000 C   0  0  0  0  0  0  0  0  0  0  0  0
   -6.0743   -0.4279    0.0000 C   0  0  0  0  0  0  0  0  0  0  0  0
   -6.1491   -1.9261    0.0000 O   0  0  0  0  0  0  0  0  0  0  0  0
   -7.3343    0.3859    0.0000 O   0  0  0  0  0  0  0  0  0  0  0  0
   -8.6691   -0.2984    0.0000 C   0  0  0  0  0  0  0  0  0  0  0  0
   -9.9292    0.5155    0.0000 C   0  0  0  0  0  0  0  0  0  0  0  0
   -9.8544    2.0136    0.0000 O   0  0  0  0  0  0  0  0  0  0  0  0
  -11.2640   -0.1688    0.0000 O   0  0  0  0  0  0  0  0  0  0  0  0
   -0.8846   -0.6871    0.0000 C   0  0  0  0  0  0  0  0  0  0  0  0
   -0.8024   -2.1848    0.0000 C   0  0  0  0  0  0  0  0  0  0  0  0
    0.6474   -2.5694    0.0000 C   0  0  0  0  0  0  0  0  0  0  0  0
    1.4613   -1.3094    0.0000 C   0  0  0  0  0  0  0  0  0  0  0  0
    2.9422   -1.0711    0.0000 C   0  0  0  0  0  0  0  0  0  0  0  0
    3.8891   -2.2345    0.0000 C   0  0  0  0  0  0  0  0  0  0  0  0
    3.3550   -3.6362    0.0000 O   0  0  0  0  0  0  0  0  0  0  0  0
    5.3700   -1.9962    0.0000 C   0  0  0  0  0  0  0  0  0  0  0  0
    5.9041   -0.5945    0.0000 C   0  0  0  0  0  0  0  0  0  0  0  0
    7.3851   -0.3562    0.0000 C   0  0  0  0  0  0  0  0  0  0  0  0
    7.9192    1.0455    0.0000 C   0  0  0  0  0  0  0  0  0  0  0  0
    9.4001    1.2839    0.0000 O   0  0  0  0  0  0  0  0  0  0  0  0
    6.9723    2.2089    0.0000 C   0  0  0  0  0  0  0  0  0  0  0  0
    5.4914    1.9706    0.0000 C   0  0  0  0  0  0  0  0  0  0  0  0
    4.9573    0.5689    0.0000 C   0  0  0  0  0  0  0  0  0  0  0  0
    4.0104    1.7323    0.0000 C   0  0  0  0  0  0  0  0  0  0  0  0
    3.4763    0.3306    0.0000 C   0  0  0  0  0  0  0  0  0  0  0  0
    2.5295    1.4940    0.0000 C   0  0  0  0  0  0  0  0  0  0  0  0
    1.0485    1.2557    0.0000 C   0  0  0  0  0  0  0  0  0  0  0  0
    0.5144   -0.1460    0.0000 C   0  0  0  0  0  0  0  0  0  0  0  0
   -0.5489    0.9120    0.0000 C   0  0  0  0  0  0  0  0  0  0  0  0
  1  2  1  0
  2  3  1  0
  3  4  1  1
  4  5  1  0
  5  6  1  0
  6  7  2  0
  6  8  1  0
  8  9  1  0
  9 10  1  0
 10 11  2  0
 10 12  1  0
  3 13  1  0
 13 14  1  6
 14 15  1  0
 16 15  1  6
 16 17  1  0
 17 18  1  1
 18 19  1  6
 18 20  1  0
 21 20  1  1
 21 22  1  0
 22 23  1  0
 23 24  1  1
 23 25  1  0
 25 26  1  0
 26 27  1  0
 27 28  1  6
 27 29  1  0
 29 30  1  6
 30 31  1  0
 31 32  1  0
 32 33  1  6
 32 13  1  0
 32 16  1  0
 29 17  1  0
 27 21  1  0
M  END
>  <MS_ID>  (3315) 
MS3454

>  <SMILES>  (3315) 
CS[C@H](CCC(=O)OCC(=O)O)[C@H]1CC[C@H]2[C@@H]3[C@@H](O)C[C@@H]4C[C@H](O)CC[C@]4(C)[C@H]3CC[C@]12C

>  <Structure_dimension>  (3315) 
2D

$$$$
MS3455
     RDKit          2D

 25 28  0  0  0  0  0  0  0  0999 V2000
   -5.6658    2.3666    0.0000 C   0  0  0  0  0  0  0  0  0  0  0  0
   -4.4279    1.5195    0.0000 C   0  0  0  0  0  0  0  0  0  0  0  0
   -3.0754    2.1680    0.0000 O   0  0  0  0  0  0  0  0  0  0  0  0
   -4.5426    0.0239    0.0000 N   0  0  0  0  0  0  0  0  0  0  0  0
   -5.8951   -0.6246    0.0000 C   0  0  0  0  0  0  0  0  0  0  0  0
   -3.3047   -0.8232    0.0000 C   0  0  0  0  0  0  0  0  0  0  0  0
   -3.2623   -2.3226    0.0000 C   0  0  0  0  0  0  0  0  0  0  0  0
   -1.8232   -2.7457    0.0000 C   0  0  0  0  0  0  0  0  0  0  0  0
   -0.9762   -1.5078    0.0000 C   0  0  0  0  0  0  0  0  0  0  0  0
    0.5106   -1.3090    0.0000 C   0  0  0  0  0  0  0  0  0  0  0  0
    1.4262   -2.4971    0.0000 C   0  0  0  0  0  0  0  0  0  0  0  0
    2.9129   -2.2983    0.0000 C   0  0  0  0  0  0  0  0  0  0  0  0
    3.4841   -0.9114    0.0000 C   0  0  0  0  0  0  0  0  0  0  0  0
    4.9709   -0.7125    0.0000 C   0  0  0  0  0  0  0  0  0  0  0  0
    5.5421    0.6744    0.0000 C   0  0  0  0  0  0  0  0  0  0  0  0
    7.0289    0.8733    0.0000 O   0  0  0  0  0  0  0  0  0  0  0  0
    4.6266    1.8626    0.0000 C   0  0  0  0  0  0  0  0  0  0  0  0
    3.1398    1.6638    0.0000 C   0  0  0  0  0  0  0  0  0  0  0  0
    2.5686    0.2768    0.0000 C   0  0  0  0  0  0  0  0  0  0  0  0
    1.6530    1.4650    0.0000 C   0  0  0  0  0  0  0  0  0  0  0  0
    1.0818    0.0780    0.0000 C   0  0  0  0  0  0  0  0  0  0  0  0
    0.1663    1.2662    0.0000 C   0  0  0  0  0  0  0  0  0  0  0  0
   -1.3205    1.0674    0.0000 C   0  0  0  0  0  0  0  0  0  0  0  0
   -1.8917   -0.3196    0.0000 C   0  0  0  0  0  0  0  0  0  0  0  0
   -2.9265    0.7663    0.0000 C   0  0  0  0  0  0  0  0  0  0  0  0
  1  2  1  0
  2  3  2  0
  2  4  1  0
  4  5  1  0
  6  4  1  6
  6  7  1  0
  7  8  1  0
  9  8  1  6
  9 10  1  0
 10 11  1  1
 11 12  1  0
 13 12  1  1
 13 14  1  0
 14 15  1  0
 15 16  1  1
 15 17  1  0
 17 18  1  0
 18 19  1  0
 19 20  1  6
 19 21  1  0
 21 22  1  6
 22 23  1  0
 23 24  1  0
 24 25  1  6
 24  6  1  0
 24  9  1  0
 21 10  1  0
 19 13  1  0
M  END
>  <MS_ID>  (3316) 
MS3455

>  <SMILES>  (3316) 
CC(=O)N(C)[C@H]1CC[C@H]2[C@@H]3CC[C@@H]4C[C@H](O)CC[C@]4(C)[C@H]3CC[C@]12C

>  <Structure_dimension>  (3316) 
2D

$$$$
MS3456
     RDKit          2D

 32 35  0  0  0  0  0  0  0  0999 V2000
   -5.5942    2.6635    0.0000 C   0  0  0  0  0  0  0  0  0  0  0  0
   -4.3563    1.8163    0.0000 S   0  0  0  0  0  0  0  0  0  0  0  0
   -4.4710    0.3207    0.0000 C   0  0  0  0  0  0  0  0  0  0  0  0
   -5.8236   -0.3277    0.0000 C   0  0  0  0  0  0  0  0  0  0  0  0
   -7.0615    0.5194    0.0000 C   0  0  0  0  0  0  0  0  0  0  0  0
   -8.4141   -0.1290    0.0000 C   0  0  0  0  0  0  0  0  0  0  0  0
   -8.5288   -1.6246    0.0000 O   0  0  0  0  0  0  0  0  0  0  0  0
   -9.6519    0.7181    0.0000 O   0  0  0  0  0  0  0  0  0  0  0  0
   -3.2331   -0.5264    0.0000 C   0  0  0  0  0  0  0  0  0  0  0  0
   -3.1909   -2.0258    0.0000 C   0  0  0  0  0  0  0  0  0  0  0  0
   -1.7518   -2.4490    0.0000 C   0  0  0  0  0  0  0  0  0  0  0  0
   -0.9047   -1.2111    0.0000 C   0  0  0  0  0  0  0  0  0  0  0  0
    0.5821   -1.0124    0.0000 C   0  0  0  0  0  0  0  0  0  0  0  0
    1.4976   -2.2006    0.0000 C   0  0  0  0  0  0  0  0  0  0  0  0
    0.9264   -3.5876    0.0000 O   0  0  0  0  0  0  0  0  0  0  0  0
    2.9844   -2.0019    0.0000 C   0  0  0  0  0  0  0  0  0  0  0  0
    3.5557   -0.6149    0.0000 C   0  0  0  0  0  0  0  0  0  0  0  0
    5.0424   -0.4162    0.0000 C   0  0  0  0  0  0  0  0  0  0  0  0
    5.6137    0.9708    0.0000 C   0  0  0  0  0  0  0  0  0  0  0  0
    7.1005    1.1695    0.0000 O   0  0  0  0  0  0  0  0  0  0  0  0
    8.0160   -0.0187    0.0000 C   0  0  0  0  0  0  0  0  0  0  0  0
    9.5028    0.1801    0.0000 C   0  0  0  0  0  0  0  0  0  0  0  0
   10.4183   -1.0081    0.0000 O   0  0  0  0  0  0  0  0  0  0  0  0
    4.6982    2.1590    0.0000 C   0  0  0  0  0  0  0  0  0  0  0  0
    3.2114    1.9603    0.0000 C   0  0  0  0  0  0  0  0  0  0  0  0
    2.6402    0.5733    0.0000 C   0  0  0  0  0  0  0  0  0  0  0  0
    1.7247    1.7615    0.0000 C   0  0  0  0  0  0  0  0  0  0  0  0
    1.1534    0.3746    0.0000 C   0  0  0  0  0  0  0  0  0  0  0  0
    0.2379    1.5628    0.0000 C   0  0  0  0  0  0  0  0  0  0  0  0
   -1.2489    1.3640    0.0000 C   0  0  0  0  0  0  0  0  0  0  0  0
   -1.8202   -0.0229    0.0000 C   0  0  0  0  0  0  0  0  0  0  0  0
   -2.8549    1.0631    0.0000 C   0  0  0  0  0  0  0  0  0  0  0  0
  1  2  1  0
  2  3  1  0
  3  4  1  1
  4  5  1  0
  5  6  1  0
  6  7  2  0
  6  8  1  0
  3  9  1  0
  9 10  1  6
 10 11  1  0
 12 11  1  6
 12 13  1  0
 13 14  1  1
 14 15  1  6
 14 16  1  0
 17 16  1  1
 17 18  1  0
 18 19  1  0
 19 20  1  1
 20 21  1  0
 21 22  1  0
 22 23  1  0
 19 24  1  0
 24 25  1  0
 25 26  1  0
 26 27  1  6
 26 28  1  0
 28 29  1  6
 29 30  1  0
 30 31  1  0
 31 32  1  6
 31  9  1  0
 31 12  1  0
 28 13  1  0
 26 17  1  0
M  END
>  <MS_ID>  (3317) 
MS3456

>  <SMILES>  (3317) 
CS[C@H](CCC(=O)O)[C@H]1CC[C@H]2[C@@H]3[C@@H](O)C[C@@H]4C[C@H](OCCO)CC[C@]4(C)[C@H]3CC[C@]12C

>  <Structure_dimension>  (3317) 
2D

$$$$
MS3457
     RDKit          2D

 36 39  0  0  0  0  0  0  0  0999 V2000
   -1.3471   -4.6674    0.0000 C   0  0  0  0  0  0  0  0  0  0  0  0
   -0.6729   -3.3274    0.0000 C   0  0  0  0  0  0  0  0  0  0  0  0
   -1.4962   -2.0736    0.0000 C   0  0  0  0  0  0  0  0  0  0  0  0
   -2.9938   -2.1596    0.0000 C   0  0  0  0  0  0  0  0  0  0  0  0
   -3.8171   -0.9058    0.0000 C   0  0  0  0  0  0  0  0  0  0  0  0
   -3.1428    0.4342    0.0000 O   0  0  0  0  0  0  0  0  0  0  0  0
   -5.3146   -0.9919    0.0000 N   0  0  0  0  0  0  0  0  0  0  0  0
   -6.1379    0.2620    0.0000 C   0  0  0  0  0  0  0  0  0  0  0  0
   -5.4637    1.6019    0.0000 C   0  0  0  0  0  0  0  0  0  0  0  0
   -6.2870    2.8558    0.0000 S   0  0  0  0  0  0  0  0  0  0  0  0
   -5.0331    3.6791    0.0000 O   0  0  0  0  0  0  0  0  0  0  0  0
   -7.5409    2.0325    0.0000 O   0  0  0  0  0  0  0  0  0  0  0  0
   -7.1103    4.1097    0.0000 O   0  0  0  0  0  0  0  0  0  0  0  0
   -7.6354    0.1759    0.0000 C   0  0  0  0  0  0  0  0  0  0  0  0
   -8.3096   -1.1640    0.0000 O   0  0  0  0  0  0  0  0  0  0  0  0
   -8.4587    1.4298    0.0000 O   0  0  0  0  0  0  0  0  0  0  0  0
    0.8246   -3.2413    0.0000 C   0  0  0  0  0  0  0  0  0  0  0  0
    1.7745   -4.4023    0.0000 C   0  0  0  0  0  0  0  0  0  0  0  0
    3.1721   -3.8576    0.0000 C   0  0  0  0  0  0  0  0  0  0  0  0
    3.0860   -2.3601    0.0000 C   0  0  0  0  0  0  0  0  0  0  0  0
    4.1413   -1.2941    0.0000 C   0  0  0  0  0  0  0  0  0  0  0  0
    5.5921   -1.6750    0.0000 C   0  0  0  0  0  0  0  0  0  0  0  0
    6.6474   -0.6090    0.0000 C   0  0  0  0  0  0  0  0  0  0  0  0
    6.2519    0.8379    0.0000 C   0  0  0  0  0  0  0  0  0  0  0  0
    7.3072    1.9039    0.0000 C   0  0  0  0  0  0  0  0  0  0  0  0
    6.9116    3.3508    0.0000 C   0  0  0  0  0  0  0  0  0  0  0  0
    7.9669    4.4168    0.0000 O   0  0  0  0  0  0  0  0  0  0  0  0
    5.4608    3.7317    0.0000 C   0  0  0  0  0  0  0  0  0  0  0  0
    4.4055    2.6657    0.0000 C   0  0  0  0  0  0  0  0  0  0  0  0
    4.8010    1.2188    0.0000 C   0  0  0  0  0  0  0  0  0  0  0  0
    3.3502    1.5997    0.0000 C   0  0  0  0  0  0  0  0  0  0  0  0
    3.7458    0.1528    0.0000 C   0  0  0  0  0  0  0  0  0  0  0  0
    2.2949    0.5337    0.0000 C   0  0  0  0  0  0  0  0  0  0  0  0
    1.2396   -0.5323    0.0000 C   0  0  0  0  0  0  0  0  0  0  0  0
    1.6352   -1.9792    0.0000 C   0  0  0  0  0  0  0  0  0  0  0  0
    0.1525   -1.7521    0.0000 C   0  0  0  0  0  0  0  0  0  0  0  0
  2  1  1  6
  2  3  1  0
  3  4  1  0
  4  5  1  0
  5  6  2  0
  5  7  1  0
  7  8  1  0
  8  9  1  6
  9 10  1  0
 10 11  2  0
 10 12  2  0
 10 13  1  0
  8 14  1  0
 14 15  2  0
 14 16  1  0
  2 17  1  0
 17 18  1  6
 18 19  1  0
 20 19  1  6
 20 21  1  0
 21 22  1  1
 22 23  1  0
 24 23  1  1
 24 25  1  0
 25 26  1  0
 26 27  1  1
 26 28  1  0
 28 29  1  0
 29 30  1  0
 30 31  1  6
 30 32  1  0
 32 33  1  6
 33 34  1  0
 34 35  1  0
 35 36  1  6
 35 17  1  0
 35 20  1  0
 32 21  1  0
 30 24  1  0
M  END
>  <MS_ID>  (3318) 
MS3457

>  <SMILES>  (3318) 
C[C@H](CCC(=O)N[C@@H](CS(=O)(=O)O)C(=O)O)[C@H]1CC[C@H]2[C@@H]3CC[C@@H]4C[C@H](O)CC[C@]4(C)[C@H]3CC[C@]12C

>  <Structure_dimension>  (3318) 
2D

$$$$
MS3458
     RDKit          2D

 30 33  0  0  0  0  0  0  0  0999 V2000
   -5.2957   -2.1020    0.0000 C   0  0  0  0  0  0  0  0  0  0  0  0
   -4.0860   -1.2151    0.0000 C   0  0  0  0  0  0  0  0  0  0  0  0
   -4.2493    0.2760    0.0000 C   0  0  0  0  0  0  0  0  0  0  0  0
   -5.6223    0.8801    0.0000 C   0  0  0  0  0  0  0  0  0  0  0  0
   -5.7856    2.3712    0.0000 C   0  0  0  0  0  0  0  0  0  0  0  0
   -4.5759    3.2582    0.0000 O   0  0  0  0  0  0  0  0  0  0  0  0
   -7.1586    2.9753    0.0000 O   0  0  0  0  0  0  0  0  0  0  0  0
   -2.7130   -1.8192    0.0000 C   0  0  0  0  0  0  0  0  0  0  0  0
   -2.3947   -3.2850    0.0000 C   0  0  0  0  0  0  0  0  0  0  0  0
   -0.9023   -3.4353    0.0000 C   0  0  0  0  0  0  0  0  0  0  0  0
   -0.2982   -2.0623    0.0000 C   0  0  0  0  0  0  0  0  0  0  0  0
    1.1264   -1.5925    0.0000 C   0  0  0  0  0  0  0  0  0  0  0  0
    2.2455   -2.5914    0.0000 C   0  0  0  0  0  0  0  0  0  0  0  0
    1.9400   -4.0599    0.0000 O   0  0  0  0  0  0  0  0  0  0  0  0
    3.6700   -2.1216    0.0000 C   0  0  0  0  0  0  0  0  0  0  0  0
    3.9755   -0.6530    0.0000 C   0  0  0  0  0  0  0  0  0  0  0  0
    5.4000   -0.1833    0.0000 C   0  0  0  0  0  0  0  0  0  0  0  0
    5.7054    1.2853    0.0000 C   0  0  0  0  0  0  0  0  0  0  0  0
    7.1300    1.7551    0.0000 O   0  0  0  0  0  0  0  0  0  0  0  0
    4.5863    2.2841    0.0000 C   0  0  0  0  0  0  0  0  0  0  0  0
    3.1618    1.8144    0.0000 C   0  0  0  0  0  0  0  0  0  0  0  0
    2.8564    0.3458    0.0000 C   0  0  0  0  0  0  0  0  0  0  0  0
    1.7373    1.3446    0.0000 S   0  0  0  0  0  0  0  0  0  0  0  0
    2.0427    2.8132    0.0000 C   0  0  0  0  0  0  0  0  0  0  0  0
    0.9236    3.8120    0.0000 S   0  0  0  0  0  0  0  0  0  0  0  0
    1.4318   -0.1240    0.0000 C   0  0  0  0  0  0  0  0  0  0  0  0
    0.3127    0.8748    0.0000 C   0  0  0  0  0  0  0  0  0  0  0  0
   -1.1118    0.4051    0.0000 C   0  0  0  0  0  0  0  0  0  0  0  0
   -1.4173   -1.0635    0.0000 C   0  0  0  0  0  0  0  0  0  0  0  0
   -2.6346   -0.1871    0.0000 C   0  0  0  0  0  0  0  0  0  0  0  0
  2  1  1  6
  2  3  1  0
  3  4  1  0
  4  5  1  0
  5  6  2  0
  5  7  1  0
  2  8  1  0
  8  9  1  6
  9 10  1  0
 11 10  1  6
 11 12  1  0
 12 13  1  1
 13 14  1  6
 13 15  1  0
 16 15  1  1
 16 17  1  0
 17 18  1  0
 18 19  1  1
 18 20  1  0
 20 21  1  0
 21 22  1  0
 22 23  1  6
 23 24  1  0
 24 25  1  0
 22 26  1  0
 26 27  1  6
 27 28  1  0
 28 29  1  0
 29 30  1  6
 29  8  1  0
 29 11  1  0
 26 12  1  0
 22 16  1  0
M  END
>  <MS_ID>  (3319) 
MS3458

>  <SMILES>  (3319) 
C[C@H](CCC(=O)O)[C@H]1CC[C@H]2[C@@H]3[C@@H](O)C[C@@H]4C[C@H](O)CC[C@]4(SCS)[C@H]3CC[C@]12C

>  <Structure_dimension>  (3319) 
2D

$$$$
MS3459
     RDKit          2D

 27 30  0  0  0  0  0  0  0  0999 V2000
   -7.4494    1.6541    0.0000 C   0  0  0  0  0  0  0  0  0  0  0  0
   -6.5925    0.4229    0.0000 C   0  0  0  0  0  0  0  0  0  0  0  0
   -7.2304   -0.9347    0.0000 O   0  0  0  0  0  0  0  0  0  0  0  0
   -5.0979    0.5494    0.0000 O   0  0  0  0  0  0  0  0  0  0  0  0
   -4.2410   -0.6818    0.0000 C   0  0  0  0  0  0  0  0  0  0  0  0
   -2.7464   -0.5554    0.0000 C   0  0  0  0  0  0  0  0  0  0  0  0
   -3.2058    0.8725    0.0000 O   0  0  0  0  0  0  0  0  0  0  0  0
   -2.7769   -2.0551    0.0000 C   0  0  0  0  0  0  0  0  0  0  0  0
   -1.3600   -2.5475    0.0000 C   0  0  0  0  0  0  0  0  0  0  0  0
   -0.4538   -1.3521    0.0000 C   0  0  0  0  0  0  0  0  0  0  0  0
    1.0408   -1.2257    0.0000 C   0  0  0  0  0  0  0  0  0  0  0  0
    1.8977   -2.4569    0.0000 C   0  0  0  0  0  0  0  0  0  0  0  0
    3.3923   -2.3304    0.0000 C   0  0  0  0  0  0  0  0  0  0  0  0
    4.0302   -0.9728    0.0000 C   0  0  0  0  0  0  0  0  0  0  0  0
    5.5248   -0.8463    0.0000 C   0  0  0  0  0  0  0  0  0  0  0  0
    6.1626    0.5113    0.0000 C   0  0  0  0  0  0  0  0  0  0  0  0
    7.6573    0.6378    0.0000 O   0  0  0  0  0  0  0  0  0  0  0  0
    5.3058    1.7425    0.0000 C   0  0  0  0  0  0  0  0  0  0  0  0
    3.8111    1.6161    0.0000 C   0  0  0  0  0  0  0  0  0  0  0  0
    3.1733    0.2584    0.0000 C   0  0  0  0  0  0  0  0  0  0  0  0
    2.3165    1.4896    0.0000 C   0  0  0  0  0  0  0  0  0  0  0  0
    1.6787    0.1320    0.0000 C   0  0  0  0  0  0  0  0  0  0  0  0
    0.8218    1.3632    0.0000 C   0  0  0  0  0  0  0  0  0  0  0  0
   -0.6728    1.2367    0.0000 C   0  0  0  0  0  0  0  0  0  0  0  0
   -1.5297    2.4679    0.0000 O   0  0  0  0  0  0  0  0  0  0  0  0
   -1.3107   -0.1209    0.0000 C   0  0  0  0  0  0  0  0  0  0  0  0
   -2.1458    1.1251    0.0000 C   0  0  0  0  0  0  0  0  0  0  0  0
  1  2  1  0
  2  3  2  0
  2  4  1  0
  4  5  1  0
  5  6  1  0
  6  7  1  6
  6  8  1  0
  8  9  1  0
 10  9  1  6
 10 11  1  0
 11 12  1  1
 12 13  1  0
 14 13  1  1
 14 15  1  0
 15 16  1  0
 16 17  1  1
 16 18  1  0
 18 19  1  0
 19 20  1  0
 20 21  1  6
 20 22  1  0
 22 23  1  6
 23 24  1  0
 24 25  1  1
 24 26  1  0
 26 27  1  6
 26  6  1  0
 26 10  1  0
 22 11  1  0
 20 14  1  0
M  END
>  <MS_ID>  (3320) 
MS3459

>  <SMILES>  (3320) 
CC(=O)OC[C@]1(O)CC[C@H]2[C@@H]3CC[C@@H]4C[C@H](O)CC[C@]4(C)[C@H]3C[C@H](O)[C@@]21C

>  <Structure_dimension>  (3320) 
2D

$$$$
MS3461
     RDKit          2D

 25 28  0  0  0  0  0  0  0  0999 V2000
    1.7479   -1.4680    0.0000 C   0  0  0  0  0  0  0  0  0  0  0  0
    2.6075   -0.2388    0.0000 C   0  0  0  0  0  0  0  0  0  0  0  0
    3.2422   -1.5979    0.0000 C   0  0  0  0  0  0  0  0  0  0  0  0
    4.7366   -1.7278    0.0000 C   0  0  0  0  0  0  0  0  0  0  0  0
    5.5963   -0.4986    0.0000 C   0  0  0  0  0  0  0  0  0  0  0  0
    7.0906   -0.6285    0.0000 O   0  0  0  0  0  0  0  0  0  0  0  0
    4.9616    0.8605    0.0000 C   0  0  0  0  0  0  0  0  0  0  0  0
    3.4672    0.9904    0.0000 C   0  0  0  0  0  0  0  0  0  0  0  0
    2.8325    2.3495    0.0000 C   0  0  0  0  0  0  0  0  0  0  0  0
    1.3381    2.4794    0.0000 C   0  0  0  0  0  0  0  0  0  0  0  0
    0.4785    1.2502    0.0000 C   0  0  0  0  0  0  0  0  0  0  0  0
    1.1132   -0.1089    0.0000 C   0  0  0  0  0  0  0  0  0  0  0  0
    0.2535   -1.3382    0.0000 C   0  0  0  0  0  0  0  0  0  0  0  0
   -1.2409   -1.2083    0.0000 C   0  0  0  0  0  0  0  0  0  0  0  0
   -2.1005   -2.4375    0.0000 O   0  0  0  0  0  0  0  0  0  0  0  0
   -1.8756    0.1508    0.0000 C   0  0  0  0  0  0  0  0  0  0  0  0
   -2.8590   -0.9818    0.0000 C   0  0  0  0  0  0  0  0  0  0  0  0
   -3.3103    0.5886    0.0000 C   0  0  0  0  0  0  0  0  0  0  0  0
   -4.5077   -0.3148    0.0000 C   0  0  0  0  0  0  0  0  0  0  0  0
   -4.3241   -1.8035    0.0000 O   0  0  0  0  0  0  0  0  0  0  0  0
   -5.8888    0.2705    0.0000 C   0  0  0  0  0  0  0  0  0  0  0  0
   -7.0862   -0.6329    0.0000 O   0  0  0  0  0  0  0  0  0  0  0  0
   -3.3373    2.0883    0.0000 C   0  0  0  0  0  0  0  0  0  0  0  0
   -1.9193    2.5775    0.0000 C   0  0  0  0  0  0  0  0  0  0  0  0
   -1.0159    1.3800    0.0000 C   0  0  0  0  0  0  0  0  0  0  0  0
  2  1  1  1
  2  3  1  0
  3  4  1  0
  4  5  1  0
  5  6  2  0
  5  7  1  0
  8  7  1  6
  8  9  1  0
  9 10  1  0
 11 10  1  6
 11 12  1  0
 12 13  1  1
 13 14  1  0
 14 15  1  1
 14 16  1  0
 16 17  1  1
 16 18  1  0
 18 19  1  0
 19 20  1  1
 19 21  1  0
 21 22  1  0
 18 23  1  1
 23 24  1  0
 25 24  1  1
  8  2  1  0
 25 11  1  0
 12  2  1  0
 25 16  1  0
M  END
>  <MS_ID>  (3321) 
MS3461

>  <SMILES>  (3321) 
C[C@]12CCC(=O)C[C@H]1CC[C@@H]1[C@@H]2C[C@@H](O)[C@]2(C)[C@@H]([C@@H](O)CO)CC[C@@H]12

>  <Structure_dimension>  (3321) 
2D

$$$$
MS3462
     RDKit          2D

 26 29  0  0  0  0  0  0  0  0999 V2000
    2.1052   -1.4736    0.0000 C   0  0  0  0  0  0  0  0  0  0  0  0
    2.8220   -0.1559    0.0000 C   0  0  0  0  0  0  0  0  0  0  0  0
    3.6047   -1.4355    0.0000 C   0  0  0  0  0  0  0  0  0  0  0  0
    5.1042   -1.3975    0.0000 C   0  0  0  0  0  0  0  0  0  0  0  0
    5.8210   -0.0798    0.0000 C   0  0  0  0  0  0  0  0  0  0  0  0
    7.3206   -0.0418    0.0000 O   0  0  0  0  0  0  0  0  0  0  0  0
    5.0383    1.1998    0.0000 C   0  0  0  0  0  0  0  0  0  0  0  0
    3.5388    1.1617    0.0000 C   0  0  0  0  0  0  0  0  0  0  0  0
    2.7561    2.4413    0.0000 C   0  0  0  0  0  0  0  0  0  0  0  0
    1.2566    2.4033    0.0000 C   0  0  0  0  0  0  0  0  0  0  0  0
    0.5398    1.0856    0.0000 C   0  0  0  0  0  0  0  0  0  0  0  0
    1.3225   -0.1940    0.0000 C   0  0  0  0  0  0  0  0  0  0  0  0
    0.6057   -1.5116    0.0000 C   0  0  0  0  0  0  0  0  0  0  0  0
   -0.8938   -1.5496    0.0000 C   0  0  0  0  0  0  0  0  0  0  0  0
   -1.6107   -2.8673    0.0000 O   0  0  0  0  0  0  0  0  0  0  0  0
   -1.6765   -0.2700    0.0000 C   0  0  0  0  0  0  0  0  0  0  0  0
   -2.3702   -1.6000    0.0000 C   0  0  0  0  0  0  0  0  0  0  0  0
   -0.9597    1.0476    0.0000 C   0  0  0  0  0  0  0  0  0  0  0  0
   -1.9914    2.1365    0.0000 C   0  0  0  0  0  0  0  0  0  0  0  0
   -3.3458    1.4919    0.0000 C   0  0  0  0  0  0  0  0  0  0  0  0
   -3.1512    0.0045    0.0000 C   0  0  0  0  0  0  0  0  0  0  0  0
   -3.4515   -1.4651    0.0000 O   0  0  0  0  0  0  0  0  0  0  0  0
   -4.6507   -0.0335    0.0000 C   0  0  0  0  0  0  0  0  0  0  0  0
   -5.3675   -1.3512    0.0000 O   0  0  0  0  0  0  0  0  0  0  0  0
   -5.4334    1.2461    0.0000 C   0  0  0  0  0  0  0  0  0  0  0  0
   -6.9329    1.2080    0.0000 O   0  0  0  0  0  0  0  0  0  0  0  0
  2  1  1  1
  2  3  1  0
  3  4  1  0
  4  5  1  0
  5  6  1  1
  5  7  1  0
  8  7  1  6
  8  9  1  0
  9 10  1  0
 11 10  1  6
 11 12  1  0
 12 13  1  1
 13 14  1  0
 14 15  1  6
 14 16  1  0
 16 17  1  1
 16 18  1  0
 18 19  1  1
 19 20  1  0
 20 21  1  0
 21 22  1  6
 21 23  1  0
 23 24  2  0
 23 25  1  0
 25 26  1  0
  8  2  1  0
 18 11  1  0
 12  2  1  0
 21 16  1  0
M  END
>  <MS_ID>  (3322) 
MS3462

>  <SMILES>  (3322) 
C[C@]12CC[C@H](O)C[C@H]1CC[C@@H]1[C@@H]2C[C@H](O)[C@@]2(C)[C@H]1CC[C@]2(O)C(=O)CO

>  <Structure_dimension>  (3322) 
2D

$$$$
MS3463
     RDKit          2D

 29 32  0  0  0  0  0  0  0  0999 V2000
   -5.0303   -2.1373    0.0000 C   0  0  0  0  0  0  0  0  0  0  0  0
   -3.8594   -1.1998    0.0000 C   0  0  0  0  0  0  0  0  0  0  0  0
   -4.0858    0.2830    0.0000 C   0  0  0  0  0  0  0  0  0  0  0  0
   -5.4831    0.8284    0.0000 C   0  0  0  0  0  0  0  0  0  0  0  0
   -5.7095    2.3112    0.0000 C   0  0  0  0  0  0  0  0  0  0  0  0
   -4.5386    3.2487    0.0000 O   0  0  0  0  0  0  0  0  0  0  0  0
   -7.1069    2.8565    0.0000 O   0  0  0  0  0  0  0  0  0  0  0  0
   -2.4620   -1.7451    0.0000 C   0  0  0  0  0  0  0  0  0  0  0  0
   -2.0818   -3.1961    0.0000 C   0  0  0  0  0  0  0  0  0  0  0  0
   -0.5844   -3.2830    0.0000 C   0  0  0  0  0  0  0  0  0  0  0  0
   -0.0390   -1.8856    0.0000 C   0  0  0  0  0  0  0  0  0  0  0  0
    1.3643   -1.3559    0.0000 C   0  0  0  0  0  0  0  0  0  0  0  0
    2.5248   -2.3063    0.0000 C   0  0  0  0  0  0  0  0  0  0  0  0
    2.2819   -3.7865    0.0000 O   0  0  0  0  0  0  0  0  0  0  0  0
    3.9281   -1.7765    0.0000 C   0  0  0  0  0  0  0  0  0  0  0  0
    4.1710   -0.2963    0.0000 C   0  0  0  0  0  0  0  0  0  0  0  0
    5.5743    0.2334    0.0000 C   0  0  0  0  0  0  0  0  0  0  0  0
    5.8172    1.7136    0.0000 C   0  0  0  0  0  0  0  0  0  0  0  0
    7.2205    2.2434    0.0000 O   0  0  0  0  0  0  0  0  0  0  0  0
    4.6568    2.6641    0.0000 C   0  0  0  0  0  0  0  0  0  0  0  0
    3.2534    2.1343    0.0000 C   0  0  0  0  0  0  0  0  0  0  0  0
    3.0105    0.6541    0.0000 C   0  0  0  0  0  0  0  0  0  0  0  0
    1.8501    1.6046    0.0000 F   0  0  0  0  0  0  0  0  0  0  0  0
    1.6072    0.1244    0.0000 C   0  0  0  0  0  0  0  0  0  0  0  0
    0.4467    1.0748    0.0000 C   0  0  0  0  0  0  0  0  0  0  0  0
   -0.9566    0.5450    0.0000 C   0  0  0  0  0  0  0  0  0  0  0  0
   -2.1170    1.4955    0.0000 O   0  0  0  0  0  0  0  0  0  0  0  0
   -1.1995   -0.9352    0.0000 C   0  0  0  0  0  0  0  0  0  0  0  0
   -2.4529   -0.1112    0.0000 C   0  0  0  0  0  0  0  0  0  0  0  0
  2  1  1  6
  2  3  1  0
  3  4  1  0
  4  5  1  0
  5  6  2  0
  5  7  1  0
  2  8  1  0
  8  9  1  6
  9 10  1  0
 11 10  1  6
 11 12  1  0
 12 13  1  1
 13 14  1  6
 13 15  1  0
 16 15  1  1
 16 17  1  0
 17 18  1  0
 18 19  1  1
 18 20  1  0
 20 21  1  0
 21 22  1  0
 22 23  1  6
 22 24  1  0
 24 25  1  6
 25 26  1  0
 26 27  2  0
 26 28  1  0
 28 29  1  6
 28  8  1  0
 28 11  1  0
 24 12  1  0
 22 16  1  0
M  END
>  <MS_ID>  (3323) 
MS3463

>  <SMILES>  (3323) 
C[C@H](CCC(=O)O)[C@H]1CC[C@H]2[C@@H]3[C@@H](O)C[C@@H]4C[C@H](O)CC[C@]4(F)[C@H]3CC(=O)[C@]12C

>  <Structure_dimension>  (3323) 
2D

$$$$
MS3464
     RDKit          2D

 25 28  0  0  0  0  0  0  0  0999 V2000
    0.1614   -3.4673    0.0000 C   0  0  0  0  0  0  0  0  0  0  0  0
    0.9262   -2.1769    0.0000 C   0  0  0  0  0  0  0  0  0  0  0  0
    2.4261   -2.1942    0.0000 C   0  0  0  0  0  0  0  0  0  0  0  0
    3.1910   -0.9038    0.0000 C   0  0  0  0  0  0  0  0  0  0  0  0
    4.6909   -0.9210    0.0000 C   0  0  0  0  0  0  0  0  0  0  0  0
    5.4557    0.3693    0.0000 C   0  0  0  0  0  0  0  0  0  0  0  0
    6.9556    0.3521    0.0000 O   0  0  0  0  0  0  0  0  0  0  0  0
    4.7207    1.6769    0.0000 C   0  0  0  0  0  0  0  0  0  0  0  0
    3.2208    1.6941    0.0000 C   0  0  0  0  0  0  0  0  0  0  0  0
    2.4559    0.4037    0.0000 C   0  0  0  0  0  0  0  0  0  0  0  0
    1.7209    1.7113    0.0000 C   0  0  0  0  0  0  0  0  0  0  0  0
    0.9560    0.4210    0.0000 C   0  0  0  0  0  0  0  0  0  0  0  0
    0.2210    1.7285    0.0000 C   0  0  0  0  0  0  0  0  0  0  0  0
   -1.2789    1.7457    0.0000 C   0  0  0  0  0  0  0  0  0  0  0  0
   -2.0438    0.4554    0.0000 C   0  0  0  0  0  0  0  0  0  0  0  0
   -2.7558    1.7756    0.0000 C   0  0  0  0  0  0  0  0  0  0  0  0
   -1.3087   -0.8522    0.0000 C   0  0  0  0  0  0  0  0  0  0  0  0
   -2.3251   -1.9553    0.0000 C   0  0  0  0  0  0  0  0  0  0  0  0
   -3.6884   -1.3295    0.0000 C   0  0  0  0  0  0  0  0  0  0  0  0
   -3.5145    0.1604    0.0000 C   0  0  0  0  0  0  0  0  0  0  0  0
   -3.8351    1.6257    0.0000 O   0  0  0  0  0  0  0  0  0  0  0  0
   -5.0144    0.1776    0.0000 C   0  0  0  0  0  0  0  0  0  0  0  0
   -5.7792   -1.1128    0.0000 O   0  0  0  0  0  0  0  0  0  0  0  0
   -5.7494    1.4851    0.0000 O   0  0  0  0  0  0  0  0  0  0  0  0
    0.1912   -0.8694    0.0000 C   0  0  0  0  0  0  0  0  0  0  0  0
  2  1  1  1
  2  3  1  0
  4  3  1  1
  4  5  1  0
  5  6  1  0
  6  7  1  1
  6  8  1  0
  8  9  1  0
  9 10  1  0
 10 11  1  6
 10 12  1  0
 12 13  1  6
 13 14  1  0
 14 15  1  0
 15 16  1  6
 15 17  1  0
 17 18  1  6
 18 19  1  0
 19 20  1  0
 20 21  1  1
 20 22  1  0
 22 23  2  0
 22 24  1  0
 17 25  1  0
 25  2  1  1
 10  4  1  0
 25 12  1  0
 20 15  1  0
M  END
>  <MS_ID>  (3324) 
MS3464

>  <SMILES>  (3324) 
C[C@@H]1C[C@@H]2C[C@H](O)CC[C@]2(C)[C@H]2CC[C@@]3(C)[C@@H](CC[C@]3(O)C(=O)O)[C@H]12

>  <Structure_dimension>  (3324) 
2D

$$$$
MS3465
     RDKit          2D

 30 33  0  0  0  0  0  0  0  0999 V2000
   -5.0634    4.0451    0.0000 C   0  0  0  0  0  0  0  0  0  0  0  0
   -4.7002    2.5898    0.0000 C   0  0  0  0  0  0  0  0  0  0  0  0
   -3.2582    2.1767    0.0000 C   0  0  0  0  0  0  0  0  0  0  0  0
   -5.7790    1.5475    0.0000 C   0  0  0  0  0  0  0  0  0  0  0  0
   -7.2209    1.9606    0.0000 C   0  0  0  0  0  0  0  0  0  0  0  0
   -5.4157    0.0922    0.0000 C   0  0  0  0  0  0  0  0  0  0  0  0
   -3.9737   -0.3209    0.0000 C   0  0  0  0  0  0  0  0  0  0  0  0
   -3.6105   -1.7763    0.0000 C   0  0  0  0  0  0  0  0  0  0  0  0
   -4.6893   -2.8185    0.0000 C   0  0  0  0  0  0  0  0  0  0  0  0
   -2.1685   -2.1894    0.0000 C   0  0  0  0  0  0  0  0  0  0  0  0
   -1.6551   -3.5988    0.0000 C   0  0  0  0  0  0  0  0  0  0  0  0
   -0.1561   -3.5461    0.0000 C   0  0  0  0  0  0  0  0  0  0  0  0
    0.2570   -2.1041    0.0000 C   0  0  0  0  0  0  0  0  0  0  0  0
    1.6051   -1.4462    0.0000 C   0  0  0  0  0  0  0  0  0  0  0  0
    2.8488   -2.2847    0.0000 C   0  0  0  0  0  0  0  0  0  0  0  0
    4.1969   -1.6269    0.0000 C   0  0  0  0  0  0  0  0  0  0  0  0
    5.4406   -2.4654    0.0000 O   0  0  0  0  0  0  0  0  0  0  0  0
    4.3011   -0.1305    0.0000 C   0  0  0  0  0  0  0  0  0  0  0  0
    5.6492    0.5274    0.0000 C   0  0  0  0  0  0  0  0  0  0  0  0
    5.7535    2.0238    0.0000 C   0  0  0  0  0  0  0  0  0  0  0  0
    7.1015    2.6816    0.0000 O   0  0  0  0  0  0  0  0  0  0  0  0
    4.5097    2.8623    0.0000 C   0  0  0  0  0  0  0  0  0  0  0  0
    3.1617    2.2044    0.0000 C   0  0  0  0  0  0  0  0  0  0  0  0
    3.0574    0.7080    0.0000 C   0  0  0  0  0  0  0  0  0  0  0  0
    1.8136    1.5465    0.0000 C   0  0  0  0  0  0  0  0  0  0  0  0
    1.7094    0.0501    0.0000 C   0  0  0  0  0  0  0  0  0  0  0  0
    0.4656    0.8886    0.0000 C   0  0  0  0  0  0  0  0  0  0  0  0
   -0.8824    0.2307    0.0000 C   0  0  0  0  0  0  0  0  0  0  0  0
   -0.9867   -1.2656    0.0000 C   0  0  0  0  0  0  0  0  0  0  0  0
   -2.3113   -0.5617    0.0000 C   0  0  0  0  0  0  0  0  0  0  0  0
  1  2  1  0
  2  3  1  0
  2  4  1  0
  4  5  1  1
  4  6  1  0
  6  7  1  0
  7  8  1  0
  8  9  1  6
  8 10  1  0
 10 11  1  6
 11 12  1  0
 13 12  1  6
 13 14  1  0
 14 15  1  1
 15 16  1  0
 16 17  2  0
 16 18  1  0
 18 19  1  6
 19 20  1  0
 20 21  2  0
 20 22  1  0
 22 23  1  0
 23 24  1  0
 24 25  1  6
 24 26  1  0
 26 27  1  6
 27 28  1  0
 28 29  1  0
 29 30  1  6
 29 10  1  0
 29 13  1  0
 26 14  1  0
 24 18  1  0
M  END
>  <MS_ID>  (3325) 
MS3465

>  <SMILES>  (3325) 
CC(C)[C@H](C)CC[C@@H](C)[C@H]1CC[C@H]2[C@@H]3CC(=O)[C@H]4CC(=O)CC[C@]4(C)[C@H]3CC[C@]12C

>  <Structure_dimension>  (3325) 
2D

$$$$
MS3466
     RDKit          2D

 28 31  0  0  0  0  0  0  0  0999 V2000
   -5.1275   -2.0302    0.0000 C   0  0  0  0  0  0  0  0  0  0  0  0
   -3.9468   -1.1050    0.0000 C   0  0  0  0  0  0  0  0  0  0  0  0
   -4.1576    0.3801    0.0000 C   0  0  0  0  0  0  0  0  0  0  0  0
   -5.5492    0.9401    0.0000 C   0  0  0  0  0  0  0  0  0  0  0  0
   -5.7600    2.4252    0.0000 C   0  0  0  0  0  0  0  0  0  0  0  0
   -4.5793    3.3503    0.0000 O   0  0  0  0  0  0  0  0  0  0  0  0
   -7.1516    2.9851    0.0000 O   0  0  0  0  0  0  0  0  0  0  0  0
   -2.5552   -1.6650    0.0000 C   0  0  0  0  0  0  0  0  0  0  0  0
   -2.1903   -3.1199    0.0000 C   0  0  0  0  0  0  0  0  0  0  0  0
   -0.6938   -3.2225    0.0000 C   0  0  0  0  0  0  0  0  0  0  0  0
   -0.1339   -1.8309    0.0000 C   0  0  0  0  0  0  0  0  0  0  0  0
    1.2750   -1.3159    0.0000 C   0  0  0  0  0  0  0  0  0  0  0  0
    2.4254   -2.2785    0.0000 C   0  0  0  0  0  0  0  0  0  0  0  0
    2.1670   -3.7560    0.0000 O   0  0  0  0  0  0  0  0  0  0  0  0
    3.8342   -1.7635    0.0000 C   0  0  0  0  0  0  0  0  0  0  0  0
    4.0926   -0.2859    0.0000 C   0  0  0  0  0  0  0  0  0  0  0  0
    5.5014    0.2291    0.0000 C   0  0  0  0  0  0  0  0  0  0  0  0
    5.7598    1.7067    0.0000 C   0  0  0  0  0  0  0  0  0  0  0  0
    7.1687    2.2217    0.0000 O   0  0  0  0  0  0  0  0  0  0  0  0
    4.6094    2.6692    0.0000 C   0  0  0  0  0  0  0  0  0  0  0  0
    3.2006    2.1542    0.0000 C   0  0  0  0  0  0  0  0  0  0  0  0
    2.9422    0.6767    0.0000 C   0  0  0  0  0  0  0  0  0  0  0  0
    1.7918    1.6392    0.0000 C   0  0  0  0  0  0  0  0  0  0  0  0
    1.5334    0.1617    0.0000 C   0  0  0  0  0  0  0  0  0  0  0  0
    0.3830    1.1242    0.0000 C   0  0  0  0  0  0  0  0  0  0  0  0
   -1.0259    0.6093    0.0000 C   0  0  0  0  0  0  0  0  0  0  0  0
   -1.2843   -0.8683    0.0000 C   0  0  0  0  0  0  0  0  0  0  0  0
   -2.5290   -0.0313    0.0000 O   0  0  0  0  0  0  0  0  0  0  0  0
  2  1  1  6
  2  3  1  0
  3  4  1  0
  4  5  1  0
  5  6  2  0
  5  7  1  0
  2  8  1  0
  8  9  1  6
  9 10  1  0
 11 10  1  6
 11 12  1  0
 12 13  1  1
 13 14  1  6
 13 15  1  0
 16 15  1  1
 16 17  1  0
 17 18  1  0
 18 19  1  1
 18 20  1  0
 20 21  1  0
 21 22  1  0
 22 23  1  6
 22 24  1  0
 24 25  1  6
 25 26  1  0
 26 27  1  0
 27 28  1  6
 27  8  1  0
 27 11  1  0
 24 12  1  0
 22 16  1  0
M  END
>  <MS_ID>  (3326) 
MS3466

>  <SMILES>  (3326) 
C[C@H](CCC(=O)O)[C@H]1CC[C@H]2[C@@H]3[C@@H](O)C[C@@H]4C[C@H](O)CC[C@]4(C)[C@H]3CC[C@]12O

>  <Structure_dimension>  (3326) 
2D

$$$$
MS3467
     RDKit          2D

 22 25  0  0  0  0  0  0  0  0999 V2000
   -5.2914    1.3717    0.0000 C   0  0  0  0  0  0  0  0  0  0  0  0
   -4.2165    0.3255    0.0000 C   0  0  0  0  0  0  0  0  0  0  0  0
   -4.4310   -1.1591    0.0000 C   0  0  0  0  0  0  0  0  0  0  0  0
   -3.0854   -1.8219    0.0000 C   0  0  0  0  0  0  0  0  0  0  0  0
   -2.0392   -0.7469    0.0000 C   0  0  0  0  0  0  0  0  0  0  0  0
   -0.5403   -0.8051    0.0000 C   0  0  0  0  0  0  0  0  0  0  0  0
    0.1587   -2.1323    0.0000 C   0  0  0  0  0  0  0  0  0  0  0  0
   -0.6411   -3.4012    0.0000 O   0  0  0  0  0  0  0  0  0  0  0  0
    1.6576   -2.1905    0.0000 C   0  0  0  0  0  0  0  0  0  0  0  0
    2.4574   -0.9215    0.0000 C   0  0  0  0  0  0  0  0  0  0  0  0
    3.9563   -0.9797    0.0000 C   0  0  0  0  0  0  0  0  0  0  0  0
    4.7561    0.2892    0.0000 C   0  0  0  0  0  0  0  0  0  0  0  0
    6.2550    0.2310    0.0000 O   0  0  0  0  0  0  0  0  0  0  0  0
    4.0571    1.6164    0.0000 C   0  0  0  0  0  0  0  0  0  0  0  0
    2.5582    1.6746    0.0000 C   0  0  0  0  0  0  0  0  0  0  0  0
    1.7584    0.4056    0.0000 C   0  0  0  0  0  0  0  0  0  0  0  0
    1.0593    1.7328    0.0000 C   0  0  0  0  0  0  0  0  0  0  0  0
    0.2595    0.4638    0.0000 C   0  0  0  0  0  0  0  0  0  0  0  0
   -0.4395    1.7910    0.0000 C   0  0  0  0  0  0  0  0  0  0  0  0
   -1.9384    1.8492    0.0000 C   0  0  0  0  0  0  0  0  0  0  0  0
   -2.7383    0.5802    0.0000 C   0  0  0  0  0  0  0  0  0  0  0  0
   -3.5722    1.8270    0.0000 C   0  0  0  0  0  0  0  0  0  0  0  0
  2  1  1  6
  2  3  1  0
  3  4  1  0
  5  4  1  6
  5  6  1  0
  6  7  1  1
  7  8  1  1
  7  9  1  0
 10  9  1  1
 10 11  1  0
 11 12  1  0
 12 13  1  1
 12 14  1  0
 14 15  1  0
 15 16  1  0
 16 17  1  6
 16 18  1  0
 18 19  1  6
 19 20  1  0
 20 21  1  0
 21 22  1  6
 21  2  1  0
 21  5  1  0
 18  6  1  0
 16 10  1  0
M  END
>  <MS_ID>  (3327) 
MS3467

>  <SMILES>  (3327) 
C[C@H]1CC[C@H]2[C@@H]3[C@H](O)C[C@@H]4C[C@H](O)CC[C@]4(C)[C@H]3CC[C@]12C

>  <Structure_dimension>  (3327) 
2D

$$$$
MS3468
     RDKit          2D

 29 32  0  0  0  0  0  0  0  0999 V2000
   -7.4373    3.6696    0.0000 C   0  0  0  0  0  0  0  0  0  0  0  0
   -7.0935    2.2096    0.0000 C   0  0  0  0  0  0  0  0  0  0  0  0
   -8.1860    1.1818    0.0000 C   0  0  0  0  0  0  0  0  0  0  0  0
   -5.6571    1.7773    0.0000 C   0  0  0  0  0  0  0  0  0  0  0  0
   -5.3133    0.3173    0.0000 C   0  0  0  0  0  0  0  0  0  0  0  0
   -3.8769   -0.1150    0.0000 C   0  0  0  0  0  0  0  0  0  0  0  0
   -3.5331   -1.5751    0.0000 C   0  0  0  0  0  0  0  0  0  0  0  0
   -4.6256   -2.6029    0.0000 C   0  0  0  0  0  0  0  0  0  0  0  0
   -2.0967   -2.0073    0.0000 C   0  0  0  0  0  0  0  0  0  0  0  0
   -1.6021   -3.4234    0.0000 C   0  0  0  0  0  0  0  0  0  0  0  0
   -0.1025   -3.3907    0.0000 C   0  0  0  0  0  0  0  0  0  0  0  0
    0.3298   -1.9543    0.0000 C   0  0  0  0  0  0  0  0  0  0  0  0
    1.6864   -1.3144    0.0000 C   0  0  0  0  0  0  0  0  0  0  0  0
    2.9189   -2.1694    0.0000 C   0  0  0  0  0  0  0  0  0  0  0  0
    4.2756   -1.5295    0.0000 C   0  0  0  0  0  0  0  0  0  0  0  0
    5.5081   -2.3844    0.0000 O   0  0  0  0  0  0  0  0  0  0  0  0
    4.3998   -0.0346    0.0000 C   0  0  0  0  0  0  0  0  0  0  0  0
    5.7564    0.6053    0.0000 C   0  0  0  0  0  0  0  0  0  0  0  0
    5.8806    2.1001    0.0000 C   0  0  0  0  0  0  0  0  0  0  0  0
    7.2373    2.7400    0.0000 O   0  0  0  0  0  0  0  0  0  0  0  0
    4.6481    2.9551    0.0000 C   0  0  0  0  0  0  0  0  0  0  0  0
    3.2914    2.3152    0.0000 C   0  0  0  0  0  0  0  0  0  0  0  0
    3.1673    0.8203    0.0000 C   0  0  0  0  0  0  0  0  0  0  0  0
    1.9348    1.6753    0.0000 C   0  0  0  0  0  0  0  0  0  0  0  0
    1.8106    0.1804    0.0000 C   0  0  0  0  0  0  0  0  0  0  0  0
    0.5781    1.0354    0.0000 C   0  0  0  0  0  0  0  0  0  0  0  0
   -0.7786    0.3955    0.0000 C   0  0  0  0  0  0  0  0  0  0  0  0
   -0.9027   -1.0993    0.0000 C   0  0  0  0  0  0  0  0  0  0  0  0
   -2.2178   -0.3779    0.0000 C   0  0  0  0  0  0  0  0  0  0  0  0
  1  2  1  0
  2  3  1  0
  2  4  1  0
  4  5  1  0
  5  6  1  0
  6  7  1  0
  7  8  1  6
  7  9  1  0
  9 10  1  6
 10 11  1  0
 12 11  1  6
 12 13  1  0
 13 14  1  1
 14 15  1  0
 15 16  2  0
 15 17  1  0
 17 18  1  6
 18 19  1  0
 19 20  1  6
 19 21  1  0
 21 22  1  0
 22 23  1  0
 23 24  1  6
 23 25  1  0
 25 26  1  6
 26 27  1  0
 27 28  1  0
 28 29  1  6
 28  9  1  0
 28 12  1  0
 25 13  1  0
 23 17  1  0
M  END
>  <MS_ID>  (3328) 
MS3468

>  <SMILES>  (3328) 
CC(C)CCC[C@@H](C)[C@H]1CC[C@H]2[C@@H]3CC(=O)[C@H]4C[C@@H](O)CC[C@]4(C)[C@H]3CC[C@]12C

>  <Structure_dimension>  (3328) 
2D

$$$$
MS3469
     RDKit          2D

 37 40  0  0  0  0  0  0  0  0999 V2000
   -0.9032   -4.5798    0.0000 C   0  0  0  0  0  0  0  0  0  0  0  0
   -0.3196   -3.1980    0.0000 C   0  0  0  0  0  0  0  0  0  0  0  0
   -1.2244   -2.0016    0.0000 C   0  0  0  0  0  0  0  0  0  0  0  0
   -2.7129   -2.1871    0.0000 C   0  0  0  0  0  0  0  0  0  0  0  0
   -3.6177   -0.9907    0.0000 C   0  0  0  0  0  0  0  0  0  0  0  0
   -3.0341    0.3911    0.0000 O   0  0  0  0  0  0  0  0  0  0  0  0
   -5.1062   -1.1761    0.0000 N   0  0  0  0  0  0  0  0  0  0  0  0
   -6.0111    0.0202    0.0000 C   0  0  0  0  0  0  0  0  0  0  0  0
   -7.4996   -0.1652    0.0000 C   0  0  0  0  0  0  0  0  0  0  0  0
   -8.4044    1.0311    0.0000 C   0  0  0  0  0  0  0  0  0  0  0  0
   -9.8929    0.8457    0.0000 C   0  0  0  0  0  0  0  0  0  0  0  0
  -10.7977    2.0421    0.0000 C   0  0  0  0  0  0  0  0  0  0  0  0
  -12.2862    1.8566    0.0000 C   0  0  0  0  0  0  0  0  0  0  0  0
  -12.8699    0.4748    0.0000 O   0  0  0  0  0  0  0  0  0  0  0  0
  -13.1911    3.0530    0.0000 O   0  0  0  0  0  0  0  0  0  0  0  0
    1.1689   -3.0125    0.0000 C   0  0  0  0  0  0  0  0  0  0  0  0
    2.1938   -4.1078    0.0000 C   0  0  0  0  0  0  0  0  0  0  0  0
    3.5522   -3.4714    0.0000 C   0  0  0  0  0  0  0  0  0  0  0  0
    3.3668   -1.9829    0.0000 C   0  0  0  0  0  0  0  0  0  0  0  0
    4.3488   -0.8491    0.0000 C   0  0  0  0  0  0  0  0  0  0  0  0
    5.8218   -1.1328    0.0000 C   0  0  0  0  0  0  0  0  0  0  0  0
    6.3126   -2.5502    0.0000 O   0  0  0  0  0  0  0  0  0  0  0  0
    6.8039    0.0010    0.0000 C   0  0  0  0  0  0  0  0  0  0  0  0
    8.2768   -0.2826    0.0000 O   0  0  0  0  0  0  0  0  0  0  0  0
    6.3130    1.4185    0.0000 C   0  0  0  0  0  0  0  0  0  0  0  0
    7.2951    2.5523    0.0000 C   0  0  0  0  0  0  0  0  0  0  0  0
    6.8042    3.9697    0.0000 C   0  0  0  0  0  0  0  0  0  0  0  0
    7.7863    5.1035    0.0000 O   0  0  0  0  0  0  0  0  0  0  0  0
    5.3313    4.2533    0.0000 C   0  0  0  0  0  0  0  0  0  0  0  0
    4.3492    3.1195    0.0000 C   0  0  0  0  0  0  0  0  0  0  0  0
    4.8401    1.7021    0.0000 C   0  0  0  0  0  0  0  0  0  0  0  0
    3.3671    1.9857    0.0000 C   0  0  0  0  0  0  0  0  0  0  0  0
    3.8580    0.5683    0.0000 C   0  0  0  0  0  0  0  0  0  0  0  0
    2.3850    0.8519    0.0000 C   0  0  0  0  0  0  0  0  0  0  0  0
    1.4030   -0.2819    0.0000 C   0  0  0  0  0  0  0  0  0  0  0  0
    1.8938   -1.6993    0.0000 C   0  0  0  0  0  0  0  0  0  0  0  0
    0.3993   -1.5712    0.0000 C   0  0  0  0  0  0  0  0  0  0  0  0
  2  1  1  6
  2  3  1  0
  3  4  1  0
  4  5  1  0
  5  6  2  0
  5  7  1  0
  7  8  1  0
  8  9  1  0
  9 10  1  0
 10 11  1  0
 11 12  1  0
 12 13  1  0
 13 14  2  0
 13 15  1  0
  2 16  1  0
 16 17  1  6
 17 18  1  0
 19 18  1  6
 19 20  1  0
 20 21  1  1
 21 22  1  6
 21 23  1  0
 23 24  1  6
 23 25  1  0
 25 26  1  1
 26 27  1  0
 27 28  1  1
 27 29  1  0
 29 30  1  0
 30 31  1  0
 31 32  1  6
 31 33  1  0
 33 34  1  6
 34 35  1  0
 35 36  1  0
 36 37  1  6
 36 16  1  0
 36 19  1  0
 33 20  1  0
 31 25  1  0
M  END
>  <MS_ID>  (3329) 
MS3469

>  <SMILES>  (3329) 
C[C@H](CCC(=O)NCCCCCC(=O)O)[C@H]1CC[C@H]2[C@@H]3[C@@H](O)[C@@H](O)[C@@H]4C[C@H](O)CC[C@]4(C)[C@H]3CC[C@]12C

>  <Structure_dimension>  (3329) 
2D

$$$$
MS3470
     RDKit          2D

 26 29  0  0  0  0  0  0  0  0999 V2000
   -7.1203    0.7137    0.0000 C   0  0  0  0  0  0  0  0  0  0  0  0
   -5.9144   -0.1784    0.0000 C   0  0  0  0  0  0  0  0  0  0  0  0
   -4.5389    0.4199    0.0000 C   0  0  0  0  0  0  0  0  0  0  0  0
   -4.3693    1.9102    0.0000 O   0  0  0  0  0  0  0  0  0  0  0  0
   -3.3330   -0.4723    0.0000 C   0  0  0  0  0  0  0  0  0  0  0  0
   -3.3460   -1.9722    0.0000 C   0  0  0  0  0  0  0  0  0  0  0  0
   -1.9235   -2.4480    0.0000 C   0  0  0  0  0  0  0  0  0  0  0  0
   -1.0313   -1.2422    0.0000 C   0  0  0  0  0  0  0  0  0  0  0  0
    0.4617   -1.0982    0.0000 C   0  0  0  0  0  0  0  0  0  0  0  0
    1.3329   -2.3193    0.0000 C   0  0  0  0  0  0  0  0  0  0  0  0
    0.7110   -3.6843    0.0000 O   0  0  0  0  0  0  0  0  0  0  0  0
    2.8260   -2.1754    0.0000 C   0  0  0  0  0  0  0  0  0  0  0  0
    3.4479   -0.8104    0.0000 C   0  0  0  0  0  0  0  0  0  0  0  0
    4.9410   -0.6665    0.0000 C   0  0  0  0  0  0  0  0  0  0  0  0
    5.5629    0.6985    0.0000 C   0  0  0  0  0  0  0  0  0  0  0  0
    7.0560    0.8424    0.0000 O   0  0  0  0  0  0  0  0  0  0  0  0
    4.6917    1.9196    0.0000 C   0  0  0  0  0  0  0  0  0  0  0  0
    3.1986    1.7757    0.0000 C   0  0  0  0  0  0  0  0  0  0  0  0
    2.5767    0.4107    0.0000 C   0  0  0  0  0  0  0  0  0  0  0  0
    1.7056    1.6318    0.0000 C   0  0  0  0  0  0  0  0  0  0  0  0
    1.0837    0.2668    0.0000 C   0  0  0  0  0  0  0  0  0  0  0  0
    0.2125    1.4879    0.0000 C   0  0  0  0  0  0  0  0  0  0  0  0
   -1.2806    1.3439    0.0000 C   0  0  0  0  0  0  0  0  0  0  0  0
   -2.1518    2.5650    0.0000 O   0  0  0  0  0  0  0  0  0  0  0  0
   -1.9025   -0.0211    0.0000 C   0  0  0  0  0  0  0  0  0  0  0  0
   -2.8965    1.1023    0.0000 C   0  0  0  0  0  0  0  0  0  0  0  0
  1  2  2  0
  2  3  1  0
  3  4  1  1
  3  5  1  0
  5  6  1  6
  6  7  1  0
  8  7  1  6
  8  9  1  0
  9 10  1  1
 10 11  1  1
 10 12  1  0
 13 12  1  1
 13 14  1  0
 14 15  1  0
 15 16  1  1
 15 17  1  0
 17 18  1  0
 18 19  1  0
 19 20  1  6
 19 21  1  0
 21 22  1  6
 22 23  1  0
 23 24  1  1
 23 25  1  0
 25 26  1  6
 25  5  1  0
 25  8  1  0
 21  9  1  0
 19 13  1  0
M  END
>  <MS_ID>  (3330) 
MS3470

>  <SMILES>  (3330) 
C=C[C@@H](O)[C@H]1CC[C@H]2[C@@H]3[C@H](O)C[C@@H]4C[C@H](O)CC[C@]4(C)[C@H]3C[C@H](O)[C@]12C

>  <Structure_dimension>  (3330) 
2D

$$$$
MS3471
     RDKit          2D

 27 30  0  0  0  0  0  0  0  0999 V2000
   -4.7316   -2.2462    0.0000 C   0  0  0  0  0  0  0  0  0  0  0  0
   -3.6106   -1.2495    0.0000 C   0  0  0  0  0  0  0  0  0  0  0  0
   -3.9133    0.2196    0.0000 C   0  0  0  0  0  0  0  0  0  0  0  0
   -5.3370    0.6920    0.0000 C   0  0  0  0  0  0  0  0  0  0  0  0
   -5.6397    2.1612    0.0000 C   0  0  0  0  0  0  0  0  0  0  0  0
   -4.5188    3.1579    0.0000 O   0  0  0  0  0  0  0  0  0  0  0  0
   -7.0634    2.6336    0.0000 O   0  0  0  0  0  0  0  0  0  0  0  0
   -2.1870   -1.7219    0.0000 C   0  0  0  0  0  0  0  0  0  0  0  0
   -1.7323   -3.1514    0.0000 C   0  0  0  0  0  0  0  0  0  0  0  0
   -0.2324   -3.1607    0.0000 C   0  0  0  0  0  0  0  0  0  0  0  0
    0.2401   -1.7371    0.0000 C   0  0  0  0  0  0  0  0  0  0  0  0
    1.6141   -1.1355    0.0000 C   0  0  0  0  0  0  0  0  0  0  0  0
    2.8222   -2.0247    0.0000 C   0  0  0  0  0  0  0  0  0  0  0  0
    2.6561   -3.5155    0.0000 O   0  0  0  0  0  0  0  0  0  0  0  0
    4.1962   -1.4232    0.0000 C   0  0  0  0  0  0  0  0  0  0  0  0
    4.3623    0.0676    0.0000 C   0  0  0  0  0  0  0  0  0  0  0  0
    5.7364    0.6691    0.0000 C   0  0  0  0  0  0  0  0  0  0  0  0
    5.9025    2.1599    0.0000 C   0  0  0  0  0  0  0  0  0  0  0  0
    4.6945    3.0491    0.0000 O   0  0  0  0  0  0  0  0  0  0  0  0
    3.3204    2.4476    0.0000 C   0  0  0  0  0  0  0  0  0  0  0  0
    3.1543    0.9568    0.0000 C   0  0  0  0  0  0  0  0  0  0  0  0
    1.9463    1.8460    0.0000 C   0  0  0  0  0  0  0  0  0  0  0  0
    1.7802    0.3553    0.0000 C   0  0  0  0  0  0  0  0  0  0  0  0
    0.5722    1.2445    0.0000 C   0  0  0  0  0  0  0  0  0  0  0  0
   -0.8019    0.6429    0.0000 C   0  0  0  0  0  0  0  0  0  0  0  0
   -0.9680   -0.8478    0.0000 C   0  0  0  0  0  0  0  0  0  0  0  0
   -2.2623   -0.0897    0.0000 C   0  0  0  0  0  0  0  0  0  0  0  0
  2  1  1  6
  2  3  1  0
  3  4  1  0
  4  5  1  0
  5  6  2  0
  5  7  1  0
  2  8  1  0
  8  9  1  6
  9 10  1  0
 11 10  1  6
 11 12  1  0
 12 13  1  1
 13 14  1  6
 13 15  1  0
 16 15  1  1
 16 17  1  0
 17 18  1  0
 18 19  1  0
 19 20  1  0
 20 21  1  0
 21 22  1  6
 21 23  1  0
 23 24  1  6
 24 25  1  0
 25 26  1  0
 26 27  1  6
 26  8  1  0
 26 11  1  0
 23 12  1  0
 21 16  1  0
M  END
>  <MS_ID>  (3331) 
MS3471

>  <SMILES>  (3331) 
C[C@H](CCC(=O)O)[C@H]1CC[C@H]2[C@@H]3[C@@H](O)C[C@@H]4CCOC[C@]4(C)[C@H]3CC[C@]12C

>  <Structure_dimension>  (3331) 
2D

$$$$
MS3472
     RDKit          2D

 29 32  0  0  0  0  0  0  0  0999 V2000
   -5.2401   -2.0328    0.0000 C   0  0  0  0  0  0  0  0  0  0  0  0
   -4.0410   -1.1316    0.0000 C   0  0  0  0  0  0  0  0  0  0  0  0
   -4.2220    0.3575    0.0000 C   0  0  0  0  0  0  0  0  0  0  0  0
   -5.6020    0.9453    0.0000 C   0  0  0  0  0  0  0  0  0  0  0  0
   -5.7830    2.4343    0.0000 C   0  0  0  0  0  0  0  0  0  0  0  0
   -4.5839    3.3355    0.0000 O   0  0  0  0  0  0  0  0  0  0  0  0
   -7.1630    3.0221    0.0000 O   0  0  0  0  0  0  0  0  0  0  0  0
   -2.6610   -1.7194    0.0000 C   0  0  0  0  0  0  0  0  0  0  0  0
   -2.3254   -3.1813    0.0000 C   0  0  0  0  0  0  0  0  0  0  0  0
   -0.8312   -3.3139    0.0000 C   0  0  0  0  0  0  0  0  0  0  0  0
   -0.2434   -1.9339    0.0000 C   0  0  0  0  0  0  0  0  0  0  0  0
    1.1754   -1.4473    0.0000 C   0  0  0  0  0  0  0  0  0  0  0  0
    2.3063   -2.4327    0.0000 C   0  0  0  0  0  0  0  0  0  0  0  0
    2.0183   -3.9048    0.0000 O   0  0  0  0  0  0  0  0  0  0  0  0
    3.7252   -1.9461    0.0000 O   0  0  0  0  0  0  0  0  0  0  0  0
    4.0132   -0.4740    0.0000 C   0  0  0  0  0  0  0  0  0  0  0  0
    5.4321    0.0126    0.0000 C   0  0  0  0  0  0  0  0  0  0  0  0
    5.7201    1.4846    0.0000 C   0  0  0  0  0  0  0  0  0  0  0  0
    7.1390    1.9713    0.0000 O   0  0  0  0  0  0  0  0  0  0  0  0
    4.5892    2.4701    0.0000 C   0  0  0  0  0  0  0  0  0  0  0  0
    3.1704    1.9835    0.0000 C   0  0  0  0  0  0  0  0  0  0  0  0
    2.8823    0.5114    0.0000 C   0  0  0  0  0  0  0  0  0  0  0  0
    1.7515    1.4969    0.0000 C   0  0  0  0  0  0  0  0  0  0  0  0
    2.0395    2.9690    0.0000 O   0  0  0  0  0  0  0  0  0  0  0  0
    1.4635    0.0248    0.0000 C   0  0  0  0  0  0  0  0  0  0  0  0
    0.3326    1.0103    0.0000 C   0  0  0  0  0  0  0  0  0  0  0  0
   -1.0863    0.5237    0.0000 C   0  0  0  0  0  0  0  0  0  0  0  0
   -1.3743   -0.9484    0.0000 C   0  0  0  0  0  0  0  0  0  0  0  0
   -2.6020   -0.0865    0.0000 C   0  0  0  0  0  0  0  0  0  0  0  0
  2  1  1  6
  2  3  1  0
  3  4  1  0
  4  5  1  0
  5  6  2  0
  5  7  1  0
  2  8  1  0
  8  9  1  6
  9 10  1  0
 11 10  1  6
 11 12  1  0
 12 13  1  1
 13 14  1  6
 13 15  1  0
 15 16  1  0
 16 17  1  1
 17 18  1  0
 18 19  1  1
 18 20  1  0
 20 21  1  0
 21 22  1  0
 22 23  1  6
 23 24  1  0
 22 25  1  0
 25 26  1  6
 26 27  1  0
 27 28  1  0
 28 29  1  6
 28  8  1  0
 28 11  1  0
 25 12  1  0
 22 16  1  0
M  END
>  <MS_ID>  (3332) 
MS3472

>  <SMILES>  (3332) 
C[C@H](CCC(=O)O)[C@H]1CC[C@H]2[C@@H]3[C@@H](O)O[C@@H]4C[C@H](O)CC[C@]4(CO)[C@H]3CC[C@]12C

>  <Structure_dimension>  (3332) 
2D

$$$$
MS3473
     RDKit          2D

 26 29  0  0  0  0  0  0  0  0999 V2000
    2.2806   -1.5506    0.0000 C   0  0  0  0  0  0  0  0  0  0  0  0
    3.0978   -0.2927    0.0000 C   0  0  0  0  0  0  0  0  0  0  0  0
    3.7785   -1.6293    0.0000 C   0  0  0  0  0  0  0  0  0  0  0  0
    5.2765   -1.7081    0.0000 C   0  0  0  0  0  0  0  0  0  0  0  0
    6.0936   -0.4502    0.0000 C   0  0  0  0  0  0  0  0  0  0  0  0
    7.5916   -0.5289    0.0000 O   0  0  0  0  0  0  0  0  0  0  0  0
    5.4129    0.8864    0.0000 C   0  0  0  0  0  0  0  0  0  0  0  0
    3.9149    0.9652    0.0000 C   0  0  0  0  0  0  0  0  0  0  0  0
    3.2342    2.3018    0.0000 C   0  0  0  0  0  0  0  0  0  0  0  0
    1.7362    2.3805    0.0000 C   0  0  0  0  0  0  0  0  0  0  0  0
    0.9191    1.1226    0.0000 C   0  0  0  0  0  0  0  0  0  0  0  0
    1.5998   -0.2140    0.0000 C   0  0  0  0  0  0  0  0  0  0  0  0
    0.7827   -1.4719    0.0000 C   0  0  0  0  0  0  0  0  0  0  0  0
   -0.7152   -1.3931    0.0000 C   0  0  0  0  0  0  0  0  0  0  0  0
   -1.3960   -0.0565    0.0000 C   0  0  0  0  0  0  0  0  0  0  0  0
   -2.3402   -1.2221    0.0000 C   0  0  0  0  0  0  0  0  0  0  0  0
   -2.8448    0.3320    0.0000 C   0  0  0  0  0  0  0  0  0  0  0  0
   -4.0107   -0.6118    0.0000 C   0  0  0  0  0  0  0  0  0  0  0  0
   -3.7763   -2.0934    0.0000 O   0  0  0  0  0  0  0  0  0  0  0  0
   -5.4110   -0.0741    0.0000 C   0  0  0  0  0  0  0  0  0  0  0  0
   -5.6454    1.4075    0.0000 O   0  0  0  0  0  0  0  0  0  0  0  0
   -6.5769   -1.0179    0.0000 C   0  0  0  0  0  0  0  0  0  0  0  0
   -7.9772   -0.4801    0.0000 O   0  0  0  0  0  0  0  0  0  0  0  0
   -2.9231    1.8299    0.0000 C   0  0  0  0  0  0  0  0  0  0  0  0
   -1.5227    2.3673    0.0000 C   0  0  0  0  0  0  0  0  0  0  0  0
   -0.5789    1.2014    0.0000 C   0  0  0  0  0  0  0  0  0  0  0  0
  2  1  1  1
  2  3  1  0
  3  4  1  0
  4  5  1  0
  5  6  2  0
  5  7  1  0
  8  7  1  6
  8  9  1  0
  9 10  1  0
 11 10  1  6
 11 12  1  0
 12 13  1  1
 13 14  1  0
 14 15  1  0
 15 16  1  1
 15 17  1  0
 17 18  1  0
 18 19  1  1
 18 20  1  0
 20 21  2  0
 20 22  1  0
 22 23  1  0
 17 24  1  1
 24 25  1  0
 26 25  1  1
  8  2  1  0
 26 11  1  0
 12  2  1  0
 26 15  1  0
M  END
>  <MS_ID>  (3333) 
MS3473

>  <SMILES>  (3333) 
C[C@]12CCC(=O)C[C@H]1CC[C@@H]1[C@@H]2CC[C@]2(C)[C@@H]([C@@H](O)C(=O)CO)CC[C@@H]12

>  <Structure_dimension>  (3333) 
2D

$$$$
MS3474
     RDKit          2D

 28 31  0  0  0  0  0  0  0  0999 V2000
   -7.1516    2.9851    0.0000 C   0  0  0  0  0  0  0  0  0  0  0  0
   -5.7600    2.4252    0.0000 C   0  0  0  0  0  0  0  0  0  0  0  0
   -4.5793    3.3503    0.0000 O   0  0  0  0  0  0  0  0  0  0  0  0
   -5.5492    0.9401    0.0000 C   0  0  0  0  0  0  0  0  0  0  0  0
   -4.1576    0.3801    0.0000 C   0  0  0  0  0  0  0  0  0  0  0  0
   -3.9468   -1.1050    0.0000 C   0  0  0  0  0  0  0  0  0  0  0  0
   -5.1275   -2.0302    0.0000 C   0  0  0  0  0  0  0  0  0  0  0  0
   -2.5552   -1.6650    0.0000 C   0  0  0  0  0  0  0  0  0  0  0  0
   -2.1903   -3.1199    0.0000 C   0  0  0  0  0  0  0  0  0  0  0  0
   -0.6938   -3.2225    0.0000 C   0  0  0  0  0  0  0  0  0  0  0  0
   -0.1339   -1.8309    0.0000 C   0  0  0  0  0  0  0  0  0  0  0  0
    1.2750   -1.3159    0.0000 C   0  0  0  0  0  0  0  0  0  0  0  0
    2.4254   -2.2785    0.0000 C   0  0  0  0  0  0  0  0  0  0  0  0
    2.1670   -3.7560    0.0000 O   0  0  0  0  0  0  0  0  0  0  0  0
    3.8342   -1.7635    0.0000 C   0  0  0  0  0  0  0  0  0  0  0  0
    4.0926   -0.2859    0.0000 C   0  0  0  0  0  0  0  0  0  0  0  0
    5.5014    0.2291    0.0000 C   0  0  0  0  0  0  0  0  0  0  0  0
    5.7598    1.7067    0.0000 C   0  0  0  0  0  0  0  0  0  0  0  0
    7.1687    2.2217    0.0000 O   0  0  0  0  0  0  0  0  0  0  0  0
    4.6094    2.6692    0.0000 C   0  0  0  0  0  0  0  0  0  0  0  0
    3.2006    2.1542    0.0000 C   0  0  0  0  0  0  0  0  0  0  0  0
    2.9422    0.6767    0.0000 C   0  0  0  0  0  0  0  0  0  0  0  0
    1.7918    1.6392    0.0000 C   0  0  0  0  0  0  0  0  0  0  0  0
    1.5334    0.1617    0.0000 C   0  0  0  0  0  0  0  0  0  0  0  0
    0.3830    1.1242    0.0000 C   0  0  0  0  0  0  0  0  0  0  0  0
   -1.0259    0.6093    0.0000 C   0  0  0  0  0  0  0  0  0  0  0  0
   -1.2843   -0.8683    0.0000 C   0  0  0  0  0  0  0  0  0  0  0  0
   -2.5290   -0.0313    0.0000 C   0  0  0  0  0  0  0  0  0  0  0  0
  2  1  1  6
  2  3  1  0
  2  4  1  0
  4  5  1  0
  5  6  1  0
  6  7  1  6
  6  8  1  0
  8  9  1  6
  9 10  1  0
 11 10  1  6
 11 12  1  0
 12 13  1  1
 13 14  1  6
 13 15  1  0
 16 15  1  1
 16 17  1  0
 17 18  1  0
 18 19  1  1
 18 20  1  0
 20 21  1  0
 21 22  1  0
 22 23  1  6
 22 24  1  0
 24 25  1  6
 25 26  1  0
 26 27  1  0
 27 28  1  6
 27  8  1  0
 27 11  1  0
 24 12  1  0
 22 16  1  0
M  END
>  <MS_ID>  (3334) 
MS3474

>  <SMILES>  (3334) 
C[C@H](O)CC[C@@H](C)[C@H]1CC[C@H]2[C@@H]3[C@@H](O)C[C@@H]4C[C@H](O)CC[C@]4(C)[C@H]3CC[C@]12C

>  <Structure_dimension>  (3334) 
2D

$$$$
MS3475
     RDKit          2D

 28 31  0  0  0  0  0  0  0  0999 V2000
   -5.1275   -2.0302    0.0000 C   0  0  0  0  0  0  0  0  0  0  0  0
   -3.9468   -1.1050    0.0000 C   0  0  0  0  0  0  0  0  0  0  0  0
   -4.1576    0.3801    0.0000 C   0  0  0  0  0  0  0  0  0  0  0  0
   -5.5492    0.9401    0.0000 C   0  0  0  0  0  0  0  0  0  0  0  0
   -5.7600    2.4252    0.0000 C   0  0  0  0  0  0  0  0  0  0  0  0
   -4.5793    3.3503    0.0000 O   0  0  0  0  0  0  0  0  0  0  0  0
   -7.1516    2.9851    0.0000 O   0  0  0  0  0  0  0  0  0  0  0  0
   -2.5552   -1.6650    0.0000 C   0  0  0  0  0  0  0  0  0  0  0  0
   -2.1903   -3.1199    0.0000 C   0  0  0  0  0  0  0  0  0  0  0  0
   -0.6938   -3.2225    0.0000 C   0  0  0  0  0  0  0  0  0  0  0  0
   -0.1339   -1.8309    0.0000 C   0  0  0  0  0  0  0  0  0  0  0  0
    1.2750   -1.3159    0.0000 C   0  0  0  0  0  0  0  0  0  0  0  0
    2.4254   -2.2785    0.0000 C   0  0  0  0  0  0  0  0  0  0  0  0
    2.1670   -3.7560    0.0000 O   0  0  0  0  0  0  0  0  0  0  0  0
    3.8342   -1.7635    0.0000 C   0  0  0  0  0  0  0  0  0  0  0  0
    4.0926   -0.2859    0.0000 C   0  0  0  0  0  0  0  0  0  0  0  0
    5.5014    0.2291    0.0000 C   0  0  0  0  0  0  0  0  0  0  0  0
    5.7598    1.7067    0.0000 C   0  0  0  0  0  0  0  0  0  0  0  0
    7.1687    2.2217    0.0000 O   0  0  0  0  0  0  0  0  0  0  0  0
    4.6094    2.6692    0.0000 C   0  0  0  0  0  0  0  0  0  0  0  0
    3.2006    2.1542    0.0000 C   0  0  0  0  0  0  0  0  0  0  0  0
    2.9422    0.6767    0.0000 C   0  0  0  0  0  0  0  0  0  0  0  0
    1.7918    1.6392    0.0000 C   0  0  0  0  0  0  0  0  0  0  0  0
    1.5334    0.1617    0.0000 C   0  0  0  0  0  0  0  0  0  0  0  0
    0.3830    1.1242    0.0000 C   0  0  0  0  0  0  0  0  0  0  0  0
   -1.0259    0.6093    0.0000 C   0  0  0  0  0  0  0  0  0  0  0  0
   -1.2843   -0.8683    0.0000 C   0  0  0  0  0  0  0  0  0  0  0  0
   -2.5290   -0.0313    0.0000 F   0  0  0  0  0  0  0  0  0  0  0  0
  2  1  1  6
  2  3  1  0
  3  4  1  0
  4  5  1  0
  5  6  2  0
  5  7  1  0
  2  8  1  0
  8  9  1  6
  9 10  1  0
 11 10  1  6
 11 12  1  0
 12 13  1  1
 13 14  1  6
 13 15  1  0
 16 15  1  1
 16 17  1  0
 17 18  1  0
 18 19  1  1
 18 20  1  0
 20 21  1  0
 21 22  1  0
 22 23  1  6
 22 24  1  0
 24 25  1  6
 25 26  1  0
 26 27  1  0
 27 28  1  6
 27  8  1  0
 27 11  1  0
 24 12  1  0
 22 16  1  0
M  END
>  <MS_ID>  (3335) 
MS3475

>  <SMILES>  (3335) 
C[C@H](CCC(=O)O)[C@H]1CC[C@H]2[C@@H]3[C@@H](O)C[C@@H]4C[C@H](O)CC[C@]4(C)[C@H]3CC[C@]12F

>  <Structure_dimension>  (3335) 
2D

$$$$
MS3476
     RDKit          2D

 28 31  0  0  0  0  0  0  0  0999 V2000
   -5.1275   -2.0302    0.0000 C   0  0  0  0  0  0  0  0  0  0  0  0
   -3.9468   -1.1050    0.0000 C   0  0  0  0  0  0  0  0  0  0  0  0
   -4.1576    0.3801    0.0000 C   0  0  0  0  0  0  0  0  0  0  0  0
   -5.5492    0.9401    0.0000 C   0  0  0  0  0  0  0  0  0  0  0  0
   -5.7600    2.4252    0.0000 C   0  0  0  0  0  0  0  0  0  0  0  0
   -4.5793    3.3503    0.0000 O   0  0  0  0  0  0  0  0  0  0  0  0
   -7.1516    2.9851    0.0000 O   0  0  0  0  0  0  0  0  0  0  0  0
   -2.5552   -1.6650    0.0000 C   0  0  0  0  0  0  0  0  0  0  0  0
   -2.1903   -3.1199    0.0000 C   0  0  0  0  0  0  0  0  0  0  0  0
   -0.6938   -3.2225    0.0000 C   0  0  0  0  0  0  0  0  0  0  0  0
   -0.1339   -1.8309    0.0000 C   0  0  0  0  0  0  0  0  0  0  0  0
    1.2750   -1.3159    0.0000 C   0  0  0  0  0  0  0  0  0  0  0  0
    2.4254   -2.2785    0.0000 C   0  0  0  0  0  0  0  0  0  0  0  0
    2.1670   -3.7560    0.0000 O   0  0  0  0  0  0  0  0  0  0  0  0
    3.8342   -1.7635    0.0000 C   0  0  0  0  0  0  0  0  0  0  0  0
    4.0926   -0.2859    0.0000 C   0  0  0  0  0  0  0  0  0  0  0  0
    5.5014    0.2291    0.0000 C   0  0  0  0  0  0  0  0  0  0  0  0
    5.7598    1.7067    0.0000 C   0  0  0  0  0  0  0  0  0  0  0  0
    7.1687    2.2217    0.0000 O   0  0  0  0  0  0  0  0  0  0  0  0
    4.6094    2.6692    0.0000 C   0  0  0  0  0  0  0  0  0  0  0  0
    3.2006    2.1542    0.0000 C   0  0  0  0  0  0  0  0  0  0  0  0
    2.9422    0.6767    0.0000 C   0  0  0  0  0  0  0  0  0  0  0  0
    1.7918    1.6392    0.0000 C   0  0  0  0  0  0  0  0  0  0  0  0
    1.5334    0.1617    0.0000 C   0  0  0  0  0  0  0  0  0  0  0  0
    0.3830    1.1242    0.0000 C   0  0  0  0  0  0  0  0  0  0  0  0
   -1.0259    0.6093    0.0000 C   0  0  0  0  0  0  0  0  0  0  0  0
   -1.2843   -0.8683    0.0000 C   0  0  0  0  0  0  0  0  0  0  0  0
   -2.5290   -0.0313    0.0000 Cl  0  0  0  0  0  0  0  0  0  0  0  0
  2  1  1  6
  2  3  1  0
  3  4  1  0
  4  5  1  0
  5  6  2  0
  5  7  1  0
  2  8  1  0
  8  9  1  6
  9 10  1  0
 11 10  1  6
 11 12  1  0
 12 13  1  1
 13 14  1  6
 13 15  1  0
 16 15  1  1
 16 17  1  0
 17 18  1  0
 18 19  1  1
 18 20  1  0
 20 21  1  0
 21 22  1  0
 22 23  1  6
 22 24  1  0
 24 25  1  6
 25 26  1  0
 26 27  1  0
 27 28  1  6
 27  8  1  0
 27 11  1  0
 24 12  1  0
 22 16  1  0
M  END
>  <MS_ID>  (3336) 
MS3476

>  <SMILES>  (3336) 
C[C@H](CCC(=O)O)[C@H]1CC[C@H]2[C@@H]3[C@@H](O)C[C@@H]4C[C@H](O)CC[C@]4(C)[C@H]3CC[C@]12Cl

>  <Structure_dimension>  (3336) 
2D

$$$$
MS3477
     RDKit          2D

 31 34  0  0  0  0  0  0  0  0999 V2000
   -4.6404   -2.6133    0.0000 C   0  0  0  0  0  0  0  0  0  0  0  0
   -3.5290   -1.6060    0.0000 C   0  0  0  0  0  0  0  0  0  0  0  0
   -3.8457   -0.1398    0.0000 C   0  0  0  0  0  0  0  0  0  0  0  0
   -5.2738    0.3191    0.0000 C   0  0  0  0  0  0  0  0  0  0  0  0
   -5.5904    1.7853    0.0000 C   0  0  0  0  0  0  0  0  0  0  0  0
   -4.4790    2.7926    0.0000 O   0  0  0  0  0  0  0  0  0  0  0  0
   -7.0185    2.2441    0.0000 O   0  0  0  0  0  0  0  0  0  0  0  0
   -2.1009   -2.0648    0.0000 C   0  0  0  0  0  0  0  0  0  0  0  0
   -1.6327   -3.4899    0.0000 C   0  0  0  0  0  0  0  0  0  0  0  0
   -0.1327   -3.4850    0.0000 C   0  0  0  0  0  0  0  0  0  0  0  0
    0.3261   -2.0569    0.0000 C   0  0  0  0  0  0  0  0  0  0  0  0
    1.6944   -1.4423    0.0000 C   0  0  0  0  0  0  0  0  0  0  0  0
    2.9108   -2.3200    0.0000 C   0  0  0  0  0  0  0  0  0  0  0  0
    2.7589   -3.8123    0.0000 O   0  0  0  0  0  0  0  0  0  0  0  0
    4.2792   -1.7054    0.0000 C   0  0  0  0  0  0  0  0  0  0  0  0
    4.4311   -0.2132    0.0000 C   0  0  0  0  0  0  0  0  0  0  0  0
    5.7994    0.4014    0.0000 C   0  0  0  0  0  0  0  0  0  0  0  0
    5.9513    1.8937    0.0000 C   0  0  0  0  0  0  0  0  0  0  0  0
    7.3196    2.5083    0.0000 O   0  0  0  0  0  0  0  0  0  0  0  0
    4.7349    2.7714    0.0000 C   0  0  0  0  0  0  0  0  0  0  0  0
    3.3666    2.1568    0.0000 C   0  0  0  0  0  0  0  0  0  0  0  0
    3.2147    0.6646    0.0000 C   0  0  0  0  0  0  0  0  0  0  0  0
    1.9983    1.5423    0.0000 C   0  0  0  0  0  0  0  0  0  0  0  0
    1.8463    0.0500    0.0000 C   0  0  0  0  0  0  0  0  0  0  0  0
    0.6299    0.9277    0.0000 C   0  0  0  0  0  0  0  0  0  0  0  0
   -0.7384    0.3131    0.0000 C   0  0  0  0  0  0  0  0  0  0  0  0
   -0.8903   -1.1792    0.0000 C   0  0  0  0  0  0  0  0  0  0  0  0
   -2.1918   -0.4334    0.0000 S   0  0  0  0  0  0  0  0  0  0  0  0
   -2.1967    1.0666    0.0000 C   0  0  0  0  0  0  0  0  0  0  0  0
   -3.4982    1.8123    0.0000 C   0  0  0  0  0  0  0  0  0  0  0  0
   -3.5031    3.3123    0.0000 N   0  0  0  0  0  0  0  0  0  0  0  0
  2  1  1  6
  2  3  1  0
  3  4  1  0
  4  5  1  0
  5  6  2  0
  5  7  1  0
  2  8  1  0
  8  9  1  6
  9 10  1  0
 11 10  1  6
 11 12  1  0
 12 13  1  1
 13 14  1  6
 13 15  1  0
 16 15  1  1
 16 17  1  0
 17 18  1  0
 18 19  1  1
 18 20  1  0
 20 21  1  0
 21 22  1  0
 22 23  1  6
 22 24  1  0
 24 25  1  6
 25 26  1  0
 26 27  1  0
 27 28  1  6
 28 29  1  0
 29 30  1  0
 30 31  1  0
 27  8  1  0
 27 11  1  0
 24 12  1  0
 22 16  1  0
M  END
>  <MS_ID>  (3337) 
MS3477

>  <SMILES>  (3337) 
C[C@H](CCC(=O)O)[C@H]1CC[C@H]2[C@@H]3[C@@H](O)C[C@@H]4C[C@H](O)CC[C@]4(C)[C@H]3CC[C@]12SCCN

>  <Structure_dimension>  (3337) 
2D

$$$$
MS3478
     RDKit          2D

 29 32  0  0  0  0  0  0  0  0999 V2000
   -5.0209   -2.1353    0.0000 C   0  0  0  0  0  0  0  0  0  0  0  0
   -3.8503   -1.1974    0.0000 C   0  0  0  0  0  0  0  0  0  0  0  0
   -4.0773    0.2853    0.0000 C   0  0  0  0  0  0  0  0  0  0  0  0
   -5.4749    0.8301    0.0000 C   0  0  0  0  0  0  0  0  0  0  0  0
   -5.7018    2.3129    0.0000 C   0  0  0  0  0  0  0  0  0  0  0  0
   -4.5312    3.2508    0.0000 O   0  0  0  0  0  0  0  0  0  0  0  0
   -7.0994    2.8577    0.0000 O   0  0  0  0  0  0  0  0  0  0  0  0
   -2.4528   -1.7422    0.0000 C   0  0  0  0  0  0  0  0  0  0  0  0
   -2.0721   -3.1931    0.0000 C   0  0  0  0  0  0  0  0  0  0  0  0
   -0.5746   -3.2794    0.0000 C   0  0  0  0  0  0  0  0  0  0  0  0
   -0.0298   -1.8819    0.0000 C   0  0  0  0  0  0  0  0  0  0  0  0
    1.3734   -1.3516    0.0000 C   0  0  0  0  0  0  0  0  0  0  0  0
    2.5342   -2.3016    0.0000 C   0  0  0  0  0  0  0  0  0  0  0  0
    2.2918   -3.7819    0.0000 O   0  0  0  0  0  0  0  0  0  0  0  0
    3.9373   -1.7713    0.0000 C   0  0  0  0  0  0  0  0  0  0  0  0
    4.1797   -0.2911    0.0000 C   0  0  0  0  0  0  0  0  0  0  0  0
    5.5828    0.2392    0.0000 C   0  0  0  0  0  0  0  0  0  0  0  0
    5.8252    1.7195    0.0000 C   0  0  0  0  0  0  0  0  0  0  0  0
    7.2283    2.2498    0.0000 O   0  0  0  0  0  0  0  0  0  0  0  0
    4.6644    2.6695    0.0000 C   0  0  0  0  0  0  0  0  0  0  0  0
    3.2612    2.1393    0.0000 C   0  0  0  0  0  0  0  0  0  0  0  0
    3.0189    0.6590    0.0000 C   0  0  0  0  0  0  0  0  0  0  0  0
    1.8581    1.6090    0.0000 C   0  0  0  0  0  0  0  0  0  0  0  0
    1.6157    0.1287    0.0000 C   0  0  0  0  0  0  0  0  0  0  0  0
    0.4549    1.0787    0.0000 C   0  0  0  0  0  0  0  0  0  0  0  0
   -0.9482    0.5485    0.0000 C   0  0  0  0  0  0  0  0  0  0  0  0
   -1.1905   -0.9318    0.0000 C   0  0  0  0  0  0  0  0  0  0  0  0
   -2.4443   -0.1083    0.0000 O   0  0  0  0  0  0  0  0  0  0  0  0
   -2.3580    1.3892    0.0000 O   0  0  0  0  0  0  0  0  0  0  0  0
  2  1  1  6
  2  3  1  0
  3  4  1  0
  4  5  1  0
  5  6  2  0
  5  7  1  0
  2  8  1  0
  8  9  1  6
  9 10  1  0
 11 10  1  6
 11 12  1  0
 12 13  1  1
 13 14  1  6
 13 15  1  0
 16 15  1  1
 16 17  1  0
 17 18  1  0
 18 19  1  1
 18 20  1  0
 20 21  1  0
 21 22  1  0
 22 23  1  6
 22 24  1  0
 24 25  1  6
 25 26  1  0
 26 27  1  0
 27 28  1  6
 28 29  1  0
 27  8  1  0
 27 11  1  0
 24 12  1  0
 22 16  1  0
M  END
>  <MS_ID>  (3338) 
MS3478

>  <SMILES>  (3338) 
C[C@H](CCC(=O)O)[C@H]1CC[C@H]2[C@@H]3[C@@H](O)C[C@@H]4C[C@H](O)CC[C@]4(C)[C@H]3CC[C@]12OO

>  <Structure_dimension>  (3338) 
2D

$$$$
MS3479
     RDKit          2D

 28 31  0  0  0  0  0  0  0  0999 V2000
   -5.1275   -2.0302    0.0000 C   0  0  0  0  0  0  0  0  0  0  0  0
   -3.9468   -1.1050    0.0000 C   0  0  0  0  0  0  0  0  0  0  0  0
   -4.1576    0.3801    0.0000 C   0  0  0  0  0  0  0  0  0  0  0  0
   -5.5492    0.9401    0.0000 C   0  0  0  0  0  0  0  0  0  0  0  0
   -5.7600    2.4252    0.0000 C   0  0  0  0  0  0  0  0  0  0  0  0
   -4.5793    3.3503    0.0000 O   0  0  0  0  0  0  0  0  0  0  0  0
   -7.1516    2.9851    0.0000 O   0  0  0  0  0  0  0  0  0  0  0  0
   -2.5552   -1.6650    0.0000 C   0  0  0  0  0  0  0  0  0  0  0  0
   -2.1903   -3.1199    0.0000 C   0  0  0  0  0  0  0  0  0  0  0  0
   -0.6938   -3.2225    0.0000 C   0  0  0  0  0  0  0  0  0  0  0  0
   -0.1339   -1.8309    0.0000 C   0  0  0  0  0  0  0  0  0  0  0  0
    1.2750   -1.3159    0.0000 C   0  0  0  0  0  0  0  0  0  0  0  0
    2.4254   -2.2785    0.0000 C   0  0  0  0  0  0  0  0  0  0  0  0
    2.1670   -3.7560    0.0000 O   0  0  0  0  0  0  0  0  0  0  0  0
    3.8342   -1.7635    0.0000 C   0  0  0  0  0  0  0  0  0  0  0  0
    4.0926   -0.2859    0.0000 C   0  0  0  0  0  0  0  0  0  0  0  0
    5.5014    0.2291    0.0000 C   0  0  0  0  0  0  0  0  0  0  0  0
    5.7598    1.7067    0.0000 C   0  0  0  0  0  0  0  0  0  0  0  0
    7.1687    2.2217    0.0000 O   0  0  0  0  0  0  0  0  0  0  0  0
    4.6094    2.6692    0.0000 C   0  0  0  0  0  0  0  0  0  0  0  0
    3.2006    2.1542    0.0000 C   0  0  0  0  0  0  0  0  0  0  0  0
    2.9422    0.6767    0.0000 C   0  0  0  0  0  0  0  0  0  0  0  0
    1.7918    1.6392    0.0000 C   0  0  0  0  0  0  0  0  0  0  0  0
    1.5334    0.1617    0.0000 C   0  0  0  0  0  0  0  0  0  0  0  0
    0.3830    1.1242    0.0000 C   0  0  0  0  0  0  0  0  0  0  0  0
   -1.0259    0.6093    0.0000 C   0  0  0  0  0  0  0  0  0  0  0  0
   -1.2843   -0.8683    0.0000 C   0  0  0  0  0  0  0  0  0  0  0  0
   -2.5290   -0.0313    0.0000 N   0  0  0  0  0  0  0  0  0  0  0  0
  2  1  1  6
  2  3  1  0
  3  4  1  0
  4  5  1  0
  5  6  2  0
  5  7  1  0
  2  8  1  0
  8  9  1  6
  9 10  1  0
 11 10  1  6
 11 12  1  0
 12 13  1  1
 13 14  1  6
 13 15  1  0
 16 15  1  1
 16 17  1  0
 17 18  1  0
 18 19  1  1
 18 20  1  0
 20 21  1  0
 21 22  1  0
 22 23  1  6
 22 24  1  0
 24 25  1  6
 25 26  1  0
 26 27  1  0
 27 28  1  6
 27  8  1  0
 27 11  1  0
 24 12  1  0
 22 16  1  0
M  END
>  <MS_ID>  (3339) 
MS3479

>  <SMILES>  (3339) 
C[C@H](CCC(=O)O)[C@H]1CC[C@H]2[C@@H]3[C@@H](O)C[C@@H]4C[C@H](O)CC[C@]4(C)[C@H]3CC[C@]12N

>  <Structure_dimension>  (3339) 
2D

$$$$
MS3480
     RDKit          2D

 28 31  0  0  0  0  0  0  0  0999 V2000
   -5.1275   -2.0302    0.0000 C   0  0  0  0  0  0  0  0  0  0  0  0
   -3.9468   -1.1050    0.0000 C   0  0  0  0  0  0  0  0  0  0  0  0
   -4.1576    0.3801    0.0000 C   0  0  0  0  0  0  0  0  0  0  0  0
   -5.5492    0.9401    0.0000 C   0  0  0  0  0  0  0  0  0  0  0  0
   -5.7600    2.4252    0.0000 C   0  0  0  0  0  0  0  0  0  0  0  0
   -4.5793    3.3503    0.0000 O   0  0  0  0  0  0  0  0  0  0  0  0
   -7.1516    2.9851    0.0000 O   0  0  0  0  0  0  0  0  0  0  0  0
   -2.5552   -1.6650    0.0000 C   0  0  0  0  0  0  0  0  0  0  0  0
   -2.1903   -3.1199    0.0000 C   0  0  0  0  0  0  0  0  0  0  0  0
   -0.6938   -3.2225    0.0000 C   0  0  0  0  0  0  0  0  0  0  0  0
   -0.1339   -1.8309    0.0000 C   0  0  0  0  0  0  0  0  0  0  0  0
    1.2750   -1.3159    0.0000 C   0  0  0  0  0  0  0  0  0  0  0  0
    2.4254   -2.2785    0.0000 C   0  0  0  0  0  0  0  0  0  0  0  0
    2.1670   -3.7560    0.0000 O   0  0  0  0  0  0  0  0  0  0  0  0
    3.8342   -1.7635    0.0000 C   0  0  0  0  0  0  0  0  0  0  0  0
    4.0926   -0.2859    0.0000 C   0  0  0  0  0  0  0  0  0  0  0  0
    5.5014    0.2291    0.0000 C   0  0  0  0  0  0  0  0  0  0  0  0
    5.7598    1.7067    0.0000 C   0  0  0  0  0  0  0  0  0  0  0  0
    7.1687    2.2217    0.0000 O   0  0  0  0  0  0  0  0  0  0  0  0
    4.6094    2.6692    0.0000 C   0  0  0  0  0  0  0  0  0  0  0  0
    3.2006    2.1542    0.0000 C   0  0  0  0  0  0  0  0  0  0  0  0
    2.9422    0.6767    0.0000 C   0  0  0  0  0  0  0  0  0  0  0  0
    1.7918    1.6392    0.0000 C   0  0  0  0  0  0  0  0  0  0  0  0
    1.5334    0.1617    0.0000 C   0  0  0  0  0  0  0  0  0  0  0  0
    0.3830    1.1242    0.0000 C   0  0  0  0  0  0  0  0  0  0  0  0
   -1.0259    0.6093    0.0000 C   0  0  0  0  0  0  0  0  0  0  0  0
   -1.2843   -0.8683    0.0000 C   0  0  0  0  0  0  0  0  0  0  0  0
   -2.5290   -0.0313    0.0000 S   0  0  0  0  0  0  0  0  0  0  0  0
  2  1  1  6
  2  3  1  0
  3  4  1  0
  4  5  1  0
  5  6  2  0
  5  7  1  0
  2  8  1  0
  8  9  1  6
  9 10  1  0
 11 10  1  6
 11 12  1  0
 12 13  1  1
 13 14  1  6
 13 15  1  0
 16 15  1  1
 16 17  1  0
 17 18  1  0
 18 19  1  1
 18 20  1  0
 20 21  1  0
 21 22  1  0
 22 23  1  6
 22 24  1  0
 24 25  1  6
 25 26  1  0
 26 27  1  0
 27 28  1  6
 27  8  1  0
 27 11  1  0
 24 12  1  0
 22 16  1  0
M  END
>  <MS_ID>  (3340) 
MS3480

>  <SMILES>  (3340) 
C[C@H](CCC(=O)O)[C@H]1CC[C@H]2[C@@H]3[C@@H](O)C[C@@H]4C[C@H](O)CC[C@]4(C)[C@H]3CC[C@]12S

>  <Structure_dimension>  (3340) 
2D

$$$$
MS3481
     RDKit          2D

 31 34  0  0  0  0  0  0  0  0999 V2000
   -4.6404   -2.6133    0.0000 C   0  0  0  0  0  0  0  0  0  0  0  0
   -3.5290   -1.6060    0.0000 C   0  0  0  0  0  0  0  0  0  0  0  0
   -3.8457   -0.1398    0.0000 C   0  0  0  0  0  0  0  0  0  0  0  0
   -5.2738    0.3191    0.0000 C   0  0  0  0  0  0  0  0  0  0  0  0
   -5.5904    1.7853    0.0000 C   0  0  0  0  0  0  0  0  0  0  0  0
   -4.4790    2.7926    0.0000 O   0  0  0  0  0  0  0  0  0  0  0  0
   -7.0185    2.2441    0.0000 O   0  0  0  0  0  0  0  0  0  0  0  0
   -2.1009   -2.0648    0.0000 C   0  0  0  0  0  0  0  0  0  0  0  0
   -1.6327   -3.4899    0.0000 C   0  0  0  0  0  0  0  0  0  0  0  0
   -0.1327   -3.4850    0.0000 C   0  0  0  0  0  0  0  0  0  0  0  0
    0.3261   -2.0569    0.0000 C   0  0  0  0  0  0  0  0  0  0  0  0
    1.6944   -1.4423    0.0000 C   0  0  0  0  0  0  0  0  0  0  0  0
    2.9108   -2.3200    0.0000 C   0  0  0  0  0  0  0  0  0  0  0  0
    2.7589   -3.8123    0.0000 O   0  0  0  0  0  0  0  0  0  0  0  0
    4.2792   -1.7054    0.0000 C   0  0  0  0  0  0  0  0  0  0  0  0
    4.4311   -0.2132    0.0000 C   0  0  0  0  0  0  0  0  0  0  0  0
    5.7994    0.4014    0.0000 C   0  0  0  0  0  0  0  0  0  0  0  0
    5.9513    1.8937    0.0000 C   0  0  0  0  0  0  0  0  0  0  0  0
    7.3196    2.5083    0.0000 O   0  0  0  0  0  0  0  0  0  0  0  0
    4.7349    2.7714    0.0000 C   0  0  0  0  0  0  0  0  0  0  0  0
    3.3666    2.1568    0.0000 C   0  0  0  0  0  0  0  0  0  0  0  0
    3.2147    0.6646    0.0000 C   0  0  0  0  0  0  0  0  0  0  0  0
    1.9983    1.5423    0.0000 C   0  0  0  0  0  0  0  0  0  0  0  0
    1.8463    0.0500    0.0000 C   0  0  0  0  0  0  0  0  0  0  0  0
    0.6299    0.9277    0.0000 C   0  0  0  0  0  0  0  0  0  0  0  0
   -0.7384    0.3131    0.0000 C   0  0  0  0  0  0  0  0  0  0  0  0
   -0.8903   -1.1792    0.0000 C   0  0  0  0  0  0  0  0  0  0  0  0
   -2.1918   -0.4334    0.0000 O   0  0  0  0  0  0  0  0  0  0  0  0
   -2.1967    1.0666    0.0000 C   0  0  0  0  0  0  0  0  0  0  0  0
   -3.4982    1.8123    0.0000 C   0  0  0  0  0  0  0  0  0  0  0  0
   -3.5031    3.3123    0.0000 O   0  0  0  0  0  0  0  0  0  0  0  0
  2  1  1  6
  2  3  1  0
  3  4  1  0
  4  5  1  0
  5  6  2  0
  5  7  1  0
  2  8  1  0
  8  9  1  6
  9 10  1  0
 11 10  1  6
 11 12  1  0
 12 13  1  1
 13 14  1  6
 13 15  1  0
 16 15  1  1
 16 17  1  0
 17 18  1  0
 18 19  1  1
 18 20  1  0
 20 21  1  0
 21 22  1  0
 22 23  1  6
 22 24  1  0
 24 25  1  6
 25 26  1  0
 26 27  1  0
 27 28  1  6
 28 29  1  0
 29 30  1  0
 30 31  1  0
 27  8  1  0
 27 11  1  0
 24 12  1  0
 22 16  1  0
M  END
>  <MS_ID>  (3341) 
MS3481

>  <SMILES>  (3341) 
C[C@H](CCC(=O)O)[C@H]1CC[C@H]2[C@@H]3[C@@H](O)C[C@@H]4C[C@H](O)CC[C@]4(C)[C@H]3CC[C@]12OCCO

>  <Structure_dimension>  (3341) 
2D

$$$$
MS3482
     RDKit          2D

 28 31  0  0  0  0  0  0  0  0999 V2000
   -5.1275   -2.0302    0.0000 C   0  0  0  0  0  0  0  0  0  0  0  0
   -3.9468   -1.1050    0.0000 C   0  0  0  0  0  0  0  0  0  0  0  0
   -4.1576    0.3801    0.0000 C   0  0  0  0  0  0  0  0  0  0  0  0
   -5.5492    0.9401    0.0000 C   0  0  0  0  0  0  0  0  0  0  0  0
   -5.7600    2.4252    0.0000 C   0  0  0  0  0  0  0  0  0  0  0  0
   -4.5793    3.3503    0.0000 O   0  0  0  0  0  0  0  0  0  0  0  0
   -7.1516    2.9851    0.0000 O   0  0  0  0  0  0  0  0  0  0  0  0
   -2.5552   -1.6650    0.0000 C   0  0  0  0  0  0  0  0  0  0  0  0
   -2.1903   -3.1199    0.0000 C   0  0  0  0  0  0  0  0  0  0  0  0
   -0.6938   -3.2225    0.0000 C   0  0  0  0  0  0  0  0  0  0  0  0
   -0.1339   -1.8309    0.0000 C   0  0  0  0  0  0  0  0  0  0  0  0
    1.2750   -1.3159    0.0000 C   0  0  0  0  0  0  0  0  0  0  0  0
    2.4254   -2.2785    0.0000 C   0  0  0  0  0  0  0  0  0  0  0  0
    2.1670   -3.7560    0.0000 O   0  0  0  0  0  0  0  0  0  0  0  0
    3.8342   -1.7635    0.0000 C   0  0  0  0  0  0  0  0  0  0  0  0
    4.0926   -0.2859    0.0000 C   0  0  0  0  0  0  0  0  0  0  0  0
    5.5014    0.2291    0.0000 C   0  0  0  0  0  0  0  0  0  0  0  0
    5.7598    1.7067    0.0000 C   0  0  0  0  0  0  0  0  0  0  0  0
    7.1687    2.2217    0.0000 O   0  0  0  0  0  0  0  0  0  0  0  0
    4.6094    2.6692    0.0000 C   0  0  0  0  0  0  0  0  0  0  0  0
    3.2006    2.1542    0.0000 C   0  0  0  0  0  0  0  0  0  0  0  0
    2.9422    0.6767    0.0000 C   0  0  0  0  0  0  0  0  0  0  0  0
    1.7918    1.6392    0.0000 C   0  0  0  0  0  0  0  0  0  0  0  0
    1.5334    0.1617    0.0000 C   0  0  0  0  0  0  0  0  0  0  0  0
    0.3830    1.1242    0.0000 C   0  0  0  0  0  0  0  0  0  0  0  0
   -1.0259    0.6093    0.0000 C   0  0  0  0  0  0  0  0  0  0  0  0
   -1.2843   -0.8683    0.0000 C   0  0  0  0  0  0  0  0  0  0  0  0
   -2.5290   -0.0313    0.0000 Br  0  0  0  0  0  0  0  0  0  0  0  0
  2  1  1  6
  2  3  1  0
  3  4  1  0
  4  5  1  0
  5  6  2  0
  5  7  1  0
  2  8  1  0
  8  9  1  6
  9 10  1  0
 11 10  1  6
 11 12  1  0
 12 13  1  1
 13 14  1  6
 13 15  1  0
 16 15  1  1
 16 17  1  0
 17 18  1  0
 18 19  1  1
 18 20  1  0
 20 21  1  0
 21 22  1  0
 22 23  1  6
 22 24  1  0
 24 25  1  6
 25 26  1  0
 26 27  1  0
 27 28  1  6
 27  8  1  0
 27 11  1  0
 24 12  1  0
 22 16  1  0
M  END
>  <MS_ID>  (3342) 
MS3482

>  <SMILES>  (3342) 
C[C@H](CCC(=O)O)[C@H]1CC[C@H]2[C@@H]3[C@@H](O)C[C@@H]4C[C@H](O)CC[C@]4(C)[C@H]3CC[C@]12Br

>  <Structure_dimension>  (3342) 
2D

$$$$
MS3483
     RDKit          2D

 30 33  0  0  0  0  0  0  0  0999 V2000
   -4.8465   -2.3252    0.0000 C   0  0  0  0  0  0  0  0  0  0  0  0
   -3.6986   -1.3597    0.0000 C   0  0  0  0  0  0  0  0  0  0  0  0
   -3.9608    0.1172    0.0000 C   0  0  0  0  0  0  0  0  0  0  0  0
   -5.3710    0.6286    0.0000 C   0  0  0  0  0  0  0  0  0  0  0  0
   -5.6332    2.1055    0.0000 C   0  0  0  0  0  0  0  0  0  0  0  0
   -4.4852    3.0710    0.0000 O   0  0  0  0  0  0  0  0  0  0  0  0
   -7.0433    2.6169    0.0000 O   0  0  0  0  0  0  0  0  0  0  0  0
   -2.2885   -1.8710    0.0000 C   0  0  0  0  0  0  0  0  0  0  0  0
   -1.8733   -3.3125    0.0000 C   0  0  0  0  0  0  0  0  0  0  0  0
   -0.3742   -3.3630    0.0000 C   0  0  0  0  0  0  0  0  0  0  0  0
    0.1372   -1.9529    0.0000 C   0  0  0  0  0  0  0  0  0  0  0  0
    1.5273   -1.3894    0.0000 C   0  0  0  0  0  0  0  0  0  0  0  0
    2.7104   -2.3115    0.0000 C   0  0  0  0  0  0  0  0  0  0  0  0
    2.5034   -3.7971    0.0000 O   0  0  0  0  0  0  0  0  0  0  0  0
    4.1005   -1.7479    0.0000 C   0  0  0  0  0  0  0  0  0  0  0  0
    4.3075   -0.2623    0.0000 C   0  0  0  0  0  0  0  0  0  0  0  0
    5.6977    0.3013    0.0000 C   0  0  0  0  0  0  0  0  0  0  0  0
    5.9047    1.7869    0.0000 C   0  0  0  0  0  0  0  0  0  0  0  0
    7.2948    2.3505    0.0000 O   0  0  0  0  0  0  0  0  0  0  0  0
    4.7216    2.7090    0.0000 C   0  0  0  0  0  0  0  0  0  0  0  0
    3.3315    2.1455    0.0000 C   0  0  0  0  0  0  0  0  0  0  0  0
    3.1244    0.6598    0.0000 C   0  0  0  0  0  0  0  0  0  0  0  0
    1.9413    1.5819    0.0000 C   0  0  0  0  0  0  0  0  0  0  0  0
    1.7343    0.0963    0.0000 C   0  0  0  0  0  0  0  0  0  0  0  0
    0.5512    1.0184    0.0000 C   0  0  0  0  0  0  0  0  0  0  0  0
   -0.8389    0.4548    0.0000 C   0  0  0  0  0  0  0  0  0  0  0  0
   -1.0459   -1.0308    0.0000 C   0  0  0  0  0  0  0  0  0  0  0  0
   -2.3189   -0.2374    0.0000 S   0  0  0  0  0  0  0  0  0  0  0  0
   -2.2683    1.2617    0.0000 C   0  0  0  0  0  0  0  0  0  0  0  0
   -3.5413    2.0551    0.0000 S   0  0  0  0  0  0  0  0  0  0  0  0
  2  1  1  6
  2  3  1  0
  3  4  1  0
  4  5  1  0
  5  6  2  0
  5  7  1  0
  2  8  1  0
  8  9  1  6
  9 10  1  0
 11 10  1  6
 11 12  1  0
 12 13  1  1
 13 14  1  6
 13 15  1  0
 16 15  1  1
 16 17  1  0
 17 18  1  0
 18 19  1  1
 18 20  1  0
 20 21  1  0
 21 22  1  0
 22 23  1  6
 22 24  1  0
 24 25  1  6
 25 26  1  0
 26 27  1  0
 27 28  1  6
 28 29  1  0
 29 30  1  0
 27  8  1  0
 27 11  1  0
 24 12  1  0
 22 16  1  0
M  END
>  <MS_ID>  (3343) 
MS3483

>  <SMILES>  (3343) 
C[C@H](CCC(=O)O)[C@H]1CC[C@H]2[C@@H]3[C@@H](O)C[C@@H]4C[C@H](O)CC[C@]4(C)[C@H]3CC[C@]12SCS

>  <Structure_dimension>  (3343) 
2D

$$$$
MS3484
     RDKit          2D

 29 32  0  0  0  0  0  0  0  0999 V2000
   -5.0209   -2.1353    0.0000 C   0  0  0  0  0  0  0  0  0  0  0  0
   -3.8503   -1.1974    0.0000 C   0  0  0  0  0  0  0  0  0  0  0  0
   -4.0773    0.2853    0.0000 C   0  0  0  0  0  0  0  0  0  0  0  0
   -5.4749    0.8301    0.0000 C   0  0  0  0  0  0  0  0  0  0  0  0
   -5.7018    2.3129    0.0000 C   0  0  0  0  0  0  0  0  0  0  0  0
   -4.5312    3.2508    0.0000 O   0  0  0  0  0  0  0  0  0  0  0  0
   -7.0994    2.8577    0.0000 O   0  0  0  0  0  0  0  0  0  0  0  0
   -2.4528   -1.7422    0.0000 C   0  0  0  0  0  0  0  0  0  0  0  0
   -2.0721   -3.1931    0.0000 C   0  0  0  0  0  0  0  0  0  0  0  0
   -0.5746   -3.2794    0.0000 C   0  0  0  0  0  0  0  0  0  0  0  0
   -0.0298   -1.8819    0.0000 C   0  0  0  0  0  0  0  0  0  0  0  0
    1.3734   -1.3516    0.0000 C   0  0  0  0  0  0  0  0  0  0  0  0
    2.5342   -2.3016    0.0000 C   0  0  0  0  0  0  0  0  0  0  0  0
    2.2918   -3.7819    0.0000 O   0  0  0  0  0  0  0  0  0  0  0  0
    3.9373   -1.7713    0.0000 C   0  0  0  0  0  0  0  0  0  0  0  0
    4.1797   -0.2911    0.0000 C   0  0  0  0  0  0  0  0  0  0  0  0
    5.5828    0.2392    0.0000 C   0  0  0  0  0  0  0  0  0  0  0  0
    5.8252    1.7195    0.0000 C   0  0  0  0  0  0  0  0  0  0  0  0
    7.2283    2.2498    0.0000 O   0  0  0  0  0  0  0  0  0  0  0  0
    4.6644    2.6695    0.0000 C   0  0  0  0  0  0  0  0  0  0  0  0
    3.2612    2.1393    0.0000 C   0  0  0  0  0  0  0  0  0  0  0  0
    3.0189    0.6590    0.0000 C   0  0  0  0  0  0  0  0  0  0  0  0
    1.8581    1.6090    0.0000 C   0  0  0  0  0  0  0  0  0  0  0  0
    1.6157    0.1287    0.0000 C   0  0  0  0  0  0  0  0  0  0  0  0
    0.4549    1.0787    0.0000 C   0  0  0  0  0  0  0  0  0  0  0  0
   -0.9482    0.5485    0.0000 C   0  0  0  0  0  0  0  0  0  0  0  0
   -1.1905   -0.9318    0.0000 C   0  0  0  0  0  0  0  0  0  0  0  0
   -2.4443   -0.1083    0.0000 N   0  0  0  0  0  0  0  0  0  0  0  0
   -2.3580    1.3892    0.0000 O   0  0  0  0  0  0  0  0  0  0  0  0
  2  1  1  6
  2  3  1  0
  3  4  1  0
  4  5  1  0
  5  6  2  0
  5  7  1  0
  2  8  1  0
  8  9  1  6
  9 10  1  0
 11 10  1  6
 11 12  1  0
 12 13  1  1
 13 14  1  6
 13 15  1  0
 16 15  1  1
 16 17  1  0
 17 18  1  0
 18 19  1  1
 18 20  1  0
 20 21  1  0
 21 22  1  0
 22 23  1  6
 22 24  1  0
 24 25  1  6
 25 26  1  0
 26 27  1  0
 27 28  1  6
 28 29  1  0
 27  8  1  0
 27 11  1  0
 24 12  1  0
 22 16  1  0
M  END
>  <MS_ID>  (3344) 
MS3484

>  <SMILES>  (3344) 
C[C@H](CCC(=O)O)[C@H]1CC[C@H]2[C@@H]3[C@@H](O)C[C@@H]4C[C@H](O)CC[C@]4(C)[C@H]3CC[C@]12NO

>  <Structure_dimension>  (3344) 
2D

$$$$
MS3485
     RDKit          2D

 39 43  0  0  0  0  0  0  0  0999 V2000
   -0.5637   -4.8765    0.0000 C   0  0  0  0  0  0  0  0  0  0  0  0
    0.0041   -3.4881    0.0000 C   0  0  0  0  0  0  0  0  0  0  0  0
   -0.9144   -2.3022    0.0000 C   0  0  0  0  0  0  0  0  0  0  0  0
   -2.4007   -2.5047    0.0000 C   0  0  0  0  0  0  0  0  0  0  0  0
   -3.3192   -1.3188    0.0000 C   0  0  0  0  0  0  0  0  0  0  0  0
   -2.7515    0.0696    0.0000 O   0  0  0  0  0  0  0  0  0  0  0  0
   -4.8055   -1.5214    0.0000 N   0  0  0  0  0  0  0  0  0  0  0  0
   -5.7240   -0.3355    0.0000 C   0  0  0  0  0  0  0  0  0  0  0  0
   -7.2103   -0.5380    0.0000 C   0  0  0  0  0  0  0  0  0  0  0  0
   -7.7780   -1.9264    0.0000 O   0  0  0  0  0  0  0  0  0  0  0  0
   -8.1288    0.6479    0.0000 N   0  0  0  0  0  0  0  0  0  0  0  0
   -9.6281    0.6018    0.0000 C   0  0  0  0  0  0  0  0  0  0  0  0
  -10.1352    2.0135    0.0000 C   0  0  0  0  0  0  0  0  0  0  0  0
   -8.9493    2.9320    0.0000 C   0  0  0  0  0  0  0  0  0  0  0  0
   -7.7093    2.0880    0.0000 C   0  0  0  0  0  0  0  0  0  0  0  0
   -6.2976    2.5951    0.0000 C   0  0  0  0  0  0  0  0  0  0  0  0
   -5.1526    1.6261    0.0000 O   0  0  0  0  0  0  0  0  0  0  0  0
   -6.0310    4.0712    0.0000 O   0  0  0  0  0  0  0  0  0  0  0  0
    1.4903   -3.2855    0.0000 C   0  0  0  0  0  0  0  0  0  0  0  0
    2.5278   -4.3689    0.0000 C   0  0  0  0  0  0  0  0  0  0  0  0
    3.8787   -3.7170    0.0000 C   0  0  0  0  0  0  0  0  0  0  0  0
    3.6762   -2.2308    0.0000 C   0  0  0  0  0  0  0  0  0  0  0  0
    4.6452   -1.0857    0.0000 C   0  0  0  0  0  0  0  0  0  0  0  0
    6.1213   -1.3524    0.0000 C   0  0  0  0  0  0  0  0  0  0  0  0
    7.0903   -0.2074    0.0000 C   0  0  0  0  0  0  0  0  0  0  0  0
    8.5664   -0.4741    0.0000 O   0  0  0  0  0  0  0  0  0  0  0  0
    6.5832    1.2043    0.0000 C   0  0  0  0  0  0  0  0  0  0  0  0
    7.5522    2.3493    0.0000 C   0  0  0  0  0  0  0  0  0  0  0  0
    7.0451    3.7610    0.0000 C   0  0  0  0  0  0  0  0  0  0  0  0
    8.0141    4.9060    0.0000 O   0  0  0  0  0  0  0  0  0  0  0  0
    5.5690    4.0276    0.0000 C   0  0  0  0  0  0  0  0  0  0  0  0
    4.6000    2.8826    0.0000 C   0  0  0  0  0  0  0  0  0  0  0  0
    5.1071    1.4709    0.0000 C   0  0  0  0  0  0  0  0  0  0  0  0
    3.6310    1.7376    0.0000 C   0  0  0  0  0  0  0  0  0  0  0  0
    4.1381    0.3259    0.0000 C   0  0  0  0  0  0  0  0  0  0  0  0
    2.6620    0.5926    0.0000 C   0  0  0  0  0  0  0  0  0  0  0  0
    1.6930   -0.5524    0.0000 C   0  0  0  0  0  0  0  0  0  0  0  0
    2.2001   -1.9641    0.0000 C   0  0  0  0  0  0  0  0  0  0  0  0
    0.7042   -1.8532    0.0000 C   0  0  0  0  0  0  0  0  0  0  0  0
  2  1  1  6
  2  3  1  0
  3  4  1  0
  4  5  1  0
  5  6  2  0
  5  7  1  0
  7  8  1  0
  8  9  1  0
  9 10  2  0
  9 11  1  0
 11 12  1  0
 12 13  1  0
 13 14  1  0
 14 15  1  0
 15 16  1  1
 16 17  2  0
 16 18  1  0
  2 19  1  0
 19 20  1  6
 20 21  1  0
 22 21  1  6
 22 23  1  0
 23 24  1  1
 24 25  1  0
 25 26  1  1
 25 27  1  0
 27 28  1  1
 28 29  1  0
 29 30  1  1
 29 31  1  0
 31 32  1  0
 32 33  1  0
 33 34  1  6
 33 35  1  0
 35 36  1  6
 36 37  1  0
 37 38  1  0
 38 39  1  6
 15 11  1  0
 38 19  1  0
 38 22  1  0
 35 23  1  0
 33 27  1  0
M  END
>  <MS_ID>  (3345) 
MS3485

>  <SMILES>  (3345) 
C[C@H](CCC(=O)NCC(=O)N1CCC[C@H]1C(=O)O)[C@H]1CC[C@H]2[C@@H]3C[C@H](O)[C@@H]4C[C@H](O)CC[C@]4(C)[C@H]3CC[C@]12C

>  <Structure_dimension>  (3345) 
2D

$$$$
MS3486
     RDKit          2D

 29 32  0  0  0  0  0  0  0  0999 V2000
   -4.5794    2.7226    0.0000 C   0  0  0  0  0  0  0  0  0  0  0  0
   -3.3580    1.8519    0.0000 S   0  0  0  0  0  0  0  0  0  0  0  0
   -3.5014    0.3587    0.0000 C   0  0  0  0  0  0  0  0  0  0  0  0
   -4.8662   -0.2637    0.0000 C   0  0  0  0  0  0  0  0  0  0  0  0
   -6.0876    0.6071    0.0000 C   0  0  0  0  0  0  0  0  0  0  0  0
   -7.4524   -0.0153    0.0000 C   0  0  0  0  0  0  0  0  0  0  0  0
   -7.5958   -1.5084    0.0000 O   0  0  0  0  0  0  0  0  0  0  0  0
   -8.6738    0.8554    0.0000 O   0  0  0  0  0  0  0  0  0  0  0  0
   -2.2800   -0.5120    0.0000 C   0  0  0  0  0  0  0  0  0  0  0  0
   -2.2665   -2.0119    0.0000 C   0  0  0  0  0  0  0  0  0  0  0  0
   -0.8358   -2.4626    0.0000 C   0  0  0  0  0  0  0  0  0  0  0  0
    0.0349   -1.2412    0.0000 C   0  0  0  0  0  0  0  0  0  0  0  0
    1.5252   -1.0710    0.0000 C   0  0  0  0  0  0  0  0  0  0  0  0
    2.4178   -2.2766    0.0000 C   0  0  0  0  0  0  0  0  0  0  0  0
    1.8200   -3.6523    0.0000 S   0  0  0  0  0  0  0  0  0  0  0  0
    3.9081   -2.1064    0.0000 C   0  0  0  0  0  0  0  0  0  0  0  0
    4.5058   -0.7307    0.0000 C   0  0  0  0  0  0  0  0  0  0  0  0
    5.9961   -0.5605    0.0000 C   0  0  0  0  0  0  0  0  0  0  0  0
    6.5939    0.8153    0.0000 C   0  0  0  0  0  0  0  0  0  0  0  0
    8.0842    0.9855    0.0000 O   0  0  0  0  0  0  0  0  0  0  0  0
    5.7014    2.0208    0.0000 C   0  0  0  0  0  0  0  0  0  0  0  0
    4.2111    1.8506    0.0000 C   0  0  0  0  0  0  0  0  0  0  0  0
    3.6133    0.4749    0.0000 C   0  0  0  0  0  0  0  0  0  0  0  0
    2.7207    1.6805    0.0000 C   0  0  0  0  0  0  0  0  0  0  0  0
    2.1230    0.3047    0.0000 C   0  0  0  0  0  0  0  0  0  0  0  0
    1.2304    1.5103    0.0000 C   0  0  0  0  0  0  0  0  0  0  0  0
   -0.2599    1.3401    0.0000 C   0  0  0  0  0  0  0  0  0  0  0  0
   -0.8577   -0.0357    0.0000 C   0  0  0  0  0  0  0  0  0  0  0  0
   -1.8713    1.0700    0.0000 C   0  0  0  0  0  0  0  0  0  0  0  0
  1  2  1  0
  2  3  1  0
  3  4  1  1
  4  5  1  0
  5  6  1  0
  6  7  2  0
  6  8  1  0
  3  9  1  0
  9 10  1  6
 10 11  1  0
 12 11  1  6
 12 13  1  0
 13 14  1  1
 14 15  1  1
 14 16  1  0
 17 16  1  1
 17 18  1  0
 18 19  1  0
 19 20  1  1
 19 21  1  0
 21 22  1  0
 22 23  1  0
 23 24  1  6
 23 25  1  0
 25 26  1  6
 26 27  1  0
 27 28  1  0
 28 29  1  6
 28  9  1  0
 28 12  1  0
 25 13  1  0
 23 17  1  0
M  END
>  <MS_ID>  (3346) 
MS3486

>  <SMILES>  (3346) 
CS[C@H](CCC(=O)O)[C@H]1CC[C@H]2[C@@H]3[C@H](S)C[C@@H]4C[C@H](O)CC[C@]4(C)[C@H]3CC[C@]12C

>  <Structure_dimension>  (3346) 
2D

$$$$
MS3487
     RDKit          2D

 25 28  0  0  0  0  0  0  0  0999 V2000
    1.6549   -1.7006    0.0000 C   0  0  0  0  0  0  0  0  0  0  0  0
    2.5007   -0.4619    0.0000 C   0  0  0  0  0  0  0  0  0  0  0  0
    3.1506   -1.8138    0.0000 C   0  0  0  0  0  0  0  0  0  0  0  0
    4.6463   -1.9269    0.0000 C   0  0  0  0  0  0  0  0  0  0  0  0
    5.4922   -0.6881    0.0000 C   0  0  0  0  0  0  0  0  0  0  0  0
    6.9879   -0.8013    0.0000 O   0  0  0  0  0  0  0  0  0  0  0  0
    4.8423    0.6638    0.0000 C   0  0  0  0  0  0  0  0  0  0  0  0
    3.3465    0.7769    0.0000 C   0  0  0  0  0  0  0  0  0  0  0  0
    2.6967    2.1288    0.0000 C   0  0  0  0  0  0  0  0  0  0  0  0
    1.2009    2.2419    0.0000 C   0  0  0  0  0  0  0  0  0  0  0  0
    0.5510    3.5938    0.0000 O   0  0  0  0  0  0  0  0  0  0  0  0
    0.3551    1.0032    0.0000 C   0  0  0  0  0  0  0  0  0  0  0  0
    1.0050   -0.3487    0.0000 C   0  0  0  0  0  0  0  0  0  0  0  0
    0.1591   -1.5875    0.0000 C   0  0  0  0  0  0  0  0  0  0  0  0
   -1.3366   -1.4744    0.0000 C   0  0  0  0  0  0  0  0  0  0  0  0
   -1.9865   -0.1225    0.0000 C   0  0  0  0  0  0  0  0  0  0  0  0
   -2.9572   -1.2661    0.0000 C   0  0  0  0  0  0  0  0  0  0  0  0
   -3.4260    0.2992    0.0000 C   0  0  0  0  0  0  0  0  0  0  0  0
   -4.6132   -0.6176    0.0000 C   0  0  0  0  0  0  0  0  0  0  0  0
   -4.4129   -2.1042    0.0000 O   0  0  0  0  0  0  0  0  0  0  0  0
   -6.0008   -0.0478    0.0000 C   0  0  0  0  0  0  0  0  0  0  0  0
   -7.1880   -0.9646    0.0000 O   0  0  0  0  0  0  0  0  0  0  0  0
   -3.4698    1.7985    0.0000 C   0  0  0  0  0  0  0  0  0  0  0  0
   -2.0574    2.3035    0.0000 C   0  0  0  0  0  0  0  0  0  0  0  0
   -1.1406    1.1163    0.0000 C   0  0  0  0  0  0  0  0  0  0  0  0
  2  1  1  1
  2  3  1  0
  3  4  1  0
  4  5  1  0
  5  6  1  6
  5  7  1  0
  8  7  1  6
  8  9  1  0
  9 10  1  0
 10 11  1  1
 12 10  1  6
 12 13  1  0
 13 14  1  1
 14 15  1  0
 15 16  1  0
 16 17  1  1
 16 18  1  0
 18 19  1  1
 19 20  2  0
 19 21  1  0
 21 22  1  0
 18 23  1  0
 23 24  1  0
 25 24  1  1
  8  2  1  0
 25 12  1  0
 13  2  1  0
 25 16  1  0
M  END
>  <MS_ID>  (3347) 
MS3487

>  <SMILES>  (3347) 
C[C@]12CC[C@@H](O)C[C@H]1C[C@H](O)[C@@H]1[C@@H]2CC[C@]2(C)[C@@H](C(=O)CO)CC[C@@H]12

>  <Structure_dimension>  (3347) 
2D

$$$$
MS3488
     RDKit          2D

 26 29  0  0  0  0  0  0  0  0999 V2000
   -6.9319    0.8954    0.0000 C   0  0  0  0  0  0  0  0  0  0  0  0
   -5.4327    0.9429    0.0000 C   0  0  0  0  0  0  0  0  0  0  0  0
   -4.6419   -0.3317    0.0000 C   0  0  0  0  0  0  0  0  0  0  0  0
   -5.3503   -1.6538    0.0000 O   0  0  0  0  0  0  0  0  0  0  0  0
   -3.1427   -0.2841    0.0000 C   0  0  0  0  0  0  0  0  0  0  0  0
   -3.5263    1.1660    0.0000 O   0  0  0  0  0  0  0  0  0  0  0  0
   -3.2521   -1.7801    0.0000 C   0  0  0  0  0  0  0  0  0  0  0  0
   -1.8631   -2.3465    0.0000 C   0  0  0  0  0  0  0  0  0  0  0  0
   -0.8953   -1.2005    0.0000 C   0  0  0  0  0  0  0  0  0  0  0  0
    0.6040   -1.1530    0.0000 C   0  0  0  0  0  0  0  0  0  0  0  0
    1.3948   -2.4276    0.0000 C   0  0  0  0  0  0  0  0  0  0  0  0
    2.8940   -2.3800    0.0000 C   0  0  0  0  0  0  0  0  0  0  0  0
    3.6025   -1.0579    0.0000 C   0  0  0  0  0  0  0  0  0  0  0  0
    5.1017   -1.0103    0.0000 C   0  0  0  0  0  0  0  0  0  0  0  0
    5.8102    0.3118    0.0000 C   0  0  0  0  0  0  0  0  0  0  0  0
    7.3094    0.3594    0.0000 O   0  0  0  0  0  0  0  0  0  0  0  0
    5.0194    1.5864    0.0000 C   0  0  0  0  0  0  0  0  0  0  0  0
    3.5201    1.5389    0.0000 C   0  0  0  0  0  0  0  0  0  0  0  0
    2.8117    0.2167    0.0000 C   0  0  0  0  0  0  0  0  0  0  0  0
    2.0209    1.4913    0.0000 C   0  0  0  0  0  0  0  0  0  0  0  0
    1.3124    0.1692    0.0000 C   0  0  0  0  0  0  0  0  0  0  0  0
    0.5216    1.4438    0.0000 C   0  0  0  0  0  0  0  0  0  0  0  0
   -0.9776    1.3963    0.0000 C   0  0  0  0  0  0  0  0  0  0  0  0
   -1.7684    2.6709    0.0000 O   0  0  0  0  0  0  0  0  0  0  0  0
   -1.6861    0.0741    0.0000 C   0  0  0  0  0  0  0  0  0  0  0  0
   -2.4545    1.3623    0.0000 C   0  0  0  0  0  0  0  0  0  0  0  0
  1  2  2  0
  2  3  1  0
  3  4  1  6
  3  5  1  0
  5  6  1  1
  5  7  1  0
  7  8  1  0
  9  8  1  6
  9 10  1  0
 10 11  1  1
 11 12  1  0
 13 12  1  1
 13 14  1  0
 14 15  1  0
 15 16  1  1
 15 17  1  0
 17 18  1  0
 18 19  1  0
 19 20  1  6
 19 21  1  0
 21 22  1  6
 22 23  1  0
 23 24  1  1
 23 25  1  0
 25 26  1  6
 25  5  1  0
 25  9  1  0
 21 10  1  0
 19 13  1  0
M  END
>  <MS_ID>  (3348) 
MS3488

>  <SMILES>  (3348) 
C=C[C@@H](O)[C@@]1(O)CC[C@H]2[C@@H]3CC[C@@H]4C[C@H](O)CC[C@]4(C)[C@H]3C[C@H](O)[C@@]21C

>  <Structure_dimension>  (3348) 
2D

$$$$
MS3489
     RDKit          2D

 28 31  0  0  0  0  0  0  0  0999 V2000
    2.5783   -1.4741    0.0000 C   0  0  0  0  0  0  0  0  0  0  0  0
    3.4924   -0.2848    0.0000 C   0  0  0  0  0  0  0  0  0  0  0  0
    4.0653   -1.6710    0.0000 C   0  0  0  0  0  0  0  0  0  0  0  0
    5.5523   -1.8680    0.0000 C   0  0  0  0  0  0  0  0  0  0  0  0
    6.4664   -0.6787    0.0000 C   0  0  0  0  0  0  0  0  0  0  0  0
    7.9534   -0.8757    0.0000 O   0  0  0  0  0  0  0  0  0  0  0  0
    5.8934    0.7076    0.0000 C   0  0  0  0  0  0  0  0  0  0  0  0
    4.4064    0.9045    0.0000 C   0  0  0  0  0  0  0  0  0  0  0  0
    3.8335    2.2908    0.0000 C   0  0  0  0  0  0  0  0  0  0  0  0
    2.3465    2.4878    0.0000 C   0  0  0  0  0  0  0  0  0  0  0  0
    1.4324    1.2985    0.0000 C   0  0  0  0  0  0  0  0  0  0  0  0
    2.0053   -0.0878    0.0000 C   0  0  0  0  0  0  0  0  0  0  0  0
    1.0913   -1.2771    0.0000 C   0  0  0  0  0  0  0  0  0  0  0  0
   -0.3958   -1.0801    0.0000 C   0  0  0  0  0  0  0  0  0  0  0  0
   -1.3098   -2.2694    0.0000 O   0  0  0  0  0  0  0  0  0  0  0  0
   -0.9687    0.3061    0.0000 C   0  0  0  0  0  0  0  0  0  0  0  0
   -2.0021   -0.7811    0.0000 C   0  0  0  0  0  0  0  0  0  0  0  0
   -2.3822    0.8080    0.0000 C   0  0  0  0  0  0  0  0  0  0  0  0
   -3.6191   -0.0407    0.0000 C   0  0  0  0  0  0  0  0  0  0  0  0
   -3.5026   -1.5361    0.0000 O   0  0  0  0  0  0  0  0  0  0  0  0
   -4.9725    0.6062    0.0000 C   0  0  0  0  0  0  0  0  0  0  0  0
   -6.2093   -0.2424    0.0000 C   0  0  0  0  0  0  0  0  0  0  0  0
   -6.0928   -1.7379    0.0000 O   0  0  0  0  0  0  0  0  0  0  0  0
   -7.5627    0.4044    0.0000 C   0  0  0  0  0  0  0  0  0  0  0  0
   -8.7996   -0.4442    0.0000 O   0  0  0  0  0  0  0  0  0  0  0  0
   -2.3418    2.3074    0.0000 C   0  0  0  0  0  0  0  0  0  0  0  0
   -0.9032    2.7323    0.0000 C   0  0  0  0  0  0  0  0  0  0  0  0
   -0.0546    1.4955    0.0000 C   0  0  0  0  0  0  0  0  0  0  0  0
  2  1  1  1
  2  3  1  0
  3  4  1  0
  4  5  1  0
  5  6  2  0
  5  7  1  0
  8  7  1  6
  8  9  1  0
  9 10  1  0
 11 10  1  6
 11 12  1  0
 12 13  1  1
 13 14  1  0
 14 15  1  1
 14 16  1  0
 16 17  1  1
 16 18  1  0
 18 19  1  0
 19 20  1  6
 19 21  1  0
 21 22  1  0
 22 23  2  0
 22 24  1  0
 24 25  1  0
 18 26  1  1
 26 27  1  0
 28 27  1  1
  8  2  1  0
 28 11  1  0
 12  2  1  0
 28 16  1  0
M  END
>  <MS_ID>  (3349) 
MS3489

>  <SMILES>  (3349) 
C[C@]12CCC(=O)C[C@H]1CC[C@@H]1[C@@H]2C[C@@H](O)[C@]2(C)[C@@H]([C@H](O)CC(=O)CO)CC[C@@H]12

>  <Structure_dimension>  (3349) 
2D

$$$$
MS3490
     RDKit          2D

 22 25  0  0  0  0  0  0  0  0999 V2000
    1.2842   -1.5783    0.0000 C   0  0  0  0  0  0  0  0  0  0  0  0
    2.0273   -0.2753    0.0000 C   0  0  0  0  0  0  0  0  0  0  0  0
    2.7841   -1.5703    0.0000 C   0  0  0  0  0  0  0  0  0  0  0  0
    4.2841   -1.5624    0.0000 C   0  0  0  0  0  0  0  0  0  0  0  0
    5.0272   -0.2594    0.0000 C   0  0  0  0  0  0  0  0  0  0  0  0
    6.5272   -0.2514    0.0000 O   0  0  0  0  0  0  0  0  0  0  0  0
    4.2703    1.0357    0.0000 C   0  0  0  0  0  0  0  0  0  0  0  0
    2.7704    1.0277    0.0000 C   0  0  0  0  0  0  0  0  0  0  0  0
    2.0135    2.3228    0.0000 C   0  0  0  0  0  0  0  0  0  0  0  0
    0.5135    2.3148    0.0000 C   0  0  0  0  0  0  0  0  0  0  0  0
   -0.2296    1.0118    0.0000 C   0  0  0  0  0  0  0  0  0  0  0  0
    0.5273   -0.2832    0.0000 C   0  0  0  0  0  0  0  0  0  0  0  0
   -0.2158   -1.5862    0.0000 C   0  0  0  0  0  0  0  0  0  0  0  0
   -1.7158   -1.5942    0.0000 C   0  0  0  0  0  0  0  0  0  0  0  0
   -2.4727   -0.2992    0.0000 C   0  0  0  0  0  0  0  0  0  0  0  0
   -3.3479   -1.5173    0.0000 C   0  0  0  0  0  0  0  0  0  0  0  0
   -3.9415    0.0049    0.0000 C   0  0  0  0  0  0  0  0  0  0  0  0
   -5.0509   -1.0047    0.0000 C   0  0  0  0  0  0  0  0  0  0  0  0
   -6.4799   -0.5487    0.0000 O   0  0  0  0  0  0  0  0  0  0  0  0
   -4.1062    1.4958    0.0000 C   0  0  0  0  0  0  0  0  0  0  0  0
   -2.7392    2.1132    0.0000 C   0  0  0  0  0  0  0  0  0  0  0  0
   -1.7296    1.0038    0.0000 C   0  0  0  0  0  0  0  0  0  0  0  0
  2  1  1  1
  2  3  1  0
  3  4  1  0
  4  5  1  0
  5  6  2  0
  5  7  1  0
  8  7  1  6
  8  9  1  0
  9 10  1  0
 11 10  1  6
 11 12  1  0
 12 13  1  1
 13 14  1  0
 14 15  1  0
 15 16  1  1
 15 17  1  0
 17 18  1  1
 18 19  1  0
 17 20  1  0
 20 21  1  0
 22 21  1  1
  8  2  1  0
 22 11  1  0
 12  2  1  0
 22 15  1  0
M  END
>  <MS_ID>  (3350) 
MS3490

>  <SMILES>  (3350) 
C[C@]12CCC(=O)C[C@H]1CC[C@@H]1[C@@H]2CC[C@]2(C)[C@@H](CO)CC[C@@H]12

>  <Structure_dimension>  (3350) 
2D

$$$$
MS3491
     RDKit          2D

 26 29  0  0  0  0  0  0  0  0999 V2000
   -7.9559   -0.1423    0.0000 C   0  0  0  0  0  0  0  0  0  0  0  0
   -6.5900    0.4776    0.0000 C   0  0  0  0  0  0  0  0  0  0  0  0
   -6.4438    1.9705    0.0000 O   0  0  0  0  0  0  0  0  0  0  0  0
   -5.3702   -0.3954    0.0000 C   0  0  0  0  0  0  0  0  0  0  0  0
   -4.0043    0.2245    0.0000 C   0  0  0  0  0  0  0  0  0  0  0  0
   -3.8581    1.7174    0.0000 O   0  0  0  0  0  0  0  0  0  0  0  0
   -2.7845   -0.6485    0.0000 C   0  0  0  0  0  0  0  0  0  0  0  0
   -2.7738   -2.1485    0.0000 C   0  0  0  0  0  0  0  0  0  0  0  0
   -1.3439   -2.6018    0.0000 C   0  0  0  0  0  0  0  0  0  0  0  0
   -0.4709   -1.3820    0.0000 C   0  0  0  0  0  0  0  0  0  0  0  0
    1.0197   -1.2146    0.0000 C   0  0  0  0  0  0  0  0  0  0  0  0
    1.9100   -2.4218    0.0000 C   0  0  0  0  0  0  0  0  0  0  0  0
    3.4006   -2.2543    0.0000 C   0  0  0  0  0  0  0  0  0  0  0  0
    4.0010   -0.8797    0.0000 C   0  0  0  0  0  0  0  0  0  0  0  0
    5.4916   -0.7123    0.0000 C   0  0  0  0  0  0  0  0  0  0  0  0
    6.0919    0.6624    0.0000 C   0  0  0  0  0  0  0  0  0  0  0  0
    7.5825    0.8298    0.0000 O   0  0  0  0  0  0  0  0  0  0  0  0
    5.2016    1.8696    0.0000 C   0  0  0  0  0  0  0  0  0  0  0  0
    3.7109    1.7021    0.0000 C   0  0  0  0  0  0  0  0  0  0  0  0
    3.1106    0.3275    0.0000 C   0  0  0  0  0  0  0  0  0  0  0  0
    2.2203    1.5347    0.0000 C   0  0  0  0  0  0  0  0  0  0  0  0
    1.6200    0.1601    0.0000 C   0  0  0  0  0  0  0  0  0  0  0  0
    0.7297    1.3673    0.0000 C   0  0  0  0  0  0  0  0  0  0  0  0
   -0.7609    1.1998    0.0000 C   0  0  0  0  0  0  0  0  0  0  0  0
   -1.3612   -0.1748    0.0000 C   0  0  0  0  0  0  0  0  0  0  0  0
   -2.3729    0.9327    0.0000 C   0  0  0  0  0  0  0  0  0  0  0  0
  1  2  1  0
  2  3  2  0
  2  4  1  0
  4  5  1  0
  5  6  2  0
  7  5  1  6
  7  8  1  0
  8  9  1  0
 10  9  1  6
 10 11  1  0
 11 12  1  1
 12 13  1  0
 14 13  1  1
 14 15  1  0
 15 16  1  0
 16 17  2  0
 16 18  1  0
 18 19  1  0
 19 20  1  0
 20 21  1  6
 20 22  1  0
 22 23  1  6
 23 24  1  0
 24 25  1  0
 25 26  1  6
 25  7  1  0
 25 10  1  0
 22 11  1  0
 20 14  1  0
M  END
>  <MS_ID>  (3351) 
MS3491

>  <SMILES>  (3351) 
CC(=O)CC(=O)[C@H]1CC[C@H]2[C@@H]3CC[C@@H]4CC(=O)CC[C@]4(C)[C@H]3CC[C@]12C

>  <Structure_dimension>  (3351) 
2D

$$$$
MS3492
     RDKit          2D

 33 36  0  0  0  0  0  0  0  0999 V2000
    4.6688   -4.2145    0.0000 C   0  0  0  0  0  0  0  0  0  0  0  0
    4.3956   -2.7396    0.0000 C   0  0  0  0  0  0  0  0  0  0  0  0
    2.9817   -2.2388    0.0000 C   0  0  0  0  0  0  0  0  0  0  0  0
    5.5363   -1.7656    0.0000 C   0  0  0  0  0  0  0  0  0  0  0  0
    6.9502   -2.2664    0.0000 C   0  0  0  0  0  0  0  0  0  0  0  0
    5.2631   -0.2907    0.0000 C   0  0  0  0  0  0  0  0  0  0  0  0
    6.4038    0.6834    0.0000 O   0  0  0  0  0  0  0  0  0  0  0  0
    3.8492    0.2102    0.0000 C   0  0  0  0  0  0  0  0  0  0  0  0
    2.7085   -0.7639    0.0000 O   0  0  0  0  0  0  0  0  0  0  0  0
    3.5760    1.6851    0.0000 C   0  0  0  0  0  0  0  0  0  0  0  0
    4.7167    2.6592    0.0000 C   0  0  0  0  0  0  0  0  0  0  0  0
    2.1621    2.1860    0.0000 C   0  0  0  0  0  0  0  0  0  0  0  0
    1.7362    3.6242    0.0000 C   0  0  0  0  0  0  0  0  0  0  0  0
    0.2367    3.6636    0.0000 C   0  0  0  0  0  0  0  0  0  0  0  0
   -0.2641    2.2497    0.0000 C   0  0  0  0  0  0  0  0  0  0  0  0
   -1.6500    1.6758    0.0000 C   0  0  0  0  0  0  0  0  0  0  0  0
   -2.8400    2.5891    0.0000 C   0  0  0  0  0  0  0  0  0  0  0  0
   -4.2258    2.0152    0.0000 C   0  0  0  0  0  0  0  0  0  0  0  0
   -5.4158    2.9285    0.0000 O   0  0  0  0  0  0  0  0  0  0  0  0
   -4.4218    0.5281    0.0000 C   0  0  0  0  0  0  0  0  0  0  0  0
   -5.8077   -0.0458    0.0000 C   0  0  0  0  0  0  0  0  0  0  0  0
   -6.0036   -1.5330    0.0000 C   0  0  0  0  0  0  0  0  0  0  0  0
   -7.3895   -2.1068    0.0000 O   0  0  0  0  0  0  0  0  0  0  0  0
   -4.8137   -2.4462    0.0000 C   0  0  0  0  0  0  0  0  0  0  0  0
   -5.0096   -3.9334    0.0000 O   0  0  0  0  0  0  0  0  0  0  0  0
   -3.4278   -1.8723    0.0000 C   0  0  0  0  0  0  0  0  0  0  0  0
   -3.2318   -0.3852    0.0000 C   0  0  0  0  0  0  0  0  0  0  0  0
   -2.0419   -1.2984    0.0000 C   0  0  0  0  0  0  0  0  0  0  0  0
   -1.8460    0.1887    0.0000 C   0  0  0  0  0  0  0  0  0  0  0  0
   -0.6560   -0.7246    0.0000 C   0  0  0  0  0  0  0  0  0  0  0  0
    0.7299   -0.1507    0.0000 C   0  0  0  0  0  0  0  0  0  0  0  0
    0.9258    1.3365    0.0000 C   0  0  0  0  0  0  0  0  0  0  0  0
    2.2047    0.5526    0.0000 C   0  0  0  0  0  0  0  0  0  0  0  0
  1  2  1  0
  2  3  1  0
  2  4  1  0
  4  5  1  1
  4  6  1  0
  6  7  1  6
  6  8  1  0
  8  9  1  6
  8 10  1  0
 10 11  1  6
 10 12  1  0
 12 13  1  1
 13 14  1  0
 15 14  1  6
 15 16  1  0
 16 17  1  1
 17 18  1  0
 18 19  2  0
 18 20  1  0
 20 21  1  6
 21 22  1  0
 22 23  1  1
 22 24  1  0
 24 25  1  1
 24 26  1  0
 26 27  1  0
 27 28  1  6
 27 29  1  0
 29 30  1  6
 30 31  1  0
 31 32  1  0
 32 33  1  6
 32 12  1  0
 32 15  1  0
 29 16  1  0
 27 20  1  0
M  END
>  <MS_ID>  (3352) 
MS3492

>  <SMILES>  (3352) 
CC(C)[C@H](C)[C@@H](O)[C@H](O)[C@@H](C)[C@@H]1CC[C@H]2[C@@H]3CC(=O)[C@H]4C[C@H](O)[C@H](O)C[C@]4(C)[C@H]3CC[C@]12C

>  <Structure_dimension>  (3352) 
2D

$$$$
MS3493
     RDKit          2D

 27 30  0  0  0  0  0  0  0  0999 V2000
    2.2674   -1.4675    0.0000 C   0  0  0  0  0  0  0  0  0  0  0  0
    3.1694   -0.2689    0.0000 C   0  0  0  0  0  0  0  0  0  0  0  0
    3.7564   -1.6492    0.0000 C   0  0  0  0  0  0  0  0  0  0  0  0
    5.2453   -1.8310    0.0000 C   0  0  0  0  0  0  0  0  0  0  0  0
    6.1472   -0.6325    0.0000 C   0  0  0  0  0  0  0  0  0  0  0  0
    7.6362   -0.8143    0.0000 O   0  0  0  0  0  0  0  0  0  0  0  0
    5.5602    0.7479    0.0000 C   0  0  0  0  0  0  0  0  0  0  0  0
    4.0713    0.9297    0.0000 C   0  0  0  0  0  0  0  0  0  0  0  0
    3.4842    2.3100    0.0000 C   0  0  0  0  0  0  0  0  0  0  0  0
    1.9953    2.4918    0.0000 C   0  0  0  0  0  0  0  0  0  0  0  0
    1.0934    1.2933    0.0000 C   0  0  0  0  0  0  0  0  0  0  0  0
    1.6804   -0.0871    0.0000 C   0  0  0  0  0  0  0  0  0  0  0  0
    0.7785   -1.2857    0.0000 C   0  0  0  0  0  0  0  0  0  0  0  0
   -0.7104   -1.1039    0.0000 C   0  0  0  0  0  0  0  0  0  0  0  0
   -1.6123   -2.3025    0.0000 O   0  0  0  0  0  0  0  0  0  0  0  0
   -1.2975    0.2765    0.0000 C   0  0  0  0  0  0  0  0  0  0  0  0
   -2.3197   -0.8213    0.0000 C   0  0  0  0  0  0  0  0  0  0  0  0
   -2.7161    0.7639    0.0000 C   0  0  0  0  0  0  0  0  0  0  0  0
   -3.9442   -0.0973    0.0000 C   0  0  0  0  0  0  0  0  0  0  0  0
   -3.8125   -1.5916    0.0000 O   0  0  0  0  0  0  0  0  0  0  0  0
   -5.3041    0.5356    0.0000 C   0  0  0  0  0  0  0  0  0  0  0  0
   -6.5323   -0.3256    0.0000 C   0  0  0  0  0  0  0  0  0  0  0  0
   -6.4005   -1.8198    0.0000 O   0  0  0  0  0  0  0  0  0  0  0  0
   -7.8922    0.3074    0.0000 O   0  0  0  0  0  0  0  0  0  0  0  0
   -2.6909    2.2636    0.0000 C   0  0  0  0  0  0  0  0  0  0  0  0
   -1.2568    2.7032    0.0000 C   0  0  0  0  0  0  0  0  0  0  0  0
   -0.3956    1.4750    0.0000 C   0  0  0  0  0  0  0  0  0  0  0  0
  2  1  1  1
  2  3  1  0
  3  4  1  0
  4  5  1  0
  5  6  2  0
  5  7  1  0
  8  7  1  6
  8  9  1  0
  9 10  1  0
 11 10  1  6
 11 12  1  0
 12 13  1  1
 13 14  1  0
 14 15  1  1
 14 16  1  0
 16 17  1  1
 16 18  1  0
 18 19  1  0
 19 20  1  1
 19 21  1  0
 21 22  1  0
 22 23  2  0
 22 24  1  0
 18 25  1  1
 25 26  1  0
 27 26  1  1
  8  2  1  0
 27 11  1  0
 12  2  1  0
 27 16  1  0
M  END
>  <MS_ID>  (3353) 
MS3493

>  <SMILES>  (3353) 
C[C@]12CCC(=O)C[C@H]1CC[C@@H]1[C@@H]2C[C@@H](O)[C@]2(C)[C@@H]([C@@H](O)CC(=O)O)CC[C@@H]12

>  <Structure_dimension>  (3353) 
2D

$$$$
MS3494
     RDKit          2D

 24 27  0  0  0  0  0  0  0  0999 V2000
   -6.2943    0.2891    0.0000 C   0  0  0  0  0  0  0  0  0  0  0  0
   -4.8892    0.8143    0.0000 C   0  0  0  0  0  0  0  0  0  0  0  0
   -4.6416    2.2937    0.0000 O   0  0  0  0  0  0  0  0  0  0  0  0
   -3.7319   -0.1399    0.0000 C   0  0  0  0  0  0  0  0  0  0  0  0
   -3.8235   -1.6371    0.0000 C   0  0  0  0  0  0  0  0  0  0  0  0
   -2.4280   -2.1870    0.0000 C   0  0  0  0  0  0  0  0  0  0  0  0
   -1.4738   -1.0296    0.0000 C   0  0  0  0  0  0  0  0  0  0  0  0
    0.0248   -0.9643    0.0000 C   0  0  0  0  0  0  0  0  0  0  0  0
    0.8307   -2.2294    0.0000 C   0  0  0  0  0  0  0  0  0  0  0  0
    0.1380   -3.5599    0.0000 C   0  0  0  0  0  0  0  0  0  0  0  0
    2.3293   -2.1641    0.0000 C   0  0  0  0  0  0  0  0  0  0  0  0
    3.0220   -0.8336    0.0000 C   0  0  0  0  0  0  0  0  0  0  0  0
    4.5205   -0.7683    0.0000 C   0  0  0  0  0  0  0  0  0  0  0  0
    5.2133    0.5622    0.0000 C   0  0  0  0  0  0  0  0  0  0  0  0
    6.7118    0.6275    0.0000 O   0  0  0  0  0  0  0  0  0  0  0  0
    4.4074    1.8273    0.0000 C   0  0  0  0  0  0  0  0  0  0  0  0
    2.9088    1.7620    0.0000 C   0  0  0  0  0  0  0  0  0  0  0  0
    2.2161    0.4315    0.0000 C   0  0  0  0  0  0  0  0  0  0  0  0
    1.4102    1.6967    0.0000 C   0  0  0  0  0  0  0  0  0  0  0  0
    0.7175    0.3662    0.0000 C   0  0  0  0  0  0  0  0  0  0  0  0
   -0.0883    1.6314    0.0000 C   0  0  0  0  0  0  0  0  0  0  0  0
   -1.5869    1.5660    0.0000 C   0  0  0  0  0  0  0  0  0  0  0  0
   -2.2796    0.2356    0.0000 C   0  0  0  0  0  0  0  0  0  0  0  0
   -3.2133    1.4095    0.0000 C   0  0  0  0  0  0  0  0  0  0  0  0
  1  2  1  0
  2  3  2  0
  4  2  1  6
  4  5  1  0
  5  6  1  0
  7  6  1  6
  7  8  1  0
  8  9  1  1
  9 10  1  1
  9 11  1  0
 12 11  1  1
 12 13  1  0
 13 14  1  0
 14 15  1  1
 14 16  1  0
 16 17  1  0
 17 18  1  0
 18 19  1  6
 18 20  1  0
 20 21  1  6
 21 22  1  0
 22 23  1  0
 23 24  1  6
 23  4  1  0
 23  7  1  0
 20  8  1  0
 18 12  1  0
M  END
>  <MS_ID>  (3354) 
MS3494

>  <SMILES>  (3354) 
CC(=O)[C@H]1CC[C@H]2[C@@H]3[C@H](C)C[C@@H]4C[C@H](O)CC[C@]4(C)[C@H]3CC[C@]12C

>  <Structure_dimension>  (3354) 
2D

$$$$
MS3495
     RDKit          2D

 28 31  0  0  0  0  0  0  0  0999 V2000
   -5.1275   -2.0302    0.0000 C   0  0  0  0  0  0  0  0  0  0  0  0
   -3.9468   -1.1050    0.0000 C   0  0  0  0  0  0  0  0  0  0  0  0
   -4.1576    0.3801    0.0000 C   0  0  0  0  0  0  0  0  0  0  0  0
   -5.5492    0.9401    0.0000 C   0  0  0  0  0  0  0  0  0  0  0  0
   -5.7600    2.4252    0.0000 C   0  0  0  0  0  0  0  0  0  0  0  0
   -4.5793    3.3503    0.0000 O   0  0  0  0  0  0  0  0  0  0  0  0
   -7.1516    2.9851    0.0000 O   0  0  0  0  0  0  0  0  0  0  0  0
   -2.5552   -1.6650    0.0000 C   0  0  0  0  0  0  0  0  0  0  0  0
   -2.1903   -3.1199    0.0000 O   0  0  0  0  0  0  0  0  0  0  0  0
   -0.6938   -3.2225    0.0000 C   0  0  0  0  0  0  0  0  0  0  0  0
   -0.1339   -1.8309    0.0000 C   0  0  0  0  0  0  0  0  0  0  0  0
    1.2750   -1.3159    0.0000 C   0  0  0  0  0  0  0  0  0  0  0  0
    2.4254   -2.2785    0.0000 C   0  0  0  0  0  0  0  0  0  0  0  0
    2.1670   -3.7560    0.0000 O   0  0  0  0  0  0  0  0  0  0  0  0
    3.8342   -1.7635    0.0000 C   0  0  0  0  0  0  0  0  0  0  0  0
    4.0926   -0.2859    0.0000 C   0  0  0  0  0  0  0  0  0  0  0  0
    5.5014    0.2291    0.0000 C   0  0  0  0  0  0  0  0  0  0  0  0
    5.7598    1.7067    0.0000 C   0  0  0  0  0  0  0  0  0  0  0  0
    7.1687    2.2217    0.0000 O   0  0  0  0  0  0  0  0  0  0  0  0
    4.6094    2.6692    0.0000 C   0  0  0  0  0  0  0  0  0  0  0  0
    3.2006    2.1542    0.0000 C   0  0  0  0  0  0  0  0  0  0  0  0
    2.9422    0.6767    0.0000 C   0  0  0  0  0  0  0  0  0  0  0  0
    1.7918    1.6392    0.0000 C   0  0  0  0  0  0  0  0  0  0  0  0
    1.5334    0.1617    0.0000 C   0  0  0  0  0  0  0  0  0  0  0  0
    0.3830    1.1242    0.0000 C   0  0  0  0  0  0  0  0  0  0  0  0
   -1.0259    0.6093    0.0000 C   0  0  0  0  0  0  0  0  0  0  0  0
   -1.2843   -0.8683    0.0000 C   0  0  0  0  0  0  0  0  0  0  0  0
   -2.5290   -0.0313    0.0000 C   0  0  0  0  0  0  0  0  0  0  0  0
  2  1  1  6
  2  3  1  0
  3  4  1  0
  4  5  1  0
  5  6  2  0
  5  7  1  0
  2  8  1  0
  8  9  1  6
  9 10  1  0
 11 10  1  6
 11 12  1  0
 12 13  1  1
 13 14  1  6
 13 15  1  0
 16 15  1  1
 16 17  1  0
 17 18  1  0
 18 19  1  1
 18 20  1  0
 20 21  1  0
 21 22  1  0
 22 23  1  6
 22 24  1  0
 24 25  1  6
 25 26  1  0
 26 27  1  0
 27 28  1  6
 27  8  1  0
 27 11  1  0
 24 12  1  0
 22 16  1  0
M  END
>  <MS_ID>  (3355) 
MS3495

>  <SMILES>  (3355) 
C[C@H](CCC(=O)O)[C@H]1OC[C@H]2[C@@H]3[C@@H](O)C[C@@H]4C[C@H](O)CC[C@]4(C)[C@H]3CC[C@]12C

>  <Structure_dimension>  (3355) 
2D

$$$$
MS3496
     RDKit          2D

 26 29  0  0  0  0  0  0  0  0999 V2000
    2.0291   -1.4220    0.0000 C   0  0  0  0  0  0  0  0  0  0  0  0
    2.7100   -0.0854    0.0000 C   0  0  0  0  0  0  0  0  0  0  0  0
    3.5271   -1.3433    0.0000 C   0  0  0  0  0  0  0  0  0  0  0  0
    5.0250   -1.2646    0.0000 C   0  0  0  0  0  0  0  0  0  0  0  0
    5.7058    0.0720    0.0000 C   0  0  0  0  0  0  0  0  0  0  0  0
    7.2038    0.1507    0.0000 O   0  0  0  0  0  0  0  0  0  0  0  0
    4.8887    1.3299    0.0000 C   0  0  0  0  0  0  0  0  0  0  0  0
    3.3908    1.2512    0.0000 C   0  0  0  0  0  0  0  0  0  0  0  0
    2.5737    2.5091    0.0000 C   0  0  0  0  0  0  0  0  0  0  0  0
    1.0757    2.4304    0.0000 C   0  0  0  0  0  0  0  0  0  0  0  0
    0.3949    1.0938    0.0000 C   0  0  0  0  0  0  0  0  0  0  0  0
    1.2120   -0.1641    0.0000 C   0  0  0  0  0  0  0  0  0  0  0  0
    0.5312   -1.5007    0.0000 C   0  0  0  0  0  0  0  0  0  0  0  0
    1.3483   -2.7586    0.0000 O   0  0  0  0  0  0  0  0  0  0  0  0
   -0.9667   -1.5794    0.0000 C   0  0  0  0  0  0  0  0  0  0  0  0
   -1.7838   -0.3214    0.0000 C   0  0  0  0  0  0  0  0  0  0  0  0
   -2.4412   -1.6697    0.0000 C   0  0  0  0  0  0  0  0  0  0  0  0
   -1.1030    1.0151    0.0000 C   0  0  0  0  0  0  0  0  0  0  0  0
   -2.1638    2.0757    0.0000 C   0  0  0  0  0  0  0  0  0  0  0  0
   -3.5002    1.3945    0.0000 C   0  0  0  0  0  0  0  0  0  0  0  0
   -3.2654   -0.0870    0.0000 C   0  0  0  0  0  0  0  0  0  0  0  0
   -3.5257   -1.5642    0.0000 O   0  0  0  0  0  0  0  0  0  0  0  0
   -4.7633   -0.1657    0.0000 C   0  0  0  0  0  0  0  0  0  0  0  0
   -5.4442   -1.5022    0.0000 O   0  0  0  0  0  0  0  0  0  0  0  0
   -5.5804    1.0923    0.0000 C   0  0  0  0  0  0  0  0  0  0  0  0
   -7.0784    1.0136    0.0000 O   0  0  0  0  0  0  0  0  0  0  0  0
  2  1  1  1
  2  3  1  0
  3  4  1  0
  4  5  1  0
  5  6  1  6
  5  7  1  0
  8  7  1  1
  8  9  1  0
  9 10  1  0
 11 10  1  6
 11 12  1  0
 12 13  1  6
 13 14  1  1
 13 15  1  0
 15 16  1  0
 16 17  1  1
 16 18  1  0
 18 19  1  1
 19 20  1  0
 20 21  1  0
 21 22  1  6
 21 23  1  0
 23 24  2  0
 23 25  1  0
 25 26  1  0
  8  2  1  0
 18 11  1  0
 12  2  1  0
 21 16  1  0
M  END
>  <MS_ID>  (3356) 
MS3496

>  <SMILES>  (3356) 
C[C@]12CC[C@@H](O)C[C@@H]1CC[C@@H]1[C@H]2[C@@H](O)C[C@@]2(C)[C@H]1CC[C@]2(O)C(=O)CO

>  <Structure_dimension>  (3356) 
2D

$$$$
MS3497
     RDKit          2D

 39 43  0  0  0  0  0  0  0  0999 V2000
   -5.2117   -3.8462    0.0000 C   0  0  0  0  0  0  0  0  0  0  0  0
   -4.7410   -2.4219    0.0000 C   0  0  0  0  0  0  0  0  0  0  0  0
   -5.7391   -1.3022    0.0000 C   0  0  0  0  0  0  0  0  0  0  0  0
   -7.2078   -1.6067    0.0000 C   0  0  0  0  0  0  0  0  0  0  0  0
   -8.2059   -0.4869    0.0000 C   0  0  0  0  0  0  0  0  0  0  0  0
   -7.7352    0.9373    0.0000 O   0  0  0  0  0  0  0  0  0  0  0  0
   -9.6747   -0.7914    0.0000 O   0  0  0  0  0  0  0  0  0  0  0  0
   -3.2722   -2.1174    0.0000 C   0  0  0  0  0  0  0  0  0  0  0  0
   -2.1626   -3.1267    0.0000 C   0  0  0  0  0  0  0  0  0  0  0  0
   -0.8598   -2.3833    0.0000 C   0  0  0  0  0  0  0  0  0  0  0  0
   -1.1643   -0.9145    0.0000 C   0  0  0  0  0  0  0  0  0  0  0  0
   -0.2765    0.2946    0.0000 C   0  0  0  0  0  0  0  0  0  0  0  0
    1.2145    0.1303    0.0000 C   0  0  0  0  0  0  0  0  0  0  0  0
    1.8177   -1.2431    0.0000 O   0  0  0  0  0  0  0  0  0  0  0  0
    3.3087   -1.4073    0.0000 C   0  0  0  0  0  0  0  0  0  0  0  0
    3.9119   -2.7807    0.0000 O   0  0  0  0  0  0  0  0  0  0  0  0
    5.4029   -2.9450    0.0000 C   0  0  0  0  0  0  0  0  0  0  0  0
    6.0061   -4.3184    0.0000 C   0  0  0  0  0  0  0  0  0  0  0  0
    5.1183   -5.5274    0.0000 O   0  0  0  0  0  0  0  0  0  0  0  0
    6.2906   -1.7359    0.0000 C   0  0  0  0  0  0  0  0  0  0  0  0
    7.7816   -1.9002    0.0000 O   0  0  0  0  0  0  0  0  0  0  0  0
    5.6874   -0.3625    0.0000 C   0  0  0  0  0  0  0  0  0  0  0  0
    6.5752    0.8465    0.0000 O   0  0  0  0  0  0  0  0  0  0  0  0
    4.1964   -0.1983    0.0000 C   0  0  0  0  0  0  0  0  0  0  0  0
    3.5932    1.1751    0.0000 O   0  0  0  0  0  0  0  0  0  0  0  0
    2.1022    1.3394    0.0000 O   0  0  0  0  0  0  0  0  0  0  0  0
    1.4990    2.7128    0.0000 C   0  0  0  0  0  0  0  0  0  0  0  0
    2.3868    3.9218    0.0000 C   0  0  0  0  0  0  0  0  0  0  0  0
    1.7836    5.2952    0.0000 C   0  0  0  0  0  0  0  0  0  0  0  0
    2.6713    6.5043    0.0000 O   0  0  0  0  0  0  0  0  0  0  0  0
    0.2926    5.4595    0.0000 C   0  0  0  0  0  0  0  0  0  0  0  0
   -0.5952    4.2504    0.0000 C   0  0  0  0  0  0  0  0  0  0  0  0
    0.0081    2.8770    0.0000 C   0  0  0  0  0  0  0  0  0  0  0  0
   -1.4829    3.0413    0.0000 C   0  0  0  0  0  0  0  0  0  0  0  0
   -0.8797    1.6680    0.0000 C   0  0  0  0  0  0  0  0  0  0  0  0
   -2.3707    1.8322    0.0000 C   0  0  0  0  0  0  0  0  0  0  0  0
   -3.2584    0.6232    0.0000 C   0  0  0  0  0  0  0  0  0  0  0  0
   -2.6552   -0.7502    0.0000 C   0  0  0  0  0  0  0  0  0  0  0  0
   -4.1552   -0.7427    0.0000 C   0  0  0  0  0  0  0  0  0  0  0  0
  2  1  1  6
  2  3  1  0
  3  4  1  0
  4  5  1  0
  5  6  2  0
  5  7  1  0
  2  8  1  0
  8  9  1  6
  9 10  1  0
 11 10  1  6
 11 12  1  0
 12 13  1  1
 13 14  1  6
 15 14  1  1
 15 16  1  0
 16 17  1  0
 17 18  1  1
 18 19  1  0
 17 20  1  0
 20 21  1  6
 20 22  1  0
 22 23  1  1
 22 24  1  0
 24 25  1  6
 13 26  1  0
 26 27  1  0
 27 28  1  1
 28 29  1  0
 29 30  1  1
 29 31  1  0
 31 32  1  0
 32 33  1  0
 33 34  1  6
 33 35  1  0
 35 36  1  6
 36 37  1  0
 37 38  1  0
 38 39  1  6
 38  8  1  0
 38 11  1  0
 35 12  1  0
 24 15  1  0
 33 27  1  0
M  END
>  <MS_ID>  (3357) 
MS3497

>  <SMILES>  (3357) 
C[C@H](CCC(=O)O)[C@H]1CC[C@H]2[C@@H]3[C@@H](O[C@@H]4O[C@H](CO)[C@@H](O)[C@H](O)[C@H]4O)O[C@@H]4C[C@H](O)CC[C@]4(C)[C@H]3CC[C@]12C

>  <Structure_dimension>  (3357) 
2D

$$$$
MS3498
     RDKit          2D

 25 28  0  0  0  0  0  0  0  0999 V2000
    1.7479   -1.4680    0.0000 C   0  0  0  0  0  0  0  0  0  0  0  0
    2.6075   -0.2388    0.0000 C   0  0  0  0  0  0  0  0  0  0  0  0
    3.2422   -1.5979    0.0000 C   0  0  0  0  0  0  0  0  0  0  0  0
    4.7366   -1.7278    0.0000 C   0  0  0  0  0  0  0  0  0  0  0  0
    5.5963   -0.4986    0.0000 C   0  0  0  0  0  0  0  0  0  0  0  0
    7.0906   -0.6285    0.0000 O   0  0  0  0  0  0  0  0  0  0  0  0
    4.9616    0.8605    0.0000 C   0  0  0  0  0  0  0  0  0  0  0  0
    3.4672    0.9904    0.0000 C   0  0  0  0  0  0  0  0  0  0  0  0
    2.8325    2.3495    0.0000 C   0  0  0  0  0  0  0  0  0  0  0  0
    1.3381    2.4794    0.0000 C   0  0  0  0  0  0  0  0  0  0  0  0
    0.4785    1.2502    0.0000 C   0  0  0  0  0  0  0  0  0  0  0  0
    1.1132   -0.1089    0.0000 C   0  0  0  0  0  0  0  0  0  0  0  0
    0.2535   -1.3382    0.0000 C   0  0  0  0  0  0  0  0  0  0  0  0
   -1.2409   -1.2083    0.0000 C   0  0  0  0  0  0  0  0  0  0  0  0
   -2.1005   -2.4375    0.0000 O   0  0  0  0  0  0  0  0  0  0  0  0
   -1.8756    0.1508    0.0000 C   0  0  0  0  0  0  0  0  0  0  0  0
   -2.8590   -0.9818    0.0000 C   0  0  0  0  0  0  0  0  0  0  0  0
   -3.3103    0.5886    0.0000 C   0  0  0  0  0  0  0  0  0  0  0  0
   -4.5077   -0.3148    0.0000 C   0  0  0  0  0  0  0  0  0  0  0  0
   -4.3241   -1.8035    0.0000 O   0  0  0  0  0  0  0  0  0  0  0  0
   -5.8888    0.2705    0.0000 C   0  0  0  0  0  0  0  0  0  0  0  0
   -7.0862   -0.6329    0.0000 O   0  0  0  0  0  0  0  0  0  0  0  0
   -3.3373    2.0883    0.0000 C   0  0  0  0  0  0  0  0  0  0  0  0
   -1.9193    2.5775    0.0000 C   0  0  0  0  0  0  0  0  0  0  0  0
   -1.0159    1.3800    0.0000 C   0  0  0  0  0  0  0  0  0  0  0  0
  2  1  1  1
  2  3  1  0
  3  4  1  0
  4  5  1  0
  5  6  2  0
  5  7  1  0
  8  7  1  6
  8  9  1  0
  9 10  1  0
 11 10  1  6
 11 12  1  0
 12 13  1  1
 13 14  1  0
 14 15  1  6
 14 16  1  0
 16 17  1  1
 16 18  1  0
 18 19  1  0
 19 20  1  6
 19 21  1  0
 21 22  1  0
 18 23  1  1
 23 24  1  0
 25 24  1  1
  8  2  1  0
 25 11  1  0
 12  2  1  0
 25 16  1  0
M  END
>  <MS_ID>  (3358) 
MS3498

>  <SMILES>  (3358) 
C[C@]12CCC(=O)C[C@H]1CC[C@@H]1[C@@H]2C[C@H](O)[C@]2(C)[C@@H]([C@H](O)CO)CC[C@@H]12

>  <Structure_dimension>  (3358) 
2D

$$$$
MS3499
     RDKit          2D

 28 31  0  0  0  0  0  0  0  0999 V2000
   -5.1275   -2.0302    0.0000 C   0  0  0  0  0  0  0  0  0  0  0  0
   -3.9468   -1.1050    0.0000 C   0  0  0  0  0  0  0  0  0  0  0  0
   -4.1576    0.3801    0.0000 C   0  0  0  0  0  0  0  0  0  0  0  0
   -5.5492    0.9401    0.0000 C   0  0  0  0  0  0  0  0  0  0  0  0
   -5.7600    2.4252    0.0000 C   0  0  0  0  0  0  0  0  0  0  0  0
   -4.5793    3.3503    0.0000 O   0  0  0  0  0  0  0  0  0  0  0  0
   -7.1516    2.9851    0.0000 O   0  0  0  0  0  0  0  0  0  0  0  0
   -2.5552   -1.6650    0.0000 C   0  0  0  0  0  0  0  0  0  0  0  0
   -2.1903   -3.1199    0.0000 C   0  0  0  0  0  0  0  0  0  0  0  0
   -0.6938   -3.2225    0.0000 S   0  0  0  0  0  0  0  0  0  0  0  0
   -0.1339   -1.8309    0.0000 C   0  0  0  0  0  0  0  0  0  0  0  0
    1.2750   -1.3159    0.0000 C   0  0  0  0  0  0  0  0  0  0  0  0
    2.4254   -2.2785    0.0000 C   0  0  0  0  0  0  0  0  0  0  0  0
    2.1670   -3.7560    0.0000 O   0  0  0  0  0  0  0  0  0  0  0  0
    3.8342   -1.7635    0.0000 C   0  0  0  0  0  0  0  0  0  0  0  0
    4.0926   -0.2859    0.0000 C   0  0  0  0  0  0  0  0  0  0  0  0
    5.5014    0.2291    0.0000 C   0  0  0  0  0  0  0  0  0  0  0  0
    5.7598    1.7067    0.0000 C   0  0  0  0  0  0  0  0  0  0  0  0
    7.1687    2.2217    0.0000 O   0  0  0  0  0  0  0  0  0  0  0  0
    4.6094    2.6692    0.0000 C   0  0  0  0  0  0  0  0  0  0  0  0
    3.2006    2.1542    0.0000 C   0  0  0  0  0  0  0  0  0  0  0  0
    2.9422    0.6767    0.0000 C   0  0  0  0  0  0  0  0  0  0  0  0
    1.7918    1.6392    0.0000 C   0  0  0  0  0  0  0  0  0  0  0  0
    1.5334    0.1617    0.0000 C   0  0  0  0  0  0  0  0  0  0  0  0
    0.3830    1.1242    0.0000 C   0  0  0  0  0  0  0  0  0  0  0  0
   -1.0259    0.6093    0.0000 C   0  0  0  0  0  0  0  0  0  0  0  0
   -1.2843   -0.8683    0.0000 C   0  0  0  0  0  0  0  0  0  0  0  0
   -2.5290   -0.0313    0.0000 C   0  0  0  0  0  0  0  0  0  0  0  0
  2  1  1  6
  2  3  1  0
  3  4  1  0
  4  5  1  0
  5  6  2  0
  5  7  1  0
  2  8  1  0
  8  9  1  6
  9 10  1  0
 11 10  1  6
 11 12  1  0
 12 13  1  1
 13 14  1  6
 13 15  1  0
 16 15  1  1
 16 17  1  0
 17 18  1  0
 18 19  1  1
 18 20  1  0
 20 21  1  0
 21 22  1  0
 22 23  1  6
 22 24  1  0
 24 25  1  6
 25 26  1  0
 26 27  1  0
 27 28  1  6
 27  8  1  0
 27 11  1  0
 24 12  1  0
 22 16  1  0
M  END
>  <MS_ID>  (3359) 
MS3499

>  <SMILES>  (3359) 
C[C@H](CCC(=O)O)[C@H]1CS[C@H]2[C@@H]3[C@@H](O)C[C@@H]4C[C@H](O)CC[C@]4(C)[C@H]3CC[C@]12C

>  <Structure_dimension>  (3359) 
2D

$$$$
MS3500
     RDKit          2D

 28 31  0  0  0  0  0  0  0  0999 V2000
   -5.1275   -2.0302    0.0000 C   0  0  0  0  0  0  0  0  0  0  0  0
   -3.9468   -1.1050    0.0000 C   0  0  0  0  0  0  0  0  0  0  0  0
   -4.1576    0.3801    0.0000 C   0  0  0  0  0  0  0  0  0  0  0  0
   -5.5492    0.9401    0.0000 C   0  0  0  0  0  0  0  0  0  0  0  0
   -5.7600    2.4252    0.0000 C   0  0  0  0  0  0  0  0  0  0  0  0
   -4.5793    3.3503    0.0000 O   0  0  0  0  0  0  0  0  0  0  0  0
   -7.1516    2.9851    0.0000 O   0  0  0  0  0  0  0  0  0  0  0  0
   -2.5552   -1.6650    0.0000 C   0  0  0  0  0  0  0  0  0  0  0  0
   -2.1903   -3.1199    0.0000 C   0  0  0  0  0  0  0  0  0  0  0  0
   -0.6938   -3.2225    0.0000 C   0  0  0  0  0  0  0  0  0  0  0  0
   -0.1339   -1.8309    0.0000 C   0  0  0  0  0  0  0  0  0  0  0  0
    1.2750   -1.3159    0.0000 C   0  0  0  0  0  0  0  0  0  0  0  0
    2.4254   -2.2785    0.0000 C   0  0  0  0  0  0  0  0  0  0  0  0
    2.1670   -3.7560    0.0000 O   0  0  0  0  0  0  0  0  0  0  0  0
    3.8342   -1.7635    0.0000 C   0  0  0  0  0  0  0  0  0  0  0  0
    4.0926   -0.2859    0.0000 C   0  0  0  0  0  0  0  0  0  0  0  0
    5.5014    0.2291    0.0000 C   0  0  0  0  0  0  0  0  0  0  0  0
    5.7598    1.7067    0.0000 C   0  0  0  0  0  0  0  0  0  0  0  0
    7.1687    2.2217    0.0000 O   0  0  0  0  0  0  0  0  0  0  0  0
    4.6094    2.6692    0.0000 N   0  0  0  0  0  0  0  0  0  0  0  0
    3.2006    2.1542    0.0000 C   0  0  0  0  0  0  0  0  0  0  0  0
    2.9422    0.6767    0.0000 C   0  0  0  0  0  0  0  0  0  0  0  0
    1.7918    1.6392    0.0000 C   0  0  0  0  0  0  0  0  0  0  0  0
    1.5334    0.1617    0.0000 C   0  0  0  0  0  0  0  0  0  0  0  0
    0.3830    1.1242    0.0000 C   0  0  0  0  0  0  0  0  0  0  0  0
   -1.0259    0.6093    0.0000 C   0  0  0  0  0  0  0  0  0  0  0  0
   -1.2843   -0.8683    0.0000 C   0  0  0  0  0  0  0  0  0  0  0  0
   -2.5290   -0.0313    0.0000 C   0  0  0  0  0  0  0  0  0  0  0  0
  2  1  1  6
  2  3  1  0
  3  4  1  0
  4  5  1  0
  5  6  2  0
  5  7  1  0
  2  8  1  0
  8  9  1  6
  9 10  1  0
 11 10  1  6
 11 12  1  0
 12 13  1  1
 13 14  1  6
 13 15  1  0
 16 15  1  1
 16 17  1  0
 17 18  1  0
 18 19  1  1
 18 20  1  0
 20 21  1  0
 21 22  1  0
 22 23  1  6
 22 24  1  0
 24 25  1  6
 25 26  1  0
 26 27  1  0
 27 28  1  6
 27  8  1  0
 27 11  1  0
 24 12  1  0
 22 16  1  0
M  END
>  <MS_ID>  (3360) 
MS3500

>  <SMILES>  (3360) 
C[C@H](CCC(=O)O)[C@H]1CC[C@H]2[C@@H]3[C@@H](O)C[C@@H]4C[C@H](O)NC[C@]4(C)[C@H]3CC[C@]12C

>  <Structure_dimension>  (3360) 
2D

$$$$
MS3502
     RDKit          2D

 27 30  0  0  0  0  0  0  0  0999 V2000
   -4.7316   -2.2462    0.0000 C   0  0  0  0  0  0  0  0  0  0  0  0
   -3.6106   -1.2495    0.0000 C   0  0  0  0  0  0  0  0  0  0  0  0
   -3.9133    0.2196    0.0000 C   0  0  0  0  0  0  0  0  0  0  0  0
   -5.3370    0.6920    0.0000 C   0  0  0  0  0  0  0  0  0  0  0  0
   -5.6397    2.1612    0.0000 C   0  0  0  0  0  0  0  0  0  0  0  0
   -4.5188    3.1579    0.0000 O   0  0  0  0  0  0  0  0  0  0  0  0
   -7.0634    2.6336    0.0000 O   0  0  0  0  0  0  0  0  0  0  0  0
   -2.1870   -1.7219    0.0000 C   0  0  0  0  0  0  0  0  0  0  0  0
   -1.7323   -3.1514    0.0000 C   0  0  0  0  0  0  0  0  0  0  0  0
   -0.2324   -3.1607    0.0000 C   0  0  0  0  0  0  0  0  0  0  0  0
    0.2401   -1.7371    0.0000 C   0  0  0  0  0  0  0  0  0  0  0  0
    1.6141   -1.1355    0.0000 C   0  0  0  0  0  0  0  0  0  0  0  0
    2.8222   -2.0247    0.0000 C   0  0  0  0  0  0  0  0  0  0  0  0
    2.6561   -3.5155    0.0000 O   0  0  0  0  0  0  0  0  0  0  0  0
    4.1962   -1.4232    0.0000 C   0  0  0  0  0  0  0  0  0  0  0  0
    4.3623    0.0676    0.0000 C   0  0  0  0  0  0  0  0  0  0  0  0
    5.7364    0.6691    0.0000 N   0  0  0  0  0  0  0  0  0  0  0  0
    5.9025    2.1599    0.0000 C   0  0  0  0  0  0  0  0  0  0  0  0
    4.6945    3.0491    0.0000 C   0  0  0  0  0  0  0  0  0  0  0  0
    3.3204    2.4476    0.0000 C   0  0  0  0  0  0  0  0  0  0  0  0
    3.1543    0.9568    0.0000 C   0  0  0  0  0  0  0  0  0  0  0  0
    1.9463    1.8460    0.0000 C   0  0  0  0  0  0  0  0  0  0  0  0
    1.7802    0.3553    0.0000 C   0  0  0  0  0  0  0  0  0  0  0  0
    0.5722    1.2445    0.0000 C   0  0  0  0  0  0  0  0  0  0  0  0
   -0.8019    0.6429    0.0000 C   0  0  0  0  0  0  0  0  0  0  0  0
   -0.9680   -0.8478    0.0000 C   0  0  0  0  0  0  0  0  0  0  0  0
   -2.2623   -0.0897    0.0000 C   0  0  0  0  0  0  0  0  0  0  0  0
  2  1  1  6
  2  3  1  0
  3  4  1  0
  4  5  1  0
  5  6  2  0
  5  7  1  0
  2  8  1  0
  8  9  1  6
  9 10  1  0
 11 10  1  6
 11 12  1  0
 12 13  1  1
 13 14  1  6
 13 15  1  0
 16 15  1  1
 16 17  1  0
 17 18  1  0
 18 19  1  0
 19 20  1  0
 20 21  1  0
 21 22  1  6
 21 23  1  0
 23 24  1  6
 24 25  1  0
 25 26  1  0
 26 27  1  6
 26  8  1  0
 26 11  1  0
 23 12  1  0
 21 16  1  0
M  END
>  <MS_ID>  (3361) 
MS3502

>  <SMILES>  (3361) 
C[C@H](CCC(=O)O)[C@H]1CC[C@H]2[C@@H]3[C@@H](O)C[C@@H]4NCCC[C@]4(C)[C@H]3CC[C@]12C

>  <Structure_dimension>  (3361) 
2D

$$$$
MS3503
     RDKit          2D

 28 31  0  0  0  0  0  0  0  0999 V2000
   -5.1275   -2.0302    0.0000 C   0  0  0  0  0  0  0  0  0  0  0  0
   -3.9468   -1.1050    0.0000 C   0  0  0  0  0  0  0  0  0  0  0  0
   -4.1576    0.3801    0.0000 C   0  0  0  0  0  0  0  0  0  0  0  0
   -5.5492    0.9401    0.0000 C   0  0  0  0  0  0  0  0  0  0  0  0
   -5.7600    2.4252    0.0000 C   0  0  0  0  0  0  0  0  0  0  0  0
   -4.5793    3.3503    0.0000 O   0  0  0  0  0  0  0  0  0  0  0  0
   -7.1516    2.9851    0.0000 O   0  0  0  0  0  0  0  0  0  0  0  0
   -2.5552   -1.6650    0.0000 C   0  0  0  0  0  0  0  0  0  0  0  0
   -2.1903   -3.1199    0.0000 C   0  0  0  0  0  0  0  0  0  0  0  0
   -0.6938   -3.2225    0.0000 C   0  0  0  0  0  0  0  0  0  0  0  0
   -0.1339   -1.8309    0.0000 C   0  0  0  0  0  0  0  0  0  0  0  0
    1.2750   -1.3159    0.0000 C   0  0  0  0  0  0  0  0  0  0  0  0
    2.4254   -2.2785    0.0000 C   0  0  0  0  0  0  0  0  0  0  0  0
    2.1670   -3.7560    0.0000 O   0  0  0  0  0  0  0  0  0  0  0  0
    3.8342   -1.7635    0.0000 C   0  0  0  0  0  0  0  0  0  0  0  0
    4.0926   -0.2859    0.0000 C   0  0  0  0  0  0  0  0  0  0  0  0
    5.5014    0.2291    0.0000 C   0  0  0  0  0  0  0  0  0  0  0  0
    5.7598    1.7067    0.0000 C   0  0  0  0  0  0  0  0  0  0  0  0
    7.1687    2.2217    0.0000 O   0  0  0  0  0  0  0  0  0  0  0  0
    4.6094    2.6692    0.0000 O   0  0  0  0  0  0  0  0  0  0  0  0
    3.2006    2.1542    0.0000 C   0  0  0  0  0  0  0  0  0  0  0  0
    2.9422    0.6767    0.0000 C   0  0  0  0  0  0  0  0  0  0  0  0
    1.7918    1.6392    0.0000 C   0  0  0  0  0  0  0  0  0  0  0  0
    1.5334    0.1617    0.0000 C   0  0  0  0  0  0  0  0  0  0  0  0
    0.3830    1.1242    0.0000 C   0  0  0  0  0  0  0  0  0  0  0  0
   -1.0259    0.6093    0.0000 C   0  0  0  0  0  0  0  0  0  0  0  0
   -1.2843   -0.8683    0.0000 C   0  0  0  0  0  0  0  0  0  0  0  0
   -2.5290   -0.0313    0.0000 C   0  0  0  0  0  0  0  0  0  0  0  0
  2  1  1  6
  2  3  1  0
  3  4  1  0
  4  5  1  0
  5  6  2  0
  5  7  1  0
  2  8  1  0
  8  9  1  6
  9 10  1  0
 11 10  1  6
 11 12  1  0
 12 13  1  1
 13 14  1  6
 13 15  1  0
 16 15  1  1
 16 17  1  0
 17 18  1  0
 18 19  1  1
 18 20  1  0
 20 21  1  0
 21 22  1  0
 22 23  1  6
 22 24  1  0
 24 25  1  6
 25 26  1  0
 26 27  1  0
 27 28  1  6
 27  8  1  0
 27 11  1  0
 24 12  1  0
 22 16  1  0
M  END
>  <MS_ID>  (3362) 
MS3503

>  <SMILES>  (3362) 
C[C@H](CCC(=O)O)[C@H]1CC[C@H]2[C@@H]3[C@@H](O)C[C@@H]4C[C@H](O)OC[C@]4(C)[C@H]3CC[C@]12C

>  <Structure_dimension>  (3362) 
2D

$$$$
MS3504
     RDKit          2D

 35 39  0  0  0  0  0  0  0  0999 V2000
   -8.8708   -1.0079    0.0000 C   0  0  0  0  0  0  0  0  0  0  0  0
   -7.6050   -0.2031    0.0000 C   0  0  0  0  0  0  0  0  0  0  0  0
   -7.6690    1.2955    0.0000 O   0  0  0  0  0  0  0  0  0  0  0  0
   -6.2751   -0.8969    0.0000 C   0  0  0  0  0  0  0  0  0  0  0  0
   -6.0548   -2.3807    0.0000 C   0  0  0  0  0  0  0  0  0  0  0  0
   -4.5756   -2.6296    0.0000 C   0  0  0  0  0  0  0  0  0  0  0  0
   -3.8817   -1.2997    0.0000 C   0  0  0  0  0  0  0  0  0  0  0  0
   -2.4291   -0.9255    0.0000 C   0  0  0  0  0  0  0  0  0  0  0  0
   -1.3788   -1.9963    0.0000 C   0  0  0  0  0  0  0  0  0  0  0  0
    0.0738   -1.6221    0.0000 C   0  0  0  0  0  0  0  0  0  0  0  0
    0.4760   -0.1770    0.0000 C   0  0  0  0  0  0  0  0  0  0  0  0
    1.9286    0.1972    0.0000 C   0  0  0  0  0  0  0  0  0  0  0  0
    2.3307    1.6423    0.0000 C   0  0  0  0  0  0  0  0  0  0  0  0
    3.7833    2.0165    0.0000 O   0  0  0  0  0  0  0  0  0  0  0  0
    4.8337    0.9457    0.0000 C   0  0  0  0  0  0  0  0  0  0  0  0
    4.4315   -0.4994    0.0000 O   0  0  0  0  0  0  0  0  0  0  0  0
    5.4819   -1.5702    0.0000 C   0  0  0  0  0  0  0  0  0  0  0  0
    5.0797   -3.0153    0.0000 C   0  0  0  0  0  0  0  0  0  0  0  0
    3.6271   -3.3895    0.0000 O   0  0  0  0  0  0  0  0  0  0  0  0
    6.9344   -1.1960    0.0000 C   0  0  0  0  0  0  0  0  0  0  0  0
    7.9848   -2.2668    0.0000 O   0  0  0  0  0  0  0  0  0  0  0  0
    7.3366    0.2491    0.0000 C   0  0  0  0  0  0  0  0  0  0  0  0
    8.7892    0.6233    0.0000 O   0  0  0  0  0  0  0  0  0  0  0  0
    6.2863    1.3199    0.0000 C   0  0  0  0  0  0  0  0  0  0  0  0
    6.6884    2.7650    0.0000 O   0  0  0  0  0  0  0  0  0  0  0  0
    1.2804    2.7131    0.0000 C   0  0  0  0  0  0  0  0  0  0  0  0
   -0.1722    2.3389    0.0000 C   0  0  0  0  0  0  0  0  0  0  0  0
   -0.5744    0.8938    0.0000 C   0  0  0  0  0  0  0  0  0  0  0  0
   -1.6248    1.9647    0.0000 C   0  0  0  0  0  0  0  0  0  0  0  0
   -2.0270    0.5196    0.0000 C   0  0  0  0  0  0  0  0  0  0  0  0
   -3.0773    1.5904    0.0000 C   0  0  0  0  0  0  0  0  0  0  0  0
   -4.5299    1.2162    0.0000 C   0  0  0  0  0  0  0  0  0  0  0  0
   -5.5803    2.2870    0.0000 O   0  0  0  0  0  0  0  0  0  0  0  0
   -4.9321   -0.2289    0.0000 C   0  0  0  0  0  0  0  0  0  0  0  0
   -6.0886    0.7263    0.0000 C   0  0  0  0  0  0  0  0  0  0  0  0
  1  2  1  0
  2  3  2  0
  4  2  1  6
  4  5  1  0
  5  6  1  0
  7  6  1  6
  7  8  1  0
  8  9  1  1
  9 10  1  0
 11 10  1  1
 11 12  1  0
 12 13  1  0
 13 14  1  1
 15 14  1  1
 15 16  1  0
 16 17  1  0
 17 18  1  1
 18 19  1  0
 17 20  1  0
 20 21  1  6
 20 22  1  0
 22 23  1  1
 22 24  1  0
 24 25  1  6
 13 26  1  0
 26 27  1  0
 27 28  1  0
 28 29  1  6
 28 30  1  0
 30 31  1  6
 31 32  1  0
 32 33  2  0
 32 34  1  0
 34 35  1  6
 34  4  1  0
 34  7  1  0
 30  8  1  0
 28 11  1  0
 24 15  1  0
M  END
>  <MS_ID>  (3363) 
MS3504

>  <SMILES>  (3363) 
CC(=O)[C@H]1CC[C@H]2[C@@H]3CC[C@@H]4C[C@H](O[C@@H]5O[C@H](CO)[C@@H](O)[C@H](O)[C@H]5O)CC[C@]4(C)[C@H]3CC(=O)[C@]12C

>  <Structure_dimension>  (3363) 
2D

$$$$
MS3505
     RDKit          2D

 28 31  0  0  0  0  0  0  0  0999 V2000
   -5.1275   -2.0302    0.0000 C   0  0  0  0  0  0  0  0  0  0  0  0
   -3.9468   -1.1050    0.0000 C   0  0  0  0  0  0  0  0  0  0  0  0
   -4.1576    0.3801    0.0000 O   0  0  0  0  0  0  0  0  0  0  0  0
   -5.5492    0.9401    0.0000 C   0  0  0  0  0  0  0  0  0  0  0  0
   -5.7600    2.4252    0.0000 C   0  0  0  0  0  0  0  0  0  0  0  0
   -4.5793    3.3503    0.0000 O   0  0  0  0  0  0  0  0  0  0  0  0
   -7.1516    2.9851    0.0000 O   0  0  0  0  0  0  0  0  0  0  0  0
   -2.5552   -1.6650    0.0000 C   0  0  0  0  0  0  0  0  0  0  0  0
   -2.1903   -3.1199    0.0000 C   0  0  0  0  0  0  0  0  0  0  0  0
   -0.6938   -3.2225    0.0000 C   0  0  0  0  0  0  0  0  0  0  0  0
   -0.1339   -1.8309    0.0000 C   0  0  0  0  0  0  0  0  0  0  0  0
    1.2750   -1.3159    0.0000 C   0  0  0  0  0  0  0  0  0  0  0  0
    2.4254   -2.2785    0.0000 C   0  0  0  0  0  0  0  0  0  0  0  0
    2.1670   -3.7560    0.0000 O   0  0  0  0  0  0  0  0  0  0  0  0
    3.8342   -1.7635    0.0000 C   0  0  0  0  0  0  0  0  0  0  0  0
    4.0926   -0.2859    0.0000 C   0  0  0  0  0  0  0  0  0  0  0  0
    5.5014    0.2291    0.0000 C   0  0  0  0  0  0  0  0  0  0  0  0
    5.7598    1.7067    0.0000 C   0  0  0  0  0  0  0  0  0  0  0  0
    7.1687    2.2217    0.0000 O   0  0  0  0  0  0  0  0  0  0  0  0
    4.6094    2.6692    0.0000 C   0  0  0  0  0  0  0  0  0  0  0  0
    3.2006    2.1542    0.0000 C   0  0  0  0  0  0  0  0  0  0  0  0
    2.9422    0.6767    0.0000 C   0  0  0  0  0  0  0  0  0  0  0  0
    1.7918    1.6392    0.0000 C   0  0  0  0  0  0  0  0  0  0  0  0
    1.5334    0.1617    0.0000 C   0  0  0  0  0  0  0  0  0  0  0  0
    0.3830    1.1242    0.0000 C   0  0  0  0  0  0  0  0  0  0  0  0
   -1.0259    0.6093    0.0000 C   0  0  0  0  0  0  0  0  0  0  0  0
   -1.2843   -0.8683    0.0000 C   0  0  0  0  0  0  0  0  0  0  0  0
   -2.5290   -0.0313    0.0000 C   0  0  0  0  0  0  0  0  0  0  0  0
  2  1  1  6
  2  3  1  0
  3  4  1  0
  4  5  1  0
  5  6  2  0
  5  7  1  0
  2  8  1  0
  8  9  1  6
  9 10  1  0
 11 10  1  6
 11 12  1  0
 12 13  1  1
 13 14  1  6
 13 15  1  0
 16 15  1  1
 16 17  1  0
 17 18  1  0
 18 19  1  1
 18 20  1  0
 20 21  1  0
 21 22  1  0
 22 23  1  6
 22 24  1  0
 24 25  1  6
 25 26  1  0
 26 27  1  0
 27 28  1  6
 27  8  1  0
 27 11  1  0
 24 12  1  0
 22 16  1  0
M  END
>  <MS_ID>  (3364) 
MS3505

>  <SMILES>  (3364) 
C[C@H](OCC(=O)O)[C@H]1CC[C@H]2[C@@H]3[C@@H](O)C[C@@H]4C[C@H](O)CC[C@]4(C)[C@H]3CC[C@]12C

>  <Structure_dimension>  (3364) 
2D

$$$$
MS3506
     RDKit          2D

 29 32  0  0  0  0  0  0  0  0999 V2000
   -5.2401   -2.0328    0.0000 C   0  0  0  0  0  0  0  0  0  0  0  0
   -4.0410   -1.1316    0.0000 C   0  0  0  0  0  0  0  0  0  0  0  0
   -4.2220    0.3575    0.0000 C   0  0  0  0  0  0  0  0  0  0  0  0
   -5.6020    0.9453    0.0000 C   0  0  0  0  0  0  0  0  0  0  0  0
   -5.7830    2.4343    0.0000 C   0  0  0  0  0  0  0  0  0  0  0  0
   -4.5839    3.3355    0.0000 O   0  0  0  0  0  0  0  0  0  0  0  0
   -7.1630    3.0221    0.0000 O   0  0  0  0  0  0  0  0  0  0  0  0
   -2.6610   -1.7194    0.0000 C   0  0  0  0  0  0  0  0  0  0  0  0
   -2.3254   -3.1813    0.0000 C   0  0  0  0  0  0  0  0  0  0  0  0
   -0.8312   -3.3139    0.0000 C   0  0  0  0  0  0  0  0  0  0  0  0
   -0.2434   -1.9339    0.0000 C   0  0  0  0  0  0  0  0  0  0  0  0
    1.1754   -1.4473    0.0000 C   0  0  0  0  0  0  0  0  0  0  0  0
    2.3063   -2.4327    0.0000 C   0  0  0  0  0  0  0  0  0  0  0  0
    2.0183   -3.9048    0.0000 O   0  0  0  0  0  0  0  0  0  0  0  0
    3.7252   -1.9461    0.0000 C   0  0  0  0  0  0  0  0  0  0  0  0
    4.0132   -0.4740    0.0000 C   0  0  0  0  0  0  0  0  0  0  0  0
    5.4321    0.0126    0.0000 C   0  0  0  0  0  0  0  0  0  0  0  0
    5.7201    1.4846    0.0000 C   0  0  0  0  0  0  0  0  0  0  0  0
    7.1390    1.9713    0.0000 O   0  0  0  0  0  0  0  0  0  0  0  0
    4.5892    2.4701    0.0000 C   0  0  0  0  0  0  0  0  0  0  0  0
    3.1704    1.9835    0.0000 C   0  0  0  0  0  0  0  0  0  0  0  0
    2.8823    0.5114    0.0000 C   0  0  0  0  0  0  0  0  0  0  0  0
    1.7515    1.4969    0.0000 O   0  0  0  0  0  0  0  0  0  0  0  0
    2.0395    2.9690    0.0000 O   0  0  0  0  0  0  0  0  0  0  0  0
    1.4635    0.0248    0.0000 C   0  0  0  0  0  0  0  0  0  0  0  0
    0.3326    1.0103    0.0000 C   0  0  0  0  0  0  0  0  0  0  0  0
   -1.0863    0.5237    0.0000 C   0  0  0  0  0  0  0  0  0  0  0  0
   -1.3743   -0.9484    0.0000 C   0  0  0  0  0  0  0  0  0  0  0  0
   -2.6020   -0.0865    0.0000 C   0  0  0  0  0  0  0  0  0  0  0  0
  2  1  1  6
  2  3  1  0
  3  4  1  0
  4  5  1  0
  5  6  2  0
  5  7  1  0
  2  8  1  0
  8  9  1  6
  9 10  1  0
 11 10  1  6
 11 12  1  0
 12 13  1  1
 13 14  1  6
 13 15  1  0
 16 15  1  1
 16 17  1  0
 17 18  1  0
 18 19  1  1
 18 20  1  0
 20 21  1  0
 21 22  1  0
 22 23  1  6
 23 24  1  0
 22 25  1  0
 25 26  1  6
 26 27  1  0
 27 28  1  0
 28 29  1  6
 28  8  1  0
 28 11  1  0
 25 12  1  0
 22 16  1  0
M  END
>  <MS_ID>  (3365) 
MS3506

>  <SMILES>  (3365) 
C[C@H](CCC(=O)O)[C@H]1CC[C@H]2[C@@H]3[C@@H](O)C[C@@H]4C[C@H](O)CC[C@]4(OO)[C@H]3CC[C@]12C

>  <Structure_dimension>  (3365) 
2D

$$$$
MS3507
     RDKit          2D

 25 28  0  0  0  0  0  0  0  0999 V2000
   -6.9587    1.1861    0.0000 C   0  0  0  0  0  0  0  0  0  0  0  0
   -5.8163    0.2140    0.0000 C   0  0  0  0  0  0  0  0  0  0  0  0
   -6.0871   -1.2614    0.0000 O   0  0  0  0  0  0  0  0  0  0  0  0
   -4.4033    0.7172    0.0000 O   0  0  0  0  0  0  0  0  0  0  0  0
   -3.2609   -0.2550    0.0000 C   0  0  0  0  0  0  0  0  0  0  0  0
   -3.3760   -1.7506    0.0000 C   0  0  0  0  0  0  0  0  0  0  0  0
   -1.9892   -2.3222    0.0000 C   0  0  0  0  0  0  0  0  0  0  0  0
   -1.0170   -1.1798    0.0000 C   0  0  0  0  0  0  0  0  0  0  0  0
    0.4824   -1.1379    0.0000 C   0  0  0  0  0  0  0  0  0  0  0  0
    1.2684   -2.4155    0.0000 C   0  0  0  0  0  0  0  0  0  0  0  0
    2.7678   -2.3736    0.0000 C   0  0  0  0  0  0  0  0  0  0  0  0
    3.4812   -1.0541    0.0000 C   0  0  0  0  0  0  0  0  0  0  0  0
    4.9806   -1.0122    0.0000 C   0  0  0  0  0  0  0  0  0  0  0  0
    5.6941    0.3072    0.0000 C   0  0  0  0  0  0  0  0  0  0  0  0
    7.1935    0.3492    0.0000 O   0  0  0  0  0  0  0  0  0  0  0  0
    4.9081    1.5848    0.0000 C   0  0  0  0  0  0  0  0  0  0  0  0
    3.4087    1.5429    0.0000 C   0  0  0  0  0  0  0  0  0  0  0  0
    2.6952    0.2234    0.0000 C   0  0  0  0  0  0  0  0  0  0  0  0
    1.9092    1.5010    0.0000 C   0  0  0  0  0  0  0  0  0  0  0  0
    1.1958    0.1815    0.0000 C   0  0  0  0  0  0  0  0  0  0  0  0
    0.4098    1.4591    0.0000 C   0  0  0  0  0  0  0  0  0  0  0  0
   -1.0896    1.4172    0.0000 C   0  0  0  0  0  0  0  0  0  0  0  0
   -1.8756    2.6948    0.0000 O   0  0  0  0  0  0  0  0  0  0  0  0
   -1.8030    0.0977    0.0000 C   0  0  0  0  0  0  0  0  0  0  0  0
   -2.7182    1.2862    0.0000 C   0  0  0  0  0  0  0  0  0  0  0  0
  1  2  1  0
  2  3  2  0
  2  4  1  0
  5  4  1  6
  5  6  1  0
  6  7  1  0
  8  7  1  6
  8  9  1  0
  9 10  1  1
 10 11  1  0
 12 11  1  1
 12 13  1  0
 13 14  1  0
 14 15  1  1
 14 16  1  0
 16 17  1  0
 17 18  1  0
 18 19  1  6
 18 20  1  0
 20 21  1  6
 21 22  1  0
 22 23  1  1
 22 24  1  0
 24 25  1  6
 24  5  1  0
 24  8  1  0
 20  9  1  0
 18 12  1  0
M  END
>  <MS_ID>  (3366) 
MS3507

>  <SMILES>  (3366) 
CC(=O)O[C@H]1CC[C@H]2[C@@H]3CC[C@@H]4C[C@H](O)CC[C@]4(C)[C@H]3C[C@H](O)[C@]12C

>  <Structure_dimension>  (3366) 
2D

$$$$
MS3508
     RDKit          2D

 28 31  0  0  0  0  0  0  0  0999 V2000
   -5.1275   -2.0302    0.0000 C   0  0  0  0  0  0  0  0  0  0  0  0
   -3.9468   -1.1050    0.0000 C   0  0  0  0  0  0  0  0  0  0  0  0
   -4.1576    0.3801    0.0000 C   0  0  0  0  0  0  0  0  0  0  0  0
   -5.5492    0.9401    0.0000 C   0  0  0  0  0  0  0  0  0  0  0  0
   -5.7600    2.4252    0.0000 C   0  0  0  0  0  0  0  0  0  0  0  0
   -4.5793    3.3503    0.0000 O   0  0  0  0  0  0  0  0  0  0  0  0
   -7.1516    2.9851    0.0000 O   0  0  0  0  0  0  0  0  0  0  0  0
   -2.5552   -1.6650    0.0000 C   0  0  0  0  0  0  0  0  0  0  0  0
   -2.1903   -3.1199    0.0000 C   0  0  0  0  0  0  0  0  0  0  0  0
   -0.6938   -3.2225    0.0000 C   0  0  0  0  0  0  0  0  0  0  0  0
   -0.1339   -1.8309    0.0000 C   0  0  0  0  0  0  0  0  0  0  0  0
    1.2750   -1.3159    0.0000 C   0  0  0  0  0  0  0  0  0  0  0  0
    2.4254   -2.2785    0.0000 C   0  0  0  0  0  0  0  0  0  0  0  0
    2.1670   -3.7560    0.0000 O   0  0  0  0  0  0  0  0  0  0  0  0
    3.8342   -1.7635    0.0000 C   0  0  0  0  0  0  0  0  0  0  0  0
    4.0926   -0.2859    0.0000 C   0  0  0  0  0  0  0  0  0  0  0  0
    5.5014    0.2291    0.0000 C   0  0  0  0  0  0  0  0  0  0  0  0
    5.7598    1.7067    0.0000 C   0  0  0  0  0  0  0  0  0  0  0  0
    7.1687    2.2217    0.0000 O   0  0  0  0  0  0  0  0  0  0  0  0
    4.6094    2.6692    0.0000 C   0  0  0  0  0  0  0  0  0  0  0  0
    3.2006    2.1542    0.0000 S   0  0  0  0  0  0  0  0  0  0  0  0
    2.9422    0.6767    0.0000 C   0  0  0  0  0  0  0  0  0  0  0  0
    1.7918    1.6392    0.0000 C   0  0  0  0  0  0  0  0  0  0  0  0
    1.5334    0.1617    0.0000 C   0  0  0  0  0  0  0  0  0  0  0  0
    0.3830    1.1242    0.0000 C   0  0  0  0  0  0  0  0  0  0  0  0
   -1.0259    0.6093    0.0000 C   0  0  0  0  0  0  0  0  0  0  0  0
   -1.2843   -0.8683    0.0000 C   0  0  0  0  0  0  0  0  0  0  0  0
   -2.5290   -0.0313    0.0000 C   0  0  0  0  0  0  0  0  0  0  0  0
  2  1  1  6
  2  3  1  0
  3  4  1  0
  4  5  1  0
  5  6  2  0
  5  7  1  0
  2  8  1  0
  8  9  1  6
  9 10  1  0
 11 10  1  6
 11 12  1  0
 12 13  1  1
 13 14  1  6
 13 15  1  0
 16 15  1  1
 16 17  1  0
 17 18  1  0
 18 19  1  1
 18 20  1  0
 20 21  1  0
 21 22  1  0
 22 23  1  6
 22 24  1  0
 24 25  1  6
 25 26  1  0
 26 27  1  0
 27 28  1  6
 27  8  1  0
 27 11  1  0
 24 12  1  0
 22 16  1  0
M  END
>  <MS_ID>  (3367) 
MS3508

>  <SMILES>  (3367) 
C[C@H](CCC(=O)O)[C@H]1CC[C@H]2[C@@H]3[C@@H](O)C[C@@H]4C[C@H](O)CS[C@]4(C)[C@H]3CC[C@]12C

>  <Structure_dimension>  (3367) 
2D

$$$$
MS3509
     RDKit          2D

 28 31  0  0  0  0  0  0  0  0999 V2000
   -5.1275   -2.0302    0.0000 C   0  0  0  0  0  0  0  0  0  0  0  0
   -3.9468   -1.1050    0.0000 C   0  0  0  0  0  0  0  0  0  0  0  0
   -4.1576    0.3801    0.0000 C   0  0  0  0  0  0  0  0  0  0  0  0
   -5.5492    0.9401    0.0000 C   0  0  0  0  0  0  0  0  0  0  0  0
   -5.7600    2.4252    0.0000 C   0  0  0  0  0  0  0  0  0  0  0  0
   -4.5793    3.3503    0.0000 O   0  0  0  0  0  0  0  0  0  0  0  0
   -7.1516    2.9851    0.0000 O   0  0  0  0  0  0  0  0  0  0  0  0
   -2.5552   -1.6650    0.0000 C   0  0  0  0  0  0  0  0  0  0  0  0
   -2.1903   -3.1199    0.0000 S   0  0  0  0  0  0  0  0  0  0  0  0
   -0.6938   -3.2225    0.0000 C   0  0  0  0  0  0  0  0  0  0  0  0
   -0.1339   -1.8309    0.0000 C   0  0  0  0  0  0  0  0  0  0  0  0
    1.2750   -1.3159    0.0000 C   0  0  0  0  0  0  0  0  0  0  0  0
    2.4254   -2.2785    0.0000 C   0  0  0  0  0  0  0  0  0  0  0  0
    2.1670   -3.7560    0.0000 O   0  0  0  0  0  0  0  0  0  0  0  0
    3.8342   -1.7635    0.0000 C   0  0  0  0  0  0  0  0  0  0  0  0
    4.0926   -0.2859    0.0000 C   0  0  0  0  0  0  0  0  0  0  0  0
    5.5014    0.2291    0.0000 C   0  0  0  0  0  0  0  0  0  0  0  0
    5.7598    1.7067    0.0000 C   0  0  0  0  0  0  0  0  0  0  0  0
    7.1687    2.2217    0.0000 O   0  0  0  0  0  0  0  0  0  0  0  0
    4.6094    2.6692    0.0000 C   0  0  0  0  0  0  0  0  0  0  0  0
    3.2006    2.1542    0.0000 C   0  0  0  0  0  0  0  0  0  0  0  0
    2.9422    0.6767    0.0000 C   0  0  0  0  0  0  0  0  0  0  0  0
    1.7918    1.6392    0.0000 C   0  0  0  0  0  0  0  0  0  0  0  0
    1.5334    0.1617    0.0000 C   0  0  0  0  0  0  0  0  0  0  0  0
    0.3830    1.1242    0.0000 C   0  0  0  0  0  0  0  0  0  0  0  0
   -1.0259    0.6093    0.0000 C   0  0  0  0  0  0  0  0  0  0  0  0
   -1.2843   -0.8683    0.0000 C   0  0  0  0  0  0  0  0  0  0  0  0
   -2.5290   -0.0313    0.0000 C   0  0  0  0  0  0  0  0  0  0  0  0
  2  1  1  6
  2  3  1  0
  3  4  1  0
  4  5  1  0
  5  6  2  0
  5  7  1  0
  2  8  1  0
  8  9  1  6
  9 10  1  0
 11 10  1  6
 11 12  1  0
 12 13  1  1
 13 14  1  6
 13 15  1  0
 16 15  1  1
 16 17  1  0
 17 18  1  0
 18 19  1  1
 18 20  1  0
 20 21  1  0
 21 22  1  0
 22 23  1  6
 22 24  1  0
 24 25  1  6
 25 26  1  0
 26 27  1  0
 27 28  1  6
 27  8  1  0
 27 11  1  0
 24 12  1  0
 22 16  1  0
M  END
>  <MS_ID>  (3368) 
MS3509

>  <SMILES>  (3368) 
C[C@H](CCC(=O)O)[C@H]1SC[C@H]2[C@@H]3[C@@H](O)C[C@@H]4C[C@H](O)CC[C@]4(C)[C@H]3CC[C@]12C

>  <Structure_dimension>  (3368) 
2D

$$$$
MS3510
     RDKit          2D

 24 27  0  0  0  0  0  0  0  0999 V2000
   -5.3978    1.9514    0.0000 C   0  0  0  0  0  0  0  0  0  0  0  0
   -4.0075    1.3885    0.0000 O   0  0  0  0  0  0  0  0  0  0  0  0
   -3.7998   -0.0970    0.0000 C   0  0  0  0  0  0  0  0  0  0  0  0
   -5.2989   -0.1483    0.0000 O   0  0  0  0  0  0  0  0  0  0  0  0
   -3.9055   -1.5933    0.0000 C   0  0  0  0  0  0  0  0  0  0  0  0
   -2.5151   -2.1562    0.0000 C   0  0  0  0  0  0  0  0  0  0  0  0
   -1.5501   -1.0078    0.0000 C   0  0  0  0  0  0  0  0  0  0  0  0
   -0.0510   -0.9566    0.0000 C   0  0  0  0  0  0  0  0  0  0  0  0
    0.7430   -2.2292    0.0000 C   0  0  0  0  0  0  0  0  0  0  0  0
    0.0378   -3.5531    0.0000 O   0  0  0  0  0  0  0  0  0  0  0  0
    2.2421   -2.1779    0.0000 C   0  0  0  0  0  0  0  0  0  0  0  0
    2.9473   -0.8540    0.0000 C   0  0  0  0  0  0  0  0  0  0  0  0
    4.4464   -0.8027    0.0000 C   0  0  0  0  0  0  0  0  0  0  0  0
    5.1515    0.5212    0.0000 C   0  0  0  0  0  0  0  0  0  0  0  0
    6.6507    0.5725    0.0000 O   0  0  0  0  0  0  0  0  0  0  0  0
    4.3576    1.7938    0.0000 C   0  0  0  0  0  0  0  0  0  0  0  0
    2.8585    1.7425    0.0000 C   0  0  0  0  0  0  0  0  0  0  0  0
    2.1533    0.4186    0.0000 C   0  0  0  0  0  0  0  0  0  0  0  0
    1.3593    1.6913    0.0000 C   0  0  0  0  0  0  0  0  0  0  0  0
    0.6542    0.3674    0.0000 C   0  0  0  0  0  0  0  0  0  0  0  0
   -0.1398    1.6400    0.0000 C   0  0  0  0  0  0  0  0  0  0  0  0
   -1.6389    1.5887    0.0000 C   0  0  0  0  0  0  0  0  0  0  0  0
   -2.3441    0.2648    0.0000 C   0  0  0  0  0  0  0  0  0  0  0  0
   -2.9531    1.6356    0.0000 C   0  0  0  0  0  0  0  0  0  0  0  0
  1  2  1  0
  2  3  1  0
  3  4  1  6
  3  5  1  0
  5  6  1  0
  7  6  1  6
  7  8  1  0
  8  9  1  1
  9 10  2  0
  9 11  1  0
 12 11  1  1
 12 13  1  0
 13 14  1  0
 14 15  1  1
 14 16  1  0
 16 17  1  0
 17 18  1  0
 18 19  1  6
 18 20  1  0
 20 21  1  6
 21 22  1  0
 22 23  1  0
 23 24  1  6
 23  3  1  0
 23  7  1  0
 20  8  1  0
 18 12  1  0
M  END
>  <MS_ID>  (3369) 
MS3510

>  <SMILES>  (3369) 
CO[C@]1(O)CC[C@H]2[C@@H]3C(=O)C[C@@H]4C[C@H](O)CC[C@]4(C)[C@H]3CC[C@@]21C

>  <Structure_dimension>  (3369) 
2D

$$$$
MS3511
     RDKit          2D

 24 27  0  0  0  0  0  0  0  0999 V2000
    6.5143    0.0390    0.0000 C   0  0  0  0  0  0  0  0  0  0  0  0
    5.1317   -0.5428    0.0000 C   0  0  0  0  0  0  0  0  0  0  0  0
    4.9443   -2.0311    0.0000 O   0  0  0  0  0  0  0  0  0  0  0  0
    3.9365    0.3636    0.0000 C   0  0  0  0  0  0  0  0  0  0  0  0
    3.9674    1.8633    0.0000 C   0  0  0  0  0  0  0  0  0  0  0  0
    2.5506    2.3560    0.0000 C   0  0  0  0  0  0  0  0  0  0  0  0
    1.6442    1.1609    0.0000 C   0  0  0  0  0  0  0  0  0  0  0  0
    0.1495    1.0348    0.0000 C   0  0  0  0  0  0  0  0  0  0  0  0
   -0.7071    2.2662    0.0000 C   0  0  0  0  0  0  0  0  0  0  0  0
   -2.2017    2.1401    0.0000 C   0  0  0  0  0  0  0  0  0  0  0  0
   -2.8399    0.7826    0.0000 C   0  0  0  0  0  0  0  0  0  0  0  0
   -4.3346    0.6565    0.0000 C   0  0  0  0  0  0  0  0  0  0  0  0
   -5.1911    1.8879    0.0000 O   0  0  0  0  0  0  0  0  0  0  0  0
   -4.9727   -0.7010    0.0000 C   0  0  0  0  0  0  0  0  0  0  0  0
   -6.4674   -0.8271    0.0000 O   0  0  0  0  0  0  0  0  0  0  0  0
   -4.1162   -1.9324    0.0000 C   0  0  0  0  0  0  0  0  0  0  0  0
   -2.6215   -1.8063    0.0000 C   0  0  0  0  0  0  0  0  0  0  0  0
   -1.9833   -0.4488    0.0000 C   0  0  0  0  0  0  0  0  0  0  0  0
   -1.1268   -1.6802    0.0000 C   0  0  0  0  0  0  0  0  0  0  0  0
   -0.4886   -0.3227    0.0000 C   0  0  0  0  0  0  0  0  0  0  0  0
    0.3679   -1.5541    0.0000 C   0  0  0  0  0  0  0  0  0  0  0  0
    1.8626   -1.4280    0.0000 C   0  0  0  0  0  0  0  0  0  0  0  0
    2.5007   -0.0705    0.0000 C   0  0  0  0  0  0  0  0  0  0  0  0
    3.4813   -1.2056    0.0000 C   0  0  0  0  0  0  0  0  0  0  0  0
  1  2  1  0
  2  3  2  0
  4  2  1  6
  4  5  1  0
  5  6  1  0
  7  6  1  6
  7  8  1  0
  8  9  1  1
  9 10  1  0
 11 10  1  6
 11 12  1  0
 12 13  1  1
 12 14  1  0
 14 15  1  6
 14 16  1  0
 16 17  1  0
 17 18  1  0
 18 19  1  6
 18 20  1  0
 20 21  1  6
 21 22  1  0
 22 23  1  0
 23 24  1  6
 23  4  1  0
 23  7  1  0
 20  8  1  0
 18 11  1  0
M  END
>  <MS_ID>  (3370) 
MS3511

>  <SMILES>  (3370) 
CC(=O)[C@H]1CC[C@H]2[C@@H]3CC[C@H]4[C@H](O)[C@@H](O)CC[C@]4(C)[C@H]3CC[C@]12C

>  <Structure_dimension>  (3370) 
2D

$$$$
MS3512
     RDKit          2D

 31 34  0  0  0  0  0  0  0  0999 V2000
   -5.3871   -2.1466    0.0000 C   0  0  0  0  0  0  0  0  0  0  0  0
   -4.1570   -1.2883    0.0000 C   0  0  0  0  0  0  0  0  0  0  0  0
   -4.2853    0.2062    0.0000 C   0  0  0  0  0  0  0  0  0  0  0  0
   -5.6437    0.8424    0.0000 C   0  0  0  0  0  0  0  0  0  0  0  0
   -5.7720    2.3369    0.0000 C   0  0  0  0  0  0  0  0  0  0  0  0
   -4.5419    3.1952    0.0000 O   0  0  0  0  0  0  0  0  0  0  0  0
   -7.1305    2.9730    0.0000 O   0  0  0  0  0  0  0  0  0  0  0  0
   -2.7986   -1.9244    0.0000 C   0  0  0  0  0  0  0  0  0  0  0  0
   -2.5148   -3.3973    0.0000 C   0  0  0  0  0  0  0  0  0  0  0  0
   -1.0262   -3.5825    0.0000 C   0  0  0  0  0  0  0  0  0  0  0  0
   -0.3901   -2.2241    0.0000 C   0  0  0  0  0  0  0  0  0  0  0  0
    1.0451   -1.7879    0.0000 C   0  0  0  0  0  0  0  0  0  0  0  0
    2.1404   -2.8127    0.0000 C   0  0  0  0  0  0  0  0  0  0  0  0
    1.8006   -4.2737    0.0000 O   0  0  0  0  0  0  0  0  0  0  0  0
    3.5756   -2.3764    0.0000 C   0  0  0  0  0  0  0  0  0  0  0  0
    3.9154   -0.9154    0.0000 C   0  0  0  0  0  0  0  0  0  0  0  0
    5.3506   -0.4792    0.0000 C   0  0  0  0  0  0  0  0  0  0  0  0
    5.6904    0.9818    0.0000 C   0  0  0  0  0  0  0  0  0  0  0  0
    7.1256    1.4180    0.0000 O   0  0  0  0  0  0  0  0  0  0  0  0
    4.5950    2.0066    0.0000 C   0  0  0  0  0  0  0  0  0  0  0  0
    3.1599    1.5703    0.0000 C   0  0  0  0  0  0  0  0  0  0  0  0
    2.8200    0.1093    0.0000 C   0  0  0  0  0  0  0  0  0  0  0  0
    1.7247    1.1341    0.0000 O   0  0  0  0  0  0  0  0  0  0  0  0
    2.0645    2.5951    0.0000 C   0  0  0  0  0  0  0  0  0  0  0  0
    0.9691    3.6199    0.0000 C   0  0  0  0  0  0  0  0  0  0  0  0
    1.3089    5.0809    0.0000 O   0  0  0  0  0  0  0  0  0  0  0  0
    1.3849   -0.3269    0.0000 C   0  0  0  0  0  0  0  0  0  0  0  0
    0.2895    0.6979    0.0000 C   0  0  0  0  0  0  0  0  0  0  0  0
   -1.1457    0.2617    0.0000 C   0  0  0  0  0  0  0  0  0  0  0  0
   -1.4855   -1.1993    0.0000 C   0  0  0  0  0  0  0  0  0  0  0  0
   -2.6819   -0.2947    0.0000 C   0  0  0  0  0  0  0  0  0  0  0  0
  2  1  1  6
  2  3  1  0
  3  4  1  0
  4  5  1  0
  5  6  2  0
  5  7  1  0
  2  8  1  0
  8  9  1  6
  9 10  1  0
 11 10  1  6
 11 12  1  0
 12 13  1  1
 13 14  1  6
 13 15  1  0
 16 15  1  1
 16 17  1  0
 17 18  1  0
 18 19  1  1
 18 20  1  0
 20 21  1  0
 21 22  1  0
 22 23  1  6
 23 24  1  0
 24 25  1  0
 25 26  1  0
 22 27  1  0
 27 28  1  6
 28 29  1  0
 29 30  1  0
 30 31  1  6
 30  8  1  0
 30 11  1  0
 27 12  1  0
 22 16  1  0
M  END
>  <MS_ID>  (3371) 
MS3512

>  <SMILES>  (3371) 
C[C@H](CCC(=O)O)[C@H]1CC[C@H]2[C@@H]3[C@@H](O)C[C@@H]4C[C@H](O)CC[C@]4(OCCO)[C@H]3CC[C@]12C

>  <Structure_dimension>  (3371) 
2D

$$$$
MS3513
     RDKit          2D

 25 28  0  0  0  0  0  0  0  0999 V2000
    0.0093   -1.3121    0.0000 C   0  0  0  0  0  0  0  0  0  0  0  0
    0.5667    0.0805    0.0000 C   0  0  0  0  0  0  0  0  0  0  0  0
    1.4940   -1.0985    0.0000 C   0  0  0  0  0  0  0  0  0  0  0  0
    2.9787   -0.8848    0.0000 C   0  0  0  0  0  0  0  0  0  0  0  0
    3.5361    0.5078    0.0000 C   0  0  0  0  0  0  0  0  0  0  0  0
    5.0208    0.7214    0.0000 O   0  0  0  0  0  0  0  0  0  0  0  0
    5.9481   -0.4576    0.0000 S   0  0  0  0  0  0  0  0  0  0  0  0
    4.7692   -1.3849    0.0000 O   0  0  0  0  0  0  0  0  0  0  0  0
    7.1271    0.4698    0.0000 O   0  0  0  0  0  0  0  0  0  0  0  0
    6.8755   -1.6366    0.0000 O   0  0  0  0  0  0  0  0  0  0  0  0
    2.6087    1.6867    0.0000 C   0  0  0  0  0  0  0  0  0  0  0  0
    1.1240    1.4731    0.0000 C   0  0  0  0  0  0  0  0  0  0  0  0
    0.1966    2.6521    0.0000 C   0  0  0  0  0  0  0  0  0  0  0  0
   -1.2881    2.4384    0.0000 C   0  0  0  0  0  0  0  0  0  0  0  0
   -1.8454    1.0458    0.0000 C   0  0  0  0  0  0  0  0  0  0  0  0
   -0.9181   -0.1331    0.0000 C   0  0  0  0  0  0  0  0  0  0  0  0
   -1.4754   -1.5258    0.0000 C   0  0  0  0  0  0  0  0  0  0  0  0
   -2.9601   -1.7394    0.0000 C   0  0  0  0  0  0  0  0  0  0  0  0
   -3.8875   -0.5604    0.0000 C   0  0  0  0  0  0  0  0  0  0  0  0
   -4.5873   -1.8871    0.0000 C   0  0  0  0  0  0  0  0  0  0  0  0
   -5.3842   -0.4607    0.0000 C   0  0  0  0  0  0  0  0  0  0  0  0
   -6.3446   -1.6129    0.0000 O   0  0  0  0  0  0  0  0  0  0  0  0
   -5.7518    0.9936    0.0000 C   0  0  0  0  0  0  0  0  0  0  0  0
   -4.4824    1.7926    0.0000 C   0  0  0  0  0  0  0  0  0  0  0  0
   -3.3301    0.8322    0.0000 C   0  0  0  0  0  0  0  0  0  0  0  0
  2  1  1  1
  2  3  1  0
  3  4  1  0
  4  5  1  0
  5  6  1  6
  6  7  1  0
  7  8  2  0
  7  9  2  0
  7 10  1  0
  5 11  1  0
 12 11  1  6
 12 13  1  0
 13 14  1  0
 15 14  1  6
 15 16  1  0
 16 17  1  1
 17 18  1  0
 18 19  1  0
 19 20  1  1
 19 21  1  0
 21 22  1  1
 21 23  1  0
 23 24  1  0
 25 24  1  1
 12  2  1  0
 25 15  1  0
 16  2  1  0
 25 19  1  0
M  END
>  <MS_ID>  (3372) 
MS3513

>  <SMILES>  (3372) 
C[C@]12CC[C@@H](OS(=O)(=O)O)C[C@H]1CC[C@@H]1[C@@H]2CC[C@]2(C)[C@@H](O)CC[C@@H]12

>  <Structure_dimension>  (3372) 
2D

$$$$
MS3514
     RDKit          2D

 30 33  0  0  0  0  0  0  0  0999 V2000
   -7.6633    3.6195    0.0000 C   0  0  0  0  0  0  0  0  0  0  0  0
   -7.3042    2.1631    0.0000 C   0  0  0  0  0  0  0  0  0  0  0  0
   -8.3859    1.1240    0.0000 C   0  0  0  0  0  0  0  0  0  0  0  0
   -5.8634    1.7459    0.0000 C   0  0  0  0  0  0  0  0  0  0  0  0
   -5.5043    0.2895    0.0000 C   0  0  0  0  0  0  0  0  0  0  0  0
   -4.0635   -0.1278    0.0000 C   0  0  0  0  0  0  0  0  0  0  0  0
   -3.7045   -1.5841    0.0000 C   0  0  0  0  0  0  0  0  0  0  0  0
   -4.7862   -2.6233    0.0000 C   0  0  0  0  0  0  0  0  0  0  0  0
   -2.2637   -2.0014    0.0000 C   0  0  0  0  0  0  0  0  0  0  0  0
   -1.7544   -3.4123    0.0000 C   0  0  0  0  0  0  0  0  0  0  0  0
   -0.2551   -3.3639    0.0000 C   0  0  0  0  0  0  0  0  0  0  0  0
    0.1621   -1.9231    0.0000 C   0  0  0  0  0  0  0  0  0  0  0  0
    1.5120   -1.2690    0.0000 C   0  0  0  0  0  0  0  0  0  0  0  0
    2.7534   -2.1111    0.0000 C   0  0  0  0  0  0  0  0  0  0  0  0
    4.1033   -1.4571    0.0000 C   0  0  0  0  0  0  0  0  0  0  0  0
    5.3446   -2.2991    0.0000 O   0  0  0  0  0  0  0  0  0  0  0  0
    4.2118    0.0390    0.0000 C   0  0  0  0  0  0  0  0  0  0  0  0
    5.4532   -0.8031    0.0000 O   0  0  0  0  0  0  0  0  0  0  0  0
    5.5618    0.6930    0.0000 C   0  0  0  0  0  0  0  0  0  0  0  0
    5.6703    2.1891    0.0000 C   0  0  0  0  0  0  0  0  0  0  0  0
    7.0202    2.8431    0.0000 O   0  0  0  0  0  0  0  0  0  0  0  0
    4.4290    3.0311    0.0000 C   0  0  0  0  0  0  0  0  0  0  0  0
    3.0791    2.3771    0.0000 C   0  0  0  0  0  0  0  0  0  0  0  0
    2.9705    0.8810    0.0000 C   0  0  0  0  0  0  0  0  0  0  0  0
    1.7292    1.7231    0.0000 C   0  0  0  0  0  0  0  0  0  0  0  0
    1.6206    0.2270    0.0000 C   0  0  0  0  0  0  0  0  0  0  0  0
    0.3792    1.0691    0.0000 C   0  0  0  0  0  0  0  0  0  0  0  0
   -0.9707    0.4151    0.0000 C   0  0  0  0  0  0  0  0  0  0  0  0
   -1.0792   -1.0810    0.0000 C   0  0  0  0  0  0  0  0  0  0  0  0
   -2.4018   -0.3733    0.0000 C   0  0  0  0  0  0  0  0  0  0  0  0
  1  2  1  0
  2  3  1  0
  2  4  1  0
  4  5  1  0
  5  6  1  0
  6  7  1  0
  7  8  1  6
  7  9  1  0
  9 10  1  6
 10 11  1  0
 12 11  1  6
 12 13  1  0
 13 14  1  1
 14 15  1  0
 15 16  1  6
 15 17  1  0
 17 18  1  1
 17 19  1  0
 19 20  1  0
 20 21  1  6
 20 22  1  0
 22 23  1  0
 23 24  1  0
 24 25  1  6
 24 26  1  0
 26 27  1  1
 27 28  1  0
 28 29  1  0
 29 30  1  6
 29  9  1  0
 29 12  1  0
 26 13  1  0
 24 17  1  0
M  END
>  <MS_ID>  (3373) 
MS3514

>  <SMILES>  (3373) 
CC(C)CCC[C@@H](C)[C@H]1CC[C@H]2[C@@H]3C[C@@H](O)[C@@]4(O)C[C@@H](O)CC[C@]4(C)[C@@H]3CC[C@]12C

>  <Structure_dimension>  (3373) 
2D

$$$$
MS3515
     RDKit          2D

 35 38  0  0  0  0  0  0  0  0999 V2000
   -3.9261   -3.3523    0.0000 C   0  0  0  0  0  0  0  0  0  0  0  0
   -3.1366   -2.0769    0.0000 C   0  0  0  0  0  0  0  0  0  0  0  0
   -3.8464   -0.7555    0.0000 O   0  0  0  0  0  0  0  0  0  0  0  0
   -5.3457   -0.7095    0.0000 C   0  0  0  0  0  0  0  0  0  0  0  0
   -6.1352   -1.9849    0.0000 O   0  0  0  0  0  0  0  0  0  0  0  0
   -6.0555    0.6120    0.0000 C   0  0  0  0  0  0  0  0  0  0  0  0
   -7.5548    0.6580    0.0000 C   0  0  0  0  0  0  0  0  0  0  0  0
   -8.2646    1.9794    0.0000 C   0  0  0  0  0  0  0  0  0  0  0  0
   -7.4751    3.2548    0.0000 O   0  0  0  0  0  0  0  0  0  0  0  0
   -9.7639    2.0254    0.0000 O   0  0  0  0  0  0  0  0  0  0  0  0
   -1.6373   -2.1229    0.0000 C   0  0  0  0  0  0  0  0  0  0  0  0
   -0.7933   -3.3629    0.0000 C   0  0  0  0  0  0  0  0  0  0  0  0
    0.6469   -2.9434    0.0000 C   0  0  0  0  0  0  0  0  0  0  0  0
    0.6929   -1.4441    0.0000 C   0  0  0  0  0  0  0  0  0  0  0  0
    1.8379   -0.4751    0.0000 C   0  0  0  0  0  0  0  0  0  0  0  0
    3.2496   -0.9821    0.0000 C   0  0  0  0  0  0  0  0  0  0  0  0
    3.5163   -2.4582    0.0000 O   0  0  0  0  0  0  0  0  0  0  0  0
    4.9280   -2.9653    0.0000 S   0  0  0  0  0  0  0  0  0  0  0  0
    5.4350   -1.5536    0.0000 O   0  0  0  0  0  0  0  0  0  0  0  0
    4.4209   -4.3770    0.0000 O   0  0  0  0  0  0  0  0  0  0  0  0
    6.3397   -3.4724    0.0000 O   0  0  0  0  0  0  0  0  0  0  0  0
    4.3945   -0.0131    0.0000 C   0  0  0  0  0  0  0  0  0  0  0  0
    4.1278    1.4630    0.0000 C   0  0  0  0  0  0  0  0  0  0  0  0
    5.2728    2.4320    0.0000 C   0  0  0  0  0  0  0  0  0  0  0  0
    5.0061    3.9081    0.0000 C   0  0  0  0  0  0  0  0  0  0  0  0
    6.1511    4.8771    0.0000 O   0  0  0  0  0  0  0  0  0  0  0  0
    3.5944    4.4152    0.0000 C   0  0  0  0  0  0  0  0  0  0  0  0
    2.4494    3.4462    0.0000 C   0  0  0  0  0  0  0  0  0  0  0  0
    2.7161    1.9701    0.0000 C   0  0  0  0  0  0  0  0  0  0  0  0
    1.3044    2.4771    0.0000 C   0  0  0  0  0  0  0  0  0  0  0  0
    1.5712    1.0010    0.0000 C   0  0  0  0  0  0  0  0  0  0  0  0
    0.1595    1.5081    0.0000 C   0  0  0  0  0  0  0  0  0  0  0  0
   -0.9855    0.5391    0.0000 C   0  0  0  0  0  0  0  0  0  0  0  0
   -0.7188   -0.9370    0.0000 C   0  0  0  0  0  0  0  0  0  0  0  0
   -2.1758   -0.5803    0.0000 C   0  0  0  0  0  0  0  0  0  0  0  0
  2  1  1  6
  2  3  1  0
  3  4  1  0
  4  5  2  0
  4  6  1  0
  6  7  1  0
  7  8  1  0
  8  9  2  0
  8 10  1  0
  2 11  1  0
 11 12  1  6
 12 13  1  0
 14 13  1  6
 14 15  1  0
 15 16  1  1
 16 17  1  6
 17 18  1  0
 18 19  2  0
 18 20  2  0
 18 21  1  0
 16 22  1  0
 23 22  1  1
 23 24  1  0
 24 25  1  0
 25 26  1  1
 25 27  1  0
 27 28  1  0
 28 29  1  0
 29 30  1  6
 29 31  1  0
 31 32  1  6
 32 33  1  0
 33 34  1  0
 34 35  1  6
 34 11  1  0
 34 14  1  0
 31 15  1  0
 29 23  1  0
M  END
>  <MS_ID>  (3374) 
MS3515

>  <SMILES>  (3374) 
C[C@H](OC(=O)CCC(=O)O)[C@H]1CC[C@H]2[C@@H]3[C@@H](OS(=O)(=O)O)C[C@@H]4C[C@H](O)CC[C@]4(C)[C@H]3CC[C@]12C

>  <Structure_dimension>  (3374) 
2D

$$$$
MS3516
     RDKit          2D

 24 27  0  0  0  0  0  0  0  0999 V2000
   -6.2943    0.2891    0.0000 C   0  0  0  0  0  0  0  0  0  0  0  0
   -4.8892    0.8143    0.0000 C   0  0  0  0  0  0  0  0  0  0  0  0
   -4.6416    2.2937    0.0000 O   0  0  0  0  0  0  0  0  0  0  0  0
   -3.7319   -0.1399    0.0000 C   0  0  0  0  0  0  0  0  0  0  0  0
   -3.8235   -1.6371    0.0000 C   0  0  0  0  0  0  0  0  0  0  0  0
   -2.4280   -2.1870    0.0000 C   0  0  0  0  0  0  0  0  0  0  0  0
   -1.4738   -1.0296    0.0000 C   0  0  0  0  0  0  0  0  0  0  0  0
    0.0248   -0.9643    0.0000 C   0  0  0  0  0  0  0  0  0  0  0  0
    0.8307   -2.2294    0.0000 C   0  0  0  0  0  0  0  0  0  0  0  0
    0.1380   -3.5599    0.0000 O   0  0  0  0  0  0  0  0  0  0  0  0
    2.3293   -2.1641    0.0000 C   0  0  0  0  0  0  0  0  0  0  0  0
    3.0220   -0.8336    0.0000 C   0  0  0  0  0  0  0  0  0  0  0  0
    4.5205   -0.7683    0.0000 C   0  0  0  0  0  0  0  0  0  0  0  0
    5.2133    0.5622    0.0000 C   0  0  0  0  0  0  0  0  0  0  0  0
    6.7118    0.6275    0.0000 O   0  0  0  0  0  0  0  0  0  0  0  0
    4.4074    1.8273    0.0000 C   0  0  0  0  0  0  0  0  0  0  0  0
    2.9088    1.7620    0.0000 C   0  0  0  0  0  0  0  0  0  0  0  0
    2.2161    0.4315    0.0000 C   0  0  0  0  0  0  0  0  0  0  0  0
    1.4102    1.6967    0.0000 C   0  0  0  0  0  0  0  0  0  0  0  0
    0.7175    0.3662    0.0000 C   0  0  0  0  0  0  0  0  0  0  0  0
   -0.0883    1.6314    0.0000 C   0  0  0  0  0  0  0  0  0  0  0  0
   -1.5869    1.5660    0.0000 C   0  0  0  0  0  0  0  0  0  0  0  0
   -2.2796    0.2356    0.0000 C   0  0  0  0  0  0  0  0  0  0  0  0
   -3.2133    1.4095    0.0000 C   0  0  0  0  0  0  0  0  0  0  0  0
  2  1  1  1
  2  3  1  0
  2  4  1  0
  4  5  1  6
  5  6  1  0
  7  6  1  6
  7  8  1  0
  8  9  1  1
  9 10  1  1
  9 11  1  0
 12 11  1  1
 12 13  1  0
 13 14  1  0
 14 15  2  0
 14 16  1  0
 16 17  1  0
 17 18  1  0
 18 19  1  6
 18 20  1  0
 20 21  1  6
 21 22  1  0
 22 23  1  0
 23 24  1  6
 23  4  1  0
 23  7  1  0
 20  8  1  0
 18 12  1  0
M  END
>  <MS_ID>  (3375) 
MS3516

>  <SMILES>  (3375) 
C[C@@H](O)[C@H]1CC[C@H]2[C@@H]3[C@H](O)C[C@@H]4CC(=O)CC[C@]4(C)[C@H]3CC[C@]12C

>  <Structure_dimension>  (3375) 
2D

$$$$
MS3517
     RDKit          2D

 23 26  0  0  0  0  0  0  0  0999 V2000
   -6.2880    0.1477    0.0000 C   0  0  0  0  0  0  0  0  0  0  0  0
   -4.8818    0.6700    0.0000 C   0  0  0  0  0  0  0  0  0  0  0  0
   -4.6310    2.1488    0.0000 O   0  0  0  0  0  0  0  0  0  0  0  0
   -3.7265   -0.2867    0.0000 C   0  0  0  0  0  0  0  0  0  0  0  0
   -3.8214   -1.7837    0.0000 C   0  0  0  0  0  0  0  0  0  0  0  0
   -2.4270   -2.3365    0.0000 C   0  0  0  0  0  0  0  0  0  0  0  0
   -1.4703   -1.1812    0.0000 C   0  0  0  0  0  0  0  0  0  0  0  0
    0.0284   -1.1191    0.0000 C   0  0  0  0  0  0  0  0  0  0  0  0
    0.8316   -2.3860    0.0000 C   0  0  0  0  0  0  0  0  0  0  0  0
    2.3303   -2.3238    0.0000 C   0  0  0  0  0  0  0  0  0  0  0  0
    3.0258   -0.9949    0.0000 C   0  0  0  0  0  0  0  0  0  0  0  0
    4.5246   -0.9327    0.0000 C   0  0  0  0  0  0  0  0  0  0  0  0
    5.2201    0.3962    0.0000 C   0  0  0  0  0  0  0  0  0  0  0  0
    6.7188    0.4584    0.0000 O   0  0  0  0  0  0  0  0  0  0  0  0
    4.4170    1.6631    0.0000 C   0  0  0  0  0  0  0  0  0  0  0  0
    2.9183    1.6010    0.0000 C   0  0  0  0  0  0  0  0  0  0  0  0
    2.2227    0.2720    0.0000 C   0  0  0  0  0  0  0  0  0  0  0  0
    1.4195    1.5389    0.0000 C   0  0  0  0  0  0  0  0  0  0  0  0
    0.7240    0.2099    0.0000 C   0  0  0  0  0  0  0  0  0  0  0  0
   -0.0792    1.4768    0.0000 C   0  0  0  0  0  0  0  0  0  0  0  0
   -1.5779    1.4146    0.0000 C   0  0  0  0  0  0  0  0  0  0  0  0
   -2.2734    0.0856    0.0000 C   0  0  0  0  0  0  0  0  0  0  0  0
   -3.2046    1.2616    0.0000 C   0  0  0  0  0  0  0  0  0  0  0  0
  2  1  1  1
  2  3  1  0
  2  4  1  0
  4  5  1  6
  5  6  1  0
  7  6  1  6
  7  8  1  0
  8  9  1  1
  9 10  1  0
 11 10  1  1
 11 12  1  0
 12 13  1  0
 13 14  2  0
 13 15  1  0
 15 16  1  0
 16 17  1  0
 17 18  1  6
 17 19  1  0
 19 20  1  6
 20 21  1  0
 21 22  1  0
 22 23  1  6
 22  4  1  0
 22  7  1  0
 19  8  1  0
 17 11  1  0
M  END
>  <MS_ID>  (3376) 
MS3517

>  <SMILES>  (3376) 
C[C@@H](O)[C@H]1CC[C@H]2[C@@H]3CC[C@@H]4CC(=O)CC[C@]4(C)[C@H]3CC[C@]12C

>  <Structure_dimension>  (3376) 
2D

$$$$
MS3518
     RDKit          2D

 31 34  0  0  0  0  0  0  0  0999 V2000
   -7.5336    2.8357    0.0000 C   0  0  0  0  0  0  0  0  0  0  0  0
   -7.0792    1.4062    0.0000 C   0  0  0  0  0  0  0  0  0  0  0  0
   -5.6140    1.0850    0.0000 C   0  0  0  0  0  0  0  0  0  0  0  0
   -5.1596   -0.3445    0.0000 C   0  0  0  0  0  0  0  0  0  0  0  0
   -3.6944   -0.6658    0.0000 C   0  0  0  0  0  0  0  0  0  0  0  0
   -3.2400   -2.0953    0.0000 C   0  0  0  0  0  0  0  0  0  0  0  0
   -4.2508   -3.2036    0.0000 C   0  0  0  0  0  0  0  0  0  0  0  0
   -1.7748   -2.4165    0.0000 C   0  0  0  0  0  0  0  0  0  0  0  0
   -1.1735   -3.7907    0.0000 C   0  0  0  0  0  0  0  0  0  0  0  0
    0.3193   -3.6434    0.0000 C   0  0  0  0  0  0  0  0  0  0  0  0
    0.6405   -2.1782    0.0000 C   0  0  0  0  0  0  0  0  0  0  0  0
    1.9443   -1.4365    0.0000 C   0  0  0  0  0  0  0  0  0  0  0  0
    3.2385   -2.1948    0.0000 C   0  0  0  0  0  0  0  0  0  0  0  0
    4.5423   -1.4531    0.0000 C   0  0  0  0  0  0  0  0  0  0  0  0
    5.8366   -2.2114    0.0000 O   0  0  0  0  0  0  0  0  0  0  0  0
    4.5519    0.0469    0.0000 C   0  0  0  0  0  0  0  0  0  0  0  0
    5.8557    0.7885    0.0000 C   0  0  0  0  0  0  0  0  0  0  0  0
    5.8653    2.2885    0.0000 C   0  0  0  0  0  0  0  0  0  0  0  0
    7.1691    3.0302    0.0000 O   0  0  0  0  0  0  0  0  0  0  0  0
    4.5711    3.0468    0.0000 C   0  0  0  0  0  0  0  0  0  0  0  0
    3.2673    2.3051    0.0000 C   0  0  0  0  0  0  0  0  0  0  0  0
    3.2577    0.8051    0.0000 C   0  0  0  0  0  0  0  0  0  0  0  0
    1.9635    1.5634    0.0000 C   0  0  0  0  0  0  0  0  0  0  0  0
    1.9539    0.0634    0.0000 C   0  0  0  0  0  0  0  0  0  0  0  0
    0.6597    0.8217    0.0000 C   0  0  0  0  0  0  0  0  0  0  0  0
   -0.6441    0.0800    0.0000 C   0  0  0  0  0  0  0  0  0  0  0  0
   -0.6537   -1.4199    0.0000 C   0  0  0  0  0  0  0  0  0  0  0  0
   -2.0201   -0.8011    0.0000 C   0  0  0  0  0  0  0  0  0  0  0  0
   -4.6032    2.1933    0.0000 C   0  0  0  0  0  0  0  0  0  0  0  0
   -5.0576    3.6228    0.0000 C   0  0  0  0  0  0  0  0  0  0  0  0
   -3.1380    1.8720    0.0000 C   0  0  0  0  0  0  0  0  0  0  0  0
  1  2  1  0
  3  2  1  6
  3  4  1  0
  4  5  1  0
  5  6  1  0
  6  7  1  6
  6  8  1  0
  8  9  1  6
  9 10  1  0
 11 10  1  6
 11 12  1  0
 12 13  1  1
 13 14  1  0
 14 15  1  6
 14 16  1  0
 16 17  1  6
 17 18  1  0
 18 19  1  6
 18 20  1  0
 20 21  1  0
 21 22  1  0
 22 23  1  6
 22 24  1  0
 24 25  1  6
 25 26  1  0
 26 27  1  0
 27 28  1  6
  3 29  1  0
 29 30  1  0
 29 31  1  0
 27  8  1  0
 27 11  1  0
 24 12  1  0
 22 16  1  0
M  END
>  <MS_ID>  (3377) 
MS3518

>  <SMILES>  (3377) 
CC[C@@H](CC[C@@H](C)[C@H]1CC[C@H]2[C@@H]3C[C@@H](O)[C@H]4C[C@@H](O)CC[C@]4(C)[C@H]3CC[C@]12C)C(C)C

>  <Structure_dimension>  (3377) 
2D

$$$$
MS3519
     RDKit          2D

 29 32  0  0  0  0  0  0  0  0999 V2000
   -4.5794    2.7226    0.0000 C   0  0  0  0  0  0  0  0  0  0  0  0
   -3.3580    1.8519    0.0000 S   0  0  0  0  0  0  0  0  0  0  0  0
   -3.5014    0.3587    0.0000 C   0  0  0  0  0  0  0  0  0  0  0  0
   -4.8662   -0.2637    0.0000 C   0  0  0  0  0  0  0  0  0  0  0  0
   -6.0876    0.6071    0.0000 C   0  0  0  0  0  0  0  0  0  0  0  0
   -7.4524   -0.0153    0.0000 C   0  0  0  0  0  0  0  0  0  0  0  0
   -7.5958   -1.5084    0.0000 O   0  0  0  0  0  0  0  0  0  0  0  0
   -8.6738    0.8554    0.0000 O   0  0  0  0  0  0  0  0  0  0  0  0
   -2.2800   -0.5120    0.0000 C   0  0  0  0  0  0  0  0  0  0  0  0
   -2.2665   -2.0119    0.0000 C   0  0  0  0  0  0  0  0  0  0  0  0
   -0.8358   -2.4626    0.0000 C   0  0  0  0  0  0  0  0  0  0  0  0
    0.0349   -1.2412    0.0000 C   0  0  0  0  0  0  0  0  0  0  0  0
    1.5252   -1.0710    0.0000 C   0  0  0  0  0  0  0  0  0  0  0  0
    2.4178   -2.2766    0.0000 C   0  0  0  0  0  0  0  0  0  0  0  0
    1.8200   -3.6523    0.0000 O   0  0  0  0  0  0  0  0  0  0  0  0
    3.9081   -2.1064    0.0000 C   0  0  0  0  0  0  0  0  0  0  0  0
    4.5058   -0.7307    0.0000 C   0  0  0  0  0  0  0  0  0  0  0  0
    5.9961   -0.5605    0.0000 C   0  0  0  0  0  0  0  0  0  0  0  0
    6.5939    0.8153    0.0000 C   0  0  0  0  0  0  0  0  0  0  0  0
    8.0842    0.9855    0.0000 O   0  0  0  0  0  0  0  0  0  0  0  0
    5.7014    2.0208    0.0000 C   0  0  0  0  0  0  0  0  0  0  0  0
    4.2111    1.8506    0.0000 C   0  0  0  0  0  0  0  0  0  0  0  0
    3.6133    0.4749    0.0000 C   0  0  0  0  0  0  0  0  0  0  0  0
    2.7207    1.6805    0.0000 O   0  0  0  0  0  0  0  0  0  0  0  0
    2.1230    0.3047    0.0000 C   0  0  0  0  0  0  0  0  0  0  0  0
    1.2304    1.5103    0.0000 C   0  0  0  0  0  0  0  0  0  0  0  0
   -0.2599    1.3401    0.0000 C   0  0  0  0  0  0  0  0  0  0  0  0
   -0.8577   -0.0357    0.0000 C   0  0  0  0  0  0  0  0  0  0  0  0
   -1.8713    1.0700    0.0000 C   0  0  0  0  0  0  0  0  0  0  0  0
  1  2  1  0
  2  3  1  0
  3  4  1  1
  4  5  1  0
  5  6  1  0
  6  7  2  0
  6  8  1  0
  3  9  1  0
  9 10  1  6
 10 11  1  0
 12 11  1  6
 12 13  1  0
 13 14  1  1
 14 15  1  6
 14 16  1  0
 17 16  1  1
 17 18  1  0
 18 19  1  0
 19 20  1  1
 19 21  1  0
 21 22  1  0
 22 23  1  0
 23 24  1  6
 23 25  1  0
 25 26  1  6
 26 27  1  0
 27 28  1  0
 28 29  1  6
 28  9  1  0
 28 12  1  0
 25 13  1  0
 23 17  1  0
M  END
>  <MS_ID>  (3378) 
MS3519

>  <SMILES>  (3378) 
CS[C@H](CCC(=O)O)[C@H]1CC[C@H]2[C@@H]3[C@@H](O)C[C@@H]4C[C@H](O)CC[C@]4(O)[C@H]3CC[C@]12C

>  <Structure_dimension>  (3378) 
2D

$$$$
MS3520
     RDKit          2D

 29 33  0  0  0  0  0  0  0  0999 V2000
   -4.7941   -1.8568    0.0000 C   0  0  0  0  0  0  0  0  0  0  0  0
   -3.5975   -0.9524    0.0000 C   0  0  0  0  0  0  0  0  0  0  0  0
   -3.7825    0.5362    0.0000 C   0  0  0  0  0  0  0  0  0  0  0  0
   -5.1641    1.1202    0.0000 C   0  0  0  0  0  0  0  0  0  0  0  0
   -6.4487    0.3458    0.0000 C   0  0  0  0  0  0  0  0  0  0  0  0
   -7.5823    1.3282    0.0000 N   0  0  0  0  0  0  0  0  0  0  0  0
   -6.9982    2.7098    0.0000 C   0  0  0  0  0  0  0  0  0  0  0  0
   -5.5037    2.5813    0.0000 N   0  0  0  0  0  0  0  0  0  0  0  0
   -2.2159   -1.5364    0.0000 C   0  0  0  0  0  0  0  0  0  0  0  0
   -1.8763   -2.9975    0.0000 C   0  0  0  0  0  0  0  0  0  0  0  0
   -0.3818   -3.1260    0.0000 C   0  0  0  0  0  0  0  0  0  0  0  0
    0.2022   -1.7444    0.0000 C   0  0  0  0  0  0  0  0  0  0  0  0
    1.6198   -1.2539    0.0000 C   0  0  0  0  0  0  0  0  0  0  0  0
    2.7533   -2.2363    0.0000 C   0  0  0  0  0  0  0  0  0  0  0  0
    2.4693   -3.7092    0.0000 O   0  0  0  0  0  0  0  0  0  0  0  0
    4.1709   -1.7459    0.0000 C   0  0  0  0  0  0  0  0  0  0  0  0
    4.4549   -0.2730    0.0000 C   0  0  0  0  0  0  0  0  0  0  0  0
    5.8725    0.2174    0.0000 C   0  0  0  0  0  0  0  0  0  0  0  0
    6.1565    1.6903    0.0000 C   0  0  0  0  0  0  0  0  0  0  0  0
    7.5740    2.1807    0.0000 O   0  0  0  0  0  0  0  0  0  0  0  0
    5.0230    2.6727    0.0000 C   0  0  0  0  0  0  0  0  0  0  0  0
    3.6054    2.1822    0.0000 C   0  0  0  0  0  0  0  0  0  0  0  0
    3.3214    0.7094    0.0000 C   0  0  0  0  0  0  0  0  0  0  0  0
    2.1879    1.6918    0.0000 C   0  0  0  0  0  0  0  0  0  0  0  0
    1.9038    0.2189    0.0000 C   0  0  0  0  0  0  0  0  0  0  0  0
    0.7703    1.2013    0.0000 C   0  0  0  0  0  0  0  0  0  0  0  0
   -0.6472    0.7109    0.0000 C   0  0  0  0  0  0  0  0  0  0  0  0
   -0.9313   -0.7620    0.0000 C   0  0  0  0  0  0  0  0  0  0  0  0
   -2.1613    0.0966    0.0000 C   0  0  0  0  0  0  0  0  0  0  0  0
  2  1  1  6
  2  3  1  0
  3  4  1  0
  4  5  2  0
  5  6  1  0
  6  7  1  0
  7  8  2  0
  2  9  1  0
  9 10  1  6
 10 11  1  0
 12 11  1  6
 12 13  1  0
 13 14  1  1
 14 15  1  6
 14 16  1  0
 17 16  1  1
 17 18  1  0
 18 19  1  0
 19 20  1  1
 19 21  1  0
 21 22  1  0
 22 23  1  0
 23 24  1  6
 23 25  1  0
 25 26  1  6
 26 27  1  0
 27 28  1  0
 28 29  1  6
  8  4  1  0
 28  9  1  0
 28 12  1  0
 25 13  1  0
 23 17  1  0
M  END
>  <MS_ID>  (3379) 
MS3520

>  <SMILES>  (3379) 
C[C@H](Cc1c[nH]cn1)[C@H]1CC[C@H]2[C@@H]3[C@@H](O)C[C@@H]4C[C@H](O)CC[C@]4(C)[C@H]3CC[C@]12C

>  <Structure_dimension>  (3379) 
2D

$$$$
MS3521
     RDKit          2D

 36 39  0  0  0  0  0  0  0  0999 V2000
   -1.3945   -4.5616    0.0000 C   0  0  0  0  0  0  0  0  0  0  0  0
   -0.7955   -3.1864    0.0000 C   0  0  0  0  0  0  0  0  0  0  0  0
   -1.6869   -1.9800    0.0000 C   0  0  0  0  0  0  0  0  0  0  0  0
   -3.1773   -2.1488    0.0000 C   0  0  0  0  0  0  0  0  0  0  0  0
   -4.0687   -0.9424    0.0000 C   0  0  0  0  0  0  0  0  0  0  0  0
   -3.4697    0.4328    0.0000 O   0  0  0  0  0  0  0  0  0  0  0  0
   -5.5592   -1.1111    0.0000 N   0  0  0  0  0  0  0  0  0  0  0  0
   -6.4506    0.0953    0.0000 C   0  0  0  0  0  0  0  0  0  0  0  0
   -7.9411   -0.0735    0.0000 C   0  0  0  0  0  0  0  0  0  0  0  0
   -8.8325    1.1329    0.0000 C   0  0  0  0  0  0  0  0  0  0  0  0
  -10.3230    0.9641    0.0000 C   0  0  0  0  0  0  0  0  0  0  0  0
  -11.2144    2.1705    0.0000 C   0  0  0  0  0  0  0  0  0  0  0  0
  -10.6153    3.5457    0.0000 O   0  0  0  0  0  0  0  0  0  0  0  0
  -12.7048    2.0017    0.0000 O   0  0  0  0  0  0  0  0  0  0  0  0
    0.6950   -3.0176    0.0000 C   0  0  0  0  0  0  0  0  0  0  0  0
    1.7076   -4.1242    0.0000 C   0  0  0  0  0  0  0  0  0  0  0  0
    3.0730   -3.5031    0.0000 C   0  0  0  0  0  0  0  0  0  0  0  0
    2.9042   -2.0127    0.0000 C   0  0  0  0  0  0  0  0  0  0  0  0
    3.8989   -0.8899    0.0000 C   0  0  0  0  0  0  0  0  0  0  0  0
    5.3686   -1.1900    0.0000 C   0  0  0  0  0  0  0  0  0  0  0  0
    5.8436   -2.6128    0.0000 O   0  0  0  0  0  0  0  0  0  0  0  0
    6.3633   -0.0672    0.0000 C   0  0  0  0  0  0  0  0  0  0  0  0
    7.8330   -0.3673    0.0000 O   0  0  0  0  0  0  0  0  0  0  0  0
    5.8884    1.3556    0.0000 C   0  0  0  0  0  0  0  0  0  0  0  0
    6.8831    2.4783    0.0000 C   0  0  0  0  0  0  0  0  0  0  0  0
    6.4081    3.9011    0.0000 C   0  0  0  0  0  0  0  0  0  0  0  0
    7.4028    5.0239    0.0000 O   0  0  0  0  0  0  0  0  0  0  0  0
    4.9384    4.2012    0.0000 C   0  0  0  0  0  0  0  0  0  0  0  0
    3.9437    3.0785    0.0000 C   0  0  0  0  0  0  0  0  0  0  0  0
    4.4187    1.6556    0.0000 C   0  0  0  0  0  0  0  0  0  0  0  0
    2.9490    1.9557    0.0000 C   0  0  0  0  0  0  0  0  0  0  0  0
    3.4240    0.5329    0.0000 C   0  0  0  0  0  0  0  0  0  0  0  0
    1.9543    0.8330    0.0000 C   0  0  0  0  0  0  0  0  0  0  0  0
    0.9596   -0.2898    0.0000 C   0  0  0  0  0  0  0  0  0  0  0  0
    1.4346   -1.7126    0.0000 C   0  0  0  0  0  0  0  0  0  0  0  0
   -0.0584   -1.5678    0.0000 C   0  0  0  0  0  0  0  0  0  0  0  0
  2  1  1  6
  2  3  1  0
  3  4  1  0
  4  5  1  0
  5  6  2  0
  5  7  1  0
  7  8  1  0
  8  9  1  0
  9 10  1  0
 10 11  1  0
 11 12  1  0
 12 13  2  0
 12 14  1  0
  2 15  1  0
 15 16  1  6
 16 17  1  0
 18 17  1  6
 18 19  1  0
 19 20  1  1
 20 21  1  1
 20 22  1  0
 22 23  1  6
 22 24  1  0
 24 25  1  1
 25 26  1  0
 26 27  1  1
 26 28  1  0
 28 29  1  0
 29 30  1  0
 30 31  1  6
 30 32  1  0
 32 33  1  6
 33 34  1  0
 34 35  1  0
 35 36  1  6
 35 15  1  0
 35 18  1  0
 32 19  1  0
 30 24  1  0
M  END
>  <MS_ID>  (3380) 
MS3521

>  <SMILES>  (3380) 
C[C@H](CCC(=O)NCCCCC(=O)O)[C@H]1CC[C@H]2[C@@H]3[C@H](O)[C@@H](O)[C@@H]4C[C@H](O)CC[C@]4(C)[C@H]3CC[C@]12C

>  <Structure_dimension>  (3380) 
2D

$$$$
MS3522
     RDKit          2D

 28 31  0  0  0  0  0  0  0  0999 V2000
   -5.1275   -2.0302    0.0000 C   0  0  0  0  0  0  0  0  0  0  0  0
   -3.9468   -1.1050    0.0000 C   0  0  0  0  0  0  0  0  0  0  0  0
   -4.1576    0.3801    0.0000 C   0  0  0  0  0  0  0  0  0  0  0  0
   -5.5492    0.9401    0.0000 C   0  0  0  0  0  0  0  0  0  0  0  0
   -5.7600    2.4252    0.0000 C   0  0  0  0  0  0  0  0  0  0  0  0
   -4.5793    3.3503    0.0000 O   0  0  0  0  0  0  0  0  0  0  0  0
   -7.1516    2.9851    0.0000 O   0  0  0  0  0  0  0  0  0  0  0  0
   -2.5552   -1.6650    0.0000 C   0  0  0  0  0  0  0  0  0  0  0  0
   -2.1903   -3.1199    0.0000 C   0  0  0  0  0  0  0  0  0  0  0  0
   -0.6938   -3.2225    0.0000 C   0  0  0  0  0  0  0  0  0  0  0  0
   -0.1339   -1.8309    0.0000 C   0  0  0  0  0  0  0  0  0  0  0  0
    1.2750   -1.3159    0.0000 C   0  0  0  0  0  0  0  0  0  0  0  0
    2.4254   -2.2785    0.0000 C   0  0  0  0  0  0  0  0  0  0  0  0
    2.1670   -3.7560    0.0000 O   0  0  0  0  0  0  0  0  0  0  0  0
    3.8342   -1.7635    0.0000 C   0  0  0  0  0  0  0  0  0  0  0  0
    4.0926   -0.2859    0.0000 C   0  0  0  0  0  0  0  0  0  0  0  0
    5.5014    0.2291    0.0000 C   0  0  0  0  0  0  0  0  0  0  0  0
    5.7598    1.7067    0.0000 C   0  0  0  0  0  0  0  0  0  0  0  0
    7.1687    2.2217    0.0000 O   0  0  0  0  0  0  0  0  0  0  0  0
    4.6094    2.6692    0.0000 C   0  0  0  0  0  0  0  0  0  0  0  0
    3.2006    2.1542    0.0000 C   0  0  0  0  0  0  0  0  0  0  0  0
    2.9422    0.6767    0.0000 C   0  0  0  0  0  0  0  0  0  0  0  0
    1.7918    1.6392    0.0000 Br  0  0  0  0  0  0  0  0  0  0  0  0
    1.5334    0.1617    0.0000 C   0  0  0  0  0  0  0  0  0  0  0  0
    0.3830    1.1242    0.0000 C   0  0  0  0  0  0  0  0  0  0  0  0
   -1.0259    0.6093    0.0000 C   0  0  0  0  0  0  0  0  0  0  0  0
   -1.2843   -0.8683    0.0000 C   0  0  0  0  0  0  0  0  0  0  0  0
   -2.5290   -0.0313    0.0000 C   0  0  0  0  0  0  0  0  0  0  0  0
  2  1  1  6
  2  3  1  0
  3  4  1  0
  4  5  1  0
  5  6  2  0
  5  7  1  0
  2  8  1  0
  8  9  1  6
  9 10  1  0
 11 10  1  6
 11 12  1  0
 12 13  1  1
 13 14  1  6
 13 15  1  0
 16 15  1  1
 16 17  1  0
 17 18  1  0
 18 19  1  1
 18 20  1  0
 20 21  1  0
 21 22  1  0
 22 23  1  6
 22 24  1  0
 24 25  1  6
 25 26  1  0
 26 27  1  0
 27 28  1  6
 27  8  1  0
 27 11  1  0
 24 12  1  0
 22 16  1  0
M  END
>  <MS_ID>  (3381) 
MS3522

>  <SMILES>  (3381) 
C[C@H](CCC(=O)O)[C@H]1CC[C@H]2[C@@H]3[C@@H](O)C[C@@H]4C[C@H](O)CC[C@]4(Br)[C@H]3CC[C@]12C

>  <Structure_dimension>  (3381) 
2D

$$$$
MS3524
     RDKit          2D

 29 32  0  0  0  0  0  0  0  0999 V2000
   -4.5794    2.7226    0.0000 C   0  0  0  0  0  0  0  0  0  0  0  0
   -3.3580    1.8519    0.0000 S   0  0  0  0  0  0  0  0  0  0  0  0
   -3.5014    0.3587    0.0000 C   0  0  0  0  0  0  0  0  0  0  0  0
   -4.8662   -0.2637    0.0000 C   0  0  0  0  0  0  0  0  0  0  0  0
   -6.0876    0.6071    0.0000 C   0  0  0  0  0  0  0  0  0  0  0  0
   -7.4524   -0.0153    0.0000 C   0  0  0  0  0  0  0  0  0  0  0  0
   -7.5958   -1.5084    0.0000 O   0  0  0  0  0  0  0  0  0  0  0  0
   -8.6738    0.8554    0.0000 O   0  0  0  0  0  0  0  0  0  0  0  0
   -2.2800   -0.5120    0.0000 C   0  0  0  0  0  0  0  0  0  0  0  0
   -2.2665   -2.0119    0.0000 C   0  0  0  0  0  0  0  0  0  0  0  0
   -0.8358   -2.4626    0.0000 C   0  0  0  0  0  0  0  0  0  0  0  0
    0.0349   -1.2412    0.0000 C   0  0  0  0  0  0  0  0  0  0  0  0
    1.5252   -1.0710    0.0000 C   0  0  0  0  0  0  0  0  0  0  0  0
    2.4178   -2.2766    0.0000 C   0  0  0  0  0  0  0  0  0  0  0  0
    1.8200   -3.6523    0.0000 O   0  0  0  0  0  0  0  0  0  0  0  0
    3.9081   -2.1064    0.0000 C   0  0  0  0  0  0  0  0  0  0  0  0
    4.5058   -0.7307    0.0000 C   0  0  0  0  0  0  0  0  0  0  0  0
    5.9961   -0.5605    0.0000 C   0  0  0  0  0  0  0  0  0  0  0  0
    6.5939    0.8153    0.0000 C   0  0  0  0  0  0  0  0  0  0  0  0
    8.0842    0.9855    0.0000 S   0  0  0  0  0  0  0  0  0  0  0  0
    5.7014    2.0208    0.0000 C   0  0  0  0  0  0  0  0  0  0  0  0
    4.2111    1.8506    0.0000 C   0  0  0  0  0  0  0  0  0  0  0  0
    3.6133    0.4749    0.0000 C   0  0  0  0  0  0  0  0  0  0  0  0
    2.7207    1.6805    0.0000 C   0  0  0  0  0  0  0  0  0  0  0  0
    2.1230    0.3047    0.0000 C   0  0  0  0  0  0  0  0  0  0  0  0
    1.2304    1.5103    0.0000 C   0  0  0  0  0  0  0  0  0  0  0  0
   -0.2599    1.3401    0.0000 C   0  0  0  0  0  0  0  0  0  0  0  0
   -0.8577   -0.0357    0.0000 C   0  0  0  0  0  0  0  0  0  0  0  0
   -1.8713    1.0700    0.0000 C   0  0  0  0  0  0  0  0  0  0  0  0
  1  2  1  0
  2  3  1  0
  3  4  1  1
  4  5  1  0
  5  6  1  0
  6  7  2  0
  6  8  1  0
  3  9  1  0
  9 10  1  6
 10 11  1  0
 12 11  1  6
 12 13  1  0
 13 14  1  1
 14 15  1  6
 14 16  1  0
 17 16  1  1
 17 18  1  0
 18 19  1  0
 19 20  1  1
 19 21  1  0
 21 22  1  0
 22 23  1  0
 23 24  1  6
 23 25  1  0
 25 26  1  6
 26 27  1  0
 27 28  1  0
 28 29  1  6
 28  9  1  0
 28 12  1  0
 25 13  1  0
 23 17  1  0
M  END
>  <MS_ID>  (3382) 
MS3524

>  <SMILES>  (3382) 
CS[C@H](CCC(=O)O)[C@H]1CC[C@H]2[C@@H]3[C@@H](O)C[C@@H]4C[C@H](S)CC[C@]4(C)[C@H]3CC[C@]12C

>  <Structure_dimension>  (3382) 
2D

$$$$
MS3525
     RDKit          2D

 31 34  0  0  0  0  0  0  0  0999 V2000
   -6.8556    3.5368    0.0000 C   0  0  0  0  0  0  0  0  0  0  0  0
   -6.4838    2.0836    0.0000 C   0  0  0  0  0  0  0  0  0  0  0  0
   -5.0394    1.6790    0.0000 C   0  0  0  0  0  0  0  0  0  0  0  0
   -4.6676    0.2259    0.0000 C   0  0  0  0  0  0  0  0  0  0  0  0
   -3.2232   -0.1787    0.0000 C   0  0  0  0  0  0  0  0  0  0  0  0
   -2.8514   -1.6319    0.0000 C   0  0  0  0  0  0  0  0  0  0  0  0
   -3.9239   -2.6805    0.0000 C   0  0  0  0  0  0  0  0  0  0  0  0
   -1.4069   -2.0365    0.0000 C   0  0  0  0  0  0  0  0  0  0  0  0
   -0.8853   -3.4429    0.0000 C   0  0  0  0  0  0  0  0  0  0  0  0
    0.6135   -3.3813    0.0000 C   0  0  0  0  0  0  0  0  0  0  0  0
    1.0181   -1.9369    0.0000 C   0  0  0  0  0  0  0  0  0  0  0  0
    2.3622   -1.2711    0.0000 C   0  0  0  0  0  0  0  0  0  0  0  0
    3.6109   -2.1022    0.0000 C   0  0  0  0  0  0  0  0  0  0  0  0
    3.5154   -3.5992    0.0000 O   0  0  0  0  0  0  0  0  0  0  0  0
    4.9550   -1.4364    0.0000 C   0  0  0  0  0  0  0  0  0  0  0  0
    5.0504    0.0606    0.0000 C   0  0  0  0  0  0  0  0  0  0  0  0
    6.3946    0.7264    0.0000 C   0  0  0  0  0  0  0  0  0  0  0  0
    6.4900    2.2234    0.0000 C   0  0  0  0  0  0  0  0  0  0  0  0
    7.8341    2.8892    0.0000 O   0  0  0  0  0  0  0  0  0  0  0  0
    5.2413    3.0545    0.0000 C   0  0  0  0  0  0  0  0  0  0  0  0
    3.8972    2.3887    0.0000 C   0  0  0  0  0  0  0  0  0  0  0  0
    3.8017    0.8917    0.0000 C   0  0  0  0  0  0  0  0  0  0  0  0
    2.5531    1.7228    0.0000 C   0  0  0  0  0  0  0  0  0  0  0  0
    2.4576    0.2259    0.0000 C   0  0  0  0  0  0  0  0  0  0  0  0
    1.2089    1.0570    0.0000 C   0  0  0  0  0  0  0  0  0  0  0  0
   -0.1352    0.3912    0.0000 C   0  0  0  0  0  0  0  0  0  0  0  0
   -0.2306   -1.1058    0.0000 C   0  0  0  0  0  0  0  0  0  0  0  0
   -1.5594   -0.4097    0.0000 C   0  0  0  0  0  0  0  0  0  0  0  0
   -7.5564    1.0350    0.0000 C   0  0  0  0  0  0  0  0  0  0  0  0
   -7.1846   -0.4182    0.0000 O   0  0  0  0  0  0  0  0  0  0  0  0
   -9.0008    1.4396    0.0000 O   0  0  0  0  0  0  0  0  0  0  0  0
  2  1  1  6
  2  3  1  0
  3  4  1  0
  4  5  1  0
  5  6  1  0
  6  7  1  1
  6  8  1  0
  8  9  1  6
  9 10  1  0
 11 10  1  6
 11 12  1  0
 12 13  1  1
 13 14  1  1
 13 15  1  0
 16 15  1  1
 16 17  1  0
 17 18  1  0
 18 19  1  1
 18 20  1  0
 20 21  1  0
 21 22  1  0
 22 23  1  6
 22 24  1  0
 24 25  1  6
 25 26  1  0
 26 27  1  0
 27 28  1  6
  2 29  1  0
 29 30  2  0
 29 31  1  0
 27  8  1  0
 27 11  1  0
 24 12  1  0
 22 16  1  0
M  END
>  <MS_ID>  (3383) 
MS3525

>  <SMILES>  (3383) 
C[C@H](CCC[C@H](C)[C@H]1CC[C@H]2[C@@H]3[C@H](O)C[C@@H]4C[C@H](O)CC[C@]4(C)[C@H]3CC[C@]12C)C(=O)O

>  <Structure_dimension>  (3383) 
2D

$$$$
MS3526
     RDKit          2D

 32 35  0  0  0  0  0  0  0  0999 V2000
   -6.3148   -1.8053    0.0000 C   0  0  0  0  0  0  0  0  0  0  0  0
   -5.0840   -0.9480    0.0000 C   0  0  0  0  0  0  0  0  0  0  0  0
   -5.2110    0.5466    0.0000 C   0  0  0  0  0  0  0  0  0  0  0  0
   -6.5688    1.1840    0.0000 C   0  0  0  0  0  0  0  0  0  0  0  0
   -6.6958    2.6786    0.0000 C   0  0  0  0  0  0  0  0  0  0  0  0
   -5.4650    3.5359    0.0000 O   0  0  0  0  0  0  0  0  0  0  0  0
   -8.0537    3.3159    0.0000 O   0  0  0  0  0  0  0  0  0  0  0  0
   -3.7261   -1.5853    0.0000 C   0  0  0  0  0  0  0  0  0  0  0  0
   -3.4436   -3.0584    0.0000 C   0  0  0  0  0  0  0  0  0  0  0  0
   -1.9552   -3.2450    0.0000 C   0  0  0  0  0  0  0  0  0  0  0  0
   -1.3179   -1.8871    0.0000 C   0  0  0  0  0  0  0  0  0  0  0  0
    0.1177   -1.4521    0.0000 C   0  0  0  0  0  0  0  0  0  0  0  0
    1.2121   -2.4779    0.0000 C   0  0  0  0  0  0  0  0  0  0  0  0
    0.8711   -3.9386    0.0000 O   0  0  0  0  0  0  0  0  0  0  0  0
    2.6477   -2.0429    0.0000 C   0  0  0  0  0  0  0  0  0  0  0  0
    2.9888   -0.5822    0.0000 C   0  0  0  0  0  0  0  0  0  0  0  0
    4.4243   -0.1472    0.0000 O   0  0  0  0  0  0  0  0  0  0  0  0
    4.7654    1.3135    0.0000 C   0  0  0  0  0  0  0  0  0  0  0  0
    6.2009    1.7485    0.0000 O   0  0  0  0  0  0  0  0  0  0  0  0
    7.2954    0.7227    0.0000 S   0  0  0  0  0  0  0  0  0  0  0  0
    6.2697   -0.3717    0.0000 O   0  0  0  0  0  0  0  0  0  0  0  0
    8.3211    1.8172    0.0000 O   0  0  0  0  0  0  0  0  0  0  0  0
    8.3899   -0.3030    0.0000 O   0  0  0  0  0  0  0  0  0  0  0  0
    3.6709    2.3392    0.0000 C   0  0  0  0  0  0  0  0  0  0  0  0
    2.2354    1.9043    0.0000 C   0  0  0  0  0  0  0  0  0  0  0  0
    1.8943    0.4436    0.0000 C   0  0  0  0  0  0  0  0  0  0  0  0
    0.7998    1.4693    0.0000 C   0  0  0  0  0  0  0  0  0  0  0  0
    0.4587    0.0086    0.0000 C   0  0  0  0  0  0  0  0  0  0  0  0
   -0.6357    1.0343    0.0000 C   0  0  0  0  0  0  0  0  0  0  0  0
   -2.0713    0.5993    0.0000 C   0  0  0  0  0  0  0  0  0  0  0  0
   -2.4123   -0.8614    0.0000 C   0  0  0  0  0  0  0  0  0  0  0  0
   -3.6080    0.0444    0.0000 C   0  0  0  0  0  0  0  0  0  0  0  0
  2  1  1  6
  2  3  1  0
  3  4  1  0
  4  5  1  0
  5  6  2  0
  5  7  1  0
  2  8  1  0
  8  9  1  6
  9 10  1  0
 11 10  1  6
 11 12  1  0
 12 13  1  1
 13 14  1  6
 13 15  1  0
 16 15  1  1
 16 17  1  0
 17 18  1  0
 18 19  1  1
 19 20  1  0
 20 21  2  0
 20 22  2  0
 20 23  1  0
 18 24  1  0
 24 25  1  0
 25 26  1  0
 26 27  1  6
 26 28  1  0
 28 29  1  6
 29 30  1  0
 30 31  1  0
 31 32  1  6
 31  8  1  0
 31 11  1  0
 28 12  1  0
 26 16  1  0
M  END
>  <MS_ID>  (3384) 
MS3526

>  <SMILES>  (3384) 
C[C@H](CCC(=O)O)[C@H]1CC[C@H]2[C@@H]3[C@@H](O)C[C@@H]4O[C@H](OS(=O)(=O)O)CC[C@]4(C)[C@H]3CC[C@]12C

>  <Structure_dimension>  (3384) 
2D

$$$$
MS3527
     RDKit          2D

 31 34  0  0  0  0  0  0  0  0999 V2000
   -5.2159    2.7136    0.0000 C   0  0  0  0  0  0  0  0  0  0  0  0
   -3.9915    1.8471    0.0000 S   0  0  0  0  0  0  0  0  0  0  0  0
   -4.1299    0.3534    0.0000 C   0  0  0  0  0  0  0  0  0  0  0  0
   -5.4925   -0.2736    0.0000 C   0  0  0  0  0  0  0  0  0  0  0  0
   -6.7169    0.5930    0.0000 C   0  0  0  0  0  0  0  0  0  0  0  0
   -8.0795   -0.0340    0.0000 C   0  0  0  0  0  0  0  0  0  0  0  0
   -8.2178   -1.5276    0.0000 O   0  0  0  0  0  0  0  0  0  0  0  0
   -9.3039    0.8326    0.0000 O   0  0  0  0  0  0  0  0  0  0  0  0
   -2.9055   -0.5131    0.0000 C   0  0  0  0  0  0  0  0  0  0  0  0
   -2.8870   -2.0130    0.0000 C   0  0  0  0  0  0  0  0  0  0  0  0
   -1.4547   -2.4589    0.0000 C   0  0  0  0  0  0  0  0  0  0  0  0
   -0.5881   -1.2345    0.0000 C   0  0  0  0  0  0  0  0  0  0  0  0
    0.9016   -1.0593    0.0000 C   0  0  0  0  0  0  0  0  0  0  0  0
    1.7982   -2.2618    0.0000 C   0  0  0  0  0  0  0  0  0  0  0  0
    1.2051   -3.6396    0.0000 O   0  0  0  0  0  0  0  0  0  0  0  0
    3.2879   -2.0866    0.0000 C   0  0  0  0  0  0  0  0  0  0  0  0
    3.8810   -0.7088    0.0000 C   0  0  0  0  0  0  0  0  0  0  0  0
    5.3708   -0.5335    0.0000 C   0  0  0  0  0  0  0  0  0  0  0  0
    5.9639    0.8442    0.0000 C   0  0  0  0  0  0  0  0  0  0  0  0
    7.4536    1.0195    0.0000 C   0  0  0  0  0  0  0  0  0  0  0  0
    8.3502   -0.1831    0.0000 C   0  0  0  0  0  0  0  0  0  0  0  0
    9.8399   -0.0078    0.0000 O   0  0  0  0  0  0  0  0  0  0  0  0
    5.0672    2.0467    0.0000 C   0  0  0  0  0  0  0  0  0  0  0  0
    3.5775    1.8715    0.0000 C   0  0  0  0  0  0  0  0  0  0  0  0
    2.9844    0.4937    0.0000 C   0  0  0  0  0  0  0  0  0  0  0  0
    2.0878    1.6963    0.0000 C   0  0  0  0  0  0  0  0  0  0  0  0
    1.4947    0.3185    0.0000 C   0  0  0  0  0  0  0  0  0  0  0  0
    0.5981    1.5210    0.0000 C   0  0  0  0  0  0  0  0  0  0  0  0
   -0.8917    1.3458    0.0000 C   0  0  0  0  0  0  0  0  0  0  0  0
   -1.4848   -0.0320    0.0000 C   0  0  0  0  0  0  0  0  0  0  0  0
   -2.5022    1.0702    0.0000 C   0  0  0  0  0  0  0  0  0  0  0  0
  1  2  1  0
  2  3  1  0
  3  4  1  1
  4  5  1  0
  5  6  1  0
  6  7  2  0
  6  8  1  0
  3  9  1  0
  9 10  1  6
 10 11  1  0
 12 11  1  6
 12 13  1  0
 13 14  1  1
 14 15  1  6
 14 16  1  0
 17 16  1  1
 17 18  1  0
 18 19  1  0
 19 20  1  1
 20 21  1  0
 21 22  1  0
 19 23  1  0
 23 24  1  0
 24 25  1  0
 25 26  1  6
 25 27  1  0
 27 28  1  6
 28 29  1  0
 29 30  1  0
 30 31  1  6
 30  9  1  0
 30 12  1  0
 27 13  1  0
 25 17  1  0
M  END
>  <MS_ID>  (3385) 
MS3527

>  <SMILES>  (3385) 
CS[C@H](CCC(=O)O)[C@H]1CC[C@H]2[C@@H]3[C@@H](O)C[C@@H]4C[C@H](CCO)CC[C@]4(C)[C@H]3CC[C@]12C

>  <Structure_dimension>  (3385) 
2D

$$$$
MS3530
     RDKit          2D

 31 34  0  0  0  0  0  0  0  0999 V2000
   -3.8395   -3.3356    0.0000 C   0  0  0  0  0  0  0  0  0  0  0  0
   -2.8820   -2.1809    0.0000 C   0  0  0  0  0  0  0  0  0  0  0  0
   -3.4032   -0.7744    0.0000 C   0  0  0  0  0  0  0  0  0  0  0  0
   -2.4457    0.3803    0.0000 O   0  0  0  0  0  0  0  0  0  0  0  0
   -4.8819   -0.5225    0.0000 N   0  0  0  0  0  0  0  0  0  0  0  0
   -5.4031    0.8840    0.0000 C   0  0  0  0  0  0  0  0  0  0  0  0
   -6.8818    1.1359    0.0000 C   0  0  0  0  0  0  0  0  0  0  0  0
   -7.4031    2.5424    0.0000 C   0  0  0  0  0  0  0  0  0  0  0  0
   -6.4456    3.6971    0.0000 O   0  0  0  0  0  0  0  0  0  0  0  0
   -8.8818    2.7943    0.0000 O   0  0  0  0  0  0  0  0  0  0  0  0
   -1.4033   -2.4328    0.0000 C   0  0  0  0  0  0  0  0  0  0  0  0
   -0.7379   -3.7771    0.0000 C   0  0  0  0  0  0  0  0  0  0  0  0
    0.7463   -3.5597    0.0000 C   0  0  0  0  0  0  0  0  0  0  0  0
    0.9982   -2.0810    0.0000 C   0  0  0  0  0  0  0  0  0  0  0  0
    2.2656   -1.2787    0.0000 C   0  0  0  0  0  0  0  0  0  0  0  0
    3.5941   -1.9752    0.0000 C   0  0  0  0  0  0  0  0  0  0  0  0
    3.6551   -3.4740    0.0000 O   0  0  0  0  0  0  0  0  0  0  0  0
    4.8615   -1.1729    0.0000 C   0  0  0  0  0  0  0  0  0  0  0  0
    4.8004    0.3258    0.0000 C   0  0  0  0  0  0  0  0  0  0  0  0
    6.0678    1.1281    0.0000 C   0  0  0  0  0  0  0  0  0  0  0  0
    6.0068    2.6268    0.0000 C   0  0  0  0  0  0  0  0  0  0  0  0
    7.2742    3.4291    0.0000 O   0  0  0  0  0  0  0  0  0  0  0  0
    4.6783    3.3233    0.0000 C   0  0  0  0  0  0  0  0  0  0  0  0
    3.4108    2.5210    0.0000 C   0  0  0  0  0  0  0  0  0  0  0  0
    3.4719    1.0223    0.0000 C   0  0  0  0  0  0  0  0  0  0  0  0
    2.1434    1.7188    0.0000 C   0  0  0  0  0  0  0  0  0  0  0  0
    2.2045    0.2200    0.0000 C   0  0  0  0  0  0  0  0  0  0  0  0
    0.8760    0.9165    0.0000 C   0  0  0  0  0  0  0  0  0  0  0  0
   -0.3914    0.1142    0.0000 C   0  0  0  0  0  0  0  0  0  0  0  0
   -0.3303   -1.3845    0.0000 C   0  0  0  0  0  0  0  0  0  0  0  0
   -1.7244   -0.8307    0.0000 C   0  0  0  0  0  0  0  0  0  0  0  0
  2  1  1  6
  2  3  1  0
  3  4  2  0
  3  5  1  0
  5  6  1  0
  6  7  1  0
  7  8  1  0
  8  9  2  0
  8 10  1  0
  2 11  1  0
 11 12  1  6
 12 13  1  0
 14 13  1  6
 14 15  1  0
 15 16  1  1
 16 17  1  6
 16 18  1  0
 19 18  1  1
 19 20  1  0
 20 21  1  0
 21 22  1  1
 21 23  1  0
 23 24  1  0
 24 25  1  0
 25 26  1  6
 25 27  1  0
 27 28  1  6
 28 29  1  0
 29 30  1  0
 30 31  1  6
 30 11  1  0
 30 14  1  0
 27 15  1  0
 25 19  1  0
M  END
>  <MS_ID>  (3386) 
MS3530

>  <SMILES>  (3386) 
C[C@H](C(=O)NCCC(=O)O)[C@H]1CC[C@H]2[C@@H]3[C@@H](O)C[C@@H]4C[C@H](O)CC[C@]4(C)[C@H]3CC[C@]12C

>  <Structure_dimension>  (3386) 
2D

$$$$
MS3532
     RDKit          2D

 24 27  0  0  0  0  0  0  0  0999 V2000
    1.6887   -1.5390    0.0000 C   0  0  0  0  0  0  0  0  0  0  0  0
    2.5258   -0.2943    0.0000 C   0  0  0  0  0  0  0  0  0  0  0  0
    3.1852   -1.6416    0.0000 C   0  0  0  0  0  0  0  0  0  0  0  0
    4.6817   -1.7441    0.0000 C   0  0  0  0  0  0  0  0  0  0  0  0
    5.5188   -0.4994    0.0000 C   0  0  0  0  0  0  0  0  0  0  0  0
    7.0153   -0.6020    0.0000 O   0  0  0  0  0  0  0  0  0  0  0  0
    4.8594    0.8479    0.0000 C   0  0  0  0  0  0  0  0  0  0  0  0
    3.3629    0.9504    0.0000 C   0  0  0  0  0  0  0  0  0  0  0  0
    2.7034    2.2977    0.0000 C   0  0  0  0  0  0  0  0  0  0  0  0
    1.2070    2.4003    0.0000 C   0  0  0  0  0  0  0  0  0  0  0  0
    0.3699    1.1555    0.0000 C   0  0  0  0  0  0  0  0  0  0  0  0
    1.0293   -0.1917    0.0000 C   0  0  0  0  0  0  0  0  0  0  0  0
    0.1923   -1.4364    0.0000 C   0  0  0  0  0  0  0  0  0  0  0  0
   -1.3042   -1.3339    0.0000 C   0  0  0  0  0  0  0  0  0  0  0  0
   -1.9637    0.0134    0.0000 C   0  0  0  0  0  0  0  0  0  0  0  0
   -2.9262   -1.1370    0.0000 C   0  0  0  0  0  0  0  0  0  0  0  0
   -3.4061    0.4248    0.0000 C   0  0  0  0  0  0  0  0  0  0  0  0
   -4.5869   -0.5003    0.0000 C   0  0  0  0  0  0  0  0  0  0  0  0
   -4.3760   -1.9854    0.0000 O   0  0  0  0  0  0  0  0  0  0  0  0
   -5.9784    0.0597    0.0000 C   0  0  0  0  0  0  0  0  0  0  0  0
   -7.1591   -0.8654    0.0000 O   0  0  0  0  0  0  0  0  0  0  0  0
   -3.4606    1.9239    0.0000 C   0  0  0  0  0  0  0  0  0  0  0  0
   -2.0517    2.4388    0.0000 C   0  0  0  0  0  0  0  0  0  0  0  0
   -1.1266    1.2581    0.0000 C   0  0  0  0  0  0  0  0  0  0  0  0
  2  1  1  1
  2  3  1  0
  3  4  1  0
  4  5  1  0
  5  6  2  0
  5  7  1  0
  8  7  1  6
  8  9  1  0
  9 10  1  0
 11 10  1  6
 11 12  1  0
 12 13  1  1
 13 14  1  0
 14 15  1  0
 15 16  1  1
 15 17  1  0
 17 18  1  0
 18 19  1  1
 18 20  1  0
 20 21  1  0
 17 22  1  1
 22 23  1  0
 24 23  1  1
  8  2  1  0
 24 11  1  0
 12  2  1  0
 24 15  1  0
M  END
>  <MS_ID>  (3387) 
MS3532

>  <SMILES>  (3387) 
C[C@]12CCC(=O)C[C@H]1CC[C@@H]1[C@@H]2CC[C@]2(C)[C@@H]([C@@H](O)CO)CC[C@@H]12

>  <Structure_dimension>  (3387) 
2D

$$$$
MS3533
     RDKit          2D

 23 26  0  0  0  0  0  0  0  0999 V2000
   -5.8886   -0.2148    0.0000 C   0  0  0  0  0  0  0  0  0  0  0  0
   -4.5075    0.3703    0.0000 C   0  0  0  0  0  0  0  0  0  0  0  0
   -4.3236    1.8590    0.0000 O   0  0  0  0  0  0  0  0  0  0  0  0
   -3.3102   -0.5332    0.0000 C   0  0  0  0  0  0  0  0  0  0  0  0
   -3.3374   -2.0330    0.0000 C   0  0  0  0  0  0  0  0  0  0  0  0
   -1.9195   -2.5224    0.0000 C   0  0  0  0  0  0  0  0  0  0  0  0
   -1.0159   -1.3251    0.0000 C   0  0  0  0  0  0  0  0  0  0  0  0
    0.4785   -1.1954    0.0000 C   0  0  0  0  0  0  0  0  0  0  0  0
    1.3380   -2.4247    0.0000 C   0  0  0  0  0  0  0  0  0  0  0  0
    2.8323   -2.2951    0.0000 C   0  0  0  0  0  0  0  0  0  0  0  0
    3.4672   -0.9361    0.0000 C   0  0  0  0  0  0  0  0  0  0  0  0
    4.9616   -0.8064    0.0000 C   0  0  0  0  0  0  0  0  0  0  0  0
    5.5965    0.5526    0.0000 C   0  0  0  0  0  0  0  0  0  0  0  0
    4.7370    1.7820    0.0000 C   0  0  0  0  0  0  0  0  0  0  0  0
    3.2427    1.6523    0.0000 C   0  0  0  0  0  0  0  0  0  0  0  0
    2.6078    0.2933    0.0000 C   0  0  0  0  0  0  0  0  0  0  0  0
    1.7483    1.5226    0.0000 C   0  0  0  0  0  0  0  0  0  0  0  0
    1.1134    0.1636    0.0000 C   0  0  0  0  0  0  0  0  0  0  0  0
    0.2539    1.3930    0.0000 C   0  0  0  0  0  0  0  0  0  0  0  0
   -1.2405    1.2633    0.0000 C   0  0  0  0  0  0  0  0  0  0  0  0
   -2.1000    2.4926    0.0000 O   0  0  0  0  0  0  0  0  0  0  0  0
   -1.8754   -0.0957    0.0000 C   0  0  0  0  0  0  0  0  0  0  0  0
   -2.8587    1.0371    0.0000 C   0  0  0  0  0  0  0  0  0  0  0  0
  1  2  1  0
  2  3  2  0
  4  2  1  6
  4  5  1  0
  5  6  1  0
  7  6  1  6
  7  8  1  0
  8  9  1  1
  9 10  1  0
 11 10  1  1
 11 12  1  0
 12 13  1  0
 13 14  1  0
 14 15  1  0
 15 16  1  0
 16 17  1  6
 16 18  1  0
 18 19  1  6
 19 20  1  0
 20 21  1  1
 20 22  1  0
 22 23  1  6
 22  4  1  0
 22  7  1  0
 18  8  1  0
 16 11  1  0
M  END
>  <MS_ID>  (3388) 
MS3533

>  <SMILES>  (3388) 
CC(=O)[C@H]1CC[C@H]2[C@@H]3CC[C@@H]4CCCC[C@]4(C)[C@H]3C[C@H](O)[C@]12C

>  <Structure_dimension>  (3388) 
2D

$$$$
MS3534
     RDKit          2D

 41 45  0  0  0  0  0  0  0  0999 V2000
   -9.8348    3.3838    0.0000 C   0  0  0  0  0  0  0  0  0  0  0  0
   -9.5134    1.9187    0.0000 C   0  0  0  0  0  0  0  0  0  0  0  0
   -8.0838    1.4644    0.0000 C   0  0  0  0  0  0  0  0  0  0  0  0
   -7.7624   -0.0007    0.0000 C   0  0  0  0  0  0  0  0  0  0  0  0
   -6.3328   -0.4549    0.0000 C   0  0  0  0  0  0  0  0  0  0  0  0
   -6.0114   -1.9201    0.0000 C   0  0  0  0  0  0  0  0  0  0  0  0
   -7.1195   -2.9310    0.0000 C   0  0  0  0  0  0  0  0  0  0  0  0
   -4.5818   -2.3743    0.0000 C   0  0  0  0  0  0  0  0  0  0  0  0
   -4.1090   -3.7979    0.0000 C   0  0  0  0  0  0  0  0  0  0  0  0
   -2.6090   -3.7881    0.0000 C   0  0  0  0  0  0  0  0  0  0  0  0
   -2.1548   -2.3585    0.0000 C   0  0  0  0  0  0  0  0  0  0  0  0
   -0.7885   -1.7395    0.0000 C   0  0  0  0  0  0  0  0  0  0  0  0
    0.4307   -2.6133    0.0000 C   0  0  0  0  0  0  0  0  0  0  0  0
    1.7971   -1.9943    0.0000 C   0  0  0  0  0  0  0  0  0  0  0  0
    1.9441   -0.5015    0.0000 C   0  0  0  0  0  0  0  0  0  0  0  0
    3.3105    0.1175    0.0000 C   0  0  0  0  0  0  0  0  0  0  0  0
    3.4575    1.6103    0.0000 C   0  0  0  0  0  0  0  0  0  0  0  0
    4.8239    2.2293    0.0000 O   0  0  0  0  0  0  0  0  0  0  0  0
    6.0431    1.3555    0.0000 C   0  0  0  0  0  0  0  0  0  0  0  0
    5.8960   -0.1372    0.0000 O   0  0  0  0  0  0  0  0  0  0  0  0
    7.1153   -1.0110    0.0000 C   0  0  0  0  0  0  0  0  0  0  0  0
    6.9682   -2.5038    0.0000 C   0  0  0  0  0  0  0  0  0  0  0  0
    5.6019   -3.1228    0.0000 O   0  0  0  0  0  0  0  0  0  0  0  0
    8.4816   -0.3920    0.0000 C   0  0  0  0  0  0  0  0  0  0  0  0
    9.7008   -1.2657    0.0000 O   0  0  0  0  0  0  0  0  0  0  0  0
    8.6286    1.1008    0.0000 C   0  0  0  0  0  0  0  0  0  0  0  0
    9.9950    1.7198    0.0000 O   0  0  0  0  0  0  0  0  0  0  0  0
    7.4094    1.9746    0.0000 C   0  0  0  0  0  0  0  0  0  0  0  0
    7.5565    3.4673    0.0000 O   0  0  0  0  0  0  0  0  0  0  0  0
    2.2383    2.4840    0.0000 C   0  0  0  0  0  0  0  0  0  0  0  0
    0.8720    1.8650    0.0000 C   0  0  0  0  0  0  0  0  0  0  0  0
    0.7249    0.3723    0.0000 C   0  0  0  0  0  0  0  0  0  0  0  0
   -0.4943    1.2460    0.0000 C   0  0  0  0  0  0  0  0  0  0  0  0
   -0.6414   -0.2468    0.0000 C   0  0  0  0  0  0  0  0  0  0  0  0
   -1.8607    0.6270    0.0000 C   0  0  0  0  0  0  0  0  0  0  0  0
   -3.2270    0.0080    0.0000 C   0  0  0  0  0  0  0  0  0  0  0  0
   -3.3741   -1.4848    0.0000 C   0  0  0  0  0  0  0  0  0  0  0  0
   -4.6779   -0.7432    0.0000 C   0  0  0  0  0  0  0  0  0  0  0  0
   -6.9756    2.4754    0.0000 C   0  0  0  0  0  0  0  0  0  0  0  0
   -7.2970    3.9405    0.0000 C   0  0  0  0  0  0  0  0  0  0  0  0
   -5.5460    2.0211    0.0000 C   0  0  0  0  0  0  0  0  0  0  0  0
  1  2  1  0
  3  2  1  1
  3  4  1  0
  4  5  1  0
  5  6  1  0
  6  7  1  6
  6  8  1  0
  8  9  1  6
  9 10  1  0
 11 10  1  6
 11 12  1  0
 12 13  1  1
 13 14  1  0
 15 14  1  1
 15 16  1  0
 16 17  1  0
 17 18  1  1
 19 18  1  1
 19 20  1  0
 20 21  1  0
 21 22  1  1
 22 23  1  0
 21 24  1  0
 24 25  1  6
 24 26  1  0
 26 27  1  1
 26 28  1  0
 28 29  1  6
 17 30  1  0
 30 31  1  0
 31 32  1  0
 32 33  1  6
 32 34  1  0
 34 35  1  6
 35 36  1  0
 36 37  1  0
 37 38  1  6
  3 39  1  0
 39 40  1  0
 39 41  1  0
 37  8  1  0
 37 11  1  0
 34 12  1  0
 32 15  1  0
 28 19  1  0
M  END
>  <MS_ID>  (3389) 
MS3534

>  <SMILES>  (3389) 
CC[C@H](CC[C@@H](C)[C@H]1CC[C@H]2[C@@H]3CC[C@@H]4C[C@H](O[C@@H]5O[C@H](CO)[C@@H](O)[C@H](O)[C@H]5O)CC[C@]4(C)[C@H]3CC[C@]12C)C(C)C

>  <Structure_dimension>  (3389) 
2D

$$$$
MS3535
     RDKit          2D

 37 40  0  0  0  0  0  0  0  0999 V2000
   -1.8349   -4.5052    0.0000 C   0  0  0  0  0  0  0  0  0  0  0  0
   -1.1795   -3.1559    0.0000 C   0  0  0  0  0  0  0  0  0  0  0  0
   -2.0203   -1.9137    0.0000 C   0  0  0  0  0  0  0  0  0  0  0  0
   -3.5164   -2.0207    0.0000 C   0  0  0  0  0  0  0  0  0  0  0  0
   -4.3572   -0.7785    0.0000 C   0  0  0  0  0  0  0  0  0  0  0  0
   -3.7018    0.5707    0.0000 O   0  0  0  0  0  0  0  0  0  0  0  0
   -5.8534   -0.8855    0.0000 N   0  0  0  0  0  0  0  0  0  0  0  0
   -6.6942    0.3567    0.0000 C   0  0  0  0  0  0  0  0  0  0  0  0
   -8.1903    0.2497    0.0000 C   0  0  0  0  0  0  0  0  0  0  0  0
   -9.0311    1.4919    0.0000 C   0  0  0  0  0  0  0  0  0  0  0  0
  -10.5273    1.3849    0.0000 N   0  0  0  0  0  0  0  0  0  0  0  0
   -8.3757    2.8411    0.0000 O   0  0  0  0  0  0  0  0  0  0  0  0
   -6.0388    1.7059    0.0000 C   0  0  0  0  0  0  0  0  0  0  0  0
   -4.5426    1.8129    0.0000 O   0  0  0  0  0  0  0  0  0  0  0  0
   -6.8795    2.9481    0.0000 O   0  0  0  0  0  0  0  0  0  0  0  0
    0.3167   -3.0489    0.0000 C   0  0  0  0  0  0  0  0  0  0  0  0
    1.2827   -4.1964    0.0000 C   0  0  0  0  0  0  0  0  0  0  0  0
    2.6726   -3.6323    0.0000 C   0  0  0  0  0  0  0  0  0  0  0  0
    2.5655   -2.1361    0.0000 C   0  0  0  0  0  0  0  0  0  0  0  0
    3.6058   -1.0555    0.0000 C   0  0  0  0  0  0  0  0  0  0  0  0
    5.0618   -1.4160    0.0000 C   0  0  0  0  0  0  0  0  0  0  0  0
    5.4776   -2.8572    0.0000 O   0  0  0  0  0  0  0  0  0  0  0  0
    6.1021   -0.3353    0.0000 C   0  0  0  0  0  0  0  0  0  0  0  0
    7.5581   -0.6959    0.0000 O   0  0  0  0  0  0  0  0  0  0  0  0
    5.6863    1.1059    0.0000 C   0  0  0  0  0  0  0  0  0  0  0  0
    6.7266    2.1866    0.0000 C   0  0  0  0  0  0  0  0  0  0  0  0
    6.3109    3.6278    0.0000 C   0  0  0  0  0  0  0  0  0  0  0  0
    7.3511    4.7085    0.0000 O   0  0  0  0  0  0  0  0  0  0  0  0
    4.8548    3.9884    0.0000 C   0  0  0  0  0  0  0  0  0  0  0  0
    3.8146    2.9077    0.0000 C   0  0  0  0  0  0  0  0  0  0  0  0
    4.2303    1.4664    0.0000 C   0  0  0  0  0  0  0  0  0  0  0  0
    2.7743    1.8270    0.0000 C   0  0  0  0  0  0  0  0  0  0  0  0
    3.1901    0.3858    0.0000 C   0  0  0  0  0  0  0  0  0  0  0  0
    1.7340    0.7463    0.0000 C   0  0  0  0  0  0  0  0  0  0  0  0
    0.6938   -0.3343    0.0000 C   0  0  0  0  0  0  0  0  0  0  0  0
    1.1095   -1.7756    0.0000 C   0  0  0  0  0  0  0  0  0  0  0  0
   -0.3762   -1.5692    0.0000 C   0  0  0  0  0  0  0  0  0  0  0  0
  2  1  1  6
  2  3  1  0
  3  4  1  0
  4  5  1  0
  5  6  2  0
  5  7  1  0
  7  8  1  0
  8  9  1  1
  9 10  1  0
 10 11  1  0
 10 12  2  0
  8 13  1  0
 13 14  2  0
 13 15  1  0
  2 16  1  0
 16 17  1  6
 17 18  1  0
 19 18  1  6
 19 20  1  0
 20 21  1  1
 21 22  1  1
 21 23  1  0
 23 24  1  6
 23 25  1  0
 25 26  1  1
 26 27  1  0
 27 28  1  1
 27 29  1  0
 29 30  1  0
 30 31  1  0
 31 32  1  6
 31 33  1  0
 33 34  1  6
 34 35  1  0
 35 36  1  0
 36 37  1  6
 36 16  1  0
 36 19  1  0
 33 20  1  0
 31 25  1  0
M  END
>  <MS_ID>  (3390) 
MS3535

>  <SMILES>  (3390) 
C[C@H](CCC(=O)N[C@@H](CC(N)=O)C(=O)O)[C@H]1CC[C@H]2[C@@H]3[C@H](O)[C@@H](O)[C@@H]4C[C@H](O)CC[C@]4(C)[C@H]3CC[C@]12C

>  <Structure_dimension>  (3390) 
2D

$$$$
MS3536
     RDKit          2D

 37 40  0  0  0  0  0  0  0  0999 V2000
   -0.3984   -4.7465    0.0000 C   0  0  0  0  0  0  0  0  0  0  0  0
    0.1683   -3.3576    0.0000 C   0  0  0  0  0  0  0  0  0  0  0  0
   -0.7512   -2.1725    0.0000 C   0  0  0  0  0  0  0  0  0  0  0  0
   -2.2373   -2.3761    0.0000 C   0  0  0  0  0  0  0  0  0  0  0  0
   -3.1567   -1.1909    0.0000 C   0  0  0  0  0  0  0  0  0  0  0  0
   -2.5900    0.1979    0.0000 O   0  0  0  0  0  0  0  0  0  0  0  0
   -4.6428   -1.3946    0.0000 N   0  0  0  0  0  0  0  0  0  0  0  0
   -5.5623   -0.2094    0.0000 C   0  0  0  0  0  0  0  0  0  0  0  0
   -7.0484   -0.4131    0.0000 C   0  0  0  0  0  0  0  0  0  0  0  0
   -7.9678    0.7721    0.0000 C   0  0  0  0  0  0  0  0  0  0  0  0
   -9.4539    0.5684    0.0000 C   0  0  0  0  0  0  0  0  0  0  0  0
  -10.3734    1.7536    0.0000 C   0  0  0  0  0  0  0  0  0  0  0  0
   -9.8067    3.1424    0.0000 N   0  0  0  0  0  0  0  0  0  0  0  0
  -11.8595    1.5499    0.0000 C   0  0  0  0  0  0  0  0  0  0  0  0
  -12.4261    0.1611    0.0000 O   0  0  0  0  0  0  0  0  0  0  0  0
  -12.7789    2.7351    0.0000 O   0  0  0  0  0  0  0  0  0  0  0  0
    1.6544   -3.1540    0.0000 C   0  0  0  0  0  0  0  0  0  0  0  0
    2.6927   -4.2365    0.0000 C   0  0  0  0  0  0  0  0  0  0  0  0
    4.0431   -3.5836    0.0000 C   0  0  0  0  0  0  0  0  0  0  0  0
    3.8394   -2.0975    0.0000 C   0  0  0  0  0  0  0  0  0  0  0  0
    4.8075   -0.9517    0.0000 C   0  0  0  0  0  0  0  0  0  0  0  0
    6.2838   -1.2173    0.0000 C   0  0  0  0  0  0  0  0  0  0  0  0
    7.2520   -0.0715    0.0000 C   0  0  0  0  0  0  0  0  0  0  0  0
    8.7283   -0.3371    0.0000 O   0  0  0  0  0  0  0  0  0  0  0  0
    6.7438    1.3398    0.0000 C   0  0  0  0  0  0  0  0  0  0  0  0
    7.7119    2.4855    0.0000 C   0  0  0  0  0  0  0  0  0  0  0  0
    7.2037    3.8968    0.0000 C   0  0  0  0  0  0  0  0  0  0  0  0
    8.1718    5.0426    0.0000 O   0  0  0  0  0  0  0  0  0  0  0  0
    5.7274    4.1623    0.0000 C   0  0  0  0  0  0  0  0  0  0  0  0
    4.7593    3.0166    0.0000 C   0  0  0  0  0  0  0  0  0  0  0  0
    5.2675    1.6053    0.0000 C   0  0  0  0  0  0  0  0  0  0  0  0
    3.7911    1.8708    0.0000 C   0  0  0  0  0  0  0  0  0  0  0  0
    4.2993    0.4595    0.0000 C   0  0  0  0  0  0  0  0  0  0  0  0
    2.8230    0.7251    0.0000 C   0  0  0  0  0  0  0  0  0  0  0  0
    1.8549   -0.4207    0.0000 C   0  0  0  0  0  0  0  0  0  0  0  0
    2.3631   -1.8320    0.0000 C   0  0  0  0  0  0  0  0  0  0  0  0
    0.8671   -1.7222    0.0000 C   0  0  0  0  0  0  0  0  0  0  0  0
  2  1  1  6
  2  3  1  0
  3  4  1  0
  4  5  1  0
  5  6  2  0
  5  7  1  0
  7  8  1  0
  8  9  1  0
  9 10  1  0
 10 11  1  0
 11 12  1  0
 12 13  1  1
 12 14  1  0
 14 15  2  0
 14 16  1  0
  2 17  1  0
 17 18  1  6
 18 19  1  0
 20 19  1  6
 20 21  1  0
 21 22  1  1
 22 23  1  0
 23 24  1  1
 23 25  1  0
 25 26  1  1
 26 27  1  0
 27 28  1  1
 27 29  1  0
 29 30  1  0
 30 31  1  0
 31 32  1  6
 31 33  1  0
 33 34  1  6
 34 35  1  0
 35 36  1  0
 36 37  1  6
 36 17  1  0
 36 20  1  0
 33 21  1  0
 31 25  1  0
M  END
>  <MS_ID>  (3391) 
MS3536

>  <SMILES>  (3391) 
C[C@H](CCC(=O)NCCCC[C@H](N)C(=O)O)[C@H]1CC[C@H]2[C@@H]3C[C@H](O)[C@@H]4C[C@H](O)CC[C@]4(C)[C@H]3CC[C@]12C

>  <Structure_dimension>  (3391) 
2D

$$$$
MS3537
     RDKit          2D

 27 30  0  0  0  0  0  0  0  0999 V2000
   -4.7316   -2.2462    0.0000 C   0  0  0  0  0  0  0  0  0  0  0  0
   -3.6106   -1.2495    0.0000 C   0  0  0  0  0  0  0  0  0  0  0  0
   -3.9133    0.2196    0.0000 C   0  0  0  0  0  0  0  0  0  0  0  0
   -5.3370    0.6920    0.0000 C   0  0  0  0  0  0  0  0  0  0  0  0
   -5.6397    2.1612    0.0000 C   0  0  0  0  0  0  0  0  0  0  0  0
   -4.5188    3.1579    0.0000 O   0  0  0  0  0  0  0  0  0  0  0  0
   -7.0634    2.6336    0.0000 O   0  0  0  0  0  0  0  0  0  0  0  0
   -2.1870   -1.7219    0.0000 C   0  0  0  0  0  0  0  0  0  0  0  0
   -1.7323   -3.1514    0.0000 C   0  0  0  0  0  0  0  0  0  0  0  0
   -0.2324   -3.1607    0.0000 C   0  0  0  0  0  0  0  0  0  0  0  0
    0.2401   -1.7371    0.0000 C   0  0  0  0  0  0  0  0  0  0  0  0
    1.6141   -1.1355    0.0000 C   0  0  0  0  0  0  0  0  0  0  0  0
    2.8222   -2.0247    0.0000 C   0  0  0  0  0  0  0  0  0  0  0  0
    2.6561   -3.5155    0.0000 O   0  0  0  0  0  0  0  0  0  0  0  0
    4.1962   -1.4232    0.0000 O   0  0  0  0  0  0  0  0  0  0  0  0
    4.3623    0.0676    0.0000 C   0  0  0  0  0  0  0  0  0  0  0  0
    5.7364    0.6691    0.0000 C   0  0  0  0  0  0  0  0  0  0  0  0
    5.9025    2.1599    0.0000 C   0  0  0  0  0  0  0  0  0  0  0  0
    4.6945    3.0491    0.0000 C   0  0  0  0  0  0  0  0  0  0  0  0
    3.3204    2.4476    0.0000 C   0  0  0  0  0  0  0  0  0  0  0  0
    3.1543    0.9568    0.0000 C   0  0  0  0  0  0  0  0  0  0  0  0
    1.9463    1.8460    0.0000 C   0  0  0  0  0  0  0  0  0  0  0  0
    1.7802    0.3553    0.0000 C   0  0  0  0  0  0  0  0  0  0  0  0
    0.5722    1.2445    0.0000 C   0  0  0  0  0  0  0  0  0  0  0  0
   -0.8019    0.6429    0.0000 C   0  0  0  0  0  0  0  0  0  0  0  0
   -0.9680   -0.8478    0.0000 C   0  0  0  0  0  0  0  0  0  0  0  0
   -2.2623   -0.0897    0.0000 C   0  0  0  0  0  0  0  0  0  0  0  0
  2  1  1  6
  2  3  1  0
  3  4  1  0
  4  5  1  0
  5  6  2  0
  5  7  1  0
  2  8  1  0
  8  9  1  6
  9 10  1  0
 11 10  1  6
 11 12  1  0
 12 13  1  1
 13 14  1  6
 13 15  1  0
 15 16  1  0
 16 17  1  1
 17 18  1  0
 18 19  1  0
 19 20  1  0
 20 21  1  0
 21 22  1  6
 21 23  1  0
 23 24  1  6
 24 25  1  0
 25 26  1  0
 26 27  1  6
 26  8  1  0
 26 11  1  0
 23 12  1  0
 21 16  1  0
M  END
>  <MS_ID>  (3392) 
MS3537

>  <SMILES>  (3392) 
C[C@H](CCC(=O)O)[C@H]1CC[C@H]2[C@@H]3[C@@H](O)O[C@@H]4CCCC[C@]4(C)[C@H]3CC[C@]12C

>  <Structure_dimension>  (3392) 
2D

$$$$
MS3538
     RDKit          2D

 32 35  0  0  0  0  0  0  0  0999 V2000
   -3.1421   -3.6694    0.0000 C   0  0  0  0  0  0  0  0  0  0  0  0
   -2.2628   -2.4541    0.0000 C   0  0  0  0  0  0  0  0  0  0  0  0
   -2.8756   -1.0850    0.0000 C   0  0  0  0  0  0  0  0  0  0  0  0
   -4.3676   -0.9311    0.0000 C   0  0  0  0  0  0  0  0  0  0  0  0
   -4.9804    0.4380    0.0000 C   0  0  0  0  0  0  0  0  0  0  0  0
   -4.1011    1.6532    0.0000 O   0  0  0  0  0  0  0  0  0  0  0  0
   -6.4725    0.5919    0.0000 N   0  0  0  0  0  0  0  0  0  0  0  0
   -7.0853    1.9610    0.0000 C   0  0  0  0  0  0  0  0  0  0  0  0
   -8.5774    2.1149    0.0000 C   0  0  0  0  0  0  0  0  0  0  0  0
   -9.4567    0.8996    0.0000 O   0  0  0  0  0  0  0  0  0  0  0  0
   -9.1901    3.4840    0.0000 O   0  0  0  0  0  0  0  0  0  0  0  0
   -0.7707   -2.6080    0.0000 C   0  0  0  0  0  0  0  0  0  0  0  0
   -0.0182   -3.9056    0.0000 C   0  0  0  0  0  0  0  0  0  0  0  0
    1.4484   -3.5909    0.0000 C   0  0  0  0  0  0  0  0  0  0  0  0
    1.6023   -2.0988    0.0000 C   0  0  0  0  0  0  0  0  0  0  0  0
    2.8141   -1.2147    0.0000 C   0  0  0  0  0  0  0  0  0  0  0  0
    4.1856   -1.8222    0.0000 C   0  0  0  0  0  0  0  0  0  0  0  0
    4.3453   -3.3136    0.0000 O   0  0  0  0  0  0  0  0  0  0  0  0
    5.3974   -0.9381    0.0000 C   0  0  0  0  0  0  0  0  0  0  0  0
    5.2377    0.5533    0.0000 C   0  0  0  0  0  0  0  0  0  0  0  0
    6.4495    1.4374    0.0000 C   0  0  0  0  0  0  0  0  0  0  0  0
    6.2898    2.9289    0.0000 C   0  0  0  0  0  0  0  0  0  0  0  0
    7.5016    3.8129    0.0000 O   0  0  0  0  0  0  0  0  0  0  0  0
    4.9183    3.5363    0.0000 C   0  0  0  0  0  0  0  0  0  0  0  0
    3.7065    2.6522    0.0000 O   0  0  0  0  0  0  0  0  0  0  0  0
    3.8662    1.1608    0.0000 C   0  0  0  0  0  0  0  0  0  0  0  0
    2.4947    1.7682    0.0000 C   0  0  0  0  0  0  0  0  0  0  0  0
    2.6544    0.2767    0.0000 C   0  0  0  0  0  0  0  0  0  0  0  0
    1.2829    0.8842    0.0000 C   0  0  0  0  0  0  0  0  0  0  0  0
    0.0711    0.0001    0.0000 C   0  0  0  0  0  0  0  0  0  0  0  0
    0.2308   -1.4914    0.0000 C   0  0  0  0  0  0  0  0  0  0  0  0
   -1.1967   -1.0306    0.0000 C   0  0  0  0  0  0  0  0  0  0  0  0
  2  1  1  6
  2  3  1  0
  3  4  1  0
  4  5  1  0
  5  6  2  0
  5  7  1  0
  7  8  1  0
  8  9  1  0
  9 10  2  0
  9 11  1  0
  2 12  1  0
 12 13  1  6
 13 14  1  0
 15 14  1  6
 15 16  1  0
 16 17  1  1
 17 18  1  6
 17 19  1  0
 20 19  1  1
 20 21  1  0
 21 22  1  0
 22 23  1  1
 22 24  1  0
 24 25  1  0
 25 26  1  0
 26 27  1  6
 26 28  1  0
 28 29  1  6
 29 30  1  0
 30 31  1  0
 31 32  1  6
 31 12  1  0
 31 15  1  0
 28 16  1  0
 26 20  1  0
M  END
>  <MS_ID>  (3393) 
MS3538

>  <SMILES>  (3393) 
C[C@H](CCC(=O)NCC(=O)O)[C@H]1CC[C@H]2[C@@H]3[C@@H](O)C[C@@H]4C[C@H](O)CO[C@]4(C)[C@H]3CC[C@]12C

>  <Structure_dimension>  (3393) 
2D

$$$$
MS3539
     RDKit          2D

 33 36  0  0  0  0  0  0  0  0999 V2000
   -7.2152    2.9902    0.0000 C   0  0  0  0  0  0  0  0  0  0  0  0
   -6.7853    1.5532    0.0000 C   0  0  0  0  0  0  0  0  0  0  0  0
   -5.3258    1.2069    0.0000 C   0  0  0  0  0  0  0  0  0  0  0  0
   -4.2962    2.2977    0.0000 C   0  0  0  0  0  0  0  0  0  0  0  0
   -4.7261    3.7348    0.0000 C   0  0  0  0  0  0  0  0  0  0  0  0
   -2.8367    1.9515    0.0000 C   0  0  0  0  0  0  0  0  0  0  0  0
   -4.8960   -0.2302    0.0000 C   0  0  0  0  0  0  0  0  0  0  0  0
   -5.9256   -1.3210    0.0000 O   0  0  0  0  0  0  0  0  0  0  0  0
   -3.4365   -0.5764    0.0000 C   0  0  0  0  0  0  0  0  0  0  0  0
   -2.4069    0.5144    0.0000 O   0  0  0  0  0  0  0  0  0  0  0  0
   -3.0066   -2.0135    0.0000 C   0  0  0  0  0  0  0  0  0  0  0  0
   -4.0362   -3.1043    0.0000 C   0  0  0  0  0  0  0  0  0  0  0  0
   -1.5471   -2.3598    0.0000 C   0  0  0  0  0  0  0  0  0  0  0  0
   -0.9694   -3.7440    0.0000 C   0  0  0  0  0  0  0  0  0  0  0  0
    0.5257   -3.6223    0.0000 C   0  0  0  0  0  0  0  0  0  0  0  0
    0.8719   -2.1628    0.0000 C   0  0  0  0  0  0  0  0  0  0  0  0
    2.1882   -1.4436    0.0000 C   0  0  0  0  0  0  0  0  0  0  0  0
    3.4693   -2.2239    0.0000 C   0  0  0  0  0  0  0  0  0  0  0  0
    4.7856   -1.5046    0.0000 C   0  0  0  0  0  0  0  0  0  0  0  0
    6.0667   -2.2849    0.0000 O   0  0  0  0  0  0  0  0  0  0  0  0
    4.8208   -0.0050    0.0000 C   0  0  0  0  0  0  0  0  0  0  0  0
    6.1371    0.7142    0.0000 C   0  0  0  0  0  0  0  0  0  0  0  0
    6.1724    2.2138    0.0000 C   0  0  0  0  0  0  0  0  0  0  0  0
    7.4887    2.9331    0.0000 O   0  0  0  0  0  0  0  0  0  0  0  0
    4.8913    2.9941    0.0000 C   0  0  0  0  0  0  0  0  0  0  0  0
    3.5750    2.2749    0.0000 C   0  0  0  0  0  0  0  0  0  0  0  0
    3.5398    0.7753    0.0000 C   0  0  0  0  0  0  0  0  0  0  0  0
    2.2587    1.5556    0.0000 C   0  0  0  0  0  0  0  0  0  0  0  0
    2.2235    0.0560    0.0000 C   0  0  0  0  0  0  0  0  0  0  0  0
    0.9424    0.8363    0.0000 C   0  0  0  0  0  0  0  0  0  0  0  0
   -0.3739    0.1171    0.0000 C   0  0  0  0  0  0  0  0  0  0  0  0
   -0.4091   -1.3825    0.0000 C   0  0  0  0  0  0  0  0  0  0  0  0
   -1.7647   -0.7404    0.0000 C   0  0  0  0  0  0  0  0  0  0  0  0
  1  2  1  0
  3  2  1  1
  3  4  1  0
  4  5  1  0
  4  6  1  0
  3  7  1  0
  7  8  1  6
  7  9  1  0
  9 10  1  6
  9 11  1  0
 11 12  1  6
 11 13  1  0
 13 14  1  6
 14 15  1  0
 16 15  1  6
 16 17  1  0
 17 18  1  1
 18 19  1  0
 19 20  2  0
 19 21  1  0
 21 22  1  6
 22 23  1  0
 23 24  1  1
 23 25  1  0
 25 26  1  0
 26 27  1  0
 27 28  1  6
 27 29  1  0
 29 30  1  6
 30 31  1  0
 31 32  1  0
 32 33  1  6
 32 13  1  0
 32 16  1  0
 29 17  1  0
 27 21  1  0
M  END
>  <MS_ID>  (3394) 
MS3539

>  <SMILES>  (3394) 
CC[C@@H](C(C)C)[C@@H](O)[C@H](O)[C@@H](C)[C@H]1CC[C@H]2[C@@H]3CC(=O)[C@H]4C[C@H](O)CC[C@]4(C)[C@H]3CC[C@]12C

>  <Structure_dimension>  (3394) 
2D

$$$$
MS3540
     RDKit          2D

 31 34  0  0  0  0  0  0  0  0999 V2000
    7.6779   -3.6120    0.0000 C   0  0  0  0  0  0  0  0  0  0  0  0
    7.3371   -2.1513    0.0000 C   0  0  0  0  0  0  0  0  0  0  0  0
    8.4318   -1.1257    0.0000 C   0  0  0  0  0  0  0  0  0  0  0  0
    5.9017   -1.7160    0.0000 C   0  0  0  0  0  0  0  0  0  0  0  0
    5.5609   -0.2552    0.0000 C   0  0  0  0  0  0  0  0  0  0  0  0
    4.1254    0.1800    0.0000 C   0  0  0  0  0  0  0  0  0  0  0  0
    3.7846    1.6408    0.0000 C   0  0  0  0  0  0  0  0  0  0  0  0
    4.8793    2.6663    0.0000 C   0  0  0  0  0  0  0  0  0  0  0  0
    2.3491    2.0760    0.0000 C   0  0  0  0  0  0  0  0  0  0  0  0
    1.8575    3.4931    0.0000 C   0  0  0  0  0  0  0  0  0  0  0  0
    0.3578    3.4635    0.0000 C   0  0  0  0  0  0  0  0  0  0  0  0
   -0.0775    2.0280    0.0000 C   0  0  0  0  0  0  0  0  0  0  0  0
   -1.4354    1.3910    0.0000 C   0  0  0  0  0  0  0  0  0  0  0  0
   -2.6662    2.2485    0.0000 C   0  0  0  0  0  0  0  0  0  0  0  0
   -4.0242    1.6114    0.0000 C   0  0  0  0  0  0  0  0  0  0  0  0
   -5.2549    2.4689    0.0000 O   0  0  0  0  0  0  0  0  0  0  0  0
   -4.1514    0.1168    0.0000 C   0  0  0  0  0  0  0  0  0  0  0  0
   -5.3821    0.9743    0.0000 O   0  0  0  0  0  0  0  0  0  0  0  0
   -5.5094   -0.5202    0.0000 C   0  0  0  0  0  0  0  0  0  0  0  0
   -5.6367   -2.0148    0.0000 C   0  0  0  0  0  0  0  0  0  0  0  0
   -6.9947   -2.6519    0.0000 O   0  0  0  0  0  0  0  0  0  0  0  0
   -4.4060   -2.8724    0.0000 C   0  0  0  0  0  0  0  0  0  0  0  0
   -3.0480   -2.2353    0.0000 C   0  0  0  0  0  0  0  0  0  0  0  0
   -1.8173   -3.0928    0.0000 O   0  0  0  0  0  0  0  0  0  0  0  0
   -2.9207   -0.7407    0.0000 C   0  0  0  0  0  0  0  0  0  0  0  0
   -1.6900   -1.5982    0.0000 C   0  0  0  0  0  0  0  0  0  0  0  0
   -1.5627   -0.1036    0.0000 C   0  0  0  0  0  0  0  0  0  0  0  0
   -0.3320   -0.9612    0.0000 C   0  0  0  0  0  0  0  0  0  0  0  0
    1.0260   -0.3241    0.0000 C   0  0  0  0  0  0  0  0  0  0  0  0
    1.1533    1.1705    0.0000 C   0  0  0  0  0  0  0  0  0  0  0  0
    2.4669    0.4463    0.0000 C   0  0  0  0  0  0  0  0  0  0  0  0
  1  2  1  0
  2  3  1  0
  2  4  1  0
  4  5  1  0
  5  6  1  0
  6  7  1  0
  7  8  1  6
  7  9  1  0
  9 10  1  6
 10 11  1  0
 12 11  1  6
 12 13  1  0
 13 14  1  1
 14 15  1  0
 15 16  1  6
 15 17  1  0
 17 18  1  1
 17 19  1  0
 19 20  1  0
 20 21  1  6
 20 22  1  0
 22 23  1  0
 23 24  2  0
 23 25  1  0
 25 26  1  6
 25 27  1  0
 27 28  1  6
 28 29  1  0
 29 30  1  0
 30 31  1  6
 30  9  1  0
 30 12  1  0
 27 13  1  0
 25 17  1  0
M  END
>  <MS_ID>  (3395) 
MS3540

>  <SMILES>  (3395) 
CC(C)CCC[C@@H](C)[C@H]1CC[C@H]2[C@@H]3C[C@@H](O)[C@@]4(O)C[C@@H](O)CC(=O)[C@]4(C)[C@H]3CC[C@]12C

>  <Structure_dimension>  (3395) 
2D

$$$$
MS3541
     RDKit          2D

 35 38  0  0  0  0  0  0  0  0999 V2000
   -5.0140   -3.2776    0.0000 C   0  0  0  0  0  0  0  0  0  0  0  0
   -3.9623   -2.2080    0.0000 C   0  0  0  0  0  0  0  0  0  0  0  0
   -4.3628   -0.7624    0.0000 C   0  0  0  0  0  0  0  0  0  0  0  0
   -5.8149   -0.3865    0.0000 C   0  0  0  0  0  0  0  0  0  0  0  0
   -6.2153    1.0591    0.0000 C   0  0  0  0  0  0  0  0  0  0  0  0
   -7.6674    1.4351    0.0000 O   0  0  0  0  0  0  0  0  0  0  0  0
   -8.0679    2.8806    0.0000 P   0  0  0  0  0  0  0  0  0  0  0  0
   -9.5135    2.4802    0.0000 O   0  0  0  0  0  0  0  0  0  0  0  0
   -6.6223    3.2811    0.0000 O   0  0  0  0  0  0  0  0  0  0  0  0
   -8.4684    4.3262    0.0000 O   0  0  0  0  0  0  0  0  0  0  0  0
   -2.5102   -2.5840    0.0000 C   0  0  0  0  0  0  0  0  0  0  0  0
   -1.9608   -3.9798    0.0000 C   0  0  0  0  0  0  0  0  0  0  0  0
   -0.4636   -3.8886    0.0000 C   0  0  0  0  0  0  0  0  0  0  0  0
   -0.0876   -2.4365    0.0000 C   0  0  0  0  0  0  0  0  0  0  0  0
    1.2431   -1.7442    0.0000 C   0  0  0  0  0  0  0  0  0  0  0  0
    2.5079   -2.5505    0.0000 C   0  0  0  0  0  0  0  0  0  0  0  0
    2.4421   -4.0491    0.0000 O   0  0  0  0  0  0  0  0  0  0  0  0
    3.8387   -1.8583    0.0000 C   0  0  0  0  0  0  0  0  0  0  0  0
    3.9045   -0.3597    0.0000 C   0  0  0  0  0  0  0  0  0  0  0  0
    5.2352    0.3325    0.0000 C   0  0  0  0  0  0  0  0  0  0  0  0
    5.3011    1.8311    0.0000 C   0  0  0  0  0  0  0  0  0  0  0  0
    6.6318    2.5233    0.0000 O   0  0  0  0  0  0  0  0  0  0  0  0
    7.8966    1.7170    0.0000 S   0  0  0  0  0  0  0  0  0  0  0  0
    7.0903    0.4521    0.0000 O   0  0  0  0  0  0  0  0  0  0  0  0
    8.7029    2.9819    0.0000 O   0  0  0  0  0  0  0  0  0  0  0  0
    9.1615    0.9107    0.0000 O   0  0  0  0  0  0  0  0  0  0  0  0
    4.0362    2.6374    0.0000 C   0  0  0  0  0  0  0  0  0  0  0  0
    2.7055    1.9451    0.0000 C   0  0  0  0  0  0  0  0  0  0  0  0
    2.6396    0.4466    0.0000 C   0  0  0  0  0  0  0  0  0  0  0  0
    1.3748    1.2529    0.0000 C   0  0  0  0  0  0  0  0  0  0  0  0
    1.3089   -0.2457    0.0000 C   0  0  0  0  0  0  0  0  0  0  0  0
    0.0441    0.5606    0.0000 C   0  0  0  0  0  0  0  0  0  0  0  0
   -1.2866   -0.1316    0.0000 C   0  0  0  0  0  0  0  0  0  0  0  0
   -1.3525   -1.6302    0.0000 C   0  0  0  0  0  0  0  0  0  0  0  0
   -2.6947   -0.9605    0.0000 C   0  0  0  0  0  0  0  0  0  0  0  0
  2  1  1  6
  2  3  1  0
  3  4  1  0
  4  5  1  0
  5  6  1  0
  6  7  1  0
  7  8  2  0
  7  9  1  0
  7 10  1  0
  2 11  1  0
 11 12  1  6
 12 13  1  0
 14 13  1  6
 14 15  1  0
 15 16  1  1
 16 17  1  6
 16 18  1  0
 19 18  1  1
 19 20  1  0
 20 21  1  0
 21 22  1  1
 22 23  1  0
 23 24  2  0
 23 25  2  0
 23 26  1  0
 21 27  1  0
 27 28  1  0
 28 29  1  0
 29 30  1  6
 29 31  1  0
 31 32  1  6
 32 33  1  0
 33 34  1  0
 34 35  1  6
 34 11  1  0
 34 14  1  0
 31 15  1  0
 29 19  1  0
M  END
>  <MS_ID>  (3396) 
MS3541

>  <SMILES>  (3396) 
C[C@H](CCCOP(=O)(O)O)[C@H]1CC[C@H]2[C@@H]3[C@@H](O)C[C@@H]4C[C@H](OS(=O)(=O)O)CC[C@]4(C)[C@H]3CC[C@]12C

>  <Structure_dimension>  (3396) 
2D

$$$$
MS3542
     RDKit          2D

 27 30  0  0  0  0  0  0  0  0999 V2000
    2.6785   -1.5465    0.0000 C   0  0  0  0  0  0  0  0  0  0  0  0
    3.5252   -0.3082    0.0000 C   0  0  0  0  0  0  0  0  0  0  0  0
    4.1742   -1.6605    0.0000 C   0  0  0  0  0  0  0  0  0  0  0  0
    5.6699   -1.7746    0.0000 C   0  0  0  0  0  0  0  0  0  0  0  0
    6.5165   -0.5363    0.0000 C   0  0  0  0  0  0  0  0  0  0  0  0
    8.0121   -0.6504    0.0000 O   0  0  0  0  0  0  0  0  0  0  0  0
    5.8674    0.8160    0.0000 C   0  0  0  0  0  0  0  0  0  0  0  0
    4.3718    0.9300    0.0000 C   0  0  0  0  0  0  0  0  0  0  0  0
    3.7227    2.2823    0.0000 C   0  0  0  0  0  0  0  0  0  0  0  0
    2.2271    2.3964    0.0000 C   0  0  0  0  0  0  0  0  0  0  0  0
    1.3805    1.1582    0.0000 C   0  0  0  0  0  0  0  0  0  0  0  0
    2.0295   -0.1941    0.0000 C   0  0  0  0  0  0  0  0  0  0  0  0
    1.1829   -1.4324    0.0000 C   0  0  0  0  0  0  0  0  0  0  0  0
   -0.3128   -1.3183    0.0000 C   0  0  0  0  0  0  0  0  0  0  0  0
   -0.9618    0.0340    0.0000 C   0  0  0  0  0  0  0  0  0  0  0  0
   -1.9332   -1.1090    0.0000 C   0  0  0  0  0  0  0  0  0  0  0  0
   -2.4011    0.4565    0.0000 C   0  0  0  0  0  0  0  0  0  0  0  0
   -3.5889   -0.4595    0.0000 C   0  0  0  0  0  0  0  0  0  0  0  0
   -3.3895   -1.9462    0.0000 O   0  0  0  0  0  0  0  0  0  0  0  0
   -4.9761    0.1112    0.0000 C   0  0  0  0  0  0  0  0  0  0  0  0
   -6.1639   -0.8049    0.0000 C   0  0  0  0  0  0  0  0  0  0  0  0
   -7.5511   -0.2342    0.0000 C   0  0  0  0  0  0  0  0  0  0  0  0
   -7.7505    1.2525    0.0000 O   0  0  0  0  0  0  0  0  0  0  0  0
   -8.7389   -1.1502    0.0000 O   0  0  0  0  0  0  0  0  0  0  0  0
   -2.4440    1.9559    0.0000 C   0  0  0  0  0  0  0  0  0  0  0  0
   -1.0312    2.4600    0.0000 C   0  0  0  0  0  0  0  0  0  0  0  0
   -0.1152    1.2722    0.0000 C   0  0  0  0  0  0  0  0  0  0  0  0
  2  1  1  1
  2  3  1  0
  3  4  1  0
  4  5  1  0
  5  6  2  0
  5  7  1  0
  8  7  1  6
  8  9  1  0
  9 10  1  0
 11 10  1  6
 11 12  1  0
 12 13  1  1
 13 14  1  0
 14 15  1  0
 15 16  1  1
 15 17  1  0
 17 18  1  0
 18 19  1  6
 18 20  1  0
 20 21  1  0
 21 22  1  0
 22 23  2  0
 22 24  1  0
 17 25  1  1
 25 26  1  0
 27 26  1  1
  8  2  1  0
 27 11  1  0
 12  2  1  0
 27 15  1  0
M  END
>  <MS_ID>  (3397) 
MS3542

>  <SMILES>  (3397) 
C[C@]12CCC(=O)C[C@H]1CC[C@@H]1[C@@H]2CC[C@]2(C)[C@@H]([C@H](O)CCC(=O)O)CC[C@@H]12

>  <Structure_dimension>  (3397) 
2D

$$$$
MS3543
     RDKit          2D

 23 26  0  0  0  0  0  0  0  0999 V2000
   -6.2880    0.1477    0.0000 C   0  0  0  0  0  0  0  0  0  0  0  0
   -4.8818    0.6700    0.0000 C   0  0  0  0  0  0  0  0  0  0  0  0
   -4.6310    2.1488    0.0000 O   0  0  0  0  0  0  0  0  0  0  0  0
   -3.7265   -0.2867    0.0000 C   0  0  0  0  0  0  0  0  0  0  0  0
   -3.8214   -1.7837    0.0000 C   0  0  0  0  0  0  0  0  0  0  0  0
   -2.4270   -2.3365    0.0000 C   0  0  0  0  0  0  0  0  0  0  0  0
   -1.4703   -1.1812    0.0000 C   0  0  0  0  0  0  0  0  0  0  0  0
    0.0284   -1.1191    0.0000 C   0  0  0  0  0  0  0  0  0  0  0  0
    0.8316   -2.3860    0.0000 C   0  0  0  0  0  0  0  0  0  0  0  0
    2.3303   -2.3238    0.0000 C   0  0  0  0  0  0  0  0  0  0  0  0
    3.0258   -0.9949    0.0000 C   0  0  0  0  0  0  0  0  0  0  0  0
    4.5246   -0.9327    0.0000 C   0  0  0  0  0  0  0  0  0  0  0  0
    5.2201    0.3962    0.0000 C   0  0  0  0  0  0  0  0  0  0  0  0
    6.7188    0.4584    0.0000 O   0  0  0  0  0  0  0  0  0  0  0  0
    4.4170    1.6631    0.0000 C   0  0  0  0  0  0  0  0  0  0  0  0
    2.9183    1.6010    0.0000 C   0  0  0  0  0  0  0  0  0  0  0  0
    2.2227    0.2720    0.0000 C   0  0  0  0  0  0  0  0  0  0  0  0
    1.4195    1.5389    0.0000 C   0  0  0  0  0  0  0  0  0  0  0  0
    0.7240    0.2099    0.0000 C   0  0  0  0  0  0  0  0  0  0  0  0
   -0.0792    1.4768    0.0000 C   0  0  0  0  0  0  0  0  0  0  0  0
   -1.5779    1.4146    0.0000 C   0  0  0  0  0  0  0  0  0  0  0  0
   -2.2734    0.0856    0.0000 C   0  0  0  0  0  0  0  0  0  0  0  0
   -3.2046    1.2616    0.0000 C   0  0  0  0  0  0  0  0  0  0  0  0
  2  1  1  1
  2  3  1  0
  2  4  1  0
  4  5  1  6
  5  6  1  0
  7  6  1  6
  7  8  1  0
  8  9  1  1
  9 10  1  0
 11 10  1  1
 11 12  1  0
 12 13  1  0
 13 14  1  6
 13 15  1  0
 15 16  1  0
 16 17  1  0
 17 18  1  6
 17 19  1  0
 19 20  1  6
 20 21  1  0
 21 22  1  0
 22 23  1  6
 22  4  1  0
 22  7  1  0
 19  8  1  0
 17 11  1  0
M  END
>  <MS_ID>  (3398) 
MS3543

>  <SMILES>  (3398) 
C[C@@H](O)[C@H]1CC[C@H]2[C@@H]3CC[C@@H]4C[C@@H](O)CC[C@]4(C)[C@H]3CC[C@]12C

>  <Structure_dimension>  (3398) 
2D

$$$$
MS3545
     RDKit          2D

 38 41  0  0  0  0  0  0  0  0999 V2000
   -1.4317   -4.5102    0.0000 C   0  0  0  0  0  0  0  0  0  0  0  0
   -0.7853   -3.1566    0.0000 C   0  0  0  0  0  0  0  0  0  0  0  0
   -1.6344   -1.9200    0.0000 C   0  0  0  0  0  0  0  0  0  0  0  0
   -3.1298   -2.0371    0.0000 C   0  0  0  0  0  0  0  0  0  0  0  0
   -3.9789   -0.8005    0.0000 C   0  0  0  0  0  0  0  0  0  0  0  0
   -3.3326    0.5531    0.0000 O   0  0  0  0  0  0  0  0  0  0  0  0
   -5.4743   -0.9176    0.0000 N   0  0  0  0  0  0  0  0  0  0  0  0
   -6.3234    0.3190    0.0000 C   0  0  0  0  0  0  0  0  0  0  0  0
   -7.8188    0.2020    0.0000 C   0  0  0  0  0  0  0  0  0  0  0  0
   -8.6679    1.4385    0.0000 C   0  0  0  0  0  0  0  0  0  0  0  0
  -10.1634    1.3215    0.0000 C   0  0  0  0  0  0  0  0  0  0  0  0
  -11.0124    2.5580    0.0000 N   0  0  0  0  0  0  0  0  0  0  0  0
  -10.8097   -0.0321    0.0000 O   0  0  0  0  0  0  0  0  0  0  0  0
   -5.6771    1.6726    0.0000 C   0  0  0  0  0  0  0  0  0  0  0  0
   -4.1816    1.7897    0.0000 O   0  0  0  0  0  0  0  0  0  0  0  0
   -6.5262    2.9092    0.0000 O   0  0  0  0  0  0  0  0  0  0  0  0
    0.7101   -3.0395    0.0000 C   0  0  0  0  0  0  0  0  0  0  0  0
    1.6838   -4.1805    0.0000 C   0  0  0  0  0  0  0  0  0  0  0  0
    3.0698   -3.6071    0.0000 C   0  0  0  0  0  0  0  0  0  0  0  0
    2.9528   -2.1117    0.0000 C   0  0  0  0  0  0  0  0  0  0  0  0
    3.9858   -1.0241    0.0000 C   0  0  0  0  0  0  0  0  0  0  0  0
    5.4442   -1.3749    0.0000 C   0  0  0  0  0  0  0  0  0  0  0  0
    5.8696   -2.8133    0.0000 O   0  0  0  0  0  0  0  0  0  0  0  0
    6.4772   -0.2872    0.0000 C   0  0  0  0  0  0  0  0  0  0  0  0
    7.9356   -0.6380    0.0000 O   0  0  0  0  0  0  0  0  0  0  0  0
    6.0518    1.1512    0.0000 C   0  0  0  0  0  0  0  0  0  0  0  0
    7.0848    2.2388    0.0000 C   0  0  0  0  0  0  0  0  0  0  0  0
    6.6594    3.6772    0.0000 C   0  0  0  0  0  0  0  0  0  0  0  0
    7.6924    4.7648    0.0000 O   0  0  0  0  0  0  0  0  0  0  0  0
    5.2010    4.0280    0.0000 C   0  0  0  0  0  0  0  0  0  0  0  0
    4.1680    2.9404    0.0000 C   0  0  0  0  0  0  0  0  0  0  0  0
    4.5934    1.5020    0.0000 C   0  0  0  0  0  0  0  0  0  0  0  0
    3.1350    1.8528    0.0000 C   0  0  0  0  0  0  0  0  0  0  0  0
    3.5604    0.4144    0.0000 C   0  0  0  0  0  0  0  0  0  0  0  0
    2.1020    0.7651    0.0000 C   0  0  0  0  0  0  0  0  0  0  0  0
    1.0690   -0.3225    0.0000 C   0  0  0  0  0  0  0  0  0  0  0  0
    1.4944   -1.7609    0.0000 C   0  0  0  0  0  0  0  0  0  0  0  0
    0.0073   -1.5645    0.0000 C   0  0  0  0  0  0  0  0  0  0  0  0
  2  1  1  6
  2  3  1  0
  3  4  1  0
  4  5  1  0
  5  6  2  0
  5  7  1  0
  7  8  1  0
  8  9  1  1
  9 10  1  0
 10 11  1  0
 11 12  1  0
 11 13  2  0
  8 14  1  0
 14 15  2  0
 14 16  1  0
  2 17  1  0
 17 18  1  6
 18 19  1  0
 20 19  1  6
 20 21  1  0
 21 22  1  1
 22 23  1  6
 22 24  1  0
 24 25  1  6
 24 26  1  0
 26 27  1  1
 27 28  1  0
 28 29  1  1
 28 30  1  0
 30 31  1  0
 31 32  1  0
 32 33  1  6
 32 34  1  0
 34 35  1  6
 35 36  1  0
 36 37  1  0
 37 38  1  6
 37 17  1  0
 37 20  1  0
 34 21  1  0
 32 26  1  0
M  END
>  <MS_ID>  (3399) 
MS3545

>  <SMILES>  (3399) 
C[C@H](CCC(=O)N[C@@H](CCC(N)=O)C(=O)O)[C@H]1CC[C@H]2[C@@H]3[C@@H](O)[C@@H](O)[C@@H]4C[C@H](O)CC[C@]4(C)[C@H]3CC[C@]12C

>  <Structure_dimension>  (3399) 
2D

$$$$
MS3546
     RDKit          2D

 24 27  0  0  0  0  0  0  0  0999 V2000
   -3.7430    1.7527    0.0000 C   0  0  0  0  0  0  0  0  0  0  0  0
   -4.6858    0.5860    0.0000 C   0  0  0  0  0  0  0  0  0  0  0  0
   -5.6285   -0.5807    0.0000 C   0  0  0  0  0  0  0  0  0  0  0  0
   -5.8524    1.5288    0.0000 O   0  0  0  0  0  0  0  0  0  0  0  0
   -3.5191   -0.3567    0.0000 C   0  0  0  0  0  0  0  0  0  0  0  0
   -3.5960   -1.8548    0.0000 C   0  0  0  0  0  0  0  0  0  0  0  0
   -2.1951   -2.3909    0.0000 C   0  0  0  0  0  0  0  0  0  0  0  0
   -1.2523   -1.2242    0.0000 C   0  0  0  0  0  0  0  0  0  0  0  0
    0.2455   -1.1442    0.0000 C   0  0  0  0  0  0  0  0  0  0  0  0
    1.0638   -2.4013    0.0000 C   0  0  0  0  0  0  0  0  0  0  0  0
    2.5616   -2.3213    0.0000 C   0  0  0  0  0  0  0  0  0  0  0  0
    3.2413   -0.9841    0.0000 C   0  0  0  0  0  0  0  0  0  0  0  0
    4.7391   -0.9040    0.0000 C   0  0  0  0  0  0  0  0  0  0  0  0
    5.4187    0.4332    0.0000 C   0  0  0  0  0  0  0  0  0  0  0  0
    6.9166    0.5132    0.0000 O   0  0  0  0  0  0  0  0  0  0  0  0
    4.6005    1.6903    0.0000 C   0  0  0  0  0  0  0  0  0  0  0  0
    3.1026    1.6103    0.0000 C   0  0  0  0  0  0  0  0  0  0  0  0
    2.4230    0.2731    0.0000 C   0  0  0  0  0  0  0  0  0  0  0  0
    1.6048    1.5303    0.0000 C   0  0  0  0  0  0  0  0  0  0  0  0
    0.9251    0.1931    0.0000 C   0  0  0  0  0  0  0  0  0  0  0  0
    0.1069    1.4502    0.0000 C   0  0  0  0  0  0  0  0  0  0  0  0
   -1.3910    1.3702    0.0000 C   0  0  0  0  0  0  0  0  0  0  0  0
   -2.0706    0.0330    0.0000 C   0  0  0  0  0  0  0  0  0  0  0  0
   -3.0158    1.1977    0.0000 C   0  0  0  0  0  0  0  0  0  0  0  0
  1  2  1  0
  2  3  1  0
  2  4  1  0
  5  2  1  6
  5  6  1  0
  6  7  1  0
  8  7  1  6
  8  9  1  0
  9 10  1  1
 10 11  1  0
 12 11  1  1
 12 13  1  0
 13 14  1  0
 14 15  2  0
 14 16  1  0
 16 17  1  0
 17 18  1  0
 18 19  1  6
 18 20  1  0
 20 21  1  6
 21 22  1  0
 22 23  1  0
 23 24  1  6
 23  5  1  0
 23  8  1  0
 20  9  1  0
 18 12  1  0
M  END
>  <MS_ID>  (3400) 
MS3546

>  <SMILES>  (3400) 
CC(C)(O)[C@H]1CC[C@H]2[C@@H]3CC[C@@H]4CC(=O)CC[C@]4(C)[C@H]3CC[C@]12C

>  <Structure_dimension>  (3400) 
2D

$$$$
MS3547
     RDKit          2D

 25 28  0  0  0  0  0  0  0  0999 V2000
    2.1642   -1.5882    0.0000 C   0  0  0  0  0  0  0  0  0  0  0  0
    2.9541   -0.3131    0.0000 C   0  0  0  0  0  0  0  0  0  0  0  0
    3.6635   -1.6348    0.0000 C   0  0  0  0  0  0  0  0  0  0  0  0
    5.1627   -1.6813    0.0000 C   0  0  0  0  0  0  0  0  0  0  0  0
    5.9527   -0.4062    0.0000 C   0  0  0  0  0  0  0  0  0  0  0  0
    7.4520   -0.4527    0.0000 O   0  0  0  0  0  0  0  0  0  0  0  0
    5.2434    0.9155    0.0000 C   0  0  0  0  0  0  0  0  0  0  0  0
    3.7441    0.9621    0.0000 C   0  0  0  0  0  0  0  0  0  0  0  0
    3.0348    2.2838    0.0000 C   0  0  0  0  0  0  0  0  0  0  0  0
    1.5355    2.3303    0.0000 C   0  0  0  0  0  0  0  0  0  0  0  0
    0.7455    1.0552    0.0000 C   0  0  0  0  0  0  0  0  0  0  0  0
    1.4549   -0.2665    0.0000 C   0  0  0  0  0  0  0  0  0  0  0  0
    0.6649   -1.5417    0.0000 C   0  0  0  0  0  0  0  0  0  0  0  0
   -0.8344   -1.4951    0.0000 C   0  0  0  0  0  0  0  0  0  0  0  0
   -1.5437   -0.1734    0.0000 C   0  0  0  0  0  0  0  0  0  0  0  0
   -2.4626   -1.3590    0.0000 C   0  0  0  0  0  0  0  0  0  0  0  0
   -3.0005    0.1838    0.0000 C   0  0  0  0  0  0  0  0  0  0  0  0
   -4.1459   -0.7848    0.0000 C   0  0  0  0  0  0  0  0  0  0  0  0
   -5.5574   -0.2772    0.0000 C   0  0  0  0  0  0  0  0  0  0  0  0
   -5.8236    1.1990    0.0000 O   0  0  0  0  0  0  0  0  0  0  0  0
   -6.7027   -1.2458    0.0000 C   0  0  0  0  0  0  0  0  0  0  0  0
   -8.1142   -0.7383    0.0000 O   0  0  0  0  0  0  0  0  0  0  0  0
   -3.1110    1.6798    0.0000 C   0  0  0  0  0  0  0  0  0  0  0  0
   -1.7224    2.2470    0.0000 C   0  0  0  0  0  0  0  0  0  0  0  0
   -0.7538    1.1017    0.0000 C   0  0  0  0  0  0  0  0  0  0  0  0
  2  1  1  1
  2  3  1  0
  3  4  1  0
  4  5  1  0
  5  6  2  0
  5  7  1  0
  8  7  1  6
  8  9  1  0
  9 10  1  0
 11 10  1  6
 11 12  1  0
 12 13  1  1
 13 14  1  0
 14 15  1  0
 15 16  1  1
 15 17  1  0
 17 18  1  1
 18 19  1  0
 19 20  2  0
 19 21  1  0
 21 22  1  0
 17 23  1  0
 23 24  1  0
 25 24  1  1
  8  2  1  0
 25 11  1  0
 12  2  1  0
 25 15  1  0
M  END
>  <MS_ID>  (3401) 
MS3547

>  <SMILES>  (3401) 
C[C@]12CCC(=O)C[C@H]1CC[C@@H]1[C@@H]2CC[C@]2(C)[C@@H](CC(=O)CO)CC[C@@H]12

>  <Structure_dimension>  (3401) 
2D

$$$$
MS3548
     RDKit          2D

 28 31  0  0  0  0  0  0  0  0999 V2000
   -5.1275   -2.0302    0.0000 C   0  0  0  0  0  0  0  0  0  0  0  0
   -3.9468   -1.1050    0.0000 C   0  0  0  0  0  0  0  0  0  0  0  0
   -4.1576    0.3801    0.0000 C   0  0  0  0  0  0  0  0  0  0  0  0
   -5.5492    0.9401    0.0000 C   0  0  0  0  0  0  0  0  0  0  0  0
   -5.7600    2.4252    0.0000 C   0  0  0  0  0  0  0  0  0  0  0  0
   -4.5793    3.3503    0.0000 O   0  0  0  0  0  0  0  0  0  0  0  0
   -7.1516    2.9851    0.0000 O   0  0  0  0  0  0  0  0  0  0  0  0
   -2.5552   -1.6650    0.0000 C   0  0  0  0  0  0  0  0  0  0  0  0
   -2.1903   -3.1199    0.0000 C   0  0  0  0  0  0  0  0  0  0  0  0
   -0.6938   -3.2225    0.0000 C   0  0  0  0  0  0  0  0  0  0  0  0
   -0.1339   -1.8309    0.0000 C   0  0  0  0  0  0  0  0  0  0  0  0
    1.2750   -1.3159    0.0000 C   0  0  0  0  0  0  0  0  0  0  0  0
    2.4254   -2.2785    0.0000 C   0  0  0  0  0  0  0  0  0  0  0  0
    2.1670   -3.7560    0.0000 O   0  0  0  0  0  0  0  0  0  0  0  0
    3.8342   -1.7635    0.0000 C   0  0  0  0  0  0  0  0  0  0  0  0
    4.0926   -0.2859    0.0000 C   0  0  0  0  0  0  0  0  0  0  0  0
    5.5014    0.2291    0.0000 C   0  0  0  0  0  0  0  0  0  0  0  0
    5.7598    1.7067    0.0000 C   0  0  0  0  0  0  0  0  0  0  0  0
    7.1687    2.2217    0.0000 O   0  0  0  0  0  0  0  0  0  0  0  0
    4.6094    2.6692    0.0000 S   0  0  0  0  0  0  0  0  0  0  0  0
    3.2006    2.1542    0.0000 C   0  0  0  0  0  0  0  0  0  0  0  0
    2.9422    0.6767    0.0000 C   0  0  0  0  0  0  0  0  0  0  0  0
    1.7918    1.6392    0.0000 C   0  0  0  0  0  0  0  0  0  0  0  0
    1.5334    0.1617    0.0000 C   0  0  0  0  0  0  0  0  0  0  0  0
    0.3830    1.1242    0.0000 C   0  0  0  0  0  0  0  0  0  0  0  0
   -1.0259    0.6093    0.0000 C   0  0  0  0  0  0  0  0  0  0  0  0
   -1.2843   -0.8683    0.0000 C   0  0  0  0  0  0  0  0  0  0  0  0
   -2.5290   -0.0313    0.0000 C   0  0  0  0  0  0  0  0  0  0  0  0
  2  1  1  6
  2  3  1  0
  3  4  1  0
  4  5  1  0
  5  6  2  0
  5  7  1  0
  2  8  1  0
  8  9  1  6
  9 10  1  0
 11 10  1  6
 11 12  1  0
 12 13  1  1
 13 14  1  6
 13 15  1  0
 16 15  1  1
 16 17  1  0
 17 18  1  0
 18 19  1  1
 18 20  1  0
 20 21  1  0
 21 22  1  0
 22 23  1  6
 22 24  1  0
 24 25  1  6
 25 26  1  0
 26 27  1  0
 27 28  1  6
 27  8  1  0
 27 11  1  0
 24 12  1  0
 22 16  1  0
M  END
>  <MS_ID>  (3402) 
MS3548

>  <SMILES>  (3402) 
C[C@H](CCC(=O)O)[C@H]1CC[C@H]2[C@@H]3[C@@H](O)C[C@@H]4C[C@H](O)SC[C@]4(C)[C@H]3CC[C@]12C

>  <Structure_dimension>  (3402) 
2D

$$$$
MS3549
     RDKit          2D

 26 29  0  0  0  0  0  0  0  0999 V2000
   -8.0585    0.5395    0.0000 C   0  0  0  0  0  0  0  0  0  0  0  0
   -6.6528    1.0632    0.0000 C   0  0  0  0  0  0  0  0  0  0  0  0
   -5.4965    0.1078    0.0000 C   0  0  0  0  0  0  0  0  0  0  0  0
   -5.7458   -1.3714    0.0000 O   0  0  0  0  0  0  0  0  0  0  0  0
   -4.0909    0.6315    0.0000 O   0  0  0  0  0  0  0  0  0  0  0  0
   -2.9346   -0.3240    0.0000 C   0  0  0  0  0  0  0  0  0  0  0  0
   -3.0278   -1.8211    0.0000 C   0  0  0  0  0  0  0  0  0  0  0  0
   -1.6329   -2.3724    0.0000 C   0  0  0  0  0  0  0  0  0  0  0  0
   -0.6774   -1.2161    0.0000 C   0  0  0  0  0  0  0  0  0  0  0  0
    0.8212   -1.1524    0.0000 C   0  0  0  0  0  0  0  0  0  0  0  0
    1.6257   -2.4184    0.0000 C   0  0  0  0  0  0  0  0  0  0  0  0
    3.1244   -2.3547    0.0000 C   0  0  0  0  0  0  0  0  0  0  0  0
    3.8185   -1.0250    0.0000 C   0  0  0  0  0  0  0  0  0  0  0  0
    5.3172   -0.9613    0.0000 C   0  0  0  0  0  0  0  0  0  0  0  0
    6.0113    0.3684    0.0000 C   0  0  0  0  0  0  0  0  0  0  0  0
    7.5100    0.4321    0.0000 O   0  0  0  0  0  0  0  0  0  0  0  0
    5.2068    1.6344    0.0000 C   0  0  0  0  0  0  0  0  0  0  0  0
    3.7082    1.5707    0.0000 C   0  0  0  0  0  0  0  0  0  0  0  0
    3.0140    0.2410    0.0000 C   0  0  0  0  0  0  0  0  0  0  0  0
    2.2096    1.5070    0.0000 C   0  0  0  0  0  0  0  0  0  0  0  0
    1.5154    0.1773    0.0000 C   0  0  0  0  0  0  0  0  0  0  0  0
    0.7109    1.4433    0.0000 C   0  0  0  0  0  0  0  0  0  0  0  0
   -0.7877    1.3796    0.0000 C   0  0  0  0  0  0  0  0  0  0  0  0
   -1.5922    2.6457    0.0000 O   0  0  0  0  0  0  0  0  0  0  0  0
   -1.4819    0.0499    0.0000 C   0  0  0  0  0  0  0  0  0  0  0  0
   -2.4143    1.2249    0.0000 C   0  0  0  0  0  0  0  0  0  0  0  0
  1  2  1  0
  2  3  1  0
  3  4  2  0
  3  5  1  0
  6  5  1  6
  6  7  1  0
  7  8  1  0
  9  8  1  6
  9 10  1  0
 10 11  1  1
 11 12  1  0
 13 12  1  1
 13 14  1  0
 14 15  1  0
 15 16  1  1
 15 17  1  0
 17 18  1  0
 18 19  1  0
 19 20  1  6
 19 21  1  0
 21 22  1  6
 22 23  1  0
 23 24  1  1
 23 25  1  0
 25 26  1  6
 25  6  1  0
 25  9  1  0
 21 10  1  0
 19 13  1  0
M  END
>  <MS_ID>  (3403) 
MS3549

>  <SMILES>  (3403) 
CCC(=O)O[C@H]1CC[C@H]2[C@@H]3CC[C@@H]4C[C@H](O)CC[C@]4(C)[C@H]3C[C@H](O)[C@]12C

>  <Structure_dimension>  (3403) 
2D

$$$$
MS3550
     RDKit          2D

 26 29  0  0  0  0  0  0  0  0999 V2000
    0.2187   -1.2730    0.0000 C   0  0  0  0  0  0  0  0  0  0  0  0
    0.7938    0.1124    0.0000 C   0  0  0  0  0  0  0  0  0  0  0  0
    1.7061   -1.0784    0.0000 C   0  0  0  0  0  0  0  0  0  0  0  0
    3.1934   -0.8837    0.0000 C   0  0  0  0  0  0  0  0  0  0  0  0
    3.7685    0.5017    0.0000 C   0  0  0  0  0  0  0  0  0  0  0  0
    5.2558    0.6963    0.0000 O   0  0  0  0  0  0  0  0  0  0  0  0
    6.1680   -0.4944    0.0000 S   0  0  0  0  0  0  0  0  0  0  0  0
    4.9773   -1.4066    0.0000 O   0  0  0  0  0  0  0  0  0  0  0  0
    7.3587    0.4178    0.0000 O   0  0  0  0  0  0  0  0  0  0  0  0
    7.0802   -1.6851    0.0000 O   0  0  0  0  0  0  0  0  0  0  0  0
    2.8562    1.6924    0.0000 C   0  0  0  0  0  0  0  0  0  0  0  0
    1.3689    1.4977    0.0000 C   0  0  0  0  0  0  0  0  0  0  0  0
    0.4567    2.6885    0.0000 C   0  0  0  0  0  0  0  0  0  0  0  0
   -1.0306    2.4938    0.0000 C   0  0  0  0  0  0  0  0  0  0  0  0
   -1.6057    1.1084    0.0000 C   0  0  0  0  0  0  0  0  0  0  0  0
   -0.6935   -0.0823    0.0000 C   0  0  0  0  0  0  0  0  0  0  0  0
   -1.2686   -1.4677    0.0000 C   0  0  0  0  0  0  0  0  0  0  0  0
   -2.7559   -1.6623    0.0000 C   0  0  0  0  0  0  0  0  0  0  0  0
   -3.6681   -0.4716    0.0000 C   0  0  0  0  0  0  0  0  0  0  0  0
   -4.2189   -1.8668    0.0000 C   0  0  0  0  0  0  0  0  0  0  0  0
   -3.0930    0.9138    0.0000 C   0  0  0  0  0  0  0  0  0  0  0  0
   -4.2329    1.8888    0.0000 C   0  0  0  0  0  0  0  0  0  0  0  0
   -5.5125    1.1061    0.0000 C   0  0  0  0  0  0  0  0  0  0  0  0
   -5.1634   -0.3527    0.0000 C   0  0  0  0  0  0  0  0  0  0  0  0
   -6.6507   -0.5474    0.0000 C   0  0  0  0  0  0  0  0  0  0  0  0
   -5.3084   -1.8457    0.0000 O   0  0  0  0  0  0  0  0  0  0  0  0
  2  1  1  1
  2  3  1  0
  3  4  1  0
  4  5  1  0
  5  6  1  1
  6  7  1  0
  7  8  2  0
  7  9  2  0
  7 10  1  0
  5 11  1  0
 12 11  1  6
 12 13  1  0
 13 14  1  0
 15 14  1  6
 15 16  1  0
 16 17  1  1
 17 18  1  0
 18 19  1  0
 19 20  1  1
 19 21  1  0
 21 22  1  1
 22 23  1  0
 23 24  1  0
 24 25  1  6
 24 26  1  0
 12  2  1  0
 21 15  1  0
 16  2  1  0
 24 19  1  0
M  END
>  <MS_ID>  (3404) 
MS3550

>  <SMILES>  (3404) 
C[C@]12CC[C@H](OS(=O)(=O)O)C[C@H]1CC[C@@H]1[C@@H]2CC[C@@]2(C)[C@H]1CC[C@]2(C)O

>  <Structure_dimension>  (3404) 
2D

$$$$
MS3551
     RDKit          2D

 32 35  0  0  0  0  0  0  0  0999 V2000
   -6.3148   -1.8053    0.0000 C   0  0  0  0  0  0  0  0  0  0  0  0
   -5.0840   -0.9480    0.0000 C   0  0  0  0  0  0  0  0  0  0  0  0
   -5.2110    0.5466    0.0000 C   0  0  0  0  0  0  0  0  0  0  0  0
   -6.5688    1.1840    0.0000 C   0  0  0  0  0  0  0  0  0  0  0  0
   -6.6958    2.6786    0.0000 C   0  0  0  0  0  0  0  0  0  0  0  0
   -5.4650    3.5359    0.0000 O   0  0  0  0  0  0  0  0  0  0  0  0
   -8.0537    3.3159    0.0000 O   0  0  0  0  0  0  0  0  0  0  0  0
   -3.7261   -1.5853    0.0000 C   0  0  0  0  0  0  0  0  0  0  0  0
   -3.4436   -3.0584    0.0000 C   0  0  0  0  0  0  0  0  0  0  0  0
   -1.9552   -3.2450    0.0000 C   0  0  0  0  0  0  0  0  0  0  0  0
   -1.3179   -1.8871    0.0000 C   0  0  0  0  0  0  0  0  0  0  0  0
    0.1177   -1.4521    0.0000 C   0  0  0  0  0  0  0  0  0  0  0  0
    1.2121   -2.4779    0.0000 C   0  0  0  0  0  0  0  0  0  0  0  0
    0.8711   -3.9386    0.0000 O   0  0  0  0  0  0  0  0  0  0  0  0
    2.6477   -2.0429    0.0000 C   0  0  0  0  0  0  0  0  0  0  0  0
    2.9888   -0.5822    0.0000 C   0  0  0  0  0  0  0  0  0  0  0  0
    4.4243   -0.1472    0.0000 C   0  0  0  0  0  0  0  0  0  0  0  0
    4.7654    1.3135    0.0000 C   0  0  0  0  0  0  0  0  0  0  0  0
    6.2009    1.7485    0.0000 O   0  0  0  0  0  0  0  0  0  0  0  0
    7.2954    0.7227    0.0000 S   0  0  0  0  0  0  0  0  0  0  0  0
    6.2697   -0.3717    0.0000 O   0  0  0  0  0  0  0  0  0  0  0  0
    8.3211    1.8172    0.0000 O   0  0  0  0  0  0  0  0  0  0  0  0
    8.3899   -0.3030    0.0000 O   0  0  0  0  0  0  0  0  0  0  0  0
    3.6709    2.3392    0.0000 C   0  0  0  0  0  0  0  0  0  0  0  0
    2.2354    1.9043    0.0000 C   0  0  0  0  0  0  0  0  0  0  0  0
    1.8943    0.4436    0.0000 C   0  0  0  0  0  0  0  0  0  0  0  0
    0.7998    1.4693    0.0000 F   0  0  0  0  0  0  0  0  0  0  0  0
    0.4587    0.0086    0.0000 C   0  0  0  0  0  0  0  0  0  0  0  0
   -0.6357    1.0343    0.0000 C   0  0  0  0  0  0  0  0  0  0  0  0
   -2.0713    0.5993    0.0000 C   0  0  0  0  0  0  0  0  0  0  0  0
   -2.4123   -0.8614    0.0000 C   0  0  0  0  0  0  0  0  0  0  0  0
   -3.6080    0.0444    0.0000 C   0  0  0  0  0  0  0  0  0  0  0  0
  2  1  1  6
  2  3  1  0
  3  4  1  0
  4  5  1  0
  5  6  2  0
  5  7  1  0
  2  8  1  0
  8  9  1  6
  9 10  1  0
 11 10  1  6
 11 12  1  0
 12 13  1  1
 13 14  1  6
 13 15  1  0
 16 15  1  1
 16 17  1  0
 17 18  1  0
 18 19  1  1
 19 20  1  0
 20 21  2  0
 20 22  2  0
 20 23  1  0
 18 24  1  0
 24 25  1  0
 25 26  1  0
 26 27  1  6
 26 28  1  0
 28 29  1  6
 29 30  1  0
 30 31  1  0
 31 32  1  6
 31  8  1  0
 31 11  1  0
 28 12  1  0
 26 16  1  0
M  END
>  <MS_ID>  (3405) 
MS3551

>  <SMILES>  (3405) 
C[C@H](CCC(=O)O)[C@H]1CC[C@H]2[C@@H]3[C@@H](O)C[C@@H]4C[C@H](OS(=O)(=O)O)CC[C@]4(F)[C@H]3CC[C@]12C

>  <Structure_dimension>  (3405) 
2D

$$$$
MS3552
     RDKit          2D

 33 36  0  0  0  0  0  0  0  0999 V2000
   -5.2847    2.7636    0.0000 C   0  0  0  0  0  0  0  0  0  0  0  0
   -3.9720    2.0378    0.0000 S   0  0  0  0  0  0  0  0  0  0  0  0
   -3.9443    0.5380    0.0000 C   0  0  0  0  0  0  0  0  0  0  0  0
   -5.2292   -0.2359    0.0000 C   0  0  0  0  0  0  0  0  0  0  0  0
   -6.5419    0.4900    0.0000 C   0  0  0  0  0  0  0  0  0  0  0  0
   -7.8269   -0.2839    0.0000 C   0  0  0  0  0  0  0  0  0  0  0  0
   -7.7991   -1.7837    0.0000 O   0  0  0  0  0  0  0  0  0  0  0  0
   -9.1396    0.4419    0.0000 O   0  0  0  0  0  0  0  0  0  0  0  0
   -2.6316   -0.1878    0.0000 C   0  0  0  0  0  0  0  0  0  0  0  0
   -2.4472   -1.6764    0.0000 C   0  0  0  0  0  0  0  0  0  0  0  0
   -0.9745   -1.9611    0.0000 C   0  0  0  0  0  0  0  0  0  0  0  0
   -0.2487   -0.6484    0.0000 C   0  0  0  0  0  0  0  0  0  0  0  0
    1.2125   -0.3095    0.0000 C   0  0  0  0  0  0  0  0  0  0  0  0
    2.2367   -1.4054    0.0000 C   0  0  0  0  0  0  0  0  0  0  0  0
    1.7996   -2.8404    0.0000 O   0  0  0  0  0  0  0  0  0  0  0  0
    2.8238   -3.9363    0.0000 S   0  0  0  0  0  0  0  0  0  0  0  0
    3.9197   -2.9122    0.0000 O   0  0  0  0  0  0  0  0  0  0  0  0
    1.7278   -4.9605    0.0000 O   0  0  0  0  0  0  0  0  0  0  0  0
    3.8479   -5.0323    0.0000 O   0  0  0  0  0  0  0  0  0  0  0  0
    3.6979   -1.0665    0.0000 C   0  0  0  0  0  0  0  0  0  0  0  0
    4.1349    0.3684    0.0000 C   0  0  0  0  0  0  0  0  0  0  0  0
    5.5962    0.7074    0.0000 C   0  0  0  0  0  0  0  0  0  0  0  0
    6.0332    2.1423    0.0000 C   0  0  0  0  0  0  0  0  0  0  0  0
    7.4944    2.4812    0.0000 O   0  0  0  0  0  0  0  0  0  0  0  0
    5.0091    3.2382    0.0000 C   0  0  0  0  0  0  0  0  0  0  0  0
    3.5479    2.8993    0.0000 C   0  0  0  0  0  0  0  0  0  0  0  0
    3.1108    1.4644    0.0000 C   0  0  0  0  0  0  0  0  0  0  0  0
    2.0867    2.5603    0.0000 C   0  0  0  0  0  0  0  0  0  0  0  0
    1.6496    1.1254    0.0000 C   0  0  0  0  0  0  0  0  0  0  0  0
    0.6255    2.2214    0.0000 C   0  0  0  0  0  0  0  0  0  0  0  0
   -0.8357    1.8824    0.0000 C   0  0  0  0  0  0  0  0  0  0  0  0
   -1.2728    0.4475    0.0000 C   0  0  0  0  0  0  0  0  0  0  0  0
   -2.4059    1.4304    0.0000 C   0  0  0  0  0  0  0  0  0  0  0  0
  1  2  1  0
  2  3  1  0
  3  4  1  1
  4  5  1  0
  5  6  1  0
  6  7  2  0
  6  8  1  0
  3  9  1  0
  9 10  1  6
 10 11  1  0
 12 11  1  6
 12 13  1  0
 13 14  1  1
 14 15  1  6
 15 16  1  0
 16 17  2  0
 16 18  2  0
 16 19  1  0
 14 20  1  0
 21 20  1  1
 21 22  1  0
 22 23  1  0
 23 24  1  1
 23 25  1  0
 25 26  1  0
 26 27  1  0
 27 28  1  6
 27 29  1  0
 29 30  1  6
 30 31  1  0
 31 32  1  0
 32 33  1  6
 32  9  1  0
 32 12  1  0
 29 13  1  0
 27 21  1  0
M  END
>  <MS_ID>  (3406) 
MS3552

>  <SMILES>  (3406) 
CS[C@H](CCC(=O)O)[C@H]1CC[C@H]2[C@@H]3[C@@H](OS(=O)(=O)O)C[C@@H]4C[C@H](O)CC[C@]4(C)[C@H]3CC[C@]12C

>  <Structure_dimension>  (3406) 
2D

$$$$
MS3554
     RDKit          2D

 29 32  0  0  0  0  0  0  0  0999 V2000
    1.0647   -1.2040    0.0000 C   0  0  0  0  0  0  0  0  0  0  0  0
    1.7097    0.1503    0.0000 C   0  0  0  0  0  0  0  0  0  0  0  0
    2.5600   -1.0854    0.0000 C   0  0  0  0  0  0  0  0  0  0  0  0
    4.0553   -0.9668    0.0000 C   0  0  0  0  0  0  0  0  0  0  0  0
    4.7003    0.3875    0.0000 C   0  0  0  0  0  0  0  0  0  0  0  0
    6.1956    0.5061    0.0000 O   0  0  0  0  0  0  0  0  0  0  0  0
    7.0459   -0.7295    0.0000 S   0  0  0  0  0  0  0  0  0  0  0  0
    5.8103   -1.5799    0.0000 O   0  0  0  0  0  0  0  0  0  0  0  0
    8.2816    0.1208    0.0000 O   0  0  0  0  0  0  0  0  0  0  0  0
    7.8963   -1.9652    0.0000 O   0  0  0  0  0  0  0  0  0  0  0  0
    3.8499    1.6232    0.0000 C   0  0  0  0  0  0  0  0  0  0  0  0
    2.3546    1.5046    0.0000 C   0  0  0  0  0  0  0  0  0  0  0  0
    1.5042    2.7402    0.0000 C   0  0  0  0  0  0  0  0  0  0  0  0
    0.0089    2.6216    0.0000 C   0  0  0  0  0  0  0  0  0  0  0  0
   -0.6360    1.2673    0.0000 C   0  0  0  0  0  0  0  0  0  0  0  0
    0.2143    0.0317    0.0000 C   0  0  0  0  0  0  0  0  0  0  0  0
   -0.4306   -1.3226    0.0000 C   0  0  0  0  0  0  0  0  0  0  0  0
   -1.9259   -1.4412    0.0000 C   0  0  0  0  0  0  0  0  0  0  0  0
   -2.7763   -0.2056    0.0000 C   0  0  0  0  0  0  0  0  0  0  0  0
   -3.5592   -1.4850    0.0000 C   0  0  0  0  0  0  0  0  0  0  0  0
   -4.2635   -0.0107    0.0000 C   0  0  0  0  0  0  0  0  0  0  0  0
   -5.2954   -1.0994    0.0000 O   0  0  0  0  0  0  0  0  0  0  0  0
   -6.7542   -0.7501    0.0000 S   0  0  0  0  0  0  0  0  0  0  0  0
   -6.4049    0.7086    0.0000 O   0  0  0  0  0  0  0  0  0  0  0  0
   -7.1034   -2.2089    0.0000 O   0  0  0  0  0  0  0  0  0  0  0  0
   -8.2129   -0.4009    0.0000 O   0  0  0  0  0  0  0  0  0  0  0  0
   -4.5378    1.4640    0.0000 C   0  0  0  0  0  0  0  0  0  0  0  0
   -3.2200    2.1806    0.0000 C   0  0  0  0  0  0  0  0  0  0  0  0
   -2.1313    1.1487    0.0000 C   0  0  0  0  0  0  0  0  0  0  0  0
  2  1  1  1
  2  3  1  0
  3  4  1  0
  4  5  1  0
  5  6  1  1
  6  7  1  0
  7  8  2  0
  7  9  2  0
  7 10  1  0
  5 11  1  0
 12 11  1  6
 12 13  1  0
 13 14  1  0
 15 14  1  6
 15 16  1  0
 16 17  1  1
 17 18  1  0
 18 19  1  0
 19 20  1  1
 19 21  1  0
 21 22  1  1
 22 23  1  0
 23 24  2  0
 23 25  2  0
 23 26  1  0
 21 27  1  0
 27 28  1  0
 29 28  1  1
 12  2  1  0
 29 15  1  0
 16  2  1  0
 29 19  1  0
M  END
>  <MS_ID>  (3407) 
MS3554

>  <SMILES>  (3407) 
C[C@]12CC[C@H](OS(=O)(=O)O)C[C@H]1CC[C@@H]1[C@@H]2CC[C@]2(C)[C@@H](OS(=O)(=O)O)CC[C@@H]12

>  <Structure_dimension>  (3407) 
2D

$$$$
MS3556
     RDKit          2D

 32 35  0  0  0  0  0  0  0  0999 V2000
   -5.5967   -1.9730    0.0000 C   0  0  0  0  0  0  0  0  0  0  0  0
   -4.3362   -1.1599    0.0000 C   0  0  0  0  0  0  0  0  0  0  0  0
   -4.4101    0.3383    0.0000 C   0  0  0  0  0  0  0  0  0  0  0  0
   -5.7445    1.0234    0.0000 C   0  0  0  0  0  0  0  0  0  0  0  0
   -5.8184    2.5215    0.0000 C   0  0  0  0  0  0  0  0  0  0  0  0
   -4.5579    3.3346    0.0000 O   0  0  0  0  0  0  0  0  0  0  0  0
   -7.1529    3.2066    0.0000 O   0  0  0  0  0  0  0  0  0  0  0  0
   -3.0018   -1.8450    0.0000 C   0  0  0  0  0  0  0  0  0  0  0  0
   -2.7717   -3.3272    0.0000 C   0  0  0  0  0  0  0  0  0  0  0  0
   -1.2909   -3.5664    0.0000 C   0  0  0  0  0  0  0  0  0  0  0  0
   -0.6058   -2.2320    0.0000 C   0  0  0  0  0  0  0  0  0  0  0  0
    0.8443   -1.8482    0.0000 C   0  0  0  0  0  0  0  0  0  0  0  0
    1.9017   -2.9121    0.0000 C   0  0  0  0  0  0  0  0  0  0  0  0
    1.5090   -4.3598    0.0000 O   0  0  0  0  0  0  0  0  0  0  0  0
    3.3518   -2.5283    0.0000 C   0  0  0  0  0  0  0  0  0  0  0  0
    3.7444   -1.0806    0.0000 C   0  0  0  0  0  0  0  0  0  0  0  0
    5.1945   -0.6968    0.0000 C   0  0  0  0  0  0  0  0  0  0  0  0
    5.5872    0.7509    0.0000 C   0  0  0  0  0  0  0  0  0  0  0  0
    7.0372    1.1346    0.0000 O   0  0  0  0  0  0  0  0  0  0  0  0
    4.5298    1.8148    0.0000 C   0  0  0  0  0  0  0  0  0  0  0  0
    3.0797    1.4310    0.0000 C   0  0  0  0  0  0  0  0  0  0  0  0
    2.6870   -0.0167    0.0000 C   0  0  0  0  0  0  0  0  0  0  0  0
    1.6296    1.0472    0.0000 O   0  0  0  0  0  0  0  0  0  0  0  0
    2.0223    2.4949    0.0000 S   0  0  0  0  0  0  0  0  0  0  0  0
    0.5746    2.8875    0.0000 O   0  0  0  0  0  0  0  0  0  0  0  0
    3.5220    2.4642    0.0000 O   0  0  0  0  0  0  0  0  0  0  0  0
    2.4150    3.9426    0.0000 O   0  0  0  0  0  0  0  0  0  0  0  0
    1.2370   -0.4005    0.0000 C   0  0  0  0  0  0  0  0  0  0  0  0
    0.1796    0.6634    0.0000 C   0  0  0  0  0  0  0  0  0  0  0  0
   -1.2705    0.2796    0.0000 C   0  0  0  0  0  0  0  0  0  0  0  0
   -1.6632   -1.1681    0.0000 C   0  0  0  0  0  0  0  0  0  0  0  0
   -2.8260   -0.2205    0.0000 C   0  0  0  0  0  0  0  0  0  0  0  0
  2  1  1  6
  2  3  1  0
  3  4  1  0
  4  5  1  0
  5  6  2  0
  5  7  1  0
  2  8  1  0
  8  9  1  6
  9 10  1  0
 11 10  1  6
 11 12  1  0
 12 13  1  1
 13 14  1  6
 13 15  1  0
 16 15  1  1
 16 17  1  0
 17 18  1  0
 18 19  1  1
 18 20  1  0
 20 21  1  0
 21 22  1  0
 22 23  1  6
 23 24  1  0
 24 25  2  0
 24 26  2  0
 24 27  1  0
 22 28  1  0
 28 29  1  6
 29 30  1  0
 30 31  1  0
 31 32  1  6
 31  8  1  0
 31 11  1  0
 28 12  1  0
 22 16  1  0
M  END
>  <MS_ID>  (3408) 
MS3556

>  <SMILES>  (3408) 
C[C@H](CCC(=O)O)[C@H]1CC[C@H]2[C@@H]3[C@@H](O)C[C@@H]4C[C@H](O)CC[C@]4(OS(=O)(=O)O)[C@H]3CC[C@]12C

>  <Structure_dimension>  (3408) 
2D

$$$$
MS3557
     RDKit          2D

 28 31  0  0  0  0  0  0  0  0999 V2000
   -5.1275   -2.0302    0.0000 C   0  0  0  0  0  0  0  0  0  0  0  0
   -3.9468   -1.1050    0.0000 C   0  0  0  0  0  0  0  0  0  0  0  0
   -4.1576    0.3801    0.0000 C   0  0  0  0  0  0  0  0  0  0  0  0
   -5.5492    0.9401    0.0000 N   0  0  0  0  0  0  0  0  0  0  0  0
   -5.7600    2.4252    0.0000 C   0  0  0  0  0  0  0  0  0  0  0  0
   -4.5793    3.3503    0.0000 O   0  0  0  0  0  0  0  0  0  0  0  0
   -7.1516    2.9851    0.0000 O   0  0  0  0  0  0  0  0  0  0  0  0
   -2.5552   -1.6650    0.0000 C   0  0  0  0  0  0  0  0  0  0  0  0
   -2.1903   -3.1199    0.0000 C   0  0  0  0  0  0  0  0  0  0  0  0
   -0.6938   -3.2225    0.0000 C   0  0  0  0  0  0  0  0  0  0  0  0
   -0.1339   -1.8309    0.0000 C   0  0  0  0  0  0  0  0  0  0  0  0
    1.2750   -1.3159    0.0000 C   0  0  0  0  0  0  0  0  0  0  0  0
    2.4254   -2.2785    0.0000 C   0  0  0  0  0  0  0  0  0  0  0  0
    2.1670   -3.7560    0.0000 O   0  0  0  0  0  0  0  0  0  0  0  0
    3.8342   -1.7635    0.0000 C   0  0  0  0  0  0  0  0  0  0  0  0
    4.0926   -0.2859    0.0000 C   0  0  0  0  0  0  0  0  0  0  0  0
    5.5014    0.2291    0.0000 C   0  0  0  0  0  0  0  0  0  0  0  0
    5.7598    1.7067    0.0000 C   0  0  0  0  0  0  0  0  0  0  0  0
    7.1687    2.2217    0.0000 O   0  0  0  0  0  0  0  0  0  0  0  0
    4.6094    2.6692    0.0000 C   0  0  0  0  0  0  0  0  0  0  0  0
    3.2006    2.1542    0.0000 C   0  0  0  0  0  0  0  0  0  0  0  0
    2.9422    0.6767    0.0000 C   0  0  0  0  0  0  0  0  0  0  0  0
    1.7918    1.6392    0.0000 C   0  0  0  0  0  0  0  0  0  0  0  0
    1.5334    0.1617    0.0000 C   0  0  0  0  0  0  0  0  0  0  0  0
    0.3830    1.1242    0.0000 C   0  0  0  0  0  0  0  0  0  0  0  0
   -1.0259    0.6093    0.0000 C   0  0  0  0  0  0  0  0  0  0  0  0
   -1.2843   -0.8683    0.0000 C   0  0  0  0  0  0  0  0  0  0  0  0
   -2.5290   -0.0313    0.0000 C   0  0  0  0  0  0  0  0  0  0  0  0
  2  1  1  6
  2  3  1  0
  3  4  1  0
  4  5  1  0
  5  6  2  0
  5  7  1  0
  2  8  1  0
  8  9  1  6
  9 10  1  0
 11 10  1  6
 11 12  1  0
 12 13  1  1
 13 14  1  6
 13 15  1  0
 16 15  1  1
 16 17  1  0
 17 18  1  0
 18 19  1  1
 18 20  1  0
 20 21  1  0
 21 22  1  0
 22 23  1  6
 22 24  1  0
 24 25  1  6
 25 26  1  0
 26 27  1  0
 27 28  1  6
 27  8  1  0
 27 11  1  0
 24 12  1  0
 22 16  1  0
M  END
>  <MS_ID>  (3409) 
MS3557

>  <SMILES>  (3409) 
C[C@H](CNC(=O)O)[C@H]1CC[C@H]2[C@@H]3[C@@H](O)C[C@@H]4C[C@H](O)CC[C@]4(C)[C@H]3CC[C@]12C

>  <Structure_dimension>  (3409) 
2D

$$$$
MS3558
     RDKit          2D

 25 28  0  0  0  0  0  0  0  0999 V2000
    2.0825   -1.5799    0.0000 C   0  0  0  0  0  0  0  0  0  0  0  0
    2.8559   -0.2947    0.0000 C   0  0  0  0  0  0  0  0  0  0  0  0
    3.5822   -1.6071    0.0000 C   0  0  0  0  0  0  0  0  0  0  0  0
    5.0820   -1.6342    0.0000 C   0  0  0  0  0  0  0  0  0  0  0  0
    5.8554   -0.3490    0.0000 C   0  0  0  0  0  0  0  0  0  0  0  0
    7.3552   -0.3762    0.0000 O   0  0  0  0  0  0  0  0  0  0  0  0
    5.1291    0.9634    0.0000 C   0  0  0  0  0  0  0  0  0  0  0  0
    3.6293    0.9906    0.0000 C   0  0  0  0  0  0  0  0  0  0  0  0
    2.9030    2.3030    0.0000 C   0  0  0  0  0  0  0  0  0  0  0  0
    1.4032    2.3302    0.0000 C   0  0  0  0  0  0  0  0  0  0  0  0
    0.6298    1.0449    0.0000 C   0  0  0  0  0  0  0  0  0  0  0  0
    1.3561   -0.2675    0.0000 C   0  0  0  0  0  0  0  0  0  0  0  0
    0.5827   -1.5527    0.0000 C   0  0  0  0  0  0  0  0  0  0  0  0
   -0.9170   -1.5255    0.0000 C   0  0  0  0  0  0  0  0  0  0  0  0
   -1.6434   -0.2131    0.0000 C   0  0  0  0  0  0  0  0  0  0  0  0
   -2.5469   -1.4105    0.0000 C   0  0  0  0  0  0  0  0  0  0  0  0
   -3.1047    0.1253    0.0000 C   0  0  0  0  0  0  0  0  0  0  0  0
   -4.2374   -0.8580    0.0000 O   0  0  0  0  0  0  0  0  0  0  0  0
   -5.6554   -0.3687    0.0000 S   0  0  0  0  0  0  0  0  0  0  0  0
   -5.1661    1.0492    0.0000 O   0  0  0  0  0  0  0  0  0  0  0  0
   -6.1447   -1.7867    0.0000 O   0  0  0  0  0  0  0  0  0  0  0  0
   -7.0733    0.1206    0.0000 O   0  0  0  0  0  0  0  0  0  0  0  0
   -3.2344    1.6197    0.0000 C   0  0  0  0  0  0  0  0  0  0  0  0
   -1.8533    2.2048    0.0000 C   0  0  0  0  0  0  0  0  0  0  0  0
   -0.8699    1.0721    0.0000 C   0  0  0  0  0  0  0  0  0  0  0  0
  2  1  1  1
  2  3  1  0
  3  4  1  0
  4  5  1  0
  5  6  1  6
  5  7  1  0
  8  7  1  6
  8  9  1  0
  9 10  1  0
 11 10  1  6
 11 12  1  0
 12 13  1  1
 13 14  1  0
 14 15  1  0
 15 16  1  1
 15 17  1  0
 17 18  1  1
 18 19  1  0
 19 20  2  0
 19 21  2  0
 19 22  1  0
 17 23  1  0
 23 24  1  0
 25 24  1  1
  8  2  1  0
 25 11  1  0
 12  2  1  0
 25 15  1  0
M  END
>  <MS_ID>  (3410) 
MS3558

>  <SMILES>  (3410) 
C[C@]12CC[C@@H](O)C[C@H]1CC[C@@H]1[C@@H]2CC[C@]2(C)[C@@H](OS(=O)(=O)O)CC[C@@H]12

>  <Structure_dimension>  (3410) 
2D

$$$$
MS3559
     RDKit          2D

 24 27  0  0  0  0  0  0  0  0999 V2000
   -7.0141    1.4158    0.0000 C   0  0  0  0  0  0  0  0  0  0  0  0
   -5.8882    0.4247    0.0000 C   0  0  0  0  0  0  0  0  0  0  0  0
   -6.1836   -1.0459    0.0000 O   0  0  0  0  0  0  0  0  0  0  0  0
   -4.4669    0.9042    0.0000 O   0  0  0  0  0  0  0  0  0  0  0  0
   -3.3410   -0.0869    0.0000 C   0  0  0  0  0  0  0  0  0  0  0  0
   -3.4810   -1.5803    0.0000 C   0  0  0  0  0  0  0  0  0  0  0  0
   -2.1040   -2.1750    0.0000 C   0  0  0  0  0  0  0  0  0  0  0  0
   -1.1128   -1.0491    0.0000 C   0  0  0  0  0  0  0  0  0  0  0  0
    0.3871   -1.0323    0.0000 C   0  0  0  0  0  0  0  0  0  0  0  0
    1.1516   -2.3228    0.0000 C   0  0  0  0  0  0  0  0  0  0  0  0
    2.6515   -2.3060    0.0000 C   0  0  0  0  0  0  0  0  0  0  0  0
    3.3869   -0.9986    0.0000 C   0  0  0  0  0  0  0  0  0  0  0  0
    4.8868   -0.9818    0.0000 C   0  0  0  0  0  0  0  0  0  0  0  0
    5.6221    0.3256    0.0000 C   0  0  0  0  0  0  0  0  0  0  0  0
    7.1221    0.3425    0.0000 O   0  0  0  0  0  0  0  0  0  0  0  0
    4.8576    1.6162    0.0000 C   0  0  0  0  0  0  0  0  0  0  0  0
    3.3577    1.5993    0.0000 C   0  0  0  0  0  0  0  0  0  0  0  0
    2.6223    0.2919    0.0000 C   0  0  0  0  0  0  0  0  0  0  0  0
    1.8578    1.5825    0.0000 C   0  0  0  0  0  0  0  0  0  0  0  0
    1.1224    0.2751    0.0000 C   0  0  0  0  0  0  0  0  0  0  0  0
    0.3579    1.5656    0.0000 C   0  0  0  0  0  0  0  0  0  0  0  0
   -1.1420    1.5488    0.0000 C   0  0  0  0  0  0  0  0  0  0  0  0
   -1.8774    0.2414    0.0000 C   0  0  0  0  0  0  0  0  0  0  0  0
   -2.7726    1.4450    0.0000 C   0  0  0  0  0  0  0  0  0  0  0  0
  1  2  1  0
  2  3  2  0
  2  4  1  0
  5  4  1  1
  5  6  1  0
  6  7  1  0
  8  7  1  6
  8  9  1  0
  9 10  1  1
 10 11  1  0
 12 11  1  1
 12 13  1  0
 13 14  1  0
 14 15  1  1
 14 16  1  0
 16 17  1  0
 17 18  1  0
 18 19  1  6
 18 20  1  0
 20 21  1  6
 21 22  1  0
 22 23  1  0
 23 24  1  6
 23  5  1  0
 23  8  1  0
 20  9  1  0
 18 12  1  0
M  END
>  <MS_ID>  (3411) 
MS3559

>  <SMILES>  (3411) 
CC(=O)O[C@@H]1CC[C@H]2[C@@H]3CC[C@@H]4C[C@H](O)CC[C@]4(C)[C@H]3CC[C@]12C

>  <Structure_dimension>  (3411) 
2D

$$$$
MS3560
     RDKit          2D

 40 44  0  0  0  0  0  0  0  0999 V2000
   -8.0199   -2.0892    0.0000 C   0  0  0  0  0  0  0  0  0  0  0  0
   -6.8599   -1.1383    0.0000 C   0  0  0  0  0  0  0  0  0  0  0  0
   -7.1034    0.3418    0.0000 C   0  0  0  0  0  0  0  0  0  0  0  0
   -8.5069    0.8710    0.0000 C   0  0  0  0  0  0  0  0  0  0  0  0
   -8.7504    2.3511    0.0000 C   0  0  0  0  0  0  0  0  0  0  0  0
   -7.5904    3.3020    0.0000 O   0  0  0  0  0  0  0  0  0  0  0  0
  -10.1540    2.8802    0.0000 O   0  0  0  0  0  0  0  0  0  0  0  0
   -5.4563   -1.6675    0.0000 C   0  0  0  0  0  0  0  0  0  0  0  0
   -5.0594   -3.1140    0.0000 C   0  0  0  0  0  0  0  0  0  0  0  0
   -3.5610   -3.1836    0.0000 C   0  0  0  0  0  0  0  0  0  0  0  0
   -3.0319   -1.7800    0.0000 C   0  0  0  0  0  0  0  0  0  0  0  0
   -1.6347   -1.2341    0.0000 C   0  0  0  0  0  0  0  0  0  0  0  0
   -0.4634   -2.1711    0.0000 C   0  0  0  0  0  0  0  0  0  0  0  0
   -0.6892   -3.6540    0.0000 O   0  0  0  0  0  0  0  0  0  0  0  0
    0.9337   -1.6252    0.0000 C   0  0  0  0  0  0  0  0  0  0  0  0
    1.1595   -0.1423    0.0000 C   0  0  0  0  0  0  0  0  0  0  0  0
    2.5566    0.4036    0.0000 C   0  0  0  0  0  0  0  0  0  0  0  0
    2.7824    1.8866    0.0000 C   0  0  0  0  0  0  0  0  0  0  0  0
    4.1796    2.4325    0.0000 O   0  0  0  0  0  0  0  0  0  0  0  0
    5.3509    1.4955    0.0000 C   0  0  0  0  0  0  0  0  0  0  0  0
    5.1251    0.0126    0.0000 O   0  0  0  0  0  0  0  0  0  0  0  0
    6.2965   -0.9244    0.0000 C   0  0  0  0  0  0  0  0  0  0  0  0
    6.0707   -2.4073    0.0000 C   0  0  0  0  0  0  0  0  0  0  0  0
    7.2420   -3.3443    0.0000 O   0  0  0  0  0  0  0  0  0  0  0  0
    4.6735   -2.9533    0.0000 O   0  0  0  0  0  0  0  0  0  0  0  0
    7.6936   -0.3785    0.0000 C   0  0  0  0  0  0  0  0  0  0  0  0
    8.8649   -1.3155    0.0000 O   0  0  0  0  0  0  0  0  0  0  0  0
    7.9194    1.1044    0.0000 C   0  0  0  0  0  0  0  0  0  0  0  0
    9.3165    1.6503    0.0000 O   0  0  0  0  0  0  0  0  0  0  0  0
    6.7480    2.0414    0.0000 C   0  0  0  0  0  0  0  0  0  0  0  0
    6.9738    3.5243    0.0000 O   0  0  0  0  0  0  0  0  0  0  0  0
    1.6111    2.8235    0.0000 C   0  0  0  0  0  0  0  0  0  0  0  0
    0.2140    2.2776    0.0000 C   0  0  0  0  0  0  0  0  0  0  0  0
   -0.0118    0.7947    0.0000 C   0  0  0  0  0  0  0  0  0  0  0  0
   -1.1832    1.7317    0.0000 C   0  0  0  0  0  0  0  0  0  0  0  0
   -1.4090    0.2488    0.0000 C   0  0  0  0  0  0  0  0  0  0  0  0
   -2.5803    1.1858    0.0000 C   0  0  0  0  0  0  0  0  0  0  0  0
   -3.9774    0.6399    0.0000 C   0  0  0  0  0  0  0  0  0  0  0  0
   -4.2032   -0.8430    0.0000 C   0  0  0  0  0  0  0  0  0  0  0  0
   -5.4661   -0.0336    0.0000 C   0  0  0  0  0  0  0  0  0  0  0  0
  2  1  1  6
  2  3  1  0
  3  4  1  0
  4  5  1  0
  5  6  2  0
  5  7  1  0
  2  8  1  0
  8  9  1  6
  9 10  1  0
 11 10  1  6
 11 12  1  0
 12 13  1  1
 13 14  1  1
 13 15  1  0
 16 15  1  1
 16 17  1  0
 17 18  1  0
 18 19  1  1
 20 19  1  1
 20 21  1  0
 21 22  1  0
 22 23  1  1
 23 24  2  0
 23 25  1  0
 22 26  1  0
 26 27  1  6
 26 28  1  0
 28 29  1  1
 28 30  1  0
 30 31  1  6
 18 32  1  0
 32 33  1  0
 33 34  1  0
 34 35  1  6
 34 36  1  0
 36 37  1  6
 37 38  1  0
 38 39  1  0
 39 40  1  6
 39  8  1  0
 39 11  1  0
 36 12  1  0
 34 16  1  0
 30 20  1  0
M  END
>  <MS_ID>  (3412) 
MS3560

>  <SMILES>  (3412) 
C[C@H](CCC(=O)O)[C@H]1CC[C@H]2[C@@H]3[C@H](O)C[C@@H]4C[C@H](O[C@@H]5O[C@H](C(=O)O)[C@@H](O)[C@H](O)[C@H]5O)CC[C@]4(C)[C@H]3CC[C@]12C

>  <Structure_dimension>  (3412) 
2D

$$$$
MS3562
     RDKit          2D

 29 32  0  0  0  0  0  0  0  0999 V2000
    5.3298    2.0758    0.0000 C   0  0  0  0  0  0  0  0  0  0  0  0
    4.1615    1.1351    0.0000 C   0  0  0  0  0  0  0  0  0  0  0  0
    4.3920   -0.3471    0.0000 C   0  0  0  0  0  0  0  0  0  0  0  0
    5.7909   -0.8885    0.0000 C   0  0  0  0  0  0  0  0  0  0  0  0
    6.0214   -2.3707    0.0000 C   0  0  0  0  0  0  0  0  0  0  0  0
    4.8531   -3.3114    0.0000 O   0  0  0  0  0  0  0  0  0  0  0  0
    7.4203   -2.9121    0.0000 O   0  0  0  0  0  0  0  0  0  0  0  0
    2.7626    1.6765    0.0000 C   0  0  0  0  0  0  0  0  0  0  0  0
    2.3784    3.1265    0.0000 C   0  0  0  0  0  0  0  0  0  0  0  0
    0.8807    3.2091    0.0000 C   0  0  0  0  0  0  0  0  0  0  0  0
    0.3392    1.8103    0.0000 C   0  0  0  0  0  0  0  0  0  0  0  0
   -1.0626    1.2766    0.0000 C   0  0  0  0  0  0  0  0  0  0  0  0
   -2.2257    2.2238    0.0000 C   0  0  0  0  0  0  0  0  0  0  0  0
   -1.9870    3.7047    0.0000 O   0  0  0  0  0  0  0  0  0  0  0  0
   -3.6276    1.6902    0.0000 C   0  0  0  0  0  0  0  0  0  0  0  0
   -3.8664    0.2093    0.0000 C   0  0  0  0  0  0  0  0  0  0  0  0
   -5.2682   -0.3244    0.0000 C   0  0  0  0  0  0  0  0  0  0  0  0
   -6.4313    0.6228    0.0000 O   0  0  0  0  0  0  0  0  0  0  0  0
   -5.5070   -1.8053    0.0000 C   0  0  0  0  0  0  0  0  0  0  0  0
   -6.9088   -2.3389    0.0000 O   0  0  0  0  0  0  0  0  0  0  0  0
   -4.3439   -2.7525    0.0000 C   0  0  0  0  0  0  0  0  0  0  0  0
   -2.9420   -2.2188    0.0000 C   0  0  0  0  0  0  0  0  0  0  0  0
   -2.7033   -0.7379    0.0000 C   0  0  0  0  0  0  0  0  0  0  0  0
   -1.5402   -1.6851    0.0000 C   0  0  0  0  0  0  0  0  0  0  0  0
   -1.3014   -0.2043    0.0000 C   0  0  0  0  0  0  0  0  0  0  0  0
   -0.1383   -1.1515    0.0000 C   0  0  0  0  0  0  0  0  0  0  0  0
    1.2636   -0.6178    0.0000 C   0  0  0  0  0  0  0  0  0  0  0  0
    1.5023    0.8631    0.0000 C   0  0  0  0  0  0  0  0  0  0  0  0
    2.7580    0.0426    0.0000 C   0  0  0  0  0  0  0  0  0  0  0  0
  2  1  1  6
  2  3  1  0
  3  4  1  0
  4  5  1  0
  5  6  2  0
  5  7  1  0
  2  8  1  0
  8  9  1  6
  9 10  1  0
 11 10  1  6
 11 12  1  0
 12 13  1  1
 13 14  1  1
 13 15  1  0
 16 15  1  1
 16 17  1  0
 17 18  1  6
 17 19  1  0
 19 20  1  1
 19 21  1  0
 21 22  1  0
 22 23  1  0
 23 24  1  6
 23 25  1  0
 25 26  1  6
 26 27  1  0
 27 28  1  0
 28 29  1  6
 28  8  1  0
 28 11  1  0
 25 12  1  0
 23 16  1  0
M  END
>  <MS_ID>  (3413) 
MS3562

>  <SMILES>  (3413) 
C[C@H](CCC(=O)O)[C@H]1CC[C@H]2[C@@H]3[C@H](O)C[C@@H]4[C@@H](O)[C@H](O)CC[C@]4(C)[C@H]3CC[C@]12C

>  <Structure_dimension>  (3413) 
2D

$$$$
MS3563
     RDKit          2D

 30 33  0  0  0  0  0  0  0  0999 V2000
    5.3223    1.9557    0.0000 C   0  0  0  0  0  0  0  0  0  0  0  0
    4.0965    1.0911    0.0000 C   0  0  0  0  0  0  0  0  0  0  0  0
    4.2324   -0.4028    0.0000 C   0  0  0  0  0  0  0  0  0  0  0  0
    5.5941   -1.0320    0.0000 C   0  0  0  0  0  0  0  0  0  0  0  0
    5.7300   -2.5258    0.0000 C   0  0  0  0  0  0  0  0  0  0  0  0
    4.5043   -3.3904    0.0000 O   0  0  0  0  0  0  0  0  0  0  0  0
    7.0916   -3.1550    0.0000 O   0  0  0  0  0  0  0  0  0  0  0  0
    2.7349    1.7203    0.0000 C   0  0  0  0  0  0  0  0  0  0  0  0
    2.4436    3.1917    0.0000 C   0  0  0  0  0  0  0  0  0  0  0  0
    0.9541    3.3694    0.0000 C   0  0  0  0  0  0  0  0  0  0  0  0
    0.3249    2.0077    0.0000 C   0  0  0  0  0  0  0  0  0  0  0  0
   -1.1080    1.5642    0.0000 C   0  0  0  0  0  0  0  0  0  0  0  0
   -2.2086    2.5834    0.0000 C   0  0  0  0  0  0  0  0  0  0  0  0
   -1.8762    4.0461    0.0000 O   0  0  0  0  0  0  0  0  0  0  0  0
   -3.6415    2.1399    0.0000 C   0  0  0  0  0  0  0  0  0  0  0  0
   -3.9739    0.6772    0.0000 C   0  0  0  0  0  0  0  0  0  0  0  0
   -5.4068    0.2336    0.0000 C   0  0  0  0  0  0  0  0  0  0  0  0
   -5.7392   -1.2291    0.0000 C   0  0  0  0  0  0  0  0  0  0  0  0
   -7.1721   -1.6726    0.0000 O   0  0  0  0  0  0  0  0  0  0  0  0
   -4.6386   -2.2483    0.0000 C   0  0  0  0  0  0  0  0  0  0  0  0
   -4.9710   -3.7110    0.0000 O   0  0  0  0  0  0  0  0  0  0  0  0
   -3.2057   -1.8047    0.0000 C   0  0  0  0  0  0  0  0  0  0  0  0
   -2.8733   -0.3420    0.0000 C   0  0  0  0  0  0  0  0  0  0  0  0
   -1.7727   -1.3612    0.0000 C   0  0  0  0  0  0  0  0  0  0  0  0
   -1.4404    0.1015    0.0000 C   0  0  0  0  0  0  0  0  0  0  0  0
   -0.3398   -0.9177    0.0000 C   0  0  0  0  0  0  0  0  0  0  0  0
    1.0931   -0.4742    0.0000 C   0  0  0  0  0  0  0  0  0  0  0  0
    2.1937   -1.4934    0.0000 O   0  0  0  0  0  0  0  0  0  0  0  0
    1.4255    0.9885    0.0000 C   0  0  0  0  0  0  0  0  0  0  0  0
    2.6266    0.0900    0.0000 C   0  0  0  0  0  0  0  0  0  0  0  0
  2  1  1  6
  2  3  1  0
  3  4  1  0
  4  5  1  0
  5  6  2  0
  5  7  1  0
  2  8  1  0
  8  9  1  6
  9 10  1  0
 11 10  1  6
 11 12  1  0
 12 13  1  1
 13 14  1  1
 13 15  1  0
 16 15  1  1
 16 17  1  0
 17 18  1  0
 18 19  1  1
 18 20  1  0
 20 21  1  6
 20 22  1  0
 22 23  1  0
 23 24  1  6
 23 25  1  0
 25 26  1  6
 26 27  1  0
 27 28  1  1
 27 29  1  0
 29 30  1  6
 29  8  1  0
 29 11  1  0
 25 12  1  0
 23 16  1  0
M  END
>  <MS_ID>  (3414) 
MS3563

>  <SMILES>  (3414) 
C[C@H](CCC(=O)O)[C@H]1CC[C@H]2[C@@H]3[C@H](O)C[C@@H]4C[C@H](O)[C@@H](O)C[C@]4(C)[C@H]3C[C@H](O)[C@]12C

>  <Structure_dimension>  (3414) 
2D

$$$$
MS3564
     RDKit          2D

 40 44  0  0  0  0  0  0  0  0999 V2000
   -7.8883   -2.2905    0.0000 C   0  0  0  0  0  0  0  0  0  0  0  0
   -6.7368   -1.3292    0.0000 C   0  0  0  0  0  0  0  0  0  0  0  0
   -6.9935    0.1486    0.0000 C   0  0  0  0  0  0  0  0  0  0  0  0
   -8.4017    0.6653    0.0000 C   0  0  0  0  0  0  0  0  0  0  0  0
   -8.6584    2.1431    0.0000 C   0  0  0  0  0  0  0  0  0  0  0  0
   -7.5069    3.1044    0.0000 O   0  0  0  0  0  0  0  0  0  0  0  0
  -10.0666    2.6598    0.0000 O   0  0  0  0  0  0  0  0  0  0  0  0
   -5.3286   -1.8459    0.0000 C   0  0  0  0  0  0  0  0  0  0  0  0
   -4.9188   -3.2888    0.0000 C   0  0  0  0  0  0  0  0  0  0  0  0
   -3.4199   -3.3450    0.0000 C   0  0  0  0  0  0  0  0  0  0  0  0
   -2.9032   -1.9368    0.0000 C   0  0  0  0  0  0  0  0  0  0  0  0
   -1.5110   -1.3784    0.0000 C   0  0  0  0  0  0  0  0  0  0  0  0
   -0.3314   -2.3049    0.0000 C   0  0  0  0  0  0  0  0  0  0  0  0
    1.0608   -1.7466    0.0000 C   0  0  0  0  0  0  0  0  0  0  0  0
    1.2734   -0.2617    0.0000 C   0  0  0  0  0  0  0  0  0  0  0  0
    2.6656    0.2967    0.0000 C   0  0  0  0  0  0  0  0  0  0  0  0
    2.8781    1.7815    0.0000 C   0  0  0  0  0  0  0  0  0  0  0  0
    4.2704    2.3399    0.0000 O   0  0  0  0  0  0  0  0  0  0  0  0
    5.4500    1.4134    0.0000 C   0  0  0  0  0  0  0  0  0  0  0  0
    5.2375   -0.0715    0.0000 O   0  0  0  0  0  0  0  0  0  0  0  0
    6.4171   -0.9980    0.0000 C   0  0  0  0  0  0  0  0  0  0  0  0
    6.2046   -2.4829    0.0000 C   0  0  0  0  0  0  0  0  0  0  0  0
    7.3842   -3.4094    0.0000 O   0  0  0  0  0  0  0  0  0  0  0  0
    4.8124   -3.0412    0.0000 O   0  0  0  0  0  0  0  0  0  0  0  0
    7.8093   -0.4396    0.0000 C   0  0  0  0  0  0  0  0  0  0  0  0
    8.9890   -1.3661    0.0000 O   0  0  0  0  0  0  0  0  0  0  0  0
    8.0219    1.0452    0.0000 C   0  0  0  0  0  0  0  0  0  0  0  0
    9.4141    1.6036    0.0000 O   0  0  0  0  0  0  0  0  0  0  0  0
    6.8422    1.9717    0.0000 C   0  0  0  0  0  0  0  0  0  0  0  0
    7.0548    3.4566    0.0000 O   0  0  0  0  0  0  0  0  0  0  0  0
    1.6985    2.7080    0.0000 C   0  0  0  0  0  0  0  0  0  0  0  0
    0.3063    2.1497    0.0000 C   0  0  0  0  0  0  0  0  0  0  0  0
    0.0937    0.6648    0.0000 C   0  0  0  0  0  0  0  0  0  0  0  0
   -1.0859    1.5913    0.0000 C   0  0  0  0  0  0  0  0  0  0  0  0
   -1.2985    0.1065    0.0000 C   0  0  0  0  0  0  0  0  0  0  0  0
   -2.4781    1.0330    0.0000 C   0  0  0  0  0  0  0  0  0  0  0  0
   -3.8703    0.4746    0.0000 C   0  0  0  0  0  0  0  0  0  0  0  0
   -5.0500    1.4011    0.0000 O   0  0  0  0  0  0  0  0  0  0  0  0
   -4.0829   -1.0103    0.0000 C   0  0  0  0  0  0  0  0  0  0  0  0
   -5.3529   -0.2121    0.0000 C   0  0  0  0  0  0  0  0  0  0  0  0
  2  1  1  6
  2  3  1  0
  3  4  1  0
  4  5  1  0
  5  6  2  0
  5  7  1  0
  2  8  1  0
  8  9  1  6
  9 10  1  0
 11 10  1  6
 11 12  1  0
 12 13  1  1
 13 14  1  0
 15 14  1  1
 15 16  1  0
 16 17  1  0
 17 18  1  1
 19 18  1  1
 19 20  1  0
 20 21  1  0
 21 22  1  1
 22 23  2  0
 22 24  1  0
 21 25  1  0
 25 26  1  6
 25 27  1  0
 27 28  1  1
 27 29  1  0
 29 30  1  6
 17 31  1  0
 31 32  1  0
 32 33  1  0
 33 34  1  6
 33 35  1  0
 35 36  1  6
 36 37  1  0
 37 38  1  1
 37 39  1  0
 39 40  1  6
 39  8  1  0
 39 11  1  0
 35 12  1  0
 33 15  1  0
 29 19  1  0
M  END
>  <MS_ID>  (3415) 
MS3564

>  <SMILES>  (3415) 
C[C@H](CCC(=O)O)[C@H]1CC[C@H]2[C@@H]3CC[C@@H]4C[C@H](O[C@@H]5O[C@H](C(=O)O)[C@@H](O)[C@H](O)[C@H]5O)CC[C@]4(C)[C@H]3C[C@H](O)[C@]12C

>  <Structure_dimension>  (3415) 
2D

$$$$
MS3565
     RDKit          2D

 30 33  0  0  0  0  0  0  0  0999 V2000
   -5.1134   -2.2540    0.0000 C   0  0  0  0  0  0  0  0  0  0  0  0
   -3.9811   -1.2701    0.0000 C   0  0  0  0  0  0  0  0  0  0  0  0
   -4.2670    0.2024    0.0000 C   0  0  0  0  0  0  0  0  0  0  0  0
   -5.6852    0.6910    0.0000 C   0  0  0  0  0  0  0  0  0  0  0  0
   -5.9711    2.1635    0.0000 C   0  0  0  0  0  0  0  0  0  0  0  0
   -4.8388    3.1474    0.0000 O   0  0  0  0  0  0  0  0  0  0  0  0
   -7.3892    2.6522    0.0000 O   0  0  0  0  0  0  0  0  0  0  0  0
   -2.5629   -1.7588    0.0000 C   0  0  0  0  0  0  0  0  0  0  0  0
   -2.1247   -3.1933    0.0000 C   0  0  0  0  0  0  0  0  0  0  0  0
   -0.6249   -3.2198    0.0000 C   0  0  0  0  0  0  0  0  0  0  0  0
   -0.1362   -1.8017    0.0000 C   0  0  0  0  0  0  0  0  0  0  0  0
    1.2446   -1.2159    0.0000 C   0  0  0  0  0  0  0  0  0  0  0  0
    2.4424   -2.1188    0.0000 C   0  0  0  0  0  0  0  0  0  0  0  0
    2.2593   -3.6076    0.0000 O   0  0  0  0  0  0  0  0  0  0  0  0
    3.8233   -1.5330    0.0000 C   0  0  0  0  0  0  0  0  0  0  0  0
    5.0210   -2.4360    0.0000 O   0  0  0  0  0  0  0  0  0  0  0  0
    4.0064   -0.0442    0.0000 C   0  0  0  0  0  0  0  0  0  0  0  0
    5.3873    0.5416    0.0000 C   0  0  0  0  0  0  0  0  0  0  0  0
    5.5704    2.0303    0.0000 C   0  0  0  0  0  0  0  0  0  0  0  0
    6.9513    2.6161    0.0000 O   0  0  0  0  0  0  0  0  0  0  0  0
    4.3726    2.9333    0.0000 C   0  0  0  0  0  0  0  0  0  0  0  0
    2.9918    2.3475    0.0000 C   0  0  0  0  0  0  0  0  0  0  0  0
    2.8086    0.8587    0.0000 C   0  0  0  0  0  0  0  0  0  0  0  0
    1.6109    1.7617    0.0000 C   0  0  0  0  0  0  0  0  0  0  0  0
    1.4278    0.2729    0.0000 C   0  0  0  0  0  0  0  0  0  0  0  0
    0.2300    1.1759    0.0000 C   0  0  0  0  0  0  0  0  0  0  0  0
   -1.1509    0.5901    0.0000 C   0  0  0  0  0  0  0  0  0  0  0  0
   -2.3486    1.4931    0.0000 O   0  0  0  0  0  0  0  0  0  0  0  0
   -1.3340   -0.8987    0.0000 C   0  0  0  0  0  0  0  0  0  0  0  0
   -2.6196   -0.1258    0.0000 C   0  0  0  0  0  0  0  0  0  0  0  0
  2  1  1  6
  2  3  1  0
  3  4  1  0
  4  5  1  0
  5  6  2  0
  5  7  1  0
  2  8  1  0
  8  9  1  6
  9 10  1  0
 11 10  1  6
 11 12  1  0
 12 13  1  1
 13 14  1  1
 13 15  1  0
 15 16  1  6
 15 17  1  0
 17 18  1  1
 18 19  1  0
 19 20  1  1
 19 21  1  0
 21 22  1  0
 22 23  1  0
 23 24  1  6
 23 25  1  0
 25 26  1  6
 26 27  1  0
 27 28  1  6
 27 29  1  0
 29 30  1  6
 29  8  1  0
 29 11  1  0
 25 12  1  0
 23 17  1  0
M  END
>  <MS_ID>  (3416) 
MS3565

>  <SMILES>  (3416) 
C[C@H](CCC(=O)O)[C@H]1CC[C@H]2[C@@H]3[C@H](O)[C@@H](O)[C@@H]4C[C@H](O)CC[C@]4(C)[C@H]3C[C@@H](O)[C@]12C

>  <Structure_dimension>  (3416) 
2D

$$$$
MS3566
     RDKit          2D

 29 32  0  0  0  0  0  0  0  0999 V2000
    5.3298    2.0758    0.0000 C   0  0  0  0  0  0  0  0  0  0  0  0
    4.1615    1.1351    0.0000 C   0  0  0  0  0  0  0  0  0  0  0  0
    4.3920   -0.3471    0.0000 C   0  0  0  0  0  0  0  0  0  0  0  0
    5.7909   -0.8885    0.0000 C   0  0  0  0  0  0  0  0  0  0  0  0
    6.0214   -2.3707    0.0000 C   0  0  0  0  0  0  0  0  0  0  0  0
    4.8531   -3.3114    0.0000 O   0  0  0  0  0  0  0  0  0  0  0  0
    7.4203   -2.9121    0.0000 O   0  0  0  0  0  0  0  0  0  0  0  0
    2.7626    1.6765    0.0000 C   0  0  0  0  0  0  0  0  0  0  0  0
    2.3784    3.1265    0.0000 C   0  0  0  0  0  0  0  0  0  0  0  0
    0.8807    3.2091    0.0000 C   0  0  0  0  0  0  0  0  0  0  0  0
    0.3392    1.8103    0.0000 C   0  0  0  0  0  0  0  0  0  0  0  0
   -1.0626    1.2766    0.0000 C   0  0  0  0  0  0  0  0  0  0  0  0
   -2.2257    2.2238    0.0000 C   0  0  0  0  0  0  0  0  0  0  0  0
   -1.9870    3.7047    0.0000 O   0  0  0  0  0  0  0  0  0  0  0  0
   -3.6276    1.6902    0.0000 C   0  0  0  0  0  0  0  0  0  0  0  0
   -3.8664    0.2093    0.0000 C   0  0  0  0  0  0  0  0  0  0  0  0
   -5.2682   -0.3244    0.0000 C   0  0  0  0  0  0  0  0  0  0  0  0
   -6.4313    0.6228    0.0000 O   0  0  0  0  0  0  0  0  0  0  0  0
   -5.5070   -1.8053    0.0000 C   0  0  0  0  0  0  0  0  0  0  0  0
   -6.9088   -2.3389    0.0000 O   0  0  0  0  0  0  0  0  0  0  0  0
   -4.3439   -2.7525    0.0000 C   0  0  0  0  0  0  0  0  0  0  0  0
   -2.9420   -2.2188    0.0000 C   0  0  0  0  0  0  0  0  0  0  0  0
   -2.7033   -0.7379    0.0000 C   0  0  0  0  0  0  0  0  0  0  0  0
   -1.5402   -1.6851    0.0000 C   0  0  0  0  0  0  0  0  0  0  0  0
   -1.3014   -0.2043    0.0000 C   0  0  0  0  0  0  0  0  0  0  0  0
   -0.1383   -1.1515    0.0000 C   0  0  0  0  0  0  0  0  0  0  0  0
    1.2636   -0.6178    0.0000 C   0  0  0  0  0  0  0  0  0  0  0  0
    1.5023    0.8631    0.0000 C   0  0  0  0  0  0  0  0  0  0  0  0
    2.7580    0.0426    0.0000 C   0  0  0  0  0  0  0  0  0  0  0  0
  2  1  1  6
  2  3  1  0
  3  4  1  0
  4  5  1  0
  5  6  2  0
  5  7  1  0
  2  8  1  0
  8  9  1  6
  9 10  1  0
 11 10  1  6
 11 12  1  0
 12 13  1  1
 13 14  1  1
 13 15  1  0
 16 15  1  1
 16 17  1  0
 17 18  1  6
 17 19  1  0
 19 20  1  6
 19 21  1  0
 21 22  1  0
 22 23  1  0
 23 24  1  6
 23 25  1  0
 25 26  1  6
 26 27  1  0
 27 28  1  0
 28 29  1  6
 28  8  1  0
 28 11  1  0
 25 12  1  0
 23 16  1  0
M  END
>  <MS_ID>  (3417) 
MS3566

>  <SMILES>  (3417) 
C[C@H](CCC(=O)O)[C@H]1CC[C@H]2[C@@H]3[C@H](O)C[C@@H]4[C@@H](O)[C@@H](O)CC[C@]4(C)[C@H]3CC[C@]12C

>  <Structure_dimension>  (3417) 
2D

$$$$
MS3568
     RDKit          2D

 37 40  0  0  0  0  0  0  0  0999 V2000
   -3.2341   -4.3300    0.0000 C   0  0  0  0  0  0  0  0  0  0  0  0
   -2.3669   -3.1061    0.0000 C   0  0  0  0  0  0  0  0  0  0  0  0
   -2.9933   -1.7431    0.0000 C   0  0  0  0  0  0  0  0  0  0  0  0
   -4.4868   -1.6040    0.0000 C   0  0  0  0  0  0  0  0  0  0  0  0
   -5.1132   -0.2411    0.0000 C   0  0  0  0  0  0  0  0  0  0  0  0
   -4.2460    0.9828    0.0000 O   0  0  0  0  0  0  0  0  0  0  0  0
   -6.6067   -0.1020    0.0000 N   0  0  0  0  0  0  0  0  0  0  0  0
   -7.2330    1.2609    0.0000 C   0  0  0  0  0  0  0  0  0  0  0  0
   -8.7266    1.4000    0.0000 C   0  0  0  0  0  0  0  0  0  0  0  0
   -9.3529    2.7629    0.0000 S   0  0  0  0  0  0  0  0  0  0  0  0
  -10.7159    2.1366    0.0000 O   0  0  0  0  0  0  0  0  0  0  0  0
   -7.9900    3.3893    0.0000 O   0  0  0  0  0  0  0  0  0  0  0  0
   -9.9793    4.1259    0.0000 O   0  0  0  0  0  0  0  0  0  0  0  0
   -0.8734   -3.2451    0.0000 C   0  0  0  0  0  0  0  0  0  0  0  0
   -0.1080   -4.5351    0.0000 C   0  0  0  0  0  0  0  0  0  0  0  0
    1.3554   -4.2058    0.0000 C   0  0  0  0  0  0  0  0  0  0  0  0
    1.4945   -2.7123    0.0000 C   0  0  0  0  0  0  0  0  0  0  0  0
    2.6974   -1.8162    0.0000 C   0  0  0  0  0  0  0  0  0  0  0  0
    4.0749   -2.4100    0.0000 C   0  0  0  0  0  0  0  0  0  0  0  0
    4.2494   -3.8998    0.0000 O   0  0  0  0  0  0  0  0  0  0  0  0
    5.2779   -1.5140    0.0000 C   0  0  0  0  0  0  0  0  0  0  0  0
    5.1034   -0.0241    0.0000 C   0  0  0  0  0  0  0  0  0  0  0  0
    6.3063    0.8719    0.0000 C   0  0  0  0  0  0  0  0  0  0  0  0
    6.1318    2.3617    0.0000 C   0  0  0  0  0  0  0  0  0  0  0  0
    7.3347    3.2578    0.0000 S   0  0  0  0  0  0  0  0  0  0  0  0
    8.2308    2.0548    0.0000 O   0  0  0  0  0  0  0  0  0  0  0  0
    6.4387    4.4607    0.0000 O   0  0  0  0  0  0  0  0  0  0  0  0
    8.5377    4.1538    0.0000 O   0  0  0  0  0  0  0  0  0  0  0  0
    4.7543    2.9555    0.0000 C   0  0  0  0  0  0  0  0  0  0  0  0
    3.5514    2.0594    0.0000 C   0  0  0  0  0  0  0  0  0  0  0  0
    3.7259    0.5696    0.0000 C   0  0  0  0  0  0  0  0  0  0  0  0
    2.3484    1.1634    0.0000 C   0  0  0  0  0  0  0  0  0  0  0  0
    2.5229   -0.3264    0.0000 C   0  0  0  0  0  0  0  0  0  0  0  0
    1.1455    0.2673    0.0000 C   0  0  0  0  0  0  0  0  0  0  0  0
   -0.0575   -0.6287    0.0000 C   0  0  0  0  0  0  0  0  0  0  0  0
    0.1170   -2.1185    0.0000 C   0  0  0  0  0  0  0  0  0  0  0  0
   -1.3150   -1.6720    0.0000 C   0  0  0  0  0  0  0  0  0  0  0  0
  2  1  1  6
  2  3  1  0
  3  4  1  0
  4  5  1  0
  5  6  2  0
  5  7  1  0
  7  8  1  0
  8  9  1  0
  9 10  1  0
 10 11  2  0
 10 12  2  0
 10 13  1  0
  2 14  1  0
 14 15  1  6
 15 16  1  0
 17 16  1  6
 17 18  1  0
 18 19  1  1
 19 20  1  1
 19 21  1  0
 22 21  1  1
 22 23  1  0
 23 24  1  0
 24 25  1  1
 25 26  2  0
 25 27  2  0
 25 28  1  0
 24 29  1  0
 29 30  1  0
 30 31  1  0
 31 32  1  6
 31 33  1  0
 33 34  1  6
 34 35  1  0
 35 36  1  0
 36 37  1  6
 36 14  1  0
 36 17  1  0
 33 18  1  0
 31 22  1  0
M  END
>  <MS_ID>  (3418) 
MS3568

>  <SMILES>  (3418) 
C[C@H](CCC(=O)NCCS(=O)(=O)O)[C@H]1CC[C@H]2[C@@H]3[C@H](O)C[C@@H]4C[C@H](S(=O)(=O)O)CC[C@]4(C)[C@H]3CC[C@]12C

>  <Structure_dimension>  (3418) 
2D

$$$$
MS3569
     RDKit          2D

 30 33  0  0  0  0  0  0  0  0999 V2000
   -5.1134   -2.2540    0.0000 C   0  0  0  0  0  0  0  0  0  0  0  0
   -3.9811   -1.2701    0.0000 C   0  0  0  0  0  0  0  0  0  0  0  0
   -4.2670    0.2024    0.0000 C   0  0  0  0  0  0  0  0  0  0  0  0
   -5.6852    0.6910    0.0000 C   0  0  0  0  0  0  0  0  0  0  0  0
   -5.9711    2.1635    0.0000 C   0  0  0  0  0  0  0  0  0  0  0  0
   -4.8388    3.1474    0.0000 O   0  0  0  0  0  0  0  0  0  0  0  0
   -7.3892    2.6522    0.0000 O   0  0  0  0  0  0  0  0  0  0  0  0
   -2.5629   -1.7588    0.0000 C   0  0  0  0  0  0  0  0  0  0  0  0
   -2.1247   -3.1933    0.0000 C   0  0  0  0  0  0  0  0  0  0  0  0
   -0.6249   -3.2198    0.0000 C   0  0  0  0  0  0  0  0  0  0  0  0
   -0.1362   -1.8017    0.0000 C   0  0  0  0  0  0  0  0  0  0  0  0
    1.2446   -1.2159    0.0000 C   0  0  0  0  0  0  0  0  0  0  0  0
    2.4424   -2.1188    0.0000 C   0  0  0  0  0  0  0  0  0  0  0  0
    2.2593   -3.6076    0.0000 O   0  0  0  0  0  0  0  0  0  0  0  0
    3.8233   -1.5330    0.0000 C   0  0  0  0  0  0  0  0  0  0  0  0
    5.0210   -2.4360    0.0000 O   0  0  0  0  0  0  0  0  0  0  0  0
    4.0064   -0.0442    0.0000 C   0  0  0  0  0  0  0  0  0  0  0  0
    5.3873    0.5416    0.0000 C   0  0  0  0  0  0  0  0  0  0  0  0
    5.5704    2.0303    0.0000 C   0  0  0  0  0  0  0  0  0  0  0  0
    6.9513    2.6161    0.0000 O   0  0  0  0  0  0  0  0  0  0  0  0
    4.3726    2.9333    0.0000 C   0  0  0  0  0  0  0  0  0  0  0  0
    2.9918    2.3475    0.0000 C   0  0  0  0  0  0  0  0  0  0  0  0
    2.8086    0.8587    0.0000 C   0  0  0  0  0  0  0  0  0  0  0  0
    1.6109    1.7617    0.0000 C   0  0  0  0  0  0  0  0  0  0  0  0
    1.4278    0.2729    0.0000 C   0  0  0  0  0  0  0  0  0  0  0  0
    0.2300    1.1759    0.0000 C   0  0  0  0  0  0  0  0  0  0  0  0
   -1.1509    0.5901    0.0000 C   0  0  0  0  0  0  0  0  0  0  0  0
   -2.3486    1.4931    0.0000 O   0  0  0  0  0  0  0  0  0  0  0  0
   -1.3340   -0.8987    0.0000 C   0  0  0  0  0  0  0  0  0  0  0  0
   -2.6196   -0.1258    0.0000 C   0  0  0  0  0  0  0  0  0  0  0  0
  2  1  1  6
  2  3  1  0
  3  4  1  0
  4  5  1  0
  5  6  2  0
  5  7  1  0
  2  8  1  0
  8  9  1  6
  9 10  1  0
 11 10  1  6
 11 12  1  0
 12 13  1  1
 13 14  1  6
 13 15  1  0
 15 16  1  1
 15 17  1  0
 17 18  1  1
 18 19  1  0
 19 20  1  1
 19 21  1  0
 21 22  1  0
 22 23  1  0
 23 24  1  6
 23 25  1  0
 25 26  1  6
 26 27  1  0
 27 28  1  1
 27 29  1  0
 29 30  1  6
 29  8  1  0
 29 11  1  0
 25 12  1  0
 23 17  1  0
M  END
>  <MS_ID>  (3419) 
MS3569

>  <SMILES>  (3419) 
C[C@H](CCC(=O)O)[C@H]1CC[C@H]2[C@@H]3[C@@H](O)[C@H](O)[C@@H]4C[C@H](O)CC[C@]4(C)[C@H]3C[C@H](O)[C@]12C

>  <Structure_dimension>  (3419) 
2D

$$$$
MS3570
     RDKit          2D

 33 36  0  0  0  0  0  0  0  0999 V2000
   -3.2878   -3.6766    0.0000 C   0  0  0  0  0  0  0  0  0  0  0  0
   -2.4284   -2.4472    0.0000 C   0  0  0  0  0  0  0  0  0  0  0  0
   -3.0634   -1.0882    0.0000 C   0  0  0  0  0  0  0  0  0  0  0  0
   -4.5578   -0.9586    0.0000 C   0  0  0  0  0  0  0  0  0  0  0  0
   -5.1928    0.4003    0.0000 C   0  0  0  0  0  0  0  0  0  0  0  0
   -4.3333    1.6297    0.0000 O   0  0  0  0  0  0  0  0  0  0  0  0
   -6.6871    0.5299    0.0000 N   0  0  0  0  0  0  0  0  0  0  0  0
   -7.3221    1.8889    0.0000 C   0  0  0  0  0  0  0  0  0  0  0  0
   -8.8165    2.0184    0.0000 C   0  0  0  0  0  0  0  0  0  0  0  0
   -9.6759    0.7890    0.0000 O   0  0  0  0  0  0  0  0  0  0  0  0
   -9.4515    3.3774    0.0000 O   0  0  0  0  0  0  0  0  0  0  0  0
   -0.9340   -2.5767    0.0000 C   0  0  0  0  0  0  0  0  0  0  0  0
   -0.1604   -3.8619    0.0000 C   0  0  0  0  0  0  0  0  0  0  0  0
    1.3009   -3.5233    0.0000 C   0  0  0  0  0  0  0  0  0  0  0  0
    1.4304   -2.0289    0.0000 C   0  0  0  0  0  0  0  0  0  0  0  0
    2.6277   -1.1253    0.0000 C   0  0  0  0  0  0  0  0  0  0  0  0
    4.0089   -1.7103    0.0000 C   0  0  0  0  0  0  0  0  0  0  0  0
    4.1929   -3.1990    0.0000 O   0  0  0  0  0  0  0  0  0  0  0  0
    5.2061   -0.8066    0.0000 C   0  0  0  0  0  0  0  0  0  0  0  0
    6.5874   -1.3916    0.0000 O   0  0  0  0  0  0  0  0  0  0  0  0
    5.0222    0.6820    0.0000 C   0  0  0  0  0  0  0  0  0  0  0  0
    6.2194    1.5857    0.0000 C   0  0  0  0  0  0  0  0  0  0  0  0
    6.0355    3.0744    0.0000 C   0  0  0  0  0  0  0  0  0  0  0  0
    7.2327    3.9780    0.0000 O   0  0  0  0  0  0  0  0  0  0  0  0
    4.6542    3.6594    0.0000 C   0  0  0  0  0  0  0  0  0  0  0  0
    3.4570    2.7557    0.0000 C   0  0  0  0  0  0  0  0  0  0  0  0
    3.6410    1.2671    0.0000 C   0  0  0  0  0  0  0  0  0  0  0  0
    2.2597    1.8521    0.0000 C   0  0  0  0  0  0  0  0  0  0  0  0
    2.4437    0.3634    0.0000 C   0  0  0  0  0  0  0  0  0  0  0  0
    1.0625    0.9484    0.0000 C   0  0  0  0  0  0  0  0  0  0  0  0
   -0.1347    0.0448    0.0000 C   0  0  0  0  0  0  0  0  0  0  0  0
    0.0492   -1.4439    0.0000 C   0  0  0  0  0  0  0  0  0  0  0  0
   -1.3856   -1.0065    0.0000 C   0  0  0  0  0  0  0  0  0  0  0  0
  2  1  1  6
  2  3  1  0
  3  4  1  0
  4  5  1  0
  5  6  2  0
  5  7  1  0
  7  8  1  0
  8  9  1  0
  9 10  2  0
  9 11  1  0
  2 12  1  0
 12 13  1  6
 13 14  1  0
 15 14  1  6
 15 16  1  0
 16 17  1  1
 17 18  1  6
 17 19  1  0
 19 20  1  1
 19 21  1  0
 21 22  1  1
 22 23  1  0
 23 24  1  1
 23 25  1  0
 25 26  1  0
 26 27  1  0
 27 28  1  6
 27 29  1  0
 29 30  1  6
 30 31  1  0
 31 32  1  0
 32 33  1  6
 32 12  1  0
 32 15  1  0
 29 16  1  0
 27 21  1  0
M  END
>  <MS_ID>  (3420) 
MS3570

>  <SMILES>  (3420) 
C[C@H](CCC(=O)NCC(=O)O)[C@H]1CC[C@H]2[C@@H]3[C@@H](O)[C@H](O)[C@@H]4C[C@H](O)CC[C@]4(C)[C@H]3CC[C@]12C

>  <Structure_dimension>  (3420) 
2D

$$$$
MS3571
     RDKit          2D

 38 41  0  0  0  0  0  0  0  0999 V2000
   -3.6242   -4.2742    0.0000 C   0  0  0  0  0  0  0  0  0  0  0  0
   -2.7435   -3.0599    0.0000 C   0  0  0  0  0  0  0  0  0  0  0  0
   -3.3548   -1.6901    0.0000 C   0  0  0  0  0  0  0  0  0  0  0  0
   -4.8467   -1.5345    0.0000 C   0  0  0  0  0  0  0  0  0  0  0  0
   -5.4579   -0.1647    0.0000 C   0  0  0  0  0  0  0  0  0  0  0  0
   -4.5772    1.0495    0.0000 O   0  0  0  0  0  0  0  0  0  0  0  0
   -6.9498   -0.0092    0.0000 N   0  0  0  0  0  0  0  0  0  0  0  0
   -7.5611    1.3606    0.0000 C   0  0  0  0  0  0  0  0  0  0  0  0
   -9.0530    1.5162    0.0000 C   0  0  0  0  0  0  0  0  0  0  0  0
   -9.6642    2.8860    0.0000 S   0  0  0  0  0  0  0  0  0  0  0  0
  -11.0340    2.2748    0.0000 O   0  0  0  0  0  0  0  0  0  0  0  0
   -8.2944    3.4972    0.0000 O   0  0  0  0  0  0  0  0  0  0  0  0
  -10.2755    4.2558    0.0000 O   0  0  0  0  0  0  0  0  0  0  0  0
   -1.2516   -3.2155    0.0000 C   0  0  0  0  0  0  0  0  0  0  0  0
   -0.5005   -4.5139    0.0000 C   0  0  0  0  0  0  0  0  0  0  0  0
    0.9664   -4.2008    0.0000 C   0  0  0  0  0  0  0  0  0  0  0  0
    1.1220   -2.7089    0.0000 C   0  0  0  0  0  0  0  0  0  0  0  0
    2.3348   -1.8262    0.0000 C   0  0  0  0  0  0  0  0  0  0  0  0
    3.7056   -2.4352    0.0000 C   0  0  0  0  0  0  0  0  0  0  0  0
    3.8636   -3.9268    0.0000 O   0  0  0  0  0  0  0  0  0  0  0  0
    4.9184   -1.5525    0.0000 C   0  0  0  0  0  0  0  0  0  0  0  0
    4.7604   -0.0608    0.0000 C   0  0  0  0  0  0  0  0  0  0  0  0
    5.9732    0.8219    0.0000 C   0  0  0  0  0  0  0  0  0  0  0  0
    5.8151    2.3135    0.0000 C   0  0  0  0  0  0  0  0  0  0  0  0
    7.0279    3.1962    0.0000 O   0  0  0  0  0  0  0  0  0  0  0  0
    8.3987    2.5872    0.0000 S   0  0  0  0  0  0  0  0  0  0  0  0
    7.7898    1.2164    0.0000 O   0  0  0  0  0  0  0  0  0  0  0  0
    9.0077    3.9580    0.0000 O   0  0  0  0  0  0  0  0  0  0  0  0
    9.7696    1.9783    0.0000 O   0  0  0  0  0  0  0  0  0  0  0  0
    4.4443    2.9225    0.0000 C   0  0  0  0  0  0  0  0  0  0  0  0
    3.2315    2.0398    0.0000 C   0  0  0  0  0  0  0  0  0  0  0  0
    3.3895    0.5481    0.0000 C   0  0  0  0  0  0  0  0  0  0  0  0
    2.0187    1.1571    0.0000 C   0  0  0  0  0  0  0  0  0  0  0  0
    2.1767   -0.3345    0.0000 C   0  0  0  0  0  0  0  0  0  0  0  0
    0.8059    0.2744    0.0000 C   0  0  0  0  0  0  0  0  0  0  0  0
   -0.4069   -0.6083    0.0000 C   0  0  0  0  0  0  0  0  0  0  0  0
   -0.2488   -2.0999    0.0000 C   0  0  0  0  0  0  0  0  0  0  0  0
   -1.6758   -1.6376    0.0000 C   0  0  0  0  0  0  0  0  0  0  0  0
  2  1  1  6
  2  3  1  0
  3  4  1  0
  4  5  1  0
  5  6  2  0
  5  7  1  0
  7  8  1  0
  8  9  1  0
  9 10  1  0
 10 11  2  0
 10 12  2  0
 10 13  1  0
  2 14  1  0
 14 15  1  6
 15 16  1  0
 17 16  1  6
 17 18  1  0
 18 19  1  1
 19 20  1  1
 19 21  1  0
 22 21  1  1
 22 23  1  0
 23 24  1  0
 24 25  1  1
 25 26  1  0
 26 27  2  0
 26 28  2  0
 26 29  1  0
 24 30  1  0
 30 31  1  0
 31 32  1  0
 32 33  1  6
 32 34  1  0
 34 35  1  6
 35 36  1  0
 36 37  1  0
 37 38  1  6
 37 14  1  0
 37 17  1  0
 34 18  1  0
 32 22  1  0
M  END
>  <MS_ID>  (3421) 
MS3571

>  <SMILES>  (3421) 
C[C@H](CCC(=O)NCCS(=O)(=O)O)[C@H]1CC[C@H]2[C@@H]3[C@H](O)C[C@@H]4C[C@H](OS(=O)(=O)O)CC[C@]4(C)[C@H]3CC[C@]12C

>  <Structure_dimension>  (3421) 
2D

$$$$
MS3572
     RDKit          2D

 37 40  0  0  0  0  0  0  0  0999 V2000
  -14.4741    2.4122    0.0000 C   0  0  0  0  0  0  0  0  0  0  0  0
  -12.9911    2.6370    0.0000 C   0  0  0  0  0  0  0  0  0  0  0  0
  -12.0548    1.4651    0.0000 C   0  0  0  0  0  0  0  0  0  0  0  0
  -10.5718    1.6899    0.0000 C   0  0  0  0  0  0  0  0  0  0  0  0
   -9.6355    0.5180    0.0000 C   0  0  0  0  0  0  0  0  0  0  0  0
   -8.1525    0.7428    0.0000 C   0  0  0  0  0  0  0  0  0  0  0  0
   -7.2162   -0.4291    0.0000 C   0  0  0  0  0  0  0  0  0  0  0  0
   -5.7332   -0.2043    0.0000 C   0  0  0  0  0  0  0  0  0  0  0  0
   -4.7969   -1.3762    0.0000 O   0  0  0  0  0  0  0  0  0  0  0  0
   -3.3139   -1.1513    0.0000 C   0  0  0  0  0  0  0  0  0  0  0  0
   -2.7671    0.2454    0.0000 O   0  0  0  0  0  0  0  0  0  0  0  0
   -2.3776   -2.3233    0.0000 C   0  0  0  0  0  0  0  0  0  0  0  0
   -0.8946   -2.0984    0.0000 C   0  0  0  0  0  0  0  0  0  0  0  0
    0.0417   -3.2704    0.0000 C   0  0  0  0  0  0  0  0  0  0  0  0
   -0.5051   -4.6672    0.0000 C   0  0  0  0  0  0  0  0  0  0  0  0
    1.5247   -3.0455    0.0000 C   0  0  0  0  0  0  0  0  0  0  0  0
    2.5783   -4.1132    0.0000 C   0  0  0  0  0  0  0  0  0  0  0  0
    3.9193   -3.4411    0.0000 C   0  0  0  0  0  0  0  0  0  0  0  0
    3.6945   -1.9580    0.0000 C   0  0  0  0  0  0  0  0  0  0  0  0
    4.6462   -0.7986    0.0000 C   0  0  0  0  0  0  0  0  0  0  0  0
    6.1261   -1.0430    0.0000 C   0  0  0  0  0  0  0  0  0  0  0  0
    6.6544   -2.4469    0.0000 O   0  0  0  0  0  0  0  0  0  0  0  0
    7.0778    0.1165    0.0000 C   0  0  0  0  0  0  0  0  0  0  0  0
    6.5495    1.5203    0.0000 C   0  0  0  0  0  0  0  0  0  0  0  0
    7.5012    2.6798    0.0000 C   0  0  0  0  0  0  0  0  0  0  0  0
    6.9729    4.0837    0.0000 C   0  0  0  0  0  0  0  0  0  0  0  0
    7.9246    5.2431    0.0000 O   0  0  0  0  0  0  0  0  0  0  0  0
    5.4929    4.3281    0.0000 C   0  0  0  0  0  0  0  0  0  0  0  0
    4.5413    3.1687    0.0000 C   0  0  0  0  0  0  0  0  0  0  0  0
    5.0695    1.7648    0.0000 C   0  0  0  0  0  0  0  0  0  0  0  0
    3.5896    2.0092    0.0000 C   0  0  0  0  0  0  0  0  0  0  0  0
    4.1179    0.6053    0.0000 C   0  0  0  0  0  0  0  0  0  0  0  0
    2.6379    0.8498    0.0000 C   0  0  0  0  0  0  0  0  0  0  0  0
    1.6863   -0.3097    0.0000 C   0  0  0  0  0  0  0  0  0  0  0  0
    0.2063   -0.0652    0.0000 O   0  0  0  0  0  0  0  0  0  0  0  0
    2.2145   -1.7136    0.0000 C   0  0  0  0  0  0  0  0  0  0  0  0
    0.7171   -1.6251    0.0000 C   0  0  0  0  0  0  0  0  0  0  0  0
  1  2  1  0
  2  3  1  0
  3  4  1  0
  4  5  1  0
  5  6  1  0
  6  7  1  0
  7  8  1  0
  8  9  1  0
  9 10  1  0
 10 11  2  0
 10 12  1  0
 12 13  1  0
 13 14  1  0
 14 15  1  6
 14 16  1  0
 16 17  1  6
 17 18  1  0
 19 18  1  6
 19 20  1  0
 20 21  1  1
 21 22  1  1
 21 23  1  0
 24 23  1  1
 24 25  1  0
 25 26  1  0
 26 27  1  1
 26 28  1  0
 28 29  1  0
 29 30  1  0
 30 31  1  6
 30 32  1  0
 32 33  1  6
 33 34  1  0
 34 35  1  1
 34 36  1  0
 36 37  1  6
 36 16  1  0
 36 19  1  0
 32 20  1  0
 30 24  1  0
M  END
>  <MS_ID>  (3422) 
MS3572

>  <SMILES>  (3422) 
CCCCCCCCOC(=O)CC[C@@H](C)[C@H]1CC[C@H]2[C@@H]3[C@H](O)C[C@@H]4C[C@H](O)CC[C@]4(C)[C@H]3C[C@H](O)[C@]12C

>  <Structure_dimension>  (3422) 
2D

$$$$
MS3574
     RDKit          2D

 29 32  0  0  0  0  0  0  0  0999 V2000
   -5.2401   -2.0328    0.0000 C   0  0  0  0  0  0  0  0  0  0  0  0
   -4.0410   -1.1316    0.0000 C   0  0  0  0  0  0  0  0  0  0  0  0
   -4.2220    0.3575    0.0000 C   0  0  0  0  0  0  0  0  0  0  0  0
   -5.6020    0.9453    0.0000 C   0  0  0  0  0  0  0  0  0  0  0  0
   -5.7830    2.4343    0.0000 C   0  0  0  0  0  0  0  0  0  0  0  0
   -4.5839    3.3355    0.0000 O   0  0  0  0  0  0  0  0  0  0  0  0
   -7.1630    3.0221    0.0000 O   0  0  0  0  0  0  0  0  0  0  0  0
   -2.6610   -1.7194    0.0000 C   0  0  0  0  0  0  0  0  0  0  0  0
   -2.3254   -3.1813    0.0000 C   0  0  0  0  0  0  0  0  0  0  0  0
   -0.8312   -3.3139    0.0000 C   0  0  0  0  0  0  0  0  0  0  0  0
   -0.2434   -1.9339    0.0000 C   0  0  0  0  0  0  0  0  0  0  0  0
    1.1754   -1.4473    0.0000 C   0  0  0  0  0  0  0  0  0  0  0  0
    2.3063   -2.4327    0.0000 C   0  0  0  0  0  0  0  0  0  0  0  0
    2.0183   -3.9048    0.0000 O   0  0  0  0  0  0  0  0  0  0  0  0
    3.7252   -1.9461    0.0000 C   0  0  0  0  0  0  0  0  0  0  0  0
    4.0132   -0.4740    0.0000 C   0  0  0  0  0  0  0  0  0  0  0  0
    5.4321    0.0126    0.0000 C   0  0  0  0  0  0  0  0  0  0  0  0
    5.7201    1.4846    0.0000 C   0  0  0  0  0  0  0  0  0  0  0  0
    7.1390    1.9713    0.0000 O   0  0  0  0  0  0  0  0  0  0  0  0
    4.5892    2.4701    0.0000 C   0  0  0  0  0  0  0  0  0  0  0  0
    3.1704    1.9835    0.0000 C   0  0  0  0  0  0  0  0  0  0  0  0
    2.8823    0.5114    0.0000 C   0  0  0  0  0  0  0  0  0  0  0  0
    1.7515    1.4969    0.0000 C   0  0  0  0  0  0  0  0  0  0  0  0
    2.0395    2.9690    0.0000 O   0  0  0  0  0  0  0  0  0  0  0  0
    1.4635    0.0248    0.0000 C   0  0  0  0  0  0  0  0  0  0  0  0
    0.3326    1.0103    0.0000 C   0  0  0  0  0  0  0  0  0  0  0  0
   -1.0863    0.5237    0.0000 C   0  0  0  0  0  0  0  0  0  0  0  0
   -1.3743   -0.9484    0.0000 C   0  0  0  0  0  0  0  0  0  0  0  0
   -2.6020   -0.0865    0.0000 C   0  0  0  0  0  0  0  0  0  0  0  0
  2  1  1  6
  2  3  1  0
  3  4  1  0
  4  5  1  0
  5  6  2  0
  5  7  1  0
  2  8  1  0
  8  9  1  6
  9 10  1  0
 11 10  1  6
 11 12  1  0
 12 13  1  1
 13 14  1  1
 13 15  1  0
 16 15  1  1
 16 17  1  0
 17 18  1  0
 18 19  1  1
 18 20  1  0
 20 21  1  0
 21 22  1  0
 22 23  1  6
 23 24  1  0
 22 25  1  0
 25 26  1  6
 26 27  1  0
 27 28  1  0
 28 29  1  6
 28  8  1  0
 28 11  1  0
 25 12  1  0
 22 16  1  0
M  END
>  <MS_ID>  (3423) 
MS3574

>  <SMILES>  (3423) 
C[C@H](CCC(=O)O)[C@H]1CC[C@H]2[C@@H]3[C@H](O)C[C@@H]4C[C@H](O)CC[C@]4(CO)[C@H]3CC[C@]12C

>  <Structure_dimension>  (3423) 
2D

$$$$
MS3575
     RDKit          2D

 28 31  0  0  0  0  0  0  0  0999 V2000
   -5.0096   -2.1352    0.0000 C   0  0  0  0  0  0  0  0  0  0  0  0
   -3.8132   -1.2303    0.0000 C   0  0  0  0  0  0  0  0  0  0  0  0
   -3.9987    0.2582    0.0000 C   0  0  0  0  0  0  0  0  0  0  0  0
   -5.3805    0.8418    0.0000 C   0  0  0  0  0  0  0  0  0  0  0  0
   -5.5659    2.3303    0.0000 C   0  0  0  0  0  0  0  0  0  0  0  0
   -4.3695    3.2351    0.0000 O   0  0  0  0  0  0  0  0  0  0  0  0
   -6.9477    2.9140    0.0000 O   0  0  0  0  0  0  0  0  0  0  0  0
   -2.4315   -1.8140    0.0000 C   0  0  0  0  0  0  0  0  0  0  0  0
   -2.0914   -3.2749    0.0000 C   0  0  0  0  0  0  0  0  0  0  0  0
   -0.5969   -3.4030    0.0000 C   0  0  0  0  0  0  0  0  0  0  0  0
   -0.0133   -2.0212    0.0000 C   0  0  0  0  0  0  0  0  0  0  0  0
    1.4041   -1.5304    0.0000 C   0  0  0  0  0  0  0  0  0  0  0  0
    2.5379   -2.5125    0.0000 C   0  0  0  0  0  0  0  0  0  0  0  0
    3.9554   -2.0216    0.0000 C   0  0  0  0  0  0  0  0  0  0  0  0
    4.2390   -0.5487    0.0000 C   0  0  0  0  0  0  0  0  0  0  0  0
    5.6564   -0.0578    0.0000 C   0  0  0  0  0  0  0  0  0  0  0  0
    5.9400    1.4151    0.0000 C   0  0  0  0  0  0  0  0  0  0  0  0
    7.3574    1.9060    0.0000 O   0  0  0  0  0  0  0  0  0  0  0  0
    4.8062    2.3972    0.0000 C   0  0  0  0  0  0  0  0  0  0  0  0
    3.3888    1.9064    0.0000 C   0  0  0  0  0  0  0  0  0  0  0  0
    3.1052    0.4334    0.0000 C   0  0  0  0  0  0  0  0  0  0  0  0
    1.9714    1.4155    0.0000 C   0  0  0  0  0  0  0  0  0  0  0  0
    1.6878   -0.0574    0.0000 C   0  0  0  0  0  0  0  0  0  0  0  0
    0.5540    0.9246    0.0000 C   0  0  0  0  0  0  0  0  0  0  0  0
   -0.8635    0.4338    0.0000 C   0  0  0  0  0  0  0  0  0  0  0  0
   -1.9973    1.4159    0.0000 O   0  0  0  0  0  0  0  0  0  0  0  0
   -1.1471   -1.0392    0.0000 C   0  0  0  0  0  0  0  0  0  0  0  0
   -2.3773   -0.1810    0.0000 C   0  0  0  0  0  0  0  0  0  0  0  0
  2  1  1  6
  2  3  1  0
  3  4  1  0
  4  5  1  0
  5  6  2  0
  5  7  1  0
  2  8  1  0
  8  9  1  6
  9 10  1  0
 11 10  1  6
 11 12  1  0
 12 13  1  1
 13 14  1  0
 15 14  1  6
 15 16  1  0
 16 17  1  0
 17 18  1  6
 17 19  1  0
 19 20  1  0
 20 21  1  0
 21 22  1  6
 21 23  1  0
 23 24  1  6
 24 25  1  0
 25 26  1  6
 25 27  1  0
 27 28  1  6
 27  8  1  0
 27 11  1  0
 23 12  1  0
 21 15  1  0
M  END
>  <MS_ID>  (3424) 
MS3575

>  <SMILES>  (3424) 
C[C@H](CCC(=O)O)[C@H]1CC[C@H]2[C@@H]3CC[C@H]4C[C@@H](O)CC[C@]4(C)[C@H]3C[C@@H](O)[C@]12C

>  <Structure_dimension>  (3424) 
2D

$$$$
MS3576
     RDKit          2D

 29 32  0  0  0  0  0  0  0  0999 V2000
   -5.0303   -2.1373    0.0000 C   0  0  0  0  0  0  0  0  0  0  0  0
   -3.8594   -1.1998    0.0000 C   0  0  0  0  0  0  0  0  0  0  0  0
   -4.0858    0.2830    0.0000 C   0  0  0  0  0  0  0  0  0  0  0  0
   -5.4831    0.8284    0.0000 C   0  0  0  0  0  0  0  0  0  0  0  0
   -5.7095    2.3112    0.0000 C   0  0  0  0  0  0  0  0  0  0  0  0
   -4.5386    3.2487    0.0000 O   0  0  0  0  0  0  0  0  0  0  0  0
   -7.1069    2.8565    0.0000 O   0  0  0  0  0  0  0  0  0  0  0  0
   -2.4620   -1.7451    0.0000 C   0  0  0  0  0  0  0  0  0  0  0  0
   -2.0818   -3.1961    0.0000 C   0  0  0  0  0  0  0  0  0  0  0  0
   -0.5844   -3.2830    0.0000 C   0  0  0  0  0  0  0  0  0  0  0  0
   -0.0390   -1.8856    0.0000 C   0  0  0  0  0  0  0  0  0  0  0  0
    1.3643   -1.3559    0.0000 C   0  0  0  0  0  0  0  0  0  0  0  0
    2.5248   -2.3063    0.0000 C   0  0  0  0  0  0  0  0  0  0  0  0
    2.2819   -3.7865    0.0000 O   0  0  0  0  0  0  0  0  0  0  0  0
    3.9281   -1.7765    0.0000 C   0  0  0  0  0  0  0  0  0  0  0  0
    4.1710   -0.2963    0.0000 C   0  0  0  0  0  0  0  0  0  0  0  0
    5.5743    0.2334    0.0000 C   0  0  0  0  0  0  0  0  0  0  0  0
    5.8172    1.7136    0.0000 C   0  0  0  0  0  0  0  0  0  0  0  0
    7.2205    2.2434    0.0000 O   0  0  0  0  0  0  0  0  0  0  0  0
    4.6568    2.6641    0.0000 C   0  0  0  0  0  0  0  0  0  0  0  0
    3.2534    2.1343    0.0000 C   0  0  0  0  0  0  0  0  0  0  0  0
    3.0105    0.6541    0.0000 C   0  0  0  0  0  0  0  0  0  0  0  0
    1.8501    1.6046    0.0000 C   0  0  0  0  0  0  0  0  0  0  0  0
    1.6072    0.1244    0.0000 C   0  0  0  0  0  0  0  0  0  0  0  0
    0.4467    1.0748    0.0000 C   0  0  0  0  0  0  0  0  0  0  0  0
   -0.9566    0.5450    0.0000 C   0  0  0  0  0  0  0  0  0  0  0  0
   -2.1170    1.4955    0.0000 O   0  0  0  0  0  0  0  0  0  0  0  0
   -1.1995   -0.9352    0.0000 C   0  0  0  0  0  0  0  0  0  0  0  0
   -2.4529   -0.1112    0.0000 C   0  0  0  0  0  0  0  0  0  0  0  0
  2  1  1  6
  2  3  1  0
  3  4  1  0
  4  5  1  0
  5  6  2  0
  5  7  1  0
  2  8  1  0
  8  9  1  6
  9 10  1  0
 11 10  1  6
 11 12  1  0
 12 13  1  1
 13 14  1  6
 13 15  1  0
 16 15  1  6
 16 17  1  0
 17 18  1  0
 18 19  1  1
 18 20  1  0
 20 21  1  0
 21 22  1  0
 22 23  1  6
 22 24  1  0
 24 25  1  6
 25 26  1  0
 26 27  1  6
 26 28  1  0
 28 29  1  6
 28  8  1  0
 28 11  1  0
 24 12  1  0
 22 16  1  0
M  END
>  <MS_ID>  (3425) 
MS3576

>  <SMILES>  (3425) 
C[C@H](CCC(=O)O)[C@H]1CC[C@H]2[C@@H]3[C@@H](O)C[C@H]4C[C@H](O)CC[C@]4(C)[C@H]3C[C@@H](O)[C@]12C

>  <Structure_dimension>  (3425) 
2D

$$$$
MS3577
     RDKit          2D

 36 39  0  0  0  0  0  0  0  0999 V2000
   -3.3651   -3.6853    0.0000 C   0  0  0  0  0  0  0  0  0  0  0  0
   -2.6511   -2.3661    0.0000 C   0  0  0  0  0  0  0  0  0  0  0  0
   -3.4366   -1.0882    0.0000 C   0  0  0  0  0  0  0  0  0  0  0  0
   -4.9360   -1.1295    0.0000 C   0  0  0  0  0  0  0  0  0  0  0  0
   -5.7215    0.1484    0.0000 C   0  0  0  0  0  0  0  0  0  0  0  0
   -5.0076    1.4676    0.0000 O   0  0  0  0  0  0  0  0  0  0  0  0
   -7.2209    0.1071    0.0000 N   0  0  0  0  0  0  0  0  0  0  0  0
   -8.0064    1.3850    0.0000 C   0  0  0  0  0  0  0  0  0  0  0  0
   -9.5059    1.3437    0.0000 C   0  0  0  0  0  0  0  0  0  0  0  0
  -10.2198    0.0245    0.0000 O   0  0  0  0  0  0  0  0  0  0  0  0
  -10.2913    2.6216    0.0000 O   0  0  0  0  0  0  0  0  0  0  0  0
   -1.1517   -2.3248    0.0000 C   0  0  0  0  0  0  0  0  0  0  0  0
   -0.2369   -3.5136    0.0000 C   0  0  0  0  0  0  0  0  0  0  0  0
    1.1763   -3.0110    0.0000 C   0  0  0  0  0  0  0  0  0  0  0  0
    1.1351   -1.5116    0.0000 C   0  0  0  0  0  0  0  0  0  0  0  0
    2.2217   -0.4776    0.0000 C   0  0  0  0  0  0  0  0  0  0  0  0
    3.6605   -0.9016    0.0000 C   0  0  0  0  0  0  0  0  0  0  0  0
    4.0127   -2.3597    0.0000 O   0  0  0  0  0  0  0  0  0  0  0  0
    5.4515   -2.7838    0.0000 S   0  0  0  0  0  0  0  0  0  0  0  0
    5.8755   -1.3450    0.0000 O   0  0  0  0  0  0  0  0  0  0  0  0
    5.0274   -4.2226    0.0000 O   0  0  0  0  0  0  0  0  0  0  0  0
    6.8903   -3.2079    0.0000 O   0  0  0  0  0  0  0  0  0  0  0  0
    4.7472    0.1324    0.0000 C   0  0  0  0  0  0  0  0  0  0  0  0
    4.3950    1.5904    0.0000 C   0  0  0  0  0  0  0  0  0  0  0  0
    5.4817    2.6244    0.0000 C   0  0  0  0  0  0  0  0  0  0  0  0
    5.1296    4.0825    0.0000 C   0  0  0  0  0  0  0  0  0  0  0  0
    6.2162    5.1165    0.0000 O   0  0  0  0  0  0  0  0  0  0  0  0
    3.6908    4.5066    0.0000 C   0  0  0  0  0  0  0  0  0  0  0  0
    2.6041    3.4726    0.0000 C   0  0  0  0  0  0  0  0  0  0  0  0
    2.9562    2.0145    0.0000 C   0  0  0  0  0  0  0  0  0  0  0  0
    1.5174    2.4386    0.0000 C   0  0  0  0  0  0  0  0  0  0  0  0
    1.8696    0.9805    0.0000 C   0  0  0  0  0  0  0  0  0  0  0  0
    0.4308    1.4046    0.0000 C   0  0  0  0  0  0  0  0  0  0  0  0
   -0.6559    0.3706    0.0000 C   0  0  0  0  0  0  0  0  0  0  0  0
   -0.3038   -1.0875    0.0000 C   0  0  0  0  0  0  0  0  0  0  0  0
   -1.7790   -0.8161    0.0000 C   0  0  0  0  0  0  0  0  0  0  0  0
  2  1  1  6
  2  3  1  0
  3  4  1  0
  4  5  1  0
  5  6  2  0
  5  7  1  0
  7  8  1  0
  8  9  1  0
  9 10  2  0
  9 11  1  0
  2 12  1  0
 12 13  1  6
 13 14  1  0
 15 14  1  6
 15 16  1  0
 16 17  1  1
 17 18  1  6
 18 19  1  0
 19 20  2  0
 19 21  2  0
 19 22  1  0
 17 23  1  0
 24 23  1  1
 24 25  1  0
 25 26  1  0
 26 27  1  1
 26 28  1  0
 28 29  1  0
 29 30  1  0
 30 31  1  6
 30 32  1  0
 32 33  1  6
 33 34  1  0
 34 35  1  0
 35 36  1  6
 35 12  1  0
 35 15  1  0
 32 16  1  0
 30 24  1  0
M  END
>  <MS_ID>  (3426) 
MS3577

>  <SMILES>  (3426) 
C[C@H](CCC(=O)NCC(=O)O)[C@H]1CC[C@H]2[C@@H]3[C@@H](OS(=O)(=O)O)C[C@@H]4C[C@H](O)CC[C@]4(C)[C@H]3CC[C@]12C

>  <Structure_dimension>  (3426) 
2D

$$$$
MS3579
     RDKit          2D

 29 32  0  0  0  0  0  0  0  0999 V2000
   -5.0926   -2.2535    0.0000 C   0  0  0  0  0  0  0  0  0  0  0  0
   -3.9364   -1.2979    0.0000 C   0  0  0  0  0  0  0  0  0  0  0  0
   -4.1859    0.1812    0.0000 C   0  0  0  0  0  0  0  0  0  0  0  0
   -5.5916    0.7047    0.0000 C   0  0  0  0  0  0  0  0  0  0  0  0
   -5.8411    2.1838    0.0000 C   0  0  0  0  0  0  0  0  0  0  0  0
   -4.6849    3.1394    0.0000 O   0  0  0  0  0  0  0  0  0  0  0  0
   -7.2468    2.7072    0.0000 O   0  0  0  0  0  0  0  0  0  0  0  0
   -2.5307   -1.8214    0.0000 C   0  0  0  0  0  0  0  0  0  0  0  0
   -2.1279   -3.2663    0.0000 C   0  0  0  0  0  0  0  0  0  0  0  0
   -0.6293   -3.3297    0.0000 C   0  0  0  0  0  0  0  0  0  0  0  0
   -0.1058   -1.9240    0.0000 C   0  0  0  0  0  0  0  0  0  0  0  0
    1.2891   -1.3724    0.0000 C   0  0  0  0  0  0  0  0  0  0  0  0
    2.4642   -2.3047    0.0000 C   0  0  0  0  0  0  0  0  0  0  0  0
    3.8591   -1.7531    0.0000 C   0  0  0  0  0  0  0  0  0  0  0  0
    5.0343   -2.6853    0.0000 O   0  0  0  0  0  0  0  0  0  0  0  0
    4.0789   -0.2693    0.0000 C   0  0  0  0  0  0  0  0  0  0  0  0
    5.4738    0.2823    0.0000 C   0  0  0  0  0  0  0  0  0  0  0  0
    5.6936    1.7661    0.0000 C   0  0  0  0  0  0  0  0  0  0  0  0
    7.0885    2.3177    0.0000 O   0  0  0  0  0  0  0  0  0  0  0  0
    4.5184    2.6984    0.0000 C   0  0  0  0  0  0  0  0  0  0  0  0
    3.1235    2.1468    0.0000 C   0  0  0  0  0  0  0  0  0  0  0  0
    2.9038    0.6630    0.0000 C   0  0  0  0  0  0  0  0  0  0  0  0
    1.7286    1.5952    0.0000 C   0  0  0  0  0  0  0  0  0  0  0  0
    1.5089    0.1114    0.0000 C   0  0  0  0  0  0  0  0  0  0  0  0
    0.3337    1.0436    0.0000 C   0  0  0  0  0  0  0  0  0  0  0  0
   -1.0612    0.4920    0.0000 C   0  0  0  0  0  0  0  0  0  0  0  0
   -2.2363    1.4242    0.0000 O   0  0  0  0  0  0  0  0  0  0  0  0
   -1.2809   -0.9918    0.0000 C   0  0  0  0  0  0  0  0  0  0  0  0
   -2.5471   -0.1875    0.0000 C   0  0  0  0  0  0  0  0  0  0  0  0
  2  1  1  6
  2  3  1  0
  3  4  1  0
  4  5  1  0
  5  6  2  0
  5  7  1  0
  2  8  1  0
  8  9  1  6
  9 10  1  0
 11 10  1  6
 11 12  1  0
 12 13  1  1
 13 14  1  0
 14 15  1  1
 14 16  1  0
 16 17  1  1
 17 18  1  0
 18 19  1  6
 18 20  1  0
 20 21  1  0
 21 22  1  0
 22 23  1  6
 22 24  1  0
 24 25  1  6
 25 26  1  0
 26 27  1  1
 26 28  1  0
 28 29  1  6
 28  8  1  0
 28 11  1  0
 24 12  1  0
 22 16  1  0
M  END
>  <MS_ID>  (3427) 
MS3579

>  <SMILES>  (3427) 
C[C@H](CCC(=O)O)[C@H]1CC[C@H]2[C@@H]3C[C@H](O)[C@@H]4C[C@@H](O)CC[C@]4(C)[C@H]3C[C@H](O)[C@]12C

>  <Structure_dimension>  (3427) 
2D

$$$$
MS3583
     RDKit          2D

 34 37  0  0  0  0  0  0  0  0999 V2000
   -2.0431   -4.2971    0.0000 C   0  0  0  0  0  0  0  0  0  0  0  0
   -1.3315   -2.9767    0.0000 C   0  0  0  0  0  0  0  0  0  0  0  0
   -2.1193   -1.7002    0.0000 C   0  0  0  0  0  0  0  0  0  0  0  0
   -3.6187   -1.7442    0.0000 C   0  0  0  0  0  0  0  0  0  0  0  0
   -4.4064   -0.4677    0.0000 C   0  0  0  0  0  0  0  0  0  0  0  0
   -3.6948    0.8528    0.0000 O   0  0  0  0  0  0  0  0  0  0  0  0
   -5.9058   -0.5117    0.0000 N   0  0  0  0  0  0  0  0  0  0  0  0
   -6.6936    0.7648    0.0000 C   0  0  0  0  0  0  0  0  0  0  0  0
   -8.1929    0.7208    0.0000 C   0  0  0  0  0  0  0  0  0  0  0  0
   -8.9807    1.9973    0.0000 S   0  0  0  0  0  0  0  0  0  0  0  0
  -10.2572    1.2096    0.0000 O   0  0  0  0  0  0  0  0  0  0  0  0
   -7.7042    2.7851    0.0000 O   0  0  0  0  0  0  0  0  0  0  0  0
   -9.7684    3.2738    0.0000 O   0  0  0  0  0  0  0  0  0  0  0  0
    0.1678   -2.9327    0.0000 C   0  0  0  0  0  0  0  0  0  0  0  0
    1.0847   -4.1198    0.0000 C   0  0  0  0  0  0  0  0  0  0  0  0
    2.4971   -3.6147    0.0000 C   0  0  0  0  0  0  0  0  0  0  0  0
    2.4531   -2.1153    0.0000 C   0  0  0  0  0  0  0  0  0  0  0  0
    3.5379   -1.0794    0.0000 C   0  0  0  0  0  0  0  0  0  0  0  0
    4.9775   -1.5009    0.0000 C   0  0  0  0  0  0  0  0  0  0  0  0
    5.3322   -2.9583    0.0000 O   0  0  0  0  0  0  0  0  0  0  0  0
    6.0623   -0.4649    0.0000 C   0  0  0  0  0  0  0  0  0  0  0  0
    5.7075    0.9925    0.0000 C   0  0  0  0  0  0  0  0  0  0  0  0
    6.7923    2.0285    0.0000 C   0  0  0  0  0  0  0  0  0  0  0  0
    6.4376    3.4859    0.0000 C   0  0  0  0  0  0  0  0  0  0  0  0
    7.5224    4.5219    0.0000 O   0  0  0  0  0  0  0  0  0  0  0  0
    4.9980    3.9074    0.0000 C   0  0  0  0  0  0  0  0  0  0  0  0
    3.9132    2.8715    0.0000 C   0  0  0  0  0  0  0  0  0  0  0  0
    4.2680    1.4140    0.0000 C   0  0  0  0  0  0  0  0  0  0  0  0
    2.8284    1.8355    0.0000 C   0  0  0  0  0  0  0  0  0  0  0  0
    3.1831    0.3781    0.0000 C   0  0  0  0  0  0  0  0  0  0  0  0
    1.7436    0.7996    0.0000 C   0  0  0  0  0  0  0  0  0  0  0  0
    0.6588   -0.2364    0.0000 C   0  0  0  0  0  0  0  0  0  0  0  0
    1.0135   -1.6938    0.0000 C   0  0  0  0  0  0  0  0  0  0  0  0
   -0.4622   -1.4251    0.0000 C   0  0  0  0  0  0  0  0  0  0  0  0
  2  1  1  6
  2  3  1  0
  3  4  1  0
  4  5  1  0
  5  6  2  0
  5  7  1  0
  7  8  1  0
  8  9  1  0
  9 10  1  0
 10 11  2  0
 10 12  2  0
 10 13  1  0
  2 14  1  0
 14 15  1  6
 15 16  1  0
 17 16  1  6
 17 18  1  0
 18 19  1  1
 19 20  1  1
 19 21  1  0
 22 21  1  6
 22 23  1  0
 23 24  1  0
 24 25  1  1
 24 26  1  0
 26 27  1  0
 27 28  1  0
 28 29  1  6
 28 30  1  0
 30 31  1  6
 31 32  1  0
 32 33  1  0
 33 34  1  6
 33 14  1  0
 33 17  1  0
 30 18  1  0
 28 22  1  0
M  END
>  <MS_ID>  (3428) 
MS3583

>  <SMILES>  (3428) 
C[C@H](CCC(=O)NCCS(=O)(=O)O)[C@H]1CC[C@H]2[C@@H]3[C@H](O)C[C@H]4C[C@H](O)CC[C@]4(C)[C@H]3CC[C@]12C

>  <Structure_dimension>  (3428) 
2D

$$$$
MS3584
     RDKit          2D

 35 38  0  0  0  0  0  0  0  0999 V2000
   -2.0200   -4.3028    0.0000 C   0  0  0  0  0  0  0  0  0  0  0  0
   -1.3087   -2.9822    0.0000 C   0  0  0  0  0  0  0  0  0  0  0  0
   -2.0967   -1.7059    0.0000 C   0  0  0  0  0  0  0  0  0  0  0  0
   -3.5960   -1.7502    0.0000 C   0  0  0  0  0  0  0  0  0  0  0  0
   -4.3840   -0.4738    0.0000 C   0  0  0  0  0  0  0  0  0  0  0  0
   -3.6727    0.8468    0.0000 O   0  0  0  0  0  0  0  0  0  0  0  0
   -5.8834   -0.5181    0.0000 N   0  0  0  0  0  0  0  0  0  0  0  0
   -6.6714    0.7582    0.0000 C   0  0  0  0  0  0  0  0  0  0  0  0
   -8.1707    0.7140    0.0000 C   0  0  0  0  0  0  0  0  0  0  0  0
   -8.9588    1.9903    0.0000 S   0  0  0  0  0  0  0  0  0  0  0  0
  -10.2351    1.2023    0.0000 O   0  0  0  0  0  0  0  0  0  0  0  0
   -7.6824    2.7783    0.0000 O   0  0  0  0  0  0  0  0  0  0  0  0
   -9.7468    3.2667    0.0000 O   0  0  0  0  0  0  0  0  0  0  0  0
    0.1907   -2.9379    0.0000 C   0  0  0  0  0  0  0  0  0  0  0  0
    1.1078   -4.1249    0.0000 C   0  0  0  0  0  0  0  0  0  0  0  0
    2.5201   -3.6195    0.0000 C   0  0  0  0  0  0  0  0  0  0  0  0
    2.4758   -2.1201    0.0000 C   0  0  0  0  0  0  0  0  0  0  0  0
    3.5604   -1.0840    0.0000 C   0  0  0  0  0  0  0  0  0  0  0  0
    5.0001   -1.5052    0.0000 C   0  0  0  0  0  0  0  0  0  0  0  0
    5.3551   -2.9626    0.0000 O   0  0  0  0  0  0  0  0  0  0  0  0
    6.0847   -0.4691    0.0000 C   0  0  0  0  0  0  0  0  0  0  0  0
    5.7296    0.9883    0.0000 C   0  0  0  0  0  0  0  0  0  0  0  0
    6.8142    2.0245    0.0000 C   0  0  0  0  0  0  0  0  0  0  0  0
    6.4592    3.4819    0.0000 C   0  0  0  0  0  0  0  0  0  0  0  0
    7.5438    4.5180    0.0000 O   0  0  0  0  0  0  0  0  0  0  0  0
    5.0196    3.9031    0.0000 C   0  0  0  0  0  0  0  0  0  0  0  0
    3.9350    2.8669    0.0000 C   0  0  0  0  0  0  0  0  0  0  0  0
    4.2900    1.4095    0.0000 C   0  0  0  0  0  0  0  0  0  0  0  0
    2.8503    1.8308    0.0000 C   0  0  0  0  0  0  0  0  0  0  0  0
    3.2054    0.3734    0.0000 C   0  0  0  0  0  0  0  0  0  0  0  0
    1.7657    0.7946    0.0000 C   0  0  0  0  0  0  0  0  0  0  0  0
    0.6811   -0.2416    0.0000 C   0  0  0  0  0  0  0  0  0  0  0  0
   -0.7585    0.1797    0.0000 O   0  0  0  0  0  0  0  0  0  0  0  0
    1.0362   -1.6989    0.0000 C   0  0  0  0  0  0  0  0  0  0  0  0
   -0.4396   -1.4305    0.0000 C   0  0  0  0  0  0  0  0  0  0  0  0
  2  1  1  6
  2  3  1  0
  3  4  1  0
  4  5  1  0
  5  6  2  0
  5  7  1  0
  7  8  1  0
  8  9  1  0
  9 10  1  0
 10 11  2  0
 10 12  2  0
 10 13  1  0
  2 14  1  0
 14 15  1  6
 15 16  1  0
 17 16  1  6
 17 18  1  0
 18 19  1  1
 19 20  2  0
 19 21  1  0
 22 21  1  1
 22 23  1  0
 23 24  1  0
 24 25  1  1
 24 26  1  0
 26 27  1  0
 27 28  1  0
 28 29  1  6
 28 30  1  0
 30 31  1  6
 31 32  1  0
 32 33  1  1
 32 34  1  0
 34 35  1  6
 34 14  1  0
 34 17  1  0
 30 18  1  0
 28 22  1  0
M  END
>  <MS_ID>  (3429) 
MS3584

>  <SMILES>  (3429) 
C[C@H](CCC(=O)NCCS(=O)(=O)O)[C@H]1CC[C@H]2[C@@H]3C(=O)C[C@@H]4C[C@H](O)CC[C@]4(C)[C@H]3C[C@H](O)[C@]12C

>  <Structure_dimension>  (3429) 
2D

$$$$
MS3585
     RDKit          2D

 30 33  0  0  0  0  0  0  0  0999 V2000
    5.3223    1.9557    0.0000 C   0  0  0  0  0  0  0  0  0  0  0  0
    4.0965    1.0911    0.0000 C   0  0  0  0  0  0  0  0  0  0  0  0
    4.2324   -0.4028    0.0000 C   0  0  0  0  0  0  0  0  0  0  0  0
    5.5941   -1.0320    0.0000 C   0  0  0  0  0  0  0  0  0  0  0  0
    5.7300   -2.5258    0.0000 C   0  0  0  0  0  0  0  0  0  0  0  0
    4.5043   -3.3904    0.0000 O   0  0  0  0  0  0  0  0  0  0  0  0
    7.0916   -3.1550    0.0000 O   0  0  0  0  0  0  0  0  0  0  0  0
    2.7349    1.7203    0.0000 C   0  0  0  0  0  0  0  0  0  0  0  0
    2.4436    3.1917    0.0000 C   0  0  0  0  0  0  0  0  0  0  0  0
    0.9541    3.3694    0.0000 C   0  0  0  0  0  0  0  0  0  0  0  0
    0.3249    2.0077    0.0000 C   0  0  0  0  0  0  0  0  0  0  0  0
   -1.1080    1.5642    0.0000 C   0  0  0  0  0  0  0  0  0  0  0  0
   -2.2086    2.5834    0.0000 C   0  0  0  0  0  0  0  0  0  0  0  0
   -1.8762    4.0461    0.0000 O   0  0  0  0  0  0  0  0  0  0  0  0
   -3.6415    2.1399    0.0000 C   0  0  0  0  0  0  0  0  0  0  0  0
   -3.9739    0.6772    0.0000 C   0  0  0  0  0  0  0  0  0  0  0  0
   -5.4068    0.2336    0.0000 C   0  0  0  0  0  0  0  0  0  0  0  0
   -5.7392   -1.2291    0.0000 C   0  0  0  0  0  0  0  0  0  0  0  0
   -7.1721   -1.6726    0.0000 O   0  0  0  0  0  0  0  0  0  0  0  0
   -4.6386   -2.2483    0.0000 C   0  0  0  0  0  0  0  0  0  0  0  0
   -4.9710   -3.7110    0.0000 O   0  0  0  0  0  0  0  0  0  0  0  0
   -3.2057   -1.8047    0.0000 C   0  0  0  0  0  0  0  0  0  0  0  0
   -2.8733   -0.3420    0.0000 C   0  0  0  0  0  0  0  0  0  0  0  0
   -1.7727   -1.3612    0.0000 C   0  0  0  0  0  0  0  0  0  0  0  0
   -1.4404    0.1015    0.0000 C   0  0  0  0  0  0  0  0  0  0  0  0
   -0.3398   -0.9177    0.0000 C   0  0  0  0  0  0  0  0  0  0  0  0
    1.0931   -0.4742    0.0000 C   0  0  0  0  0  0  0  0  0  0  0  0
    2.1937   -1.4934    0.0000 O   0  0  0  0  0  0  0  0  0  0  0  0
    1.4255    0.9885    0.0000 C   0  0  0  0  0  0  0  0  0  0  0  0
    2.6266    0.0900    0.0000 C   0  0  0  0  0  0  0  0  0  0  0  0
  2  1  1  6
  2  3  1  0
  3  4  1  0
  4  5  1  0
  5  6  2  0
  5  7  1  0
  2  8  1  0
  8  9  1  6
  9 10  1  0
 11 10  1  6
 11 12  1  0
 12 13  1  1
 13 14  1  1
 13 15  1  0
 16 15  1  6
 16 17  1  0
 17 18  1  0
 18 19  1  1
 18 20  1  0
 20 21  1  6
 20 22  1  0
 22 23  1  0
 23 24  1  6
 23 25  1  0
 25 26  1  6
 26 27  1  0
 27 28  1  1
 27 29  1  0
 29 30  1  6
 29  8  1  0
 29 11  1  0
 25 12  1  0
 23 16  1  0
M  END
>  <MS_ID>  (3430) 
MS3585

>  <SMILES>  (3430) 
C[C@H](CCC(=O)O)[C@H]1CC[C@H]2[C@@H]3[C@H](O)C[C@H]4C[C@H](O)[C@@H](O)C[C@]4(C)[C@H]3C[C@H](O)[C@]12C

>  <Structure_dimension>  (3430) 
2D

$$$$
MS3587
     RDKit          2D

 37 40  0  0  0  0  0  0  0  0999 V2000
   -4.2963   -3.5808    0.0000 C   0  0  0  0  0  0  0  0  0  0  0  0
   -3.5006   -2.3092    0.0000 C   0  0  0  0  0  0  0  0  0  0  0  0
   -4.2040   -0.9844    0.0000 C   0  0  0  0  0  0  0  0  0  0  0  0
   -5.7031   -0.9311    0.0000 C   0  0  0  0  0  0  0  0  0  0  0  0
   -6.4064    0.3938    0.0000 C   0  0  0  0  0  0  0  0  0  0  0  0
   -5.6107    1.6654    0.0000 O   0  0  0  0  0  0  0  0  0  0  0  0
   -7.9055    0.4471    0.0000 O   0  0  0  0  0  0  0  0  0  0  0  0
   -2.0016   -2.3625    0.0000 C   0  0  0  0  0  0  0  0  0  0  0  0
   -1.1636   -3.6066    0.0000 C   0  0  0  0  0  0  0  0  0  0  0  0
    0.2786   -3.1941    0.0000 C   0  0  0  0  0  0  0  0  0  0  0  0
    0.3319   -1.6950    0.0000 C   0  0  0  0  0  0  0  0  0  0  0  0
    1.4815   -0.7316    0.0000 C   0  0  0  0  0  0  0  0  0  0  0  0
    2.8908   -1.2455    0.0000 C   0  0  0  0  0  0  0  0  0  0  0  0
    3.1503   -2.7229    0.0000 O   0  0  0  0  0  0  0  0  0  0  0  0
    4.5595   -3.2368    0.0000 S   0  0  0  0  0  0  0  0  0  0  0  0
    5.0734   -1.8276    0.0000 O   0  0  0  0  0  0  0  0  0  0  0  0
    4.0456   -4.6460    0.0000 O   0  0  0  0  0  0  0  0  0  0  0  0
    5.9687   -3.7507    0.0000 O   0  0  0  0  0  0  0  0  0  0  0  0
    4.0404   -0.2820    0.0000 C   0  0  0  0  0  0  0  0  0  0  0  0
    3.7809    1.1953    0.0000 C   0  0  0  0  0  0  0  0  0  0  0  0
    4.9306    2.1588    0.0000 C   0  0  0  0  0  0  0  0  0  0  0  0
    4.6710    3.6362    0.0000 C   0  0  0  0  0  0  0  0  0  0  0  0
    5.8207    4.5996    0.0000 O   0  0  0  0  0  0  0  0  0  0  0  0
    3.2618    4.1501    0.0000 C   0  0  0  0  0  0  0  0  0  0  0  0
    2.1121    3.1866    0.0000 C   0  0  0  0  0  0  0  0  0  0  0  0
    2.3717    1.7093    0.0000 C   0  0  0  0  0  0  0  0  0  0  0  0
    0.9625    2.2232    0.0000 C   0  0  0  0  0  0  0  0  0  0  0  0
    1.2220    0.7458    0.0000 C   0  0  0  0  0  0  0  0  0  0  0  0
   -0.1872    1.2597    0.0000 C   0  0  0  0  0  0  0  0  0  0  0  0
   -1.3369    0.2963    0.0000 C   0  0  0  0  0  0  0  0  0  0  0  0
   -2.7461    0.8102    0.0000 O   0  0  0  0  0  0  0  0  0  0  0  0
   -3.0056    2.2876    0.0000 S   0  0  0  0  0  0  0  0  0  0  0  0
   -1.5283    2.5471    0.0000 O   0  0  0  0  0  0  0  0  0  0  0  0
   -4.4830    2.0280    0.0000 O   0  0  0  0  0  0  0  0  0  0  0  0
   -3.2652    3.7649    0.0000 O   0  0  0  0  0  0  0  0  0  0  0  0
   -1.0773   -1.1811    0.0000 C   0  0  0  0  0  0  0  0  0  0  0  0
   -2.5326   -0.8173    0.0000 C   0  0  0  0  0  0  0  0  0  0  0  0
  2  1  1  6
  2  3  1  0
  3  4  1  0
  4  5  1  0
  5  6  2  0
  5  7  1  0
  2  8  1  0
  8  9  1  6
  9 10  1  0
 11 10  1  6
 11 12  1  0
 12 13  1  1
 13 14  1  1
 14 15  1  0
 15 16  2  0
 15 17  2  0
 15 18  1  0
 13 19  1  0
 20 19  1  1
 20 21  1  0
 21 22  1  0
 22 23  1  1
 22 24  1  0
 24 25  1  0
 25 26  1  0
 26 27  1  6
 26 28  1  0
 28 29  1  6
 29 30  1  0
 30 31  1  1
 31 32  1  0
 32 33  2  0
 32 34  2  0
 32 35  1  0
 30 36  1  0
 36 37  1  6
 36  8  1  0
 36 11  1  0
 28 12  1  0
 26 20  1  0
M  END
>  <MS_ID>  (3431) 
MS3587

>  <SMILES>  (3431) 
C[C@H](CCC(=O)O)[C@H]1CC[C@H]2[C@@H]3[C@H](OS(=O)(=O)O)C[C@@H]4C[C@H](O)CC[C@]4(C)[C@H]3C[C@H](OS(=O)(=O)O)[C@]12C

>  <Structure_dimension>  (3431) 
2D

$$$$
MS3592
     RDKit          2D

 28 31  0  0  0  0  0  0  0  0999 V2000
   -5.0096   -2.1352    0.0000 C   0  0  0  0  0  0  0  0  0  0  0  0
   -3.8132   -1.2303    0.0000 C   0  0  0  0  0  0  0  0  0  0  0  0
   -3.9987    0.2582    0.0000 C   0  0  0  0  0  0  0  0  0  0  0  0
   -5.3805    0.8418    0.0000 C   0  0  0  0  0  0  0  0  0  0  0  0
   -5.5659    2.3303    0.0000 C   0  0  0  0  0  0  0  0  0  0  0  0
   -4.3695    3.2351    0.0000 O   0  0  0  0  0  0  0  0  0  0  0  0
   -6.9477    2.9140    0.0000 O   0  0  0  0  0  0  0  0  0  0  0  0
   -2.4315   -1.8140    0.0000 C   0  0  0  0  0  0  0  0  0  0  0  0
   -2.0914   -3.2749    0.0000 C   0  0  0  0  0  0  0  0  0  0  0  0
   -0.5969   -3.4030    0.0000 C   0  0  0  0  0  0  0  0  0  0  0  0
   -0.0133   -2.0212    0.0000 C   0  0  0  0  0  0  0  0  0  0  0  0
    1.4041   -1.5304    0.0000 C   0  0  0  0  0  0  0  0  0  0  0  0
    2.5379   -2.5125    0.0000 C   0  0  0  0  0  0  0  0  0  0  0  0
    3.9554   -2.0216    0.0000 C   0  0  0  0  0  0  0  0  0  0  0  0
    4.2390   -0.5487    0.0000 C   0  0  0  0  0  0  0  0  0  0  0  0
    5.6564   -0.0578    0.0000 C   0  0  0  0  0  0  0  0  0  0  0  0
    5.9400    1.4151    0.0000 C   0  0  0  0  0  0  0  0  0  0  0  0
    7.3574    1.9060    0.0000 O   0  0  0  0  0  0  0  0  0  0  0  0
    4.8062    2.3972    0.0000 C   0  0  0  0  0  0  0  0  0  0  0  0
    3.3888    1.9064    0.0000 C   0  0  0  0  0  0  0  0  0  0  0  0
    3.1052    0.4334    0.0000 C   0  0  0  0  0  0  0  0  0  0  0  0
    1.9714    1.4155    0.0000 C   0  0  0  0  0  0  0  0  0  0  0  0
    1.6878   -0.0574    0.0000 C   0  0  0  0  0  0  0  0  0  0  0  0
    0.5540    0.9246    0.0000 C   0  0  0  0  0  0  0  0  0  0  0  0
   -0.8635    0.4338    0.0000 C   0  0  0  0  0  0  0  0  0  0  0  0
   -1.9973    1.4159    0.0000 O   0  0  0  0  0  0  0  0  0  0  0  0
   -1.1471   -1.0392    0.0000 C   0  0  0  0  0  0  0  0  0  0  0  0
   -2.3773   -0.1810    0.0000 C   0  0  0  0  0  0  0  0  0  0  0  0
  2  1  1  6
  2  3  1  0
  3  4  1  0
  4  5  1  0
  5  6  2  0
  5  7  1  0
  2  8  1  0
  8  9  1  6
  9 10  1  0
 11 10  1  6
 11 12  1  0
 12 13  1  1
 13 14  1  0
 15 14  1  6
 15 16  1  0
 16 17  1  0
 17 18  2  0
 17 19  1  0
 19 20  1  0
 20 21  1  0
 21 22  1  6
 21 23  1  0
 23 24  1  6
 24 25  1  0
 25 26  1  1
 25 27  1  0
 27 28  1  6
 27  8  1  0
 27 11  1  0
 23 12  1  0
 21 15  1  0
M  END
>  <MS_ID>  (3432) 
MS3592

>  <SMILES>  (3432) 
C[C@H](CCC(=O)O)[C@H]1CC[C@H]2[C@@H]3CC[C@H]4CC(=O)CC[C@]4(C)[C@H]3C[C@H](O)[C@]12C

>  <Structure_dimension>  (3432) 
2D

$$$$
MS3594
     RDKit          2D

 33 36  0  0  0  0  0  0  0  0999 V2000
   -1.5090   -4.2997    0.0000 C   0  0  0  0  0  0  0  0  0  0  0  0
   -0.8350   -2.9597    0.0000 C   0  0  0  0  0  0  0  0  0  0  0  0
   -1.6586   -1.7060    0.0000 C   0  0  0  0  0  0  0  0  0  0  0  0
   -3.1561   -1.7923    0.0000 C   0  0  0  0  0  0  0  0  0  0  0  0
   -3.9796   -0.5386    0.0000 C   0  0  0  0  0  0  0  0  0  0  0  0
   -3.3056    0.8015    0.0000 O   0  0  0  0  0  0  0  0  0  0  0  0
   -5.4771   -0.6249    0.0000 N   0  0  0  0  0  0  0  0  0  0  0  0
   -6.3006    0.6288    0.0000 C   0  0  0  0  0  0  0  0  0  0  0  0
   -7.7982    0.5425    0.0000 C   0  0  0  0  0  0  0  0  0  0  0  0
   -8.6217    1.7962    0.0000 S   0  0  0  0  0  0  0  0  0  0  0  0
   -9.8754    0.9726    0.0000 O   0  0  0  0  0  0  0  0  0  0  0  0
   -7.3680    2.6197    0.0000 O   0  0  0  0  0  0  0  0  0  0  0  0
   -9.4452    3.0499    0.0000 O   0  0  0  0  0  0  0  0  0  0  0  0
    0.6625   -2.8734    0.0000 C   0  0  0  0  0  0  0  0  0  0  0  0
    1.6125   -4.0341    0.0000 C   0  0  0  0  0  0  0  0  0  0  0  0
    3.0101   -3.4892    0.0000 C   0  0  0  0  0  0  0  0  0  0  0  0
    2.9237   -1.9917    0.0000 C   0  0  0  0  0  0  0  0  0  0  0  0
    3.9788   -0.9255    0.0000 C   0  0  0  0  0  0  0  0  0  0  0  0
    5.4297   -1.3062    0.0000 C   0  0  0  0  0  0  0  0  0  0  0  0
    6.4848   -0.2400    0.0000 C   0  0  0  0  0  0  0  0  0  0  0  0
    6.0890    1.2068    0.0000 C   0  0  0  0  0  0  0  0  0  0  0  0
    7.1441    2.2730    0.0000 C   0  0  0  0  0  0  0  0  0  0  0  0
    6.7483    3.7199    0.0000 C   0  0  0  0  0  0  0  0  0  0  0  0
    5.2974    4.1005    0.0000 C   0  0  0  0  0  0  0  0  0  0  0  0
    4.2423    3.0343    0.0000 C   0  0  0  0  0  0  0  0  0  0  0  0
    4.6381    1.5875    0.0000 C   0  0  0  0  0  0  0  0  0  0  0  0
    3.1872    1.9681    0.0000 C   0  0  0  0  0  0  0  0  0  0  0  0
    3.5830    0.5213    0.0000 C   0  0  0  0  0  0  0  0  0  0  0  0
    2.1321    0.9019    0.0000 C   0  0  0  0  0  0  0  0  0  0  0  0
    1.0770   -0.1643    0.0000 C   0  0  0  0  0  0  0  0  0  0  0  0
   -0.3739    0.2164    0.0000 O   0  0  0  0  0  0  0  0  0  0  0  0
    1.4728   -1.6111    0.0000 C   0  0  0  0  0  0  0  0  0  0  0  0
   -0.0099   -1.3842    0.0000 C   0  0  0  0  0  0  0  0  0  0  0  0
  2  1  1  6
  2  3  1  0
  3  4  1  0
  4  5  1  0
  5  6  2  0
  5  7  1  0
  7  8  1  0
  8  9  1  0
  9 10  1  0
 10 11  2  0
 10 12  2  0
 10 13  1  0
  2 14  1  0
 14 15  1  6
 15 16  1  0
 17 16  1  6
 17 18  1  0
 18 19  1  1
 19 20  1  0
 21 20  1  1
 21 22  1  0
 22 23  1  0
 23 24  1  0
 24 25  1  0
 25 26  1  0
 26 27  1  6
 26 28  1  0
 28 29  1  6
 29 30  1  0
 30 31  1  1
 30 32  1  0
 32 33  1  6
 32 14  1  0
 32 17  1  0
 28 18  1  0
 26 21  1  0
M  END
>  <MS_ID>  (3433) 
MS3594

>  <SMILES>  (3433) 
C[C@H](CCC(=O)NCCS(=O)(=O)O)[C@H]1CC[C@H]2[C@@H]3CC[C@@H]4CCCC[C@]4(C)[C@H]3C[C@H](O)[C@]12C

>  <Structure_dimension>  (3433) 
2D

$$$$
MS3596
     RDKit          2D

 33 36  0  0  0  0  0  0  0  0999 V2000
   -6.2027   -1.9081    0.0000 C   0  0  0  0  0  0  0  0  0  0  0  0
   -4.9792   -1.0402    0.0000 C   0  0  0  0  0  0  0  0  0  0  0  0
   -5.1191    0.4533    0.0000 C   0  0  0  0  0  0  0  0  0  0  0  0
   -6.4825    1.0788    0.0000 C   0  0  0  0  0  0  0  0  0  0  0  0
   -6.6223    2.5723    0.0000 C   0  0  0  0  0  0  0  0  0  0  0  0
   -5.3989    3.4402    0.0000 O   0  0  0  0  0  0  0  0  0  0  0  0
   -7.9857    3.1979    0.0000 O   0  0  0  0  0  0  0  0  0  0  0  0
   -3.6159   -1.6658    0.0000 C   0  0  0  0  0  0  0  0  0  0  0  0
   -3.3207   -3.1364    0.0000 C   0  0  0  0  0  0  0  0  0  0  0  0
   -1.8308   -3.3101    0.0000 C   0  0  0  0  0  0  0  0  0  0  0  0
   -1.2052   -1.9468    0.0000 C   0  0  0  0  0  0  0  0  0  0  0  0
    0.2265   -1.4995    0.0000 C   0  0  0  0  0  0  0  0  0  0  0  0
    1.3298   -2.5157    0.0000 C   0  0  0  0  0  0  0  0  0  0  0  0
    1.0014   -3.9793    0.0000 O   0  0  0  0  0  0  0  0  0  0  0  0
    2.7616   -2.0684    0.0000 C   0  0  0  0  0  0  0  0  0  0  0  0
    3.0900   -0.6048    0.0000 C   0  0  0  0  0  0  0  0  0  0  0  0
    4.5218   -0.1574    0.0000 C   0  0  0  0  0  0  0  0  0  0  0  0
    4.8502    1.3061    0.0000 C   0  0  0  0  0  0  0  0  0  0  0  0
    6.2820    1.7535    0.0000 O   0  0  0  0  0  0  0  0  0  0  0  0
    7.3853    0.7372    0.0000 S   0  0  0  0  0  0  0  0  0  0  0  0
    6.3690   -0.3660    0.0000 O   0  0  0  0  0  0  0  0  0  0  0  0
    8.4015    1.8405    0.0000 O   0  0  0  0  0  0  0  0  0  0  0  0
    8.4885   -0.2790    0.0000 O   0  0  0  0  0  0  0  0  0  0  0  0
    3.7470    2.3224    0.0000 C   0  0  0  0  0  0  0  0  0  0  0  0
    2.3152    1.8751    0.0000 C   0  0  0  0  0  0  0  0  0  0  0  0
    1.9868    0.4115    0.0000 C   0  0  0  0  0  0  0  0  0  0  0  0
    0.8835    1.4277    0.0000 C   0  0  0  0  0  0  0  0  0  0  0  0
    0.5550   -0.0359    0.0000 C   0  0  0  0  0  0  0  0  0  0  0  0
   -0.5483    0.9804    0.0000 C   0  0  0  0  0  0  0  0  0  0  0  0
   -1.9800    0.5330    0.0000 C   0  0  0  0  0  0  0  0  0  0  0  0
   -3.0833    1.5493    0.0000 O   0  0  0  0  0  0  0  0  0  0  0  0
   -2.3085   -0.9305    0.0000 C   0  0  0  0  0  0  0  0  0  0  0  0
   -3.5119   -0.0352    0.0000 C   0  0  0  0  0  0  0  0  0  0  0  0
  2  1  1  6
  2  3  1  0
  3  4  1  0
  4  5  1  0
  5  6  2  0
  5  7  1  0
  2  8  1  0
  8  9  1  6
  9 10  1  0
 11 10  1  6
 11 12  1  0
 12 13  1  1
 13 14  1  1
 13 15  1  0
 16 15  1  1
 16 17  1  0
 17 18  1  0
 18 19  1  1
 19 20  1  0
 20 21  2  0
 20 22  2  0
 20 23  1  0
 18 24  1  0
 24 25  1  0
 25 26  1  0
 26 27  1  6
 26 28  1  0
 28 29  1  6
 29 30  1  0
 30 31  2  0
 30 32  1  0
 32 33  1  6
 32  8  1  0
 32 11  1  0
 28 12  1  0
 26 16  1  0
M  END
>  <MS_ID>  (3434) 
MS3596

>  <SMILES>  (3434) 
C[C@H](CCC(=O)O)[C@H]1CC[C@H]2[C@@H]3[C@H](O)C[C@@H]4C[C@H](OS(=O)(=O)O)CC[C@]4(C)[C@H]3CC(=O)[C@]12C

>  <Structure_dimension>  (3434) 
2D

$$$$
MS3598
     RDKit          2D

 33 36  0  0  0  0  0  0  0  0999 V2000
   -6.3939   -1.8362    0.0000 C   0  0  0  0  0  0  0  0  0  0  0  0
   -5.1799   -0.9553    0.0000 C   0  0  0  0  0  0  0  0  0  0  0  0
   -5.3357    0.5366    0.0000 C   0  0  0  0  0  0  0  0  0  0  0  0
   -6.7057    1.1475    0.0000 C   0  0  0  0  0  0  0  0  0  0  0  0
   -6.8616    2.6394    0.0000 C   0  0  0  0  0  0  0  0  0  0  0  0
   -5.6475    3.5203    0.0000 O   0  0  0  0  0  0  0  0  0  0  0  0
   -8.2315    3.2503    0.0000 O   0  0  0  0  0  0  0  0  0  0  0  0
   -3.8099   -1.5663    0.0000 C   0  0  0  0  0  0  0  0  0  0  0  0
   -3.4990   -3.0337    0.0000 C   0  0  0  0  0  0  0  0  0  0  0  0
   -2.0073   -3.1914    0.0000 C   0  0  0  0  0  0  0  0  0  0  0  0
   -1.3963   -1.8214    0.0000 C   0  0  0  0  0  0  0  0  0  0  0  0
    0.0305   -1.3588    0.0000 C   0  0  0  0  0  0  0  0  0  0  0  0
    1.1446   -2.3632    0.0000 C   0  0  0  0  0  0  0  0  0  0  0  0
    0.8319   -3.8302    0.0000 O   0  0  0  0  0  0  0  0  0  0  0  0
    2.5715   -1.9005    0.0000 C   0  0  0  0  0  0  0  0  0  0  0  0
    3.6856   -2.9049    0.0000 O   0  0  0  0  0  0  0  0  0  0  0  0
    2.8843   -0.4335    0.0000 C   0  0  0  0  0  0  0  0  0  0  0  0
    4.3112    0.0291    0.0000 C   0  0  0  0  0  0  0  0  0  0  0  0
    4.6239    1.4962    0.0000 C   0  0  0  0  0  0  0  0  0  0  0  0
    6.0508    1.9588    0.0000 O   0  0  0  0  0  0  0  0  0  0  0  0
    7.1649    0.9544    0.0000 S   0  0  0  0  0  0  0  0  0  0  0  0
    6.1605   -0.1597    0.0000 O   0  0  0  0  0  0  0  0  0  0  0  0
    8.1693    2.0685    0.0000 O   0  0  0  0  0  0  0  0  0  0  0  0
    8.2790   -0.0499    0.0000 O   0  0  0  0  0  0  0  0  0  0  0  0
    3.5098    2.5006    0.0000 C   0  0  0  0  0  0  0  0  0  0  0  0
    2.0830    2.0379    0.0000 C   0  0  0  0  0  0  0  0  0  0  0  0
    1.7702    0.5709    0.0000 C   0  0  0  0  0  0  0  0  0  0  0  0
    0.6561    1.5753    0.0000 C   0  0  0  0  0  0  0  0  0  0  0  0
    0.3433    0.1082    0.0000 C   0  0  0  0  0  0  0  0  0  0  0  0
   -0.7708    1.1126    0.0000 C   0  0  0  0  0  0  0  0  0  0  0  0
   -2.1976    0.6500    0.0000 C   0  0  0  0  0  0  0  0  0  0  0  0
   -2.5104   -0.8171    0.0000 C   0  0  0  0  0  0  0  0  0  0  0  0
   -3.7234    0.0654    0.0000 C   0  0  0  0  0  0  0  0  0  0  0  0
  2  1  1  6
  2  3  1  0
  3  4  1  0
  4  5  1  0
  5  6  2  0
  5  7  1  0
  2  8  1  0
  8  9  1  6
  9 10  1  0
 11 10  1  6
 11 12  1  0
 12 13  1  1
 13 14  1  6
 13 15  1  0
 15 16  1  1
 15 17  1  0
 17 18  1  1
 18 19  1  0
 19 20  1  1
 20 21  1  0
 21 22  2  0
 21 23  2  0
 21 24  1  0
 19 25  1  0
 25 26  1  0
 26 27  1  0
 27 28  1  6
 27 29  1  0
 29 30  1  6
 30 31  1  0
 31 32  1  0
 32 33  1  6
 32  8  1  0
 32 11  1  0
 29 12  1  0
 27 17  1  0
M  END
>  <MS_ID>  (3435) 
MS3598

>  <SMILES>  (3435) 
C[C@H](CCC(=O)O)[C@H]1CC[C@H]2[C@@H]3[C@@H](O)[C@H](O)[C@@H]4C[C@H](OS(=O)(=O)O)CC[C@]4(C)[C@H]3CC[C@]12C

>  <Structure_dimension>  (3435) 
2D

$$$$
MS3599
     RDKit          2D

 27 30  0  0  0  0  0  0  0  0999 V2000
   -4.6206   -2.3136    0.0000 C   0  0  0  0  0  0  0  0  0  0  0  0
   -3.4741   -1.3464    0.0000 C   0  0  0  0  0  0  0  0  0  0  0  0
   -3.7384    0.1301    0.0000 C   0  0  0  0  0  0  0  0  0  0  0  0
   -5.1493    0.6394    0.0000 C   0  0  0  0  0  0  0  0  0  0  0  0
   -5.4136    2.1160    0.0000 C   0  0  0  0  0  0  0  0  0  0  0  0
   -4.2671    3.0832    0.0000 O   0  0  0  0  0  0  0  0  0  0  0  0
   -6.8245    2.6253    0.0000 O   0  0  0  0  0  0  0  0  0  0  0  0
   -2.0632   -1.8558    0.0000 C   0  0  0  0  0  0  0  0  0  0  0  0
   -1.6459   -3.2966    0.0000 C   0  0  0  0  0  0  0  0  0  0  0  0
   -0.1467   -3.3450    0.0000 C   0  0  0  0  0  0  0  0  0  0  0  0
    0.3626   -1.9341    0.0000 C   0  0  0  0  0  0  0  0  0  0  0  0
    1.7519   -1.3686    0.0000 C   0  0  0  0  0  0  0  0  0  0  0  0
    2.9363   -2.2890    0.0000 C   0  0  0  0  0  0  0  0  0  0  0  0
    4.3256   -1.7234    0.0000 C   0  0  0  0  0  0  0  0  0  0  0  0
    4.5305   -0.2375    0.0000 C   0  0  0  0  0  0  0  0  0  0  0  0
    5.9198    0.3281    0.0000 C   0  0  0  0  0  0  0  0  0  0  0  0
    6.1247    1.8140    0.0000 C   0  0  0  0  0  0  0  0  0  0  0  0
    4.9402    2.7344    0.0000 C   0  0  0  0  0  0  0  0  0  0  0  0
    3.5509    2.1689    0.0000 C   0  0  0  0  0  0  0  0  0  0  0  0
    3.3461    0.6829    0.0000 C   0  0  0  0  0  0  0  0  0  0  0  0
    2.1616    1.6033    0.0000 C   0  0  0  0  0  0  0  0  0  0  0  0
    1.9568    0.1174    0.0000 C   0  0  0  0  0  0  0  0  0  0  0  0
    0.7723    1.0378    0.0000 C   0  0  0  0  0  0  0  0  0  0  0  0
   -0.6170    0.4722    0.0000 C   0  0  0  0  0  0  0  0  0  0  0  0
   -1.8014    1.3926    0.0000 O   0  0  0  0  0  0  0  0  0  0  0  0
   -0.8218   -1.0137    0.0000 C   0  0  0  0  0  0  0  0  0  0  0  0
   -2.0960   -0.2222    0.0000 C   0  0  0  0  0  0  0  0  0  0  0  0
  2  1  1  6
  2  3  1  0
  3  4  1  0
  4  5  1  0
  5  6  2  0
  5  7  1  0
  2  8  1  0
  8  9  1  6
  9 10  1  0
 11 10  1  6
 11 12  1  0
 12 13  1  1
 13 14  1  0
 15 14  1  6
 15 16  1  0
 16 17  1  0
 17 18  1  0
 18 19  1  0
 19 20  1  0
 20 21  1  6
 20 22  1  0
 22 23  1  6
 23 24  1  0
 24 25  1  6
 24 26  1  0
 26 27  1  6
 26  8  1  0
 26 11  1  0
 22 12  1  0
 20 15  1  0
M  END
>  <MS_ID>  (3436) 
MS3599

>  <SMILES>  (3436) 
C[C@H](CCC(=O)O)[C@H]1CC[C@H]2[C@@H]3CC[C@H]4CCCC[C@]4(C)[C@H]3C[C@@H](O)[C@]12C

>  <Structure_dimension>  (3436) 
2D

$$$$
MS3601
     RDKit          2D

 33 36  0  0  0  0  0  0  0  0999 V2000
   -6.2027   -1.9081    0.0000 C   0  0  0  0  0  0  0  0  0  0  0  0
   -4.9792   -1.0402    0.0000 C   0  0  0  0  0  0  0  0  0  0  0  0
   -5.1191    0.4533    0.0000 C   0  0  0  0  0  0  0  0  0  0  0  0
   -6.4825    1.0788    0.0000 C   0  0  0  0  0  0  0  0  0  0  0  0
   -6.6223    2.5723    0.0000 C   0  0  0  0  0  0  0  0  0  0  0  0
   -5.3989    3.4402    0.0000 O   0  0  0  0  0  0  0  0  0  0  0  0
   -7.9857    3.1979    0.0000 O   0  0  0  0  0  0  0  0  0  0  0  0
   -3.6159   -1.6658    0.0000 C   0  0  0  0  0  0  0  0  0  0  0  0
   -3.3207   -3.1364    0.0000 C   0  0  0  0  0  0  0  0  0  0  0  0
   -1.8308   -3.3101    0.0000 C   0  0  0  0  0  0  0  0  0  0  0  0
   -1.2052   -1.9468    0.0000 C   0  0  0  0  0  0  0  0  0  0  0  0
    0.2265   -1.4995    0.0000 C   0  0  0  0  0  0  0  0  0  0  0  0
    1.3298   -2.5157    0.0000 C   0  0  0  0  0  0  0  0  0  0  0  0
    1.0014   -3.9793    0.0000 O   0  0  0  0  0  0  0  0  0  0  0  0
    2.7616   -2.0684    0.0000 C   0  0  0  0  0  0  0  0  0  0  0  0
    3.0900   -0.6048    0.0000 C   0  0  0  0  0  0  0  0  0  0  0  0
    4.5218   -0.1574    0.0000 C   0  0  0  0  0  0  0  0  0  0  0  0
    4.8502    1.3061    0.0000 C   0  0  0  0  0  0  0  0  0  0  0  0
    6.2820    1.7535    0.0000 O   0  0  0  0  0  0  0  0  0  0  0  0
    7.3853    0.7372    0.0000 P   0  0  0  0  0  0  0  0  0  0  0  0
    8.4015    1.8405    0.0000 O   0  0  0  0  0  0  0  0  0  0  0  0
    6.3690   -0.3660    0.0000 O   0  0  0  0  0  0  0  0  0  0  0  0
    8.4885   -0.2790    0.0000 O   0  0  0  0  0  0  0  0  0  0  0  0
    3.7470    2.3224    0.0000 C   0  0  0  0  0  0  0  0  0  0  0  0
    2.3152    1.8751    0.0000 C   0  0  0  0  0  0  0  0  0  0  0  0
    1.9868    0.4115    0.0000 C   0  0  0  0  0  0  0  0  0  0  0  0
    0.8835    1.4277    0.0000 C   0  0  0  0  0  0  0  0  0  0  0  0
    0.5550   -0.0359    0.0000 C   0  0  0  0  0  0  0  0  0  0  0  0
   -0.5483    0.9804    0.0000 C   0  0  0  0  0  0  0  0  0  0  0  0
   -1.9800    0.5330    0.0000 C   0  0  0  0  0  0  0  0  0  0  0  0
   -3.0833    1.5493    0.0000 O   0  0  0  0  0  0  0  0  0  0  0  0
   -2.3085   -0.9305    0.0000 C   0  0  0  0  0  0  0  0  0  0  0  0
   -3.5119   -0.0352    0.0000 C   0  0  0  0  0  0  0  0  0  0  0  0
  2  1  1  6
  2  3  1  0
  3  4  1  0
  4  5  1  0
  5  6  2  0
  5  7  1  0
  2  8  1  0
  8  9  1  6
  9 10  1  0
 11 10  1  6
 11 12  1  0
 12 13  1  1
 13 14  1  1
 13 15  1  0
 16 15  1  1
 16 17  1  0
 17 18  1  0
 18 19  1  1
 19 20  1  0
 20 21  2  0
 20 22  1  0
 20 23  1  0
 18 24  1  0
 24 25  1  0
 25 26  1  0
 26 27  1  6
 26 28  1  0
 28 29  1  6
 29 30  1  0
 30 31  1  1
 30 32  1  0
 32 33  1  6
 32  8  1  0
 32 11  1  0
 28 12  1  0
 26 16  1  0
M  END
>  <MS_ID>  (3437) 
MS3601

>  <SMILES>  (3437) 
C[C@H](CCC(=O)O)[C@H]1CC[C@H]2[C@@H]3[C@H](O)C[C@@H]4C[C@H](OP(=O)(O)O)CC[C@]4(C)[C@H]3C[C@H](O)[C@]12C

>  <Structure_dimension>  (3437) 
2D

$$$$
MS3602
     RDKit          2D

 28 31  0  0  0  0  0  0  0  0999 V2000
   -5.0096   -2.1352    0.0000 C   0  0  0  0  0  0  0  0  0  0  0  0
   -3.8132   -1.2303    0.0000 C   0  0  0  0  0  0  0  0  0  0  0  0
   -3.9987    0.2582    0.0000 C   0  0  0  0  0  0  0  0  0  0  0  0
   -5.3805    0.8418    0.0000 C   0  0  0  0  0  0  0  0  0  0  0  0
   -5.5659    2.3303    0.0000 C   0  0  0  0  0  0  0  0  0  0  0  0
   -4.3695    3.2351    0.0000 O   0  0  0  0  0  0  0  0  0  0  0  0
   -6.9477    2.9140    0.0000 O   0  0  0  0  0  0  0  0  0  0  0  0
   -2.4315   -1.8140    0.0000 C   0  0  0  0  0  0  0  0  0  0  0  0
   -2.0914   -3.2749    0.0000 C   0  0  0  0  0  0  0  0  0  0  0  0
   -0.5969   -3.4030    0.0000 C   0  0  0  0  0  0  0  0  0  0  0  0
   -0.0133   -2.0212    0.0000 C   0  0  0  0  0  0  0  0  0  0  0  0
    1.4041   -1.5304    0.0000 C   0  0  0  0  0  0  0  0  0  0  0  0
    2.5379   -2.5125    0.0000 C   0  0  0  0  0  0  0  0  0  0  0  0
    3.9554   -2.0216    0.0000 C   0  0  0  0  0  0  0  0  0  0  0  0
    4.2390   -0.5487    0.0000 C   0  0  0  0  0  0  0  0  0  0  0  0
    5.6564   -0.0578    0.0000 C   0  0  0  0  0  0  0  0  0  0  0  0
    5.9400    1.4151    0.0000 C   0  0  0  0  0  0  0  0  0  0  0  0
    7.3574    1.9060    0.0000 O   0  0  0  0  0  0  0  0  0  0  0  0
    4.8062    2.3972    0.0000 C   0  0  0  0  0  0  0  0  0  0  0  0
    3.3888    1.9064    0.0000 C   0  0  0  0  0  0  0  0  0  0  0  0
    3.1052    0.4334    0.0000 C   0  0  0  0  0  0  0  0  0  0  0  0
    1.9714    1.4155    0.0000 C   0  0  0  0  0  0  0  0  0  0  0  0
    1.6878   -0.0574    0.0000 C   0  0  0  0  0  0  0  0  0  0  0  0
    0.5540    0.9246    0.0000 C   0  0  0  0  0  0  0  0  0  0  0  0
   -0.8635    0.4338    0.0000 C   0  0  0  0  0  0  0  0  0  0  0  0
   -1.9973    1.4159    0.0000 O   0  0  0  0  0  0  0  0  0  0  0  0
   -1.1471   -1.0392    0.0000 C   0  0  0  0  0  0  0  0  0  0  0  0
   -2.3773   -0.1810    0.0000 C   0  0  0  0  0  0  0  0  0  0  0  0
  2  1  1  6
  2  3  1  0
  3  4  1  0
  4  5  1  0
  5  6  2  0
  5  7  1  0
  2  8  1  0
  8  9  1  6
  9 10  1  0
 11 10  1  6
 11 12  1  0
 12 13  1  1
 13 14  1  0
 15 14  1  6
 15 16  1  0
 16 17  1  0
 17 18  1  1
 17 19  1  0
 19 20  1  0
 20 21  1  0
 21 22  1  6
 21 23  1  0
 23 24  1  6
 24 25  1  0
 25 26  2  0
 25 27  1  0
 27 28  1  6
 27  8  1  0
 27 11  1  0
 23 12  1  0
 21 15  1  0
M  END
>  <MS_ID>  (3438) 
MS3602

>  <SMILES>  (3438) 
C[C@H](CCC(=O)O)[C@H]1CC[C@H]2[C@@H]3CC[C@H]4C[C@H](O)CC[C@]4(C)[C@H]3CC(=O)[C@]12C

>  <Structure_dimension>  (3438) 
2D

$$$$
MS3603
     RDKit          2D

 33 36  0  0  0  0  0  0  0  0999 V2000
   -6.3939   -1.8362    0.0000 C   0  0  0  0  0  0  0  0  0  0  0  0
   -5.1799   -0.9553    0.0000 C   0  0  0  0  0  0  0  0  0  0  0  0
   -5.3357    0.5366    0.0000 C   0  0  0  0  0  0  0  0  0  0  0  0
   -6.7057    1.1475    0.0000 C   0  0  0  0  0  0  0  0  0  0  0  0
   -6.8616    2.6394    0.0000 C   0  0  0  0  0  0  0  0  0  0  0  0
   -5.6475    3.5203    0.0000 O   0  0  0  0  0  0  0  0  0  0  0  0
   -8.2315    3.2503    0.0000 O   0  0  0  0  0  0  0  0  0  0  0  0
   -3.8099   -1.5663    0.0000 C   0  0  0  0  0  0  0  0  0  0  0  0
   -3.4990   -3.0337    0.0000 C   0  0  0  0  0  0  0  0  0  0  0  0
   -2.0073   -3.1914    0.0000 C   0  0  0  0  0  0  0  0  0  0  0  0
   -1.3963   -1.8214    0.0000 C   0  0  0  0  0  0  0  0  0  0  0  0
    0.0305   -1.3588    0.0000 C   0  0  0  0  0  0  0  0  0  0  0  0
    1.1446   -2.3632    0.0000 C   0  0  0  0  0  0  0  0  0  0  0  0
    0.8319   -3.8302    0.0000 O   0  0  0  0  0  0  0  0  0  0  0  0
    2.5715   -1.9005    0.0000 C   0  0  0  0  0  0  0  0  0  0  0  0
    3.6856   -2.9049    0.0000 O   0  0  0  0  0  0  0  0  0  0  0  0
    2.8843   -0.4335    0.0000 C   0  0  0  0  0  0  0  0  0  0  0  0
    4.3112    0.0291    0.0000 C   0  0  0  0  0  0  0  0  0  0  0  0
    4.6239    1.4962    0.0000 C   0  0  0  0  0  0  0  0  0  0  0  0
    6.0508    1.9588    0.0000 O   0  0  0  0  0  0  0  0  0  0  0  0
    7.1649    0.9544    0.0000 S   0  0  0  0  0  0  0  0  0  0  0  0
    6.1605   -0.1597    0.0000 O   0  0  0  0  0  0  0  0  0  0  0  0
    8.1693    2.0685    0.0000 O   0  0  0  0  0  0  0  0  0  0  0  0
    8.2790   -0.0499    0.0000 O   0  0  0  0  0  0  0  0  0  0  0  0
    3.5098    2.5006    0.0000 C   0  0  0  0  0  0  0  0  0  0  0  0
    2.0830    2.0379    0.0000 C   0  0  0  0  0  0  0  0  0  0  0  0
    1.7702    0.5709    0.0000 C   0  0  0  0  0  0  0  0  0  0  0  0
    0.6561    1.5753    0.0000 C   0  0  0  0  0  0  0  0  0  0  0  0
    0.3433    0.1082    0.0000 C   0  0  0  0  0  0  0  0  0  0  0  0
   -0.7708    1.1126    0.0000 C   0  0  0  0  0  0  0  0  0  0  0  0
   -2.1976    0.6500    0.0000 C   0  0  0  0  0  0  0  0  0  0  0  0
   -2.5104   -0.8171    0.0000 C   0  0  0  0  0  0  0  0  0  0  0  0
   -3.7234    0.0654    0.0000 C   0  0  0  0  0  0  0  0  0  0  0  0
  2  1  1  6
  2  3  1  0
  3  4  1  0
  4  5  1  0
  5  6  2  0
  5  7  1  0
  2  8  1  0
  8  9  1  6
  9 10  1  0
 11 10  1  6
 11 12  1  0
 12 13  1  1
 13 14  1  1
 13 15  1  0
 15 16  1  6
 15 17  1  0
 17 18  1  1
 18 19  1  0
 19 20  1  1
 20 21  1  0
 21 22  2  0
 21 23  2  0
 21 24  1  0
 19 25  1  0
 25 26  1  0
 26 27  1  0
 27 28  1  6
 27 29  1  0
 29 30  1  6
 30 31  1  0
 31 32  1  0
 32 33  1  6
 32  8  1  0
 32 11  1  0
 29 12  1  0
 27 17  1  0
M  END
>  <MS_ID>  (3439) 
MS3603

>  <SMILES>  (3439) 
C[C@H](CCC(=O)O)[C@H]1CC[C@H]2[C@@H]3[C@H](O)[C@@H](O)[C@@H]4C[C@H](OS(=O)(=O)O)CC[C@]4(C)[C@H]3CC[C@]12C

>  <Structure_dimension>  (3439) 
2D

$$$$
MS3604
     RDKit          2D

 30 33  0  0  0  0  0  0  0  0999 V2000
   -5.1134   -2.2540    0.0000 C   0  0  0  0  0  0  0  0  0  0  0  0
   -3.9811   -1.2701    0.0000 C   0  0  0  0  0  0  0  0  0  0  0  0
   -4.2670    0.2024    0.0000 C   0  0  0  0  0  0  0  0  0  0  0  0
   -5.6852    0.6910    0.0000 C   0  0  0  0  0  0  0  0  0  0  0  0
   -5.9711    2.1635    0.0000 C   0  0  0  0  0  0  0  0  0  0  0  0
   -4.8388    3.1474    0.0000 O   0  0  0  0  0  0  0  0  0  0  0  0
   -7.3892    2.6522    0.0000 O   0  0  0  0  0  0  0  0  0  0  0  0
   -2.5629   -1.7588    0.0000 C   0  0  0  0  0  0  0  0  0  0  0  0
   -2.1247   -3.1933    0.0000 C   0  0  0  0  0  0  0  0  0  0  0  0
   -0.6249   -3.2198    0.0000 C   0  0  0  0  0  0  0  0  0  0  0  0
   -0.1362   -1.8017    0.0000 C   0  0  0  0  0  0  0  0  0  0  0  0
    1.2446   -1.2159    0.0000 C   0  0  0  0  0  0  0  0  0  0  0  0
    2.4424   -2.1188    0.0000 C   0  0  0  0  0  0  0  0  0  0  0  0
    2.2593   -3.6076    0.0000 O   0  0  0  0  0  0  0  0  0  0  0  0
    3.8233   -1.5330    0.0000 C   0  0  0  0  0  0  0  0  0  0  0  0
    5.0210   -2.4360    0.0000 O   0  0  0  0  0  0  0  0  0  0  0  0
    4.0064   -0.0442    0.0000 C   0  0  0  0  0  0  0  0  0  0  0  0
    5.3873    0.5416    0.0000 C   0  0  0  0  0  0  0  0  0  0  0  0
    5.5704    2.0303    0.0000 C   0  0  0  0  0  0  0  0  0  0  0  0
    6.9513    2.6161    0.0000 O   0  0  0  0  0  0  0  0  0  0  0  0
    4.3726    2.9333    0.0000 C   0  0  0  0  0  0  0  0  0  0  0  0
    2.9918    2.3475    0.0000 C   0  0  0  0  0  0  0  0  0  0  0  0
    2.8086    0.8587    0.0000 C   0  0  0  0  0  0  0  0  0  0  0  0
    1.6109    1.7617    0.0000 C   0  0  0  0  0  0  0  0  0  0  0  0
    1.4278    0.2729    0.0000 C   0  0  0  0  0  0  0  0  0  0  0  0
    0.2300    1.1759    0.0000 C   0  0  0  0  0  0  0  0  0  0  0  0
   -1.1509    0.5901    0.0000 C   0  0  0  0  0  0  0  0  0  0  0  0
   -2.3486    1.4931    0.0000 O   0  0  0  0  0  0  0  0  0  0  0  0
   -1.3340   -0.8987    0.0000 C   0  0  0  0  0  0  0  0  0  0  0  0
   -2.6196   -0.1258    0.0000 C   0  0  0  0  0  0  0  0  0  0  0  0
  2  1  1  6
  2  3  1  0
  3  4  1  0
  4  5  1  0
  5  6  2  0
  5  7  1  0
  2  8  1  0
  8  9  1  6
  9 10  1  0
 11 10  1  6
 11 12  1  0
 12 13  1  1
 13 14  1  1
 13 15  1  0
 15 16  1  1
 15 17  1  0
 17 18  1  1
 18 19  1  0
 19 20  1  1
 19 21  1  0
 21 22  1  0
 22 23  1  0
 23 24  1  6
 23 25  1  0
 25 26  1  6
 26 27  1  0
 27 28  1  1
 27 29  1  0
 29 30  1  6
 29  8  1  0
 29 11  1  0
 25 12  1  0
 23 17  1  0
M  END
>  <MS_ID>  (3440) 
MS3604

>  <SMILES>  (3440) 
C[C@H](CCC(=O)O)[C@H]1CC[C@H]2[C@@H]3[C@H](O)[C@H](O)[C@@H]4C[C@H](O)CC[C@]4(C)[C@H]3C[C@H](O)[C@]12C

>  <Structure_dimension>  (3440) 
2D

$$$$
MS3605
     RDKit          2D

 28 31  0  0  0  0  0  0  0  0999 V2000
   -5.1275   -2.0302    0.0000 C   0  0  0  0  0  0  0  0  0  0  0  0
   -3.9468   -1.1050    0.0000 C   0  0  0  0  0  0  0  0  0  0  0  0
   -4.1576    0.3801    0.0000 C   0  0  0  0  0  0  0  0  0  0  0  0
   -5.5492    0.9401    0.0000 C   0  0  0  0  0  0  0  0  0  0  0  0
   -5.7600    2.4252    0.0000 C   0  0  0  0  0  0  0  0  0  0  0  0
   -4.5793    3.3503    0.0000 O   0  0  0  0  0  0  0  0  0  0  0  0
   -7.1516    2.9851    0.0000 O   0  0  0  0  0  0  0  0  0  0  0  0
   -2.5552   -1.6650    0.0000 C   0  0  0  0  0  0  0  0  0  0  0  0
   -2.1903   -3.1199    0.0000 C   0  0  0  0  0  0  0  0  0  0  0  0
   -0.6938   -3.2225    0.0000 C   0  0  0  0  0  0  0  0  0  0  0  0
   -0.1339   -1.8309    0.0000 C   0  0  0  0  0  0  0  0  0  0  0  0
    1.2750   -1.3159    0.0000 C   0  0  0  0  0  0  0  0  0  0  0  0
    2.4254   -2.2785    0.0000 C   0  0  0  0  0  0  0  0  0  0  0  0
    2.1670   -3.7560    0.0000 O   0  0  0  0  0  0  0  0  0  0  0  0
    3.8342   -1.7635    0.0000 C   0  0  0  0  0  0  0  0  0  0  0  0
    4.0926   -0.2859    0.0000 C   0  0  0  0  0  0  0  0  0  0  0  0
    5.5014    0.2291    0.0000 C   0  0  0  0  0  0  0  0  0  0  0  0
    5.7598    1.7067    0.0000 C   0  0  0  0  0  0  0  0  0  0  0  0
    7.1687    2.2217    0.0000 O   0  0  0  0  0  0  0  0  0  0  0  0
    4.6094    2.6692    0.0000 C   0  0  0  0  0  0  0  0  0  0  0  0
    3.2006    2.1542    0.0000 C   0  0  0  0  0  0  0  0  0  0  0  0
    2.9422    0.6767    0.0000 C   0  0  0  0  0  0  0  0  0  0  0  0
    1.7918    1.6392    0.0000 C   0  0  0  0  0  0  0  0  0  0  0  0
    1.5334    0.1617    0.0000 C   0  0  0  0  0  0  0  0  0  0  0  0
    0.3830    1.1242    0.0000 C   0  0  0  0  0  0  0  0  0  0  0  0
   -1.0259    0.6093    0.0000 C   0  0  0  0  0  0  0  0  0  0  0  0
   -1.2843   -0.8683    0.0000 C   0  0  0  0  0  0  0  0  0  0  0  0
   -2.5290   -0.0313    0.0000 C   0  0  0  0  0  0  0  0  0  0  0  0
  2  1  1  6
  2  3  1  0
  3  4  1  0
  4  5  1  0
  5  6  2  0
  5  7  1  0
  2  8  1  0
  8  9  1  6
  9 10  1  0
 11 10  1  6
 11 12  1  0
 12 13  1  1
 13 14  1  6
 13 15  1  0
 16 15  1  6
 16 17  1  0
 17 18  1  0
 18 19  1  6
 18 20  1  0
 20 21  1  0
 21 22  1  0
 22 23  1  6
 22 24  1  0
 24 25  1  6
 25 26  1  0
 26 27  1  0
 27 28  1  6
 27  8  1  0
 27 11  1  0
 24 12  1  0
 22 16  1  0
M  END
>  <MS_ID>  (3441) 
MS3605

>  <SMILES>  (3441) 
C[C@H](CCC(=O)O)[C@H]1CC[C@H]2[C@@H]3[C@@H](O)C[C@H]4C[C@@H](O)CC[C@]4(C)[C@H]3CC[C@]12C

>  <Structure_dimension>  (3441) 
2D

$$$$
MS3606
     RDKit          2D

 29 32  0  0  0  0  0  0  0  0999 V2000
   -5.0303   -2.1373    0.0000 C   0  0  0  0  0  0  0  0  0  0  0  0
   -3.8594   -1.1998    0.0000 C   0  0  0  0  0  0  0  0  0  0  0  0
   -4.0858    0.2830    0.0000 C   0  0  0  0  0  0  0  0  0  0  0  0
   -5.4831    0.8284    0.0000 C   0  0  0  0  0  0  0  0  0  0  0  0
   -5.7095    2.3112    0.0000 C   0  0  0  0  0  0  0  0  0  0  0  0
   -4.5386    3.2487    0.0000 O   0  0  0  0  0  0  0  0  0  0  0  0
   -7.1069    2.8565    0.0000 O   0  0  0  0  0  0  0  0  0  0  0  0
   -2.4620   -1.7451    0.0000 C   0  0  0  0  0  0  0  0  0  0  0  0
   -2.0818   -3.1961    0.0000 C   0  0  0  0  0  0  0  0  0  0  0  0
   -0.5844   -3.2830    0.0000 C   0  0  0  0  0  0  0  0  0  0  0  0
   -0.0390   -1.8856    0.0000 C   0  0  0  0  0  0  0  0  0  0  0  0
    1.3643   -1.3559    0.0000 C   0  0  0  0  0  0  0  0  0  0  0  0
    2.5248   -2.3063    0.0000 C   0  0  0  0  0  0  0  0  0  0  0  0
    2.2819   -3.7865    0.0000 O   0  0  0  0  0  0  0  0  0  0  0  0
    3.9281   -1.7765    0.0000 C   0  0  0  0  0  0  0  0  0  0  0  0
    4.1710   -0.2963    0.0000 C   0  0  0  0  0  0  0  0  0  0  0  0
    5.5743    0.2334    0.0000 C   0  0  0  0  0  0  0  0  0  0  0  0
    5.8172    1.7136    0.0000 C   0  0  0  0  0  0  0  0  0  0  0  0
    7.2205    2.2434    0.0000 O   0  0  0  0  0  0  0  0  0  0  0  0
    4.6568    2.6641    0.0000 C   0  0  0  0  0  0  0  0  0  0  0  0
    3.2534    2.1343    0.0000 C   0  0  0  0  0  0  0  0  0  0  0  0
    3.0105    0.6541    0.0000 C   0  0  0  0  0  0  0  0  0  0  0  0
    1.8501    1.6046    0.0000 C   0  0  0  0  0  0  0  0  0  0  0  0
    1.6072    0.1244    0.0000 C   0  0  0  0  0  0  0  0  0  0  0  0
    0.4467    1.0748    0.0000 C   0  0  0  0  0  0  0  0  0  0  0  0
   -0.9566    0.5450    0.0000 C   0  0  0  0  0  0  0  0  0  0  0  0
   -2.1170    1.4955    0.0000 O   0  0  0  0  0  0  0  0  0  0  0  0
   -1.1995   -0.9352    0.0000 C   0  0  0  0  0  0  0  0  0  0  0  0
   -2.4529   -0.1112    0.0000 C   0  0  0  0  0  0  0  0  0  0  0  0
  2  1  1  6
  2  3  1  0
  3  4  1  0
  4  5  1  0
  5  6  2  0
  5  7  1  0
  2  8  1  0
  8  9  1  6
  9 10  1  0
 11 10  1  6
 11 12  1  0
 12 13  1  1
 13 14  1  1
 13 15  1  0
 16 15  1  6
 16 17  1  0
 17 18  1  0
 18 19  1  1
 18 20  1  0
 20 21  1  0
 21 22  1  0
 22 23  1  6
 22 24  1  0
 24 25  1  6
 25 26  1  0
 26 27  1  6
 26 28  1  0
 28 29  1  6
 28  8  1  0
 28 11  1  0
 24 12  1  0
 22 16  1  0
M  END
>  <MS_ID>  (3442) 
MS3606

>  <SMILES>  (3442) 
C[C@H](CCC(=O)O)[C@H]1CC[C@H]2[C@@H]3[C@H](O)C[C@H]4C[C@H](O)CC[C@]4(C)[C@H]3C[C@@H](O)[C@]12C

>  <Structure_dimension>  (3442) 
2D

$$$$
MS3608
     RDKit          2D

 29 32  0  0  0  0  0  0  0  0999 V2000
   -5.1301   -2.1349    0.0000 C   0  0  0  0  0  0  0  0  0  0  0  0
   -3.9163   -1.2536    0.0000 C   0  0  0  0  0  0  0  0  0  0  0  0
   -4.0726    0.2382    0.0000 C   0  0  0  0  0  0  0  0  0  0  0  0
   -5.4427    0.8488    0.0000 C   0  0  0  0  0  0  0  0  0  0  0  0
   -5.5990    2.3406    0.0000 C   0  0  0  0  0  0  0  0  0  0  0  0
   -4.3852    3.2219    0.0000 O   0  0  0  0  0  0  0  0  0  0  0  0
   -6.9691    2.9512    0.0000 O   0  0  0  0  0  0  0  0  0  0  0  0
   -2.5461   -1.8642    0.0000 C   0  0  0  0  0  0  0  0  0  0  0  0
   -2.2348   -3.3315    0.0000 C   0  0  0  0  0  0  0  0  0  0  0  0
   -0.7430   -3.4888    0.0000 C   0  0  0  0  0  0  0  0  0  0  0  0
   -0.1325   -2.1187    0.0000 C   0  0  0  0  0  0  0  0  0  0  0  0
    1.2943   -1.6556    0.0000 C   0  0  0  0  0  0  0  0  0  0  0  0
    2.4086   -2.6597    0.0000 C   0  0  0  0  0  0  0  0  0  0  0  0
    3.8354   -2.1966    0.0000 C   0  0  0  0  0  0  0  0  0  0  0  0
    4.1477   -0.7295    0.0000 C   0  0  0  0  0  0  0  0  0  0  0  0
    5.5745   -0.2665    0.0000 C   0  0  0  0  0  0  0  0  0  0  0  0
    5.8868    1.2007    0.0000 C   0  0  0  0  0  0  0  0  0  0  0  0
    7.3136    1.6637    0.0000 O   0  0  0  0  0  0  0  0  0  0  0  0
    4.7724    2.2047    0.0000 C   0  0  0  0  0  0  0  0  0  0  0  0
    3.3457    1.7417    0.0000 C   0  0  0  0  0  0  0  0  0  0  0  0
    3.0334    0.2746    0.0000 C   0  0  0  0  0  0  0  0  0  0  0  0
    1.9190    1.2786    0.0000 C   0  0  0  0  0  0  0  0  0  0  0  0
    2.2313    2.7457    0.0000 O   0  0  0  0  0  0  0  0  0  0  0  0
    1.6066   -0.1885    0.0000 C   0  0  0  0  0  0  0  0  0  0  0  0
    0.4922    0.8156    0.0000 C   0  0  0  0  0  0  0  0  0  0  0  0
   -0.9345    0.3525    0.0000 C   0  0  0  0  0  0  0  0  0  0  0  0
   -2.0489    1.3566    0.0000 O   0  0  0  0  0  0  0  0  0  0  0  0
   -1.2469   -1.1146    0.0000 C   0  0  0  0  0  0  0  0  0  0  0  0
   -2.4601   -0.2325    0.0000 C   0  0  0  0  0  0  0  0  0  0  0  0
  2  1  1  6
  2  3  1  0
  3  4  1  0
  4  5  1  0
  5  6  2  0
  5  7  1  0
  2  8  1  0
  8  9  1  6
  9 10  1  0
 11 10  1  6
 11 12  1  0
 12 13  1  1
 13 14  1  0
 15 14  1  1
 15 16  1  0
 16 17  1  0
 17 18  1  1
 17 19  1  0
 19 20  1  0
 20 21  1  0
 21 22  1  6
 22 23  1  0
 21 24  1  0
 24 25  1  6
 25 26  1  0
 26 27  1  1
 26 28  1  0
 28 29  1  6
 28  8  1  0
 28 11  1  0
 24 12  1  0
 21 15  1  0
M  END
>  <MS_ID>  (3443) 
MS3608

>  <SMILES>  (3443) 
C[C@H](CCC(=O)O)[C@H]1CC[C@H]2[C@@H]3CC[C@@H]4C[C@H](O)CC[C@]4(CO)[C@H]3C[C@H](O)[C@]12C

>  <Structure_dimension>  (3443) 
2D

$$$$
MS3609
     RDKit          2D

 35 38  0  0  0  0  0  0  0  0999 V2000
    2.3231    4.3753    0.0000 C   0  0  0  0  0  0  0  0  0  0  0  0
    1.5679    3.0793    0.0000 C   0  0  0  0  0  0  0  0  0  0  0  0
    2.3126    1.7773    0.0000 C   0  0  0  0  0  0  0  0  0  0  0  0
    3.8126    1.7712    0.0000 C   0  0  0  0  0  0  0  0  0  0  0  0
    4.5573    0.4691    0.0000 C   0  0  0  0  0  0  0  0  0  0  0  0
    3.8020   -0.8269    0.0000 O   0  0  0  0  0  0  0  0  0  0  0  0
    6.0573    0.4630    0.0000 N   0  0  0  0  0  0  0  0  0  0  0  0
    6.8020   -0.8391    0.0000 C   0  0  0  0  0  0  0  0  0  0  0  0
    8.3020   -0.8451    0.0000 C   0  0  0  0  0  0  0  0  0  0  0  0
    9.0467   -2.1472    0.0000 S   0  0  0  0  0  0  0  0  0  0  0  0
   10.3488   -1.4025    0.0000 O   0  0  0  0  0  0  0  0  0  0  0  0
    7.7446   -2.8919    0.0000 O   0  0  0  0  0  0  0  0  0  0  0  0
    9.7914   -3.4493    0.0000 O   0  0  0  0  0  0  0  0  0  0  0  0
    0.0679    3.0854    0.0000 C   0  0  0  0  0  0  0  0  0  0  0  0
   -0.8089    4.3025    0.0000 C   0  0  0  0  0  0  0  0  0  0  0  0
   -2.2373    3.8448    0.0000 C   0  0  0  0  0  0  0  0  0  0  0  0
   -2.2434    2.3448    0.0000 C   0  0  0  0  0  0  0  0  0  0  0  0
   -3.3622    1.3456    0.0000 C   0  0  0  0  0  0  0  0  0  0  0  0
   -4.7869    1.8150    0.0000 C   0  0  0  0  0  0  0  0  0  0  0  0
   -5.0928    3.2834    0.0000 O   0  0  0  0  0  0  0  0  0  0  0  0
   -5.9057    0.8158    0.0000 C   0  0  0  0  0  0  0  0  0  0  0  0
   -5.5998   -0.6527    0.0000 C   0  0  0  0  0  0  0  0  0  0  0  0
   -6.7185   -1.6518    0.0000 C   0  0  0  0  0  0  0  0  0  0  0  0
   -6.4126   -3.1203    0.0000 C   0  0  0  0  0  0  0  0  0  0  0  0
   -7.5314   -4.1195    0.0000 O   0  0  0  0  0  0  0  0  0  0  0  0
   -4.9879   -3.5896    0.0000 C   0  0  0  0  0  0  0  0  0  0  0  0
   -4.6820   -5.0581    0.0000 O   0  0  0  0  0  0  0  0  0  0  0  0
   -3.8692   -2.5905    0.0000 C   0  0  0  0  0  0  0  0  0  0  0  0
   -4.1751   -1.1220    0.0000 C   0  0  0  0  0  0  0  0  0  0  0  0
   -2.7504   -1.5913    0.0000 C   0  0  0  0  0  0  0  0  0  0  0  0
   -3.0563   -0.1228    0.0000 C   0  0  0  0  0  0  0  0  0  0  0  0
   -1.6316   -0.5921    0.0000 C   0  0  0  0  0  0  0  0  0  0  0  0
   -0.5128    0.4070    0.0000 C   0  0  0  0  0  0  0  0  0  0  0  0
   -0.8187    1.8755    0.0000 C   0  0  0  0  0  0  0  0  0  0  0  0
    0.6472    1.5577    0.0000 C   0  0  0  0  0  0  0  0  0  0  0  0
  2  1  1  6
  2  3  1  0
  3  4  1  0
  4  5  1  0
  5  6  2  0
  5  7  1  0
  7  8  1  0
  8  9  1  0
  9 10  1  0
 10 11  2  0
 10 12  2  0
 10 13  1  0
  2 14  1  0
 14 15  1  6
 15 16  1  0
 17 16  1  6
 17 18  1  0
 18 19  1  1
 19 20  1  1
 19 21  1  0
 22 21  1  1
 22 23  1  0
 23 24  1  0
 24 25  1  1
 24 26  1  0
 26 27  1  6
 26 28  1  0
 28 29  1  0
 29 30  1  6
 29 31  1  0
 31 32  1  6
 32 33  1  0
 33 34  1  0
 34 35  1  6
 34 14  1  0
 34 17  1  0
 31 18  1  0
 29 22  1  0
M  END
>  <MS_ID>  (3444) 
MS3609

>  <SMILES>  (3444) 
C[C@H](CCC(=O)NCCS(=O)(=O)O)[C@H]1CC[C@H]2[C@@H]3[C@H](O)C[C@@H]4C[C@H](O)[C@@H](O)C[C@]4(C)[C@H]3CC[C@]12C

>  <Structure_dimension>  (3444) 
2D

$$$$
MS3611
     RDKit          2D

 28 31  0  0  0  0  0  0  0  0999 V2000
   -4.6340   -2.3524    0.0000 C   0  0  0  0  0  0  0  0  0  0  0  0
   -3.5242   -1.3434    0.0000 C   0  0  0  0  0  0  0  0  0  0  0  0
   -3.8431    0.1223    0.0000 C   0  0  0  0  0  0  0  0  0  0  0  0
   -5.2720    0.5789    0.0000 C   0  0  0  0  0  0  0  0  0  0  0  0
   -5.5909    2.0446    0.0000 C   0  0  0  0  0  0  0  0  0  0  0  0
   -4.4811    3.0537    0.0000 O   0  0  0  0  0  0  0  0  0  0  0  0
   -7.0197    2.5012    0.0000 O   0  0  0  0  0  0  0  0  0  0  0  0
   -2.0954   -1.8000    0.0000 C   0  0  0  0  0  0  0  0  0  0  0  0
   -1.6249   -3.2243    0.0000 C   0  0  0  0  0  0  0  0  0  0  0  0
   -0.1249   -3.2170    0.0000 C   0  0  0  0  0  0  0  0  0  0  0  0
    0.3317   -1.7882    0.0000 C   0  0  0  0  0  0  0  0  0  0  0  0
    1.6990   -1.1715    0.0000 C   0  0  0  0  0  0  0  0  0  0  0  0
    2.9168   -2.0473    0.0000 C   0  0  0  0  0  0  0  0  0  0  0  0
    2.7672   -3.5398    0.0000 O   0  0  0  0  0  0  0  0  0  0  0  0
    4.2841   -1.4305    0.0000 C   0  0  0  0  0  0  0  0  0  0  0  0
    4.4337    0.0620    0.0000 C   0  0  0  0  0  0  0  0  0  0  0  0
    5.8011    0.6787    0.0000 C   0  0  0  0  0  0  0  0  0  0  0  0
    5.9506    2.1713    0.0000 C   0  0  0  0  0  0  0  0  0  0  0  0
    4.7328    3.0471    0.0000 C   0  0  0  0  0  0  0  0  0  0  0  0
    3.3655    2.4303    0.0000 C   0  0  0  0  0  0  0  0  0  0  0  0
    3.2159    0.9378    0.0000 C   0  0  0  0  0  0  0  0  0  0  0  0
    1.9981    1.8136    0.0000 C   0  0  0  0  0  0  0  0  0  0  0  0
    1.8486    0.3211    0.0000 C   0  0  0  0  0  0  0  0  0  0  0  0
    0.6308    1.1968    0.0000 C   0  0  0  0  0  0  0  0  0  0  0  0
   -0.7366    0.5801    0.0000 C   0  0  0  0  0  0  0  0  0  0  0  0
   -1.9543    1.4559    0.0000 O   0  0  0  0  0  0  0  0  0  0  0  0
   -0.8861   -0.9124    0.0000 C   0  0  0  0  0  0  0  0  0  0  0  0
   -2.1888   -0.1687    0.0000 C   0  0  0  0  0  0  0  0  0  0  0  0
  2  1  1  6
  2  3  1  0
  3  4  1  0
  4  5  1  0
  5  6  2  0
  5  7  1  0
  2  8  1  0
  8  9  1  6
  9 10  1  0
 11 10  1  6
 11 12  1  0
 12 13  1  1
 13 14  1  6
 13 15  1  0
 16 15  1  6
 16 17  1  0
 17 18  1  0
 18 19  1  0
 19 20  1  0
 20 21  1  0
 21 22  1  6
 21 23  1  0
 23 24  1  6
 24 25  1  0
 25 26  1  1
 25 27  1  0
 27 28  1  6
 27  8  1  0
 27 11  1  0
 23 12  1  0
 21 16  1  0
M  END
>  <MS_ID>  (3445) 
MS3611

>  <SMILES>  (3445) 
C[C@H](CCC(=O)O)[C@H]1CC[C@H]2[C@@H]3[C@@H](O)C[C@H]4CCCC[C@]4(C)[C@H]3C[C@H](O)[C@]12C

>  <Structure_dimension>  (3445) 
2D

$$$$
MS3612
     RDKit          2D

 36 39  0  0  0  0  0  0  0  0999 V2000
    2.2975    4.3772    0.0000 C   0  0  0  0  0  0  0  0  0  0  0  0
    1.5423    3.0812    0.0000 C   0  0  0  0  0  0  0  0  0  0  0  0
    2.2871    1.7792    0.0000 C   0  0  0  0  0  0  0  0  0  0  0  0
    3.7871    1.7732    0.0000 C   0  0  0  0  0  0  0  0  0  0  0  0
    4.5319    0.4712    0.0000 C   0  0  0  0  0  0  0  0  0  0  0  0
    3.7768   -0.8249    0.0000 O   0  0  0  0  0  0  0  0  0  0  0  0
    6.0319    0.4652    0.0000 N   0  0  0  0  0  0  0  0  0  0  0  0
    6.7767   -0.8368    0.0000 C   0  0  0  0  0  0  0  0  0  0  0  0
    8.2767   -0.8428    0.0000 C   0  0  0  0  0  0  0  0  0  0  0  0
    9.0215   -2.1448    0.0000 S   0  0  0  0  0  0  0  0  0  0  0  0
   10.3236   -1.4000    0.0000 O   0  0  0  0  0  0  0  0  0  0  0  0
    7.7195   -2.8896    0.0000 O   0  0  0  0  0  0  0  0  0  0  0  0
    9.7664   -3.4468    0.0000 O   0  0  0  0  0  0  0  0  0  0  0  0
    0.0423    3.0872    0.0000 C   0  0  0  0  0  0  0  0  0  0  0  0
   -0.8345    4.3042    0.0000 C   0  0  0  0  0  0  0  0  0  0  0  0
   -2.2629    3.8464    0.0000 C   0  0  0  0  0  0  0  0  0  0  0  0
   -2.2689    2.3464    0.0000 C   0  0  0  0  0  0  0  0  0  0  0  0
   -3.3876    1.3471    0.0000 C   0  0  0  0  0  0  0  0  0  0  0  0
   -4.8124    1.8163    0.0000 C   0  0  0  0  0  0  0  0  0  0  0  0
   -5.1184    3.2848    0.0000 O   0  0  0  0  0  0  0  0  0  0  0  0
   -5.9311    0.8171    0.0000 C   0  0  0  0  0  0  0  0  0  0  0  0
   -5.6250   -0.6514    0.0000 C   0  0  0  0  0  0  0  0  0  0  0  0
   -6.7437   -1.6506    0.0000 C   0  0  0  0  0  0  0  0  0  0  0  0
   -6.4377   -3.1191    0.0000 C   0  0  0  0  0  0  0  0  0  0  0  0
   -7.5564   -4.1183    0.0000 O   0  0  0  0  0  0  0  0  0  0  0  0
   -5.0130   -3.5883    0.0000 C   0  0  0  0  0  0  0  0  0  0  0  0
   -4.7070   -5.0567    0.0000 O   0  0  0  0  0  0  0  0  0  0  0  0
   -3.8943   -2.5890    0.0000 C   0  0  0  0  0  0  0  0  0  0  0  0
   -4.2003   -1.1206    0.0000 C   0  0  0  0  0  0  0  0  0  0  0  0
   -2.7756   -1.5898    0.0000 C   0  0  0  0  0  0  0  0  0  0  0  0
   -3.0816   -0.1213    0.0000 C   0  0  0  0  0  0  0  0  0  0  0  0
   -1.6569   -0.5905    0.0000 C   0  0  0  0  0  0  0  0  0  0  0  0
   -0.5382    0.4087    0.0000 C   0  0  0  0  0  0  0  0  0  0  0  0
    0.8866   -0.0605    0.0000 O   0  0  0  0  0  0  0  0  0  0  0  0
   -0.8442    1.8772    0.0000 C   0  0  0  0  0  0  0  0  0  0  0  0
    0.6218    1.5595    0.0000 C   0  0  0  0  0  0  0  0  0  0  0  0
  2  1  1  6
  2  3  1  0
  3  4  1  0
  4  5  1  0
  5  6  2  0
  5  7  1  0
  7  8  1  0
  8  9  1  0
  9 10  1  0
 10 11  2  0
 10 12  2  0
 10 13  1  0
  2 14  1  0
 14 15  1  6
 15 16  1  0
 17 16  1  6
 17 18  1  0
 18 19  1  1
 19 20  1  1
 19 21  1  0
 22 21  1  1
 22 23  1  0
 23 24  1  0
 24 25  1  1
 24 26  1  0
 26 27  1  6
 26 28  1  0
 28 29  1  0
 29 30  1  6
 29 31  1  0
 31 32  1  6
 32 33  1  0
 33 34  1  1
 33 35  1  0
 35 36  1  6
 35 14  1  0
 35 17  1  0
 31 18  1  0
 29 22  1  0
M  END
>  <MS_ID>  (3446) 
MS3612

>  <SMILES>  (3446) 
C[C@H](CCC(=O)NCCS(=O)(=O)O)[C@H]1CC[C@H]2[C@@H]3[C@H](O)C[C@@H]4C[C@H](O)[C@@H](O)C[C@]4(C)[C@H]3C[C@H](O)[C@]12C

>  <Structure_dimension>  (3446) 
2D

$$$$
MS3613
     RDKit          2D

 28 31  0  0  0  0  0  0  0  0999 V2000
   -7.2657    3.7367    0.0000 C   0  0  0  0  0  0  0  0  0  0  0  0
   -6.9639    2.2673    0.0000 O   0  0  0  0  0  0  0  0  0  0  0  0
   -5.5405    1.7940    0.0000 C   0  0  0  0  0  0  0  0  0  0  0  0
   -4.4189    2.7900    0.0000 O   0  0  0  0  0  0  0  0  0  0  0  0
   -5.2387    0.3247    0.0000 C   0  0  0  0  0  0  0  0  0  0  0  0
   -3.8154   -0.1486    0.0000 C   0  0  0  0  0  0  0  0  0  0  0  0
   -3.5136   -1.6180    0.0000 C   0  0  0  0  0  0  0  0  0  0  0  0
   -4.6352   -2.6140    0.0000 C   0  0  0  0  0  0  0  0  0  0  0  0
   -2.0902   -2.0913    0.0000 C   0  0  0  0  0  0  0  0  0  0  0  0
   -1.6365   -3.5210    0.0000 C   0  0  0  0  0  0  0  0  0  0  0  0
   -0.1366   -3.5313    0.0000 C   0  0  0  0  0  0  0  0  0  0  0  0
    0.3368   -2.1080    0.0000 C   0  0  0  0  0  0  0  0  0  0  0  0
    1.7112   -1.5073    0.0000 C   0  0  0  0  0  0  0  0  0  0  0  0
    2.9187   -2.3973    0.0000 C   0  0  0  0  0  0  0  0  0  0  0  0
    4.2932   -1.7966    0.0000 C   0  0  0  0  0  0  0  0  0  0  0  0
    4.4602   -0.3060    0.0000 C   0  0  0  0  0  0  0  0  0  0  0  0
    5.8347    0.2947    0.0000 C   0  0  0  0  0  0  0  0  0  0  0  0
    6.0017    1.7854    0.0000 C   0  0  0  0  0  0  0  0  0  0  0  0
    7.3762    2.3861    0.0000 O   0  0  0  0  0  0  0  0  0  0  0  0
    4.7943    2.6754    0.0000 C   0  0  0  0  0  0  0  0  0  0  0  0
    3.4198    2.0747    0.0000 C   0  0  0  0  0  0  0  0  0  0  0  0
    3.2528    0.5840    0.0000 C   0  0  0  0  0  0  0  0  0  0  0  0
    2.0453    1.4740    0.0000 C   0  0  0  0  0  0  0  0  0  0  0  0
    1.8783   -0.0166    0.0000 C   0  0  0  0  0  0  0  0  0  0  0  0
    0.6708    0.8734    0.0000 C   0  0  0  0  0  0  0  0  0  0  0  0
   -0.7036    0.2727    0.0000 C   0  0  0  0  0  0  0  0  0  0  0  0
   -0.8707   -1.2180    0.0000 C   0  0  0  0  0  0  0  0  0  0  0  0
   -2.1645   -0.4591    0.0000 C   0  0  0  0  0  0  0  0  0  0  0  0
  1  2  1  0
  2  3  1  0
  3  4  2  0
  3  5  1  0
  5  6  1  0
  6  7  1  0
  7  8  1  6
  7  9  1  0
  9 10  1  6
 10 11  1  0
 12 11  1  6
 12 13  1  0
 13 14  1  1
 14 15  1  0
 16 15  1  6
 16 17  1  0
 17 18  1  0
 18 19  1  6
 18 20  1  0
 20 21  1  0
 21 22  1  0
 22 23  1  6
 22 24  1  0
 24 25  1  6
 25 26  1  0
 26 27  1  0
 27 28  1  6
 27  9  1  0
 27 12  1  0
 24 13  1  0
 22 16  1  0
M  END
>  <MS_ID>  (3447) 
MS3613

>  <SMILES>  (3447) 
COC(=O)CC[C@@H](C)[C@H]1CC[C@H]2[C@@H]3CC[C@H]4C[C@@H](O)CC[C@]4(C)[C@H]3CC[C@]12C

>  <Structure_dimension>  (3447) 
2D

$$$$
MS3614
     RDKit          2D

 28 31  0  0  0  0  0  0  0  0999 V2000
   -5.1275   -2.0302    0.0000 C   0  0  0  0  0  0  0  0  0  0  0  0
   -3.9468   -1.1050    0.0000 C   0  0  0  0  0  0  0  0  0  0  0  0
   -4.1576    0.3801    0.0000 C   0  0  0  0  0  0  0  0  0  0  0  0
   -5.5492    0.9401    0.0000 C   0  0  0  0  0  0  0  0  0  0  0  0
   -5.7600    2.4252    0.0000 C   0  0  0  0  0  0  0  0  0  0  0  0
   -4.5793    3.3503    0.0000 O   0  0  0  0  0  0  0  0  0  0  0  0
   -7.1516    2.9851    0.0000 O   0  0  0  0  0  0  0  0  0  0  0  0
   -2.5552   -1.6650    0.0000 C   0  0  0  0  0  0  0  0  0  0  0  0
   -2.1903   -3.1199    0.0000 C   0  0  0  0  0  0  0  0  0  0  0  0
   -0.6938   -3.2225    0.0000 C   0  0  0  0  0  0  0  0  0  0  0  0
   -0.1339   -1.8309    0.0000 C   0  0  0  0  0  0  0  0  0  0  0  0
    1.2750   -1.3159    0.0000 C   0  0  0  0  0  0  0  0  0  0  0  0
    2.4254   -2.2785    0.0000 C   0  0  0  0  0  0  0  0  0  0  0  0
    2.1670   -3.7560    0.0000 O   0  0  0  0  0  0  0  0  0  0  0  0
    3.8342   -1.7635    0.0000 C   0  0  0  0  0  0  0  0  0  0  0  0
    4.0926   -0.2859    0.0000 C   0  0  0  0  0  0  0  0  0  0  0  0
    5.5014    0.2291    0.0000 C   0  0  0  0  0  0  0  0  0  0  0  0
    5.7598    1.7067    0.0000 C   0  0  0  0  0  0  0  0  0  0  0  0
    7.1687    2.2217    0.0000 O   0  0  0  0  0  0  0  0  0  0  0  0
    4.6094    2.6692    0.0000 C   0  0  0  0  0  0  0  0  0  0  0  0
    3.2006    2.1542    0.0000 C   0  0  0  0  0  0  0  0  0  0  0  0
    2.9422    0.6767    0.0000 C   0  0  0  0  0  0  0  0  0  0  0  0
    1.7918    1.6392    0.0000 C   0  0  0  0  0  0  0  0  0  0  0  0
    1.5334    0.1617    0.0000 C   0  0  0  0  0  0  0  0  0  0  0  0
    0.3830    1.1242    0.0000 C   0  0  0  0  0  0  0  0  0  0  0  0
   -1.0259    0.6093    0.0000 C   0  0  0  0  0  0  0  0  0  0  0  0
   -1.2843   -0.8683    0.0000 C   0  0  0  0  0  0  0  0  0  0  0  0
   -2.5290   -0.0313    0.0000 C   0  0  0  0  0  0  0  0  0  0  0  0
  2  1  1  6
  2  3  1  0
  3  4  1  0
  4  5  1  0
  5  6  2  0
  5  7  1  0
  2  8  1  0
  8  9  1  6
  9 10  1  0
 11 10  1  6
 11 12  1  0
 12 13  1  1
 13 14  1  1
 13 15  1  0
 16 15  1  6
 16 17  1  0
 17 18  1  0
 18 19  1  6
 18 20  1  0
 20 21  1  0
 21 22  1  0
 22 23  1  6
 22 24  1  0
 24 25  1  6
 25 26  1  0
 26 27  1  0
 27 28  1  6
 27  8  1  0
 27 11  1  0
 24 12  1  0
 22 16  1  0
M  END
>  <MS_ID>  (3448) 
MS3614

>  <SMILES>  (3448) 
C[C@H](CCC(=O)O)[C@H]1CC[C@H]2[C@@H]3[C@H](O)C[C@H]4C[C@@H](O)CC[C@]4(C)[C@H]3CC[C@]12C

>  <Structure_dimension>  (3448) 
2D

$$$$
MS3615
     RDKit          2D

 33 36  0  0  0  0  0  0  0  0999 V2000
   -6.2027   -1.9081    0.0000 C   0  0  0  0  0  0  0  0  0  0  0  0
   -4.9792   -1.0402    0.0000 C   0  0  0  0  0  0  0  0  0  0  0  0
   -5.1191    0.4533    0.0000 C   0  0  0  0  0  0  0  0  0  0  0  0
   -6.4825    1.0788    0.0000 C   0  0  0  0  0  0  0  0  0  0  0  0
   -6.6223    2.5723    0.0000 C   0  0  0  0  0  0  0  0  0  0  0  0
   -5.3989    3.4402    0.0000 O   0  0  0  0  0  0  0  0  0  0  0  0
   -7.9857    3.1979    0.0000 O   0  0  0  0  0  0  0  0  0  0  0  0
   -3.6159   -1.6658    0.0000 C   0  0  0  0  0  0  0  0  0  0  0  0
   -3.3207   -3.1364    0.0000 C   0  0  0  0  0  0  0  0  0  0  0  0
   -1.8308   -3.3101    0.0000 C   0  0  0  0  0  0  0  0  0  0  0  0
   -1.2052   -1.9468    0.0000 C   0  0  0  0  0  0  0  0  0  0  0  0
    0.2265   -1.4995    0.0000 C   0  0  0  0  0  0  0  0  0  0  0  0
    1.3298   -2.5157    0.0000 C   0  0  0  0  0  0  0  0  0  0  0  0
    1.0014   -3.9793    0.0000 O   0  0  0  0  0  0  0  0  0  0  0  0
    2.7616   -2.0684    0.0000 C   0  0  0  0  0  0  0  0  0  0  0  0
    3.0900   -0.6048    0.0000 C   0  0  0  0  0  0  0  0  0  0  0  0
    4.5218   -0.1574    0.0000 C   0  0  0  0  0  0  0  0  0  0  0  0
    4.8502    1.3061    0.0000 C   0  0  0  0  0  0  0  0  0  0  0  0
    6.2820    1.7535    0.0000 O   0  0  0  0  0  0  0  0  0  0  0  0
    7.3853    0.7372    0.0000 S   0  0  0  0  0  0  0  0  0  0  0  0
    6.3690   -0.3660    0.0000 O   0  0  0  0  0  0  0  0  0  0  0  0
    8.4015    1.8405    0.0000 O   0  0  0  0  0  0  0  0  0  0  0  0
    8.4885   -0.2790    0.0000 O   0  0  0  0  0  0  0  0  0  0  0  0
    3.7470    2.3224    0.0000 C   0  0  0  0  0  0  0  0  0  0  0  0
    2.3152    1.8751    0.0000 C   0  0  0  0  0  0  0  0  0  0  0  0
    1.9868    0.4115    0.0000 C   0  0  0  0  0  0  0  0  0  0  0  0
    0.8835    1.4277    0.0000 C   0  0  0  0  0  0  0  0  0  0  0  0
    0.5550   -0.0359    0.0000 C   0  0  0  0  0  0  0  0  0  0  0  0
   -0.5483    0.9804    0.0000 C   0  0  0  0  0  0  0  0  0  0  0  0
   -1.9800    0.5330    0.0000 C   0  0  0  0  0  0  0  0  0  0  0  0
   -3.0833    1.5493    0.0000 O   0  0  0  0  0  0  0  0  0  0  0  0
   -2.3085   -0.9305    0.0000 C   0  0  0  0  0  0  0  0  0  0  0  0
   -3.5119   -0.0352    0.0000 C   0  0  0  0  0  0  0  0  0  0  0  0
  2  1  1  6
  2  3  1  0
  3  4  1  0
  4  5  1  0
  5  6  2  0
  5  7  1  0
  2  8  1  0
  8  9  1  6
  9 10  1  0
 11 10  1  6
 11 12  1  0
 12 13  1  1
 13 14  1  1
 13 15  1  0
 16 15  1  6
 16 17  1  0
 17 18  1  0
 18 19  1  1
 19 20  1  0
 20 21  2  0
 20 22  2  0
 20 23  1  0
 18 24  1  0
 24 25  1  0
 25 26  1  0
 26 27  1  6
 26 28  1  0
 28 29  1  6
 29 30  1  0
 30 31  1  1
 30 32  1  0
 32 33  1  6
 32  8  1  0
 32 11  1  0
 28 12  1  0
 26 16  1  0
M  END
>  <MS_ID>  (3449) 
MS3615

>  <SMILES>  (3449) 
C[C@H](CCC(=O)O)[C@H]1CC[C@H]2[C@@H]3[C@H](O)C[C@H]4C[C@H](OS(=O)(=O)O)CC[C@]4(C)[C@H]3C[C@H](O)[C@]12C

>  <Structure_dimension>  (3449) 
2D

$$$$
MS3618
     RDKit          2D

 39 43  0  0  0  0  0  0  0  0999 V2000
   -0.0475   -4.8724    0.0000 C   0  0  0  0  0  0  0  0  0  0  0  0
    0.4387   -3.4533    0.0000 C   0  0  0  0  0  0  0  0  0  0  0  0
   -0.5472   -2.3228    0.0000 C   0  0  0  0  0  0  0  0  0  0  0  0
   -2.0191   -2.6113    0.0000 C   0  0  0  0  0  0  0  0  0  0  0  0
   -3.0050   -1.4808    0.0000 C   0  0  0  0  0  0  0  0  0  0  0  0
   -2.5188   -0.0617    0.0000 O   0  0  0  0  0  0  0  0  0  0  0  0
   -4.4770   -1.7693    0.0000 N   0  0  0  0  0  0  0  0  0  0  0  0
   -5.4628   -0.6387    0.0000 C   0  0  0  0  0  0  0  0  0  0  0  0
   -6.9348   -0.9272    0.0000 C   0  0  0  0  0  0  0  0  0  0  0  0
   -7.9207    0.2033    0.0000 C   0  0  0  0  0  0  0  0  0  0  0  0
   -7.4345    1.6223    0.0000 C   0  0  0  0  0  0  0  0  0  0  0  0
   -8.4204    2.7529    0.0000 C   0  0  0  0  0  0  0  0  0  0  0  0
   -9.8924    2.4644    0.0000 C   0  0  0  0  0  0  0  0  0  0  0  0
  -10.8782    3.5949    0.0000 O   0  0  0  0  0  0  0  0  0  0  0  0
  -10.3785    1.0453    0.0000 C   0  0  0  0  0  0  0  0  0  0  0  0
  -11.8505    0.7568    0.0000 O   0  0  0  0  0  0  0  0  0  0  0  0
   -9.3927   -0.0852    0.0000 C   0  0  0  0  0  0  0  0  0  0  0  0
    1.9107   -3.1648    0.0000 C   0  0  0  0  0  0  0  0  0  0  0  0
    3.0093   -4.1861    0.0000 C   0  0  0  0  0  0  0  0  0  0  0  0
    4.3201   -3.4569    0.0000 C   0  0  0  0  0  0  0  0  0  0  0  0
    4.0316   -1.9849    0.0000 C   0  0  0  0  0  0  0  0  0  0  0  0
    4.9325   -0.7855    0.0000 C   0  0  0  0  0  0  0  0  0  0  0  0
    6.4216   -0.9660    0.0000 C   0  0  0  0  0  0  0  0  0  0  0  0
    7.0098   -2.3459    0.0000 O   0  0  0  0  0  0  0  0  0  0  0  0
    7.3224    0.2333    0.0000 C   0  0  0  0  0  0  0  0  0  0  0  0
    6.7342    1.6132    0.0000 C   0  0  0  0  0  0  0  0  0  0  0  0
    7.6351    2.8125    0.0000 C   0  0  0  0  0  0  0  0  0  0  0  0
    7.0468    4.1924    0.0000 C   0  0  0  0  0  0  0  0  0  0  0  0
    7.9477    5.3917    0.0000 O   0  0  0  0  0  0  0  0  0  0  0  0
    5.5577    4.3729    0.0000 C   0  0  0  0  0  0  0  0  0  0  0  0
    4.6568    3.1735    0.0000 C   0  0  0  0  0  0  0  0  0  0  0  0
    5.2451    1.7937    0.0000 C   0  0  0  0  0  0  0  0  0  0  0  0
    3.7560    1.9742    0.0000 C   0  0  0  0  0  0  0  0  0  0  0  0
    4.3442    0.5943    0.0000 C   0  0  0  0  0  0  0  0  0  0  0  0
    2.8551    0.7748    0.0000 C   0  0  0  0  0  0  0  0  0  0  0  0
    1.9543   -0.4245    0.0000 C   0  0  0  0  0  0  0  0  0  0  0  0
    0.4652   -0.2441    0.0000 O   0  0  0  0  0  0  0  0  0  0  0  0
    2.5425   -1.8044    0.0000 C   0  0  0  0  0  0  0  0  0  0  0  0
    1.0427   -1.7805    0.0000 C   0  0  0  0  0  0  0  0  0  0  0  0
  2  1  1  6
  2  3  1  0
  3  4  1  0
  4  5  1  0
  5  6  2  0
  5  7  1  0
  7  8  1  0
  8  9  1  0
  9 10  1  0
 10 11  2  0
 11 12  1  0
 12 13  2  0
 13 14  1  0
 13 15  1  0
 15 16  1  0
 15 17  2  0
  2 18  1  0
 18 19  1  6
 19 20  1  0
 21 20  1  6
 21 22  1  0
 22 23  1  1
 23 24  1  1
 23 25  1  0
 26 25  1  1
 26 27  1  0
 27 28  1  0
 28 29  1  1
 28 30  1  0
 30 31  1  0
 31 32  1  0
 32 33  1  6
 32 34  1  0
 34 35  1  6
 35 36  1  0
 36 37  1  1
 36 38  1  0
 38 39  1  6
 17 10  1  0
 38 18  1  0
 38 21  1  0
 34 22  1  0
 32 26  1  0
M  END
>  <MS_ID>  (3450) 
MS3618

>  <SMILES>  (3450) 
C[C@H](CCC(=O)NCCc1ccc(O)c(O)c1)[C@H]1CC[C@H]2[C@@H]3[C@H](O)C[C@@H]4C[C@H](O)CC[C@]4(C)[C@H]3C[C@H](O)[C@]12C

>  <Structure_dimension>  (3450) 
2D

$$$$
MS3619
     RDKit          2D

 29 32  0  0  0  0  0  0  0  0999 V2000
    5.2040    2.1960    0.0000 C   0  0  0  0  0  0  0  0  0  0  0  0
    4.0246    1.2692    0.0000 C   0  0  0  0  0  0  0  0  0  0  0  0
    4.2375   -0.2156    0.0000 C   0  0  0  0  0  0  0  0  0  0  0  0
    5.6299   -0.7736    0.0000 C   0  0  0  0  0  0  0  0  0  0  0  0
    5.8429   -2.2584    0.0000 C   0  0  0  0  0  0  0  0  0  0  0  0
    4.6635   -3.1852    0.0000 O   0  0  0  0  0  0  0  0  0  0  0  0
    7.2352   -2.8164    0.0000 O   0  0  0  0  0  0  0  0  0  0  0  0
    2.6322    1.8272    0.0000 C   0  0  0  0  0  0  0  0  0  0  0  0
    2.2652    3.2816    0.0000 C   0  0  0  0  0  0  0  0  0  0  0  0
    0.7686    3.3820    0.0000 C   0  0  0  0  0  0  0  0  0  0  0  0
    0.2106    1.9896    0.0000 C   0  0  0  0  0  0  0  0  0  0  0  0
   -1.1975    1.4726    0.0000 C   0  0  0  0  0  0  0  0  0  0  0  0
   -2.3492    2.4335    0.0000 C   0  0  0  0  0  0  0  0  0  0  0  0
   -3.7573    1.9165    0.0000 C   0  0  0  0  0  0  0  0  0  0  0  0
   -4.0136    0.4386    0.0000 C   0  0  0  0  0  0  0  0  0  0  0  0
   -5.4217   -0.0784    0.0000 C   0  0  0  0  0  0  0  0  0  0  0  0
   -6.5735    0.8825    0.0000 O   0  0  0  0  0  0  0  0  0  0  0  0
   -5.6780   -1.5564    0.0000 C   0  0  0  0  0  0  0  0  0  0  0  0
   -7.0861   -2.0734    0.0000 O   0  0  0  0  0  0  0  0  0  0  0  0
   -4.5262   -2.5173    0.0000 C   0  0  0  0  0  0  0  0  0  0  0  0
   -3.1181   -2.0003    0.0000 C   0  0  0  0  0  0  0  0  0  0  0  0
   -2.8618   -0.5223    0.0000 C   0  0  0  0  0  0  0  0  0  0  0  0
   -1.7101   -1.4833    0.0000 C   0  0  0  0  0  0  0  0  0  0  0  0
   -1.4538   -0.0053    0.0000 C   0  0  0  0  0  0  0  0  0  0  0  0
   -0.3020   -0.9663    0.0000 C   0  0  0  0  0  0  0  0  0  0  0  0
    1.1061   -0.4492    0.0000 C   0  0  0  0  0  0  0  0  0  0  0  0
    2.2579   -1.4102    0.0000 O   0  0  0  0  0  0  0  0  0  0  0  0
    1.3624    1.0287    0.0000 C   0  0  0  0  0  0  0  0  0  0  0  0
    2.6083    0.1934    0.0000 C   0  0  0  0  0  0  0  0  0  0  0  0
  2  1  1  6
  2  3  1  0
  3  4  1  0
  4  5  1  0
  5  6  2  0
  5  7  1  0
  2  8  1  0
  8  9  1  6
  9 10  1  0
 11 10  1  6
 11 12  1  0
 12 13  1  1
 13 14  1  0
 15 14  1  1
 15 16  1  0
 16 17  1  6
 16 18  1  0
 18 19  1  6
 18 20  1  0
 20 21  1  0
 21 22  1  0
 22 23  1  6
 22 24  1  0
 24 25  1  6
 25 26  1  0
 26 27  1  1
 26 28  1  0
 28 29  1  6
 28  8  1  0
 28 11  1  0
 24 12  1  0
 22 15  1  0
M  END
>  <MS_ID>  (3451) 
MS3619

>  <SMILES>  (3451) 
C[C@H](CCC(=O)O)[C@H]1CC[C@H]2[C@@H]3CC[C@@H]4[C@@H](O)[C@@H](O)CC[C@]4(C)[C@H]3C[C@H](O)[C@]12C

>  <Structure_dimension>  (3451) 
2D

$$$$
MS3620
     RDKit          2D

 28 31  0  0  0  0  0  0  0  0999 V2000
   -5.0096   -2.1352    0.0000 C   0  0  0  0  0  0  0  0  0  0  0  0
   -3.8132   -1.2303    0.0000 C   0  0  0  0  0  0  0  0  0  0  0  0
   -3.9987    0.2582    0.0000 C   0  0  0  0  0  0  0  0  0  0  0  0
   -5.3805    0.8418    0.0000 C   0  0  0  0  0  0  0  0  0  0  0  0
   -5.5659    2.3303    0.0000 C   0  0  0  0  0  0  0  0  0  0  0  0
   -4.3695    3.2351    0.0000 O   0  0  0  0  0  0  0  0  0  0  0  0
   -6.9477    2.9140    0.0000 O   0  0  0  0  0  0  0  0  0  0  0  0
   -2.4315   -1.8140    0.0000 C   0  0  0  0  0  0  0  0  0  0  0  0
   -2.0914   -3.2749    0.0000 C   0  0  0  0  0  0  0  0  0  0  0  0
   -0.5969   -3.4030    0.0000 C   0  0  0  0  0  0  0  0  0  0  0  0
   -0.0133   -2.0212    0.0000 C   0  0  0  0  0  0  0  0  0  0  0  0
    1.4041   -1.5304    0.0000 C   0  0  0  0  0  0  0  0  0  0  0  0
    2.5379   -2.5125    0.0000 C   0  0  0  0  0  0  0  0  0  0  0  0
    3.9554   -2.0216    0.0000 C   0  0  0  0  0  0  0  0  0  0  0  0
    4.2390   -0.5487    0.0000 C   0  0  0  0  0  0  0  0  0  0  0  0
    5.6564   -0.0578    0.0000 C   0  0  0  0  0  0  0  0  0  0  0  0
    5.9400    1.4151    0.0000 C   0  0  0  0  0  0  0  0  0  0  0  0
    7.3574    1.9060    0.0000 O   0  0  0  0  0  0  0  0  0  0  0  0
    4.8062    2.3972    0.0000 C   0  0  0  0  0  0  0  0  0  0  0  0
    3.3888    1.9064    0.0000 C   0  0  0  0  0  0  0  0  0  0  0  0
    3.1052    0.4334    0.0000 C   0  0  0  0  0  0  0  0  0  0  0  0
    1.9714    1.4155    0.0000 C   0  0  0  0  0  0  0  0  0  0  0  0
    1.6878   -0.0574    0.0000 C   0  0  0  0  0  0  0  0  0  0  0  0
    0.5540    0.9246    0.0000 C   0  0  0  0  0  0  0  0  0  0  0  0
   -0.8635    0.4338    0.0000 C   0  0  0  0  0  0  0  0  0  0  0  0
   -1.9973    1.4159    0.0000 O   0  0  0  0  0  0  0  0  0  0  0  0
   -1.1471   -1.0392    0.0000 C   0  0  0  0  0  0  0  0  0  0  0  0
   -2.3773   -0.1810    0.0000 C   0  0  0  0  0  0  0  0  0  0  0  0
  2  1  1  6
  2  3  1  0
  3  4  1  0
  4  5  1  0
  5  6  2  0
  5  7  1  0
  2  8  1  0
  8  9  1  6
  9 10  1  0
 11 10  1  6
 11 12  1  0
 12 13  1  1
 13 14  1  0
 15 14  1  6
 15 16  1  0
 16 17  1  0
 17 18  1  1
 17 19  1  0
 19 20  1  0
 20 21  1  0
 21 22  1  6
 21 23  1  0
 23 24  1  6
 24 25  1  0
 25 26  1  6
 25 27  1  0
 27 28  1  6
 27  8  1  0
 27 11  1  0
 23 12  1  0
 21 15  1  0
M  END
>  <MS_ID>  (3452) 
MS3620

>  <SMILES>  (3452) 
C[C@H](CCC(=O)O)[C@H]1CC[C@H]2[C@@H]3CC[C@H]4C[C@H](O)CC[C@]4(C)[C@H]3C[C@@H](O)[C@]12C

>  <Structure_dimension>  (3452) 
2D

$$$$
MS3621
     RDKit          2D

 32 35  0  0  0  0  0  0  0  0999 V2000
   -6.3787   -1.9205    0.0000 C   0  0  0  0  0  0  0  0  0  0  0  0
   -5.1598   -1.0463    0.0000 C   0  0  0  0  0  0  0  0  0  0  0  0
   -5.3073    0.4464    0.0000 C   0  0  0  0  0  0  0  0  0  0  0  0
   -6.6739    1.0650    0.0000 C   0  0  0  0  0  0  0  0  0  0  0  0
   -6.8214    2.5577    0.0000 C   0  0  0  0  0  0  0  0  0  0  0  0
   -5.6025    3.4319    0.0000 O   0  0  0  0  0  0  0  0  0  0  0  0
   -8.1880    3.1763    0.0000 O   0  0  0  0  0  0  0  0  0  0  0  0
   -3.7932   -1.6649    0.0000 C   0  0  0  0  0  0  0  0  0  0  0  0
   -3.4905   -3.1340    0.0000 C   0  0  0  0  0  0  0  0  0  0  0  0
   -1.9997   -3.3000    0.0000 C   0  0  0  0  0  0  0  0  0  0  0  0
   -1.3811   -1.9335    0.0000 C   0  0  0  0  0  0  0  0  0  0  0  0
    0.0483   -1.4788    0.0000 C   0  0  0  0  0  0  0  0  0  0  0  0
    1.1568   -2.4893    0.0000 C   0  0  0  0  0  0  0  0  0  0  0  0
    2.5862   -2.0346    0.0000 C   0  0  0  0  0  0  0  0  0  0  0  0
    3.6947   -3.0452    0.0000 O   0  0  0  0  0  0  0  0  0  0  0  0
    2.9072   -0.5694    0.0000 C   0  0  0  0  0  0  0  0  0  0  0  0
    4.3366   -0.1147    0.0000 C   0  0  0  0  0  0  0  0  0  0  0  0
    4.6575    1.3506    0.0000 C   0  0  0  0  0  0  0  0  0  0  0  0
    6.0869    1.8053    0.0000 O   0  0  0  0  0  0  0  0  0  0  0  0
    7.1954    0.7947    0.0000 S   0  0  0  0  0  0  0  0  0  0  0  0
    6.1849   -0.3138    0.0000 O   0  0  0  0  0  0  0  0  0  0  0  0
    8.2060    1.9032    0.0000 O   0  0  0  0  0  0  0  0  0  0  0  0
    8.3039   -0.2158    0.0000 O   0  0  0  0  0  0  0  0  0  0  0  0
    3.5490    2.3612    0.0000 C   0  0  0  0  0  0  0  0  0  0  0  0
    2.1196    1.9065    0.0000 C   0  0  0  0  0  0  0  0  0  0  0  0
    1.7987    0.4412    0.0000 C   0  0  0  0  0  0  0  0  0  0  0  0
    0.6902    1.4518    0.0000 C   0  0  0  0  0  0  0  0  0  0  0  0
    0.3692   -0.0135    0.0000 C   0  0  0  0  0  0  0  0  0  0  0  0
   -0.7392    0.9971    0.0000 C   0  0  0  0  0  0  0  0  0  0  0  0
   -2.1687    0.5424    0.0000 C   0  0  0  0  0  0  0  0  0  0  0  0
   -2.4896   -0.9229    0.0000 C   0  0  0  0  0  0  0  0  0  0  0  0
   -3.6977   -0.0338    0.0000 C   0  0  0  0  0  0  0  0  0  0  0  0
  2  1  1  6
  2  3  1  0
  3  4  1  0
  4  5  1  0
  5  6  2  0
  5  7  1  0
  2  8  1  0
  8  9  1  6
  9 10  1  0
 11 10  1  6
 11 12  1  0
 12 13  1  1
 13 14  1  0
 14 15  1  1
 14 16  1  0
 16 17  1  1
 17 18  1  0
 18 19  1  1
 19 20  1  0
 20 21  2  0
 20 22  2  0
 20 23  1  0
 18 24  1  0
 24 25  1  0
 25 26  1  0
 26 27  1  6
 26 28  1  0
 28 29  1  6
 29 30  1  0
 30 31  1  0
 31 32  1  6
 31  8  1  0
 31 11  1  0
 28 12  1  0
 26 16  1  0
M  END
>  <MS_ID>  (3453) 
MS3621

>  <SMILES>  (3453) 
C[C@H](CCC(=O)O)[C@H]1CC[C@H]2[C@@H]3C[C@H](O)[C@@H]4C[C@H](OS(=O)(=O)O)CC[C@]4(C)[C@H]3CC[C@]12C

>  <Structure_dimension>  (3453) 
2D

$$$$
MS3622
     RDKit          2D

 35 38  0  0  0  0  0  0  0  0999 V2000
   -2.0200   -4.3028    0.0000 C   0  0  0  0  0  0  0  0  0  0  0  0
   -1.3087   -2.9822    0.0000 C   0  0  0  0  0  0  0  0  0  0  0  0
   -2.0967   -1.7059    0.0000 C   0  0  0  0  0  0  0  0  0  0  0  0
   -3.5960   -1.7502    0.0000 C   0  0  0  0  0  0  0  0  0  0  0  0
   -4.3840   -0.4738    0.0000 C   0  0  0  0  0  0  0  0  0  0  0  0
   -3.6727    0.8468    0.0000 O   0  0  0  0  0  0  0  0  0  0  0  0
   -5.8834   -0.5181    0.0000 N   0  0  0  0  0  0  0  0  0  0  0  0
   -6.6714    0.7582    0.0000 C   0  0  0  0  0  0  0  0  0  0  0  0
   -8.1707    0.7140    0.0000 C   0  0  0  0  0  0  0  0  0  0  0  0
   -8.9588    1.9903    0.0000 S   0  0  0  0  0  0  0  0  0  0  0  0
  -10.2351    1.2023    0.0000 O   0  0  0  0  0  0  0  0  0  0  0  0
   -7.6824    2.7783    0.0000 O   0  0  0  0  0  0  0  0  0  0  0  0
   -9.7468    3.2667    0.0000 O   0  0  0  0  0  0  0  0  0  0  0  0
    0.1907   -2.9379    0.0000 C   0  0  0  0  0  0  0  0  0  0  0  0
    1.1078   -4.1249    0.0000 C   0  0  0  0  0  0  0  0  0  0  0  0
    2.5201   -3.6195    0.0000 C   0  0  0  0  0  0  0  0  0  0  0  0
    2.4758   -2.1201    0.0000 C   0  0  0  0  0  0  0  0  0  0  0  0
    3.5604   -1.0840    0.0000 C   0  0  0  0  0  0  0  0  0  0  0  0
    5.0001   -1.5052    0.0000 C   0  0  0  0  0  0  0  0  0  0  0  0
    5.3551   -2.9626    0.0000 O   0  0  0  0  0  0  0  0  0  0  0  0
    6.0847   -0.4691    0.0000 C   0  0  0  0  0  0  0  0  0  0  0  0
    5.7296    0.9883    0.0000 C   0  0  0  0  0  0  0  0  0  0  0  0
    6.8142    2.0245    0.0000 C   0  0  0  0  0  0  0  0  0  0  0  0
    6.4592    3.4819    0.0000 C   0  0  0  0  0  0  0  0  0  0  0  0
    7.5438    4.5180    0.0000 O   0  0  0  0  0  0  0  0  0  0  0  0
    5.0196    3.9031    0.0000 C   0  0  0  0  0  0  0  0  0  0  0  0
    3.9350    2.8669    0.0000 C   0  0  0  0  0  0  0  0  0  0  0  0
    4.2900    1.4095    0.0000 C   0  0  0  0  0  0  0  0  0  0  0  0
    2.8503    1.8308    0.0000 C   0  0  0  0  0  0  0  0  0  0  0  0
    3.2054    0.3734    0.0000 C   0  0  0  0  0  0  0  0  0  0  0  0
    1.7657    0.7946    0.0000 C   0  0  0  0  0  0  0  0  0  0  0  0
    0.6811   -0.2416    0.0000 C   0  0  0  0  0  0  0  0  0  0  0  0
   -0.7585    0.1797    0.0000 O   0  0  0  0  0  0  0  0  0  0  0  0
    1.0362   -1.6989    0.0000 C   0  0  0  0  0  0  0  0  0  0  0  0
   -0.4396   -1.4305    0.0000 C   0  0  0  0  0  0  0  0  0  0  0  0
  2  1  1  6
  2  3  1  0
  3  4  1  0
  4  5  1  0
  5  6  2  0
  5  7  1  0
  7  8  1  0
  8  9  1  0
  9 10  1  0
 10 11  2  0
 10 12  2  0
 10 13  1  0
  2 14  1  0
 14 15  1  6
 15 16  1  0
 17 16  1  6
 17 18  1  0
 18 19  1  1
 19 20  1  1
 19 21  1  0
 22 21  1  1
 22 23  1  0
 23 24  1  0
 24 25  2  0
 24 26  1  0
 26 27  1  0
 27 28  1  0
 28 29  1  6
 28 30  1  0
 30 31  1  6
 31 32  1  0
 32 33  1  1
 32 34  1  0
 34 35  1  6
 34 14  1  0
 34 17  1  0
 30 18  1  0
 28 22  1  0
M  END
>  <MS_ID>  (3454) 
MS3622

>  <SMILES>  (3454) 
C[C@H](CCC(=O)NCCS(=O)(=O)O)[C@H]1CC[C@H]2[C@@H]3[C@H](O)C[C@@H]4CC(=O)CC[C@]4(C)[C@H]3C[C@H](O)[C@]12C

>  <Structure_dimension>  (3454) 
2D

$$$$
MS3623
     RDKit          2D

 34 37  0  0  0  0  0  0  0  0999 V2000
   -2.0431   -4.2971    0.0000 C   0  0  0  0  0  0  0  0  0  0  0  0
   -1.3315   -2.9767    0.0000 C   0  0  0  0  0  0  0  0  0  0  0  0
   -2.1193   -1.7002    0.0000 C   0  0  0  0  0  0  0  0  0  0  0  0
   -3.6187   -1.7442    0.0000 C   0  0  0  0  0  0  0  0  0  0  0  0
   -4.4064   -0.4677    0.0000 C   0  0  0  0  0  0  0  0  0  0  0  0
   -3.6948    0.8528    0.0000 O   0  0  0  0  0  0  0  0  0  0  0  0
   -5.9058   -0.5117    0.0000 N   0  0  0  0  0  0  0  0  0  0  0  0
   -6.6936    0.7648    0.0000 C   0  0  0  0  0  0  0  0  0  0  0  0
   -8.1929    0.7208    0.0000 C   0  0  0  0  0  0  0  0  0  0  0  0
   -8.9807    1.9973    0.0000 S   0  0  0  0  0  0  0  0  0  0  0  0
  -10.2572    1.2096    0.0000 O   0  0  0  0  0  0  0  0  0  0  0  0
   -7.7042    2.7851    0.0000 O   0  0  0  0  0  0  0  0  0  0  0  0
   -9.7684    3.2738    0.0000 O   0  0  0  0  0  0  0  0  0  0  0  0
    0.1678   -2.9327    0.0000 C   0  0  0  0  0  0  0  0  0  0  0  0
    1.0847   -4.1198    0.0000 C   0  0  0  0  0  0  0  0  0  0  0  0
    2.4971   -3.6147    0.0000 C   0  0  0  0  0  0  0  0  0  0  0  0
    2.4531   -2.1153    0.0000 C   0  0  0  0  0  0  0  0  0  0  0  0
    3.5379   -1.0794    0.0000 C   0  0  0  0  0  0  0  0  0  0  0  0
    4.9775   -1.5009    0.0000 C   0  0  0  0  0  0  0  0  0  0  0  0
    5.3322   -2.9583    0.0000 O   0  0  0  0  0  0  0  0  0  0  0  0
    6.0623   -0.4649    0.0000 C   0  0  0  0  0  0  0  0  0  0  0  0
    5.7075    0.9925    0.0000 C   0  0  0  0  0  0  0  0  0  0  0  0
    6.7923    2.0285    0.0000 C   0  0  0  0  0  0  0  0  0  0  0  0
    6.4376    3.4859    0.0000 C   0  0  0  0  0  0  0  0  0  0  0  0
    7.5224    4.5219    0.0000 O   0  0  0  0  0  0  0  0  0  0  0  0
    4.9980    3.9074    0.0000 C   0  0  0  0  0  0  0  0  0  0  0  0
    3.9132    2.8715    0.0000 C   0  0  0  0  0  0  0  0  0  0  0  0
    4.2680    1.4140    0.0000 C   0  0  0  0  0  0  0  0  0  0  0  0
    2.8284    1.8355    0.0000 C   0  0  0  0  0  0  0  0  0  0  0  0
    3.1831    0.3781    0.0000 C   0  0  0  0  0  0  0  0  0  0  0  0
    1.7436    0.7996    0.0000 C   0  0  0  0  0  0  0  0  0  0  0  0
    0.6588   -0.2364    0.0000 C   0  0  0  0  0  0  0  0  0  0  0  0
    1.0135   -1.6938    0.0000 C   0  0  0  0  0  0  0  0  0  0  0  0
   -0.4622   -1.4251    0.0000 C   0  0  0  0  0  0  0  0  0  0  0  0
  2  1  1  6
  2  3  1  0
  3  4  1  0
  4  5  1  0
  5  6  2  0
  5  7  1  0
  7  8  1  0
  8  9  1  0
  9 10  1  0
 10 11  2  0
 10 12  2  0
 10 13  1  0
  2 14  1  0
 14 15  1  6
 15 16  1  0
 17 16  1  6
 17 18  1  0
 18 19  1  1
 19 20  1  1
 19 21  1  0
 22 21  1  1
 22 23  1  0
 23 24  1  0
 24 25  2  0
 24 26  1  0
 26 27  1  0
 27 28  1  0
 28 29  1  6
 28 30  1  0
 30 31  1  6
 31 32  1  0
 32 33  1  0
 33 34  1  6
 33 14  1  0
 33 17  1  0
 30 18  1  0
 28 22  1  0
M  END
>  <MS_ID>  (3455) 
MS3623

>  <SMILES>  (3455) 
C[C@H](CCC(=O)NCCS(=O)(=O)O)[C@H]1CC[C@H]2[C@@H]3[C@H](O)C[C@@H]4CC(=O)CC[C@]4(C)[C@H]3CC[C@]12C

>  <Structure_dimension>  (3455) 
2D

$$$$
MS3624
     RDKit          2D

 41 45  0  0  0  0  0  0  0  0999 V2000
   -0.3878   -4.9589    0.0000 C   0  0  0  0  0  0  0  0  0  0  0  0
    0.1348   -3.5529    0.0000 C   0  0  0  0  0  0  0  0  0  0  0  0
   -0.8215   -2.3973    0.0000 C   0  0  0  0  0  0  0  0  0  0  0  0
   -2.3004   -2.6477    0.0000 C   0  0  0  0  0  0  0  0  0  0  0  0
   -3.2567   -1.4921    0.0000 C   0  0  0  0  0  0  0  0  0  0  0  0
   -2.7341   -0.0861    0.0000 O   0  0  0  0  0  0  0  0  0  0  0  0
   -4.7357   -1.7424    0.0000 O   0  0  0  0  0  0  0  0  0  0  0  0
   -5.6920   -0.5868    0.0000 C   0  0  0  0  0  0  0  0  0  0  0  0
   -5.1693    0.8192    0.0000 O   0  0  0  0  0  0  0  0  0  0  0  0
   -6.1257    1.9748    0.0000 C   0  0  0  0  0  0  0  0  0  0  0  0
   -5.6030    3.3808    0.0000 C   0  0  0  0  0  0  0  0  0  0  0  0
   -6.5593    4.5365    0.0000 O   0  0  0  0  0  0  0  0  0  0  0  0
   -4.1241    3.6312    0.0000 O   0  0  0  0  0  0  0  0  0  0  0  0
   -7.6046    1.7245    0.0000 C   0  0  0  0  0  0  0  0  0  0  0  0
   -8.5609    2.8801    0.0000 O   0  0  0  0  0  0  0  0  0  0  0  0
   -8.1273    0.3185    0.0000 C   0  0  0  0  0  0  0  0  0  0  0  0
   -9.6062    0.0681    0.0000 O   0  0  0  0  0  0  0  0  0  0  0  0
   -7.1710   -0.8372    0.0000 C   0  0  0  0  0  0  0  0  0  0  0  0
   -7.6936   -2.2432    0.0000 O   0  0  0  0  0  0  0  0  0  0  0  0
    1.6138   -3.3026    0.0000 C   0  0  0  0  0  0  0  0  0  0  0  0
    2.6857   -4.3519    0.0000 C   0  0  0  0  0  0  0  0  0  0  0  0
    4.0149   -3.6568    0.0000 C   0  0  0  0  0  0  0  0  0  0  0  0
    3.7645   -2.1778    0.0000 C   0  0  0  0  0  0  0  0  0  0  0  0
    4.6960   -1.0021    0.0000 C   0  0  0  0  0  0  0  0  0  0  0  0
    6.1800   -1.2210    0.0000 C   0  0  0  0  0  0  0  0  0  0  0  0
    6.7324   -2.6156    0.0000 O   0  0  0  0  0  0  0  0  0  0  0  0
    7.1115   -0.0453    0.0000 C   0  0  0  0  0  0  0  0  0  0  0  0
    6.5591    1.3492    0.0000 C   0  0  0  0  0  0  0  0  0  0  0  0
    7.4907    2.5249    0.0000 C   0  0  0  0  0  0  0  0  0  0  0  0
    6.9383    3.9195    0.0000 C   0  0  0  0  0  0  0  0  0  0  0  0
    7.8698    5.0952    0.0000 O   0  0  0  0  0  0  0  0  0  0  0  0
    5.4543    4.1384    0.0000 C   0  0  0  0  0  0  0  0  0  0  0  0
    4.5228    2.9627    0.0000 C   0  0  0  0  0  0  0  0  0  0  0  0
    5.0752    1.5681    0.0000 C   0  0  0  0  0  0  0  0  0  0  0  0
    3.5912    1.7870    0.0000 C   0  0  0  0  0  0  0  0  0  0  0  0
    4.1436    0.3925    0.0000 C   0  0  0  0  0  0  0  0  0  0  0  0
    2.6597    0.6114    0.0000 C   0  0  0  0  0  0  0  0  0  0  0  0
    1.7282   -0.5643    0.0000 C   0  0  0  0  0  0  0  0  0  0  0  0
    0.2442   -0.3454    0.0000 O   0  0  0  0  0  0  0  0  0  0  0  0
    2.2805   -1.9589    0.0000 C   0  0  0  0  0  0  0  0  0  0  0  0
    0.7819   -1.8963    0.0000 C   0  0  0  0  0  0  0  0  0  0  0  0
  2  1  1  6
  2  3  1  0
  3  4  1  0
  4  5  1  0
  5  6  2  0
  5  7  1  0
  8  7  1  1
  8  9  1  0
  9 10  1  0
 10 11  1  1
 11 12  2  0
 11 13  1  0
 10 14  1  0
 14 15  1  6
 14 16  1  0
 16 17  1  1
 16 18  1  0
 18 19  1  6
  2 20  1  0
 20 21  1  6
 21 22  1  0
 23 22  1  6
 23 24  1  0
 24 25  1  1
 25 26  1  1
 25 27  1  0
 28 27  1  1
 28 29  1  0
 29 30  1  0
 30 31  1  1
 30 32  1  0
 32 33  1  0
 33 34  1  0
 34 35  1  6
 34 36  1  0
 36 37  1  6
 37 38  1  0
 38 39  1  1
 38 40  1  0
 40 41  1  6
 18  8  1  0
 40 20  1  0
 40 23  1  0
 36 24  1  0
 34 28  1  0
M  END
>  <MS_ID>  (3456) 
MS3624

>  <SMILES>  (3456) 
C[C@H](CCC(=O)O[C@@H]1O[C@H](C(=O)O)[C@@H](O)[C@H](O)[C@H]1O)[C@H]1CC[C@H]2[C@@H]3[C@H](O)C[C@@H]4C[C@H](O)CC[C@]4(C)[C@H]3C[C@H](O)[C@]12C

>  <Structure_dimension>  (3456) 
2D

$$$$
MS3626
     RDKit          2D

 29 32  0  0  0  0  0  0  0  0999 V2000
   -5.0926   -2.2535    0.0000 C   0  0  0  0  0  0  0  0  0  0  0  0
   -3.9364   -1.2979    0.0000 C   0  0  0  0  0  0  0  0  0  0  0  0
   -4.1859    0.1812    0.0000 C   0  0  0  0  0  0  0  0  0  0  0  0
   -5.5916    0.7047    0.0000 C   0  0  0  0  0  0  0  0  0  0  0  0
   -5.8411    2.1838    0.0000 C   0  0  0  0  0  0  0  0  0  0  0  0
   -4.6849    3.1394    0.0000 O   0  0  0  0  0  0  0  0  0  0  0  0
   -7.2468    2.7072    0.0000 O   0  0  0  0  0  0  0  0  0  0  0  0
   -2.5307   -1.8214    0.0000 C   0  0  0  0  0  0  0  0  0  0  0  0
   -2.1279   -3.2663    0.0000 C   0  0  0  0  0  0  0  0  0  0  0  0
   -0.6293   -3.3297    0.0000 C   0  0  0  0  0  0  0  0  0  0  0  0
   -0.1058   -1.9240    0.0000 C   0  0  0  0  0  0  0  0  0  0  0  0
    1.2891   -1.3724    0.0000 C   0  0  0  0  0  0  0  0  0  0  0  0
    2.4642   -2.3047    0.0000 C   0  0  0  0  0  0  0  0  0  0  0  0
    3.8591   -1.7531    0.0000 C   0  0  0  0  0  0  0  0  0  0  0  0
    5.0343   -2.6853    0.0000 O   0  0  0  0  0  0  0  0  0  0  0  0
    4.0789   -0.2693    0.0000 C   0  0  0  0  0  0  0  0  0  0  0  0
    5.4738    0.2823    0.0000 C   0  0  0  0  0  0  0  0  0  0  0  0
    5.6936    1.7661    0.0000 C   0  0  0  0  0  0  0  0  0  0  0  0
    7.0885    2.3177    0.0000 O   0  0  0  0  0  0  0  0  0  0  0  0
    4.5184    2.6984    0.0000 C   0  0  0  0  0  0  0  0  0  0  0  0
    3.1235    2.1468    0.0000 C   0  0  0  0  0  0  0  0  0  0  0  0
    2.9038    0.6630    0.0000 C   0  0  0  0  0  0  0  0  0  0  0  0
    1.7286    1.5952    0.0000 C   0  0  0  0  0  0  0  0  0  0  0  0
    1.5089    0.1114    0.0000 C   0  0  0  0  0  0  0  0  0  0  0  0
    0.3337    1.0436    0.0000 C   0  0  0  0  0  0  0  0  0  0  0  0
   -1.0612    0.4920    0.0000 C   0  0  0  0  0  0  0  0  0  0  0  0
   -2.2363    1.4242    0.0000 O   0  0  0  0  0  0  0  0  0  0  0  0
   -1.2809   -0.9918    0.0000 C   0  0  0  0  0  0  0  0  0  0  0  0
   -2.5471   -0.1875    0.0000 C   0  0  0  0  0  0  0  0  0  0  0  0
  2  1  1  6
  2  3  1  0
  3  4  1  0
  4  5  1  0
  5  6  2  0
  5  7  1  0
  2  8  1  0
  8  9  1  6
  9 10  1  0
 11 10  1  6
 11 12  1  0
 12 13  1  1
 13 14  1  0
 14 15  1  6
 14 16  1  0
 16 17  1  1
 17 18  1  0
 18 19  1  1
 18 20  1  0
 20 21  1  0
 21 22  1  0
 22 23  1  6
 22 24  1  0
 24 25  1  6
 25 26  1  0
 26 27  1  1
 26 28  1  0
 28 29  1  6
 28  8  1  0
 28 11  1  0
 24 12  1  0
 22 16  1  0
M  END
>  <MS_ID>  (3457) 
MS3626

>  <SMILES>  (3457) 
C[C@H](CCC(=O)O)[C@H]1CC[C@H]2[C@@H]3C[C@@H](O)[C@@H]4C[C@H](O)CC[C@]4(C)[C@H]3C[C@H](O)[C@]12C

>  <Structure_dimension>  (3457) 
2D

$$$$
MS3627
     RDKit          2D

 35 38  0  0  0  0  0  0  0  0999 V2000
   -2.0200   -4.3028    0.0000 C   0  0  0  0  0  0  0  0  0  0  0  0
   -1.3087   -2.9822    0.0000 C   0  0  0  0  0  0  0  0  0  0  0  0
   -2.0967   -1.7059    0.0000 C   0  0  0  0  0  0  0  0  0  0  0  0
   -3.5960   -1.7502    0.0000 C   0  0  0  0  0  0  0  0  0  0  0  0
   -4.3840   -0.4738    0.0000 C   0  0  0  0  0  0  0  0  0  0  0  0
   -3.6727    0.8468    0.0000 O   0  0  0  0  0  0  0  0  0  0  0  0
   -5.8834   -0.5181    0.0000 N   0  0  0  0  0  0  0  0  0  0  0  0
   -6.6714    0.7582    0.0000 C   0  0  0  0  0  0  0  0  0  0  0  0
   -8.1707    0.7140    0.0000 C   0  0  0  0  0  0  0  0  0  0  0  0
   -8.9588    1.9903    0.0000 S   0  0  0  0  0  0  0  0  0  0  0  0
  -10.2351    1.2023    0.0000 O   0  0  0  0  0  0  0  0  0  0  0  0
   -7.6824    2.7783    0.0000 O   0  0  0  0  0  0  0  0  0  0  0  0
   -9.7468    3.2667    0.0000 O   0  0  0  0  0  0  0  0  0  0  0  0
    0.1907   -2.9379    0.0000 C   0  0  0  0  0  0  0  0  0  0  0  0
    1.1078   -4.1249    0.0000 C   0  0  0  0  0  0  0  0  0  0  0  0
    2.5201   -3.6195    0.0000 C   0  0  0  0  0  0  0  0  0  0  0  0
    2.4758   -2.1201    0.0000 C   0  0  0  0  0  0  0  0  0  0  0  0
    3.5604   -1.0840    0.0000 C   0  0  0  0  0  0  0  0  0  0  0  0
    5.0001   -1.5052    0.0000 C   0  0  0  0  0  0  0  0  0  0  0  0
    5.3551   -2.9626    0.0000 O   0  0  0  0  0  0  0  0  0  0  0  0
    6.0847   -0.4691    0.0000 C   0  0  0  0  0  0  0  0  0  0  0  0
    5.7296    0.9883    0.0000 C   0  0  0  0  0  0  0  0  0  0  0  0
    6.8142    2.0245    0.0000 C   0  0  0  0  0  0  0  0  0  0  0  0
    6.4592    3.4819    0.0000 C   0  0  0  0  0  0  0  0  0  0  0  0
    7.5438    4.5180    0.0000 O   0  0  0  0  0  0  0  0  0  0  0  0
    5.0196    3.9031    0.0000 C   0  0  0  0  0  0  0  0  0  0  0  0
    3.9350    2.8669    0.0000 C   0  0  0  0  0  0  0  0  0  0  0  0
    4.2900    1.4095    0.0000 C   0  0  0  0  0  0  0  0  0  0  0  0
    2.8503    1.8308    0.0000 C   0  0  0  0  0  0  0  0  0  0  0  0
    3.2054    0.3734    0.0000 C   0  0  0  0  0  0  0  0  0  0  0  0
    1.7657    0.7946    0.0000 C   0  0  0  0  0  0  0  0  0  0  0  0
    0.6811   -0.2416    0.0000 C   0  0  0  0  0  0  0  0  0  0  0  0
   -0.7585    0.1797    0.0000 O   0  0  0  0  0  0  0  0  0  0  0  0
    1.0362   -1.6989    0.0000 C   0  0  0  0  0  0  0  0  0  0  0  0
   -0.4396   -1.4305    0.0000 C   0  0  0  0  0  0  0  0  0  0  0  0
  2  1  1  6
  2  3  1  0
  3  4  1  0
  4  5  1  0
  5  6  2  0
  5  7  1  0
  7  8  1  0
  8  9  1  0
  9 10  1  0
 10 11  2  0
 10 12  2  0
 10 13  1  0
  2 14  1  0
 14 15  1  6
 15 16  1  0
 17 16  1  6
 17 18  1  0
 18 19  1  1
 19 20  1  1
 19 21  1  0
 22 21  1  6
 22 23  1  0
 23 24  1  0
 24 25  1  6
 24 26  1  0
 26 27  1  0
 27 28  1  0
 28 29  1  6
 28 30  1  0
 30 31  1  6
 31 32  1  0
 32 33  1  1
 32 34  1  0
 34 35  1  6
 34 14  1  0
 34 17  1  0
 30 18  1  0
 28 22  1  0
M  END
>  <MS_ID>  (3458) 
MS3627

>  <SMILES>  (3458) 
C[C@H](CCC(=O)NCCS(=O)(=O)O)[C@H]1CC[C@H]2[C@@H]3[C@H](O)C[C@H]4C[C@@H](O)CC[C@]4(C)[C@H]3C[C@H](O)[C@]12C

>  <Structure_dimension>  (3458) 
2D

$$$$
MS3628
     RDKit          2D

 43 48  0  0  0  0  0  0  0  0999 V2000
    0.2606   -4.8250    0.0000 C   0  0  0  0  0  0  0  0  0  0  0  0
    0.7909   -3.4219    0.0000 C   0  0  0  0  0  0  0  0  0  0  0  0
   -0.1591   -2.2611    0.0000 C   0  0  0  0  0  0  0  0  0  0  0  0
   -1.6394   -2.5033    0.0000 C   0  0  0  0  0  0  0  0  0  0  0  0
   -2.5894   -1.3425    0.0000 C   0  0  0  0  0  0  0  0  0  0  0  0
   -2.0591    0.0606    0.0000 O   0  0  0  0  0  0  0  0  0  0  0  0
   -4.0697   -1.5848    0.0000 N   0  0  0  0  0  0  0  0  0  0  0  0
   -5.0197   -0.4240    0.0000 C   0  0  0  0  0  0  0  0  0  0  0  0
   -6.5000   -0.6663    0.0000 C   0  0  0  0  0  0  0  0  0  0  0  0
   -7.4500    0.4945    0.0000 C   0  0  0  0  0  0  0  0  0  0  0  0
   -7.0692    1.9454    0.0000 C   0  0  0  0  0  0  0  0  0  0  0  0
   -8.3314    2.7559    0.0000 N   0  0  0  0  0  0  0  0  0  0  0  0
   -9.4923    1.8059    0.0000 C   0  0  0  0  0  0  0  0  0  0  0  0
  -10.9750    2.0329    0.0000 C   0  0  0  0  0  0  0  0  0  0  0  0
  -11.9129    0.8623    0.0000 C   0  0  0  0  0  0  0  0  0  0  0  0
  -11.3682   -0.5353    0.0000 C   0  0  0  0  0  0  0  0  0  0  0  0
   -9.8854   -0.7623    0.0000 C   0  0  0  0  0  0  0  0  0  0  0  0
   -8.9475    0.4083    0.0000 C   0  0  0  0  0  0  0  0  0  0  0  0
   -4.4894    0.9791    0.0000 C   0  0  0  0  0  0  0  0  0  0  0  0
   -3.0091    1.2214    0.0000 O   0  0  0  0  0  0  0  0  0  0  0  0
   -5.4394    2.1400    0.0000 O   0  0  0  0  0  0  0  0  0  0  0  0
    2.2712   -3.1796    0.0000 C   0  0  0  0  0  0  0  0  0  0  0  0
    3.3373   -4.2348    0.0000 C   0  0  0  0  0  0  0  0  0  0  0  0
    4.6703   -3.5469    0.0000 C   0  0  0  0  0  0  0  0  0  0  0  0
    4.4280   -2.0666    0.0000 C   0  0  0  0  0  0  0  0  0  0  0  0
    5.3659   -0.8960    0.0000 C   0  0  0  0  0  0  0  0  0  0  0  0
    6.8487   -1.1230    0.0000 C   0  0  0  0  0  0  0  0  0  0  0  0
    7.3934   -2.5206    0.0000 O   0  0  0  0  0  0  0  0  0  0  0  0
    7.7866    0.0476    0.0000 C   0  0  0  0  0  0  0  0  0  0  0  0
    9.2693   -0.1794    0.0000 O   0  0  0  0  0  0  0  0  0  0  0  0
    7.2418    1.4452    0.0000 C   0  0  0  0  0  0  0  0  0  0  0  0
    8.1798    2.6157    0.0000 C   0  0  0  0  0  0  0  0  0  0  0  0
    7.6350    4.0133    0.0000 C   0  0  0  0  0  0  0  0  0  0  0  0
    8.5730    5.1839    0.0000 O   0  0  0  0  0  0  0  0  0  0  0  0
    6.1523    4.2403    0.0000 C   0  0  0  0  0  0  0  0  0  0  0  0
    5.2143    3.0697    0.0000 C   0  0  0  0  0  0  0  0  0  0  0  0
    5.7591    1.6722    0.0000 C   0  0  0  0  0  0  0  0  0  0  0  0
    4.2764    1.8992    0.0000 C   0  0  0  0  0  0  0  0  0  0  0  0
    4.8212    0.5016    0.0000 C   0  0  0  0  0  0  0  0  0  0  0  0
    3.3384    0.7286    0.0000 C   0  0  0  0  0  0  0  0  0  0  0  0
    2.4005   -0.4420    0.0000 C   0  0  0  0  0  0  0  0  0  0  0  0
    2.9453   -1.8396    0.0000 C   0  0  0  0  0  0  0  0  0  0  0  0
    1.4469   -1.7688    0.0000 C   0  0  0  0  0  0  0  0  0  0  0  0
  2  1  1  6
  2  3  1  0
  3  4  1  0
  4  5  1  0
  5  6  2  0
  5  7  1  0
  7  8  1  0
  8  9  1  1
  9 10  1  0
 10 11  2  0
 11 12  1  0
 12 13  1  0
 13 14  2  0
 14 15  1  0
 15 16  2  0
 16 17  1  0
 17 18  2  0
  8 19  1  0
 19 20  2  0
 19 21  1  0
  2 22  1  0
 22 23  1  6
 23 24  1  0
 25 24  1  6
 25 26  1  0
 26 27  1  1
 27 28  1  1
 27 29  1  0
 29 30  1  1
 29 31  1  0
 31 32  1  1
 32 33  1  0
 33 34  1  1
 33 35  1  0
 35 36  1  0
 36 37  1  0
 37 38  1  6
 37 39  1  0
 39 40  1  6
 40 41  1  0
 41 42  1  0
 42 43  1  6
 18 10  1  0
 42 22  1  0
 18 13  1  0
 42 25  1  0
 39 26  1  0
 37 31  1  0
M  END
>  <MS_ID>  (3459) 
MS3628

>  <SMILES>  (3459) 
C[C@H](CCC(=O)N[C@@H](Cc1c[nH]c2ccccc12)C(=O)O)[C@H]1CC[C@H]2[C@@H]3[C@H](O)[C@H](O)[C@@H]4C[C@H](O)CC[C@]4(C)[C@H]3CC[C@]12C

>  <Structure_dimension>  (3459) 
2D

$$$$
MS3629
     RDKit          2D

 32 35  0  0  0  0  0  0  0  0999 V2000
   -1.5212   -4.2928    0.0000 C   0  0  0  0  0  0  0  0  0  0  0  0
   -0.8471   -2.9528    0.0000 C   0  0  0  0  0  0  0  0  0  0  0  0
   -1.6705   -1.6990    0.0000 C   0  0  0  0  0  0  0  0  0  0  0  0
   -3.1680   -1.7852    0.0000 C   0  0  0  0  0  0  0  0  0  0  0  0
   -3.9914   -0.5313    0.0000 C   0  0  0  0  0  0  0  0  0  0  0  0
   -3.3172    0.8086    0.0000 O   0  0  0  0  0  0  0  0  0  0  0  0
   -5.4889   -0.6175    0.0000 N   0  0  0  0  0  0  0  0  0  0  0  0
   -6.3123    0.6363    0.0000 C   0  0  0  0  0  0  0  0  0  0  0  0
   -7.8098    0.5502    0.0000 C   0  0  0  0  0  0  0  0  0  0  0  0
   -8.6331    1.8040    0.0000 S   0  0  0  0  0  0  0  0  0  0  0  0
   -9.8870    0.9806    0.0000 O   0  0  0  0  0  0  0  0  0  0  0  0
   -7.3793    2.6274    0.0000 O   0  0  0  0  0  0  0  0  0  0  0  0
   -9.4565    3.0578    0.0000 O   0  0  0  0  0  0  0  0  0  0  0  0
    0.6504   -2.8667    0.0000 C   0  0  0  0  0  0  0  0  0  0  0  0
    1.6004   -4.0276    0.0000 C   0  0  0  0  0  0  0  0  0  0  0  0
    2.9980   -3.4829    0.0000 C   0  0  0  0  0  0  0  0  0  0  0  0
    2.9118   -1.9853    0.0000 C   0  0  0  0  0  0  0  0  0  0  0  0
    3.9670   -0.9193    0.0000 C   0  0  0  0  0  0  0  0  0  0  0  0
    5.4179   -1.3001    0.0000 C   0  0  0  0  0  0  0  0  0  0  0  0
    6.4731   -0.2340    0.0000 C   0  0  0  0  0  0  0  0  0  0  0  0
    6.0775    1.2128    0.0000 C   0  0  0  0  0  0  0  0  0  0  0  0
    7.1327    2.2789    0.0000 C   0  0  0  0  0  0  0  0  0  0  0  0
    6.7371    3.7258    0.0000 C   0  0  0  0  0  0  0  0  0  0  0  0
    5.2863    4.1066    0.0000 C   0  0  0  0  0  0  0  0  0  0  0  0
    4.2310    3.0406    0.0000 C   0  0  0  0  0  0  0  0  0  0  0  0
    4.6267    1.5937    0.0000 C   0  0  0  0  0  0  0  0  0  0  0  0
    3.1758    1.9745    0.0000 C   0  0  0  0  0  0  0  0  0  0  0  0
    3.5714    0.5276    0.0000 C   0  0  0  0  0  0  0  0  0  0  0  0
    2.1206    0.9084    0.0000 C   0  0  0  0  0  0  0  0  0  0  0  0
    1.0653   -0.1576    0.0000 C   0  0  0  0  0  0  0  0  0  0  0  0
    1.4610   -1.6045    0.0000 C   0  0  0  0  0  0  0  0  0  0  0  0
   -0.0218   -1.3774    0.0000 C   0  0  0  0  0  0  0  0  0  0  0  0
  2  1  1  6
  2  3  1  0
  3  4  1  0
  4  5  1  0
  5  6  2  0
  5  7  1  0
  7  8  1  0
  8  9  1  0
  9 10  1  0
 10 11  2  0
 10 12  2  0
 10 13  1  0
  2 14  1  0
 14 15  1  6
 15 16  1  0
 17 16  1  6
 17 18  1  0
 18 19  1  1
 19 20  1  0
 21 20  1  1
 21 22  1  0
 22 23  1  0
 23 24  1  0
 24 25  1  0
 25 26  1  0
 26 27  1  6
 26 28  1  0
 28 29  1  6
 29 30  1  0
 30 31  1  0
 31 32  1  6
 31 14  1  0
 31 17  1  0
 28 18  1  0
 26 21  1  0
M  END
>  <MS_ID>  (3460) 
MS3629

>  <SMILES>  (3460) 
C[C@H](CCC(=O)NCCS(=O)(=O)O)[C@H]1CC[C@H]2[C@@H]3CC[C@@H]4CCCC[C@]4(C)[C@H]3CC[C@]12C

>  <Structure_dimension>  (3460) 
2D

$$$$
MS3631
     RDKit          2D

 29 32  0  0  0  0  0  0  0  0999 V2000
    5.2401    2.0328    0.0000 C   0  0  0  0  0  0  0  0  0  0  0  0
    4.0410    1.1316    0.0000 C   0  0  0  0  0  0  0  0  0  0  0  0
    4.2220   -0.3575    0.0000 C   0  0  0  0  0  0  0  0  0  0  0  0
    5.6020   -0.9453    0.0000 C   0  0  0  0  0  0  0  0  0  0  0  0
    5.7830   -2.4343    0.0000 C   0  0  0  0  0  0  0  0  0  0  0  0
    4.5839   -3.3355    0.0000 O   0  0  0  0  0  0  0  0  0  0  0  0
    7.1630   -3.0221    0.0000 O   0  0  0  0  0  0  0  0  0  0  0  0
    2.6610    1.7194    0.0000 C   0  0  0  0  0  0  0  0  0  0  0  0
    2.3254    3.1813    0.0000 C   0  0  0  0  0  0  0  0  0  0  0  0
    0.8312    3.3139    0.0000 C   0  0  0  0  0  0  0  0  0  0  0  0
    0.2434    1.9339    0.0000 C   0  0  0  0  0  0  0  0  0  0  0  0
   -1.1754    1.4473    0.0000 C   0  0  0  0  0  0  0  0  0  0  0  0
   -2.3063    2.4327    0.0000 C   0  0  0  0  0  0  0  0  0  0  0  0
   -2.0183    3.9048    0.0000 O   0  0  0  0  0  0  0  0  0  0  0  0
   -3.7252    1.9461    0.0000 C   0  0  0  0  0  0  0  0  0  0  0  0
   -4.0132    0.4740    0.0000 C   0  0  0  0  0  0  0  0  0  0  0  0
   -5.4321   -0.0126    0.0000 C   0  0  0  0  0  0  0  0  0  0  0  0
   -5.7201   -1.4846    0.0000 C   0  0  0  0  0  0  0  0  0  0  0  0
   -7.1390   -1.9713    0.0000 O   0  0  0  0  0  0  0  0  0  0  0  0
   -4.5892   -2.4701    0.0000 C   0  0  0  0  0  0  0  0  0  0  0  0
   -3.1704   -1.9835    0.0000 C   0  0  0  0  0  0  0  0  0  0  0  0
   -2.0395   -2.9690    0.0000 O   0  0  0  0  0  0  0  0  0  0  0  0
   -2.8823   -0.5114    0.0000 C   0  0  0  0  0  0  0  0  0  0  0  0
   -1.7515   -1.4969    0.0000 C   0  0  0  0  0  0  0  0  0  0  0  0
   -1.4635   -0.0248    0.0000 C   0  0  0  0  0  0  0  0  0  0  0  0
   -0.3326   -1.0103    0.0000 C   0  0  0  0  0  0  0  0  0  0  0  0
    1.0863   -0.5237    0.0000 C   0  0  0  0  0  0  0  0  0  0  0  0
    1.3743    0.9484    0.0000 C   0  0  0  0  0  0  0  0  0  0  0  0
    2.6020    0.0865    0.0000 C   0  0  0  0  0  0  0  0  0  0  0  0
  2  1  1  6
  2  3  1  0
  3  4  1  0
  4  5  1  0
  5  6  2  0
  5  7  1  0
  2  8  1  0
  8  9  1  6
  9 10  1  0
 11 10  1  6
 11 12  1  0
 12 13  1  1
 13 14  1  6
 13 15  1  0
 16 15  1  1
 16 17  1  0
 17 18  1  0
 18 19  1  1
 18 20  1  0
 20 21  1  0
 21 22  1  6
 21 23  1  0
 23 24  1  6
 23 25  1  0
 25 26  1  6
 26 27  1  0
 27 28  1  0
 28 29  1  6
 28  8  1  0
 28 11  1  0
 25 12  1  0
 23 16  1  0
M  END
>  <MS_ID>  (3461) 
MS3631

>  <SMILES>  (3461) 
C[C@H](CCC(=O)O)[C@H]1CC[C@H]2[C@@H]3[C@@H](O)C[C@@H]4C[C@H](O)C[C@@H](O)[C@]4(C)[C@H]3CC[C@]12C

>  <Structure_dimension>  (3461) 
2D

$$$$
MS3634
     RDKit          2D

 30 33  0  0  0  0  0  0  0  0999 V2000
    5.3223    1.9557    0.0000 C   0  0  0  0  0  0  0  0  0  0  0  0
    4.0965    1.0911    0.0000 C   0  0  0  0  0  0  0  0  0  0  0  0
    4.2324   -0.4028    0.0000 C   0  0  0  0  0  0  0  0  0  0  0  0
    5.5941   -1.0320    0.0000 C   0  0  0  0  0  0  0  0  0  0  0  0
    5.7300   -2.5258    0.0000 C   0  0  0  0  0  0  0  0  0  0  0  0
    4.5043   -3.3904    0.0000 O   0  0  0  0  0  0  0  0  0  0  0  0
    7.0916   -3.1550    0.0000 O   0  0  0  0  0  0  0  0  0  0  0  0
    2.7349    1.7203    0.0000 C   0  0  0  0  0  0  0  0  0  0  0  0
    2.4436    3.1917    0.0000 C   0  0  0  0  0  0  0  0  0  0  0  0
    0.9541    3.3694    0.0000 C   0  0  0  0  0  0  0  0  0  0  0  0
    0.3249    2.0077    0.0000 C   0  0  0  0  0  0  0  0  0  0  0  0
   -1.1080    1.5642    0.0000 C   0  0  0  0  0  0  0  0  0  0  0  0
   -2.2086    2.5834    0.0000 C   0  0  0  0  0  0  0  0  0  0  0  0
   -1.8762    4.0461    0.0000 O   0  0  0  0  0  0  0  0  0  0  0  0
   -3.6415    2.1399    0.0000 C   0  0  0  0  0  0  0  0  0  0  0  0
   -3.9739    0.6772    0.0000 C   0  0  0  0  0  0  0  0  0  0  0  0
   -5.4068    0.2336    0.0000 C   0  0  0  0  0  0  0  0  0  0  0  0
   -5.7392   -1.2291    0.0000 C   0  0  0  0  0  0  0  0  0  0  0  0
   -7.1721   -1.6726    0.0000 O   0  0  0  0  0  0  0  0  0  0  0  0
   -4.6386   -2.2483    0.0000 C   0  0  0  0  0  0  0  0  0  0  0  0
   -4.9710   -3.7110    0.0000 O   0  0  0  0  0  0  0  0  0  0  0  0
   -3.2057   -1.8047    0.0000 C   0  0  0  0  0  0  0  0  0  0  0  0
   -2.8733   -0.3420    0.0000 C   0  0  0  0  0  0  0  0  0  0  0  0
   -1.7727   -1.3612    0.0000 C   0  0  0  0  0  0  0  0  0  0  0  0
   -1.4404    0.1015    0.0000 C   0  0  0  0  0  0  0  0  0  0  0  0
   -0.3398   -0.9177    0.0000 C   0  0  0  0  0  0  0  0  0  0  0  0
    1.0931   -0.4742    0.0000 C   0  0  0  0  0  0  0  0  0  0  0  0
    2.1937   -1.4934    0.0000 O   0  0  0  0  0  0  0  0  0  0  0  0
    1.4255    0.9885    0.0000 C   0  0  0  0  0  0  0  0  0  0  0  0
    2.6266    0.0900    0.0000 C   0  0  0  0  0  0  0  0  0  0  0  0
  2  1  1  6
  2  3  1  0
  3  4  1  0
  4  5  1  0
  5  6  2  0
  5  7  1  0
  2  8  1  0
  8  9  1  6
  9 10  1  0
 11 10  1  6
 11 12  1  0
 12 13  1  1
 13 14  1  1
 13 15  1  0
 16 15  1  1
 16 17  1  0
 17 18  1  0
 18 19  1  1
 18 20  1  0
 20 21  1  1
 20 22  1  0
 22 23  1  0
 23 24  1  6
 23 25  1  0
 25 26  1  6
 26 27  1  0
 27 28  1  1
 27 29  1  0
 29 30  1  6
 29  8  1  0
 29 11  1  0
 25 12  1  0
 23 16  1  0
M  END
>  <MS_ID>  (3462) 
MS3634

>  <SMILES>  (3462) 
C[C@H](CCC(=O)O)[C@H]1CC[C@H]2[C@@H]3[C@H](O)C[C@@H]4C[C@H](O)[C@H](O)C[C@]4(C)[C@H]3C[C@H](O)[C@]12C

>  <Structure_dimension>  (3462) 
2D

$$$$
MS3636
     RDKit          2D

 40 44  0  0  0  0  0  0  0  0999 V2000
   -8.0742   -2.1752    0.0000 C   0  0  0  0  0  0  0  0  0  0  0  0
   -6.9211   -1.2159    0.0000 C   0  0  0  0  0  0  0  0  0  0  0  0
   -7.1753    0.2624    0.0000 C   0  0  0  0  0  0  0  0  0  0  0  0
   -8.5827    0.7814    0.0000 C   0  0  0  0  0  0  0  0  0  0  0  0
   -8.8369    2.2597    0.0000 C   0  0  0  0  0  0  0  0  0  0  0  0
   -7.6838    3.2190    0.0000 O   0  0  0  0  0  0  0  0  0  0  0  0
  -10.2443    2.7786    0.0000 O   0  0  0  0  0  0  0  0  0  0  0  0
   -5.5137   -1.7349    0.0000 C   0  0  0  0  0  0  0  0  0  0  0  0
   -5.1064   -3.1785    0.0000 C   0  0  0  0  0  0  0  0  0  0  0  0
   -3.6075   -3.2371    0.0000 C   0  0  0  0  0  0  0  0  0  0  0  0
   -3.0885   -1.8298    0.0000 C   0  0  0  0  0  0  0  0  0  0  0  0
   -1.6954   -1.2737    0.0000 C   0  0  0  0  0  0  0  0  0  0  0  0
   -0.5173   -2.2022    0.0000 C   0  0  0  0  0  0  0  0  0  0  0  0
    0.8758   -1.6462    0.0000 C   0  0  0  0  0  0  0  0  0  0  0  0
    2.0540   -2.5746    0.0000 O   0  0  0  0  0  0  0  0  0  0  0  0
    1.0909   -0.1616    0.0000 C   0  0  0  0  0  0  0  0  0  0  0  0
    2.4840    0.3944    0.0000 C   0  0  0  0  0  0  0  0  0  0  0  0
    2.6990    1.8789    0.0000 C   0  0  0  0  0  0  0  0  0  0  0  0
    4.0921    2.4349    0.0000 O   0  0  0  0  0  0  0  0  0  0  0  0
    5.2703    1.5065    0.0000 C   0  0  0  0  0  0  0  0  0  0  0  0
    5.0552    0.0220    0.0000 O   0  0  0  0  0  0  0  0  0  0  0  0
    6.2334   -0.9065    0.0000 C   0  0  0  0  0  0  0  0  0  0  0  0
    6.0183   -2.3910    0.0000 C   0  0  0  0  0  0  0  0  0  0  0  0
    7.1964   -3.3195    0.0000 O   0  0  0  0  0  0  0  0  0  0  0  0
    4.6252   -2.9470    0.0000 O   0  0  0  0  0  0  0  0  0  0  0  0
    7.6265   -0.3505    0.0000 C   0  0  0  0  0  0  0  0  0  0  0  0
    8.8046   -1.2789    0.0000 O   0  0  0  0  0  0  0  0  0  0  0  0
    7.8415    1.1341    0.0000 C   0  0  0  0  0  0  0  0  0  0  0  0
    9.2346    1.6901    0.0000 O   0  0  0  0  0  0  0  0  0  0  0  0
    6.6634    2.0625    0.0000 C   0  0  0  0  0  0  0  0  0  0  0  0
    6.8784    3.5470    0.0000 O   0  0  0  0  0  0  0  0  0  0  0  0
    1.5209    2.8074    0.0000 C   0  0  0  0  0  0  0  0  0  0  0  0
    0.1278    2.2513    0.0000 C   0  0  0  0  0  0  0  0  0  0  0  0
   -0.0873    0.7668    0.0000 C   0  0  0  0  0  0  0  0  0  0  0  0
   -1.2654    1.6953    0.0000 C   0  0  0  0  0  0  0  0  0  0  0  0
   -1.4804    0.2108    0.0000 C   0  0  0  0  0  0  0  0  0  0  0  0
   -2.6585    1.1392    0.0000 C   0  0  0  0  0  0  0  0  0  0  0  0
   -4.0516    0.5832    0.0000 C   0  0  0  0  0  0  0  0  0  0  0  0
   -4.2666   -0.9013    0.0000 C   0  0  0  0  0  0  0  0  0  0  0  0
   -5.5354   -0.1011    0.0000 C   0  0  0  0  0  0  0  0  0  0  0  0
  2  1  1  6
  2  3  1  0
  3  4  1  0
  4  5  1  0
  5  6  2  0
  5  7  1  0
  2  8  1  0
  8  9  1  6
  9 10  1  0
 11 10  1  6
 11 12  1  0
 12 13  1  1
 13 14  1  0
 14 15  1  1
 14 16  1  0
 16 17  1  1
 17 18  1  0
 18 19  1  1
 20 19  1  1
 20 21  1  0
 21 22  1  0
 22 23  1  1
 23 24  2  0
 23 25  1  0
 22 26  1  0
 26 27  1  6
 26 28  1  0
 28 29  1  1
 28 30  1  0
 30 31  1  6
 18 32  1  0
 32 33  1  0
 33 34  1  0
 34 35  1  6
 34 36  1  0
 36 37  1  6
 37 38  1  0
 38 39  1  0
 39 40  1  6
 39  8  1  0
 39 11  1  0
 36 12  1  0
 34 16  1  0
 30 20  1  0
M  END
>  <MS_ID>  (3463) 
MS3636

>  <SMILES>  (3463) 
C[C@H](CCC(=O)O)[C@H]1CC[C@H]2[C@@H]3C[C@H](O)[C@@H]4C[C@H](O[C@@H]5O[C@H](C(=O)O)[C@@H](O)[C@H](O)[C@H]5O)CC[C@]4(C)[C@H]3CC[C@]12C

>  <Structure_dimension>  (3463) 
2D

$$$$
MS3638
     RDKit          2D

 34 37  0  0  0  0  0  0  0  0999 V2000
   -1.5857   -4.2552    0.0000 C   0  0  0  0  0  0  0  0  0  0  0  0
   -0.9419   -2.9005    0.0000 C   0  0  0  0  0  0  0  0  0  0  0  0
   -1.7932   -1.6655    0.0000 C   0  0  0  0  0  0  0  0  0  0  0  0
   -3.2884   -1.7852    0.0000 C   0  0  0  0  0  0  0  0  0  0  0  0
   -4.1397   -0.5502    0.0000 C   0  0  0  0  0  0  0  0  0  0  0  0
   -3.4958    0.8046    0.0000 O   0  0  0  0  0  0  0  0  0  0  0  0
   -5.6349   -0.6699    0.0000 N   0  0  0  0  0  0  0  0  0  0  0  0
   -6.4862    0.5651    0.0000 C   0  0  0  0  0  0  0  0  0  0  0  0
   -7.9814    0.4453    0.0000 C   0  0  0  0  0  0  0  0  0  0  0  0
   -8.8327    1.6803    0.0000 S   0  0  0  0  0  0  0  0  0  0  0  0
  -10.0678    0.8290    0.0000 O   0  0  0  0  0  0  0  0  0  0  0  0
   -7.5977    2.5316    0.0000 O   0  0  0  0  0  0  0  0  0  0  0  0
   -9.6841    2.9153    0.0000 O   0  0  0  0  0  0  0  0  0  0  0  0
    0.5534   -2.7807    0.0000 C   0  0  0  0  0  0  0  0  0  0  0  0
    1.5291   -3.9200    0.0000 C   0  0  0  0  0  0  0  0  0  0  0  0
    2.9141   -3.3440    0.0000 C   0  0  0  0  0  0  0  0  0  0  0  0
    2.7944   -1.8488    0.0000 C   0  0  0  0  0  0  0  0  0  0  0  0
    3.8254   -0.7593    0.0000 C   0  0  0  0  0  0  0  0  0  0  0  0
    5.2844   -1.1075    0.0000 C   0  0  0  0  0  0  0  0  0  0  0  0
    5.7125   -2.5451    0.0000 O   0  0  0  0  0  0  0  0  0  0  0  0
    6.3155   -0.0180    0.0000 C   0  0  0  0  0  0  0  0  0  0  0  0
    5.8875    1.4196    0.0000 C   0  0  0  0  0  0  0  0  0  0  0  0
    6.9185    2.5091    0.0000 C   0  0  0  0  0  0  0  0  0  0  0  0
    6.4905    3.9468    0.0000 C   0  0  0  0  0  0  0  0  0  0  0  0
    5.0314    4.2949    0.0000 C   0  0  0  0  0  0  0  0  0  0  0  0
    4.0004    3.2054    0.0000 C   0  0  0  0  0  0  0  0  0  0  0  0
    4.4284    1.7678    0.0000 C   0  0  0  0  0  0  0  0  0  0  0  0
    2.9694    2.1159    0.0000 C   0  0  0  0  0  0  0  0  0  0  0  0
    3.3974    0.6783    0.0000 C   0  0  0  0  0  0  0  0  0  0  0  0
    1.9384    1.0265    0.0000 C   0  0  0  0  0  0  0  0  0  0  0  0
    0.9073   -0.0630    0.0000 C   0  0  0  0  0  0  0  0  0  0  0  0
   -0.5517    0.2851    0.0000 O   0  0  0  0  0  0  0  0  0  0  0  0
    1.3353   -1.5007    0.0000 C   0  0  0  0  0  0  0  0  0  0  0  0
   -0.1521   -1.3069    0.0000 C   0  0  0  0  0  0  0  0  0  0  0  0
  2  1  1  6
  2  3  1  0
  3  4  1  0
  4  5  1  0
  5  6  2  0
  5  7  1  0
  7  8  1  0
  8  9  1  0
  9 10  1  0
 10 11  2  0
 10 12  2  0
 10 13  1  0
  2 14  1  0
 14 15  1  6
 15 16  1  0
 17 16  1  6
 17 18  1  0
 18 19  1  1
 19 20  1  1
 19 21  1  0
 22 21  1  1
 22 23  1  0
 23 24  1  0
 24 25  1  0
 25 26  1  0
 26 27  1  0
 27 28  1  6
 27 29  1  0
 29 30  1  6
 30 31  1  0
 31 32  1  1
 31 33  1  0
 33 34  1  6
 33 14  1  0
 33 17  1  0
 29 18  1  0
 27 22  1  0
M  END
>  <MS_ID>  (3464) 
MS3638

>  <SMILES>  (3464) 
C[C@H](CCC(=O)NCCS(=O)(=O)O)[C@H]1CC[C@H]2[C@@H]3[C@H](O)C[C@@H]4CCCC[C@]4(C)[C@H]3C[C@H](O)[C@]12C

>  <Structure_dimension>  (3464) 
2D

$$$$
MS3639
     RDKit          2D

 39 42  0  0  0  0  0  0  0  0999 V2000
   -2.3426   -4.2022    0.0000 C   0  0  0  0  0  0  0  0  0  0  0  0
   -1.7679   -2.8167    0.0000 C   0  0  0  0  0  0  0  0  0  0  0  0
   -2.6804   -1.6262    0.0000 C   0  0  0  0  0  0  0  0  0  0  0  0
   -4.1676   -1.8212    0.0000 C   0  0  0  0  0  0  0  0  0  0  0  0
   -5.0802   -0.6307    0.0000 C   0  0  0  0  0  0  0  0  0  0  0  0
   -4.5054    0.7549    0.0000 O   0  0  0  0  0  0  0  0  0  0  0  0
   -6.5674   -0.8257    0.0000 N   0  0  0  0  0  0  0  0  0  0  0  0
   -7.4799    0.3648    0.0000 C   0  0  0  0  0  0  0  0  0  0  0  0
   -8.9672    0.1698    0.0000 C   0  0  0  0  0  0  0  0  0  0  0  0
   -9.8797    1.3603    0.0000 S   0  0  0  0  0  0  0  0  0  0  0  0
  -11.0702    0.4478    0.0000 O   0  0  0  0  0  0  0  0  0  0  0  0
   -8.6892    2.2728    0.0000 O   0  0  0  0  0  0  0  0  0  0  0  0
  -10.7923    2.5508    0.0000 O   0  0  0  0  0  0  0  0  0  0  0  0
   -0.2806   -2.6217    0.0000 C   0  0  0  0  0  0  0  0  0  0  0  0
    0.7514   -3.7103    0.0000 C   0  0  0  0  0  0  0  0  0  0  0  0
    2.1056   -3.0652    0.0000 C   0  0  0  0  0  0  0  0  0  0  0  0
    1.9106   -1.5779    0.0000 C   0  0  0  0  0  0  0  0  0  0  0  0
    2.8854   -0.4378    0.0000 C   0  0  0  0  0  0  0  0  0  0  0  0
    4.3601   -0.7120    0.0000 C   0  0  0  0  0  0  0  0  0  0  0  0
    4.8601   -2.1262    0.0000 O   0  0  0  0  0  0  0  0  0  0  0  0
    6.3348   -2.4003    0.0000 S   0  0  0  0  0  0  0  0  0  0  0  0
    6.6089   -0.9256    0.0000 O   0  0  0  0  0  0  0  0  0  0  0  0
    6.0607   -3.8751    0.0000 O   0  0  0  0  0  0  0  0  0  0  0  0
    7.8095   -2.6744    0.0000 O   0  0  0  0  0  0  0  0  0  0  0  0
    5.3349    0.4281    0.0000 C   0  0  0  0  0  0  0  0  0  0  0  0
    4.8349    1.8424    0.0000 C   0  0  0  0  0  0  0  0  0  0  0  0
    5.8097    2.9825    0.0000 C   0  0  0  0  0  0  0  0  0  0  0  0
    5.3097    4.3967    0.0000 C   0  0  0  0  0  0  0  0  0  0  0  0
    6.2845    5.5368    0.0000 O   0  0  0  0  0  0  0  0  0  0  0  0
    3.8350    4.6708    0.0000 C   0  0  0  0  0  0  0  0  0  0  0  0
    2.8602    3.5307    0.0000 C   0  0  0  0  0  0  0  0  0  0  0  0
    3.3602    2.1165    0.0000 C   0  0  0  0  0  0  0  0  0  0  0  0
    1.8854    2.3906    0.0000 C   0  0  0  0  0  0  0  0  0  0  0  0
    2.3854    0.9764    0.0000 C   0  0  0  0  0  0  0  0  0  0  0  0
    0.9106    1.2505    0.0000 C   0  0  0  0  0  0  0  0  0  0  0  0
   -0.0641    0.1104    0.0000 C   0  0  0  0  0  0  0  0  0  0  0  0
   -1.5389    0.3845    0.0000 O   0  0  0  0  0  0  0  0  0  0  0  0
    0.4358   -1.3038    0.0000 C   0  0  0  0  0  0  0  0  0  0  0  0
   -1.0595   -1.1853    0.0000 C   0  0  0  0  0  0  0  0  0  0  0  0
  2  1  1  6
  2  3  1  0
  3  4  1  0
  4  5  1  0
  5  6  2  0
  5  7  1  0
  7  8  1  0
  8  9  1  0
  9 10  1  0
 10 11  2  0
 10 12  2  0
 10 13  1  0
  2 14  1  0
 14 15  1  6
 15 16  1  0
 17 16  1  6
 17 18  1  0
 18 19  1  1
 19 20  1  1
 20 21  1  0
 21 22  2  0
 21 23  2  0
 21 24  1  0
 19 25  1  0
 26 25  1  1
 26 27  1  0
 27 28  1  0
 28 29  1  1
 28 30  1  0
 30 31  1  0
 31 32  1  0
 32 33  1  6
 32 34  1  0
 34 35  1  6
 35 36  1  0
 36 37  1  1
 36 38  1  0
 38 39  1  6
 38 14  1  0
 38 17  1  0
 34 18  1  0
 32 26  1  0
M  END
>  <MS_ID>  (3465) 
MS3639

>  <SMILES>  (3465) 
C[C@H](CCC(=O)NCCS(=O)(=O)O)[C@H]1CC[C@H]2[C@@H]3[C@H](OS(=O)(=O)O)C[C@@H]4C[C@H](O)CC[C@]4(C)[C@H]3C[C@H](O)[C@]12C

>  <Structure_dimension>  (3465) 
2D

$$$$
MS3640
     RDKit          2D

 41 45  0  0  0  0  0  0  0  0999 V2000
   -8.0614   -2.0658    0.0000 C   0  0  0  0  0  0  0  0  0  0  0  0
   -6.9059   -1.1092    0.0000 C   0  0  0  0  0  0  0  0  0  0  0  0
   -7.1566    0.3697    0.0000 C   0  0  0  0  0  0  0  0  0  0  0  0
   -8.5627    0.8920    0.0000 C   0  0  0  0  0  0  0  0  0  0  0  0
   -8.8134    2.3709    0.0000 C   0  0  0  0  0  0  0  0  0  0  0  0
   -7.6579    3.3275    0.0000 O   0  0  0  0  0  0  0  0  0  0  0  0
  -10.2195    2.8933    0.0000 O   0  0  0  0  0  0  0  0  0  0  0  0
   -5.4998   -1.6316    0.0000 C   0  0  0  0  0  0  0  0  0  0  0  0
   -5.0960   -3.0762    0.0000 C   0  0  0  0  0  0  0  0  0  0  0  0
   -3.5972   -3.1385    0.0000 C   0  0  0  0  0  0  0  0  0  0  0  0
   -3.0749   -1.7324    0.0000 C   0  0  0  0  0  0  0  0  0  0  0  0
   -1.6804   -1.1797    0.0000 C   0  0  0  0  0  0  0  0  0  0  0  0
   -0.5045   -2.1111    0.0000 C   0  0  0  0  0  0  0  0  0  0  0  0
   -0.7232   -3.5951    0.0000 O   0  0  0  0  0  0  0  0  0  0  0  0
    0.8899   -1.5584    0.0000 C   0  0  0  0  0  0  0  0  0  0  0  0
    2.0658   -2.4897    0.0000 O   0  0  0  0  0  0  0  0  0  0  0  0
    1.1085   -0.0744    0.0000 C   0  0  0  0  0  0  0  0  0  0  0  0
    2.5030    0.4783    0.0000 C   0  0  0  0  0  0  0  0  0  0  0  0
    2.7216    1.9622    0.0000 C   0  0  0  0  0  0  0  0  0  0  0  0
    4.1161    2.5149    0.0000 O   0  0  0  0  0  0  0  0  0  0  0  0
    5.2920    1.5836    0.0000 C   0  0  0  0  0  0  0  0  0  0  0  0
    5.0734    0.0996    0.0000 O   0  0  0  0  0  0  0  0  0  0  0  0
    6.2492   -0.8317    0.0000 C   0  0  0  0  0  0  0  0  0  0  0  0
    6.0306   -2.3157    0.0000 C   0  0  0  0  0  0  0  0  0  0  0  0
    7.2065   -3.2470    0.0000 O   0  0  0  0  0  0  0  0  0  0  0  0
    4.6361   -2.8684    0.0000 O   0  0  0  0  0  0  0  0  0  0  0  0
    7.6437   -0.2790    0.0000 C   0  0  0  0  0  0  0  0  0  0  0  0
    8.8196   -1.2104    0.0000 O   0  0  0  0  0  0  0  0  0  0  0  0
    7.8623    1.2049    0.0000 C   0  0  0  0  0  0  0  0  0  0  0  0
    9.2568    1.7576    0.0000 O   0  0  0  0  0  0  0  0  0  0  0  0
    6.6864    2.1363    0.0000 C   0  0  0  0  0  0  0  0  0  0  0  0
    6.9051    3.6202    0.0000 O   0  0  0  0  0  0  0  0  0  0  0  0
    1.5458    2.8936    0.0000 C   0  0  0  0  0  0  0  0  0  0  0  0
    0.1513    2.3409    0.0000 C   0  0  0  0  0  0  0  0  0  0  0  0
   -0.0673    0.8569    0.0000 C   0  0  0  0  0  0  0  0  0  0  0  0
   -1.2432    1.7882    0.0000 C   0  0  0  0  0  0  0  0  0  0  0  0
   -1.4618    0.3042    0.0000 C   0  0  0  0  0  0  0  0  0  0  0  0
   -2.6377    1.2356    0.0000 C   0  0  0  0  0  0  0  0  0  0  0  0
   -4.0321    0.6829    0.0000 C   0  0  0  0  0  0  0  0  0  0  0  0
   -4.2507   -0.8011    0.0000 C   0  0  0  0  0  0  0  0  0  0  0  0
   -5.5175    0.0022    0.0000 C   0  0  0  0  0  0  0  0  0  0  0  0
  2  1  1  6
  2  3  1  0
  3  4  1  0
  4  5  1  0
  5  6  2  0
  5  7  1  0
  2  8  1  0
  8  9  1  6
  9 10  1  0
 11 10  1  6
 11 12  1  0
 12 13  1  1
 13 14  1  1
 13 15  1  0
 15 16  1  1
 15 17  1  0
 17 18  1  1
 18 19  1  0
 19 20  1  1
 21 20  1  1
 21 22  1  0
 22 23  1  0
 23 24  1  1
 24 25  2  0
 24 26  1  0
 23 27  1  0
 27 28  1  6
 27 29  1  0
 29 30  1  1
 29 31  1  0
 31 32  1  6
 19 33  1  0
 33 34  1  0
 34 35  1  0
 35 36  1  6
 35 37  1  0
 37 38  1  6
 38 39  1  0
 39 40  1  0
 40 41  1  6
 40  8  1  0
 40 11  1  0
 37 12  1  0
 35 17  1  0
 31 21  1  0
M  END
>  <MS_ID>  (3466) 
MS3640

>  <SMILES>  (3466) 
C[C@H](CCC(=O)O)[C@H]1CC[C@H]2[C@@H]3[C@H](O)[C@H](O)[C@@H]4C[C@H](O[C@@H]5O[C@H](C(=O)O)[C@@H](O)[C@H](O)[C@H]5O)CC[C@]4(C)[C@H]3CC[C@]12C

>  <Structure_dimension>  (3466) 
2D

$$$$
MS3641
     RDKit          2D

 36 40  0  0  0  0  0  0  0  0999 V2000
   -2.3692   -4.6452    0.0000 C   0  0  0  0  0  0  0  0  0  0  0  0
   -1.6889   -3.3084    0.0000 C   0  0  0  0  0  0  0  0  0  0  0  0
   -2.5064   -2.0508    0.0000 C   0  0  0  0  0  0  0  0  0  0  0  0
   -4.0043   -2.1300    0.0000 C   0  0  0  0  0  0  0  0  0  0  0  0
   -4.8219   -0.8724    0.0000 C   0  0  0  0  0  0  0  0  0  0  0  0
   -6.3198   -0.9517    0.0000 O   0  0  0  0  0  0  0  0  0  0  0  0
   -4.1416    0.4644    0.0000 O   0  0  0  0  0  0  0  0  0  0  0  0
   -4.9592    1.7220    0.0000 N   0  0  0  0  0  0  0  0  0  0  0  0
   -6.4571    1.7998    0.0000 C   0  0  0  0  0  0  0  0  0  0  0  0
   -7.4005    0.6336    0.0000 O   0  0  0  0  0  0  0  0  0  0  0  0
   -6.8461    3.2485    0.0000 C   0  0  0  0  0  0  0  0  0  0  0  0
   -5.5885    4.0661    0.0000 C   0  0  0  0  0  0  0  0  0  0  0  0
   -4.4223    3.1227    0.0000 C   0  0  0  0  0  0  0  0  0  0  0  0
   -2.9736    3.5116    0.0000 O   0  0  0  0  0  0  0  0  0  0  0  0
   -0.1910   -3.2292    0.0000 C   0  0  0  0  0  0  0  0  0  0  0  0
    0.7536   -4.3944    0.0000 C   0  0  0  0  0  0  0  0  0  0  0  0
    2.1537   -3.8562    0.0000 C   0  0  0  0  0  0  0  0  0  0  0  0
    2.0745   -2.3583    0.0000 C   0  0  0  0  0  0  0  0  0  0  0  0
    3.1346   -1.2971    0.0000 C   0  0  0  0  0  0  0  0  0  0  0  0
    4.5837   -1.6846    0.0000 C   0  0  0  0  0  0  0  0  0  0  0  0
    4.9726   -3.1333    0.0000 O   0  0  0  0  0  0  0  0  0  0  0  0
    5.6438   -0.6235    0.0000 C   0  0  0  0  0  0  0  0  0  0  0  0
    5.2549    0.8252    0.0000 C   0  0  0  0  0  0  0  0  0  0  0  0
    6.3150    1.8864    0.0000 C   0  0  0  0  0  0  0  0  0  0  0  0
    5.9261    3.3351    0.0000 C   0  0  0  0  0  0  0  0  0  0  0  0
    6.9862    4.3963    0.0000 O   0  0  0  0  0  0  0  0  0  0  0  0
    4.4770    3.7226    0.0000 C   0  0  0  0  0  0  0  0  0  0  0  0
    3.4169    2.6615    0.0000 C   0  0  0  0  0  0  0  0  0  0  0  0
    3.8058    1.2128    0.0000 C   0  0  0  0  0  0  0  0  0  0  0  0
    2.3567    1.6003    0.0000 C   0  0  0  0  0  0  0  0  0  0  0  0
    2.7457    0.1516    0.0000 C   0  0  0  0  0  0  0  0  0  0  0  0
    1.2966    0.5391    0.0000 C   0  0  0  0  0  0  0  0  0  0  0  0
    0.2364   -0.5221    0.0000 C   0  0  0  0  0  0  0  0  0  0  0  0
   -1.2126   -0.1345    0.0000 O   0  0  0  0  0  0  0  0  0  0  0  0
    0.6254   -1.9708    0.0000 C   0  0  0  0  0  0  0  0  0  0  0  0
   -0.8563   -1.7368    0.0000 C   0  0  0  0  0  0  0  0  0  0  0  0
  2  1  1  6
  2  3  1  0
  3  4  1  0
  4  5  1  0
  5  6  2  0
  5  7  1  0
  7  8  1  0
  8  9  1  0
  9 10  1  0
  9 11  2  0
 11 12  1  0
 12 13  2  0
 13 14  1  0
  2 15  1  0
 15 16  1  6
 16 17  1  0
 18 17  1  6
 18 19  1  0
 19 20  1  1
 20 21  1  1
 20 22  1  0
 23 22  1  1
 23 24  1  0
 24 25  1  0
 25 26  1  1
 25 27  1  0
 27 28  1  0
 28 29  1  0
 29 30  1  6
 29 31  1  0
 31 32  1  6
 32 33  1  0
 33 34  1  1
 33 35  1  0
 35 36  1  6
 13  8  1  0
 35 15  1  0
 35 18  1  0
 31 19  1  0
 29 23  1  0
M  END
>  <MS_ID>  (3467) 
MS3641

>  <SMILES>  (3467) 
C[C@H](CCC(=O)On1c(O)ccc1O)[C@H]1CC[C@H]2[C@@H]3[C@H](O)C[C@@H]4C[C@H](O)CC[C@]4(C)[C@H]3C[C@H](O)[C@]12C

>  <Structure_dimension>  (3467) 
2D

$$$$
MS3643
     RDKit          2D

 35 38  0  0  0  0  0  0  0  0999 V2000
  -12.6573    2.6900    0.0000 C   0  0  0  0  0  0  0  0  0  0  0  0
  -11.1606    2.7886    0.0000 C   0  0  0  0  0  0  0  0  0  0  0  0
  -10.3268    1.5416    0.0000 C   0  0  0  0  0  0  0  0  0  0  0  0
   -8.8301    1.6402    0.0000 O   0  0  0  0  0  0  0  0  0  0  0  0
   -7.9964    0.3932    0.0000 C   0  0  0  0  0  0  0  0  0  0  0  0
   -6.4996    0.4918    0.0000 C   0  0  0  0  0  0  0  0  0  0  0  0
   -5.6659   -0.7552    0.0000 O   0  0  0  0  0  0  0  0  0  0  0  0
   -4.1691   -0.6567    0.0000 C   0  0  0  0  0  0  0  0  0  0  0  0
   -3.5061    0.6889    0.0000 O   0  0  0  0  0  0  0  0  0  0  0  0
   -3.3354   -1.9036    0.0000 C   0  0  0  0  0  0  0  0  0  0  0  0
   -1.8386   -1.8051    0.0000 C   0  0  0  0  0  0  0  0  0  0  0  0
   -1.0049   -3.0520    0.0000 C   0  0  0  0  0  0  0  0  0  0  0  0
   -1.6679   -4.3975    0.0000 C   0  0  0  0  0  0  0  0  0  0  0  0
    0.4918   -2.9535    0.0000 C   0  0  0  0  0  0  0  0  0  0  0  0
    1.4513   -4.1065    0.0000 C   0  0  0  0  0  0  0  0  0  0  0  0
    2.8444   -3.5502    0.0000 C   0  0  0  0  0  0  0  0  0  0  0  0
    2.7459   -2.0535    0.0000 C   0  0  0  0  0  0  0  0  0  0  0  0
    3.7922   -0.9787    0.0000 C   0  0  0  0  0  0  0  0  0  0  0  0
    5.2462   -1.3475    0.0000 C   0  0  0  0  0  0  0  0  0  0  0  0
    5.6538   -2.7911    0.0000 O   0  0  0  0  0  0  0  0  0  0  0  0
    6.2925   -0.2727    0.0000 C   0  0  0  0  0  0  0  0  0  0  0  0
    5.8850    1.1708    0.0000 C   0  0  0  0  0  0  0  0  0  0  0  0
    6.9313    2.2456    0.0000 C   0  0  0  0  0  0  0  0  0  0  0  0
    6.5237    3.6892    0.0000 C   0  0  0  0  0  0  0  0  0  0  0  0
    7.5701    4.7639    0.0000 O   0  0  0  0  0  0  0  0  0  0  0  0
    5.0698    4.0580    0.0000 C   0  0  0  0  0  0  0  0  0  0  0  0
    4.0234    2.9832    0.0000 C   0  0  0  0  0  0  0  0  0  0  0  0
    4.4310    1.5396    0.0000 C   0  0  0  0  0  0  0  0  0  0  0  0
    2.9770    1.9084    0.0000 C   0  0  0  0  0  0  0  0  0  0  0  0
    3.3846    0.4649    0.0000 C   0  0  0  0  0  0  0  0  0  0  0  0
    1.9307    0.8337    0.0000 C   0  0  0  0  0  0  0  0  0  0  0  0
    0.8843   -0.2411    0.0000 C   0  0  0  0  0  0  0  0  0  0  0  0
   -0.5696    0.1277    0.0000 O   0  0  0  0  0  0  0  0  0  0  0  0
    1.2919   -1.6847    0.0000 C   0  0  0  0  0  0  0  0  0  0  0  0
   -0.1926   -1.4698    0.0000 C   0  0  0  0  0  0  0  0  0  0  0  0
  1  2  1  0
  2  3  1  0
  3  4  1  0
  4  5  1  0
  5  6  1  0
  6  7  1  0
  7  8  1  0
  8  9  2  0
  8 10  1  0
 10 11  1  0
 11 12  1  0
 12 13  1  6
 12 14  1  0
 14 15  1  6
 15 16  1  0
 17 16  1  6
 17 18  1  0
 18 19  1  1
 19 20  1  1
 19 21  1  0
 22 21  1  1
 22 23  1  0
 23 24  1  0
 24 25  1  1
 24 26  1  0
 26 27  1  0
 27 28  1  0
 28 29  1  6
 28 30  1  0
 30 31  1  6
 31 32  1  0
 32 33  1  1
 32 34  1  0
 34 35  1  6
 34 14  1  0
 34 17  1  0
 30 18  1  0
 28 22  1  0
M  END
>  <MS_ID>  (3468) 
MS3643

>  <SMILES>  (3468) 
CCCOCCOC(=O)CC[C@@H](C)[C@H]1CC[C@H]2[C@@H]3[C@H](O)C[C@@H]4C[C@H](O)CC[C@]4(C)[C@H]3C[C@H](O)[C@]12C

>  <Structure_dimension>  (3468) 
2D

$$$$
MS3644
     RDKit          2D

 37 40  0  0  0  0  0  0  0  0999 V2000
   -1.8349   -4.5052    0.0000 C   0  0  0  0  0  0  0  0  0  0  0  0
   -1.1795   -3.1559    0.0000 C   0  0  0  0  0  0  0  0  0  0  0  0
   -2.0203   -1.9137    0.0000 C   0  0  0  0  0  0  0  0  0  0  0  0
   -3.5164   -2.0207    0.0000 C   0  0  0  0  0  0  0  0  0  0  0  0
   -4.3572   -0.7785    0.0000 C   0  0  0  0  0  0  0  0  0  0  0  0
   -3.7018    0.5707    0.0000 O   0  0  0  0  0  0  0  0  0  0  0  0
   -5.8534   -0.8855    0.0000 N   0  0  0  0  0  0  0  0  0  0  0  0
   -6.6942    0.3567    0.0000 C   0  0  0  0  0  0  0  0  0  0  0  0
   -8.1903    0.2497    0.0000 C   0  0  0  0  0  0  0  0  0  0  0  0
   -9.0311    1.4919    0.0000 C   0  0  0  0  0  0  0  0  0  0  0  0
   -8.3757    2.8411    0.0000 O   0  0  0  0  0  0  0  0  0  0  0  0
  -10.5273    1.3849    0.0000 O   0  0  0  0  0  0  0  0  0  0  0  0
   -6.0388    1.7059    0.0000 C   0  0  0  0  0  0  0  0  0  0  0  0
   -4.5426    1.8129    0.0000 O   0  0  0  0  0  0  0  0  0  0  0  0
   -6.8795    2.9481    0.0000 O   0  0  0  0  0  0  0  0  0  0  0  0
    0.3167   -3.0489    0.0000 C   0  0  0  0  0  0  0  0  0  0  0  0
    1.2827   -4.1964    0.0000 C   0  0  0  0  0  0  0  0  0  0  0  0
    2.6726   -3.6323    0.0000 C   0  0  0  0  0  0  0  0  0  0  0  0
    2.5655   -2.1361    0.0000 C   0  0  0  0  0  0  0  0  0  0  0  0
    3.6058   -1.0555    0.0000 C   0  0  0  0  0  0  0  0  0  0  0  0
    5.0618   -1.4160    0.0000 C   0  0  0  0  0  0  0  0  0  0  0  0
    5.4776   -2.8572    0.0000 O   0  0  0  0  0  0  0  0  0  0  0  0
    6.1021   -0.3353    0.0000 C   0  0  0  0  0  0  0  0  0  0  0  0
    7.5581   -0.6959    0.0000 O   0  0  0  0  0  0  0  0  0  0  0  0
    5.6863    1.1059    0.0000 C   0  0  0  0  0  0  0  0  0  0  0  0
    6.7266    2.1866    0.0000 C   0  0  0  0  0  0  0  0  0  0  0  0
    6.3109    3.6278    0.0000 C   0  0  0  0  0  0  0  0  0  0  0  0
    7.3511    4.7085    0.0000 O   0  0  0  0  0  0  0  0  0  0  0  0
    4.8548    3.9884    0.0000 C   0  0  0  0  0  0  0  0  0  0  0  0
    3.8146    2.9077    0.0000 C   0  0  0  0  0  0  0  0  0  0  0  0
    4.2303    1.4664    0.0000 C   0  0  0  0  0  0  0  0  0  0  0  0
    2.7743    1.8270    0.0000 C   0  0  0  0  0  0  0  0  0  0  0  0
    3.1901    0.3858    0.0000 C   0  0  0  0  0  0  0  0  0  0  0  0
    1.7340    0.7463    0.0000 C   0  0  0  0  0  0  0  0  0  0  0  0
    0.6938   -0.3343    0.0000 C   0  0  0  0  0  0  0  0  0  0  0  0
    1.1095   -1.7756    0.0000 C   0  0  0  0  0  0  0  0  0  0  0  0
   -0.3762   -1.5692    0.0000 C   0  0  0  0  0  0  0  0  0  0  0  0
  2  1  1  6
  2  3  1  0
  3  4  1  0
  4  5  1  0
  5  6  2  0
  5  7  1  0
  7  8  1  0
  8  9  1  1
  9 10  1  0
 10 11  2  0
 10 12  1  0
  8 13  1  0
 13 14  2  0
 13 15  1  0
  2 16  1  0
 16 17  1  6
 17 18  1  0
 19 18  1  6
 19 20  1  0
 20 21  1  1
 21 22  1  1
 21 23  1  0
 23 24  1  1
 23 25  1  0
 25 26  1  1
 26 27  1  0
 27 28  1  1
 27 29  1  0
 29 30  1  0
 30 31  1  0
 31 32  1  6
 31 33  1  0
 33 34  1  6
 34 35  1  0
 35 36  1  0
 36 37  1  6
 36 16  1  0
 36 19  1  0
 33 20  1  0
 31 25  1  0
M  END
>  <MS_ID>  (3469) 
MS3644

>  <SMILES>  (3469) 
C[C@H](CCC(=O)N[C@@H](CC(=O)O)C(=O)O)[C@H]1CC[C@H]2[C@@H]3[C@H](O)[C@H](O)[C@@H]4C[C@H](O)CC[C@]4(C)[C@H]3CC[C@]12C

>  <Structure_dimension>  (3469) 
2D

$$$$
MS3645
     RDKit          2D

 35 38  0  0  0  0  0  0  0  0999 V2000
   -2.4304   -4.1023    0.0000 C   0  0  0  0  0  0  0  0  0  0  0  0
   -1.6453   -2.8242    0.0000 C   0  0  0  0  0  0  0  0  0  0  0  0
   -2.3595   -1.5052    0.0000 C   0  0  0  0  0  0  0  0  0  0  0  0
   -3.8589   -1.4642    0.0000 C   0  0  0  0  0  0  0  0  0  0  0  0
   -4.5732   -0.1452    0.0000 C   0  0  0  0  0  0  0  0  0  0  0  0
   -3.7880    1.1329    0.0000 O   0  0  0  0  0  0  0  0  0  0  0  0
   -6.0726   -0.1042    0.0000 N   0  0  0  0  0  0  0  0  0  0  0  0
   -6.7869    1.2148    0.0000 C   0  0  0  0  0  0  0  0  0  0  0  0
   -6.0017    2.4929    0.0000 C   0  0  0  0  0  0  0  0  0  0  0  0
   -6.7160    3.8119    0.0000 S   0  0  0  0  0  0  0  0  0  0  0  0
   -8.2863    1.2557    0.0000 C   0  0  0  0  0  0  0  0  0  0  0  0
   -9.0715   -0.0223    0.0000 O   0  0  0  0  0  0  0  0  0  0  0  0
   -9.0006    2.5748    0.0000 O   0  0  0  0  0  0  0  0  0  0  0  0
   -0.1458   -2.8652    0.0000 C   0  0  0  0  0  0  0  0  0  0  0  0
    0.7024   -4.1023    0.0000 C   0  0  0  0  0  0  0  0  0  0  0  0
    2.1411   -3.6779    0.0000 C   0  0  0  0  0  0  0  0  0  0  0  0
    2.1821   -2.1784    0.0000 C   0  0  0  0  0  0  0  0  0  0  0  0
    3.3238   -1.2056    0.0000 C   0  0  0  0  0  0  0  0  0  0  0  0
    4.7372   -1.7079    0.0000 C   0  0  0  0  0  0  0  0  0  0  0  0
    5.0089   -3.1830    0.0000 O   0  0  0  0  0  0  0  0  0  0  0  0
    5.8789   -0.7350    0.0000 C   0  0  0  0  0  0  0  0  0  0  0  0
    5.6072    0.7402    0.0000 C   0  0  0  0  0  0  0  0  0  0  0  0
    6.7489    1.7131    0.0000 C   0  0  0  0  0  0  0  0  0  0  0  0
    6.4772    3.1883    0.0000 C   0  0  0  0  0  0  0  0  0  0  0  0
    7.6189    4.1612    0.0000 O   0  0  0  0  0  0  0  0  0  0  0  0
    5.0638    3.6906    0.0000 C   0  0  0  0  0  0  0  0  0  0  0  0
    3.9221    2.7177    0.0000 C   0  0  0  0  0  0  0  0  0  0  0  0
    4.1938    1.2425    0.0000 C   0  0  0  0  0  0  0  0  0  0  0  0
    2.7804    1.7448    0.0000 C   0  0  0  0  0  0  0  0  0  0  0  0
    3.0521    0.2696    0.0000 C   0  0  0  0  0  0  0  0  0  0  0  0
    1.6387    0.7719    0.0000 C   0  0  0  0  0  0  0  0  0  0  0  0
    0.4970   -0.2010    0.0000 C   0  0  0  0  0  0  0  0  0  0  0  0
   -0.9164    0.3013    0.0000 O   0  0  0  0  0  0  0  0  0  0  0  0
    0.7687   -1.6761    0.0000 C   0  0  0  0  0  0  0  0  0  0  0  0
   -0.6895   -1.3243    0.0000 C   0  0  0  0  0  0  0  0  0  0  0  0
  2  1  1  6
  2  3  1  0
  3  4  1  0
  4  5  1  0
  5  6  2  0
  5  7  1  0
  7  8  1  0
  8  9  1  6
  9 10  1  0
  8 11  1  0
 11 12  2  0
 11 13  1  0
  2 14  1  0
 14 15  1  6
 15 16  1  0
 17 16  1  6
 17 18  1  0
 18 19  1  1
 19 20  1  1
 19 21  1  0
 22 21  1  1
 22 23  1  0
 23 24  1  0
 24 25  1  1
 24 26  1  0
 26 27  1  0
 27 28  1  0
 28 29  1  6
 28 30  1  0
 30 31  1  6
 31 32  1  0
 32 33  1  1
 32 34  1  0
 34 35  1  6
 34 14  1  0
 34 17  1  0
 30 18  1  0
 28 22  1  0
M  END
>  <MS_ID>  (3470) 
MS3645

>  <SMILES>  (3470) 
C[C@H](CCC(=O)N[C@@H](CS)C(=O)O)[C@H]1CC[C@H]2[C@@H]3[C@H](O)C[C@@H]4C[C@H](O)CC[C@]4(C)[C@H]3C[C@H](O)[C@]12C

>  <Structure_dimension>  (3470) 
2D

$$$$
MS3646
     RDKit          2D

 35 38  0  0  0  0  0  0  0  0999 V2000
   -2.0200   -4.3028    0.0000 C   0  0  0  0  0  0  0  0  0  0  0  0
   -1.3087   -2.9822    0.0000 C   0  0  0  0  0  0  0  0  0  0  0  0
   -2.0967   -1.7059    0.0000 C   0  0  0  0  0  0  0  0  0  0  0  0
   -3.5960   -1.7502    0.0000 C   0  0  0  0  0  0  0  0  0  0  0  0
   -4.3840   -0.4738    0.0000 C   0  0  0  0  0  0  0  0  0  0  0  0
   -3.6727    0.8468    0.0000 O   0  0  0  0  0  0  0  0  0  0  0  0
   -5.8834   -0.5181    0.0000 N   0  0  0  0  0  0  0  0  0  0  0  0
   -6.6714    0.7582    0.0000 C   0  0  0  0  0  0  0  0  0  0  0  0
   -8.1707    0.7140    0.0000 C   0  0  0  0  0  0  0  0  0  0  0  0
   -8.9588    1.9903    0.0000 S   0  0  0  0  0  0  0  0  0  0  0  0
  -10.2351    1.2023    0.0000 O   0  0  0  0  0  0  0  0  0  0  0  0
   -7.6824    2.7783    0.0000 O   0  0  0  0  0  0  0  0  0  0  0  0
   -9.7468    3.2667    0.0000 O   0  0  0  0  0  0  0  0  0  0  0  0
    0.1907   -2.9379    0.0000 C   0  0  0  0  0  0  0  0  0  0  0  0
    1.1078   -4.1249    0.0000 C   0  0  0  0  0  0  0  0  0  0  0  0
    2.5201   -3.6195    0.0000 C   0  0  0  0  0  0  0  0  0  0  0  0
    2.4758   -2.1201    0.0000 C   0  0  0  0  0  0  0  0  0  0  0  0
    3.5604   -1.0840    0.0000 C   0  0  0  0  0  0  0  0  0  0  0  0
    5.0001   -1.5052    0.0000 C   0  0  0  0  0  0  0  0  0  0  0  0
    5.3551   -2.9626    0.0000 O   0  0  0  0  0  0  0  0  0  0  0  0
    6.0847   -0.4691    0.0000 C   0  0  0  0  0  0  0  0  0  0  0  0
    5.7296    0.9883    0.0000 C   0  0  0  0  0  0  0  0  0  0  0  0
    6.8142    2.0245    0.0000 C   0  0  0  0  0  0  0  0  0  0  0  0
    6.4592    3.4819    0.0000 C   0  0  0  0  0  0  0  0  0  0  0  0
    7.5438    4.5180    0.0000 O   0  0  0  0  0  0  0  0  0  0  0  0
    5.0196    3.9031    0.0000 C   0  0  0  0  0  0  0  0  0  0  0  0
    3.9350    2.8669    0.0000 C   0  0  0  0  0  0  0  0  0  0  0  0
    4.2900    1.4095    0.0000 C   0  0  0  0  0  0  0  0  0  0  0  0
    2.8503    1.8308    0.0000 C   0  0  0  0  0  0  0  0  0  0  0  0
    3.2054    0.3734    0.0000 C   0  0  0  0  0  0  0  0  0  0  0  0
    1.7657    0.7946    0.0000 C   0  0  0  0  0  0  0  0  0  0  0  0
    0.6811   -0.2416    0.0000 C   0  0  0  0  0  0  0  0  0  0  0  0
   -0.7585    0.1797    0.0000 O   0  0  0  0  0  0  0  0  0  0  0  0
    1.0362   -1.6989    0.0000 C   0  0  0  0  0  0  0  0  0  0  0  0
   -0.4396   -1.4305    0.0000 C   0  0  0  0  0  0  0  0  0  0  0  0
  2  1  1  1
  2  3  1  0
  3  4  1  0
  4  5  1  0
  5  6  2  0
  5  7  1  0
  7  8  1  0
  8  9  1  0
  9 10  1  0
 10 11  2  0
 10 12  2  0
 10 13  1  0
  2 14  1  0
 14 15  1  6
 15 16  1  0
 17 16  1  6
 17 18  1  0
 18 19  1  1
 19 20  1  1
 19 21  1  0
 22 21  1  1
 22 23  1  0
 23 24  1  0
 24 25  1  1
 24 26  1  0
 26 27  1  0
 27 28  1  0
 28 29  1  6
 28 30  1  0
 30 31  1  6
 31 32  1  0
 32 33  1  1
 32 34  1  0
 34 35  1  6
 34 14  1  0
 34 17  1  0
 30 18  1  0
 28 22  1  0
M  END
>  <MS_ID>  (3471) 
MS3646

>  <SMILES>  (3471) 
C[C@@H](CCC(=O)NCCS(=O)(=O)O)[C@H]1CC[C@H]2[C@@H]3[C@H](O)C[C@@H]4C[C@H](O)CC[C@]4(C)[C@H]3C[C@H](O)[C@]12C

>  <Structure_dimension>  (3471) 
2D

$$$$
MS3648
     RDKit          2D

 33 36  0  0  0  0  0  0  0  0999 V2000
   -6.2027   -1.9081    0.0000 C   0  0  0  0  0  0  0  0  0  0  0  0
   -4.9792   -1.0402    0.0000 C   0  0  0  0  0  0  0  0  0  0  0  0
   -5.1191    0.4533    0.0000 C   0  0  0  0  0  0  0  0  0  0  0  0
   -6.4825    1.0788    0.0000 C   0  0  0  0  0  0  0  0  0  0  0  0
   -6.6223    2.5723    0.0000 C   0  0  0  0  0  0  0  0  0  0  0  0
   -5.3989    3.4402    0.0000 O   0  0  0  0  0  0  0  0  0  0  0  0
   -7.9857    3.1979    0.0000 O   0  0  0  0  0  0  0  0  0  0  0  0
   -3.6159   -1.6658    0.0000 C   0  0  0  0  0  0  0  0  0  0  0  0
   -3.3207   -3.1364    0.0000 C   0  0  0  0  0  0  0  0  0  0  0  0
   -1.8308   -3.3101    0.0000 C   0  0  0  0  0  0  0  0  0  0  0  0
   -1.2052   -1.9468    0.0000 C   0  0  0  0  0  0  0  0  0  0  0  0
    0.2265   -1.4995    0.0000 C   0  0  0  0  0  0  0  0  0  0  0  0
    1.3298   -2.5157    0.0000 C   0  0  0  0  0  0  0  0  0  0  0  0
    1.0014   -3.9793    0.0000 O   0  0  0  0  0  0  0  0  0  0  0  0
    2.7616   -2.0684    0.0000 C   0  0  0  0  0  0  0  0  0  0  0  0
    3.0900   -0.6048    0.0000 C   0  0  0  0  0  0  0  0  0  0  0  0
    4.5218   -0.1574    0.0000 C   0  0  0  0  0  0  0  0  0  0  0  0
    4.8502    1.3061    0.0000 C   0  0  0  0  0  0  0  0  0  0  0  0
    6.2820    1.7535    0.0000 O   0  0  0  0  0  0  0  0  0  0  0  0
    7.3853    0.7372    0.0000 S   0  0  0  0  0  0  0  0  0  0  0  0
    6.3690   -0.3660    0.0000 O   0  0  0  0  0  0  0  0  0  0  0  0
    8.4015    1.8405    0.0000 O   0  0  0  0  0  0  0  0  0  0  0  0
    8.4885   -0.2790    0.0000 O   0  0  0  0  0  0  0  0  0  0  0  0
    3.7470    2.3224    0.0000 C   0  0  0  0  0  0  0  0  0  0  0  0
    2.3152    1.8751    0.0000 C   0  0  0  0  0  0  0  0  0  0  0  0
    1.9868    0.4115    0.0000 C   0  0  0  0  0  0  0  0  0  0  0  0
    0.8835    1.4277    0.0000 C   0  0  0  0  0  0  0  0  0  0  0  0
    0.5550   -0.0359    0.0000 C   0  0  0  0  0  0  0  0  0  0  0  0
   -0.5483    0.9804    0.0000 C   0  0  0  0  0  0  0  0  0  0  0  0
   -1.9800    0.5330    0.0000 C   0  0  0  0  0  0  0  0  0  0  0  0
   -3.0833    1.5493    0.0000 O   0  0  0  0  0  0  0  0  0  0  0  0
   -2.3085   -0.9305    0.0000 C   0  0  0  0  0  0  0  0  0  0  0  0
   -3.5119   -0.0352    0.0000 C   0  0  0  0  0  0  0  0  0  0  0  0
  2  1  1  6
  2  3  1  0
  3  4  1  0
  4  5  1  0
  5  6  2  0
  5  7  1  0
  2  8  1  0
  8  9  1  6
  9 10  1  0
 11 10  1  6
 11 12  1  0
 12 13  1  1
 13 14  1  6
 13 15  1  0
 16 15  1  1
 16 17  1  0
 17 18  1  0
 18 19  1  1
 19 20  1  0
 20 21  2  0
 20 22  2  0
 20 23  1  0
 18 24  1  0
 24 25  1  0
 25 26  1  0
 26 27  1  6
 26 28  1  0
 28 29  1  6
 29 30  1  0
 30 31  1  1
 30 32  1  0
 32 33  1  6
 32  8  1  0
 32 11  1  0
 28 12  1  0
 26 16  1  0
M  END
>  <MS_ID>  (3472) 
MS3648

>  <SMILES>  (3472) 
C[C@H](CCC(=O)O)[C@H]1CC[C@H]2[C@@H]3[C@@H](O)C[C@@H]4C[C@H](OS(=O)(=O)O)CC[C@]4(C)[C@H]3C[C@H](O)[C@]12C

>  <Structure_dimension>  (3472) 
2D

$$$$
MS3650
     RDKit          2D

 28 31  0  0  0  0  0  0  0  0999 V2000
   -5.1275   -2.0302    0.0000 C   0  0  0  0  0  0  0  0  0  0  0  0
   -3.9468   -1.1050    0.0000 C   0  0  0  0  0  0  0  0  0  0  0  0
   -4.1576    0.3801    0.0000 C   0  0  0  0  0  0  0  0  0  0  0  0
   -5.5492    0.9401    0.0000 C   0  0  0  0  0  0  0  0  0  0  0  0
   -5.7600    2.4252    0.0000 C   0  0  0  0  0  0  0  0  0  0  0  0
   -4.5793    3.3503    0.0000 O   0  0  0  0  0  0  0  0  0  0  0  0
   -7.1516    2.9851    0.0000 O   0  0  0  0  0  0  0  0  0  0  0  0
   -2.5552   -1.6650    0.0000 C   0  0  0  0  0  0  0  0  0  0  0  0
   -2.1903   -3.1199    0.0000 C   0  0  0  0  0  0  0  0  0  0  0  0
   -0.6938   -3.2225    0.0000 C   0  0  0  0  0  0  0  0  0  0  0  0
   -0.1339   -1.8309    0.0000 C   0  0  0  0  0  0  0  0  0  0  0  0
    1.2750   -1.3159    0.0000 C   0  0  0  0  0  0  0  0  0  0  0  0
    2.4254   -2.2785    0.0000 C   0  0  0  0  0  0  0  0  0  0  0  0
    2.1670   -3.7560    0.0000 O   0  0  0  0  0  0  0  0  0  0  0  0
    3.8342   -1.7635    0.0000 C   0  0  0  0  0  0  0  0  0  0  0  0
    4.0926   -0.2859    0.0000 C   0  0  0  0  0  0  0  0  0  0  0  0
    5.5014    0.2291    0.0000 C   0  0  0  0  0  0  0  0  0  0  0  0
    5.7598    1.7067    0.0000 C   0  0  0  0  0  0  0  0  0  0  0  0
    7.1687    2.2217    0.0000 O   0  0  0  0  0  0  0  0  0  0  0  0
    4.6094    2.6692    0.0000 C   0  0  0  0  0  0  0  0  0  0  0  0
    3.2006    2.1542    0.0000 C   0  0  0  0  0  0  0  0  0  0  0  0
    2.9422    0.6767    0.0000 C   0  0  0  0  0  0  0  0  0  0  0  0
    1.7918    1.6392    0.0000 C   0  0  0  0  0  0  0  0  0  0  0  0
    1.5334    0.1617    0.0000 C   0  0  0  0  0  0  0  0  0  0  0  0
    0.3830    1.1242    0.0000 C   0  0  0  0  0  0  0  0  0  0  0  0
   -1.0259    0.6093    0.0000 C   0  0  0  0  0  0  0  0  0  0  0  0
   -1.2843   -0.8683    0.0000 C   0  0  0  0  0  0  0  0  0  0  0  0
   -2.5290   -0.0313    0.0000 C   0  0  0  0  0  0  0  0  0  0  0  0
  2  1  1  6
  2  3  1  0
  3  4  1  0
  4  5  1  0
  5  6  2  0
  5  7  1  0
  2  8  1  0
  8  9  1  6
  9 10  1  0
 11 10  1  6
 11 12  1  0
 12 13  1  1
 13 14  1  6
 13 15  1  0
 16 15  1  6
 16 17  1  0
 17 18  1  0
 18 19  1  1
 18 20  1  0
 20 21  1  0
 21 22  1  0
 22 23  1  6
 22 24  1  0
 24 25  1  6
 25 26  1  0
 26 27  1  0
 27 28  1  6
 27  8  1  0
 27 11  1  0
 24 12  1  0
 22 16  1  0
M  END
>  <MS_ID>  (3473) 
MS3650

>  <SMILES>  (3473) 
C[C@H](CCC(=O)O)[C@H]1CC[C@H]2[C@@H]3[C@@H](O)C[C@H]4C[C@H](O)CC[C@]4(C)[C@H]3CC[C@]12C

>  <Structure_dimension>  (3473) 
2D

$$$$
MS3651
     RDKit          2D

 35 38  0  0  0  0  0  0  0  0999 V2000
   -2.1332   -4.3372    0.0000 C   0  0  0  0  0  0  0  0  0  0  0  0
   -1.4064   -3.0251    0.0000 C   0  0  0  0  0  0  0  0  0  0  0  0
   -2.1793   -1.7395    0.0000 C   0  0  0  0  0  0  0  0  0  0  0  0
   -3.6791   -1.7662    0.0000 C   0  0  0  0  0  0  0  0  0  0  0  0
   -4.4520   -0.4806    0.0000 C   0  0  0  0  0  0  0  0  0  0  0  0
   -3.7251    0.8315    0.0000 O   0  0  0  0  0  0  0  0  0  0  0  0
   -5.9517   -0.5072    0.0000 N   0  0  0  0  0  0  0  0  0  0  0  0
   -6.7247    0.7783    0.0000 C   0  0  0  0  0  0  0  0  0  0  0  0
   -8.2244    0.7517    0.0000 C   0  0  0  0  0  0  0  0  0  0  0  0
   -8.9974    2.0372    0.0000 S   0  0  0  0  0  0  0  0  0  0  0  0
  -10.2829    1.2643    0.0000 O   0  0  0  0  0  0  0  0  0  0  0  0
   -7.7118    2.8101    0.0000 O   0  0  0  0  0  0  0  0  0  0  0  0
   -9.7703    3.3227    0.0000 O   0  0  0  0  0  0  0  0  0  0  0  0
    0.0934   -2.9985    0.0000 C   0  0  0  0  0  0  0  0  0  0  0  0
    0.9965   -4.1962    0.0000 C   0  0  0  0  0  0  0  0  0  0  0  0
    2.4146   -3.7074    0.0000 C   0  0  0  0  0  0  0  0  0  0  0  0
    2.3880   -2.2076    0.0000 C   0  0  0  0  0  0  0  0  0  0  0  0
    3.4847   -1.1843    0.0000 C   0  0  0  0  0  0  0  0  0  0  0  0
    4.9193   -1.6225    0.0000 C   0  0  0  0  0  0  0  0  0  0  0  0
    6.0161   -0.5992    0.0000 C   0  0  0  0  0  0  0  0  0  0  0  0
    7.4506   -1.0373    0.0000 O   0  0  0  0  0  0  0  0  0  0  0  0
    5.6782    0.8623    0.0000 C   0  0  0  0  0  0  0  0  0  0  0  0
    6.7749    1.8856    0.0000 C   0  0  0  0  0  0  0  0  0  0  0  0
    6.4371    3.3471    0.0000 C   0  0  0  0  0  0  0  0  0  0  0  0
    7.5338    4.3704    0.0000 O   0  0  0  0  0  0  0  0  0  0  0  0
    5.0025    3.7852    0.0000 C   0  0  0  0  0  0  0  0  0  0  0  0
    3.9058    2.7619    0.0000 C   0  0  0  0  0  0  0  0  0  0  0  0
    4.2436    1.3004    0.0000 C   0  0  0  0  0  0  0  0  0  0  0  0
    2.8090    1.7386    0.0000 C   0  0  0  0  0  0  0  0  0  0  0  0
    3.1469    0.2771    0.0000 C   0  0  0  0  0  0  0  0  0  0  0  0
    1.7123    0.7153    0.0000 C   0  0  0  0  0  0  0  0  0  0  0  0
    0.6156   -0.3080    0.0000 C   0  0  0  0  0  0  0  0  0  0  0  0
   -0.8190    0.1301    0.0000 O   0  0  0  0  0  0  0  0  0  0  0  0
    0.9534   -1.7695    0.0000 C   0  0  0  0  0  0  0  0  0  0  0  0
   -0.5191   -1.4837    0.0000 C   0  0  0  0  0  0  0  0  0  0  0  0
  2  1  1  6
  2  3  1  0
  3  4  1  0
  4  5  1  0
  5  6  2  0
  5  7  1  0
  7  8  1  0
  8  9  1  0
  9 10  1  0
 10 11  2  0
 10 12  2  0
 10 13  1  0
  2 14  1  0
 14 15  1  6
 15 16  1  0
 17 16  1  6
 17 18  1  0
 18 19  1  1
 19 20  1  0
 20 21  1  1
 20 22  1  0
 22 23  1  1
 23 24  1  0
 24 25  1  1
 24 26  1  0
 26 27  1  0
 27 28  1  0
 28 29  1  6
 28 30  1  0
 30 31  1  6
 31 32  1  0
 32 33  1  1
 32 34  1  0
 34 35  1  6
 34 14  1  0
 34 17  1  0
 30 18  1  0
 28 22  1  0
M  END
>  <MS_ID>  (3474) 
MS3651

>  <SMILES>  (3474) 
C[C@H](CCC(=O)NCCS(=O)(=O)O)[C@H]1CC[C@H]2[C@@H]3C[C@H](O)[C@@H]4C[C@H](O)CC[C@]4(C)[C@H]3C[C@H](O)[C@]12C

>  <Structure_dimension>  (3474) 
2D

$$$$
MS3653
     RDKit          2D

 35 38  0  0  0  0  0  0  0  0999 V2000
   -2.0200   -4.3028    0.0000 C   0  0  0  0  0  0  0  0  0  0  0  0
   -1.3087   -2.9822    0.0000 C   0  0  0  0  0  0  0  0  0  0  0  0
   -2.0967   -1.7059    0.0000 C   0  0  0  0  0  0  0  0  0  0  0  0
   -3.5960   -1.7502    0.0000 C   0  0  0  0  0  0  0  0  0  0  0  0
   -4.3840   -0.4738    0.0000 C   0  0  0  0  0  0  0  0  0  0  0  0
   -3.6727    0.8468    0.0000 O   0  0  0  0  0  0  0  0  0  0  0  0
   -5.8834   -0.5181    0.0000 N   0  0  0  0  0  0  0  0  0  0  0  0
   -6.6714    0.7582    0.0000 C   0  0  0  0  0  0  0  0  0  0  0  0
   -8.1707    0.7140    0.0000 C   0  0  0  0  0  0  0  0  0  0  0  0
   -8.9588    1.9903    0.0000 S   0  0  0  0  0  0  0  0  0  0  0  0
  -10.2351    1.2023    0.0000 O   0  0  0  0  0  0  0  0  0  0  0  0
   -7.6824    2.7783    0.0000 O   0  0  0  0  0  0  0  0  0  0  0  0
   -9.7468    3.2667    0.0000 O   0  0  0  0  0  0  0  0  0  0  0  0
    0.1907   -2.9379    0.0000 C   0  0  0  0  0  0  0  0  0  0  0  0
    1.1078   -4.1249    0.0000 C   0  0  0  0  0  0  0  0  0  0  0  0
    2.5201   -3.6195    0.0000 C   0  0  0  0  0  0  0  0  0  0  0  0
    2.4758   -2.1201    0.0000 C   0  0  0  0  0  0  0  0  0  0  0  0
    3.5604   -1.0840    0.0000 C   0  0  0  0  0  0  0  0  0  0  0  0
    5.0001   -1.5052    0.0000 C   0  0  0  0  0  0  0  0  0  0  0  0
    5.3551   -2.9626    0.0000 O   0  0  0  0  0  0  0  0  0  0  0  0
    6.0847   -0.4691    0.0000 C   0  0  0  0  0  0  0  0  0  0  0  0
    5.7296    0.9883    0.0000 C   0  0  0  0  0  0  0  0  0  0  0  0
    6.8142    2.0245    0.0000 C   0  0  0  0  0  0  0  0  0  0  0  0
    6.4592    3.4819    0.0000 C   0  0  0  0  0  0  0  0  0  0  0  0
    7.5438    4.5180    0.0000 O   0  0  0  0  0  0  0  0  0  0  0  0
    5.0196    3.9031    0.0000 C   0  0  0  0  0  0  0  0  0  0  0  0
    3.9350    2.8669    0.0000 C   0  0  0  0  0  0  0  0  0  0  0  0
    4.2900    1.4095    0.0000 C   0  0  0  0  0  0  0  0  0  0  0  0
    2.8503    1.8308    0.0000 C   0  0  0  0  0  0  0  0  0  0  0  0
    3.2054    0.3734    0.0000 C   0  0  0  0  0  0  0  0  0  0  0  0
    1.7657    0.7946    0.0000 C   0  0  0  0  0  0  0  0  0  0  0  0
    0.6811   -0.2416    0.0000 C   0  0  0  0  0  0  0  0  0  0  0  0
   -0.7585    0.1797    0.0000 O   0  0  0  0  0  0  0  0  0  0  0  0
    1.0362   -1.6989    0.0000 C   0  0  0  0  0  0  0  0  0  0  0  0
   -0.4396   -1.4305    0.0000 C   0  0  0  0  0  0  0  0  0  0  0  0
  2  1  1  6
  2  3  1  0
  3  4  1  0
  4  5  1  0
  5  6  2  0
  5  7  1  0
  7  8  1  0
  8  9  1  0
  9 10  1  0
 10 11  2  0
 10 12  2  0
 10 13  1  0
  2 14  1  0
 14 15  1  6
 15 16  1  0
 17 16  1  6
 17 18  1  0
 18 19  1  1
 19 20  1  1
 19 21  1  0
 22 21  1  1
 22 23  1  0
 23 24  1  0
 24 25  1  1
 24 26  1  0
 26 27  1  0
 27 28  1  0
 28 29  1  6
 28 30  1  0
 30 31  1  6
 31 32  1  0
 32 33  2  0
 32 34  1  0
 34 35  1  6
 34 14  1  0
 34 17  1  0
 30 18  1  0
 28 22  1  0
M  END
>  <MS_ID>  (3475) 
MS3653

>  <SMILES>  (3475) 
C[C@H](CCC(=O)NCCS(=O)(=O)O)[C@H]1CC[C@H]2[C@@H]3[C@H](O)C[C@@H]4C[C@H](O)CC[C@]4(C)[C@H]3CC(=O)[C@]12C

>  <Structure_dimension>  (3475) 
2D

$$$$
MS3654
     RDKit          2D

 42 46  0  0  0  0  0  0  0  0999 V2000
    0.3668   -4.9572    0.0000 C   0  0  0  0  0  0  0  0  0  0  0  0
    0.8327   -3.5314    0.0000 C   0  0  0  0  0  0  0  0  0  0  0  0
   -0.1690   -2.4150    0.0000 C   0  0  0  0  0  0  0  0  0  0  0  0
   -1.6368   -2.7243    0.0000 C   0  0  0  0  0  0  0  0  0  0  0  0
   -2.6386   -1.6079    0.0000 C   0  0  0  0  0  0  0  0  0  0  0  0
   -2.1726   -0.1821    0.0000 O   0  0  0  0  0  0  0  0  0  0  0  0
   -4.1063   -1.9172    0.0000 N   0  0  0  0  0  0  0  0  0  0  0  0
   -5.1081   -0.8008    0.0000 C   0  0  0  0  0  0  0  0  0  0  0  0
   -6.5758   -1.1101    0.0000 C   0  0  0  0  0  0  0  0  0  0  0  0
   -7.5776    0.0063    0.0000 C   0  0  0  0  0  0  0  0  0  0  0  0
   -7.1116    1.4321    0.0000 C   0  0  0  0  0  0  0  0  0  0  0  0
   -8.1134    2.5486    0.0000 C   0  0  0  0  0  0  0  0  0  0  0  0
   -9.5812    2.2392    0.0000 C   0  0  0  0  0  0  0  0  0  0  0  0
  -10.5829    3.3557    0.0000 O   0  0  0  0  0  0  0  0  0  0  0  0
  -10.0472    0.8135    0.0000 C   0  0  0  0  0  0  0  0  0  0  0  0
  -11.5149    0.5041    0.0000 O   0  0  0  0  0  0  0  0  0  0  0  0
   -9.0454   -0.3030    0.0000 C   0  0  0  0  0  0  0  0  0  0  0  0
   -4.6421    0.6250    0.0000 C   0  0  0  0  0  0  0  0  0  0  0  0
   -3.1744    0.9344    0.0000 O   0  0  0  0  0  0  0  0  0  0  0  0
   -5.6439    1.7415    0.0000 O   0  0  0  0  0  0  0  0  0  0  0  0
    2.3005   -3.2221    0.0000 C   0  0  0  0  0  0  0  0  0  0  0  0
    3.4135   -4.2277    0.0000 C   0  0  0  0  0  0  0  0  0  0  0  0
    4.7138   -3.4799    0.0000 C   0  0  0  0  0  0  0  0  0  0  0  0
    4.4045   -2.0122    0.0000 C   0  0  0  0  0  0  0  0  0  0  0  0
    5.2882   -0.8002    0.0000 C   0  0  0  0  0  0  0  0  0  0  0  0
    6.7798   -0.9595    0.0000 C   0  0  0  0  0  0  0  0  0  0  0  0
    7.3875   -2.3309    0.0000 O   0  0  0  0  0  0  0  0  0  0  0  0
    7.6635    0.2525    0.0000 C   0  0  0  0  0  0  0  0  0  0  0  0
    7.0558    1.6239    0.0000 C   0  0  0  0  0  0  0  0  0  0  0  0
    7.9395    2.8359    0.0000 C   0  0  0  0  0  0  0  0  0  0  0  0
    7.3318    4.2072    0.0000 C   0  0  0  0  0  0  0  0  0  0  0  0
    8.2156    5.4192    0.0000 O   0  0  0  0  0  0  0  0  0  0  0  0
    5.8403    4.3666    0.0000 C   0  0  0  0  0  0  0  0  0  0  0  0
    4.9565    3.1546    0.0000 C   0  0  0  0  0  0  0  0  0  0  0  0
    5.5643    1.7832    0.0000 C   0  0  0  0  0  0  0  0  0  0  0  0
    4.0728    1.9426    0.0000 C   0  0  0  0  0  0  0  0  0  0  0  0
    4.6805    0.5712    0.0000 C   0  0  0  0  0  0  0  0  0  0  0  0
    3.1890    0.7306    0.0000 C   0  0  0  0  0  0  0  0  0  0  0  0
    2.3052   -0.4814    0.0000 C   0  0  0  0  0  0  0  0  0  0  0  0
    0.8137   -0.3221    0.0000 O   0  0  0  0  0  0  0  0  0  0  0  0
    2.9130   -1.8528    0.0000 C   0  0  0  0  0  0  0  0  0  0  0  0
    1.4130   -1.8502    0.0000 C   0  0  0  0  0  0  0  0  0  0  0  0
  2  1  1  6
  2  3  1  0
  3  4  1  0
  4  5  1  0
  5  6  2  0
  5  7  1  0
  7  8  1  0
  8  9  1  1
  9 10  1  0
 10 11  2  0
 11 12  1  0
 12 13  2  0
 13 14  1  0
 13 15  1  0
 15 16  1  0
 15 17  2  0
  8 18  1  0
 18 19  2  0
 18 20  1  0
  2 21  1  0
 21 22  1  6
 22 23  1  0
 24 23  1  6
 24 25  1  0
 25 26  1  1
 26 27  1  1
 26 28  1  0
 29 28  1  1
 29 30  1  0
 30 31  1  0
 31 32  1  1
 31 33  1  0
 33 34  1  0
 34 35  1  0
 35 36  1  6
 35 37  1  0
 37 38  1  6
 38 39  1  0
 39 40  1  1
 39 41  1  0
 41 42  1  6
 17 10  1  0
 41 21  1  0
 41 24  1  0
 37 25  1  0
 35 29  1  0
M  END
>  <MS_ID>  (3476) 
MS3654

>  <SMILES>  (3476) 
C[C@H](CCC(=O)N[C@@H](Cc1ccc(O)c(O)c1)C(=O)O)[C@H]1CC[C@H]2[C@@H]3[C@H](O)C[C@@H]4C[C@H](O)CC[C@]4(C)[C@H]3C[C@H](O)[C@]12C

>  <Structure_dimension>  (3476) 
2D

$$$$
MS3655
     RDKit          2D

 37 40  0  0  0  0  0  0  0  0999 V2000
   -1.1673   -4.5754    0.0000 C   0  0  0  0  0  0  0  0  0  0  0  0
   -0.4860   -3.2391    0.0000 C   0  0  0  0  0  0  0  0  0  0  0  0
   -1.3027   -1.9809    0.0000 C   0  0  0  0  0  0  0  0  0  0  0  0
   -2.8006   -2.0590    0.0000 C   0  0  0  0  0  0  0  0  0  0  0  0
   -3.6173   -0.8008    0.0000 C   0  0  0  0  0  0  0  0  0  0  0  0
   -2.9360    0.5355    0.0000 O   0  0  0  0  0  0  0  0  0  0  0  0
   -5.1153   -0.8790    0.0000 N   0  0  0  0  0  0  0  0  0  0  0  0
   -5.9319    0.3792    0.0000 C   0  0  0  0  0  0  0  0  0  0  0  0
   -7.4299    0.3010    0.0000 C   0  0  0  0  0  0  0  0  0  0  0  0
   -8.2466    1.5592    0.0000 C   0  0  0  0  0  0  0  0  0  0  0  0
   -9.7445    1.4811    0.0000 C   0  0  0  0  0  0  0  0  0  0  0  0
  -10.4258    0.1447    0.0000 O   0  0  0  0  0  0  0  0  0  0  0  0
  -10.5612    2.7393    0.0000 O   0  0  0  0  0  0  0  0  0  0  0  0
   -5.2506    1.7156    0.0000 C   0  0  0  0  0  0  0  0  0  0  0  0
   -3.7527    1.7937    0.0000 O   0  0  0  0  0  0  0  0  0  0  0  0
   -6.0673    2.9737    0.0000 O   0  0  0  0  0  0  0  0  0  0  0  0
    1.0120   -3.1609    0.0000 C   0  0  0  0  0  0  0  0  0  0  0  0
    1.9557   -4.3269    0.0000 C   0  0  0  0  0  0  0  0  0  0  0  0
    3.3562   -3.7896    0.0000 C   0  0  0  0  0  0  0  0  0  0  0  0
    3.2780   -2.2917    0.0000 C   0  0  0  0  0  0  0  0  0  0  0  0
    4.3389   -1.2312    0.0000 C   0  0  0  0  0  0  0  0  0  0  0  0
    5.7877   -1.6198    0.0000 C   0  0  0  0  0  0  0  0  0  0  0  0
    6.8486   -0.5594    0.0000 C   0  0  0  0  0  0  0  0  0  0  0  0
    6.4607    0.8896    0.0000 C   0  0  0  0  0  0  0  0  0  0  0  0
    7.5216    1.9500    0.0000 C   0  0  0  0  0  0  0  0  0  0  0  0
    7.1337    3.3990    0.0000 C   0  0  0  0  0  0  0  0  0  0  0  0
    8.1946    4.4594    0.0000 O   0  0  0  0  0  0  0  0  0  0  0  0
    5.6849    3.7875    0.0000 C   0  0  0  0  0  0  0  0  0  0  0  0
    4.6240    2.7271    0.0000 C   0  0  0  0  0  0  0  0  0  0  0  0
    5.0119    1.2781    0.0000 C   0  0  0  0  0  0  0  0  0  0  0  0
    3.5631    1.6667    0.0000 C   0  0  0  0  0  0  0  0  0  0  0  0
    3.9510    0.2177    0.0000 C   0  0  0  0  0  0  0  0  0  0  0  0
    2.5022    0.6063    0.0000 C   0  0  0  0  0  0  0  0  0  0  0  0
    1.4413   -0.4541    0.0000 C   0  0  0  0  0  0  0  0  0  0  0  0
   -0.0075   -0.0656    0.0000 O   0  0  0  0  0  0  0  0  0  0  0  0
    1.8292   -1.9031    0.0000 C   0  0  0  0  0  0  0  0  0  0  0  0
    0.3477   -1.6681    0.0000 C   0  0  0  0  0  0  0  0  0  0  0  0
  2  1  1  6
  2  3  1  0
  3  4  1  0
  4  5  1  0
  5  6  2  0
  5  7  1  0
  7  8  1  0
  8  9  1  1
  9 10  1  0
 10 11  1  0
 11 12  2  0
 11 13  1  0
  8 14  1  0
 14 15  2  0
 14 16  1  0
  2 17  1  0
 17 18  1  6
 18 19  1  0
 20 19  1  6
 20 21  1  0
 21 22  1  1
 22 23  1  0
 24 23  1  1
 24 25  1  0
 25 26  1  0
 26 27  1  1
 26 28  1  0
 28 29  1  0
 29 30  1  0
 30 31  1  6
 30 32  1  0
 32 33  1  6
 33 34  1  0
 34 35  1  1
 34 36  1  0
 36 37  1  6
 36 17  1  0
 36 20  1  0
 32 21  1  0
 30 24  1  0
M  END
>  <MS_ID>  (3477) 
MS3655

>  <SMILES>  (3477) 
C[C@H](CCC(=O)N[C@@H](CCC(=O)O)C(=O)O)[C@H]1CC[C@H]2[C@@H]3CC[C@@H]4C[C@H](O)CC[C@]4(C)[C@H]3C[C@H](O)[C@]12C

>  <Structure_dimension>  (3477) 
2D

$$$$
MS3657
     RDKit          2D

 30 33  0  0  0  0  0  0  0  0999 V2000
    5.2268    2.1817    0.0000 C   0  0  0  0  0  0  0  0  0  0  0  0
    4.0682    1.2290    0.0000 C   0  0  0  0  0  0  0  0  0  0  0  0
    4.3139   -0.2507    0.0000 C   0  0  0  0  0  0  0  0  0  0  0  0
    5.7183   -0.7778    0.0000 C   0  0  0  0  0  0  0  0  0  0  0  0
    5.9640   -2.2575    0.0000 C   0  0  0  0  0  0  0  0  0  0  0  0
    4.8053   -3.2102    0.0000 O   0  0  0  0  0  0  0  0  0  0  0  0
    7.3683   -2.7846    0.0000 O   0  0  0  0  0  0  0  0  0  0  0  0
    2.6638    1.7561    0.0000 C   0  0  0  0  0  0  0  0  0  0  0  0
    2.2648    3.2020    0.0000 C   0  0  0  0  0  0  0  0  0  0  0  0
    0.7663    3.2693    0.0000 C   0  0  0  0  0  0  0  0  0  0  0  0
    0.2392    1.8650    0.0000 C   0  0  0  0  0  0  0  0  0  0  0  0
   -1.1571    1.3170    0.0000 C   0  0  0  0  0  0  0  0  0  0  0  0
   -2.3298    2.2522    0.0000 C   0  0  0  0  0  0  0  0  0  0  0  0
   -2.1063    3.7355    0.0000 O   0  0  0  0  0  0  0  0  0  0  0  0
   -3.7261    1.7042    0.0000 C   0  0  0  0  0  0  0  0  0  0  0  0
   -3.9497    0.2210    0.0000 C   0  0  0  0  0  0  0  0  0  0  0  0
   -5.3460   -0.3270    0.0000 C   0  0  0  0  0  0  0  0  0  0  0  0
   -6.5188    0.6082    0.0000 O   0  0  0  0  0  0  0  0  0  0  0  0
   -5.5696   -1.8103    0.0000 C   0  0  0  0  0  0  0  0  0  0  0  0
   -6.9659   -2.3583    0.0000 O   0  0  0  0  0  0  0  0  0  0  0  0
   -4.3969   -2.7455    0.0000 C   0  0  0  0  0  0  0  0  0  0  0  0
   -3.0005   -2.1975    0.0000 C   0  0  0  0  0  0  0  0  0  0  0  0
   -2.7770   -0.7143    0.0000 C   0  0  0  0  0  0  0  0  0  0  0  0
   -1.6042   -1.6495    0.0000 C   0  0  0  0  0  0  0  0  0  0  0  0
   -1.3807   -0.1663    0.0000 C   0  0  0  0  0  0  0  0  0  0  0  0
   -0.2079   -1.1015    0.0000 C   0  0  0  0  0  0  0  0  0  0  0  0
    1.1884   -0.5535    0.0000 C   0  0  0  0  0  0  0  0  0  0  0  0
    2.3611   -1.4887    0.0000 O   0  0  0  0  0  0  0  0  0  0  0  0
    1.4120    0.9297    0.0000 C   0  0  0  0  0  0  0  0  0  0  0  0
    2.6760    0.1222    0.0000 C   0  0  0  0  0  0  0  0  0  0  0  0
  2  1  1  6
  2  3  1  0
  3  4  1  0
  4  5  1  0
  5  6  2  0
  5  7  1  0
  2  8  1  0
  8  9  1  6
  9 10  1  0
 11 10  1  6
 11 12  1  0
 12 13  1  1
 13 14  1  1
 13 15  1  0
 16 15  1  1
 16 17  1  0
 17 18  1  1
 17 19  1  0
 19 20  1  1
 19 21  1  0
 21 22  1  0
 22 23  1  0
 23 24  1  6
 23 25  1  0
 25 26  1  6
 26 27  1  0
 27 28  1  1
 27 29  1  0
 29 30  1  6
 29  8  1  0
 29 11  1  0
 25 12  1  0
 23 16  1  0
M  END
>  <MS_ID>  (3478) 
MS3657

>  <SMILES>  (3478) 
C[C@H](CCC(=O)O)[C@H]1CC[C@H]2[C@@H]3[C@H](O)C[C@@H]4[C@H](O)[C@H](O)CC[C@]4(C)[C@H]3C[C@H](O)[C@]12C

>  <Structure_dimension>  (3478) 
2D

$$$$
MS3658
     RDKit          2D

 41 45  0  0  0  0  0  0  0  0999 V2000
   -8.0614   -2.0658    0.0000 C   0  0  0  0  0  0  0  0  0  0  0  0
   -6.9059   -1.1092    0.0000 C   0  0  0  0  0  0  0  0  0  0  0  0
   -7.1566    0.3697    0.0000 C   0  0  0  0  0  0  0  0  0  0  0  0
   -8.5627    0.8920    0.0000 C   0  0  0  0  0  0  0  0  0  0  0  0
   -8.8134    2.3709    0.0000 C   0  0  0  0  0  0  0  0  0  0  0  0
   -7.6579    3.3275    0.0000 O   0  0  0  0  0  0  0  0  0  0  0  0
  -10.2195    2.8933    0.0000 O   0  0  0  0  0  0  0  0  0  0  0  0
   -5.4998   -1.6316    0.0000 C   0  0  0  0  0  0  0  0  0  0  0  0
   -5.0960   -3.0762    0.0000 C   0  0  0  0  0  0  0  0  0  0  0  0
   -3.5972   -3.1385    0.0000 C   0  0  0  0  0  0  0  0  0  0  0  0
   -3.0749   -1.7324    0.0000 C   0  0  0  0  0  0  0  0  0  0  0  0
   -1.6804   -1.1797    0.0000 C   0  0  0  0  0  0  0  0  0  0  0  0
   -0.5045   -2.1111    0.0000 C   0  0  0  0  0  0  0  0  0  0  0  0
   -0.7232   -3.5951    0.0000 O   0  0  0  0  0  0  0  0  0  0  0  0
    0.8899   -1.5584    0.0000 C   0  0  0  0  0  0  0  0  0  0  0  0
    2.0658   -2.4897    0.0000 O   0  0  0  0  0  0  0  0  0  0  0  0
    1.1085   -0.0744    0.0000 C   0  0  0  0  0  0  0  0  0  0  0  0
    2.5030    0.4783    0.0000 C   0  0  0  0  0  0  0  0  0  0  0  0
    2.7216    1.9622    0.0000 C   0  0  0  0  0  0  0  0  0  0  0  0
    4.1161    2.5149    0.0000 O   0  0  0  0  0  0  0  0  0  0  0  0
    5.2920    1.5836    0.0000 C   0  0  0  0  0  0  0  0  0  0  0  0
    5.0734    0.0996    0.0000 O   0  0  0  0  0  0  0  0  0  0  0  0
    6.2492   -0.8317    0.0000 C   0  0  0  0  0  0  0  0  0  0  0  0
    6.0306   -2.3157    0.0000 C   0  0  0  0  0  0  0  0  0  0  0  0
    7.2065   -3.2470    0.0000 O   0  0  0  0  0  0  0  0  0  0  0  0
    4.6361   -2.8684    0.0000 O   0  0  0  0  0  0  0  0  0  0  0  0
    7.6437   -0.2790    0.0000 C   0  0  0  0  0  0  0  0  0  0  0  0
    8.8196   -1.2104    0.0000 O   0  0  0  0  0  0  0  0  0  0  0  0
    7.8623    1.2049    0.0000 C   0  0  0  0  0  0  0  0  0  0  0  0
    9.2568    1.7576    0.0000 O   0  0  0  0  0  0  0  0  0  0  0  0
    6.6864    2.1363    0.0000 C   0  0  0  0  0  0  0  0  0  0  0  0
    6.9051    3.6202    0.0000 O   0  0  0  0  0  0  0  0  0  0  0  0
    1.5458    2.8936    0.0000 C   0  0  0  0  0  0  0  0  0  0  0  0
    0.1513    2.3409    0.0000 C   0  0  0  0  0  0  0  0  0  0  0  0
   -0.0673    0.8569    0.0000 C   0  0  0  0  0  0  0  0  0  0  0  0
   -1.2432    1.7882    0.0000 C   0  0  0  0  0  0  0  0  0  0  0  0
   -1.4618    0.3042    0.0000 C   0  0  0  0  0  0  0  0  0  0  0  0
   -2.6377    1.2356    0.0000 C   0  0  0  0  0  0  0  0  0  0  0  0
   -4.0321    0.6829    0.0000 C   0  0  0  0  0  0  0  0  0  0  0  0
   -4.2507   -0.8011    0.0000 C   0  0  0  0  0  0  0  0  0  0  0  0
   -5.5175    0.0022    0.0000 C   0  0  0  0  0  0  0  0  0  0  0  0
  2  1  1  6
  2  3  1  0
  3  4  1  0
  4  5  1  0
  5  6  2  0
  5  7  1  0
  2  8  1  0
  8  9  1  6
  9 10  1  0
 11 10  1  6
 11 12  1  0
 12 13  1  1
 13 14  1  6
 13 15  1  0
 15 16  1  6
 15 17  1  0
 17 18  1  1
 18 19  1  0
 19 20  1  1
 21 20  1  1
 21 22  1  0
 22 23  1  0
 23 24  1  1
 24 25  2  0
 24 26  1  0
 23 27  1  0
 27 28  1  6
 27 29  1  0
 29 30  1  1
 29 31  1  0
 31 32  1  6
 19 33  1  0
 33 34  1  0
 34 35  1  0
 35 36  1  6
 35 37  1  0
 37 38  1  6
 38 39  1  0
 39 40  1  0
 40 41  1  6
 40  8  1  0
 40 11  1  0
 37 12  1  0
 35 17  1  0
 31 21  1  0
M  END
>  <MS_ID>  (3479) 
MS3658

>  <SMILES>  (3479) 
C[C@H](CCC(=O)O)[C@H]1CC[C@H]2[C@@H]3[C@@H](O)[C@@H](O)[C@@H]4C[C@H](O[C@@H]5O[C@H](C(=O)O)[C@@H](O)[C@H](O)[C@H]5O)CC[C@]4(C)[C@H]3CC[C@]12C

>  <Structure_dimension>  (3479) 
2D

$$$$
MS3660
     RDKit          2D

 39 42  0  0  0  0  0  0  0  0999 V2000
   -3.5786   -4.2742    0.0000 C   0  0  0  0  0  0  0  0  0  0  0  0
   -2.6979   -3.0599    0.0000 C   0  0  0  0  0  0  0  0  0  0  0  0
   -3.3092   -1.6901    0.0000 C   0  0  0  0  0  0  0  0  0  0  0  0
   -4.8011   -1.5346    0.0000 C   0  0  0  0  0  0  0  0  0  0  0  0
   -5.4123   -0.1648    0.0000 C   0  0  0  0  0  0  0  0  0  0  0  0
   -4.5317    1.0495    0.0000 O   0  0  0  0  0  0  0  0  0  0  0  0
   -6.9042   -0.0092    0.0000 N   0  0  0  0  0  0  0  0  0  0  0  0
   -7.5155    1.3606    0.0000 C   0  0  0  0  0  0  0  0  0  0  0  0
   -9.0074    1.5162    0.0000 C   0  0  0  0  0  0  0  0  0  0  0  0
   -9.6186    2.8860    0.0000 S   0  0  0  0  0  0  0  0  0  0  0  0
  -10.9885    2.2747    0.0000 O   0  0  0  0  0  0  0  0  0  0  0  0
   -8.2488    3.4972    0.0000 O   0  0  0  0  0  0  0  0  0  0  0  0
  -10.2299    4.2558    0.0000 O   0  0  0  0  0  0  0  0  0  0  0  0
   -1.2060   -3.2155    0.0000 C   0  0  0  0  0  0  0  0  0  0  0  0
   -0.4549   -4.5139    0.0000 C   0  0  0  0  0  0  0  0  0  0  0  0
    1.0120   -4.2008    0.0000 C   0  0  0  0  0  0  0  0  0  0  0  0
    1.1676   -2.7089    0.0000 C   0  0  0  0  0  0  0  0  0  0  0  0
    2.3804   -1.8262    0.0000 C   0  0  0  0  0  0  0  0  0  0  0  0
    3.7512   -2.4352    0.0000 C   0  0  0  0  0  0  0  0  0  0  0  0
    3.9092   -3.9268    0.0000 O   0  0  0  0  0  0  0  0  0  0  0  0
    4.9640   -1.5525    0.0000 C   0  0  0  0  0  0  0  0  0  0  0  0
    4.8059   -0.0608    0.0000 C   0  0  0  0  0  0  0  0  0  0  0  0
    6.0187    0.8218    0.0000 C   0  0  0  0  0  0  0  0  0  0  0  0
    5.8607    2.3135    0.0000 C   0  0  0  0  0  0  0  0  0  0  0  0
    7.0735    3.1962    0.0000 O   0  0  0  0  0  0  0  0  0  0  0  0
    8.4443    2.5872    0.0000 S   0  0  0  0  0  0  0  0  0  0  0  0
    7.8354    1.2164    0.0000 O   0  0  0  0  0  0  0  0  0  0  0  0
    9.0533    3.9580    0.0000 O   0  0  0  0  0  0  0  0  0  0  0  0
    9.8152    1.9782    0.0000 O   0  0  0  0  0  0  0  0  0  0  0  0
    4.4899    2.9225    0.0000 C   0  0  0  0  0  0  0  0  0  0  0  0
    3.2771    2.0398    0.0000 C   0  0  0  0  0  0  0  0  0  0  0  0
    3.4351    0.5481    0.0000 C   0  0  0  0  0  0  0  0  0  0  0  0
    2.0643    1.1571    0.0000 C   0  0  0  0  0  0  0  0  0  0  0  0
    2.2223   -0.3346    0.0000 C   0  0  0  0  0  0  0  0  0  0  0  0
    0.8515    0.2744    0.0000 C   0  0  0  0  0  0  0  0  0  0  0  0
   -0.3613   -0.6083    0.0000 C   0  0  0  0  0  0  0  0  0  0  0  0
   -1.7321    0.0007    0.0000 O   0  0  0  0  0  0  0  0  0  0  0  0
   -0.2033   -2.0999    0.0000 C   0  0  0  0  0  0  0  0  0  0  0  0
   -1.6302   -1.6376    0.0000 C   0  0  0  0  0  0  0  0  0  0  0  0
  2  1  1  6
  2  3  1  0
  3  4  1  0
  4  5  1  0
  5  6  2  0
  5  7  1  0
  7  8  1  0
  8  9  1  0
  9 10  1  0
 10 11  2  0
 10 12  2  0
 10 13  1  0
  2 14  1  0
 14 15  1  6
 15 16  1  0
 17 16  1  6
 17 18  1  0
 18 19  1  1
 19 20  1  1
 19 21  1  0
 22 21  1  1
 22 23  1  0
 23 24  1  0
 24 25  1  1
 25 26  1  0
 26 27  2  0
 26 28  2  0
 26 29  1  0
 24 30  1  0
 30 31  1  0
 31 32  1  0
 32 33  1  6
 32 34  1  0
 34 35  1  6
 35 36  1  0
 36 37  1  1
 36 38  1  0
 38 39  1  6
 38 14  1  0
 38 17  1  0
 34 18  1  0
 32 22  1  0
M  END
>  <MS_ID>  (3480) 
MS3660

>  <SMILES>  (3480) 
C[C@H](CCC(=O)NCCS(=O)(=O)O)[C@H]1CC[C@H]2[C@@H]3[C@H](O)C[C@@H]4C[C@H](OS(=O)(=O)O)CC[C@]4(C)[C@H]3C[C@H](O)[C@]12C

>  <Structure_dimension>  (3480) 
2D

$$$$
MS3661
     RDKit          2D

 29 32  0  0  0  0  0  0  0  0999 V2000
    5.1301    2.1349    0.0000 C   0  0  0  0  0  0  0  0  0  0  0  0
    3.9163    1.2536    0.0000 C   0  0  0  0  0  0  0  0  0  0  0  0
    4.0726   -0.2382    0.0000 C   0  0  0  0  0  0  0  0  0  0  0  0
    5.4427   -0.8488    0.0000 C   0  0  0  0  0  0  0  0  0  0  0  0
    5.5990   -2.3406    0.0000 C   0  0  0  0  0  0  0  0  0  0  0  0
    4.3852   -3.2219    0.0000 O   0  0  0  0  0  0  0  0  0  0  0  0
    6.9691   -2.9512    0.0000 O   0  0  0  0  0  0  0  0  0  0  0  0
    2.5461    1.8642    0.0000 C   0  0  0  0  0  0  0  0  0  0  0  0
    2.2348    3.3315    0.0000 C   0  0  0  0  0  0  0  0  0  0  0  0
    0.7430    3.4888    0.0000 C   0  0  0  0  0  0  0  0  0  0  0  0
    0.1325    2.1187    0.0000 C   0  0  0  0  0  0  0  0  0  0  0  0
   -1.2943    1.6556    0.0000 C   0  0  0  0  0  0  0  0  0  0  0  0
   -2.4086    2.6597    0.0000 C   0  0  0  0  0  0  0  0  0  0  0  0
   -3.8354    2.1966    0.0000 C   0  0  0  0  0  0  0  0  0  0  0  0
   -4.1477    0.7295    0.0000 C   0  0  0  0  0  0  0  0  0  0  0  0
   -5.5745    0.2665    0.0000 C   0  0  0  0  0  0  0  0  0  0  0  0
   -5.8868   -1.2007    0.0000 C   0  0  0  0  0  0  0  0  0  0  0  0
   -7.3136   -1.6637    0.0000 O   0  0  0  0  0  0  0  0  0  0  0  0
   -4.7724   -2.2047    0.0000 C   0  0  0  0  0  0  0  0  0  0  0  0
   -3.3457   -1.7417    0.0000 C   0  0  0  0  0  0  0  0  0  0  0  0
   -2.2313   -2.7457    0.0000 O   0  0  0  0  0  0  0  0  0  0  0  0
   -3.0334   -0.2746    0.0000 C   0  0  0  0  0  0  0  0  0  0  0  0
   -1.9190   -1.2786    0.0000 C   0  0  0  0  0  0  0  0  0  0  0  0
   -1.6066    0.1885    0.0000 C   0  0  0  0  0  0  0  0  0  0  0  0
   -0.4922   -0.8156    0.0000 C   0  0  0  0  0  0  0  0  0  0  0  0
    0.9345   -0.3525    0.0000 C   0  0  0  0  0  0  0  0  0  0  0  0
    2.0489   -1.3566    0.0000 O   0  0  0  0  0  0  0  0  0  0  0  0
    1.2469    1.1146    0.0000 C   0  0  0  0  0  0  0  0  0  0  0  0
    2.4601    0.2325    0.0000 C   0  0  0  0  0  0  0  0  0  0  0  0
  2  1  1  6
  2  3  1  0
  3  4  1  0
  4  5  1  0
  5  6  2  0
  5  7  1  0
  2  8  1  0
  8  9  1  6
  9 10  1  0
 11 10  1  6
 11 12  1  0
 12 13  1  1
 13 14  1  0
 15 14  1  1
 15 16  1  0
 16 17  1  0
 17 18  1  1
 17 19  1  0
 19 20  1  0
 20 21  1  6
 20 22  1  0
 22 23  1  6
 22 24  1  0
 24 25  1  6
 25 26  1  0
 26 27  1  1
 26 28  1  0
 28 29  1  6
 28  8  1  0
 28 11  1  0
 24 12  1  0
 22 15  1  0
M  END
>  <MS_ID>  (3481) 
MS3661

>  <SMILES>  (3481) 
C[C@H](CCC(=O)O)[C@H]1CC[C@H]2[C@@H]3CC[C@@H]4C[C@H](O)C[C@@H](O)[C@]4(C)[C@H]3C[C@H](O)[C@]12C

>  <Structure_dimension>  (3481) 
2D

$$$$
MS3664
     RDKit          2D

 34 37  0  0  0  0  0  0  0  0999 V2000
   -2.4592   -4.0923    0.0000 C   0  0  0  0  0  0  0  0  0  0  0  0
   -1.6735   -2.8146    0.0000 C   0  0  0  0  0  0  0  0  0  0  0  0
   -2.3871   -1.4952    0.0000 C   0  0  0  0  0  0  0  0  0  0  0  0
   -3.8865   -1.4536    0.0000 C   0  0  0  0  0  0  0  0  0  0  0  0
   -4.6002   -0.1343    0.0000 C   0  0  0  0  0  0  0  0  0  0  0  0
   -3.8145    1.1434    0.0000 O   0  0  0  0  0  0  0  0  0  0  0  0
   -6.0996   -0.0927    0.0000 N   0  0  0  0  0  0  0  0  0  0  0  0
   -6.8133    1.2267    0.0000 C   0  0  0  0  0  0  0  0  0  0  0  0
   -6.0276    2.5044    0.0000 C   0  0  0  0  0  0  0  0  0  0  0  0
   -6.7412    3.8238    0.0000 S   0  0  0  0  0  0  0  0  0  0  0  0
   -8.3127    1.2683    0.0000 C   0  0  0  0  0  0  0  0  0  0  0  0
   -9.0985   -0.0094    0.0000 O   0  0  0  0  0  0  0  0  0  0  0  0
   -9.0264    2.5876    0.0000 O   0  0  0  0  0  0  0  0  0  0  0  0
   -0.1740   -2.8562    0.0000 C   0  0  0  0  0  0  0  0  0  0  0  0
    0.6736   -4.0937    0.0000 C   0  0  0  0  0  0  0  0  0  0  0  0
    2.1125   -3.6700    0.0000 C   0  0  0  0  0  0  0  0  0  0  0  0
    2.1541   -2.1705    0.0000 C   0  0  0  0  0  0  0  0  0  0  0  0
    3.2963   -1.1982    0.0000 C   0  0  0  0  0  0  0  0  0  0  0  0
    4.7095   -1.7011    0.0000 C   0  0  0  0  0  0  0  0  0  0  0  0
    4.9805   -3.1764    0.0000 O   0  0  0  0  0  0  0  0  0  0  0  0
    5.8516   -0.7287    0.0000 C   0  0  0  0  0  0  0  0  0  0  0  0
    5.5806    0.7466    0.0000 C   0  0  0  0  0  0  0  0  0  0  0  0
    6.7227    1.7190    0.0000 C   0  0  0  0  0  0  0  0  0  0  0  0
    6.4517    3.1943    0.0000 C   0  0  0  0  0  0  0  0  0  0  0  0
    7.5938    4.1667    0.0000 O   0  0  0  0  0  0  0  0  0  0  0  0
    5.0385    3.6972    0.0000 C   0  0  0  0  0  0  0  0  0  0  0  0
    3.8963    2.7248    0.0000 C   0  0  0  0  0  0  0  0  0  0  0  0
    4.1674    1.2495    0.0000 C   0  0  0  0  0  0  0  0  0  0  0  0
    2.7542    1.7525    0.0000 C   0  0  0  0  0  0  0  0  0  0  0  0
    3.0252    0.2771    0.0000 C   0  0  0  0  0  0  0  0  0  0  0  0
    1.6121    0.7801    0.0000 C   0  0  0  0  0  0  0  0  0  0  0  0
    0.4699   -0.1923    0.0000 C   0  0  0  0  0  0  0  0  0  0  0  0
    0.7410   -1.6676    0.0000 C   0  0  0  0  0  0  0  0  0  0  0  0
   -0.7170   -1.3152    0.0000 C   0  0  0  0  0  0  0  0  0  0  0  0
  2  1  1  6
  2  3  1  0
  3  4  1  0
  4  5  1  0
  5  6  2  0
  5  7  1  0
  7  8  1  0
  8  9  1  6
  9 10  1  0
  8 11  1  0
 11 12  2  0
 11 13  1  0
  2 14  1  0
 14 15  1  6
 15 16  1  0
 17 16  1  6
 17 18  1  0
 18 19  1  1
 19 20  1  1
 19 21  1  0
 22 21  1  1
 22 23  1  0
 23 24  1  0
 24 25  1  1
 24 26  1  0
 26 27  1  0
 27 28  1  0
 28 29  1  6
 28 30  1  0
 30 31  1  6
 31 32  1  0
 32 33  1  0
 33 34  1  6
 33 14  1  0
 33 17  1  0
 30 18  1  0
 28 22  1  0
M  END
>  <MS_ID>  (3482) 
MS3664

>  <SMILES>  (3482) 
C[C@H](CCC(=O)N[C@@H](CS)C(=O)O)[C@H]1CC[C@H]2[C@@H]3[C@H](O)C[C@@H]4C[C@H](O)CC[C@]4(C)[C@H]3CC[C@]12C

>  <Structure_dimension>  (3482) 
2D

$$$$
MS3665
     RDKit          2D

 40 44  0  0  0  0  0  0  0  0999 V2000
   -8.0742   -2.1752    0.0000 C   0  0  0  0  0  0  0  0  0  0  0  0
   -6.9211   -1.2159    0.0000 C   0  0  0  0  0  0  0  0  0  0  0  0
   -7.1753    0.2624    0.0000 C   0  0  0  0  0  0  0  0  0  0  0  0
   -8.5827    0.7814    0.0000 C   0  0  0  0  0  0  0  0  0  0  0  0
   -8.8369    2.2597    0.0000 C   0  0  0  0  0  0  0  0  0  0  0  0
   -7.6838    3.2190    0.0000 O   0  0  0  0  0  0  0  0  0  0  0  0
  -10.2443    2.7786    0.0000 O   0  0  0  0  0  0  0  0  0  0  0  0
   -5.5137   -1.7349    0.0000 C   0  0  0  0  0  0  0  0  0  0  0  0
   -5.1064   -3.1785    0.0000 C   0  0  0  0  0  0  0  0  0  0  0  0
   -3.6075   -3.2371    0.0000 C   0  0  0  0  0  0  0  0  0  0  0  0
   -3.0885   -1.8298    0.0000 C   0  0  0  0  0  0  0  0  0  0  0  0
   -1.6954   -1.2737    0.0000 C   0  0  0  0  0  0  0  0  0  0  0  0
   -0.5173   -2.2022    0.0000 C   0  0  0  0  0  0  0  0  0  0  0  0
    0.8758   -1.6462    0.0000 C   0  0  0  0  0  0  0  0  0  0  0  0
    2.0540   -2.5746    0.0000 O   0  0  0  0  0  0  0  0  0  0  0  0
    1.0909   -0.1616    0.0000 C   0  0  0  0  0  0  0  0  0  0  0  0
    2.4840    0.3944    0.0000 C   0  0  0  0  0  0  0  0  0  0  0  0
    2.6990    1.8789    0.0000 C   0  0  0  0  0  0  0  0  0  0  0  0
    4.0921    2.4349    0.0000 O   0  0  0  0  0  0  0  0  0  0  0  0
    5.2703    1.5065    0.0000 C   0  0  0  0  0  0  0  0  0  0  0  0
    5.0552    0.0220    0.0000 O   0  0  0  0  0  0  0  0  0  0  0  0
    6.2334   -0.9065    0.0000 C   0  0  0  0  0  0  0  0  0  0  0  0
    6.0183   -2.3910    0.0000 C   0  0  0  0  0  0  0  0  0  0  0  0
    7.1964   -3.3195    0.0000 O   0  0  0  0  0  0  0  0  0  0  0  0
    4.6252   -2.9470    0.0000 O   0  0  0  0  0  0  0  0  0  0  0  0
    7.6265   -0.3505    0.0000 C   0  0  0  0  0  0  0  0  0  0  0  0
    8.8046   -1.2789    0.0000 O   0  0  0  0  0  0  0  0  0  0  0  0
    7.8415    1.1341    0.0000 C   0  0  0  0  0  0  0  0  0  0  0  0
    9.2346    1.6901    0.0000 O   0  0  0  0  0  0  0  0  0  0  0  0
    6.6634    2.0625    0.0000 C   0  0  0  0  0  0  0  0  0  0  0  0
    6.8784    3.5470    0.0000 O   0  0  0  0  0  0  0  0  0  0  0  0
    1.5209    2.8074    0.0000 C   0  0  0  0  0  0  0  0  0  0  0  0
    0.1278    2.2513    0.0000 C   0  0  0  0  0  0  0  0  0  0  0  0
   -0.0873    0.7668    0.0000 C   0  0  0  0  0  0  0  0  0  0  0  0
   -1.2654    1.6953    0.0000 C   0  0  0  0  0  0  0  0  0  0  0  0
   -1.4804    0.2108    0.0000 C   0  0  0  0  0  0  0  0  0  0  0  0
   -2.6585    1.1392    0.0000 C   0  0  0  0  0  0  0  0  0  0  0  0
   -4.0516    0.5832    0.0000 C   0  0  0  0  0  0  0  0  0  0  0  0
   -4.2666   -0.9013    0.0000 C   0  0  0  0  0  0  0  0  0  0  0  0
   -5.5354   -0.1011    0.0000 C   0  0  0  0  0  0  0  0  0  0  0  0
  2  1  1  6
  2  3  1  0
  3  4  1  0
  4  5  1  0
  5  6  2  0
  5  7  1  0
  2  8  1  0
  8  9  1  6
  9 10  1  0
 11 10  1  6
 11 12  1  0
 12 13  1  1
 13 14  1  0
 14 15  1  6
 14 16  1  0
 16 17  1  1
 17 18  1  0
 18 19  1  1
 20 19  1  1
 20 21  1  0
 21 22  1  0
 22 23  1  1
 23 24  2  0
 23 25  1  0
 22 26  1  0
 26 27  1  6
 26 28  1  0
 28 29  1  1
 28 30  1  0
 30 31  1  6
 18 32  1  0
 32 33  1  0
 33 34  1  0
 34 35  1  6
 34 36  1  0
 36 37  1  6
 37 38  1  0
 38 39  1  0
 39 40  1  6
 39  8  1  0
 39 11  1  0
 36 12  1  0
 34 16  1  0
 30 20  1  0
M  END
>  <MS_ID>  (3483) 
MS3665

>  <SMILES>  (3483) 
C[C@H](CCC(=O)O)[C@H]1CC[C@H]2[C@@H]3C[C@@H](O)[C@@H]4C[C@H](O[C@@H]5O[C@H](C(=O)O)[C@@H](O)[C@H](O)[C@H]5O)CC[C@]4(C)[C@H]3CC[C@]12C

>  <Structure_dimension>  (3483) 
2D

$$$$
MS3667
     RDKit          2D

 38 41  0  0  0  0  0  0  0  0999 V2000
   -1.4317   -4.5102    0.0000 C   0  0  0  0  0  0  0  0  0  0  0  0
   -0.7853   -3.1566    0.0000 C   0  0  0  0  0  0  0  0  0  0  0  0
   -1.6344   -1.9200    0.0000 C   0  0  0  0  0  0  0  0  0  0  0  0
   -3.1298   -2.0371    0.0000 C   0  0  0  0  0  0  0  0  0  0  0  0
   -3.9789   -0.8005    0.0000 C   0  0  0  0  0  0  0  0  0  0  0  0
   -3.3326    0.5531    0.0000 O   0  0  0  0  0  0  0  0  0  0  0  0
   -5.4743   -0.9176    0.0000 N   0  0  0  0  0  0  0  0  0  0  0  0
   -6.3234    0.3190    0.0000 C   0  0  0  0  0  0  0  0  0  0  0  0
   -7.8188    0.2020    0.0000 C   0  0  0  0  0  0  0  0  0  0  0  0
   -8.6679    1.4385    0.0000 C   0  0  0  0  0  0  0  0  0  0  0  0
  -10.1634    1.3215    0.0000 C   0  0  0  0  0  0  0  0  0  0  0  0
  -11.0124    2.5580    0.0000 N   0  0  0  0  0  0  0  0  0  0  0  0
  -10.8097   -0.0321    0.0000 O   0  0  0  0  0  0  0  0  0  0  0  0
   -5.6771    1.6726    0.0000 C   0  0  0  0  0  0  0  0  0  0  0  0
   -4.1816    1.7897    0.0000 O   0  0  0  0  0  0  0  0  0  0  0  0
   -6.5262    2.9092    0.0000 O   0  0  0  0  0  0  0  0  0  0  0  0
    0.7101   -3.0395    0.0000 C   0  0  0  0  0  0  0  0  0  0  0  0
    1.6838   -4.1805    0.0000 C   0  0  0  0  0  0  0  0  0  0  0  0
    3.0698   -3.6071    0.0000 C   0  0  0  0  0  0  0  0  0  0  0  0
    2.9528   -2.1117    0.0000 C   0  0  0  0  0  0  0  0  0  0  0  0
    3.9858   -1.0241    0.0000 C   0  0  0  0  0  0  0  0  0  0  0  0
    5.4442   -1.3749    0.0000 C   0  0  0  0  0  0  0  0  0  0  0  0
    5.8696   -2.8133    0.0000 O   0  0  0  0  0  0  0  0  0  0  0  0
    6.4772   -0.2872    0.0000 C   0  0  0  0  0  0  0  0  0  0  0  0
    7.9356   -0.6380    0.0000 O   0  0  0  0  0  0  0  0  0  0  0  0
    6.0518    1.1512    0.0000 C   0  0  0  0  0  0  0  0  0  0  0  0
    7.0848    2.2388    0.0000 C   0  0  0  0  0  0  0  0  0  0  0  0
    6.6594    3.6772    0.0000 C   0  0  0  0  0  0  0  0  0  0  0  0
    7.6924    4.7648    0.0000 O   0  0  0  0  0  0  0  0  0  0  0  0
    5.2010    4.0280    0.0000 C   0  0  0  0  0  0  0  0  0  0  0  0
    4.1680    2.9404    0.0000 C   0  0  0  0  0  0  0  0  0  0  0  0
    4.5934    1.5020    0.0000 C   0  0  0  0  0  0  0  0  0  0  0  0
    3.1350    1.8528    0.0000 C   0  0  0  0  0  0  0  0  0  0  0  0
    3.5604    0.4144    0.0000 C   0  0  0  0  0  0  0  0  0  0  0  0
    2.1020    0.7651    0.0000 C   0  0  0  0  0  0  0  0  0  0  0  0
    1.0690   -0.3225    0.0000 C   0  0  0  0  0  0  0  0  0  0  0  0
    1.4944   -1.7609    0.0000 C   0  0  0  0  0  0  0  0  0  0  0  0
    0.0073   -1.5645    0.0000 C   0  0  0  0  0  0  0  0  0  0  0  0
  2  1  1  6
  2  3  1  0
  3  4  1  0
  4  5  1  0
  5  6  2  0
  5  7  1  0
  7  8  1  0
  8  9  1  1
  9 10  1  0
 10 11  1  0
 11 12  1  0
 11 13  2  0
  8 14  1  0
 14 15  2  0
 14 16  1  0
  2 17  1  0
 17 18  1  6
 18 19  1  0
 20 19  1  6
 20 21  1  0
 21 22  1  1
 22 23  1  1
 22 24  1  0
 24 25  1  1
 24 26  1  0
 26 27  1  1
 27 28  1  0
 28 29  1  1
 28 30  1  0
 30 31  1  0
 31 32  1  0
 32 33  1  6
 32 34  1  0
 34 35  1  6
 35 36  1  0
 36 37  1  0
 37 38  1  6
 37 17  1  0
 37 20  1  0
 34 21  1  0
 32 26  1  0
M  END
>  <MS_ID>  (3484) 
MS3667

>  <SMILES>  (3484) 
C[C@H](CCC(=O)N[C@@H](CCC(N)=O)C(=O)O)[C@H]1CC[C@H]2[C@@H]3[C@H](O)[C@H](O)[C@@H]4C[C@H](O)CC[C@]4(C)[C@H]3CC[C@]12C

>  <Structure_dimension>  (3484) 
2D

$$$$
MS3669
     RDKit          2D

 40 44  0  0  0  0  0  0  0  0999 V2000
   -0.3256   -5.0186    0.0000 C   0  0  0  0  0  0  0  0  0  0  0  0
    0.2266   -3.6239    0.0000 C   0  0  0  0  0  0  0  0  0  0  0  0
   -0.7051   -2.4483    0.0000 C   0  0  0  0  0  0  0  0  0  0  0  0
   -2.1890   -2.6674    0.0000 C   0  0  0  0  0  0  0  0  0  0  0  0
   -3.1206   -1.4918    0.0000 C   0  0  0  0  0  0  0  0  0  0  0  0
   -2.5684   -0.0972    0.0000 O   0  0  0  0  0  0  0  0  0  0  0  0
   -4.6046   -1.7109    0.0000 O   0  0  0  0  0  0  0  0  0  0  0  0
   -5.5362   -0.5353    0.0000 C   0  0  0  0  0  0  0  0  0  0  0  0
   -4.9840    0.8593    0.0000 O   0  0  0  0  0  0  0  0  0  0  0  0
   -5.9157    2.0349    0.0000 C   0  0  0  0  0  0  0  0  0  0  0  0
   -5.3634    3.4295    0.0000 C   0  0  0  0  0  0  0  0  0  0  0  0
   -6.2951    4.6051    0.0000 O   0  0  0  0  0  0  0  0  0  0  0  0
   -3.8795    3.6486    0.0000 O   0  0  0  0  0  0  0  0  0  0  0  0
   -7.3996    1.8158    0.0000 C   0  0  0  0  0  0  0  0  0  0  0  0
   -8.3313    2.9914    0.0000 O   0  0  0  0  0  0  0  0  0  0  0  0
   -7.9518    0.4212    0.0000 C   0  0  0  0  0  0  0  0  0  0  0  0
   -9.4357    0.2021    0.0000 O   0  0  0  0  0  0  0  0  0  0  0  0
   -7.0202   -0.7544    0.0000 C   0  0  0  0  0  0  0  0  0  0  0  0
   -7.5724   -2.1490    0.0000 O   0  0  0  0  0  0  0  0  0  0  0  0
    1.7105   -3.4049    0.0000 C   0  0  0  0  0  0  0  0  0  0  0  0
    2.7600   -4.4766    0.0000 C   0  0  0  0  0  0  0  0  0  0  0  0
    4.1036   -3.8097    0.0000 C   0  0  0  0  0  0  0  0  0  0  0  0
    3.8845   -2.3258    0.0000 C   0  0  0  0  0  0  0  0  0  0  0  0
    4.8407   -1.1701    0.0000 C   0  0  0  0  0  0  0  0  0  0  0  0
    6.3197   -1.4203    0.0000 C   0  0  0  0  0  0  0  0  0  0  0  0
    7.2759   -0.2646    0.0000 C   0  0  0  0  0  0  0  0  0  0  0  0
    6.7531    1.1414    0.0000 C   0  0  0  0  0  0  0  0  0  0  0  0
    7.7093    2.2971    0.0000 C   0  0  0  0  0  0  0  0  0  0  0  0
    7.1865    3.7031    0.0000 C   0  0  0  0  0  0  0  0  0  0  0  0
    8.1426    4.8588    0.0000 O   0  0  0  0  0  0  0  0  0  0  0  0
    5.7075    3.9533    0.0000 C   0  0  0  0  0  0  0  0  0  0  0  0
    4.7513    2.7976    0.0000 C   0  0  0  0  0  0  0  0  0  0  0  0
    5.2741    1.3916    0.0000 C   0  0  0  0  0  0  0  0  0  0  0  0
    3.7951    1.6418    0.0000 C   0  0  0  0  0  0  0  0  0  0  0  0
    4.3179    0.2359    0.0000 C   0  0  0  0  0  0  0  0  0  0  0  0
    2.8389    0.4861    0.0000 C   0  0  0  0  0  0  0  0  0  0  0  0
    1.8827   -0.6696    0.0000 C   0  0  0  0  0  0  0  0  0  0  0  0
    0.4037   -0.4194    0.0000 O   0  0  0  0  0  0  0  0  0  0  0  0
    2.4055   -2.0756    0.0000 C   0  0  0  0  0  0  0  0  0  0  0  0
    0.9085   -1.9813    0.0000 C   0  0  0  0  0  0  0  0  0  0  0  0
  2  1  1  6
  2  3  1  0
  3  4  1  0
  4  5  1  0
  5  6  2  0
  5  7  1  0
  8  7  1  1
  8  9  1  0
  9 10  1  0
 10 11  1  1
 11 12  2  0
 11 13  1  0
 10 14  1  0
 14 15  1  6
 14 16  1  0
 16 17  1  1
 16 18  1  0
 18 19  1  6
  2 20  1  0
 20 21  1  6
 21 22  1  0
 23 22  1  6
 23 24  1  0
 24 25  1  1
 25 26  1  0
 27 26  1  1
 27 28  1  0
 28 29  1  0
 29 30  1  1
 29 31  1  0
 31 32  1  0
 32 33  1  0
 33 34  1  6
 33 35  1  0
 35 36  1  6
 36 37  1  0
 37 38  1  1
 37 39  1  0
 39 40  1  6
 18  8  1  0
 39 20  1  0
 39 23  1  0
 35 24  1  0
 33 27  1  0
M  END
>  <MS_ID>  (3485) 
MS3669

>  <SMILES>  (3485) 
C[C@H](CCC(=O)O[C@@H]1O[C@H](C(=O)O)[C@@H](O)[C@H](O)[C@H]1O)[C@H]1CC[C@H]2[C@@H]3CC[C@@H]4C[C@H](O)CC[C@]4(C)[C@H]3C[C@H](O)[C@]12C

>  <Structure_dimension>  (3485) 
2D

$$$$
MS3670
     RDKit          2D

 38 42  0  0  0  0  0  0  0  0999 V2000
   -0.0357   -4.8788    0.0000 C   0  0  0  0  0  0  0  0  0  0  0  0
    0.4506   -3.4598    0.0000 C   0  0  0  0  0  0  0  0  0  0  0  0
   -0.5351   -2.3292    0.0000 C   0  0  0  0  0  0  0  0  0  0  0  0
   -2.0072   -2.6175    0.0000 C   0  0  0  0  0  0  0  0  0  0  0  0
   -2.9929   -1.4869    0.0000 C   0  0  0  0  0  0  0  0  0  0  0  0
   -2.5066   -0.0679    0.0000 O   0  0  0  0  0  0  0  0  0  0  0  0
   -4.4649   -1.7753    0.0000 N   0  0  0  0  0  0  0  0  0  0  0  0
   -5.4507   -0.6446    0.0000 C   0  0  0  0  0  0  0  0  0  0  0  0
   -6.9227   -0.9330    0.0000 C   0  0  0  0  0  0  0  0  0  0  0  0
   -7.9084    0.1977    0.0000 C   0  0  0  0  0  0  0  0  0  0  0  0
   -7.4221    1.6166    0.0000 C   0  0  0  0  0  0  0  0  0  0  0  0
   -8.4079    2.7473    0.0000 C   0  0  0  0  0  0  0  0  0  0  0  0
   -9.8799    2.4589    0.0000 C   0  0  0  0  0  0  0  0  0  0  0  0
  -10.8656    3.5896    0.0000 O   0  0  0  0  0  0  0  0  0  0  0  0
  -10.3662    1.0399    0.0000 C   0  0  0  0  0  0  0  0  0  0  0  0
  -11.8382    0.7516    0.0000 O   0  0  0  0  0  0  0  0  0  0  0  0
   -9.3804   -0.0907    0.0000 C   0  0  0  0  0  0  0  0  0  0  0  0
    1.9226   -3.1714    0.0000 C   0  0  0  0  0  0  0  0  0  0  0  0
    3.0211   -4.1928    0.0000 C   0  0  0  0  0  0  0  0  0  0  0  0
    4.3320   -3.4637    0.0000 C   0  0  0  0  0  0  0  0  0  0  0  0
    4.0437   -1.9917    0.0000 C   0  0  0  0  0  0  0  0  0  0  0  0
    4.9446   -0.7924    0.0000 C   0  0  0  0  0  0  0  0  0  0  0  0
    6.4337   -0.9731    0.0000 C   0  0  0  0  0  0  0  0  0  0  0  0
    7.0218   -2.3530    0.0000 O   0  0  0  0  0  0  0  0  0  0  0  0
    7.3347    0.2262    0.0000 C   0  0  0  0  0  0  0  0  0  0  0  0
    6.7466    1.6061    0.0000 C   0  0  0  0  0  0  0  0  0  0  0  0
    7.6476    2.8054    0.0000 C   0  0  0  0  0  0  0  0  0  0  0  0
    7.0595    4.1853    0.0000 C   0  0  0  0  0  0  0  0  0  0  0  0
    7.9604    5.3845    0.0000 O   0  0  0  0  0  0  0  0  0  0  0  0
    5.5704    4.3659    0.0000 C   0  0  0  0  0  0  0  0  0  0  0  0
    4.6694    3.1666    0.0000 C   0  0  0  0  0  0  0  0  0  0  0  0
    5.2575    1.7867    0.0000 C   0  0  0  0  0  0  0  0  0  0  0  0
    3.7684    1.9674    0.0000 C   0  0  0  0  0  0  0  0  0  0  0  0
    4.3565    0.5875    0.0000 C   0  0  0  0  0  0  0  0  0  0  0  0
    2.8674    0.7681    0.0000 C   0  0  0  0  0  0  0  0  0  0  0  0
    1.9665   -0.4312    0.0000 C   0  0  0  0  0  0  0  0  0  0  0  0
    2.5546   -1.8111    0.0000 C   0  0  0  0  0  0  0  0  0  0  0  0
    1.0548   -1.7871    0.0000 C   0  0  0  0  0  0  0  0  0  0  0  0
  2  1  1  6
  2  3  1  0
  3  4  1  0
  4  5  1  0
  5  6  2  0
  5  7  1  0
  7  8  1  0
  8  9  1  0
  9 10  1  0
 10 11  2  0
 11 12  1  0
 12 13  2  0
 13 14  1  0
 13 15  1  0
 15 16  1  0
 15 17  2  0
  2 18  1  0
 18 19  1  6
 19 20  1  0
 21 20  1  6
 21 22  1  0
 22 23  1  1
 23 24  1  1
 23 25  1  0
 26 25  1  1
 26 27  1  0
 27 28  1  0
 28 29  1  1
 28 30  1  0
 30 31  1  0
 31 32  1  0
 32 33  1  6
 32 34  1  0
 34 35  1  6
 35 36  1  0
 36 37  1  0
 37 38  1  6
 17 10  1  0
 37 18  1  0
 37 21  1  0
 34 22  1  0
 32 26  1  0
M  END
>  <MS_ID>  (3486) 
MS3670

>  <SMILES>  (3486) 
C[C@H](CCC(=O)NCCc1ccc(O)c(O)c1)[C@H]1CC[C@H]2[C@@H]3[C@H](O)C[C@@H]4C[C@H](O)CC[C@]4(C)[C@H]3CC[C@]12C

>  <Structure_dimension>  (3486) 
2D

$$$$
MS3671
     RDKit          2D

 29 32  0  0  0  0  0  0  0  0999 V2000
   -5.0303   -2.1373    0.0000 C   0  0  0  0  0  0  0  0  0  0  0  0
   -3.8594   -1.1998    0.0000 C   0  0  0  0  0  0  0  0  0  0  0  0
   -4.0858    0.2830    0.0000 C   0  0  0  0  0  0  0  0  0  0  0  0
   -5.4831    0.8284    0.0000 C   0  0  0  0  0  0  0  0  0  0  0  0
   -5.7095    2.3112    0.0000 C   0  0  0  0  0  0  0  0  0  0  0  0
   -4.5386    3.2487    0.0000 O   0  0  0  0  0  0  0  0  0  0  0  0
   -7.1069    2.8565    0.0000 O   0  0  0  0  0  0  0  0  0  0  0  0
   -2.4620   -1.7451    0.0000 C   0  0  0  0  0  0  0  0  0  0  0  0
   -2.0818   -3.1961    0.0000 C   0  0  0  0  0  0  0  0  0  0  0  0
   -0.5844   -3.2830    0.0000 C   0  0  0  0  0  0  0  0  0  0  0  0
   -0.0390   -1.8856    0.0000 C   0  0  0  0  0  0  0  0  0  0  0  0
    1.3643   -1.3559    0.0000 C   0  0  0  0  0  0  0  0  0  0  0  0
    2.5248   -2.3063    0.0000 C   0  0  0  0  0  0  0  0  0  0  0  0
    2.2819   -3.7865    0.0000 O   0  0  0  0  0  0  0  0  0  0  0  0
    3.9281   -1.7765    0.0000 C   0  0  0  0  0  0  0  0  0  0  0  0
    4.1710   -0.2963    0.0000 C   0  0  0  0  0  0  0  0  0  0  0  0
    5.5743    0.2334    0.0000 C   0  0  0  0  0  0  0  0  0  0  0  0
    5.8172    1.7136    0.0000 C   0  0  0  0  0  0  0  0  0  0  0  0
    7.2205    2.2434    0.0000 O   0  0  0  0  0  0  0  0  0  0  0  0
    4.6568    2.6641    0.0000 C   0  0  0  0  0  0  0  0  0  0  0  0
    3.2534    2.1343    0.0000 C   0  0  0  0  0  0  0  0  0  0  0  0
    3.0105    0.6541    0.0000 C   0  0  0  0  0  0  0  0  0  0  0  0
    1.8501    1.6046    0.0000 C   0  0  0  0  0  0  0  0  0  0  0  0
    1.6072    0.1244    0.0000 C   0  0  0  0  0  0  0  0  0  0  0  0
    0.4467    1.0748    0.0000 C   0  0  0  0  0  0  0  0  0  0  0  0
   -0.9566    0.5450    0.0000 C   0  0  0  0  0  0  0  0  0  0  0  0
   -2.1170    1.4955    0.0000 O   0  0  0  0  0  0  0  0  0  0  0  0
   -1.1995   -0.9352    0.0000 C   0  0  0  0  0  0  0  0  0  0  0  0
   -2.4529   -0.1112    0.0000 C   0  0  0  0  0  0  0  0  0  0  0  0
  2  1  1  6
  2  3  1  0
  3  4  1  0
  4  5  1  0
  5  6  2  0
  5  7  1  0
  2  8  1  0
  8  9  1  6
  9 10  1  0
 11 10  1  6
 11 12  1  0
 12 13  1  1
 13 14  1  6
 13 15  1  0
 16 15  1  6
 16 17  1  0
 17 18  1  0
 18 19  1  1
 18 20  1  0
 20 21  1  0
 21 22  1  0
 22 23  1  6
 22 24  1  0
 24 25  1  6
 25 26  1  0
 26 27  2  0
 26 28  1  0
 28 29  1  6
 28  8  1  0
 28 11  1  0
 24 12  1  0
 22 16  1  0
M  END
>  <MS_ID>  (3487) 
MS3671

>  <SMILES>  (3487) 
C[C@H](CCC(=O)O)[C@H]1CC[C@H]2[C@@H]3[C@@H](O)C[C@H]4C[C@H](O)CC[C@]4(C)[C@H]3CC(=O)[C@]12C

>  <Structure_dimension>  (3487) 
2D

$$$$
MS3673
     RDKit          2D

 28 31  0  0  0  0  0  0  0  0999 V2000
   -5.0096   -2.1352    0.0000 C   0  0  0  0  0  0  0  0  0  0  0  0
   -3.8132   -1.2303    0.0000 C   0  0  0  0  0  0  0  0  0  0  0  0
   -3.9987    0.2582    0.0000 C   0  0  0  0  0  0  0  0  0  0  0  0
   -5.3805    0.8418    0.0000 C   0  0  0  0  0  0  0  0  0  0  0  0
   -5.5659    2.3303    0.0000 C   0  0  0  0  0  0  0  0  0  0  0  0
   -4.3695    3.2351    0.0000 O   0  0  0  0  0  0  0  0  0  0  0  0
   -6.9477    2.9140    0.0000 O   0  0  0  0  0  0  0  0  0  0  0  0
   -2.4315   -1.8140    0.0000 C   0  0  0  0  0  0  0  0  0  0  0  0
   -2.0914   -3.2749    0.0000 C   0  0  0  0  0  0  0  0  0  0  0  0
   -0.5969   -3.4030    0.0000 C   0  0  0  0  0  0  0  0  0  0  0  0
   -0.0133   -2.0212    0.0000 C   0  0  0  0  0  0  0  0  0  0  0  0
    1.4041   -1.5304    0.0000 C   0  0  0  0  0  0  0  0  0  0  0  0
    2.5379   -2.5125    0.0000 C   0  0  0  0  0  0  0  0  0  0  0  0
    3.9554   -2.0216    0.0000 C   0  0  0  0  0  0  0  0  0  0  0  0
    4.2390   -0.5487    0.0000 C   0  0  0  0  0  0  0  0  0  0  0  0
    5.6564   -0.0578    0.0000 C   0  0  0  0  0  0  0  0  0  0  0  0
    5.9400    1.4151    0.0000 C   0  0  0  0  0  0  0  0  0  0  0  0
    7.3574    1.9060    0.0000 O   0  0  0  0  0  0  0  0  0  0  0  0
    4.8062    2.3972    0.0000 C   0  0  0  0  0  0  0  0  0  0  0  0
    3.3888    1.9064    0.0000 C   0  0  0  0  0  0  0  0  0  0  0  0
    3.1052    0.4334    0.0000 C   0  0  0  0  0  0  0  0  0  0  0  0
    1.9714    1.4155    0.0000 C   0  0  0  0  0  0  0  0  0  0  0  0
    1.6878   -0.0574    0.0000 C   0  0  0  0  0  0  0  0  0  0  0  0
    0.5540    0.9246    0.0000 C   0  0  0  0  0  0  0  0  0  0  0  0
   -0.8635    0.4338    0.0000 C   0  0  0  0  0  0  0  0  0  0  0  0
   -1.9973    1.4159    0.0000 O   0  0  0  0  0  0  0  0  0  0  0  0
   -1.1471   -1.0392    0.0000 C   0  0  0  0  0  0  0  0  0  0  0  0
   -2.3773   -0.1810    0.0000 C   0  0  0  0  0  0  0  0  0  0  0  0
  2  1  1  6
  2  3  1  0
  3  4  1  0
  4  5  1  0
  5  6  2  0
  5  7  1  0
  2  8  1  0
  8  9  1  6
  9 10  1  0
 11 10  1  6
 11 12  1  0
 12 13  1  1
 13 14  1  0
 15 14  1  6
 15 16  1  0
 16 17  1  0
 17 18  1  6
 17 19  1  0
 19 20  1  0
 20 21  1  0
 21 22  1  6
 21 23  1  0
 23 24  1  6
 24 25  1  0
 25 26  2  0
 25 27  1  0
 27 28  1  6
 27  8  1  0
 27 11  1  0
 23 12  1  0
 21 15  1  0
M  END
>  <MS_ID>  (3488) 
MS3673

>  <SMILES>  (3488) 
C[C@H](CCC(=O)O)[C@H]1CC[C@H]2[C@@H]3CC[C@H]4C[C@@H](O)CC[C@]4(C)[C@H]3CC(=O)[C@]12C

>  <Structure_dimension>  (3488) 
2D

$$$$
MS3674
     RDKit          2D

 30 33  0  0  0  0  0  0  0  0999 V2000
   -5.1134   -2.2540    0.0000 C   0  0  0  0  0  0  0  0  0  0  0  0
   -3.9811   -1.2701    0.0000 C   0  0  0  0  0  0  0  0  0  0  0  0
   -4.2670    0.2024    0.0000 C   0  0  0  0  0  0  0  0  0  0  0  0
   -5.6852    0.6910    0.0000 C   0  0  0  0  0  0  0  0  0  0  0  0
   -5.9711    2.1635    0.0000 C   0  0  0  0  0  0  0  0  0  0  0  0
   -4.8388    3.1474    0.0000 O   0  0  0  0  0  0  0  0  0  0  0  0
   -7.3892    2.6522    0.0000 O   0  0  0  0  0  0  0  0  0  0  0  0
   -2.5629   -1.7588    0.0000 C   0  0  0  0  0  0  0  0  0  0  0  0
   -2.1247   -3.1933    0.0000 C   0  0  0  0  0  0  0  0  0  0  0  0
   -0.6249   -3.2198    0.0000 C   0  0  0  0  0  0  0  0  0  0  0  0
   -0.1362   -1.8017    0.0000 C   0  0  0  0  0  0  0  0  0  0  0  0
    1.2446   -1.2159    0.0000 C   0  0  0  0  0  0  0  0  0  0  0  0
    2.4424   -2.1188    0.0000 C   0  0  0  0  0  0  0  0  0  0  0  0
    2.2593   -3.6076    0.0000 O   0  0  0  0  0  0  0  0  0  0  0  0
    3.8233   -1.5330    0.0000 C   0  0  0  0  0  0  0  0  0  0  0  0
    5.0210   -2.4360    0.0000 O   0  0  0  0  0  0  0  0  0  0  0  0
    4.0064   -0.0442    0.0000 C   0  0  0  0  0  0  0  0  0  0  0  0
    5.3873    0.5416    0.0000 C   0  0  0  0  0  0  0  0  0  0  0  0
    5.5704    2.0303    0.0000 C   0  0  0  0  0  0  0  0  0  0  0  0
    6.9513    2.6161    0.0000 O   0  0  0  0  0  0  0  0  0  0  0  0
    4.3726    2.9333    0.0000 C   0  0  0  0  0  0  0  0  0  0  0  0
    2.9918    2.3475    0.0000 C   0  0  0  0  0  0  0  0  0  0  0  0
    2.8086    0.8587    0.0000 C   0  0  0  0  0  0  0  0  0  0  0  0
    1.6109    1.7617    0.0000 C   0  0  0  0  0  0  0  0  0  0  0  0
    1.4278    0.2729    0.0000 C   0  0  0  0  0  0  0  0  0  0  0  0
    0.2300    1.1759    0.0000 C   0  0  0  0  0  0  0  0  0  0  0  0
   -1.1509    0.5901    0.0000 C   0  0  0  0  0  0  0  0  0  0  0  0
   -2.3486    1.4931    0.0000 O   0  0  0  0  0  0  0  0  0  0  0  0
   -1.3340   -0.8987    0.0000 C   0  0  0  0  0  0  0  0  0  0  0  0
   -2.6196   -0.1258    0.0000 C   0  0  0  0  0  0  0  0  0  0  0  0
  2  1  1  6
  2  3  1  0
  3  4  1  0
  4  5  1  0
  5  6  2  0
  5  7  1  0
  2  8  1  0
  8  9  1  6
  9 10  1  0
 11 10  1  6
 11 12  1  0
 12 13  1  1
 13 14  1  6
 13 15  1  0
 15 16  1  6
 15 17  1  0
 17 18  1  6
 18 19  1  0
 19 20  1  1
 19 21  1  0
 21 22  1  0
 22 23  1  0
 23 24  1  6
 23 25  1  0
 25 26  1  6
 26 27  1  0
 27 28  1  1
 27 29  1  0
 29 30  1  6
 29  8  1  0
 29 11  1  0
 25 12  1  0
 23 17  1  0
M  END
>  <MS_ID>  (3489) 
MS3674

>  <SMILES>  (3489) 
C[C@H](CCC(=O)O)[C@H]1CC[C@H]2[C@@H]3[C@@H](O)[C@@H](O)[C@H]4C[C@H](O)CC[C@]4(C)[C@H]3C[C@H](O)[C@]12C

>  <Structure_dimension>  (3489) 
2D

$$$$
MS3676
     RDKit          2D

 37 40  0  0  0  0  0  0  0  0999 V2000
   -3.2996   -3.7147    0.0000 C   0  0  0  0  0  0  0  0  0  0  0  0
   -2.5888   -2.3938    0.0000 C   0  0  0  0  0  0  0  0  0  0  0  0
   -3.3773   -1.1178    0.0000 C   0  0  0  0  0  0  0  0  0  0  0  0
   -4.8766   -1.1627    0.0000 C   0  0  0  0  0  0  0  0  0  0  0  0
   -5.6652    0.1133    0.0000 C   0  0  0  0  0  0  0  0  0  0  0  0
   -4.9544    1.4342    0.0000 O   0  0  0  0  0  0  0  0  0  0  0  0
   -7.1645    0.0685    0.0000 N   0  0  0  0  0  0  0  0  0  0  0  0
   -7.9530    1.3445    0.0000 C   0  0  0  0  0  0  0  0  0  0  0  0
   -9.4524    1.2996    0.0000 C   0  0  0  0  0  0  0  0  0  0  0  0
  -10.1632   -0.0213    0.0000 O   0  0  0  0  0  0  0  0  0  0  0  0
  -10.2409    2.5756    0.0000 O   0  0  0  0  0  0  0  0  0  0  0  0
   -1.0895   -2.3489    0.0000 C   0  0  0  0  0  0  0  0  0  0  0  0
   -0.1719   -3.5355    0.0000 C   0  0  0  0  0  0  0  0  0  0  0  0
    1.2402   -3.0295    0.0000 C   0  0  0  0  0  0  0  0  0  0  0  0
    1.1953   -1.5302    0.0000 C   0  0  0  0  0  0  0  0  0  0  0  0
    2.2795   -0.4936    0.0000 C   0  0  0  0  0  0  0  0  0  0  0  0
    3.7193   -0.9142    0.0000 C   0  0  0  0  0  0  0  0  0  0  0  0
    4.0750   -2.3715    0.0000 O   0  0  0  0  0  0  0  0  0  0  0  0
    5.5148   -2.7921    0.0000 S   0  0  0  0  0  0  0  0  0  0  0  0
    5.9354   -1.3523    0.0000 O   0  0  0  0  0  0  0  0  0  0  0  0
    5.0941   -4.2319    0.0000 O   0  0  0  0  0  0  0  0  0  0  0  0
    6.9546   -3.2127    0.0000 O   0  0  0  0  0  0  0  0  0  0  0  0
    4.8035    0.1224    0.0000 C   0  0  0  0  0  0  0  0  0  0  0  0
    4.4479    1.5796    0.0000 C   0  0  0  0  0  0  0  0  0  0  0  0
    5.5321    2.6162    0.0000 C   0  0  0  0  0  0  0  0  0  0  0  0
    5.1764    4.0735    0.0000 C   0  0  0  0  0  0  0  0  0  0  0  0
    6.2606    5.1101    0.0000 O   0  0  0  0  0  0  0  0  0  0  0  0
    3.7366    4.4941    0.0000 C   0  0  0  0  0  0  0  0  0  0  0  0
    2.6524    3.4575    0.0000 C   0  0  0  0  0  0  0  0  0  0  0  0
    3.0081    2.0002    0.0000 C   0  0  0  0  0  0  0  0  0  0  0  0
    1.5683    2.4209    0.0000 C   0  0  0  0  0  0  0  0  0  0  0  0
    1.9239    0.9636    0.0000 C   0  0  0  0  0  0  0  0  0  0  0  0
    0.4841    1.3843    0.0000 C   0  0  0  0  0  0  0  0  0  0  0  0
   -0.6001    0.3477    0.0000 C   0  0  0  0  0  0  0  0  0  0  0  0
   -2.0399    0.7683    0.0000 O   0  0  0  0  0  0  0  0  0  0  0  0
   -0.2445   -1.1096    0.0000 C   0  0  0  0  0  0  0  0  0  0  0  0
   -1.7204   -0.8417    0.0000 C   0  0  0  0  0  0  0  0  0  0  0  0
  2  1  1  6
  2  3  1  0
  3  4  1  0
  4  5  1  0
  5  6  2  0
  5  7  1  0
  7  8  1  0
  8  9  1  0
  9 10  2  0
  9 11  1  0
  2 12  1  0
 12 13  1  6
 13 14  1  0
 15 14  1  6
 15 16  1  0
 16 17  1  1
 17 18  1  1
 18 19  1  0
 19 20  2  0
 19 21  2  0
 19 22  1  0
 17 23  1  0
 24 23  1  1
 24 25  1  0
 25 26  1  0
 26 27  1  1
 26 28  1  0
 28 29  1  0
 29 30  1  0
 30 31  1  6
 30 32  1  0
 32 33  1  6
 33 34  1  0
 34 35  1  1
 34 36  1  0
 36 37  1  6
 36 12  1  0
 36 15  1  0
 32 16  1  0
 30 24  1  0
M  END
>  <MS_ID>  (3490) 
MS3676

>  <SMILES>  (3490) 
C[C@H](CCC(=O)NCC(=O)O)[C@H]1CC[C@H]2[C@@H]3[C@H](OS(=O)(=O)O)C[C@@H]4C[C@H](O)CC[C@]4(C)[C@H]3C[C@H](O)[C@]12C

>  <Structure_dimension>  (3490) 
2D

$$$$
MS3678
     RDKit          2D

 28 31  0  0  0  0  0  0  0  0999 V2000
    5.3038    2.0978    0.0000 C   0  0  0  0  0  0  0  0  0  0  0  0
    4.1161    1.1817    0.0000 C   0  0  0  0  0  0  0  0  0  0  0  0
    4.3156   -0.3050    0.0000 C   0  0  0  0  0  0  0  0  0  0  0  0
    5.7029   -0.8755    0.0000 C   0  0  0  0  0  0  0  0  0  0  0  0
    5.9024   -2.3622    0.0000 C   0  0  0  0  0  0  0  0  0  0  0  0
    4.7147   -3.2783    0.0000 O   0  0  0  0  0  0  0  0  0  0  0  0
    7.2897   -2.9327    0.0000 O   0  0  0  0  0  0  0  0  0  0  0  0
    2.7288    1.7522    0.0000 C   0  0  0  0  0  0  0  0  0  0  0  0
    2.3750    3.2099    0.0000 C   0  0  0  0  0  0  0  0  0  0  0  0
    0.8793    3.3238    0.0000 C   0  0  0  0  0  0  0  0  0  0  0  0
    0.3088    1.9366    0.0000 C   0  0  0  0  0  0  0  0  0  0  0  0
   -1.1039    1.4323    0.0000 C   0  0  0  0  0  0  0  0  0  0  0  0
   -2.2470    2.4036    0.0000 C   0  0  0  0  0  0  0  0  0  0  0  0
   -3.6597    1.8993    0.0000 C   0  0  0  0  0  0  0  0  0  0  0  0
   -3.9293    0.4237    0.0000 C   0  0  0  0  0  0  0  0  0  0  0  0
   -5.3420   -0.0805    0.0000 C   0  0  0  0  0  0  0  0  0  0  0  0
   -6.4851    0.8907    0.0000 O   0  0  0  0  0  0  0  0  0  0  0  0
   -5.6117   -1.5561    0.0000 C   0  0  0  0  0  0  0  0  0  0  0  0
   -7.0243   -2.0604    0.0000 O   0  0  0  0  0  0  0  0  0  0  0  0
   -4.4686   -2.5274    0.0000 C   0  0  0  0  0  0  0  0  0  0  0  0
   -3.0559   -2.0231    0.0000 C   0  0  0  0  0  0  0  0  0  0  0  0
   -2.7863   -0.5476    0.0000 C   0  0  0  0  0  0  0  0  0  0  0  0
   -1.6432   -1.5189    0.0000 C   0  0  0  0  0  0  0  0  0  0  0  0
   -1.3736   -0.0433    0.0000 C   0  0  0  0  0  0  0  0  0  0  0  0
   -0.2305   -1.0146    0.0000 C   0  0  0  0  0  0  0  0  0  0  0  0
    1.1822   -0.5103    0.0000 C   0  0  0  0  0  0  0  0  0  0  0  0
    1.4518    0.9653    0.0000 C   0  0  0  0  0  0  0  0  0  0  0  0
    2.6902    0.1188    0.0000 C   0  0  0  0  0  0  0  0  0  0  0  0
  2  1  1  6
  2  3  1  0
  3  4  1  0
  4  5  1  0
  5  6  2  0
  5  7  1  0
  2  8  1  0
  8  9  1  6
  9 10  1  0
 11 10  1  6
 11 12  1  0
 12 13  1  1
 13 14  1  0
 15 14  1  1
 15 16  1  0
 16 17  1  6
 16 18  1  0
 18 19  1  6
 18 20  1  0
 20 21  1  0
 21 22  1  0
 22 23  1  6
 22 24  1  0
 24 25  1  6
 25 26  1  0
 26 27  1  0
 27 28  1  6
 27  8  1  0
 27 11  1  0
 24 12  1  0
 22 15  1  0
M  END
>  <MS_ID>  (3491) 
MS3678

>  <SMILES>  (3491) 
C[C@H](CCC(=O)O)[C@H]1CC[C@H]2[C@@H]3CC[C@@H]4[C@@H](O)[C@@H](O)CC[C@]4(C)[C@H]3CC[C@]12C

>  <Structure_dimension>  (3491) 
2D

$$$$
MS3679
     RDKit          2D

 34 37  0  0  0  0  0  0  0  0999 V2000
   -2.0431   -4.2971    0.0000 C   0  0  0  0  0  0  0  0  0  0  0  0
   -1.3315   -2.9767    0.0000 C   0  0  0  0  0  0  0  0  0  0  0  0
   -2.1193   -1.7002    0.0000 C   0  0  0  0  0  0  0  0  0  0  0  0
   -3.6187   -1.7442    0.0000 C   0  0  0  0  0  0  0  0  0  0  0  0
   -4.4064   -0.4677    0.0000 C   0  0  0  0  0  0  0  0  0  0  0  0
   -3.6948    0.8528    0.0000 O   0  0  0  0  0  0  0  0  0  0  0  0
   -5.9058   -0.5117    0.0000 N   0  0  0  0  0  0  0  0  0  0  0  0
   -6.6936    0.7648    0.0000 C   0  0  0  0  0  0  0  0  0  0  0  0
   -8.1929    0.7208    0.0000 C   0  0  0  0  0  0  0  0  0  0  0  0
   -8.9807    1.9973    0.0000 S   0  0  0  0  0  0  0  0  0  0  0  0
  -10.2572    1.2096    0.0000 O   0  0  0  0  0  0  0  0  0  0  0  0
   -7.7042    2.7851    0.0000 O   0  0  0  0  0  0  0  0  0  0  0  0
   -9.7684    3.2738    0.0000 O   0  0  0  0  0  0  0  0  0  0  0  0
    0.1678   -2.9327    0.0000 C   0  0  0  0  0  0  0  0  0  0  0  0
    1.0847   -4.1198    0.0000 C   0  0  0  0  0  0  0  0  0  0  0  0
    2.4971   -3.6147    0.0000 C   0  0  0  0  0  0  0  0  0  0  0  0
    2.4531   -2.1153    0.0000 C   0  0  0  0  0  0  0  0  0  0  0  0
    3.5379   -1.0794    0.0000 C   0  0  0  0  0  0  0  0  0  0  0  0
    4.9775   -1.5009    0.0000 C   0  0  0  0  0  0  0  0  0  0  0  0
    5.3322   -2.9583    0.0000 O   0  0  0  0  0  0  0  0  0  0  0  0
    6.0623   -0.4649    0.0000 C   0  0  0  0  0  0  0  0  0  0  0  0
    5.7075    0.9925    0.0000 C   0  0  0  0  0  0  0  0  0  0  0  0
    6.7923    2.0285    0.0000 C   0  0  0  0  0  0  0  0  0  0  0  0
    6.4376    3.4859    0.0000 C   0  0  0  0  0  0  0  0  0  0  0  0
    7.5224    4.5219    0.0000 O   0  0  0  0  0  0  0  0  0  0  0  0
    4.9980    3.9074    0.0000 C   0  0  0  0  0  0  0  0  0  0  0  0
    3.9132    2.8715    0.0000 C   0  0  0  0  0  0  0  0  0  0  0  0
    4.2680    1.4140    0.0000 C   0  0  0  0  0  0  0  0  0  0  0  0
    2.8284    1.8355    0.0000 C   0  0  0  0  0  0  0  0  0  0  0  0
    3.1831    0.3781    0.0000 C   0  0  0  0  0  0  0  0  0  0  0  0
    1.7436    0.7996    0.0000 C   0  0  0  0  0  0  0  0  0  0  0  0
    0.6588   -0.2364    0.0000 C   0  0  0  0  0  0  0  0  0  0  0  0
    1.0135   -1.6938    0.0000 C   0  0  0  0  0  0  0  0  0  0  0  0
   -0.4622   -1.4251    0.0000 C   0  0  0  0  0  0  0  0  0  0  0  0
  2  1  1  1
  2  3  1  0
  3  4  1  0
  4  5  1  0
  5  6  2  0
  5  7  1  0
  7  8  1  0
  8  9  1  0
  9 10  1  0
 10 11  2  0
 10 12  2  0
 10 13  1  0
  2 14  1  0
 14 15  1  6
 15 16  1  0
 17 16  1  6
 17 18  1  0
 18 19  1  1
 19 20  1  1
 19 21  1  0
 22 21  1  1
 22 23  1  0
 23 24  1  0
 24 25  1  1
 24 26  1  0
 26 27  1  0
 27 28  1  0
 28 29  1  6
 28 30  1  0
 30 31  1  6
 31 32  1  0
 32 33  1  0
 33 34  1  6
 33 14  1  0
 33 17  1  0
 30 18  1  0
 28 22  1  0
M  END
>  <MS_ID>  (3492) 
MS3679

>  <SMILES>  (3492) 
C[C@@H](CCC(=O)NCCS(=O)(=O)O)[C@H]1CC[C@H]2[C@@H]3[C@H](O)C[C@@H]4C[C@H](O)CC[C@]4(C)[C@H]3CC[C@]12C

>  <Structure_dimension>  (3492) 
2D

$$$$
MS3680
     RDKit          2D

 29 32  0  0  0  0  0  0  0  0999 V2000
   -5.0926   -2.2535    0.0000 C   0  0  0  0  0  0  0  0  0  0  0  0
   -3.9364   -1.2979    0.0000 C   0  0  0  0  0  0  0  0  0  0  0  0
   -4.1859    0.1812    0.0000 C   0  0  0  0  0  0  0  0  0  0  0  0
   -5.5916    0.7047    0.0000 C   0  0  0  0  0  0  0  0  0  0  0  0
   -5.8411    2.1838    0.0000 C   0  0  0  0  0  0  0  0  0  0  0  0
   -4.6849    3.1394    0.0000 O   0  0  0  0  0  0  0  0  0  0  0  0
   -7.2468    2.7072    0.0000 O   0  0  0  0  0  0  0  0  0  0  0  0
   -2.5307   -1.8214    0.0000 C   0  0  0  0  0  0  0  0  0  0  0  0
   -2.1279   -3.2663    0.0000 C   0  0  0  0  0  0  0  0  0  0  0  0
   -0.6293   -3.3297    0.0000 C   0  0  0  0  0  0  0  0  0  0  0  0
   -0.1058   -1.9240    0.0000 C   0  0  0  0  0  0  0  0  0  0  0  0
    1.2891   -1.3724    0.0000 C   0  0  0  0  0  0  0  0  0  0  0  0
    2.4642   -2.3047    0.0000 C   0  0  0  0  0  0  0  0  0  0  0  0
    3.8591   -1.7531    0.0000 C   0  0  0  0  0  0  0  0  0  0  0  0
    5.0343   -2.6853    0.0000 O   0  0  0  0  0  0  0  0  0  0  0  0
    4.0789   -0.2693    0.0000 C   0  0  0  0  0  0  0  0  0  0  0  0
    5.4738    0.2823    0.0000 C   0  0  0  0  0  0  0  0  0  0  0  0
    5.6936    1.7661    0.0000 C   0  0  0  0  0  0  0  0  0  0  0  0
    7.0885    2.3177    0.0000 O   0  0  0  0  0  0  0  0  0  0  0  0
    4.5184    2.6984    0.0000 C   0  0  0  0  0  0  0  0  0  0  0  0
    3.1235    2.1468    0.0000 C   0  0  0  0  0  0  0  0  0  0  0  0
    2.9038    0.6630    0.0000 C   0  0  0  0  0  0  0  0  0  0  0  0
    1.7286    1.5952    0.0000 C   0  0  0  0  0  0  0  0  0  0  0  0
    1.5089    0.1114    0.0000 C   0  0  0  0  0  0  0  0  0  0  0  0
    0.3337    1.0436    0.0000 C   0  0  0  0  0  0  0  0  0  0  0  0
   -1.0612    0.4920    0.0000 C   0  0  0  0  0  0  0  0  0  0  0  0
   -2.2363    1.4242    0.0000 O   0  0  0  0  0  0  0  0  0  0  0  0
   -1.2809   -0.9918    0.0000 C   0  0  0  0  0  0  0  0  0  0  0  0
   -2.5471   -0.1875    0.0000 C   0  0  0  0  0  0  0  0  0  0  0  0
  2  1  1  6
  2  3  1  0
  3  4  1  0
  4  5  1  0
  5  6  2  0
  5  7  1  0
  2  8  1  0
  8  9  1  6
  9 10  1  0
 11 10  1  6
 11 12  1  0
 12 13  1  1
 13 14  1  0
 14 15  1  1
 14 16  1  0
 16 17  1  1
 17 18  1  0
 18 19  1  1
 18 20  1  0
 20 21  1  0
 21 22  1  0
 22 23  1  6
 22 24  1  0
 24 25  1  6
 25 26  1  0
 26 27  1  1
 26 28  1  0
 28 29  1  6
 28  8  1  0
 28 11  1  0
 24 12  1  0
 22 16  1  0
M  END
>  <MS_ID>  (3493) 
MS3680

>  <SMILES>  (3493) 
C[C@H](CCC(=O)O)[C@H]1CC[C@H]2[C@@H]3C[C@H](O)[C@@H]4C[C@H](O)CC[C@]4(C)[C@H]3C[C@H](O)[C@]12C

>  <Structure_dimension>  (3493) 
2D

$$$$
MS3683
     RDKit          2D

 34 37  0  0  0  0  0  0  0  0999 V2000
    3.3652    3.6833    0.0000 C   0  0  0  0  0  0  0  0  0  0  0  0
    2.4756    2.4756    0.0000 C   0  0  0  0  0  0  0  0  0  0  0  0
    3.0768    1.1013    0.0000 C   0  0  0  0  0  0  0  0  0  0  0  0
    4.5675    0.9348    0.0000 C   0  0  0  0  0  0  0  0  0  0  0  0
    5.1687   -0.4394    0.0000 C   0  0  0  0  0  0  0  0  0  0  0  0
    4.2791   -1.6472    0.0000 O   0  0  0  0  0  0  0  0  0  0  0  0
    6.6594   -0.6059    0.0000 N   0  0  0  0  0  0  0  0  0  0  0  0
    7.2606   -1.9802    0.0000 C   0  0  0  0  0  0  0  0  0  0  0  0
    8.7513   -2.1467    0.0000 C   0  0  0  0  0  0  0  0  0  0  0  0
    9.6409   -0.9389    0.0000 O   0  0  0  0  0  0  0  0  0  0  0  0
    9.3525   -3.5210    0.0000 O   0  0  0  0  0  0  0  0  0  0  0  0
    0.9849    2.6421    0.0000 C   0  0  0  0  0  0  0  0  0  0  0  0
    0.2433    3.9460    0.0000 C   0  0  0  0  0  0  0  0  0  0  0  0
   -1.2259    3.6437    0.0000 C   0  0  0  0  0  0  0  0  0  0  0  0
   -1.3924    2.1529    0.0000 C   0  0  0  0  0  0  0  0  0  0  0  0
   -2.6116    1.2792    0.0000 C   0  0  0  0  0  0  0  0  0  0  0  0
   -3.9779    1.8982    0.0000 C   0  0  0  0  0  0  0  0  0  0  0  0
   -4.1250    3.3909    0.0000 O   0  0  0  0  0  0  0  0  0  0  0  0
   -5.1972    1.0244    0.0000 C   0  0  0  0  0  0  0  0  0  0  0  0
   -5.0501   -0.4684    0.0000 C   0  0  0  0  0  0  0  0  0  0  0  0
   -6.2693   -1.3421    0.0000 C   0  0  0  0  0  0  0  0  0  0  0  0
   -7.6357   -0.7231    0.0000 O   0  0  0  0  0  0  0  0  0  0  0  0
   -6.1223   -2.8349    0.0000 C   0  0  0  0  0  0  0  0  0  0  0  0
   -7.3415   -3.7087    0.0000 O   0  0  0  0  0  0  0  0  0  0  0  0
   -4.7559   -3.4539    0.0000 C   0  0  0  0  0  0  0  0  0  0  0  0
   -3.5367   -2.5801    0.0000 C   0  0  0  0  0  0  0  0  0  0  0  0
   -3.6838   -1.0874    0.0000 C   0  0  0  0  0  0  0  0  0  0  0  0
   -2.3175   -1.7064    0.0000 C   0  0  0  0  0  0  0  0  0  0  0  0
   -2.4645   -0.2136    0.0000 C   0  0  0  0  0  0  0  0  0  0  0  0
   -1.0982   -0.8326    0.0000 C   0  0  0  0  0  0  0  0  0  0  0  0
    0.1210    0.0411    0.0000 C   0  0  0  0  0  0  0  0  0  0  0  0
    1.4873   -0.5779    0.0000 O   0  0  0  0  0  0  0  0  0  0  0  0
   -0.0261    1.5339    0.0000 C   0  0  0  0  0  0  0  0  0  0  0  0
    1.3975    1.0611    0.0000 C   0  0  0  0  0  0  0  0  0  0  0  0
  2  1  1  6
  2  3  1  0
  3  4  1  0
  4  5  1  0
  5  6  2  0
  5  7  1  0
  7  8  1  0
  8  9  1  0
  9 10  2  0
  9 11  1  0
  2 12  1  0
 12 13  1  6
 13 14  1  0
 15 14  1  6
 15 16  1  0
 16 17  1  1
 17 18  1  1
 17 19  1  0
 20 19  1  1
 20 21  1  0
 21 22  1  6
 21 23  1  0
 23 24  1  1
 23 25  1  0
 25 26  1  0
 26 27  1  0
 27 28  1  6
 27 29  1  0
 29 30  1  6
 30 31  1  0
 31 32  1  1
 31 33  1  0
 33 34  1  6
 33 12  1  0
 33 15  1  0
 29 16  1  0
 27 20  1  0
M  END
>  <MS_ID>  (3494) 
MS3683

>  <SMILES>  (3494) 
C[C@H](CCC(=O)NCC(=O)O)[C@H]1CC[C@H]2[C@@H]3[C@H](O)C[C@@H]4[C@@H](O)[C@H](O)CC[C@]4(C)[C@H]3C[C@H](O)[C@]12C

>  <Structure_dimension>  (3494) 
2D

$$$$
MS3687
     RDKit          2D

 41 45  0  0  0  0  0  0  0  0999 V2000
    0.3855   -4.9651    0.0000 C   0  0  0  0  0  0  0  0  0  0  0  0
    0.8518   -3.5394    0.0000 C   0  0  0  0  0  0  0  0  0  0  0  0
   -0.1497   -2.4228    0.0000 C   0  0  0  0  0  0  0  0  0  0  0  0
   -1.6175   -2.7318    0.0000 C   0  0  0  0  0  0  0  0  0  0  0  0
   -2.6191   -1.6152    0.0000 C   0  0  0  0  0  0  0  0  0  0  0  0
   -2.1528   -0.1895    0.0000 O   0  0  0  0  0  0  0  0  0  0  0  0
   -4.0869   -1.9242    0.0000 N   0  0  0  0  0  0  0  0  0  0  0  0
   -5.0884   -0.8075    0.0000 C   0  0  0  0  0  0  0  0  0  0  0  0
   -6.5562   -1.1165    0.0000 C   0  0  0  0  0  0  0  0  0  0  0  0
   -7.5578    0.0001    0.0000 C   0  0  0  0  0  0  0  0  0  0  0  0
   -7.0915    1.4258    0.0000 C   0  0  0  0  0  0  0  0  0  0  0  0
   -8.0930    2.5425    0.0000 C   0  0  0  0  0  0  0  0  0  0  0  0
   -9.5608    2.2334    0.0000 C   0  0  0  0  0  0  0  0  0  0  0  0
  -10.5624    3.3501    0.0000 O   0  0  0  0  0  0  0  0  0  0  0  0
  -10.0271    0.8078    0.0000 C   0  0  0  0  0  0  0  0  0  0  0  0
  -11.4950    0.4987    0.0000 O   0  0  0  0  0  0  0  0  0  0  0  0
   -9.0256   -0.3089    0.0000 C   0  0  0  0  0  0  0  0  0  0  0  0
   -4.6221    0.6182    0.0000 C   0  0  0  0  0  0  0  0  0  0  0  0
   -3.1543    0.9272    0.0000 O   0  0  0  0  0  0  0  0  0  0  0  0
   -5.6237    1.7348    0.0000 O   0  0  0  0  0  0  0  0  0  0  0  0
    2.3197   -3.2304    0.0000 C   0  0  0  0  0  0  0  0  0  0  0  0
    3.4324   -4.2363    0.0000 C   0  0  0  0  0  0  0  0  0  0  0  0
    4.7329   -3.4888    0.0000 C   0  0  0  0  0  0  0  0  0  0  0  0
    4.4239   -2.0210    0.0000 C   0  0  0  0  0  0  0  0  0  0  0  0
    5.3079   -0.8092    0.0000 C   0  0  0  0  0  0  0  0  0  0  0  0
    6.7994   -0.9688    0.0000 C   0  0  0  0  0  0  0  0  0  0  0  0
    7.4068   -2.3403    0.0000 O   0  0  0  0  0  0  0  0  0  0  0  0
    7.6834    0.2430    0.0000 C   0  0  0  0  0  0  0  0  0  0  0  0
    7.0760    1.6145    0.0000 C   0  0  0  0  0  0  0  0  0  0  0  0
    7.9600    2.8263    0.0000 C   0  0  0  0  0  0  0  0  0  0  0  0
    7.3526    4.1978    0.0000 C   0  0  0  0  0  0  0  0  0  0  0  0
    8.2366    5.4096    0.0000 O   0  0  0  0  0  0  0  0  0  0  0  0
    5.8611    4.3575    0.0000 C   0  0  0  0  0  0  0  0  0  0  0  0
    4.9770    3.1457    0.0000 C   0  0  0  0  0  0  0  0  0  0  0  0
    5.5845    1.7742    0.0000 C   0  0  0  0  0  0  0  0  0  0  0  0
    4.0930    1.9338    0.0000 C   0  0  0  0  0  0  0  0  0  0  0  0
    4.7005    0.5623    0.0000 C   0  0  0  0  0  0  0  0  0  0  0  0
    3.2090    0.7220    0.0000 C   0  0  0  0  0  0  0  0  0  0  0  0
    2.3250   -0.4898    0.0000 C   0  0  0  0  0  0  0  0  0  0  0  0
    2.9324   -1.8613    0.0000 C   0  0  0  0  0  0  0  0  0  0  0  0
    1.4324   -1.8584    0.0000 C   0  0  0  0  0  0  0  0  0  0  0  0
  2  1  1  6
  2  3  1  0
  3  4  1  0
  4  5  1  0
  5  6  2  0
  5  7  1  0
  7  8  1  0
  8  9  1  1
  9 10  1  0
 10 11  2  0
 11 12  1  0
 12 13  2  0
 13 14  1  0
 13 15  1  0
 15 16  1  0
 15 17  2  0
  8 18  1  0
 18 19  2  0
 18 20  1  0
  2 21  1  0
 21 22  1  6
 22 23  1  0
 24 23  1  6
 24 25  1  0
 25 26  1  1
 26 27  1  1
 26 28  1  0
 29 28  1  1
 29 30  1  0
 30 31  1  0
 31 32  1  1
 31 33  1  0
 33 34  1  0
 34 35  1  0
 35 36  1  6
 35 37  1  0
 37 38  1  6
 38 39  1  0
 39 40  1  0
 40 41  1  6
 17 10  1  0
 40 21  1  0
 40 24  1  0
 37 25  1  0
 35 29  1  0
M  END
>  <MS_ID>  (3495) 
MS3687

>  <SMILES>  (3495) 
C[C@H](CCC(=O)N[C@@H](Cc1ccc(O)c(O)c1)C(=O)O)[C@H]1CC[C@H]2[C@@H]3[C@H](O)C[C@@H]4C[C@H](O)CC[C@]4(C)[C@H]3CC[C@]12C

>  <Structure_dimension>  (3495) 
2D

$$$$
MS3689
     RDKit          2D

 28 31  0  0  0  0  0  0  0  0999 V2000
   -7.2657    3.7367    0.0000 C   0  0  0  0  0  0  0  0  0  0  0  0
   -6.9639    2.2673    0.0000 O   0  0  0  0  0  0  0  0  0  0  0  0
   -5.5405    1.7940    0.0000 C   0  0  0  0  0  0  0  0  0  0  0  0
   -4.4189    2.7900    0.0000 O   0  0  0  0  0  0  0  0  0  0  0  0
   -5.2387    0.3247    0.0000 C   0  0  0  0  0  0  0  0  0  0  0  0
   -3.8154   -0.1486    0.0000 C   0  0  0  0  0  0  0  0  0  0  0  0
   -3.5136   -1.6180    0.0000 C   0  0  0  0  0  0  0  0  0  0  0  0
   -4.6352   -2.6140    0.0000 C   0  0  0  0  0  0  0  0  0  0  0  0
   -2.0902   -2.0913    0.0000 C   0  0  0  0  0  0  0  0  0  0  0  0
   -1.6365   -3.5210    0.0000 C   0  0  0  0  0  0  0  0  0  0  0  0
   -0.1366   -3.5313    0.0000 C   0  0  0  0  0  0  0  0  0  0  0  0
    0.3368   -2.1080    0.0000 C   0  0  0  0  0  0  0  0  0  0  0  0
    1.7112   -1.5073    0.0000 C   0  0  0  0  0  0  0  0  0  0  0  0
    2.9187   -2.3973    0.0000 C   0  0  0  0  0  0  0  0  0  0  0  0
    4.2932   -1.7966    0.0000 C   0  0  0  0  0  0  0  0  0  0  0  0
    4.4602   -0.3060    0.0000 C   0  0  0  0  0  0  0  0  0  0  0  0
    5.8347    0.2947    0.0000 C   0  0  0  0  0  0  0  0  0  0  0  0
    6.0017    1.7854    0.0000 C   0  0  0  0  0  0  0  0  0  0  0  0
    7.3762    2.3861    0.0000 O   0  0  0  0  0  0  0  0  0  0  0  0
    4.7943    2.6754    0.0000 C   0  0  0  0  0  0  0  0  0  0  0  0
    3.4198    2.0747    0.0000 C   0  0  0  0  0  0  0  0  0  0  0  0
    3.2528    0.5840    0.0000 C   0  0  0  0  0  0  0  0  0  0  0  0
    2.0453    1.4740    0.0000 C   0  0  0  0  0  0  0  0  0  0  0  0
    1.8783   -0.0166    0.0000 C   0  0  0  0  0  0  0  0  0  0  0  0
    0.6708    0.8734    0.0000 C   0  0  0  0  0  0  0  0  0  0  0  0
   -0.7036    0.2727    0.0000 C   0  0  0  0  0  0  0  0  0  0  0  0
   -0.8707   -1.2180    0.0000 C   0  0  0  0  0  0  0  0  0  0  0  0
   -2.1645   -0.4591    0.0000 C   0  0  0  0  0  0  0  0  0  0  0  0
  1  2  1  0
  2  3  1  0
  3  4  2  0
  3  5  1  0
  5  6  1  0
  6  7  1  0
  7  8  1  6
  7  9  1  0
  9 10  1  6
 10 11  1  0
 12 11  1  6
 12 13  1  0
 13 14  1  1
 14 15  1  0
 16 15  1  6
 16 17  1  0
 17 18  1  0
 18 19  2  0
 18 20  1  0
 20 21  1  0
 21 22  1  0
 22 23  1  6
 22 24  1  0
 24 25  1  6
 25 26  1  0
 26 27  1  0
 27 28  1  6
 27  9  1  0
 27 12  1  0
 24 13  1  0
 22 16  1  0
M  END
>  <MS_ID>  (3496) 
MS3689

>  <SMILES>  (3496) 
COC(=O)CC[C@@H](C)[C@H]1CC[C@H]2[C@@H]3CC[C@H]4CC(=O)CC[C@]4(C)[C@H]3CC[C@]12C

>  <Structure_dimension>  (3496) 
2D

$$$$
MS3691
     RDKit          2D

 32 35  0  0  0  0  0  0  0  0999 V2000
   -3.1421   -3.6694    0.0000 C   0  0  0  0  0  0  0  0  0  0  0  0
   -2.2628   -2.4541    0.0000 C   0  0  0  0  0  0  0  0  0  0  0  0
   -2.8756   -1.0850    0.0000 C   0  0  0  0  0  0  0  0  0  0  0  0
   -4.3676   -0.9311    0.0000 C   0  0  0  0  0  0  0  0  0  0  0  0
   -4.9804    0.4380    0.0000 C   0  0  0  0  0  0  0  0  0  0  0  0
   -4.1011    1.6532    0.0000 O   0  0  0  0  0  0  0  0  0  0  0  0
   -6.4725    0.5919    0.0000 N   0  0  0  0  0  0  0  0  0  0  0  0
   -7.0853    1.9610    0.0000 C   0  0  0  0  0  0  0  0  0  0  0  0
   -8.5774    2.1149    0.0000 C   0  0  0  0  0  0  0  0  0  0  0  0
   -9.4567    0.8996    0.0000 O   0  0  0  0  0  0  0  0  0  0  0  0
   -9.1901    3.4840    0.0000 O   0  0  0  0  0  0  0  0  0  0  0  0
   -0.7707   -2.6080    0.0000 C   0  0  0  0  0  0  0  0  0  0  0  0
   -0.0182   -3.9056    0.0000 C   0  0  0  0  0  0  0  0  0  0  0  0
    1.4484   -3.5909    0.0000 C   0  0  0  0  0  0  0  0  0  0  0  0
    1.6023   -2.0988    0.0000 C   0  0  0  0  0  0  0  0  0  0  0  0
    2.8141   -1.2147    0.0000 C   0  0  0  0  0  0  0  0  0  0  0  0
    4.1856   -1.8222    0.0000 C   0  0  0  0  0  0  0  0  0  0  0  0
    4.3453   -3.3136    0.0000 O   0  0  0  0  0  0  0  0  0  0  0  0
    5.3974   -0.9381    0.0000 C   0  0  0  0  0  0  0  0  0  0  0  0
    5.2377    0.5533    0.0000 C   0  0  0  0  0  0  0  0  0  0  0  0
    6.4495    1.4374    0.0000 C   0  0  0  0  0  0  0  0  0  0  0  0
    6.2898    2.9289    0.0000 C   0  0  0  0  0  0  0  0  0  0  0  0
    7.5016    3.8129    0.0000 O   0  0  0  0  0  0  0  0  0  0  0  0
    4.9183    3.5363    0.0000 C   0  0  0  0  0  0  0  0  0  0  0  0
    3.7065    2.6522    0.0000 C   0  0  0  0  0  0  0  0  0  0  0  0
    3.8662    1.1608    0.0000 C   0  0  0  0  0  0  0  0  0  0  0  0
    2.4947    1.7682    0.0000 C   0  0  0  0  0  0  0  0  0  0  0  0
    2.6544    0.2767    0.0000 C   0  0  0  0  0  0  0  0  0  0  0  0
    1.2829    0.8842    0.0000 C   0  0  0  0  0  0  0  0  0  0  0  0
    0.0711    0.0001    0.0000 C   0  0  0  0  0  0  0  0  0  0  0  0
    0.2308   -1.4914    0.0000 C   0  0  0  0  0  0  0  0  0  0  0  0
   -1.1967   -1.0306    0.0000 C   0  0  0  0  0  0  0  0  0  0  0  0
  2  1  1  6
  2  3  1  0
  3  4  1  0
  4  5  1  0
  5  6  2  0
  5  7  1  0
  7  8  1  0
  8  9  1  0
  9 10  2  0
  9 11  1  0
  2 12  1  0
 12 13  1  6
 13 14  1  0
 15 14  1  6
 15 16  1  0
 16 17  1  1
 17 18  1  1
 17 19  1  0
 20 19  1  6
 20 21  1  0
 21 22  1  0
 22 23  1  1
 22 24  1  0
 24 25  1  0
 25 26  1  0
 26 27  1  6
 26 28  1  0
 28 29  1  6
 29 30  1  0
 30 31  1  0
 31 32  1  6
 31 12  1  0
 31 15  1  0
 28 16  1  0
 26 20  1  0
M  END
>  <MS_ID>  (3497) 
MS3691

>  <SMILES>  (3497) 
C[C@H](CCC(=O)NCC(=O)O)[C@H]1CC[C@H]2[C@@H]3[C@H](O)C[C@H]4C[C@H](O)CC[C@]4(C)[C@H]3CC[C@]12C

>  <Structure_dimension>  (3497) 
2D

$$$$
MS3695
     RDKit          2D

 29 32  0  0  0  0  0  0  0  0999 V2000
    5.2040    2.1960    0.0000 C   0  0  0  0  0  0  0  0  0  0  0  0
    4.0246    1.2692    0.0000 C   0  0  0  0  0  0  0  0  0  0  0  0
    4.2375   -0.2156    0.0000 C   0  0  0  0  0  0  0  0  0  0  0  0
    5.6299   -0.7736    0.0000 C   0  0  0  0  0  0  0  0  0  0  0  0
    5.8429   -2.2584    0.0000 C   0  0  0  0  0  0  0  0  0  0  0  0
    4.6635   -3.1852    0.0000 O   0  0  0  0  0  0  0  0  0  0  0  0
    7.2352   -2.8164    0.0000 O   0  0  0  0  0  0  0  0  0  0  0  0
    2.6322    1.8272    0.0000 C   0  0  0  0  0  0  0  0  0  0  0  0
    2.2652    3.2816    0.0000 C   0  0  0  0  0  0  0  0  0  0  0  0
    0.7686    3.3820    0.0000 C   0  0  0  0  0  0  0  0  0  0  0  0
    0.2106    1.9896    0.0000 C   0  0  0  0  0  0  0  0  0  0  0  0
   -1.1975    1.4726    0.0000 C   0  0  0  0  0  0  0  0  0  0  0  0
   -2.3492    2.4335    0.0000 C   0  0  0  0  0  0  0  0  0  0  0  0
   -3.7573    1.9165    0.0000 C   0  0  0  0  0  0  0  0  0  0  0  0
   -4.0136    0.4386    0.0000 C   0  0  0  0  0  0  0  0  0  0  0  0
   -5.4217   -0.0784    0.0000 C   0  0  0  0  0  0  0  0  0  0  0  0
   -6.5735    0.8825    0.0000 O   0  0  0  0  0  0  0  0  0  0  0  0
   -5.6780   -1.5564    0.0000 C   0  0  0  0  0  0  0  0  0  0  0  0
   -7.0861   -2.0734    0.0000 O   0  0  0  0  0  0  0  0  0  0  0  0
   -4.5262   -2.5173    0.0000 C   0  0  0  0  0  0  0  0  0  0  0  0
   -3.1181   -2.0003    0.0000 C   0  0  0  0  0  0  0  0  0  0  0  0
   -2.8618   -0.5223    0.0000 C   0  0  0  0  0  0  0  0  0  0  0  0
   -1.7101   -1.4833    0.0000 C   0  0  0  0  0  0  0  0  0  0  0  0
   -1.4538   -0.0053    0.0000 C   0  0  0  0  0  0  0  0  0  0  0  0
   -0.3020   -0.9663    0.0000 C   0  0  0  0  0  0  0  0  0  0  0  0
    1.1061   -0.4492    0.0000 C   0  0  0  0  0  0  0  0  0  0  0  0
    2.2579   -1.4102    0.0000 O   0  0  0  0  0  0  0  0  0  0  0  0
    1.3624    1.0287    0.0000 C   0  0  0  0  0  0  0  0  0  0  0  0
    2.6083    0.1934    0.0000 C   0  0  0  0  0  0  0  0  0  0  0  0
  2  1  1  6
  2  3  1  0
  3  4  1  0
  4  5  1  0
  5  6  2  0
  5  7  1  0
  2  8  1  0
  8  9  1  6
  9 10  1  0
 11 10  1  6
 11 12  1  0
 12 13  1  1
 13 14  1  0
 15 14  1  1
 15 16  1  0
 16 17  1  6
 16 18  1  0
 18 19  1  1
 18 20  1  0
 20 21  1  0
 21 22  1  0
 22 23  1  6
 22 24  1  0
 24 25  1  6
 25 26  1  0
 26 27  1  1
 26 28  1  0
 28 29  1  6
 28  8  1  0
 28 11  1  0
 24 12  1  0
 22 15  1  0
M  END
>  <MS_ID>  (3498) 
MS3695

>  <SMILES>  (3498) 
C[C@H](CCC(=O)O)[C@H]1CC[C@H]2[C@@H]3CC[C@@H]4[C@@H](O)[C@H](O)CC[C@]4(C)[C@H]3C[C@H](O)[C@]12C

>  <Structure_dimension>  (3498) 
2D

$$$$
MS3696
     RDKit          2D

 40 43  0  0  0  0  0  0  0  0999 V2000
   -0.2104   -4.7315    0.0000 C   0  0  0  0  0  0  0  0  0  0  0  0
    0.3463   -3.3387    0.0000 C   0  0  0  0  0  0  0  0  0  0  0  0
   -0.5815   -2.1601    0.0000 C   0  0  0  0  0  0  0  0  0  0  0  0
   -2.0661   -2.3744    0.0000 C   0  0  0  0  0  0  0  0  0  0  0  0
   -2.9940   -1.1958    0.0000 C   0  0  0  0  0  0  0  0  0  0  0  0
   -2.4372    0.1971    0.0000 O   0  0  0  0  0  0  0  0  0  0  0  0
   -4.4786   -1.4100    0.0000 N   0  0  0  0  0  0  0  0  0  0  0  0
   -5.4065   -0.2314    0.0000 C   0  0  0  0  0  0  0  0  0  0  0  0
   -6.8911   -0.4457    0.0000 C   0  0  0  0  0  0  0  0  0  0  0  0
   -7.8190    0.7329    0.0000 C   0  0  0  0  0  0  0  0  0  0  0  0
   -9.3036    0.5187    0.0000 C   0  0  0  0  0  0  0  0  0  0  0  0
  -10.2314    1.6973    0.0000 N   0  0  0  0  0  0  0  0  0  0  0  0
  -11.7160    1.4830    0.0000 C   0  0  0  0  0  0  0  0  0  0  0  0
  -12.6439    2.6616    0.0000 N   0  0  0  0  0  0  0  0  0  0  0  0
  -12.2728    0.0902    0.0000 N   0  0  0  0  0  0  0  0  0  0  0  0
   -4.8497    1.1614    0.0000 C   0  0  0  0  0  0  0  0  0  0  0  0
   -3.3651    1.3757    0.0000 O   0  0  0  0  0  0  0  0  0  0  0  0
   -5.7776    2.3400    0.0000 O   0  0  0  0  0  0  0  0  0  0  0  0
    1.8310   -3.1244    0.0000 C   0  0  0  0  0  0  0  0  0  0  0  0
    2.8769   -4.1996    0.0000 C   0  0  0  0  0  0  0  0  0  0  0  0
    4.2227   -3.5371    0.0000 C   0  0  0  0  0  0  0  0  0  0  0  0
    4.0084   -2.0524    0.0000 C   0  0  0  0  0  0  0  0  0  0  0  0
    4.9684   -0.8998    0.0000 C   0  0  0  0  0  0  0  0  0  0  0  0
    6.4465   -1.1548    0.0000 C   0  0  0  0  0  0  0  0  0  0  0  0
    6.9648   -2.5625    0.0000 O   0  0  0  0  0  0  0  0  0  0  0  0
    7.4064   -0.0022    0.0000 C   0  0  0  0  0  0  0  0  0  0  0  0
    6.8882    1.4054    0.0000 C   0  0  0  0  0  0  0  0  0  0  0  0
    7.8481    2.5581    0.0000 C   0  0  0  0  0  0  0  0  0  0  0  0
    7.3299    3.9657    0.0000 C   0  0  0  0  0  0  0  0  0  0  0  0
    8.2898    5.1183    0.0000 O   0  0  0  0  0  0  0  0  0  0  0  0
    5.8517    4.2207    0.0000 C   0  0  0  0  0  0  0  0  0  0  0  0
    4.8918    3.0681    0.0000 C   0  0  0  0  0  0  0  0  0  0  0  0
    5.4100    1.6604    0.0000 C   0  0  0  0  0  0  0  0  0  0  0  0
    3.9319    1.9155    0.0000 C   0  0  0  0  0  0  0  0  0  0  0  0
    4.4501    0.5078    0.0000 C   0  0  0  0  0  0  0  0  0  0  0  0
    2.9719    0.7628    0.0000 C   0  0  0  0  0  0  0  0  0  0  0  0
    2.0120   -0.3898    0.0000 C   0  0  0  0  0  0  0  0  0  0  0  0
    0.5339   -0.1348    0.0000 O   0  0  0  0  0  0  0  0  0  0  0  0
    2.5303   -1.7974    0.0000 C   0  0  0  0  0  0  0  0  0  0  0  0
    1.0335   -1.6983    0.0000 C   0  0  0  0  0  0  0  0  0  0  0  0
  2  1  1  6
  2  3  1  0
  3  4  1  0
  4  5  1  0
  5  6  2  0
  5  7  1  0
  7  8  1  0
  8  9  1  1
  9 10  1  0
 10 11  1  0
 11 12  1  0
 12 13  2  0
 13 14  1  0
 13 15  1  0
  8 16  1  0
 16 17  2  0
 16 18  1  0
  2 19  1  0
 19 20  1  6
 20 21  1  0
 22 21  1  6
 22 23  1  0
 23 24  1  1
 24 25  1  1
 24 26  1  0
 27 26  1  1
 27 28  1  0
 28 29  1  0
 29 30  1  1
 29 31  1  0
 31 32  1  0
 32 33  1  0
 33 34  1  6
 33 35  1  0
 35 36  1  6
 36 37  1  0
 37 38  1  1
 37 39  1  0
 39 40  1  6
 39 19  1  0
 39 22  1  0
 35 23  1  0
 33 27  1  0
M  END
>  <MS_ID>  (3499) 
MS3696

>  <SMILES>  (3499) 
C[C@H](CCC(=O)N[C@@H](CCCN=C(N)N)C(=O)O)[C@H]1CC[C@H]2[C@@H]3[C@H](O)C[C@@H]4C[C@H](O)CC[C@]4(C)[C@H]3C[C@H](O)[C@]12C

>  <Structure_dimension>  (3499) 
2D

$$$$
MS3697
     RDKit          2D

 37 40  0  0  0  0  0  0  0  0999 V2000
   -1.0033   -4.5187    0.0000 C   0  0  0  0  0  0  0  0  0  0  0  0
   -0.3845   -3.1522    0.0000 C   0  0  0  0  0  0  0  0  0  0  0  0
   -1.2585   -1.9332    0.0000 C   0  0  0  0  0  0  0  0  0  0  0  0
   -2.7512   -2.0805    0.0000 C   0  0  0  0  0  0  0  0  0  0  0  0
   -3.6252   -0.8614    0.0000 C   0  0  0  0  0  0  0  0  0  0  0  0
   -3.0064    0.5050    0.0000 O   0  0  0  0  0  0  0  0  0  0  0  0
   -5.1179   -1.0088    0.0000 N   0  0  0  0  0  0  0  0  0  0  0  0
   -5.9919    0.2103    0.0000 C   0  0  0  0  0  0  0  0  0  0  0  0
   -7.4846    0.0630    0.0000 C   0  0  0  0  0  0  0  0  0  0  0  0
   -8.1034   -1.3035    0.0000 O   0  0  0  0  0  0  0  0  0  0  0  0
   -8.3586    1.2821    0.0000 N   0  0  0  0  0  0  0  0  0  0  0  0
   -9.8514    1.1347    0.0000 C   0  0  0  0  0  0  0  0  0  0  0  0
  -10.7253    2.3538    0.0000 C   0  0  0  0  0  0  0  0  0  0  0  0
  -10.1066    3.7202    0.0000 O   0  0  0  0  0  0  0  0  0  0  0  0
  -12.2181    2.2065    0.0000 O   0  0  0  0  0  0  0  0  0  0  0  0
    1.1083   -3.0049    0.0000 C   0  0  0  0  0  0  0  0  0  0  0  0
    2.1049   -4.1260    0.0000 C   0  0  0  0  0  0  0  0  0  0  0  0
    3.4790   -3.5245    0.0000 C   0  0  0  0  0  0  0  0  0  0  0  0
    3.3317   -2.0318    0.0000 C   0  0  0  0  0  0  0  0  0  0  0  0
    4.3424   -0.9235    0.0000 C   0  0  0  0  0  0  0  0  0  0  0  0
    5.8076   -1.2446    0.0000 C   0  0  0  0  0  0  0  0  0  0  0  0
    6.2621   -2.6741    0.0000 O   0  0  0  0  0  0  0  0  0  0  0  0
    6.8184   -0.1363    0.0000 C   0  0  0  0  0  0  0  0  0  0  0  0
    6.3639    1.2932    0.0000 C   0  0  0  0  0  0  0  0  0  0  0  0
    7.3746    2.4016    0.0000 C   0  0  0  0  0  0  0  0  0  0  0  0
    6.9201    3.8311    0.0000 C   0  0  0  0  0  0  0  0  0  0  0  0
    7.9309    4.9394    0.0000 O   0  0  0  0  0  0  0  0  0  0  0  0
    5.4549    4.1522    0.0000 C   0  0  0  0  0  0  0  0  0  0  0  0
    4.4442    3.0439    0.0000 C   0  0  0  0  0  0  0  0  0  0  0  0
    4.8987    1.6144    0.0000 C   0  0  0  0  0  0  0  0  0  0  0  0
    3.4335    1.9355    0.0000 C   0  0  0  0  0  0  0  0  0  0  0  0
    3.8879    0.5060    0.0000 C   0  0  0  0  0  0  0  0  0  0  0  0
    2.4227    0.8272    0.0000 C   0  0  0  0  0  0  0  0  0  0  0  0
    1.4120   -0.2811    0.0000 C   0  0  0  0  0  0  0  0  0  0  0  0
   -0.0532    0.0400    0.0000 O   0  0  0  0  0  0  0  0  0  0  0  0
    1.8665   -1.7106    0.0000 C   0  0  0  0  0  0  0  0  0  0  0  0
    0.3757   -1.5444    0.0000 C   0  0  0  0  0  0  0  0  0  0  0  0
  2  1  1  6
  2  3  1  0
  3  4  1  0
  4  5  1  0
  5  6  2  0
  5  7  1  0
  7  8  1  0
  8  9  1  0
  9 10  2  0
  9 11  1  0
 11 12  1  0
 12 13  1  0
 13 14  2  0
 13 15  1  0
  2 16  1  0
 16 17  1  6
 17 18  1  0
 19 18  1  6
 19 20  1  0
 20 21  1  1
 21 22  1  1
 21 23  1  0
 24 23  1  1
 24 25  1  0
 25 26  1  0
 26 27  1  1
 26 28  1  0
 28 29  1  0
 29 30  1  0
 30 31  1  6
 30 32  1  0
 32 33  1  6
 33 34  1  0
 34 35  1  1
 34 36  1  0
 36 37  1  6
 36 16  1  0
 36 19  1  0
 32 20  1  0
 30 24  1  0
M  END
>  <MS_ID>  (3500) 
MS3697

>  <SMILES>  (3500) 
C[C@H](CCC(=O)NCC(=O)NCC(=O)O)[C@H]1CC[C@H]2[C@@H]3[C@H](O)C[C@@H]4C[C@H](O)CC[C@]4(C)[C@H]3C[C@H](O)[C@]12C

>  <Structure_dimension>  (3500) 
2D

$$$$
MS3699
     RDKit          2D

 33 36  0  0  0  0  0  0  0  0999 V2000
   -3.0978   -3.6919    0.0000 C   0  0  0  0  0  0  0  0  0  0  0  0
   -2.2201   -2.4755    0.0000 C   0  0  0  0  0  0  0  0  0  0  0  0
   -2.8347   -1.1072    0.0000 C   0  0  0  0  0  0  0  0  0  0  0  0
   -4.3270   -0.9552    0.0000 C   0  0  0  0  0  0  0  0  0  0  0  0
   -4.9416    0.4131    0.0000 C   0  0  0  0  0  0  0  0  0  0  0  0
   -4.0639    1.6295    0.0000 O   0  0  0  0  0  0  0  0  0  0  0  0
   -6.4339    0.5650    0.0000 N   0  0  0  0  0  0  0  0  0  0  0  0
   -7.0484    1.9333    0.0000 C   0  0  0  0  0  0  0  0  0  0  0  0
   -8.5407    2.0852    0.0000 C   0  0  0  0  0  0  0  0  0  0  0  0
   -9.4184    0.8688    0.0000 O   0  0  0  0  0  0  0  0  0  0  0  0
   -9.1553    3.4535    0.0000 O   0  0  0  0  0  0  0  0  0  0  0  0
   -0.7278   -2.6274    0.0000 C   0  0  0  0  0  0  0  0  0  0  0  0
    0.0264   -3.9240    0.0000 C   0  0  0  0  0  0  0  0  0  0  0  0
    1.4926   -3.6073    0.0000 C   0  0  0  0  0  0  0  0  0  0  0  0
    1.6445   -2.1150    0.0000 C   0  0  0  0  0  0  0  0  0  0  0  0
    2.8552   -1.2294    0.0000 C   0  0  0  0  0  0  0  0  0  0  0  0
    4.2275   -1.8350    0.0000 C   0  0  0  0  0  0  0  0  0  0  0  0
    4.3891   -3.3263    0.0000 O   0  0  0  0  0  0  0  0  0  0  0  0
    5.4381   -0.9494    0.0000 C   0  0  0  0  0  0  0  0  0  0  0  0
    5.2764    0.5419    0.0000 C   0  0  0  0  0  0  0  0  0  0  0  0
    6.4871    1.4275    0.0000 C   0  0  0  0  0  0  0  0  0  0  0  0
    6.3254    2.9188    0.0000 C   0  0  0  0  0  0  0  0  0  0  0  0
    7.5360    3.8044    0.0000 O   0  0  0  0  0  0  0  0  0  0  0  0
    4.9531    3.5244    0.0000 C   0  0  0  0  0  0  0  0  0  0  0  0
    3.7425    2.6388    0.0000 C   0  0  0  0  0  0  0  0  0  0  0  0
    3.9041    1.1475    0.0000 C   0  0  0  0  0  0  0  0  0  0  0  0
    2.5318    1.7531    0.0000 C   0  0  0  0  0  0  0  0  0  0  0  0
    2.6935    0.2619    0.0000 C   0  0  0  0  0  0  0  0  0  0  0  0
    1.3212    0.8675    0.0000 C   0  0  0  0  0  0  0  0  0  0  0  0
    0.1105   -0.0181    0.0000 C   0  0  0  0  0  0  0  0  0  0  0  0
   -1.2618    0.5875    0.0000 O   0  0  0  0  0  0  0  0  0  0  0  0
    0.2722   -1.5094    0.0000 C   0  0  0  0  0  0  0  0  0  0  0  0
   -1.1559   -1.0505    0.0000 C   0  0  0  0  0  0  0  0  0  0  0  0
  2  1  1  6
  2  3  1  0
  3  4  1  0
  4  5  1  0
  5  6  2  0
  5  7  1  0
  7  8  1  0
  8  9  1  0
  9 10  2  0
  9 11  1  0
  2 12  1  0
 12 13  1  6
 13 14  1  0
 15 14  1  6
 15 16  1  0
 16 17  1  1
 17 18  1  1
 17 19  1  0
 20 19  1  6
 20 21  1  0
 21 22  1  0
 22 23  1  1
 22 24  1  0
 24 25  1  0
 25 26  1  0
 26 27  1  6
 26 28  1  0
 28 29  1  6
 29 30  1  0
 30 31  1  1
 30 32  1  0
 32 33  1  6
 32 12  1  0
 32 15  1  0
 28 16  1  0
 26 20  1  0
M  END
>  <MS_ID>  (3501) 
MS3699

>  <SMILES>  (3501) 
C[C@H](CCC(=O)NCC(=O)O)[C@H]1CC[C@H]2[C@@H]3[C@H](O)C[C@H]4C[C@H](O)CC[C@]4(C)[C@H]3C[C@H](O)[C@]12C

>  <Structure_dimension>  (3501) 
2D

$$$$
MS3705
     RDKit          2D

 33 36  0  0  0  0  0  0  0  0999 V2000
   -3.0978   -3.6919    0.0000 C   0  0  0  0  0  0  0  0  0  0  0  0
   -2.2201   -2.4755    0.0000 C   0  0  0  0  0  0  0  0  0  0  0  0
   -2.8347   -1.1072    0.0000 C   0  0  0  0  0  0  0  0  0  0  0  0
   -4.3270   -0.9552    0.0000 C   0  0  0  0  0  0  0  0  0  0  0  0
   -4.9416    0.4131    0.0000 C   0  0  0  0  0  0  0  0  0  0  0  0
   -4.0639    1.6295    0.0000 O   0  0  0  0  0  0  0  0  0  0  0  0
   -6.4339    0.5650    0.0000 N   0  0  0  0  0  0  0  0  0  0  0  0
   -7.0484    1.9333    0.0000 C   0  0  0  0  0  0  0  0  0  0  0  0
   -8.5407    2.0852    0.0000 C   0  0  0  0  0  0  0  0  0  0  0  0
   -9.4184    0.8688    0.0000 O   0  0  0  0  0  0  0  0  0  0  0  0
   -9.1553    3.4535    0.0000 O   0  0  0  0  0  0  0  0  0  0  0  0
   -0.7278   -2.6274    0.0000 C   0  0  0  0  0  0  0  0  0  0  0  0
    0.0264   -3.9240    0.0000 C   0  0  0  0  0  0  0  0  0  0  0  0
    1.4926   -3.6073    0.0000 C   0  0  0  0  0  0  0  0  0  0  0  0
    1.6445   -2.1150    0.0000 C   0  0  0  0  0  0  0  0  0  0  0  0
    2.8552   -1.2294    0.0000 C   0  0  0  0  0  0  0  0  0  0  0  0
    4.2275   -1.8350    0.0000 C   0  0  0  0  0  0  0  0  0  0  0  0
    4.3891   -3.3263    0.0000 O   0  0  0  0  0  0  0  0  0  0  0  0
    5.4381   -0.9494    0.0000 C   0  0  0  0  0  0  0  0  0  0  0  0
    5.2764    0.5419    0.0000 C   0  0  0  0  0  0  0  0  0  0  0  0
    6.4871    1.4275    0.0000 C   0  0  0  0  0  0  0  0  0  0  0  0
    6.3254    2.9188    0.0000 C   0  0  0  0  0  0  0  0  0  0  0  0
    7.5360    3.8044    0.0000 O   0  0  0  0  0  0  0  0  0  0  0  0
    4.9531    3.5244    0.0000 C   0  0  0  0  0  0  0  0  0  0  0  0
    3.7425    2.6388    0.0000 C   0  0  0  0  0  0  0  0  0  0  0  0
    3.9041    1.1475    0.0000 C   0  0  0  0  0  0  0  0  0  0  0  0
    2.5318    1.7531    0.0000 C   0  0  0  0  0  0  0  0  0  0  0  0
    2.6935    0.2619    0.0000 C   0  0  0  0  0  0  0  0  0  0  0  0
    1.3212    0.8675    0.0000 C   0  0  0  0  0  0  0  0  0  0  0  0
    0.1105   -0.0181    0.0000 C   0  0  0  0  0  0  0  0  0  0  0  0
   -1.2618    0.5875    0.0000 O   0  0  0  0  0  0  0  0  0  0  0  0
    0.2722   -1.5094    0.0000 C   0  0  0  0  0  0  0  0  0  0  0  0
   -1.1559   -1.0505    0.0000 C   0  0  0  0  0  0  0  0  0  0  0  0
  2  1  1  6
  2  3  1  0
  3  4  1  0
  4  5  1  0
  5  6  2  0
  5  7  1  0
  7  8  1  0
  8  9  1  0
  9 10  2  0
  9 11  1  0
  2 12  1  0
 12 13  1  6
 13 14  1  0
 15 14  1  6
 15 16  1  0
 16 17  1  1
 17 18  2  0
 17 19  1  0
 20 19  1  1
 20 21  1  0
 21 22  1  0
 22 23  1  1
 22 24  1  0
 24 25  1  0
 25 26  1  0
 26 27  1  6
 26 28  1  0
 28 29  1  6
 29 30  1  0
 30 31  1  1
 30 32  1  0
 32 33  1  6
 32 12  1  0
 32 15  1  0
 28 16  1  0
 26 20  1  0
M  END
>  <MS_ID>  (3502) 
MS3705

>  <SMILES>  (3502) 
C[C@H](CCC(=O)NCC(=O)O)[C@H]1CC[C@H]2[C@@H]3C(=O)C[C@@H]4C[C@H](O)CC[C@]4(C)[C@H]3C[C@H](O)[C@]12C

>  <Structure_dimension>  (3502) 
2D

$$$$
MS3707
     RDKit          2D

 37 40  0  0  0  0  0  0  0  0999 V2000
   -4.5396   -3.5152    0.0000 C   0  0  0  0  0  0  0  0  0  0  0  0
   -3.5258   -2.4097    0.0000 C   0  0  0  0  0  0  0  0  0  0  0  0
   -3.9764   -0.9789    0.0000 C   0  0  0  0  0  0  0  0  0  0  0  0
   -5.4407   -0.6538    0.0000 C   0  0  0  0  0  0  0  0  0  0  0  0
   -5.8913    0.7769    0.0000 C   0  0  0  0  0  0  0  0  0  0  0  0
   -4.8775    1.8825    0.0000 O   0  0  0  0  0  0  0  0  0  0  0  0
   -7.3556    1.1021    0.0000 N   0  0  0  0  0  0  0  0  0  0  0  0
   -7.8062    2.5328    0.0000 C   0  0  0  0  0  0  0  0  0  0  0  0
   -9.2705    2.8580    0.0000 C   0  0  0  0  0  0  0  0  0  0  0  0
  -10.2843    1.7524    0.0000 O   0  0  0  0  0  0  0  0  0  0  0  0
   -9.7211    4.2887    0.0000 O   0  0  0  0  0  0  0  0  0  0  0  0
   -2.0615   -2.7348    0.0000 C   0  0  0  0  0  0  0  0  0  0  0  0
   -1.4638   -4.1106    0.0000 C   0  0  0  0  0  0  0  0  0  0  0  0
    0.0293   -3.9673    0.0000 C   0  0  0  0  0  0  0  0  0  0  0  0
    0.3545   -2.5030    0.0000 C   0  0  0  0  0  0  0  0  0  0  0  0
    1.6603   -1.7648    0.0000 C   0  0  0  0  0  0  0  0  0  0  0  0
    2.9525   -2.5265    0.0000 C   0  0  0  0  0  0  0  0  0  0  0  0
    2.9389   -4.0265    0.0000 O   0  0  0  0  0  0  0  0  0  0  0  0
    4.2582   -1.7884    0.0000 C   0  0  0  0  0  0  0  0  0  0  0  0
    4.2718   -0.2884    0.0000 C   0  0  0  0  0  0  0  0  0  0  0  0
    5.5776    0.4498    0.0000 C   0  0  0  0  0  0  0  0  0  0  0  0
    5.5912    1.9497    0.0000 C   0  0  0  0  0  0  0  0  0  0  0  0
    6.8970    2.6879    0.0000 O   0  0  0  0  0  0  0  0  0  0  0  0
    8.1892    1.9262    0.0000 S   0  0  0  0  0  0  0  0  0  0  0  0
    7.4274    0.6340    0.0000 O   0  0  0  0  0  0  0  0  0  0  0  0
    8.9509    3.2184    0.0000 O   0  0  0  0  0  0  0  0  0  0  0  0
    9.4814    1.1644    0.0000 O   0  0  0  0  0  0  0  0  0  0  0  0
    4.2990    2.7115    0.0000 C   0  0  0  0  0  0  0  0  0  0  0  0
    2.9932    1.9733    0.0000 C   0  0  0  0  0  0  0  0  0  0  0  0
    2.9796    0.4733    0.0000 C   0  0  0  0  0  0  0  0  0  0  0  0
    1.6875    1.2351    0.0000 C   0  0  0  0  0  0  0  0  0  0  0  0
    1.6739   -0.2649    0.0000 C   0  0  0  0  0  0  0  0  0  0  0  0
    0.3817    0.4969    0.0000 C   0  0  0  0  0  0  0  0  0  0  0  0
   -0.9241   -0.2413    0.0000 C   0  0  0  0  0  0  0  0  0  0  0  0
   -2.2163    0.5204    0.0000 O   0  0  0  0  0  0  0  0  0  0  0  0
   -0.9377   -1.7413    0.0000 C   0  0  0  0  0  0  0  0  0  0  0  0
   -2.3024   -1.1188    0.0000 C   0  0  0  0  0  0  0  0  0  0  0  0
  2  1  1  6
  2  3  1  0
  3  4  1  0
  4  5  1  0
  5  6  2  0
  5  7  1  0
  7  8  1  0
  8  9  1  0
  9 10  2  0
  9 11  1  0
  2 12  1  0
 12 13  1  6
 13 14  1  0
 15 14  1  6
 15 16  1  0
 16 17  1  1
 17 18  1  1
 17 19  1  0
 20 19  1  1
 20 21  1  0
 21 22  1  0
 22 23  1  1
 23 24  1  0
 24 25  2  0
 24 26  2  0
 24 27  1  0
 22 28  1  0
 28 29  1  0
 29 30  1  0
 30 31  1  6
 30 32  1  0
 32 33  1  6
 33 34  1  0
 34 35  1  1
 34 36  1  0
 36 37  1  6
 36 12  1  0
 36 15  1  0
 32 16  1  0
 30 20  1  0
M  END
>  <MS_ID>  (3503) 
MS3707

>  <SMILES>  (3503) 
C[C@H](CCC(=O)NCC(=O)O)[C@H]1CC[C@H]2[C@@H]3[C@H](O)C[C@@H]4C[C@H](OS(=O)(=O)O)CC[C@]4(C)[C@H]3C[C@H](O)[C@]12C

>  <Structure_dimension>  (3503) 
2D

$$$$
MS3708
     RDKit          2D

 38 41  0  0  0  0  0  0  0  0999 V2000
   -1.2384   -4.5207    0.0000 C   0  0  0  0  0  0  0  0  0  0  0  0
   -0.5844   -3.1708    0.0000 C   0  0  0  0  0  0  0  0  0  0  0  0
   -1.4264   -1.9294    0.0000 C   0  0  0  0  0  0  0  0  0  0  0  0
   -2.9224   -2.0379    0.0000 C   0  0  0  0  0  0  0  0  0  0  0  0
   -3.7644   -0.7966    0.0000 C   0  0  0  0  0  0  0  0  0  0  0  0
   -3.1104    0.5533    0.0000 O   0  0  0  0  0  0  0  0  0  0  0  0
   -5.2605   -0.9051    0.0000 N   0  0  0  0  0  0  0  0  0  0  0  0
   -6.1025    0.3363    0.0000 C   0  0  0  0  0  0  0  0  0  0  0  0
   -7.5986    0.2278    0.0000 C   0  0  0  0  0  0  0  0  0  0  0  0
   -8.4406    1.4692    0.0000 C   0  0  0  0  0  0  0  0  0  0  0  0
   -9.9367    1.3607    0.0000 C   0  0  0  0  0  0  0  0  0  0  0  0
  -10.5907    0.0108    0.0000 O   0  0  0  0  0  0  0  0  0  0  0  0
  -10.7787    2.6021    0.0000 O   0  0  0  0  0  0  0  0  0  0  0  0
   -5.4485    1.6862    0.0000 C   0  0  0  0  0  0  0  0  0  0  0  0
   -3.9524    1.7947    0.0000 O   0  0  0  0  0  0  0  0  0  0  0  0
   -6.2905    2.9276    0.0000 O   0  0  0  0  0  0  0  0  0  0  0  0
    0.9117   -3.0623    0.0000 C   0  0  0  0  0  0  0  0  0  0  0  0
    1.8789   -4.2089    0.0000 C   0  0  0  0  0  0  0  0  0  0  0  0
    3.2682   -3.6434    0.0000 C   0  0  0  0  0  0  0  0  0  0  0  0
    3.1597   -2.1473    0.0000 C   0  0  0  0  0  0  0  0  0  0  0  0
    4.1989   -1.0656    0.0000 C   0  0  0  0  0  0  0  0  0  0  0  0
    5.6552   -1.4247    0.0000 C   0  0  0  0  0  0  0  0  0  0  0  0
    6.0724   -2.8655    0.0000 O   0  0  0  0  0  0  0  0  0  0  0  0
    6.6944   -0.3430    0.0000 C   0  0  0  0  0  0  0  0  0  0  0  0
    6.2772    1.0978    0.0000 C   0  0  0  0  0  0  0  0  0  0  0  0
    7.3164    2.1795    0.0000 C   0  0  0  0  0  0  0  0  0  0  0  0
    6.8992    3.6203    0.0000 C   0  0  0  0  0  0  0  0  0  0  0  0
    7.9384    4.7020    0.0000 O   0  0  0  0  0  0  0  0  0  0  0  0
    5.4429    3.9795    0.0000 C   0  0  0  0  0  0  0  0  0  0  0  0
    4.4037    2.8978    0.0000 C   0  0  0  0  0  0  0  0  0  0  0  0
    4.8209    1.4569    0.0000 C   0  0  0  0  0  0  0  0  0  0  0  0
    3.3645    1.8160    0.0000 C   0  0  0  0  0  0  0  0  0  0  0  0
    3.7817    0.3752    0.0000 C   0  0  0  0  0  0  0  0  0  0  0  0
    2.3253    0.7343    0.0000 C   0  0  0  0  0  0  0  0  0  0  0  0
    1.2861   -0.3474    0.0000 C   0  0  0  0  0  0  0  0  0  0  0  0
   -0.1703    0.0118    0.0000 O   0  0  0  0  0  0  0  0  0  0  0  0
    1.7033   -1.7882    0.0000 C   0  0  0  0  0  0  0  0  0  0  0  0
    0.2174   -1.5833    0.0000 C   0  0  0  0  0  0  0  0  0  0  0  0
  2  1  1  6
  2  3  1  0
  3  4  1  0
  4  5  1  0
  5  6  2  0
  5  7  1  0
  7  8  1  0
  8  9  1  1
  9 10  1  0
 10 11  1  0
 11 12  2  0
 11 13  1  0
  8 14  1  0
 14 15  2  0
 14 16  1  0
  2 17  1  0
 17 18  1  6
 18 19  1  0
 20 19  1  6
 20 21  1  0
 21 22  1  1
 22 23  1  6
 22 24  1  0
 25 24  1  1
 25 26  1  0
 26 27  1  0
 27 28  1  1
 27 29  1  0
 29 30  1  0
 30 31  1  0
 31 32  1  6
 31 33  1  0
 33 34  1  6
 34 35  1  0
 35 36  1  1
 35 37  1  0
 37 38  1  6
 37 17  1  0
 37 20  1  0
 33 21  1  0
 31 25  1  0
M  END
>  <MS_ID>  (3504) 
MS3708

>  <SMILES>  (3504) 
C[C@H](CCC(=O)N[C@@H](CCC(=O)O)C(=O)O)[C@H]1CC[C@H]2[C@@H]3[C@@H](O)C[C@@H]4C[C@H](O)CC[C@]4(C)[C@H]3C[C@H](O)[C@]12C

>  <Structure_dimension>  (3504) 
2D

$$$$
MS3710
     RDKit          2D

 32 35  0  0  0  0  0  0  0  0999 V2000
  -11.1670    3.6023    0.0000 C   0  0  0  0  0  0  0  0  0  0  0  0
  -10.4251    2.2986    0.0000 C   0  0  0  0  0  0  0  0  0  0  0  0
   -8.9252    2.2892    0.0000 C   0  0  0  0  0  0  0  0  0  0  0  0
   -8.1833    0.9855    0.0000 C   0  0  0  0  0  0  0  0  0  0  0  0
   -6.6834    0.9761    0.0000 C   0  0  0  0  0  0  0  0  0  0  0  0
   -5.9415   -0.3277    0.0000 N   0  0  0  0  0  0  0  0  0  0  0  0
   -4.4416   -0.3371    0.0000 C   0  0  0  0  0  0  0  0  0  0  0  0
   -3.6834    0.9572    0.0000 O   0  0  0  0  0  0  0  0  0  0  0  0
   -3.6997   -1.6408    0.0000 C   0  0  0  0  0  0  0  0  0  0  0  0
   -2.1997   -1.6502    0.0000 C   0  0  0  0  0  0  0  0  0  0  0  0
   -1.4579   -2.9539    0.0000 C   0  0  0  0  0  0  0  0  0  0  0  0
   -2.2161   -4.2482    0.0000 C   0  0  0  0  0  0  0  0  0  0  0  0
    0.0421   -2.9634    0.0000 C   0  0  0  0  0  0  0  0  0  0  0  0
    0.9161   -4.1824    0.0000 C   0  0  0  0  0  0  0  0  0  0  0  0
    2.3456   -3.7278    0.0000 C   0  0  0  0  0  0  0  0  0  0  0  0
    2.3550   -2.2279    0.0000 C   0  0  0  0  0  0  0  0  0  0  0  0
    3.4760   -1.2312    0.0000 C   0  0  0  0  0  0  0  0  0  0  0  0
    4.8996   -1.7036    0.0000 C   0  0  0  0  0  0  0  0  0  0  0  0
    6.0206   -0.7070    0.0000 C   0  0  0  0  0  0  0  0  0  0  0  0
    5.7180    0.7622    0.0000 C   0  0  0  0  0  0  0  0  0  0  0  0
    6.8390    1.7589    0.0000 C   0  0  0  0  0  0  0  0  0  0  0  0
    6.5363    3.2280    0.0000 C   0  0  0  0  0  0  0  0  0  0  0  0
    7.6573    4.2247    0.0000 O   0  0  0  0  0  0  0  0  0  0  0  0
    5.1127    3.7005    0.0000 C   0  0  0  0  0  0  0  0  0  0  0  0
    3.9917    2.7038    0.0000 C   0  0  0  0  0  0  0  0  0  0  0  0
    4.2943    1.2347    0.0000 C   0  0  0  0  0  0  0  0  0  0  0  0
    2.8707    1.7071    0.0000 C   0  0  0  0  0  0  0  0  0  0  0  0
    3.1733    0.2380    0.0000 C   0  0  0  0  0  0  0  0  0  0  0  0
    1.7497    0.7104    0.0000 C   0  0  0  0  0  0  0  0  0  0  0  0
    0.6287   -0.2862    0.0000 C   0  0  0  0  0  0  0  0  0  0  0  0
    0.9313   -1.7554    0.0000 C   0  0  0  0  0  0  0  0  0  0  0  0
   -0.5339   -1.4343    0.0000 C   0  0  0  0  0  0  0  0  0  0  0  0
  1  2  1  0
  2  3  1  0
  3  4  1  0
  4  5  1  0
  5  6  1  0
  6  7  1  0
  7  8  2  0
  7  9  1  0
  9 10  1  0
 10 11  1  0
 11 12  1  6
 11 13  1  0
 13 14  1  6
 14 15  1  0
 16 15  1  6
 16 17  1  0
 17 18  1  1
 18 19  1  0
 20 19  1  1
 20 21  1  0
 21 22  1  0
 22 23  1  1
 22 24  1  0
 24 25  1  0
 25 26  1  0
 26 27  1  6
 26 28  1  0
 28 29  1  6
 29 30  1  0
 30 31  1  0
 31 32  1  6
 31 13  1  0
 31 16  1  0
 28 17  1  0
 26 20  1  0
M  END
>  <MS_ID>  (3505) 
MS3710

>  <SMILES>  (3505) 
CCCCCNC(=O)CC[C@@H](C)[C@H]1CC[C@H]2[C@@H]3CC[C@@H]4C[C@H](O)CC[C@]4(C)[C@H]3CC[C@]12C

>  <Structure_dimension>  (3505) 
2D

$$$$
MS3711
     RDKit          2D

 40 44  0  0  0  0  0  0  0  0999 V2000
   -0.3822   -4.9675    0.0000 C   0  0  0  0  0  0  0  0  0  0  0  0
    0.1406   -3.5616    0.0000 C   0  0  0  0  0  0  0  0  0  0  0  0
   -0.8156   -2.4059    0.0000 C   0  0  0  0  0  0  0  0  0  0  0  0
   -2.2946   -2.6561    0.0000 C   0  0  0  0  0  0  0  0  0  0  0  0
   -3.2508   -1.5004    0.0000 C   0  0  0  0  0  0  0  0  0  0  0  0
   -2.7280   -0.0944    0.0000 O   0  0  0  0  0  0  0  0  0  0  0  0
   -4.7298   -1.7506    0.0000 O   0  0  0  0  0  0  0  0  0  0  0  0
   -5.6860   -0.5949    0.0000 C   0  0  0  0  0  0  0  0  0  0  0  0
   -5.1632    0.8111    0.0000 O   0  0  0  0  0  0  0  0  0  0  0  0
   -6.1194    1.9668    0.0000 C   0  0  0  0  0  0  0  0  0  0  0  0
   -5.5966    3.3727    0.0000 C   0  0  0  0  0  0  0  0  0  0  0  0
   -6.5528    4.5285    0.0000 O   0  0  0  0  0  0  0  0  0  0  0  0
   -4.1176    3.6230    0.0000 O   0  0  0  0  0  0  0  0  0  0  0  0
   -7.5983    1.7166    0.0000 C   0  0  0  0  0  0  0  0  0  0  0  0
   -8.5545    2.8723    0.0000 O   0  0  0  0  0  0  0  0  0  0  0  0
   -8.1211    0.3106    0.0000 C   0  0  0  0  0  0  0  0  0  0  0  0
   -9.6001    0.0604    0.0000 O   0  0  0  0  0  0  0  0  0  0  0  0
   -7.1649   -0.8451    0.0000 C   0  0  0  0  0  0  0  0  0  0  0  0
   -7.6877   -2.2511    0.0000 O   0  0  0  0  0  0  0  0  0  0  0  0
    1.6196   -3.3114    0.0000 C   0  0  0  0  0  0  0  0  0  0  0  0
    2.6913   -4.3608    0.0000 C   0  0  0  0  0  0  0  0  0  0  0  0
    4.0206   -3.6658    0.0000 C   0  0  0  0  0  0  0  0  0  0  0  0
    3.7704   -2.1868    0.0000 C   0  0  0  0  0  0  0  0  0  0  0  0
    4.7020   -1.0112    0.0000 C   0  0  0  0  0  0  0  0  0  0  0  0
    6.1860   -1.2303    0.0000 C   0  0  0  0  0  0  0  0  0  0  0  0
    6.7382   -2.6249    0.0000 O   0  0  0  0  0  0  0  0  0  0  0  0
    7.1176   -0.0547    0.0000 C   0  0  0  0  0  0  0  0  0  0  0  0
    6.5654    1.3400    0.0000 C   0  0  0  0  0  0  0  0  0  0  0  0
    7.4970    2.5156    0.0000 C   0  0  0  0  0  0  0  0  0  0  0  0
    6.9448    3.9102    0.0000 C   0  0  0  0  0  0  0  0  0  0  0  0
    7.8764    5.0858    0.0000 O   0  0  0  0  0  0  0  0  0  0  0  0
    5.4608    4.1292    0.0000 C   0  0  0  0  0  0  0  0  0  0  0  0
    4.5292    2.9537    0.0000 C   0  0  0  0  0  0  0  0  0  0  0  0
    5.0814    1.5590    0.0000 C   0  0  0  0  0  0  0  0  0  0  0  0
    3.5975    1.7781    0.0000 C   0  0  0  0  0  0  0  0  0  0  0  0
    4.1498    0.3834    0.0000 C   0  0  0  0  0  0  0  0  0  0  0  0
    2.6659    0.6025    0.0000 C   0  0  0  0  0  0  0  0  0  0  0  0
    1.7342   -0.5731    0.0000 C   0  0  0  0  0  0  0  0  0  0  0  0
    2.2865   -1.9678    0.0000 C   0  0  0  0  0  0  0  0  0  0  0  0
    0.7878   -1.9050    0.0000 C   0  0  0  0  0  0  0  0  0  0  0  0
  2  1  1  6
  2  3  1  0
  3  4  1  0
  4  5  1  0
  5  6  2  0
  5  7  1  0
  8  7  1  1
  8  9  1  0
  9 10  1  0
 10 11  1  1
 11 12  2  0
 11 13  1  0
 10 14  1  0
 14 15  1  6
 14 16  1  0
 16 17  1  1
 16 18  1  0
 18 19  1  6
  2 20  1  0
 20 21  1  6
 21 22  1  0
 23 22  1  6
 23 24  1  0
 24 25  1  1
 25 26  1  1
 25 27  1  0
 28 27  1  1
 28 29  1  0
 29 30  1  0
 30 31  1  1
 30 32  1  0
 32 33  1  0
 33 34  1  0
 34 35  1  6
 34 36  1  0
 36 37  1  6
 37 38  1  0
 38 39  1  0
 39 40  1  6
 18  8  1  0
 39 20  1  0
 39 23  1  0
 36 24  1  0
 34 28  1  0
M  END
>  <MS_ID>  (3506) 
MS3711

>  <SMILES>  (3506) 
C[C@H](CCC(=O)O[C@@H]1O[C@H](C(=O)O)[C@@H](O)[C@H](O)[C@H]1O)[C@H]1CC[C@H]2[C@@H]3[C@H](O)C[C@@H]4C[C@H](O)CC[C@]4(C)[C@H]3CC[C@]12C

>  <Structure_dimension>  (3506) 
2D

$$$$
MS3712
     RDKit          2D

 36 39  0  0  0  0  0  0  0  0999 V2000
   -2.1935   -4.2964    0.0000 C   0  0  0  0  0  0  0  0  0  0  0  0
   -1.4931   -2.9700    0.0000 C   0  0  0  0  0  0  0  0  0  0  0  0
   -2.2917   -1.7002    0.0000 C   0  0  0  0  0  0  0  0  0  0  0  0
   -3.7906   -1.7569    0.0000 C   0  0  0  0  0  0  0  0  0  0  0  0
   -4.5892   -0.4871    0.0000 C   0  0  0  0  0  0  0  0  0  0  0  0
   -3.8888    0.8393    0.0000 O   0  0  0  0  0  0  0  0  0  0  0  0
   -6.0881   -0.5438    0.0000 N   0  0  0  0  0  0  0  0  0  0  0  0
   -6.8867    0.7259    0.0000 C   0  0  0  0  0  0  0  0  0  0  0  0
   -8.3856    0.6692    0.0000 C   0  0  0  0  0  0  0  0  0  0  0  0
   -9.1841    1.9390    0.0000 S   0  0  0  0  0  0  0  0  0  0  0  0
  -10.4539    1.1404    0.0000 O   0  0  0  0  0  0  0  0  0  0  0  0
   -7.9144    2.7375    0.0000 O   0  0  0  0  0  0  0  0  0  0  0  0
   -9.9827    3.2087    0.0000 O   0  0  0  0  0  0  0  0  0  0  0  0
    0.0058   -2.9133    0.0000 C   0  0  0  0  0  0  0  0  0  0  0  0
    0.9327   -4.0926    0.0000 C   0  0  0  0  0  0  0  0  0  0  0  0
    2.3408   -3.5755    0.0000 C   0  0  0  0  0  0  0  0  0  0  0  0
    2.2841   -2.0766    0.0000 C   0  0  0  0  0  0  0  0  0  0  0  0
    3.3601   -1.0314    0.0000 C   0  0  0  0  0  0  0  0  0  0  0  0
    4.8032   -1.4407    0.0000 C   0  0  0  0  0  0  0  0  0  0  0  0
    5.1703   -2.8951    0.0000 O   0  0  0  0  0  0  0  0  0  0  0  0
    5.8791   -0.3956    0.0000 C   0  0  0  0  0  0  0  0  0  0  0  0
    7.3222   -0.8049    0.0000 O   0  0  0  0  0  0  0  0  0  0  0  0
    5.5120    1.0588    0.0000 C   0  0  0  0  0  0  0  0  0  0  0  0
    6.5880    2.1039    0.0000 C   0  0  0  0  0  0  0  0  0  0  0  0
    6.2209    3.5583    0.0000 C   0  0  0  0  0  0  0  0  0  0  0  0
    7.2969    4.6034    0.0000 O   0  0  0  0  0  0  0  0  0  0  0  0
    4.7778    3.9676    0.0000 C   0  0  0  0  0  0  0  0  0  0  0  0
    3.7018    2.9224    0.0000 C   0  0  0  0  0  0  0  0  0  0  0  0
    4.0690    1.4681    0.0000 C   0  0  0  0  0  0  0  0  0  0  0  0
    2.6259    1.8773    0.0000 C   0  0  0  0  0  0  0  0  0  0  0  0
    2.9930    0.4229    0.0000 C   0  0  0  0  0  0  0  0  0  0  0  0
    1.5499    0.8322    0.0000 C   0  0  0  0  0  0  0  0  0  0  0  0
    0.4739   -0.2129    0.0000 C   0  0  0  0  0  0  0  0  0  0  0  0
   -0.9692    0.1964    0.0000 O   0  0  0  0  0  0  0  0  0  0  0  0
    0.8410   -1.6673    0.0000 C   0  0  0  0  0  0  0  0  0  0  0  0
   -0.6370   -1.4111    0.0000 C   0  0  0  0  0  0  0  0  0  0  0  0
  2  1  1  6
  2  3  1  0
  3  4  1  0
  4  5  1  0
  5  6  2  0
  5  7  1  0
  7  8  1  0
  8  9  1  0
  9 10  1  0
 10 11  2  0
 10 12  2  0
 10 13  1  0
  2 14  1  0
 14 15  1  6
 15 16  1  0
 17 16  1  6
 17 18  1  0
 18 19  1  1
 19 20  1  6
 19 21  1  0
 21 22  1  6
 21 23  1  0
 23 24  1  1
 24 25  1  0
 25 26  1  1
 25 27  1  0
 27 28  1  0
 28 29  1  0
 29 30  1  6
 29 31  1  0
 31 32  1  6
 32 33  1  0
 33 34  1  1
 33 35  1  0
 35 36  1  6
 35 14  1  0
 35 17  1  0
 31 18  1  0
 29 23  1  0
M  END
>  <MS_ID>  (3507) 
MS3712

>  <SMILES>  (3507) 
C[C@H](CCC(=O)NCCS(=O)(=O)O)[C@H]1CC[C@H]2[C@@H]3[C@@H](O)[C@@H](O)[C@@H]4C[C@H](O)CC[C@]4(C)[C@H]3C[C@H](O)[C@]12C

>  <Structure_dimension>  (3507) 
2D

$$$$
MS3713
     RDKit          2D

 29 32  0  0  0  0  0  0  0  0999 V2000
   -5.1607   -2.0928    0.0000 C   0  0  0  0  0  0  0  0  0  0  0  0
   -3.9751   -1.1738    0.0000 C   0  0  0  0  0  0  0  0  0  0  0  0
   -4.1782    0.3124    0.0000 C   0  0  0  0  0  0  0  0  0  0  0  0
   -5.5668    0.8796    0.0000 C   0  0  0  0  0  0  0  0  0  0  0  0
   -5.7698    2.3658    0.0000 C   0  0  0  0  0  0  0  0  0  0  0  0
   -4.5842    3.2848    0.0000 O   0  0  0  0  0  0  0  0  0  0  0  0
   -7.1584    2.9331    0.0000 O   0  0  0  0  0  0  0  0  0  0  0  0
   -2.5865   -1.7411    0.0000 C   0  0  0  0  0  0  0  0  0  0  0  0
   -2.2293   -3.1980    0.0000 C   0  0  0  0  0  0  0  0  0  0  0  0
   -0.7334   -3.3084    0.0000 C   0  0  0  0  0  0  0  0  0  0  0  0
   -0.1661   -1.9198    0.0000 C   0  0  0  0  0  0  0  0  0  0  0  0
    1.2454   -1.4122    0.0000 C   0  0  0  0  0  0  0  0  0  0  0  0
    2.3908   -2.3808    0.0000 C   0  0  0  0  0  0  0  0  0  0  0  0
    2.1246   -3.8570    0.0000 O   0  0  0  0  0  0  0  0  0  0  0  0
    3.8023   -1.8732    0.0000 C   0  0  0  0  0  0  0  0  0  0  0  0
    4.0685   -0.3970    0.0000 C   0  0  0  0  0  0  0  0  0  0  0  0
    5.4800    0.1106    0.0000 C   0  0  0  0  0  0  0  0  0  0  0  0
    5.7461    1.5868    0.0000 C   0  0  0  0  0  0  0  0  0  0  0  0
    7.1577    2.0943    0.0000 O   0  0  0  0  0  0  0  0  0  0  0  0
    4.6008    2.5554    0.0000 C   0  0  0  0  0  0  0  0  0  0  0  0
    3.1893    2.0478    0.0000 C   0  0  0  0  0  0  0  0  0  0  0  0
    2.9231    0.5716    0.0000 C   0  0  0  0  0  0  0  0  0  0  0  0
    1.7778    1.5402    0.0000 C   0  0  0  0  0  0  0  0  0  0  0  0
    1.5116    0.0640    0.0000 C   0  0  0  0  0  0  0  0  0  0  0  0
    0.3663    1.0326    0.0000 C   0  0  0  0  0  0  0  0  0  0  0  0
    0.6325    2.5088    0.0000 O   0  0  0  0  0  0  0  0  0  0  0  0
   -1.0452    0.5250    0.0000 C   0  0  0  0  0  0  0  0  0  0  0  0
   -1.3114   -0.9512    0.0000 C   0  0  0  0  0  0  0  0  0  0  0  0
   -2.5517   -0.1076    0.0000 C   0  0  0  0  0  0  0  0  0  0  0  0
  2  1  1  6
  2  3  1  0
  3  4  1  0
  4  5  1  0
  5  6  2  0
  5  7  1  0
  2  8  1  0
  8  9  1  6
  9 10  1  0
 11 10  1  6
 11 12  1  0
 12 13  1  1
 13 14  1  1
 13 15  1  0
 16 15  1  1
 16 17  1  0
 17 18  1  0
 18 19  1  1
 18 20  1  0
 20 21  1  0
 21 22  1  0
 22 23  1  6
 22 24  1  0
 24 25  1  6
 25 26  2  0
 25 27  1  0
 27 28  1  0
 28 29  1  6
 28  8  1  0
 28 11  1  0
 24 12  1  0
 22 16  1  0
M  END
>  <MS_ID>  (3508) 
MS3713

>  <SMILES>  (3508) 
C[C@H](CCC(=O)O)[C@H]1CC[C@H]2[C@@H]3[C@H](O)C[C@@H]4C[C@H](O)CC[C@]4(C)[C@H]3C(=O)C[C@]12C

>  <Structure_dimension>  (3508) 
2D

$$$$
MS3716
     RDKit          2D

 37 40  0  0  0  0  0  0  0  0999 V2000
   -2.8523   -4.0203    0.0000 C   0  0  0  0  0  0  0  0  0  0  0  0
   -2.0014   -2.7850    0.0000 C   0  0  0  0  0  0  0  0  0  0  0  0
   -2.6458   -1.4304    0.0000 C   0  0  0  0  0  0  0  0  0  0  0  0
   -4.1410   -1.3112    0.0000 C   0  0  0  0  0  0  0  0  0  0  0  0
   -4.7854    0.0433    0.0000 C   0  0  0  0  0  0  0  0  0  0  0  0
   -3.9345    1.2786    0.0000 O   0  0  0  0  0  0  0  0  0  0  0  0
   -6.2807    0.1626    0.0000 N   0  0  0  0  0  0  0  0  0  0  0  0
   -6.9250    1.5171    0.0000 C   0  0  0  0  0  0  0  0  0  0  0  0
   -8.4203    1.6363    0.0000 C   0  0  0  0  0  0  0  0  0  0  0  0
   -9.2712    0.4010    0.0000 O   0  0  0  0  0  0  0  0  0  0  0  0
   -9.0647    2.9909    0.0000 O   0  0  0  0  0  0  0  0  0  0  0  0
   -0.5062   -2.9042    0.0000 C   0  0  0  0  0  0  0  0  0  0  0  0
    0.2763   -4.1840    0.0000 C   0  0  0  0  0  0  0  0  0  0  0  0
    1.7352   -3.8353    0.0000 C   0  0  0  0  0  0  0  0  0  0  0  0
    1.8544   -2.3400    0.0000 C   0  0  0  0  0  0  0  0  0  0  0  0
    3.0454   -1.4281    0.0000 C   0  0  0  0  0  0  0  0  0  0  0  0
    4.4306   -2.0036    0.0000 C   0  0  0  0  0  0  0  0  0  0  0  0
    4.6249   -3.4909    0.0000 O   0  0  0  0  0  0  0  0  0  0  0  0
    5.6216   -1.0917    0.0000 C   0  0  0  0  0  0  0  0  0  0  0  0
    5.4273    0.3957    0.0000 C   0  0  0  0  0  0  0  0  0  0  0  0
    6.6183    1.3076    0.0000 C   0  0  0  0  0  0  0  0  0  0  0  0
    6.4240    2.7950    0.0000 C   0  0  0  0  0  0  0  0  0  0  0  0
    7.6150    3.7069    0.0000 O   0  0  0  0  0  0  0  0  0  0  0  0
    5.0388    3.3704    0.0000 C   0  0  0  0  0  0  0  0  0  0  0  0
    3.8478    2.4585    0.0000 C   0  0  0  0  0  0  0  0  0  0  0  0
    4.0421    0.9712    0.0000 C   0  0  0  0  0  0  0  0  0  0  0  0
    2.6569    1.5466    0.0000 C   0  0  0  0  0  0  0  0  0  0  0  0
    2.8511    0.0592    0.0000 C   0  0  0  0  0  0  0  0  0  0  0  0
    1.4659    0.6347    0.0000 C   0  0  0  0  0  0  0  0  0  0  0  0
    0.2749   -0.2772    0.0000 C   0  0  0  0  0  0  0  0  0  0  0  0
   -1.1103    0.2982    0.0000 O   0  0  0  0  0  0  0  0  0  0  0  0
   -1.3046    1.7856    0.0000 S   0  0  0  0  0  0  0  0  0  0  0  0
    0.1828    1.9798    0.0000 O   0  0  0  0  0  0  0  0  0  0  0  0
   -2.7919    1.5913    0.0000 O   0  0  0  0  0  0  0  0  0  0  0  0
   -1.4988    3.2730    0.0000 O   0  0  0  0  0  0  0  0  0  0  0  0
    0.4692   -1.7646    0.0000 C   0  0  0  0  0  0  0  0  0  0  0  0
   -0.9686   -1.3371    0.0000 C   0  0  0  0  0  0  0  0  0  0  0  0
  2  1  1  6
  2  3  1  0
  3  4  1  0
  4  5  1  0
  5  6  2  0
  5  7  1  0
  7  8  1  0
  8  9  1  0
  9 10  2  0
  9 11  1  0
  2 12  1  0
 12 13  1  6
 13 14  1  0
 15 14  1  6
 15 16  1  0
 16 17  1  1
 17 18  1  1
 17 19  1  0
 20 19  1  1
 20 21  1  0
 21 22  1  0
 22 23  1  1
 22 24  1  0
 24 25  1  0
 25 26  1  0
 26 27  1  6
 26 28  1  0
 28 29  1  6
 29 30  1  0
 30 31  1  1
 31 32  1  0
 32 33  2  0
 32 34  2  0
 32 35  1  0
 30 36  1  0
 36 37  1  6
 36 12  1  0
 36 15  1  0
 28 16  1  0
 26 20  1  0
M  END
>  <MS_ID>  (3509) 
MS3716

>  <SMILES>  (3509) 
C[C@H](CCC(=O)NCC(=O)O)[C@H]1CC[C@H]2[C@@H]3[C@H](O)C[C@@H]4C[C@H](O)CC[C@]4(C)[C@H]3C[C@H](OS(=O)(=O)O)[C@]12C

>  <Structure_dimension>  (3509) 
2D

$$$$
MS3718
     RDKit          2D

 34 37  0  0  0  0  0  0  0  0999 V2000
   -1.9628   -4.3460    0.0000 C   0  0  0  0  0  0  0  0  0  0  0  0
   -1.2213   -3.0421    0.0000 C   0  0  0  0  0  0  0  0  0  0  0  0
   -1.9798   -1.7480    0.0000 C   0  0  0  0  0  0  0  0  0  0  0  0
   -3.4798   -1.7579    0.0000 C   0  0  0  0  0  0  0  0  0  0  0  0
   -4.2383   -0.4638    0.0000 C   0  0  0  0  0  0  0  0  0  0  0  0
   -3.4968    0.8402    0.0000 O   0  0  0  0  0  0  0  0  0  0  0  0
   -5.7383   -0.4736    0.0000 N   0  0  0  0  0  0  0  0  0  0  0  0
   -6.4968    0.8205    0.0000 C   0  0  0  0  0  0  0  0  0  0  0  0
   -7.9967    0.8106    0.0000 C   0  0  0  0  0  0  0  0  0  0  0  0
   -8.7552    2.1047    0.0000 S   0  0  0  0  0  0  0  0  0  0  0  0
  -10.0493    1.3462    0.0000 O   0  0  0  0  0  0  0  0  0  0  0  0
   -7.4611    2.8632    0.0000 O   0  0  0  0  0  0  0  0  0  0  0  0
   -9.5137    3.3988    0.0000 O   0  0  0  0  0  0  0  0  0  0  0  0
    0.2786   -3.0323    0.0000 C   0  0  0  0  0  0  0  0  0  0  0  0
    1.1683   -4.2400    0.0000 C   0  0  0  0  0  0  0  0  0  0  0  0
    2.5918   -3.7671    0.0000 C   0  0  0  0  0  0  0  0  0  0  0  0
    2.5819   -2.2672    0.0000 C   0  0  0  0  0  0  0  0  0  0  0  0
    3.6901   -1.2562    0.0000 C   0  0  0  0  0  0  0  0  0  0  0  0
    5.1196   -1.7103    0.0000 C   0  0  0  0  0  0  0  0  0  0  0  0
    6.2278   -0.6993    0.0000 C   0  0  0  0  0  0  0  0  0  0  0  0
    5.9063    0.7658    0.0000 C   0  0  0  0  0  0  0  0  0  0  0  0
    7.0144    1.7768    0.0000 C   0  0  0  0  0  0  0  0  0  0  0  0
    6.6929    3.2419    0.0000 C   0  0  0  0  0  0  0  0  0  0  0  0
    7.8010    4.2529    0.0000 O   0  0  0  0  0  0  0  0  0  0  0  0
    5.2633    3.6961    0.0000 C   0  0  0  0  0  0  0  0  0  0  0  0
    4.1552    2.6851    0.0000 C   0  0  0  0  0  0  0  0  0  0  0  0
    4.4767    1.2200    0.0000 C   0  0  0  0  0  0  0  0  0  0  0  0
    3.0471    1.6741    0.0000 C   0  0  0  0  0  0  0  0  0  0  0  0
    3.3686    0.2090    0.0000 C   0  0  0  0  0  0  0  0  0  0  0  0
    1.9390    0.6631    0.0000 C   0  0  0  0  0  0  0  0  0  0  0  0
    0.8309   -0.3479    0.0000 C   0  0  0  0  0  0  0  0  0  0  0  0
   -0.5987    0.1063    0.0000 O   0  0  0  0  0  0  0  0  0  0  0  0
    1.1523   -1.8130    0.0000 C   0  0  0  0  0  0  0  0  0  0  0  0
   -0.3169   -1.5108    0.0000 C   0  0  0  0  0  0  0  0  0  0  0  0
  2  1  1  6
  2  3  1  0
  3  4  1  0
  4  5  1  0
  5  6  2  0
  5  7  1  0
  7  8  1  0
  8  9  1  0
  9 10  1  0
 10 11  2  0
 10 12  2  0
 10 13  1  0
  2 14  1  0
 14 15  1  6
 15 16  1  0
 17 16  1  6
 17 18  1  0
 18 19  1  1
 19 20  1  0
 21 20  1  1
 21 22  1  0
 22 23  1  0
 23 24  1  1
 23 25  1  0
 25 26  1  0
 26 27  1  0
 27 28  1  6
 27 29  1  0
 29 30  1  6
 30 31  1  0
 31 32  1  6
 31 33  1  0
 33 34  1  6
 33 14  1  0
 33 17  1  0
 29 18  1  0
 27 21  1  0
M  END
>  <MS_ID>  (3510) 
MS3718

>  <SMILES>  (3510) 
C[C@H](CCC(=O)NCCS(=O)(=O)O)[C@H]1CC[C@H]2[C@@H]3CC[C@@H]4C[C@H](O)CC[C@]4(C)[C@H]3C[C@@H](O)[C@]12C

>  <Structure_dimension>  (3510) 
2D

$$$$
MS3719
     RDKit          2D

 36 39  0  0  0  0  0  0  0  0999 V2000
   -2.1935   -4.2964    0.0000 C   0  0  0  0  0  0  0  0  0  0  0  0
   -1.4931   -2.9700    0.0000 C   0  0  0  0  0  0  0  0  0  0  0  0
   -2.2917   -1.7002    0.0000 C   0  0  0  0  0  0  0  0  0  0  0  0
   -3.7906   -1.7569    0.0000 C   0  0  0  0  0  0  0  0  0  0  0  0
   -4.5892   -0.4871    0.0000 C   0  0  0  0  0  0  0  0  0  0  0  0
   -3.8888    0.8393    0.0000 O   0  0  0  0  0  0  0  0  0  0  0  0
   -6.0881   -0.5438    0.0000 N   0  0  0  0  0  0  0  0  0  0  0  0
   -6.8867    0.7259    0.0000 C   0  0  0  0  0  0  0  0  0  0  0  0
   -8.3856    0.6692    0.0000 C   0  0  0  0  0  0  0  0  0  0  0  0
   -9.1841    1.9390    0.0000 S   0  0  0  0  0  0  0  0  0  0  0  0
  -10.4539    1.1404    0.0000 O   0  0  0  0  0  0  0  0  0  0  0  0
   -7.9144    2.7375    0.0000 O   0  0  0  0  0  0  0  0  0  0  0  0
   -9.9827    3.2087    0.0000 O   0  0  0  0  0  0  0  0  0  0  0  0
    0.0058   -2.9133    0.0000 C   0  0  0  0  0  0  0  0  0  0  0  0
    0.9327   -4.0926    0.0000 C   0  0  0  0  0  0  0  0  0  0  0  0
    2.3408   -3.5755    0.0000 C   0  0  0  0  0  0  0  0  0  0  0  0
    2.2841   -2.0766    0.0000 C   0  0  0  0  0  0  0  0  0  0  0  0
    3.3601   -1.0314    0.0000 C   0  0  0  0  0  0  0  0  0  0  0  0
    4.8032   -1.4407    0.0000 C   0  0  0  0  0  0  0  0  0  0  0  0
    5.1703   -2.8951    0.0000 O   0  0  0  0  0  0  0  0  0  0  0  0
    5.8791   -0.3956    0.0000 C   0  0  0  0  0  0  0  0  0  0  0  0
    7.3222   -0.8049    0.0000 O   0  0  0  0  0  0  0  0  0  0  0  0
    5.5120    1.0588    0.0000 C   0  0  0  0  0  0  0  0  0  0  0  0
    6.5880    2.1039    0.0000 C   0  0  0  0  0  0  0  0  0  0  0  0
    6.2209    3.5583    0.0000 C   0  0  0  0  0  0  0  0  0  0  0  0
    7.2969    4.6034    0.0000 O   0  0  0  0  0  0  0  0  0  0  0  0
    4.7778    3.9676    0.0000 C   0  0  0  0  0  0  0  0  0  0  0  0
    3.7018    2.9224    0.0000 C   0  0  0  0  0  0  0  0  0  0  0  0
    4.0690    1.4681    0.0000 C   0  0  0  0  0  0  0  0  0  0  0  0
    2.6259    1.8773    0.0000 C   0  0  0  0  0  0  0  0  0  0  0  0
    2.9930    0.4229    0.0000 C   0  0  0  0  0  0  0  0  0  0  0  0
    1.5499    0.8322    0.0000 C   0  0  0  0  0  0  0  0  0  0  0  0
    0.4739   -0.2129    0.0000 C   0  0  0  0  0  0  0  0  0  0  0  0
   -0.9692    0.1964    0.0000 O   0  0  0  0  0  0  0  0  0  0  0  0
    0.8410   -1.6673    0.0000 C   0  0  0  0  0  0  0  0  0  0  0  0
   -0.6370   -1.4111    0.0000 C   0  0  0  0  0  0  0  0  0  0  0  0
  2  1  1  6
  2  3  1  0
  3  4  1  0
  4  5  1  0
  5  6  2  0
  5  7  1  0
  7  8  1  0
  8  9  1  0
  9 10  1  0
 10 11  2  0
 10 12  2  0
 10 13  1  0
  2 14  1  0
 14 15  1  6
 15 16  1  0
 17 16  1  6
 17 18  1  0
 18 19  1  1
 19 20  1  1
 19 21  1  0
 21 22  1  6
 21 23  1  0
 23 24  1  1
 24 25  1  0
 25 26  1  1
 25 27  1  0
 27 28  1  0
 28 29  1  0
 29 30  1  6
 29 31  1  0
 31 32  1  6
 32 33  1  0
 33 34  1  1
 33 35  1  0
 35 36  1  6
 35 14  1  0
 35 17  1  0
 31 18  1  0
 29 23  1  0
M  END
>  <MS_ID>  (3511) 
MS3719

>  <SMILES>  (3511) 
C[C@H](CCC(=O)NCCS(=O)(=O)O)[C@H]1CC[C@H]2[C@@H]3[C@H](O)[C@@H](O)[C@@H]4C[C@H](O)CC[C@]4(C)[C@H]3C[C@H](O)[C@]12C

>  <Structure_dimension>  (3511) 
2D

$$$$
MS3721
     RDKit          2D

 28 31  0  0  0  0  0  0  0  0999 V2000
   -5.2219   -2.0394    0.0000 C   0  0  0  0  0  0  0  0  0  0  0  0
   -4.0001   -1.1691    0.0000 C   0  0  0  0  0  0  0  0  0  0  0  0
   -4.1430    0.3240    0.0000 C   0  0  0  0  0  0  0  0  0  0  0  0
   -5.5075    0.9469    0.0000 C   0  0  0  0  0  0  0  0  0  0  0  0
   -5.6504    2.4401    0.0000 C   0  0  0  0  0  0  0  0  0  0  0  0
   -4.4287    3.3104    0.0000 O   0  0  0  0  0  0  0  0  0  0  0  0
   -7.0149    3.0630    0.0000 O   0  0  0  0  0  0  0  0  0  0  0  0
   -2.6356   -1.7920    0.0000 C   0  0  0  0  0  0  0  0  0  0  0  0
   -2.3374   -3.2621    0.0000 C   0  0  0  0  0  0  0  0  0  0  0  0
   -0.8472   -3.4328    0.0000 C   0  0  0  0  0  0  0  0  0  0  0  0
   -0.2243   -2.0683    0.0000 C   0  0  0  0  0  0  0  0  0  0  0  0
    1.2065   -1.6181    0.0000 C   0  0  0  0  0  0  0  0  0  0  0  0
    2.3118   -2.6322    0.0000 C   0  0  0  0  0  0  0  0  0  0  0  0
    3.7427   -2.1820    0.0000 C   0  0  0  0  0  0  0  0  0  0  0  0
    4.0683   -0.7178    0.0000 C   0  0  0  0  0  0  0  0  0  0  0  0
    5.4991   -0.2676    0.0000 C   0  0  0  0  0  0  0  0  0  0  0  0
    5.8247    1.1967    0.0000 C   0  0  0  0  0  0  0  0  0  0  0  0
    7.2555    1.6468    0.0000 O   0  0  0  0  0  0  0  0  0  0  0  0
    4.7194    2.2107    0.0000 C   0  0  0  0  0  0  0  0  0  0  0  0
    3.2885    1.7606    0.0000 C   0  0  0  0  0  0  0  0  0  0  0  0
    2.9630    0.2963    0.0000 C   0  0  0  0  0  0  0  0  0  0  0  0
    1.8577    1.3104    0.0000 C   0  0  0  0  0  0  0  0  0  0  0  0
    2.1833    2.7746    0.0000 O   0  0  0  0  0  0  0  0  0  0  0  0
    1.5321   -0.1539    0.0000 C   0  0  0  0  0  0  0  0  0  0  0  0
    0.4268    0.8602    0.0000 C   0  0  0  0  0  0  0  0  0  0  0  0
   -1.0040    0.4100    0.0000 C   0  0  0  0  0  0  0  0  0  0  0  0
   -1.3296   -1.0542    0.0000 C   0  0  0  0  0  0  0  0  0  0  0  0
   -2.5348   -0.1612    0.0000 C   0  0  0  0  0  0  0  0  0  0  0  0
  2  1  1  6
  2  3  1  0
  3  4  1  0
  4  5  1  0
  5  6  2  0
  5  7  1  0
  2  8  1  0
  8  9  1  6
  9 10  1  0
 11 10  1  6
 11 12  1  0
 12 13  1  1
 13 14  1  0
 15 14  1  1
 15 16  1  0
 16 17  1  0
 17 18  1  1
 17 19  1  0
 19 20  1  0
 20 21  1  0
 21 22  1  6
 22 23  1  0
 21 24  1  0
 24 25  1  6
 25 26  1  0
 26 27  1  0
 27 28  1  6
 27  8  1  0
 27 11  1  0
 24 12  1  0
 21 15  1  0
M  END
>  <MS_ID>  (3512) 
MS3721

>  <SMILES>  (3512) 
C[C@H](CCC(=O)O)[C@H]1CC[C@H]2[C@@H]3CC[C@@H]4C[C@H](O)CC[C@]4(CO)[C@H]3CC[C@]12C

>  <Structure_dimension>  (3512) 
2D

$$$$
MS3722
     RDKit          2D

 39 42  0  0  0  0  0  0  0  0999 V2000
   -0.1970   -4.7350    0.0000 C   0  0  0  0  0  0  0  0  0  0  0  0
    0.3598   -3.3422    0.0000 C   0  0  0  0  0  0  0  0  0  0  0  0
   -0.5680   -2.1635    0.0000 C   0  0  0  0  0  0  0  0  0  0  0  0
   -2.0526   -2.3777    0.0000 C   0  0  0  0  0  0  0  0  0  0  0  0
   -2.9804   -1.1990    0.0000 C   0  0  0  0  0  0  0  0  0  0  0  0
   -2.4235    0.1938    0.0000 O   0  0  0  0  0  0  0  0  0  0  0  0
   -4.4650   -1.4132    0.0000 N   0  0  0  0  0  0  0  0  0  0  0  0
   -5.3928   -0.2346    0.0000 C   0  0  0  0  0  0  0  0  0  0  0  0
   -6.8774   -0.4487    0.0000 C   0  0  0  0  0  0  0  0  0  0  0  0
   -7.8052    0.7299    0.0000 C   0  0  0  0  0  0  0  0  0  0  0  0
   -9.2899    0.5158    0.0000 C   0  0  0  0  0  0  0  0  0  0  0  0
  -10.2176    1.6944    0.0000 N   0  0  0  0  0  0  0  0  0  0  0  0
  -11.7023    1.4802    0.0000 C   0  0  0  0  0  0  0  0  0  0  0  0
  -12.6301    2.6589    0.0000 N   0  0  0  0  0  0  0  0  0  0  0  0
  -12.2591    0.0874    0.0000 N   0  0  0  0  0  0  0  0  0  0  0  0
   -4.8360    1.1583    0.0000 C   0  0  0  0  0  0  0  0  0  0  0  0
   -3.3513    1.3724    0.0000 O   0  0  0  0  0  0  0  0  0  0  0  0
   -5.7637    2.3369    0.0000 O   0  0  0  0  0  0  0  0  0  0  0  0
    1.8445   -3.1280    0.0000 C   0  0  0  0  0  0  0  0  0  0  0  0
    2.8904   -4.2032    0.0000 C   0  0  0  0  0  0  0  0  0  0  0  0
    4.2362   -3.5408    0.0000 C   0  0  0  0  0  0  0  0  0  0  0  0
    4.0220   -2.0561    0.0000 C   0  0  0  0  0  0  0  0  0  0  0  0
    4.9820   -0.9036    0.0000 C   0  0  0  0  0  0  0  0  0  0  0  0
    6.4601   -1.1587    0.0000 C   0  0  0  0  0  0  0  0  0  0  0  0
    6.9783   -2.5663    0.0000 O   0  0  0  0  0  0  0  0  0  0  0  0
    7.4201   -0.0061    0.0000 C   0  0  0  0  0  0  0  0  0  0  0  0
    6.9020    1.4016    0.0000 C   0  0  0  0  0  0  0  0  0  0  0  0
    7.8620    2.5541    0.0000 C   0  0  0  0  0  0  0  0  0  0  0  0
    7.3438    3.9618    0.0000 C   0  0  0  0  0  0  0  0  0  0  0  0
    8.3038    5.1144    0.0000 O   0  0  0  0  0  0  0  0  0  0  0  0
    5.8657    4.2169    0.0000 C   0  0  0  0  0  0  0  0  0  0  0  0
    4.9057    3.0643    0.0000 C   0  0  0  0  0  0  0  0  0  0  0  0
    5.4238    1.6567    0.0000 C   0  0  0  0  0  0  0  0  0  0  0  0
    3.9457    1.9118    0.0000 C   0  0  0  0  0  0  0  0  0  0  0  0
    4.4638    0.5041    0.0000 C   0  0  0  0  0  0  0  0  0  0  0  0
    2.9857    0.7592    0.0000 C   0  0  0  0  0  0  0  0  0  0  0  0
    2.0257   -0.3934    0.0000 C   0  0  0  0  0  0  0  0  0  0  0  0
    2.5438   -1.8010    0.0000 C   0  0  0  0  0  0  0  0  0  0  0  0
    1.0471   -1.7018    0.0000 C   0  0  0  0  0  0  0  0  0  0  0  0
  2  1  1  6
  2  3  1  0
  3  4  1  0
  4  5  1  0
  5  6  2  0
  5  7  1  0
  7  8  1  0
  8  9  1  1
  9 10  1  0
 10 11  1  0
 11 12  1  0
 12 13  2  0
 13 14  1  0
 13 15  1  0
  8 16  1  0
 16 17  2  0
 16 18  1  0
  2 19  1  0
 19 20  1  6
 20 21  1  0
 22 21  1  6
 22 23  1  0
 23 24  1  1
 24 25  1  1
 24 26  1  0
 27 26  1  1
 27 28  1  0
 28 29  1  0
 29 30  1  1
 29 31  1  0
 31 32  1  0
 32 33  1  0
 33 34  1  6
 33 35  1  0
 35 36  1  6
 36 37  1  0
 37 38  1  0
 38 39  1  6
 38 19  1  0
 38 22  1  0
 35 23  1  0
 33 27  1  0
M  END
>  <MS_ID>  (3513) 
MS3722

>  <SMILES>  (3513) 
C[C@H](CCC(=O)N[C@@H](CCCN=C(N)N)C(=O)O)[C@H]1CC[C@H]2[C@@H]3[C@H](O)C[C@@H]4C[C@H](O)CC[C@]4(C)[C@H]3CC[C@]12C

>  <Structure_dimension>  (3513) 
2D

$$$$
MS3723
     RDKit          2D

 29 32  0  0  0  0  0  0  0  0999 V2000
   -5.2182   -2.1453    0.0000 C   0  0  0  0  0  0  0  0  0  0  0  0
   -4.0752   -1.1739    0.0000 C   0  0  0  0  0  0  0  0  0  0  0  0
   -4.3449    0.3016    0.0000 C   0  0  0  0  0  0  0  0  0  0  0  0
   -5.7577    0.8058    0.0000 C   0  0  0  0  0  0  0  0  0  0  0  0
   -6.0274    2.2814    0.0000 C   0  0  0  0  0  0  0  0  0  0  0  0
   -4.8843    3.2527    0.0000 O   0  0  0  0  0  0  0  0  0  0  0  0
   -7.4401    2.7856    0.0000 O   0  0  0  0  0  0  0  0  0  0  0  0
   -2.6625   -1.6782    0.0000 C   0  0  0  0  0  0  0  0  0  0  0  0
   -2.2400   -3.1174    0.0000 C   0  0  0  0  0  0  0  0  0  0  0  0
   -0.7407   -3.1604    0.0000 C   0  0  0  0  0  0  0  0  0  0  0  0
   -0.2364   -1.7477    0.0000 C   0  0  0  0  0  0  0  0  0  0  0  0
    1.1508   -1.1771    0.0000 C   0  0  0  0  0  0  0  0  0  0  0  0
    2.3386   -2.0932    0.0000 C   0  0  0  0  0  0  0  0  0  0  0  0
    2.1391   -3.5798    0.0000 O   0  0  0  0  0  0  0  0  0  0  0  0
    3.7258   -1.5226    0.0000 C   0  0  0  0  0  0  0  0  0  0  0  0
    4.9136   -2.4386    0.0000 O   0  0  0  0  0  0  0  0  0  0  0  0
    3.9253   -0.0359    0.0000 C   0  0  0  0  0  0  0  0  0  0  0  0
    5.3125    0.5347    0.0000 C   0  0  0  0  0  0  0  0  0  0  0  0
    5.5119    2.0214    0.0000 C   0  0  0  0  0  0  0  0  0  0  0  0
    6.8992    2.5920    0.0000 O   0  0  0  0  0  0  0  0  0  0  0  0
    4.3242    2.9375    0.0000 C   0  0  0  0  0  0  0  0  0  0  0  0
    2.9369    2.3669    0.0000 C   0  0  0  0  0  0  0  0  0  0  0  0
    2.7375    0.8802    0.0000 C   0  0  0  0  0  0  0  0  0  0  0  0
    1.5497    1.7963    0.0000 C   0  0  0  0  0  0  0  0  0  0  0  0
    1.3502    0.3096    0.0000 C   0  0  0  0  0  0  0  0  0  0  0  0
    0.1625    1.2257    0.0000 C   0  0  0  0  0  0  0  0  0  0  0  0
   -1.2248    0.6551    0.0000 C   0  0  0  0  0  0  0  0  0  0  0  0
   -1.4242   -0.8316    0.0000 C   0  0  0  0  0  0  0  0  0  0  0  0
   -2.7012   -0.0447    0.0000 C   0  0  0  0  0  0  0  0  0  0  0  0
  2  1  1  6
  2  3  1  0
  3  4  1  0
  4  5  1  0
  5  6  2  0
  5  7  1  0
  2  8  1  0
  8  9  1  6
  9 10  1  0
 11 10  1  6
 11 12  1  0
 12 13  1  1
 13 14  1  6
 13 15  1  0
 15 16  1  6
 15 17  1  0
 17 18  1  6
 18 19  1  0
 19 20  1  1
 19 21  1  0
 21 22  1  0
 22 23  1  0
 23 24  1  6
 23 25  1  0
 25 26  1  6
 26 27  1  0
 27 28  1  0
 28 29  1  6
 28  8  1  0
 28 11  1  0
 25 12  1  0
 23 17  1  0
M  END
>  <MS_ID>  (3514) 
MS3723

>  <SMILES>  (3514) 
C[C@H](CCC(=O)O)[C@H]1CC[C@H]2[C@@H]3[C@@H](O)[C@@H](O)[C@H]4C[C@H](O)CC[C@]4(C)[C@H]3CC[C@]12C

>  <Structure_dimension>  (3514) 
2D

$$$$
MS3725
     RDKit          2D

 35 38  0  0  0  0  0  0  0  0999 V2000
   -2.0200   -4.3028    0.0000 C   0  0  0  0  0  0  0  0  0  0  0  0
   -1.3087   -2.9822    0.0000 C   0  0  0  0  0  0  0  0  0  0  0  0
   -2.0967   -1.7059    0.0000 C   0  0  0  0  0  0  0  0  0  0  0  0
   -3.5960   -1.7502    0.0000 C   0  0  0  0  0  0  0  0  0  0  0  0
   -4.3840   -0.4738    0.0000 C   0  0  0  0  0  0  0  0  0  0  0  0
   -3.6727    0.8468    0.0000 O   0  0  0  0  0  0  0  0  0  0  0  0
   -5.8834   -0.5181    0.0000 N   0  0  0  0  0  0  0  0  0  0  0  0
   -6.6714    0.7582    0.0000 C   0  0  0  0  0  0  0  0  0  0  0  0
   -8.1707    0.7140    0.0000 C   0  0  0  0  0  0  0  0  0  0  0  0
   -8.9588    1.9903    0.0000 S   0  0  0  0  0  0  0  0  0  0  0  0
  -10.2351    1.2023    0.0000 O   0  0  0  0  0  0  0  0  0  0  0  0
   -7.6824    2.7783    0.0000 O   0  0  0  0  0  0  0  0  0  0  0  0
   -9.7468    3.2667    0.0000 O   0  0  0  0  0  0  0  0  0  0  0  0
    0.1907   -2.9379    0.0000 C   0  0  0  0  0  0  0  0  0  0  0  0
    1.1078   -4.1249    0.0000 C   0  0  0  0  0  0  0  0  0  0  0  0
    2.5201   -3.6195    0.0000 C   0  0  0  0  0  0  0  0  0  0  0  0
    2.4758   -2.1201    0.0000 C   0  0  0  0  0  0  0  0  0  0  0  0
    3.5604   -1.0840    0.0000 C   0  0  0  0  0  0  0  0  0  0  0  0
    5.0001   -1.5052    0.0000 C   0  0  0  0  0  0  0  0  0  0  0  0
    5.3551   -2.9626    0.0000 O   0  0  0  0  0  0  0  0  0  0  0  0
    6.0847   -0.4691    0.0000 C   0  0  0  0  0  0  0  0  0  0  0  0
    5.7296    0.9883    0.0000 C   0  0  0  0  0  0  0  0  0  0  0  0
    6.8142    2.0245    0.0000 C   0  0  0  0  0  0  0  0  0  0  0  0
    6.4592    3.4819    0.0000 C   0  0  0  0  0  0  0  0  0  0  0  0
    7.5438    4.5180    0.0000 O   0  0  0  0  0  0  0  0  0  0  0  0
    5.0196    3.9031    0.0000 C   0  0  0  0  0  0  0  0  0  0  0  0
    3.9350    2.8669    0.0000 C   0  0  0  0  0  0  0  0  0  0  0  0
    4.2900    1.4095    0.0000 C   0  0  0  0  0  0  0  0  0  0  0  0
    2.8503    1.8308    0.0000 C   0  0  0  0  0  0  0  0  0  0  0  0
    3.2054    0.3734    0.0000 C   0  0  0  0  0  0  0  0  0  0  0  0
    1.7657    0.7946    0.0000 C   0  0  0  0  0  0  0  0  0  0  0  0
    0.6811   -0.2416    0.0000 C   0  0  0  0  0  0  0  0  0  0  0  0
   -0.7585    0.1797    0.0000 O   0  0  0  0  0  0  0  0  0  0  0  0
    1.0362   -1.6989    0.0000 C   0  0  0  0  0  0  0  0  0  0  0  0
   -0.4396   -1.4305    0.0000 C   0  0  0  0  0  0  0  0  0  0  0  0
  2  1  1  6
  2  3  1  0
  3  4  1  0
  4  5  1  0
  5  6  2  0
  5  7  1  0
  7  8  1  0
  8  9  1  0
  9 10  1  0
 10 11  2  0
 10 12  2  0
 10 13  1  0
  2 14  1  0
 14 15  1  6
 15 16  1  0
 17 16  1  6
 17 18  1  0
 18 19  1  1
 19 20  1  6
 19 21  1  0
 22 21  1  1
 22 23  1  0
 23 24  1  0
 24 25  1  1
 24 26  1  0
 26 27  1  0
 27 28  1  0
 28 29  1  6
 28 30  1  0
 30 31  1  6
 31 32  1  0
 32 33  1  1
 32 34  1  0
 34 35  1  6
 34 14  1  0
 34 17  1  0
 30 18  1  0
 28 22  1  0
M  END
>  <MS_ID>  (3515) 
MS3725

>  <SMILES>  (3515) 
C[C@H](CCC(=O)NCCS(=O)(=O)O)[C@H]1CC[C@H]2[C@@H]3[C@@H](O)C[C@@H]4C[C@H](O)CC[C@]4(C)[C@H]3C[C@H](O)[C@]12C

>  <Structure_dimension>  (3515) 
2D

$$$$
MS3726
     RDKit          2D

 39 43  0  0  0  0  0  0  0  0999 V2000
   -0.7711   -4.7661    0.0000 C   0  0  0  0  0  0  0  0  0  0  0  0
   -0.2075   -3.3760    0.0000 C   0  0  0  0  0  0  0  0  0  0  0  0
   -1.1295   -2.1928    0.0000 C   0  0  0  0  0  0  0  0  0  0  0  0
   -2.6151   -2.3997    0.0000 C   0  0  0  0  0  0  0  0  0  0  0  0
   -3.5371   -1.2165    0.0000 C   0  0  0  0  0  0  0  0  0  0  0  0
   -2.9735    0.1735    0.0000 O   0  0  0  0  0  0  0  0  0  0  0  0
   -5.0228   -1.4234    0.0000 N   0  0  0  0  0  0  0  0  0  0  0  0
   -5.9448   -0.2402    0.0000 C   0  0  0  0  0  0  0  0  0  0  0  0
   -7.4305   -0.4471    0.0000 C   0  0  0  0  0  0  0  0  0  0  0  0
   -8.3525    0.7361    0.0000 C   0  0  0  0  0  0  0  0  0  0  0  0
   -9.8516    0.6856    0.0000 C   0  0  0  0  0  0  0  0  0  0  0  0
  -10.3629    2.0958    0.0000 N   0  0  0  0  0  0  0  0  0  0  0  0
   -9.1797    3.0178    0.0000 C   0  0  0  0  0  0  0  0  0  0  0  0
   -7.9372    2.1774    0.0000 N   0  0  0  0  0  0  0  0  0  0  0  0
   -5.3811    1.1498    0.0000 C   0  0  0  0  0  0  0  0  0  0  0  0
   -3.8955    1.3567    0.0000 O   0  0  0  0  0  0  0  0  0  0  0  0
   -6.3031    2.3330    0.0000 O   0  0  0  0  0  0  0  0  0  0  0  0
    1.2782   -3.1691    0.0000 C   0  0  0  0  0  0  0  0  0  0  0  0
    2.3188   -4.2495    0.0000 C   0  0  0  0  0  0  0  0  0  0  0  0
    3.6678   -3.5936    0.0000 C   0  0  0  0  0  0  0  0  0  0  0  0
    3.4609   -2.1079    0.0000 C   0  0  0  0  0  0  0  0  0  0  0  0
    4.4266   -0.9601    0.0000 C   0  0  0  0  0  0  0  0  0  0  0  0
    5.9035   -1.2224    0.0000 C   0  0  0  0  0  0  0  0  0  0  0  0
    6.4147   -2.6326    0.0000 O   0  0  0  0  0  0  0  0  0  0  0  0
    6.8691   -0.0746    0.0000 C   0  0  0  0  0  0  0  0  0  0  0  0
    6.3578    1.3356    0.0000 C   0  0  0  0  0  0  0  0  0  0  0  0
    7.3235    2.4835    0.0000 C   0  0  0  0  0  0  0  0  0  0  0  0
    6.8122    3.8936    0.0000 C   0  0  0  0  0  0  0  0  0  0  0  0
    7.7779    5.0415    0.0000 O   0  0  0  0  0  0  0  0  0  0  0  0
    5.3353    4.1560    0.0000 C   0  0  0  0  0  0  0  0  0  0  0  0
    4.3697    3.0081    0.0000 C   0  0  0  0  0  0  0  0  0  0  0  0
    4.8810    1.5980    0.0000 C   0  0  0  0  0  0  0  0  0  0  0  0
    3.4041    1.8603    0.0000 C   0  0  0  0  0  0  0  0  0  0  0  0
    3.9153    0.4501    0.0000 C   0  0  0  0  0  0  0  0  0  0  0  0
    2.4384    0.7124    0.0000 C   0  0  0  0  0  0  0  0  0  0  0  0
    1.4728   -0.4354    0.0000 C   0  0  0  0  0  0  0  0  0  0  0  0
   -0.0041   -0.1731    0.0000 O   0  0  0  0  0  0  0  0  0  0  0  0
    1.9841   -1.8456    0.0000 C   0  0  0  0  0  0  0  0  0  0  0  0
    0.4879   -1.7391    0.0000 C   0  0  0  0  0  0  0  0  0  0  0  0
  2  1  1  6
  2  3  1  0
  3  4  1  0
  4  5  1  0
  5  6  2  0
  5  7  1  0
  7  8  1  0
  8  9  1  1
  9 10  1  0
 10 11  2  0
 11 12  1  0
 12 13  2  0
 13 14  1  0
  8 15  1  0
 15 16  2  0
 15 17  1  0
  2 18  1  0
 18 19  1  6
 19 20  1  0
 21 20  1  6
 21 22  1  0
 22 23  1  1
 23 24  1  1
 23 25  1  0
 26 25  1  1
 26 27  1  0
 27 28  1  0
 28 29  1  1
 28 30  1  0
 30 31  1  0
 31 32  1  0
 32 33  1  6
 32 34  1  0
 34 35  1  6
 35 36  1  0
 36 37  1  1
 36 38  1  0
 38 39  1  6
 14 10  1  0
 38 18  1  0
 38 21  1  0
 34 22  1  0
 32 26  1  0
M  END
>  <MS_ID>  (3516) 
MS3726

>  <SMILES>  (3516) 
C[C@H](CCC(=O)N[C@@H](Cc1cnc[nH]1)C(=O)O)[C@H]1CC[C@H]2[C@@H]3[C@H](O)C[C@@H]4C[C@H](O)CC[C@]4(C)[C@H]3C[C@H](O)[C@]12C

>  <Structure_dimension>  (3516) 
2D

$$$$
MS3731
     RDKit          2D

 29 32  0  0  0  0  0  0  0  0999 V2000
   -5.0303   -2.1373    0.0000 C   0  0  0  0  0  0  0  0  0  0  0  0
   -3.8594   -1.1998    0.0000 C   0  0  0  0  0  0  0  0  0  0  0  0
   -4.0858    0.2830    0.0000 C   0  0  0  0  0  0  0  0  0  0  0  0
   -5.4831    0.8284    0.0000 C   0  0  0  0  0  0  0  0  0  0  0  0
   -5.7095    2.3112    0.0000 C   0  0  0  0  0  0  0  0  0  0  0  0
   -4.5386    3.2487    0.0000 O   0  0  0  0  0  0  0  0  0  0  0  0
   -7.1069    2.8565    0.0000 O   0  0  0  0  0  0  0  0  0  0  0  0
   -2.4620   -1.7451    0.0000 C   0  0  0  0  0  0  0  0  0  0  0  0
   -2.0818   -3.1961    0.0000 C   0  0  0  0  0  0  0  0  0  0  0  0
   -0.5844   -3.2830    0.0000 C   0  0  0  0  0  0  0  0  0  0  0  0
   -0.0390   -1.8856    0.0000 C   0  0  0  0  0  0  0  0  0  0  0  0
    1.3643   -1.3559    0.0000 C   0  0  0  0  0  0  0  0  0  0  0  0
    2.5248   -2.3063    0.0000 C   0  0  0  0  0  0  0  0  0  0  0  0
    2.2819   -3.7865    0.0000 O   0  0  0  0  0  0  0  0  0  0  0  0
    3.9281   -1.7765    0.0000 C   0  0  0  0  0  0  0  0  0  0  0  0
    4.1710   -0.2963    0.0000 C   0  0  0  0  0  0  0  0  0  0  0  0
    5.5743    0.2334    0.0000 C   0  0  0  0  0  0  0  0  0  0  0  0
    5.8172    1.7136    0.0000 C   0  0  0  0  0  0  0  0  0  0  0  0
    7.2205    2.2434    0.0000 O   0  0  0  0  0  0  0  0  0  0  0  0
    4.6568    2.6641    0.0000 C   0  0  0  0  0  0  0  0  0  0  0  0
    3.2534    2.1343    0.0000 C   0  0  0  0  0  0  0  0  0  0  0  0
    3.0105    0.6541    0.0000 C   0  0  0  0  0  0  0  0  0  0  0  0
    1.8501    1.6046    0.0000 C   0  0  0  0  0  0  0  0  0  0  0  0
    1.6072    0.1244    0.0000 C   0  0  0  0  0  0  0  0  0  0  0  0
    0.4467    1.0748    0.0000 C   0  0  0  0  0  0  0  0  0  0  0  0
   -0.9566    0.5450    0.0000 C   0  0  0  0  0  0  0  0  0  0  0  0
   -2.1170    1.4955    0.0000 O   0  0  0  0  0  0  0  0  0  0  0  0
   -1.1995   -0.9352    0.0000 C   0  0  0  0  0  0  0  0  0  0  0  0
   -2.4529   -0.1112    0.0000 C   0  0  0  0  0  0  0  0  0  0  0  0
  2  1  1  6
  2  3  1  0
  3  4  1  0
  4  5  1  0
  5  6  2  0
  5  7  1  0
  2  8  1  0
  8  9  1  6
  9 10  1  0
 11 10  1  6
 11 12  1  0
 12 13  1  1
 13 14  1  1
 13 15  1  0
 16 15  1  6
 16 17  1  0
 17 18  1  0
 18 19  1  1
 18 20  1  0
 20 21  1  0
 21 22  1  0
 22 23  1  6
 22 24  1  0
 24 25  1  6
 25 26  1  0
 26 27  2  0
 26 28  1  0
 28 29  1  6
 28  8  1  0
 28 11  1  0
 24 12  1  0
 22 16  1  0
M  END
>  <MS_ID>  (3517) 
MS3731

>  <SMILES>  (3517) 
C[C@H](CCC(=O)O)[C@H]1CC[C@H]2[C@@H]3[C@H](O)C[C@H]4C[C@H](O)CC[C@]4(C)[C@H]3CC(=O)[C@]12C

>  <Structure_dimension>  (3517) 
2D

$$$$
MS3732
     RDKit          2D

 30 33  0  0  0  0  0  0  0  0999 V2000
    5.1442    2.1369    0.0000 C   0  0  0  0  0  0  0  0  0  0  0  0
    3.9546    1.2232    0.0000 C   0  0  0  0  0  0  0  0  0  0  0  0
    4.1511   -0.2638    0.0000 C   0  0  0  0  0  0  0  0  0  0  0  0
    5.5372   -0.8372    0.0000 C   0  0  0  0  0  0  0  0  0  0  0  0
    5.7337   -2.3243    0.0000 C   0  0  0  0  0  0  0  0  0  0  0  0
    4.5441   -3.2380    0.0000 O   0  0  0  0  0  0  0  0  0  0  0  0
    7.1198   -2.8976    0.0000 O   0  0  0  0  0  0  0  0  0  0  0  0
    2.5685    1.7966    0.0000 C   0  0  0  0  0  0  0  0  0  0  0  0
    2.2176    3.2550    0.0000 C   0  0  0  0  0  0  0  0  0  0  0  0
    0.7222    3.3719    0.0000 C   0  0  0  0  0  0  0  0  0  0  0  0
    0.1488    1.9858    0.0000 C   0  0  0  0  0  0  0  0  0  0  0  0
   -1.2649    1.4845    0.0000 C   0  0  0  0  0  0  0  0  0  0  0  0
   -2.4060    2.4581    0.0000 C   0  0  0  0  0  0  0  0  0  0  0  0
   -2.1333    3.9331    0.0000 O   0  0  0  0  0  0  0  0  0  0  0  0
   -3.8197    1.9567    0.0000 C   0  0  0  0  0  0  0  0  0  0  0  0
   -4.0924    0.4817    0.0000 C   0  0  0  0  0  0  0  0  0  0  0  0
   -5.5061   -0.0197    0.0000 C   0  0  0  0  0  0  0  0  0  0  0  0
   -5.7787   -1.4947    0.0000 C   0  0  0  0  0  0  0  0  0  0  0  0
   -7.1924   -1.9961    0.0000 O   0  0  0  0  0  0  0  0  0  0  0  0
   -4.6376   -2.4684    0.0000 C   0  0  0  0  0  0  0  0  0  0  0  0
   -3.2239   -1.9670    0.0000 C   0  0  0  0  0  0  0  0  0  0  0  0
   -2.0828   -2.9406    0.0000 O   0  0  0  0  0  0  0  0  0  0  0  0
   -2.9513   -0.4919    0.0000 C   0  0  0  0  0  0  0  0  0  0  0  0
   -1.8102   -1.4656    0.0000 C   0  0  0  0  0  0  0  0  0  0  0  0
   -1.5376    0.0094    0.0000 C   0  0  0  0  0  0  0  0  0  0  0  0
   -0.3965   -0.9642    0.0000 C   0  0  0  0  0  0  0  0  0  0  0  0
    1.0172   -0.4628    0.0000 C   0  0  0  0  0  0  0  0  0  0  0  0
    2.1583   -1.4364    0.0000 O   0  0  0  0  0  0  0  0  0  0  0  0
    1.2899    1.0122    0.0000 C   0  0  0  0  0  0  0  0  0  0  0  0
    2.5265    0.1632    0.0000 C   0  0  0  0  0  0  0  0  0  0  0  0
  2  1  1  6
  2  3  1  0
  3  4  1  0
  4  5  1  0
  5  6  2  0
  5  7  1  0
  2  8  1  0
  8  9  1  6
  9 10  1  0
 11 10  1  6
 11 12  1  0
 12 13  1  1
 13 14  1  1
 13 15  1  0
 16 15  1  1
 16 17  1  0
 17 18  1  0
 18 19  1  6
 18 20  1  0
 20 21  1  0
 21 22  1  6
 21 23  1  0
 23 24  1  6
 23 25  1  0
 25 26  1  6
 26 27  1  0
 27 28  1  1
 27 29  1  0
 29 30  1  6
 29  8  1  0
 29 11  1  0
 25 12  1  0
 23 16  1  0
M  END
>  <MS_ID>  (3518) 
MS3732

>  <SMILES>  (3518) 
C[C@H](CCC(=O)O)[C@H]1CC[C@H]2[C@@H]3[C@H](O)C[C@@H]4C[C@@H](O)C[C@@H](O)[C@]4(C)[C@H]3C[C@H](O)[C@]12C

>  <Structure_dimension>  (3518) 
2D

$$$$
MS3734
     RDKit          2D

 38 41  0  0  0  0  0  0  0  0999 V2000
   -1.2469   -4.6154    0.0000 C   0  0  0  0  0  0  0  0  0  0  0  0
   -0.6421   -3.2427    0.0000 C   0  0  0  0  0  0  0  0  0  0  0  0
   -1.5285   -2.0326    0.0000 C   0  0  0  0  0  0  0  0  0  0  0  0
   -3.0197   -2.1952    0.0000 C   0  0  0  0  0  0  0  0  0  0  0  0
   -3.9060   -0.9851    0.0000 C   0  0  0  0  0  0  0  0  0  0  0  0
   -3.3012    0.3876    0.0000 O   0  0  0  0  0  0  0  0  0  0  0  0
   -5.3972   -1.1476    0.0000 N   0  0  0  0  0  0  0  0  0  0  0  0
   -6.2836    0.0625    0.0000 C   0  0  0  0  0  0  0  0  0  0  0  0
   -7.7747   -0.1001    0.0000 C   0  0  0  0  0  0  0  0  0  0  0  0
   -8.6611    1.1100    0.0000 C   0  0  0  0  0  0  0  0  0  0  0  0
  -10.1523    0.9475    0.0000 C   0  0  0  0  0  0  0  0  0  0  0  0
  -11.0386    2.1576    0.0000 C   0  0  0  0  0  0  0  0  0  0  0  0
  -12.5298    1.9950    0.0000 N   0  0  0  0  0  0  0  0  0  0  0  0
   -5.6788    1.4351    0.0000 C   0  0  0  0  0  0  0  0  0  0  0  0
   -4.1876    1.5977    0.0000 O   0  0  0  0  0  0  0  0  0  0  0  0
   -6.5651    2.6453    0.0000 O   0  0  0  0  0  0  0  0  0  0  0  0
    0.8490   -3.0802    0.0000 C   0  0  0  0  0  0  0  0  0  0  0  0
    1.8570   -4.1910    0.0000 C   0  0  0  0  0  0  0  0  0  0  0  0
    3.2250   -3.5756    0.0000 C   0  0  0  0  0  0  0  0  0  0  0  0
    3.0624   -2.0844    0.0000 C   0  0  0  0  0  0  0  0  0  0  0  0
    4.0618   -0.9658    0.0000 C   0  0  0  0  0  0  0  0  0  0  0  0
    5.5302   -1.2720    0.0000 C   0  0  0  0  0  0  0  0  0  0  0  0
    5.9993   -2.6968    0.0000 O   0  0  0  0  0  0  0  0  0  0  0  0
    6.5296   -0.1534    0.0000 C   0  0  0  0  0  0  0  0  0  0  0  0
    7.9980   -0.4596    0.0000 O   0  0  0  0  0  0  0  0  0  0  0  0
    6.0606    1.2714    0.0000 C   0  0  0  0  0  0  0  0  0  0  0  0
    7.0599    2.3900    0.0000 C   0  0  0  0  0  0  0  0  0  0  0  0
    6.5909    3.8147    0.0000 C   0  0  0  0  0  0  0  0  0  0  0  0
    7.5903    4.9333    0.0000 O   0  0  0  0  0  0  0  0  0  0  0  0
    5.1225    4.1209    0.0000 C   0  0  0  0  0  0  0  0  0  0  0  0
    4.1231    3.0023    0.0000 C   0  0  0  0  0  0  0  0  0  0  0  0
    4.5921    1.5776    0.0000 C   0  0  0  0  0  0  0  0  0  0  0  0
    3.1237    1.8837    0.0000 C   0  0  0  0  0  0  0  0  0  0  0  0
    3.5928    0.4590    0.0000 C   0  0  0  0  0  0  0  0  0  0  0  0
    2.1243    0.7651    0.0000 C   0  0  0  0  0  0  0  0  0  0  0  0
    1.1250   -0.3534    0.0000 C   0  0  0  0  0  0  0  0  0  0  0  0
    1.5940   -1.7782    0.0000 C   0  0  0  0  0  0  0  0  0  0  0  0
    0.1016   -1.6272    0.0000 C   0  0  0  0  0  0  0  0  0  0  0  0
  2  1  1  6
  2  3  1  0
  3  4  1  0
  4  5  1  0
  5  6  2  0
  5  7  1  0
  7  8  1  0
  8  9  1  1
  9 10  1  0
 10 11  1  0
 11 12  1  0
 12 13  1  0
  8 14  1  0
 14 15  2  0
 14 16  1  0
  2 17  1  0
 17 18  1  6
 18 19  1  0
 20 19  1  6
 20 21  1  0
 21 22  1  1
 22 23  1  1
 22 24  1  0
 24 25  1  1
 24 26  1  0
 26 27  1  1
 27 28  1  0
 28 29  1  1
 28 30  1  0
 30 31  1  0
 31 32  1  0
 32 33  1  6
 32 34  1  0
 34 35  1  6
 35 36  1  0
 36 37  1  0
 37 38  1  6
 37 17  1  0
 37 20  1  0
 34 21  1  0
 32 26  1  0
M  END
>  <MS_ID>  (3519) 
MS3734

>  <SMILES>  (3519) 
C[C@H](CCC(=O)N[C@@H](CCCCN)C(=O)O)[C@H]1CC[C@H]2[C@@H]3[C@H](O)[C@H](O)[C@@H]4C[C@H](O)CC[C@]4(C)[C@H]3CC[C@]12C

>  <Structure_dimension>  (3519) 
2D

$$$$
MS3740
     RDKit          2D

 34 37  0  0  0  0  0  0  0  0999 V2000
   -2.0431   -4.2971    0.0000 C   0  0  0  0  0  0  0  0  0  0  0  0
   -1.3315   -2.9767    0.0000 C   0  0  0  0  0  0  0  0  0  0  0  0
   -2.1193   -1.7002    0.0000 C   0  0  0  0  0  0  0  0  0  0  0  0
   -3.6187   -1.7442    0.0000 C   0  0  0  0  0  0  0  0  0  0  0  0
   -4.4064   -0.4677    0.0000 C   0  0  0  0  0  0  0  0  0  0  0  0
   -3.6948    0.8528    0.0000 O   0  0  0  0  0  0  0  0  0  0  0  0
   -5.9058   -0.5117    0.0000 N   0  0  0  0  0  0  0  0  0  0  0  0
   -6.6936    0.7648    0.0000 C   0  0  0  0  0  0  0  0  0  0  0  0
   -8.1929    0.7208    0.0000 C   0  0  0  0  0  0  0  0  0  0  0  0
   -8.9807    1.9973    0.0000 S   0  0  0  0  0  0  0  0  0  0  0  0
  -10.2572    1.2096    0.0000 O   0  0  0  0  0  0  0  0  0  0  0  0
   -7.7042    2.7851    0.0000 O   0  0  0  0  0  0  0  0  0  0  0  0
   -9.7684    3.2738    0.0000 O   0  0  0  0  0  0  0  0  0  0  0  0
    0.1678   -2.9327    0.0000 C   0  0  0  0  0  0  0  0  0  0  0  0
    1.0847   -4.1198    0.0000 C   0  0  0  0  0  0  0  0  0  0  0  0
    2.4971   -3.6147    0.0000 C   0  0  0  0  0  0  0  0  0  0  0  0
    2.4531   -2.1153    0.0000 C   0  0  0  0  0  0  0  0  0  0  0  0
    3.5379   -1.0794    0.0000 C   0  0  0  0  0  0  0  0  0  0  0  0
    4.9775   -1.5009    0.0000 C   0  0  0  0  0  0  0  0  0  0  0  0
    5.3322   -2.9583    0.0000 O   0  0  0  0  0  0  0  0  0  0  0  0
    6.0623   -0.4649    0.0000 C   0  0  0  0  0  0  0  0  0  0  0  0
    5.7075    0.9925    0.0000 C   0  0  0  0  0  0  0  0  0  0  0  0
    6.7923    2.0285    0.0000 C   0  0  0  0  0  0  0  0  0  0  0  0
    6.4376    3.4859    0.0000 C   0  0  0  0  0  0  0  0  0  0  0  0
    7.5224    4.5219    0.0000 O   0  0  0  0  0  0  0  0  0  0  0  0
    4.9980    3.9074    0.0000 C   0  0  0  0  0  0  0  0  0  0  0  0
    3.9132    2.8715    0.0000 C   0  0  0  0  0  0  0  0  0  0  0  0
    4.2680    1.4140    0.0000 C   0  0  0  0  0  0  0  0  0  0  0  0
    2.8284    1.8355    0.0000 C   0  0  0  0  0  0  0  0  0  0  0  0
    3.1831    0.3781    0.0000 C   0  0  0  0  0  0  0  0  0  0  0  0
    1.7436    0.7996    0.0000 C   0  0  0  0  0  0  0  0  0  0  0  0
    0.6588   -0.2364    0.0000 C   0  0  0  0  0  0  0  0  0  0  0  0
    1.0135   -1.6938    0.0000 C   0  0  0  0  0  0  0  0  0  0  0  0
   -0.4622   -1.4251    0.0000 C   0  0  0  0  0  0  0  0  0  0  0  0
  2  1  1  6
  2  3  1  0
  3  4  1  0
  4  5  1  0
  5  6  2  0
  5  7  1  0
  7  8  1  0
  8  9  1  0
  9 10  1  0
 10 11  2  0
 10 12  2  0
 10 13  1  0
  2 14  1  0
 14 15  1  6
 15 16  1  0
 17 16  1  6
 17 18  1  0
 18 19  1  1
 19 20  1  1
 19 21  1  0
 22 21  1  6
 22 23  1  0
 23 24  1  0
 24 25  1  6
 24 26  1  0
 26 27  1  0
 27 28  1  0
 28 29  1  6
 28 30  1  0
 30 31  1  6
 31 32  1  0
 32 33  1  0
 33 34  1  6
 33 14  1  0
 33 17  1  0
 30 18  1  0
 28 22  1  0
M  END
>  <MS_ID>  (3520) 
MS3740

>  <SMILES>  (3520) 
C[C@H](CCC(=O)NCCS(=O)(=O)O)[C@H]1CC[C@H]2[C@@H]3[C@H](O)C[C@H]4C[C@@H](O)CC[C@]4(C)[C@H]3CC[C@]12C

>  <Structure_dimension>  (3520) 
2D

$$$$
MS3743
     RDKit          2D

 34 37  0  0  0  0  0  0  0  0999 V2000
   -2.3925   -4.1345    0.0000 C   0  0  0  0  0  0  0  0  0  0  0  0
   -1.5741   -2.8775    0.0000 C   0  0  0  0  0  0  0  0  0  0  0  0
   -2.2534   -1.5401    0.0000 C   0  0  0  0  0  0  0  0  0  0  0  0
   -3.7513   -1.4598    0.0000 C   0  0  0  0  0  0  0  0  0  0  0  0
   -4.4306   -0.1225    0.0000 C   0  0  0  0  0  0  0  0  0  0  0  0
   -3.6121    1.1345    0.0000 O   0  0  0  0  0  0  0  0  0  0  0  0
   -5.9285   -0.0422    0.0000 N   0  0  0  0  0  0  0  0  0  0  0  0
   -6.6078    1.2952    0.0000 C   0  0  0  0  0  0  0  0  0  0  0  0
   -5.7894    2.5522    0.0000 C   0  0  0  0  0  0  0  0  0  0  0  0
   -6.4687    3.8895    0.0000 S   0  0  0  0  0  0  0  0  0  0  0  0
   -8.1057    1.3755    0.0000 C   0  0  0  0  0  0  0  0  0  0  0  0
   -8.9242    0.1185    0.0000 O   0  0  0  0  0  0  0  0  0  0  0  0
   -8.7851    2.7128    0.0000 O   0  0  0  0  0  0  0  0  0  0  0  0
   -0.0762   -2.9578    0.0000 C   0  0  0  0  0  0  0  0  0  0  0  0
    0.7392   -4.2168    0.0000 C   0  0  0  0  0  0  0  0  0  0  0  0
    2.1886   -3.8303    0.0000 C   0  0  0  0  0  0  0  0  0  0  0  0
    2.2689   -2.3325    0.0000 C   0  0  0  0  0  0  0  0  0  0  0  0
    3.4358   -1.3899    0.0000 C   0  0  0  0  0  0  0  0  0  0  0  0
    4.8355   -1.9291    0.0000 C   0  0  0  0  0  0  0  0  0  0  0  0
    6.0023   -0.9866    0.0000 C   0  0  0  0  0  0  0  0  0  0  0  0
    5.7695    0.4952    0.0000 C   0  0  0  0  0  0  0  0  0  0  0  0
    6.9364    1.4378    0.0000 C   0  0  0  0  0  0  0  0  0  0  0  0
    6.7035    2.9196    0.0000 C   0  0  0  0  0  0  0  0  0  0  0  0
    7.8704    3.8622    0.0000 O   0  0  0  0  0  0  0  0  0  0  0  0
    5.3038    3.4589    0.0000 C   0  0  0  0  0  0  0  0  0  0  0  0
    4.1369    2.5163    0.0000 C   0  0  0  0  0  0  0  0  0  0  0  0
    4.3698    1.0345    0.0000 C   0  0  0  0  0  0  0  0  0  0  0  0
    2.9701    1.5737    0.0000 C   0  0  0  0  0  0  0  0  0  0  0  0
    3.2029    0.0919    0.0000 C   0  0  0  0  0  0  0  0  0  0  0  0
    1.8032    0.6312    0.0000 C   0  0  0  0  0  0  0  0  0  0  0  0
    0.6363   -0.3114    0.0000 C   0  0  0  0  0  0  0  0  0  0  0  0
   -0.7634    0.2278    0.0000 O   0  0  0  0  0  0  0  0  0  0  0  0
    0.8692   -1.7932    0.0000 C   0  0  0  0  0  0  0  0  0  0  0  0
   -0.5792   -1.4032    0.0000 C   0  0  0  0  0  0  0  0  0  0  0  0
  2  1  1  6
  2  3  1  0
  3  4  1  0
  4  5  1  0
  5  6  2  0
  5  7  1  0
  7  8  1  0
  8  9  1  6
  9 10  1  0
  8 11  1  0
 11 12  2  0
 11 13  1  0
  2 14  1  0
 14 15  1  6
 15 16  1  0
 17 16  1  6
 17 18  1  0
 18 19  1  1
 19 20  1  0
 21 20  1  1
 21 22  1  0
 22 23  1  0
 23 24  1  1
 23 25  1  0
 25 26  1  0
 26 27  1  0
 27 28  1  6
 27 29  1  0
 29 30  1  6
 30 31  1  0
 31 32  1  1
 31 33  1  0
 33 34  1  6
 33 14  1  0
 33 17  1  0
 29 18  1  0
 27 21  1  0
M  END
>  <MS_ID>  (3521) 
MS3743

>  <SMILES>  (3521) 
C[C@H](CCC(=O)N[C@@H](CS)C(=O)O)[C@H]1CC[C@H]2[C@@H]3CC[C@@H]4C[C@H](O)CC[C@]4(C)[C@H]3C[C@H](O)[C@]12C

>  <Structure_dimension>  (3521) 
2D

$$$$
MS3744
     RDKit          2D

 34 37  0  0  0  0  0  0  0  0999 V2000
   -2.0431   -4.2971    0.0000 C   0  0  0  0  0  0  0  0  0  0  0  0
   -1.3315   -2.9767    0.0000 C   0  0  0  0  0  0  0  0  0  0  0  0
   -2.1193   -1.7002    0.0000 C   0  0  0  0  0  0  0  0  0  0  0  0
   -3.6187   -1.7442    0.0000 C   0  0  0  0  0  0  0  0  0  0  0  0
   -4.4064   -0.4677    0.0000 C   0  0  0  0  0  0  0  0  0  0  0  0
   -3.6948    0.8528    0.0000 O   0  0  0  0  0  0  0  0  0  0  0  0
   -5.9058   -0.5117    0.0000 N   0  0  0  0  0  0  0  0  0  0  0  0
   -6.6936    0.7648    0.0000 C   0  0  0  0  0  0  0  0  0  0  0  0
   -8.1929    0.7208    0.0000 C   0  0  0  0  0  0  0  0  0  0  0  0
   -8.9807    1.9973    0.0000 S   0  0  0  0  0  0  0  0  0  0  0  0
  -10.2572    1.2096    0.0000 O   0  0  0  0  0  0  0  0  0  0  0  0
   -7.7042    2.7851    0.0000 O   0  0  0  0  0  0  0  0  0  0  0  0
   -9.7684    3.2738    0.0000 O   0  0  0  0  0  0  0  0  0  0  0  0
    0.1678   -2.9327    0.0000 C   0  0  0  0  0  0  0  0  0  0  0  0
    1.0847   -4.1198    0.0000 C   0  0  0  0  0  0  0  0  0  0  0  0
    2.4971   -3.6147    0.0000 C   0  0  0  0  0  0  0  0  0  0  0  0
    2.4531   -2.1153    0.0000 C   0  0  0  0  0  0  0  0  0  0  0  0
    3.5379   -1.0794    0.0000 C   0  0  0  0  0  0  0  0  0  0  0  0
    4.9775   -1.5009    0.0000 C   0  0  0  0  0  0  0  0  0  0  0  0
    5.3322   -2.9583    0.0000 O   0  0  0  0  0  0  0  0  0  0  0  0
    6.0623   -0.4649    0.0000 C   0  0  0  0  0  0  0  0  0  0  0  0
    5.7075    0.9925    0.0000 C   0  0  0  0  0  0  0  0  0  0  0  0
    6.7923    2.0285    0.0000 C   0  0  0  0  0  0  0  0  0  0  0  0
    6.4376    3.4859    0.0000 C   0  0  0  0  0  0  0  0  0  0  0  0
    7.5224    4.5219    0.0000 O   0  0  0  0  0  0  0  0  0  0  0  0
    4.9980    3.9074    0.0000 C   0  0  0  0  0  0  0  0  0  0  0  0
    3.9132    2.8715    0.0000 C   0  0  0  0  0  0  0  0  0  0  0  0
    4.2680    1.4140    0.0000 C   0  0  0  0  0  0  0  0  0  0  0  0
    2.8284    1.8355    0.0000 C   0  0  0  0  0  0  0  0  0  0  0  0
    3.1831    0.3781    0.0000 C   0  0  0  0  0  0  0  0  0  0  0  0
    1.7436    0.7996    0.0000 C   0  0  0  0  0  0  0  0  0  0  0  0
    0.6588   -0.2364    0.0000 C   0  0  0  0  0  0  0  0  0  0  0  0
    1.0135   -1.6938    0.0000 C   0  0  0  0  0  0  0  0  0  0  0  0
   -0.4622   -1.4251    0.0000 C   0  0  0  0  0  0  0  0  0  0  0  0
  2  1  1  6
  2  3  1  0
  3  4  1  0
  4  5  1  0
  5  6  2  0
  5  7  1  0
  7  8  1  0
  8  9  1  0
  9 10  1  0
 10 11  2  0
 10 12  2  0
 10 13  1  0
  2 14  1  0
 14 15  1  6
 15 16  1  0
 17 16  1  6
 17 18  1  0
 18 19  1  1
 19 20  2  0
 19 21  1  0
 22 21  1  1
 22 23  1  0
 23 24  1  0
 24 25  1  1
 24 26  1  0
 26 27  1  0
 27 28  1  0
 28 29  1  6
 28 30  1  0
 30 31  1  6
 31 32  1  0
 32 33  1  0
 33 34  1  6
 33 14  1  0
 33 17  1  0
 30 18  1  0
 28 22  1  0
M  END
>  <MS_ID>  (3522) 
MS3744

>  <SMILES>  (3522) 
C[C@H](CCC(=O)NCCS(=O)(=O)O)[C@H]1CC[C@H]2[C@@H]3C(=O)C[C@@H]4C[C@H](O)CC[C@]4(C)[C@H]3CC[C@]12C

>  <Structure_dimension>  (3522) 
2D

$$$$
MS3746
     RDKit          2D

 32 35  0  0  0  0  0  0  0  0999 V2000
   -6.3148   -1.8053    0.0000 C   0  0  0  0  0  0  0  0  0  0  0  0
   -5.0840   -0.9480    0.0000 C   0  0  0  0  0  0  0  0  0  0  0  0
   -5.2110    0.5466    0.0000 C   0  0  0  0  0  0  0  0  0  0  0  0
   -6.5688    1.1840    0.0000 C   0  0  0  0  0  0  0  0  0  0  0  0
   -6.6958    2.6786    0.0000 C   0  0  0  0  0  0  0  0  0  0  0  0
   -5.4650    3.5359    0.0000 O   0  0  0  0  0  0  0  0  0  0  0  0
   -8.0537    3.3159    0.0000 O   0  0  0  0  0  0  0  0  0  0  0  0
   -3.7261   -1.5853    0.0000 C   0  0  0  0  0  0  0  0  0  0  0  0
   -3.4436   -3.0584    0.0000 C   0  0  0  0  0  0  0  0  0  0  0  0
   -1.9552   -3.2450    0.0000 C   0  0  0  0  0  0  0  0  0  0  0  0
   -1.3179   -1.8871    0.0000 C   0  0  0  0  0  0  0  0  0  0  0  0
    0.1177   -1.4521    0.0000 C   0  0  0  0  0  0  0  0  0  0  0  0
    1.2121   -2.4779    0.0000 C   0  0  0  0  0  0  0  0  0  0  0  0
    0.8711   -3.9386    0.0000 O   0  0  0  0  0  0  0  0  0  0  0  0
    2.6477   -2.0429    0.0000 C   0  0  0  0  0  0  0  0  0  0  0  0
    2.9888   -0.5822    0.0000 C   0  0  0  0  0  0  0  0  0  0  0  0
    4.4243   -0.1472    0.0000 C   0  0  0  0  0  0  0  0  0  0  0  0
    4.7654    1.3135    0.0000 C   0  0  0  0  0  0  0  0  0  0  0  0
    6.2009    1.7485    0.0000 O   0  0  0  0  0  0  0  0  0  0  0  0
    7.2954    0.7227    0.0000 S   0  0  0  0  0  0  0  0  0  0  0  0
    6.2697   -0.3717    0.0000 O   0  0  0  0  0  0  0  0  0  0  0  0
    8.3211    1.8172    0.0000 O   0  0  0  0  0  0  0  0  0  0  0  0
    8.3899   -0.3030    0.0000 O   0  0  0  0  0  0  0  0  0  0  0  0
    3.6709    2.3392    0.0000 C   0  0  0  0  0  0  0  0  0  0  0  0
    2.2354    1.9043    0.0000 C   0  0  0  0  0  0  0  0  0  0  0  0
    1.8943    0.4436    0.0000 C   0  0  0  0  0  0  0  0  0  0  0  0
    0.7998    1.4693    0.0000 C   0  0  0  0  0  0  0  0  0  0  0  0
    0.4587    0.0086    0.0000 C   0  0  0  0  0  0  0  0  0  0  0  0
   -0.6357    1.0343    0.0000 C   0  0  0  0  0  0  0  0  0  0  0  0
   -2.0713    0.5993    0.0000 C   0  0  0  0  0  0  0  0  0  0  0  0
   -2.4123   -0.8614    0.0000 C   0  0  0  0  0  0  0  0  0  0  0  0
   -3.6080    0.0444    0.0000 C   0  0  0  0  0  0  0  0  0  0  0  0
  2  1  1  6
  2  3  1  0
  3  4  1  0
  4  5  1  0
  5  6  2  0
  5  7  1  0
  2  8  1  0
  8  9  1  6
  9 10  1  0
 11 10  1  6
 11 12  1  0
 12 13  1  1
 13 14  1  6
 13 15  1  0
 16 15  1  6
 16 17  1  0
 17 18  1  0
 18 19  1  6
 19 20  1  0
 20 21  2  0
 20 22  2  0
 20 23  1  0
 18 24  1  0
 24 25  1  0
 25 26  1  0
 26 27  1  6
 26 28  1  0
 28 29  1  6
 29 30  1  0
 30 31  1  0
 31 32  1  6
 31  8  1  0
 31 11  1  0
 28 12  1  0
 26 16  1  0
M  END
>  <MS_ID>  (3523) 
MS3746

>  <SMILES>  (3523) 
C[C@H](CCC(=O)O)[C@H]1CC[C@H]2[C@@H]3[C@@H](O)C[C@H]4C[C@@H](OS(=O)(=O)O)CC[C@]4(C)[C@H]3CC[C@]12C

>  <Structure_dimension>  (3523) 
2D

$$$$
MS3747
     RDKit          2D

 39 43  0  0  0  0  0  0  0  0999 V2000
   -0.3888   -4.8542    0.0000 C   0  0  0  0  0  0  0  0  0  0  0  0
    0.1383   -3.4499    0.0000 C   0  0  0  0  0  0  0  0  0  0  0  0
   -0.8144   -2.2913    0.0000 C   0  0  0  0  0  0  0  0  0  0  0  0
   -2.2941   -2.5370    0.0000 C   0  0  0  0  0  0  0  0  0  0  0  0
   -3.2468   -1.3784    0.0000 C   0  0  0  0  0  0  0  0  0  0  0  0
   -2.7197    0.0260    0.0000 O   0  0  0  0  0  0  0  0  0  0  0  0
   -4.7265   -1.6241    0.0000 N   0  0  0  0  0  0  0  0  0  0  0  0
   -5.6792   -0.4655    0.0000 C   0  0  0  0  0  0  0  0  0  0  0  0
   -7.1589   -0.7112    0.0000 C   0  0  0  0  0  0  0  0  0  0  0  0
   -8.1116    0.4474    0.0000 C   0  0  0  0  0  0  0  0  0  0  0  0
   -7.5846    1.8518    0.0000 C   0  0  0  0  0  0  0  0  0  0  0  0
   -8.5372    3.0104    0.0000 C   0  0  0  0  0  0  0  0  0  0  0  0
  -10.0170    2.7647    0.0000 C   0  0  0  0  0  0  0  0  0  0  0  0
  -10.5440    1.3603    0.0000 C   0  0  0  0  0  0  0  0  0  0  0  0
   -9.5914    0.2017    0.0000 C   0  0  0  0  0  0  0  0  0  0  0  0
   -5.1521    0.9389    0.0000 C   0  0  0  0  0  0  0  0  0  0  0  0
   -3.6724    1.1846    0.0000 O   0  0  0  0  0  0  0  0  0  0  0  0
   -6.1048    2.0975    0.0000 O   0  0  0  0  0  0  0  0  0  0  0  0
    1.6180   -3.2041    0.0000 C   0  0  0  0  0  0  0  0  0  0  0  0
    2.6866   -4.2568    0.0000 C   0  0  0  0  0  0  0  0  0  0  0  0
    4.0180   -3.5659    0.0000 C   0  0  0  0  0  0  0  0  0  0  0  0
    3.7722   -2.0861    0.0000 C   0  0  0  0  0  0  0  0  0  0  0  0
    4.7075   -0.9134    0.0000 C   0  0  0  0  0  0  0  0  0  0  0  0
    6.1907   -1.1369    0.0000 C   0  0  0  0  0  0  0  0  0  0  0  0
    6.7387   -2.5333    0.0000 O   0  0  0  0  0  0  0  0  0  0  0  0
    7.1260    0.0358    0.0000 C   0  0  0  0  0  0  0  0  0  0  0  0
    6.5779    1.4321    0.0000 C   0  0  0  0  0  0  0  0  0  0  0  0
    7.5132    2.6049    0.0000 C   0  0  0  0  0  0  0  0  0  0  0  0
    6.9652    4.0012    0.0000 C   0  0  0  0  0  0  0  0  0  0  0  0
    7.9004    5.1739    0.0000 O   0  0  0  0  0  0  0  0  0  0  0  0
    5.4819    4.2247    0.0000 C   0  0  0  0  0  0  0  0  0  0  0  0
    4.5467    3.0520    0.0000 C   0  0  0  0  0  0  0  0  0  0  0  0
    5.0947    1.6557    0.0000 C   0  0  0  0  0  0  0  0  0  0  0  0
    3.6114    1.8792    0.0000 C   0  0  0  0  0  0  0  0  0  0  0  0
    4.1595    0.4829    0.0000 C   0  0  0  0  0  0  0  0  0  0  0  0
    2.6762    0.7065    0.0000 C   0  0  0  0  0  0  0  0  0  0  0  0
    1.7410   -0.4663    0.0000 C   0  0  0  0  0  0  0  0  0  0  0  0
    2.2890   -1.8626    0.0000 C   0  0  0  0  0  0  0  0  0  0  0  0
    0.7905   -1.7953    0.0000 C   0  0  0  0  0  0  0  0  0  0  0  0
  2  1  1  6
  2  3  1  0
  3  4  1  0
  4  5  1  0
  5  6  2  0
  5  7  1  0
  7  8  1  0
  8  9  1  6
  9 10  1  0
 10 11  2  0
 11 12  1  0
 12 13  2  0
 13 14  1  0
 14 15  2  0
  8 16  1  0
 16 17  2  0
 16 18  1  0
  2 19  1  0
 19 20  1  6
 20 21  1  0
 22 21  1  6
 22 23  1  0
 23 24  1  1
 24 25  1  1
 24 26  1  0
 27 26  1  1
 27 28  1  0
 28 29  1  0
 29 30  1  1
 29 31  1  0
 31 32  1  0
 32 33  1  0
 33 34  1  6
 33 35  1  0
 35 36  1  6
 36 37  1  0
 37 38  1  0
 38 39  1  6
 15 10  1  0
 38 19  1  0
 38 22  1  0
 35 23  1  0
 33 27  1  0
M  END
>  <MS_ID>  (3524) 
MS3747

>  <SMILES>  (3524) 
C[C@H](CCC(=O)N[C@H](Cc1ccccc1)C(=O)O)[C@H]1CC[C@H]2[C@@H]3[C@H](O)C[C@@H]4C[C@H](O)CC[C@]4(C)[C@H]3CC[C@]12C

>  <Structure_dimension>  (3524) 
2D

$$$$
MS3748
     RDKit          2D

 38 41  0  0  0  0  0  0  0  0999 V2000
   -3.5428   -4.3234    0.0000 C   0  0  0  0  0  0  0  0  0  0  0  0
   -2.6435   -3.1229    0.0000 C   0  0  0  0  0  0  0  0  0  0  0  0
   -3.2336   -1.7438    0.0000 C   0  0  0  0  0  0  0  0  0  0  0  0
   -4.7229   -1.5653    0.0000 C   0  0  0  0  0  0  0  0  0  0  0  0
   -5.3130   -0.1862    0.0000 C   0  0  0  0  0  0  0  0  0  0  0  0
   -4.4137    1.0143    0.0000 O   0  0  0  0  0  0  0  0  0  0  0  0
   -6.8023   -0.0077    0.0000 N   0  0  0  0  0  0  0  0  0  0  0  0
   -7.3923    1.3714    0.0000 C   0  0  0  0  0  0  0  0  0  0  0  0
   -8.8817    1.5499    0.0000 C   0  0  0  0  0  0  0  0  0  0  0  0
   -9.4717    2.9290    0.0000 S   0  0  0  0  0  0  0  0  0  0  0  0
  -10.8508    2.3390    0.0000 O   0  0  0  0  0  0  0  0  0  0  0  0
   -8.0927    3.5191    0.0000 O   0  0  0  0  0  0  0  0  0  0  0  0
  -10.0618    4.3081    0.0000 O   0  0  0  0  0  0  0  0  0  0  0  0
   -1.1542   -3.3014    0.0000 C   0  0  0  0  0  0  0  0  0  0  0  0
   -0.4232   -4.6113    0.0000 C   0  0  0  0  0  0  0  0  0  0  0  0
    1.0484   -4.3208    0.0000 C   0  0  0  0  0  0  0  0  0  0  0  0
    1.2269   -2.8315    0.0000 C   0  0  0  0  0  0  0  0  0  0  0  0
    2.4532   -1.9676    0.0000 C   0  0  0  0  0  0  0  0  0  0  0  0
    3.8145   -2.5976    0.0000 C   0  0  0  0  0  0  0  0  0  0  0  0
    5.0407   -1.7338    0.0000 C   0  0  0  0  0  0  0  0  0  0  0  0
    4.9057   -0.2399    0.0000 C   0  0  0  0  0  0  0  0  0  0  0  0
    6.1320    0.6240    0.0000 C   0  0  0  0  0  0  0  0  0  0  0  0
    5.9970    2.1179    0.0000 C   0  0  0  0  0  0  0  0  0  0  0  0
    7.2232    2.9818    0.0000 O   0  0  0  0  0  0  0  0  0  0  0  0
    8.5845    2.3518    0.0000 S   0  0  0  0  0  0  0  0  0  0  0  0
    7.9545    0.9905    0.0000 O   0  0  0  0  0  0  0  0  0  0  0  0
    9.2145    3.7131    0.0000 O   0  0  0  0  0  0  0  0  0  0  0  0
    9.9458    1.7218    0.0000 O   0  0  0  0  0  0  0  0  0  0  0  0
    4.6357    2.7480    0.0000 C   0  0  0  0  0  0  0  0  0  0  0  0
    3.4094    1.8841    0.0000 C   0  0  0  0  0  0  0  0  0  0  0  0
    3.5444    0.3902    0.0000 C   0  0  0  0  0  0  0  0  0  0  0  0
    2.1832    1.0202    0.0000 C   0  0  0  0  0  0  0  0  0  0  0  0
    2.3182   -0.4737    0.0000 C   0  0  0  0  0  0  0  0  0  0  0  0
    0.9569    0.1563    0.0000 C   0  0  0  0  0  0  0  0  0  0  0  0
   -0.2694   -0.7076    0.0000 C   0  0  0  0  0  0  0  0  0  0  0  0
   -1.6306   -0.0775    0.0000 O   0  0  0  0  0  0  0  0  0  0  0  0
   -0.1343   -2.2015    0.0000 C   0  0  0  0  0  0  0  0  0  0  0  0
   -1.5540   -1.7172    0.0000 C   0  0  0  0  0  0  0  0  0  0  0  0
  2  1  1  6
  2  3  1  0
  3  4  1  0
  4  5  1  0
  5  6  2  0
  5  7  1  0
  7  8  1  0
  8  9  1  0
  9 10  1  0
 10 11  2  0
 10 12  2  0
 10 13  1  0
  2 14  1  0
 14 15  1  6
 15 16  1  0
 17 16  1  6
 17 18  1  0
 18 19  1  1
 19 20  1  0
 21 20  1  1
 21 22  1  0
 22 23  1  0
 23 24  1  1
 24 25  1  0
 25 26  2  0
 25 27  2  0
 25 28  1  0
 23 29  1  0
 29 30  1  0
 30 31  1  0
 31 32  1  6
 31 33  1  0
 33 34  1  6
 34 35  1  0
 35 36  1  1
 35 37  1  0
 37 38  1  6
 37 14  1  0
 37 17  1  0
 33 18  1  0
 31 21  1  0
M  END
>  <MS_ID>  (3525) 
MS3748

>  <SMILES>  (3525) 
C[C@H](CCC(=O)NCCS(=O)(=O)O)[C@H]1CC[C@H]2[C@@H]3CC[C@@H]4C[C@H](OS(=O)(=O)O)CC[C@]4(C)[C@H]3C[C@H](O)[C@]12C

>  <Structure_dimension>  (3525) 
2D

$$$$
MS3750
     RDKit          2D

 33 36  0  0  0  0  0  0  0  0999 V2000
   -3.0978   -3.6919    0.0000 C   0  0  0  0  0  0  0  0  0  0  0  0
   -2.2201   -2.4755    0.0000 C   0  0  0  0  0  0  0  0  0  0  0  0
   -2.8347   -1.1072    0.0000 C   0  0  0  0  0  0  0  0  0  0  0  0
   -4.3270   -0.9552    0.0000 C   0  0  0  0  0  0  0  0  0  0  0  0
   -4.9416    0.4131    0.0000 C   0  0  0  0  0  0  0  0  0  0  0  0
   -4.0639    1.6295    0.0000 O   0  0  0  0  0  0  0  0  0  0  0  0
   -6.4339    0.5650    0.0000 N   0  0  0  0  0  0  0  0  0  0  0  0
   -7.0484    1.9333    0.0000 C   0  0  0  0  0  0  0  0  0  0  0  0
   -8.5407    2.0852    0.0000 C   0  0  0  0  0  0  0  0  0  0  0  0
   -9.4184    0.8688    0.0000 O   0  0  0  0  0  0  0  0  0  0  0  0
   -9.1553    3.4535    0.0000 O   0  0  0  0  0  0  0  0  0  0  0  0
   -0.7278   -2.6274    0.0000 C   0  0  0  0  0  0  0  0  0  0  0  0
    0.0264   -3.9240    0.0000 C   0  0  0  0  0  0  0  0  0  0  0  0
    1.4926   -3.6073    0.0000 C   0  0  0  0  0  0  0  0  0  0  0  0
    1.6445   -2.1150    0.0000 C   0  0  0  0  0  0  0  0  0  0  0  0
    2.8552   -1.2294    0.0000 C   0  0  0  0  0  0  0  0  0  0  0  0
    4.2275   -1.8350    0.0000 C   0  0  0  0  0  0  0  0  0  0  0  0
    4.3891   -3.3263    0.0000 O   0  0  0  0  0  0  0  0  0  0  0  0
    5.4381   -0.9494    0.0000 C   0  0  0  0  0  0  0  0  0  0  0  0
    5.2764    0.5419    0.0000 C   0  0  0  0  0  0  0  0  0  0  0  0
    6.4871    1.4275    0.0000 C   0  0  0  0  0  0  0  0  0  0  0  0
    6.3254    2.9188    0.0000 C   0  0  0  0  0  0  0  0  0  0  0  0
    7.5360    3.8044    0.0000 O   0  0  0  0  0  0  0  0  0  0  0  0
    4.9531    3.5244    0.0000 C   0  0  0  0  0  0  0  0  0  0  0  0
    3.7425    2.6388    0.0000 C   0  0  0  0  0  0  0  0  0  0  0  0
    3.9041    1.1475    0.0000 C   0  0  0  0  0  0  0  0  0  0  0  0
    2.5318    1.7531    0.0000 C   0  0  0  0  0  0  0  0  0  0  0  0
    2.6935    0.2619    0.0000 C   0  0  0  0  0  0  0  0  0  0  0  0
    1.3212    0.8675    0.0000 C   0  0  0  0  0  0  0  0  0  0  0  0
    0.1105   -0.0181    0.0000 C   0  0  0  0  0  0  0  0  0  0  0  0
   -1.2618    0.5875    0.0000 O   0  0  0  0  0  0  0  0  0  0  0  0
    0.2722   -1.5094    0.0000 C   0  0  0  0  0  0  0  0  0  0  0  0
   -1.1559   -1.0505    0.0000 C   0  0  0  0  0  0  0  0  0  0  0  0
  2  1  1  6
  2  3  1  0
  3  4  1  0
  4  5  1  0
  5  6  2  0
  5  7  1  0
  7  8  1  0
  8  9  1  0
  9 10  2  0
  9 11  1  0
  2 12  1  0
 12 13  1  6
 13 14  1  0
 15 14  1  6
 15 16  1  0
 16 17  1  1
 17 18  1  1
 17 19  1  0
 20 19  1  1
 20 21  1  0
 21 22  1  0
 22 23  1  1
 22 24  1  0
 24 25  1  0
 25 26  1  0
 26 27  1  6
 26 28  1  0
 28 29  1  6
 29 30  1  0
 30 31  2  0
 30 32  1  0
 32 33  1  6
 32 12  1  0
 32 15  1  0
 28 16  1  0
 26 20  1  0
M  END
>  <MS_ID>  (3526) 
MS3750

>  <SMILES>  (3526) 
C[C@H](CCC(=O)NCC(=O)O)[C@H]1CC[C@H]2[C@@H]3[C@H](O)C[C@@H]4C[C@H](O)CC[C@]4(C)[C@H]3CC(=O)[C@]12C

>  <Structure_dimension>  (3526) 
2D

$$$$
MS3751
     RDKit          2D

 39 42  0  0  0  0  0  0  0  0999 V2000
   -0.1420   -4.5958    0.0000 C   0  0  0  0  0  0  0  0  0  0  0  0
    0.4341   -3.2109    0.0000 C   0  0  0  0  0  0  0  0  0  0  0  0
   -0.4772   -2.0195    0.0000 C   0  0  0  0  0  0  0  0  0  0  0  0
   -1.9646   -2.2130    0.0000 C   0  0  0  0  0  0  0  0  0  0  0  0
   -2.8759   -1.0215    0.0000 C   0  0  0  0  0  0  0  0  0  0  0  0
   -2.2998    0.3634    0.0000 O   0  0  0  0  0  0  0  0  0  0  0  0
   -4.3634   -1.2150    0.0000 N   0  0  0  0  0  0  0  0  0  0  0  0
   -5.2747   -0.0236    0.0000 C   0  0  0  0  0  0  0  0  0  0  0  0
   -6.7622   -0.2171    0.0000 C   0  0  0  0  0  0  0  0  0  0  0  0
   -7.3383   -1.6020    0.0000 O   0  0  0  0  0  0  0  0  0  0  0  0
   -7.6735    0.9744    0.0000 N   0  0  0  0  0  0  0  0  0  0  0  0
   -9.1610    0.7809    0.0000 C   0  0  0  0  0  0  0  0  0  0  0  0
  -10.0723    1.9723    0.0000 C   0  0  0  0  0  0  0  0  0  0  0  0
  -11.5597    1.7788    0.0000 S   0  0  0  0  0  0  0  0  0  0  0  0
  -11.7532    3.2663    0.0000 O   0  0  0  0  0  0  0  0  0  0  0  0
  -11.3662    0.2913    0.0000 O   0  0  0  0  0  0  0  0  0  0  0  0
  -13.0472    1.5853    0.0000 O   0  0  0  0  0  0  0  0  0  0  0  0
    1.9216   -3.0174    0.0000 C   0  0  0  0  0  0  0  0  0  0  0  0
    2.9525   -4.1071    0.0000 C   0  0  0  0  0  0  0  0  0  0  0  0
    4.3073   -3.4634    0.0000 C   0  0  0  0  0  0  0  0  0  0  0  0
    4.1138   -1.9759    0.0000 C   0  0  0  0  0  0  0  0  0  0  0  0
    5.0898   -0.8368    0.0000 C   0  0  0  0  0  0  0  0  0  0  0  0
    6.5642   -1.1124    0.0000 C   0  0  0  0  0  0  0  0  0  0  0  0
    7.0628   -2.5272    0.0000 O   0  0  0  0  0  0  0  0  0  0  0  0
    7.5402    0.0267    0.0000 C   0  0  0  0  0  0  0  0  0  0  0  0
    7.0416    1.4414    0.0000 C   0  0  0  0  0  0  0  0  0  0  0  0
    8.0176    2.5805    0.0000 C   0  0  0  0  0  0  0  0  0  0  0  0
    7.5190    3.9952    0.0000 C   0  0  0  0  0  0  0  0  0  0  0  0
    8.4950    5.1344    0.0000 O   0  0  0  0  0  0  0  0  0  0  0  0
    6.0446    4.2709    0.0000 C   0  0  0  0  0  0  0  0  0  0  0  0
    5.0686    3.1318    0.0000 C   0  0  0  0  0  0  0  0  0  0  0  0
    5.5672    1.7170    0.0000 C   0  0  0  0  0  0  0  0  0  0  0  0
    4.0927    1.9927    0.0000 C   0  0  0  0  0  0  0  0  0  0  0  0
    4.5912    0.5779    0.0000 C   0  0  0  0  0  0  0  0  0  0  0  0
    3.1168    0.8536    0.0000 C   0  0  0  0  0  0  0  0  0  0  0  0
    2.1408   -0.2856    0.0000 C   0  0  0  0  0  0  0  0  0  0  0  0
    0.6664   -0.0099    0.0000 O   0  0  0  0  0  0  0  0  0  0  0  0
    2.6394   -1.7003    0.0000 C   0  0  0  0  0  0  0  0  0  0  0  0
    1.1442   -1.5803    0.0000 C   0  0  0  0  0  0  0  0  0  0  0  0
  2  1  1  6
  2  3  1  0
  3  4  1  0
  4  5  1  0
  5  6  2  0
  5  7  1  0
  7  8  1  0
  8  9  1  0
  9 10  2  0
  9 11  1  0
 11 12  1  0
 12 13  1  0
 13 14  1  0
 14 15  2  0
 14 16  2  0
 14 17  1  0
  2 18  1  0
 18 19  1  6
 19 20  1  0
 21 20  1  6
 21 22  1  0
 22 23  1  1
 23 24  1  1
 23 25  1  0
 26 25  1  1
 26 27  1  0
 27 28  1  0
 28 29  1  1
 28 30  1  0
 30 31  1  0
 31 32  1  0
 32 33  1  6
 32 34  1  0
 34 35  1  6
 35 36  1  0
 36 37  1  1
 36 38  1  0
 38 39  1  6
 38 18  1  0
 38 21  1  0
 34 22  1  0
 32 26  1  0
M  END
>  <MS_ID>  (3527) 
MS3751

>  <SMILES>  (3527) 
C[C@H](CCC(=O)NCC(=O)NCCS(=O)(=O)O)[C@H]1CC[C@H]2[C@@H]3[C@H](O)C[C@@H]4C[C@H](O)CC[C@]4(C)[C@H]3C[C@H](O)[C@]12C

>  <Structure_dimension>  (3527) 
2D

$$$$
MS3753
     RDKit          2D

 27 30  0  0  0  0  0  0  0  0999 V2000
   -5.1023   -2.0364    0.0000 C   0  0  0  0  0  0  0  0  0  0  0  0
   -3.8978   -1.1425    0.0000 C   0  0  0  0  0  0  0  0  0  0  0  0
   -4.0697    0.3476    0.0000 C   0  0  0  0  0  0  0  0  0  0  0  0
   -5.4461    0.9438    0.0000 C   0  0  0  0  0  0  0  0  0  0  0  0
   -5.6180    2.4339    0.0000 C   0  0  0  0  0  0  0  0  0  0  0  0
   -4.4135    3.3278    0.0000 O   0  0  0  0  0  0  0  0  0  0  0  0
   -6.9944    3.0301    0.0000 O   0  0  0  0  0  0  0  0  0  0  0  0
   -2.5213   -1.7387    0.0000 C   0  0  0  0  0  0  0  0  0  0  0  0
   -2.1946   -3.2027    0.0000 C   0  0  0  0  0  0  0  0  0  0  0  0
   -0.7013   -3.3444    0.0000 C   0  0  0  0  0  0  0  0  0  0  0  0
   -0.1051   -1.9679    0.0000 C   0  0  0  0  0  0  0  0  0  0  0  0
    1.3167   -1.4900    0.0000 C   0  0  0  0  0  0  0  0  0  0  0  0
    2.4415   -2.4823    0.0000 C   0  0  0  0  0  0  0  0  0  0  0  0
    3.8633   -2.0044    0.0000 C   0  0  0  0  0  0  0  0  0  0  0  0
    4.1603   -0.5341    0.0000 C   0  0  0  0  0  0  0  0  0  0  0  0
    5.5821   -0.0561    0.0000 C   0  0  0  0  0  0  0  0  0  0  0  0
    5.8791    1.4142    0.0000 C   0  0  0  0  0  0  0  0  0  0  0  0
    7.3009    1.8921    0.0000 O   0  0  0  0  0  0  0  0  0  0  0  0
    4.7543    2.4065    0.0000 C   0  0  0  0  0  0  0  0  0  0  0  0
    3.3325    1.9286    0.0000 C   0  0  0  0  0  0  0  0  0  0  0  0
    3.0355    0.4583    0.0000 C   0  0  0  0  0  0  0  0  0  0  0  0
    1.9107    1.4506    0.0000 C   0  0  0  0  0  0  0  0  0  0  0  0
    1.6137   -0.0197    0.0000 C   0  0  0  0  0  0  0  0  0  0  0  0
    0.4888    0.9727    0.0000 C   0  0  0  0  0  0  0  0  0  0  0  0
   -0.9330    0.4947    0.0000 C   0  0  0  0  0  0  0  0  0  0  0  0
   -1.2300   -0.9756    0.0000 C   0  0  0  0  0  0  0  0  0  0  0  0
   -2.4524   -0.1062    0.0000 C   0  0  0  0  0  0  0  0  0  0  0  0
  2  1  1  6
  2  3  1  0
  3  4  1  0
  4  5  1  0
  5  6  2  0
  5  7  1  0
  2  8  1  0
  8  9  1  6
  9 10  1  0
 11 10  1  6
 11 12  1  0
 12 13  1  1
 13 14  1  0
 15 14  1  6
 15 16  1  0
 16 17  1  0
 17 18  2  0
 17 19  1  0
 19 20  1  0
 20 21  1  0
 21 22  1  6
 21 23  1  0
 23 24  1  6
 24 25  1  0
 25 26  1  0
 26 27  1  6
 26  8  1  0
 26 11  1  0
 23 12  1  0
 21 15  1  0
M  END
>  <MS_ID>  (3528) 
MS3753

>  <SMILES>  (3528) 
C[C@H](CCC(=O)O)[C@H]1CC[C@H]2[C@@H]3CC[C@H]4CC(=O)CC[C@]4(C)[C@H]3CC[C@]12C

>  <Structure_dimension>  (3528) 
2D

$$$$
MS3754
     RDKit          2D

 28 31  0  0  0  0  0  0  0  0999 V2000
    5.2219    2.0394    0.0000 C   0  0  0  0  0  0  0  0  0  0  0  0
    4.0001    1.1691    0.0000 C   0  0  0  0  0  0  0  0  0  0  0  0
    4.1430   -0.3240    0.0000 C   0  0  0  0  0  0  0  0  0  0  0  0
    5.5075   -0.9469    0.0000 C   0  0  0  0  0  0  0  0  0  0  0  0
    5.6504   -2.4401    0.0000 C   0  0  0  0  0  0  0  0  0  0  0  0
    4.4287   -3.3104    0.0000 O   0  0  0  0  0  0  0  0  0  0  0  0
    7.0149   -3.0630    0.0000 O   0  0  0  0  0  0  0  0  0  0  0  0
    2.6356    1.7920    0.0000 C   0  0  0  0  0  0  0  0  0  0  0  0
    2.3374    3.2621    0.0000 C   0  0  0  0  0  0  0  0  0  0  0  0
    0.8472    3.4328    0.0000 C   0  0  0  0  0  0  0  0  0  0  0  0
    0.2243    2.0683    0.0000 C   0  0  0  0  0  0  0  0  0  0  0  0
   -1.2065    1.6181    0.0000 C   0  0  0  0  0  0  0  0  0  0  0  0
   -2.3118    2.6322    0.0000 C   0  0  0  0  0  0  0  0  0  0  0  0
   -3.7427    2.1820    0.0000 C   0  0  0  0  0  0  0  0  0  0  0  0
   -4.0683    0.7178    0.0000 C   0  0  0  0  0  0  0  0  0  0  0  0
   -5.4991    0.2676    0.0000 C   0  0  0  0  0  0  0  0  0  0  0  0
   -5.8247   -1.1967    0.0000 C   0  0  0  0  0  0  0  0  0  0  0  0
   -7.2555   -1.6468    0.0000 O   0  0  0  0  0  0  0  0  0  0  0  0
   -4.7194   -2.2107    0.0000 C   0  0  0  0  0  0  0  0  0  0  0  0
   -3.2885   -1.7606    0.0000 C   0  0  0  0  0  0  0  0  0  0  0  0
   -2.1833   -2.7746    0.0000 O   0  0  0  0  0  0  0  0  0  0  0  0
   -2.9630   -0.2963    0.0000 C   0  0  0  0  0  0  0  0  0  0  0  0
   -1.8577   -1.3104    0.0000 C   0  0  0  0  0  0  0  0  0  0  0  0
   -1.5321    0.1539    0.0000 C   0  0  0  0  0  0  0  0  0  0  0  0
   -0.4268   -0.8602    0.0000 C   0  0  0  0  0  0  0  0  0  0  0  0
    1.0040   -0.4100    0.0000 C   0  0  0  0  0  0  0  0  0  0  0  0
    1.3296    1.0542    0.0000 C   0  0  0  0  0  0  0  0  0  0  0  0
    2.5348    0.1612    0.0000 C   0  0  0  0  0  0  0  0  0  0  0  0
  2  1  1  6
  2  3  1  0
  3  4  1  0
  4  5  1  0
  5  6  2  0
  5  7  1  0
  2  8  1  0
  8  9  1  6
  9 10  1  0
 11 10  1  6
 11 12  1  0
 12 13  1  1
 13 14  1  0
 15 14  1  1
 15 16  1  0
 16 17  1  0
 17 18  1  1
 17 19  1  0
 19 20  1  0
 20 21  1  6
 20 22  1  0
 22 23  1  6
 22 24  1  0
 24 25  1  6
 25 26  1  0
 26 27  1  0
 27 28  1  6
 27  8  1  0
 27 11  1  0
 24 12  1  0
 22 15  1  0
M  END
>  <MS_ID>  (3529) 
MS3754

>  <SMILES>  (3529) 
C[C@H](CCC(=O)O)[C@H]1CC[C@H]2[C@@H]3CC[C@@H]4C[C@H](O)C[C@@H](O)[C@]4(C)[C@H]3CC[C@]12C

>  <Structure_dimension>  (3529) 
2D

$$$$
MS3755
     RDKit          2D

 37 40  0  0  0  0  0  0  0  0999 V2000
   -4.5396   -3.5152    0.0000 C   0  0  0  0  0  0  0  0  0  0  0  0
   -3.5258   -2.4097    0.0000 C   0  0  0  0  0  0  0  0  0  0  0  0
   -3.9764   -0.9789    0.0000 C   0  0  0  0  0  0  0  0  0  0  0  0
   -5.4407   -0.6538    0.0000 C   0  0  0  0  0  0  0  0  0  0  0  0
   -5.8913    0.7769    0.0000 C   0  0  0  0  0  0  0  0  0  0  0  0
   -4.8775    1.8825    0.0000 O   0  0  0  0  0  0  0  0  0  0  0  0
   -7.3556    1.1021    0.0000 N   0  0  0  0  0  0  0  0  0  0  0  0
   -7.8062    2.5328    0.0000 C   0  0  0  0  0  0  0  0  0  0  0  0
   -9.2705    2.8580    0.0000 C   0  0  0  0  0  0  0  0  0  0  0  0
  -10.2843    1.7524    0.0000 O   0  0  0  0  0  0  0  0  0  0  0  0
   -9.7211    4.2887    0.0000 O   0  0  0  0  0  0  0  0  0  0  0  0
   -2.0615   -2.7348    0.0000 C   0  0  0  0  0  0  0  0  0  0  0  0
   -1.4638   -4.1106    0.0000 C   0  0  0  0  0  0  0  0  0  0  0  0
    0.0293   -3.9673    0.0000 C   0  0  0  0  0  0  0  0  0  0  0  0
    0.3545   -2.5030    0.0000 C   0  0  0  0  0  0  0  0  0  0  0  0
    1.6603   -1.7648    0.0000 C   0  0  0  0  0  0  0  0  0  0  0  0
    2.9525   -2.5265    0.0000 C   0  0  0  0  0  0  0  0  0  0  0  0
    2.9389   -4.0265    0.0000 O   0  0  0  0  0  0  0  0  0  0  0  0
    4.2582   -1.7884    0.0000 C   0  0  0  0  0  0  0  0  0  0  0  0
    4.2718   -0.2884    0.0000 C   0  0  0  0  0  0  0  0  0  0  0  0
    5.5776    0.4498    0.0000 C   0  0  0  0  0  0  0  0  0  0  0  0
    5.5912    1.9497    0.0000 C   0  0  0  0  0  0  0  0  0  0  0  0
    6.8970    2.6879    0.0000 O   0  0  0  0  0  0  0  0  0  0  0  0
    8.1892    1.9262    0.0000 S   0  0  0  0  0  0  0  0  0  0  0  0
    7.4274    0.6340    0.0000 O   0  0  0  0  0  0  0  0  0  0  0  0
    8.9509    3.2184    0.0000 O   0  0  0  0  0  0  0  0  0  0  0  0
    9.4814    1.1644    0.0000 O   0  0  0  0  0  0  0  0  0  0  0  0
    4.2990    2.7115    0.0000 C   0  0  0  0  0  0  0  0  0  0  0  0
    2.9932    1.9733    0.0000 C   0  0  0  0  0  0  0  0  0  0  0  0
    2.9796    0.4733    0.0000 C   0  0  0  0  0  0  0  0  0  0  0  0
    1.6875    1.2351    0.0000 C   0  0  0  0  0  0  0  0  0  0  0  0
    1.6739   -0.2649    0.0000 C   0  0  0  0  0  0  0  0  0  0  0  0
    0.3817    0.4969    0.0000 C   0  0  0  0  0  0  0  0  0  0  0  0
   -0.9241   -0.2413    0.0000 C   0  0  0  0  0  0  0  0  0  0  0  0
   -2.2163    0.5204    0.0000 O   0  0  0  0  0  0  0  0  0  0  0  0
   -0.9377   -1.7413    0.0000 C   0  0  0  0  0  0  0  0  0  0  0  0
   -2.3024   -1.1188    0.0000 C   0  0  0  0  0  0  0  0  0  0  0  0
  2  1  1  6
  2  3  1  0
  3  4  1  0
  4  5  1  0
  5  6  2  0
  5  7  1  0
  7  8  1  0
  8  9  1  0
  9 10  2  0
  9 11  1  0
  2 12  1  0
 12 13  1  6
 13 14  1  0
 15 14  1  6
 15 16  1  0
 16 17  1  1
 17 18  1  6
 17 19  1  0
 20 19  1  1
 20 21  1  0
 21 22  1  0
 22 23  1  1
 23 24  1  0
 24 25  2  0
 24 26  2  0
 24 27  1  0
 22 28  1  0
 28 29  1  0
 29 30  1  0
 30 31  1  6
 30 32  1  0
 32 33  1  6
 33 34  1  0
 34 35  1  1
 34 36  1  0
 36 37  1  6
 36 12  1  0
 36 15  1  0
 32 16  1  0
 30 20  1  0
M  END
>  <MS_ID>  (3530) 
MS3755

>  <SMILES>  (3530) 
C[C@H](CCC(=O)NCC(=O)O)[C@H]1CC[C@H]2[C@@H]3[C@@H](O)C[C@@H]4C[C@H](OS(=O)(=O)O)CC[C@]4(C)[C@H]3C[C@H](O)[C@]12C

>  <Structure_dimension>  (3530) 
2D

$$$$
MS3758
     RDKit          2D

 28 31  0  0  0  0  0  0  0  0999 V2000
   -5.1275   -2.0302    0.0000 C   0  0  0  0  0  0  0  0  0  0  0  0
   -3.9468   -1.1050    0.0000 C   0  0  0  0  0  0  0  0  0  0  0  0
   -4.1576    0.3801    0.0000 C   0  0  0  0  0  0  0  0  0  0  0  0
   -5.5492    0.9401    0.0000 C   0  0  0  0  0  0  0  0  0  0  0  0
   -5.7600    2.4252    0.0000 C   0  0  0  0  0  0  0  0  0  0  0  0
   -4.5793    3.3503    0.0000 O   0  0  0  0  0  0  0  0  0  0  0  0
   -7.1516    2.9851    0.0000 O   0  0  0  0  0  0  0  0  0  0  0  0
   -2.5552   -1.6650    0.0000 C   0  0  0  0  0  0  0  0  0  0  0  0
   -2.1903   -3.1199    0.0000 C   0  0  0  0  0  0  0  0  0  0  0  0
   -0.6938   -3.2225    0.0000 C   0  0  0  0  0  0  0  0  0  0  0  0
   -0.1339   -1.8309    0.0000 C   0  0  0  0  0  0  0  0  0  0  0  0
    1.2750   -1.3159    0.0000 C   0  0  0  0  0  0  0  0  0  0  0  0
    2.4254   -2.2785    0.0000 C   0  0  0  0  0  0  0  0  0  0  0  0
    2.1670   -3.7560    0.0000 O   0  0  0  0  0  0  0  0  0  0  0  0
    3.8342   -1.7635    0.0000 C   0  0  0  0  0  0  0  0  0  0  0  0
    4.0926   -0.2859    0.0000 C   0  0  0  0  0  0  0  0  0  0  0  0
    5.5014    0.2291    0.0000 C   0  0  0  0  0  0  0  0  0  0  0  0
    5.7598    1.7067    0.0000 C   0  0  0  0  0  0  0  0  0  0  0  0
    7.1687    2.2217    0.0000 O   0  0  0  0  0  0  0  0  0  0  0  0
    4.6094    2.6692    0.0000 C   0  0  0  0  0  0  0  0  0  0  0  0
    3.2006    2.1542    0.0000 C   0  0  0  0  0  0  0  0  0  0  0  0
    2.9422    0.6767    0.0000 C   0  0  0  0  0  0  0  0  0  0  0  0
    1.7918    1.6392    0.0000 C   0  0  0  0  0  0  0  0  0  0  0  0
    1.5334    0.1617    0.0000 C   0  0  0  0  0  0  0  0  0  0  0  0
    0.3830    1.1242    0.0000 C   0  0  0  0  0  0  0  0  0  0  0  0
   -1.0259    0.6093    0.0000 C   0  0  0  0  0  0  0  0  0  0  0  0
   -1.2843   -0.8683    0.0000 C   0  0  0  0  0  0  0  0  0  0  0  0
   -2.5290   -0.0313    0.0000 C   0  0  0  0  0  0  0  0  0  0  0  0
  2  1  1  6
  2  3  1  0
  3  4  1  0
  4  5  1  0
  5  6  2  0
  5  7  1  0
  2  8  1  0
  8  9  1  6
  9 10  1  0
 11 10  1  6
 11 12  1  0
 12 13  1  1
 13 14  1  6
 13 15  1  0
 16 15  1  6
 16 17  1  0
 17 18  1  0
 18 19  2  0
 18 20  1  0
 20 21  1  0
 21 22  1  0
 22 23  1  6
 22 24  1  0
 24 25  1  6
 25 26  1  0
 26 27  1  0
 27 28  1  6
 27  8  1  0
 27 11  1  0
 24 12  1  0
 22 16  1  0
M  END
>  <MS_ID>  (3531) 
MS3758

>  <SMILES>  (3531) 
C[C@H](CCC(=O)O)[C@H]1CC[C@H]2[C@@H]3[C@@H](O)C[C@H]4CC(=O)CC[C@]4(C)[C@H]3CC[C@]12C

>  <Structure_dimension>  (3531) 
2D

$$$$
MS3762
     RDKit          2D

 30 33  0  0  0  0  0  0  0  0999 V2000
   -3.2351    2.0326    0.0000 C   0  0  0  0  0  0  0  0  0  0  0  0
   -3.4314    0.5455    0.0000 C   0  0  0  0  0  0  0  0  0  0  0  0
   -4.8175   -0.0280    0.0000 C   0  0  0  0  0  0  0  0  0  0  0  0
   -5.0138   -1.5151    0.0000 O   0  0  0  0  0  0  0  0  0  0  0  0
   -6.0072    0.8856    0.0000 C   0  0  0  0  0  0  0  0  0  0  0  0
   -7.3932    0.3120    0.0000 C   0  0  0  0  0  0  0  0  0  0  0  0
   -7.5896   -1.1750    0.0000 O   0  0  0  0  0  0  0  0  0  0  0  0
   -8.5829    1.2256    0.0000 O   0  0  0  0  0  0  0  0  0  0  0  0
   -2.2418   -0.3681    0.0000 C   0  0  0  0  0  0  0  0  0  0  0  0
   -2.2816   -1.8676    0.0000 C   0  0  0  0  0  0  0  0  0  0  0  0
   -0.8678   -2.3688    0.0000 C   0  0  0  0  0  0  0  0  0  0  0  0
    0.0458   -1.1791    0.0000 C   0  0  0  0  0  0  0  0  0  0  0  0
    1.5412   -1.0620    0.0000 C   0  0  0  0  0  0  0  0  0  0  0  0
    2.3903   -2.2985    0.0000 C   0  0  0  0  0  0  0  0  0  0  0  0
    1.7441   -3.6522    0.0000 O   0  0  0  0  0  0  0  0  0  0  0  0
    3.8858   -2.1814    0.0000 C   0  0  0  0  0  0  0  0  0  0  0  0
    4.5320   -0.8278    0.0000 C   0  0  0  0  0  0  0  0  0  0  0  0
    6.0275   -0.7106    0.0000 C   0  0  0  0  0  0  0  0  0  0  0  0
    6.6737    0.6430    0.0000 C   0  0  0  0  0  0  0  0  0  0  0  0
    8.1691    0.7601    0.0000 O   0  0  0  0  0  0  0  0  0  0  0  0
    5.8246    1.8795    0.0000 C   0  0  0  0  0  0  0  0  0  0  0  0
    4.3292    1.7624    0.0000 C   0  0  0  0  0  0  0  0  0  0  0  0
    3.6829    0.4088    0.0000 C   0  0  0  0  0  0  0  0  0  0  0  0
    2.8337    1.6453    0.0000 C   0  0  0  0  0  0  0  0  0  0  0  0
    2.1875    0.2916    0.0000 C   0  0  0  0  0  0  0  0  0  0  0  0
    1.3383    1.5281    0.0000 C   0  0  0  0  0  0  0  0  0  0  0  0
   -0.1571    1.4110    0.0000 C   0  0  0  0  0  0  0  0  0  0  0  0
   -1.0062    2.6475    0.0000 O   0  0  0  0  0  0  0  0  0  0  0  0
   -0.8034    0.0574    0.0000 C   0  0  0  0  0  0  0  0  0  0  0  0
   -1.7771    1.1983    0.0000 C   0  0  0  0  0  0  0  0  0  0  0  0
  2  1  1  1
  2  3  1  0
  3  4  1  6
  3  5  1  0
  5  6  1  0
  6  7  2  0
  6  8  1  0
  2  9  1  0
  9 10  1  6
 10 11  1  0
 12 11  1  6
 12 13  1  0
 13 14  1  1
 14 15  1  1
 14 16  1  0
 17 16  1  1
 17 18  1  0
 18 19  1  0
 19 20  1  1
 19 21  1  0
 21 22  1  0
 22 23  1  0
 23 24  1  6
 23 25  1  0
 25 26  1  6
 26 27  1  0
 27 28  1  1
 27 29  1  0
 29 30  1  6
 29  9  1  0
 29 12  1  0
 25 13  1  0
 23 17  1  0
M  END
>  <MS_ID>  (3532) 
MS3762

>  <SMILES>  (3532) 
C[C@H]([C@H](O)CC(=O)O)[C@H]1CC[C@H]2[C@@H]3[C@H](O)C[C@@H]4C[C@H](O)CC[C@]4(C)[C@H]3C[C@H](O)[C@]12C

>  <Structure_dimension>  (3532) 
2D

$$$$
MS3763
     RDKit          2D

 35 38  0  0  0  0  0  0  0  0999 V2000
   -2.6154   -4.0905    0.0000 C   0  0  0  0  0  0  0  0  0  0  0  0
   -1.8458   -2.8029    0.0000 C   0  0  0  0  0  0  0  0  0  0  0  0
   -2.5761   -1.4927    0.0000 C   0  0  0  0  0  0  0  0  0  0  0  0
   -4.0759   -1.4700    0.0000 C   0  0  0  0  0  0  0  0  0  0  0  0
   -4.8062   -0.1598    0.0000 C   0  0  0  0  0  0  0  0  0  0  0  0
   -4.0366    1.1278    0.0000 O   0  0  0  0  0  0  0  0  0  0  0  0
   -6.3060   -0.1371    0.0000 N   0  0  0  0  0  0  0  0  0  0  0  0
   -7.0362    1.1732    0.0000 C   0  0  0  0  0  0  0  0  0  0  0  0
   -6.2667    2.4607    0.0000 C   0  0  0  0  0  0  0  0  0  0  0  0
   -6.9969    3.7710    0.0000 S   0  0  0  0  0  0  0  0  0  0  0  0
   -8.5361    1.1959    0.0000 C   0  0  0  0  0  0  0  0  0  0  0  0
   -9.3056   -0.0917    0.0000 O   0  0  0  0  0  0  0  0  0  0  0  0
   -9.2663    2.5061    0.0000 O   0  0  0  0  0  0  0  0  0  0  0  0
   -0.3460   -2.8256    0.0000 C   0  0  0  0  0  0  0  0  0  0  0  0
    0.5172   -4.0523    0.0000 C   0  0  0  0  0  0  0  0  0  0  0  0
    1.9507   -3.6104    0.0000 C   0  0  0  0  0  0  0  0  0  0  0  0
    1.9734   -2.1106    0.0000 C   0  0  0  0  0  0  0  0  0  0  0  0
    3.1031   -1.1239    0.0000 C   0  0  0  0  0  0  0  0  0  0  0  0
    4.5226   -1.6090    0.0000 C   0  0  0  0  0  0  0  0  0  0  0  0
    4.8122   -3.0807    0.0000 O   0  0  0  0  0  0  0  0  0  0  0  0
    5.6523   -0.6222    0.0000 C   0  0  0  0  0  0  0  0  0  0  0  0
    7.0717   -1.1073    0.0000 O   0  0  0  0  0  0  0  0  0  0  0  0
    5.3627    0.8495    0.0000 C   0  0  0  0  0  0  0  0  0  0  0  0
    6.4925    1.8362    0.0000 C   0  0  0  0  0  0  0  0  0  0  0  0
    6.2028    3.3080    0.0000 C   0  0  0  0  0  0  0  0  0  0  0  0
    7.3326    4.2947    0.0000 O   0  0  0  0  0  0  0  0  0  0  0  0
    4.7834    3.7931    0.0000 C   0  0  0  0  0  0  0  0  0  0  0  0
    3.6537    2.8064    0.0000 C   0  0  0  0  0  0  0  0  0  0  0  0
    3.9433    1.3346    0.0000 C   0  0  0  0  0  0  0  0  0  0  0  0
    2.5239    1.8196    0.0000 C   0  0  0  0  0  0  0  0  0  0  0  0
    2.8135    0.3479    0.0000 C   0  0  0  0  0  0  0  0  0  0  0  0
    1.3941    0.8329    0.0000 C   0  0  0  0  0  0  0  0  0  0  0  0
    0.2643   -0.1538    0.0000 C   0  0  0  0  0  0  0  0  0  0  0  0
    0.5540   -1.6256    0.0000 C   0  0  0  0  0  0  0  0  0  0  0  0
   -0.9084   -1.2915    0.0000 C   0  0  0  0  0  0  0  0  0  0  0  0
  2  1  1  6
  2  3  1  0
  3  4  1  0
  4  5  1  0
  5  6  2  0
  5  7  1  0
  7  8  1  0
  8  9  1  6
  9 10  1  0
  8 11  1  0
 11 12  2  0
 11 13  1  0
  2 14  1  0
 14 15  1  6
 15 16  1  0
 17 16  1  6
 17 18  1  0
 18 19  1  1
 19 20  1  1
 19 21  1  0
 21 22  1  1
 21 23  1  0
 23 24  1  1
 24 25  1  0
 25 26  1  1
 25 27  1  0
 27 28  1  0
 28 29  1  0
 29 30  1  6
 29 31  1  0
 31 32  1  6
 32 33  1  0
 33 34  1  0
 34 35  1  6
 34 14  1  0
 34 17  1  0
 31 18  1  0
 29 23  1  0
M  END
>  <MS_ID>  (3533) 
MS3763

>  <SMILES>  (3533) 
C[C@H](CCC(=O)N[C@@H](CS)C(=O)O)[C@H]1CC[C@H]2[C@@H]3[C@H](O)[C@H](O)[C@@H]4C[C@H](O)CC[C@]4(C)[C@H]3CC[C@]12C

>  <Structure_dimension>  (3533) 
2D

$$$$
MS3765
     RDKit          2D

 28 31  0  0  0  0  0  0  0  0999 V2000
    5.3038    2.0978    0.0000 C   0  0  0  0  0  0  0  0  0  0  0  0
    4.1161    1.1817    0.0000 C   0  0  0  0  0  0  0  0  0  0  0  0
    4.3156   -0.3050    0.0000 C   0  0  0  0  0  0  0  0  0  0  0  0
    5.7029   -0.8755    0.0000 C   0  0  0  0  0  0  0  0  0  0  0  0
    5.9024   -2.3622    0.0000 C   0  0  0  0  0  0  0  0  0  0  0  0
    4.7147   -3.2783    0.0000 O   0  0  0  0  0  0  0  0  0  0  0  0
    7.2897   -2.9327    0.0000 O   0  0  0  0  0  0  0  0  0  0  0  0
    2.7288    1.7522    0.0000 C   0  0  0  0  0  0  0  0  0  0  0  0
    2.3750    3.2099    0.0000 C   0  0  0  0  0  0  0  0  0  0  0  0
    0.8793    3.3238    0.0000 C   0  0  0  0  0  0  0  0  0  0  0  0
    0.3088    1.9366    0.0000 C   0  0  0  0  0  0  0  0  0  0  0  0
   -1.1039    1.4323    0.0000 C   0  0  0  0  0  0  0  0  0  0  0  0
   -2.2470    2.4036    0.0000 C   0  0  0  0  0  0  0  0  0  0  0  0
   -3.6597    1.8993    0.0000 C   0  0  0  0  0  0  0  0  0  0  0  0
   -3.9293    0.4237    0.0000 C   0  0  0  0  0  0  0  0  0  0  0  0
   -5.3420   -0.0805    0.0000 C   0  0  0  0  0  0  0  0  0  0  0  0
   -6.4851    0.8907    0.0000 O   0  0  0  0  0  0  0  0  0  0  0  0
   -5.6117   -1.5561    0.0000 C   0  0  0  0  0  0  0  0  0  0  0  0
   -7.0243   -2.0604    0.0000 O   0  0  0  0  0  0  0  0  0  0  0  0
   -4.4686   -2.5274    0.0000 C   0  0  0  0  0  0  0  0  0  0  0  0
   -3.0559   -2.0231    0.0000 C   0  0  0  0  0  0  0  0  0  0  0  0
   -2.7863   -0.5476    0.0000 C   0  0  0  0  0  0  0  0  0  0  0  0
   -1.6432   -1.5189    0.0000 C   0  0  0  0  0  0  0  0  0  0  0  0
   -1.3736   -0.0433    0.0000 C   0  0  0  0  0  0  0  0  0  0  0  0
   -0.2305   -1.0146    0.0000 C   0  0  0  0  0  0  0  0  0  0  0  0
    1.1822   -0.5103    0.0000 C   0  0  0  0  0  0  0  0  0  0  0  0
    1.4518    0.9653    0.0000 C   0  0  0  0  0  0  0  0  0  0  0  0
    2.6902    0.1188    0.0000 C   0  0  0  0  0  0  0  0  0  0  0  0
  2  1  1  6
  2  3  1  0
  3  4  1  0
  4  5  1  0
  5  6  2  0
  5  7  1  0
  2  8  1  0
  8  9  1  6
  9 10  1  0
 11 10  1  6
 11 12  1  0
 12 13  1  1
 13 14  1  0
 15 14  1  1
 15 16  1  0
 16 17  1  6
 16 18  1  0
 18 19  1  1
 18 20  1  0
 20 21  1  0
 21 22  1  0
 22 23  1  6
 22 24  1  0
 24 25  1  6
 25 26  1  0
 26 27  1  0
 27 28  1  6
 27  8  1  0
 27 11  1  0
 24 12  1  0
 22 15  1  0
M  END
>  <MS_ID>  (3534) 
MS3765

>  <SMILES>  (3534) 
C[C@H](CCC(=O)O)[C@H]1CC[C@H]2[C@@H]3CC[C@@H]4[C@@H](O)[C@H](O)CC[C@]4(C)[C@H]3CC[C@]12C

>  <Structure_dimension>  (3534) 
2D

$$$$
MS3766
     RDKit          2D

 29 32  0  0  0  0  0  0  0  0999 V2000
   -5.2182   -2.1453    0.0000 C   0  0  0  0  0  0  0  0  0  0  0  0
   -4.0752   -1.1739    0.0000 C   0  0  0  0  0  0  0  0  0  0  0  0
   -4.3449    0.3016    0.0000 C   0  0  0  0  0  0  0  0  0  0  0  0
   -5.7577    0.8058    0.0000 C   0  0  0  0  0  0  0  0  0  0  0  0
   -6.0274    2.2814    0.0000 C   0  0  0  0  0  0  0  0  0  0  0  0
   -4.8843    3.2527    0.0000 O   0  0  0  0  0  0  0  0  0  0  0  0
   -7.4401    2.7856    0.0000 O   0  0  0  0  0  0  0  0  0  0  0  0
   -2.6625   -1.6782    0.0000 C   0  0  0  0  0  0  0  0  0  0  0  0
   -2.2400   -3.1174    0.0000 C   0  0  0  0  0  0  0  0  0  0  0  0
   -0.7407   -3.1604    0.0000 C   0  0  0  0  0  0  0  0  0  0  0  0
   -0.2364   -1.7477    0.0000 C   0  0  0  0  0  0  0  0  0  0  0  0
    1.1508   -1.1771    0.0000 C   0  0  0  0  0  0  0  0  0  0  0  0
    2.3386   -2.0932    0.0000 C   0  0  0  0  0  0  0  0  0  0  0  0
    2.1391   -3.5798    0.0000 O   0  0  0  0  0  0  0  0  0  0  0  0
    3.7258   -1.5226    0.0000 C   0  0  0  0  0  0  0  0  0  0  0  0
    4.9136   -2.4386    0.0000 O   0  0  0  0  0  0  0  0  0  0  0  0
    3.9253   -0.0359    0.0000 C   0  0  0  0  0  0  0  0  0  0  0  0
    5.3125    0.5347    0.0000 C   0  0  0  0  0  0  0  0  0  0  0  0
    5.5119    2.0214    0.0000 C   0  0  0  0  0  0  0  0  0  0  0  0
    6.8992    2.5920    0.0000 O   0  0  0  0  0  0  0  0  0  0  0  0
    4.3242    2.9375    0.0000 C   0  0  0  0  0  0  0  0  0  0  0  0
    2.9369    2.3669    0.0000 C   0  0  0  0  0  0  0  0  0  0  0  0
    2.7375    0.8802    0.0000 C   0  0  0  0  0  0  0  0  0  0  0  0
    1.5497    1.7963    0.0000 C   0  0  0  0  0  0  0  0  0  0  0  0
    1.3502    0.3096    0.0000 C   0  0  0  0  0  0  0  0  0  0  0  0
    0.1625    1.2257    0.0000 C   0  0  0  0  0  0  0  0  0  0  0  0
   -1.2248    0.6551    0.0000 C   0  0  0  0  0  0  0  0  0  0  0  0
   -1.4242   -0.8316    0.0000 C   0  0  0  0  0  0  0  0  0  0  0  0
   -2.7012   -0.0447    0.0000 C   0  0  0  0  0  0  0  0  0  0  0  0
  2  1  1  6
  2  3  1  0
  3  4  1  0
  4  5  1  0
  5  6  2  0
  5  7  1  0
  2  8  1  0
  8  9  1  6
  9 10  1  0
 11 10  1  6
 11 12  1  0
 12 13  1  1
 13 14  1  1
 13 15  1  0
 15 16  1  6
 15 17  1  0
 17 18  1  6
 18 19  1  0
 19 20  1  1
 19 21  1  0
 21 22  1  0
 22 23  1  0
 23 24  1  6
 23 25  1  0
 25 26  1  6
 26 27  1  0
 27 28  1  0
 28 29  1  6
 28  8  1  0
 28 11  1  0
 25 12  1  0
 23 17  1  0
M  END
>  <MS_ID>  (3535) 
MS3766

>  <SMILES>  (3535) 
C[C@H](CCC(=O)O)[C@H]1CC[C@H]2[C@@H]3[C@H](O)[C@@H](O)[C@H]4C[C@H](O)CC[C@]4(C)[C@H]3CC[C@]12C

>  <Structure_dimension>  (3535) 
2D

$$$$
MS3767
     RDKit          2D

 32 35  0  0  0  0  0  0  0  0999 V2000
   -6.3148   -1.8053    0.0000 C   0  0  0  0  0  0  0  0  0  0  0  0
   -5.0840   -0.9480    0.0000 C   0  0  0  0  0  0  0  0  0  0  0  0
   -5.2110    0.5466    0.0000 C   0  0  0  0  0  0  0  0  0  0  0  0
   -6.5688    1.1840    0.0000 C   0  0  0  0  0  0  0  0  0  0  0  0
   -6.6958    2.6786    0.0000 C   0  0  0  0  0  0  0  0  0  0  0  0
   -5.4650    3.5359    0.0000 O   0  0  0  0  0  0  0  0  0  0  0  0
   -8.0537    3.3159    0.0000 O   0  0  0  0  0  0  0  0  0  0  0  0
   -3.7261   -1.5853    0.0000 C   0  0  0  0  0  0  0  0  0  0  0  0
   -3.4436   -3.0584    0.0000 C   0  0  0  0  0  0  0  0  0  0  0  0
   -1.9552   -3.2450    0.0000 C   0  0  0  0  0  0  0  0  0  0  0  0
   -1.3179   -1.8871    0.0000 C   0  0  0  0  0  0  0  0  0  0  0  0
    0.1177   -1.4521    0.0000 C   0  0  0  0  0  0  0  0  0  0  0  0
    1.2121   -2.4779    0.0000 C   0  0  0  0  0  0  0  0  0  0  0  0
    0.8711   -3.9386    0.0000 O   0  0  0  0  0  0  0  0  0  0  0  0
    2.6477   -2.0429    0.0000 C   0  0  0  0  0  0  0  0  0  0  0  0
    2.9888   -0.5822    0.0000 C   0  0  0  0  0  0  0  0  0  0  0  0
    4.4243   -0.1472    0.0000 C   0  0  0  0  0  0  0  0  0  0  0  0
    4.7654    1.3135    0.0000 C   0  0  0  0  0  0  0  0  0  0  0  0
    6.2009    1.7485    0.0000 O   0  0  0  0  0  0  0  0  0  0  0  0
    7.2954    0.7227    0.0000 P   0  0  0  0  0  0  0  0  0  0  0  0
    8.3211    1.8172    0.0000 O   0  0  0  0  0  0  0  0  0  0  0  0
    6.2697   -0.3717    0.0000 O   0  0  0  0  0  0  0  0  0  0  0  0
    8.3899   -0.3030    0.0000 O   0  0  0  0  0  0  0  0  0  0  0  0
    3.6709    2.3392    0.0000 C   0  0  0  0  0  0  0  0  0  0  0  0
    2.2354    1.9043    0.0000 C   0  0  0  0  0  0  0  0  0  0  0  0
    1.8943    0.4436    0.0000 C   0  0  0  0  0  0  0  0  0  0  0  0
    0.7998    1.4693    0.0000 C   0  0  0  0  0  0  0  0  0  0  0  0
    0.4587    0.0086    0.0000 C   0  0  0  0  0  0  0  0  0  0  0  0
   -0.6357    1.0343    0.0000 C   0  0  0  0  0  0  0  0  0  0  0  0
   -2.0713    0.5993    0.0000 C   0  0  0  0  0  0  0  0  0  0  0  0
   -2.4123   -0.8614    0.0000 C   0  0  0  0  0  0  0  0  0  0  0  0
   -3.6080    0.0444    0.0000 C   0  0  0  0  0  0  0  0  0  0  0  0
  2  1  1  6
  2  3  1  0
  3  4  1  0
  4  5  1  0
  5  6  2  0
  5  7  1  0
  2  8  1  0
  8  9  1  6
  9 10  1  0
 11 10  1  6
 11 12  1  0
 12 13  1  1
 13 14  1  6
 13 15  1  0
 16 15  1  1
 16 17  1  0
 17 18  1  0
 18 19  1  1
 19 20  1  0
 20 21  2  0
 20 22  1  0
 20 23  1  0
 18 24  1  0
 24 25  1  0
 25 26  1  0
 26 27  1  6
 26 28  1  0
 28 29  1  6
 29 30  1  0
 30 31  1  0
 31 32  1  6
 31  8  1  0
 31 11  1  0
 28 12  1  0
 26 16  1  0
M  END
>  <MS_ID>  (3536) 
MS3767

>  <SMILES>  (3536) 
C[C@H](CCC(=O)O)[C@H]1CC[C@H]2[C@@H]3[C@@H](O)C[C@@H]4C[C@H](OP(=O)(O)O)CC[C@]4(C)[C@H]3CC[C@]12C

>  <Structure_dimension>  (3536) 
2D

$$$$
MS3770
     RDKit          2D

 33 36  0  0  0  0  0  0  0  0999 V2000
   -1.9813   -4.3426    0.0000 C   0  0  0  0  0  0  0  0  0  0  0  0
   -1.2397   -3.0388    0.0000 C   0  0  0  0  0  0  0  0  0  0  0  0
   -1.9981   -1.7446    0.0000 C   0  0  0  0  0  0  0  0  0  0  0  0
   -3.4981   -1.7543    0.0000 C   0  0  0  0  0  0  0  0  0  0  0  0
   -4.2565   -0.4602    0.0000 C   0  0  0  0  0  0  0  0  0  0  0  0
   -3.5149    0.8437    0.0000 O   0  0  0  0  0  0  0  0  0  0  0  0
   -5.7564   -0.4699    0.0000 N   0  0  0  0  0  0  0  0  0  0  0  0
   -6.5148    0.8243    0.0000 C   0  0  0  0  0  0  0  0  0  0  0  0
   -8.0148    0.8146    0.0000 C   0  0  0  0  0  0  0  0  0  0  0  0
   -8.7732    2.1088    0.0000 S   0  0  0  0  0  0  0  0  0  0  0  0
  -10.0673    1.3504    0.0000 O   0  0  0  0  0  0  0  0  0  0  0  0
   -7.4790    2.8671    0.0000 O   0  0  0  0  0  0  0  0  0  0  0  0
   -9.5316    3.4029    0.0000 O   0  0  0  0  0  0  0  0  0  0  0  0
    0.2602   -3.0291    0.0000 C   0  0  0  0  0  0  0  0  0  0  0  0
    1.1497   -4.2369    0.0000 C   0  0  0  0  0  0  0  0  0  0  0  0
    2.5733   -3.7641    0.0000 C   0  0  0  0  0  0  0  0  0  0  0  0
    2.5636   -2.2642    0.0000 C   0  0  0  0  0  0  0  0  0  0  0  0
    3.6718   -1.2533    0.0000 C   0  0  0  0  0  0  0  0  0  0  0  0
    5.1013   -1.7076    0.0000 C   0  0  0  0  0  0  0  0  0  0  0  0
    6.2095   -0.6967    0.0000 C   0  0  0  0  0  0  0  0  0  0  0  0
    5.8882    0.7685    0.0000 C   0  0  0  0  0  0  0  0  0  0  0  0
    6.9964    1.7794    0.0000 C   0  0  0  0  0  0  0  0  0  0  0  0
    6.6751    3.2445    0.0000 C   0  0  0  0  0  0  0  0  0  0  0  0
    7.7833    4.2554    0.0000 O   0  0  0  0  0  0  0  0  0  0  0  0
    5.2455    3.6988    0.0000 C   0  0  0  0  0  0  0  0  0  0  0  0
    4.1373    2.6879    0.0000 C   0  0  0  0  0  0  0  0  0  0  0  0
    4.4586    1.2228    0.0000 C   0  0  0  0  0  0  0  0  0  0  0  0
    3.0291    1.6771    0.0000 C   0  0  0  0  0  0  0  0  0  0  0  0
    3.3504    0.2119    0.0000 C   0  0  0  0  0  0  0  0  0  0  0  0
    1.9209    0.6662    0.0000 C   0  0  0  0  0  0  0  0  0  0  0  0
    0.8127   -0.3447    0.0000 C   0  0  0  0  0  0  0  0  0  0  0  0
    1.1340   -1.8099    0.0000 C   0  0  0  0  0  0  0  0  0  0  0  0
   -0.3352   -1.5075    0.0000 C   0  0  0  0  0  0  0  0  0  0  0  0
  2  1  1  1
  2  3  1  0
  3  4  1  0
  4  5  1  0
  5  6  2  0
  5  7  1  0
  7  8  1  0
  8  9  1  0
  9 10  1  0
 10 11  2  0
 10 12  2  0
 10 13  1  0
  2 14  1  0
 14 15  1  6
 15 16  1  0
 17 16  1  6
 17 18  1  0
 18 19  1  1
 19 20  1  0
 21 20  1  1
 21 22  1  0
 22 23  1  0
 23 24  1  1
 23 25  1  0
 25 26  1  0
 26 27  1  0
 27 28  1  6
 27 29  1  0
 29 30  1  6
 30 31  1  0
 31 32  1  0
 32 33  1  6
 32 14  1  0
 32 17  1  0
 29 18  1  0
 27 21  1  0
M  END
>  <MS_ID>  (3537) 
MS3770

>  <SMILES>  (3537) 
C[C@@H](CCC(=O)NCCS(=O)(=O)O)[C@H]1CC[C@H]2[C@@H]3CC[C@@H]4C[C@H](O)CC[C@]4(C)[C@H]3CC[C@]12C

>  <Structure_dimension>  (3537) 
2D

$$$$
MS3771
     RDKit          2D

 27 30  0  0  0  0  0  0  0  0999 V2000
   -4.7316   -2.2462    0.0000 C   0  0  0  0  0  0  0  0  0  0  0  0
   -3.6106   -1.2495    0.0000 C   0  0  0  0  0  0  0  0  0  0  0  0
   -3.9133    0.2196    0.0000 C   0  0  0  0  0  0  0  0  0  0  0  0
   -5.3370    0.6920    0.0000 C   0  0  0  0  0  0  0  0  0  0  0  0
   -5.6397    2.1612    0.0000 C   0  0  0  0  0  0  0  0  0  0  0  0
   -4.5188    3.1579    0.0000 O   0  0  0  0  0  0  0  0  0  0  0  0
   -7.0634    2.6336    0.0000 O   0  0  0  0  0  0  0  0  0  0  0  0
   -2.1870   -1.7219    0.0000 C   0  0  0  0  0  0  0  0  0  0  0  0
   -1.7323   -3.1514    0.0000 C   0  0  0  0  0  0  0  0  0  0  0  0
   -0.2324   -3.1607    0.0000 C   0  0  0  0  0  0  0  0  0  0  0  0
    0.2401   -1.7371    0.0000 C   0  0  0  0  0  0  0  0  0  0  0  0
    1.6141   -1.1355    0.0000 C   0  0  0  0  0  0  0  0  0  0  0  0
    2.8222   -2.0247    0.0000 C   0  0  0  0  0  0  0  0  0  0  0  0
    2.6561   -3.5155    0.0000 O   0  0  0  0  0  0  0  0  0  0  0  0
    4.1962   -1.4232    0.0000 C   0  0  0  0  0  0  0  0  0  0  0  0
    4.3623    0.0676    0.0000 C   0  0  0  0  0  0  0  0  0  0  0  0
    5.7364    0.6691    0.0000 C   0  0  0  0  0  0  0  0  0  0  0  0
    5.9025    2.1599    0.0000 C   0  0  0  0  0  0  0  0  0  0  0  0
    4.6945    3.0491    0.0000 C   0  0  0  0  0  0  0  0  0  0  0  0
    3.3204    2.4476    0.0000 C   0  0  0  0  0  0  0  0  0  0  0  0
    3.1543    0.9568    0.0000 C   0  0  0  0  0  0  0  0  0  0  0  0
    1.9463    1.8460    0.0000 C   0  0  0  0  0  0  0  0  0  0  0  0
    1.7802    0.3553    0.0000 C   0  0  0  0  0  0  0  0  0  0  0  0
    0.5722    1.2445    0.0000 C   0  0  0  0  0  0  0  0  0  0  0  0
   -0.8019    0.6429    0.0000 C   0  0  0  0  0  0  0  0  0  0  0  0
   -0.9680   -0.8478    0.0000 C   0  0  0  0  0  0  0  0  0  0  0  0
   -2.2623   -0.0897    0.0000 C   0  0  0  0  0  0  0  0  0  0  0  0
  2  1  1  6
  2  3  1  0
  3  4  1  0
  4  5  1  0
  5  6  2  0
  5  7  1  0
  2  8  1  0
  8  9  1  6
  9 10  1  0
 11 10  1  6
 11 12  1  0
 12 13  1  1
 13 14  1  6
 13 15  1  0
 16 15  1  6
 16 17  1  0
 17 18  1  0
 18 19  1  0
 19 20  1  0
 20 21  1  0
 21 22  1  6
 21 23  1  0
 23 24  1  6
 24 25  1  0
 25 26  1  0
 26 27  1  6
 26  8  1  0
 26 11  1  0
 23 12  1  0
 21 16  1  0
M  END
>  <MS_ID>  (3538) 
MS3771

>  <SMILES>  (3538) 
C[C@H](CCC(=O)O)[C@H]1CC[C@H]2[C@@H]3[C@@H](O)C[C@H]4CCCC[C@]4(C)[C@H]3CC[C@]12C

>  <Structure_dimension>  (3538) 
2D

$$$$
MS3773
     RDKit          2D

 29 32  0  0  0  0  0  0  0  0999 V2000
   -5.3792   -1.8835    0.0000 C   0  0  0  0  0  0  0  0  0  0  0  0
   -4.2000   -0.9565    0.0000 C   0  0  0  0  0  0  0  0  0  0  0  0
   -4.4132    0.5283    0.0000 C   0  0  0  0  0  0  0  0  0  0  0  0
   -5.8057    1.0860    0.0000 C   0  0  0  0  0  0  0  0  0  0  0  0
   -6.0189    2.5708    0.0000 C   0  0  0  0  0  0  0  0  0  0  0  0
   -7.4114    3.1285    0.0000 O   0  0  0  0  0  0  0  0  0  0  0  0
   -2.8075   -1.5142    0.0000 C   0  0  0  0  0  0  0  0  0  0  0  0
   -2.4403   -2.9685    0.0000 C   0  0  0  0  0  0  0  0  0  0  0  0
   -0.9436   -3.0687    0.0000 C   0  0  0  0  0  0  0  0  0  0  0  0
   -0.3859   -1.6762    0.0000 C   0  0  0  0  0  0  0  0  0  0  0  0
    1.0221   -1.1589    0.0000 C   0  0  0  0  0  0  0  0  0  0  0  0
    2.1741   -2.1196    0.0000 C   0  0  0  0  0  0  0  0  0  0  0  0
    1.9180   -3.5976    0.0000 O   0  0  0  0  0  0  0  0  0  0  0  0
    3.5820   -1.6024    0.0000 C   0  0  0  0  0  0  0  0  0  0  0  0
    4.7340   -2.5631    0.0000 O   0  0  0  0  0  0  0  0  0  0  0  0
    3.8381   -0.1244    0.0000 C   0  0  0  0  0  0  0  0  0  0  0  0
    5.2461    0.3929    0.0000 C   0  0  0  0  0  0  0  0  0  0  0  0
    5.5021    1.8709    0.0000 C   0  0  0  0  0  0  0  0  0  0  0  0
    6.9101    2.3882    0.0000 O   0  0  0  0  0  0  0  0  0  0  0  0
    4.3501    2.8316    0.0000 C   0  0  0  0  0  0  0  0  0  0  0  0
    2.9421    2.3143    0.0000 C   0  0  0  0  0  0  0  0  0  0  0  0
    2.6861    0.8363    0.0000 C   0  0  0  0  0  0  0  0  0  0  0  0
    1.5341    1.7971    0.0000 C   0  0  0  0  0  0  0  0  0  0  0  0
    1.2781    0.3191    0.0000 C   0  0  0  0  0  0  0  0  0  0  0  0
    0.1261    1.2798    0.0000 C   0  0  0  0  0  0  0  0  0  0  0  0
   -1.2818    0.7625    0.0000 C   0  0  0  0  0  0  0  0  0  0  0  0
   -2.4338    1.7232    0.0000 O   0  0  0  0  0  0  0  0  0  0  0  0
   -1.5379   -0.7155    0.0000 C   0  0  0  0  0  0  0  0  0  0  0  0
   -2.7839    0.1196    0.0000 C   0  0  0  0  0  0  0  0  0  0  0  0
  2  1  1  6
  2  3  1  0
  3  4  1  0
  4  5  1  0
  5  6  2  0
  2  7  1  0
  7  8  1  6
  8  9  1  0
 10  9  1  6
 10 11  1  0
 11 12  1  1
 12 13  1  1
 12 14  1  0
 14 15  1  6
 14 16  1  0
 16 17  1  1
 17 18  1  0
 18 19  1  1
 18 20  1  0
 20 21  1  0
 21 22  1  0
 22 23  1  6
 22 24  1  0
 24 25  1  6
 25 26  1  0
 26 27  1  1
 26 28  1  0
 28 29  1  6
 28  7  1  0
 28 10  1  0
 24 11  1  0
 22 16  1  0
M  END
>  <MS_ID>  (3539) 
MS3773

>  <SMILES>  (3539) 
C[C@H](CCC=O)[C@H]1CC[C@H]2[C@@H]3[C@H](O)[C@@H](O)[C@@H]4C[C@H](O)CC[C@]4(C)[C@H]3C[C@H](O)[C@]12C

>  <Structure_dimension>  (3539) 
2D

$$$$
MS3775
     RDKit          2D

 34 37  0  0  0  0  0  0  0  0999 V2000
   -2.0431   -4.2971    0.0000 C   0  0  0  0  0  0  0  0  0  0  0  0
   -1.3315   -2.9767    0.0000 C   0  0  0  0  0  0  0  0  0  0  0  0
   -2.1193   -1.7002    0.0000 C   0  0  0  0  0  0  0  0  0  0  0  0
   -3.6187   -1.7442    0.0000 C   0  0  0  0  0  0  0  0  0  0  0  0
   -4.4064   -0.4677    0.0000 C   0  0  0  0  0  0  0  0  0  0  0  0
   -3.6948    0.8528    0.0000 O   0  0  0  0  0  0  0  0  0  0  0  0
   -5.9058   -0.5117    0.0000 N   0  0  0  0  0  0  0  0  0  0  0  0
   -6.6936    0.7648    0.0000 C   0  0  0  0  0  0  0  0  0  0  0  0
   -8.1929    0.7208    0.0000 C   0  0  0  0  0  0  0  0  0  0  0  0
   -8.9807    1.9973    0.0000 S   0  0  0  0  0  0  0  0  0  0  0  0
  -10.2572    1.2096    0.0000 O   0  0  0  0  0  0  0  0  0  0  0  0
   -7.7042    2.7851    0.0000 O   0  0  0  0  0  0  0  0  0  0  0  0
   -9.7684    3.2738    0.0000 O   0  0  0  0  0  0  0  0  0  0  0  0
    0.1678   -2.9327    0.0000 C   0  0  0  0  0  0  0  0  0  0  0  0
    1.0847   -4.1198    0.0000 C   0  0  0  0  0  0  0  0  0  0  0  0
    2.4971   -3.6147    0.0000 C   0  0  0  0  0  0  0  0  0  0  0  0
    2.4531   -2.1153    0.0000 C   0  0  0  0  0  0  0  0  0  0  0  0
    3.5379   -1.0794    0.0000 C   0  0  0  0  0  0  0  0  0  0  0  0
    4.9775   -1.5009    0.0000 C   0  0  0  0  0  0  0  0  0  0  0  0
    5.3322   -2.9583    0.0000 O   0  0  0  0  0  0  0  0  0  0  0  0
    6.0623   -0.4649    0.0000 C   0  0  0  0  0  0  0  0  0  0  0  0
    5.7075    0.9925    0.0000 C   0  0  0  0  0  0  0  0  0  0  0  0
    6.7923    2.0285    0.0000 C   0  0  0  0  0  0  0  0  0  0  0  0
    6.4376    3.4859    0.0000 C   0  0  0  0  0  0  0  0  0  0  0  0
    7.5224    4.5219    0.0000 O   0  0  0  0  0  0  0  0  0  0  0  0
    4.9980    3.9074    0.0000 C   0  0  0  0  0  0  0  0  0  0  0  0
    3.9132    2.8715    0.0000 C   0  0  0  0  0  0  0  0  0  0  0  0
    4.2680    1.4140    0.0000 C   0  0  0  0  0  0  0  0  0  0  0  0
    2.8284    1.8355    0.0000 C   0  0  0  0  0  0  0  0  0  0  0  0
    3.1831    0.3781    0.0000 C   0  0  0  0  0  0  0  0  0  0  0  0
    1.7436    0.7996    0.0000 C   0  0  0  0  0  0  0  0  0  0  0  0
    0.6588   -0.2364    0.0000 C   0  0  0  0  0  0  0  0  0  0  0  0
    1.0135   -1.6938    0.0000 C   0  0  0  0  0  0  0  0  0  0  0  0
   -0.4622   -1.4251    0.0000 C   0  0  0  0  0  0  0  0  0  0  0  0
  2  1  1  6
  2  3  1  0
  3  4  1  0
  4  5  1  0
  5  6  2  0
  5  7  1  0
  7  8  1  0
  8  9  1  0
  9 10  1  0
 10 11  2  0
 10 12  2  0
 10 13  1  0
  2 14  1  0
 14 15  1  6
 15 16  1  0
 17 16  1  6
 17 18  1  0
 18 19  1  1
 19 20  1  6
 19 21  1  0
 22 21  1  6
 22 23  1  0
 23 24  1  0
 24 25  1  1
 24 26  1  0
 26 27  1  0
 27 28  1  0
 28 29  1  6
 28 30  1  0
 30 31  1  6
 31 32  1  0
 32 33  1  0
 33 34  1  6
 33 14  1  0
 33 17  1  0
 30 18  1  0
 28 22  1  0
M  END
>  <MS_ID>  (3540) 
MS3775

>  <SMILES>  (3540) 
C[C@H](CCC(=O)NCCS(=O)(=O)O)[C@H]1CC[C@H]2[C@@H]3[C@@H](O)C[C@H]4C[C@H](O)CC[C@]4(C)[C@H]3CC[C@]12C

>  <Structure_dimension>  (3540) 
2D

$$$$
MS3777
     RDKit          2D

 38 42  0  0  0  0  0  0  0  0999 V2000
   -0.7712   -4.7706    0.0000 C   0  0  0  0  0  0  0  0  0  0  0  0
   -0.2076   -3.3806    0.0000 C   0  0  0  0  0  0  0  0  0  0  0  0
   -1.1296   -2.1974    0.0000 C   0  0  0  0  0  0  0  0  0  0  0  0
   -2.6152   -2.4043    0.0000 C   0  0  0  0  0  0  0  0  0  0  0  0
   -3.5372   -1.2211    0.0000 C   0  0  0  0  0  0  0  0  0  0  0  0
   -2.9736    0.1690    0.0000 O   0  0  0  0  0  0  0  0  0  0  0  0
   -5.0229   -1.4280    0.0000 N   0  0  0  0  0  0  0  0  0  0  0  0
   -5.9449   -0.2448    0.0000 C   0  0  0  0  0  0  0  0  0  0  0  0
   -7.4306   -0.4517    0.0000 C   0  0  0  0  0  0  0  0  0  0  0  0
   -8.3526    0.7315    0.0000 C   0  0  0  0  0  0  0  0  0  0  0  0
   -9.8517    0.6810    0.0000 C   0  0  0  0  0  0  0  0  0  0  0  0
  -10.3630    2.0912    0.0000 N   0  0  0  0  0  0  0  0  0  0  0  0
   -9.1798    3.0132    0.0000 C   0  0  0  0  0  0  0  0  0  0  0  0
   -7.9373    2.1729    0.0000 N   0  0  0  0  0  0  0  0  0  0  0  0
   -5.3812    1.1453    0.0000 C   0  0  0  0  0  0  0  0  0  0  0  0
   -3.8956    1.3522    0.0000 O   0  0  0  0  0  0  0  0  0  0  0  0
   -6.3032    2.3285    0.0000 O   0  0  0  0  0  0  0  0  0  0  0  0
    1.2781   -3.1737    0.0000 C   0  0  0  0  0  0  0  0  0  0  0  0
    2.3187   -4.2540    0.0000 C   0  0  0  0  0  0  0  0  0  0  0  0
    3.6677   -3.5981    0.0000 C   0  0  0  0  0  0  0  0  0  0  0  0
    3.4608   -2.1125    0.0000 C   0  0  0  0  0  0  0  0  0  0  0  0
    4.4265   -0.9646    0.0000 C   0  0  0  0  0  0  0  0  0  0  0  0
    5.9034   -1.2270    0.0000 C   0  0  0  0  0  0  0  0  0  0  0  0
    6.4146   -2.6372    0.0000 O   0  0  0  0  0  0  0  0  0  0  0  0
    6.8690   -0.0791    0.0000 C   0  0  0  0  0  0  0  0  0  0  0  0
    6.3577    1.3311    0.0000 C   0  0  0  0  0  0  0  0  0  0  0  0
    7.3234    2.4789    0.0000 C   0  0  0  0  0  0  0  0  0  0  0  0
    6.8121    3.8891    0.0000 C   0  0  0  0  0  0  0  0  0  0  0  0
    7.7777    5.0369    0.0000 O   0  0  0  0  0  0  0  0  0  0  0  0
    5.3352    4.1514    0.0000 C   0  0  0  0  0  0  0  0  0  0  0  0
    4.3696    3.0036    0.0000 C   0  0  0  0  0  0  0  0  0  0  0  0
    4.8809    1.5934    0.0000 C   0  0  0  0  0  0  0  0  0  0  0  0
    3.4040    1.8557    0.0000 C   0  0  0  0  0  0  0  0  0  0  0  0
    3.9152    0.4456    0.0000 C   0  0  0  0  0  0  0  0  0  0  0  0
    2.4383    0.7079    0.0000 C   0  0  0  0  0  0  0  0  0  0  0  0
    1.4727   -0.4400    0.0000 C   0  0  0  0  0  0  0  0  0  0  0  0
    1.9840   -1.8501    0.0000 C   0  0  0  0  0  0  0  0  0  0  0  0
    0.4877   -1.7436    0.0000 C   0  0  0  0  0  0  0  0  0  0  0  0
  2  1  1  6
  2  3  1  0
  3  4  1  0
  4  5  1  0
  5  6  2  0
  5  7  1  0
  7  8  1  0
  8  9  1  1
  9 10  1  0
 10 11  2  0
 11 12  1  0
 12 13  2  0
 13 14  1  0
  8 15  1  0
 15 16  2  0
 15 17  1  0
  2 18  1  0
 18 19  1  6
 19 20  1  0
 21 20  1  6
 21 22  1  0
 22 23  1  1
 23 24  1  1
 23 25  1  0
 26 25  1  1
 26 27  1  0
 27 28  1  0
 28 29  1  1
 28 30  1  0
 30 31  1  0
 31 32  1  0
 32 33  1  6
 32 34  1  0
 34 35  1  6
 35 36  1  0
 36 37  1  0
 37 38  1  6
 14 10  1  0
 37 18  1  0
 37 21  1  0
 34 22  1  0
 32 26  1  0
M  END
>  <MS_ID>  (3541) 
MS3777

>  <SMILES>  (3541) 
C[C@H](CCC(=O)N[C@@H](Cc1cnc[nH]1)C(=O)O)[C@H]1CC[C@H]2[C@@H]3[C@H](O)C[C@@H]4C[C@H](O)CC[C@]4(C)[C@H]3CC[C@]12C

>  <Structure_dimension>  (3541) 
2D

$$$$
MS3778
     RDKit          2D

 37 40  0  0  0  0  0  0  0  0999 V2000
   -1.2430   -4.5204    0.0000 C   0  0  0  0  0  0  0  0  0  0  0  0
   -0.5890   -3.1705    0.0000 C   0  0  0  0  0  0  0  0  0  0  0  0
   -1.4310   -1.9291    0.0000 C   0  0  0  0  0  0  0  0  0  0  0  0
   -2.9270   -2.0376    0.0000 C   0  0  0  0  0  0  0  0  0  0  0  0
   -3.7690   -0.7962    0.0000 C   0  0  0  0  0  0  0  0  0  0  0  0
   -3.1150    0.5537    0.0000 O   0  0  0  0  0  0  0  0  0  0  0  0
   -5.2651   -0.9047    0.0000 N   0  0  0  0  0  0  0  0  0  0  0  0
   -6.1071    0.3366    0.0000 C   0  0  0  0  0  0  0  0  0  0  0  0
   -7.6032    0.2281    0.0000 C   0  0  0  0  0  0  0  0  0  0  0  0
   -8.4452    1.4695    0.0000 C   0  0  0  0  0  0  0  0  0  0  0  0
   -9.9413    1.3610    0.0000 C   0  0  0  0  0  0  0  0  0  0  0  0
  -10.5953    0.0111    0.0000 O   0  0  0  0  0  0  0  0  0  0  0  0
  -10.7833    2.6024    0.0000 O   0  0  0  0  0  0  0  0  0  0  0  0
   -5.4531    1.6865    0.0000 C   0  0  0  0  0  0  0  0  0  0  0  0
   -3.9570    1.7950    0.0000 O   0  0  0  0  0  0  0  0  0  0  0  0
   -6.2951    2.9279    0.0000 O   0  0  0  0  0  0  0  0  0  0  0  0
    0.9071   -3.0620    0.0000 C   0  0  0  0  0  0  0  0  0  0  0  0
    1.8742   -4.2086    0.0000 C   0  0  0  0  0  0  0  0  0  0  0  0
    3.2636   -3.6431    0.0000 C   0  0  0  0  0  0  0  0  0  0  0  0
    3.1551   -2.1470    0.0000 C   0  0  0  0  0  0  0  0  0  0  0  0
    4.1943   -1.0653    0.0000 C   0  0  0  0  0  0  0  0  0  0  0  0
    5.6506   -1.4244    0.0000 C   0  0  0  0  0  0  0  0  0  0  0  0
    6.0678   -2.8652    0.0000 O   0  0  0  0  0  0  0  0  0  0  0  0
    6.6898   -0.3427    0.0000 C   0  0  0  0  0  0  0  0  0  0  0  0
    6.2726    1.0981    0.0000 C   0  0  0  0  0  0  0  0  0  0  0  0
    7.3118    2.1798    0.0000 C   0  0  0  0  0  0  0  0  0  0  0  0
    6.8946    3.6206    0.0000 C   0  0  0  0  0  0  0  0  0  0  0  0
    7.9338    4.7023    0.0000 O   0  0  0  0  0  0  0  0  0  0  0  0
    5.4383    3.9798    0.0000 C   0  0  0  0  0  0  0  0  0  0  0  0
    4.3991    2.8981    0.0000 C   0  0  0  0  0  0  0  0  0  0  0  0
    4.8163    1.4572    0.0000 C   0  0  0  0  0  0  0  0  0  0  0  0
    3.3599    1.8164    0.0000 C   0  0  0  0  0  0  0  0  0  0  0  0
    3.7771    0.3755    0.0000 C   0  0  0  0  0  0  0  0  0  0  0  0
    2.3207    0.7347    0.0000 C   0  0  0  0  0  0  0  0  0  0  0  0
    1.2815   -0.3470    0.0000 C   0  0  0  0  0  0  0  0  0  0  0  0
    1.6987   -1.7879    0.0000 C   0  0  0  0  0  0  0  0  0  0  0  0
    0.2127   -1.5829    0.0000 C   0  0  0  0  0  0  0  0  0  0  0  0
  2  1  1  6
  2  3  1  0
  3  4  1  0
  4  5  1  0
  5  6  2  0
  5  7  1  0
  7  8  1  0
  8  9  1  1
  9 10  1  0
 10 11  1  0
 11 12  2  0
 11 13  1  0
  8 14  1  0
 14 15  2  0
 14 16  1  0
  2 17  1  0
 17 18  1  6
 18 19  1  0
 20 19  1  6
 20 21  1  0
 21 22  1  1
 22 23  1  6
 22 24  1  0
 25 24  1  1
 25 26  1  0
 26 27  1  0
 27 28  1  1
 27 29  1  0
 29 30  1  0
 30 31  1  0
 31 32  1  6
 31 33  1  0
 33 34  1  6
 34 35  1  0
 35 36  1  0
 36 37  1  6
 36 17  1  0
 36 20  1  0
 33 21  1  0
 31 25  1  0
M  END
>  <MS_ID>  (3542) 
MS3778

>  <SMILES>  (3542) 
C[C@H](CCC(=O)N[C@@H](CCC(=O)O)C(=O)O)[C@H]1CC[C@H]2[C@@H]3[C@@H](O)C[C@@H]4C[C@H](O)CC[C@]4(C)[C@H]3CC[C@]12C

>  <Structure_dimension>  (3542) 
2D

$$$$
MS3779
     RDKit          2D

 29 32  0  0  0  0  0  0  0  0999 V2000
   -5.2182   -2.1453    0.0000 C   0  0  0  0  0  0  0  0  0  0  0  0
   -4.0752   -1.1739    0.0000 C   0  0  0  0  0  0  0  0  0  0  0  0
   -4.3449    0.3016    0.0000 C   0  0  0  0  0  0  0  0  0  0  0  0
   -5.7577    0.8058    0.0000 C   0  0  0  0  0  0  0  0  0  0  0  0
   -6.0274    2.2814    0.0000 C   0  0  0  0  0  0  0  0  0  0  0  0
   -4.8843    3.2527    0.0000 O   0  0  0  0  0  0  0  0  0  0  0  0
   -7.4401    2.7856    0.0000 O   0  0  0  0  0  0  0  0  0  0  0  0
   -2.6625   -1.6782    0.0000 C   0  0  0  0  0  0  0  0  0  0  0  0
   -2.2400   -3.1174    0.0000 C   0  0  0  0  0  0  0  0  0  0  0  0
   -0.7407   -3.1604    0.0000 C   0  0  0  0  0  0  0  0  0  0  0  0
   -0.2364   -1.7477    0.0000 C   0  0  0  0  0  0  0  0  0  0  0  0
    1.1508   -1.1771    0.0000 C   0  0  0  0  0  0  0  0  0  0  0  0
    2.3386   -2.0932    0.0000 C   0  0  0  0  0  0  0  0  0  0  0  0
    2.1391   -3.5798    0.0000 O   0  0  0  0  0  0  0  0  0  0  0  0
    3.7258   -1.5226    0.0000 C   0  0  0  0  0  0  0  0  0  0  0  0
    4.9136   -2.4386    0.0000 O   0  0  0  0  0  0  0  0  0  0  0  0
    3.9253   -0.0359    0.0000 C   0  0  0  0  0  0  0  0  0  0  0  0
    5.3125    0.5347    0.0000 C   0  0  0  0  0  0  0  0  0  0  0  0
    5.5119    2.0214    0.0000 C   0  0  0  0  0  0  0  0  0  0  0  0
    6.8992    2.5920    0.0000 O   0  0  0  0  0  0  0  0  0  0  0  0
    4.3242    2.9375    0.0000 C   0  0  0  0  0  0  0  0  0  0  0  0
    2.9369    2.3669    0.0000 C   0  0  0  0  0  0  0  0  0  0  0  0
    2.7375    0.8802    0.0000 C   0  0  0  0  0  0  0  0  0  0  0  0
    1.5497    1.7963    0.0000 C   0  0  0  0  0  0  0  0  0  0  0  0
    1.3502    0.3096    0.0000 C   0  0  0  0  0  0  0  0  0  0  0  0
    0.1625    1.2257    0.0000 C   0  0  0  0  0  0  0  0  0  0  0  0
   -1.2248    0.6551    0.0000 C   0  0  0  0  0  0  0  0  0  0  0  0
   -1.4242   -0.8316    0.0000 C   0  0  0  0  0  0  0  0  0  0  0  0
   -2.7012   -0.0447    0.0000 C   0  0  0  0  0  0  0  0  0  0  0  0
  2  1  1  6
  2  3  1  0
  3  4  1  0
  4  5  1  0
  5  6  2  0
  5  7  1  0
  2  8  1  0
  8  9  1  6
  9 10  1  0
 11 10  1  6
 11 12  1  0
 12 13  1  1
 13 14  2  0
 13 15  1  0
 15 16  1  6
 15 17  1  0
 17 18  1  1
 18 19  1  0
 19 20  1  1
 19 21  1  0
 21 22  1  0
 22 23  1  0
 23 24  1  6
 23 25  1  0
 25 26  1  6
 26 27  1  0
 27 28  1  0
 28 29  1  6
 28  8  1  0
 28 11  1  0
 25 12  1  0
 23 17  1  0
M  END
>  <MS_ID>  (3543) 
MS3779

>  <SMILES>  (3543) 
C[C@H](CCC(=O)O)[C@H]1CC[C@H]2[C@@H]3C(=O)[C@@H](O)[C@@H]4C[C@H](O)CC[C@]4(C)[C@H]3CC[C@]12C

>  <Structure_dimension>  (3543) 
2D

$$$$
MS3780
     RDKit          2D

 32 35  0  0  0  0  0  0  0  0999 V2000
   -3.1421   -3.6694    0.0000 C   0  0  0  0  0  0  0  0  0  0  0  0
   -2.2628   -2.4541    0.0000 C   0  0  0  0  0  0  0  0  0  0  0  0
   -2.8756   -1.0850    0.0000 C   0  0  0  0  0  0  0  0  0  0  0  0
   -4.3676   -0.9311    0.0000 C   0  0  0  0  0  0  0  0  0  0  0  0
   -4.9804    0.4380    0.0000 C   0  0  0  0  0  0  0  0  0  0  0  0
   -4.1011    1.6532    0.0000 O   0  0  0  0  0  0  0  0  0  0  0  0
   -6.4725    0.5919    0.0000 N   0  0  0  0  0  0  0  0  0  0  0  0
   -7.0853    1.9610    0.0000 C   0  0  0  0  0  0  0  0  0  0  0  0
   -8.5774    2.1149    0.0000 C   0  0  0  0  0  0  0  0  0  0  0  0
   -9.4567    0.8996    0.0000 O   0  0  0  0  0  0  0  0  0  0  0  0
   -9.1901    3.4840    0.0000 O   0  0  0  0  0  0  0  0  0  0  0  0
   -0.7707   -2.6080    0.0000 C   0  0  0  0  0  0  0  0  0  0  0  0
   -0.0182   -3.9056    0.0000 C   0  0  0  0  0  0  0  0  0  0  0  0
    1.4484   -3.5909    0.0000 C   0  0  0  0  0  0  0  0  0  0  0  0
    1.6023   -2.0988    0.0000 C   0  0  0  0  0  0  0  0  0  0  0  0
    2.8141   -1.2147    0.0000 C   0  0  0  0  0  0  0  0  0  0  0  0
    4.1856   -1.8222    0.0000 C   0  0  0  0  0  0  0  0  0  0  0  0
    4.3453   -3.3136    0.0000 O   0  0  0  0  0  0  0  0  0  0  0  0
    5.3974   -0.9381    0.0000 C   0  0  0  0  0  0  0  0  0  0  0  0
    5.2377    0.5533    0.0000 C   0  0  0  0  0  0  0  0  0  0  0  0
    6.4495    1.4374    0.0000 C   0  0  0  0  0  0  0  0  0  0  0  0
    6.2898    2.9289    0.0000 C   0  0  0  0  0  0  0  0  0  0  0  0
    7.5016    3.8129    0.0000 O   0  0  0  0  0  0  0  0  0  0  0  0
    4.9183    3.5363    0.0000 C   0  0  0  0  0  0  0  0  0  0  0  0
    3.7065    2.6522    0.0000 C   0  0  0  0  0  0  0  0  0  0  0  0
    3.8662    1.1608    0.0000 C   0  0  0  0  0  0  0  0  0  0  0  0
    2.4947    1.7682    0.0000 C   0  0  0  0  0  0  0  0  0  0  0  0
    2.6544    0.2767    0.0000 C   0  0  0  0  0  0  0  0  0  0  0  0
    1.2829    0.8842    0.0000 C   0  0  0  0  0  0  0  0  0  0  0  0
    0.0711    0.0001    0.0000 C   0  0  0  0  0  0  0  0  0  0  0  0
    0.2308   -1.4914    0.0000 C   0  0  0  0  0  0  0  0  0  0  0  0
   -1.1967   -1.0306    0.0000 C   0  0  0  0  0  0  0  0  0  0  0  0
  2  1  1  6
  2  3  1  0
  3  4  1  0
  4  5  1  0
  5  6  2  0
  5  7  1  0
  7  8  1  0
  8  9  1  0
  9 10  2  0
  9 11  1  0
  2 12  1  0
 12 13  1  6
 13 14  1  0
 15 14  1  6
 15 16  1  0
 16 17  1  1
 17 18  1  6
 17 19  1  0
 20 19  1  6
 20 21  1  0
 21 22  1  0
 22 23  1  1
 22 24  1  0
 24 25  1  0
 25 26  1  0
 26 27  1  6
 26 28  1  0
 28 29  1  6
 29 30  1  0
 30 31  1  0
 31 32  1  6
 31 12  1  0
 31 15  1  0
 28 16  1  0
 26 20  1  0
M  END
>  <MS_ID>  (3544) 
MS3780

>  <SMILES>  (3544) 
C[C@H](CCC(=O)NCC(=O)O)[C@H]1CC[C@H]2[C@@H]3[C@@H](O)C[C@H]4C[C@H](O)CC[C@]4(C)[C@H]3CC[C@]12C

>  <Structure_dimension>  (3544) 
2D

$$$$
MS3782
     RDKit          2D

 28 31  0  0  0  0  0  0  0  0999 V2000
   -5.1936   -2.1523    0.0000 C   0  0  0  0  0  0  0  0  0  0  0  0
   -4.0282   -1.2079    0.0000 C   0  0  0  0  0  0  0  0  0  0  0  0
   -4.2633    0.2735    0.0000 C   0  0  0  0  0  0  0  0  0  0  0  0
   -5.6638    0.8107    0.0000 C   0  0  0  0  0  0  0  0  0  0  0  0
   -5.8990    2.2921    0.0000 C   0  0  0  0  0  0  0  0  0  0  0  0
   -4.7335    3.2365    0.0000 O   0  0  0  0  0  0  0  0  0  0  0  0
   -7.2995    2.8292    0.0000 O   0  0  0  0  0  0  0  0  0  0  0  0
   -2.6276   -1.7450    0.0000 C   0  0  0  0  0  0  0  0  0  0  0  0
   -2.2390   -3.1938    0.0000 C   0  0  0  0  0  0  0  0  0  0  0  0
   -0.7410   -3.2718    0.0000 C   0  0  0  0  0  0  0  0  0  0  0  0
   -0.2039   -1.8713    0.0000 C   0  0  0  0  0  0  0  0  0  0  0  0
    1.1963   -1.3333    0.0000 C   0  0  0  0  0  0  0  0  0  0  0  0
    2.3623   -2.2769    0.0000 C   0  0  0  0  0  0  0  0  0  0  0  0
    3.7625   -1.7389    0.0000 C   0  0  0  0  0  0  0  0  0  0  0  0
    4.9286   -2.6825    0.0000 O   0  0  0  0  0  0  0  0  0  0  0  0
    3.9967   -0.2573    0.0000 C   0  0  0  0  0  0  0  0  0  0  0  0
    5.3969    0.2807    0.0000 C   0  0  0  0  0  0  0  0  0  0  0  0
    5.6311    1.7623    0.0000 C   0  0  0  0  0  0  0  0  0  0  0  0
    7.0313    2.3003    0.0000 O   0  0  0  0  0  0  0  0  0  0  0  0
    4.4651    2.7059    0.0000 C   0  0  0  0  0  0  0  0  0  0  0  0
    3.0649    2.1679    0.0000 C   0  0  0  0  0  0  0  0  0  0  0  0
    2.8307    0.6863    0.0000 C   0  0  0  0  0  0  0  0  0  0  0  0
    1.6647    1.6299    0.0000 C   0  0  0  0  0  0  0  0  0  0  0  0
    1.4305    0.1483    0.0000 C   0  0  0  0  0  0  0  0  0  0  0  0
    0.2645    1.0919    0.0000 C   0  0  0  0  0  0  0  0  0  0  0  0
   -1.1357    0.5539    0.0000 C   0  0  0  0  0  0  0  0  0  0  0  0
   -1.3699   -0.9277    0.0000 C   0  0  0  0  0  0  0  0  0  0  0  0
   -2.6282   -0.1111    0.0000 C   0  0  0  0  0  0  0  0  0  0  0  0
  2  1  1  6
  2  3  1  0
  3  4  1  0
  4  5  1  0
  5  6  2  0
  5  7  1  0
  2  8  1  0
  8  9  1  6
  9 10  1  0
 11 10  1  6
 11 12  1  0
 12 13  1  1
 13 14  1  0
 14 15  1  6
 14 16  1  0
 16 17  1  6
 17 18  1  0
 18 19  1  6
 18 20  1  0
 20 21  1  0
 21 22  1  0
 22 23  1  6
 22 24  1  0
 24 25  1  6
 25 26  1  0
 26 27  1  0
 27 28  1  6
 27  8  1  0
 27 11  1  0
 24 12  1  0
 22 16  1  0
M  END
>  <MS_ID>  (3545) 
MS3782

>  <SMILES>  (3545) 
C[C@H](CCC(=O)O)[C@H]1CC[C@H]2[C@@H]3C[C@@H](O)[C@H]4C[C@@H](O)CC[C@]4(C)[C@H]3CC[C@]12C

>  <Structure_dimension>  (3545) 
2D

$$$$
MS3783
     RDKit          2D

 29 32  0  0  0  0  0  0  0  0999 V2000
   -5.0303   -2.1373    0.0000 C   0  0  0  0  0  0  0  0  0  0  0  0
   -3.8594   -1.1998    0.0000 C   0  0  0  0  0  0  0  0  0  0  0  0
   -4.0858    0.2830    0.0000 C   0  0  0  0  0  0  0  0  0  0  0  0
   -5.4831    0.8284    0.0000 C   0  0  0  0  0  0  0  0  0  0  0  0
   -5.7095    2.3112    0.0000 C   0  0  0  0  0  0  0  0  0  0  0  0
   -4.5386    3.2487    0.0000 O   0  0  0  0  0  0  0  0  0  0  0  0
   -7.1069    2.8565    0.0000 O   0  0  0  0  0  0  0  0  0  0  0  0
   -2.4620   -1.7451    0.0000 C   0  0  0  0  0  0  0  0  0  0  0  0
   -2.0818   -3.1961    0.0000 C   0  0  0  0  0  0  0  0  0  0  0  0
   -0.5844   -3.2830    0.0000 C   0  0  0  0  0  0  0  0  0  0  0  0
   -0.0390   -1.8856    0.0000 C   0  0  0  0  0  0  0  0  0  0  0  0
    1.3643   -1.3559    0.0000 C   0  0  0  0  0  0  0  0  0  0  0  0
    2.5248   -2.3063    0.0000 C   0  0  0  0  0  0  0  0  0  0  0  0
    2.2819   -3.7865    0.0000 O   0  0  0  0  0  0  0  0  0  0  0  0
    3.9281   -1.7765    0.0000 C   0  0  0  0  0  0  0  0  0  0  0  0
    4.1710   -0.2963    0.0000 C   0  0  0  0  0  0  0  0  0  0  0  0
    5.5743    0.2334    0.0000 C   0  0  0  0  0  0  0  0  0  0  0  0
    5.8172    1.7136    0.0000 C   0  0  0  0  0  0  0  0  0  0  0  0
    7.2205    2.2434    0.0000 I   0  0  0  0  0  0  0  0  0  0  0  0
    4.6568    2.6641    0.0000 C   0  0  0  0  0  0  0  0  0  0  0  0
    3.2534    2.1343    0.0000 C   0  0  0  0  0  0  0  0  0  0  0  0
    3.0105    0.6541    0.0000 C   0  0  0  0  0  0  0  0  0  0  0  0
    1.8501    1.6046    0.0000 C   0  0  0  0  0  0  0  0  0  0  0  0
    1.6072    0.1244    0.0000 C   0  0  0  0  0  0  0  0  0  0  0  0
    0.4467    1.0748    0.0000 C   0  0  0  0  0  0  0  0  0  0  0  0
   -0.9566    0.5450    0.0000 C   0  0  0  0  0  0  0  0  0  0  0  0
   -2.1170    1.4955    0.0000 O   0  0  0  0  0  0  0  0  0  0  0  0
   -1.1995   -0.9352    0.0000 C   0  0  0  0  0  0  0  0  0  0  0  0
   -2.4529   -0.1112    0.0000 C   0  0  0  0  0  0  0  0  0  0  0  0
  2  1  1  6
  2  3  1  0
  3  4  1  0
  4  5  1  0
  5  6  2  0
  5  7  1  0
  2  8  1  0
  8  9  1  6
  9 10  1  0
 11 10  1  6
 11 12  1  0
 12 13  1  1
 13 14  1  1
 13 15  1  0
 16 15  1  1
 16 17  1  0
 17 18  1  0
 18 19  1  1
 18 20  1  0
 20 21  1  0
 21 22  1  0
 22 23  1  6
 22 24  1  0
 24 25  1  6
 25 26  1  0
 26 27  1  1
 26 28  1  0
 28 29  1  6
 28  8  1  0
 28 11  1  0
 24 12  1  0
 22 16  1  0
M  END
>  <MS_ID>  (3546) 
MS3783

>  <SMILES>  (3546) 
C[C@H](CCC(=O)O)[C@H]1CC[C@H]2[C@@H]3[C@H](O)C[C@@H]4C[C@H](I)CC[C@]4(C)[C@H]3C[C@H](O)[C@]12C

>  <Structure_dimension>  (3546) 
2D

$$$$
MS3784
     RDKit          2D

 35 38  0  0  0  0  0  0  0  0999 V2000
   -2.0200   -4.3028    0.0000 C   0  0  0  0  0  0  0  0  0  0  0  0
   -1.3087   -2.9822    0.0000 C   0  0  0  0  0  0  0  0  0  0  0  0
   -2.0967   -1.7059    0.0000 C   0  0  0  0  0  0  0  0  0  0  0  0
   -3.5960   -1.7502    0.0000 C   0  0  0  0  0  0  0  0  0  0  0  0
   -4.3840   -0.4738    0.0000 C   0  0  0  0  0  0  0  0  0  0  0  0
   -3.6727    0.8468    0.0000 O   0  0  0  0  0  0  0  0  0  0  0  0
   -5.8834   -0.5181    0.0000 C   0  0  0  0  0  0  0  0  0  0  0  0
   -6.6714    0.7582    0.0000 C   0  0  0  0  0  0  0  0  0  0  0  0
   -8.1707    0.7140    0.0000 C   0  0  0  0  0  0  0  0  0  0  0  0
   -8.9588    1.9903    0.0000 S   0  0  0  0  0  0  0  0  0  0  0  0
  -10.2351    1.2023    0.0000 O   0  0  0  0  0  0  0  0  0  0  0  0
   -7.6824    2.7783    0.0000 O   0  0  0  0  0  0  0  0  0  0  0  0
   -9.7468    3.2667    0.0000 O   0  0  0  0  0  0  0  0  0  0  0  0
    0.1907   -2.9379    0.0000 C   0  0  0  0  0  0  0  0  0  0  0  0
    1.1078   -4.1249    0.0000 C   0  0  0  0  0  0  0  0  0  0  0  0
    2.5201   -3.6195    0.0000 C   0  0  0  0  0  0  0  0  0  0  0  0
    2.4758   -2.1201    0.0000 C   0  0  0  0  0  0  0  0  0  0  0  0
    3.5604   -1.0840    0.0000 C   0  0  0  0  0  0  0  0  0  0  0  0
    5.0001   -1.5052    0.0000 C   0  0  0  0  0  0  0  0  0  0  0  0
    5.3551   -2.9626    0.0000 O   0  0  0  0  0  0  0  0  0  0  0  0
    6.0847   -0.4691    0.0000 C   0  0  0  0  0  0  0  0  0  0  0  0
    5.7296    0.9883    0.0000 C   0  0  0  0  0  0  0  0  0  0  0  0
    6.8142    2.0245    0.0000 C   0  0  0  0  0  0  0  0  0  0  0  0
    6.4592    3.4819    0.0000 C   0  0  0  0  0  0  0  0  0  0  0  0
    7.5438    4.5180    0.0000 O   0  0  0  0  0  0  0  0  0  0  0  0
    5.0196    3.9031    0.0000 C   0  0  0  0  0  0  0  0  0  0  0  0
    3.9350    2.8669    0.0000 C   0  0  0  0  0  0  0  0  0  0  0  0
    4.2900    1.4095    0.0000 C   0  0  0  0  0  0  0  0  0  0  0  0
    2.8503    1.8308    0.0000 C   0  0  0  0  0  0  0  0  0  0  0  0
    3.2054    0.3734    0.0000 C   0  0  0  0  0  0  0  0  0  0  0  0
    1.7657    0.7946    0.0000 C   0  0  0  0  0  0  0  0  0  0  0  0
    0.6811   -0.2416    0.0000 C   0  0  0  0  0  0  0  0  0  0  0  0
   -0.7585    0.1797    0.0000 O   0  0  0  0  0  0  0  0  0  0  0  0
    1.0362   -1.6989    0.0000 C   0  0  0  0  0  0  0  0  0  0  0  0
   -0.4396   -1.4305    0.0000 C   0  0  0  0  0  0  0  0  0  0  0  0
  2  1  1  6
  2  3  1  0
  3  4  1  0
  4  5  1  0
  5  6  2  0
  5  7  1  0
  7  8  1  0
  8  9  1  0
  9 10  1  0
 10 11  2  0
 10 12  2  0
 10 13  1  0
  2 14  1  0
 14 15  1  6
 15 16  1  0
 17 16  1  6
 17 18  1  0
 18 19  1  1
 19 20  1  1
 19 21  1  0
 22 21  1  1
 22 23  1  0
 23 24  1  0
 24 25  1  1
 24 26  1  0
 26 27  1  0
 27 28  1  0
 28 29  1  6
 28 30  1  0
 30 31  1  6
 31 32  1  0
 32 33  1  1
 32 34  1  0
 34 35  1  6
 34 14  1  0
 34 17  1  0
 30 18  1  0
 28 22  1  0
M  END
>  <MS_ID>  (3547) 
MS3784

>  <SMILES>  (3547) 
C[C@H](CCC(=O)CCCS(=O)(=O)O)[C@H]1CC[C@H]2[C@@H]3[C@H](O)C[C@@H]4C[C@H](O)CC[C@]4(C)[C@H]3C[C@H](O)[C@]12C

>  <Structure_dimension>  (3547) 
2D

$$$$
MS3787
     RDKit          2D

 28 31  0  0  0  0  0  0  0  0999 V2000
   -4.6340   -2.3524    0.0000 C   0  0  0  0  0  0  0  0  0  0  0  0
   -3.5242   -1.3434    0.0000 C   0  0  0  0  0  0  0  0  0  0  0  0
   -3.8431    0.1223    0.0000 C   0  0  0  0  0  0  0  0  0  0  0  0
   -5.2720    0.5789    0.0000 C   0  0  0  0  0  0  0  0  0  0  0  0
   -5.5909    2.0446    0.0000 C   0  0  0  0  0  0  0  0  0  0  0  0
   -4.4811    3.0537    0.0000 O   0  0  0  0  0  0  0  0  0  0  0  0
   -7.0197    2.5012    0.0000 O   0  0  0  0  0  0  0  0  0  0  0  0
   -2.0954   -1.8000    0.0000 C   0  0  0  0  0  0  0  0  0  0  0  0
   -1.6249   -3.2243    0.0000 C   0  0  0  0  0  0  0  0  0  0  0  0
   -0.1249   -3.2170    0.0000 C   0  0  0  0  0  0  0  0  0  0  0  0
    0.3317   -1.7882    0.0000 C   0  0  0  0  0  0  0  0  0  0  0  0
    1.6990   -1.1715    0.0000 C   0  0  0  0  0  0  0  0  0  0  0  0
    2.9168   -2.0473    0.0000 C   0  0  0  0  0  0  0  0  0  0  0  0
    2.7672   -3.5398    0.0000 O   0  0  0  0  0  0  0  0  0  0  0  0
    4.2841   -1.4305    0.0000 C   0  0  0  0  0  0  0  0  0  0  0  0
    4.4337    0.0620    0.0000 C   0  0  0  0  0  0  0  0  0  0  0  0
    5.8011    0.6787    0.0000 C   0  0  0  0  0  0  0  0  0  0  0  0
    5.9506    2.1713    0.0000 C   0  0  0  0  0  0  0  0  0  0  0  0
    4.7328    3.0471    0.0000 C   0  0  0  0  0  0  0  0  0  0  0  0
    3.3655    2.4303    0.0000 C   0  0  0  0  0  0  0  0  0  0  0  0
    3.2159    0.9378    0.0000 C   0  0  0  0  0  0  0  0  0  0  0  0
    1.9981    1.8136    0.0000 C   0  0  0  0  0  0  0  0  0  0  0  0
    1.8486    0.3211    0.0000 C   0  0  0  0  0  0  0  0  0  0  0  0
    0.6308    1.1968    0.0000 C   0  0  0  0  0  0  0  0  0  0  0  0
   -0.7366    0.5801    0.0000 C   0  0  0  0  0  0  0  0  0  0  0  0
   -1.9543    1.4559    0.0000 O   0  0  0  0  0  0  0  0  0  0  0  0
   -0.8861   -0.9124    0.0000 C   0  0  0  0  0  0  0  0  0  0  0  0
   -2.1888   -0.1687    0.0000 C   0  0  0  0  0  0  0  0  0  0  0  0
  2  1  1  6
  2  3  1  0
  3  4  1  0
  4  5  1  0
  5  6  2  0
  5  7  1  0
  2  8  1  0
  8  9  1  6
  9 10  1  0
 11 10  1  6
 11 12  1  0
 12 13  1  1
 13 14  1  1
 13 15  1  0
 16 15  1  6
 16 17  1  0
 17 18  1  0
 18 19  1  0
 19 20  1  0
 20 21  1  0
 21 22  1  6
 21 23  1  0
 23 24  1  6
 24 25  1  0
 25 26  1  1
 25 27  1  0
 27 28  1  6
 27  8  1  0
 27 11  1  0
 23 12  1  0
 21 16  1  0
M  END
>  <MS_ID>  (3548) 
MS3787

>  <SMILES>  (3548) 
C[C@H](CCC(=O)O)[C@H]1CC[C@H]2[C@@H]3[C@H](O)C[C@H]4CCCC[C@]4(C)[C@H]3C[C@H](O)[C@]12C

>  <Structure_dimension>  (3548) 
2D

$$$$
MS3792
     RDKit          2D

 31 34  0  0  0  0  0  0  0  0999 V2000
    7.4312   -3.5935    0.0000 C   0  0  0  0  0  0  0  0  0  0  0  0
    7.1026   -2.1299    0.0000 O   0  0  0  0  0  0  0  0  0  0  0  0
    5.6708   -1.6827    0.0000 C   0  0  0  0  0  0  0  0  0  0  0  0
    4.5676   -2.6991    0.0000 O   0  0  0  0  0  0  0  0  0  0  0  0
    5.3421   -0.2192    0.0000 C   0  0  0  0  0  0  0  0  0  0  0  0
    3.9103    0.2280    0.0000 C   0  0  0  0  0  0  0  0  0  0  0  0
    3.5817    1.6916    0.0000 C   0  0  0  0  0  0  0  0  0  0  0  0
    4.6849    2.7079    0.0000 C   0  0  0  0  0  0  0  0  0  0  0  0
    2.1499    2.1387    0.0000 C   0  0  0  0  0  0  0  0  0  0  0  0
    1.6701    3.5599    0.0000 C   0  0  0  0  0  0  0  0  0  0  0  0
    0.1702    3.5428    0.0000 C   0  0  0  0  0  0  0  0  0  0  0  0
   -0.2770    2.1110    0.0000 C   0  0  0  0  0  0  0  0  0  0  0  0
   -1.6402    1.4852    0.0000 C   0  0  0  0  0  0  0  0  0  0  0  0
   -2.8638    2.3530    0.0000 C   0  0  0  0  0  0  0  0  0  0  0  0
   -2.7240    3.8465    0.0000 O   0  0  0  0  0  0  0  0  0  0  0  0
   -4.2270    1.7272    0.0000 C   0  0  0  0  0  0  0  0  0  0  0  0
   -4.3667    0.2338    0.0000 C   0  0  0  0  0  0  0  0  0  0  0  0
   -5.7300   -0.3920    0.0000 C   0  0  0  0  0  0  0  0  0  0  0  0
   -5.8697   -1.8855    0.0000 C   0  0  0  0  0  0  0  0  0  0  0  0
   -7.2329   -2.5112    0.0000 O   0  0  0  0  0  0  0  0  0  0  0  0
   -4.6462   -2.7532    0.0000 C   0  0  0  0  0  0  0  0  0  0  0  0
   -3.2829   -2.1275    0.0000 C   0  0  0  0  0  0  0  0  0  0  0  0
   -2.0594   -2.9952    0.0000 O   0  0  0  0  0  0  0  0  0  0  0  0
   -3.1432   -0.6340    0.0000 C   0  0  0  0  0  0  0  0  0  0  0  0
   -1.9197   -1.5017    0.0000 C   0  0  0  0  0  0  0  0  0  0  0  0
   -1.7800   -0.0082    0.0000 C   0  0  0  0  0  0  0  0  0  0  0  0
   -0.5564   -0.8760    0.0000 C   0  0  0  0  0  0  0  0  0  0  0  0
    0.8068   -0.2502    0.0000 C   0  0  0  0  0  0  0  0  0  0  0  0
    2.0304   -1.1180    0.0000 O   0  0  0  0  0  0  0  0  0  0  0  0
    0.9465    1.2432    0.0000 C   0  0  0  0  0  0  0  0  0  0  0  0
    2.2541    0.5081    0.0000 C   0  0  0  0  0  0  0  0  0  0  0  0
  1  2  1  0
  2  3  1  0
  3  4  2  0
  3  5  1  0
  5  6  1  0
  6  7  1  0
  7  8  1  6
  7  9  1  0
  9 10  1  6
 10 11  1  0
 12 11  1  6
 12 13  1  0
 13 14  1  1
 14 15  1  1
 14 16  1  0
 17 16  1  1
 17 18  1  0
 18 19  1  0
 19 20  1  1
 19 21  1  0
 21 22  1  0
 22 23  1  6
 22 24  1  0
 24 25  1  6
 24 26  1  0
 26 27  1  6
 27 28  1  0
 28 29  1  1
 28 30  1  0
 30 31  1  6
 30  9  1  0
 30 12  1  0
 26 13  1  0
 24 17  1  0
M  END
>  <MS_ID>  (3549) 
MS3792

>  <SMILES>  (3549) 
COC(=O)CC[C@@H](C)[C@H]1CC[C@H]2[C@@H]3[C@H](O)C[C@@H]4C[C@H](O)C[C@@H](O)[C@]4(C)[C@H]3C[C@H](O)[C@]12C

>  <Structure_dimension>  (3549) 
2D

$$$$
MS3793
     RDKit          2D

 32 35  0  0  0  0  0  0  0  0999 V2000
   -3.4546   -3.6059    0.0000 C   0  0  0  0  0  0  0  0  0  0  0  0
   -2.5561   -2.4048    0.0000 C   0  0  0  0  0  0  0  0  0  0  0  0
   -3.1471   -1.0261    0.0000 C   0  0  0  0  0  0  0  0  0  0  0  0
   -4.6366   -0.8486    0.0000 C   0  0  0  0  0  0  0  0  0  0  0  0
   -5.2276    0.5301    0.0000 C   0  0  0  0  0  0  0  0  0  0  0  0
   -4.3291    1.7312    0.0000 O   0  0  0  0  0  0  0  0  0  0  0  0
   -6.7170    0.7076    0.0000 N   0  0  0  0  0  0  0  0  0  0  0  0
   -7.3080    2.0863    0.0000 C   0  0  0  0  0  0  0  0  0  0  0  0
   -8.7975    2.2638    0.0000 C   0  0  0  0  0  0  0  0  0  0  0  0
   -9.3885    3.6424    0.0000 O   0  0  0  0  0  0  0  0  0  0  0  0
   -1.0667   -2.5823    0.0000 C   0  0  0  0  0  0  0  0  0  0  0  0
   -0.3348   -3.8917    0.0000 C   0  0  0  0  0  0  0  0  0  0  0  0
    1.1366   -3.6002    0.0000 C   0  0  0  0  0  0  0  0  0  0  0  0
    1.3141   -2.1108    0.0000 C   0  0  0  0  0  0  0  0  0  0  0  0
    2.5398   -1.2460    0.0000 C   0  0  0  0  0  0  0  0  0  0  0  0
    3.9015   -1.8751    0.0000 C   0  0  0  0  0  0  0  0  0  0  0  0
    4.0375   -3.3690    0.0000 O   0  0  0  0  0  0  0  0  0  0  0  0
    5.1272   -1.0104    0.0000 C   0  0  0  0  0  0  0  0  0  0  0  0
    4.9911    0.4834    0.0000 C   0  0  0  0  0  0  0  0  0  0  0  0
    6.2168    1.3481    0.0000 C   0  0  0  0  0  0  0  0  0  0  0  0
    6.0808    2.8419    0.0000 C   0  0  0  0  0  0  0  0  0  0  0  0
    7.3064    3.7067    0.0000 O   0  0  0  0  0  0  0  0  0  0  0  0
    4.7191    3.4710    0.0000 C   0  0  0  0  0  0  0  0  0  0  0  0
    3.4934    2.6063    0.0000 C   0  0  0  0  0  0  0  0  0  0  0  0
    3.6294    1.1125    0.0000 C   0  0  0  0  0  0  0  0  0  0  0  0
    2.2677    1.7416    0.0000 C   0  0  0  0  0  0  0  0  0  0  0  0
    2.4038    0.2478    0.0000 C   0  0  0  0  0  0  0  0  0  0  0  0
    1.0421    0.8769    0.0000 C   0  0  0  0  0  0  0  0  0  0  0  0
   -0.1836    0.0122    0.0000 C   0  0  0  0  0  0  0  0  0  0  0  0
   -1.5453    0.6413    0.0000 O   0  0  0  0  0  0  0  0  0  0  0  0
   -0.0476   -1.4817    0.0000 C   0  0  0  0  0  0  0  0  0  0  0  0
   -1.4676   -0.9983    0.0000 C   0  0  0  0  0  0  0  0  0  0  0  0
  2  1  1  6
  2  3  1  0
  3  4  1  0
  4  5  1  0
  5  6  2  0
  5  7  1  0
  7  8  1  0
  8  9  1  0
  9 10  1  0
  2 11  1  0
 11 12  1  6
 12 13  1  0
 14 13  1  6
 14 15  1  0
 15 16  1  1
 16 17  1  1
 16 18  1  0
 19 18  1  6
 19 20  1  0
 20 21  1  0
 21 22  1  1
 21 23  1  0
 23 24  1  0
 24 25  1  0
 25 26  1  6
 25 27  1  0
 27 28  1  6
 28 29  1  0
 29 30  1  1
 29 31  1  0
 31 32  1  6
 31 11  1  0
 31 14  1  0
 27 15  1  0
 25 19  1  0
M  END
>  <MS_ID>  (3550) 
MS3793

>  <SMILES>  (3550) 
C[C@H](CCC(=O)NCCO)[C@H]1CC[C@H]2[C@@H]3[C@H](O)C[C@H]4C[C@H](O)CC[C@]4(C)[C@H]3C[C@H](O)[C@]12C

>  <Structure_dimension>  (3550) 
2D

$$$$
MS3795
     RDKit          2D

 35 38  0  0  0  0  0  0  0  0999 V2000
   -2.6154   -4.0905    0.0000 C   0  0  0  0  0  0  0  0  0  0  0  0
   -1.8458   -2.8029    0.0000 C   0  0  0  0  0  0  0  0  0  0  0  0
   -2.5761   -1.4927    0.0000 C   0  0  0  0  0  0  0  0  0  0  0  0
   -4.0759   -1.4700    0.0000 C   0  0  0  0  0  0  0  0  0  0  0  0
   -4.8062   -0.1598    0.0000 C   0  0  0  0  0  0  0  0  0  0  0  0
   -4.0366    1.1278    0.0000 O   0  0  0  0  0  0  0  0  0  0  0  0
   -6.3060   -0.1371    0.0000 N   0  0  0  0  0  0  0  0  0  0  0  0
   -7.0362    1.1732    0.0000 C   0  0  0  0  0  0  0  0  0  0  0  0
   -6.2667    2.4607    0.0000 C   0  0  0  0  0  0  0  0  0  0  0  0
   -6.9969    3.7710    0.0000 S   0  0  0  0  0  0  0  0  0  0  0  0
   -8.5361    1.1959    0.0000 C   0  0  0  0  0  0  0  0  0  0  0  0
   -9.3056   -0.0917    0.0000 O   0  0  0  0  0  0  0  0  0  0  0  0
   -9.2663    2.5061    0.0000 O   0  0  0  0  0  0  0  0  0  0  0  0
   -0.3460   -2.8256    0.0000 C   0  0  0  0  0  0  0  0  0  0  0  0
    0.5172   -4.0523    0.0000 C   0  0  0  0  0  0  0  0  0  0  0  0
    1.9507   -3.6104    0.0000 C   0  0  0  0  0  0  0  0  0  0  0  0
    1.9734   -2.1106    0.0000 C   0  0  0  0  0  0  0  0  0  0  0  0
    3.1031   -1.1239    0.0000 C   0  0  0  0  0  0  0  0  0  0  0  0
    4.5226   -1.6090    0.0000 C   0  0  0  0  0  0  0  0  0  0  0  0
    4.8122   -3.0807    0.0000 O   0  0  0  0  0  0  0  0  0  0  0  0
    5.6523   -0.6222    0.0000 C   0  0  0  0  0  0  0  0  0  0  0  0
    7.0717   -1.1073    0.0000 O   0  0  0  0  0  0  0  0  0  0  0  0
    5.3627    0.8495    0.0000 C   0  0  0  0  0  0  0  0  0  0  0  0
    6.4925    1.8362    0.0000 C   0  0  0  0  0  0  0  0  0  0  0  0
    6.2028    3.3080    0.0000 C   0  0  0  0  0  0  0  0  0  0  0  0
    7.3326    4.2947    0.0000 O   0  0  0  0  0  0  0  0  0  0  0  0
    4.7834    3.7931    0.0000 C   0  0  0  0  0  0  0  0  0  0  0  0
    3.6537    2.8064    0.0000 C   0  0  0  0  0  0  0  0  0  0  0  0
    3.9433    1.3346    0.0000 C   0  0  0  0  0  0  0  0  0  0  0  0
    2.5239    1.8196    0.0000 C   0  0  0  0  0  0  0  0  0  0  0  0
    2.8135    0.3479    0.0000 C   0  0  0  0  0  0  0  0  0  0  0  0
    1.3941    0.8329    0.0000 C   0  0  0  0  0  0  0  0  0  0  0  0
    0.2643   -0.1538    0.0000 C   0  0  0  0  0  0  0  0  0  0  0  0
    0.5540   -1.6256    0.0000 C   0  0  0  0  0  0  0  0  0  0  0  0
   -0.9084   -1.2915    0.0000 C   0  0  0  0  0  0  0  0  0  0  0  0
  2  1  1  6
  2  3  1  0
  3  4  1  0
  4  5  1  0
  5  6  2  0
  5  7  1  0
  7  8  1  0
  8  9  1  6
  9 10  1  0
  8 11  1  0
 11 12  2  0
 11 13  1  0
  2 14  1  0
 14 15  1  6
 15 16  1  0
 17 16  1  6
 17 18  1  0
 18 19  1  1
 19 20  1  1
 19 21  1  0
 21 22  1  6
 21 23  1  0
 23 24  1  1
 24 25  1  0
 25 26  1  1
 25 27  1  0
 27 28  1  0
 28 29  1  0
 29 30  1  6
 29 31  1  0
 31 32  1  6
 32 33  1  0
 33 34  1  0
 34 35  1  6
 34 14  1  0
 34 17  1  0
 31 18  1  0
 29 23  1  0
M  END
>  <MS_ID>  (3551) 
MS3795

>  <SMILES>  (3551) 
C[C@H](CCC(=O)N[C@@H](CS)C(=O)O)[C@H]1CC[C@H]2[C@@H]3[C@H](O)[C@@H](O)[C@@H]4C[C@H](O)CC[C@]4(C)[C@H]3CC[C@]12C

>  <Structure_dimension>  (3551) 
2D

$$$$
MS3797
     RDKit          2D

 36 39  0  0  0  0  0  0  0  0999 V2000
   -2.3193   -4.3104    0.0000 C   0  0  0  0  0  0  0  0  0  0  0  0
   -1.5867   -3.0015    0.0000 C   0  0  0  0  0  0  0  0  0  0  0  0
   -2.3540   -1.7126    0.0000 C   0  0  0  0  0  0  0  0  0  0  0  0
   -3.8538   -1.7326    0.0000 C   0  0  0  0  0  0  0  0  0  0  0  0
   -4.6211   -0.4437    0.0000 C   0  0  0  0  0  0  0  0  0  0  0  0
   -3.8885    0.8653    0.0000 O   0  0  0  0  0  0  0  0  0  0  0  0
   -6.1210   -0.4637    0.0000 N   0  0  0  0  0  0  0  0  0  0  0  0
   -6.8882    0.8252    0.0000 C   0  0  0  0  0  0  0  0  0  0  0  0
   -8.3881    0.8052    0.0000 C   0  0  0  0  0  0  0  0  0  0  0  0
   -9.1554    2.0941    0.0000 S   0  0  0  0  0  0  0  0  0  0  0  0
  -10.4443    1.3269    0.0000 O   0  0  0  0  0  0  0  0  0  0  0  0
   -7.8664    2.8614    0.0000 O   0  0  0  0  0  0  0  0  0  0  0  0
   -9.9226    3.3831    0.0000 O   0  0  0  0  0  0  0  0  0  0  0  0
   -0.0868   -2.9815    0.0000 C   0  0  0  0  0  0  0  0  0  0  0  0
    0.8110   -4.1831    0.0000 C   0  0  0  0  0  0  0  0  0  0  0  0
    2.2312   -3.7006    0.0000 C   0  0  0  0  0  0  0  0  0  0  0  0
    2.2112   -2.2007    0.0000 C   0  0  0  0  0  0  0  0  0  0  0  0
    3.3125   -1.1823    0.0000 C   0  0  0  0  0  0  0  0  0  0  0  0
    4.7451   -1.6267    0.0000 C   0  0  0  0  0  0  0  0  0  0  0  0
    5.0765   -3.0896    0.0000 O   0  0  0  0  0  0  0  0  0  0  0  0
    5.8463   -0.6082    0.0000 C   0  0  0  0  0  0  0  0  0  0  0  0
    5.5149    0.8547    0.0000 C   0  0  0  0  0  0  0  0  0  0  0  0
    6.6161    1.8732    0.0000 C   0  0  0  0  0  0  0  0  0  0  0  0
    8.0488    1.4287    0.0000 O   0  0  0  0  0  0  0  0  0  0  0  0
    6.2847    3.3361    0.0000 C   0  0  0  0  0  0  0  0  0  0  0  0
    7.3859    4.3546    0.0000 O   0  0  0  0  0  0  0  0  0  0  0  0
    4.8521    3.7806    0.0000 C   0  0  0  0  0  0  0  0  0  0  0  0
    3.7508    2.7621    0.0000 C   0  0  0  0  0  0  0  0  0  0  0  0
    4.0823    1.2991    0.0000 C   0  0  0  0  0  0  0  0  0  0  0  0
    2.6496    1.7436    0.0000 C   0  0  0  0  0  0  0  0  0  0  0  0
    2.9810    0.2807    0.0000 C   0  0  0  0  0  0  0  0  0  0  0  0
    1.5484    0.7251    0.0000 C   0  0  0  0  0  0  0  0  0  0  0  0
    0.4472   -0.2934    0.0000 C   0  0  0  0  0  0  0  0  0  0  0  0
   -0.9855    0.1511    0.0000 O   0  0  0  0  0  0  0  0  0  0  0  0
    0.7786   -1.7563    0.0000 C   0  0  0  0  0  0  0  0  0  0  0  0
   -0.6927   -1.4640    0.0000 C   0  0  0  0  0  0  0  0  0  0  0  0
  2  1  1  6
  2  3  1  0
  3  4  1  0
  4  5  1  0
  5  6  2  0
  5  7  1  0
  7  8  1  0
  8  9  1  0
  9 10  1  0
 10 11  2  0
 10 12  2  0
 10 13  1  0
  2 14  1  0
 14 15  1  6
 15 16  1  0
 17 16  1  6
 17 18  1  0
 18 19  1  1
 19 20  1  1
 19 21  1  0
 22 21  1  1
 22 23  1  0
 23 24  1  6
 23 25  1  0
 25 26  1  1
 25 27  1  0
 27 28  1  0
 28 29  1  0
 29 30  1  6
 29 31  1  0
 31 32  1  6
 32 33  1  0
 33 34  1  1
 33 35  1  0
 35 36  1  6
 35 14  1  0
 35 17  1  0
 31 18  1  0
 29 22  1  0
M  END
>  <MS_ID>  (3552) 
MS3797

>  <SMILES>  (3552) 
C[C@H](CCC(=O)NCCS(=O)(=O)O)[C@H]1CC[C@H]2[C@@H]3[C@H](O)C[C@@H]4[C@@H](O)[C@H](O)CC[C@]4(C)[C@H]3C[C@H](O)[C@]12C

>  <Structure_dimension>  (3552) 
2D

$$$$
MS3800
     RDKit          2D

 31 34  0  0  0  0  0  0  0  0999 V2000
   -2.7019   -3.6997    0.0000 C   0  0  0  0  0  0  0  0  0  0  0  0
   -1.8903   -2.4382    0.0000 C   0  0  0  0  0  0  0  0  0  0  0  0
   -2.5770   -1.1046    0.0000 C   0  0  0  0  0  0  0  0  0  0  0  0
   -4.0753   -1.0325    0.0000 C   0  0  0  0  0  0  0  0  0  0  0  0
   -4.7620    0.3011    0.0000 C   0  0  0  0  0  0  0  0  0  0  0  0
   -3.9505    1.5626    0.0000 O   0  0  0  0  0  0  0  0  0  0  0  0
   -6.2603    0.3731    0.0000 N   0  0  0  0  0  0  0  0  0  0  0  0
   -6.9470    1.7067    0.0000 C   0  0  0  0  0  0  0  0  0  0  0  0
   -8.4453    1.7788    0.0000 C   0  0  0  0  0  0  0  0  0  0  0  0
   -9.2568    0.5173    0.0000 O   0  0  0  0  0  0  0  0  0  0  0  0
   -9.1320    3.1123    0.0000 O   0  0  0  0  0  0  0  0  0  0  0  0
   -0.3920   -2.5102    0.0000 C   0  0  0  0  0  0  0  0  0  0  0  0
    0.4303   -3.7647    0.0000 C   0  0  0  0  0  0  0  0  0  0  0  0
    1.8775   -3.3703    0.0000 C   0  0  0  0  0  0  0  0  0  0  0  0
    1.9496   -1.8720    0.0000 C   0  0  0  0  0  0  0  0  0  0  0  0
    3.1112   -0.9230    0.0000 C   0  0  0  0  0  0  0  0  0  0  0  0
    4.5139   -1.4545    0.0000 C   0  0  0  0  0  0  0  0  0  0  0  0
    4.7549   -2.9351    0.0000 O   0  0  0  0  0  0  0  0  0  0  0  0
    5.6756   -0.5056    0.0000 C   0  0  0  0  0  0  0  0  0  0  0  0
    5.4345    0.9750    0.0000 C   0  0  0  0  0  0  0  0  0  0  0  0
    6.5962    1.9239    0.0000 C   0  0  0  0  0  0  0  0  0  0  0  0
    6.3552    3.4044    0.0000 C   0  0  0  0  0  0  0  0  0  0  0  0
    4.9525    3.9360    0.0000 C   0  0  0  0  0  0  0  0  0  0  0  0
    3.7909    2.9870    0.0000 C   0  0  0  0  0  0  0  0  0  0  0  0
    4.0319    1.5065    0.0000 C   0  0  0  0  0  0  0  0  0  0  0  0
    2.6292    2.0380    0.0000 C   0  0  0  0  0  0  0  0  0  0  0  0
    2.8702    0.5575    0.0000 C   0  0  0  0  0  0  0  0  0  0  0  0
    1.4676    1.0890    0.0000 C   0  0  0  0  0  0  0  0  0  0  0  0
    0.3059    0.1401    0.0000 C   0  0  0  0  0  0  0  0  0  0  0  0
    0.5469   -1.3405    0.0000 C   0  0  0  0  0  0  0  0  0  0  0  0
   -0.9036   -0.9585    0.0000 C   0  0  0  0  0  0  0  0  0  0  0  0
  2  1  1  6
  2  3  1  0
  3  4  1  0
  4  5  1  0
  5  6  2  0
  5  7  1  0
  7  8  1  0
  8  9  1  0
  9 10  2  0
  9 11  1  0
  2 12  1  0
 12 13  1  6
 13 14  1  0
 15 14  1  6
 15 16  1  0
 16 17  1  1
 17 18  1  1
 17 19  1  0
 20 19  1  1
 20 21  1  0
 21 22  1  0
 22 23  1  0
 23 24  1  0
 24 25  1  0
 25 26  1  6
 25 27  1  0
 27 28  1  6
 28 29  1  0
 29 30  1  0
 30 31  1  6
 30 12  1  0
 30 15  1  0
 27 16  1  0
 25 20  1  0
M  END
>  <MS_ID>  (3553) 
MS3800

>  <SMILES>  (3553) 
C[C@H](CCC(=O)NCC(=O)O)[C@H]1CC[C@H]2[C@@H]3[C@H](O)C[C@@H]4CCCC[C@]4(C)[C@H]3CC[C@]12C

>  <Structure_dimension>  (3553) 
2D

$$$$
MS3801
     RDKit          2D

 37 40  0  0  0  0  0  0  0  0999 V2000
   -1.6432   -4.5127    0.0000 C   0  0  0  0  0  0  0  0  0  0  0  0
   -0.9779   -3.1684    0.0000 C   0  0  0  0  0  0  0  0  0  0  0  0
   -1.8095   -1.9200    0.0000 C   0  0  0  0  0  0  0  0  0  0  0  0
   -3.3064   -2.0160    0.0000 C   0  0  0  0  0  0  0  0  0  0  0  0
   -4.1381   -0.7677    0.0000 C   0  0  0  0  0  0  0  0  0  0  0  0
   -3.4728    0.5767    0.0000 O   0  0  0  0  0  0  0  0  0  0  0  0
   -5.6350   -0.8637    0.0000 N   0  0  0  0  0  0  0  0  0  0  0  0
   -6.4666    0.3846    0.0000 C   0  0  0  0  0  0  0  0  0  0  0  0
   -7.9636    0.2886    0.0000 C   0  0  0  0  0  0  0  0  0  0  0  0
   -8.7952    1.5369    0.0000 C   0  0  0  0  0  0  0  0  0  0  0  0
   -8.1299    2.8813    0.0000 O   0  0  0  0  0  0  0  0  0  0  0  0
  -10.2921    1.4409    0.0000 O   0  0  0  0  0  0  0  0  0  0  0  0
   -5.8014    1.7290    0.0000 C   0  0  0  0  0  0  0  0  0  0  0  0
   -4.3044    1.8250    0.0000 O   0  0  0  0  0  0  0  0  0  0  0  0
   -6.6330    2.9774    0.0000 O   0  0  0  0  0  0  0  0  0  0  0  0
    0.5190   -3.0723    0.0000 C   0  0  0  0  0  0  0  0  0  0  0  0
    1.4766   -4.2269    0.0000 C   0  0  0  0  0  0  0  0  0  0  0  0
    2.8706   -3.6730    0.0000 C   0  0  0  0  0  0  0  0  0  0  0  0
    2.7745   -2.1760    0.0000 C   0  0  0  0  0  0  0  0  0  0  0  0
    3.8227   -1.1030    0.0000 C   0  0  0  0  0  0  0  0  0  0  0  0
    5.2760   -1.4743    0.0000 C   0  0  0  0  0  0  0  0  0  0  0  0
    5.6812   -2.9185    0.0000 O   0  0  0  0  0  0  0  0  0  0  0  0
    6.3242   -0.4013    0.0000 C   0  0  0  0  0  0  0  0  0  0  0  0
    5.9190    1.0430    0.0000 C   0  0  0  0  0  0  0  0  0  0  0  0
    6.9672    2.1160    0.0000 C   0  0  0  0  0  0  0  0  0  0  0  0
    6.5620    3.5602    0.0000 C   0  0  0  0  0  0  0  0  0  0  0  0
    7.6102    4.6333    0.0000 O   0  0  0  0  0  0  0  0  0  0  0  0
    5.1087    3.9315    0.0000 C   0  0  0  0  0  0  0  0  0  0  0  0
    4.0605    2.8585    0.0000 C   0  0  0  0  0  0  0  0  0  0  0  0
    4.4657    1.4142    0.0000 C   0  0  0  0  0  0  0  0  0  0  0  0
    3.0124    1.7855    0.0000 C   0  0  0  0  0  0  0  0  0  0  0  0
    3.4175    0.3412    0.0000 C   0  0  0  0  0  0  0  0  0  0  0  0
    1.9642    0.7124    0.0000 C   0  0  0  0  0  0  0  0  0  0  0  0
    0.9160   -0.3606    0.0000 C   0  0  0  0  0  0  0  0  0  0  0  0
   -0.5373    0.0107    0.0000 O   0  0  0  0  0  0  0  0  0  0  0  0
    1.3212   -1.8048    0.0000 C   0  0  0  0  0  0  0  0  0  0  0  0
   -0.1630   -1.5875    0.0000 C   0  0  0  0  0  0  0  0  0  0  0  0
  2  1  1  6
  2  3  1  0
  3  4  1  0
  4  5  1  0
  5  6  2  0
  5  7  1  0
  7  8  1  0
  8  9  1  6
  9 10  1  0
 10 11  2  0
 10 12  1  0
  8 13  1  0
 13 14  2  0
 13 15  1  0
  2 16  1  0
 16 17  1  6
 17 18  1  0
 19 18  1  6
 19 20  1  0
 20 21  1  1
 21 22  1  1
 21 23  1  0
 24 23  1  1
 24 25  1  0
 25 26  1  0
 26 27  1  1
 26 28  1  0
 28 29  1  0
 29 30  1  0
 30 31  1  6
 30 32  1  0
 32 33  1  6
 33 34  1  0
 34 35  1  1
 34 36  1  0
 36 37  1  6
 36 16  1  0
 36 19  1  0
 32 20  1  0
 30 24  1  0
M  END
>  <MS_ID>  (3554) 
MS3801

>  <SMILES>  (3554) 
C[C@H](CCC(=O)N[C@H](CC(=O)O)C(=O)O)[C@H]1CC[C@H]2[C@@H]3[C@H](O)C[C@@H]4C[C@H](O)CC[C@]4(C)[C@H]3C[C@H](O)[C@]12C

>  <Structure_dimension>  (3554) 
2D

$$$$
MS3802
     RDKit          2D

 41 45  0  0  0  0  0  0  0  0999 V2000
   -0.5802   -4.9623    0.0000 C   0  0  0  0  0  0  0  0  0  0  0  0
   -0.0607   -3.5551    0.0000 C   0  0  0  0  0  0  0  0  0  0  0  0
   -1.0197   -2.4016    0.0000 C   0  0  0  0  0  0  0  0  0  0  0  0
   -2.4981   -2.6554    0.0000 C   0  0  0  0  0  0  0  0  0  0  0  0
   -3.4570   -1.5019    0.0000 C   0  0  0  0  0  0  0  0  0  0  0  0
   -2.9376   -0.0947    0.0000 O   0  0  0  0  0  0  0  0  0  0  0  0
   -4.9354   -1.7557    0.0000 O   0  0  0  0  0  0  0  0  0  0  0  0
   -5.8943   -0.6022    0.0000 C   0  0  0  0  0  0  0  0  0  0  0  0
   -5.3749    0.8050    0.0000 O   0  0  0  0  0  0  0  0  0  0  0  0
   -6.3338    1.9584    0.0000 C   0  0  0  0  0  0  0  0  0  0  0  0
   -5.8144    3.3656    0.0000 C   0  0  0  0  0  0  0  0  0  0  0  0
   -6.7733    4.5190    0.0000 O   0  0  0  0  0  0  0  0  0  0  0  0
   -4.3360    3.6193    0.0000 O   0  0  0  0  0  0  0  0  0  0  0  0
   -7.8122    1.7046    0.0000 C   0  0  0  0  0  0  0  0  0  0  0  0
   -8.7712    2.8581    0.0000 O   0  0  0  0  0  0  0  0  0  0  0  0
   -8.3317    0.2975    0.0000 C   0  0  0  0  0  0  0  0  0  0  0  0
   -9.8100    0.0437    0.0000 O   0  0  0  0  0  0  0  0  0  0  0  0
   -7.3727   -0.8560    0.0000 C   0  0  0  0  0  0  0  0  0  0  0  0
   -7.8921   -2.2632    0.0000 O   0  0  0  0  0  0  0  0  0  0  0  0
    1.4176   -3.3013    0.0000 C   0  0  0  0  0  0  0  0  0  0  0  0
    2.4919   -4.3482    0.0000 C   0  0  0  0  0  0  0  0  0  0  0  0
    3.8195   -3.6500    0.0000 C   0  0  0  0  0  0  0  0  0  0  0  0
    3.5658   -2.1716    0.0000 C   0  0  0  0  0  0  0  0  0  0  0  0
    4.4946   -0.9938    0.0000 C   0  0  0  0  0  0  0  0  0  0  0  0
    5.9791   -1.2094    0.0000 C   0  0  0  0  0  0  0  0  0  0  0  0
    6.5346   -2.6027    0.0000 O   0  0  0  0  0  0  0  0  0  0  0  0
    6.9079   -0.0316    0.0000 C   0  0  0  0  0  0  0  0  0  0  0  0
    8.3924   -0.2471    0.0000 O   0  0  0  0  0  0  0  0  0  0  0  0
    6.3523    1.3618    0.0000 C   0  0  0  0  0  0  0  0  0  0  0  0
    7.2812    2.5396    0.0000 C   0  0  0  0  0  0  0  0  0  0  0  0
    6.7256    3.9329    0.0000 C   0  0  0  0  0  0  0  0  0  0  0  0
    7.6545    5.1107    0.0000 O   0  0  0  0  0  0  0  0  0  0  0  0
    5.2412    4.1484    0.0000 C   0  0  0  0  0  0  0  0  0  0  0  0
    4.3123    2.9706    0.0000 C   0  0  0  0  0  0  0  0  0  0  0  0
    4.8679    1.5773    0.0000 C   0  0  0  0  0  0  0  0  0  0  0  0
    3.3835    1.7928    0.0000 C   0  0  0  0  0  0  0  0  0  0  0  0
    3.9391    0.3995    0.0000 C   0  0  0  0  0  0  0  0  0  0  0  0
    2.4546    0.6150    0.0000 C   0  0  0  0  0  0  0  0  0  0  0  0
    1.5258   -0.5628    0.0000 C   0  0  0  0  0  0  0  0  0  0  0  0
    2.0813   -1.9561    0.0000 C   0  0  0  0  0  0  0  0  0  0  0  0
    0.5825   -1.8970    0.0000 C   0  0  0  0  0  0  0  0  0  0  0  0
  2  1  1  6
  2  3  1  0
  3  4  1  0
  4  5  1  0
  5  6  2  0
  5  7  1  0
  8  7  1  1
  8  9  1  0
  9 10  1  0
 10 11  1  1
 11 12  2  0
 11 13  1  0
 10 14  1  0
 14 15  1  6
 14 16  1  0
 16 17  1  1
 16 18  1  0
 18 19  1  6
  2 20  1  0
 20 21  1  6
 21 22  1  0
 23 22  1  6
 23 24  1  0
 24 25  1  1
 25 26  1  1
 25 27  1  0
 27 28  1  1
 27 29  1  0
 29 30  1  1
 30 31  1  0
 31 32  1  1
 31 33  1  0
 33 34  1  0
 34 35  1  0
 35 36  1  6
 35 37  1  0
 37 38  1  6
 38 39  1  0
 39 40  1  0
 40 41  1  6
 18  8  1  0
 40 20  1  0
 40 23  1  0
 37 24  1  0
 35 29  1  0
M  END
>  <MS_ID>  (3555) 
MS3802

>  <SMILES>  (3555) 
C[C@H](CCC(=O)O[C@@H]1O[C@H](C(=O)O)[C@@H](O)[C@H](O)[C@H]1O)[C@H]1CC[C@H]2[C@@H]3[C@H](O)[C@H](O)[C@@H]4C[C@H](O)CC[C@]4(C)[C@H]3CC[C@]12C

>  <Structure_dimension>  (3555) 
2D

$$$$
MS3803
     RDKit          2D

 32 35  0  0  0  0  0  0  0  0999 V2000
   -5.1569   -2.5516    0.0000 C   0  0  0  0  0  0  0  0  0  0  0  0
   -4.1971   -1.3989    0.0000 C   0  0  0  0  0  0  0  0  0  0  0  0
   -4.7155    0.0087    0.0000 C   0  0  0  0  0  0  0  0  0  0  0  0
   -6.1937    0.2635    0.0000 C   0  0  0  0  0  0  0  0  0  0  0  0
   -6.7121    1.6711    0.0000 C   0  0  0  0  0  0  0  0  0  0  0  0
   -5.7523    2.8238    0.0000 O   0  0  0  0  0  0  0  0  0  0  0  0
   -8.1903    1.9259    0.0000 O   0  0  0  0  0  0  0  0  0  0  0  0
   -2.7189   -1.6538    0.0000 C   0  0  0  0  0  0  0  0  0  0  0  0
   -2.0562   -2.9994    0.0000 C   0  0  0  0  0  0  0  0  0  0  0  0
   -0.5716   -2.7850    0.0000 C   0  0  0  0  0  0  0  0  0  0  0  0
   -0.3168   -1.3068    0.0000 C   0  0  0  0  0  0  0  0  0  0  0  0
    0.9523   -0.5071    0.0000 C   0  0  0  0  0  0  0  0  0  0  0  0
    2.2794   -1.2062    0.0000 C   0  0  0  0  0  0  0  0  0  0  0  0
    2.3374   -2.7051    0.0000 O   0  0  0  0  0  0  0  0  0  0  0  0
    3.6645   -3.4043    0.0000 P   0  0  0  0  0  0  0  0  0  0  0  0
    2.9654   -4.7314    0.0000 O   0  0  0  0  0  0  0  0  0  0  0  0
    4.3637   -2.0772    0.0000 O   0  0  0  0  0  0  0  0  0  0  0  0
    4.9916   -4.1034    0.0000 O   0  0  0  0  0  0  0  0  0  0  0  0
    3.5484   -0.4065    0.0000 C   0  0  0  0  0  0  0  0  0  0  0  0
    3.4903    1.0923    0.0000 C   0  0  0  0  0  0  0  0  0  0  0  0
    4.7594    1.8921    0.0000 C   0  0  0  0  0  0  0  0  0  0  0  0
    4.7013    3.3909    0.0000 C   0  0  0  0  0  0  0  0  0  0  0  0
    5.9703    4.1907    0.0000 O   0  0  0  0  0  0  0  0  0  0  0  0
    3.3742    4.0901    0.0000 C   0  0  0  0  0  0  0  0  0  0  0  0
    2.1052    3.2904    0.0000 C   0  0  0  0  0  0  0  0  0  0  0  0
    2.1632    1.7915    0.0000 C   0  0  0  0  0  0  0  0  0  0  0  0
    0.8361    2.4907    0.0000 C   0  0  0  0  0  0  0  0  0  0  0  0
    0.8942    0.9918    0.0000 C   0  0  0  0  0  0  0  0  0  0  0  0
   -0.4329    1.6909    0.0000 C   0  0  0  0  0  0  0  0  0  0  0  0
   -1.7019    0.8912    0.0000 C   0  0  0  0  0  0  0  0  0  0  0  0
   -1.6439   -0.6077    0.0000 C   0  0  0  0  0  0  0  0  0  0  0  0
   -3.0368   -0.0511    0.0000 C   0  0  0  0  0  0  0  0  0  0  0  0
  2  1  1  6
  2  3  1  0
  3  4  1  0
  4  5  1  0
  5  6  2  0
  5  7  1  0
  2  8  1  0
  8  9  1  6
  9 10  1  0
 11 10  1  6
 11 12  1  0
 12 13  1  1
 13 14  1  1
 14 15  1  0
 15 16  2  0
 15 17  1  0
 15 18  1  0
 13 19  1  0
 20 19  1  1
 20 21  1  0
 21 22  1  0
 22 23  1  1
 22 24  1  0
 24 25  1  0
 25 26  1  0
 26 27  1  6
 26 28  1  0
 28 29  1  6
 29 30  1  0
 30 31  1  0
 31 32  1  6
 31  8  1  0
 31 11  1  0
 28 12  1  0
 26 20  1  0
M  END
>  <MS_ID>  (3556) 
MS3803

>  <SMILES>  (3556) 
C[C@H](CCC(=O)O)[C@H]1CC[C@H]2[C@@H]3[C@H](OP(=O)(O)O)C[C@@H]4C[C@H](O)CC[C@]4(C)[C@H]3CC[C@]12C

>  <Structure_dimension>  (3556) 
2D

$$$$
MS3807
     RDKit          2D

 34 37  0  0  0  0  0  0  0  0999 V2000
   -1.9628   -4.3460    0.0000 C   0  0  0  0  0  0  0  0  0  0  0  0
   -1.2213   -3.0421    0.0000 C   0  0  0  0  0  0  0  0  0  0  0  0
   -1.9798   -1.7480    0.0000 C   0  0  0  0  0  0  0  0  0  0  0  0
   -3.4798   -1.7579    0.0000 C   0  0  0  0  0  0  0  0  0  0  0  0
   -4.2383   -0.4638    0.0000 C   0  0  0  0  0  0  0  0  0  0  0  0
   -3.4968    0.8402    0.0000 O   0  0  0  0  0  0  0  0  0  0  0  0
   -5.7383   -0.4736    0.0000 N   0  0  0  0  0  0  0  0  0  0  0  0
   -6.4968    0.8205    0.0000 C   0  0  0  0  0  0  0  0  0  0  0  0
   -7.9967    0.8106    0.0000 C   0  0  0  0  0  0  0  0  0  0  0  0
   -8.7552    2.1047    0.0000 S   0  0  0  0  0  0  0  0  0  0  0  0
  -10.0493    1.3462    0.0000 O   0  0  0  0  0  0  0  0  0  0  0  0
   -7.4611    2.8632    0.0000 O   0  0  0  0  0  0  0  0  0  0  0  0
   -9.5137    3.3988    0.0000 O   0  0  0  0  0  0  0  0  0  0  0  0
    0.2786   -3.0323    0.0000 C   0  0  0  0  0  0  0  0  0  0  0  0
    1.1683   -4.2400    0.0000 C   0  0  0  0  0  0  0  0  0  0  0  0
    2.5918   -3.7671    0.0000 C   0  0  0  0  0  0  0  0  0  0  0  0
    2.5819   -2.2672    0.0000 C   0  0  0  0  0  0  0  0  0  0  0  0
    3.6901   -1.2562    0.0000 C   0  0  0  0  0  0  0  0  0  0  0  0
    5.1196   -1.7103    0.0000 C   0  0  0  0  0  0  0  0  0  0  0  0
    6.2278   -0.6993    0.0000 C   0  0  0  0  0  0  0  0  0  0  0  0
    5.9063    0.7658    0.0000 C   0  0  0  0  0  0  0  0  0  0  0  0
    7.0144    1.7768    0.0000 C   0  0  0  0  0  0  0  0  0  0  0  0
    6.6929    3.2419    0.0000 C   0  0  0  0  0  0  0  0  0  0  0  0
    7.8010    4.2529    0.0000 O   0  0  0  0  0  0  0  0  0  0  0  0
    5.2633    3.6961    0.0000 C   0  0  0  0  0  0  0  0  0  0  0  0
    4.1552    2.6851    0.0000 C   0  0  0  0  0  0  0  0  0  0  0  0
    4.4767    1.2200    0.0000 C   0  0  0  0  0  0  0  0  0  0  0  0
    3.0471    1.6741    0.0000 C   0  0  0  0  0  0  0  0  0  0  0  0
    3.3686    0.2090    0.0000 C   0  0  0  0  0  0  0  0  0  0  0  0
    1.9390    0.6631    0.0000 C   0  0  0  0  0  0  0  0  0  0  0  0
    0.8309   -0.3479    0.0000 C   0  0  0  0  0  0  0  0  0  0  0  0
   -0.5987    0.1063    0.0000 O   0  0  0  0  0  0  0  0  0  0  0  0
    1.1523   -1.8130    0.0000 C   0  0  0  0  0  0  0  0  0  0  0  0
   -0.3169   -1.5108    0.0000 C   0  0  0  0  0  0  0  0  0  0  0  0
  2  1  1  6
  2  3  1  0
  3  4  1  0
  4  5  1  0
  5  6  2  0
  5  7  1  0
  7  8  1  0
  8  9  1  0
  9 10  1  0
 10 11  2  0
 10 12  2  0
 10 13  1  0
  2 14  1  0
 14 15  1  6
 15 16  1  0
 17 16  1  6
 17 18  1  0
 18 19  1  1
 19 20  1  0
 21 20  1  6
 21 22  1  0
 22 23  1  0
 23 24  1  6
 23 25  1  0
 25 26  1  0
 26 27  1  0
 27 28  1  6
 27 29  1  0
 29 30  1  6
 30 31  1  0
 31 32  1  1
 31 33  1  0
 33 34  1  6
 33 14  1  0
 33 17  1  0
 29 18  1  0
 27 21  1  0
M  END
>  <MS_ID>  (3557) 
MS3807

>  <SMILES>  (3557) 
C[C@H](CCC(=O)NCCS(=O)(=O)O)[C@H]1CC[C@H]2[C@@H]3CC[C@H]4C[C@@H](O)CC[C@]4(C)[C@H]3C[C@H](O)[C@]12C

>  <Structure_dimension>  (3557) 
2D

$$$$
MS3808
     RDKit          2D

 40 44  0  0  0  0  0  0  0  0999 V2000
  -10.0206    4.0113    0.0000 C   0  0  0  0  0  0  0  0  0  0  0  0
   -9.7539    2.5352    0.0000 O   0  0  0  0  0  0  0  0  0  0  0  0
   -8.3422    2.0281    0.0000 C   0  0  0  0  0  0  0  0  0  0  0  0
   -7.1972    2.9971    0.0000 O   0  0  0  0  0  0  0  0  0  0  0  0
   -8.0756    0.5520    0.0000 C   0  0  0  0  0  0  0  0  0  0  0  0
   -6.6639    0.0448    0.0000 C   0  0  0  0  0  0  0  0  0  0  0  0
   -6.3973   -1.4313    0.0000 C   0  0  0  0  0  0  0  0  0  0  0  0
   -7.5423   -2.4003    0.0000 C   0  0  0  0  0  0  0  0  0  0  0  0
   -4.9856   -1.9384    0.0000 C   0  0  0  0  0  0  0  0  0  0  0  0
   -4.5661   -3.3786    0.0000 C   0  0  0  0  0  0  0  0  0  0  0  0
   -3.0668   -3.4246    0.0000 C   0  0  0  0  0  0  0  0  0  0  0  0
   -2.5597   -2.0130    0.0000 C   0  0  0  0  0  0  0  0  0  0  0  0
   -1.1713   -1.4452    0.0000 C   0  0  0  0  0  0  0  0  0  0  0  0
    0.0146   -2.3638    0.0000 C   0  0  0  0  0  0  0  0  0  0  0  0
   -0.1879   -3.8500    0.0000 O   0  0  0  0  0  0  0  0  0  0  0  0
    1.4030   -1.7960    0.0000 C   0  0  0  0  0  0  0  0  0  0  0  0
    1.6056   -0.3098    0.0000 C   0  0  0  0  0  0  0  0  0  0  0  0
    2.9940    0.2579    0.0000 C   0  0  0  0  0  0  0  0  0  0  0  0
    3.1965    1.7442    0.0000 C   0  0  0  0  0  0  0  0  0  0  0  0
    4.5849    2.3119    0.0000 O   0  0  0  0  0  0  0  0  0  0  0  0
    5.7708    1.3934    0.0000 C   0  0  0  0  0  0  0  0  0  0  0  0
    5.5682   -0.0929    0.0000 O   0  0  0  0  0  0  0  0  0  0  0  0
    6.7541   -1.0114    0.0000 C   0  0  0  0  0  0  0  0  0  0  0  0
    6.5516   -2.4977    0.0000 C   0  0  0  0  0  0  0  0  0  0  0  0
    5.1632   -3.0654    0.0000 O   0  0  0  0  0  0  0  0  0  0  0  0
    8.1425   -0.4437    0.0000 C   0  0  0  0  0  0  0  0  0  0  0  0
    9.3284   -1.3622    0.0000 O   0  0  0  0  0  0  0  0  0  0  0  0
    8.3451    1.0426    0.0000 C   0  0  0  0  0  0  0  0  0  0  0  0
    9.7335    1.6103    0.0000 O   0  0  0  0  0  0  0  0  0  0  0  0
    7.1592    1.9611    0.0000 C   0  0  0  0  0  0  0  0  0  0  0  0
    7.3617    3.4474    0.0000 O   0  0  0  0  0  0  0  0  0  0  0  0
    2.0106    2.6627    0.0000 C   0  0  0  0  0  0  0  0  0  0  0  0
    0.6222    2.0950    0.0000 C   0  0  0  0  0  0  0  0  0  0  0  0
    0.4197    0.6088    0.0000 C   0  0  0  0  0  0  0  0  0  0  0  0
   -0.7662    1.5273    0.0000 C   0  0  0  0  0  0  0  0  0  0  0  0
   -0.9687    0.0410    0.0000 C   0  0  0  0  0  0  0  0  0  0  0  0
   -2.1546    0.9596    0.0000 C   0  0  0  0  0  0  0  0  0  0  0  0
   -3.5430    0.3918    0.0000 C   0  0  0  0  0  0  0  0  0  0  0  0
   -3.7456   -1.0944    0.0000 C   0  0  0  0  0  0  0  0  0  0  0  0
   -5.0209   -0.3049    0.0000 C   0  0  0  0  0  0  0  0  0  0  0  0
  1  2  1  0
  2  3  1  0
  3  4  2  0
  3  5  1  0
  5  6  1  0
  6  7  1  0
  7  8  1  6
  7  9  1  0
  9 10  1  6
 10 11  1  0
 12 11  1  6
 12 13  1  0
 13 14  1  1
 14 15  1  1
 14 16  1  0
 17 16  1  1
 17 18  1  0
 18 19  1  0
 19 20  1  1
 21 20  1  1
 21 22  1  0
 22 23  1  0
 23 24  1  1
 24 25  1  0
 23 26  1  0
 26 27  1  6
 26 28  1  0
 28 29  1  1
 28 30  1  0
 30 31  1  6
 19 32  1  0
 32 33  1  0
 33 34  1  0
 34 35  1  6
 34 36  1  0
 36 37  1  6
 37 38  1  0
 38 39  1  0
 39 40  1  6
 39  9  1  0
 39 12  1  0
 36 13  1  0
 34 17  1  0
 30 21  1  0
M  END
>  <MS_ID>  (3558) 
MS3808

>  <SMILES>  (3558) 
COC(=O)CC[C@@H](C)[C@H]1CC[C@H]2[C@@H]3[C@H](O)C[C@@H]4C[C@H](O[C@@H]5O[C@H](CO)[C@@H](O)[C@H](O)[C@H]5O)CC[C@]4(C)[C@H]3CC[C@]12C

>  <Structure_dimension>  (3558) 
2D

$$$$
MS3809
     RDKit          2D

 33 36  0  0  0  0  0  0  0  0999 V2000
   -1.5090   -4.2997    0.0000 C   0  0  0  0  0  0  0  0  0  0  0  0
   -0.8350   -2.9597    0.0000 C   0  0  0  0  0  0  0  0  0  0  0  0
   -1.6586   -1.7060    0.0000 C   0  0  0  0  0  0  0  0  0  0  0  0
   -3.1561   -1.7923    0.0000 C   0  0  0  0  0  0  0  0  0  0  0  0
   -3.9796   -0.5386    0.0000 C   0  0  0  0  0  0  0  0  0  0  0  0
   -3.3056    0.8015    0.0000 O   0  0  0  0  0  0  0  0  0  0  0  0
   -5.4771   -0.6249    0.0000 N   0  0  0  0  0  0  0  0  0  0  0  0
   -6.3006    0.6288    0.0000 C   0  0  0  0  0  0  0  0  0  0  0  0
   -7.7982    0.5425    0.0000 C   0  0  0  0  0  0  0  0  0  0  0  0
   -8.6217    1.7962    0.0000 S   0  0  0  0  0  0  0  0  0  0  0  0
   -9.8754    0.9726    0.0000 O   0  0  0  0  0  0  0  0  0  0  0  0
   -7.3680    2.6197    0.0000 O   0  0  0  0  0  0  0  0  0  0  0  0
   -9.4452    3.0499    0.0000 O   0  0  0  0  0  0  0  0  0  0  0  0
    0.6625   -2.8734    0.0000 C   0  0  0  0  0  0  0  0  0  0  0  0
    1.6125   -4.0341    0.0000 C   0  0  0  0  0  0  0  0  0  0  0  0
    3.0101   -3.4892    0.0000 C   0  0  0  0  0  0  0  0  0  0  0  0
    2.9237   -1.9917    0.0000 C   0  0  0  0  0  0  0  0  0  0  0  0
    3.9788   -0.9255    0.0000 C   0  0  0  0  0  0  0  0  0  0  0  0
    5.4297   -1.3062    0.0000 C   0  0  0  0  0  0  0  0  0  0  0  0
    6.4848   -0.2400    0.0000 C   0  0  0  0  0  0  0  0  0  0  0  0
    6.0890    1.2068    0.0000 C   0  0  0  0  0  0  0  0  0  0  0  0
    7.1441    2.2730    0.0000 C   0  0  0  0  0  0  0  0  0  0  0  0
    6.7483    3.7199    0.0000 C   0  0  0  0  0  0  0  0  0  0  0  0
    5.2974    4.1005    0.0000 C   0  0  0  0  0  0  0  0  0  0  0  0
    4.2423    3.0343    0.0000 C   0  0  0  0  0  0  0  0  0  0  0  0
    4.6381    1.5875    0.0000 C   0  0  0  0  0  0  0  0  0  0  0  0
    3.1872    1.9681    0.0000 C   0  0  0  0  0  0  0  0  0  0  0  0
    3.5830    0.5213    0.0000 C   0  0  0  0  0  0  0  0  0  0  0  0
    2.1321    0.9019    0.0000 C   0  0  0  0  0  0  0  0  0  0  0  0
    1.0770   -0.1643    0.0000 C   0  0  0  0  0  0  0  0  0  0  0  0
   -0.3739    0.2164    0.0000 O   0  0  0  0  0  0  0  0  0  0  0  0
    1.4728   -1.6111    0.0000 C   0  0  0  0  0  0  0  0  0  0  0  0
   -0.0099   -1.3842    0.0000 C   0  0  0  0  0  0  0  0  0  0  0  0
  2  1  1  6
  2  3  1  0
  3  4  1  0
  4  5  1  0
  5  6  2  0
  5  7  1  0
  7  8  1  0
  8  9  1  0
  9 10  1  0
 10 11  2  0
 10 12  2  0
 10 13  1  0
  2 14  1  0
 14 15  1  6
 15 16  1  0
 17 16  1  6
 17 18  1  0
 18 19  1  1
 19 20  1  0
 21 20  1  1
 21 22  1  0
 22 23  1  0
 23 24  1  0
 24 25  1  0
 25 26  1  0
 26 27  1  6
 26 28  1  0
 28 29  1  6
 29 30  1  0
 30 31  1  6
 30 32  1  0
 32 33  1  6
 32 14  1  0
 32 17  1  0
 28 18  1  0
 26 21  1  0
M  END
>  <MS_ID>  (3559) 
MS3809

>  <SMILES>  (3559) 
C[C@H](CCC(=O)NCCS(=O)(=O)O)[C@H]1CC[C@H]2[C@@H]3CC[C@@H]4CCCC[C@]4(C)[C@H]3C[C@@H](O)[C@]12C

>  <Structure_dimension>  (3559) 
2D

$$$$
MS3810
     RDKit          2D

 30 33  0  0  0  0  0  0  0  0999 V2000
   -4.5685   -2.6908    0.0000 C   0  0  0  0  0  0  0  0  0  0  0  0
   -3.4838   -1.6548    0.0000 C   0  0  0  0  0  0  0  0  0  0  0  0
   -3.8388   -0.1974    0.0000 C   0  0  0  0  0  0  0  0  0  0  0  0
   -5.2784    0.2240    0.0000 C   0  0  0  0  0  0  0  0  0  0  0  0
   -5.6333    1.6814    0.0000 C   0  0  0  0  0  0  0  0  0  0  0  0
   -4.5486    2.7174    0.0000 O   0  0  0  0  0  0  0  0  0  0  0  0
   -7.0729    2.1027    0.0000 C   0  0  0  0  0  0  0  0  0  0  0  0
   -7.4279    3.5601    0.0000 F   0  0  0  0  0  0  0  0  0  0  0  0
   -2.0442   -2.0761    0.0000 C   0  0  0  0  0  0  0  0  0  0  0  0
   -1.5389   -3.4884    0.0000 C   0  0  0  0  0  0  0  0  0  0  0  0
   -0.0395   -3.4442    0.0000 C   0  0  0  0  0  0  0  0  0  0  0  0
    0.3818   -2.0046    0.0000 C   0  0  0  0  0  0  0  0  0  0  0  0
    1.7336   -1.3544    0.0000 C   0  0  0  0  0  0  0  0  0  0  0  0
    2.9725   -2.1999    0.0000 C   0  0  0  0  0  0  0  0  0  0  0  0
    2.8597   -3.6957    0.0000 O   0  0  0  0  0  0  0  0  0  0  0  0
    4.3243   -1.5497    0.0000 C   0  0  0  0  0  0  0  0  0  0  0  0
    4.4371   -0.0540    0.0000 C   0  0  0  0  0  0  0  0  0  0  0  0
    5.7888    0.5962    0.0000 C   0  0  0  0  0  0  0  0  0  0  0  0
    5.9016    2.0920    0.0000 C   0  0  0  0  0  0  0  0  0  0  0  0
    7.2534    2.7422    0.0000 O   0  0  0  0  0  0  0  0  0  0  0  0
    4.6627    2.9375    0.0000 C   0  0  0  0  0  0  0  0  0  0  0  0
    3.3109    2.2873    0.0000 C   0  0  0  0  0  0  0  0  0  0  0  0
    3.1981    0.7916    0.0000 C   0  0  0  0  0  0  0  0  0  0  0  0
    1.9591    1.6371    0.0000 C   0  0  0  0  0  0  0  0  0  0  0  0
    1.8464    0.1414    0.0000 C   0  0  0  0  0  0  0  0  0  0  0  0
    0.6074    0.9869    0.0000 C   0  0  0  0  0  0  0  0  0  0  0  0
   -0.7444    0.3367    0.0000 C   0  0  0  0  0  0  0  0  0  0  0  0
   -1.9833    1.1823    0.0000 O   0  0  0  0  0  0  0  0  0  0  0  0
   -0.8572   -1.1590    0.0000 C   0  0  0  0  0  0  0  0  0  0  0  0
   -2.1777   -0.4476    0.0000 C   0  0  0  0  0  0  0  0  0  0  0  0
  2  1  1  6
  2  3  1  0
  3  4  1  0
  4  5  1  0
  5  6  2  0
  5  7  1  0
  7  8  1  0
  2  9  1  0
  9 10  1  6
 10 11  1  0
 12 11  1  6
 12 13  1  0
 13 14  1  1
 14 15  1  1
 14 16  1  0
 17 16  1  1
 17 18  1  0
 18 19  1  0
 19 20  1  1
 19 21  1  0
 21 22  1  0
 22 23  1  0
 23 24  1  6
 23 25  1  0
 25 26  1  6
 26 27  1  0
 27 28  1  1
 27 29  1  0
 29 30  1  6
 29  9  1  0
 29 12  1  0
 25 13  1  0
 23 17  1  0
M  END
>  <MS_ID>  (3560) 
MS3810

>  <SMILES>  (3560) 
C[C@H](CCC(=O)CF)[C@H]1CC[C@H]2[C@@H]3[C@H](O)C[C@@H]4C[C@H](O)CC[C@]4(C)[C@H]3C[C@H](O)[C@]12C

>  <Structure_dimension>  (3560) 
2D

$$$$
MS3811
     RDKit          2D

 29 32  0  0  0  0  0  0  0  0999 V2000
   -5.0303   -2.1373    0.0000 C   0  0  0  0  0  0  0  0  0  0  0  0
   -3.8594   -1.1998    0.0000 C   0  0  0  0  0  0  0  0  0  0  0  0
   -4.0858    0.2830    0.0000 C   0  0  0  0  0  0  0  0  0  0  0  0
   -5.4831    0.8284    0.0000 C   0  0  0  0  0  0  0  0  0  0  0  0
   -5.7095    2.3112    0.0000 C   0  0  0  0  0  0  0  0  0  0  0  0
   -4.5386    3.2487    0.0000 O   0  0  0  0  0  0  0  0  0  0  0  0
   -7.1069    2.8565    0.0000 O   0  0  0  0  0  0  0  0  0  0  0  0
   -2.4620   -1.7451    0.0000 C   0  0  0  0  0  0  0  0  0  0  0  0
   -2.0818   -3.1961    0.0000 C   0  0  0  0  0  0  0  0  0  0  0  0
   -0.5844   -3.2830    0.0000 C   0  0  0  0  0  0  0  0  0  0  0  0
   -0.0390   -1.8856    0.0000 C   0  0  0  0  0  0  0  0  0  0  0  0
    1.3643   -1.3559    0.0000 C   0  0  0  0  0  0  0  0  0  0  0  0
    2.5248   -2.3063    0.0000 C   0  0  0  0  0  0  0  0  0  0  0  0
    2.2819   -3.7865    0.0000 O   0  0  0  0  0  0  0  0  0  0  0  0
    3.9281   -1.7765    0.0000 C   0  0  0  0  0  0  0  0  0  0  0  0
    4.1710   -0.2963    0.0000 C   0  0  0  0  0  0  0  0  0  0  0  0
    5.5743    0.2334    0.0000 C   0  0  0  0  0  0  0  0  0  0  0  0
    5.8172    1.7136    0.0000 C   0  0  0  0  0  0  0  0  0  0  0  0
    7.2205    2.2434    0.0000 O   0  0  0  0  0  0  0  0  0  0  0  0
    4.6568    2.6641    0.0000 C   0  0  0  0  0  0  0  0  0  0  0  0
    3.2534    2.1343    0.0000 C   0  0  0  0  0  0  0  0  0  0  0  0
    3.0105    0.6541    0.0000 C   0  0  0  0  0  0  0  0  0  0  0  0
    1.8501    1.6046    0.0000 C   0  0  0  0  0  0  0  0  0  0  0  0
    1.6072    0.1244    0.0000 C   0  0  0  0  0  0  0  0  0  0  0  0
    0.4467    1.0748    0.0000 C   0  0  0  0  0  0  0  0  0  0  0  0
   -0.9566    0.5450    0.0000 C   0  0  0  0  0  0  0  0  0  0  0  0
   -2.1170    1.4955    0.0000 O   0  0  0  0  0  0  0  0  0  0  0  0
   -1.1995   -0.9352    0.0000 C   0  0  0  0  0  0  0  0  0  0  0  0
   -2.4529   -0.1112    0.0000 C   0  0  0  0  0  0  0  0  0  0  0  0
  2  1  1  6
  2  3  1  0
  3  4  1  0
  4  5  1  0
  5  6  2  0
  5  7  1  0
  2  8  1  0
  8  9  1  6
  9 10  1  0
 11 10  1  6
 11 12  1  0
 12 13  1  1
 13 14  2  0
 13 15  1  0
 16 15  1  6
 16 17  1  0
 17 18  1  0
 18 19  1  1
 18 20  1  0
 20 21  1  0
 21 22  1  0
 22 23  1  6
 22 24  1  0
 24 25  1  6
 25 26  1  0
 26 27  1  1
 26 28  1  0
 28 29  1  6
 28  8  1  0
 28 11  1  0
 24 12  1  0
 22 16  1  0
M  END
>  <MS_ID>  (3561) 
MS3811

>  <SMILES>  (3561) 
C[C@H](CCC(=O)O)[C@H]1CC[C@H]2[C@@H]3C(=O)C[C@H]4C[C@H](O)CC[C@]4(C)[C@H]3C[C@H](O)[C@]12C

>  <Structure_dimension>  (3561) 
2D

$$$$
MS3813
     RDKit          2D

 36 39  0  0  0  0  0  0  0  0999 V2000
   -2.1935   -4.2964    0.0000 C   0  0  0  0  0  0  0  0  0  0  0  0
   -1.4931   -2.9700    0.0000 C   0  0  0  0  0  0  0  0  0  0  0  0
   -2.2917   -1.7002    0.0000 C   0  0  0  0  0  0  0  0  0  0  0  0
   -3.7906   -1.7569    0.0000 C   0  0  0  0  0  0  0  0  0  0  0  0
   -4.5892   -0.4871    0.0000 C   0  0  0  0  0  0  0  0  0  0  0  0
   -3.8888    0.8393    0.0000 O   0  0  0  0  0  0  0  0  0  0  0  0
   -6.0881   -0.5438    0.0000 N   0  0  0  0  0  0  0  0  0  0  0  0
   -6.8867    0.7259    0.0000 C   0  0  0  0  0  0  0  0  0  0  0  0
   -8.3856    0.6692    0.0000 C   0  0  0  0  0  0  0  0  0  0  0  0
   -9.1841    1.9390    0.0000 S   0  0  0  0  0  0  0  0  0  0  0  0
  -10.4539    1.1404    0.0000 O   0  0  0  0  0  0  0  0  0  0  0  0
   -7.9144    2.7375    0.0000 O   0  0  0  0  0  0  0  0  0  0  0  0
   -9.9827    3.2087    0.0000 O   0  0  0  0  0  0  0  0  0  0  0  0
    0.0058   -2.9133    0.0000 C   0  0  0  0  0  0  0  0  0  0  0  0
    0.9327   -4.0926    0.0000 C   0  0  0  0  0  0  0  0  0  0  0  0
    2.3408   -3.5755    0.0000 C   0  0  0  0  0  0  0  0  0  0  0  0
    2.2841   -2.0766    0.0000 C   0  0  0  0  0  0  0  0  0  0  0  0
    3.3601   -1.0314    0.0000 C   0  0  0  0  0  0  0  0  0  0  0  0
    4.8032   -1.4407    0.0000 C   0  0  0  0  0  0  0  0  0  0  0  0
    5.1703   -2.8951    0.0000 O   0  0  0  0  0  0  0  0  0  0  0  0
    5.8791   -0.3956    0.0000 C   0  0  0  0  0  0  0  0  0  0  0  0
    7.3222   -0.8049    0.0000 O   0  0  0  0  0  0  0  0  0  0  0  0
    5.5120    1.0588    0.0000 C   0  0  0  0  0  0  0  0  0  0  0  0
    6.5880    2.1039    0.0000 C   0  0  0  0  0  0  0  0  0  0  0  0
    6.2209    3.5583    0.0000 C   0  0  0  0  0  0  0  0  0  0  0  0
    7.2969    4.6034    0.0000 O   0  0  0  0  0  0  0  0  0  0  0  0
    4.7778    3.9676    0.0000 C   0  0  0  0  0  0  0  0  0  0  0  0
    3.7018    2.9224    0.0000 C   0  0  0  0  0  0  0  0  0  0  0  0
    4.0690    1.4681    0.0000 C   0  0  0  0  0  0  0  0  0  0  0  0
    2.6259    1.8773    0.0000 C   0  0  0  0  0  0  0  0  0  0  0  0
    2.9930    0.4229    0.0000 C   0  0  0  0  0  0  0  0  0  0  0  0
    1.5499    0.8322    0.0000 C   0  0  0  0  0  0  0  0  0  0  0  0
    0.4739   -0.2129    0.0000 C   0  0  0  0  0  0  0  0  0  0  0  0
   -0.9692    0.1964    0.0000 O   0  0  0  0  0  0  0  0  0  0  0  0
    0.8410   -1.6673    0.0000 C   0  0  0  0  0  0  0  0  0  0  0  0
   -0.6370   -1.4111    0.0000 C   0  0  0  0  0  0  0  0  0  0  0  0
  2  1  1  6
  2  3  1  0
  3  4  1  0
  4  5  1  0
  5  6  2  0
  5  7  1  0
  7  8  1  0
  8  9  1  0
  9 10  1  0
 10 11  2  0
 10 12  2  0
 10 13  1  0
  2 14  1  0
 14 15  1  6
 15 16  1  0
 17 16  1  6
 17 18  1  0
 18 19  1  1
 19 20  1  6
 19 21  1  0
 21 22  1  6
 21 23  1  0
 23 24  1  1
 24 25  1  0
 25 26  1  1
 25 27  1  0
 27 28  1  0
 28 29  1  0
 29 30  1  6
 29 31  1  0
 31 32  1  6
 32 33  1  0
 33 34  1  6
 33 35  1  0
 35 36  1  6
 35 14  1  0
 35 17  1  0
 31 18  1  0
 29 23  1  0
M  END
>  <MS_ID>  (3562) 
MS3813

>  <SMILES>  (3562) 
C[C@H](CCC(=O)NCCS(=O)(=O)O)[C@H]1CC[C@H]2[C@@H]3[C@@H](O)[C@@H](O)[C@@H]4C[C@H](O)CC[C@]4(C)[C@H]3C[C@@H](O)[C@]12C

>  <Structure_dimension>  (3562) 
2D

$$$$
MS3818
     RDKit          2D

 33 36  0  0  0  0  0  0  0  0999 V2000
   -5.9347   -2.3224    0.0000 C   0  0  0  0  0  0  0  0  0  0  0  0
   -4.7592   -1.3907    0.0000 C   0  0  0  0  0  0  0  0  0  0  0  0
   -4.9784    0.0932    0.0000 C   0  0  0  0  0  0  0  0  0  0  0  0
   -6.3730    0.6454    0.0000 C   0  0  0  0  0  0  0  0  0  0  0  0
   -6.5922    2.1293    0.0000 C   0  0  0  0  0  0  0  0  0  0  0  0
   -5.4167    3.0610    0.0000 O   0  0  0  0  0  0  0  0  0  0  0  0
   -7.9869    2.6814    0.0000 C   0  0  0  0  0  0  0  0  0  0  0  0
   -8.2061    4.1653    0.0000 F   0  0  0  0  0  0  0  0  0  0  0  0
   -3.3645   -1.9428    0.0000 C   0  0  0  0  0  0  0  0  0  0  0  0
   -2.9914   -3.3957    0.0000 C   0  0  0  0  0  0  0  0  0  0  0  0
   -1.4944   -3.4898    0.0000 C   0  0  0  0  0  0  0  0  0  0  0  0
   -0.9422   -2.0951    0.0000 C   0  0  0  0  0  0  0  0  0  0  0  0
    0.4637   -1.5722    0.0000 C   0  0  0  0  0  0  0  0  0  0  0  0
    1.6195   -2.5283    0.0000 C   0  0  0  0  0  0  0  0  0  0  0  0
    1.3694   -4.0073    0.0000 O   0  0  0  0  0  0  0  0  0  0  0  0
    3.0254   -2.0054    0.0000 C   0  0  0  0  0  0  0  0  0  0  0  0
    3.2755   -0.5264    0.0000 C   0  0  0  0  0  0  0  0  0  0  0  0
    4.6814   -0.0035    0.0000 C   0  0  0  0  0  0  0  0  0  0  0  0
    4.9315    1.4755    0.0000 C   0  0  0  0  0  0  0  0  0  0  0  0
    6.3374    1.9984    0.0000 O   0  0  0  0  0  0  0  0  0  0  0  0
    7.4932    1.0423    0.0000 S   0  0  0  0  0  0  0  0  0  0  0  0
    6.5371   -0.1135    0.0000 O   0  0  0  0  0  0  0  0  0  0  0  0
    8.4493    2.1981    0.0000 O   0  0  0  0  0  0  0  0  0  0  0  0
    8.6490    0.0862    0.0000 O   0  0  0  0  0  0  0  0  0  0  0  0
    3.7757    2.4316    0.0000 C   0  0  0  0  0  0  0  0  0  0  0  0
    2.3698    1.9087    0.0000 C   0  0  0  0  0  0  0  0  0  0  0  0
    2.1197    0.4297    0.0000 C   0  0  0  0  0  0  0  0  0  0  0  0
    0.9639    1.3858    0.0000 C   0  0  0  0  0  0  0  0  0  0  0  0
    0.7138   -0.0932    0.0000 C   0  0  0  0  0  0  0  0  0  0  0  0
   -0.4420    0.8629    0.0000 C   0  0  0  0  0  0  0  0  0  0  0  0
   -1.8479    0.3400    0.0000 C   0  0  0  0  0  0  0  0  0  0  0  0
   -2.0980   -1.1390    0.0000 C   0  0  0  0  0  0  0  0  0  0  0  0
   -3.3474   -0.3090    0.0000 C   0  0  0  0  0  0  0  0  0  0  0  0
  2  1  1  6
  2  3  1  0
  3  4  1  0
  4  5  1  0
  5  6  2  0
  5  7  1  0
  7  8  1  0
  2  9  1  0
  9 10  1  6
 10 11  1  0
 12 11  1  6
 12 13  1  0
 13 14  1  1
 14 15  1  1
 14 16  1  0
 17 16  1  1
 17 18  1  0
 18 19  1  0
 19 20  1  1
 20 21  1  0
 21 22  2  0
 21 23  2  0
 21 24  1  0
 19 25  1  0
 25 26  1  0
 26 27  1  0
 27 28  1  6
 27 29  1  0
 29 30  1  6
 30 31  1  0
 31 32  1  0
 32 33  1  6
 32  9  1  0
 32 12  1  0
 29 13  1  0
 27 17  1  0
M  END
>  <MS_ID>  (3563) 
MS3818

>  <SMILES>  (3563) 
C[C@H](CCC(=O)CF)[C@H]1CC[C@H]2[C@@H]3[C@H](O)C[C@@H]4C[C@H](OS(=O)(=O)O)CC[C@]4(C)[C@H]3CC[C@]12C

>  <Structure_dimension>  (3563) 
2D

$$$$
MS3821
     RDKit          2D

 33 36  0  0  0  0  0  0  0  0999 V2000
   -2.4169   -4.1269    0.0000 C   0  0  0  0  0  0  0  0  0  0  0  0
   -1.5980   -2.8701    0.0000 C   0  0  0  0  0  0  0  0  0  0  0  0
   -2.2770   -1.5326    0.0000 C   0  0  0  0  0  0  0  0  0  0  0  0
   -3.7748   -1.4518    0.0000 C   0  0  0  0  0  0  0  0  0  0  0  0
   -4.4538   -0.1143    0.0000 C   0  0  0  0  0  0  0  0  0  0  0  0
   -3.6350    1.1425    0.0000 O   0  0  0  0  0  0  0  0  0  0  0  0
   -5.9516   -0.0336    0.0000 N   0  0  0  0  0  0  0  0  0  0  0  0
   -6.6306    1.3040    0.0000 C   0  0  0  0  0  0  0  0  0  0  0  0
   -5.8118    2.5608    0.0000 C   0  0  0  0  0  0  0  0  0  0  0  0
   -6.4907    3.8983    0.0000 S   0  0  0  0  0  0  0  0  0  0  0  0
   -8.1284    1.3847    0.0000 C   0  0  0  0  0  0  0  0  0  0  0  0
   -8.9473    0.1279    0.0000 O   0  0  0  0  0  0  0  0  0  0  0  0
   -8.8074    2.7223    0.0000 O   0  0  0  0  0  0  0  0  0  0  0  0
   -0.1002   -2.9509    0.0000 C   0  0  0  0  0  0  0  0  0  0  0  0
    0.7149   -4.2101    0.0000 C   0  0  0  0  0  0  0  0  0  0  0  0
    2.1644   -3.8240    0.0000 C   0  0  0  0  0  0  0  0  0  0  0  0
    2.2451   -2.3262    0.0000 C   0  0  0  0  0  0  0  0  0  0  0  0
    3.4122   -1.3840    0.0000 C   0  0  0  0  0  0  0  0  0  0  0  0
    4.8118   -1.9236    0.0000 C   0  0  0  0  0  0  0  0  0  0  0  0
    5.9789   -0.9814    0.0000 C   0  0  0  0  0  0  0  0  0  0  0  0
    5.7465    0.5005    0.0000 C   0  0  0  0  0  0  0  0  0  0  0  0
    6.9136    1.4427    0.0000 C   0  0  0  0  0  0  0  0  0  0  0  0
    6.6812    2.9246    0.0000 C   0  0  0  0  0  0  0  0  0  0  0  0
    7.8483    3.8668    0.0000 O   0  0  0  0  0  0  0  0  0  0  0  0
    5.2816    3.4643    0.0000 C   0  0  0  0  0  0  0  0  0  0  0  0
    4.1145    2.5220    0.0000 C   0  0  0  0  0  0  0  0  0  0  0  0
    4.3469    1.0401    0.0000 C   0  0  0  0  0  0  0  0  0  0  0  0
    2.9474    1.5798    0.0000 C   0  0  0  0  0  0  0  0  0  0  0  0
    3.1798    0.0979    0.0000 C   0  0  0  0  0  0  0  0  0  0  0  0
    1.7802    0.6376    0.0000 C   0  0  0  0  0  0  0  0  0  0  0  0
    0.6131   -0.3047    0.0000 C   0  0  0  0  0  0  0  0  0  0  0  0
    0.8455   -1.7866    0.0000 C   0  0  0  0  0  0  0  0  0  0  0  0
   -0.6028   -1.3962    0.0000 C   0  0  0  0  0  0  0  0  0  0  0  0
  2  1  1  6
  2  3  1  0
  3  4  1  0
  4  5  1  0
  5  6  2  0
  5  7  1  0
  7  8  1  0
  8  9  1  6
  9 10  1  0
  8 11  1  0
 11 12  2  0
 11 13  1  0
  2 14  1  0
 14 15  1  6
 15 16  1  0
 17 16  1  6
 17 18  1  0
 18 19  1  1
 19 20  1  0
 21 20  1  1
 21 22  1  0
 22 23  1  0
 23 24  1  1
 23 25  1  0
 25 26  1  0
 26 27  1  0
 27 28  1  6
 27 29  1  0
 29 30  1  6
 30 31  1  0
 31 32  1  0
 32 33  1  6
 32 14  1  0
 32 17  1  0
 29 18  1  0
 27 21  1  0
M  END
>  <MS_ID>  (3564) 
MS3821

>  <SMILES>  (3564) 
C[C@H](CCC(=O)N[C@@H](CS)C(=O)O)[C@H]1CC[C@H]2[C@@H]3CC[C@@H]4C[C@H](O)CC[C@]4(C)[C@H]3CC[C@]12C

>  <Structure_dimension>  (3564) 
2D

$$$$
MS3823
     RDKit          2D

 33 36  0  0  0  0  0  0  0  0999 V2000
   -5.0246   -2.6773    0.0000 C   0  0  0  0  0  0  0  0  0  0  0  0
   -4.0826   -1.5100    0.0000 C   0  0  0  0  0  0  0  0  0  0  0  0
   -4.6226   -0.1105    0.0000 C   0  0  0  0  0  0  0  0  0  0  0  0
   -6.1045    0.1216    0.0000 C   0  0  0  0  0  0  0  0  0  0  0  0
   -6.6444    1.5210    0.0000 C   0  0  0  0  0  0  0  0  0  0  0  0
   -5.7025    2.6884    0.0000 O   0  0  0  0  0  0  0  0  0  0  0  0
   -8.1264    1.7531    0.0000 O   0  0  0  0  0  0  0  0  0  0  0  0
   -2.6007   -1.7421    0.0000 C   0  0  0  0  0  0  0  0  0  0  0  0
   -1.9174   -3.0774    0.0000 C   0  0  0  0  0  0  0  0  0  0  0  0
   -0.4363   -2.8402    0.0000 C   0  0  0  0  0  0  0  0  0  0  0  0
   -0.2042   -1.3583    0.0000 C   0  0  0  0  0  0  0  0  0  0  0  0
    1.0525   -0.5392    0.0000 C   0  0  0  0  0  0  0  0  0  0  0  0
    2.3901   -1.2179    0.0000 C   0  0  0  0  0  0  0  0  0  0  0  0
    2.4712   -2.7157    0.0000 N   0  0  0  0  0  0  0  0  0  0  0  0
    3.8089   -3.3944    0.0000 S   0  0  0  0  0  0  0  0  0  0  0  0
    3.1302   -4.7321    0.0000 O   0  0  0  0  0  0  0  0  0  0  0  0
    4.4876   -2.0567    0.0000 O   0  0  0  0  0  0  0  0  0  0  0  0
    5.1465   -4.0731    0.0000 O   0  0  0  0  0  0  0  0  0  0  0  0
    3.6467   -0.3988    0.0000 C   0  0  0  0  0  0  0  0  0  0  0  0
    3.5657    1.0990    0.0000 C   0  0  0  0  0  0  0  0  0  0  0  0
    4.8223    1.9182    0.0000 C   0  0  0  0  0  0  0  0  0  0  0  0
    4.7412    3.4160    0.0000 C   0  0  0  0  0  0  0  0  0  0  0  0
    5.9978    4.2351    0.0000 O   0  0  0  0  0  0  0  0  0  0  0  0
    3.4035    4.0947    0.0000 C   0  0  0  0  0  0  0  0  0  0  0  0
    2.1469    3.2755    0.0000 C   0  0  0  0  0  0  0  0  0  0  0  0
    2.2280    1.7777    0.0000 C   0  0  0  0  0  0  0  0  0  0  0  0
    0.8903    2.4564    0.0000 C   0  0  0  0  0  0  0  0  0  0  0  0
    0.9714    0.9586    0.0000 C   0  0  0  0  0  0  0  0  0  0  0  0
   -0.3663    1.6373    0.0000 C   0  0  0  0  0  0  0  0  0  0  0  0
   -1.6229    0.8182    0.0000 C   0  0  0  0  0  0  0  0  0  0  0  0
   -2.9606    1.4969    0.0000 O   0  0  0  0  0  0  0  0  0  0  0  0
   -1.5418   -0.6796    0.0000 C   0  0  0  0  0  0  0  0  0  0  0  0
   -2.9431   -0.1445    0.0000 C   0  0  0  0  0  0  0  0  0  0  0  0
  2  1  1  6
  2  3  1  0
  3  4  1  0
  4  5  1  0
  5  6  2  0
  5  7  1  0
  2  8  1  0
  8  9  1  6
  9 10  1  0
 11 10  1  6
 11 12  1  0
 12 13  1  1
 13 14  1  1
 14 15  1  0
 15 16  2  0
 15 17  2  0
 15 18  1  0
 13 19  1  0
 20 19  1  1
 20 21  1  0
 21 22  1  0
 22 23  1  1
 22 24  1  0
 24 25  1  0
 25 26  1  0
 26 27  1  6
 26 28  1  0
 28 29  1  6
 29 30  1  0
 30 31  1  1
 30 32  1  0
 32 33  1  6
 32  8  1  0
 32 11  1  0
 28 12  1  0
 26 20  1  0
M  END
>  <MS_ID>  (3565) 
MS3823

>  <SMILES>  (3565) 
C[C@H](CCC(=O)O)[C@H]1CC[C@H]2[C@@H]3[C@H](NS(=O)(=O)O)C[C@@H]4C[C@H](O)CC[C@]4(C)[C@H]3C[C@H](O)[C@]12C

>  <Structure_dimension>  (3565) 
2D

$$$$
MS3824
     RDKit          2D

 29 32  0  0  0  0  0  0  0  0999 V2000
   -7.5935    3.5474    0.0000 C   0  0  0  0  0  0  0  0  0  0  0  0
   -7.2369    2.0904    0.0000 O   0  0  0  0  0  0  0  0  0  0  0  0
   -5.7968    1.6707    0.0000 C   0  0  0  0  0  0  0  0  0  0  0  0
   -4.7133    2.7080    0.0000 O   0  0  0  0  0  0  0  0  0  0  0  0
   -5.4402    0.2137    0.0000 C   0  0  0  0  0  0  0  0  0  0  0  0
   -4.0001   -0.2060    0.0000 C   0  0  0  0  0  0  0  0  0  0  0  0
   -3.6435   -1.6630    0.0000 C   0  0  0  0  0  0  0  0  0  0  0  0
   -4.7270   -2.7003    0.0000 C   0  0  0  0  0  0  0  0  0  0  0  0
   -2.2035   -2.0826    0.0000 C   0  0  0  0  0  0  0  0  0  0  0  0
   -1.6965   -3.4944    0.0000 C   0  0  0  0  0  0  0  0  0  0  0  0
   -0.1972   -3.4485    0.0000 C   0  0  0  0  0  0  0  0  0  0  0  0
    0.2225   -2.0084    0.0000 C   0  0  0  0  0  0  0  0  0  0  0  0
    1.5735   -1.3567    0.0000 C   0  0  0  0  0  0  0  0  0  0  0  0
    2.8134   -2.2008    0.0000 C   0  0  0  0  0  0  0  0  0  0  0  0
    4.1644   -1.5491    0.0000 C   0  0  0  0  0  0  0  0  0  0  0  0
    5.4043   -2.3933    0.0000 O   0  0  0  0  0  0  0  0  0  0  0  0
    4.2755   -0.0532    0.0000 C   0  0  0  0  0  0  0  0  0  0  0  0
    5.6265    0.5985    0.0000 C   0  0  0  0  0  0  0  0  0  0  0  0
    5.7376    2.0944    0.0000 C   0  0  0  0  0  0  0  0  0  0  0  0
    7.0887    2.7461    0.0000 O   0  0  0  0  0  0  0  0  0  0  0  0
    4.4977    2.9385    0.0000 C   0  0  0  0  0  0  0  0  0  0  0  0
    3.1467    2.2868    0.0000 C   0  0  0  0  0  0  0  0  0  0  0  0
    3.0356    0.7909    0.0000 C   0  0  0  0  0  0  0  0  0  0  0  0
    1.7957    1.6351    0.0000 C   0  0  0  0  0  0  0  0  0  0  0  0
    1.6846    0.1392    0.0000 C   0  0  0  0  0  0  0  0  0  0  0  0
    0.4447    0.9834    0.0000 C   0  0  0  0  0  0  0  0  0  0  0  0
   -0.9064    0.3316    0.0000 C   0  0  0  0  0  0  0  0  0  0  0  0
   -1.0175   -1.1643    0.0000 C   0  0  0  0  0  0  0  0  0  0  0  0
   -2.3388   -0.4543    0.0000 C   0  0  0  0  0  0  0  0  0  0  0  0
  1  2  1  0
  2  3  1  0
  3  4  2  0
  3  5  1  0
  5  6  1  0
  6  7  1  0
  7  8  1  6
  7  9  1  0
  9 10  1  6
 10 11  1  0
 12 11  1  6
 12 13  1  0
 13 14  1  1
 14 15  1  0
 15 16  1  1
 15 17  1  0
 17 18  1  6
 18 19  1  0
 19 20  1  6
 19 21  1  0
 21 22  1  0
 22 23  1  0
 23 24  1  6
 23 25  1  0
 25 26  1  6
 26 27  1  0
 27 28  1  0
 28 29  1  6
 28  9  1  0
 28 12  1  0
 25 13  1  0
 23 17  1  0
M  END
>  <MS_ID>  (3566) 
MS3824

>  <SMILES>  (3566) 
COC(=O)CC[C@@H](C)[C@H]1CC[C@H]2[C@@H]3C[C@H](O)[C@H]4C[C@@H](O)CC[C@]4(C)[C@H]3CC[C@]12C

>  <Structure_dimension>  (3566) 
2D

$$$$
MS3828
     RDKit          2D

 40 43  0  0  0  0  0  0  0  0999 V2000
   -0.4115   -4.7292    0.0000 C   0  0  0  0  0  0  0  0  0  0  0  0
    0.1430   -3.3354    0.0000 C   0  0  0  0  0  0  0  0  0  0  0  0
   -0.7868   -2.1583    0.0000 C   0  0  0  0  0  0  0  0  0  0  0  0
   -2.2710   -2.3750    0.0000 C   0  0  0  0  0  0  0  0  0  0  0  0
   -3.2008   -1.1979    0.0000 C   0  0  0  0  0  0  0  0  0  0  0  0
   -2.6463    0.1958    0.0000 O   0  0  0  0  0  0  0  0  0  0  0  0
   -4.6851   -1.4146    0.0000 N   0  0  0  0  0  0  0  0  0  0  0  0
   -5.6149   -0.2375    0.0000 C   0  0  0  0  0  0  0  0  0  0  0  0
   -7.0991   -0.4542    0.0000 C   0  0  0  0  0  0  0  0  0  0  0  0
   -8.0289    0.7229    0.0000 C   0  0  0  0  0  0  0  0  0  0  0  0
   -9.5132    0.5062    0.0000 C   0  0  0  0  0  0  0  0  0  0  0  0
  -10.4430    1.6833    0.0000 N   0  0  0  0  0  0  0  0  0  0  0  0
  -11.9272    1.4666    0.0000 C   0  0  0  0  0  0  0  0  0  0  0  0
  -12.8570    2.6437    0.0000 N   0  0  0  0  0  0  0  0  0  0  0  0
  -12.4817    0.0728    0.0000 O   0  0  0  0  0  0  0  0  0  0  0  0
   -5.0604    1.1562    0.0000 C   0  0  0  0  0  0  0  0  0  0  0  0
   -3.5761    1.3729    0.0000 O   0  0  0  0  0  0  0  0  0  0  0  0
   -5.9902    2.3333    0.0000 O   0  0  0  0  0  0  0  0  0  0  0  0
    1.6273   -3.1187    0.0000 C   0  0  0  0  0  0  0  0  0  0  0  0
    2.6750   -4.1922    0.0000 C   0  0  0  0  0  0  0  0  0  0  0  0
    4.0197   -3.5274    0.0000 C   0  0  0  0  0  0  0  0  0  0  0  0
    3.8030   -2.0432    0.0000 C   0  0  0  0  0  0  0  0  0  0  0  0
    4.7610   -0.8890    0.0000 C   0  0  0  0  0  0  0  0  0  0  0  0
    6.2396   -1.1416    0.0000 C   0  0  0  0  0  0  0  0  0  0  0  0
    6.7602   -2.5483    0.0000 O   0  0  0  0  0  0  0  0  0  0  0  0
    7.1977    0.0126    0.0000 C   0  0  0  0  0  0  0  0  0  0  0  0
    8.6762   -0.2400    0.0000 O   0  0  0  0  0  0  0  0  0  0  0  0
    6.6771    1.4194    0.0000 C   0  0  0  0  0  0  0  0  0  0  0  0
    7.6352    2.5736    0.0000 C   0  0  0  0  0  0  0  0  0  0  0  0
    7.1146    3.9804    0.0000 C   0  0  0  0  0  0  0  0  0  0  0  0
    8.0727    5.1346    0.0000 O   0  0  0  0  0  0  0  0  0  0  0  0
    5.6360    4.2330    0.0000 C   0  0  0  0  0  0  0  0  0  0  0  0
    4.6780    3.0788    0.0000 C   0  0  0  0  0  0  0  0  0  0  0  0
    5.1985    1.6720    0.0000 C   0  0  0  0  0  0  0  0  0  0  0  0
    3.7200    1.9246    0.0000 C   0  0  0  0  0  0  0  0  0  0  0  0
    4.2405    0.5178    0.0000 C   0  0  0  0  0  0  0  0  0  0  0  0
    2.7619    0.7704    0.0000 C   0  0  0  0  0  0  0  0  0  0  0  0
    1.8039   -0.3838    0.0000 C   0  0  0  0  0  0  0  0  0  0  0  0
    2.3244   -1.7906    0.0000 C   0  0  0  0  0  0  0  0  0  0  0  0
    0.8275   -1.6939    0.0000 C   0  0  0  0  0  0  0  0  0  0  0  0
  2  1  1  6
  2  3  1  0
  3  4  1  0
  4  5  1  0
  5  6  2  0
  5  7  1  0
  7  8  1  0
  8  9  1  1
  9 10  1  0
 10 11  1  0
 11 12  1  0
 12 13  1  0
 13 14  1  0
 13 15  2  0
  8 16  1  0
 16 17  2  0
 16 18  1  0
  2 19  1  0
 19 20  1  6
 20 21  1  0
 22 21  1  6
 22 23  1  0
 23 24  1  1
 24 25  1  1
 24 26  1  0
 26 27  1  1
 26 28  1  0
 28 29  1  1
 29 30  1  0
 30 31  1  1
 30 32  1  0
 32 33  1  0
 33 34  1  0
 34 35  1  6
 34 36  1  0
 36 37  1  6
 37 38  1  0
 38 39  1  0
 39 40  1  6
 39 19  1  0
 39 22  1  0
 36 23  1  0
 34 28  1  0
M  END
>  <MS_ID>  (3567) 
MS3828

>  <SMILES>  (3567) 
C[C@H](CCC(=O)N[C@@H](CCCNC(N)=O)C(=O)O)[C@H]1CC[C@H]2[C@@H]3[C@H](O)[C@H](O)[C@@H]4C[C@H](O)CC[C@]4(C)[C@H]3CC[C@]12C

>  <Structure_dimension>  (3567) 
2D

$$$$
MS3829
     RDKit          2D

 28 31  0  0  0  0  0  0  0  0999 V2000
   -5.1936   -2.1523    0.0000 C   0  0  0  0  0  0  0  0  0  0  0  0
   -4.0282   -1.2079    0.0000 C   0  0  0  0  0  0  0  0  0  0  0  0
   -4.2633    0.2735    0.0000 C   0  0  0  0  0  0  0  0  0  0  0  0
   -5.6638    0.8107    0.0000 C   0  0  0  0  0  0  0  0  0  0  0  0
   -5.8990    2.2921    0.0000 C   0  0  0  0  0  0  0  0  0  0  0  0
   -4.7335    3.2365    0.0000 O   0  0  0  0  0  0  0  0  0  0  0  0
   -7.2995    2.8292    0.0000 O   0  0  0  0  0  0  0  0  0  0  0  0
   -2.6276   -1.7450    0.0000 C   0  0  0  0  0  0  0  0  0  0  0  0
   -2.2390   -3.1938    0.0000 C   0  0  0  0  0  0  0  0  0  0  0  0
   -0.7410   -3.2718    0.0000 C   0  0  0  0  0  0  0  0  0  0  0  0
   -0.2039   -1.8713    0.0000 C   0  0  0  0  0  0  0  0  0  0  0  0
    1.1963   -1.3333    0.0000 C   0  0  0  0  0  0  0  0  0  0  0  0
    2.3623   -2.2769    0.0000 C   0  0  0  0  0  0  0  0  0  0  0  0
    3.7625   -1.7389    0.0000 C   0  0  0  0  0  0  0  0  0  0  0  0
    4.9286   -2.6825    0.0000 O   0  0  0  0  0  0  0  0  0  0  0  0
    3.9967   -0.2573    0.0000 C   0  0  0  0  0  0  0  0  0  0  0  0
    5.3969    0.2807    0.0000 C   0  0  0  0  0  0  0  0  0  0  0  0
    5.6311    1.7623    0.0000 C   0  0  0  0  0  0  0  0  0  0  0  0
    7.0313    2.3003    0.0000 O   0  0  0  0  0  0  0  0  0  0  0  0
    4.4651    2.7059    0.0000 C   0  0  0  0  0  0  0  0  0  0  0  0
    3.0649    2.1679    0.0000 C   0  0  0  0  0  0  0  0  0  0  0  0
    2.8307    0.6863    0.0000 C   0  0  0  0  0  0  0  0  0  0  0  0
    1.6647    1.6299    0.0000 C   0  0  0  0  0  0  0  0  0  0  0  0
    1.4305    0.1483    0.0000 C   0  0  0  0  0  0  0  0  0  0  0  0
    0.2645    1.0919    0.0000 C   0  0  0  0  0  0  0  0  0  0  0  0
   -1.1357    0.5539    0.0000 C   0  0  0  0  0  0  0  0  0  0  0  0
   -1.3699   -0.9277    0.0000 C   0  0  0  0  0  0  0  0  0  0  0  0
   -2.6282   -0.1111    0.0000 C   0  0  0  0  0  0  0  0  0  0  0  0
  2  1  1  6
  2  3  1  0
  3  4  1  0
  4  5  1  0
  5  6  2  0
  5  7  1  0
  2  8  1  0
  8  9  1  6
  9 10  1  0
 11 10  1  6
 11 12  1  0
 12 13  1  1
 13 14  1  0
 14 15  1  6
 14 16  1  0
 16 17  1  1
 17 18  1  0
 18 19  1  6
 18 20  1  0
 20 21  1  0
 21 22  1  0
 22 23  1  6
 22 24  1  0
 24 25  1  6
 25 26  1  0
 26 27  1  0
 27 28  1  6
 27  8  1  0
 27 11  1  0
 24 12  1  0
 22 16  1  0
M  END
>  <MS_ID>  (3568) 
MS3829

>  <SMILES>  (3568) 
C[C@H](CCC(=O)O)[C@H]1CC[C@H]2[C@@H]3C[C@@H](O)[C@@H]4C[C@@H](O)CC[C@]4(C)[C@H]3CC[C@]12C

>  <Structure_dimension>  (3568) 
2D

$$$$
MS3830
     RDKit          2D

 30 33  0  0  0  0  0  0  0  0999 V2000
   -5.1134   -2.2540    0.0000 C   0  0  0  0  0  0  0  0  0  0  0  0
   -3.9811   -1.2701    0.0000 C   0  0  0  0  0  0  0  0  0  0  0  0
   -4.2670    0.2024    0.0000 C   0  0  0  0  0  0  0  0  0  0  0  0
   -5.6852    0.6910    0.0000 C   0  0  0  0  0  0  0  0  0  0  0  0
   -5.9711    2.1635    0.0000 C   0  0  0  0  0  0  0  0  0  0  0  0
   -4.8388    3.1474    0.0000 O   0  0  0  0  0  0  0  0  0  0  0  0
   -7.3892    2.6522    0.0000 O   0  0  0  0  0  0  0  0  0  0  0  0
   -2.5629   -1.7588    0.0000 C   0  0  0  0  0  0  0  0  0  0  0  0
   -2.1247   -3.1933    0.0000 C   0  0  0  0  0  0  0  0  0  0  0  0
   -0.6249   -3.2198    0.0000 C   0  0  0  0  0  0  0  0  0  0  0  0
   -0.1362   -1.8017    0.0000 C   0  0  0  0  0  0  0  0  0  0  0  0
    1.2446   -1.2159    0.0000 C   0  0  0  0  0  0  0  0  0  0  0  0
    2.4424   -2.1188    0.0000 C   0  0  0  0  0  0  0  0  0  0  0  0
    2.2593   -3.6076    0.0000 O   0  0  0  0  0  0  0  0  0  0  0  0
    3.8233   -1.5330    0.0000 C   0  0  0  0  0  0  0  0  0  0  0  0
    5.0210   -2.4360    0.0000 O   0  0  0  0  0  0  0  0  0  0  0  0
    4.0064   -0.0442    0.0000 C   0  0  0  0  0  0  0  0  0  0  0  0
    5.3873    0.5416    0.0000 C   0  0  0  0  0  0  0  0  0  0  0  0
    5.5704    2.0303    0.0000 C   0  0  0  0  0  0  0  0  0  0  0  0
    6.9513    2.6161    0.0000 O   0  0  0  0  0  0  0  0  0  0  0  0
    4.3726    2.9333    0.0000 C   0  0  0  0  0  0  0  0  0  0  0  0
    2.9918    2.3475    0.0000 C   0  0  0  0  0  0  0  0  0  0  0  0
    2.8086    0.8587    0.0000 C   0  0  0  0  0  0  0  0  0  0  0  0
    1.6109    1.7617    0.0000 C   0  0  0  0  0  0  0  0  0  0  0  0
    1.4278    0.2729    0.0000 C   0  0  0  0  0  0  0  0  0  0  0  0
    0.2300    1.1759    0.0000 C   0  0  0  0  0  0  0  0  0  0  0  0
   -1.1509    0.5901    0.0000 C   0  0  0  0  0  0  0  0  0  0  0  0
   -2.3486    1.4931    0.0000 O   0  0  0  0  0  0  0  0  0  0  0  0
   -1.3340   -0.8987    0.0000 C   0  0  0  0  0  0  0  0  0  0  0  0
   -2.6196   -0.1258    0.0000 C   0  0  0  0  0  0  0  0  0  0  0  0
  2  1  1  6
  2  3  1  0
  3  4  1  0
  4  5  1  0
  5  6  2  0
  5  7  1  0
  2  8  1  0
  8  9  1  6
  9 10  1  0
 11 10  1  6
 11 12  1  0
 12 13  1  1
 13 14  1  1
 13 15  1  0
 15 16  1  1
 15 17  1  0
 17 18  1  1
 18 19  1  0
 19 20  1  1
 19 21  1  0
 21 22  1  0
 22 23  1  0
 23 24  1  6
 23 25  1  0
 25 26  1  6
 26 27  1  0
 27 28  1  6
 27 29  1  0
 29 30  1  6
 29  8  1  0
 29 11  1  0
 25 12  1  0
 23 17  1  0
M  END
>  <MS_ID>  (3569) 
MS3830

>  <SMILES>  (3569) 
C[C@H](CCC(=O)O)[C@H]1CC[C@H]2[C@@H]3[C@H](O)[C@H](O)[C@@H]4C[C@H](O)CC[C@]4(C)[C@H]3C[C@@H](O)[C@]12C

>  <Structure_dimension>  (3569) 
2D

$$$$
MS3831
     RDKit          2D

 29 32  0  0  0  0  0  0  0  0999 V2000
   -5.0303   -2.1373    0.0000 C   0  0  0  0  0  0  0  0  0  0  0  0
   -3.8594   -1.1998    0.0000 C   0  0  0  0  0  0  0  0  0  0  0  0
   -4.0858    0.2830    0.0000 C   0  0  0  0  0  0  0  0  0  0  0  0
   -5.4831    0.8284    0.0000 C   0  0  0  0  0  0  0  0  0  0  0  0
   -5.7095    2.3112    0.0000 C   0  0  0  0  0  0  0  0  0  0  0  0
   -4.5386    3.2487    0.0000 O   0  0  0  0  0  0  0  0  0  0  0  0
   -7.1069    2.8565    0.0000 O   0  0  0  0  0  0  0  0  0  0  0  0
   -2.4620   -1.7451    0.0000 C   0  0  0  0  0  0  0  0  0  0  0  0
   -2.0818   -3.1961    0.0000 C   0  0  0  0  0  0  0  0  0  0  0  0
   -0.5844   -3.2830    0.0000 C   0  0  0  0  0  0  0  0  0  0  0  0
   -0.0390   -1.8856    0.0000 C   0  0  0  0  0  0  0  0  0  0  0  0
    1.3643   -1.3559    0.0000 C   0  0  0  0  0  0  0  0  0  0  0  0
    2.5248   -2.3063    0.0000 C   0  0  0  0  0  0  0  0  0  0  0  0
    2.2819   -3.7865    0.0000 O   0  0  0  0  0  0  0  0  0  0  0  0
    3.9281   -1.7765    0.0000 C   0  0  0  0  0  0  0  0  0  0  0  0
    4.1710   -0.2963    0.0000 C   0  0  0  0  0  0  0  0  0  0  0  0
    5.5743    0.2334    0.0000 C   0  0  0  0  0  0  0  0  0  0  0  0
    5.8172    1.7136    0.0000 C   0  0  0  0  0  0  0  0  0  0  0  0
    7.2205    2.2434    0.0000 I   0  0  0  0  0  0  0  0  0  0  0  0
    4.6568    2.6641    0.0000 C   0  0  0  0  0  0  0  0  0  0  0  0
    3.2534    2.1343    0.0000 C   0  0  0  0  0  0  0  0  0  0  0  0
    3.0105    0.6541    0.0000 C   0  0  0  0  0  0  0  0  0  0  0  0
    1.8501    1.6046    0.0000 C   0  0  0  0  0  0  0  0  0  0  0  0
    1.6072    0.1244    0.0000 C   0  0  0  0  0  0  0  0  0  0  0  0
    0.4467    1.0748    0.0000 C   0  0  0  0  0  0  0  0  0  0  0  0
   -0.9566    0.5450    0.0000 C   0  0  0  0  0  0  0  0  0  0  0  0
   -2.1170    1.4955    0.0000 O   0  0  0  0  0  0  0  0  0  0  0  0
   -1.1995   -0.9352    0.0000 C   0  0  0  0  0  0  0  0  0  0  0  0
   -2.4529   -0.1112    0.0000 C   0  0  0  0  0  0  0  0  0  0  0  0
  2  1  1  6
  2  3  1  0
  3  4  1  0
  4  5  1  0
  5  6  2  0
  5  7  1  0
  2  8  1  0
  8  9  1  6
  9 10  1  0
 11 10  1  6
 11 12  1  0
 12 13  1  1
 13 14  1  6
 13 15  1  0
 16 15  1  1
 16 17  1  0
 17 18  1  0
 18 19  1  1
 18 20  1  0
 20 21  1  0
 21 22  1  0
 22 23  1  6
 22 24  1  0
 24 25  1  6
 25 26  1  0
 26 27  1  1
 26 28  1  0
 28 29  1  6
 28  8  1  0
 28 11  1  0
 24 12  1  0
 22 16  1  0
M  END
>  <MS_ID>  (3570) 
MS3831

>  <SMILES>  (3570) 
C[C@H](CCC(=O)O)[C@H]1CC[C@H]2[C@@H]3[C@@H](O)C[C@@H]4C[C@H](I)CC[C@]4(C)[C@H]3C[C@H](O)[C@]12C

>  <Structure_dimension>  (3570) 
2D

$$$$
MS3834
     RDKit          2D

 34 37  0  0  0  0  0  0  0  0999 V2000
  -11.3778    3.4316    0.0000 C   0  0  0  0  0  0  0  0  0  0  0  0
  -10.6064    2.1451    0.0000 C   0  0  0  0  0  0  0  0  0  0  0  0
   -9.1066    2.1699    0.0000 O   0  0  0  0  0  0  0  0  0  0  0  0
   -8.3353    0.8834    0.0000 C   0  0  0  0  0  0  0  0  0  0  0  0
   -6.8355    0.9082    0.0000 C   0  0  0  0  0  0  0  0  0  0  0  0
   -6.0641   -0.3782    0.0000 O   0  0  0  0  0  0  0  0  0  0  0  0
   -4.5643   -0.3534    0.0000 C   0  0  0  0  0  0  0  0  0  0  0  0
   -3.8359    0.9578    0.0000 O   0  0  0  0  0  0  0  0  0  0  0  0
   -3.7929   -1.6399    0.0000 C   0  0  0  0  0  0  0  0  0  0  0  0
   -2.2931   -1.6151    0.0000 C   0  0  0  0  0  0  0  0  0  0  0  0
   -1.5218   -2.9016    0.0000 C   0  0  0  0  0  0  0  0  0  0  0  0
   -2.2502   -4.2128    0.0000 C   0  0  0  0  0  0  0  0  0  0  0  0
   -0.0220   -2.8768    0.0000 C   0  0  0  0  0  0  0  0  0  0  0  0
    0.8797   -4.0755    0.0000 C   0  0  0  0  0  0  0  0  0  0  0  0
    2.2984   -3.5885    0.0000 C   0  0  0  0  0  0  0  0  0  0  0  0
    2.2736   -2.0887    0.0000 C   0  0  0  0  0  0  0  0  0  0  0  0
    3.3716   -1.0667    0.0000 C   0  0  0  0  0  0  0  0  0  0  0  0
    4.8056   -1.5066    0.0000 C   0  0  0  0  0  0  0  0  0  0  0  0
    5.1417   -2.9685    0.0000 O   0  0  0  0  0  0  0  0  0  0  0  0
    5.9036   -0.4846    0.0000 C   0  0  0  0  0  0  0  0  0  0  0  0
    5.5675    0.9773    0.0000 C   0  0  0  0  0  0  0  0  0  0  0  0
    6.6655    1.9992    0.0000 C   0  0  0  0  0  0  0  0  0  0  0  0
    6.3294    3.4611    0.0000 C   0  0  0  0  0  0  0  0  0  0  0  0
    7.4274    4.4831    0.0000 O   0  0  0  0  0  0  0  0  0  0  0  0
    4.8953    3.9010    0.0000 C   0  0  0  0  0  0  0  0  0  0  0  0
    3.7974    2.8790    0.0000 C   0  0  0  0  0  0  0  0  0  0  0  0
    4.1334    1.4171    0.0000 C   0  0  0  0  0  0  0  0  0  0  0  0
    2.6994    1.8570    0.0000 C   0  0  0  0  0  0  0  0  0  0  0  0
    3.0355    0.3951    0.0000 C   0  0  0  0  0  0  0  0  0  0  0  0
    1.6014    0.8350    0.0000 C   0  0  0  0  0  0  0  0  0  0  0  0
    0.5034   -0.1870    0.0000 C   0  0  0  0  0  0  0  0  0  0  0  0
   -0.9306    0.2529    0.0000 O   0  0  0  0  0  0  0  0  0  0  0  0
    0.8395   -1.6488    0.0000 C   0  0  0  0  0  0  0  0  0  0  0  0
   -0.6326   -1.3613    0.0000 C   0  0  0  0  0  0  0  0  0  0  0  0
  1  2  1  0
  2  3  1  0
  3  4  1  0
  4  5  1  0
  5  6  1  0
  6  7  1  0
  7  8  2  0
  7  9  1  0
  9 10  1  0
 10 11  1  0
 11 12  1  6
 11 13  1  0
 13 14  1  6
 14 15  1  0
 16 15  1  6
 16 17  1  0
 17 18  1  1
 18 19  1  1
 18 20  1  0
 21 20  1  1
 21 22  1  0
 22 23  1  0
 23 24  1  1
 23 25  1  0
 25 26  1  0
 26 27  1  0
 27 28  1  6
 27 29  1  0
 29 30  1  6
 30 31  1  0
 31 32  1  1
 31 33  1  0
 33 34  1  6
 33 13  1  0
 33 16  1  0
 29 17  1  0
 27 21  1  0
M  END
>  <MS_ID>  (3571) 
MS3834

>  <SMILES>  (3571) 
CCOCCOC(=O)CC[C@@H](C)[C@H]1CC[C@H]2[C@@H]3[C@H](O)C[C@@H]4C[C@H](O)CC[C@]4(C)[C@H]3C[C@H](O)[C@]12C

>  <Structure_dimension>  (3571) 
2D

$$$$
MS3837
     RDKit          2D

 36 39  0  0  0  0  0  0  0  0999 V2000
   -1.5006   -4.3465    0.0000 C   0  0  0  0  0  0  0  0  0  0  0  0
   -0.8151   -3.0123    0.0000 C   0  0  0  0  0  0  0  0  0  0  0  0
   -1.6277   -1.7515    0.0000 C   0  0  0  0  0  0  0  0  0  0  0  0
   -3.1259   -1.8249    0.0000 C   0  0  0  0  0  0  0  0  0  0  0  0
   -3.9386   -0.5642    0.0000 C   0  0  0  0  0  0  0  0  0  0  0  0
   -3.2531    0.7700    0.0000 O   0  0  0  0  0  0  0  0  0  0  0  0
   -5.4368   -0.6376    0.0000 N   0  0  0  0  0  0  0  0  0  0  0  0
   -6.2495    0.6232    0.0000 C   0  0  0  0  0  0  0  0  0  0  0  0
   -7.7477    0.5498    0.0000 C   0  0  0  0  0  0  0  0  0  0  0  0
   -8.5604    1.8106    0.0000 C   0  0  0  0  0  0  0  0  0  0  0  0
  -10.0586    1.7372    0.0000 S   0  0  0  0  0  0  0  0  0  0  0  0
  -10.1320    3.2354    0.0000 O   0  0  0  0  0  0  0  0  0  0  0  0
   -9.9852    0.2390    0.0000 O   0  0  0  0  0  0  0  0  0  0  0  0
  -11.5568    1.6638    0.0000 O   0  0  0  0  0  0  0  0  0  0  0  0
    0.6831   -2.9389    0.0000 C   0  0  0  0  0  0  0  0  0  0  0  0
    1.6231   -4.1078    0.0000 C   0  0  0  0  0  0  0  0  0  0  0  0
    3.0253   -3.5751    0.0000 C   0  0  0  0  0  0  0  0  0  0  0  0
    2.9519   -2.0769    0.0000 C   0  0  0  0  0  0  0  0  0  0  0  0
    4.0162   -1.0198    0.0000 C   0  0  0  0  0  0  0  0  0  0  0  0
    5.4638   -1.4130    0.0000 C   0  0  0  0  0  0  0  0  0  0  0  0
    5.8471   -2.8632    0.0000 O   0  0  0  0  0  0  0  0  0  0  0  0
    6.5280   -0.3559    0.0000 C   0  0  0  0  0  0  0  0  0  0  0  0
    6.1447    1.0943    0.0000 C   0  0  0  0  0  0  0  0  0  0  0  0
    7.2090    2.1513    0.0000 C   0  0  0  0  0  0  0  0  0  0  0  0
    6.8257    3.6015    0.0000 C   0  0  0  0  0  0  0  0  0  0  0  0
    7.8900    4.6586    0.0000 O   0  0  0  0  0  0  0  0  0  0  0  0
    5.3781    3.9947    0.0000 C   0  0  0  0  0  0  0  0  0  0  0  0
    4.3139    2.9376    0.0000 C   0  0  0  0  0  0  0  0  0  0  0  0
    4.6972    1.4874    0.0000 C   0  0  0  0  0  0  0  0  0  0  0  0
    3.2496    1.8806    0.0000 C   0  0  0  0  0  0  0  0  0  0  0  0
    3.6329    0.4304    0.0000 C   0  0  0  0  0  0  0  0  0  0  0  0
    2.1854    0.8236    0.0000 C   0  0  0  0  0  0  0  0  0  0  0  0
    1.1211   -0.2335    0.0000 C   0  0  0  0  0  0  0  0  0  0  0  0
   -0.3265    0.1597    0.0000 O   0  0  0  0  0  0  0  0  0  0  0  0
    1.5044   -1.6837    0.0000 C   0  0  0  0  0  0  0  0  0  0  0  0
    0.0237   -1.4440    0.0000 C   0  0  0  0  0  0  0  0  0  0  0  0
  2  1  1  6
  2  3  1  0
  3  4  1  0
  4  5  1  0
  5  6  2  0
  5  7  1  0
  7  8  1  0
  8  9  1  0
  9 10  1  0
 10 11  1  0
 11 12  2  0
 11 13  2  0
 11 14  1  0
  2 15  1  0
 15 16  1  6
 16 17  1  0
 18 17  1  6
 18 19  1  0
 19 20  1  1
 20 21  1  1
 20 22  1  0
 23 22  1  1
 23 24  1  0
 24 25  1  0
 25 26  1  1
 25 27  1  0
 27 28  1  0
 28 29  1  0
 29 30  1  6
 29 31  1  0
 31 32  1  6
 32 33  1  0
 33 34  1  1
 33 35  1  0
 35 36  1  6
 35 15  1  0
 35 18  1  0
 31 19  1  0
 29 23  1  0
M  END
>  <MS_ID>  (3572) 
MS3837

>  <SMILES>  (3572) 
C[C@H](CCC(=O)NCCCS(=O)(=O)O)[C@H]1CC[C@H]2[C@@H]3[C@H](O)C[C@@H]4C[C@H](O)CC[C@]4(C)[C@H]3C[C@H](O)[C@]12C

>  <Structure_dimension>  (3572) 
2D

$$$$
MS3840
     RDKit          2D

 28 31  0  0  0  0  0  0  0  0999 V2000
   -4.6340   -2.3524    0.0000 C   0  0  0  0  0  0  0  0  0  0  0  0
   -3.5242   -1.3434    0.0000 C   0  0  0  0  0  0  0  0  0  0  0  0
   -3.8431    0.1223    0.0000 C   0  0  0  0  0  0  0  0  0  0  0  0
   -5.2720    0.5789    0.0000 C   0  0  0  0  0  0  0  0  0  0  0  0
   -5.5909    2.0446    0.0000 C   0  0  0  0  0  0  0  0  0  0  0  0
   -4.4811    3.0537    0.0000 O   0  0  0  0  0  0  0  0  0  0  0  0
   -7.0197    2.5012    0.0000 O   0  0  0  0  0  0  0  0  0  0  0  0
   -2.0954   -1.8000    0.0000 C   0  0  0  0  0  0  0  0  0  0  0  0
   -1.6249   -3.2243    0.0000 C   0  0  0  0  0  0  0  0  0  0  0  0
   -0.1249   -3.2170    0.0000 C   0  0  0  0  0  0  0  0  0  0  0  0
    0.3317   -1.7882    0.0000 C   0  0  0  0  0  0  0  0  0  0  0  0
    1.6990   -1.1715    0.0000 C   0  0  0  0  0  0  0  0  0  0  0  0
    2.9168   -2.0473    0.0000 C   0  0  0  0  0  0  0  0  0  0  0  0
    2.7672   -3.5398    0.0000 O   0  0  0  0  0  0  0  0  0  0  0  0
    4.2841   -1.4305    0.0000 C   0  0  0  0  0  0  0  0  0  0  0  0
    4.4337    0.0620    0.0000 C   0  0  0  0  0  0  0  0  0  0  0  0
    5.8011    0.6787    0.0000 C   0  0  0  0  0  0  0  0  0  0  0  0
    5.9506    2.1713    0.0000 C   0  0  0  0  0  0  0  0  0  0  0  0
    4.7328    3.0471    0.0000 C   0  0  0  0  0  0  0  0  0  0  0  0
    3.3655    2.4303    0.0000 C   0  0  0  0  0  0  0  0  0  0  0  0
    3.2159    0.9378    0.0000 C   0  0  0  0  0  0  0  0  0  0  0  0
    1.9981    1.8136    0.0000 C   0  0  0  0  0  0  0  0  0  0  0  0
    1.8486    0.3211    0.0000 C   0  0  0  0  0  0  0  0  0  0  0  0
    0.6308    1.1968    0.0000 C   0  0  0  0  0  0  0  0  0  0  0  0
   -0.7366    0.5801    0.0000 C   0  0  0  0  0  0  0  0  0  0  0  0
   -1.9543    1.4559    0.0000 O   0  0  0  0  0  0  0  0  0  0  0  0
   -0.8861   -0.9124    0.0000 C   0  0  0  0  0  0  0  0  0  0  0  0
   -2.1888   -0.1687    0.0000 C   0  0  0  0  0  0  0  0  0  0  0  0
  2  1  1  6
  2  3  1  0
  3  4  1  0
  4  5  1  0
  5  6  2  0
  5  7  1  0
  2  8  1  0
  8  9  1  6
  9 10  1  0
 11 10  1  6
 11 12  1  0
 12 13  1  1
 13 14  1  6
 13 15  1  0
 16 15  1  6
 16 17  1  0
 17 18  1  0
 18 19  1  0
 19 20  1  0
 20 21  1  0
 21 22  1  6
 21 23  1  0
 23 24  1  6
 24 25  1  0
 25 26  1  6
 25 27  1  0
 27 28  1  6
 27  8  1  0
 27 11  1  0
 23 12  1  0
 21 16  1  0
M  END
>  <MS_ID>  (3573) 
MS3840

>  <SMILES>  (3573) 
C[C@H](CCC(=O)O)[C@H]1CC[C@H]2[C@@H]3[C@@H](O)C[C@H]4CCCC[C@]4(C)[C@H]3C[C@@H](O)[C@]12C

>  <Structure_dimension>  (3573) 
2D

$$$$
MS3843
     RDKit          2D

 33 36  0  0  0  0  0  0  0  0999 V2000
   -3.2486   -3.0813    0.0000 C   0  0  0  0  0  0  0  0  0  0  0  0
   -2.2426   -1.9686    0.0000 C   0  0  0  0  0  0  0  0  0  0  0  0
   -2.7032   -0.5411    0.0000 C   0  0  0  0  0  0  0  0  0  0  0  0
   -4.1698   -0.2262    0.0000 C   0  0  0  0  0  0  0  0  0  0  0  0
   -4.6304    1.2013    0.0000 C   0  0  0  0  0  0  0  0  0  0  0  0
   -3.6244    2.3140    0.0000 O   0  0  0  0  0  0  0  0  0  0  0  0
   -6.0970    1.5162    0.0000 N   0  0  0  0  0  0  0  0  0  0  0  0
   -6.5576    2.9437    0.0000 C   0  0  0  0  0  0  0  0  0  0  0  0
   -7.1030    0.4036    0.0000 C   0  0  0  0  0  0  0  0  0  0  0  0
   -8.5695    0.7184    0.0000 C   0  0  0  0  0  0  0  0  0  0  0  0
   -9.0301    2.1460    0.0000 O   0  0  0  0  0  0  0  0  0  0  0  0
   -9.5755   -0.3942    0.0000 O   0  0  0  0  0  0  0  0  0  0  0  0
   -0.7760   -2.2835    0.0000 C   0  0  0  0  0  0  0  0  0  0  0  0
   -0.1687   -3.6550    0.0000 C   0  0  0  0  0  0  0  0  0  0  0  0
    1.3234   -3.5013    0.0000 C   0  0  0  0  0  0  0  0  0  0  0  0
    1.6382   -2.0347    0.0000 C   0  0  0  0  0  0  0  0  0  0  0  0
    2.9388   -1.2874    0.0000 C   0  0  0  0  0  0  0  0  0  0  0  0
    4.2363   -2.0400    0.0000 C   0  0  0  0  0  0  0  0  0  0  0  0
    4.2332   -3.5400    0.0000 O   0  0  0  0  0  0  0  0  0  0  0  0
    5.5369   -1.2927    0.0000 C   0  0  0  0  0  0  0  0  0  0  0  0
    5.5399    0.2073    0.0000 C   0  0  0  0  0  0  0  0  0  0  0  0
    6.8405    0.9546    0.0000 C   0  0  0  0  0  0  0  0  0  0  0  0
    6.8436    2.4546    0.0000 C   0  0  0  0  0  0  0  0  0  0  0  0
    8.1442    3.2020    0.0000 O   0  0  0  0  0  0  0  0  0  0  0  0
    5.5461    3.2073    0.0000 C   0  0  0  0  0  0  0  0  0  0  0  0
    4.2455    2.4599    0.0000 C   0  0  0  0  0  0  0  0  0  0  0  0
    4.2425    0.9599    0.0000 C   0  0  0  0  0  0  0  0  0  0  0  0
    2.9450    1.7126    0.0000 C   0  0  0  0  0  0  0  0  0  0  0  0
    2.9419    0.2126    0.0000 C   0  0  0  0  0  0  0  0  0  0  0  0
    1.6444    0.9653    0.0000 C   0  0  0  0  0  0  0  0  0  0  0  0
    0.3438    0.2179    0.0000 C   0  0  0  0  0  0  0  0  0  0  0  0
    0.3407   -1.2821    0.0000 C   0  0  0  0  0  0  0  0  0  0  0  0
   -1.0283   -0.6692    0.0000 C   0  0  0  0  0  0  0  0  0  0  0  0
  2  1  1  6
  2  3  1  0
  3  4  1  0
  4  5  1  0
  5  6  2  0
  5  7  1  0
  7  8  1  0
  7  9  1  0
  9 10  1  0
 10 11  2  0
 10 12  1  0
  2 13  1  0
 13 14  1  6
 14 15  1  0
 16 15  1  6
 16 17  1  0
 17 18  1  1
 18 19  1  1
 18 20  1  0
 21 20  1  1
 21 22  1  0
 22 23  1  0
 23 24  1  1
 23 25  1  0
 25 26  1  0
 26 27  1  0
 27 28  1  6
 27 29  1  0
 29 30  1  6
 30 31  1  0
 31 32  1  0
 32 33  1  6
 32 13  1  0
 32 16  1  0
 29 17  1  0
 27 21  1  0
M  END
>  <MS_ID>  (3574) 
MS3843

>  <SMILES>  (3574) 
C[C@H](CCC(=O)N(C)CC(=O)O)[C@H]1CC[C@H]2[C@@H]3[C@H](O)C[C@@H]4C[C@H](O)CC[C@]4(C)[C@H]3CC[C@]12C

>  <Structure_dimension>  (3574) 
2D

$$$$
MS3844
     RDKit          2D

 37 40  0  0  0  0  0  0  0  0999 V2000
   -1.8349   -4.5052    0.0000 C   0  0  0  0  0  0  0  0  0  0  0  0
   -1.1795   -3.1559    0.0000 C   0  0  0  0  0  0  0  0  0  0  0  0
   -2.0203   -1.9137    0.0000 C   0  0  0  0  0  0  0  0  0  0  0  0
   -3.5164   -2.0207    0.0000 C   0  0  0  0  0  0  0  0  0  0  0  0
   -4.3572   -0.7785    0.0000 C   0  0  0  0  0  0  0  0  0  0  0  0
   -3.7018    0.5707    0.0000 O   0  0  0  0  0  0  0  0  0  0  0  0
   -5.8534   -0.8855    0.0000 N   0  0  0  0  0  0  0  0  0  0  0  0
   -6.6942    0.3567    0.0000 C   0  0  0  0  0  0  0  0  0  0  0  0
   -8.1903    0.2497    0.0000 C   0  0  0  0  0  0  0  0  0  0  0  0
   -9.0311    1.4919    0.0000 C   0  0  0  0  0  0  0  0  0  0  0  0
  -10.5273    1.3849    0.0000 N   0  0  0  0  0  0  0  0  0  0  0  0
   -8.3757    2.8411    0.0000 O   0  0  0  0  0  0  0  0  0  0  0  0
   -6.0388    1.7059    0.0000 C   0  0  0  0  0  0  0  0  0  0  0  0
   -4.5426    1.8129    0.0000 O   0  0  0  0  0  0  0  0  0  0  0  0
   -6.8795    2.9481    0.0000 O   0  0  0  0  0  0  0  0  0  0  0  0
    0.3167   -3.0489    0.0000 C   0  0  0  0  0  0  0  0  0  0  0  0
    1.2827   -4.1964    0.0000 C   0  0  0  0  0  0  0  0  0  0  0  0
    2.6726   -3.6323    0.0000 C   0  0  0  0  0  0  0  0  0  0  0  0
    2.5655   -2.1361    0.0000 C   0  0  0  0  0  0  0  0  0  0  0  0
    3.6058   -1.0555    0.0000 C   0  0  0  0  0  0  0  0  0  0  0  0
    5.0618   -1.4160    0.0000 C   0  0  0  0  0  0  0  0  0  0  0  0
    5.4776   -2.8572    0.0000 O   0  0  0  0  0  0  0  0  0  0  0  0
    6.1021   -0.3353    0.0000 C   0  0  0  0  0  0  0  0  0  0  0  0
    7.5581   -0.6959    0.0000 O   0  0  0  0  0  0  0  0  0  0  0  0
    5.6863    1.1059    0.0000 C   0  0  0  0  0  0  0  0  0  0  0  0
    6.7266    2.1866    0.0000 C   0  0  0  0  0  0  0  0  0  0  0  0
    6.3109    3.6278    0.0000 C   0  0  0  0  0  0  0  0  0  0  0  0
    7.3511    4.7085    0.0000 O   0  0  0  0  0  0  0  0  0  0  0  0
    4.8548    3.9884    0.0000 C   0  0  0  0  0  0  0  0  0  0  0  0
    3.8146    2.9077    0.0000 C   0  0  0  0  0  0  0  0  0  0  0  0
    4.2303    1.4664    0.0000 C   0  0  0  0  0  0  0  0  0  0  0  0
    2.7743    1.8270    0.0000 C   0  0  0  0  0  0  0  0  0  0  0  0
    3.1901    0.3858    0.0000 C   0  0  0  0  0  0  0  0  0  0  0  0
    1.7340    0.7463    0.0000 C   0  0  0  0  0  0  0  0  0  0  0  0
    0.6938   -0.3343    0.0000 C   0  0  0  0  0  0  0  0  0  0  0  0
    1.1095   -1.7756    0.0000 C   0  0  0  0  0  0  0  0  0  0  0  0
   -0.3762   -1.5692    0.0000 C   0  0  0  0  0  0  0  0  0  0  0  0
  2  1  1  6
  2  3  1  0
  3  4  1  0
  4  5  1  0
  5  6  2  0
  5  7  1  0
  7  8  1  0
  8  9  1  1
  9 10  1  0
 10 11  1  0
 10 12  2  0
  8 13  1  0
 13 14  2  0
 13 15  1  0
  2 16  1  0
 16 17  1  6
 17 18  1  0
 19 18  1  6
 19 20  1  0
 20 21  1  1
 21 22  1  1
 21 23  1  0
 23 24  1  1
 23 25  1  0
 25 26  1  1
 26 27  1  0
 27 28  1  1
 27 29  1  0
 29 30  1  0
 30 31  1  0
 31 32  1  6
 31 33  1  0
 33 34  1  6
 34 35  1  0
 35 36  1  0
 36 37  1  6
 36 16  1  0
 36 19  1  0
 33 20  1  0
 31 25  1  0
M  END
>  <MS_ID>  (3575) 
MS3844

>  <SMILES>  (3575) 
C[C@H](CCC(=O)N[C@@H](CC(N)=O)C(=O)O)[C@H]1CC[C@H]2[C@@H]3[C@H](O)[C@H](O)[C@@H]4C[C@H](O)CC[C@]4(C)[C@H]3CC[C@]12C

>  <Structure_dimension>  (3575) 
2D

$$$$
MS3845
     RDKit          2D

 29 32  0  0  0  0  0  0  0  0999 V2000
   -5.3792   -1.8835    0.0000 C   0  0  0  0  0  0  0  0  0  0  0  0
   -4.2000   -0.9565    0.0000 C   0  0  0  0  0  0  0  0  0  0  0  0
   -4.4132    0.5283    0.0000 C   0  0  0  0  0  0  0  0  0  0  0  0
   -5.8057    1.0860    0.0000 C   0  0  0  0  0  0  0  0  0  0  0  0
   -6.0189    2.5708    0.0000 C   0  0  0  0  0  0  0  0  0  0  0  0
   -7.4114    3.1285    0.0000 O   0  0  0  0  0  0  0  0  0  0  0  0
   -2.8075   -1.5142    0.0000 C   0  0  0  0  0  0  0  0  0  0  0  0
   -2.4403   -2.9685    0.0000 C   0  0  0  0  0  0  0  0  0  0  0  0
   -0.9436   -3.0687    0.0000 C   0  0  0  0  0  0  0  0  0  0  0  0
   -0.3859   -1.6762    0.0000 C   0  0  0  0  0  0  0  0  0  0  0  0
    1.0221   -1.1589    0.0000 C   0  0  0  0  0  0  0  0  0  0  0  0
    2.1741   -2.1196    0.0000 C   0  0  0  0  0  0  0  0  0  0  0  0
    1.9180   -3.5976    0.0000 O   0  0  0  0  0  0  0  0  0  0  0  0
    3.5820   -1.6024    0.0000 C   0  0  0  0  0  0  0  0  0  0  0  0
    4.7340   -2.5631    0.0000 O   0  0  0  0  0  0  0  0  0  0  0  0
    3.8381   -0.1244    0.0000 C   0  0  0  0  0  0  0  0  0  0  0  0
    5.2461    0.3929    0.0000 C   0  0  0  0  0  0  0  0  0  0  0  0
    5.5021    1.8709    0.0000 C   0  0  0  0  0  0  0  0  0  0  0  0
    6.9101    2.3882    0.0000 O   0  0  0  0  0  0  0  0  0  0  0  0
    4.3501    2.8316    0.0000 C   0  0  0  0  0  0  0  0  0  0  0  0
    2.9421    2.3143    0.0000 C   0  0  0  0  0  0  0  0  0  0  0  0
    2.6861    0.8363    0.0000 C   0  0  0  0  0  0  0  0  0  0  0  0
    1.5341    1.7971    0.0000 C   0  0  0  0  0  0  0  0  0  0  0  0
    1.2781    0.3191    0.0000 C   0  0  0  0  0  0  0  0  0  0  0  0
    0.1261    1.2798    0.0000 C   0  0  0  0  0  0  0  0  0  0  0  0
   -1.2818    0.7625    0.0000 C   0  0  0  0  0  0  0  0  0  0  0  0
   -2.4338    1.7232    0.0000 O   0  0  0  0  0  0  0  0  0  0  0  0
   -1.5379   -0.7155    0.0000 C   0  0  0  0  0  0  0  0  0  0  0  0
   -2.7839    0.1196    0.0000 C   0  0  0  0  0  0  0  0  0  0  0  0
  2  1  1  6
  2  3  1  0
  3  4  1  0
  4  5  1  0
  5  6  2  0
  2  7  1  0
  7  8  1  6
  8  9  1  0
 10  9  1  6
 10 11  1  0
 11 12  1  1
 12 13  1  1
 12 14  1  0
 14 15  1  1
 14 16  1  0
 16 17  1  1
 17 18  1  0
 18 19  1  1
 18 20  1  0
 20 21  1  0
 21 22  1  0
 22 23  1  6
 22 24  1  0
 24 25  1  6
 25 26  1  0
 26 27  1  1
 26 28  1  0
 28 29  1  6
 28  7  1  0
 28 10  1  0
 24 11  1  0
 22 16  1  0
M  END
>  <MS_ID>  (3576) 
MS3845

>  <SMILES>  (3576) 
C[C@H](CCC=O)[C@H]1CC[C@H]2[C@@H]3[C@H](O)[C@H](O)[C@@H]4C[C@H](O)CC[C@]4(C)[C@H]3C[C@H](O)[C@]12C

>  <Structure_dimension>  (3576) 
2D

$$$$
MS3850
     RDKit          2D

 33 36  0  0  0  0  0  0  0  0999 V2000
   -3.0978   -3.6919    0.0000 C   0  0  0  0  0  0  0  0  0  0  0  0
   -2.2201   -2.4755    0.0000 C   0  0  0  0  0  0  0  0  0  0  0  0
   -2.8347   -1.1072    0.0000 C   0  0  0  0  0  0  0  0  0  0  0  0
   -4.3270   -0.9552    0.0000 C   0  0  0  0  0  0  0  0  0  0  0  0
   -4.9416    0.4131    0.0000 C   0  0  0  0  0  0  0  0  0  0  0  0
   -4.0639    1.6295    0.0000 O   0  0  0  0  0  0  0  0  0  0  0  0
   -6.4339    0.5650    0.0000 N   0  0  0  0  0  0  0  0  0  0  0  0
   -7.0484    1.9333    0.0000 C   0  0  0  0  0  0  0  0  0  0  0  0
   -8.5407    2.0852    0.0000 C   0  0  0  0  0  0  0  0  0  0  0  0
   -9.4184    0.8688    0.0000 O   0  0  0  0  0  0  0  0  0  0  0  0
   -9.1553    3.4535    0.0000 O   0  0  0  0  0  0  0  0  0  0  0  0
   -0.7278   -2.6274    0.0000 C   0  0  0  0  0  0  0  0  0  0  0  0
    0.0264   -3.9240    0.0000 C   0  0  0  0  0  0  0  0  0  0  0  0
    1.4926   -3.6073    0.0000 C   0  0  0  0  0  0  0  0  0  0  0  0
    1.6445   -2.1150    0.0000 C   0  0  0  0  0  0  0  0  0  0  0  0
    2.8552   -1.2294    0.0000 C   0  0  0  0  0  0  0  0  0  0  0  0
    4.2275   -1.8350    0.0000 C   0  0  0  0  0  0  0  0  0  0  0  0
    4.3891   -3.3263    0.0000 O   0  0  0  0  0  0  0  0  0  0  0  0
    5.4381   -0.9494    0.0000 C   0  0  0  0  0  0  0  0  0  0  0  0
    5.2764    0.5419    0.0000 C   0  0  0  0  0  0  0  0  0  0  0  0
    6.4871    1.4275    0.0000 C   0  0  0  0  0  0  0  0  0  0  0  0
    6.3254    2.9188    0.0000 C   0  0  0  0  0  0  0  0  0  0  0  0
    7.5360    3.8044    0.0000 O   0  0  0  0  0  0  0  0  0  0  0  0
    4.9531    3.5244    0.0000 C   0  0  0  0  0  0  0  0  0  0  0  0
    3.7425    2.6388    0.0000 C   0  0  0  0  0  0  0  0  0  0  0  0
    3.9041    1.1475    0.0000 C   0  0  0  0  0  0  0  0  0  0  0  0
    2.5318    1.7531    0.0000 C   0  0  0  0  0  0  0  0  0  0  0  0
    2.6935    0.2619    0.0000 C   0  0  0  0  0  0  0  0  0  0  0  0
    1.3212    0.8675    0.0000 C   0  0  0  0  0  0  0  0  0  0  0  0
    0.1105   -0.0181    0.0000 C   0  0  0  0  0  0  0  0  0  0  0  0
   -1.2618    0.5875    0.0000 O   0  0  0  0  0  0  0  0  0  0  0  0
    0.2722   -1.5094    0.0000 C   0  0  0  0  0  0  0  0  0  0  0  0
   -1.1559   -1.0505    0.0000 C   0  0  0  0  0  0  0  0  0  0  0  0
  2  1  1  6
  2  3  1  0
  3  4  1  0
  4  5  1  0
  5  6  2  0
  5  7  1  0
  7  8  1  0
  8  9  1  0
  9 10  2  0
  9 11  1  0
  2 12  1  0
 12 13  1  6
 13 14  1  0
 15 14  1  6
 15 16  1  0
 16 17  1  1
 17 18  1  1
 17 19  1  0
 20 19  1  1
 20 21  1  0
 21 22  1  0
 22 23  1  6
 22 24  1  0
 24 25  1  0
 25 26  1  0
 26 27  1  6
 26 28  1  0
 28 29  1  6
 29 30  1  0
 30 31  1  1
 30 32  1  0
 32 33  1  6
 32 12  1  0
 32 15  1  0
 28 16  1  0
 26 20  1  0
M  END
>  <MS_ID>  (3577) 
MS3850

>  <SMILES>  (3577) 
C[C@H](CCC(=O)NCC(=O)O)[C@H]1CC[C@H]2[C@@H]3[C@H](O)C[C@@H]4C[C@@H](O)CC[C@]4(C)[C@H]3C[C@H](O)[C@]12C

>  <Structure_dimension>  (3577) 
2D

$$$$
MS3851
     RDKit          2D

 37 41  0  0  0  0  0  0  0  0999 V2000
   -7.5627   -1.5685    0.0000 C   0  0  0  0  0  0  0  0  0  0  0  0
   -6.2787   -0.7930    0.0000 C   0  0  0  0  0  0  0  0  0  0  0  0
   -6.3083    0.7067    0.0000 C   0  0  0  0  0  0  0  0  0  0  0  0
   -7.6219    1.4309    0.0000 C   0  0  0  0  0  0  0  0  0  0  0  0
   -7.6515    2.9306    0.0000 C   0  0  0  0  0  0  0  0  0  0  0  0
   -6.3675    3.7061    0.0000 O   0  0  0  0  0  0  0  0  0  0  0  0
   -8.9651    3.6548    0.0000 O   0  0  0  0  0  0  0  0  0  0  0  0
   -4.9651   -1.5172    0.0000 C   0  0  0  0  0  0  0  0  0  0  0  0
   -4.7789   -3.0056    0.0000 C   0  0  0  0  0  0  0  0  0  0  0  0
   -3.3058   -3.2885    0.0000 C   0  0  0  0  0  0  0  0  0  0  0  0
   -2.5816   -1.9749    0.0000 C   0  0  0  0  0  0  0  0  0  0  0  0
   -1.1208   -1.6341    0.0000 C   0  0  0  0  0  0  0  0  0  0  0  0
   -0.0953   -2.7288    0.0000 C   0  0  0  0  0  0  0  0  0  0  0  0
   -0.5306   -4.1643    0.0000 O   0  0  0  0  0  0  0  0  0  0  0  0
    1.3655   -2.3880    0.0000 C   0  0  0  0  0  0  0  0  0  0  0  0
    1.8008   -0.9526    0.0000 C   0  0  0  0  0  0  0  0  0  0  0  0
    3.2615   -0.6118    0.0000 C   0  0  0  0  0  0  0  0  0  0  0  0
    3.6968    0.8236    0.0000 C   0  0  0  0  0  0  0  0  0  0  0  0
    5.1576    1.1644    0.0000 N   0  0  0  0  0  0  0  0  0  0  0  0
    6.1831    0.0697    0.0000 C   0  0  0  0  0  0  0  0  0  0  0  0
    5.7478   -1.3657    0.0000 O   0  0  0  0  0  0  0  0  0  0  0  0
    7.6439    0.4105    0.0000 C   0  0  0  0  0  0  0  0  0  0  0  0
    8.6694   -0.6842    0.0000 C   0  0  0  0  0  0  0  0  0  0  0  0
   10.1302   -0.3434    0.0000 C   0  0  0  0  0  0  0  0  0  0  0  0
   10.5654    1.0920    0.0000 C   0  0  0  0  0  0  0  0  0  0  0  0
    9.5399    2.1867    0.0000 C   0  0  0  0  0  0  0  0  0  0  0  0
    8.0792    1.8459    0.0000 C   0  0  0  0  0  0  0  0  0  0  0  0
    2.6713    1.9183    0.0000 C   0  0  0  0  0  0  0  0  0  0  0  0
    1.2105    1.5776    0.0000 C   0  0  0  0  0  0  0  0  0  0  0  0
    0.7753    0.1421    0.0000 C   0  0  0  0  0  0  0  0  0  0  0  0
   -0.2503    1.2368    0.0000 C   0  0  0  0  0  0  0  0  0  0  0  0
   -0.6855   -0.1987    0.0000 C   0  0  0  0  0  0  0  0  0  0  0  0
   -1.7110    0.8960    0.0000 C   0  0  0  0  0  0  0  0  0  0  0  0
   -3.1718    0.5553    0.0000 C   0  0  0  0  0  0  0  0  0  0  0  0
   -4.1973    1.6500    0.0000 O   0  0  0  0  0  0  0  0  0  0  0  0
   -3.6071   -0.8802    0.0000 C   0  0  0  0  0  0  0  0  0  0  0  0
   -4.7414    0.1013    0.0000 C   0  0  0  0  0  0  0  0  0  0  0  0
  2  1  1  6
  2  3  1  0
  3  4  1  0
  4  5  1  0
  5  6  2  0
  5  7  1  0
  2  8  1  0
  8  9  1  6
  9 10  1  0
 11 10  1  6
 11 12  1  0
 12 13  1  1
 13 14  1  1
 13 15  1  0
 16 15  1  1
 16 17  1  0
 17 18  1  0
 18 19  1  1
 19 20  1  0
 20 21  2  0
 20 22  1  0
 22 23  2  0
 23 24  1  0
 24 25  2  0
 25 26  1  0
 26 27  2  0
 18 28  1  0
 28 29  1  0
 29 30  1  0
 30 31  1  6
 30 32  1  0
 32 33  1  6
 33 34  1  0
 34 35  1  1
 34 36  1  0
 36 37  1  6
 36  8  1  0
 36 11  1  0
 32 12  1  0
 30 16  1  0
 27 22  1  0
M  END
>  <MS_ID>  (3578) 
MS3851

>  <SMILES>  (3578) 
C[C@H](CCC(=O)O)[C@H]1CC[C@H]2[C@@H]3[C@H](O)C[C@@H]4C[C@H](NC(=O)c5ccccc5)CC[C@]4(C)[C@H]3C[C@H](O)[C@]12C

>  <Structure_dimension>  (3578) 
2D

$$$$
MS3854
     RDKit          2D

 38 42  0  0  0  0  0  0  0  0999 V2000
   -0.6970   -4.8226    0.0000 C   0  0  0  0  0  0  0  0  0  0  0  0
   -0.1062   -3.4439    0.0000 C   0  0  0  0  0  0  0  0  0  0  0  0
   -1.0048   -2.2428    0.0000 C   0  0  0  0  0  0  0  0  0  0  0  0
   -2.4943   -2.4206    0.0000 C   0  0  0  0  0  0  0  0  0  0  0  0
   -3.3929   -1.2195    0.0000 C   0  0  0  0  0  0  0  0  0  0  0  0
   -2.8021    0.1592    0.0000 O   0  0  0  0  0  0  0  0  0  0  0  0
   -4.8823   -1.3972    0.0000 N   0  0  0  0  0  0  0  0  0  0  0  0
   -5.7810   -0.1962    0.0000 C   0  0  0  0  0  0  0  0  0  0  0  0
   -7.2704   -0.3739    0.0000 C   0  0  0  0  0  0  0  0  0  0  0  0
   -8.1690    0.8271    0.0000 C   0  0  0  0  0  0  0  0  0  0  0  0
   -9.6689    0.8060    0.0000 C   0  0  0  0  0  0  0  0  0  0  0  0
  -10.1524    2.2260    0.0000 N   0  0  0  0  0  0  0  0  0  0  0  0
   -8.9513    3.1246    0.0000 C   0  0  0  0  0  0  0  0  0  0  0  0
   -7.7256    2.2601    0.0000 N   0  0  0  0  0  0  0  0  0  0  0  0
   -5.1901    1.1825    0.0000 C   0  0  0  0  0  0  0  0  0  0  0  0
   -3.7007    1.3603    0.0000 O   0  0  0  0  0  0  0  0  0  0  0  0
   -6.0888    2.3836    0.0000 O   0  0  0  0  0  0  0  0  0  0  0  0
    1.3832   -3.2662    0.0000 C   0  0  0  0  0  0  0  0  0  0  0  0
    2.4025   -4.3667    0.0000 C   0  0  0  0  0  0  0  0  0  0  0  0
    3.7641   -3.7374    0.0000 C   0  0  0  0  0  0  0  0  0  0  0  0
    3.5864   -2.2480    0.0000 C   0  0  0  0  0  0  0  0  0  0  0  0
    4.5743   -1.1193    0.0000 C   0  0  0  0  0  0  0  0  0  0  0  0
    6.0458   -1.4105    0.0000 C   0  0  0  0  0  0  0  0  0  0  0  0
    7.0337   -0.2818    0.0000 C   0  0  0  0  0  0  0  0  0  0  0  0
    6.5502    1.1381    0.0000 C   0  0  0  0  0  0  0  0  0  0  0  0
    7.5382    2.2668    0.0000 C   0  0  0  0  0  0  0  0  0  0  0  0
    7.0547    3.6868    0.0000 C   0  0  0  0  0  0  0  0  0  0  0  0
    8.0426    4.8155    0.0000 O   0  0  0  0  0  0  0  0  0  0  0  0
    5.5832    3.9780    0.0000 C   0  0  0  0  0  0  0  0  0  0  0  0
    4.5953    2.8493    0.0000 C   0  0  0  0  0  0  0  0  0  0  0  0
    5.0788    1.4294    0.0000 C   0  0  0  0  0  0  0  0  0  0  0  0
    3.6073    1.7206    0.0000 C   0  0  0  0  0  0  0  0  0  0  0  0
    4.0908    0.3007    0.0000 C   0  0  0  0  0  0  0  0  0  0  0  0
    2.6194    0.5919    0.0000 C   0  0  0  0  0  0  0  0  0  0  0  0
    1.6314   -0.5368    0.0000 C   0  0  0  0  0  0  0  0  0  0  0  0
    0.1600   -0.2455    0.0000 O   0  0  0  0  0  0  0  0  0  0  0  0
    2.1149   -1.9567    0.0000 C   0  0  0  0  0  0  0  0  0  0  0  0
    0.6211   -1.8209    0.0000 C   0  0  0  0  0  0  0  0  0  0  0  0
  2  1  1  6
  2  3  1  0
  3  4  1  0
  4  5  1  0
  5  6  2  0
  5  7  1  0
  7  8  1  0
  8  9  1  1
  9 10  1  0
 10 11  2  0
 11 12  1  0
 12 13  2  0
 13 14  1  0
  8 15  1  0
 15 16  2  0
 15 17  1  0
  2 18  1  0
 18 19  1  6
 19 20  1  0
 21 20  1  6
 21 22  1  0
 22 23  1  1
 23 24  1  0
 25 24  1  1
 25 26  1  0
 26 27  1  0
 27 28  1  1
 27 29  1  0
 29 30  1  0
 30 31  1  0
 31 32  1  6
 31 33  1  0
 33 34  1  6
 34 35  1  0
 35 36  1  1
 35 37  1  0
 37 38  1  6
 14 10  1  0
 37 18  1  0
 37 21  1  0
 33 22  1  0
 31 25  1  0
M  END
>  <MS_ID>  (3579) 
MS3854

>  <SMILES>  (3579) 
C[C@H](CCC(=O)N[C@@H](Cc1cnc[nH]1)C(=O)O)[C@H]1CC[C@H]2[C@@H]3CC[C@@H]4C[C@H](O)CC[C@]4(C)[C@H]3C[C@H](O)[C@]12C

>  <Structure_dimension>  (3579) 
2D

$$$$
MS3855
     RDKit          2D

 29 32  0  0  0  0  0  0  0  0999 V2000
   -5.0926   -2.2535    0.0000 C   0  0  0  0  0  0  0  0  0  0  0  0
   -3.9364   -1.2979    0.0000 C   0  0  0  0  0  0  0  0  0  0  0  0
   -4.1859    0.1812    0.0000 C   0  0  0  0  0  0  0  0  0  0  0  0
   -5.5916    0.7047    0.0000 C   0  0  0  0  0  0  0  0  0  0  0  0
   -5.8411    2.1838    0.0000 C   0  0  0  0  0  0  0  0  0  0  0  0
   -4.6849    3.1394    0.0000 O   0  0  0  0  0  0  0  0  0  0  0  0
   -7.2468    2.7072    0.0000 O   0  0  0  0  0  0  0  0  0  0  0  0
   -2.5307   -1.8214    0.0000 C   0  0  0  0  0  0  0  0  0  0  0  0
   -2.1279   -3.2663    0.0000 C   0  0  0  0  0  0  0  0  0  0  0  0
   -0.6293   -3.3297    0.0000 C   0  0  0  0  0  0  0  0  0  0  0  0
   -0.1058   -1.9240    0.0000 C   0  0  0  0  0  0  0  0  0  0  0  0
    1.2891   -1.3724    0.0000 C   0  0  0  0  0  0  0  0  0  0  0  0
    2.4642   -2.3047    0.0000 C   0  0  0  0  0  0  0  0  0  0  0  0
    3.8591   -1.7531    0.0000 C   0  0  0  0  0  0  0  0  0  0  0  0
    5.0343   -2.6853    0.0000 O   0  0  0  0  0  0  0  0  0  0  0  0
    4.0789   -0.2693    0.0000 C   0  0  0  0  0  0  0  0  0  0  0  0
    5.4738    0.2823    0.0000 C   0  0  0  0  0  0  0  0  0  0  0  0
    5.6936    1.7661    0.0000 C   0  0  0  0  0  0  0  0  0  0  0  0
    7.0885    2.3177    0.0000 O   0  0  0  0  0  0  0  0  0  0  0  0
    4.5184    2.6984    0.0000 C   0  0  0  0  0  0  0  0  0  0  0  0
    3.1235    2.1468    0.0000 C   0  0  0  0  0  0  0  0  0  0  0  0
    2.9038    0.6630    0.0000 C   0  0  0  0  0  0  0  0  0  0  0  0
    1.7286    1.5952    0.0000 C   0  0  0  0  0  0  0  0  0  0  0  0
    1.5089    0.1114    0.0000 C   0  0  0  0  0  0  0  0  0  0  0  0
    0.3337    1.0436    0.0000 C   0  0  0  0  0  0  0  0  0  0  0  0
   -1.0612    0.4920    0.0000 C   0  0  0  0  0  0  0  0  0  0  0  0
   -2.2363    1.4242    0.0000 O   0  0  0  0  0  0  0  0  0  0  0  0
   -1.2809   -0.9918    0.0000 C   0  0  0  0  0  0  0  0  0  0  0  0
   -2.5471   -0.1875    0.0000 C   0  0  0  0  0  0  0  0  0  0  0  0
  2  1  1  6
  2  3  1  0
  3  4  1  0
  4  5  1  0
  5  6  2  0
  5  7  1  0
  2  8  1  0
  8  9  1  6
  9 10  1  0
 11 10  1  6
 11 12  1  0
 12 13  1  1
 13 14  1  0
 14 15  1  1
 14 16  1  0
 16 17  1  1
 17 18  1  0
 18 19  1  1
 18 20  1  0
 20 21  1  0
 21 22  1  0
 22 23  1  6
 22 24  1  0
 24 25  1  6
 25 26  1  0
 26 27  2  0
 26 28  1  0
 28 29  1  6
 28  8  1  0
 28 11  1  0
 24 12  1  0
 22 16  1  0
M  END
>  <MS_ID>  (3580) 
MS3855

>  <SMILES>  (3580) 
C[C@H](CCC(=O)O)[C@H]1CC[C@H]2[C@@H]3C[C@H](O)[C@@H]4C[C@H](O)CC[C@]4(C)[C@H]3CC(=O)[C@]12C

>  <Structure_dimension>  (3580) 
2D

$$$$
MS3858
     RDKit          2D

 28 31  0  0  0  0  0  0  0  0999 V2000
   -4.8304   -2.3664    0.0000 C   0  0  0  0  0  0  0  0  0  0  0  0
   -3.7519   -1.3239    0.0000 C   0  0  0  0  0  0  0  0  0  0  0  0
   -4.1153    0.1314    0.0000 C   0  0  0  0  0  0  0  0  0  0  0  0
   -5.5574    0.5442    0.0000 C   0  0  0  0  0  0  0  0  0  0  0  0
   -5.9209    1.9995    0.0000 C   0  0  0  0  0  0  0  0  0  0  0  0
   -4.8423    3.0419    0.0000 O   0  0  0  0  0  0  0  0  0  0  0  0
   -7.3630    2.4124    0.0000 O   0  0  0  0  0  0  0  0  0  0  0  0
   -2.3098   -1.7368    0.0000 C   0  0  0  0  0  0  0  0  0  0  0  0
   -1.7962   -3.1461    0.0000 C   0  0  0  0  0  0  0  0  0  0  0  0
   -0.2971   -3.0931    0.0000 C   0  0  0  0  0  0  0  0  0  0  0  0
    0.1157   -1.6511    0.0000 C   0  0  0  0  0  0  0  0  0  0  0  0
    1.4637   -0.9930    0.0000 C   0  0  0  0  0  0  0  0  0  0  0  0
    2.7076   -1.8312    0.0000 C   0  0  0  0  0  0  0  0  0  0  0  0
    2.6035   -3.3276    0.0000 O   0  0  0  0  0  0  0  0  0  0  0  0
    4.0555   -1.1731    0.0000 C   0  0  0  0  0  0  0  0  0  0  0  0
    5.2994   -2.0114    0.0000 O   0  0  0  0  0  0  0  0  0  0  0  0
    4.1595    0.3233    0.0000 C   0  0  0  0  0  0  0  0  0  0  0  0
    5.5074    0.9814    0.0000 C   0  0  0  0  0  0  0  0  0  0  0  0
    5.6114    2.4778    0.0000 C   0  0  0  0  0  0  0  0  0  0  0  0
    4.3675    3.3160    0.0000 C   0  0  0  0  0  0  0  0  0  0  0  0
    3.0196    2.6579    0.0000 C   0  0  0  0  0  0  0  0  0  0  0  0
    2.9156    1.1615    0.0000 C   0  0  0  0  0  0  0  0  0  0  0  0
    1.6717    1.9998    0.0000 C   0  0  0  0  0  0  0  0  0  0  0  0
    1.5677    0.5034    0.0000 C   0  0  0  0  0  0  0  0  0  0  0  0
    0.3238    1.3417    0.0000 C   0  0  0  0  0  0  0  0  0  0  0  0
   -1.0242    0.6836    0.0000 C   0  0  0  0  0  0  0  0  0  0  0  0
   -1.1282   -0.8128    0.0000 C   0  0  0  0  0  0  0  0  0  0  0  0
   -2.4529   -0.1092    0.0000 C   0  0  0  0  0  0  0  0  0  0  0  0
  2  1  1  6
  2  3  1  0
  3  4  1  0
  4  5  1  0
  5  6  2  0
  5  7  1  0
  2  8  1  0
  8  9  1  6
  9 10  1  0
 11 10  1  6
 11 12  1  0
 12 13  1  1
 13 14  1  1
 13 15  1  0
 15 16  1  6
 15 17  1  0
 17 18  1  1
 18 19  1  0
 19 20  1  0
 20 21  1  0
 21 22  1  0
 22 23  1  6
 22 24  1  0
 24 25  1  6
 25 26  1  0
 26 27  1  0
 27 28  1  6
 27  8  1  0
 27 11  1  0
 24 12  1  0
 22 17  1  0
M  END
>  <MS_ID>  (3581) 
MS3858

>  <SMILES>  (3581) 
C[C@H](CCC(=O)O)[C@H]1CC[C@H]2[C@@H]3[C@H](O)[C@@H](O)[C@@H]4CCCC[C@]4(C)[C@H]3CC[C@]12C

>  <Structure_dimension>  (3581) 
2D

$$$$
MS3861
     RDKit          2D

 31 34  0  0  0  0  0  0  0  0999 V2000
   -7.7267    3.3763    0.0000 C   0  0  0  0  0  0  0  0  0  0  0  0
   -7.3224    1.9318    0.0000 O   0  0  0  0  0  0  0  0  0  0  0  0
   -5.8693    1.5598    0.0000 C   0  0  0  0  0  0  0  0  0  0  0  0
   -4.8205    2.6322    0.0000 O   0  0  0  0  0  0  0  0  0  0  0  0
   -5.4649    0.1153    0.0000 C   0  0  0  0  0  0  0  0  0  0  0  0
   -4.0118   -0.2568    0.0000 C   0  0  0  0  0  0  0  0  0  0  0  0
   -3.6075   -1.7013    0.0000 C   0  0  0  0  0  0  0  0  0  0  0  0
   -4.6562   -2.7737    0.0000 C   0  0  0  0  0  0  0  0  0  0  0  0
   -2.1543   -2.0733    0.0000 C   0  0  0  0  0  0  0  0  0  0  0  0
   -1.6012   -3.4676    0.0000 C   0  0  0  0  0  0  0  0  0  0  0  0
   -0.1042   -3.3724    0.0000 C   0  0  0  0  0  0  0  0  0  0  0  0
    0.2678   -1.9193    0.0000 C   0  0  0  0  0  0  0  0  0  0  0  0
    1.5967   -1.2235    0.0000 C   0  0  0  0  0  0  0  0  0  0  0  0
    2.8637   -2.0264    0.0000 C   0  0  0  0  0  0  0  0  0  0  0  0
    2.8019   -3.5251    0.0000 O   0  0  0  0  0  0  0  0  0  0  0  0
    4.1925   -1.3306    0.0000 C   0  0  0  0  0  0  0  0  0  0  0  0
    5.4596   -2.1335    0.0000 O   0  0  0  0  0  0  0  0  0  0  0  0
    4.2544    0.1682    0.0000 C   0  0  0  0  0  0  0  0  0  0  0  0
    5.5832    0.8640    0.0000 C   0  0  0  0  0  0  0  0  0  0  0  0
    5.6450    2.3627    0.0000 C   0  0  0  0  0  0  0  0  0  0  0  0
    6.9739    3.0585    0.0000 O   0  0  0  0  0  0  0  0  0  0  0  0
    4.3780    3.1656    0.0000 C   0  0  0  0  0  0  0  0  0  0  0  0
    3.0491    2.4698    0.0000 C   0  0  0  0  0  0  0  0  0  0  0  0
    2.9873    0.9711    0.0000 C   0  0  0  0  0  0  0  0  0  0  0  0
    1.7203    1.7740    0.0000 C   0  0  0  0  0  0  0  0  0  0  0  0
    1.6585    0.2752    0.0000 C   0  0  0  0  0  0  0  0  0  0  0  0
    0.3915    1.0781    0.0000 C   0  0  0  0  0  0  0  0  0  0  0  0
   -0.9374    0.3823    0.0000 C   0  0  0  0  0  0  0  0  0  0  0  0
   -2.2044    1.1852    0.0000 O   0  0  0  0  0  0  0  0  0  0  0  0
   -0.9992   -1.1164    0.0000 C   0  0  0  0  0  0  0  0  0  0  0  0
   -2.3432   -0.4504    0.0000 C   0  0  0  0  0  0  0  0  0  0  0  0
  1  2  1  0
  2  3  1  0
  3  4  2  0
  3  5  1  0
  5  6  1  0
  6  7  1  0
  7  8  1  6
  7  9  1  0
  9 10  1  6
 10 11  1  0
 12 11  1  6
 12 13  1  0
 13 14  1  1
 14 15  1  1
 14 16  1  0
 16 17  1  6
 16 18  1  0
 18 19  1  1
 19 20  1  0
 20 21  1  1
 20 22  1  0
 22 23  1  0
 23 24  1  0
 24 25  1  6
 24 26  1  0
 26 27  1  6
 27 28  1  0
 28 29  1  1
 28 30  1  0
 30 31  1  6
 30  9  1  0
 30 12  1  0
 26 13  1  0
 24 18  1  0
M  END
>  <MS_ID>  (3582) 
MS3861

>  <SMILES>  (3582) 
COC(=O)CC[C@@H](C)[C@H]1CC[C@H]2[C@@H]3[C@H](O)[C@@H](O)[C@@H]4C[C@H](O)CC[C@]4(C)[C@H]3C[C@H](O)[C@]12C

>  <Structure_dimension>  (3582) 
2D

$$$$
MS3862
     RDKit          2D

 36 39  0  0  0  0  0  0  0  0999 V2000
   -6.5652   -2.0710    0.0000 C   0  0  0  0  0  0  0  0  0  0  0  0
   -5.4436   -1.0750    0.0000 C   0  0  0  0  0  0  0  0  0  0  0  0
   -5.7452    0.3943    0.0000 C   0  0  0  0  0  0  0  0  0  0  0  0
   -7.1685    0.8677    0.0000 C   0  0  0  0  0  0  0  0  0  0  0  0
   -7.4702    2.3371    0.0000 C   0  0  0  0  0  0  0  0  0  0  0  0
   -6.3485    3.3330    0.0000 O   0  0  0  0  0  0  0  0  0  0  0  0
   -8.8935    2.8105    0.0000 O   0  0  0  0  0  0  0  0  0  0  0  0
   -4.0202   -1.5485    0.0000 C   0  0  0  0  0  0  0  0  0  0  0  0
   -3.5666   -2.9783    0.0000 C   0  0  0  0  0  0  0  0  0  0  0  0
   -2.0667   -2.9887    0.0000 C   0  0  0  0  0  0  0  0  0  0  0  0
   -1.5932   -1.5654    0.0000 C   0  0  0  0  0  0  0  0  0  0  0  0
   -0.2187   -0.9648    0.0000 C   0  0  0  0  0  0  0  0  0  0  0  0
    0.9887   -1.8549    0.0000 C   0  0  0  0  0  0  0  0  0  0  0  0
    2.3632   -1.2544    0.0000 C   0  0  0  0  0  0  0  0  0  0  0  0
    3.5705   -2.1445    0.0000 O   0  0  0  0  0  0  0  0  0  0  0  0
    3.4034   -3.6351    0.0000 S   0  0  0  0  0  0  0  0  0  0  0  0
    1.9127   -3.4679    0.0000 O   0  0  0  0  0  0  0  0  0  0  0  0
    4.8940   -3.8023    0.0000 O   0  0  0  0  0  0  0  0  0  0  0  0
    3.2362   -5.1258    0.0000 O   0  0  0  0  0  0  0  0  0  0  0  0
    2.5303    0.2363    0.0000 C   0  0  0  0  0  0  0  0  0  0  0  0
    3.9049    0.8369    0.0000 C   0  0  0  0  0  0  0  0  0  0  0  0
    4.0720    2.3275    0.0000 C   0  0  0  0  0  0  0  0  0  0  0  0
    5.4466    2.9281    0.0000 O   0  0  0  0  0  0  0  0  0  0  0  0
    6.6539    2.0380    0.0000 S   0  0  0  0  0  0  0  0  0  0  0  0
    5.7638    0.8306    0.0000 O   0  0  0  0  0  0  0  0  0  0  0  0
    7.5440    3.2453    0.0000 O   0  0  0  0  0  0  0  0  0  0  0  0
    7.8613    1.1479    0.0000 O   0  0  0  0  0  0  0  0  0  0  0  0
    2.8647    3.2176    0.0000 C   0  0  0  0  0  0  0  0  0  0  0  0
    1.4902    2.6171    0.0000 C   0  0  0  0  0  0  0  0  0  0  0  0
    1.3230    1.1264    0.0000 C   0  0  0  0  0  0  0  0  0  0  0  0
    0.1156    2.0165    0.0000 C   0  0  0  0  0  0  0  0  0  0  0  0
   -0.0515    0.5258    0.0000 C   0  0  0  0  0  0  0  0  0  0  0  0
   -1.2589    1.4159    0.0000 C   0  0  0  0  0  0  0  0  0  0  0  0
   -2.6334    0.8154    0.0000 C   0  0  0  0  0  0  0  0  0  0  0  0
   -2.8006   -0.6753    0.0000 C   0  0  0  0  0  0  0  0  0  0  0  0
   -4.0944    0.0837    0.0000 C   0  0  0  0  0  0  0  0  0  0  0  0
  2  1  1  6
  2  3  1  0
  3  4  1  0
  4  5  1  0
  5  6  2  0
  5  7  1  0
  2  8  1  0
  8  9  1  6
  9 10  1  0
 11 10  1  6
 11 12  1  0
 12 13  1  1
 13 14  1  0
 14 15  1  1
 15 16  1  0
 16 17  2  0
 16 18  2  0
 16 19  1  0
 14 20  1  0
 20 21  1  1
 21 22  1  0
 22 23  1  1
 23 24  1  0
 24 25  2  0
 24 26  2  0
 24 27  1  0
 22 28  1  0
 28 29  1  0
 29 30  1  0
 30 31  1  6
 30 32  1  0
 32 33  1  6
 33 34  1  0
 34 35  1  0
 35 36  1  6
 35  8  1  0
 35 11  1  0
 32 12  1  0
 30 20  1  0
M  END
>  <MS_ID>  (3583) 
MS3862

>  <SMILES>  (3583) 
C[C@H](CCC(=O)O)[C@H]1CC[C@H]2[C@@H]3C[C@H](OS(=O)(=O)O)[C@@H]4C[C@H](OS(=O)(=O)O)CC[C@]4(C)[C@H]3CC[C@]12C

>  <Structure_dimension>  (3583) 
2D

$$$$
MS3865
     RDKit          2D

 32 35  0  0  0  0  0  0  0  0999 V2000
   -6.1853   -1.9897    0.0000 C   0  0  0  0  0  0  0  0  0  0  0  0
   -4.9559   -1.1303    0.0000 C   0  0  0  0  0  0  0  0  0  0  0  0
   -5.0854    0.3641    0.0000 C   0  0  0  0  0  0  0  0  0  0  0  0
   -6.4444    0.9991    0.0000 C   0  0  0  0  0  0  0  0  0  0  0  0
   -6.5740    2.4935    0.0000 C   0  0  0  0  0  0  0  0  0  0  0  0
   -5.3445    3.3529    0.0000 O   0  0  0  0  0  0  0  0  0  0  0  0
   -7.9329    3.1285    0.0000 O   0  0  0  0  0  0  0  0  0  0  0  0
   -3.5969   -1.7653    0.0000 C   0  0  0  0  0  0  0  0  0  0  0  0
   -3.3119   -3.2380    0.0000 C   0  0  0  0  0  0  0  0  0  0  0  0
   -1.8232   -3.4219    0.0000 C   0  0  0  0  0  0  0  0  0  0  0  0
   -1.1882   -2.0630    0.0000 C   0  0  0  0  0  0  0  0  0  0  0  0
    0.2466   -1.6256    0.0000 C   0  0  0  0  0  0  0  0  0  0  0  0
    1.3428   -2.6494    0.0000 C   0  0  0  0  0  0  0  0  0  0  0  0
    2.7776   -2.2120    0.0000 C   0  0  0  0  0  0  0  0  0  0  0  0
    3.1162   -0.7507    0.0000 C   0  0  0  0  0  0  0  0  0  0  0  0
    4.5510   -0.3133    0.0000 C   0  0  0  0  0  0  0  0  0  0  0  0
    4.8896    1.1480    0.0000 C   0  0  0  0  0  0  0  0  0  0  0  0
    6.3244    1.5854    0.0000 O   0  0  0  0  0  0  0  0  0  0  0  0
    7.4206    0.5615    0.0000 P   0  0  0  0  0  0  0  0  0  0  0  0
    8.4445    1.6578    0.0000 O   0  0  0  0  0  0  0  0  0  0  0  0
    6.3967   -0.5347    0.0000 O   0  0  0  0  0  0  0  0  0  0  0  0
    8.5168   -0.4623    0.0000 O   0  0  0  0  0  0  0  0  0  0  0  0
    3.7934    2.1718    0.0000 C   0  0  0  0  0  0  0  0  0  0  0  0
    2.3586    1.7344    0.0000 C   0  0  0  0  0  0  0  0  0  0  0  0
    2.0200    0.2731    0.0000 C   0  0  0  0  0  0  0  0  0  0  0  0
    0.9238    1.2970    0.0000 C   0  0  0  0  0  0  0  0  0  0  0  0
    0.5852   -0.1643    0.0000 C   0  0  0  0  0  0  0  0  0  0  0  0
   -0.5110    0.8596    0.0000 C   0  0  0  0  0  0  0  0  0  0  0  0
   -1.9458    0.4222    0.0000 C   0  0  0  0  0  0  0  0  0  0  0  0
   -3.0421    1.4460    0.0000 O   0  0  0  0  0  0  0  0  0  0  0  0
   -2.2844   -1.0391    0.0000 C   0  0  0  0  0  0  0  0  0  0  0  0
   -3.4817   -0.1354    0.0000 C   0  0  0  0  0  0  0  0  0  0  0  0
  2  1  1  6
  2  3  1  0
  3  4  1  0
  4  5  1  0
  5  6  2  0
  5  7  1  0
  2  8  1  0
  8  9  1  6
  9 10  1  0
 11 10  1  6
 11 12  1  0
 12 13  1  1
 13 14  1  0
 15 14  1  1
 15 16  1  0
 16 17  1  0
 17 18  1  1
 18 19  1  0
 19 20  2  0
 19 21  1  0
 19 22  1  0
 17 23  1  0
 23 24  1  0
 24 25  1  0
 25 26  1  6
 25 27  1  0
 27 28  1  6
 28 29  1  0
 29 30  1  1
 29 31  1  0
 31 32  1  6
 31  8  1  0
 31 11  1  0
 27 12  1  0
 25 15  1  0
M  END
>  <MS_ID>  (3584) 
MS3865

>  <SMILES>  (3584) 
C[C@H](CCC(=O)O)[C@H]1CC[C@H]2[C@@H]3CC[C@@H]4C[C@H](OP(=O)(O)O)CC[C@]4(C)[C@H]3C[C@H](O)[C@]12C

>  <Structure_dimension>  (3584) 
2D

$$$$
MS3866
     RDKit          2D

 31 34  0  0  0  0  0  0  0  0999 V2000
    7.6696   -3.5358    0.0000 C   0  0  0  0  0  0  0  0  0  0  0  0
    7.3085   -2.0799    0.0000 O   0  0  0  0  0  0  0  0  0  0  0  0
    5.8671   -1.6646    0.0000 C   0  0  0  0  0  0  0  0  0  0  0  0
    4.7868   -2.7053    0.0000 O   0  0  0  0  0  0  0  0  0  0  0  0
    5.5060   -0.2087    0.0000 C   0  0  0  0  0  0  0  0  0  0  0  0
    4.0646    0.2065    0.0000 C   0  0  0  0  0  0  0  0  0  0  0  0
    3.7035    1.6624    0.0000 C   0  0  0  0  0  0  0  0  0  0  0  0
    4.7838    2.7030    0.0000 C   0  0  0  0  0  0  0  0  0  0  0  0
    2.2621    2.0776    0.0000 C   0  0  0  0  0  0  0  0  0  0  0  0
    1.7508    3.4878    0.0000 C   0  0  0  0  0  0  0  0  0  0  0  0
    0.2517    3.4373    0.0000 C   0  0  0  0  0  0  0  0  0  0  0  0
   -0.1635    1.9959    0.0000 C   0  0  0  0  0  0  0  0  0  0  0  0
   -1.5125    1.3400    0.0000 C   0  0  0  0  0  0  0  0  0  0  0  0
   -2.7551    2.1803    0.0000 C   0  0  0  0  0  0  0  0  0  0  0  0
   -2.6486    3.6765    0.0000 O   0  0  0  0  0  0  0  0  0  0  0  0
   -4.1041    1.5244    0.0000 C   0  0  0  0  0  0  0  0  0  0  0  0
   -4.2105    0.0282    0.0000 C   0  0  0  0  0  0  0  0  0  0  0  0
   -5.5595   -0.6277    0.0000 C   0  0  0  0  0  0  0  0  0  0  0  0
   -6.8020    0.2126    0.0000 O   0  0  0  0  0  0  0  0  0  0  0  0
   -5.6660   -2.1239    0.0000 C   0  0  0  0  0  0  0  0  0  0  0  0
   -7.0150   -2.7798    0.0000 O   0  0  0  0  0  0  0  0  0  0  0  0
   -4.4235   -2.9643    0.0000 C   0  0  0  0  0  0  0  0  0  0  0  0
   -3.0745   -2.3084    0.0000 C   0  0  0  0  0  0  0  0  0  0  0  0
   -2.9680   -0.8121    0.0000 C   0  0  0  0  0  0  0  0  0  0  0  0
   -1.7255   -1.6525    0.0000 C   0  0  0  0  0  0  0  0  0  0  0  0
   -1.6190   -0.1562    0.0000 C   0  0  0  0  0  0  0  0  0  0  0  0
   -0.3765   -0.9966    0.0000 C   0  0  0  0  0  0  0  0  0  0  0  0
    0.9725   -0.3407    0.0000 C   0  0  0  0  0  0  0  0  0  0  0  0
    2.2150   -1.1810    0.0000 O   0  0  0  0  0  0  0  0  0  0  0  0
    1.0790    1.1556    0.0000 C   0  0  0  0  0  0  0  0  0  0  0  0
    2.4025    0.4497    0.0000 C   0  0  0  0  0  0  0  0  0  0  0  0
  1  2  1  0
  2  3  1  0
  3  4  2  0
  3  5  1  0
  5  6  1  0
  6  7  1  0
  7  8  1  6
  7  9  1  0
  9 10  1  6
 10 11  1  0
 12 11  1  6
 12 13  1  0
 13 14  1  1
 14 15  1  1
 14 16  1  0
 17 16  1  1
 17 18  1  0
 18 19  1  6
 18 20  1  0
 20 21  1  1
 20 22  1  0
 22 23  1  0
 23 24  1  0
 24 25  1  6
 24 26  1  0
 26 27  1  6
 27 28  1  0
 28 29  1  1
 28 30  1  0
 30 31  1  6
 30  9  1  0
 30 12  1  0
 26 13  1  0
 24 17  1  0
M  END
>  <MS_ID>  (3585) 
MS3866

>  <SMILES>  (3585) 
COC(=O)CC[C@@H](C)[C@H]1CC[C@H]2[C@@H]3[C@H](O)C[C@@H]4[C@@H](O)[C@H](O)CC[C@]4(C)[C@H]3C[C@H](O)[C@]12C

>  <Structure_dimension>  (3585) 
2D

$$$$
MS3867
     RDKit          2D

 38 41  0  0  0  0  0  0  0  0999 V2000
   -3.6242   -4.2742    0.0000 C   0  0  0  0  0  0  0  0  0  0  0  0
   -2.7435   -3.0599    0.0000 C   0  0  0  0  0  0  0  0  0  0  0  0
   -3.3548   -1.6901    0.0000 C   0  0  0  0  0  0  0  0  0  0  0  0
   -4.8467   -1.5345    0.0000 C   0  0  0  0  0  0  0  0  0  0  0  0
   -5.4579   -0.1647    0.0000 C   0  0  0  0  0  0  0  0  0  0  0  0
   -4.5772    1.0495    0.0000 O   0  0  0  0  0  0  0  0  0  0  0  0
   -6.9498   -0.0092    0.0000 N   0  0  0  0  0  0  0  0  0  0  0  0
   -7.5611    1.3606    0.0000 C   0  0  0  0  0  0  0  0  0  0  0  0
   -9.0530    1.5162    0.0000 C   0  0  0  0  0  0  0  0  0  0  0  0
   -9.6642    2.8860    0.0000 S   0  0  0  0  0  0  0  0  0  0  0  0
  -11.0340    2.2748    0.0000 O   0  0  0  0  0  0  0  0  0  0  0  0
   -8.2944    3.4972    0.0000 O   0  0  0  0  0  0  0  0  0  0  0  0
  -10.2755    4.2558    0.0000 O   0  0  0  0  0  0  0  0  0  0  0  0
   -1.2516   -3.2155    0.0000 C   0  0  0  0  0  0  0  0  0  0  0  0
   -0.5005   -4.5139    0.0000 C   0  0  0  0  0  0  0  0  0  0  0  0
    0.9664   -4.2008    0.0000 C   0  0  0  0  0  0  0  0  0  0  0  0
    1.1220   -2.7089    0.0000 C   0  0  0  0  0  0  0  0  0  0  0  0
    2.3348   -1.8262    0.0000 C   0  0  0  0  0  0  0  0  0  0  0  0
    3.7056   -2.4352    0.0000 C   0  0  0  0  0  0  0  0  0  0  0  0
    3.8636   -3.9268    0.0000 O   0  0  0  0  0  0  0  0  0  0  0  0
    4.9184   -1.5525    0.0000 C   0  0  0  0  0  0  0  0  0  0  0  0
    4.7604   -0.0608    0.0000 C   0  0  0  0  0  0  0  0  0  0  0  0
    5.9732    0.8219    0.0000 C   0  0  0  0  0  0  0  0  0  0  0  0
    5.8151    2.3135    0.0000 C   0  0  0  0  0  0  0  0  0  0  0  0
    7.0279    3.1962    0.0000 O   0  0  0  0  0  0  0  0  0  0  0  0
    8.3987    2.5872    0.0000 S   0  0  0  0  0  0  0  0  0  0  0  0
    7.7898    1.2164    0.0000 O   0  0  0  0  0  0  0  0  0  0  0  0
    9.0077    3.9580    0.0000 O   0  0  0  0  0  0  0  0  0  0  0  0
    9.7696    1.9783    0.0000 O   0  0  0  0  0  0  0  0  0  0  0  0
    4.4443    2.9225    0.0000 C   0  0  0  0  0  0  0  0  0  0  0  0
    3.2315    2.0398    0.0000 C   0  0  0  0  0  0  0  0  0  0  0  0
    3.3895    0.5481    0.0000 C   0  0  0  0  0  0  0  0  0  0  0  0
    2.0187    1.1571    0.0000 C   0  0  0  0  0  0  0  0  0  0  0  0
    2.1767   -0.3345    0.0000 C   0  0  0  0  0  0  0  0  0  0  0  0
    0.8059    0.2744    0.0000 C   0  0  0  0  0  0  0  0  0  0  0  0
   -0.4069   -0.6083    0.0000 C   0  0  0  0  0  0  0  0  0  0  0  0
   -0.2488   -2.0999    0.0000 C   0  0  0  0  0  0  0  0  0  0  0  0
   -1.6758   -1.6376    0.0000 C   0  0  0  0  0  0  0  0  0  0  0  0
  2  1  1  6
  2  3  1  0
  3  4  1  0
  4  5  1  0
  5  6  2  0
  5  7  1  0
  7  8  1  0
  8  9  1  0
  9 10  1  0
 10 11  2  0
 10 12  2  0
 10 13  1  0
  2 14  1  0
 14 15  1  6
 15 16  1  0
 17 16  1  6
 17 18  1  0
 18 19  1  1
 19 20  1  6
 19 21  1  0
 22 21  1  1
 22 23  1  0
 23 24  1  0
 24 25  1  1
 25 26  1  0
 26 27  2  0
 26 28  2  0
 26 29  1  0
 24 30  1  0
 30 31  1  0
 31 32  1  0
 32 33  1  6
 32 34  1  0
 34 35  1  6
 35 36  1  0
 36 37  1  0
 37 38  1  6
 37 14  1  0
 37 17  1  0
 34 18  1  0
 32 22  1  0
M  END
>  <MS_ID>  (3586) 
MS3867

>  <SMILES>  (3586) 
C[C@H](CCC(=O)NCCS(=O)(=O)O)[C@H]1CC[C@H]2[C@@H]3[C@@H](O)C[C@@H]4C[C@H](OS(=O)(=O)O)CC[C@]4(C)[C@H]3CC[C@]12C

>  <Structure_dimension>  (3586) 
2D

$$$$
MS3868
     RDKit          2D

 29 32  0  0  0  0  0  0  0  0999 V2000
   -5.2182   -2.1453    0.0000 C   0  0  0  0  0  0  0  0  0  0  0  0
   -4.0752   -1.1739    0.0000 C   0  0  0  0  0  0  0  0  0  0  0  0
   -4.3449    0.3016    0.0000 C   0  0  0  0  0  0  0  0  0  0  0  0
   -5.7577    0.8058    0.0000 C   0  0  0  0  0  0  0  0  0  0  0  0
   -6.0274    2.2814    0.0000 C   0  0  0  0  0  0  0  0  0  0  0  0
   -4.8843    3.2527    0.0000 O   0  0  0  0  0  0  0  0  0  0  0  0
   -7.4401    2.7856    0.0000 O   0  0  0  0  0  0  0  0  0  0  0  0
   -2.6625   -1.6782    0.0000 C   0  0  0  0  0  0  0  0  0  0  0  0
   -2.2400   -3.1174    0.0000 C   0  0  0  0  0  0  0  0  0  0  0  0
   -0.7407   -3.1604    0.0000 C   0  0  0  0  0  0  0  0  0  0  0  0
   -0.2364   -1.7477    0.0000 C   0  0  0  0  0  0  0  0  0  0  0  0
    1.1508   -1.1771    0.0000 C   0  0  0  0  0  0  0  0  0  0  0  0
    2.3386   -2.0932    0.0000 C   0  0  0  0  0  0  0  0  0  0  0  0
    2.1391   -3.5798    0.0000 O   0  0  0  0  0  0  0  0  0  0  0  0
    3.7258   -1.5226    0.0000 C   0  0  0  0  0  0  0  0  0  0  0  0
    4.9136   -2.4386    0.0000 O   0  0  0  0  0  0  0  0  0  0  0  0
    3.9253   -0.0359    0.0000 C   0  0  0  0  0  0  0  0  0  0  0  0
    5.3125    0.5347    0.0000 C   0  0  0  0  0  0  0  0  0  0  0  0
    5.5119    2.0214    0.0000 C   0  0  0  0  0  0  0  0  0  0  0  0
    6.8992    2.5920    0.0000 O   0  0  0  0  0  0  0  0  0  0  0  0
    4.3242    2.9375    0.0000 C   0  0  0  0  0  0  0  0  0  0  0  0
    2.9369    2.3669    0.0000 C   0  0  0  0  0  0  0  0  0  0  0  0
    2.7375    0.8802    0.0000 C   0  0  0  0  0  0  0  0  0  0  0  0
    1.5497    1.7963    0.0000 C   0  0  0  0  0  0  0  0  0  0  0  0
    1.3502    0.3096    0.0000 C   0  0  0  0  0  0  0  0  0  0  0  0
    0.1625    1.2257    0.0000 C   0  0  0  0  0  0  0  0  0  0  0  0
   -1.2248    0.6551    0.0000 C   0  0  0  0  0  0  0  0  0  0  0  0
   -1.4242   -0.8316    0.0000 C   0  0  0  0  0  0  0  0  0  0  0  0
   -2.7012   -0.0447    0.0000 C   0  0  0  0  0  0  0  0  0  0  0  0
  2  1  1  6
  2  3  1  0
  3  4  1  0
  4  5  1  0
  5  6  2  0
  5  7  1  0
  2  8  1  0
  8  9  1  6
  9 10  1  0
 11 10  1  6
 11 12  1  0
 12 13  1  1
 13 14  1  6
 13 15  1  0
 15 16  1  6
 15 17  1  0
 17 18  1  1
 18 19  1  0
 19 20  2  0
 19 21  1  0
 21 22  1  0
 22 23  1  0
 23 24  1  6
 23 25  1  0
 25 26  1  6
 26 27  1  0
 27 28  1  0
 28 29  1  6
 28  8  1  0
 28 11  1  0
 25 12  1  0
 23 17  1  0
M  END
>  <MS_ID>  (3587) 
MS3868

>  <SMILES>  (3587) 
C[C@H](CCC(=O)O)[C@H]1CC[C@H]2[C@@H]3[C@@H](O)[C@@H](O)[C@@H]4CC(=O)CC[C@]4(C)[C@H]3CC[C@]12C

>  <Structure_dimension>  (3587) 
2D

$$$$
MS3870
     RDKit          2D

 28 31  0  0  0  0  0  0  0  0999 V2000
   -5.2870   -1.7591    0.0000 C   0  0  0  0  0  0  0  0  0  0  0  0
   -4.0706   -0.8813    0.0000 C   0  0  0  0  0  0  0  0  0  0  0  0
   -4.2226    0.6109    0.0000 C   0  0  0  0  0  0  0  0  0  0  0  0
   -5.5910    1.2255    0.0000 C   0  0  0  0  0  0  0  0  0  0  0  0
   -5.7429    2.7177    0.0000 C   0  0  0  0  0  0  0  0  0  0  0  0
   -7.1113    3.3322    0.0000 O   0  0  0  0  0  0  0  0  0  0  0  0
   -2.7023   -1.4959    0.0000 C   0  0  0  0  0  0  0  0  0  0  0  0
   -2.3951   -2.9641    0.0000 C   0  0  0  0  0  0  0  0  0  0  0  0
   -0.9039   -3.1257    0.0000 C   0  0  0  0  0  0  0  0  0  0  0  0
   -0.2893   -1.7573    0.0000 C   0  0  0  0  0  0  0  0  0  0  0  0
    1.1387   -1.2984    0.0000 C   0  0  0  0  0  0  0  0  0  0  0  0
    2.2502   -2.3057    0.0000 C   0  0  0  0  0  0  0  0  0  0  0  0
    1.9336   -3.7719    0.0000 O   0  0  0  0  0  0  0  0  0  0  0  0
    3.6783   -1.8467    0.0000 C   0  0  0  0  0  0  0  0  0  0  0  0
    3.9949   -0.3805    0.0000 C   0  0  0  0  0  0  0  0  0  0  0  0
    5.4229    0.0784    0.0000 C   0  0  0  0  0  0  0  0  0  0  0  0
    5.7395    1.5446    0.0000 C   0  0  0  0  0  0  0  0  0  0  0  0
    7.1676    2.0035    0.0000 O   0  0  0  0  0  0  0  0  0  0  0  0
    4.6280    2.5519    0.0000 C   0  0  0  0  0  0  0  0  0  0  0  0
    3.2000    2.0930    0.0000 C   0  0  0  0  0  0  0  0  0  0  0  0
    2.8834    0.6267    0.0000 C   0  0  0  0  0  0  0  0  0  0  0  0
    1.7719    1.6340    0.0000 C   0  0  0  0  0  0  0  0  0  0  0  0
    1.4553    0.1678    0.0000 C   0  0  0  0  0  0  0  0  0  0  0  0
    0.3438    1.1751    0.0000 C   0  0  0  0  0  0  0  0  0  0  0  0
   -1.0842    0.7162    0.0000 C   0  0  0  0  0  0  0  0  0  0  0  0
   -2.1957    1.7234    0.0000 O   0  0  0  0  0  0  0  0  0  0  0  0
   -1.4008   -0.7500    0.0000 C   0  0  0  0  0  0  0  0  0  0  0  0
   -2.6115    0.1355    0.0000 C   0  0  0  0  0  0  0  0  0  0  0  0
  2  1  1  6
  2  3  1  0
  3  4  1  0
  4  5  1  0
  5  6  2  0
  2  7  1  0
  7  8  1  6
  8  9  1  0
 10  9  1  6
 10 11  1  0
 11 12  1  1
 12 13  1  1
 12 14  1  0
 15 14  1  6
 15 16  1  0
 16 17  1  0
 17 18  1  1
 17 19  1  0
 19 20  1  0
 20 21  1  0
 21 22  1  6
 21 23  1  0
 23 24  1  6
 24 25  1  0
 25 26  1  1
 25 27  1  0
 27 28  1  6
 27  7  1  0
 27 10  1  0
 23 11  1  0
 21 15  1  0
M  END
>  <MS_ID>  (3588) 
MS3870

>  <SMILES>  (3588) 
C[C@H](CCC=O)[C@H]1CC[C@H]2[C@@H]3[C@H](O)C[C@H]4C[C@H](O)CC[C@]4(C)[C@H]3C[C@H](O)[C@]12C

>  <Structure_dimension>  (3588) 
2D

$$$$
MS3871
     RDKit          2D

 29 32  0  0  0  0  0  0  0  0999 V2000
   -5.2182   -2.1453    0.0000 C   0  0  0  0  0  0  0  0  0  0  0  0
   -4.0752   -1.1739    0.0000 C   0  0  0  0  0  0  0  0  0  0  0  0
   -4.3449    0.3016    0.0000 C   0  0  0  0  0  0  0  0  0  0  0  0
   -5.7577    0.8058    0.0000 C   0  0  0  0  0  0  0  0  0  0  0  0
   -6.0274    2.2814    0.0000 C   0  0  0  0  0  0  0  0  0  0  0  0
   -4.8843    3.2527    0.0000 O   0  0  0  0  0  0  0  0  0  0  0  0
   -7.4401    2.7856    0.0000 O   0  0  0  0  0  0  0  0  0  0  0  0
   -2.6625   -1.6782    0.0000 C   0  0  0  0  0  0  0  0  0  0  0  0
   -2.2400   -3.1174    0.0000 C   0  0  0  0  0  0  0  0  0  0  0  0
   -0.7407   -3.1604    0.0000 C   0  0  0  0  0  0  0  0  0  0  0  0
   -0.2364   -1.7477    0.0000 C   0  0  0  0  0  0  0  0  0  0  0  0
    1.1508   -1.1771    0.0000 C   0  0  0  0  0  0  0  0  0  0  0  0
    2.3386   -2.0932    0.0000 C   0  0  0  0  0  0  0  0  0  0  0  0
    2.1391   -3.5798    0.0000 O   0  0  0  0  0  0  0  0  0  0  0  0
    3.7258   -1.5226    0.0000 C   0  0  0  0  0  0  0  0  0  0  0  0
    4.9136   -2.4386    0.0000 O   0  0  0  0  0  0  0  0  0  0  0  0
    3.9253   -0.0359    0.0000 C   0  0  0  0  0  0  0  0  0  0  0  0
    5.3125    0.5347    0.0000 C   0  0  0  0  0  0  0  0  0  0  0  0
    5.5119    2.0214    0.0000 C   0  0  0  0  0  0  0  0  0  0  0  0
    6.8992    2.5920    0.0000 O   0  0  0  0  0  0  0  0  0  0  0  0
    4.3242    2.9375    0.0000 C   0  0  0  0  0  0  0  0  0  0  0  0
    2.9369    2.3669    0.0000 C   0  0  0  0  0  0  0  0  0  0  0  0
    2.7375    0.8802    0.0000 C   0  0  0  0  0  0  0  0  0  0  0  0
    1.5497    1.7963    0.0000 C   0  0  0  0  0  0  0  0  0  0  0  0
    1.3502    0.3096    0.0000 C   0  0  0  0  0  0  0  0  0  0  0  0
    0.1625    1.2257    0.0000 C   0  0  0  0  0  0  0  0  0  0  0  0
   -1.2248    0.6551    0.0000 C   0  0  0  0  0  0  0  0  0  0  0  0
   -1.4242   -0.8316    0.0000 C   0  0  0  0  0  0  0  0  0  0  0  0
   -2.7012   -0.0447    0.0000 C   0  0  0  0  0  0  0  0  0  0  0  0
  2  1  1  6
  2  3  1  0
  3  4  1  0
  4  5  1  0
  5  6  2  0
  5  7  1  0
  2  8  1  0
  8  9  1  6
  9 10  1  0
 11 10  1  6
 11 12  1  0
 12 13  1  1
 13 14  1  1
 13 15  1  0
 15 16  1  6
 15 17  1  0
 17 18  1  1
 18 19  1  0
 19 20  2  0
 19 21  1  0
 21 22  1  0
 22 23  1  0
 23 24  1  6
 23 25  1  0
 25 26  1  6
 26 27  1  0
 27 28  1  0
 28 29  1  6
 28  8  1  0
 28 11  1  0
 25 12  1  0
 23 17  1  0
M  END
>  <MS_ID>  (3589) 
MS3871

>  <SMILES>  (3589) 
C[C@H](CCC(=O)O)[C@H]1CC[C@H]2[C@@H]3[C@H](O)[C@@H](O)[C@@H]4CC(=O)CC[C@]4(C)[C@H]3CC[C@]12C

>  <Structure_dimension>  (3589) 
2D

$$$$
MS3872
     RDKit          2D

 35 38  0  0  0  0  0  0  0  0999 V2000
   -2.0200   -4.3028    0.0000 C   0  0  0  0  0  0  0  0  0  0  0  0
   -1.3087   -2.9822    0.0000 C   0  0  0  0  0  0  0  0  0  0  0  0
   -2.0967   -1.7059    0.0000 C   0  0  0  0  0  0  0  0  0  0  0  0
   -3.5960   -1.7502    0.0000 C   0  0  0  0  0  0  0  0  0  0  0  0
   -4.3840   -0.4738    0.0000 C   0  0  0  0  0  0  0  0  0  0  0  0
   -3.6727    0.8468    0.0000 O   0  0  0  0  0  0  0  0  0  0  0  0
   -5.8834   -0.5181    0.0000 N   0  0  0  0  0  0  0  0  0  0  0  0
   -6.6714    0.7582    0.0000 C   0  0  0  0  0  0  0  0  0  0  0  0
   -8.1707    0.7140    0.0000 C   0  0  0  0  0  0  0  0  0  0  0  0
   -8.9588    1.9903    0.0000 S   0  0  0  0  0  0  0  0  0  0  0  0
  -10.2351    1.2023    0.0000 O   0  0  0  0  0  0  0  0  0  0  0  0
   -7.6824    2.7783    0.0000 O   0  0  0  0  0  0  0  0  0  0  0  0
   -9.7468    3.2667    0.0000 O   0  0  0  0  0  0  0  0  0  0  0  0
    0.1907   -2.9379    0.0000 C   0  0  0  0  0  0  0  0  0  0  0  0
    1.1078   -4.1249    0.0000 C   0  0  0  0  0  0  0  0  0  0  0  0
    2.5201   -3.6195    0.0000 C   0  0  0  0  0  0  0  0  0  0  0  0
    2.4758   -2.1201    0.0000 C   0  0  0  0  0  0  0  0  0  0  0  0
    3.5604   -1.0840    0.0000 C   0  0  0  0  0  0  0  0  0  0  0  0
    5.0001   -1.5052    0.0000 C   0  0  0  0  0  0  0  0  0  0  0  0
    5.3551   -2.9626    0.0000 O   0  0  0  0  0  0  0  0  0  0  0  0
    6.0847   -0.4691    0.0000 C   0  0  0  0  0  0  0  0  0  0  0  0
    5.7296    0.9883    0.0000 C   0  0  0  0  0  0  0  0  0  0  0  0
    6.8142    2.0245    0.0000 C   0  0  0  0  0  0  0  0  0  0  0  0
    6.4592    3.4819    0.0000 C   0  0  0  0  0  0  0  0  0  0  0  0
    7.5438    4.5180    0.0000 O   0  0  0  0  0  0  0  0  0  0  0  0
    5.0196    3.9031    0.0000 C   0  0  0  0  0  0  0  0  0  0  0  0
    3.9350    2.8669    0.0000 C   0  0  0  0  0  0  0  0  0  0  0  0
    4.2900    1.4095    0.0000 C   0  0  0  0  0  0  0  0  0  0  0  0
    2.8503    1.8308    0.0000 C   0  0  0  0  0  0  0  0  0  0  0  0
    3.2054    0.3734    0.0000 C   0  0  0  0  0  0  0  0  0  0  0  0
    1.7657    0.7946    0.0000 C   0  0  0  0  0  0  0  0  0  0  0  0
    0.6811   -0.2416    0.0000 C   0  0  0  0  0  0  0  0  0  0  0  0
   -0.7585    0.1797    0.0000 O   0  0  0  0  0  0  0  0  0  0  0  0
    1.0362   -1.6989    0.0000 C   0  0  0  0  0  0  0  0  0  0  0  0
   -0.4396   -1.4305    0.0000 C   0  0  0  0  0  0  0  0  0  0  0  0
  2  1  1  1
  2  3  1  0
  3  4  1  0
  4  5  1  0
  5  6  2  0
  5  7  1  0
  7  8  1  0
  8  9  1  0
  9 10  1  0
 10 11  2  0
 10 12  2  0
 10 13  1  0
  2 14  1  0
 14 15  1  6
 15 16  1  0
 17 16  1  6
 17 18  1  0
 18 19  1  1
 19 20  1  1
 19 21  1  0
 22 21  1  6
 22 23  1  0
 23 24  1  0
 24 25  1  6
 24 26  1  0
 26 27  1  0
 27 28  1  0
 28 29  1  6
 28 30  1  0
 30 31  1  6
 31 32  1  0
 32 33  1  1
 32 34  1  0
 34 35  1  6
 34 14  1  0
 34 17  1  0
 30 18  1  0
 28 22  1  0
M  END
>  <MS_ID>  (3590) 
MS3872

>  <SMILES>  (3590) 
C[C@@H](CCC(=O)NCCS(=O)(=O)O)[C@H]1CC[C@H]2[C@@H]3[C@H](O)C[C@H]4C[C@@H](O)CC[C@]4(C)[C@H]3C[C@H](O)[C@]12C

>  <Structure_dimension>  (3590) 
2D

$$$$
MS3874
     RDKit          2D

 43 47  0  0  0  0  0  0  0  0999 V2000
   -6.3918   -3.4106    0.0000 C   0  0  0  0  0  0  0  0  0  0  0  0
   -5.3538   -2.3278    0.0000 C   0  0  0  0  0  0  0  0  0  0  0  0
   -5.7725   -0.8874    0.0000 C   0  0  0  0  0  0  0  0  0  0  0  0
   -7.2293   -0.5299    0.0000 C   0  0  0  0  0  0  0  0  0  0  0  0
   -7.6480    0.9105    0.0000 C   0  0  0  0  0  0  0  0  0  0  0  0
   -6.6100    1.9933    0.0000 O   0  0  0  0  0  0  0  0  0  0  0  0
   -9.1048    1.2681    0.0000 N   0  0  0  0  0  0  0  0  0  0  0  0
   -9.5235    2.7084    0.0000 C   0  0  0  0  0  0  0  0  0  0  0  0
  -10.9803    3.0660    0.0000 C   0  0  0  0  0  0  0  0  0  0  0  0
  -12.0183    1.9832    0.0000 O   0  0  0  0  0  0  0  0  0  0  0  0
  -11.3990    4.5064    0.0000 O   0  0  0  0  0  0  0  0  0  0  0  0
   -3.8970   -2.6853    0.0000 C   0  0  0  0  0  0  0  0  0  0  0  0
   -3.3300   -4.0740    0.0000 C   0  0  0  0  0  0  0  0  0  0  0  0
   -1.8340   -3.9639    0.0000 C   0  0  0  0  0  0  0  0  0  0  0  0
   -1.4765   -2.5072    0.0000 C   0  0  0  0  0  0  0  0  0  0  0  0
   -0.1547   -1.7981    0.0000 C   0  0  0  0  0  0  0  0  0  0  0  0
    1.1203   -2.5883    0.0000 C   0  0  0  0  0  0  0  0  0  0  0  0
    1.0735   -4.0876    0.0000 O   0  0  0  0  0  0  0  0  0  0  0  0
    2.4421   -1.8793    0.0000 C   0  0  0  0  0  0  0  0  0  0  0  0
    2.4890   -0.3800    0.0000 C   0  0  0  0  0  0  0  0  0  0  0  0
    3.8108    0.3291    0.0000 C   0  0  0  0  0  0  0  0  0  0  0  0
    3.8577    1.8283    0.0000 C   0  0  0  0  0  0  0  0  0  0  0  0
    5.1795    2.5374    0.0000 O   0  0  0  0  0  0  0  0  0  0  0  0
    6.4545    1.7472    0.0000 C   0  0  0  0  0  0  0  0  0  0  0  0
    6.4076    0.2479    0.0000 O   0  0  0  0  0  0  0  0  0  0  0  0
    7.6826   -0.5423    0.0000 C   0  0  0  0  0  0  0  0  0  0  0  0
    7.6358   -2.0416    0.0000 C   0  0  0  0  0  0  0  0  0  0  0  0
    6.3139   -2.7506    0.0000 O   0  0  0  0  0  0  0  0  0  0  0  0
    9.0045    0.1667    0.0000 C   0  0  0  0  0  0  0  0  0  0  0  0
   10.2794   -0.6235    0.0000 O   0  0  0  0  0  0  0  0  0  0  0  0
    9.0513    1.6660    0.0000 C   0  0  0  0  0  0  0  0  0  0  0  0
   10.3731    2.3751    0.0000 O   0  0  0  0  0  0  0  0  0  0  0  0
    7.7763    2.4562    0.0000 C   0  0  0  0  0  0  0  0  0  0  0  0
    7.8232    3.9555    0.0000 O   0  0  0  0  0  0  0  0  0  0  0  0
    2.5827    2.6185    0.0000 C   0  0  0  0  0  0  0  0  0  0  0  0
    1.2609    1.9095    0.0000 C   0  0  0  0  0  0  0  0  0  0  0  0
    1.2140    0.4102    0.0000 C   0  0  0  0  0  0  0  0  0  0  0  0
   -0.0609    1.2004    0.0000 C   0  0  0  0  0  0  0  0  0  0  0  0
   -0.1078   -0.2988    0.0000 C   0  0  0  0  0  0  0  0  0  0  0  0
   -1.3828    0.4914    0.0000 C   0  0  0  0  0  0  0  0  0  0  0  0
   -2.7046   -0.2177    0.0000 C   0  0  0  0  0  0  0  0  0  0  0  0
   -2.7515   -1.7169    0.0000 C   0  0  0  0  0  0  0  0  0  0  0  0
   -4.1021   -1.0643    0.0000 C   0  0  0  0  0  0  0  0  0  0  0  0
  2  1  1  6
  2  3  1  0
  3  4  1  0
  4  5  1  0
  5  6  2  0
  5  7  1  0
  7  8  1  0
  8  9  1  0
  9 10  2  0
  9 11  1  0
  2 12  1  0
 12 13  1  6
 13 14  1  0
 15 14  1  6
 15 16  1  0
 16 17  1  1
 17 18  1  1
 17 19  1  0
 20 19  1  1
 20 21  1  0
 21 22  1  0
 22 23  1  1
 24 23  1  1
 24 25  1  0
 25 26  1  0
 26 27  1  1
 27 28  1  0
 26 29  1  0
 29 30  1  6
 29 31  1  0
 31 32  1  1
 31 33  1  0
 33 34  1  6
 22 35  1  0
 35 36  1  0
 36 37  1  0
 37 38  1  6
 37 39  1  0
 39 40  1  6
 40 41  1  0
 41 42  1  0
 42 43  1  6
 42 12  1  0
 42 15  1  0
 39 16  1  0
 37 20  1  0
 33 24  1  0
M  END
>  <MS_ID>  (3591) 
MS3874

>  <SMILES>  (3591) 
C[C@H](CCC(=O)NCC(=O)O)[C@H]1CC[C@H]2[C@@H]3[C@H](O)C[C@@H]4C[C@H](O[C@@H]5O[C@H](CO)[C@@H](O)[C@H](O)[C@H]5O)CC[C@]4(C)[C@H]3CC[C@]12C

>  <Structure_dimension>  (3591) 
2D

$$$$
MS3877
     RDKit          2D

 27 30  0  0  0  0  0  0  0  0999 V2000
   -4.6206   -2.3136    0.0000 C   0  0  0  0  0  0  0  0  0  0  0  0
   -3.4741   -1.3464    0.0000 C   0  0  0  0  0  0  0  0  0  0  0  0
   -3.7384    0.1301    0.0000 C   0  0  0  0  0  0  0  0  0  0  0  0
   -5.1493    0.6394    0.0000 C   0  0  0  0  0  0  0  0  0  0  0  0
   -5.4136    2.1160    0.0000 C   0  0  0  0  0  0  0  0  0  0  0  0
   -4.2671    3.0832    0.0000 O   0  0  0  0  0  0  0  0  0  0  0  0
   -6.8245    2.6253    0.0000 O   0  0  0  0  0  0  0  0  0  0  0  0
   -2.0632   -1.8558    0.0000 C   0  0  0  0  0  0  0  0  0  0  0  0
   -1.6459   -3.2966    0.0000 C   0  0  0  0  0  0  0  0  0  0  0  0
   -0.1467   -3.3450    0.0000 C   0  0  0  0  0  0  0  0  0  0  0  0
    0.3626   -1.9341    0.0000 C   0  0  0  0  0  0  0  0  0  0  0  0
    1.7519   -1.3686    0.0000 C   0  0  0  0  0  0  0  0  0  0  0  0
    2.9363   -2.2890    0.0000 C   0  0  0  0  0  0  0  0  0  0  0  0
    4.3256   -1.7234    0.0000 C   0  0  0  0  0  0  0  0  0  0  0  0
    4.5305   -0.2375    0.0000 C   0  0  0  0  0  0  0  0  0  0  0  0
    5.9198    0.3281    0.0000 C   0  0  0  0  0  0  0  0  0  0  0  0
    6.1247    1.8140    0.0000 C   0  0  0  0  0  0  0  0  0  0  0  0
    4.9402    2.7344    0.0000 C   0  0  0  0  0  0  0  0  0  0  0  0
    3.5509    2.1689    0.0000 C   0  0  0  0  0  0  0  0  0  0  0  0
    3.3461    0.6829    0.0000 C   0  0  0  0  0  0  0  0  0  0  0  0
    2.1616    1.6033    0.0000 C   0  0  0  0  0  0  0  0  0  0  0  0
    1.9568    0.1174    0.0000 C   0  0  0  0  0  0  0  0  0  0  0  0
    0.7723    1.0378    0.0000 C   0  0  0  0  0  0  0  0  0  0  0  0
   -0.6170    0.4722    0.0000 C   0  0  0  0  0  0  0  0  0  0  0  0
   -1.8014    1.3926    0.0000 O   0  0  0  0  0  0  0  0  0  0  0  0
   -0.8218   -1.0137    0.0000 C   0  0  0  0  0  0  0  0  0  0  0  0
   -2.0960   -0.2222    0.0000 C   0  0  0  0  0  0  0  0  0  0  0  0
  2  1  1  6
  2  3  1  0
  3  4  1  0
  4  5  1  0
  5  6  2  0
  5  7  1  0
  2  8  1  0
  8  9  1  6
  9 10  1  0
 11 10  1  6
 11 12  1  0
 12 13  1  1
 13 14  1  0
 15 14  1  6
 15 16  1  0
 16 17  1  0
 17 18  1  0
 18 19  1  0
 19 20  1  0
 20 21  1  6
 20 22  1  0
 22 23  1  6
 23 24  1  0
 24 25  1  1
 24 26  1  0
 26 27  1  6
 26  8  1  0
 26 11  1  0
 22 12  1  0
 20 15  1  0
M  END
>  <MS_ID>  (3592) 
MS3877

>  <SMILES>  (3592) 
C[C@H](CCC(=O)O)[C@H]1CC[C@H]2[C@@H]3CC[C@H]4CCCC[C@]4(C)[C@H]3C[C@H](O)[C@]12C

>  <Structure_dimension>  (3592) 
2D

$$$$
MS3879
     RDKit          2D

 44 48  0  0  0  0  0  0  0  0999 V2000
   -5.5368   -4.2472    0.0000 C   0  0  0  0  0  0  0  0  0  0  0  0
   -4.5872   -3.0861    0.0000 C   0  0  0  0  0  0  0  0  0  0  0  0
   -5.1180   -1.6831    0.0000 C   0  0  0  0  0  0  0  0  0  0  0  0
   -6.5983   -1.4413    0.0000 C   0  0  0  0  0  0  0  0  0  0  0  0
   -7.1291   -0.0384    0.0000 C   0  0  0  0  0  0  0  0  0  0  0  0
   -6.1795    1.1228    0.0000 O   0  0  0  0  0  0  0  0  0  0  0  0
   -8.6095    0.2034    0.0000 N   0  0  0  0  0  0  0  0  0  0  0  0
   -9.1403    1.6064    0.0000 C   0  0  0  0  0  0  0  0  0  0  0  0
  -10.6206    1.8482    0.0000 C   0  0  0  0  0  0  0  0  0  0  0  0
  -11.1514    3.2512    0.0000 S   0  0  0  0  0  0  0  0  0  0  0  0
  -12.5544    2.7204    0.0000 O   0  0  0  0  0  0  0  0  0  0  0  0
   -9.7484    3.7819    0.0000 O   0  0  0  0  0  0  0  0  0  0  0  0
  -11.6822    4.6541    0.0000 O   0  0  0  0  0  0  0  0  0  0  0  0
   -3.1068   -3.3279    0.0000 C   0  0  0  0  0  0  0  0  0  0  0  0
   -2.4323   -4.6677    0.0000 C   0  0  0  0  0  0  0  0  0  0  0  0
   -0.9496   -4.4402    0.0000 C   0  0  0  0  0  0  0  0  0  0  0  0
   -0.7078   -2.9598    0.0000 C   0  0  0  0  0  0  0  0  0  0  0  0
    0.5541   -2.1490    0.0000 C   0  0  0  0  0  0  0  0  0  0  0  0
    1.8873   -2.8364    0.0000 C   0  0  0  0  0  0  0  0  0  0  0  0
    3.1493   -2.0256    0.0000 C   0  0  0  0  0  0  0  0  0  0  0  0
    3.0780   -0.5273    0.0000 C   0  0  0  0  0  0  0  0  0  0  0  0
    4.3400    0.2836    0.0000 C   0  0  0  0  0  0  0  0  0  0  0  0
    4.2687    1.7819    0.0000 C   0  0  0  0  0  0  0  0  0  0  0  0
    5.5306    2.5928    0.0000 O   0  0  0  0  0  0  0  0  0  0  0  0
    6.8638    1.9053    0.0000 C   0  0  0  0  0  0  0  0  0  0  0  0
    6.9351    0.4070    0.0000 O   0  0  0  0  0  0  0  0  0  0  0  0
    8.2683   -0.2804    0.0000 C   0  0  0  0  0  0  0  0  0  0  0  0
    8.3395   -1.7787    0.0000 C   0  0  0  0  0  0  0  0  0  0  0  0
    7.0776   -2.5896    0.0000 O   0  0  0  0  0  0  0  0  0  0  0  0
    9.5302    0.5304    0.0000 C   0  0  0  0  0  0  0  0  0  0  0  0
   10.8634   -0.1570    0.0000 O   0  0  0  0  0  0  0  0  0  0  0  0
    9.4590    2.0287    0.0000 C   0  0  0  0  0  0  0  0  0  0  0  0
   10.7209    2.8396    0.0000 O   0  0  0  0  0  0  0  0  0  0  0  0
    8.1258    2.7162    0.0000 C   0  0  0  0  0  0  0  0  0  0  0  0
    8.0545    4.2145    0.0000 O   0  0  0  0  0  0  0  0  0  0  0  0
    2.9355    2.4694    0.0000 C   0  0  0  0  0  0  0  0  0  0  0  0
    1.6736    1.6585    0.0000 C   0  0  0  0  0  0  0  0  0  0  0  0
    1.7448    0.1602    0.0000 C   0  0  0  0  0  0  0  0  0  0  0  0
    0.4116    0.8476    0.0000 C   0  0  0  0  0  0  0  0  0  0  0  0
    0.4829   -0.6507    0.0000 C   0  0  0  0  0  0  0  0  0  0  0  0
   -0.8503    0.0368    0.0000 C   0  0  0  0  0  0  0  0  0  0  0  0
   -2.1123   -0.7741    0.0000 C   0  0  0  0  0  0  0  0  0  0  0  0
   -2.0410   -2.2724    0.0000 C   0  0  0  0  0  0  0  0  0  0  0  0
   -3.4388   -1.7281    0.0000 C   0  0  0  0  0  0  0  0  0  0  0  0
  2  1  1  6
  2  3  1  0
  3  4  1  0
  4  5  1  0
  5  6  2  0
  5  7  1  0
  7  8  1  0
  8  9  1  0
  9 10  1  0
 10 11  2  0
 10 12  2  0
 10 13  1  0
  2 14  1  0
 14 15  1  6
 15 16  1  0
 17 16  1  6
 17 18  1  0
 18 19  1  1
 19 20  1  0
 21 20  1  1
 21 22  1  0
 22 23  1  0
 23 24  1  1
 25 24  1  1
 25 26  1  0
 26 27  1  0
 27 28  1  1
 28 29  1  0
 27 30  1  0
 30 31  1  6
 30 32  1  0
 32 33  1  1
 32 34  1  0
 34 35  1  6
 23 36  1  0
 36 37  1  0
 37 38  1  0
 38 39  1  6
 38 40  1  0
 40 41  1  6
 41 42  1  0
 42 43  1  0
 43 44  1  6
 43 14  1  0
 43 17  1  0
 40 18  1  0
 38 21  1  0
 34 25  1  0
M  END
>  <MS_ID>  (3593) 
MS3879

>  <SMILES>  (3593) 
C[C@H](CCC(=O)NCCS(=O)(=O)O)[C@H]1CC[C@H]2[C@@H]3CC[C@@H]4C[C@H](O[C@@H]5O[C@H](CO)[C@@H](O)[C@H](O)[C@H]5O)CC[C@]4(C)[C@H]3CC[C@]12C

>  <Structure_dimension>  (3593) 
2D

$$$$
MS3880
     RDKit          2D

 32 35  0  0  0  0  0  0  0  0999 V2000
   -3.1421   -3.6694    0.0000 C   0  0  0  0  0  0  0  0  0  0  0  0
   -2.2628   -2.4541    0.0000 C   0  0  0  0  0  0  0  0  0  0  0  0
   -2.8756   -1.0850    0.0000 C   0  0  0  0  0  0  0  0  0  0  0  0
   -4.3676   -0.9311    0.0000 C   0  0  0  0  0  0  0  0  0  0  0  0
   -4.9804    0.4380    0.0000 C   0  0  0  0  0  0  0  0  0  0  0  0
   -4.1011    1.6532    0.0000 O   0  0  0  0  0  0  0  0  0  0  0  0
   -6.4725    0.5919    0.0000 N   0  0  0  0  0  0  0  0  0  0  0  0
   -7.0853    1.9610    0.0000 C   0  0  0  0  0  0  0  0  0  0  0  0
   -8.5774    2.1149    0.0000 C   0  0  0  0  0  0  0  0  0  0  0  0
   -9.4567    0.8996    0.0000 O   0  0  0  0  0  0  0  0  0  0  0  0
   -9.1901    3.4840    0.0000 O   0  0  0  0  0  0  0  0  0  0  0  0
   -0.7707   -2.6080    0.0000 C   0  0  0  0  0  0  0  0  0  0  0  0
   -0.0182   -3.9056    0.0000 C   0  0  0  0  0  0  0  0  0  0  0  0
    1.4484   -3.5909    0.0000 C   0  0  0  0  0  0  0  0  0  0  0  0
    1.6023   -2.0988    0.0000 C   0  0  0  0  0  0  0  0  0  0  0  0
    2.8141   -1.2147    0.0000 C   0  0  0  0  0  0  0  0  0  0  0  0
    4.1856   -1.8222    0.0000 C   0  0  0  0  0  0  0  0  0  0  0  0
    4.3453   -3.3136    0.0000 O   0  0  0  0  0  0  0  0  0  0  0  0
    5.3974   -0.9381    0.0000 C   0  0  0  0  0  0  0  0  0  0  0  0
    5.2377    0.5533    0.0000 C   0  0  0  0  0  0  0  0  0  0  0  0
    6.4495    1.4374    0.0000 C   0  0  0  0  0  0  0  0  0  0  0  0
    6.2898    2.9289    0.0000 C   0  0  0  0  0  0  0  0  0  0  0  0
    7.5016    3.8129    0.0000 O   0  0  0  0  0  0  0  0  0  0  0  0
    4.9183    3.5363    0.0000 C   0  0  0  0  0  0  0  0  0  0  0  0
    3.7065    2.6522    0.0000 C   0  0  0  0  0  0  0  0  0  0  0  0
    3.8662    1.1608    0.0000 C   0  0  0  0  0  0  0  0  0  0  0  0
    2.4947    1.7682    0.0000 C   0  0  0  0  0  0  0  0  0  0  0  0
    2.6544    0.2767    0.0000 C   0  0  0  0  0  0  0  0  0  0  0  0
    1.2829    0.8842    0.0000 C   0  0  0  0  0  0  0  0  0  0  0  0
    0.0711    0.0001    0.0000 C   0  0  0  0  0  0  0  0  0  0  0  0
    0.2308   -1.4914    0.0000 C   0  0  0  0  0  0  0  0  0  0  0  0
   -1.1967   -1.0306    0.0000 C   0  0  0  0  0  0  0  0  0  0  0  0
  2  1  1  6
  2  3  1  0
  3  4  1  0
  4  5  1  0
  5  6  2  0
  5  7  1  0
  7  8  1  0
  8  9  1  0
  9 10  2  0
  9 11  1  0
  2 12  1  0
 12 13  1  6
 13 14  1  0
 15 14  1  6
 15 16  1  0
 16 17  1  1
 17 18  1  1
 17 19  1  0
 20 19  1  1
 20 21  1  0
 21 22  1  0
 22 23  1  6
 22 24  1  0
 24 25  1  0
 25 26  1  0
 26 27  1  6
 26 28  1  0
 28 29  1  6
 29 30  1  0
 30 31  1  0
 31 32  1  6
 31 12  1  0
 31 15  1  0
 28 16  1  0
 26 20  1  0
M  END
>  <MS_ID>  (3594) 
MS3880

>  <SMILES>  (3594) 
C[C@H](CCC(=O)NCC(=O)O)[C@H]1CC[C@H]2[C@@H]3[C@H](O)C[C@@H]4C[C@@H](O)CC[C@]4(C)[C@H]3CC[C@]12C

>  <Structure_dimension>  (3594) 
2D

$$$$
MS3882
     RDKit          2D

 30 33  0  0  0  0  0  0  0  0999 V2000
   -5.1134   -2.2540    0.0000 C   0  0  0  0  0  0  0  0  0  0  0  0
   -3.9811   -1.2701    0.0000 C   0  0  0  0  0  0  0  0  0  0  0  0
   -4.2670    0.2024    0.0000 C   0  0  0  0  0  0  0  0  0  0  0  0
   -5.6852    0.6910    0.0000 C   0  0  0  0  0  0  0  0  0  0  0  0
   -5.9711    2.1635    0.0000 C   0  0  0  0  0  0  0  0  0  0  0  0
   -4.8388    3.1474    0.0000 O   0  0  0  0  0  0  0  0  0  0  0  0
   -7.3892    2.6522    0.0000 O   0  0  0  0  0  0  0  0  0  0  0  0
   -2.5629   -1.7588    0.0000 C   0  0  0  0  0  0  0  0  0  0  0  0
   -2.1247   -3.1933    0.0000 C   0  0  0  0  0  0  0  0  0  0  0  0
   -0.6249   -3.2198    0.0000 C   0  0  0  0  0  0  0  0  0  0  0  0
   -0.1362   -1.8017    0.0000 C   0  0  0  0  0  0  0  0  0  0  0  0
    1.2446   -1.2159    0.0000 C   0  0  0  0  0  0  0  0  0  0  0  0
    2.4424   -2.1188    0.0000 C   0  0  0  0  0  0  0  0  0  0  0  0
    2.2593   -3.6076    0.0000 O   0  0  0  0  0  0  0  0  0  0  0  0
    3.8233   -1.5330    0.0000 C   0  0  0  0  0  0  0  0  0  0  0  0
    5.0210   -2.4360    0.0000 O   0  0  0  0  0  0  0  0  0  0  0  0
    4.0064   -0.0442    0.0000 C   0  0  0  0  0  0  0  0  0  0  0  0
    5.3873    0.5416    0.0000 C   0  0  0  0  0  0  0  0  0  0  0  0
    5.5704    2.0303    0.0000 C   0  0  0  0  0  0  0  0  0  0  0  0
    6.9513    2.6161    0.0000 O   0  0  0  0  0  0  0  0  0  0  0  0
    4.3726    2.9333    0.0000 C   0  0  0  0  0  0  0  0  0  0  0  0
    2.9918    2.3475    0.0000 C   0  0  0  0  0  0  0  0  0  0  0  0
    2.8086    0.8587    0.0000 C   0  0  0  0  0  0  0  0  0  0  0  0
    1.6109    1.7617    0.0000 C   0  0  0  0  0  0  0  0  0  0  0  0
    1.4278    0.2729    0.0000 C   0  0  0  0  0  0  0  0  0  0  0  0
    0.2300    1.1759    0.0000 C   0  0  0  0  0  0  0  0  0  0  0  0
   -1.1509    0.5901    0.0000 C   0  0  0  0  0  0  0  0  0  0  0  0
   -2.3486    1.4931    0.0000 O   0  0  0  0  0  0  0  0  0  0  0  0
   -1.3340   -0.8987    0.0000 C   0  0  0  0  0  0  0  0  0  0  0  0
   -2.6196   -0.1258    0.0000 C   0  0  0  0  0  0  0  0  0  0  0  0
  2  1  1  6
  2  3  1  0
  3  4  1  0
  4  5  1  0
  5  6  2  0
  5  7  1  0
  2  8  1  0
  8  9  1  6
  9 10  1  0
 11 10  1  6
 11 12  1  0
 12 13  1  1
 13 14  1  6
 13 15  1  0
 15 16  1  6
 15 17  1  0
 17 18  1  1
 18 19  1  0
 19 20  1  6
 19 21  1  0
 21 22  1  0
 22 23  1  0
 23 24  1  6
 23 25  1  0
 25 26  1  6
 26 27  1  0
 27 28  1  6
 27 29  1  0
 29 30  1  6
 29  8  1  0
 29 11  1  0
 25 12  1  0
 23 17  1  0
M  END
>  <MS_ID>  (3595) 
MS3882

>  <SMILES>  (3595) 
C[C@H](CCC(=O)O)[C@H]1CC[C@H]2[C@@H]3[C@@H](O)[C@@H](O)[C@@H]4C[C@@H](O)CC[C@]4(C)[C@H]3C[C@@H](O)[C@]12C

>  <Structure_dimension>  (3595) 
2D

$$$$
MS3884
     RDKit          2D

 46 49  0  0  0  0  0  0  0  0999 V2000
   -3.4887    6.1543    0.0000 C   0  0  0  0  0  0  0  0  0  0  0  0
   -2.9487    4.7549    0.0000 C   0  0  0  0  0  0  0  0  0  0  0  0
   -1.4667    4.5229    0.0000 C   0  0  0  0  0  0  0  0  0  0  0  0
   -0.5248    5.6903    0.0000 C   0  0  0  0  0  0  0  0  0  0  0  0
    0.9571    5.4584    0.0000 C   0  0  0  0  0  0  0  0  0  0  0  0
    1.8990    6.6258    0.0000 O   0  0  0  0  0  0  0  0  0  0  0  0
    1.4972    4.0590    0.0000 S   0  0  0  0  0  0  0  0  0  0  0  0
    2.9791    3.8270    0.0000 C   0  0  0  0  0  0  0  0  0  0  0  0
    3.5192    2.4276    0.0000 C   0  0  0  0  0  0  0  0  0  0  0  0
    2.5773    1.2602    0.0000 N   0  0  0  0  0  0  0  0  0  0  0  0
    3.1174   -0.1392    0.0000 C   0  0  0  0  0  0  0  0  0  0  0  0
    4.5994   -0.3712    0.0000 O   0  0  0  0  0  0  0  0  0  0  0  0
    2.1755   -1.3067    0.0000 C   0  0  0  0  0  0  0  0  0  0  0  0
    2.7156   -2.7061    0.0000 C   0  0  0  0  0  0  0  0  0  0  0  0
    1.7737   -3.8735    0.0000 C   0  0  0  0  0  0  0  0  0  0  0  0
    0.2918   -3.6415    0.0000 N   0  0  0  0  0  0  0  0  0  0  0  0
    2.3138   -5.2729    0.0000 C   0  0  0  0  0  0  0  0  0  0  0  0
    3.7957   -5.5049    0.0000 O   0  0  0  0  0  0  0  0  0  0  0  0
    1.3719   -6.4403    0.0000 O   0  0  0  0  0  0  0  0  0  0  0  0
    5.0012    2.1956    0.0000 C   0  0  0  0  0  0  0  0  0  0  0  0
    5.9430    3.3630    0.0000 O   0  0  0  0  0  0  0  0  0  0  0  0
    5.5412    0.7962    0.0000 N   0  0  0  0  0  0  0  0  0  0  0  0
    7.0232    0.5642    0.0000 C   0  0  0  0  0  0  0  0  0  0  0  0
    7.5633   -0.8352    0.0000 C   0  0  0  0  0  0  0  0  0  0  0  0
    6.6214   -2.0026    0.0000 O   0  0  0  0  0  0  0  0  0  0  0  0
    9.0452   -1.0672    0.0000 O   0  0  0  0  0  0  0  0  0  0  0  0
   -3.8905    3.5875    0.0000 C   0  0  0  0  0  0  0  0  0  0  0  0
   -5.3886    3.6633    0.0000 C   0  0  0  0  0  0  0  0  0  0  0  0
   -5.9237    2.2620    0.0000 C   0  0  0  0  0  0  0  0  0  0  0  0
   -4.7562    1.3201    0.0000 C   0  0  0  0  0  0  0  0  0  0  0  0
   -4.6751   -0.1777    0.0000 C   0  0  0  0  0  0  0  0  0  0  0  0
   -5.9316   -0.9969    0.0000 C   0  0  0  0  0  0  0  0  0  0  0  0
   -5.8504   -2.4947    0.0000 C   0  0  0  0  0  0  0  0  0  0  0  0
   -4.5127   -3.1733    0.0000 C   0  0  0  0  0  0  0  0  0  0  0  0
   -4.4315   -4.6711    0.0000 C   0  0  0  0  0  0  0  0  0  0  0  0
   -3.0937   -5.3497    0.0000 C   0  0  0  0  0  0  0  0  0  0  0  0
   -3.0125   -6.8475    0.0000 O   0  0  0  0  0  0  0  0  0  0  0  0
   -1.8372   -4.5305    0.0000 C   0  0  0  0  0  0  0  0  0  0  0  0
   -1.9184   -3.0327    0.0000 C   0  0  0  0  0  0  0  0  0  0  0  0
   -3.2561   -2.3541    0.0000 C   0  0  0  0  0  0  0  0  0  0  0  0
   -1.9996   -1.5349    0.0000 C   0  0  0  0  0  0  0  0  0  0  0  0
   -3.3373   -0.8563    0.0000 C   0  0  0  0  0  0  0  0  0  0  0  0
   -2.0808   -0.0371    0.0000 C   0  0  0  0  0  0  0  0  0  0  0  0
   -2.1620    1.4607    0.0000 C   0  0  0  0  0  0  0  0  0  0  0  0
   -3.4997    2.1393    0.0000 C   0  0  0  0  0  0  0  0  0  0  0  0
   -2.3357    3.0854    0.0000 C   0  0  0  0  0  0  0  0  0  0  0  0
  2  1  1  6
  2  3  1  0
  3  4  1  0
  4  5  1  0
  5  6  2  0
  5  7  1  0
  7  8  1  0
  9  8  1  1
  9 10  1  0
 10 11  1  0
 11 12  2  0
 11 13  1  0
 13 14  1  0
 14 15  1  0
 15 16  1  1
 15 17  1  0
 17 18  2  0
 17 19  1  0
  9 20  1  0
 20 21  2  0
 20 22  1  0
 22 23  1  0
 23 24  1  0
 24 25  2  0
 24 26  1  0
  2 27  1  0
 27 28  1  6
 28 29  1  0
 30 29  1  6
 30 31  1  0
 31 32  1  1
 32 33  1  0
 34 33  1  1
 34 35  1  0
 35 36  1  0
 36 37  1  1
 36 38  1  0
 38 39  1  0
 39 40  1  0
 40 41  1  6
 40 42  1  0
 42 43  1  6
 43 44  1  0
 44 45  1  0
 45 46  1  6
 45 27  1  0
 45 30  1  0
 42 31  1  0
 40 34  1  0
M  END
>  <MS_ID>  (3596) 
MS3884

>  <SMILES>  (3596) 
C[C@H](CCC(=O)SC[C@H](NC(=O)CC[C@H](N)C(=O)O)C(=O)NCC(=O)O)[C@H]1CC[C@H]2[C@@H]3CC[C@@H]4C[C@H](O)CC[C@]4(C)[C@H]3CC[C@]12C

>  <Structure_dimension>  (3596) 
2D

$$$$
MS3889
     RDKit          2D

 31 34  0  0  0  0  0  0  0  0999 V2000
   -4.0382   -3.1592    0.0000 C   0  0  0  0  0  0  0  0  0  0  0  0
   -3.0416   -2.0381    0.0000 C   0  0  0  0  0  0  0  0  0  0  0  0
   -3.5143   -0.6145    0.0000 C   0  0  0  0  0  0  0  0  0  0  0  0
   -4.9835   -0.3121    0.0000 C   0  0  0  0  0  0  0  0  0  0  0  0
   -5.4561    1.1115    0.0000 C   0  0  0  0  0  0  0  0  0  0  0  0
   -4.4596    2.2326    0.0000 O   0  0  0  0  0  0  0  0  0  0  0  0
   -6.9253    1.4140    0.0000 N   0  0  0  0  0  0  0  0  0  0  0  0
   -7.3980    2.8376    0.0000 C   0  0  0  0  0  0  0  0  0  0  0  0
   -8.8672    3.1400    0.0000 N   0  0  0  0  0  0  0  0  0  0  0  0
   -1.5724   -2.3406    0.0000 C   0  0  0  0  0  0  0  0  0  0  0  0
   -0.9536   -3.7070    0.0000 C   0  0  0  0  0  0  0  0  0  0  0  0
    0.5372   -3.5406    0.0000 C   0  0  0  0  0  0  0  0  0  0  0  0
    0.8396   -2.0714    0.0000 C   0  0  0  0  0  0  0  0  0  0  0  0
    2.1338   -1.3131    0.0000 C   0  0  0  0  0  0  0  0  0  0  0  0
    3.4377   -2.0548    0.0000 C   0  0  0  0  0  0  0  0  0  0  0  0
    3.4473   -3.5547    0.0000 O   0  0  0  0  0  0  0  0  0  0  0  0
    4.7319   -1.2965    0.0000 C   0  0  0  0  0  0  0  0  0  0  0  0
    4.7223    0.2035    0.0000 C   0  0  0  0  0  0  0  0  0  0  0  0
    6.0165    0.9618    0.0000 C   0  0  0  0  0  0  0  0  0  0  0  0
    6.0069    2.4618    0.0000 C   0  0  0  0  0  0  0  0  0  0  0  0
    7.3011    3.2201    0.0000 O   0  0  0  0  0  0  0  0  0  0  0  0
    4.7030    3.2034    0.0000 C   0  0  0  0  0  0  0  0  0  0  0  0
    3.4088    2.4451    0.0000 C   0  0  0  0  0  0  0  0  0  0  0  0
    3.4184    0.9452    0.0000 C   0  0  0  0  0  0  0  0  0  0  0  0
    2.1146    1.6868    0.0000 C   0  0  0  0  0  0  0  0  0  0  0  0
    2.1242    0.1869    0.0000 C   0  0  0  0  0  0  0  0  0  0  0  0
    0.8204    0.9285    0.0000 C   0  0  0  0  0  0  0  0  0  0  0  0
   -0.4738    0.1702    0.0000 C   0  0  0  0  0  0  0  0  0  0  0  0
   -1.7776    0.9119    0.0000 O   0  0  0  0  0  0  0  0  0  0  0  0
   -0.4642   -1.3298    0.0000 C   0  0  0  0  0  0  0  0  0  0  0  0
   -1.8384   -0.7284    0.0000 C   0  0  0  0  0  0  0  0  0  0  0  0
  2  1  1  6
  2  3  1  0
  3  4  1  0
  4  5  1  0
  5  6  2  0
  5  7  1  0
  7  8  1  0
  8  9  1  0
  2 10  1  0
 10 11  1  6
 11 12  1  0
 13 12  1  6
 13 14  1  0
 14 15  1  1
 15 16  1  1
 15 17  1  0
 18 17  1  1
 18 19  1  0
 19 20  1  0
 20 21  1  1
 20 22  1  0
 22 23  1  0
 23 24  1  0
 24 25  1  6
 24 26  1  0
 26 27  1  6
 27 28  1  0
 28 29  1  1
 28 30  1  0
 30 31  1  6
 30 10  1  0
 30 13  1  0
 26 14  1  0
 24 18  1  0
M  END
>  <MS_ID>  (3597) 
MS3889

>  <SMILES>  (3597) 
C[C@H](CCC(=O)NCN)[C@H]1CC[C@H]2[C@@H]3[C@H](O)C[C@@H]4C[C@H](O)CC[C@]4(C)[C@H]3C[C@H](O)[C@]12C

>  <Structure_dimension>  (3597) 
2D

$$$$
MS3895
     RDKit          2D

 29 32  0  0  0  0  0  0  0  0999 V2000
   -5.2182   -2.1453    0.0000 C   0  0  0  0  0  0  0  0  0  0  0  0
   -4.0752   -1.1739    0.0000 C   0  0  0  0  0  0  0  0  0  0  0  0
   -4.3449    0.3016    0.0000 C   0  0  0  0  0  0  0  0  0  0  0  0
   -5.7577    0.8058    0.0000 C   0  0  0  0  0  0  0  0  0  0  0  0
   -6.0274    2.2814    0.0000 C   0  0  0  0  0  0  0  0  0  0  0  0
   -4.8843    3.2527    0.0000 O   0  0  0  0  0  0  0  0  0  0  0  0
   -7.4401    2.7856    0.0000 O   0  0  0  0  0  0  0  0  0  0  0  0
   -2.6625   -1.6782    0.0000 C   0  0  0  0  0  0  0  0  0  0  0  0
   -2.2400   -3.1174    0.0000 C   0  0  0  0  0  0  0  0  0  0  0  0
   -0.7407   -3.1604    0.0000 C   0  0  0  0  0  0  0  0  0  0  0  0
   -0.2364   -1.7477    0.0000 C   0  0  0  0  0  0  0  0  0  0  0  0
    1.1508   -1.1771    0.0000 C   0  0  0  0  0  0  0  0  0  0  0  0
    2.3386   -2.0932    0.0000 C   0  0  0  0  0  0  0  0  0  0  0  0
    2.1391   -3.5798    0.0000 O   0  0  0  0  0  0  0  0  0  0  0  0
    3.7258   -1.5226    0.0000 C   0  0  0  0  0  0  0  0  0  0  0  0
    4.9136   -2.4386    0.0000 O   0  0  0  0  0  0  0  0  0  0  0  0
    3.9253   -0.0359    0.0000 C   0  0  0  0  0  0  0  0  0  0  0  0
    5.3125    0.5347    0.0000 C   0  0  0  0  0  0  0  0  0  0  0  0
    5.5119    2.0214    0.0000 C   0  0  0  0  0  0  0  0  0  0  0  0
    6.8992    2.5920    0.0000 O   0  0  0  0  0  0  0  0  0  0  0  0
    4.3242    2.9375    0.0000 C   0  0  0  0  0  0  0  0  0  0  0  0
    2.9369    2.3669    0.0000 C   0  0  0  0  0  0  0  0  0  0  0  0
    2.7375    0.8802    0.0000 C   0  0  0  0  0  0  0  0  0  0  0  0
    1.5497    1.7963    0.0000 C   0  0  0  0  0  0  0  0  0  0  0  0
    1.3502    0.3096    0.0000 C   0  0  0  0  0  0  0  0  0  0  0  0
    0.1625    1.2257    0.0000 C   0  0  0  0  0  0  0  0  0  0  0  0
   -1.2248    0.6551    0.0000 C   0  0  0  0  0  0  0  0  0  0  0  0
   -1.4242   -0.8316    0.0000 C   0  0  0  0  0  0  0  0  0  0  0  0
   -2.7012   -0.0447    0.0000 C   0  0  0  0  0  0  0  0  0  0  0  0
  2  1  1  6
  2  3  1  0
  3  4  1  0
  4  5  1  0
  5  6  2  0
  5  7  1  0
  2  8  1  0
  8  9  1  6
  9 10  1  0
 11 10  1  6
 11 12  1  0
 12 13  1  1
 13 14  1  1
 13 15  1  0
 15 16  2  0
 15 17  1  0
 17 18  1  1
 18 19  1  0
 19 20  1  1
 19 21  1  0
 21 22  1  0
 22 23  1  0
 23 24  1  6
 23 25  1  0
 25 26  1  6
 26 27  1  0
 27 28  1  0
 28 29  1  6
 28  8  1  0
 28 11  1  0
 25 12  1  0
 23 17  1  0
M  END
>  <MS_ID>  (3598) 
MS3895

>  <SMILES>  (3598) 
C[C@H](CCC(=O)O)[C@H]1CC[C@H]2[C@@H]3[C@H](O)C(=O)[C@@H]4C[C@H](O)CC[C@]4(C)[C@H]3CC[C@]12C

>  <Structure_dimension>  (3598) 
2D

$$$$
MS3896
     RDKit          2D

 30 33  0  0  0  0  0  0  0  0999 V2000
    7.4162   -3.9351    0.0000 C   0  0  0  0  0  0  0  0  0  0  0  0
    7.1554   -2.4579    0.0000 O   0  0  0  0  0  0  0  0  0  0  0  0
    5.7458   -1.9452    0.0000 C   0  0  0  0  0  0  0  0  0  0  0  0
    4.5969   -2.9097    0.0000 O   0  0  0  0  0  0  0  0  0  0  0  0
    5.4849   -0.4681    0.0000 C   0  0  0  0  0  0  0  0  0  0  0  0
    4.0753    0.0446    0.0000 C   0  0  0  0  0  0  0  0  0  0  0  0
    3.8145    1.5218    0.0000 C   0  0  0  0  0  0  0  0  0  0  0  0
    4.9633    2.4862    0.0000 C   0  0  0  0  0  0  0  0  0  0  0  0
    2.4048    2.0345    0.0000 C   0  0  0  0  0  0  0  0  0  0  0  0
    1.9910    3.4763    0.0000 C   0  0  0  0  0  0  0  0  0  0  0  0
    0.4919    3.5283    0.0000 C   0  0  0  0  0  0  0  0  0  0  0  0
   -0.0208    2.1186    0.0000 C   0  0  0  0  0  0  0  0  0  0  0  0
   -1.4114    1.5564    0.0000 C   0  0  0  0  0  0  0  0  0  0  0  0
   -2.5936    2.4796    0.0000 C   0  0  0  0  0  0  0  0  0  0  0  0
   -2.3852    3.9651    0.0000 O   0  0  0  0  0  0  0  0  0  0  0  0
   -3.9843    1.9174    0.0000 C   0  0  0  0  0  0  0  0  0  0  0  0
   -4.1927    0.4320    0.0000 C   0  0  0  0  0  0  0  0  0  0  0  0
   -5.5834   -0.1303    0.0000 C   0  0  0  0  0  0  0  0  0  0  0  0
   -5.7918   -1.6157    0.0000 C   0  0  0  0  0  0  0  0  0  0  0  0
   -7.1824   -2.1780    0.0000 O   0  0  0  0  0  0  0  0  0  0  0  0
   -4.6096   -2.5389    0.0000 C   0  0  0  0  0  0  0  0  0  0  0  0
   -4.8180   -4.0244    0.0000 O   0  0  0  0  0  0  0  0  0  0  0  0
   -3.2189   -1.9767    0.0000 C   0  0  0  0  0  0  0  0  0  0  0  0
   -3.0105   -0.4913    0.0000 C   0  0  0  0  0  0  0  0  0  0  0  0
   -1.8283   -1.4145    0.0000 C   0  0  0  0  0  0  0  0  0  0  0  0
   -1.6198    0.0710    0.0000 C   0  0  0  0  0  0  0  0  0  0  0  0
   -0.4376   -0.8523    0.0000 C   0  0  0  0  0  0  0  0  0  0  0  0
    0.9530   -0.2900    0.0000 C   0  0  0  0  0  0  0  0  0  0  0  0
    1.1615    1.1954    0.0000 C   0  0  0  0  0  0  0  0  0  0  0  0
    2.4337    0.4008    0.0000 C   0  0  0  0  0  0  0  0  0  0  0  0
  1  2  1  0
  2  3  1  0
  3  4  2  0
  3  5  1  0
  5  6  1  0
  6  7  1  0
  7  8  1  6
  7  9  1  0
  9 10  1  6
 10 11  1  0
 12 11  1  6
 12 13  1  0
 13 14  1  1
 14 15  1  1
 14 16  1  0
 17 16  1  1
 17 18  1  0
 18 19  1  0
 19 20  1  1
 19 21  1  0
 21 22  1  6
 21 23  1  0
 23 24  1  0
 24 25  1  6
 24 26  1  0
 26 27  1  6
 27 28  1  0
 28 29  1  0
 29 30  1  6
 29  9  1  0
 29 12  1  0
 26 13  1  0
 24 17  1  0
M  END
>  <MS_ID>  (3599) 
MS3896

>  <SMILES>  (3599) 
COC(=O)CC[C@@H](C)[C@H]1CC[C@H]2[C@@H]3[C@H](O)C[C@@H]4C[C@H](O)[C@@H](O)C[C@]4(C)[C@H]3CC[C@]12C

>  <Structure_dimension>  (3599) 
2D

$$$$
MS3897
     RDKit          2D

 33 36  0  0  0  0  0  0  0  0999 V2000
   -5.2627   -2.6046    0.0000 C   0  0  0  0  0  0  0  0  0  0  0  0
   -4.3219   -1.4363    0.0000 C   0  0  0  0  0  0  0  0  0  0  0  0
   -4.8633   -0.0374    0.0000 C   0  0  0  0  0  0  0  0  0  0  0  0
   -6.3454    0.1933    0.0000 C   0  0  0  0  0  0  0  0  0  0  0  0
   -6.8868    1.5922    0.0000 C   0  0  0  0  0  0  0  0  0  0  0  0
   -5.9460    2.7604    0.0000 O   0  0  0  0  0  0  0  0  0  0  0  0
   -8.3689    1.8228    0.0000 O   0  0  0  0  0  0  0  0  0  0  0  0
   -2.8398   -1.6669    0.0000 C   0  0  0  0  0  0  0  0  0  0  0  0
   -2.1552   -3.0016    0.0000 C   0  0  0  0  0  0  0  0  0  0  0  0
   -0.6743   -2.7629    0.0000 C   0  0  0  0  0  0  0  0  0  0  0  0
   -0.4436   -1.2807    0.0000 C   0  0  0  0  0  0  0  0  0  0  0  0
    0.8122   -0.4604    0.0000 C   0  0  0  0  0  0  0  0  0  0  0  0
    2.1505   -1.1377    0.0000 C   0  0  0  0  0  0  0  0  0  0  0  0
    2.2331   -2.6355    0.0000 O   0  0  0  0  0  0  0  0  0  0  0  0
    3.5714   -3.3128    0.0000 S   0  0  0  0  0  0  0  0  0  0  0  0
    4.2488   -1.9745    0.0000 O   0  0  0  0  0  0  0  0  0  0  0  0
    2.8941   -4.6512    0.0000 O   0  0  0  0  0  0  0  0  0  0  0  0
    4.9098   -3.9902    0.0000 O   0  0  0  0  0  0  0  0  0  0  0  0
    3.4063   -0.3174    0.0000 C   0  0  0  0  0  0  0  0  0  0  0  0
    4.7446   -0.9947    0.0000 O   0  0  0  0  0  0  0  0  0  0  0  0
    3.3237    1.1804    0.0000 C   0  0  0  0  0  0  0  0  0  0  0  0
    4.5795    2.0007    0.0000 C   0  0  0  0  0  0  0  0  0  0  0  0
    4.4969    3.4985    0.0000 C   0  0  0  0  0  0  0  0  0  0  0  0
    5.7527    4.3188    0.0000 O   0  0  0  0  0  0  0  0  0  0  0  0
    3.1586    4.1758    0.0000 C   0  0  0  0  0  0  0  0  0  0  0  0
    1.9028    3.3554    0.0000 C   0  0  0  0  0  0  0  0  0  0  0  0
    1.9854    1.8577    0.0000 C   0  0  0  0  0  0  0  0  0  0  0  0
    0.6470    2.5351    0.0000 C   0  0  0  0  0  0  0  0  0  0  0  0
    0.7296    1.0374    0.0000 C   0  0  0  0  0  0  0  0  0  0  0  0
   -0.6088    1.7147    0.0000 C   0  0  0  0  0  0  0  0  0  0  0  0
   -1.8645    0.8943    0.0000 C   0  0  0  0  0  0  0  0  0  0  0  0
   -1.7820   -0.6034    0.0000 C   0  0  0  0  0  0  0  0  0  0  0  0
   -3.1838   -0.0696    0.0000 C   0  0  0  0  0  0  0  0  0  0  0  0
  2  1  1  6
  2  3  1  0
  3  4  1  0
  4  5  1  0
  5  6  2  0
  5  7  1  0
  2  8  1  0
  8  9  1  6
  9 10  1  0
 11 10  1  6
 11 12  1  0
 12 13  1  1
 13 14  1  1
 14 15  1  0
 15 16  2  0
 15 17  2  0
 15 18  1  0
 13 19  1  0
 19 20  1  6
 19 21  1  0
 21 22  1  1
 22 23  1  0
 23 24  1  1
 23 25  1  0
 25 26  1  0
 26 27  1  0
 27 28  1  6
 27 29  1  0
 29 30  1  6
 30 31  1  0
 31 32  1  0
 32 33  1  6
 32  8  1  0
 32 11  1  0
 29 12  1  0
 27 21  1  0
M  END
>  <MS_ID>  (3600) 
MS3897

>  <SMILES>  (3600) 
C[C@H](CCC(=O)O)[C@H]1CC[C@H]2[C@@H]3[C@H](OS(=O)(=O)O)[C@@H](O)[C@@H]4C[C@H](O)CC[C@]4(C)[C@H]3CC[C@]12C

>  <Structure_dimension>  (3600) 
2D

$$$$
MS3899
     RDKit          2D

 28 31  0  0  0  0  0  0  0  0999 V2000
   -4.8304   -2.3664    0.0000 C   0  0  0  0  0  0  0  0  0  0  0  0
   -3.7519   -1.3239    0.0000 C   0  0  0  0  0  0  0  0  0  0  0  0
   -4.1153    0.1314    0.0000 C   0  0  0  0  0  0  0  0  0  0  0  0
   -5.5574    0.5442    0.0000 C   0  0  0  0  0  0  0  0  0  0  0  0
   -5.9209    1.9995    0.0000 C   0  0  0  0  0  0  0  0  0  0  0  0
   -4.8423    3.0419    0.0000 O   0  0  0  0  0  0  0  0  0  0  0  0
   -7.3630    2.4124    0.0000 O   0  0  0  0  0  0  0  0  0  0  0  0
   -2.3098   -1.7368    0.0000 C   0  0  0  0  0  0  0  0  0  0  0  0
   -1.7962   -3.1461    0.0000 C   0  0  0  0  0  0  0  0  0  0  0  0
   -0.2971   -3.0931    0.0000 C   0  0  0  0  0  0  0  0  0  0  0  0
    0.1157   -1.6511    0.0000 C   0  0  0  0  0  0  0  0  0  0  0  0
    1.4637   -0.9930    0.0000 C   0  0  0  0  0  0  0  0  0  0  0  0
    2.7076   -1.8312    0.0000 C   0  0  0  0  0  0  0  0  0  0  0  0
    2.6035   -3.3276    0.0000 O   0  0  0  0  0  0  0  0  0  0  0  0
    4.0555   -1.1731    0.0000 C   0  0  0  0  0  0  0  0  0  0  0  0
    5.2994   -2.0114    0.0000 O   0  0  0  0  0  0  0  0  0  0  0  0
    4.1595    0.3233    0.0000 C   0  0  0  0  0  0  0  0  0  0  0  0
    5.5074    0.9814    0.0000 C   0  0  0  0  0  0  0  0  0  0  0  0
    5.6114    2.4778    0.0000 C   0  0  0  0  0  0  0  0  0  0  0  0
    4.3675    3.3160    0.0000 C   0  0  0  0  0  0  0  0  0  0  0  0
    3.0196    2.6579    0.0000 C   0  0  0  0  0  0  0  0  0  0  0  0
    2.9156    1.1615    0.0000 C   0  0  0  0  0  0  0  0  0  0  0  0
    1.6717    1.9998    0.0000 C   0  0  0  0  0  0  0  0  0  0  0  0
    1.5677    0.5034    0.0000 C   0  0  0  0  0  0  0  0  0  0  0  0
    0.3238    1.3417    0.0000 C   0  0  0  0  0  0  0  0  0  0  0  0
   -1.0242    0.6836    0.0000 C   0  0  0  0  0  0  0  0  0  0  0  0
   -1.1282   -0.8128    0.0000 C   0  0  0  0  0  0  0  0  0  0  0  0
   -2.4529   -0.1092    0.0000 C   0  0  0  0  0  0  0  0  0  0  0  0
  2  1  1  6
  2  3  1  0
  3  4  1  0
  4  5  1  0
  5  6  2  0
  5  7  1  0
  2  8  1  0
  8  9  1  6
  9 10  1  0
 11 10  1  6
 11 12  1  0
 12 13  1  1
 13 14  1  6
 13 15  1  0
 15 16  1  6
 15 17  1  0
 17 18  1  1
 18 19  1  0
 19 20  1  0
 20 21  1  0
 21 22  1  0
 22 23  1  6
 22 24  1  0
 24 25  1  6
 25 26  1  0
 26 27  1  0
 27 28  1  6
 27  8  1  0
 27 11  1  0
 24 12  1  0
 22 17  1  0
M  END
>  <MS_ID>  (3601) 
MS3899

>  <SMILES>  (3601) 
C[C@H](CCC(=O)O)[C@H]1CC[C@H]2[C@@H]3[C@@H](O)[C@@H](O)[C@@H]4CCCC[C@]4(C)[C@H]3CC[C@]12C

>  <Structure_dimension>  (3601) 
2D

$$$$
MS3900
     RDKit          2D

 30 33  0  0  0  0  0  0  0  0999 V2000
   -4.5685   -2.6908    0.0000 C   0  0  0  0  0  0  0  0  0  0  0  0
   -3.4838   -1.6548    0.0000 C   0  0  0  0  0  0  0  0  0  0  0  0
   -3.8388   -0.1974    0.0000 C   0  0  0  0  0  0  0  0  0  0  0  0
   -5.2784    0.2240    0.0000 C   0  0  0  0  0  0  0  0  0  0  0  0
   -5.6333    1.6814    0.0000 C   0  0  0  0  0  0  0  0  0  0  0  0
   -4.5486    2.7174    0.0000 O   0  0  0  0  0  0  0  0  0  0  0  0
   -7.0729    2.1027    0.0000 N   0  0  0  0  0  0  0  0  0  0  0  0
   -7.4279    3.5601    0.0000 N   0  0  0  0  0  0  0  0  0  0  0  0
   -2.0442   -2.0761    0.0000 C   0  0  0  0  0  0  0  0  0  0  0  0
   -1.5389   -3.4884    0.0000 C   0  0  0  0  0  0  0  0  0  0  0  0
   -0.0395   -3.4442    0.0000 C   0  0  0  0  0  0  0  0  0  0  0  0
    0.3818   -2.0046    0.0000 C   0  0  0  0  0  0  0  0  0  0  0  0
    1.7336   -1.3544    0.0000 C   0  0  0  0  0  0  0  0  0  0  0  0
    2.9725   -2.1999    0.0000 C   0  0  0  0  0  0  0  0  0  0  0  0
    2.8597   -3.6957    0.0000 O   0  0  0  0  0  0  0  0  0  0  0  0
    4.3243   -1.5497    0.0000 C   0  0  0  0  0  0  0  0  0  0  0  0
    4.4371   -0.0540    0.0000 C   0  0  0  0  0  0  0  0  0  0  0  0
    5.7888    0.5962    0.0000 C   0  0  0  0  0  0  0  0  0  0  0  0
    5.9016    2.0920    0.0000 C   0  0  0  0  0  0  0  0  0  0  0  0
    7.2534    2.7422    0.0000 O   0  0  0  0  0  0  0  0  0  0  0  0
    4.6627    2.9375    0.0000 C   0  0  0  0  0  0  0  0  0  0  0  0
    3.3109    2.2873    0.0000 C   0  0  0  0  0  0  0  0  0  0  0  0
    3.1981    0.7916    0.0000 C   0  0  0  0  0  0  0  0  0  0  0  0
    1.9591    1.6371    0.0000 C   0  0  0  0  0  0  0  0  0  0  0  0
    1.8464    0.1414    0.0000 C   0  0  0  0  0  0  0  0  0  0  0  0
    0.6074    0.9869    0.0000 C   0  0  0  0  0  0  0  0  0  0  0  0
   -0.7444    0.3367    0.0000 C   0  0  0  0  0  0  0  0  0  0  0  0
   -1.9833    1.1823    0.0000 O   0  0  0  0  0  0  0  0  0  0  0  0
   -0.8572   -1.1590    0.0000 C   0  0  0  0  0  0  0  0  0  0  0  0
   -2.1777   -0.4476    0.0000 C   0  0  0  0  0  0  0  0  0  0  0  0
  2  1  1  6
  2  3  1  0
  3  4  1  0
  4  5  1  0
  5  6  2  0
  5  7  1  0
  7  8  1  0
  2  9  1  0
  9 10  1  6
 10 11  1  0
 12 11  1  6
 12 13  1  0
 13 14  1  1
 14 15  1  1
 14 16  1  0
 17 16  1  6
 17 18  1  0
 18 19  1  0
 19 20  1  6
 19 21  1  0
 21 22  1  0
 22 23  1  0
 23 24  1  6
 23 25  1  0
 25 26  1  6
 26 27  1  0
 27 28  1  1
 27 29  1  0
 29 30  1  6
 29  9  1  0
 29 12  1  0
 25 13  1  0
 23 17  1  0
M  END
>  <MS_ID>  (3602) 
MS3900

>  <SMILES>  (3602) 
C[C@H](CCC(=O)NN)[C@H]1CC[C@H]2[C@@H]3[C@H](O)C[C@H]4C[C@@H](O)CC[C@]4(C)[C@H]3C[C@H](O)[C@]12C

>  <Structure_dimension>  (3602) 
2D

$$$$
MS3903
     RDKit          2D

 34 37  0  0  0  0  0  0  0  0999 V2000
   -1.9628   -4.3460    0.0000 C   0  0  0  0  0  0  0  0  0  0  0  0
   -1.2213   -3.0421    0.0000 C   0  0  0  0  0  0  0  0  0  0  0  0
   -1.9798   -1.7480    0.0000 C   0  0  0  0  0  0  0  0  0  0  0  0
   -3.4798   -1.7579    0.0000 C   0  0  0  0  0  0  0  0  0  0  0  0
   -4.2383   -0.4638    0.0000 C   0  0  0  0  0  0  0  0  0  0  0  0
   -3.4968    0.8402    0.0000 O   0  0  0  0  0  0  0  0  0  0  0  0
   -5.7383   -0.4736    0.0000 N   0  0  0  0  0  0  0  0  0  0  0  0
   -6.4968    0.8205    0.0000 C   0  0  0  0  0  0  0  0  0  0  0  0
   -7.9967    0.8106    0.0000 C   0  0  0  0  0  0  0  0  0  0  0  0
   -8.7552    2.1047    0.0000 S   0  0  0  0  0  0  0  0  0  0  0  0
  -10.0493    1.3462    0.0000 O   0  0  0  0  0  0  0  0  0  0  0  0
   -7.4611    2.8632    0.0000 O   0  0  0  0  0  0  0  0  0  0  0  0
   -9.5137    3.3988    0.0000 O   0  0  0  0  0  0  0  0  0  0  0  0
    0.2786   -3.0323    0.0000 C   0  0  0  0  0  0  0  0  0  0  0  0
    1.1683   -4.2400    0.0000 C   0  0  0  0  0  0  0  0  0  0  0  0
    2.5918   -3.7671    0.0000 C   0  0  0  0  0  0  0  0  0  0  0  0
    2.5819   -2.2672    0.0000 C   0  0  0  0  0  0  0  0  0  0  0  0
    3.6901   -1.2562    0.0000 C   0  0  0  0  0  0  0  0  0  0  0  0
    5.1196   -1.7103    0.0000 C   0  0  0  0  0  0  0  0  0  0  0  0
    6.2278   -0.6993    0.0000 C   0  0  0  0  0  0  0  0  0  0  0  0
    5.9063    0.7658    0.0000 C   0  0  0  0  0  0  0  0  0  0  0  0
    7.0144    1.7768    0.0000 C   0  0  0  0  0  0  0  0  0  0  0  0
    6.6929    3.2419    0.0000 C   0  0  0  0  0  0  0  0  0  0  0  0
    7.8010    4.2529    0.0000 O   0  0  0  0  0  0  0  0  0  0  0  0
    5.2633    3.6961    0.0000 C   0  0  0  0  0  0  0  0  0  0  0  0
    4.1552    2.6851    0.0000 C   0  0  0  0  0  0  0  0  0  0  0  0
    4.4767    1.2200    0.0000 C   0  0  0  0  0  0  0  0  0  0  0  0
    3.0471    1.6741    0.0000 C   0  0  0  0  0  0  0  0  0  0  0  0
    3.3686    0.2090    0.0000 C   0  0  0  0  0  0  0  0  0  0  0  0
    1.9390    0.6631    0.0000 C   0  0  0  0  0  0  0  0  0  0  0  0
    0.8309   -0.3479    0.0000 C   0  0  0  0  0  0  0  0  0  0  0  0
   -0.5987    0.1063    0.0000 O   0  0  0  0  0  0  0  0  0  0  0  0
    1.1523   -1.8130    0.0000 C   0  0  0  0  0  0  0  0  0  0  0  0
   -0.3169   -1.5108    0.0000 C   0  0  0  0  0  0  0  0  0  0  0  0
  2  1  1  6
  2  3  1  0
  3  4  1  0
  4  5  1  0
  5  6  2  0
  5  7  1  0
  7  8  1  0
  8  9  1  0
  9 10  1  0
 10 11  2  0
 10 12  2  0
 10 13  1  0
  2 14  1  0
 14 15  1  6
 15 16  1  0
 17 16  1  6
 17 18  1  0
 18 19  1  1
 19 20  1  0
 21 20  1  6
 21 22  1  0
 22 23  1  0
 23 24  1  1
 23 25  1  0
 25 26  1  0
 26 27  1  0
 27 28  1  6
 27 29  1  0
 29 30  1  6
 30 31  1  0
 31 32  1  1
 31 33  1  0
 33 34  1  6
 33 14  1  0
 33 17  1  0
 29 18  1  0
 27 21  1  0
M  END
>  <MS_ID>  (3603) 
MS3903

>  <SMILES>  (3603) 
C[C@H](CCC(=O)NCCS(=O)(=O)O)[C@H]1CC[C@H]2[C@@H]3CC[C@H]4C[C@H](O)CC[C@]4(C)[C@H]3C[C@H](O)[C@]12C

>  <Structure_dimension>  (3603) 
2D

$$$$
MS3905
     RDKit          2D

 38 41  0  0  0  0  0  0  0  0999 V2000
   -1.4317   -4.5102    0.0000 C   0  0  0  0  0  0  0  0  0  0  0  0
   -0.7853   -3.1566    0.0000 C   0  0  0  0  0  0  0  0  0  0  0  0
   -1.6344   -1.9200    0.0000 C   0  0  0  0  0  0  0  0  0  0  0  0
   -3.1298   -2.0371    0.0000 C   0  0  0  0  0  0  0  0  0  0  0  0
   -3.9789   -0.8005    0.0000 C   0  0  0  0  0  0  0  0  0  0  0  0
   -3.3326    0.5531    0.0000 O   0  0  0  0  0  0  0  0  0  0  0  0
   -5.4743   -0.9176    0.0000 N   0  0  0  0  0  0  0  0  0  0  0  0
   -6.3234    0.3190    0.0000 C   0  0  0  0  0  0  0  0  0  0  0  0
   -7.8188    0.2020    0.0000 C   0  0  0  0  0  0  0  0  0  0  0  0
   -8.6679    1.4385    0.0000 C   0  0  0  0  0  0  0  0  0  0  0  0
  -10.1634    1.3215    0.0000 C   0  0  0  0  0  0  0  0  0  0  0  0
  -10.8097   -0.0321    0.0000 O   0  0  0  0  0  0  0  0  0  0  0  0
  -11.0124    2.5580    0.0000 O   0  0  0  0  0  0  0  0  0  0  0  0
   -5.6771    1.6726    0.0000 C   0  0  0  0  0  0  0  0  0  0  0  0
   -4.1816    1.7897    0.0000 O   0  0  0  0  0  0  0  0  0  0  0  0
   -6.5262    2.9092    0.0000 O   0  0  0  0  0  0  0  0  0  0  0  0
    0.7101   -3.0395    0.0000 C   0  0  0  0  0  0  0  0  0  0  0  0
    1.6838   -4.1805    0.0000 C   0  0  0  0  0  0  0  0  0  0  0  0
    3.0698   -3.6071    0.0000 C   0  0  0  0  0  0  0  0  0  0  0  0
    2.9528   -2.1117    0.0000 C   0  0  0  0  0  0  0  0  0  0  0  0
    3.9858   -1.0241    0.0000 C   0  0  0  0  0  0  0  0  0  0  0  0
    5.4442   -1.3749    0.0000 C   0  0  0  0  0  0  0  0  0  0  0  0
    5.8696   -2.8133    0.0000 O   0  0  0  0  0  0  0  0  0  0  0  0
    6.4772   -0.2872    0.0000 C   0  0  0  0  0  0  0  0  0  0  0  0
    7.9356   -0.6380    0.0000 O   0  0  0  0  0  0  0  0  0  0  0  0
    6.0518    1.1512    0.0000 C   0  0  0  0  0  0  0  0  0  0  0  0
    7.0848    2.2388    0.0000 C   0  0  0  0  0  0  0  0  0  0  0  0
    6.6594    3.6772    0.0000 C   0  0  0  0  0  0  0  0  0  0  0  0
    7.6924    4.7648    0.0000 O   0  0  0  0  0  0  0  0  0  0  0  0
    5.2010    4.0280    0.0000 C   0  0  0  0  0  0  0  0  0  0  0  0
    4.1680    2.9404    0.0000 C   0  0  0  0  0  0  0  0  0  0  0  0
    4.5934    1.5020    0.0000 C   0  0  0  0  0  0  0  0  0  0  0  0
    3.1350    1.8528    0.0000 C   0  0  0  0  0  0  0  0  0  0  0  0
    3.5604    0.4144    0.0000 C   0  0  0  0  0  0  0  0  0  0  0  0
    2.1020    0.7651    0.0000 C   0  0  0  0  0  0  0  0  0  0  0  0
    1.0690   -0.3225    0.0000 C   0  0  0  0  0  0  0  0  0  0  0  0
    1.4944   -1.7609    0.0000 C   0  0  0  0  0  0  0  0  0  0  0  0
    0.0073   -1.5645    0.0000 C   0  0  0  0  0  0  0  0  0  0  0  0
  2  1  1  6
  2  3  1  0
  3  4  1  0
  4  5  1  0
  5  6  2  0
  5  7  1  0
  7  8  1  0
  8  9  1  1
  9 10  1  0
 10 11  1  0
 11 12  2  0
 11 13  1  0
  8 14  1  0
 14 15  2  0
 14 16  1  0
  2 17  1  0
 17 18  1  6
 18 19  1  0
 20 19  1  6
 20 21  1  0
 21 22  1  1
 22 23  1  1
 22 24  1  0
 24 25  1  6
 24 26  1  0
 26 27  1  1
 27 28  1  0
 28 29  1  1
 28 30  1  0
 30 31  1  0
 31 32  1  0
 32 33  1  6
 32 34  1  0
 34 35  1  6
 35 36  1  0
 36 37  1  0
 37 38  1  6
 37 17  1  0
 37 20  1  0
 34 21  1  0
 32 26  1  0
M  END
>  <MS_ID>  (3604) 
MS3905

>  <SMILES>  (3604) 
C[C@H](CCC(=O)N[C@@H](CCC(=O)O)C(=O)O)[C@H]1CC[C@H]2[C@@H]3[C@H](O)[C@@H](O)[C@@H]4C[C@H](O)CC[C@]4(C)[C@H]3CC[C@]12C

>  <Structure_dimension>  (3604) 
2D

$$$$
MS3907
     RDKit          2D

 29 32  0  0  0  0  0  0  0  0999 V2000
   -5.0001   -2.1340    0.0000 C   0  0  0  0  0  0  0  0  0  0  0  0
   -3.8304   -1.1951    0.0000 C   0  0  0  0  0  0  0  0  0  0  0  0
   -4.0586    0.2874    0.0000 C   0  0  0  0  0  0  0  0  0  0  0  0
   -2.8889    1.2264    0.0000 O   0  0  0  0  0  0  0  0  0  0  0  0
   -5.4567    0.8310    0.0000 C   0  0  0  0  0  0  0  0  0  0  0  0
   -5.6849    2.3135    0.0000 C   0  0  0  0  0  0  0  0  0  0  0  0
   -4.5152    3.2525    0.0000 O   0  0  0  0  0  0  0  0  0  0  0  0
   -7.0830    2.8571    0.0000 O   0  0  0  0  0  0  0  0  0  0  0  0
   -2.4323   -1.7387    0.0000 C   0  0  0  0  0  0  0  0  0  0  0  0
   -2.0503   -3.1892    0.0000 C   0  0  0  0  0  0  0  0  0  0  0  0
   -0.5528   -3.2742    0.0000 C   0  0  0  0  0  0  0  0  0  0  0  0
   -0.0092   -1.8761    0.0000 C   0  0  0  0  0  0  0  0  0  0  0  0
    1.3935   -1.3446    0.0000 C   0  0  0  0  0  0  0  0  0  0  0  0
    2.5551   -2.2936    0.0000 C   0  0  0  0  0  0  0  0  0  0  0  0
    2.3141   -3.7741    0.0000 O   0  0  0  0  0  0  0  0  0  0  0  0
    3.9578   -1.7621    0.0000 C   0  0  0  0  0  0  0  0  0  0  0  0
    4.1989   -0.2816    0.0000 C   0  0  0  0  0  0  0  0  0  0  0  0
    5.6015    0.2499    0.0000 C   0  0  0  0  0  0  0  0  0  0  0  0
    5.8426    1.7304    0.0000 C   0  0  0  0  0  0  0  0  0  0  0  0
    7.2452    2.2619    0.0000 O   0  0  0  0  0  0  0  0  0  0  0  0
    4.6809    2.6794    0.0000 C   0  0  0  0  0  0  0  0  0  0  0  0
    3.2782    2.1479    0.0000 C   0  0  0  0  0  0  0  0  0  0  0  0
    3.0372    0.6674    0.0000 C   0  0  0  0  0  0  0  0  0  0  0  0
    1.8756    1.6164    0.0000 C   0  0  0  0  0  0  0  0  0  0  0  0
    1.6345    0.1359    0.0000 C   0  0  0  0  0  0  0  0  0  0  0  0
    0.4729    1.0849    0.0000 C   0  0  0  0  0  0  0  0  0  0  0  0
   -0.9298    0.5534    0.0000 C   0  0  0  0  0  0  0  0  0  0  0  0
   -1.1708   -0.9271    0.0000 C   0  0  0  0  0  0  0  0  0  0  0  0
   -2.4253   -0.1048    0.0000 C   0  0  0  0  0  0  0  0  0  0  0  0
  2  1  1  6
  2  3  1  0
  3  4  1  1
  3  5  1  0
  5  6  1  0
  6  7  2  0
  6  8  1  0
  2  9  1  0
  9 10  1  6
 10 11  1  0
 12 11  1  6
 12 13  1  0
 13 14  1  1
 14 15  1  1
 14 16  1  0
 17 16  1  1
 17 18  1  0
 18 19  1  0
 19 20  1  1
 19 21  1  0
 21 22  1  0
 22 23  1  0
 23 24  1  6
 23 25  1  0
 25 26  1  6
 26 27  1  0
 27 28  1  0
 28 29  1  6
 28  9  1  0
 28 12  1  0
 25 13  1  0
 23 17  1  0
M  END
>  <MS_ID>  (3605) 
MS3907

>  <SMILES>  (3605) 
C[C@H]([C@H](O)CC(=O)O)[C@H]1CC[C@H]2[C@@H]3[C@H](O)C[C@@H]4C[C@H](O)CC[C@]4(C)[C@H]3CC[C@]12C

>  <Structure_dimension>  (3605) 
2D

$$$$
MS3908
     RDKit          2D

 39 42  0  0  0  0  0  0  0  0999 V2000
  -16.2306    2.1855    0.0000 C   0  0  0  0  0  0  0  0  0  0  0  0
  -14.7642    2.5013    0.0000 C   0  0  0  0  0  0  0  0  0  0  0  0
  -13.7575    1.3892    0.0000 C   0  0  0  0  0  0  0  0  0  0  0  0
  -12.2912    1.7050    0.0000 C   0  0  0  0  0  0  0  0  0  0  0  0
  -11.2845    0.5930    0.0000 C   0  0  0  0  0  0  0  0  0  0  0  0
   -9.8181    0.9088    0.0000 C   0  0  0  0  0  0  0  0  0  0  0  0
   -8.8114   -0.2033    0.0000 C   0  0  0  0  0  0  0  0  0  0  0  0
   -7.3451    0.1125    0.0000 C   0  0  0  0  0  0  0  0  0  0  0  0
   -6.3384   -0.9995    0.0000 C   0  0  0  0  0  0  0  0  0  0  0  0
   -4.8720   -0.6837    0.0000 C   0  0  0  0  0  0  0  0  0  0  0  0
   -3.8653   -1.7958    0.0000 O   0  0  0  0  0  0  0  0  0  0  0  0
   -2.3990   -1.4800    0.0000 C   0  0  0  0  0  0  0  0  0  0  0  0
   -1.9392   -0.0522    0.0000 O   0  0  0  0  0  0  0  0  0  0  0  0
   -1.3923   -2.5920    0.0000 C   0  0  0  0  0  0  0  0  0  0  0  0
    0.0741   -2.2762    0.0000 C   0  0  0  0  0  0  0  0  0  0  0  0
    1.0808   -3.3883    0.0000 C   0  0  0  0  0  0  0  0  0  0  0  0
    0.6211   -4.8161    0.0000 C   0  0  0  0  0  0  0  0  0  0  0  0
    2.5471   -3.0725    0.0000 C   0  0  0  0  0  0  0  0  0  0  0  0
    3.6645   -4.0732    0.0000 C   0  0  0  0  0  0  0  0  0  0  0  0
    4.9616   -3.3197    0.0000 C   0  0  0  0  0  0  0  0  0  0  0  0
    4.6458   -1.8533    0.0000 C   0  0  0  0  0  0  0  0  0  0  0  0
    5.5242   -0.6375    0.0000 C   0  0  0  0  0  0  0  0  0  0  0  0
    7.0164   -0.7903    0.0000 C   0  0  0  0  0  0  0  0  0  0  0  0
    7.6302   -2.1590    0.0000 O   0  0  0  0  0  0  0  0  0  0  0  0
    7.8949    0.4256    0.0000 C   0  0  0  0  0  0  0  0  0  0  0  0
    7.2811    1.7943    0.0000 C   0  0  0  0  0  0  0  0  0  0  0  0
    8.1595    3.0102    0.0000 C   0  0  0  0  0  0  0  0  0  0  0  0
    7.5458    4.3788    0.0000 C   0  0  0  0  0  0  0  0  0  0  0  0
    8.4242    5.5947    0.0000 O   0  0  0  0  0  0  0  0  0  0  0  0
    6.0536    4.5317    0.0000 C   0  0  0  0  0  0  0  0  0  0  0  0
    5.1751    3.3158    0.0000 C   0  0  0  0  0  0  0  0  0  0  0  0
    5.7889    1.9471    0.0000 C   0  0  0  0  0  0  0  0  0  0  0  0
    4.2967    2.0999    0.0000 C   0  0  0  0  0  0  0  0  0  0  0  0
    4.9105    0.7312    0.0000 C   0  0  0  0  0  0  0  0  0  0  0  0
    3.4183    0.8840    0.0000 C   0  0  0  0  0  0  0  0  0  0  0  0
    2.5398   -0.3319    0.0000 C   0  0  0  0  0  0  0  0  0  0  0  0
    1.0476   -0.1790    0.0000 O   0  0  0  0  0  0  0  0  0  0  0  0
    3.1536   -1.7005    0.0000 C   0  0  0  0  0  0  0  0  0  0  0  0
    1.6536   -1.7045    0.0000 C   0  0  0  0  0  0  0  0  0  0  0  0
  1  2  1  0
  2  3  1  0
  3  4  1  0
  4  5  1  0
  5  6  1  0
  6  7  1  0
  7  8  1  0
  8  9  1  0
  9 10  1  0
 10 11  1  0
 11 12  1  0
 12 13  2  0
 12 14  1  0
 14 15  1  0
 15 16  1  0
 16 17  1  6
 16 18  1  0
 18 19  1  6
 19 20  1  0
 21 20  1  6
 21 22  1  0
 22 23  1  1
 23 24  1  1
 23 25  1  0
 26 25  1  1
 26 27  1  0
 27 28  1  0
 28 29  1  1
 28 30  1  0
 30 31  1  0
 31 32  1  0
 32 33  1  6
 32 34  1  0
 34 35  1  6
 35 36  1  0
 36 37  1  1
 36 38  1  0
 38 39  1  6
 38 18  1  0
 38 21  1  0
 34 22  1  0
 32 26  1  0
M  END
>  <MS_ID>  (3606) 
MS3908

>  <SMILES>  (3606) 
CCCCCCCCCCOC(=O)CC[C@@H](C)[C@H]1CC[C@H]2[C@@H]3[C@H](O)C[C@@H]4C[C@H](O)CC[C@]4(C)[C@H]3C[C@H](O)[C@]12C

>  <Structure_dimension>  (3606) 
2D

$$$$
MS3910
     RDKit          2D

 30 33  0  0  0  0  0  0  0  0999 V2000
   -7.7754    3.4718    0.0000 C   0  0  0  0  0  0  0  0  0  0  0  0
   -7.3815    2.0245    0.0000 O   0  0  0  0  0  0  0  0  0  0  0  0
   -5.9311    1.6420    0.0000 C   0  0  0  0  0  0  0  0  0  0  0  0
   -4.8746    2.7068    0.0000 O   0  0  0  0  0  0  0  0  0  0  0  0
   -5.5371    0.1946    0.0000 C   0  0  0  0  0  0  0  0  0  0  0  0
   -4.0867   -0.1879    0.0000 C   0  0  0  0  0  0  0  0  0  0  0  0
   -3.6928   -1.6352    0.0000 C   0  0  0  0  0  0  0  0  0  0  0  0
   -4.7493   -2.7001    0.0000 C   0  0  0  0  0  0  0  0  0  0  0  0
   -2.2424   -2.0177    0.0000 C   0  0  0  0  0  0  0  0  0  0  0  0
   -1.6993   -3.4160    0.0000 C   0  0  0  0  0  0  0  0  0  0  0  0
   -0.2017   -3.3316    0.0000 C   0  0  0  0  0  0  0  0  0  0  0  0
    0.1808   -1.8812    0.0000 C   0  0  0  0  0  0  0  0  0  0  0  0
    1.5146   -1.1949    0.0000 C   0  0  0  0  0  0  0  0  0  0  0  0
    2.7759   -2.0069    0.0000 C   0  0  0  0  0  0  0  0  0  0  0  0
    2.7033   -3.5051    0.0000 O   0  0  0  0  0  0  0  0  0  0  0  0
    4.1097   -1.3206    0.0000 C   0  0  0  0  0  0  0  0  0  0  0  0
    5.3709   -2.1326    0.0000 O   0  0  0  0  0  0  0  0  0  0  0  0
    4.1823    0.1776    0.0000 C   0  0  0  0  0  0  0  0  0  0  0  0
    5.5161    0.8639    0.0000 C   0  0  0  0  0  0  0  0  0  0  0  0
    5.5887    2.3621    0.0000 C   0  0  0  0  0  0  0  0  0  0  0  0
    6.9225    3.0484    0.0000 O   0  0  0  0  0  0  0  0  0  0  0  0
    4.3274    3.1741    0.0000 C   0  0  0  0  0  0  0  0  0  0  0  0
    2.9936    2.4878    0.0000 C   0  0  0  0  0  0  0  0  0  0  0  0
    2.9210    0.9896    0.0000 C   0  0  0  0  0  0  0  0  0  0  0  0
    1.6598    1.8016    0.0000 C   0  0  0  0  0  0  0  0  0  0  0  0
    1.5872    0.3033    0.0000 C   0  0  0  0  0  0  0  0  0  0  0  0
    0.3260    1.1153    0.0000 C   0  0  0  0  0  0  0  0  0  0  0  0
   -1.0078    0.4291    0.0000 C   0  0  0  0  0  0  0  0  0  0  0  0
   -1.0804   -1.0692    0.0000 C   0  0  0  0  0  0  0  0  0  0  0  0
   -2.4196   -0.3935    0.0000 C   0  0  0  0  0  0  0  0  0  0  0  0
  1  2  1  0
  2  3  1  0
  3  4  2  0
  3  5  1  0
  5  6  1  0
  6  7  1  0
  7  8  1  6
  7  9  1  0
  9 10  1  6
 10 11  1  0
 12 11  1  6
 12 13  1  0
 13 14  1  1
 14 15  2  0
 14 16  1  0
 16 17  1  1
 16 18  1  0
 18 19  1  1
 19 20  1  0
 20 21  1  1
 20 22  1  0
 22 23  1  0
 23 24  1  0
 24 25  1  6
 24 26  1  0
 26 27  1  6
 27 28  1  0
 28 29  1  0
 29 30  1  6
 29  9  1  0
 29 12  1  0
 26 13  1  0
 24 18  1  0
M  END
>  <MS_ID>  (3607) 
MS3910

>  <SMILES>  (3607) 
COC(=O)CC[C@@H](C)[C@H]1CC[C@H]2[C@@H]3C(=O)[C@H](O)[C@@H]4C[C@H](O)CC[C@]4(C)[C@H]3CC[C@]12C

>  <Structure_dimension>  (3607) 
2D

$$$$
MS3911
     RDKit          2D

 33 36  0  0  0  0  0  0  0  0999 V2000
   -1.9813   -4.3426    0.0000 C   0  0  0  0  0  0  0  0  0  0  0  0
   -1.2397   -3.0388    0.0000 C   0  0  0  0  0  0  0  0  0  0  0  0
   -1.9981   -1.7446    0.0000 C   0  0  0  0  0  0  0  0  0  0  0  0
   -3.4981   -1.7543    0.0000 C   0  0  0  0  0  0  0  0  0  0  0  0
   -4.2565   -0.4602    0.0000 C   0  0  0  0  0  0  0  0  0  0  0  0
   -3.5149    0.8437    0.0000 O   0  0  0  0  0  0  0  0  0  0  0  0
   -5.7564   -0.4699    0.0000 N   0  0  0  0  0  0  0  0  0  0  0  0
   -6.5148    0.8243    0.0000 C   0  0  0  0  0  0  0  0  0  0  0  0
   -8.0148    0.8146    0.0000 C   0  0  0  0  0  0  0  0  0  0  0  0
   -8.7732    2.1088    0.0000 S   0  0  0  0  0  0  0  0  0  0  0  0
  -10.0673    1.3504    0.0000 O   0  0  0  0  0  0  0  0  0  0  0  0
   -7.4790    2.8671    0.0000 O   0  0  0  0  0  0  0  0  0  0  0  0
   -9.5316    3.4029    0.0000 O   0  0  0  0  0  0  0  0  0  0  0  0
    0.2602   -3.0291    0.0000 C   0  0  0  0  0  0  0  0  0  0  0  0
    1.1497   -4.2369    0.0000 C   0  0  0  0  0  0  0  0  0  0  0  0
    2.5733   -3.7641    0.0000 C   0  0  0  0  0  0  0  0  0  0  0  0
    2.5636   -2.2642    0.0000 C   0  0  0  0  0  0  0  0  0  0  0  0
    3.6718   -1.2533    0.0000 C   0  0  0  0  0  0  0  0  0  0  0  0
    5.1013   -1.7076    0.0000 C   0  0  0  0  0  0  0  0  0  0  0  0
    6.2095   -0.6967    0.0000 C   0  0  0  0  0  0  0  0  0  0  0  0
    5.8882    0.7685    0.0000 C   0  0  0  0  0  0  0  0  0  0  0  0
    6.9964    1.7794    0.0000 C   0  0  0  0  0  0  0  0  0  0  0  0
    6.6751    3.2445    0.0000 C   0  0  0  0  0  0  0  0  0  0  0  0
    7.7833    4.2554    0.0000 O   0  0  0  0  0  0  0  0  0  0  0  0
    5.2455    3.6988    0.0000 C   0  0  0  0  0  0  0  0  0  0  0  0
    4.1373    2.6879    0.0000 C   0  0  0  0  0  0  0  0  0  0  0  0
    4.4586    1.2228    0.0000 C   0  0  0  0  0  0  0  0  0  0  0  0
    3.0291    1.6771    0.0000 C   0  0  0  0  0  0  0  0  0  0  0  0
    3.3504    0.2119    0.0000 C   0  0  0  0  0  0  0  0  0  0  0  0
    1.9209    0.6662    0.0000 C   0  0  0  0  0  0  0  0  0  0  0  0
    0.8127   -0.3447    0.0000 C   0  0  0  0  0  0  0  0  0  0  0  0
    1.1340   -1.8099    0.0000 C   0  0  0  0  0  0  0  0  0  0  0  0
   -0.3352   -1.5075    0.0000 C   0  0  0  0  0  0  0  0  0  0  0  0
  2  1  1  6
  2  3  1  0
  3  4  1  0
  4  5  1  0
  5  6  2  0
  5  7  1  0
  7  8  1  0
  8  9  1  0
  9 10  1  0
 10 11  2  0
 10 12  2  0
 10 13  1  0
  2 14  1  0
 14 15  1  6
 15 16  1  0
 17 16  1  6
 17 18  1  0
 18 19  1  1
 19 20  1  0
 21 20  1  6
 21 22  1  0
 22 23  1  0
 23 24  1  6
 23 25  1  0
 25 26  1  0
 26 27  1  0
 27 28  1  6
 27 29  1  0
 29 30  1  6
 30 31  1  0
 31 32  1  0
 32 33  1  6
 32 14  1  0
 32 17  1  0
 29 18  1  0
 27 21  1  0
M  END
>  <MS_ID>  (3608) 
MS3911

>  <SMILES>  (3608) 
C[C@H](CCC(=O)NCCS(=O)(=O)O)[C@H]1CC[C@H]2[C@@H]3CC[C@H]4C[C@@H](O)CC[C@]4(C)[C@H]3CC[C@]12C

>  <Structure_dimension>  (3608) 
2D

$$$$
MS3915
     RDKit          2D

 30 33  0  0  0  0  0  0  0  0999 V2000
   -5.1134   -2.2540    0.0000 C   0  0  0  0  0  0  0  0  0  0  0  0
   -3.9811   -1.2701    0.0000 C   0  0  0  0  0  0  0  0  0  0  0  0
   -4.2670    0.2024    0.0000 C   0  0  0  0  0  0  0  0  0  0  0  0
   -5.6852    0.6910    0.0000 C   0  0  0  0  0  0  0  0  0  0  0  0
   -5.9711    2.1635    0.0000 C   0  0  0  0  0  0  0  0  0  0  0  0
   -4.8388    3.1474    0.0000 O   0  0  0  0  0  0  0  0  0  0  0  0
   -7.3892    2.6522    0.0000 O   0  0  0  0  0  0  0  0  0  0  0  0
   -2.5629   -1.7588    0.0000 C   0  0  0  0  0  0  0  0  0  0  0  0
   -2.1247   -3.1933    0.0000 C   0  0  0  0  0  0  0  0  0  0  0  0
   -0.6249   -3.2198    0.0000 C   0  0  0  0  0  0  0  0  0  0  0  0
   -0.1362   -1.8017    0.0000 C   0  0  0  0  0  0  0  0  0  0  0  0
    1.2446   -1.2159    0.0000 C   0  0  0  0  0  0  0  0  0  0  0  0
    2.4424   -2.1188    0.0000 C   0  0  0  0  0  0  0  0  0  0  0  0
    2.2593   -3.6076    0.0000 O   0  0  0  0  0  0  0  0  0  0  0  0
    3.8233   -1.5330    0.0000 C   0  0  0  0  0  0  0  0  0  0  0  0
    5.0210   -2.4360    0.0000 O   0  0  0  0  0  0  0  0  0  0  0  0
    4.0064   -0.0442    0.0000 C   0  0  0  0  0  0  0  0  0  0  0  0
    5.3873    0.5416    0.0000 C   0  0  0  0  0  0  0  0  0  0  0  0
    5.5704    2.0303    0.0000 C   0  0  0  0  0  0  0  0  0  0  0  0
    6.9513    2.6161    0.0000 O   0  0  0  0  0  0  0  0  0  0  0  0
    4.3726    2.9333    0.0000 C   0  0  0  0  0  0  0  0  0  0  0  0
    2.9918    2.3475    0.0000 C   0  0  0  0  0  0  0  0  0  0  0  0
    2.8086    0.8587    0.0000 C   0  0  0  0  0  0  0  0  0  0  0  0
    1.6109    1.7617    0.0000 C   0  0  0  0  0  0  0  0  0  0  0  0
    1.4278    0.2729    0.0000 C   0  0  0  0  0  0  0  0  0  0  0  0
    0.2300    1.1759    0.0000 C   0  0  0  0  0  0  0  0  0  0  0  0
   -1.1509    0.5901    0.0000 C   0  0  0  0  0  0  0  0  0  0  0  0
   -2.3486    1.4931    0.0000 O   0  0  0  0  0  0  0  0  0  0  0  0
   -1.3340   -0.8987    0.0000 C   0  0  0  0  0  0  0  0  0  0  0  0
   -2.6196   -0.1258    0.0000 C   0  0  0  0  0  0  0  0  0  0  0  0
  2  1  1  6
  2  3  1  0
  3  4  1  0
  4  5  1  0
  5  6  2  0
  5  7  1  0
  2  8  1  0
  8  9  1  6
  9 10  1  0
 11 10  1  6
 11 12  1  0
 12 13  1  1
 13 14  1  6
 13 15  1  0
 15 16  1  6
 15 17  1  0
 17 18  1  1
 18 19  1  0
 19 20  1  6
 19 21  1  0
 21 22  1  0
 22 23  1  0
 23 24  1  6
 23 25  1  0
 25 26  1  6
 26 27  1  0
 27 28  1  1
 27 29  1  0
 29 30  1  6
 29  8  1  0
 29 11  1  0
 25 12  1  0
 23 17  1  0
M  END
>  <MS_ID>  (3609) 
MS3915

>  <SMILES>  (3609) 
C[C@H](CCC(=O)O)[C@H]1CC[C@H]2[C@@H]3[C@@H](O)[C@@H](O)[C@@H]4C[C@@H](O)CC[C@]4(C)[C@H]3C[C@H](O)[C@]12C

>  <Structure_dimension>  (3609) 
2D

$$$$
MS3918
     RDKit          2D

 34 37  0  0  0  0  0  0  0  0999 V2000
   -2.0431   -4.2971    0.0000 C   0  0  0  0  0  0  0  0  0  0  0  0
   -1.3315   -2.9767    0.0000 C   0  0  0  0  0  0  0  0  0  0  0  0
   -2.1193   -1.7002    0.0000 C   0  0  0  0  0  0  0  0  0  0  0  0
   -3.6187   -1.7442    0.0000 C   0  0  0  0  0  0  0  0  0  0  0  0
   -4.4064   -0.4677    0.0000 C   0  0  0  0  0  0  0  0  0  0  0  0
   -3.6948    0.8528    0.0000 O   0  0  0  0  0  0  0  0  0  0  0  0
   -5.9058   -0.5117    0.0000 N   0  0  0  0  0  0  0  0  0  0  0  0
   -6.6936    0.7648    0.0000 C   0  0  0  0  0  0  0  0  0  0  0  0
   -8.1929    0.7208    0.0000 C   0  0  0  0  0  0  0  0  0  0  0  0
   -8.9807    1.9973    0.0000 S   0  0  0  0  0  0  0  0  0  0  0  0
  -10.2572    1.2096    0.0000 O   0  0  0  0  0  0  0  0  0  0  0  0
   -7.7042    2.7851    0.0000 O   0  0  0  0  0  0  0  0  0  0  0  0
   -9.7684    3.2738    0.0000 O   0  0  0  0  0  0  0  0  0  0  0  0
    0.1678   -2.9327    0.0000 C   0  0  0  0  0  0  0  0  0  0  0  0
    1.0847   -4.1198    0.0000 C   0  0  0  0  0  0  0  0  0  0  0  0
    2.4971   -3.6147    0.0000 C   0  0  0  0  0  0  0  0  0  0  0  0
    2.4531   -2.1153    0.0000 C   0  0  0  0  0  0  0  0  0  0  0  0
    3.5379   -1.0794    0.0000 C   0  0  0  0  0  0  0  0  0  0  0  0
    4.9775   -1.5009    0.0000 C   0  0  0  0  0  0  0  0  0  0  0  0
    5.3322   -2.9583    0.0000 O   0  0  0  0  0  0  0  0  0  0  0  0
    6.0623   -0.4649    0.0000 C   0  0  0  0  0  0  0  0  0  0  0  0
    5.7075    0.9925    0.0000 C   0  0  0  0  0  0  0  0  0  0  0  0
    6.7923    2.0285    0.0000 C   0  0  0  0  0  0  0  0  0  0  0  0
    6.4376    3.4859    0.0000 C   0  0  0  0  0  0  0  0  0  0  0  0
    7.5224    4.5219    0.0000 O   0  0  0  0  0  0  0  0  0  0  0  0
    4.9980    3.9074    0.0000 C   0  0  0  0  0  0  0  0  0  0  0  0
    3.9132    2.8715    0.0000 C   0  0  0  0  0  0  0  0  0  0  0  0
    4.2680    1.4140    0.0000 C   0  0  0  0  0  0  0  0  0  0  0  0
    2.8284    1.8355    0.0000 C   0  0  0  0  0  0  0  0  0  0  0  0
    3.1831    0.3781    0.0000 C   0  0  0  0  0  0  0  0  0  0  0  0
    1.7436    0.7996    0.0000 C   0  0  0  0  0  0  0  0  0  0  0  0
    0.6588   -0.2364    0.0000 C   0  0  0  0  0  0  0  0  0  0  0  0
    1.0135   -1.6938    0.0000 C   0  0  0  0  0  0  0  0  0  0  0  0
   -0.4622   -1.4251    0.0000 C   0  0  0  0  0  0  0  0  0  0  0  0
  2  1  1  6
  2  3  1  0
  3  4  1  0
  4  5  1  0
  5  6  2  0
  5  7  1  0
  7  8  1  0
  8  9  1  0
  9 10  1  0
 10 11  2  0
 10 12  2  0
 10 13  1  0
  2 14  1  0
 14 15  1  6
 15 16  1  0
 17 16  1  6
 17 18  1  0
 18 19  1  1
 19 20  1  1
 19 21  1  0
 22 21  1  1
 22 23  1  0
 23 24  1  0
 24 25  1  6
 24 26  1  0
 26 27  1  0
 27 28  1  0
 28 29  1  6
 28 30  1  0
 30 31  1  6
 31 32  1  0
 32 33  1  0
 33 34  1  6
 33 14  1  0
 33 17  1  0
 30 18  1  0
 28 22  1  0
M  END
>  <MS_ID>  (3610) 
MS3918

>  <SMILES>  (3610) 
C[C@H](CCC(=O)NCCS(=O)(=O)O)[C@H]1CC[C@H]2[C@@H]3[C@H](O)C[C@@H]4C[C@@H](O)CC[C@]4(C)[C@H]3CC[C@]12C

>  <Structure_dimension>  (3610) 
2D

$$$$
MS3919
     RDKit          2D

 34 37  0  0  0  0  0  0  0  0999 V2000
   -2.6241   -4.2451    0.0000 C   0  0  0  0  0  0  0  0  0  0  0  0
   -1.8495   -2.9606    0.0000 C   0  0  0  0  0  0  0  0  0  0  0  0
   -2.5745   -1.6475    0.0000 C   0  0  0  0  0  0  0  0  0  0  0  0
   -4.0743   -1.6189    0.0000 C   0  0  0  0  0  0  0  0  0  0  0  0
   -4.7994   -0.3058    0.0000 C   0  0  0  0  0  0  0  0  0  0  0  0
   -4.0247    0.9787    0.0000 O   0  0  0  0  0  0  0  0  0  0  0  0
   -6.2991   -0.2772    0.0000 N   0  0  0  0  0  0  0  0  0  0  0  0
   -7.0242    1.0359    0.0000 C   0  0  0  0  0  0  0  0  0  0  0  0
   -8.5239    1.0645    0.0000 C   0  0  0  0  0  0  0  0  0  0  0  0
   -9.2490    2.3776    0.0000 O   0  0  0  0  0  0  0  0  0  0  0  0
   -6.2495    2.3204    0.0000 C   0  0  0  0  0  0  0  0  0  0  0  0
   -4.7498    2.2918    0.0000 O   0  0  0  0  0  0  0  0  0  0  0  0
   -6.9746    3.6335    0.0000 O   0  0  0  0  0  0  0  0  0  0  0  0
   -0.3497   -2.9893    0.0000 C   0  0  0  0  0  0  0  0  0  0  0  0
    0.5086   -4.2194    0.0000 C   0  0  0  0  0  0  0  0  0  0  0  0
    1.9438   -3.7832    0.0000 C   0  0  0  0  0  0  0  0  0  0  0  0
    1.9724   -2.2834    0.0000 C   0  0  0  0  0  0  0  0  0  0  0  0
    3.1061   -1.3012    0.0000 C   0  0  0  0  0  0  0  0  0  0  0  0
    4.5236   -1.7919    0.0000 C   0  0  0  0  0  0  0  0  0  0  0  0
    5.6572   -0.8096    0.0000 C   0  0  0  0  0  0  0  0  0  0  0  0
    7.0747   -1.3003    0.0000 O   0  0  0  0  0  0  0  0  0  0  0  0
    5.3734    0.6633    0.0000 C   0  0  0  0  0  0  0  0  0  0  0  0
    6.5071    1.6455    0.0000 C   0  0  0  0  0  0  0  0  0  0  0  0
    6.2232    3.1184    0.0000 C   0  0  0  0  0  0  0  0  0  0  0  0
    7.3569    4.1007    0.0000 O   0  0  0  0  0  0  0  0  0  0  0  0
    4.8058    3.6091    0.0000 C   0  0  0  0  0  0  0  0  0  0  0  0
    3.6721    2.6269    0.0000 C   0  0  0  0  0  0  0  0  0  0  0  0
    3.9559    1.1540    0.0000 C   0  0  0  0  0  0  0  0  0  0  0  0
    2.5384    1.6446    0.0000 C   0  0  0  0  0  0  0  0  0  0  0  0
    2.8223    0.1717    0.0000 C   0  0  0  0  0  0  0  0  0  0  0  0
    1.4048    0.6624    0.0000 C   0  0  0  0  0  0  0  0  0  0  0  0
    0.2711   -0.3199    0.0000 C   0  0  0  0  0  0  0  0  0  0  0  0
    0.5549   -1.7928    0.0000 C   0  0  0  0  0  0  0  0  0  0  0  0
   -0.9061   -1.4530    0.0000 C   0  0  0  0  0  0  0  0  0  0  0  0
  2  1  1  6
  2  3  1  0
  3  4  1  0
  4  5  1  0
  5  6  2  0
  5  7  1  0
  7  8  1  0
  8  9  1  1
  9 10  1  0
  8 11  1  0
 11 12  2  0
 11 13  1  0
  2 14  1  0
 14 15  1  6
 15 16  1  0
 17 16  1  6
 17 18  1  0
 18 19  1  1
 19 20  1  0
 20 21  1  1
 20 22  1  0
 22 23  1  1
 23 24  1  0
 24 25  1  1
 24 26  1  0
 26 27  1  0
 27 28  1  0
 28 29  1  6
 28 30  1  0
 30 31  1  6
 31 32  1  0
 32 33  1  0
 33 34  1  6
 33 14  1  0
 33 17  1  0
 30 18  1  0
 28 22  1  0
M  END
>  <MS_ID>  (3611) 
MS3919

>  <SMILES>  (3611) 
C[C@H](CCC(=O)N[C@@H](CO)C(=O)O)[C@H]1CC[C@H]2[C@@H]3C[C@H](O)[C@@H]4C[C@H](O)CC[C@]4(C)[C@H]3CC[C@]12C

>  <Structure_dimension>  (3611) 
2D

$$$$
MS3920
     RDKit          2D

 39 43  0  0  0  0  0  0  0  0999 V2000
   -0.6608   -4.8801    0.0000 C   0  0  0  0  0  0  0  0  0  0  0  0
   -0.0594   -3.5059    0.0000 C   0  0  0  0  0  0  0  0  0  0  0  0
   -0.9487   -2.2980    0.0000 C   0  0  0  0  0  0  0  0  0  0  0  0
   -2.4395   -2.4642    0.0000 C   0  0  0  0  0  0  0  0  0  0  0  0
   -3.3288   -1.2563    0.0000 C   0  0  0  0  0  0  0  0  0  0  0  0
   -2.7274    0.1179    0.0000 O   0  0  0  0  0  0  0  0  0  0  0  0
   -4.8196   -1.4225    0.0000 O   0  0  0  0  0  0  0  0  0  0  0  0
   -5.7089   -0.2146    0.0000 C   0  0  0  0  0  0  0  0  0  0  0  0
   -5.1074    1.1596    0.0000 O   0  0  0  0  0  0  0  0  0  0  0  0
   -5.9968    2.3675    0.0000 C   0  0  0  0  0  0  0  0  0  0  0  0
   -5.3953    3.7417    0.0000 C   0  0  0  0  0  0  0  0  0  0  0  0
   -3.9046    3.9079    0.0000 O   0  0  0  0  0  0  0  0  0  0  0  0
   -7.4875    2.2013    0.0000 C   0  0  0  0  0  0  0  0  0  0  0  0
   -8.3768    3.4092    0.0000 O   0  0  0  0  0  0  0  0  0  0  0  0
   -8.0890    0.8272    0.0000 C   0  0  0  0  0  0  0  0  0  0  0  0
   -9.5797    0.6610    0.0000 O   0  0  0  0  0  0  0  0  0  0  0  0
   -7.1996   -0.3808    0.0000 C   0  0  0  0  0  0  0  0  0  0  0  0
   -7.8011   -1.7549    0.0000 O   0  0  0  0  0  0  0  0  0  0  0  0
    1.4314   -3.3397    0.0000 C   0  0  0  0  0  0  0  0  0  0  0  0
    2.4421   -4.4481    0.0000 C   0  0  0  0  0  0  0  0  0  0  0  0
    3.8085   -3.8293    0.0000 C   0  0  0  0  0  0  0  0  0  0  0  0
    3.6423   -2.3386    0.0000 C   0  0  0  0  0  0  0  0  0  0  0  0
    4.6390   -1.2176    0.0000 C   0  0  0  0  0  0  0  0  0  0  0  0
    6.1081   -1.5201    0.0000 C   0  0  0  0  0  0  0  0  0  0  0  0
    7.1048   -0.3991    0.0000 C   0  0  0  0  0  0  0  0  0  0  0  0
    6.6322    1.0245    0.0000 C   0  0  0  0  0  0  0  0  0  0  0  0
    7.6289    2.1455    0.0000 C   0  0  0  0  0  0  0  0  0  0  0  0
    7.1563    3.5692    0.0000 C   0  0  0  0  0  0  0  0  0  0  0  0
    8.1530    4.6902    0.0000 O   0  0  0  0  0  0  0  0  0  0  0  0
    5.6872    3.8718    0.0000 C   0  0  0  0  0  0  0  0  0  0  0  0
    4.6906    2.7507    0.0000 C   0  0  0  0  0  0  0  0  0  0  0  0
    5.1631    1.3271    0.0000 C   0  0  0  0  0  0  0  0  0  0  0  0
    3.6939    1.6297    0.0000 C   0  0  0  0  0  0  0  0  0  0  0  0
    4.1664    0.2061    0.0000 C   0  0  0  0  0  0  0  0  0  0  0  0
    2.6973    0.5087    0.0000 C   0  0  0  0  0  0  0  0  0  0  0  0
    1.7006   -0.6124    0.0000 C   0  0  0  0  0  0  0  0  0  0  0  0
    0.2315   -0.3098    0.0000 O   0  0  0  0  0  0  0  0  0  0  0  0
    2.1732   -2.0360    0.0000 C   0  0  0  0  0  0  0  0  0  0  0  0
    0.6804   -1.8886    0.0000 C   0  0  0  0  0  0  0  0  0  0  0  0
  2  1  1  6
  2  3  1  0
  3  4  1  0
  4  5  1  0
  5  6  2  0
  5  7  1  0
  8  7  1  1
  8  9  1  0
  9 10  1  0
 10 11  1  1
 11 12  1  0
 10 13  1  0
 13 14  1  6
 13 15  1  0
 15 16  1  1
 15 17  1  0
 17 18  1  6
  2 19  1  0
 19 20  1  6
 20 21  1  0
 22 21  1  6
 22 23  1  0
 23 24  1  1
 24 25  1  0
 26 25  1  1
 26 27  1  0
 27 28  1  0
 28 29  1  1
 28 30  1  0
 30 31  1  0
 31 32  1  0
 32 33  1  6
 32 34  1  0
 34 35  1  6
 35 36  1  0
 36 37  1  1
 36 38  1  0
 38 39  1  6
 17  8  1  0
 38 19  1  0
 38 22  1  0
 34 23  1  0
 32 26  1  0
M  END
>  <MS_ID>  (3612) 
MS3920

>  <SMILES>  (3612) 
C[C@H](CCC(=O)O[C@@H]1O[C@H](CO)[C@@H](O)[C@H](O)[C@H]1O)[C@H]1CC[C@H]2[C@@H]3CC[C@@H]4C[C@H](O)CC[C@]4(C)[C@H]3C[C@H](O)[C@]12C

>  <Structure_dimension>  (3612) 
2D

$$$$
MS3923
     RDKit          2D

 31 34  0  0  0  0  0  0  0  0999 V2000
   -3.0989   -3.6972    0.0000 C   0  0  0  0  0  0  0  0  0  0  0  0
   -2.1883   -2.5051    0.0000 C   0  0  0  0  0  0  0  0  0  0  0  0
   -2.7654   -1.1206    0.0000 C   0  0  0  0  0  0  0  0  0  0  0  0
   -4.2530   -0.9280    0.0000 C   0  0  0  0  0  0  0  0  0  0  0  0
   -4.8300    0.4565    0.0000 C   0  0  0  0  0  0  0  0  0  0  0  0
   -3.9195    1.6486    0.0000 O   0  0  0  0  0  0  0  0  0  0  0  0
   -6.3176    0.6491    0.0000 N   0  0  0  0  0  0  0  0  0  0  0  0
   -6.8947    2.0336    0.0000 C   0  0  0  0  0  0  0  0  0  0  0  0
   -8.3823    2.2261    0.0000 C   0  0  0  0  0  0  0  0  0  0  0  0
   -9.2928    1.0341    0.0000 O   0  0  0  0  0  0  0  0  0  0  0  0
   -8.9593    3.6107    0.0000 O   0  0  0  0  0  0  0  0  0  0  0  0
   -0.7007   -2.6977    0.0000 C   0  0  0  0  0  0  0  0  0  0  0  0
    0.0179   -4.0143    0.0000 C   0  0  0  0  0  0  0  0  0  0  0  0
    1.4922   -3.7377    0.0000 C   0  0  0  0  0  0  0  0  0  0  0  0
    1.6847   -2.2501    0.0000 C   0  0  0  0  0  0  0  0  0  0  0  0
    2.9190   -1.3978    0.0000 C   0  0  0  0  0  0  0  0  0  0  0  0
    4.2743   -2.0406    0.0000 C   0  0  0  0  0  0  0  0  0  0  0  0
    5.5086   -1.1883    0.0000 C   0  0  0  0  0  0  0  0  0  0  0  0
    5.3877    0.3068    0.0000 C   0  0  0  0  0  0  0  0  0  0  0  0
    6.6220    1.1591    0.0000 C   0  0  0  0  0  0  0  0  0  0  0  0
    6.5010    2.6542    0.0000 C   0  0  0  0  0  0  0  0  0  0  0  0
    7.7354    3.5066    0.0000 O   0  0  0  0  0  0  0  0  0  0  0  0
    5.1457    3.2970    0.0000 C   0  0  0  0  0  0  0  0  0  0  0  0
    3.9114    2.4447    0.0000 C   0  0  0  0  0  0  0  0  0  0  0  0
    4.0324    0.9496    0.0000 C   0  0  0  0  0  0  0  0  0  0  0  0
    2.6771    1.5924    0.0000 C   0  0  0  0  0  0  0  0  0  0  0  0
    2.7981    0.0973    0.0000 C   0  0  0  0  0  0  0  0  0  0  0  0
    1.4428    0.7401    0.0000 C   0  0  0  0  0  0  0  0  0  0  0  0
    0.2084   -0.1122    0.0000 C   0  0  0  0  0  0  0  0  0  0  0  0
    0.3294   -1.6073    0.0000 C   0  0  0  0  0  0  0  0  0  0  0  0
   -1.0856   -1.1097    0.0000 C   0  0  0  0  0  0  0  0  0  0  0  0
  2  1  1  6
  2  3  1  0
  3  4  1  0
  4  5  1  0
  5  6  2  0
  5  7  1  0
  7  8  1  0
  8  9  1  0
  9 10  2  0
  9 11  1  0
  2 12  1  0
 12 13  1  6
 13 14  1  0
 15 14  1  6
 15 16  1  0
 16 17  1  1
 17 18  1  0
 19 18  1  6
 19 20  1  0
 20 21  1  0
 21 22  1  1
 21 23  1  0
 23 24  1  0
 24 25  1  0
 25 26  1  6
 25 27  1  0
 27 28  1  6
 28 29  1  0
 29 30  1  0
 30 31  1  6
 30 12  1  0
 30 15  1  0
 27 16  1  0
 25 19  1  0
M  END
>  <MS_ID>  (3613) 
MS3923

>  <SMILES>  (3613) 
C[C@H](CCC(=O)NCC(=O)O)[C@H]1CC[C@H]2[C@@H]3CC[C@H]4C[C@H](O)CC[C@]4(C)[C@H]3CC[C@]12C

>  <Structure_dimension>  (3613) 
2D

$$$$
MS3927
     RDKit          2D

 31 34  0  0  0  0  0  0  0  0999 V2000
    7.3743   -3.8446    0.0000 C   0  0  0  0  0  0  0  0  0  0  0  0
    7.1032   -2.3693    0.0000 O   0  0  0  0  0  0  0  0  0  0  0  0
    5.6900   -1.8664    0.0000 C   0  0  0  0  0  0  0  0  0  0  0  0
    4.5479   -2.8389    0.0000 O   0  0  0  0  0  0  0  0  0  0  0  0
    5.4189   -0.3911    0.0000 C   0  0  0  0  0  0  0  0  0  0  0  0
    4.0057    0.1117    0.0000 C   0  0  0  0  0  0  0  0  0  0  0  0
    3.7346    1.5870    0.0000 C   0  0  0  0  0  0  0  0  0  0  0  0
    4.8767    2.5595    0.0000 C   0  0  0  0  0  0  0  0  0  0  0  0
    2.3214    2.0899    0.0000 C   0  0  0  0  0  0  0  0  0  0  0  0
    1.8976    3.5288    0.0000 C   0  0  0  0  0  0  0  0  0  0  0  0
    0.3981    3.5703    0.0000 C   0  0  0  0  0  0  0  0  0  0  0  0
   -0.1047    2.1571    0.0000 C   0  0  0  0  0  0  0  0  0  0  0  0
   -1.4914    1.5852    0.0000 C   0  0  0  0  0  0  0  0  0  0  0  0
   -2.6800    2.5001    0.0000 C   0  0  0  0  0  0  0  0  0  0  0  0
   -2.4820    3.9870    0.0000 O   0  0  0  0  0  0  0  0  0  0  0  0
   -4.0667    1.9282    0.0000 C   0  0  0  0  0  0  0  0  0  0  0  0
   -4.2648    0.4413    0.0000 C   0  0  0  0  0  0  0  0  0  0  0  0
   -5.6515   -0.1306    0.0000 C   0  0  0  0  0  0  0  0  0  0  0  0
   -5.8495   -1.6174    0.0000 C   0  0  0  0  0  0  0  0  0  0  0  0
   -7.2362   -2.1894    0.0000 O   0  0  0  0  0  0  0  0  0  0  0  0
   -4.6609   -2.5324    0.0000 C   0  0  0  0  0  0  0  0  0  0  0  0
   -4.8589   -4.0193    0.0000 O   0  0  0  0  0  0  0  0  0  0  0  0
   -3.2742   -1.9605    0.0000 C   0  0  0  0  0  0  0  0  0  0  0  0
   -3.0761   -0.4736    0.0000 C   0  0  0  0  0  0  0  0  0  0  0  0
   -1.8875   -1.3886    0.0000 C   0  0  0  0  0  0  0  0  0  0  0  0
   -1.6894    0.0983    0.0000 C   0  0  0  0  0  0  0  0  0  0  0  0
   -0.5008   -0.8166    0.0000 C   0  0  0  0  0  0  0  0  0  0  0  0
    0.8859   -0.2447    0.0000 C   0  0  0  0  0  0  0  0  0  0  0  0
    2.0745   -1.1597    0.0000 O   0  0  0  0  0  0  0  0  0  0  0  0
    1.0839    1.2421    0.0000 C   0  0  0  0  0  0  0  0  0  0  0  0
    2.3617    0.4565    0.0000 C   0  0  0  0  0  0  0  0  0  0  0  0
  1  2  1  0
  2  3  1  0
  3  4  2  0
  3  5  1  0
  5  6  1  0
  6  7  1  0
  7  8  1  6
  7  9  1  0
  9 10  1  6
 10 11  1  0
 12 11  1  6
 12 13  1  0
 13 14  1  1
 14 15  1  1
 14 16  1  0
 17 16  1  1
 17 18  1  0
 18 19  1  0
 19 20  1  1
 19 21  1  0
 21 22  1  6
 21 23  1  0
 23 24  1  0
 24 25  1  6
 24 26  1  0
 26 27  1  6
 27 28  1  0
 28 29  1  1
 28 30  1  0
 30 31  1  6
 30  9  1  0
 30 12  1  0
 26 13  1  0
 24 17  1  0
M  END
>  <MS_ID>  (3614) 
MS3927

>  <SMILES>  (3614) 
COC(=O)CC[C@@H](C)[C@H]1CC[C@H]2[C@@H]3[C@H](O)C[C@@H]4C[C@H](O)[C@@H](O)C[C@]4(C)[C@H]3C[C@H](O)[C@]12C

>  <Structure_dimension>  (3614) 
2D

$$$$
MS3930
     RDKit          2D

 35 38  0  0  0  0  0  0  0  0999 V2000
   -1.4169   -4.4023    0.0000 C   0  0  0  0  0  0  0  0  0  0  0  0
   -0.7063   -3.0813    0.0000 C   0  0  0  0  0  0  0  0  0  0  0  0
   -1.4950   -1.8054    0.0000 C   0  0  0  0  0  0  0  0  0  0  0  0
   -2.9944   -1.8505    0.0000 C   0  0  0  0  0  0  0  0  0  0  0  0
   -3.7831   -0.5746    0.0000 C   0  0  0  0  0  0  0  0  0  0  0  0
   -3.0725    0.7464    0.0000 O   0  0  0  0  0  0  0  0  0  0  0  0
   -5.2824   -0.6197    0.0000 N   0  0  0  0  0  0  0  0  0  0  0  0
   -6.0711    0.6562    0.0000 C   0  0  0  0  0  0  0  0  0  0  0  0
   -7.5704    0.6111    0.0000 C   0  0  0  0  0  0  0  0  0  0  0  0
   -8.3591    1.8870    0.0000 C   0  0  0  0  0  0  0  0  0  0  0  0
   -9.8585    1.8419    0.0000 S   0  0  0  0  0  0  0  0  0  0  0  0
   -9.9036    3.3412    0.0000 O   0  0  0  0  0  0  0  0  0  0  0  0
   -9.8134    0.3426    0.0000 O   0  0  0  0  0  0  0  0  0  0  0  0
  -11.3578    1.7968    0.0000 O   0  0  0  0  0  0  0  0  0  0  0  0
    0.7930   -3.0362    0.0000 C   0  0  0  0  0  0  0  0  0  0  0  0
    1.7108   -4.2227    0.0000 C   0  0  0  0  0  0  0  0  0  0  0  0
    3.1228   -3.7165    0.0000 C   0  0  0  0  0  0  0  0  0  0  0  0
    3.0777   -2.2172    0.0000 C   0  0  0  0  0  0  0  0  0  0  0  0
    4.1617   -1.1804    0.0000 C   0  0  0  0  0  0  0  0  0  0  0  0
    5.6016   -1.6009    0.0000 C   0  0  0  0  0  0  0  0  0  0  0  0
    6.6856   -0.5641    0.0000 C   0  0  0  0  0  0  0  0  0  0  0  0
    6.3298    0.8931    0.0000 C   0  0  0  0  0  0  0  0  0  0  0  0
    7.4138    1.9298    0.0000 C   0  0  0  0  0  0  0  0  0  0  0  0
    7.0580    3.3870    0.0000 C   0  0  0  0  0  0  0  0  0  0  0  0
    8.1420    4.4238    0.0000 O   0  0  0  0  0  0  0  0  0  0  0  0
    5.6181    3.8074    0.0000 C   0  0  0  0  0  0  0  0  0  0  0  0
    4.5341    2.7707    0.0000 C   0  0  0  0  0  0  0  0  0  0  0  0
    4.8899    1.3135    0.0000 C   0  0  0  0  0  0  0  0  0  0  0  0
    3.4500    1.7339    0.0000 C   0  0  0  0  0  0  0  0  0  0  0  0
    3.8059    0.2768    0.0000 C   0  0  0  0  0  0  0  0  0  0  0  0
    2.3660    0.6972    0.0000 C   0  0  0  0  0  0  0  0  0  0  0  0
    1.2820   -0.3396    0.0000 C   0  0  0  0  0  0  0  0  0  0  0  0
   -0.1579    0.0809    0.0000 O   0  0  0  0  0  0  0  0  0  0  0  0
    1.6378   -1.7968    0.0000 C   0  0  0  0  0  0  0  0  0  0  0  0
    0.1619   -1.5291    0.0000 C   0  0  0  0  0  0  0  0  0  0  0  0
  2  1  1  6
  2  3  1  0
  3  4  1  0
  4  5  1  0
  5  6  2  0
  5  7  1  0
  7  8  1  0
  8  9  1  0
  9 10  1  0
 10 11  1  0
 11 12  2  0
 11 13  2  0
 11 14  1  0
  2 15  1  0
 15 16  1  6
 16 17  1  0
 18 17  1  6
 18 19  1  0
 19 20  1  1
 20 21  1  0
 22 21  1  1
 22 23  1  0
 23 24  1  0
 24 25  1  1
 24 26  1  0
 26 27  1  0
 27 28  1  0
 28 29  1  6
 28 30  1  0
 30 31  1  6
 31 32  1  0
 32 33  1  1
 32 34  1  0
 34 35  1  6
 34 15  1  0
 34 18  1  0
 30 19  1  0
 28 22  1  0
M  END
>  <MS_ID>  (3615) 
MS3930

>  <SMILES>  (3615) 
C[C@H](CCC(=O)NCCCS(=O)(=O)O)[C@H]1CC[C@H]2[C@@H]3CC[C@@H]4C[C@H](O)CC[C@]4(C)[C@H]3C[C@H](O)[C@]12C

>  <Structure_dimension>  (3615) 
2D

$$$$
MS3932
     RDKit          2D

 33 36  0  0  0  0  0  0  0  0999 V2000
   -5.0246   -2.6773    0.0000 C   0  0  0  0  0  0  0  0  0  0  0  0
   -4.0826   -1.5100    0.0000 C   0  0  0  0  0  0  0  0  0  0  0  0
   -4.6226   -0.1105    0.0000 C   0  0  0  0  0  0  0  0  0  0  0  0
   -6.1045    0.1216    0.0000 C   0  0  0  0  0  0  0  0  0  0  0  0
   -6.6444    1.5210    0.0000 C   0  0  0  0  0  0  0  0  0  0  0  0
   -5.7025    2.6884    0.0000 O   0  0  0  0  0  0  0  0  0  0  0  0
   -8.1264    1.7531    0.0000 O   0  0  0  0  0  0  0  0  0  0  0  0
   -2.6007   -1.7421    0.0000 C   0  0  0  0  0  0  0  0  0  0  0  0
   -1.9174   -3.0774    0.0000 C   0  0  0  0  0  0  0  0  0  0  0  0
   -0.4363   -2.8402    0.0000 C   0  0  0  0  0  0  0  0  0  0  0  0
   -0.2042   -1.3583    0.0000 C   0  0  0  0  0  0  0  0  0  0  0  0
    1.0525   -0.5392    0.0000 C   0  0  0  0  0  0  0  0  0  0  0  0
    2.3901   -1.2179    0.0000 C   0  0  0  0  0  0  0  0  0  0  0  0
    2.4712   -2.7157    0.0000 O   0  0  0  0  0  0  0  0  0  0  0  0
    3.8089   -3.3944    0.0000 S   0  0  0  0  0  0  0  0  0  0  0  0
    4.4876   -2.0567    0.0000 O   0  0  0  0  0  0  0  0  0  0  0  0
    3.1302   -4.7321    0.0000 O   0  0  0  0  0  0  0  0  0  0  0  0
    5.1465   -4.0731    0.0000 O   0  0  0  0  0  0  0  0  0  0  0  0
    3.6467   -0.3988    0.0000 C   0  0  0  0  0  0  0  0  0  0  0  0
    3.5657    1.0990    0.0000 C   0  0  0  0  0  0  0  0  0  0  0  0
    4.8223    1.9182    0.0000 C   0  0  0  0  0  0  0  0  0  0  0  0
    4.7412    3.4160    0.0000 C   0  0  0  0  0  0  0  0  0  0  0  0
    5.9978    4.2351    0.0000 O   0  0  0  0  0  0  0  0  0  0  0  0
    3.4035    4.0947    0.0000 C   0  0  0  0  0  0  0  0  0  0  0  0
    2.1469    3.2755    0.0000 C   0  0  0  0  0  0  0  0  0  0  0  0
    2.2280    1.7777    0.0000 C   0  0  0  0  0  0  0  0  0  0  0  0
    0.8903    2.4564    0.0000 C   0  0  0  0  0  0  0  0  0  0  0  0
    0.9714    0.9586    0.0000 C   0  0  0  0  0  0  0  0  0  0  0  0
   -0.3663    1.6373    0.0000 C   0  0  0  0  0  0  0  0  0  0  0  0
   -1.6229    0.8182    0.0000 C   0  0  0  0  0  0  0  0  0  0  0  0
   -2.9606    1.4969    0.0000 O   0  0  0  0  0  0  0  0  0  0  0  0
   -1.5418   -0.6796    0.0000 C   0  0  0  0  0  0  0  0  0  0  0  0
   -2.9431   -0.1445    0.0000 C   0  0  0  0  0  0  0  0  0  0  0  0
  2  1  1  6
  2  3  1  0
  3  4  1  0
  4  5  1  0
  5  6  2  0
  5  7  1  0
  2  8  1  0
  8  9  1  6
  9 10  1  0
 11 10  1  6
 11 12  1  0
 12 13  1  1
 13 14  1  1
 14 15  1  0
 15 16  2  0
 15 17  2  0
 15 18  1  0
 13 19  1  0
 20 19  1  1
 20 21  1  0
 21 22  1  0
 22 23  1  1
 22 24  1  0
 24 25  1  0
 25 26  1  0
 26 27  1  6
 26 28  1  0
 28 29  1  6
 29 30  1  0
 30 31  2  0
 30 32  1  0
 32 33  1  6
 32  8  1  0
 32 11  1  0
 28 12  1  0
 26 20  1  0
M  END
>  <MS_ID>  (3616) 
MS3932

>  <SMILES>  (3616) 
C[C@H](CCC(=O)O)[C@H]1CC[C@H]2[C@@H]3[C@H](OS(=O)(=O)O)C[C@@H]4C[C@H](O)CC[C@]4(C)[C@H]3CC(=O)[C@]12C

>  <Structure_dimension>  (3616) 
2D

$$$$
MS3934
     RDKit          2D

 30 33  0  0  0  0  0  0  0  0999 V2000
   -7.7754    3.4718    0.0000 C   0  0  0  0  0  0  0  0  0  0  0  0
   -7.3815    2.0245    0.0000 O   0  0  0  0  0  0  0  0  0  0  0  0
   -5.9311    1.6420    0.0000 C   0  0  0  0  0  0  0  0  0  0  0  0
   -4.8746    2.7068    0.0000 O   0  0  0  0  0  0  0  0  0  0  0  0
   -5.5371    0.1946    0.0000 C   0  0  0  0  0  0  0  0  0  0  0  0
   -4.0867   -0.1879    0.0000 C   0  0  0  0  0  0  0  0  0  0  0  0
   -3.6928   -1.6352    0.0000 C   0  0  0  0  0  0  0  0  0  0  0  0
   -4.7493   -2.7001    0.0000 C   0  0  0  0  0  0  0  0  0  0  0  0
   -2.2424   -2.0177    0.0000 C   0  0  0  0  0  0  0  0  0  0  0  0
   -1.6993   -3.4160    0.0000 C   0  0  0  0  0  0  0  0  0  0  0  0
   -0.2017   -3.3316    0.0000 C   0  0  0  0  0  0  0  0  0  0  0  0
    0.1808   -1.8812    0.0000 C   0  0  0  0  0  0  0  0  0  0  0  0
    1.5146   -1.1949    0.0000 C   0  0  0  0  0  0  0  0  0  0  0  0
    2.7759   -2.0069    0.0000 C   0  0  0  0  0  0  0  0  0  0  0  0
    2.7033   -3.5051    0.0000 O   0  0  0  0  0  0  0  0  0  0  0  0
    4.1097   -1.3206    0.0000 C   0  0  0  0  0  0  0  0  0  0  0  0
    5.3709   -2.1326    0.0000 O   0  0  0  0  0  0  0  0  0  0  0  0
    4.1823    0.1776    0.0000 C   0  0  0  0  0  0  0  0  0  0  0  0
    5.5161    0.8639    0.0000 C   0  0  0  0  0  0  0  0  0  0  0  0
    5.5887    2.3621    0.0000 C   0  0  0  0  0  0  0  0  0  0  0  0
    6.9225    3.0484    0.0000 O   0  0  0  0  0  0  0  0  0  0  0  0
    4.3274    3.1741    0.0000 C   0  0  0  0  0  0  0  0  0  0  0  0
    2.9936    2.4878    0.0000 C   0  0  0  0  0  0  0  0  0  0  0  0
    2.9210    0.9896    0.0000 C   0  0  0  0  0  0  0  0  0  0  0  0
    1.6598    1.8016    0.0000 C   0  0  0  0  0  0  0  0  0  0  0  0
    1.5872    0.3033    0.0000 C   0  0  0  0  0  0  0  0  0  0  0  0
    0.3260    1.1153    0.0000 C   0  0  0  0  0  0  0  0  0  0  0  0
   -1.0078    0.4291    0.0000 C   0  0  0  0  0  0  0  0  0  0  0  0
   -1.0804   -1.0692    0.0000 C   0  0  0  0  0  0  0  0  0  0  0  0
   -2.4196   -0.3935    0.0000 C   0  0  0  0  0  0  0  0  0  0  0  0
  1  2  1  0
  2  3  1  0
  3  4  2  0
  3  5  1  0
  5  6  1  0
  6  7  1  0
  7  8  1  6
  7  9  1  0
  9 10  1  6
 10 11  1  0
 12 11  1  6
 12 13  1  0
 13 14  1  1
 14 15  1  1
 14 16  1  0
 16 17  1  6
 16 18  1  0
 18 19  1  1
 19 20  1  0
 20 21  1  1
 20 22  1  0
 22 23  1  0
 23 24  1  0
 24 25  1  6
 24 26  1  0
 26 27  1  6
 27 28  1  0
 28 29  1  0
 29 30  1  6
 29  9  1  0
 29 12  1  0
 26 13  1  0
 24 18  1  0
M  END
>  <MS_ID>  (3617) 
MS3934

>  <SMILES>  (3617) 
COC(=O)CC[C@@H](C)[C@H]1CC[C@H]2[C@@H]3[C@H](O)[C@@H](O)[C@@H]4C[C@H](O)CC[C@]4(C)[C@H]3CC[C@]12C

>  <Structure_dimension>  (3617) 
2D

$$$$
MS3941
     RDKit          2D

 38 42  0  0  0  0  0  0  0  0999 V2000
   -0.7712   -4.7706    0.0000 C   0  0  0  0  0  0  0  0  0  0  0  0
   -0.2076   -3.3806    0.0000 C   0  0  0  0  0  0  0  0  0  0  0  0
   -1.1296   -2.1974    0.0000 C   0  0  0  0  0  0  0  0  0  0  0  0
   -2.6152   -2.4043    0.0000 C   0  0  0  0  0  0  0  0  0  0  0  0
   -3.5372   -1.2211    0.0000 C   0  0  0  0  0  0  0  0  0  0  0  0
   -2.9736    0.1690    0.0000 O   0  0  0  0  0  0  0  0  0  0  0  0
   -5.0229   -1.4280    0.0000 N   0  0  0  0  0  0  0  0  0  0  0  0
   -5.9449   -0.2448    0.0000 C   0  0  0  0  0  0  0  0  0  0  0  0
   -7.4306   -0.4517    0.0000 C   0  0  0  0  0  0  0  0  0  0  0  0
   -8.3526    0.7315    0.0000 C   0  0  0  0  0  0  0  0  0  0  0  0
   -9.8517    0.6810    0.0000 C   0  0  0  0  0  0  0  0  0  0  0  0
  -10.3630    2.0912    0.0000 N   0  0  0  0  0  0  0  0  0  0  0  0
   -9.1798    3.0132    0.0000 C   0  0  0  0  0  0  0  0  0  0  0  0
   -7.9373    2.1729    0.0000 N   0  0  0  0  0  0  0  0  0  0  0  0
   -5.3812    1.1453    0.0000 C   0  0  0  0  0  0  0  0  0  0  0  0
   -3.8956    1.3522    0.0000 O   0  0  0  0  0  0  0  0  0  0  0  0
   -6.3032    2.3285    0.0000 O   0  0  0  0  0  0  0  0  0  0  0  0
    1.2781   -3.1737    0.0000 C   0  0  0  0  0  0  0  0  0  0  0  0
    2.3187   -4.2540    0.0000 C   0  0  0  0  0  0  0  0  0  0  0  0
    3.6677   -3.5981    0.0000 C   0  0  0  0  0  0  0  0  0  0  0  0
    3.4608   -2.1125    0.0000 C   0  0  0  0  0  0  0  0  0  0  0  0
    4.4265   -0.9646    0.0000 C   0  0  0  0  0  0  0  0  0  0  0  0
    5.9034   -1.2270    0.0000 C   0  0  0  0  0  0  0  0  0  0  0  0
    6.4146   -2.6372    0.0000 O   0  0  0  0  0  0  0  0  0  0  0  0
    6.8690   -0.0791    0.0000 C   0  0  0  0  0  0  0  0  0  0  0  0
    6.3577    1.3311    0.0000 C   0  0  0  0  0  0  0  0  0  0  0  0
    7.3234    2.4789    0.0000 C   0  0  0  0  0  0  0  0  0  0  0  0
    6.8121    3.8891    0.0000 C   0  0  0  0  0  0  0  0  0  0  0  0
    7.7777    5.0369    0.0000 O   0  0  0  0  0  0  0  0  0  0  0  0
    5.3352    4.1514    0.0000 C   0  0  0  0  0  0  0  0  0  0  0  0
    4.3696    3.0036    0.0000 C   0  0  0  0  0  0  0  0  0  0  0  0
    4.8809    1.5934    0.0000 C   0  0  0  0  0  0  0  0  0  0  0  0
    3.4040    1.8557    0.0000 C   0  0  0  0  0  0  0  0  0  0  0  0
    3.9152    0.4456    0.0000 C   0  0  0  0  0  0  0  0  0  0  0  0
    2.4383    0.7079    0.0000 C   0  0  0  0  0  0  0  0  0  0  0  0
    1.4727   -0.4400    0.0000 C   0  0  0  0  0  0  0  0  0  0  0  0
    1.9840   -1.8501    0.0000 C   0  0  0  0  0  0  0  0  0  0  0  0
    0.4877   -1.7436    0.0000 C   0  0  0  0  0  0  0  0  0  0  0  0
  2  1  1  6
  2  3  1  0
  3  4  1  0
  4  5  1  0
  5  6  2  0
  5  7  1  0
  7  8  1  0
  8  9  1  1
  9 10  1  0
 10 11  2  0
 11 12  1  0
 12 13  2  0
 13 14  1  0
  8 15  1  0
 15 16  2  0
 15 17  1  0
  2 18  1  0
 18 19  1  6
 19 20  1  0
 21 20  1  6
 21 22  1  0
 22 23  1  1
 23 24  1  6
 23 25  1  0
 26 25  1  1
 26 27  1  0
 27 28  1  0
 28 29  1  1
 28 30  1  0
 30 31  1  0
 31 32  1  0
 32 33  1  6
 32 34  1  0
 34 35  1  6
 35 36  1  0
 36 37  1  0
 37 38  1  6
 14 10  1  0
 37 18  1  0
 37 21  1  0
 34 22  1  0
 32 26  1  0
M  END
>  <MS_ID>  (3618) 
MS3941

>  <SMILES>  (3618) 
C[C@H](CCC(=O)N[C@@H](Cc1cnc[nH]1)C(=O)O)[C@H]1CC[C@H]2[C@@H]3[C@@H](O)C[C@@H]4C[C@H](O)CC[C@]4(C)[C@H]3CC[C@]12C

>  <Structure_dimension>  (3618) 
2D

$$$$
MS3942
     RDKit          2D

 29 32  0  0  0  0  0  0  0  0999 V2000
    5.3050    1.9722    0.0000 C   0  0  0  0  0  0  0  0  0  0  0  0
    4.0594    1.1364    0.0000 C   0  0  0  0  0  0  0  0  0  0  0  0
    4.1605   -0.3602    0.0000 C   0  0  0  0  0  0  0  0  0  0  0  0
    5.5071   -1.0210    0.0000 C   0  0  0  0  0  0  0  0  0  0  0  0
    5.6082   -2.5176    0.0000 C   0  0  0  0  0  0  0  0  0  0  0  0
    4.3627   -3.3534    0.0000 O   0  0  0  0  0  0  0  0  0  0  0  0
    6.9548   -3.1783    0.0000 O   0  0  0  0  0  0  0  0  0  0  0  0
    2.7128    1.7971    0.0000 C   0  0  0  0  0  0  0  0  0  0  0  0
    2.4558    3.2749    0.0000 C   0  0  0  0  0  0  0  0  0  0  0  0
    0.9709    3.4872    0.0000 C   0  0  0  0  0  0  0  0  0  0  0  0
    0.3102    2.1406    0.0000 C   0  0  0  0  0  0  0  0  0  0  0  0
   -1.1327    1.7306    0.0000 C   0  0  0  0  0  0  0  0  0  0  0  0
   -2.2092    2.7751    0.0000 C   0  0  0  0  0  0  0  0  0  0  0  0
   -3.6521    2.3651    0.0000 C   0  0  0  0  0  0  0  0  0  0  0  0
   -4.0185    0.9105    0.0000 C   0  0  0  0  0  0  0  0  0  0  0  0
   -5.4613    0.5005    0.0000 C   0  0  0  0  0  0  0  0  0  0  0  0
   -5.8277   -0.9541    0.0000 C   0  0  0  0  0  0  0  0  0  0  0  0
   -7.2705   -1.3641    0.0000 O   0  0  0  0  0  0  0  0  0  0  0  0
   -4.7511   -1.9986    0.0000 C   0  0  0  0  0  0  0  0  0  0  0  0
   -5.1175   -3.4532    0.0000 O   0  0  0  0  0  0  0  0  0  0  0  0
   -3.3083   -1.5886    0.0000 C   0  0  0  0  0  0  0  0  0  0  0  0
   -2.9419   -0.1340    0.0000 C   0  0  0  0  0  0  0  0  0  0  0  0
   -1.8654   -1.1786    0.0000 C   0  0  0  0  0  0  0  0  0  0  0  0
   -1.4990    0.2760    0.0000 C   0  0  0  0  0  0  0  0  0  0  0  0
   -0.4225   -0.7686    0.0000 C   0  0  0  0  0  0  0  0  0  0  0  0
    1.0204   -0.3585    0.0000 C   0  0  0  0  0  0  0  0  0  0  0  0
    2.0969   -1.4031    0.0000 O   0  0  0  0  0  0  0  0  0  0  0  0
    1.3867    1.0961    0.0000 C   0  0  0  0  0  0  0  0  0  0  0  0
    2.5665    0.1698    0.0000 C   0  0  0  0  0  0  0  0  0  0  0  0
  2  1  1  6
  2  3  1  0
  3  4  1  0
  4  5  1  0
  5  6  2  0
  5  7  1  0
  2  8  1  0
  8  9  1  6
  9 10  1  0
 11 10  1  6
 11 12  1  0
 12 13  1  1
 13 14  1  0
 15 14  1  1
 15 16  1  0
 16 17  1  0
 17 18  1  1
 17 19  1  0
 19 20  1  6
 19 21  1  0
 21 22  1  0
 22 23  1  6
 22 24  1  0
 24 25  1  6
 25 26  1  0
 26 27  1  1
 26 28  1  0
 28 29  1  6
 28  8  1  0
 28 11  1  0
 24 12  1  0
 22 15  1  0
M  END
>  <MS_ID>  (3619) 
MS3942

>  <SMILES>  (3619) 
C[C@H](CCC(=O)O)[C@H]1CC[C@H]2[C@@H]3CC[C@@H]4C[C@H](O)[C@@H](O)C[C@]4(C)[C@H]3C[C@H](O)[C@]12C

>  <Structure_dimension>  (3619) 
2D

$$$$
MS3945
     RDKit          2D

 39 43  0  0  0  0  0  0  0  0999 V2000
   -0.5088   -4.9074    0.0000 C   0  0  0  0  0  0  0  0  0  0  0  0
    0.0388   -3.5110    0.0000 C   0  0  0  0  0  0  0  0  0  0  0  0
   -0.8968   -2.3385    0.0000 C   0  0  0  0  0  0  0  0  0  0  0  0
   -2.3800   -2.5625    0.0000 C   0  0  0  0  0  0  0  0  0  0  0  0
   -3.3155   -1.3900    0.0000 C   0  0  0  0  0  0  0  0  0  0  0  0
   -2.7679    0.0065    0.0000 O   0  0  0  0  0  0  0  0  0  0  0  0
   -4.7987   -1.6140    0.0000 N   0  0  0  0  0  0  0  0  0  0  0  0
   -5.7343   -0.4415    0.0000 C   0  0  0  0  0  0  0  0  0  0  0  0
   -7.2174   -0.6654    0.0000 C   0  0  0  0  0  0  0  0  0  0  0  0
   -8.1530    0.5070    0.0000 C   0  0  0  0  0  0  0  0  0  0  0  0
   -7.6054    1.9035    0.0000 C   0  0  0  0  0  0  0  0  0  0  0  0
   -8.5410    3.0760    0.0000 C   0  0  0  0  0  0  0  0  0  0  0  0
  -10.0241    2.8520    0.0000 C   0  0  0  0  0  0  0  0  0  0  0  0
  -10.5718    1.4555    0.0000 C   0  0  0  0  0  0  0  0  0  0  0  0
   -9.6362    0.2831    0.0000 C   0  0  0  0  0  0  0  0  0  0  0  0
   -5.1866    0.9550    0.0000 C   0  0  0  0  0  0  0  0  0  0  0  0
   -3.7035    1.1790    0.0000 O   0  0  0  0  0  0  0  0  0  0  0  0
   -6.1222    2.1275    0.0000 O   0  0  0  0  0  0  0  0  0  0  0  0
    1.5220   -3.2870    0.0000 C   0  0  0  0  0  0  0  0  0  0  0  0
    2.5750   -4.3553    0.0000 C   0  0  0  0  0  0  0  0  0  0  0  0
    3.9164   -3.6839    0.0000 C   0  0  0  0  0  0  0  0  0  0  0  0
    3.6924   -2.2007    0.0000 C   0  0  0  0  0  0  0  0  0  0  0  0
    4.6447   -1.0418    0.0000 C   0  0  0  0  0  0  0  0  0  0  0  0
    6.1245   -1.2871    0.0000 C   0  0  0  0  0  0  0  0  0  0  0  0
    7.0769   -0.1283    0.0000 C   0  0  0  0  0  0  0  0  0  0  0  0
    8.5567   -0.3736    0.0000 O   0  0  0  0  0  0  0  0  0  0  0  0
    6.5494    1.2760    0.0000 C   0  0  0  0  0  0  0  0  0  0  0  0
    7.5018    2.4348    0.0000 C   0  0  0  0  0  0  0  0  0  0  0  0
    6.9743    3.8390    0.0000 C   0  0  0  0  0  0  0  0  0  0  0  0
    7.9267    4.9979    0.0000 O   0  0  0  0  0  0  0  0  0  0  0  0
    5.4945    4.0844    0.0000 C   0  0  0  0  0  0  0  0  0  0  0  0
    4.5422    2.9255    0.0000 C   0  0  0  0  0  0  0  0  0  0  0  0
    5.0696    1.5213    0.0000 C   0  0  0  0  0  0  0  0  0  0  0  0
    3.5898    1.7666    0.0000 C   0  0  0  0  0  0  0  0  0  0  0  0
    4.1173    0.3624    0.0000 C   0  0  0  0  0  0  0  0  0  0  0  0
    2.6375    0.6077    0.0000 C   0  0  0  0  0  0  0  0  0  0  0  0
    1.6851   -0.5512    0.0000 C   0  0  0  0  0  0  0  0  0  0  0  0
    2.2126   -1.9554    0.0000 C   0  0  0  0  0  0  0  0  0  0  0  0
    0.7152   -1.8661    0.0000 C   0  0  0  0  0  0  0  0  0  0  0  0
  2  1  1  6
  2  3  1  0
  3  4  1  0
  4  5  1  0
  5  6  2  0
  5  7  1  0
  7  8  1  0
  8  9  1  1
  9 10  1  0
 10 11  2  0
 11 12  1  0
 12 13  2  0
 13 14  1  0
 14 15  2  0
  8 16  1  0
 16 17  2  0
 16 18  1  0
  2 19  1  0
 19 20  1  6
 20 21  1  0
 22 21  1  6
 22 23  1  0
 23 24  1  1
 24 25  1  0
 25 26  1  1
 25 27  1  0
 27 28  1  1
 28 29  1  0
 29 30  1  1
 29 31  1  0
 31 32  1  0
 32 33  1  0
 33 34  1  6
 33 35  1  0
 35 36  1  6
 36 37  1  0
 37 38  1  0
 38 39  1  6
 15 10  1  0
 38 19  1  0
 38 22  1  0
 35 23  1  0
 33 27  1  0
M  END
>  <MS_ID>  (3620) 
MS3945

>  <SMILES>  (3620) 
C[C@H](CCC(=O)N[C@@H](Cc1ccccc1)C(=O)O)[C@H]1CC[C@H]2[C@@H]3C[C@H](O)[C@@H]4C[C@H](O)CC[C@]4(C)[C@H]3CC[C@]12C

>  <Structure_dimension>  (3620) 
2D

$$$$
MS3947
     RDKit          2D

 37 41  0  0  0  0  0  0  0  0999 V2000
   -0.6929   -4.8292    0.0000 C   0  0  0  0  0  0  0  0  0  0  0  0
   -0.1020   -3.4505    0.0000 C   0  0  0  0  0  0  0  0  0  0  0  0
   -1.0006   -2.2494    0.0000 C   0  0  0  0  0  0  0  0  0  0  0  0
   -2.4901   -2.4271    0.0000 C   0  0  0  0  0  0  0  0  0  0  0  0
   -3.3886   -1.2260    0.0000 C   0  0  0  0  0  0  0  0  0  0  0  0
   -2.7978    0.1527    0.0000 O   0  0  0  0  0  0  0  0  0  0  0  0
   -4.8781   -1.4037    0.0000 N   0  0  0  0  0  0  0  0  0  0  0  0
   -5.7766   -0.2026    0.0000 C   0  0  0  0  0  0  0  0  0  0  0  0
   -7.2661   -0.3802    0.0000 C   0  0  0  0  0  0  0  0  0  0  0  0
   -8.1647    0.8208    0.0000 C   0  0  0  0  0  0  0  0  0  0  0  0
   -9.6645    0.7998    0.0000 C   0  0  0  0  0  0  0  0  0  0  0  0
  -10.1479    2.2198    0.0000 N   0  0  0  0  0  0  0  0  0  0  0  0
   -8.9469    3.1184    0.0000 C   0  0  0  0  0  0  0  0  0  0  0  0
   -7.7211    2.2538    0.0000 N   0  0  0  0  0  0  0  0  0  0  0  0
   -5.1858    1.1761    0.0000 C   0  0  0  0  0  0  0  0  0  0  0  0
   -3.6963    1.3538    0.0000 O   0  0  0  0  0  0  0  0  0  0  0  0
   -6.0843    2.3772    0.0000 O   0  0  0  0  0  0  0  0  0  0  0  0
    1.3874   -3.2729    0.0000 C   0  0  0  0  0  0  0  0  0  0  0  0
    2.4066   -4.3734    0.0000 C   0  0  0  0  0  0  0  0  0  0  0  0
    3.7682   -3.7442    0.0000 C   0  0  0  0  0  0  0  0  0  0  0  0
    3.5906   -2.2548    0.0000 C   0  0  0  0  0  0  0  0  0  0  0  0
    4.5786   -1.1261    0.0000 C   0  0  0  0  0  0  0  0  0  0  0  0
    6.0500   -1.4174    0.0000 C   0  0  0  0  0  0  0  0  0  0  0  0
    7.0380   -0.2888    0.0000 C   0  0  0  0  0  0  0  0  0  0  0  0
    6.5546    1.1312    0.0000 C   0  0  0  0  0  0  0  0  0  0  0  0
    7.5426    2.2598    0.0000 C   0  0  0  0  0  0  0  0  0  0  0  0
    7.0592    3.6798    0.0000 C   0  0  0  0  0  0  0  0  0  0  0  0
    8.0472    4.8085    0.0000 O   0  0  0  0  0  0  0  0  0  0  0  0
    5.5877    3.9711    0.0000 C   0  0  0  0  0  0  0  0  0  0  0  0
    4.5997    2.8425    0.0000 C   0  0  0  0  0  0  0  0  0  0  0  0
    5.0832    1.4225    0.0000 C   0  0  0  0  0  0  0  0  0  0  0  0
    3.6117    1.7138    0.0000 C   0  0  0  0  0  0  0  0  0  0  0  0
    4.0952    0.2939    0.0000 C   0  0  0  0  0  0  0  0  0  0  0  0
    2.6237    0.5852    0.0000 C   0  0  0  0  0  0  0  0  0  0  0  0
    1.6357   -0.5435    0.0000 C   0  0  0  0  0  0  0  0  0  0  0  0
    2.1192   -1.9634    0.0000 C   0  0  0  0  0  0  0  0  0  0  0  0
    0.6253   -1.8275    0.0000 C   0  0  0  0  0  0  0  0  0  0  0  0
  2  1  1  6
  2  3  1  0
  3  4  1  0
  4  5  1  0
  5  6  2  0
  5  7  1  0
  7  8  1  0
  8  9  1  1
  9 10  1  0
 10 11  2  0
 11 12  1  0
 12 13  2  0
 13 14  1  0
  8 15  1  0
 15 16  2  0
 15 17  1  0
  2 18  1  0
 18 19  1  6
 19 20  1  0
 21 20  1  6
 21 22  1  0
 22 23  1  1
 23 24  1  0
 25 24  1  1
 25 26  1  0
 26 27  1  0
 27 28  1  1
 27 29  1  0
 29 30  1  0
 30 31  1  0
 31 32  1  6
 31 33  1  0
 33 34  1  6
 34 35  1  0
 35 36  1  0
 36 37  1  6
 14 10  1  0
 36 18  1  0
 36 21  1  0
 33 22  1  0
 31 25  1  0
M  END
>  <MS_ID>  (3621) 
MS3947

>  <SMILES>  (3621) 
C[C@H](CCC(=O)N[C@@H](Cc1cnc[nH]1)C(=O)O)[C@H]1CC[C@H]2[C@@H]3CC[C@@H]4C[C@H](O)CC[C@]4(C)[C@H]3CC[C@]12C

>  <Structure_dimension>  (3621) 
2D

$$$$
MS3948
     RDKit          2D

 35 39  0  0  0  0  0  0  0  0999 V2000
   -2.4126   -4.6430    0.0000 C   0  0  0  0  0  0  0  0  0  0  0  0
   -1.6799   -3.3341    0.0000 C   0  0  0  0  0  0  0  0  0  0  0  0
   -2.4471   -2.0452    0.0000 C   0  0  0  0  0  0  0  0  0  0  0  0
   -3.9470   -2.0651    0.0000 C   0  0  0  0  0  0  0  0  0  0  0  0
   -4.7142   -0.7762    0.0000 C   0  0  0  0  0  0  0  0  0  0  0  0
   -6.2141   -0.7961    0.0000 O   0  0  0  0  0  0  0  0  0  0  0  0
   -3.9816    0.5327    0.0000 O   0  0  0  0  0  0  0  0  0  0  0  0
   -4.7488    1.8217    0.0000 N   0  0  0  0  0  0  0  0  0  0  0  0
   -6.2425    1.9586    0.0000 C   0  0  0  0  0  0  0  0  0  0  0  0
   -7.2313    0.8307    0.0000 O   0  0  0  0  0  0  0  0  0  0  0  0
   -6.5738    3.4216    0.0000 C   0  0  0  0  0  0  0  0  0  0  0  0
   -5.2849    4.1888    0.0000 C   0  0  0  0  0  0  0  0  0  0  0  0
   -4.1569    3.2000    0.0000 C   0  0  0  0  0  0  0  0  0  0  0  0
   -2.6940    3.5313    0.0000 O   0  0  0  0  0  0  0  0  0  0  0  0
   -0.1801   -3.3142    0.0000 C   0  0  0  0  0  0  0  0  0  0  0  0
    0.7177   -4.5159    0.0000 C   0  0  0  0  0  0  0  0  0  0  0  0
    2.1380   -4.0334    0.0000 C   0  0  0  0  0  0  0  0  0  0  0  0
    2.1180   -2.5335    0.0000 C   0  0  0  0  0  0  0  0  0  0  0  0
    3.2193   -1.5151    0.0000 C   0  0  0  0  0  0  0  0  0  0  0  0
    4.6519   -1.9596    0.0000 C   0  0  0  0  0  0  0  0  0  0  0  0
    5.7532   -0.9412    0.0000 C   0  0  0  0  0  0  0  0  0  0  0  0
    5.4218    0.5217    0.0000 C   0  0  0  0  0  0  0  0  0  0  0  0
    6.5231    1.5402    0.0000 C   0  0  0  0  0  0  0  0  0  0  0  0
    6.1918    3.0031    0.0000 C   0  0  0  0  0  0  0  0  0  0  0  0
    7.2930    4.0215    0.0000 O   0  0  0  0  0  0  0  0  0  0  0  0
    4.7591    3.4476    0.0000 C   0  0  0  0  0  0  0  0  0  0  0  0
    3.6579    2.4292    0.0000 C   0  0  0  0  0  0  0  0  0  0  0  0
    3.9892    0.9663    0.0000 C   0  0  0  0  0  0  0  0  0  0  0  0
    2.5566    1.4108    0.0000 C   0  0  0  0  0  0  0  0  0  0  0  0
    2.8879   -0.0522    0.0000 C   0  0  0  0  0  0  0  0  0  0  0  0
    1.4553    0.3923    0.0000 C   0  0  0  0  0  0  0  0  0  0  0  0
    0.3540   -0.6261    0.0000 C   0  0  0  0  0  0  0  0  0  0  0  0
   -1.0786   -0.1816    0.0000 O   0  0  0  0  0  0  0  0  0  0  0  0
    0.6854   -2.0890    0.0000 C   0  0  0  0  0  0  0  0  0  0  0  0
   -0.7858   -1.7967    0.0000 C   0  0  0  0  0  0  0  0  0  0  0  0
  2  1  1  6
  2  3  1  0
  3  4  1  0
  4  5  1  0
  5  6  2  0
  5  7  1  0
  7  8  1  0
  8  9  1  0
  9 10  1  0
  9 11  2  0
 11 12  1  0
 12 13  2  0
 13 14  1  0
  2 15  1  0
 15 16  1  6
 16 17  1  0
 18 17  1  6
 18 19  1  0
 19 20  1  1
 20 21  1  0
 22 21  1  1
 22 23  1  0
 23 24  1  0
 24 25  1  1
 24 26  1  0
 26 27  1  0
 27 28  1  0
 28 29  1  6
 28 30  1  0
 30 31  1  6
 31 32  1  0
 32 33  1  1
 32 34  1  0
 34 35  1  6
 13  8  1  0
 34 15  1  0
 34 18  1  0
 30 19  1  0
 28 22  1  0
M  END
>  <MS_ID>  (3622) 
MS3948

>  <SMILES>  (3622) 
C[C@H](CCC(=O)On1c(O)ccc1O)[C@H]1CC[C@H]2[C@@H]3CC[C@@H]4C[C@H](O)CC[C@]4(C)[C@H]3C[C@H](O)[C@]12C

>  <Structure_dimension>  (3622) 
2D

$$$$
MS3955
     RDKit          2D

 31 34  0  0  0  0  0  0  0  0999 V2000
   -8.8672    3.1400    0.0000 C   0  0  0  0  0  0  0  0  0  0  0  0
   -7.3980    2.8376    0.0000 C   0  0  0  0  0  0  0  0  0  0  0  0
   -6.9253    1.4140    0.0000 O   0  0  0  0  0  0  0  0  0  0  0  0
   -5.4561    1.1115    0.0000 C   0  0  0  0  0  0  0  0  0  0  0  0
   -4.4596    2.2326    0.0000 O   0  0  0  0  0  0  0  0  0  0  0  0
   -4.9835   -0.3121    0.0000 C   0  0  0  0  0  0  0  0  0  0  0  0
   -3.5143   -0.6145    0.0000 C   0  0  0  0  0  0  0  0  0  0  0  0
   -3.0416   -2.0381    0.0000 C   0  0  0  0  0  0  0  0  0  0  0  0
   -4.0382   -3.1592    0.0000 C   0  0  0  0  0  0  0  0  0  0  0  0
   -1.5724   -2.3406    0.0000 C   0  0  0  0  0  0  0  0  0  0  0  0
   -0.9536   -3.7070    0.0000 C   0  0  0  0  0  0  0  0  0  0  0  0
    0.5372   -3.5406    0.0000 C   0  0  0  0  0  0  0  0  0  0  0  0
    0.8396   -2.0714    0.0000 C   0  0  0  0  0  0  0  0  0  0  0  0
    2.1338   -1.3131    0.0000 C   0  0  0  0  0  0  0  0  0  0  0  0
    3.4377   -2.0548    0.0000 C   0  0  0  0  0  0  0  0  0  0  0  0
    3.4473   -3.5547    0.0000 O   0  0  0  0  0  0  0  0  0  0  0  0
    4.7319   -1.2965    0.0000 C   0  0  0  0  0  0  0  0  0  0  0  0
    4.7223    0.2035    0.0000 C   0  0  0  0  0  0  0  0  0  0  0  0
    6.0165    0.9618    0.0000 C   0  0  0  0  0  0  0  0  0  0  0  0
    6.0069    2.4618    0.0000 C   0  0  0  0  0  0  0  0  0  0  0  0
    7.3011    3.2201    0.0000 O   0  0  0  0  0  0  0  0  0  0  0  0
    4.7030    3.2034    0.0000 C   0  0  0  0  0  0  0  0  0  0  0  0
    3.4088    2.4451    0.0000 C   0  0  0  0  0  0  0  0  0  0  0  0
    3.4184    0.9452    0.0000 C   0  0  0  0  0  0  0  0  0  0  0  0
    2.1146    1.6868    0.0000 C   0  0  0  0  0  0  0  0  0  0  0  0
    2.1242    0.1869    0.0000 C   0  0  0  0  0  0  0  0  0  0  0  0
    0.8204    0.9285    0.0000 C   0  0  0  0  0  0  0  0  0  0  0  0
   -0.4738    0.1702    0.0000 C   0  0  0  0  0  0  0  0  0  0  0  0
   -1.7776    0.9119    0.0000 O   0  0  0  0  0  0  0  0  0  0  0  0
   -0.4642   -1.3298    0.0000 C   0  0  0  0  0  0  0  0  0  0  0  0
   -1.8384   -0.7284    0.0000 C   0  0  0  0  0  0  0  0  0  0  0  0
  1  2  1  0
  2  3  1  0
  3  4  1  0
  4  5  2  0
  4  6  1  0
  6  7  1  0
  7  8  1  0
  8  9  1  6
  8 10  1  0
 10 11  1  6
 11 12  1  0
 13 12  1  6
 13 14  1  0
 14 15  1  1
 15 16  1  1
 15 17  1  0
 18 17  1  6
 18 19  1  0
 19 20  1  0
 20 21  1  6
 20 22  1  0
 22 23  1  0
 23 24  1  0
 24 25  1  6
 24 26  1  0
 26 27  1  6
 27 28  1  0
 28 29  1  1
 28 30  1  0
 30 31  1  6
 30 10  1  0
 30 13  1  0
 26 14  1  0
 24 18  1  0
M  END
>  <MS_ID>  (3623) 
MS3955

>  <SMILES>  (3623) 
CCOC(=O)CC[C@@H](C)[C@H]1CC[C@H]2[C@@H]3[C@H](O)C[C@H]4C[C@@H](O)CC[C@]4(C)[C@H]3C[C@H](O)[C@]12C

>  <Structure_dimension>  (3623) 
2D

$$$$
MS3956
     RDKit          2D

 29 32  0  0  0  0  0  0  0  0999 V2000
   -5.2182   -2.1453    0.0000 C   0  0  0  0  0  0  0  0  0  0  0  0
   -4.0752   -1.1739    0.0000 C   0  0  0  0  0  0  0  0  0  0  0  0
   -4.3449    0.3016    0.0000 C   0  0  0  0  0  0  0  0  0  0  0  0
   -5.7577    0.8058    0.0000 C   0  0  0  0  0  0  0  0  0  0  0  0
   -6.0274    2.2814    0.0000 C   0  0  0  0  0  0  0  0  0  0  0  0
   -4.8843    3.2527    0.0000 O   0  0  0  0  0  0  0  0  0  0  0  0
   -7.4401    2.7856    0.0000 O   0  0  0  0  0  0  0  0  0  0  0  0
   -2.6625   -1.6782    0.0000 C   0  0  0  0  0  0  0  0  0  0  0  0
   -2.2400   -3.1174    0.0000 C   0  0  0  0  0  0  0  0  0  0  0  0
   -0.7407   -3.1604    0.0000 C   0  0  0  0  0  0  0  0  0  0  0  0
   -0.2364   -1.7477    0.0000 C   0  0  0  0  0  0  0  0  0  0  0  0
    1.1508   -1.1771    0.0000 C   0  0  0  0  0  0  0  0  0  0  0  0
    2.3386   -2.0932    0.0000 C   0  0  0  0  0  0  0  0  0  0  0  0
    2.1391   -3.5798    0.0000 O   0  0  0  0  0  0  0  0  0  0  0  0
    3.7258   -1.5226    0.0000 C   0  0  0  0  0  0  0  0  0  0  0  0
    4.9136   -2.4386    0.0000 O   0  0  0  0  0  0  0  0  0  0  0  0
    3.9253   -0.0359    0.0000 C   0  0  0  0  0  0  0  0  0  0  0  0
    5.3125    0.5347    0.0000 C   0  0  0  0  0  0  0  0  0  0  0  0
    5.5119    2.0214    0.0000 C   0  0  0  0  0  0  0  0  0  0  0  0
    6.8992    2.5920    0.0000 O   0  0  0  0  0  0  0  0  0  0  0  0
    4.3242    2.9375    0.0000 C   0  0  0  0  0  0  0  0  0  0  0  0
    2.9369    2.3669    0.0000 C   0  0  0  0  0  0  0  0  0  0  0  0
    2.7375    0.8802    0.0000 C   0  0  0  0  0  0  0  0  0  0  0  0
    1.5497    1.7963    0.0000 C   0  0  0  0  0  0  0  0  0  0  0  0
    1.3502    0.3096    0.0000 C   0  0  0  0  0  0  0  0  0  0  0  0
    0.1625    1.2257    0.0000 C   0  0  0  0  0  0  0  0  0  0  0  0
   -1.2248    0.6551    0.0000 C   0  0  0  0  0  0  0  0  0  0  0  0
   -1.4242   -0.8316    0.0000 C   0  0  0  0  0  0  0  0  0  0  0  0
   -2.7012   -0.0447    0.0000 C   0  0  0  0  0  0  0  0  0  0  0  0
  2  1  1  6
  2  3  1  0
  3  4  1  0
  4  5  1  0
  5  6  2  0
  5  7  1  0
  2  8  1  0
  8  9  1  6
  9 10  1  0
 11 10  1  6
 11 12  1  0
 12 13  1  1
 13 14  1  6
 13 15  1  0
 15 16  1  1
 15 17  1  0
 17 18  1  1
 18 19  1  0
 19 20  1  6
 19 21  1  0
 21 22  1  0
 22 23  1  0
 23 24  1  6
 23 25  1  0
 25 26  1  6
 26 27  1  0
 27 28  1  0
 28 29  1  6
 28  8  1  0
 28 11  1  0
 25 12  1  0
 23 17  1  0
M  END
>  <MS_ID>  (3624) 
MS3956

>  <SMILES>  (3624) 
C[C@H](CCC(=O)O)[C@H]1CC[C@H]2[C@@H]3[C@@H](O)[C@H](O)[C@@H]4C[C@@H](O)CC[C@]4(C)[C@H]3CC[C@]12C

>  <Structure_dimension>  (3624) 
2D

$$$$
MS3958
     RDKit          2D

 29 32  0  0  0  0  0  0  0  0999 V2000
   -5.0303   -2.1373    0.0000 C   0  0  0  0  0  0  0  0  0  0  0  0
   -3.8594   -1.1998    0.0000 C   0  0  0  0  0  0  0  0  0  0  0  0
   -4.0858    0.2830    0.0000 C   0  0  0  0  0  0  0  0  0  0  0  0
   -5.4831    0.8284    0.0000 C   0  0  0  0  0  0  0  0  0  0  0  0
   -5.7095    2.3112    0.0000 C   0  0  0  0  0  0  0  0  0  0  0  0
   -4.5386    3.2487    0.0000 O   0  0  0  0  0  0  0  0  0  0  0  0
   -7.1069    2.8565    0.0000 O   0  0  0  0  0  0  0  0  0  0  0  0
   -2.4620   -1.7451    0.0000 C   0  0  0  0  0  0  0  0  0  0  0  0
   -2.0818   -3.1961    0.0000 C   0  0  0  0  0  0  0  0  0  0  0  0
   -0.5844   -3.2830    0.0000 C   0  0  0  0  0  0  0  0  0  0  0  0
   -0.0390   -1.8856    0.0000 C   0  0  0  0  0  0  0  0  0  0  0  0
    1.3643   -1.3559    0.0000 C   0  0  0  0  0  0  0  0  0  0  0  0
    2.5248   -2.3063    0.0000 C   0  0  0  0  0  0  0  0  0  0  0  0
    2.2819   -3.7865    0.0000 O   0  0  0  0  0  0  0  0  0  0  0  0
    3.9281   -1.7765    0.0000 C   0  0  0  0  0  0  0  0  0  0  0  0
    4.1710   -0.2963    0.0000 C   0  0  0  0  0  0  0  0  0  0  0  0
    5.5743    0.2334    0.0000 C   0  0  0  0  0  0  0  0  0  0  0  0
    5.8172    1.7136    0.0000 C   0  0  0  0  0  0  0  0  0  0  0  0
    7.2205    2.2434    0.0000 O   0  0  0  0  0  0  0  0  0  0  0  0
    4.6568    2.6641    0.0000 C   0  0  0  0  0  0  0  0  0  0  0  0
    3.2534    2.1343    0.0000 C   0  0  0  0  0  0  0  0  0  0  0  0
    3.0105    0.6541    0.0000 C   0  0  0  0  0  0  0  0  0  0  0  0
    1.8501    1.6046    0.0000 C   0  0  0  0  0  0  0  0  0  0  0  0
    1.6072    0.1244    0.0000 C   0  0  0  0  0  0  0  0  0  0  0  0
    0.4467    1.0748    0.0000 C   0  0  0  0  0  0  0  0  0  0  0  0
   -0.9566    0.5450    0.0000 C   0  0  0  0  0  0  0  0  0  0  0  0
   -2.1170    1.4955    0.0000 O   0  0  0  0  0  0  0  0  0  0  0  0
   -1.1995   -0.9352    0.0000 C   0  0  0  0  0  0  0  0  0  0  0  0
   -2.4529   -0.1112    0.0000 C   0  0  0  0  0  0  0  0  0  0  0  0
  2  1  1  1
  2  3  1  0
  3  4  1  0
  4  5  1  0
  5  6  2  0
  5  7  1  0
  2  8  1  0
  8  9  1  6
  9 10  1  0
 11 10  1  6
 11 12  1  0
 12 13  1  1
 13 14  1  1
 13 15  1  0
 16 15  1  1
 16 17  1  0
 17 18  1  0
 18 19  1  1
 18 20  1  0
 20 21  1  0
 21 22  1  0
 22 23  1  6
 22 24  1  0
 24 25  1  6
 25 26  1  0
 26 27  1  6
 26 28  1  0
 28 29  1  6
 28  8  1  0
 28 11  1  0
 24 12  1  0
 22 16  1  0
M  END
>  <MS_ID>  (3625) 
MS3958

>  <SMILES>  (3625) 
C[C@@H](CCC(=O)O)[C@H]1CC[C@H]2[C@@H]3[C@H](O)C[C@@H]4C[C@H](O)CC[C@]4(C)[C@H]3C[C@@H](O)[C@]12C

>  <Structure_dimension>  (3625) 
2D

$$$$
MS3962
     RDKit          2D

 31 34  0  0  0  0  0  0  0  0999 V2000
   -3.0989   -3.6972    0.0000 C   0  0  0  0  0  0  0  0  0  0  0  0
   -2.1883   -2.5051    0.0000 C   0  0  0  0  0  0  0  0  0  0  0  0
   -2.7654   -1.1206    0.0000 C   0  0  0  0  0  0  0  0  0  0  0  0
   -4.2530   -0.9280    0.0000 C   0  0  0  0  0  0  0  0  0  0  0  0
   -4.8300    0.4565    0.0000 C   0  0  0  0  0  0  0  0  0  0  0  0
   -3.9195    1.6486    0.0000 O   0  0  0  0  0  0  0  0  0  0  0  0
   -6.3176    0.6491    0.0000 N   0  0  0  0  0  0  0  0  0  0  0  0
   -6.8947    2.0336    0.0000 C   0  0  0  0  0  0  0  0  0  0  0  0
   -8.3823    2.2261    0.0000 C   0  0  0  0  0  0  0  0  0  0  0  0
   -9.2928    1.0341    0.0000 O   0  0  0  0  0  0  0  0  0  0  0  0
   -8.9593    3.6107    0.0000 O   0  0  0  0  0  0  0  0  0  0  0  0
   -0.7007   -2.6977    0.0000 C   0  0  0  0  0  0  0  0  0  0  0  0
    0.0179   -4.0143    0.0000 C   0  0  0  0  0  0  0  0  0  0  0  0
    1.4922   -3.7377    0.0000 C   0  0  0  0  0  0  0  0  0  0  0  0
    1.6847   -2.2501    0.0000 C   0  0  0  0  0  0  0  0  0  0  0  0
    2.9190   -1.3978    0.0000 C   0  0  0  0  0  0  0  0  0  0  0  0
    4.2743   -2.0406    0.0000 C   0  0  0  0  0  0  0  0  0  0  0  0
    5.5086   -1.1883    0.0000 C   0  0  0  0  0  0  0  0  0  0  0  0
    5.3877    0.3068    0.0000 C   0  0  0  0  0  0  0  0  0  0  0  0
    6.6220    1.1591    0.0000 C   0  0  0  0  0  0  0  0  0  0  0  0
    6.5010    2.6542    0.0000 C   0  0  0  0  0  0  0  0  0  0  0  0
    7.7354    3.5066    0.0000 O   0  0  0  0  0  0  0  0  0  0  0  0
    5.1457    3.2970    0.0000 C   0  0  0  0  0  0  0  0  0  0  0  0
    3.9114    2.4447    0.0000 C   0  0  0  0  0  0  0  0  0  0  0  0
    4.0324    0.9496    0.0000 C   0  0  0  0  0  0  0  0  0  0  0  0
    2.6771    1.5924    0.0000 C   0  0  0  0  0  0  0  0  0  0  0  0
    2.7981    0.0973    0.0000 C   0  0  0  0  0  0  0  0  0  0  0  0
    1.4428    0.7401    0.0000 C   0  0  0  0  0  0  0  0  0  0  0  0
    0.2084   -0.1122    0.0000 C   0  0  0  0  0  0  0  0  0  0  0  0
    0.3294   -1.6073    0.0000 C   0  0  0  0  0  0  0  0  0  0  0  0
   -1.0856   -1.1097    0.0000 C   0  0  0  0  0  0  0  0  0  0  0  0
  2  1  1  1
  2  3  1  0
  3  4  1  0
  4  5  1  0
  5  6  2  0
  5  7  1  0
  7  8  1  0
  8  9  1  0
  9 10  2  0
  9 11  1  0
  2 12  1  0
 12 13  1  6
 13 14  1  0
 15 14  1  6
 15 16  1  0
 16 17  1  1
 17 18  1  0
 19 18  1  1
 19 20  1  0
 20 21  1  0
 21 22  1  1
 21 23  1  0
 23 24  1  0
 24 25  1  0
 25 26  1  6
 25 27  1  0
 27 28  1  6
 28 29  1  0
 29 30  1  0
 30 31  1  6
 30 12  1  0
 30 15  1  0
 27 16  1  0
 25 19  1  0
M  END
>  <MS_ID>  (3626) 
MS3962

>  <SMILES>  (3626) 
C[C@@H](CCC(=O)NCC(=O)O)[C@H]1CC[C@H]2[C@@H]3CC[C@@H]4C[C@H](O)CC[C@]4(C)[C@H]3CC[C@]12C

>  <Structure_dimension>  (3626) 
2D

$$$$
MS3963
     RDKit          2D

 37 40  0  0  0  0  0  0  0  0999 V2000
   -1.1640   -4.6692    0.0000 C   0  0  0  0  0  0  0  0  0  0  0  0
   -0.5361   -3.3070    0.0000 C   0  0  0  0  0  0  0  0  0  0  0  0
   -1.4018   -2.0821    0.0000 C   0  0  0  0  0  0  0  0  0  0  0  0
   -2.8955   -2.2193    0.0000 C   0  0  0  0  0  0  0  0  0  0  0  0
   -3.7613   -0.9944    0.0000 C   0  0  0  0  0  0  0  0  0  0  0  0
   -3.1333    0.3678    0.0000 O   0  0  0  0  0  0  0  0  0  0  0  0
   -5.2550   -1.1317    0.0000 N   0  0  0  0  0  0  0  0  0  0  0  0
   -6.1207    0.0933    0.0000 C   0  0  0  0  0  0  0  0  0  0  0  0
   -7.6144   -0.0440    0.0000 C   0  0  0  0  0  0  0  0  0  0  0  0
   -8.4802    1.1809    0.0000 C   0  0  0  0  0  0  0  0  0  0  0  0
   -9.9739    1.0436    0.0000 C   0  0  0  0  0  0  0  0  0  0  0  0
  -10.8396    2.2686    0.0000 C   0  0  0  0  0  0  0  0  0  0  0  0
  -12.3333    2.1313    0.0000 N   0  0  0  0  0  0  0  0  0  0  0  0
   -5.4928    1.4555    0.0000 C   0  0  0  0  0  0  0  0  0  0  0  0
   -3.9990    1.5928    0.0000 O   0  0  0  0  0  0  0  0  0  0  0  0
   -6.3585    2.6804    0.0000 O   0  0  0  0  0  0  0  0  0  0  0  0
    0.9576   -3.1697    0.0000 C   0  0  0  0  0  0  0  0  0  0  0  0
    1.9467   -4.2974    0.0000 C   0  0  0  0  0  0  0  0  0  0  0  0
    3.3249   -3.7053    0.0000 C   0  0  0  0  0  0  0  0  0  0  0  0
    3.1876   -2.2116    0.0000 C   0  0  0  0  0  0  0  0  0  0  0  0
    4.2057   -1.1101    0.0000 C   0  0  0  0  0  0  0  0  0  0  0  0
    5.6688   -1.4411    0.0000 C   0  0  0  0  0  0  0  0  0  0  0  0
    6.6869   -0.3396    0.0000 C   0  0  0  0  0  0  0  0  0  0  0  0
    8.1500   -0.6706    0.0000 O   0  0  0  0  0  0  0  0  0  0  0  0
    6.2421    1.0929    0.0000 C   0  0  0  0  0  0  0  0  0  0  0  0
    7.2603    2.1944    0.0000 C   0  0  0  0  0  0  0  0  0  0  0  0
    6.8154    3.6269    0.0000 C   0  0  0  0  0  0  0  0  0  0  0  0
    7.8336    4.7284    0.0000 O   0  0  0  0  0  0  0  0  0  0  0  0
    5.3524    3.9580    0.0000 C   0  0  0  0  0  0  0  0  0  0  0  0
    4.3342    2.8565    0.0000 C   0  0  0  0  0  0  0  0  0  0  0  0
    4.7791    1.4239    0.0000 C   0  0  0  0  0  0  0  0  0  0  0  0
    3.3161    1.7549    0.0000 C   0  0  0  0  0  0  0  0  0  0  0  0
    3.7609    0.3224    0.0000 C   0  0  0  0  0  0  0  0  0  0  0  0
    2.2979    0.6534    0.0000 C   0  0  0  0  0  0  0  0  0  0  0  0
    1.2797   -0.4481    0.0000 C   0  0  0  0  0  0  0  0  0  0  0  0
    1.7245   -1.8806    0.0000 C   0  0  0  0  0  0  0  0  0  0  0  0
    0.2349   -1.7043    0.0000 C   0  0  0  0  0  0  0  0  0  0  0  0
  2  1  1  6
  2  3  1  0
  3  4  1  0
  4  5  1  0
  5  6  2  0
  5  7  1  0
  7  8  1  0
  8  9  1  1
  9 10  1  0
 10 11  1  0
 11 12  1  0
 12 13  1  0
  8 14  1  0
 14 15  2  0
 14 16  1  0
  2 17  1  0
 17 18  1  6
 18 19  1  0
 20 19  1  6
 20 21  1  0
 21 22  1  1
 22 23  1  0
 23 24  1  1
 23 25  1  0
 25 26  1  1
 26 27  1  0
 27 28  1  1
 27 29  1  0
 29 30  1  0
 30 31  1  0
 31 32  1  6
 31 33  1  0
 33 34  1  6
 34 35  1  0
 35 36  1  0
 36 37  1  6
 36 17  1  0
 36 20  1  0
 33 21  1  0
 31 25  1  0
M  END
>  <MS_ID>  (3627) 
MS3963

>  <SMILES>  (3627) 
C[C@H](CCC(=O)N[C@@H](CCCCN)C(=O)O)[C@H]1CC[C@H]2[C@@H]3C[C@H](O)[C@@H]4C[C@H](O)CC[C@]4(C)[C@H]3CC[C@]12C

>  <Structure_dimension>  (3627) 
2D

$$$$
MS3967
     RDKit          2D

 34 37  0  0  0  0  0  0  0  0999 V2000
   -3.2377   -3.6999    0.0000 C   0  0  0  0  0  0  0  0  0  0  0  0
   -2.3801   -2.4692    0.0000 C   0  0  0  0  0  0  0  0  0  0  0  0
   -3.0171   -1.1112    0.0000 C   0  0  0  0  0  0  0  0  0  0  0  0
   -4.5117   -0.9839    0.0000 C   0  0  0  0  0  0  0  0  0  0  0  0
   -5.1487    0.3742    0.0000 C   0  0  0  0  0  0  0  0  0  0  0  0
   -4.2911    1.6048    0.0000 O   0  0  0  0  0  0  0  0  0  0  0  0
   -6.6433    0.5015    0.0000 N   0  0  0  0  0  0  0  0  0  0  0  0
   -7.2803    1.8595    0.0000 C   0  0  0  0  0  0  0  0  0  0  0  0
   -8.7749    1.9869    0.0000 C   0  0  0  0  0  0  0  0  0  0  0  0
   -9.6325    0.7562    0.0000 O   0  0  0  0  0  0  0  0  0  0  0  0
   -9.4119    3.3449    0.0000 O   0  0  0  0  0  0  0  0  0  0  0  0
   -0.8855   -2.5966    0.0000 C   0  0  0  0  0  0  0  0  0  0  0  0
   -0.1101   -3.8806    0.0000 C   0  0  0  0  0  0  0  0  0  0  0  0
    1.3507   -3.5398    0.0000 C   0  0  0  0  0  0  0  0  0  0  0  0
    1.4781   -2.0453    0.0000 C   0  0  0  0  0  0  0  0  0  0  0  0
    2.6740   -1.1398    0.0000 C   0  0  0  0  0  0  0  0  0  0  0  0
    4.0560   -1.7228    0.0000 C   0  0  0  0  0  0  0  0  0  0  0  0
    4.2422   -3.2112    0.0000 O   0  0  0  0  0  0  0  0  0  0  0  0
    5.2519   -0.8174    0.0000 C   0  0  0  0  0  0  0  0  0  0  0  0
    6.6340   -1.4003    0.0000 O   0  0  0  0  0  0  0  0  0  0  0  0
    5.0658    0.6710    0.0000 C   0  0  0  0  0  0  0  0  0  0  0  0
    6.2617    1.5765    0.0000 C   0  0  0  0  0  0  0  0  0  0  0  0
    6.0755    3.0649    0.0000 C   0  0  0  0  0  0  0  0  0  0  0  0
    7.2714    3.9703    0.0000 O   0  0  0  0  0  0  0  0  0  0  0  0
    4.6934    3.6478    0.0000 C   0  0  0  0  0  0  0  0  0  0  0  0
    3.4975    2.7424    0.0000 C   0  0  0  0  0  0  0  0  0  0  0  0
    3.6837    1.2540    0.0000 C   0  0  0  0  0  0  0  0  0  0  0  0
    2.3016    1.8370    0.0000 C   0  0  0  0  0  0  0  0  0  0  0  0
    2.4878    0.3486    0.0000 C   0  0  0  0  0  0  0  0  0  0  0  0
    1.1057    0.9315    0.0000 C   0  0  0  0  0  0  0  0  0  0  0  0
   -0.0902    0.0261    0.0000 C   0  0  0  0  0  0  0  0  0  0  0  0
   -1.4723    0.6091    0.0000 O   0  0  0  0  0  0  0  0  0  0  0  0
    0.0960   -1.4623    0.0000 C   0  0  0  0  0  0  0  0  0  0  0  0
   -1.3395   -1.0270    0.0000 C   0  0  0  0  0  0  0  0  0  0  0  0
  2  1  1  6
  2  3  1  0
  3  4  1  0
  4  5  1  0
  5  6  2  0
  5  7  1  0
  7  8  1  0
  8  9  1  0
  9 10  2  0
  9 11  1  0
  2 12  1  0
 12 13  1  6
 13 14  1  0
 15 14  1  6
 15 16  1  0
 16 17  1  1
 17 18  1  6
 17 19  1  0
 19 20  1  6
 19 21  1  0
 21 22  1  1
 22 23  1  0
 23 24  1  1
 23 25  1  0
 25 26  1  0
 26 27  1  0
 27 28  1  6
 27 29  1  0
 29 30  1  6
 30 31  1  0
 31 32  1  6
 31 33  1  0
 33 34  1  6
 33 12  1  0
 33 15  1  0
 29 16  1  0
 27 21  1  0
M  END
>  <MS_ID>  (3628) 
MS3967

>  <SMILES>  (3628) 
C[C@H](CCC(=O)NCC(=O)O)[C@H]1CC[C@H]2[C@@H]3[C@@H](O)[C@@H](O)[C@@H]4C[C@H](O)CC[C@]4(C)[C@H]3C[C@@H](O)[C@]12C

>  <Structure_dimension>  (3628) 
2D

$$$$
MS3970
     RDKit          2D

 30 33  0  0  0  0  0  0  0  0999 V2000
   -5.1134   -2.2540    0.0000 C   0  0  0  0  0  0  0  0  0  0  0  0
   -3.9811   -1.2701    0.0000 C   0  0  0  0  0  0  0  0  0  0  0  0
   -4.2670    0.2024    0.0000 C   0  0  0  0  0  0  0  0  0  0  0  0
   -5.6852    0.6910    0.0000 C   0  0  0  0  0  0  0  0  0  0  0  0
   -5.9711    2.1635    0.0000 C   0  0  0  0  0  0  0  0  0  0  0  0
   -4.8388    3.1474    0.0000 O   0  0  0  0  0  0  0  0  0  0  0  0
   -7.3892    2.6522    0.0000 O   0  0  0  0  0  0  0  0  0  0  0  0
   -2.5629   -1.7588    0.0000 C   0  0  0  0  0  0  0  0  0  0  0  0
   -2.1247   -3.1933    0.0000 C   0  0  0  0  0  0  0  0  0  0  0  0
   -0.6249   -3.2198    0.0000 C   0  0  0  0  0  0  0  0  0  0  0  0
   -0.1362   -1.8017    0.0000 C   0  0  0  0  0  0  0  0  0  0  0  0
    1.2446   -1.2159    0.0000 C   0  0  0  0  0  0  0  0  0  0  0  0
    2.4424   -2.1188    0.0000 C   0  0  0  0  0  0  0  0  0  0  0  0
    2.2593   -3.6076    0.0000 O   0  0  0  0  0  0  0  0  0  0  0  0
    3.8233   -1.5330    0.0000 C   0  0  0  0  0  0  0  0  0  0  0  0
    5.0210   -2.4360    0.0000 O   0  0  0  0  0  0  0  0  0  0  0  0
    4.0064   -0.0442    0.0000 C   0  0  0  0  0  0  0  0  0  0  0  0
    5.3873    0.5416    0.0000 C   0  0  0  0  0  0  0  0  0  0  0  0
    5.5704    2.0303    0.0000 C   0  0  0  0  0  0  0  0  0  0  0  0
    6.9513    2.6161    0.0000 O   0  0  0  0  0  0  0  0  0  0  0  0
    4.3726    2.9333    0.0000 C   0  0  0  0  0  0  0  0  0  0  0  0
    2.9918    2.3475    0.0000 C   0  0  0  0  0  0  0  0  0  0  0  0
    2.8086    0.8587    0.0000 C   0  0  0  0  0  0  0  0  0  0  0  0
    1.6109    1.7617    0.0000 C   0  0  0  0  0  0  0  0  0  0  0  0
    1.4278    0.2729    0.0000 C   0  0  0  0  0  0  0  0  0  0  0  0
    0.2300    1.1759    0.0000 C   0  0  0  0  0  0  0  0  0  0  0  0
   -1.1509    0.5901    0.0000 C   0  0  0  0  0  0  0  0  0  0  0  0
   -2.3486    1.4931    0.0000 O   0  0  0  0  0  0  0  0  0  0  0  0
   -1.3340   -0.8987    0.0000 C   0  0  0  0  0  0  0  0  0  0  0  0
   -2.6196   -0.1258    0.0000 C   0  0  0  0  0  0  0  0  0  0  0  0
  2  1  1  6
  2  3  1  0
  3  4  1  0
  4  5  1  0
  5  6  2  0
  5  7  1  0
  2  8  1  0
  8  9  1  6
  9 10  1  0
 11 10  1  6
 11 12  1  0
 12 13  1  1
 13 14  1  1
 13 15  1  0
 15 16  1  6
 15 17  1  0
 17 18  1  1
 18 19  1  0
 19 20  1  6
 19 21  1  0
 21 22  1  0
 22 23  1  0
 23 24  1  6
 23 25  1  0
 25 26  1  6
 26 27  1  0
 27 28  1  1
 27 29  1  0
 29 30  1  6
 29  8  1  0
 29 11  1  0
 25 12  1  0
 23 17  1  0
M  END
>  <MS_ID>  (3629) 
MS3970

>  <SMILES>  (3629) 
C[C@H](CCC(=O)O)[C@H]1CC[C@H]2[C@@H]3[C@H](O)[C@@H](O)[C@@H]4C[C@@H](O)CC[C@]4(C)[C@H]3C[C@H](O)[C@]12C

>  <Structure_dimension>  (3629) 
2D

$$$$
MS3973
     RDKit          2D

 45 49  0  0  0  0  0  0  0  0999 V2000
    1.6133   -4.5889    0.0000 C   0  0  0  0  0  0  0  0  0  0  0  0
    2.1719   -3.1968    0.0000 C   0  0  0  0  0  0  0  0  0  0  0  0
    1.2455   -2.0170    0.0000 C   0  0  0  0  0  0  0  0  0  0  0  0
   -0.2394   -2.2293    0.0000 C   0  0  0  0  0  0  0  0  0  0  0  0
   -1.1657   -1.0495    0.0000 C   0  0  0  0  0  0  0  0  0  0  0  0
   -0.6071    0.3426    0.0000 O   0  0  0  0  0  0  0  0  0  0  0  0
   -2.6506   -1.2619    0.0000 N   0  0  0  0  0  0  0  0  0  0  0  0
   -3.5769   -0.0821    0.0000 C   0  0  0  0  0  0  0  0  0  0  0  0
   -5.0618   -0.2944    0.0000 C   0  0  0  0  0  0  0  0  0  0  0  0
   -5.6204   -1.6865    0.0000 O   0  0  0  0  0  0  0  0  0  0  0  0
   -5.9882    0.8854    0.0000 N   0  0  0  0  0  0  0  0  0  0  0  0
   -7.4731    0.6730    0.0000 C   0  0  0  0  0  0  0  0  0  0  0  0
   -8.3994    1.8528    0.0000 C   0  0  0  0  0  0  0  0  0  0  0  0
   -9.8843    1.6405    0.0000 C   0  0  0  0  0  0  0  0  0  0  0  0
  -10.8106    2.8203    0.0000 C   0  0  0  0  0  0  0  0  0  0  0  0
  -12.2955    2.6080    0.0000 C   0  0  0  0  0  0  0  0  0  0  0  0
  -12.8541    1.2158    0.0000 C   0  0  0  0  0  0  0  0  0  0  0  0
  -14.3390    1.0035    0.0000 O   0  0  0  0  0  0  0  0  0  0  0  0
  -11.9277    0.0360    0.0000 C   0  0  0  0  0  0  0  0  0  0  0  0
  -10.4428    0.2484    0.0000 C   0  0  0  0  0  0  0  0  0  0  0  0
   -8.0316   -0.7191    0.0000 C   0  0  0  0  0  0  0  0  0  0  0  0
   -7.1053   -1.8989    0.0000 O   0  0  0  0  0  0  0  0  0  0  0  0
   -9.5165   -0.9314    0.0000 O   0  0  0  0  0  0  0  0  0  0  0  0
    3.6568   -2.9844    0.0000 C   0  0  0  0  0  0  0  0  0  0  0  0
    4.7013   -4.0609    0.0000 C   0  0  0  0  0  0  0  0  0  0  0  0
    6.0479   -3.4001    0.0000 C   0  0  0  0  0  0  0  0  0  0  0  0
    5.8356   -1.9152    0.0000 C   0  0  0  0  0  0  0  0  0  0  0  0
    6.7970   -0.7639    0.0000 C   0  0  0  0  0  0  0  0  0  0  0  0
    8.2749   -1.0208    0.0000 C   0  0  0  0  0  0  0  0  0  0  0  0
    8.7913   -2.4291    0.0000 O   0  0  0  0  0  0  0  0  0  0  0  0
    9.2363    0.1306    0.0000 C   0  0  0  0  0  0  0  0  0  0  0  0
    8.7198    1.5389    0.0000 C   0  0  0  0  0  0  0  0  0  0  0  0
    9.6813    2.6903    0.0000 C   0  0  0  0  0  0  0  0  0  0  0  0
    9.1648    4.0986    0.0000 C   0  0  0  0  0  0  0  0  0  0  0  0
   10.1263    5.2500    0.0000 O   0  0  0  0  0  0  0  0  0  0  0  0
    7.6870    4.3555    0.0000 C   0  0  0  0  0  0  0  0  0  0  0  0
    6.7256    3.2041    0.0000 C   0  0  0  0  0  0  0  0  0  0  0  0
    7.2420    1.7958    0.0000 C   0  0  0  0  0  0  0  0  0  0  0  0
    5.7642    2.0527    0.0000 C   0  0  0  0  0  0  0  0  0  0  0  0
    6.2806    0.6444    0.0000 C   0  0  0  0  0  0  0  0  0  0  0  0
    4.8028    0.9014    0.0000 C   0  0  0  0  0  0  0  0  0  0  0  0
    3.8414   -0.2500    0.0000 C   0  0  0  0  0  0  0  0  0  0  0  0
    2.3635    0.0069    0.0000 O   0  0  0  0  0  0  0  0  0  0  0  0
    4.3578   -1.6583    0.0000 C   0  0  0  0  0  0  0  0  0  0  0  0
    2.8612   -1.5573    0.0000 C   0  0  0  0  0  0  0  0  0  0  0  0
  2  1  1  6
  2  3  1  0
  3  4  1  0
  4  5  1  0
  5  6  2  0
  5  7  1  0
  7  8  1  0
  8  9  1  0
  9 10  2  0
  9 11  1  0
 11 12  1  0
 12 13  1  6
 13 14  1  0
 14 15  2  0
 15 16  1  0
 16 17  2  0
 17 18  1  0
 17 19  1  0
 19 20  2  0
 12 21  1  0
 21 22  2  0
 21 23  1  0
  2 24  1  0
 24 25  1  6
 25 26  1  0
 27 26  1  6
 27 28  1  0
 28 29  1  1
 29 30  1  1
 29 31  1  0
 32 31  1  1
 32 33  1  0
 33 34  1  0
 34 35  1  1
 34 36  1  0
 36 37  1  0
 37 38  1  0
 38 39  1  6
 38 40  1  0
 40 41  1  6
 41 42  1  0
 42 43  1  1
 42 44  1  0
 44 45  1  6
 20 14  1  0
 44 24  1  0
 44 27  1  0
 40 28  1  0
 38 32  1  0
M  END
>  <MS_ID>  (3630) 
MS3973

>  <SMILES>  (3630) 
C[C@H](CCC(=O)NCC(=O)N[C@@H](Cc1ccc(O)cc1)C(=O)O)[C@H]1CC[C@H]2[C@@H]3[C@H](O)C[C@@H]4C[C@H](O)CC[C@]4(C)[C@H]3C[C@H](O)[C@]12C

>  <Structure_dimension>  (3630) 
2D

$$$$
MS3974
     RDKit          2D

 29 32  0  0  0  0  0  0  0  0999 V2000
   -7.4712    3.6525    0.0000 C   0  0  0  0  0  0  0  0  0  0  0  0
   -7.1264    2.1927    0.0000 O   0  0  0  0  0  0  0  0  0  0  0  0
   -5.6897    1.7615    0.0000 C   0  0  0  0  0  0  0  0  0  0  0  0
   -4.5979    2.7900    0.0000 O   0  0  0  0  0  0  0  0  0  0  0  0
   -5.3448    0.3016    0.0000 C   0  0  0  0  0  0  0  0  0  0  0  0
   -3.9081   -0.1296    0.0000 C   0  0  0  0  0  0  0  0  0  0  0  0
   -3.5633   -1.5894    0.0000 C   0  0  0  0  0  0  0  0  0  0  0  0
   -4.6551   -2.6180    0.0000 C   0  0  0  0  0  0  0  0  0  0  0  0
   -2.1266   -2.0207    0.0000 C   0  0  0  0  0  0  0  0  0  0  0  0
   -1.6310   -3.4364    0.0000 C   0  0  0  0  0  0  0  0  0  0  0  0
   -0.1314   -3.4026    0.0000 C   0  0  0  0  0  0  0  0  0  0  0  0
    0.2998   -1.9659    0.0000 C   0  0  0  0  0  0  0  0  0  0  0  0
    1.6561   -1.3251    0.0000 C   0  0  0  0  0  0  0  0  0  0  0  0
    2.8892   -2.1792    0.0000 C   0  0  0  0  0  0  0  0  0  0  0  0
    2.7660   -3.6741    0.0000 O   0  0  0  0  0  0  0  0  0  0  0  0
    4.2454   -1.5383    0.0000 C   0  0  0  0  0  0  0  0  0  0  0  0
    4.3685   -0.0434    0.0000 C   0  0  0  0  0  0  0  0  0  0  0  0
    5.7247    0.5975    0.0000 C   0  0  0  0  0  0  0  0  0  0  0  0
    5.8478    2.0924    0.0000 C   0  0  0  0  0  0  0  0  0  0  0  0
    7.2040    2.7332    0.0000 O   0  0  0  0  0  0  0  0  0  0  0  0
    4.6147    2.9465    0.0000 C   0  0  0  0  0  0  0  0  0  0  0  0
    3.2585    2.3056    0.0000 C   0  0  0  0  0  0  0  0  0  0  0  0
    3.1354    0.8107    0.0000 C   0  0  0  0  0  0  0  0  0  0  0  0
    1.9023    1.6648    0.0000 C   0  0  0  0  0  0  0  0  0  0  0  0
    1.7792    0.1699    0.0000 C   0  0  0  0  0  0  0  0  0  0  0  0
    0.5461    1.0239    0.0000 C   0  0  0  0  0  0  0  0  0  0  0  0
   -0.8101    0.3831    0.0000 C   0  0  0  0  0  0  0  0  0  0  0  0
   -0.9333   -1.1118    0.0000 C   0  0  0  0  0  0  0  0  0  0  0  0
   -2.2489   -0.3913    0.0000 C   0  0  0  0  0  0  0  0  0  0  0  0
  1  2  1  0
  2  3  1  0
  3  4  2  0
  3  5  1  0
  5  6  1  0
  6  7  1  0
  7  8  1  6
  7  9  1  0
  9 10  1  6
 10 11  1  0
 12 11  1  6
 12 13  1  0
 13 14  1  1
 14 15  1  1
 14 16  1  0
 17 16  1  6
 17 18  1  0
 18 19  1  0
 19 20  2  0
 19 21  1  0
 21 22  1  0
 22 23  1  0
 23 24  1  6
 23 25  1  0
 25 26  1  6
 26 27  1  0
 27 28  1  0
 28 29  1  6
 28  9  1  0
 28 12  1  0
 25 13  1  0
 23 17  1  0
M  END
>  <MS_ID>  (3631) 
MS3974

>  <SMILES>  (3631) 
COC(=O)CC[C@@H](C)[C@H]1CC[C@H]2[C@@H]3[C@H](O)C[C@H]4CC(=O)CC[C@]4(C)[C@H]3CC[C@]12C

>  <Structure_dimension>  (3631) 
2D

$$$$
MS3976
     RDKit          2D

 29 32  0  0  0  0  0  0  0  0999 V2000
   -5.0303   -2.1373    0.0000 C   0  0  0  0  0  0  0  0  0  0  0  0
   -3.8594   -1.1998    0.0000 C   0  0  0  0  0  0  0  0  0  0  0  0
   -4.0858    0.2830    0.0000 C   0  0  0  0  0  0  0  0  0  0  0  0
   -5.4831    0.8284    0.0000 C   0  0  0  0  0  0  0  0  0  0  0  0
   -5.7095    2.3112    0.0000 C   0  0  0  0  0  0  0  0  0  0  0  0
   -4.5386    3.2487    0.0000 O   0  0  0  0  0  0  0  0  0  0  0  0
   -7.1069    2.8565    0.0000 O   0  0  0  0  0  0  0  0  0  0  0  0
   -2.4620   -1.7451    0.0000 C   0  0  0  0  0  0  0  0  0  0  0  0
   -2.0818   -3.1961    0.0000 C   0  0  0  0  0  0  0  0  0  0  0  0
   -0.5844   -3.2830    0.0000 C   0  0  0  0  0  0  0  0  0  0  0  0
   -0.0390   -1.8856    0.0000 C   0  0  0  0  0  0  0  0  0  0  0  0
    1.3643   -1.3559    0.0000 C   0  0  0  0  0  0  0  0  0  0  0  0
    2.5248   -2.3063    0.0000 C   0  0  0  0  0  0  0  0  0  0  0  0
    2.2819   -3.7865    0.0000 O   0  0  0  0  0  0  0  0  0  0  0  0
    3.9281   -1.7765    0.0000 C   0  0  0  0  0  0  0  0  0  0  0  0
    4.1710   -0.2963    0.0000 C   0  0  0  0  0  0  0  0  0  0  0  0
    5.5743    0.2334    0.0000 C   0  0  0  0  0  0  0  0  0  0  0  0
    5.8172    1.7136    0.0000 C   0  0  0  0  0  0  0  0  0  0  0  0
    7.2205    2.2434    0.0000 O   0  0  0  0  0  0  0  0  0  0  0  0
    4.6568    2.6641    0.0000 C   0  0  0  0  0  0  0  0  0  0  0  0
    3.2534    2.1343    0.0000 C   0  0  0  0  0  0  0  0  0  0  0  0
    3.0105    0.6541    0.0000 C   0  0  0  0  0  0  0  0  0  0  0  0
    1.8501    1.6046    0.0000 C   0  0  0  0  0  0  0  0  0  0  0  0
    1.6072    0.1244    0.0000 C   0  0  0  0  0  0  0  0  0  0  0  0
    0.4467    1.0748    0.0000 C   0  0  0  0  0  0  0  0  0  0  0  0
   -0.9566    0.5450    0.0000 C   0  0  0  0  0  0  0  0  0  0  0  0
   -2.1170    1.4955    0.0000 O   0  0  0  0  0  0  0  0  0  0  0  0
   -1.1995   -0.9352    0.0000 C   0  0  0  0  0  0  0  0  0  0  0  0
   -2.4529   -0.1112    0.0000 C   0  0  0  0  0  0  0  0  0  0  0  0
  2  1  1  1
  2  3  1  0
  3  4  1  0
  4  5  1  0
  5  6  2  0
  5  7  1  0
  2  8  1  0
  8  9  1  6
  9 10  1  0
 11 10  1  6
 11 12  1  0
 12 13  1  1
 13 14  1  1
 13 15  1  0
 16 15  1  6
 16 17  1  0
 17 18  1  0
 18 19  1  6
 18 20  1  0
 20 21  1  0
 21 22  1  0
 22 23  1  6
 22 24  1  0
 24 25  1  6
 25 26  1  0
 26 27  1  1
 26 28  1  0
 28 29  1  6
 28  8  1  0
 28 11  1  0
 24 12  1  0
 22 16  1  0
M  END
>  <MS_ID>  (3632) 
MS3976

>  <SMILES>  (3632) 
C[C@@H](CCC(=O)O)[C@H]1CC[C@H]2[C@@H]3[C@H](O)C[C@H]4C[C@@H](O)CC[C@]4(C)[C@H]3C[C@H](O)[C@]12C

>  <Structure_dimension>  (3632) 
2D

$$$$
MS3977
     RDKit          2D

 33 36  0  0  0  0  0  0  0  0999 V2000
   -3.0978   -3.6919    0.0000 C   0  0  0  0  0  0  0  0  0  0  0  0
   -2.2201   -2.4755    0.0000 C   0  0  0  0  0  0  0  0  0  0  0  0
   -2.8347   -1.1072    0.0000 C   0  0  0  0  0  0  0  0  0  0  0  0
   -4.3270   -0.9552    0.0000 C   0  0  0  0  0  0  0  0  0  0  0  0
   -4.9416    0.4131    0.0000 C   0  0  0  0  0  0  0  0  0  0  0  0
   -4.0639    1.6295    0.0000 O   0  0  0  0  0  0  0  0  0  0  0  0
   -6.4339    0.5650    0.0000 N   0  0  0  0  0  0  0  0  0  0  0  0
   -7.0484    1.9333    0.0000 C   0  0  0  0  0  0  0  0  0  0  0  0
   -8.5407    2.0852    0.0000 C   0  0  0  0  0  0  0  0  0  0  0  0
   -9.4184    0.8688    0.0000 O   0  0  0  0  0  0  0  0  0  0  0  0
   -9.1553    3.4535    0.0000 O   0  0  0  0  0  0  0  0  0  0  0  0
   -0.7278   -2.6274    0.0000 C   0  0  0  0  0  0  0  0  0  0  0  0
    0.0264   -3.9240    0.0000 C   0  0  0  0  0  0  0  0  0  0  0  0
    1.4926   -3.6073    0.0000 C   0  0  0  0  0  0  0  0  0  0  0  0
    1.6445   -2.1150    0.0000 C   0  0  0  0  0  0  0  0  0  0  0  0
    2.8552   -1.2294    0.0000 C   0  0  0  0  0  0  0  0  0  0  0  0
    4.2275   -1.8350    0.0000 C   0  0  0  0  0  0  0  0  0  0  0  0
    4.3891   -3.3263    0.0000 O   0  0  0  0  0  0  0  0  0  0  0  0
    5.4381   -0.9494    0.0000 C   0  0  0  0  0  0  0  0  0  0  0  0
    5.2764    0.5419    0.0000 C   0  0  0  0  0  0  0  0  0  0  0  0
    6.4871    1.4275    0.0000 C   0  0  0  0  0  0  0  0  0  0  0  0
    6.3254    2.9188    0.0000 C   0  0  0  0  0  0  0  0  0  0  0  0
    7.5360    3.8044    0.0000 O   0  0  0  0  0  0  0  0  0  0  0  0
    4.9531    3.5244    0.0000 C   0  0  0  0  0  0  0  0  0  0  0  0
    3.7425    2.6388    0.0000 C   0  0  0  0  0  0  0  0  0  0  0  0
    3.9041    1.1475    0.0000 C   0  0  0  0  0  0  0  0  0  0  0  0
    2.5318    1.7531    0.0000 C   0  0  0  0  0  0  0  0  0  0  0  0
    2.6935    0.2619    0.0000 C   0  0  0  0  0  0  0  0  0  0  0  0
    1.3212    0.8675    0.0000 C   0  0  0  0  0  0  0  0  0  0  0  0
    0.1105   -0.0181    0.0000 C   0  0  0  0  0  0  0  0  0  0  0  0
   -1.2618    0.5875    0.0000 O   0  0  0  0  0  0  0  0  0  0  0  0
    0.2722   -1.5094    0.0000 C   0  0  0  0  0  0  0  0  0  0  0  0
   -1.1559   -1.0505    0.0000 C   0  0  0  0  0  0  0  0  0  0  0  0
  2  1  1  6
  2  3  1  0
  3  4  1  0
  4  5  1  0
  5  6  2  0
  5  7  1  0
  7  8  1  0
  8  9  1  0
  9 10  2  0
  9 11  1  0
  2 12  1  0
 12 13  1  6
 13 14  1  0
 15 14  1  6
 15 16  1  0
 16 17  1  1
 17 18  1  6
 17 19  1  0
 20 19  1  6
 20 21  1  0
 21 22  1  0
 22 23  1  6
 22 24  1  0
 24 25  1  0
 25 26  1  0
 26 27  1  6
 26 28  1  0
 28 29  1  6
 29 30  1  0
 30 31  1  1
 30 32  1  0
 32 33  1  6
 32 12  1  0
 32 15  1  0
 28 16  1  0
 26 20  1  0
M  END
>  <MS_ID>  (3633) 
MS3977

>  <SMILES>  (3633) 
C[C@H](CCC(=O)NCC(=O)O)[C@H]1CC[C@H]2[C@@H]3[C@@H](O)C[C@H]4C[C@@H](O)CC[C@]4(C)[C@H]3C[C@H](O)[C@]12C

>  <Structure_dimension>  (3633) 
2D

$$$$
MS3981
     RDKit          2D

 30 33  0  0  0  0  0  0  0  0999 V2000
   -7.4279    3.5601    0.0000 C   0  0  0  0  0  0  0  0  0  0  0  0
   -7.0729    2.1027    0.0000 O   0  0  0  0  0  0  0  0  0  0  0  0
   -5.6333    1.6814    0.0000 C   0  0  0  0  0  0  0  0  0  0  0  0
   -4.5486    2.7174    0.0000 O   0  0  0  0  0  0  0  0  0  0  0  0
   -5.2784    0.2240    0.0000 C   0  0  0  0  0  0  0  0  0  0  0  0
   -3.8388   -0.1974    0.0000 C   0  0  0  0  0  0  0  0  0  0  0  0
   -3.4838   -1.6548    0.0000 C   0  0  0  0  0  0  0  0  0  0  0  0
   -4.5685   -2.6908    0.0000 C   0  0  0  0  0  0  0  0  0  0  0  0
   -2.0442   -2.0761    0.0000 C   0  0  0  0  0  0  0  0  0  0  0  0
   -1.5389   -3.4884    0.0000 C   0  0  0  0  0  0  0  0  0  0  0  0
   -0.0395   -3.4442    0.0000 C   0  0  0  0  0  0  0  0  0  0  0  0
    0.3818   -2.0046    0.0000 C   0  0  0  0  0  0  0  0  0  0  0  0
    1.7336   -1.3544    0.0000 C   0  0  0  0  0  0  0  0  0  0  0  0
    2.9725   -2.1999    0.0000 C   0  0  0  0  0  0  0  0  0  0  0  0
    2.8597   -3.6957    0.0000 O   0  0  0  0  0  0  0  0  0  0  0  0
    4.3243   -1.5497    0.0000 C   0  0  0  0  0  0  0  0  0  0  0  0
    4.4371   -0.0540    0.0000 C   0  0  0  0  0  0  0  0  0  0  0  0
    5.7888    0.5962    0.0000 C   0  0  0  0  0  0  0  0  0  0  0  0
    5.9016    2.0920    0.0000 C   0  0  0  0  0  0  0  0  0  0  0  0
    7.2534    2.7422    0.0000 O   0  0  0  0  0  0  0  0  0  0  0  0
    4.6627    2.9375    0.0000 C   0  0  0  0  0  0  0  0  0  0  0  0
    3.3109    2.2873    0.0000 C   0  0  0  0  0  0  0  0  0  0  0  0
    3.1981    0.7916    0.0000 C   0  0  0  0  0  0  0  0  0  0  0  0
    1.9591    1.6371    0.0000 C   0  0  0  0  0  0  0  0  0  0  0  0
    1.8464    0.1414    0.0000 C   0  0  0  0  0  0  0  0  0  0  0  0
    0.6074    0.9869    0.0000 C   0  0  0  0  0  0  0  0  0  0  0  0
   -0.7444    0.3367    0.0000 C   0  0  0  0  0  0  0  0  0  0  0  0
   -1.9833    1.1823    0.0000 O   0  0  0  0  0  0  0  0  0  0  0  0
   -0.8572   -1.1590    0.0000 C   0  0  0  0  0  0  0  0  0  0  0  0
   -2.1777   -0.4476    0.0000 C   0  0  0  0  0  0  0  0  0  0  0  0
  1  2  1  0
  2  3  1  0
  3  4  2  0
  3  5  1  0
  5  6  1  0
  6  7  1  0
  7  8  1  6
  7  9  1  0
  9 10  1  6
 10 11  1  0
 12 11  1  6
 12 13  1  0
 13 14  1  1
 14 15  1  1
 14 16  1  0
 17 16  1  6
 17 18  1  0
 18 19  1  0
 19 20  1  6
 19 21  1  0
 21 22  1  0
 22 23  1  0
 23 24  1  6
 23 25  1  0
 25 26  1  6
 26 27  1  0
 27 28  1  1
 27 29  1  0
 29 30  1  6
 29  9  1  0
 29 12  1  0
 25 13  1  0
 23 17  1  0
M  END
>  <MS_ID>  (3634) 
MS3981

>  <SMILES>  (3634) 
COC(=O)CC[C@@H](C)[C@H]1CC[C@H]2[C@@H]3[C@H](O)C[C@H]4C[C@@H](O)CC[C@]4(C)[C@H]3C[C@H](O)[C@]12C

>  <Structure_dimension>  (3634) 
2D

$$$$
MS3982
     RDKit          2D

 29 32  0  0  0  0  0  0  0  0999 V2000
   -5.2182   -2.1453    0.0000 C   0  0  0  0  0  0  0  0  0  0  0  0
   -4.0752   -1.1739    0.0000 C   0  0  0  0  0  0  0  0  0  0  0  0
   -4.3449    0.3016    0.0000 C   0  0  0  0  0  0  0  0  0  0  0  0
   -5.7577    0.8058    0.0000 C   0  0  0  0  0  0  0  0  0  0  0  0
   -6.0274    2.2814    0.0000 C   0  0  0  0  0  0  0  0  0  0  0  0
   -4.8843    3.2527    0.0000 O   0  0  0  0  0  0  0  0  0  0  0  0
   -7.4401    2.7856    0.0000 O   0  0  0  0  0  0  0  0  0  0  0  0
   -2.6625   -1.6782    0.0000 C   0  0  0  0  0  0  0  0  0  0  0  0
   -2.2400   -3.1174    0.0000 C   0  0  0  0  0  0  0  0  0  0  0  0
   -0.7407   -3.1604    0.0000 C   0  0  0  0  0  0  0  0  0  0  0  0
   -0.2364   -1.7477    0.0000 C   0  0  0  0  0  0  0  0  0  0  0  0
    1.1508   -1.1771    0.0000 C   0  0  0  0  0  0  0  0  0  0  0  0
    2.3386   -2.0932    0.0000 C   0  0  0  0  0  0  0  0  0  0  0  0
    2.1391   -3.5798    0.0000 F   0  0  0  0  0  0  0  0  0  0  0  0
    3.7258   -1.5226    0.0000 C   0  0  0  0  0  0  0  0  0  0  0  0
    4.9136   -2.4386    0.0000 O   0  0  0  0  0  0  0  0  0  0  0  0
    3.9253   -0.0359    0.0000 C   0  0  0  0  0  0  0  0  0  0  0  0
    5.3125    0.5347    0.0000 C   0  0  0  0  0  0  0  0  0  0  0  0
    5.5119    2.0214    0.0000 C   0  0  0  0  0  0  0  0  0  0  0  0
    6.8992    2.5920    0.0000 O   0  0  0  0  0  0  0  0  0  0  0  0
    4.3242    2.9375    0.0000 C   0  0  0  0  0  0  0  0  0  0  0  0
    2.9369    2.3669    0.0000 C   0  0  0  0  0  0  0  0  0  0  0  0
    2.7375    0.8802    0.0000 C   0  0  0  0  0  0  0  0  0  0  0  0
    1.5497    1.7963    0.0000 C   0  0  0  0  0  0  0  0  0  0  0  0
    1.3502    0.3096    0.0000 C   0  0  0  0  0  0  0  0  0  0  0  0
    0.1625    1.2257    0.0000 C   0  0  0  0  0  0  0  0  0  0  0  0
   -1.2248    0.6551    0.0000 C   0  0  0  0  0  0  0  0  0  0  0  0
   -1.4242   -0.8316    0.0000 C   0  0  0  0  0  0  0  0  0  0  0  0
   -2.7012   -0.0447    0.0000 C   0  0  0  0  0  0  0  0  0  0  0  0
  2  1  1  6
  2  3  1  0
  3  4  1  0
  4  5  1  0
  5  6  2  0
  5  7  1  0
  2  8  1  0
  8  9  1  6
  9 10  1  0
 11 10  1  6
 11 12  1  0
 12 13  1  1
 13 14  1  1
 13 15  1  0
 15 16  1  6
 15 17  1  0
 17 18  1  1
 18 19  1  0
 19 20  1  1
 19 21  1  0
 21 22  1  0
 22 23  1  0
 23 24  1  6
 23 25  1  0
 25 26  1  6
 26 27  1  0
 27 28  1  0
 28 29  1  6
 28  8  1  0
 28 11  1  0
 25 12  1  0
 23 17  1  0
M  END
>  <MS_ID>  (3635) 
MS3982

>  <SMILES>  (3635) 
C[C@H](CCC(=O)O)[C@H]1CC[C@H]2[C@@H]3[C@H](F)[C@@H](O)[C@@H]4C[C@H](O)CC[C@]4(C)[C@H]3CC[C@]12C

>  <Structure_dimension>  (3635) 
2D

$$$$
MS3983
     RDKit          2D

 42 46  0  0  0  0  0  0  0  0999 V2000
   -6.3766   -3.4890    0.0000 C   0  0  0  0  0  0  0  0  0  0  0  0
   -5.3354   -2.4093    0.0000 C   0  0  0  0  0  0  0  0  0  0  0  0
   -5.7498   -0.9676    0.0000 C   0  0  0  0  0  0  0  0  0  0  0  0
   -7.2055   -0.6058    0.0000 C   0  0  0  0  0  0  0  0  0  0  0  0
   -7.6200    0.8358    0.0000 C   0  0  0  0  0  0  0  0  0  0  0  0
   -6.5787    1.9156    0.0000 O   0  0  0  0  0  0  0  0  0  0  0  0
   -9.0757    1.1977    0.0000 N   0  0  0  0  0  0  0  0  0  0  0  0
   -9.4901    2.6393    0.0000 C   0  0  0  0  0  0  0  0  0  0  0  0
  -10.9458    3.0012    0.0000 C   0  0  0  0  0  0  0  0  0  0  0  0
  -11.9871    1.9215    0.0000 O   0  0  0  0  0  0  0  0  0  0  0  0
  -11.3603    4.4428    0.0000 O   0  0  0  0  0  0  0  0  0  0  0  0
   -3.8797   -2.7711    0.0000 C   0  0  0  0  0  0  0  0  0  0  0  0
   -3.3168   -4.1615    0.0000 C   0  0  0  0  0  0  0  0  0  0  0  0
   -1.8205   -4.0559    0.0000 C   0  0  0  0  0  0  0  0  0  0  0  0
   -1.4587   -2.6002    0.0000 C   0  0  0  0  0  0  0  0  0  0  0  0
   -0.1347   -1.8950    0.0000 C   0  0  0  0  0  0  0  0  0  0  0  0
    1.1379   -2.6890    0.0000 C   0  0  0  0  0  0  0  0  0  0  0  0
    2.4618   -1.9839    0.0000 C   0  0  0  0  0  0  0  0  0  0  0  0
    2.5131   -0.4848    0.0000 C   0  0  0  0  0  0  0  0  0  0  0  0
    3.8371    0.2203    0.0000 C   0  0  0  0  0  0  0  0  0  0  0  0
    3.8884    1.7195    0.0000 C   0  0  0  0  0  0  0  0  0  0  0  0
    5.2123    2.4246    0.0000 O   0  0  0  0  0  0  0  0  0  0  0  0
    6.4849    1.6306    0.0000 C   0  0  0  0  0  0  0  0  0  0  0  0
    6.4336    0.1315    0.0000 O   0  0  0  0  0  0  0  0  0  0  0  0
    7.7062   -0.6625    0.0000 C   0  0  0  0  0  0  0  0  0  0  0  0
    7.6549   -2.1617    0.0000 C   0  0  0  0  0  0  0  0  0  0  0  0
    6.3310   -2.8668    0.0000 O   0  0  0  0  0  0  0  0  0  0  0  0
    9.0302    0.0426    0.0000 C   0  0  0  0  0  0  0  0  0  0  0  0
   10.3028   -0.7514    0.0000 O   0  0  0  0  0  0  0  0  0  0  0  0
    9.0815    1.5417    0.0000 C   0  0  0  0  0  0  0  0  0  0  0  0
   10.4054    2.2468    0.0000 O   0  0  0  0  0  0  0  0  0  0  0  0
    7.8089    2.3357    0.0000 C   0  0  0  0  0  0  0  0  0  0  0  0
    7.8602    3.8348    0.0000 O   0  0  0  0  0  0  0  0  0  0  0  0
    2.6158    2.5135    0.0000 C   0  0  0  0  0  0  0  0  0  0  0  0
    1.2918    1.8083    0.0000 C   0  0  0  0  0  0  0  0  0  0  0  0
    1.2405    0.3092    0.0000 C   0  0  0  0  0  0  0  0  0  0  0  0
   -0.0321    1.1032    0.0000 C   0  0  0  0  0  0  0  0  0  0  0  0
   -0.0834   -0.3959    0.0000 C   0  0  0  0  0  0  0  0  0  0  0  0
   -1.3560    0.3981    0.0000 C   0  0  0  0  0  0  0  0  0  0  0  0
   -2.6800   -0.3070    0.0000 C   0  0  0  0  0  0  0  0  0  0  0  0
   -2.7313   -1.8062    0.0000 C   0  0  0  0  0  0  0  0  0  0  0  0
   -4.0799   -1.1495    0.0000 C   0  0  0  0  0  0  0  0  0  0  0  0
  2  1  1  6
  2  3  1  0
  3  4  1  0
  4  5  1  0
  5  6  2  0
  5  7  1  0
  7  8  1  0
  8  9  1  0
  9 10  2  0
  9 11  1  0
  2 12  1  0
 12 13  1  6
 13 14  1  0
 15 14  1  6
 15 16  1  0
 16 17  1  1
 17 18  1  0
 19 18  1  1
 19 20  1  0
 20 21  1  0
 21 22  1  1
 23 22  1  1
 23 24  1  0
 24 25  1  0
 25 26  1  1
 26 27  1  0
 25 28  1  0
 28 29  1  6
 28 30  1  0
 30 31  1  1
 30 32  1  0
 32 33  1  6
 21 34  1  0
 34 35  1  0
 35 36  1  0
 36 37  1  6
 36 38  1  0
 38 39  1  6
 39 40  1  0
 40 41  1  0
 41 42  1  6
 41 12  1  0
 41 15  1  0
 38 16  1  0
 36 19  1  0
 32 23  1  0
M  END
>  <MS_ID>  (3636) 
MS3983

>  <SMILES>  (3636) 
C[C@H](CCC(=O)NCC(=O)O)[C@H]1CC[C@H]2[C@@H]3CC[C@@H]4C[C@H](O[C@@H]5O[C@H](CO)[C@@H](O)[C@H](O)[C@H]5O)CC[C@]4(C)[C@H]3CC[C@]12C

>  <Structure_dimension>  (3636) 
2D

$$$$
MS3984
     RDKit          2D

 33 36  0  0  0  0  0  0  0  0999 V2000
   -4.6075   -2.8945    0.0000 C   0  0  0  0  0  0  0  0  0  0  0  0
   -3.5097   -1.8723    0.0000 C   0  0  0  0  0  0  0  0  0  0  0  0
   -3.8461   -0.4105    0.0000 C   0  0  0  0  0  0  0  0  0  0  0  0
   -5.2802    0.0291    0.0000 C   0  0  0  0  0  0  0  0  0  0  0  0
   -5.6166    1.4909    0.0000 C   0  0  0  0  0  0  0  0  0  0  0  0
   -4.5188    2.5131    0.0000 O   0  0  0  0  0  0  0  0  0  0  0  0
   -7.0507    1.9305    0.0000 O   0  0  0  0  0  0  0  0  0  0  0  0
   -2.0756   -2.3119    0.0000 C   0  0  0  0  0  0  0  0  0  0  0  0
   -1.5882   -3.7305    0.0000 C   0  0  0  0  0  0  0  0  0  0  0  0
   -0.0884   -3.7054    0.0000 C   0  0  0  0  0  0  0  0  0  0  0  0
    0.3512   -2.2713    0.0000 C   0  0  0  0  0  0  0  0  0  0  0  0
    1.7111   -1.6384    0.0000 C   0  0  0  0  0  0  0  0  0  0  0  0
    2.9392   -2.4996    0.0000 C   0  0  0  0  0  0  0  0  0  0  0  0
    2.8074   -3.9938    0.0000 O   0  0  0  0  0  0  0  0  0  0  0  0
    4.2991   -1.8667    0.0000 C   0  0  0  0  0  0  0  0  0  0  0  0
    4.4309   -0.3725    0.0000 C   0  0  0  0  0  0  0  0  0  0  0  0
    5.7908    0.2605    0.0000 C   0  0  0  0  0  0  0  0  0  0  0  0
    5.9227    1.7547    0.0000 C   0  0  0  0  0  0  0  0  0  0  0  0
    7.2826    2.3876    0.0000 O   0  0  0  0  0  0  0  0  0  0  0  0
    4.6946    2.6159    0.0000 C   0  0  0  0  0  0  0  0  0  0  0  0
    3.3346    1.9830    0.0000 C   0  0  0  0  0  0  0  0  0  0  0  0
    3.2028    0.4888    0.0000 C   0  0  0  0  0  0  0  0  0  0  0  0
    1.9747    1.3500    0.0000 C   0  0  0  0  0  0  0  0  0  0  0  0
    1.8429   -0.1442    0.0000 C   0  0  0  0  0  0  0  0  0  0  0  0
    0.6148    0.7171    0.0000 C   0  0  0  0  0  0  0  0  0  0  0  0
   -0.7451    0.0842    0.0000 C   0  0  0  0  0  0  0  0  0  0  0  0
   -1.9732    0.9454    0.0000 O   0  0  0  0  0  0  0  0  0  0  0  0
   -1.8414    2.4396    0.0000 S   0  0  0  0  0  0  0  0  0  0  0  0
   -0.3472    2.3078    0.0000 O   0  0  0  0  0  0  0  0  0  0  0  0
   -3.3356    2.5714    0.0000 O   0  0  0  0  0  0  0  0  0  0  0  0
   -1.7096    3.9338    0.0000 O   0  0  0  0  0  0  0  0  0  0  0  0
   -0.8769   -1.4100    0.0000 C   0  0  0  0  0  0  0  0  0  0  0  0
   -2.1884   -0.6819    0.0000 C   0  0  0  0  0  0  0  0  0  0  0  0
  2  1  1  6
  2  3  1  0
  3  4  1  0
  4  5  1  0
  5  6  2  0
  5  7  1  0
  2  8  1  0
  8  9  1  6
  9 10  1  0
 11 10  1  6
 11 12  1  0
 12 13  1  1
 13 14  2  0
 13 15  1  0
 16 15  1  1
 16 17  1  0
 17 18  1  0
 18 19  1  1
 18 20  1  0
 20 21  1  0
 21 22  1  0
 22 23  1  6
 22 24  1  0
 24 25  1  6
 25 26  1  0
 26 27  1  1
 27 28  1  0
 28 29  2  0
 28 30  2  0
 28 31  1  0
 26 32  1  0
 32 33  1  6
 32  8  1  0
 32 11  1  0
 24 12  1  0
 22 16  1  0
M  END
>  <MS_ID>  (3637) 
MS3984

>  <SMILES>  (3637) 
C[C@H](CCC(=O)O)[C@H]1CC[C@H]2[C@@H]3C(=O)C[C@@H]4C[C@H](O)CC[C@]4(C)[C@H]3C[C@H](OS(=O)(=O)O)[C@]12C

>  <Structure_dimension>  (3637) 
2D

$$$$
MS3988
     RDKit          2D

 35 38  0  0  0  0  0  0  0  0999 V2000
   -2.0200   -4.3028    0.0000 C   0  0  0  0  0  0  0  0  0  0  0  0
   -1.3087   -2.9822    0.0000 C   0  0  0  0  0  0  0  0  0  0  0  0
   -2.0967   -1.7059    0.0000 C   0  0  0  0  0  0  0  0  0  0  0  0
   -3.5960   -1.7502    0.0000 C   0  0  0  0  0  0  0  0  0  0  0  0
   -4.3840   -0.4738    0.0000 C   0  0  0  0  0  0  0  0  0  0  0  0
   -3.6727    0.8468    0.0000 O   0  0  0  0  0  0  0  0  0  0  0  0
   -5.8834   -0.5181    0.0000 N   0  0  0  0  0  0  0  0  0  0  0  0
   -6.6714    0.7582    0.0000 C   0  0  0  0  0  0  0  0  0  0  0  0
   -8.1707    0.7140    0.0000 C   0  0  0  0  0  0  0  0  0  0  0  0
   -8.9588    1.9903    0.0000 S   0  0  0  0  0  0  0  0  0  0  0  0
  -10.2351    1.2023    0.0000 O   0  0  0  0  0  0  0  0  0  0  0  0
   -7.6824    2.7783    0.0000 O   0  0  0  0  0  0  0  0  0  0  0  0
   -9.7468    3.2667    0.0000 O   0  0  0  0  0  0  0  0  0  0  0  0
    0.1907   -2.9379    0.0000 C   0  0  0  0  0  0  0  0  0  0  0  0
    1.1078   -4.1249    0.0000 C   0  0  0  0  0  0  0  0  0  0  0  0
    2.5201   -3.6195    0.0000 C   0  0  0  0  0  0  0  0  0  0  0  0
    2.4758   -2.1201    0.0000 C   0  0  0  0  0  0  0  0  0  0  0  0
    3.5604   -1.0840    0.0000 C   0  0  0  0  0  0  0  0  0  0  0  0
    5.0001   -1.5052    0.0000 C   0  0  0  0  0  0  0  0  0  0  0  0
    5.3551   -2.9626    0.0000 O   0  0  0  0  0  0  0  0  0  0  0  0
    6.0847   -0.4691    0.0000 C   0  0  0  0  0  0  0  0  0  0  0  0
    5.7296    0.9883    0.0000 C   0  0  0  0  0  0  0  0  0  0  0  0
    6.8142    2.0245    0.0000 C   0  0  0  0  0  0  0  0  0  0  0  0
    6.4592    3.4819    0.0000 C   0  0  0  0  0  0  0  0  0  0  0  0
    7.5438    4.5180    0.0000 O   0  0  0  0  0  0  0  0  0  0  0  0
    5.0196    3.9031    0.0000 C   0  0  0  0  0  0  0  0  0  0  0  0
    3.9350    2.8669    0.0000 C   0  0  0  0  0  0  0  0  0  0  0  0
    4.2900    1.4095    0.0000 C   0  0  0  0  0  0  0  0  0  0  0  0
    2.8503    1.8308    0.0000 C   0  0  0  0  0  0  0  0  0  0  0  0
    3.2054    0.3734    0.0000 C   0  0  0  0  0  0  0  0  0  0  0  0
    1.7657    0.7946    0.0000 C   0  0  0  0  0  0  0  0  0  0  0  0
    0.6811   -0.2416    0.0000 C   0  0  0  0  0  0  0  0  0  0  0  0
   -0.7585    0.1797    0.0000 O   0  0  0  0  0  0  0  0  0  0  0  0
    1.0362   -1.6989    0.0000 C   0  0  0  0  0  0  0  0  0  0  0  0
   -0.4396   -1.4305    0.0000 C   0  0  0  0  0  0  0  0  0  0  0  0
  2  1  1  6
  2  3  1  0
  3  4  1  0
  4  5  1  0
  5  6  2  0
  5  7  1  0
  7  8  1  0
  8  9  1  0
  9 10  1  0
 10 11  2  0
 10 12  2  0
 10 13  1  0
  2 14  1  0
 14 15  1  6
 15 16  1  0
 17 16  1  6
 17 18  1  0
 18 19  1  1
 19 20  1  6
 19 21  1  0
 22 21  1  6
 22 23  1  0
 23 24  1  0
 24 25  1  6
 24 26  1  0
 26 27  1  0
 27 28  1  0
 28 29  1  6
 28 30  1  0
 30 31  1  6
 31 32  1  0
 32 33  1  1
 32 34  1  0
 34 35  1  6
 34 14  1  0
 34 17  1  0
 30 18  1  0
 28 22  1  0
M  END
>  <MS_ID>  (3638) 
MS3988

>  <SMILES>  (3638) 
C[C@H](CCC(=O)NCCS(=O)(=O)O)[C@H]1CC[C@H]2[C@@H]3[C@@H](O)C[C@H]4C[C@@H](O)CC[C@]4(C)[C@H]3C[C@H](O)[C@]12C

>  <Structure_dimension>  (3638) 
2D

$$$$
MS3989
     RDKit          2D

 28 31  0  0  0  0  0  0  0  0999 V2000
   -5.1936   -2.1523    0.0000 C   0  0  0  0  0  0  0  0  0  0  0  0
   -4.0282   -1.2079    0.0000 C   0  0  0  0  0  0  0  0  0  0  0  0
   -4.2633    0.2735    0.0000 C   0  0  0  0  0  0  0  0  0  0  0  0
   -5.6638    0.8107    0.0000 C   0  0  0  0  0  0  0  0  0  0  0  0
   -5.8990    2.2921    0.0000 C   0  0  0  0  0  0  0  0  0  0  0  0
   -4.7335    3.2365    0.0000 O   0  0  0  0  0  0  0  0  0  0  0  0
   -7.2995    2.8292    0.0000 O   0  0  0  0  0  0  0  0  0  0  0  0
   -2.6276   -1.7450    0.0000 C   0  0  0  0  0  0  0  0  0  0  0  0
   -2.2390   -3.1938    0.0000 C   0  0  0  0  0  0  0  0  0  0  0  0
   -0.7410   -3.2718    0.0000 C   0  0  0  0  0  0  0  0  0  0  0  0
   -0.2039   -1.8713    0.0000 C   0  0  0  0  0  0  0  0  0  0  0  0
    1.1963   -1.3333    0.0000 C   0  0  0  0  0  0  0  0  0  0  0  0
    2.3623   -2.2769    0.0000 C   0  0  0  0  0  0  0  0  0  0  0  0
    3.7625   -1.7389    0.0000 C   0  0  0  0  0  0  0  0  0  0  0  0
    4.9286   -2.6825    0.0000 O   0  0  0  0  0  0  0  0  0  0  0  0
    3.9967   -0.2573    0.0000 C   0  0  0  0  0  0  0  0  0  0  0  0
    5.3969    0.2807    0.0000 C   0  0  0  0  0  0  0  0  0  0  0  0
    5.6311    1.7623    0.0000 C   0  0  0  0  0  0  0  0  0  0  0  0
    7.0313    2.3003    0.0000 O   0  0  0  0  0  0  0  0  0  0  0  0
    4.4651    2.7059    0.0000 C   0  0  0  0  0  0  0  0  0  0  0  0
    3.0649    2.1679    0.0000 C   0  0  0  0  0  0  0  0  0  0  0  0
    2.8307    0.6863    0.0000 C   0  0  0  0  0  0  0  0  0  0  0  0
    1.6647    1.6299    0.0000 C   0  0  0  0  0  0  0  0  0  0  0  0
    1.4305    0.1483    0.0000 C   0  0  0  0  0  0  0  0  0  0  0  0
    0.2645    1.0919    0.0000 C   0  0  0  0  0  0  0  0  0  0  0  0
   -1.1357    0.5539    0.0000 C   0  0  0  0  0  0  0  0  0  0  0  0
   -1.3699   -0.9277    0.0000 C   0  0  0  0  0  0  0  0  0  0  0  0
   -2.6282   -0.1111    0.0000 C   0  0  0  0  0  0  0  0  0  0  0  0
  2  1  1  6
  2  3  1  0
  3  4  1  0
  4  5  1  0
  5  6  2  0
  5  7  1  0
  2  8  1  0
  8  9  1  6
  9 10  1  0
 11 10  1  6
 11 12  1  0
 12 13  1  1
 13 14  1  0
 14 15  1  1
 14 16  1  0
 16 17  1  6
 17 18  1  0
 18 19  1  6
 18 20  1  0
 20 21  1  0
 21 22  1  0
 22 23  1  6
 22 24  1  0
 24 25  1  6
 25 26  1  0
 26 27  1  0
 27 28  1  6
 27  8  1  0
 27 11  1  0
 24 12  1  0
 22 16  1  0
M  END
>  <MS_ID>  (3639) 
MS3989

>  <SMILES>  (3639) 
C[C@H](CCC(=O)O)[C@H]1CC[C@H]2[C@@H]3C[C@H](O)[C@H]4C[C@@H](O)CC[C@]4(C)[C@H]3CC[C@]12C

>  <Structure_dimension>  (3639) 
2D

$$$$
MS3993
     RDKit          2D

 29 32  0  0  0  0  0  0  0  0999 V2000
   -5.0303   -2.1373    0.0000 C   0  0  0  0  0  0  0  0  0  0  0  0
   -3.8594   -1.1998    0.0000 C   0  0  0  0  0  0  0  0  0  0  0  0
   -4.0858    0.2830    0.0000 C   0  0  0  0  0  0  0  0  0  0  0  0
   -5.4831    0.8284    0.0000 C   0  0  0  0  0  0  0  0  0  0  0  0
   -5.7095    2.3112    0.0000 C   0  0  0  0  0  0  0  0  0  0  0  0
   -4.5386    3.2487    0.0000 O   0  0  0  0  0  0  0  0  0  0  0  0
   -7.1069    2.8565    0.0000 O   0  0  0  0  0  0  0  0  0  0  0  0
   -2.4620   -1.7451    0.0000 C   0  0  0  0  0  0  0  0  0  0  0  0
   -2.0818   -3.1961    0.0000 C   0  0  0  0  0  0  0  0  0  0  0  0
   -0.5844   -3.2830    0.0000 C   0  0  0  0  0  0  0  0  0  0  0  0
   -0.0390   -1.8856    0.0000 C   0  0  0  0  0  0  0  0  0  0  0  0
    1.3643   -1.3559    0.0000 C   0  0  0  0  0  0  0  0  0  0  0  0
    2.5248   -2.3063    0.0000 C   0  0  0  0  0  0  0  0  0  0  0  0
    2.2819   -3.7865    0.0000 O   0  0  0  0  0  0  0  0  0  0  0  0
    3.9281   -1.7765    0.0000 C   0  0  0  0  0  0  0  0  0  0  0  0
    4.1710   -0.2963    0.0000 C   0  0  0  0  0  0  0  0  0  0  0  0
    5.5743    0.2334    0.0000 C   0  0  0  0  0  0  0  0  0  0  0  0
    5.8172    1.7136    0.0000 C   0  0  0  0  0  0  0  0  0  0  0  0
    7.2205    2.2434    0.0000 O   0  0  0  0  0  0  0  0  0  0  0  0
    4.6568    2.6641    0.0000 C   0  0  0  0  0  0  0  0  0  0  0  0
    3.2534    2.1343    0.0000 C   0  0  0  0  0  0  0  0  0  0  0  0
    3.0105    0.6541    0.0000 C   0  0  0  0  0  0  0  0  0  0  0  0
    1.8501    1.6046    0.0000 C   0  0  0  0  0  0  0  0  0  0  0  0
    1.6072    0.1244    0.0000 C   0  0  0  0  0  0  0  0  0  0  0  0
    0.4467    1.0748    0.0000 C   0  0  0  0  0  0  0  0  0  0  0  0
   -0.9566    0.5450    0.0000 C   0  0  0  0  0  0  0  0  0  0  0  0
   -2.1170    1.4955    0.0000 O   0  0  0  0  0  0  0  0  0  0  0  0
   -1.1995   -0.9352    0.0000 C   0  0  0  0  0  0  0  0  0  0  0  0
   -2.4529   -0.1112    0.0000 C   0  0  0  0  0  0  0  0  0  0  0  0
  2  1  1  1
  2  3  1  0
  3  4  1  0
  4  5  1  0
  5  6  2  0
  5  7  1  0
  2  8  1  0
  8  9  1  6
  9 10  1  0
 11 10  1  6
 11 12  1  0
 12 13  1  1
 13 14  1  1
 13 15  1  0
 16 15  1  1
 16 17  1  0
 17 18  1  0
 18 19  1  6
 18 20  1  0
 20 21  1  0
 21 22  1  0
 22 23  1  6
 22 24  1  0
 24 25  1  6
 25 26  1  0
 26 27  1  1
 26 28  1  0
 28 29  1  6
 28  8  1  0
 28 11  1  0
 24 12  1  0
 22 16  1  0
M  END
>  <MS_ID>  (3640) 
MS3993

>  <SMILES>  (3640) 
C[C@@H](CCC(=O)O)[C@H]1CC[C@H]2[C@@H]3[C@H](O)C[C@@H]4C[C@@H](O)CC[C@]4(C)[C@H]3C[C@H](O)[C@]12C

>  <Structure_dimension>  (3640) 
2D

$$$$
MS3994
     RDKit          2D

 29 32  0  0  0  0  0  0  0  0999 V2000
   -5.2182   -2.1453    0.0000 C   0  0  0  0  0  0  0  0  0  0  0  0
   -4.0752   -1.1739    0.0000 C   0  0  0  0  0  0  0  0  0  0  0  0
   -4.3449    0.3016    0.0000 C   0  0  0  0  0  0  0  0  0  0  0  0
   -5.7577    0.8058    0.0000 C   0  0  0  0  0  0  0  0  0  0  0  0
   -6.0274    2.2814    0.0000 C   0  0  0  0  0  0  0  0  0  0  0  0
   -4.8843    3.2527    0.0000 O   0  0  0  0  0  0  0  0  0  0  0  0
   -7.4401    2.7856    0.0000 O   0  0  0  0  0  0  0  0  0  0  0  0
   -2.6625   -1.6782    0.0000 C   0  0  0  0  0  0  0  0  0  0  0  0
   -2.2400   -3.1174    0.0000 C   0  0  0  0  0  0  0  0  0  0  0  0
   -0.7407   -3.1604    0.0000 C   0  0  0  0  0  0  0  0  0  0  0  0
   -0.2364   -1.7477    0.0000 C   0  0  0  0  0  0  0  0  0  0  0  0
    1.1508   -1.1771    0.0000 C   0  0  0  0  0  0  0  0  0  0  0  0
    2.3386   -2.0932    0.0000 C   0  0  0  0  0  0  0  0  0  0  0  0
    2.1391   -3.5798    0.0000 O   0  0  0  0  0  0  0  0  0  0  0  0
    3.7258   -1.5226    0.0000 C   0  0  0  0  0  0  0  0  0  0  0  0
    4.9136   -2.4386    0.0000 O   0  0  0  0  0  0  0  0  0  0  0  0
    3.9253   -0.0359    0.0000 C   0  0  0  0  0  0  0  0  0  0  0  0
    5.3125    0.5347    0.0000 C   0  0  0  0  0  0  0  0  0  0  0  0
    5.5119    2.0214    0.0000 C   0  0  0  0  0  0  0  0  0  0  0  0
    6.8992    2.5920    0.0000 O   0  0  0  0  0  0  0  0  0  0  0  0
    4.3242    2.9375    0.0000 C   0  0  0  0  0  0  0  0  0  0  0  0
    2.9369    2.3669    0.0000 C   0  0  0  0  0  0  0  0  0  0  0  0
    2.7375    0.8802    0.0000 C   0  0  0  0  0  0  0  0  0  0  0  0
    1.5497    1.7963    0.0000 C   0  0  0  0  0  0  0  0  0  0  0  0
    1.3502    0.3096    0.0000 C   0  0  0  0  0  0  0  0  0  0  0  0
    0.1625    1.2257    0.0000 C   0  0  0  0  0  0  0  0  0  0  0  0
   -1.2248    0.6551    0.0000 C   0  0  0  0  0  0  0  0  0  0  0  0
   -1.4242   -0.8316    0.0000 C   0  0  0  0  0  0  0  0  0  0  0  0
   -2.7012   -0.0447    0.0000 C   0  0  0  0  0  0  0  0  0  0  0  0
  2  1  1  6
  2  3  1  0
  3  4  1  0
  4  5  1  0
  5  6  2  0
  5  7  1  0
  2  8  1  0
  8  9  1  6
  9 10  1  0
 11 10  1  6
 11 12  1  0
 12 13  1  1
 13 14  1  6
 13 15  1  0
 15 16  1  6
 15 17  1  0
 17 18  1  1
 18 19  1  0
 19 20  1  6
 19 21  1  0
 21 22  1  0
 22 23  1  0
 23 24  1  6
 23 25  1  0
 25 26  1  6
 26 27  1  0
 27 28  1  0
 28 29  1  6
 28  8  1  0
 28 11  1  0
 25 12  1  0
 23 17  1  0
M  END
>  <MS_ID>  (3641) 
MS3994

>  <SMILES>  (3641) 
C[C@H](CCC(=O)O)[C@H]1CC[C@H]2[C@@H]3[C@@H](O)[C@@H](O)[C@@H]4C[C@@H](O)CC[C@]4(C)[C@H]3CC[C@]12C

>  <Structure_dimension>  (3641) 
2D

$$$$
MS3998
     RDKit          2D

 29 32  0  0  0  0  0  0  0  0999 V2000
   -7.5935    3.5474    0.0000 C   0  0  0  0  0  0  0  0  0  0  0  0
   -7.2369    2.0904    0.0000 O   0  0  0  0  0  0  0  0  0  0  0  0
   -5.7968    1.6707    0.0000 C   0  0  0  0  0  0  0  0  0  0  0  0
   -4.7133    2.7080    0.0000 O   0  0  0  0  0  0  0  0  0  0  0  0
   -5.4402    0.2137    0.0000 C   0  0  0  0  0  0  0  0  0  0  0  0
   -4.0001   -0.2060    0.0000 C   0  0  0  0  0  0  0  0  0  0  0  0
   -3.6435   -1.6630    0.0000 C   0  0  0  0  0  0  0  0  0  0  0  0
   -4.7270   -2.7003    0.0000 C   0  0  0  0  0  0  0  0  0  0  0  0
   -2.2035   -2.0826    0.0000 C   0  0  0  0  0  0  0  0  0  0  0  0
   -1.6965   -3.4944    0.0000 C   0  0  0  0  0  0  0  0  0  0  0  0
   -0.1972   -3.4485    0.0000 C   0  0  0  0  0  0  0  0  0  0  0  0
    0.2225   -2.0084    0.0000 C   0  0  0  0  0  0  0  0  0  0  0  0
    1.5735   -1.3567    0.0000 C   0  0  0  0  0  0  0  0  0  0  0  0
    2.8134   -2.2008    0.0000 C   0  0  0  0  0  0  0  0  0  0  0  0
    4.1644   -1.5491    0.0000 C   0  0  0  0  0  0  0  0  0  0  0  0
    5.4043   -2.3933    0.0000 O   0  0  0  0  0  0  0  0  0  0  0  0
    4.2755   -0.0532    0.0000 C   0  0  0  0  0  0  0  0  0  0  0  0
    5.6265    0.5985    0.0000 C   0  0  0  0  0  0  0  0  0  0  0  0
    5.7376    2.0944    0.0000 C   0  0  0  0  0  0  0  0  0  0  0  0
    7.0887    2.7461    0.0000 O   0  0  0  0  0  0  0  0  0  0  0  0
    4.4977    2.9385    0.0000 C   0  0  0  0  0  0  0  0  0  0  0  0
    3.1467    2.2868    0.0000 C   0  0  0  0  0  0  0  0  0  0  0  0
    3.0356    0.7909    0.0000 C   0  0  0  0  0  0  0  0  0  0  0  0
    1.7957    1.6351    0.0000 C   0  0  0  0  0  0  0  0  0  0  0  0
    1.6846    0.1392    0.0000 C   0  0  0  0  0  0  0  0  0  0  0  0
    0.4447    0.9834    0.0000 C   0  0  0  0  0  0  0  0  0  0  0  0
   -0.9064    0.3316    0.0000 C   0  0  0  0  0  0  0  0  0  0  0  0
   -1.0175   -1.1643    0.0000 C   0  0  0  0  0  0  0  0  0  0  0  0
   -2.3388   -0.4543    0.0000 C   0  0  0  0  0  0  0  0  0  0  0  0
  1  2  1  0
  2  3  1  0
  3  4  2  0
  3  5  1  0
  5  6  1  0
  6  7  1  0
  7  8  1  6
  7  9  1  0
  9 10  1  6
 10 11  1  0
 12 11  1  6
 12 13  1  0
 13 14  1  1
 14 15  1  0
 15 16  1  1
 15 17  1  0
 17 18  1  1
 18 19  1  0
 19 20  1  6
 19 21  1  0
 21 22  1  0
 22 23  1  0
 23 24  1  6
 23 25  1  0
 25 26  1  6
 26 27  1  0
 27 28  1  0
 28 29  1  6
 28  9  1  0
 28 12  1  0
 25 13  1  0
 23 17  1  0
M  END
>  <MS_ID>  (3642) 
MS3998

>  <SMILES>  (3642) 
COC(=O)CC[C@@H](C)[C@H]1CC[C@H]2[C@@H]3C[C@H](O)[C@@H]4C[C@@H](O)CC[C@]4(C)[C@H]3CC[C@]12C

>  <Structure_dimension>  (3642) 
2D

$$$$
MS4001
     RDKit          2D

 39 43  0  0  0  0  0  0  0  0999 V2000
   -7.9398   -2.0773    0.0000 C   0  0  0  0  0  0  0  0  0  0  0  0
   -6.7649   -1.1449    0.0000 C   0  0  0  0  0  0  0  0  0  0  0  0
   -6.9848    0.3389    0.0000 C   0  0  0  0  0  0  0  0  0  0  0  0
   -8.3798    0.8903    0.0000 C   0  0  0  0  0  0  0  0  0  0  0  0
   -8.5998    2.3741    0.0000 C   0  0  0  0  0  0  0  0  0  0  0  0
   -7.4248    3.3065    0.0000 O   0  0  0  0  0  0  0  0  0  0  0  0
   -9.9948    2.9254    0.0000 O   0  0  0  0  0  0  0  0  0  0  0  0
   -5.3699   -1.6962    0.0000 C   0  0  0  0  0  0  0  0  0  0  0  0
   -4.9960   -3.1489    0.0000 C   0  0  0  0  0  0  0  0  0  0  0  0
   -3.4989   -3.2422    0.0000 C   0  0  0  0  0  0  0  0  0  0  0  0
   -2.9475   -1.8472    0.0000 C   0  0  0  0  0  0  0  0  0  0  0  0
   -1.5419   -1.3235    0.0000 C   0  0  0  0  0  0  0  0  0  0  0  0
   -0.3856   -2.2790    0.0000 C   0  0  0  0  0  0  0  0  0  0  0  0
    1.0200   -1.7553    0.0000 C   0  0  0  0  0  0  0  0  0  0  0  0
    2.1764   -2.7108    0.0000 O   0  0  0  0  0  0  0  0  0  0  0  0
    1.2693   -0.2762    0.0000 C   0  0  0  0  0  0  0  0  0  0  0  0
    2.6750    0.2475    0.0000 C   0  0  0  0  0  0  0  0  0  0  0  0
    2.9242    1.7266    0.0000 C   0  0  0  0  0  0  0  0  0  0  0  0
    4.3299    2.2503    0.0000 O   0  0  0  0  0  0  0  0  0  0  0  0
    5.4862    1.2948    0.0000 C   0  0  0  0  0  0  0  0  0  0  0  0
    5.2369   -0.1843    0.0000 O   0  0  0  0  0  0  0  0  0  0  0  0
    6.3932   -1.1398    0.0000 C   0  0  0  0  0  0  0  0  0  0  0  0
    6.1439   -2.6189    0.0000 C   0  0  0  0  0  0  0  0  0  0  0  0
    4.7383   -3.1426    0.0000 O   0  0  0  0  0  0  0  0  0  0  0  0
    7.7988   -0.6161    0.0000 C   0  0  0  0  0  0  0  0  0  0  0  0
    8.9552   -1.5715    0.0000 O   0  0  0  0  0  0  0  0  0  0  0  0
    8.0481    0.8631    0.0000 C   0  0  0  0  0  0  0  0  0  0  0  0
    9.4538    1.3867    0.0000 O   0  0  0  0  0  0  0  0  0  0  0  0
    6.8918    1.8185    0.0000 C   0  0  0  0  0  0  0  0  0  0  0  0
    7.1411    3.2977    0.0000 O   0  0  0  0  0  0  0  0  0  0  0  0
    1.7679    2.6821    0.0000 C   0  0  0  0  0  0  0  0  0  0  0  0
    0.3623    2.1584    0.0000 C   0  0  0  0  0  0  0  0  0  0  0  0
    0.1130    0.6793    0.0000 C   0  0  0  0  0  0  0  0  0  0  0  0
   -1.0433    1.6347    0.0000 C   0  0  0  0  0  0  0  0  0  0  0  0
   -1.2926    0.1556    0.0000 C   0  0  0  0  0  0  0  0  0  0  0  0
   -2.4489    1.1111    0.0000 C   0  0  0  0  0  0  0  0  0  0  0  0
   -3.8546    0.5874    0.0000 C   0  0  0  0  0  0  0  0  0  0  0  0
   -4.1038   -0.8918    0.0000 C   0  0  0  0  0  0  0  0  0  0  0  0
   -5.3537   -0.0624    0.0000 C   0  0  0  0  0  0  0  0  0  0  0  0
  2  1  1  6
  2  3  1  0
  3  4  1  0
  4  5  1  0
  5  6  2  0
  5  7  1  0
  2  8  1  0
  8  9  1  6
  9 10  1  0
 11 10  1  6
 11 12  1  0
 12 13  1  1
 13 14  1  0
 14 15  1  1
 14 16  1  0
 16 17  1  1
 17 18  1  0
 18 19  1  1
 20 19  1  1
 20 21  1  0
 21 22  1  0
 22 23  1  1
 23 24  1  0
 22 25  1  0
 25 26  1  6
 25 27  1  0
 27 28  1  1
 27 29  1  0
 29 30  1  6
 18 31  1  0
 31 32  1  0
 32 33  1  0
 33 34  1  6
 33 35  1  0
 35 36  1  6
 36 37  1  0
 37 38  1  0
 38 39  1  6
 38  8  1  0
 38 11  1  0
 35 12  1  0
 33 16  1  0
 29 20  1  0
M  END
>  <MS_ID>  (3643) 
MS4001

>  <SMILES>  (3643) 
C[C@H](CCC(=O)O)[C@H]1CC[C@H]2[C@@H]3C[C@H](O)[C@@H]4C[C@H](O[C@@H]5O[C@H](CO)[C@@H](O)[C@H](O)[C@H]5O)CC[C@]4(C)[C@H]3CC[C@]12C

>  <Structure_dimension>  (3643) 
2D

$$$$
MS4003
     RDKit          2D

 39 42  0  0  0  0  0  0  0  0999 V2000
   -0.1039   -4.7962    0.0000 C   0  0  0  0  0  0  0  0  0  0  0  0
    0.4737   -3.4119    0.0000 C   0  0  0  0  0  0  0  0  0  0  0  0
   -0.4363   -2.2195    0.0000 C   0  0  0  0  0  0  0  0  0  0  0  0
   -1.9240   -2.4114    0.0000 C   0  0  0  0  0  0  0  0  0  0  0  0
   -2.8340   -1.2190    0.0000 C   0  0  0  0  0  0  0  0  0  0  0  0
   -2.2564    0.1653    0.0000 O   0  0  0  0  0  0  0  0  0  0  0  0
   -4.3217   -1.4110    0.0000 N   0  0  0  0  0  0  0  0  0  0  0  0
   -5.2318   -0.2186    0.0000 C   0  0  0  0  0  0  0  0  0  0  0  0
   -6.7194   -0.4105    0.0000 C   0  0  0  0  0  0  0  0  0  0  0  0
   -7.6295    0.7819    0.0000 C   0  0  0  0  0  0  0  0  0  0  0  0
   -9.1172    0.5900    0.0000 C   0  0  0  0  0  0  0  0  0  0  0  0
  -10.0272    1.7823    0.0000 N   0  0  0  0  0  0  0  0  0  0  0  0
  -11.5149    1.5904    0.0000 C   0  0  0  0  0  0  0  0  0  0  0  0
  -12.4249    2.7828    0.0000 N   0  0  0  0  0  0  0  0  0  0  0  0
  -12.0925    0.2061    0.0000 N   0  0  0  0  0  0  0  0  0  0  0  0
   -4.6541    1.1657    0.0000 C   0  0  0  0  0  0  0  0  0  0  0  0
   -3.1665    1.3577    0.0000 O   0  0  0  0  0  0  0  0  0  0  0  0
   -5.5642    2.3581    0.0000 O   0  0  0  0  0  0  0  0  0  0  0  0
    1.9614   -3.2200    0.0000 C   0  0  0  0  0  0  0  0  0  0  0  0
    2.9911   -4.3107    0.0000 C   0  0  0  0  0  0  0  0  0  0  0  0
    4.3467   -3.6684    0.0000 C   0  0  0  0  0  0  0  0  0  0  0  0
    4.1547   -2.1808    0.0000 C   0  0  0  0  0  0  0  0  0  0  0  0
    5.1319   -1.0427    0.0000 C   0  0  0  0  0  0  0  0  0  0  0  0
    6.6060   -1.3199    0.0000 C   0  0  0  0  0  0  0  0  0  0  0  0
    7.5832   -0.1818    0.0000 C   0  0  0  0  0  0  0  0  0  0  0  0
    7.0861    1.2335    0.0000 C   0  0  0  0  0  0  0  0  0  0  0  0
    8.0632    2.3715    0.0000 C   0  0  0  0  0  0  0  0  0  0  0  0
    7.5662    3.7868    0.0000 C   0  0  0  0  0  0  0  0  0  0  0  0
    8.5433    4.9249    0.0000 O   0  0  0  0  0  0  0  0  0  0  0  0
    6.0920    4.0640    0.0000 C   0  0  0  0  0  0  0  0  0  0  0  0
    5.1149    2.9259    0.0000 C   0  0  0  0  0  0  0  0  0  0  0  0
    5.6119    1.5106    0.0000 C   0  0  0  0  0  0  0  0  0  0  0  0
    4.1378    1.7878    0.0000 C   0  0  0  0  0  0  0  0  0  0  0  0
    4.6348    0.3726    0.0000 C   0  0  0  0  0  0  0  0  0  0  0  0
    3.1606    0.6497    0.0000 C   0  0  0  0  0  0  0  0  0  0  0  0
    2.1835   -0.4883    0.0000 C   0  0  0  0  0  0  0  0  0  0  0  0
    0.7093   -0.2112    0.0000 O   0  0  0  0  0  0  0  0  0  0  0  0
    2.6806   -1.9036    0.0000 C   0  0  0  0  0  0  0  0  0  0  0  0
    1.1855   -1.7820    0.0000 C   0  0  0  0  0  0  0  0  0  0  0  0
  2  1  1  6
  2  3  1  0
  3  4  1  0
  4  5  1  0
  5  6  2  0
  5  7  1  0
  7  8  1  0
  8  9  1  1
  9 10  1  0
 10 11  1  0
 11 12  1  0
 12 13  2  0
 13 14  1  0
 13 15  1  0
  8 16  1  0
 16 17  2  0
 16 18  1  0
  2 19  1  0
 19 20  1  6
 20 21  1  0
 22 21  1  6
 22 23  1  0
 23 24  1  1
 24 25  1  0
 26 25  1  1
 26 27  1  0
 27 28  1  0
 28 29  1  1
 28 30  1  0
 30 31  1  0
 31 32  1  0
 32 33  1  6
 32 34  1  0
 34 35  1  6
 35 36  1  0
 36 37  1  1
 36 38  1  0
 38 39  1  6
 38 19  1  0
 38 22  1  0
 34 23  1  0
 32 26  1  0
M  END
>  <MS_ID>  (3644) 
MS4003

>  <SMILES>  (3644) 
C[C@H](CCC(=O)N[C@@H](CCCN=C(N)N)C(=O)O)[C@H]1CC[C@H]2[C@@H]3CC[C@@H]4C[C@H](O)CC[C@]4(C)[C@H]3C[C@H](O)[C@]12C

>  <Structure_dimension>  (3644) 
2D

$$$$
MS4005
     RDKit          2D

 29 32  0  0  0  0  0  0  0  0999 V2000
   -5.0303   -2.1373    0.0000 C   0  0  0  0  0  0  0  0  0  0  0  0
   -3.8594   -1.1998    0.0000 C   0  0  0  0  0  0  0  0  0  0  0  0
   -4.0858    0.2830    0.0000 C   0  0  0  0  0  0  0  0  0  0  0  0
   -5.4831    0.8284    0.0000 C   0  0  0  0  0  0  0  0  0  0  0  0
   -5.7095    2.3112    0.0000 C   0  0  0  0  0  0  0  0  0  0  0  0
   -4.5386    3.2487    0.0000 O   0  0  0  0  0  0  0  0  0  0  0  0
   -7.1069    2.8565    0.0000 O   0  0  0  0  0  0  0  0  0  0  0  0
   -2.4620   -1.7451    0.0000 C   0  0  0  0  0  0  0  0  0  0  0  0
   -2.0818   -3.1961    0.0000 C   0  0  0  0  0  0  0  0  0  0  0  0
   -0.5844   -3.2830    0.0000 C   0  0  0  0  0  0  0  0  0  0  0  0
   -0.0390   -1.8856    0.0000 C   0  0  0  0  0  0  0  0  0  0  0  0
    1.3643   -1.3559    0.0000 C   0  0  0  0  0  0  0  0  0  0  0  0
    2.5248   -2.3063    0.0000 C   0  0  0  0  0  0  0  0  0  0  0  0
    2.2819   -3.7865    0.0000 O   0  0  0  0  0  0  0  0  0  0  0  0
    3.9281   -1.7765    0.0000 C   0  0  0  0  0  0  0  0  0  0  0  0
    4.1710   -0.2963    0.0000 C   0  0  0  0  0  0  0  0  0  0  0  0
    5.5743    0.2334    0.0000 C   0  0  0  0  0  0  0  0  0  0  0  0
    5.8172    1.7136    0.0000 C   0  0  0  0  0  0  0  0  0  0  0  0
    7.2205    2.2434    0.0000 O   0  0  0  0  0  0  0  0  0  0  0  0
    4.6568    2.6641    0.0000 C   0  0  0  0  0  0  0  0  0  0  0  0
    3.2534    2.1343    0.0000 C   0  0  0  0  0  0  0  0  0  0  0  0
    3.0105    0.6541    0.0000 C   0  0  0  0  0  0  0  0  0  0  0  0
    1.8501    1.6046    0.0000 C   0  0  0  0  0  0  0  0  0  0  0  0
    1.6072    0.1244    0.0000 C   0  0  0  0  0  0  0  0  0  0  0  0
    0.4467    1.0748    0.0000 C   0  0  0  0  0  0  0  0  0  0  0  0
   -0.9566    0.5450    0.0000 C   0  0  0  0  0  0  0  0  0  0  0  0
   -2.1170    1.4955    0.0000 O   0  0  0  0  0  0  0  0  0  0  0  0
   -1.1995   -0.9352    0.0000 C   0  0  0  0  0  0  0  0  0  0  0  0
   -2.4529   -0.1112    0.0000 C   0  0  0  0  0  0  0  0  0  0  0  0
  2  1  1  6
  2  3  1  0
  3  4  1  0
  4  5  1  0
  5  6  2  0
  5  7  1  0
  2  8  1  0
  8  9  1  6
  9 10  1  0
 11 10  1  6
 11 12  1  0
 12 13  1  1
 13 14  1  1
 13 15  1  0
 16 15  1  6
 16 17  1  0
 17 18  1  0
 18 19  1  6
 18 20  1  0
 20 21  1  0
 21 22  1  0
 22 23  1  6
 22 24  1  0
 24 25  1  6
 25 26  1  0
 26 27  2  0
 26 28  1  0
 28 29  1  6
 28  8  1  0
 28 11  1  0
 24 12  1  0
 22 16  1  0
M  END
>  <MS_ID>  (3645) 
MS4005

>  <SMILES>  (3645) 
C[C@H](CCC(=O)O)[C@H]1CC[C@H]2[C@@H]3[C@H](O)C[C@H]4C[C@@H](O)CC[C@]4(C)[C@H]3CC(=O)[C@]12C

>  <Structure_dimension>  (3645) 
2D

$$$$
MS4008
     RDKit          2D

 37 40  0  0  0  0  0  0  0  0999 V2000
   -1.2430   -4.5204    0.0000 C   0  0  0  0  0  0  0  0  0  0  0  0
   -0.5890   -3.1705    0.0000 C   0  0  0  0  0  0  0  0  0  0  0  0
   -1.4310   -1.9291    0.0000 C   0  0  0  0  0  0  0  0  0  0  0  0
   -2.9270   -2.0376    0.0000 C   0  0  0  0  0  0  0  0  0  0  0  0
   -3.7690   -0.7962    0.0000 C   0  0  0  0  0  0  0  0  0  0  0  0
   -3.1150    0.5537    0.0000 O   0  0  0  0  0  0  0  0  0  0  0  0
   -5.2651   -0.9047    0.0000 N   0  0  0  0  0  0  0  0  0  0  0  0
   -6.1071    0.3366    0.0000 C   0  0  0  0  0  0  0  0  0  0  0  0
   -7.6032    0.2281    0.0000 C   0  0  0  0  0  0  0  0  0  0  0  0
   -8.4452    1.4695    0.0000 C   0  0  0  0  0  0  0  0  0  0  0  0
   -9.9413    1.3610    0.0000 C   0  0  0  0  0  0  0  0  0  0  0  0
  -10.5953    0.0111    0.0000 O   0  0  0  0  0  0  0  0  0  0  0  0
  -10.7833    2.6024    0.0000 O   0  0  0  0  0  0  0  0  0  0  0  0
   -5.4531    1.6865    0.0000 C   0  0  0  0  0  0  0  0  0  0  0  0
   -3.9570    1.7950    0.0000 O   0  0  0  0  0  0  0  0  0  0  0  0
   -6.2951    2.9279    0.0000 O   0  0  0  0  0  0  0  0  0  0  0  0
    0.9071   -3.0620    0.0000 C   0  0  0  0  0  0  0  0  0  0  0  0
    1.8742   -4.2086    0.0000 C   0  0  0  0  0  0  0  0  0  0  0  0
    3.2636   -3.6431    0.0000 C   0  0  0  0  0  0  0  0  0  0  0  0
    3.1551   -2.1470    0.0000 C   0  0  0  0  0  0  0  0  0  0  0  0
    4.1943   -1.0653    0.0000 C   0  0  0  0  0  0  0  0  0  0  0  0
    5.6506   -1.4244    0.0000 C   0  0  0  0  0  0  0  0  0  0  0  0
    6.0678   -2.8652    0.0000 O   0  0  0  0  0  0  0  0  0  0  0  0
    6.6898   -0.3427    0.0000 C   0  0  0  0  0  0  0  0  0  0  0  0
    6.2726    1.0981    0.0000 C   0  0  0  0  0  0  0  0  0  0  0  0
    7.3118    2.1798    0.0000 C   0  0  0  0  0  0  0  0  0  0  0  0
    6.8946    3.6206    0.0000 C   0  0  0  0  0  0  0  0  0  0  0  0
    7.9338    4.7023    0.0000 O   0  0  0  0  0  0  0  0  0  0  0  0
    5.4383    3.9798    0.0000 C   0  0  0  0  0  0  0  0  0  0  0  0
    4.3991    2.8981    0.0000 C   0  0  0  0  0  0  0  0  0  0  0  0
    4.8163    1.4572    0.0000 C   0  0  0  0  0  0  0  0  0  0  0  0
    3.3599    1.8164    0.0000 C   0  0  0  0  0  0  0  0  0  0  0  0
    3.7771    0.3755    0.0000 C   0  0  0  0  0  0  0  0  0  0  0  0
    2.3207    0.7347    0.0000 C   0  0  0  0  0  0  0  0  0  0  0  0
    1.2815   -0.3470    0.0000 C   0  0  0  0  0  0  0  0  0  0  0  0
    1.6987   -1.7879    0.0000 C   0  0  0  0  0  0  0  0  0  0  0  0
    0.2127   -1.5829    0.0000 C   0  0  0  0  0  0  0  0  0  0  0  0
  2  1  1  6
  2  3  1  0
  3  4  1  0
  4  5  1  0
  5  6  2  0
  5  7  1  0
  7  8  1  0
  8  9  1  1
  9 10  1  0
 10 11  1  0
 11 12  2  0
 11 13  1  0
  8 14  1  0
 14 15  2  0
 14 16  1  0
  2 17  1  0
 17 18  1  6
 18 19  1  0
 20 19  1  6
 20 21  1  0
 21 22  1  1
 22 23  2  0
 22 24  1  0
 25 24  1  1
 25 26  1  0
 26 27  1  0
 27 28  1  1
 27 29  1  0
 29 30  1  0
 30 31  1  0
 31 32  1  6
 31 33  1  0
 33 34  1  6
 34 35  1  0
 35 36  1  0
 36 37  1  6
 36 17  1  0
 36 20  1  0
 33 21  1  0
 31 25  1  0
M  END
>  <MS_ID>  (3646) 
MS4008

>  <SMILES>  (3646) 
C[C@H](CCC(=O)N[C@@H](CCC(=O)O)C(=O)O)[C@H]1CC[C@H]2[C@@H]3C(=O)C[C@@H]4C[C@H](O)CC[C@]4(C)[C@H]3CC[C@]12C

>  <Structure_dimension>  (3646) 
2D

$$$$
MS4010
     RDKit          2D

 36 39  0  0  0  0  0  0  0  0999 V2000
   -1.6581   -4.5124    0.0000 C   0  0  0  0  0  0  0  0  0  0  0  0
   -0.9928   -3.1680    0.0000 C   0  0  0  0  0  0  0  0  0  0  0  0
   -1.8245   -1.9197    0.0000 C   0  0  0  0  0  0  0  0  0  0  0  0
   -3.3214   -2.0157    0.0000 C   0  0  0  0  0  0  0  0  0  0  0  0
   -4.1530   -0.7674    0.0000 C   0  0  0  0  0  0  0  0  0  0  0  0
   -3.4877    0.5770    0.0000 O   0  0  0  0  0  0  0  0  0  0  0  0
   -5.6499   -0.8634    0.0000 N   0  0  0  0  0  0  0  0  0  0  0  0
   -6.4816    0.3850    0.0000 C   0  0  0  0  0  0  0  0  0  0  0  0
   -7.9785    0.2889    0.0000 C   0  0  0  0  0  0  0  0  0  0  0  0
   -8.8101    1.5373    0.0000 C   0  0  0  0  0  0  0  0  0  0  0  0
   -8.1448    2.8817    0.0000 O   0  0  0  0  0  0  0  0  0  0  0  0
  -10.3070    1.4412    0.0000 O   0  0  0  0  0  0  0  0  0  0  0  0
   -5.8163    1.7293    0.0000 C   0  0  0  0  0  0  0  0  0  0  0  0
   -4.3194    1.8254    0.0000 O   0  0  0  0  0  0  0  0  0  0  0  0
   -6.6479    2.9777    0.0000 O   0  0  0  0  0  0  0  0  0  0  0  0
    0.5041   -3.0720    0.0000 C   0  0  0  0  0  0  0  0  0  0  0  0
    1.4616   -4.2266    0.0000 C   0  0  0  0  0  0  0  0  0  0  0  0
    2.8556   -3.6727    0.0000 C   0  0  0  0  0  0  0  0  0  0  0  0
    2.7596   -2.1758    0.0000 C   0  0  0  0  0  0  0  0  0  0  0  0
    3.8078   -1.1028    0.0000 C   0  0  0  0  0  0  0  0  0  0  0  0
    5.2611   -1.4740    0.0000 C   0  0  0  0  0  0  0  0  0  0  0  0
    5.6663   -2.9183    0.0000 O   0  0  0  0  0  0  0  0  0  0  0  0
    6.3093   -0.4010    0.0000 C   0  0  0  0  0  0  0  0  0  0  0  0
    5.9041    1.0432    0.0000 C   0  0  0  0  0  0  0  0  0  0  0  0
    6.9523    2.1162    0.0000 C   0  0  0  0  0  0  0  0  0  0  0  0
    6.5471    3.5605    0.0000 C   0  0  0  0  0  0  0  0  0  0  0  0
    7.5953    4.6335    0.0000 O   0  0  0  0  0  0  0  0  0  0  0  0
    5.0938    3.9317    0.0000 C   0  0  0  0  0  0  0  0  0  0  0  0
    4.0456    2.8587    0.0000 C   0  0  0  0  0  0  0  0  0  0  0  0
    4.4508    1.4145    0.0000 C   0  0  0  0  0  0  0  0  0  0  0  0
    2.9974    1.7857    0.0000 C   0  0  0  0  0  0  0  0  0  0  0  0
    3.4026    0.3415    0.0000 C   0  0  0  0  0  0  0  0  0  0  0  0
    1.9493    0.7127    0.0000 C   0  0  0  0  0  0  0  0  0  0  0  0
    0.9011   -0.3603    0.0000 C   0  0  0  0  0  0  0  0  0  0  0  0
    1.3063   -1.8045    0.0000 C   0  0  0  0  0  0  0  0  0  0  0  0
   -0.1779   -1.5872    0.0000 C   0  0  0  0  0  0  0  0  0  0  0  0
  2  1  1  6
  2  3  1  0
  3  4  1  0
  4  5  1  0
  5  6  2  0
  5  7  1  0
  7  8  1  0
  8  9  1  1
  9 10  1  0
 10 11  2  0
 10 12  1  0
  8 13  1  0
 13 14  2  0
 13 15  1  0
  2 16  1  0
 16 17  1  6
 17 18  1  0
 19 18  1  6
 19 20  1  0
 20 21  1  1
 21 22  2  0
 21 23  1  0
 24 23  1  1
 24 25  1  0
 25 26  1  0
 26 27  1  1
 26 28  1  0
 28 29  1  0
 29 30  1  0
 30 31  1  6
 30 32  1  0
 32 33  1  6
 33 34  1  0
 34 35  1  0
 35 36  1  6
 35 16  1  0
 35 19  1  0
 32 20  1  0
 30 24  1  0
M  END
>  <MS_ID>  (3647) 
MS4010

>  <SMILES>  (3647) 
C[C@H](CCC(=O)N[C@@H](CC(=O)O)C(=O)O)[C@H]1CC[C@H]2[C@@H]3C(=O)C[C@@H]4C[C@H](O)CC[C@]4(C)[C@H]3CC[C@]12C

>  <Structure_dimension>  (3647) 
2D

$$$$
MS4012
     RDKit          2D

 28 31  0  0  0  0  0  0  0  0999 V2000
   -5.1275   -2.0302    0.0000 C   0  0  0  0  0  0  0  0  0  0  0  0
   -3.9468   -1.1050    0.0000 C   0  0  0  0  0  0  0  0  0  0  0  0
   -4.1576    0.3801    0.0000 C   0  0  0  0  0  0  0  0  0  0  0  0
   -5.5492    0.9401    0.0000 C   0  0  0  0  0  0  0  0  0  0  0  0
   -5.7600    2.4252    0.0000 C   0  0  0  0  0  0  0  0  0  0  0  0
   -4.5793    3.3503    0.0000 O   0  0  0  0  0  0  0  0  0  0  0  0
   -7.1516    2.9851    0.0000 O   0  0  0  0  0  0  0  0  0  0  0  0
   -2.5552   -1.6650    0.0000 C   0  0  0  0  0  0  0  0  0  0  0  0
   -2.1903   -3.1199    0.0000 C   0  0  0  0  0  0  0  0  0  0  0  0
   -0.6938   -3.2225    0.0000 C   0  0  0  0  0  0  0  0  0  0  0  0
   -0.1339   -1.8309    0.0000 C   0  0  0  0  0  0  0  0  0  0  0  0
    1.2750   -1.3159    0.0000 C   0  0  0  0  0  0  0  0  0  0  0  0
    2.4254   -2.2785    0.0000 C   0  0  0  0  0  0  0  0  0  0  0  0
    2.1670   -3.7560    0.0000 O   0  0  0  0  0  0  0  0  0  0  0  0
    3.8342   -1.7635    0.0000 C   0  0  0  0  0  0  0  0  0  0  0  0
    4.0926   -0.2859    0.0000 C   0  0  0  0  0  0  0  0  0  0  0  0
    5.5014    0.2291    0.0000 C   0  0  0  0  0  0  0  0  0  0  0  0
    5.7598    1.7067    0.0000 C   0  0  0  0  0  0  0  0  0  0  0  0
    7.1687    2.2217    0.0000 O   0  0  0  0  0  0  0  0  0  0  0  0
    4.6094    2.6692    0.0000 C   0  0  0  0  0  0  0  0  0  0  0  0
    3.2006    2.1542    0.0000 C   0  0  0  0  0  0  0  0  0  0  0  0
    2.9422    0.6767    0.0000 C   0  0  0  0  0  0  0  0  0  0  0  0
    1.7918    1.6392    0.0000 C   0  0  0  0  0  0  0  0  0  0  0  0
    1.5334    0.1617    0.0000 C   0  0  0  0  0  0  0  0  0  0  0  0
    0.3830    1.1242    0.0000 C   0  0  0  0  0  0  0  0  0  0  0  0
   -1.0259    0.6093    0.0000 C   0  0  0  0  0  0  0  0  0  0  0  0
   -1.2843   -0.8683    0.0000 C   0  0  0  0  0  0  0  0  0  0  0  0
   -2.5290   -0.0313    0.0000 C   0  0  0  0  0  0  0  0  0  0  0  0
  2  1  1  6
  2  3  1  0
  3  4  1  0
  4  5  1  0
  5  6  2  0
  5  7  1  0
  2  8  1  0
  8  9  1  6
  9 10  1  0
 11 10  1  6
 11 12  1  0
 12 13  1  1
 13 14  1  1
 13 15  1  0
 16 15  1  6
 16 17  1  0
 17 18  1  0
 18 19  2  0
 18 20  1  0
 20 21  1  0
 21 22  1  0
 22 23  1  6
 22 24  1  0
 24 25  1  6
 25 26  1  0
 26 27  1  0
 27 28  1  6
 27  8  1  0
 27 11  1  0
 24 12  1  0
 22 16  1  0
M  END
>  <MS_ID>  (3648) 
MS4012

>  <SMILES>  (3648) 
C[C@H](CCC(=O)O)[C@H]1CC[C@H]2[C@@H]3[C@H](O)C[C@H]4CC(=O)CC[C@]4(C)[C@H]3CC[C@]12C

>  <Structure_dimension>  (3648) 
2D

$$$$
MS4019
     RDKit          2D

 29 32  0  0  0  0  0  0  0  0999 V2000
   -5.2182   -2.1453    0.0000 C   0  0  0  0  0  0  0  0  0  0  0  0
   -4.0752   -1.1739    0.0000 C   0  0  0  0  0  0  0  0  0  0  0  0
   -4.3449    0.3016    0.0000 C   0  0  0  0  0  0  0  0  0  0  0  0
   -5.7577    0.8058    0.0000 C   0  0  0  0  0  0  0  0  0  0  0  0
   -6.0274    2.2814    0.0000 C   0  0  0  0  0  0  0  0  0  0  0  0
   -4.8843    3.2527    0.0000 O   0  0  0  0  0  0  0  0  0  0  0  0
   -7.4401    2.7856    0.0000 O   0  0  0  0  0  0  0  0  0  0  0  0
   -2.6625   -1.6782    0.0000 C   0  0  0  0  0  0  0  0  0  0  0  0
   -2.2400   -3.1174    0.0000 C   0  0  0  0  0  0  0  0  0  0  0  0
   -0.7407   -3.1604    0.0000 C   0  0  0  0  0  0  0  0  0  0  0  0
   -0.2364   -1.7477    0.0000 C   0  0  0  0  0  0  0  0  0  0  0  0
    1.1508   -1.1771    0.0000 C   0  0  0  0  0  0  0  0  0  0  0  0
    2.3386   -2.0932    0.0000 C   0  0  0  0  0  0  0  0  0  0  0  0
    2.1391   -3.5798    0.0000 O   0  0  0  0  0  0  0  0  0  0  0  0
    3.7258   -1.5226    0.0000 C   0  0  0  0  0  0  0  0  0  0  0  0
    4.9136   -2.4386    0.0000 O   0  0  0  0  0  0  0  0  0  0  0  0
    3.9253   -0.0359    0.0000 C   0  0  0  0  0  0  0  0  0  0  0  0
    5.3125    0.5347    0.0000 C   0  0  0  0  0  0  0  0  0  0  0  0
    5.5119    2.0214    0.0000 C   0  0  0  0  0  0  0  0  0  0  0  0
    6.8992    2.5920    0.0000 O   0  0  0  0  0  0  0  0  0  0  0  0
    4.3242    2.9375    0.0000 C   0  0  0  0  0  0  0  0  0  0  0  0
    2.9369    2.3669    0.0000 C   0  0  0  0  0  0  0  0  0  0  0  0
    2.7375    0.8802    0.0000 C   0  0  0  0  0  0  0  0  0  0  0  0
    1.5497    1.7963    0.0000 C   0  0  0  0  0  0  0  0  0  0  0  0
    1.3502    0.3096    0.0000 C   0  0  0  0  0  0  0  0  0  0  0  0
    0.1625    1.2257    0.0000 C   0  0  0  0  0  0  0  0  0  0  0  0
   -1.2248    0.6551    0.0000 C   0  0  0  0  0  0  0  0  0  0  0  0
   -1.4242   -0.8316    0.0000 C   0  0  0  0  0  0  0  0  0  0  0  0
   -2.7012   -0.0447    0.0000 C   0  0  0  0  0  0  0  0  0  0  0  0
  2  1  1  6
  2  3  1  0
  3  4  1  0
  4  5  1  0
  5  6  2  0
  5  7  1  0
  2  8  1  0
  8  9  1  6
  9 10  1  0
 11 10  1  6
 11 12  1  0
 12 13  1  1
 13 14  2  0
 13 15  1  0
 15 16  1  1
 15 17  1  0
 17 18  1  1
 18 19  1  0
 19 20  1  1
 19 21  1  0
 21 22  1  0
 22 23  1  0
 23 24  1  6
 23 25  1  0
 25 26  1  6
 26 27  1  0
 27 28  1  0
 28 29  1  6
 28  8  1  0
 28 11  1  0
 25 12  1  0
 23 17  1  0
M  END
>  <MS_ID>  (3649) 
MS4019

>  <SMILES>  (3649) 
C[C@H](CCC(=O)O)[C@H]1CC[C@H]2[C@@H]3C(=O)[C@H](O)[C@@H]4C[C@H](O)CC[C@]4(C)[C@H]3CC[C@]12C

>  <Structure_dimension>  (3649) 
2D

$$$$
MS4020
     RDKit          2D

 36 40  0  0  0  0  0  0  0  0999 V2000
   -2.3692   -4.6452    0.0000 C   0  0  0  0  0  0  0  0  0  0  0  0
   -1.6889   -3.3084    0.0000 C   0  0  0  0  0  0  0  0  0  0  0  0
   -2.5064   -2.0508    0.0000 C   0  0  0  0  0  0  0  0  0  0  0  0
   -4.0043   -2.1300    0.0000 C   0  0  0  0  0  0  0  0  0  0  0  0
   -4.8219   -0.8724    0.0000 C   0  0  0  0  0  0  0  0  0  0  0  0
   -6.3198   -0.9517    0.0000 O   0  0  0  0  0  0  0  0  0  0  0  0
   -4.1416    0.4644    0.0000 O   0  0  0  0  0  0  0  0  0  0  0  0
   -4.9592    1.7220    0.0000 N   0  0  0  0  0  0  0  0  0  0  0  0
   -6.4571    1.7998    0.0000 C   0  0  0  0  0  0  0  0  0  0  0  0
   -7.4005    0.6336    0.0000 O   0  0  0  0  0  0  0  0  0  0  0  0
   -6.8461    3.2485    0.0000 C   0  0  0  0  0  0  0  0  0  0  0  0
   -5.5885    4.0661    0.0000 C   0  0  0  0  0  0  0  0  0  0  0  0
   -4.4223    3.1227    0.0000 C   0  0  0  0  0  0  0  0  0  0  0  0
   -2.9736    3.5116    0.0000 O   0  0  0  0  0  0  0  0  0  0  0  0
   -0.1910   -3.2292    0.0000 C   0  0  0  0  0  0  0  0  0  0  0  0
    0.7536   -4.3944    0.0000 C   0  0  0  0  0  0  0  0  0  0  0  0
    2.1537   -3.8562    0.0000 C   0  0  0  0  0  0  0  0  0  0  0  0
    2.0745   -2.3583    0.0000 C   0  0  0  0  0  0  0  0  0  0  0  0
    3.1346   -1.2971    0.0000 C   0  0  0  0  0  0  0  0  0  0  0  0
    4.5837   -1.6846    0.0000 C   0  0  0  0  0  0  0  0  0  0  0  0
    4.9726   -3.1333    0.0000 O   0  0  0  0  0  0  0  0  0  0  0  0
    5.6438   -0.6235    0.0000 C   0  0  0  0  0  0  0  0  0  0  0  0
    5.2549    0.8252    0.0000 C   0  0  0  0  0  0  0  0  0  0  0  0
    6.3150    1.8864    0.0000 C   0  0  0  0  0  0  0  0  0  0  0  0
    5.9261    3.3351    0.0000 C   0  0  0  0  0  0  0  0  0  0  0  0
    6.9862    4.3963    0.0000 O   0  0  0  0  0  0  0  0  0  0  0  0
    4.4770    3.7226    0.0000 C   0  0  0  0  0  0  0  0  0  0  0  0
    3.4169    2.6615    0.0000 C   0  0  0  0  0  0  0  0  0  0  0  0
    3.8058    1.2128    0.0000 C   0  0  0  0  0  0  0  0  0  0  0  0
    2.3567    1.6003    0.0000 C   0  0  0  0  0  0  0  0  0  0  0  0
    2.7457    0.1516    0.0000 C   0  0  0  0  0  0  0  0  0  0  0  0
    1.2966    0.5391    0.0000 C   0  0  0  0  0  0  0  0  0  0  0  0
    0.2364   -0.5221    0.0000 C   0  0  0  0  0  0  0  0  0  0  0  0
   -1.2126   -0.1345    0.0000 O   0  0  0  0  0  0  0  0  0  0  0  0
    0.6254   -1.9708    0.0000 C   0  0  0  0  0  0  0  0  0  0  0  0
   -0.8563   -1.7368    0.0000 C   0  0  0  0  0  0  0  0  0  0  0  0
  2  1  1  6
  2  3  1  0
  3  4  1  0
  4  5  1  0
  5  6  2  0
  5  7  1  0
  7  8  1  0
  8  9  1  0
  9 10  2  0
  9 11  1  0
 11 12  1  0
 12 13  1  0
 13 14  2  0
  2 15  1  0
 15 16  1  6
 16 17  1  0
 18 17  1  6
 18 19  1  0
 19 20  1  1
 20 21  1  1
 20 22  1  0
 23 22  1  1
 23 24  1  0
 24 25  1  0
 25 26  1  1
 25 27  1  0
 27 28  1  0
 28 29  1  0
 29 30  1  6
 29 31  1  0
 31 32  1  6
 32 33  1  0
 33 34  1  1
 33 35  1  0
 35 36  1  6
 13  8  1  0
 35 15  1  0
 35 18  1  0
 31 19  1  0
 29 23  1  0
M  END
>  <MS_ID>  (3650) 
MS4020

>  <SMILES>  (3650) 
C[C@H](CCC(=O)ON1C(=O)CCC1=O)[C@H]1CC[C@H]2[C@@H]3[C@H](O)C[C@@H]4C[C@H](O)CC[C@]4(C)[C@H]3C[C@H](O)[C@]12C

>  <Structure_dimension>  (3650) 
2D

$$$$
MS4026
     RDKit          2D

 29 32  0  0  0  0  0  0  0  0999 V2000
   -5.0303   -2.1373    0.0000 C   0  0  0  0  0  0  0  0  0  0  0  0
   -3.8594   -1.1998    0.0000 C   0  0  0  0  0  0  0  0  0  0  0  0
   -4.0858    0.2830    0.0000 C   0  0  0  0  0  0  0  0  0  0  0  0
   -5.4831    0.8284    0.0000 C   0  0  0  0  0  0  0  0  0  0  0  0
   -5.7095    2.3112    0.0000 C   0  0  0  0  0  0  0  0  0  0  0  0
   -4.5386    3.2487    0.0000 O   0  0  0  0  0  0  0  0  0  0  0  0
   -7.1069    2.8565    0.0000 O   0  0  0  0  0  0  0  0  0  0  0  0
   -2.4620   -1.7451    0.0000 C   0  0  0  0  0  0  0  0  0  0  0  0
   -2.0818   -3.1961    0.0000 C   0  0  0  0  0  0  0  0  0  0  0  0
   -0.5844   -3.2830    0.0000 C   0  0  0  0  0  0  0  0  0  0  0  0
   -0.0390   -1.8856    0.0000 C   0  0  0  0  0  0  0  0  0  0  0  0
    1.3643   -1.3559    0.0000 C   0  0  0  0  0  0  0  0  0  0  0  0
    2.5248   -2.3063    0.0000 C   0  0  0  0  0  0  0  0  0  0  0  0
    2.2819   -3.7865    0.0000 O   0  0  0  0  0  0  0  0  0  0  0  0
    3.9281   -1.7765    0.0000 C   0  0  0  0  0  0  0  0  0  0  0  0
    4.1710   -0.2963    0.0000 C   0  0  0  0  0  0  0  0  0  0  0  0
    5.5743    0.2334    0.0000 C   0  0  0  0  0  0  0  0  0  0  0  0
    5.8172    1.7136    0.0000 C   0  0  0  0  0  0  0  0  0  0  0  0
    7.2205    2.2434    0.0000 O   0  0  0  0  0  0  0  0  0  0  0  0
    4.6568    2.6641    0.0000 C   0  0  0  0  0  0  0  0  0  0  0  0
    3.2534    2.1343    0.0000 C   0  0  0  0  0  0  0  0  0  0  0  0
    3.0105    0.6541    0.0000 C   0  0  0  0  0  0  0  0  0  0  0  0
    1.8501    1.6046    0.0000 C   0  0  0  0  0  0  0  0  0  0  0  0
    1.6072    0.1244    0.0000 C   0  0  0  0  0  0  0  0  0  0  0  0
    0.4467    1.0748    0.0000 C   0  0  0  0  0  0  0  0  0  0  0  0
   -0.9566    0.5450    0.0000 C   0  0  0  0  0  0  0  0  0  0  0  0
   -2.1170    1.4955    0.0000 O   0  0  0  0  0  0  0  0  0  0  0  0
   -1.1995   -0.9352    0.0000 C   0  0  0  0  0  0  0  0  0  0  0  0
   -2.4529   -0.1112    0.0000 C   0  0  0  0  0  0  0  0  0  0  0  0
  2  1  1  1
  2  3  1  0
  3  4  1  0
  4  5  1  0
  5  6  2  0
  5  7  1  0
  2  8  1  0
  8  9  1  6
  9 10  1  0
 11 10  1  6
 11 12  1  0
 12 13  1  1
 13 14  1  1
 13 15  1  0
 16 15  1  1
 16 17  1  0
 17 18  1  0
 18 19  1  1
 18 20  1  0
 20 21  1  0
 21 22  1  0
 22 23  1  6
 22 24  1  0
 24 25  1  6
 25 26  1  0
 26 27  2  0
 26 28  1  0
 28 29  1  6
 28  8  1  0
 28 11  1  0
 24 12  1  0
 22 16  1  0
M  END
>  <MS_ID>  (3651) 
MS4026

>  <SMILES>  (3651) 
C[C@@H](CCC(=O)O)[C@H]1CC[C@H]2[C@@H]3[C@H](O)C[C@@H]4C[C@H](O)CC[C@]4(C)[C@H]3CC(=O)[C@]12C

>  <Structure_dimension>  (3651) 
2D

$$$$
MS4027
     RDKit          2D

 37 40  0  0  0  0  0  0  0  0999 V2000
   -1.3870   -4.2767    0.0000 C   0  0  0  0  0  0  0  0  0  0  0  0
   -0.6853   -2.9509    0.0000 C   0  0  0  0  0  0  0  0  0  0  0  0
   -1.4827   -1.6804    0.0000 C   0  0  0  0  0  0  0  0  0  0  0  0
   -2.9817   -1.7357    0.0000 C   0  0  0  0  0  0  0  0  0  0  0  0
   -3.7790   -0.4652    0.0000 C   0  0  0  0  0  0  0  0  0  0  0  0
   -3.0774    0.8606    0.0000 O   0  0  0  0  0  0  0  0  0  0  0  0
   -5.2780   -0.5204    0.0000 C   0  0  0  0  0  0  0  0  0  0  0  0
   -5.9796   -1.8462    0.0000 O   0  0  0  0  0  0  0  0  0  0  0  0
   -6.0754    0.7501    0.0000 N   0  0  0  0  0  0  0  0  0  0  0  0
   -7.5744    0.6948    0.0000 C   0  0  0  0  0  0  0  0  0  0  0  0
   -8.3717    1.9653    0.0000 C   0  0  0  0  0  0  0  0  0  0  0  0
   -9.8707    1.9100    0.0000 S   0  0  0  0  0  0  0  0  0  0  0  0
   -9.9260    3.4090    0.0000 O   0  0  0  0  0  0  0  0  0  0  0  0
   -9.8154    0.4111    0.0000 O   0  0  0  0  0  0  0  0  0  0  0  0
  -11.3697    1.8548    0.0000 O   0  0  0  0  0  0  0  0  0  0  0  0
    0.8136   -2.8957    0.0000 C   0  0  0  0  0  0  0  0  0  0  0  0
    1.7394   -4.0759    0.0000 C   0  0  0  0  0  0  0  0  0  0  0  0
    3.1480   -3.5601    0.0000 C   0  0  0  0  0  0  0  0  0  0  0  0
    3.0927   -2.0611    0.0000 C   0  0  0  0  0  0  0  0  0  0  0  0
    4.1697   -1.0170    0.0000 C   0  0  0  0  0  0  0  0  0  0  0  0
    5.6124   -1.4277    0.0000 C   0  0  0  0  0  0  0  0  0  0  0  0
    5.9781   -2.8824    0.0000 O   0  0  0  0  0  0  0  0  0  0  0  0
    6.6893   -0.3836    0.0000 C   0  0  0  0  0  0  0  0  0  0  0  0
    6.3236    1.0711    0.0000 C   0  0  0  0  0  0  0  0  0  0  0  0
    7.4006    2.1152    0.0000 C   0  0  0  0  0  0  0  0  0  0  0  0
    7.0349    3.5700    0.0000 C   0  0  0  0  0  0  0  0  0  0  0  0
    8.1119    4.6141    0.0000 O   0  0  0  0  0  0  0  0  0  0  0  0
    5.5922    3.9806    0.0000 C   0  0  0  0  0  0  0  0  0  0  0  0
    4.5152    2.9365    0.0000 C   0  0  0  0  0  0  0  0  0  0  0  0
    4.8809    1.4818    0.0000 C   0  0  0  0  0  0  0  0  0  0  0  0
    3.4382    1.8924    0.0000 C   0  0  0  0  0  0  0  0  0  0  0  0
    3.8040    0.4377    0.0000 C   0  0  0  0  0  0  0  0  0  0  0  0
    2.3613    0.8483    0.0000 C   0  0  0  0  0  0  0  0  0  0  0  0
    1.2843   -0.1958    0.0000 C   0  0  0  0  0  0  0  0  0  0  0  0
   -0.1584    0.2149    0.0000 O   0  0  0  0  0  0  0  0  0  0  0  0
    1.6500   -1.6505    0.0000 C   0  0  0  0  0  0  0  0  0  0  0  0
    0.1723   -1.3929    0.0000 C   0  0  0  0  0  0  0  0  0  0  0  0
  2  1  1  6
  2  3  1  0
  3  4  1  0
  4  5  1  0
  5  6  2  0
  5  7  1  0
  7  8  2  0
  7  9  1  0
  9 10  1  0
 10 11  1  0
 11 12  1  0
 12 13  2  0
 12 14  2  0
 12 15  1  0
  2 16  1  0
 16 17  1  6
 17 18  1  0
 19 18  1  6
 19 20  1  0
 20 21  1  1
 21 22  1  1
 21 23  1  0
 24 23  1  1
 24 25  1  0
 25 26  1  0
 26 27  1  1
 26 28  1  0
 28 29  1  0
 29 30  1  0
 30 31  1  6
 30 32  1  0
 32 33  1  6
 33 34  1  0
 34 35  1  1
 34 36  1  0
 36 37  1  6
 36 16  1  0
 36 19  1  0
 32 20  1  0
 30 24  1  0
M  END
>  <MS_ID>  (3652) 
MS4027

>  <SMILES>  (3652) 
C[C@H](CCC(=O)C(=O)NCCS(=O)(=O)O)[C@H]1CC[C@H]2[C@@H]3[C@H](O)C[C@@H]4C[C@H](O)CC[C@]4(C)[C@H]3C[C@H](O)[C@]12C

>  <Structure_dimension>  (3652) 
2D

$$$$
MS4030
     RDKit          2D

 35 38  0  0  0  0  0  0  0  0999 V2000
   -1.6679   -4.3975    0.0000 C   0  0  0  0  0  0  0  0  0  0  0  0
   -1.0049   -3.0520    0.0000 C   0  0  0  0  0  0  0  0  0  0  0  0
   -1.8386   -1.8051    0.0000 C   0  0  0  0  0  0  0  0  0  0  0  0
   -3.3354   -1.9036    0.0000 C   0  0  0  0  0  0  0  0  0  0  0  0
   -4.1691   -0.6567    0.0000 C   0  0  0  0  0  0  0  0  0  0  0  0
   -3.5061    0.6889    0.0000 O   0  0  0  0  0  0  0  0  0  0  0  0
   -5.6659   -0.7552    0.0000 N   0  0  0  0  0  0  0  0  0  0  0  0
   -6.4996    0.4918    0.0000 C   0  0  0  0  0  0  0  0  0  0  0  0
   -7.9964    0.3932    0.0000 C   0  0  0  0  0  0  0  0  0  0  0  0
   -8.8301    1.6402    0.0000 C   0  0  0  0  0  0  0  0  0  0  0  0
  -10.3268    1.5416    0.0000 C   0  0  0  0  0  0  0  0  0  0  0  0
  -11.1606    2.7886    0.0000 C   0  0  0  0  0  0  0  0  0  0  0  0
  -12.6573    2.6900    0.0000 N   0  0  0  0  0  0  0  0  0  0  0  0
    0.4918   -2.9535    0.0000 C   0  0  0  0  0  0  0  0  0  0  0  0
    1.4513   -4.1065    0.0000 C   0  0  0  0  0  0  0  0  0  0  0  0
    2.8444   -3.5502    0.0000 C   0  0  0  0  0  0  0  0  0  0  0  0
    2.7459   -2.0535    0.0000 C   0  0  0  0  0  0  0  0  0  0  0  0
    3.7922   -0.9787    0.0000 C   0  0  0  0  0  0  0  0  0  0  0  0
    5.2462   -1.3475    0.0000 C   0  0  0  0  0  0  0  0  0  0  0  0
    5.6538   -2.7911    0.0000 O   0  0  0  0  0  0  0  0  0  0  0  0
    6.2925   -0.2727    0.0000 C   0  0  0  0  0  0  0  0  0  0  0  0
    5.8850    1.1708    0.0000 C   0  0  0  0  0  0  0  0  0  0  0  0
    6.9313    2.2456    0.0000 C   0  0  0  0  0  0  0  0  0  0  0  0
    6.5237    3.6892    0.0000 C   0  0  0  0  0  0  0  0  0  0  0  0
    7.5701    4.7639    0.0000 O   0  0  0  0  0  0  0  0  0  0  0  0
    5.0698    4.0580    0.0000 C   0  0  0  0  0  0  0  0  0  0  0  0
    4.0234    2.9832    0.0000 C   0  0  0  0  0  0  0  0  0  0  0  0
    4.4310    1.5396    0.0000 C   0  0  0  0  0  0  0  0  0  0  0  0
    2.9770    1.9084    0.0000 C   0  0  0  0  0  0  0  0  0  0  0  0
    3.3846    0.4649    0.0000 C   0  0  0  0  0  0  0  0  0  0  0  0
    1.9307    0.8337    0.0000 C   0  0  0  0  0  0  0  0  0  0  0  0
    0.8843   -0.2411    0.0000 C   0  0  0  0  0  0  0  0  0  0  0  0
   -0.5696    0.1277    0.0000 O   0  0  0  0  0  0  0  0  0  0  0  0
    1.2919   -1.6847    0.0000 C   0  0  0  0  0  0  0  0  0  0  0  0
   -0.1926   -1.4698    0.0000 C   0  0  0  0  0  0  0  0  0  0  0  0
  2  1  1  6
  2  3  1  0
  3  4  1  0
  4  5  1  0
  5  6  2  0
  5  7  1  0
  7  8  1  0
  8  9  1  0
  9 10  1  0
 10 11  1  0
 11 12  1  0
 12 13  1  0
  2 14  1  0
 14 15  1  6
 15 16  1  0
 17 16  1  6
 17 18  1  0
 18 19  1  1
 19 20  1  1
 19 21  1  0
 22 21  1  1
 22 23  1  0
 23 24  1  0
 24 25  1  1
 24 26  1  0
 26 27  1  0
 27 28  1  0
 28 29  1  6
 28 30  1  0
 30 31  1  6
 31 32  1  0
 32 33  1  1
 32 34  1  0
 34 35  1  6
 34 14  1  0
 34 17  1  0
 30 18  1  0
 28 22  1  0
M  END
>  <MS_ID>  (3653) 
MS4030

>  <SMILES>  (3653) 
C[C@H](CCC(=O)NCCCCCN)[C@H]1CC[C@H]2[C@@H]3[C@H](O)C[C@@H]4C[C@H](O)CC[C@]4(C)[C@H]3C[C@H](O)[C@]12C

>  <Structure_dimension>  (3653) 
2D

$$$$
MS4031
     RDKit          2D

 38 41  0  0  0  0  0  0  0  0999 V2000
   -0.0196   -4.6625    0.0000 C   0  0  0  0  0  0  0  0  0  0  0  0
    0.5753   -3.2855    0.0000 C   0  0  0  0  0  0  0  0  0  0  0  0
   -0.3197   -2.0818    0.0000 C   0  0  0  0  0  0  0  0  0  0  0  0
   -1.8096   -2.2550    0.0000 C   0  0  0  0  0  0  0  0  0  0  0  0
   -2.7046   -1.0513    0.0000 C   0  0  0  0  0  0  0  0  0  0  0  0
   -2.1097    0.3257    0.0000 O   0  0  0  0  0  0  0  0  0  0  0  0
   -4.1946   -1.2245    0.0000 N   0  0  0  0  0  0  0  0  0  0  0  0
   -5.0896   -0.0208    0.0000 C   0  0  0  0  0  0  0  0  0  0  0  0
   -6.5796   -0.1940    0.0000 C   0  0  0  0  0  0  0  0  0  0  0  0
   -7.1745   -1.5710    0.0000 O   0  0  0  0  0  0  0  0  0  0  0  0
   -7.4746    1.0097    0.0000 N   0  0  0  0  0  0  0  0  0  0  0  0
   -8.9645    0.8365    0.0000 C   0  0  0  0  0  0  0  0  0  0  0  0
   -9.8595    2.0402    0.0000 C   0  0  0  0  0  0  0  0  0  0  0  0
  -11.3495    1.8670    0.0000 S   0  0  0  0  0  0  0  0  0  0  0  0
  -11.5227    3.3570    0.0000 O   0  0  0  0  0  0  0  0  0  0  0  0
  -11.1763    0.3770    0.0000 O   0  0  0  0  0  0  0  0  0  0  0  0
  -12.8395    1.6938    0.0000 O   0  0  0  0  0  0  0  0  0  0  0  0
    2.0653   -3.1123    0.0000 C   0  0  0  0  0  0  0  0  0  0  0  0
    3.0812   -4.2159    0.0000 C   0  0  0  0  0  0  0  0  0  0  0  0
    4.4447   -3.5907    0.0000 C   0  0  0  0  0  0  0  0  0  0  0  0
    4.2715   -2.1008    0.0000 C   0  0  0  0  0  0  0  0  0  0  0  0
    5.2628   -0.9751    0.0000 C   0  0  0  0  0  0  0  0  0  0  0  0
    6.7334   -1.2707    0.0000 C   0  0  0  0  0  0  0  0  0  0  0  0
    7.7248   -0.1450    0.0000 C   0  0  0  0  0  0  0  0  0  0  0  0
    7.2455    1.2764    0.0000 C   0  0  0  0  0  0  0  0  0  0  0  0
    8.2369    2.4021    0.0000 C   0  0  0  0  0  0  0  0  0  0  0  0
    7.7577    3.8235    0.0000 C   0  0  0  0  0  0  0  0  0  0  0  0
    8.7490    4.9492    0.0000 O   0  0  0  0  0  0  0  0  0  0  0  0
    6.2871    4.1191    0.0000 C   0  0  0  0  0  0  0  0  0  0  0  0
    5.2957    2.9934    0.0000 C   0  0  0  0  0  0  0  0  0  0  0  0
    5.7750    1.5720    0.0000 C   0  0  0  0  0  0  0  0  0  0  0  0
    4.3044    1.8677    0.0000 C   0  0  0  0  0  0  0  0  0  0  0  0
    4.7836    0.4463    0.0000 C   0  0  0  0  0  0  0  0  0  0  0  0
    3.3130    0.7420    0.0000 C   0  0  0  0  0  0  0  0  0  0  0  0
    2.3217   -0.3837    0.0000 C   0  0  0  0  0  0  0  0  0  0  0  0
    0.8511   -0.0880    0.0000 O   0  0  0  0  0  0  0  0  0  0  0  0
    2.8009   -1.8051    0.0000 C   0  0  0  0  0  0  0  0  0  0  0  0
    1.3075   -1.6648    0.0000 C   0  0  0  0  0  0  0  0  0  0  0  0
  2  1  1  6
  2  3  1  0
  3  4  1  0
  4  5  1  0
  5  6  2  0
  5  7  1  0
  7  8  1  0
  8  9  1  0
  9 10  2  0
  9 11  1  0
 11 12  1  0
 12 13  1  0
 13 14  1  0
 14 15  2  0
 14 16  2  0
 14 17  1  0
  2 18  1  0
 18 19  1  6
 19 20  1  0
 21 20  1  6
 21 22  1  0
 22 23  1  1
 23 24  1  0
 25 24  1  1
 25 26  1  0
 26 27  1  0
 27 28  1  1
 27 29  1  0
 29 30  1  0
 30 31  1  0
 31 32  1  6
 31 33  1  0
 33 34  1  6
 34 35  1  0
 35 36  1  1
 35 37  1  0
 37 38  1  6
 37 18  1  0
 37 21  1  0
 33 22  1  0
 31 25  1  0
M  END
>  <MS_ID>  (3654) 
MS4031

>  <SMILES>  (3654) 
C[C@H](CCC(=O)NCC(=O)NCCS(=O)(=O)O)[C@H]1CC[C@H]2[C@@H]3CC[C@@H]4C[C@H](O)CC[C@]4(C)[C@H]3C[C@H](O)[C@]12C

>  <Structure_dimension>  (3654) 
2D

$$$$
MS4034
     RDKit          2D

 29 32  0  0  0  0  0  0  0  0999 V2000
   -7.1069    2.8565    0.0000 C   0  0  0  0  0  0  0  0  0  0  0  0
   -5.7095    2.3112    0.0000 C   0  0  0  0  0  0  0  0  0  0  0  0
   -4.5386    3.2487    0.0000 O   0  0  0  0  0  0  0  0  0  0  0  0
   -5.4831    0.8284    0.0000 C   0  0  0  0  0  0  0  0  0  0  0  0
   -4.0858    0.2830    0.0000 C   0  0  0  0  0  0  0  0  0  0  0  0
   -3.8594   -1.1998    0.0000 C   0  0  0  0  0  0  0  0  0  0  0  0
   -5.0303   -2.1373    0.0000 C   0  0  0  0  0  0  0  0  0  0  0  0
   -2.4620   -1.7451    0.0000 C   0  0  0  0  0  0  0  0  0  0  0  0
   -2.0818   -3.1961    0.0000 C   0  0  0  0  0  0  0  0  0  0  0  0
   -0.5844   -3.2830    0.0000 C   0  0  0  0  0  0  0  0  0  0  0  0
   -0.0390   -1.8856    0.0000 C   0  0  0  0  0  0  0  0  0  0  0  0
    1.3643   -1.3559    0.0000 C   0  0  0  0  0  0  0  0  0  0  0  0
    2.5248   -2.3063    0.0000 C   0  0  0  0  0  0  0  0  0  0  0  0
    2.2819   -3.7865    0.0000 O   0  0  0  0  0  0  0  0  0  0  0  0
    3.9281   -1.7765    0.0000 C   0  0  0  0  0  0  0  0  0  0  0  0
    4.1710   -0.2963    0.0000 C   0  0  0  0  0  0  0  0  0  0  0  0
    5.5743    0.2334    0.0000 C   0  0  0  0  0  0  0  0  0  0  0  0
    5.8172    1.7136    0.0000 C   0  0  0  0  0  0  0  0  0  0  0  0
    7.2205    2.2434    0.0000 O   0  0  0  0  0  0  0  0  0  0  0  0
    4.6568    2.6641    0.0000 C   0  0  0  0  0  0  0  0  0  0  0  0
    3.2534    2.1343    0.0000 C   0  0  0  0  0  0  0  0  0  0  0  0
    3.0105    0.6541    0.0000 C   0  0  0  0  0  0  0  0  0  0  0  0
    1.8501    1.6046    0.0000 C   0  0  0  0  0  0  0  0  0  0  0  0
    1.6072    0.1244    0.0000 C   0  0  0  0  0  0  0  0  0  0  0  0
    0.4467    1.0748    0.0000 C   0  0  0  0  0  0  0  0  0  0  0  0
   -0.9566    0.5450    0.0000 C   0  0  0  0  0  0  0  0  0  0  0  0
   -2.1170    1.4955    0.0000 O   0  0  0  0  0  0  0  0  0  0  0  0
   -1.1995   -0.9352    0.0000 C   0  0  0  0  0  0  0  0  0  0  0  0
   -2.4529   -0.1112    0.0000 C   0  0  0  0  0  0  0  0  0  0  0  0
  1  2  1  0
  2  3  2  0
  2  4  1  0
  4  5  1  0
  5  6  1  0
  6  7  1  1
  6  8  1  0
  8  9  1  6
  9 10  1  0
 11 10  1  6
 11 12  1  0
 12 13  1  1
 13 14  1  1
 13 15  1  0
 16 15  1  1
 16 17  1  0
 17 18  1  0
 18 19  1  1
 18 20  1  0
 20 21  1  0
 21 22  1  0
 22 23  1  6
 22 24  1  0
 24 25  1  6
 25 26  1  0
 26 27  1  1
 26 28  1  0
 28 29  1  6
 28  8  1  0
 28 11  1  0
 24 12  1  0
 22 16  1  0
M  END
>  <MS_ID>  (3655) 
MS4034

>  <SMILES>  (3655) 
CC(=O)CC[C@H](C)[C@H]1CC[C@H]2[C@@H]3[C@H](O)C[C@@H]4C[C@H](O)CC[C@]4(C)[C@H]3C[C@H](O)[C@]12C

>  <Structure_dimension>  (3655) 
2D

$$$$
MS4037
     RDKit          2D

 28 31  0  0  0  0  0  0  0  0999 V2000
   -4.7072   -2.4443    0.0000 C   0  0  0  0  0  0  0  0  0  0  0  0
   -3.6076   -1.4240    0.0000 C   0  0  0  0  0  0  0  0  0  0  0  0
   -3.9414    0.0384    0.0000 C   0  0  0  0  0  0  0  0  0  0  0  0
   -5.3748    0.4805    0.0000 C   0  0  0  0  0  0  0  0  0  0  0  0
   -5.7086    1.9429    0.0000 C   0  0  0  0  0  0  0  0  0  0  0  0
   -4.6090    2.9631    0.0000 O   0  0  0  0  0  0  0  0  0  0  0  0
   -7.1419    2.3850    0.0000 O   0  0  0  0  0  0  0  0  0  0  0  0
   -2.1742   -1.8661    0.0000 C   0  0  0  0  0  0  0  0  0  0  0  0
   -1.6894   -3.2856    0.0000 C   0  0  0  0  0  0  0  0  0  0  0  0
   -0.1896   -3.2632    0.0000 C   0  0  0  0  0  0  0  0  0  0  0  0
    0.2525   -1.8298    0.0000 C   0  0  0  0  0  0  0  0  0  0  0  0
    1.6136   -1.1992    0.0000 C   0  0  0  0  0  0  0  0  0  0  0  0
    2.8402   -2.0627    0.0000 C   0  0  0  0  0  0  0  0  0  0  0  0
    4.2012   -1.4321    0.0000 C   0  0  0  0  0  0  0  0  0  0  0  0
    5.4278   -2.2955    0.0000 O   0  0  0  0  0  0  0  0  0  0  0  0
    4.3356    0.0619    0.0000 C   0  0  0  0  0  0  0  0  0  0  0  0
    5.6967    0.6924    0.0000 C   0  0  0  0  0  0  0  0  0  0  0  0
    5.8311    2.1864    0.0000 C   0  0  0  0  0  0  0  0  0  0  0  0
    4.6045    3.0498    0.0000 C   0  0  0  0  0  0  0  0  0  0  0  0
    3.2435    2.4192    0.0000 C   0  0  0  0  0  0  0  0  0  0  0  0
    3.1090    0.9253    0.0000 C   0  0  0  0  0  0  0  0  0  0  0  0
    1.8825    1.7887    0.0000 C   0  0  0  0  0  0  0  0  0  0  0  0
    1.7480    0.2947    0.0000 C   0  0  0  0  0  0  0  0  0  0  0  0
    0.5214    1.1581    0.0000 C   0  0  0  0  0  0  0  0  0  0  0  0
   -0.8396    0.5276    0.0000 C   0  0  0  0  0  0  0  0  0  0  0  0
   -2.0662    1.3910    0.0000 O   0  0  0  0  0  0  0  0  0  0  0  0
   -0.9740   -0.9664    0.0000 C   0  0  0  0  0  0  0  0  0  0  0  0
   -2.2842   -0.2359    0.0000 C   0  0  0  0  0  0  0  0  0  0  0  0
  2  1  1  6
  2  3  1  0
  3  4  1  0
  4  5  1  0
  5  6  2  0
  5  7  1  0
  2  8  1  0
  8  9  1  6
  9 10  1  0
 11 10  1  6
 11 12  1  0
 12 13  1  1
 13 14  1  0
 14 15  1  1
 14 16  1  0
 16 17  1  1
 17 18  1  0
 18 19  1  0
 19 20  1  0
 20 21  1  0
 21 22  1  6
 21 23  1  0
 23 24  1  6
 24 25  1  0
 25 26  1  1
 25 27  1  0
 27 28  1  6
 27  8  1  0
 27 11  1  0
 23 12  1  0
 21 16  1  0
M  END
>  <MS_ID>  (3656) 
MS4037

>  <SMILES>  (3656) 
C[C@H](CCC(=O)O)[C@H]1CC[C@H]2[C@@H]3C[C@H](O)[C@@H]4CCCC[C@]4(C)[C@H]3C[C@H](O)[C@]12C

>  <Structure_dimension>  (3656) 
2D

$$$$
MS4038
     RDKit          2D

 34 37  0  0  0  0  0  0  0  0999 V2000
   -1.4216   -4.3999    0.0000 C   0  0  0  0  0  0  0  0  0  0  0  0
   -0.7110   -3.0789    0.0000 C   0  0  0  0  0  0  0  0  0  0  0  0
   -1.4997   -1.8030    0.0000 C   0  0  0  0  0  0  0  0  0  0  0  0
   -2.9990   -1.8481    0.0000 C   0  0  0  0  0  0  0  0  0  0  0  0
   -3.7877   -0.5722    0.0000 C   0  0  0  0  0  0  0  0  0  0  0  0
   -3.0771    0.7488    0.0000 O   0  0  0  0  0  0  0  0  0  0  0  0
   -5.2871   -0.6172    0.0000 N   0  0  0  0  0  0  0  0  0  0  0  0
   -6.0757    0.6587    0.0000 C   0  0  0  0  0  0  0  0  0  0  0  0
   -7.5751    0.6136    0.0000 C   0  0  0  0  0  0  0  0  0  0  0  0
   -8.3638    1.8895    0.0000 C   0  0  0  0  0  0  0  0  0  0  0  0
   -9.8631    1.8444    0.0000 S   0  0  0  0  0  0  0  0  0  0  0  0
   -9.9082    3.3438    0.0000 O   0  0  0  0  0  0  0  0  0  0  0  0
   -9.8180    0.3451    0.0000 O   0  0  0  0  0  0  0  0  0  0  0  0
  -11.3624    1.7994    0.0000 O   0  0  0  0  0  0  0  0  0  0  0  0
    0.7883   -3.0339    0.0000 C   0  0  0  0  0  0  0  0  0  0  0  0
    1.7060   -4.2204    0.0000 C   0  0  0  0  0  0  0  0  0  0  0  0
    3.1181   -3.7142    0.0000 C   0  0  0  0  0  0  0  0  0  0  0  0
    3.0730   -2.2148    0.0000 C   0  0  0  0  0  0  0  0  0  0  0  0
    4.1570   -1.1781    0.0000 C   0  0  0  0  0  0  0  0  0  0  0  0
    5.5969   -1.5986    0.0000 C   0  0  0  0  0  0  0  0  0  0  0  0
    6.6810   -0.5618    0.0000 C   0  0  0  0  0  0  0  0  0  0  0  0
    6.3252    0.8954    0.0000 C   0  0  0  0  0  0  0  0  0  0  0  0
    7.4092    1.9321    0.0000 C   0  0  0  0  0  0  0  0  0  0  0  0
    7.0534    3.3893    0.0000 C   0  0  0  0  0  0  0  0  0  0  0  0
    8.1375    4.4260    0.0000 O   0  0  0  0  0  0  0  0  0  0  0  0
    5.6135    3.8097    0.0000 C   0  0  0  0  0  0  0  0  0  0  0  0
    4.5295    2.7730    0.0000 C   0  0  0  0  0  0  0  0  0  0  0  0
    4.8853    1.3158    0.0000 C   0  0  0  0  0  0  0  0  0  0  0  0
    3.4454    1.7363    0.0000 C   0  0  0  0  0  0  0  0  0  0  0  0
    3.8012    0.2791    0.0000 C   0  0  0  0  0  0  0  0  0  0  0  0
    2.3614    0.6995    0.0000 C   0  0  0  0  0  0  0  0  0  0  0  0
    1.2773   -0.3372    0.0000 C   0  0  0  0  0  0  0  0  0  0  0  0
    1.6331   -1.7944    0.0000 C   0  0  0  0  0  0  0  0  0  0  0  0
    0.1572   -1.5268    0.0000 C   0  0  0  0  0  0  0  0  0  0  0  0
  2  1  1  6
  2  3  1  0
  3  4  1  0
  4  5  1  0
  5  6  2  0
  5  7  1  0
  7  8  1  0
  8  9  1  0
  9 10  1  0
 10 11  1  0
 11 12  2  0
 11 13  2  0
 11 14  1  0
  2 15  1  0
 15 16  1  6
 16 17  1  0
 18 17  1  6
 18 19  1  0
 19 20  1  1
 20 21  1  0
 22 21  1  1
 22 23  1  0
 23 24  1  0
 24 25  1  1
 24 26  1  0
 26 27  1  0
 27 28  1  0
 28 29  1  6
 28 30  1  0
 30 31  1  6
 31 32  1  0
 32 33  1  0
 33 34  1  6
 33 15  1  0
 33 18  1  0
 30 19  1  0
 28 22  1  0
M  END
>  <MS_ID>  (3657) 
MS4038

>  <SMILES>  (3657) 
C[C@H](CCC(=O)NCCCS(=O)(=O)O)[C@H]1CC[C@H]2[C@@H]3CC[C@@H]4C[C@H](O)CC[C@]4(C)[C@H]3CC[C@]12C

>  <Structure_dimension>  (3657) 
2D

$$$$
MS4048
     RDKit          2D

 34 37  0  0  0  0  0  0  0  0999 V2000
   -2.5677   -4.1241    0.0000 C   0  0  0  0  0  0  0  0  0  0  0  0
   -1.7692   -2.8543    0.0000 C   0  0  0  0  0  0  0  0  0  0  0  0
   -2.4697   -1.5279    0.0000 C   0  0  0  0  0  0  0  0  0  0  0  0
   -3.9686   -1.4713    0.0000 C   0  0  0  0  0  0  0  0  0  0  0  0
   -4.6691   -0.1449    0.0000 C   0  0  0  0  0  0  0  0  0  0  0  0
   -3.8706    1.1249    0.0000 O   0  0  0  0  0  0  0  0  0  0  0  0
   -6.1680   -0.0883    0.0000 N   0  0  0  0  0  0  0  0  0  0  0  0
   -6.8685    1.2381    0.0000 C   0  0  0  0  0  0  0  0  0  0  0  0
   -6.0700    2.5079    0.0000 C   0  0  0  0  0  0  0  0  0  0  0  0
   -6.7705    3.8343    0.0000 S   0  0  0  0  0  0  0  0  0  0  0  0
   -8.3674    1.2947    0.0000 C   0  0  0  0  0  0  0  0  0  0  0  0
   -9.1659    0.0249    0.0000 O   0  0  0  0  0  0  0  0  0  0  0  0
   -9.0679    2.6211    0.0000 O   0  0  0  0  0  0  0  0  0  0  0  0
   -0.2703   -2.9109    0.0000 C   0  0  0  0  0  0  0  0  0  0  0  0
    0.5650   -4.1568    0.0000 C   0  0  0  0  0  0  0  0  0  0  0  0
    2.0080   -3.7474    0.0000 C   0  0  0  0  0  0  0  0  0  0  0  0
    2.0646   -2.2485    0.0000 C   0  0  0  0  0  0  0  0  0  0  0  0
    3.2164   -1.2875    0.0000 C   0  0  0  0  0  0  0  0  0  0  0  0
    4.6245   -1.8045    0.0000 C   0  0  0  0  0  0  0  0  0  0  0  0
    5.7763   -0.8436    0.0000 C   0  0  0  0  0  0  0  0  0  0  0  0
    7.1844   -1.3606    0.0000 O   0  0  0  0  0  0  0  0  0  0  0  0
    5.5200    0.6343    0.0000 C   0  0  0  0  0  0  0  0  0  0  0  0
    6.6718    1.5953    0.0000 C   0  0  0  0  0  0  0  0  0  0  0  0
    6.4155    3.0732    0.0000 C   0  0  0  0  0  0  0  0  0  0  0  0
    7.5672    4.0341    0.0000 O   0  0  0  0  0  0  0  0  0  0  0  0
    5.0074    3.5902    0.0000 C   0  0  0  0  0  0  0  0  0  0  0  0
    3.8556    2.6293    0.0000 C   0  0  0  0  0  0  0  0  0  0  0  0
    4.1119    1.1513    0.0000 C   0  0  0  0  0  0  0  0  0  0  0  0
    2.7038    1.6684    0.0000 C   0  0  0  0  0  0  0  0  0  0  0  0
    2.9601    0.1904    0.0000 C   0  0  0  0  0  0  0  0  0  0  0  0
    1.5520    0.7074    0.0000 C   0  0  0  0  0  0  0  0  0  0  0  0
    0.4002   -0.2535    0.0000 C   0  0  0  0  0  0  0  0  0  0  0  0
    0.6565   -1.7315    0.0000 C   0  0  0  0  0  0  0  0  0  0  0  0
   -0.7979   -1.3645    0.0000 C   0  0  0  0  0  0  0  0  0  0  0  0
  2  1  1  6
  2  3  1  0
  3  4  1  0
  4  5  1  0
  5  6  2  0
  5  7  1  0
  7  8  1  0
  8  9  1  6
  9 10  1  0
  8 11  1  0
 11 12  2  0
 11 13  1  0
  2 14  1  0
 14 15  1  6
 15 16  1  0
 17 16  1  6
 17 18  1  0
 18 19  1  1
 19 20  1  0
 20 21  1  1
 20 22  1  0
 22 23  1  1
 23 24  1  0
 24 25  1  1
 24 26  1  0
 26 27  1  0
 27 28  1  0
 28 29  1  6
 28 30  1  0
 30 31  1  6
 31 32  1  0
 32 33  1  0
 33 34  1  6
 33 14  1  0
 33 17  1  0
 30 18  1  0
 28 22  1  0
M  END
>  <MS_ID>  (3658) 
MS4048

>  <SMILES>  (3658) 
C[C@H](CCC(=O)N[C@@H](CS)C(=O)O)[C@H]1CC[C@H]2[C@@H]3C[C@H](O)[C@@H]4C[C@H](O)CC[C@]4(C)[C@H]3CC[C@]12C

>  <Structure_dimension>  (3658) 
2D

$$$$
MS4050
     RDKit          2D

 42 47  0  0  0  0  0  0  0  0999 V2000
    0.4755   -4.8298    0.0000 C   0  0  0  0  0  0  0  0  0  0  0  0
    1.0075   -3.4274    0.0000 C   0  0  0  0  0  0  0  0  0  0  0  0
    0.0589   -2.2654    0.0000 C   0  0  0  0  0  0  0  0  0  0  0  0
   -1.4217   -2.5059    0.0000 C   0  0  0  0  0  0  0  0  0  0  0  0
   -2.3703   -1.3440    0.0000 C   0  0  0  0  0  0  0  0  0  0  0  0
   -1.8383    0.0585    0.0000 O   0  0  0  0  0  0  0  0  0  0  0  0
   -3.8509   -1.5845    0.0000 N   0  0  0  0  0  0  0  0  0  0  0  0
   -4.7995   -0.4226    0.0000 C   0  0  0  0  0  0  0  0  0  0  0  0
   -6.2801   -0.6631    0.0000 C   0  0  0  0  0  0  0  0  0  0  0  0
   -7.2287    0.4989    0.0000 C   0  0  0  0  0  0  0  0  0  0  0  0
   -6.8462    1.9493    0.0000 C   0  0  0  0  0  0  0  0  0  0  0  0
   -8.1075    2.7612    0.0000 N   0  0  0  0  0  0  0  0  0  0  0  0
   -9.2694    1.8126    0.0000 C   0  0  0  0  0  0  0  0  0  0  0  0
  -10.7519    2.0414    0.0000 C   0  0  0  0  0  0  0  0  0  0  0  0
  -11.6912    0.8719    0.0000 C   0  0  0  0  0  0  0  0  0  0  0  0
  -11.1481   -0.5263    0.0000 C   0  0  0  0  0  0  0  0  0  0  0  0
   -9.6656   -0.7550    0.0000 C   0  0  0  0  0  0  0  0  0  0  0  0
   -8.7263    0.4144    0.0000 C   0  0  0  0  0  0  0  0  0  0  0  0
   -4.2675    0.9799    0.0000 C   0  0  0  0  0  0  0  0  0  0  0  0
   -2.7869    1.2205    0.0000 O   0  0  0  0  0  0  0  0  0  0  0  0
   -5.2161    2.1419    0.0000 O   0  0  0  0  0  0  0  0  0  0  0  0
    2.4881   -3.1868    0.0000 C   0  0  0  0  0  0  0  0  0  0  0  0
    3.5530   -4.2433    0.0000 C   0  0  0  0  0  0  0  0  0  0  0  0
    4.8868   -3.5570    0.0000 C   0  0  0  0  0  0  0  0  0  0  0  0
    4.6462   -2.0764    0.0000 C   0  0  0  0  0  0  0  0  0  0  0  0
    5.5856   -0.9069    0.0000 C   0  0  0  0  0  0  0  0  0  0  0  0
    7.0680   -1.1357    0.0000 C   0  0  0  0  0  0  0  0  0  0  0  0
    7.6111   -2.5339    0.0000 O   0  0  0  0  0  0  0  0  0  0  0  0
    8.0073    0.0338    0.0000 C   0  0  0  0  0  0  0  0  0  0  0  0
    7.4642    1.4320    0.0000 C   0  0  0  0  0  0  0  0  0  0  0  0
    8.4036    2.6015    0.0000 C   0  0  0  0  0  0  0  0  0  0  0  0
    7.8605    3.9997    0.0000 C   0  0  0  0  0  0  0  0  0  0  0  0
    8.7998    5.1692    0.0000 O   0  0  0  0  0  0  0  0  0  0  0  0
    6.3780    4.2285    0.0000 C   0  0  0  0  0  0  0  0  0  0  0  0
    5.4387    3.0590    0.0000 C   0  0  0  0  0  0  0  0  0  0  0  0
    5.9818    1.6608    0.0000 C   0  0  0  0  0  0  0  0  0  0  0  0
    4.4993    1.8895    0.0000 C   0  0  0  0  0  0  0  0  0  0  0  0
    5.0424    0.4913    0.0000 C   0  0  0  0  0  0  0  0  0  0  0  0
    3.5600    0.7201    0.0000 C   0  0  0  0  0  0  0  0  0  0  0  0
    2.6206   -0.4494    0.0000 C   0  0  0  0  0  0  0  0  0  0  0  0
    3.1638   -1.8476    0.0000 C   0  0  0  0  0  0  0  0  0  0  0  0
    1.6655   -1.7751    0.0000 C   0  0  0  0  0  0  0  0  0  0  0  0
  2  1  1  6
  2  3  1  0
  3  4  1  0
  4  5  1  0
  5  6  2  0
  5  7  1  0
  7  8  1  0
  8  9  1  1
  9 10  1  0
 10 11  2  0
 11 12  1  0
 12 13  1  0
 13 14  2  0
 14 15  1  0
 15 16  2  0
 16 17  1  0
 17 18  2  0
  8 19  1  0
 19 20  2  0
 19 21  1  0
  2 22  1  0
 22 23  1  6
 23 24  1  0
 25 24  1  6
 25 26  1  0
 26 27  1  1
 27 28  2  0
 27 29  1  0
 30 29  1  1
 30 31  1  0
 31 32  1  0
 32 33  1  1
 32 34  1  0
 34 35  1  0
 35 36  1  0
 36 37  1  6
 36 38  1  0
 38 39  1  6
 39 40  1  0
 40 41  1  0
 41 42  1  6
 18 10  1  0
 41 22  1  0
 18 13  1  0
 41 25  1  0
 38 26  1  0
 36 30  1  0
M  END
>  <MS_ID>  (3659) 
MS4050

>  <SMILES>  (3659) 
C[C@H](CCC(=O)N[C@@H](Cc1c[nH]c2ccccc12)C(=O)O)[C@H]1CC[C@H]2[C@@H]3C(=O)C[C@@H]4C[C@H](O)CC[C@]4(C)[C@H]3CC[C@]12C

>  <Structure_dimension>  (3659) 
2D

$$$$
MS4052
     RDKit          2D

 29 32  0  0  0  0  0  0  0  0999 V2000
   -5.2182   -2.1453    0.0000 C   0  0  0  0  0  0  0  0  0  0  0  0
   -4.0752   -1.1739    0.0000 C   0  0  0  0  0  0  0  0  0  0  0  0
   -4.3449    0.3016    0.0000 C   0  0  0  0  0  0  0  0  0  0  0  0
   -5.7577    0.8058    0.0000 C   0  0  0  0  0  0  0  0  0  0  0  0
   -6.0274    2.2814    0.0000 C   0  0  0  0  0  0  0  0  0  0  0  0
   -4.8843    3.2527    0.0000 O   0  0  0  0  0  0  0  0  0  0  0  0
   -7.4401    2.7856    0.0000 O   0  0  0  0  0  0  0  0  0  0  0  0
   -2.6625   -1.6782    0.0000 C   0  0  0  0  0  0  0  0  0  0  0  0
   -2.2400   -3.1174    0.0000 C   0  0  0  0  0  0  0  0  0  0  0  0
   -0.7407   -3.1604    0.0000 C   0  0  0  0  0  0  0  0  0  0  0  0
   -0.2364   -1.7477    0.0000 C   0  0  0  0  0  0  0  0  0  0  0  0
    1.1508   -1.1771    0.0000 C   0  0  0  0  0  0  0  0  0  0  0  0
    2.3386   -2.0932    0.0000 C   0  0  0  0  0  0  0  0  0  0  0  0
    2.1391   -3.5798    0.0000 O   0  0  0  0  0  0  0  0  0  0  0  0
    3.7258   -1.5226    0.0000 C   0  0  0  0  0  0  0  0  0  0  0  0
    4.9136   -2.4386    0.0000 O   0  0  0  0  0  0  0  0  0  0  0  0
    3.9253   -0.0359    0.0000 C   0  0  0  0  0  0  0  0  0  0  0  0
    5.3125    0.5347    0.0000 C   0  0  0  0  0  0  0  0  0  0  0  0
    5.5119    2.0214    0.0000 C   0  0  0  0  0  0  0  0  0  0  0  0
    6.8992    2.5920    0.0000 O   0  0  0  0  0  0  0  0  0  0  0  0
    4.3242    2.9375    0.0000 C   0  0  0  0  0  0  0  0  0  0  0  0
    2.9369    2.3669    0.0000 C   0  0  0  0  0  0  0  0  0  0  0  0
    2.7375    0.8802    0.0000 C   0  0  0  0  0  0  0  0  0  0  0  0
    1.5497    1.7963    0.0000 C   0  0  0  0  0  0  0  0  0  0  0  0
    1.3502    0.3096    0.0000 C   0  0  0  0  0  0  0  0  0  0  0  0
    0.1625    1.2257    0.0000 C   0  0  0  0  0  0  0  0  0  0  0  0
   -1.2248    0.6551    0.0000 C   0  0  0  0  0  0  0  0  0  0  0  0
   -1.4242   -0.8316    0.0000 C   0  0  0  0  0  0  0  0  0  0  0  0
   -2.7012   -0.0447    0.0000 C   0  0  0  0  0  0  0  0  0  0  0  0
  2  1  1  6
  2  3  1  0
  3  4  1  0
  4  5  1  0
  5  6  2  0
  5  7  1  0
  2  8  1  0
  8  9  1  6
  9 10  1  0
 11 10  1  6
 11 12  1  0
 12 13  1  1
 13 14  1  6
 13 15  1  0
 15 16  1  1
 15 17  1  0
 17 18  1  6
 18 19  1  0
 19 20  1  1
 19 21  1  0
 21 22  1  0
 22 23  1  0
 23 24  1  6
 23 25  1  0
 25 26  1  6
 26 27  1  0
 27 28  1  0
 28 29  1  6
 28  8  1  0
 28 11  1  0
 25 12  1  0
 23 17  1  0
M  END
>  <MS_ID>  (3660) 
MS4052

>  <SMILES>  (3660) 
C[C@H](CCC(=O)O)[C@H]1CC[C@H]2[C@@H]3[C@@H](O)[C@H](O)[C@H]4C[C@H](O)CC[C@]4(C)[C@H]3CC[C@]12C

>  <Structure_dimension>  (3660) 
2D

$$$$
MS4056
     RDKit          2D

 34 37  0  0  0  0  0  0  0  0999 V2000
   -1.8984   -4.2506    0.0000 C   0  0  0  0  0  0  0  0  0  0  0  0
   -1.1842   -2.9316    0.0000 C   0  0  0  0  0  0  0  0  0  0  0  0
   -1.9694   -1.6535    0.0000 C   0  0  0  0  0  0  0  0  0  0  0  0
   -3.4688   -1.6945    0.0000 C   0  0  0  0  0  0  0  0  0  0  0  0
   -4.2540   -0.4165    0.0000 C   0  0  0  0  0  0  0  0  0  0  0  0
   -3.5398    0.9026    0.0000 O   0  0  0  0  0  0  0  0  0  0  0  0
   -5.7535   -0.4574    0.0000 N   0  0  0  0  0  0  0  0  0  0  0  0
   -6.5387    0.8206    0.0000 C   0  0  0  0  0  0  0  0  0  0  0  0
   -8.0381    0.7796    0.0000 C   0  0  0  0  0  0  0  0  0  0  0  0
   -8.8234    2.0577    0.0000 C   0  0  0  0  0  0  0  0  0  0  0  0
  -10.3228    2.0167    0.0000 C   0  0  0  0  0  0  0  0  0  0  0  0
  -11.0370    0.6977    0.0000 O   0  0  0  0  0  0  0  0  0  0  0  0
  -11.1080    3.2948    0.0000 O   0  0  0  0  0  0  0  0  0  0  0  0
    0.3153   -2.8906    0.0000 C   0  0  0  0  0  0  0  0  0  0  0  0
    1.2298   -4.0796    0.0000 C   0  0  0  0  0  0  0  0  0  0  0  0
    2.6432   -3.5773    0.0000 C   0  0  0  0  0  0  0  0  0  0  0  0
    2.6022   -2.0778    0.0000 C   0  0  0  0  0  0  0  0  0  0  0  0
    3.6890   -1.0440    0.0000 C   0  0  0  0  0  0  0  0  0  0  0  0
    5.1278   -1.4684    0.0000 C   0  0  0  0  0  0  0  0  0  0  0  0
    5.4796   -2.9266    0.0000 O   0  0  0  0  0  0  0  0  0  0  0  0
    6.2146   -0.4346    0.0000 C   0  0  0  0  0  0  0  0  0  0  0  0
    5.8628    1.0235    0.0000 C   0  0  0  0  0  0  0  0  0  0  0  0
    6.9497    2.0573    0.0000 C   0  0  0  0  0  0  0  0  0  0  0  0
    6.5978    3.5154    0.0000 C   0  0  0  0  0  0  0  0  0  0  0  0
    7.6847    4.5492    0.0000 O   0  0  0  0  0  0  0  0  0  0  0  0
    5.1591    3.9398    0.0000 C   0  0  0  0  0  0  0  0  0  0  0  0
    4.0722    2.9060    0.0000 C   0  0  0  0  0  0  0  0  0  0  0  0
    4.4241    1.4479    0.0000 C   0  0  0  0  0  0  0  0  0  0  0  0
    2.9854    1.8723    0.0000 C   0  0  0  0  0  0  0  0  0  0  0  0
    3.3372    0.4141    0.0000 C   0  0  0  0  0  0  0  0  0  0  0  0
    1.8985    0.8385    0.0000 C   0  0  0  0  0  0  0  0  0  0  0  0
    0.8116   -0.1953    0.0000 C   0  0  0  0  0  0  0  0  0  0  0  0
    1.1635   -1.6534    0.0000 C   0  0  0  0  0  0  0  0  0  0  0  0
   -0.3117   -1.3818    0.0000 C   0  0  0  0  0  0  0  0  0  0  0  0
  2  1  1  6
  2  3  1  0
  3  4  1  0
  4  5  1  0
  5  6  2  0
  5  7  1  0
  7  8  1  0
  8  9  1  0
  9 10  1  0
 10 11  1  0
 11 12  2  0
 11 13  1  0
  2 14  1  0
 14 15  1  6
 15 16  1  0
 17 16  1  6
 17 18  1  0
 18 19  1  1
 19 20  2  0
 19 21  1  0
 22 21  1  1
 22 23  1  0
 23 24  1  0
 24 25  1  1
 24 26  1  0
 26 27  1  0
 27 28  1  0
 28 29  1  6
 28 30  1  0
 30 31  1  6
 31 32  1  0
 32 33  1  0
 33 34  1  6
 33 14  1  0
 33 17  1  0
 30 18  1  0
 28 22  1  0
M  END
>  <MS_ID>  (3661) 
MS4056

>  <SMILES>  (3661) 
C[C@H](CCC(=O)NCCCC(=O)O)[C@H]1CC[C@H]2[C@@H]3C(=O)C[C@@H]4C[C@H](O)CC[C@]4(C)[C@H]3CC[C@]12C

>  <Structure_dimension>  (3661) 
2D

$$$$
MS4057
     RDKit          2D

 32 35  0  0  0  0  0  0  0  0999 V2000
   -3.1421   -3.6694    0.0000 C   0  0  0  0  0  0  0  0  0  0  0  0
   -2.2628   -2.4541    0.0000 C   0  0  0  0  0  0  0  0  0  0  0  0
   -2.8756   -1.0850    0.0000 C   0  0  0  0  0  0  0  0  0  0  0  0
   -4.3676   -0.9311    0.0000 C   0  0  0  0  0  0  0  0  0  0  0  0
   -4.9804    0.4380    0.0000 C   0  0  0  0  0  0  0  0  0  0  0  0
   -4.1011    1.6532    0.0000 O   0  0  0  0  0  0  0  0  0  0  0  0
   -6.4725    0.5919    0.0000 N   0  0  0  0  0  0  0  0  0  0  0  0
   -7.0853    1.9610    0.0000 C   0  0  0  0  0  0  0  0  0  0  0  0
   -8.5774    2.1149    0.0000 C   0  0  0  0  0  0  0  0  0  0  0  0
   -9.4567    0.8996    0.0000 O   0  0  0  0  0  0  0  0  0  0  0  0
   -9.1901    3.4840    0.0000 O   0  0  0  0  0  0  0  0  0  0  0  0
   -0.7707   -2.6080    0.0000 C   0  0  0  0  0  0  0  0  0  0  0  0
   -0.0182   -3.9056    0.0000 C   0  0  0  0  0  0  0  0  0  0  0  0
    1.4484   -3.5909    0.0000 C   0  0  0  0  0  0  0  0  0  0  0  0
    1.6023   -2.0988    0.0000 C   0  0  0  0  0  0  0  0  0  0  0  0
    2.8141   -1.2147    0.0000 C   0  0  0  0  0  0  0  0  0  0  0  0
    4.1856   -1.8222    0.0000 C   0  0  0  0  0  0  0  0  0  0  0  0
    4.3453   -3.3136    0.0000 O   0  0  0  0  0  0  0  0  0  0  0  0
    5.3974   -0.9381    0.0000 C   0  0  0  0  0  0  0  0  0  0  0  0
    5.2377    0.5533    0.0000 C   0  0  0  0  0  0  0  0  0  0  0  0
    6.4495    1.4374    0.0000 C   0  0  0  0  0  0  0  0  0  0  0  0
    6.2898    2.9289    0.0000 C   0  0  0  0  0  0  0  0  0  0  0  0
    7.5016    3.8129    0.0000 O   0  0  0  0  0  0  0  0  0  0  0  0
    4.9183    3.5363    0.0000 C   0  0  0  0  0  0  0  0  0  0  0  0
    3.7065    2.6522    0.0000 C   0  0  0  0  0  0  0  0  0  0  0  0
    3.8662    1.1608    0.0000 C   0  0  0  0  0  0  0  0  0  0  0  0
    2.4947    1.7682    0.0000 C   0  0  0  0  0  0  0  0  0  0  0  0
    2.6544    0.2767    0.0000 C   0  0  0  0  0  0  0  0  0  0  0  0
    1.2829    0.8842    0.0000 C   0  0  0  0  0  0  0  0  0  0  0  0
    0.0711    0.0001    0.0000 C   0  0  0  0  0  0  0  0  0  0  0  0
    0.2308   -1.4914    0.0000 C   0  0  0  0  0  0  0  0  0  0  0  0
   -1.1967   -1.0306    0.0000 C   0  0  0  0  0  0  0  0  0  0  0  0
  2  1  1  6
  2  3  1  0
  3  4  1  0
  4  5  1  0
  5  6  2  0
  5  7  1  0
  7  8  1  0
  8  9  1  0
  9 10  2  0
  9 11  1  0
  2 12  1  0
 12 13  1  6
 13 14  1  0
 15 14  1  6
 15 16  1  0
 16 17  1  1
 17 18  1  6
 17 19  1  0
 20 19  1  6
 20 21  1  0
 21 22  1  0
 22 23  1  6
 22 24  1  0
 24 25  1  0
 25 26  1  0
 26 27  1  6
 26 28  1  0
 28 29  1  6
 29 30  1  0
 30 31  1  0
 31 32  1  6
 31 12  1  0
 31 15  1  0
 28 16  1  0
 26 20  1  0
M  END
>  <MS_ID>  (3662) 
MS4057

>  <SMILES>  (3662) 
C[C@H](CCC(=O)NCC(=O)O)[C@H]1CC[C@H]2[C@@H]3[C@@H](O)C[C@H]4C[C@@H](O)CC[C@]4(C)[C@H]3CC[C@]12C

>  <Structure_dimension>  (3662) 
2D

$$$$
MS4058
     RDKit          2D

 33 36  0  0  0  0  0  0  0  0999 V2000
   -3.2486   -3.0813    0.0000 C   0  0  0  0  0  0  0  0  0  0  0  0
   -2.2426   -1.9686    0.0000 C   0  0  0  0  0  0  0  0  0  0  0  0
   -2.7032   -0.5411    0.0000 C   0  0  0  0  0  0  0  0  0  0  0  0
   -4.1698   -0.2262    0.0000 C   0  0  0  0  0  0  0  0  0  0  0  0
   -4.6304    1.2013    0.0000 C   0  0  0  0  0  0  0  0  0  0  0  0
   -3.6244    2.3140    0.0000 O   0  0  0  0  0  0  0  0  0  0  0  0
   -6.0970    1.5162    0.0000 N   0  0  0  0  0  0  0  0  0  0  0  0
   -6.5576    2.9437    0.0000 C   0  0  0  0  0  0  0  0  0  0  0  0
   -7.1030    0.4036    0.0000 C   0  0  0  0  0  0  0  0  0  0  0  0
   -8.5695    0.7184    0.0000 C   0  0  0  0  0  0  0  0  0  0  0  0
   -9.0301    2.1460    0.0000 O   0  0  0  0  0  0  0  0  0  0  0  0
   -9.5755   -0.3942    0.0000 O   0  0  0  0  0  0  0  0  0  0  0  0
   -0.7760   -2.2835    0.0000 C   0  0  0  0  0  0  0  0  0  0  0  0
   -0.1687   -3.6550    0.0000 C   0  0  0  0  0  0  0  0  0  0  0  0
    1.3234   -3.5013    0.0000 C   0  0  0  0  0  0  0  0  0  0  0  0
    1.6382   -2.0347    0.0000 C   0  0  0  0  0  0  0  0  0  0  0  0
    2.9388   -1.2874    0.0000 C   0  0  0  0  0  0  0  0  0  0  0  0
    4.2363   -2.0400    0.0000 C   0  0  0  0  0  0  0  0  0  0  0  0
    4.2332   -3.5400    0.0000 O   0  0  0  0  0  0  0  0  0  0  0  0
    5.5369   -1.2927    0.0000 C   0  0  0  0  0  0  0  0  0  0  0  0
    5.5399    0.2073    0.0000 C   0  0  0  0  0  0  0  0  0  0  0  0
    6.8405    0.9546    0.0000 C   0  0  0  0  0  0  0  0  0  0  0  0
    6.8436    2.4546    0.0000 C   0  0  0  0  0  0  0  0  0  0  0  0
    8.1442    3.2020    0.0000 O   0  0  0  0  0  0  0  0  0  0  0  0
    5.5461    3.2073    0.0000 C   0  0  0  0  0  0  0  0  0  0  0  0
    4.2455    2.4599    0.0000 C   0  0  0  0  0  0  0  0  0  0  0  0
    4.2425    0.9599    0.0000 C   0  0  0  0  0  0  0  0  0  0  0  0
    2.9450    1.7126    0.0000 C   0  0  0  0  0  0  0  0  0  0  0  0
    2.9419    0.2126    0.0000 C   0  0  0  0  0  0  0  0  0  0  0  0
    1.6444    0.9653    0.0000 C   0  0  0  0  0  0  0  0  0  0  0  0
    0.3438    0.2179    0.0000 C   0  0  0  0  0  0  0  0  0  0  0  0
    0.3407   -1.2821    0.0000 C   0  0  0  0  0  0  0  0  0  0  0  0
   -1.0283   -0.6692    0.0000 C   0  0  0  0  0  0  0  0  0  0  0  0
  2  1  1  6
  2  3  1  0
  3  4  1  0
  4  5  1  0
  5  6  2  0
  5  7  1  0
  7  8  1  0
  7  9  1  0
  9 10  1  0
 10 11  2  0
 10 12  1  0
  2 13  1  0
 13 14  1  6
 14 15  1  0
 16 15  1  6
 16 17  1  0
 17 18  1  1
 18 19  1  6
 18 20  1  0
 21 20  1  1
 21 22  1  0
 22 23  1  0
 23 24  1  1
 23 25  1  0
 25 26  1  0
 26 27  1  0
 27 28  1  6
 27 29  1  0
 29 30  1  6
 30 31  1  0
 31 32  1  0
 32 33  1  6
 32 13  1  0
 32 16  1  0
 29 17  1  0
 27 21  1  0
M  END
>  <MS_ID>  (3663) 
MS4058

>  <SMILES>  (3663) 
C[C@H](CCC(=O)N(C)CC(=O)O)[C@H]1CC[C@H]2[C@@H]3[C@@H](O)C[C@@H]4C[C@H](O)CC[C@]4(C)[C@H]3CC[C@]12C

>  <Structure_dimension>  (3663) 
2D

$$$$
MS4063
     RDKit          2D

 30 33  0  0  0  0  0  0  0  0999 V2000
   -5.1126   -2.2702    0.0000 C   0  0  0  0  0  0  0  0  0  0  0  0
   -4.0463   -1.2153    0.0000 C   0  0  0  0  0  0  0  0  0  0  0  0
   -4.4268    0.2357    0.0000 C   0  0  0  0  0  0  0  0  0  0  0  0
   -5.8736    0.6316    0.0000 C   0  0  0  0  0  0  0  0  0  0  0  0
   -6.2540    2.0826    0.0000 C   0  0  0  0  0  0  0  0  0  0  0  0
   -5.1877    3.1376    0.0000 O   0  0  0  0  0  0  0  0  0  0  0  0
   -7.7008    2.4786    0.0000 O   0  0  0  0  0  0  0  0  0  0  0  0
   -2.5995   -1.6113    0.0000 C   0  0  0  0  0  0  0  0  0  0  0  0
   -2.0695   -3.0145    0.0000 C   0  0  0  0  0  0  0  0  0  0  0  0
   -0.5711   -2.9440    0.0000 C   0  0  0  0  0  0  0  0  0  0  0  0
   -0.1751   -1.4972    0.0000 C   0  0  0  0  0  0  0  0  0  0  0  0
    1.1650   -0.8234    0.0000 C   0  0  0  0  0  0  0  0  0  0  0  0
    2.4186   -1.6471    0.0000 C   0  0  0  0  0  0  0  0  0  0  0  0
    2.3321   -3.1446    0.0000 O   0  0  0  0  0  0  0  0  0  0  0  0
    3.5857   -3.9682    0.0000 C   0  0  0  0  0  0  0  0  0  0  0  0
    3.4992   -5.4657    0.0000 O   0  0  0  0  0  0  0  0  0  0  0  0
    3.7587   -0.9732    0.0000 C   0  0  0  0  0  0  0  0  0  0  0  0
    3.8453    0.5243    0.0000 C   0  0  0  0  0  0  0  0  0  0  0  0
    5.1854    1.1981    0.0000 C   0  0  0  0  0  0  0  0  0  0  0  0
    5.2719    2.6956    0.0000 C   0  0  0  0  0  0  0  0  0  0  0  0
    6.6121    3.3694    0.0000 O   0  0  0  0  0  0  0  0  0  0  0  0
    4.0183    3.5193    0.0000 C   0  0  0  0  0  0  0  0  0  0  0  0
    2.6782    2.8454    0.0000 C   0  0  0  0  0  0  0  0  0  0  0  0
    2.5917    1.3479    0.0000 C   0  0  0  0  0  0  0  0  0  0  0  0
    1.3380    2.1716    0.0000 C   0  0  0  0  0  0  0  0  0  0  0  0
    1.2515    0.6741    0.0000 C   0  0  0  0  0  0  0  0  0  0  0  0
   -0.0021    1.4978    0.0000 C   0  0  0  0  0  0  0  0  0  0  0  0
   -1.3422    0.8240    0.0000 C   0  0  0  0  0  0  0  0  0  0  0  0
   -1.4288   -0.6735    0.0000 C   0  0  0  0  0  0  0  0  0  0  0  0
   -2.7616    0.0146    0.0000 C   0  0  0  0  0  0  0  0  0  0  0  0
  2  1  1  6
  2  3  1  0
  3  4  1  0
  4  5  1  0
  5  6  2  0
  5  7  1  0
  2  8  1  0
  8  9  1  6
  9 10  1  0
 11 10  1  6
 11 12  1  0
 12 13  1  1
 13 14  1  1
 14 15  1  0
 15 16  2  0
 13 17  1  0
 18 17  1  1
 18 19  1  0
 19 20  1  0
 20 21  1  1
 20 22  1  0
 22 23  1  0
 23 24  1  0
 24 25  1  6
 24 26  1  0
 26 27  1  6
 27 28  1  0
 28 29  1  0
 29 30  1  6
 29  8  1  0
 29 11  1  0
 26 12  1  0
 24 18  1  0
M  END
>  <MS_ID>  (3664) 
MS4063

>  <SMILES>  (3664) 
C[C@H](CCC(=O)O)[C@H]1CC[C@H]2[C@@H]3[C@H](OC=O)C[C@@H]4C[C@H](O)CC[C@]4(C)[C@H]3CC[C@]12C

>  <Structure_dimension>  (3664) 
2D

$$$$
MS4069
     RDKit          2D

 33 36  0  0  0  0  0  0  0  0999 V2000
   -7.9873    4.0986    0.0000 C   0  0  0  0  0  0  0  0  0  0  0  0
   -7.7630    2.6155    0.0000 O   0  0  0  0  0  0  0  0  0  0  0  0
   -6.3664    2.0681    0.0000 C   0  0  0  0  0  0  0  0  0  0  0  0
   -5.1941    3.0039    0.0000 O   0  0  0  0  0  0  0  0  0  0  0  0
   -6.1422    0.5850    0.0000 C   0  0  0  0  0  0  0  0  0  0  0  0
   -4.7456    0.0376    0.0000 C   0  0  0  0  0  0  0  0  0  0  0  0
   -4.5214   -1.4455    0.0000 C   0  0  0  0  0  0  0  0  0  0  0  0
   -5.6937   -2.3813    0.0000 C   0  0  0  0  0  0  0  0  0  0  0  0
   -3.1248   -1.9929    0.0000 C   0  0  0  0  0  0  0  0  0  0  0  0
   -2.7468   -3.4445    0.0000 C   0  0  0  0  0  0  0  0  0  0  0  0
   -1.2494   -3.5335    0.0000 C   0  0  0  0  0  0  0  0  0  0  0  0
   -0.7020   -2.1369    0.0000 C   0  0  0  0  0  0  0  0  0  0  0  0
    0.7021   -1.6092    0.0000 C   0  0  0  0  0  0  0  0  0  0  0  0
    1.8611   -2.5614    0.0000 C   0  0  0  0  0  0  0  0  0  0  0  0
    1.6161   -4.0412    0.0000 O   0  0  0  0  0  0  0  0  0  0  0  0
    3.2652   -2.0336    0.0000 C   0  0  0  0  0  0  0  0  0  0  0  0
    3.5103   -0.5538    0.0000 C   0  0  0  0  0  0  0  0  0  0  0  0
    4.9144   -0.0261    0.0000 C   0  0  0  0  0  0  0  0  0  0  0  0
    5.1594    1.4538    0.0000 C   0  0  0  0  0  0  0  0  0  0  0  0
    6.5635    1.9815    0.0000 O   0  0  0  0  0  0  0  0  0  0  0  0
    7.7226    1.0293    0.0000 C   0  0  0  0  0  0  0  0  0  0  0  0
    9.1267    1.5571    0.0000 C   0  0  0  0  0  0  0  0  0  0  0  0
   10.2858    0.6049    0.0000 N   0  0  0  0  0  0  0  0  0  0  0  0
    4.0004    2.4059    0.0000 C   0  0  0  0  0  0  0  0  0  0  0  0
    2.5963    1.8782    0.0000 C   0  0  0  0  0  0  0  0  0  0  0  0
    2.3512    0.3983    0.0000 C   0  0  0  0  0  0  0  0  0  0  0  0
    1.1921    1.3505    0.0000 C   0  0  0  0  0  0  0  0  0  0  0  0
    0.9471   -0.1294    0.0000 C   0  0  0  0  0  0  0  0  0  0  0  0
   -0.2120    0.8228    0.0000 C   0  0  0  0  0  0  0  0  0  0  0  0
   -1.6161    0.2951    0.0000 C   0  0  0  0  0  0  0  0  0  0  0  0
   -2.7751    1.2472    0.0000 O   0  0  0  0  0  0  0  0  0  0  0  0
   -1.8611   -1.1848    0.0000 C   0  0  0  0  0  0  0  0  0  0  0  0
   -3.1134   -0.3590    0.0000 C   0  0  0  0  0  0  0  0  0  0  0  0
  1  2  1  0
  2  3  1  0
  3  4  2  0
  3  5  1  0
  5  6  1  0
  6  7  1  0
  7  8  1  6
  7  9  1  0
  9 10  1  6
 10 11  1  0
 12 11  1  6
 12 13  1  0
 13 14  1  1
 14 15  1  1
 14 16  1  0
 17 16  1  1
 17 18  1  0
 18 19  1  0
 19 20  1  1
 20 21  1  0
 21 22  1  0
 22 23  1  0
 19 24  1  0
 24 25  1  0
 25 26  1  0
 26 27  1  6
 26 28  1  0
 28 29  1  6
 29 30  1  0
 30 31  1  1
 30 32  1  0
 32 33  1  6
 32  9  1  0
 32 12  1  0
 28 13  1  0
 26 17  1  0
M  END
>  <MS_ID>  (3665) 
MS4069

>  <SMILES>  (3665) 
COC(=O)CC[C@@H](C)[C@H]1CC[C@H]2[C@@H]3[C@H](O)C[C@@H]4C[C@H](OCCN)CC[C@]4(C)[C@H]3C[C@H](O)[C@]12C

>  <Structure_dimension>  (3665) 
2D

$$$$
MS4070
     RDKit          2D

 34 37  0  0  0  0  0  0  0  0999 V2000
   -3.0496   -2.8300    0.0000 C   0  0  0  0  0  0  0  0  0  0  0  0
   -1.9954   -1.7630    0.0000 C   0  0  0  0  0  0  0  0  0  0  0  0
   -2.3923   -0.3164    0.0000 C   0  0  0  0  0  0  0  0  0  0  0  0
   -3.8435    0.0631    0.0000 C   0  0  0  0  0  0  0  0  0  0  0  0
   -4.2405    1.5096    0.0000 C   0  0  0  0  0  0  0  0  0  0  0  0
   -3.1862    2.5766    0.0000 O   0  0  0  0  0  0  0  0  0  0  0  0
   -5.6917    1.8891    0.0000 N   0  0  0  0  0  0  0  0  0  0  0  0
   -6.0886    3.3356    0.0000 C   0  0  0  0  0  0  0  0  0  0  0  0
   -6.7459    0.8221    0.0000 C   0  0  0  0  0  0  0  0  0  0  0  0
   -8.1971    1.2016    0.0000 C   0  0  0  0  0  0  0  0  0  0  0  0
   -9.2514    0.1345    0.0000 C   0  0  0  0  0  0  0  0  0  0  0  0
   -8.8544   -1.3120    0.0000 O   0  0  0  0  0  0  0  0  0  0  0  0
  -10.7026    0.5140    0.0000 O   0  0  0  0  0  0  0  0  0  0  0  0
   -0.5442   -2.1424    0.0000 C   0  0  0  0  0  0  0  0  0  0  0  0
    0.0018   -3.5396    0.0000 C   0  0  0  0  0  0  0  0  0  0  0  0
    1.4993   -3.4520    0.0000 C   0  0  0  0  0  0  0  0  0  0  0  0
    1.8788   -2.0008    0.0000 C   0  0  0  0  0  0  0  0  0  0  0  0
    3.2111   -1.3118    0.0000 C   0  0  0  0  0  0  0  0  0  0  0  0
    4.4740   -2.1212    0.0000 C   0  0  0  0  0  0  0  0  0  0  0  0
    4.4046   -3.6196    0.0000 O   0  0  0  0  0  0  0  0  0  0  0  0
    5.8064   -1.4322    0.0000 C   0  0  0  0  0  0  0  0  0  0  0  0
    5.8759    0.0662    0.0000 C   0  0  0  0  0  0  0  0  0  0  0  0
    7.2083    0.7553    0.0000 C   0  0  0  0  0  0  0  0  0  0  0  0
    7.2778    2.2536    0.0000 C   0  0  0  0  0  0  0  0  0  0  0  0
    8.6102    2.9427    0.0000 O   0  0  0  0  0  0  0  0  0  0  0  0
    6.0149    3.0630    0.0000 C   0  0  0  0  0  0  0  0  0  0  0  0
    4.6825    2.3740    0.0000 C   0  0  0  0  0  0  0  0  0  0  0  0
    4.6130    0.8756    0.0000 C   0  0  0  0  0  0  0  0  0  0  0  0
    3.3501    1.6850    0.0000 C   0  0  0  0  0  0  0  0  0  0  0  0
    3.2806    0.1866    0.0000 C   0  0  0  0  0  0  0  0  0  0  0  0
    2.0177    0.9959    0.0000 C   0  0  0  0  0  0  0  0  0  0  0  0
    0.6853    0.3069    0.0000 C   0  0  0  0  0  0  0  0  0  0  0  0
    0.6158   -1.1915    0.0000 C   0  0  0  0  0  0  0  0  0  0  0  0
   -0.7247   -0.5185    0.0000 C   0  0  0  0  0  0  0  0  0  0  0  0
  2  1  1  6
  2  3  1  0
  3  4  1  0
  4  5  1  0
  5  6  2  0
  5  7  1  0
  7  8  1  0
  7  9  1  0
  9 10  1  0
 10 11  1  0
 11 12  2  0
 11 13  1  0
  2 14  1  0
 14 15  1  6
 15 16  1  0
 17 16  1  6
 17 18  1  0
 18 19  1  1
 19 20  1  1
 19 21  1  0
 22 21  1  1
 22 23  1  0
 23 24  1  0
 24 25  1  1
 24 26  1  0
 26 27  1  0
 27 28  1  0
 28 29  1  6
 28 30  1  0
 30 31  1  6
 31 32  1  0
 32 33  1  0
 33 34  1  6
 33 14  1  0
 33 17  1  0
 30 18  1  0
 28 22  1  0
M  END
>  <MS_ID>  (3666) 
MS4070

>  <SMILES>  (3666) 
C[C@H](CCC(=O)N(C)CCC(=O)O)[C@H]1CC[C@H]2[C@@H]3[C@H](O)C[C@@H]4C[C@H](O)CC[C@]4(C)[C@H]3CC[C@]12C

>  <Structure_dimension>  (3666) 
2D

$$$$
MS4071
     RDKit          2D

 35 38  0  0  0  0  0  0  0  0999 V2000
    2.0925    4.4115    0.0000 C   0  0  0  0  0  0  0  0  0  0  0  0
    1.3358    3.1164    0.0000 C   0  0  0  0  0  0  0  0  0  0  0  0
    2.0791    1.8135    0.0000 C   0  0  0  0  0  0  0  0  0  0  0  0
    3.5791    1.8057    0.0000 C   0  0  0  0  0  0  0  0  0  0  0  0
    4.3224    0.5029    0.0000 C   0  0  0  0  0  0  0  0  0  0  0  0
    3.5657   -0.7923    0.0000 O   0  0  0  0  0  0  0  0  0  0  0  0
    5.8223    0.4951    0.0000 N   0  0  0  0  0  0  0  0  0  0  0  0
    6.5656   -0.8078    0.0000 C   0  0  0  0  0  0  0  0  0  0  0  0
    8.0656   -0.8155    0.0000 C   0  0  0  0  0  0  0  0  0  0  0  0
    8.8089   -2.1184    0.0000 S   0  0  0  0  0  0  0  0  0  0  0  0
   10.1118   -1.3751    0.0000 O   0  0  0  0  0  0  0  0  0  0  0  0
    7.5060   -2.8617    0.0000 O   0  0  0  0  0  0  0  0  0  0  0  0
    9.5522   -3.4213    0.0000 O   0  0  0  0  0  0  0  0  0  0  0  0
   -0.1642    3.1241    0.0000 C   0  0  0  0  0  0  0  0  0  0  0  0
   -1.0396    4.3422    0.0000 C   0  0  0  0  0  0  0  0  0  0  0  0
   -2.4685    3.8860    0.0000 C   0  0  0  0  0  0  0  0  0  0  0  0
   -2.4763    2.3860    0.0000 C   0  0  0  0  0  0  0  0  0  0  0  0
   -3.5962    1.3881    0.0000 C   0  0  0  0  0  0  0  0  0  0  0  0
   -5.0203    1.8590    0.0000 C   0  0  0  0  0  0  0  0  0  0  0  0
   -6.1402    0.8610    0.0000 C   0  0  0  0  0  0  0  0  0  0  0  0
   -5.8359   -0.6078    0.0000 C   0  0  0  0  0  0  0  0  0  0  0  0
   -6.9558   -1.6057    0.0000 C   0  0  0  0  0  0  0  0  0  0  0  0
   -6.6515   -3.0745    0.0000 C   0  0  0  0  0  0  0  0  0  0  0  0
   -7.7714   -4.0724    0.0000 O   0  0  0  0  0  0  0  0  0  0  0  0
   -5.2273   -3.5454    0.0000 C   0  0  0  0  0  0  0  0  0  0  0  0
   -4.1075   -2.5475    0.0000 C   0  0  0  0  0  0  0  0  0  0  0  0
   -2.6833   -3.0183    0.0000 O   0  0  0  0  0  0  0  0  0  0  0  0
   -4.4117   -1.0786    0.0000 C   0  0  0  0  0  0  0  0  0  0  0  0
   -2.9876   -1.5495    0.0000 C   0  0  0  0  0  0  0  0  0  0  0  0
   -3.2919   -0.0807    0.0000 C   0  0  0  0  0  0  0  0  0  0  0  0
   -1.8677   -0.5516    0.0000 C   0  0  0  0  0  0  0  0  0  0  0  0
   -0.7478    0.4463    0.0000 C   0  0  0  0  0  0  0  0  0  0  0  0
    0.6764   -0.0245    0.0000 O   0  0  0  0  0  0  0  0  0  0  0  0
   -1.0521    1.9151    0.0000 C   0  0  0  0  0  0  0  0  0  0  0  0
    0.4135    1.5957    0.0000 C   0  0  0  0  0  0  0  0  0  0  0  0
  2  1  1  6
  2  3  1  0
  3  4  1  0
  4  5  1  0
  5  6  2  0
  5  7  1  0
  7  8  1  0
  8  9  1  0
  9 10  1  0
 10 11  2  0
 10 12  2  0
 10 13  1  0
  2 14  1  0
 14 15  1  6
 15 16  1  0
 17 16  1  6
 17 18  1  0
 18 19  1  1
 19 20  1  0
 21 20  1  1
 21 22  1  0
 22 23  1  0
 23 24  1  1
 23 25  1  0
 25 26  1  0
 26 27  1  6
 26 28  1  0
 28 29  1  6
 28 30  1  0
 30 31  1  6
 31 32  1  0
 32 33  1  1
 32 34  1  0
 34 35  1  6
 34 14  1  0
 34 17  1  0
 30 18  1  0
 28 21  1  0
M  END
>  <MS_ID>  (3667) 
MS4071

>  <SMILES>  (3667) 
C[C@H](CCC(=O)NCCS(=O)(=O)O)[C@H]1CC[C@H]2[C@@H]3CC[C@@H]4C[C@H](O)C[C@@H](O)[C@]4(C)[C@H]3C[C@H](O)[C@]12C

>  <Structure_dimension>  (3667) 
2D

$$$$
MS4076
     RDKit          2D

 28 31  0  0  0  0  0  0  0  0999 V2000
   -5.1936   -2.1523    0.0000 C   0  0  0  0  0  0  0  0  0  0  0  0
   -4.0282   -1.2079    0.0000 C   0  0  0  0  0  0  0  0  0  0  0  0
   -4.2633    0.2735    0.0000 C   0  0  0  0  0  0  0  0  0  0  0  0
   -5.6638    0.8107    0.0000 C   0  0  0  0  0  0  0  0  0  0  0  0
   -5.8990    2.2921    0.0000 C   0  0  0  0  0  0  0  0  0  0  0  0
   -4.7335    3.2365    0.0000 O   0  0  0  0  0  0  0  0  0  0  0  0
   -7.2995    2.8292    0.0000 O   0  0  0  0  0  0  0  0  0  0  0  0
   -2.6276   -1.7450    0.0000 C   0  0  0  0  0  0  0  0  0  0  0  0
   -2.2390   -3.1938    0.0000 C   0  0  0  0  0  0  0  0  0  0  0  0
   -0.7410   -3.2718    0.0000 C   0  0  0  0  0  0  0  0  0  0  0  0
   -0.2039   -1.8713    0.0000 C   0  0  0  0  0  0  0  0  0  0  0  0
    1.1963   -1.3333    0.0000 C   0  0  0  0  0  0  0  0  0  0  0  0
    2.3623   -2.2769    0.0000 C   0  0  0  0  0  0  0  0  0  0  0  0
    3.7625   -1.7389    0.0000 C   0  0  0  0  0  0  0  0  0  0  0  0
    4.9286   -2.6825    0.0000 O   0  0  0  0  0  0  0  0  0  0  0  0
    3.9967   -0.2573    0.0000 C   0  0  0  0  0  0  0  0  0  0  0  0
    5.3969    0.2807    0.0000 C   0  0  0  0  0  0  0  0  0  0  0  0
    5.6311    1.7623    0.0000 C   0  0  0  0  0  0  0  0  0  0  0  0
    7.0313    2.3003    0.0000 O   0  0  0  0  0  0  0  0  0  0  0  0
    4.4651    2.7059    0.0000 C   0  0  0  0  0  0  0  0  0  0  0  0
    3.0649    2.1679    0.0000 C   0  0  0  0  0  0  0  0  0  0  0  0
    2.8307    0.6863    0.0000 C   0  0  0  0  0  0  0  0  0  0  0  0
    1.6647    1.6299    0.0000 C   0  0  0  0  0  0  0  0  0  0  0  0
    1.4305    0.1483    0.0000 C   0  0  0  0  0  0  0  0  0  0  0  0
    0.2645    1.0919    0.0000 C   0  0  0  0  0  0  0  0  0  0  0  0
   -1.1357    0.5539    0.0000 C   0  0  0  0  0  0  0  0  0  0  0  0
   -1.3699   -0.9277    0.0000 C   0  0  0  0  0  0  0  0  0  0  0  0
   -2.6282   -0.1111    0.0000 C   0  0  0  0  0  0  0  0  0  0  0  0
  2  1  1  6
  2  3  1  0
  3  4  1  0
  4  5  1  0
  5  6  2  0
  5  7  1  0
  2  8  1  0
  8  9  1  6
  9 10  1  0
 11 10  1  6
 11 12  1  0
 12 13  1  1
 13 14  1  0
 14 15  1  6
 14 16  1  0
 16 17  1  6
 17 18  1  0
 18 19  1  1
 18 20  1  0
 20 21  1  0
 21 22  1  0
 22 23  1  6
 22 24  1  0
 24 25  1  6
 25 26  1  0
 26 27  1  0
 27 28  1  6
 27  8  1  0
 27 11  1  0
 24 12  1  0
 22 16  1  0
M  END
>  <MS_ID>  (3668) 
MS4076

>  <SMILES>  (3668) 
C[C@H](CCC(=O)O)[C@H]1CC[C@H]2[C@@H]3C[C@@H](O)[C@H]4C[C@H](O)CC[C@]4(C)[C@H]3CC[C@]12C

>  <Structure_dimension>  (3668) 
2D

$$$$
MS4078
     RDKit          2D

 39 43  0  0  0  0  0  0  0  0999 V2000
   -0.6608   -4.8801    0.0000 C   0  0  0  0  0  0  0  0  0  0  0  0
   -0.0594   -3.5059    0.0000 C   0  0  0  0  0  0  0  0  0  0  0  0
   -0.9487   -2.2980    0.0000 C   0  0  0  0  0  0  0  0  0  0  0  0
   -2.4395   -2.4642    0.0000 C   0  0  0  0  0  0  0  0  0  0  0  0
   -3.3288   -1.2563    0.0000 C   0  0  0  0  0  0  0  0  0  0  0  0
   -2.7274    0.1179    0.0000 O   0  0  0  0  0  0  0  0  0  0  0  0
   -4.8196   -1.4225    0.0000 O   0  0  0  0  0  0  0  0  0  0  0  0
   -5.7089   -0.2146    0.0000 C   0  0  0  0  0  0  0  0  0  0  0  0
   -5.1074    1.1596    0.0000 O   0  0  0  0  0  0  0  0  0  0  0  0
   -5.9968    2.3675    0.0000 C   0  0  0  0  0  0  0  0  0  0  0  0
   -5.3953    3.7417    0.0000 C   0  0  0  0  0  0  0  0  0  0  0  0
   -3.9046    3.9079    0.0000 O   0  0  0  0  0  0  0  0  0  0  0  0
   -7.4875    2.2013    0.0000 C   0  0  0  0  0  0  0  0  0  0  0  0
   -8.3768    3.4092    0.0000 O   0  0  0  0  0  0  0  0  0  0  0  0
   -8.0890    0.8272    0.0000 C   0  0  0  0  0  0  0  0  0  0  0  0
   -9.5797    0.6610    0.0000 O   0  0  0  0  0  0  0  0  0  0  0  0
   -7.1996   -0.3808    0.0000 C   0  0  0  0  0  0  0  0  0  0  0  0
   -7.8011   -1.7549    0.0000 O   0  0  0  0  0  0  0  0  0  0  0  0
    1.4314   -3.3397    0.0000 C   0  0  0  0  0  0  0  0  0  0  0  0
    2.4421   -4.4481    0.0000 C   0  0  0  0  0  0  0  0  0  0  0  0
    3.8085   -3.8293    0.0000 C   0  0  0  0  0  0  0  0  0  0  0  0
    3.6423   -2.3386    0.0000 C   0  0  0  0  0  0  0  0  0  0  0  0
    4.6390   -1.2176    0.0000 C   0  0  0  0  0  0  0  0  0  0  0  0
    6.1081   -1.5201    0.0000 C   0  0  0  0  0  0  0  0  0  0  0  0
    7.1048   -0.3991    0.0000 C   0  0  0  0  0  0  0  0  0  0  0  0
    6.6322    1.0245    0.0000 C   0  0  0  0  0  0  0  0  0  0  0  0
    7.6289    2.1455    0.0000 C   0  0  0  0  0  0  0  0  0  0  0  0
    7.1563    3.5692    0.0000 C   0  0  0  0  0  0  0  0  0  0  0  0
    8.1530    4.6902    0.0000 O   0  0  0  0  0  0  0  0  0  0  0  0
    5.6872    3.8718    0.0000 C   0  0  0  0  0  0  0  0  0  0  0  0
    4.6906    2.7507    0.0000 C   0  0  0  0  0  0  0  0  0  0  0  0
    5.1631    1.3271    0.0000 C   0  0  0  0  0  0  0  0  0  0  0  0
    3.6939    1.6297    0.0000 C   0  0  0  0  0  0  0  0  0  0  0  0
    4.1664    0.2061    0.0000 C   0  0  0  0  0  0  0  0  0  0  0  0
    2.6973    0.5087    0.0000 C   0  0  0  0  0  0  0  0  0  0  0  0
    1.7006   -0.6124    0.0000 C   0  0  0  0  0  0  0  0  0  0  0  0
    0.2315   -0.3098    0.0000 O   0  0  0  0  0  0  0  0  0  0  0  0
    2.1732   -2.0360    0.0000 C   0  0  0  0  0  0  0  0  0  0  0  0
    0.6804   -1.8886    0.0000 C   0  0  0  0  0  0  0  0  0  0  0  0
  2  1  1  6
  2  3  1  0
  3  4  1  0
  4  5  1  0
  5  6  2  0
  5  7  1  0
  8  7  1  6
  8  9  1  0
  9 10  1  0
 10 11  1  1
 11 12  1  0
 10 13  1  0
 13 14  1  6
 13 15  1  0
 15 16  1  1
 15 17  1  0
 17 18  1  6
  2 19  1  0
 19 20  1  6
 20 21  1  0
 22 21  1  6
 22 23  1  0
 23 24  1  1
 24 25  1  0
 26 25  1  1
 26 27  1  0
 27 28  1  0
 28 29  1  1
 28 30  1  0
 30 31  1  0
 31 32  1  0
 32 33  1  6
 32 34  1  0
 34 35  1  6
 35 36  1  0
 36 37  1  1
 36 38  1  0
 38 39  1  6
 17  8  1  0
 38 19  1  0
 38 22  1  0
 34 23  1  0
 32 26  1  0
M  END
>  <MS_ID>  (3669) 
MS4078

>  <SMILES>  (3669) 
C[C@H](CCC(=O)O[C@H]1O[C@H](CO)[C@@H](O)[C@H](O)[C@H]1O)[C@H]1CC[C@H]2[C@@H]3CC[C@@H]4C[C@H](O)CC[C@]4(C)[C@H]3C[C@H](O)[C@]12C

>  <Structure_dimension>  (3669) 
2D

$$$$
MS4079
     RDKit          2D

 34 37  0  0  0  0  0  0  0  0999 V2000
   -2.0431   -4.2971    0.0000 C   0  0  0  0  0  0  0  0  0  0  0  0
   -1.3315   -2.9767    0.0000 C   0  0  0  0  0  0  0  0  0  0  0  0
   -2.1193   -1.7002    0.0000 C   0  0  0  0  0  0  0  0  0  0  0  0
   -3.6187   -1.7442    0.0000 C   0  0  0  0  0  0  0  0  0  0  0  0
   -4.4064   -0.4677    0.0000 C   0  0  0  0  0  0  0  0  0  0  0  0
   -3.6948    0.8528    0.0000 O   0  0  0  0  0  0  0  0  0  0  0  0
   -5.9058   -0.5117    0.0000 N   0  0  0  0  0  0  0  0  0  0  0  0
   -6.6936    0.7648    0.0000 C   0  0  0  0  0  0  0  0  0  0  0  0
   -8.1929    0.7208    0.0000 C   0  0  0  0  0  0  0  0  0  0  0  0
   -8.9807    1.9973    0.0000 S   0  0  0  0  0  0  0  0  0  0  0  0
  -10.2572    1.2096    0.0000 O   0  0  0  0  0  0  0  0  0  0  0  0
   -7.7042    2.7851    0.0000 O   0  0  0  0  0  0  0  0  0  0  0  0
   -9.7684    3.2738    0.0000 O   0  0  0  0  0  0  0  0  0  0  0  0
    0.1678   -2.9327    0.0000 C   0  0  0  0  0  0  0  0  0  0  0  0
    1.0847   -4.1198    0.0000 C   0  0  0  0  0  0  0  0  0  0  0  0
    2.4971   -3.6147    0.0000 C   0  0  0  0  0  0  0  0  0  0  0  0
    2.4531   -2.1153    0.0000 C   0  0  0  0  0  0  0  0  0  0  0  0
    3.5379   -1.0794    0.0000 C   0  0  0  0  0  0  0  0  0  0  0  0
    4.9775   -1.5009    0.0000 C   0  0  0  0  0  0  0  0  0  0  0  0
    5.3322   -2.9583    0.0000 O   0  0  0  0  0  0  0  0  0  0  0  0
    6.0623   -0.4649    0.0000 C   0  0  0  0  0  0  0  0  0  0  0  0
    5.7075    0.9925    0.0000 C   0  0  0  0  0  0  0  0  0  0  0  0
    6.7923    2.0285    0.0000 C   0  0  0  0  0  0  0  0  0  0  0  0
    6.4376    3.4859    0.0000 C   0  0  0  0  0  0  0  0  0  0  0  0
    7.5224    4.5219    0.0000 O   0  0  0  0  0  0  0  0  0  0  0  0
    4.9980    3.9074    0.0000 C   0  0  0  0  0  0  0  0  0  0  0  0
    3.9132    2.8715    0.0000 C   0  0  0  0  0  0  0  0  0  0  0  0
    4.2680    1.4140    0.0000 C   0  0  0  0  0  0  0  0  0  0  0  0
    2.8284    1.8355    0.0000 C   0  0  0  0  0  0  0  0  0  0  0  0
    3.1831    0.3781    0.0000 C   0  0  0  0  0  0  0  0  0  0  0  0
    1.7436    0.7996    0.0000 C   0  0  0  0  0  0  0  0  0  0  0  0
    0.6588   -0.2364    0.0000 C   0  0  0  0  0  0  0  0  0  0  0  0
    1.0135   -1.6938    0.0000 C   0  0  0  0  0  0  0  0  0  0  0  0
   -0.4622   -1.4251    0.0000 C   0  0  0  0  0  0  0  0  0  0  0  0
  2  1  1  1
  2  3  1  0
  3  4  1  0
  4  5  1  0
  5  6  2  0
  5  7  1  0
  7  8  1  0
  8  9  1  0
  9 10  1  0
 10 11  2  0
 10 12  2  0
 10 13  1  0
  2 14  1  0
 14 15  1  6
 15 16  1  0
 17 16  1  6
 17 18  1  0
 18 19  1  1
 19 20  1  1
 19 21  1  0
 22 21  1  6
 22 23  1  0
 23 24  1  0
 24 25  1  6
 24 26  1  0
 26 27  1  0
 27 28  1  0
 28 29  1  6
 28 30  1  0
 30 31  1  6
 31 32  1  0
 32 33  1  0
 33 34  1  6
 33 14  1  0
 33 17  1  0
 30 18  1  0
 28 22  1  0
M  END
>  <MS_ID>  (3670) 
MS4079

>  <SMILES>  (3670) 
C[C@@H](CCC(=O)NCCS(=O)(=O)O)[C@H]1CC[C@H]2[C@@H]3[C@H](O)C[C@H]4C[C@@H](O)CC[C@]4(C)[C@H]3CC[C@]12C

>  <Structure_dimension>  (3670) 
2D

$$$$
MS4080
     RDKit          2D

 32 35  0  0  0  0  0  0  0  0999 V2000
   -3.1421   -3.6694    0.0000 C   0  0  0  0  0  0  0  0  0  0  0  0
   -2.2628   -2.4541    0.0000 C   0  0  0  0  0  0  0  0  0  0  0  0
   -2.8756   -1.0850    0.0000 C   0  0  0  0  0  0  0  0  0  0  0  0
   -4.3676   -0.9311    0.0000 C   0  0  0  0  0  0  0  0  0  0  0  0
   -4.9804    0.4380    0.0000 C   0  0  0  0  0  0  0  0  0  0  0  0
   -4.1011    1.6532    0.0000 O   0  0  0  0  0  0  0  0  0  0  0  0
   -6.4725    0.5919    0.0000 N   0  0  0  0  0  0  0  0  0  0  0  0
   -7.0853    1.9610    0.0000 C   0  0  0  0  0  0  0  0  0  0  0  0
   -8.5774    2.1149    0.0000 C   0  0  0  0  0  0  0  0  0  0  0  0
   -9.4567    0.8996    0.0000 O   0  0  0  0  0  0  0  0  0  0  0  0
   -9.1901    3.4840    0.0000 O   0  0  0  0  0  0  0  0  0  0  0  0
   -0.7707   -2.6080    0.0000 C   0  0  0  0  0  0  0  0  0  0  0  0
   -0.0182   -3.9056    0.0000 C   0  0  0  0  0  0  0  0  0  0  0  0
    1.4484   -3.5909    0.0000 C   0  0  0  0  0  0  0  0  0  0  0  0
    1.6023   -2.0988    0.0000 C   0  0  0  0  0  0  0  0  0  0  0  0
    2.8141   -1.2147    0.0000 C   0  0  0  0  0  0  0  0  0  0  0  0
    4.1856   -1.8222    0.0000 C   0  0  0  0  0  0  0  0  0  0  0  0
    4.3453   -3.3136    0.0000 O   0  0  0  0  0  0  0  0  0  0  0  0
    5.3974   -0.9381    0.0000 C   0  0  0  0  0  0  0  0  0  0  0  0
    5.2377    0.5533    0.0000 C   0  0  0  0  0  0  0  0  0  0  0  0
    6.4495    1.4374    0.0000 C   0  0  0  0  0  0  0  0  0  0  0  0
    6.2898    2.9289    0.0000 C   0  0  0  0  0  0  0  0  0  0  0  0
    7.5016    3.8129    0.0000 O   0  0  0  0  0  0  0  0  0  0  0  0
    4.9183    3.5363    0.0000 C   0  0  0  0  0  0  0  0  0  0  0  0
    3.7065    2.6522    0.0000 C   0  0  0  0  0  0  0  0  0  0  0  0
    3.8662    1.1608    0.0000 C   0  0  0  0  0  0  0  0  0  0  0  0
    2.4947    1.7682    0.0000 C   0  0  0  0  0  0  0  0  0  0  0  0
    2.6544    0.2767    0.0000 C   0  0  0  0  0  0  0  0  0  0  0  0
    1.2829    0.8842    0.0000 C   0  0  0  0  0  0  0  0  0  0  0  0
    0.0711    0.0001    0.0000 C   0  0  0  0  0  0  0  0  0  0  0  0
    0.2308   -1.4914    0.0000 C   0  0  0  0  0  0  0  0  0  0  0  0
   -1.1967   -1.0306    0.0000 C   0  0  0  0  0  0  0  0  0  0  0  0
  2  1  1  6
  2  3  1  0
  3  4  1  0
  4  5  1  0
  5  6  2  0
  5  7  1  0
  7  8  1  0
  8  9  1  0
  9 10  2  0
  9 11  1  0
  2 12  1  0
 12 13  1  6
 13 14  1  0
 15 14  1  6
 15 16  1  0
 16 17  1  6
 17 18  1  6
 17 19  1  0
 20 19  1  1
 20 21  1  0
 21 22  1  0
 22 23  1  1
 22 24  1  0
 24 25  1  0
 25 26  1  0
 26 27  1  6
 26 28  1  0
 28 29  1  6
 29 30  1  0
 30 31  1  0
 31 32  1  6
 31 12  1  0
 31 15  1  0
 28 16  1  0
 26 20  1  0
M  END
>  <MS_ID>  (3671) 
MS4080

>  <SMILES>  (3671) 
C[C@H](CCC(=O)NCC(=O)O)[C@H]1CC[C@H]2[C@H]3[C@@H](O)C[C@@H]4C[C@H](O)CC[C@]4(C)[C@H]3CC[C@]12C

>  <Structure_dimension>  (3671) 
2D

$$$$
MS4081
     RDKit          2D

 27 30  0  0  0  0  0  0  0  0999 V2000
   -4.7316   -2.2462    0.0000 C   0  0  0  0  0  0  0  0  0  0  0  0
   -3.6106   -1.2495    0.0000 C   0  0  0  0  0  0  0  0  0  0  0  0
   -3.9133    0.2196    0.0000 C   0  0  0  0  0  0  0  0  0  0  0  0
   -5.3370    0.6920    0.0000 C   0  0  0  0  0  0  0  0  0  0  0  0
   -5.6397    2.1612    0.0000 C   0  0  0  0  0  0  0  0  0  0  0  0
   -4.5188    3.1579    0.0000 O   0  0  0  0  0  0  0  0  0  0  0  0
   -7.0634    2.6336    0.0000 O   0  0  0  0  0  0  0  0  0  0  0  0
   -2.1870   -1.7219    0.0000 C   0  0  0  0  0  0  0  0  0  0  0  0
   -1.7323   -3.1514    0.0000 C   0  0  0  0  0  0  0  0  0  0  0  0
   -0.2324   -3.1607    0.0000 C   0  0  0  0  0  0  0  0  0  0  0  0
    0.2401   -1.7371    0.0000 C   0  0  0  0  0  0  0  0  0  0  0  0
    1.6141   -1.1355    0.0000 C   0  0  0  0  0  0  0  0  0  0  0  0
    2.8222   -2.0247    0.0000 C   0  0  0  0  0  0  0  0  0  0  0  0
    2.6561   -3.5155    0.0000 O   0  0  0  0  0  0  0  0  0  0  0  0
    4.1962   -1.4232    0.0000 C   0  0  0  0  0  0  0  0  0  0  0  0
    4.3623    0.0676    0.0000 C   0  0  0  0  0  0  0  0  0  0  0  0
    5.7364    0.6691    0.0000 C   0  0  0  0  0  0  0  0  0  0  0  0
    5.9025    2.1599    0.0000 C   0  0  0  0  0  0  0  0  0  0  0  0
    4.6945    3.0491    0.0000 C   0  0  0  0  0  0  0  0  0  0  0  0
    3.3204    2.4476    0.0000 C   0  0  0  0  0  0  0  0  0  0  0  0
    3.1543    0.9568    0.0000 C   0  0  0  0  0  0  0  0  0  0  0  0
    1.9463    1.8460    0.0000 C   0  0  0  0  0  0  0  0  0  0  0  0
    1.7802    0.3553    0.0000 C   0  0  0  0  0  0  0  0  0  0  0  0
    0.5722    1.2445    0.0000 C   0  0  0  0  0  0  0  0  0  0  0  0
   -0.8019    0.6429    0.0000 C   0  0  0  0  0  0  0  0  0  0  0  0
   -0.9680   -0.8478    0.0000 C   0  0  0  0  0  0  0  0  0  0  0  0
   -2.2623   -0.0897    0.0000 C   0  0  0  0  0  0  0  0  0  0  0  0
  2  1  1  6
  2  3  1  0
  3  4  1  0
  4  5  1  0
  5  6  2  0
  5  7  1  0
  2  8  1  0
  8  9  1  6
  9 10  1  0
 11 10  1  6
 11 12  1  0
 12 13  1  1
 13 14  1  1
 13 15  1  0
 16 15  1  6
 16 17  1  0
 17 18  1  0
 18 19  1  0
 19 20  1  0
 20 21  1  0
 21 22  1  6
 21 23  1  0
 23 24  1  6
 24 25  1  0
 25 26  1  0
 26 27  1  6
 26  8  1  0
 26 11  1  0
 23 12  1  0
 21 16  1  0
M  END
>  <MS_ID>  (3672) 
MS4081

>  <SMILES>  (3672) 
C[C@H](CCC(=O)O)[C@H]1CC[C@H]2[C@@H]3[C@H](O)C[C@H]4CCCC[C@]4(C)[C@H]3CC[C@]12C

>  <Structure_dimension>  (3672) 
2D

$$$$
MS4083
     RDKit          2D

 32 35  0  0  0  0  0  0  0  0999 V2000
   -5.9135   -2.3949    0.0000 C   0  0  0  0  0  0  0  0  0  0  0  0
   -4.7298   -1.4737    0.0000 C   0  0  0  0  0  0  0  0  0  0  0  0
   -4.9357    0.0121    0.0000 C   0  0  0  0  0  0  0  0  0  0  0  0
   -6.3253    0.5767    0.0000 C   0  0  0  0  0  0  0  0  0  0  0  0
   -6.5312    2.0625    0.0000 C   0  0  0  0  0  0  0  0  0  0  0  0
   -5.3475    2.9837    0.0000 O   0  0  0  0  0  0  0  0  0  0  0  0
   -7.9209    2.6271    0.0000 C   0  0  0  0  0  0  0  0  0  0  0  0
   -8.1268    4.1129    0.0000 F   0  0  0  0  0  0  0  0  0  0  0  0
   -3.3401   -2.0383    0.0000 C   0  0  0  0  0  0  0  0  0  0  0  0
   -2.9800   -3.4944    0.0000 C   0  0  0  0  0  0  0  0  0  0  0  0
   -1.4838   -3.6019    0.0000 C   0  0  0  0  0  0  0  0  0  0  0  0
   -0.9193   -2.2122    0.0000 C   0  0  0  0  0  0  0  0  0  0  0  0
    0.4913   -1.7019    0.0000 C   0  0  0  0  0  0  0  0  0  0  0  0
    1.6385   -2.6683    0.0000 C   0  0  0  0  0  0  0  0  0  0  0  0
    3.0490   -2.1580    0.0000 C   0  0  0  0  0  0  0  0  0  0  0  0
    3.3123   -0.6813    0.0000 C   0  0  0  0  0  0  0  0  0  0  0  0
    4.7228   -0.1710    0.0000 C   0  0  0  0  0  0  0  0  0  0  0  0
    4.9862    1.3057    0.0000 C   0  0  0  0  0  0  0  0  0  0  0  0
    6.3967    1.8160    0.0000 O   0  0  0  0  0  0  0  0  0  0  0  0
    7.5439    0.8497    0.0000 S   0  0  0  0  0  0  0  0  0  0  0  0
    6.5775   -0.2976    0.0000 O   0  0  0  0  0  0  0  0  0  0  0  0
    8.5103    1.9969    0.0000 O   0  0  0  0  0  0  0  0  0  0  0  0
    8.6911   -0.1167    0.0000 O   0  0  0  0  0  0  0  0  0  0  0  0
    3.8390    2.2721    0.0000 C   0  0  0  0  0  0  0  0  0  0  0  0
    2.4284    1.7618    0.0000 C   0  0  0  0  0  0  0  0  0  0  0  0
    2.1651    0.2851    0.0000 C   0  0  0  0  0  0  0  0  0  0  0  0
    1.0179    1.2515    0.0000 C   0  0  0  0  0  0  0  0  0  0  0  0
    0.7546   -0.2252    0.0000 C   0  0  0  0  0  0  0  0  0  0  0  0
   -0.3926    0.7412    0.0000 C   0  0  0  0  0  0  0  0  0  0  0  0
   -1.8031    0.2309    0.0000 C   0  0  0  0  0  0  0  0  0  0  0  0
   -2.0665   -1.2458    0.0000 C   0  0  0  0  0  0  0  0  0  0  0  0
   -3.3084   -0.4047    0.0000 C   0  0  0  0  0  0  0  0  0  0  0  0
  2  1  1  6
  2  3  1  0
  3  4  1  0
  4  5  1  0
  5  6  2  0
  5  7  1  0
  7  8  1  0
  2  9  1  0
  9 10  1  6
 10 11  1  0
 12 11  1  6
 12 13  1  0
 13 14  1  1
 14 15  1  0
 16 15  1  1
 16 17  1  0
 17 18  1  0
 18 19  1  1
 19 20  1  0
 20 21  2  0
 20 22  2  0
 20 23  1  0
 18 24  1  0
 24 25  1  0
 25 26  1  0
 26 27  1  6
 26 28  1  0
 28 29  1  6
 29 30  1  0
 30 31  1  0
 31 32  1  6
 31  9  1  0
 31 12  1  0
 28 13  1  0
 26 16  1  0
M  END
>  <MS_ID>  (3673) 
MS4083

>  <SMILES>  (3673) 
C[C@H](CCC(=O)CF)[C@H]1CC[C@H]2[C@@H]3CC[C@@H]4C[C@H](OS(=O)(=O)O)CC[C@]4(C)[C@H]3CC[C@]12C

>  <Structure_dimension>  (3673) 
2D

$$$$
MS4084
     RDKit          2D

 29 32  0  0  0  0  0  0  0  0999 V2000
   -5.2182   -2.1453    0.0000 C   0  0  0  0  0  0  0  0  0  0  0  0
   -4.0752   -1.1739    0.0000 C   0  0  0  0  0  0  0  0  0  0  0  0
   -4.3449    0.3016    0.0000 C   0  0  0  0  0  0  0  0  0  0  0  0
   -5.7577    0.8058    0.0000 C   0  0  0  0  0  0  0  0  0  0  0  0
   -6.0274    2.2814    0.0000 C   0  0  0  0  0  0  0  0  0  0  0  0
   -4.8843    3.2527    0.0000 O   0  0  0  0  0  0  0  0  0  0  0  0
   -7.4401    2.7856    0.0000 O   0  0  0  0  0  0  0  0  0  0  0  0
   -2.6625   -1.6782    0.0000 C   0  0  0  0  0  0  0  0  0  0  0  0
   -2.2400   -3.1174    0.0000 C   0  0  0  0  0  0  0  0  0  0  0  0
   -0.7407   -3.1604    0.0000 C   0  0  0  0  0  0  0  0  0  0  0  0
   -0.2364   -1.7477    0.0000 C   0  0  0  0  0  0  0  0  0  0  0  0
    1.1508   -1.1771    0.0000 C   0  0  0  0  0  0  0  0  0  0  0  0
    2.3386   -2.0932    0.0000 C   0  0  0  0  0  0  0  0  0  0  0  0
    2.1391   -3.5798    0.0000 O   0  0  0  0  0  0  0  0  0  0  0  0
    3.7258   -1.5226    0.0000 C   0  0  0  0  0  0  0  0  0  0  0  0
    4.9136   -2.4386    0.0000 O   0  0  0  0  0  0  0  0  0  0  0  0
    3.9253   -0.0359    0.0000 C   0  0  0  0  0  0  0  0  0  0  0  0
    5.3125    0.5347    0.0000 C   0  0  0  0  0  0  0  0  0  0  0  0
    5.5119    2.0214    0.0000 C   0  0  0  0  0  0  0  0  0  0  0  0
    6.8992    2.5920    0.0000 O   0  0  0  0  0  0  0  0  0  0  0  0
    4.3242    2.9375    0.0000 C   0  0  0  0  0  0  0  0  0  0  0  0
    2.9369    2.3669    0.0000 C   0  0  0  0  0  0  0  0  0  0  0  0
    2.7375    0.8802    0.0000 C   0  0  0  0  0  0  0  0  0  0  0  0
    1.5497    1.7963    0.0000 C   0  0  0  0  0  0  0  0  0  0  0  0
    1.3502    0.3096    0.0000 C   0  0  0  0  0  0  0  0  0  0  0  0
    0.1625    1.2257    0.0000 C   0  0  0  0  0  0  0  0  0  0  0  0
   -1.2248    0.6551    0.0000 C   0  0  0  0  0  0  0  0  0  0  0  0
   -1.4242   -0.8316    0.0000 C   0  0  0  0  0  0  0  0  0  0  0  0
   -2.7012   -0.0447    0.0000 C   0  0  0  0  0  0  0  0  0  0  0  0
  2  1  1  6
  2  3  1  0
  3  4  1  0
  4  5  1  0
  5  6  2  0
  5  7  1  0
  2  8  1  0
  8  9  1  6
  9 10  1  0
 11 10  1  6
 11 12  1  0
 12 13  1  1
 13 14  1  1
 13 15  1  0
 15 16  1  1
 15 17  1  0
 17 18  1  1
 18 19  1  0
 19 20  1  6
 19 21  1  0
 21 22  1  0
 22 23  1  0
 23 24  1  6
 23 25  1  0
 25 26  1  6
 26 27  1  0
 27 28  1  0
 28 29  1  6
 28  8  1  0
 28 11  1  0
 25 12  1  0
 23 17  1  0
M  END
>  <MS_ID>  (3674) 
MS4084

>  <SMILES>  (3674) 
C[C@H](CCC(=O)O)[C@H]1CC[C@H]2[C@@H]3[C@H](O)[C@H](O)[C@@H]4C[C@@H](O)CC[C@]4(C)[C@H]3CC[C@]12C

>  <Structure_dimension>  (3674) 
2D

$$$$
MS4088
     RDKit          2D

 34 37  0  0  0  0  0  0  0  0999 V2000
   -1.9628   -4.3460    0.0000 C   0  0  0  0  0  0  0  0  0  0  0  0
   -1.2213   -3.0421    0.0000 C   0  0  0  0  0  0  0  0  0  0  0  0
   -1.9798   -1.7480    0.0000 C   0  0  0  0  0  0  0  0  0  0  0  0
   -3.4798   -1.7579    0.0000 C   0  0  0  0  0  0  0  0  0  0  0  0
   -4.2383   -0.4638    0.0000 C   0  0  0  0  0  0  0  0  0  0  0  0
   -3.4968    0.8402    0.0000 O   0  0  0  0  0  0  0  0  0  0  0  0
   -5.7383   -0.4736    0.0000 N   0  0  0  0  0  0  0  0  0  0  0  0
   -6.4968    0.8205    0.0000 C   0  0  0  0  0  0  0  0  0  0  0  0
   -7.9967    0.8106    0.0000 C   0  0  0  0  0  0  0  0  0  0  0  0
   -8.7552    2.1047    0.0000 S   0  0  0  0  0  0  0  0  0  0  0  0
  -10.0493    1.3462    0.0000 O   0  0  0  0  0  0  0  0  0  0  0  0
   -7.4611    2.8632    0.0000 O   0  0  0  0  0  0  0  0  0  0  0  0
   -9.5137    3.3988    0.0000 O   0  0  0  0  0  0  0  0  0  0  0  0
    0.2786   -3.0323    0.0000 C   0  0  0  0  0  0  0  0  0  0  0  0
    1.1683   -4.2400    0.0000 C   0  0  0  0  0  0  0  0  0  0  0  0
    2.5918   -3.7671    0.0000 C   0  0  0  0  0  0  0  0  0  0  0  0
    2.5819   -2.2672    0.0000 C   0  0  0  0  0  0  0  0  0  0  0  0
    3.6901   -1.2562    0.0000 C   0  0  0  0  0  0  0  0  0  0  0  0
    5.1196   -1.7103    0.0000 C   0  0  0  0  0  0  0  0  0  0  0  0
    6.2278   -0.6993    0.0000 C   0  0  0  0  0  0  0  0  0  0  0  0
    5.9063    0.7658    0.0000 C   0  0  0  0  0  0  0  0  0  0  0  0
    7.0144    1.7768    0.0000 C   0  0  0  0  0  0  0  0  0  0  0  0
    6.6929    3.2419    0.0000 C   0  0  0  0  0  0  0  0  0  0  0  0
    7.8010    4.2529    0.0000 O   0  0  0  0  0  0  0  0  0  0  0  0
    5.2633    3.6961    0.0000 C   0  0  0  0  0  0  0  0  0  0  0  0
    4.1552    2.6851    0.0000 C   0  0  0  0  0  0  0  0  0  0  0  0
    4.4767    1.2200    0.0000 C   0  0  0  0  0  0  0  0  0  0  0  0
    3.0471    1.6741    0.0000 C   0  0  0  0  0  0  0  0  0  0  0  0
    3.3686    0.2090    0.0000 C   0  0  0  0  0  0  0  0  0  0  0  0
    1.9390    0.6631    0.0000 C   0  0  0  0  0  0  0  0  0  0  0  0
    0.8309   -0.3479    0.0000 C   0  0  0  0  0  0  0  0  0  0  0  0
   -0.5987    0.1063    0.0000 O   0  0  0  0  0  0  0  0  0  0  0  0
    1.1523   -1.8130    0.0000 C   0  0  0  0  0  0  0  0  0  0  0  0
   -0.3169   -1.5108    0.0000 C   0  0  0  0  0  0  0  0  0  0  0  0
  2  1  1  1
  2  3  1  0
  3  4  1  0
  4  5  1  0
  5  6  2  0
  5  7  1  0
  7  8  1  0
  8  9  1  0
  9 10  1  0
 10 11  2  0
 10 12  2  0
 10 13  1  0
  2 14  1  0
 14 15  1  6
 15 16  1  0
 17 16  1  6
 17 18  1  0
 18 19  1  1
 19 20  1  0
 21 20  1  6
 21 22  1  0
 22 23  1  0
 23 24  1  6
 23 25  1  0
 25 26  1  0
 26 27  1  0
 27 28  1  6
 27 29  1  0
 29 30  1  6
 30 31  1  0
 31 32  1  1
 31 33  1  0
 33 34  1  6
 33 14  1  0
 33 17  1  0
 29 18  1  0
 27 21  1  0
M  END
>  <MS_ID>  (3675) 
MS4088

>  <SMILES>  (3675) 
C[C@@H](CCC(=O)NCCS(=O)(=O)O)[C@H]1CC[C@H]2[C@@H]3CC[C@H]4C[C@@H](O)CC[C@]4(C)[C@H]3C[C@H](O)[C@]12C

>  <Structure_dimension>  (3675) 
2D

$$$$
MS4089
     RDKit          2D

 38 42  0  0  0  0  0  0  0  0999 V2000
   -0.6552   -4.8882    0.0000 C   0  0  0  0  0  0  0  0  0  0  0  0
   -0.0536   -3.5141    0.0000 C   0  0  0  0  0  0  0  0  0  0  0  0
   -0.9428   -2.3061    0.0000 C   0  0  0  0  0  0  0  0  0  0  0  0
   -2.4336   -2.4722    0.0000 C   0  0  0  0  0  0  0  0  0  0  0  0
   -3.3228   -1.2641    0.0000 C   0  0  0  0  0  0  0  0  0  0  0  0
   -2.7212    0.1099    0.0000 O   0  0  0  0  0  0  0  0  0  0  0  0
   -4.8136   -1.4302    0.0000 O   0  0  0  0  0  0  0  0  0  0  0  0
   -5.7028   -0.2222    0.0000 C   0  0  0  0  0  0  0  0  0  0  0  0
   -5.1012    1.1519    0.0000 O   0  0  0  0  0  0  0  0  0  0  0  0
   -5.9905    2.3599    0.0000 C   0  0  0  0  0  0  0  0  0  0  0  0
   -5.3889    3.7340    0.0000 C   0  0  0  0  0  0  0  0  0  0  0  0
   -3.8981    3.9001    0.0000 O   0  0  0  0  0  0  0  0  0  0  0  0
   -7.4812    2.1938    0.0000 C   0  0  0  0  0  0  0  0  0  0  0  0
   -8.3705    3.4018    0.0000 O   0  0  0  0  0  0  0  0  0  0  0  0
   -8.0828    0.8197    0.0000 C   0  0  0  0  0  0  0  0  0  0  0  0
   -9.5736    0.6536    0.0000 O   0  0  0  0  0  0  0  0  0  0  0  0
   -7.1936   -0.3883    0.0000 C   0  0  0  0  0  0  0  0  0  0  0  0
   -7.7951   -1.7624    0.0000 O   0  0  0  0  0  0  0  0  0  0  0  0
    1.4372   -3.3480    0.0000 C   0  0  0  0  0  0  0  0  0  0  0  0
    2.4478   -4.4565    0.0000 C   0  0  0  0  0  0  0  0  0  0  0  0
    3.8143   -3.8378    0.0000 C   0  0  0  0  0  0  0  0  0  0  0  0
    3.6482   -2.3471    0.0000 C   0  0  0  0  0  0  0  0  0  0  0  0
    4.6449   -1.2261    0.0000 C   0  0  0  0  0  0  0  0  0  0  0  0
    6.1141   -1.5288    0.0000 C   0  0  0  0  0  0  0  0  0  0  0  0
    7.1108   -0.4079    0.0000 C   0  0  0  0  0  0  0  0  0  0  0  0
    6.6384    1.0158    0.0000 C   0  0  0  0  0  0  0  0  0  0  0  0
    7.6352    2.1367    0.0000 C   0  0  0  0  0  0  0  0  0  0  0  0
    7.1628    3.5604    0.0000 C   0  0  0  0  0  0  0  0  0  0  0  0
    8.1595    4.6813    0.0000 O   0  0  0  0  0  0  0  0  0  0  0  0
    5.6936    3.8631    0.0000 C   0  0  0  0  0  0  0  0  0  0  0  0
    4.6969    2.7422    0.0000 C   0  0  0  0  0  0  0  0  0  0  0  0
    5.1693    1.3185    0.0000 C   0  0  0  0  0  0  0  0  0  0  0  0
    3.7001    1.6212    0.0000 C   0  0  0  0  0  0  0  0  0  0  0  0
    4.1725    0.1976    0.0000 C   0  0  0  0  0  0  0  0  0  0  0  0
    2.7034    0.5003    0.0000 C   0  0  0  0  0  0  0  0  0  0  0  0
    1.7067   -0.6207    0.0000 C   0  0  0  0  0  0  0  0  0  0  0  0
    2.1791   -2.0443    0.0000 C   0  0  0  0  0  0  0  0  0  0  0  0
    0.6863   -1.8968    0.0000 C   0  0  0  0  0  0  0  0  0  0  0  0
  2  1  1  6
  2  3  1  0
  3  4  1  0
  4  5  1  0
  5  6  2  0
  5  7  1  0
  8  7  1  1
  8  9  1  0
  9 10  1  0
 10 11  1  1
 11 12  1  0
 10 13  1  0
 13 14  1  6
 13 15  1  0
 15 16  1  1
 15 17  1  0
 17 18  1  6
  2 19  1  0
 19 20  1  6
 20 21  1  0
 22 21  1  6
 22 23  1  0
 23 24  1  1
 24 25  1  0
 26 25  1  1
 26 27  1  0
 27 28  1  0
 28 29  1  1
 28 30  1  0
 30 31  1  0
 31 32  1  0
 32 33  1  6
 32 34  1  0
 34 35  1  6
 35 36  1  0
 36 37  1  0
 37 38  1  6
 17  8  1  0
 37 19  1  0
 37 22  1  0
 34 23  1  0
 32 26  1  0
M  END
>  <MS_ID>  (3676) 
MS4089

>  <SMILES>  (3676) 
C[C@H](CCC(=O)O[C@@H]1O[C@H](CO)[C@@H](O)[C@H](O)[C@H]1O)[C@H]1CC[C@H]2[C@@H]3CC[C@@H]4C[C@H](O)CC[C@]4(C)[C@H]3CC[C@]12C

>  <Structure_dimension>  (3676) 
2D

$$$$
MS4090
     RDKit          2D

 33 36  0  0  0  0  0  0  0  0999 V2000
   -3.0978   -3.6919    0.0000 C   0  0  0  0  0  0  0  0  0  0  0  0
   -2.2201   -2.4755    0.0000 C   0  0  0  0  0  0  0  0  0  0  0  0
   -2.8347   -1.1072    0.0000 C   0  0  0  0  0  0  0  0  0  0  0  0
   -4.3270   -0.9552    0.0000 C   0  0  0  0  0  0  0  0  0  0  0  0
   -4.9416    0.4131    0.0000 C   0  0  0  0  0  0  0  0  0  0  0  0
   -4.0639    1.6295    0.0000 O   0  0  0  0  0  0  0  0  0  0  0  0
   -6.4339    0.5650    0.0000 N   0  0  0  0  0  0  0  0  0  0  0  0
   -7.0484    1.9333    0.0000 C   0  0  0  0  0  0  0  0  0  0  0  0
   -8.5407    2.0852    0.0000 C   0  0  0  0  0  0  0  0  0  0  0  0
   -9.4184    0.8688    0.0000 O   0  0  0  0  0  0  0  0  0  0  0  0
   -9.1553    3.4535    0.0000 O   0  0  0  0  0  0  0  0  0  0  0  0
   -0.7278   -2.6274    0.0000 C   0  0  0  0  0  0  0  0  0  0  0  0
    0.0264   -3.9240    0.0000 C   0  0  0  0  0  0  0  0  0  0  0  0
    1.4926   -3.6073    0.0000 C   0  0  0  0  0  0  0  0  0  0  0  0
    1.6445   -2.1150    0.0000 C   0  0  0  0  0  0  0  0  0  0  0  0
    2.8552   -1.2294    0.0000 C   0  0  0  0  0  0  0  0  0  0  0  0
    4.2275   -1.8350    0.0000 C   0  0  0  0  0  0  0  0  0  0  0  0
    4.3891   -3.3263    0.0000 O   0  0  0  0  0  0  0  0  0  0  0  0
    5.4381   -0.9494    0.0000 C   0  0  0  0  0  0  0  0  0  0  0  0
    5.2764    0.5419    0.0000 C   0  0  0  0  0  0  0  0  0  0  0  0
    6.4871    1.4275    0.0000 C   0  0  0  0  0  0  0  0  0  0  0  0
    6.3254    2.9188    0.0000 C   0  0  0  0  0  0  0  0  0  0  0  0
    7.5360    3.8044    0.0000 O   0  0  0  0  0  0  0  0  0  0  0  0
    4.9531    3.5244    0.0000 C   0  0  0  0  0  0  0  0  0  0  0  0
    3.7425    2.6388    0.0000 C   0  0  0  0  0  0  0  0  0  0  0  0
    3.9041    1.1475    0.0000 C   0  0  0  0  0  0  0  0  0  0  0  0
    2.5318    1.7531    0.0000 C   0  0  0  0  0  0  0  0  0  0  0  0
    2.6935    0.2619    0.0000 C   0  0  0  0  0  0  0  0  0  0  0  0
    1.3212    0.8675    0.0000 C   0  0  0  0  0  0  0  0  0  0  0  0
    0.1105   -0.0181    0.0000 C   0  0  0  0  0  0  0  0  0  0  0  0
   -1.2618    0.5875    0.0000 O   0  0  0  0  0  0  0  0  0  0  0  0
    0.2722   -1.5094    0.0000 C   0  0  0  0  0  0  0  0  0  0  0  0
   -1.1559   -1.0505    0.0000 C   0  0  0  0  0  0  0  0  0  0  0  0
  2  1  1  6
  2  3  1  0
  3  4  1  0
  4  5  1  0
  5  6  2  0
  5  7  1  0
  7  8  1  0
  8  9  1  0
  9 10  2  0
  9 11  1  0
  2 12  1  0
 12 13  1  6
 13 14  1  0
 15 14  1  6
 15 16  1  0
 16 17  1  1
 17 18  1  1
 17 19  1  0
 20 19  1  6
 20 21  1  0
 21 22  1  0
 22 23  1  6
 22 24  1  0
 24 25  1  0
 25 26  1  0
 26 27  1  6
 26 28  1  0
 28 29  1  6
 29 30  1  0
 30 31  1  1
 30 32  1  0
 32 33  1  6
 32 12  1  0
 32 15  1  0
 28 16  1  0
 26 20  1  0
M  END
>  <MS_ID>  (3677) 
MS4090

>  <SMILES>  (3677) 
C[C@H](CCC(=O)NCC(=O)O)[C@H]1CC[C@H]2[C@@H]3[C@H](O)C[C@H]4C[C@@H](O)CC[C@]4(C)[C@H]3C[C@H](O)[C@]12C

>  <Structure_dimension>  (3677) 
2D

$$$$
MS4091
     RDKit          2D

 28 31  0  0  0  0  0  0  0  0999 V2000
    5.3971    1.8731    0.0000 C   0  0  0  0  0  0  0  0  0  0  0  0
    4.1440    1.0486    0.0000 C   0  0  0  0  0  0  0  0  0  0  0  0
    4.2315   -0.4489    0.0000 C   0  0  0  0  0  0  0  0  0  0  0  0
    5.5720   -1.1218    0.0000 C   0  0  0  0  0  0  0  0  0  0  0  0
    5.6595   -2.6193    0.0000 C   0  0  0  0  0  0  0  0  0  0  0  0
    4.4064   -3.4438    0.0000 O   0  0  0  0  0  0  0  0  0  0  0  0
    7.0000   -3.2923    0.0000 O   0  0  0  0  0  0  0  0  0  0  0  0
    2.8035    1.7216    0.0000 C   0  0  0  0  0  0  0  0  0  0  0  0
    2.5599    3.2017    0.0000 C   0  0  0  0  0  0  0  0  0  0  0  0
    1.0770    3.4275    0.0000 C   0  0  0  0  0  0  0  0  0  0  0  0
    0.4041    2.0869    0.0000 C   0  0  0  0  0  0  0  0  0  0  0  0
   -1.0425    1.6900    0.0000 C   0  0  0  0  0  0  0  0  0  0  0  0
   -2.1095    2.7443    0.0000 C   0  0  0  0  0  0  0  0  0  0  0  0
   -3.5560    2.3474    0.0000 C   0  0  0  0  0  0  0  0  0  0  0  0
   -3.9356    0.8962    0.0000 C   0  0  0  0  0  0  0  0  0  0  0  0
   -5.3821    0.4994    0.0000 C   0  0  0  0  0  0  0  0  0  0  0  0
   -5.7617   -0.9518    0.0000 C   0  0  0  0  0  0  0  0  0  0  0  0
   -7.2082   -1.3487    0.0000 O   0  0  0  0  0  0  0  0  0  0  0  0
   -4.6947   -2.0061    0.0000 C   0  0  0  0  0  0  0  0  0  0  0  0
   -5.0742   -3.4573    0.0000 O   0  0  0  0  0  0  0  0  0  0  0  0
   -3.2481   -1.6092    0.0000 C   0  0  0  0  0  0  0  0  0  0  0  0
   -2.8686   -0.1581    0.0000 C   0  0  0  0  0  0  0  0  0  0  0  0
   -1.8016   -1.2124    0.0000 C   0  0  0  0  0  0  0  0  0  0  0  0
   -1.4220    0.2388    0.0000 C   0  0  0  0  0  0  0  0  0  0  0  0
   -0.3551   -0.8155    0.0000 C   0  0  0  0  0  0  0  0  0  0  0  0
    1.0915   -0.4186    0.0000 C   0  0  0  0  0  0  0  0  0  0  0  0
    1.4710    1.0326    0.0000 C   0  0  0  0  0  0  0  0  0  0  0  0
    2.6424    0.0956    0.0000 C   0  0  0  0  0  0  0  0  0  0  0  0
  2  1  1  6
  2  3  1  0
  3  4  1  0
  4  5  1  0
  5  6  2  0
  5  7  1  0
  2  8  1  0
  8  9  1  6
  9 10  1  0
 11 10  1  6
 11 12  1  0
 12 13  1  1
 13 14  1  0
 15 14  1  1
 15 16  1  0
 16 17  1  0
 17 18  1  1
 17 19  1  0
 19 20  1  6
 19 21  1  0
 21 22  1  0
 22 23  1  6
 22 24  1  0
 24 25  1  6
 25 26  1  0
 26 27  1  0
 27 28  1  6
 27  8  1  0
 27 11  1  0
 24 12  1  0
 22 15  1  0
M  END
>  <MS_ID>  (3678) 
MS4091

>  <SMILES>  (3678) 
C[C@H](CCC(=O)O)[C@H]1CC[C@H]2[C@@H]3CC[C@@H]4C[C@H](O)[C@@H](O)C[C@]4(C)[C@H]3CC[C@]12C

>  <Structure_dimension>  (3678) 
2D

$$$$
MS4095
     RDKit          2D

 30 33  0  0  0  0  0  0  0  0999 V2000
   -5.1134   -2.2540    0.0000 C   0  0  0  0  0  0  0  0  0  0  0  0
   -3.9811   -1.2701    0.0000 C   0  0  0  0  0  0  0  0  0  0  0  0
   -4.2670    0.2024    0.0000 C   0  0  0  0  0  0  0  0  0  0  0  0
   -5.6852    0.6910    0.0000 C   0  0  0  0  0  0  0  0  0  0  0  0
   -5.9711    2.1635    0.0000 C   0  0  0  0  0  0  0  0  0  0  0  0
   -4.8388    3.1474    0.0000 O   0  0  0  0  0  0  0  0  0  0  0  0
   -7.3892    2.6522    0.0000 O   0  0  0  0  0  0  0  0  0  0  0  0
   -2.5629   -1.7588    0.0000 C   0  0  0  0  0  0  0  0  0  0  0  0
   -2.1247   -3.1933    0.0000 C   0  0  0  0  0  0  0  0  0  0  0  0
   -0.6249   -3.2198    0.0000 C   0  0  0  0  0  0  0  0  0  0  0  0
   -0.1362   -1.8017    0.0000 C   0  0  0  0  0  0  0  0  0  0  0  0
    1.2446   -1.2159    0.0000 C   0  0  0  0  0  0  0  0  0  0  0  0
    2.4424   -2.1188    0.0000 C   0  0  0  0  0  0  0  0  0  0  0  0
    2.2593   -3.6076    0.0000 O   0  0  0  0  0  0  0  0  0  0  0  0
    3.8233   -1.5330    0.0000 C   0  0  0  0  0  0  0  0  0  0  0  0
    5.0210   -2.4360    0.0000 O   0  0  0  0  0  0  0  0  0  0  0  0
    4.0064   -0.0442    0.0000 C   0  0  0  0  0  0  0  0  0  0  0  0
    5.3873    0.5416    0.0000 C   0  0  0  0  0  0  0  0  0  0  0  0
    5.5704    2.0303    0.0000 C   0  0  0  0  0  0  0  0  0  0  0  0
    6.9513    2.6161    0.0000 O   0  0  0  0  0  0  0  0  0  0  0  0
    4.3726    2.9333    0.0000 C   0  0  0  0  0  0  0  0  0  0  0  0
    2.9918    2.3475    0.0000 C   0  0  0  0  0  0  0  0  0  0  0  0
    2.8086    0.8587    0.0000 C   0  0  0  0  0  0  0  0  0  0  0  0
    1.6109    1.7617    0.0000 C   0  0  0  0  0  0  0  0  0  0  0  0
    1.4278    0.2729    0.0000 C   0  0  0  0  0  0  0  0  0  0  0  0
    0.2300    1.1759    0.0000 C   0  0  0  0  0  0  0  0  0  0  0  0
   -1.1509    0.5901    0.0000 C   0  0  0  0  0  0  0  0  0  0  0  0
   -2.3486    1.4931    0.0000 O   0  0  0  0  0  0  0  0  0  0  0  0
   -1.3340   -0.8987    0.0000 C   0  0  0  0  0  0  0  0  0  0  0  0
   -2.6196   -0.1258    0.0000 C   0  0  0  0  0  0  0  0  0  0  0  0
  2  1  1  6
  2  3  1  0
  3  4  1  0
  4  5  1  0
  5  6  2  0
  5  7  1  0
  2  8  1  0
  8  9  1  6
  9 10  1  0
 11 10  1  6
 11 12  1  0
 12 13  1  1
 13 14  1  1
 13 15  1  0
 15 16  1  1
 15 17  1  0
 17 18  1  1
 18 19  1  0
 19 20  1  6
 19 21  1  0
 21 22  1  0
 22 23  1  0
 23 24  1  6
 23 25  1  0
 25 26  1  6
 26 27  1  0
 27 28  1  1
 27 29  1  0
 29 30  1  6
 29  8  1  0
 29 11  1  0
 25 12  1  0
 23 17  1  0
M  END
>  <MS_ID>  (3679) 
MS4095

>  <SMILES>  (3679) 
C[C@H](CCC(=O)O)[C@H]1CC[C@H]2[C@@H]3[C@H](O)[C@H](O)[C@@H]4C[C@@H](O)CC[C@]4(C)[C@H]3C[C@H](O)[C@]12C

>  <Structure_dimension>  (3679) 
2D

$$$$
MS4098
     RDKit          2D

 29 32  0  0  0  0  0  0  0  0999 V2000
   -5.2182   -2.1453    0.0000 C   0  0  0  0  0  0  0  0  0  0  0  0
   -4.0752   -1.1739    0.0000 C   0  0  0  0  0  0  0  0  0  0  0  0
   -4.3449    0.3016    0.0000 C   0  0  0  0  0  0  0  0  0  0  0  0
   -5.7577    0.8058    0.0000 C   0  0  0  0  0  0  0  0  0  0  0  0
   -6.0274    2.2814    0.0000 C   0  0  0  0  0  0  0  0  0  0  0  0
   -4.8843    3.2527    0.0000 O   0  0  0  0  0  0  0  0  0  0  0  0
   -7.4401    2.7856    0.0000 O   0  0  0  0  0  0  0  0  0  0  0  0
   -2.6625   -1.6782    0.0000 C   0  0  0  0  0  0  0  0  0  0  0  0
   -2.2400   -3.1174    0.0000 C   0  0  0  0  0  0  0  0  0  0  0  0
   -0.7407   -3.1604    0.0000 C   0  0  0  0  0  0  0  0  0  0  0  0
   -0.2364   -1.7477    0.0000 C   0  0  0  0  0  0  0  0  0  0  0  0
    1.1508   -1.1771    0.0000 C   0  0  0  0  0  0  0  0  0  0  0  0
    2.3386   -2.0932    0.0000 C   0  0  0  0  0  0  0  0  0  0  0  0
    2.1391   -3.5798    0.0000 O   0  0  0  0  0  0  0  0  0  0  0  0
    3.7258   -1.5226    0.0000 C   0  0  0  0  0  0  0  0  0  0  0  0
    4.9136   -2.4386    0.0000 O   0  0  0  0  0  0  0  0  0  0  0  0
    3.9253   -0.0359    0.0000 C   0  0  0  0  0  0  0  0  0  0  0  0
    5.3125    0.5347    0.0000 C   0  0  0  0  0  0  0  0  0  0  0  0
    5.5119    2.0214    0.0000 C   0  0  0  0  0  0  0  0  0  0  0  0
    6.8992    2.5920    0.0000 O   0  0  0  0  0  0  0  0  0  0  0  0
    4.3242    2.9375    0.0000 C   0  0  0  0  0  0  0  0  0  0  0  0
    2.9369    2.3669    0.0000 C   0  0  0  0  0  0  0  0  0  0  0  0
    2.7375    0.8802    0.0000 C   0  0  0  0  0  0  0  0  0  0  0  0
    1.5497    1.7963    0.0000 C   0  0  0  0  0  0  0  0  0  0  0  0
    1.3502    0.3096    0.0000 C   0  0  0  0  0  0  0  0  0  0  0  0
    0.1625    1.2257    0.0000 C   0  0  0  0  0  0  0  0  0  0  0  0
   -1.2248    0.6551    0.0000 C   0  0  0  0  0  0  0  0  0  0  0  0
   -1.4242   -0.8316    0.0000 C   0  0  0  0  0  0  0  0  0  0  0  0
   -2.7012   -0.0447    0.0000 C   0  0  0  0  0  0  0  0  0  0  0  0
  2  1  1  6
  2  3  1  0
  3  4  1  0
  4  5  1  0
  5  6  2  0
  5  7  1  0
  2  8  1  0
  8  9  1  6
  9 10  1  0
 11 10  1  6
 11 12  1  0
 12 13  1  1
 13 14  1  1
 13 15  1  0
 15 16  1  6
 15 17  1  0
 17 18  1  1
 18 19  1  0
 19 20  1  6
 19 21  1  0
 21 22  1  0
 22 23  1  0
 23 24  1  6
 23 25  1  0
 25 26  1  6
 26 27  1  0
 27 28  1  0
 28 29  1  6
 28  8  1  0
 28 11  1  0
 25 12  1  0
 23 17  1  0
M  END
>  <MS_ID>  (3680) 
MS4098

>  <SMILES>  (3680) 
C[C@H](CCC(=O)O)[C@H]1CC[C@H]2[C@@H]3[C@H](O)[C@@H](O)[C@@H]4C[C@@H](O)CC[C@]4(C)[C@H]3CC[C@]12C

>  <Structure_dimension>  (3680) 
2D

$$$$
MS4101
     RDKit          2D

 32 35  0  0  0  0  0  0  0  0999 V2000
   -5.1569   -2.5516    0.0000 C   0  0  0  0  0  0  0  0  0  0  0  0
   -4.1971   -1.3989    0.0000 C   0  0  0  0  0  0  0  0  0  0  0  0
   -4.7155    0.0087    0.0000 C   0  0  0  0  0  0  0  0  0  0  0  0
   -6.1937    0.2635    0.0000 C   0  0  0  0  0  0  0  0  0  0  0  0
   -6.7121    1.6711    0.0000 C   0  0  0  0  0  0  0  0  0  0  0  0
   -5.7523    2.8238    0.0000 O   0  0  0  0  0  0  0  0  0  0  0  0
   -8.1903    1.9259    0.0000 O   0  0  0  0  0  0  0  0  0  0  0  0
   -2.7189   -1.6538    0.0000 C   0  0  0  0  0  0  0  0  0  0  0  0
   -2.0562   -2.9994    0.0000 C   0  0  0  0  0  0  0  0  0  0  0  0
   -0.5716   -2.7850    0.0000 C   0  0  0  0  0  0  0  0  0  0  0  0
   -0.3168   -1.3068    0.0000 C   0  0  0  0  0  0  0  0  0  0  0  0
    0.9523   -0.5071    0.0000 C   0  0  0  0  0  0  0  0  0  0  0  0
    2.2794   -1.2062    0.0000 C   0  0  0  0  0  0  0  0  0  0  0  0
    2.3374   -2.7051    0.0000 N   0  0  0  0  0  0  0  0  0  0  0  0
    3.6645   -3.4043    0.0000 S   0  0  0  0  0  0  0  0  0  0  0  0
    2.9654   -4.7314    0.0000 O   0  0  0  0  0  0  0  0  0  0  0  0
    4.3637   -2.0772    0.0000 O   0  0  0  0  0  0  0  0  0  0  0  0
    4.9916   -4.1034    0.0000 O   0  0  0  0  0  0  0  0  0  0  0  0
    3.5484   -0.4065    0.0000 C   0  0  0  0  0  0  0  0  0  0  0  0
    3.4903    1.0923    0.0000 C   0  0  0  0  0  0  0  0  0  0  0  0
    4.7594    1.8921    0.0000 C   0  0  0  0  0  0  0  0  0  0  0  0
    4.7013    3.3909    0.0000 C   0  0  0  0  0  0  0  0  0  0  0  0
    5.9703    4.1907    0.0000 O   0  0  0  0  0  0  0  0  0  0  0  0
    3.3742    4.0901    0.0000 C   0  0  0  0  0  0  0  0  0  0  0  0
    2.1052    3.2904    0.0000 C   0  0  0  0  0  0  0  0  0  0  0  0
    2.1632    1.7915    0.0000 C   0  0  0  0  0  0  0  0  0  0  0  0
    0.8361    2.4907    0.0000 C   0  0  0  0  0  0  0  0  0  0  0  0
    0.8942    0.9918    0.0000 C   0  0  0  0  0  0  0  0  0  0  0  0
   -0.4329    1.6909    0.0000 C   0  0  0  0  0  0  0  0  0  0  0  0
   -1.7019    0.8912    0.0000 C   0  0  0  0  0  0  0  0  0  0  0  0
   -1.6439   -0.6077    0.0000 C   0  0  0  0  0  0  0  0  0  0  0  0
   -3.0368   -0.0511    0.0000 C   0  0  0  0  0  0  0  0  0  0  0  0
  2  1  1  6
  2  3  1  0
  3  4  1  0
  4  5  1  0
  5  6  2  0
  5  7  1  0
  2  8  1  0
  8  9  1  6
  9 10  1  0
 11 10  1  6
 11 12  1  0
 12 13  1  1
 13 14  1  1
 14 15  1  0
 15 16  2  0
 15 17  2  0
 15 18  1  0
 13 19  1  0
 20 19  1  1
 20 21  1  0
 21 22  1  0
 22 23  1  1
 22 24  1  0
 24 25  1  0
 25 26  1  0
 26 27  1  6
 26 28  1  0
 28 29  1  6
 29 30  1  0
 30 31  1  0
 31 32  1  6
 31  8  1  0
 31 11  1  0
 28 12  1  0
 26 20  1  0
M  END
>  <MS_ID>  (3681) 
MS4101

>  <SMILES>  (3681) 
C[C@H](CCC(=O)O)[C@H]1CC[C@H]2[C@@H]3[C@H](NS(=O)(=O)O)C[C@@H]4C[C@H](O)CC[C@]4(C)[C@H]3CC[C@]12C

>  <Structure_dimension>  (3681) 
2D

$$$$
MS4104
     RDKit          2D

 33 36  0  0  0  0  0  0  0  0999 V2000
   -1.9813   -4.3426    0.0000 C   0  0  0  0  0  0  0  0  0  0  0  0
   -1.2397   -3.0388    0.0000 C   0  0  0  0  0  0  0  0  0  0  0  0
   -1.9981   -1.7446    0.0000 C   0  0  0  0  0  0  0  0  0  0  0  0
   -3.4981   -1.7543    0.0000 C   0  0  0  0  0  0  0  0  0  0  0  0
   -4.2565   -0.4602    0.0000 C   0  0  0  0  0  0  0  0  0  0  0  0
   -3.5149    0.8437    0.0000 O   0  0  0  0  0  0  0  0  0  0  0  0
   -5.7564   -0.4699    0.0000 N   0  0  0  0  0  0  0  0  0  0  0  0
   -6.5148    0.8243    0.0000 C   0  0  0  0  0  0  0  0  0  0  0  0
   -8.0148    0.8146    0.0000 C   0  0  0  0  0  0  0  0  0  0  0  0
   -8.7732    2.1088    0.0000 S   0  0  0  0  0  0  0  0  0  0  0  0
  -10.0673    1.3504    0.0000 O   0  0  0  0  0  0  0  0  0  0  0  0
   -7.4790    2.8671    0.0000 O   0  0  0  0  0  0  0  0  0  0  0  0
   -9.5316    3.4029    0.0000 O   0  0  0  0  0  0  0  0  0  0  0  0
    0.2602   -3.0291    0.0000 C   0  0  0  0  0  0  0  0  0  0  0  0
    1.1497   -4.2369    0.0000 C   0  0  0  0  0  0  0  0  0  0  0  0
    2.5733   -3.7641    0.0000 C   0  0  0  0  0  0  0  0  0  0  0  0
    2.5636   -2.2642    0.0000 C   0  0  0  0  0  0  0  0  0  0  0  0
    3.6718   -1.2533    0.0000 C   0  0  0  0  0  0  0  0  0  0  0  0
    5.1013   -1.7076    0.0000 C   0  0  0  0  0  0  0  0  0  0  0  0
    6.2095   -0.6967    0.0000 C   0  0  0  0  0  0  0  0  0  0  0  0
    5.8882    0.7685    0.0000 C   0  0  0  0  0  0  0  0  0  0  0  0
    6.9964    1.7794    0.0000 C   0  0  0  0  0  0  0  0  0  0  0  0
    6.6751    3.2445    0.0000 C   0  0  0  0  0  0  0  0  0  0  0  0
    7.7833    4.2554    0.0000 O   0  0  0  0  0  0  0  0  0  0  0  0
    5.2455    3.6988    0.0000 C   0  0  0  0  0  0  0  0  0  0  0  0
    4.1373    2.6879    0.0000 C   0  0  0  0  0  0  0  0  0  0  0  0
    4.4586    1.2228    0.0000 C   0  0  0  0  0  0  0  0  0  0  0  0
    3.0291    1.6771    0.0000 C   0  0  0  0  0  0  0  0  0  0  0  0
    3.3504    0.2119    0.0000 C   0  0  0  0  0  0  0  0  0  0  0  0
    1.9209    0.6662    0.0000 C   0  0  0  0  0  0  0  0  0  0  0  0
    0.8127   -0.3447    0.0000 C   0  0  0  0  0  0  0  0  0  0  0  0
    1.1340   -1.8099    0.0000 C   0  0  0  0  0  0  0  0  0  0  0  0
   -0.3352   -1.5075    0.0000 C   0  0  0  0  0  0  0  0  0  0  0  0
  2  1  1  6
  2  3  1  0
  3  4  1  0
  4  5  1  0
  5  6  2  0
  5  7  1  0
  7  8  1  0
  8  9  1  0
  9 10  1  0
 10 11  2  0
 10 12  2  0
 10 13  1  0
  2 14  1  0
 14 15  1  6
 15 16  1  0
 17 16  1  6
 17 18  1  0
 18 19  1  1
 19 20  1  0
 21 20  1  1
 21 22  1  0
 22 23  1  0
 23 24  1  6
 23 25  1  0
 25 26  1  0
 26 27  1  0
 27 28  1  6
 27 29  1  0
 29 30  1  6
 30 31  1  0
 31 32  1  0
 32 33  1  6
 32 14  1  0
 32 17  1  0
 29 18  1  0
 27 21  1  0
M  END
>  <MS_ID>  (3682) 
MS4104

>  <SMILES>  (3682) 
C[C@H](CCC(=O)NCCS(=O)(=O)O)[C@H]1CC[C@H]2[C@@H]3CC[C@@H]4C[C@@H](O)CC[C@]4(C)[C@H]3CC[C@]12C

>  <Structure_dimension>  (3682) 
2D

$$$$
MS4105
     RDKit          2D

 41 45  0  0  0  0  0  0  0  0999 V2000
   -0.5802   -4.9623    0.0000 C   0  0  0  0  0  0  0  0  0  0  0  0
   -0.0607   -3.5551    0.0000 C   0  0  0  0  0  0  0  0  0  0  0  0
   -1.0197   -2.4016    0.0000 C   0  0  0  0  0  0  0  0  0  0  0  0
   -2.4981   -2.6554    0.0000 C   0  0  0  0  0  0  0  0  0  0  0  0
   -3.4570   -1.5019    0.0000 C   0  0  0  0  0  0  0  0  0  0  0  0
   -2.9376   -0.0947    0.0000 O   0  0  0  0  0  0  0  0  0  0  0  0
   -4.9354   -1.7557    0.0000 O   0  0  0  0  0  0  0  0  0  0  0  0
   -5.8943   -0.6022    0.0000 C   0  0  0  0  0  0  0  0  0  0  0  0
   -5.3749    0.8050    0.0000 O   0  0  0  0  0  0  0  0  0  0  0  0
   -6.3338    1.9584    0.0000 C   0  0  0  0  0  0  0  0  0  0  0  0
   -5.8144    3.3656    0.0000 C   0  0  0  0  0  0  0  0  0  0  0  0
   -6.7733    4.5190    0.0000 O   0  0  0  0  0  0  0  0  0  0  0  0
   -4.3360    3.6193    0.0000 O   0  0  0  0  0  0  0  0  0  0  0  0
   -7.8122    1.7046    0.0000 C   0  0  0  0  0  0  0  0  0  0  0  0
   -8.7712    2.8581    0.0000 O   0  0  0  0  0  0  0  0  0  0  0  0
   -8.3317    0.2975    0.0000 C   0  0  0  0  0  0  0  0  0  0  0  0
   -9.8100    0.0437    0.0000 O   0  0  0  0  0  0  0  0  0  0  0  0
   -7.3727   -0.8560    0.0000 C   0  0  0  0  0  0  0  0  0  0  0  0
   -7.8921   -2.2632    0.0000 O   0  0  0  0  0  0  0  0  0  0  0  0
    1.4176   -3.3013    0.0000 C   0  0  0  0  0  0  0  0  0  0  0  0
    2.4919   -4.3482    0.0000 C   0  0  0  0  0  0  0  0  0  0  0  0
    3.8195   -3.6500    0.0000 C   0  0  0  0  0  0  0  0  0  0  0  0
    3.5658   -2.1716    0.0000 C   0  0  0  0  0  0  0  0  0  0  0  0
    4.4946   -0.9938    0.0000 C   0  0  0  0  0  0  0  0  0  0  0  0
    5.9791   -1.2094    0.0000 C   0  0  0  0  0  0  0  0  0  0  0  0
    6.5346   -2.6027    0.0000 O   0  0  0  0  0  0  0  0  0  0  0  0
    6.9079   -0.0316    0.0000 C   0  0  0  0  0  0  0  0  0  0  0  0
    8.3924   -0.2471    0.0000 O   0  0  0  0  0  0  0  0  0  0  0  0
    6.3523    1.3618    0.0000 C   0  0  0  0  0  0  0  0  0  0  0  0
    7.2812    2.5396    0.0000 C   0  0  0  0  0  0  0  0  0  0  0  0
    6.7256    3.9329    0.0000 C   0  0  0  0  0  0  0  0  0  0  0  0
    7.6545    5.1107    0.0000 O   0  0  0  0  0  0  0  0  0  0  0  0
    5.2412    4.1484    0.0000 C   0  0  0  0  0  0  0  0  0  0  0  0
    4.3123    2.9706    0.0000 C   0  0  0  0  0  0  0  0  0  0  0  0
    4.8679    1.5773    0.0000 C   0  0  0  0  0  0  0  0  0  0  0  0
    3.3835    1.7928    0.0000 C   0  0  0  0  0  0  0  0  0  0  0  0
    3.9391    0.3995    0.0000 C   0  0  0  0  0  0  0  0  0  0  0  0
    2.4546    0.6150    0.0000 C   0  0  0  0  0  0  0  0  0  0  0  0
    1.5258   -0.5628    0.0000 C   0  0  0  0  0  0  0  0  0  0  0  0
    2.0813   -1.9561    0.0000 C   0  0  0  0  0  0  0  0  0  0  0  0
    0.5825   -1.8970    0.0000 C   0  0  0  0  0  0  0  0  0  0  0  0
  2  1  1  6
  2  3  1  0
  3  4  1  0
  4  5  1  0
  5  6  2  0
  5  7  1  0
  8  7  1  1
  8  9  1  0
  9 10  1  0
 10 11  1  1
 11 12  2  0
 11 13  1  0
 10 14  1  0
 14 15  1  6
 14 16  1  0
 16 17  1  1
 16 18  1  0
 18 19  1  6
  2 20  1  0
 20 21  1  6
 21 22  1  0
 23 22  1  6
 23 24  1  0
 24 25  1  1
 25 26  1  6
 25 27  1  0
 27 28  1  6
 27 29  1  0
 29 30  1  1
 30 31  1  0
 31 32  1  1
 31 33  1  0
 33 34  1  0
 34 35  1  0
 35 36  1  6
 35 37  1  0
 37 38  1  6
 38 39  1  0
 39 40  1  0
 40 41  1  6
 18  8  1  0
 40 20  1  0
 40 23  1  0
 37 24  1  0
 35 29  1  0
M  END
>  <MS_ID>  (3683) 
MS4105

>  <SMILES>  (3683) 
C[C@H](CCC(=O)O[C@@H]1O[C@H](C(=O)O)[C@@H](O)[C@H](O)[C@H]1O)[C@H]1CC[C@H]2[C@@H]3[C@@H](O)[C@@H](O)[C@@H]4C[C@H](O)CC[C@]4(C)[C@H]3CC[C@]12C

>  <Structure_dimension>  (3683) 
2D

$$$$
MS4106
     RDKit          2D

 29 32  0  0  0  0  0  0  0  0999 V2000
   -5.0303   -2.1373    0.0000 C   0  0  0  0  0  0  0  0  0  0  0  0
   -3.8594   -1.1998    0.0000 C   0  0  0  0  0  0  0  0  0  0  0  0
   -4.0858    0.2830    0.0000 C   0  0  0  0  0  0  0  0  0  0  0  0
   -5.4831    0.8284    0.0000 C   0  0  0  0  0  0  0  0  0  0  0  0
   -5.7095    2.3112    0.0000 C   0  0  0  0  0  0  0  0  0  0  0  0
   -7.1069    2.8565    0.0000 N   0  0  0  0  0  0  0  0  0  0  0  0
   -4.5386    3.2487    0.0000 O   0  0  0  0  0  0  0  0  0  0  0  0
   -2.4620   -1.7451    0.0000 C   0  0  0  0  0  0  0  0  0  0  0  0
   -2.0818   -3.1961    0.0000 C   0  0  0  0  0  0  0  0  0  0  0  0
   -0.5844   -3.2830    0.0000 C   0  0  0  0  0  0  0  0  0  0  0  0
   -0.0390   -1.8856    0.0000 C   0  0  0  0  0  0  0  0  0  0  0  0
    1.3643   -1.3559    0.0000 C   0  0  0  0  0  0  0  0  0  0  0  0
    2.5248   -2.3063    0.0000 C   0  0  0  0  0  0  0  0  0  0  0  0
    2.2819   -3.7865    0.0000 O   0  0  0  0  0  0  0  0  0  0  0  0
    3.9281   -1.7765    0.0000 C   0  0  0  0  0  0  0  0  0  0  0  0
    4.1710   -0.2963    0.0000 C   0  0  0  0  0  0  0  0  0  0  0  0
    5.5743    0.2334    0.0000 C   0  0  0  0  0  0  0  0  0  0  0  0
    5.8172    1.7136    0.0000 C   0  0  0  0  0  0  0  0  0  0  0  0
    7.2205    2.2434    0.0000 O   0  0  0  0  0  0  0  0  0  0  0  0
    4.6568    2.6641    0.0000 C   0  0  0  0  0  0  0  0  0  0  0  0
    3.2534    2.1343    0.0000 C   0  0  0  0  0  0  0  0  0  0  0  0
    3.0105    0.6541    0.0000 C   0  0  0  0  0  0  0  0  0  0  0  0
    1.8501    1.6046    0.0000 C   0  0  0  0  0  0  0  0  0  0  0  0
    1.6072    0.1244    0.0000 C   0  0  0  0  0  0  0  0  0  0  0  0
    0.4467    1.0748    0.0000 C   0  0  0  0  0  0  0  0  0  0  0  0
   -0.9566    0.5450    0.0000 C   0  0  0  0  0  0  0  0  0  0  0  0
   -2.1170    1.4955    0.0000 O   0  0  0  0  0  0  0  0  0  0  0  0
   -1.1995   -0.9352    0.0000 C   0  0  0  0  0  0  0  0  0  0  0  0
   -2.4529   -0.1112    0.0000 C   0  0  0  0  0  0  0  0  0  0  0  0
  2  1  1  6
  2  3  1  0
  3  4  1  0
  4  5  1  0
  5  6  1  0
  5  7  2  0
  2  8  1  0
  8  9  1  6
  9 10  1  0
 11 10  1  6
 11 12  1  0
 12 13  1  1
 13 14  1  1
 13 15  1  0
 16 15  1  6
 16 17  1  0
 17 18  1  0
 18 19  1  1
 18 20  1  0
 20 21  1  0
 21 22  1  0
 22 23  1  6
 22 24  1  0
 24 25  1  6
 25 26  1  0
 26 27  1  1
 26 28  1  0
 28 29  1  6
 28  8  1  0
 28 11  1  0
 24 12  1  0
 22 16  1  0
M  END
>  <MS_ID>  (3684) 
MS4106

>  <SMILES>  (3684) 
C[C@H](CCC(N)=O)[C@H]1CC[C@H]2[C@@H]3[C@H](O)C[C@H]4C[C@H](O)CC[C@]4(C)[C@H]3C[C@H](O)[C@]12C

>  <Structure_dimension>  (3684) 
2D

$$$$
MS4108
     RDKit          2D

 30 33  0  0  0  0  0  0  0  0999 V2000
   -5.1134   -2.2540    0.0000 C   0  0  0  0  0  0  0  0  0  0  0  0
   -3.9811   -1.2701    0.0000 C   0  0  0  0  0  0  0  0  0  0  0  0
   -4.2670    0.2024    0.0000 C   0  0  0  0  0  0  0  0  0  0  0  0
   -5.6852    0.6910    0.0000 C   0  0  0  0  0  0  0  0  0  0  0  0
   -5.9711    2.1635    0.0000 C   0  0  0  0  0  0  0  0  0  0  0  0
   -4.8388    3.1474    0.0000 O   0  0  0  0  0  0  0  0  0  0  0  0
   -7.3892    2.6522    0.0000 O   0  0  0  0  0  0  0  0  0  0  0  0
   -2.5629   -1.7588    0.0000 C   0  0  0  0  0  0  0  0  0  0  0  0
   -2.1247   -3.1933    0.0000 C   0  0  0  0  0  0  0  0  0  0  0  0
   -0.6249   -3.2198    0.0000 C   0  0  0  0  0  0  0  0  0  0  0  0
   -0.1362   -1.8017    0.0000 C   0  0  0  0  0  0  0  0  0  0  0  0
    1.2446   -1.2159    0.0000 C   0  0  0  0  0  0  0  0  0  0  0  0
    2.4424   -2.1188    0.0000 C   0  0  0  0  0  0  0  0  0  0  0  0
    2.2593   -3.6076    0.0000 O   0  0  0  0  0  0  0  0  0  0  0  0
    3.8233   -1.5330    0.0000 C   0  0  0  0  0  0  0  0  0  0  0  0
    5.0210   -2.4360    0.0000 O   0  0  0  0  0  0  0  0  0  0  0  0
    4.0064   -0.0442    0.0000 C   0  0  0  0  0  0  0  0  0  0  0  0
    5.3873    0.5416    0.0000 C   0  0  0  0  0  0  0  0  0  0  0  0
    5.5704    2.0303    0.0000 C   0  0  0  0  0  0  0  0  0  0  0  0
    6.9513    2.6161    0.0000 O   0  0  0  0  0  0  0  0  0  0  0  0
    4.3726    2.9333    0.0000 C   0  0  0  0  0  0  0  0  0  0  0  0
    2.9918    2.3475    0.0000 C   0  0  0  0  0  0  0  0  0  0  0  0
    2.8086    0.8587    0.0000 C   0  0  0  0  0  0  0  0  0  0  0  0
    1.6109    1.7617    0.0000 C   0  0  0  0  0  0  0  0  0  0  0  0
    1.4278    0.2729    0.0000 C   0  0  0  0  0  0  0  0  0  0  0  0
    0.2300    1.1759    0.0000 C   0  0  0  0  0  0  0  0  0  0  0  0
   -1.1509    0.5901    0.0000 C   0  0  0  0  0  0  0  0  0  0  0  0
   -2.3486    1.4931    0.0000 O   0  0  0  0  0  0  0  0  0  0  0  0
   -1.3340   -0.8987    0.0000 C   0  0  0  0  0  0  0  0  0  0  0  0
   -2.6196   -0.1258    0.0000 C   0  0  0  0  0  0  0  0  0  0  0  0
  2  1  1  6
  2  3  1  0
  3  4  1  0
  4  5  1  0
  5  6  2  0
  5  7  1  0
  2  8  1  0
  8  9  1  6
  9 10  1  0
 11 10  1  6
 11 12  1  0
 12 13  1  1
 13 14  1  6
 13 15  1  0
 15 16  1  1
 15 17  1  0
 17 18  1  1
 18 19  1  0
 19 20  1  6
 19 21  1  0
 21 22  1  0
 22 23  1  0
 23 24  1  6
 23 25  1  0
 25 26  1  6
 26 27  1  0
 27 28  1  1
 27 29  1  0
 29 30  1  6
 29  8  1  0
 29 11  1  0
 25 12  1  0
 23 17  1  0
M  END
>  <MS_ID>  (3685) 
MS4108

>  <SMILES>  (3685) 
C[C@H](CCC(=O)O)[C@H]1CC[C@H]2[C@@H]3[C@@H](O)[C@H](O)[C@@H]4C[C@@H](O)CC[C@]4(C)[C@H]3C[C@H](O)[C@]12C

>  <Structure_dimension>  (3685) 
2D

$$$$
MS4109
     RDKit          2D

 27 30  0  0  0  0  0  0  0  0999 V2000
   -5.4611   -1.7699    0.0000 C   0  0  0  0  0  0  0  0  0  0  0  0
   -4.2513   -0.8831    0.0000 C   0  0  0  0  0  0  0  0  0  0  0  0
   -4.4144    0.6080    0.0000 C   0  0  0  0  0  0  0  0  0  0  0  0
   -5.7872    1.2123    0.0000 C   0  0  0  0  0  0  0  0  0  0  0  0
   -5.9503    2.7034    0.0000 C   0  0  0  0  0  0  0  0  0  0  0  0
   -7.3232    3.3077    0.0000 O   0  0  0  0  0  0  0  0  0  0  0  0
   -2.8784   -1.4875    0.0000 C   0  0  0  0  0  0  0  0  0  0  0  0
   -2.5603   -2.9534    0.0000 C   0  0  0  0  0  0  0  0  0  0  0  0
   -1.0679   -3.1039    0.0000 C   0  0  0  0  0  0  0  0  0  0  0  0
   -0.4636   -1.7310    0.0000 C   0  0  0  0  0  0  0  0  0  0  0  0
    0.9610   -1.2614    0.0000 C   0  0  0  0  0  0  0  0  0  0  0  0
    2.0800   -2.2604    0.0000 C   0  0  0  0  0  0  0  0  0  0  0  0
    3.5046   -1.7909    0.0000 C   0  0  0  0  0  0  0  0  0  0  0  0
    4.6235   -2.7899    0.0000 O   0  0  0  0  0  0  0  0  0  0  0  0
    3.8103   -0.3224    0.0000 C   0  0  0  0  0  0  0  0  0  0  0  0
    5.2349    0.1472    0.0000 C   0  0  0  0  0  0  0  0  0  0  0  0
    5.5406    1.6157    0.0000 C   0  0  0  0  0  0  0  0  0  0  0  0
    6.9652    2.0852    0.0000 O   0  0  0  0  0  0  0  0  0  0  0  0
    4.4216    2.6147    0.0000 C   0  0  0  0  0  0  0  0  0  0  0  0
    2.9970    2.1451    0.0000 C   0  0  0  0  0  0  0  0  0  0  0  0
    2.6913    0.6766    0.0000 C   0  0  0  0  0  0  0  0  0  0  0  0
    1.5724    1.6756    0.0000 C   0  0  0  0  0  0  0  0  0  0  0  0
    1.2667    0.2071    0.0000 C   0  0  0  0  0  0  0  0  0  0  0  0
    0.1478    1.2061    0.0000 C   0  0  0  0  0  0  0  0  0  0  0  0
   -1.2769    0.7365    0.0000 C   0  0  0  0  0  0  0  0  0  0  0  0
   -1.5825   -0.7320    0.0000 C   0  0  0  0  0  0  0  0  0  0  0  0
   -2.7998    0.1446    0.0000 C   0  0  0  0  0  0  0  0  0  0  0  0
  2  1  1  6
  2  3  1  0
  3  4  1  0
  4  5  1  0
  5  6  2  0
  2  7  1  0
  7  8  1  6
  8  9  1  0
 10  9  1  6
 10 11  1  0
 11 12  1  1
 12 13  1  0
 13 14  1  1
 13 15  1  0
 15 16  1  1
 16 17  1  0
 17 18  1  1
 17 19  1  0
 19 20  1  0
 20 21  1  0
 21 22  1  6
 21 23  1  0
 23 24  1  6
 24 25  1  0
 25 26  1  0
 26 27  1  6
 26  7  1  0
 26 10  1  0
 23 11  1  0
 21 15  1  0
M  END
>  <MS_ID>  (3686) 
MS4109

>  <SMILES>  (3686) 
C[C@H](CCC=O)[C@H]1CC[C@H]2[C@@H]3C[C@H](O)[C@@H]4C[C@H](O)CC[C@]4(C)[C@H]3CC[C@]12C

>  <Structure_dimension>  (3686) 
2D

$$$$
MS4112
     RDKit          2D

 29 32  0  0  0  0  0  0  0  0999 V2000
   -5.2182   -2.1453    0.0000 C   0  0  0  0  0  0  0  0  0  0  0  0
   -4.0752   -1.1739    0.0000 C   0  0  0  0  0  0  0  0  0  0  0  0
   -4.3449    0.3016    0.0000 C   0  0  0  0  0  0  0  0  0  0  0  0
   -5.7577    0.8058    0.0000 C   0  0  0  0  0  0  0  0  0  0  0  0
   -6.0274    2.2814    0.0000 C   0  0  0  0  0  0  0  0  0  0  0  0
   -4.8843    3.2527    0.0000 O   0  0  0  0  0  0  0  0  0  0  0  0
   -7.4401    2.7856    0.0000 O   0  0  0  0  0  0  0  0  0  0  0  0
   -2.6625   -1.6782    0.0000 C   0  0  0  0  0  0  0  0  0  0  0  0
   -2.2400   -3.1174    0.0000 C   0  0  0  0  0  0  0  0  0  0  0  0
   -0.7407   -3.1604    0.0000 C   0  0  0  0  0  0  0  0  0  0  0  0
   -0.2364   -1.7477    0.0000 C   0  0  0  0  0  0  0  0  0  0  0  0
    1.1508   -1.1771    0.0000 C   0  0  0  0  0  0  0  0  0  0  0  0
    2.3386   -2.0932    0.0000 C   0  0  0  0  0  0  0  0  0  0  0  0
    2.1391   -3.5798    0.0000 O   0  0  0  0  0  0  0  0  0  0  0  0
    3.7258   -1.5226    0.0000 C   0  0  0  0  0  0  0  0  0  0  0  0
    4.9136   -2.4386    0.0000 O   0  0  0  0  0  0  0  0  0  0  0  0
    3.9253   -0.0359    0.0000 C   0  0  0  0  0  0  0  0  0  0  0  0
    5.3125    0.5347    0.0000 C   0  0  0  0  0  0  0  0  0  0  0  0
    5.5119    2.0214    0.0000 C   0  0  0  0  0  0  0  0  0  0  0  0
    6.8992    2.5920    0.0000 O   0  0  0  0  0  0  0  0  0  0  0  0
    4.3242    2.9375    0.0000 C   0  0  0  0  0  0  0  0  0  0  0  0
    2.9369    2.3669    0.0000 C   0  0  0  0  0  0  0  0  0  0  0  0
    2.7375    0.8802    0.0000 C   0  0  0  0  0  0  0  0  0  0  0  0
    1.5497    1.7963    0.0000 C   0  0  0  0  0  0  0  0  0  0  0  0
    1.3502    0.3096    0.0000 C   0  0  0  0  0  0  0  0  0  0  0  0
    0.1625    1.2257    0.0000 C   0  0  0  0  0  0  0  0  0  0  0  0
   -1.2248    0.6551    0.0000 C   0  0  0  0  0  0  0  0  0  0  0  0
   -1.4242   -0.8316    0.0000 C   0  0  0  0  0  0  0  0  0  0  0  0
   -2.7012   -0.0447    0.0000 C   0  0  0  0  0  0  0  0  0  0  0  0
  2  1  1  6
  2  3  1  0
  3  4  1  0
  4  5  1  0
  5  6  2  0
  5  7  1  0
  2  8  1  0
  8  9  1  6
  9 10  1  0
 11 10  1  6
 11 12  1  0
 12 13  1  6
 13 14  1  6
 13 15  1  0
 15 16  1  6
 15 17  1  0
 17 18  1  1
 18 19  1  0
 19 20  1  1
 19 21  1  0
 21 22  1  0
 22 23  1  0
 23 24  1  6
 23 25  1  0
 25 26  1  6
 26 27  1  0
 27 28  1  0
 28 29  1  6
 28  8  1  0
 28 11  1  0
 25 12  1  0
 23 17  1  0
M  END
>  <MS_ID>  (3687) 
MS4112

>  <SMILES>  (3687) 
C[C@H](CCC(=O)O)[C@H]1CC[C@H]2[C@H]3[C@@H](O)[C@@H](O)[C@@H]4C[C@H](O)CC[C@]4(C)[C@H]3CC[C@]12C

>  <Structure_dimension>  (3687) 
2D

$$$$
MS4113
     RDKit          2D

 29 32  0  0  0  0  0  0  0  0999 V2000
   -7.0722    3.5266    0.0000 C   0  0  0  0  0  0  0  0  0  0  0  0
   -6.7358    2.0648    0.0000 C   0  0  0  0  0  0  0  0  0  0  0  0
   -7.8335    1.0426    0.0000 C   0  0  0  0  0  0  0  0  0  0  0  0
   -5.3016    1.6253    0.0000 C   0  0  0  0  0  0  0  0  0  0  0  0
   -4.2039    2.6475    0.0000 O   0  0  0  0  0  0  0  0  0  0  0  0
   -4.9652    0.1635    0.0000 C   0  0  0  0  0  0  0  0  0  0  0  0
   -3.5310   -0.2760    0.0000 C   0  0  0  0  0  0  0  0  0  0  0  0
   -3.1946   -1.7378    0.0000 C   0  0  0  0  0  0  0  0  0  0  0  0
   -4.2923   -2.7601    0.0000 C   0  0  0  0  0  0  0  0  0  0  0  0
   -1.7604   -2.1774    0.0000 C   0  0  0  0  0  0  0  0  0  0  0  0
   -1.2731   -3.5960    0.0000 C   0  0  0  0  0  0  0  0  0  0  0  0
    0.2267   -3.5708    0.0000 C   0  0  0  0  0  0  0  0  0  0  0  0
    0.6663   -2.1367    0.0000 C   0  0  0  0  0  0  0  0  0  0  0  0
    2.0262   -1.5037    0.0000 C   0  0  0  0  0  0  0  0  0  0  0  0
    3.2543   -2.3649    0.0000 C   0  0  0  0  0  0  0  0  0  0  0  0
    4.6142   -1.7319    0.0000 C   0  0  0  0  0  0  0  0  0  0  0  0
    4.7460   -0.2377    0.0000 C   0  0  0  0  0  0  0  0  0  0  0  0
    6.1059    0.3953    0.0000 C   0  0  0  0  0  0  0  0  0  0  0  0
    6.2376    1.8895    0.0000 C   0  0  0  0  0  0  0  0  0  0  0  0
    7.5975    2.5225    0.0000 O   0  0  0  0  0  0  0  0  0  0  0  0
    5.0095    2.7507    0.0000 C   0  0  0  0  0  0  0  0  0  0  0  0
    3.6496    2.1177    0.0000 C   0  0  0  0  0  0  0  0  0  0  0  0
    3.5178    0.6235    0.0000 C   0  0  0  0  0  0  0  0  0  0  0  0
    2.2897    1.4847    0.0000 C   0  0  0  0  0  0  0  0  0  0  0  0
    2.1579   -0.0095    0.0000 C   0  0  0  0  0  0  0  0  0  0  0  0
    0.9298    0.8517    0.0000 C   0  0  0  0  0  0  0  0  0  0  0  0
   -0.4301    0.2187    0.0000 C   0  0  0  0  0  0  0  0  0  0  0  0
   -0.5619   -1.2755    0.0000 C   0  0  0  0  0  0  0  0  0  0  0  0
   -1.8733   -0.5473    0.0000 C   0  0  0  0  0  0  0  0  0  0  0  0
  1  2  1  0
  2  3  1  0
  2  4  1  0
  4  5  2  0
  4  6  1  0
  6  7  1  0
  7  8  1  0
  8  9  1  6
  8 10  1  0
 10 11  1  6
 11 12  1  0
 13 12  1  6
 13 14  1  0
 14 15  1  1
 15 16  1  0
 17 16  1  6
 17 18  1  0
 18 19  1  0
 19 20  1  6
 19 21  1  0
 21 22  1  0
 22 23  1  0
 23 24  1  6
 23 25  1  0
 25 26  1  6
 26 27  1  0
 27 28  1  0
 28 29  1  6
 28 10  1  0
 28 13  1  0
 25 14  1  0
 23 17  1  0
M  END
>  <MS_ID>  (3688) 
MS4113

>  <SMILES>  (3688) 
CC(C)C(=O)CC[C@@H](C)[C@H]1CC[C@H]2[C@@H]3CC[C@H]4C[C@@H](O)CC[C@]4(C)[C@H]3CC[C@]12C

>  <Structure_dimension>  (3688) 
2D

$$$$
MS4114
     RDKit          2D

 28 31  0  0  0  0  0  0  0  0999 V2000
   -4.2208   -2.8067    0.0000 C   0  0  0  0  0  0  0  0  0  0  0  0
   -3.1997   -1.7079    0.0000 C   0  0  0  0  0  0  0  0  0  0  0  0
   -3.6407   -0.2742    0.0000 C   0  0  0  0  0  0  0  0  0  0  0  0
   -5.1028    0.0607    0.0000 C   0  0  0  0  0  0  0  0  0  0  0  0
   -5.5438    1.4944    0.0000 C   0  0  0  0  0  0  0  0  0  0  0  0
   -4.5227    2.5932    0.0000 O   0  0  0  0  0  0  0  0  0  0  0  0
   -7.0059    1.8294    0.0000 C   0  0  0  0  0  0  0  0  0  0  0  0
   -7.4469    3.2631    0.0000 F   0  0  0  0  0  0  0  0  0  0  0  0
   -1.7376   -2.0429    0.0000 C   0  0  0  0  0  0  0  0  0  0  0  0
   -1.1491   -3.4226    0.0000 C   0  0  0  0  0  0  0  0  0  0  0  0
    0.3450   -3.2894    0.0000 C   0  0  0  0  0  0  0  0  0  0  0  0
    0.6799   -1.8272    0.0000 C   0  0  0  0  0  0  0  0  0  0  0  0
    1.9906   -1.0978    0.0000 C   0  0  0  0  0  0  0  0  0  0  0  0
    3.2777   -1.8682    0.0000 C   0  0  0  0  0  0  0  0  0  0  0  0
    3.2540   -3.3680    0.0000 O   0  0  0  0  0  0  0  0  0  0  0  0
    4.5883   -1.1387    0.0000 C   0  0  0  0  0  0  0  0  0  0  0  0
    4.6120    0.3611    0.0000 C   0  0  0  0  0  0  0  0  0  0  0  0
    5.9227    1.0905    0.0000 C   0  0  0  0  0  0  0  0  0  0  0  0
    5.9463    2.5904    0.0000 C   0  0  0  0  0  0  0  0  0  0  0  0
    4.6592    3.3607    0.0000 C   0  0  0  0  0  0  0  0  0  0  0  0
    3.3485    2.6313    0.0000 C   0  0  0  0  0  0  0  0  0  0  0  0
    3.3249    1.1315    0.0000 C   0  0  0  0  0  0  0  0  0  0  0  0
    2.0379    1.9018    0.0000 C   0  0  0  0  0  0  0  0  0  0  0  0
    2.0142    0.4020    0.0000 C   0  0  0  0  0  0  0  0  0  0  0  0
    0.7272    1.1724    0.0000 C   0  0  0  0  0  0  0  0  0  0  0  0
   -0.5835    0.4430    0.0000 C   0  0  0  0  0  0  0  0  0  0  0  0
   -0.6072   -1.0569    0.0000 C   0  0  0  0  0  0  0  0  0  0  0  0
   -1.9677   -0.4252    0.0000 C   0  0  0  0  0  0  0  0  0  0  0  0
  2  1  1  6
  2  3  1  0
  3  4  1  0
  4  5  1  0
  5  6  2  0
  5  7  1  0
  7  8  1  0
  2  9  1  0
  9 10  1  6
 10 11  1  0
 12 11  1  6
 12 13  1  0
 13 14  1  1
 14 15  1  1
 14 16  1  0
 17 16  1  1
 17 18  1  0
 18 19  1  0
 19 20  1  0
 20 21  1  0
 21 22  1  0
 22 23  1  6
 22 24  1  0
 24 25  1  6
 25 26  1  0
 26 27  1  0
 27 28  1  6
 27  9  1  0
 27 12  1  0
 24 13  1  0
 22 17  1  0
M  END
>  <MS_ID>  (3689) 
MS4114

>  <SMILES>  (3689) 
C[C@H](CCC(=O)CF)[C@H]1CC[C@H]2[C@@H]3[C@H](O)C[C@@H]4CCCC[C@]4(C)[C@H]3CC[C@]12C

>  <Structure_dimension>  (3689) 
2D

$$$$
MS4115
     RDKit          2D

 37 40  0  0  0  0  0  0  0  0999 V2000
   -1.3549   -4.5627    0.0000 C   0  0  0  0  0  0  0  0  0  0  0  0
   -0.6844   -3.2209    0.0000 C   0  0  0  0  0  0  0  0  0  0  0  0
   -1.5112   -1.9693    0.0000 C   0  0  0  0  0  0  0  0  0  0  0  0
   -3.0085   -2.0596    0.0000 C   0  0  0  0  0  0  0  0  0  0  0  0
   -3.8353   -0.8080    0.0000 C   0  0  0  0  0  0  0  0  0  0  0  0
   -3.1649    0.5338    0.0000 O   0  0  0  0  0  0  0  0  0  0  0  0
   -5.3326   -0.8983    0.0000 N   0  0  0  0  0  0  0  0  0  0  0  0
   -6.1594    0.3532    0.0000 C   0  0  0  0  0  0  0  0  0  0  0  0
   -7.6567    0.2630    0.0000 C   0  0  0  0  0  0  0  0  0  0  0  0
   -8.4835    1.5145    0.0000 C   0  0  0  0  0  0  0  0  0  0  0  0
   -9.9808    1.4242    0.0000 C   0  0  0  0  0  0  0  0  0  0  0  0
  -10.6513    0.0824    0.0000 O   0  0  0  0  0  0  0  0  0  0  0  0
  -10.8076    2.6758    0.0000 O   0  0  0  0  0  0  0  0  0  0  0  0
   -5.4890    1.6951    0.0000 C   0  0  0  0  0  0  0  0  0  0  0  0
   -3.9917    1.7853    0.0000 O   0  0  0  0  0  0  0  0  0  0  0  0
   -6.3158    2.9466    0.0000 O   0  0  0  0  0  0  0  0  0  0  0  0
    0.8128   -3.1306    0.0000 C   0  0  0  0  0  0  0  0  0  0  0  0
    1.7660   -4.2889    0.0000 C   0  0  0  0  0  0  0  0  0  0  0  0
    3.1621   -3.7403    0.0000 C   0  0  0  0  0  0  0  0  0  0  0  0
    3.0718   -2.2430    0.0000 C   0  0  0  0  0  0  0  0  0  0  0  0
    4.1241   -1.1741    0.0000 C   0  0  0  0  0  0  0  0  0  0  0  0
    5.5760   -1.5509    0.0000 C   0  0  0  0  0  0  0  0  0  0  0  0
    6.6283   -0.4819    0.0000 C   0  0  0  0  0  0  0  0  0  0  0  0
    8.0802   -0.8588    0.0000 O   0  0  0  0  0  0  0  0  0  0  0  0
    6.2287    0.9638    0.0000 C   0  0  0  0  0  0  0  0  0  0  0  0
    7.2810    2.0328    0.0000 C   0  0  0  0  0  0  0  0  0  0  0  0
    6.8814    3.4786    0.0000 C   0  0  0  0  0  0  0  0  0  0  0  0
    7.9337    4.5476    0.0000 O   0  0  0  0  0  0  0  0  0  0  0  0
    5.4295    3.8554    0.0000 C   0  0  0  0  0  0  0  0  0  0  0  0
    4.3772    2.7865    0.0000 C   0  0  0  0  0  0  0  0  0  0  0  0
    4.7768    1.3407    0.0000 C   0  0  0  0  0  0  0  0  0  0  0  0
    3.3249    1.7175    0.0000 C   0  0  0  0  0  0  0  0  0  0  0  0
    3.7245    0.2717    0.0000 C   0  0  0  0  0  0  0  0  0  0  0  0
    2.2726    0.6486    0.0000 C   0  0  0  0  0  0  0  0  0  0  0  0
    1.2203   -0.4204    0.0000 C   0  0  0  0  0  0  0  0  0  0  0  0
    1.6199   -1.8662    0.0000 C   0  0  0  0  0  0  0  0  0  0  0  0
    0.1366   -1.6432    0.0000 C   0  0  0  0  0  0  0  0  0  0  0  0
  2  1  1  6
  2  3  1  0
  3  4  1  0
  4  5  1  0
  5  6  2  0
  5  7  1  0
  7  8  1  0
  8  9  1  1
  9 10  1  0
 10 11  1  0
 11 12  2  0
 11 13  1  0
  8 14  1  0
 14 15  2  0
 14 16  1  0
  2 17  1  0
 17 18  1  6
 18 19  1  0
 20 19  1  6
 20 21  1  0
 21 22  1  1
 22 23  1  0
 23 24  1  1
 23 25  1  0
 25 26  1  1
 26 27  1  0
 27 28  1  1
 27 29  1  0
 29 30  1  0
 30 31  1  0
 31 32  1  6
 31 33  1  0
 33 34  1  6
 34 35  1  0
 35 36  1  0
 36 37  1  6
 36 17  1  0
 36 20  1  0
 33 21  1  0
 31 25  1  0
M  END
>  <MS_ID>  (3690) 
MS4115

>  <SMILES>  (3690) 
C[C@H](CCC(=O)N[C@@H](CCC(=O)O)C(=O)O)[C@H]1CC[C@H]2[C@@H]3C[C@H](O)[C@@H]4C[C@H](O)CC[C@]4(C)[C@H]3CC[C@]12C

>  <Structure_dimension>  (3690) 
2D

$$$$
MS4123
     RDKit          2D

 32 35  0  0  0  0  0  0  0  0999 V2000
   -3.1421   -3.6694    0.0000 C   0  0  0  0  0  0  0  0  0  0  0  0
   -2.2628   -2.4541    0.0000 C   0  0  0  0  0  0  0  0  0  0  0  0
   -2.8756   -1.0850    0.0000 C   0  0  0  0  0  0  0  0  0  0  0  0
   -4.3676   -0.9311    0.0000 C   0  0  0  0  0  0  0  0  0  0  0  0
   -4.9804    0.4380    0.0000 C   0  0  0  0  0  0  0  0  0  0  0  0
   -4.1011    1.6532    0.0000 O   0  0  0  0  0  0  0  0  0  0  0  0
   -6.4725    0.5919    0.0000 N   0  0  0  0  0  0  0  0  0  0  0  0
   -7.0853    1.9610    0.0000 C   0  0  0  0  0  0  0  0  0  0  0  0
   -8.5774    2.1149    0.0000 C   0  0  0  0  0  0  0  0  0  0  0  0
   -9.4567    0.8996    0.0000 O   0  0  0  0  0  0  0  0  0  0  0  0
   -9.1901    3.4840    0.0000 O   0  0  0  0  0  0  0  0  0  0  0  0
   -0.7707   -2.6080    0.0000 C   0  0  0  0  0  0  0  0  0  0  0  0
   -0.0182   -3.9056    0.0000 C   0  0  0  0  0  0  0  0  0  0  0  0
    1.4484   -3.5909    0.0000 C   0  0  0  0  0  0  0  0  0  0  0  0
    1.6023   -2.0988    0.0000 C   0  0  0  0  0  0  0  0  0  0  0  0
    2.8141   -1.2147    0.0000 C   0  0  0  0  0  0  0  0  0  0  0  0
    4.1856   -1.8222    0.0000 C   0  0  0  0  0  0  0  0  0  0  0  0
    4.3453   -3.3136    0.0000 O   0  0  0  0  0  0  0  0  0  0  0  0
    5.3974   -0.9381    0.0000 C   0  0  0  0  0  0  0  0  0  0  0  0
    5.2377    0.5533    0.0000 C   0  0  0  0  0  0  0  0  0  0  0  0
    6.4495    1.4374    0.0000 C   0  0  0  0  0  0  0  0  0  0  0  0
    6.2898    2.9289    0.0000 C   0  0  0  0  0  0  0  0  0  0  0  0
    7.5016    3.8129    0.0000 O   0  0  0  0  0  0  0  0  0  0  0  0
    4.9183    3.5363    0.0000 C   0  0  0  0  0  0  0  0  0  0  0  0
    3.7065    2.6522    0.0000 C   0  0  0  0  0  0  0  0  0  0  0  0
    3.8662    1.1608    0.0000 C   0  0  0  0  0  0  0  0  0  0  0  0
    2.4947    1.7682    0.0000 C   0  0  0  0  0  0  0  0  0  0  0  0
    2.6544    0.2767    0.0000 C   0  0  0  0  0  0  0  0  0  0  0  0
    1.2829    0.8842    0.0000 C   0  0  0  0  0  0  0  0  0  0  0  0
    0.0711    0.0001    0.0000 C   0  0  0  0  0  0  0  0  0  0  0  0
    0.2308   -1.4914    0.0000 C   0  0  0  0  0  0  0  0  0  0  0  0
   -1.1967   -1.0306    0.0000 C   0  0  0  0  0  0  0  0  0  0  0  0
  2  1  1  6
  2  3  1  0
  3  4  1  0
  4  5  1  0
  5  6  2  0
  5  7  1  0
  7  8  1  0
  8  9  1  0
  9 10  2  0
  9 11  1  0
  2 12  1  0
 12 13  1  6
 13 14  1  0
 15 14  1  6
 15 16  1  0
 16 17  1  1
 17 18  1  1
 17 19  1  0
 20 19  1  6
 20 21  1  0
 21 22  1  0
 22 23  1  6
 22 24  1  0
 24 25  1  0
 25 26  1  0
 26 27  1  6
 26 28  1  0
 28 29  1  6
 29 30  1  0
 30 31  1  0
 31 32  1  6
 31 12  1  0
 31 15  1  0
 28 16  1  0
 26 20  1  0
M  END
>  <MS_ID>  (3691) 
MS4123

>  <SMILES>  (3691) 
C[C@H](CCC(=O)NCC(=O)O)[C@H]1CC[C@H]2[C@@H]3[C@H](O)C[C@H]4C[C@@H](O)CC[C@]4(C)[C@H]3CC[C@]12C

>  <Structure_dimension>  (3691) 
2D

$$$$
MS4125
     RDKit          2D

 35 39  0  0  0  0  0  0  0  0999 V2000
   -2.4020   -4.6501    0.0000 C   0  0  0  0  0  0  0  0  0  0  0  0
   -1.7222   -3.3129    0.0000 C   0  0  0  0  0  0  0  0  0  0  0  0
   -2.5403   -2.0557    0.0000 C   0  0  0  0  0  0  0  0  0  0  0  0
   -4.0381   -2.1355    0.0000 C   0  0  0  0  0  0  0  0  0  0  0  0
   -4.8562   -0.8782    0.0000 C   0  0  0  0  0  0  0  0  0  0  0  0
   -6.3541   -0.9581    0.0000 O   0  0  0  0  0  0  0  0  0  0  0  0
   -4.1764    0.4589    0.0000 O   0  0  0  0  0  0  0  0  0  0  0  0
   -4.9945    1.7162    0.0000 N   0  0  0  0  0  0  0  0  0  0  0  0
   -6.4925    1.7934    0.0000 C   0  0  0  0  0  0  0  0  0  0  0  0
   -7.4354    0.6268    0.0000 O   0  0  0  0  0  0  0  0  0  0  0  0
   -6.8820    3.2419    0.0000 C   0  0  0  0  0  0  0  0  0  0  0  0
   -5.6247    4.0600    0.0000 C   0  0  0  0  0  0  0  0  0  0  0  0
   -4.4582    3.1170    0.0000 C   0  0  0  0  0  0  0  0  0  0  0  0
   -3.0096    3.5065    0.0000 O   0  0  0  0  0  0  0  0  0  0  0  0
   -0.2243   -3.2331    0.0000 C   0  0  0  0  0  0  0  0  0  0  0  0
    0.7207   -4.3980    0.0000 C   0  0  0  0  0  0  0  0  0  0  0  0
    2.1206   -3.8592    0.0000 C   0  0  0  0  0  0  0  0  0  0  0  0
    2.0408   -2.3613    0.0000 C   0  0  0  0  0  0  0  0  0  0  0  0
    3.1005   -1.2997    0.0000 C   0  0  0  0  0  0  0  0  0  0  0  0
    4.5497   -1.6867    0.0000 C   0  0  0  0  0  0  0  0  0  0  0  0
    4.9392   -3.1352    0.0000 O   0  0  0  0  0  0  0  0  0  0  0  0
    5.6094   -0.6251    0.0000 C   0  0  0  0  0  0  0  0  0  0  0  0
    5.2199    0.8235    0.0000 C   0  0  0  0  0  0  0  0  0  0  0  0
    6.2796    1.8851    0.0000 C   0  0  0  0  0  0  0  0  0  0  0  0
    5.8901    3.3336    0.0000 C   0  0  0  0  0  0  0  0  0  0  0  0
    6.9498    4.3952    0.0000 O   0  0  0  0  0  0  0  0  0  0  0  0
    4.4409    3.7206    0.0000 C   0  0  0  0  0  0  0  0  0  0  0  0
    3.3812    2.6590    0.0000 C   0  0  0  0  0  0  0  0  0  0  0  0
    3.7707    1.2104    0.0000 C   0  0  0  0  0  0  0  0  0  0  0  0
    2.3214    1.5974    0.0000 C   0  0  0  0  0  0  0  0  0  0  0  0
    2.7110    0.1488    0.0000 C   0  0  0  0  0  0  0  0  0  0  0  0
    1.2617    0.5358    0.0000 C   0  0  0  0  0  0  0  0  0  0  0  0
    0.2020   -0.5258    0.0000 C   0  0  0  0  0  0  0  0  0  0  0  0
    0.5915   -1.9744    0.0000 C   0  0  0  0  0  0  0  0  0  0  0  0
   -0.8902   -1.7410    0.0000 C   0  0  0  0  0  0  0  0  0  0  0  0
  2  1  1  6
  2  3  1  0
  3  4  1  0
  4  5  1  0
  5  6  2  0
  5  7  1  0
  7  8  1  0
  8  9  1  0
  9 10  2  0
  9 11  1  0
 11 12  1  0
 12 13  1  0
 13 14  2  0
  2 15  1  0
 15 16  1  6
 16 17  1  0
 18 17  1  6
 18 19  1  0
 19 20  1  1
 20 21  1  1
 20 22  1  0
 23 22  1  1
 23 24  1  0
 24 25  1  0
 25 26  1  1
 25 27  1  0
 27 28  1  0
 28 29  1  0
 29 30  1  6
 29 31  1  0
 31 32  1  6
 32 33  1  0
 33 34  1  0
 34 35  1  6
 13  8  1  0
 34 15  1  0
 34 18  1  0
 31 19  1  0
 29 23  1  0
M  END
>  <MS_ID>  (3692) 
MS4125

>  <SMILES>  (3692) 
C[C@H](CCC(=O)ON1C(=O)CCC1=O)[C@H]1CC[C@H]2[C@@H]3[C@H](O)C[C@@H]4C[C@H](O)CC[C@]4(C)[C@H]3CC[C@]12C

>  <Structure_dimension>  (3692) 
2D

$$$$
MS4126
     RDKit          2D

 35 38  0  0  0  0  0  0  0  0999 V2000
   -1.1848   -4.5684    0.0000 C   0  0  0  0  0  0  0  0  0  0  0  0
   -0.5815   -3.1951    0.0000 C   0  0  0  0  0  0  0  0  0  0  0  0
   -1.4692   -1.9860    0.0000 C   0  0  0  0  0  0  0  0  0  0  0  0
   -2.9602   -2.1502    0.0000 C   0  0  0  0  0  0  0  0  0  0  0  0
   -3.8478   -0.9410    0.0000 C   0  0  0  0  0  0  0  0  0  0  0  0
   -3.2445    0.4323    0.0000 O   0  0  0  0  0  0  0  0  0  0  0  0
   -5.3388   -1.1052    0.0000 O   0  0  0  0  0  0  0  0  0  0  0  0
   -6.2265    0.1039    0.0000 C   0  0  0  0  0  0  0  0  0  0  0  0
   -7.7175   -0.0603    0.0000 C   0  0  0  0  0  0  0  0  0  0  0  0
   -8.6052    1.1489    0.0000 C   0  0  0  0  0  0  0  0  0  0  0  0
  -10.0962    0.9847    0.0000 C   0  0  0  0  0  0  0  0  0  0  0  0
  -10.9839    2.1938    0.0000 C   0  0  0  0  0  0  0  0  0  0  0  0
  -10.3806    3.5672    0.0000 O   0  0  0  0  0  0  0  0  0  0  0  0
  -12.4748    2.0297    0.0000 O   0  0  0  0  0  0  0  0  0  0  0  0
    0.9095   -3.0309    0.0000 C   0  0  0  0  0  0  0  0  0  0  0  0
    1.9187   -4.1407    0.0000 C   0  0  0  0  0  0  0  0  0  0  0  0
    3.2860   -3.5238    0.0000 C   0  0  0  0  0  0  0  0  0  0  0  0
    3.1218   -2.0328    0.0000 C   0  0  0  0  0  0  0  0  0  0  0  0
    4.1199   -0.9131    0.0000 C   0  0  0  0  0  0  0  0  0  0  0  0
    5.5887   -1.2177    0.0000 C   0  0  0  0  0  0  0  0  0  0  0  0
    6.0593   -2.6420    0.0000 O   0  0  0  0  0  0  0  0  0  0  0  0
    6.5869   -0.0980    0.0000 C   0  0  0  0  0  0  0  0  0  0  0  0
    6.1163    1.3263    0.0000 C   0  0  0  0  0  0  0  0  0  0  0  0
    7.1144    2.4459    0.0000 C   0  0  0  0  0  0  0  0  0  0  0  0
    6.6438    3.8702    0.0000 C   0  0  0  0  0  0  0  0  0  0  0  0
    7.6420    4.9899    0.0000 O   0  0  0  0  0  0  0  0  0  0  0  0
    5.1751    4.1748    0.0000 C   0  0  0  0  0  0  0  0  0  0  0  0
    4.1769    3.0551    0.0000 C   0  0  0  0  0  0  0  0  0  0  0  0
    4.6475    1.6309    0.0000 C   0  0  0  0  0  0  0  0  0  0  0  0
    3.1788    1.9354    0.0000 C   0  0  0  0  0  0  0  0  0  0  0  0
    3.6494    0.5112    0.0000 C   0  0  0  0  0  0  0  0  0  0  0  0
    2.1806    0.8158    0.0000 C   0  0  0  0  0  0  0  0  0  0  0  0
    1.1825   -0.3039    0.0000 C   0  0  0  0  0  0  0  0  0  0  0  0
    1.6530   -1.7282    0.0000 C   0  0  0  0  0  0  0  0  0  0  0  0
    0.1605   -1.5788    0.0000 C   0  0  0  0  0  0  0  0  0  0  0  0
  2  1  1  6
  2  3  1  0
  3  4  1  0
  4  5  1  0
  5  6  2  0
  5  7  1  0
  7  8  1  0
  8  9  1  0
  9 10  1  0
 10 11  1  0
 11 12  1  0
 12 13  2  0
 12 14  1  0
  2 15  1  0
 15 16  1  6
 16 17  1  0
 18 17  1  6
 18 19  1  0
 19 20  1  1
 20 21  1  6
 20 22  1  0
 23 22  1  1
 23 24  1  0
 24 25  1  0
 25 26  1  1
 25 27  1  0
 27 28  1  0
 28 29  1  0
 29 30  1  6
 29 31  1  0
 31 32  1  6
 32 33  1  0
 33 34  1  0
 34 35  1  6
 34 15  1  0
 34 18  1  0
 31 19  1  0
 29 23  1  0
M  END
>  <MS_ID>  (3693) 
MS4126

>  <SMILES>  (3693) 
C[C@H](CCC(=O)OCCCCC(=O)O)[C@H]1CC[C@H]2[C@@H]3[C@@H](O)C[C@@H]4C[C@H](O)CC[C@]4(C)[C@H]3CC[C@]12C

>  <Structure_dimension>  (3693) 
2D

$$$$
MS4127
     RDKit          2D

 36 39  0  0  0  0  0  0  0  0999 V2000
   -2.1374   -4.3710    0.0000 C   0  0  0  0  0  0  0  0  0  0  0  0
   -1.4116   -3.0583    0.0000 C   0  0  0  0  0  0  0  0  0  0  0  0
   -2.1856   -1.7733    0.0000 C   0  0  0  0  0  0  0  0  0  0  0  0
   -3.6853   -1.8012    0.0000 C   0  0  0  0  0  0  0  0  0  0  0  0
   -4.4593   -0.5163    0.0000 C   0  0  0  0  0  0  0  0  0  0  0  0
   -3.7335    0.7965    0.0000 O   0  0  0  0  0  0  0  0  0  0  0  0
   -5.9590   -0.5441    0.0000 N   0  0  0  0  0  0  0  0  0  0  0  0
   -6.7330    0.7408    0.0000 C   0  0  0  0  0  0  0  0  0  0  0  0
   -8.2327    0.7130    0.0000 C   0  0  0  0  0  0  0  0  0  0  0  0
   -9.0067    1.9979    0.0000 S   0  0  0  0  0  0  0  0  0  0  0  0
  -10.2916    1.2240    0.0000 O   0  0  0  0  0  0  0  0  0  0  0  0
   -7.7218    2.7719    0.0000 O   0  0  0  0  0  0  0  0  0  0  0  0
   -9.7806    3.2828    0.0000 O   0  0  0  0  0  0  0  0  0  0  0  0
    0.0881   -3.0304    0.0000 C   0  0  0  0  0  0  0  0  0  0  0  0
    0.9922   -4.2274    0.0000 C   0  0  0  0  0  0  0  0  0  0  0  0
    2.4099   -3.7375    0.0000 C   0  0  0  0  0  0  0  0  0  0  0  0
    2.3821   -2.2378    0.0000 C   0  0  0  0  0  0  0  0  0  0  0  0
    3.4780   -1.2136    0.0000 C   0  0  0  0  0  0  0  0  0  0  0  0
    4.9129   -1.6506    0.0000 C   0  0  0  0  0  0  0  0  0  0  0  0
    5.2520   -3.1117    0.0000 O   0  0  0  0  0  0  0  0  0  0  0  0
    6.0088   -0.6264    0.0000 C   0  0  0  0  0  0  0  0  0  0  0  0
    5.6698    0.8348    0.0000 C   0  0  0  0  0  0  0  0  0  0  0  0
    6.7657    1.8590    0.0000 C   0  0  0  0  0  0  0  0  0  0  0  0
    6.4267    3.3202    0.0000 C   0  0  0  0  0  0  0  0  0  0  0  0
    7.5226    4.3444    0.0000 O   0  0  0  0  0  0  0  0  0  0  0  0
    4.9918    3.7572    0.0000 C   0  0  0  0  0  0  0  0  0  0  0  0
    3.8959    2.7330    0.0000 C   0  0  0  0  0  0  0  0  0  0  0  0
    2.4609    3.1700    0.0000 O   0  0  0  0  0  0  0  0  0  0  0  0
    4.2349    1.2718    0.0000 C   0  0  0  0  0  0  0  0  0  0  0  0
    2.7999    1.7088    0.0000 C   0  0  0  0  0  0  0  0  0  0  0  0
    3.1390    0.2476    0.0000 C   0  0  0  0  0  0  0  0  0  0  0  0
    1.7040    0.6846    0.0000 C   0  0  0  0  0  0  0  0  0  0  0  0
    0.6081   -0.3396    0.0000 C   0  0  0  0  0  0  0  0  0  0  0  0
   -0.8268    0.0974    0.0000 O   0  0  0  0  0  0  0  0  0  0  0  0
    0.9471   -1.8008    0.0000 C   0  0  0  0  0  0  0  0  0  0  0  0
   -0.5256   -1.5162    0.0000 C   0  0  0  0  0  0  0  0  0  0  0  0
  2  1  1  6
  2  3  1  0
  3  4  1  0
  4  5  1  0
  5  6  2  0
  5  7  1  0
  7  8  1  0
  8  9  1  0
  9 10  1  0
 10 11  2  0
 10 12  2  0
 10 13  1  0
  2 14  1  0
 14 15  1  6
 15 16  1  0
 17 16  1  6
 17 18  1  0
 18 19  1  1
 19 20  1  1
 19 21  1  0
 22 21  1  1
 22 23  1  0
 23 24  1  0
 24 25  1  1
 24 26  1  0
 26 27  1  0
 27 28  1  6
 27 29  1  0
 29 30  1  6
 29 31  1  0
 31 32  1  6
 32 33  1  0
 33 34  1  1
 33 35  1  0
 35 36  1  6
 35 14  1  0
 35 17  1  0
 31 18  1  0
 29 22  1  0
M  END
>  <MS_ID>  (3694) 
MS4127

>  <SMILES>  (3694) 
C[C@H](CCC(=O)NCCS(=O)(=O)O)[C@H]1CC[C@H]2[C@@H]3[C@H](O)C[C@@H]4C[C@H](O)C[C@@H](O)[C@]4(C)[C@H]3C[C@H](O)[C@]12C

>  <Structure_dimension>  (3694) 
2D

$$$$
MS4129
     RDKit          2D

 28 31  0  0  0  0  0  0  0  0999 V2000
   -4.6340   -2.3524    0.0000 C   0  0  0  0  0  0  0  0  0  0  0  0
   -3.5242   -1.3434    0.0000 C   0  0  0  0  0  0  0  0  0  0  0  0
   -3.8431    0.1223    0.0000 C   0  0  0  0  0  0  0  0  0  0  0  0
   -5.2720    0.5789    0.0000 C   0  0  0  0  0  0  0  0  0  0  0  0
   -5.5909    2.0446    0.0000 C   0  0  0  0  0  0  0  0  0  0  0  0
   -4.4811    3.0537    0.0000 O   0  0  0  0  0  0  0  0  0  0  0  0
   -7.0197    2.5012    0.0000 O   0  0  0  0  0  0  0  0  0  0  0  0
   -2.0954   -1.8000    0.0000 C   0  0  0  0  0  0  0  0  0  0  0  0
   -1.6249   -3.2243    0.0000 C   0  0  0  0  0  0  0  0  0  0  0  0
   -0.1249   -3.2170    0.0000 C   0  0  0  0  0  0  0  0  0  0  0  0
    0.3317   -1.7882    0.0000 C   0  0  0  0  0  0  0  0  0  0  0  0
    1.6990   -1.1715    0.0000 C   0  0  0  0  0  0  0  0  0  0  0  0
    2.9168   -2.0473    0.0000 C   0  0  0  0  0  0  0  0  0  0  0  0
    2.7672   -3.5398    0.0000 O   0  0  0  0  0  0  0  0  0  0  0  0
    4.2841   -1.4305    0.0000 C   0  0  0  0  0  0  0  0  0  0  0  0
    4.4337    0.0620    0.0000 C   0  0  0  0  0  0  0  0  0  0  0  0
    5.8011    0.6787    0.0000 C   0  0  0  0  0  0  0  0  0  0  0  0
    5.9506    2.1713    0.0000 C   0  0  0  0  0  0  0  0  0  0  0  0
    4.7328    3.0471    0.0000 C   0  0  0  0  0  0  0  0  0  0  0  0
    3.3655    2.4303    0.0000 C   0  0  0  0  0  0  0  0  0  0  0  0
    3.2159    0.9378    0.0000 C   0  0  0  0  0  0  0  0  0  0  0  0
    1.9981    1.8136    0.0000 C   0  0  0  0  0  0  0  0  0  0  0  0
    1.8486    0.3211    0.0000 C   0  0  0  0  0  0  0  0  0  0  0  0
    0.6308    1.1968    0.0000 C   0  0  0  0  0  0  0  0  0  0  0  0
   -0.7366    0.5801    0.0000 C   0  0  0  0  0  0  0  0  0  0  0  0
   -1.9543    1.4559    0.0000 O   0  0  0  0  0  0  0  0  0  0  0  0
   -0.8861   -0.9124    0.0000 C   0  0  0  0  0  0  0  0  0  0  0  0
   -2.1888   -0.1687    0.0000 C   0  0  0  0  0  0  0  0  0  0  0  0
  2  1  1  6
  2  3  1  0
  3  4  1  0
  4  5  1  0
  5  6  2  0
  5  7  1  0
  2  8  1  0
  8  9  1  6
  9 10  1  0
 11 10  1  6
 11 12  1  0
 12 13  1  1
 13 14  1  1
 13 15  1  0
 16 15  1  6
 16 17  1  0
 17 18  1  0
 18 19  1  0
 19 20  1  0
 20 21  1  0
 21 22  1  6
 21 23  1  0
 23 24  1  6
 24 25  1  0
 25 26  1  6
 25 27  1  0
 27 28  1  6
 27  8  1  0
 27 11  1  0
 23 12  1  0
 21 16  1  0
M  END
>  <MS_ID>  (3695) 
MS4129

>  <SMILES>  (3695) 
C[C@H](CCC(=O)O)[C@H]1CC[C@H]2[C@@H]3[C@H](O)C[C@H]4CCCC[C@]4(C)[C@H]3C[C@@H](O)[C@]12C

>  <Structure_dimension>  (3695) 
2D

$$$$
MS4130
     RDKit          2D

 29 32  0  0  0  0  0  0  0  0999 V2000
   -5.3362   -2.1990    0.0000 C   0  0  0  0  0  0  0  0  0  0  0  0
   -4.1864   -1.2356    0.0000 C   0  0  0  0  0  0  0  0  0  0  0  0
   -4.4459    0.2418    0.0000 C   0  0  0  0  0  0  0  0  0  0  0  0
   -5.8551    0.7558    0.0000 C   0  0  0  0  0  0  0  0  0  0  0  0
   -6.1146    2.2332    0.0000 C   0  0  0  0  0  0  0  0  0  0  0  0
   -4.9649    3.1966    0.0000 O   0  0  0  0  0  0  0  0  0  0  0  0
   -7.5238    2.7472    0.0000 O   0  0  0  0  0  0  0  0  0  0  0  0
   -2.7772   -1.7496    0.0000 C   0  0  0  0  0  0  0  0  0  0  0  0
   -2.3648   -3.1917    0.0000 C   0  0  0  0  0  0  0  0  0  0  0  0
   -0.8657   -3.2451    0.0000 C   0  0  0  0  0  0  0  0  0  0  0  0
   -0.3517   -1.8359    0.0000 C   0  0  0  0  0  0  0  0  0  0  0  0
    1.0394   -1.2749    0.0000 C   0  0  0  0  0  0  0  0  0  0  0  0
    2.2208   -2.1992    0.0000 C   0  0  0  0  0  0  0  0  0  0  0  0
    3.6120   -1.6382    0.0000 C   0  0  0  0  0  0  0  0  0  0  0  0
    4.7934   -2.5625    0.0000 O   0  0  0  0  0  0  0  0  0  0  0  0
    3.8217   -0.1530    0.0000 C   0  0  0  0  0  0  0  0  0  0  0  0
    5.0031   -1.0773    0.0000 O   0  0  0  0  0  0  0  0  0  0  0  0
    5.2129    0.4080    0.0000 C   0  0  0  0  0  0  0  0  0  0  0  0
    5.4227    1.8932    0.0000 C   0  0  0  0  0  0  0  0  0  0  0  0
    6.8138    2.4542    0.0000 O   0  0  0  0  0  0  0  0  0  0  0  0
    4.2413    2.8175    0.0000 C   0  0  0  0  0  0  0  0  0  0  0  0
    2.8501    2.2566    0.0000 C   0  0  0  0  0  0  0  0  0  0  0  0
    2.6403    0.7713    0.0000 C   0  0  0  0  0  0  0  0  0  0  0  0
    1.4589    1.6956    0.0000 C   0  0  0  0  0  0  0  0  0  0  0  0
    1.2492    0.2103    0.0000 C   0  0  0  0  0  0  0  0  0  0  0  0
    0.0678    1.1346    0.0000 C   0  0  0  0  0  0  0  0  0  0  0  0
   -1.3234    0.5736    0.0000 C   0  0  0  0  0  0  0  0  0  0  0  0
   -1.5331   -0.9116    0.0000 C   0  0  0  0  0  0  0  0  0  0  0  0
   -2.8047   -0.1159    0.0000 C   0  0  0  0  0  0  0  0  0  0  0  0
  2  1  1  6
  2  3  1  0
  3  4  1  0
  4  5  1  0
  5  6  2  0
  5  7  1  0
  2  8  1  0
  8  9  1  6
  9 10  1  0
 11 10  1  6
 11 12  1  0
 12 13  1  1
 13 14  1  0
 14 15  1  6
 14 16  1  0
 16 17  1  1
 16 18  1  0
 18 19  1  0
 19 20  1  6
 19 21  1  0
 21 22  1  0
 22 23  1  0
 23 24  1  6
 23 25  1  0
 25 26  1  6
 26 27  1  0
 27 28  1  0
 28 29  1  6
 28  8  1  0
 28 11  1  0
 25 12  1  0
 23 16  1  0
M  END
>  <MS_ID>  (3696) 
MS4130

>  <SMILES>  (3696) 
C[C@H](CCC(=O)O)[C@H]1CC[C@H]2[C@@H]3C[C@@H](O)[C@@]4(O)C[C@@H](O)CC[C@]4(C)[C@H]3CC[C@]12C

>  <Structure_dimension>  (3696) 
2D

$$$$
MS4131
     RDKit          2D

 38 41  0  0  0  0  0  0  0  0999 V2000
   -1.4317   -4.5102    0.0000 C   0  0  0  0  0  0  0  0  0  0  0  0
   -0.7853   -3.1566    0.0000 C   0  0  0  0  0  0  0  0  0  0  0  0
   -1.6344   -1.9200    0.0000 C   0  0  0  0  0  0  0  0  0  0  0  0
   -3.1298   -2.0371    0.0000 C   0  0  0  0  0  0  0  0  0  0  0  0
   -3.9789   -0.8005    0.0000 C   0  0  0  0  0  0  0  0  0  0  0  0
   -3.3326    0.5531    0.0000 O   0  0  0  0  0  0  0  0  0  0  0  0
   -5.4743   -0.9176    0.0000 N   0  0  0  0  0  0  0  0  0  0  0  0
   -6.3234    0.3190    0.0000 C   0  0  0  0  0  0  0  0  0  0  0  0
   -7.8188    0.2020    0.0000 C   0  0  0  0  0  0  0  0  0  0  0  0
   -8.6679    1.4385    0.0000 C   0  0  0  0  0  0  0  0  0  0  0  0
  -10.1634    1.3215    0.0000 C   0  0  0  0  0  0  0  0  0  0  0  0
  -10.8097   -0.0321    0.0000 O   0  0  0  0  0  0  0  0  0  0  0  0
  -11.0124    2.5580    0.0000 O   0  0  0  0  0  0  0  0  0  0  0  0
   -5.6771    1.6726    0.0000 C   0  0  0  0  0  0  0  0  0  0  0  0
   -4.1816    1.7897    0.0000 O   0  0  0  0  0  0  0  0  0  0  0  0
   -6.5262    2.9092    0.0000 O   0  0  0  0  0  0  0  0  0  0  0  0
    0.7101   -3.0395    0.0000 C   0  0  0  0  0  0  0  0  0  0  0  0
    1.6838   -4.1805    0.0000 C   0  0  0  0  0  0  0  0  0  0  0  0
    3.0698   -3.6071    0.0000 C   0  0  0  0  0  0  0  0  0  0  0  0
    2.9528   -2.1117    0.0000 C   0  0  0  0  0  0  0  0  0  0  0  0
    3.9858   -1.0241    0.0000 C   0  0  0  0  0  0  0  0  0  0  0  0
    5.4442   -1.3749    0.0000 C   0  0  0  0  0  0  0  0  0  0  0  0
    5.8696   -2.8133    0.0000 O   0  0  0  0  0  0  0  0  0  0  0  0
    6.4772   -0.2872    0.0000 C   0  0  0  0  0  0  0  0  0  0  0  0
    7.9356   -0.6380    0.0000 O   0  0  0  0  0  0  0  0  0  0  0  0
    6.0518    1.1512    0.0000 C   0  0  0  0  0  0  0  0  0  0  0  0
    7.0848    2.2388    0.0000 C   0  0  0  0  0  0  0  0  0  0  0  0
    6.6594    3.6772    0.0000 C   0  0  0  0  0  0  0  0  0  0  0  0
    7.6924    4.7648    0.0000 O   0  0  0  0  0  0  0  0  0  0  0  0
    5.2010    4.0280    0.0000 C   0  0  0  0  0  0  0  0  0  0  0  0
    4.1680    2.9404    0.0000 C   0  0  0  0  0  0  0  0  0  0  0  0
    4.5934    1.5020    0.0000 C   0  0  0  0  0  0  0  0  0  0  0  0
    3.1350    1.8528    0.0000 C   0  0  0  0  0  0  0  0  0  0  0  0
    3.5604    0.4144    0.0000 C   0  0  0  0  0  0  0  0  0  0  0  0
    2.1020    0.7651    0.0000 C   0  0  0  0  0  0  0  0  0  0  0  0
    1.0690   -0.3225    0.0000 C   0  0  0  0  0  0  0  0  0  0  0  0
    1.4944   -1.7609    0.0000 C   0  0  0  0  0  0  0  0  0  0  0  0
    0.0073   -1.5645    0.0000 C   0  0  0  0  0  0  0  0  0  0  0  0
  2  1  1  6
  2  3  1  0
  3  4  1  0
  4  5  1  0
  5  6  2  0
  5  7  1  0
  7  8  1  0
  8  9  1  1
  9 10  1  0
 10 11  1  0
 11 12  2  0
 11 13  1  0
  8 14  1  0
 14 15  2  0
 14 16  1  0
  2 17  1  0
 17 18  1  6
 18 19  1  0
 20 19  1  6
 20 21  1  0
 21 22  1  1
 22 23  1  6
 22 24  1  0
 24 25  1  6
 24 26  1  0
 26 27  1  1
 27 28  1  0
 28 29  1  1
 28 30  1  0
 30 31  1  0
 31 32  1  0
 32 33  1  6
 32 34  1  0
 34 35  1  6
 35 36  1  0
 36 37  1  0
 37 38  1  6
 37 17  1  0
 37 20  1  0
 34 21  1  0
 32 26  1  0
M  END
>  <MS_ID>  (3697) 
MS4131

>  <SMILES>  (3697) 
C[C@H](CCC(=O)N[C@@H](CCC(=O)O)C(=O)O)[C@H]1CC[C@H]2[C@@H]3[C@@H](O)[C@@H](O)[C@@H]4C[C@H](O)CC[C@]4(C)[C@H]3CC[C@]12C

>  <Structure_dimension>  (3697) 
2D

$$$$
MS4132
     RDKit          2D

 28 31  0  0  0  0  0  0  0  0999 V2000
   -5.1275   -2.0302    0.0000 C   0  0  0  0  0  0  0  0  0  0  0  0
   -3.9468   -1.1050    0.0000 C   0  0  0  0  0  0  0  0  0  0  0  0
   -4.1576    0.3801    0.0000 C   0  0  0  0  0  0  0  0  0  0  0  0
   -5.5492    0.9401    0.0000 C   0  0  0  0  0  0  0  0  0  0  0  0
   -5.7600    2.4252    0.0000 C   0  0  0  0  0  0  0  0  0  0  0  0
   -4.5793    3.3503    0.0000 O   0  0  0  0  0  0  0  0  0  0  0  0
   -7.1516    2.9851    0.0000 O   0  0  0  0  0  0  0  0  0  0  0  0
   -2.5552   -1.6650    0.0000 C   0  0  0  0  0  0  0  0  0  0  0  0
   -2.1903   -3.1199    0.0000 C   0  0  0  0  0  0  0  0  0  0  0  0
   -0.6938   -3.2225    0.0000 C   0  0  0  0  0  0  0  0  0  0  0  0
   -0.1339   -1.8309    0.0000 C   0  0  0  0  0  0  0  0  0  0  0  0
    1.2750   -1.3159    0.0000 C   0  0  0  0  0  0  0  0  0  0  0  0
    2.4254   -2.2785    0.0000 C   0  0  0  0  0  0  0  0  0  0  0  0
    2.1670   -3.7560    0.0000 O   0  0  0  0  0  0  0  0  0  0  0  0
    3.8342   -1.7635    0.0000 C   0  0  0  0  0  0  0  0  0  0  0  0
    4.0926   -0.2859    0.0000 C   0  0  0  0  0  0  0  0  0  0  0  0
    5.5014    0.2291    0.0000 C   0  0  0  0  0  0  0  0  0  0  0  0
    5.7598    1.7067    0.0000 C   0  0  0  0  0  0  0  0  0  0  0  0
    7.1687    2.2217    0.0000 O   0  0  0  0  0  0  0  0  0  0  0  0
    4.6094    2.6692    0.0000 C   0  0  0  0  0  0  0  0  0  0  0  0
    3.2006    2.1542    0.0000 C   0  0  0  0  0  0  0  0  0  0  0  0
    2.9422    0.6767    0.0000 C   0  0  0  0  0  0  0  0  0  0  0  0
    1.7918    1.6392    0.0000 C   0  0  0  0  0  0  0  0  0  0  0  0
    1.5334    0.1617    0.0000 C   0  0  0  0  0  0  0  0  0  0  0  0
    0.3830    1.1242    0.0000 C   0  0  0  0  0  0  0  0  0  0  0  0
   -1.0259    0.6093    0.0000 C   0  0  0  0  0  0  0  0  0  0  0  0
   -1.2843   -0.8683    0.0000 C   0  0  0  0  0  0  0  0  0  0  0  0
   -2.5290   -0.0313    0.0000 C   0  0  0  0  0  0  0  0  0  0  0  0
  2  1  1  1
  2  3  1  0
  3  4  1  0
  4  5  1  0
  5  6  2  0
  5  7  1  0
  2  8  1  0
  8  9  1  6
  9 10  1  0
 11 10  1  6
 11 12  1  0
 12 13  1  1
 13 14  1  1
 13 15  1  0
 16 15  1  1
 16 17  1  0
 17 18  1  0
 18 19  1  6
 18 20  1  0
 20 21  1  0
 21 22  1  0
 22 23  1  6
 22 24  1  0
 24 25  1  6
 25 26  1  0
 26 27  1  0
 27 28  1  6
 27  8  1  0
 27 11  1  0
 24 12  1  0
 22 16  1  0
M  END
>  <MS_ID>  (3698) 
MS4132

>  <SMILES>  (3698) 
C[C@@H](CCC(=O)O)[C@H]1CC[C@H]2[C@@H]3[C@H](O)C[C@@H]4C[C@@H](O)CC[C@]4(C)[C@H]3CC[C@]12C

>  <Structure_dimension>  (3698) 
2D

$$$$
MS4134
     RDKit          2D

 29 32  0  0  0  0  0  0  0  0999 V2000
   -4.2923   -2.7601    0.0000 C   0  0  0  0  0  0  0  0  0  0  0  0
   -3.1946   -1.7378    0.0000 C   0  0  0  0  0  0  0  0  0  0  0  0
   -3.5310   -0.2760    0.0000 C   0  0  0  0  0  0  0  0  0  0  0  0
   -4.9652    0.1635    0.0000 C   0  0  0  0  0  0  0  0  0  0  0  0
   -5.3016    1.6253    0.0000 C   0  0  0  0  0  0  0  0  0  0  0  0
   -4.2039    2.6475    0.0000 O   0  0  0  0  0  0  0  0  0  0  0  0
   -6.7358    2.0648    0.0000 N   0  0  0  0  0  0  0  0  0  0  0  0
   -7.0722    3.5266    0.0000 C   0  0  0  0  0  0  0  0  0  0  0  0
   -7.8335    1.0426    0.0000 C   0  0  0  0  0  0  0  0  0  0  0  0
   -1.7604   -2.1774    0.0000 C   0  0  0  0  0  0  0  0  0  0  0  0
   -1.2731   -3.5960    0.0000 C   0  0  0  0  0  0  0  0  0  0  0  0
    0.2267   -3.5708    0.0000 C   0  0  0  0  0  0  0  0  0  0  0  0
    0.6663   -2.1367    0.0000 C   0  0  0  0  0  0  0  0  0  0  0  0
    2.0262   -1.5037    0.0000 C   0  0  0  0  0  0  0  0  0  0  0  0
    3.2543   -2.3649    0.0000 C   0  0  0  0  0  0  0  0  0  0  0  0
    4.6142   -1.7319    0.0000 C   0  0  0  0  0  0  0  0  0  0  0  0
    4.7460   -0.2377    0.0000 C   0  0  0  0  0  0  0  0  0  0  0  0
    6.1059    0.3953    0.0000 C   0  0  0  0  0  0  0  0  0  0  0  0
    6.2376    1.8895    0.0000 C   0  0  0  0  0  0  0  0  0  0  0  0
    7.5975    2.5225    0.0000 O   0  0  0  0  0  0  0  0  0  0  0  0
    5.0095    2.7507    0.0000 C   0  0  0  0  0  0  0  0  0  0  0  0
    3.6496    2.1177    0.0000 C   0  0  0  0  0  0  0  0  0  0  0  0
    3.5178    0.6235    0.0000 C   0  0  0  0  0  0  0  0  0  0  0  0
    2.2897    1.4847    0.0000 C   0  0  0  0  0  0  0  0  0  0  0  0
    2.1579   -0.0095    0.0000 C   0  0  0  0  0  0  0  0  0  0  0  0
    0.9298    0.8517    0.0000 C   0  0  0  0  0  0  0  0  0  0  0  0
   -0.4301    0.2187    0.0000 C   0  0  0  0  0  0  0  0  0  0  0  0
   -0.5619   -1.2755    0.0000 C   0  0  0  0  0  0  0  0  0  0  0  0
   -1.8733   -0.5473    0.0000 C   0  0  0  0  0  0  0  0  0  0  0  0
  2  1  1  6
  2  3  1  0
  3  4  1  0
  4  5  1  0
  5  6  2  0
  5  7  1  0
  7  8  1  0
  7  9  1  0
  2 10  1  0
 10 11  1  6
 11 12  1  0
 13 12  1  6
 13 14  1  0
 14 15  1  1
 15 16  1  0
 17 16  1  6
 17 18  1  0
 18 19  1  0
 19 20  1  6
 19 21  1  0
 21 22  1  0
 22 23  1  0
 23 24  1  6
 23 25  1  0
 25 26  1  6
 26 27  1  0
 27 28  1  0
 28 29  1  6
 28 10  1  0
 28 13  1  0
 25 14  1  0
 23 17  1  0
M  END
>  <MS_ID>  (3699) 
MS4134

>  <SMILES>  (3699) 
C[C@H](CCC(=O)N(C)C)[C@H]1CC[C@H]2[C@@H]3CC[C@H]4C[C@@H](O)CC[C@]4(C)[C@H]3CC[C@]12C

>  <Structure_dimension>  (3699) 
2D

$$$$
MS4135
     RDKit          2D

 34 37  0  0  0  0  0  0  0  0999 V2000
   -2.0431   -4.2971    0.0000 C   0  0  0  0  0  0  0  0  0  0  0  0
   -1.3315   -2.9767    0.0000 C   0  0  0  0  0  0  0  0  0  0  0  0
   -2.1193   -1.7002    0.0000 C   0  0  0  0  0  0  0  0  0  0  0  0
   -3.6187   -1.7442    0.0000 C   0  0  0  0  0  0  0  0  0  0  0  0
   -4.4064   -0.4677    0.0000 C   0  0  0  0  0  0  0  0  0  0  0  0
   -3.6948    0.8528    0.0000 O   0  0  0  0  0  0  0  0  0  0  0  0
   -5.9058   -0.5117    0.0000 N   0  0  0  0  0  0  0  0  0  0  0  0
   -6.6936    0.7648    0.0000 C   0  0  0  0  0  0  0  0  0  0  0  0
   -8.1929    0.7208    0.0000 C   0  0  0  0  0  0  0  0  0  0  0  0
   -8.9807    1.9973    0.0000 S   0  0  0  0  0  0  0  0  0  0  0  0
  -10.2572    1.2096    0.0000 O   0  0  0  0  0  0  0  0  0  0  0  0
   -7.7042    2.7851    0.0000 O   0  0  0  0  0  0  0  0  0  0  0  0
   -9.7684    3.2738    0.0000 O   0  0  0  0  0  0  0  0  0  0  0  0
    0.1678   -2.9327    0.0000 C   0  0  0  0  0  0  0  0  0  0  0  0
    1.0847   -4.1198    0.0000 C   0  0  0  0  0  0  0  0  0  0  0  0
    2.4971   -3.6147    0.0000 C   0  0  0  0  0  0  0  0  0  0  0  0
    2.4531   -2.1153    0.0000 C   0  0  0  0  0  0  0  0  0  0  0  0
    3.5379   -1.0794    0.0000 C   0  0  0  0  0  0  0  0  0  0  0  0
    4.9775   -1.5009    0.0000 C   0  0  0  0  0  0  0  0  0  0  0  0
    5.3322   -2.9583    0.0000 O   0  0  0  0  0  0  0  0  0  0  0  0
    6.0623   -0.4649    0.0000 C   0  0  0  0  0  0  0  0  0  0  0  0
    5.7075    0.9925    0.0000 C   0  0  0  0  0  0  0  0  0  0  0  0
    6.7923    2.0285    0.0000 C   0  0  0  0  0  0  0  0  0  0  0  0
    6.4376    3.4859    0.0000 C   0  0  0  0  0  0  0  0  0  0  0  0
    7.5224    4.5219    0.0000 O   0  0  0  0  0  0  0  0  0  0  0  0
    4.9980    3.9074    0.0000 C   0  0  0  0  0  0  0  0  0  0  0  0
    3.9132    2.8715    0.0000 C   0  0  0  0  0  0  0  0  0  0  0  0
    4.2680    1.4140    0.0000 C   0  0  0  0  0  0  0  0  0  0  0  0
    2.8284    1.8355    0.0000 C   0  0  0  0  0  0  0  0  0  0  0  0
    3.1831    0.3781    0.0000 C   0  0  0  0  0  0  0  0  0  0  0  0
    1.7436    0.7996    0.0000 C   0  0  0  0  0  0  0  0  0  0  0  0
    0.6588   -0.2364    0.0000 C   0  0  0  0  0  0  0  0  0  0  0  0
    1.0135   -1.6938    0.0000 C   0  0  0  0  0  0  0  0  0  0  0  0
   -0.4622   -1.4251    0.0000 C   0  0  0  0  0  0  0  0  0  0  0  0
  2  1  1  6
  2  3  1  0
  3  4  1  0
  4  5  1  0
  5  6  2  0
  5  7  1  0
  7  8  1  0
  8  9  1  0
  9 10  1  0
 10 11  2  0
 10 12  2  0
 10 13  1  0
  2 14  1  0
 14 15  1  6
 15 16  1  0
 17 16  1  6
 17 18  1  0
 18 19  1  1
 19 20  1  6
 19 21  1  0
 22 21  1  6
 22 23  1  0
 23 24  1  0
 24 25  1  6
 24 26  1  0
 26 27  1  0
 27 28  1  0
 28 29  1  6
 28 30  1  0
 30 31  1  6
 31 32  1  0
 32 33  1  0
 33 34  1  6
 33 14  1  0
 33 17  1  0
 30 18  1  0
 28 22  1  0
M  END
>  <MS_ID>  (3700) 
MS4135

>  <SMILES>  (3700) 
C[C@H](CCC(=O)NCCS(=O)(=O)O)[C@H]1CC[C@H]2[C@@H]3[C@@H](O)C[C@H]4C[C@@H](O)CC[C@]4(C)[C@H]3CC[C@]12C

>  <Structure_dimension>  (3700) 
2D

$$$$
MS4136
     RDKit          2D

 39 43  0  0  0  0  0  0  0  0999 V2000
   -7.9398   -2.0773    0.0000 C   0  0  0  0  0  0  0  0  0  0  0  0
   -6.7649   -1.1449    0.0000 C   0  0  0  0  0  0  0  0  0  0  0  0
   -6.9848    0.3389    0.0000 C   0  0  0  0  0  0  0  0  0  0  0  0
   -8.3798    0.8903    0.0000 C   0  0  0  0  0  0  0  0  0  0  0  0
   -8.5998    2.3741    0.0000 C   0  0  0  0  0  0  0  0  0  0  0  0
   -7.4248    3.3065    0.0000 O   0  0  0  0  0  0  0  0  0  0  0  0
   -9.9948    2.9254    0.0000 O   0  0  0  0  0  0  0  0  0  0  0  0
   -5.3699   -1.6962    0.0000 C   0  0  0  0  0  0  0  0  0  0  0  0
   -4.9960   -3.1489    0.0000 C   0  0  0  0  0  0  0  0  0  0  0  0
   -3.4989   -3.2422    0.0000 C   0  0  0  0  0  0  0  0  0  0  0  0
   -2.9475   -1.8472    0.0000 C   0  0  0  0  0  0  0  0  0  0  0  0
   -1.5419   -1.3235    0.0000 C   0  0  0  0  0  0  0  0  0  0  0  0
   -0.3856   -2.2790    0.0000 C   0  0  0  0  0  0  0  0  0  0  0  0
    1.0200   -1.7553    0.0000 C   0  0  0  0  0  0  0  0  0  0  0  0
    2.1764   -2.7108    0.0000 O   0  0  0  0  0  0  0  0  0  0  0  0
    1.2693   -0.2762    0.0000 C   0  0  0  0  0  0  0  0  0  0  0  0
    2.6750    0.2475    0.0000 C   0  0  0  0  0  0  0  0  0  0  0  0
    2.9242    1.7266    0.0000 C   0  0  0  0  0  0  0  0  0  0  0  0
    4.3299    2.2503    0.0000 O   0  0  0  0  0  0  0  0  0  0  0  0
    5.4862    1.2948    0.0000 C   0  0  0  0  0  0  0  0  0  0  0  0
    5.2369   -0.1843    0.0000 O   0  0  0  0  0  0  0  0  0  0  0  0
    6.3932   -1.1398    0.0000 C   0  0  0  0  0  0  0  0  0  0  0  0
    6.1439   -2.6189    0.0000 C   0  0  0  0  0  0  0  0  0  0  0  0
    4.7383   -3.1426    0.0000 O   0  0  0  0  0  0  0  0  0  0  0  0
    7.7988   -0.6161    0.0000 C   0  0  0  0  0  0  0  0  0  0  0  0
    8.9552   -1.5715    0.0000 O   0  0  0  0  0  0  0  0  0  0  0  0
    8.0481    0.8631    0.0000 C   0  0  0  0  0  0  0  0  0  0  0  0
    9.4538    1.3867    0.0000 O   0  0  0  0  0  0  0  0  0  0  0  0
    6.8918    1.8185    0.0000 C   0  0  0  0  0  0  0  0  0  0  0  0
    7.1411    3.2977    0.0000 O   0  0  0  0  0  0  0  0  0  0  0  0
    1.7679    2.6821    0.0000 C   0  0  0  0  0  0  0  0  0  0  0  0
    0.3623    2.1584    0.0000 C   0  0  0  0  0  0  0  0  0  0  0  0
    0.1130    0.6793    0.0000 C   0  0  0  0  0  0  0  0  0  0  0  0
   -1.0433    1.6347    0.0000 C   0  0  0  0  0  0  0  0  0  0  0  0
   -1.2926    0.1556    0.0000 C   0  0  0  0  0  0  0  0  0  0  0  0
   -2.4489    1.1111    0.0000 C   0  0  0  0  0  0  0  0  0  0  0  0
   -3.8546    0.5874    0.0000 C   0  0  0  0  0  0  0  0  0  0  0  0
   -4.1038   -0.8918    0.0000 C   0  0  0  0  0  0  0  0  0  0  0  0
   -5.3537   -0.0624    0.0000 C   0  0  0  0  0  0  0  0  0  0  0  0
  2  1  1  6
  2  3  1  0
  3  4  1  0
  4  5  1  0
  5  6  2  0
  5  7  1  0
  2  8  1  0
  8  9  1  6
  9 10  1  0
 11 10  1  6
 11 12  1  0
 12 13  1  1
 13 14  1  0
 14 15  1  6
 14 16  1  0
 16 17  1  1
 17 18  1  0
 18 19  1  1
 20 19  1  1
 20 21  1  0
 21 22  1  0
 22 23  1  1
 23 24  1  0
 22 25  1  0
 25 26  1  6
 25 27  1  0
 27 28  1  1
 27 29  1  0
 29 30  1  6
 18 31  1  0
 31 32  1  0
 32 33  1  0
 33 34  1  6
 33 35  1  0
 35 36  1  6
 36 37  1  0
 37 38  1  0
 38 39  1  6
 38  8  1  0
 38 11  1  0
 35 12  1  0
 33 16  1  0
 29 20  1  0
M  END
>  <MS_ID>  (3701) 
MS4136

>  <SMILES>  (3701) 
C[C@H](CCC(=O)O)[C@H]1CC[C@H]2[C@@H]3C[C@@H](O)[C@@H]4C[C@H](O[C@@H]5O[C@H](CO)[C@@H](O)[C@H](O)[C@H]5O)CC[C@]4(C)[C@H]3CC[C@]12C

>  <Structure_dimension>  (3701) 
2D

$$$$
MS4137
     RDKit          2D

 27 30  0  0  0  0  0  0  0  0999 V2000
   -4.8076   -2.3444    0.0000 C   0  0  0  0  0  0  0  0  0  0  0  0
   -3.6978   -1.3352    0.0000 C   0  0  0  0  0  0  0  0  0  0  0  0
   -4.0168    0.1304    0.0000 C   0  0  0  0  0  0  0  0  0  0  0  0
   -5.4456    0.5870    0.0000 C   0  0  0  0  0  0  0  0  0  0  0  0
   -5.7647    2.0527    0.0000 C   0  0  0  0  0  0  0  0  0  0  0  0
   -4.6549    3.0618    0.0000 O   0  0  0  0  0  0  0  0  0  0  0  0
   -7.1935    2.5092    0.0000 O   0  0  0  0  0  0  0  0  0  0  0  0
   -2.2690   -1.7918    0.0000 C   0  0  0  0  0  0  0  0  0  0  0  0
   -1.7985   -3.2161    0.0000 C   0  0  0  0  0  0  0  0  0  0  0  0
   -0.2985   -3.2088    0.0000 C   0  0  0  0  0  0  0  0  0  0  0  0
    0.1581   -1.7800    0.0000 C   0  0  0  0  0  0  0  0  0  0  0  0
    1.5254   -1.1632    0.0000 C   0  0  0  0  0  0  0  0  0  0  0  0
    2.7432   -2.0389    0.0000 C   0  0  0  0  0  0  0  0  0  0  0  0
    4.1105   -1.4221    0.0000 C   0  0  0  0  0  0  0  0  0  0  0  0
    5.3283   -2.2979    0.0000 O   0  0  0  0  0  0  0  0  0  0  0  0
    4.2600    0.0704    0.0000 C   0  0  0  0  0  0  0  0  0  0  0  0
    5.6274    0.6872    0.0000 C   0  0  0  0  0  0  0  0  0  0  0  0
    5.7769    2.1797    0.0000 C   0  0  0  0  0  0  0  0  0  0  0  0
    4.5591    3.0554    0.0000 C   0  0  0  0  0  0  0  0  0  0  0  0
    3.1917    2.4387    0.0000 C   0  0  0  0  0  0  0  0  0  0  0  0
    3.0422    0.9461    0.0000 C   0  0  0  0  0  0  0  0  0  0  0  0
    1.8244    1.8219    0.0000 C   0  0  0  0  0  0  0  0  0  0  0  0
    1.6749    0.3293    0.0000 C   0  0  0  0  0  0  0  0  0  0  0  0
    0.4571    1.2051    0.0000 C   0  0  0  0  0  0  0  0  0  0  0  0
   -0.9102    0.5883    0.0000 C   0  0  0  0  0  0  0  0  0  0  0  0
   -1.0598   -0.9042    0.0000 C   0  0  0  0  0  0  0  0  0  0  0  0
   -2.3624   -0.1606    0.0000 C   0  0  0  0  0  0  0  0  0  0  0  0
  2  1  1  6
  2  3  1  0
  3  4  1  0
  4  5  1  0
  5  6  2  0
  5  7  1  0
  2  8  1  0
  8  9  1  6
  9 10  1  0
 11 10  1  6
 11 12  1  0
 12 13  1  1
 13 14  1  0
 14 15  1  1
 14 16  1  0
 16 17  1  1
 17 18  1  0
 18 19  1  0
 19 20  1  0
 20 21  1  0
 21 22  1  6
 21 23  1  0
 23 24  1  6
 24 25  1  0
 25 26  1  0
 26 27  1  6
 26  8  1  0
 26 11  1  0
 23 12  1  0
 21 16  1  0
M  END
>  <MS_ID>  (3702) 
MS4137

>  <SMILES>  (3702) 
C[C@H](CCC(=O)O)[C@H]1CC[C@H]2[C@@H]3C[C@H](O)[C@@H]4CCCC[C@]4(C)[C@H]3CC[C@]12C

>  <Structure_dimension>  (3702) 
2D

$$$$
MS4138
     RDKit          2D

 30 33  0  0  0  0  0  0  0  0999 V2000
   -5.1134   -2.2540    0.0000 C   0  0  0  0  0  0  0  0  0  0  0  0
   -3.9811   -1.2701    0.0000 C   0  0  0  0  0  0  0  0  0  0  0  0
   -4.2670    0.2024    0.0000 C   0  0  0  0  0  0  0  0  0  0  0  0
   -5.6852    0.6910    0.0000 C   0  0  0  0  0  0  0  0  0  0  0  0
   -5.9711    2.1635    0.0000 C   0  0  0  0  0  0  0  0  0  0  0  0
   -4.8388    3.1474    0.0000 O   0  0  0  0  0  0  0  0  0  0  0  0
   -7.3892    2.6522    0.0000 O   0  0  0  0  0  0  0  0  0  0  0  0
   -2.5629   -1.7588    0.0000 C   0  0  0  0  0  0  0  0  0  0  0  0
   -2.1247   -3.1933    0.0000 C   0  0  0  0  0  0  0  0  0  0  0  0
   -0.6249   -3.2198    0.0000 C   0  0  0  0  0  0  0  0  0  0  0  0
   -0.1362   -1.8017    0.0000 C   0  0  0  0  0  0  0  0  0  0  0  0
    1.2446   -1.2159    0.0000 C   0  0  0  0  0  0  0  0  0  0  0  0
    2.4424   -2.1188    0.0000 C   0  0  0  0  0  0  0  0  0  0  0  0
    2.2593   -3.6076    0.0000 O   0  0  0  0  0  0  0  0  0  0  0  0
    3.8233   -1.5330    0.0000 C   0  0  0  0  0  0  0  0  0  0  0  0
    5.0210   -2.4360    0.0000 O   0  0  0  0  0  0  0  0  0  0  0  0
    4.0064   -0.0442    0.0000 C   0  0  0  0  0  0  0  0  0  0  0  0
    5.3873    0.5416    0.0000 C   0  0  0  0  0  0  0  0  0  0  0  0
    5.5704    2.0303    0.0000 C   0  0  0  0  0  0  0  0  0  0  0  0
    6.9513    2.6161    0.0000 O   0  0  0  0  0  0  0  0  0  0  0  0
    4.3726    2.9333    0.0000 C   0  0  0  0  0  0  0  0  0  0  0  0
    2.9918    2.3475    0.0000 C   0  0  0  0  0  0  0  0  0  0  0  0
    2.8086    0.8587    0.0000 C   0  0  0  0  0  0  0  0  0  0  0  0
    1.6109    1.7617    0.0000 C   0  0  0  0  0  0  0  0  0  0  0  0
    1.4278    0.2729    0.0000 C   0  0  0  0  0  0  0  0  0  0  0  0
    0.2300    1.1759    0.0000 C   0  0  0  0  0  0  0  0  0  0  0  0
   -1.1509    0.5901    0.0000 C   0  0  0  0  0  0  0  0  0  0  0  0
   -2.3486    1.4931    0.0000 O   0  0  0  0  0  0  0  0  0  0  0  0
   -1.3340   -0.8987    0.0000 C   0  0  0  0  0  0  0  0  0  0  0  0
   -2.6196   -0.1258    0.0000 C   0  0  0  0  0  0  0  0  0  0  0  0
  2  1  1  6
  2  3  1  0
  3  4  1  0
  4  5  1  0
  5  6  2  0
  5  7  1  0
  2  8  1  0
  8  9  1  6
  9 10  1  0
 11 10  1  6
 11 12  1  0
 12 13  1  1
 13 14  1  1
 13 15  1  0
 15 16  1  6
 15 17  1  0
 17 18  1  1
 18 19  1  0
 19 20  1  6
 19 21  1  0
 21 22  1  0
 22 23  1  0
 23 24  1  6
 23 25  1  0
 25 26  1  6
 26 27  1  0
 27 28  1  6
 27 29  1  0
 29 30  1  6
 29  8  1  0
 29 11  1  0
 25 12  1  0
 23 17  1  0
M  END
>  <MS_ID>  (3703) 
MS4138

>  <SMILES>  (3703) 
C[C@H](CCC(=O)O)[C@H]1CC[C@H]2[C@@H]3[C@H](O)[C@@H](O)[C@@H]4C[C@@H](O)CC[C@]4(C)[C@H]3C[C@@H](O)[C@]12C

>  <Structure_dimension>  (3703) 
2D

$$$$
MS4139
     RDKit          2D

 30 33  0  0  0  0  0  0  0  0999 V2000
   -9.0024    3.1496    0.0000 C   0  0  0  0  0  0  0  0  0  0  0  0
   -7.5342    2.8423    0.0000 C   0  0  0  0  0  0  0  0  0  0  0  0
   -7.0662    1.4171    0.0000 O   0  0  0  0  0  0  0  0  0  0  0  0
   -5.5980    1.1098    0.0000 C   0  0  0  0  0  0  0  0  0  0  0  0
   -4.5978    2.2277    0.0000 O   0  0  0  0  0  0  0  0  0  0  0  0
   -5.1301   -0.3153    0.0000 C   0  0  0  0  0  0  0  0  0  0  0  0
   -3.6619   -0.6226    0.0000 C   0  0  0  0  0  0  0  0  0  0  0  0
   -3.1939   -2.0478    0.0000 C   0  0  0  0  0  0  0  0  0  0  0  0
   -4.1942   -3.1656    0.0000 C   0  0  0  0  0  0  0  0  0  0  0  0
   -1.7258   -2.3551    0.0000 C   0  0  0  0  0  0  0  0  0  0  0  0
   -1.1114   -3.7235    0.0000 C   0  0  0  0  0  0  0  0  0  0  0  0
    0.3799   -3.5620    0.0000 C   0  0  0  0  0  0  0  0  0  0  0  0
    0.6872   -2.0939    0.0000 C   0  0  0  0  0  0  0  0  0  0  0  0
    1.9839   -1.3398    0.0000 C   0  0  0  0  0  0  0  0  0  0  0  0
    3.2853   -2.0858    0.0000 C   0  0  0  0  0  0  0  0  0  0  0  0
    4.5820   -1.3318    0.0000 C   0  0  0  0  0  0  0  0  0  0  0  0
    5.8833   -2.0777    0.0000 O   0  0  0  0  0  0  0  0  0  0  0  0
    4.5773    0.1682    0.0000 C   0  0  0  0  0  0  0  0  0  0  0  0
    5.8740    0.9223    0.0000 C   0  0  0  0  0  0  0  0  0  0  0  0
    5.8693    2.4223    0.0000 C   0  0  0  0  0  0  0  0  0  0  0  0
    7.1660    3.1763    0.0000 O   0  0  0  0  0  0  0  0  0  0  0  0
    4.5680    3.1682    0.0000 C   0  0  0  0  0  0  0  0  0  0  0  0
    3.2713    2.4142    0.0000 C   0  0  0  0  0  0  0  0  0  0  0  0
    3.2759    0.9142    0.0000 C   0  0  0  0  0  0  0  0  0  0  0  0
    1.9746    1.6602    0.0000 C   0  0  0  0  0  0  0  0  0  0  0  0
    1.9792    0.1602    0.0000 C   0  0  0  0  0  0  0  0  0  0  0  0
    0.6779    0.9061    0.0000 C   0  0  0  0  0  0  0  0  0  0  0  0
   -0.6188    0.1521    0.0000 C   0  0  0  0  0  0  0  0  0  0  0  0
   -0.6142   -1.3479    0.0000 C   0  0  0  0  0  0  0  0  0  0  0  0
   -1.9864   -0.7421    0.0000 C   0  0  0  0  0  0  0  0  0  0  0  0
  1  2  1  0
  2  3  1  0
  3  4  1  0
  4  5  2  0
  4  6  1  0
  6  7  1  0
  7  8  1  0
  8  9  1  6
  8 10  1  0
 10 11  1  6
 11 12  1  0
 13 12  1  6
 13 14  1  0
 14 15  1  1
 15 16  1  0
 16 17  1  1
 16 18  1  0
 18 19  1  1
 19 20  1  0
 20 21  1  1
 20 22  1  0
 22 23  1  0
 23 24  1  0
 24 25  1  6
 24 26  1  0
 26 27  1  6
 27 28  1  0
 28 29  1  0
 29 30  1  6
 29 10  1  0
 29 13  1  0
 26 14  1  0
 24 18  1  0
M  END
>  <MS_ID>  (3704) 
MS4139

>  <SMILES>  (3704) 
CCOC(=O)CC[C@@H](C)[C@H]1CC[C@H]2[C@@H]3C[C@H](O)[C@@H]4C[C@H](O)CC[C@]4(C)[C@H]3CC[C@]12C

>  <Structure_dimension>  (3704) 
2D

$$$$
MS4141
     RDKit          2D

 31 34  0  0  0  0  0  0  0  0999 V2000
   -8.8672    3.1400    0.0000 C   0  0  0  0  0  0  0  0  0  0  0  0
   -7.3980    2.8376    0.0000 C   0  0  0  0  0  0  0  0  0  0  0  0
   -6.9253    1.4140    0.0000 O   0  0  0  0  0  0  0  0  0  0  0  0
   -5.4561    1.1115    0.0000 C   0  0  0  0  0  0  0  0  0  0  0  0
   -4.4596    2.2326    0.0000 O   0  0  0  0  0  0  0  0  0  0  0  0
   -4.9835   -0.3121    0.0000 C   0  0  0  0  0  0  0  0  0  0  0  0
   -3.5143   -0.6145    0.0000 C   0  0  0  0  0  0  0  0  0  0  0  0
   -3.0416   -2.0381    0.0000 C   0  0  0  0  0  0  0  0  0  0  0  0
   -4.0382   -3.1592    0.0000 C   0  0  0  0  0  0  0  0  0  0  0  0
   -1.5724   -2.3406    0.0000 C   0  0  0  0  0  0  0  0  0  0  0  0
   -0.9536   -3.7070    0.0000 C   0  0  0  0  0  0  0  0  0  0  0  0
    0.5372   -3.5406    0.0000 C   0  0  0  0  0  0  0  0  0  0  0  0
    0.8396   -2.0714    0.0000 C   0  0  0  0  0  0  0  0  0  0  0  0
    2.1338   -1.3131    0.0000 C   0  0  0  0  0  0  0  0  0  0  0  0
    3.4377   -2.0548    0.0000 C   0  0  0  0  0  0  0  0  0  0  0  0
    3.4473   -3.5547    0.0000 O   0  0  0  0  0  0  0  0  0  0  0  0
    4.7319   -1.2965    0.0000 C   0  0  0  0  0  0  0  0  0  0  0  0
    4.7223    0.2035    0.0000 C   0  0  0  0  0  0  0  0  0  0  0  0
    6.0165    0.9618    0.0000 C   0  0  0  0  0  0  0  0  0  0  0  0
    6.0069    2.4618    0.0000 C   0  0  0  0  0  0  0  0  0  0  0  0
    7.3011    3.2201    0.0000 O   0  0  0  0  0  0  0  0  0  0  0  0
    4.7030    3.2034    0.0000 C   0  0  0  0  0  0  0  0  0  0  0  0
    3.4088    2.4451    0.0000 C   0  0  0  0  0  0  0  0  0  0  0  0
    3.4184    0.9452    0.0000 C   0  0  0  0  0  0  0  0  0  0  0  0
    2.1146    1.6868    0.0000 C   0  0  0  0  0  0  0  0  0  0  0  0
    2.1242    0.1869    0.0000 C   0  0  0  0  0  0  0  0  0  0  0  0
    0.8204    0.9285    0.0000 C   0  0  0  0  0  0  0  0  0  0  0  0
   -0.4738    0.1702    0.0000 C   0  0  0  0  0  0  0  0  0  0  0  0
   -1.7776    0.9119    0.0000 O   0  0  0  0  0  0  0  0  0  0  0  0
   -0.4642   -1.3298    0.0000 C   0  0  0  0  0  0  0  0  0  0  0  0
   -1.8384   -0.7284    0.0000 C   0  0  0  0  0  0  0  0  0  0  0  0
  1  2  1  0
  2  3  1  0
  3  4  1  0
  4  5  2  0
  4  6  1  0
  6  7  1  0
  7  8  1  0
  8  9  1  1
  8 10  1  0
 10 11  1  6
 11 12  1  0
 13 12  1  6
 13 14  1  0
 14 15  1  1
 15 16  1  1
 15 17  1  0
 18 17  1  1
 18 19  1  0
 19 20  1  0
 20 21  1  1
 20 22  1  0
 22 23  1  0
 23 24  1  0
 24 25  1  6
 24 26  1  0
 26 27  1  6
 27 28  1  0
 28 29  1  1
 28 30  1  0
 30 31  1  6
 30 10  1  0
 30 13  1  0
 26 14  1  0
 24 18  1  0
M  END
>  <MS_ID>  (3705) 
MS4141

>  <SMILES>  (3705) 
CCOC(=O)CC[C@H](C)[C@H]1CC[C@H]2[C@@H]3[C@H](O)C[C@@H]4C[C@H](O)CC[C@]4(C)[C@H]3C[C@H](O)[C@]12C

>  <Structure_dimension>  (3705) 
2D

$$$$
MS4142
     RDKit          2D

 40 44  0  0  0  0  0  0  0  0999 V2000
   -0.3822   -4.9675    0.0000 C   0  0  0  0  0  0  0  0  0  0  0  0
    0.1406   -3.5616    0.0000 C   0  0  0  0  0  0  0  0  0  0  0  0
   -0.8156   -2.4059    0.0000 C   0  0  0  0  0  0  0  0  0  0  0  0
   -2.2946   -2.6561    0.0000 C   0  0  0  0  0  0  0  0  0  0  0  0
   -3.2508   -1.5004    0.0000 C   0  0  0  0  0  0  0  0  0  0  0  0
   -2.7280   -0.0944    0.0000 O   0  0  0  0  0  0  0  0  0  0  0  0
   -4.7298   -1.7506    0.0000 O   0  0  0  0  0  0  0  0  0  0  0  0
   -5.6860   -0.5949    0.0000 C   0  0  0  0  0  0  0  0  0  0  0  0
   -5.1632    0.8111    0.0000 O   0  0  0  0  0  0  0  0  0  0  0  0
   -6.1194    1.9668    0.0000 C   0  0  0  0  0  0  0  0  0  0  0  0
   -5.5966    3.3727    0.0000 C   0  0  0  0  0  0  0  0  0  0  0  0
   -6.5528    4.5285    0.0000 O   0  0  0  0  0  0  0  0  0  0  0  0
   -4.1176    3.6230    0.0000 O   0  0  0  0  0  0  0  0  0  0  0  0
   -7.5983    1.7166    0.0000 C   0  0  0  0  0  0  0  0  0  0  0  0
   -8.5545    2.8723    0.0000 O   0  0  0  0  0  0  0  0  0  0  0  0
   -8.1211    0.3106    0.0000 C   0  0  0  0  0  0  0  0  0  0  0  0
   -9.6001    0.0604    0.0000 O   0  0  0  0  0  0  0  0  0  0  0  0
   -7.1649   -0.8451    0.0000 C   0  0  0  0  0  0  0  0  0  0  0  0
   -7.6877   -2.2511    0.0000 O   0  0  0  0  0  0  0  0  0  0  0  0
    1.6196   -3.3114    0.0000 C   0  0  0  0  0  0  0  0  0  0  0  0
    2.6913   -4.3608    0.0000 C   0  0  0  0  0  0  0  0  0  0  0  0
    4.0206   -3.6658    0.0000 C   0  0  0  0  0  0  0  0  0  0  0  0
    3.7704   -2.1868    0.0000 C   0  0  0  0  0  0  0  0  0  0  0  0
    4.7020   -1.0112    0.0000 C   0  0  0  0  0  0  0  0  0  0  0  0
    6.1860   -1.2303    0.0000 C   0  0  0  0  0  0  0  0  0  0  0  0
    6.7382   -2.6249    0.0000 O   0  0  0  0  0  0  0  0  0  0  0  0
    7.1176   -0.0547    0.0000 C   0  0  0  0  0  0  0  0  0  0  0  0
    6.5654    1.3400    0.0000 C   0  0  0  0  0  0  0  0  0  0  0  0
    7.4970    2.5156    0.0000 C   0  0  0  0  0  0  0  0  0  0  0  0
    6.9448    3.9102    0.0000 C   0  0  0  0  0  0  0  0  0  0  0  0
    7.8764    5.0858    0.0000 O   0  0  0  0  0  0  0  0  0  0  0  0
    5.4608    4.1292    0.0000 C   0  0  0  0  0  0  0  0  0  0  0  0
    4.5292    2.9537    0.0000 C   0  0  0  0  0  0  0  0  0  0  0  0
    5.0814    1.5590    0.0000 C   0  0  0  0  0  0  0  0  0  0  0  0
    3.5975    1.7781    0.0000 C   0  0  0  0  0  0  0  0  0  0  0  0
    4.1498    0.3834    0.0000 C   0  0  0  0  0  0  0  0  0  0  0  0
    2.6659    0.6025    0.0000 C   0  0  0  0  0  0  0  0  0  0  0  0
    1.7342   -0.5731    0.0000 C   0  0  0  0  0  0  0  0  0  0  0  0
    2.2865   -1.9678    0.0000 C   0  0  0  0  0  0  0  0  0  0  0  0
    0.7878   -1.9050    0.0000 C   0  0  0  0  0  0  0  0  0  0  0  0
  2  1  1  6
  2  3  1  0
  3  4  1  0
  4  5  1  0
  5  6  2  0
  5  7  1  0
  8  7  1  6
  8  9  1  0
  9 10  1  0
 10 11  1  1
 11 12  2  0
 11 13  1  0
 10 14  1  0
 14 15  1  1
 14 16  1  0
 16 17  1  6
 16 18  1  0
 18 19  1  1
  2 20  1  0
 20 21  1  6
 21 22  1  0
 23 22  1  6
 23 24  1  0
 24 25  1  1
 25 26  1  6
 25 27  1  0
 28 27  1  1
 28 29  1  0
 29 30  1  0
 30 31  1  1
 30 32  1  0
 32 33  1  0
 33 34  1  0
 34 35  1  6
 34 36  1  0
 36 37  1  6
 37 38  1  0
 38 39  1  0
 39 40  1  6
 18  8  1  0
 39 20  1  0
 39 23  1  0
 36 24  1  0
 34 28  1  0
M  END
>  <MS_ID>  (3706) 
MS4142

>  <SMILES>  (3706) 
C[C@H](CCC(=O)O[C@H]1O[C@H](C(=O)O)[C@H](O)[C@@H](O)[C@@H]1O)[C@H]1CC[C@H]2[C@@H]3[C@@H](O)C[C@@H]4C[C@H](O)CC[C@]4(C)[C@H]3CC[C@]12C

>  <Structure_dimension>  (3706) 
2D

$$$$
MS4143
     RDKit          2D

 28 31  0  0  0  0  0  0  0  0999 V2000
   -4.6352   -2.6140    0.0000 C   0  0  0  0  0  0  0  0  0  0  0  0
   -3.5136   -1.6180    0.0000 C   0  0  0  0  0  0  0  0  0  0  0  0
   -3.8154   -0.1486    0.0000 C   0  0  0  0  0  0  0  0  0  0  0  0
   -5.2387    0.3247    0.0000 C   0  0  0  0  0  0  0  0  0  0  0  0
   -5.5405    1.7940    0.0000 C   0  0  0  0  0  0  0  0  0  0  0  0
   -4.4189    2.7900    0.0000 O   0  0  0  0  0  0  0  0  0  0  0  0
   -6.9639    2.2673    0.0000 N   0  0  0  0  0  0  0  0  0  0  0  0
   -7.2657    3.7367    0.0000 N   0  0  0  0  0  0  0  0  0  0  0  0
   -2.0902   -2.0913    0.0000 C   0  0  0  0  0  0  0  0  0  0  0  0
   -1.6365   -3.5210    0.0000 C   0  0  0  0  0  0  0  0  0  0  0  0
   -0.1366   -3.5313    0.0000 C   0  0  0  0  0  0  0  0  0  0  0  0
    0.3368   -2.1080    0.0000 C   0  0  0  0  0  0  0  0  0  0  0  0
    1.7112   -1.5073    0.0000 C   0  0  0  0  0  0  0  0  0  0  0  0
    2.9187   -2.3973    0.0000 C   0  0  0  0  0  0  0  0  0  0  0  0
    4.2932   -1.7966    0.0000 C   0  0  0  0  0  0  0  0  0  0  0  0
    4.4602   -0.3060    0.0000 C   0  0  0  0  0  0  0  0  0  0  0  0
    5.8347    0.2947    0.0000 C   0  0  0  0  0  0  0  0  0  0  0  0
    6.0017    1.7854    0.0000 C   0  0  0  0  0  0  0  0  0  0  0  0
    7.3762    2.3861    0.0000 O   0  0  0  0  0  0  0  0  0  0  0  0
    4.7943    2.6754    0.0000 C   0  0  0  0  0  0  0  0  0  0  0  0
    3.4198    2.0747    0.0000 C   0  0  0  0  0  0  0  0  0  0  0  0
    3.2528    0.5840    0.0000 C   0  0  0  0  0  0  0  0  0  0  0  0
    2.0453    1.4740    0.0000 C   0  0  0  0  0  0  0  0  0  0  0  0
    1.8783   -0.0166    0.0000 C   0  0  0  0  0  0  0  0  0  0  0  0
    0.6708    0.8734    0.0000 C   0  0  0  0  0  0  0  0  0  0  0  0
   -0.7036    0.2727    0.0000 C   0  0  0  0  0  0  0  0  0  0  0  0
   -0.8707   -1.2180    0.0000 C   0  0  0  0  0  0  0  0  0  0  0  0
   -2.1645   -0.4591    0.0000 C   0  0  0  0  0  0  0  0  0  0  0  0
  2  1  1  6
  2  3  1  0
  3  4  1  0
  4  5  1  0
  5  6  2  0
  5  7  1  0
  7  8  1  0
  2  9  1  0
  9 10  1  6
 10 11  1  0
 12 11  1  6
 12 13  1  0
 13 14  1  1
 14 15  1  0
 16 15  1  6
 16 17  1  0
 17 18  1  0
 18 19  1  6
 18 20  1  0
 20 21  1  0
 21 22  1  0
 22 23  1  6
 22 24  1  0
 24 25  1  6
 25 26  1  0
 26 27  1  0
 27 28  1  6
 27  9  1  0
 27 12  1  0
 24 13  1  0
 22 16  1  0
M  END
>  <MS_ID>  (3707) 
MS4143

>  <SMILES>  (3707) 
C[C@H](CCC(=O)NN)[C@H]1CC[C@H]2[C@@H]3CC[C@H]4C[C@@H](O)CC[C@]4(C)[C@H]3CC[C@]12C

>  <Structure_dimension>  (3707) 
2D

$$$$
MS4146
     RDKit          2D

 27 30  0  0  0  0  0  0  0  0999 V2000
   -4.8076   -2.3444    0.0000 C   0  0  0  0  0  0  0  0  0  0  0  0
   -3.6978   -1.3352    0.0000 C   0  0  0  0  0  0  0  0  0  0  0  0
   -4.0168    0.1304    0.0000 C   0  0  0  0  0  0  0  0  0  0  0  0
   -5.4456    0.5870    0.0000 C   0  0  0  0  0  0  0  0  0  0  0  0
   -5.7647    2.0527    0.0000 C   0  0  0  0  0  0  0  0  0  0  0  0
   -4.6549    3.0618    0.0000 O   0  0  0  0  0  0  0  0  0  0  0  0
   -7.1935    2.5092    0.0000 O   0  0  0  0  0  0  0  0  0  0  0  0
   -2.2690   -1.7918    0.0000 C   0  0  0  0  0  0  0  0  0  0  0  0
   -1.7985   -3.2161    0.0000 C   0  0  0  0  0  0  0  0  0  0  0  0
   -0.2985   -3.2088    0.0000 C   0  0  0  0  0  0  0  0  0  0  0  0
    0.1581   -1.7800    0.0000 C   0  0  0  0  0  0  0  0  0  0  0  0
    1.5254   -1.1632    0.0000 C   0  0  0  0  0  0  0  0  0  0  0  0
    2.7432   -2.0389    0.0000 C   0  0  0  0  0  0  0  0  0  0  0  0
    4.1105   -1.4221    0.0000 C   0  0  0  0  0  0  0  0  0  0  0  0
    5.3283   -2.2979    0.0000 O   0  0  0  0  0  0  0  0  0  0  0  0
    4.2600    0.0704    0.0000 C   0  0  0  0  0  0  0  0  0  0  0  0
    5.6274    0.6872    0.0000 C   0  0  0  0  0  0  0  0  0  0  0  0
    5.7769    2.1797    0.0000 C   0  0  0  0  0  0  0  0  0  0  0  0
    4.5591    3.0554    0.0000 C   0  0  0  0  0  0  0  0  0  0  0  0
    3.1917    2.4387    0.0000 C   0  0  0  0  0  0  0  0  0  0  0  0
    3.0422    0.9461    0.0000 C   0  0  0  0  0  0  0  0  0  0  0  0
    1.8244    1.8219    0.0000 C   0  0  0  0  0  0  0  0  0  0  0  0
    1.6749    0.3293    0.0000 C   0  0  0  0  0  0  0  0  0  0  0  0
    0.4571    1.2051    0.0000 C   0  0  0  0  0  0  0  0  0  0  0  0
   -0.9102    0.5883    0.0000 C   0  0  0  0  0  0  0  0  0  0  0  0
   -1.0598   -0.9042    0.0000 C   0  0  0  0  0  0  0  0  0  0  0  0
   -2.3624   -0.1606    0.0000 C   0  0  0  0  0  0  0  0  0  0  0  0
  2  1  1  6
  2  3  1  0
  3  4  1  0
  4  5  1  0
  5  6  2  0
  5  7  1  0
  2  8  1  0
  8  9  1  6
  9 10  1  0
 11 10  1  6
 11 12  1  0
 12 13  1  1
 13 14  1  0
 14 15  1  6
 14 16  1  0
 16 17  1  1
 17 18  1  0
 18 19  1  0
 19 20  1  0
 20 21  1  0
 21 22  1  6
 21 23  1  0
 23 24  1  6
 24 25  1  0
 25 26  1  0
 26 27  1  6
 26  8  1  0
 26 11  1  0
 23 12  1  0
 21 16  1  0
M  END
>  <MS_ID>  (3708) 
MS4146

>  <SMILES>  (3708) 
C[C@H](CCC(=O)O)[C@H]1CC[C@H]2[C@@H]3C[C@@H](O)[C@@H]4CCCC[C@]4(C)[C@H]3CC[C@]12C

>  <Structure_dimension>  (3708) 
2D

$$$$
MS4147
     RDKit          2D

 30 33  0  0  0  0  0  0  0  0999 V2000
   -7.7754    3.4718    0.0000 C   0  0  0  0  0  0  0  0  0  0  0  0
   -7.3815    2.0245    0.0000 O   0  0  0  0  0  0  0  0  0  0  0  0
   -5.9311    1.6420    0.0000 C   0  0  0  0  0  0  0  0  0  0  0  0
   -4.8746    2.7068    0.0000 O   0  0  0  0  0  0  0  0  0  0  0  0
   -5.5371    0.1946    0.0000 C   0  0  0  0  0  0  0  0  0  0  0  0
   -4.0867   -0.1879    0.0000 C   0  0  0  0  0  0  0  0  0  0  0  0
   -3.6928   -1.6352    0.0000 C   0  0  0  0  0  0  0  0  0  0  0  0
   -4.7493   -2.7001    0.0000 C   0  0  0  0  0  0  0  0  0  0  0  0
   -2.2424   -2.0177    0.0000 C   0  0  0  0  0  0  0  0  0  0  0  0
   -1.6993   -3.4160    0.0000 C   0  0  0  0  0  0  0  0  0  0  0  0
   -0.2017   -3.3316    0.0000 C   0  0  0  0  0  0  0  0  0  0  0  0
    0.1808   -1.8812    0.0000 C   0  0  0  0  0  0  0  0  0  0  0  0
    1.5146   -1.1949    0.0000 C   0  0  0  0  0  0  0  0  0  0  0  0
    2.7759   -2.0069    0.0000 C   0  0  0  0  0  0  0  0  0  0  0  0
    2.7033   -3.5051    0.0000 O   0  0  0  0  0  0  0  0  0  0  0  0
    4.1097   -1.3206    0.0000 C   0  0  0  0  0  0  0  0  0  0  0  0
    5.3709   -2.1326    0.0000 O   0  0  0  0  0  0  0  0  0  0  0  0
    4.1823    0.1776    0.0000 C   0  0  0  0  0  0  0  0  0  0  0  0
    5.5161    0.8639    0.0000 C   0  0  0  0  0  0  0  0  0  0  0  0
    5.5887    2.3621    0.0000 C   0  0  0  0  0  0  0  0  0  0  0  0
    6.9225    3.0484    0.0000 O   0  0  0  0  0  0  0  0  0  0  0  0
    4.3274    3.1741    0.0000 C   0  0  0  0  0  0  0  0  0  0  0  0
    2.9936    2.4878    0.0000 C   0  0  0  0  0  0  0  0  0  0  0  0
    2.9210    0.9896    0.0000 C   0  0  0  0  0  0  0  0  0  0  0  0
    1.6598    1.8016    0.0000 C   0  0  0  0  0  0  0  0  0  0  0  0
    1.5872    0.3033    0.0000 C   0  0  0  0  0  0  0  0  0  0  0  0
    0.3260    1.1153    0.0000 C   0  0  0  0  0  0  0  0  0  0  0  0
   -1.0078    0.4291    0.0000 C   0  0  0  0  0  0  0  0  0  0  0  0
   -1.0804   -1.0692    0.0000 C   0  0  0  0  0  0  0  0  0  0  0  0
   -2.4196   -0.3935    0.0000 C   0  0  0  0  0  0  0  0  0  0  0  0
  1  2  1  0
  2  3  1  0
  3  4  2  0
  3  5  1  0
  5  6  1  0
  6  7  1  0
  7  8  1  6
  7  9  1  0
  9 10  1  6
 10 11  1  0
 12 11  1  6
 12 13  1  0
 13 14  1  1
 14 15  1  6
 14 16  1  0
 16 17  1  1
 16 18  1  0
 18 19  1  1
 19 20  1  0
 20 21  1  1
 20 22  1  0
 22 23  1  0
 23 24  1  0
 24 25  1  6
 24 26  1  0
 26 27  1  6
 27 28  1  0
 28 29  1  0
 29 30  1  6
 29  9  1  0
 29 12  1  0
 26 13  1  0
 24 18  1  0
M  END
>  <MS_ID>  (3709) 
MS4147

>  <SMILES>  (3709) 
COC(=O)CC[C@@H](C)[C@H]1CC[C@H]2[C@@H]3[C@@H](O)[C@H](O)[C@@H]4C[C@H](O)CC[C@]4(C)[C@H]3CC[C@]12C

>  <Structure_dimension>  (3709) 
2D

$$$$
MS4149
     RDKit          2D

 30 33  0  0  0  0  0  0  0  0999 V2000
   -7.4279    3.5601    0.0000 C   0  0  0  0  0  0  0  0  0  0  0  0
   -7.0729    2.1027    0.0000 O   0  0  0  0  0  0  0  0  0  0  0  0
   -5.6333    1.6814    0.0000 C   0  0  0  0  0  0  0  0  0  0  0  0
   -4.5486    2.7174    0.0000 O   0  0  0  0  0  0  0  0  0  0  0  0
   -5.2784    0.2240    0.0000 C   0  0  0  0  0  0  0  0  0  0  0  0
   -3.8388   -0.1974    0.0000 C   0  0  0  0  0  0  0  0  0  0  0  0
   -3.4838   -1.6548    0.0000 C   0  0  0  0  0  0  0  0  0  0  0  0
   -4.5685   -2.6908    0.0000 C   0  0  0  0  0  0  0  0  0  0  0  0
   -2.0442   -2.0761    0.0000 C   0  0  0  0  0  0  0  0  0  0  0  0
   -1.5389   -3.4884    0.0000 C   0  0  0  0  0  0  0  0  0  0  0  0
   -0.0395   -3.4442    0.0000 C   0  0  0  0  0  0  0  0  0  0  0  0
    0.3818   -2.0046    0.0000 C   0  0  0  0  0  0  0  0  0  0  0  0
    1.7336   -1.3544    0.0000 C   0  0  0  0  0  0  0  0  0  0  0  0
    2.9725   -2.1999    0.0000 C   0  0  0  0  0  0  0  0  0  0  0  0
    2.8597   -3.6957    0.0000 O   0  0  0  0  0  0  0  0  0  0  0  0
    4.3243   -1.5497    0.0000 C   0  0  0  0  0  0  0  0  0  0  0  0
    4.4371   -0.0540    0.0000 C   0  0  0  0  0  0  0  0  0  0  0  0
    5.7888    0.5962    0.0000 C   0  0  0  0  0  0  0  0  0  0  0  0
    5.9016    2.0920    0.0000 C   0  0  0  0  0  0  0  0  0  0  0  0
    7.2534    2.7422    0.0000 O   0  0  0  0  0  0  0  0  0  0  0  0
    4.6627    2.9375    0.0000 C   0  0  0  0  0  0  0  0  0  0  0  0
    3.3109    2.2873    0.0000 C   0  0  0  0  0  0  0  0  0  0  0  0
    3.1981    0.7916    0.0000 C   0  0  0  0  0  0  0  0  0  0  0  0
    1.9591    1.6371    0.0000 C   0  0  0  0  0  0  0  0  0  0  0  0
    1.8464    0.1414    0.0000 C   0  0  0  0  0  0  0  0  0  0  0  0
    0.6074    0.9869    0.0000 C   0  0  0  0  0  0  0  0  0  0  0  0
   -0.7444    0.3367    0.0000 C   0  0  0  0  0  0  0  0  0  0  0  0
   -1.9833    1.1823    0.0000 O   0  0  0  0  0  0  0  0  0  0  0  0
   -0.8572   -1.1590    0.0000 C   0  0  0  0  0  0  0  0  0  0  0  0
   -2.1777   -0.4476    0.0000 C   0  0  0  0  0  0  0  0  0  0  0  0
  1  2  1  0
  2  3  1  0
  3  4  2  0
  3  5  1  0
  5  6  1  0
  6  7  1  0
  7  8  1  6
  7  9  1  0
  9 10  1  6
 10 11  1  0
 12 11  1  6
 12 13  1  0
 13 14  1  1
 14 15  1  6
 14 16  1  0
 17 16  1  6
 17 18  1  0
 18 19  1  0
 19 20  1  1
 19 21  1  0
 21 22  1  0
 22 23  1  0
 23 24  1  6
 23 25  1  0
 25 26  1  6
 26 27  1  0
 27 28  1  1
 27 29  1  0
 29 30  1  6
 29  9  1  0
 29 12  1  0
 25 13  1  0
 23 17  1  0
M  END
>  <MS_ID>  (3710) 
MS4149

>  <SMILES>  (3710) 
COC(=O)CC[C@@H](C)[C@H]1CC[C@H]2[C@@H]3[C@@H](O)C[C@H]4C[C@H](O)CC[C@]4(C)[C@H]3C[C@H](O)[C@]12C

>  <Structure_dimension>  (3710) 
2D

$$$$
MS4150
     RDKit          2D

 32 35  0  0  0  0  0  0  0  0999 V2000
   -2.8252   -3.9526    0.0000 C   0  0  0  0  0  0  0  0  0  0  0  0
   -1.9779   -2.7148    0.0000 C   0  0  0  0  0  0  0  0  0  0  0  0
   -2.6262   -1.3621    0.0000 C   0  0  0  0  0  0  0  0  0  0  0  0
   -4.1218   -1.2472    0.0000 C   0  0  0  0  0  0  0  0  0  0  0  0
   -4.7701    0.1054    0.0000 C   0  0  0  0  0  0  0  0  0  0  0  0
   -3.9228    1.3432    0.0000 O   0  0  0  0  0  0  0  0  0  0  0  0
   -6.2657    0.2203    0.0000 N   0  0  0  0  0  0  0  0  0  0  0  0
   -6.9140    1.5730    0.0000 C   0  0  0  0  0  0  0  0  0  0  0  0
   -8.4096    1.6879    0.0000 C   0  0  0  0  0  0  0  0  0  0  0  0
   -9.0579    3.0406    0.0000 C   0  0  0  0  0  0  0  0  0  0  0  0
  -10.5534    3.1554    0.0000 N   0  0  0  0  0  0  0  0  0  0  0  0
   -0.4823   -2.8297    0.0000 C   0  0  0  0  0  0  0  0  0  0  0  0
    0.3038   -4.1072    0.0000 C   0  0  0  0  0  0  0  0  0  0  0  0
    1.7617   -3.7543    0.0000 C   0  0  0  0  0  0  0  0  0  0  0  0
    1.8766   -2.2587    0.0000 C   0  0  0  0  0  0  0  0  0  0  0  0
    3.0650   -1.3433    0.0000 C   0  0  0  0  0  0  0  0  0  0  0  0
    4.4518   -1.9148    0.0000 C   0  0  0  0  0  0  0  0  0  0  0  0
    5.6402   -0.9994    0.0000 C   0  0  0  0  0  0  0  0  0  0  0  0
    5.4416    0.4874    0.0000 C   0  0  0  0  0  0  0  0  0  0  0  0
    6.6299    1.4028    0.0000 C   0  0  0  0  0  0  0  0  0  0  0  0
    6.4313    2.8896    0.0000 C   0  0  0  0  0  0  0  0  0  0  0  0
    7.6197    3.8049    0.0000 O   0  0  0  0  0  0  0  0  0  0  0  0
    5.0445    3.4610    0.0000 C   0  0  0  0  0  0  0  0  0  0  0  0
    3.8561    2.5456    0.0000 C   0  0  0  0  0  0  0  0  0  0  0  0
    4.0547    1.0588    0.0000 C   0  0  0  0  0  0  0  0  0  0  0  0
    2.6678    1.6303    0.0000 C   0  0  0  0  0  0  0  0  0  0  0  0
    2.8664    0.1435    0.0000 C   0  0  0  0  0  0  0  0  0  0  0  0
    1.4795    0.7149    0.0000 C   0  0  0  0  0  0  0  0  0  0  0  0
    0.2912   -0.2005    0.0000 C   0  0  0  0  0  0  0  0  0  0  0  0
   -1.0957    0.3710    0.0000 O   0  0  0  0  0  0  0  0  0  0  0  0
    0.4897   -1.6873    0.0000 C   0  0  0  0  0  0  0  0  0  0  0  0
   -0.9493   -1.2639    0.0000 C   0  0  0  0  0  0  0  0  0  0  0  0
  2  1  1  6
  2  3  1  0
  3  4  1  0
  4  5  1  0
  5  6  2  0
  5  7  1  0
  7  8  1  0
  8  9  1  0
  9 10  1  0
 10 11  1  0
  2 12  1  0
 12 13  1  6
 13 14  1  0
 15 14  1  6
 15 16  1  0
 16 17  1  1
 17 18  1  0
 19 18  1  1
 19 20  1  0
 20 21  1  0
 21 22  1  1
 21 23  1  0
 23 24  1  0
 24 25  1  0
 25 26  1  6
 25 27  1  0
 27 28  1  6
 28 29  1  0
 29 30  1  1
 29 31  1  0
 31 32  1  6
 31 12  1  0
 31 15  1  0
 27 16  1  0
 25 19  1  0
M  END
>  <MS_ID>  (3711) 
MS4150

>  <SMILES>  (3711) 
C[C@H](CCC(=O)NCCCN)[C@H]1CC[C@H]2[C@@H]3CC[C@@H]4C[C@H](O)CC[C@]4(C)[C@H]3C[C@H](O)[C@]12C

>  <Structure_dimension>  (3711) 
2D

$$$$
MS4152
     RDKit          2D

 29 32  0  0  0  0  0  0  0  0999 V2000
   -5.0303   -2.1373    0.0000 C   0  0  0  0  0  0  0  0  0  0  0  0
   -3.8594   -1.1998    0.0000 C   0  0  0  0  0  0  0  0  0  0  0  0
   -4.0858    0.2830    0.0000 C   0  0  0  0  0  0  0  0  0  0  0  0
   -5.4831    0.8284    0.0000 C   0  0  0  0  0  0  0  0  0  0  0  0
   -5.7095    2.3112    0.0000 C   0  0  0  0  0  0  0  0  0  0  0  0
   -4.5386    3.2487    0.0000 O   0  0  0  0  0  0  0  0  0  0  0  0
   -7.1069    2.8565    0.0000 O   0  0  0  0  0  0  0  0  0  0  0  0
   -2.4620   -1.7451    0.0000 C   0  0  0  0  0  0  0  0  0  0  0  0
   -2.0818   -3.1961    0.0000 C   0  0  0  0  0  0  0  0  0  0  0  0
   -0.5844   -3.2830    0.0000 C   0  0  0  0  0  0  0  0  0  0  0  0
   -0.0390   -1.8856    0.0000 C   0  0  0  0  0  0  0  0  0  0  0  0
    1.3643   -1.3559    0.0000 C   0  0  0  0  0  0  0  0  0  0  0  0
    2.5248   -2.3063    0.0000 C   0  0  0  0  0  0  0  0  0  0  0  0
    2.2819   -3.7865    0.0000 O   0  0  0  0  0  0  0  0  0  0  0  0
    3.9281   -1.7765    0.0000 C   0  0  0  0  0  0  0  0  0  0  0  0
    4.1710   -0.2963    0.0000 C   0  0  0  0  0  0  0  0  0  0  0  0
    5.5743    0.2334    0.0000 C   0  0  0  0  0  0  0  0  0  0  0  0
    5.8172    1.7136    0.0000 C   0  0  0  0  0  0  0  0  0  0  0  0
    7.2205    2.2434    0.0000 O   0  0  0  0  0  0  0  0  0  0  0  0
    4.6568    2.6641    0.0000 C   0  0  0  0  0  0  0  0  0  0  0  0
    3.2534    2.1343    0.0000 C   0  0  0  0  0  0  0  0  0  0  0  0
    3.0105    0.6541    0.0000 C   0  0  0  0  0  0  0  0  0  0  0  0
    1.8501    1.6046    0.0000 C   0  0  0  0  0  0  0  0  0  0  0  0
    1.6072    0.1244    0.0000 C   0  0  0  0  0  0  0  0  0  0  0  0
    0.4467    1.0748    0.0000 C   0  0  0  0  0  0  0  0  0  0  0  0
   -0.9566    0.5450    0.0000 C   0  0  0  0  0  0  0  0  0  0  0  0
   -2.1170    1.4955    0.0000 O   0  0  0  0  0  0  0  0  0  0  0  0
   -1.1995   -0.9352    0.0000 C   0  0  0  0  0  0  0  0  0  0  0  0
   -2.4529   -0.1112    0.0000 C   0  0  0  0  0  0  0  0  0  0  0  0
  2  1  1  1
  2  3  1  0
  3  4  1  0
  4  5  1  0
  5  6  2  0
  5  7  1  0
  2  8  1  0
  8  9  1  6
  9 10  1  0
 11 10  1  6
 11 12  1  0
 12 13  1  1
 13 14  2  0
 13 15  1  0
 16 15  1  1
 16 17  1  0
 17 18  1  0
 18 19  1  1
 18 20  1  0
 20 21  1  0
 21 22  1  0
 22 23  1  6
 22 24  1  0
 24 25  1  6
 25 26  1  0
 26 27  1  1
 26 28  1  0
 28 29  1  6
 28  8  1  0
 28 11  1  0
 24 12  1  0
 22 16  1  0
M  END
>  <MS_ID>  (3712) 
MS4152

>  <SMILES>  (3712) 
C[C@@H](CCC(=O)O)[C@H]1CC[C@H]2[C@@H]3C(=O)C[C@@H]4C[C@H](O)CC[C@]4(C)[C@H]3C[C@H](O)[C@]12C

>  <Structure_dimension>  (3712) 
2D

$$$$
MS4155
     RDKit          2D

 33 36  0  0  0  0  0  0  0  0999 V2000
   -3.0978   -3.6919    0.0000 C   0  0  0  0  0  0  0  0  0  0  0  0
   -2.2201   -2.4755    0.0000 C   0  0  0  0  0  0  0  0  0  0  0  0
   -2.8347   -1.1072    0.0000 C   0  0  0  0  0  0  0  0  0  0  0  0
   -4.3270   -0.9552    0.0000 C   0  0  0  0  0  0  0  0  0  0  0  0
   -4.9416    0.4131    0.0000 C   0  0  0  0  0  0  0  0  0  0  0  0
   -4.0639    1.6295    0.0000 O   0  0  0  0  0  0  0  0  0  0  0  0
   -6.4339    0.5650    0.0000 N   0  0  0  0  0  0  0  0  0  0  0  0
   -7.0484    1.9333    0.0000 C   0  0  0  0  0  0  0  0  0  0  0  0
   -8.5407    2.0852    0.0000 C   0  0  0  0  0  0  0  0  0  0  0  0
   -9.1553    3.4535    0.0000 O   0  0  0  0  0  0  0  0  0  0  0  0
   -9.4184    0.8688    0.0000 S   0  0  0  0  0  0  0  0  0  0  0  0
   -0.7278   -2.6274    0.0000 C   0  0  0  0  0  0  0  0  0  0  0  0
    0.0264   -3.9240    0.0000 C   0  0  0  0  0  0  0  0  0  0  0  0
    1.4926   -3.6073    0.0000 C   0  0  0  0  0  0  0  0  0  0  0  0
    1.6445   -2.1150    0.0000 C   0  0  0  0  0  0  0  0  0  0  0  0
    2.8552   -1.2294    0.0000 C   0  0  0  0  0  0  0  0  0  0  0  0
    4.2275   -1.8350    0.0000 C   0  0  0  0  0  0  0  0  0  0  0  0
    4.3891   -3.3263    0.0000 O   0  0  0  0  0  0  0  0  0  0  0  0
    5.4381   -0.9494    0.0000 C   0  0  0  0  0  0  0  0  0  0  0  0
    5.2764    0.5419    0.0000 C   0  0  0  0  0  0  0  0  0  0  0  0
    6.4871    1.4275    0.0000 C   0  0  0  0  0  0  0  0  0  0  0  0
    6.3254    2.9188    0.0000 C   0  0  0  0  0  0  0  0  0  0  0  0
    7.5360    3.8044    0.0000 O   0  0  0  0  0  0  0  0  0  0  0  0
    4.9531    3.5244    0.0000 C   0  0  0  0  0  0  0  0  0  0  0  0
    3.7425    2.6388    0.0000 C   0  0  0  0  0  0  0  0  0  0  0  0
    3.9041    1.1475    0.0000 C   0  0  0  0  0  0  0  0  0  0  0  0
    2.5318    1.7531    0.0000 C   0  0  0  0  0  0  0  0  0  0  0  0
    2.6935    0.2619    0.0000 C   0  0  0  0  0  0  0  0  0  0  0  0
    1.3212    0.8675    0.0000 C   0  0  0  0  0  0  0  0  0  0  0  0
    0.1105   -0.0181    0.0000 C   0  0  0  0  0  0  0  0  0  0  0  0
   -1.2618    0.5875    0.0000 O   0  0  0  0  0  0  0  0  0  0  0  0
    0.2722   -1.5094    0.0000 C   0  0  0  0  0  0  0  0  0  0  0  0
   -1.1559   -1.0505    0.0000 C   0  0  0  0  0  0  0  0  0  0  0  0
  2  1  1  6
  2  3  1  0
  3  4  1  0
  4  5  1  0
  5  6  2  0
  5  7  1  0
  7  8  1  0
  8  9  1  0
  9 10  2  0
  9 11  1  0
  2 12  1  0
 12 13  1  6
 13 14  1  0
 15 14  1  6
 15 16  1  0
 16 17  1  1
 17 18  1  1
 17 19  1  0
 20 19  1  1
 20 21  1  0
 21 22  1  0
 22 23  1  1
 22 24  1  0
 24 25  1  0
 25 26  1  0
 26 27  1  6
 26 28  1  0
 28 29  1  6
 29 30  1  0
 30 31  1  1
 30 32  1  0
 32 33  1  6
 32 12  1  0
 32 15  1  0
 28 16  1  0
 26 20  1  0
M  END
>  <MS_ID>  (3713) 
MS4155

>  <SMILES>  (3713) 
C[C@H](CCC(=O)NCC(=O)S)[C@H]1CC[C@H]2[C@@H]3[C@H](O)C[C@@H]4C[C@H](O)CC[C@]4(C)[C@H]3C[C@H](O)[C@]12C

>  <Structure_dimension>  (3713) 
2D

$$$$
MS4156
     RDKit          2D

 39 43  0  0  0  0  0  0  0  0999 V2000
   -0.9718   -4.7646    0.0000 C   0  0  0  0  0  0  0  0  0  0  0  0
   -0.4121   -3.3730    0.0000 C   0  0  0  0  0  0  0  0  0  0  0  0
   -1.3374   -2.1924    0.0000 C   0  0  0  0  0  0  0  0  0  0  0  0
   -2.8225   -2.4035    0.0000 C   0  0  0  0  0  0  0  0  0  0  0  0
   -3.7478   -1.2229    0.0000 C   0  0  0  0  0  0  0  0  0  0  0  0
   -3.1881    0.1688    0.0000 O   0  0  0  0  0  0  0  0  0  0  0  0
   -5.2329   -1.4340    0.0000 N   0  0  0  0  0  0  0  0  0  0  0  0
   -6.1582   -0.2534    0.0000 C   0  0  0  0  0  0  0  0  0  0  0  0
   -7.6433   -0.4644    0.0000 C   0  0  0  0  0  0  0  0  0  0  0  0
   -8.5686    0.7161    0.0000 C   0  0  0  0  0  0  0  0  0  0  0  0
  -10.0676    0.6615    0.0000 C   0  0  0  0  0  0  0  0  0  0  0  0
  -10.5828    2.0702    0.0000 N   0  0  0  0  0  0  0  0  0  0  0  0
   -9.4023    2.9955    0.0000 C   0  0  0  0  0  0  0  0  0  0  0  0
   -8.1574    2.1587    0.0000 N   0  0  0  0  0  0  0  0  0  0  0  0
   -5.5985    1.1383    0.0000 C   0  0  0  0  0  0  0  0  0  0  0  0
   -4.1134    1.3493    0.0000 O   0  0  0  0  0  0  0  0  0  0  0  0
   -6.5238    2.3189    0.0000 O   0  0  0  0  0  0  0  0  0  0  0  0
    1.0730   -3.1619    0.0000 C   0  0  0  0  0  0  0  0  0  0  0  0
    2.1167   -4.2393    0.0000 C   0  0  0  0  0  0  0  0  0  0  0  0
    3.4638   -3.5797    0.0000 C   0  0  0  0  0  0  0  0  0  0  0  0
    3.2528   -2.0946    0.0000 C   0  0  0  0  0  0  0  0  0  0  0  0
    4.2151   -0.9440    0.0000 C   0  0  0  0  0  0  0  0  0  0  0  0
    5.6928   -1.2022    0.0000 C   0  0  0  0  0  0  0  0  0  0  0  0
    6.2080   -2.6109    0.0000 O   0  0  0  0  0  0  0  0  0  0  0  0
    6.6552   -0.0516    0.0000 C   0  0  0  0  0  0  0  0  0  0  0  0
    8.1328   -0.3098    0.0000 O   0  0  0  0  0  0  0  0  0  0  0  0
    6.1399    1.3571    0.0000 C   0  0  0  0  0  0  0  0  0  0  0  0
    7.1023    2.5077    0.0000 C   0  0  0  0  0  0  0  0  0  0  0  0
    6.5871    3.9164    0.0000 C   0  0  0  0  0  0  0  0  0  0  0  0
    7.5495    5.0670    0.0000 O   0  0  0  0  0  0  0  0  0  0  0  0
    5.1095    4.1746    0.0000 C   0  0  0  0  0  0  0  0  0  0  0  0
    4.1471    3.0240    0.0000 C   0  0  0  0  0  0  0  0  0  0  0  0
    4.6623    1.6153    0.0000 C   0  0  0  0  0  0  0  0  0  0  0  0
    3.1847    1.8735    0.0000 C   0  0  0  0  0  0  0  0  0  0  0  0
    3.6999    0.4647    0.0000 C   0  0  0  0  0  0  0  0  0  0  0  0
    2.2223    0.7229    0.0000 C   0  0  0  0  0  0  0  0  0  0  0  0
    1.2599   -0.4277    0.0000 C   0  0  0  0  0  0  0  0  0  0  0  0
    1.7751   -1.8364    0.0000 C   0  0  0  0  0  0  0  0  0  0  0  0
    0.2786   -1.7341    0.0000 C   0  0  0  0  0  0  0  0  0  0  0  0
  2  1  1  6
  2  3  1  0
  3  4  1  0
  4  5  1  0
  5  6  2  0
  5  7  1  0
  7  8  1  0
  8  9  1  1
  9 10  1  0
 10 11  2  0
 11 12  1  0
 12 13  2  0
 13 14  1  0
  8 15  1  0
 15 16  2  0
 15 17  1  0
  2 18  1  0
 18 19  1  6
 19 20  1  0
 21 20  1  6
 21 22  1  0
 22 23  1  1
 23 24  1  1
 23 25  1  0
 25 26  1  1
 25 27  1  0
 27 28  1  1
 28 29  1  0
 29 30  1  1
 29 31  1  0
 31 32  1  0
 32 33  1  0
 33 34  1  6
 33 35  1  0
 35 36  1  6
 36 37  1  0
 37 38  1  0
 38 39  1  6
 14 10  1  0
 38 18  1  0
 38 21  1  0
 35 22  1  0
 33 27  1  0
M  END
>  <MS_ID>  (3714) 
MS4156

>  <SMILES>  (3714) 
C[C@H](CCC(=O)N[C@@H](Cc1cnc[nH]1)C(=O)O)[C@H]1CC[C@H]2[C@@H]3[C@H](O)[C@H](O)[C@@H]4C[C@H](O)CC[C@]4(C)[C@H]3CC[C@]12C

>  <Structure_dimension>  (3714) 
2D

$$$$
MS4157
     RDKit          2D

 28 31  0  0  0  0  0  0  0  0999 V2000
   -5.1936   -2.1523    0.0000 C   0  0  0  0  0  0  0  0  0  0  0  0
   -4.0282   -1.2079    0.0000 C   0  0  0  0  0  0  0  0  0  0  0  0
   -4.2633    0.2735    0.0000 C   0  0  0  0  0  0  0  0  0  0  0  0
   -5.6638    0.8107    0.0000 C   0  0  0  0  0  0  0  0  0  0  0  0
   -5.8990    2.2921    0.0000 C   0  0  0  0  0  0  0  0  0  0  0  0
   -4.7335    3.2365    0.0000 O   0  0  0  0  0  0  0  0  0  0  0  0
   -7.2995    2.8292    0.0000 O   0  0  0  0  0  0  0  0  0  0  0  0
   -2.6276   -1.7450    0.0000 C   0  0  0  0  0  0  0  0  0  0  0  0
   -2.2390   -3.1938    0.0000 C   0  0  0  0  0  0  0  0  0  0  0  0
   -0.7410   -3.2718    0.0000 C   0  0  0  0  0  0  0  0  0  0  0  0
   -0.2039   -1.8713    0.0000 C   0  0  0  0  0  0  0  0  0  0  0  0
    1.1963   -1.3333    0.0000 C   0  0  0  0  0  0  0  0  0  0  0  0
    2.3623   -2.2769    0.0000 C   0  0  0  0  0  0  0  0  0  0  0  0
    3.7625   -1.7389    0.0000 C   0  0  0  0  0  0  0  0  0  0  0  0
    4.9286   -2.6825    0.0000 O   0  0  0  0  0  0  0  0  0  0  0  0
    3.9967   -0.2573    0.0000 C   0  0  0  0  0  0  0  0  0  0  0  0
    5.3969    0.2807    0.0000 C   0  0  0  0  0  0  0  0  0  0  0  0
    5.6311    1.7623    0.0000 C   0  0  0  0  0  0  0  0  0  0  0  0
    7.0313    2.3003    0.0000 O   0  0  0  0  0  0  0  0  0  0  0  0
    4.4651    2.7059    0.0000 C   0  0  0  0  0  0  0  0  0  0  0  0
    3.0649    2.1679    0.0000 C   0  0  0  0  0  0  0  0  0  0  0  0
    2.8307    0.6863    0.0000 C   0  0  0  0  0  0  0  0  0  0  0  0
    1.6647    1.6299    0.0000 C   0  0  0  0  0  0  0  0  0  0  0  0
    1.4305    0.1483    0.0000 C   0  0  0  0  0  0  0  0  0  0  0  0
    0.2645    1.0919    0.0000 C   0  0  0  0  0  0  0  0  0  0  0  0
   -1.1357    0.5539    0.0000 C   0  0  0  0  0  0  0  0  0  0  0  0
   -1.3699   -0.9277    0.0000 C   0  0  0  0  0  0  0  0  0  0  0  0
   -2.6282   -0.1111    0.0000 C   0  0  0  0  0  0  0  0  0  0  0  0
  2  1  1  6
  2  3  1  0
  3  4  1  0
  4  5  1  0
  5  6  2  0
  5  7  1  0
  2  8  1  0
  8  9  1  6
  9 10  1  0
 11 10  1  6
 11 12  1  0
 12 13  1  1
 13 14  1  0
 14 15  1  1
 14 16  1  0
 16 17  1  1
 17 18  1  0
 18 19  2  0
 18 20  1  0
 20 21  1  0
 21 22  1  0
 22 23  1  6
 22 24  1  0
 24 25  1  6
 25 26  1  0
 26 27  1  0
 27 28  1  6
 27  8  1  0
 27 11  1  0
 24 12  1  0
 22 16  1  0
M  END
>  <MS_ID>  (3715) 
MS4157

>  <SMILES>  (3715) 
C[C@H](CCC(=O)O)[C@H]1CC[C@H]2[C@@H]3C[C@H](O)[C@@H]4CC(=O)CC[C@]4(C)[C@H]3CC[C@]12C

>  <Structure_dimension>  (3715) 
2D

$$$$
MS4159
     RDKit          2D

 36 39  0  0  0  0  0  0  0  0999 V2000
   -1.3025   -4.3331    0.0000 C   0  0  0  0  0  0  0  0  0  0  0  0
   -0.5761   -3.0207    0.0000 C   0  0  0  0  0  0  0  0  0  0  0  0
   -1.3495   -1.7355    0.0000 C   0  0  0  0  0  0  0  0  0  0  0  0
   -2.8492   -1.7626    0.0000 C   0  0  0  0  0  0  0  0  0  0  0  0
   -3.6226   -0.4773    0.0000 C   0  0  0  0  0  0  0  0  0  0  0  0
   -2.8962    0.8351    0.0000 O   0  0  0  0  0  0  0  0  0  0  0  0
   -5.1223   -0.5044    0.0000 C   0  0  0  0  0  0  0  0  0  0  0  0
   -5.8487   -1.8168    0.0000 O   0  0  0  0  0  0  0  0  0  0  0  0
   -5.8957    0.7808    0.0000 N   0  0  0  0  0  0  0  0  0  0  0  0
   -7.3955    0.7537    0.0000 C   0  0  0  0  0  0  0  0  0  0  0  0
   -8.1688    2.0390    0.0000 C   0  0  0  0  0  0  0  0  0  0  0  0
   -9.6686    2.0119    0.0000 S   0  0  0  0  0  0  0  0  0  0  0  0
   -9.6957    3.5116    0.0000 O   0  0  0  0  0  0  0  0  0  0  0  0
   -9.6415    0.5121    0.0000 O   0  0  0  0  0  0  0  0  0  0  0  0
  -11.1683    1.9848    0.0000 O   0  0  0  0  0  0  0  0  0  0  0  0
    0.9236   -2.9936    0.0000 C   0  0  0  0  0  0  0  0  0  0  0  0
    1.8271   -4.1910    0.0000 C   0  0  0  0  0  0  0  0  0  0  0  0
    3.2451   -3.7018    0.0000 C   0  0  0  0  0  0  0  0  0  0  0  0
    3.2180   -2.2020    0.0000 C   0  0  0  0  0  0  0  0  0  0  0  0
    4.3144   -1.1783    0.0000 C   0  0  0  0  0  0  0  0  0  0  0  0
    5.7491   -1.6160    0.0000 C   0  0  0  0  0  0  0  0  0  0  0  0
    6.8455   -0.5923    0.0000 C   0  0  0  0  0  0  0  0  0  0  0  0
    6.5071    0.8690    0.0000 C   0  0  0  0  0  0  0  0  0  0  0  0
    7.6035    1.8927    0.0000 C   0  0  0  0  0  0  0  0  0  0  0  0
    7.2652    3.3541    0.0000 C   0  0  0  0  0  0  0  0  0  0  0  0
    8.3616    4.3777    0.0000 O   0  0  0  0  0  0  0  0  0  0  0  0
    5.8305    3.7917    0.0000 C   0  0  0  0  0  0  0  0  0  0  0  0
    4.7341    2.7680    0.0000 C   0  0  0  0  0  0  0  0  0  0  0  0
    5.0724    1.3067    0.0000 C   0  0  0  0  0  0  0  0  0  0  0  0
    3.6377    1.7444    0.0000 C   0  0  0  0  0  0  0  0  0  0  0  0
    3.9760    0.2830    0.0000 C   0  0  0  0  0  0  0  0  0  0  0  0
    2.5413    0.7207    0.0000 C   0  0  0  0  0  0  0  0  0  0  0  0
    1.4449   -0.3030    0.0000 C   0  0  0  0  0  0  0  0  0  0  0  0
    0.0102    0.1347    0.0000 O   0  0  0  0  0  0  0  0  0  0  0  0
    1.7832   -1.7643    0.0000 C   0  0  0  0  0  0  0  0  0  0  0  0
    0.3106   -1.4791    0.0000 C   0  0  0  0  0  0  0  0  0  0  0  0
  2  1  1  6
  2  3  1  0
  3  4  1  0
  4  5  1  0
  5  6  2  0
  5  7  1  0
  7  8  2  0
  7  9  1  0
  9 10  1  0
 10 11  1  0
 11 12  1  0
 12 13  2  0
 12 14  2  0
 12 15  1  0
  2 16  1  0
 16 17  1  6
 17 18  1  0
 19 18  1  6
 19 20  1  0
 20 21  1  1
 21 22  1  0
 23 22  1  1
 23 24  1  0
 24 25  1  0
 25 26  1  1
 25 27  1  0
 27 28  1  0
 28 29  1  0
 29 30  1  6
 29 31  1  0
 31 32  1  6
 32 33  1  0
 33 34  1  1
 33 35  1  0
 35 36  1  6
 35 16  1  0
 35 19  1  0
 31 20  1  0
 29 23  1  0
M  END
>  <MS_ID>  (3716) 
MS4159

>  <SMILES>  (3716) 
C[C@H](CCC(=O)C(=O)NCCS(=O)(=O)O)[C@H]1CC[C@H]2[C@@H]3CC[C@@H]4C[C@H](O)CC[C@]4(C)[C@H]3C[C@H](O)[C@]12C

>  <Structure_dimension>  (3716) 
2D

$$$$
MS4160
     RDKit          2D

 37 40  0  0  0  0  0  0  0  0999 V2000
  -11.3057    2.5524    0.0000 C   0  0  0  0  0  0  0  0  0  0  0  0
  -10.4561    1.3162    0.0000 S   0  0  0  0  0  0  0  0  0  0  0  0
   -8.9607    1.4339    0.0000 C   0  0  0  0  0  0  0  0  0  0  0  0
   -8.1111    0.1977    0.0000 C   0  0  0  0  0  0  0  0  0  0  0  0
   -6.6157    0.3154    0.0000 C   0  0  0  0  0  0  0  0  0  0  0  0
   -5.7661   -0.9208    0.0000 N   0  0  0  0  0  0  0  0  0  0  0  0
   -4.2707   -0.8032    0.0000 C   0  0  0  0  0  0  0  0  0  0  0  0
   -3.6250    0.5507    0.0000 O   0  0  0  0  0  0  0  0  0  0  0  0
   -3.4211   -2.0394    0.0000 C   0  0  0  0  0  0  0  0  0  0  0  0
   -1.9258   -1.9217    0.0000 C   0  0  0  0  0  0  0  0  0  0  0  0
   -1.0762   -3.1579    0.0000 C   0  0  0  0  0  0  0  0  0  0  0  0
   -1.7219   -4.5117    0.0000 C   0  0  0  0  0  0  0  0  0  0  0  0
    0.4192   -3.0402    0.0000 C   0  0  0  0  0  0  0  0  0  0  0  0
    1.3934   -4.1808    0.0000 C   0  0  0  0  0  0  0  0  0  0  0  0
    2.7792   -3.6068    0.0000 C   0  0  0  0  0  0  0  0  0  0  0  0
    2.6615   -2.1114    0.0000 C   0  0  0  0  0  0  0  0  0  0  0  0
    3.6941   -1.0234    0.0000 C   0  0  0  0  0  0  0  0  0  0  0  0
    5.1526   -1.3736    0.0000 C   0  0  0  0  0  0  0  0  0  0  0  0
    5.5786   -2.8118    0.0000 O   0  0  0  0  0  0  0  0  0  0  0  0
    6.1852   -0.2855    0.0000 C   0  0  0  0  0  0  0  0  0  0  0  0
    7.6437   -0.6357    0.0000 O   0  0  0  0  0  0  0  0  0  0  0  0
    5.7592    1.1527    0.0000 C   0  0  0  0  0  0  0  0  0  0  0  0
    6.7917    2.2408    0.0000 C   0  0  0  0  0  0  0  0  0  0  0  0
    6.3657    3.6790    0.0000 C   0  0  0  0  0  0  0  0  0  0  0  0
    7.3982    4.7670    0.0000 O   0  0  0  0  0  0  0  0  0  0  0  0
    4.9071    4.0292    0.0000 C   0  0  0  0  0  0  0  0  0  0  0  0
    3.8746    2.9411    0.0000 C   0  0  0  0  0  0  0  0  0  0  0  0
    4.3006    1.5029    0.0000 C   0  0  0  0  0  0  0  0  0  0  0  0
    2.8421    1.8531    0.0000 C   0  0  0  0  0  0  0  0  0  0  0  0
    3.2681    0.4148    0.0000 C   0  0  0  0  0  0  0  0  0  0  0  0
    1.8095    0.7650    0.0000 C   0  0  0  0  0  0  0  0  0  0  0  0
    0.7770   -0.3230    0.0000 C   0  0  0  0  0  0  0  0  0  0  0  0
    1.2030   -1.7613    0.0000 C   0  0  0  0  0  0  0  0  0  0  0  0
   -0.2842   -1.5654    0.0000 C   0  0  0  0  0  0  0  0  0  0  0  0
   -5.9699    1.6692    0.0000 C   0  0  0  0  0  0  0  0  0  0  0  0
   -4.4745    1.7869    0.0000 O   0  0  0  0  0  0  0  0  0  0  0  0
   -6.8195    2.9054    0.0000 O   0  0  0  0  0  0  0  0  0  0  0  0
  1  2  1  0
  2  3  1  0
  3  4  1  0
  5  4  1  1
  5  6  1  0
  6  7  1  0
  7  8  2  0
  7  9  1  0
  9 10  1  0
 10 11  1  0
 11 12  1  6
 11 13  1  0
 13 14  1  6
 14 15  1  0
 16 15  1  6
 16 17  1  0
 17 18  1  1
 18 19  1  1
 18 20  1  0
 20 21  1  1
 20 22  1  0
 22 23  1  1
 23 24  1  0
 24 25  1  1
 24 26  1  0
 26 27  1  0
 27 28  1  0
 28 29  1  6
 28 30  1  0
 30 31  1  6
 31 32  1  0
 32 33  1  0
 33 34  1  6
  5 35  1  0
 35 36  2  0
 35 37  1  0
 33 13  1  0
 33 16  1  0
 30 17  1  0
 28 22  1  0
M  END
>  <MS_ID>  (3717) 
MS4160

>  <SMILES>  (3717) 
CSCC[C@H](NC(=O)CC[C@@H](C)[C@H]1CC[C@H]2[C@@H]3[C@H](O)[C@H](O)[C@@H]4C[C@H](O)CC[C@]4(C)[C@H]3CC[C@]12C)C(=O)O

>  <Structure_dimension>  (3717) 
2D

$$$$
MS4162
     RDKit          2D

 38 41  0  0  0  0  0  0  0  0999 V2000
   -0.6734   -5.0369    0.0000 C   0  0  0  0  0  0  0  0  0  0  0  0
   -0.1857   -3.6184    0.0000 C   0  0  0  0  0  0  0  0  0  0  0  0
   -1.1703   -2.4867    0.0000 C   0  0  0  0  0  0  0  0  0  0  0  0
   -2.6426   -2.7736    0.0000 C   0  0  0  0  0  0  0  0  0  0  0  0
   -3.6272   -1.6420    0.0000 C   0  0  0  0  0  0  0  0  0  0  0  0
   -3.1394   -0.2235    0.0000 O   0  0  0  0  0  0  0  0  0  0  0  0
   -5.0995   -1.9288    0.0000 N   0  0  0  0  0  0  0  0  0  0  0  0
   -6.0841   -0.7972    0.0000 C   0  0  0  0  0  0  0  0  0  0  0  0
   -5.5963    0.6213    0.0000 C   0  0  0  0  0  0  0  0  0  0  0  0
   -6.5809    1.7529    0.0000 S   0  0  0  0  0  0  0  0  0  0  0  0
   -6.0932    3.1714    0.0000 C   0  0  0  0  0  0  0  0  0  0  0  0
   -7.0778    4.3030    0.0000 C   0  0  0  0  0  0  0  0  0  0  0  0
   -8.5501    4.0162    0.0000 O   0  0  0  0  0  0  0  0  0  0  0  0
   -6.5900    5.7215    0.0000 O   0  0  0  0  0  0  0  0  0  0  0  0
   -7.5564   -1.0841    0.0000 C   0  0  0  0  0  0  0  0  0  0  0  0
   -8.0441   -2.5026    0.0000 O   0  0  0  0  0  0  0  0  0  0  0  0
   -8.5410    0.0476    0.0000 O   0  0  0  0  0  0  0  0  0  0  0  0
    1.2866   -3.3315    0.0000 C   0  0  0  0  0  0  0  0  0  0  0  0
    2.3841   -4.3540    0.0000 C   0  0  0  0  0  0  0  0  0  0  0  0
    3.6957   -3.6262    0.0000 C   0  0  0  0  0  0  0  0  0  0  0  0
    3.4089   -2.1539    0.0000 C   0  0  0  0  0  0  0  0  0  0  0  0
    4.3111   -0.9556    0.0000 C   0  0  0  0  0  0  0  0  0  0  0  0
    5.8000   -1.1377    0.0000 C   0  0  0  0  0  0  0  0  0  0  0  0
    6.3867   -2.5182    0.0000 O   0  0  0  0  0  0  0  0  0  0  0  0
    6.7022    0.0606    0.0000 C   0  0  0  0  0  0  0  0  0  0  0  0
    6.1155    1.4411    0.0000 C   0  0  0  0  0  0  0  0  0  0  0  0
    7.0177    2.6395    0.0000 C   0  0  0  0  0  0  0  0  0  0  0  0
    6.4310    4.0200    0.0000 C   0  0  0  0  0  0  0  0  0  0  0  0
    7.3331    5.2183    0.0000 O   0  0  0  0  0  0  0  0  0  0  0  0
    4.9421    4.2021    0.0000 C   0  0  0  0  0  0  0  0  0  0  0  0
    4.0399    3.0038    0.0000 C   0  0  0  0  0  0  0  0  0  0  0  0
    4.6266    1.6233    0.0000 C   0  0  0  0  0  0  0  0  0  0  0  0
    3.1377    1.8054    0.0000 C   0  0  0  0  0  0  0  0  0  0  0  0
    3.7244    0.4249    0.0000 C   0  0  0  0  0  0  0  0  0  0  0  0
    2.2355    0.6071    0.0000 C   0  0  0  0  0  0  0  0  0  0  0  0
    1.3333   -0.5913    0.0000 C   0  0  0  0  0  0  0  0  0  0  0  0
    1.9200   -1.9718    0.0000 C   0  0  0  0  0  0  0  0  0  0  0  0
    0.4202   -1.9463    0.0000 C   0  0  0  0  0  0  0  0  0  0  0  0
  2  1  1  6
  2  3  1  0
  3  4  1  0
  4  5  1  0
  5  6  2  0
  5  7  1  0
  7  8  1  0
  8  9  1  6
  9 10  1  0
 10 11  1  0
 11 12  1  0
 12 13  2  0
 12 14  1  0
  8 15  1  0
 15 16  2  0
 15 17  1  0
  2 18  1  0
 18 19  1  6
 19 20  1  0
 21 20  1  6
 21 22  1  0
 22 23  1  1
 23 24  1  6
 23 25  1  0
 26 25  1  1
 26 27  1  0
 27 28  1  0
 28 29  1  1
 28 30  1  0
 30 31  1  0
 31 32  1  0
 32 33  1  6
 32 34  1  0
 34 35  1  6
 35 36  1  0
 36 37  1  0
 37 38  1  6
 37 18  1  0
 37 21  1  0
 34 22  1  0
 32 26  1  0
M  END
>  <MS_ID>  (3718) 
MS4162

>  <SMILES>  (3718) 
C[C@H](CCC(=O)N[C@@H](CSCC(=O)O)C(=O)O)[C@H]1CC[C@H]2[C@@H]3[C@@H](O)C[C@@H]4C[C@H](O)CC[C@]4(C)[C@H]3CC[C@]12C

>  <Structure_dimension>  (3718) 
2D

$$$$
MS4163
     RDKit          2D

 30 33  0  0  0  0  0  0  0  0999 V2000
    7.7190   -3.6276    0.0000 C   0  0  0  0  0  0  0  0  0  0  0  0
    7.3678   -2.1693    0.0000 O   0  0  0  0  0  0  0  0  0  0  0  0
    5.9292   -1.7443    0.0000 C   0  0  0  0  0  0  0  0  0  0  0  0
    4.8419   -2.7776    0.0000 O   0  0  0  0  0  0  0  0  0  0  0  0
    5.5780   -0.2860    0.0000 C   0  0  0  0  0  0  0  0  0  0  0  0
    4.1395    0.1390    0.0000 C   0  0  0  0  0  0  0  0  0  0  0  0
    3.7883    1.5973    0.0000 C   0  0  0  0  0  0  0  0  0  0  0  0
    4.8756    2.6306    0.0000 C   0  0  0  0  0  0  0  0  0  0  0  0
    2.3498    2.0223    0.0000 C   0  0  0  0  0  0  0  0  0  0  0  0
    1.8481    3.4359    0.0000 C   0  0  0  0  0  0  0  0  0  0  0  0
    0.3486    3.3956    0.0000 C   0  0  0  0  0  0  0  0  0  0  0  0
   -0.0764    1.9571    0.0000 C   0  0  0  0  0  0  0  0  0  0  0  0
   -1.4298    1.3103    0.0000 C   0  0  0  0  0  0  0  0  0  0  0  0
   -2.6666    2.1591    0.0000 C   0  0  0  0  0  0  0  0  0  0  0  0
   -2.5500    3.6545    0.0000 O   0  0  0  0  0  0  0  0  0  0  0  0
   -4.0200    1.5124    0.0000 C   0  0  0  0  0  0  0  0  0  0  0  0
   -4.1367    0.0169    0.0000 C   0  0  0  0  0  0  0  0  0  0  0  0
   -5.4901   -0.6298    0.0000 C   0  0  0  0  0  0  0  0  0  0  0  0
   -6.7269    0.2189    0.0000 O   0  0  0  0  0  0  0  0  0  0  0  0
   -5.6067   -2.1253    0.0000 C   0  0  0  0  0  0  0  0  0  0  0  0
   -6.9601   -2.7720    0.0000 O   0  0  0  0  0  0  0  0  0  0  0  0
   -4.3699   -2.9740    0.0000 C   0  0  0  0  0  0  0  0  0  0  0  0
   -3.0165   -2.3273    0.0000 C   0  0  0  0  0  0  0  0  0  0  0  0
   -2.8999   -0.8318    0.0000 C   0  0  0  0  0  0  0  0  0  0  0  0
   -1.6631   -1.6806    0.0000 C   0  0  0  0  0  0  0  0  0  0  0  0
   -1.5465   -0.1851    0.0000 C   0  0  0  0  0  0  0  0  0  0  0  0
   -0.3097   -1.0338    0.0000 C   0  0  0  0  0  0  0  0  0  0  0  0
    1.0438   -0.3871    0.0000 C   0  0  0  0  0  0  0  0  0  0  0  0
    1.1604    1.1083    0.0000 C   0  0  0  0  0  0  0  0  0  0  0  0
    2.4791    0.3935    0.0000 C   0  0  0  0  0  0  0  0  0  0  0  0
  1  2  1  0
  2  3  1  0
  3  4  2  0
  3  5  1  0
  5  6  1  0
  6  7  1  0
  7  8  1  6
  7  9  1  0
  9 10  1  6
 10 11  1  0
 12 11  1  6
 12 13  1  0
 13 14  1  1
 14 15  1  1
 14 16  1  0
 17 16  1  1
 17 18  1  0
 18 19  1  6
 18 20  1  0
 20 21  1  1
 20 22  1  0
 22 23  1  0
 23 24  1  0
 24 25  1  6
 24 26  1  0
 26 27  1  6
 27 28  1  0
 28 29  1  0
 29 30  1  6
 29  9  1  0
 29 12  1  0
 26 13  1  0
 24 17  1  0
M  END
>  <MS_ID>  (3719) 
MS4163

>  <SMILES>  (3719) 
COC(=O)CC[C@@H](C)[C@H]1CC[C@H]2[C@@H]3[C@H](O)C[C@@H]4[C@@H](O)[C@H](O)CC[C@]4(C)[C@H]3CC[C@]12C

>  <Structure_dimension>  (3719) 
2D

$$$$
MS4166
     RDKit          2D

 30 33  0  0  0  0  0  0  0  0999 V2000
   -3.4828   -3.5922    0.0000 C   0  0  0  0  0  0  0  0  0  0  0  0
   -2.5481   -2.4190    0.0000 C   0  0  0  0  0  0  0  0  0  0  0  0
   -3.0967   -1.0230    0.0000 C   0  0  0  0  0  0  0  0  0  0  0  0
   -4.5801   -0.8000    0.0000 C   0  0  0  0  0  0  0  0  0  0  0  0
   -5.1287    0.5960    0.0000 C   0  0  0  0  0  0  0  0  0  0  0  0
   -4.1940    1.7692    0.0000 O   0  0  0  0  0  0  0  0  0  0  0  0
   -6.6120    0.8190    0.0000 N   0  0  0  0  0  0  0  0  0  0  0  0
   -7.1606    2.2150    0.0000 C   0  0  0  0  0  0  0  0  0  0  0  0
   -8.6440    2.4379    0.0000 C   0  0  0  0  0  0  0  0  0  0  0  0
   -9.1926    3.8340    0.0000 N   0  0  0  0  0  0  0  0  0  0  0  0
   -1.0648   -2.6420    0.0000 C   0  0  0  0  0  0  0  0  0  0  0  0
   -0.3732   -3.9730    0.0000 C   0  0  0  0  0  0  0  0  0  0  0  0
    1.1064   -3.7267    0.0000 C   0  0  0  0  0  0  0  0  0  0  0  0
    1.3293   -2.2433    0.0000 C   0  0  0  0  0  0  0  0  0  0  0  0
    2.5808   -1.4164    0.0000 C   0  0  0  0  0  0  0  0  0  0  0  0
    3.9227   -2.0868    0.0000 C   0  0  0  0  0  0  0  0  0  0  0  0
    5.1742   -1.2599    0.0000 C   0  0  0  0  0  0  0  0  0  0  0  0
    5.0838    0.2373    0.0000 C   0  0  0  0  0  0  0  0  0  0  0  0
    6.3353    1.0642    0.0000 C   0  0  0  0  0  0  0  0  0  0  0  0
    6.2450    2.5615    0.0000 C   0  0  0  0  0  0  0  0  0  0  0  0
    7.4965    3.3884    0.0000 O   0  0  0  0  0  0  0  0  0  0  0  0
    4.9031    3.2319    0.0000 C   0  0  0  0  0  0  0  0  0  0  0  0
    3.6516    2.4050    0.0000 C   0  0  0  0  0  0  0  0  0  0  0  0
    3.7420    0.9077    0.0000 C   0  0  0  0  0  0  0  0  0  0  0  0
    2.4001    1.5781    0.0000 C   0  0  0  0  0  0  0  0  0  0  0  0
    2.4905    0.0808    0.0000 C   0  0  0  0  0  0  0  0  0  0  0  0
    1.1486    0.7512    0.0000 C   0  0  0  0  0  0  0  0  0  0  0  0
   -0.1029   -0.0757    0.0000 C   0  0  0  0  0  0  0  0  0  0  0  0
   -0.0125   -1.5729    0.0000 C   0  0  0  0  0  0  0  0  0  0  0  0
   -1.4171   -1.0465    0.0000 C   0  0  0  0  0  0  0  0  0  0  0  0
  2  1  1  6
  2  3  1  0
  3  4  1  0
  4  5  1  0
  5  6  2  0
  5  7  1  0
  7  8  1  0
  8  9  1  0
  9 10  1  0
  2 11  1  0
 11 12  1  6
 12 13  1  0
 14 13  1  6
 14 15  1  0
 15 16  1  1
 16 17  1  0
 18 17  1  1
 18 19  1  0
 19 20  1  0
 20 21  1  1
 20 22  1  0
 22 23  1  0
 23 24  1  0
 24 25  1  6
 24 26  1  0
 26 27  1  6
 27 28  1  0
 28 29  1  0
 29 30  1  6
 29 11  1  0
 29 14  1  0
 26 15  1  0
 24 18  1  0
M  END
>  <MS_ID>  (3720) 
MS4166

>  <SMILES>  (3720) 
C[C@H](CCC(=O)NCCN)[C@H]1CC[C@H]2[C@@H]3CC[C@@H]4C[C@H](O)CC[C@]4(C)[C@H]3CC[C@]12C

>  <Structure_dimension>  (3720) 
2D

$$$$
MS4169
     RDKit          2D

 36 40  0  0  0  0  0  0  0  0999 V2000
   -2.9207   -2.9892    0.0000 C   0  0  0  0  0  0  0  0  0  0  0  0
   -1.9095   -1.8813    0.0000 C   0  0  0  0  0  0  0  0  0  0  0  0
   -2.3634   -0.4516    0.0000 C   0  0  0  0  0  0  0  0  0  0  0  0
   -3.8285   -0.1299    0.0000 C   0  0  0  0  0  0  0  0  0  0  0  0
   -4.2824    1.2998    0.0000 C   0  0  0  0  0  0  0  0  0  0  0  0
   -5.7474    1.6216    0.0000 C   0  0  0  0  0  0  0  0  0  0  0  0
   -6.2013    3.0513    0.0000 C   0  0  0  0  0  0  0  0  0  0  0  0
   -7.6664    3.3731    0.0000 C   0  0  0  0  0  0  0  0  0  0  0  0
   -8.6776    2.2651    0.0000 C   0  0  0  0  0  0  0  0  0  0  0  0
   -8.2237    0.8355    0.0000 C   0  0  0  0  0  0  0  0  0  0  0  0
   -6.7586    0.5137    0.0000 C   0  0  0  0  0  0  0  0  0  0  0  0
   -4.8397   -1.2378    0.0000 C   0  0  0  0  0  0  0  0  0  0  0  0
   -4.3858   -2.6674    0.0000 O   0  0  0  0  0  0  0  0  0  0  0  0
   -6.3048   -0.9160    0.0000 O   0  0  0  0  0  0  0  0  0  0  0  0
   -0.4444   -2.2031    0.0000 C   0  0  0  0  0  0  0  0  0  0  0  0
    0.1564   -3.5775    0.0000 C   0  0  0  0  0  0  0  0  0  0  0  0
    1.6492   -3.4308    0.0000 C   0  0  0  0  0  0  0  0  0  0  0  0
    1.9710   -1.9657    0.0000 C   0  0  0  0  0  0  0  0  0  0  0  0
    3.2751   -1.2245    0.0000 C   0  0  0  0  0  0  0  0  0  0  0  0
    4.5690   -1.9832    0.0000 C   0  0  0  0  0  0  0  0  0  0  0  0
    4.5589   -3.4832    0.0000 O   0  0  0  0  0  0  0  0  0  0  0  0
    5.8731   -1.2420    0.0000 C   0  0  0  0  0  0  0  0  0  0  0  0
    5.8832    0.2579    0.0000 C   0  0  0  0  0  0  0  0  0  0  0  0
    7.1873    0.9991    0.0000 C   0  0  0  0  0  0  0  0  0  0  0  0
    7.1974    2.4991    0.0000 C   0  0  0  0  0  0  0  0  0  0  0  0
    8.5015    3.2403    0.0000 O   0  0  0  0  0  0  0  0  0  0  0  0
    5.9035    3.2579    0.0000 C   0  0  0  0  0  0  0  0  0  0  0  0
    4.5994    2.5167    0.0000 C   0  0  0  0  0  0  0  0  0  0  0  0
    4.5893    1.0167    0.0000 C   0  0  0  0  0  0  0  0  0  0  0  0
    3.2953    1.7754    0.0000 C   0  0  0  0  0  0  0  0  0  0  0  0
    3.2852    0.2755    0.0000 C   0  0  0  0  0  0  0  0  0  0  0  0
    1.9912    1.0342    0.0000 C   0  0  0  0  0  0  0  0  0  0  0  0
    0.6872    0.2930    0.0000 C   0  0  0  0  0  0  0  0  0  0  0  0
   -0.6068    1.0518    0.0000 O   0  0  0  0  0  0  0  0  0  0  0  0
    0.6770   -1.2069    0.0000 C   0  0  0  0  0  0  0  0  0  0  0  0
   -0.6891   -0.5876    0.0000 C   0  0  0  0  0  0  0  0  0  0  0  0
  2  1  1  6
  2  3  1  0
  4  3  1  6
  4  5  1  0
  5  6  1  0
  6  7  2  0
  7  8  1  0
  8  9  2  0
  9 10  1  0
 10 11  2  0
  4 12  1  0
 12 13  2  0
 12 14  1  0
  2 15  1  0
 15 16  1  6
 16 17  1  0
 18 17  1  6
 18 19  1  0
 19 20  1  1
 20 21  1  1
 20 22  1  0
 23 22  1  1
 23 24  1  0
 24 25  1  0
 25 26  1  1
 25 27  1  0
 27 28  1  0
 28 29  1  0
 29 30  1  6
 29 31  1  0
 31 32  1  6
 32 33  1  0
 33 34  1  1
 33 35  1  0
 35 36  1  6
 11  6  1  0
 35 15  1  0
 35 18  1  0
 31 19  1  0
 29 23  1  0
M  END
>  <MS_ID>  (3721) 
MS4169

>  <SMILES>  (3721) 
C[C@H](C[C@@H](Cc1ccccc1)C(=O)O)[C@H]1CC[C@H]2[C@@H]3[C@H](O)C[C@@H]4C[C@H](O)CC[C@]4(C)[C@H]3C[C@H](O)[C@]12C

>  <Structure_dimension>  (3721) 
2D

$$$$
MS4171
     RDKit          2D

 43 47  0  0  0  0  0  0  0  0999 V2000
   -6.3918   -3.4106    0.0000 C   0  0  0  0  0  0  0  0  0  0  0  0
   -5.3538   -2.3278    0.0000 C   0  0  0  0  0  0  0  0  0  0  0  0
   -5.7725   -0.8874    0.0000 C   0  0  0  0  0  0  0  0  0  0  0  0
   -7.2293   -0.5299    0.0000 C   0  0  0  0  0  0  0  0  0  0  0  0
   -7.6480    0.9105    0.0000 C   0  0  0  0  0  0  0  0  0  0  0  0
   -6.6100    1.9933    0.0000 O   0  0  0  0  0  0  0  0  0  0  0  0
   -9.1048    1.2681    0.0000 N   0  0  0  0  0  0  0  0  0  0  0  0
   -9.5235    2.7084    0.0000 C   0  0  0  0  0  0  0  0  0  0  0  0
  -10.9803    3.0660    0.0000 C   0  0  0  0  0  0  0  0  0  0  0  0
  -12.0183    1.9832    0.0000 O   0  0  0  0  0  0  0  0  0  0  0  0
  -11.3990    4.5064    0.0000 O   0  0  0  0  0  0  0  0  0  0  0  0
   -3.8970   -2.6853    0.0000 C   0  0  0  0  0  0  0  0  0  0  0  0
   -3.3300   -4.0740    0.0000 C   0  0  0  0  0  0  0  0  0  0  0  0
   -1.8340   -3.9639    0.0000 C   0  0  0  0  0  0  0  0  0  0  0  0
   -1.4765   -2.5072    0.0000 C   0  0  0  0  0  0  0  0  0  0  0  0
   -0.1547   -1.7981    0.0000 C   0  0  0  0  0  0  0  0  0  0  0  0
    1.1203   -2.5883    0.0000 C   0  0  0  0  0  0  0  0  0  0  0  0
    1.0735   -4.0876    0.0000 O   0  0  0  0  0  0  0  0  0  0  0  0
    2.4421   -1.8793    0.0000 C   0  0  0  0  0  0  0  0  0  0  0  0
    2.4890   -0.3800    0.0000 C   0  0  0  0  0  0  0  0  0  0  0  0
    3.8108    0.3291    0.0000 C   0  0  0  0  0  0  0  0  0  0  0  0
    3.8577    1.8283    0.0000 C   0  0  0  0  0  0  0  0  0  0  0  0
    5.1795    2.5374    0.0000 O   0  0  0  0  0  0  0  0  0  0  0  0
    6.4545    1.7472    0.0000 C   0  0  0  0  0  0  0  0  0  0  0  0
    6.4076    0.2479    0.0000 O   0  0  0  0  0  0  0  0  0  0  0  0
    7.6826   -0.5423    0.0000 C   0  0  0  0  0  0  0  0  0  0  0  0
    7.6358   -2.0416    0.0000 C   0  0  0  0  0  0  0  0  0  0  0  0
    6.3139   -2.7506    0.0000 O   0  0  0  0  0  0  0  0  0  0  0  0
    9.0045    0.1667    0.0000 C   0  0  0  0  0  0  0  0  0  0  0  0
   10.2794   -0.6235    0.0000 O   0  0  0  0  0  0  0  0  0  0  0  0
    9.0513    1.6660    0.0000 C   0  0  0  0  0  0  0  0  0  0  0  0
   10.3731    2.3751    0.0000 O   0  0  0  0  0  0  0  0  0  0  0  0
    7.7763    2.4562    0.0000 C   0  0  0  0  0  0  0  0  0  0  0  0
    7.8232    3.9555    0.0000 O   0  0  0  0  0  0  0  0  0  0  0  0
    2.5827    2.6185    0.0000 C   0  0  0  0  0  0  0  0  0  0  0  0
    1.2609    1.9095    0.0000 C   0  0  0  0  0  0  0  0  0  0  0  0
    1.2140    0.4102    0.0000 C   0  0  0  0  0  0  0  0  0  0  0  0
   -0.0609    1.2004    0.0000 C   0  0  0  0  0  0  0  0  0  0  0  0
   -0.1078   -0.2988    0.0000 C   0  0  0  0  0  0  0  0  0  0  0  0
   -1.3828    0.4914    0.0000 C   0  0  0  0  0  0  0  0  0  0  0  0
   -2.7046   -0.2177    0.0000 C   0  0  0  0  0  0  0  0  0  0  0  0
   -2.7515   -1.7169    0.0000 C   0  0  0  0  0  0  0  0  0  0  0  0
   -4.1021   -1.0643    0.0000 C   0  0  0  0  0  0  0  0  0  0  0  0
  2  1  1  6
  2  3  1  0
  3  4  1  0
  4  5  1  0
  5  6  2  0
  5  7  1  0
  7  8  1  0
  8  9  1  0
  9 10  2  0
  9 11  1  0
  2 12  1  0
 12 13  1  6
 13 14  1  0
 15 14  1  6
 15 16  1  0
 16 17  1  1
 17 18  1  6
 17 19  1  0
 20 19  1  1
 20 21  1  0
 21 22  1  0
 22 23  1  1
 24 23  1  1
 24 25  1  0
 25 26  1  0
 26 27  1  1
 27 28  1  0
 26 29  1  0
 29 30  1  6
 29 31  1  0
 31 32  1  1
 31 33  1  0
 33 34  1  6
 22 35  1  0
 35 36  1  0
 36 37  1  0
 37 38  1  6
 37 39  1  0
 39 40  1  6
 40 41  1  0
 41 42  1  0
 42 43  1  6
 42 12  1  0
 42 15  1  0
 39 16  1  0
 37 20  1  0
 33 24  1  0
M  END
>  <MS_ID>  (3722) 
MS4171

>  <SMILES>  (3722) 
C[C@H](CCC(=O)NCC(=O)O)[C@H]1CC[C@H]2[C@@H]3[C@@H](O)C[C@@H]4C[C@H](O[C@@H]5O[C@H](CO)[C@@H](O)[C@H](O)[C@H]5O)CC[C@]4(C)[C@H]3CC[C@]12C

>  <Structure_dimension>  (3722) 
2D

$$$$
MS4172
     RDKit          2D

 28 31  0  0  0  0  0  0  0  0999 V2000
   -5.1275   -2.0302    0.0000 C   0  0  0  0  0  0  0  0  0  0  0  0
   -3.9468   -1.1050    0.0000 C   0  0  0  0  0  0  0  0  0  0  0  0
   -4.1576    0.3801    0.0000 C   0  0  0  0  0  0  0  0  0  0  0  0
   -5.5492    0.9401    0.0000 C   0  0  0  0  0  0  0  0  0  0  0  0
   -5.7600    2.4252    0.0000 C   0  0  0  0  0  0  0  0  0  0  0  0
   -4.5793    3.3503    0.0000 O   0  0  0  0  0  0  0  0  0  0  0  0
   -7.1516    2.9851    0.0000 O   0  0  0  0  0  0  0  0  0  0  0  0
   -2.5552   -1.6650    0.0000 C   0  0  0  0  0  0  0  0  0  0  0  0
   -2.1903   -3.1199    0.0000 C   0  0  0  0  0  0  0  0  0  0  0  0
   -0.6938   -3.2225    0.0000 C   0  0  0  0  0  0  0  0  0  0  0  0
   -0.1339   -1.8309    0.0000 C   0  0  0  0  0  0  0  0  0  0  0  0
    1.2750   -1.3159    0.0000 C   0  0  0  0  0  0  0  0  0  0  0  0
    2.4254   -2.2785    0.0000 C   0  0  0  0  0  0  0  0  0  0  0  0
    2.1670   -3.7560    0.0000 I   0  0  0  0  0  0  0  0  0  0  0  0
    3.8342   -1.7635    0.0000 C   0  0  0  0  0  0  0  0  0  0  0  0
    4.0926   -0.2859    0.0000 C   0  0  0  0  0  0  0  0  0  0  0  0
    5.5014    0.2291    0.0000 C   0  0  0  0  0  0  0  0  0  0  0  0
    5.7598    1.7067    0.0000 C   0  0  0  0  0  0  0  0  0  0  0  0
    7.1687    2.2217    0.0000 O   0  0  0  0  0  0  0  0  0  0  0  0
    4.6094    2.6692    0.0000 C   0  0  0  0  0  0  0  0  0  0  0  0
    3.2006    2.1542    0.0000 C   0  0  0  0  0  0  0  0  0  0  0  0
    2.9422    0.6767    0.0000 C   0  0  0  0  0  0  0  0  0  0  0  0
    1.7918    1.6392    0.0000 C   0  0  0  0  0  0  0  0  0  0  0  0
    1.5334    0.1617    0.0000 C   0  0  0  0  0  0  0  0  0  0  0  0
    0.3830    1.1242    0.0000 C   0  0  0  0  0  0  0  0  0  0  0  0
   -1.0259    0.6093    0.0000 C   0  0  0  0  0  0  0  0  0  0  0  0
   -1.2843   -0.8683    0.0000 C   0  0  0  0  0  0  0  0  0  0  0  0
   -2.5290   -0.0313    0.0000 C   0  0  0  0  0  0  0  0  0  0  0  0
  2  1  1  6
  2  3  1  0
  3  4  1  0
  4  5  1  0
  5  6  2  0
  5  7  1  0
  2  8  1  0
  8  9  1  6
  9 10  1  0
 11 10  1  6
 11 12  1  0
 12 13  1  1
 13 14  1  1
 13 15  1  0
 16 15  1  1
 16 17  1  0
 17 18  1  0
 18 19  1  1
 18 20  1  0
 20 21  1  0
 21 22  1  0
 22 23  1  6
 22 24  1  0
 24 25  1  6
 25 26  1  0
 26 27  1  0
 27 28  1  6
 27  8  1  0
 27 11  1  0
 24 12  1  0
 22 16  1  0
M  END
>  <MS_ID>  (3723) 
MS4172

>  <SMILES>  (3723) 
C[C@H](CCC(=O)O)[C@H]1CC[C@H]2[C@@H]3[C@H](I)C[C@@H]4C[C@H](O)CC[C@]4(C)[C@H]3CC[C@]12C

>  <Structure_dimension>  (3723) 
2D

$$$$
MS4173
     RDKit          2D

 28 31  0  0  0  0  0  0  0  0999 V2000
   -4.6352   -2.6140    0.0000 C   0  0  0  0  0  0  0  0  0  0  0  0
   -3.5136   -1.6180    0.0000 C   0  0  0  0  0  0  0  0  0  0  0  0
   -3.8154   -0.1486    0.0000 C   0  0  0  0  0  0  0  0  0  0  0  0
   -5.2387    0.3247    0.0000 C   0  0  0  0  0  0  0  0  0  0  0  0
   -5.5405    1.7940    0.0000 C   0  0  0  0  0  0  0  0  0  0  0  0
   -4.4189    2.7900    0.0000 O   0  0  0  0  0  0  0  0  0  0  0  0
   -6.9639    2.2673    0.0000 C   0  0  0  0  0  0  0  0  0  0  0  0
   -7.2657    3.7367    0.0000 F   0  0  0  0  0  0  0  0  0  0  0  0
   -2.0902   -2.0913    0.0000 C   0  0  0  0  0  0  0  0  0  0  0  0
   -1.6365   -3.5210    0.0000 C   0  0  0  0  0  0  0  0  0  0  0  0
   -0.1366   -3.5313    0.0000 C   0  0  0  0  0  0  0  0  0  0  0  0
    0.3368   -2.1080    0.0000 C   0  0  0  0  0  0  0  0  0  0  0  0
    1.7112   -1.5073    0.0000 C   0  0  0  0  0  0  0  0  0  0  0  0
    2.9187   -2.3973    0.0000 C   0  0  0  0  0  0  0  0  0  0  0  0
    4.2932   -1.7966    0.0000 C   0  0  0  0  0  0  0  0  0  0  0  0
    4.4602   -0.3060    0.0000 C   0  0  0  0  0  0  0  0  0  0  0  0
    5.8347    0.2947    0.0000 C   0  0  0  0  0  0  0  0  0  0  0  0
    6.0017    1.7854    0.0000 C   0  0  0  0  0  0  0  0  0  0  0  0
    7.3762    2.3861    0.0000 O   0  0  0  0  0  0  0  0  0  0  0  0
    4.7943    2.6754    0.0000 C   0  0  0  0  0  0  0  0  0  0  0  0
    3.4198    2.0747    0.0000 C   0  0  0  0  0  0  0  0  0  0  0  0
    3.2528    0.5840    0.0000 C   0  0  0  0  0  0  0  0  0  0  0  0
    2.0453    1.4740    0.0000 C   0  0  0  0  0  0  0  0  0  0  0  0
    1.8783   -0.0166    0.0000 C   0  0  0  0  0  0  0  0  0  0  0  0
    0.6708    0.8734    0.0000 C   0  0  0  0  0  0  0  0  0  0  0  0
   -0.7036    0.2727    0.0000 C   0  0  0  0  0  0  0  0  0  0  0  0
   -0.8707   -1.2180    0.0000 C   0  0  0  0  0  0  0  0  0  0  0  0
   -2.1645   -0.4591    0.0000 C   0  0  0  0  0  0  0  0  0  0  0  0
  2  1  1  6
  2  3  1  0
  3  4  1  0
  4  5  1  0
  5  6  2  0
  5  7  1  0
  7  8  1  0
  2  9  1  0
  9 10  1  6
 10 11  1  0
 12 11  1  6
 12 13  1  0
 13 14  1  1
 14 15  1  0
 16 15  1  1
 16 17  1  0
 17 18  1  0
 18 19  1  1
 18 20  1  0
 20 21  1  0
 21 22  1  0
 22 23  1  6
 22 24  1  0
 24 25  1  6
 25 26  1  0
 26 27  1  0
 27 28  1  6
 27  9  1  0
 27 12  1  0
 24 13  1  0
 22 16  1  0
M  END
>  <MS_ID>  (3724) 
MS4173

>  <SMILES>  (3724) 
C[C@H](CCC(=O)CF)[C@H]1CC[C@H]2[C@@H]3CC[C@@H]4C[C@H](O)CC[C@]4(C)[C@H]3CC[C@]12C

>  <Structure_dimension>  (3724) 
2D

$$$$
MS4175
     RDKit          2D

 39 42  0  0  0  0  0  0  0  0999 V2000
   -0.1970   -4.7350    0.0000 C   0  0  0  0  0  0  0  0  0  0  0  0
    0.3598   -3.3422    0.0000 C   0  0  0  0  0  0  0  0  0  0  0  0
   -0.5680   -2.1635    0.0000 C   0  0  0  0  0  0  0  0  0  0  0  0
   -2.0526   -2.3777    0.0000 C   0  0  0  0  0  0  0  0  0  0  0  0
   -2.9804   -1.1990    0.0000 C   0  0  0  0  0  0  0  0  0  0  0  0
   -2.4235    0.1938    0.0000 O   0  0  0  0  0  0  0  0  0  0  0  0
   -4.4650   -1.4132    0.0000 N   0  0  0  0  0  0  0  0  0  0  0  0
   -5.3928   -0.2346    0.0000 C   0  0  0  0  0  0  0  0  0  0  0  0
   -6.8774   -0.4487    0.0000 C   0  0  0  0  0  0  0  0  0  0  0  0
   -7.8052    0.7299    0.0000 C   0  0  0  0  0  0  0  0  0  0  0  0
   -9.2899    0.5158    0.0000 C   0  0  0  0  0  0  0  0  0  0  0  0
  -10.2176    1.6944    0.0000 N   0  0  0  0  0  0  0  0  0  0  0  0
  -11.7023    1.4802    0.0000 C   0  0  0  0  0  0  0  0  0  0  0  0
  -12.6301    2.6589    0.0000 N   0  0  0  0  0  0  0  0  0  0  0  0
  -12.2591    0.0874    0.0000 N   0  0  0  0  0  0  0  0  0  0  0  0
   -4.8360    1.1583    0.0000 C   0  0  0  0  0  0  0  0  0  0  0  0
   -3.3513    1.3724    0.0000 O   0  0  0  0  0  0  0  0  0  0  0  0
   -5.7637    2.3369    0.0000 O   0  0  0  0  0  0  0  0  0  0  0  0
    1.8445   -3.1280    0.0000 C   0  0  0  0  0  0  0  0  0  0  0  0
    2.8904   -4.2032    0.0000 C   0  0  0  0  0  0  0  0  0  0  0  0
    4.2362   -3.5408    0.0000 C   0  0  0  0  0  0  0  0  0  0  0  0
    4.0220   -2.0561    0.0000 C   0  0  0  0  0  0  0  0  0  0  0  0
    4.9820   -0.9036    0.0000 C   0  0  0  0  0  0  0  0  0  0  0  0
    6.4601   -1.1587    0.0000 C   0  0  0  0  0  0  0  0  0  0  0  0
    6.9783   -2.5663    0.0000 O   0  0  0  0  0  0  0  0  0  0  0  0
    7.4201   -0.0061    0.0000 C   0  0  0  0  0  0  0  0  0  0  0  0
    6.9020    1.4016    0.0000 C   0  0  0  0  0  0  0  0  0  0  0  0
    7.8620    2.5541    0.0000 C   0  0  0  0  0  0  0  0  0  0  0  0
    7.3438    3.9618    0.0000 C   0  0  0  0  0  0  0  0  0  0  0  0
    8.3038    5.1144    0.0000 O   0  0  0  0  0  0  0  0  0  0  0  0
    5.8657    4.2169    0.0000 C   0  0  0  0  0  0  0  0  0  0  0  0
    4.9057    3.0643    0.0000 C   0  0  0  0  0  0  0  0  0  0  0  0
    5.4238    1.6567    0.0000 C   0  0  0  0  0  0  0  0  0  0  0  0
    3.9457    1.9118    0.0000 C   0  0  0  0  0  0  0  0  0  0  0  0
    4.4638    0.5041    0.0000 C   0  0  0  0  0  0  0  0  0  0  0  0
    2.9857    0.7592    0.0000 C   0  0  0  0  0  0  0  0  0  0  0  0
    2.0257   -0.3934    0.0000 C   0  0  0  0  0  0  0  0  0  0  0  0
    2.5438   -1.8010    0.0000 C   0  0  0  0  0  0  0  0  0  0  0  0
    1.0471   -1.7018    0.0000 C   0  0  0  0  0  0  0  0  0  0  0  0
  2  1  1  6
  2  3  1  0
  3  4  1  0
  4  5  1  0
  5  6  2  0
  5  7  1  0
  7  8  1  0
  8  9  1  1
  9 10  1  0
 10 11  1  0
 11 12  1  0
 12 13  2  0
 13 14  1  0
 13 15  1  0
  8 16  1  0
 16 17  2  0
 16 18  1  0
  2 19  1  0
 19 20  1  6
 20 21  1  0
 22 21  1  6
 22 23  1  0
 23 24  1  1
 24 25  1  6
 24 26  1  0
 27 26  1  1
 27 28  1  0
 28 29  1  0
 29 30  1  1
 29 31  1  0
 31 32  1  0
 32 33  1  0
 33 34  1  6
 33 35  1  0
 35 36  1  6
 36 37  1  0
 37 38  1  0
 38 39  1  6
 38 19  1  0
 38 22  1  0
 35 23  1  0
 33 27  1  0
M  END
>  <MS_ID>  (3725) 
MS4175

>  <SMILES>  (3725) 
C[C@H](CCC(=O)N[C@@H](CCCN=C(N)N)C(=O)O)[C@H]1CC[C@H]2[C@@H]3[C@@H](O)C[C@@H]4C[C@H](O)CC[C@]4(C)[C@H]3CC[C@]12C

>  <Structure_dimension>  (3725) 
2D

$$$$
MS4182
     RDKit          2D

 28 31  0  0  0  0  0  0  0  0999 V2000
   -8.6270    2.9347    0.0000 C   0  0  0  0  0  0  0  0  0  0  0  0
   -7.1503    2.6710    0.0000 C   0  0  0  0  0  0  0  0  0  0  0  0
   -6.6404    1.2603    0.0000 O   0  0  0  0  0  0  0  0  0  0  0  0
   -5.1638    0.9966    0.0000 C   0  0  0  0  0  0  0  0  0  0  0  0
   -4.1971    2.1436    0.0000 O   0  0  0  0  0  0  0  0  0  0  0  0
   -4.6538   -0.4140    0.0000 C   0  0  0  0  0  0  0  0  0  0  0  0
   -3.1772   -0.6777    0.0000 C   0  0  0  0  0  0  0  0  0  0  0  0
   -2.6672   -2.0884    0.0000 C   0  0  0  0  0  0  0  0  0  0  0  0
   -3.6339   -3.2354    0.0000 C   0  0  0  0  0  0  0  0  0  0  0  0
   -1.1906   -2.3521    0.0000 C   0  0  0  0  0  0  0  0  0  0  0  0
   -0.5360   -3.7017    0.0000 C   0  0  0  0  0  0  0  0  0  0  0  0
    0.9499   -3.4962    0.0000 C   0  0  0  0  0  0  0  0  0  0  0  0
    1.2136   -2.0196    0.0000 C   0  0  0  0  0  0  0  0  0  0  0  0
    2.4874   -1.2275    0.0000 C   0  0  0  0  0  0  0  0  0  0  0  0
    3.8103   -1.9346    0.0000 C   0  0  0  0  0  0  0  0  0  0  0  0
    5.0841   -1.1425    0.0000 C   0  0  0  0  0  0  0  0  0  0  0  0
    5.0350    0.3567    0.0000 C   0  0  0  0  0  0  0  0  0  0  0  0
    6.3088    1.1488    0.0000 C   0  0  0  0  0  0  0  0  0  0  0  0
    6.2597    2.6480    0.0000 C   0  0  0  0  0  0  0  0  0  0  0  0
    4.9369    3.3551    0.0000 C   0  0  0  0  0  0  0  0  0  0  0  0
    3.6630    2.5630    0.0000 C   0  0  0  0  0  0  0  0  0  0  0  0
    3.7121    1.0638    0.0000 C   0  0  0  0  0  0  0  0  0  0  0  0
    2.3892    1.7709    0.0000 C   0  0  0  0  0  0  0  0  0  0  0  0
    2.4383    0.2717    0.0000 C   0  0  0  0  0  0  0  0  0  0  0  0
    1.1154    0.9788    0.0000 C   0  0  0  0  0  0  0  0  0  0  0  0
   -0.1584    0.1867    0.0000 C   0  0  0  0  0  0  0  0  0  0  0  0
   -0.1093   -1.3125    0.0000 C   0  0  0  0  0  0  0  0  0  0  0  0
   -1.4988   -0.7475    0.0000 C   0  0  0  0  0  0  0  0  0  0  0  0
  1  2  1  0
  2  3  1  0
  3  4  1  0
  4  5  2  0
  4  6  1  0
  6  7  1  0
  7  8  1  0
  8  9  1  6
  8 10  1  0
 10 11  1  6
 11 12  1  0
 13 12  1  6
 13 14  1  0
 14 15  1  1
 15 16  1  0
 17 16  1  6
 17 18  1  0
 18 19  1  0
 19 20  1  0
 20 21  1  0
 21 22  1  0
 22 23  1  6
 22 24  1  0
 24 25  1  6
 25 26  1  0
 26 27  1  0
 27 28  1  6
 27 10  1  0
 27 13  1  0
 24 14  1  0
 22 17  1  0
M  END
>  <MS_ID>  (3726) 
MS4182

>  <SMILES>  (3726) 
CCOC(=O)CC[C@@H](C)[C@H]1CC[C@H]2[C@@H]3CC[C@H]4CCCC[C@]4(C)[C@H]3CC[C@]12C

>  <Structure_dimension>  (3726) 
2D

$$$$
MS4183
     RDKit          2D

 33 36  0  0  0  0  0  0  0  0999 V2000
   -2.2798   -4.2044    0.0000 C   0  0  0  0  0  0  0  0  0  0  0  0
   -1.5509   -2.8934    0.0000 C   0  0  0  0  0  0  0  0  0  0  0  0
   -2.3219   -1.6066    0.0000 C   0  0  0  0  0  0  0  0  0  0  0  0
   -3.8217   -1.6309    0.0000 C   0  0  0  0  0  0  0  0  0  0  0  0
   -4.5926   -0.3442    0.0000 C   0  0  0  0  0  0  0  0  0  0  0  0
   -3.8638    0.9668    0.0000 O   0  0  0  0  0  0  0  0  0  0  0  0
   -6.0924   -0.3685    0.0000 N   0  0  0  0  0  0  0  0  0  0  0  0
   -6.8634    0.9182    0.0000 C   0  0  0  0  0  0  0  0  0  0  0  0
   -8.3632    0.8939    0.0000 C   0  0  0  0  0  0  0  0  0  0  0  0
   -9.1341    2.1807    0.0000 C   0  0  0  0  0  0  0  0  0  0  0  0
  -10.6339    2.1564    0.0000 C   0  0  0  0  0  0  0  0  0  0  0  0
  -11.4048    3.4431    0.0000 N   0  0  0  0  0  0  0  0  0  0  0  0
   -0.0511   -2.8691    0.0000 C   0  0  0  0  0  0  0  0  0  0  0  0
    0.8501   -4.0682    0.0000 C   0  0  0  0  0  0  0  0  0  0  0  0
    2.2690   -3.5816    0.0000 C   0  0  0  0  0  0  0  0  0  0  0  0
    2.2447   -2.0818    0.0000 C   0  0  0  0  0  0  0  0  0  0  0  0
    3.3430   -1.0602    0.0000 C   0  0  0  0  0  0  0  0  0  0  0  0
    4.7769   -1.5006    0.0000 C   0  0  0  0  0  0  0  0  0  0  0  0
    5.1125   -2.9625    0.0000 O   0  0  0  0  0  0  0  0  0  0  0  0
    5.8752   -0.4789    0.0000 C   0  0  0  0  0  0  0  0  0  0  0  0
    5.5396    0.9830    0.0000 C   0  0  0  0  0  0  0  0  0  0  0  0
    6.6380    2.0047    0.0000 C   0  0  0  0  0  0  0  0  0  0  0  0
    6.3024    3.4666    0.0000 C   0  0  0  0  0  0  0  0  0  0  0  0
    7.4007    4.4882    0.0000 O   0  0  0  0  0  0  0  0  0  0  0  0
    4.8685    3.9070    0.0000 C   0  0  0  0  0  0  0  0  0  0  0  0
    3.7701    2.8854    0.0000 C   0  0  0  0  0  0  0  0  0  0  0  0
    4.1057    1.4234    0.0000 C   0  0  0  0  0  0  0  0  0  0  0  0
    2.6718    1.8638    0.0000 C   0  0  0  0  0  0  0  0  0  0  0  0
    3.0074    0.4018    0.0000 C   0  0  0  0  0  0  0  0  0  0  0  0
    1.5735    0.8422    0.0000 C   0  0  0  0  0  0  0  0  0  0  0  0
    0.4752   -0.1795    0.0000 C   0  0  0  0  0  0  0  0  0  0  0  0
    0.8108   -1.6414    0.0000 C   0  0  0  0  0  0  0  0  0  0  0  0
   -0.6613   -1.3534    0.0000 C   0  0  0  0  0  0  0  0  0  0  0  0
  2  1  1  6
  2  3  1  0
  3  4  1  0
  4  5  1  0
  5  6  2  0
  5  7  1  0
  7  8  1  0
  8  9  1  0
  9 10  1  0
 10 11  1  0
 11 12  1  0
  2 13  1  0
 13 14  1  6
 14 15  1  0
 16 15  1  6
 16 17  1  0
 17 18  1  1
 18 19  1  1
 18 20  1  0
 21 20  1  1
 21 22  1  0
 22 23  1  0
 23 24  1  1
 23 25  1  0
 25 26  1  0
 26 27  1  0
 27 28  1  6
 27 29  1  0
 29 30  1  6
 30 31  1  0
 31 32  1  0
 32 33  1  6
 32 13  1  0
 32 16  1  0
 29 17  1  0
 27 21  1  0
M  END
>  <MS_ID>  (3727) 
MS4183

>  <SMILES>  (3727) 
C[C@H](CCC(=O)NCCCCN)[C@H]1CC[C@H]2[C@@H]3[C@H](O)C[C@@H]4C[C@H](O)CC[C@]4(C)[C@H]3CC[C@]12C

>  <Structure_dimension>  (3727) 
2D

$$$$
MS4187
     RDKit          2D

 34 37  0  0  0  0  0  0  0  0999 V2000
   -3.0496   -2.8300    0.0000 C   0  0  0  0  0  0  0  0  0  0  0  0
   -1.9954   -1.7630    0.0000 C   0  0  0  0  0  0  0  0  0  0  0  0
   -2.3923   -0.3164    0.0000 C   0  0  0  0  0  0  0  0  0  0  0  0
   -3.8435    0.0631    0.0000 C   0  0  0  0  0  0  0  0  0  0  0  0
   -4.2405    1.5096    0.0000 C   0  0  0  0  0  0  0  0  0  0  0  0
   -3.1862    2.5766    0.0000 O   0  0  0  0  0  0  0  0  0  0  0  0
   -5.6917    1.8891    0.0000 N   0  0  0  0  0  0  0  0  0  0  0  0
   -6.0886    3.3356    0.0000 C   0  0  0  0  0  0  0  0  0  0  0  0
   -6.7459    0.8221    0.0000 C   0  0  0  0  0  0  0  0  0  0  0  0
   -8.1971    1.2016    0.0000 C   0  0  0  0  0  0  0  0  0  0  0  0
   -9.2514    0.1345    0.0000 C   0  0  0  0  0  0  0  0  0  0  0  0
   -8.8544   -1.3120    0.0000 O   0  0  0  0  0  0  0  0  0  0  0  0
  -10.7026    0.5140    0.0000 O   0  0  0  0  0  0  0  0  0  0  0  0
   -0.5442   -2.1424    0.0000 C   0  0  0  0  0  0  0  0  0  0  0  0
    0.0018   -3.5396    0.0000 C   0  0  0  0  0  0  0  0  0  0  0  0
    1.4993   -3.4520    0.0000 C   0  0  0  0  0  0  0  0  0  0  0  0
    1.8788   -2.0008    0.0000 C   0  0  0  0  0  0  0  0  0  0  0  0
    3.2111   -1.3118    0.0000 C   0  0  0  0  0  0  0  0  0  0  0  0
    4.4740   -2.1212    0.0000 C   0  0  0  0  0  0  0  0  0  0  0  0
    4.4046   -3.6196    0.0000 O   0  0  0  0  0  0  0  0  0  0  0  0
    5.8064   -1.4322    0.0000 C   0  0  0  0  0  0  0  0  0  0  0  0
    5.8759    0.0662    0.0000 C   0  0  0  0  0  0  0  0  0  0  0  0
    7.2083    0.7553    0.0000 C   0  0  0  0  0  0  0  0  0  0  0  0
    7.2778    2.2536    0.0000 C   0  0  0  0  0  0  0  0  0  0  0  0
    8.6102    2.9427    0.0000 O   0  0  0  0  0  0  0  0  0  0  0  0
    6.0149    3.0630    0.0000 C   0  0  0  0  0  0  0  0  0  0  0  0
    4.6825    2.3740    0.0000 C   0  0  0  0  0  0  0  0  0  0  0  0
    4.6130    0.8756    0.0000 C   0  0  0  0  0  0  0  0  0  0  0  0
    3.3501    1.6850    0.0000 C   0  0  0  0  0  0  0  0  0  0  0  0
    3.2806    0.1866    0.0000 C   0  0  0  0  0  0  0  0  0  0  0  0
    2.0177    0.9959    0.0000 C   0  0  0  0  0  0  0  0  0  0  0  0
    0.6853    0.3069    0.0000 C   0  0  0  0  0  0  0  0  0  0  0  0
    0.6158   -1.1915    0.0000 C   0  0  0  0  0  0  0  0  0  0  0  0
   -0.7247   -0.5185    0.0000 C   0  0  0  0  0  0  0  0  0  0  0  0
  2  1  1  6
  2  3  1  0
  3  4  1  0
  4  5  1  0
  5  6  2  0
  5  7  1  0
  7  8  1  0
  7  9  1  0
  9 10  1  0
 10 11  1  0
 11 12  2  0
 11 13  1  0
  2 14  1  0
 14 15  1  6
 15 16  1  0
 17 16  1  6
 17 18  1  0
 18 19  1  1
 19 20  1  6
 19 21  1  0
 22 21  1  1
 22 23  1  0
 23 24  1  0
 24 25  1  1
 24 26  1  0
 26 27  1  0
 27 28  1  0
 28 29  1  6
 28 30  1  0
 30 31  1  6
 31 32  1  0
 32 33  1  0
 33 34  1  6
 33 14  1  0
 33 17  1  0
 30 18  1  0
 28 22  1  0
M  END
>  <MS_ID>  (3728) 
MS4187

>  <SMILES>  (3728) 
C[C@H](CCC(=O)N(C)CCC(=O)O)[C@H]1CC[C@H]2[C@@H]3[C@@H](O)C[C@@H]4C[C@H](O)CC[C@]4(C)[C@H]3CC[C@]12C

>  <Structure_dimension>  (3728) 
2D

$$$$
MS4191
     RDKit          2D

 38 41  0  0  0  0  0  0  0  0999 V2000
   -0.0858   -4.8018    0.0000 C   0  0  0  0  0  0  0  0  0  0  0  0
    0.4920   -3.4175    0.0000 C   0  0  0  0  0  0  0  0  0  0  0  0
   -0.4179   -2.2250    0.0000 C   0  0  0  0  0  0  0  0  0  0  0  0
   -1.9056   -2.4168    0.0000 C   0  0  0  0  0  0  0  0  0  0  0  0
   -2.8155   -1.2242    0.0000 C   0  0  0  0  0  0  0  0  0  0  0  0
   -2.2377    0.1600    0.0000 O   0  0  0  0  0  0  0  0  0  0  0  0
   -4.3032   -1.4160    0.0000 N   0  0  0  0  0  0  0  0  0  0  0  0
   -5.2131   -0.2235    0.0000 C   0  0  0  0  0  0  0  0  0  0  0  0
   -6.7008   -0.4152    0.0000 C   0  0  0  0  0  0  0  0  0  0  0  0
   -7.6107    0.7773    0.0000 C   0  0  0  0  0  0  0  0  0  0  0  0
   -9.0984    0.5855    0.0000 C   0  0  0  0  0  0  0  0  0  0  0  0
  -10.0083    1.7781    0.0000 N   0  0  0  0  0  0  0  0  0  0  0  0
  -11.4960    1.5863    0.0000 C   0  0  0  0  0  0  0  0  0  0  0  0
  -12.4059    2.7788    0.0000 N   0  0  0  0  0  0  0  0  0  0  0  0
  -12.0738    0.2021    0.0000 N   0  0  0  0  0  0  0  0  0  0  0  0
   -4.6353    1.1608    0.0000 C   0  0  0  0  0  0  0  0  0  0  0  0
   -3.1476    1.3525    0.0000 O   0  0  0  0  0  0  0  0  0  0  0  0
   -5.5452    2.3533    0.0000 O   0  0  0  0  0  0  0  0  0  0  0  0
    1.9797   -3.2258    0.0000 C   0  0  0  0  0  0  0  0  0  0  0  0
    3.0092   -4.3166    0.0000 C   0  0  0  0  0  0  0  0  0  0  0  0
    4.3649   -3.6746    0.0000 C   0  0  0  0  0  0  0  0  0  0  0  0
    4.1731   -2.1869    0.0000 C   0  0  0  0  0  0  0  0  0  0  0  0
    5.1504   -1.0489    0.0000 C   0  0  0  0  0  0  0  0  0  0  0  0
    6.6245   -1.3263    0.0000 C   0  0  0  0  0  0  0  0  0  0  0  0
    7.6018   -0.1883    0.0000 C   0  0  0  0  0  0  0  0  0  0  0  0
    7.1049    1.2270    0.0000 C   0  0  0  0  0  0  0  0  0  0  0  0
    8.0822    2.3650    0.0000 C   0  0  0  0  0  0  0  0  0  0  0  0
    7.5853    3.7803    0.0000 C   0  0  0  0  0  0  0  0  0  0  0  0
    8.5626    4.9182    0.0000 O   0  0  0  0  0  0  0  0  0  0  0  0
    6.1112    4.0576    0.0000 C   0  0  0  0  0  0  0  0  0  0  0  0
    5.1339    2.9197    0.0000 C   0  0  0  0  0  0  0  0  0  0  0  0
    5.6308    1.5044    0.0000 C   0  0  0  0  0  0  0  0  0  0  0  0
    4.1567    1.7817    0.0000 C   0  0  0  0  0  0  0  0  0  0  0  0
    4.6535    0.3664    0.0000 C   0  0  0  0  0  0  0  0  0  0  0  0
    3.1794    0.6438    0.0000 C   0  0  0  0  0  0  0  0  0  0  0  0
    2.2021   -0.4942    0.0000 C   0  0  0  0  0  0  0  0  0  0  0  0
    2.6990   -1.9095    0.0000 C   0  0  0  0  0  0  0  0  0  0  0  0
    1.2039   -1.7877    0.0000 C   0  0  0  0  0  0  0  0  0  0  0  0
  2  1  1  6
  2  3  1  0
  3  4  1  0
  4  5  1  0
  5  6  2  0
  5  7  1  0
  7  8  1  0
  8  9  1  1
  9 10  1  0
 10 11  1  0
 11 12  1  0
 12 13  2  0
 13 14  1  0
 13 15  1  0
  8 16  1  0
 16 17  2  0
 16 18  1  0
  2 19  1  0
 19 20  1  6
 20 21  1  0
 22 21  1  6
 22 23  1  0
 23 24  1  1
 24 25  1  0
 26 25  1  1
 26 27  1  0
 27 28  1  0
 28 29  1  1
 28 30  1  0
 30 31  1  0
 31 32  1  0
 32 33  1  6
 32 34  1  0
 34 35  1  6
 35 36  1  0
 36 37  1  0
 37 38  1  6
 37 19  1  0
 37 22  1  0
 34 23  1  0
 32 26  1  0
M  END
>  <MS_ID>  (3729) 
MS4191

>  <SMILES>  (3729) 
C[C@H](CCC(=O)N[C@@H](CCCN=C(N)N)C(=O)O)[C@H]1CC[C@H]2[C@@H]3CC[C@@H]4C[C@H](O)CC[C@]4(C)[C@H]3CC[C@]12C

>  <Structure_dimension>  (3729) 
2D

$$$$
MS4194
     RDKit          2D

 40 44  0  0  0  0  0  0  0  0999 V2000
   -0.5111   -5.0186    0.0000 C   0  0  0  0  0  0  0  0  0  0  0  0
    0.0347   -3.6214    0.0000 C   0  0  0  0  0  0  0  0  0  0  0  0
   -0.9025   -2.4502    0.0000 C   0  0  0  0  0  0  0  0  0  0  0  0
   -2.3853   -2.6761    0.0000 C   0  0  0  0  0  0  0  0  0  0  0  0
   -3.3225   -1.5049    0.0000 C   0  0  0  0  0  0  0  0  0  0  0  0
   -2.7767   -0.1077    0.0000 O   0  0  0  0  0  0  0  0  0  0  0  0
   -4.8054   -1.7309    0.0000 O   0  0  0  0  0  0  0  0  0  0  0  0
   -5.7425   -0.5596    0.0000 C   0  0  0  0  0  0  0  0  0  0  0  0
   -5.1967    0.8376    0.0000 O   0  0  0  0  0  0  0  0  0  0  0  0
   -6.1338    2.0088    0.0000 C   0  0  0  0  0  0  0  0  0  0  0  0
   -5.5881    3.4060    0.0000 C   0  0  0  0  0  0  0  0  0  0  0  0
   -6.5252    4.5772    0.0000 O   0  0  0  0  0  0  0  0  0  0  0  0
   -4.1052    3.6320    0.0000 O   0  0  0  0  0  0  0  0  0  0  0  0
   -7.6167    1.7828    0.0000 C   0  0  0  0  0  0  0  0  0  0  0  0
   -8.5539    2.9541    0.0000 O   0  0  0  0  0  0  0  0  0  0  0  0
   -8.1625    0.3857    0.0000 C   0  0  0  0  0  0  0  0  0  0  0  0
   -9.6454    0.1597    0.0000 O   0  0  0  0  0  0  0  0  0  0  0  0
   -7.2254   -0.7856    0.0000 C   0  0  0  0  0  0  0  0  0  0  0  0
   -7.7711   -2.1828    0.0000 O   0  0  0  0  0  0  0  0  0  0  0  0
    1.5176   -3.3955    0.0000 C   0  0  0  0  0  0  0  0  0  0  0  0
    2.5720   -4.4623    0.0000 C   0  0  0  0  0  0  0  0  0  0  0  0
    3.9125   -3.7892    0.0000 C   0  0  0  0  0  0  0  0  0  0  0  0
    3.6865   -2.3063    0.0000 C   0  0  0  0  0  0  0  0  0  0  0  0
    4.6373   -1.1461    0.0000 C   0  0  0  0  0  0  0  0  0  0  0  0
    6.1174   -1.3895    0.0000 C   0  0  0  0  0  0  0  0  0  0  0  0
    7.0682   -0.2293    0.0000 C   0  0  0  0  0  0  0  0  0  0  0  0
    8.5484   -0.4727    0.0000 O   0  0  0  0  0  0  0  0  0  0  0  0
    6.5389    1.1742    0.0000 C   0  0  0  0  0  0  0  0  0  0  0  0
    7.4897    2.3343    0.0000 C   0  0  0  0  0  0  0  0  0  0  0  0
    6.9604    3.7378    0.0000 C   0  0  0  0  0  0  0  0  0  0  0  0
    7.9112    4.8980    0.0000 O   0  0  0  0  0  0  0  0  0  0  0  0
    5.4802    3.9812    0.0000 C   0  0  0  0  0  0  0  0  0  0  0  0
    4.5294    2.8210    0.0000 C   0  0  0  0  0  0  0  0  0  0  0  0
    5.0588    1.4175    0.0000 C   0  0  0  0  0  0  0  0  0  0  0  0
    3.5786    1.6609    0.0000 C   0  0  0  0  0  0  0  0  0  0  0  0
    4.1080    0.2574    0.0000 C   0  0  0  0  0  0  0  0  0  0  0  0
    2.6278    0.5007    0.0000 C   0  0  0  0  0  0  0  0  0  0  0  0
    1.6770   -0.6595    0.0000 C   0  0  0  0  0  0  0  0  0  0  0  0
    2.2064   -2.0630    0.0000 C   0  0  0  0  0  0  0  0  0  0  0  0
    0.7089   -1.9757    0.0000 C   0  0  0  0  0  0  0  0  0  0  0  0
  2  1  1  6
  2  3  1  0
  3  4  1  0
  4  5  1  0
  5  6  2  0
  5  7  1  0
  8  7  1  1
  8  9  1  0
  9 10  1  0
 10 11  1  1
 11 12  2  0
 11 13  1  0
 10 14  1  0
 14 15  1  6
 14 16  1  0
 16 17  1  1
 16 18  1  0
 18 19  1  6
  2 20  1  0
 20 21  1  6
 21 22  1  0
 23 22  1  6
 23 24  1  0
 24 25  1  1
 25 26  1  0
 26 27  1  1
 26 28  1  0
 28 29  1  1
 29 30  1  0
 30 31  1  1
 30 32  1  0
 32 33  1  0
 33 34  1  0
 34 35  1  6
 34 36  1  0
 36 37  1  6
 37 38  1  0
 38 39  1  0
 39 40  1  6
 18  8  1  0
 39 20  1  0
 39 23  1  0
 36 24  1  0
 34 28  1  0
M  END
>  <MS_ID>  (3730) 
MS4194

>  <SMILES>  (3730) 
C[C@H](CCC(=O)O[C@@H]1O[C@H](C(=O)O)[C@@H](O)[C@H](O)[C@H]1O)[C@H]1CC[C@H]2[C@@H]3C[C@H](O)[C@@H]4C[C@H](O)CC[C@]4(C)[C@H]3CC[C@]12C

>  <Structure_dimension>  (3730) 
2D

$$$$
MS4198
     RDKit          2D

 35 38  0  0  0  0  0  0  0  0999 V2000
   -2.0200   -4.3028    0.0000 C   0  0  0  0  0  0  0  0  0  0  0  0
   -1.3087   -2.9822    0.0000 C   0  0  0  0  0  0  0  0  0  0  0  0
   -2.0967   -1.7059    0.0000 C   0  0  0  0  0  0  0  0  0  0  0  0
   -3.5960   -1.7502    0.0000 C   0  0  0  0  0  0  0  0  0  0  0  0
   -4.3840   -0.4738    0.0000 C   0  0  0  0  0  0  0  0  0  0  0  0
   -3.6727    0.8468    0.0000 O   0  0  0  0  0  0  0  0  0  0  0  0
   -5.8834   -0.5181    0.0000 N   0  0  0  0  0  0  0  0  0  0  0  0
   -6.6714    0.7582    0.0000 C   0  0  0  0  0  0  0  0  0  0  0  0
   -8.1707    0.7140    0.0000 C   0  0  0  0  0  0  0  0  0  0  0  0
   -8.9588    1.9903    0.0000 P   0  0  0  0  0  0  0  0  0  0  0  0
   -9.7468    3.2667    0.0000 O   0  0  0  0  0  0  0  0  0  0  0  0
  -10.2351    1.2023    0.0000 O   0  0  0  0  0  0  0  0  0  0  0  0
   -7.6824    2.7783    0.0000 O   0  0  0  0  0  0  0  0  0  0  0  0
    0.1907   -2.9379    0.0000 C   0  0  0  0  0  0  0  0  0  0  0  0
    1.1078   -4.1249    0.0000 C   0  0  0  0  0  0  0  0  0  0  0  0
    2.5201   -3.6195    0.0000 C   0  0  0  0  0  0  0  0  0  0  0  0
    2.4758   -2.1201    0.0000 C   0  0  0  0  0  0  0  0  0  0  0  0
    3.5604   -1.0840    0.0000 C   0  0  0  0  0  0  0  0  0  0  0  0
    5.0001   -1.5052    0.0000 C   0  0  0  0  0  0  0  0  0  0  0  0
    5.3551   -2.9626    0.0000 O   0  0  0  0  0  0  0  0  0  0  0  0
    6.0847   -0.4691    0.0000 C   0  0  0  0  0  0  0  0  0  0  0  0
    5.7296    0.9883    0.0000 C   0  0  0  0  0  0  0  0  0  0  0  0
    6.8142    2.0245    0.0000 C   0  0  0  0  0  0  0  0  0  0  0  0
    6.4592    3.4819    0.0000 C   0  0  0  0  0  0  0  0  0  0  0  0
    7.5438    4.5180    0.0000 O   0  0  0  0  0  0  0  0  0  0  0  0
    5.0196    3.9031    0.0000 C   0  0  0  0  0  0  0  0  0  0  0  0
    3.9350    2.8669    0.0000 C   0  0  0  0  0  0  0  0  0  0  0  0
    4.2900    1.4095    0.0000 C   0  0  0  0  0  0  0  0  0  0  0  0
    2.8503    1.8308    0.0000 C   0  0  0  0  0  0  0  0  0  0  0  0
    3.2054    0.3734    0.0000 C   0  0  0  0  0  0  0  0  0  0  0  0
    1.7657    0.7946    0.0000 C   0  0  0  0  0  0  0  0  0  0  0  0
    0.6811   -0.2416    0.0000 C   0  0  0  0  0  0  0  0  0  0  0  0
   -0.7585    0.1797    0.0000 O   0  0  0  0  0  0  0  0  0  0  0  0
    1.0362   -1.6989    0.0000 C   0  0  0  0  0  0  0  0  0  0  0  0
   -0.4396   -1.4305    0.0000 C   0  0  0  0  0  0  0  0  0  0  0  0
  2  1  1  6
  2  3  1  0
  3  4  1  0
  4  5  1  0
  5  6  2  0
  5  7  1  0
  7  8  1  0
  8  9  1  0
  9 10  1  0
 10 11  2  0
 10 12  1  0
 10 13  1  0
  2 14  1  0
 14 15  1  6
 15 16  1  0
 17 16  1  6
 17 18  1  0
 18 19  1  1
 19 20  1  1
 19 21  1  0
 22 21  1  1
 22 23  1  0
 23 24  1  0
 24 25  1  1
 24 26  1  0
 26 27  1  0
 27 28  1  0
 28 29  1  6
 28 30  1  0
 30 31  1  6
 31 32  1  0
 32 33  1  1
 32 34  1  0
 34 35  1  6
 34 14  1  0
 34 17  1  0
 30 18  1  0
 28 22  1  0
M  END
>  <MS_ID>  (3731) 
MS4198

>  <SMILES>  (3731) 
C[C@H](CCC(=O)NCCP(=O)(O)O)[C@H]1CC[C@H]2[C@@H]3[C@H](O)C[C@@H]4C[C@H](O)CC[C@]4(C)[C@H]3C[C@H](O)[C@]12C

>  <Structure_dimension>  (3731) 
2D

$$$$
MS4199
     RDKit          2D

 39 42  0  0  0  0  0  0  0  0999 V2000
   -0.1420   -4.5958    0.0000 C   0  0  0  0  0  0  0  0  0  0  0  0
    0.4341   -3.2109    0.0000 C   0  0  0  0  0  0  0  0  0  0  0  0
   -0.4772   -2.0195    0.0000 C   0  0  0  0  0  0  0  0  0  0  0  0
   -1.9646   -2.2130    0.0000 C   0  0  0  0  0  0  0  0  0  0  0  0
   -2.8759   -1.0215    0.0000 C   0  0  0  0  0  0  0  0  0  0  0  0
   -2.2998    0.3634    0.0000 O   0  0  0  0  0  0  0  0  0  0  0  0
   -4.3634   -1.2150    0.0000 N   0  0  0  0  0  0  0  0  0  0  0  0
   -5.2747   -0.0236    0.0000 C   0  0  0  0  0  0  0  0  0  0  0  0
   -6.7622   -0.2171    0.0000 C   0  0  0  0  0  0  0  0  0  0  0  0
   -7.3383   -1.6020    0.0000 O   0  0  0  0  0  0  0  0  0  0  0  0
   -7.6735    0.9744    0.0000 N   0  0  0  0  0  0  0  0  0  0  0  0
   -9.1610    0.7809    0.0000 C   0  0  0  0  0  0  0  0  0  0  0  0
  -10.0723    1.9723    0.0000 C   0  0  0  0  0  0  0  0  0  0  0  0
  -11.5597    1.7788    0.0000 S   0  0  0  0  0  0  0  0  0  0  0  0
  -11.7532    3.2663    0.0000 O   0  0  0  0  0  0  0  0  0  0  0  0
  -11.3662    0.2913    0.0000 O   0  0  0  0  0  0  0  0  0  0  0  0
  -13.0472    1.5853    0.0000 O   0  0  0  0  0  0  0  0  0  0  0  0
    1.9216   -3.0174    0.0000 C   0  0  0  0  0  0  0  0  0  0  0  0
    2.9525   -4.1071    0.0000 C   0  0  0  0  0  0  0  0  0  0  0  0
    4.3073   -3.4634    0.0000 C   0  0  0  0  0  0  0  0  0  0  0  0
    4.1138   -1.9759    0.0000 C   0  0  0  0  0  0  0  0  0  0  0  0
    5.0898   -0.8368    0.0000 C   0  0  0  0  0  0  0  0  0  0  0  0
    6.5642   -1.1124    0.0000 C   0  0  0  0  0  0  0  0  0  0  0  0
    7.0628   -2.5272    0.0000 O   0  0  0  0  0  0  0  0  0  0  0  0
    7.5402    0.0267    0.0000 C   0  0  0  0  0  0  0  0  0  0  0  0
    7.0416    1.4414    0.0000 C   0  0  0  0  0  0  0  0  0  0  0  0
    8.0176    2.5805    0.0000 C   0  0  0  0  0  0  0  0  0  0  0  0
    7.5190    3.9952    0.0000 C   0  0  0  0  0  0  0  0  0  0  0  0
    8.4950    5.1344    0.0000 O   0  0  0  0  0  0  0  0  0  0  0  0
    6.0446    4.2709    0.0000 C   0  0  0  0  0  0  0  0  0  0  0  0
    5.0686    3.1318    0.0000 C   0  0  0  0  0  0  0  0  0  0  0  0
    5.5672    1.7170    0.0000 C   0  0  0  0  0  0  0  0  0  0  0  0
    4.0927    1.9927    0.0000 C   0  0  0  0  0  0  0  0  0  0  0  0
    4.5912    0.5779    0.0000 C   0  0  0  0  0  0  0  0  0  0  0  0
    3.1168    0.8536    0.0000 C   0  0  0  0  0  0  0  0  0  0  0  0
    2.1408   -0.2856    0.0000 C   0  0  0  0  0  0  0  0  0  0  0  0
    0.6664   -0.0099    0.0000 O   0  0  0  0  0  0  0  0  0  0  0  0
    2.6394   -1.7003    0.0000 C   0  0  0  0  0  0  0  0  0  0  0  0
    1.1442   -1.5803    0.0000 C   0  0  0  0  0  0  0  0  0  0  0  0
  2  1  1  1
  2  3  1  0
  3  4  1  0
  4  5  1  0
  5  6  2  0
  5  7  1  0
  7  8  1  0
  8  9  1  0
  9 10  2  0
  9 11  1  0
 11 12  1  0
 12 13  1  0
 13 14  1  0
 14 15  2  0
 14 16  2  0
 14 17  1  0
  2 18  1  0
 18 19  1  6
 19 20  1  0
 21 20  1  6
 21 22  1  0
 22 23  1  1
 23 24  1  1
 23 25  1  0
 26 25  1  1
 26 27  1  0
 27 28  1  0
 28 29  1  1
 28 30  1  0
 30 31  1  0
 31 32  1  0
 32 33  1  6
 32 34  1  0
 34 35  1  6
 35 36  1  0
 36 37  1  1
 36 38  1  0
 38 39  1  6
 38 18  1  0
 38 21  1  0
 34 22  1  0
 32 26  1  0
M  END
>  <MS_ID>  (3732) 
MS4199

>  <SMILES>  (3732) 
C[C@@H](CCC(=O)NCC(=O)NCCS(=O)(=O)O)[C@H]1CC[C@H]2[C@@H]3[C@H](O)C[C@@H]4C[C@H](O)CC[C@]4(C)[C@H]3C[C@H](O)[C@]12C

>  <Structure_dimension>  (3732) 
2D

$$$$
MS4204
     RDKit          2D

 36 39  0  0  0  0  0  0  0  0999 V2000
   -2.1935   -4.2964    0.0000 C   0  0  0  0  0  0  0  0  0  0  0  0
   -1.4931   -2.9700    0.0000 C   0  0  0  0  0  0  0  0  0  0  0  0
   -2.2917   -1.7002    0.0000 C   0  0  0  0  0  0  0  0  0  0  0  0
   -3.7906   -1.7569    0.0000 C   0  0  0  0  0  0  0  0  0  0  0  0
   -4.5892   -0.4871    0.0000 C   0  0  0  0  0  0  0  0  0  0  0  0
   -3.8888    0.8393    0.0000 O   0  0  0  0  0  0  0  0  0  0  0  0
   -6.0881   -0.5438    0.0000 N   0  0  0  0  0  0  0  0  0  0  0  0
   -6.8867    0.7259    0.0000 C   0  0  0  0  0  0  0  0  0  0  0  0
   -8.3856    0.6692    0.0000 C   0  0  0  0  0  0  0  0  0  0  0  0
   -9.1841    1.9390    0.0000 S   0  0  0  0  0  0  0  0  0  0  0  0
  -10.4539    1.1404    0.0000 O   0  0  0  0  0  0  0  0  0  0  0  0
   -7.9144    2.7375    0.0000 O   0  0  0  0  0  0  0  0  0  0  0  0
   -9.9827    3.2087    0.0000 O   0  0  0  0  0  0  0  0  0  0  0  0
    0.0058   -2.9133    0.0000 C   0  0  0  0  0  0  0  0  0  0  0  0
    0.9327   -4.0926    0.0000 C   0  0  0  0  0  0  0  0  0  0  0  0
    2.3408   -3.5755    0.0000 C   0  0  0  0  0  0  0  0  0  0  0  0
    2.2841   -2.0766    0.0000 C   0  0  0  0  0  0  0  0  0  0  0  0
    3.3601   -1.0314    0.0000 C   0  0  0  0  0  0  0  0  0  0  0  0
    4.8032   -1.4407    0.0000 C   0  0  0  0  0  0  0  0  0  0  0  0
    5.1703   -2.8951    0.0000 O   0  0  0  0  0  0  0  0  0  0  0  0
    5.8791   -0.3956    0.0000 C   0  0  0  0  0  0  0  0  0  0  0  0
    7.3222   -0.8049    0.0000 O   0  0  0  0  0  0  0  0  0  0  0  0
    5.5120    1.0588    0.0000 C   0  0  0  0  0  0  0  0  0  0  0  0
    6.5880    2.1039    0.0000 C   0  0  0  0  0  0  0  0  0  0  0  0
    6.2209    3.5583    0.0000 C   0  0  0  0  0  0  0  0  0  0  0  0
    7.2969    4.6034    0.0000 O   0  0  0  0  0  0  0  0  0  0  0  0
    4.7778    3.9676    0.0000 C   0  0  0  0  0  0  0  0  0  0  0  0
    3.7018    2.9224    0.0000 C   0  0  0  0  0  0  0  0  0  0  0  0
    4.0690    1.4681    0.0000 C   0  0  0  0  0  0  0  0  0  0  0  0
    2.6259    1.8773    0.0000 C   0  0  0  0  0  0  0  0  0  0  0  0
    2.9930    0.4229    0.0000 C   0  0  0  0  0  0  0  0  0  0  0  0
    1.5499    0.8322    0.0000 C   0  0  0  0  0  0  0  0  0  0  0  0
    0.4739   -0.2129    0.0000 C   0  0  0  0  0  0  0  0  0  0  0  0
   -0.9692    0.1964    0.0000 O   0  0  0  0  0  0  0  0  0  0  0  0
    0.8410   -1.6673    0.0000 C   0  0  0  0  0  0  0  0  0  0  0  0
   -0.6370   -1.4111    0.0000 C   0  0  0  0  0  0  0  0  0  0  0  0
  2  1  1  6
  2  3  1  0
  3  4  1  0
  4  5  1  0
  5  6  2  0
  5  7  1  0
  7  8  1  0
  8  9  1  0
  9 10  1  0
 10 11  2  0
 10 12  2  0
 10 13  1  0
  2 14  1  0
 14 15  1  6
 15 16  1  0
 17 16  1  6
 17 18  1  0
 18 19  1  1
 19 20  1  1
 19 21  1  0
 21 22  1  6
 21 23  1  0
 23 24  1  1
 24 25  1  0
 25 26  1  1
 25 27  1  0
 27 28  1  0
 28 29  1  0
 29 30  1  6
 29 31  1  0
 31 32  1  6
 32 33  1  0
 33 34  1  6
 33 35  1  0
 35 36  1  6
 35 14  1  0
 35 17  1  0
 31 18  1  0
 29 23  1  0
M  END
>  <MS_ID>  (3733) 
MS4204

>  <SMILES>  (3733) 
C[C@H](CCC(=O)NCCS(=O)(=O)O)[C@H]1CC[C@H]2[C@@H]3[C@H](O)[C@@H](O)[C@@H]4C[C@H](O)CC[C@]4(C)[C@H]3C[C@@H](O)[C@]12C

>  <Structure_dimension>  (3733) 
2D

$$$$
MS4206
     RDKit          2D

 35 38  0  0  0  0  0  0  0  0999 V2000
   -2.1615   -4.3679    0.0000 C   0  0  0  0  0  0  0  0  0  0  0  0
   -1.4356   -3.0553    0.0000 C   0  0  0  0  0  0  0  0  0  0  0  0
   -2.2094   -1.7703    0.0000 C   0  0  0  0  0  0  0  0  0  0  0  0
   -3.7091   -1.7980    0.0000 C   0  0  0  0  0  0  0  0  0  0  0  0
   -4.4830   -0.5130    0.0000 C   0  0  0  0  0  0  0  0  0  0  0  0
   -3.7570    0.7997    0.0000 O   0  0  0  0  0  0  0  0  0  0  0  0
   -5.9827   -0.5406    0.0000 N   0  0  0  0  0  0  0  0  0  0  0  0
   -6.7565    0.7444    0.0000 C   0  0  0  0  0  0  0  0  0  0  0  0
   -8.2563    0.7167    0.0000 C   0  0  0  0  0  0  0  0  0  0  0  0
   -9.0301    2.0017    0.0000 S   0  0  0  0  0  0  0  0  0  0  0  0
  -10.3151    1.2279    0.0000 O   0  0  0  0  0  0  0  0  0  0  0  0
   -7.7451    2.7756    0.0000 O   0  0  0  0  0  0  0  0  0  0  0  0
   -9.8039    3.2867    0.0000 O   0  0  0  0  0  0  0  0  0  0  0  0
    0.0642   -3.0277    0.0000 C   0  0  0  0  0  0  0  0  0  0  0  0
    0.9681   -4.2247    0.0000 C   0  0  0  0  0  0  0  0  0  0  0  0
    2.3858   -3.7350    0.0000 C   0  0  0  0  0  0  0  0  0  0  0  0
    2.3582   -2.2352    0.0000 C   0  0  0  0  0  0  0  0  0  0  0  0
    3.4542   -1.2112    0.0000 C   0  0  0  0  0  0  0  0  0  0  0  0
    4.8891   -1.6483    0.0000 C   0  0  0  0  0  0  0  0  0  0  0  0
    5.2280   -3.1096    0.0000 O   0  0  0  0  0  0  0  0  0  0  0  0
    5.9851   -0.6243    0.0000 C   0  0  0  0  0  0  0  0  0  0  0  0
    5.6463    0.8370    0.0000 C   0  0  0  0  0  0  0  0  0  0  0  0
    6.7423    1.8610    0.0000 C   0  0  0  0  0  0  0  0  0  0  0  0
    6.4035    3.3223    0.0000 C   0  0  0  0  0  0  0  0  0  0  0  0
    7.4995    4.3463    0.0000 O   0  0  0  0  0  0  0  0  0  0  0  0
    4.9686    3.7594    0.0000 C   0  0  0  0  0  0  0  0  0  0  0  0
    3.8726    2.7353    0.0000 C   0  0  0  0  0  0  0  0  0  0  0  0
    2.4377    3.1725    0.0000 O   0  0  0  0  0  0  0  0  0  0  0  0
    4.2114    1.2741    0.0000 C   0  0  0  0  0  0  0  0  0  0  0  0
    2.7765    1.7113    0.0000 C   0  0  0  0  0  0  0  0  0  0  0  0
    3.1154    0.2501    0.0000 C   0  0  0  0  0  0  0  0  0  0  0  0
    1.6805    0.6872    0.0000 C   0  0  0  0  0  0  0  0  0  0  0  0
    0.5845   -0.3369    0.0000 C   0  0  0  0  0  0  0  0  0  0  0  0
    0.9233   -1.7981    0.0000 C   0  0  0  0  0  0  0  0  0  0  0  0
   -0.5494   -1.5133    0.0000 C   0  0  0  0  0  0  0  0  0  0  0  0
  2  1  1  6
  2  3  1  0
  3  4  1  0
  4  5  1  0
  5  6  2  0
  5  7  1  0
  7  8  1  0
  8  9  1  0
  9 10  1  0
 10 11  2  0
 10 12  2  0
 10 13  1  0
  2 14  1  0
 14 15  1  6
 15 16  1  0
 17 16  1  6
 17 18  1  0
 18 19  1  1
 19 20  1  1
 19 21  1  0
 22 21  1  1
 22 23  1  0
 23 24  1  0
 24 25  1  1
 24 26  1  0
 26 27  1  0
 27 28  1  6
 27 29  1  0
 29 30  1  6
 29 31  1  0
 31 32  1  6
 32 33  1  0
 33 34  1  0
 34 35  1  6
 34 14  1  0
 34 17  1  0
 31 18  1  0
 29 22  1  0
M  END
>  <MS_ID>  (3734) 
MS4206

>  <SMILES>  (3734) 
C[C@H](CCC(=O)NCCS(=O)(=O)O)[C@H]1CC[C@H]2[C@@H]3[C@H](O)C[C@@H]4C[C@H](O)C[C@@H](O)[C@]4(C)[C@H]3CC[C@]12C

>  <Structure_dimension>  (3734) 
2D

$$$$
MS4208
     RDKit          2D

 32 35  0  0  0  0  0  0  0  0999 V2000
   -3.0592   -3.7169    0.0000 C   0  0  0  0  0  0  0  0  0  0  0  0
   -2.1499   -2.5239    0.0000 C   0  0  0  0  0  0  0  0  0  0  0  0
   -2.7284   -1.1399    0.0000 C   0  0  0  0  0  0  0  0  0  0  0  0
   -4.2162   -0.9489    0.0000 C   0  0  0  0  0  0  0  0  0  0  0  0
   -4.7946    0.4350    0.0000 C   0  0  0  0  0  0  0  0  0  0  0  0
   -3.8853    1.6280    0.0000 O   0  0  0  0  0  0  0  0  0  0  0  0
   -6.2824    0.6260    0.0000 N   0  0  0  0  0  0  0  0  0  0  0  0
   -6.8609    2.0100    0.0000 C   0  0  0  0  0  0  0  0  0  0  0  0
   -8.3487    2.2010    0.0000 C   0  0  0  0  0  0  0  0  0  0  0  0
   -9.2580    1.0080    0.0000 O   0  0  0  0  0  0  0  0  0  0  0  0
   -8.9272    3.5850    0.0000 O   0  0  0  0  0  0  0  0  0  0  0  0
   -0.6621   -2.7149    0.0000 C   0  0  0  0  0  0  0  0  0  0  0  0
    0.0579   -4.0308    0.0000 C   0  0  0  0  0  0  0  0  0  0  0  0
    1.5319   -3.7527    0.0000 C   0  0  0  0  0  0  0  0  0  0  0  0
    1.7229   -2.2649    0.0000 C   0  0  0  0  0  0  0  0  0  0  0  0
    2.9563   -1.4114    0.0000 C   0  0  0  0  0  0  0  0  0  0  0  0
    4.3123   -2.0528    0.0000 C   0  0  0  0  0  0  0  0  0  0  0  0
    5.5457   -1.1992    0.0000 C   0  0  0  0  0  0  0  0  0  0  0  0
    5.4232    0.2958    0.0000 C   0  0  0  0  0  0  0  0  0  0  0  0
    6.6567    1.1494    0.0000 C   0  0  0  0  0  0  0  0  0  0  0  0
    6.5342    2.6444    0.0000 C   0  0  0  0  0  0  0  0  0  0  0  0
    7.7676    3.4980    0.0000 O   0  0  0  0  0  0  0  0  0  0  0  0
    5.1782    3.2858    0.0000 C   0  0  0  0  0  0  0  0  0  0  0  0
    3.9448    2.4322    0.0000 C   0  0  0  0  0  0  0  0  0  0  0  0
    4.0673    0.9372    0.0000 C   0  0  0  0  0  0  0  0  0  0  0  0
    2.7113    1.5786    0.0000 C   0  0  0  0  0  0  0  0  0  0  0  0
    2.8338    0.0836    0.0000 C   0  0  0  0  0  0  0  0  0  0  0  0
    1.4779    0.7250    0.0000 C   0  0  0  0  0  0  0  0  0  0  0  0
    0.2444   -0.1285    0.0000 C   0  0  0  0  0  0  0  0  0  0  0  0
   -1.1115    0.5129    0.0000 O   0  0  0  0  0  0  0  0  0  0  0  0
    0.3669   -1.6235    0.0000 C   0  0  0  0  0  0  0  0  0  0  0  0
   -1.0486   -1.1274    0.0000 C   0  0  0  0  0  0  0  0  0  0  0  0
  2  1  1  6
  2  3  1  0
  3  4  1  0
  4  5  1  0
  5  6  2  0
  5  7  1  0
  7  8  1  0
  8  9  1  0
  9 10  2  0
  9 11  1  0
  2 12  1  0
 12 13  1  6
 13 14  1  0
 15 14  1  6
 15 16  1  0
 16 17  1  1
 17 18  1  0
 19 18  1  6
 19 20  1  0
 20 21  1  0
 21 22  1  1
 21 23  1  0
 23 24  1  0
 24 25  1  0
 25 26  1  6
 25 27  1  0
 27 28  1  6
 28 29  1  0
 29 30  1  1
 29 31  1  0
 31 32  1  6
 31 12  1  0
 31 15  1  0
 27 16  1  0
 25 19  1  0
M  END
>  <MS_ID>  (3735) 
MS4208

>  <SMILES>  (3735) 
C[C@H](CCC(=O)NCC(=O)O)[C@H]1CC[C@H]2[C@@H]3CC[C@H]4C[C@H](O)CC[C@]4(C)[C@H]3C[C@H](O)[C@]12C

>  <Structure_dimension>  (3735) 
2D

$$$$
MS4210
     RDKit          2D

 38 42  0  0  0  0  0  0  0  0999 V2000
   -0.6552   -4.8882    0.0000 C   0  0  0  0  0  0  0  0  0  0  0  0
   -0.0536   -3.5141    0.0000 C   0  0  0  0  0  0  0  0  0  0  0  0
   -0.9428   -2.3061    0.0000 C   0  0  0  0  0  0  0  0  0  0  0  0
   -2.4336   -2.4722    0.0000 C   0  0  0  0  0  0  0  0  0  0  0  0
   -3.3228   -1.2641    0.0000 C   0  0  0  0  0  0  0  0  0  0  0  0
   -2.7212    0.1099    0.0000 O   0  0  0  0  0  0  0  0  0  0  0  0
   -4.8136   -1.4302    0.0000 O   0  0  0  0  0  0  0  0  0  0  0  0
   -5.7028   -0.2222    0.0000 C   0  0  0  0  0  0  0  0  0  0  0  0
   -5.1012    1.1519    0.0000 O   0  0  0  0  0  0  0  0  0  0  0  0
   -5.9905    2.3599    0.0000 C   0  0  0  0  0  0  0  0  0  0  0  0
   -5.3889    3.7340    0.0000 C   0  0  0  0  0  0  0  0  0  0  0  0
   -3.8981    3.9001    0.0000 O   0  0  0  0  0  0  0  0  0  0  0  0
   -7.4812    2.1938    0.0000 C   0  0  0  0  0  0  0  0  0  0  0  0
   -8.3705    3.4018    0.0000 O   0  0  0  0  0  0  0  0  0  0  0  0
   -8.0828    0.8197    0.0000 C   0  0  0  0  0  0  0  0  0  0  0  0
   -9.5736    0.6536    0.0000 O   0  0  0  0  0  0  0  0  0  0  0  0
   -7.1936   -0.3883    0.0000 C   0  0  0  0  0  0  0  0  0  0  0  0
   -7.7951   -1.7624    0.0000 O   0  0  0  0  0  0  0  0  0  0  0  0
    1.4372   -3.3480    0.0000 C   0  0  0  0  0  0  0  0  0  0  0  0
    2.4478   -4.4565    0.0000 C   0  0  0  0  0  0  0  0  0  0  0  0
    3.8143   -3.8378    0.0000 C   0  0  0  0  0  0  0  0  0  0  0  0
    3.6482   -2.3471    0.0000 C   0  0  0  0  0  0  0  0  0  0  0  0
    4.6449   -1.2261    0.0000 C   0  0  0  0  0  0  0  0  0  0  0  0
    6.1141   -1.5288    0.0000 C   0  0  0  0  0  0  0  0  0  0  0  0
    7.1108   -0.4079    0.0000 C   0  0  0  0  0  0  0  0  0  0  0  0
    6.6384    1.0158    0.0000 C   0  0  0  0  0  0  0  0  0  0  0  0
    7.6352    2.1367    0.0000 C   0  0  0  0  0  0  0  0  0  0  0  0
    7.1628    3.5604    0.0000 C   0  0  0  0  0  0  0  0  0  0  0  0
    8.1595    4.6813    0.0000 O   0  0  0  0  0  0  0  0  0  0  0  0
    5.6936    3.8631    0.0000 C   0  0  0  0  0  0  0  0  0  0  0  0
    4.6969    2.7422    0.0000 C   0  0  0  0  0  0  0  0  0  0  0  0
    5.1693    1.3185    0.0000 C   0  0  0  0  0  0  0  0  0  0  0  0
    3.7001    1.6212    0.0000 C   0  0  0  0  0  0  0  0  0  0  0  0
    4.1725    0.1976    0.0000 C   0  0  0  0  0  0  0  0  0  0  0  0
    2.7034    0.5003    0.0000 C   0  0  0  0  0  0  0  0  0  0  0  0
    1.7067   -0.6207    0.0000 C   0  0  0  0  0  0  0  0  0  0  0  0
    2.1791   -2.0443    0.0000 C   0  0  0  0  0  0  0  0  0  0  0  0
    0.6863   -1.8968    0.0000 C   0  0  0  0  0  0  0  0  0  0  0  0
  2  1  1  6
  2  3  1  0
  3  4  1  0
  4  5  1  0
  5  6  2  0
  5  7  1  0
  8  7  1  1
  8  9  1  0
  9 10  1  0
 10 11  1  1
 11 12  1  0
 10 13  1  0
 13 14  1  1
 13 15  1  0
 15 16  1  1
 15 17  1  0
 17 18  1  6
  2 19  1  0
 19 20  1  6
 20 21  1  0
 22 21  1  6
 22 23  1  0
 23 24  1  1
 24 25  1  0
 26 25  1  1
 26 27  1  0
 27 28  1  0
 28 29  1  1
 28 30  1  0
 30 31  1  0
 31 32  1  0
 32 33  1  6
 32 34  1  0
 34 35  1  6
 35 36  1  0
 36 37  1  0
 37 38  1  6
 17  8  1  0
 37 19  1  0
 37 22  1  0
 34 23  1  0
 32 26  1  0
M  END
>  <MS_ID>  (3736) 
MS4210

>  <SMILES>  (3736) 
C[C@H](CCC(=O)O[C@@H]1O[C@H](CO)[C@H](O)[C@H](O)[C@H]1O)[C@H]1CC[C@H]2[C@@H]3CC[C@@H]4C[C@H](O)CC[C@]4(C)[C@H]3CC[C@]12C

>  <Structure_dimension>  (3736) 
2D

$$$$
MS4211
     RDKit          2D

 28 31  0  0  0  0  0  0  0  0999 V2000
   -5.0096   -2.1352    0.0000 C   0  0  0  0  0  0  0  0  0  0  0  0
   -3.8132   -1.2303    0.0000 C   0  0  0  0  0  0  0  0  0  0  0  0
   -3.9987    0.2582    0.0000 C   0  0  0  0  0  0  0  0  0  0  0  0
   -5.3805    0.8418    0.0000 C   0  0  0  0  0  0  0  0  0  0  0  0
   -5.5659    2.3303    0.0000 C   0  0  0  0  0  0  0  0  0  0  0  0
   -4.3695    3.2351    0.0000 O   0  0  0  0  0  0  0  0  0  0  0  0
   -6.9477    2.9140    0.0000 O   0  0  0  0  0  0  0  0  0  0  0  0
   -2.4315   -1.8140    0.0000 C   0  0  0  0  0  0  0  0  0  0  0  0
   -2.0914   -3.2749    0.0000 C   0  0  0  0  0  0  0  0  0  0  0  0
   -0.5969   -3.4030    0.0000 C   0  0  0  0  0  0  0  0  0  0  0  0
   -0.0133   -2.0212    0.0000 C   0  0  0  0  0  0  0  0  0  0  0  0
    1.4041   -1.5304    0.0000 C   0  0  0  0  0  0  0  0  0  0  0  0
    2.5379   -2.5125    0.0000 C   0  0  0  0  0  0  0  0  0  0  0  0
    3.9554   -2.0216    0.0000 C   0  0  0  0  0  0  0  0  0  0  0  0
    4.2390   -0.5487    0.0000 C   0  0  0  0  0  0  0  0  0  0  0  0
    5.6564   -0.0578    0.0000 C   0  0  0  0  0  0  0  0  0  0  0  0
    5.9400    1.4151    0.0000 C   0  0  0  0  0  0  0  0  0  0  0  0
    7.3574    1.9060    0.0000 O   0  0  0  0  0  0  0  0  0  0  0  0
    4.8062    2.3972    0.0000 C   0  0  0  0  0  0  0  0  0  0  0  0
    3.3888    1.9064    0.0000 C   0  0  0  0  0  0  0  0  0  0  0  0
    3.1052    0.4334    0.0000 C   0  0  0  0  0  0  0  0  0  0  0  0
    1.9714    1.4155    0.0000 C   0  0  0  0  0  0  0  0  0  0  0  0
    1.6878   -0.0574    0.0000 C   0  0  0  0  0  0  0  0  0  0  0  0
    0.5540    0.9246    0.0000 C   0  0  0  0  0  0  0  0  0  0  0  0
   -0.8635    0.4338    0.0000 C   0  0  0  0  0  0  0  0  0  0  0  0
   -1.9973    1.4159    0.0000 O   0  0  0  0  0  0  0  0  0  0  0  0
   -1.1471   -1.0392    0.0000 C   0  0  0  0  0  0  0  0  0  0  0  0
   -2.3773   -0.1810    0.0000 C   0  0  0  0  0  0  0  0  0  0  0  0
  2  1  1  6
  2  3  1  0
  3  4  1  0
  4  5  1  0
  5  6  2  0
  5  7  1  0
  2  8  1  0
  8  9  1  6
  9 10  1  0
 11 10  1  6
 11 12  1  0
 12 13  1  1
 13 14  1  0
 15 14  1  6
 15 16  1  0
 16 17  1  0
 17 18  2  0
 17 19  1  0
 19 20  1  0
 20 21  1  0
 21 22  1  6
 21 23  1  0
 23 24  1  6
 24 25  1  0
 25 26  2  0
 25 27  1  0
 27 28  1  6
 27  8  1  0
 27 11  1  0
 23 12  1  0
 21 15  1  0
M  END
>  <MS_ID>  (3737) 
MS4211

>  <SMILES>  (3737) 
C[C@H](CCC(=O)O)[C@H]1CC[C@H]2[C@@H]3CC[C@H]4CC(=O)CC[C@]4(C)[C@H]3CC(=O)[C@]12C

>  <Structure_dimension>  (3737) 
2D

$$$$
MS4212
     RDKit          2D

 27 30  0  0  0  0  0  0  0  0999 V2000
   -6.9944    3.0301    0.0000 C   0  0  0  0  0  0  0  0  0  0  0  0
   -5.6180    2.4339    0.0000 C   0  0  0  0  0  0  0  0  0  0  0  0
   -4.4135    3.3278    0.0000 O   0  0  0  0  0  0  0  0  0  0  0  0
   -5.4461    0.9438    0.0000 C   0  0  0  0  0  0  0  0  0  0  0  0
   -4.0697    0.3476    0.0000 C   0  0  0  0  0  0  0  0  0  0  0  0
   -3.8978   -1.1425    0.0000 C   0  0  0  0  0  0  0  0  0  0  0  0
   -5.1023   -2.0364    0.0000 C   0  0  0  0  0  0  0  0  0  0  0  0
   -2.5213   -1.7387    0.0000 C   0  0  0  0  0  0  0  0  0  0  0  0
   -2.1946   -3.2027    0.0000 C   0  0  0  0  0  0  0  0  0  0  0  0
   -0.7013   -3.3444    0.0000 C   0  0  0  0  0  0  0  0  0  0  0  0
   -0.1051   -1.9679    0.0000 C   0  0  0  0  0  0  0  0  0  0  0  0
    1.3167   -1.4900    0.0000 C   0  0  0  0  0  0  0  0  0  0  0  0
    2.4415   -2.4823    0.0000 C   0  0  0  0  0  0  0  0  0  0  0  0
    3.8633   -2.0044    0.0000 C   0  0  0  0  0  0  0  0  0  0  0  0
    4.1603   -0.5341    0.0000 C   0  0  0  0  0  0  0  0  0  0  0  0
    5.5821   -0.0561    0.0000 C   0  0  0  0  0  0  0  0  0  0  0  0
    5.8791    1.4142    0.0000 C   0  0  0  0  0  0  0  0  0  0  0  0
    7.3009    1.8921    0.0000 O   0  0  0  0  0  0  0  0  0  0  0  0
    4.7543    2.4065    0.0000 C   0  0  0  0  0  0  0  0  0  0  0  0
    3.3325    1.9286    0.0000 C   0  0  0  0  0  0  0  0  0  0  0  0
    3.0355    0.4583    0.0000 C   0  0  0  0  0  0  0  0  0  0  0  0
    1.9107    1.4506    0.0000 C   0  0  0  0  0  0  0  0  0  0  0  0
    1.6137   -0.0197    0.0000 C   0  0  0  0  0  0  0  0  0  0  0  0
    0.4888    0.9727    0.0000 C   0  0  0  0  0  0  0  0  0  0  0  0
   -0.9330    0.4947    0.0000 C   0  0  0  0  0  0  0  0  0  0  0  0
   -1.2300   -0.9756    0.0000 C   0  0  0  0  0  0  0  0  0  0  0  0
   -2.4524   -0.1062    0.0000 C   0  0  0  0  0  0  0  0  0  0  0  0
  1  2  1  0
  2  3  2  0
  2  4  1  0
  4  5  1  0
  5  6  1  0
  6  7  1  6
  6  8  1  0
  8  9  1  6
  9 10  1  0
 11 10  1  6
 11 12  1  0
 12 13  1  1
 13 14  1  0
 15 14  1  6
 15 16  1  0
 16 17  1  0
 17 18  1  6
 17 19  1  0
 19 20  1  0
 20 21  1  0
 21 22  1  6
 21 23  1  0
 23 24  1  6
 24 25  1  0
 25 26  1  0
 26 27  1  6
 26  8  1  0
 26 11  1  0
 23 12  1  0
 21 15  1  0
M  END
>  <MS_ID>  (3738) 
MS4212

>  <SMILES>  (3738) 
CC(=O)CC[C@@H](C)[C@H]1CC[C@H]2[C@@H]3CC[C@H]4C[C@@H](O)CC[C@]4(C)[C@H]3CC[C@]12C

>  <Structure_dimension>  (3738) 
2D

$$$$
MS4213
     RDKit          2D

 32 35  0  0  0  0  0  0  0  0999 V2000
   -6.0659   -1.8985    0.0000 C   0  0  0  0  0  0  0  0  0  0  0  0
   -4.8404   -1.0335    0.0000 C   0  0  0  0  0  0  0  0  0  0  0  0
   -4.9767    0.4603    0.0000 C   0  0  0  0  0  0  0  0  0  0  0  0
   -6.3386    1.0891    0.0000 C   0  0  0  0  0  0  0  0  0  0  0  0
   -6.4749    2.5829    0.0000 C   0  0  0  0  0  0  0  0  0  0  0  0
   -5.2494    3.4479    0.0000 O   0  0  0  0  0  0  0  0  0  0  0  0
   -7.8367    3.2118    0.0000 O   0  0  0  0  0  0  0  0  0  0  0  0
   -3.4786   -1.6624    0.0000 C   0  0  0  0  0  0  0  0  0  0  0  0
   -3.1869   -3.1337    0.0000 C   0  0  0  0  0  0  0  0  0  0  0  0
   -1.6974   -3.3110    0.0000 C   0  0  0  0  0  0  0  0  0  0  0  0
   -1.0686   -1.9492    0.0000 C   0  0  0  0  0  0  0  0  0  0  0  0
    0.3642   -1.5053    0.0000 C   0  0  0  0  0  0  0  0  0  0  0  0
    1.4651   -2.5242    0.0000 C   0  0  0  0  0  0  0  0  0  0  0  0
    1.1331   -3.9870    0.0000 O   0  0  0  0  0  0  0  0  0  0  0  0
    2.8979   -2.0803    0.0000 C   0  0  0  0  0  0  0  0  0  0  0  0
    3.2299   -0.6175    0.0000 C   0  0  0  0  0  0  0  0  0  0  0  0
    4.6627   -0.1735    0.0000 C   0  0  0  0  0  0  0  0  0  0  0  0
    4.9946    1.2893    0.0000 C   0  0  0  0  0  0  0  0  0  0  0  0
    6.4275    1.7332    0.0000 O   0  0  0  0  0  0  0  0  0  0  0  0
    7.5283    0.7143    0.0000 C   0  0  0  0  0  0  0  0  0  0  0  0
    8.9611    1.1582    0.0000 C   0  0  0  0  0  0  0  0  0  0  0  0
   10.0619    0.1393    0.0000 N   0  0  0  0  0  0  0  0  0  0  0  0
    3.8938    2.3082    0.0000 C   0  0  0  0  0  0  0  0  0  0  0  0
    2.4610    1.8643    0.0000 C   0  0  0  0  0  0  0  0  0  0  0  0
    2.1290    0.4014    0.0000 C   0  0  0  0  0  0  0  0  0  0  0  0
    1.0282    1.4203    0.0000 C   0  0  0  0  0  0  0  0  0  0  0  0
    0.6962   -0.0425    0.0000 C   0  0  0  0  0  0  0  0  0  0  0  0
   -0.4046    0.9764    0.0000 C   0  0  0  0  0  0  0  0  0  0  0  0
   -1.8374    0.5325    0.0000 C   0  0  0  0  0  0  0  0  0  0  0  0
   -2.9383    1.5514    0.0000 O   0  0  0  0  0  0  0  0  0  0  0  0
   -2.1694   -0.9303    0.0000 C   0  0  0  0  0  0  0  0  0  0  0  0
   -3.3707   -0.0320    0.0000 C   0  0  0  0  0  0  0  0  0  0  0  0
  2  1  1  6
  2  3  1  0
  3  4  1  0
  4  5  1  0
  5  6  2  0
  5  7  1  0
  2  8  1  0
  8  9  1  6
  9 10  1  0
 11 10  1  6
 11 12  1  0
 12 13  1  1
 13 14  1  1
 13 15  1  0
 16 15  1  1
 16 17  1  0
 17 18  1  0
 18 19  1  6
 19 20  1  0
 20 21  1  0
 21 22  1  0
 18 23  1  0
 23 24  1  0
 24 25  1  0
 25 26  1  6
 25 27  1  0
 27 28  1  6
 28 29  1  0
 29 30  1  1
 29 31  1  0
 31 32  1  6
 31  8  1  0
 31 11  1  0
 27 12  1  0
 25 16  1  0
M  END
>  <MS_ID>  (3739) 
MS4213

>  <SMILES>  (3739) 
C[C@H](CCC(=O)O)[C@H]1CC[C@H]2[C@@H]3[C@H](O)C[C@@H]4C[C@@H](OCCN)CC[C@]4(C)[C@H]3C[C@H](O)[C@]12C

>  <Structure_dimension>  (3739) 
2D

$$$$
MS4215
     RDKit          2D

 30 33  0  0  0  0  0  0  0  0999 V2000
   -7.4279    3.5601    0.0000 C   0  0  0  0  0  0  0  0  0  0  0  0
   -7.0729    2.1027    0.0000 O   0  0  0  0  0  0  0  0  0  0  0  0
   -5.6333    1.6814    0.0000 C   0  0  0  0  0  0  0  0  0  0  0  0
   -4.5486    2.7174    0.0000 O   0  0  0  0  0  0  0  0  0  0  0  0
   -5.2784    0.2240    0.0000 C   0  0  0  0  0  0  0  0  0  0  0  0
   -3.8388   -0.1974    0.0000 C   0  0  0  0  0  0  0  0  0  0  0  0
   -3.4838   -1.6548    0.0000 C   0  0  0  0  0  0  0  0  0  0  0  0
   -4.5685   -2.6908    0.0000 C   0  0  0  0  0  0  0  0  0  0  0  0
   -2.0442   -2.0761    0.0000 C   0  0  0  0  0  0  0  0  0  0  0  0
   -1.5389   -3.4884    0.0000 C   0  0  0  0  0  0  0  0  0  0  0  0
   -0.0395   -3.4442    0.0000 C   0  0  0  0  0  0  0  0  0  0  0  0
    0.3818   -2.0046    0.0000 C   0  0  0  0  0  0  0  0  0  0  0  0
    1.7336   -1.3544    0.0000 C   0  0  0  0  0  0  0  0  0  0  0  0
    2.9725   -2.1999    0.0000 C   0  0  0  0  0  0  0  0  0  0  0  0
    2.8597   -3.6957    0.0000 O   0  0  0  0  0  0  0  0  0  0  0  0
    4.3243   -1.5497    0.0000 C   0  0  0  0  0  0  0  0  0  0  0  0
    4.4371   -0.0540    0.0000 C   0  0  0  0  0  0  0  0  0  0  0  0
    5.7888    0.5962    0.0000 C   0  0  0  0  0  0  0  0  0  0  0  0
    5.9016    2.0920    0.0000 C   0  0  0  0  0  0  0  0  0  0  0  0
    7.2534    2.7422    0.0000 O   0  0  0  0  0  0  0  0  0  0  0  0
    4.6627    2.9375    0.0000 C   0  0  0  0  0  0  0  0  0  0  0  0
    3.3109    2.2873    0.0000 C   0  0  0  0  0  0  0  0  0  0  0  0
    3.1981    0.7916    0.0000 C   0  0  0  0  0  0  0  0  0  0  0  0
    1.9591    1.6371    0.0000 C   0  0  0  0  0  0  0  0  0  0  0  0
    1.8464    0.1414    0.0000 C   0  0  0  0  0  0  0  0  0  0  0  0
    0.6074    0.9869    0.0000 C   0  0  0  0  0  0  0  0  0  0  0  0
   -0.7444    0.3367    0.0000 C   0  0  0  0  0  0  0  0  0  0  0  0
   -1.9833    1.1823    0.0000 O   0  0  0  0  0  0  0  0  0  0  0  0
   -0.8572   -1.1590    0.0000 C   0  0  0  0  0  0  0  0  0  0  0  0
   -2.1777   -0.4476    0.0000 C   0  0  0  0  0  0  0  0  0  0  0  0
  1  2  1  0
  2  3  1  0
  3  4  2  0
  3  5  1  0
  5  6  1  0
  6  7  1  0
  7  8  1  1
  7  9  1  0
  9 10  1  6
 10 11  1  0
 12 11  1  6
 12 13  1  0
 13 14  1  1
 14 15  1  1
 14 16  1  0
 17 16  1  1
 17 18  1  0
 18 19  1  0
 19 20  1  1
 19 21  1  0
 21 22  1  0
 22 23  1  0
 23 24  1  6
 23 25  1  0
 25 26  1  6
 26 27  1  0
 27 28  1  1
 27 29  1  0
 29 30  1  6
 29  9  1  0
 29 12  1  0
 25 13  1  0
 23 17  1  0
M  END
>  <MS_ID>  (3740) 
MS4215

>  <SMILES>  (3740) 
COC(=O)CC[C@H](C)[C@H]1CC[C@H]2[C@@H]3[C@H](O)C[C@@H]4C[C@H](O)CC[C@]4(C)[C@H]3C[C@H](O)[C@]12C

>  <Structure_dimension>  (3740) 
2D

$$$$
MS4216
     RDKit          2D

 41 45  0  0  0  0  0  0  0  0999 V2000
    0.4732   -5.0215    0.0000 C   0  0  0  0  0  0  0  0  0  0  0  0
    0.9601   -3.6028    0.0000 C   0  0  0  0  0  0  0  0  0  0  0  0
   -0.0252   -2.4717    0.0000 C   0  0  0  0  0  0  0  0  0  0  0  0
   -1.4973   -2.7595    0.0000 C   0  0  0  0  0  0  0  0  0  0  0  0
   -2.4826   -1.6284    0.0000 C   0  0  0  0  0  0  0  0  0  0  0  0
   -1.9957   -0.2096    0.0000 O   0  0  0  0  0  0  0  0  0  0  0  0
   -3.9547   -1.9162    0.0000 N   0  0  0  0  0  0  0  0  0  0  0  0
   -4.9400   -0.7851    0.0000 C   0  0  0  0  0  0  0  0  0  0  0  0
   -6.4121   -1.0729    0.0000 C   0  0  0  0  0  0  0  0  0  0  0  0
   -7.3974    0.0582    0.0000 C   0  0  0  0  0  0  0  0  0  0  0  0
   -6.9105    1.4770    0.0000 C   0  0  0  0  0  0  0  0  0  0  0  0
   -7.8958    2.6080    0.0000 C   0  0  0  0  0  0  0  0  0  0  0  0
   -9.3679    2.3203    0.0000 C   0  0  0  0  0  0  0  0  0  0  0  0
  -10.3532    3.4513    0.0000 O   0  0  0  0  0  0  0  0  0  0  0  0
   -9.8548    0.9015    0.0000 C   0  0  0  0  0  0  0  0  0  0  0  0
  -11.3269    0.6137    0.0000 O   0  0  0  0  0  0  0  0  0  0  0  0
   -8.8695   -0.2296    0.0000 C   0  0  0  0  0  0  0  0  0  0  0  0
   -4.4531    0.6337    0.0000 C   0  0  0  0  0  0  0  0  0  0  0  0
   -2.9810    0.9214    0.0000 O   0  0  0  0  0  0  0  0  0  0  0  0
   -5.4384    1.7647    0.0000 O   0  0  0  0  0  0  0  0  0  0  0  0
    2.4322   -3.3150    0.0000 C   0  0  0  0  0  0  0  0  0  0  0  0
    3.5303   -4.3369    0.0000 C   0  0  0  0  0  0  0  0  0  0  0  0
    4.8415   -3.6083    0.0000 C   0  0  0  0  0  0  0  0  0  0  0  0
    4.5538   -2.1361    0.0000 C   0  0  0  0  0  0  0  0  0  0  0  0
    5.4552   -0.9373    0.0000 C   0  0  0  0  0  0  0  0  0  0  0  0
    6.9443   -1.1185    0.0000 C   0  0  0  0  0  0  0  0  0  0  0  0
    7.8457    0.0804    0.0000 C   0  0  0  0  0  0  0  0  0  0  0  0
    7.2582    1.4605    0.0000 C   0  0  0  0  0  0  0  0  0  0  0  0
    8.1597    2.6594    0.0000 C   0  0  0  0  0  0  0  0  0  0  0  0
    7.5721    4.0396    0.0000 C   0  0  0  0  0  0  0  0  0  0  0  0
    8.4736    5.2385    0.0000 O   0  0  0  0  0  0  0  0  0  0  0  0
    6.0831    4.2208    0.0000 C   0  0  0  0  0  0  0  0  0  0  0  0
    5.1817    3.0219    0.0000 C   0  0  0  0  0  0  0  0  0  0  0  0
    5.7692    1.6418    0.0000 C   0  0  0  0  0  0  0  0  0  0  0  0
    4.2802    1.8230    0.0000 C   0  0  0  0  0  0  0  0  0  0  0  0
    4.8677    0.4429    0.0000 C   0  0  0  0  0  0  0  0  0  0  0  0
    3.3787    0.6241    0.0000 C   0  0  0  0  0  0  0  0  0  0  0  0
    2.4772   -0.5747    0.0000 C   0  0  0  0  0  0  0  0  0  0  0  0
    0.9882   -0.3935    0.0000 O   0  0  0  0  0  0  0  0  0  0  0  0
    3.0648   -1.9549    0.0000 C   0  0  0  0  0  0  0  0  0  0  0  0
    1.5650   -1.9303    0.0000 C   0  0  0  0  0  0  0  0  0  0  0  0
  2  1  1  6
  2  3  1  0
  3  4  1  0
  4  5  1  0
  5  6  2  0
  5  7  1  0
  7  8  1  0
  8  9  1  1
  9 10  1  0
 10 11  2  0
 11 12  1  0
 12 13  2  0
 13 14  1  0
 13 15  1  0
 15 16  1  0
 15 17  2  0
  8 18  1  0
 18 19  2  0
 18 20  1  0
  2 21  1  0
 21 22  1  6
 22 23  1  0
 24 23  1  6
 24 25  1  0
 25 26  1  1
 26 27  1  0
 28 27  1  1
 28 29  1  0
 29 30  1  0
 30 31  1  1
 30 32  1  0
 32 33  1  0
 33 34  1  0
 34 35  1  6
 34 36  1  0
 36 37  1  6
 37 38  1  0
 38 39  1  1
 38 40  1  0
 40 41  1  6
 17 10  1  0
 40 21  1  0
 40 24  1  0
 36 25  1  0
 34 28  1  0
M  END
>  <MS_ID>  (3741) 
MS4216

>  <SMILES>  (3741) 
C[C@H](CCC(=O)N[C@@H](Cc1ccc(O)c(O)c1)C(=O)O)[C@H]1CC[C@H]2[C@@H]3CC[C@@H]4C[C@H](O)CC[C@]4(C)[C@H]3C[C@H](O)[C@]12C

>  <Structure_dimension>  (3741) 
2D

$$$$
MS4217
     RDKit          2D

 33 36  0  0  0  0  0  0  0  0999 V2000
   -2.1911   -4.2543    0.0000 C   0  0  0  0  0  0  0  0  0  0  0  0
   -1.4332   -2.9599    0.0000 C   0  0  0  0  0  0  0  0  0  0  0  0
   -2.1753   -1.6563    0.0000 C   0  0  0  0  0  0  0  0  0  0  0  0
   -3.6753   -1.6472    0.0000 C   0  0  0  0  0  0  0  0  0  0  0  0
   -4.4174   -0.3436    0.0000 C   0  0  0  0  0  0  0  0  0  0  0  0
   -3.6595    0.9508    0.0000 O   0  0  0  0  0  0  0  0  0  0  0  0
   -5.9174   -0.3345    0.0000 N   0  0  0  0  0  0  0  0  0  0  0  0
   -6.6595    0.9690    0.0000 C   0  0  0  0  0  0  0  0  0  0  0  0
   -8.1594    0.9781    0.0000 C   0  0  0  0  0  0  0  0  0  0  0  0
   -8.9015    2.2817    0.0000 C   0  0  0  0  0  0  0  0  0  0  0  0
  -10.4015    2.2908    0.0000 C   0  0  0  0  0  0  0  0  0  0  0  0
  -11.1436    3.5944    0.0000 N   0  0  0  0  0  0  0  0  0  0  0  0
    0.0668   -2.9690    0.0000 C   0  0  0  0  0  0  0  0  0  0  0  0
    0.9410   -4.1878    0.0000 C   0  0  0  0  0  0  0  0  0  0  0  0
    2.3704   -3.7330    0.0000 C   0  0  0  0  0  0  0  0  0  0  0  0
    2.3795   -2.2330    0.0000 C   0  0  0  0  0  0  0  0  0  0  0  0
    3.5003   -1.2361    0.0000 C   0  0  0  0  0  0  0  0  0  0  0  0
    4.9241   -1.7083    0.0000 C   0  0  0  0  0  0  0  0  0  0  0  0
    6.0449   -0.7114    0.0000 C   0  0  0  0  0  0  0  0  0  0  0  0
    5.7419    0.7577    0.0000 C   0  0  0  0  0  0  0  0  0  0  0  0
    6.8627    1.7546    0.0000 C   0  0  0  0  0  0  0  0  0  0  0  0
    6.5597    3.2237    0.0000 C   0  0  0  0  0  0  0  0  0  0  0  0
    7.6805    4.2206    0.0000 O   0  0  0  0  0  0  0  0  0  0  0  0
    5.1360    3.6959    0.0000 C   0  0  0  0  0  0  0  0  0  0  0  0
    4.0152    2.6990    0.0000 C   0  0  0  0  0  0  0  0  0  0  0  0
    4.3182    1.2299    0.0000 C   0  0  0  0  0  0  0  0  0  0  0  0
    2.8944    1.7021    0.0000 C   0  0  0  0  0  0  0  0  0  0  0  0
    3.1974    0.2330    0.0000 C   0  0  0  0  0  0  0  0  0  0  0  0
    1.7736    0.7052    0.0000 C   0  0  0  0  0  0  0  0  0  0  0  0
    0.6528   -0.2917    0.0000 C   0  0  0  0  0  0  0  0  0  0  0  0
   -0.7709    0.1804    0.0000 O   0  0  0  0  0  0  0  0  0  0  0  0
    0.9558   -1.7608    0.0000 C   0  0  0  0  0  0  0  0  0  0  0  0
   -0.5095   -1.4401    0.0000 C   0  0  0  0  0  0  0  0  0  0  0  0
  2  1  1  6
  2  3  1  0
  3  4  1  0
  4  5  1  0
  5  6  2  0
  5  7  1  0
  7  8  1  0
  8  9  1  0
  9 10  1  0
 10 11  1  0
 11 12  1  0
  2 13  1  0
 13 14  1  6
 14 15  1  0
 16 15  1  6
 16 17  1  0
 17 18  1  1
 18 19  1  0
 20 19  1  1
 20 21  1  0
 21 22  1  0
 22 23  1  1
 22 24  1  0
 24 25  1  0
 25 26  1  0
 26 27  1  6
 26 28  1  0
 28 29  1  6
 29 30  1  0
 30 31  1  1
 30 32  1  0
 32 33  1  6
 32 13  1  0
 32 16  1  0
 28 17  1  0
 26 20  1  0
M  END
>  <MS_ID>  (3742) 
MS4217

>  <SMILES>  (3742) 
C[C@H](CCC(=O)NCCCCN)[C@H]1CC[C@H]2[C@@H]3CC[C@@H]4C[C@H](O)CC[C@]4(C)[C@H]3C[C@H](O)[C@]12C

>  <Structure_dimension>  (3742) 
2D

$$$$
MS4219
     RDKit          2D

 29 32  0  0  0  0  0  0  0  0999 V2000
   -4.7851   -2.1278    0.0000 C   0  0  0  0  0  0  0  0  0  0  0  0
   -3.5878   -1.2242    0.0000 C   0  0  0  0  0  0  0  0  0  0  0  0
   -3.7716    0.2645    0.0000 C   0  0  0  0  0  0  0  0  0  0  0  0
   -5.1528    0.8496    0.0000 C   0  0  0  0  0  0  0  0  0  0  0  0
   -6.3501   -0.0539    0.0000 O   0  0  0  0  0  0  0  0  0  0  0  0
   -5.3366    2.3383    0.0000 C   0  0  0  0  0  0  0  0  0  0  0  0
   -4.1392    3.2418    0.0000 O   0  0  0  0  0  0  0  0  0  0  0  0
   -6.7177    2.9235    0.0000 O   0  0  0  0  0  0  0  0  0  0  0  0
   -2.2066   -1.8094    0.0000 C   0  0  0  0  0  0  0  0  0  0  0  0
   -1.8682   -3.2707    0.0000 C   0  0  0  0  0  0  0  0  0  0  0  0
   -0.3739   -3.4005    0.0000 C   0  0  0  0  0  0  0  0  0  0  0  0
    0.2113   -2.0193    0.0000 C   0  0  0  0  0  0  0  0  0  0  0  0
    1.6293   -1.5300    0.0000 C   0  0  0  0  0  0  0  0  0  0  0  0
    2.7620   -2.5133    0.0000 C   0  0  0  0  0  0  0  0  0  0  0  0
    4.1799   -2.0240    0.0000 C   0  0  0  0  0  0  0  0  0  0  0  0
    4.4652   -0.5514    0.0000 C   0  0  0  0  0  0  0  0  0  0  0  0
    5.8831   -0.0621    0.0000 C   0  0  0  0  0  0  0  0  0  0  0  0
    6.1683    1.4106    0.0000 C   0  0  0  0  0  0  0  0  0  0  0  0
    7.5863    1.8999    0.0000 O   0  0  0  0  0  0  0  0  0  0  0  0
    5.0356    2.3939    0.0000 C   0  0  0  0  0  0  0  0  0  0  0  0
    3.6176    1.9046    0.0000 C   0  0  0  0  0  0  0  0  0  0  0  0
    3.3324    0.4319    0.0000 C   0  0  0  0  0  0  0  0  0  0  0  0
    2.1997    1.4153    0.0000 C   0  0  0  0  0  0  0  0  0  0  0  0
    1.9145   -0.0574    0.0000 C   0  0  0  0  0  0  0  0  0  0  0  0
    0.7818    0.9260    0.0000 C   0  0  0  0  0  0  0  0  0  0  0  0
   -0.6362    0.4367    0.0000 C   0  0  0  0  0  0  0  0  0  0  0  0
   -1.7689    1.4200    0.0000 O   0  0  0  0  0  0  0  0  0  0  0  0
   -0.9214   -1.0360    0.0000 C   0  0  0  0  0  0  0  0  0  0  0  0
   -2.1507   -0.1764    0.0000 C   0  0  0  0  0  0  0  0  0  0  0  0
  2  1  1  6
  2  3  1  0
  3  4  1  0
  4  5  2  0
  4  6  1  0
  6  7  2  0
  6  8  1  0
  2  9  1  0
  9 10  1  6
 10 11  1  0
 12 11  1  6
 12 13  1  0
 13 14  1  1
 14 15  1  0
 16 15  1  1
 16 17  1  0
 17 18  1  0
 18 19  1  1
 18 20  1  0
 20 21  1  0
 21 22  1  0
 22 23  1  6
 22 24  1  0
 24 25  1  6
 25 26  1  0
 26 27  1  1
 26 28  1  0
 28 29  1  6
 28  9  1  0
 28 12  1  0
 24 13  1  0
 22 16  1  0
M  END
>  <MS_ID>  (3743) 
MS4219

>  <SMILES>  (3743) 
C[C@H](CC(=O)C(=O)O)[C@H]1CC[C@H]2[C@@H]3CC[C@@H]4C[C@H](O)CC[C@]4(C)[C@H]3C[C@H](O)[C@]12C

>  <Structure_dimension>  (3743) 
2D

$$$$
MS4220
     RDKit          2D

 35 38  0  0  0  0  0  0  0  0999 V2000
   -2.0200   -4.3028    0.0000 C   0  0  0  0  0  0  0  0  0  0  0  0
   -1.3087   -2.9822    0.0000 C   0  0  0  0  0  0  0  0  0  0  0  0
   -2.0967   -1.7059    0.0000 C   0  0  0  0  0  0  0  0  0  0  0  0
   -3.5960   -1.7502    0.0000 C   0  0  0  0  0  0  0  0  0  0  0  0
   -4.3840   -0.4738    0.0000 C   0  0  0  0  0  0  0  0  0  0  0  0
   -3.6727    0.8468    0.0000 O   0  0  0  0  0  0  0  0  0  0  0  0
   -5.8834   -0.5181    0.0000 N   0  0  0  0  0  0  0  0  0  0  0  0
   -6.6714    0.7582    0.0000 C   0  0  0  0  0  0  0  0  0  0  0  0
   -8.1707    0.7140    0.0000 C   0  0  0  0  0  0  0  0  0  0  0  0
   -8.9588    1.9903    0.0000 S   0  0  0  0  0  0  0  0  0  0  0  0
  -10.2351    1.2023    0.0000 O   0  0  0  0  0  0  0  0  0  0  0  0
   -7.6824    2.7783    0.0000 O   0  0  0  0  0  0  0  0  0  0  0  0
   -9.7468    3.2667    0.0000 O   0  0  0  0  0  0  0  0  0  0  0  0
    0.1907   -2.9379    0.0000 C   0  0  0  0  0  0  0  0  0  0  0  0
    1.1078   -4.1249    0.0000 C   0  0  0  0  0  0  0  0  0  0  0  0
    2.5201   -3.6195    0.0000 C   0  0  0  0  0  0  0  0  0  0  0  0
    2.4758   -2.1201    0.0000 C   0  0  0  0  0  0  0  0  0  0  0  0
    3.5604   -1.0840    0.0000 C   0  0  0  0  0  0  0  0  0  0  0  0
    5.0001   -1.5052    0.0000 C   0  0  0  0  0  0  0  0  0  0  0  0
    5.3551   -2.9626    0.0000 O   0  0  0  0  0  0  0  0  0  0  0  0
    6.0847   -0.4691    0.0000 C   0  0  0  0  0  0  0  0  0  0  0  0
    5.7296    0.9883    0.0000 C   0  0  0  0  0  0  0  0  0  0  0  0
    6.8142    2.0245    0.0000 C   0  0  0  0  0  0  0  0  0  0  0  0
    6.4592    3.4819    0.0000 C   0  0  0  0  0  0  0  0  0  0  0  0
    7.5438    4.5180    0.0000 O   0  0  0  0  0  0  0  0  0  0  0  0
    5.0196    3.9031    0.0000 C   0  0  0  0  0  0  0  0  0  0  0  0
    3.9350    2.8669    0.0000 C   0  0  0  0  0  0  0  0  0  0  0  0
    4.2900    1.4095    0.0000 C   0  0  0  0  0  0  0  0  0  0  0  0
    2.8503    1.8308    0.0000 C   0  0  0  0  0  0  0  0  0  0  0  0
    3.2054    0.3734    0.0000 C   0  0  0  0  0  0  0  0  0  0  0  0
    1.7657    0.7946    0.0000 C   0  0  0  0  0  0  0  0  0  0  0  0
    0.6811   -0.2416    0.0000 C   0  0  0  0  0  0  0  0  0  0  0  0
   -0.7585    0.1797    0.0000 O   0  0  0  0  0  0  0  0  0  0  0  0
    1.0362   -1.6989    0.0000 C   0  0  0  0  0  0  0  0  0  0  0  0
   -0.4396   -1.4305    0.0000 C   0  0  0  0  0  0  0  0  0  0  0  0
  2  1  1  6
  2  3  1  0
  3  4  1  0
  4  5  1  0
  5  6  2  0
  5  7  1  0
  7  8  1  0
  8  9  1  0
  9 10  1  0
 10 11  2  0
 10 12  2  0
 10 13  1  0
  2 14  1  0
 14 15  1  6
 15 16  1  0
 17 16  1  6
 17 18  1  0
 18 19  1  6
 19 20  1  1
 19 21  1  0
 22 21  1  1
 22 23  1  0
 23 24  1  0
 24 25  1  1
 24 26  1  0
 26 27  1  0
 27 28  1  0
 28 29  1  6
 28 30  1  0
 30 31  1  6
 31 32  1  0
 32 33  1  1
 32 34  1  0
 34 35  1  6
 34 14  1  0
 34 17  1  0
 30 18  1  0
 28 22  1  0
M  END
>  <MS_ID>  (3744) 
MS4220

>  <SMILES>  (3744) 
C[C@H](CCC(=O)NCCS(=O)(=O)O)[C@H]1CC[C@H]2[C@H]3[C@H](O)C[C@@H]4C[C@H](O)CC[C@]4(C)[C@H]3C[C@H](O)[C@]12C

>  <Structure_dimension>  (3744) 
2D

$$$$
MS4221
     RDKit          2D

 38 42  0  0  0  0  0  0  0  0999 V2000
   -0.6913   -4.6926    0.0000 C   0  0  0  0  0  0  0  0  0  0  0  0
   -0.1025   -3.3130    0.0000 C   0  0  0  0  0  0  0  0  0  0  0  0
   -1.0030   -2.1133    0.0000 C   0  0  0  0  0  0  0  0  0  0  0  0
   -2.4921   -2.2933    0.0000 C   0  0  0  0  0  0  0  0  0  0  0  0
   -3.3925   -1.0936    0.0000 C   0  0  0  0  0  0  0  0  0  0  0  0
   -2.8038    0.2861    0.0000 O   0  0  0  0  0  0  0  0  0  0  0  0
   -4.8817   -1.2735    0.0000 N   0  0  0  0  0  0  0  0  0  0  0  0
   -5.7821   -0.0738    0.0000 C   0  0  0  0  0  0  0  0  0  0  0  0
   -5.1934    1.3058    0.0000 C   0  0  0  0  0  0  0  0  0  0  0  0
   -6.0938    2.5055    0.0000 C   0  0  0  0  0  0  0  0  0  0  0  0
   -7.5830    2.3256    0.0000 C   0  0  0  0  0  0  0  0  0  0  0  0
   -8.4834    3.5252    0.0000 O   0  0  0  0  0  0  0  0  0  0  0  0
   -8.1717    0.9459    0.0000 C   0  0  0  0  0  0  0  0  0  0  0  0
   -9.6609    0.7660    0.0000 C   0  0  0  0  0  0  0  0  0  0  0  0
  -10.5613    1.9657    0.0000 O   0  0  0  0  0  0  0  0  0  0  0  0
  -10.2496   -0.6136    0.0000 O   0  0  0  0  0  0  0  0  0  0  0  0
   -7.2713   -0.2538    0.0000 C   0  0  0  0  0  0  0  0  0  0  0  0
    1.3866   -3.1331    0.0000 C   0  0  0  0  0  0  0  0  0  0  0  0
    2.4075   -4.2321    0.0000 C   0  0  0  0  0  0  0  0  0  0  0  0
    3.7682   -3.6008    0.0000 C   0  0  0  0  0  0  0  0  0  0  0  0
    3.5883   -2.1116    0.0000 C   0  0  0  0  0  0  0  0  0  0  0  0
    4.5745   -0.9814    0.0000 C   0  0  0  0  0  0  0  0  0  0  0  0
    6.0464   -1.2705    0.0000 C   0  0  0  0  0  0  0  0  0  0  0  0
    6.5320   -2.6897    0.0000 O   0  0  0  0  0  0  0  0  0  0  0  0
    7.0327   -0.1403    0.0000 C   0  0  0  0  0  0  0  0  0  0  0  0
    6.5470    1.2789    0.0000 C   0  0  0  0  0  0  0  0  0  0  0  0
    7.5333    2.4091    0.0000 C   0  0  0  0  0  0  0  0  0  0  0  0
    7.0477    3.8283    0.0000 C   0  0  0  0  0  0  0  0  0  0  0  0
    8.0340    4.9585    0.0000 O   0  0  0  0  0  0  0  0  0  0  0  0
    5.5758    4.1173    0.0000 C   0  0  0  0  0  0  0  0  0  0  0  0
    4.5895    2.9872    0.0000 C   0  0  0  0  0  0  0  0  0  0  0  0
    5.0752    1.5680    0.0000 C   0  0  0  0  0  0  0  0  0  0  0  0
    3.6033    1.8570    0.0000 C   0  0  0  0  0  0  0  0  0  0  0  0
    4.0889    0.4378    0.0000 C   0  0  0  0  0  0  0  0  0  0  0  0
    2.6170    0.7268    0.0000 C   0  0  0  0  0  0  0  0  0  0  0  0
    1.6307   -0.4033    0.0000 C   0  0  0  0  0  0  0  0  0  0  0  0
    2.1164   -1.8225    0.0000 C   0  0  0  0  0  0  0  0  0  0  0  0
    0.6223   -1.6889    0.0000 C   0  0  0  0  0  0  0  0  0  0  0  0
  2  1  1  6
  2  3  1  0
  3  4  1  0
  4  5  1  0
  5  6  2  0
  5  7  1  0
  7  8  1  0
  8  9  2  0
  9 10  1  0
 10 11  2  0
 11 12  1  0
 11 13  1  0
 13 14  1  0
 14 15  2  0
 14 16  1  0
 13 17  2  0
  2 18  1  0
 18 19  1  6
 19 20  1  0
 21 20  1  6
 21 22  1  0
 22 23  1  1
 23 24  1  1
 23 25  1  0
 26 25  1  1
 26 27  1  0
 27 28  1  0
 28 29  1  1
 28 30  1  0
 30 31  1  0
 31 32  1  0
 32 33  1  6
 32 34  1  0
 34 35  1  6
 35 36  1  0
 36 37  1  0
 37 38  1  6
 17  8  1  0
 37 18  1  0
 37 21  1  0
 34 22  1  0
 32 26  1  0
M  END
>  <MS_ID>  (3745) 
MS4221

>  <SMILES>  (3745) 
C[C@H](CCC(=O)Nc1ccc(O)c(C(=O)O)c1)[C@H]1CC[C@H]2[C@@H]3[C@H](O)C[C@@H]4C[C@H](O)CC[C@]4(C)[C@H]3CC[C@]12C

>  <Structure_dimension>  (3745) 
2D

$$$$
MS4224
     RDKit          2D

 35 38  0  0  0  0  0  0  0  0999 V2000
   -1.4745   -4.5702    0.0000 C   0  0  0  0  0  0  0  0  0  0  0  0
   -0.7905   -3.2352    0.0000 C   0  0  0  0  0  0  0  0  0  0  0  0
   -1.6047   -1.9754    0.0000 C   0  0  0  0  0  0  0  0  0  0  0  0
   -3.1028   -2.0506    0.0000 C   0  0  0  0  0  0  0  0  0  0  0  0
   -3.9170   -0.7908    0.0000 C   0  0  0  0  0  0  0  0  0  0  0  0
   -3.2330    0.5442    0.0000 O   0  0  0  0  0  0  0  0  0  0  0  0
   -5.4151   -0.8660    0.0000 N   0  0  0  0  0  0  0  0  0  0  0  0
   -6.2293    0.3939    0.0000 C   0  0  0  0  0  0  0  0  0  0  0  0
   -7.7274    0.3187    0.0000 C   0  0  0  0  0  0  0  0  0  0  0  0
   -8.5415    1.5785    0.0000 C   0  0  0  0  0  0  0  0  0  0  0  0
  -10.0396    1.5033    0.0000 C   0  0  0  0  0  0  0  0  0  0  0  0
  -10.8538    2.7631    0.0000 O   0  0  0  0  0  0  0  0  0  0  0  0
   -5.5453    1.7289    0.0000 C   0  0  0  0  0  0  0  0  0  0  0  0
   -4.0472    1.8040    0.0000 O   0  0  0  0  0  0  0  0  0  0  0  0
   -6.3595    2.9887    0.0000 O   0  0  0  0  0  0  0  0  0  0  0  0
    0.7076   -3.1601    0.0000 C   0  0  0  0  0  0  0  0  0  0  0  0
    1.6490   -4.3279    0.0000 C   0  0  0  0  0  0  0  0  0  0  0  0
    3.0505   -3.7934    0.0000 C   0  0  0  0  0  0  0  0  0  0  0  0
    2.9753   -2.2953    0.0000 C   0  0  0  0  0  0  0  0  0  0  0  0
    4.0384   -1.2370    0.0000 C   0  0  0  0  0  0  0  0  0  0  0  0
    5.4864   -1.6285    0.0000 C   0  0  0  0  0  0  0  0  0  0  0  0
    6.5494   -0.5702    0.0000 C   0  0  0  0  0  0  0  0  0  0  0  0
    6.1644    0.8796    0.0000 C   0  0  0  0  0  0  0  0  0  0  0  0
    7.2274    1.9379    0.0000 C   0  0  0  0  0  0  0  0  0  0  0  0
    6.8424    3.3876    0.0000 C   0  0  0  0  0  0  0  0  0  0  0  0
    7.9054    4.4459    0.0000 O   0  0  0  0  0  0  0  0  0  0  0  0
    5.3944    3.7791    0.0000 C   0  0  0  0  0  0  0  0  0  0  0  0
    4.3314    2.7208    0.0000 C   0  0  0  0  0  0  0  0  0  0  0  0
    4.7164    1.2710    0.0000 C   0  0  0  0  0  0  0  0  0  0  0  0
    3.2683    1.6625    0.0000 C   0  0  0  0  0  0  0  0  0  0  0  0
    3.6534    0.2127    0.0000 C   0  0  0  0  0  0  0  0  0  0  0  0
    2.2053    0.6042    0.0000 C   0  0  0  0  0  0  0  0  0  0  0  0
    1.1423   -0.4541    0.0000 C   0  0  0  0  0  0  0  0  0  0  0  0
    1.5273   -1.9039    0.0000 C   0  0  0  0  0  0  0  0  0  0  0  0
    0.0463   -1.6659    0.0000 C   0  0  0  0  0  0  0  0  0  0  0  0
  2  1  1  6
  2  3  1  0
  3  4  1  0
  4  5  1  0
  5  6  2  0
  5  7  1  0
  7  8  1  0
  8  9  1  1
  9 10  1  0
 10 11  1  0
 11 12  2  0
  8 13  1  0
 13 14  2  0
 13 15  1  0
  2 16  1  0
 16 17  1  6
 17 18  1  0
 19 18  1  6
 19 20  1  0
 20 21  1  1
 21 22  1  0
 23 22  1  1
 23 24  1  0
 24 25  1  0
 25 26  1  1
 25 27  1  0
 27 28  1  0
 28 29  1  0
 29 30  1  6
 29 31  1  0
 31 32  1  6
 32 33  1  0
 33 34  1  0
 34 35  1  6
 34 16  1  0
 34 19  1  0
 31 20  1  0
 29 23  1  0
M  END
>  <MS_ID>  (3746) 
MS4224

>  <SMILES>  (3746) 
C[C@H](CCC(=O)N[C@@H](CCC=O)C(=O)O)[C@H]1CC[C@H]2[C@@H]3CC[C@@H]4C[C@H](O)CC[C@]4(C)[C@H]3CC[C@]12C

>  <Structure_dimension>  (3746) 
2D

$$$$
MS4225
     RDKit          2D

 33 36  0  0  0  0  0  0  0  0999 V2000
   -1.9813   -4.3426    0.0000 C   0  0  0  0  0  0  0  0  0  0  0  0
   -1.2397   -3.0388    0.0000 C   0  0  0  0  0  0  0  0  0  0  0  0
   -1.9981   -1.7446    0.0000 C   0  0  0  0  0  0  0  0  0  0  0  0
   -3.4981   -1.7543    0.0000 C   0  0  0  0  0  0  0  0  0  0  0  0
   -4.2565   -0.4602    0.0000 C   0  0  0  0  0  0  0  0  0  0  0  0
   -3.5149    0.8437    0.0000 O   0  0  0  0  0  0  0  0  0  0  0  0
   -5.7564   -0.4699    0.0000 N   0  0  0  0  0  0  0  0  0  0  0  0
   -6.5148    0.8243    0.0000 C   0  0  0  0  0  0  0  0  0  0  0  0
   -8.0148    0.8146    0.0000 C   0  0  0  0  0  0  0  0  0  0  0  0
   -8.7732    2.1088    0.0000 S   0  0  0  0  0  0  0  0  0  0  0  0
  -10.0673    1.3504    0.0000 O   0  0  0  0  0  0  0  0  0  0  0  0
   -7.4790    2.8671    0.0000 O   0  0  0  0  0  0  0  0  0  0  0  0
   -9.5316    3.4029    0.0000 O   0  0  0  0  0  0  0  0  0  0  0  0
    0.2602   -3.0291    0.0000 C   0  0  0  0  0  0  0  0  0  0  0  0
    1.1497   -4.2369    0.0000 C   0  0  0  0  0  0  0  0  0  0  0  0
    2.5733   -3.7641    0.0000 C   0  0  0  0  0  0  0  0  0  0  0  0
    2.5636   -2.2642    0.0000 C   0  0  0  0  0  0  0  0  0  0  0  0
    3.6718   -1.2533    0.0000 C   0  0  0  0  0  0  0  0  0  0  0  0
    5.1013   -1.7076    0.0000 C   0  0  0  0  0  0  0  0  0  0  0  0
    6.2095   -0.6967    0.0000 C   0  0  0  0  0  0  0  0  0  0  0  0
    5.8882    0.7685    0.0000 C   0  0  0  0  0  0  0  0  0  0  0  0
    6.9964    1.7794    0.0000 C   0  0  0  0  0  0  0  0  0  0  0  0
    6.6751    3.2445    0.0000 C   0  0  0  0  0  0  0  0  0  0  0  0
    7.7833    4.2554    0.0000 O   0  0  0  0  0  0  0  0  0  0  0  0
    5.2455    3.6988    0.0000 C   0  0  0  0  0  0  0  0  0  0  0  0
    4.1373    2.6879    0.0000 C   0  0  0  0  0  0  0  0  0  0  0  0
    4.4586    1.2228    0.0000 C   0  0  0  0  0  0  0  0  0  0  0  0
    3.0291    1.6771    0.0000 C   0  0  0  0  0  0  0  0  0  0  0  0
    3.3504    0.2119    0.0000 C   0  0  0  0  0  0  0  0  0  0  0  0
    1.9209    0.6662    0.0000 C   0  0  0  0  0  0  0  0  0  0  0  0
    0.8127   -0.3447    0.0000 C   0  0  0  0  0  0  0  0  0  0  0  0
    1.1340   -1.8099    0.0000 C   0  0  0  0  0  0  0  0  0  0  0  0
   -0.3352   -1.5075    0.0000 C   0  0  0  0  0  0  0  0  0  0  0  0
  2  1  1  1
  2  3  1  0
  3  4  1  0
  4  5  1  0
  5  6  2  0
  5  7  1  0
  7  8  1  0
  8  9  1  0
  9 10  1  0
 10 11  2  0
 10 12  2  0
 10 13  1  0
  2 14  1  0
 14 15  1  6
 15 16  1  0
 17 16  1  6
 17 18  1  0
 18 19  1  1
 19 20  1  0
 21 20  1  6
 21 22  1  0
 22 23  1  0
 23 24  1  6
 23 25  1  0
 25 26  1  0
 26 27  1  0
 27 28  1  6
 27 29  1  0
 29 30  1  6
 30 31  1  0
 31 32  1  0
 32 33  1  6
 32 14  1  0
 32 17  1  0
 29 18  1  0
 27 21  1  0
M  END
>  <MS_ID>  (3747) 
MS4225

>  <SMILES>  (3747) 
C[C@@H](CCC(=O)NCCS(=O)(=O)O)[C@H]1CC[C@H]2[C@@H]3CC[C@H]4C[C@@H](O)CC[C@]4(C)[C@H]3CC[C@]12C

>  <Structure_dimension>  (3747) 
2D

$$$$
MS4227
     RDKit          2D

 29 32  0  0  0  0  0  0  0  0999 V2000
   -7.5935    3.5474    0.0000 C   0  0  0  0  0  0  0  0  0  0  0  0
   -7.2369    2.0904    0.0000 O   0  0  0  0  0  0  0  0  0  0  0  0
   -5.7968    1.6707    0.0000 C   0  0  0  0  0  0  0  0  0  0  0  0
   -4.7133    2.7080    0.0000 O   0  0  0  0  0  0  0  0  0  0  0  0
   -5.4402    0.2137    0.0000 C   0  0  0  0  0  0  0  0  0  0  0  0
   -4.0001   -0.2060    0.0000 C   0  0  0  0  0  0  0  0  0  0  0  0
   -3.6435   -1.6630    0.0000 C   0  0  0  0  0  0  0  0  0  0  0  0
   -4.7270   -2.7003    0.0000 C   0  0  0  0  0  0  0  0  0  0  0  0
   -2.2035   -2.0826    0.0000 C   0  0  0  0  0  0  0  0  0  0  0  0
   -1.6965   -3.4944    0.0000 C   0  0  0  0  0  0  0  0  0  0  0  0
   -0.1972   -3.4485    0.0000 C   0  0  0  0  0  0  0  0  0  0  0  0
    0.2225   -2.0084    0.0000 C   0  0  0  0  0  0  0  0  0  0  0  0
    1.5735   -1.3567    0.0000 C   0  0  0  0  0  0  0  0  0  0  0  0
    2.8134   -2.2008    0.0000 C   0  0  0  0  0  0  0  0  0  0  0  0
    4.1644   -1.5491    0.0000 C   0  0  0  0  0  0  0  0  0  0  0  0
    5.4043   -2.3933    0.0000 O   0  0  0  0  0  0  0  0  0  0  0  0
    4.2755   -0.0532    0.0000 C   0  0  0  0  0  0  0  0  0  0  0  0
    5.6265    0.5985    0.0000 C   0  0  0  0  0  0  0  0  0  0  0  0
    5.7376    2.0944    0.0000 C   0  0  0  0  0  0  0  0  0  0  0  0
    7.0887    2.7461    0.0000 O   0  0  0  0  0  0  0  0  0  0  0  0
    4.4977    2.9385    0.0000 C   0  0  0  0  0  0  0  0  0  0  0  0
    3.1467    2.2868    0.0000 C   0  0  0  0  0  0  0  0  0  0  0  0
    3.0356    0.7909    0.0000 C   0  0  0  0  0  0  0  0  0  0  0  0
    1.7957    1.6351    0.0000 C   0  0  0  0  0  0  0  0  0  0  0  0
    1.6846    0.1392    0.0000 C   0  0  0  0  0  0  0  0  0  0  0  0
    0.4447    0.9834    0.0000 C   0  0  0  0  0  0  0  0  0  0  0  0
   -0.9064    0.3316    0.0000 C   0  0  0  0  0  0  0  0  0  0  0  0
   -1.0175   -1.1643    0.0000 C   0  0  0  0  0  0  0  0  0  0  0  0
   -2.3388   -0.4543    0.0000 C   0  0  0  0  0  0  0  0  0  0  0  0
  1  2  1  0
  2  3  1  0
  3  4  2  0
  3  5  1  0
  5  6  1  0
  6  7  1  0
  7  8  1  6
  7  9  1  0
  9 10  1  6
 10 11  1  0
 12 11  1  6
 12 13  1  0
 13 14  1  1
 14 15  1  0
 15 16  1  1
 15 17  1  0
 17 18  1  6
 18 19  1  0
 19 20  1  1
 19 21  1  0
 21 22  1  0
 22 23  1  0
 23 24  1  6
 23 25  1  0
 25 26  1  6
 26 27  1  0
 27 28  1  0
 28 29  1  6
 28  9  1  0
 28 12  1  0
 25 13  1  0
 23 17  1  0
M  END
>  <MS_ID>  (3748) 
MS4227

>  <SMILES>  (3748) 
COC(=O)CC[C@@H](C)[C@H]1CC[C@H]2[C@@H]3C[C@H](O)[C@H]4C[C@H](O)CC[C@]4(C)[C@H]3CC[C@]12C

>  <Structure_dimension>  (3748) 
2D

$$$$
MS4229
     RDKit          2D

 29 32  0  0  0  0  0  0  0  0999 V2000
   -5.0303   -2.1373    0.0000 C   0  0  0  0  0  0  0  0  0  0  0  0
   -3.8594   -1.1998    0.0000 C   0  0  0  0  0  0  0  0  0  0  0  0
   -4.0858    0.2830    0.0000 C   0  0  0  0  0  0  0  0  0  0  0  0
   -5.4831    0.8284    0.0000 C   0  0  0  0  0  0  0  0  0  0  0  0
   -5.7095    2.3112    0.0000 C   0  0  0  0  0  0  0  0  0  0  0  0
   -4.5386    3.2487    0.0000 O   0  0  0  0  0  0  0  0  0  0  0  0
   -7.1069    2.8565    0.0000 O   0  0  0  0  0  0  0  0  0  0  0  0
   -2.4620   -1.7451    0.0000 C   0  0  0  0  0  0  0  0  0  0  0  0
   -2.0818   -3.1961    0.0000 C   0  0  0  0  0  0  0  0  0  0  0  0
   -0.5844   -3.2830    0.0000 C   0  0  0  0  0  0  0  0  0  0  0  0
   -0.0390   -1.8856    0.0000 C   0  0  0  0  0  0  0  0  0  0  0  0
    1.3643   -1.3559    0.0000 C   0  0  0  0  0  0  0  0  0  0  0  0
    2.5248   -2.3063    0.0000 C   0  0  0  0  0  0  0  0  0  0  0  0
    2.2819   -3.7865    0.0000 O   0  0  0  0  0  0  0  0  0  0  0  0
    3.9281   -1.7765    0.0000 C   0  0  0  0  0  0  0  0  0  0  0  0
    4.1710   -0.2963    0.0000 C   0  0  0  0  0  0  0  0  0  0  0  0
    5.5743    0.2334    0.0000 C   0  0  0  0  0  0  0  0  0  0  0  0
    5.8172    1.7136    0.0000 C   0  0  0  0  0  0  0  0  0  0  0  0
    7.2205    2.2434    0.0000 O   0  0  0  0  0  0  0  0  0  0  0  0
    4.6568    2.6641    0.0000 C   0  0  0  0  0  0  0  0  0  0  0  0
    3.2534    2.1343    0.0000 C   0  0  0  0  0  0  0  0  0  0  0  0
    3.0105    0.6541    0.0000 C   0  0  0  0  0  0  0  0  0  0  0  0
    1.8501    1.6046    0.0000 C   0  0  0  0  0  0  0  0  0  0  0  0
    1.6072    0.1244    0.0000 C   0  0  0  0  0  0  0  0  0  0  0  0
    0.4467    1.0748    0.0000 C   0  0  0  0  0  0  0  0  0  0  0  0
   -0.9566    0.5450    0.0000 C   0  0  0  0  0  0  0  0  0  0  0  0
   -2.1170    1.4955    0.0000 O   0  0  0  0  0  0  0  0  0  0  0  0
   -1.1995   -0.9352    0.0000 C   0  0  0  0  0  0  0  0  0  0  0  0
   -2.4529   -0.1112    0.0000 C   0  0  0  0  0  0  0  0  0  0  0  0
  2  1  1  6
  2  3  1  0
  3  4  1  0
  4  5  1  0
  5  6  2  0
  5  7  1  0
  2  8  1  0
  8  9  1  6
  9 10  1  0
 11 10  1  6
 11 12  1  0
 12 13  1  1
 13 14  1  1
 13 15  1  0
 16 15  1  6
 16 17  1  0
 17 18  1  0
 18 19  1  6
 18 20  1  0
 20 21  1  0
 21 22  1  0
 22 23  1  6
 22 24  1  0
 24 25  1  6
 25 26  1  0
 26 27  1  6
 26 28  1  0
 28 29  1  6
 28  8  1  0
 28 11  1  0
 24 12  1  0
 22 16  1  0
M  END
>  <MS_ID>  (3749) 
MS4229

>  <SMILES>  (3749) 
C[C@H](CCC(=O)O)[C@H]1CC[C@H]2[C@@H]3[C@H](O)C[C@H]4C[C@@H](O)CC[C@]4(C)[C@H]3C[C@@H](O)[C@]12C

>  <Structure_dimension>  (3749) 
2D

$$$$
MS4238
     RDKit          2D

 29 32  0  0  0  0  0  0  0  0999 V2000
   -5.2182   -2.1453    0.0000 C   0  0  0  0  0  0  0  0  0  0  0  0
   -4.0752   -1.1739    0.0000 C   0  0  0  0  0  0  0  0  0  0  0  0
   -4.3449    0.3016    0.0000 C   0  0  0  0  0  0  0  0  0  0  0  0
   -5.7577    0.8058    0.0000 C   0  0  0  0  0  0  0  0  0  0  0  0
   -6.0274    2.2814    0.0000 C   0  0  0  0  0  0  0  0  0  0  0  0
   -4.8843    3.2527    0.0000 O   0  0  0  0  0  0  0  0  0  0  0  0
   -7.4401    2.7856    0.0000 O   0  0  0  0  0  0  0  0  0  0  0  0
   -2.6625   -1.6782    0.0000 C   0  0  0  0  0  0  0  0  0  0  0  0
   -2.2400   -3.1174    0.0000 C   0  0  0  0  0  0  0  0  0  0  0  0
   -0.7407   -3.1604    0.0000 C   0  0  0  0  0  0  0  0  0  0  0  0
   -0.2364   -1.7477    0.0000 C   0  0  0  0  0  0  0  0  0  0  0  0
    1.1508   -1.1771    0.0000 C   0  0  0  0  0  0  0  0  0  0  0  0
    2.3386   -2.0932    0.0000 C   0  0  0  0  0  0  0  0  0  0  0  0
    2.1391   -3.5798    0.0000 O   0  0  0  0  0  0  0  0  0  0  0  0
    3.7258   -1.5226    0.0000 C   0  0  0  0  0  0  0  0  0  0  0  0
    4.9136   -2.4386    0.0000 F   0  0  0  0  0  0  0  0  0  0  0  0
    3.9253   -0.0359    0.0000 C   0  0  0  0  0  0  0  0  0  0  0  0
    5.3125    0.5347    0.0000 C   0  0  0  0  0  0  0  0  0  0  0  0
    5.5119    2.0214    0.0000 C   0  0  0  0  0  0  0  0  0  0  0  0
    6.8992    2.5920    0.0000 O   0  0  0  0  0  0  0  0  0  0  0  0
    4.3242    2.9375    0.0000 C   0  0  0  0  0  0  0  0  0  0  0  0
    2.9369    2.3669    0.0000 C   0  0  0  0  0  0  0  0  0  0  0  0
    2.7375    0.8802    0.0000 C   0  0  0  0  0  0  0  0  0  0  0  0
    1.5497    1.7963    0.0000 C   0  0  0  0  0  0  0  0  0  0  0  0
    1.3502    0.3096    0.0000 C   0  0  0  0  0  0  0  0  0  0  0  0
    0.1625    1.2257    0.0000 C   0  0  0  0  0  0  0  0  0  0  0  0
   -1.2248    0.6551    0.0000 C   0  0  0  0  0  0  0  0  0  0  0  0
   -1.4242   -0.8316    0.0000 C   0  0  0  0  0  0  0  0  0  0  0  0
   -2.7012   -0.0447    0.0000 C   0  0  0  0  0  0  0  0  0  0  0  0
  2  1  1  6
  2  3  1  0
  3  4  1  0
  4  5  1  0
  5  6  2  0
  5  7  1  0
  2  8  1  0
  8  9  1  6
  9 10  1  0
 11 10  1  6
 11 12  1  0
 12 13  1  1
 13 14  1  6
 13 15  1  0
 15 16  1  6
 15 17  1  0
 17 18  1  1
 18 19  1  0
 19 20  1  1
 19 21  1  0
 21 22  1  0
 22 23  1  0
 23 24  1  6
 23 25  1  0
 25 26  1  6
 26 27  1  0
 27 28  1  0
 28 29  1  6
 28  8  1  0
 28 11  1  0
 25 12  1  0
 23 17  1  0
M  END
>  <MS_ID>  (3750) 
MS4238

>  <SMILES>  (3750) 
C[C@H](CCC(=O)O)[C@H]1CC[C@H]2[C@@H]3[C@@H](O)[C@@H](F)[C@@H]4C[C@H](O)CC[C@]4(C)[C@H]3CC[C@]12C

>  <Structure_dimension>  (3750) 
2D

$$$$
MS4239
     RDKit          2D

 35 38  0  0  0  0  0  0  0  0999 V2000
    2.5169    4.2438    0.0000 C   0  0  0  0  0  0  0  0  0  0  0  0
    1.7539    2.9523    0.0000 C   0  0  0  0  0  0  0  0  0  0  0  0
    2.4909    1.6458    0.0000 C   0  0  0  0  0  0  0  0  0  0  0  0
    3.9908    1.6308    0.0000 C   0  0  0  0  0  0  0  0  0  0  0  0
    4.7278    0.3244    0.0000 C   0  0  0  0  0  0  0  0  0  0  0  0
    3.9648   -0.9671    0.0000 O   0  0  0  0  0  0  0  0  0  0  0  0
    6.2277    0.3094    0.0000 N   0  0  0  0  0  0  0  0  0  0  0  0
    6.9647   -0.9971    0.0000 C   0  0  0  0  0  0  0  0  0  0  0  0
    8.4646   -1.0121    0.0000 C   0  0  0  0  0  0  0  0  0  0  0  0
    9.2016   -2.3186    0.0000 C   0  0  0  0  0  0  0  0  0  0  0  0
    8.4386   -3.6101    0.0000 O   0  0  0  0  0  0  0  0  0  0  0  0
   10.7015   -2.3336    0.0000 O   0  0  0  0  0  0  0  0  0  0  0  0
    0.2540    2.9673    0.0000 C   0  0  0  0  0  0  0  0  0  0  0  0
   -0.6155    4.1896    0.0000 C   0  0  0  0  0  0  0  0  0  0  0  0
   -2.0466    3.7404    0.0000 C   0  0  0  0  0  0  0  0  0  0  0  0
   -2.0616    2.2404    0.0000 C   0  0  0  0  0  0  0  0  0  0  0  0
   -3.1863    1.2479    0.0000 C   0  0  0  0  0  0  0  0  0  0  0  0
   -4.6082    1.7257    0.0000 C   0  0  0  0  0  0  0  0  0  0  0  0
   -4.9054    3.1960    0.0000 O   0  0  0  0  0  0  0  0  0  0  0  0
   -5.7329    0.7332    0.0000 C   0  0  0  0  0  0  0  0  0  0  0  0
   -5.4357   -0.7371    0.0000 C   0  0  0  0  0  0  0  0  0  0  0  0
   -6.5604   -1.7296    0.0000 C   0  0  0  0  0  0  0  0  0  0  0  0
   -6.2633   -3.1998    0.0000 C   0  0  0  0  0  0  0  0  0  0  0  0
   -7.3880   -4.1923    0.0000 O   0  0  0  0  0  0  0  0  0  0  0  0
   -4.8414   -3.6776    0.0000 C   0  0  0  0  0  0  0  0  0  0  0  0
   -3.7167   -2.6851    0.0000 C   0  0  0  0  0  0  0  0  0  0  0  0
   -2.2948   -3.1629    0.0000 O   0  0  0  0  0  0  0  0  0  0  0  0
   -4.0139   -1.2148    0.0000 C   0  0  0  0  0  0  0  0  0  0  0  0
   -2.5920   -1.6926    0.0000 C   0  0  0  0  0  0  0  0  0  0  0  0
   -2.8892   -0.2223    0.0000 C   0  0  0  0  0  0  0  0  0  0  0  0
   -1.4673   -0.7001    0.0000 C   0  0  0  0  0  0  0  0  0  0  0  0
   -0.3426    0.2924    0.0000 C   0  0  0  0  0  0  0  0  0  0  0  0
    1.0793   -0.1854    0.0000 O   0  0  0  0  0  0  0  0  0  0  0  0
   -0.6398    1.7627    0.0000 C   0  0  0  0  0  0  0  0  0  0  0  0
    0.8243    1.4361    0.0000 C   0  0  0  0  0  0  0  0  0  0  0  0
  2  1  1  6
  2  3  1  0
  3  4  1  0
  4  5  1  0
  5  6  2  0
  5  7  1  0
  7  8  1  0
  8  9  1  0
  9 10  1  0
 10 11  2  0
 10 12  1  0
  2 13  1  0
 13 14  1  6
 14 15  1  0
 16 15  1  6
 16 17  1  0
 17 18  1  1
 18 19  1  1
 18 20  1  0
 21 20  1  1
 21 22  1  0
 22 23  1  0
 23 24  1  1
 23 25  1  0
 25 26  1  0
 26 27  1  6
 26 28  1  0
 28 29  1  6
 28 30  1  0
 30 31  1  6
 31 32  1  0
 32 33  1  1
 32 34  1  0
 34 35  1  6
 34 13  1  0
 34 16  1  0
 30 17  1  0
 28 21  1  0
M  END
>  <MS_ID>  (3751) 
MS4239

>  <SMILES>  (3751) 
C[C@H](CCC(=O)NCCC(=O)O)[C@H]1CC[C@H]2[C@@H]3[C@H](O)C[C@@H]4C[C@H](O)C[C@@H](O)[C@]4(C)[C@H]3C[C@H](O)[C@]12C

>  <Structure_dimension>  (3751) 
2D

$$$$
MS4241
     RDKit          2D

 28 31  0  0  0  0  0  0  0  0999 V2000
   -5.1427   -2.0937    0.0000 C   0  0  0  0  0  0  0  0  0  0  0  0
   -3.9329   -1.2068    0.0000 C   0  0  0  0  0  0  0  0  0  0  0  0
   -4.0961    0.2842    0.0000 C   0  0  0  0  0  0  0  0  0  0  0  0
   -5.4691    0.8885    0.0000 C   0  0  0  0  0  0  0  0  0  0  0  0
   -5.6323    2.3796    0.0000 C   0  0  0  0  0  0  0  0  0  0  0  0
   -4.4225    3.2664    0.0000 O   0  0  0  0  0  0  0  0  0  0  0  0
   -7.0052    2.9838    0.0000 O   0  0  0  0  0  0  0  0  0  0  0  0
   -2.5600   -1.8111    0.0000 C   0  0  0  0  0  0  0  0  0  0  0  0
   -2.2418   -3.2769    0.0000 C   0  0  0  0  0  0  0  0  0  0  0  0
   -0.7494   -3.4273    0.0000 C   0  0  0  0  0  0  0  0  0  0  0  0
   -0.1452   -2.0544    0.0000 C   0  0  0  0  0  0  0  0  0  0  0  0
    1.2794   -1.5847    0.0000 C   0  0  0  0  0  0  0  0  0  0  0  0
    2.3984   -2.5836    0.0000 C   0  0  0  0  0  0  0  0  0  0  0  0
    3.8230   -2.1140    0.0000 C   0  0  0  0  0  0  0  0  0  0  0  0
    4.1286   -0.6454    0.0000 C   0  0  0  0  0  0  0  0  0  0  0  0
    5.5531   -0.1758    0.0000 C   0  0  0  0  0  0  0  0  0  0  0  0
    5.8587    1.2928    0.0000 C   0  0  0  0  0  0  0  0  0  0  0  0
    7.2833    1.7624    0.0000 O   0  0  0  0  0  0  0  0  0  0  0  0
    4.7397    2.2917    0.0000 C   0  0  0  0  0  0  0  0  0  0  0  0
    3.3151    1.8220    0.0000 C   0  0  0  0  0  0  0  0  0  0  0  0
    3.0095    0.3535    0.0000 C   0  0  0  0  0  0  0  0  0  0  0  0
    1.8905    1.3524    0.0000 C   0  0  0  0  0  0  0  0  0  0  0  0
    1.5850   -0.1162    0.0000 C   0  0  0  0  0  0  0  0  0  0  0  0
    0.4659    0.8827    0.0000 C   0  0  0  0  0  0  0  0  0  0  0  0
    0.7715    2.3513    0.0000 O   0  0  0  0  0  0  0  0  0  0  0  0
   -0.9586    0.4131    0.0000 C   0  0  0  0  0  0  0  0  0  0  0  0
   -1.2642   -1.0555    0.0000 C   0  0  0  0  0  0  0  0  0  0  0  0
   -2.4815   -0.1790    0.0000 C   0  0  0  0  0  0  0  0  0  0  0  0
  2  1  1  6
  2  3  1  0
  3  4  1  0
  4  5  1  0
  5  6  2  0
  5  7  1  0
  2  8  1  0
  8  9  1  6
  9 10  1  0
 11 10  1  6
 11 12  1  0
 12 13  1  1
 13 14  1  0
 15 14  1  1
 15 16  1  0
 16 17  1  0
 17 18  2  0
 17 19  1  0
 19 20  1  0
 20 21  1  0
 21 22  1  6
 21 23  1  0
 23 24  1  6
 24 25  2  0
 24 26  1  0
 26 27  1  0
 27 28  1  6
 27  8  1  0
 27 11  1  0
 23 12  1  0
 21 15  1  0
M  END
>  <MS_ID>  (3752) 
MS4241

>  <SMILES>  (3752) 
C[C@H](CCC(=O)O)[C@H]1CC[C@H]2[C@@H]3CC[C@@H]4CC(=O)CC[C@]4(C)[C@H]3C(=O)C[C@]12C

>  <Structure_dimension>  (3752) 
2D

$$$$
MS4243
     RDKit          2D

 40 44  0  0  0  0  0  0  0  0999 V2000
   -0.3822   -4.9675    0.0000 C   0  0  0  0  0  0  0  0  0  0  0  0
    0.1406   -3.5616    0.0000 C   0  0  0  0  0  0  0  0  0  0  0  0
   -0.8156   -2.4059    0.0000 C   0  0  0  0  0  0  0  0  0  0  0  0
   -2.2946   -2.6561    0.0000 C   0  0  0  0  0  0  0  0  0  0  0  0
   -3.2508   -1.5004    0.0000 C   0  0  0  0  0  0  0  0  0  0  0  0
   -2.7280   -0.0944    0.0000 O   0  0  0  0  0  0  0  0  0  0  0  0
   -4.7298   -1.7506    0.0000 O   0  0  0  0  0  0  0  0  0  0  0  0
   -5.6860   -0.5949    0.0000 C   0  0  0  0  0  0  0  0  0  0  0  0
   -5.1632    0.8111    0.0000 O   0  0  0  0  0  0  0  0  0  0  0  0
   -6.1194    1.9668    0.0000 C   0  0  0  0  0  0  0  0  0  0  0  0
   -5.5966    3.3727    0.0000 C   0  0  0  0  0  0  0  0  0  0  0  0
   -6.5528    4.5285    0.0000 O   0  0  0  0  0  0  0  0  0  0  0  0
   -4.1176    3.6230    0.0000 O   0  0  0  0  0  0  0  0  0  0  0  0
   -7.5983    1.7166    0.0000 C   0  0  0  0  0  0  0  0  0  0  0  0
   -8.5545    2.8723    0.0000 O   0  0  0  0  0  0  0  0  0  0  0  0
   -8.1211    0.3106    0.0000 C   0  0  0  0  0  0  0  0  0  0  0  0
   -9.6001    0.0604    0.0000 O   0  0  0  0  0  0  0  0  0  0  0  0
   -7.1649   -0.8451    0.0000 C   0  0  0  0  0  0  0  0  0  0  0  0
   -7.6877   -2.2511    0.0000 O   0  0  0  0  0  0  0  0  0  0  0  0
    1.6196   -3.3114    0.0000 C   0  0  0  0  0  0  0  0  0  0  0  0
    2.6913   -4.3608    0.0000 C   0  0  0  0  0  0  0  0  0  0  0  0
    4.0206   -3.6658    0.0000 C   0  0  0  0  0  0  0  0  0  0  0  0
    3.7704   -2.1868    0.0000 C   0  0  0  0  0  0  0  0  0  0  0  0
    4.7020   -1.0112    0.0000 C   0  0  0  0  0  0  0  0  0  0  0  0
    6.1860   -1.2303    0.0000 C   0  0  0  0  0  0  0  0  0  0  0  0
    6.7382   -2.6249    0.0000 O   0  0  0  0  0  0  0  0  0  0  0  0
    7.1176   -0.0547    0.0000 C   0  0  0  0  0  0  0  0  0  0  0  0
    6.5654    1.3400    0.0000 C   0  0  0  0  0  0  0  0  0  0  0  0
    7.4970    2.5156    0.0000 C   0  0  0  0  0  0  0  0  0  0  0  0
    6.9448    3.9102    0.0000 C   0  0  0  0  0  0  0  0  0  0  0  0
    7.8764    5.0858    0.0000 O   0  0  0  0  0  0  0  0  0  0  0  0
    5.4608    4.1292    0.0000 C   0  0  0  0  0  0  0  0  0  0  0  0
    4.5292    2.9537    0.0000 C   0  0  0  0  0  0  0  0  0  0  0  0
    5.0814    1.5590    0.0000 C   0  0  0  0  0  0  0  0  0  0  0  0
    3.5975    1.7781    0.0000 C   0  0  0  0  0  0  0  0  0  0  0  0
    4.1498    0.3834    0.0000 C   0  0  0  0  0  0  0  0  0  0  0  0
    2.6659    0.6025    0.0000 C   0  0  0  0  0  0  0  0  0  0  0  0
    1.7342   -0.5731    0.0000 C   0  0  0  0  0  0  0  0  0  0  0  0
    2.2865   -1.9678    0.0000 C   0  0  0  0  0  0  0  0  0  0  0  0
    0.7878   -1.9050    0.0000 C   0  0  0  0  0  0  0  0  0  0  0  0
  2  1  1  6
  2  3  1  0
  3  4  1  0
  4  5  1  0
  5  6  2  0
  5  7  1  0
  8  7  1  6
  8  9  1  0
  9 10  1  0
 10 11  1  1
 11 12  2  0
 11 13  1  0
 10 14  1  0
 14 15  1  1
 14 16  1  0
 16 17  1  6
 16 18  1  0
 18 19  1  6
  2 20  1  0
 20 21  1  6
 21 22  1  0
 23 22  1  6
 23 24  1  0
 24 25  1  1
 25 26  1  6
 25 27  1  0
 28 27  1  1
 28 29  1  0
 29 30  1  0
 30 31  1  1
 30 32  1  0
 32 33  1  0
 33 34  1  0
 34 35  1  6
 34 36  1  0
 36 37  1  6
 37 38  1  0
 38 39  1  0
 39 40  1  6
 18  8  1  0
 39 20  1  0
 39 23  1  0
 36 24  1  0
 34 28  1  0
M  END
>  <MS_ID>  (3753) 
MS4243

>  <SMILES>  (3753) 
C[C@H](CCC(=O)O[C@H]1O[C@H](C(=O)O)[C@H](O)[C@@H](O)[C@H]1O)[C@H]1CC[C@H]2[C@@H]3[C@@H](O)C[C@@H]4C[C@H](O)CC[C@]4(C)[C@H]3CC[C@]12C

>  <Structure_dimension>  (3753) 
2D

$$$$
MS4245
     RDKit          2D

 29 32  0  0  0  0  0  0  0  0999 V2000
   -5.0303   -2.1373    0.0000 C   0  0  0  0  0  0  0  0  0  0  0  0
   -3.8594   -1.1998    0.0000 C   0  0  0  0  0  0  0  0  0  0  0  0
   -4.0858    0.2830    0.0000 C   0  0  0  0  0  0  0  0  0  0  0  0
   -5.4831    0.8284    0.0000 C   0  0  0  0  0  0  0  0  0  0  0  0
   -5.7095    2.3112    0.0000 C   0  0  0  0  0  0  0  0  0  0  0  0
   -4.5386    3.2487    0.0000 O   0  0  0  0  0  0  0  0  0  0  0  0
   -7.1069    2.8565    0.0000 O   0  0  0  0  0  0  0  0  0  0  0  0
   -2.4620   -1.7451    0.0000 C   0  0  0  0  0  0  0  0  0  0  0  0
   -2.0818   -3.1961    0.0000 C   0  0  0  0  0  0  0  0  0  0  0  0
   -0.5844   -3.2830    0.0000 C   0  0  0  0  0  0  0  0  0  0  0  0
   -0.0390   -1.8856    0.0000 C   0  0  0  0  0  0  0  0  0  0  0  0
    1.3643   -1.3559    0.0000 C   0  0  0  0  0  0  0  0  0  0  0  0
    2.5248   -2.3063    0.0000 C   0  0  0  0  0  0  0  0  0  0  0  0
    2.2819   -3.7865    0.0000 O   0  0  0  0  0  0  0  0  0  0  0  0
    3.9281   -1.7765    0.0000 C   0  0  0  0  0  0  0  0  0  0  0  0
    4.1710   -0.2963    0.0000 C   0  0  0  0  0  0  0  0  0  0  0  0
    5.5743    0.2334    0.0000 C   0  0  0  0  0  0  0  0  0  0  0  0
    5.8172    1.7136    0.0000 C   0  0  0  0  0  0  0  0  0  0  0  0
    7.2205    2.2434    0.0000 O   0  0  0  0  0  0  0  0  0  0  0  0
    4.6568    2.6641    0.0000 C   0  0  0  0  0  0  0  0  0  0  0  0
    3.2534    2.1343    0.0000 C   0  0  0  0  0  0  0  0  0  0  0  0
    3.0105    0.6541    0.0000 C   0  0  0  0  0  0  0  0  0  0  0  0
    1.8501    1.6046    0.0000 C   0  0  0  0  0  0  0  0  0  0  0  0
    1.6072    0.1244    0.0000 C   0  0  0  0  0  0  0  0  0  0  0  0
    0.4467    1.0748    0.0000 C   0  0  0  0  0  0  0  0  0  0  0  0
   -0.9566    0.5450    0.0000 C   0  0  0  0  0  0  0  0  0  0  0  0
   -2.1170    1.4955    0.0000 O   0  0  0  0  0  0  0  0  0  0  0  0
   -1.1995   -0.9352    0.0000 C   0  0  0  0  0  0  0  0  0  0  0  0
   -2.4529   -0.1112    0.0000 C   0  0  0  0  0  0  0  0  0  0  0  0
  2  1  1  6
  2  3  1  0
  3  4  1  0
  4  5  1  0
  5  6  2  0
  5  7  1  0
  2  8  1  0
  8  9  1  6
  9 10  1  0
 11 10  1  6
 11 12  1  0
 12 13  1  1
 13 14  1  6
 13 15  1  0
 16 15  1  6
 16 17  1  0
 17 18  1  0
 18 19  1  6
 18 20  1  0
 20 21  1  0
 21 22  1  0
 22 23  1  6
 22 24  1  0
 24 25  1  6
 25 26  1  0
 26 27  1  6
 26 28  1  0
 28 29  1  6
 28  8  1  0
 28 11  1  0
 24 12  1  0
 22 16  1  0
M  END
>  <MS_ID>  (3754) 
MS4245

>  <SMILES>  (3754) 
C[C@H](CCC(=O)O)[C@H]1CC[C@H]2[C@@H]3[C@@H](O)C[C@H]4C[C@@H](O)CC[C@]4(C)[C@H]3C[C@@H](O)[C@]12C

>  <Structure_dimension>  (3754) 
2D

$$$$
MS4246
     RDKit          2D

 42 47  0  0  0  0  0  0  0  0999 V2000
    0.3732   -4.8903    0.0000 C   0  0  0  0  0  0  0  0  0  0  0  0
    0.9216   -3.4942    0.0000 C   0  0  0  0  0  0  0  0  0  0  0  0
   -0.0132   -2.3211    0.0000 C   0  0  0  0  0  0  0  0  0  0  0  0
   -1.4965   -2.5442    0.0000 C   0  0  0  0  0  0  0  0  0  0  0  0
   -2.4314   -1.3711    0.0000 C   0  0  0  0  0  0  0  0  0  0  0  0
   -1.8829    0.0250    0.0000 O   0  0  0  0  0  0  0  0  0  0  0  0
   -3.9147   -1.5942    0.0000 N   0  0  0  0  0  0  0  0  0  0  0  0
   -4.8495   -0.4211    0.0000 C   0  0  0  0  0  0  0  0  0  0  0  0
   -6.3328   -0.6442    0.0000 C   0  0  0  0  0  0  0  0  0  0  0  0
   -7.2677    0.5289    0.0000 C   0  0  0  0  0  0  0  0  0  0  0  0
   -6.8681    1.9747    0.0000 C   0  0  0  0  0  0  0  0  0  0  0  0
   -8.1197    2.8015    0.0000 N   0  0  0  0  0  0  0  0  0  0  0  0
   -9.2928    1.8666    0.0000 C   0  0  0  0  0  0  0  0  0  0  0  0
  -10.7724    2.1129    0.0000 C   0  0  0  0  0  0  0  0  0  0  0  0
  -11.7255    0.9546    0.0000 C   0  0  0  0  0  0  0  0  0  0  0  0
  -11.1989   -0.4500    0.0000 C   0  0  0  0  0  0  0  0  0  0  0  0
   -9.7193   -0.6962    0.0000 C   0  0  0  0  0  0  0  0  0  0  0  0
   -8.7662    0.4621    0.0000 C   0  0  0  0  0  0  0  0  0  0  0  0
   -4.3010    0.9750    0.0000 C   0  0  0  0  0  0  0  0  0  0  0  0
   -2.8177    1.1981    0.0000 O   0  0  0  0  0  0  0  0  0  0  0  0
   -5.2359    2.1481    0.0000 O   0  0  0  0  0  0  0  0  0  0  0  0
    2.4050   -3.2711    0.0000 C   0  0  0  0  0  0  0  0  0  0  0  0
    3.4573   -4.3400    0.0000 C   0  0  0  0  0  0  0  0  0  0  0  0
    4.7991   -3.6695    0.0000 C   0  0  0  0  0  0  0  0  0  0  0  0
    4.5760   -2.1862    0.0000 C   0  0  0  0  0  0  0  0  0  0  0  0
    5.5291   -1.0279    0.0000 C   0  0  0  0  0  0  0  0  0  0  0  0
    7.0087   -1.2741    0.0000 C   0  0  0  0  0  0  0  0  0  0  0  0
    7.9618   -0.1158    0.0000 C   0  0  0  0  0  0  0  0  0  0  0  0
    9.4415   -0.3620    0.0000 O   0  0  0  0  0  0  0  0  0  0  0  0
    7.4352    1.2887    0.0000 C   0  0  0  0  0  0  0  0  0  0  0  0
    8.3883    2.4471    0.0000 C   0  0  0  0  0  0  0  0  0  0  0  0
    7.8617    3.8516    0.0000 C   0  0  0  0  0  0  0  0  0  0  0  0
    8.8148    5.0099    0.0000 O   0  0  0  0  0  0  0  0  0  0  0  0
    6.3820    4.0978    0.0000 C   0  0  0  0  0  0  0  0  0  0  0  0
    5.4290    2.9395    0.0000 C   0  0  0  0  0  0  0  0  0  0  0  0
    5.9556    1.5350    0.0000 C   0  0  0  0  0  0  0  0  0  0  0  0
    4.4759    1.7812    0.0000 C   0  0  0  0  0  0  0  0  0  0  0  0
    5.0025    0.3767    0.0000 C   0  0  0  0  0  0  0  0  0  0  0  0
    3.5228    0.6229    0.0000 C   0  0  0  0  0  0  0  0  0  0  0  0
    2.5698   -0.5354    0.0000 C   0  0  0  0  0  0  0  0  0  0  0  0
    3.0964   -1.9399    0.0000 C   0  0  0  0  0  0  0  0  0  0  0  0
    1.5991   -1.8497    0.0000 C   0  0  0  0  0  0  0  0  0  0  0  0
  2  1  1  6
  2  3  1  0
  3  4  1  0
  4  5  1  0
  5  6  2  0
  5  7  1  0
  7  8  1  0
  8  9  1  1
  9 10  1  0
 10 11  2  0
 11 12  1  0
 12 13  1  0
 13 14  2  0
 14 15  1  0
 15 16  2  0
 16 17  1  0
 17 18  2  0
  8 19  1  0
 19 20  2  0
 19 21  1  0
  2 22  1  0
 22 23  1  6
 23 24  1  0
 25 24  1  6
 25 26  1  0
 26 27  1  1
 27 28  1  0
 28 29  1  1
 28 30  1  0
 30 31  1  1
 31 32  1  0
 32 33  1  1
 32 34  1  0
 34 35  1  0
 35 36  1  0
 36 37  1  6
 36 38  1  0
 38 39  1  6
 39 40  1  0
 40 41  1  0
 41 42  1  6
 18 10  1  0
 41 22  1  0
 18 13  1  0
 41 25  1  0
 38 26  1  0
 36 30  1  0
M  END
>  <MS_ID>  (3755) 
MS4246

>  <SMILES>  (3755) 
C[C@H](CCC(=O)N[C@@H](Cc1c[nH]c2ccccc12)C(=O)O)[C@H]1CC[C@H]2[C@@H]3C[C@H](O)[C@@H]4C[C@H](O)CC[C@]4(C)[C@H]3CC[C@]12C

>  <Structure_dimension>  (3755) 
2D

$$$$
MS4247
     RDKit          2D

 39 42  0  0  0  0  0  0  0  0999 V2000
   -0.1420   -4.5958    0.0000 C   0  0  0  0  0  0  0  0  0  0  0  0
    0.4341   -3.2109    0.0000 C   0  0  0  0  0  0  0  0  0  0  0  0
   -0.4772   -2.0195    0.0000 C   0  0  0  0  0  0  0  0  0  0  0  0
   -1.9646   -2.2130    0.0000 C   0  0  0  0  0  0  0  0  0  0  0  0
   -2.8759   -1.0215    0.0000 C   0  0  0  0  0  0  0  0  0  0  0  0
   -2.2998    0.3634    0.0000 O   0  0  0  0  0  0  0  0  0  0  0  0
   -4.3634   -1.2150    0.0000 N   0  0  0  0  0  0  0  0  0  0  0  0
   -5.2747   -0.0236    0.0000 C   0  0  0  0  0  0  0  0  0  0  0  0
   -6.7622   -0.2171    0.0000 C   0  0  0  0  0  0  0  0  0  0  0  0
   -7.3383   -1.6020    0.0000 O   0  0  0  0  0  0  0  0  0  0  0  0
   -7.6735    0.9744    0.0000 N   0  0  0  0  0  0  0  0  0  0  0  0
   -9.1610    0.7809    0.0000 C   0  0  0  0  0  0  0  0  0  0  0  0
  -10.0723    1.9723    0.0000 C   0  0  0  0  0  0  0  0  0  0  0  0
  -11.5597    1.7788    0.0000 S   0  0  0  0  0  0  0  0  0  0  0  0
  -11.7532    3.2663    0.0000 O   0  0  0  0  0  0  0  0  0  0  0  0
  -11.3662    0.2913    0.0000 O   0  0  0  0  0  0  0  0  0  0  0  0
  -13.0472    1.5853    0.0000 O   0  0  0  0  0  0  0  0  0  0  0  0
    1.9216   -3.0174    0.0000 C   0  0  0  0  0  0  0  0  0  0  0  0
    2.9525   -4.1071    0.0000 C   0  0  0  0  0  0  0  0  0  0  0  0
    4.3073   -3.4634    0.0000 C   0  0  0  0  0  0  0  0  0  0  0  0
    4.1138   -1.9759    0.0000 C   0  0  0  0  0  0  0  0  0  0  0  0
    5.0898   -0.8368    0.0000 C   0  0  0  0  0  0  0  0  0  0  0  0
    6.5642   -1.1124    0.0000 C   0  0  0  0  0  0  0  0  0  0  0  0
    7.0628   -2.5272    0.0000 O   0  0  0  0  0  0  0  0  0  0  0  0
    7.5402    0.0267    0.0000 C   0  0  0  0  0  0  0  0  0  0  0  0
    7.0416    1.4414    0.0000 C   0  0  0  0  0  0  0  0  0  0  0  0
    8.0176    2.5805    0.0000 C   0  0  0  0  0  0  0  0  0  0  0  0
    7.5190    3.9952    0.0000 C   0  0  0  0  0  0  0  0  0  0  0  0
    8.4950    5.1344    0.0000 O   0  0  0  0  0  0  0  0  0  0  0  0
    6.0446    4.2709    0.0000 C   0  0  0  0  0  0  0  0  0  0  0  0
    5.0686    3.1318    0.0000 C   0  0  0  0  0  0  0  0  0  0  0  0
    5.5672    1.7170    0.0000 C   0  0  0  0  0  0  0  0  0  0  0  0
    4.0927    1.9927    0.0000 C   0  0  0  0  0  0  0  0  0  0  0  0
    4.5912    0.5779    0.0000 C   0  0  0  0  0  0  0  0  0  0  0  0
    3.1168    0.8536    0.0000 C   0  0  0  0  0  0  0  0  0  0  0  0
    2.1408   -0.2856    0.0000 C   0  0  0  0  0  0  0  0  0  0  0  0
    0.6664   -0.0099    0.0000 O   0  0  0  0  0  0  0  0  0  0  0  0
    2.6394   -1.7003    0.0000 C   0  0  0  0  0  0  0  0  0  0  0  0
    1.1442   -1.5803    0.0000 C   0  0  0  0  0  0  0  0  0  0  0  0
  2  1  1  6
  2  3  1  0
  3  4  1  0
  4  5  1  0
  5  6  2  0
  5  7  1  0
  7  8  1  0
  8  9  1  0
  9 10  2  0
  9 11  1  0
 11 12  1  0
 12 13  1  0
 13 14  1  0
 14 15  2  0
 14 16  2  0
 14 17  1  0
  2 18  1  0
 18 19  1  6
 19 20  1  0
 21 20  1  6
 21 22  1  0
 22 23  1  1
 23 24  1  1
 23 25  1  0
 26 25  1  6
 26 27  1  0
 27 28  1  0
 28 29  1  1
 28 30  1  0
 30 31  1  0
 31 32  1  0
 32 33  1  6
 32 34  1  0
 34 35  1  6
 35 36  1  0
 36 37  1  1
 36 38  1  0
 38 39  1  6
 38 18  1  0
 38 21  1  0
 34 22  1  0
 32 26  1  0
M  END
>  <MS_ID>  (3756) 
MS4247

>  <SMILES>  (3756) 
C[C@H](CCC(=O)NCC(=O)NCCS(=O)(=O)O)[C@H]1CC[C@H]2[C@@H]3[C@H](O)C[C@H]4C[C@H](O)CC[C@]4(C)[C@H]3C[C@H](O)[C@]12C

>  <Structure_dimension>  (3756) 
2D

$$$$
MS4248
     RDKit          2D

 28 31  0  0  0  0  0  0  0  0999 V2000
   -5.0096   -2.1352    0.0000 C   0  0  0  0  0  0  0  0  0  0  0  0
   -3.8132   -1.2303    0.0000 C   0  0  0  0  0  0  0  0  0  0  0  0
   -3.9987    0.2582    0.0000 C   0  0  0  0  0  0  0  0  0  0  0  0
   -5.3805    0.8418    0.0000 C   0  0  0  0  0  0  0  0  0  0  0  0
   -5.5659    2.3303    0.0000 C   0  0  0  0  0  0  0  0  0  0  0  0
   -4.3695    3.2351    0.0000 O   0  0  0  0  0  0  0  0  0  0  0  0
   -6.9477    2.9140    0.0000 O   0  0  0  0  0  0  0  0  0  0  0  0
   -2.4315   -1.8140    0.0000 C   0  0  0  0  0  0  0  0  0  0  0  0
   -2.0914   -3.2749    0.0000 C   0  0  0  0  0  0  0  0  0  0  0  0
   -0.5969   -3.4030    0.0000 C   0  0  0  0  0  0  0  0  0  0  0  0
   -0.0133   -2.0212    0.0000 C   0  0  0  0  0  0  0  0  0  0  0  0
    1.4041   -1.5304    0.0000 C   0  0  0  0  0  0  0  0  0  0  0  0
    2.5379   -2.5125    0.0000 C   0  0  0  0  0  0  0  0  0  0  0  0
    3.9554   -2.0216    0.0000 C   0  0  0  0  0  0  0  0  0  0  0  0
    4.2390   -0.5487    0.0000 C   0  0  0  0  0  0  0  0  0  0  0  0
    5.6564   -0.0578    0.0000 C   0  0  0  0  0  0  0  0  0  0  0  0
    5.9400    1.4151    0.0000 C   0  0  0  0  0  0  0  0  0  0  0  0
    7.3574    1.9060    0.0000 O   0  0  0  0  0  0  0  0  0  0  0  0
    4.8062    2.3972    0.0000 C   0  0  0  0  0  0  0  0  0  0  0  0
    3.3888    1.9064    0.0000 C   0  0  0  0  0  0  0  0  0  0  0  0
    3.1052    0.4334    0.0000 C   0  0  0  0  0  0  0  0  0  0  0  0
    1.9714    1.4155    0.0000 C   0  0  0  0  0  0  0  0  0  0  0  0
    1.6878   -0.0574    0.0000 C   0  0  0  0  0  0  0  0  0  0  0  0
    0.5540    0.9246    0.0000 C   0  0  0  0  0  0  0  0  0  0  0  0
   -0.8635    0.4338    0.0000 C   0  0  0  0  0  0  0  0  0  0  0  0
   -1.9973    1.4159    0.0000 O   0  0  0  0  0  0  0  0  0  0  0  0
   -1.1471   -1.0392    0.0000 C   0  0  0  0  0  0  0  0  0  0  0  0
   -2.3773   -0.1810    0.0000 C   0  0  0  0  0  0  0  0  0  0  0  0
  2  1  1  1
  2  3  1  0
  3  4  1  0
  4  5  1  0
  5  6  2  0
  5  7  1  0
  2  8  1  0
  8  9  1  6
  9 10  1  0
 11 10  1  6
 11 12  1  0
 12 13  1  1
 13 14  1  0
 15 14  1  6
 15 16  1  0
 16 17  1  0
 17 18  1  6
 17 19  1  0
 19 20  1  0
 20 21  1  0
 21 22  1  6
 21 23  1  0
 23 24  1  6
 24 25  1  0
 25 26  1  1
 25 27  1  0
 27 28  1  6
 27  8  1  0
 27 11  1  0
 23 12  1  0
 21 15  1  0
M  END
>  <MS_ID>  (3757) 
MS4248

>  <SMILES>  (3757) 
C[C@@H](CCC(=O)O)[C@H]1CC[C@H]2[C@@H]3CC[C@H]4C[C@@H](O)CC[C@]4(C)[C@H]3C[C@H](O)[C@]12C

>  <Structure_dimension>  (3757) 
2D

$$$$
MS4249
     RDKit          2D

 28 31  0  0  0  0  0  0  0  0999 V2000
   -5.1275   -2.0302    0.0000 C   0  0  0  0  0  0  0  0  0  0  0  0
   -3.9468   -1.1050    0.0000 C   0  0  0  0  0  0  0  0  0  0  0  0
   -4.1576    0.3801    0.0000 C   0  0  0  0  0  0  0  0  0  0  0  0
   -5.5492    0.9401    0.0000 C   0  0  0  0  0  0  0  0  0  0  0  0
   -5.7600    2.4252    0.0000 C   0  0  0  0  0  0  0  0  0  0  0  0
   -4.5793    3.3503    0.0000 O   0  0  0  0  0  0  0  0  0  0  0  0
   -7.1516    2.9851    0.0000 O   0  0  0  0  0  0  0  0  0  0  0  0
   -2.5552   -1.6650    0.0000 C   0  0  0  0  0  0  0  0  0  0  0  0
   -2.1903   -3.1199    0.0000 C   0  0  0  0  0  0  0  0  0  0  0  0
   -0.6938   -3.2225    0.0000 C   0  0  0  0  0  0  0  0  0  0  0  0
   -0.1339   -1.8309    0.0000 C   0  0  0  0  0  0  0  0  0  0  0  0
    1.2750   -1.3159    0.0000 C   0  0  0  0  0  0  0  0  0  0  0  0
    2.4254   -2.2785    0.0000 C   0  0  0  0  0  0  0  0  0  0  0  0
    2.1670   -3.7560    0.0000 O   0  0  0  0  0  0  0  0  0  0  0  0
    3.8342   -1.7635    0.0000 C   0  0  0  0  0  0  0  0  0  0  0  0
    4.0926   -0.2859    0.0000 C   0  0  0  0  0  0  0  0  0  0  0  0
    5.5014    0.2291    0.0000 C   0  0  0  0  0  0  0  0  0  0  0  0
    5.7598    1.7067    0.0000 C   0  0  0  0  0  0  0  0  0  0  0  0
    7.1687    2.2217    0.0000 O   0  0  0  0  0  0  0  0  0  0  0  0
    4.6094    2.6692    0.0000 C   0  0  0  0  0  0  0  0  0  0  0  0
    3.2006    2.1542    0.0000 C   0  0  0  0  0  0  0  0  0  0  0  0
    2.9422    0.6767    0.0000 C   0  0  0  0  0  0  0  0  0  0  0  0
    1.7918    1.6392    0.0000 C   0  0  0  0  0  0  0  0  0  0  0  0
    1.5334    0.1617    0.0000 C   0  0  0  0  0  0  0  0  0  0  0  0
    0.3830    1.1242    0.0000 C   0  0  0  0  0  0  0  0  0  0  0  0
   -1.0259    0.6093    0.0000 C   0  0  0  0  0  0  0  0  0  0  0  0
   -1.2843   -0.8683    0.0000 C   0  0  0  0  0  0  0  0  0  0  0  0
   -2.5290   -0.0313    0.0000 C   0  0  0  0  0  0  0  0  0  0  0  0
  2  1  1  1
  2  3  1  0
  3  4  1  0
  4  5  1  0
  5  6  2  0
  5  7  1  0
  2  8  1  0
  8  9  1  6
  9 10  1  0
 11 10  1  6
 11 12  1  0
 12 13  1  1
 13 14  1  6
 13 15  1  0
 16 15  1  1
 16 17  1  0
 17 18  1  0
 18 19  1  1
 18 20  1  0
 20 21  1  0
 21 22  1  0
 22 23  1  6
 22 24  1  0
 24 25  1  6
 25 26  1  0
 26 27  1  0
 27 28  1  6
 27  8  1  0
 27 11  1  0
 24 12  1  0
 22 16  1  0
M  END
>  <MS_ID>  (3758) 
MS4249

>  <SMILES>  (3758) 
C[C@@H](CCC(=O)O)[C@H]1CC[C@H]2[C@@H]3[C@@H](O)C[C@@H]4C[C@H](O)CC[C@]4(C)[C@H]3CC[C@]12C

>  <Structure_dimension>  (3758) 
2D

$$$$
MS4252
     RDKit          2D

 34 37  0  0  0  0  0  0  0  0999 V2000
   -1.6851   -4.3936    0.0000 C   0  0  0  0  0  0  0  0  0  0  0  0
   -1.0219   -3.0482    0.0000 C   0  0  0  0  0  0  0  0  0  0  0  0
   -1.8555   -1.8011    0.0000 C   0  0  0  0  0  0  0  0  0  0  0  0
   -3.3523   -1.8996    0.0000 C   0  0  0  0  0  0  0  0  0  0  0  0
   -4.1859   -0.6525    0.0000 C   0  0  0  0  0  0  0  0  0  0  0  0
   -3.5228    0.6929    0.0000 O   0  0  0  0  0  0  0  0  0  0  0  0
   -5.6827   -0.7510    0.0000 N   0  0  0  0  0  0  0  0  0  0  0  0
   -6.5163    0.4961    0.0000 C   0  0  0  0  0  0  0  0  0  0  0  0
   -8.0131    0.3977    0.0000 C   0  0  0  0  0  0  0  0  0  0  0  0
   -8.8467    1.6447    0.0000 C   0  0  0  0  0  0  0  0  0  0  0  0
  -10.3435    1.5463    0.0000 C   0  0  0  0  0  0  0  0  0  0  0  0
  -11.1771    2.7933    0.0000 C   0  0  0  0  0  0  0  0  0  0  0  0
  -12.6738    2.6949    0.0000 N   0  0  0  0  0  0  0  0  0  0  0  0
    0.4748   -2.9498    0.0000 C   0  0  0  0  0  0  0  0  0  0  0  0
    1.4342   -4.1028    0.0000 C   0  0  0  0  0  0  0  0  0  0  0  0
    2.8273   -3.5467    0.0000 C   0  0  0  0  0  0  0  0  0  0  0  0
    2.7289   -2.0499    0.0000 C   0  0  0  0  0  0  0  0  0  0  0  0
    3.7754   -0.9753    0.0000 C   0  0  0  0  0  0  0  0  0  0  0  0
    5.2293   -1.3442    0.0000 C   0  0  0  0  0  0  0  0  0  0  0  0
    5.6368   -2.7878    0.0000 O   0  0  0  0  0  0  0  0  0  0  0  0
    6.2758   -0.2695    0.0000 C   0  0  0  0  0  0  0  0  0  0  0  0
    5.8683    1.1741    0.0000 C   0  0  0  0  0  0  0  0  0  0  0  0
    6.9148    2.2488    0.0000 C   0  0  0  0  0  0  0  0  0  0  0  0
    6.5073    3.6924    0.0000 C   0  0  0  0  0  0  0  0  0  0  0  0
    7.5538    4.7670    0.0000 O   0  0  0  0  0  0  0  0  0  0  0  0
    5.0534    4.0613    0.0000 C   0  0  0  0  0  0  0  0  0  0  0  0
    4.0069    2.9866    0.0000 C   0  0  0  0  0  0  0  0  0  0  0  0
    4.4144    1.5430    0.0000 C   0  0  0  0  0  0  0  0  0  0  0  0
    2.9605    1.9119    0.0000 C   0  0  0  0  0  0  0  0  0  0  0  0
    3.3679    0.4683    0.0000 C   0  0  0  0  0  0  0  0  0  0  0  0
    1.9140    0.8373    0.0000 C   0  0  0  0  0  0  0  0  0  0  0  0
    0.8675   -0.2374    0.0000 C   0  0  0  0  0  0  0  0  0  0  0  0
    1.2750   -1.6810    0.0000 C   0  0  0  0  0  0  0  0  0  0  0  0
   -0.2095   -1.4661    0.0000 C   0  0  0  0  0  0  0  0  0  0  0  0
  2  1  1  6
  2  3  1  0
  3  4  1  0
  4  5  1  0
  5  6  2  0
  5  7  1  0
  7  8  1  0
  8  9  1  0
  9 10  1  0
 10 11  1  0
 11 12  1  0
 12 13  1  0
  2 14  1  0
 14 15  1  6
 15 16  1  0
 17 16  1  6
 17 18  1  0
 18 19  1  1
 19 20  1  1
 19 21  1  0
 22 21  1  1
 22 23  1  0
 23 24  1  0
 24 25  1  1
 24 26  1  0
 26 27  1  0
 27 28  1  0
 28 29  1  6
 28 30  1  0
 30 31  1  6
 31 32  1  0
 32 33  1  0
 33 34  1  6
 33 14  1  0
 33 17  1  0
 30 18  1  0
 28 22  1  0
M  END
>  <MS_ID>  (3759) 
MS4252

>  <SMILES>  (3759) 
C[C@H](CCC(=O)NCCCCCN)[C@H]1CC[C@H]2[C@@H]3[C@H](O)C[C@@H]4C[C@H](O)CC[C@]4(C)[C@H]3CC[C@]12C

>  <Structure_dimension>  (3759) 
2D

$$$$
MS4255
     RDKit          2D

 30 33  0  0  0  0  0  0  0  0999 V2000
   -5.1676   -2.1935    0.0000 C   0  0  0  0  0  0  0  0  0  0  0  0
   -4.0145   -1.2341    0.0000 C   0  0  0  0  0  0  0  0  0  0  0  0
   -4.2689    0.2441    0.0000 C   0  0  0  0  0  0  0  0  0  0  0  0
   -5.6762    0.7630    0.0000 C   0  0  0  0  0  0  0  0  0  0  0  0
   -5.9306    2.2413    0.0000 C   0  0  0  0  0  0  0  0  0  0  0  0
   -4.7775    3.2007    0.0000 O   0  0  0  0  0  0  0  0  0  0  0  0
   -7.3380    2.7602    0.0000 O   0  0  0  0  0  0  0  0  0  0  0  0
   -2.6071   -1.7530    0.0000 C   0  0  0  0  0  0  0  0  0  0  0  0
   -2.1997   -3.1966    0.0000 C   0  0  0  0  0  0  0  0  0  0  0  0
   -0.7008   -3.2552    0.0000 C   0  0  0  0  0  0  0  0  0  0  0  0
   -0.1819   -1.8478    0.0000 C   0  0  0  0  0  0  0  0  0  0  0  0
    1.2112   -1.2917    0.0000 C   0  0  0  0  0  0  0  0  0  0  0  0
    2.3893   -2.2201    0.0000 C   0  0  0  0  0  0  0  0  0  0  0  0
    2.1744   -3.7046    0.0000 O   0  0  0  0  0  0  0  0  0  0  0  0
    3.7824   -1.6640    0.0000 C   0  0  0  0  0  0  0  0  0  0  0  0
    3.9974   -0.1795    0.0000 C   0  0  0  0  0  0  0  0  0  0  0  0
    5.1755   -1.1079    0.0000 O   0  0  0  0  0  0  0  0  0  0  0  0
    5.3905    0.3767    0.0000 C   0  0  0  0  0  0  0  0  0  0  0  0
    5.6054    1.8612    0.0000 C   0  0  0  0  0  0  0  0  0  0  0  0
    6.9985    2.4173    0.0000 O   0  0  0  0  0  0  0  0  0  0  0  0
    4.4272    2.7896    0.0000 C   0  0  0  0  0  0  0  0  0  0  0  0
    3.0341    2.2335    0.0000 C   0  0  0  0  0  0  0  0  0  0  0  0
    2.8192    0.7490    0.0000 C   0  0  0  0  0  0  0  0  0  0  0  0
    1.6410    1.6774    0.0000 C   0  0  0  0  0  0  0  0  0  0  0  0
    1.4261    0.1928    0.0000 C   0  0  0  0  0  0  0  0  0  0  0  0
    0.2479    1.1212    0.0000 C   0  0  0  0  0  0  0  0  0  0  0  0
   -1.1452    0.5651    0.0000 C   0  0  0  0  0  0  0  0  0  0  0  0
   -2.3233    1.4935    0.0000 O   0  0  0  0  0  0  0  0  0  0  0  0
   -1.3601   -0.9194    0.0000 C   0  0  0  0  0  0  0  0  0  0  0  0
   -2.6289   -0.1192    0.0000 C   0  0  0  0  0  0  0  0  0  0  0  0
  2  1  1  6
  2  3  1  0
  3  4  1  0
  4  5  1  0
  5  6  2  0
  5  7  1  0
  2  8  1  0
  8  9  1  6
  9 10  1  0
 11 10  1  6
 11 12  1  0
 12 13  1  1
 13 14  1  1
 13 15  1  0
 15 16  1  0
 16 17  1  6
 16 18  1  0
 18 19  1  0
 19 20  1  1
 19 21  1  0
 21 22  1  0
 22 23  1  0
 23 24  1  6
 23 25  1  0
 25 26  1  6
 26 27  1  0
 27 28  1  1
 27 29  1  0
 29 30  1  6
 29  8  1  0
 29 11  1  0
 25 12  1  0
 23 16  1  0
M  END
>  <MS_ID>  (3760) 
MS4255

>  <SMILES>  (3760) 
C[C@H](CCC(=O)O)[C@H]1CC[C@H]2[C@@H]3[C@H](O)C[C@]4(O)C[C@H](O)CC[C@]4(C)[C@H]3C[C@H](O)[C@]12C

>  <Structure_dimension>  (3760) 
2D

$$$$
MS4260
     RDKit          2D

 29 32  0  0  0  0  0  0  0  0999 V2000
   -5.0926   -2.2535    0.0000 C   0  0  0  0  0  0  0  0  0  0  0  0
   -3.9364   -1.2979    0.0000 C   0  0  0  0  0  0  0  0  0  0  0  0
   -4.1859    0.1812    0.0000 C   0  0  0  0  0  0  0  0  0  0  0  0
   -5.5916    0.7047    0.0000 C   0  0  0  0  0  0  0  0  0  0  0  0
   -5.8411    2.1838    0.0000 C   0  0  0  0  0  0  0  0  0  0  0  0
   -4.6849    3.1394    0.0000 O   0  0  0  0  0  0  0  0  0  0  0  0
   -7.2468    2.7072    0.0000 O   0  0  0  0  0  0  0  0  0  0  0  0
   -2.5307   -1.8214    0.0000 C   0  0  0  0  0  0  0  0  0  0  0  0
   -2.1279   -3.2663    0.0000 C   0  0  0  0  0  0  0  0  0  0  0  0
   -0.6293   -3.3297    0.0000 C   0  0  0  0  0  0  0  0  0  0  0  0
   -0.1058   -1.9240    0.0000 C   0  0  0  0  0  0  0  0  0  0  0  0
    1.2891   -1.3724    0.0000 C   0  0  0  0  0  0  0  0  0  0  0  0
    2.4642   -2.3047    0.0000 C   0  0  0  0  0  0  0  0  0  0  0  0
    3.8591   -1.7531    0.0000 C   0  0  0  0  0  0  0  0  0  0  0  0
    5.0343   -2.6853    0.0000 O   0  0  0  0  0  0  0  0  0  0  0  0
    4.0789   -0.2693    0.0000 C   0  0  0  0  0  0  0  0  0  0  0  0
    5.4738    0.2823    0.0000 C   0  0  0  0  0  0  0  0  0  0  0  0
    5.6936    1.7661    0.0000 C   0  0  0  0  0  0  0  0  0  0  0  0
    7.0885    2.3177    0.0000 O   0  0  0  0  0  0  0  0  0  0  0  0
    4.5184    2.6984    0.0000 C   0  0  0  0  0  0  0  0  0  0  0  0
    3.1235    2.1468    0.0000 C   0  0  0  0  0  0  0  0  0  0  0  0
    2.9038    0.6630    0.0000 C   0  0  0  0  0  0  0  0  0  0  0  0
    1.7286    1.5952    0.0000 C   0  0  0  0  0  0  0  0  0  0  0  0
    1.5089    0.1114    0.0000 C   0  0  0  0  0  0  0  0  0  0  0  0
    0.3337    1.0436    0.0000 C   0  0  0  0  0  0  0  0  0  0  0  0
   -1.0612    0.4920    0.0000 C   0  0  0  0  0  0  0  0  0  0  0  0
   -2.2363    1.4242    0.0000 O   0  0  0  0  0  0  0  0  0  0  0  0
   -1.2809   -0.9918    0.0000 C   0  0  0  0  0  0  0  0  0  0  0  0
   -2.5471   -0.1875    0.0000 C   0  0  0  0  0  0  0  0  0  0  0  0
  2  1  1  6
  2  3  1  0
  3  4  1  0
  4  5  1  0
  5  6  2  0
  5  7  1  0
  2  8  1  0
  8  9  1  6
  9 10  1  0
 11 10  1  6
 11 12  1  0
 12 13  1  1
 13 14  1  0
 14 15  1  6
 14 16  1  0
 16 17  1  1
 17 18  1  0
 18 19  1  6
 18 20  1  0
 20 21  1  0
 21 22  1  0
 22 23  1  6
 22 24  1  0
 24 25  1  6
 25 26  1  0
 26 27  1  1
 26 28  1  0
 28 29  1  6
 28  8  1  0
 28 11  1  0
 24 12  1  0
 22 16  1  0
M  END
>  <MS_ID>  (3761) 
MS4260

>  <SMILES>  (3761) 
C[C@H](CCC(=O)O)[C@H]1CC[C@H]2[C@@H]3C[C@@H](O)[C@@H]4C[C@@H](O)CC[C@]4(C)[C@H]3C[C@H](O)[C@]12C

>  <Structure_dimension>  (3761) 
2D

$$$$
MS4261
     RDKit          2D

 32 35  0  0  0  0  0  0  0  0999 V2000
   -5.9135   -2.3949    0.0000 C   0  0  0  0  0  0  0  0  0  0  0  0
   -4.7298   -1.4737    0.0000 C   0  0  0  0  0  0  0  0  0  0  0  0
   -4.9357    0.0121    0.0000 C   0  0  0  0  0  0  0  0  0  0  0  0
   -6.3253    0.5767    0.0000 C   0  0  0  0  0  0  0  0  0  0  0  0
   -6.5312    2.0625    0.0000 C   0  0  0  0  0  0  0  0  0  0  0  0
   -5.3475    2.9837    0.0000 O   0  0  0  0  0  0  0  0  0  0  0  0
   -7.9209    2.6271    0.0000 C   0  0  0  0  0  0  0  0  0  0  0  0
   -8.1268    4.1129    0.0000 S   0  0  0  0  0  0  0  0  0  0  0  0
   -3.3401   -2.0383    0.0000 C   0  0  0  0  0  0  0  0  0  0  0  0
   -2.9800   -3.4944    0.0000 C   0  0  0  0  0  0  0  0  0  0  0  0
   -1.4838   -3.6019    0.0000 C   0  0  0  0  0  0  0  0  0  0  0  0
   -0.9193   -2.2122    0.0000 C   0  0  0  0  0  0  0  0  0  0  0  0
    0.4913   -1.7019    0.0000 C   0  0  0  0  0  0  0  0  0  0  0  0
    1.6385   -2.6683    0.0000 C   0  0  0  0  0  0  0  0  0  0  0  0
    3.0490   -2.1580    0.0000 C   0  0  0  0  0  0  0  0  0  0  0  0
    3.3123   -0.6813    0.0000 C   0  0  0  0  0  0  0  0  0  0  0  0
    4.7228   -0.1710    0.0000 C   0  0  0  0  0  0  0  0  0  0  0  0
    4.9862    1.3057    0.0000 C   0  0  0  0  0  0  0  0  0  0  0  0
    6.3967    1.8160    0.0000 O   0  0  0  0  0  0  0  0  0  0  0  0
    7.5439    0.8497    0.0000 S   0  0  0  0  0  0  0  0  0  0  0  0
    6.5775   -0.2976    0.0000 O   0  0  0  0  0  0  0  0  0  0  0  0
    8.5103    1.9969    0.0000 O   0  0  0  0  0  0  0  0  0  0  0  0
    8.6911   -0.1167    0.0000 O   0  0  0  0  0  0  0  0  0  0  0  0
    3.8390    2.2721    0.0000 C   0  0  0  0  0  0  0  0  0  0  0  0
    2.4284    1.7618    0.0000 C   0  0  0  0  0  0  0  0  0  0  0  0
    2.1651    0.2851    0.0000 C   0  0  0  0  0  0  0  0  0  0  0  0
    1.0179    1.2515    0.0000 C   0  0  0  0  0  0  0  0  0  0  0  0
    0.7546   -0.2252    0.0000 C   0  0  0  0  0  0  0  0  0  0  0  0
   -0.3926    0.7412    0.0000 C   0  0  0  0  0  0  0  0  0  0  0  0
   -1.8031    0.2309    0.0000 C   0  0  0  0  0  0  0  0  0  0  0  0
   -2.0665   -1.2458    0.0000 C   0  0  0  0  0  0  0  0  0  0  0  0
   -3.3084   -0.4047    0.0000 C   0  0  0  0  0  0  0  0  0  0  0  0
  2  1  1  6
  2  3  1  0
  3  4  1  0
  4  5  1  0
  5  6  2  0
  5  7  1  0
  7  8  1  0
  2  9  1  0
  9 10  1  6
 10 11  1  0
 12 11  1  6
 12 13  1  0
 13 14  1  1
 14 15  1  0
 16 15  1  1
 16 17  1  0
 17 18  1  0
 18 19  1  1
 19 20  1  0
 20 21  2  0
 20 22  2  0
 20 23  1  0
 18 24  1  0
 24 25  1  0
 25 26  1  0
 26 27  1  6
 26 28  1  0
 28 29  1  6
 29 30  1  0
 30 31  1  0
 31 32  1  6
 31  9  1  0
 31 12  1  0
 28 13  1  0
 26 16  1  0
M  END
>  <MS_ID>  (3762) 
MS4261

>  <SMILES>  (3762) 
C[C@H](CCC(=O)CS)[C@H]1CC[C@H]2[C@@H]3CC[C@@H]4C[C@H](OS(=O)(=O)O)CC[C@]4(C)[C@H]3CC[C@]12C

>  <Structure_dimension>  (3762) 
2D

$$$$
MS4262
     RDKit          2D

 29 32  0  0  0  0  0  0  0  0999 V2000
   -7.5935    3.5474    0.0000 C   0  0  0  0  0  0  0  0  0  0  0  0
   -7.2369    2.0904    0.0000 O   0  0  0  0  0  0  0  0  0  0  0  0
   -5.7968    1.6707    0.0000 C   0  0  0  0  0  0  0  0  0  0  0  0
   -4.7133    2.7080    0.0000 O   0  0  0  0  0  0  0  0  0  0  0  0
   -5.4402    0.2137    0.0000 C   0  0  0  0  0  0  0  0  0  0  0  0
   -4.0001   -0.2060    0.0000 C   0  0  0  0  0  0  0  0  0  0  0  0
   -3.6435   -1.6630    0.0000 C   0  0  0  0  0  0  0  0  0  0  0  0
   -4.7270   -2.7003    0.0000 C   0  0  0  0  0  0  0  0  0  0  0  0
   -2.2035   -2.0826    0.0000 C   0  0  0  0  0  0  0  0  0  0  0  0
   -1.6965   -3.4944    0.0000 C   0  0  0  0  0  0  0  0  0  0  0  0
   -0.1972   -3.4485    0.0000 C   0  0  0  0  0  0  0  0  0  0  0  0
    0.2225   -2.0084    0.0000 C   0  0  0  0  0  0  0  0  0  0  0  0
    1.5735   -1.3567    0.0000 C   0  0  0  0  0  0  0  0  0  0  0  0
    2.8134   -2.2008    0.0000 C   0  0  0  0  0  0  0  0  0  0  0  0
    4.1644   -1.5491    0.0000 C   0  0  0  0  0  0  0  0  0  0  0  0
    5.4043   -2.3933    0.0000 O   0  0  0  0  0  0  0  0  0  0  0  0
    4.2755   -0.0532    0.0000 C   0  0  0  0  0  0  0  0  0  0  0  0
    5.6265    0.5985    0.0000 C   0  0  0  0  0  0  0  0  0  0  0  0
    5.7376    2.0944    0.0000 C   0  0  0  0  0  0  0  0  0  0  0  0
    7.0887    2.7461    0.0000 O   0  0  0  0  0  0  0  0  0  0  0  0
    4.4977    2.9385    0.0000 C   0  0  0  0  0  0  0  0  0  0  0  0
    3.1467    2.2868    0.0000 C   0  0  0  0  0  0  0  0  0  0  0  0
    3.0356    0.7909    0.0000 C   0  0  0  0  0  0  0  0  0  0  0  0
    1.7957    1.6351    0.0000 C   0  0  0  0  0  0  0  0  0  0  0  0
    1.6846    0.1392    0.0000 C   0  0  0  0  0  0  0  0  0  0  0  0
    0.4447    0.9834    0.0000 C   0  0  0  0  0  0  0  0  0  0  0  0
   -0.9064    0.3316    0.0000 C   0  0  0  0  0  0  0  0  0  0  0  0
   -1.0175   -1.1643    0.0000 C   0  0  0  0  0  0  0  0  0  0  0  0
   -2.3388   -0.4543    0.0000 C   0  0  0  0  0  0  0  0  0  0  0  0
  1  2  1  0
  2  3  1  0
  3  4  2  0
  3  5  1  0
  5  6  1  0
  6  7  1  0
  7  8  1  6
  7  9  1  0
  9 10  1  6
 10 11  1  0
 12 11  1  6
 12 13  1  0
 13 14  1  1
 14 15  1  0
 15 16  1  6
 15 17  1  0
 17 18  1  6
 18 19  1  0
 19 20  1  6
 19 21  1  0
 21 22  1  0
 22 23  1  0
 23 24  1  6
 23 25  1  0
 25 26  1  6
 26 27  1  0
 27 28  1  0
 28 29  1  6
 28  9  1  0
 28 12  1  0
 25 13  1  0
 23 17  1  0
M  END
>  <MS_ID>  (3763) 
MS4262

>  <SMILES>  (3763) 
COC(=O)CC[C@@H](C)[C@H]1CC[C@H]2[C@@H]3C[C@@H](O)[C@H]4C[C@@H](O)CC[C@]4(C)[C@H]3CC[C@]12C

>  <Structure_dimension>  (3763) 
2D

$$$$
MS4264
     RDKit          2D

 37 40  0  0  0  0  0  0  0  0999 V2000
   -1.2430   -4.5204    0.0000 C   0  0  0  0  0  0  0  0  0  0  0  0
   -0.5890   -3.1705    0.0000 C   0  0  0  0  0  0  0  0  0  0  0  0
   -1.4310   -1.9291    0.0000 C   0  0  0  0  0  0  0  0  0  0  0  0
   -2.9270   -2.0376    0.0000 C   0  0  0  0  0  0  0  0  0  0  0  0
   -3.7690   -0.7962    0.0000 C   0  0  0  0  0  0  0  0  0  0  0  0
   -3.1150    0.5537    0.0000 O   0  0  0  0  0  0  0  0  0  0  0  0
   -5.2651   -0.9047    0.0000 N   0  0  0  0  0  0  0  0  0  0  0  0
   -6.1071    0.3366    0.0000 C   0  0  0  0  0  0  0  0  0  0  0  0
   -7.6032    0.2281    0.0000 C   0  0  0  0  0  0  0  0  0  0  0  0
   -8.4452    1.4695    0.0000 C   0  0  0  0  0  0  0  0  0  0  0  0
   -9.9413    1.3610    0.0000 C   0  0  0  0  0  0  0  0  0  0  0  0
  -10.7833    2.6024    0.0000 N   0  0  0  0  0  0  0  0  0  0  0  0
  -10.5953    0.0111    0.0000 O   0  0  0  0  0  0  0  0  0  0  0  0
   -5.4531    1.6865    0.0000 C   0  0  0  0  0  0  0  0  0  0  0  0
   -3.9570    1.7950    0.0000 O   0  0  0  0  0  0  0  0  0  0  0  0
   -6.2951    2.9279    0.0000 O   0  0  0  0  0  0  0  0  0  0  0  0
    0.9071   -3.0620    0.0000 C   0  0  0  0  0  0  0  0  0  0  0  0
    1.8742   -4.2086    0.0000 C   0  0  0  0  0  0  0  0  0  0  0  0
    3.2636   -3.6431    0.0000 C   0  0  0  0  0  0  0  0  0  0  0  0
    3.1551   -2.1470    0.0000 C   0  0  0  0  0  0  0  0  0  0  0  0
    4.1943   -1.0653    0.0000 C   0  0  0  0  0  0  0  0  0  0  0  0
    5.6506   -1.4244    0.0000 C   0  0  0  0  0  0  0  0  0  0  0  0
    6.0678   -2.8652    0.0000 O   0  0  0  0  0  0  0  0  0  0  0  0
    6.6898   -0.3427    0.0000 C   0  0  0  0  0  0  0  0  0  0  0  0
    6.2726    1.0981    0.0000 C   0  0  0  0  0  0  0  0  0  0  0  0
    7.3118    2.1798    0.0000 C   0  0  0  0  0  0  0  0  0  0  0  0
    6.8946    3.6206    0.0000 C   0  0  0  0  0  0  0  0  0  0  0  0
    7.9338    4.7023    0.0000 O   0  0  0  0  0  0  0  0  0  0  0  0
    5.4383    3.9798    0.0000 C   0  0  0  0  0  0  0  0  0  0  0  0
    4.3991    2.8981    0.0000 C   0  0  0  0  0  0  0  0  0  0  0  0
    4.8163    1.4572    0.0000 C   0  0  0  0  0  0  0  0  0  0  0  0
    3.3599    1.8164    0.0000 C   0  0  0  0  0  0  0  0  0  0  0  0
    3.7771    0.3755    0.0000 C   0  0  0  0  0  0  0  0  0  0  0  0
    2.3207    0.7347    0.0000 C   0  0  0  0  0  0  0  0  0  0  0  0
    1.2815   -0.3470    0.0000 C   0  0  0  0  0  0  0  0  0  0  0  0
    1.6987   -1.7879    0.0000 C   0  0  0  0  0  0  0  0  0  0  0  0
    0.2127   -1.5829    0.0000 C   0  0  0  0  0  0  0  0  0  0  0  0
  2  1  1  6
  2  3  1  0
  3  4  1  0
  4  5  1  0
  5  6  2  0
  5  7  1  0
  7  8  1  0
  8  9  1  1
  9 10  1  0
 10 11  1  0
 11 12  1  0
 11 13  2  0
  8 14  1  0
 14 15  2  0
 14 16  1  0
  2 17  1  0
 17 18  1  6
 18 19  1  0
 20 19  1  6
 20 21  1  0
 21 22  1  1
 22 23  2  0
 22 24  1  0
 25 24  1  1
 25 26  1  0
 26 27  1  0
 27 28  1  1
 27 29  1  0
 29 30  1  0
 30 31  1  0
 31 32  1  6
 31 33  1  0
 33 34  1  6
 34 35  1  0
 35 36  1  0
 36 37  1  6
 36 17  1  0
 36 20  1  0
 33 21  1  0
 31 25  1  0
M  END
>  <MS_ID>  (3764) 
MS4264

>  <SMILES>  (3764) 
C[C@H](CCC(=O)N[C@@H](CCC(N)=O)C(=O)O)[C@H]1CC[C@H]2[C@@H]3C(=O)C[C@@H]4C[C@H](O)CC[C@]4(C)[C@H]3CC[C@]12C

>  <Structure_dimension>  (3764) 
2D

$$$$
MS4269
     RDKit          2D

 34 37  0  0  0  0  0  0  0  0999 V2000
   -2.5086   -4.2168    0.0000 C   0  0  0  0  0  0  0  0  0  0  0  0
   -1.7489   -2.9234    0.0000 C   0  0  0  0  0  0  0  0  0  0  0  0
   -2.4892   -1.6188    0.0000 C   0  0  0  0  0  0  0  0  0  0  0  0
   -3.9892   -1.6076    0.0000 C   0  0  0  0  0  0  0  0  0  0  0  0
   -4.7295   -0.3030    0.0000 C   0  0  0  0  0  0  0  0  0  0  0  0
   -3.9698    0.9904    0.0000 O   0  0  0  0  0  0  0  0  0  0  0  0
   -6.2294   -0.2918    0.0000 N   0  0  0  0  0  0  0  0  0  0  0  0
   -6.9697    1.0128    0.0000 C   0  0  0  0  0  0  0  0  0  0  0  0
   -8.4697    1.0240    0.0000 C   0  0  0  0  0  0  0  0  0  0  0  0
   -9.2100    2.3286    0.0000 O   0  0  0  0  0  0  0  0  0  0  0  0
   -6.2100    2.3062    0.0000 C   0  0  0  0  0  0  0  0  0  0  0  0
   -4.7101    2.2950    0.0000 O   0  0  0  0  0  0  0  0  0  0  0  0
   -6.9503    3.6108    0.0000 O   0  0  0  0  0  0  0  0  0  0  0  0
   -0.2490   -2.9346    0.0000 C   0  0  0  0  0  0  0  0  0  0  0  0
    0.6236   -4.1547    0.0000 C   0  0  0  0  0  0  0  0  0  0  0  0
    2.0536   -3.7018    0.0000 C   0  0  0  0  0  0  0  0  0  0  0  0
    2.0648   -2.2018    0.0000 C   0  0  0  0  0  0  0  0  0  0  0  0
    3.1870   -1.2065    0.0000 C   0  0  0  0  0  0  0  0  0  0  0  0
    4.6101   -1.6806    0.0000 C   0  0  0  0  0  0  0  0  0  0  0  0
    4.9110   -3.1501    0.0000 O   0  0  0  0  0  0  0  0  0  0  0  0
    5.7323   -0.6853    0.0000 C   0  0  0  0  0  0  0  0  0  0  0  0
    5.4313    0.7842    0.0000 C   0  0  0  0  0  0  0  0  0  0  0  0
    6.5535    1.7796    0.0000 C   0  0  0  0  0  0  0  0  0  0  0  0
    6.2526    3.2491    0.0000 C   0  0  0  0  0  0  0  0  0  0  0  0
    7.3748    4.2444    0.0000 O   0  0  0  0  0  0  0  0  0  0  0  0
    4.8295    3.7232    0.0000 C   0  0  0  0  0  0  0  0  0  0  0  0
    3.7074    2.7279    0.0000 C   0  0  0  0  0  0  0  0  0  0  0  0
    4.0083    1.2584    0.0000 C   0  0  0  0  0  0  0  0  0  0  0  0
    2.5852    1.7325    0.0000 C   0  0  0  0  0  0  0  0  0  0  0  0
    2.8861    0.2630    0.0000 C   0  0  0  0  0  0  0  0  0  0  0  0
    1.4630    0.7372    0.0000 C   0  0  0  0  0  0  0  0  0  0  0  0
    0.3408   -0.2582    0.0000 C   0  0  0  0  0  0  0  0  0  0  0  0
    0.6417   -1.7277    0.0000 C   0  0  0  0  0  0  0  0  0  0  0  0
   -0.8231   -1.4049    0.0000 C   0  0  0  0  0  0  0  0  0  0  0  0
  2  1  1  6
  2  3  1  0
  3  4  1  0
  4  5  1  0
  5  6  2  0
  5  7  1  0
  7  8  1  0
  8  9  1  1
  9 10  1  0
  8 11  1  0
 11 12  2  0
 11 13  1  0
  2 14  1  0
 14 15  1  6
 15 16  1  0
 17 16  1  6
 17 18  1  0
 18 19  1  1
 19 20  2  0
 19 21  1  0
 22 21  1  1
 22 23  1  0
 23 24  1  0
 24 25  1  1
 24 26  1  0
 26 27  1  0
 27 28  1  0
 28 29  1  6
 28 30  1  0
 30 31  1  6
 31 32  1  0
 32 33  1  0
 33 34  1  6
 33 14  1  0
 33 17  1  0
 30 18  1  0
 28 22  1  0
M  END
>  <MS_ID>  (3765) 
MS4269

>  <SMILES>  (3765) 
C[C@H](CCC(=O)N[C@@H](CO)C(=O)O)[C@H]1CC[C@H]2[C@@H]3C(=O)C[C@@H]4C[C@H](O)CC[C@]4(C)[C@H]3CC[C@]12C

>  <Structure_dimension>  (3765) 
2D

$$$$
MS4271
     RDKit          2D

 37 40  0  0  0  0  0  0  0  0999 V2000
   -1.6683   -4.0919    0.0000 C   0  0  0  0  0  0  0  0  0  0  0  0
   -0.8982   -2.8047    0.0000 C   0  0  0  0  0  0  0  0  0  0  0  0
   -1.6279   -1.4942    0.0000 C   0  0  0  0  0  0  0  0  0  0  0  0
   -3.1277   -1.4708    0.0000 C   0  0  0  0  0  0  0  0  0  0  0  0
   -3.8574   -0.1602    0.0000 C   0  0  0  0  0  0  0  0  0  0  0  0
   -3.0873    1.1270    0.0000 O   0  0  0  0  0  0  0  0  0  0  0  0
   -5.3572   -0.1369    0.0000 O   0  0  0  0  0  0  0  0  0  0  0  0
   -6.0869    1.1737    0.0000 C   0  0  0  0  0  0  0  0  0  0  0  0
   -7.5867    1.1970    0.0000 C   0  0  0  0  0  0  0  0  0  0  0  0
   -7.5634    2.6968    0.0000 F   0  0  0  0  0  0  0  0  0  0  0  0
   -7.6101   -0.3028    0.0000 F   0  0  0  0  0  0  0  0  0  0  0  0
   -9.0865    1.2204    0.0000 C   0  0  0  0  0  0  0  0  0  0  0  0
  -10.5863    1.2437    0.0000 F   0  0  0  0  0  0  0  0  0  0  0  0
   -9.1099   -0.2794    0.0000 F   0  0  0  0  0  0  0  0  0  0  0  0
   -9.0632    2.7202    0.0000 F   0  0  0  0  0  0  0  0  0  0  0  0
    0.6016   -2.8281    0.0000 C   0  0  0  0  0  0  0  0  0  0  0  0
    1.4643   -4.0552    0.0000 C   0  0  0  0  0  0  0  0  0  0  0  0
    2.8979   -3.6139    0.0000 C   0  0  0  0  0  0  0  0  0  0  0  0
    2.9213   -2.1141    0.0000 C   0  0  0  0  0  0  0  0  0  0  0  0
    4.0515   -1.1279    0.0000 C   0  0  0  0  0  0  0  0  0  0  0  0
    5.4707   -1.6136    0.0000 C   0  0  0  0  0  0  0  0  0  0  0  0
    5.7597   -3.0855    0.0000 O   0  0  0  0  0  0  0  0  0  0  0  0
    6.6009   -0.6273    0.0000 C   0  0  0  0  0  0  0  0  0  0  0  0
    6.3119    0.8446    0.0000 C   0  0  0  0  0  0  0  0  0  0  0  0
    7.4421    1.8308    0.0000 C   0  0  0  0  0  0  0  0  0  0  0  0
    7.1531    3.3027    0.0000 C   0  0  0  0  0  0  0  0  0  0  0  0
    8.2833    4.2889    0.0000 O   0  0  0  0  0  0  0  0  0  0  0  0
    5.7339    3.7884    0.0000 C   0  0  0  0  0  0  0  0  0  0  0  0
    4.6037    2.8021    0.0000 C   0  0  0  0  0  0  0  0  0  0  0  0
    4.8927    1.3302    0.0000 C   0  0  0  0  0  0  0  0  0  0  0  0
    3.4735    1.8159    0.0000 C   0  0  0  0  0  0  0  0  0  0  0  0
    3.7625    0.3440    0.0000 C   0  0  0  0  0  0  0  0  0  0  0  0
    2.3433    0.8297    0.0000 C   0  0  0  0  0  0  0  0  0  0  0  0
    1.2131   -0.1565    0.0000 C   0  0  0  0  0  0  0  0  0  0  0  0
   -0.2061    0.3292    0.0000 O   0  0  0  0  0  0  0  0  0  0  0  0
    1.5021   -1.6284    0.0000 C   0  0  0  0  0  0  0  0  0  0  0  0
    0.0399   -1.2937    0.0000 C   0  0  0  0  0  0  0  0  0  0  0  0
  2  1  1  6
  2  3  1  0
  3  4  1  0
  4  5  1  0
  5  6  2  0
  5  7  1  0
  7  8  1  0
  8  9  1  0
  9 10  1  0
  9 11  1  0
  9 12  1  0
 12 13  1  0
 12 14  1  0
 12 15  1  0
  2 16  1  0
 16 17  1  6
 17 18  1  0
 19 18  1  6
 19 20  1  0
 20 21  1  1
 21 22  1  1
 21 23  1  0
 24 23  1  1
 24 25  1  0
 25 26  1  0
 26 27  1  1
 26 28  1  0
 28 29  1  0
 29 30  1  0
 30 31  1  6
 30 32  1  0
 32 33  1  6
 33 34  1  0
 34 35  1  1
 34 36  1  0
 36 37  1  6
 36 16  1  0
 36 19  1  0
 32 20  1  0
 30 24  1  0
M  END
>  <MS_ID>  (3766) 
MS4271

>  <SMILES>  (3766) 
C[C@H](CCC(=O)OCC(F)(F)C(F)(F)F)[C@H]1CC[C@H]2[C@@H]3[C@H](O)C[C@@H]4C[C@H](O)CC[C@]4(C)[C@H]3C[C@H](O)[C@]12C

>  <Structure_dimension>  (3766) 
2D

$$$$
MS4277
     RDKit          2D

 37 42  0  0  0  0  0  0  0  0999 V2000
   -1.5678   -3.9362    0.0000 C   0  0  0  0  0  0  0  0  0  0  0  0
   -0.7650   -2.6691    0.0000 C   0  0  0  0  0  0  0  0  0  0  0  0
   -1.4610   -1.3403    0.0000 C   0  0  0  0  0  0  0  0  0  0  0  0
   -2.9597   -1.2786    0.0000 C   0  0  0  0  0  0  0  0  0  0  0  0
   -3.6556    0.0502    0.0000 C   0  0  0  0  0  0  0  0  0  0  0  0
   -2.8529    1.3173    0.0000 O   0  0  0  0  0  0  0  0  0  0  0  0
   -5.1544    0.1118    0.0000 N   0  0  0  0  0  0  0  0  0  0  0  0
   -5.9571   -1.1553    0.0000 C   0  0  0  0  0  0  0  0  0  0  0  0
   -7.4559   -1.0936    0.0000 C   0  0  0  0  0  0  0  0  0  0  0  0
   -8.1518    0.2352    0.0000 C   0  0  0  0  0  0  0  0  0  0  0  0
   -9.6506    0.2969    0.0000 C   0  0  0  0  0  0  0  0  0  0  0  0
  -10.3465    1.6256    0.0000 C   0  0  0  0  0  0  0  0  0  0  0  0
   -9.5437    2.8927    0.0000 C   0  0  0  0  0  0  0  0  0  0  0  0
   -8.0450    2.8311    0.0000 C   0  0  0  0  0  0  0  0  0  0  0  0
   -7.3491    1.5023    0.0000 C   0  0  0  0  0  0  0  0  0  0  0  0
   -5.8503    1.4406    0.0000 C   0  0  0  0  0  0  0  0  0  0  0  0
    0.7337   -2.7307    0.0000 C   0  0  0  0  0  0  0  0  0  0  0  0
    1.5648   -3.9795    0.0000 C   0  0  0  0  0  0  0  0  0  0  0  0
    3.0092   -3.5750    0.0000 C   0  0  0  0  0  0  0  0  0  0  0  0
    3.0709   -2.0763    0.0000 C   0  0  0  0  0  0  0  0  0  0  0  0
    4.2259   -1.1193    0.0000 C   0  0  0  0  0  0  0  0  0  0  0  0
    5.6322   -1.6411    0.0000 C   0  0  0  0  0  0  0  0  0  0  0  0
    5.8835   -3.1199    0.0000 O   0  0  0  0  0  0  0  0  0  0  0  0
    6.7873   -0.6841    0.0000 C   0  0  0  0  0  0  0  0  0  0  0  0
    6.5360    0.7947    0.0000 C   0  0  0  0  0  0  0  0  0  0  0  0
    7.6911    1.7518    0.0000 C   0  0  0  0  0  0  0  0  0  0  0  0
    7.4398    3.2306    0.0000 C   0  0  0  0  0  0  0  0  0  0  0  0
    8.5948    4.1876    0.0000 O   0  0  0  0  0  0  0  0  0  0  0  0
    6.0335    3.7524    0.0000 C   0  0  0  0  0  0  0  0  0  0  0  0
    4.8784    2.7953    0.0000 C   0  0  0  0  0  0  0  0  0  0  0  0
    5.1297    1.3165    0.0000 C   0  0  0  0  0  0  0  0  0  0  0  0
    3.7234    1.8383    0.0000 C   0  0  0  0  0  0  0  0  0  0  0  0
    3.9746    0.3595    0.0000 C   0  0  0  0  0  0  0  0  0  0  0  0
    2.5683    0.8813    0.0000 C   0  0  0  0  0  0  0  0  0  0  0  0
    1.4133   -0.0757    0.0000 C   0  0  0  0  0  0  0  0  0  0  0  0
    1.6646   -1.5545    0.0000 C   0  0  0  0  0  0  0  0  0  0  0  0
    0.2114   -1.1826    0.0000 C   0  0  0  0  0  0  0  0  0  0  0  0
  2  1  1  6
  2  3  1  0
  3  4  1  0
  4  5  1  0
  5  6  2  0
  5  7  1  0
  7  8  1  0
  8  9  1  0
  9 10  1  0
 10 11  2  0
 11 12  1  0
 12 13  2  0
 13 14  1  0
 14 15  2  0
 15 16  1  0
  2 17  1  0
 17 18  1  6
 18 19  1  0
 20 19  1  6
 20 21  1  0
 21 22  1  1
 22 23  1  1
 22 24  1  0
 25 24  1  1
 25 26  1  0
 26 27  1  0
 27 28  1  1
 27 29  1  0
 29 30  1  0
 30 31  1  0
 31 32  1  6
 31 33  1  0
 33 34  1  6
 34 35  1  0
 35 36  1  0
 36 37  1  6
 16  7  1  0
 36 17  1  0
 15 10  1  0
 36 20  1  0
 33 21  1  0
 31 25  1  0
M  END
>  <MS_ID>  (3767) 
MS4277

>  <SMILES>  (3767) 
C[C@H](CCC(=O)N1CCc2ccccc2C1)[C@H]1CC[C@H]2[C@@H]3[C@H](O)C[C@@H]4C[C@H](O)CC[C@]4(C)[C@H]3CC[C@]12C

>  <Structure_dimension>  (3767) 
2D

$$$$
MS4278
     RDKit          2D

 29 32  0  0  0  0  0  0  0  0999 V2000
   -5.0303   -2.1373    0.0000 C   0  0  0  0  0  0  0  0  0  0  0  0
   -3.8594   -1.1998    0.0000 C   0  0  0  0  0  0  0  0  0  0  0  0
   -4.0858    0.2830    0.0000 C   0  0  0  0  0  0  0  0  0  0  0  0
   -5.4831    0.8284    0.0000 C   0  0  0  0  0  0  0  0  0  0  0  0
   -5.7095    2.3112    0.0000 C   0  0  0  0  0  0  0  0  0  0  0  0
   -4.5386    3.2487    0.0000 O   0  0  0  0  0  0  0  0  0  0  0  0
   -7.1069    2.8565    0.0000 O   0  0  0  0  0  0  0  0  0  0  0  0
   -2.4620   -1.7451    0.0000 C   0  0  0  0  0  0  0  0  0  0  0  0
   -2.0818   -3.1961    0.0000 C   0  0  0  0  0  0  0  0  0  0  0  0
   -0.5844   -3.2830    0.0000 C   0  0  0  0  0  0  0  0  0  0  0  0
   -0.0390   -1.8856    0.0000 C   0  0  0  0  0  0  0  0  0  0  0  0
    1.3643   -1.3559    0.0000 C   0  0  0  0  0  0  0  0  0  0  0  0
    2.5248   -2.3063    0.0000 C   0  0  0  0  0  0  0  0  0  0  0  0
    2.2819   -3.7865    0.0000 O   0  0  0  0  0  0  0  0  0  0  0  0
    3.9281   -1.7765    0.0000 C   0  0  0  0  0  0  0  0  0  0  0  0
    4.1710   -0.2963    0.0000 C   0  0  0  0  0  0  0  0  0  0  0  0
    5.5743    0.2334    0.0000 C   0  0  0  0  0  0  0  0  0  0  0  0
    5.8172    1.7136    0.0000 C   0  0  0  0  0  0  0  0  0  0  0  0
    7.2205    2.2434    0.0000 O   0  0  0  0  0  0  0  0  0  0  0  0
    4.6568    2.6641    0.0000 C   0  0  0  0  0  0  0  0  0  0  0  0
    3.2534    2.1343    0.0000 C   0  0  0  0  0  0  0  0  0  0  0  0
    3.0105    0.6541    0.0000 C   0  0  0  0  0  0  0  0  0  0  0  0
    1.8501    1.6046    0.0000 C   0  0  0  0  0  0  0  0  0  0  0  0
    1.6072    0.1244    0.0000 C   0  0  0  0  0  0  0  0  0  0  0  0
    0.4467    1.0748    0.0000 C   0  0  0  0  0  0  0  0  0  0  0  0
   -0.9566    0.5450    0.0000 C   0  0  0  0  0  0  0  0  0  0  0  0
   -2.1170    1.4955    0.0000 O   0  0  0  0  0  0  0  0  0  0  0  0
   -1.1995   -0.9352    0.0000 C   0  0  0  0  0  0  0  0  0  0  0  0
   -2.4529   -0.1112    0.0000 C   0  0  0  0  0  0  0  0  0  0  0  0
  2  1  1  1
  2  3  1  0
  3  4  1  0
  4  5  1  0
  5  6  2  0
  5  7  1  0
  2  8  1  0
  8  9  1  6
  9 10  1  0
 11 10  1  6
 11 12  1  0
 12 13  1  1
 13 14  1  1
 13 15  1  0
 16 15  1  1
 16 17  1  0
 17 18  1  0
 18 19  2  0
 18 20  1  0
 20 21  1  0
 21 22  1  0
 22 23  1  6
 22 24  1  0
 24 25  1  6
 25 26  1  0
 26 27  1  1
 26 28  1  0
 28 29  1  6
 28  8  1  0
 28 11  1  0
 24 12  1  0
 22 16  1  0
M  END
>  <MS_ID>  (3768) 
MS4278

>  <SMILES>  (3768) 
C[C@@H](CCC(=O)O)[C@H]1CC[C@H]2[C@@H]3[C@H](O)C[C@@H]4CC(=O)CC[C@]4(C)[C@H]3C[C@H](O)[C@]12C

>  <Structure_dimension>  (3768) 
2D

$$$$
MS4282
     RDKit          2D

 30 33  0  0  0  0  0  0  0  0999 V2000
   -4.8751   -1.4261    0.0000 C   0  0  0  0  0  0  0  0  0  0  0  0
   -3.6189   -0.6065    0.0000 C   0  0  0  0  0  0  0  0  0  0  0  0
   -3.7006    0.8913    0.0000 C   0  0  0  0  0  0  0  0  0  0  0  0
   -5.0386    1.5694    0.0000 C   0  0  0  0  0  0  0  0  0  0  0  0
   -5.1203    3.0672    0.0000 C   0  0  0  0  0  0  0  0  0  0  0  0
   -6.2948    0.7498    0.0000 C   0  0  0  0  0  0  0  0  0  0  0  0
   -6.2131   -0.7480    0.0000 O   0  0  0  0  0  0  0  0  0  0  0  0
   -7.6328    1.4279    0.0000 O   0  0  0  0  0  0  0  0  0  0  0  0
   -2.2809   -1.2846    0.0000 C   0  0  0  0  0  0  0  0  0  0  0  0
   -2.0431   -2.7656    0.0000 C   0  0  0  0  0  0  0  0  0  0  0  0
   -0.5610   -2.9971    0.0000 C   0  0  0  0  0  0  0  0  0  0  0  0
    0.1171   -1.6591    0.0000 C   0  0  0  0  0  0  0  0  0  0  0  0
    1.5651   -1.2677    0.0000 C   0  0  0  0  0  0  0  0  0  0  0  0
    2.6281   -2.3261    0.0000 C   0  0  0  0  0  0  0  0  0  0  0  0
    2.2430   -3.7758    0.0000 O   0  0  0  0  0  0  0  0  0  0  0  0
    4.0761   -1.9348    0.0000 C   0  0  0  0  0  0  0  0  0  0  0  0
    4.4612   -0.4851    0.0000 C   0  0  0  0  0  0  0  0  0  0  0  0
    5.9093   -0.0937    0.0000 C   0  0  0  0  0  0  0  0  0  0  0  0
    6.2944    1.3560    0.0000 C   0  0  0  0  0  0  0  0  0  0  0  0
    7.7425    1.7473    0.0000 O   0  0  0  0  0  0  0  0  0  0  0  0
    5.2315    2.4144    0.0000 C   0  0  0  0  0  0  0  0  0  0  0  0
    3.7834    2.0230    0.0000 C   0  0  0  0  0  0  0  0  0  0  0  0
    3.3983    0.5733    0.0000 C   0  0  0  0  0  0  0  0  0  0  0  0
    2.3354    1.6317    0.0000 C   0  0  0  0  0  0  0  0  0  0  0  0
    1.9503    0.1820    0.0000 C   0  0  0  0  0  0  0  0  0  0  0  0
    0.8873    1.2404    0.0000 C   0  0  0  0  0  0  0  0  0  0  0  0
   -0.5607    0.8490    0.0000 C   0  0  0  0  0  0  0  0  0  0  0  0
   -1.6237    1.9074    0.0000 O   0  0  0  0  0  0  0  0  0  0  0  0
   -0.9459   -0.6007    0.0000 C   0  0  0  0  0  0  0  0  0  0  0  0
   -2.1136    0.3408    0.0000 C   0  0  0  0  0  0  0  0  0  0  0  0
  2  1  1  6
  2  3  1  0
  3  4  1  0
  4  5  1  1
  4  6  1  0
  6  7  2  0
  6  8  1  0
  2  9  1  0
  9 10  1  6
 10 11  1  0
 12 11  1  6
 12 13  1  0
 13 14  1  1
 14 15  1  1
 14 16  1  0
 17 16  1  1
 17 18  1  0
 18 19  1  0
 19 20  1  1
 19 21  1  0
 21 22  1  0
 22 23  1  0
 23 24  1  6
 23 25  1  0
 25 26  1  6
 26 27  1  0
 27 28  1  1
 27 29  1  0
 29 30  1  6
 29  9  1  0
 29 12  1  0
 25 13  1  0
 23 17  1  0
M  END
>  <MS_ID>  (3769) 
MS4282

>  <SMILES>  (3769) 
C[C@H](C[C@H](C)C(=O)O)[C@H]1CC[C@H]2[C@@H]3[C@H](O)C[C@@H]4C[C@H](O)CC[C@]4(C)[C@H]3C[C@H](O)[C@]12C

>  <Structure_dimension>  (3769) 
2D

$$$$
MS4285
     RDKit          2D

 27 30  0  0  0  0  0  0  0  0999 V2000
   -4.7656   -2.2692    0.0000 C   0  0  0  0  0  0  0  0  0  0  0  0
   -3.6016   -1.3230    0.0000 C   0  0  0  0  0  0  0  0  0  0  0  0
   -3.8391    0.1581    0.0000 C   0  0  0  0  0  0  0  0  0  0  0  0
   -5.2404    0.6930    0.0000 C   0  0  0  0  0  0  0  0  0  0  0  0
   -5.4779    2.1741    0.0000 C   0  0  0  0  0  0  0  0  0  0  0  0
   -4.3139    3.1203    0.0000 O   0  0  0  0  0  0  0  0  0  0  0  0
   -6.8792    2.7090    0.0000 O   0  0  0  0  0  0  0  0  0  0  0  0
   -2.2003   -1.8579    0.0000 C   0  0  0  0  0  0  0  0  0  0  0  0
   -1.8093   -3.3061    0.0000 C   0  0  0  0  0  0  0  0  0  0  0  0
   -0.3112   -3.3818    0.0000 C   0  0  0  0  0  0  0  0  0  0  0  0
    0.2237   -1.9804    0.0000 C   0  0  0  0  0  0  0  0  0  0  0  0
    1.6231   -1.4402    0.0000 C   0  0  0  0  0  0  0  0  0  0  0  0
    2.7905   -2.3820    0.0000 C   0  0  0  0  0  0  0  0  0  0  0  0
    4.1899   -1.8418    0.0000 C   0  0  0  0  0  0  0  0  0  0  0  0
    4.4218   -0.3599    0.0000 C   0  0  0  0  0  0  0  0  0  0  0  0
    5.8211    0.1803    0.0000 C   0  0  0  0  0  0  0  0  0  0  0  0
    6.0530    1.6623    0.0000 C   0  0  0  0  0  0  0  0  0  0  0  0
    4.8855    2.6041    0.0000 C   0  0  0  0  0  0  0  0  0  0  0  0
    3.4862    2.0639    0.0000 C   0  0  0  0  0  0  0  0  0  0  0  0
    3.2543    0.5819    0.0000 C   0  0  0  0  0  0  0  0  0  0  0  0
    2.0868    1.5237    0.0000 C   0  0  0  0  0  0  0  0  0  0  0  0
    1.8549    0.0417    0.0000 C   0  0  0  0  0  0  0  0  0  0  0  0
    0.6874    0.9835    0.0000 C   0  0  0  0  0  0  0  0  0  0  0  0
    0.9193    2.4655    0.0000 O   0  0  0  0  0  0  0  0  0  0  0  0
   -0.7119    0.4434    0.0000 C   0  0  0  0  0  0  0  0  0  0  0  0
   -0.9438   -1.0386    0.0000 C   0  0  0  0  0  0  0  0  0  0  0  0
   -2.2033   -0.2240    0.0000 C   0  0  0  0  0  0  0  0  0  0  0  0
  2  1  1  6
  2  3  1  0
  3  4  1  0
  4  5  1  0
  5  6  2  0
  5  7  1  0
  2  8  1  0
  8  9  1  6
  9 10  1  0
 11 10  1  6
 11 12  1  0
 12 13  1  1
 13 14  1  0
 15 14  1  1
 15 16  1  0
 16 17  1  0
 17 18  1  0
 18 19  1  0
 19 20  1  0
 20 21  1  6
 20 22  1  0
 22 23  1  6
 23 24  2  0
 23 25  1  0
 25 26  1  0
 26 27  1  6
 26  8  1  0
 26 11  1  0
 22 12  1  0
 20 15  1  0
M  END
>  <MS_ID>  (3770) 
MS4285

>  <SMILES>  (3770) 
C[C@H](CCC(=O)O)[C@H]1CC[C@H]2[C@@H]3CC[C@@H]4CCCC[C@]4(C)[C@H]3C(=O)C[C@]12C

>  <Structure_dimension>  (3770) 
2D

$$$$
MS4287
     RDKit          2D

 29 32  0  0  0  0  0  0  0  0999 V2000
   -5.0926   -2.2535    0.0000 C   0  0  0  0  0  0  0  0  0  0  0  0
   -3.9364   -1.2979    0.0000 C   0  0  0  0  0  0  0  0  0  0  0  0
   -4.1859    0.1812    0.0000 C   0  0  0  0  0  0  0  0  0  0  0  0
   -5.5916    0.7047    0.0000 C   0  0  0  0  0  0  0  0  0  0  0  0
   -5.8411    2.1838    0.0000 C   0  0  0  0  0  0  0  0  0  0  0  0
   -4.6849    3.1394    0.0000 O   0  0  0  0  0  0  0  0  0  0  0  0
   -7.2468    2.7072    0.0000 O   0  0  0  0  0  0  0  0  0  0  0  0
   -2.5307   -1.8214    0.0000 C   0  0  0  0  0  0  0  0  0  0  0  0
   -2.1279   -3.2663    0.0000 C   0  0  0  0  0  0  0  0  0  0  0  0
   -0.6293   -3.3297    0.0000 C   0  0  0  0  0  0  0  0  0  0  0  0
   -0.1058   -1.9240    0.0000 C   0  0  0  0  0  0  0  0  0  0  0  0
    1.2891   -1.3724    0.0000 C   0  0  0  0  0  0  0  0  0  0  0  0
    2.4642   -2.3047    0.0000 C   0  0  0  0  0  0  0  0  0  0  0  0
    3.8591   -1.7531    0.0000 C   0  0  0  0  0  0  0  0  0  0  0  0
    5.0343   -2.6853    0.0000 O   0  0  0  0  0  0  0  0  0  0  0  0
    4.0789   -0.2693    0.0000 C   0  0  0  0  0  0  0  0  0  0  0  0
    5.4738    0.2823    0.0000 C   0  0  0  0  0  0  0  0  0  0  0  0
    5.6936    1.7661    0.0000 C   0  0  0  0  0  0  0  0  0  0  0  0
    7.0885    2.3177    0.0000 O   0  0  0  0  0  0  0  0  0  0  0  0
    4.5184    2.6984    0.0000 C   0  0  0  0  0  0  0  0  0  0  0  0
    3.1235    2.1468    0.0000 C   0  0  0  0  0  0  0  0  0  0  0  0
    2.9038    0.6630    0.0000 C   0  0  0  0  0  0  0  0  0  0  0  0
    1.7286    1.5952    0.0000 C   0  0  0  0  0  0  0  0  0  0  0  0
    1.5089    0.1114    0.0000 C   0  0  0  0  0  0  0  0  0  0  0  0
    0.3337    1.0436    0.0000 C   0  0  0  0  0  0  0  0  0  0  0  0
   -1.0612    0.4920    0.0000 C   0  0  0  0  0  0  0  0  0  0  0  0
   -2.2363    1.4242    0.0000 O   0  0  0  0  0  0  0  0  0  0  0  0
   -1.2809   -0.9918    0.0000 C   0  0  0  0  0  0  0  0  0  0  0  0
   -2.5471   -0.1875    0.0000 C   0  0  0  0  0  0  0  0  0  0  0  0
  2  1  1  6
  2  3  1  0
  3  4  1  0
  4  5  1  0
  5  6  2  0
  5  7  1  0
  2  8  1  0
  8  9  1  6
  9 10  1  0
 11 10  1  6
 11 12  1  0
 12 13  1  1
 13 14  1  0
 14 15  1  6
 14 16  1  0
 16 17  1  1
 17 18  1  0
 18 19  1  1
 18 20  1  0
 20 21  1  0
 21 22  1  0
 22 23  1  6
 22 24  1  0
 24 25  1  6
 25 26  1  0
 26 27  2  0
 26 28  1  0
 28 29  1  6
 28  8  1  0
 28 11  1  0
 24 12  1  0
 22 16  1  0
M  END
>  <MS_ID>  (3771) 
MS4287

>  <SMILES>  (3771) 
C[C@H](CCC(=O)O)[C@H]1CC[C@H]2[C@@H]3C[C@@H](O)[C@@H]4C[C@H](O)CC[C@]4(C)[C@H]3CC(=O)[C@]12C

>  <Structure_dimension>  (3771) 
2D

$$$$
MS4289
     RDKit          2D

 29 32  0  0  0  0  0  0  0  0999 V2000
   -4.0871   -3.1154    0.0000 C   0  0  0  0  0  0  0  0  0  0  0  0
   -3.0536   -2.0283    0.0000 C   0  0  0  0  0  0  0  0  0  0  0  0
   -3.4784   -0.5897    0.0000 C   0  0  0  0  0  0  0  0  0  0  0  0
   -4.9366   -0.2383    0.0000 C   0  0  0  0  0  0  0  0  0  0  0  0
   -5.3614    1.2003    0.0000 C   0  0  0  0  0  0  0  0  0  0  0  0
   -4.3279    2.2875    0.0000 O   0  0  0  0  0  0  0  0  0  0  0  0
   -6.8197    1.5518    0.0000 N   0  0  0  0  0  0  0  0  0  0  0  0
   -7.2445    2.9904    0.0000 C   0  0  0  0  0  0  0  0  0  0  0  0
   -8.7027    3.3418    0.0000 N   0  0  0  0  0  0  0  0  0  0  0  0
   -1.5953   -2.3797    0.0000 C   0  0  0  0  0  0  0  0  0  0  0  0
   -1.0225   -3.7660    0.0000 C   0  0  0  0  0  0  0  0  0  0  0  0
    0.4730   -3.6496    0.0000 C   0  0  0  0  0  0  0  0  0  0  0  0
    0.8244   -2.1914    0.0000 C   0  0  0  0  0  0  0  0  0  0  0  0
    2.1432   -1.4767    0.0000 C   0  0  0  0  0  0  0  0  0  0  0  0
    3.4215   -2.2616    0.0000 C   0  0  0  0  0  0  0  0  0  0  0  0
    4.7404   -1.5470    0.0000 C   0  0  0  0  0  0  0  0  0  0  0  0
    4.7809   -0.0475    0.0000 C   0  0  0  0  0  0  0  0  0  0  0  0
    6.0998    0.6671    0.0000 C   0  0  0  0  0  0  0  0  0  0  0  0
    6.1403    2.1665    0.0000 C   0  0  0  0  0  0  0  0  0  0  0  0
    7.4592    2.8811    0.0000 O   0  0  0  0  0  0  0  0  0  0  0  0
    4.8620    2.9514    0.0000 C   0  0  0  0  0  0  0  0  0  0  0  0
    3.5432    2.2368    0.0000 C   0  0  0  0  0  0  0  0  0  0  0  0
    3.5026    0.7373    0.0000 C   0  0  0  0  0  0  0  0  0  0  0  0
    2.2243    1.5222    0.0000 C   0  0  0  0  0  0  0  0  0  0  0  0
    2.1838    0.0227    0.0000 C   0  0  0  0  0  0  0  0  0  0  0  0
    0.9055    0.8076    0.0000 C   0  0  0  0  0  0  0  0  0  0  0  0
   -0.4133    0.0929    0.0000 C   0  0  0  0  0  0  0  0  0  0  0  0
   -0.4539   -1.4065    0.0000 C   0  0  0  0  0  0  0  0  0  0  0  0
   -1.8072   -0.7596    0.0000 C   0  0  0  0  0  0  0  0  0  0  0  0
  2  1  1  6
  2  3  1  0
  3  4  1  0
  4  5  1  0
  5  6  2  0
  5  7  1  0
  7  8  1  0
  8  9  1  0
  2 10  1  0
 10 11  1  6
 11 12  1  0
 13 12  1  6
 13 14  1  0
 14 15  1  1
 15 16  1  0
 17 16  1  1
 17 18  1  0
 18 19  1  0
 19 20  1  1
 19 21  1  0
 21 22  1  0
 22 23  1  0
 23 24  1  6
 23 25  1  0
 25 26  1  6
 26 27  1  0
 27 28  1  0
 28 29  1  6
 28 10  1  0
 28 13  1  0
 25 14  1  0
 23 17  1  0
M  END
>  <MS_ID>  (3772) 
MS4289

>  <SMILES>  (3772) 
C[C@H](CCC(=O)NCN)[C@H]1CC[C@H]2[C@@H]3CC[C@@H]4C[C@H](O)CC[C@]4(C)[C@H]3CC[C@]12C

>  <Structure_dimension>  (3772) 
2D

$$$$
MS4290
     RDKit          2D

 43 47  0  0  0  0  0  0  0  0999 V2000
   -6.2804   -3.5080    0.0000 C   0  0  0  0  0  0  0  0  0  0  0  0
   -5.2405   -2.4270    0.0000 C   0  0  0  0  0  0  0  0  0  0  0  0
   -5.6567   -0.9859    0.0000 C   0  0  0  0  0  0  0  0  0  0  0  0
   -7.1128   -0.6259    0.0000 C   0  0  0  0  0  0  0  0  0  0  0  0
   -7.5291    0.8152    0.0000 C   0  0  0  0  0  0  0  0  0  0  0  0
   -6.4892    1.8963    0.0000 O   0  0  0  0  0  0  0  0  0  0  0  0
   -8.9852    1.1753    0.0000 N   0  0  0  0  0  0  0  0  0  0  0  0
   -9.4014    2.6164    0.0000 C   0  0  0  0  0  0  0  0  0  0  0  0
  -10.8576    2.9765    0.0000 C   0  0  0  0  0  0  0  0  0  0  0  0
  -11.8975    1.8955    0.0000 O   0  0  0  0  0  0  0  0  0  0  0  0
  -11.2738    4.4176    0.0000 O   0  0  0  0  0  0  0  0  0  0  0  0
   -3.7843   -2.7871    0.0000 C   0  0  0  0  0  0  0  0  0  0  0  0
   -3.2198   -4.1768    0.0000 C   0  0  0  0  0  0  0  0  0  0  0  0
   -1.7236   -4.0693    0.0000 C   0  0  0  0  0  0  0  0  0  0  0  0
   -1.3635   -2.6132    0.0000 C   0  0  0  0  0  0  0  0  0  0  0  0
   -0.0405   -1.9064    0.0000 C   0  0  0  0  0  0  0  0  0  0  0  0
    1.2331   -2.6988    0.0000 C   0  0  0  0  0  0  0  0  0  0  0  0
    2.5562   -1.9921    0.0000 C   0  0  0  0  0  0  0  0  0  0  0  0
    2.6057   -0.4929    0.0000 C   0  0  0  0  0  0  0  0  0  0  0  0
    3.9287    0.2138    0.0000 C   0  0  0  0  0  0  0  0  0  0  0  0
    3.9782    1.7130    0.0000 C   0  0  0  0  0  0  0  0  0  0  0  0
    5.3013    2.4198    0.0000 O   0  0  0  0  0  0  0  0  0  0  0  0
    6.5749    1.6273    0.0000 C   0  0  0  0  0  0  0  0  0  0  0  0
    6.5254    0.1282    0.0000 O   0  0  0  0  0  0  0  0  0  0  0  0
    7.7990   -0.6643    0.0000 C   0  0  0  0  0  0  0  0  0  0  0  0
    7.7495   -2.1635    0.0000 C   0  0  0  0  0  0  0  0  0  0  0  0
    6.4265   -2.8702    0.0000 O   0  0  0  0  0  0  0  0  0  0  0  0
    9.1221    0.0425    0.0000 C   0  0  0  0  0  0  0  0  0  0  0  0
   10.3957   -0.7500    0.0000 O   0  0  0  0  0  0  0  0  0  0  0  0
    9.1715    1.5417    0.0000 C   0  0  0  0  0  0  0  0  0  0  0  0
   10.4946    2.2484    0.0000 O   0  0  0  0  0  0  0  0  0  0  0  0
    7.8979    2.3341    0.0000 C   0  0  0  0  0  0  0  0  0  0  0  0
    7.9474    3.8333    0.0000 O   0  0  0  0  0  0  0  0  0  0  0  0
    2.7046    2.5055    0.0000 C   0  0  0  0  0  0  0  0  0  0  0  0
    1.3815    1.7987    0.0000 C   0  0  0  0  0  0  0  0  0  0  0  0
    1.3321    0.2995    0.0000 C   0  0  0  0  0  0  0  0  0  0  0  0
    0.0585    1.0920    0.0000 C   0  0  0  0  0  0  0  0  0  0  0  0
    0.0090   -0.4072    0.0000 C   0  0  0  0  0  0  0  0  0  0  0  0
   -1.2646    0.3852    0.0000 C   0  0  0  0  0  0  0  0  0  0  0  0
   -2.5877   -0.3215    0.0000 C   0  0  0  0  0  0  0  0  0  0  0  0
   -3.8613    0.4709    0.0000 O   0  0  0  0  0  0  0  0  0  0  0  0
   -2.6371   -1.8207    0.0000 C   0  0  0  0  0  0  0  0  0  0  0  0
   -3.9866   -1.1658    0.0000 C   0  0  0  0  0  0  0  0  0  0  0  0
  2  1  1  6
  2  3  1  0
  3  4  1  0
  4  5  1  0
  5  6  2  0
  5  7  1  0
  7  8  1  0
  8  9  1  0
  9 10  2  0
  9 11  1  0
  2 12  1  0
 12 13  1  6
 13 14  1  0
 15 14  1  6
 15 16  1  0
 16 17  1  1
 17 18  1  0
 19 18  1  1
 19 20  1  0
 20 21  1  0
 21 22  1  1
 23 22  1  1
 23 24  1  0
 24 25  1  0
 25 26  1  1
 26 27  1  0
 25 28  1  0
 28 29  1  6
 28 30  1  0
 30 31  1  1
 30 32  1  0
 32 33  1  6
 21 34  1  0
 34 35  1  0
 35 36  1  0
 36 37  1  6
 36 38  1  0
 38 39  1  6
 39 40  1  0
 40 41  1  1
 40 42  1  0
 42 43  1  6
 42 12  1  0
 42 15  1  0
 38 16  1  0
 36 19  1  0
 32 23  1  0
M  END
>  <MS_ID>  (3773) 
MS4290

>  <SMILES>  (3773) 
C[C@H](CCC(=O)NCC(=O)O)[C@H]1CC[C@H]2[C@@H]3CC[C@@H]4C[C@H](O[C@@H]5O[C@H](CO)[C@@H](O)[C@H](O)[C@H]5O)CC[C@]4(C)[C@H]3C[C@H](O)[C@]12C

>  <Structure_dimension>  (3773) 
2D

$$$$
MS4291
     RDKit          2D

 34 37  0  0  0  0  0  0  0  0999 V2000
    2.1125    4.4108    0.0000 C   0  0  0  0  0  0  0  0  0  0  0  0
    1.3558    3.1156    0.0000 C   0  0  0  0  0  0  0  0  0  0  0  0
    2.0990    1.8127    0.0000 C   0  0  0  0  0  0  0  0  0  0  0  0
    3.5990    1.8049    0.0000 C   0  0  0  0  0  0  0  0  0  0  0  0
    4.3423    0.5020    0.0000 C   0  0  0  0  0  0  0  0  0  0  0  0
    3.5855   -0.7931    0.0000 O   0  0  0  0  0  0  0  0  0  0  0  0
    5.8422    0.4943    0.0000 N   0  0  0  0  0  0  0  0  0  0  0  0
    6.5855   -0.8087    0.0000 C   0  0  0  0  0  0  0  0  0  0  0  0
    8.0855   -0.8164    0.0000 C   0  0  0  0  0  0  0  0  0  0  0  0
    8.8287   -2.1193    0.0000 S   0  0  0  0  0  0  0  0  0  0  0  0
   10.1316   -1.3761    0.0000 O   0  0  0  0  0  0  0  0  0  0  0  0
    7.5258   -2.8626    0.0000 O   0  0  0  0  0  0  0  0  0  0  0  0
    9.5720   -3.4222    0.0000 O   0  0  0  0  0  0  0  0  0  0  0  0
   -0.1442    3.1234    0.0000 C   0  0  0  0  0  0  0  0  0  0  0  0
   -1.0196    4.3415    0.0000 C   0  0  0  0  0  0  0  0  0  0  0  0
   -2.4486    3.8853    0.0000 C   0  0  0  0  0  0  0  0  0  0  0  0
   -2.4563    2.3854    0.0000 C   0  0  0  0  0  0  0  0  0  0  0  0
   -3.5762    1.3875    0.0000 C   0  0  0  0  0  0  0  0  0  0  0  0
   -5.0004    1.8584    0.0000 C   0  0  0  0  0  0  0  0  0  0  0  0
   -6.1203    0.8605    0.0000 C   0  0  0  0  0  0  0  0  0  0  0  0
   -5.8160   -0.6084    0.0000 C   0  0  0  0  0  0  0  0  0  0  0  0
   -6.9359   -1.6063    0.0000 C   0  0  0  0  0  0  0  0  0  0  0  0
   -6.6317   -3.0751    0.0000 C   0  0  0  0  0  0  0  0  0  0  0  0
   -7.7516   -4.0730    0.0000 O   0  0  0  0  0  0  0  0  0  0  0  0
   -5.2075   -3.5460    0.0000 C   0  0  0  0  0  0  0  0  0  0  0  0
   -4.0876   -2.5481    0.0000 C   0  0  0  0  0  0  0  0  0  0  0  0
   -2.6635   -3.0190    0.0000 O   0  0  0  0  0  0  0  0  0  0  0  0
   -4.3919   -1.0793    0.0000 C   0  0  0  0  0  0  0  0  0  0  0  0
   -2.9677   -1.5502    0.0000 C   0  0  0  0  0  0  0  0  0  0  0  0
   -3.2720   -0.0814    0.0000 C   0  0  0  0  0  0  0  0  0  0  0  0
   -1.8478   -0.5523    0.0000 C   0  0  0  0  0  0  0  0  0  0  0  0
   -0.7279    0.4456    0.0000 C   0  0  0  0  0  0  0  0  0  0  0  0
   -1.0322    1.9145    0.0000 C   0  0  0  0  0  0  0  0  0  0  0  0
    0.4334    1.5950    0.0000 C   0  0  0  0  0  0  0  0  0  0  0  0
  2  1  1  6
  2  3  1  0
  3  4  1  0
  4  5  1  0
  5  6  2  0
  5  7  1  0
  7  8  1  0
  8  9  1  0
  9 10  1  0
 10 11  2  0
 10 12  2  0
 10 13  1  0
  2 14  1  0
 14 15  1  6
 15 16  1  0
 17 16  1  6
 17 18  1  0
 18 19  1  1
 19 20  1  0
 21 20  1  1
 21 22  1  0
 22 23  1  0
 23 24  1  1
 23 25  1  0
 25 26  1  0
 26 27  1  6
 26 28  1  0
 28 29  1  6
 28 30  1  0
 30 31  1  6
 31 32  1  0
 32 33  1  0
 33 34  1  6
 33 14  1  0
 33 17  1  0
 30 18  1  0
 28 21  1  0
M  END
>  <MS_ID>  (3774) 
MS4291

>  <SMILES>  (3774) 
C[C@H](CCC(=O)NCCS(=O)(=O)O)[C@H]1CC[C@H]2[C@@H]3CC[C@@H]4C[C@H](O)C[C@@H](O)[C@]4(C)[C@H]3CC[C@]12C

>  <Structure_dimension>  (3774) 
2D

$$$$
MS4292
     RDKit          2D

 29 32  0  0  0  0  0  0  0  0999 V2000
   -5.4679   -1.9280    0.0000 C   0  0  0  0  0  0  0  0  0  0  0  0
   -4.2629   -1.0348    0.0000 C   0  0  0  0  0  0  0  0  0  0  0  0
   -4.4339    0.4554    0.0000 C   0  0  0  0  0  0  0  0  0  0  0  0
   -5.8100    1.0524    0.0000 C   0  0  0  0  0  0  0  0  0  0  0  0
   -5.9810    2.5426    0.0000 C   0  0  0  0  0  0  0  0  0  0  0  0
   -4.7760    3.4359    0.0000 O   0  0  0  0  0  0  0  0  0  0  0  0
   -7.3571    3.1396    0.0000 O   0  0  0  0  0  0  0  0  0  0  0  0
   -2.8868   -1.6318    0.0000 C   0  0  0  0  0  0  0  0  0  0  0  0
   -2.5609   -3.0959    0.0000 C   0  0  0  0  0  0  0  0  0  0  0  0
   -1.0677   -3.2385    0.0000 C   0  0  0  0  0  0  0  0  0  0  0  0
   -0.4707   -1.8624    0.0000 C   0  0  0  0  0  0  0  0  0  0  0  0
    0.9514   -1.3853    0.0000 C   0  0  0  0  0  0  0  0  0  0  0  0
    2.0756   -2.3783    0.0000 C   0  0  0  0  0  0  0  0  0  0  0  0
    1.7778   -3.8484    0.0000 O   0  0  0  0  0  0  0  0  0  0  0  0
    3.4977   -1.9011    0.0000 C   0  0  0  0  0  0  0  0  0  0  0  0
    3.7956   -0.4310    0.0000 C   0  0  0  0  0  0  0  0  0  0  0  0
    5.2177    0.0461    0.0000 C   0  0  0  0  0  0  0  0  0  0  0  0
    5.5155    1.5163    0.0000 C   0  0  0  0  0  0  0  0  0  0  0  0
    6.9376    1.9934    0.0000 O   0  0  0  0  0  0  0  0  0  0  0  0
    8.0618    1.0004    0.0000 N   0  0  0  0  0  0  0  0  0  0  0  0
    4.3912    2.5093    0.0000 C   0  0  0  0  0  0  0  0  0  0  0  0
    2.9692    2.0321    0.0000 C   0  0  0  0  0  0  0  0  0  0  0  0
    2.6713    0.5620    0.0000 C   0  0  0  0  0  0  0  0  0  0  0  0
    1.5471    1.5550    0.0000 C   0  0  0  0  0  0  0  0  0  0  0  0
    1.2492    0.0849    0.0000 C   0  0  0  0  0  0  0  0  0  0  0  0
    0.1250    1.0779    0.0000 C   0  0  0  0  0  0  0  0  0  0  0  0
   -1.2971    0.6007    0.0000 C   0  0  0  0  0  0  0  0  0  0  0  0
   -1.5950   -0.8694    0.0000 C   0  0  0  0  0  0  0  0  0  0  0  0
   -2.8169    0.0007    0.0000 C   0  0  0  0  0  0  0  0  0  0  0  0
  2  1  1  6
  2  3  1  0
  3  4  1  0
  4  5  1  0
  5  6  2  0
  5  7  1  0
  2  8  1  0
  8  9  1  6
  9 10  1  0
 11 10  1  6
 11 12  1  0
 12 13  1  1
 13 14  1  6
 13 15  1  0
 16 15  1  1
 16 17  1  0
 17 18  1  0
 18 19  1  1
 19 20  1  0
 18 21  1  0
 21 22  1  0
 22 23  1  0
 23 24  1  6
 23 25  1  0
 25 26  1  6
 26 27  1  0
 27 28  1  0
 28 29  1  6
 28  8  1  0
 28 11  1  0
 25 12  1  0
 23 16  1  0
M  END
>  <MS_ID>  (3775) 
MS4292

>  <SMILES>  (3775) 
C[C@H](CCC(=O)O)[C@H]1CC[C@H]2[C@@H]3[C@@H](O)C[C@@H]4C[C@H](ON)CC[C@]4(C)[C@H]3CC[C@]12C

>  <Structure_dimension>  (3775) 
2D

$$$$
MS4293
     RDKit          2D

 30 33  0  0  0  0  0  0  0  0999 V2000
   -7.4279    3.5601    0.0000 C   0  0  0  0  0  0  0  0  0  0  0  0
   -7.0729    2.1027    0.0000 O   0  0  0  0  0  0  0  0  0  0  0  0
   -5.6333    1.6814    0.0000 C   0  0  0  0  0  0  0  0  0  0  0  0
   -4.5486    2.7174    0.0000 O   0  0  0  0  0  0  0  0  0  0  0  0
   -5.2784    0.2240    0.0000 C   0  0  0  0  0  0  0  0  0  0  0  0
   -3.8388   -0.1974    0.0000 C   0  0  0  0  0  0  0  0  0  0  0  0
   -3.4838   -1.6548    0.0000 C   0  0  0  0  0  0  0  0  0  0  0  0
   -4.5685   -2.6908    0.0000 C   0  0  0  0  0  0  0  0  0  0  0  0
   -2.0442   -2.0761    0.0000 C   0  0  0  0  0  0  0  0  0  0  0  0
   -1.5389   -3.4884    0.0000 C   0  0  0  0  0  0  0  0  0  0  0  0
   -0.0395   -3.4442    0.0000 C   0  0  0  0  0  0  0  0  0  0  0  0
    0.3818   -2.0046    0.0000 C   0  0  0  0  0  0  0  0  0  0  0  0
    1.7336   -1.3544    0.0000 C   0  0  0  0  0  0  0  0  0  0  0  0
    2.9725   -2.1999    0.0000 C   0  0  0  0  0  0  0  0  0  0  0  0
    2.8597   -3.6957    0.0000 O   0  0  0  0  0  0  0  0  0  0  0  0
    4.3243   -1.5497    0.0000 C   0  0  0  0  0  0  0  0  0  0  0  0
    4.4371   -0.0540    0.0000 C   0  0  0  0  0  0  0  0  0  0  0  0
    5.7888    0.5962    0.0000 C   0  0  0  0  0  0  0  0  0  0  0  0
    5.9016    2.0920    0.0000 C   0  0  0  0  0  0  0  0  0  0  0  0
    7.2534    2.7422    0.0000 O   0  0  0  0  0  0  0  0  0  0  0  0
    4.6627    2.9375    0.0000 C   0  0  0  0  0  0  0  0  0  0  0  0
    3.3109    2.2873    0.0000 C   0  0  0  0  0  0  0  0  0  0  0  0
    3.1981    0.7916    0.0000 C   0  0  0  0  0  0  0  0  0  0  0  0
    1.9591    1.6371    0.0000 C   0  0  0  0  0  0  0  0  0  0  0  0
    1.8464    0.1414    0.0000 C   0  0  0  0  0  0  0  0  0  0  0  0
    0.6074    0.9869    0.0000 C   0  0  0  0  0  0  0  0  0  0  0  0
   -0.7444    0.3367    0.0000 C   0  0  0  0  0  0  0  0  0  0  0  0
   -1.9833    1.1823    0.0000 O   0  0  0  0  0  0  0  0  0  0  0  0
   -0.8572   -1.1590    0.0000 C   0  0  0  0  0  0  0  0  0  0  0  0
   -2.1777   -0.4476    0.0000 C   0  0  0  0  0  0  0  0  0  0  0  0
  1  2  1  0
  2  3  1  0
  3  4  2  0
  3  5  1  0
  5  6  1  0
  6  7  1  0
  7  8  1  6
  7  9  1  0
  9 10  1  6
 10 11  1  0
 12 11  1  6
 12 13  1  0
 13 14  1  1
 14 15  1  1
 14 16  1  0
 17 16  1  6
 17 18  1  0
 18 19  1  0
 19 20  2  0
 19 21  1  0
 21 22  1  0
 22 23  1  0
 23 24  1  6
 23 25  1  0
 25 26  1  6
 26 27  1  0
 27 28  1  1
 27 29  1  0
 29 30  1  6
 29  9  1  0
 29 12  1  0
 25 13  1  0
 23 17  1  0
M  END
>  <MS_ID>  (3776) 
MS4293

>  <SMILES>  (3776) 
COC(=O)CC[C@@H](C)[C@H]1CC[C@H]2[C@@H]3[C@H](O)C[C@H]4CC(=O)CC[C@]4(C)[C@H]3C[C@H](O)[C@]12C

>  <Structure_dimension>  (3776) 
2D

$$$$
MS4295
     RDKit          2D

 31 34  0  0  0  0  0  0  0  0999 V2000
   -3.0989   -3.6972    0.0000 C   0  0  0  0  0  0  0  0  0  0  0  0
   -2.1883   -2.5051    0.0000 C   0  0  0  0  0  0  0  0  0  0  0  0
   -2.7654   -1.1206    0.0000 C   0  0  0  0  0  0  0  0  0  0  0  0
   -4.2530   -0.9280    0.0000 C   0  0  0  0  0  0  0  0  0  0  0  0
   -4.8300    0.4565    0.0000 C   0  0  0  0  0  0  0  0  0  0  0  0
   -3.9195    1.6486    0.0000 O   0  0  0  0  0  0  0  0  0  0  0  0
   -6.3176    0.6491    0.0000 N   0  0  0  0  0  0  0  0  0  0  0  0
   -6.8947    2.0336    0.0000 C   0  0  0  0  0  0  0  0  0  0  0  0
   -8.3823    2.2261    0.0000 C   0  0  0  0  0  0  0  0  0  0  0  0
   -9.2928    1.0341    0.0000 O   0  0  0  0  0  0  0  0  0  0  0  0
   -8.9593    3.6107    0.0000 O   0  0  0  0  0  0  0  0  0  0  0  0
   -0.7007   -2.6977    0.0000 C   0  0  0  0  0  0  0  0  0  0  0  0
    0.0179   -4.0143    0.0000 C   0  0  0  0  0  0  0  0  0  0  0  0
    1.4922   -3.7377    0.0000 C   0  0  0  0  0  0  0  0  0  0  0  0
    1.6847   -2.2501    0.0000 C   0  0  0  0  0  0  0  0  0  0  0  0
    2.9190   -1.3978    0.0000 C   0  0  0  0  0  0  0  0  0  0  0  0
    4.2743   -2.0406    0.0000 C   0  0  0  0  0  0  0  0  0  0  0  0
    5.5086   -1.1883    0.0000 C   0  0  0  0  0  0  0  0  0  0  0  0
    5.3877    0.3068    0.0000 C   0  0  0  0  0  0  0  0  0  0  0  0
    6.6220    1.1591    0.0000 C   0  0  0  0  0  0  0  0  0  0  0  0
    6.5010    2.6542    0.0000 C   0  0  0  0  0  0  0  0  0  0  0  0
    7.7354    3.5066    0.0000 O   0  0  0  0  0  0  0  0  0  0  0  0
    5.1457    3.2970    0.0000 C   0  0  0  0  0  0  0  0  0  0  0  0
    3.9114    2.4447    0.0000 C   0  0  0  0  0  0  0  0  0  0  0  0
    4.0324    0.9496    0.0000 C   0  0  0  0  0  0  0  0  0  0  0  0
    2.6771    1.5924    0.0000 C   0  0  0  0  0  0  0  0  0  0  0  0
    2.7981    0.0973    0.0000 C   0  0  0  0  0  0  0  0  0  0  0  0
    1.4428    0.7401    0.0000 C   0  0  0  0  0  0  0  0  0  0  0  0
    0.2084   -0.1122    0.0000 C   0  0  0  0  0  0  0  0  0  0  0  0
    0.3294   -1.6073    0.0000 C   0  0  0  0  0  0  0  0  0  0  0  0
   -1.0856   -1.1097    0.0000 C   0  0  0  0  0  0  0  0  0  0  0  0
  2  1  1  6
  2  3  1  0
  3  4  1  0
  4  5  1  0
  5  6  2  0
  5  7  1  0
  7  8  1  0
  8  9  1  0
  9 10  2  0
  9 11  1  0
  2 12  1  0
 12 13  1  6
 13 14  1  0
 15 14  1  6
 15 16  1  0
 16 17  1  1
 17 18  1  0
 19 18  1  6
 19 20  1  0
 20 21  1  0
 21 22  1  6
 21 23  1  0
 23 24  1  0
 24 25  1  0
 25 26  1  6
 25 27  1  0
 27 28  1  6
 28 29  1  0
 29 30  1  0
 30 31  1  6
 30 12  1  0
 30 15  1  0
 27 16  1  0
 25 19  1  0
M  END
>  <MS_ID>  (3777) 
MS4295

>  <SMILES>  (3777) 
C[C@H](CCC(=O)NCC(=O)O)[C@H]1CC[C@H]2[C@@H]3CC[C@H]4C[C@@H](O)CC[C@]4(C)[C@H]3CC[C@]12C

>  <Structure_dimension>  (3777) 
2D

$$$$
MS4297
     RDKit          2D

 32 35  0  0  0  0  0  0  0  0999 V2000
   -6.0659   -1.8985    0.0000 C   0  0  0  0  0  0  0  0  0  0  0  0
   -4.8404   -1.0335    0.0000 C   0  0  0  0  0  0  0  0  0  0  0  0
   -4.9767    0.4603    0.0000 C   0  0  0  0  0  0  0  0  0  0  0  0
   -6.3386    1.0891    0.0000 C   0  0  0  0  0  0  0  0  0  0  0  0
   -6.4749    2.5829    0.0000 C   0  0  0  0  0  0  0  0  0  0  0  0
   -5.2494    3.4479    0.0000 O   0  0  0  0  0  0  0  0  0  0  0  0
   -7.8367    3.2118    0.0000 O   0  0  0  0  0  0  0  0  0  0  0  0
   -3.4786   -1.6624    0.0000 C   0  0  0  0  0  0  0  0  0  0  0  0
   -3.1869   -3.1337    0.0000 C   0  0  0  0  0  0  0  0  0  0  0  0
   -1.6974   -3.3110    0.0000 C   0  0  0  0  0  0  0  0  0  0  0  0
   -1.0686   -1.9492    0.0000 C   0  0  0  0  0  0  0  0  0  0  0  0
    0.3642   -1.5053    0.0000 C   0  0  0  0  0  0  0  0  0  0  0  0
    1.4651   -2.5242    0.0000 C   0  0  0  0  0  0  0  0  0  0  0  0
    1.1331   -3.9870    0.0000 O   0  0  0  0  0  0  0  0  0  0  0  0
    2.8979   -2.0803    0.0000 C   0  0  0  0  0  0  0  0  0  0  0  0
    3.2299   -0.6175    0.0000 C   0  0  0  0  0  0  0  0  0  0  0  0
    4.6627   -0.1735    0.0000 C   0  0  0  0  0  0  0  0  0  0  0  0
    4.9946    1.2893    0.0000 C   0  0  0  0  0  0  0  0  0  0  0  0
    6.4275    1.7332    0.0000 O   0  0  0  0  0  0  0  0  0  0  0  0
    7.5283    0.7143    0.0000 C   0  0  0  0  0  0  0  0  0  0  0  0
    8.9611    1.1582    0.0000 C   0  0  0  0  0  0  0  0  0  0  0  0
   10.0619    0.1393    0.0000 O   0  0  0  0  0  0  0  0  0  0  0  0
    3.8938    2.3082    0.0000 C   0  0  0  0  0  0  0  0  0  0  0  0
    2.4610    1.8643    0.0000 C   0  0  0  0  0  0  0  0  0  0  0  0
    2.1290    0.4014    0.0000 C   0  0  0  0  0  0  0  0  0  0  0  0
    1.0282    1.4203    0.0000 C   0  0  0  0  0  0  0  0  0  0  0  0
    0.6962   -0.0425    0.0000 C   0  0  0  0  0  0  0  0  0  0  0  0
   -0.4046    0.9764    0.0000 C   0  0  0  0  0  0  0  0  0  0  0  0
   -1.8374    0.5325    0.0000 C   0  0  0  0  0  0  0  0  0  0  0  0
   -2.9383    1.5514    0.0000 O   0  0  0  0  0  0  0  0  0  0  0  0
   -2.1694   -0.9303    0.0000 C   0  0  0  0  0  0  0  0  0  0  0  0
   -3.3707   -0.0320    0.0000 C   0  0  0  0  0  0  0  0  0  0  0  0
  2  1  1  6
  2  3  1  0
  3  4  1  0
  4  5  1  0
  5  6  2  0
  5  7  1  0
  2  8  1  0
  8  9  1  6
  9 10  1  0
 11 10  1  6
 11 12  1  0
 12 13  1  1
 13 14  1  1
 13 15  1  0
 16 15  1  1
 16 17  1  0
 17 18  1  0
 18 19  1  6
 19 20  1  0
 20 21  1  0
 21 22  1  0
 18 23  1  0
 23 24  1  0
 24 25  1  0
 25 26  1  6
 25 27  1  0
 27 28  1  6
 28 29  1  0
 29 30  1  1
 29 31  1  0
 31 32  1  6
 31  8  1  0
 31 11  1  0
 27 12  1  0
 25 16  1  0
M  END
>  <MS_ID>  (3778) 
MS4297

>  <SMILES>  (3778) 
C[C@H](CCC(=O)O)[C@H]1CC[C@H]2[C@@H]3[C@H](O)C[C@@H]4C[C@@H](OCCO)CC[C@]4(C)[C@H]3C[C@H](O)[C@]12C

>  <Structure_dimension>  (3778) 
2D

$$$$
MS4302
     RDKit          2D

 28 31  0  0  0  0  0  0  0  0999 V2000
   -5.1275   -2.0302    0.0000 C   0  0  0  0  0  0  0  0  0  0  0  0
   -3.9468   -1.1050    0.0000 C   0  0  0  0  0  0  0  0  0  0  0  0
   -4.1576    0.3801    0.0000 C   0  0  0  0  0  0  0  0  0  0  0  0
   -5.5492    0.9401    0.0000 C   0  0  0  0  0  0  0  0  0  0  0  0
   -5.7600    2.4252    0.0000 C   0  0  0  0  0  0  0  0  0  0  0  0
   -4.5793    3.3503    0.0000 O   0  0  0  0  0  0  0  0  0  0  0  0
   -7.1516    2.9851    0.0000 O   0  0  0  0  0  0  0  0  0  0  0  0
   -2.5552   -1.6650    0.0000 C   0  0  0  0  0  0  0  0  0  0  0  0
   -2.1903   -3.1199    0.0000 C   0  0  0  0  0  0  0  0  0  0  0  0
   -0.6938   -3.2225    0.0000 C   0  0  0  0  0  0  0  0  0  0  0  0
   -0.1339   -1.8309    0.0000 C   0  0  0  0  0  0  0  0  0  0  0  0
    1.2750   -1.3159    0.0000 C   0  0  0  0  0  0  0  0  0  0  0  0
    2.4254   -2.2785    0.0000 C   0  0  0  0  0  0  0  0  0  0  0  0
    2.1670   -3.7560    0.0000 O   0  0  0  0  0  0  0  0  0  0  0  0
    3.8342   -1.7635    0.0000 C   0  0  0  0  0  0  0  0  0  0  0  0
    4.0926   -0.2859    0.0000 C   0  0  0  0  0  0  0  0  0  0  0  0
    5.5014    0.2291    0.0000 C   0  0  0  0  0  0  0  0  0  0  0  0
    5.7598    1.7067    0.0000 C   0  0  0  0  0  0  0  0  0  0  0  0
    7.1687    2.2217    0.0000 O   0  0  0  0  0  0  0  0  0  0  0  0
    4.6094    2.6692    0.0000 C   0  0  0  0  0  0  0  0  0  0  0  0
    3.2006    2.1542    0.0000 C   0  0  0  0  0  0  0  0  0  0  0  0
    2.9422    0.6767    0.0000 C   0  0  0  0  0  0  0  0  0  0  0  0
    1.7918    1.6392    0.0000 C   0  0  0  0  0  0  0  0  0  0  0  0
    1.5334    0.1617    0.0000 C   0  0  0  0  0  0  0  0  0  0  0  0
    0.3830    1.1242    0.0000 C   0  0  0  0  0  0  0  0  0  0  0  0
   -1.0259    0.6093    0.0000 C   0  0  0  0  0  0  0  0  0  0  0  0
   -1.2843   -0.8683    0.0000 C   0  0  0  0  0  0  0  0  0  0  0  0
   -2.5290   -0.0313    0.0000 C   0  0  0  0  0  0  0  0  0  0  0  0
  2  1  1  6
  2  3  1  0
  3  4  1  0
  4  5  1  0
  5  6  2  0
  5  7  1  0
  2  8  1  0
  8  9  1  6
  9 10  1  0
 11 10  1  6
 11 12  1  0
 12 13  1  6
 13 14  1  6
 13 15  1  0
 16 15  1  1
 16 17  1  0
 17 18  1  0
 18 19  1  1
 18 20  1  0
 20 21  1  0
 21 22  1  0
 22 23  1  6
 22 24  1  0
 24 25  1  6
 25 26  1  0
 26 27  1  0
 27 28  1  6
 27  8  1  0
 27 11  1  0
 24 12  1  0
 22 16  1  0
M  END
>  <MS_ID>  (3779) 
MS4302

>  <SMILES>  (3779) 
C[C@H](CCC(=O)O)[C@H]1CC[C@H]2[C@H]3[C@@H](O)C[C@@H]4C[C@H](O)CC[C@]4(C)[C@H]3CC[C@]12C

>  <Structure_dimension>  (3779) 
2D

$$$$
MS4303
     RDKit          2D

 28 31  0  0  0  0  0  0  0  0999 V2000
   -4.6340   -2.3524    0.0000 C   0  0  0  0  0  0  0  0  0  0  0  0
   -3.5242   -1.3434    0.0000 C   0  0  0  0  0  0  0  0  0  0  0  0
   -3.8431    0.1223    0.0000 C   0  0  0  0  0  0  0  0  0  0  0  0
   -5.2720    0.5789    0.0000 C   0  0  0  0  0  0  0  0  0  0  0  0
   -5.5909    2.0446    0.0000 C   0  0  0  0  0  0  0  0  0  0  0  0
   -4.4811    3.0537    0.0000 O   0  0  0  0  0  0  0  0  0  0  0  0
   -7.0197    2.5012    0.0000 O   0  0  0  0  0  0  0  0  0  0  0  0
   -2.0954   -1.8000    0.0000 C   0  0  0  0  0  0  0  0  0  0  0  0
   -1.6249   -3.2243    0.0000 C   0  0  0  0  0  0  0  0  0  0  0  0
   -0.1249   -3.2170    0.0000 C   0  0  0  0  0  0  0  0  0  0  0  0
    0.3317   -1.7882    0.0000 C   0  0  0  0  0  0  0  0  0  0  0  0
    1.6990   -1.1715    0.0000 C   0  0  0  0  0  0  0  0  0  0  0  0
    2.9168   -2.0473    0.0000 C   0  0  0  0  0  0  0  0  0  0  0  0
    2.7672   -3.5398    0.0000 O   0  0  0  0  0  0  0  0  0  0  0  0
    4.2841   -1.4305    0.0000 C   0  0  0  0  0  0  0  0  0  0  0  0
    4.4337    0.0620    0.0000 C   0  0  0  0  0  0  0  0  0  0  0  0
    5.8011    0.6787    0.0000 C   0  0  0  0  0  0  0  0  0  0  0  0
    5.9506    2.1713    0.0000 C   0  0  0  0  0  0  0  0  0  0  0  0
    4.7328    3.0471    0.0000 C   0  0  0  0  0  0  0  0  0  0  0  0
    3.3655    2.4303    0.0000 C   0  0  0  0  0  0  0  0  0  0  0  0
    3.2159    0.9378    0.0000 C   0  0  0  0  0  0  0  0  0  0  0  0
    1.9981    1.8136    0.0000 C   0  0  0  0  0  0  0  0  0  0  0  0
    1.8486    0.3211    0.0000 C   0  0  0  0  0  0  0  0  0  0  0  0
    0.6308    1.1968    0.0000 C   0  0  0  0  0  0  0  0  0  0  0  0
   -0.7366    0.5801    0.0000 C   0  0  0  0  0  0  0  0  0  0  0  0
   -1.9543    1.4559    0.0000 O   0  0  0  0  0  0  0  0  0  0  0  0
   -0.8861   -0.9124    0.0000 C   0  0  0  0  0  0  0  0  0  0  0  0
   -2.1888   -0.1687    0.0000 C   0  0  0  0  0  0  0  0  0  0  0  0
  2  1  1  6
  2  3  1  0
  3  4  1  0
  4  5  1  0
  5  6  2  0
  5  7  1  0
  2  8  1  0
  8  9  1  6
  9 10  1  0
 11 10  1  6
 11 12  1  0
 12 13  1  6
 13 14  1  6
 13 15  1  0
 16 15  1  1
 16 17  1  0
 17 18  1  0
 18 19  1  0
 19 20  1  0
 20 21  1  0
 21 22  1  6
 21 23  1  0
 23 24  1  6
 24 25  1  0
 25 26  1  1
 25 27  1  0
 27 28  1  6
 27  8  1  0
 27 11  1  0
 23 12  1  0
 21 16  1  0
M  END
>  <MS_ID>  (3780) 
MS4303

>  <SMILES>  (3780) 
C[C@H](CCC(=O)O)[C@H]1CC[C@H]2[C@H]3[C@@H](O)C[C@@H]4CCCC[C@]4(C)[C@H]3C[C@H](O)[C@]12C

>  <Structure_dimension>  (3780) 
2D

$$$$
MS4304
     RDKit          2D

 31 34  0  0  0  0  0  0  0  0999 V2000
    7.6696   -3.5358    0.0000 C   0  0  0  0  0  0  0  0  0  0  0  0
    7.3085   -2.0799    0.0000 O   0  0  0  0  0  0  0  0  0  0  0  0
    5.8671   -1.6646    0.0000 C   0  0  0  0  0  0  0  0  0  0  0  0
    4.7868   -2.7053    0.0000 O   0  0  0  0  0  0  0  0  0  0  0  0
    5.5060   -0.2087    0.0000 C   0  0  0  0  0  0  0  0  0  0  0  0
    4.0646    0.2065    0.0000 C   0  0  0  0  0  0  0  0  0  0  0  0
    3.7035    1.6624    0.0000 C   0  0  0  0  0  0  0  0  0  0  0  0
    4.7838    2.7030    0.0000 C   0  0  0  0  0  0  0  0  0  0  0  0
    2.2621    2.0776    0.0000 C   0  0  0  0  0  0  0  0  0  0  0  0
    1.7508    3.4878    0.0000 C   0  0  0  0  0  0  0  0  0  0  0  0
    0.2517    3.4373    0.0000 C   0  0  0  0  0  0  0  0  0  0  0  0
   -0.1635    1.9959    0.0000 C   0  0  0  0  0  0  0  0  0  0  0  0
   -1.5125    1.3400    0.0000 C   0  0  0  0  0  0  0  0  0  0  0  0
   -2.7551    2.1803    0.0000 C   0  0  0  0  0  0  0  0  0  0  0  0
   -2.6486    3.6765    0.0000 O   0  0  0  0  0  0  0  0  0  0  0  0
   -4.1041    1.5244    0.0000 C   0  0  0  0  0  0  0  0  0  0  0  0
   -4.2105    0.0282    0.0000 C   0  0  0  0  0  0  0  0  0  0  0  0
   -5.5595   -0.6277    0.0000 C   0  0  0  0  0  0  0  0  0  0  0  0
   -6.8020    0.2126    0.0000 O   0  0  0  0  0  0  0  0  0  0  0  0
   -5.6660   -2.1239    0.0000 C   0  0  0  0  0  0  0  0  0  0  0  0
   -7.0150   -2.7798    0.0000 O   0  0  0  0  0  0  0  0  0  0  0  0
   -4.4235   -2.9643    0.0000 C   0  0  0  0  0  0  0  0  0  0  0  0
   -3.0745   -2.3084    0.0000 C   0  0  0  0  0  0  0  0  0  0  0  0
   -2.9680   -0.8121    0.0000 C   0  0  0  0  0  0  0  0  0  0  0  0
   -1.7255   -1.6525    0.0000 C   0  0  0  0  0  0  0  0  0  0  0  0
   -1.6190   -0.1562    0.0000 C   0  0  0  0  0  0  0  0  0  0  0  0
   -0.3765   -0.9966    0.0000 C   0  0  0  0  0  0  0  0  0  0  0  0
    0.9725   -0.3407    0.0000 C   0  0  0  0  0  0  0  0  0  0  0  0
    2.2150   -1.1810    0.0000 O   0  0  0  0  0  0  0  0  0  0  0  0
    1.0790    1.1556    0.0000 C   0  0  0  0  0  0  0  0  0  0  0  0
    2.4025    0.4497    0.0000 C   0  0  0  0  0  0  0  0  0  0  0  0
  1  2  1  0
  2  3  1  0
  3  4  2  0
  3  5  1  0
  5  6  1  0
  6  7  1  0
  7  8  1  6
  7  9  1  0
  9 10  1  6
 10 11  1  0
 12 11  1  6
 12 13  1  0
 13 14  1  1
 14 15  1  1
 14 16  1  0
 17 16  1  1
 17 18  1  0
 18 19  1  6
 18 20  1  0
 20 21  1  6
 20 22  1  0
 22 23  1  0
 23 24  1  0
 24 25  1  6
 24 26  1  0
 26 27  1  6
 27 28  1  0
 28 29  1  1
 28 30  1  0
 30 31  1  6
 30  9  1  0
 30 12  1  0
 26 13  1  0
 24 17  1  0
M  END
>  <MS_ID>  (3781) 
MS4304

>  <SMILES>  (3781) 
COC(=O)CC[C@@H](C)[C@H]1CC[C@H]2[C@@H]3[C@H](O)C[C@@H]4[C@@H](O)[C@@H](O)CC[C@]4(C)[C@H]3C[C@H](O)[C@]12C

>  <Structure_dimension>  (3781) 
2D

$$$$
MS4305
     RDKit          2D

 32 35  0  0  0  0  0  0  0  0999 V2000
   -2.9090   -3.9078    0.0000 C   0  0  0  0  0  0  0  0  0  0  0  0
   -2.0926   -2.6494    0.0000 C   0  0  0  0  0  0  0  0  0  0  0  0
   -2.7741   -1.3132    0.0000 C   0  0  0  0  0  0  0  0  0  0  0  0
   -4.2721   -1.2353    0.0000 C   0  0  0  0  0  0  0  0  0  0  0  0
   -4.9536    0.1009    0.0000 C   0  0  0  0  0  0  0  0  0  0  0  0
   -4.1372    1.3592    0.0000 O   0  0  0  0  0  0  0  0  0  0  0  0
   -6.4516    0.1788    0.0000 N   0  0  0  0  0  0  0  0  0  0  0  0
   -7.1332    1.5150    0.0000 C   0  0  0  0  0  0  0  0  0  0  0  0
   -8.6311    1.5929    0.0000 C   0  0  0  0  0  0  0  0  0  0  0  0
   -9.3127    2.9291    0.0000 C   0  0  0  0  0  0  0  0  0  0  0  0
  -10.8107    3.0070    0.0000 O   0  0  0  0  0  0  0  0  0  0  0  0
   -0.5946   -2.7273    0.0000 C   0  0  0  0  0  0  0  0  0  0  0  0
    0.2229   -3.9850    0.0000 C   0  0  0  0  0  0  0  0  0  0  0  0
    1.6716   -3.5962    0.0000 C   0  0  0  0  0  0  0  0  0  0  0  0
    1.7495   -2.0982    0.0000 C   0  0  0  0  0  0  0  0  0  0  0  0
    2.9148   -1.1537    0.0000 C   0  0  0  0  0  0  0  0  0  0  0  0
    4.3154   -1.6907    0.0000 C   0  0  0  0  0  0  0  0  0  0  0  0
    4.5507   -3.1721    0.0000 O   0  0  0  0  0  0  0  0  0  0  0  0
    5.4807   -0.7462    0.0000 C   0  0  0  0  0  0  0  0  0  0  0  0
    5.2455    0.7352    0.0000 C   0  0  0  0  0  0  0  0  0  0  0  0
    6.4108    1.6797    0.0000 C   0  0  0  0  0  0  0  0  0  0  0  0
    6.1755    3.1611    0.0000 C   0  0  0  0  0  0  0  0  0  0  0  0
    7.3408    4.1056    0.0000 O   0  0  0  0  0  0  0  0  0  0  0  0
    4.7749    3.6981    0.0000 C   0  0  0  0  0  0  0  0  0  0  0  0
    3.6096    2.7536    0.0000 C   0  0  0  0  0  0  0  0  0  0  0  0
    3.8449    1.2722    0.0000 C   0  0  0  0  0  0  0  0  0  0  0  0
    2.4443    1.8091    0.0000 C   0  0  0  0  0  0  0  0  0  0  0  0
    2.6795    0.3277    0.0000 C   0  0  0  0  0  0  0  0  0  0  0  0
    1.2789    0.8647    0.0000 C   0  0  0  0  0  0  0  0  0  0  0  0
    0.1136   -0.0798    0.0000 C   0  0  0  0  0  0  0  0  0  0  0  0
    0.3489   -1.5612    0.0000 C   0  0  0  0  0  0  0  0  0  0  0  0
   -1.1002   -1.1736    0.0000 C   0  0  0  0  0  0  0  0  0  0  0  0
  2  1  1  6
  2  3  1  0
  3  4  1  0
  4  5  1  0
  5  6  2  0
  5  7  1  0
  7  8  1  0
  8  9  1  0
  9 10  1  0
 10 11  1  0
  2 12  1  0
 12 13  1  6
 13 14  1  0
 15 14  1  6
 15 16  1  0
 16 17  1  1
 17 18  1  6
 17 19  1  0
 20 19  1  1
 20 21  1  0
 21 22  1  0
 22 23  1  1
 22 24  1  0
 24 25  1  0
 25 26  1  0
 26 27  1  6
 26 28  1  0
 28 29  1  6
 29 30  1  0
 30 31  1  0
 31 32  1  6
 31 12  1  0
 31 15  1  0
 28 16  1  0
 26 20  1  0
M  END
>  <MS_ID>  (3782) 
MS4305

>  <SMILES>  (3782) 
C[C@H](CCC(=O)NCCCO)[C@H]1CC[C@H]2[C@@H]3[C@@H](O)C[C@@H]4C[C@H](O)CC[C@]4(C)[C@H]3CC[C@]12C

>  <Structure_dimension>  (3782) 
2D

$$$$
MS4311
     RDKit          2D

 32 35  0  0  0  0  0  0  0  0999 V2000
   -5.1569   -2.5516    0.0000 C   0  0  0  0  0  0  0  0  0  0  0  0
   -4.1971   -1.3989    0.0000 C   0  0  0  0  0  0  0  0  0  0  0  0
   -4.7155    0.0087    0.0000 C   0  0  0  0  0  0  0  0  0  0  0  0
   -6.1937    0.2635    0.0000 C   0  0  0  0  0  0  0  0  0  0  0  0
   -6.7121    1.6711    0.0000 C   0  0  0  0  0  0  0  0  0  0  0  0
   -5.7523    2.8238    0.0000 O   0  0  0  0  0  0  0  0  0  0  0  0
   -8.1903    1.9259    0.0000 O   0  0  0  0  0  0  0  0  0  0  0  0
   -2.7189   -1.6538    0.0000 C   0  0  0  0  0  0  0  0  0  0  0  0
   -2.0562   -2.9994    0.0000 C   0  0  0  0  0  0  0  0  0  0  0  0
   -0.5716   -2.7850    0.0000 C   0  0  0  0  0  0  0  0  0  0  0  0
   -0.3168   -1.3068    0.0000 C   0  0  0  0  0  0  0  0  0  0  0  0
    0.9523   -0.5071    0.0000 C   0  0  0  0  0  0  0  0  0  0  0  0
    2.2794   -1.2062    0.0000 C   0  0  0  0  0  0  0  0  0  0  0  0
    2.3374   -2.7051    0.0000 O   0  0  0  0  0  0  0  0  0  0  0  0
    3.6645   -3.4043    0.0000 P   0  0  0  0  0  0  0  0  0  0  0  0
    2.9654   -4.7314    0.0000 O   0  0  0  0  0  0  0  0  0  0  0  0
    4.3637   -2.0772    0.0000 O   0  0  0  0  0  0  0  0  0  0  0  0
    4.9916   -4.1034    0.0000 O   0  0  0  0  0  0  0  0  0  0  0  0
    3.5484   -0.4065    0.0000 C   0  0  0  0  0  0  0  0  0  0  0  0
    3.4903    1.0923    0.0000 C   0  0  0  0  0  0  0  0  0  0  0  0
    4.7594    1.8921    0.0000 C   0  0  0  0  0  0  0  0  0  0  0  0
    4.7013    3.3909    0.0000 C   0  0  0  0  0  0  0  0  0  0  0  0
    5.9703    4.1907    0.0000 O   0  0  0  0  0  0  0  0  0  0  0  0
    3.3742    4.0901    0.0000 C   0  0  0  0  0  0  0  0  0  0  0  0
    2.1052    3.2904    0.0000 C   0  0  0  0  0  0  0  0  0  0  0  0
    2.1632    1.7915    0.0000 C   0  0  0  0  0  0  0  0  0  0  0  0
    0.8361    2.4907    0.0000 C   0  0  0  0  0  0  0  0  0  0  0  0
    0.8942    0.9918    0.0000 C   0  0  0  0  0  0  0  0  0  0  0  0
   -0.4329    1.6909    0.0000 C   0  0  0  0  0  0  0  0  0  0  0  0
   -1.7019    0.8912    0.0000 C   0  0  0  0  0  0  0  0  0  0  0  0
   -1.6439   -0.6077    0.0000 C   0  0  0  0  0  0  0  0  0  0  0  0
   -3.0368   -0.0511    0.0000 C   0  0  0  0  0  0  0  0  0  0  0  0
  2  1  1  6
  2  3  1  0
  3  4  1  0
  4  5  1  0
  5  6  2  0
  5  7  1  0
  2  8  1  0
  8  9  1  6
  9 10  1  0
 11 10  1  6
 11 12  1  0
 12 13  1  1
 13 14  1  6
 14 15  1  0
 15 16  2  0
 15 17  1  0
 15 18  1  0
 13 19  1  0
 20 19  1  1
 20 21  1  0
 21 22  1  0
 22 23  1  1
 22 24  1  0
 24 25  1  0
 25 26  1  0
 26 27  1  6
 26 28  1  0
 28 29  1  6
 29 30  1  0
 30 31  1  0
 31 32  1  6
 31  8  1  0
 31 11  1  0
 28 12  1  0
 26 20  1  0
M  END
>  <MS_ID>  (3783) 
MS4311

>  <SMILES>  (3783) 
C[C@H](CCC(=O)O)[C@H]1CC[C@H]2[C@@H]3[C@@H](OP(=O)(O)O)C[C@@H]4C[C@H](O)CC[C@]4(C)[C@H]3CC[C@]12C

>  <Structure_dimension>  (3783) 
2D

$$$$
MS4312
     RDKit          2D

 29 32  0  0  0  0  0  0  0  0999 V2000
   -5.2182   -2.1453    0.0000 C   0  0  0  0  0  0  0  0  0  0  0  0
   -4.0752   -1.1739    0.0000 C   0  0  0  0  0  0  0  0  0  0  0  0
   -4.3449    0.3016    0.0000 C   0  0  0  0  0  0  0  0  0  0  0  0
   -5.7577    0.8058    0.0000 C   0  0  0  0  0  0  0  0  0  0  0  0
   -6.0274    2.2814    0.0000 C   0  0  0  0  0  0  0  0  0  0  0  0
   -4.8843    3.2527    0.0000 O   0  0  0  0  0  0  0  0  0  0  0  0
   -7.4401    2.7856    0.0000 O   0  0  0  0  0  0  0  0  0  0  0  0
   -2.6625   -1.6782    0.0000 C   0  0  0  0  0  0  0  0  0  0  0  0
   -2.2400   -3.1174    0.0000 C   0  0  0  0  0  0  0  0  0  0  0  0
   -0.7407   -3.1604    0.0000 C   0  0  0  0  0  0  0  0  0  0  0  0
   -0.2364   -1.7477    0.0000 C   0  0  0  0  0  0  0  0  0  0  0  0
    1.1508   -1.1771    0.0000 C   0  0  0  0  0  0  0  0  0  0  0  0
    2.3386   -2.0932    0.0000 C   0  0  0  0  0  0  0  0  0  0  0  0
    2.1391   -3.5798    0.0000 F   0  0  0  0  0  0  0  0  0  0  0  0
    3.7258   -1.5226    0.0000 C   0  0  0  0  0  0  0  0  0  0  0  0
    4.9136   -2.4386    0.0000 O   0  0  0  0  0  0  0  0  0  0  0  0
    3.9253   -0.0359    0.0000 C   0  0  0  0  0  0  0  0  0  0  0  0
    5.3125    0.5347    0.0000 C   0  0  0  0  0  0  0  0  0  0  0  0
    5.5119    2.0214    0.0000 C   0  0  0  0  0  0  0  0  0  0  0  0
    6.8992    2.5920    0.0000 O   0  0  0  0  0  0  0  0  0  0  0  0
    4.3242    2.9375    0.0000 C   0  0  0  0  0  0  0  0  0  0  0  0
    2.9369    2.3669    0.0000 C   0  0  0  0  0  0  0  0  0  0  0  0
    2.7375    0.8802    0.0000 C   0  0  0  0  0  0  0  0  0  0  0  0
    1.5497    1.7963    0.0000 C   0  0  0  0  0  0  0  0  0  0  0  0
    1.3502    0.3096    0.0000 C   0  0  0  0  0  0  0  0  0  0  0  0
    0.1625    1.2257    0.0000 C   0  0  0  0  0  0  0  0  0  0  0  0
   -1.2248    0.6551    0.0000 C   0  0  0  0  0  0  0  0  0  0  0  0
   -1.4242   -0.8316    0.0000 C   0  0  0  0  0  0  0  0  0  0  0  0
   -2.7012   -0.0447    0.0000 C   0  0  0  0  0  0  0  0  0  0  0  0
  2  1  1  6
  2  3  1  0
  3  4  1  0
  4  5  1  0
  5  6  2  0
  5  7  1  0
  2  8  1  0
  8  9  1  6
  9 10  1  0
 11 10  1  6
 11 12  1  0
 12 13  1  1
 13 14  1  1
 13 15  1  0
 15 16  1  1
 15 17  1  0
 17 18  1  1
 18 19  1  0
 19 20  1  1
 19 21  1  0
 21 22  1  0
 22 23  1  0
 23 24  1  6
 23 25  1  0
 25 26  1  6
 26 27  1  0
 27 28  1  0
 28 29  1  6
 28  8  1  0
 28 11  1  0
 25 12  1  0
 23 17  1  0
M  END
>  <MS_ID>  (3784) 
MS4312

>  <SMILES>  (3784) 
C[C@H](CCC(=O)O)[C@H]1CC[C@H]2[C@@H]3[C@H](F)[C@H](O)[C@@H]4C[C@H](O)CC[C@]4(C)[C@H]3CC[C@]12C

>  <Structure_dimension>  (3784) 
2D

$$$$
MS4314
     RDKit          2D

 29 32  0  0  0  0  0  0  0  0999 V2000
   -5.0303   -2.1373    0.0000 C   0  0  0  0  0  0  0  0  0  0  0  0
   -3.8594   -1.1998    0.0000 C   0  0  0  0  0  0  0  0  0  0  0  0
   -4.0858    0.2830    0.0000 C   0  0  0  0  0  0  0  0  0  0  0  0
   -5.4831    0.8284    0.0000 C   0  0  0  0  0  0  0  0  0  0  0  0
   -5.7095    2.3112    0.0000 C   0  0  0  0  0  0  0  0  0  0  0  0
   -4.5386    3.2487    0.0000 O   0  0  0  0  0  0  0  0  0  0  0  0
   -7.1069    2.8565    0.0000 O   0  0  0  0  0  0  0  0  0  0  0  0
   -2.4620   -1.7451    0.0000 C   0  0  0  0  0  0  0  0  0  0  0  0
   -2.0818   -3.1961    0.0000 C   0  0  0  0  0  0  0  0  0  0  0  0
   -0.5844   -3.2830    0.0000 C   0  0  0  0  0  0  0  0  0  0  0  0
   -0.0390   -1.8856    0.0000 C   0  0  0  0  0  0  0  0  0  0  0  0
    1.3643   -1.3559    0.0000 C   0  0  0  0  0  0  0  0  0  0  0  0
    2.5248   -2.3063    0.0000 C   0  0  0  0  0  0  0  0  0  0  0  0
    2.2819   -3.7865    0.0000 O   0  0  0  0  0  0  0  0  0  0  0  0
    3.9281   -1.7765    0.0000 C   0  0  0  0  0  0  0  0  0  0  0  0
    4.1710   -0.2963    0.0000 C   0  0  0  0  0  0  0  0  0  0  0  0
    5.5743    0.2334    0.0000 C   0  0  0  0  0  0  0  0  0  0  0  0
    5.8172    1.7136    0.0000 C   0  0  0  0  0  0  0  0  0  0  0  0
    7.2205    2.2434    0.0000 O   0  0  0  0  0  0  0  0  0  0  0  0
    4.6568    2.6641    0.0000 C   0  0  0  0  0  0  0  0  0  0  0  0
    3.2534    2.1343    0.0000 C   0  0  0  0  0  0  0  0  0  0  0  0
    3.0105    0.6541    0.0000 C   0  0  0  0  0  0  0  0  0  0  0  0
    1.8501    1.6046    0.0000 C   0  0  0  0  0  0  0  0  0  0  0  0
    1.6072    0.1244    0.0000 C   0  0  0  0  0  0  0  0  0  0  0  0
    0.4467    1.0748    0.0000 C   0  0  0  0  0  0  0  0  0  0  0  0
   -0.9566    0.5450    0.0000 C   0  0  0  0  0  0  0  0  0  0  0  0
   -2.1170    1.4955    0.0000 O   0  0  0  0  0  0  0  0  0  0  0  0
   -1.1995   -0.9352    0.0000 C   0  0  0  0  0  0  0  0  0  0  0  0
   -2.4529   -0.1112    0.0000 C   0  0  0  0  0  0  0  0  0  0  0  0
  2  1  1  6
  2  3  1  0
  3  4  1  0
  4  5  1  0
  5  6  2  0
  5  7  1  0
  2  8  1  0
  8  9  1  6
  9 10  1  0
 11 10  1  6
 11 12  1  0
 12 13  1  1
 13 14  2  0
 13 15  1  0
 16 15  1  6
 16 17  1  0
 17 18  1  0
 18 19  1  6
 18 20  1  0
 20 21  1  0
 21 22  1  0
 22 23  1  6
 22 24  1  0
 24 25  1  6
 25 26  1  0
 26 27  1  1
 26 28  1  0
 28 29  1  6
 28  8  1  0
 28 11  1  0
 24 12  1  0
 22 16  1  0
M  END
>  <MS_ID>  (3785) 
MS4314

>  <SMILES>  (3785) 
C[C@H](CCC(=O)O)[C@H]1CC[C@H]2[C@@H]3C(=O)C[C@H]4C[C@@H](O)CC[C@]4(C)[C@H]3C[C@H](O)[C@]12C

>  <Structure_dimension>  (3785) 
2D

$$$$
MS4315
     RDKit          2D

 35 38  0  0  0  0  0  0  0  0999 V2000
   -1.4169   -4.4023    0.0000 C   0  0  0  0  0  0  0  0  0  0  0  0
   -0.7063   -3.0813    0.0000 C   0  0  0  0  0  0  0  0  0  0  0  0
   -1.4950   -1.8054    0.0000 C   0  0  0  0  0  0  0  0  0  0  0  0
   -2.9944   -1.8505    0.0000 C   0  0  0  0  0  0  0  0  0  0  0  0
   -3.7831   -0.5746    0.0000 C   0  0  0  0  0  0  0  0  0  0  0  0
   -3.0725    0.7464    0.0000 O   0  0  0  0  0  0  0  0  0  0  0  0
   -5.2824   -0.6197    0.0000 N   0  0  0  0  0  0  0  0  0  0  0  0
   -6.0711    0.6562    0.0000 C   0  0  0  0  0  0  0  0  0  0  0  0
   -7.5704    0.6111    0.0000 C   0  0  0  0  0  0  0  0  0  0  0  0
   -8.3591    1.8870    0.0000 O   0  0  0  0  0  0  0  0  0  0  0  0
   -9.8585    1.8419    0.0000 S   0  0  0  0  0  0  0  0  0  0  0  0
   -9.8134    0.3426    0.0000 O   0  0  0  0  0  0  0  0  0  0  0  0
   -9.9036    3.3412    0.0000 O   0  0  0  0  0  0  0  0  0  0  0  0
  -11.3578    1.7968    0.0000 O   0  0  0  0  0  0  0  0  0  0  0  0
    0.7930   -3.0362    0.0000 C   0  0  0  0  0  0  0  0  0  0  0  0
    1.7108   -4.2227    0.0000 C   0  0  0  0  0  0  0  0  0  0  0  0
    3.1228   -3.7165    0.0000 C   0  0  0  0  0  0  0  0  0  0  0  0
    3.0777   -2.2172    0.0000 C   0  0  0  0  0  0  0  0  0  0  0  0
    4.1617   -1.1804    0.0000 C   0  0  0  0  0  0  0  0  0  0  0  0
    5.6016   -1.6009    0.0000 C   0  0  0  0  0  0  0  0  0  0  0  0
    6.6856   -0.5641    0.0000 C   0  0  0  0  0  0  0  0  0  0  0  0
    6.3298    0.8931    0.0000 C   0  0  0  0  0  0  0  0  0  0  0  0
    7.4138    1.9298    0.0000 C   0  0  0  0  0  0  0  0  0  0  0  0
    7.0580    3.3870    0.0000 C   0  0  0  0  0  0  0  0  0  0  0  0
    8.1420    4.4238    0.0000 O   0  0  0  0  0  0  0  0  0  0  0  0
    5.6181    3.8074    0.0000 C   0  0  0  0  0  0  0  0  0  0  0  0
    4.5341    2.7707    0.0000 C   0  0  0  0  0  0  0  0  0  0  0  0
    4.8899    1.3135    0.0000 C   0  0  0  0  0  0  0  0  0  0  0  0
    3.4500    1.7339    0.0000 C   0  0  0  0  0  0  0  0  0  0  0  0
    3.8059    0.2768    0.0000 C   0  0  0  0  0  0  0  0  0  0  0  0
    2.3660    0.6972    0.0000 C   0  0  0  0  0  0  0  0  0  0  0  0
    1.2820   -0.3396    0.0000 C   0  0  0  0  0  0  0  0  0  0  0  0
   -0.1579    0.0809    0.0000 O   0  0  0  0  0  0  0  0  0  0  0  0
    1.6378   -1.7968    0.0000 C   0  0  0  0  0  0  0  0  0  0  0  0
    0.1619   -1.5291    0.0000 C   0  0  0  0  0  0  0  0  0  0  0  0
  2  1  1  6
  2  3  1  0
  3  4  1  0
  4  5  1  0
  5  6  2  0
  5  7  1  0
  7  8  1  0
  8  9  1  0
  9 10  1  0
 10 11  1  0
 11 12  2  0
 11 13  2  0
 11 14  1  0
  2 15  1  0
 15 16  1  6
 16 17  1  0
 18 17  1  6
 18 19  1  0
 19 20  1  1
 20 21  1  0
 22 21  1  1
 22 23  1  0
 23 24  1  0
 24 25  1  1
 24 26  1  0
 26 27  1  0
 27 28  1  0
 28 29  1  6
 28 30  1  0
 30 31  1  6
 31 32  1  0
 32 33  1  1
 32 34  1  0
 34 35  1  6
 34 15  1  0
 34 18  1  0
 30 19  1  0
 28 22  1  0
M  END
>  <MS_ID>  (3786) 
MS4315

>  <SMILES>  (3786) 
C[C@H](CCC(=O)NCCOS(=O)(=O)O)[C@H]1CC[C@H]2[C@@H]3CC[C@@H]4C[C@H](O)CC[C@]4(C)[C@H]3C[C@H](O)[C@]12C

>  <Structure_dimension>  (3786) 
2D

$$$$
MS4316
     RDKit          2D

 35 38  0  0  0  0  0  0  0  0999 V2000
   -1.6679   -4.3975    0.0000 C   0  0  0  0  0  0  0  0  0  0  0  0
   -1.0049   -3.0520    0.0000 C   0  0  0  0  0  0  0  0  0  0  0  0
   -1.8386   -1.8051    0.0000 C   0  0  0  0  0  0  0  0  0  0  0  0
   -3.3354   -1.9036    0.0000 C   0  0  0  0  0  0  0  0  0  0  0  0
   -4.1691   -0.6567    0.0000 C   0  0  0  0  0  0  0  0  0  0  0  0
   -3.5061    0.6889    0.0000 O   0  0  0  0  0  0  0  0  0  0  0  0
   -5.6659   -0.7552    0.0000 N   0  0  0  0  0  0  0  0  0  0  0  0
   -6.4996    0.4918    0.0000 C   0  0  0  0  0  0  0  0  0  0  0  0
   -7.9964    0.3932    0.0000 C   0  0  0  0  0  0  0  0  0  0  0  0
   -8.8301    1.6402    0.0000 O   0  0  0  0  0  0  0  0  0  0  0  0
  -10.3268    1.5416    0.0000 C   0  0  0  0  0  0  0  0  0  0  0  0
  -11.1606    2.7886    0.0000 C   0  0  0  0  0  0  0  0  0  0  0  0
  -12.6573    2.6900    0.0000 N   0  0  0  0  0  0  0  0  0  0  0  0
    0.4918   -2.9535    0.0000 C   0  0  0  0  0  0  0  0  0  0  0  0
    1.4513   -4.1065    0.0000 C   0  0  0  0  0  0  0  0  0  0  0  0
    2.8444   -3.5502    0.0000 C   0  0  0  0  0  0  0  0  0  0  0  0
    2.7459   -2.0535    0.0000 C   0  0  0  0  0  0  0  0  0  0  0  0
    3.7922   -0.9787    0.0000 C   0  0  0  0  0  0  0  0  0  0  0  0
    5.2462   -1.3475    0.0000 C   0  0  0  0  0  0  0  0  0  0  0  0
    5.6538   -2.7911    0.0000 O   0  0  0  0  0  0  0  0  0  0  0  0
    6.2925   -0.2727    0.0000 C   0  0  0  0  0  0  0  0  0  0  0  0
    5.8850    1.1708    0.0000 C   0  0  0  0  0  0  0  0  0  0  0  0
    6.9313    2.2456    0.0000 C   0  0  0  0  0  0  0  0  0  0  0  0
    6.5237    3.6892    0.0000 C   0  0  0  0  0  0  0  0  0  0  0  0
    7.5701    4.7639    0.0000 O   0  0  0  0  0  0  0  0  0  0  0  0
    5.0698    4.0580    0.0000 C   0  0  0  0  0  0  0  0  0  0  0  0
    4.0234    2.9832    0.0000 C   0  0  0  0  0  0  0  0  0  0  0  0
    4.4310    1.5396    0.0000 C   0  0  0  0  0  0  0  0  0  0  0  0
    2.9770    1.9084    0.0000 C   0  0  0  0  0  0  0  0  0  0  0  0
    3.3846    0.4649    0.0000 C   0  0  0  0  0  0  0  0  0  0  0  0
    1.9307    0.8337    0.0000 C   0  0  0  0  0  0  0  0  0  0  0  0
    0.8843   -0.2411    0.0000 C   0  0  0  0  0  0  0  0  0  0  0  0
   -0.5696    0.1277    0.0000 O   0  0  0  0  0  0  0  0  0  0  0  0
    1.2919   -1.6847    0.0000 C   0  0  0  0  0  0  0  0  0  0  0  0
   -0.1926   -1.4698    0.0000 C   0  0  0  0  0  0  0  0  0  0  0  0
  2  1  1  6
  2  3  1  0
  3  4  1  0
  4  5  1  0
  5  6  2  0
  5  7  1  0
  7  8  1  0
  8  9  1  0
  9 10  1  0
 10 11  1  0
 11 12  1  0
 12 13  1  0
  2 14  1  0
 14 15  1  6
 15 16  1  0
 17 16  1  6
 17 18  1  0
 18 19  1  1
 19 20  1  1
 19 21  1  0
 22 21  1  1
 22 23  1  0
 23 24  1  0
 24 25  1  1
 24 26  1  0
 26 27  1  0
 27 28  1  0
 28 29  1  6
 28 30  1  0
 30 31  1  6
 31 32  1  0
 32 33  1  1
 32 34  1  0
 34 35  1  6
 34 14  1  0
 34 17  1  0
 30 18  1  0
 28 22  1  0
M  END
>  <MS_ID>  (3787) 
MS4316

>  <SMILES>  (3787) 
C[C@H](CCC(=O)NCCOCCN)[C@H]1CC[C@H]2[C@@H]3[C@H](O)C[C@@H]4C[C@H](O)CC[C@]4(C)[C@H]3C[C@H](O)[C@]12C

>  <Structure_dimension>  (3787) 
2D

$$$$
MS4319
     RDKit          2D

 35 39  0  0  0  0  0  0  0  0999 V2000
   -2.5210   -3.9198    0.0000 C   0  0  0  0  0  0  0  0  0  0  0  0
   -1.6831   -2.6756    0.0000 C   0  0  0  0  0  0  0  0  0  0  0  0
   -2.3416   -1.3279    0.0000 C   0  0  0  0  0  0  0  0  0  0  0  0
   -3.8380   -1.2243    0.0000 C   0  0  0  0  0  0  0  0  0  0  0  0
   -4.4965    0.1234    0.0000 C   0  0  0  0  0  0  0  0  0  0  0  0
   -3.6586    1.3675    0.0000 O   0  0  0  0  0  0  0  0  0  0  0  0
   -5.9929    0.2270    0.0000 N   0  0  0  0  0  0  0  0  0  0  0  0
   -6.9563   -0.9228    0.0000 C   0  0  0  0  0  0  0  0  0  0  0  0
   -8.3475   -0.3618    0.0000 C   0  0  0  0  0  0  0  0  0  0  0  0
   -8.2439    1.1346    0.0000 C   0  0  0  0  0  0  0  0  0  0  0  0
   -6.7887    1.4985    0.0000 C   0  0  0  0  0  0  0  0  0  0  0  0
   -6.2277    2.8897    0.0000 C   0  0  0  0  0  0  0  0  0  0  0  0
   -4.7425    3.0995    0.0000 O   0  0  0  0  0  0  0  0  0  0  0  0
   -7.1521    4.0710    0.0000 O   0  0  0  0  0  0  0  0  0  0  0  0
   -0.1866   -2.7792    0.0000 C   0  0  0  0  0  0  0  0  0  0  0  0
    0.6091   -4.0507    0.0000 C   0  0  0  0  0  0  0  0  0  0  0  0
    2.0643   -3.6868    0.0000 C   0  0  0  0  0  0  0  0  0  0  0  0
    2.1679   -2.1904    0.0000 C   0  0  0  0  0  0  0  0  0  0  0  0
    3.3493   -1.2661    0.0000 C   0  0  0  0  0  0  0  0  0  0  0  0
    4.7404   -1.8270    0.0000 C   0  0  0  0  0  0  0  0  0  0  0  0
    4.9502   -3.3123    0.0000 O   0  0  0  0  0  0  0  0  0  0  0  0
    5.9218   -0.9027    0.0000 C   0  0  0  0  0  0  0  0  0  0  0  0
    5.7120    0.5826    0.0000 C   0  0  0  0  0  0  0  0  0  0  0  0
    6.8934    1.5069    0.0000 C   0  0  0  0  0  0  0  0  0  0  0  0
    6.6836    2.9921    0.0000 C   0  0  0  0  0  0  0  0  0  0  0  0
    7.8649    3.9165    0.0000 O   0  0  0  0  0  0  0  0  0  0  0  0
    5.2924    3.5531    0.0000 C   0  0  0  0  0  0  0  0  0  0  0  0
    4.1110    2.6287    0.0000 C   0  0  0  0  0  0  0  0  0  0  0  0
    4.3208    1.1435    0.0000 C   0  0  0  0  0  0  0  0  0  0  0  0
    2.9297    1.7044    0.0000 C   0  0  0  0  0  0  0  0  0  0  0  0
    3.1395    0.2192    0.0000 C   0  0  0  0  0  0  0  0  0  0  0  0
    1.7483    0.7801    0.0000 C   0  0  0  0  0  0  0  0  0  0  0  0
    0.5669   -0.1442    0.0000 C   0  0  0  0  0  0  0  0  0  0  0  0
    0.7767   -1.6295    0.0000 C   0  0  0  0  0  0  0  0  0  0  0  0
   -0.6655   -1.2170    0.0000 C   0  0  0  0  0  0  0  0  0  0  0  0
  2  1  1  6
  2  3  1  0
  3  4  1  0
  4  5  1  0
  5  6  2  0
  5  7  1  0
  7  8  1  0
  8  9  1  0
  9 10  1  0
 10 11  1  0
 11 12  1  6
 12 13  2  0
 12 14  1  0
  2 15  1  0
 15 16  1  6
 16 17  1  0
 18 17  1  6
 18 19  1  0
 19 20  1  1
 20 21  1  6
 20 22  1  0
 23 22  1  1
 23 24  1  0
 24 25  1  0
 25 26  1  1
 25 27  1  0
 27 28  1  0
 28 29  1  0
 29 30  1  6
 29 31  1  0
 31 32  1  6
 32 33  1  0
 33 34  1  0
 34 35  1  6
 11  7  1  0
 34 15  1  0
 34 18  1  0
 31 19  1  0
 29 23  1  0
M  END
>  <MS_ID>  (3788) 
MS4319

>  <SMILES>  (3788) 
C[C@H](CCC(=O)N1CCC[C@@H]1C(=O)O)[C@H]1CC[C@H]2[C@@H]3[C@@H](O)C[C@@H]4C[C@H](O)CC[C@]4(C)[C@H]3CC[C@]12C

>  <Structure_dimension>  (3788) 
2D

$$$$
MS4322
     RDKit          2D

 39 43  0  0  0  0  0  0  0  0999 V2000
   -0.3888   -4.8542    0.0000 C   0  0  0  0  0  0  0  0  0  0  0  0
    0.1383   -3.4499    0.0000 C   0  0  0  0  0  0  0  0  0  0  0  0
   -0.8144   -2.2913    0.0000 C   0  0  0  0  0  0  0  0  0  0  0  0
   -2.2941   -2.5370    0.0000 C   0  0  0  0  0  0  0  0  0  0  0  0
   -3.2468   -1.3784    0.0000 C   0  0  0  0  0  0  0  0  0  0  0  0
   -2.7197    0.0260    0.0000 O   0  0  0  0  0  0  0  0  0  0  0  0
   -4.7265   -1.6241    0.0000 N   0  0  0  0  0  0  0  0  0  0  0  0
   -5.6792   -0.4655    0.0000 C   0  0  0  0  0  0  0  0  0  0  0  0
   -7.1589   -0.7112    0.0000 C   0  0  0  0  0  0  0  0  0  0  0  0
   -8.1116    0.4474    0.0000 C   0  0  0  0  0  0  0  0  0  0  0  0
   -7.5846    1.8518    0.0000 C   0  0  0  0  0  0  0  0  0  0  0  0
   -8.5372    3.0104    0.0000 C   0  0  0  0  0  0  0  0  0  0  0  0
  -10.0170    2.7647    0.0000 C   0  0  0  0  0  0  0  0  0  0  0  0
  -10.5440    1.3603    0.0000 C   0  0  0  0  0  0  0  0  0  0  0  0
   -9.5914    0.2017    0.0000 C   0  0  0  0  0  0  0  0  0  0  0  0
   -5.1521    0.9389    0.0000 C   0  0  0  0  0  0  0  0  0  0  0  0
   -3.6724    1.1846    0.0000 O   0  0  0  0  0  0  0  0  0  0  0  0
   -6.1048    2.0975    0.0000 O   0  0  0  0  0  0  0  0  0  0  0  0
    1.6180   -3.2041    0.0000 C   0  0  0  0  0  0  0  0  0  0  0  0
    2.6866   -4.2568    0.0000 C   0  0  0  0  0  0  0  0  0  0  0  0
    4.0180   -3.5659    0.0000 C   0  0  0  0  0  0  0  0  0  0  0  0
    3.7722   -2.0861    0.0000 C   0  0  0  0  0  0  0  0  0  0  0  0
    4.7075   -0.9134    0.0000 C   0  0  0  0  0  0  0  0  0  0  0  0
    6.1907   -1.1369    0.0000 C   0  0  0  0  0  0  0  0  0  0  0  0
    6.7387   -2.5333    0.0000 O   0  0  0  0  0  0  0  0  0  0  0  0
    7.1260    0.0358    0.0000 C   0  0  0  0  0  0  0  0  0  0  0  0
    6.5779    1.4321    0.0000 C   0  0  0  0  0  0  0  0  0  0  0  0
    7.5132    2.6049    0.0000 C   0  0  0  0  0  0  0  0  0  0  0  0
    6.9652    4.0012    0.0000 C   0  0  0  0  0  0  0  0  0  0  0  0
    7.9004    5.1739    0.0000 O   0  0  0  0  0  0  0  0  0  0  0  0
    5.4819    4.2247    0.0000 C   0  0  0  0  0  0  0  0  0  0  0  0
    4.5467    3.0520    0.0000 C   0  0  0  0  0  0  0  0  0  0  0  0
    5.0947    1.6557    0.0000 C   0  0  0  0  0  0  0  0  0  0  0  0
    3.6114    1.8792    0.0000 C   0  0  0  0  0  0  0  0  0  0  0  0
    4.1595    0.4829    0.0000 C   0  0  0  0  0  0  0  0  0  0  0  0
    2.6762    0.7065    0.0000 C   0  0  0  0  0  0  0  0  0  0  0  0
    1.7410   -0.4663    0.0000 C   0  0  0  0  0  0  0  0  0  0  0  0
    2.2890   -1.8626    0.0000 C   0  0  0  0  0  0  0  0  0  0  0  0
    0.7905   -1.7953    0.0000 C   0  0  0  0  0  0  0  0  0  0  0  0
  2  1  1  6
  2  3  1  0
  3  4  1  0
  4  5  1  0
  5  6  2  0
  5  7  1  0
  7  8  1  0
  8  9  1  1
  9 10  1  0
 10 11  2  0
 11 12  1  0
 12 13  2  0
 13 14  1  0
 14 15  2  0
  8 16  1  0
 16 17  2  0
 16 18  1  0
  2 19  1  0
 19 20  1  6
 20 21  1  0
 22 21  1  6
 22 23  1  0
 23 24  1  1
 24 25  2  0
 24 26  1  0
 27 26  1  1
 27 28  1  0
 28 29  1  0
 29 30  1  1
 29 31  1  0
 31 32  1  0
 32 33  1  0
 33 34  1  6
 33 35  1  0
 35 36  1  6
 36 37  1  0
 37 38  1  0
 38 39  1  6
 15 10  1  0
 38 19  1  0
 38 22  1  0
 35 23  1  0
 33 27  1  0
M  END
>  <MS_ID>  (3789) 
MS4322

>  <SMILES>  (3789) 
C[C@H](CCC(=O)N[C@@H](Cc1ccccc1)C(=O)O)[C@H]1CC[C@H]2[C@@H]3C(=O)C[C@@H]4C[C@H](O)CC[C@]4(C)[C@H]3CC[C@]12C

>  <Structure_dimension>  (3789) 
2D

$$$$
MS4323
     RDKit          2D

 29 32  0  0  0  0  0  0  0  0999 V2000
   -5.0303   -2.1373    0.0000 C   0  0  0  0  0  0  0  0  0  0  0  0
   -3.8594   -1.1998    0.0000 C   0  0  0  0  0  0  0  0  0  0  0  0
   -4.0858    0.2830    0.0000 C   0  0  0  0  0  0  0  0  0  0  0  0
   -5.4831    0.8284    0.0000 C   0  0  0  0  0  0  0  0  0  0  0  0
   -5.7095    2.3112    0.0000 C   0  0  0  0  0  0  0  0  0  0  0  0
   -4.5386    3.2487    0.0000 O   0  0  0  0  0  0  0  0  0  0  0  0
   -7.1069    2.8565    0.0000 O   0  0  0  0  0  0  0  0  0  0  0  0
   -2.4620   -1.7451    0.0000 C   0  0  0  0  0  0  0  0  0  0  0  0
   -2.0818   -3.1961    0.0000 C   0  0  0  0  0  0  0  0  0  0  0  0
   -0.5844   -3.2830    0.0000 C   0  0  0  0  0  0  0  0  0  0  0  0
   -0.0390   -1.8856    0.0000 C   0  0  0  0  0  0  0  0  0  0  0  0
    1.3643   -1.3559    0.0000 C   0  0  0  0  0  0  0  0  0  0  0  0
    2.5248   -2.3063    0.0000 C   0  0  0  0  0  0  0  0  0  0  0  0
    2.2819   -3.7865    0.0000 O   0  0  0  0  0  0  0  0  0  0  0  0
    3.9281   -1.7765    0.0000 C   0  0  0  0  0  0  0  0  0  0  0  0
    4.1710   -0.2963    0.0000 C   0  0  0  0  0  0  0  0  0  0  0  0
    5.5743    0.2334    0.0000 C   0  0  0  0  0  0  0  0  0  0  0  0
    5.8172    1.7136    0.0000 C   0  0  0  0  0  0  0  0  0  0  0  0
    7.2205    2.2434    0.0000 O   0  0  0  0  0  0  0  0  0  0  0  0
    4.6568    2.6641    0.0000 C   0  0  0  0  0  0  0  0  0  0  0  0
    3.2534    2.1343    0.0000 C   0  0  0  0  0  0  0  0  0  0  0  0
    3.0105    0.6541    0.0000 C   0  0  0  0  0  0  0  0  0  0  0  0
    1.8501    1.6046    0.0000 C   0  0  0  0  0  0  0  0  0  0  0  0
    1.6072    0.1244    0.0000 C   0  0  0  0  0  0  0  0  0  0  0  0
    0.4467    1.0748    0.0000 C   0  0  0  0  0  0  0  0  0  0  0  0
   -0.9566    0.5450    0.0000 C   0  0  0  0  0  0  0  0  0  0  0  0
   -2.1170    1.4955    0.0000 O   0  0  0  0  0  0  0  0  0  0  0  0
   -1.1995   -0.9352    0.0000 C   0  0  0  0  0  0  0  0  0  0  0  0
   -2.4529   -0.1112    0.0000 C   0  0  0  0  0  0  0  0  0  0  0  0
  2  1  1  6
  2  3  1  0
  3  4  1  0
  4  5  1  0
  5  6  2  0
  5  7  1  0
  2  8  1  0
  8  9  1  6
  9 10  1  0
 11 10  1  6
 11 12  1  0
 12 13  1  1
 13 14  1  6
 13 15  1  0
 16 15  1  6
 16 17  1  0
 17 18  1  0
 18 19  1  6
 18 20  1  0
 20 21  1  0
 21 22  1  0
 22 23  1  6
 22 24  1  0
 24 25  1  6
 25 26  1  0
 26 27  2  0
 26 28  1  0
 28 29  1  6
 28  8  1  0
 28 11  1  0
 24 12  1  0
 22 16  1  0
M  END
>  <MS_ID>  (3790) 
MS4323

>  <SMILES>  (3790) 
C[C@H](CCC(=O)O)[C@H]1CC[C@H]2[C@@H]3[C@@H](O)C[C@H]4C[C@@H](O)CC[C@]4(C)[C@H]3CC(=O)[C@]12C

>  <Structure_dimension>  (3790) 
2D

$$$$
MS4324
     RDKit          2D

 28 31  0  0  0  0  0  0  0  0999 V2000
   -5.1275   -2.0302    0.0000 C   0  0  0  0  0  0  0  0  0  0  0  0
   -3.9468   -1.1050    0.0000 C   0  0  0  0  0  0  0  0  0  0  0  0
   -4.1576    0.3801    0.0000 C   0  0  0  0  0  0  0  0  0  0  0  0
   -5.5492    0.9401    0.0000 C   0  0  0  0  0  0  0  0  0  0  0  0
   -5.7600    2.4252    0.0000 C   0  0  0  0  0  0  0  0  0  0  0  0
   -4.5793    3.3503    0.0000 O   0  0  0  0  0  0  0  0  0  0  0  0
   -7.1516    2.9851    0.0000 O   0  0  0  0  0  0  0  0  0  0  0  0
   -2.5552   -1.6650    0.0000 C   0  0  0  0  0  0  0  0  0  0  0  0
   -2.1903   -3.1199    0.0000 C   0  0  0  0  0  0  0  0  0  0  0  0
   -0.6938   -3.2225    0.0000 C   0  0  0  0  0  0  0  0  0  0  0  0
   -0.1339   -1.8309    0.0000 C   0  0  0  0  0  0  0  0  0  0  0  0
    1.2750   -1.3159    0.0000 C   0  0  0  0  0  0  0  0  0  0  0  0
    2.4254   -2.2785    0.0000 C   0  0  0  0  0  0  0  0  0  0  0  0
    2.1670   -3.7560    0.0000 O   0  0  0  0  0  0  0  0  0  0  0  0
    3.8342   -1.7635    0.0000 C   0  0  0  0  0  0  0  0  0  0  0  0
    4.0926   -0.2859    0.0000 C   0  0  0  0  0  0  0  0  0  0  0  0
    5.5014    0.2291    0.0000 C   0  0  0  0  0  0  0  0  0  0  0  0
    5.7598    1.7067    0.0000 C   0  0  0  0  0  0  0  0  0  0  0  0
    7.1687    2.2217    0.0000 O   0  0  0  0  0  0  0  0  0  0  0  0
    4.6094    2.6692    0.0000 C   0  0  0  0  0  0  0  0  0  0  0  0
    3.2006    2.1542    0.0000 C   0  0  0  0  0  0  0  0  0  0  0  0
    2.9422    0.6767    0.0000 C   0  0  0  0  0  0  0  0  0  0  0  0
    1.7918    1.6392    0.0000 C   0  0  0  0  0  0  0  0  0  0  0  0
    1.5334    0.1617    0.0000 C   0  0  0  0  0  0  0  0  0  0  0  0
    0.3830    1.1242    0.0000 C   0  0  0  0  0  0  0  0  0  0  0  0
   -1.0259    0.6093    0.0000 C   0  0  0  0  0  0  0  0  0  0  0  0
   -1.2843   -0.8683    0.0000 C   0  0  0  0  0  0  0  0  0  0  0  0
   -2.5290   -0.0313    0.0000 C   0  0  0  0  0  0  0  0  0  0  0  0
  2  1  1  1
  2  3  1  0
  3  4  1  0
  4  5  1  0
  5  6  2  0
  5  7  1  0
  2  8  1  0
  8  9  1  6
  9 10  1  0
 11 10  1  6
 11 12  1  0
 12 13  1  1
 13 14  1  6
 13 15  1  0
 16 15  1  1
 16 17  1  0
 17 18  1  0
 18 19  1  6
 18 20  1  0
 20 21  1  0
 21 22  1  0
 22 23  1  6
 22 24  1  0
 24 25  1  6
 25 26  1  0
 26 27  1  0
 27 28  1  6
 27  8  1  0
 27 11  1  0
 24 12  1  0
 22 16  1  0
M  END
>  <MS_ID>  (3791) 
MS4324

>  <SMILES>  (3791) 
C[C@@H](CCC(=O)O)[C@H]1CC[C@H]2[C@@H]3[C@@H](O)C[C@@H]4C[C@@H](O)CC[C@]4(C)[C@H]3CC[C@]12C

>  <Structure_dimension>  (3791) 
2D

$$$$
MS4325
     RDKit          2D

 27 30  0  0  0  0  0  0  0  0999 V2000
   -5.1023   -2.0364    0.0000 C   0  0  0  0  0  0  0  0  0  0  0  0
   -3.8978   -1.1425    0.0000 C   0  0  0  0  0  0  0  0  0  0  0  0
   -4.0697    0.3476    0.0000 C   0  0  0  0  0  0  0  0  0  0  0  0
   -5.4461    0.9438    0.0000 C   0  0  0  0  0  0  0  0  0  0  0  0
   -5.6180    2.4339    0.0000 C   0  0  0  0  0  0  0  0  0  0  0  0
   -4.4135    3.3278    0.0000 O   0  0  0  0  0  0  0  0  0  0  0  0
   -6.9944    3.0301    0.0000 O   0  0  0  0  0  0  0  0  0  0  0  0
   -2.5213   -1.7387    0.0000 C   0  0  0  0  0  0  0  0  0  0  0  0
   -2.1946   -3.2027    0.0000 C   0  0  0  0  0  0  0  0  0  0  0  0
   -0.7013   -3.3444    0.0000 C   0  0  0  0  0  0  0  0  0  0  0  0
   -0.1051   -1.9679    0.0000 C   0  0  0  0  0  0  0  0  0  0  0  0
    1.3167   -1.4900    0.0000 C   0  0  0  0  0  0  0  0  0  0  0  0
    2.4415   -2.4823    0.0000 C   0  0  0  0  0  0  0  0  0  0  0  0
    3.8633   -2.0044    0.0000 C   0  0  0  0  0  0  0  0  0  0  0  0
    4.1603   -0.5341    0.0000 C   0  0  0  0  0  0  0  0  0  0  0  0
    5.5821   -0.0561    0.0000 C   0  0  0  0  0  0  0  0  0  0  0  0
    5.8791    1.4142    0.0000 C   0  0  0  0  0  0  0  0  0  0  0  0
    7.3009    1.8921    0.0000 O   0  0  0  0  0  0  0  0  0  0  0  0
    4.7543    2.4065    0.0000 C   0  0  0  0  0  0  0  0  0  0  0  0
    3.3325    1.9286    0.0000 C   0  0  0  0  0  0  0  0  0  0  0  0
    3.0355    0.4583    0.0000 C   0  0  0  0  0  0  0  0  0  0  0  0
    1.9107    1.4506    0.0000 C   0  0  0  0  0  0  0  0  0  0  0  0
    1.6137   -0.0197    0.0000 C   0  0  0  0  0  0  0  0  0  0  0  0
    0.4888    0.9727    0.0000 C   0  0  0  0  0  0  0  0  0  0  0  0
   -0.9330    0.4947    0.0000 C   0  0  0  0  0  0  0  0  0  0  0  0
   -1.2300   -0.9756    0.0000 C   0  0  0  0  0  0  0  0  0  0  0  0
   -2.4524   -0.1062    0.0000 C   0  0  0  0  0  0  0  0  0  0  0  0
  2  1  1  6
  2  3  1  0
  3  4  1  0
  4  5  1  0
  5  6  2  0
  5  7  1  0
  2  8  1  0
  8  9  1  6
  9 10  1  0
 11 10  1  6
 11 12  1  0
 12 13  1  1
 13 14  1  0
 15 14  1  1
 15 16  1  0
 16 17  1  0
 17 18  1  1
 17 19  1  0
 19 20  1  0
 20 21  1  0
 21 22  1  6
 21 23  1  0
 23 24  1  1
 24 25  1  0
 25 26  1  0
 26 27  1  6
 26  8  1  0
 26 11  1  0
 23 12  1  0
 21 15  1  0
M  END
>  <MS_ID>  (3792) 
MS4325

>  <SMILES>  (3792) 
C[C@H](CCC(=O)O)[C@H]1CC[C@H]2[C@@H]3CC[C@@H]4C[C@H](O)CC[C@]4(C)[C@@H]3CC[C@]12C

>  <Structure_dimension>  (3792) 
2D

$$$$
MS4327
     RDKit          2D

 30 33  0  0  0  0  0  0  0  0999 V2000
   -4.4103   -3.0370    0.0000 C   0  0  0  0  0  0  0  0  0  0  0  0
   -3.3324   -1.9939    0.0000 C   0  0  0  0  0  0  0  0  0  0  0  0
   -3.6968   -0.5388    0.0000 C   0  0  0  0  0  0  0  0  0  0  0  0
   -5.1392   -0.1269    0.0000 C   0  0  0  0  0  0  0  0  0  0  0  0
   -5.5036    1.3282    0.0000 C   0  0  0  0  0  0  0  0  0  0  0  0
   -6.9459    1.7401    0.0000 O   0  0  0  0  0  0  0  0  0  0  0  0
   -4.4257    2.3713    0.0000 O   0  0  0  0  0  0  0  0  0  0  0  0
   -4.7901    3.8263    0.0000 C   0  0  0  0  0  0  0  0  0  0  0  0
   -3.7122    4.8695    0.0000 Cl  0  0  0  0  0  0  0  0  0  0  0  0
   -1.8901   -2.4058    0.0000 C   0  0  0  0  0  0  0  0  0  0  0  0
   -1.3756   -3.8148    0.0000 C   0  0  0  0  0  0  0  0  0  0  0  0
    0.1235   -3.7609    0.0000 C   0  0  0  0  0  0  0  0  0  0  0  0
    0.5354   -2.3185    0.0000 C   0  0  0  0  0  0  0  0  0  0  0  0
    1.8829   -1.6595    0.0000 C   0  0  0  0  0  0  0  0  0  0  0  0
    3.1273   -2.4970    0.0000 C   0  0  0  0  0  0  0  0  0  0  0  0
    4.4748   -1.8380    0.0000 C   0  0  0  0  0  0  0  0  0  0  0  0
    4.5779   -0.3416    0.0000 C   0  0  0  0  0  0  0  0  0  0  0  0
    5.9254    0.3174    0.0000 C   0  0  0  0  0  0  0  0  0  0  0  0
    6.0284    1.8139    0.0000 C   0  0  0  0  0  0  0  0  0  0  0  0
    7.3759    2.4729    0.0000 O   0  0  0  0  0  0  0  0  0  0  0  0
    4.7840    2.6514    0.0000 C   0  0  0  0  0  0  0  0  0  0  0  0
    3.4365    1.9924    0.0000 C   0  0  0  0  0  0  0  0  0  0  0  0
    3.3334    0.4959    0.0000 C   0  0  0  0  0  0  0  0  0  0  0  0
    2.0890    1.3334    0.0000 C   0  0  0  0  0  0  0  0  0  0  0  0
    1.9859   -0.1631    0.0000 C   0  0  0  0  0  0  0  0  0  0  0  0
    0.7415    0.6744    0.0000 C   0  0  0  0  0  0  0  0  0  0  0  0
   -0.6060    0.0154    0.0000 C   0  0  0  0  0  0  0  0  0  0  0  0
   -1.8505    0.8529    0.0000 O   0  0  0  0  0  0  0  0  0  0  0  0
   -0.7090   -1.4811    0.0000 C   0  0  0  0  0  0  0  0  0  0  0  0
   -2.0342   -0.7783    0.0000 C   0  0  0  0  0  0  0  0  0  0  0  0
  2  1  1  6
  2  3  1  0
  3  4  1  0
  4  5  1  0
  5  6  2  0
  5  7  1  0
  7  8  1  0
  8  9  1  0
  2 10  1  0
 10 11  1  6
 11 12  1  0
 13 12  1  6
 13 14  1  0
 14 15  1  1
 15 16  1  0
 17 16  1  1
 17 18  1  0
 18 19  1  0
 19 20  1  1
 19 21  1  0
 21 22  1  0
 22 23  1  0
 23 24  1  6
 23 25  1  0
 25 26  1  6
 26 27  1  0
 27 28  1  1
 27 29  1  0
 29 30  1  6
 29 10  1  0
 29 13  1  0
 25 14  1  0
 23 17  1  0
M  END
>  <MS_ID>  (3793) 
MS4327

>  <SMILES>  (3793) 
C[C@H](CCC(=O)OCCl)[C@H]1CC[C@H]2[C@@H]3CC[C@@H]4C[C@H](O)CC[C@]4(C)[C@H]3C[C@H](O)[C@]12C

>  <Structure_dimension>  (3793) 
2D

$$$$
MS4328
     RDKit          2D

 32 35  0  0  0  0  0  0  0  0999 V2000
   -3.0592   -3.7169    0.0000 C   0  0  0  0  0  0  0  0  0  0  0  0
   -2.1499   -2.5239    0.0000 C   0  0  0  0  0  0  0  0  0  0  0  0
   -2.7284   -1.1399    0.0000 C   0  0  0  0  0  0  0  0  0  0  0  0
   -4.2162   -0.9489    0.0000 C   0  0  0  0  0  0  0  0  0  0  0  0
   -4.7946    0.4350    0.0000 C   0  0  0  0  0  0  0  0  0  0  0  0
   -3.8853    1.6280    0.0000 O   0  0  0  0  0  0  0  0  0  0  0  0
   -6.2824    0.6260    0.0000 N   0  0  0  0  0  0  0  0  0  0  0  0
   -6.8609    2.0100    0.0000 C   0  0  0  0  0  0  0  0  0  0  0  0
   -8.3487    2.2010    0.0000 C   0  0  0  0  0  0  0  0  0  0  0  0
   -9.2580    1.0080    0.0000 O   0  0  0  0  0  0  0  0  0  0  0  0
   -8.9272    3.5850    0.0000 O   0  0  0  0  0  0  0  0  0  0  0  0
   -0.6621   -2.7149    0.0000 C   0  0  0  0  0  0  0  0  0  0  0  0
    0.0579   -4.0308    0.0000 C   0  0  0  0  0  0  0  0  0  0  0  0
    1.5319   -3.7527    0.0000 C   0  0  0  0  0  0  0  0  0  0  0  0
    1.7229   -2.2649    0.0000 C   0  0  0  0  0  0  0  0  0  0  0  0
    2.9563   -1.4114    0.0000 C   0  0  0  0  0  0  0  0  0  0  0  0
    4.3123   -2.0528    0.0000 C   0  0  0  0  0  0  0  0  0  0  0  0
    5.5457   -1.1992    0.0000 C   0  0  0  0  0  0  0  0  0  0  0  0
    5.4232    0.2958    0.0000 C   0  0  0  0  0  0  0  0  0  0  0  0
    6.6567    1.1494    0.0000 C   0  0  0  0  0  0  0  0  0  0  0  0
    6.5342    2.6444    0.0000 C   0  0  0  0  0  0  0  0  0  0  0  0
    7.7676    3.4980    0.0000 O   0  0  0  0  0  0  0  0  0  0  0  0
    5.1782    3.2858    0.0000 C   0  0  0  0  0  0  0  0  0  0  0  0
    3.9448    2.4322    0.0000 C   0  0  0  0  0  0  0  0  0  0  0  0
    4.0673    0.9372    0.0000 C   0  0  0  0  0  0  0  0  0  0  0  0
    2.7113    1.5786    0.0000 C   0  0  0  0  0  0  0  0  0  0  0  0
    2.8338    0.0836    0.0000 C   0  0  0  0  0  0  0  0  0  0  0  0
    1.4779    0.7250    0.0000 C   0  0  0  0  0  0  0  0  0  0  0  0
    0.2444   -0.1285    0.0000 C   0  0  0  0  0  0  0  0  0  0  0  0
   -1.1115    0.5129    0.0000 O   0  0  0  0  0  0  0  0  0  0  0  0
    0.3669   -1.6235    0.0000 C   0  0  0  0  0  0  0  0  0  0  0  0
   -1.0486   -1.1274    0.0000 C   0  0  0  0  0  0  0  0  0  0  0  0
  2  1  1  1
  2  3  1  0
  3  4  1  0
  4  5  1  0
  5  6  2  0
  5  7  1  0
  7  8  1  0
  8  9  1  0
  9 10  2  0
  9 11  1  0
  2 12  1  0
 12 13  1  6
 13 14  1  0
 15 14  1  6
 15 16  1  0
 16 17  1  1
 17 18  1  0
 19 18  1  1
 19 20  1  0
 20 21  1  0
 21 22  1  1
 21 23  1  0
 23 24  1  0
 24 25  1  0
 25 26  1  6
 25 27  1  0
 27 28  1  6
 28 29  1  0
 29 30  1  1
 29 31  1  0
 31 32  1  6
 31 12  1  0
 31 15  1  0
 27 16  1  0
 25 19  1  0
M  END
>  <MS_ID>  (3794) 
MS4328

>  <SMILES>  (3794) 
C[C@@H](CCC(=O)NCC(=O)O)[C@H]1CC[C@H]2[C@@H]3CC[C@@H]4C[C@H](O)CC[C@]4(C)[C@H]3C[C@H](O)[C@]12C

>  <Structure_dimension>  (3794) 
2D

$$$$
MS4329
     RDKit          2D

 29 32  0  0  0  0  0  0  0  0999 V2000
   -5.1421   -2.1269    0.0000 C   0  0  0  0  0  0  0  0  0  0  0  0
   -4.0091   -1.1439    0.0000 C   0  0  0  0  0  0  0  0  0  0  0  0
   -4.2938    0.3288    0.0000 C   0  0  0  0  0  0  0  0  0  0  0  0
   -5.7116    0.8186    0.0000 C   0  0  0  0  0  0  0  0  0  0  0  0
   -5.9963    2.2913    0.0000 C   0  0  0  0  0  0  0  0  0  0  0  0
   -4.8632    3.2743    0.0000 O   0  0  0  0  0  0  0  0  0  0  0  0
   -7.4141    2.7811    0.0000 O   0  0  0  0  0  0  0  0  0  0  0  0
   -2.5913   -1.6337    0.0000 C   0  0  0  0  0  0  0  0  0  0  0  0
   -2.1542   -3.0686    0.0000 C   0  0  0  0  0  0  0  0  0  0  0  0
   -0.6544   -3.0963    0.0000 C   0  0  0  0  0  0  0  0  0  0  0  0
   -0.1646   -1.6785    0.0000 C   0  0  0  0  0  0  0  0  0  0  0  0
    1.2167   -1.0938    0.0000 C   0  0  0  0  0  0  0  0  0  0  0  0
    2.4137   -1.9977    0.0000 C   0  0  0  0  0  0  0  0  0  0  0  0
    2.2294   -3.4864    0.0000 O   0  0  0  0  0  0  0  0  0  0  0  0
    3.4265   -4.3903    0.0000 N   0  0  0  0  0  0  0  0  0  0  0  0
    3.7951   -1.4130    0.0000 C   0  0  0  0  0  0  0  0  0  0  0  0
    3.9794    0.0756    0.0000 C   0  0  0  0  0  0  0  0  0  0  0  0
    5.3607    0.6603    0.0000 C   0  0  0  0  0  0  0  0  0  0  0  0
    5.5451    2.1489    0.0000 C   0  0  0  0  0  0  0  0  0  0  0  0
    6.9264    2.7336    0.0000 O   0  0  0  0  0  0  0  0  0  0  0  0
    4.3480    3.0529    0.0000 C   0  0  0  0  0  0  0  0  0  0  0  0
    2.9667    2.4682    0.0000 C   0  0  0  0  0  0  0  0  0  0  0  0
    2.7824    0.9795    0.0000 C   0  0  0  0  0  0  0  0  0  0  0  0
    1.5853    1.8835    0.0000 C   0  0  0  0  0  0  0  0  0  0  0  0
    1.4010    0.3948    0.0000 C   0  0  0  0  0  0  0  0  0  0  0  0
    0.2040    1.2988    0.0000 C   0  0  0  0  0  0  0  0  0  0  0  0
   -1.1774    0.7141    0.0000 C   0  0  0  0  0  0  0  0  0  0  0  0
   -1.3617   -0.7746    0.0000 C   0  0  0  0  0  0  0  0  0  0  0  0
   -2.6467   -0.0007    0.0000 C   0  0  0  0  0  0  0  0  0  0  0  0
  2  1  1  6
  2  3  1  0
  3  4  1  0
  4  5  1  0
  5  6  2  0
  5  7  1  0
  2  8  1  0
  8  9  1  6
  9 10  1  0
 11 10  1  6
 11 12  1  0
 12 13  1  1
 13 14  1  1
 14 15  1  0
 13 16  1  0
 17 16  1  1
 17 18  1  0
 18 19  1  0
 19 20  1  1
 19 21  1  0
 21 22  1  0
 22 23  1  0
 23 24  1  6
 23 25  1  0
 25 26  1  6
 26 27  1  0
 27 28  1  0
 28 29  1  6
 28  8  1  0
 28 11  1  0
 25 12  1  0
 23 17  1  0
M  END
>  <MS_ID>  (3795) 
MS4329

>  <SMILES>  (3795) 
C[C@H](CCC(=O)O)[C@H]1CC[C@H]2[C@@H]3[C@H](ON)C[C@@H]4C[C@H](O)CC[C@]4(C)[C@H]3CC[C@]12C

>  <Structure_dimension>  (3795) 
2D

$$$$
MS4331
     RDKit          2D

 29 32  0  0  0  0  0  0  0  0999 V2000
   -7.5935    3.5474    0.0000 C   0  0  0  0  0  0  0  0  0  0  0  0
   -7.2369    2.0904    0.0000 O   0  0  0  0  0  0  0  0  0  0  0  0
   -5.7968    1.6707    0.0000 C   0  0  0  0  0  0  0  0  0  0  0  0
   -4.7133    2.7080    0.0000 O   0  0  0  0  0  0  0  0  0  0  0  0
   -5.4402    0.2137    0.0000 C   0  0  0  0  0  0  0  0  0  0  0  0
   -4.0001   -0.2060    0.0000 C   0  0  0  0  0  0  0  0  0  0  0  0
   -3.6435   -1.6630    0.0000 C   0  0  0  0  0  0  0  0  0  0  0  0
   -4.7270   -2.7003    0.0000 C   0  0  0  0  0  0  0  0  0  0  0  0
   -2.2035   -2.0826    0.0000 C   0  0  0  0  0  0  0  0  0  0  0  0
   -1.6965   -3.4944    0.0000 C   0  0  0  0  0  0  0  0  0  0  0  0
   -0.1972   -3.4485    0.0000 C   0  0  0  0  0  0  0  0  0  0  0  0
    0.2225   -2.0084    0.0000 C   0  0  0  0  0  0  0  0  0  0  0  0
    1.5735   -1.3567    0.0000 C   0  0  0  0  0  0  0  0  0  0  0  0
    2.8134   -2.2008    0.0000 C   0  0  0  0  0  0  0  0  0  0  0  0
    4.1644   -1.5491    0.0000 C   0  0  0  0  0  0  0  0  0  0  0  0
    5.4043   -2.3933    0.0000 O   0  0  0  0  0  0  0  0  0  0  0  0
    4.2755   -0.0532    0.0000 C   0  0  0  0  0  0  0  0  0  0  0  0
    5.6265    0.5985    0.0000 C   0  0  0  0  0  0  0  0  0  0  0  0
    5.7376    2.0944    0.0000 C   0  0  0  0  0  0  0  0  0  0  0  0
    7.0887    2.7461    0.0000 O   0  0  0  0  0  0  0  0  0  0  0  0
    4.4977    2.9385    0.0000 C   0  0  0  0  0  0  0  0  0  0  0  0
    3.1467    2.2868    0.0000 C   0  0  0  0  0  0  0  0  0  0  0  0
    3.0356    0.7909    0.0000 C   0  0  0  0  0  0  0  0  0  0  0  0
    1.7957    1.6351    0.0000 C   0  0  0  0  0  0  0  0  0  0  0  0
    1.6846    0.1392    0.0000 C   0  0  0  0  0  0  0  0  0  0  0  0
    0.4447    0.9834    0.0000 C   0  0  0  0  0  0  0  0  0  0  0  0
   -0.9064    0.3316    0.0000 C   0  0  0  0  0  0  0  0  0  0  0  0
   -1.0175   -1.1643    0.0000 C   0  0  0  0  0  0  0  0  0  0  0  0
   -2.3388   -0.4543    0.0000 C   0  0  0  0  0  0  0  0  0  0  0  0
  1  2  1  0
  2  3  1  0
  3  4  2  0
  3  5  1  0
  5  6  1  0
  6  7  1  0
  7  8  1  6
  7  9  1  0
  9 10  1  6
 10 11  1  0
 12 11  1  6
 12 13  1  0
 13 14  1  1
 14 15  1  0
 15 16  1  6
 15 17  1  0
 17 18  1  1
 18 19  1  0
 19 20  1  1
 19 21  1  0
 21 22  1  0
 22 23  1  0
 23 24  1  6
 23 25  1  0
 25 26  1  6
 26 27  1  0
 27 28  1  0
 28 29  1  6
 28  9  1  0
 28 12  1  0
 25 13  1  0
 23 17  1  0
M  END
>  <MS_ID>  (3796) 
MS4331

>  <SMILES>  (3796) 
COC(=O)CC[C@@H](C)[C@H]1CC[C@H]2[C@@H]3C[C@@H](O)[C@@H]4C[C@H](O)CC[C@]4(C)[C@H]3CC[C@]12C

>  <Structure_dimension>  (3796) 
2D

$$$$
MS4332
     RDKit          2D

 30 33  0  0  0  0  0  0  0  0999 V2000
   -4.3347    2.3141    0.0000 C   0  0  0  0  0  0  0  0  0  0  0  0
   -3.7848    0.9185    0.0000 C   0  0  0  0  0  0  0  0  0  0  0  0
   -4.7185   -0.2555    0.0000 C   0  0  0  0  0  0  0  0  0  0  0  0
   -6.2020   -0.0340    0.0000 C   0  0  0  0  0  0  0  0  0  0  0  0
   -7.1356   -1.2080    0.0000 C   0  0  0  0  0  0  0  0  0  0  0  0
   -6.5857   -2.6036    0.0000 O   0  0  0  0  0  0  0  0  0  0  0  0
   -8.6192   -0.9865    0.0000 O   0  0  0  0  0  0  0  0  0  0  0  0
   -2.3013    0.6970    0.0000 C   0  0  0  0  0  0  0  0  0  0  0  0
   -2.4192    2.1923    0.0000 O   0  0  0  0  0  0  0  0  0  0  0  0
   -2.6767   -0.7553    0.0000 C   0  0  0  0  0  0  0  0  0  0  0  0
   -1.4115   -1.5611    0.0000 C   0  0  0  0  0  0  0  0  0  0  0  0
   -0.2542   -0.6068    0.0000 C   0  0  0  0  0  0  0  0  0  0  0  0
    1.2294   -0.8284    0.0000 C   0  0  0  0  0  0  0  0  0  0  0  0
    1.7793   -2.2239    0.0000 C   0  0  0  0  0  0  0  0  0  0  0  0
    0.8457   -3.3980    0.0000 O   0  0  0  0  0  0  0  0  0  0  0  0
    3.2628   -2.4455    0.0000 C   0  0  0  0  0  0  0  0  0  0  0  0
    4.1965   -1.2715    0.0000 C   0  0  0  0  0  0  0  0  0  0  0  0
    5.6800   -1.4930    0.0000 C   0  0  0  0  0  0  0  0  0  0  0  0
    6.6137   -0.3190    0.0000 C   0  0  0  0  0  0  0  0  0  0  0  0
    8.0972   -0.5405    0.0000 O   0  0  0  0  0  0  0  0  0  0  0  0
    6.0637    1.0766    0.0000 C   0  0  0  0  0  0  0  0  0  0  0  0
    4.5802    1.2981    0.0000 C   0  0  0  0  0  0  0  0  0  0  0  0
    3.6466    0.1241    0.0000 C   0  0  0  0  0  0  0  0  0  0  0  0
    3.0966    1.5197    0.0000 C   0  0  0  0  0  0  0  0  0  0  0  0
    2.1630    0.3456    0.0000 C   0  0  0  0  0  0  0  0  0  0  0  0
    1.6131    1.7412    0.0000 C   0  0  0  0  0  0  0  0  0  0  0  0
    0.1295    1.9627    0.0000 C   0  0  0  0  0  0  0  0  0  0  0  0
   -0.4204    3.3583    0.0000 O   0  0  0  0  0  0  0  0  0  0  0  0
   -0.8041    0.7887    0.0000 C   0  0  0  0  0  0  0  0  0  0  0  0
   -1.3295    2.1937    0.0000 C   0  0  0  0  0  0  0  0  0  0  0  0
  2  1  1  1
  2  3  1  0
  3  4  1  0
  4  5  1  0
  5  6  2  0
  5  7  1  0
  2  8  1  0
  8  9  1  1
  8 10  1  0
 10 11  1  0
 12 11  1  6
 12 13  1  0
 13 14  1  1
 14 15  1  1
 14 16  1  0
 17 16  1  1
 17 18  1  0
 18 19  1  0
 19 20  1  1
 19 21  1  0
 21 22  1  0
 22 23  1  0
 23 24  1  6
 23 25  1  0
 25 26  1  6
 26 27  1  0
 27 28  1  1
 27 29  1  0
 29 30  1  6
 29  8  1  0
 29 12  1  0
 25 13  1  0
 23 17  1  0
M  END
>  <MS_ID>  (3797) 
MS4332

>  <SMILES>  (3797) 
C[C@H](CCC(=O)O)[C@@]1(O)CC[C@H]2[C@@H]3[C@H](O)C[C@@H]4C[C@H](O)CC[C@]4(C)[C@H]3C[C@H](O)[C@@]21C

>  <Structure_dimension>  (3797) 
2D

$$$$
MS4334
     RDKit          2D

 36 39  0  0  0  0  0  0  0  0999 V2000
   -2.7716   -2.8696    0.0000 C   0  0  0  0  0  0  0  0  0  0  0  0
   -1.7192   -1.8007    0.0000 C   0  0  0  0  0  0  0  0  0  0  0  0
   -2.1187   -0.3549    0.0000 C   0  0  0  0  0  0  0  0  0  0  0  0
   -3.5705    0.0221    0.0000 C   0  0  0  0  0  0  0  0  0  0  0  0
   -3.9700    1.4679    0.0000 C   0  0  0  0  0  0  0  0  0  0  0  0
   -2.9176    2.5368    0.0000 O   0  0  0  0  0  0  0  0  0  0  0  0
   -5.4219    1.8449    0.0000 N   0  0  0  0  0  0  0  0  0  0  0  0
   -5.8213    3.2907    0.0000 C   0  0  0  0  0  0  0  0  0  0  0  0
   -6.4743    0.7760    0.0000 C   0  0  0  0  0  0  0  0  0  0  0  0
   -7.9261    1.1530    0.0000 C   0  0  0  0  0  0  0  0  0  0  0  0
   -8.9785    0.0841    0.0000 S   0  0  0  0  0  0  0  0  0  0  0  0
  -10.0474    1.1365    0.0000 O   0  0  0  0  0  0  0  0  0  0  0  0
   -7.9096   -0.9683    0.0000 O   0  0  0  0  0  0  0  0  0  0  0  0
  -10.0309   -0.9848    0.0000 O   0  0  0  0  0  0  0  0  0  0  0  0
   -0.2673   -2.1777    0.0000 C   0  0  0  0  0  0  0  0  0  0  0  0
    0.2811   -3.5738    0.0000 C   0  0  0  0  0  0  0  0  0  0  0  0
    1.7784   -3.4837    0.0000 C   0  0  0  0  0  0  0  0  0  0  0  0
    2.1553   -2.0318    0.0000 C   0  0  0  0  0  0  0  0  0  0  0  0
    3.4865   -1.3405    0.0000 C   0  0  0  0  0  0  0  0  0  0  0  0
    4.7508   -2.1476    0.0000 C   0  0  0  0  0  0  0  0  0  0  0  0
    4.6840   -3.6461    0.0000 O   0  0  0  0  0  0  0  0  0  0  0  0
    6.0820   -1.4563    0.0000 C   0  0  0  0  0  0  0  0  0  0  0  0
    6.1489    0.0422    0.0000 C   0  0  0  0  0  0  0  0  0  0  0  0
    7.4800    0.7336    0.0000 C   0  0  0  0  0  0  0  0  0  0  0  0
    7.5469    2.2321    0.0000 C   0  0  0  0  0  0  0  0  0  0  0  0
    8.8781    2.9234    0.0000 O   0  0  0  0  0  0  0  0  0  0  0  0
    6.2826    3.0393    0.0000 C   0  0  0  0  0  0  0  0  0  0  0  0
    4.9514    2.3479    0.0000 C   0  0  0  0  0  0  0  0  0  0  0  0
    4.8845    0.8494    0.0000 C   0  0  0  0  0  0  0  0  0  0  0  0
    3.6202    1.6566    0.0000 C   0  0  0  0  0  0  0  0  0  0  0  0
    3.5534    0.1580    0.0000 C   0  0  0  0  0  0  0  0  0  0  0  0
    2.2891    0.9652    0.0000 C   0  0  0  0  0  0  0  0  0  0  0  0
    0.9579    0.2739    0.0000 C   0  0  0  0  0  0  0  0  0  0  0  0
   -0.3064    1.0810    0.0000 O   0  0  0  0  0  0  0  0  0  0  0  0
    0.8910   -1.2247    0.0000 C   0  0  0  0  0  0  0  0  0  0  0  0
   -0.4507   -0.5541    0.0000 C   0  0  0  0  0  0  0  0  0  0  0  0
  2  1  1  6
  2  3  1  0
  3  4  1  0
  4  5  1  0
  5  6  2  0
  5  7  1  0
  7  8  1  0
  7  9  1  0
  9 10  1  0
 10 11  1  0
 11 12  2  0
 11 13  2  0
 11 14  1  0
  2 15  1  0
 15 16  1  6
 16 17  1  0
 18 17  1  6
 18 19  1  0
 19 20  1  1
 20 21  1  1
 20 22  1  0
 23 22  1  1
 23 24  1  0
 24 25  1  0
 25 26  1  1
 25 27  1  0
 27 28  1  0
 28 29  1  0
 29 30  1  6
 29 31  1  0
 31 32  1  6
 32 33  1  0
 33 34  1  1
 33 35  1  0
 35 36  1  6
 35 15  1  0
 35 18  1  0
 31 19  1  0
 29 23  1  0
M  END
>  <MS_ID>  (3798) 
MS4334

>  <SMILES>  (3798) 
C[C@H](CCC(=O)N(C)CCS(=O)(=O)O)[C@H]1CC[C@H]2[C@@H]3[C@H](O)C[C@@H]4C[C@H](O)CC[C@]4(C)[C@H]3C[C@H](O)[C@]12C

>  <Structure_dimension>  (3798) 
2D

$$$$
MS4335
     RDKit          2D

 38 42  0  0  0  0  0  0  0  0999 V2000
   -0.0357   -4.8788    0.0000 C   0  0  0  0  0  0  0  0  0  0  0  0
    0.4506   -3.4598    0.0000 C   0  0  0  0  0  0  0  0  0  0  0  0
   -0.5351   -2.3292    0.0000 C   0  0  0  0  0  0  0  0  0  0  0  0
   -2.0072   -2.6175    0.0000 C   0  0  0  0  0  0  0  0  0  0  0  0
   -2.9929   -1.4869    0.0000 C   0  0  0  0  0  0  0  0  0  0  0  0
   -2.5066   -0.0679    0.0000 O   0  0  0  0  0  0  0  0  0  0  0  0
   -4.4649   -1.7753    0.0000 O   0  0  0  0  0  0  0  0  0  0  0  0
   -5.4507   -0.6446    0.0000 C   0  0  0  0  0  0  0  0  0  0  0  0
   -6.9227   -0.9330    0.0000 C   0  0  0  0  0  0  0  0  0  0  0  0
   -7.9084    0.1977    0.0000 C   0  0  0  0  0  0  0  0  0  0  0  0
   -7.4221    1.6166    0.0000 C   0  0  0  0  0  0  0  0  0  0  0  0
   -8.4079    2.7473    0.0000 C   0  0  0  0  0  0  0  0  0  0  0  0
   -9.8799    2.4589    0.0000 C   0  0  0  0  0  0  0  0  0  0  0  0
  -10.8656    3.5896    0.0000 O   0  0  0  0  0  0  0  0  0  0  0  0
  -10.3662    1.0399    0.0000 C   0  0  0  0  0  0  0  0  0  0  0  0
  -11.8382    0.7516    0.0000 O   0  0  0  0  0  0  0  0  0  0  0  0
   -9.3804   -0.0907    0.0000 C   0  0  0  0  0  0  0  0  0  0  0  0
    1.9226   -3.1714    0.0000 C   0  0  0  0  0  0  0  0  0  0  0  0
    3.0211   -4.1928    0.0000 C   0  0  0  0  0  0  0  0  0  0  0  0
    4.3320   -3.4637    0.0000 C   0  0  0  0  0  0  0  0  0  0  0  0
    4.0437   -1.9917    0.0000 C   0  0  0  0  0  0  0  0  0  0  0  0
    4.9446   -0.7924    0.0000 C   0  0  0  0  0  0  0  0  0  0  0  0
    6.4337   -0.9731    0.0000 C   0  0  0  0  0  0  0  0  0  0  0  0
    7.0218   -2.3530    0.0000 O   0  0  0  0  0  0  0  0  0  0  0  0
    7.3347    0.2262    0.0000 C   0  0  0  0  0  0  0  0  0  0  0  0
    6.7466    1.6061    0.0000 C   0  0  0  0  0  0  0  0  0  0  0  0
    7.6476    2.8054    0.0000 C   0  0  0  0  0  0  0  0  0  0  0  0
    7.0595    4.1853    0.0000 C   0  0  0  0  0  0  0  0  0  0  0  0
    7.9604    5.3845    0.0000 O   0  0  0  0  0  0  0  0  0  0  0  0
    5.5704    4.3659    0.0000 C   0  0  0  0  0  0  0  0  0  0  0  0
    4.6694    3.1666    0.0000 C   0  0  0  0  0  0  0  0  0  0  0  0
    5.2575    1.7867    0.0000 C   0  0  0  0  0  0  0  0  0  0  0  0
    3.7684    1.9674    0.0000 C   0  0  0  0  0  0  0  0  0  0  0  0
    4.3565    0.5875    0.0000 C   0  0  0  0  0  0  0  0  0  0  0  0
    2.8674    0.7681    0.0000 C   0  0  0  0  0  0  0  0  0  0  0  0
    1.9665   -0.4312    0.0000 C   0  0  0  0  0  0  0  0  0  0  0  0
    2.5546   -1.8111    0.0000 C   0  0  0  0  0  0  0  0  0  0  0  0
    1.0548   -1.7871    0.0000 C   0  0  0  0  0  0  0  0  0  0  0  0
  2  1  1  6
  2  3  1  0
  3  4  1  0
  4  5  1  0
  5  6  2  0
  5  7  1  0
  7  8  1  0
  8  9  1  0
  9 10  1  0
 10 11  2  0
 11 12  1  0
 12 13  2  0
 13 14  1  0
 13 15  1  0
 15 16  1  0
 15 17  2  0
  2 18  1  0
 18 19  1  6
 19 20  1  0
 21 20  1  6
 21 22  1  0
 22 23  1  1
 23 24  1  6
 23 25  1  0
 26 25  1  1
 26 27  1  0
 27 28  1  0
 28 29  1  1
 28 30  1  0
 30 31  1  0
 31 32  1  0
 32 33  1  6
 32 34  1  0
 34 35  1  6
 35 36  1  0
 36 37  1  0
 37 38  1  6
 17 10  1  0
 37 18  1  0
 37 21  1  0
 34 22  1  0
 32 26  1  0
M  END
>  <MS_ID>  (3799) 
MS4335

>  <SMILES>  (3799) 
C[C@H](CCC(=O)OCCc1ccc(O)c(O)c1)[C@H]1CC[C@H]2[C@@H]3[C@@H](O)C[C@@H]4C[C@H](O)CC[C@]4(C)[C@H]3CC[C@]12C

>  <Structure_dimension>  (3799) 
2D

$$$$
MS4336
     RDKit          2D

 29 32  0  0  0  0  0  0  0  0999 V2000
   -5.2182   -2.1453    0.0000 C   0  0  0  0  0  0  0  0  0  0  0  0
   -4.0752   -1.1739    0.0000 C   0  0  0  0  0  0  0  0  0  0  0  0
   -4.3449    0.3016    0.0000 C   0  0  0  0  0  0  0  0  0  0  0  0
   -5.7577    0.8058    0.0000 C   0  0  0  0  0  0  0  0  0  0  0  0
   -6.0274    2.2814    0.0000 C   0  0  0  0  0  0  0  0  0  0  0  0
   -4.8843    3.2527    0.0000 O   0  0  0  0  0  0  0  0  0  0  0  0
   -7.4401    2.7856    0.0000 O   0  0  0  0  0  0  0  0  0  0  0  0
   -2.6625   -1.6782    0.0000 C   0  0  0  0  0  0  0  0  0  0  0  0
   -2.2400   -3.1174    0.0000 C   0  0  0  0  0  0  0  0  0  0  0  0
   -0.7407   -3.1604    0.0000 C   0  0  0  0  0  0  0  0  0  0  0  0
   -0.2364   -1.7477    0.0000 C   0  0  0  0  0  0  0  0  0  0  0  0
    1.1508   -1.1771    0.0000 C   0  0  0  0  0  0  0  0  0  0  0  0
    2.3386   -2.0932    0.0000 C   0  0  0  0  0  0  0  0  0  0  0  0
    2.1391   -3.5798    0.0000 O   0  0  0  0  0  0  0  0  0  0  0  0
    3.7258   -1.5226    0.0000 C   0  0  0  0  0  0  0  0  0  0  0  0
    4.9136   -2.4386    0.0000 O   0  0  0  0  0  0  0  0  0  0  0  0
    3.9253   -0.0359    0.0000 C   0  0  0  0  0  0  0  0  0  0  0  0
    5.3125    0.5347    0.0000 C   0  0  0  0  0  0  0  0  0  0  0  0
    5.5119    2.0214    0.0000 C   0  0  0  0  0  0  0  0  0  0  0  0
    6.8992    2.5920    0.0000 O   0  0  0  0  0  0  0  0  0  0  0  0
    4.3242    2.9375    0.0000 C   0  0  0  0  0  0  0  0  0  0  0  0
    2.9369    2.3669    0.0000 C   0  0  0  0  0  0  0  0  0  0  0  0
    2.7375    0.8802    0.0000 C   0  0  0  0  0  0  0  0  0  0  0  0
    1.5497    1.7963    0.0000 C   0  0  0  0  0  0  0  0  0  0  0  0
    1.3502    0.3096    0.0000 C   0  0  0  0  0  0  0  0  0  0  0  0
    0.1625    1.2257    0.0000 C   0  0  0  0  0  0  0  0  0  0  0  0
   -1.2248    0.6551    0.0000 C   0  0  0  0  0  0  0  0  0  0  0  0
   -1.4242   -0.8316    0.0000 C   0  0  0  0  0  0  0  0  0  0  0  0
   -2.7012   -0.0447    0.0000 C   0  0  0  0  0  0  0  0  0  0  0  0
  2  1  1  6
  2  3  1  0
  3  4  1  0
  4  5  1  0
  5  6  2  0
  5  7  1  0
  2  8  1  0
  8  9  1  6
  9 10  1  0
 11 10  1  6
 11 12  1  0
 12 13  1  1
 13 14  1  1
 13 15  1  0
 15 16  1  1
 15 17  1  0
 17 18  1  1
 18 19  1  0
 19 20  2  0
 19 21  1  0
 21 22  1  0
 22 23  1  0
 23 24  1  6
 23 25  1  0
 25 26  1  6
 26 27  1  0
 27 28  1  0
 28 29  1  6
 28  8  1  0
 28 11  1  0
 25 12  1  0
 23 17  1  0
M  END
>  <MS_ID>  (3800) 
MS4336

>  <SMILES>  (3800) 
C[C@H](CCC(=O)O)[C@H]1CC[C@H]2[C@@H]3[C@H](O)[C@H](O)[C@@H]4CC(=O)CC[C@]4(C)[C@H]3CC[C@]12C

>  <Structure_dimension>  (3800) 
2D

$$$$
MS4338
     RDKit          2D

 36 40  0  0  0  0  0  0  0  0999 V2000
   -1.3594   -4.5884    0.0000 C   0  0  0  0  0  0  0  0  0  0  0  0
   -0.7492   -3.2182    0.0000 C   0  0  0  0  0  0  0  0  0  0  0  0
   -1.6307   -2.0046    0.0000 C   0  0  0  0  0  0  0  0  0  0  0  0
   -3.1225   -2.1613    0.0000 C   0  0  0  0  0  0  0  0  0  0  0  0
   -4.0041   -0.9477    0.0000 C   0  0  0  0  0  0  0  0  0  0  0  0
   -3.3939    0.4226    0.0000 O   0  0  0  0  0  0  0  0  0  0  0  0
   -5.4959   -1.1043    0.0000 N   0  0  0  0  0  0  0  0  0  0  0  0
   -6.3775    0.1092    0.0000 C   0  0  0  0  0  0  0  0  0  0  0  0
   -7.8693   -0.0474    0.0000 C   0  0  0  0  0  0  0  0  0  0  0  0
   -8.7509    1.1661    0.0000 C   0  0  0  0  0  0  0  0  0  0  0  0
  -10.2509    1.1662    0.0000 C   0  0  0  0  0  0  0  0  0  0  0  0
  -10.7143    2.5929    0.0000 N   0  0  0  0  0  0  0  0  0  0  0  0
   -9.5007    3.4745    0.0000 C   0  0  0  0  0  0  0  0  0  0  0  0
   -8.2873    2.5927    0.0000 N   0  0  0  0  0  0  0  0  0  0  0  0
    0.7426   -3.0615    0.0000 C   0  0  0  0  0  0  0  0  0  0  0  0
    1.7463   -4.1763    0.0000 C   0  0  0  0  0  0  0  0  0  0  0  0
    3.1166   -3.5662    0.0000 C   0  0  0  0  0  0  0  0  0  0  0  0
    2.9599   -2.0745    0.0000 C   0  0  0  0  0  0  0  0  0  0  0  0
    3.9637   -0.9598    0.0000 C   0  0  0  0  0  0  0  0  0  0  0  0
    5.4309   -1.2718    0.0000 C   0  0  0  0  0  0  0  0  0  0  0  0
    5.8943   -2.6984    0.0000 O   0  0  0  0  0  0  0  0  0  0  0  0
    6.4347   -0.1571    0.0000 C   0  0  0  0  0  0  0  0  0  0  0  0
    5.9713    1.2695    0.0000 C   0  0  0  0  0  0  0  0  0  0  0  0
    6.9750    2.3841    0.0000 C   0  0  0  0  0  0  0  0  0  0  0  0
    6.5116    3.8107    0.0000 C   0  0  0  0  0  0  0  0  0  0  0  0
    7.5154    4.9254    0.0000 O   0  0  0  0  0  0  0  0  0  0  0  0
    5.0444    4.1227    0.0000 C   0  0  0  0  0  0  0  0  0  0  0  0
    4.0406    3.0081    0.0000 C   0  0  0  0  0  0  0  0  0  0  0  0
    4.5041    1.5815    0.0000 C   0  0  0  0  0  0  0  0  0  0  0  0
    3.0369    1.8934    0.0000 C   0  0  0  0  0  0  0  0  0  0  0  0
    3.5003    0.4668    0.0000 C   0  0  0  0  0  0  0  0  0  0  0  0
    2.0331    0.7788    0.0000 C   0  0  0  0  0  0  0  0  0  0  0  0
    1.0293   -0.3359    0.0000 C   0  0  0  0  0  0  0  0  0  0  0  0
   -0.4379   -0.0239    0.0000 O   0  0  0  0  0  0  0  0  0  0  0  0
    1.4927   -1.7625    0.0000 C   0  0  0  0  0  0  0  0  0  0  0  0
    0.0010   -1.6056    0.0000 C   0  0  0  0  0  0  0  0  0  0  0  0
  2  1  1  6
  2  3  1  0
  3  4  1  0
  4  5  1  0
  5  6  2  0
  5  7  1  0
  7  8  1  0
  8  9  1  0
  9 10  1  0
 10 11  2  0
 11 12  1  0
 12 13  2  0
 13 14  1  0
  2 15  1  0
 15 16  1  6
 16 17  1  0
 18 17  1  6
 18 19  1  0
 19 20  1  1
 20 21  1  1
 20 22  1  0
 23 22  1  1
 23 24  1  0
 24 25  1  0
 25 26  1  1
 25 27  1  0
 27 28  1  0
 28 29  1  0
 29 30  1  6
 29 31  1  0
 31 32  1  6
 32 33  1  0
 33 34  1  1
 33 35  1  0
 35 36  1  6
 14 10  1  0
 35 15  1  0
 35 18  1  0
 31 19  1  0
 29 23  1  0
M  END
>  <MS_ID>  (3801) 
MS4338

>  <SMILES>  (3801) 
C[C@H](CCC(=O)NCCc1cnc[nH]1)[C@H]1CC[C@H]2[C@@H]3[C@H](O)C[C@@H]4C[C@H](O)CC[C@]4(C)[C@H]3C[C@H](O)[C@]12C

>  <Structure_dimension>  (3801) 
2D

$$$$
MS4339
     RDKit          2D

 30 33  0  0  0  0  0  0  0  0999 V2000
   -5.1134   -2.2540    0.0000 C   0  0  0  0  0  0  0  0  0  0  0  0
   -3.9811   -1.2701    0.0000 C   0  0  0  0  0  0  0  0  0  0  0  0
   -4.2670    0.2024    0.0000 C   0  0  0  0  0  0  0  0  0  0  0  0
   -5.6852    0.6910    0.0000 C   0  0  0  0  0  0  0  0  0  0  0  0
   -5.9711    2.1635    0.0000 C   0  0  0  0  0  0  0  0  0  0  0  0
   -4.8388    3.1474    0.0000 O   0  0  0  0  0  0  0  0  0  0  0  0
   -7.3892    2.6522    0.0000 O   0  0  0  0  0  0  0  0  0  0  0  0
   -2.5629   -1.7588    0.0000 C   0  0  0  0  0  0  0  0  0  0  0  0
   -2.1247   -3.1933    0.0000 C   0  0  0  0  0  0  0  0  0  0  0  0
   -0.6249   -3.2198    0.0000 C   0  0  0  0  0  0  0  0  0  0  0  0
   -0.1362   -1.8017    0.0000 C   0  0  0  0  0  0  0  0  0  0  0  0
    1.2446   -1.2159    0.0000 C   0  0  0  0  0  0  0  0  0  0  0  0
    2.4424   -2.1188    0.0000 C   0  0  0  0  0  0  0  0  0  0  0  0
    2.2593   -3.6076    0.0000 O   0  0  0  0  0  0  0  0  0  0  0  0
    3.8233   -1.5330    0.0000 C   0  0  0  0  0  0  0  0  0  0  0  0
    5.0210   -2.4360    0.0000 O   0  0  0  0  0  0  0  0  0  0  0  0
    4.0064   -0.0442    0.0000 C   0  0  0  0  0  0  0  0  0  0  0  0
    5.3873    0.5416    0.0000 C   0  0  0  0  0  0  0  0  0  0  0  0
    5.5704    2.0303    0.0000 C   0  0  0  0  0  0  0  0  0  0  0  0
    6.9513    2.6161    0.0000 O   0  0  0  0  0  0  0  0  0  0  0  0
    4.3726    2.9333    0.0000 C   0  0  0  0  0  0  0  0  0  0  0  0
    2.9918    2.3475    0.0000 C   0  0  0  0  0  0  0  0  0  0  0  0
    2.8086    0.8587    0.0000 C   0  0  0  0  0  0  0  0  0  0  0  0
    1.6109    1.7617    0.0000 C   0  0  0  0  0  0  0  0  0  0  0  0
    1.4278    0.2729    0.0000 C   0  0  0  0  0  0  0  0  0  0  0  0
    0.2300    1.1759    0.0000 C   0  0  0  0  0  0  0  0  0  0  0  0
   -1.1509    0.5901    0.0000 C   0  0  0  0  0  0  0  0  0  0  0  0
   -2.3486    1.4931    0.0000 O   0  0  0  0  0  0  0  0  0  0  0  0
   -1.3340   -0.8987    0.0000 C   0  0  0  0  0  0  0  0  0  0  0  0
   -2.6196   -0.1258    0.0000 C   0  0  0  0  0  0  0  0  0  0  0  0
  2  1  1  6
  2  3  1  0
  3  4  1  0
  4  5  1  0
  5  6  2  0
  5  7  1  0
  2  8  1  0
  8  9  1  6
  9 10  1  0
 11 10  1  6
 11 12  1  0
 12 13  1  1
 13 14  1  6
 13 15  1  0
 15 16  1  1
 15 17  1  0
 17 18  1  6
 18 19  1  0
 19 20  1  1
 19 21  1  0
 21 22  1  0
 22 23  1  0
 23 24  1  6
 23 25  1  0
 25 26  1  6
 26 27  1  0
 27 28  1  1
 27 29  1  0
 29 30  1  6
 29  8  1  0
 29 11  1  0
 25 12  1  0
 23 17  1  0
M  END
>  <MS_ID>  (3802) 
MS4339

>  <SMILES>  (3802) 
C[C@H](CCC(=O)O)[C@H]1CC[C@H]2[C@@H]3[C@@H](O)[C@H](O)[C@H]4C[C@H](O)CC[C@]4(C)[C@H]3C[C@H](O)[C@]12C

>  <Structure_dimension>  (3802) 
2D

$$$$
MS4340
     RDKit          2D

 35 38  0  0  0  0  0  0  0  0999 V2000
   -2.0200   -4.3028    0.0000 C   0  0  0  0  0  0  0  0  0  0  0  0
   -1.3087   -2.9822    0.0000 C   0  0  0  0  0  0  0  0  0  0  0  0
   -2.0967   -1.7059    0.0000 C   0  0  0  0  0  0  0  0  0  0  0  0
   -3.5960   -1.7502    0.0000 C   0  0  0  0  0  0  0  0  0  0  0  0
   -4.3840   -0.4738    0.0000 C   0  0  0  0  0  0  0  0  0  0  0  0
   -3.6727    0.8468    0.0000 O   0  0  0  0  0  0  0  0  0  0  0  0
   -5.8834   -0.5181    0.0000 N   0  0  0  0  0  0  0  0  0  0  0  0
   -6.6714    0.7582    0.0000 C   0  0  0  0  0  0  0  0  0  0  0  0
   -8.1707    0.7140    0.0000 C   0  0  0  0  0  0  0  0  0  0  0  0
   -8.9588    1.9903    0.0000 S   0  0  0  0  0  0  0  0  0  0  0  0
  -10.2351    1.2023    0.0000 O   0  0  0  0  0  0  0  0  0  0  0  0
   -7.6824    2.7783    0.0000 O   0  0  0  0  0  0  0  0  0  0  0  0
   -9.7468    3.2667    0.0000 O   0  0  0  0  0  0  0  0  0  0  0  0
    0.1907   -2.9379    0.0000 C   0  0  0  0  0  0  0  0  0  0  0  0
    1.1078   -4.1249    0.0000 C   0  0  0  0  0  0  0  0  0  0  0  0
    2.5201   -3.6195    0.0000 C   0  0  0  0  0  0  0  0  0  0  0  0
    2.4758   -2.1201    0.0000 C   0  0  0  0  0  0  0  0  0  0  0  0
    3.5604   -1.0840    0.0000 C   0  0  0  0  0  0  0  0  0  0  0  0
    5.0001   -1.5052    0.0000 C   0  0  0  0  0  0  0  0  0  0  0  0
    5.3551   -2.9626    0.0000 O   0  0  0  0  0  0  0  0  0  0  0  0
    6.0847   -0.4691    0.0000 C   0  0  0  0  0  0  0  0  0  0  0  0
    5.7296    0.9883    0.0000 C   0  0  0  0  0  0  0  0  0  0  0  0
    6.8142    2.0245    0.0000 C   0  0  0  0  0  0  0  0  0  0  0  0
    6.4592    3.4819    0.0000 C   0  0  0  0  0  0  0  0  0  0  0  0
    7.5438    4.5180    0.0000 O   0  0  0  0  0  0  0  0  0  0  0  0
    5.0196    3.9031    0.0000 C   0  0  0  0  0  0  0  0  0  0  0  0
    3.9350    2.8669    0.0000 C   0  0  0  0  0  0  0  0  0  0  0  0
    4.2900    1.4095    0.0000 C   0  0  0  0  0  0  0  0  0  0  0  0
    2.8503    1.8308    0.0000 C   0  0  0  0  0  0  0  0  0  0  0  0
    3.2054    0.3734    0.0000 C   0  0  0  0  0  0  0  0  0  0  0  0
    1.7657    0.7946    0.0000 C   0  0  0  0  0  0  0  0  0  0  0  0
    0.6811   -0.2416    0.0000 C   0  0  0  0  0  0  0  0  0  0  0  0
   -0.7585    0.1797    0.0000 O   0  0  0  0  0  0  0  0  0  0  0  0
    1.0362   -1.6989    0.0000 C   0  0  0  0  0  0  0  0  0  0  0  0
   -0.4396   -1.4305    0.0000 C   0  0  0  0  0  0  0  0  0  0  0  0
  2  1  1  6
  2  3  1  0
  3  4  1  0
  4  5  1  0
  5  6  2  0
  5  7  1  0
  7  8  1  0
  8  9  1  0
  9 10  1  0
 10 11  2  0
 10 12  2  0
 10 13  1  0
  2 14  1  0
 14 15  1  6
 15 16  1  0
 17 16  1  6
 17 18  1  0
 18 19  1  1
 19 20  1  6
 19 21  1  0
 22 21  1  1
 22 23  1  0
 23 24  1  0
 24 25  1  1
 24 26  1  0
 26 27  1  0
 27 28  1  0
 28 29  1  6
 28 30  1  0
 30 31  1  6
 31 32  1  0
 32 33  1  6
 32 34  1  0
 34 35  1  6
 34 14  1  0
 34 17  1  0
 30 18  1  0
 28 22  1  0
M  END
>  <MS_ID>  (3803) 
MS4340

>  <SMILES>  (3803) 
C[C@H](CCC(=O)NCCS(=O)(=O)O)[C@H]1CC[C@H]2[C@@H]3[C@@H](O)C[C@@H]4C[C@H](O)CC[C@]4(C)[C@H]3C[C@@H](O)[C@]12C

>  <Structure_dimension>  (3803) 
2D

$$$$
MS4344
     RDKit          2D

 29 32  0  0  0  0  0  0  0  0999 V2000
   -5.0303   -2.1373    0.0000 C   0  0  0  0  0  0  0  0  0  0  0  0
   -3.8594   -1.1998    0.0000 C   0  0  0  0  0  0  0  0  0  0  0  0
   -4.0858    0.2830    0.0000 C   0  0  0  0  0  0  0  0  0  0  0  0
   -5.4831    0.8284    0.0000 C   0  0  0  0  0  0  0  0  0  0  0  0
   -5.7095    2.3112    0.0000 C   0  0  0  0  0  0  0  0  0  0  0  0
   -4.5386    3.2487    0.0000 O   0  0  0  0  0  0  0  0  0  0  0  0
   -7.1069    2.8565    0.0000 O   0  0  0  0  0  0  0  0  0  0  0  0
   -2.4620   -1.7451    0.0000 C   0  0  0  0  0  0  0  0  0  0  0  0
   -2.0818   -3.1961    0.0000 C   0  0  0  0  0  0  0  0  0  0  0  0
   -0.5844   -3.2830    0.0000 C   0  0  0  0  0  0  0  0  0  0  0  0
   -0.0390   -1.8856    0.0000 C   0  0  0  0  0  0  0  0  0  0  0  0
    1.3643   -1.3559    0.0000 C   0  0  0  0  0  0  0  0  0  0  0  0
    2.5248   -2.3063    0.0000 C   0  0  0  0  0  0  0  0  0  0  0  0
    2.2819   -3.7865    0.0000 O   0  0  0  0  0  0  0  0  0  0  0  0
    3.9281   -1.7765    0.0000 C   0  0  0  0  0  0  0  0  0  0  0  0
    4.1710   -0.2963    0.0000 C   0  0  0  0  0  0  0  0  0  0  0  0
    5.5743    0.2334    0.0000 C   0  0  0  0  0  0  0  0  0  0  0  0
    5.8172    1.7136    0.0000 C   0  0  0  0  0  0  0  0  0  0  0  0
    7.2205    2.2434    0.0000 O   0  0  0  0  0  0  0  0  0  0  0  0
    4.6568    2.6641    0.0000 C   0  0  0  0  0  0  0  0  0  0  0  0
    3.2534    2.1343    0.0000 C   0  0  0  0  0  0  0  0  0  0  0  0
    3.0105    0.6541    0.0000 C   0  0  0  0  0  0  0  0  0  0  0  0
    1.8501    1.6046    0.0000 C   0  0  0  0  0  0  0  0  0  0  0  0
    1.6072    0.1244    0.0000 C   0  0  0  0  0  0  0  0  0  0  0  0
    0.4467    1.0748    0.0000 C   0  0  0  0  0  0  0  0  0  0  0  0
   -0.9566    0.5450    0.0000 C   0  0  0  0  0  0  0  0  0  0  0  0
   -2.1170    1.4955    0.0000 O   0  0  0  0  0  0  0  0  0  0  0  0
   -1.1995   -0.9352    0.0000 C   0  0  0  0  0  0  0  0  0  0  0  0
   -2.4529   -0.1112    0.0000 C   0  0  0  0  0  0  0  0  0  0  0  0
  2  1  1  6
  2  3  1  0
  3  4  1  0
  4  5  1  0
  5  6  2  0
  5  7  1  0
  2  8  1  0
  8  9  1  6
  9 10  1  0
 11 10  1  6
 11 12  1  0
 12 13  1  6
 13 14  1  1
 13 15  1  0
 16 15  1  1
 16 17  1  0
 17 18  1  0
 18 19  1  1
 18 20  1  0
 20 21  1  0
 21 22  1  0
 22 23  1  6
 22 24  1  0
 24 25  1  6
 25 26  1  0
 26 27  1  1
 26 28  1  0
 28 29  1  6
 28  8  1  0
 28 11  1  0
 24 12  1  0
 22 16  1  0
M  END
>  <MS_ID>  (3804) 
MS4344

>  <SMILES>  (3804) 
C[C@H](CCC(=O)O)[C@H]1CC[C@H]2[C@H]3[C@H](O)C[C@@H]4C[C@H](O)CC[C@]4(C)[C@H]3C[C@H](O)[C@]12C

>  <Structure_dimension>  (3804) 
2D

$$$$
MS4347
     RDKit          2D

 28 31  0  0  0  0  0  0  0  0999 V2000
   -4.7072   -2.4443    0.0000 C   0  0  0  0  0  0  0  0  0  0  0  0
   -3.6076   -1.4240    0.0000 C   0  0  0  0  0  0  0  0  0  0  0  0
   -3.9414    0.0384    0.0000 C   0  0  0  0  0  0  0  0  0  0  0  0
   -5.3748    0.4805    0.0000 C   0  0  0  0  0  0  0  0  0  0  0  0
   -5.7086    1.9429    0.0000 C   0  0  0  0  0  0  0  0  0  0  0  0
   -4.6090    2.9631    0.0000 O   0  0  0  0  0  0  0  0  0  0  0  0
   -7.1419    2.3850    0.0000 O   0  0  0  0  0  0  0  0  0  0  0  0
   -2.1742   -1.8661    0.0000 C   0  0  0  0  0  0  0  0  0  0  0  0
   -1.6894   -3.2856    0.0000 C   0  0  0  0  0  0  0  0  0  0  0  0
   -0.1896   -3.2632    0.0000 C   0  0  0  0  0  0  0  0  0  0  0  0
    0.2525   -1.8298    0.0000 C   0  0  0  0  0  0  0  0  0  0  0  0
    1.6136   -1.1992    0.0000 C   0  0  0  0  0  0  0  0  0  0  0  0
    2.8402   -2.0627    0.0000 C   0  0  0  0  0  0  0  0  0  0  0  0
    4.2012   -1.4321    0.0000 C   0  0  0  0  0  0  0  0  0  0  0  0
    5.4278   -2.2955    0.0000 O   0  0  0  0  0  0  0  0  0  0  0  0
    4.3356    0.0619    0.0000 C   0  0  0  0  0  0  0  0  0  0  0  0
    5.6967    0.6924    0.0000 C   0  0  0  0  0  0  0  0  0  0  0  0
    5.8311    2.1864    0.0000 C   0  0  0  0  0  0  0  0  0  0  0  0
    4.6045    3.0498    0.0000 C   0  0  0  0  0  0  0  0  0  0  0  0
    3.2435    2.4192    0.0000 C   0  0  0  0  0  0  0  0  0  0  0  0
    3.1090    0.9253    0.0000 C   0  0  0  0  0  0  0  0  0  0  0  0
    1.8825    1.7887    0.0000 C   0  0  0  0  0  0  0  0  0  0  0  0
    1.7480    0.2947    0.0000 C   0  0  0  0  0  0  0  0  0  0  0  0
    0.5214    1.1581    0.0000 C   0  0  0  0  0  0  0  0  0  0  0  0
   -0.8396    0.5276    0.0000 C   0  0  0  0  0  0  0  0  0  0  0  0
   -2.0662    1.3910    0.0000 O   0  0  0  0  0  0  0  0  0  0  0  0
   -0.9740   -0.9664    0.0000 C   0  0  0  0  0  0  0  0  0  0  0  0
   -2.2842   -0.2359    0.0000 C   0  0  0  0  0  0  0  0  0  0  0  0
  2  1  1  6
  2  3  1  0
  3  4  1  0
  4  5  1  0
  5  6  2  0
  5  7  1  0
  2  8  1  0
  8  9  1  6
  9 10  1  0
 11 10  1  6
 11 12  1  0
 12 13  1  1
 13 14  1  0
 14 15  1  6
 14 16  1  0
 16 17  1  1
 17 18  1  0
 18 19  1  0
 19 20  1  0
 20 21  1  0
 21 22  1  6
 21 23  1  0
 23 24  1  6
 24 25  1  0
 25 26  1  1
 25 27  1  0
 27 28  1  6
 27  8  1  0
 27 11  1  0
 23 12  1  0
 21 16  1  0
M  END
>  <MS_ID>  (3805) 
MS4347

>  <SMILES>  (3805) 
C[C@H](CCC(=O)O)[C@H]1CC[C@H]2[C@@H]3C[C@@H](O)[C@@H]4CCCC[C@]4(C)[C@H]3C[C@H](O)[C@]12C

>  <Structure_dimension>  (3805) 
2D

$$$$
MS4348
     RDKit          2D

 31 34  0  0  0  0  0  0  0  0999 V2000
   -2.8633   -3.9386    0.0000 C   0  0  0  0  0  0  0  0  0  0  0  0
   -2.0152   -2.7014    0.0000 C   0  0  0  0  0  0  0  0  0  0  0  0
   -2.6625   -1.3483    0.0000 C   0  0  0  0  0  0  0  0  0  0  0  0
   -4.1580   -1.2323    0.0000 C   0  0  0  0  0  0  0  0  0  0  0  0
   -4.8053    0.1208    0.0000 C   0  0  0  0  0  0  0  0  0  0  0  0
   -3.9572    1.3580    0.0000 O   0  0  0  0  0  0  0  0  0  0  0  0
   -6.3008    0.2368    0.0000 N   0  0  0  0  0  0  0  0  0  0  0  0
   -6.9482    1.5899    0.0000 C   0  0  0  0  0  0  0  0  0  0  0  0
   -8.4437    1.7059    0.0000 C   0  0  0  0  0  0  0  0  0  0  0  0
   -9.0910    3.0590    0.0000 C   0  0  0  0  0  0  0  0  0  0  0  0
  -10.5865    3.1750    0.0000 N   0  0  0  0  0  0  0  0  0  0  0  0
   -0.5197   -2.8173    0.0000 C   0  0  0  0  0  0  0  0  0  0  0  0
    0.2656   -4.0954    0.0000 C   0  0  0  0  0  0  0  0  0  0  0  0
    1.7237   -3.7436    0.0000 C   0  0  0  0  0  0  0  0  0  0  0  0
    1.8397   -2.2480    0.0000 C   0  0  0  0  0  0  0  0  0  0  0  0
    3.0287   -1.3335    0.0000 C   0  0  0  0  0  0  0  0  0  0  0  0
    4.4151   -1.9060    0.0000 C   0  0  0  0  0  0  0  0  0  0  0  0
    5.6041   -0.9914    0.0000 C   0  0  0  0  0  0  0  0  0  0  0  0
    5.4066    0.4955    0.0000 C   0  0  0  0  0  0  0  0  0  0  0  0
    6.5956    1.4100    0.0000 C   0  0  0  0  0  0  0  0  0  0  0  0
    6.3981    2.8970    0.0000 C   0  0  0  0  0  0  0  0  0  0  0  0
    7.5871    3.8115    0.0000 O   0  0  0  0  0  0  0  0  0  0  0  0
    5.0116    3.4694    0.0000 C   0  0  0  0  0  0  0  0  0  0  0  0
    3.8226    2.5549    0.0000 C   0  0  0  0  0  0  0  0  0  0  0  0
    4.0201    1.0679    0.0000 C   0  0  0  0  0  0  0  0  0  0  0  0
    2.6336    1.6404    0.0000 C   0  0  0  0  0  0  0  0  0  0  0  0
    2.8312    0.1534    0.0000 C   0  0  0  0  0  0  0  0  0  0  0  0
    1.4447    0.7258    0.0000 C   0  0  0  0  0  0  0  0  0  0  0  0
    0.2557   -0.1887    0.0000 C   0  0  0  0  0  0  0  0  0  0  0  0
    0.4532   -1.6756    0.0000 C   0  0  0  0  0  0  0  0  0  0  0  0
   -0.9855   -1.2513    0.0000 C   0  0  0  0  0  0  0  0  0  0  0  0
  2  1  1  6
  2  3  1  0
  3  4  1  0
  4  5  1  0
  5  6  2  0
  5  7  1  0
  7  8  1  0
  8  9  1  0
  9 10  1  0
 10 11  1  0
  2 12  1  0
 12 13  1  6
 13 14  1  0
 15 14  1  6
 15 16  1  0
 16 17  1  1
 17 18  1  0
 19 18  1  1
 19 20  1  0
 20 21  1  0
 21 22  1  1
 21 23  1  0
 23 24  1  0
 24 25  1  0
 25 26  1  6
 25 27  1  0
 27 28  1  6
 28 29  1  0
 29 30  1  0
 30 31  1  6
 30 12  1  0
 30 15  1  0
 27 16  1  0
 25 19  1  0
M  END
>  <MS_ID>  (3806) 
MS4348

>  <SMILES>  (3806) 
C[C@H](CCC(=O)NCCCN)[C@H]1CC[C@H]2[C@@H]3CC[C@@H]4C[C@H](O)CC[C@]4(C)[C@H]3CC[C@]12C

>  <Structure_dimension>  (3806) 
2D

$$$$
MS4352
     RDKit          2D

 28 31  0  0  0  0  0  0  0  0999 V2000
   -5.0096   -2.1352    0.0000 C   0  0  0  0  0  0  0  0  0  0  0  0
   -3.8132   -1.2303    0.0000 C   0  0  0  0  0  0  0  0  0  0  0  0
   -3.9987    0.2582    0.0000 C   0  0  0  0  0  0  0  0  0  0  0  0
   -5.3805    0.8418    0.0000 C   0  0  0  0  0  0  0  0  0  0  0  0
   -5.5659    2.3303    0.0000 C   0  0  0  0  0  0  0  0  0  0  0  0
   -4.3695    3.2351    0.0000 O   0  0  0  0  0  0  0  0  0  0  0  0
   -6.9477    2.9140    0.0000 O   0  0  0  0  0  0  0  0  0  0  0  0
   -2.4315   -1.8140    0.0000 C   0  0  0  0  0  0  0  0  0  0  0  0
   -2.0914   -3.2749    0.0000 C   0  0  0  0  0  0  0  0  0  0  0  0
   -0.5969   -3.4030    0.0000 C   0  0  0  0  0  0  0  0  0  0  0  0
   -0.0133   -2.0212    0.0000 C   0  0  0  0  0  0  0  0  0  0  0  0
    1.4041   -1.5304    0.0000 C   0  0  0  0  0  0  0  0  0  0  0  0
    2.5379   -2.5125    0.0000 C   0  0  0  0  0  0  0  0  0  0  0  0
    3.9554   -2.0216    0.0000 C   0  0  0  0  0  0  0  0  0  0  0  0
    4.2390   -0.5487    0.0000 C   0  0  0  0  0  0  0  0  0  0  0  0
    5.6564   -0.0578    0.0000 C   0  0  0  0  0  0  0  0  0  0  0  0
    5.9400    1.4151    0.0000 C   0  0  0  0  0  0  0  0  0  0  0  0
    7.3574    1.9060    0.0000 O   0  0  0  0  0  0  0  0  0  0  0  0
    4.8062    2.3972    0.0000 C   0  0  0  0  0  0  0  0  0  0  0  0
    3.3888    1.9064    0.0000 C   0  0  0  0  0  0  0  0  0  0  0  0
    3.1052    0.4334    0.0000 C   0  0  0  0  0  0  0  0  0  0  0  0
    1.9714    1.4155    0.0000 C   0  0  0  0  0  0  0  0  0  0  0  0
    1.6878   -0.0574    0.0000 C   0  0  0  0  0  0  0  0  0  0  0  0
    0.5540    0.9246    0.0000 C   0  0  0  0  0  0  0  0  0  0  0  0
   -0.8635    0.4338    0.0000 C   0  0  0  0  0  0  0  0  0  0  0  0
   -1.9973    1.4159    0.0000 O   0  0  0  0  0  0  0  0  0  0  0  0
   -1.1471   -1.0392    0.0000 C   0  0  0  0  0  0  0  0  0  0  0  0
   -2.3773   -0.1810    0.0000 C   0  0  0  0  0  0  0  0  0  0  0  0
  2  1  1  1
  2  3  1  0
  3  4  1  0
  4  5  1  0
  5  6  2  0
  5  7  1  0
  2  8  1  0
  8  9  1  6
  9 10  1  0
 11 10  1  6
 11 12  1  0
 12 13  1  1
 13 14  1  0
 15 14  1  6
 15 16  1  0
 16 17  1  0
 17 18  1  6
 17 19  1  0
 19 20  1  0
 20 21  1  0
 21 22  1  6
 21 23  1  0
 23 24  1  6
 24 25  1  0
 25 26  1  6
 25 27  1  0
 27 28  1  6
 27  8  1  0
 27 11  1  0
 23 12  1  0
 21 15  1  0
M  END
>  <MS_ID>  (3807) 
MS4352

>  <SMILES>  (3807) 
C[C@@H](CCC(=O)O)[C@H]1CC[C@H]2[C@@H]3CC[C@H]4C[C@@H](O)CC[C@]4(C)[C@H]3C[C@@H](O)[C@]12C

>  <Structure_dimension>  (3807) 
2D

$$$$
MS4353
     RDKit          2D

 39 42  0  0  0  0  0  0  0  0999 V2000
   -2.5643   -4.1916    0.0000 C   0  0  0  0  0  0  0  0  0  0  0  0
   -1.9870   -2.8072    0.0000 C   0  0  0  0  0  0  0  0  0  0  0  0
   -2.8974   -1.6150    0.0000 C   0  0  0  0  0  0  0  0  0  0  0  0
   -4.3850   -1.8073    0.0000 C   0  0  0  0  0  0  0  0  0  0  0  0
   -5.2954   -0.6151    0.0000 C   0  0  0  0  0  0  0  0  0  0  0  0
   -4.7181    0.7693    0.0000 O   0  0  0  0  0  0  0  0  0  0  0  0
   -6.7830   -0.8074    0.0000 N   0  0  0  0  0  0  0  0  0  0  0  0
   -7.6933    0.3847    0.0000 C   0  0  0  0  0  0  0  0  0  0  0  0
   -9.1809    0.1924    0.0000 C   0  0  0  0  0  0  0  0  0  0  0  0
  -10.0913    1.3846    0.0000 S   0  0  0  0  0  0  0  0  0  0  0  0
  -11.2835    0.4742    0.0000 O   0  0  0  0  0  0  0  0  0  0  0  0
   -8.8991    2.2949    0.0000 O   0  0  0  0  0  0  0  0  0  0  0  0
  -11.0017    2.5768    0.0000 O   0  0  0  0  0  0  0  0  0  0  0  0
   -0.4994   -2.6148    0.0000 C   0  0  0  0  0  0  0  0  0  0  0  0
    0.5306   -3.7053    0.0000 C   0  0  0  0  0  0  0  0  0  0  0  0
    1.8860   -3.0627    0.0000 C   0  0  0  0  0  0  0  0  0  0  0  0
    1.6937   -1.5751    0.0000 C   0  0  0  0  0  0  0  0  0  0  0  0
    2.6705   -0.4368    0.0000 C   0  0  0  0  0  0  0  0  0  0  0  0
    4.1447   -0.7136    0.0000 C   0  0  0  0  0  0  0  0  0  0  0  0
    4.6421   -2.1287    0.0000 O   0  0  0  0  0  0  0  0  0  0  0  0
    6.1164   -2.4055    0.0000 S   0  0  0  0  0  0  0  0  0  0  0  0
    6.3932   -0.9313    0.0000 O   0  0  0  0  0  0  0  0  0  0  0  0
    5.8396   -3.8798    0.0000 O   0  0  0  0  0  0  0  0  0  0  0  0
    7.5906   -2.6823    0.0000 O   0  0  0  0  0  0  0  0  0  0  0  0
    5.1216    0.4247    0.0000 C   0  0  0  0  0  0  0  0  0  0  0  0
    6.5958    0.1479    0.0000 O   0  0  0  0  0  0  0  0  0  0  0  0
    4.6242    1.8399    0.0000 C   0  0  0  0  0  0  0  0  0  0  0  0
    5.6010    2.9782    0.0000 C   0  0  0  0  0  0  0  0  0  0  0  0
    5.1036    4.3933    0.0000 C   0  0  0  0  0  0  0  0  0  0  0  0
    6.0805    5.5316    0.0000 O   0  0  0  0  0  0  0  0  0  0  0  0
    3.6294    4.6701    0.0000 C   0  0  0  0  0  0  0  0  0  0  0  0
    2.6525    3.5318    0.0000 C   0  0  0  0  0  0  0  0  0  0  0  0
    3.1499    2.1167    0.0000 C   0  0  0  0  0  0  0  0  0  0  0  0
    1.6757    2.3935    0.0000 C   0  0  0  0  0  0  0  0  0  0  0  0
    2.1731    0.9783    0.0000 C   0  0  0  0  0  0  0  0  0  0  0  0
    0.6989    1.2552    0.0000 C   0  0  0  0  0  0  0  0  0  0  0  0
   -0.2780    0.1168    0.0000 C   0  0  0  0  0  0  0  0  0  0  0  0
    0.2194   -1.2983    0.0000 C   0  0  0  0  0  0  0  0  0  0  0  0
   -1.2757   -1.1771    0.0000 C   0  0  0  0  0  0  0  0  0  0  0  0
  2  1  1  6
  2  3  1  0
  3  4  1  0
  4  5  1  0
  5  6  2  0
  5  7  1  0
  7  8  1  0
  8  9  1  0
  9 10  1  0
 10 11  2  0
 10 12  2  0
 10 13  1  0
  2 14  1  0
 14 15  1  6
 15 16  1  0
 17 16  1  6
 17 18  1  0
 18 19  1  1
 19 20  1  1
 20 21  1  0
 21 22  2  0
 21 23  2  0
 21 24  1  0
 19 25  1  0
 25 26  1  6
 25 27  1  0
 27 28  1  1
 28 29  1  0
 29 30  1  1
 29 31  1  0
 31 32  1  0
 32 33  1  0
 33 34  1  6
 33 35  1  0
 35 36  1  6
 36 37  1  0
 37 38  1  0
 38 39  1  6
 38 14  1  0
 38 17  1  0
 35 18  1  0
 33 27  1  0
M  END
>  <MS_ID>  (3808) 
MS4353

>  <SMILES>  (3808) 
C[C@H](CCC(=O)NCCS(=O)(=O)O)[C@H]1CC[C@H]2[C@@H]3[C@H](OS(=O)(=O)O)[C@@H](O)[C@@H]4C[C@H](O)CC[C@]4(C)[C@H]3CC[C@]12C

>  <Structure_dimension>  (3808) 
2D

$$$$
MS4354
     RDKit          2D

 38 42  0  0  0  0  0  0  0  0999 V2000
   -1.3536   -4.2495    0.0000 C   0  0  0  0  0  0  0  0  0  0  0  0
   -0.5660   -2.9729    0.0000 C   0  0  0  0  0  0  0  0  0  0  0  0
   -1.2778   -1.6525    0.0000 C   0  0  0  0  0  0  0  0  0  0  0  0
   -2.7771   -1.6088    0.0000 C   0  0  0  0  0  0  0  0  0  0  0  0
   -3.4889   -0.2884    0.0000 C   0  0  0  0  0  0  0  0  0  0  0  0
   -2.7013    0.9882    0.0000 O   0  0  0  0  0  0  0  0  0  0  0  0
   -4.9883   -0.2446    0.0000 N   0  0  0  0  0  0  0  0  0  0  0  0
   -5.7001    1.0757    0.0000 C   0  0  0  0  0  0  0  0  0  0  0  0
   -4.9125    2.3523    0.0000 C   0  0  0  0  0  0  0  0  0  0  0  0
   -5.6242    3.6727    0.0000 C   0  0  0  0  0  0  0  0  0  0  0  0
   -7.1236    3.7165    0.0000 C   0  0  0  0  0  0  0  0  0  0  0  0
   -7.9112    2.4399    0.0000 C   0  0  0  0  0  0  0  0  0  0  0  0
   -7.1994    1.1195    0.0000 C   0  0  0  0  0  0  0  0  0  0  0  0
   -7.9870   -0.1571    0.0000 S   0  0  0  0  0  0  0  0  0  0  0  0
   -9.2636    0.6305    0.0000 O   0  0  0  0  0  0  0  0  0  0  0  0
   -6.7104   -0.9447    0.0000 O   0  0  0  0  0  0  0  0  0  0  0  0
   -8.7746   -1.4337    0.0000 O   0  0  0  0  0  0  0  0  0  0  0  0
    0.9334   -3.0167    0.0000 C   0  0  0  0  0  0  0  0  0  0  0  0
    1.7793   -4.2554    0.0000 C   0  0  0  0  0  0  0  0  0  0  0  0
    3.2188   -3.8337    0.0000 C   0  0  0  0  0  0  0  0  0  0  0  0
    3.2625   -2.3343    0.0000 C   0  0  0  0  0  0  0  0  0  0  0  0
    4.4061   -1.3636    0.0000 C   0  0  0  0  0  0  0  0  0  0  0  0
    5.8185   -1.8685    0.0000 C   0  0  0  0  0  0  0  0  0  0  0  0
    6.9620   -0.8978    0.0000 C   0  0  0  0  0  0  0  0  0  0  0  0
    6.6931    0.5779    0.0000 C   0  0  0  0  0  0  0  0  0  0  0  0
    7.8366    1.5487    0.0000 C   0  0  0  0  0  0  0  0  0  0  0  0
    7.5677    3.0243    0.0000 C   0  0  0  0  0  0  0  0  0  0  0  0
    8.7112    3.9951    0.0000 O   0  0  0  0  0  0  0  0  0  0  0  0
    6.1553    3.5293    0.0000 C   0  0  0  0  0  0  0  0  0  0  0  0
    5.0117    2.5586    0.0000 C   0  0  0  0  0  0  0  0  0  0  0  0
    5.2807    1.0829    0.0000 C   0  0  0  0  0  0  0  0  0  0  0  0
    3.8682    1.5878    0.0000 C   0  0  0  0  0  0  0  0  0  0  0  0
    4.1371    0.1121    0.0000 C   0  0  0  0  0  0  0  0  0  0  0  0
    2.7247    0.6171    0.0000 C   0  0  0  0  0  0  0  0  0  0  0  0
    1.5812   -0.3537    0.0000 C   0  0  0  0  0  0  0  0  0  0  0  0
    0.1687    0.1513    0.0000 O   0  0  0  0  0  0  0  0  0  0  0  0
    1.8501   -1.8294    0.0000 C   0  0  0  0  0  0  0  0  0  0  0  0
    0.3926   -1.4748    0.0000 C   0  0  0  0  0  0  0  0  0  0  0  0
  2  1  1  6
  2  3  1  0
  3  4  1  0
  4  5  1  0
  5  6  2  0
  5  7  1  0
  7  8  1  0
  8  9  2  0
  9 10  1  0
 10 11  2  0
 11 12  1  0
 12 13  2  0
 13 14  1  0
 14 15  2  0
 14 16  2  0
 14 17  1  0
  2 18  1  0
 18 19  1  6
 19 20  1  0
 21 20  1  6
 21 22  1  0
 22 23  1  1
 23 24  1  0
 25 24  1  1
 25 26  1  0
 26 27  1  0
 27 28  1  1
 27 29  1  0
 29 30  1  0
 30 31  1  0
 31 32  1  6
 31 33  1  0
 33 34  1  6
 34 35  1  0
 35 36  1  1
 35 37  1  0
 37 38  1  6
 13  8  1  0
 37 18  1  0
 37 21  1  0
 33 22  1  0
 31 25  1  0
M  END
>  <MS_ID>  (3809) 
MS4354

>  <SMILES>  (3809) 
C[C@H](CCC(=O)Nc1ccccc1S(=O)(=O)O)[C@H]1CC[C@H]2[C@@H]3CC[C@@H]4C[C@H](O)CC[C@]4(C)[C@H]3C[C@H](O)[C@]12C

>  <Structure_dimension>  (3809) 
2D

$$$$
MS4356
     RDKit          2D

 30 33  0  0  0  0  0  0  0  0999 V2000
   -7.4279    3.5601    0.0000 C   0  0  0  0  0  0  0  0  0  0  0  0
   -7.0729    2.1027    0.0000 O   0  0  0  0  0  0  0  0  0  0  0  0
   -5.6333    1.6814    0.0000 C   0  0  0  0  0  0  0  0  0  0  0  0
   -4.5486    2.7174    0.0000 O   0  0  0  0  0  0  0  0  0  0  0  0
   -5.2784    0.2240    0.0000 C   0  0  0  0  0  0  0  0  0  0  0  0
   -3.8388   -0.1974    0.0000 C   0  0  0  0  0  0  0  0  0  0  0  0
   -3.4838   -1.6548    0.0000 C   0  0  0  0  0  0  0  0  0  0  0  0
   -4.5685   -2.6908    0.0000 C   0  0  0  0  0  0  0  0  0  0  0  0
   -2.0442   -2.0761    0.0000 C   0  0  0  0  0  0  0  0  0  0  0  0
   -1.5389   -3.4884    0.0000 C   0  0  0  0  0  0  0  0  0  0  0  0
   -0.0395   -3.4442    0.0000 C   0  0  0  0  0  0  0  0  0  0  0  0
    0.3818   -2.0046    0.0000 C   0  0  0  0  0  0  0  0  0  0  0  0
    1.7336   -1.3544    0.0000 C   0  0  0  0  0  0  0  0  0  0  0  0
    2.9725   -2.1999    0.0000 C   0  0  0  0  0  0  0  0  0  0  0  0
    2.8597   -3.6957    0.0000 N   0  0  0  0  0  0  0  0  0  0  0  0
    4.3243   -1.5497    0.0000 C   0  0  0  0  0  0  0  0  0  0  0  0
    4.4371   -0.0540    0.0000 C   0  0  0  0  0  0  0  0  0  0  0  0
    5.7888    0.5962    0.0000 C   0  0  0  0  0  0  0  0  0  0  0  0
    5.9016    2.0920    0.0000 C   0  0  0  0  0  0  0  0  0  0  0  0
    7.2534    2.7422    0.0000 O   0  0  0  0  0  0  0  0  0  0  0  0
    4.6627    2.9375    0.0000 C   0  0  0  0  0  0  0  0  0  0  0  0
    3.3109    2.2873    0.0000 C   0  0  0  0  0  0  0  0  0  0  0  0
    3.1981    0.7916    0.0000 C   0  0  0  0  0  0  0  0  0  0  0  0
    1.9591    1.6371    0.0000 C   0  0  0  0  0  0  0  0  0  0  0  0
    1.8464    0.1414    0.0000 C   0  0  0  0  0  0  0  0  0  0  0  0
    0.6074    0.9869    0.0000 C   0  0  0  0  0  0  0  0  0  0  0  0
   -0.7444    0.3367    0.0000 C   0  0  0  0  0  0  0  0  0  0  0  0
   -1.9833    1.1823    0.0000 O   0  0  0  0  0  0  0  0  0  0  0  0
   -0.8572   -1.1590    0.0000 C   0  0  0  0  0  0  0  0  0  0  0  0
   -2.1777   -0.4476    0.0000 C   0  0  0  0  0  0  0  0  0  0  0  0
  1  2  1  0
  2  3  1  0
  3  4  2  0
  3  5  1  0
  5  6  1  0
  6  7  1  0
  7  8  1  6
  7  9  1  0
  9 10  1  6
 10 11  1  0
 12 11  1  6
 12 13  1  0
 13 14  1  1
 14 15  1  1
 14 16  1  0
 17 16  1  1
 17 18  1  0
 18 19  1  0
 19 20  1  1
 19 21  1  0
 21 22  1  0
 22 23  1  0
 23 24  1  6
 23 25  1  0
 25 26  1  6
 26 27  1  0
 27 28  1  1
 27 29  1  0
 29 30  1  6
 29  9  1  0
 29 12  1  0
 25 13  1  0
 23 17  1  0
M  END
>  <MS_ID>  (3810) 
MS4356

>  <SMILES>  (3810) 
COC(=O)CC[C@@H](C)[C@H]1CC[C@H]2[C@@H]3[C@H](N)C[C@@H]4C[C@H](O)CC[C@]4(C)[C@H]3C[C@H](O)[C@]12C

>  <Structure_dimension>  (3810) 
2D

$$$$
MS4357
     RDKit          2D

 28 31  0  0  0  0  0  0  0  0999 V2000
   -5.0096   -2.1352    0.0000 C   0  0  0  0  0  0  0  0  0  0  0  0
   -3.8132   -1.2303    0.0000 C   0  0  0  0  0  0  0  0  0  0  0  0
   -3.9987    0.2582    0.0000 C   0  0  0  0  0  0  0  0  0  0  0  0
   -5.3805    0.8418    0.0000 C   0  0  0  0  0  0  0  0  0  0  0  0
   -5.5659    2.3303    0.0000 C   0  0  0  0  0  0  0  0  0  0  0  0
   -4.3695    3.2351    0.0000 O   0  0  0  0  0  0  0  0  0  0  0  0
   -6.9477    2.9140    0.0000 O   0  0  0  0  0  0  0  0  0  0  0  0
   -2.4315   -1.8140    0.0000 C   0  0  0  0  0  0  0  0  0  0  0  0
   -2.0914   -3.2749    0.0000 C   0  0  0  0  0  0  0  0  0  0  0  0
   -0.5969   -3.4030    0.0000 C   0  0  0  0  0  0  0  0  0  0  0  0
   -0.0133   -2.0212    0.0000 C   0  0  0  0  0  0  0  0  0  0  0  0
    1.4041   -1.5304    0.0000 C   0  0  0  0  0  0  0  0  0  0  0  0
    2.5379   -2.5125    0.0000 C   0  0  0  0  0  0  0  0  0  0  0  0
    3.9554   -2.0216    0.0000 C   0  0  0  0  0  0  0  0  0  0  0  0
    4.2390   -0.5487    0.0000 C   0  0  0  0  0  0  0  0  0  0  0  0
    5.6564   -0.0578    0.0000 C   0  0  0  0  0  0  0  0  0  0  0  0
    5.9400    1.4151    0.0000 C   0  0  0  0  0  0  0  0  0  0  0  0
    7.3574    1.9060    0.0000 O   0  0  0  0  0  0  0  0  0  0  0  0
    4.8062    2.3972    0.0000 C   0  0  0  0  0  0  0  0  0  0  0  0
    3.3888    1.9064    0.0000 C   0  0  0  0  0  0  0  0  0  0  0  0
    3.1052    0.4334    0.0000 C   0  0  0  0  0  0  0  0  0  0  0  0
    1.9714    1.4155    0.0000 C   0  0  0  0  0  0  0  0  0  0  0  0
    1.6878   -0.0574    0.0000 C   0  0  0  0  0  0  0  0  0  0  0  0
    0.5540    0.9246    0.0000 C   0  0  0  0  0  0  0  0  0  0  0  0
   -0.8635    0.4338    0.0000 C   0  0  0  0  0  0  0  0  0  0  0  0
   -1.9973    1.4159    0.0000 O   0  0  0  0  0  0  0  0  0  0  0  0
   -1.1471   -1.0392    0.0000 C   0  0  0  0  0  0  0  0  0  0  0  0
   -2.3773   -0.1810    0.0000 C   0  0  0  0  0  0  0  0  0  0  0  0
  2  1  1  6
  2  3  1  0
  3  4  1  0
  4  5  1  0
  5  6  2  0
  5  7  1  0
  2  8  1  0
  8  9  1  6
  9 10  1  0
 11 10  1  6
 11 12  1  0
 12 13  1  6
 13 14  1  0
 15 14  1  1
 15 16  1  0
 16 17  1  0
 17 18  1  1
 17 19  1  0
 19 20  1  0
 20 21  1  0
 21 22  1  6
 21 23  1  0
 23 24  1  6
 24 25  1  0
 25 26  1  1
 25 27  1  0
 27 28  1  6
 27  8  1  0
 27 11  1  0
 23 12  1  0
 21 15  1  0
M  END
>  <MS_ID>  (3811) 
MS4357

>  <SMILES>  (3811) 
C[C@H](CCC(=O)O)[C@H]1CC[C@H]2[C@H]3CC[C@@H]4C[C@H](O)CC[C@]4(C)[C@H]3C[C@H](O)[C@]12C

>  <Structure_dimension>  (3811) 
2D

$$$$
MS4363
     RDKit          2D

 34 37  0  0  0  0  0  0  0  0999 V2000
   -2.0431   -4.2971    0.0000 C   0  0  0  0  0  0  0  0  0  0  0  0
   -1.3315   -2.9767    0.0000 C   0  0  0  0  0  0  0  0  0  0  0  0
   -2.1193   -1.7002    0.0000 C   0  0  0  0  0  0  0  0  0  0  0  0
   -3.6187   -1.7442    0.0000 C   0  0  0  0  0  0  0  0  0  0  0  0
   -4.4064   -0.4677    0.0000 C   0  0  0  0  0  0  0  0  0  0  0  0
   -3.6948    0.8528    0.0000 O   0  0  0  0  0  0  0  0  0  0  0  0
   -5.9058   -0.5117    0.0000 N   0  0  0  0  0  0  0  0  0  0  0  0
   -6.6936    0.7648    0.0000 C   0  0  0  0  0  0  0  0  0  0  0  0
   -8.1929    0.7208    0.0000 C   0  0  0  0  0  0  0  0  0  0  0  0
   -8.9807    1.9973    0.0000 S   0  0  0  0  0  0  0  0  0  0  0  0
  -10.2572    1.2096    0.0000 O   0  0  0  0  0  0  0  0  0  0  0  0
   -7.7042    2.7851    0.0000 O   0  0  0  0  0  0  0  0  0  0  0  0
   -9.7684    3.2738    0.0000 O   0  0  0  0  0  0  0  0  0  0  0  0
    0.1678   -2.9327    0.0000 C   0  0  0  0  0  0  0  0  0  0  0  0
    1.0847   -4.1198    0.0000 C   0  0  0  0  0  0  0  0  0  0  0  0
    2.4971   -3.6147    0.0000 C   0  0  0  0  0  0  0  0  0  0  0  0
    2.4531   -2.1153    0.0000 C   0  0  0  0  0  0  0  0  0  0  0  0
    3.5379   -1.0794    0.0000 C   0  0  0  0  0  0  0  0  0  0  0  0
    4.9775   -1.5009    0.0000 C   0  0  0  0  0  0  0  0  0  0  0  0
    5.3322   -2.9583    0.0000 O   0  0  0  0  0  0  0  0  0  0  0  0
    6.0623   -0.4649    0.0000 C   0  0  0  0  0  0  0  0  0  0  0  0
    5.7075    0.9925    0.0000 C   0  0  0  0  0  0  0  0  0  0  0  0
    6.7923    2.0285    0.0000 C   0  0  0  0  0  0  0  0  0  0  0  0
    6.4376    3.4859    0.0000 C   0  0  0  0  0  0  0  0  0  0  0  0
    7.5224    4.5219    0.0000 O   0  0  0  0  0  0  0  0  0  0  0  0
    4.9980    3.9074    0.0000 C   0  0  0  0  0  0  0  0  0  0  0  0
    3.9132    2.8715    0.0000 C   0  0  0  0  0  0  0  0  0  0  0  0
    4.2680    1.4140    0.0000 C   0  0  0  0  0  0  0  0  0  0  0  0
    2.8284    1.8355    0.0000 C   0  0  0  0  0  0  0  0  0  0  0  0
    3.1831    0.3781    0.0000 C   0  0  0  0  0  0  0  0  0  0  0  0
    1.7436    0.7996    0.0000 C   0  0  0  0  0  0  0  0  0  0  0  0
    0.6588   -0.2364    0.0000 C   0  0  0  0  0  0  0  0  0  0  0  0
    1.0135   -1.6938    0.0000 C   0  0  0  0  0  0  0  0  0  0  0  0
   -0.4622   -1.4251    0.0000 C   0  0  0  0  0  0  0  0  0  0  0  0
  2  1  1  6
  2  3  1  0
  3  4  1  0
  4  5  1  0
  5  6  2  0
  5  7  1  0
  7  8  1  0
  8  9  1  0
  9 10  1  0
 10 11  2  0
 10 12  2  0
 10 13  1  0
  2 14  1  0
 14 15  1  6
 15 16  1  0
 17 16  1  6
 17 18  1  0
 18 19  1  6
 19 20  1  1
 19 21  1  0
 22 21  1  1
 22 23  1  0
 23 24  1  0
 24 25  1  1
 24 26  1  0
 26 27  1  0
 27 28  1  0
 28 29  1  6
 28 30  1  0
 30 31  1  6
 31 32  1  0
 32 33  1  0
 33 34  1  6
 33 14  1  0
 33 17  1  0
 30 18  1  0
 28 22  1  0
M  END
>  <MS_ID>  (3812) 
MS4363

>  <SMILES>  (3812) 
C[C@H](CCC(=O)NCCS(=O)(=O)O)[C@H]1CC[C@H]2[C@H]3[C@H](O)C[C@@H]4C[C@H](O)CC[C@]4(C)[C@H]3CC[C@]12C

>  <Structure_dimension>  (3812) 
2D

$$$$
MS4366
     RDKit          2D

 36 39  0  0  0  0  0  0  0  0999 V2000
   -6.4431   -1.7518    0.0000 C   0  0  0  0  0  0  0  0  0  0  0  0
   -5.2856   -0.7978    0.0000 C   0  0  0  0  0  0  0  0  0  0  0  0
   -5.5330    0.6817    0.0000 C   0  0  0  0  0  0  0  0  0  0  0  0
   -6.9379    1.2071    0.0000 C   0  0  0  0  0  0  0  0  0  0  0  0
   -7.1853    2.6866    0.0000 C   0  0  0  0  0  0  0  0  0  0  0  0
   -6.0278    3.6406    0.0000 O   0  0  0  0  0  0  0  0  0  0  0  0
   -8.5903    3.2120    0.0000 O   0  0  0  0  0  0  0  0  0  0  0  0
   -3.8806   -1.3233    0.0000 C   0  0  0  0  0  0  0  0  0  0  0  0
   -3.4799   -2.7687    0.0000 C   0  0  0  0  0  0  0  0  0  0  0  0
   -1.9813   -2.8343    0.0000 C   0  0  0  0  0  0  0  0  0  0  0  0
   -1.4559   -1.4294    0.0000 C   0  0  0  0  0  0  0  0  0  0  0  0
   -0.0602   -0.8798    0.0000 C   0  0  0  0  0  0  0  0  0  0  0  0
    1.1136   -1.8137    0.0000 C   0  0  0  0  0  0  0  0  0  0  0  0
    0.8917   -3.2972    0.0000 O   0  0  0  0  0  0  0  0  0  0  0  0
    2.0656   -4.2311    0.0000 S   0  0  0  0  0  0  0  0  0  0  0  0
    2.9995   -3.0573    0.0000 O   0  0  0  0  0  0  0  0  0  0  0  0
    1.1317   -5.4049    0.0000 O   0  0  0  0  0  0  0  0  0  0  0  0
    3.2394   -5.1650    0.0000 O   0  0  0  0  0  0  0  0  0  0  0  0
    2.5093   -1.2641    0.0000 C   0  0  0  0  0  0  0  0  0  0  0  0
    2.7312    0.2194    0.0000 C   0  0  0  0  0  0  0  0  0  0  0  0
    4.1269    0.7690    0.0000 C   0  0  0  0  0  0  0  0  0  0  0  0
    4.3487    2.2525    0.0000 C   0  0  0  0  0  0  0  0  0  0  0  0
    5.7444    2.8021    0.0000 O   0  0  0  0  0  0  0  0  0  0  0  0
    6.9182    1.8682    0.0000 S   0  0  0  0  0  0  0  0  0  0  0  0
    5.9843    0.6944    0.0000 O   0  0  0  0  0  0  0  0  0  0  0  0
    7.8521    3.0420    0.0000 O   0  0  0  0  0  0  0  0  0  0  0  0
    8.0920    0.9343    0.0000 O   0  0  0  0  0  0  0  0  0  0  0  0
    3.1749    3.1864    0.0000 C   0  0  0  0  0  0  0  0  0  0  0  0
    1.7792    2.6368    0.0000 C   0  0  0  0  0  0  0  0  0  0  0  0
    1.5574    1.1533    0.0000 C   0  0  0  0  0  0  0  0  0  0  0  0
    0.3835    2.0872    0.0000 C   0  0  0  0  0  0  0  0  0  0  0  0
    0.1617    0.6037    0.0000 C   0  0  0  0  0  0  0  0  0  0  0  0
   -1.0121    1.5376    0.0000 C   0  0  0  0  0  0  0  0  0  0  0  0
   -2.4078    0.9880    0.0000 C   0  0  0  0  0  0  0  0  0  0  0  0
   -2.6297   -0.4955    0.0000 C   0  0  0  0  0  0  0  0  0  0  0  0
   -3.8947    0.3106    0.0000 C   0  0  0  0  0  0  0  0  0  0  0  0
  2  1  1  6
  2  3  1  0
  3  4  1  0
  4  5  1  0
  5  6  2  0
  5  7  1  0
  2  8  1  0
  8  9  1  6
  9 10  1  0
 11 10  1  6
 11 12  1  0
 12 13  1  1
 13 14  1  6
 14 15  1  0
 15 16  2  0
 15 17  2  0
 15 18  1  0
 13 19  1  0
 20 19  1  1
 20 21  1  0
 21 22  1  0
 22 23  1  6
 23 24  1  0
 24 25  2  0
 24 26  2  0
 24 27  1  0
 22 28  1  0
 28 29  1  0
 29 30  1  0
 30 31  1  6
 30 32  1  0
 32 33  1  6
 33 34  1  0
 34 35  1  0
 35 36  1  6
 35  8  1  0
 35 11  1  0
 32 12  1  0
 30 20  1  0
M  END
>  <MS_ID>  (3813) 
MS4366

>  <SMILES>  (3813) 
C[C@H](CCC(=O)O)[C@H]1CC[C@H]2[C@@H]3[C@@H](OS(=O)(=O)O)C[C@@H]4C[C@@H](OS(=O)(=O)O)CC[C@]4(C)[C@H]3CC[C@]12C

>  <Structure_dimension>  (3813) 
2D

$$$$
MS4370
     RDKit          2D

 39 43  0  0  0  0  0  0  0  0999 V2000
   -0.9718   -4.7646    0.0000 C   0  0  0  0  0  0  0  0  0  0  0  0
   -0.4121   -3.3730    0.0000 C   0  0  0  0  0  0  0  0  0  0  0  0
   -1.3374   -2.1924    0.0000 C   0  0  0  0  0  0  0  0  0  0  0  0
   -2.8225   -2.4035    0.0000 C   0  0  0  0  0  0  0  0  0  0  0  0
   -3.7478   -1.2229    0.0000 C   0  0  0  0  0  0  0  0  0  0  0  0
   -3.1881    0.1688    0.0000 O   0  0  0  0  0  0  0  0  0  0  0  0
   -5.2329   -1.4340    0.0000 N   0  0  0  0  0  0  0  0  0  0  0  0
   -6.1582   -0.2534    0.0000 C   0  0  0  0  0  0  0  0  0  0  0  0
   -7.6433   -0.4644    0.0000 C   0  0  0  0  0  0  0  0  0  0  0  0
   -8.5686    0.7161    0.0000 C   0  0  0  0  0  0  0  0  0  0  0  0
  -10.0676    0.6615    0.0000 C   0  0  0  0  0  0  0  0  0  0  0  0
  -10.5828    2.0702    0.0000 N   0  0  0  0  0  0  0  0  0  0  0  0
   -9.4023    2.9955    0.0000 C   0  0  0  0  0  0  0  0  0  0  0  0
   -8.1574    2.1587    0.0000 N   0  0  0  0  0  0  0  0  0  0  0  0
   -5.5985    1.1383    0.0000 C   0  0  0  0  0  0  0  0  0  0  0  0
   -4.1134    1.3493    0.0000 O   0  0  0  0  0  0  0  0  0  0  0  0
   -6.5238    2.3189    0.0000 O   0  0  0  0  0  0  0  0  0  0  0  0
    1.0730   -3.1619    0.0000 C   0  0  0  0  0  0  0  0  0  0  0  0
    2.1167   -4.2393    0.0000 C   0  0  0  0  0  0  0  0  0  0  0  0
    3.4638   -3.5797    0.0000 C   0  0  0  0  0  0  0  0  0  0  0  0
    3.2528   -2.0946    0.0000 C   0  0  0  0  0  0  0  0  0  0  0  0
    4.2151   -0.9440    0.0000 C   0  0  0  0  0  0  0  0  0  0  0  0
    5.6928   -1.2022    0.0000 C   0  0  0  0  0  0  0  0  0  0  0  0
    6.2080   -2.6109    0.0000 O   0  0  0  0  0  0  0  0  0  0  0  0
    6.6552   -0.0516    0.0000 C   0  0  0  0  0  0  0  0  0  0  0  0
    8.1328   -0.3098    0.0000 O   0  0  0  0  0  0  0  0  0  0  0  0
    6.1399    1.3571    0.0000 C   0  0  0  0  0  0  0  0  0  0  0  0
    7.1023    2.5077    0.0000 C   0  0  0  0  0  0  0  0  0  0  0  0
    6.5871    3.9164    0.0000 C   0  0  0  0  0  0  0  0  0  0  0  0
    7.5495    5.0670    0.0000 O   0  0  0  0  0  0  0  0  0  0  0  0
    5.1095    4.1746    0.0000 C   0  0  0  0  0  0  0  0  0  0  0  0
    4.1471    3.0240    0.0000 C   0  0  0  0  0  0  0  0  0  0  0  0
    4.6623    1.6153    0.0000 C   0  0  0  0  0  0  0  0  0  0  0  0
    3.1847    1.8735    0.0000 C   0  0  0  0  0  0  0  0  0  0  0  0
    3.6999    0.4647    0.0000 C   0  0  0  0  0  0  0  0  0  0  0  0
    2.2223    0.7229    0.0000 C   0  0  0  0  0  0  0  0  0  0  0  0
    1.2599   -0.4277    0.0000 C   0  0  0  0  0  0  0  0  0  0  0  0
    1.7751   -1.8364    0.0000 C   0  0  0  0  0  0  0  0  0  0  0  0
    0.2786   -1.7341    0.0000 C   0  0  0  0  0  0  0  0  0  0  0  0
  2  1  1  6
  2  3  1  0
  3  4  1  0
  4  5  1  0
  5  6  2  0
  5  7  1  0
  7  8  1  0
  8  9  1  1
  9 10  1  0
 10 11  2  0
 11 12  1  0
 12 13  2  0
 13 14  1  0
  8 15  1  0
 15 16  2  0
 15 17  1  0
  2 18  1  0
 18 19  1  6
 19 20  1  0
 21 20  1  6
 21 22  1  0
 22 23  1  1
 23 24  1  1
 23 25  1  0
 25 26  1  6
 25 27  1  0
 27 28  1  1
 28 29  1  0
 29 30  1  1
 29 31  1  0
 31 32  1  0
 32 33  1  0
 33 34  1  6
 33 35  1  0
 35 36  1  6
 36 37  1  0
 37 38  1  0
 38 39  1  6
 14 10  1  0
 38 18  1  0
 38 21  1  0
 35 22  1  0
 33 27  1  0
M  END
>  <MS_ID>  (3814) 
MS4370

>  <SMILES>  (3814) 
C[C@H](CCC(=O)N[C@@H](Cc1cnc[nH]1)C(=O)O)[C@H]1CC[C@H]2[C@@H]3[C@H](O)[C@@H](O)[C@@H]4C[C@H](O)CC[C@]4(C)[C@H]3CC[C@]12C

>  <Structure_dimension>  (3814) 
2D

$$$$
MS4372
     RDKit          2D

 29 32  0  0  0  0  0  0  0  0999 V2000
   -5.0303   -2.1373    0.0000 C   0  0  0  0  0  0  0  0  0  0  0  0
   -3.8594   -1.1998    0.0000 C   0  0  0  0  0  0  0  0  0  0  0  0
   -4.0858    0.2830    0.0000 C   0  0  0  0  0  0  0  0  0  0  0  0
   -5.4831    0.8284    0.0000 C   0  0  0  0  0  0  0  0  0  0  0  0
   -5.7095    2.3112    0.0000 C   0  0  0  0  0  0  0  0  0  0  0  0
   -4.5386    3.2487    0.0000 O   0  0  0  0  0  0  0  0  0  0  0  0
   -7.1069    2.8565    0.0000 O   0  0  0  0  0  0  0  0  0  0  0  0
   -2.4620   -1.7451    0.0000 C   0  0  0  0  0  0  0  0  0  0  0  0
   -2.0818   -3.1961    0.0000 C   0  0  0  0  0  0  0  0  0  0  0  0
   -0.5844   -3.2830    0.0000 C   0  0  0  0  0  0  0  0  0  0  0  0
   -0.0390   -1.8856    0.0000 C   0  0  0  0  0  0  0  0  0  0  0  0
    1.3643   -1.3559    0.0000 C   0  0  0  0  0  0  0  0  0  0  0  0
    2.5248   -2.3063    0.0000 C   0  0  0  0  0  0  0  0  0  0  0  0
    2.2819   -3.7865    0.0000 O   0  0  0  0  0  0  0  0  0  0  0  0
    3.9281   -1.7765    0.0000 C   0  0  0  0  0  0  0  0  0  0  0  0
    4.1710   -0.2963    0.0000 C   0  0  0  0  0  0  0  0  0  0  0  0
    5.5743    0.2334    0.0000 C   0  0  0  0  0  0  0  0  0  0  0  0
    5.8172    1.7136    0.0000 C   0  0  0  0  0  0  0  0  0  0  0  0
    7.2205    2.2434    0.0000 O   0  0  0  0  0  0  0  0  0  0  0  0
    4.6568    2.6641    0.0000 C   0  0  0  0  0  0  0  0  0  0  0  0
    3.2534    2.1343    0.0000 C   0  0  0  0  0  0  0  0  0  0  0  0
    3.0105    0.6541    0.0000 C   0  0  0  0  0  0  0  0  0  0  0  0
    1.8501    1.6046    0.0000 C   0  0  0  0  0  0  0  0  0  0  0  0
    1.6072    0.1244    0.0000 C   0  0  0  0  0  0  0  0  0  0  0  0
    0.4467    1.0748    0.0000 C   0  0  0  0  0  0  0  0  0  0  0  0
   -0.9566    0.5450    0.0000 C   0  0  0  0  0  0  0  0  0  0  0  0
   -2.1170    1.4955    0.0000 O   0  0  0  0  0  0  0  0  0  0  0  0
   -1.1995   -0.9352    0.0000 C   0  0  0  0  0  0  0  0  0  0  0  0
   -2.4529   -0.1112    0.0000 C   0  0  0  0  0  0  0  0  0  0  0  0
  2  1  1  6
  2  3  1  0
  3  4  1  0
  4  5  1  0
  5  6  2  0
  5  7  1  0
  2  8  1  0
  8  9  1  6
  9 10  1  0
 11 10  1  6
 11 12  1  0
 12 13  1  6
 13 14  1  1
 13 15  1  0
 16 15  1  6
 16 17  1  0
 17 18  1  0
 18 19  1  1
 18 20  1  0
 20 21  1  0
 21 22  1  0
 22 23  1  6
 22 24  1  0
 24 25  1  6
 25 26  1  0
 26 27  1  1
 26 28  1  0
 28 29  1  6
 28  8  1  0
 28 11  1  0
 24 12  1  0
 22 16  1  0
M  END
>  <MS_ID>  (3815) 
MS4372

>  <SMILES>  (3815) 
C[C@H](CCC(=O)O)[C@H]1CC[C@H]2[C@H]3[C@H](O)C[C@H]4C[C@H](O)CC[C@]4(C)[C@H]3C[C@H](O)[C@]12C

>  <Structure_dimension>  (3815) 
2D

$$$$
MS4374
     RDKit          2D

 38 42  0  0  0  0  0  0  0  0999 V2000
   -0.2723   -5.0469    0.0000 C   0  0  0  0  0  0  0  0  0  0  0  0
    0.2164   -3.6287    0.0000 C   0  0  0  0  0  0  0  0  0  0  0  0
   -0.7674   -2.4964    0.0000 C   0  0  0  0  0  0  0  0  0  0  0  0
   -2.2399   -2.7822    0.0000 C   0  0  0  0  0  0  0  0  0  0  0  0
   -3.2237   -1.6499    0.0000 C   0  0  0  0  0  0  0  0  0  0  0  0
   -2.7350   -0.2318    0.0000 O   0  0  0  0  0  0  0  0  0  0  0  0
   -4.6962   -1.9357    0.0000 N   0  0  0  0  0  0  0  0  0  0  0  0
   -5.6800   -0.8034    0.0000 C   0  0  0  0  0  0  0  0  0  0  0  0
   -5.1913    0.6147    0.0000 C   0  0  0  0  0  0  0  0  0  0  0  0
   -6.1751    1.7471    0.0000 C   0  0  0  0  0  0  0  0  0  0  0  0
   -7.6476    1.4612    0.0000 C   0  0  0  0  0  0  0  0  0  0  0  0
   -8.6314    2.5935    0.0000 C   0  0  0  0  0  0  0  0  0  0  0  0
   -9.6152    3.7259    0.0000 F   0  0  0  0  0  0  0  0  0  0  0  0
   -7.4990    3.5773    0.0000 F   0  0  0  0  0  0  0  0  0  0  0  0
   -9.7637    1.6098    0.0000 F   0  0  0  0  0  0  0  0  0  0  0  0
   -8.1363    0.0431    0.0000 C   0  0  0  0  0  0  0  0  0  0  0  0
   -7.1525   -1.0892    0.0000 C   0  0  0  0  0  0  0  0  0  0  0  0
    1.6889   -3.3429    0.0000 C   0  0  0  0  0  0  0  0  0  0  0  0
    2.7857   -4.3662    0.0000 C   0  0  0  0  0  0  0  0  0  0  0  0
    4.0978   -3.6393    0.0000 C   0  0  0  0  0  0  0  0  0  0  0  0
    3.8120   -2.1668    0.0000 C   0  0  0  0  0  0  0  0  0  0  0  0
    4.7150   -0.9691    0.0000 C   0  0  0  0  0  0  0  0  0  0  0  0
    6.2038   -1.1523    0.0000 C   0  0  0  0  0  0  0  0  0  0  0  0
    7.1068    0.0454    0.0000 C   0  0  0  0  0  0  0  0  0  0  0  0
    6.5211    1.4263    0.0000 C   0  0  0  0  0  0  0  0  0  0  0  0
    7.4241    2.6241    0.0000 C   0  0  0  0  0  0  0  0  0  0  0  0
    6.8384    4.0050    0.0000 C   0  0  0  0  0  0  0  0  0  0  0  0
    7.7414    5.2027    0.0000 O   0  0  0  0  0  0  0  0  0  0  0  0
    5.3496    4.1882    0.0000 C   0  0  0  0  0  0  0  0  0  0  0  0
    4.4466    2.9904    0.0000 C   0  0  0  0  0  0  0  0  0  0  0  0
    5.0323    1.6095    0.0000 C   0  0  0  0  0  0  0  0  0  0  0  0
    3.5436    1.7927    0.0000 C   0  0  0  0  0  0  0  0  0  0  0  0
    4.1293    0.4118    0.0000 C   0  0  0  0  0  0  0  0  0  0  0  0
    2.6405    0.5950    0.0000 C   0  0  0  0  0  0  0  0  0  0  0  0
    1.7375   -0.6027    0.0000 C   0  0  0  0  0  0  0  0  0  0  0  0
    0.2487   -0.4195    0.0000 O   0  0  0  0  0  0  0  0  0  0  0  0
    2.3232   -1.9836    0.0000 C   0  0  0  0  0  0  0  0  0  0  0  0
    0.8235   -1.9570    0.0000 C   0  0  0  0  0  0  0  0  0  0  0  0
  2  1  1  6
  2  3  1  0
  3  4  1  0
  4  5  1  0
  5  6  2  0
  5  7  1  0
  7  8  1  0
  8  9  2  0
  9 10  1  0
 10 11  2  0
 11 12  1  0
 12 13  1  0
 12 14  1  0
 12 15  1  0
 11 16  1  0
 16 17  2  0
  2 18  1  0
 18 19  1  6
 19 20  1  0
 21 20  1  6
 21 22  1  0
 22 23  1  1
 23 24  1  0
 25 24  1  1
 25 26  1  0
 26 27  1  0
 27 28  1  1
 27 29  1  0
 29 30  1  0
 30 31  1  0
 31 32  1  6
 31 33  1  0
 33 34  1  6
 34 35  1  0
 35 36  1  1
 35 37  1  0
 37 38  1  6
 17  8  1  0
 37 18  1  0
 37 21  1  0
 33 22  1  0
 31 25  1  0
M  END
>  <MS_ID>  (3816) 
MS4374

>  <SMILES>  (3816) 
C[C@H](CCC(=O)Nc1ccc(C(F)(F)F)cc1)[C@H]1CC[C@H]2[C@@H]3CC[C@@H]4C[C@H](O)CC[C@]4(C)[C@H]3C[C@H](O)[C@]12C

>  <Structure_dimension>  (3816) 
2D

$$$$
MS4378
     RDKit          2D

 29 32  0  0  0  0  0  0  0  0999 V2000
   -5.2182   -2.1453    0.0000 C   0  0  0  0  0  0  0  0  0  0  0  0
   -4.0752   -1.1739    0.0000 C   0  0  0  0  0  0  0  0  0  0  0  0
   -4.3449    0.3016    0.0000 C   0  0  0  0  0  0  0  0  0  0  0  0
   -5.7577    0.8058    0.0000 C   0  0  0  0  0  0  0  0  0  0  0  0
   -6.0274    2.2814    0.0000 C   0  0  0  0  0  0  0  0  0  0  0  0
   -4.8843    3.2527    0.0000 O   0  0  0  0  0  0  0  0  0  0  0  0
   -7.4401    2.7856    0.0000 O   0  0  0  0  0  0  0  0  0  0  0  0
   -2.6625   -1.6782    0.0000 C   0  0  0  0  0  0  0  0  0  0  0  0
   -2.2400   -3.1174    0.0000 C   0  0  0  0  0  0  0  0  0  0  0  0
   -0.7407   -3.1604    0.0000 C   0  0  0  0  0  0  0  0  0  0  0  0
   -0.2364   -1.7477    0.0000 C   0  0  0  0  0  0  0  0  0  0  0  0
    1.1508   -1.1771    0.0000 C   0  0  0  0  0  0  0  0  0  0  0  0
    2.3386   -2.0932    0.0000 C   0  0  0  0  0  0  0  0  0  0  0  0
    2.1391   -3.5798    0.0000 O   0  0  0  0  0  0  0  0  0  0  0  0
    3.7258   -1.5226    0.0000 C   0  0  0  0  0  0  0  0  0  0  0  0
    4.9136   -2.4386    0.0000 F   0  0  0  0  0  0  0  0  0  0  0  0
    3.9253   -0.0359    0.0000 C   0  0  0  0  0  0  0  0  0  0  0  0
    5.3125    0.5347    0.0000 C   0  0  0  0  0  0  0  0  0  0  0  0
    5.5119    2.0214    0.0000 C   0  0  0  0  0  0  0  0  0  0  0  0
    6.8992    2.5920    0.0000 O   0  0  0  0  0  0  0  0  0  0  0  0
    4.3242    2.9375    0.0000 C   0  0  0  0  0  0  0  0  0  0  0  0
    2.9369    2.3669    0.0000 C   0  0  0  0  0  0  0  0  0  0  0  0
    2.7375    0.8802    0.0000 C   0  0  0  0  0  0  0  0  0  0  0  0
    1.5497    1.7963    0.0000 C   0  0  0  0  0  0  0  0  0  0  0  0
    1.3502    0.3096    0.0000 C   0  0  0  0  0  0  0  0  0  0  0  0
    0.1625    1.2257    0.0000 C   0  0  0  0  0  0  0  0  0  0  0  0
   -1.2248    0.6551    0.0000 C   0  0  0  0  0  0  0  0  0  0  0  0
   -1.4242   -0.8316    0.0000 C   0  0  0  0  0  0  0  0  0  0  0  0
   -2.7012   -0.0447    0.0000 C   0  0  0  0  0  0  0  0  0  0  0  0
  2  1  1  6
  2  3  1  0
  3  4  1  0
  4  5  1  0
  5  6  2  0
  5  7  1  0
  2  8  1  0
  8  9  1  6
  9 10  1  0
 11 10  1  6
 11 12  1  0
 12 13  1  1
 13 14  1  1
 13 15  1  0
 15 16  1  6
 15 17  1  0
 17 18  1  1
 18 19  1  0
 19 20  1  1
 19 21  1  0
 21 22  1  0
 22 23  1  0
 23 24  1  6
 23 25  1  0
 25 26  1  6
 26 27  1  0
 27 28  1  0
 28 29  1  6
 28  8  1  0
 28 11  1  0
 25 12  1  0
 23 17  1  0
M  END
>  <MS_ID>  (3817) 
MS4378

>  <SMILES>  (3817) 
C[C@H](CCC(=O)O)[C@H]1CC[C@H]2[C@@H]3[C@H](O)[C@@H](F)[C@@H]4C[C@H](O)CC[C@]4(C)[C@H]3CC[C@]12C

>  <Structure_dimension>  (3817) 
2D

$$$$
MS4382
     RDKit          2D

 34 38  0  0  0  0  0  0  0  0999 V2000
   -2.2608   -4.3306    0.0000 C   0  0  0  0  0  0  0  0  0  0  0  0
   -1.5430   -3.0135    0.0000 C   0  0  0  0  0  0  0  0  0  0  0  0
   -2.3248   -1.7333    0.0000 C   0  0  0  0  0  0  0  0  0  0  0  0
   -3.8244   -1.7702    0.0000 C   0  0  0  0  0  0  0  0  0  0  0  0
   -4.6061   -0.4901    0.0000 C   0  0  0  0  0  0  0  0  0  0  0  0
   -3.8883    0.8271    0.0000 O   0  0  0  0  0  0  0  0  0  0  0  0
   -6.1057   -0.5270    0.0000 O   0  0  0  0  0  0  0  0  0  0  0  0
   -6.8874    0.7532    0.0000 C   0  0  0  0  0  0  0  0  0  0  0  0
   -6.1696    2.0703    0.0000 C   0  0  0  0  0  0  0  0  0  0  0  0
   -6.9514    3.3505    0.0000 C   0  0  0  0  0  0  0  0  0  0  0  0
   -8.4509    3.3135    0.0000 C   0  0  0  0  0  0  0  0  0  0  0  0
   -9.1687    1.9964    0.0000 C   0  0  0  0  0  0  0  0  0  0  0  0
   -8.3870    0.7163    0.0000 C   0  0  0  0  0  0  0  0  0  0  0  0
   -0.0435   -2.9765    0.0000 C   0  0  0  0  0  0  0  0  0  0  0  0
    0.8678   -4.1680    0.0000 C   0  0  0  0  0  0  0  0  0  0  0  0
    2.2825   -3.6695    0.0000 C   0  0  0  0  0  0  0  0  0  0  0  0
    2.2456   -2.1699    0.0000 C   0  0  0  0  0  0  0  0  0  0  0  0
    3.3353   -1.1391    0.0000 C   0  0  0  0  0  0  0  0  0  0  0  0
    4.7728   -1.5673    0.0000 C   0  0  0  0  0  0  0  0  0  0  0  0
    5.1207   -3.0264    0.0000 O   0  0  0  0  0  0  0  0  0  0  0  0
    5.8625   -0.5365    0.0000 C   0  0  0  0  0  0  0  0  0  0  0  0
    5.5146    0.9226    0.0000 C   0  0  0  0  0  0  0  0  0  0  0  0
    6.6043    1.9534    0.0000 C   0  0  0  0  0  0  0  0  0  0  0  0
    6.2564    3.4125    0.0000 C   0  0  0  0  0  0  0  0  0  0  0  0
    7.3460    4.4434    0.0000 O   0  0  0  0  0  0  0  0  0  0  0  0
    4.8188    3.8408    0.0000 C   0  0  0  0  0  0  0  0  0  0  0  0
    3.7291    2.8099    0.0000 C   0  0  0  0  0  0  0  0  0  0  0  0
    4.0770    1.3509    0.0000 C   0  0  0  0  0  0  0  0  0  0  0  0
    2.6395    1.7791    0.0000 C   0  0  0  0  0  0  0  0  0  0  0  0
    2.9874    0.3200    0.0000 C   0  0  0  0  0  0  0  0  0  0  0  0
    1.5498    0.7483    0.0000 C   0  0  0  0  0  0  0  0  0  0  0  0
    0.4601   -0.2826    0.0000 C   0  0  0  0  0  0  0  0  0  0  0  0
    0.8080   -1.7417    0.0000 C   0  0  0  0  0  0  0  0  0  0  0  0
   -0.6664   -1.4660    0.0000 C   0  0  0  0  0  0  0  0  0  0  0  0
  2  1  1  6
  2  3  1  0
  3  4  1  0
  4  5  1  0
  5  6  2  0
  5  7  1  0
  7  8  1  0
  8  9  2  0
  9 10  1  0
 10 11  2  0
 11 12  1  0
 12 13  2  0
  2 14  1  0
 14 15  1  6
 15 16  1  0
 17 16  1  6
 17 18  1  0
 18 19  1  1
 19 20  1  6
 19 21  1  0
 22 21  1  1
 22 23  1  0
 23 24  1  0
 24 25  1  1
 24 26  1  0
 26 27  1  0
 27 28  1  0
 28 29  1  6
 28 30  1  0
 30 31  1  6
 31 32  1  0
 32 33  1  0
 33 34  1  6
 13  8  1  0
 33 14  1  0
 33 17  1  0
 30 18  1  0
 28 22  1  0
M  END
>  <MS_ID>  (3818) 
MS4382

>  <SMILES>  (3818) 
C[C@H](CCC(=O)Oc1ccccc1)[C@H]1CC[C@H]2[C@@H]3[C@@H](O)C[C@@H]4C[C@H](O)CC[C@]4(C)[C@H]3CC[C@]12C

>  <Structure_dimension>  (3818) 
2D

$$$$
MS4387
     RDKit          2D

 27 30  0  0  0  0  0  0  0  0999 V2000
   -4.6206   -2.3136    0.0000 C   0  0  0  0  0  0  0  0  0  0  0  0
   -3.4741   -1.3464    0.0000 C   0  0  0  0  0  0  0  0  0  0  0  0
   -3.7384    0.1301    0.0000 C   0  0  0  0  0  0  0  0  0  0  0  0
   -5.1493    0.6394    0.0000 C   0  0  0  0  0  0  0  0  0  0  0  0
   -5.4136    2.1160    0.0000 C   0  0  0  0  0  0  0  0  0  0  0  0
   -4.2671    3.0832    0.0000 O   0  0  0  0  0  0  0  0  0  0  0  0
   -6.8245    2.6253    0.0000 O   0  0  0  0  0  0  0  0  0  0  0  0
   -2.0632   -1.8558    0.0000 C   0  0  0  0  0  0  0  0  0  0  0  0
   -1.6459   -3.2966    0.0000 C   0  0  0  0  0  0  0  0  0  0  0  0
   -0.1467   -3.3450    0.0000 C   0  0  0  0  0  0  0  0  0  0  0  0
    0.3626   -1.9341    0.0000 C   0  0  0  0  0  0  0  0  0  0  0  0
    1.7519   -1.3686    0.0000 C   0  0  0  0  0  0  0  0  0  0  0  0
    2.9363   -2.2890    0.0000 C   0  0  0  0  0  0  0  0  0  0  0  0
    4.3256   -1.7234    0.0000 C   0  0  0  0  0  0  0  0  0  0  0  0
    4.5305   -0.2375    0.0000 C   0  0  0  0  0  0  0  0  0  0  0  0
    5.9198    0.3281    0.0000 C   0  0  0  0  0  0  0  0  0  0  0  0
    6.1247    1.8140    0.0000 C   0  0  0  0  0  0  0  0  0  0  0  0
    4.9402    2.7344    0.0000 C   0  0  0  0  0  0  0  0  0  0  0  0
    3.5509    2.1689    0.0000 C   0  0  0  0  0  0  0  0  0  0  0  0
    3.3461    0.6829    0.0000 C   0  0  0  0  0  0  0  0  0  0  0  0
    2.1616    1.6033    0.0000 C   0  0  0  0  0  0  0  0  0  0  0  0
    1.9568    0.1174    0.0000 C   0  0  0  0  0  0  0  0  0  0  0  0
    0.7723    1.0378    0.0000 C   0  0  0  0  0  0  0  0  0  0  0  0
   -0.6170    0.4722    0.0000 C   0  0  0  0  0  0  0  0  0  0  0  0
   -1.8014    1.3926    0.0000 O   0  0  0  0  0  0  0  0  0  0  0  0
   -0.8218   -1.0137    0.0000 C   0  0  0  0  0  0  0  0  0  0  0  0
   -2.0960   -0.2222    0.0000 C   0  0  0  0  0  0  0  0  0  0  0  0
  2  1  1  6
  2  3  1  0
  3  4  1  0
  4  5  1  0
  5  6  2  0
  5  7  1  0
  2  8  1  0
  8  9  1  6
  9 10  1  0
 11 10  1  6
 11 12  1  0
 12 13  1  1
 13 14  1  0
 15 14  1  6
 15 16  1  0
 16 17  1  0
 17 18  1  0
 18 19  1  0
 19 20  1  0
 20 21  1  6
 20 22  1  0
 22 23  1  6
 23 24  1  0
 24 25  2  0
 24 26  1  0
 26 27  1  6
 26  8  1  0
 26 11  1  0
 22 12  1  0
 20 15  1  0
M  END
>  <MS_ID>  (3819) 
MS4387

>  <SMILES>  (3819) 
C[C@H](CCC(=O)O)[C@H]1CC[C@H]2[C@@H]3CC[C@H]4CCCC[C@]4(C)[C@H]3CC(=O)[C@]12C

>  <Structure_dimension>  (3819) 
2D

$$$$
MS4391
     RDKit          2D

 31 34  0  0  0  0  0  0  0  0999 V2000
   -4.8626    5.7082    0.0000 C   0  0  0  0  0  0  0  0  0  0  0  0
   -4.3173    4.3109    0.0000 S   0  0  0  0  0  0  0  0  0  0  0  0
   -5.2547    3.1399    0.0000 C   0  0  0  0  0  0  0  0  0  0  0  0
   -4.7094    1.7425    0.0000 O   0  0  0  0  0  0  0  0  0  0  0  0
   -5.6468    0.5716    0.0000 C   0  0  0  0  0  0  0  0  0  0  0  0
   -7.1296    0.7979    0.0000 O   0  0  0  0  0  0  0  0  0  0  0  0
   -5.1015   -0.8258    0.0000 C   0  0  0  0  0  0  0  0  0  0  0  0
   -3.6186   -1.0522    0.0000 C   0  0  0  0  0  0  0  0  0  0  0  0
   -3.0733   -2.4495    0.0000 C   0  0  0  0  0  0  0  0  0  0  0  0
   -4.0108   -3.6205    0.0000 C   0  0  0  0  0  0  0  0  0  0  0  0
   -1.5905   -2.6759    0.0000 C   0  0  0  0  0  0  0  0  0  0  0  0
   -0.9020   -4.0086    0.0000 C   0  0  0  0  0  0  0  0  0  0  0  0
    0.5782   -3.7657    0.0000 C   0  0  0  0  0  0  0  0  0  0  0  0
    0.8045   -2.2829    0.0000 C   0  0  0  0  0  0  0  0  0  0  0  0
    2.0580   -1.4589    0.0000 C   0  0  0  0  0  0  0  0  0  0  0  0
    3.3983   -2.1324    0.0000 C   0  0  0  0  0  0  0  0  0  0  0  0
    3.4851   -3.6299    0.0000 O   0  0  0  0  0  0  0  0  0  0  0  0
    4.6517   -1.3084    0.0000 C   0  0  0  0  0  0  0  0  0  0  0  0
    4.5648    0.1890    0.0000 C   0  0  0  0  0  0  0  0  0  0  0  0
    5.8183    1.0130    0.0000 C   0  0  0  0  0  0  0  0  0  0  0  0
    5.7314    2.5105    0.0000 C   0  0  0  0  0  0  0  0  0  0  0  0
    6.9848    3.3345    0.0000 O   0  0  0  0  0  0  0  0  0  0  0  0
    4.3911    3.1840    0.0000 C   0  0  0  0  0  0  0  0  0  0  0  0
    3.1377    2.3600    0.0000 C   0  0  0  0  0  0  0  0  0  0  0  0
    3.2245    0.8626    0.0000 C   0  0  0  0  0  0  0  0  0  0  0  0
    1.8842    1.5361    0.0000 C   0  0  0  0  0  0  0  0  0  0  0  0
    1.9711    0.0386    0.0000 C   0  0  0  0  0  0  0  0  0  0  0  0
    0.6308    0.7121    0.0000 C   0  0  0  0  0  0  0  0  0  0  0  0
   -0.6226   -0.1119    0.0000 C   0  0  0  0  0  0  0  0  0  0  0  0
   -0.5357   -1.6093    0.0000 C   0  0  0  0  0  0  0  0  0  0  0  0
   -1.9391   -1.0796    0.0000 C   0  0  0  0  0  0  0  0  0  0  0  0
  1  2  1  0
  2  3  1  0
  3  4  1  0
  4  5  1  0
  5  6  2  0
  5  7  1  0
  7  8  1  0
  8  9  1  0
  9 10  1  6
  9 11  1  0
 11 12  1  6
 12 13  1  0
 14 13  1  6
 14 15  1  0
 15 16  1  1
 16 17  2  0
 16 18  1  0
 19 18  1  1
 19 20  1  0
 20 21  1  0
 21 22  1  1
 21 23  1  0
 23 24  1  0
 24 25  1  0
 25 26  1  6
 25 27  1  0
 27 28  1  6
 28 29  1  0
 29 30  1  0
 30 31  1  6
 30 11  1  0
 30 14  1  0
 27 15  1  0
 25 19  1  0
M  END
>  <MS_ID>  (3820) 
MS4391

>  <SMILES>  (3820) 
CSCOC(=O)CC[C@@H](C)[C@H]1CC[C@H]2[C@@H]3C(=O)C[C@@H]4C[C@H](O)CC[C@]4(C)[C@H]3CC[C@]12C

>  <Structure_dimension>  (3820) 
2D

$$$$
MS4394
     RDKit          2D

 29 32  0  0  0  0  0  0  0  0999 V2000
   -5.0303   -2.1373    0.0000 C   0  0  0  0  0  0  0  0  0  0  0  0
   -3.8594   -1.1998    0.0000 C   0  0  0  0  0  0  0  0  0  0  0  0
   -4.0858    0.2830    0.0000 C   0  0  0  0  0  0  0  0  0  0  0  0
   -5.4831    0.8284    0.0000 C   0  0  0  0  0  0  0  0  0  0  0  0
   -5.7095    2.3112    0.0000 C   0  0  0  0  0  0  0  0  0  0  0  0
   -4.5386    3.2487    0.0000 O   0  0  0  0  0  0  0  0  0  0  0  0
   -7.1069    2.8565    0.0000 O   0  0  0  0  0  0  0  0  0  0  0  0
   -2.4620   -1.7451    0.0000 C   0  0  0  0  0  0  0  0  0  0  0  0
   -2.0818   -3.1961    0.0000 C   0  0  0  0  0  0  0  0  0  0  0  0
   -0.5844   -3.2830    0.0000 C   0  0  0  0  0  0  0  0  0  0  0  0
   -0.0390   -1.8856    0.0000 C   0  0  0  0  0  0  0  0  0  0  0  0
    1.3643   -1.3559    0.0000 C   0  0  0  0  0  0  0  0  0  0  0  0
    2.5248   -2.3063    0.0000 C   0  0  0  0  0  0  0  0  0  0  0  0
    2.2819   -3.7865    0.0000 O   0  0  0  0  0  0  0  0  0  0  0  0
    3.9281   -1.7765    0.0000 C   0  0  0  0  0  0  0  0  0  0  0  0
    4.1710   -0.2963    0.0000 C   0  0  0  0  0  0  0  0  0  0  0  0
    5.5743    0.2334    0.0000 C   0  0  0  0  0  0  0  0  0  0  0  0
    5.8172    1.7136    0.0000 C   0  0  0  0  0  0  0  0  0  0  0  0
    7.2205    2.2434    0.0000 O   0  0  0  0  0  0  0  0  0  0  0  0
    4.6568    2.6641    0.0000 C   0  0  0  0  0  0  0  0  0  0  0  0
    3.2534    2.1343    0.0000 C   0  0  0  0  0  0  0  0  0  0  0  0
    3.0105    0.6541    0.0000 C   0  0  0  0  0  0  0  0  0  0  0  0
    1.8501    1.6046    0.0000 C   0  0  0  0  0  0  0  0  0  0  0  0
    1.6072    0.1244    0.0000 C   0  0  0  0  0  0  0  0  0  0  0  0
    0.4467    1.0748    0.0000 C   0  0  0  0  0  0  0  0  0  0  0  0
   -0.9566    0.5450    0.0000 C   0  0  0  0  0  0  0  0  0  0  0  0
   -2.1170    1.4955    0.0000 O   0  0  0  0  0  0  0  0  0  0  0  0
   -1.1995   -0.9352    0.0000 C   0  0  0  0  0  0  0  0  0  0  0  0
   -2.4529   -0.1112    0.0000 C   0  0  0  0  0  0  0  0  0  0  0  0
  2  1  1  6
  2  3  1  0
  3  4  1  0
  4  5  1  0
  5  6  2  0
  5  7  1  0
  2  8  1  0
  8  9  1  6
  9 10  1  0
 11 10  1  6
 11 12  1  0
 12 13  1  1
 13 14  1  1
 13 15  1  0
 16 15  1  1
 16 17  1  0
 17 18  1  0
 18 19  2  0
 18 20  1  0
 20 21  1  0
 21 22  1  0
 22 23  1  6
 22 24  1  0
 24 25  1  1
 25 26  1  0
 26 27  1  1
 26 28  1  0
 28 29  1  6
 28  8  1  0
 28 11  1  0
 24 12  1  0
 22 16  1  0
M  END
>  <MS_ID>  (3821) 
MS4394

>  <SMILES>  (3821) 
C[C@H](CCC(=O)O)[C@H]1CC[C@H]2[C@@H]3[C@H](O)C[C@@H]4CC(=O)CC[C@]4(C)[C@@H]3C[C@H](O)[C@]12C

>  <Structure_dimension>  (3821) 
2D

$$$$
MS4399
     RDKit          2D

 29 32  0  0  0  0  0  0  0  0999 V2000
   -7.4712    3.6525    0.0000 C   0  0  0  0  0  0  0  0  0  0  0  0
   -7.1264    2.1927    0.0000 O   0  0  0  0  0  0  0  0  0  0  0  0
   -5.6897    1.7615    0.0000 C   0  0  0  0  0  0  0  0  0  0  0  0
   -4.5979    2.7900    0.0000 O   0  0  0  0  0  0  0  0  0  0  0  0
   -5.3448    0.3016    0.0000 C   0  0  0  0  0  0  0  0  0  0  0  0
   -3.9081   -0.1296    0.0000 C   0  0  0  0  0  0  0  0  0  0  0  0
   -3.5633   -1.5894    0.0000 C   0  0  0  0  0  0  0  0  0  0  0  0
   -4.6551   -2.6180    0.0000 C   0  0  0  0  0  0  0  0  0  0  0  0
   -2.1266   -2.0207    0.0000 C   0  0  0  0  0  0  0  0  0  0  0  0
   -1.6310   -3.4364    0.0000 C   0  0  0  0  0  0  0  0  0  0  0  0
   -0.1314   -3.4026    0.0000 C   0  0  0  0  0  0  0  0  0  0  0  0
    0.2998   -1.9659    0.0000 C   0  0  0  0  0  0  0  0  0  0  0  0
    1.6561   -1.3251    0.0000 C   0  0  0  0  0  0  0  0  0  0  0  0
    2.8892   -2.1792    0.0000 C   0  0  0  0  0  0  0  0  0  0  0  0
    2.7660   -3.6741    0.0000 O   0  0  0  0  0  0  0  0  0  0  0  0
    4.2454   -1.5383    0.0000 C   0  0  0  0  0  0  0  0  0  0  0  0
    4.3685   -0.0434    0.0000 C   0  0  0  0  0  0  0  0  0  0  0  0
    5.7247    0.5975    0.0000 C   0  0  0  0  0  0  0  0  0  0  0  0
    5.8478    2.0924    0.0000 C   0  0  0  0  0  0  0  0  0  0  0  0
    7.2040    2.7332    0.0000 O   0  0  0  0  0  0  0  0  0  0  0  0
    4.6147    2.9465    0.0000 C   0  0  0  0  0  0  0  0  0  0  0  0
    3.2585    2.3056    0.0000 C   0  0  0  0  0  0  0  0  0  0  0  0
    3.1354    0.8107    0.0000 C   0  0  0  0  0  0  0  0  0  0  0  0
    1.9023    1.6648    0.0000 C   0  0  0  0  0  0  0  0  0  0  0  0
    1.7792    0.1699    0.0000 C   0  0  0  0  0  0  0  0  0  0  0  0
    0.5461    1.0239    0.0000 C   0  0  0  0  0  0  0  0  0  0  0  0
   -0.8101    0.3831    0.0000 C   0  0  0  0  0  0  0  0  0  0  0  0
   -0.9333   -1.1118    0.0000 C   0  0  0  0  0  0  0  0  0  0  0  0
   -2.2489   -0.3913    0.0000 C   0  0  0  0  0  0  0  0  0  0  0  0
  1  2  1  0
  2  3  1  0
  3  4  2  0
  3  5  1  0
  5  6  1  0
  6  7  1  0
  7  8  1  6
  7  9  1  0
  9 10  1  6
 10 11  1  0
 12 11  1  6
 12 13  1  0
 13 14  1  1
 14 15  1  1
 14 16  1  0
 17 16  1  6
 17 18  1  0
 18 19  1  0
 19 20  1  1
 19 21  1  0
 21 22  1  0
 22 23  1  0
 23 24  1  6
 23 25  1  0
 25 26  1  6
 26 27  1  0
 27 28  1  0
 28 29  1  6
 28  9  1  0
 28 12  1  0
 25 13  1  0
 23 17  1  0
M  END
>  <MS_ID>  (3822) 
MS4399

>  <SMILES>  (3822) 
COC(=O)CC[C@@H](C)[C@H]1CC[C@H]2[C@@H]3[C@H](O)C[C@H]4C[C@H](O)CC[C@]4(C)[C@H]3CC[C@]12C

>  <Structure_dimension>  (3822) 
2D

$$$$
MS4403
     RDKit          2D

 30 33  0  0  0  0  0  0  0  0999 V2000
    7.7190   -3.6276    0.0000 C   0  0  0  0  0  0  0  0  0  0  0  0
    7.3678   -2.1693    0.0000 O   0  0  0  0  0  0  0  0  0  0  0  0
    5.9292   -1.7443    0.0000 C   0  0  0  0  0  0  0  0  0  0  0  0
    4.8419   -2.7776    0.0000 O   0  0  0  0  0  0  0  0  0  0  0  0
    5.5780   -0.2860    0.0000 C   0  0  0  0  0  0  0  0  0  0  0  0
    4.1395    0.1390    0.0000 C   0  0  0  0  0  0  0  0  0  0  0  0
    3.7883    1.5973    0.0000 C   0  0  0  0  0  0  0  0  0  0  0  0
    4.8756    2.6306    0.0000 C   0  0  0  0  0  0  0  0  0  0  0  0
    2.3498    2.0223    0.0000 C   0  0  0  0  0  0  0  0  0  0  0  0
    1.8481    3.4359    0.0000 C   0  0  0  0  0  0  0  0  0  0  0  0
    0.3486    3.3956    0.0000 C   0  0  0  0  0  0  0  0  0  0  0  0
   -0.0764    1.9571    0.0000 C   0  0  0  0  0  0  0  0  0  0  0  0
   -1.4298    1.3103    0.0000 C   0  0  0  0  0  0  0  0  0  0  0  0
   -2.6666    2.1591    0.0000 C   0  0  0  0  0  0  0  0  0  0  0  0
   -2.5500    3.6545    0.0000 O   0  0  0  0  0  0  0  0  0  0  0  0
   -4.0200    1.5124    0.0000 C   0  0  0  0  0  0  0  0  0  0  0  0
   -4.1367    0.0169    0.0000 C   0  0  0  0  0  0  0  0  0  0  0  0
   -5.4901   -0.6298    0.0000 C   0  0  0  0  0  0  0  0  0  0  0  0
   -6.7269    0.2189    0.0000 O   0  0  0  0  0  0  0  0  0  0  0  0
   -5.6067   -2.1253    0.0000 C   0  0  0  0  0  0  0  0  0  0  0  0
   -6.9601   -2.7720    0.0000 O   0  0  0  0  0  0  0  0  0  0  0  0
   -4.3699   -2.9740    0.0000 C   0  0  0  0  0  0  0  0  0  0  0  0
   -3.0165   -2.3273    0.0000 C   0  0  0  0  0  0  0  0  0  0  0  0
   -2.8999   -0.8318    0.0000 C   0  0  0  0  0  0  0  0  0  0  0  0
   -1.6631   -1.6806    0.0000 C   0  0  0  0  0  0  0  0  0  0  0  0
   -1.5465   -0.1851    0.0000 C   0  0  0  0  0  0  0  0  0  0  0  0
   -0.3097   -1.0338    0.0000 C   0  0  0  0  0  0  0  0  0  0  0  0
    1.0438   -0.3871    0.0000 C   0  0  0  0  0  0  0  0  0  0  0  0
    1.1604    1.1083    0.0000 C   0  0  0  0  0  0  0  0  0  0  0  0
    2.4791    0.3935    0.0000 C   0  0  0  0  0  0  0  0  0  0  0  0
  1  2  1  0
  2  3  1  0
  3  4  2  0
  3  5  1  0
  5  6  1  0
  6  7  1  0
  7  8  1  6
  7  9  1  0
  9 10  1  6
 10 11  1  0
 12 11  1  6
 12 13  1  0
 13 14  1  1
 14 15  1  1
 14 16  1  0
 17 16  1  1
 17 18  1  0
 18 19  1  6
 18 20  1  0
 20 21  1  6
 20 22  1  0
 22 23  1  0
 23 24  1  0
 24 25  1  6
 24 26  1  0
 26 27  1  6
 27 28  1  0
 28 29  1  0
 29 30  1  6
 29  9  1  0
 29 12  1  0
 26 13  1  0
 24 17  1  0
M  END
>  <MS_ID>  (3823) 
MS4403

>  <SMILES>  (3823) 
COC(=O)CC[C@@H](C)[C@H]1CC[C@H]2[C@@H]3[C@H](O)C[C@@H]4[C@@H](O)[C@@H](O)CC[C@]4(C)[C@H]3CC[C@]12C

>  <Structure_dimension>  (3823) 
2D

$$$$
MS4404
     RDKit          2D

 32 35  0  0  0  0  0  0  0  0999 V2000
   -6.0659   -1.8985    0.0000 C   0  0  0  0  0  0  0  0  0  0  0  0
   -4.8404   -1.0335    0.0000 C   0  0  0  0  0  0  0  0  0  0  0  0
   -4.9767    0.4603    0.0000 C   0  0  0  0  0  0  0  0  0  0  0  0
   -6.3386    1.0891    0.0000 C   0  0  0  0  0  0  0  0  0  0  0  0
   -6.4749    2.5829    0.0000 C   0  0  0  0  0  0  0  0  0  0  0  0
   -5.2494    3.4479    0.0000 O   0  0  0  0  0  0  0  0  0  0  0  0
   -7.8367    3.2118    0.0000 O   0  0  0  0  0  0  0  0  0  0  0  0
   -3.4786   -1.6624    0.0000 C   0  0  0  0  0  0  0  0  0  0  0  0
   -3.1869   -3.1337    0.0000 C   0  0  0  0  0  0  0  0  0  0  0  0
   -1.6974   -3.3110    0.0000 C   0  0  0  0  0  0  0  0  0  0  0  0
   -1.0686   -1.9492    0.0000 C   0  0  0  0  0  0  0  0  0  0  0  0
    0.3642   -1.5053    0.0000 C   0  0  0  0  0  0  0  0  0  0  0  0
    1.4651   -2.5242    0.0000 C   0  0  0  0  0  0  0  0  0  0  0  0
    1.1331   -3.9870    0.0000 O   0  0  0  0  0  0  0  0  0  0  0  0
    2.8979   -2.0803    0.0000 C   0  0  0  0  0  0  0  0  0  0  0  0
    3.2299   -0.6175    0.0000 C   0  0  0  0  0  0  0  0  0  0  0  0
    4.6627   -0.1735    0.0000 C   0  0  0  0  0  0  0  0  0  0  0  0
    4.9946    1.2893    0.0000 C   0  0  0  0  0  0  0  0  0  0  0  0
    6.4275    1.7332    0.0000 O   0  0  0  0  0  0  0  0  0  0  0  0
    7.5283    0.7143    0.0000 C   0  0  0  0  0  0  0  0  0  0  0  0
    8.9611    1.1582    0.0000 C   0  0  0  0  0  0  0  0  0  0  0  0
   10.0619    0.1393    0.0000 O   0  0  0  0  0  0  0  0  0  0  0  0
    3.8938    2.3082    0.0000 C   0  0  0  0  0  0  0  0  0  0  0  0
    2.4610    1.8643    0.0000 C   0  0  0  0  0  0  0  0  0  0  0  0
    2.1290    0.4014    0.0000 C   0  0  0  0  0  0  0  0  0  0  0  0
    1.0282    1.4203    0.0000 C   0  0  0  0  0  0  0  0  0  0  0  0
    0.6962   -0.0425    0.0000 C   0  0  0  0  0  0  0  0  0  0  0  0
   -0.4046    0.9764    0.0000 C   0  0  0  0  0  0  0  0  0  0  0  0
   -1.8374    0.5325    0.0000 C   0  0  0  0  0  0  0  0  0  0  0  0
   -2.9383    1.5514    0.0000 O   0  0  0  0  0  0  0  0  0  0  0  0
   -2.1694   -0.9303    0.0000 C   0  0  0  0  0  0  0  0  0  0  0  0
   -3.3707   -0.0320    0.0000 C   0  0  0  0  0  0  0  0  0  0  0  0
  2  1  1  6
  2  3  1  0
  3  4  1  0
  4  5  1  0
  5  6  2  0
  5  7  1  0
  2  8  1  0
  8  9  1  6
  9 10  1  0
 11 10  1  6
 11 12  1  0
 12 13  1  1
 13 14  1  1
 13 15  1  0
 16 15  1  6
 16 17  1  0
 17 18  1  0
 18 19  1  6
 19 20  1  0
 20 21  1  0
 21 22  1  0
 18 23  1  0
 23 24  1  0
 24 25  1  0
 25 26  1  6
 25 27  1  0
 27 28  1  6
 28 29  1  0
 29 30  1  1
 29 31  1  0
 31 32  1  6
 31  8  1  0
 31 11  1  0
 27 12  1  0
 25 16  1  0
M  END
>  <MS_ID>  (3824) 
MS4404

>  <SMILES>  (3824) 
C[C@H](CCC(=O)O)[C@H]1CC[C@H]2[C@@H]3[C@H](O)C[C@H]4C[C@@H](OCCO)CC[C@]4(C)[C@H]3C[C@H](O)[C@]12C

>  <Structure_dimension>  (3824) 
2D

$$$$
MS4410
     RDKit          2D

 34 37  0  0  0  0  0  0  0  0999 V2000
   -1.9628   -4.3460    0.0000 C   0  0  0  0  0  0  0  0  0  0  0  0
   -1.2213   -3.0421    0.0000 C   0  0  0  0  0  0  0  0  0  0  0  0
   -1.9798   -1.7480    0.0000 C   0  0  0  0  0  0  0  0  0  0  0  0
   -3.4798   -1.7579    0.0000 C   0  0  0  0  0  0  0  0  0  0  0  0
   -4.2383   -0.4638    0.0000 C   0  0  0  0  0  0  0  0  0  0  0  0
   -3.4968    0.8402    0.0000 O   0  0  0  0  0  0  0  0  0  0  0  0
   -5.7383   -0.4736    0.0000 N   0  0  0  0  0  0  0  0  0  0  0  0
   -6.4968    0.8205    0.0000 C   0  0  0  0  0  0  0  0  0  0  0  0
   -7.9967    0.8106    0.0000 C   0  0  0  0  0  0  0  0  0  0  0  0
   -8.7552    2.1047    0.0000 S   0  0  0  0  0  0  0  0  0  0  0  0
  -10.0493    1.3462    0.0000 O   0  0  0  0  0  0  0  0  0  0  0  0
   -7.4611    2.8632    0.0000 O   0  0  0  0  0  0  0  0  0  0  0  0
   -9.5137    3.3988    0.0000 O   0  0  0  0  0  0  0  0  0  0  0  0
    0.2786   -3.0323    0.0000 C   0  0  0  0  0  0  0  0  0  0  0  0
    1.1683   -4.2400    0.0000 C   0  0  0  0  0  0  0  0  0  0  0  0
    2.5918   -3.7671    0.0000 C   0  0  0  0  0  0  0  0  0  0  0  0
    2.5819   -2.2672    0.0000 C   0  0  0  0  0  0  0  0  0  0  0  0
    3.6901   -1.2562    0.0000 C   0  0  0  0  0  0  0  0  0  0  0  0
    5.1196   -1.7103    0.0000 C   0  0  0  0  0  0  0  0  0  0  0  0
    6.2278   -0.6993    0.0000 C   0  0  0  0  0  0  0  0  0  0  0  0
    5.9063    0.7658    0.0000 C   0  0  0  0  0  0  0  0  0  0  0  0
    7.0144    1.7768    0.0000 C   0  0  0  0  0  0  0  0  0  0  0  0
    6.6929    3.2419    0.0000 C   0  0  0  0  0  0  0  0  0  0  0  0
    7.8010    4.2529    0.0000 O   0  0  0  0  0  0  0  0  0  0  0  0
    5.2633    3.6961    0.0000 C   0  0  0  0  0  0  0  0  0  0  0  0
    4.1552    2.6851    0.0000 C   0  0  0  0  0  0  0  0  0  0  0  0
    4.4767    1.2200    0.0000 C   0  0  0  0  0  0  0  0  0  0  0  0
    3.0471    1.6741    0.0000 C   0  0  0  0  0  0  0  0  0  0  0  0
    3.3686    0.2090    0.0000 C   0  0  0  0  0  0  0  0  0  0  0  0
    1.9390    0.6631    0.0000 C   0  0  0  0  0  0  0  0  0  0  0  0
    0.8309   -0.3479    0.0000 C   0  0  0  0  0  0  0  0  0  0  0  0
   -0.5987    0.1063    0.0000 O   0  0  0  0  0  0  0  0  0  0  0  0
    1.1523   -1.8130    0.0000 C   0  0  0  0  0  0  0  0  0  0  0  0
   -0.3169   -1.5108    0.0000 C   0  0  0  0  0  0  0  0  0  0  0  0
  2  1  1  6
  2  3  1  0
  3  4  1  0
  4  5  1  0
  5  6  2  0
  5  7  1  0
  7  8  1  0
  8  9  1  0
  9 10  1  0
 10 11  2  0
 10 12  2  0
 10 13  1  0
  2 14  1  0
 14 15  1  6
 15 16  1  0
 17 16  1  6
 17 18  1  0
 18 19  1  1
 19 20  1  0
 21 20  1  1
 21 22  1  0
 22 23  1  0
 23 24  1  1
 23 25  1  0
 25 26  1  0
 26 27  1  0
 27 28  1  1
 27 29  1  0
 29 30  1  6
 30 31  1  0
 31 32  1  1
 31 33  1  0
 33 34  1  6
 33 14  1  0
 33 17  1  0
 29 18  1  0
 27 21  1  0
M  END
>  <MS_ID>  (3825) 
MS4410

>  <SMILES>  (3825) 
C[C@H](CCC(=O)NCCS(=O)(=O)O)[C@H]1CC[C@H]2[C@@H]3CC[C@@H]4C[C@H](O)CC[C@@]4(C)[C@H]3C[C@H](O)[C@]12C

>  <Structure_dimension>  (3825) 
2D

$$$$
MS4412
     RDKit          2D

 30 33  0  0  0  0  0  0  0  0999 V2000
   -5.3676   -2.0337    0.0000 C   0  0  0  0  0  0  0  0  0  0  0  0
   -4.1713   -1.1288    0.0000 C   0  0  0  0  0  0  0  0  0  0  0  0
   -4.3569    0.3597    0.0000 C   0  0  0  0  0  0  0  0  0  0  0  0
   -5.7388    0.9432    0.0000 C   0  0  0  0  0  0  0  0  0  0  0  0
   -5.9244    2.4317    0.0000 C   0  0  0  0  0  0  0  0  0  0  0  0
   -4.7281    3.3367    0.0000 O   0  0  0  0  0  0  0  0  0  0  0  0
   -7.3062    3.0152    0.0000 O   0  0  0  0  0  0  0  0  0  0  0  0
   -2.7894   -1.7123    0.0000 C   0  0  0  0  0  0  0  0  0  0  0  0
   -2.4493   -3.1732    0.0000 C   0  0  0  0  0  0  0  0  0  0  0  0
   -0.9547   -3.3011    0.0000 C   0  0  0  0  0  0  0  0  0  0  0  0
   -0.3712   -1.9192    0.0000 C   0  0  0  0  0  0  0  0  0  0  0  0
    1.0461   -1.4282    0.0000 C   0  0  0  0  0  0  0  0  0  0  0  0
    2.1800   -2.4102    0.0000 C   0  0  0  0  0  0  0  0  0  0  0  0
    1.8966   -3.8832    0.0000 O   0  0  0  0  0  0  0  0  0  0  0  0
    3.5974   -1.9192    0.0000 C   0  0  0  0  0  0  0  0  0  0  0  0
    3.8808   -0.4462    0.0000 C   0  0  0  0  0  0  0  0  0  0  0  0
    5.2982    0.0448    0.0000 C   0  0  0  0  0  0  0  0  0  0  0  0
    5.5816    1.5178    0.0000 C   0  0  0  0  0  0  0  0  0  0  0  0
    6.9990    2.0088    0.0000 O   0  0  0  0  0  0  0  0  0  0  0  0
    8.1329    1.0269    0.0000 N   0  0  0  0  0  0  0  0  0  0  0  0
    4.4477    2.4998    0.0000 C   0  0  0  0  0  0  0  0  0  0  0  0
    3.0304    2.0087    0.0000 C   0  0  0  0  0  0  0  0  0  0  0  0
    2.7469    0.5358    0.0000 C   0  0  0  0  0  0  0  0  0  0  0  0
    1.6130    1.5177    0.0000 C   0  0  0  0  0  0  0  0  0  0  0  0
    1.3296    0.0448    0.0000 C   0  0  0  0  0  0  0  0  0  0  0  0
    0.1957    1.0267    0.0000 C   0  0  0  0  0  0  0  0  0  0  0  0
   -1.2217    0.5357    0.0000 C   0  0  0  0  0  0  0  0  0  0  0  0
   -2.3556    1.5177    0.0000 O   0  0  0  0  0  0  0  0  0  0  0  0
   -1.5052   -0.9373    0.0000 C   0  0  0  0  0  0  0  0  0  0  0  0
   -2.7355   -0.0792    0.0000 C   0  0  0  0  0  0  0  0  0  0  0  0
  2  1  1  6
  2  3  1  0
  3  4  1  0
  4  5  1  0
  5  6  2  0
  5  7  1  0
  2  8  1  0
  8  9  1  6
  9 10  1  0
 11 10  1  6
 11 12  1  0
 12 13  1  1
 13 14  1  1
 13 15  1  0
 16 15  1  1
 16 17  1  0
 17 18  1  0
 18 19  1  1
 19 20  1  0
 18 21  1  0
 21 22  1  0
 22 23  1  0
 23 24  1  6
 23 25  1  0
 25 26  1  6
 26 27  1  0
 27 28  1  1
 27 29  1  0
 29 30  1  6
 29  8  1  0
 29 11  1  0
 25 12  1  0
 23 16  1  0
M  END
>  <MS_ID>  (3826) 
MS4412

>  <SMILES>  (3826) 
C[C@H](CCC(=O)O)[C@H]1CC[C@H]2[C@@H]3[C@H](O)C[C@@H]4C[C@H](ON)CC[C@]4(C)[C@H]3C[C@H](O)[C@]12C

>  <Structure_dimension>  (3826) 
2D

$$$$
MS4413
     RDKit          2D

 39 43  0  0  0  0  0  0  0  0999 V2000
   -0.8433   -4.8756    0.0000 C   0  0  0  0  0  0  0  0  0  0  0  0
   -0.2507   -3.4976    0.0000 C   0  0  0  0  0  0  0  0  0  0  0  0
   -1.1478   -2.2954    0.0000 C   0  0  0  0  0  0  0  0  0  0  0  0
   -2.6375   -2.4712    0.0000 C   0  0  0  0  0  0  0  0  0  0  0  0
   -3.5346   -1.2691    0.0000 C   0  0  0  0  0  0  0  0  0  0  0  0
   -2.9420    0.1089    0.0000 O   0  0  0  0  0  0  0  0  0  0  0  0
   -5.0242   -1.4449    0.0000 O   0  0  0  0  0  0  0  0  0  0  0  0
   -5.9213   -0.2427    0.0000 C   0  0  0  0  0  0  0  0  0  0  0  0
   -5.3288    1.1353    0.0000 O   0  0  0  0  0  0  0  0  0  0  0  0
   -6.2259    2.3375    0.0000 C   0  0  0  0  0  0  0  0  0  0  0  0
   -5.6333    3.7155    0.0000 C   0  0  0  0  0  0  0  0  0  0  0  0
   -4.1436    3.8913    0.0000 O   0  0  0  0  0  0  0  0  0  0  0  0
   -7.7155    2.1616    0.0000 C   0  0  0  0  0  0  0  0  0  0  0  0
   -8.6126    3.3638    0.0000 O   0  0  0  0  0  0  0  0  0  0  0  0
   -8.3081    0.7837    0.0000 C   0  0  0  0  0  0  0  0  0  0  0  0
   -9.7978    0.6078    0.0000 O   0  0  0  0  0  0  0  0  0  0  0  0
   -7.4110   -0.4185    0.0000 C   0  0  0  0  0  0  0  0  0  0  0  0
   -8.0036   -1.7965    0.0000 O   0  0  0  0  0  0  0  0  0  0  0  0
    1.2389   -3.3218    0.0000 C   0  0  0  0  0  0  0  0  0  0  0  0
    2.2568   -4.4236    0.0000 C   0  0  0  0  0  0  0  0  0  0  0  0
    3.6192   -3.7960    0.0000 C   0  0  0  0  0  0  0  0  0  0  0  0
    3.4434   -2.3064    0.0000 C   0  0  0  0  0  0  0  0  0  0  0  0
    4.4327   -1.1789    0.0000 C   0  0  0  0  0  0  0  0  0  0  0  0
    5.9038   -1.4721    0.0000 C   0  0  0  0  0  0  0  0  0  0  0  0
    6.8932   -0.3446    0.0000 C   0  0  0  0  0  0  0  0  0  0  0  0
    8.3643   -0.6377    0.0000 O   0  0  0  0  0  0  0  0  0  0  0  0
    6.4115    1.0759    0.0000 C   0  0  0  0  0  0  0  0  0  0  0  0
    7.4009    2.2034    0.0000 C   0  0  0  0  0  0  0  0  0  0  0  0
    6.9192    3.6239    0.0000 C   0  0  0  0  0  0  0  0  0  0  0  0
    7.9086    4.7514    0.0000 O   0  0  0  0  0  0  0  0  0  0  0  0
    5.4481    3.9170    0.0000 C   0  0  0  0  0  0  0  0  0  0  0  0
    4.4587    2.7896    0.0000 C   0  0  0  0  0  0  0  0  0  0  0  0
    4.9404    1.3690    0.0000 C   0  0  0  0  0  0  0  0  0  0  0  0
    3.4694    1.6622    0.0000 C   0  0  0  0  0  0  0  0  0  0  0  0
    3.9511    0.2416    0.0000 C   0  0  0  0  0  0  0  0  0  0  0  0
    2.4800    0.5347    0.0000 C   0  0  0  0  0  0  0  0  0  0  0  0
    1.4906   -0.5927    0.0000 C   0  0  0  0  0  0  0  0  0  0  0  0
    1.9723   -2.0133    0.0000 C   0  0  0  0  0  0  0  0  0  0  0  0
    0.4786   -1.8755    0.0000 C   0  0  0  0  0  0  0  0  0  0  0  0
  2  1  1  6
  2  3  1  0
  3  4  1  0
  4  5  1  0
  5  6  2  0
  5  7  1  0
  8  7  1  6
  8  9  1  0
  9 10  1  0
 10 11  1  1
 11 12  1  0
 10 13  1  0
 13 14  1  6
 13 15  1  0
 15 16  1  1
 15 17  1  0
 17 18  1  6
  2 19  1  0
 19 20  1  6
 20 21  1  0
 22 21  1  6
 22 23  1  0
 23 24  1  1
 24 25  1  0
 25 26  1  1
 25 27  1  0
 27 28  1  1
 28 29  1  0
 29 30  1  1
 29 31  1  0
 31 32  1  0
 32 33  1  0
 33 34  1  6
 33 35  1  0
 35 36  1  6
 36 37  1  0
 37 38  1  0
 38 39  1  6
 17  8  1  0
 38 19  1  0
 38 22  1  0
 35 23  1  0
 33 27  1  0
M  END
>  <MS_ID>  (3827) 
MS4413

>  <SMILES>  (3827) 
C[C@H](CCC(=O)O[C@H]1O[C@H](CO)[C@@H](O)[C@H](O)[C@H]1O)[C@H]1CC[C@H]2[C@@H]3C[C@H](O)[C@@H]4C[C@H](O)CC[C@]4(C)[C@H]3CC[C@]12C

>  <Structure_dimension>  (3827) 
2D

$$$$
MS4416
     RDKit          2D

 28 31  0  0  0  0  0  0  0  0999 V2000
   -5.1275   -2.0302    0.0000 C   0  0  0  0  0  0  0  0  0  0  0  0
   -3.9468   -1.1050    0.0000 C   0  0  0  0  0  0  0  0  0  0  0  0
   -4.1576    0.3801    0.0000 C   0  0  0  0  0  0  0  0  0  0  0  0
   -5.5492    0.9401    0.0000 C   0  0  0  0  0  0  0  0  0  0  0  0
   -5.7600    2.4252    0.0000 C   0  0  0  0  0  0  0  0  0  0  0  0
   -4.5793    3.3503    0.0000 O   0  0  0  0  0  0  0  0  0  0  0  0
   -7.1516    2.9851    0.0000 O   0  0  0  0  0  0  0  0  0  0  0  0
   -2.5552   -1.6650    0.0000 C   0  0  0  0  0  0  0  0  0  0  0  0
   -2.1903   -3.1199    0.0000 C   0  0  0  0  0  0  0  0  0  0  0  0
   -0.6938   -3.2225    0.0000 C   0  0  0  0  0  0  0  0  0  0  0  0
   -0.1339   -1.8309    0.0000 C   0  0  0  0  0  0  0  0  0  0  0  0
    1.2750   -1.3159    0.0000 C   0  0  0  0  0  0  0  0  0  0  0  0
    2.4254   -2.2785    0.0000 C   0  0  0  0  0  0  0  0  0  0  0  0
    2.1670   -3.7560    0.0000 O   0  0  0  0  0  0  0  0  0  0  0  0
    3.8342   -1.7635    0.0000 C   0  0  0  0  0  0  0  0  0  0  0  0
    4.0926   -0.2859    0.0000 C   0  0  0  0  0  0  0  0  0  0  0  0
    5.5014    0.2291    0.0000 C   0  0  0  0  0  0  0  0  0  0  0  0
    5.7598    1.7067    0.0000 C   0  0  0  0  0  0  0  0  0  0  0  0
    7.1687    2.2217    0.0000 O   0  0  0  0  0  0  0  0  0  0  0  0
    4.6094    2.6692    0.0000 C   0  0  0  0  0  0  0  0  0  0  0  0
    3.2006    2.1542    0.0000 C   0  0  0  0  0  0  0  0  0  0  0  0
    2.9422    0.6767    0.0000 C   0  0  0  0  0  0  0  0  0  0  0  0
    1.7918    1.6392    0.0000 C   0  0  0  0  0  0  0  0  0  0  0  0
    1.5334    0.1617    0.0000 C   0  0  0  0  0  0  0  0  0  0  0  0
    0.3830    1.1242    0.0000 C   0  0  0  0  0  0  0  0  0  0  0  0
   -1.0259    0.6093    0.0000 C   0  0  0  0  0  0  0  0  0  0  0  0
   -1.2843   -0.8683    0.0000 C   0  0  0  0  0  0  0  0  0  0  0  0
   -2.5290   -0.0313    0.0000 C   0  0  0  0  0  0  0  0  0  0  0  0
  2  1  1  1
  2  3  1  0
  3  4  1  0
  4  5  1  0
  5  6  2  0
  5  7  1  0
  2  8  1  0
  8  9  1  6
  9 10  1  0
 11 10  1  6
 11 12  1  0
 12 13  1  1
 13 14  1  1
 13 15  1  0
 16 15  1  6
 16 17  1  0
 17 18  1  0
 18 19  1  6
 18 20  1  0
 20 21  1  0
 21 22  1  0
 22 23  1  6
 22 24  1  0
 24 25  1  6
 25 26  1  0
 26 27  1  0
 27 28  1  6
 27  8  1  0
 27 11  1  0
 24 12  1  0
 22 16  1  0
M  END
>  <MS_ID>  (3828) 
MS4416

>  <SMILES>  (3828) 
C[C@@H](CCC(=O)O)[C@H]1CC[C@H]2[C@@H]3[C@H](O)C[C@H]4C[C@@H](O)CC[C@]4(C)[C@H]3CC[C@]12C

>  <Structure_dimension>  (3828) 
2D

$$$$
MS4418
     RDKit          2D

 36 39  0  0  0  0  0  0  0  0999 V2000
   -4.5074   -3.5654    0.0000 C   0  0  0  0  0  0  0  0  0  0  0  0
   -3.4785   -2.4739    0.0000 C   0  0  0  0  0  0  0  0  0  0  0  0
   -3.9094   -1.0371    0.0000 C   0  0  0  0  0  0  0  0  0  0  0  0
   -5.3691   -0.6918    0.0000 C   0  0  0  0  0  0  0  0  0  0  0  0
   -5.8000    0.7449    0.0000 C   0  0  0  0  0  0  0  0  0  0  0  0
   -4.7711    1.8365    0.0000 O   0  0  0  0  0  0  0  0  0  0  0  0
   -7.2597    1.0902    0.0000 N   0  0  0  0  0  0  0  0  0  0  0  0
   -7.6905    2.5270    0.0000 C   0  0  0  0  0  0  0  0  0  0  0  0
   -9.1503    2.8723    0.0000 C   0  0  0  0  0  0  0  0  0  0  0  0
  -10.1791    1.7807    0.0000 O   0  0  0  0  0  0  0  0  0  0  0  0
   -9.5811    4.3090    0.0000 O   0  0  0  0  0  0  0  0  0  0  0  0
   -2.0188   -2.8192    0.0000 C   0  0  0  0  0  0  0  0  0  0  0  0
   -1.4401   -4.2030    0.0000 C   0  0  0  0  0  0  0  0  0  0  0  0
    0.0548   -4.0803    0.0000 C   0  0  0  0  0  0  0  0  0  0  0  0
    0.4001   -2.6206    0.0000 C   0  0  0  0  0  0  0  0  0  0  0  0
    1.7159   -1.9004    0.0000 C   0  0  0  0  0  0  0  0  0  0  0  0
    2.9975   -2.6799    0.0000 C   0  0  0  0  0  0  0  0  0  0  0  0
    4.3133   -1.9597    0.0000 C   0  0  0  0  0  0  0  0  0  0  0  0
    4.3475   -0.4601    0.0000 C   0  0  0  0  0  0  0  0  0  0  0  0
    5.6634    0.2601    0.0000 C   0  0  0  0  0  0  0  0  0  0  0  0
    5.6976    1.7597    0.0000 C   0  0  0  0  0  0  0  0  0  0  0  0
    7.0134    2.4798    0.0000 O   0  0  0  0  0  0  0  0  0  0  0  0
    8.2950    1.7004    0.0000 S   0  0  0  0  0  0  0  0  0  0  0  0
    7.5155    0.4188    0.0000 O   0  0  0  0  0  0  0  0  0  0  0  0
    9.0744    2.9820    0.0000 O   0  0  0  0  0  0  0  0  0  0  0  0
    9.5766    0.9209    0.0000 O   0  0  0  0  0  0  0  0  0  0  0  0
    4.4160    2.5391    0.0000 C   0  0  0  0  0  0  0  0  0  0  0  0
    3.1002    1.8189    0.0000 C   0  0  0  0  0  0  0  0  0  0  0  0
    3.0660    0.3193    0.0000 C   0  0  0  0  0  0  0  0  0  0  0  0
    1.7844    1.0988    0.0000 C   0  0  0  0  0  0  0  0  0  0  0  0
    1.7501   -0.4008    0.0000 C   0  0  0  0  0  0  0  0  0  0  0  0
    0.4686    0.3786    0.0000 C   0  0  0  0  0  0  0  0  0  0  0  0
   -0.8473   -0.3415    0.0000 C   0  0  0  0  0  0  0  0  0  0  0  0
   -2.1288    0.4379    0.0000 O   0  0  0  0  0  0  0  0  0  0  0  0
   -0.8815   -1.8412    0.0000 C   0  0  0  0  0  0  0  0  0  0  0  0
   -2.2375   -1.1999    0.0000 C   0  0  0  0  0  0  0  0  0  0  0  0
  2  1  1  6
  2  3  1  0
  3  4  1  0
  4  5  1  0
  5  6  2  0
  5  7  1  0
  7  8  1  0
  8  9  1  0
  9 10  2  0
  9 11  1  0
  2 12  1  0
 12 13  1  6
 13 14  1  0
 15 14  1  6
 15 16  1  0
 16 17  1  1
 17 18  1  0
 19 18  1  1
 19 20  1  0
 20 21  1  0
 21 22  1  1
 22 23  1  0
 23 24  2  0
 23 25  2  0
 23 26  1  0
 21 27  1  0
 27 28  1  0
 28 29  1  0
 29 30  1  6
 29 31  1  0
 31 32  1  6
 32 33  1  0
 33 34  1  1
 33 35  1  0
 35 36  1  6
 35 12  1  0
 35 15  1  0
 31 16  1  0
 29 19  1  0
M  END
>  <MS_ID>  (3829) 
MS4418

>  <SMILES>  (3829) 
C[C@H](CCC(=O)NCC(=O)O)[C@H]1CC[C@H]2[C@@H]3CC[C@@H]4C[C@H](OS(=O)(=O)O)CC[C@]4(C)[C@H]3C[C@H](O)[C@]12C

>  <Structure_dimension>  (3829) 
2D

$$$$
MS4419
     RDKit          2D

 29 32  0  0  0  0  0  0  0  0999 V2000
   -4.5534   -2.6812    0.0000 C   0  0  0  0  0  0  0  0  0  0  0  0
   -3.4378   -1.6786    0.0000 C   0  0  0  0  0  0  0  0  0  0  0  0
   -3.7483   -0.2111    0.0000 C   0  0  0  0  0  0  0  0  0  0  0  0
   -5.1744    0.2538    0.0000 C   0  0  0  0  0  0  0  0  0  0  0  0
   -5.4850    1.7213    0.0000 C   0  0  0  0  0  0  0  0  0  0  0  0
   -4.3693    2.7239    0.0000 O   0  0  0  0  0  0  0  0  0  0  0  0
   -6.9111    2.1861    0.0000 N   0  0  0  0  0  0  0  0  0  0  0  0
   -7.2216    3.6536    0.0000 N   0  0  0  0  0  0  0  0  0  0  0  0
   -2.0116   -2.1434    0.0000 C   0  0  0  0  0  0  0  0  0  0  0  0
   -1.5494   -3.5704    0.0000 C   0  0  0  0  0  0  0  0  0  0  0  0
   -0.0494   -3.5718    0.0000 C   0  0  0  0  0  0  0  0  0  0  0  0
    0.4155   -2.1456    0.0000 C   0  0  0  0  0  0  0  0  0  0  0  0
    1.7863   -1.5368    0.0000 C   0  0  0  0  0  0  0  0  0  0  0  0
    2.9990   -2.4196    0.0000 C   0  0  0  0  0  0  0  0  0  0  0  0
    4.3699   -1.8107    0.0000 C   0  0  0  0  0  0  0  0  0  0  0  0
    4.5281   -0.3191    0.0000 C   0  0  0  0  0  0  0  0  0  0  0  0
    5.8990    0.2898    0.0000 C   0  0  0  0  0  0  0  0  0  0  0  0
    6.0571    1.7814    0.0000 C   0  0  0  0  0  0  0  0  0  0  0  0
    7.4280    2.3902    0.0000 O   0  0  0  0  0  0  0  0  0  0  0  0
    4.8444    2.6642    0.0000 C   0  0  0  0  0  0  0  0  0  0  0  0
    3.4735    2.0553    0.0000 C   0  0  0  0  0  0  0  0  0  0  0  0
    3.3154    0.5637    0.0000 C   0  0  0  0  0  0  0  0  0  0  0  0
    2.1026    1.4465    0.0000 C   0  0  0  0  0  0  0  0  0  0  0  0
    1.9445   -0.0451    0.0000 C   0  0  0  0  0  0  0  0  0  0  0  0
    0.7318    0.8376    0.0000 C   0  0  0  0  0  0  0  0  0  0  0  0
   -0.6391    0.2288    0.0000 C   0  0  0  0  0  0  0  0  0  0  0  0
   -1.8518    1.1116    0.0000 O   0  0  0  0  0  0  0  0  0  0  0  0
   -0.7973   -1.2628    0.0000 C   0  0  0  0  0  0  0  0  0  0  0  0
   -2.0956   -0.5116    0.0000 C   0  0  0  0  0  0  0  0  0  0  0  0
  2  1  1  6
  2  3  1  0
  3  4  1  0
  4  5  1  0
  5  6  2  0
  5  7  1  0
  7  8  1  0
  2  9  1  0
  9 10  1  6
 10 11  1  0
 12 11  1  6
 12 13  1  0
 13 14  1  1
 14 15  1  0
 16 15  1  6
 16 17  1  0
 17 18  1  0
 18 19  1  1
 18 20  1  0
 20 21  1  0
 21 22  1  0
 22 23  1  6
 22 24  1  0
 24 25  1  6
 25 26  1  0
 26 27  1  1
 26 28  1  0
 28 29  1  6
 28  9  1  0
 28 12  1  0
 24 13  1  0
 22 16  1  0
M  END
>  <MS_ID>  (3830) 
MS4419

>  <SMILES>  (3830) 
C[C@H](CCC(=O)NN)[C@H]1CC[C@H]2[C@@H]3CC[C@H]4C[C@H](O)CC[C@]4(C)[C@H]3C[C@H](O)[C@]12C

>  <Structure_dimension>  (3830) 
2D

$$$$
MS4421
     RDKit          2D

 37 40  0  0  0  0  0  0  0  0999 V2000
   -1.7227   -4.6230    0.0000 C   0  0  0  0  0  0  0  0  0  0  0  0
   -1.0802   -3.2675    0.0000 C   0  0  0  0  0  0  0  0  0  0  0  0
   -1.9328   -2.0334    0.0000 C   0  0  0  0  0  0  0  0  0  0  0  0
   -3.4279   -2.1547    0.0000 C   0  0  0  0  0  0  0  0  0  0  0  0
   -4.2805   -0.9206    0.0000 C   0  0  0  0  0  0  0  0  0  0  0  0
   -3.6380    0.4349    0.0000 O   0  0  0  0  0  0  0  0  0  0  0  0
   -5.7756   -1.0419    0.0000 N   0  0  0  0  0  0  0  0  0  0  0  0
   -6.6282    0.1922    0.0000 C   0  0  0  0  0  0  0  0  0  0  0  0
   -7.8623   -0.6604    0.0000 C   0  0  0  0  0  0  0  0  0  0  0  0
   -5.3940    1.0448    0.0000 C   0  0  0  0  0  0  0  0  0  0  0  0
   -7.4808    1.4263    0.0000 C   0  0  0  0  0  0  0  0  0  0  0  0
   -6.8383    2.7818    0.0000 S   0  0  0  0  0  0  0  0  0  0  0  0
   -8.1937    3.4243    0.0000 O   0  0  0  0  0  0  0  0  0  0  0  0
   -5.4829    2.1393    0.0000 O   0  0  0  0  0  0  0  0  0  0  0  0
   -6.1958    4.1372    0.0000 O   0  0  0  0  0  0  0  0  0  0  0  0
    0.4149   -3.1462    0.0000 C   0  0  0  0  0  0  0  0  0  0  0  0
    1.3918   -4.2844    0.0000 C   0  0  0  0  0  0  0  0  0  0  0  0
    2.7763   -3.7071    0.0000 C   0  0  0  0  0  0  0  0  0  0  0  0
    2.6549   -2.2120    0.0000 C   0  0  0  0  0  0  0  0  0  0  0  0
    3.6848   -1.1214    0.0000 C   0  0  0  0  0  0  0  0  0  0  0  0
    5.1442   -1.4680    0.0000 C   0  0  0  0  0  0  0  0  0  0  0  0
    5.5737   -2.9052    0.0000 O   0  0  0  0  0  0  0  0  0  0  0  0
    6.1741   -0.3775    0.0000 C   0  0  0  0  0  0  0  0  0  0  0  0
    5.7446    1.0597    0.0000 C   0  0  0  0  0  0  0  0  0  0  0  0
    6.7745    2.1503    0.0000 C   0  0  0  0  0  0  0  0  0  0  0  0
    6.3450    3.5875    0.0000 C   0  0  0  0  0  0  0  0  0  0  0  0
    7.3749    4.6780    0.0000 O   0  0  0  0  0  0  0  0  0  0  0  0
    4.8856    3.9341    0.0000 C   0  0  0  0  0  0  0  0  0  0  0  0
    3.8557    2.8435    0.0000 C   0  0  0  0  0  0  0  0  0  0  0  0
    4.2852    1.4063    0.0000 C   0  0  0  0  0  0  0  0  0  0  0  0
    2.8258    1.7530    0.0000 C   0  0  0  0  0  0  0  0  0  0  0  0
    3.2553    0.3158    0.0000 C   0  0  0  0  0  0  0  0  0  0  0  0
    1.7959    0.6624    0.0000 C   0  0  0  0  0  0  0  0  0  0  0  0
    0.7660   -0.4282    0.0000 C   0  0  0  0  0  0  0  0  0  0  0  0
   -0.6934   -0.0815    0.0000 O   0  0  0  0  0  0  0  0  0  0  0  0
    1.1955   -1.8653    0.0000 C   0  0  0  0  0  0  0  0  0  0  0  0
   -0.2921   -1.6732    0.0000 C   0  0  0  0  0  0  0  0  0  0  0  0
  2  1  1  6
  2  3  1  0
  3  4  1  0
  4  5  1  0
  5  6  2  0
  5  7  1  0
  7  8  1  0
  8  9  1  0
  8 10  1  0
  8 11  1  0
 11 12  1  0
 12 13  2  0
 12 14  2  0
 12 15  1  0
  2 16  1  0
 16 17  1  6
 17 18  1  0
 19 18  1  6
 19 20  1  0
 20 21  1  1
 21 22  1  1
 21 23  1  0
 24 23  1  1
 24 25  1  0
 25 26  1  0
 26 27  1  1
 26 28  1  0
 28 29  1  0
 29 30  1  0
 30 31  1  6
 30 32  1  0
 32 33  1  6
 33 34  1  0
 34 35  1  1
 34 36  1  0
 36 37  1  6
 36 16  1  0
 36 19  1  0
 32 20  1  0
 30 24  1  0
M  END
>  <MS_ID>  (3831) 
MS4421

>  <SMILES>  (3831) 
C[C@H](CCC(=O)NC(C)(C)CS(=O)(=O)O)[C@H]1CC[C@H]2[C@@H]3[C@H](O)C[C@@H]4C[C@H](O)CC[C@]4(C)[C@H]3C[C@H](O)[C@]12C

>  <Structure_dimension>  (3831) 
2D

$$$$
MS4423
     RDKit          2D

 33 36  0  0  0  0  0  0  0  0999 V2000
   -1.9813   -4.3426    0.0000 C   0  0  0  0  0  0  0  0  0  0  0  0
   -1.2397   -3.0388    0.0000 C   0  0  0  0  0  0  0  0  0  0  0  0
   -1.9981   -1.7446    0.0000 C   0  0  0  0  0  0  0  0  0  0  0  0
   -3.4981   -1.7543    0.0000 C   0  0  0  0  0  0  0  0  0  0  0  0
   -4.2565   -0.4602    0.0000 C   0  0  0  0  0  0  0  0  0  0  0  0
   -3.5149    0.8437    0.0000 O   0  0  0  0  0  0  0  0  0  0  0  0
   -5.7564   -0.4699    0.0000 N   0  0  0  0  0  0  0  0  0  0  0  0
   -6.5148    0.8243    0.0000 C   0  0  0  0  0  0  0  0  0  0  0  0
   -8.0148    0.8146    0.0000 C   0  0  0  0  0  0  0  0  0  0  0  0
   -8.7732    2.1088    0.0000 S   0  0  0  0  0  0  0  0  0  0  0  0
  -10.0673    1.3504    0.0000 O   0  0  0  0  0  0  0  0  0  0  0  0
   -7.4790    2.8671    0.0000 O   0  0  0  0  0  0  0  0  0  0  0  0
   -9.5316    3.4029    0.0000 O   0  0  0  0  0  0  0  0  0  0  0  0
    0.2602   -3.0291    0.0000 C   0  0  0  0  0  0  0  0  0  0  0  0
    1.1497   -4.2369    0.0000 C   0  0  0  0  0  0  0  0  0  0  0  0
    2.5733   -3.7641    0.0000 C   0  0  0  0  0  0  0  0  0  0  0  0
    2.5636   -2.2642    0.0000 C   0  0  0  0  0  0  0  0  0  0  0  0
    3.6718   -1.2533    0.0000 C   0  0  0  0  0  0  0  0  0  0  0  0
    5.1013   -1.7076    0.0000 C   0  0  0  0  0  0  0  0  0  0  0  0
    6.2095   -0.6967    0.0000 C   0  0  0  0  0  0  0  0  0  0  0  0
    5.8882    0.7685    0.0000 C   0  0  0  0  0  0  0  0  0  0  0  0
    6.9964    1.7794    0.0000 C   0  0  0  0  0  0  0  0  0  0  0  0
    6.6751    3.2445    0.0000 C   0  0  0  0  0  0  0  0  0  0  0  0
    7.7833    4.2554    0.0000 O   0  0  0  0  0  0  0  0  0  0  0  0
    5.2455    3.6988    0.0000 C   0  0  0  0  0  0  0  0  0  0  0  0
    4.1373    2.6879    0.0000 C   0  0  0  0  0  0  0  0  0  0  0  0
    4.4586    1.2228    0.0000 C   0  0  0  0  0  0  0  0  0  0  0  0
    3.0291    1.6771    0.0000 C   0  0  0  0  0  0  0  0  0  0  0  0
    3.3504    0.2119    0.0000 C   0  0  0  0  0  0  0  0  0  0  0  0
    1.9209    0.6662    0.0000 C   0  0  0  0  0  0  0  0  0  0  0  0
    0.8127   -0.3447    0.0000 C   0  0  0  0  0  0  0  0  0  0  0  0
    1.1340   -1.8099    0.0000 C   0  0  0  0  0  0  0  0  0  0  0  0
   -0.3352   -1.5075    0.0000 C   0  0  0  0  0  0  0  0  0  0  0  0
  2  1  1  6
  2  3  1  0
  3  4  1  0
  4  5  1  0
  5  6  2  0
  5  7  1  0
  7  8  1  0
  8  9  1  0
  9 10  1  0
 10 11  2  0
 10 12  2  0
 10 13  1  0
  2 14  1  0
 14 15  1  6
 15 16  1  0
 17 16  1  6
 17 18  1  0
 18 19  1  6
 19 20  1  0
 21 20  1  1
 21 22  1  0
 22 23  1  0
 23 24  1  1
 23 25  1  0
 25 26  1  0
 26 27  1  0
 27 28  1  6
 27 29  1  0
 29 30  1  6
 30 31  1  0
 31 32  1  0
 32 33  1  6
 32 14  1  0
 32 17  1  0
 29 18  1  0
 27 21  1  0
M  END
>  <MS_ID>  (3832) 
MS4423

>  <SMILES>  (3832) 
C[C@H](CCC(=O)NCCS(=O)(=O)O)[C@H]1CC[C@H]2[C@H]3CC[C@@H]4C[C@H](O)CC[C@]4(C)[C@H]3CC[C@]12C

>  <Structure_dimension>  (3832) 
2D

$$$$
MS4424
     RDKit          2D

 29 32  0  0  0  0  0  0  0  0999 V2000
    5.4177    1.8471    0.0000 C   0  0  0  0  0  0  0  0  0  0  0  0
    4.1829    0.9955    0.0000 C   0  0  0  0  0  0  0  0  0  0  0  0
    4.3031   -0.4997    0.0000 C   0  0  0  0  0  0  0  0  0  0  0  0
    5.6580   -1.1433    0.0000 C   0  0  0  0  0  0  0  0  0  0  0  0
    5.7781   -2.6385    0.0000 C   0  0  0  0  0  0  0  0  0  0  0  0
    4.5433   -3.4901    0.0000 O   0  0  0  0  0  0  0  0  0  0  0  0
    7.1330   -3.2820    0.0000 O   0  0  0  0  0  0  0  0  0  0  0  0
    2.8280    1.6390    0.0000 C   0  0  0  0  0  0  0  0  0  0  0  0
    2.5522    3.1135    0.0000 C   0  0  0  0  0  0  0  0  0  0  0  0
    1.0648    3.3068    0.0000 C   0  0  0  0  0  0  0  0  0  0  0  0
    0.4212    1.9519    0.0000 C   0  0  0  0  0  0  0  0  0  0  0  0
   -1.0163    1.5235    0.0000 C   0  0  0  0  0  0  0  0  0  0  0  0
   -2.1061    2.5543    0.0000 C   0  0  0  0  0  0  0  0  0  0  0  0
   -1.7583    4.0134    0.0000 O   0  0  0  0  0  0  0  0  0  0  0  0
   -3.5436    2.1259    0.0000 C   0  0  0  0  0  0  0  0  0  0  0  0
   -3.8914    0.6668    0.0000 C   0  0  0  0  0  0  0  0  0  0  0  0
   -5.3289    0.2384    0.0000 C   0  0  0  0  0  0  0  0  0  0  0  0
   -5.6767   -1.2207    0.0000 C   0  0  0  0  0  0  0  0  0  0  0  0
   -7.1143   -1.6491    0.0000 O   0  0  0  0  0  0  0  0  0  0  0  0
   -4.5870   -2.2515    0.0000 C   0  0  0  0  0  0  0  0  0  0  0  0
   -4.9348   -3.7106    0.0000 F   0  0  0  0  0  0  0  0  0  0  0  0
   -3.1494   -1.8231    0.0000 C   0  0  0  0  0  0  0  0  0  0  0  0
   -2.8017   -0.3640    0.0000 C   0  0  0  0  0  0  0  0  0  0  0  0
   -1.7119   -1.3947    0.0000 C   0  0  0  0  0  0  0  0  0  0  0  0
   -1.3641    0.0644    0.0000 C   0  0  0  0  0  0  0  0  0  0  0  0
   -0.2744   -0.9664    0.0000 C   0  0  0  0  0  0  0  0  0  0  0  0
    1.1632   -0.5380    0.0000 C   0  0  0  0  0  0  0  0  0  0  0  0
    1.5109    0.9211    0.0000 C   0  0  0  0  0  0  0  0  0  0  0  0
    2.7025    0.0099    0.0000 C   0  0  0  0  0  0  0  0  0  0  0  0
  2  1  1  6
  2  3  1  0
  3  4  1  0
  4  5  1  0
  5  6  2  0
  5  7  1  0
  2  8  1  0
  8  9  1  6
  9 10  1  0
 11 10  1  6
 11 12  1  0
 12 13  1  1
 13 14  1  1
 13 15  1  0
 16 15  1  1
 16 17  1  0
 17 18  1  0
 18 19  1  1
 18 20  1  0
 20 21  1  6
 20 22  1  0
 22 23  1  0
 23 24  1  6
 23 25  1  0
 25 26  1  6
 26 27  1  0
 27 28  1  0
 28 29  1  6
 28  8  1  0
 28 11  1  0
 25 12  1  0
 23 16  1  0
M  END
>  <MS_ID>  (3833) 
MS4424

>  <SMILES>  (3833) 
C[C@H](CCC(=O)O)[C@H]1CC[C@H]2[C@@H]3[C@H](O)C[C@@H]4C[C@H](O)[C@@H](F)C[C@]4(C)[C@H]3CC[C@]12C

>  <Structure_dimension>  (3833) 
2D

$$$$
MS4429
     RDKit          2D

 27 30  0  0  0  0  0  0  0  0999 V2000
   -5.1023   -2.0364    0.0000 C   0  0  0  0  0  0  0  0  0  0  0  0
   -3.8978   -1.1425    0.0000 C   0  0  0  0  0  0  0  0  0  0  0  0
   -4.0697    0.3476    0.0000 C   0  0  0  0  0  0  0  0  0  0  0  0
   -5.4461    0.9438    0.0000 C   0  0  0  0  0  0  0  0  0  0  0  0
   -5.6180    2.4339    0.0000 C   0  0  0  0  0  0  0  0  0  0  0  0
   -4.4135    3.3278    0.0000 O   0  0  0  0  0  0  0  0  0  0  0  0
   -6.9944    3.0301    0.0000 O   0  0  0  0  0  0  0  0  0  0  0  0
   -2.5213   -1.7387    0.0000 C   0  0  0  0  0  0  0  0  0  0  0  0
   -2.1946   -3.2027    0.0000 C   0  0  0  0  0  0  0  0  0  0  0  0
   -0.7013   -3.3444    0.0000 C   0  0  0  0  0  0  0  0  0  0  0  0
   -0.1051   -1.9679    0.0000 C   0  0  0  0  0  0  0  0  0  0  0  0
    1.3167   -1.4900    0.0000 C   0  0  0  0  0  0  0  0  0  0  0  0
    2.4415   -2.4823    0.0000 C   0  0  0  0  0  0  0  0  0  0  0  0
    3.8633   -2.0044    0.0000 C   0  0  0  0  0  0  0  0  0  0  0  0
    4.1603   -0.5341    0.0000 C   0  0  0  0  0  0  0  0  0  0  0  0
    5.5821   -0.0561    0.0000 C   0  0  0  0  0  0  0  0  0  0  0  0
    5.8791    1.4142    0.0000 C   0  0  0  0  0  0  0  0  0  0  0  0
    7.3009    1.8921    0.0000 O   0  0  0  0  0  0  0  0  0  0  0  0
    4.7543    2.4065    0.0000 C   0  0  0  0  0  0  0  0  0  0  0  0
    3.3325    1.9286    0.0000 C   0  0  0  0  0  0  0  0  0  0  0  0
    3.0355    0.4583    0.0000 C   0  0  0  0  0  0  0  0  0  0  0  0
    1.9107    1.4506    0.0000 C   0  0  0  0  0  0  0  0  0  0  0  0
    1.6137   -0.0197    0.0000 C   0  0  0  0  0  0  0  0  0  0  0  0
    0.4888    0.9727    0.0000 C   0  0  0  0  0  0  0  0  0  0  0  0
   -0.9330    0.4947    0.0000 C   0  0  0  0  0  0  0  0  0  0  0  0
   -1.2300   -0.9756    0.0000 C   0  0  0  0  0  0  0  0  0  0  0  0
   -2.4524   -0.1062    0.0000 C   0  0  0  0  0  0  0  0  0  0  0  0
  2  1  1  1
  2  3  1  0
  3  4  1  0
  4  5  1  0
  5  6  2  0
  5  7  1  0
  2  8  1  0
  8  9  1  6
  9 10  1  0
 11 10  1  6
 11 12  1  0
 12 13  1  1
 13 14  1  0
 15 14  1  6
 15 16  1  0
 16 17  1  0
 17 18  1  6
 17 19  1  0
 19 20  1  0
 20 21  1  0
 21 22  1  6
 21 23  1  0
 23 24  1  6
 24 25  1  0
 25 26  1  0
 26 27  1  6
 26  8  1  0
 26 11  1  0
 23 12  1  0
 21 15  1  0
M  END
>  <MS_ID>  (3834) 
MS4429

>  <SMILES>  (3834) 
C[C@@H](CCC(=O)O)[C@H]1CC[C@H]2[C@@H]3CC[C@H]4C[C@@H](O)CC[C@]4(C)[C@H]3CC[C@]12C

>  <Structure_dimension>  (3834) 
2D

$$$$
MS4430
     RDKit          2D

 32 35  0  0  0  0  0  0  0  0999 V2000
   -2.2161   -4.2482    0.0000 C   0  0  0  0  0  0  0  0  0  0  0  0
   -1.4579   -2.9539    0.0000 C   0  0  0  0  0  0  0  0  0  0  0  0
   -2.1997   -1.6502    0.0000 C   0  0  0  0  0  0  0  0  0  0  0  0
   -3.6997   -1.6408    0.0000 C   0  0  0  0  0  0  0  0  0  0  0  0
   -4.4416   -0.3371    0.0000 C   0  0  0  0  0  0  0  0  0  0  0  0
   -3.6834    0.9572    0.0000 O   0  0  0  0  0  0  0  0  0  0  0  0
   -5.9415   -0.3277    0.0000 N   0  0  0  0  0  0  0  0  0  0  0  0
   -6.6834    0.9761    0.0000 C   0  0  0  0  0  0  0  0  0  0  0  0
   -8.1833    0.9855    0.0000 C   0  0  0  0  0  0  0  0  0  0  0  0
   -8.9252    2.2892    0.0000 C   0  0  0  0  0  0  0  0  0  0  0  0
  -10.4251    2.2986    0.0000 C   0  0  0  0  0  0  0  0  0  0  0  0
  -11.1670    3.6023    0.0000 N   0  0  0  0  0  0  0  0  0  0  0  0
    0.0421   -2.9634    0.0000 C   0  0  0  0  0  0  0  0  0  0  0  0
    0.9161   -4.1824    0.0000 C   0  0  0  0  0  0  0  0  0  0  0  0
    2.3456   -3.7278    0.0000 C   0  0  0  0  0  0  0  0  0  0  0  0
    2.3550   -2.2279    0.0000 C   0  0  0  0  0  0  0  0  0  0  0  0
    3.4760   -1.2312    0.0000 C   0  0  0  0  0  0  0  0  0  0  0  0
    4.8996   -1.7036    0.0000 C   0  0  0  0  0  0  0  0  0  0  0  0
    6.0206   -0.7070    0.0000 C   0  0  0  0  0  0  0  0  0  0  0  0
    5.7180    0.7622    0.0000 C   0  0  0  0  0  0  0  0  0  0  0  0
    6.8390    1.7589    0.0000 C   0  0  0  0  0  0  0  0  0  0  0  0
    6.5363    3.2280    0.0000 C   0  0  0  0  0  0  0  0  0  0  0  0
    7.6573    4.2247    0.0000 O   0  0  0  0  0  0  0  0  0  0  0  0
    5.1127    3.7005    0.0000 C   0  0  0  0  0  0  0  0  0  0  0  0
    3.9917    2.7038    0.0000 C   0  0  0  0  0  0  0  0  0  0  0  0
    4.2943    1.2347    0.0000 C   0  0  0  0  0  0  0  0  0  0  0  0
    2.8707    1.7071    0.0000 C   0  0  0  0  0  0  0  0  0  0  0  0
    3.1733    0.2380    0.0000 C   0  0  0  0  0  0  0  0  0  0  0  0
    1.7497    0.7104    0.0000 C   0  0  0  0  0  0  0  0  0  0  0  0
    0.6287   -0.2862    0.0000 C   0  0  0  0  0  0  0  0  0  0  0  0
    0.9313   -1.7554    0.0000 C   0  0  0  0  0  0  0  0  0  0  0  0
   -0.5339   -1.4343    0.0000 C   0  0  0  0  0  0  0  0  0  0  0  0
  2  1  1  6
  2  3  1  0
  3  4  1  0
  4  5  1  0
  5  6  2  0
  5  7  1  0
  7  8  1  0
  8  9  1  0
  9 10  1  0
 10 11  1  0
 11 12  1  0
  2 13  1  0
 13 14  1  6
 14 15  1  0
 16 15  1  6
 16 17  1  0
 17 18  1  1
 18 19  1  0
 20 19  1  1
 20 21  1  0
 21 22  1  0
 22 23  1  1
 22 24  1  0
 24 25  1  0
 25 26  1  0
 26 27  1  6
 26 28  1  0
 28 29  1  6
 29 30  1  0
 30 31  1  0
 31 32  1  6
 31 13  1  0
 31 16  1  0
 28 17  1  0
 26 20  1  0
M  END
>  <MS_ID>  (3835) 
MS4430

>  <SMILES>  (3835) 
C[C@H](CCC(=O)NCCCCN)[C@H]1CC[C@H]2[C@@H]3CC[C@@H]4C[C@H](O)CC[C@]4(C)[C@H]3CC[C@]12C

>  <Structure_dimension>  (3835) 
2D

$$$$
MS4432
     RDKit          2D

 31 34  0  0  0  0  0  0  0  0999 V2000
   -8.8672    3.1400    0.0000 C   0  0  0  0  0  0  0  0  0  0  0  0
   -7.3980    2.8376    0.0000 C   0  0  0  0  0  0  0  0  0  0  0  0
   -6.9253    1.4140    0.0000 O   0  0  0  0  0  0  0  0  0  0  0  0
   -5.4561    1.1115    0.0000 C   0  0  0  0  0  0  0  0  0  0  0  0
   -4.4596    2.2326    0.0000 O   0  0  0  0  0  0  0  0  0  0  0  0
   -4.9835   -0.3121    0.0000 C   0  0  0  0  0  0  0  0  0  0  0  0
   -3.5143   -0.6145    0.0000 C   0  0  0  0  0  0  0  0  0  0  0  0
   -3.0416   -2.0381    0.0000 C   0  0  0  0  0  0  0  0  0  0  0  0
   -4.0382   -3.1592    0.0000 C   0  0  0  0  0  0  0  0  0  0  0  0
   -1.5724   -2.3406    0.0000 C   0  0  0  0  0  0  0  0  0  0  0  0
   -0.9536   -3.7070    0.0000 C   0  0  0  0  0  0  0  0  0  0  0  0
    0.5372   -3.5406    0.0000 C   0  0  0  0  0  0  0  0  0  0  0  0
    0.8396   -2.0714    0.0000 C   0  0  0  0  0  0  0  0  0  0  0  0
    2.1338   -1.3131    0.0000 C   0  0  0  0  0  0  0  0  0  0  0  0
    3.4377   -2.0548    0.0000 C   0  0  0  0  0  0  0  0  0  0  0  0
    3.4473   -3.5547    0.0000 O   0  0  0  0  0  0  0  0  0  0  0  0
    4.7319   -1.2965    0.0000 C   0  0  0  0  0  0  0  0  0  0  0  0
    4.7223    0.2035    0.0000 C   0  0  0  0  0  0  0  0  0  0  0  0
    6.0165    0.9618    0.0000 C   0  0  0  0  0  0  0  0  0  0  0  0
    6.0069    2.4618    0.0000 C   0  0  0  0  0  0  0  0  0  0  0  0
    7.3011    3.2201    0.0000 O   0  0  0  0  0  0  0  0  0  0  0  0
    4.7030    3.2034    0.0000 C   0  0  0  0  0  0  0  0  0  0  0  0
    3.4088    2.4451    0.0000 C   0  0  0  0  0  0  0  0  0  0  0  0
    3.4184    0.9452    0.0000 C   0  0  0  0  0  0  0  0  0  0  0  0
    2.1146    1.6868    0.0000 C   0  0  0  0  0  0  0  0  0  0  0  0
    2.1242    0.1869    0.0000 C   0  0  0  0  0  0  0  0  0  0  0  0
    0.8204    0.9285    0.0000 C   0  0  0  0  0  0  0  0  0  0  0  0
   -0.4738    0.1702    0.0000 C   0  0  0  0  0  0  0  0  0  0  0  0
   -1.7776    0.9119    0.0000 O   0  0  0  0  0  0  0  0  0  0  0  0
   -0.4642   -1.3298    0.0000 C   0  0  0  0  0  0  0  0  0  0  0  0
   -1.8384   -0.7284    0.0000 C   0  0  0  0  0  0  0  0  0  0  0  0
  1  2  1  0
  2  3  1  0
  3  4  1  0
  4  5  2  0
  4  6  1  0
  6  7  1  0
  7  8  1  0
  8  9  1  1
  8 10  1  0
 10 11  1  6
 11 12  1  0
 13 12  1  6
 13 14  1  0
 14 15  1  1
 15 16  1  1
 15 17  1  0
 18 17  1  6
 18 19  1  0
 19 20  1  0
 20 21  1  1
 20 22  1  0
 22 23  1  0
 23 24  1  0
 24 25  1  6
 24 26  1  0
 26 27  1  6
 27 28  1  0
 28 29  1  1
 28 30  1  0
 30 31  1  6
 30 10  1  0
 30 13  1  0
 26 14  1  0
 24 18  1  0
M  END
>  <MS_ID>  (3836) 
MS4432

>  <SMILES>  (3836) 
CCOC(=O)CC[C@H](C)[C@H]1CC[C@H]2[C@@H]3[C@H](O)C[C@H]4C[C@H](O)CC[C@]4(C)[C@H]3C[C@H](O)[C@]12C

>  <Structure_dimension>  (3836) 
2D

$$$$
MS4436
     RDKit          2D

 31 34  0  0  0  0  0  0  0  0999 V2000
   -3.0989   -3.6972    0.0000 C   0  0  0  0  0  0  0  0  0  0  0  0
   -2.1883   -2.5051    0.0000 C   0  0  0  0  0  0  0  0  0  0  0  0
   -2.7654   -1.1206    0.0000 C   0  0  0  0  0  0  0  0  0  0  0  0
   -4.2530   -0.9280    0.0000 C   0  0  0  0  0  0  0  0  0  0  0  0
   -4.8300    0.4565    0.0000 C   0  0  0  0  0  0  0  0  0  0  0  0
   -3.9195    1.6486    0.0000 O   0  0  0  0  0  0  0  0  0  0  0  0
   -6.3176    0.6491    0.0000 N   0  0  0  0  0  0  0  0  0  0  0  0
   -6.8947    2.0336    0.0000 C   0  0  0  0  0  0  0  0  0  0  0  0
   -8.3823    2.2261    0.0000 C   0  0  0  0  0  0  0  0  0  0  0  0
   -9.2928    1.0341    0.0000 O   0  0  0  0  0  0  0  0  0  0  0  0
   -8.9593    3.6107    0.0000 O   0  0  0  0  0  0  0  0  0  0  0  0
   -0.7007   -2.6977    0.0000 C   0  0  0  0  0  0  0  0  0  0  0  0
    0.0179   -4.0143    0.0000 C   0  0  0  0  0  0  0  0  0  0  0  0
    1.4922   -3.7377    0.0000 C   0  0  0  0  0  0  0  0  0  0  0  0
    1.6847   -2.2501    0.0000 C   0  0  0  0  0  0  0  0  0  0  0  0
    2.9190   -1.3978    0.0000 C   0  0  0  0  0  0  0  0  0  0  0  0
    4.2743   -2.0406    0.0000 C   0  0  0  0  0  0  0  0  0  0  0  0
    5.5086   -1.1883    0.0000 C   0  0  0  0  0  0  0  0  0  0  0  0
    5.3877    0.3068    0.0000 C   0  0  0  0  0  0  0  0  0  0  0  0
    6.6220    1.1591    0.0000 C   0  0  0  0  0  0  0  0  0  0  0  0
    6.5010    2.6542    0.0000 C   0  0  0  0  0  0  0  0  0  0  0  0
    7.7354    3.5066    0.0000 O   0  0  0  0  0  0  0  0  0  0  0  0
    5.1457    3.2970    0.0000 C   0  0  0  0  0  0  0  0  0  0  0  0
    3.9114    2.4447    0.0000 C   0  0  0  0  0  0  0  0  0  0  0  0
    4.0324    0.9496    0.0000 C   0  0  0  0  0  0  0  0  0  0  0  0
    2.6771    1.5924    0.0000 C   0  0  0  0  0  0  0  0  0  0  0  0
    2.7981    0.0973    0.0000 C   0  0  0  0  0  0  0  0  0  0  0  0
    1.4428    0.7401    0.0000 C   0  0  0  0  0  0  0  0  0  0  0  0
    0.2084   -0.1122    0.0000 C   0  0  0  0  0  0  0  0  0  0  0  0
    0.3294   -1.6073    0.0000 C   0  0  0  0  0  0  0  0  0  0  0  0
   -1.0856   -1.1097    0.0000 C   0  0  0  0  0  0  0  0  0  0  0  0
  2  1  1  1
  2  3  1  0
  3  4  1  0
  4  5  1  0
  5  6  2  0
  5  7  1  0
  7  8  1  0
  8  9  1  0
  9 10  2  0
  9 11  1  0
  2 12  1  0
 12 13  1  6
 13 14  1  0
 15 14  1  6
 15 16  1  0
 16 17  1  1
 17 18  1  0
 19 18  1  6
 19 20  1  0
 20 21  1  0
 21 22  1  6
 21 23  1  0
 23 24  1  0
 24 25  1  0
 25 26  1  6
 25 27  1  0
 27 28  1  6
 28 29  1  0
 29 30  1  0
 30 31  1  6
 30 12  1  0
 30 15  1  0
 27 16  1  0
 25 19  1  0
M  END
>  <MS_ID>  (3837) 
MS4436

>  <SMILES>  (3837) 
C[C@@H](CCC(=O)NCC(=O)O)[C@H]1CC[C@H]2[C@@H]3CC[C@H]4C[C@@H](O)CC[C@]4(C)[C@H]3CC[C@]12C

>  <Structure_dimension>  (3837) 
2D

$$$$
MS4438
     RDKit          2D

 30 33  0  0  0  0  0  0  0  0999 V2000
   -7.4279    3.5601    0.0000 C   0  0  0  0  0  0  0  0  0  0  0  0
   -7.0729    2.1027    0.0000 O   0  0  0  0  0  0  0  0  0  0  0  0
   -5.6333    1.6814    0.0000 C   0  0  0  0  0  0  0  0  0  0  0  0
   -4.5486    2.7174    0.0000 O   0  0  0  0  0  0  0  0  0  0  0  0
   -5.2784    0.2240    0.0000 C   0  0  0  0  0  0  0  0  0  0  0  0
   -3.8388   -0.1974    0.0000 C   0  0  0  0  0  0  0  0  0  0  0  0
   -3.4838   -1.6548    0.0000 C   0  0  0  0  0  0  0  0  0  0  0  0
   -4.5685   -2.6908    0.0000 C   0  0  0  0  0  0  0  0  0  0  0  0
   -2.0442   -2.0761    0.0000 C   0  0  0  0  0  0  0  0  0  0  0  0
   -1.5389   -3.4884    0.0000 C   0  0  0  0  0  0  0  0  0  0  0  0
   -0.0395   -3.4442    0.0000 C   0  0  0  0  0  0  0  0  0  0  0  0
    0.3818   -2.0046    0.0000 C   0  0  0  0  0  0  0  0  0  0  0  0
    1.7336   -1.3544    0.0000 C   0  0  0  0  0  0  0  0  0  0  0  0
    2.9725   -2.1999    0.0000 C   0  0  0  0  0  0  0  0  0  0  0  0
    2.8597   -3.6957    0.0000 O   0  0  0  0  0  0  0  0  0  0  0  0
    4.3243   -1.5497    0.0000 C   0  0  0  0  0  0  0  0  0  0  0  0
    4.4371   -0.0540    0.0000 C   0  0  0  0  0  0  0  0  0  0  0  0
    5.7888    0.5962    0.0000 C   0  0  0  0  0  0  0  0  0  0  0  0
    5.9016    2.0920    0.0000 C   0  0  0  0  0  0  0  0  0  0  0  0
    7.2534    2.7422    0.0000 N   0  0  0  0  0  0  0  0  0  0  0  0
    4.6627    2.9375    0.0000 C   0  0  0  0  0  0  0  0  0  0  0  0
    3.3109    2.2873    0.0000 C   0  0  0  0  0  0  0  0  0  0  0  0
    3.1981    0.7916    0.0000 C   0  0  0  0  0  0  0  0  0  0  0  0
    1.9591    1.6371    0.0000 C   0  0  0  0  0  0  0  0  0  0  0  0
    1.8464    0.1414    0.0000 C   0  0  0  0  0  0  0  0  0  0  0  0
    0.6074    0.9869    0.0000 C   0  0  0  0  0  0  0  0  0  0  0  0
   -0.7444    0.3367    0.0000 C   0  0  0  0  0  0  0  0  0  0  0  0
   -1.9833    1.1823    0.0000 O   0  0  0  0  0  0  0  0  0  0  0  0
   -0.8572   -1.1590    0.0000 C   0  0  0  0  0  0  0  0  0  0  0  0
   -2.1777   -0.4476    0.0000 C   0  0  0  0  0  0  0  0  0  0  0  0
  1  2  1  0
  2  3  1  0
  3  4  2  0
  3  5  1  0
  5  6  1  0
  6  7  1  0
  7  8  1  6
  7  9  1  0
  9 10  1  6
 10 11  1  0
 12 11  1  6
 12 13  1  0
 13 14  1  1
 14 15  1  1
 14 16  1  0
 17 16  1  1
 17 18  1  0
 18 19  1  0
 19 20  1  1
 19 21  1  0
 21 22  1  0
 22 23  1  0
 23 24  1  6
 23 25  1  0
 25 26  1  6
 26 27  1  0
 27 28  1  1
 27 29  1  0
 29 30  1  6
 29  9  1  0
 29 12  1  0
 25 13  1  0
 23 17  1  0
M  END
>  <MS_ID>  (3838) 
MS4438

>  <SMILES>  (3838) 
COC(=O)CC[C@@H](C)[C@H]1CC[C@H]2[C@@H]3[C@H](O)C[C@@H]4C[C@H](N)CC[C@]4(C)[C@H]3C[C@H](O)[C@]12C

>  <Structure_dimension>  (3838) 
2D

$$$$
MS4443
     RDKit          2D

 30 33  0  0  0  0  0  0  0  0999 V2000
    5.3223    1.9557    0.0000 C   0  0  0  0  0  0  0  0  0  0  0  0
    4.0965    1.0911    0.0000 C   0  0  0  0  0  0  0  0  0  0  0  0
    4.2324   -0.4028    0.0000 C   0  0  0  0  0  0  0  0  0  0  0  0
    5.5941   -1.0320    0.0000 C   0  0  0  0  0  0  0  0  0  0  0  0
    5.7300   -2.5258    0.0000 C   0  0  0  0  0  0  0  0  0  0  0  0
    4.5043   -3.3904    0.0000 O   0  0  0  0  0  0  0  0  0  0  0  0
    7.0916   -3.1550    0.0000 O   0  0  0  0  0  0  0  0  0  0  0  0
    2.7349    1.7203    0.0000 C   0  0  0  0  0  0  0  0  0  0  0  0
    2.4436    3.1917    0.0000 C   0  0  0  0  0  0  0  0  0  0  0  0
    0.9541    3.3694    0.0000 C   0  0  0  0  0  0  0  0  0  0  0  0
    0.3249    2.0077    0.0000 C   0  0  0  0  0  0  0  0  0  0  0  0
   -1.1080    1.5642    0.0000 C   0  0  0  0  0  0  0  0  0  0  0  0
   -2.2086    2.5834    0.0000 C   0  0  0  0  0  0  0  0  0  0  0  0
   -1.8762    4.0461    0.0000 O   0  0  0  0  0  0  0  0  0  0  0  0
   -3.6415    2.1399    0.0000 C   0  0  0  0  0  0  0  0  0  0  0  0
   -3.9739    0.6772    0.0000 C   0  0  0  0  0  0  0  0  0  0  0  0
   -5.4068    0.2336    0.0000 C   0  0  0  0  0  0  0  0  0  0  0  0
   -5.7392   -1.2291    0.0000 C   0  0  0  0  0  0  0  0  0  0  0  0
   -7.1721   -1.6726    0.0000 O   0  0  0  0  0  0  0  0  0  0  0  0
   -4.6386   -2.2483    0.0000 C   0  0  0  0  0  0  0  0  0  0  0  0
   -4.9710   -3.7110    0.0000 O   0  0  0  0  0  0  0  0  0  0  0  0
   -3.2057   -1.8047    0.0000 C   0  0  0  0  0  0  0  0  0  0  0  0
   -2.8733   -0.3420    0.0000 C   0  0  0  0  0  0  0  0  0  0  0  0
   -1.7727   -1.3612    0.0000 C   0  0  0  0  0  0  0  0  0  0  0  0
   -1.4404    0.1015    0.0000 C   0  0  0  0  0  0  0  0  0  0  0  0
   -0.3398   -0.9177    0.0000 C   0  0  0  0  0  0  0  0  0  0  0  0
    1.0931   -0.4742    0.0000 C   0  0  0  0  0  0  0  0  0  0  0  0
    2.1937   -1.4934    0.0000 O   0  0  0  0  0  0  0  0  0  0  0  0
    1.4255    0.9885    0.0000 C   0  0  0  0  0  0  0  0  0  0  0  0
    2.6266    0.0900    0.0000 C   0  0  0  0  0  0  0  0  0  0  0  0
  2  1  1  6
  2  3  1  0
  3  4  1  0
  4  5  1  0
  5  6  2  0
  5  7  1  0
  2  8  1  0
  8  9  1  6
  9 10  1  0
 11 10  1  6
 11 12  1  0
 12 13  1  1
 13 14  1  1
 13 15  1  0
 16 15  1  1
 16 17  1  0
 17 18  1  0
 18 19  1  1
 18 20  1  0
 20 21  2  0
 20 22  1  0
 22 23  1  0
 23 24  1  6
 23 25  1  0
 25 26  1  6
 26 27  1  0
 27 28  1  1
 27 29  1  0
 29 30  1  6
 29  8  1  0
 29 11  1  0
 25 12  1  0
 23 16  1  0
M  END
>  <MS_ID>  (3839) 
MS4443

>  <SMILES>  (3839) 
C[C@H](CCC(=O)O)[C@H]1CC[C@H]2[C@@H]3[C@H](O)C[C@@H]4C[C@H](O)C(=O)C[C@]4(C)[C@H]3C[C@H](O)[C@]12C

>  <Structure_dimension>  (3839) 
2D

$$$$
MS4444
     RDKit          2D

 37 40  0  0  0  0  0  0  0  0999 V2000
   -5.9263    4.5457    0.0000 C   0  0  0  0  0  0  0  0  0  0  0  0
   -6.6350    3.2236    0.0000 O   0  0  0  0  0  0  0  0  0  0  0  0
   -5.8444    1.9489    0.0000 C   0  0  0  0  0  0  0  0  0  0  0  0
   -4.3451    1.9961    0.0000 O   0  0  0  0  0  0  0  0  0  0  0  0
   -6.5531    0.6268    0.0000 C   0  0  0  0  0  0  0  0  0  0  0  0
   -5.7625   -0.6479    0.0000 N   0  0  0  0  0  0  0  0  0  0  0  0
   -4.2633   -0.6007    0.0000 C   0  0  0  0  0  0  0  0  0  0  0  0
   -3.5546    0.7214    0.0000 O   0  0  0  0  0  0  0  0  0  0  0  0
   -3.4727   -1.8754    0.0000 C   0  0  0  0  0  0  0  0  0  0  0  0
   -1.9735   -1.8282    0.0000 C   0  0  0  0  0  0  0  0  0  0  0  0
   -1.1829   -3.1029    0.0000 C   0  0  0  0  0  0  0  0  0  0  0  0
   -1.8916   -4.4250    0.0000 C   0  0  0  0  0  0  0  0  0  0  0  0
    0.3163   -3.0557    0.0000 C   0  0  0  0  0  0  0  0  0  0  0  0
    1.2358   -4.2408    0.0000 C   0  0  0  0  0  0  0  0  0  0  0  0
    2.6471   -3.7326    0.0000 C   0  0  0  0  0  0  0  0  0  0  0  0
    2.5998   -2.2333    0.0000 C   0  0  0  0  0  0  0  0  0  0  0  0
    3.6824   -1.1950    0.0000 C   0  0  0  0  0  0  0  0  0  0  0  0
    5.1228   -1.6134    0.0000 C   0  0  0  0  0  0  0  0  0  0  0  0
    5.4808   -3.0700    0.0000 O   0  0  0  0  0  0  0  0  0  0  0  0
    6.2054   -0.5750    0.0000 C   0  0  0  0  0  0  0  0  0  0  0  0
    5.8474    0.8816    0.0000 C   0  0  0  0  0  0  0  0  0  0  0  0
    6.9300    1.9199    0.0000 C   0  0  0  0  0  0  0  0  0  0  0  0
    6.5720    3.3766    0.0000 C   0  0  0  0  0  0  0  0  0  0  0  0
    7.6546    4.4149    0.0000 O   0  0  0  0  0  0  0  0  0  0  0  0
    5.1316    3.7950    0.0000 C   0  0  0  0  0  0  0  0  0  0  0  0
    4.0490    2.7566    0.0000 C   0  0  0  0  0  0  0  0  0  0  0  0
    4.4070    1.3000    0.0000 C   0  0  0  0  0  0  0  0  0  0  0  0
    2.9665    1.7183    0.0000 C   0  0  0  0  0  0  0  0  0  0  0  0
    3.3244    0.2617    0.0000 C   0  0  0  0  0  0  0  0  0  0  0  0
    1.8839    0.6800    0.0000 C   0  0  0  0  0  0  0  0  0  0  0  0
    0.8014   -0.3583    0.0000 C   0  0  0  0  0  0  0  0  0  0  0  0
   -0.6391    0.0600    0.0000 O   0  0  0  0  0  0  0  0  0  0  0  0
    1.1593   -1.8150    0.0000 C   0  0  0  0  0  0  0  0  0  0  0  0
   -0.3170   -1.5495    0.0000 C   0  0  0  0  0  0  0  0  0  0  0  0
   -8.0524    0.5796    0.0000 C   0  0  0  0  0  0  0  0  0  0  0  0
   -8.8429    1.8543    0.0000 C   0  0  0  0  0  0  0  0  0  0  0  0
   -8.7611   -0.7424    0.0000 C   0  0  0  0  0  0  0  0  0  0  0  0
  1  2  1  0
  2  3  1  0
  3  4  2  0
  3  5  1  0
  5  6  1  1
  6  7  1  0
  7  8  2  0
  7  9  1  0
  9 10  1  0
 10 11  1  0
 11 12  1  6
 11 13  1  0
 13 14  1  6
 14 15  1  0
 16 15  1  6
 16 17  1  0
 17 18  1  1
 18 19  1  1
 18 20  1  0
 21 20  1  1
 21 22  1  0
 22 23  1  0
 23 24  1  1
 23 25  1  0
 25 26  1  0
 26 27  1  0
 27 28  1  6
 27 29  1  0
 29 30  1  6
 30 31  1  0
 31 32  1  1
 31 33  1  0
 33 34  1  6
  5 35  1  0
 35 36  1  0
 35 37  1  0
 33 13  1  0
 33 16  1  0
 29 17  1  0
 27 21  1  0
M  END
>  <MS_ID>  (3840) 
MS4444

>  <SMILES>  (3840) 
COC(=O)[C@@H](NC(=O)CC[C@@H](C)[C@H]1CC[C@H]2[C@@H]3[C@H](O)C[C@@H]4C[C@H](O)CC[C@]4(C)[C@H]3C[C@H](O)[C@]12C)C(C)C

>  <Structure_dimension>  (3840) 
2D

$$$$
MS4445
     RDKit          2D

 39 43  0  0  0  0  0  0  0  0999 V2000
   -0.8433   -4.8756    0.0000 C   0  0  0  0  0  0  0  0  0  0  0  0
   -0.2507   -3.4976    0.0000 C   0  0  0  0  0  0  0  0  0  0  0  0
   -1.1478   -2.2954    0.0000 C   0  0  0  0  0  0  0  0  0  0  0  0
   -2.6375   -2.4712    0.0000 C   0  0  0  0  0  0  0  0  0  0  0  0
   -3.5346   -1.2691    0.0000 C   0  0  0  0  0  0  0  0  0  0  0  0
   -2.9420    0.1089    0.0000 O   0  0  0  0  0  0  0  0  0  0  0  0
   -5.0242   -1.4449    0.0000 O   0  0  0  0  0  0  0  0  0  0  0  0
   -5.9213   -0.2427    0.0000 C   0  0  0  0  0  0  0  0  0  0  0  0
   -5.3288    1.1353    0.0000 O   0  0  0  0  0  0  0  0  0  0  0  0
   -6.2259    2.3375    0.0000 C   0  0  0  0  0  0  0  0  0  0  0  0
   -5.6333    3.7155    0.0000 C   0  0  0  0  0  0  0  0  0  0  0  0
   -4.1436    3.8913    0.0000 O   0  0  0  0  0  0  0  0  0  0  0  0
   -7.7155    2.1616    0.0000 C   0  0  0  0  0  0  0  0  0  0  0  0
   -8.6126    3.3638    0.0000 O   0  0  0  0  0  0  0  0  0  0  0  0
   -8.3081    0.7837    0.0000 C   0  0  0  0  0  0  0  0  0  0  0  0
   -9.7978    0.6078    0.0000 O   0  0  0  0  0  0  0  0  0  0  0  0
   -7.4110   -0.4185    0.0000 C   0  0  0  0  0  0  0  0  0  0  0  0
   -8.0036   -1.7965    0.0000 O   0  0  0  0  0  0  0  0  0  0  0  0
    1.2389   -3.3218    0.0000 C   0  0  0  0  0  0  0  0  0  0  0  0
    2.2568   -4.4236    0.0000 C   0  0  0  0  0  0  0  0  0  0  0  0
    3.6192   -3.7960    0.0000 C   0  0  0  0  0  0  0  0  0  0  0  0
    3.4434   -2.3064    0.0000 C   0  0  0  0  0  0  0  0  0  0  0  0
    4.4327   -1.1789    0.0000 C   0  0  0  0  0  0  0  0  0  0  0  0
    5.9038   -1.4721    0.0000 C   0  0  0  0  0  0  0  0  0  0  0  0
    6.8932   -0.3446    0.0000 C   0  0  0  0  0  0  0  0  0  0  0  0
    8.3643   -0.6377    0.0000 O   0  0  0  0  0  0  0  0  0  0  0  0
    6.4115    1.0759    0.0000 C   0  0  0  0  0  0  0  0  0  0  0  0
    7.4009    2.2034    0.0000 C   0  0  0  0  0  0  0  0  0  0  0  0
    6.9192    3.6239    0.0000 C   0  0  0  0  0  0  0  0  0  0  0  0
    7.9086    4.7514    0.0000 O   0  0  0  0  0  0  0  0  0  0  0  0
    5.4481    3.9170    0.0000 C   0  0  0  0  0  0  0  0  0  0  0  0
    4.4587    2.7896    0.0000 C   0  0  0  0  0  0  0  0  0  0  0  0
    4.9404    1.3690    0.0000 C   0  0  0  0  0  0  0  0  0  0  0  0
    3.4694    1.6622    0.0000 C   0  0  0  0  0  0  0  0  0  0  0  0
    3.9511    0.2416    0.0000 C   0  0  0  0  0  0  0  0  0  0  0  0
    2.4800    0.5347    0.0000 C   0  0  0  0  0  0  0  0  0  0  0  0
    1.4906   -0.5927    0.0000 C   0  0  0  0  0  0  0  0  0  0  0  0
    1.9723   -2.0133    0.0000 C   0  0  0  0  0  0  0  0  0  0  0  0
    0.4786   -1.8755    0.0000 C   0  0  0  0  0  0  0  0  0  0  0  0
  2  1  1  6
  2  3  1  0
  3  4  1  0
  4  5  1  0
  5  6  2  0
  5  7  1  0
  8  7  1  1
  8  9  1  0
  9 10  1  0
 10 11  1  1
 11 12  1  0
 10 13  1  0
 13 14  1  6
 13 15  1  0
 15 16  1  1
 15 17  1  0
 17 18  1  6
  2 19  1  0
 19 20  1  6
 20 21  1  0
 22 21  1  6
 22 23  1  0
 23 24  1  1
 24 25  1  0
 25 26  1  1
 25 27  1  0
 27 28  1  1
 28 29  1  0
 29 30  1  1
 29 31  1  0
 31 32  1  0
 32 33  1  0
 33 34  1  6
 33 35  1  0
 35 36  1  6
 36 37  1  0
 37 38  1  0
 38 39  1  6
 17  8  1  0
 38 19  1  0
 38 22  1  0
 35 23  1  0
 33 27  1  0
M  END
>  <MS_ID>  (3841) 
MS4445

>  <SMILES>  (3841) 
C[C@H](CCC(=O)O[C@@H]1O[C@H](CO)[C@@H](O)[C@H](O)[C@H]1O)[C@H]1CC[C@H]2[C@@H]3C[C@H](O)[C@@H]4C[C@H](O)CC[C@]4(C)[C@H]3CC[C@]12C

>  <Structure_dimension>  (3841) 
2D

$$$$
MS4446
     RDKit          2D

 30 34  0  0  0  0  0  0  0  0999 V2000
   -5.5110    2.0247    0.0000 C   0  0  0  0  0  0  0  0  0  0  0  0
   -4.3303    1.0995    0.0000 C   0  0  0  0  0  0  0  0  0  0  0  0
   -4.5412   -0.3856    0.0000 C   0  0  0  0  0  0  0  0  0  0  0  0
   -5.9328   -0.9455    0.0000 C   0  0  0  0  0  0  0  0  0  0  0  0
   -6.1437   -2.4306    0.0000 C   0  0  0  0  0  0  0  0  0  0  0  0
   -4.9630   -3.3558    0.0000 O   0  0  0  0  0  0  0  0  0  0  0  0
   -7.5353   -2.9905    0.0000 O   0  0  0  0  0  0  0  0  0  0  0  0
   -2.9388    1.6595    0.0000 C   0  0  0  0  0  0  0  0  0  0  0  0
   -2.5738    3.1144    0.0000 C   0  0  0  0  0  0  0  0  0  0  0  0
   -1.0773    3.2169    0.0000 C   0  0  0  0  0  0  0  0  0  0  0  0
   -0.5174    1.8253    0.0000 C   0  0  0  0  0  0  0  0  0  0  0  0
    0.5261    2.9028    0.0000 C   0  0  0  0  0  0  0  0  0  0  0  0
    0.8914    1.3102    0.0000 C   0  0  0  0  0  0  0  0  0  0  0  0
    2.0419    2.2728    0.0000 C   0  0  0  0  0  0  0  0  0  0  0  0
    3.4507    1.7577    0.0000 C   0  0  0  0  0  0  0  0  0  0  0  0
    3.7090    0.2801    0.0000 C   0  0  0  0  0  0  0  0  0  0  0  0
    5.1178   -0.2349    0.0000 C   0  0  0  0  0  0  0  0  0  0  0  0
    6.6178   -0.2371    0.0000 C   0  0  0  0  0  0  0  0  0  0  0  0
    5.3804    1.2419    0.0000 C   0  0  0  0  0  0  0  0  0  0  0  0
    5.3762   -1.7125    0.0000 C   0  0  0  0  0  0  0  0  0  0  0  0
    6.7850   -2.2276    0.0000 O   0  0  0  0  0  0  0  0  0  0  0  0
    4.2257   -2.6750    0.0000 C   0  0  0  0  0  0  0  0  0  0  0  0
    2.8169   -2.1600    0.0000 C   0  0  0  0  0  0  0  0  0  0  0  0
    2.5586   -0.6824    0.0000 C   0  0  0  0  0  0  0  0  0  0  0  0
    1.4081   -1.6449    0.0000 C   0  0  0  0  0  0  0  0  0  0  0  0
    1.1498   -0.1674    0.0000 C   0  0  0  0  0  0  0  0  0  0  0  0
   -0.0007   -1.1299    0.0000 C   0  0  0  0  0  0  0  0  0  0  0  0
   -1.4095   -0.6148    0.0000 C   0  0  0  0  0  0  0  0  0  0  0  0
   -1.6678    0.8628    0.0000 C   0  0  0  0  0  0  0  0  0  0  0  0
   -2.9126    0.0258    0.0000 C   0  0  0  0  0  0  0  0  0  0  0  0
  2  1  1  1
  2  3  1  0
  3  4  1  0
  4  5  1  0
  5  6  2  0
  5  7  1  0
  2  8  1  0
  8  9  1  1
  9 10  1  0
 10 11  1  0
 11 12  1  6
 11 13  1  0
 13 14  1  6
 14 15  1  0
 16 15  1  1
 16 17  1  0
 17 18  1  0
 17 19  1  0
 17 20  1  0
 20 21  2  0
 20 22  1  0
 22 23  1  0
 24 23  1  6
 24 25  1  0
 26 25  1  1
 26 27  1  0
 27 28  1  0
 28 29  1  0
 29 30  1  1
 29  8  1  0
 29 11  1  0
 26 13  1  0
 24 16  1  0
 26 24  1  0
M  END
>  <MS_ID>  (3842) 
MS4446

>  <SMILES>  (3842) 
C[C@H](CCC(=O)O)[C@H]1CC[C@@]2(C)[C@@H]3CC[C@H]4C(C)(C)C(=O)CC[C@@]45C[C@@]35CC[C@]12C

>  <Structure_dimension>  (3842) 
2D

$$$$
MS4447
     RDKit          2D

 27 30  0  0  0  0  0  0  0  0999 V2000
   -4.7316   -2.2462    0.0000 C   0  0  0  0  0  0  0  0  0  0  0  0
   -3.6106   -1.2495    0.0000 C   0  0  0  0  0  0  0  0  0  0  0  0
   -3.9133    0.2196    0.0000 C   0  0  0  0  0  0  0  0  0  0  0  0
   -5.3370    0.6920    0.0000 C   0  0  0  0  0  0  0  0  0  0  0  0
   -5.6397    2.1612    0.0000 C   0  0  0  0  0  0  0  0  0  0  0  0
   -4.5188    3.1579    0.0000 O   0  0  0  0  0  0  0  0  0  0  0  0
   -7.0634    2.6336    0.0000 O   0  0  0  0  0  0  0  0  0  0  0  0
   -2.1870   -1.7219    0.0000 C   0  0  0  0  0  0  0  0  0  0  0  0
   -1.7323   -3.1514    0.0000 C   0  0  0  0  0  0  0  0  0  0  0  0
   -0.2324   -3.1607    0.0000 C   0  0  0  0  0  0  0  0  0  0  0  0
    0.2401   -1.7371    0.0000 C   0  0  0  0  0  0  0  0  0  0  0  0
    1.6141   -1.1355    0.0000 C   0  0  0  0  0  0  0  0  0  0  0  0
    2.8222   -2.0247    0.0000 C   0  0  0  0  0  0  0  0  0  0  0  0
    2.6561   -3.5155    0.0000 O   0  0  0  0  0  0  0  0  0  0  0  0
    4.1962   -1.4232    0.0000 C   0  0  0  0  0  0  0  0  0  0  0  0
    4.3623    0.0676    0.0000 C   0  0  0  0  0  0  0  0  0  0  0  0
    5.7364    0.6691    0.0000 C   0  0  0  0  0  0  0  0  0  0  0  0
    5.9025    2.1599    0.0000 C   0  0  0  0  0  0  0  0  0  0  0  0
    4.6945    3.0491    0.0000 C   0  0  0  0  0  0  0  0  0  0  0  0
    3.3204    2.4476    0.0000 C   0  0  0  0  0  0  0  0  0  0  0  0
    3.1543    0.9568    0.0000 C   0  0  0  0  0  0  0  0  0  0  0  0
    1.9463    1.8460    0.0000 C   0  0  0  0  0  0  0  0  0  0  0  0
    1.7802    0.3553    0.0000 C   0  0  0  0  0  0  0  0  0  0  0  0
    0.5722    1.2445    0.0000 C   0  0  0  0  0  0  0  0  0  0  0  0
   -0.8019    0.6429    0.0000 C   0  0  0  0  0  0  0  0  0  0  0  0
   -0.9680   -0.8478    0.0000 C   0  0  0  0  0  0  0  0  0  0  0  0
   -2.2623   -0.0897    0.0000 C   0  0  0  0  0  0  0  0  0  0  0  0
  2  1  1  1
  2  3  1  0
  3  4  1  0
  4  5  1  0
  5  6  2  0
  5  7  1  0
  2  8  1  0
  8  9  1  6
  9 10  1  0
 11 10  1  6
 11 12  1  0
 12 13  1  1
 13 14  1  1
 13 15  1  0
 16 15  1  1
 16 17  1  0
 17 18  1  0
 18 19  1  0
 19 20  1  0
 20 21  1  0
 21 22  1  6
 21 23  1  0
 23 24  1  6
 24 25  1  0
 25 26  1  0
 26 27  1  6
 26  8  1  0
 26 11  1  0
 23 12  1  0
 21 16  1  0
M  END
>  <MS_ID>  (3843) 
MS4447

>  <SMILES>  (3843) 
C[C@@H](CCC(=O)O)[C@H]1CC[C@H]2[C@@H]3[C@H](O)C[C@@H]4CCCC[C@]4(C)[C@H]3CC[C@]12C

>  <Structure_dimension>  (3843) 
2D

$$$$
MS4449
     RDKit          2D

 33 36  0  0  0  0  0  0  0  0999 V2000
   -3.0978   -3.6919    0.0000 C   0  0  0  0  0  0  0  0  0  0  0  0
   -2.2201   -2.4755    0.0000 C   0  0  0  0  0  0  0  0  0  0  0  0
   -2.8347   -1.1072    0.0000 C   0  0  0  0  0  0  0  0  0  0  0  0
   -4.3270   -0.9552    0.0000 C   0  0  0  0  0  0  0  0  0  0  0  0
   -4.9416    0.4131    0.0000 C   0  0  0  0  0  0  0  0  0  0  0  0
   -4.0639    1.6295    0.0000 O   0  0  0  0  0  0  0  0  0  0  0  0
   -6.4339    0.5650    0.0000 N   0  0  0  0  0  0  0  0  0  0  0  0
   -7.0484    1.9333    0.0000 C   0  0  0  0  0  0  0  0  0  0  0  0
   -8.5407    2.0852    0.0000 C   0  0  0  0  0  0  0  0  0  0  0  0
   -9.4184    0.8688    0.0000 O   0  0  0  0  0  0  0  0  0  0  0  0
   -9.1553    3.4535    0.0000 O   0  0  0  0  0  0  0  0  0  0  0  0
   -0.7278   -2.6274    0.0000 C   0  0  0  0  0  0  0  0  0  0  0  0
    0.0264   -3.9240    0.0000 C   0  0  0  0  0  0  0  0  0  0  0  0
    1.4926   -3.6073    0.0000 C   0  0  0  0  0  0  0  0  0  0  0  0
    1.6445   -2.1150    0.0000 C   0  0  0  0  0  0  0  0  0  0  0  0
    2.8552   -1.2294    0.0000 C   0  0  0  0  0  0  0  0  0  0  0  0
    4.2275   -1.8350    0.0000 C   0  0  0  0  0  0  0  0  0  0  0  0
    4.3891   -3.3263    0.0000 O   0  0  0  0  0  0  0  0  0  0  0  0
    5.4381   -0.9494    0.0000 C   0  0  0  0  0  0  0  0  0  0  0  0
    5.2764    0.5419    0.0000 C   0  0  0  0  0  0  0  0  0  0  0  0
    6.4871    1.4275    0.0000 C   0  0  0  0  0  0  0  0  0  0  0  0
    6.3254    2.9188    0.0000 C   0  0  0  0  0  0  0  0  0  0  0  0
    7.5360    3.8044    0.0000 O   0  0  0  0  0  0  0  0  0  0  0  0
    4.9531    3.5244    0.0000 C   0  0  0  0  0  0  0  0  0  0  0  0
    3.7425    2.6388    0.0000 C   0  0  0  0  0  0  0  0  0  0  0  0
    3.9041    1.1475    0.0000 C   0  0  0  0  0  0  0  0  0  0  0  0
    2.5318    1.7531    0.0000 C   0  0  0  0  0  0  0  0  0  0  0  0
    2.6935    0.2619    0.0000 C   0  0  0  0  0  0  0  0  0  0  0  0
    1.3212    0.8675    0.0000 C   0  0  0  0  0  0  0  0  0  0  0  0
    0.1105   -0.0181    0.0000 C   0  0  0  0  0  0  0  0  0  0  0  0
   -1.2618    0.5875    0.0000 O   0  0  0  0  0  0  0  0  0  0  0  0
    0.2722   -1.5094    0.0000 C   0  0  0  0  0  0  0  0  0  0  0  0
   -1.1559   -1.0505    0.0000 C   0  0  0  0  0  0  0  0  0  0  0  0
  2  1  1  6
  2  3  1  0
  3  4  1  0
  4  5  1  0
  5  6  2  0
  5  7  1  0
  7  8  1  0
  8  9  1  0
  9 10  2  0
  9 11  1  0
  2 12  1  0
 12 13  1  6
 13 14  1  0
 15 14  1  6
 15 16  1  0
 16 17  1  1
 17 18  1  1
 17 19  1  0
 20 19  1  1
 20 21  1  0
 21 22  1  0
 22 23  1  1
 22 24  1  0
 24 25  1  0
 25 26  1  0
 26 27  1  1
 26 28  1  0
 28 29  1  6
 29 30  1  0
 30 31  1  1
 30 32  1  0
 32 33  1  6
 32 12  1  0
 32 15  1  0
 28 16  1  0
 26 20  1  0
M  END
>  <MS_ID>  (3844) 
MS4449

>  <SMILES>  (3844) 
C[C@H](CCC(=O)NCC(=O)O)[C@H]1CC[C@H]2[C@@H]3[C@H](O)C[C@@H]4C[C@H](O)CC[C@@]4(C)[C@H]3C[C@H](O)[C@]12C

>  <Structure_dimension>  (3844) 
2D

$$$$
MS4455
     RDKit          2D

 30 33  0  0  0  0  0  0  0  0999 V2000
   -4.8127   -2.1242    0.0000 C   0  0  0  0  0  0  0  0  0  0  0  0
   -3.6399   -1.1890    0.0000 C   0  0  0  0  0  0  0  0  0  0  0  0
   -3.8634    0.2942    0.0000 C   0  0  0  0  0  0  0  0  0  0  0  0
   -5.2597    0.8423    0.0000 C   0  0  0  0  0  0  0  0  0  0  0  0
   -6.4325   -0.0929    0.0000 O   0  0  0  0  0  0  0  0  0  0  0  0
   -5.4832    2.3256    0.0000 C   0  0  0  0  0  0  0  0  0  0  0  0
   -4.3104    3.2608    0.0000 O   0  0  0  0  0  0  0  0  0  0  0  0
   -6.8795    2.8736    0.0000 O   0  0  0  0  0  0  0  0  0  0  0  0
   -2.2436   -1.7371    0.0000 C   0  0  0  0  0  0  0  0  0  0  0  0
   -1.8663   -3.1888    0.0000 C   0  0  0  0  0  0  0  0  0  0  0  0
   -0.3690   -3.2786    0.0000 C   0  0  0  0  0  0  0  0  0  0  0  0
    0.1791   -1.8823    0.0000 C   0  0  0  0  0  0  0  0  0  0  0  0
    1.5835   -1.3553    0.0000 C   0  0  0  0  0  0  0  0  0  0  0  0
    2.7420   -2.3081    0.0000 C   0  0  0  0  0  0  0  0  0  0  0  0
    2.4963   -3.7878    0.0000 O   0  0  0  0  0  0  0  0  0  0  0  0
    4.1464   -1.7811    0.0000 C   0  0  0  0  0  0  0  0  0  0  0  0
    4.3922   -0.3013    0.0000 C   0  0  0  0  0  0  0  0  0  0  0  0
    5.7966    0.2257    0.0000 C   0  0  0  0  0  0  0  0  0  0  0  0
    6.0424    1.7054    0.0000 C   0  0  0  0  0  0  0  0  0  0  0  0
    7.4467    2.2324    0.0000 O   0  0  0  0  0  0  0  0  0  0  0  0
    4.8838    2.6581    0.0000 C   0  0  0  0  0  0  0  0  0  0  0  0
    3.4794    2.1311    0.0000 C   0  0  0  0  0  0  0  0  0  0  0  0
    3.2336    0.6514    0.0000 C   0  0  0  0  0  0  0  0  0  0  0  0
    2.0750    1.6041    0.0000 C   0  0  0  0  0  0  0  0  0  0  0  0
    1.8292    0.1244    0.0000 C   0  0  0  0  0  0  0  0  0  0  0  0
    0.6707    1.0771    0.0000 C   0  0  0  0  0  0  0  0  0  0  0  0
   -0.7337    0.5501    0.0000 C   0  0  0  0  0  0  0  0  0  0  0  0
   -1.8923    1.5028    0.0000 O   0  0  0  0  0  0  0  0  0  0  0  0
   -0.9795   -0.9296    0.0000 C   0  0  0  0  0  0  0  0  0  0  0  0
   -2.2313   -0.1032    0.0000 C   0  0  0  0  0  0  0  0  0  0  0  0
  2  1  1  6
  2  3  1  0
  3  4  1  0
  4  5  1  1
  4  6  1  0
  6  7  2  0
  6  8  1  0
  2  9  1  0
  9 10  1  6
 10 11  1  0
 12 11  1  6
 12 13  1  0
 13 14  1  1
 14 15  1  1
 14 16  1  0
 17 16  1  1
 17 18  1  0
 18 19  1  0
 19 20  1  1
 19 21  1  0
 21 22  1  0
 22 23  1  0
 23 24  1  6
 23 25  1  0
 25 26  1  6
 26 27  1  0
 27 28  1  1
 27 29  1  0
 29 30  1  6
 29  9  1  0
 29 12  1  0
 25 13  1  0
 23 17  1  0
M  END
>  <MS_ID>  (3845) 
MS4455

>  <SMILES>  (3845) 
C[C@H](C[C@@H](O)C(=O)O)[C@H]1CC[C@H]2[C@@H]3[C@H](O)C[C@@H]4C[C@H](O)CC[C@]4(C)[C@H]3C[C@H](O)[C@]12C

>  <Structure_dimension>  (3845) 
2D

$$$$
MS4460
     RDKit          2D

 35 39  0  0  0  0  0  0  0  0999 V2000
   -2.4126   -4.6430    0.0000 C   0  0  0  0  0  0  0  0  0  0  0  0
   -1.6799   -3.3341    0.0000 C   0  0  0  0  0  0  0  0  0  0  0  0
   -2.4471   -2.0452    0.0000 C   0  0  0  0  0  0  0  0  0  0  0  0
   -3.9470   -2.0651    0.0000 C   0  0  0  0  0  0  0  0  0  0  0  0
   -4.7142   -0.7762    0.0000 C   0  0  0  0  0  0  0  0  0  0  0  0
   -6.2141   -0.7961    0.0000 O   0  0  0  0  0  0  0  0  0  0  0  0
   -3.9816    0.5327    0.0000 O   0  0  0  0  0  0  0  0  0  0  0  0
   -4.7488    1.8217    0.0000 N   0  0  0  0  0  0  0  0  0  0  0  0
   -6.2425    1.9586    0.0000 C   0  0  0  0  0  0  0  0  0  0  0  0
   -7.2313    0.8307    0.0000 O   0  0  0  0  0  0  0  0  0  0  0  0
   -6.5738    3.4216    0.0000 C   0  0  0  0  0  0  0  0  0  0  0  0
   -5.2849    4.1888    0.0000 C   0  0  0  0  0  0  0  0  0  0  0  0
   -4.1569    3.2000    0.0000 C   0  0  0  0  0  0  0  0  0  0  0  0
   -2.6940    3.5313    0.0000 O   0  0  0  0  0  0  0  0  0  0  0  0
   -0.1801   -3.3142    0.0000 C   0  0  0  0  0  0  0  0  0  0  0  0
    0.7177   -4.5159    0.0000 C   0  0  0  0  0  0  0  0  0  0  0  0
    2.1380   -4.0334    0.0000 C   0  0  0  0  0  0  0  0  0  0  0  0
    2.1180   -2.5335    0.0000 C   0  0  0  0  0  0  0  0  0  0  0  0
    3.2193   -1.5151    0.0000 C   0  0  0  0  0  0  0  0  0  0  0  0
    4.6519   -1.9596    0.0000 C   0  0  0  0  0  0  0  0  0  0  0  0
    5.7532   -0.9412    0.0000 C   0  0  0  0  0  0  0  0  0  0  0  0
    5.4218    0.5217    0.0000 C   0  0  0  0  0  0  0  0  0  0  0  0
    6.5231    1.5402    0.0000 C   0  0  0  0  0  0  0  0  0  0  0  0
    6.1918    3.0031    0.0000 C   0  0  0  0  0  0  0  0  0  0  0  0
    7.2930    4.0215    0.0000 O   0  0  0  0  0  0  0  0  0  0  0  0
    4.7591    3.4476    0.0000 C   0  0  0  0  0  0  0  0  0  0  0  0
    3.6579    2.4292    0.0000 C   0  0  0  0  0  0  0  0  0  0  0  0
    3.9892    0.9663    0.0000 C   0  0  0  0  0  0  0  0  0  0  0  0
    2.5566    1.4108    0.0000 C   0  0  0  0  0  0  0  0  0  0  0  0
    2.8879   -0.0522    0.0000 C   0  0  0  0  0  0  0  0  0  0  0  0
    1.4553    0.3923    0.0000 C   0  0  0  0  0  0  0  0  0  0  0  0
    0.3540   -0.6261    0.0000 C   0  0  0  0  0  0  0  0  0  0  0  0
   -1.0786   -0.1816    0.0000 O   0  0  0  0  0  0  0  0  0  0  0  0
    0.6854   -2.0890    0.0000 C   0  0  0  0  0  0  0  0  0  0  0  0
   -0.7858   -1.7967    0.0000 C   0  0  0  0  0  0  0  0  0  0  0  0
  2  1  1  6
  2  3  1  0
  3  4  1  0
  4  5  1  0
  5  6  2  0
  5  7  1  0
  7  8  1  0
  8  9  1  0
  9 10  2  0
  9 11  1  0
 11 12  1  0
 12 13  1  0
 13 14  2  0
  2 15  1  0
 15 16  1  6
 16 17  1  0
 18 17  1  6
 18 19  1  0
 19 20  1  1
 20 21  1  0
 22 21  1  1
 22 23  1  0
 23 24  1  0
 24 25  1  1
 24 26  1  0
 26 27  1  0
 27 28  1  0
 28 29  1  6
 28 30  1  0
 30 31  1  6
 31 32  1  0
 32 33  1  1
 32 34  1  0
 34 35  1  6
 13  8  1  0
 34 15  1  0
 34 18  1  0
 30 19  1  0
 28 22  1  0
M  END
>  <MS_ID>  (3846) 
MS4460

>  <SMILES>  (3846) 
C[C@H](CCC(=O)ON1C(=O)CCC1=O)[C@H]1CC[C@H]2[C@@H]3CC[C@@H]4C[C@H](O)CC[C@]4(C)[C@H]3C[C@H](O)[C@]12C

>  <Structure_dimension>  (3846) 
2D

$$$$
MS4461
     RDKit          2D

 36 39  0  0  0  0  0  0  0  0999 V2000
   -1.7778   -4.5485    0.0000 C   0  0  0  0  0  0  0  0  0  0  0  0
   -1.0945   -3.2132    0.0000 C   0  0  0  0  0  0  0  0  0  0  0  0
   -1.9092   -1.9537    0.0000 C   0  0  0  0  0  0  0  0  0  0  0  0
   -3.4073   -2.0296    0.0000 C   0  0  0  0  0  0  0  0  0  0  0  0
   -4.2220   -0.7701    0.0000 C   0  0  0  0  0  0  0  0  0  0  0  0
   -3.5387    0.5652    0.0000 O   0  0  0  0  0  0  0  0  0  0  0  0
   -5.7201   -0.8460    0.0000 N   0  0  0  0  0  0  0  0  0  0  0  0
   -6.5348    0.4135    0.0000 C   0  0  0  0  0  0  0  0  0  0  0  0
   -8.0329    0.3376    0.0000 C   0  0  0  0  0  0  0  0  0  0  0  0
   -8.8476    1.5971    0.0000 C   0  0  0  0  0  0  0  0  0  0  0  0
   -8.1643    2.9324    0.0000 O   0  0  0  0  0  0  0  0  0  0  0  0
  -10.3457    1.5212    0.0000 O   0  0  0  0  0  0  0  0  0  0  0  0
   -5.8515    1.7488    0.0000 C   0  0  0  0  0  0  0  0  0  0  0  0
   -4.3534    1.8246    0.0000 O   0  0  0  0  0  0  0  0  0  0  0  0
   -6.6662    3.0082    0.0000 O   0  0  0  0  0  0  0  0  0  0  0  0
    0.4036   -3.1374    0.0000 C   0  0  0  0  0  0  0  0  0  0  0  0
    1.3455   -4.3047    0.0000 C   0  0  0  0  0  0  0  0  0  0  0  0
    2.7468   -3.7697    0.0000 C   0  0  0  0  0  0  0  0  0  0  0  0
    2.6710   -2.2716    0.0000 C   0  0  0  0  0  0  0  0  0  0  0  0
    3.7335   -1.2128    0.0000 C   0  0  0  0  0  0  0  0  0  0  0  0
    5.1817   -1.6036    0.0000 C   0  0  0  0  0  0  0  0  0  0  0  0
    6.2443   -0.5448    0.0000 C   0  0  0  0  0  0  0  0  0  0  0  0
    7.6925   -0.9356    0.0000 O   0  0  0  0  0  0  0  0  0  0  0  0
    5.8586    0.9047    0.0000 C   0  0  0  0  0  0  0  0  0  0  0  0
    6.9211    1.9635    0.0000 C   0  0  0  0  0  0  0  0  0  0  0  0
    6.5355    3.4131    0.0000 C   0  0  0  0  0  0  0  0  0  0  0  0
    7.5980    4.4719    0.0000 O   0  0  0  0  0  0  0  0  0  0  0  0
    5.0873    3.8039    0.0000 C   0  0  0  0  0  0  0  0  0  0  0  0
    4.0248    2.7451    0.0000 C   0  0  0  0  0  0  0  0  0  0  0  0
    4.4104    1.2955    0.0000 C   0  0  0  0  0  0  0  0  0  0  0  0
    2.9622    1.6863    0.0000 C   0  0  0  0  0  0  0  0  0  0  0  0
    3.3479    0.2368    0.0000 C   0  0  0  0  0  0  0  0  0  0  0  0
    1.8997    0.6276    0.0000 C   0  0  0  0  0  0  0  0  0  0  0  0
    0.8371   -0.4312    0.0000 C   0  0  0  0  0  0  0  0  0  0  0  0
    1.2228   -1.8808    0.0000 C   0  0  0  0  0  0  0  0  0  0  0  0
   -0.2583   -1.6435    0.0000 C   0  0  0  0  0  0  0  0  0  0  0  0
  2  1  1  6
  2  3  1  0
  3  4  1  0
  4  5  1  0
  5  6  2  0
  5  7  1  0
  7  8  1  0
  8  9  1  1
  9 10  1  0
 10 11  2  0
 10 12  1  0
  8 13  1  0
 13 14  2  0
 13 15  1  0
  2 16  1  0
 16 17  1  6
 17 18  1  0
 19 18  1  6
 19 20  1  0
 20 21  1  1
 21 22  1  0
 22 23  1  1
 22 24  1  0
 24 25  1  1
 25 26  1  0
 26 27  1  1
 26 28  1  0
 28 29  1  0
 29 30  1  0
 30 31  1  6
 30 32  1  0
 32 33  1  6
 33 34  1  0
 34 35  1  0
 35 36  1  6
 35 16  1  0
 35 19  1  0
 32 20  1  0
 30 24  1  0
M  END
>  <MS_ID>  (3847) 
MS4461

>  <SMILES>  (3847) 
C[C@H](CCC(=O)N[C@@H](CC(=O)O)C(=O)O)[C@H]1CC[C@H]2[C@@H]3C[C@H](O)[C@@H]4C[C@H](O)CC[C@]4(C)[C@H]3CC[C@]12C

>  <Structure_dimension>  (3847) 
2D

$$$$
MS4466
     RDKit          2D

 29 32  0  0  0  0  0  0  0  0999 V2000
   -5.2182   -2.1453    0.0000 C   0  0  0  0  0  0  0  0  0  0  0  0
   -4.0752   -1.1739    0.0000 C   0  0  0  0  0  0  0  0  0  0  0  0
   -4.3449    0.3016    0.0000 C   0  0  0  0  0  0  0  0  0  0  0  0
   -5.7577    0.8058    0.0000 C   0  0  0  0  0  0  0  0  0  0  0  0
   -6.0274    2.2814    0.0000 C   0  0  0  0  0  0  0  0  0  0  0  0
   -4.8843    3.2527    0.0000 O   0  0  0  0  0  0  0  0  0  0  0  0
   -7.4401    2.7856    0.0000 O   0  0  0  0  0  0  0  0  0  0  0  0
   -2.6625   -1.6782    0.0000 C   0  0  0  0  0  0  0  0  0  0  0  0
   -2.2400   -3.1174    0.0000 C   0  0  0  0  0  0  0  0  0  0  0  0
   -0.7407   -3.1604    0.0000 C   0  0  0  0  0  0  0  0  0  0  0  0
   -0.2364   -1.7477    0.0000 C   0  0  0  0  0  0  0  0  0  0  0  0
    1.1508   -1.1771    0.0000 C   0  0  0  0  0  0  0  0  0  0  0  0
    2.3386   -2.0932    0.0000 C   0  0  0  0  0  0  0  0  0  0  0  0
    2.1391   -3.5798    0.0000 O   0  0  0  0  0  0  0  0  0  0  0  0
    3.7258   -1.5226    0.0000 C   0  0  0  0  0  0  0  0  0  0  0  0
    4.9136   -2.4386    0.0000 F   0  0  0  0  0  0  0  0  0  0  0  0
    3.9253   -0.0359    0.0000 C   0  0  0  0  0  0  0  0  0  0  0  0
    5.3125    0.5347    0.0000 C   0  0  0  0  0  0  0  0  0  0  0  0
    5.5119    2.0214    0.0000 C   0  0  0  0  0  0  0  0  0  0  0  0
    6.8992    2.5920    0.0000 O   0  0  0  0  0  0  0  0  0  0  0  0
    4.3242    2.9375    0.0000 C   0  0  0  0  0  0  0  0  0  0  0  0
    2.9369    2.3669    0.0000 C   0  0  0  0  0  0  0  0  0  0  0  0
    2.7375    0.8802    0.0000 C   0  0  0  0  0  0  0  0  0  0  0  0
    1.5497    1.7963    0.0000 C   0  0  0  0  0  0  0  0  0  0  0  0
    1.3502    0.3096    0.0000 C   0  0  0  0  0  0  0  0  0  0  0  0
    0.1625    1.2257    0.0000 C   0  0  0  0  0  0  0  0  0  0  0  0
   -1.2248    0.6551    0.0000 C   0  0  0  0  0  0  0  0  0  0  0  0
   -1.4242   -0.8316    0.0000 C   0  0  0  0  0  0  0  0  0  0  0  0
   -2.7012   -0.0447    0.0000 C   0  0  0  0  0  0  0  0  0  0  0  0
  2  1  1  6
  2  3  1  0
  3  4  1  0
  4  5  1  0
  5  6  2  0
  5  7  1  0
  2  8  1  0
  8  9  1  6
  9 10  1  0
 11 10  1  6
 11 12  1  0
 12 13  1  1
 13 14  1  6
 13 15  1  0
 15 16  1  1
 15 17  1  0
 17 18  1  1
 18 19  1  0
 19 20  1  1
 19 21  1  0
 21 22  1  0
 22 23  1  0
 23 24  1  6
 23 25  1  0
 25 26  1  6
 26 27  1  0
 27 28  1  0
 28 29  1  6
 28  8  1  0
 28 11  1  0
 25 12  1  0
 23 17  1  0
M  END
>  <MS_ID>  (3848) 
MS4466

>  <SMILES>  (3848) 
C[C@H](CCC(=O)O)[C@H]1CC[C@H]2[C@@H]3[C@@H](O)[C@H](F)[C@@H]4C[C@H](O)CC[C@]4(C)[C@H]3CC[C@]12C

>  <Structure_dimension>  (3848) 
2D

$$$$
MS4469
     RDKit          2D

 42 46  0  0  0  0  0  0  0  0999 V2000
   -8.8169   -1.5062    0.0000 C   0  0  0  0  0  0  0  0  0  0  0  0
   -7.5118   -0.7667    0.0000 C   0  0  0  0  0  0  0  0  0  0  0  0
   -7.4998    0.7333    0.0000 C   0  0  0  0  0  0  0  0  0  0  0  0
   -8.7927    1.4937    0.0000 C   0  0  0  0  0  0  0  0  0  0  0  0
   -8.7806    2.9937    0.0000 C   0  0  0  0  0  0  0  0  0  0  0  0
   -7.4756    3.7332    0.0000 O   0  0  0  0  0  0  0  0  0  0  0  0
  -10.0736    3.7541    0.0000 O   0  0  0  0  0  0  0  0  0  0  0  0
   -6.2189   -1.5271    0.0000 C   0  0  0  0  0  0  0  0  0  0  0  0
   -6.0741   -3.0201    0.0000 C   0  0  0  0  0  0  0  0  0  0  0  0
   -4.6095   -3.3438    0.0000 C   0  0  0  0  0  0  0  0  0  0  0  0
   -3.8490   -2.0508    0.0000 C   0  0  0  0  0  0  0  0  0  0  0  0
   -2.3793   -1.7508    0.0000 C   0  0  0  0  0  0  0  0  0  0  0  0
   -1.3847   -2.8736    0.0000 C   0  0  0  0  0  0  0  0  0  0  0  0
   -1.8597   -4.2964    0.0000 O   0  0  0  0  0  0  0  0  0  0  0  0
    0.0850   -2.5735    0.0000 C   0  0  0  0  0  0  0  0  0  0  0  0
    0.5600   -1.1507    0.0000 C   0  0  0  0  0  0  0  0  0  0  0  0
    2.0297   -0.8507    0.0000 C   0  0  0  0  0  0  0  0  0  0  0  0
    2.5047    0.5721    0.0000 C   0  0  0  0  0  0  0  0  0  0  0  0
    3.9744    0.8722    0.0000 C   0  0  0  0  0  0  0  0  0  0  0  0
    4.4494    2.2950    0.0000 O   0  0  0  0  0  0  0  0  0  0  0  0
    4.9691   -0.2506    0.0000 C   0  0  0  0  0  0  0  0  0  0  0  0
    6.4388    0.0494    0.0000 C   0  0  0  0  0  0  0  0  0  0  0  0
    7.4335   -1.0733    0.0000 O   0  0  0  0  0  0  0  0  0  0  0  0
    8.9031   -0.7733    0.0000 C   0  0  0  0  0  0  0  0  0  0  0  0
    9.8978   -1.8960    0.0000 C   0  0  0  0  0  0  0  0  0  0  0  0
    9.4228   -3.3189    0.0000 O   0  0  0  0  0  0  0  0  0  0  0  0
    9.3781    0.6495    0.0000 C   0  0  0  0  0  0  0  0  0  0  0  0
   10.8478    0.9496    0.0000 O   0  0  0  0  0  0  0  0  0  0  0  0
    8.3835    1.7723    0.0000 C   0  0  0  0  0  0  0  0  0  0  0  0
    8.8585    3.1951    0.0000 O   0  0  0  0  0  0  0  0  0  0  0  0
    6.9138    1.4722    0.0000 C   0  0  0  0  0  0  0  0  0  0  0  0
    5.9191    2.5950    0.0000 O   0  0  0  0  0  0  0  0  0  0  0  0
    1.5100    1.6949    0.0000 C   0  0  0  0  0  0  0  0  0  0  0  0
    0.0404    1.3949    0.0000 C   0  0  0  0  0  0  0  0  0  0  0  0
   -0.4346   -0.0280    0.0000 C   0  0  0  0  0  0  0  0  0  0  0  0
   -1.4293    1.0948    0.0000 C   0  0  0  0  0  0  0  0  0  0  0  0
   -1.9043   -0.3280    0.0000 C   0  0  0  0  0  0  0  0  0  0  0  0
   -2.8990    0.7948    0.0000 C   0  0  0  0  0  0  0  0  0  0  0  0
   -4.3687    0.4947    0.0000 C   0  0  0  0  0  0  0  0  0  0  0  0
   -5.3634    1.6175    0.0000 O   0  0  0  0  0  0  0  0  0  0  0  0
   -4.8437   -0.9281    0.0000 C   0  0  0  0  0  0  0  0  0  0  0  0
   -5.9503    0.0846    0.0000 C   0  0  0  0  0  0  0  0  0  0  0  0
  2  1  1  6
  2  3  1  0
  3  4  1  0
  4  5  1  0
  5  6  2  0
  5  7  1  0
  2  8  1  0
  8  9  1  6
  9 10  1  0
 11 10  1  6
 11 12  1  0
 12 13  1  1
 13 14  1  1
 13 15  1  0
 16 15  1  1
 16 17  1  0
 17 18  1  0
 18 19  1  1
 19 20  2  0
 19 21  1  0
 22 21  1  1
 22 23  1  0
 23 24  1  0
 24 25  1  1
 25 26  1  0
 24 27  1  0
 27 28  1  6
 27 29  1  0
 29 30  1  1
 29 31  1  0
 31 32  1  6
 18 33  1  0
 33 34  1  0
 34 35  1  0
 35 36  1  6
 35 37  1  0
 37 38  1  6
 38 39  1  0
 39 40  1  1
 39 41  1  0
 41 42  1  6
 41  8  1  0
 41 11  1  0
 37 12  1  0
 35 16  1  0
 31 22  1  0
M  END
>  <MS_ID>  (3849) 
MS4469

>  <SMILES>  (3849) 
C[C@H](CCC(=O)O)[C@H]1CC[C@H]2[C@@H]3[C@H](O)C[C@@H]4C[C@H](C(=O)C[C@@H]5O[C@H](CO)[C@@H](O)[C@H](O)[C@H]5O)CC[C@]4(C)[C@H]3C[C@H](O)[C@]12C

>  <Structure_dimension>  (3849) 
2D

$$$$
MS4470
     RDKit          2D

 30 33  0  0  0  0  0  0  0  0999 V2000
   -7.4279    3.5601    0.0000 C   0  0  0  0  0  0  0  0  0  0  0  0
   -7.0729    2.1027    0.0000 O   0  0  0  0  0  0  0  0  0  0  0  0
   -5.6333    1.6814    0.0000 C   0  0  0  0  0  0  0  0  0  0  0  0
   -4.5486    2.7174    0.0000 O   0  0  0  0  0  0  0  0  0  0  0  0
   -5.2784    0.2240    0.0000 C   0  0  0  0  0  0  0  0  0  0  0  0
   -3.8388   -0.1974    0.0000 C   0  0  0  0  0  0  0  0  0  0  0  0
   -3.4838   -1.6548    0.0000 C   0  0  0  0  0  0  0  0  0  0  0  0
   -4.5685   -2.6908    0.0000 C   0  0  0  0  0  0  0  0  0  0  0  0
   -2.0442   -2.0761    0.0000 C   0  0  0  0  0  0  0  0  0  0  0  0
   -1.5389   -3.4884    0.0000 C   0  0  0  0  0  0  0  0  0  0  0  0
   -0.0395   -3.4442    0.0000 C   0  0  0  0  0  0  0  0  0  0  0  0
    0.3818   -2.0046    0.0000 C   0  0  0  0  0  0  0  0  0  0  0  0
    1.7336   -1.3544    0.0000 C   0  0  0  0  0  0  0  0  0  0  0  0
    2.9725   -2.1999    0.0000 C   0  0  0  0  0  0  0  0  0  0  0  0
    2.8597   -3.6957    0.0000 O   0  0  0  0  0  0  0  0  0  0  0  0
    4.3243   -1.5497    0.0000 C   0  0  0  0  0  0  0  0  0  0  0  0
    4.4371   -0.0540    0.0000 C   0  0  0  0  0  0  0  0  0  0  0  0
    5.7888    0.5962    0.0000 C   0  0  0  0  0  0  0  0  0  0  0  0
    5.9016    2.0920    0.0000 C   0  0  0  0  0  0  0  0  0  0  0  0
    7.2534    2.7422    0.0000 O   0  0  0  0  0  0  0  0  0  0  0  0
    4.6627    2.9375    0.0000 C   0  0  0  0  0  0  0  0  0  0  0  0
    3.3109    2.2873    0.0000 C   0  0  0  0  0  0  0  0  0  0  0  0
    3.1981    0.7916    0.0000 C   0  0  0  0  0  0  0  0  0  0  0  0
    1.9591    1.6371    0.0000 C   0  0  0  0  0  0  0  0  0  0  0  0
    1.8464    0.1414    0.0000 C   0  0  0  0  0  0  0  0  0  0  0  0
    0.6074    0.9869    0.0000 C   0  0  0  0  0  0  0  0  0  0  0  0
   -0.7444    0.3367    0.0000 C   0  0  0  0  0  0  0  0  0  0  0  0
   -1.9833    1.1823    0.0000 O   0  0  0  0  0  0  0  0  0  0  0  0
   -0.8572   -1.1590    0.0000 C   0  0  0  0  0  0  0  0  0  0  0  0
   -2.1777   -0.4476    0.0000 C   0  0  0  0  0  0  0  0  0  0  0  0
  1  2  1  0
  2  3  1  0
  3  4  2  0
  3  5  1  0
  5  6  1  0
  6  7  1  0
  7  8  1  1
  7  9  1  0
  9 10  1  6
 10 11  1  0
 12 11  1  6
 12 13  1  0
 13 14  1  1
 14 15  1  1
 14 16  1  0
 17 16  1  6
 17 18  1  0
 18 19  1  0
 19 20  1  1
 19 21  1  0
 21 22  1  0
 22 23  1  0
 23 24  1  6
 23 25  1  0
 25 26  1  6
 26 27  1  0
 27 28  1  1
 27 29  1  0
 29 30  1  6
 29  9  1  0
 29 12  1  0
 25 13  1  0
 23 17  1  0
M  END
>  <MS_ID>  (3850) 
MS4470

>  <SMILES>  (3850) 
COC(=O)CC[C@H](C)[C@H]1CC[C@H]2[C@@H]3[C@H](O)C[C@H]4C[C@H](O)CC[C@]4(C)[C@H]3C[C@H](O)[C@]12C

>  <Structure_dimension>  (3850) 
2D

$$$$
MS4472
     RDKit          2D

 29 32  0  0  0  0  0  0  0  0999 V2000
   -4.6551   -2.6180    0.0000 C   0  0  0  0  0  0  0  0  0  0  0  0
   -3.5633   -1.5894    0.0000 C   0  0  0  0  0  0  0  0  0  0  0  0
   -3.9081   -0.1296    0.0000 C   0  0  0  0  0  0  0  0  0  0  0  0
   -5.3448    0.3016    0.0000 C   0  0  0  0  0  0  0  0  0  0  0  0
   -5.6897    1.7615    0.0000 C   0  0  0  0  0  0  0  0  0  0  0  0
   -4.5979    2.7900    0.0000 O   0  0  0  0  0  0  0  0  0  0  0  0
   -7.1264    2.1927    0.0000 N   0  0  0  0  0  0  0  0  0  0  0  0
   -7.4712    3.6525    0.0000 N   0  0  0  0  0  0  0  0  0  0  0  0
   -2.1266   -2.0207    0.0000 C   0  0  0  0  0  0  0  0  0  0  0  0
   -1.6310   -3.4364    0.0000 C   0  0  0  0  0  0  0  0  0  0  0  0
   -0.1314   -3.4026    0.0000 C   0  0  0  0  0  0  0  0  0  0  0  0
    0.2998   -1.9659    0.0000 C   0  0  0  0  0  0  0  0  0  0  0  0
    1.6561   -1.3251    0.0000 C   0  0  0  0  0  0  0  0  0  0  0  0
    2.8892   -2.1792    0.0000 C   0  0  0  0  0  0  0  0  0  0  0  0
    2.7660   -3.6741    0.0000 O   0  0  0  0  0  0  0  0  0  0  0  0
    4.2454   -1.5383    0.0000 C   0  0  0  0  0  0  0  0  0  0  0  0
    4.3685   -0.0434    0.0000 C   0  0  0  0  0  0  0  0  0  0  0  0
    5.7247    0.5975    0.0000 C   0  0  0  0  0  0  0  0  0  0  0  0
    5.8478    2.0924    0.0000 C   0  0  0  0  0  0  0  0  0  0  0  0
    7.2040    2.7332    0.0000 O   0  0  0  0  0  0  0  0  0  0  0  0
    4.6147    2.9465    0.0000 C   0  0  0  0  0  0  0  0  0  0  0  0
    3.2585    2.3056    0.0000 C   0  0  0  0  0  0  0  0  0  0  0  0
    3.1354    0.8107    0.0000 C   0  0  0  0  0  0  0  0  0  0  0  0
    1.9023    1.6648    0.0000 C   0  0  0  0  0  0  0  0  0  0  0  0
    1.7792    0.1699    0.0000 C   0  0  0  0  0  0  0  0  0  0  0  0
    0.5461    1.0239    0.0000 C   0  0  0  0  0  0  0  0  0  0  0  0
   -0.8101    0.3831    0.0000 C   0  0  0  0  0  0  0  0  0  0  0  0
   -0.9333   -1.1118    0.0000 C   0  0  0  0  0  0  0  0  0  0  0  0
   -2.2489   -0.3913    0.0000 C   0  0  0  0  0  0  0  0  0  0  0  0
  2  1  1  6
  2  3  1  0
  3  4  1  0
  4  5  1  0
  5  6  2  0
  5  7  1  0
  7  8  1  0
  2  9  1  0
  9 10  1  6
 10 11  1  0
 12 11  1  6
 12 13  1  0
 13 14  1  1
 14 15  1  1
 14 16  1  0
 17 16  1  6
 17 18  1  0
 18 19  1  0
 19 20  1  6
 19 21  1  0
 21 22  1  0
 22 23  1  0
 23 24  1  6
 23 25  1  0
 25 26  1  6
 26 27  1  0
 27 28  1  0
 28 29  1  6
 28  9  1  0
 28 12  1  0
 25 13  1  0
 23 17  1  0
M  END
>  <MS_ID>  (3851) 
MS4472

>  <SMILES>  (3851) 
C[C@H](CCC(=O)NN)[C@H]1CC[C@H]2[C@@H]3[C@H](O)C[C@H]4C[C@@H](O)CC[C@]4(C)[C@H]3CC[C@]12C

>  <Structure_dimension>  (3851) 
2D

$$$$
MS4481
     RDKit          2D

 28 31  0  0  0  0  0  0  0  0999 V2000
   -5.1936   -2.1523    0.0000 C   0  0  0  0  0  0  0  0  0  0  0  0
   -4.0282   -1.2079    0.0000 C   0  0  0  0  0  0  0  0  0  0  0  0
   -4.2633    0.2735    0.0000 C   0  0  0  0  0  0  0  0  0  0  0  0
   -5.6638    0.8107    0.0000 C   0  0  0  0  0  0  0  0  0  0  0  0
   -5.8990    2.2921    0.0000 C   0  0  0  0  0  0  0  0  0  0  0  0
   -4.7335    3.2365    0.0000 O   0  0  0  0  0  0  0  0  0  0  0  0
   -7.2995    2.8292    0.0000 O   0  0  0  0  0  0  0  0  0  0  0  0
   -2.6276   -1.7450    0.0000 C   0  0  0  0  0  0  0  0  0  0  0  0
   -2.2390   -3.1938    0.0000 C   0  0  0  0  0  0  0  0  0  0  0  0
   -0.7410   -3.2718    0.0000 C   0  0  0  0  0  0  0  0  0  0  0  0
   -0.2039   -1.8713    0.0000 C   0  0  0  0  0  0  0  0  0  0  0  0
    1.1963   -1.3333    0.0000 C   0  0  0  0  0  0  0  0  0  0  0  0
    2.3623   -2.2769    0.0000 C   0  0  0  0  0  0  0  0  0  0  0  0
    3.7625   -1.7389    0.0000 C   0  0  0  0  0  0  0  0  0  0  0  0
    4.9286   -2.6825    0.0000 O   0  0  0  0  0  0  0  0  0  0  0  0
    3.9967   -0.2573    0.0000 C   0  0  0  0  0  0  0  0  0  0  0  0
    5.3969    0.2807    0.0000 C   0  0  0  0  0  0  0  0  0  0  0  0
    5.6311    1.7623    0.0000 C   0  0  0  0  0  0  0  0  0  0  0  0
    7.0313    2.3003    0.0000 O   0  0  0  0  0  0  0  0  0  0  0  0
    4.4651    2.7059    0.0000 C   0  0  0  0  0  0  0  0  0  0  0  0
    3.0649    2.1679    0.0000 C   0  0  0  0  0  0  0  0  0  0  0  0
    2.8307    0.6863    0.0000 C   0  0  0  0  0  0  0  0  0  0  0  0
    1.6647    1.6299    0.0000 C   0  0  0  0  0  0  0  0  0  0  0  0
    1.4305    0.1483    0.0000 C   0  0  0  0  0  0  0  0  0  0  0  0
    0.2645    1.0919    0.0000 C   0  0  0  0  0  0  0  0  0  0  0  0
   -1.1357    0.5539    0.0000 C   0  0  0  0  0  0  0  0  0  0  0  0
   -1.3699   -0.9277    0.0000 C   0  0  0  0  0  0  0  0  0  0  0  0
   -2.6282   -0.1111    0.0000 C   0  0  0  0  0  0  0  0  0  0  0  0
  2  1  1  6
  2  3  1  0
  3  4  1  0
  4  5  1  0
  5  6  2  0
  5  7  1  0
  2  8  1  0
  8  9  1  6
  9 10  1  0
 11 10  1  6
 11 12  1  0
 12 13  1  1
 13 14  1  0
 14 15  1  1
 14 16  1  0
 16 17  1  6
 17 18  1  0
 18 19  1  1
 18 20  1  0
 20 21  1  0
 21 22  1  0
 22 23  1  6
 22 24  1  0
 24 25  1  6
 25 26  1  0
 26 27  1  0
 27 28  1  6
 27  8  1  0
 27 11  1  0
 24 12  1  0
 22 16  1  0
M  END
>  <MS_ID>  (3852) 
MS4481

>  <SMILES>  (3852) 
C[C@H](CCC(=O)O)[C@H]1CC[C@H]2[C@@H]3C[C@H](O)[C@H]4C[C@H](O)CC[C@]4(C)[C@H]3CC[C@]12C

>  <Structure_dimension>  (3852) 
2D

$$$$
MS4483
     RDKit          2D

 29 32  0  0  0  0  0  0  0  0999 V2000
   -7.4050    3.1690    0.0000 C   0  0  0  0  0  0  0  0  0  0  0  0
   -6.9539    1.7384    0.0000 O   0  0  0  0  0  0  0  0  0  0  0  0
   -5.4894    1.4138    0.0000 C   0  0  0  0  0  0  0  0  0  0  0  0
   -4.4761    2.5198    0.0000 O   0  0  0  0  0  0  0  0  0  0  0  0
   -5.0383   -0.0167    0.0000 C   0  0  0  0  0  0  0  0  0  0  0  0
   -3.5738   -0.3413    0.0000 C   0  0  0  0  0  0  0  0  0  0  0  0
   -3.1227   -1.7719    0.0000 C   0  0  0  0  0  0  0  0  0  0  0  0
   -4.1361   -2.8778    0.0000 C   0  0  0  0  0  0  0  0  0  0  0  0
   -1.6583   -2.0965    0.0000 C   0  0  0  0  0  0  0  0  0  0  0  0
   -1.0601   -3.4720    0.0000 C   0  0  0  0  0  0  0  0  0  0  0  0
    0.4330   -3.3282    0.0000 C   0  0  0  0  0  0  0  0  0  0  0  0
    0.7576   -1.8638    0.0000 C   0  0  0  0  0  0  0  0  0  0  0  0
    2.0631   -1.1251    0.0000 C   0  0  0  0  0  0  0  0  0  0  0  0
    3.3556   -1.8863    0.0000 C   0  0  0  0  0  0  0  0  0  0  0  0
    3.3426   -3.3863    0.0000 O   0  0  0  0  0  0  0  0  0  0  0  0
    4.6611   -1.1476    0.0000 C   0  0  0  0  0  0  0  0  0  0  0  0
    4.6741    0.3523    0.0000 C   0  0  0  0  0  0  0  0  0  0  0  0
    5.9796    1.0910    0.0000 C   0  0  0  0  0  0  0  0  0  0  0  0
    5.9926    2.5910    0.0000 C   0  0  0  0  0  0  0  0  0  0  0  0
    4.7002    3.3522    0.0000 C   0  0  0  0  0  0  0  0  0  0  0  0
    3.3947    2.6135    0.0000 C   0  0  0  0  0  0  0  0  0  0  0  0
    3.3816    1.1136    0.0000 C   0  0  0  0  0  0  0  0  0  0  0  0
    2.0891    1.8748    0.0000 C   0  0  0  0  0  0  0  0  0  0  0  0
    2.0761    0.3749    0.0000 C   0  0  0  0  0  0  0  0  0  0  0  0
    0.7836    1.1361    0.0000 C   0  0  0  0  0  0  0  0  0  0  0  0
   -0.5219    0.3974    0.0000 C   0  0  0  0  0  0  0  0  0  0  0  0
   -1.8143    1.1587    0.0000 O   0  0  0  0  0  0  0  0  0  0  0  0
   -0.5349   -1.1025    0.0000 C   0  0  0  0  0  0  0  0  0  0  0  0
   -1.8998   -0.4805    0.0000 C   0  0  0  0  0  0  0  0  0  0  0  0
  1  2  1  0
  2  3  1  0
  3  4  2  0
  3  5  1  0
  5  6  1  0
  6  7  1  0
  7  8  1  6
  7  9  1  0
  9 10  1  6
 10 11  1  0
 12 11  1  6
 12 13  1  0
 13 14  1  1
 14 15  1  1
 14 16  1  0
 17 16  1  6
 17 18  1  0
 18 19  1  0
 19 20  1  0
 20 21  1  0
 21 22  1  0
 22 23  1  6
 22 24  1  0
 24 25  1  6
 25 26  1  0
 26 27  1  1
 26 28  1  0
 28 29  1  6
 28  9  1  0
 28 12  1  0
 24 13  1  0
 22 17  1  0
M  END
>  <MS_ID>  (3853) 
MS4483

>  <SMILES>  (3853) 
COC(=O)CC[C@@H](C)[C@H]1CC[C@H]2[C@@H]3[C@H](O)C[C@H]4CCCC[C@]4(C)[C@H]3C[C@H](O)[C@]12C

>  <Structure_dimension>  (3853) 
2D

$$$$
MS4486
     RDKit          2D

 30 33  0  0  0  0  0  0  0  0999 V2000
   -5.1134   -2.2540    0.0000 C   0  0  0  0  0  0  0  0  0  0  0  0
   -3.9811   -1.2701    0.0000 C   0  0  0  0  0  0  0  0  0  0  0  0
   -4.2670    0.2024    0.0000 C   0  0  0  0  0  0  0  0  0  0  0  0
   -5.6852    0.6910    0.0000 C   0  0  0  0  0  0  0  0  0  0  0  0
   -5.9711    2.1635    0.0000 C   0  0  0  0  0  0  0  0  0  0  0  0
   -4.8388    3.1474    0.0000 O   0  0  0  0  0  0  0  0  0  0  0  0
   -7.3892    2.6522    0.0000 O   0  0  0  0  0  0  0  0  0  0  0  0
   -2.5629   -1.7588    0.0000 C   0  0  0  0  0  0  0  0  0  0  0  0
   -2.1247   -3.1933    0.0000 C   0  0  0  0  0  0  0  0  0  0  0  0
   -0.6249   -3.2198    0.0000 C   0  0  0  0  0  0  0  0  0  0  0  0
   -0.1362   -1.8017    0.0000 C   0  0  0  0  0  0  0  0  0  0  0  0
    1.2446   -1.2159    0.0000 C   0  0  0  0  0  0  0  0  0  0  0  0
    2.4424   -2.1188    0.0000 C   0  0  0  0  0  0  0  0  0  0  0  0
    2.2593   -3.6076    0.0000 O   0  0  0  0  0  0  0  0  0  0  0  0
    3.8233   -1.5330    0.0000 C   0  0  0  0  0  0  0  0  0  0  0  0
    5.0210   -2.4360    0.0000 F   0  0  0  0  0  0  0  0  0  0  0  0
    4.0064   -0.0442    0.0000 C   0  0  0  0  0  0  0  0  0  0  0  0
    5.3873    0.5416    0.0000 C   0  0  0  0  0  0  0  0  0  0  0  0
    5.5704    2.0303    0.0000 C   0  0  0  0  0  0  0  0  0  0  0  0
    6.9513    2.6161    0.0000 O   0  0  0  0  0  0  0  0  0  0  0  0
    4.3726    2.9333    0.0000 C   0  0  0  0  0  0  0  0  0  0  0  0
    2.9918    2.3475    0.0000 C   0  0  0  0  0  0  0  0  0  0  0  0
    2.8086    0.8587    0.0000 C   0  0  0  0  0  0  0  0  0  0  0  0
    1.6109    1.7617    0.0000 C   0  0  0  0  0  0  0  0  0  0  0  0
    1.4278    0.2729    0.0000 C   0  0  0  0  0  0  0  0  0  0  0  0
    0.2300    1.1759    0.0000 C   0  0  0  0  0  0  0  0  0  0  0  0
   -1.1509    0.5901    0.0000 C   0  0  0  0  0  0  0  0  0  0  0  0
   -2.3486    1.4931    0.0000 O   0  0  0  0  0  0  0  0  0  0  0  0
   -1.3340   -0.8987    0.0000 C   0  0  0  0  0  0  0  0  0  0  0  0
   -2.6196   -0.1258    0.0000 C   0  0  0  0  0  0  0  0  0  0  0  0
  2  1  1  6
  2  3  1  0
  3  4  1  0
  4  5  1  0
  5  6  2  0
  5  7  1  0
  2  8  1  0
  8  9  1  6
  9 10  1  0
 11 10  1  6
 11 12  1  0
 12 13  1  1
 13 14  1  6
 13 15  1  0
 15 16  1  1
 15 17  1  0
 17 18  1  1
 18 19  1  0
 19 20  1  1
 19 21  1  0
 21 22  1  0
 22 23  1  0
 23 24  1  6
 23 25  1  0
 25 26  1  6
 26 27  1  0
 27 28  1  1
 27 29  1  0
 29 30  1  6
 29  8  1  0
 29 11  1  0
 25 12  1  0
 23 17  1  0
M  END
>  <MS_ID>  (3854) 
MS4486

>  <SMILES>  (3854) 
C[C@H](CCC(=O)O)[C@H]1CC[C@H]2[C@@H]3[C@@H](O)[C@H](F)[C@@H]4C[C@H](O)CC[C@]4(C)[C@H]3C[C@H](O)[C@]12C

>  <Structure_dimension>  (3854) 
2D

$$$$
MS4488
     RDKit          2D

 35 39  0  0  0  0  0  0  0  0999 V2000
   -1.6577   -4.6151    0.0000 C   0  0  0  0  0  0  0  0  0  0  0  0
   -0.9878   -3.2730    0.0000 C   0  0  0  0  0  0  0  0  0  0  0  0
   -1.8152   -2.0218    0.0000 C   0  0  0  0  0  0  0  0  0  0  0  0
   -3.3124   -2.1127    0.0000 C   0  0  0  0  0  0  0  0  0  0  0  0
   -4.1398   -0.8615    0.0000 C   0  0  0  0  0  0  0  0  0  0  0  0
   -3.4698    0.4806    0.0000 O   0  0  0  0  0  0  0  0  0  0  0  0
   -5.6370   -0.9524    0.0000 N   0  0  0  0  0  0  0  0  0  0  0  0
   -6.4643    0.2988    0.0000 C   0  0  0  0  0  0  0  0  0  0  0  0
   -5.7944    1.6409    0.0000 C   0  0  0  0  0  0  0  0  0  0  0  0
   -6.6218    2.8921    0.0000 C   0  0  0  0  0  0  0  0  0  0  0  0
   -8.1190    2.8012    0.0000 C   0  0  0  0  0  0  0  0  0  0  0  0
   -8.9464    4.0524    0.0000 N   0  0  0  0  0  0  0  0  0  0  0  0
   -8.7889    1.4591    0.0000 C   0  0  0  0  0  0  0  0  0  0  0  0
   -7.9616    0.2079    0.0000 C   0  0  0  0  0  0  0  0  0  0  0  0
    0.5094   -3.1821    0.0000 C   0  0  0  0  0  0  0  0  0  0  0  0
    1.4630   -4.3400    0.0000 C   0  0  0  0  0  0  0  0  0  0  0  0
    2.8589   -3.7909    0.0000 C   0  0  0  0  0  0  0  0  0  0  0  0
    2.7680   -2.2936    0.0000 C   0  0  0  0  0  0  0  0  0  0  0  0
    3.8198   -1.2243    0.0000 C   0  0  0  0  0  0  0  0  0  0  0  0
    5.2719   -1.6005    0.0000 C   0  0  0  0  0  0  0  0  0  0  0  0
    6.3237   -0.5311    0.0000 C   0  0  0  0  0  0  0  0  0  0  0  0
    5.9235    0.9145    0.0000 C   0  0  0  0  0  0  0  0  0  0  0  0
    6.9754    1.9839    0.0000 C   0  0  0  0  0  0  0  0  0  0  0  0
    6.5752    3.4296    0.0000 C   0  0  0  0  0  0  0  0  0  0  0  0
    7.6270    4.4990    0.0000 O   0  0  0  0  0  0  0  0  0  0  0  0
    5.1231    3.8058    0.0000 C   0  0  0  0  0  0  0  0  0  0  0  0
    4.0713    2.7364    0.0000 C   0  0  0  0  0  0  0  0  0  0  0  0
    4.4715    1.2908    0.0000 C   0  0  0  0  0  0  0  0  0  0  0  0
    3.0194    1.6670    0.0000 C   0  0  0  0  0  0  0  0  0  0  0  0
    3.4196    0.2214    0.0000 C   0  0  0  0  0  0  0  0  0  0  0  0
    1.9676    0.5976    0.0000 C   0  0  0  0  0  0  0  0  0  0  0  0
    0.9157   -0.4718    0.0000 C   0  0  0  0  0  0  0  0  0  0  0  0
   -0.5363   -0.0956    0.0000 O   0  0  0  0  0  0  0  0  0  0  0  0
    1.3159   -1.9174    0.0000 C   0  0  0  0  0  0  0  0  0  0  0  0
   -0.1675   -1.6950    0.0000 C   0  0  0  0  0  0  0  0  0  0  0  0
  2  1  1  6
  2  3  1  0
  3  4  1  0
  4  5  1  0
  5  6  2  0
  5  7  1  0
  7  8  1  0
  8  9  2  0
  9 10  1  0
 10 11  2  0
 11 12  1  0
 11 13  1  0
 13 14  2  0
  2 15  1  0
 15 16  1  6
 16 17  1  0
 18 17  1  6
 18 19  1  0
 19 20  1  1
 20 21  1  0
 22 21  1  1
 22 23  1  0
 23 24  1  0
 24 25  1  1
 24 26  1  0
 26 27  1  0
 27 28  1  0
 28 29  1  6
 28 30  1  0
 30 31  1  6
 31 32  1  0
 32 33  1  1
 32 34  1  0
 34 35  1  6
 14  8  1  0
 34 15  1  0
 34 18  1  0
 30 19  1  0
 28 22  1  0
M  END
>  <MS_ID>  (3855) 
MS4488

>  <SMILES>  (3855) 
C[C@H](CCC(=O)Nc1ccc(N)cc1)[C@H]1CC[C@H]2[C@@H]3CC[C@@H]4C[C@H](O)CC[C@]4(C)[C@H]3C[C@H](O)[C@]12C

>  <Structure_dimension>  (3855) 
2D

$$$$
MS4492
     RDKit          2D

 39 43  0  0  0  0  0  0  0  0999 V2000
  -10.0279    3.9061    0.0000 C   0  0  0  0  0  0  0  0  0  0  0  0
   -9.7603    2.4302    0.0000 O   0  0  0  0  0  0  0  0  0  0  0  0
   -8.3483    1.9240    0.0000 C   0  0  0  0  0  0  0  0  0  0  0  0
   -7.2039    2.8937    0.0000 O   0  0  0  0  0  0  0  0  0  0  0  0
   -8.0807    0.4480    0.0000 C   0  0  0  0  0  0  0  0  0  0  0  0
   -6.6687   -0.0582    0.0000 C   0  0  0  0  0  0  0  0  0  0  0  0
   -6.4011   -1.5341    0.0000 C   0  0  0  0  0  0  0  0  0  0  0  0
   -7.5455   -2.5039    0.0000 C   0  0  0  0  0  0  0  0  0  0  0  0
   -4.9891   -2.0403    0.0000 C   0  0  0  0  0  0  0  0  0  0  0  0
   -4.5687   -3.4802    0.0000 C   0  0  0  0  0  0  0  0  0  0  0  0
   -3.0694   -3.5253    0.0000 C   0  0  0  0  0  0  0  0  0  0  0  0
   -2.5631   -2.1133    0.0000 C   0  0  0  0  0  0  0  0  0  0  0  0
   -1.1751   -1.5447    0.0000 C   0  0  0  0  0  0  0  0  0  0  0  0
    0.0114   -2.4625    0.0000 C   0  0  0  0  0  0  0  0  0  0  0  0
    1.3994   -1.8939    0.0000 C   0  0  0  0  0  0  0  0  0  0  0  0
    1.6010   -0.4075    0.0000 C   0  0  0  0  0  0  0  0  0  0  0  0
    2.9890    0.1612    0.0000 C   0  0  0  0  0  0  0  0  0  0  0  0
    3.1906    1.6475    0.0000 C   0  0  0  0  0  0  0  0  0  0  0  0
    4.5787    2.2162    0.0000 O   0  0  0  0  0  0  0  0  0  0  0  0
    5.7651    1.2984    0.0000 C   0  0  0  0  0  0  0  0  0  0  0  0
    5.5636   -0.1880    0.0000 O   0  0  0  0  0  0  0  0  0  0  0  0
    6.7500   -1.1058    0.0000 C   0  0  0  0  0  0  0  0  0  0  0  0
    6.5484   -2.5922    0.0000 C   0  0  0  0  0  0  0  0  0  0  0  0
    5.1604   -3.1608    0.0000 O   0  0  0  0  0  0  0  0  0  0  0  0
    8.1381   -0.5371    0.0000 C   0  0  0  0  0  0  0  0  0  0  0  0
    9.3245   -1.4549    0.0000 O   0  0  0  0  0  0  0  0  0  0  0  0
    8.3396    0.9492    0.0000 C   0  0  0  0  0  0  0  0  0  0  0  0
    9.7277    1.5179    0.0000 O   0  0  0  0  0  0  0  0  0  0  0  0
    7.1532    1.8670    0.0000 C   0  0  0  0  0  0  0  0  0  0  0  0
    7.3548    3.3534    0.0000 O   0  0  0  0  0  0  0  0  0  0  0  0
    2.0042    2.5653    0.0000 C   0  0  0  0  0  0  0  0  0  0  0  0
    0.6161    1.9967    0.0000 C   0  0  0  0  0  0  0  0  0  0  0  0
    0.4145    0.5103    0.0000 C   0  0  0  0  0  0  0  0  0  0  0  0
   -0.7719    1.4281    0.0000 C   0  0  0  0  0  0  0  0  0  0  0  0
   -0.9735   -0.0583    0.0000 C   0  0  0  0  0  0  0  0  0  0  0  0
   -2.1600    0.8595    0.0000 C   0  0  0  0  0  0  0  0  0  0  0  0
   -3.5480    0.2908    0.0000 C   0  0  0  0  0  0  0  0  0  0  0  0
   -3.7496   -1.1956    0.0000 C   0  0  0  0  0  0  0  0  0  0  0  0
   -5.0255   -0.4068    0.0000 C   0  0  0  0  0  0  0  0  0  0  0  0
  1  2  1  0
  2  3  1  0
  3  4  2  0
  3  5  1  0
  5  6  1  0
  6  7  1  0
  7  8  1  6
  7  9  1  0
  9 10  1  6
 10 11  1  0
 12 11  1  6
 12 13  1  0
 13 14  1  1
 14 15  1  0
 16 15  1  1
 16 17  1  0
 17 18  1  0
 18 19  1  1
 20 19  1  1
 20 21  1  0
 21 22  1  0
 22 23  1  1
 23 24  1  0
 22 25  1  0
 25 26  1  6
 25 27  1  0
 27 28  1  1
 27 29  1  0
 29 30  1  6
 18 31  1  0
 31 32  1  0
 32 33  1  0
 33 34  1  6
 33 35  1  0
 35 36  1  6
 36 37  1  0
 37 38  1  0
 38 39  1  6
 38  9  1  0
 38 12  1  0
 35 13  1  0
 33 16  1  0
 29 20  1  0
M  END
>  <MS_ID>  (3856) 
MS4492

>  <SMILES>  (3856) 
COC(=O)CC[C@@H](C)[C@H]1CC[C@H]2[C@@H]3CC[C@@H]4C[C@H](O[C@@H]5O[C@H](CO)[C@@H](O)[C@H](O)[C@H]5O)CC[C@]4(C)[C@H]3CC[C@]12C

>  <Structure_dimension>  (3856) 
2D

$$$$
MS4493
     RDKit          2D

 29 32  0  0  0  0  0  0  0  0999 V2000
   -5.0926   -2.2535    0.0000 C   0  0  0  0  0  0  0  0  0  0  0  0
   -3.9364   -1.2979    0.0000 C   0  0  0  0  0  0  0  0  0  0  0  0
   -4.1859    0.1812    0.0000 C   0  0  0  0  0  0  0  0  0  0  0  0
   -5.5916    0.7047    0.0000 C   0  0  0  0  0  0  0  0  0  0  0  0
   -5.8411    2.1838    0.0000 C   0  0  0  0  0  0  0  0  0  0  0  0
   -4.6849    3.1394    0.0000 O   0  0  0  0  0  0  0  0  0  0  0  0
   -7.2468    2.7072    0.0000 O   0  0  0  0  0  0  0  0  0  0  0  0
   -2.5307   -1.8214    0.0000 C   0  0  0  0  0  0  0  0  0  0  0  0
   -2.1279   -3.2663    0.0000 C   0  0  0  0  0  0  0  0  0  0  0  0
   -0.6293   -3.3297    0.0000 C   0  0  0  0  0  0  0  0  0  0  0  0
   -0.1058   -1.9240    0.0000 C   0  0  0  0  0  0  0  0  0  0  0  0
    1.2891   -1.3724    0.0000 C   0  0  0  0  0  0  0  0  0  0  0  0
    2.4642   -2.3047    0.0000 C   0  0  0  0  0  0  0  0  0  0  0  0
    3.8591   -1.7531    0.0000 C   0  0  0  0  0  0  0  0  0  0  0  0
    5.0343   -2.6853    0.0000 O   0  0  0  0  0  0  0  0  0  0  0  0
    4.0789   -0.2693    0.0000 C   0  0  0  0  0  0  0  0  0  0  0  0
    5.4738    0.2823    0.0000 C   0  0  0  0  0  0  0  0  0  0  0  0
    5.6936    1.7661    0.0000 C   0  0  0  0  0  0  0  0  0  0  0  0
    7.0885    2.3177    0.0000 O   0  0  0  0  0  0  0  0  0  0  0  0
    4.5184    2.6984    0.0000 C   0  0  0  0  0  0  0  0  0  0  0  0
    3.1235    2.1468    0.0000 C   0  0  0  0  0  0  0  0  0  0  0  0
    2.9038    0.6630    0.0000 C   0  0  0  0  0  0  0  0  0  0  0  0
    1.7286    1.5952    0.0000 C   0  0  0  0  0  0  0  0  0  0  0  0
    1.5089    0.1114    0.0000 C   0  0  0  0  0  0  0  0  0  0  0  0
    0.3337    1.0436    0.0000 C   0  0  0  0  0  0  0  0  0  0  0  0
   -1.0612    0.4920    0.0000 C   0  0  0  0  0  0  0  0  0  0  0  0
   -2.2363    1.4242    0.0000 O   0  0  0  0  0  0  0  0  0  0  0  0
   -1.2809   -0.9918    0.0000 C   0  0  0  0  0  0  0  0  0  0  0  0
   -2.5471   -0.1875    0.0000 C   0  0  0  0  0  0  0  0  0  0  0  0
  2  1  1  6
  2  3  1  0
  3  4  1  0
  4  5  1  0
  5  6  2  0
  5  7  1  0
  2  8  1  0
  8  9  1  6
  9 10  1  0
 11 10  1  6
 11 12  1  0
 12 13  1  1
 13 14  1  0
 14 15  1  1
 14 16  1  0
 16 17  1  1
 17 18  1  0
 18 19  2  0
 18 20  1  0
 20 21  1  0
 21 22  1  0
 22 23  1  6
 22 24  1  0
 24 25  1  6
 25 26  1  0
 26 27  1  1
 26 28  1  0
 28 29  1  6
 28  8  1  0
 28 11  1  0
 24 12  1  0
 22 16  1  0
M  END
>  <MS_ID>  (3857) 
MS4493

>  <SMILES>  (3857) 
C[C@H](CCC(=O)O)[C@H]1CC[C@H]2[C@@H]3C[C@H](O)[C@@H]4CC(=O)CC[C@]4(C)[C@H]3C[C@H](O)[C@]12C

>  <Structure_dimension>  (3857) 
2D

$$$$
MS4495
     RDKit          2D

 36 39  0  0  0  0  0  0  0  0999 V2000
   -6.4431   -1.7518    0.0000 C   0  0  0  0  0  0  0  0  0  0  0  0
   -5.2856   -0.7978    0.0000 C   0  0  0  0  0  0  0  0  0  0  0  0
   -5.5330    0.6817    0.0000 C   0  0  0  0  0  0  0  0  0  0  0  0
   -6.9379    1.2071    0.0000 C   0  0  0  0  0  0  0  0  0  0  0  0
   -7.1853    2.6866    0.0000 C   0  0  0  0  0  0  0  0  0  0  0  0
   -6.0278    3.6406    0.0000 O   0  0  0  0  0  0  0  0  0  0  0  0
   -8.5903    3.2120    0.0000 O   0  0  0  0  0  0  0  0  0  0  0  0
   -3.8806   -1.3233    0.0000 C   0  0  0  0  0  0  0  0  0  0  0  0
   -3.4799   -2.7687    0.0000 C   0  0  0  0  0  0  0  0  0  0  0  0
   -1.9813   -2.8343    0.0000 C   0  0  0  0  0  0  0  0  0  0  0  0
   -1.4559   -1.4294    0.0000 C   0  0  0  0  0  0  0  0  0  0  0  0
   -0.0602   -0.8798    0.0000 C   0  0  0  0  0  0  0  0  0  0  0  0
    1.1136   -1.8137    0.0000 C   0  0  0  0  0  0  0  0  0  0  0  0
    0.8917   -3.2972    0.0000 O   0  0  0  0  0  0  0  0  0  0  0  0
    2.0656   -4.2311    0.0000 S   0  0  0  0  0  0  0  0  0  0  0  0
    2.9995   -3.0573    0.0000 O   0  0  0  0  0  0  0  0  0  0  0  0
    1.1317   -5.4049    0.0000 O   0  0  0  0  0  0  0  0  0  0  0  0
    3.2394   -5.1650    0.0000 O   0  0  0  0  0  0  0  0  0  0  0  0
    2.5093   -1.2641    0.0000 C   0  0  0  0  0  0  0  0  0  0  0  0
    2.7312    0.2194    0.0000 C   0  0  0  0  0  0  0  0  0  0  0  0
    4.1269    0.7690    0.0000 C   0  0  0  0  0  0  0  0  0  0  0  0
    4.3487    2.2525    0.0000 C   0  0  0  0  0  0  0  0  0  0  0  0
    5.7444    2.8021    0.0000 O   0  0  0  0  0  0  0  0  0  0  0  0
    6.9182    1.8682    0.0000 S   0  0  0  0  0  0  0  0  0  0  0  0
    5.9843    0.6944    0.0000 O   0  0  0  0  0  0  0  0  0  0  0  0
    7.8521    3.0420    0.0000 O   0  0  0  0  0  0  0  0  0  0  0  0
    8.0920    0.9343    0.0000 O   0  0  0  0  0  0  0  0  0  0  0  0
    3.1749    3.1864    0.0000 C   0  0  0  0  0  0  0  0  0  0  0  0
    1.7792    2.6368    0.0000 C   0  0  0  0  0  0  0  0  0  0  0  0
    1.5574    1.1533    0.0000 C   0  0  0  0  0  0  0  0  0  0  0  0
    0.3835    2.0872    0.0000 C   0  0  0  0  0  0  0  0  0  0  0  0
    0.1617    0.6037    0.0000 C   0  0  0  0  0  0  0  0  0  0  0  0
   -1.0121    1.5376    0.0000 C   0  0  0  0  0  0  0  0  0  0  0  0
   -2.4078    0.9880    0.0000 C   0  0  0  0  0  0  0  0  0  0  0  0
   -2.6297   -0.4955    0.0000 C   0  0  0  0  0  0  0  0  0  0  0  0
   -3.8947    0.3106    0.0000 C   0  0  0  0  0  0  0  0  0  0  0  0
  2  1  1  6
  2  3  1  0
  3  4  1  0
  4  5  1  0
  5  6  2  0
  5  7  1  0
  2  8  1  0
  8  9  1  6
  9 10  1  0
 11 10  1  6
 11 12  1  0
 12 13  1  1
 13 14  1  6
 14 15  1  0
 15 16  2  0
 15 17  2  0
 15 18  1  0
 13 19  1  0
 20 19  1  6
 20 21  1  0
 21 22  1  0
 22 23  1  6
 23 24  1  0
 24 25  2  0
 24 26  2  0
 24 27  1  0
 22 28  1  0
 28 29  1  0
 29 30  1  0
 30 31  1  6
 30 32  1  0
 32 33  1  6
 33 34  1  0
 34 35  1  0
 35 36  1  6
 35  8  1  0
 35 11  1  0
 32 12  1  0
 30 20  1  0
M  END
>  <MS_ID>  (3858) 
MS4495

>  <SMILES>  (3858) 
C[C@H](CCC(=O)O)[C@H]1CC[C@H]2[C@@H]3[C@@H](OS(=O)(=O)O)C[C@H]4C[C@@H](OS(=O)(=O)O)CC[C@]4(C)[C@H]3CC[C@]12C

>  <Structure_dimension>  (3858) 
2D

$$$$
MS4496
     RDKit          2D

 42 46  0  0  0  0  0  0  0  0999 V2000
    0.1643   -4.9672    0.0000 C   0  0  0  0  0  0  0  0  0  0  0  0
    0.6314   -3.5418    0.0000 C   0  0  0  0  0  0  0  0  0  0  0  0
   -0.3695   -2.4246    0.0000 C   0  0  0  0  0  0  0  0  0  0  0  0
   -1.8375   -2.7328    0.0000 C   0  0  0  0  0  0  0  0  0  0  0  0
   -2.8384   -1.6155    0.0000 C   0  0  0  0  0  0  0  0  0  0  0  0
   -2.3713   -0.1901    0.0000 O   0  0  0  0  0  0  0  0  0  0  0  0
   -4.3064   -1.9237    0.0000 N   0  0  0  0  0  0  0  0  0  0  0  0
   -5.3073   -0.8065    0.0000 C   0  0  0  0  0  0  0  0  0  0  0  0
   -6.7753   -1.1147    0.0000 C   0  0  0  0  0  0  0  0  0  0  0  0
   -7.7762    0.0025    0.0000 C   0  0  0  0  0  0  0  0  0  0  0  0
   -7.3091    1.4279    0.0000 C   0  0  0  0  0  0  0  0  0  0  0  0
   -8.3100    2.5451    0.0000 C   0  0  0  0  0  0  0  0  0  0  0  0
   -9.7780    2.2369    0.0000 C   0  0  0  0  0  0  0  0  0  0  0  0
  -10.7790    3.3541    0.0000 O   0  0  0  0  0  0  0  0  0  0  0  0
  -10.2451    0.8115    0.0000 C   0  0  0  0  0  0  0  0  0  0  0  0
  -11.7131    0.5033    0.0000 O   0  0  0  0  0  0  0  0  0  0  0  0
   -9.2442   -0.3057    0.0000 C   0  0  0  0  0  0  0  0  0  0  0  0
   -4.8402    0.6189    0.0000 C   0  0  0  0  0  0  0  0  0  0  0  0
   -3.3722    0.9271    0.0000 O   0  0  0  0  0  0  0  0  0  0  0  0
   -5.8411    1.7361    0.0000 O   0  0  0  0  0  0  0  0  0  0  0  0
    2.0994   -3.2336    0.0000 C   0  0  0  0  0  0  0  0  0  0  0  0
    3.2116   -4.2401    0.0000 C   0  0  0  0  0  0  0  0  0  0  0  0
    4.5125   -3.4933    0.0000 C   0  0  0  0  0  0  0  0  0  0  0  0
    4.2043   -2.0253    0.0000 C   0  0  0  0  0  0  0  0  0  0  0  0
    5.0890   -0.8140    0.0000 C   0  0  0  0  0  0  0  0  0  0  0  0
    6.5804   -0.9745    0.0000 C   0  0  0  0  0  0  0  0  0  0  0  0
    7.1871   -2.3463    0.0000 O   0  0  0  0  0  0  0  0  0  0  0  0
    7.4651    0.2368    0.0000 C   0  0  0  0  0  0  0  0  0  0  0  0
    8.9565    0.0763    0.0000 O   0  0  0  0  0  0  0  0  0  0  0  0
    6.8584    1.6087    0.0000 C   0  0  0  0  0  0  0  0  0  0  0  0
    7.7431    2.8200    0.0000 C   0  0  0  0  0  0  0  0  0  0  0  0
    7.1364    4.1918    0.0000 C   0  0  0  0  0  0  0  0  0  0  0  0
    8.0212    5.4031    0.0000 O   0  0  0  0  0  0  0  0  0  0  0  0
    5.6451    4.3523    0.0000 C   0  0  0  0  0  0  0  0  0  0  0  0
    4.7604    3.1410    0.0000 C   0  0  0  0  0  0  0  0  0  0  0  0
    5.3670    1.7692    0.0000 C   0  0  0  0  0  0  0  0  0  0  0  0
    3.8757    1.9297    0.0000 C   0  0  0  0  0  0  0  0  0  0  0  0
    4.4823    0.5578    0.0000 C   0  0  0  0  0  0  0  0  0  0  0  0
    2.9909    0.7184    0.0000 C   0  0  0  0  0  0  0  0  0  0  0  0
    2.1062   -0.4930    0.0000 C   0  0  0  0  0  0  0  0  0  0  0  0
    2.7129   -1.8648    0.0000 C   0  0  0  0  0  0  0  0  0  0  0  0
    1.2129   -1.8610    0.0000 C   0  0  0  0  0  0  0  0  0  0  0  0
  2  1  1  6
  2  3  1  0
  3  4  1  0
  4  5  1  0
  5  6  2  0
  5  7  1  0
  7  8  1  0
  8  9  1  1
  9 10  1  0
 10 11  2  0
 11 12  1  0
 12 13  2  0
 13 14  1  0
 13 15  1  0
 15 16  1  0
 15 17  2  0
  8 18  1  0
 18 19  2  0
 18 20  1  0
  2 21  1  0
 21 22  1  6
 22 23  1  0
 24 23  1  6
 24 25  1  0
 25 26  1  1
 26 27  1  1
 26 28  1  0
 28 29  1  1
 28 30  1  0
 30 31  1  1
 31 32  1  0
 32 33  1  1
 32 34  1  0
 34 35  1  0
 35 36  1  0
 36 37  1  6
 36 38  1  0
 38 39  1  6
 39 40  1  0
 40 41  1  0
 41 42  1  6
 17 10  1  0
 41 21  1  0
 41 24  1  0
 38 25  1  0
 36 30  1  0
M  END
>  <MS_ID>  (3859) 
MS4496

>  <SMILES>  (3859) 
C[C@H](CCC(=O)N[C@@H](Cc1ccc(O)c(O)c1)C(=O)O)[C@H]1CC[C@H]2[C@@H]3[C@H](O)[C@H](O)[C@@H]4C[C@H](O)CC[C@]4(C)[C@H]3CC[C@]12C

>  <Structure_dimension>  (3859) 
2D

$$$$
MS4500
     RDKit          2D

 32 35  0  0  0  0  0  0  0  0999 V2000
   -3.1421   -3.6694    0.0000 C   0  0  0  0  0  0  0  0  0  0  0  0
   -2.2628   -2.4541    0.0000 C   0  0  0  0  0  0  0  0  0  0  0  0
   -2.8756   -1.0850    0.0000 C   0  0  0  0  0  0  0  0  0  0  0  0
   -4.3676   -0.9311    0.0000 C   0  0  0  0  0  0  0  0  0  0  0  0
   -4.9804    0.4380    0.0000 C   0  0  0  0  0  0  0  0  0  0  0  0
   -4.1011    1.6532    0.0000 O   0  0  0  0  0  0  0  0  0  0  0  0
   -6.4725    0.5919    0.0000 N   0  0  0  0  0  0  0  0  0  0  0  0
   -7.0853    1.9610    0.0000 C   0  0  0  0  0  0  0  0  0  0  0  0
   -8.5774    2.1149    0.0000 C   0  0  0  0  0  0  0  0  0  0  0  0
   -9.4567    0.8996    0.0000 O   0  0  0  0  0  0  0  0  0  0  0  0
   -9.1901    3.4840    0.0000 O   0  0  0  0  0  0  0  0  0  0  0  0
   -0.7707   -2.6080    0.0000 C   0  0  0  0  0  0  0  0  0  0  0  0
   -0.0182   -3.9056    0.0000 C   0  0  0  0  0  0  0  0  0  0  0  0
    1.4484   -3.5909    0.0000 C   0  0  0  0  0  0  0  0  0  0  0  0
    1.6023   -2.0988    0.0000 C   0  0  0  0  0  0  0  0  0  0  0  0
    2.8141   -1.2147    0.0000 C   0  0  0  0  0  0  0  0  0  0  0  0
    4.1856   -1.8222    0.0000 C   0  0  0  0  0  0  0  0  0  0  0  0
    4.3453   -3.3136    0.0000 O   0  0  0  0  0  0  0  0  0  0  0  0
    5.3974   -0.9381    0.0000 C   0  0  0  0  0  0  0  0  0  0  0  0
    5.2377    0.5533    0.0000 C   0  0  0  0  0  0  0  0  0  0  0  0
    6.4495    1.4374    0.0000 C   0  0  0  0  0  0  0  0  0  0  0  0
    6.2898    2.9289    0.0000 C   0  0  0  0  0  0  0  0  0  0  0  0
    7.5016    3.8129    0.0000 O   0  0  0  0  0  0  0  0  0  0  0  0
    4.9183    3.5363    0.0000 C   0  0  0  0  0  0  0  0  0  0  0  0
    3.7065    2.6522    0.0000 C   0  0  0  0  0  0  0  0  0  0  0  0
    3.8662    1.1608    0.0000 C   0  0  0  0  0  0  0  0  0  0  0  0
    2.4947    1.7682    0.0000 C   0  0  0  0  0  0  0  0  0  0  0  0
    2.6544    0.2767    0.0000 C   0  0  0  0  0  0  0  0  0  0  0  0
    1.2829    0.8842    0.0000 C   0  0  0  0  0  0  0  0  0  0  0  0
    0.0711    0.0001    0.0000 C   0  0  0  0  0  0  0  0  0  0  0  0
    0.2308   -1.4914    0.0000 C   0  0  0  0  0  0  0  0  0  0  0  0
   -1.1967   -1.0306    0.0000 C   0  0  0  0  0  0  0  0  0  0  0  0
  2  1  1  6
  2  3  1  0
  3  4  1  0
  4  5  1  0
  5  6  2  0
  5  7  1  0
  7  8  1  0
  8  9  1  0
  9 10  2  0
  9 11  1  0
  2 12  1  0
 12 13  1  6
 13 14  1  0
 15 14  1  6
 15 16  1  0
 16 17  1  1
 17 18  1  1
 17 19  1  0
 20 19  1  1
 20 21  1  0
 21 22  1  0
 22 23  1  1
 22 24  1  0
 24 25  1  0
 25 26  1  0
 26 27  1  6
 26 28  1  0
 28 29  1  1
 29 30  1  0
 30 31  1  0
 31 32  1  6
 31 12  1  0
 31 15  1  0
 28 16  1  0
 26 20  1  0
M  END
>  <MS_ID>  (3860) 
MS4500

>  <SMILES>  (3860) 
C[C@H](CCC(=O)NCC(=O)O)[C@H]1CC[C@H]2[C@@H]3[C@H](O)C[C@@H]4C[C@H](O)CC[C@]4(C)[C@@H]3CC[C@]12C

>  <Structure_dimension>  (3860) 
2D

$$$$
MS4501
     RDKit          2D

 28 31  0  0  0  0  0  0  0  0999 V2000
   -5.1275   -2.0302    0.0000 C   0  0  0  0  0  0  0  0  0  0  0  0
   -3.9468   -1.1050    0.0000 C   0  0  0  0  0  0  0  0  0  0  0  0
   -4.1576    0.3801    0.0000 C   0  0  0  0  0  0  0  0  0  0  0  0
   -5.5492    0.9401    0.0000 C   0  0  0  0  0  0  0  0  0  0  0  0
   -5.7600    2.4252    0.0000 C   0  0  0  0  0  0  0  0  0  0  0  0
   -4.5793    3.3503    0.0000 O   0  0  0  0  0  0  0  0  0  0  0  0
   -7.1516    2.9851    0.0000 O   0  0  0  0  0  0  0  0  0  0  0  0
   -2.5552   -1.6650    0.0000 C   0  0  0  0  0  0  0  0  0  0  0  0
   -2.1903   -3.1199    0.0000 C   0  0  0  0  0  0  0  0  0  0  0  0
   -0.6938   -3.2225    0.0000 C   0  0  0  0  0  0  0  0  0  0  0  0
   -0.1339   -1.8309    0.0000 C   0  0  0  0  0  0  0  0  0  0  0  0
    1.2750   -1.3159    0.0000 C   0  0  0  0  0  0  0  0  0  0  0  0
    2.4254   -2.2785    0.0000 C   0  0  0  0  0  0  0  0  0  0  0  0
    2.1670   -3.7560    0.0000 O   0  0  0  0  0  0  0  0  0  0  0  0
    3.8342   -1.7635    0.0000 C   0  0  0  0  0  0  0  0  0  0  0  0
    4.0926   -0.2859    0.0000 C   0  0  0  0  0  0  0  0  0  0  0  0
    5.5014    0.2291    0.0000 C   0  0  0  0  0  0  0  0  0  0  0  0
    5.7598    1.7067    0.0000 C   0  0  0  0  0  0  0  0  0  0  0  0
    7.1687    2.2217    0.0000 O   0  0  0  0  0  0  0  0  0  0  0  0
    4.6094    2.6692    0.0000 C   0  0  0  0  0  0  0  0  0  0  0  0
    3.2006    2.1542    0.0000 C   0  0  0  0  0  0  0  0  0  0  0  0
    2.9422    0.6767    0.0000 C   0  0  0  0  0  0  0  0  0  0  0  0
    1.7918    1.6392    0.0000 C   0  0  0  0  0  0  0  0  0  0  0  0
    1.5334    0.1617    0.0000 C   0  0  0  0  0  0  0  0  0  0  0  0
    0.3830    1.1242    0.0000 C   0  0  0  0  0  0  0  0  0  0  0  0
   -1.0259    0.6093    0.0000 C   0  0  0  0  0  0  0  0  0  0  0  0
   -1.2843   -0.8683    0.0000 C   0  0  0  0  0  0  0  0  0  0  0  0
   -2.5290   -0.0313    0.0000 C   0  0  0  0  0  0  0  0  0  0  0  0
  2  1  1  1
  2  3  1  0
  3  4  1  0
  4  5  1  0
  5  6  2  0
  5  7  1  0
  2  8  1  0
  8  9  1  6
  9 10  1  0
 11 10  1  6
 11 12  1  0
 12 13  1  1
 13 14  1  6
 13 15  1  0
 16 15  1  6
 16 17  1  0
 17 18  1  0
 18 19  1  6
 18 20  1  0
 20 21  1  0
 21 22  1  0
 22 23  1  6
 22 24  1  0
 24 25  1  6
 25 26  1  0
 26 27  1  0
 27 28  1  6
 27  8  1  0
 27 11  1  0
 24 12  1  0
 22 16  1  0
M  END
>  <MS_ID>  (3861) 
MS4501

>  <SMILES>  (3861) 
C[C@@H](CCC(=O)O)[C@H]1CC[C@H]2[C@@H]3[C@@H](O)C[C@H]4C[C@@H](O)CC[C@]4(C)[C@H]3CC[C@]12C

>  <Structure_dimension>  (3861) 
2D

$$$$
MS4506
     RDKit          2D

 33 36  0  0  0  0  0  0  0  0999 V2000
   -3.4334   -3.7051    0.0000 C   0  0  0  0  0  0  0  0  0  0  0  0
   -2.5483   -2.4941    0.0000 C   0  0  0  0  0  0  0  0  0  0  0  0
   -3.1546   -1.1220    0.0000 C   0  0  0  0  0  0  0  0  0  0  0  0
   -4.6460   -0.9611    0.0000 C   0  0  0  0  0  0  0  0  0  0  0  0
   -5.2523    0.4109    0.0000 C   0  0  0  0  0  0  0  0  0  0  0  0
   -4.3672    1.6220    0.0000 O   0  0  0  0  0  0  0  0  0  0  0  0
   -6.7436    0.5718    0.0000 N   0  0  0  0  0  0  0  0  0  0  0  0
   -7.3499    1.9439    0.0000 C   0  0  0  0  0  0  0  0  0  0  0  0
   -8.8412    2.1048    0.0000 C   0  0  0  0  0  0  0  0  0  0  0  0
   -9.7263    0.8937    0.0000 O   0  0  0  0  0  0  0  0  0  0  0  0
   -9.4475    3.4768    0.0000 O   0  0  0  0  0  0  0  0  0  0  0  0
   -1.0570   -2.6550    0.0000 C   0  0  0  0  0  0  0  0  0  0  0  0
   -0.3106   -3.9561    0.0000 C   0  0  0  0  0  0  0  0  0  0  0  0
    1.1575   -3.6483    0.0000 C   0  0  0  0  0  0  0  0  0  0  0  0
    1.3184   -2.1570    0.0000 C   0  0  0  0  0  0  0  0  0  0  0  0
    2.5344   -1.2787    0.0000 C   0  0  0  0  0  0  0  0  0  0  0  0
    3.9030   -1.8926    0.0000 C   0  0  0  0  0  0  0  0  0  0  0  0
    5.1190   -1.0143    0.0000 C   0  0  0  0  0  0  0  0  0  0  0  0
    6.4876   -1.6282    0.0000 O   0  0  0  0  0  0  0  0  0  0  0  0
    4.9663    0.4779    0.0000 C   0  0  0  0  0  0  0  0  0  0  0  0
    6.3349   -0.1360    0.0000 O   0  0  0  0  0  0  0  0  0  0  0  0
    6.1823    1.3562    0.0000 C   0  0  0  0  0  0  0  0  0  0  0  0
    6.0297    2.8484    0.0000 C   0  0  0  0  0  0  0  0  0  0  0  0
    7.2456    3.7267    0.0000 O   0  0  0  0  0  0  0  0  0  0  0  0
    4.6610    3.4623    0.0000 C   0  0  0  0  0  0  0  0  0  0  0  0
    3.4451    2.5840    0.0000 C   0  0  0  0  0  0  0  0  0  0  0  0
    3.5977    1.0918    0.0000 C   0  0  0  0  0  0  0  0  0  0  0  0
    2.2291    1.7057    0.0000 C   0  0  0  0  0  0  0  0  0  0  0  0
    2.3817    0.2135    0.0000 C   0  0  0  0  0  0  0  0  0  0  0  0
    1.0131    0.8274    0.0000 C   0  0  0  0  0  0  0  0  0  0  0  0
   -0.2028   -0.0509    0.0000 C   0  0  0  0  0  0  0  0  0  0  0  0
   -0.0502   -1.5431    0.0000 C   0  0  0  0  0  0  0  0  0  0  0  0
   -1.4755   -1.0756    0.0000 C   0  0  0  0  0  0  0  0  0  0  0  0
  2  1  1  6
  2  3  1  0
  3  4  1  0
  4  5  1  0
  5  6  2  0
  5  7  1  0
  7  8  1  0
  8  9  1  0
  9 10  2  0
  9 11  1  0
  2 12  1  0
 12 13  1  6
 13 14  1  0
 15 14  1  6
 15 16  1  0
 16 17  1  1
 17 18  1  0
 18 19  1  6
 18 20  1  0
 20 21  1  1
 20 22  1  0
 22 23  1  0
 23 24  1  6
 23 25  1  0
 25 26  1  0
 26 27  1  0
 27 28  1  6
 27 29  1  0
 29 30  1  6
 30 31  1  0
 31 32  1  0
 32 33  1  6
 32 12  1  0
 32 15  1  0
 29 16  1  0
 27 20  1  0
M  END
>  <MS_ID>  (3862) 
MS4506

>  <SMILES>  (3862) 
C[C@H](CCC(=O)NCC(=O)O)[C@H]1CC[C@H]2[C@@H]3C[C@@H](O)[C@@]4(O)C[C@@H](O)CC[C@]4(C)[C@H]3CC[C@]12C

>  <Structure_dimension>  (3862) 
2D

$$$$
MS4508
     RDKit          2D

 35 39  0  0  0  0  0  0  0  0999 V2000
   -2.4020   -4.6501    0.0000 C   0  0  0  0  0  0  0  0  0  0  0  0
   -1.7222   -3.3129    0.0000 C   0  0  0  0  0  0  0  0  0  0  0  0
   -2.5403   -2.0557    0.0000 C   0  0  0  0  0  0  0  0  0  0  0  0
   -4.0381   -2.1355    0.0000 C   0  0  0  0  0  0  0  0  0  0  0  0
   -4.8562   -0.8782    0.0000 C   0  0  0  0  0  0  0  0  0  0  0  0
   -6.3541   -0.9581    0.0000 O   0  0  0  0  0  0  0  0  0  0  0  0
   -4.1764    0.4589    0.0000 O   0  0  0  0  0  0  0  0  0  0  0  0
   -4.9945    1.7162    0.0000 N   0  0  0  0  0  0  0  0  0  0  0  0
   -6.4925    1.7934    0.0000 C   0  0  0  0  0  0  0  0  0  0  0  0
   -7.4354    0.6268    0.0000 O   0  0  0  0  0  0  0  0  0  0  0  0
   -6.8820    3.2419    0.0000 C   0  0  0  0  0  0  0  0  0  0  0  0
   -5.6247    4.0600    0.0000 C   0  0  0  0  0  0  0  0  0  0  0  0
   -4.4582    3.1170    0.0000 C   0  0  0  0  0  0  0  0  0  0  0  0
   -3.0096    3.5065    0.0000 O   0  0  0  0  0  0  0  0  0  0  0  0
   -0.2243   -3.2331    0.0000 C   0  0  0  0  0  0  0  0  0  0  0  0
    0.7207   -4.3980    0.0000 C   0  0  0  0  0  0  0  0  0  0  0  0
    2.1206   -3.8592    0.0000 C   0  0  0  0  0  0  0  0  0  0  0  0
    2.0408   -2.3613    0.0000 C   0  0  0  0  0  0  0  0  0  0  0  0
    3.1005   -1.2997    0.0000 C   0  0  0  0  0  0  0  0  0  0  0  0
    4.5497   -1.6867    0.0000 C   0  0  0  0  0  0  0  0  0  0  0  0
    4.9392   -3.1352    0.0000 O   0  0  0  0  0  0  0  0  0  0  0  0
    5.6094   -0.6251    0.0000 C   0  0  0  0  0  0  0  0  0  0  0  0
    5.2199    0.8235    0.0000 C   0  0  0  0  0  0  0  0  0  0  0  0
    6.2796    1.8851    0.0000 C   0  0  0  0  0  0  0  0  0  0  0  0
    5.8901    3.3336    0.0000 C   0  0  0  0  0  0  0  0  0  0  0  0
    6.9498    4.3952    0.0000 O   0  0  0  0  0  0  0  0  0  0  0  0
    4.4409    3.7206    0.0000 C   0  0  0  0  0  0  0  0  0  0  0  0
    3.3812    2.6590    0.0000 C   0  0  0  0  0  0  0  0  0  0  0  0
    3.7707    1.2104    0.0000 C   0  0  0  0  0  0  0  0  0  0  0  0
    2.3214    1.5974    0.0000 C   0  0  0  0  0  0  0  0  0  0  0  0
    2.7110    0.1488    0.0000 C   0  0  0  0  0  0  0  0  0  0  0  0
    1.2617    0.5358    0.0000 C   0  0  0  0  0  0  0  0  0  0  0  0
    0.2020   -0.5258    0.0000 C   0  0  0  0  0  0  0  0  0  0  0  0
    0.5915   -1.9744    0.0000 C   0  0  0  0  0  0  0  0  0  0  0  0
   -0.8902   -1.7410    0.0000 C   0  0  0  0  0  0  0  0  0  0  0  0
  2  1  1  6
  2  3  1  0
  3  4  1  0
  4  5  1  0
  5  6  2  0
  5  7  1  0
  7  8  1  0
  8  9  1  0
  9 10  2  0
  9 11  1  0
 11 12  1  0
 12 13  1  0
 13 14  2  0
  2 15  1  0
 15 16  1  6
 16 17  1  0
 18 17  1  6
 18 19  1  0
 19 20  1  1
 20 21  1  6
 20 22  1  0
 23 22  1  1
 23 24  1  0
 24 25  1  0
 25 26  1  1
 25 27  1  0
 27 28  1  0
 28 29  1  0
 29 30  1  6
 29 31  1  0
 31 32  1  6
 32 33  1  0
 33 34  1  0
 34 35  1  6
 13  8  1  0
 34 15  1  0
 34 18  1  0
 31 19  1  0
 29 23  1  0
M  END
>  <MS_ID>  (3863) 
MS4508

>  <SMILES>  (3863) 
C[C@H](CCC(=O)ON1C(=O)CCC1=O)[C@H]1CC[C@H]2[C@@H]3[C@@H](O)C[C@@H]4C[C@H](O)CC[C@]4(C)[C@H]3CC[C@]12C

>  <Structure_dimension>  (3863) 
2D

$$$$
MS4511
     RDKit          2D

 43 48  0  0  0  0  0  0  0  0999 V2000
   -1.3306    5.4370    0.0000 C   0  0  0  0  0  0  0  0  0  0  0  0
   -1.5342    3.9509    0.0000 C   0  0  0  0  0  0  0  0  0  0  0  0
   -0.3490    3.0316    0.0000 C   0  0  0  0  0  0  0  0  0  0  0  0
    1.0398    3.5984    0.0000 C   0  0  0  0  0  0  0  0  0  0  0  0
    2.2251    2.6790    0.0000 C   0  0  0  0  0  0  0  0  0  0  0  0
    2.0215    1.1929    0.0000 O   0  0  0  0  0  0  0  0  0  0  0  0
    3.6139    3.2458    0.0000 N   0  0  0  0  0  0  0  0  0  0  0  0
    4.7991    2.3265    0.0000 C   0  0  0  0  0  0  0  0  0  0  0  0
    4.5956    0.8403    0.0000 C   0  0  0  0  0  0  0  0  0  0  0  0
    5.7808   -0.0790    0.0000 C   0  0  0  0  0  0  0  0  0  0  0  0
    7.1696    0.4878    0.0000 C   0  0  0  0  0  0  0  0  0  0  0  0
    8.3549   -0.4316    0.0000 C   0  0  0  0  0  0  0  0  0  0  0  0
    9.7437    0.1352    0.0000 O   0  0  0  0  0  0  0  0  0  0  0  0
    8.1513   -1.9177    0.0000 C   0  0  0  0  0  0  0  0  0  0  0  0
    6.7625   -2.4845    0.0000 C   0  0  0  0  0  0  0  0  0  0  0  0
    6.5590   -3.9706    0.0000 C   0  0  0  0  0  0  0  0  0  0  0  0
    7.7442   -4.8899    0.0000 C   0  0  0  0  0  0  0  0  0  0  0  0
    9.1330   -4.3232    0.0000 C   0  0  0  0  0  0  0  0  0  0  0  0
    9.3366   -2.8370    0.0000 C   0  0  0  0  0  0  0  0  0  0  0  0
    7.3732    1.9739    0.0000 C   0  0  0  0  0  0  0  0  0  0  0  0
    6.1879    2.8932    0.0000 C   0  0  0  0  0  0  0  0  0  0  0  0
   -2.9230    3.3841    0.0000 C   0  0  0  0  0  0  0  0  0  0  0  0
   -4.1978    4.1745    0.0000 C   0  0  0  0  0  0  0  0  0  0  0  0
   -5.3435    3.2063    0.0000 C   0  0  0  0  0  0  0  0  0  0  0  0
   -4.7767    1.8175    0.0000 C   0  0  0  0  0  0  0  0  0  0  0  0
   -5.4296    0.4670    0.0000 C   0  0  0  0  0  0  0  0  0  0  0  0
   -6.9255    0.3572    0.0000 C   0  0  0  0  0  0  0  0  0  0  0  0
   -7.7687    1.5978    0.0000 O   0  0  0  0  0  0  0  0  0  0  0  0
   -7.5784   -0.9933    0.0000 C   0  0  0  0  0  0  0  0  0  0  0  0
   -6.7352   -2.2339    0.0000 C   0  0  0  0  0  0  0  0  0  0  0  0
   -7.3880   -3.5844    0.0000 C   0  0  0  0  0  0  0  0  0  0  0  0
   -6.5449   -4.8250    0.0000 C   0  0  0  0  0  0  0  0  0  0  0  0
   -7.1977   -6.1755    0.0000 O   0  0  0  0  0  0  0  0  0  0  0  0
   -5.0489   -4.7151    0.0000 C   0  0  0  0  0  0  0  0  0  0  0  0
   -4.3961   -3.3647    0.0000 C   0  0  0  0  0  0  0  0  0  0  0  0
   -5.2392   -2.1240    0.0000 C   0  0  0  0  0  0  0  0  0  0  0  0
   -3.7433   -2.0142    0.0000 C   0  0  0  0  0  0  0  0  0  0  0  0
   -4.5864   -0.7736    0.0000 C   0  0  0  0  0  0  0  0  0  0  0  0
   -3.0905   -0.6637    0.0000 C   0  0  0  0  0  0  0  0  0  0  0  0
   -2.4376    0.6868    0.0000 C   0  0  0  0  0  0  0  0  0  0  0  0
   -0.9417    0.7967    0.0000 O   0  0  0  0  0  0  0  0  0  0  0  0
   -3.2808    1.9274    0.0000 C   0  0  0  0  0  0  0  0  0  0  0  0
   -1.8045    2.1931    0.0000 C   0  0  0  0  0  0  0  0  0  0  0  0
  2  1  1  6
  2  3  1  0
  3  4  1  0
  4  5  1  0
  5  6  2  0
  5  7  1  0
  7  8  1  0
  8  9  2  0
  9 10  1  0
 10 11  2  0
 11 12  1  0
 12 13  2  0
 12 14  1  0
 14 15  2  0
 15 16  1  0
 16 17  2  0
 17 18  1  0
 18 19  2  0
 11 20  1  0
 20 21  2  0
  2 22  1  0
 22 23  1  6
 23 24  1  0
 25 24  1  6
 25 26  1  0
 26 27  1  1
 27 28  1  1
 27 29  1  0
 30 29  1  1
 30 31  1  0
 31 32  1  0
 32 33  1  1
 32 34  1  0
 34 35  1  0
 35 36  1  0
 36 37  1  6
 36 38  1  0
 38 39  1  6
 39 40  1  0
 40 41  1  1
 40 42  1  0
 42 43  1  6
 21  8  1  0
 42 22  1  0
 19 14  1  0
 42 25  1  0
 38 26  1  0
 36 30  1  0
M  END
>  <MS_ID>  (3864) 
MS4511

>  <SMILES>  (3864) 
C[C@H](CCC(=O)Nc1ccc(C(=O)c2ccccc2)cc1)[C@H]1CC[C@H]2[C@@H]3[C@H](O)C[C@@H]4C[C@H](O)CC[C@]4(C)[C@H]3C[C@H](O)[C@]12C

>  <Structure_dimension>  (3864) 
2D

$$$$
MS4513
     RDKit          2D

 29 32  0  0  0  0  0  0  0  0999 V2000
   -4.6551   -2.6180    0.0000 C   0  0  0  0  0  0  0  0  0  0  0  0
   -3.5633   -1.5894    0.0000 C   0  0  0  0  0  0  0  0  0  0  0  0
   -3.9081   -0.1296    0.0000 C   0  0  0  0  0  0  0  0  0  0  0  0
   -5.3448    0.3016    0.0000 C   0  0  0  0  0  0  0  0  0  0  0  0
   -5.6897    1.7615    0.0000 C   0  0  0  0  0  0  0  0  0  0  0  0
   -4.5979    2.7900    0.0000 O   0  0  0  0  0  0  0  0  0  0  0  0
   -7.1264    2.1927    0.0000 N   0  0  0  0  0  0  0  0  0  0  0  0
   -7.4712    3.6525    0.0000 N   0  0  0  0  0  0  0  0  0  0  0  0
   -2.1266   -2.0207    0.0000 C   0  0  0  0  0  0  0  0  0  0  0  0
   -1.6310   -3.4364    0.0000 C   0  0  0  0  0  0  0  0  0  0  0  0
   -0.1314   -3.4026    0.0000 C   0  0  0  0  0  0  0  0  0  0  0  0
    0.2998   -1.9659    0.0000 C   0  0  0  0  0  0  0  0  0  0  0  0
    1.6561   -1.3251    0.0000 C   0  0  0  0  0  0  0  0  0  0  0  0
    2.8892   -2.1792    0.0000 C   0  0  0  0  0  0  0  0  0  0  0  0
    2.7660   -3.6741    0.0000 O   0  0  0  0  0  0  0  0  0  0  0  0
    4.2454   -1.5383    0.0000 C   0  0  0  0  0  0  0  0  0  0  0  0
    4.3685   -0.0434    0.0000 C   0  0  0  0  0  0  0  0  0  0  0  0
    5.7247    0.5975    0.0000 C   0  0  0  0  0  0  0  0  0  0  0  0
    5.8478    2.0924    0.0000 C   0  0  0  0  0  0  0  0  0  0  0  0
    7.2040    2.7332    0.0000 O   0  0  0  0  0  0  0  0  0  0  0  0
    4.6147    2.9465    0.0000 C   0  0  0  0  0  0  0  0  0  0  0  0
    3.2585    2.3056    0.0000 C   0  0  0  0  0  0  0  0  0  0  0  0
    3.1354    0.8107    0.0000 C   0  0  0  0  0  0  0  0  0  0  0  0
    1.9023    1.6648    0.0000 C   0  0  0  0  0  0  0  0  0  0  0  0
    1.7792    0.1699    0.0000 C   0  0  0  0  0  0  0  0  0  0  0  0
    0.5461    1.0239    0.0000 C   0  0  0  0  0  0  0  0  0  0  0  0
   -0.8101    0.3831    0.0000 C   0  0  0  0  0  0  0  0  0  0  0  0
   -0.9333   -1.1118    0.0000 C   0  0  0  0  0  0  0  0  0  0  0  0
   -2.2489   -0.3913    0.0000 C   0  0  0  0  0  0  0  0  0  0  0  0
  2  1  1  6
  2  3  1  0
  3  4  1  0
  4  5  1  0
  5  6  2  0
  5  7  1  0
  7  8  1  0
  2  9  1  0
  9 10  1  6
 10 11  1  0
 12 11  1  6
 12 13  1  0
 13 14  1  1
 14 15  1  6
 14 16  1  0
 17 16  1  6
 17 18  1  0
 18 19  1  0
 19 20  1  6
 19 21  1  0
 21 22  1  0
 22 23  1  0
 23 24  1  6
 23 25  1  0
 25 26  1  6
 26 27  1  0
 27 28  1  0
 28 29  1  6
 28  9  1  0
 28 12  1  0
 25 13  1  0
 23 17  1  0
M  END
>  <MS_ID>  (3865) 
MS4513

>  <SMILES>  (3865) 
C[C@H](CCC(=O)NN)[C@H]1CC[C@H]2[C@@H]3[C@@H](O)C[C@H]4C[C@@H](O)CC[C@]4(C)[C@H]3CC[C@]12C

>  <Structure_dimension>  (3865) 
2D

$$$$
MS4516
     RDKit          2D

 34 37  0  0  0  0  0  0  0  0999 V2000
   -2.0431    4.2971    0.0000 C   0  0  0  0  0  0  0  0  0  0  0  0
   -1.3315    2.9767    0.0000 C   0  0  0  0  0  0  0  0  0  0  0  0
   -2.1193    1.7002    0.0000 C   0  0  0  0  0  0  0  0  0  0  0  0
   -3.6187    1.7442    0.0000 C   0  0  0  0  0  0  0  0  0  0  0  0
   -4.4064    0.4677    0.0000 C   0  0  0  0  0  0  0  0  0  0  0  0
   -3.6948   -0.8528    0.0000 O   0  0  0  0  0  0  0  0  0  0  0  0
   -5.9058    0.5117    0.0000 N   0  0  0  0  0  0  0  0  0  0  0  0
   -6.6936   -0.7648    0.0000 C   0  0  0  0  0  0  0  0  0  0  0  0
   -8.1929   -0.7208    0.0000 C   0  0  0  0  0  0  0  0  0  0  0  0
   -8.9807   -1.9973    0.0000 S   0  0  0  0  0  0  0  0  0  0  0  0
  -10.2572   -1.2096    0.0000 O   0  0  0  0  0  0  0  0  0  0  0  0
   -7.7042   -2.7851    0.0000 O   0  0  0  0  0  0  0  0  0  0  0  0
   -9.7684   -3.2738    0.0000 O   0  0  0  0  0  0  0  0  0  0  0  0
    0.1678    2.9327    0.0000 C   0  0  0  0  0  0  0  0  0  0  0  0
    1.0847    4.1198    0.0000 C   0  0  0  0  0  0  0  0  0  0  0  0
    2.4971    3.6147    0.0000 C   0  0  0  0  0  0  0  0  0  0  0  0
    2.4531    2.1153    0.0000 C   0  0  0  0  0  0  0  0  0  0  0  0
    3.5379    1.0794    0.0000 C   0  0  0  0  0  0  0  0  0  0  0  0
    3.1831   -0.3781    0.0000 C   0  0  0  0  0  0  0  0  0  0  0  0
    1.7436   -0.7996    0.0000 C   0  0  0  0  0  0  0  0  0  0  0  0
    0.6588    0.2364    0.0000 C   0  0  0  0  0  0  0  0  0  0  0  0
    1.0135    1.6938    0.0000 C   0  0  0  0  0  0  0  0  0  0  0  0
   -0.4622    1.4251    0.0000 C   0  0  0  0  0  0  0  0  0  0  0  0
    4.2680   -1.4140    0.0000 C   0  0  0  0  0  0  0  0  0  0  0  0
    2.8284   -1.8355    0.0000 C   0  0  0  0  0  0  0  0  0  0  0  0
    3.9132   -2.8715    0.0000 C   0  0  0  0  0  0  0  0  0  0  0  0
    4.9980   -3.9074    0.0000 C   0  0  0  0  0  0  0  0  0  0  0  0
    6.4376   -3.4859    0.0000 C   0  0  0  0  0  0  0  0  0  0  0  0
    7.5224   -4.5219    0.0000 O   0  0  0  0  0  0  0  0  0  0  0  0
    6.7923   -2.0285    0.0000 C   0  0  0  0  0  0  0  0  0  0  0  0
    5.7075   -0.9925    0.0000 C   0  0  0  0  0  0  0  0  0  0  0  0
    6.0623    0.4649    0.0000 C   0  0  0  0  0  0  0  0  0  0  0  0
    4.9775    1.5009    0.0000 C   0  0  0  0  0  0  0  0  0  0  0  0
    5.3322    2.9583    0.0000 O   0  0  0  0  0  0  0  0  0  0  0  0
  2  1  1  1
  2  3  1  0
  3  4  1  0
  4  5  1  0
  5  6  2  0
  5  7  1  0
  7  8  1  0
  8  9  1  0
  9 10  1  0
 10 11  2  0
 10 12  2  0
 10 13  1  0
  2 14  1  0
 14 15  1  1
 15 16  1  0
 17 16  1  1
 17 18  1  0
 18 19  1  0
 19 20  1  6
 20 21  1  0
 21 22  1  0
 22 23  1  1
 19 24  1  0
 24 25  1  1
 24 26  1  0
 26 27  1  0
 27 28  1  0
 28 29  1  6
 28 30  1  0
 31 30  1  6
 31 32  1  0
 32 33  1  0
 33 34  1  1
 22 14  1  0
 31 24  1  0
 22 17  1  0
 18 33  1  1
M  END
>  <MS_ID>  (3866) 
MS4516

>  <SMILES>  (3866) 
C[C@H](CCC(=O)NCCS(=O)(=O)O)[C@H]1CC[C@H]2[C@@H]3[C@@H](CC[C@]12C)[C@@]1(C)CC[C@@H](O)C[C@H]1C[C@@H]3O

>  <Structure_dimension>  (3866) 
2D

$$$$
MS4518
     RDKit          2D

 33 36  0  0  0  0  0  0  0  0999 V2000
   -2.8805   -3.8445    0.0000 C   0  0  0  0  0  0  0  0  0  0  0  0
   -2.0253   -2.6122    0.0000 C   0  0  0  0  0  0  0  0  0  0  0  0
   -2.6649   -1.2554    0.0000 C   0  0  0  0  0  0  0  0  0  0  0  0
   -4.1597   -1.1309    0.0000 C   0  0  0  0  0  0  0  0  0  0  0  0
   -4.7993    0.2259    0.0000 C   0  0  0  0  0  0  0  0  0  0  0  0
   -3.9441    1.4582    0.0000 O   0  0  0  0  0  0  0  0  0  0  0  0
   -6.2941    0.3504    0.0000 C   0  0  0  0  0  0  0  0  0  0  0  0
   -6.9337    1.7072    0.0000 C   0  0  0  0  0  0  0  0  0  0  0  0
   -8.4286    1.8317    0.0000 S   0  0  0  0  0  0  0  0  0  0  0  0
   -8.3041    3.3265    0.0000 O   0  0  0  0  0  0  0  0  0  0  0  0
   -8.5531    0.3369    0.0000 O   0  0  0  0  0  0  0  0  0  0  0  0
   -9.9234    1.9562    0.0000 O   0  0  0  0  0  0  0  0  0  0  0  0
   -0.5305   -2.7367    0.0000 C   0  0  0  0  0  0  0  0  0  0  0  0
    0.2474   -4.0192    0.0000 C   0  0  0  0  0  0  0  0  0  0  0  0
    1.7076   -3.6756    0.0000 C   0  0  0  0  0  0  0  0  0  0  0  0
    1.8321   -2.1808    0.0000 C   0  0  0  0  0  0  0  0  0  0  0  0
    3.0262   -1.2731    0.0000 C   0  0  0  0  0  0  0  0  0  0  0  0
    4.4094   -1.8534    0.0000 C   0  0  0  0  0  0  0  0  0  0  0  0
    5.6036   -0.9457    0.0000 C   0  0  0  0  0  0  0  0  0  0  0  0
    6.9868   -1.5260    0.0000 O   0  0  0  0  0  0  0  0  0  0  0  0
    5.4146    0.5423    0.0000 C   0  0  0  0  0  0  0  0  0  0  0  0
    6.6088    1.4500    0.0000 C   0  0  0  0  0  0  0  0  0  0  0  0
    6.4197    2.9381    0.0000 C   0  0  0  0  0  0  0  0  0  0  0  0
    7.6139    3.8458    0.0000 O   0  0  0  0  0  0  0  0  0  0  0  0
    5.0366    3.5184    0.0000 C   0  0  0  0  0  0  0  0  0  0  0  0
    3.8424    2.6107    0.0000 C   0  0  0  0  0  0  0  0  0  0  0  0
    4.0314    1.1227    0.0000 C   0  0  0  0  0  0  0  0  0  0  0  0
    2.6482    1.7030    0.0000 C   0  0  0  0  0  0  0  0  0  0  0  0
    2.8372    0.2149    0.0000 C   0  0  0  0  0  0  0  0  0  0  0  0
    1.4540    0.7953    0.0000 C   0  0  0  0  0  0  0  0  0  0  0  0
    0.2599   -0.1125    0.0000 C   0  0  0  0  0  0  0  0  0  0  0  0
    0.4489   -1.6005    0.0000 C   0  0  0  0  0  0  0  0  0  0  0  0
   -0.9874   -1.1679    0.0000 C   0  0  0  0  0  0  0  0  0  0  0  0
  2  1  1  6
  2  3  1  0
  3  4  1  0
  4  5  1  0
  5  6  2  0
  5  7  1  0
  7  8  1  0
  8  9  1  0
  9 10  2  0
  9 11  2  0
  9 12  1  0
  2 13  1  0
 13 14  1  6
 14 15  1  0
 16 15  1  6
 16 17  1  0
 17 18  1  1
 18 19  1  0
 19 20  1  1
 19 21  1  0
 21 22  1  1
 22 23  1  0
 23 24  1  1
 23 25  1  0
 25 26  1  0
 26 27  1  0
 27 28  1  6
 27 29  1  0
 29 30  1  6
 30 31  1  0
 31 32  1  0
 32 33  1  6
 32 13  1  0
 32 16  1  0
 29 17  1  0
 27 21  1  0
M  END
>  <MS_ID>  (3867) 
MS4518

>  <SMILES>  (3867) 
C[C@H](CCC(=O)CCS(=O)(=O)O)[C@H]1CC[C@H]2[C@@H]3C[C@H](O)[C@@H]4C[C@H](O)CC[C@]4(C)[C@H]3CC[C@]12C

>  <Structure_dimension>  (3867) 
2D

$$$$
MS4519
     RDKit          2D

 30 33  0  0  0  0  0  0  0  0999 V2000
   -2.2419    1.1626    0.0000 C   0  0  0  0  0  0  0  0  0  0  0  0
   -2.9657   -0.1512    0.0000 C   0  0  0  0  0  0  0  0  0  0  0  0
   -4.4579    0.0018    0.0000 C   0  0  0  0  0  0  0  0  0  0  0  0
   -5.0715    1.3705    0.0000 C   0  0  0  0  0  0  0  0  0  0  0  0
   -6.5637    1.5235    0.0000 C   0  0  0  0  0  0  0  0  0  0  0  0
   -7.4423    0.3078    0.0000 O   0  0  0  0  0  0  0  0  0  0  0  0
   -7.1773    2.8923    0.0000 O   0  0  0  0  0  0  0  0  0  0  0  0
   -2.3521   -1.5200    0.0000 C   0  0  0  0  0  0  0  0  0  0  0  0
   -3.7775   -1.9871    0.0000 C   0  0  0  0  0  0  0  0  0  0  0  0
   -2.0365   -2.9864    0.0000 C   0  0  0  0  0  0  0  0  0  0  0  0
   -0.5443   -3.1394    0.0000 C   0  0  0  0  0  0  0  0  0  0  0  0
    0.0623   -1.7675    0.0000 C   0  0  0  0  0  0  0  0  0  0  0  0
    1.4877   -1.3003    0.0000 C   0  0  0  0  0  0  0  0  0  0  0  0
    2.6049   -2.3012    0.0000 C   0  0  0  0  0  0  0  0  0  0  0  0
    2.2968   -3.7692    0.0000 O   0  0  0  0  0  0  0  0  0  0  0  0
    4.0303   -1.8340    0.0000 C   0  0  0  0  0  0  0  0  0  0  0  0
    4.3385   -0.3660    0.0000 C   0  0  0  0  0  0  0  0  0  0  0  0
    5.7639    0.1011    0.0000 C   0  0  0  0  0  0  0  0  0  0  0  0
    6.0720    1.5692    0.0000 C   0  0  0  0  0  0  0  0  0  0  0  0
    7.4974    2.0363    0.0000 O   0  0  0  0  0  0  0  0  0  0  0  0
    4.9547    2.5700    0.0000 C   0  0  0  0  0  0  0  0  0  0  0  0
    3.5293    2.1028    0.0000 C   0  0  0  0  0  0  0  0  0  0  0  0
    3.2212    0.6348    0.0000 C   0  0  0  0  0  0  0  0  0  0  0  0
    2.1039    1.6357    0.0000 C   0  0  0  0  0  0  0  0  0  0  0  0
    1.7958    0.1677    0.0000 C   0  0  0  0  0  0  0  0  0  0  0  0
    0.6785    1.1685    0.0000 C   0  0  0  0  0  0  0  0  0  0  0  0
   -0.7469    0.7014    0.0000 C   0  0  0  0  0  0  0  0  0  0  0  0
   -1.7338    1.8309    0.0000 O   0  0  0  0  0  0  0  0  0  0  0  0
   -1.0550   -0.7666    0.0000 C   0  0  0  0  0  0  0  0  0  0  0  0
   -2.2708    0.1119    0.0000 C   0  0  0  0  0  0  0  0  0  0  0  0
  2  1  1  1
  2  3  1  0
  3  4  1  0
  4  5  1  0
  5  6  2  0
  5  7  1  0
  2  8  1  0
  8  9  1  1
  8 10  1  0
 10 11  1  0
 12 11  1  6
 12 13  1  0
 13 14  1  1
 14 15  1  1
 14 16  1  0
 17 16  1  1
 17 18  1  0
 18 19  1  0
 19 20  1  1
 19 21  1  0
 21 22  1  0
 22 23  1  0
 23 24  1  6
 23 25  1  0
 25 26  1  6
 26 27  1  0
 27 28  1  1
 27 29  1  0
 29 30  1  6
 29  8  1  0
 29 12  1  0
 25 13  1  0
 23 17  1  0
M  END
>  <MS_ID>  (3868) 
MS4519

>  <SMILES>  (3868) 
C[C@H](CCC(=O)O)[C@@]1(C)CC[C@H]2[C@@H]3[C@H](O)C[C@@H]4C[C@H](O)CC[C@]4(C)[C@H]3C[C@H](O)[C@@]21C

>  <Structure_dimension>  (3868) 
2D

$$$$
MS4523
     RDKit          2D

 39 43  0  0  0  0  0  0  0  0999 V2000
   -5.2533   -3.6769    0.0000 C   0  0  0  0  0  0  0  0  0  0  0  0
   -4.7438   -2.2661    0.0000 C   0  0  0  0  0  0  0  0  0  0  0  0
   -5.7109   -1.1195    0.0000 C   0  0  0  0  0  0  0  0  0  0  0  0
   -7.1874   -1.3836    0.0000 C   0  0  0  0  0  0  0  0  0  0  0  0
   -8.1545   -0.2370    0.0000 C   0  0  0  0  0  0  0  0  0  0  0  0
   -7.6450    1.1738    0.0000 O   0  0  0  0  0  0  0  0  0  0  0  0
   -9.6310   -0.5012    0.0000 O   0  0  0  0  0  0  0  0  0  0  0  0
   -3.2673   -2.0020    0.0000 C   0  0  0  0  0  0  0  0  0  0  0  0
   -2.1856   -3.0412    0.0000 C   0  0  0  0  0  0  0  0  0  0  0  0
   -0.8630   -2.3337    0.0000 C   0  0  0  0  0  0  0  0  0  0  0  0
   -1.1272   -0.8572    0.0000 C   0  0  0  0  0  0  0  0  0  0  0  0
   -0.2066    0.3272    0.0000 C   0  0  0  0  0  0  0  0  0  0  0  0
    1.2793    0.1221    0.0000 C   0  0  0  0  0  0  0  0  0  0  0  0
    2.1998    1.3064    0.0000 C   0  0  0  0  0  0  0  0  0  0  0  0
    3.6857    1.1014    0.0000 O   0  0  0  0  0  0  0  0  0  0  0  0
    4.2511   -0.2880    0.0000 C   0  0  0  0  0  0  0  0  0  0  0  0
    3.3306   -1.4723    0.0000 O   0  0  0  0  0  0  0  0  0  0  0  0
    3.8960   -2.8616    0.0000 C   0  0  0  0  0  0  0  0  0  0  0  0
    2.9755   -4.0460    0.0000 C   0  0  0  0  0  0  0  0  0  0  0  0
    1.4895   -3.8409    0.0000 O   0  0  0  0  0  0  0  0  0  0  0  0
    5.3819   -3.0667    0.0000 C   0  0  0  0  0  0  0  0  0  0  0  0
    5.9473   -4.4561    0.0000 O   0  0  0  0  0  0  0  0  0  0  0  0
    6.3024   -1.8824    0.0000 C   0  0  0  0  0  0  0  0  0  0  0  0
    7.7884   -2.0874    0.0000 O   0  0  0  0  0  0  0  0  0  0  0  0
    5.7371   -0.4930    0.0000 C   0  0  0  0  0  0  0  0  0  0  0  0
    6.6576    0.6913    0.0000 O   0  0  0  0  0  0  0  0  0  0  0  0
    1.6344    2.6958    0.0000 C   0  0  0  0  0  0  0  0  0  0  0  0
    2.5550    3.8801    0.0000 C   0  0  0  0  0  0  0  0  0  0  0  0
    1.9896    5.2695    0.0000 C   0  0  0  0  0  0  0  0  0  0  0  0
    2.9101    6.4538    0.0000 O   0  0  0  0  0  0  0  0  0  0  0  0
    0.5037    5.4745    0.0000 C   0  0  0  0  0  0  0  0  0  0  0  0
   -0.4169    4.2902    0.0000 C   0  0  0  0  0  0  0  0  0  0  0  0
    0.1485    2.9009    0.0000 C   0  0  0  0  0  0  0  0  0  0  0  0
   -1.3374    3.1059    0.0000 C   0  0  0  0  0  0  0  0  0  0  0  0
   -0.7720    1.7165    0.0000 C   0  0  0  0  0  0  0  0  0  0  0  0
   -2.2579    1.9216    0.0000 C   0  0  0  0  0  0  0  0  0  0  0  0
   -3.1785    0.7372    0.0000 C   0  0  0  0  0  0  0  0  0  0  0  0
   -2.6131   -0.6521    0.0000 C   0  0  0  0  0  0  0  0  0  0  0  0
   -4.1123   -0.6035    0.0000 C   0  0  0  0  0  0  0  0  0  0  0  0
  2  1  1  6
  2  3  1  0
  3  4  1  0
  4  5  1  0
  5  6  2  0
  5  7  1  0
  2  8  1  0
  8  9  1  6
  9 10  1  0
 11 10  1  6
 11 12  1  0
 12 13  1  1
 13 14  1  0
 14 15  1  1
 16 15  1  1
 16 17  1  0
 17 18  1  0
 18 19  1  1
 19 20  1  0
 18 21  1  0
 21 22  1  6
 21 23  1  0
 23 24  1  1
 23 25  1  0
 25 26  1  6
 14 27  1  0
 27 28  1  1
 28 29  1  0
 29 30  1  1
 29 31  1  0
 31 32  1  0
 32 33  1  0
 33 34  1  6
 33 35  1  0
 35 36  1  6
 36 37  1  0
 37 38  1  0
 38 39  1  6
 38  8  1  0
 38 11  1  0
 35 12  1  0
 25 16  1  0
 33 27  1  0
M  END
>  <MS_ID>  (3869) 
MS4523

>  <SMILES>  (3869) 
C[C@H](CCC(=O)O)[C@H]1CC[C@H]2[C@@H]3C[C@H](O[C@@H]4O[C@H](CO)[C@@H](O)[C@H](O)[C@H]4O)[C@@H]4C[C@H](O)CC[C@]4(C)[C@H]3CC[C@]12C

>  <Structure_dimension>  (3869) 
2D

$$$$
MS4524
     RDKit          2D

 29 32  0  0  0  0  0  0  0  0999 V2000
   -7.2216    3.6536    0.0000 C   0  0  0  0  0  0  0  0  0  0  0  0
   -6.9111    2.1861    0.0000 O   0  0  0  0  0  0  0  0  0  0  0  0
   -5.4850    1.7213    0.0000 C   0  0  0  0  0  0  0  0  0  0  0  0
   -4.3693    2.7239    0.0000 O   0  0  0  0  0  0  0  0  0  0  0  0
   -5.1744    0.2538    0.0000 C   0  0  0  0  0  0  0  0  0  0  0  0
   -3.7483   -0.2111    0.0000 C   0  0  0  0  0  0  0  0  0  0  0  0
   -3.4378   -1.6786    0.0000 C   0  0  0  0  0  0  0  0  0  0  0  0
   -4.5534   -2.6812    0.0000 C   0  0  0  0  0  0  0  0  0  0  0  0
   -2.0116   -2.1434    0.0000 C   0  0  0  0  0  0  0  0  0  0  0  0
   -1.5494   -3.5704    0.0000 C   0  0  0  0  0  0  0  0  0  0  0  0
   -0.0494   -3.5718    0.0000 C   0  0  0  0  0  0  0  0  0  0  0  0
    0.4155   -2.1456    0.0000 C   0  0  0  0  0  0  0  0  0  0  0  0
    1.7863   -1.5368    0.0000 C   0  0  0  0  0  0  0  0  0  0  0  0
    2.9990   -2.4196    0.0000 C   0  0  0  0  0  0  0  0  0  0  0  0
    4.3699   -1.8107    0.0000 C   0  0  0  0  0  0  0  0  0  0  0  0
    4.5281   -0.3191    0.0000 C   0  0  0  0  0  0  0  0  0  0  0  0
    5.8990    0.2898    0.0000 C   0  0  0  0  0  0  0  0  0  0  0  0
    6.0571    1.7814    0.0000 C   0  0  0  0  0  0  0  0  0  0  0  0
    7.4280    2.3902    0.0000 O   0  0  0  0  0  0  0  0  0  0  0  0
    4.8444    2.6642    0.0000 C   0  0  0  0  0  0  0  0  0  0  0  0
    3.4735    2.0553    0.0000 C   0  0  0  0  0  0  0  0  0  0  0  0
    3.3154    0.5637    0.0000 C   0  0  0  0  0  0  0  0  0  0  0  0
    2.1026    1.4465    0.0000 C   0  0  0  0  0  0  0  0  0  0  0  0
    1.9445   -0.0451    0.0000 C   0  0  0  0  0  0  0  0  0  0  0  0
    0.7318    0.8376    0.0000 C   0  0  0  0  0  0  0  0  0  0  0  0
   -0.6391    0.2288    0.0000 C   0  0  0  0  0  0  0  0  0  0  0  0
   -1.8518    1.1116    0.0000 O   0  0  0  0  0  0  0  0  0  0  0  0
   -0.7973   -1.2628    0.0000 C   0  0  0  0  0  0  0  0  0  0  0  0
   -2.0956   -0.5116    0.0000 C   0  0  0  0  0  0  0  0  0  0  0  0
  1  2  1  0
  2  3  1  0
  3  4  2  0
  3  5  1  0
  5  6  1  0
  6  7  1  0
  7  8  1  6
  7  9  1  0
  9 10  1  6
 10 11  1  0
 12 11  1  6
 12 13  1  0
 13 14  1  1
 14 15  1  0
 16 15  1  6
 16 17  1  0
 17 18  1  0
 18 19  1  6
 18 20  1  0
 20 21  1  0
 21 22  1  0
 22 23  1  6
 22 24  1  0
 24 25  1  6
 25 26  1  0
 26 27  1  1
 26 28  1  0
 28 29  1  6
 28  9  1  0
 28 12  1  0
 24 13  1  0
 22 16  1  0
M  END
>  <MS_ID>  (3870) 
MS4524

>  <SMILES>  (3870) 
COC(=O)CC[C@@H](C)[C@H]1CC[C@H]2[C@@H]3CC[C@H]4C[C@@H](O)CC[C@]4(C)[C@H]3C[C@H](O)[C@]12C

>  <Structure_dimension>  (3870) 
2D

$$$$
MS4525
     RDKit          2D

 28 31  0  0  0  0  0  0  0  0999 V2000
   -4.6340   -2.3524    0.0000 C   0  0  0  0  0  0  0  0  0  0  0  0
   -3.5242   -1.3434    0.0000 C   0  0  0  0  0  0  0  0  0  0  0  0
   -3.8431    0.1223    0.0000 C   0  0  0  0  0  0  0  0  0  0  0  0
   -5.2720    0.5789    0.0000 C   0  0  0  0  0  0  0  0  0  0  0  0
   -5.5909    2.0446    0.0000 C   0  0  0  0  0  0  0  0  0  0  0  0
   -4.4811    3.0537    0.0000 O   0  0  0  0  0  0  0  0  0  0  0  0
   -7.0197    2.5012    0.0000 O   0  0  0  0  0  0  0  0  0  0  0  0
   -2.0954   -1.8000    0.0000 C   0  0  0  0  0  0  0  0  0  0  0  0
   -1.6249   -3.2243    0.0000 C   0  0  0  0  0  0  0  0  0  0  0  0
   -0.1249   -3.2170    0.0000 C   0  0  0  0  0  0  0  0  0  0  0  0
    0.3317   -1.7882    0.0000 C   0  0  0  0  0  0  0  0  0  0  0  0
    1.6990   -1.1715    0.0000 C   0  0  0  0  0  0  0  0  0  0  0  0
    2.9168   -2.0473    0.0000 C   0  0  0  0  0  0  0  0  0  0  0  0
    2.7672   -3.5398    0.0000 O   0  0  0  0  0  0  0  0  0  0  0  0
    4.2841   -1.4305    0.0000 C   0  0  0  0  0  0  0  0  0  0  0  0
    4.4337    0.0620    0.0000 C   0  0  0  0  0  0  0  0  0  0  0  0
    5.8011    0.6787    0.0000 C   0  0  0  0  0  0  0  0  0  0  0  0
    5.9506    2.1713    0.0000 C   0  0  0  0  0  0  0  0  0  0  0  0
    4.7328    3.0471    0.0000 C   0  0  0  0  0  0  0  0  0  0  0  0
    3.3655    2.4303    0.0000 C   0  0  0  0  0  0  0  0  0  0  0  0
    3.2159    0.9378    0.0000 C   0  0  0  0  0  0  0  0  0  0  0  0
    1.9981    1.8136    0.0000 C   0  0  0  0  0  0  0  0  0  0  0  0
    1.8486    0.3211    0.0000 C   0  0  0  0  0  0  0  0  0  0  0  0
    0.6308    1.1968    0.0000 C   0  0  0  0  0  0  0  0  0  0  0  0
   -0.7366    0.5801    0.0000 C   0  0  0  0  0  0  0  0  0  0  0  0
   -1.9543    1.4559    0.0000 O   0  0  0  0  0  0  0  0  0  0  0  0
   -0.8861   -0.9124    0.0000 C   0  0  0  0  0  0  0  0  0  0  0  0
   -2.1888   -0.1687    0.0000 C   0  0  0  0  0  0  0  0  0  0  0  0
  2  1  1  6
  2  3  1  0
  3  4  1  0
  4  5  1  0
  5  6  2  0
  5  7  1  0
  2  8  1  0
  8  9  1  6
  9 10  1  0
 11 10  1  6
 11 12  1  0
 12 13  1  1
 13 14  1  1
 13 15  1  0
 16 15  1  6
 16 17  1  0
 17 18  1  0
 18 19  1  0
 19 20  1  0
 20 21  1  0
 21 22  1  6
 21 23  1  0
 23 24  1  6
 24 25  1  0
 25 26  2  0
 25 27  1  0
 27 28  1  6
 27  8  1  0
 27 11  1  0
 23 12  1  0
 21 16  1  0
M  END
>  <MS_ID>  (3871) 
MS4525

>  <SMILES>  (3871) 
C[C@H](CCC(=O)O)[C@H]1CC[C@H]2[C@@H]3[C@H](O)C[C@H]4CCCC[C@]4(C)[C@H]3CC(=O)[C@]12C

>  <Structure_dimension>  (3871) 
2D

$$$$
MS4526
     RDKit          2D

 29 32  0  0  0  0  0  0  0  0999 V2000
   -7.4712    3.6525    0.0000 C   0  0  0  0  0  0  0  0  0  0  0  0
   -7.1264    2.1927    0.0000 O   0  0  0  0  0  0  0  0  0  0  0  0
   -5.6897    1.7615    0.0000 C   0  0  0  0  0  0  0  0  0  0  0  0
   -4.5979    2.7900    0.0000 O   0  0  0  0  0  0  0  0  0  0  0  0
   -5.3448    0.3016    0.0000 C   0  0  0  0  0  0  0  0  0  0  0  0
   -3.9081   -0.1296    0.0000 C   0  0  0  0  0  0  0  0  0  0  0  0
   -3.5633   -1.5894    0.0000 C   0  0  0  0  0  0  0  0  0  0  0  0
   -4.6551   -2.6180    0.0000 C   0  0  0  0  0  0  0  0  0  0  0  0
   -2.1266   -2.0207    0.0000 C   0  0  0  0  0  0  0  0  0  0  0  0
   -1.6310   -3.4364    0.0000 C   0  0  0  0  0  0  0  0  0  0  0  0
   -0.1314   -3.4026    0.0000 C   0  0  0  0  0  0  0  0  0  0  0  0
    0.2998   -1.9659    0.0000 C   0  0  0  0  0  0  0  0  0  0  0  0
    1.6561   -1.3251    0.0000 C   0  0  0  0  0  0  0  0  0  0  0  0
    2.8892   -2.1792    0.0000 C   0  0  0  0  0  0  0  0  0  0  0  0
    2.7660   -3.6741    0.0000 O   0  0  0  0  0  0  0  0  0  0  0  0
    4.2454   -1.5383    0.0000 C   0  0  0  0  0  0  0  0  0  0  0  0
    4.3685   -0.0434    0.0000 C   0  0  0  0  0  0  0  0  0  0  0  0
    5.7247    0.5975    0.0000 C   0  0  0  0  0  0  0  0  0  0  0  0
    5.8478    2.0924    0.0000 C   0  0  0  0  0  0  0  0  0  0  0  0
    7.2040    2.7332    0.0000 O   0  0  0  0  0  0  0  0  0  0  0  0
    4.6147    2.9465    0.0000 C   0  0  0  0  0  0  0  0  0  0  0  0
    3.2585    2.3056    0.0000 C   0  0  0  0  0  0  0  0  0  0  0  0
    3.1354    0.8107    0.0000 C   0  0  0  0  0  0  0  0  0  0  0  0
    1.9023    1.6648    0.0000 C   0  0  0  0  0  0  0  0  0  0  0  0
    1.7792    0.1699    0.0000 C   0  0  0  0  0  0  0  0  0  0  0  0
    0.5461    1.0239    0.0000 C   0  0  0  0  0  0  0  0  0  0  0  0
   -0.8101    0.3831    0.0000 C   0  0  0  0  0  0  0  0  0  0  0  0
   -0.9333   -1.1118    0.0000 C   0  0  0  0  0  0  0  0  0  0  0  0
   -2.2489   -0.3913    0.0000 C   0  0  0  0  0  0  0  0  0  0  0  0
  1  2  1  0
  2  3  1  0
  3  4  2  0
  3  5  1  0
  5  6  1  0
  6  7  1  0
  7  8  1  6
  7  9  1  0
  9 10  1  6
 10 11  1  0
 12 11  1  6
 12 13  1  0
 13 14  1  6
 14 15  1  6
 14 16  1  0
 17 16  1  1
 17 18  1  0
 18 19  1  0
 19 20  1  1
 19 21  1  0
 21 22  1  0
 22 23  1  0
 23 24  1  6
 23 25  1  0
 25 26  1  6
 26 27  1  0
 27 28  1  0
 28 29  1  6
 28  9  1  0
 28 12  1  0
 25 13  1  0
 23 17  1  0
M  END
>  <MS_ID>  (3872) 
MS4526

>  <SMILES>  (3872) 
COC(=O)CC[C@@H](C)[C@H]1CC[C@H]2[C@H]3[C@@H](O)C[C@@H]4C[C@H](O)CC[C@]4(C)[C@H]3CC[C@]12C

>  <Structure_dimension>  (3872) 
2D

$$$$
MS4528
     RDKit          2D

 34 37  0  0  0  0  0  0  0  0999 V2000
   -1.6851   -4.3936    0.0000 C   0  0  0  0  0  0  0  0  0  0  0  0
   -1.0219   -3.0482    0.0000 C   0  0  0  0  0  0  0  0  0  0  0  0
   -1.8555   -1.8011    0.0000 C   0  0  0  0  0  0  0  0  0  0  0  0
   -3.3523   -1.8996    0.0000 C   0  0  0  0  0  0  0  0  0  0  0  0
   -4.1859   -0.6525    0.0000 C   0  0  0  0  0  0  0  0  0  0  0  0
   -3.5228    0.6929    0.0000 O   0  0  0  0  0  0  0  0  0  0  0  0
   -5.6827   -0.7510    0.0000 N   0  0  0  0  0  0  0  0  0  0  0  0
   -6.5163    0.4961    0.0000 C   0  0  0  0  0  0  0  0  0  0  0  0
   -8.0131    0.3977    0.0000 C   0  0  0  0  0  0  0  0  0  0  0  0
   -8.8467    1.6447    0.0000 C   0  0  0  0  0  0  0  0  0  0  0  0
  -10.3435    1.5463    0.0000 C   0  0  0  0  0  0  0  0  0  0  0  0
  -11.1771    2.7933    0.0000 C   0  0  0  0  0  0  0  0  0  0  0  0
  -12.6738    2.6949    0.0000 N   0  0  0  0  0  0  0  0  0  0  0  0
    0.4748   -2.9498    0.0000 C   0  0  0  0  0  0  0  0  0  0  0  0
    1.4342   -4.1028    0.0000 C   0  0  0  0  0  0  0  0  0  0  0  0
    2.8273   -3.5467    0.0000 C   0  0  0  0  0  0  0  0  0  0  0  0
    2.7289   -2.0499    0.0000 C   0  0  0  0  0  0  0  0  0  0  0  0
    3.7754   -0.9753    0.0000 C   0  0  0  0  0  0  0  0  0  0  0  0
    5.2293   -1.3442    0.0000 C   0  0  0  0  0  0  0  0  0  0  0  0
    5.6368   -2.7878    0.0000 O   0  0  0  0  0  0  0  0  0  0  0  0
    6.2758   -0.2695    0.0000 C   0  0  0  0  0  0  0  0  0  0  0  0
    5.8683    1.1741    0.0000 C   0  0  0  0  0  0  0  0  0  0  0  0
    6.9148    2.2488    0.0000 C   0  0  0  0  0  0  0  0  0  0  0  0
    6.5073    3.6924    0.0000 C   0  0  0  0  0  0  0  0  0  0  0  0
    7.5538    4.7670    0.0000 O   0  0  0  0  0  0  0  0  0  0  0  0
    5.0534    4.0613    0.0000 C   0  0  0  0  0  0  0  0  0  0  0  0
    4.0069    2.9866    0.0000 C   0  0  0  0  0  0  0  0  0  0  0  0
    4.4144    1.5430    0.0000 C   0  0  0  0  0  0  0  0  0  0  0  0
    2.9605    1.9119    0.0000 C   0  0  0  0  0  0  0  0  0  0  0  0
    3.3679    0.4683    0.0000 C   0  0  0  0  0  0  0  0  0  0  0  0
    1.9140    0.8373    0.0000 C   0  0  0  0  0  0  0  0  0  0  0  0
    0.8675   -0.2374    0.0000 C   0  0  0  0  0  0  0  0  0  0  0  0
    1.2750   -1.6810    0.0000 C   0  0  0  0  0  0  0  0  0  0  0  0
   -0.2095   -1.4661    0.0000 C   0  0  0  0  0  0  0  0  0  0  0  0
  2  1  1  6
  2  3  1  0
  3  4  1  0
  4  5  1  0
  5  6  2  0
  5  7  1  0
  7  8  1  0
  8  9  1  0
  9 10  1  0
 10 11  1  0
 11 12  1  0
 12 13  1  0
  2 14  1  0
 14 15  1  6
 15 16  1  0
 17 16  1  6
 17 18  1  0
 18 19  1  1
 19 20  1  6
 19 21  1  0
 22 21  1  1
 22 23  1  0
 23 24  1  0
 24 25  1  1
 24 26  1  0
 26 27  1  0
 27 28  1  0
 28 29  1  6
 28 30  1  0
 30 31  1  6
 31 32  1  0
 32 33  1  0
 33 34  1  6
 33 14  1  0
 33 17  1  0
 30 18  1  0
 28 22  1  0
M  END
>  <MS_ID>  (3873) 
MS4528

>  <SMILES>  (3873) 
C[C@H](CCC(=O)NCCCCCN)[C@H]1CC[C@H]2[C@@H]3[C@@H](O)C[C@@H]4C[C@H](O)CC[C@]4(C)[C@H]3CC[C@]12C

>  <Structure_dimension>  (3873) 
2D

$$$$
MS4530
     RDKit          2D

 39 43  0  0  0  0  0  0  0  0999 V2000
   -0.3543   -4.9893    0.0000 C   0  0  0  0  0  0  0  0  0  0  0  0
    0.1081   -3.5624    0.0000 C   0  0  0  0  0  0  0  0  0  0  0  0
   -0.8964   -2.4484    0.0000 C   0  0  0  0  0  0  0  0  0  0  0  0
   -2.3634   -2.7614    0.0000 C   0  0  0  0  0  0  0  0  0  0  0  0
   -3.3679   -1.6474    0.0000 C   0  0  0  0  0  0  0  0  0  0  0  0
   -2.9055   -0.2205    0.0000 O   0  0  0  0  0  0  0  0  0  0  0  0
   -4.8349   -1.9604    0.0000 N   0  0  0  0  0  0  0  0  0  0  0  0
   -5.8394   -0.8465    0.0000 C   0  0  0  0  0  0  0  0  0  0  0  0
   -5.3770    0.5805    0.0000 C   0  0  0  0  0  0  0  0  0  0  0  0
   -6.3815    1.6944    0.0000 C   0  0  0  0  0  0  0  0  0  0  0  0
   -7.8485    1.3814    0.0000 C   0  0  0  0  0  0  0  0  0  0  0  0
   -8.8531    2.4954    0.0000 S   0  0  0  0  0  0  0  0  0  0  0  0
   -7.7391    3.4999    0.0000 O   0  0  0  0  0  0  0  0  0  0  0  0
   -9.9670    1.4909    0.0000 O   0  0  0  0  0  0  0  0  0  0  0  0
   -9.8576    3.6094    0.0000 O   0  0  0  0  0  0  0  0  0  0  0  0
   -8.3110   -0.0455    0.0000 C   0  0  0  0  0  0  0  0  0  0  0  0
   -7.3064   -1.1594    0.0000 C   0  0  0  0  0  0  0  0  0  0  0  0
    1.5751   -3.2494    0.0000 C   0  0  0  0  0  0  0  0  0  0  0  0
    2.6906   -4.2523    0.0000 C   0  0  0  0  0  0  0  0  0  0  0  0
    3.9891   -3.5013    0.0000 C   0  0  0  0  0  0  0  0  0  0  0  0
    3.6761   -2.0343    0.0000 C   0  0  0  0  0  0  0  0  0  0  0  0
    4.5569   -0.8201    0.0000 C   0  0  0  0  0  0  0  0  0  0  0  0
    6.0488   -0.9758    0.0000 C   0  0  0  0  0  0  0  0  0  0  0  0
    6.6599   -2.3456    0.0000 O   0  0  0  0  0  0  0  0  0  0  0  0
    6.9295    0.2384    0.0000 C   0  0  0  0  0  0  0  0  0  0  0  0
    6.3184    1.6083    0.0000 C   0  0  0  0  0  0  0  0  0  0  0  0
    7.1991    2.8225    0.0000 C   0  0  0  0  0  0  0  0  0  0  0  0
    6.5880    4.1923    0.0000 C   0  0  0  0  0  0  0  0  0  0  0  0
    7.4688    5.4065    0.0000 O   0  0  0  0  0  0  0  0  0  0  0  0
    5.0961    4.3480    0.0000 C   0  0  0  0  0  0  0  0  0  0  0  0
    4.2153    3.1338    0.0000 C   0  0  0  0  0  0  0  0  0  0  0  0
    4.8265    1.7639    0.0000 C   0  0  0  0  0  0  0  0  0  0  0  0
    3.3346    1.9196    0.0000 C   0  0  0  0  0  0  0  0  0  0  0  0
    3.9457    0.5497    0.0000 C   0  0  0  0  0  0  0  0  0  0  0  0
    2.4538    0.7054    0.0000 C   0  0  0  0  0  0  0  0  0  0  0  0
    1.5731   -0.5088    0.0000 C   0  0  0  0  0  0  0  0  0  0  0  0
    0.0812   -0.3531    0.0000 O   0  0  0  0  0  0  0  0  0  0  0  0
    2.1842   -1.8786    0.0000 C   0  0  0  0  0  0  0  0  0  0  0  0
    0.6842   -1.8798    0.0000 C   0  0  0  0  0  0  0  0  0  0  0  0
  2  1  1  6
  2  3  1  0
  3  4  1  0
  4  5  1  0
  5  6  2  0
  5  7  1  0
  7  8  1  0
  8  9  2  0
  9 10  1  0
 10 11  2  0
 11 12  1  0
 12 13  2  0
 12 14  2  0
 12 15  1  0
 11 16  1  0
 16 17  2  0
  2 18  1  0
 18 19  1  6
 19 20  1  0
 21 20  1  6
 21 22  1  0
 22 23  1  1
 23 24  1  1
 23 25  1  0
 26 25  1  1
 26 27  1  0
 27 28  1  0
 28 29  1  1
 28 30  1  0
 30 31  1  0
 31 32  1  0
 32 33  1  6
 32 34  1  0
 34 35  1  6
 35 36  1  0
 36 37  1  1
 36 38  1  0
 38 39  1  6
 17  8  1  0
 38 18  1  0
 38 21  1  0
 34 22  1  0
 32 26  1  0
M  END
>  <MS_ID>  (3874) 
MS4530

>  <SMILES>  (3874) 
C[C@H](CCC(=O)Nc1ccc(S(=O)(=O)O)cc1)[C@H]1CC[C@H]2[C@@H]3[C@H](O)C[C@@H]4C[C@H](O)CC[C@]4(C)[C@H]3C[C@H](O)[C@]12C

>  <Structure_dimension>  (3874) 
2D

$$$$
MS4531
     RDKit          2D

 37 40  0  0  0  0  0  0  0  0999 V2000
   -1.7219   -4.5117    0.0000 C   0  0  0  0  0  0  0  0  0  0  0  0
   -1.0762   -3.1579    0.0000 C   0  0  0  0  0  0  0  0  0  0  0  0
   -1.9258   -1.9217    0.0000 C   0  0  0  0  0  0  0  0  0  0  0  0
   -3.4211   -2.0394    0.0000 C   0  0  0  0  0  0  0  0  0  0  0  0
   -4.2707   -0.8032    0.0000 C   0  0  0  0  0  0  0  0  0  0  0  0
   -3.6250    0.5507    0.0000 O   0  0  0  0  0  0  0  0  0  0  0  0
   -5.7661   -0.9208    0.0000 N   0  0  0  0  0  0  0  0  0  0  0  0
   -6.6157    0.3154    0.0000 C   0  0  0  0  0  0  0  0  0  0  0  0
   -8.1111    0.1977    0.0000 C   0  0  0  0  0  0  0  0  0  0  0  0
   -8.9607    1.4339    0.0000 C   0  0  0  0  0  0  0  0  0  0  0  0
  -10.4561    1.3162    0.0000 C   0  0  0  0  0  0  0  0  0  0  0  0
  -11.3057    2.5524    0.0000 N   0  0  0  0  0  0  0  0  0  0  0  0
   -5.9699    1.6692    0.0000 C   0  0  0  0  0  0  0  0  0  0  0  0
   -4.4745    1.7869    0.0000 O   0  0  0  0  0  0  0  0  0  0  0  0
   -6.8195    2.9054    0.0000 O   0  0  0  0  0  0  0  0  0  0  0  0
    0.4192   -3.0402    0.0000 C   0  0  0  0  0  0  0  0  0  0  0  0
    1.3934   -4.1808    0.0000 C   0  0  0  0  0  0  0  0  0  0  0  0
    2.7792   -3.6068    0.0000 C   0  0  0  0  0  0  0  0  0  0  0  0
    2.6615   -2.1114    0.0000 C   0  0  0  0  0  0  0  0  0  0  0  0
    3.6941   -1.0234    0.0000 C   0  0  0  0  0  0  0  0  0  0  0  0
    5.1526   -1.3736    0.0000 C   0  0  0  0  0  0  0  0  0  0  0  0
    5.5786   -2.8118    0.0000 O   0  0  0  0  0  0  0  0  0  0  0  0
    6.1852   -0.2855    0.0000 C   0  0  0  0  0  0  0  0  0  0  0  0
    7.6437   -0.6357    0.0000 O   0  0  0  0  0  0  0  0  0  0  0  0
    5.7592    1.1527    0.0000 C   0  0  0  0  0  0  0  0  0  0  0  0
    6.7917    2.2408    0.0000 C   0  0  0  0  0  0  0  0  0  0  0  0
    6.3657    3.6790    0.0000 C   0  0  0  0  0  0  0  0  0  0  0  0
    7.3982    4.7670    0.0000 O   0  0  0  0  0  0  0  0  0  0  0  0
    4.9071    4.0292    0.0000 C   0  0  0  0  0  0  0  0  0  0  0  0
    3.8746    2.9411    0.0000 C   0  0  0  0  0  0  0  0  0  0  0  0
    4.3006    1.5029    0.0000 C   0  0  0  0  0  0  0  0  0  0  0  0
    2.8421    1.8531    0.0000 C   0  0  0  0  0  0  0  0  0  0  0  0
    3.2681    0.4148    0.0000 C   0  0  0  0  0  0  0  0  0  0  0  0
    1.8095    0.7650    0.0000 C   0  0  0  0  0  0  0  0  0  0  0  0
    0.7770   -0.3230    0.0000 C   0  0  0  0  0  0  0  0  0  0  0  0
    1.2030   -1.7613    0.0000 C   0  0  0  0  0  0  0  0  0  0  0  0
   -0.2842   -1.5654    0.0000 C   0  0  0  0  0  0  0  0  0  0  0  0
  2  1  1  6
  2  3  1  0
  3  4  1  0
  4  5  1  0
  5  6  2  0
  5  7  1  0
  7  8  1  0
  8  9  1  1
  9 10  1  0
 10 11  1  0
 11 12  1  0
  8 13  1  0
 13 14  2  0
 13 15  1  0
  2 16  1  0
 16 17  1  6
 17 18  1  0
 19 18  1  6
 19 20  1  0
 20 21  1  1
 21 22  1  1
 21 23  1  0
 23 24  1  1
 23 25  1  0
 25 26  1  1
 26 27  1  0
 27 28  1  1
 27 29  1  0
 29 30  1  0
 30 31  1  0
 31 32  1  6
 31 33  1  0
 33 34  1  6
 34 35  1  0
 35 36  1  0
 36 37  1  6
 36 16  1  0
 36 19  1  0
 33 20  1  0
 31 25  1  0
M  END
>  <MS_ID>  (3875) 
MS4531

>  <SMILES>  (3875) 
C[C@H](CCC(=O)N[C@@H](CCCN)C(=O)O)[C@H]1CC[C@H]2[C@@H]3[C@H](O)[C@H](O)[C@@H]4C[C@H](O)CC[C@]4(C)[C@H]3CC[C@]12C

>  <Structure_dimension>  (3875) 
2D

$$$$
MS4532
     RDKit          2D

 29 32  0  0  0  0  0  0  0  0999 V2000
   -5.0518   -2.1873    0.0000 C   0  0  0  0  0  0  0  0  0  0  0  0
   -3.8500   -1.2897    0.0000 C   0  0  0  0  0  0  0  0  0  0  0  0
   -4.0264    0.1999    0.0000 C   0  0  0  0  0  0  0  0  0  0  0  0
   -5.4047    0.7919    0.0000 C   0  0  0  0  0  0  0  0  0  0  0  0
   -5.5811    2.2815    0.0000 C   0  0  0  0  0  0  0  0  0  0  0  0
   -4.3792    3.1791    0.0000 O   0  0  0  0  0  0  0  0  0  0  0  0
   -6.9593    2.8735    0.0000 O   0  0  0  0  0  0  0  0  0  0  0  0
   -2.4718   -1.8817    0.0000 C   0  0  0  0  0  0  0  0  0  0  0  0
   -2.1406   -3.3447    0.0000 C   0  0  0  0  0  0  0  0  0  0  0  0
   -0.6469   -3.4819    0.0000 C   0  0  0  0  0  0  0  0  0  0  0  0
   -0.0549   -2.1036    0.0000 C   0  0  0  0  0  0  0  0  0  0  0  0
    1.3655   -1.6214    0.0000 C   0  0  0  0  0  0  0  0  0  0  0  0
    2.4933   -2.6103    0.0000 C   0  0  0  0  0  0  0  0  0  0  0  0
    3.9136   -2.1281    0.0000 C   0  0  0  0  0  0  0  0  0  0  0  0
    4.2062   -0.6569    0.0000 C   0  0  0  0  0  0  0  0  0  0  0  0
    5.6265   -0.1746    0.0000 C   0  0  0  0  0  0  0  0  0  0  0  0
    5.9191    1.2966    0.0000 C   0  0  0  0  0  0  0  0  0  0  0  0
    7.3394    1.7788    0.0000 O   0  0  0  0  0  0  0  0  0  0  0  0
    4.7913    2.2855    0.0000 C   0  0  0  0  0  0  0  0  0  0  0  0
    3.3709    1.8033    0.0000 C   0  0  0  0  0  0  0  0  0  0  0  0
    3.0784    0.3321    0.0000 C   0  0  0  0  0  0  0  0  0  0  0  0
    1.9505    1.3210    0.0000 C   0  0  0  0  0  0  0  0  0  0  0  0
    1.6580   -0.1502    0.0000 C   0  0  0  0  0  0  0  0  0  0  0  0
    0.5302    0.8388    0.0000 C   0  0  0  0  0  0  0  0  0  0  0  0
    0.8227    2.3100    0.0000 O   0  0  0  0  0  0  0  0  0  0  0  0
   -0.8902    0.3565    0.0000 C   0  0  0  0  0  0  0  0  0  0  0  0
   -2.0180    1.3455    0.0000 O   0  0  0  0  0  0  0  0  0  0  0  0
   -1.1827   -1.1147    0.0000 C   0  0  0  0  0  0  0  0  0  0  0  0
   -2.4078   -0.2490    0.0000 C   0  0  0  0  0  0  0  0  0  0  0  0
  2  1  1  6
  2  3  1  0
  3  4  1  0
  4  5  1  0
  5  6  2  0
  5  7  1  0
  2  8  1  0
  8  9  1  6
  9 10  1  0
 11 10  1  6
 11 12  1  0
 12 13  1  1
 13 14  1  0
 15 14  1  1
 15 16  1  0
 16 17  1  0
 17 18  1  1
 17 19  1  0
 19 20  1  0
 20 21  1  0
 21 22  1  6
 21 23  1  0
 23 24  1  6
 24 25  1  6
 24 26  1  0
 26 27  1  1
 26 28  1  0
 28 29  1  6
 28  8  1  0
 28 11  1  0
 23 12  1  0
 21 15  1  0
M  END
>  <MS_ID>  (3876) 
MS4532

>  <SMILES>  (3876) 
C[C@H](CCC(=O)O)[C@H]1CC[C@H]2[C@@H]3CC[C@@H]4C[C@H](O)CC[C@]4(C)[C@H]3[C@@H](O)[C@H](O)[C@]12C

>  <Structure_dimension>  (3876) 
2D

$$$$
MS4534
     RDKit          2D

 31 34  0  0  0  0  0  0  0  0999 V2000
   -4.4567   -1.9601    0.0000 C   0  0  0  0  0  0  0  0  0  0  0  0
   -3.2674   -1.0460    0.0000 C   0  0  0  0  0  0  0  0  0  0  0  0
   -3.4643    0.4410    0.0000 C   0  0  0  0  0  0  0  0  0  0  0  0
   -4.8505    1.0140    0.0000 C   0  0  0  0  0  0  0  0  0  0  0  0
   -5.0474    2.5010    0.0000 C   0  0  0  0  0  0  0  0  0  0  0  0
   -3.8581    3.4150    0.0000 O   0  0  0  0  0  0  0  0  0  0  0  0
   -6.4337    3.0740    0.0000 O   0  0  0  0  0  0  0  0  0  0  0  0
   -6.0399    0.0999    0.0000 C   0  0  0  0  0  0  0  0  0  0  0  0
   -5.8430   -1.3871    0.0000 O   0  0  0  0  0  0  0  0  0  0  0  0
   -7.4261    0.6729    0.0000 O   0  0  0  0  0  0  0  0  0  0  0  0
   -1.8811   -1.6190    0.0000 C   0  0  0  0  0  0  0  0  0  0  0  0
   -1.5298   -3.0773    0.0000 C   0  0  0  0  0  0  0  0  0  0  0  0
   -0.0344   -3.1939    0.0000 C   0  0  0  0  0  0  0  0  0  0  0  0
    0.5386   -1.8076    0.0000 C   0  0  0  0  0  0  0  0  0  0  0  0
    1.9522   -1.3059    0.0000 C   0  0  0  0  0  0  0  0  0  0  0  0
    3.0935   -2.2792    0.0000 C   0  0  0  0  0  0  0  0  0  0  0  0
    2.8213   -3.7543    0.0000 O   0  0  0  0  0  0  0  0  0  0  0  0
    4.5071   -1.7774    0.0000 C   0  0  0  0  0  0  0  0  0  0  0  0
    4.7794   -0.3023    0.0000 C   0  0  0  0  0  0  0  0  0  0  0  0
    6.1929    0.1995    0.0000 C   0  0  0  0  0  0  0  0  0  0  0  0
    6.4652    1.6746    0.0000 C   0  0  0  0  0  0  0  0  0  0  0  0
    7.8788    2.1763    0.0000 O   0  0  0  0  0  0  0  0  0  0  0  0
    5.3238    2.6479    0.0000 C   0  0  0  0  0  0  0  0  0  0  0  0
    3.9103    2.1461    0.0000 C   0  0  0  0  0  0  0  0  0  0  0  0
    3.6380    0.6710    0.0000 C   0  0  0  0  0  0  0  0  0  0  0  0
    2.4967    1.6443    0.0000 C   0  0  0  0  0  0  0  0  0  0  0  0
    2.2244    0.1692    0.0000 C   0  0  0  0  0  0  0  0  0  0  0  0
    1.0831    1.1425    0.0000 C   0  0  0  0  0  0  0  0  0  0  0  0
   -0.3305    0.6408    0.0000 C   0  0  0  0  0  0  0  0  0  0  0  0
   -0.6027   -0.8343    0.0000 C   0  0  0  0  0  0  0  0  0  0  0  0
   -1.8396    0.0144    0.0000 C   0  0  0  0  0  0  0  0  0  0  0  0
  2  1  1  6
  2  3  1  0
  3  4  1  0
  4  5  1  0
  5  6  2  0
  5  7  1  0
  4  8  1  0
  8  9  2  0
  8 10  1  0
  2 11  1  0
 11 12  1  6
 12 13  1  0
 14 13  1  6
 14 15  1  0
 15 16  1  1
 16 17  1  1
 16 18  1  0
 19 18  1  1
 19 20  1  0
 20 21  1  0
 21 22  1  1
 21 23  1  0
 23 24  1  0
 24 25  1  0
 25 26  1  6
 25 27  1  0
 27 28  1  6
 28 29  1  0
 29 30  1  0
 30 31  1  6
 30 11  1  0
 30 14  1  0
 27 15  1  0
 25 19  1  0
M  END
>  <MS_ID>  (3877) 
MS4534

>  <SMILES>  (3877) 
C[C@H](CC(C(=O)O)C(=O)O)[C@H]1CC[C@H]2[C@@H]3[C@H](O)C[C@@H]4C[C@H](O)CC[C@]4(C)[C@H]3CC[C@]12C

>  <Structure_dimension>  (3877) 
2D

$$$$
MS4536
     RDKit          2D

 30 33  0  0  0  0  0  0  0  0999 V2000
   -3.4828   -3.5922    0.0000 C   0  0  0  0  0  0  0  0  0  0  0  0
   -2.5481   -2.4190    0.0000 C   0  0  0  0  0  0  0  0  0  0  0  0
   -3.0967   -1.0230    0.0000 C   0  0  0  0  0  0  0  0  0  0  0  0
   -4.5801   -0.8000    0.0000 C   0  0  0  0  0  0  0  0  0  0  0  0
   -5.1287    0.5960    0.0000 C   0  0  0  0  0  0  0  0  0  0  0  0
   -4.1940    1.7692    0.0000 O   0  0  0  0  0  0  0  0  0  0  0  0
   -6.6120    0.8190    0.0000 N   0  0  0  0  0  0  0  0  0  0  0  0
   -7.1606    2.2150    0.0000 C   0  0  0  0  0  0  0  0  0  0  0  0
   -8.6440    2.4379    0.0000 C   0  0  0  0  0  0  0  0  0  0  0  0
   -9.1926    3.8340    0.0000 S   0  0  0  0  0  0  0  0  0  0  0  0
   -1.0648   -2.6420    0.0000 C   0  0  0  0  0  0  0  0  0  0  0  0
   -0.3732   -3.9730    0.0000 C   0  0  0  0  0  0  0  0  0  0  0  0
    1.1064   -3.7267    0.0000 C   0  0  0  0  0  0  0  0  0  0  0  0
    1.3293   -2.2433    0.0000 C   0  0  0  0  0  0  0  0  0  0  0  0
    2.5808   -1.4164    0.0000 C   0  0  0  0  0  0  0  0  0  0  0  0
    3.9227   -2.0868    0.0000 C   0  0  0  0  0  0  0  0  0  0  0  0
    5.1742   -1.2599    0.0000 C   0  0  0  0  0  0  0  0  0  0  0  0
    5.0838    0.2373    0.0000 C   0  0  0  0  0  0  0  0  0  0  0  0
    6.3353    1.0642    0.0000 C   0  0  0  0  0  0  0  0  0  0  0  0
    6.2450    2.5615    0.0000 C   0  0  0  0  0  0  0  0  0  0  0  0
    7.4965    3.3884    0.0000 O   0  0  0  0  0  0  0  0  0  0  0  0
    4.9031    3.2319    0.0000 C   0  0  0  0  0  0  0  0  0  0  0  0
    3.6516    2.4050    0.0000 C   0  0  0  0  0  0  0  0  0  0  0  0
    3.7420    0.9077    0.0000 C   0  0  0  0  0  0  0  0  0  0  0  0
    2.4001    1.5781    0.0000 C   0  0  0  0  0  0  0  0  0  0  0  0
    2.4905    0.0808    0.0000 C   0  0  0  0  0  0  0  0  0  0  0  0
    1.1486    0.7512    0.0000 C   0  0  0  0  0  0  0  0  0  0  0  0
   -0.1029   -0.0757    0.0000 C   0  0  0  0  0  0  0  0  0  0  0  0
   -0.0125   -1.5729    0.0000 C   0  0  0  0  0  0  0  0  0  0  0  0
   -1.4171   -1.0465    0.0000 C   0  0  0  0  0  0  0  0  0  0  0  0
  2  1  1  6
  2  3  1  0
  3  4  1  0
  4  5  1  0
  5  6  2  0
  5  7  1  0
  7  8  1  0
  8  9  1  0
  9 10  1  0
  2 11  1  0
 11 12  1  6
 12 13  1  0
 14 13  1  6
 14 15  1  0
 15 16  1  1
 16 17  1  0
 18 17  1  1
 18 19  1  0
 19 20  1  0
 20 21  1  1
 20 22  1  0
 22 23  1  0
 23 24  1  0
 24 25  1  6
 24 26  1  0
 26 27  1  6
 27 28  1  0
 28 29  1  0
 29 30  1  6
 29 11  1  0
 29 14  1  0
 26 15  1  0
 24 18  1  0
M  END
>  <MS_ID>  (3878) 
MS4536

>  <SMILES>  (3878) 
C[C@H](CCC(=O)NCCS)[C@H]1CC[C@H]2[C@@H]3CC[C@@H]4C[C@H](O)CC[C@]4(C)[C@H]3CC[C@]12C

>  <Structure_dimension>  (3878) 
2D

$$$$
MS4538
     RDKit          2D

 26 29  0  0  0  0  0  0  0  0999 V2000
   -6.8678    2.7447    0.0000 C   0  0  0  0  0  0  0  0  0  0  0  0
   -5.4619    2.2219    0.0000 C   0  0  0  0  0  0  0  0  0  0  0  0
   -4.3062    3.1780    0.0000 O   0  0  0  0  0  0  0  0  0  0  0  0
   -5.2117    0.7429    0.0000 C   0  0  0  0  0  0  0  0  0  0  0  0
   -3.8058    0.2201    0.0000 C   0  0  0  0  0  0  0  0  0  0  0  0
   -3.5555   -1.2589    0.0000 C   0  0  0  0  0  0  0  0  0  0  0  0
   -4.7113   -2.2151    0.0000 C   0  0  0  0  0  0  0  0  0  0  0  0
   -2.1496   -1.7817    0.0000 C   0  0  0  0  0  0  0  0  0  0  0  0
   -1.7462   -3.2265    0.0000 C   0  0  0  0  0  0  0  0  0  0  0  0
   -0.2475   -3.2892    0.0000 C   0  0  0  0  0  0  0  0  0  0  0  0
    0.2753   -1.8833    0.0000 C   0  0  0  0  0  0  0  0  0  0  0  0
    1.6700   -1.3310    0.0000 C   0  0  0  0  0  0  0  0  0  0  0  0
    2.8455   -2.2627    0.0000 C   0  0  0  0  0  0  0  0  0  0  0  0
    4.2402   -1.7105    0.0000 C   0  0  0  0  0  0  0  0  0  0  0  0
    4.4593   -0.2265    0.0000 C   0  0  0  0  0  0  0  0  0  0  0  0
    5.8539    0.3257    0.0000 C   0  0  0  0  0  0  0  0  0  0  0  0
    6.0730    1.8096    0.0000 C   0  0  0  0  0  0  0  0  0  0  0  0
    4.8974    2.7413    0.0000 C   0  0  0  0  0  0  0  0  0  0  0  0
    3.5027    2.1891    0.0000 C   0  0  0  0  0  0  0  0  0  0  0  0
    3.2837    0.7051    0.0000 C   0  0  0  0  0  0  0  0  0  0  0  0
    2.1081    1.6368    0.0000 C   0  0  0  0  0  0  0  0  0  0  0  0
    1.8890    0.1529    0.0000 C   0  0  0  0  0  0  0  0  0  0  0  0
    0.7135    1.0846    0.0000 C   0  0  0  0  0  0  0  0  0  0  0  0
   -0.6812    0.5323    0.0000 C   0  0  0  0  0  0  0  0  0  0  0  0
   -0.9002   -0.9516    0.0000 C   0  0  0  0  0  0  0  0  0  0  0  0
   -2.1668   -0.1479    0.0000 C   0  0  0  0  0  0  0  0  0  0  0  0
  1  2  1  0
  2  3  2  0
  2  4  1  0
  4  5  1  0
  5  6  1  0
  6  7  1  6
  6  8  1  0
  8  9  1  6
  9 10  1  0
 11 10  1  6
 11 12  1  0
 12 13  1  1
 13 14  1  0
 15 14  1  6
 15 16  1  0
 16 17  1  0
 17 18  1  0
 18 19  1  0
 19 20  1  0
 20 21  1  6
 20 22  1  0
 22 23  1  6
 23 24  1  0
 24 25  1  0
 25 26  1  6
 25  8  1  0
 25 11  1  0
 22 12  1  0
 20 15  1  0
M  END
>  <MS_ID>  (3879) 
MS4538

>  <SMILES>  (3879) 
CC(=O)CC[C@@H](C)[C@H]1CC[C@H]2[C@@H]3CC[C@H]4CCCC[C@]4(C)[C@H]3CC[C@]12C

>  <Structure_dimension>  (3879) 
2D

$$$$
MS4540
     RDKit          2D

 28 31  0  0  0  0  0  0  0  0999 V2000
   -5.1427   -2.0937    0.0000 C   0  0  0  0  0  0  0  0  0  0  0  0
   -3.9329   -1.2068    0.0000 C   0  0  0  0  0  0  0  0  0  0  0  0
   -4.0961    0.2842    0.0000 C   0  0  0  0  0  0  0  0  0  0  0  0
   -5.4691    0.8885    0.0000 C   0  0  0  0  0  0  0  0  0  0  0  0
   -5.6323    2.3796    0.0000 C   0  0  0  0  0  0  0  0  0  0  0  0
   -4.4225    3.2664    0.0000 O   0  0  0  0  0  0  0  0  0  0  0  0
   -7.0052    2.9838    0.0000 O   0  0  0  0  0  0  0  0  0  0  0  0
   -2.5600   -1.8111    0.0000 C   0  0  0  0  0  0  0  0  0  0  0  0
   -2.2418   -3.2769    0.0000 C   0  0  0  0  0  0  0  0  0  0  0  0
   -0.7494   -3.4273    0.0000 C   0  0  0  0  0  0  0  0  0  0  0  0
   -0.1452   -2.0544    0.0000 C   0  0  0  0  0  0  0  0  0  0  0  0
    1.2794   -1.5847    0.0000 C   0  0  0  0  0  0  0  0  0  0  0  0
    2.3984   -2.5836    0.0000 C   0  0  0  0  0  0  0  0  0  0  0  0
    3.8230   -2.1140    0.0000 C   0  0  0  0  0  0  0  0  0  0  0  0
    4.1286   -0.6454    0.0000 C   0  0  0  0  0  0  0  0  0  0  0  0
    5.5531   -0.1758    0.0000 C   0  0  0  0  0  0  0  0  0  0  0  0
    5.8587    1.2928    0.0000 C   0  0  0  0  0  0  0  0  0  0  0  0
    7.2833    1.7624    0.0000 O   0  0  0  0  0  0  0  0  0  0  0  0
    4.7397    2.2917    0.0000 C   0  0  0  0  0  0  0  0  0  0  0  0
    3.3151    1.8220    0.0000 C   0  0  0  0  0  0  0  0  0  0  0  0
    3.0095    0.3535    0.0000 C   0  0  0  0  0  0  0  0  0  0  0  0
    1.8905    1.3524    0.0000 C   0  0  0  0  0  0  0  0  0  0  0  0
    1.5850   -0.1162    0.0000 C   0  0  0  0  0  0  0  0  0  0  0  0
    0.4659    0.8827    0.0000 C   0  0  0  0  0  0  0  0  0  0  0  0
    0.7715    2.3513    0.0000 O   0  0  0  0  0  0  0  0  0  0  0  0
   -0.9586    0.4131    0.0000 C   0  0  0  0  0  0  0  0  0  0  0  0
   -1.2642   -1.0555    0.0000 C   0  0  0  0  0  0  0  0  0  0  0  0
   -2.4815   -0.1790    0.0000 C   0  0  0  0  0  0  0  0  0  0  0  0
  2  1  1  6
  2  3  1  0
  3  4  1  0
  4  5  1  0
  5  6  2  0
  5  7  1  0
  2  8  1  0
  8  9  1  6
  9 10  1  0
 11 10  1  6
 11 12  1  0
 12 13  1  1
 13 14  1  0
 15 14  1  1
 15 16  1  0
 16 17  1  0
 17 18  1  6
 17 19  1  0
 19 20  1  0
 20 21  1  0
 21 22  1  6
 21 23  1  0
 23 24  1  6
 24 25  2  0
 24 26  1  0
 26 27  1  0
 27 28  1  6
 27  8  1  0
 27 11  1  0
 23 12  1  0
 21 15  1  0
M  END
>  <MS_ID>  (3880) 
MS4540

>  <SMILES>  (3880) 
C[C@H](CCC(=O)O)[C@H]1CC[C@H]2[C@@H]3CC[C@@H]4C[C@@H](O)CC[C@]4(C)[C@H]3C(=O)C[C@]12C

>  <Structure_dimension>  (3880) 
2D

$$$$
MS4541
     RDKit          2D

 31 34  0  0  0  0  0  0  0  0999 V2000
   -4.3594   -2.0479    0.0000 C   0  0  0  0  0  0  0  0  0  0  0  0
   -3.1523   -1.1574    0.0000 C   0  0  0  0  0  0  0  0  0  0  0  0
   -3.3199    0.3332    0.0000 C   0  0  0  0  0  0  0  0  0  0  0  0
   -4.6946    0.9333    0.0000 C   0  0  0  0  0  0  0  0  0  0  0  0
   -4.8622    2.4239    0.0000 C   0  0  0  0  0  0  0  0  0  0  0  0
   -3.6551    3.3144    0.0000 O   0  0  0  0  0  0  0  0  0  0  0  0
   -6.2369    3.0241    0.0000 O   0  0  0  0  0  0  0  0  0  0  0  0
   -5.9017    0.0429    0.0000 C   0  0  0  0  0  0  0  0  0  0  0  0
   -5.7341   -1.4477    0.0000 O   0  0  0  0  0  0  0  0  0  0  0  0
   -7.2764    0.6430    0.0000 O   0  0  0  0  0  0  0  0  0  0  0  0
   -1.7776   -1.7576    0.0000 C   0  0  0  0  0  0  0  0  0  0  0  0
   -1.4551   -3.2225    0.0000 C   0  0  0  0  0  0  0  0  0  0  0  0
    0.0378   -3.3684    0.0000 C   0  0  0  0  0  0  0  0  0  0  0  0
    0.6380   -1.9937    0.0000 C   0  0  0  0  0  0  0  0  0  0  0  0
    2.0612   -1.5199    0.0000 C   0  0  0  0  0  0  0  0  0  0  0  0
    3.1831   -2.5155    0.0000 C   0  0  0  0  0  0  0  0  0  0  0  0
    4.6063   -2.0416    0.0000 C   0  0  0  0  0  0  0  0  0  0  0  0
    4.9075   -0.5721    0.0000 C   0  0  0  0  0  0  0  0  0  0  0  0
    6.3307   -0.0983    0.0000 C   0  0  0  0  0  0  0  0  0  0  0  0
    6.6319    1.3712    0.0000 C   0  0  0  0  0  0  0  0  0  0  0  0
    8.0551    1.8450    0.0000 O   0  0  0  0  0  0  0  0  0  0  0  0
    5.5100    2.3667    0.0000 C   0  0  0  0  0  0  0  0  0  0  0  0
    4.0868    1.8929    0.0000 C   0  0  0  0  0  0  0  0  0  0  0  0
    3.7856    0.4234    0.0000 C   0  0  0  0  0  0  0  0  0  0  0  0
    2.6636    1.4190    0.0000 C   0  0  0  0  0  0  0  0  0  0  0  0
    2.3624   -0.0504    0.0000 C   0  0  0  0  0  0  0  0  0  0  0  0
    1.2404    0.9452    0.0000 C   0  0  0  0  0  0  0  0  0  0  0  0
   -0.1828    0.4713    0.0000 C   0  0  0  0  0  0  0  0  0  0  0  0
   -1.3047    1.4669    0.0000 O   0  0  0  0  0  0  0  0  0  0  0  0
   -0.4840   -0.9982    0.0000 C   0  0  0  0  0  0  0  0  0  0  0  0
   -1.7039   -0.1253    0.0000 C   0  0  0  0  0  0  0  0  0  0  0  0
  2  1  1  6
  2  3  1  0
  3  4  1  0
  4  5  1  0
  5  6  2  0
  5  7  1  0
  4  8  1  0
  8  9  2  0
  8 10  1  0
  2 11  1  0
 11 12  1  6
 12 13  1  0
 14 13  1  6
 14 15  1  0
 15 16  1  1
 16 17  1  0
 18 17  1  1
 18 19  1  0
 19 20  1  0
 20 21  1  1
 20 22  1  0
 22 23  1  0
 23 24  1  0
 24 25  1  6
 24 26  1  0
 26 27  1  6
 27 28  1  0
 28 29  1  1
 28 30  1  0
 30 31  1  6
 30 11  1  0
 30 14  1  0
 26 15  1  0
 24 18  1  0
M  END
>  <MS_ID>  (3881) 
MS4541

>  <SMILES>  (3881) 
C[C@H](CC(C(=O)O)C(=O)O)[C@H]1CC[C@H]2[C@@H]3CC[C@@H]4C[C@H](O)CC[C@]4(C)[C@H]3C[C@H](O)[C@]12C

>  <Structure_dimension>  (3881) 
2D

$$$$
MS4543
     RDKit          2D

 28 31  0  0  0  0  0  0  0  0999 V2000
   -5.1936   -2.1523    0.0000 C   0  0  0  0  0  0  0  0  0  0  0  0
   -4.0282   -1.2079    0.0000 C   0  0  0  0  0  0  0  0  0  0  0  0
   -4.2633    0.2735    0.0000 C   0  0  0  0  0  0  0  0  0  0  0  0
   -5.6638    0.8107    0.0000 C   0  0  0  0  0  0  0  0  0  0  0  0
   -5.8990    2.2921    0.0000 C   0  0  0  0  0  0  0  0  0  0  0  0
   -4.7335    3.2365    0.0000 O   0  0  0  0  0  0  0  0  0  0  0  0
   -7.2995    2.8292    0.0000 O   0  0  0  0  0  0  0  0  0  0  0  0
   -2.6276   -1.7450    0.0000 C   0  0  0  0  0  0  0  0  0  0  0  0
   -2.2390   -3.1938    0.0000 C   0  0  0  0  0  0  0  0  0  0  0  0
   -0.7410   -3.2718    0.0000 C   0  0  0  0  0  0  0  0  0  0  0  0
   -0.2039   -1.8713    0.0000 C   0  0  0  0  0  0  0  0  0  0  0  0
    1.1963   -1.3333    0.0000 C   0  0  0  0  0  0  0  0  0  0  0  0
    2.3623   -2.2769    0.0000 C   0  0  0  0  0  0  0  0  0  0  0  0
    3.7625   -1.7389    0.0000 C   0  0  0  0  0  0  0  0  0  0  0  0
    4.9286   -2.6825    0.0000 O   0  0  0  0  0  0  0  0  0  0  0  0
    3.9967   -0.2573    0.0000 C   0  0  0  0  0  0  0  0  0  0  0  0
    5.3969    0.2807    0.0000 C   0  0  0  0  0  0  0  0  0  0  0  0
    5.6311    1.7623    0.0000 C   0  0  0  0  0  0  0  0  0  0  0  0
    7.0313    2.3003    0.0000 O   0  0  0  0  0  0  0  0  0  0  0  0
    4.4651    2.7059    0.0000 C   0  0  0  0  0  0  0  0  0  0  0  0
    3.0649    2.1679    0.0000 C   0  0  0  0  0  0  0  0  0  0  0  0
    2.8307    0.6863    0.0000 C   0  0  0  0  0  0  0  0  0  0  0  0
    1.6647    1.6299    0.0000 C   0  0  0  0  0  0  0  0  0  0  0  0
    1.4305    0.1483    0.0000 C   0  0  0  0  0  0  0  0  0  0  0  0
    0.2645    1.0919    0.0000 C   0  0  0  0  0  0  0  0  0  0  0  0
   -1.1357    0.5539    0.0000 C   0  0  0  0  0  0  0  0  0  0  0  0
   -1.3699   -0.9277    0.0000 C   0  0  0  0  0  0  0  0  0  0  0  0
   -2.6282   -0.1111    0.0000 C   0  0  0  0  0  0  0  0  0  0  0  0
  2  1  1  6
  2  3  1  0
  3  4  1  0
  4  5  1  0
  5  6  2  0
  5  7  1  0
  2  8  1  0
  8  9  1  6
  9 10  1  0
 11 10  1  6
 11 12  1  0
 12 13  1  1
 13 14  1  0
 14 15  1  6
 14 16  1  0
 16 17  1  1
 17 18  1  0
 18 19  2  0
 18 20  1  0
 20 21  1  0
 21 22  1  0
 22 23  1  6
 22 24  1  0
 24 25  1  6
 25 26  1  0
 26 27  1  0
 27 28  1  6
 27  8  1  0
 27 11  1  0
 24 12  1  0
 22 16  1  0
M  END
>  <MS_ID>  (3882) 
MS4543

>  <SMILES>  (3882) 
C[C@H](CCC(=O)O)[C@H]1CC[C@H]2[C@@H]3C[C@@H](O)[C@@H]4CC(=O)CC[C@]4(C)[C@H]3CC[C@]12C

>  <Structure_dimension>  (3882) 
2D

$$$$
MS4545
     RDKit          2D

 37 40  0  0  0  0  0  0  0  0999 V2000
   -1.3003   -4.3171    0.0000 C   0  0  0  0  0  0  0  0  0  0  0  0
   -0.6062   -2.9873    0.0000 C   0  0  0  0  0  0  0  0  0  0  0  0
   -1.4108   -1.7213    0.0000 C   0  0  0  0  0  0  0  0  0  0  0  0
   -2.9095   -1.7852    0.0000 C   0  0  0  0  0  0  0  0  0  0  0  0
   -3.7141   -0.5192    0.0000 C   0  0  0  0  0  0  0  0  0  0  0  0
   -3.0200    0.8106    0.0000 O   0  0  0  0  0  0  0  0  0  0  0  0
   -5.2127   -0.5830    0.0000 O   0  0  0  0  0  0  0  0  0  0  0  0
   -6.0173    0.6829    0.0000 C   0  0  0  0  0  0  0  0  0  0  0  0
   -7.5160    0.6191    0.0000 C   0  0  0  0  0  0  0  0  0  0  0  0
   -8.2100   -0.7107    0.0000 O   0  0  0  0  0  0  0  0  0  0  0  0
   -8.3205    1.8850    0.0000 O   0  0  0  0  0  0  0  0  0  0  0  0
   -9.8192    1.8212    0.0000 C   0  0  0  0  0  0  0  0  0  0  0  0
   -9.8830    3.3199    0.0000 C   0  0  0  0  0  0  0  0  0  0  0  0
   -9.7554    0.3226    0.0000 C   0  0  0  0  0  0  0  0  0  0  0  0
  -11.3178    1.7574    0.0000 C   0  0  0  0  0  0  0  0  0  0  0  0
    0.8924   -2.9235    0.0000 C   0  0  0  0  0  0  0  0  0  0  0  0
    1.8249   -4.0984    0.0000 C   0  0  0  0  0  0  0  0  0  0  0  0
    3.2305   -3.5746    0.0000 C   0  0  0  0  0  0  0  0  0  0  0  0
    3.1667   -2.0759    0.0000 C   0  0  0  0  0  0  0  0  0  0  0  0
    4.2377   -1.0257    0.0000 C   0  0  0  0  0  0  0  0  0  0  0  0
    5.6827   -1.4281    0.0000 C   0  0  0  0  0  0  0  0  0  0  0  0
    6.0567   -2.8808    0.0000 O   0  0  0  0  0  0  0  0  0  0  0  0
    6.7537   -0.3779    0.0000 C   0  0  0  0  0  0  0  0  0  0  0  0
    6.3797    1.0747    0.0000 C   0  0  0  0  0  0  0  0  0  0  0  0
    7.4507    2.1249    0.0000 C   0  0  0  0  0  0  0  0  0  0  0  0
    7.0766    3.5775    0.0000 C   0  0  0  0  0  0  0  0  0  0  0  0
    8.1477    4.6278    0.0000 O   0  0  0  0  0  0  0  0  0  0  0  0
    5.6316    3.9800    0.0000 C   0  0  0  0  0  0  0  0  0  0  0  0
    4.5606    2.9297    0.0000 C   0  0  0  0  0  0  0  0  0  0  0  0
    4.9346    1.4771    0.0000 C   0  0  0  0  0  0  0  0  0  0  0  0
    3.4896    1.8795    0.0000 C   0  0  0  0  0  0  0  0  0  0  0  0
    3.8636    0.4269    0.0000 C   0  0  0  0  0  0  0  0  0  0  0  0
    2.4186    0.8293    0.0000 C   0  0  0  0  0  0  0  0  0  0  0  0
    1.3476   -0.2209    0.0000 C   0  0  0  0  0  0  0  0  0  0  0  0
   -0.0974    0.1815    0.0000 O   0  0  0  0  0  0  0  0  0  0  0  0
    1.7216   -1.6735    0.0000 C   0  0  0  0  0  0  0  0  0  0  0  0
    0.2425   -1.4244    0.0000 C   0  0  0  0  0  0  0  0  0  0  0  0
  2  1  1  6
  2  3  1  0
  3  4  1  0
  4  5  1  0
  5  6  2  0
  5  7  1  0
  7  8  1  0
  8  9  1  0
  9 10  2  0
  9 11  1  0
 11 12  1  0
 12 13  1  0
 12 14  1  0
 12 15  1  0
  2 16  1  0
 16 17  1  6
 17 18  1  0
 19 18  1  6
 19 20  1  0
 20 21  1  1
 21 22  1  1
 21 23  1  0
 24 23  1  1
 24 25  1  0
 25 26  1  0
 26 27  1  1
 26 28  1  0
 28 29  1  0
 29 30  1  0
 30 31  1  6
 30 32  1  0
 32 33  1  6
 33 34  1  0
 34 35  1  1
 34 36  1  0
 36 37  1  6
 36 16  1  0
 36 19  1  0
 32 20  1  0
 30 24  1  0
M  END
>  <MS_ID>  (3883) 
MS4545

>  <SMILES>  (3883) 
C[C@H](CCC(=O)OCC(=O)OC(C)(C)C)[C@H]1CC[C@H]2[C@@H]3[C@H](O)C[C@@H]4C[C@H](O)CC[C@]4(C)[C@H]3C[C@H](O)[C@]12C

>  <Structure_dimension>  (3883) 
2D

$$$$
MS4546
     RDKit          2D

 42 46  0  0  0  0  0  0  0  0999 V2000
   -1.0186   -4.1445    0.0000 C   0  0  0  0  0  0  0  0  0  0  0  0
   -0.2142   -2.8784    0.0000 C   0  0  0  0  0  0  0  0  0  0  0  0
   -0.9085   -1.5488    0.0000 C   0  0  0  0  0  0  0  0  0  0  0  0
   -2.4071   -1.4852    0.0000 C   0  0  0  0  0  0  0  0  0  0  0  0
   -3.1014   -0.1555    0.0000 C   0  0  0  0  0  0  0  0  0  0  0  0
   -2.2970    1.1106    0.0000 O   0  0  0  0  0  0  0  0  0  0  0  0
   -4.6000   -0.0919    0.0000 N   0  0  0  0  0  0  0  0  0  0  0  0
   -5.2943    1.2378    0.0000 C   0  0  0  0  0  0  0  0  0  0  0  0
   -6.7929    1.3014    0.0000 C   0  0  0  0  0  0  0  0  0  0  0  0
   -7.5973    0.0353    0.0000 C   0  0  0  0  0  0  0  0  0  0  0  0
   -6.9031   -1.2944    0.0000 C   0  0  0  0  0  0  0  0  0  0  0  0
   -7.7075   -2.5604    0.0000 C   0  0  0  0  0  0  0  0  0  0  0  0
   -9.2061   -2.4968    0.0000 C   0  0  0  0  0  0  0  0  0  0  0  0
   -9.9004   -1.1672    0.0000 C   0  0  0  0  0  0  0  0  0  0  0  0
   -9.0960    0.0989    0.0000 C   0  0  0  0  0  0  0  0  0  0  0  0
   -4.4899    2.5039    0.0000 C   0  0  0  0  0  0  0  0  0  0  0  0
   -5.1841    3.8335    0.0000 S   0  0  0  0  0  0  0  0  0  0  0  0
   -3.8544    4.5278    0.0000 O   0  0  0  0  0  0  0  0  0  0  0  0
   -6.5138    3.1393    0.0000 O   0  0  0  0  0  0  0  0  0  0  0  0
   -5.8784    5.1632    0.0000 O   0  0  0  0  0  0  0  0  0  0  0  0
    1.2844   -2.9420    0.0000 C   0  0  0  0  0  0  0  0  0  0  0  0
    2.1138   -4.1918    0.0000 C   0  0  0  0  0  0  0  0  0  0  0  0
    3.5588   -3.7892    0.0000 C   0  0  0  0  0  0  0  0  0  0  0  0
    3.6224   -2.2906    0.0000 C   0  0  0  0  0  0  0  0  0  0  0  0
    4.7787   -1.3350    0.0000 C   0  0  0  0  0  0  0  0  0  0  0  0
    6.1843   -1.8586    0.0000 C   0  0  0  0  0  0  0  0  0  0  0  0
    6.4337   -3.3378    0.0000 O   0  0  0  0  0  0  0  0  0  0  0  0
    7.3406   -0.9031    0.0000 C   0  0  0  0  0  0  0  0  0  0  0  0
    7.0912    0.5760    0.0000 C   0  0  0  0  0  0  0  0  0  0  0  0
    8.2475    1.5315    0.0000 C   0  0  0  0  0  0  0  0  0  0  0  0
    7.9981    3.0107    0.0000 C   0  0  0  0  0  0  0  0  0  0  0  0
    9.1544    3.9662    0.0000 O   0  0  0  0  0  0  0  0  0  0  0  0
    6.5925    3.5343    0.0000 C   0  0  0  0  0  0  0  0  0  0  0  0
    5.4362    2.5787    0.0000 C   0  0  0  0  0  0  0  0  0  0  0  0
    5.6856    1.0996    0.0000 C   0  0  0  0  0  0  0  0  0  0  0  0
    4.2799    1.6232    0.0000 C   0  0  0  0  0  0  0  0  0  0  0  0
    4.5293    0.1441    0.0000 C   0  0  0  0  0  0  0  0  0  0  0  0
    3.1237    0.6677    0.0000 C   0  0  0  0  0  0  0  0  0  0  0  0
    1.9674   -0.2879    0.0000 C   0  0  0  0  0  0  0  0  0  0  0  0
    0.5617    0.2357    0.0000 O   0  0  0  0  0  0  0  0  0  0  0  0
    2.2168   -1.7670    0.0000 C   0  0  0  0  0  0  0  0  0  0  0  0
    0.7641   -1.3932    0.0000 C   0  0  0  0  0  0  0  0  0  0  0  0
  2  1  1  6
  2  3  1  0
  3  4  1  0
  4  5  1  0
  5  6  2  0
  5  7  1  0
  7  8  1  0
  8  9  1  1
  9 10  1  0
 10 11  2  0
 11 12  1  0
 12 13  2  0
 13 14  1  0
 14 15  2  0
  8 16  1  0
 16 17  1  0
 17 18  2  0
 17 19  2  0
 17 20  1  0
  2 21  1  0
 21 22  1  6
 22 23  1  0
 24 23  1  6
 24 25  1  0
 25 26  1  1
 26 27  1  1
 26 28  1  0
 29 28  1  1
 29 30  1  0
 30 31  1  0
 31 32  1  1
 31 33  1  0
 33 34  1  0
 34 35  1  0
 35 36  1  6
 35 37  1  0
 37 38  1  6
 38 39  1  0
 39 40  1  1
 39 41  1  0
 41 42  1  6
 15 10  1  0
 41 21  1  0
 41 24  1  0
 37 25  1  0
 35 29  1  0
M  END
>  <MS_ID>  (3884) 
MS4546

>  <SMILES>  (3884) 
C[C@H](CCC(=O)N[C@@H](Cc1ccccc1)CS(=O)(=O)O)[C@H]1CC[C@H]2[C@@H]3[C@H](O)C[C@@H]4C[C@H](O)CC[C@]4(C)[C@H]3C[C@H](O)[C@]12C

>  <Structure_dimension>  (3884) 
2D

$$$$
MS4549
     RDKit          2D

 39 43  0  0  0  0  0  0  0  0999 V2000
   -0.7193   -4.8292    0.0000 C   0  0  0  0  0  0  0  0  0  0  0  0
   -0.1477   -3.4424    0.0000 C   0  0  0  0  0  0  0  0  0  0  0  0
   -1.0630   -2.2540    0.0000 C   0  0  0  0  0  0  0  0  0  0  0  0
   -2.5498   -2.4524    0.0000 C   0  0  0  0  0  0  0  0  0  0  0  0
   -3.4650   -1.2640    0.0000 C   0  0  0  0  0  0  0  0  0  0  0  0
   -2.8935    0.1228    0.0000 O   0  0  0  0  0  0  0  0  0  0  0  0
   -4.9519   -1.4625    0.0000 O   0  0  0  0  0  0  0  0  0  0  0  0
   -5.8671   -0.2741    0.0000 C   0  0  0  0  0  0  0  0  0  0  0  0
   -5.2956    1.1128    0.0000 O   0  0  0  0  0  0  0  0  0  0  0  0
   -6.2108    2.3012    0.0000 C   0  0  0  0  0  0  0  0  0  0  0  0
   -5.6393    3.6880    0.0000 C   0  0  0  0  0  0  0  0  0  0  0  0
   -4.1524    3.8864    0.0000 O   0  0  0  0  0  0  0  0  0  0  0  0
   -7.6976    2.1027    0.0000 C   0  0  0  0  0  0  0  0  0  0  0  0
   -8.6129    3.2911    0.0000 O   0  0  0  0  0  0  0  0  0  0  0  0
   -8.2692    0.7159    0.0000 C   0  0  0  0  0  0  0  0  0  0  0  0
   -9.7560    0.5175    0.0000 O   0  0  0  0  0  0  0  0  0  0  0  0
   -7.3539   -0.4725    0.0000 C   0  0  0  0  0  0  0  0  0  0  0  0
   -7.9255   -1.8593    0.0000 O   0  0  0  0  0  0  0  0  0  0  0  0
    1.3391   -3.2440    0.0000 C   0  0  0  0  0  0  0  0  0  0  0  0
    2.3736   -4.3302    0.0000 C   0  0  0  0  0  0  0  0  0  0  0  0
    3.7263   -3.6820    0.0000 C   0  0  0  0  0  0  0  0  0  0  0  0
    3.5279   -2.1952    0.0000 C   0  0  0  0  0  0  0  0  0  0  0  0
    4.5000   -1.0529    0.0000 C   0  0  0  0  0  0  0  0  0  0  0  0
    5.9754   -1.3236    0.0000 C   0  0  0  0  0  0  0  0  0  0  0  0
    6.4786   -2.7367    0.0000 O   0  0  0  0  0  0  0  0  0  0  0  0
    6.9475   -0.1813    0.0000 C   0  0  0  0  0  0  0  0  0  0  0  0
    6.4443    1.2318    0.0000 C   0  0  0  0  0  0  0  0  0  0  0  0
    7.4164    2.3742    0.0000 C   0  0  0  0  0  0  0  0  0  0  0  0
    6.9132    3.7872    0.0000 C   0  0  0  0  0  0  0  0  0  0  0  0
    7.8853    4.9296    0.0000 O   0  0  0  0  0  0  0  0  0  0  0  0
    5.4378    4.0580    0.0000 C   0  0  0  0  0  0  0  0  0  0  0  0
    4.4657    2.9156    0.0000 C   0  0  0  0  0  0  0  0  0  0  0  0
    4.9689    1.5025    0.0000 C   0  0  0  0  0  0  0  0  0  0  0  0
    3.4936    1.7733    0.0000 C   0  0  0  0  0  0  0  0  0  0  0  0
    3.9968    0.3602    0.0000 C   0  0  0  0  0  0  0  0  0  0  0  0
    2.5214    0.6309    0.0000 C   0  0  0  0  0  0  0  0  0  0  0  0
    1.5493   -0.5114    0.0000 C   0  0  0  0  0  0  0  0  0  0  0  0
    2.0525   -1.9245    0.0000 C   0  0  0  0  0  0  0  0  0  0  0  0
    0.5569   -1.8095    0.0000 C   0  0  0  0  0  0  0  0  0  0  0  0
  2  1  1  6
  2  3  1  0
  3  4  1  0
  4  5  1  0
  5  6  2  0
  5  7  1  0
  8  7  1  1
  8  9  1  0
  9 10  1  0
 10 11  1  1
 11 12  1  0
 10 13  1  0
 13 14  1  1
 13 15  1  0
 15 16  1  1
 15 17  1  0
 17 18  1  6
  2 19  1  0
 19 20  1  6
 20 21  1  0
 22 21  1  6
 22 23  1  0
 23 24  1  1
 24 25  1  6
 24 26  1  0
 27 26  1  1
 27 28  1  0
 28 29  1  0
 29 30  1  1
 29 31  1  0
 31 32  1  0
 32 33  1  0
 33 34  1  6
 33 35  1  0
 35 36  1  6
 36 37  1  0
 37 38  1  0
 38 39  1  6
 17  8  1  0
 38 19  1  0
 38 22  1  0
 35 23  1  0
 33 27  1  0
M  END
>  <MS_ID>  (3885) 
MS4549

>  <SMILES>  (3885) 
C[C@H](CCC(=O)O[C@@H]1O[C@H](CO)[C@H](O)[C@H](O)[C@H]1O)[C@H]1CC[C@H]2[C@@H]3[C@@H](O)C[C@@H]4C[C@H](O)CC[C@]4(C)[C@H]3CC[C@]12C

>  <Structure_dimension>  (3885) 
2D

$$$$
MS4550
     RDKit          2D

 27 30  0  0  0  0  0  0  0  0999 V2000
   -5.4611   -1.7699    0.0000 C   0  0  0  0  0  0  0  0  0  0  0  0
   -4.2513   -0.8831    0.0000 C   0  0  0  0  0  0  0  0  0  0  0  0
   -4.4144    0.6080    0.0000 C   0  0  0  0  0  0  0  0  0  0  0  0
   -5.7872    1.2123    0.0000 C   0  0  0  0  0  0  0  0  0  0  0  0
   -5.9503    2.7034    0.0000 C   0  0  0  0  0  0  0  0  0  0  0  0
   -7.3232    3.3077    0.0000 O   0  0  0  0  0  0  0  0  0  0  0  0
   -2.8784   -1.4875    0.0000 C   0  0  0  0  0  0  0  0  0  0  0  0
   -2.5603   -2.9534    0.0000 C   0  0  0  0  0  0  0  0  0  0  0  0
   -1.0679   -3.1039    0.0000 C   0  0  0  0  0  0  0  0  0  0  0  0
   -0.4636   -1.7310    0.0000 C   0  0  0  0  0  0  0  0  0  0  0  0
    0.9610   -1.2614    0.0000 C   0  0  0  0  0  0  0  0  0  0  0  0
    2.0800   -2.2604    0.0000 C   0  0  0  0  0  0  0  0  0  0  0  0
    3.5046   -1.7909    0.0000 C   0  0  0  0  0  0  0  0  0  0  0  0
    4.6235   -2.7899    0.0000 O   0  0  0  0  0  0  0  0  0  0  0  0
    3.8103   -0.3224    0.0000 C   0  0  0  0  0  0  0  0  0  0  0  0
    5.2349    0.1472    0.0000 C   0  0  0  0  0  0  0  0  0  0  0  0
    5.5406    1.6157    0.0000 C   0  0  0  0  0  0  0  0  0  0  0  0
    6.9652    2.0852    0.0000 O   0  0  0  0  0  0  0  0  0  0  0  0
    4.4216    2.6147    0.0000 C   0  0  0  0  0  0  0  0  0  0  0  0
    2.9970    2.1451    0.0000 C   0  0  0  0  0  0  0  0  0  0  0  0
    2.6913    0.6766    0.0000 C   0  0  0  0  0  0  0  0  0  0  0  0
    1.5724    1.6756    0.0000 C   0  0  0  0  0  0  0  0  0  0  0  0
    1.2667    0.2071    0.0000 C   0  0  0  0  0  0  0  0  0  0  0  0
    0.1478    1.2061    0.0000 C   0  0  0  0  0  0  0  0  0  0  0  0
   -1.2769    0.7365    0.0000 C   0  0  0  0  0  0  0  0  0  0  0  0
   -1.5825   -0.7320    0.0000 C   0  0  0  0  0  0  0  0  0  0  0  0
   -2.7998    0.1446    0.0000 C   0  0  0  0  0  0  0  0  0  0  0  0
  2  1  1  6
  2  3  1  0
  3  4  1  0
  4  5  1  0
  5  6  2  0
  2  7  1  0
  7  8  1  6
  8  9  1  0
 10  9  1  6
 10 11  1  0
 11 12  1  1
 12 13  1  0
 13 14  1  1
 13 15  1  0
 15 16  1  6
 16 17  1  0
 17 18  1  6
 17 19  1  0
 19 20  1  0
 20 21  1  0
 21 22  1  6
 21 23  1  0
 23 24  1  6
 24 25  1  0
 25 26  1  0
 26 27  1  6
 26  7  1  0
 26 10  1  0
 23 11  1  0
 21 15  1  0
M  END
>  <MS_ID>  (3886) 
MS4550

>  <SMILES>  (3886) 
C[C@H](CCC=O)[C@H]1CC[C@H]2[C@@H]3C[C@H](O)[C@H]4C[C@@H](O)CC[C@]4(C)[C@H]3CC[C@]12C

>  <Structure_dimension>  (3886) 
2D

$$$$
MS4552
     RDKit          2D

 32 35  0  0  0  0  0  0  0  0999 V2000
   -3.0592   -3.7169    0.0000 C   0  0  0  0  0  0  0  0  0  0  0  0
   -2.1499   -2.5239    0.0000 C   0  0  0  0  0  0  0  0  0  0  0  0
   -2.7284   -1.1399    0.0000 C   0  0  0  0  0  0  0  0  0  0  0  0
   -4.2162   -0.9489    0.0000 C   0  0  0  0  0  0  0  0  0  0  0  0
   -4.7946    0.4350    0.0000 C   0  0  0  0  0  0  0  0  0  0  0  0
   -3.8853    1.6280    0.0000 O   0  0  0  0  0  0  0  0  0  0  0  0
   -6.2824    0.6260    0.0000 N   0  0  0  0  0  0  0  0  0  0  0  0
   -6.8609    2.0100    0.0000 C   0  0  0  0  0  0  0  0  0  0  0  0
   -8.3487    2.2010    0.0000 C   0  0  0  0  0  0  0  0  0  0  0  0
   -9.2580    1.0080    0.0000 O   0  0  0  0  0  0  0  0  0  0  0  0
   -8.9272    3.5850    0.0000 O   0  0  0  0  0  0  0  0  0  0  0  0
   -0.6621   -2.7149    0.0000 C   0  0  0  0  0  0  0  0  0  0  0  0
    0.0579   -4.0308    0.0000 C   0  0  0  0  0  0  0  0  0  0  0  0
    1.5319   -3.7527    0.0000 C   0  0  0  0  0  0  0  0  0  0  0  0
    1.7229   -2.2649    0.0000 C   0  0  0  0  0  0  0  0  0  0  0  0
    2.9563   -1.4114    0.0000 C   0  0  0  0  0  0  0  0  0  0  0  0
    4.3123   -2.0528    0.0000 C   0  0  0  0  0  0  0  0  0  0  0  0
    5.5457   -1.1992    0.0000 C   0  0  0  0  0  0  0  0  0  0  0  0
    5.4232    0.2958    0.0000 C   0  0  0  0  0  0  0  0  0  0  0  0
    6.6567    1.1494    0.0000 C   0  0  0  0  0  0  0  0  0  0  0  0
    6.5342    2.6444    0.0000 C   0  0  0  0  0  0  0  0  0  0  0  0
    7.7676    3.4980    0.0000 O   0  0  0  0  0  0  0  0  0  0  0  0
    5.1782    3.2858    0.0000 C   0  0  0  0  0  0  0  0  0  0  0  0
    3.9448    2.4322    0.0000 C   0  0  0  0  0  0  0  0  0  0  0  0
    4.0673    0.9372    0.0000 C   0  0  0  0  0  0  0  0  0  0  0  0
    2.7113    1.5786    0.0000 C   0  0  0  0  0  0  0  0  0  0  0  0
    2.8338    0.0836    0.0000 C   0  0  0  0  0  0  0  0  0  0  0  0
    1.4779    0.7250    0.0000 C   0  0  0  0  0  0  0  0  0  0  0  0
    0.2444   -0.1285    0.0000 C   0  0  0  0  0  0  0  0  0  0  0  0
   -1.1115    0.5129    0.0000 O   0  0  0  0  0  0  0  0  0  0  0  0
    0.3669   -1.6235    0.0000 C   0  0  0  0  0  0  0  0  0  0  0  0
   -1.0486   -1.1274    0.0000 C   0  0  0  0  0  0  0  0  0  0  0  0
  2  1  1  6
  2  3  1  0
  3  4  1  0
  4  5  1  0
  5  6  2  0
  5  7  1  0
  7  8  1  0
  8  9  1  0
  9 10  2  0
  9 11  1  0
  2 12  1  0
 12 13  1  6
 13 14  1  0
 15 14  1  6
 15 16  1  0
 16 17  1  1
 17 18  1  0
 19 18  1  1
 19 20  1  0
 20 21  1  0
 21 22  1  1
 21 23  1  0
 23 24  1  0
 24 25  1  0
 25 26  1  6
 25 27  1  0
 27 28  1  6
 28 29  1  0
 29 30  1  1
 29 31  1  0
 31 32  1  1
 31 12  1  0
 31 15  1  0
 27 16  1  0
 25 19  1  0
M  END
>  <MS_ID>  (3887) 
MS4552

>  <SMILES>  (3887) 
C[C@H](CCC(=O)NCC(=O)O)[C@H]1CC[C@H]2[C@@H]3CC[C@@H]4C[C@H](O)CC[C@]4(C)[C@H]3C[C@H](O)[C@@]12C

>  <Structure_dimension>  (3887) 
2D

$$$$
MS4554
     RDKit          2D

 30 33  0  0  0  0  0  0  0  0999 V2000
   -7.7754    3.4718    0.0000 C   0  0  0  0  0  0  0  0  0  0  0  0
   -7.3815    2.0245    0.0000 O   0  0  0  0  0  0  0  0  0  0  0  0
   -5.9311    1.6420    0.0000 C   0  0  0  0  0  0  0  0  0  0  0  0
   -4.8746    2.7068    0.0000 O   0  0  0  0  0  0  0  0  0  0  0  0
   -5.5371    0.1946    0.0000 C   0  0  0  0  0  0  0  0  0  0  0  0
   -4.0867   -0.1879    0.0000 C   0  0  0  0  0  0  0  0  0  0  0  0
   -3.6928   -1.6352    0.0000 C   0  0  0  0  0  0  0  0  0  0  0  0
   -4.7493   -2.7001    0.0000 C   0  0  0  0  0  0  0  0  0  0  0  0
   -2.2424   -2.0177    0.0000 C   0  0  0  0  0  0  0  0  0  0  0  0
   -1.6993   -3.4160    0.0000 C   0  0  0  0  0  0  0  0  0  0  0  0
   -0.2017   -3.3316    0.0000 C   0  0  0  0  0  0  0  0  0  0  0  0
    0.1808   -1.8812    0.0000 C   0  0  0  0  0  0  0  0  0  0  0  0
    1.5146   -1.1949    0.0000 C   0  0  0  0  0  0  0  0  0  0  0  0
    2.7759   -2.0069    0.0000 C   0  0  0  0  0  0  0  0  0  0  0  0
    2.7033   -3.5051    0.0000 O   0  0  0  0  0  0  0  0  0  0  0  0
    4.1097   -1.3206    0.0000 C   0  0  0  0  0  0  0  0  0  0  0  0
    5.3709   -2.1326    0.0000 O   0  0  0  0  0  0  0  0  0  0  0  0
    4.1823    0.1776    0.0000 C   0  0  0  0  0  0  0  0  0  0  0  0
    5.5161    0.8639    0.0000 C   0  0  0  0  0  0  0  0  0  0  0  0
    5.5887    2.3621    0.0000 C   0  0  0  0  0  0  0  0  0  0  0  0
    6.9225    3.0484    0.0000 O   0  0  0  0  0  0  0  0  0  0  0  0
    4.3274    3.1741    0.0000 C   0  0  0  0  0  0  0  0  0  0  0  0
    2.9936    2.4878    0.0000 C   0  0  0  0  0  0  0  0  0  0  0  0
    2.9210    0.9896    0.0000 C   0  0  0  0  0  0  0  0  0  0  0  0
    1.6598    1.8016    0.0000 C   0  0  0  0  0  0  0  0  0  0  0  0
    1.5872    0.3033    0.0000 C   0  0  0  0  0  0  0  0  0  0  0  0
    0.3260    1.1153    0.0000 C   0  0  0  0  0  0  0  0  0  0  0  0
   -1.0078    0.4291    0.0000 C   0  0  0  0  0  0  0  0  0  0  0  0
   -1.0804   -1.0692    0.0000 C   0  0  0  0  0  0  0  0  0  0  0  0
   -2.4196   -0.3935    0.0000 C   0  0  0  0  0  0  0  0  0  0  0  0
  1  2  1  0
  2  3  1  0
  3  4  2  0
  3  5  1  0
  5  6  1  0
  6  7  1  0
  7  8  1  6
  7  9  1  0
  9 10  1  6
 10 11  1  0
 12 11  1  6
 12 13  1  0
 13 14  1  1
 14 15  2  0
 14 16  1  0
 16 17  1  1
 16 18  1  0
 18 19  1  1
 19 20  1  0
 20 21  2  0
 20 22  1  0
 22 23  1  0
 23 24  1  0
 24 25  1  6
 24 26  1  0
 26 27  1  6
 27 28  1  0
 28 29  1  0
 29 30  1  6
 29  9  1  0
 29 12  1  0
 26 13  1  0
 24 18  1  0
M  END
>  <MS_ID>  (3888) 
MS4554

>  <SMILES>  (3888) 
COC(=O)CC[C@@H](C)[C@H]1CC[C@H]2[C@@H]3C(=O)[C@H](O)[C@@H]4CC(=O)CC[C@]4(C)[C@H]3CC[C@]12C

>  <Structure_dimension>  (3888) 
2D

$$$$
MS4558
     RDKit          2D

 28 31  0  0  0  0  0  0  0  0999 V2000
   -5.0096   -2.1352    0.0000 C   0  0  0  0  0  0  0  0  0  0  0  0
   -3.8132   -1.2303    0.0000 C   0  0  0  0  0  0  0  0  0  0  0  0
   -3.9987    0.2582    0.0000 C   0  0  0  0  0  0  0  0  0  0  0  0
   -5.3805    0.8418    0.0000 C   0  0  0  0  0  0  0  0  0  0  0  0
   -5.5659    2.3303    0.0000 C   0  0  0  0  0  0  0  0  0  0  0  0
   -4.3695    3.2351    0.0000 O   0  0  0  0  0  0  0  0  0  0  0  0
   -6.9477    2.9140    0.0000 O   0  0  0  0  0  0  0  0  0  0  0  0
   -2.4315   -1.8140    0.0000 C   0  0  0  0  0  0  0  0  0  0  0  0
   -2.0914   -3.2749    0.0000 C   0  0  0  0  0  0  0  0  0  0  0  0
   -0.5969   -3.4030    0.0000 C   0  0  0  0  0  0  0  0  0  0  0  0
   -0.0133   -2.0212    0.0000 C   0  0  0  0  0  0  0  0  0  0  0  0
    1.4041   -1.5304    0.0000 C   0  0  0  0  0  0  0  0  0  0  0  0
    2.5379   -2.5125    0.0000 C   0  0  0  0  0  0  0  0  0  0  0  0
    3.9554   -2.0216    0.0000 C   0  0  0  0  0  0  0  0  0  0  0  0
    4.2390   -0.5487    0.0000 C   0  0  0  0  0  0  0  0  0  0  0  0
    5.6564   -0.0578    0.0000 C   0  0  0  0  0  0  0  0  0  0  0  0
    5.9400    1.4151    0.0000 C   0  0  0  0  0  0  0  0  0  0  0  0
    7.3574    1.9060    0.0000 O   0  0  0  0  0  0  0  0  0  0  0  0
    4.8062    2.3972    0.0000 C   0  0  0  0  0  0  0  0  0  0  0  0
    3.3888    1.9064    0.0000 C   0  0  0  0  0  0  0  0  0  0  0  0
    3.1052    0.4334    0.0000 C   0  0  0  0  0  0  0  0  0  0  0  0
    1.9714    1.4155    0.0000 C   0  0  0  0  0  0  0  0  0  0  0  0
    1.6878   -0.0574    0.0000 C   0  0  0  0  0  0  0  0  0  0  0  0
    0.5540    0.9246    0.0000 C   0  0  0  0  0  0  0  0  0  0  0  0
   -0.8635    0.4338    0.0000 C   0  0  0  0  0  0  0  0  0  0  0  0
   -1.9973    1.4159    0.0000 O   0  0  0  0  0  0  0  0  0  0  0  0
   -1.1471   -1.0392    0.0000 C   0  0  0  0  0  0  0  0  0  0  0  0
   -2.3773   -0.1810    0.0000 C   0  0  0  0  0  0  0  0  0  0  0  0
  2  1  1  1
  2  3  1  0
  3  4  1  0
  4  5  1  0
  5  6  2  0
  5  7  1  0
  2  8  1  0
  8  9  1  6
  9 10  1  0
 11 10  1  6
 11 12  1  0
 12 13  1  1
 13 14  1  0
 15 14  1  1
 15 16  1  0
 16 17  1  0
 17 18  1  1
 17 19  1  0
 19 20  1  0
 20 21  1  0
 21 22  1  6
 21 23  1  0
 23 24  1  6
 24 25  1  0
 25 26  2  0
 25 27  1  0
 27 28  1  6
 27  8  1  0
 27 11  1  0
 23 12  1  0
 21 15  1  0
M  END
>  <MS_ID>  (3889) 
MS4558

>  <SMILES>  (3889) 
C[C@@H](CCC(=O)O)[C@H]1CC[C@H]2[C@@H]3CC[C@@H]4C[C@H](O)CC[C@]4(C)[C@H]3CC(=O)[C@]12C

>  <Structure_dimension>  (3889) 
2D

$$$$
MS4564
     RDKit          2D

 32 35  0  0  0  0  0  0  0  0999 V2000
   -2.3825   -4.2073    0.0000 C   0  0  0  0  0  0  0  0  0  0  0  0
   -1.6022   -2.9262    0.0000 C   0  0  0  0  0  0  0  0  0  0  0  0
   -2.3215   -1.6099    0.0000 C   0  0  0  0  0  0  0  0  0  0  0  0
   -3.8211   -1.5747    0.0000 C   0  0  0  0  0  0  0  0  0  0  0  0
   -4.5404   -0.2585    0.0000 C   0  0  0  0  0  0  0  0  0  0  0  0
   -3.7601    1.0226    0.0000 O   0  0  0  0  0  0  0  0  0  0  0  0
   -6.0400   -0.2232    0.0000 N   0  0  0  0  0  0  0  0  0  0  0  0
   -6.7593    1.0930    0.0000 C   0  0  0  0  0  0  0  0  0  0  0  0
   -8.2589    1.1283    0.0000 C   0  0  0  0  0  0  0  0  0  0  0  0
   -8.9782    2.4445    0.0000 C   0  0  0  0  0  0  0  0  0  0  0  0
   -8.1979    3.7256    0.0000 O   0  0  0  0  0  0  0  0  0  0  0  0
  -10.4778    2.4797    0.0000 O   0  0  0  0  0  0  0  0  0  0  0  0
   -0.1026   -2.9614    0.0000 C   0  0  0  0  0  0  0  0  0  0  0  0
    0.7503   -4.1953    0.0000 C   0  0  0  0  0  0  0  0  0  0  0  0
    2.1874   -3.7654    0.0000 C   0  0  0  0  0  0  0  0  0  0  0  0
    2.2226   -2.2658    0.0000 C   0  0  0  0  0  0  0  0  0  0  0  0
    3.3606   -1.2886    0.0000 C   0  0  0  0  0  0  0  0  0  0  0  0
    4.7759   -1.7855    0.0000 C   0  0  0  0  0  0  0  0  0  0  0  0
    5.9138   -0.8082    0.0000 C   0  0  0  0  0  0  0  0  0  0  0  0
    5.6365    0.6659    0.0000 C   0  0  0  0  0  0  0  0  0  0  0  0
    6.7745    1.6432    0.0000 C   0  0  0  0  0  0  0  0  0  0  0  0
    6.4971    3.1173    0.0000 C   0  0  0  0  0  0  0  0  0  0  0  0
    7.6351    4.0946    0.0000 O   0  0  0  0  0  0  0  0  0  0  0  0
    5.0818    3.6142    0.0000 C   0  0  0  0  0  0  0  0  0  0  0  0
    3.9438    2.6370    0.0000 C   0  0  0  0  0  0  0  0  0  0  0  0
    4.2212    1.1628    0.0000 C   0  0  0  0  0  0  0  0  0  0  0  0
    2.8059    1.6597    0.0000 C   0  0  0  0  0  0  0  0  0  0  0  0
    3.0832    0.1856    0.0000 C   0  0  0  0  0  0  0  0  0  0  0  0
    1.6679    0.6825    0.0000 C   0  0  0  0  0  0  0  0  0  0  0  0
    0.5299   -0.2948    0.0000 C   0  0  0  0  0  0  0  0  0  0  0  0
    0.8073   -1.7689    0.0000 C   0  0  0  0  0  0  0  0  0  0  0  0
   -0.6522   -1.4227    0.0000 C   0  0  0  0  0  0  0  0  0  0  0  0
  2  1  1  6
  2  3  1  0
  3  4  1  0
  4  5  1  0
  5  6  2  0
  5  7  1  0
  7  8  1  0
  8  9  1  0
  9 10  1  0
 10 11  2  0
 10 12  1  0
  2 13  1  0
 13 14  1  6
 14 15  1  0
 16 15  1  6
 16 17  1  0
 17 18  1  1
 18 19  1  0
 20 19  1  1
 20 21  1  0
 21 22  1  0
 22 23  2  0
 22 24  1  0
 24 25  1  0
 25 26  1  0
 26 27  1  6
 26 28  1  0
 28 29  1  6
 29 30  1  0
 30 31  1  0
 31 32  1  6
 31 13  1  0
 31 16  1  0
 28 17  1  0
 26 20  1  0
M  END
>  <MS_ID>  (3890) 
MS4564

>  <SMILES>  (3890) 
C[C@H](CCC(=O)NCCC(=O)O)[C@H]1CC[C@H]2[C@@H]3CC[C@@H]4CC(=O)CC[C@]4(C)[C@H]3CC[C@]12C

>  <Structure_dimension>  (3890) 
2D

$$$$
MS4566
     RDKit          2D

 40 44  0  0  0  0  0  0  0  0999 V2000
   -8.5178   -1.6449    0.0000 C   0  0  0  0  0  0  0  0  0  0  0  0
   -7.2477   -0.8469    0.0000 C   0  0  0  0  0  0  0  0  0  0  0  0
   -7.3037    0.6520    0.0000 C   0  0  0  0  0  0  0  0  0  0  0  0
   -8.6298    1.3530    0.0000 C   0  0  0  0  0  0  0  0  0  0  0  0
   -8.6858    2.8520    0.0000 C   0  0  0  0  0  0  0  0  0  0  0  0
   -7.4156    3.6499    0.0000 O   0  0  0  0  0  0  0  0  0  0  0  0
  -10.0119    3.5530    0.0000 O   0  0  0  0  0  0  0  0  0  0  0  0
   -5.9215   -1.5479    0.0000 C   0  0  0  0  0  0  0  0  0  0  0  0
   -5.7091   -3.0328    0.0000 C   0  0  0  0  0  0  0  0  0  0  0  0
   -4.2313   -3.2897    0.0000 C   0  0  0  0  0  0  0  0  0  0  0  0
   -3.5303   -1.9635    0.0000 C   0  0  0  0  0  0  0  0  0  0  0  0
   -2.0758   -1.5971    0.0000 C   0  0  0  0  0  0  0  0  0  0  0  0
   -1.0312   -2.6736    0.0000 C   0  0  0  0  0  0  0  0  0  0  0  0
   -1.4411   -4.1165    0.0000 O   0  0  0  0  0  0  0  0  0  0  0  0
    0.4234   -2.3072    0.0000 C   0  0  0  0  0  0  0  0  0  0  0  0
    0.8333   -0.8643    0.0000 C   0  0  0  0  0  0  0  0  0  0  0  0
    2.2879   -0.4978    0.0000 C   0  0  0  0  0  0  0  0  0  0  0  0
    2.6978    0.9451    0.0000 C   0  0  0  0  0  0  0  0  0  0  0  0
    4.1524    1.3115    0.0000 N   0  0  0  0  0  0  0  0  0  0  0  0
    5.1970    0.2350    0.0000 C   0  0  0  0  0  0  0  0  0  0  0  0
    4.7871   -1.2079    0.0000 O   0  0  0  0  0  0  0  0  0  0  0  0
    6.6516    0.6014    0.0000 C   0  0  0  0  0  0  0  0  0  0  0  0
    7.0615    2.0443    0.0000 N   0  0  0  0  0  0  0  0  0  0  0  0
    7.6962   -0.4750    0.0000 C   0  0  0  0  0  0  0  0  0  0  0  0
    9.1507   -0.1086    0.0000 C   0  0  0  0  0  0  0  0  0  0  0  0
   10.1953   -1.1851    0.0000 C   0  0  0  0  0  0  0  0  0  0  0  0
   11.6499   -0.8187    0.0000 C   0  0  0  0  0  0  0  0  0  0  0  0
   12.0598    0.6242    0.0000 C   0  0  0  0  0  0  0  0  0  0  0  0
   11.0152    1.7007    0.0000 C   0  0  0  0  0  0  0  0  0  0  0  0
    9.5607    1.3343    0.0000 C   0  0  0  0  0  0  0  0  0  0  0  0
    1.6532    2.0215    0.0000 C   0  0  0  0  0  0  0  0  0  0  0  0
    0.1987    1.6551    0.0000 C   0  0  0  0  0  0  0  0  0  0  0  0
   -0.2113    0.2122    0.0000 C   0  0  0  0  0  0  0  0  0  0  0  0
   -1.2559    1.2887    0.0000 C   0  0  0  0  0  0  0  0  0  0  0  0
   -1.6658   -0.1542    0.0000 C   0  0  0  0  0  0  0  0  0  0  0  0
   -2.7104    0.9223    0.0000 C   0  0  0  0  0  0  0  0  0  0  0  0
   -4.1650    0.5558    0.0000 C   0  0  0  0  0  0  0  0  0  0  0  0
   -5.2096    1.6323    0.0000 O   0  0  0  0  0  0  0  0  0  0  0  0
   -4.5749   -0.8871    0.0000 C   0  0  0  0  0  0  0  0  0  0  0  0
   -5.7263    0.0743    0.0000 C   0  0  0  0  0  0  0  0  0  0  0  0
  2  1  1  6
  2  3  1  0
  3  4  1  0
  4  5  1  0
  5  6  2  0
  5  7  1  0
  2  8  1  0
  8  9  1  6
  9 10  1  0
 11 10  1  6
 11 12  1  0
 12 13  1  1
 13 14  1  1
 13 15  1  0
 16 15  1  1
 16 17  1  0
 17 18  1  0
 18 19  1  1
 19 20  1  0
 20 21  2  0
 20 22  1  0
 22 23  1  1
 22 24  1  0
 24 25  1  0
 25 26  2  0
 26 27  1  0
 27 28  2  0
 28 29  1  0
 29 30  2  0
 18 31  1  0
 31 32  1  0
 32 33  1  0
 33 34  1  6
 33 35  1  0
 35 36  1  6
 36 37  1  0
 37 38  1  1
 37 39  1  0
 39 40  1  6
 39  8  1  0
 39 11  1  0
 35 12  1  0
 33 16  1  0
 30 25  1  0
M  END
>  <MS_ID>  (3891) 
MS4566

>  <SMILES>  (3891) 
C[C@H](CCC(=O)O)[C@H]1CC[C@H]2[C@@H]3[C@H](O)C[C@@H]4C[C@H](NC(=O)[C@@H](N)Cc5ccccc5)CC[C@]4(C)[C@H]3C[C@H](O)[C@]12C

>  <Structure_dimension>  (3891) 
2D

$$$$
MS4567
     RDKit          2D

 36 40  0  0  0  0  0  0  0  0999 V2000
   -2.3115   -3.8536    0.0000 C   0  0  0  0  0  0  0  0  0  0  0  0
   -1.4551   -2.6221    0.0000 C   0  0  0  0  0  0  0  0  0  0  0  0
   -2.0934   -1.2647    0.0000 C   0  0  0  0  0  0  0  0  0  0  0  0
   -3.5882   -1.1388    0.0000 C   0  0  0  0  0  0  0  0  0  0  0  0
   -4.2265    0.2186    0.0000 C   0  0  0  0  0  0  0  0  0  0  0  0
   -3.3702    1.4501    0.0000 O   0  0  0  0  0  0  0  0  0  0  0  0
   -5.7212    0.3444    0.0000 N   0  0  0  0  0  0  0  0  0  0  0  0
   -6.7016   -0.7908    0.0000 C   0  0  0  0  0  0  0  0  0  0  0  0
   -8.0843   -0.2092    0.0000 C   0  0  0  0  0  0  0  0  0  0  0  0
   -9.3675   -0.9860    0.0000 O   0  0  0  0  0  0  0  0  0  0  0  0
   -7.9584    1.2855    0.0000 C   0  0  0  0  0  0  0  0  0  0  0  0
   -6.4980    1.6276    0.0000 C   0  0  0  0  0  0  0  0  0  0  0  0
   -5.9164    3.0103    0.0000 C   0  0  0  0  0  0  0  0  0  0  0  0
   -4.4281    3.1980    0.0000 O   0  0  0  0  0  0  0  0  0  0  0  0
   -6.8230    4.2053    0.0000 O   0  0  0  0  0  0  0  0  0  0  0  0
    0.0396   -2.7480    0.0000 C   0  0  0  0  0  0  0  0  0  0  0  0
    0.8164   -4.0312    0.0000 C   0  0  0  0  0  0  0  0  0  0  0  0
    2.2768   -3.6890    0.0000 C   0  0  0  0  0  0  0  0  0  0  0  0
    2.4027   -2.1943    0.0000 C   0  0  0  0  0  0  0  0  0  0  0  0
    3.5977   -1.2877    0.0000 C   0  0  0  0  0  0  0  0  0  0  0  0
    4.9803   -1.8693    0.0000 C   0  0  0  0  0  0  0  0  0  0  0  0
    5.1680   -3.3575    0.0000 O   0  0  0  0  0  0  0  0  0  0  0  0
    6.1753   -0.9627    0.0000 C   0  0  0  0  0  0  0  0  0  0  0  0
    5.9877    0.5256    0.0000 C   0  0  0  0  0  0  0  0  0  0  0  0
    7.1827    1.4322    0.0000 C   0  0  0  0  0  0  0  0  0  0  0  0
    6.9950    2.9204    0.0000 C   0  0  0  0  0  0  0  0  0  0  0  0
    8.1901    3.8270    0.0000 O   0  0  0  0  0  0  0  0  0  0  0  0
    5.6124    3.5020    0.0000 C   0  0  0  0  0  0  0  0  0  0  0  0
    4.4174    2.5954    0.0000 C   0  0  0  0  0  0  0  0  0  0  0  0
    4.6050    1.1072    0.0000 C   0  0  0  0  0  0  0  0  0  0  0  0
    3.2224    1.6888    0.0000 C   0  0  0  0  0  0  0  0  0  0  0  0
    3.4100    0.2005    0.0000 C   0  0  0  0  0  0  0  0  0  0  0  0
    2.0274    0.7821    0.0000 C   0  0  0  0  0  0  0  0  0  0  0  0
    0.8324   -0.1245    0.0000 C   0  0  0  0  0  0  0  0  0  0  0  0
    1.0200   -1.6127    0.0000 C   0  0  0  0  0  0  0  0  0  0  0  0
   -0.4159   -1.1788    0.0000 C   0  0  0  0  0  0  0  0  0  0  0  0
  2  1  1  6
  2  3  1  0
  3  4  1  0
  4  5  1  0
  5  6  2  0
  5  7  1  0
  7  8  1  0
  8  9  1  0
  9 10  1  6
  9 11  1  0
 11 12  1  0
 12 13  1  1
 13 14  2  0
 13 15  1  0
  2 16  1  0
 16 17  1  6
 17 18  1  0
 19 18  1  6
 19 20  1  0
 20 21  1  1
 21 22  1  6
 21 23  1  0
 24 23  1  1
 24 25  1  0
 25 26  1  0
 26 27  1  1
 26 28  1  0
 28 29  1  0
 29 30  1  0
 30 31  1  6
 30 32  1  0
 32 33  1  6
 33 34  1  0
 34 35  1  0
 35 36  1  6
 12  7  1  0
 35 16  1  0
 35 19  1  0
 32 20  1  0
 30 24  1  0
M  END
>  <MS_ID>  (3892) 
MS4567

>  <SMILES>  (3892) 
C[C@H](CCC(=O)N1C[C@H](O)C[C@H]1C(=O)O)[C@H]1CC[C@H]2[C@@H]3[C@@H](O)C[C@@H]4C[C@H](O)CC[C@]4(C)[C@H]3CC[C@]12C

>  <Structure_dimension>  (3892) 
2D

$$$$
MS4568
     RDKit          2D

 37 40  0  0  0  0  0  0  0  0999 V2000
   -1.3549   -4.5627    0.0000 C   0  0  0  0  0  0  0  0  0  0  0  0
   -0.6844   -3.2209    0.0000 C   0  0  0  0  0  0  0  0  0  0  0  0
   -1.5112   -1.9693    0.0000 C   0  0  0  0  0  0  0  0  0  0  0  0
   -3.0085   -2.0596    0.0000 C   0  0  0  0  0  0  0  0  0  0  0  0
   -3.8353   -0.8080    0.0000 C   0  0  0  0  0  0  0  0  0  0  0  0
   -3.1649    0.5338    0.0000 O   0  0  0  0  0  0  0  0  0  0  0  0
   -5.3326   -0.8983    0.0000 N   0  0  0  0  0  0  0  0  0  0  0  0
   -6.1594    0.3532    0.0000 C   0  0  0  0  0  0  0  0  0  0  0  0
   -7.6567    0.2630    0.0000 C   0  0  0  0  0  0  0  0  0  0  0  0
   -8.4835    1.5145    0.0000 C   0  0  0  0  0  0  0  0  0  0  0  0
   -9.9808    1.4242    0.0000 C   0  0  0  0  0  0  0  0  0  0  0  0
  -10.8076    2.6758    0.0000 N   0  0  0  0  0  0  0  0  0  0  0  0
  -10.6513    0.0824    0.0000 O   0  0  0  0  0  0  0  0  0  0  0  0
   -5.4890    1.6951    0.0000 C   0  0  0  0  0  0  0  0  0  0  0  0
   -3.9917    1.7853    0.0000 O   0  0  0  0  0  0  0  0  0  0  0  0
   -6.3158    2.9466    0.0000 O   0  0  0  0  0  0  0  0  0  0  0  0
    0.8128   -3.1306    0.0000 C   0  0  0  0  0  0  0  0  0  0  0  0
    1.7660   -4.2889    0.0000 C   0  0  0  0  0  0  0  0  0  0  0  0
    3.1621   -3.7403    0.0000 C   0  0  0  0  0  0  0  0  0  0  0  0
    3.0718   -2.2430    0.0000 C   0  0  0  0  0  0  0  0  0  0  0  0
    4.1241   -1.1741    0.0000 C   0  0  0  0  0  0  0  0  0  0  0  0
    5.5760   -1.5509    0.0000 C   0  0  0  0  0  0  0  0  0  0  0  0
    6.6283   -0.4819    0.0000 C   0  0  0  0  0  0  0  0  0  0  0  0
    8.0802   -0.8588    0.0000 O   0  0  0  0  0  0  0  0  0  0  0  0
    6.2287    0.9638    0.0000 C   0  0  0  0  0  0  0  0  0  0  0  0
    7.2810    2.0328    0.0000 C   0  0  0  0  0  0  0  0  0  0  0  0
    6.8814    3.4786    0.0000 C   0  0  0  0  0  0  0  0  0  0  0  0
    7.9337    4.5476    0.0000 O   0  0  0  0  0  0  0  0  0  0  0  0
    5.4295    3.8554    0.0000 C   0  0  0  0  0  0  0  0  0  0  0  0
    4.3772    2.7865    0.0000 C   0  0  0  0  0  0  0  0  0  0  0  0
    4.7768    1.3407    0.0000 C   0  0  0  0  0  0  0  0  0  0  0  0
    3.3249    1.7175    0.0000 C   0  0  0  0  0  0  0  0  0  0  0  0
    3.7245    0.2717    0.0000 C   0  0  0  0  0  0  0  0  0  0  0  0
    2.2726    0.6486    0.0000 C   0  0  0  0  0  0  0  0  0  0  0  0
    1.2203   -0.4204    0.0000 C   0  0  0  0  0  0  0  0  0  0  0  0
    1.6199   -1.8662    0.0000 C   0  0  0  0  0  0  0  0  0  0  0  0
    0.1366   -1.6432    0.0000 C   0  0  0  0  0  0  0  0  0  0  0  0
  2  1  1  6
  2  3  1  0
  3  4  1  0
  4  5  1  0
  5  6  2  0
  5  7  1  0
  7  8  1  0
  8  9  1  1
  9 10  1  0
 10 11  1  0
 11 12  1  0
 11 13  2  0
  8 14  1  0
 14 15  2  0
 14 16  1  0
  2 17  1  0
 17 18  1  6
 18 19  1  0
 20 19  1  6
 20 21  1  0
 21 22  1  1
 22 23  1  0
 23 24  1  1
 23 25  1  0
 25 26  1  1
 26 27  1  0
 27 28  1  1
 27 29  1  0
 29 30  1  0
 30 31  1  0
 31 32  1  6
 31 33  1  0
 33 34  1  6
 34 35  1  0
 35 36  1  0
 36 37  1  6
 36 17  1  0
 36 20  1  0
 33 21  1  0
 31 25  1  0
M  END
>  <MS_ID>  (3893) 
MS4568

>  <SMILES>  (3893) 
C[C@H](CCC(=O)N[C@@H](CCC(N)=O)C(=O)O)[C@H]1CC[C@H]2[C@@H]3C[C@H](O)[C@@H]4C[C@H](O)CC[C@]4(C)[C@H]3CC[C@]12C

>  <Structure_dimension>  (3893) 
2D

$$$$
MS4574
     RDKit          2D

 35 39  0  0  0  0  0  0  0  0999 V2000
   -2.5210   -3.9198    0.0000 C   0  0  0  0  0  0  0  0  0  0  0  0
   -1.6831   -2.6756    0.0000 C   0  0  0  0  0  0  0  0  0  0  0  0
   -2.3416   -1.3279    0.0000 C   0  0  0  0  0  0  0  0  0  0  0  0
   -3.8380   -1.2243    0.0000 C   0  0  0  0  0  0  0  0  0  0  0  0
   -4.4965    0.1234    0.0000 C   0  0  0  0  0  0  0  0  0  0  0  0
   -3.6586    1.3675    0.0000 O   0  0  0  0  0  0  0  0  0  0  0  0
   -5.9929    0.2270    0.0000 N   0  0  0  0  0  0  0  0  0  0  0  0
   -6.9563   -0.9228    0.0000 C   0  0  0  0  0  0  0  0  0  0  0  0
   -8.3475   -0.3618    0.0000 C   0  0  0  0  0  0  0  0  0  0  0  0
   -8.2439    1.1346    0.0000 C   0  0  0  0  0  0  0  0  0  0  0  0
   -6.7887    1.4985    0.0000 C   0  0  0  0  0  0  0  0  0  0  0  0
   -6.2277    2.8897    0.0000 C   0  0  0  0  0  0  0  0  0  0  0  0
   -4.7425    3.0995    0.0000 O   0  0  0  0  0  0  0  0  0  0  0  0
   -7.1521    4.0710    0.0000 O   0  0  0  0  0  0  0  0  0  0  0  0
   -0.1866   -2.7792    0.0000 C   0  0  0  0  0  0  0  0  0  0  0  0
    0.6091   -4.0507    0.0000 C   0  0  0  0  0  0  0  0  0  0  0  0
    2.0643   -3.6868    0.0000 C   0  0  0  0  0  0  0  0  0  0  0  0
    2.1679   -2.1904    0.0000 C   0  0  0  0  0  0  0  0  0  0  0  0
    3.3493   -1.2661    0.0000 C   0  0  0  0  0  0  0  0  0  0  0  0
    4.7404   -1.8270    0.0000 C   0  0  0  0  0  0  0  0  0  0  0  0
    4.9502   -3.3123    0.0000 O   0  0  0  0  0  0  0  0  0  0  0  0
    5.9218   -0.9027    0.0000 C   0  0  0  0  0  0  0  0  0  0  0  0
    5.7120    0.5826    0.0000 C   0  0  0  0  0  0  0  0  0  0  0  0
    6.8934    1.5069    0.0000 C   0  0  0  0  0  0  0  0  0  0  0  0
    6.6836    2.9921    0.0000 C   0  0  0  0  0  0  0  0  0  0  0  0
    7.8649    3.9165    0.0000 O   0  0  0  0  0  0  0  0  0  0  0  0
    5.2924    3.5531    0.0000 C   0  0  0  0  0  0  0  0  0  0  0  0
    4.1110    2.6287    0.0000 C   0  0  0  0  0  0  0  0  0  0  0  0
    4.3208    1.1435    0.0000 C   0  0  0  0  0  0  0  0  0  0  0  0
    2.9297    1.7044    0.0000 C   0  0  0  0  0  0  0  0  0  0  0  0
    3.1395    0.2192    0.0000 C   0  0  0  0  0  0  0  0  0  0  0  0
    1.7483    0.7801    0.0000 C   0  0  0  0  0  0  0  0  0  0  0  0
    0.5669   -0.1442    0.0000 C   0  0  0  0  0  0  0  0  0  0  0  0
    0.7767   -1.6295    0.0000 C   0  0  0  0  0  0  0  0  0  0  0  0
   -0.6655   -1.2170    0.0000 C   0  0  0  0  0  0  0  0  0  0  0  0
  2  1  1  6
  2  3  1  0
  3  4  1  0
  4  5  1  0
  5  6  2  0
  5  7  1  0
  7  8  1  0
  8  9  1  0
  9 10  1  0
 10 11  1  0
 11 12  1  1
 12 13  2  0
 12 14  1  0
  2 15  1  0
 15 16  1  6
 16 17  1  0
 18 17  1  6
 18 19  1  0
 19 20  1  1
 20 21  2  0
 20 22  1  0
 23 22  1  1
 23 24  1  0
 24 25  1  0
 25 26  1  1
 25 27  1  0
 27 28  1  0
 28 29  1  0
 29 30  1  6
 29 31  1  0
 31 32  1  6
 32 33  1  0
 33 34  1  0
 34 35  1  6
 11  7  1  0
 34 15  1  0
 34 18  1  0
 31 19  1  0
 29 23  1  0
M  END
>  <MS_ID>  (3894) 
MS4574

>  <SMILES>  (3894) 
C[C@H](CCC(=O)N1CCC[C@H]1C(=O)O)[C@H]1CC[C@H]2[C@@H]3C(=O)C[C@@H]4C[C@H](O)CC[C@]4(C)[C@H]3CC[C@]12C

>  <Structure_dimension>  (3894) 
2D

$$$$
MS4576
     RDKit          2D

 28 31  0  0  0  0  0  0  0  0999 V2000
   -5.1275   -2.0302    0.0000 C   0  0  0  0  0  0  0  0  0  0  0  0
   -3.9468   -1.1050    0.0000 C   0  0  0  0  0  0  0  0  0  0  0  0
   -4.1576    0.3801    0.0000 C   0  0  0  0  0  0  0  0  0  0  0  0
   -5.5492    0.9401    0.0000 C   0  0  0  0  0  0  0  0  0  0  0  0
   -5.7600    2.4252    0.0000 C   0  0  0  0  0  0  0  0  0  0  0  0
   -4.5793    3.3503    0.0000 O   0  0  0  0  0  0  0  0  0  0  0  0
   -7.1516    2.9851    0.0000 O   0  0  0  0  0  0  0  0  0  0  0  0
   -2.5552   -1.6650    0.0000 C   0  0  0  0  0  0  0  0  0  0  0  0
   -2.1903   -3.1199    0.0000 C   0  0  0  0  0  0  0  0  0  0  0  0
   -0.6938   -3.2225    0.0000 C   0  0  0  0  0  0  0  0  0  0  0  0
   -0.1339   -1.8309    0.0000 C   0  0  0  0  0  0  0  0  0  0  0  0
    1.2750   -1.3159    0.0000 C   0  0  0  0  0  0  0  0  0  0  0  0
    2.4254   -2.2785    0.0000 C   0  0  0  0  0  0  0  0  0  0  0  0
    2.1670   -3.7560    0.0000 O   0  0  0  0  0  0  0  0  0  0  0  0
    3.8342   -1.7635    0.0000 C   0  0  0  0  0  0  0  0  0  0  0  0
    4.0926   -0.2859    0.0000 C   0  0  0  0  0  0  0  0  0  0  0  0
    5.5014    0.2291    0.0000 C   0  0  0  0  0  0  0  0  0  0  0  0
    5.7598    1.7067    0.0000 C   0  0  0  0  0  0  0  0  0  0  0  0
    7.1687    2.2217    0.0000 F   0  0  0  0  0  0  0  0  0  0  0  0
    4.6094    2.6692    0.0000 C   0  0  0  0  0  0  0  0  0  0  0  0
    3.2006    2.1542    0.0000 C   0  0  0  0  0  0  0  0  0  0  0  0
    2.9422    0.6767    0.0000 C   0  0  0  0  0  0  0  0  0  0  0  0
    1.7918    1.6392    0.0000 C   0  0  0  0  0  0  0  0  0  0  0  0
    1.5334    0.1617    0.0000 C   0  0  0  0  0  0  0  0  0  0  0  0
    0.3830    1.1242    0.0000 C   0  0  0  0  0  0  0  0  0  0  0  0
   -1.0259    0.6093    0.0000 C   0  0  0  0  0  0  0  0  0  0  0  0
   -1.2843   -0.8683    0.0000 C   0  0  0  0  0  0  0  0  0  0  0  0
   -2.5290   -0.0313    0.0000 C   0  0  0  0  0  0  0  0  0  0  0  0
  2  1  1  6
  2  3  1  0
  3  4  1  0
  4  5  1  0
  5  6  2  0
  5  7  1  0
  2  8  1  0
  8  9  1  6
  9 10  1  0
 11 10  1  6
 11 12  1  0
 12 13  1  1
 13 14  1  1
 13 15  1  0
 16 15  1  1
 16 17  1  0
 17 18  1  0
 18 19  1  6
 18 20  1  0
 20 21  1  0
 21 22  1  0
 22 23  1  6
 22 24  1  0
 24 25  1  6
 25 26  1  0
 26 27  1  0
 27 28  1  6
 27  8  1  0
 27 11  1  0
 24 12  1  0
 22 16  1  0
M  END
>  <MS_ID>  (3895) 
MS4576

>  <SMILES>  (3895) 
C[C@H](CCC(=O)O)[C@H]1CC[C@H]2[C@@H]3[C@H](O)C[C@@H]4C[C@@H](F)CC[C@]4(C)[C@H]3CC[C@]12C

>  <Structure_dimension>  (3895) 
2D

$$$$
MS4580
     RDKit          2D

 33 36  0  0  0  0  0  0  0  0999 V2000
   -7.9873    4.0986    0.0000 C   0  0  0  0  0  0  0  0  0  0  0  0
   -7.7630    2.6155    0.0000 O   0  0  0  0  0  0  0  0  0  0  0  0
   -6.3664    2.0681    0.0000 C   0  0  0  0  0  0  0  0  0  0  0  0
   -5.1941    3.0039    0.0000 O   0  0  0  0  0  0  0  0  0  0  0  0
   -6.1422    0.5850    0.0000 C   0  0  0  0  0  0  0  0  0  0  0  0
   -4.7456    0.0376    0.0000 C   0  0  0  0  0  0  0  0  0  0  0  0
   -4.5214   -1.4455    0.0000 C   0  0  0  0  0  0  0  0  0  0  0  0
   -5.6937   -2.3813    0.0000 C   0  0  0  0  0  0  0  0  0  0  0  0
   -3.1248   -1.9929    0.0000 C   0  0  0  0  0  0  0  0  0  0  0  0
   -2.7468   -3.4445    0.0000 C   0  0  0  0  0  0  0  0  0  0  0  0
   -1.2494   -3.5335    0.0000 C   0  0  0  0  0  0  0  0  0  0  0  0
   -0.7020   -2.1369    0.0000 C   0  0  0  0  0  0  0  0  0  0  0  0
    0.7021   -1.6092    0.0000 C   0  0  0  0  0  0  0  0  0  0  0  0
    1.8611   -2.5614    0.0000 C   0  0  0  0  0  0  0  0  0  0  0  0
    1.6161   -4.0412    0.0000 O   0  0  0  0  0  0  0  0  0  0  0  0
    3.2652   -2.0336    0.0000 C   0  0  0  0  0  0  0  0  0  0  0  0
    3.5103   -0.5538    0.0000 C   0  0  0  0  0  0  0  0  0  0  0  0
    4.9144   -0.0261    0.0000 C   0  0  0  0  0  0  0  0  0  0  0  0
    5.1594    1.4538    0.0000 C   0  0  0  0  0  0  0  0  0  0  0  0
    6.5635    1.9815    0.0000 O   0  0  0  0  0  0  0  0  0  0  0  0
    7.7226    1.0293    0.0000 C   0  0  0  0  0  0  0  0  0  0  0  0
    9.1267    1.5571    0.0000 C   0  0  0  0  0  0  0  0  0  0  0  0
   10.2858    0.6049    0.0000 O   0  0  0  0  0  0  0  0  0  0  0  0
    4.0004    2.4059    0.0000 C   0  0  0  0  0  0  0  0  0  0  0  0
    2.5963    1.8782    0.0000 C   0  0  0  0  0  0  0  0  0  0  0  0
    2.3512    0.3983    0.0000 C   0  0  0  0  0  0  0  0  0  0  0  0
    1.1921    1.3505    0.0000 C   0  0  0  0  0  0  0  0  0  0  0  0
    0.9471   -0.1294    0.0000 C   0  0  0  0  0  0  0  0  0  0  0  0
   -0.2120    0.8228    0.0000 C   0  0  0  0  0  0  0  0  0  0  0  0
   -1.6161    0.2951    0.0000 C   0  0  0  0  0  0  0  0  0  0  0  0
   -2.7751    1.2472    0.0000 O   0  0  0  0  0  0  0  0  0  0  0  0
   -1.8611   -1.1848    0.0000 C   0  0  0  0  0  0  0  0  0  0  0  0
   -3.1134   -0.3590    0.0000 C   0  0  0  0  0  0  0  0  0  0  0  0
  1  2  1  0
  2  3  1  0
  3  4  2  0
  3  5  1  0
  5  6  1  0
  6  7  1  0
  7  8  1  6
  7  9  1  0
  9 10  1  6
 10 11  1  0
 12 11  1  6
 12 13  1  0
 13 14  1  1
 14 15  1  1
 14 16  1  0
 17 16  1  1
 17 18  1  0
 18 19  1  0
 19 20  1  1
 20 21  1  0
 21 22  1  0
 22 23  1  0
 19 24  1  0
 24 25  1  0
 25 26  1  0
 26 27  1  6
 26 28  1  0
 28 29  1  6
 29 30  1  0
 30 31  1  1
 30 32  1  0
 32 33  1  6
 32  9  1  0
 32 12  1  0
 28 13  1  0
 26 17  1  0
M  END
>  <MS_ID>  (3896) 
MS4580

>  <SMILES>  (3896) 
COC(=O)CC[C@@H](C)[C@H]1CC[C@H]2[C@@H]3[C@H](O)C[C@@H]4C[C@H](OCCO)CC[C@]4(C)[C@H]3C[C@H](O)[C@]12C

>  <Structure_dimension>  (3896) 
2D

$$$$
MS4581
     RDKit          2D

 41 44  0  0  0  0  0  0  0  0999 V2000
    2.3390   -4.9280    0.0000 C   0  0  0  0  0  0  0  0  0  0  0  0
    2.7021   -3.4726    0.0000 C   0  0  0  0  0  0  0  0  0  0  0  0
    1.6233   -2.4304    0.0000 C   0  0  0  0  0  0  0  0  0  0  0  0
    0.1813   -2.8436    0.0000 C   0  0  0  0  0  0  0  0  0  0  0  0
   -0.8975   -1.8014    0.0000 C   0  0  0  0  0  0  0  0  0  0  0  0
   -0.5344   -0.3461    0.0000 O   0  0  0  0  0  0  0  0  0  0  0  0
   -2.3395   -2.2147    0.0000 N   0  0  0  0  0  0  0  0  0  0  0  0
   -3.4183   -1.1725    0.0000 C   0  0  0  0  0  0  0  0  0  0  0  0
   -4.8603   -1.5857    0.0000 C   0  0  0  0  0  0  0  0  0  0  0  0
   -5.9391   -0.5435    0.0000 C   0  0  0  0  0  0  0  0  0  0  0  0
   -7.3811   -0.9567    0.0000 N   0  0  0  0  0  0  0  0  0  0  0  0
   -8.4599    0.0855    0.0000 C   0  0  0  0  0  0  0  0  0  0  0  0
   -9.9019   -0.3277    0.0000 C   0  0  0  0  0  0  0  0  0  0  0  0
  -10.9807    0.7144    0.0000 C   0  0  0  0  0  0  0  0  0  0  0  0
  -12.4227    0.3012    0.0000 C   0  0  0  0  0  0  0  0  0  0  0  0
  -13.5015    1.3434    0.0000 N   0  0  0  0  0  0  0  0  0  0  0  0
  -14.9434    0.9302    0.0000 C   0  0  0  0  0  0  0  0  0  0  0  0
  -16.0223    1.9724    0.0000 C   0  0  0  0  0  0  0  0  0  0  0  0
  -17.4642    1.5592    0.0000 C   0  0  0  0  0  0  0  0  0  0  0  0
  -18.5431    2.6014    0.0000 N   0  0  0  0  0  0  0  0  0  0  0  0
    4.1441   -3.0594    0.0000 C   0  0  0  0  0  0  0  0  0  0  0  0
    5.3259   -3.9831    0.0000 C   0  0  0  0  0  0  0  0  0  0  0  0
    6.5696   -3.1445    0.0000 C   0  0  0  0  0  0  0  0  0  0  0  0
    6.1564   -1.7026    0.0000 C   0  0  0  0  0  0  0  0  0  0  0  0
    6.9515   -0.4306    0.0000 C   0  0  0  0  0  0  0  0  0  0  0  0
    8.4506   -0.4832    0.0000 C   0  0  0  0  0  0  0  0  0  0  0  0
    9.1546   -1.8078    0.0000 O   0  0  0  0  0  0  0  0  0  0  0  0
    9.2457    0.7887    0.0000 C   0  0  0  0  0  0  0  0  0  0  0  0
    8.5417    2.1132    0.0000 C   0  0  0  0  0  0  0  0  0  0  0  0
    9.3368    3.3852    0.0000 C   0  0  0  0  0  0  0  0  0  0  0  0
    8.6328    4.7097    0.0000 C   0  0  0  0  0  0  0  0  0  0  0  0
    9.4280    5.9817    0.0000 O   0  0  0  0  0  0  0  0  0  0  0  0
    7.1338    4.7623    0.0000 C   0  0  0  0  0  0  0  0  0  0  0  0
    6.3387    3.4904    0.0000 C   0  0  0  0  0  0  0  0  0  0  0  0
    7.0426    2.1659    0.0000 C   0  0  0  0  0  0  0  0  0  0  0  0
    5.5436    2.2185    0.0000 C   0  0  0  0  0  0  0  0  0  0  0  0
    6.2475    0.8939    0.0000 C   0  0  0  0  0  0  0  0  0  0  0  0
    4.7485    0.9465    0.0000 C   0  0  0  0  0  0  0  0  0  0  0  0
    3.9534   -0.3254    0.0000 C   0  0  0  0  0  0  0  0  0  0  0  0
    4.6573   -1.6499    0.0000 C   0  0  0  0  0  0  0  0  0  0  0  0
    3.1610   -1.7543    0.0000 C   0  0  0  0  0  0  0  0  0  0  0  0
  2  1  1  6
  2  3  1  0
  3  4  1  0
  4  5  1  0
  5  6  2  0
  5  7  1  0
  7  8  1  0
  8  9  1  0
  9 10  1  0
 10 11  1  0
 11 12  1  0
 12 13  1  0
 13 14  1  0
 14 15  1  0
 15 16  1  0
 16 17  1  0
 17 18  1  0
 18 19  1  0
 19 20  1  0
  2 21  1  0
 21 22  1  6
 22 23  1  0
 24 23  1  6
 24 25  1  0
 25 26  1  1
 26 27  1  1
 26 28  1  0
 29 28  1  1
 29 30  1  0
 30 31  1  0
 31 32  1  1
 31 33  1  0
 33 34  1  0
 34 35  1  0
 35 36  1  6
 35 37  1  0
 37 38  1  6
 38 39  1  0
 39 40  1  0
 40 41  1  6
 40 21  1  0
 40 24  1  0
 37 25  1  0
 35 29  1  0
M  END
>  <MS_ID>  (3897) 
MS4581

>  <SMILES>  (3897) 
C[C@H](CCC(=O)NCCCNCCCCNCCCN)[C@H]1CC[C@H]2[C@@H]3[C@H](O)C[C@@H]4C[C@H](O)CC[C@]4(C)[C@H]3CC[C@]12C

>  <Structure_dimension>  (3897) 
2D

$$$$
MS4585
     RDKit          2D

 48 52  0  0  0  0  0  0  0  0999 V2000
    3.2858   -4.9728    0.0000 C   0  0  0  0  0  0  0  0  0  0  0  0
    3.6664   -3.5219    0.0000 C   0  0  0  0  0  0  0  0  0  0  0  0
    2.6002   -2.4669    0.0000 C   0  0  0  0  0  0  0  0  0  0  0  0
    1.1533   -2.8627    0.0000 C   0  0  0  0  0  0  0  0  0  0  0  0
    0.0871   -1.8076    0.0000 C   0  0  0  0  0  0  0  0  0  0  0  0
    0.4677   -0.3567    0.0000 O   0  0  0  0  0  0  0  0  0  0  0  0
   -1.3597   -2.2035    0.0000 N   0  0  0  0  0  0  0  0  0  0  0  0
   -2.4259   -1.1484    0.0000 C   0  0  0  0  0  0  0  0  0  0  0  0
   -3.8728   -1.5442    0.0000 C   0  0  0  0  0  0  0  0  0  0  0  0
   -4.9390   -0.4891    0.0000 C   0  0  0  0  0  0  0  0  0  0  0  0
   -6.3858   -0.8850    0.0000 C   0  0  0  0  0  0  0  0  0  0  0  0
   -7.4520    0.1701    0.0000 C   0  0  0  0  0  0  0  0  0  0  0  0
   -8.8989   -0.2257    0.0000 N   0  0  0  0  0  0  0  0  0  0  0  0
   -9.9651    0.8293    0.0000 C   0  0  0  0  0  0  0  0  0  0  0  0
   -9.5845    2.2802    0.0000 O   0  0  0  0  0  0  0  0  0  0  0  0
  -11.4119    0.4335    0.0000 O   0  0  0  0  0  0  0  0  0  0  0  0
  -12.4781    1.4886    0.0000 C   0  0  0  0  0  0  0  0  0  0  0  0
  -13.9250    1.0927    0.0000 C   0  0  0  0  0  0  0  0  0  0  0  0
  -14.9912    2.1478    0.0000 C   0  0  0  0  0  0  0  0  0  0  0  0
  -16.4380    1.7520    0.0000 C   0  0  0  0  0  0  0  0  0  0  0  0
  -16.8186    0.3011    0.0000 C   0  0  0  0  0  0  0  0  0  0  0  0
  -15.7524   -0.7540    0.0000 C   0  0  0  0  0  0  0  0  0  0  0  0
  -14.3056   -0.3582    0.0000 C   0  0  0  0  0  0  0  0  0  0  0  0
   -2.0453    0.3025    0.0000 C   0  0  0  0  0  0  0  0  0  0  0  0
   -0.5985    0.6984    0.0000 O   0  0  0  0  0  0  0  0  0  0  0  0
   -3.1115    1.3576    0.0000 O   0  0  0  0  0  0  0  0  0  0  0  0
    5.1132   -3.1261    0.0000 C   0  0  0  0  0  0  0  0  0  0  0  0
    6.2839   -4.0639    0.0000 C   0  0  0  0  0  0  0  0  0  0  0  0
    7.5376   -3.2404    0.0000 C   0  0  0  0  0  0  0  0  0  0  0  0
    7.1417   -1.7936    0.0000 C   0  0  0  0  0  0  0  0  0  0  0  0
    7.9521   -0.5313    0.0000 C   0  0  0  0  0  0  0  0  0  0  0  0
    9.4504   -0.6019    0.0000 C   0  0  0  0  0  0  0  0  0  0  0  0
   10.1384   -1.9348    0.0000 O   0  0  0  0  0  0  0  0  0  0  0  0
   10.2607    0.6604    0.0000 C   0  0  0  0  0  0  0  0  0  0  0  0
    9.5727    1.9933    0.0000 C   0  0  0  0  0  0  0  0  0  0  0  0
   10.3831    3.2556    0.0000 C   0  0  0  0  0  0  0  0  0  0  0  0
    9.6951    4.5885    0.0000 C   0  0  0  0  0  0  0  0  0  0  0  0
   10.5054    5.8508    0.0000 O   0  0  0  0  0  0  0  0  0  0  0  0
    8.1967    4.6591    0.0000 C   0  0  0  0  0  0  0  0  0  0  0  0
    7.3864    3.3968    0.0000 C   0  0  0  0  0  0  0  0  0  0  0  0
    8.0744    2.0639    0.0000 C   0  0  0  0  0  0  0  0  0  0  0  0
    6.5761    2.1345    0.0000 C   0  0  0  0  0  0  0  0  0  0  0  0
    7.2641    0.8016    0.0000 C   0  0  0  0  0  0  0  0  0  0  0  0
    5.7657    0.8723    0.0000 C   0  0  0  0  0  0  0  0  0  0  0  0
    4.9554   -0.3900    0.0000 C   0  0  0  0  0  0  0  0  0  0  0  0
    3.4571   -0.3194    0.0000 O   0  0  0  0  0  0  0  0  0  0  0  0
    5.6434   -1.7229    0.0000 C   0  0  0  0  0  0  0  0  0  0  0  0
    4.1459   -1.8093    0.0000 C   0  0  0  0  0  0  0  0  0  0  0  0
  2  1  1  6
  2  3  1  0
  3  4  1  0
  4  5  1  0
  5  6  2  0
  5  7  1  0
  7  8  1  0
  8  9  1  1
  9 10  1  0
 10 11  1  0
 11 12  1  0
 12 13  1  0
 13 14  1  0
 14 15  2  0
 14 16  1  0
 16 17  1  0
 17 18  1  0
 18 19  2  0
 19 20  1  0
 20 21  2  0
 21 22  1  0
 22 23  2  0
  8 24  1  0
 24 25  2  0
 24 26  1  0
  2 27  1  0
 27 28  1  6
 28 29  1  0
 30 29  1  6
 30 31  1  0
 31 32  1  1
 32 33  1  1
 32 34  1  0
 35 34  1  1
 35 36  1  0
 36 37  1  0
 37 38  1  1
 37 39  1  0
 39 40  1  0
 40 41  1  0
 41 42  1  6
 41 43  1  0
 43 44  1  6
 44 45  1  0
 45 46  1  1
 45 47  1  0
 47 48  1  6
 23 18  1  0
 47 27  1  0
 47 30  1  0
 43 31  1  0
 41 35  1  0
M  END
>  <MS_ID>  (3898) 
MS4585

>  <SMILES>  (3898) 
C[C@H](CCC(=O)N[C@@H](CCCCNC(=O)OCc1ccccc1)C(=O)O)[C@H]1CC[C@H]2[C@@H]3[C@H](O)C[C@@H]4C[C@H](O)CC[C@]4(C)[C@H]3C[C@H](O)[C@]12C

>  <Structure_dimension>  (3898) 
2D

$$$$
MS4586
     RDKit          2D

 28 31  0  0  0  0  0  0  0  0999 V2000
    7.5263   -2.7471    0.0000 C   0  0  0  0  0  0  0  0  0  0  0  0
    7.1320   -1.2999    0.0000 O   0  0  0  0  0  0  0  0  0  0  0  0
    5.6815   -0.9177    0.0000 C   0  0  0  0  0  0  0  0  0  0  0  0
    4.6253   -1.9828    0.0000 C   0  0  0  0  0  0  0  0  0  0  0  0
    3.1748   -1.6006    0.0000 C   0  0  0  0  0  0  0  0  0  0  0  0
    2.7805   -0.1533    0.0000 C   0  0  0  0  0  0  0  0  0  0  0  0
    1.7243   -1.2184    0.0000 C   0  0  0  0  0  0  0  0  0  0  0  0
    3.8367    0.9117    0.0000 C   0  0  0  0  0  0  0  0  0  0  0  0
    3.4425    2.3590    0.0000 C   0  0  0  0  0  0  0  0  0  0  0  0
    1.9920    2.7412    0.0000 C   0  0  0  0  0  0  0  0  0  0  0  0
    0.9358    1.6761    0.0000 C   0  0  0  0  0  0  0  0  0  0  0  0
    1.3300    0.2289    0.0000 C   0  0  0  0  0  0  0  0  0  0  0  0
    0.2738   -0.8362    0.0000 C   0  0  0  0  0  0  0  0  0  0  0  0
   -1.1767   -0.4540    0.0000 C   0  0  0  0  0  0  0  0  0  0  0  0
   -1.5710    0.9932    0.0000 C   0  0  0  0  0  0  0  0  0  0  0  0
   -2.7327    0.0444    0.0000 C   0  0  0  0  0  0  0  0  0  0  0  0
   -2.9103    1.6686    0.0000 C   0  0  0  0  0  0  0  0  0  0  0  0
   -4.2440    0.9821    0.0000 C   0  0  0  0  0  0  0  0  0  0  0  0
   -5.5054    1.7938    0.0000 C   0  0  0  0  0  0  0  0  0  0  0  0
   -4.3162   -0.5162    0.0000 C   0  0  0  0  0  0  0  0  0  0  0  0
   -5.6499   -1.2027    0.0000 C   0  0  0  0  0  0  0  0  0  0  0  0
   -5.7221   -2.7010    0.0000 C   0  0  0  0  0  0  0  0  0  0  0  0
   -4.4607   -3.5127    0.0000 O   0  0  0  0  0  0  0  0  0  0  0  0
   -7.0558   -3.3875    0.0000 O   0  0  0  0  0  0  0  0  0  0  0  0
   -2.6818    3.1511    0.0000 C   0  0  0  0  0  0  0  0  0  0  0  0
   -1.2013    3.3920    0.0000 C   0  0  0  0  0  0  0  0  0  0  0  0
   -0.5147    2.0583    0.0000 C   0  0  0  0  0  0  0  0  0  0  0  0
    5.2872    0.5296    0.0000 C   0  0  0  0  0  0  0  0  0  0  0  0
  1  2  1  0
  3  2  1  1
  3  4  1  0
  4  5  1  0
  5  6  1  0
  6  7  1  1
  6  8  1  0
  8  9  1  1
  9 10  1  0
 11 10  1  6
 11 12  1  0
 12 13  1  1
 13 14  1  0
 14 15  1  0
 15 16  1  1
 15 17  1  0
 17 18  1  0
 18 19  1  1
 18 20  1  0
 20 21  1  0
 21 22  1  0
 22 23  2  0
 22 24  1  0
 17 25  1  1
 25 26  1  0
 27 26  1  1
  8 28  1  0
 28  3  1  0
 12  6  1  0
 27 15  1  0
 27 11  1  0
M  END
>  <MS_ID>  (3899) 
MS4586

>  <SMILES>  (3899) 
CO[C@H]1CC[C@@]2(C)[C@@H](CC[C@@H]3[C@@H]2CC[C@]2(C)[C@@H]([C@H](C)CCC(=O)O)CC[C@@H]32)C1

>  <Structure_dimension>  (3899) 
2D

$$$$
MS4589
     RDKit          2D

 35 38  0  0  0  0  0  0  0  0999 V2000
   -1.6679   -4.3975    0.0000 C   0  0  0  0  0  0  0  0  0  0  0  0
   -1.0049   -3.0520    0.0000 C   0  0  0  0  0  0  0  0  0  0  0  0
   -1.8386   -1.8051    0.0000 C   0  0  0  0  0  0  0  0  0  0  0  0
   -3.3354   -1.9036    0.0000 C   0  0  0  0  0  0  0  0  0  0  0  0
   -4.1691   -0.6567    0.0000 C   0  0  0  0  0  0  0  0  0  0  0  0
   -3.5061    0.6889    0.0000 O   0  0  0  0  0  0  0  0  0  0  0  0
   -5.6659   -0.7552    0.0000 N   0  0  0  0  0  0  0  0  0  0  0  0
   -6.4996    0.4918    0.0000 C   0  0  0  0  0  0  0  0  0  0  0  0
   -7.9964    0.3932    0.0000 C   0  0  0  0  0  0  0  0  0  0  0  0
   -8.8301    1.6402    0.0000 N   0  0  0  0  0  0  0  0  0  0  0  0
  -10.3268    1.5416    0.0000 C   0  0  0  0  0  0  0  0  0  0  0  0
  -11.1606    2.7886    0.0000 C   0  0  0  0  0  0  0  0  0  0  0  0
  -12.6573    2.6900    0.0000 N   0  0  0  0  0  0  0  0  0  0  0  0
    0.4918   -2.9535    0.0000 C   0  0  0  0  0  0  0  0  0  0  0  0
    1.4513   -4.1065    0.0000 C   0  0  0  0  0  0  0  0  0  0  0  0
    2.8444   -3.5502    0.0000 C   0  0  0  0  0  0  0  0  0  0  0  0
    2.7459   -2.0535    0.0000 C   0  0  0  0  0  0  0  0  0  0  0  0
    3.7922   -0.9787    0.0000 C   0  0  0  0  0  0  0  0  0  0  0  0
    5.2462   -1.3475    0.0000 C   0  0  0  0  0  0  0  0  0  0  0  0
    5.6538   -2.7911    0.0000 O   0  0  0  0  0  0  0  0  0  0  0  0
    6.2925   -0.2727    0.0000 C   0  0  0  0  0  0  0  0  0  0  0  0
    5.8850    1.1708    0.0000 C   0  0  0  0  0  0  0  0  0  0  0  0
    6.9313    2.2456    0.0000 C   0  0  0  0  0  0  0  0  0  0  0  0
    6.5237    3.6892    0.0000 C   0  0  0  0  0  0  0  0  0  0  0  0
    7.5701    4.7639    0.0000 O   0  0  0  0  0  0  0  0  0  0  0  0
    5.0698    4.0580    0.0000 C   0  0  0  0  0  0  0  0  0  0  0  0
    4.0234    2.9832    0.0000 C   0  0  0  0  0  0  0  0  0  0  0  0
    4.4310    1.5396    0.0000 C   0  0  0  0  0  0  0  0  0  0  0  0
    2.9770    1.9084    0.0000 C   0  0  0  0  0  0  0  0  0  0  0  0
    3.3846    0.4649    0.0000 C   0  0  0  0  0  0  0  0  0  0  0  0
    1.9307    0.8337    0.0000 C   0  0  0  0  0  0  0  0  0  0  0  0
    0.8843   -0.2411    0.0000 C   0  0  0  0  0  0  0  0  0  0  0  0
   -0.5696    0.1277    0.0000 O   0  0  0  0  0  0  0  0  0  0  0  0
    1.2919   -1.6847    0.0000 C   0  0  0  0  0  0  0  0  0  0  0  0
   -0.1926   -1.4698    0.0000 C   0  0  0  0  0  0  0  0  0  0  0  0
  2  1  1  6
  2  3  1  0
  3  4  1  0
  4  5  1  0
  5  6  2  0
  5  7  1  0
  7  8  1  0
  8  9  1  0
  9 10  1  0
 10 11  1  0
 11 12  1  0
 12 13  1  0
  2 14  1  0
 14 15  1  6
 15 16  1  0
 17 16  1  6
 17 18  1  0
 18 19  1  1
 19 20  1  1
 19 21  1  0
 22 21  1  1
 22 23  1  0
 23 24  1  0
 24 25  1  1
 24 26  1  0
 26 27  1  0
 27 28  1  0
 28 29  1  6
 28 30  1  0
 30 31  1  6
 31 32  1  0
 32 33  1  1
 32 34  1  0
 34 35  1  6
 34 14  1  0
 34 17  1  0
 30 18  1  0
 28 22  1  0
M  END
>  <MS_ID>  (3900) 
MS4589

>  <SMILES>  (3900) 
C[C@H](CCC(=O)NCCNCCN)[C@H]1CC[C@H]2[C@@H]3[C@H](O)C[C@@H]4C[C@H](O)CC[C@]4(C)[C@H]3C[C@H](O)[C@]12C

>  <Structure_dimension>  (3900) 
2D

$$$$
